# Generated by pormake.
# Topology gar, (4,6)-cn, num edge types: 1
# Building blocks:
#     Node 0, Type 0, BuildingBlock: GALJAG_clean_sbu_0, # of connection points: 4
#     Node 1, Type 0, BuildingBlock: GALJAG_clean_sbu_0, # of connection points: 4
#     Node 2, Type 0, BuildingBlock: GALJAG_clean_sbu_0, # of connection points: 4
#     Node 3, Type 0, BuildingBlock: GALJAG_clean_sbu_0, # of connection points: 4
#     Node 4, Type 0, BuildingBlock: GALJAG_clean_sbu_0, # of connection points: 4
#     Node 5, Type 0, BuildingBlock: GALJAG_clean_sbu_0, # of connection points: 4
#     Node 6, Type 0, BuildingBlock: GALJAG_clean_sbu_0, # of connection points: 4
#     Node 7, Type 0, BuildingBlock: GALJAG_clean_sbu_0, # of connection points: 4
#     Node 8, Type 0, BuildingBlock: GALJAG_clean_sbu_0, # of connection points: 4
#     Node 9, Type 0, BuildingBlock: GALJAG_clean_sbu_0, # of connection points: 4
#     Node 10, Type 0, BuildingBlock: GALJAG_clean_sbu_0, # of connection points: 4
#     Node 11, Type 0, BuildingBlock: GALJAG_clean_sbu_0, # of connection points: 4
#     Node 12, Type 0, BuildingBlock: GALJAG_clean_sbu_0, # of connection points: 4
#     Node 13, Type 0, BuildingBlock: GALJAG_clean_sbu_0, # of connection points: 4
#     Node 14, Type 0, BuildingBlock: GALJAG_clean_sbu_0, # of connection points: 4
#     Node 15, Type 0, BuildingBlock: GALJAG_clean_sbu_0, # of connection points: 4
#     Node 16, Type 0, BuildingBlock: GALJAG_clean_sbu_0, # of connection points: 4
#     Node 17, Type 0, BuildingBlock: GALJAG_clean_sbu_0, # of connection points: 4
#     Node 18, Type 0, BuildingBlock: GALJAG_clean_sbu_0, # of connection points: 4
#     Node 19, Type 0, BuildingBlock: GALJAG_clean_sbu_0, # of connection points: 4
#     Node 20, Type 0, BuildingBlock: GALJAG_clean_sbu_0, # of connection points: 4
#     Node 21, Type 0, BuildingBlock: GALJAG_clean_sbu_0, # of connection points: 4
#     Node 22, Type 0, BuildingBlock: GALJAG_clean_sbu_0, # of connection points: 4
#     Node 23, Type 0, BuildingBlock: GALJAG_clean_sbu_0, # of connection points: 4
#     Node 24, Type 1, BuildingBlock: BETGAK_clean_sbu_0, # of connection points: 6
#     Node 25, Type 1, BuildingBlock: BETGAK_clean_sbu_0, # of connection points: 6
#     Node 26, Type 1, BuildingBlock: BETGAK_clean_sbu_0, # of connection points: 6
#     Node 27, Type 1, BuildingBlock: BETGAK_clean_sbu_0, # of connection points: 6
#     Node 28, Type 1, BuildingBlock: BETGAK_clean_sbu_0, # of connection points: 6
#     Node 29, Type 1, BuildingBlock: BETGAK_clean_sbu_0, # of connection points: 6
#     Node 30, Type 1, BuildingBlock: BETGAK_clean_sbu_0, # of connection points: 6
#     Node 31, Type 1, BuildingBlock: BETGAK_clean_sbu_0, # of connection points: 6
#     Node 32, Type 1, BuildingBlock: BETGAK_clean_sbu_0, # of connection points: 6
#     Node 33, Type 1, BuildingBlock: BETGAK_clean_sbu_0, # of connection points: 6
#     Node 34, Type 1, BuildingBlock: BETGAK_clean_sbu_0, # of connection points: 6
#     Node 35, Type 1, BuildingBlock: BETGAK_clean_sbu_0, # of connection points: 6
#     Node 36, Type 1, BuildingBlock: BETGAK_clean_sbu_0, # of connection points: 6
#     Node 37, Type 1, BuildingBlock: BETGAK_clean_sbu_0, # of connection points: 6
#     Node 38, Type 1, BuildingBlock: BETGAK_clean_sbu_0, # of connection points: 6
#     Node 39, Type 1, BuildingBlock: BETGAK_clean_sbu_0, # of connection points: 6
#     Edge 40, Type (0, 1), BuildingBlock: ZUJKAS_clean_linker_0, # of connection points: 2
#     Edge 41, Type (0, 1), BuildingBlock: ZUJKAS_clean_linker_0, # of connection points: 2
#     Edge 42, Type (0, 1), BuildingBlock: ZUJKAS_clean_linker_0, # of connection points: 2
#     Edge 43, Type (0, 1), BuildingBlock: ZUJKAS_clean_linker_0, # of connection points: 2
#     Edge 44, Type (0, 1), BuildingBlock: ZUJKAS_clean_linker_0, # of connection points: 2
#     Edge 45, Type (0, 1), BuildingBlock: ZUJKAS_clean_linker_0, # of connection points: 2
#     Edge 46, Type (0, 1), BuildingBlock: ZUJKAS_clean_linker_0, # of connection points: 2
#     Edge 47, Type (0, 1), BuildingBlock: ZUJKAS_clean_linker_0, # of connection points: 2
#     Edge 48, Type (0, 1), BuildingBlock: ZUJKAS_clean_linker_0, # of connection points: 2
#     Edge 49, Type (0, 1), BuildingBlock: ZUJKAS_clean_linker_0, # of connection points: 2
#     Edge 50, Type (0, 1), BuildingBlock: ZUJKAS_clean_linker_0, # of connection points: 2
#     Edge 51, Type (0, 1), BuildingBlock: ZUJKAS_clean_linker_0, # of connection points: 2
#     Edge 52, Type (0, 1), BuildingBlock: ZUJKAS_clean_linker_0, # of connection points: 2
#     Edge 53, Type (0, 1), BuildingBlock: ZUJKAS_clean_linker_0, # of connection points: 2
#     Edge 54, Type (0, 1), BuildingBlock: ZUJKAS_clean_linker_0, # of connection points: 2
#     Edge 55, Type (0, 1), BuildingBlock: ZUJKAS_clean_linker_0, # of connection points: 2
#     Edge 56, Type (0, 1), BuildingBlock: ZUJKAS_clean_linker_0, # of connection points: 2
#     Edge 57, Type (0, 1), BuildingBlock: ZUJKAS_clean_linker_0, # of connection points: 2
#     Edge 58, Type (0, 1), BuildingBlock: ZUJKAS_clean_linker_0, # of connection points: 2
#     Edge 59, Type (0, 1), BuildingBlock: ZUJKAS_clean_linker_0, # of connection points: 2
#     Edge 60, Type (0, 1), BuildingBlock: ZUJKAS_clean_linker_0, # of connection points: 2
#     Edge 61, Type (0, 1), BuildingBlock: ZUJKAS_clean_linker_0, # of connection points: 2
#     Edge 62, Type (0, 1), BuildingBlock: ZUJKAS_clean_linker_0, # of connection points: 2
#     Edge 63, Type (0, 1), BuildingBlock: ZUJKAS_clean_linker_0, # of connection points: 2
#     Edge 64, Type (0, 1), BuildingBlock: ZUJKAS_clean_linker_0, # of connection points: 2
#     Edge 65, Type (0, 1), BuildingBlock: ZUJKAS_clean_linker_0, # of connection points: 2
#     Edge 66, Type (0, 1), BuildingBlock: ZUJKAS_clean_linker_0, # of connection points: 2
#     Edge 67, Type (0, 1), BuildingBlock: ZUJKAS_clean_linker_0, # of connection points: 2
#     Edge 68, Type (0, 1), BuildingBlock: ZUJKAS_clean_linker_0, # of connection points: 2
#     Edge 69, Type (0, 1), BuildingBlock: ZUJKAS_clean_linker_0, # of connection points: 2
#     Edge 70, Type (0, 1), BuildingBlock: ZUJKAS_clean_linker_0, # of connection points: 2
#     Edge 71, Type (0, 1), BuildingBlock: ZUJKAS_clean_linker_0, # of connection points: 2
#     Edge 72, Type (0, 1), BuildingBlock: ZUJKAS_clean_linker_0, # of connection points: 2
#     Edge 73, Type (0, 1), BuildingBlock: ZUJKAS_clean_linker_0, # of connection points: 2
#     Edge 74, Type (0, 1), BuildingBlock: ZUJKAS_clean_linker_0, # of connection points: 2
#     Edge 75, Type (0, 1), BuildingBlock: ZUJKAS_clean_linker_0, # of connection points: 2
#     Edge 76, Type (0, 1), BuildingBlock: ZUJKAS_clean_linker_0, # of connection points: 2
#     Edge 77, Type (0, 1), BuildingBlock: ZUJKAS_clean_linker_0, # of connection points: 2
#     Edge 78, Type (0, 1), BuildingBlock: ZUJKAS_clean_linker_0, # of connection points: 2
#     Edge 79, Type (0, 1), BuildingBlock: ZUJKAS_clean_linker_0, # of connection points: 2
#     Edge 80, Type (0, 1), BuildingBlock: ZUJKAS_clean_linker_0, # of connection points: 2
#     Edge 81, Type (0, 1), BuildingBlock: ZUJKAS_clean_linker_0, # of connection points: 2
#     Edge 82, Type (0, 1), BuildingBlock: ZUJKAS_clean_linker_0, # of connection points: 2
#     Edge 83, Type (0, 1), BuildingBlock: ZUJKAS_clean_linker_0, # of connection points: 2
#     Edge 84, Type (0, 1), BuildingBlock: ZUJKAS_clean_linker_0, # of connection points: 2
#     Edge 85, Type (0, 1), BuildingBlock: ZUJKAS_clean_linker_0, # of connection points: 2
#     Edge 86, Type (0, 1), BuildingBlock: ZUJKAS_clean_linker_0, # of connection points: 2
#     Edge 87, Type (0, 1), BuildingBlock: ZUJKAS_clean_linker_0, # of connection points: 2
#     Edge 88, Type (0, 1), BuildingBlock: ZUJKAS_clean_linker_0, # of connection points: 2
#     Edge 89, Type (0, 1), BuildingBlock: ZUJKAS_clean_linker_0, # of connection points: 2
#     Edge 90, Type (0, 1), BuildingBlock: ZUJKAS_clean_linker_0, # of connection points: 2
#     Edge 91, Type (0, 1), BuildingBlock: ZUJKAS_clean_linker_0, # of connection points: 2
#     Edge 92, Type (0, 1), BuildingBlock: ZUJKAS_clean_linker_0, # of connection points: 2
#     Edge 93, Type (0, 1), BuildingBlock: ZUJKAS_clean_linker_0, # of connection points: 2
#     Edge 94, Type (0, 1), BuildingBlock: ZUJKAS_clean_linker_0, # of connection points: 2
#     Edge 95, Type (0, 1), BuildingBlock: ZUJKAS_clean_linker_0, # of connection points: 2
#     Edge 96, Type (0, 1), BuildingBlock: ZUJKAS_clean_linker_0, # of connection points: 2
#     Edge 97, Type (0, 1), BuildingBlock: ZUJKAS_clean_linker_0, # of connection points: 2
#     Edge 98, Type (0, 1), BuildingBlock: ZUJKAS_clean_linker_0, # of connection points: 2
#     Edge 99, Type (0, 1), BuildingBlock: ZUJKAS_clean_linker_0, # of connection points: 2
#     Edge 100, Type (0, 1), BuildingBlock: ZUJKAS_clean_linker_0, # of connection points: 2
#     Edge 101, Type (0, 1), BuildingBlock: ZUJKAS_clean_linker_0, # of connection points: 2
#     Edge 102, Type (0, 1), BuildingBlock: ZUJKAS_clean_linker_0, # of connection points: 2
#     Edge 103, Type (0, 1), BuildingBlock: ZUJKAS_clean_linker_0, # of connection points: 2
#     Edge 104, Type (0, 1), BuildingBlock: ZUJKAS_clean_linker_0, # of connection points: 2
#     Edge 105, Type (0, 1), BuildingBlock: ZUJKAS_clean_linker_0, # of connection points: 2
#     Edge 106, Type (0, 1), BuildingBlock: ZUJKAS_clean_linker_0, # of connection points: 2
#     Edge 107, Type (0, 1), BuildingBlock: ZUJKAS_clean_linker_0, # of connection points: 2
#     Edge 108, Type (0, 1), BuildingBlock: ZUJKAS_clean_linker_0, # of connection points: 2
#     Edge 109, Type (0, 1), BuildingBlock: ZUJKAS_clean_linker_0, # of connection points: 2
#     Edge 110, Type (0, 1), BuildingBlock: ZUJKAS_clean_linker_0, # of connection points: 2
#     Edge 111, Type (0, 1), BuildingBlock: ZUJKAS_clean_linker_0, # of connection points: 2
#     Edge 112, Type (0, 1), BuildingBlock: ZUJKAS_clean_linker_0, # of connection points: 2
#     Edge 113, Type (0, 1), BuildingBlock: ZUJKAS_clean_linker_0, # of connection points: 2
#     Edge 114, Type (0, 1), BuildingBlock: ZUJKAS_clean_linker_0, # of connection points: 2
#     Edge 115, Type (0, 1), BuildingBlock: ZUJKAS_clean_linker_0, # of connection points: 2
#     Edge 116, Type (0, 1), BuildingBlock: ZUJKAS_clean_linker_0, # of connection points: 2
#     Edge 117, Type (0, 1), BuildingBlock: ZUJKAS_clean_linker_0, # of connection points: 2
#     Edge 118, Type (0, 1), BuildingBlock: ZUJKAS_clean_linker_0, # of connection points: 2
#     Edge 119, Type (0, 1), BuildingBlock: ZUJKAS_clean_linker_0, # of connection points: 2
#     Edge 120, Type (0, 1), BuildingBlock: ZUJKAS_clean_linker_0, # of connection points: 2
#     Edge 121, Type (0, 1), BuildingBlock: ZUJKAS_clean_linker_0, # of connection points: 2
#     Edge 122, Type (0, 1), BuildingBlock: ZUJKAS_clean_linker_0, # of connection points: 2
#     Edge 123, Type (0, 1), BuildingBlock: ZUJKAS_clean_linker_0, # of connection points: 2
#     Edge 124, Type (0, 1), BuildingBlock: ZUJKAS_clean_linker_0, # of connection points: 2
#     Edge 125, Type (0, 1), BuildingBlock: ZUJKAS_clean_linker_0, # of connection points: 2
#     Edge 126, Type (0, 1), BuildingBlock: ZUJKAS_clean_linker_0, # of connection points: 2
#     Edge 127, Type (0, 1), BuildingBlock: ZUJKAS_clean_linker_0, # of connection points: 2
#     Edge 128, Type (0, 1), BuildingBlock: ZUJKAS_clean_linker_0, # of connection points: 2
#     Edge 129, Type (0, 1), BuildingBlock: ZUJKAS_clean_linker_0, # of connection points: 2
#     Edge 130, Type (0, 1), BuildingBlock: ZUJKAS_clean_linker_0, # of connection points: 2
#     Edge 131, Type (0, 1), BuildingBlock: ZUJKAS_clean_linker_0, # of connection points: 2
#     Edge 132, Type (0, 1), BuildingBlock: ZUJKAS_clean_linker_0, # of connection points: 2
#     Edge 133, Type (0, 1), BuildingBlock: ZUJKAS_clean_linker_0, # of connection points: 2
#     Edge 134, Type (0, 1), BuildingBlock: ZUJKAS_clean_linker_0, # of connection points: 2
#     Edge 135, Type (0, 1), BuildingBlock: ZUJKAS_clean_linker_0, # of connection points: 2
# Relax obj value: 0.182
# Max RMSD: 0.286
# Mean RMSD: 0.168
data_MOF--net-gar--node1-GALJAG_clean_sbu_0--node2-BETGAK_clean_sbu_0--edge1-ZUJKAS_clean_linker_0
_symmetry_space_group_name_H-M    P1
_symmetry_Int_Tables_number       1
_symmetry_cell_setting            triclinic
loop_
_symmetry_equiv_pos_as_xyz
'x, y, z'
_cell_length_a     78.376528
_cell_length_b     72.601367
_cell_length_c     72.918288
_cell_angle_alpha  97.639686
_cell_angle_beta   94.648702
_cell_angle_gamma 101.53989
loop_
_atom_site_label
_atom_site_type_symbol
_atom_site_fract_x
_atom_site_fract_y
_atom_site_fract_z
_atom_type_partial_charge
In0 In 0.09475 0.32844 0.39547 0.0
O1 O 0.10888 0.33114 0.37024 0.0
O2 O 0.12332 0.32729 0.39512 0.0
C3 C 0.06273 0.32225 0.37838 0.0
C4 C 0.0891 0.29669 0.41043 0.0
C5 C 0.09673 0.36396 0.41112 0.0
O6 O 0.07509 0.31727 0.37033 0.0
O7 O 0.0665 0.3301 0.39508 0.0
O8 O 0.09891 0.35119 0.42077 0.0
O9 O 0.09514 0.35899 0.39373 0.0
C10 C 0.12312 0.32914 0.37814 0.0
O11 O 0.09292 0.31285 0.4205 0.0
O12 O 0.08891 0.29679 0.39317 0.0
In13 In 1.00291 0.76615 0.6631 0.0
O14 O 0.01585 0.77823 0.64009 0.0
O15 O 1.00359 0.79631 0.65778 0.0
C16 C 0.99641 0.73305 0.64143 0.0
C17 C 0.0335 0.77047 0.68341 0.0
C18 C 0.97376 0.76451 0.67889 0.0
O19 O 0.99623 0.74836 0.63507 0.0
O20 O 0.99895 0.73442 0.65893 0.0
O21 O 0.98823 0.76505 0.68808 0.0
O22 O 0.97416 0.76537 0.66178 0.0
C23 C 0.01255 0.79443 0.64428 0.0
O24 O 0.02442 0.78299 0.68513 0.0
O25 O 0.0266 0.75553 0.67235 0.0
In26 In 0.59348 0.82778 0.89539 0.0
O27 O 0.60382 0.81857 0.86954 0.0
O28 O 0.62274 0.83276 0.89245 0.0
C29 C 0.56248 0.82492 0.87701 0.0
C30 C 0.58892 0.79625 0.91067 0.0
C31 C 0.59512 0.86323 0.91097 0.0
O32 O 0.5766 0.83089 0.87056 0.0
O33 O 0.56388 0.81979 0.89282 0.0
O34 O 0.59784 0.8508 0.92084 0.0
O35 O 0.59343 0.85801 0.89367 0.0
C36 C 0.61967 0.82467 0.87567 0.0
O37 O 0.59066 0.81239 0.92048 0.0
O38 O 0.59015 0.79634 0.89359 0.0
In39 In 0.50228 0.26446 0.16157 0.0
O40 O 0.49472 0.24491 0.13432 0.0
O41 O 0.49982 0.23274 0.15868 0.0
C42 C 0.50989 0.2951 0.14556 0.0
C43 C 0.47351 0.26538 0.17781 0.0
C44 C 0.53449 0.26872 0.17795 0.0
O45 O 0.50262 0.27901 0.13649 0.0
O46 O 0.51245 0.29592 0.16301 0.0
O47 O 0.52206 0.27144 0.18726 0.0
O48 O 0.53044 0.26348 0.16072 0.0
C49 C 0.49605 0.23022 0.14128 0.0
O50 O 0.48539 0.25791 0.18431 0.0
O51 O 0.47633 0.27265 0.16333 0.0
In52 In 0.07596 0.81277 0.13075 0.0
O53 O 0.06547 0.78977 0.10477 0.0
O54 O 0.08058 0.78267 0.1271 0.0
C55 C 0.07572 0.84514 0.11504 0.0
C56 C 0.04546 0.80402 0.1461 0.0
C57 C 0.10745 0.81878 0.15255 0.0
O58 O 0.08301 0.83217 0.10815 0.0
O59 O 0.0694 0.84216 0.12999 0.0
O60 O 0.0937 0.82243 0.15885 0.0
O61 O 0.10559 0.81338 0.13515 0.0
C62 C 0.07181 0.7771 0.11146 0.0
O63 O 0.06023 0.80542 0.15512 0.0
O64 O 0.04608 0.80743 0.12966 0.0
In65 In 0.51708 0.77747 0.41921 0.0
O66 O 0.5347 0.77654 0.39485 0.0
O67 O 0.54715 0.78752 0.42203 0.0
C68 C 0.4844 0.77961 0.40153 0.0
C69 C 0.51859 0.74617 0.43652 0.0
C70 C 0.523 0.81102 0.44126 0.0
O71 O 0.49502 0.77132 0.39326 0.0
O72 O 0.48986 0.78574 0.41833 0.0
O73 O 0.5162 0.79566 0.44668 0.0
O74 O 0.52707 0.8094 0.42477 0.0
C75 C 0.54904 0.78351 0.40507 0.0
O76 O 0.51569 0.76144 0.44468 0.0
O77 O 0.51945 0.74602 0.41931 0.0
In78 In 0.5743 0.31222 0.62982 0.0
O79 O 0.57882 0.29058 0.60524 0.0
O80 O 0.5652 0.28036 0.62719 0.0
C81 C 0.5731 0.34325 0.61194 0.0
C82 C 0.54369 0.30672 0.64538 0.0
C83 C 0.60504 0.31455 0.65187 0.0
O84 O 0.56455 0.32671 0.60561 0.0
O85 O 0.58265 0.34414 0.62691 0.0
O86 O 0.5912 0.31766 0.65828 0.0
O87 O 0.60353 0.31063 0.63432 0.0
C88 C 0.57072 0.27637 0.61174 0.0
O89 O 0.55762 0.31721 0.65411 0.0
O90 O 0.54516 0.29996 0.62893 0.0
In91 In 0.01605 0.27782 0.9183 0.0
O92 O 0.02431 0.26558 0.94435 0.0
O93 O 0.01216 0.24555 0.92084 0.0
C94 C 0.0195 0.31092 0.94079 0.0
C95 C 0.0473 0.28162 0.90287 0.0
C96 C 0.98392 0.27979 0.89932 0.0
O97 O 1.00871 0.29621 0.9431 0.0
O98 O 0.02831 0.30892 0.92729 0.0
O99 O 0.9987 0.28647 0.89429 0.0
O100 O 0.98523 0.27089 0.91295 0.0
C101 C 0.0194 0.24831 0.93742 0.0
O102 O 0.03322 0.27115 0.89419 0.0
O103 O 0.04531 0.28982 0.91861 0.0
In104 In 0.42841 0.03558 0.29797 0.0
O105 O 0.45033 0.03957 0.27963 0.0
O106 O 0.42356 0.03514 0.26796 0.0
C107 C 0.4431 0.0384 0.33178 0.0
C108 C 0.40921 0.06126 0.29791 0.0
C109 C 0.41832 0.99862 0.28858 0.0
O110 O 0.45126 0.04638 0.31969 0.0
O111 O 0.42729 0.0302 0.32694 0.0
O112 O 0.40758 1.00944 0.29018 0.0
O113 O 0.43429 1.00626 0.29302 0.0
C114 C 0.43941 0.03696 0.26526 0.0
O115 O 0.40272 0.04401 0.29852 0.0
O116 O 0.42575 0.06592 0.29932 0.0
In117 In 0.28661 0.19292 0.5092 0.0
O118 O 0.29807 0.21877 0.53249 0.0
O119 O 0.27956 0.19572 0.53901 0.0
C120 C 0.28874 0.20873 0.47665 0.0
C121 C 0.31464 0.17695 0.51606 0.0
C122 C 0.2534 0.17077 0.50576 0.0
O123 O 0.28281 0.21617 0.49076 0.0
O124 O 0.29361 0.1936 0.47897 0.0
O125 O 0.26664 0.16406 0.50199 0.0
O126 O 0.25681 0.18862 0.51047 0.0
C127 C 0.28966 0.21158 0.54484 0.0
O128 O 0.29949 0.1672 0.5101 0.0
O129 O 0.31576 0.19468 0.51798 0.0
In130 In 0.16597 0.02245 0.78229 0.0
O131 O 0.13972 0.01804 0.76058 0.0
O132 O 0.16358 0.02288 0.74949 0.0
C133 C 0.14798 0.02463 0.81642 0.0
C134 C 0.18486 0.9911 0.77925 0.0
C135 C 0.18587 0.0604 0.78381 0.0
O136 O 0.14298 1.01208 0.80211 0.0
O137 O 0.16178 0.03588 0.81368 0.0
O138 O 0.19114 0.04792 0.79214 0.0
O139 O 0.17076 0.05394 0.77514 0.0
C140 C 0.14715 0.02025 0.74594 0.0
O141 O 0.19196 1.00865 0.78184 0.0
O142 O 0.16838 0.98912 0.77853 0.0
In143 In 0.30488 0.92688 0.01155 0.0
O144 O 0.29901 0.90506 0.03079 0.0
O145 O 0.31445 0.93305 0.04116 0.0
C146 C 0.30292 0.90782 0.97834 0.0
C147 C 0.28033 0.94588 0.01699 0.0
C148 C 0.33787 0.94142 0.01046 0.0
O149 O 0.30142 0.89937 0.99243 0.0
O150 O 0.30338 0.92544 0.98104 0.0
O151 O 0.32598 0.94999 1.00595 0.0
O152 O 0.333 0.92537 0.01538 0.0
C153 C 0.30796 0.91665 0.04436 0.0
O154 O 0.29633 0.95361 0.02041 0.0
O155 O 0.27655 0.92854 0.00984 0.0
In156 In 0.31014 0.39914 0.04103 0.0
O157 O 0.31141 0.37331 0.05647 0.0
O158 O 0.30637 0.39797 0.0721 0.0
C159 C 0.30413 0.37891 1.0065 0.0
C160 C 0.28013 0.41343 0.03749 0.0
C161 C 0.34486 0.41843 0.04104 0.0
O162 O 0.30314 0.37082 0.02082 0.0
O163 O 0.30782 0.39681 0.00966 0.0
O164 O 0.33449 0.42474 0.05152 0.0
O165 O 0.33803 0.4025 0.03155 0.0
C166 C 0.30779 0.3809 0.07189 0.0
O167 O 0.29514 0.42316 0.03607 0.0
O168 O 0.28036 0.39704 0.04119 0.0
In169 In 0.7844 0.15193 0.03488 0.0
O170 O 0.79951 0.1288 0.03767 0.0
O171 O 0.81165 0.15486 0.02895 0.0
C172 C 0.75093 0.13675 0.03283 0.0
C173 C 0.78978 0.17382 0.06718 0.0
C174 C 0.78039 0.16383 1.00287 0.0
O175 O 0.76174 0.12693 0.02743 0.0
O176 O 0.75723 0.15373 0.04015 0.0
O177 O 0.78734 0.17508 0.01746 0.0
O178 O 0.77578 0.14652 1.00441 0.0
C179 C 0.81287 0.13861 0.03226 0.0
O180 O 0.792 0.18039 0.05218 0.0
O181 O 0.78531 0.15593 0.06595 0.0
In182 In 0.17329 0.55618 0.25716 0.0
O183 O 0.19531 0.5413 0.25355 0.0
O184 O 0.17034 0.52637 0.26002 0.0
C185 C 0.18791 0.5919 0.26639 0.0
C186 C 0.15895 0.55083 0.22332 0.0
C187 C 0.15754 0.55873 0.2872 0.0
O188 O 0.19648 0.57916 0.26857 0.0
O189 O 0.17261 0.58649 0.25811 0.0
O190 O 0.14973 0.55871 0.27133 0.0
O191 O 0.17301 0.55619 0.28768 0.0
C192 C 0.18595 0.52619 0.25722 0.0
O193 O 0.15097 0.54388 0.23598 0.0
O194 O 0.17437 0.56043 0.2277 0.0
In195 In 0.80974 0.89984 0.54103 0.0
O196 O 0.80263 0.87251 0.55427 0.0
O197 O 0.80994 0.89863 0.57265 0.0
C198 C 0.80712 0.87844 0.50739 0.0
C199 C 0.77918 0.91311 0.53898 0.0
C200 C 0.84352 0.92126 0.54008 0.0
O201 O 0.81343 0.87339 0.52196 0.0
O202 O 0.80246 0.89411 0.50991 0.0
O203 O 0.82982 0.92523 0.53276 0.0
O204 O 0.84024 0.90728 0.54879 0.0
C205 C 0.80496 0.88073 0.57093 0.0
O206 O 0.79324 0.92289 0.54819 0.0
O207 O 0.7806 0.89696 0.53137 0.0
In208 In 0.93002 0.06721 0.26864 0.0
O209 O 0.95631 0.07357 0.25309 0.0
O210 O 0.93302 0.06363 0.23565 0.0
C211 C 0.95147 0.06697 0.30226 0.0
C212 C 0.91333 0.10069 0.26988 0.0
C213 C 0.90918 0.02906 0.26906 0.0
O214 O 0.95209 0.05725 0.28675 0.0
O215 O 0.94066 0.07766 0.30095 0.0
O216 O 0.90683 0.0441 0.27861 0.0
O217 O 0.92089 0.03328 0.25847 0.0
C218 C 0.94955 0.06869 0.23632 0.0
O219 O 0.90561 0.08352 0.26383 0.0
O220 O 0.92926 0.10113 0.27522 0.0
In221 In 0.28529 0.65319 0.53619 0.0
O222 O 0.30052 0.63085 0.54093 0.0
O223 O 0.31087 0.65336 0.52585 0.0
C224 C 0.25191 0.6367 0.53298 0.0
C225 C 0.29239 0.67407 0.56898 0.0
C226 C 0.27986 0.66968 0.50741 0.0
O227 O 0.26279 0.62838 0.52536 0.0
O228 O 0.2582 0.65235 0.54316 0.0
O229 O 0.28259 0.67875 0.52375 0.0
O230 O 0.28071 0.65239 0.50553 0.0
C231 C 0.31253 0.63838 0.532 0.0
O232 O 0.29616 0.68083 0.55437 0.0
O233 O 0.28624 0.65636 0.56705 0.0
In234 In 0.42994 0.56693 0.76946 0.0
O235 O 0.4122 0.58805 0.75748 0.0
O236 O 0.42145 0.59559 0.78526 0.0
C237 C 0.40964 0.52831 0.76831 0.0
C238 C 0.45007 0.56719 0.73736 0.0
C239 C 0.45006 0.56681 0.80389 0.0
O240 O 0.40315 0.5431 0.7703 0.0
O241 O 0.42561 0.53285 0.76578 0.0
O242 O 0.45458 0.57888 0.79311 0.0
O243 O 0.43562 0.55574 0.79773 0.0
C244 C 0.41278 0.60024 0.77181 0.0
O245 O 0.45673 0.57166 0.75421 0.0
O246 O 0.43353 0.56269 0.73659 0.0
In247 In 0.67293 0.05557 0.75819 0.0
O248 O 0.69725 0.04439 0.75891 0.0
O249 O 0.67224 0.02477 0.75461 0.0
C250 C 0.68515 0.09227 0.76405 0.0
C251 C 0.65681 0.05156 0.72502 0.0
C252 C 0.65854 0.05503 0.78949 0.0
O253 O 0.69486 0.08078 0.76685 0.0
O254 O 0.66959 0.08524 0.75732 0.0
O255 O 0.64955 0.05177 0.77384 0.0
O256 O 0.67485 0.05725 0.78927 0.0
C257 C 0.68872 0.02742 0.75687 0.0
O258 O 0.64878 0.04907 0.7391 0.0
O259 O 0.67337 0.05514 0.72748 0.0
In260 In 0.78657 0.69336 0.0093 0.0
O261 O 0.79957 0.67002 0.01815 0.0
O262 O 0.81555 0.69217 1.00695 0.0
C263 C 0.75372 0.6702 1.0077 0.0
C264 C 0.7923 0.71461 0.04423 0.0
C265 C 0.78893 0.70872 0.97656 0.0
O266 O 0.76668 0.66424 1.00191 0.0
O267 O 0.75721 0.68775 0.01382 0.0
O268 O 0.78934 0.71874 0.99223 0.0
O269 O 0.78733 0.69124 0.97743 0.0
C270 C 0.81464 0.67712 0.01415 0.0
O271 O 0.78189 0.71774 0.0314 0.0
O272 O 0.80014 0.70166 0.03918 0.0
In273 In 0.93197 0.54119 0.79912 0.0
O274 O 0.9075 0.55107 0.79969 0.0
O275 O 0.93073 0.57173 0.7975 0.0
C276 C 0.91561 0.50556 0.79388 0.0
C277 C 0.94171 0.5383 0.76553 0.0
C278 C 0.9474 0.54359 0.83252 0.0
O279 O 0.90827 0.51902 0.79884 0.0
O280 O 0.93178 0.51001 0.79249 0.0
O281 O 0.95629 0.54725 0.81924 0.0
O282 O 0.93106 0.54067 0.82902 0.0
C283 C 0.91419 0.56763 0.79713 0.0
O284 O 0.95295 0.54093 0.77964 0.0
O285 O 0.92617 0.53824 0.7687 0.0
In286 In 0.80492 0.42637 0.51091 0.0
O287 O 0.79958 0.40351 0.52921 0.0
O288 O 0.80916 0.43273 0.54142 0.0
C289 C 0.80348 0.41005 0.47652 0.0
C290 C 0.77972 0.44514 0.51287 0.0
C291 C 0.83879 0.43854 0.51768 0.0
O292 O 0.79709 0.40076 0.48876 0.0
O293 O 0.80976 0.42756 0.48152 0.0
O294 O 0.82844 0.4498 0.51699 0.0
O295 O 0.83215 0.42096 0.51374 0.0
C296 C 0.80496 0.41564 0.54373 0.0
O297 O 0.79548 0.45344 0.5129 0.0
O298 O 0.77652 0.42719 0.51024 0.0
In299 In 0.66672 0.52266 0.28217 0.0
O300 O 0.69129 0.50728 0.28657 0.0
O301 O 0.66885 0.48976 0.27186 0.0
C302 C 0.68649 0.56096 0.28418 0.0
C303 C 0.64876 0.51954 0.24545 0.0
C304 C 0.64844 0.52382 0.31616 0.0
O305 O 0.69301 0.54731 0.28854 0.0
O306 O 0.67025 0.55554 0.27932 0.0
O307 O 0.64189 0.5254 0.30012 0.0
O308 O 0.6638 0.52107 0.31515 0.0
C309 C 0.68464 0.49065 0.27813 0.0
O310 O 0.64121 0.51451 0.25933 0.0
O311 O 0.66511 0.52531 0.24985 0.0
La312 La 0.0373 0.04316 0.01988 0.0
La313 La 0.07074 0.0596 0.03893 0.0
C314 C 1.0055 0.03596 1.00724 0.0
C315 C 0.99224 0.04749 1.00794 0.0
C316 C 0.97943 0.04478 0.99276 0.0
C317 C 0.96653 0.05543 0.99319 0.0
C318 C 0.96643 0.0689 0.00877 0.0
C319 C 0.97954 0.07217 0.02375 0.0
C320 C 0.99251 0.06154 0.02332 0.0
C321 C 0.06257 0.03959 0.99697 0.0
C322 C 0.0508 0.08818 0.02445 0.0
C323 C 0.10362 0.06702 0.04466 0.0
C324 C 0.11594 0.05509 0.049 0.0
C325 C 0.13046 0.06244 0.06229 0.0
C326 C 0.14312 0.05177 0.06511 0.0
C327 C 0.14132 0.0337 0.0546 0.0
C328 C 0.12618 0.02586 0.04224 0.0
C329 C 0.11358 0.03647 0.03944 0.0
C330 C 0.04891 0.06062 0.06637 0.0
C331 C 0.05557 0.01587 0.03919 0.0
O332 O 0.01822 0.04158 0.99749 0.0
O333 O 0.01116 0.03157 0.02307 0.0
O334 O 0.04924 0.02645 0.99887 0.0
O335 O 0.0618 0.05405 0.00893 0.0
O336 O 0.0373 0.07358 0.02128 0.0
O337 O 0.06631 0.08613 0.03103 0.0
O338 O 0.09366 0.07088 0.05749 0.0
O339 O 0.09486 0.06231 0.02815 0.0
O340 O 0.06564 0.06732 0.06806 0.0
O341 O 0.04458 0.05409 0.04897 0.0
O342 O 0.06974 0.02934 0.03987 0.0
O343 O 0.0402 0.01869 0.03314 0.0
H344 H 0.97926 0.03422 0.98072 0.0
H345 H 0.95631 0.05278 0.98162 0.0
H346 H 0.9794 0.08246 0.03592 0.0
H347 H 1.00253 0.06405 0.03505 0.0
H348 H 0.1323 0.07666 0.06996 0.0
H349 H 0.15473 0.05806 0.07472 0.0
H350 H 0.1244 1.01178 0.03425 0.0
H351 H 0.10232 0.03032 0.0293 0.0
La352 La 0.29974 0.812 0.27978 0.0
La353 La 0.28182 0.8154 0.30928 0.0
C354 C 0.31526 0.81422 0.25128 0.0
C355 C 0.31766 0.82824 0.23903 0.0
C356 C 0.33274 0.83075 0.22994 0.0
C357 C 0.33534 0.84432 0.21823 0.0
C358 C 0.3228 0.8553 0.21562 0.0
C359 C 0.30804 0.85334 0.22536 0.0
C360 C 0.30551 0.83986 0.2372 0.0
C361 C 0.31881 0.80498 0.30903 0.0
C362 C 0.29847 0.85212 0.29964 0.0
C363 C 0.2661 0.81507 0.33786 0.0
C364 C 0.26142 0.80184 0.35057 0.0
C365 C 0.24446 0.79918 0.35582 0.0
C366 C 0.23867 0.78475 0.36591 0.0
C367 C 0.2499 0.77303 0.3708 0.0
C368 C 0.26711 0.77608 0.36596 0.0
C369 C 0.27281 0.79034 0.35566 0.0
C370 C 0.26268 0.82 0.27848 0.0
C371 C 0.28111 0.7754 0.28973 0.0
O372 O 0.32292 0.82044 0.26808 0.0
O373 O 0.29922 0.80472 0.251 0.0
O374 O 0.31561 0.79503 0.2927 0.0
O375 O 0.31021 0.81823 0.30924 0.0
O376 O 0.29805 0.84191 0.28326 0.0
O377 O 0.29564 0.84391 0.31411 0.0
O378 O 0.25839 0.80916 0.32104 0.0
O379 O 0.28274 0.82243 0.33817 0.0
O380 O 0.26468 0.8305 0.2945 0.0
O381 O 0.27187 0.80768 0.27977 0.0
O382 O 0.28224 0.78551 0.30622 0.0
O383 O 0.2848 0.78356 0.27524 0.0
H384 H 0.34228 0.822 0.23166 0.0
H385 H 0.34665 0.84554 0.21048 0.0
H386 H 0.29826 0.86174 0.22329 0.0
H387 H 0.29397 0.83824 0.24457 0.0
H388 H 0.23553 0.80786 0.35159 0.0
H389 H 0.22536 0.7825 0.36956 0.0
H390 H 0.27608 0.76739 0.37005 0.0
H391 H 0.28589 0.79211 0.35138 0.0
La392 La 0.55929 0.03929 0.53193 0.0
La393 La 0.5198 0.03669 0.53733 0.0
C394 C 0.59008 0.03361 0.53041 0.0
C395 C 0.6002 0.01815 0.52868 0.0
C396 C 0.60663 0.01288 0.51169 0.0
C397 C 0.61845 1.00066 0.51047 0.0
C398 C 0.62432 0.99343 0.52625 0.0
C399 C 0.61718 0.99795 0.54301 0.0
C400 C 0.60534 1.01015 0.54423 0.0
C401 C 0.53808 0.04164 0.50343 0.0
C402 C 0.53241 0.99917 0.52915 0.0
C403 C 0.48873 0.04128 0.53427 0.0
C404 C 0.47873 0.05626 0.53898 0.0
C405 C 0.4675 0.05461 0.55305 0.0
C406 C 0.45621 0.06712 0.55607 0.0
C407 C 0.45588 0.08157 0.54508 0.0
C408 C 0.46769 0.0838 0.5316 0.0
C409 C 0.47896 0.07125 0.52854 0.0
C410 C 0.53963 0.03288 0.56587 0.0
C411 C 0.54742 0.07728 0.54339 0.0
O412 O 0.57952 0.03454 0.51587 0.0
O413 O 0.58348 0.03779 0.54604 0.0
O414 O 0.55417 0.05108 0.50645 0.0
O415 O 0.53485 0.03105 0.51538 0.0
O416 O 0.54864 1.00934 0.5334 0.0
O417 O 0.5187 1.0071 0.52702 0.0
O418 O 0.4956 0.03448 0.5482 0.0
O419 O 0.49916 0.04339 0.52115 0.0
O420 O 0.52289 0.02604 0.56361 0.0
O421 O 0.54402 0.04363 0.5542 0.0
O422 O 0.53099 0.06731 0.54064 0.0
O423 O 0.5612 0.06923 0.54237 0.0
H424 H 0.60309 0.01886 0.49945 0.0
H425 H 0.62366 0.99768 0.49734 0.0
H426 H 0.62106 0.99238 0.55539 0.0
H427 H 0.6007 0.01381 0.55754 0.0
H428 H 0.46702 0.04322 0.56132 0.0
H429 H 0.4474 0.06518 0.56669 0.0
H430 H 0.46763 0.09468 0.52278 0.0
H431 H 0.48738 0.07293 0.51755 0.0
La432 La 0.28367 0.29642 0.77832 0.0
La433 La 0.31855 0.28575 0.77997 0.0
C434 C 0.2516 0.29237 0.7841 0.0
C435 C 0.23949 0.29613 0.79848 0.0
C436 C 0.23321 0.31308 0.80121 0.0
C437 C 0.21981 0.31483 0.8128 0.0
C438 C 0.21215 0.29956 0.82162 0.0
C439 C 0.2189 0.28297 0.81941 0.0
C440 C 0.23235 0.28131 0.80813 0.0
C441 C 0.30839 0.32944 0.7789 0.0
C442 C 0.30701 0.30098 0.81709 0.0
C443 C 0.34863 0.27922 0.7754 0.0
C444 C 0.36138 0.27836 0.76156 0.0
C445 C 0.36875 0.26223 0.75883 0.0
C446 C 0.38215 0.26155 0.74735 0.0
C447 C 0.38855 0.27706 0.73833 0.0
C448 C 0.38068 0.29297 0.74055 0.0
C449 C 0.36725 0.29363 0.75205 0.0
C450 C 0.29169 0.25761 0.78521 0.0
C451 C 0.29729 0.28426 0.74056 0.0
O452 O 0.25974 0.30608 0.77588 0.0
O453 O 0.26156 0.2805 0.78745 0.0
O454 O 0.29147 0.32753 0.77785 0.0
O455 O 0.31078 0.31248 0.7793 0.0
O456 O 0.29135 0.29832 0.80789 0.0
O457 O 0.32093 0.29923 0.80864 0.0
O458 O 0.33417 0.2662 0.77225 0.0
O459 O 0.34588 0.29585 0.78222 0.0
O460 O 0.30709 0.26221 0.79458 0.0
O461 O 0.29172 0.26933 0.77356 0.0
O462 O 0.31271 0.28645 0.75034 0.0
O463 O 0.28304 0.28609 0.74865 0.0
H464 H 0.23821 0.32474 0.79393 0.0
H465 H 0.21486 0.32779 0.81414 0.0
H466 H 0.21343 0.27099 0.82608 0.0
H467 H 0.23667 0.26797 0.80636 0.0
H468 H 0.36447 0.25029 0.76606 0.0
H469 H 0.38793 0.24915 0.74614 0.0
H470 H 0.38503 0.30502 0.73353 0.0
H471 H 0.36174 0.30621 0.75377 0.0
La472 La 0.04874 0.05512 0.5263 0.0
La473 La 0.05576 0.01987 0.51229 0.0
C474 C 0.0474 0.08965 0.52971 0.0
C475 C 0.0465 0.10241 0.51575 0.0
C476 C 0.03318 0.11267 0.51546 0.0
C477 C 0.03251 0.12545 0.50289 0.0
C478 C 0.04531 0.12838 0.49052 0.0
C479 C 0.05818 0.11738 0.49019 0.0
C480 C 0.05871 0.10442 0.50263 0.0
C481 C 0.02227 0.02627 0.52873 0.0
C482 C 0.04064 0.04031 0.48179 0.0
C483 C 0.05753 0.98552 0.50687 0.0
C484 C 0.05805 0.97159 0.51959 0.0
C485 C 0.0733 0.96462 0.52257 0.0
C486 C 0.07421 0.95187 0.53508 0.0
C487 C 0.05972 0.94564 0.54453 0.0
C488 C 0.04447 0.95273 0.54156 0.0
C489 C 0.0437 0.96573 0.52935 0.0
C490 C 0.08183 0.04868 0.50921 0.0
C491 C 0.06437 0.03495 0.55689 0.0
O492 O 0.03363 0.07604 0.52936 0.0
O493 O 0.06196 0.08366 0.53188 0.0
O494 O 0.02812 0.04091 0.54157 0.0
O495 O 0.03128 0.02825 0.51518 0.0
O496 O 0.04418 0.05493 0.49555 0.0
O497 O 0.04309 0.0236 0.48536 0.0
O498 O 0.07125 0.99948 0.50888 0.0
O499 O 0.04289 0.9914 0.50473 0.0
O500 O 0.07623 0.03372 0.49677 0.0
O501 O 0.07306 0.04683 0.52292 0.0
O502 O 0.06009 0.01999 0.54335 0.0
O503 O 0.06232 0.05172 0.55299 0.0
H504 H 0.02344 0.11102 0.52518 0.0
H505 H 0.02217 0.13336 0.50315 0.0
H506 H 0.06829 0.11934 0.48091 0.0
H507 H 0.06894 0.09635 0.50224 0.0
H508 H 0.08458 0.96915 0.51533 0.0
H509 H 0.08625 0.94693 0.53733 0.0
H510 H 0.03294 0.94797 0.54832 0.0
H511 H 0.0318 0.97104 0.52751 0.0
La512 La 0.32131 0.8159 0.76984 0.0
La513 La 0.28902 0.78718 0.77161 0.0
C514 C 0.35088 0.83704 0.77874 0.0
C515 C 0.36843 0.83298 0.7802 0.0
C516 C 0.37807 0.83284 0.76476 0.0
C517 C 0.39414 0.82744 0.76584 0.0
C518 C 0.40061 0.82208 0.78232 0.0
C519 C 0.39114 0.8225 0.79781 0.0
C520 C 0.37522 0.82801 0.79681 0.0
C521 C 0.30612 0.79795 0.7378 0.0
C522 C 0.32421 0.77087 0.77354 0.0
C523 C 0.25876 0.7677 0.76254 0.0
C524 C 0.2421 0.77344 0.75849 0.0
C525 C 0.23121 0.77613 0.77257 0.0
C526 C 0.21534 0.78138 0.76848 0.0
C527 C 0.21023 0.78383 0.75029 0.0
C528 C 0.22134 0.78195 0.73641 0.0
C529 C 0.23716 0.77677 0.74045 0.0
C530 C 0.30475 0.80511 0.80339 0.0
C531 C 0.28594 0.83179 0.76807 0.0
O532 O 0.34267 0.83416 0.76189 0.0
O533 O 0.34075 0.83042 0.79089 0.0
O534 O 0.31451 0.81558 0.74022 0.0
O535 O 0.3077 0.79109 0.75257 0.0
O536 O 0.33229 0.78912 0.77307 0.0
O537 O 0.30673 0.76657 0.7726 0.0
O538 O 0.266 0.77185 0.77985 0.0
O539 O 0.27014 0.77144 0.75065 0.0
O540 O 0.29658 0.78738 0.80105 0.0
O541 O 0.30266 0.81202 0.78875 0.0
O542 O 0.27797 0.81345 0.76751 0.0
O543 O 0.30341 0.83629 0.76993 0.0
H544 H 0.37315 0.83673 0.75183 0.0
H545 H 0.4015 0.82747 0.75389 0.0
H546 H 0.39625 0.819 0.81087 0.0
H547 H 0.36819 0.8282 0.80901 0.0
H548 H 0.23478 0.77381 0.78662 0.0
H549 H 0.20669 0.78261 0.77924 0.0
H550 H 0.21743 0.78378 0.72228 0.0
H551 H 0.24532 0.77502 0.72932 0.0
La552 La 0.53946 0.04991 0.02888 0.0
La553 La 0.53055 0.05493 0.98745 0.0
C554 C 0.53677 0.05023 0.06265 0.0
C555 C 0.52283 0.03978 0.07193 0.0
C556 C 0.52331 0.02145 0.07579 0.0
C557 C 0.51033 1.0119 0.0851 0.0
C558 C 0.49677 0.02059 0.09065 0.0
C559 C 0.49552 0.03826 0.08562 0.0
C560 C 0.50859 0.04791 0.07651 0.0
C561 C 0.54383 0.02275 1.00399 0.0
C562 C 0.50031 0.04095 0.01025 0.0
C563 C 0.52873 0.05157 0.95292 0.0
C564 C 0.53901 0.06392 0.94179 0.0
C565 C 0.54184 0.08386 0.94635 0.0
C566 C 0.55542 0.09548 0.93944 0.0
C567 C 0.56636 0.08717 0.92829 0.0
C568 C 0.56281 0.0674 0.92277 0.0
C569 C 0.54913 0.05583 0.92941 0.0
C570 C 0.53227 0.08616 0.01152 0.0
C571 C 0.56923 0.06901 0.00874 0.0
O572 O 0.54641 0.04007 0.05358 0.0
O573 O 0.53213 0.06295 0.05329 0.0
O574 O 0.55307 0.02807 0.02012 0.0
O575 O 0.53145 0.03155 1.00258 0.0
O576 O 0.51179 0.04024 0.02411 0.0
O577 O 0.50438 0.04456 0.99374 0.0
O578 O 0.51767 0.05903 0.9625 0.0
O579 O 0.5381 0.04252 0.96279 0.0
O580 O 0.52695 0.08477 0.994 0.0
O581 O 0.53714 0.0712 0.01328 0.0
O582 O 0.55922 0.06288 0.99258 0.0
O583 O 0.56326 0.06829 0.0251 0.0
H584 H 0.53398 0.01471 0.07219 0.0
H585 H 0.51148 0.99829 0.08904 0.0
H586 H 0.48524 0.04529 0.09001 0.0
H587 H 0.50769 0.06191 0.07342 0.0
H588 H 0.53429 0.09044 0.95608 0.0
H589 H 0.55795 0.11077 0.94352 0.0
H590 H 0.57102 0.06086 0.91379 0.0
H591 H 0.54726 0.04052 0.92595 0.0
La592 La 0.29048 0.30141 0.27176 0.0
La593 La 0.28107 0.26063 0.25918 0.0
C594 C 0.29802 0.33686 0.27629 0.0
C595 C 0.28581 0.34962 0.27838 0.0
C596 C 0.28804 0.36331 0.29434 0.0
C597 C 0.27605 0.37496 0.29679 0.0
C598 C 0.2618 0.37303 0.28324 0.0
C599 C 0.25905 0.35872 0.26777 0.0
C600 C 0.27094 0.34704 0.26537 0.0
C601 C 0.28797 0.28087 0.29929 0.0
C602 C 0.25152 0.2823 0.26921 0.0
C603 C 0.27446 0.22508 0.25526 0.0
C604 C 0.28673 0.21221 0.25256 0.0
C605 C 0.28669 0.20163 0.23497 0.0
C606 C 0.29907 0.19049 0.23192 0.0
C607 C 0.31163 0.18959 0.24645 0.0
C608 C 0.31176 0.2003 0.26402 0.0
C609 C 0.2995 0.21154 0.26702 0.0
C610 C 0.28395 0.28131 0.23164 0.0
C611 C 0.31971 0.28018 0.26058 0.0
O612 O 0.29946 0.32715 0.28996 0.0
O613 O 0.29662 0.32637 0.25999 0.0
O614 O 0.28292 0.29673 0.29915 0.0
O615 O 0.29484 0.27716 0.28448 0.0
O616 O 0.26256 0.29814 0.26781 0.0
O617 O 0.25638 0.26587 0.26806 0.0
O618 O 0.27193 0.23451 0.24157 0.0
O619 O 0.27648 0.23586 0.2715 0.0
O620 O 0.28847 0.26513 0.23156 0.0
O621 O 0.27707 0.28495 0.24644 0.0
O622 O 0.30904 0.26418 0.26214 0.0
O623 O 0.31478 0.29649 0.26229 0.0
H624 H 0.29913 0.36509 0.30478 0.0
H625 H 0.27836 0.38605 0.30878 0.0
H626 H 0.248 0.35698 0.25727 0.0
H627 H 0.2685 0.33612 0.25327 0.0
H628 H 0.27717 0.20213 0.22351 0.0
H629 H 0.29878 0.18257 0.21818 0.0
H630 H 0.32106 0.19965 0.27562 0.0
H631 H 0.30009 0.21968 0.28072 0.0
La632 La 0.54939 0.55372 0.02617 0.0
La633 La 0.55599 0.51811 0.01225 0.0
C634 C 0.54828 0.5883 0.02948 0.0
C635 C 0.54814 0.60124 0.01559 0.0
C636 C 0.53467 0.61123 0.01437 0.0
C637 C 0.53458 0.62406 1.00177 0.0
C638 C 0.54814 0.62734 0.99033 0.0
C639 C 0.56122 0.61665 0.99095 0.0
C640 C 0.56117 0.60361 1.00338 0.0
C641 C 0.52276 0.52524 0.02896 0.0
C642 C 0.54105 0.53872 0.98176 0.0
C643 C 0.55674 0.48347 1.00746 0.0
C644 C 0.55929 0.4705 0.02061 0.0
C645 C 0.57039 0.45789 0.01695 0.0
C646 C 0.57246 0.44498 0.02902 0.0
C647 C 0.56353 0.44471 0.0449 0.0
C648 C 0.55299 0.45787 0.049 0.0
C649 C 0.55089 0.47074 0.03694 0.0
C650 C 0.58243 0.54653 0.00919 0.0
C651 C 0.56539 0.53373 0.05682 0.0
O652 O 0.53435 0.57473 0.02837 0.0
O653 O 0.56269 0.5822 0.0324 0.0
O654 O 0.52874 0.54002 0.04159 0.0
O655 O 0.53171 0.5269 0.0153 0.0
O656 O 0.54516 0.55346 0.99539 0.0
O657 O 0.543 0.52187 0.98545 0.0
O658 O 0.57035 0.49688 1.00658 0.0
O659 O 0.54228 0.4898 1.0079 0.0
O660 O 0.57681 0.53147 0.99684 0.0
O661 O 0.57351 0.54495 0.02283 0.0
O662 O 0.56205 0.51891 0.04317 0.0
O663 O 0.56239 0.55025 0.05316 0.0
H664 H 0.52432 0.60929 0.02336 0.0
H665 H 0.52406 0.63169 1.00128 0.0
H666 H 0.57191 0.61889 0.9824 0.0
H667 H 0.57154 0.59575 1.0037 0.0
H668 H 0.57717 0.4578 1.00458 0.0
H669 H 0.58069 0.43492 0.02575 0.0
H670 H 0.54579 0.45766 0.06109 0.0
H671 H 0.54243 0.48056 0.04019 0.0
La672 La 0.82092 0.31601 0.2687 0.0
La673 La 0.78856 0.28771 0.26974 0.0
C674 C 0.85071 0.3369 0.2763 0.0
C675 C 0.86803 0.33242 0.27852 0.0
C676 C 0.87974 0.33674 0.26536 0.0
C677 C 0.89626 0.3325 0.26733 0.0
C678 C 0.90101 0.32382 0.28236 0.0
C679 C 0.88921 0.31892 0.29519 0.0
C680 C 0.87277 0.32321 0.29331 0.0
C681 C 0.80553 0.29931 0.23615 0.0
C682 C 0.82345 0.27095 0.27172 0.0
C683 C 0.75798 0.26848 0.26174 0.0
C684 C 0.74148 0.27452 0.25763 0.0
C685 C 0.7332 0.28295 0.27186 0.0
C686 C 0.71807 0.28952 0.2675 0.0
C687 C 0.71097 0.28768 0.24887 0.0
C688 C 0.71951 0.27965 0.23466 0.0
C689 C 0.73458 0.27309 0.239 0.0
C690 C 0.80464 0.30486 0.30207 0.0
C691 C 0.78579 0.33221 0.2667 0.0
O692 O 0.84263 0.3325 0.25939 0.0
O693 O 0.84039 0.33215 0.28896 0.0
O694 O 0.81363 0.317 0.23948 0.0
O695 O 0.80711 0.29165 0.25046 0.0
O696 O 0.83168 0.28943 0.2733 0.0
O697 O 0.80594 0.26668 0.26895 0.0
O698 O 0.76562 0.27308 0.27886 0.0
O699 O 0.76907 0.27167 0.24953 0.0
O700 O 0.796 0.28734 0.2992 0.0
O701 O 0.80245 0.31214 0.28771 0.0
O702 O 0.77781 0.31373 0.26428 0.0
O703 O 0.80321 0.33671 0.27031 0.0
H704 H 0.87621 0.34364 0.25375 0.0
H705 H 0.9055 0.33653 0.25754 0.0
H706 H 0.89302 0.31255 0.30709 0.0
H707 H 0.86397 0.31955 0.30359 0.0
H708 H 0.73837 0.28451 0.28635 0.0
H709 H 0.71181 0.29581 0.27871 0.0
H710 H 0.71421 0.27772 0.22018 0.0
H711 H 0.74082 0.26683 0.22774 0.0
La712 La 0.04006 0.55096 0.52725 0.0
La713 La 0.03143 0.55708 0.48847 0.0
C714 C 0.03956 0.54589 0.5604 0.0
C715 C 0.02486 0.53853 0.57048 0.0
C716 C 0.0216 0.51935 0.573 0.0
C717 C 1.00788 0.51213 0.58267 0.0
C718 C 0.99742 0.52407 0.59028 0.0
C719 C 0.99999 0.54295 0.58689 0.0
C720 C 0.01365 0.55016 0.57706 0.0
C721 C 0.04478 0.52442 0.50154 0.0
C722 C 1.00135 0.54133 0.50836 0.0
C723 C 0.03024 0.55831 0.45436 0.0
C724 C 0.04186 0.57043 0.44416 0.0
C725 C 0.04434 0.59039 0.44781 0.0
C726 C 0.0581 0.60177 0.44093 0.0
C727 C 0.06955 0.59321 0.43079 0.0
C728 C 0.06656 0.57335 0.42639 0.0
C729 C 0.05271 0.56202 0.43292 0.0
C730 C 0.02769 0.58436 0.51396 0.0
C731 C 0.0705 0.57073 0.50882 0.0
O732 O 0.04299 0.53352 0.54728 0.0
O733 O 0.04013 0.56257 0.5552 0.0
O734 O 0.05515 0.53097 0.51668 0.0
O735 O 0.03193 0.5324 0.50111 0.0
O736 O 0.01187 0.54765 0.52385 0.0
O737 O 1.00722 0.53933 0.49207 0.0
O738 O 0.02073 0.56675 0.46525 0.0
O739 O 0.03773 0.54652 0.4625 0.0
O740 O 0.0182 0.57993 0.49808 0.0
O741 O 0.03949 0.57514 0.51433 0.0
O742 O 0.06012 0.56569 0.49289 0.0
O743 O 0.06474 0.5687 0.52505 0.0
H744 H 0.02989 0.50999 0.56784 0.0
H745 H 1.006 0.49747 0.58504 0.0
H746 H 0.99221 0.55251 0.59285 0.0
H747 H 0.01574 0.56495 0.57519 0.0
H748 H 0.03615 0.59723 0.45654 0.0
H749 H 0.06015 0.61711 0.44401 0.0
H750 H 0.07513 0.5666 0.41808 0.0
H751 H 0.05102 0.54669 0.43003 0.0
La752 La 0.78343 0.79713 0.27797 0.0
La753 La 0.81846 0.78597 0.28007 0.0
C754 C 0.75148 0.7931 0.2841 0.0
C755 C 0.7398 0.79704 0.2989 0.0
C756 C 0.73209 0.81306 0.30023 0.0
C757 C 0.719 0.81482 0.31217 0.0
C758 C 0.71319 0.80054 0.32293 0.0
C759 C 0.72127 0.7849 0.32212 0.0
C760 C 0.7344 0.7832 0.31036 0.0
C761 C 0.80872 0.82967 0.27869 0.0
C762 C 0.80663 0.8022 0.31694 0.0
C763 C 0.84905 0.78092 0.27585 0.0
C764 C 0.86151 0.77961 0.26172 0.0
C765 C 0.8686 0.76334 0.25897 0.0
C766 C 0.88163 0.76221 0.24711 0.0
C767 C 0.88846 0.77763 0.23799 0.0
C768 C 0.88088 0.79381 0.24053 0.0
C769 C 0.8675 0.79469 0.25206 0.0
C770 C 0.79146 0.75812 0.28539 0.0
C771 C 0.79677 0.78338 0.24032 0.0
O772 O 0.75952 0.80683 0.27581 0.0
O773 O 0.76139 0.78107 0.28706 0.0
O774 O 0.79185 0.82831 0.27776 0.0
O775 O 0.81059 0.81254 0.27912 0.0
O776 O 0.79113 0.80007 0.30756 0.0
O777 O 0.82041 0.79909 0.30882 0.0
O778 O 0.8352 0.76714 0.27412 0.0
O779 O 0.84546 0.79751 0.28129 0.0
O780 O 0.80707 0.76226 0.29438 0.0
O781 O 0.79151 0.76997 0.27384 0.0
O782 O 0.81192 0.78417 0.25017 0.0
O783 O 0.78296 0.78729 0.24819 0.0
H784 H 0.73569 0.82388 0.29153 0.0
H785 H 0.71288 0.82696 0.3124 0.0
H786 H 0.71701 0.77363 0.33015 0.0
H787 H 0.73978 0.77053 0.30968 0.0
H788 H 0.86422 0.75148 0.26627 0.0
H789 H 0.88627 0.74912 0.24534 0.0
H790 H 0.88555 0.80624 0.23422 0.0
H791 H 0.86225 0.80745 0.25385 0.0
La792 La 0.79514 0.30897 0.77777 0.0
La793 La 0.7769 0.31072 0.80882 0.0
C794 C 0.80104 0.31068 0.7449 0.0
C795 C 0.81065 0.32576 0.73606 0.0
C796 C 0.82534 0.32283 0.72729 0.0
C797 C 0.83273 0.33567 0.71613 0.0
C798 C 0.82532 0.35129 0.71371 0.0
C799 C 0.81181 0.35527 0.72391 0.0
C800 C 0.80452 0.34259 0.73515 0.0
C801 C 0.8201 0.30924 0.80496 0.0
C802 C 0.79779 0.3476 0.80253 0.0
C803 C 0.75848 0.30871 0.83518 0.0
C804 C 0.75526 0.29834 0.85034 0.0
C805 C 0.74117 0.30095 0.86021 0.0
C806 C 0.73732 0.29073 0.87461 0.0
C807 C 0.74772 0.27814 0.87912 0.0
C808 C 0.76174 0.27533 0.86908 0.0
C809 C 0.7655 0.28543 0.85455 0.0
C810 C 0.7588 0.31552 0.77807 0.0
C811 C 0.78301 0.27188 0.79148 0.0
O812 O 0.8103 0.30294 0.75615 0.0
O813 O 0.78684 0.31413 0.75154 0.0
O814 O 0.82213 0.30993 0.7877 0.0
O815 O 0.8042 0.30971 0.80761 0.0
O816 O 0.79616 0.33906 0.78527 0.0
O817 O 0.79346 0.33807 0.81589 0.0
O818 O 0.75378 0.29856 0.81874 0.0
O819 O 0.77385 0.32009 0.83647 0.0
O820 O 0.76136 0.32687 0.79359 0.0
O821 O 0.76764 0.30295 0.77972 0.0
O822 O 0.78167 0.28234 0.80723 0.0
O823 O 0.78569 0.27931 0.77638 0.0
H824 H 0.83033 0.31005 0.72807 0.0
H825 H 0.843 0.33241 0.70797 0.0
H826 H 0.80584 0.36718 0.72178 0.0
H827 H 0.79336 0.34539 0.74204 0.0
H828 H 0.73316 0.31082 0.85674 0.0
H829 H 0.72644 0.29278 0.88235 0.0
H830 H 0.76965 0.26532 0.87247 0.0
H831 H 0.77625 0.28322 0.84665 0.0
La832 La 0.79371 0.80346 0.77201 0.0
La833 La 0.7798 0.76145 0.75718 0.0
C834 C 0.79785 0.83833 0.77179 0.0
C835 C 0.78607 0.8511 0.77672 0.0
C836 C 0.78587 0.85923 0.79526 0.0
C837 C 0.77397 0.87059 0.79966 0.0
C838 C 0.76219 0.87394 0.78559 0.0
C839 C 0.76213 0.86544 0.76716 0.0
C840 C 0.77399 0.8542 0.76276 0.0
C841 C 0.79058 0.78452 0.80097 0.0
C842 C 0.75358 0.78461 0.77051 0.0
C843 C 0.77463 0.72613 0.74933 0.0
C844 C 0.78658 0.71317 0.74805 0.0
C845 C 0.78572 0.70081 0.73139 0.0
C846 C 0.79742 0.68883 0.72952 0.0
C847 C 0.80993 0.68887 0.74442 0.0
C848 C 0.81104 0.70161 0.76097 0.0
C849 C 0.79955 0.71384 0.7627 0.0
C850 C 0.77913 0.78491 0.73237 0.0
C851 C 0.82082 0.77958 0.76281 0.0
O852 O 0.80509 0.83124 0.78533 0.0
O853 O 0.79174 0.82553 0.75716 0.0
O854 O 0.79595 0.80274 0.80216 0.0
O855 O 0.78714 0.77793 0.78381 0.0
O856 O 0.76553 0.79992 0.76945 0.0
O857 O 0.75667 0.76738 0.76808 0.0
O858 O 0.77573 0.73746 0.73678 0.0
O859 O 0.7736 0.73489 0.76599 0.0
O860 O 0.76688 0.77014 0.73297 0.0
O861 O 0.79103 0.78594 0.74546 0.0
O862 O 0.80809 0.76414 0.75997 0.0
O863 O 0.81837 0.79697 0.76678 0.0
H864 H 0.79489 0.85688 0.80633 0.0
H865 H 0.77419 0.87703 0.81398 0.0
H866 H 0.75344 0.86812 0.75596 0.0
H867 H 0.77374 0.84803 0.74835 0.0
H868 H 0.77604 0.70051 0.71981 0.0
H869 H 0.79657 0.67942 0.71649 0.0
H870 H 0.82045 0.70179 0.77277 0.0
H871 H 0.80074 0.72364 0.77554 0.0
La872 La 0.53691 0.5439 0.52083 0.0
La873 La 0.57308 0.56032 0.54138 0.0
C874 C 0.50428 0.53558 0.51337 0.0
C875 C 0.49135 0.54745 0.51369 0.0
C876 C 0.47689 0.54253 0.50015 0.0
C877 C 0.46481 0.55411 0.49953 0.0
C878 C 0.46711 0.57084 0.51243 0.0
C879 C 0.48196 0.57609 0.52564 0.0
C880 C 0.49407 0.56447 0.52624 0.0
C881 C 0.56057 0.54194 0.49518 0.0
C882 C 0.55301 0.58825 0.52425 0.0
C883 C 0.60578 0.56811 0.54845 0.0
C884 C 0.61838 0.55593 0.55078 0.0
C885 C 0.62771 0.55727 0.56829 0.0
C886 C 0.63943 0.54556 0.57099 0.0
C887 C 0.64228 0.53255 0.5561 0.0
C888 C 0.63257 0.53087 0.53865 0.0
C889 C 0.62062 0.54236 0.53605 0.0
C890 C 0.54941 0.56216 0.56702 0.0
C891 C 0.5568 0.51601 0.53898 0.0
O892 O 0.51511 0.5386 0.5009 0.0
O893 O 0.51223 0.53422 0.52948 0.0
O894 O 0.54375 0.53614 0.49224 0.0
O895 O 0.56335 0.54815 0.51283 0.0
O896 O 0.53873 0.57453 0.52166 0.0
O897 O 0.5684 0.5857 0.53084 0.0
O898 O 0.59511 0.5686 0.56124 0.0
O899 O 0.59774 0.56676 0.53174 0.0
O900 O 0.56621 0.56841 0.56983 0.0
O901 O 0.54655 0.55593 0.54939 0.0
O902 O 0.57085 0.53004 0.54268 0.0
O903 O 0.54183 0.5182 0.53073 0.0
H904 H 0.47493 0.52968 0.4901 0.0
H905 H 0.45337 0.54961 0.48934 0.0
H906 H 0.48411 0.58906 0.53557 0.0
H907 H 0.50551 0.56878 0.53644 0.0
H908 H 0.62593 0.5674 0.57992 0.0
H909 H 0.64644 0.5469 0.58469 0.0
H910 H 0.63461 0.52117 0.52681 0.0
H911 H 0.61335 0.54076 0.52245 0.0
La912 La 0.0597 0.53942 0.03233 0.0
La913 La 0.02034 0.53824 0.03704 0.0
C914 C 0.09055 0.53342 0.0347 0.0
C915 C 0.10081 0.5182 0.03099 0.0
C916 C 0.10736 0.51454 0.01374 0.0
C917 C 0.11926 0.50245 0.01133 0.0
C918 C 0.12525 0.49384 0.02617 0.0
C919 C 0.11811 0.49706 0.04319 0.0
C920 C 0.10609 0.50895 0.04552 0.0
C921 C 0.03917 0.53937 1.00234 0.0
C922 C 0.0316 0.49981 0.02944 0.0
C923 C 0.9894 0.54333 0.03606 0.0
C924 C 0.97975 0.5587 0.04019 0.0
C925 C 0.96759 0.55716 0.05333 0.0
C926 C 0.95637 0.5699 0.05541 0.0
C927 C 0.95708 0.58446 0.04435 0.0
C928 C 0.97008 0.58669 0.03209 0.0
C929 C 0.98124 0.57393 0.02997 0.0
C930 C 0.04068 0.53661 0.06608 0.0
C931 C 0.04823 0.57814 0.04073 0.0
O932 O 0.08331 0.53939 0.02042 0.0
O933 O 0.08058 0.53264 0.04831 0.0
O934 O 0.05568 0.54741 1.00469 0.0
O935 O 0.03534 0.53069 0.01554 0.0
O936 O 0.0481 0.50944 0.03336 0.0
O937 O 0.0183 0.50835 0.0272 0.0
O938 O 0.99744 0.53806 0.05027 0.0
O939 O 0.99861 0.54388 0.02184 0.0
O940 O 0.02435 0.52806 0.06357 0.0
O941 O 0.04448 0.54652 0.05375 0.0
O942 O 0.03176 0.56843 0.03671 0.0
O943 O 0.06165 0.56956 0.04218 0.0
H944 H 0.10372 0.52146 1.0022 0.0
H945 H 0.12392 0.50015 0.99782 0.0
H946 H 0.12235 0.49116 0.05519 0.0
H947 H 0.10153 0.51154 0.05906 0.0
H948 H 0.96622 0.54559 0.06144 0.0
H949 H 0.94656 0.56768 0.06498 0.0
H950 H 0.97138 0.59804 0.02371 0.0
H951 H 0.99062 0.57568 0.01988 0.0
H952 H 0.99645 0.21658 0.94378 0.0
H953 H 1.00276 0.19172 0.96138 0.0
H954 H 0.05751 0.21953 0.97002 0.0
H955 H 0.05079 0.24522 0.95407 0.0
H956 H 0.01902 0.16643 0.95552 0.0
H957 H 0.05551 0.2094 0.02038 0.0
H958 H 0.04456 0.22004 1.00324 0.0
H959 H 0.06607 0.21536 1.00049 0.0
C960 C 1.00977 0.21744 0.94967 0.0
C961 C 0.0231 0.23285 0.94761 0.0
C962 C 0.01344 0.20321 0.95976 0.0
C963 C 0.03064 0.2037 0.96759 0.0
C964 C 0.04402 0.21898 0.96504 0.0
H965 H 0.07626 0.11799 0.01792 0.0
H966 H 0.07193 0.14631 1.00466 0.0
C967 C 0.04021 0.23358 0.9556 0.0
C968 C 0.03456 0.18762 0.97723 0.0
H969 H 0.05676 0.17664 0.01546 0.0
C970 C 0.02712 0.16884 0.96875 0.0
C971 C 0.04537 0.19038 0.99446 0.0
C972 C 0.05318 0.20989 1.00524 0.0
C973 C 0.03006 0.15299 0.97676 0.0
C974 C 0.04076 0.15577 0.99394 0.0
C975 C 0.04854 0.17445 1.00232 0.0
C976 C 0.04364 0.13942 1.00347 0.0
C977 C 0.02187 0.13335 0.96647 0.0
C978 C 0.0293 0.1264 1.00791 0.0
C979 C 0.03172 0.11015 0.01529 0.0
C980 C 0.04859 0.10666 0.01886 0.0
C981 C 0.06307 0.12024 0.01542 0.0
C982 C 0.06061 0.13644 1.00778 0.0
H983 H 0.01857 0.13354 0.95139 0.0
H984 H 0.03071 0.12333 0.96799 0.0
H985 H 1.0095 0.12786 0.97224 0.0
H986 H 0.01612 0.12862 1.00532 0.0
H987 H 0.02028 0.10012 0.01792 0.0
H988 H 0.13569 0.80378 0.14329 0.0
H989 H 0.16158 0.80195 0.16366 0.0
H990 H 0.14268 0.83267 0.20972 0.0
H991 H 0.11648 0.83387 0.18955 0.0
H992 H 0.18818 0.8269 0.18287 0.0
H993 H 0.15233 0.7894 0.23392 0.0
H994 H 0.14165 0.79229 0.21196 0.0
H995 H 0.14563 0.81123 0.23147 0.0
C996 C 0.13706 0.8102 0.15776 0.0
C997 C 0.1239 0.81897 0.16473 0.0
C998 C 0.15192 0.80911 0.16947 0.0
C999 C 0.15413 0.81677 0.18852 0.0
C1000 C 0.14121 0.82604 0.19532 0.0
H1001 H 0.23537 0.83796 0.28182 0.0
H1002 H 0.20953 0.83554 0.25975 0.0
C1003 C 0.12625 0.82694 0.18367 0.0
C1004 C 0.16999 0.81535 0.20113 0.0
H1005 H 0.18272 0.80312 0.24325 0.0
C1006 C 0.18691 0.8215 0.19597 0.0
C1007 C 0.16862 0.80812 0.21826 0.0
C1008 C 0.15109 0.79969 0.22415 0.0
C1009 C 0.20223 0.82137 0.20762 0.0
C1010 C 0.20085 0.81481 0.22503 0.0
C1011 C 0.18396 0.80829 0.23003 0.0
C1012 C 0.21669 0.81555 0.23861 0.0
C1013 C 0.21987 0.82888 0.20149 0.0
C1014 C 0.22949 0.8049 0.23443 0.0
C1015 C 0.24439 0.80614 0.24725 0.0
C1016 C 0.24696 0.81821 0.26451 0.0
C1017 C 0.23403 0.82865 0.26865 0.0
C1018 C 0.21911 0.82723 0.25601 0.0
H1019 H 0.2188 0.83662 0.18943 0.0
H1020 H 0.22856 0.83859 0.21311 0.0
H1021 H 0.22618 0.81681 0.19734 0.0
H1022 H 0.22793 0.79552 0.22128 0.0
H1023 H 0.25394 0.79776 0.24361 0.0
H1024 H 0.50489 0.81959 0.47024 0.0
H1025 H 0.50568 0.85117 0.48733 0.0
H1026 H 0.54622 0.87567 0.45563 0.0
H1027 H 0.54498 0.84419 0.43795 0.0
H1028 H 0.53218 0.87725 0.50899 0.0
H1029 H 0.50937 0.90628 0.44681 0.0
H1030 H 0.50864 0.88123 0.44647 0.0
H1031 H 0.52893 0.89727 0.44465 0.0
C1032 C 0.51405 0.83171 0.46703 0.0
C1033 C 0.52479 0.8296 0.45274 0.0
C1034 C 0.51446 0.84968 0.47675 0.0
C1035 C 0.52575 0.86569 0.47243 0.0
C1036 C 0.53709 0.86349 0.45877 0.0
H1037 H 0.55818 0.97945 0.52543 0.0
H1038 H 0.55487 0.94594 0.51352 0.0
C1039 C 0.53645 0.84556 0.4488 0.0
C1040 C 0.5254 0.88471 0.4821 0.0
H1041 H 0.51829 0.92811 0.47485 0.0
C1042 C 0.52902 0.88833 0.50156 0.0
C1043 C 0.52115 0.89903 0.47229 0.0
C1044 C 0.51665 0.89575 0.45142 0.0
C1045 C 0.52892 0.90617 0.51147 0.0
C1046 C 0.525 0.92048 0.50161 0.0
C1047 C 0.52108 0.91684 0.48224 0.0
C1048 C 0.52656 0.93994 0.51092 0.0
C1049 C 0.53314 0.90981 0.53236 0.0
C1050 C 0.51161 0.94738 0.51346 0.0
C1051 C 0.5134 0.96665 0.52023 0.0
C1052 C 0.53017 0.97851 0.52439 0.0
C1053 C 0.54507 0.97069 0.52246 0.0
C1054 C 0.54325 0.95155 0.51568 0.0
H1055 H 0.534 0.89658 0.53816 0.0
H1056 H 0.54588 0.92008 0.53617 0.0
H1057 H 0.52299 0.91628 0.53892 0.0
H1058 H 0.49864 0.93842 0.50972 0.0
H1059 H 0.50172 0.97231 0.52167 0.0
H1060 H 0.51784 0.27511 0.6345 0.0
H1061 H 0.49046 0.26582 0.64825 0.0
H1062 H 0.5048 0.31671 0.68886 0.0
H1063 H 0.53247 0.32592 0.67542 0.0
H1064 H 0.48691 0.26398 0.69135 0.0
H1065 H 0.45375 0.31333 0.65706 0.0
H1066 H 0.47118 0.30361 0.64743 0.0
H1067 H 0.4762 0.32251 0.66683 0.0
C1068 C 0.51515 0.28434 0.64637 0.0
C1069 C 0.52722 0.30134 0.65384 0.0
C1070 C 0.49957 0.27893 0.65424 0.0
C1071 C 0.49564 0.2906 0.66952 0.0
C1072 C 0.50766 0.30753 0.67707 0.0
H1073 H 0.41603 0.30667 0.73737 0.0
H1074 H 0.44107 0.30703 0.71959 0.0
C1075 C 0.52342 0.31278 0.6694 0.0
C1076 C 0.47873 0.28553 0.67732 0.0
H1077 H 0.44001 0.29956 0.68114 0.0
C1078 C 0.47653 0.27158 0.68904 0.0
C1079 C 0.46515 0.29518 0.6739 0.0
C1080 C 0.4665 0.30942 0.66051 0.0
C1081 C 0.46146 0.26793 0.69841 0.0
C1082 C 0.44831 0.27849 0.69585 0.0
C1083 C 0.45019 0.29167 0.68331 0.0
C1084 C 0.43323 0.27746 0.70709 0.0
C1085 C 0.46009 0.25345 0.71155 0.0
C1086 C 0.42039 0.26068 0.70599 0.0
C1087 C 0.40589 0.26045 0.71611 0.0
C1088 C 0.40388 0.27705 0.72742 0.0
C1089 C 0.41688 0.29373 0.72853 0.0
C1090 C 0.43132 0.29393 0.71847 0.0
H1091 H 0.4727 0.24905 0.71446 0.0
H1092 H 0.45588 0.25918 0.72493 0.0
H1093 H 0.45009 0.2406 0.70523 0.0
H1094 H 0.4214 0.24787 0.69704 0.0
H1095 H 0.39608 0.24739 0.71479 0.0
H1096 H 0.0371 0.79452 0.62045 0.0
H1097 H 0.05086 0.821 0.60575 0.0
H1098 H 0.01862 0.85613 0.63213 0.0
H1099 H 1.00514 0.82975 0.64753 0.0
H1100 H 0.0342 0.83797 0.58175 0.0
H1101 H 0.06699 0.89047 0.6429 0.0
H1102 H 0.05865 0.86573 0.64444 0.0
H1103 H 0.04409 0.882 0.6443 0.0
C1104 C 0.03298 0.80791 0.62318 0.0
C1105 C 0.02007 0.81021 0.63502 0.0
C1106 C 0.04093 0.82299 0.61489 0.0
C1107 C 0.03596 0.84047 0.61824 0.0
C1108 C 0.02292 0.84281 0.62989 0.0
H1109 H 0.04477 0.94318 0.57692 0.0
H1110 H 0.04162 0.91672 0.59441 0.0
C1111 C 0.0151 0.82774 0.63844 0.0
C1112 C 0.04336 0.85573 0.60819 0.0
H1113 H 0.06364 0.90237 0.61402 0.0
C1114 C 0.04086 0.85203 0.58871 0.0
C1115 C 0.05212 0.87382 0.61751 0.0
C1116 C 0.05578 0.8782 0.63845 0.0
C1117 C 0.0459 0.86643 0.57815 0.0
C1118 C 0.05401 0.88483 0.58751 0.0
C1119 C 0.05735 0.88822 0.60699 0.0
C1120 C 0.05728 0.90124 0.57762 0.0
C1121 C 0.04158 0.86195 0.55725 0.0
C1122 C 0.06746 0.90142 0.56272 0.0
C1123 C 0.0686 0.9161 0.55213 0.0
C1124 C 0.06009 0.93112 0.55679 0.0
C1125 C 0.05101 0.93154 0.57262 0.0
C1126 C 0.04941 0.91657 0.58279 0.0
H1127 H 0.03178 0.84839 0.55291 0.0
H1128 H 0.0364 0.87349 0.55168 0.0
H1129 H 0.05365 0.86044 0.55076 0.0
H1130 H 0.07404 0.88993 0.55891 0.0
H1131 H 0.0756 0.91526 0.53995 0.0
H1132 H 0.5571 0.84656 0.85086 0.0
H1133 H 0.52935 0.84643 0.8331 0.0
H1134 H 0.50284 0.80345 0.86275 0.0
H1135 H 0.53062 0.8039 0.88104 0.0
H1136 H 0.50992 0.81428 0.81046 0.0
H1137 H 0.47186 0.84283 0.86448 0.0
H1138 H 0.49542 0.846 0.86775 0.0
H1139 H 0.48166 0.82378 0.87048 0.0
C1140 C 0.54531 0.83719 0.85366 0.0
C1141 C 0.54578 0.82511 0.86708 0.0
C1142 C 0.52956 0.83722 0.84363 0.0
C1143 C 0.51426 0.82506 0.84685 0.0
C1144 C 0.51462 0.81317 0.86046 0.0
H1145 H 0.40969 0.7919 0.79561 0.0
H1146 H 0.43921 0.79087 0.80857 0.0
C1147 C 0.53038 0.81333 0.87073 0.0
C1148 C 0.49819 0.82365 0.83482 0.0
H1149 H 0.45602 0.82851 0.83506 0.0
C1150 C 0.49813 0.81748 0.81575 0.0
C1151 C 0.48308 0.82803 0.84199 0.0
C1152 C 0.48299 0.83571 0.86227 0.0
C1153 C 0.48296 0.81511 0.80355 0.0
C1154 C 0.46776 0.8189 0.81081 0.0
C1155 C 0.46786 0.82537 0.82981 0.0
C1156 C 0.4515 0.8167 0.79892 0.0
C1157 C 0.48309 0.80837 0.7831 0.0
C1158 C 0.44919 0.83111 0.78861 0.0
C1159 C 0.43246 0.83175 0.78128 0.0
C1160 C 0.41808 0.81805 0.78443 0.0
C1161 C 0.42071 0.8026 0.79316 0.0
C1162 C 0.43743 0.80199 0.80051 0.0
H1163 H 0.49559 0.80428 0.78001 0.0
H1164 H 0.47209 0.79598 0.77824 0.0
H1165 H 0.48114 0.8199 0.77509 0.0
H1166 H 0.46008 0.84262 0.78756 0.0
H1167 H 0.4306 0.84388 0.77475 0.0
H1168 H 0.49863 0.19668 0.15284 0.0
H1169 H 0.50472 0.16877 0.13376 0.0
H1170 H 0.50101 0.19601 0.08494 0.0
H1171 H 0.49482 0.22382 0.10372 0.0
H1172 H 0.48334 0.147 0.09423 0.0
H1173 H 0.55339 0.18338 0.09693 0.0
H1174 H 0.53984 0.18895 0.11491 0.0
H1175 H 0.53723 0.19734 0.09302 0.0
C1176 C 0.49871 0.19649 0.13797 0.0
C1177 C 0.49628 0.2123 0.12968 0.0
C1178 C 0.50223 0.18065 0.12719 0.0
C1179 C 0.50342 0.18068 0.10817 0.0
C1180 C 0.50014 0.19599 0.0997 0.0
H1181 H 0.5116 0.11157 0.00931 0.0
H1182 H 0.50492 0.13325 0.03513 0.0
C1183 C 0.49652 0.21174 0.1104 0.0
C1184 C 0.509 0.1652 0.09708 0.0
H1185 H 0.54326 0.15562 0.0745 0.0
C1186 C 0.49649 0.14863 0.09009 0.0
C1187 C 0.52622 0.16761 0.09204 0.0
C1188 C 0.54005 0.18522 0.09967 0.0
C1189 C 0.50058 0.13459 0.07719 0.0
C1190 C 0.5175 0.13752 0.07129 0.0
C1191 C 0.53029 0.15363 0.0791 0.0
C1192 C 0.52179 0.12474 0.05596 0.0
C1193 C 0.48678 0.11694 0.06965 0.0
C1194 C 0.53421 0.11381 0.05919 0.0
C1195 C 0.53838 0.1019 0.04442 0.0
C1196 C 0.52978 0.10046 0.0265 0.0
C1197 C 0.51804 0.11216 0.02315 0.0
C1198 C 0.51409 0.12432 0.03784 0.0
H1199 H 0.47536 0.11551 0.07784 0.0
H1200 H 0.48205 0.11754 0.05503 0.0
H1201 H 0.49243 0.10408 0.06971 0.0
H1202 H 0.54057 0.11445 0.0731 0.0
H1203 H 0.54827 0.0938 0.04702 0.0
H1204 H 0.12683 0.29403 0.36646 0.0
H1205 H 0.14705 0.28468 0.34488 0.0
H1206 H 0.16836 0.34385 0.34245 0.0
H1207 H 0.148 0.3532 0.36412 0.0
H1208 H 0.14991 0.29326 0.30874 0.0
H1209 H 0.21135 0.32192 0.35644 0.0
H1210 H 0.18994 0.3189 0.36451 0.0
H1211 H 0.19799 0.33889 0.35314 0.0
C1212 C 0.13615 0.30496 0.36157 0.0
C1213 C 0.1365 0.32424 0.36712 0.0
C1214 C 0.14746 0.29965 0.34918 0.0
C1215 C 0.15922 0.31363 0.34241 0.0
C1216 C 0.15949 0.33297 0.34789 0.0
H1217 H 0.23643 0.31259 0.26809 0.0
H1218 H 0.21132 0.31833 0.2837 0.0
C1219 C 0.14804 0.33828 0.36021 0.0
C1220 C 0.17118 0.30782 0.32954 0.0
H1221 H 0.21438 0.31007 0.32523 0.0
C1222 C 0.16401 0.29686 0.3123 0.0
C1223 C 0.18947 0.31249 0.3345 0.0
C1224 C 0.19768 0.32355 0.35321 0.0
C1225 C 0.17486 0.29064 0.29962 0.0
C1226 C 0.19309 0.29559 0.30451 0.0
C1227 C 0.20026 0.30642 0.32175 0.0
C1228 C 0.20523 0.29034 0.29171 0.0
C1229 C 0.167 0.27911 0.28105 0.0
C1230 C 0.20948 0.27244 0.29069 0.0
C1231 C 0.2239 0.26908 0.28185 0.0
C1232 C 0.23411 0.28372 0.27419 0.0
C1233 C 0.22885 0.30109 0.274 0.0
C1234 C 0.21452 0.30441 0.28283 0.0
H1235 H 0.15252 0.27727 0.279 0.0
H1236 H 0.17272 0.28613 0.26965 0.0
H1237 H 0.1703 0.26485 0.27998 0.0
H1238 H 0.20236 0.26157 0.29773 0.0
H1239 H 0.22774 0.25559 0.28222 0.0
H1240 H 0.98599 0.07504 0.23409 0.0
H1241 H 1.00227 0.07402 0.20654 0.0
H1242 H 0.95357 0.06028 0.17092 0.0
H1243 H 0.93738 0.06138 0.19833 0.0
H1244 H 1.00619 0.04868 0.17786 0.0
H1245 H 0.97754 0.1008 0.14452 0.0
H1246 H 0.97456 0.09723 0.16814 0.0
H1247 H 0.96078 0.08167 0.14894 0.0
C1248 C 0.97862 0.07192 0.22042 0.0
C1249 C 0.96002 0.06846 0.21899 0.0
C1250 C 0.9881 0.07127 0.20438 0.0
C1251 C 0.97961 0.06742 0.18587 0.0
C1252 C 0.96101 0.06385 0.18452 0.0
H1253 H 0.01178 0.05232 0.06846 0.0
H1254 H 0.99585 0.05401 0.09645 0.0
C1255 C 0.95155 0.06434 0.20052 0.0
C1256 C 0.98989 0.06678 0.16824 0.0
H1257 H 0.99288 0.08211 0.12523 0.0
C1258 C 1.00317 0.05614 0.1665 0.0
C1259 C 0.98673 0.07649 0.15286 0.0
C1260 C 0.97429 0.08987 0.15373 0.0
C1261 C 0.01245 0.05442 0.15029 0.0
C1262 C 1.0089 0.06368 0.13466 0.0
C1263 C 0.9958 0.07454 0.13654 0.0
C1264 C 0.0188 0.06267 0.11678 0.0
C1265 C 0.02578 0.04206 0.14997 0.0
C1266 C 0.03733 0.06719 0.11782 0.0
C1267 C 0.04649 0.06637 0.10167 0.0
C1268 C 0.03786 0.06092 0.08326 0.0
C1269 C 0.01928 0.05647 0.08204 0.0
C1270 C 1.01003 0.05751 0.09833 0.0
H1271 H 0.02334 0.03153 0.15972 0.0
H1272 H 0.02574 0.03429 0.13578 0.0
H1273 H 0.03902 0.05115 0.15439 0.0
H1274 H 0.04495 0.07175 0.13129 0.0
H1275 H 0.06066 0.07011 0.10374 0.0
H1276 H 0.28593 0.66273 0.47141 0.0
H1277 H 0.27406 0.67682 0.44564 0.0
H1278 H 0.24601 0.7071 0.48368 0.0
H1279 H 0.25834 0.69384 0.50941 0.0
H1280 H 0.23747 0.67744 0.43301 0.0
H1281 H 0.28026 0.74793 0.46212 0.0
H1282 H 0.28395 0.72595 0.469 0.0
H1283 H 0.26718 0.73679 0.47833 0.0
C1284 C 0.2773 0.67249 0.4741 0.0
C1285 C 0.27332 0.67784 0.49214 0.0
C1286 C 0.27045 0.68025 0.45953 0.0
C1287 C 0.25942 0.69294 0.46314 0.0
C1288 C 0.25475 0.69746 0.48099 0.0
H1289 H 0.23269 0.77581 0.40134 0.0
H1290 H 0.22827 0.75272 0.42281 0.0
C1291 C 0.2619 0.69012 0.49555 0.0
C1292 C 0.25396 0.70293 0.44869 0.0
H1293 H 0.25929 0.74706 0.43683 0.0
C1294 C 0.24208 0.69267 0.43374 0.0
C1295 C 0.26028 0.72269 0.45004 0.0
C1296 C 0.27374 0.73399 0.46564 0.0
C1297 C 0.23608 0.70194 0.41981 0.0
C1298 C 0.24235 0.72171 0.42117 0.0
C1299 C 0.2542 0.73192 0.43625 0.0
C1300 C 0.23904 0.73192 0.40596 0.0
C1301 C 0.22335 0.69057 0.40373 0.0
C1302 C 0.24586 0.72723 0.38924 0.0
C1303 C 0.24815 0.74019 0.37691 0.0
C1304 C 0.24397 0.75799 0.38152 0.0
C1305 C 0.23582 0.76203 0.39753 0.0
C1306 C 0.23325 0.74891 0.40971 0.0
H1307 H 0.21526 0.67775 0.40792 0.0
H1308 H 0.21455 0.69922 0.39813 0.0
H1309 H 0.23081 0.68569 0.39241 0.0
H1310 H 0.25084 0.71437 0.38648 0.0
H1311 H 0.25426 0.73685 0.36443 0.0
H1312 H 0.66488 0.04002 0.69053 0.0
H1313 H 0.64652 0.0386 0.66114 0.0
H1314 H 0.60957 0.06359 0.69149 0.0
H1315 H 0.62755 0.06475 0.72068 0.0
H1316 H 0.60787 0.01784 0.65945 0.0
H1317 H 0.61961 0.09252 0.64484 0.0
H1318 H 0.63567 0.08353 0.65831 0.0
H1319 H 0.61682 0.08893 0.66847 0.0
C1320 C 0.65297 0.04544 0.69072 0.0
C1321 C 0.64727 0.05217 0.7075 0.0
C1322 C 0.64265 0.0447 0.67413 0.0
C1323 C 0.627 0.05116 0.67451 0.0
C1324 C 0.62179 0.05877 0.69121 0.0
H1325 H 0.53677 0.04914 0.60029 0.0
H1326 H 0.55838 0.05293 0.62761 0.0
C1327 C 0.63189 0.05922 0.70772 0.0
C1328 C 0.61484 0.04781 0.65787 0.0
H1329 H 0.5953 0.07053 0.62721 0.0
C1330 C 0.60523 0.02922 0.65213 0.0
C1331 C 0.6114 0.06297 0.64906 0.0
C1332 C 0.62146 0.08314 0.65537 0.0
C1333 C 0.59183 0.02536 0.63757 0.0
C1334 C 0.5885 0.04049 0.62859 0.0
C1335 C 0.59815 0.05909 0.63431 0.0
C1336 C 0.57517 0.03717 0.61291 0.0
C1337 C 0.58103 1.00537 0.63218 0.0
C1338 C 0.57769 0.02688 0.5961 0.0
C1339 C 0.56542 0.0246 0.58078 0.0
C1340 C 0.55081 0.03275 0.58233 0.0
C1341 C 0.54801 0.04262 0.59922 0.0
C1342 C 0.56028 0.0449 0.61458 0.0
H1343 H 0.5828 0.99636 0.64308 0.0
H1344 H 0.5669 1.00551 0.62963 0.0
H1345 H 0.58509 0.99872 0.6191 0.0
H1346 H 0.58928 0.021 0.59478 0.0
H1347 H 0.56745 0.01677 0.56773 0.0
H1348 H 0.27805 0.35068 0.98669 0.0
H1349 H 0.27796 0.33496 0.95446 0.0
H1350 H 0.32961 0.36851 0.95235 0.0
H1351 H 0.32951 0.38451 0.98409 0.0
H1352 H 0.28564 0.35629 0.92078 0.0
H1353 H 0.33095 0.30953 0.93788 0.0
H1354 H 0.31793 0.31904 0.95461 0.0
H1355 H 0.33728 0.33398 0.94884 0.0
C1356 C 0.28936 0.35452 0.97928 0.0
C1357 C 0.30383 0.36865 0.9877 0.0
C1358 C 0.28928 0.34565 0.96097 0.0
C1359 C 0.30386 0.35052 0.95121 0.0
C1360 C 0.31831 0.36453 0.95974 0.0
H1361 H 0.33498 0.32204 0.84126 0.0
H1362 H 0.33452 0.33342 0.87457 0.0
C1363 C 0.31823 0.37364 0.97778 0.0
C1364 C 0.30414 0.3413 0.93198 0.0
H1365 H 0.32506 0.31196 0.90593 0.0
C1366 C 0.29409 0.34644 0.9175 0.0
C1367 C 0.31531 0.32861 0.92786 0.0
C1368 C 0.32592 0.32229 0.94308 0.0
C1369 C 0.29523 0.33948 0.89885 0.0
C1370 C 0.30658 0.32696 0.89472 0.0
C1371 C 0.3165 0.32169 0.90922 0.0
C1372 C 0.30774 0.31871 0.87538 0.0
C1373 C 0.28461 0.34588 0.88364 0.0
C1374 C 0.29312 0.30617 0.86524 0.0
C1375 C 0.29334 0.29979 0.84644 0.0
C1376 C 0.30825 0.30571 0.83747 0.0
C1377 C 0.32334 0.31731 0.84789 0.0
C1378 C 0.32306 0.32383 0.86681 0.0
H1379 H 0.27939 0.35848 0.88893 0.0
H1380 H 0.29265 0.34942 0.87222 0.0
H1381 H 0.27334 0.33416 0.87769 0.0
H1382 H 0.28134 0.30176 0.87175 0.0
H1383 H 0.28162 0.29057 0.8388 0.0
H1384 H 0.96715 0.03756 0.31013 0.0
H1385 H 0.98221 0.03305 0.33945 0.0
H1386 H 0.97574 0.08789 0.36499 0.0
H1387 H 0.95951 0.09168 0.33604 0.0
H1388 H 1.00948 0.04541 0.36052 0.0
H1389 H 0.96063 0.06344 0.4062 0.0
H1390 H 0.95659 0.06141 0.3813 0.0
H1391 H 0.96919 0.08322 0.39498 0.0
C1392 C 0.96877 0.04865 0.32202 0.0
C1393 C 0.96173 0.06492 0.32043 0.0
C1394 C 0.97754 0.04607 0.33902 0.0
C1395 C 0.97998 0.05975 0.35529 0.0
C1396 C 0.97358 0.07644 0.3534 0.0
H1397 H 0.0347 0.07305 0.46927 0.0
H1398 H 0.02118 0.07703 0.43898 0.0
C1399 C 0.96438 0.07879 0.33652 0.0
C1400 C 0.98931 0.05659 0.37378 0.0
H1401 H 0.98798 0.06146 0.42139 0.0
C1402 C 1.00452 0.04882 0.37371 0.0
C1403 C 0.9833 0.06076 0.39154 0.0
C1404 C 0.96644 0.06746 0.39351 0.0
C1405 C 0.01375 0.04562 0.3903 0.0
C1406 C 1.00791 0.05026 0.40798 0.0
C1407 C 0.99277 0.05796 0.4081 0.0
C1408 C 0.01725 0.04757 0.42647 0.0
C1409 C 0.03004 0.0377 0.38876 0.0
C1410 C 0.01987 0.02963 0.43017 0.0
C1411 C 0.02768 0.02727 0.44777 0.0
C1412 C 0.03319 0.04275 0.46244 0.0
C1413 C 0.03074 0.06068 0.45859 0.0
C1414 C 0.02289 0.063 0.44108 0.0
H1415 H 0.0352 0.03906 0.37514 0.0
H1416 H 0.04048 0.04504 0.40008 0.0
H1417 H 0.0269 0.02237 0.39007 0.0
H1418 H 0.01546 0.01724 0.4196 0.0
H1419 H 0.02911 0.01317 0.44996 0.0
H1420 H 0.27739 0.6642 0.5994 0.0
H1421 H 0.27522 0.68556 0.62757 0.0
H1422 H 0.30453 0.73295 0.60543 0.0
H1423 H 0.30656 0.7118 0.5771 0.0
H1424 H 0.30552 0.70723 0.65011 0.0
H1425 H 0.26209 0.75242 0.62461 0.0
H1426 H 0.26291 0.72942 0.61213 0.0
H1427 H 0.27976 0.74988 0.6109 0.0
C1428 C 0.28347 0.67915 0.60063 0.0
C1429 C 0.29241 0.68642 0.58636 0.0
C1430 C 0.282 0.69128 0.61652 0.0
C1431 C 0.28944 0.71069 0.61818 0.0
C1432 C 0.29837 0.718 0.604 0.0
H1433 H 0.31223 0.80768 0.70375 0.0
H1434 H 0.30765 0.7858 0.67425 0.0
C1435 C 0.29977 0.7059 0.58806 0.0
C1436 C 0.28972 0.72301 0.63566 0.0
H1437 H 0.27818 0.76349 0.65456 0.0
C1438 C 0.29941 0.71943 0.65124 0.0
C1439 C 0.2818 0.73886 0.6367 0.0
C1440 C 0.27092 0.74283 0.62023 0.0
C1441 C 0.30199 0.73184 0.66796 0.0
C1442 C 0.29416 0.74783 0.66903 0.0
C1443 C 0.28417 0.7512 0.6535 0.0
C1444 C 0.29606 0.76114 0.68627 0.0
C1445 C 0.31354 0.72798 0.68401 0.0
C1446 C 0.29079 0.75437 0.70242 0.0
C1447 C 0.29405 0.76652 0.71917 0.0
C1448 C 0.30158 0.78585 0.7198 0.0
C1449 C 0.3061 0.79287 0.70346 0.0
C1450 C 0.3035 0.78046 0.68672 0.0
H1451 H 0.32256 0.71881 0.67913 0.0
H1452 H 0.32149 0.7414 0.69214 0.0
H1453 H 0.30521 0.72037 0.69341 0.0
H1454 H 0.2847 0.73955 0.70217 0.0
H1455 H 0.29121 0.76055 0.73165 0.0
H1456 H 0.66236 0.04559 0.82422 0.0
H1457 H 0.65123 0.06035 0.85198 0.0
H1458 H 0.63035 0.09756 0.81889 0.0
H1459 H 0.64054 0.08231 0.79128 0.0
H1460 H 0.65663 0.10094 0.86852 0.0
H1461 H 0.58795 0.06675 0.8397 0.0
H1462 H 0.60662 0.05886 0.83107 0.0
H1463 H 0.60052 0.07974 0.82425 0.0
C1464 C 0.65513 0.05671 0.82304 0.0
C1465 C 0.65149 0.06242 0.80584 0.0
C1466 C 0.64908 0.06525 0.83876 0.0
C1467 C 0.6399 0.07977 0.83716 0.0
C1468 C 0.63716 0.0861 0.82011 0.0
H1469 H 0.56691 0.11382 0.90562 0.0
H1470 H 0.58999 0.12173 0.88558 0.0
C1471 C 0.64273 0.07726 0.80444 0.0
C1472 C 0.63178 0.08741 0.85285 0.0
H1473 H 0.59193 0.08897 0.86698 0.0
C1474 C 0.64249 0.09851 0.8683 0.0
C1475 C 0.6134 0.08408 0.85216 0.0
C1476 C 0.60142 0.07158 0.83599 0.0
C1477 C 0.63511 0.10651 0.88342 0.0
C1478 C 0.61668 0.10306 0.88286 0.0
C1479 C 0.60607 0.09212 0.86715 0.0
C1480 C 0.60782 0.10734 0.89937 0.0
C1481 C 0.6471 0.11826 0.89985 0.0
C1482 C 0.61104 0.09828 0.91471 0.0
C1483 C 0.59803 0.09407 0.92625 0.0
C1484 C 0.58173 0.09865 0.92227 0.0
C1485 C 0.57949 0.11027 0.90882 0.0
C1486 C 0.59265 0.11478 0.89744 0.0
H1487 H 0.65927 0.12615 0.89527 0.0
H1488 H 0.64066 0.12857 0.90778 0.0
H1489 H 0.65099 0.10865 0.90929 0.0
H1490 H 0.62247 0.09213 0.91631 0.0
H1491 H 0.59987 0.08514 0.93673 0.0
H1492 H 0.31777 0.34794 0.07874 0.0
H1493 H 0.31236 0.33091 0.1054 0.0
H1494 H 0.28428 0.37243 0.12795 0.0
H1495 H 0.28995 0.38969 0.10158 0.0
H1496 H 0.32272 0.34656 0.14457 0.0
H1497 H 0.25077 0.3199 0.12956 0.0
H1498 H 0.26457 0.32671 0.11186 0.0
H1499 H 0.25856 0.34463 0.12796 0.0
C1500 C 0.31046 0.35346 0.08938 0.0
C1501 C 0.30451 0.37037 0.08807 0.0
C1502 C 0.30733 0.34367 0.10463 0.0
C1503 C 0.29776 0.35023 0.11873 0.0
C1504 C 0.29153 0.3669 0.11725 0.0
H1505 H 0.27264 0.31453 0.22683 0.0
H1506 H 0.27588 0.33197 0.2 0.0
C1507 C 0.29494 0.37689 0.1022 0.0
C1508 C 0.29512 0.3403 0.13544 0.0
H1509 H 0.26378 0.31632 0.15901 0.0
C1510 C 0.30983 0.33993 0.14767 0.0
C1511 C 0.27831 0.33155 0.1396 0.0
C1512 C 0.26211 0.3305 0.12653 0.0
C1513 C 0.30818 0.33143 0.16395 0.0
C1514 C 0.29138 0.32283 0.16822 0.0
C1515 C 0.27664 0.32313 0.15598 0.0
C1516 C 0.2891 0.31245 0.18466 0.0
C1517 C 0.32448 0.33188 0.17665 0.0
C1518 C 0.29529 0.29563 0.18504 0.0
C1519 C 0.29351 0.28578 0.2003 0.0
C1520 C 0.28543 0.29236 0.21569 0.0
C1521 C 0.27904 0.30914 0.21531 0.0
C1522 C 0.28082 0.31906 0.19992 0.0
H1523 H 0.33593 0.34229 0.17354 0.0
H1524 H 0.32233 0.33554 0.19144 0.0
H1525 H 0.3277 0.31759 0.17484 0.0
H1526 H 0.3015 0.29004 0.17344 0.0
H1527 H 0.29853 0.2729 0.20001 0.0
H1528 H 0.24969 0.9473 0.99821 0.0
H1529 H 0.22722 0.96312 0.01042 0.0
H1530 H 0.2588 0.97991 0.06374 0.0
H1531 H 0.28175 0.96538 0.05105 0.0
H1532 H 0.20896 0.95468 0.03807 0.0
H1533 H 0.2473 0.02931 0.05559 0.0
H1534 H 0.25541 1.01091 0.04208 0.0
H1535 H 0.25622 0.01234 0.06696 0.0
C1536 C 0.25181 0.95471 0.01239 0.0
C1537 C 0.26725 0.9556 0.02371 0.0
C1538 C 0.23909 0.96361 0.01937 0.0
C1539 C 0.2416 0.97289 0.03786 0.0
C1540 C 0.25696 0.97337 0.04928 0.0
H1541 H 0.16163 0.02838 0.08498 0.0
H1542 H 0.18679 0.01286 0.08468 0.0
C1543 C 0.26992 0.96504 0.04209 0.0
C1544 C 0.2277 0.98137 0.04521 0.0
H1545 H 0.21783 0.02359 0.06188 0.0
C1546 C 0.21092 0.96971 0.04348 0.0
C1547 C 0.23051 1.00092 0.05247 0.0
C1548 C 0.2483 0.01415 0.05427 0.0
C1549 C 0.19654 0.97734 0.04772 0.0
C1550 C 0.1992 0.99698 0.05407 0.0
C1551 C 0.21609 1.00847 0.05708 0.0
C1552 C 0.18439 1.00625 0.05467 0.0
C1553 C 0.17849 0.96459 0.04446 0.0
C1554 C 0.17523 1.00771 0.03785 0.0
C1555 C 0.16108 0.01646 0.03795 0.0
C1556 C 0.15597 0.0239 0.0549 0.0
C1557 C 0.16536 0.02266 0.07177 0.0
C1558 C 0.1796 0.01385 0.07165 0.0
H1559 H 0.17907 0.94935 0.04384 0.0
H1560 H 0.17042 0.96845 0.0556 0.0
H1561 H 0.17186 0.96638 0.03097 0.0
H1562 H 0.17912 1.00215 0.02465 0.0
H1563 H 0.15434 0.01771 0.02475 0.0
H1564 H 0.74282 0.63176 0.99522 0.0
H1565 H 0.71391 0.6114 0.99601 0.0
H1566 H 0.69591 0.65974 0.02217 0.0
H1567 H 0.72459 0.68015 0.02101 0.0
H1568 H 0.69546 0.60183 0.02414 0.0
H1569 H 0.65689 0.63973 0.98109 0.0
H1570 H 0.6805 0.64432 0.98297 0.0
H1571 H 0.66954 0.65494 1.00102 0.0
C1572 C 0.73265 0.6381 1.00099 0.0
C1573 C 0.73605 0.65769 1.00787 0.0
C1574 C 0.71608 0.6264 1.0015 0.0
C1575 C 0.70239 0.63395 0.00882 0.0
C1576 C 0.70591 0.6535 0.01594 0.0
H1577 H 0.59561 0.58156 0.03078 0.0
H1578 H 0.62445 0.6027 0.03123 0.0
C1579 C 0.72244 0.6652 0.01538 0.0
C1580 C 0.68465 0.62136 0.00934 0.0
H1581 H 0.64063 0.61617 0.99636 0.0
C1582 C 0.68352 0.60498 0.01797 0.0
C1583 C 0.66887 0.62528 1.00134 0.0
C1584 C 0.66896 0.64191 0.99092 0.0
C1585 C 0.66726 0.59271 0.01897 0.0
C1586 C 0.65153 0.59669 0.01106 0.0
C1587 C 0.6526 0.61309 1.00253 0.0
C1588 C 0.63393 0.58371 0.01099 0.0
C1589 C 0.66694 0.57561 0.02871 0.0
C1590 C 0.62942 0.56599 0.99938 0.0
C1591 C 0.61274 0.5541 0.99874 0.0
C1592 C 0.60015 0.55942 0.00995 0.0
C1593 C 0.60482 0.57701 0.02185 0.0
C1594 C 0.62139 0.58912 0.02215 0.0
H1595 H 0.6797 0.57623 0.03687 0.0
H1596 H 0.65651 0.57446 0.03819 0.0
H1597 H 0.66393 0.56255 0.01818 0.0
H1598 H 0.63876 0.56142 0.99058 0.0
H1599 H 0.60975 0.54061 0.98953 0.0
H1600 H 0.67657 0.45546 0.25376 0.0
H1601 H 0.69267 0.42942 0.25047 0.0
H1602 H 0.73184 0.46089 0.29418 0.0
H1603 H 0.71602 0.48696 0.2972 0.0
H1604 H 0.72731 0.42531 0.2417 0.0
H1605 H 0.72069 0.40961 0.31316 0.0
H1606 H 0.70709 0.42315 0.30197 0.0
H1607 H 0.729 0.43434 0.3121 0.0
C1608 C 0.6886 0.45698 0.26278 0.0
C1609 C 0.69458 0.47387 0.27593 0.0
C1610 C 0.69801 0.44183 0.26082 0.0
C1611 C 0.7138 0.44235 0.27218 0.0
C1612 C 0.71975 0.45927 0.28523 0.0
H1613 H 0.79475 0.37041 0.28361 0.0
H1614 H 0.77777 0.39556 0.2843 0.0
C1615 C 0.71056 0.47453 0.28694 0.0
C1616 C 0.72386 0.42556 0.27071 0.0
H1617 H 0.74045 0.39495 0.29664 0.0
C1618 C 0.72998 0.41873 0.25381 0.0
C1619 C 0.72771 0.41615 0.28609 0.0
C1620 C 0.72068 0.42096 0.30433 0.0
C1621 C 0.73982 0.40386 0.25219 0.0
C1622 C 0.74401 0.39483 0.26775 0.0
C1623 C 0.73774 0.40151 0.28452 0.0
C1624 C 0.75482 0.37875 0.26693 0.0
C1625 C 0.74621 0.39817 0.23379 0.0
C1626 C 0.74819 0.36006 0.25709 0.0
C1627 C 0.75791 0.34522 0.25705 0.0
C1628 C 0.77508 0.34824 0.26647 0.0
C1629 C 0.78178 0.36703 0.27602 0.0
C1630 C 0.7719 0.38169 0.27646 0.0
H1631 H 0.74368 0.40755 0.22348 0.0
H1632 H 0.7605 0.39861 0.23578 0.0
H1633 H 0.73952 0.38332 0.22802 0.0
H1634 H 0.7352 0.35674 0.24956 0.0
H1635 H 0.75191 0.33128 0.24943 0.0
H1636 H 0.85239 0.46589 0.5464 0.0
H1637 H 0.88285 0.48329 0.55219 0.0
H1638 H 0.89646 0.44479 0.50815 0.0
H1639 H 0.86596 0.42697 0.50259 0.0
H1640 H 0.92286 0.47279 0.55034 0.0
H1641 H 0.88851 0.50147 0.49385 0.0
H1642 H 0.8767 0.48944 0.51057 0.0
H1643 H 0.88546 0.47607 0.49253 0.0
C1644 C 0.8621 0.46077 0.5385 0.0
C1645 C 0.85716 0.44561 0.52379 0.0
C1646 C 0.8794 0.47044 0.54204 0.0
C1647 C 0.89155 0.46517 0.53053 0.0
C1648 C 0.88706 0.44868 0.51725 0.0
H1649 H 0.97897 0.51274 0.48602 0.0
H1650 H 0.95006 0.49759 0.49307 0.0
C1651 C 0.86975 0.43875 0.51393 0.0
C1652 C 0.90641 0.47974 0.52833 0.0
H1653 H 0.91855 0.51399 0.50159 0.0
C1654 C 0.92202 0.48198 0.53988 0.0
C1655 C 0.90476 0.49167 0.51477 0.0
C1656 C 0.88796 0.4897 0.50224 0.0
C1657 C 0.93663 0.49558 0.53748 0.0
C1658 C 0.93508 0.50693 0.5234 0.0
C1659 C 0.91927 0.50524 0.51247 0.0
C1660 C 0.95042 0.51815 0.51761 0.0
C1661 C 0.95383 0.49704 0.54914 0.0
C1662 C 0.95927 0.53503 0.5287 0.0
C1663 C 0.9757 0.54356 0.5248 0.0
C1664 C 0.98302 0.53515 0.50979 0.0
C1665 C 0.97338 0.5193 0.49766 0.0
C1666 C 0.95705 0.51069 0.50167 0.0
H1667 H 0.95275 0.48689 0.55933 0.0
H1668 H 0.96395 0.4942 0.53996 0.0
H1669 H 0.95843 0.51168 0.55688 0.0
H1670 H 0.95394 0.54088 0.54089 0.0
H1671 H 0.98304 0.55608 0.53403 0.0
H1672 H 0.4152 0.09983 0.30441 0.0
H1673 H 0.39875 0.11982 0.28876 0.0
H1674 H 0.36478 0.06948 0.25706 0.0
H1675 H 0.38036 0.0496 0.27345 0.0
H1676 H 0.39327 0.12242 0.25199 0.0
H1677 H 0.32992 0.09645 0.27923 0.0
H1678 H 0.35009 0.0908 0.28804 0.0
H1679 H 0.33846 0.07829 0.26621 0.0
C1680 C 0.40389 0.09317 0.2945 0.0
C1681 C 0.39851 0.07336 0.2906 0.0
C1682 C 0.39471 0.10448 0.28542 0.0
C1683 C 0.38039 0.096 0.27209 0.0
C1684 C 0.37542 0.07619 0.26777 0.0
H1685 H 0.30422 0.15364 0.227 0.0
H1686 H 0.32234 0.13005 0.22726 0.0
C1687 C 0.38423 0.06492 0.27722 0.0
C1688 C 0.37046 0.10797 0.26301 0.0
H1689 H 0.33038 0.11912 0.25913 0.0
C1690 C 0.37947 0.12166 0.25339 0.0
C1691 C 0.35245 0.10661 0.2647 0.0
C1692 C 0.34218 0.09236 0.27522 0.0
C1693 C 0.37103 0.13466 0.24595 0.0
C1694 C 0.35325 0.13393 0.24844 0.0
C1695 C 0.34403 0.11956 0.2572 0.0
C1696 C 0.34435 0.14912 0.24432 0.0
C1697 C 0.38132 0.14921 0.23583 0.0
C1698 C 0.35103 0.16777 0.25335 0.0
C1699 C 0.34084 0.1814 0.25295 0.0
C1700 C 0.32368 0.17642 0.24387 0.0
C1701 C 0.31745 0.158 0.23393 0.0
C1702 C 0.32774 0.14447 0.23412 0.0
H1703 H 0.3918 0.1436 0.22903 0.0
H1704 H 0.37275 0.15363 0.22511 0.0
H1705 H 0.38774 0.16196 0.24602 0.0
H1706 H 0.36364 0.17152 0.2617 0.0
H1707 H 0.3461 0.19556 0.26049 0.0
H1708 H 0.31508 0.13922 0.51393 0.0
H1709 H 0.33974 0.12497 0.52254 0.0
H1710 H 0.37305 0.18084 0.53784 0.0
H1711 H 0.34828 0.19522 0.5297 0.0
H1712 H 0.36942 0.12691 0.50745 0.0
H1713 H 0.38542 0.15691 0.58234 0.0
H1714 H 0.36554 0.15871 0.56903 0.0
H1715 H 0.38592 0.17471 0.56741 0.0
C1716 C 0.32763 0.14849 0.51924 0.0
C1717 C 0.32971 0.16834 0.52108 0.0
C1718 C 0.34172 0.14033 0.5242 0.0
C1719 C 0.35823 0.1518 0.53115 0.0
C1720 C 0.36038 0.17166 0.53298 0.0
H1721 H 0.45981 0.12009 0.5456 0.0
H1722 H 0.43649 0.13816 0.54402 0.0
C1723 C 0.34623 0.17986 0.5281 0.0
C1724 C 0.37335 0.14279 0.53514 0.0
H1725 H 0.40557 0.14007 0.5687 0.0
C1726 C 0.37723 0.12976 0.52089 0.0
C1727 C 0.38369 0.14658 0.55266 0.0
C1728 C 0.37986 0.15985 0.56879 0.0
C1729 C 0.39104 0.12042 0.52361 0.0
C1730 C 0.40127 0.12411 0.54108 0.0
C1731 C 0.39766 0.13731 0.55532 0.0
C1732 C 0.41551 0.11394 0.54465 0.0
C1733 C 0.39468 0.10667 0.50775 0.0
C1734 C 0.41142 0.0945 0.54601 0.0
C1735 C 0.42465 0.08419 0.54694 0.0
C1736 C 0.44223 0.09313 0.54643 0.0
C1737 C 0.44637 0.1128 0.54583 0.0
C1738 C 0.4331 0.12315 0.54505 0.0
H1739 H 0.38772 0.10798 0.49425 0.0
H1740 H 0.40895 0.10903 0.50648 0.0
H1741 H 0.39025 0.09191 0.51056 0.0
H1742 H 0.3979 0.08716 0.5457 0.0
H1743 H 0.421 0.06904 0.54719 0.0
H1744 H 0.67593 0.59082 0.26935 0.0
H1745 H 0.69246 0.62322 0.26867 0.0
H1746 H 0.73702 0.61089 0.29941 0.0
H1747 H 0.72076 0.57828 0.29932 0.0
H1748 H 0.70607 0.65408 0.29079 0.0
H1749 H 0.76379 0.63375 0.26237 0.0
H1750 H 0.74426 0.61632 0.2638 0.0
H1751 H 0.76039 0.62483 0.28382 0.0
C1752 C 0.68932 0.59488 0.27589 0.0
C1753 C 0.69684 0.58139 0.28424 0.0
C1754 C 0.6989 0.61371 0.27553 0.0
C1755 C 0.71655 0.62014 0.28353 0.0
C1756 C 0.72386 0.60674 0.29235 0.0
H1757 H 0.79716 0.72807 0.30265 0.0
H1758 H 0.77899 0.69631 0.30156 0.0
C1759 C 0.71435 0.58785 0.2925 0.0
C1760 C 0.72703 0.64061 0.28288 0.0
H1761 H 0.76713 0.66643 0.27484 0.0
C1762 C 0.71938 0.65657 0.28713 0.0
C1763 C 0.74454 0.64472 0.278 0.0
C1764 C 0.75366 0.629 0.27154 0.0
C1765 C 0.72858 0.67578 0.28727 0.0
C1766 C 0.74623 0.67987 0.28284 0.0
C1767 C 0.75379 0.66391 0.27841 0.0
C1768 C 0.7573 0.70028 0.28334 0.0
C1769 C 0.71936 0.69165 0.29281 0.0
C1770 C 0.75184 0.71403 0.27334 0.0
C1771 C 0.76255 0.7326 0.2738 0.0
C1772 C 0.77921 0.73839 0.2844 0.0
C1773 C 0.78454 0.72462 0.29433 0.0
C1774 C 0.77401 0.70612 0.29369 0.0
H1775 H 0.70797 0.68686 0.30045 0.0
H1776 H 0.72844 0.70385 0.30171 0.0
H1777 H 0.71442 0.69666 0.28009 0.0
H1778 H 0.73934 0.71033 0.26481 0.0
H1779 H 0.75775 0.74241 0.26579 0.0
H1780 H 0.92715 0.47432 0.77944 0.0
H1781 H 0.90942 0.44182 0.77146 0.0
H1782 H 0.86394 0.46212 0.78804 0.0
H1783 H 0.88128 0.49404 0.7962 0.0
H1784 H 0.89368 0.42948 0.80319 0.0
H1785 H 0.8435 0.42083 0.74298 0.0
H1786 H 0.86521 0.43575 0.74433 0.0
H1787 H 0.84832 0.4444 0.75597 0.0
C1788 C 0.91329 0.47174 0.78105 0.0
C1789 C 0.90549 0.48639 0.78858 0.0
C1790 C 0.90323 0.45342 0.77612 0.0
C1791 C 0.88541 0.44999 0.7785 0.0
C1792 C 0.87756 0.46481 0.78532 0.0
H1793 H 0.79435 0.38439 0.80552 0.0
H1794 H 0.8185 0.41062 0.80161 0.0
C1795 C 0.88755 0.48291 0.7904 0.0
C1796 C 0.87595 0.43101 0.7795 0.0
H1797 H 0.8338 0.40675 0.77 0.0
C1798 C 0.88078 0.42389 0.79561 0.0
C1799 C 0.8592 0.42428 0.76962 0.0
C1800 C 0.85381 0.43164 0.75214 0.0
C1801 C 0.86832 0.41213 0.8037 0.0
C1802 C 0.85118 0.40641 0.79448 0.0
C1803 C 0.8469 0.41184 0.77725 0.0
C1804 C 0.83796 0.39313 0.80152 0.0
C1805 C 0.87333 0.40708 0.82257 0.0
C1806 C 0.84147 0.37543 0.80367 0.0
C1807 C 0.82823 0.36124 0.80698 0.0
C1808 C 0.81124 0.36432 0.80698 0.0
C1809 C 0.80765 0.38221 0.80588 0.0
C1810 C 0.82124 0.39688 0.80342 0.0
H1811 H 0.88447 0.41791 0.83045 0.0
H1812 H 0.86216 0.40572 0.83111 0.0
H1813 H 0.87756 0.39331 0.82068 0.0
H1814 H 0.85408 0.3721 0.8014 0.0
H1815 H 0.83089 0.34727 0.80733 0.0
H1816 H 0.04871 0.86356 0.11607 0.0
H1817 H 0.0448 0.89098 0.10138 0.0
H1818 H 0.09502 0.89349 0.08037 0.0
H1819 H 0.09811 0.8649 0.09369 0.0
H1820 H 0.05898 0.92476 0.10648 0.0
H1821 H 0.07096 0.90069 0.03444 0.0
H1822 H 0.06906 0.88491 0.05158 0.0
H1823 H 0.08958 0.90111 0.0505 0.0
C1824 C 0.05883 0.86983 0.1081 0.0
C1825 C 0.0737 0.86198 0.106 0.0
C1826 C 0.05661 0.88562 0.0997 0.0
C1827 C 0.0694 0.89441 0.08929 0.0
C1828 C 0.0845 0.88675 0.08755 0.0
H1829 H 0.08537 1.00246 0.04616 0.0
H1830 H 0.08816 0.9731 0.05803 0.0
C1831 C 0.08642 0.87048 0.09541 0.0
C1832 C 0.06715 0.91197 0.08116 0.0
H1833 H 0.07087 0.93363 0.04215 0.0
C1834 C 0.0614 0.92645 0.09231 0.0
C1835 C 0.07027 0.91458 0.06262 0.0
C1836 C 0.07512 0.8994 0.04906 0.0
C1837 C 0.05892 0.94321 0.08567 0.0
C1838 C 0.06243 0.94589 0.06738 0.0
C1839 C 0.06824 0.93161 0.05621 0.0
C1840 C 0.06046 0.96357 0.05973 0.0
C1841 C 0.05286 0.95815 0.09842 0.0
C1842 C 0.0439 0.96794 0.0564 0.0
C1843 C 0.04223 0.9847 0.0494 0.0
C1844 C 0.0571 0.99754 0.04568 0.0
C1845 C 0.07363 0.99299 0.04887 0.0
C1846 C 0.07526 0.97616 0.05567 0.0
H1847 H 0.0537 0.95553 0.1131 0.0
H1848 H 0.06078 0.97252 0.09781 0.0
H1849 H 0.039 0.95809 0.0938 0.0
H1850 H 0.03225 0.95837 0.05922 0.0
H1851 H 0.0293 0.98772 0.04718 0.0
H1852 H 0.9499 0.26266 0.90411 0.0
H1853 H 0.92212 0.26848 0.89041 0.0
H1854 H 0.95085 0.31215 0.8633 0.0
H1855 H 0.97846 0.30556 0.87605 0.0
H1856 H 0.9047 0.29515 0.89163 0.0
H1857 H 0.92038 0.28575 0.81895 0.0
H1858 H 0.9342 0.28055 0.83766 0.0
H1859 H 0.93597 0.30468 0.83315 0.0
C1860 C 0.95032 0.27329 0.89495 0.0
C1861 C 0.96666 0.28321 0.89085 0.0
C1862 C 0.93429 0.27675 0.88715 0.0
C1863 C 0.9339 0.29039 0.87505 0.0
C1864 C 0.9503 0.30088 0.87171 0.0
H1865 H 0.85383 0.32862 0.8068 0.0
H1866 H 0.87992 0.32494 0.82527 0.0
C1867 C 0.96629 0.29718 0.87919 0.0
C1868 C 0.91655 0.29356 0.866 0.0
H1869 H 0.89526 0.29811 0.82422 0.0
C1870 C 0.9027 0.29569 0.87684 0.0
C1871 C 0.91339 0.29432 0.84662 0.0
C1872 C 0.9267 0.29102 0.8334 0.0
C1873 C 0.88644 0.29902 0.86918 0.0
C1874 C 0.8834 0.29993 0.84981 0.0
C1875 C 0.89722 0.29765 0.83902 0.0
C1876 C 0.86646 0.30362 0.84027 0.0
C1877 C 0.87294 0.30214 0.88219 0.0
C1878 C 0.84948 0.29345 0.84249 0.0
C1879 C 0.83417 0.29613 0.8322 0.0
C1880 C 0.83533 0.30873 0.81897 0.0
C1881 C 0.85221 0.31899 0.81697 0.0
C1882 C 0.86734 0.3167 0.82751 0.0
H1883 H 0.87902 0.30692 0.89679 0.0
H1884 H 0.86571 0.31287 0.87804 0.0
H1885 H 0.86342 0.28852 0.88186 0.0
H1886 H 0.84801 0.28277 0.8516 0.0
H1887 H 0.82156 0.28753 0.83381 0.0
H1888 H 0.54375 0.24768 0.61519 0.0
H1889 H 0.53919 0.21403 0.60194 0.0
H1890 H 0.58579 0.22627 0.57424 0.0
H1891 H 0.59028 0.26019 0.58722 0.0
H1892 H 0.53784 0.19618 0.56112 0.0
H1893 H 0.5914 0.18482 0.61044 0.0
H1894 H 0.58015 0.20407 0.6151 0.0
H1895 H 0.59618 0.20538 0.59884 0.0
C1896 C 0.55296 0.24322 0.60614 0.0
C1897 C 0.56746 0.25648 0.60231 0.0
C1898 C 0.55029 0.22403 0.59856 0.0
C1899 C 0.56223 0.21771 0.58727 0.0
C1900 C 0.57648 0.23095 0.583 0.0
H1901 H 0.57663 0.10526 0.54248 0.0
H1902 H 0.58001 0.13961 0.55255 0.0
C1903 C 0.579 0.25027 0.59034 0.0
C1904 C 0.56021 0.19714 0.58066 0.0
H1905 H 0.57801 0.15898 0.58727 0.0
C1906 C 0.54662 0.18801 0.56675 0.0
C1907 C 0.57152 0.18655 0.58831 0.0
C1908 C 0.58558 0.19557 0.60411 0.0
C1909 C 0.54438 0.16856 0.55987 0.0
C1910 C 0.55592 0.15801 0.56731 0.0
C1911 C 0.56936 0.16715 0.58139 0.0
C1912 C 0.55394 0.13734 0.56109 0.0
C1913 C 0.52985 0.15958 0.54448 0.0
C1914 C 0.53833 0.12473 0.56287 0.0
C1915 C 0.5363 0.1053 0.55694 0.0
C1916 C 0.54999 0.09797 0.54944 0.0
C1917 C 0.56584 0.11052 0.54812 0.0
C1918 C 0.56778 0.13009 0.55386 0.0
H1919 H 0.52549 0.17041 0.53688 0.0
H1920 H 0.53405 0.149 0.53435 0.0
H1921 H 0.51839 0.15215 0.55059 0.0
H1922 H 0.5277 0.12989 0.56898 0.0
H1923 H 0.52402 0.096 0.55851 0.0
H1924 H 0.58087 0.80166 0.42437 0.0
H1925 H 0.60978 0.80711 0.41296 0.0
H1926 H 0.58642 0.77747 0.35878 0.0
H1927 H 0.55747 0.77249 0.36998 0.0
H1928 H 0.63044 0.78467 0.39929 0.0
H1929 H 0.61325 0.82519 0.3443 0.0
H1930 H 0.59939 0.81993 0.36232 0.0
H1931 H 0.59833 0.80259 0.34189 0.0
C1932 C 0.58185 0.79639 0.40996 0.0
C1933 C 0.5667 0.78678 0.39804 0.0
C1934 C 0.59848 0.79949 0.40346 0.0
C1935 C 0.60046 0.7931 0.38482 0.0
C1936 C 0.58536 0.78312 0.37305 0.0
H1937 H 0.67985 0.78088 0.3121 0.0
H1938 H 0.65385 0.78052 0.32879 0.0
C1939 C 0.56873 0.78015 0.3795 0.0
C1940 C 0.61816 0.79666 0.37761 0.0
H1941 H 0.639 0.8124 0.34127 0.0
C1942 C 0.63234 0.79092 0.38671 0.0
C1943 C 0.62102 0.80528 0.36144 0.0
C1944 C 0.60726 0.81381 0.35206 0.0
C1945 C 0.64872 0.79249 0.37948 0.0
C1946 C 0.6511 0.7999 0.3626 0.0
C1947 C 0.63719 0.80637 0.35399 0.0
C1948 C 0.66739 0.80009 0.35296 0.0
C1949 C 0.66321 0.7856 0.3896 0.0
C1950 C 0.68383 0.81133 0.3608 0.0
C1951 C 0.69874 0.8117 0.3511 0.0
C1952 C 0.69754 0.80076 0.3334 0.0
C1953 C 0.68116 0.78949 0.32567 0.0
C1954 C 0.66629 0.78927 0.33524 0.0
H1955 H 0.65849 0.77747 0.40074 0.0
H1956 H 0.66922 0.77647 0.37971 0.0
H1957 H 0.6736 0.79803 0.3961 0.0
H1958 H 0.68509 0.82003 0.37431 0.0
H1959 H 0.71121 0.82046 0.35743 0.0
H1960 H 0.07915 0.29229 0.4448 0.0
H1961 H 0.06886 0.26209 0.45616 0.0
H1962 H 0.07653 0.23119 0.40379 0.0
H1963 H 0.08677 0.26114 0.39234 0.0
H1964 H 0.03972 0.22902 0.4368 0.0
H1965 H 0.10645 0.21373 0.44675 0.0
H1966 H 0.10289 0.23735 0.44537 0.0
H1967 H 0.10002 0.22019 0.42464 0.0
C1968 C 0.07879 0.27903 0.43584 0.0
C1969 C 0.08394 0.27892 0.41785 0.0
C1970 C 0.07278 0.2619 0.44223 0.0
C1971 C 0.07208 0.24463 0.43075 0.0
C1972 C 0.07711 0.24449 0.41278 0.0
H1973 H 0.05389 0.12885 0.45472 0.0
H1974 H 0.05846 0.15629 0.43807 0.0
C1975 C 0.08299 0.26155 0.40634 0.0
C1976 C 0.06671 0.22663 0.43773 0.0
H1977 H 0.08274 0.19004 0.45197 0.0
C1978 C 0.04904 0.22042 0.44013 0.0
C1979 C 0.07901 0.21558 0.44181 0.0
C1980 C 0.09819 0.22204 0.43966 0.0
C1981 C 0.04331 0.2032 0.44663 0.0
C1982 C 0.05569 0.1923 0.45107 0.0
C1983 C 0.07331 0.19844 0.44839 0.0
C1984 C 0.05101 0.17528 0.45998 0.0
C1985 C 0.02411 0.19675 0.44862 0.0
C1986 C 0.04538 0.17705 0.47772 0.0
C1987 C 0.04298 0.16159 0.48732 0.0
C1988 C 0.04618 0.14405 0.47933 0.0
C1989 C 0.05143 0.1422 0.4613 0.0
C1990 C 0.05392 0.15777 0.45173 0.0
H1991 H 0.01584 0.20364 0.43977 0.0
H1992 H 0.01981 0.18107 0.44485 0.0
H1993 H 0.02186 0.2007 0.46332 0.0
H1994 H 0.04357 0.19063 0.4845 0.0
H1995 H 0.03937 0.16367 0.50135 0.0
H1996 H 0.56327 0.27462 0.15978 0.0
H1997 H 0.59382 0.28087 0.1732 0.0
H1998 H 0.5772 0.27729 0.22782 0.0
H1999 H 0.54643 0.27122 0.21451 0.0
H2000 H 0.61018 0.31265 0.20745 0.0
H2001 H 0.61061 0.23693 0.21331 0.0
H2002 H 0.59554 0.24359 0.19661 0.0
H2003 H 0.59226 0.24632 0.22077 0.0
C2004 C 0.56613 0.27512 0.17465 0.0
C2005 C 0.55264 0.27235 0.18619 0.0
C2006 C 0.5835 0.27878 0.18223 0.0
C2007 C 0.5875 0.27948 0.20136 0.0
C2008 C 0.57412 0.27677 0.21298 0.0
H2009 H 0.68232 0.27998 0.26742 0.0
H2010 H 0.65244 0.28118 0.25671 0.0
C2011 C 0.55669 0.27333 0.20542 0.0
C2012 C 0.60577 0.28272 0.2091 0.0
H2013 H 0.63638 0.25972 0.22482 0.0
C2014 C 0.61601 0.30119 0.21137 0.0
C2015 C 0.61305 0.26754 0.21385 0.0
C2016 C 0.6024 0.24741 0.21096 0.0
C2017 C 0.63357 0.30503 0.21887 0.0
C2018 C 0.64088 0.28987 0.22381 0.0
C2019 C 0.6306 0.27132 0.2212 0.0
C2020 C 0.65919 0.29269 0.23172 0.0
C2021 C 0.64399 0.32525 0.22171 0.0
C2022 C 0.67286 0.2995 0.22151 0.0
C2023 C 0.69005 0.29935 0.22786 0.0
C2024 C 0.69367 0.29191 0.24424 0.0
C2025 C 0.68001 0.28607 0.2549 0.0
C2026 C 0.6629 0.28653 0.24871 0.0
H2027 H 0.63531 0.33564 0.22235 0.0
H2028 H 0.65318 0.32842 0.23468 0.0
H2029 H 0.65175 0.32733 0.2098 0.0
H2030 H 0.67017 0.30402 0.2082 0.0
H2031 H 0.70039 0.30417 0.21951 0.0
H2032 H 0.57843 0.88495 0.89179 0.0
H2033 H 0.56738 0.91253 0.90427 0.0
H2034 H 0.58931 0.90889 0.95953 0.0
H2035 H 0.6003 0.88082 0.94715 0.0
H2036 H 0.54432 0.91362 0.93619 0.0
H2037 H 0.60874 0.96485 0.94649 0.0
H2038 H 0.60446 0.94286 0.93036 0.0
H2039 H 0.60808 0.94254 0.95492 0.0
C2040 C 0.5812 0.89018 0.90657 0.0
C2041 C 0.59051 0.88103 0.91855 0.0
C2042 C 0.57469 0.90576 0.91363 0.0
C2043 C 0.57764 0.91256 0.93268 0.0
C2044 C 0.58705 0.90367 0.94472 0.0
H2045 H 0.56486 0.9993 0.01148 0.0
H2046 H 0.57042 0.97249 0.99129 0.0
C2047 C 0.59339 0.88784 0.93768 0.0
C2048 C 0.57109 0.92925 0.93989 0.0
H2049 H 0.58492 0.97574 0.95872 0.0
C2050 C 0.55307 0.92732 0.94102 0.0
C2051 C 0.58266 0.94694 0.94574 0.0
C2052 C 0.60207 0.94958 0.94424 0.0
C2053 C 0.54639 0.9426 0.94912 0.0
C2054 C 0.55813 0.96012 0.95577 0.0
C2055 C 0.576 0.96223 0.95354 0.0
C2056 C 0.55298 0.97546 0.96781 0.0
C2057 C 0.52714 0.93964 0.95148 0.0
C2058 C 0.5409 0.9857 0.96138 0.0
C2059 C 0.53726 1.00093 0.97322 0.0
C2060 C 0.54614 1.00627 0.99126 0.0
C2061 C 0.55797 0.99572 0.99757 0.0
C2062 C 0.56119 0.98037 0.98605 0.0
H2063 H 0.52026 0.9245 0.9475 0.0
H2064 H 0.52529 0.94444 0.96615 0.0
H2065 H 0.52089 0.94826 0.94259 0.0
H2066 H 0.53456 0.98214 0.94723 0.0
H2067 H 0.52776 1.00858 0.96824 0.0
H2068 H 0.94093 0.76016 0.66156 0.0
H2069 H 0.91419 0.76061 0.67658 0.0
H2070 H 0.94356 0.76585 0.73039 0.0
H2071 H 0.97037 0.76561 0.71561 0.0
H2072 H 0.89811 0.73744 0.70331 0.0
H2073 H 0.92243 0.81448 0.73034 0.0
H2074 H 0.93174 0.80209 0.71185 0.0
H2075 H 0.93718 0.7994 0.73562 0.0
C2076 C 0.94163 0.7613 0.67658 0.0
C2077 C 0.95762 0.76321 0.68755 0.0
C2078 C 0.92642 0.76142 0.68505 0.0
C2079 C 0.92723 0.76352 0.70445 0.0
C2080 C 0.94297 0.76443 0.71536 0.0
H2081 H 0.85301 0.78342 0.78167 0.0
H2082 H 0.87975 0.77936 0.76737 0.0
C2083 C 0.95816 0.76432 0.70693 0.0
C2084 C 0.91189 0.76622 0.71344 0.0
H2085 H 0.896 0.79933 0.74045 0.0
C2086 C 0.89755 0.7509 0.71146 0.0
C2087 C 0.91148 0.78395 0.72381 0.0
C2088 C 0.92646 0.801 0.72544 0.0
C2089 C 0.88263 0.75277 0.72008 0.0
C2090 C 0.88228 0.77046 0.7306 0.0
C2091 C 0.89661 0.78579 0.73248 0.0
C2092 C 0.86681 0.77355 0.73916 0.0
C2093 C 0.86748 0.73583 0.71801 0.0
C2094 C 0.85124 0.77218 0.7278 0.0
C2095 C 0.83621 0.77408 0.73586 0.0
C2096 C 0.83681 0.7777 0.75525 0.0
C2097 C 0.85252 0.78016 0.76667 0.0
C2098 C 0.8676 0.77795 0.75858 0.0
H2099 H 0.8716 0.72227 0.71368 0.0
H2100 H 0.86148 0.73497 0.73124 0.0
H2101 H 0.85729 0.73732 0.70715 0.0
H2102 H 0.8507 0.76944 0.71276 0.0
H2103 H 0.8241 0.77279 0.72698 0.0
H2104 H 0.12154 0.99833 0.82949 0.0
H2105 H 0.1076 1.00114 0.85863 0.0
H2106 H 0.13887 0.05765 0.87503 0.0
H2107 H 0.15297 0.05474 0.84618 0.0
H2108 H 0.11871 1.00618 0.89675 0.0
H2109 H 0.09182 0.06906 0.88602 0.0
H2110 H 0.09967 0.05513 0.86743 0.0
H2111 H 0.11489 0.0725 0.88403 0.0
C2112 C 0.12553 1.01146 0.83918 0.0
C2113 C 0.1387 0.02627 0.83475 0.0
C2114 C 0.11742 0.01309 0.8562 0.0
C2115 C 0.12157 0.02981 0.86978 0.0
C2116 C 0.13469 0.04459 0.86528 0.0
H2117 H 0.08691 0.06804 0.98313 0.0
H2118 H 0.1005 0.06586 0.95363 0.0
C2119 C 0.14302 0.04284 0.84846 0.0
C2120 C 0.11269 0.03167 0.88845 0.0
H2121 H 0.09079 0.06007 0.91607 0.0
C2122 C 0.11258 0.01802 0.90072 0.0
C2123 C 0.10435 0.04691 0.89459 0.0
C2124 C 0.10247 0.06167 0.88231 0.0
C2125 C 0.10524 0.01938 0.91826 0.0
C2126 C 0.09696 0.03467 0.92446 0.0
C2127 C 0.09699 0.04829 0.91215 0.0
C2128 C 0.08816 0.03644 0.94318 0.0
C2129 C 0.10713 1.00449 0.93041 0.0
C2130 C 0.07602 0.02109 0.94813 0.0
C2131 C 0.0682 0.02236 0.96521 0.0
C2132 C 0.07178 0.03911 0.97866 0.0
C2133 C 0.08365 0.05471 0.97369 0.0
C2134 C 0.09151 0.05343 0.95645 0.0
H2135 H 0.11821 0.99767 0.92707 0.0
H2136 H 0.10927 1.01069 0.94539 0.0
H2137 H 0.09499 0.9932 0.92799 0.0
H2138 H 0.07225 1.00786 0.93858 0.0
H2139 H 0.05908 1.00992 0.96782 0.0
H2140 H 0.78797 0.3853 0.55798 0.0
H2141 H 0.79571 0.37676 0.58858 0.0
H2142 H 0.83927 0.4252 0.59942 0.0
H2143 H 0.83114 0.43425 0.56951 0.0
H2144 H 0.82663 0.36807 0.59967 0.0
H2145 H 0.81581 0.43084 0.64638 0.0
H2146 H 0.80799 0.42596 0.6219 0.0
H2147 H 0.83064 0.43665 0.6295 0.0
C2148 C 0.79899 0.39416 0.56711 0.0
C2149 C 0.80882 0.41046 0.56181 0.0
C2150 C 0.80339 0.38936 0.58442 0.0
C2151 C 0.81781 0.40066 0.59616 0.0
C2152 C 0.82778 0.41676 0.59069 0.0
H2153 H 0.85268 0.37796 0.70652 0.0
H2154 H 0.85532 0.39083 0.67692 0.0
C2155 C 0.82316 0.4218 0.57366 0.0
C2156 C 0.82309 0.39491 0.6137 0.0
H2157 H 0.82806 0.40838 0.66059 0.0
C2158 C 0.82709 0.37691 0.61301 0.0
C2159 C 0.82387 0.40675 0.63089 0.0
C2160 C 0.81921 0.42606 0.63228 0.0
C2161 C 0.83109 0.36995 0.6293 0.0
C2162 C 0.83116 0.38145 0.64647 0.0
C2163 C 0.8282 0.39988 0.6472 0.0
C2164 C 0.83065 0.37332 0.66353 0.0
C2165 C 0.83427 0.35002 0.62807 0.0
C2166 C 0.81576 0.35976 0.66541 0.0
C2167 C 0.81421 0.35275 0.682 0.0
C2168 C 0.82749 0.35935 0.69679 0.0
C2169 C 0.84243 0.37289 0.69503 0.0
C2170 C 0.84395 0.38006 0.67832 0.0
H2171 H 0.83926 0.3456 0.6147 0.0
H2172 H 0.84374 0.34879 0.63978 0.0
H2173 H 0.8217 0.33999 0.62872 0.0
H2174 H 0.80525 0.35486 0.65415 0.0
H2175 H 0.80264 0.34218 0.68334 0.0
H2176 H 0.47401 0.05982 0.34891 0.0
H2177 H 0.48873 0.05625 0.37876 0.0
H2178 H 0.44689 1.00906 0.38361 0.0
H2179 H 0.43203 0.01254 0.35391 0.0
H2180 H 0.46679 0.05631 0.41252 0.0
H2181 H 0.49725 0.99383 0.3949 0.0
H2182 H 0.49329 1.00897 0.37795 0.0
H2183 H 0.47524 0.99317 0.38499 0.0
C2184 C 0.46803 0.0487 0.35637 0.0
C2185 C 0.45184 0.0367 0.34952 0.0
C2186 C 0.47644 0.04659 0.37318 0.0
C2187 C 0.46876 0.03234 0.38295 0.0
C2188 C 0.45287 0.02001 0.37594 0.0
H2189 H 0.50786 0.0158 0.49269 0.0
H2190 H 0.48855 0.0125 0.46392 0.0
C2191 C 0.44437 0.02221 0.35924 0.0
C2192 C 0.47647 0.03181 0.4015 0.0
H2193 H 0.50254 1.00945 0.42602 0.0
C2194 C 0.4745 0.04602 0.41562 0.0
C2195 C 0.48614 0.01807 0.40511 0.0
C2196 C 0.48822 1.0026 0.38999 0.0
C2197 C 0.48272 0.04733 0.43349 0.0
C2198 C 0.49318 0.03425 0.4369 0.0
C2199 C 0.49447 0.01944 0.42301 0.0
C2200 C 0.5041 0.03676 0.4544 0.0
C2201 C 0.48057 0.06287 0.44849 0.0
C2202 C 0.51897 0.05159 0.45819 0.0
C2203 C 0.53002 0.05352 0.4745 0.0
C2204 C 0.52613 0.04062 0.48696 0.0
C2205 C 0.51101 0.02598 0.48322 0.0
C2206 C 0.50005 0.024 0.4669 0.0
H2207 H 0.46933 0.06929 0.44456 0.0
H2208 H 0.47862 0.05725 0.46179 0.0
H2209 H 0.49265 0.07426 0.4509 0.0
H2210 H 0.52214 0.0614 0.44839 0.0
H2211 H 0.54164 0.06485 0.47725 0.0
H2212 H 0.77299 0.73862 0.06066 0.0
H2213 H 0.77419 0.75059 0.09399 0.0
H2214 H 0.81636 0.72245 0.10599 0.0
H2215 H 0.81529 0.71052 0.07283 0.0
H2216 H 0.76961 0.72692 0.12317 0.0
H2217 H 0.83457 0.77705 0.13449 0.0
H2218 H 0.82282 0.76877 0.11156 0.0
H2219 H 0.83397 0.75341 0.12301 0.0
C2220 C 0.7827 0.73525 0.07036 0.0
C2221 C 0.79409 0.7237 0.06404 0.0
C2222 C 0.78332 0.74202 0.08942 0.0
C2223 C 0.79545 0.73757 0.1025 0.0
C2224 C 0.80706 0.72634 0.09618 0.0
H2225 H 0.81901 0.76481 0.22246 0.0
H2226 H 0.81763 0.75285 0.18954 0.0
C2227 C 0.8064 0.71949 0.07718 0.0
C2228 C 0.7954 0.74393 0.1228 0.0
H2229 H 0.8199 0.77222 0.16095 0.0
C2230 C 0.78055 0.73693 0.13142 0.0
C2231 C 0.80983 0.75665 0.13367 0.0
C2232 C 0.82619 0.76455 0.12526 0.0
C2233 C 0.77976 0.74227 0.15058 0.0
C2234 C 0.79395 0.75551 0.16131 0.0
C2235 C 0.8089 0.76229 0.15271 0.0
C2236 C 0.79391 0.76214 0.18159 0.0
C2237 C 0.76401 0.73314 0.15927 0.0
C2238 C 0.78096 0.77137 0.18831 0.0
C2239 C 0.78163 0.77823 0.20739 0.0
C2240 C 0.79545 0.77628 0.22002 0.0
C2241 C 0.80829 0.76691 0.21318 0.0
C2242 C 0.80752 0.75995 0.19428 0.0
H2243 H 0.75657 0.71988 0.15038 0.0
H2244 H 0.76801 0.72969 0.17316 0.0
H2245 H 0.75509 0.74316 0.16112 0.0
H2246 H 0.77051 0.77359 0.17877 0.0
H2247 H 0.77153 0.78531 0.21217 0.0
H2248 H 0.11128 1.01014 0.73202 0.0
H2249 H 0.09724 1.01135 0.70082 0.0
H2250 H 0.14774 0.0341 0.68429 0.0
H2251 H 0.16169 0.03193 0.71488 0.0
H2252 H 0.09097 0.03481 0.67994 0.0
H2253 H 0.1337 0.99845 0.63884 0.0
H2254 H 0.13485 0.99955 0.66372 0.0
H2255 H 0.14668 0.01898 0.65354 0.0
C2256 C 0.11949 0.0152 0.7217 0.0
C2257 C 0.13789 0.02071 0.72644 0.0
C2258 C 0.11134 0.01597 0.70358 0.0
C2259 C 0.12111 0.02238 0.68918 0.0
C2260 C 0.13947 0.02827 0.69419 0.0
H2261 H 0.09326 0.05782 0.57925 0.0
H2262 H 0.10628 0.05446 0.61024 0.0
C2263 C 0.14759 0.02722 0.71212 0.0
C2264 C 0.11228 0.02345 0.66947 0.0
H2265 H 0.11658 0.01595 0.62223 0.0
C2266 C 0.09667 0.03046 0.66746 0.0
C2267 C 0.11902 0.01771 0.65241 0.0
C2268 C 0.13435 1.00806 0.65219 0.0
C2269 C 0.08834 0.03235 0.64975 0.0
C2270 C 0.09554 0.02735 0.63294 0.0
C2271 C 0.11093 0.02016 0.63481 0.0
C2272 C 0.08727 0.02941 0.61351 0.0
C2273 C 0.07186 0.04003 0.64906 0.0
C2274 C 0.07211 0.01647 0.60419 0.0
C2275 C 0.06485 0.01809 0.58602 0.0
C2276 C 0.07209 0.03304 0.57648 0.0
C2277 C 0.08707 0.04616 0.58593 0.0
C2278 C 0.09462 0.04421 0.60385 0.0
H2279 H 0.06856 0.04492 0.66316 0.0
H2280 H 0.07331 0.05208 0.64098 0.0
H2281 H 0.06077 0.02875 0.64177 0.0
H2282 H 0.06591 1.00486 0.61092 0.0
H2283 H 0.05332 1.0077 0.57952 0.0
H2284 H 0.77873 0.39118 0.44884 0.0
H2285 H 0.78407 0.37607 0.41822 0.0
H2286 H 0.83989 0.3929 0.43429 0.0
H2287 H 0.83454 0.40827 0.46473 0.0
H2288 H 0.80633 0.39563 0.39225 0.0
H2289 H 0.82788 0.33346 0.41676 0.0
H2290 H 0.8159 0.34791 0.43054 0.0
H2291 H 0.8386 0.35683 0.42847 0.0
C2292 C 0.79206 0.39151 0.4457 0.0
C2293 C 0.80627 0.40071 0.45867 0.0
C2294 C 0.7951 0.38304 0.42838 0.0
C2295 C 0.81234 0.38348 0.42428 0.0
C2296 C 0.82655 0.39251 0.4374 0.0
H2297 H 0.8359 0.31989 0.32241 0.0
H2298 H 0.84102 0.34268 0.3515 0.0
C2299 C 0.8235 0.40123 0.45458 0.0
C2300 C 0.81532 0.37437 0.40614 0.0
H2301 H 0.82556 0.3342 0.38456 0.0
C2302 C 0.81076 0.38233 0.39048 0.0
C2303 C 0.82128 0.35721 0.4042 0.0
C2304 C 0.82613 0.34821 0.42083 0.0
C2305 C 0.81124 0.37295 0.3726 0.0
C2306 C 0.81621 0.35523 0.37062 0.0
C2307 C 0.82178 0.34785 0.38631 0.0
C2308 C 0.81355 0.34288 0.35265 0.0
C2309 C 0.80592 0.38175 0.35602 0.0
C2310 C 0.79643 0.33543 0.34415 0.0
C2311 C 0.79353 0.32236 0.3279 0.0
C2312 C 0.80771 0.31656 0.32018 0.0
C2313 C 0.82485 0.32405 0.32854 0.0
C2314 C 0.82776 0.33711 0.34489 0.0
H2315 H 0.80736 0.39738 0.35968 0.0
H2316 H 0.81386 0.37886 0.34445 0.0
H2317 H 0.79194 0.3755 0.351 0.0
H2318 H 0.78532 0.33955 0.35022 0.0
H2319 H 0.78027 0.31698 0.3212 0.0
H2320 H 0.41712 0.02945 0.23387 0.0
H2321 H 0.42359 0.01996 0.20247 0.0
H2322 H 0.47799 0.02562 0.22262 0.0
H2323 H 0.47159 0.03489 0.25455 0.0
H2324 H 0.45059 0.04534 0.18631 0.0
H2325 H 0.46112 0.97181 0.1876 0.0
H2326 H 0.44794 0.98255 0.20335 0.0
H2327 H 0.47136 0.98991 0.20685 0.0
C2328 C 0.4305 0.02879 0.23167 0.0
C2329 C 0.44399 0.03318 0.24647 0.0
C2330 C 0.43407 0.02316 0.21382 0.0
C2331 C 0.45111 0.02193 0.21059 0.0
C2332 C 0.46469 0.02629 0.22521 0.0
H2333 H 0.51044 0.01348 0.12306 0.0
H2334 H 0.49588 1.01072 0.15098 0.0
C2335 C 0.46111 0.03185 0.24323 0.0
C2336 C 0.45488 0.01805 0.19153 0.0
H2337 H 0.46706 0.98539 0.16042 0.0
C2338 C 0.45401 0.03219 0.18045 0.0
C2339 C 0.4592 1.00082 0.18438 0.0
C2340 C 0.4599 0.98528 0.19607 0.0
C2341 C 0.45821 0.02988 0.16224 0.0
C2342 C 0.46284 0.01272 0.15507 0.0
C2343 C 0.46314 0.99832 0.16605 0.0
C2344 C 0.47029 1.01085 0.13746 0.0
C2345 C 0.45866 0.0462 0.15129 0.0
C2346 C 0.46041 1.01121 0.12067 0.0
C2347 C 0.46875 0.01292 0.10464 0.0
C2348 C 0.48687 0.01392 0.10545 0.0
C2349 C 0.49637 1.01219 0.12204 0.0
C2350 C 0.48812 1.01074 0.13798 0.0
H2351 H 0.45707 0.05938 0.16002 0.0
H2352 H 0.47124 0.04932 0.14515 0.0
H2353 H 0.44787 0.04227 0.13974 0.0
H2354 H 0.44656 1.01117 0.12022 0.0
H2355 H 0.46133 0.01444 0.09194 0.0
H2356 H 0.78516 0.74413 0.96917 0.0
H2357 H 0.78522 0.75585 0.93908 0.0
H2358 H 0.79609 0.70312 0.91322 0.0
H2359 H 0.79521 0.6911 0.94296 0.0
H2360 H 0.8083 0.76335 0.91577 0.0
H2361 H 0.75621 0.70485 0.87743 0.0
H2362 H 0.7613 0.70769 0.90232 0.0
H2363 H 0.77436 0.69631 0.88703 0.0
C2364 C 0.78746 0.73499 0.95704 0.0
C2365 C 0.7899 0.71652 0.95852 0.0
C2366 C 0.7875 0.74172 0.93976 0.0
C2367 C 0.7901 0.73023 0.92347 0.0
C2368 C 0.7933 0.71209 0.92519 0.0
H2369 H 0.7937 0.74769 0.8054 0.0
H2370 H 0.79427 0.73441 0.83489 0.0
C2371 C 0.79297 0.70526 0.94235 0.0
C2372 C 0.7898 0.73729 0.90488 0.0
H2373 H 0.77186 0.72575 0.85921 0.0
C2374 C 0.80024 0.75511 0.90346 0.0
C2375 C 0.7794 0.72667 0.88856 0.0
C2376 C 0.76706 0.70792 0.88892 0.0
C2377 C 0.8008 0.76239 0.88642 0.0
C2378 C 0.79032 0.7518 0.87011 0.0
C2379 C 0.77999 0.73393 0.8715 0.0
C2380 C 0.78936 0.75933 0.85179 0.0
C2381 C 0.81306 0.78123 0.88613 0.0
C2382 C 0.78574 0.77742 0.85103 0.0
C2383 C 0.78567 0.78503 0.83435 0.0
C2384 C 0.78862 0.77461 0.81763 0.0
C2385 C 0.79127 0.75605 0.81798 0.0
C2386 C 0.79169 0.74852 0.83491 0.0
H2387 H 0.82417 0.78404 0.89731 0.0
H2388 H 0.81844 0.78179 0.87255 0.0
H2389 H 0.80583 0.79283 0.88866 0.0
H2390 H 0.78308 0.78586 0.86344 0.0
H2391 H 0.78341 0.7993 0.83458 0.0
H2392 H 0.82021 0.10481 0.03886 0.0
H2393 H 0.84727 0.09394 0.0331 0.0
H2394 H 0.86732 0.14587 0.01191 0.0
H2395 H 0.84081 0.15698 0.01795 0.0
H2396 H 0.86173 0.08973 0.99852 0.0
H2397 H 0.9056 0.14352 0.05265 0.0
H2398 H 0.88204 0.13868 0.05203 0.0
H2399 H 0.89272 0.15308 0.03633 0.0
C2400 C 0.8305 0.11388 0.03314 0.0
C2401 C 0.82868 0.13175 0.02911 0.0
C2402 C 0.8458 0.1077 0.02982 0.0
C2403 C 0.85919 0.11939 0.02248 0.0
C2404 C 0.85718 0.13698 0.01802 0.0
H2405 H 0.96324 0.10363 1.00077 0.0
H2406 H 0.93663 0.11683 1.0017 0.0
C2407 C 0.84204 0.14321 0.02143 0.0
C2408 C 0.87532 0.11316 0.01921 0.0
H2409 H 0.91912 0.12374 0.03274 0.0
C2410 C 0.87431 0.09708 1.00596 0.0
C2411 C 0.89156 0.12318 0.02882 0.0
C2412 C 0.8931 0.1405 0.04336 0.0
C2413 C 0.88935 0.09046 1.00219 0.0
C2414 C 0.90554 0.10008 0.01224 0.0
C2415 C 0.9066 0.11652 0.02509 0.0
C2416 C 0.92124 0.09228 0.01104 0.0
C2417 C 0.88775 0.07323 0.98758 0.0
C2418 C 0.92123 0.0745 0.01647 0.0
C2419 C 0.9362 0.0671 0.01595 0.0
C2420 C 0.95132 0.07755 0.01026 0.0
C2421 C 0.95155 0.09552 1.00521 0.0
C2422 C 0.93648 0.10293 1.00564 0.0
H2423 H 0.87597 0.07135 0.97739 0.0
H2424 H 0.89952 0.07428 0.97996 0.0
H2425 H 0.8864 0.06033 0.99444 0.0
H2426 H 0.90968 0.06642 0.0212 0.0
H2427 H 0.93599 0.05319 0.01992 0.0
H2428 H 0.36891 0.44439 0.06695 0.0
H2429 H 0.39889 0.46062 0.06299 0.0
H2430 H 0.39223 0.43278 1.00614 0.0
H2431 H 0.36258 0.41619 0.01021 0.0
H2432 H 0.42867 0.44359 0.05093 0.0
H2433 H 0.40936 0.4906 1.00241 0.0
H2434 H 0.39426 0.47903 0.01692 0.0
H2435 H 0.39969 0.46562 0.99655 0.0
C2436 C 0.3738 0.44176 0.05359 0.0
C2437 C 0.36316 0.42892 0.03893 0.0
C2438 C 0.39104 0.45103 0.05132 0.0
C2439 C 0.39804 0.44823 0.03417 0.0
C2440 C 0.38734 0.43549 0.01949 0.0
H2441 H 0.50159 0.50112 0.99912 0.0
H2442 H 0.47182 0.48173 0.99904 0.0
C2443 C 0.3703 0.42589 0.02188 0.0
C2444 C 0.41648 0.45839 0.03173 0.0
H2445 H 0.43971 0.49239 0.00924 0.0
C2446 C 0.431 0.45429 0.04184 0.0
C2447 C 0.41988 0.47213 0.01956 0.0
C2448 C 0.40503 0.47728 1.00827 0.0
C2449 C 0.44847 0.46353 0.04029 0.0
C2450 C 0.45186 0.47789 0.02878 0.0
C2451 C 0.43738 0.48161 0.01824 0.0
C2452 C 0.47018 0.48972 0.02843 0.0
C2453 C 0.46331 0.45752 0.05076 0.0
C2454 C 0.47946 0.50098 0.0448 0.0
C2455 C 0.4964 0.51214 0.04483 0.0
C2456 C 0.50486 0.51248 0.0285 0.0
C2457 C 0.49566 0.50119 0.01203 0.0
C2458 C 0.47852 0.49012 0.01196 0.0
H2459 H 0.45908 0.4432 0.05477 0.0
H2460 H 0.47442 0.45729 0.04224 0.0
H2461 H 0.4681 0.46783 0.06366 0.0
H2462 H 0.47348 0.50135 0.05768 0.0
H2463 H 0.50291 0.52065 0.05777 0.0
H2464 H 0.40414 0.62437 0.80235 0.0
H2465 H 0.39038 0.65212 0.80278 0.0
H2466 H 0.39016 0.64752 0.74335 0.0
H2467 H 0.40247 0.61913 0.74287 0.0
H2468 H 0.39275 0.68575 0.79915 0.0
H2469 H 0.34444 0.65658 0.73802 0.0
H2470 H 0.35778 0.64209 0.7478 0.0
H2471 H 0.36611 0.65765 0.7316 0.0
C2472 C 0.40091 0.62895 0.78922 0.0
C2473 C 0.4044 0.61843 0.77249 0.0
C2474 C 0.39291 0.6453 0.78945 0.0
C2475 C 0.38794 0.65259 0.773 0.0
C2476 C 0.39231 0.64251 0.75645 0.0
H2477 H 0.34922 0.75981 0.75081 0.0
H2478 H 0.36398 0.73273 0.7508 0.0
C2479 C 0.39986 0.62594 0.75617 0.0
C2480 C 0.37871 0.67038 0.77318 0.0
H2481 H 0.34815 0.68953 0.74848 0.0
C2482 C 0.38291 0.68613 0.78797 0.0
C2483 C 0.36543 0.6722 0.75904 0.0
C2484 C 0.35803 0.65616 0.74335 0.0
C2485 C 0.375 0.70264 0.78873 0.0
C2486 C 0.36215 0.70449 0.77436 0.0
C2487 C 0.35795 0.68893 0.75963 0.0
C2488 C 0.35289 0.72203 0.77453 0.0
C2489 C 0.38082 0.71845 0.80496 0.0
C2490 C 0.34106 0.72602 0.78758 0.0
C2491 C 0.33207 0.74149 0.78724 0.0
C2492 C 0.33469 0.75452 0.77425 0.0
C2493 C 0.34672 0.75073 0.76136 0.0
C2494 C 0.35529 0.73487 0.76132 0.0
H2495 H 0.39248 0.71662 0.81368 0.0
H2496 H 0.38394 0.7324 0.79992 0.0
H2497 H 0.36997 0.7188 0.8138 0.0
H2498 H 0.33839 0.71685 0.79801 0.0
H2499 H 0.32301 0.74331 0.79744 0.0
H2500 H 0.22707 0.64807 0.55237 0.0
H2501 H 0.19551 0.63979 0.54349 0.0
H2502 H 0.20311 0.60493 0.4933 0.0
H2503 H 0.23481 0.61276 0.50236 0.0
H2504 H 0.17432 0.64333 0.51184 0.0
H2505 H 0.17291 0.56843 0.52221 0.0
H2506 H 0.19193 0.58734 0.52953 0.0
H2507 H 0.18696 0.57682 0.50544 0.0
C2508 C 0.22196 0.63846 0.53955 0.0
C2509 C 0.23312 0.63048 0.52829 0.0
C2510 C 0.20406 0.63402 0.53439 0.0
C2511 C 0.19724 0.6217 0.51789 0.0
C2512 C 0.20836 0.61428 0.50623 0.0
H2513 H 0.08993 0.56861 0.47997 0.0
H2514 H 0.12087 0.58351 0.48037 0.0
C2515 C 0.2263 0.61851 0.51151 0.0
C2516 C 0.17837 0.61513 0.51402 0.0
H2517 H 0.14609 0.57581 0.51238 0.0
C2518 C 0.16808 0.62856 0.51172 0.0
C2519 C 0.17054 0.59593 0.51441 0.0
C2520 C 0.18112 0.58131 0.51821 0.0
C2521 C 0.14985 0.62311 0.50975 0.0
C2522 C 0.14216 0.60391 0.50989 0.0
C2523 C 0.15238 0.59049 0.512 0.0
C2524 C 0.1234 0.59739 0.5089 0.0
C2525 C 0.13886 0.63776 0.50792 0.0
C2526 C 0.11513 0.60041 0.52495 0.0
C2527 C 0.09769 0.5918 0.52486 0.0
C2528 C 0.08854 0.58023 0.50868 0.0
C2529 C 0.0968 0.57762 0.49251 0.0
C2530 C 0.1143 0.58611 0.49268 0.0
H2531 H 0.1468 0.65157 0.50559 0.0
H2532 H 0.12826 0.63251 0.49624 0.0
H2533 H 0.13255 0.64017 0.52087 0.0
H2534 H 0.1223 0.60888 0.53762 0.0
H2535 H 0.09145 0.59406 0.53746 0.0
H2536 H 0.71721 0.03006 0.78092 0.0
H2537 H 0.7288 1.00337 0.79027 0.0
H2538 H 0.6898 0.96414 0.75082 0.0
H2539 H 0.67795 0.99072 0.74158 0.0
H2540 H 0.70378 0.96588 0.80097 0.0
H2541 H 0.74403 0.96001 0.74156 0.0
H2542 H 0.73826 0.98206 0.75072 0.0
H2543 H 0.72205 0.96346 0.73677 0.0
C2544 C 0.71142 0.01574 0.77401 0.0
C2545 C 0.69706 1.01214 0.76032 0.0
C2546 C 0.71781 1.00067 0.77954 0.0
C2547 C 0.70996 0.98218 0.77115 0.0
C2548 C 0.69578 0.97855 0.75733 0.0
H2549 H 0.72825 0.8718 0.7721 0.0
H2550 H 0.71393 0.89877 0.77173 0.0
C2551 C 0.68923 0.99357 0.75198 0.0
C2552 C 0.71705 0.96652 0.77623 0.0
H2553 H 0.74206 0.93595 0.76075 0.0
C2554 C 0.71224 0.95929 0.79235 0.0
C2555 C 0.72802 0.95842 0.76475 0.0
C2556 C 0.73354 0.96638 0.7475 0.0
C2557 C 0.71804 0.94347 0.79715 0.0
C2558 C 0.72869 0.93511 0.78544 0.0
C2559 C 0.73372 0.94258 0.76949 0.0
C2560 C 0.73503 0.91854 0.78943 0.0
C2561 C 0.71273 0.93555 0.8144 0.0
C2562 C 0.75127 0.92111 0.79988 0.0
C2563 C 0.75957 0.90595 0.79991 0.0
C2564 C 0.75161 0.8882 0.78943 0.0
C2565 C 0.73465 0.88541 0.78018 0.0
C2566 C 0.72643 0.90064 0.78004 0.0
H2567 H 0.70399 0.94355 0.82183 0.0
H2568 H 0.70588 0.9204 0.8106 0.0
H2569 H 0.72462 0.93605 0.824 0.0
H2570 H 0.75803 0.93509 0.80687 0.0
H2571 H 0.77276 0.90855 0.80686 0.0
H2572 H 0.74996 0.89678 0.5145 0.0
H2573 H 0.7229 0.90828 0.50936 0.0
H2574 H 0.74276 0.95556 0.55327 0.0
H2575 H 0.77016 0.94457 0.55785 0.0
H2576 H 0.69706 0.91377 0.52821 0.0
H2577 H 0.72959 0.98407 0.51371 0.0
H2578 H 0.74116 0.96516 0.51537 0.0
H2579 H 0.7383 0.98036 0.53607 0.0
C2580 C 0.74862 0.90971 0.52302 0.0
C2581 C 0.76242 0.9199 0.53647 0.0
C2582 C 0.73305 0.91626 0.52008 0.0
C2583 C 0.73077 0.93314 0.53055 0.0
C2584 C 0.74429 0.9429 0.54447 0.0
H2585 H 0.65179 0.99606 0.55292 0.0
H2586 H 0.67615 0.9798 0.55178 0.0
C2587 C 0.75998 0.93652 0.54722 0.0
C2588 C 0.71438 0.94061 0.52703 0.0
H2589 H 0.7002 0.98153 0.522 0.0
C2590 C 0.69779 0.92854 0.52664 0.0
C2591 C 0.71504 0.95974 0.52434 0.0
C2592 C 0.73197 0.97298 0.52215 0.0
C2593 C 0.68215 0.9354 0.5249 0.0
C2594 C 0.68306 0.95488 0.52377 0.0
C2595 C 0.6995 0.96668 0.52327 0.0
C2596 C 0.66736 0.9637 0.52438 0.0
C2597 C 0.66477 0.92198 0.52484 0.0
C2598 C 0.65413 0.9601 0.50932 0.0
C2599 C 0.64002 0.96944 0.50993 0.0
C2600 C 0.63876 0.98253 0.52566 0.0
C2601 C 0.652 0.98586 0.54072 0.0
C2602 C 0.66608 0.97665 0.54005 0.0
H2603 H 0.66631 0.90771 0.52767 0.0
H2604 H 0.65711 0.92795 0.53542 0.0
H2605 H 0.65707 0.92027 0.51103 0.0
H2606 H 0.65488 0.95033 0.49697 0.0
H2607 H 0.6301 0.9664 0.49807 0.0
H2608 H 0.37369 0.51247 0.76915 0.0
H2609 H 0.35909 0.47966 0.77167 0.0
H2610 H 0.40895 0.46338 0.77377 0.0
H2611 H 0.42347 0.49603 0.77124 0.0
H2612 H 0.3538 0.44561 0.75136 0.0
H2613 H 0.39243 0.43689 0.81512 0.0
H2614 H 0.394 0.4597 0.8074 0.0
H2615 H 0.40574 0.44282 0.79701 0.0
C2616 C 0.38168 0.50201 0.77018 0.0
C2617 C 0.40006 0.50759 0.76985 0.0
C2618 C 0.37318 0.48288 0.77165 0.0
C2619 C 0.38251 0.46814 0.7733 0.0
C2620 C 0.40092 0.47381 0.77303 0.0
H2621 H 0.34608 0.34032 0.7791 0.0
H2622 H 0.36425 0.37233 0.778 0.0
C2623 C 0.40938 0.49285 0.77134 0.0
C2624 C 0.373 0.44715 0.77457 0.0
H2625 H 0.37301 0.40897 0.79886 0.0
C2626 C 0.35813 0.43786 0.76192 0.0
C2627 C 0.37818 0.43597 0.788 0.0
C2628 C 0.39334 0.44435 0.80277 0.0
C2629 C 0.34886 0.41867 0.76208 0.0
C2630 C 0.35372 0.4076 0.77571 0.0
C2631 C 0.36876 0.41675 0.78828 0.0
C2632 C 0.34287 0.38724 0.77732 0.0
C2633 C 0.33409 0.4102 0.74689 0.0
C2634 C 0.32451 0.38387 0.77785 0.0
C2635 C 0.3141 0.36549 0.77844 0.0
C2636 C 0.32116 0.34897 0.77874 0.0
C2637 C 0.33968 0.3522 0.77876 0.0
C2638 C 0.35024 0.37085 0.77817 0.0
H2639 H 0.33576 0.4172 0.73431 0.0
H2640 H 0.33316 0.39472 0.7428 0.0
H2641 H 0.32155 0.41237 0.75192 0.0
H2642 H 0.31796 0.39565 0.77791 0.0
H2643 H 0.30012 0.36429 0.77865 0.0
H2644 H 0.21394 0.60543 0.29435 0.0
H2645 H 0.22661 0.63885 0.30608 0.0
H2646 H 0.18905 0.6555 0.26846 0.0
H2647 H 0.17596 0.62215 0.25706 0.0
H2648 H 0.23859 0.65476 0.27453 0.0
H2649 H 0.19893 0.69854 0.3142 0.0
H2650 H 0.19659 0.67331 0.3147 0.0
H2651 H 0.18745 0.6815 0.29473 0.0
C2652 C 0.20821 0.61627 0.28891 0.0
C2653 C 0.19452 0.61156 0.27442 0.0
C2654 C 0.21512 0.63518 0.29591 0.0
C2655 C 0.20855 0.64931 0.28815 0.0
C2656 C 0.19391 0.64461 0.27482 0.0
H2657 H 0.25747 0.75627 0.26167 0.0
H2658 H 0.23958 0.72437 0.26102 0.0
C2659 C 0.18679 0.62567 0.26803 0.0
C2660 C 0.22006 0.6677 0.28924 0.0
H2661 H 0.22338 0.71514 0.30118 0.0
C2662 C 0.23546 0.66798 0.28066 0.0
C2663 C 0.21538 0.68463 0.2967 0.0
C2664 C 0.19873 0.68459 0.30572 0.0
C2665 C 0.24653 0.68506 0.27936 0.0
C2666 C 0.24195 0.70191 0.28697 0.0
C2667 C 0.22658 0.70181 0.2955 0.0
C2668 C 0.25333 0.71988 0.28645 0.0
C2669 C 0.2629 0.68516 0.26975 0.0
C2670 C 0.26702 0.72695 0.30068 0.0
C2671 C 0.27708 0.74496 0.30113 0.0
C2672 C 0.27345 0.75556 0.28723 0.0
C2673 C 0.26045 0.74794 0.27232 0.0
C2674 C 0.25021 0.73004 0.27205 0.0
H2675 H 0.26388 0.67066 0.26344 0.0
H2676 H 0.26312 0.69428 0.25866 0.0
H2677 H 0.27461 0.69133 0.27995 0.0
H2678 H 0.26944 0.71881 0.31168 0.0
H2679 H 0.28719 0.75089 0.31262 0.0
H2680 H 0.53629 0.71847 0.42534 0.0
H2681 H 0.54378 0.69389 0.44269 0.0
H2682 H 0.5174 0.71436 0.48828 0.0
H2683 H 0.51015 0.73923 0.47114 0.0
H2684 H 0.56262 0.69915 0.48194 0.0
H2685 H 0.49462 0.65561 0.47273 0.0
H2686 H 0.50172 0.67317 0.45801 0.0
H2687 H 0.49764 0.68056 0.48143 0.0
C2688 C 0.53193 0.71764 0.43898 0.0
C2689 C 0.52233 0.73062 0.44669 0.0
C2690 C 0.53636 0.70367 0.44896 0.0
C2691 C 0.53105 0.70215 0.46674 0.0
C2692 C 0.52154 0.71515 0.47453 0.0
H2693 H 0.52892 0.60959 0.5324 0.0
H2694 H 0.52544 0.63887 0.52072 0.0
C2695 C 0.51736 0.72932 0.46469 0.0
C2696 C 0.53506 0.68665 0.47686 0.0
H2697 H 0.516 0.64446 0.48969 0.0
C2698 C 0.55245 0.68719 0.48374 0.0
C2699 C 0.52179 0.67118 0.47941 0.0
C2700 C 0.50287 0.6699 0.47245 0.0
C2701 C 0.55689 0.67279 0.49326 0.0
C2702 C 0.54366 0.65685 0.49523 0.0
C2703 C 0.52626 0.6565 0.48834 0.0
C2704 C 0.5473 0.64026 0.50412 0.0
C2705 C 0.57564 0.6753 0.50154 0.0
C2706 C 0.56095 0.63121 0.49918 0.0
C2707 C 0.56339 0.61492 0.50659 0.0
C2708 C 0.55176 0.60677 0.51844 0.0
C2709 C 0.5381 0.61565 0.52335 0.0
C2710 C 0.53608 0.63235 0.51654 0.0
H2711 H 0.58214 0.6906 0.50496 0.0
H2712 H 0.57653 0.66875 0.5144 0.0
H2713 H 0.58307 0.66859 0.4912 0.0
H2714 H 0.56941 0.63628 0.48909 0.0
H2715 H 0.57383 0.60812 0.50228 0.0
H2716 H 0.63591 0.30605 0.64143 0.0
H2717 H 0.66233 0.30519 0.66157 0.0
H2718 H 0.63804 0.32311 0.70986 0.0
H2719 H 0.61156 0.32366 0.68987 0.0
H2720 H 0.68553 0.33249 0.68677 0.0
H2721 H 0.65258 0.27597 0.72386 0.0
H2722 H 0.64255 0.28147 0.70268 0.0
H2723 H 0.64217 0.29589 0.72465 0.0
C2724 C 0.63619 0.30982 0.65634 0.0
C2725 C 0.62149 0.3148 0.66399 0.0
C2726 C 0.65135 0.30934 0.66787 0.0
C2727 C 0.6522 0.31373 0.68736 0.0
C2728 C 0.63768 0.31918 0.69495 0.0
H2729 H 0.72988 0.33022 0.78281 0.0
H2730 H 0.70461 0.32869 0.76022 0.0
C2731 C 0.62252 0.31962 0.68346 0.0
C2732 C 0.66814 0.31257 0.69978 0.0
H2733 H 0.68136 0.29239 0.73694 0.0
C2734 C 0.68461 0.32356 0.69759 0.0
C2735 C 0.66714 0.30085 0.71394 0.0
C2736 C 0.65021 0.28772 0.71635 0.0
C2737 C 0.69981 0.32361 0.70949 0.0
C2738 C 0.69866 0.3123 0.72391 0.0
C2739 C 0.68229 0.3011 0.72592 0.0
C2740 C 0.71412 0.31266 0.7376 0.0
C2741 C 0.71697 0.33623 0.707 0.0
C2742 C 0.7279 0.30386 0.7326 0.0
C2743 C 0.74234 0.30438 0.7457 0.0
C2744 C 0.74347 0.31409 0.76394 0.0
C2745 C 0.7296 0.3228 0.76885 0.0
C2746 C 0.71507 0.32191 0.75593 0.0
H2747 H 0.71545 0.34558 0.69636 0.0
H2748 H 0.7228 0.34525 0.72043 0.0
H2749 H 0.72632 0.32728 0.70266 0.0
H2750 H 0.72746 0.29651 0.71858 0.0
H2751 H 0.75268 0.29741 0.74148 0.0
H2752 H 0.04944 0.33668 0.95405 0.0
H2753 H 0.05195 0.36857 0.9716 0.0
H2754 H 0.99552 0.35918 0.96813 0.0
H2755 H 0.99311 0.32691 0.95187 0.0
H2756 H 0.04144 0.3984 0.96234 0.0
H2757 H 1.00746 0.377 0.02223 0.0
H2758 H 0.01428 0.3601 1.0055 0.0
H2759 H 0.99397 0.36755 1.00071 0.0
C2760 C 0.03765 0.34141 0.95745 0.0
C2761 C 0.02109 0.32943 0.95213 0.0
C2762 C 0.03907 0.35957 0.96731 0.0
C2763 C 0.02392 0.36603 0.97155 0.0
C2764 C 1.00738 0.35418 0.96568 0.0
H2765 H 1.00338 0.47616 1.00822 0.0
H2766 H 1.00164 0.44303 0.99451 0.0
C2767 C 1.00598 0.33583 0.95637 0.0
C2768 C 0.02529 0.38531 0.9817 0.0
H2769 H 1.01058 0.40968 0.01827 0.0
C2770 C 0.03484 0.40085 0.97467 0.0
C2771 C 0.01686 0.38844 0.99792 0.0
C2772 C 1.00775 0.37236 1.00713 0.0
C2773 C 0.03566 0.4195 0.98317 0.0
C2774 C 0.0265 0.42248 0.99878 0.0
C2775 C 0.01727 0.40709 1.00603 0.0
C2776 C 0.02681 0.44163 1.00812 0.0
C2777 C 0.04612 0.43595 0.97544 0.0
C2778 C 0.04125 0.45118 0.0207 0.0
C2779 C 0.04224 0.46989 0.02862 0.0
C2780 C 0.02879 0.47922 0.02399 0.0
C2781 C 0.01386 0.46923 0.01212 0.0
C2782 C 0.0129 0.45045 1.00418 0.0
H2783 H 0.05164 0.43123 0.9625 0.0
H2784 H 0.03773 0.44609 0.97246 0.0
H2785 H 0.05709 0.44376 0.98597 0.0
H2786 H 0.05196 0.44432 0.02394 0.0
H2787 H 0.05384 0.47726 0.03783 0.0
H2788 H 0.03791 0.77934 0.17083 0.0
H2789 H 1.00997 0.76974 0.18337 0.0
H2790 H 0.98777 0.80771 0.15244 0.0
H2791 H 0.01522 0.81603 0.13878 0.0
H2792 H 0.9944 0.78785 0.20505 0.0
H2793 H 0.94765 0.76501 0.14163 0.0
H2794 H 0.971 0.76975 0.14061 0.0
H2795 H 0.95932 0.78887 0.14173 0.0
C2796 C 0.02695 0.78544 0.1666 0.0
C2797 C 0.02869 0.79845 0.1539 0.0
C2798 C 1.01096 0.77993 0.17372 0.0
C2799 C 0.99647 0.78767 0.16865 0.0
C2800 C 0.99836 0.80088 0.15608 0.0
H2801 H 0.89931 0.7993 0.21046 0.0
H2802 H 0.92524 0.80013 0.1944 0.0
C2803 C 0.01418 0.80588 0.14848 0.0
C2804 C 0.98002 0.78325 0.17778 0.0
H2805 H 0.93526 0.77378 0.16994 0.0
C2806 C 0.98149 0.78446 0.19727 0.0
C2807 C 0.96304 0.77867 0.16777 0.0
C2808 C 0.96019 0.77529 0.14678 0.0
C2809 C 0.96667 0.78216 0.20705 0.0
C2810 C 0.94976 0.77861 0.19711 0.0
C2811 C 0.94821 0.7768 0.1776 0.0
C2812 C 0.9336 0.77749 0.20674 0.0
C2813 C 0.9694 0.78427 0.22802 0.0
C2814 C 0.9294 0.76431 0.21893 0.0
C2815 C 0.91492 0.76433 0.22897 0.0
C2816 C 0.9037 0.77708 0.22659 0.0
C2817 C 0.90759 0.78961 0.2135 0.0
C2818 C 0.9224 0.78993 0.20391 0.0
H2819 H 0.98305 0.79145 0.23366 0.0
H2820 H 0.96032 0.79248 0.23446 0.0
H2821 H 0.96681 0.76995 0.2323 0.0
H2822 H 0.9375 0.75413 0.22096 0.0
H2823 H 0.913 0.75453 0.2389 0.0
H2824 H 0.50521 0.29651 0.10867 0.0
H2825 H 0.51859 0.32208 0.0925 0.0
H2826 H 0.54346 0.35503 0.14493 0.0
H2827 H 0.53034 0.3293 0.16129 0.0
H2828 H 0.51319 0.3589 0.09893 0.0
H2829 H 0.58372 0.35674 0.11146 0.0
H2830 H 0.5663 0.33731 0.1145 0.0
H2831 H 0.57232 0.35816 0.13186 0.0
C2832 C 0.51349 0.30922 0.11676 0.0
C2833 C 0.51669 0.31109 0.13619 0.0
C2834 C 0.5212 0.32368 0.10752 0.0
C2835 C 0.53217 0.34011 0.11759 0.0
C2836 C 0.53527 0.34217 0.137 0.0
H2837 H 0.57013 0.44791 0.08253 0.0
H2838 H 0.56471 0.42184 0.10103 0.0
C2839 C 0.52759 0.32766 0.1463 0.0
C2840 C 0.53919 0.35569 0.10776 0.0
H2841 H 0.57694 0.38196 0.09659 0.0
C2842 C 0.52711 0.36396 0.09838 0.0
C2843 C 0.55736 0.36205 0.10722 0.0
C2844 C 0.57071 0.35303 0.11666 0.0
C2845 C 0.53275 0.37862 0.08834 0.0
C2846 C 0.55089 0.38495 0.08774 0.0
C2847 C 0.56304 0.37687 0.09725 0.0
C2848 C 0.55725 0.39989 0.07697 0.0
C2849 C 0.51933 0.3872 0.0784 0.0
C2850 C 0.55527 0.39574 0.05754 0.0
C2851 C 0.55838 0.41044 0.04706 0.0
C2852 C 0.56342 0.42934 0.05599 0.0
C2853 C 0.56626 0.43336 0.07548 0.0
C2854 C 0.56326 0.41861 0.08597 0.0
H2855 H 0.50606 0.38276 0.0828 0.0
H2856 H 0.52319 0.40297 0.08101 0.0
H2857 H 0.51859 0.38254 0.06317 0.0
H2858 H 0.55046 0.38126 0.05054 0.0
H2859 H 0.55585 0.40713 0.03202 0.0
H2860 H 0.04636 0.29468 0.35033 0.0
H2861 H 0.01839 0.29358 0.33201 0.0
H2862 H 0.01337 0.34543 0.36563 0.0
H2863 H 0.04111 0.34641 0.38424 0.0
H2864 H 0.98264 0.2996 0.35033 0.0
H2865 H 0.01415 0.35002 0.30534 0.0
H2866 H 0.02625 0.33547 0.31714 0.0
H2867 H 0.01994 0.35525 0.3302 0.0
C2868 C 0.03912 0.30566 0.35387 0.0
C2869 C 0.04558 0.32058 0.36855 0.0
C2870 C 0.0233 0.30501 0.34351 0.0
C2871 C 0.01418 0.31946 0.34765 0.0
C2872 C 0.02043 0.33419 0.3625 0.0
H2873 H 0.92654 0.35282 0.29825 0.0
H2874 H 0.9552 0.35066 0.31257 0.0
C2875 C 0.03609 0.33468 0.37306 0.0
C2876 C 0.99839 0.31952 0.33589 0.0
H2877 H 0.98351 0.33909 0.29964 0.0
C2878 C 0.9827 0.30808 0.33914 0.0
C2879 C 0.9989 0.33085 0.32163 0.0
C2880 C 0.0157 0.3436 0.31822 0.0
C2881 C 0.96709 0.30791 0.32845 0.0
C2882 C 0.9676 0.31898 0.31387 0.0
C2883 C 0.9834 0.33036 0.31063 0.0
C2884 C 0.95159 0.32042 0.30305 0.0
C2885 C 0.95017 0.29656 0.33334 0.0
C2886 C 0.94056 0.3042 0.29255 0.0
C2887 C 0.92415 0.30539 0.28464 0.0
C2888 C 0.91909 0.3229 0.28683 0.0
C2889 C 0.93057 0.33931 0.29624 0.0
C2890 C 0.94678 0.33807 0.30441 0.0
H2891 H 0.95171 0.29243 0.34742 0.0
H2892 H 0.93966 0.30478 0.33286 0.0
H2893 H 0.94588 0.28334 0.32311 0.0
H2894 H 0.94434 0.29057 0.29121 0.0
H2895 H 0.91516 0.29263 0.27753 0.0
H2896 H 1.00395 0.73024 0.60586 0.0
H2897 H 1.01047 0.70249 0.58733 0.0
H2898 H 0.99827 0.66948 0.63141 0.0
H2899 H 0.99187 0.69736 0.65029 0.0
H2900 H 0.03699 0.68027 0.60271 0.0
H2901 H 0.96825 0.64087 0.57926 0.0
H2902 H 0.97365 0.66629 0.58662 0.0
H2903 H 0.97422 0.65058 0.60354 0.0
C2904 C 1.00226 0.71696 0.61144 0.0
C2905 C 0.99724 0.71572 0.62934 0.0
C2906 C 1.00618 0.70129 0.60097 0.0
C2907 C 1.00486 0.68425 0.60823 0.0
C2908 C 0.99932 0.68271 0.62581 0.0
H2909 H 0.01468 0.57813 0.54609 0.0
H2910 H 0.0119 0.60205 0.5719 0.0
C2911 C 0.99557 0.69848 0.63642 0.0
C2912 C 1.00932 0.66811 0.59714 0.0
H2913 H 0.99084 0.62789 0.56713 0.0
C2914 C 0.027 0.66862 0.59507 0.0
C2915 C 0.99609 0.65321 0.58737 0.0
C2916 C 0.97694 0.65259 0.58915 0.0
C2917 C 0.03184 0.65452 0.5829 0.0
C2918 C 0.01855 0.63997 0.57259 0.0
C2919 C 1.00091 0.63917 0.57519 0.0
C2920 C 0.02239 0.62588 0.55823 0.0
C2921 C 0.051 0.65538 0.581 0.0
C2922 C 0.0291 0.63157 0.54213 0.0
C2923 C 0.03081 0.61791 0.5275 0.0
C2924 C 0.02572 0.59863 0.52896 0.0
C2925 C 0.01904 0.59298 0.54501 0.0
C2926 C 0.01742 0.60656 0.55966 0.0
H2927 H 0.05951 0.66437 0.59317 0.0
H2928 H 0.05387 0.64091 0.57949 0.0
H2929 H 0.05443 0.66164 0.56836 0.0
H2930 H 0.03253 0.64648 0.54071 0.0
H2931 H 0.03598 0.62234 0.51507 0.0
H2932 H 0.61498 0.79962 0.84424 0.0
H2933 H 0.63693 0.79252 0.82452 0.0
H2934 H 0.67641 0.83564 0.85971 0.0
H2935 H 0.65434 0.84237 0.88028 0.0
H2936 H 0.65749 0.81378 0.8046 0.0
H2937 H 0.69681 0.7888 0.85953 0.0
H2938 H 0.67553 0.79385 0.86268 0.0
H2939 H 0.69452 0.81295 0.8651 0.0
C2940 C 0.62834 0.80763 0.84784 0.0
C2941 C 0.63315 0.82137 0.86386 0.0
C2942 C 0.6408 0.80358 0.83652 0.0
C2943 C 0.65819 0.81336 0.84092 0.0
C2944 C 0.66302 0.82768 0.85648 0.0
H2945 H 0.74721 0.81766 0.78685 0.0
H2946 H 0.72179 0.82205 0.80226 0.0
C2947 C 0.65051 0.83153 0.86811 0.0
C2948 C 0.67118 0.80786 0.82932 0.0
H2949 H 0.70799 0.7898 0.83029 0.0
C2950 C 0.66848 0.80842 0.81016 0.0
C2951 C 0.68521 0.80058 0.83675 0.0
C2952 C 0.68813 0.79882 0.85711 0.0
C2953 C 0.67986 0.80227 0.7982 0.0
C2954 C 0.69412 0.79563 0.80575 0.0
C2955 C 0.6967 0.79471 0.82477 0.0
C2956 C 0.70813 0.79269 0.79473 0.0
C2957 C 0.67703 0.80335 0.77769 0.0
C2958 C 0.70837 0.77467 0.78534 0.0
C2959 C 0.72295 0.77201 0.77647 0.0
C2960 C 0.73714 0.78743 0.77705 0.0
C2961 C 0.73636 0.80557 0.78594 0.0
C2962 C 0.72195 0.80813 0.79482 0.0
H2963 H 0.6646 0.80773 0.77382 0.0
H2964 H 0.68809 0.81373 0.77384 0.0
H2965 H 0.67686 0.78928 0.76946 0.0
H2966 H 0.69759 0.76271 0.78535 0.0
H2967 H 0.72335 0.75791 0.7697 0.0
H2968 H 0.48617 0.56916 0.73461 0.0
H2969 H 0.50224 0.56844 0.70685 0.0
H2970 H 0.45421 0.56439 0.67211 0.0
H2971 H 0.4382 0.56487 0.6997 0.0
H2972 H 0.50217 0.54333 0.67506 0.0
H2973 H 0.48425 0.60615 0.6505 0.0
H2974 H 0.48093 0.6006 0.67351 0.0
H2975 H 0.46531 0.58895 0.65389 0.0
C2976 C 0.47891 0.56818 0.72111 0.0
C2977 C 0.46054 0.56713 0.71998 0.0
C2978 C 0.48826 0.56772 0.70493 0.0
C2979 C 0.47992 0.56664 0.68663 0.0
C2980 C 0.46157 0.56564 0.68559 0.0
H2981 H 0.512 0.55754 0.56847 0.0
H2982 H 0.49582 0.55873 0.59636 0.0
C2983 C 0.4522 0.56578 0.70168 0.0
C2984 C 0.49005 0.56618 0.66886 0.0
H2985 H 0.49668 0.5866 0.6288 0.0
C2986 C 0.50087 0.55294 0.6651 0.0
C2987 C 0.48909 0.5786 0.65528 0.0
C2988 C 0.47945 0.59453 0.65852 0.0
C2989 C 0.50981 0.55138 0.64863 0.0
C2990 C 0.50845 0.56345 0.63477 0.0
C2991 C 0.49783 0.57688 0.63867 0.0
C2992 C 0.51839 0.56277 0.61687 0.0
C2993 C 0.52041 0.53624 0.64603 0.0
C2994 C 0.5368 0.56484 0.61807 0.0
C2995 C 0.5461 0.56438 0.60203 0.0
C2996 C 0.53777 0.56161 0.58349 0.0
C2997 C 0.51928 0.55949 0.5821 0.0
C2998 C 0.5099 0.56028 0.59835 0.0
H2999 H 0.51629 0.52479 0.65446 0.0
H3000 H 0.51921 0.52975 0.63118 0.0
H3001 H 0.53442 0.54274 0.6506 0.0
H3002 H 0.54426 0.5672 0.63164 0.0
H3003 H 0.56021 0.56627 0.6043 0.0
H3004 H 0.75003 0.15087 0.98103 0.0
H3005 H 0.738 0.16746 0.95763 0.0
H3006 H 0.78648 0.20951 0.96503 0.0
H3007 H 0.79847 0.19325 0.9888 0.0
H3008 H 0.74153 0.21268 0.97151 0.0
H3009 H 0.76766 0.18861 0.90557 0.0
H3010 H 0.76351 0.17356 0.92331 0.0
H3011 H 0.78199 0.19322 0.92703 0.0
C3012 C 0.75829 0.16325 0.9771 0.0
C3013 C 0.77512 0.17091 0.98631 0.0
C3014 C 0.7514 0.17267 0.96396 0.0
C3015 C 0.76153 0.1894 0.95987 0.0
C3016 C 0.77873 0.19642 0.96819 0.0
H3017 H 0.76828 0.28256 0.91114 0.0
H3018 H 0.76543 0.26073 0.93406 0.0
C3019 C 0.78551 0.18721 0.98157 0.0
C3020 C 0.75362 0.20083 0.94849 0.0
H3021 H 0.75497 0.21576 0.90653 0.0
C3022 C 0.74397 0.21312 0.95713 0.0
C3023 C 0.7573 0.20121 0.93001 0.0
C3024 C 0.76813 0.18841 0.92081 0.0
C3025 C 0.73857 0.22679 0.94773 0.0
C3026 C 0.74273 0.22754 0.92947 0.0
C3027 C 0.75159 0.2146 0.92053 0.0
C3028 C 0.74081 0.24346 0.92026 0.0
C3029 C 0.72947 0.24106 0.95751 0.0
C3030 C 0.72754 0.24092 0.90559 0.0
C3031 C 0.72913 0.25332 0.89264 0.0
C3032 C 0.7441 0.26791 0.89442 0.0
C3033 C 0.75667 0.27127 0.90986 0.0
C3034 C 0.75496 0.25907 0.92291 0.0
H3035 H 0.72565 0.23737 0.97113 0.0
H3036 H 0.73836 0.25534 0.95993 0.0
H3037 H 0.7176 0.242 0.94857 0.0
H3038 H 0.71683 0.22856 0.90338 0.0
H3039 H 0.71947 0.25068 0.88056 0.0
H3040 H 0.15182 0.58122 0.21024 0.0
H3041 H 0.13055 0.58064 0.18346 0.0
H3042 H 0.12365 0.51951 0.17128 0.0
H3043 H 0.14427 0.52005 0.19857 0.0
H3044 H 0.13189 0.56571 0.14608 0.0
H3045 H 0.07395 0.52841 0.17583 0.0
H3046 H 0.0942 0.54019 0.18991 0.0
H3047 H 0.09221 0.51695 0.17674 0.0
C3048 C 0.14598 0.56781 0.20145 0.0
C3049 C 0.14957 0.55068 0.20575 0.0
C3050 C 0.13383 0.56747 0.1865 0.0
C3051 C 0.12555 0.55001 0.17593 0.0
C3052 C 0.12979 0.53298 0.17977 0.0
H3053 H 0.05102 0.50826 0.0811 0.0
H3054 H 0.07343 0.51238 0.10781 0.0
C3055 C 0.14163 0.53329 0.19496 0.0
C3056 C 0.11267 0.54947 0.16051 0.0
H3057 H 0.07053 0.5298 0.14338 0.0
C3058 C 0.11841 0.55804 0.14542 0.0
C3059 C 0.09525 0.5395 0.16016 0.0
C3060 C 0.08847 0.53089 0.17661 0.0
C3061 C 0.10714 0.5561 0.12926 0.0
C3062 C 0.08985 0.54559 0.12869 0.0
C3063 C 0.08398 0.53755 0.14403 0.0
C3064 C 0.07733 0.54314 0.11247 0.0
C3065 C 0.11393 0.56481 0.11287 0.0
C3066 C 0.07232 0.55912 0.10687 0.0
C3067 C 0.0599 0.55678 0.09177 0.0
C3068 C 0.05212 0.53845 0.08273 0.0
C3069 C 0.05679 0.5224 0.08847 0.0
C3070 C 0.06957 0.52476 0.10337 0.0
H3071 H 0.12848 0.56795 0.11398 0.0
H3072 H 0.10871 0.55527 0.09957 0.0
H3073 H 0.10964 0.57843 0.11244 0.0
H3074 H 0.07796 0.5733 0.1142 0.0
H3075 H 0.05634 0.56923 0.08712 0.0
H3076 H 0.78828 0.88322 0.47616 0.0
H3077 H 0.78793 0.86726 0.44445 0.0
H3078 H 0.82291 0.83351 0.46437 0.0
H3079 H 0.82291 0.8491 0.49632 0.0
H3080 H 0.81601 0.86918 0.42567 0.0
H3081 H 0.78692 0.79375 0.42936 0.0
H3082 H 0.78539 0.81304 0.44708 0.0
H3083 H 0.80506 0.80385 0.44683 0.0
C3084 C 0.7957 0.8722 0.47383 0.0
C3085 C 0.80572 0.86744 0.48865 0.0
C3086 C 0.79547 0.86309 0.45571 0.0
C3087 C 0.8053 0.84912 0.45209 0.0
C3088 C 0.81495 0.84397 0.46693 0.0
H3089 H 0.83342 0.80209 0.34393 0.0
H3090 H 0.83454 0.81287 0.37762 0.0
C3091 C 0.81503 0.85296 0.48514 0.0
C3092 C 0.80663 0.84124 0.43263 0.0
H3093 H 0.80023 0.79996 0.40199 0.0
C3094 C 0.81261 0.85404 0.42053 0.0
C3095 C 0.802 0.8215 0.42592 0.0
C3096 C 0.79431 0.80724 0.4379 0.0
C3097 C 0.81415 0.8476 0.40191 0.0
C3098 C 0.80986 0.8279 0.39536 0.0
C3099 C 0.80394 0.81504 0.40736 0.0
C3100 C 0.80933 0.82073 0.37549 0.0
C3101 C 0.8199 0.86186 0.38916 0.0
C3102 C 0.7948 0.82162 0.36351 0.0
C3103 C 0.79411 0.81557 0.34455 0.0
C3104 C 0.80799 0.80851 0.33716 0.0
C3105 C 0.8226 0.80755 0.34923 0.0
C3106 C 0.82322 0.81358 0.36839 0.0
H3107 H 0.825 0.87643 0.39692 0.0
H3108 H 0.83019 0.85756 0.38098 0.0
H3109 H 0.80856 0.86223 0.37915 0.0
H3110 H 0.78402 0.82716 0.36884 0.0
H3111 H 0.78268 0.81664 0.33568 0.0
H3112 H 0.4513 0.53414 0.81871 0.0
H3113 H 0.46769 0.52968 0.84734 0.0
H3114 H 0.48938 0.58985 0.85918 0.0
H3115 H 0.47338 0.5943 0.83004 0.0
H3116 H 0.50505 0.53866 0.86028 0.0
H3117 H 0.46851 0.57757 0.90835 0.0
H3118 H 0.4606 0.56961 0.88407 0.0
H3119 H 0.47778 0.59047 0.89082 0.0
C3120 C 0.45958 0.54651 0.82731 0.0
C3121 C 0.46081 0.56463 0.82172 0.0
C3122 C 0.46908 0.5439 0.84384 0.0
C3123 C 0.47988 0.55935 0.85596 0.0
C3124 C 0.48115 0.57754 0.85045 0.0
H3125 H 0.53802 0.57198 0.96836 0.0
H3126 H 0.52447 0.57633 0.93823 0.0
C3127 C 0.47198 0.5801 0.83358 0.0
C3128 C 0.48957 0.55633 0.87417 0.0
H3129 H 0.49239 0.56705 0.92197 0.0
C3130 C 0.5022 0.54489 0.87373 0.0
C3131 C 0.48617 0.56428 0.89207 0.0
C3132 C 0.47244 0.57605 0.89402 0.0
C3133 C 0.51155 0.54164 0.89023 0.0
C3134 C 0.50804 0.5495 0.90818 0.0
C3135 C 0.49537 0.56089 0.90855 0.0
C3136 C 0.51734 0.54645 0.92662 0.0
C3137 C 0.52561 0.53028 0.88813 0.0
C3138 C 0.51827 0.52817 0.93087 0.0
C3139 C 0.52623 0.52563 0.94834 0.0
C3140 C 0.53349 0.54125 0.96244 0.0
C3141 C 0.53267 0.55948 0.95812 0.0
C3142 C 0.52478 0.56201 0.94069 0.0
H3143 H 0.5304 0.53028 0.8742 0.0
H3144 H 0.53693 0.536 0.89893 0.0
H3145 H 0.52013 0.51531 0.88963 0.0
H3146 H 0.5124 0.51567 0.92085 0.0
H3147 H 0.52633 0.5113 0.95091 0.0
H3148 H 0.81007 0.20895 0.07668 0.0
H3149 H 0.81049 0.23105 0.10518 0.0
H3150 H 0.7707 0.1897 0.12399 0.0
H3151 H 0.77081 0.16721 0.09583 0.0
H3152 H 0.78341 0.24596 0.11888 0.0
H3153 H 0.80973 0.202 0.16666 0.0
H3154 H 0.80946 0.19697 0.14172 0.0
H3155 H 0.78971 0.19048 0.15243 0.0
C3156 C 0.80162 0.20456 0.08707 0.0
C3157 C 0.79072 0.18642 0.08453 0.0
C3158 C 0.80176 0.21716 0.10314 0.0
C3159 C 0.7908 0.21176 0.11659 0.0
C3160 C 0.77953 0.1938 0.11384 0.0
H3161 H 0.78716 0.26316 0.22719 0.0
H3162 H 0.78087 0.24383 0.19695 0.0
C3163 C 0.77966 0.18103 0.09792 0.0
C3164 C 0.7916 0.22491 0.13372 0.0
H3165 H 0.80328 0.23062 0.18025 0.0
C3166 C 0.78762 0.24268 0.13239 0.0
C3167 C 0.7972 0.22036 0.15109 0.0
C3168 C 0.80191 0.20148 0.15312 0.0
C3169 C 0.78886 0.25616 0.14825 0.0
C3170 C 0.79466 0.25172 0.16566 0.0
C3171 C 0.79874 0.23391 0.16686 0.0
C3172 C 0.79621 0.26494 0.18305 0.0
C3173 C 0.78364 0.27476 0.14617 0.0
C3174 C 0.80646 0.28347 0.18519 0.0
C3175 C 0.80871 0.29524 0.20232 0.0
C3176 C 0.80148 0.28817 0.2176 0.0
C3177 C 0.79177 0.26946 0.21548 0.0
C3178 C 0.78861 0.25819 0.19824 0.0
H3179 H 0.7746 0.27346 0.1333 0.0
H3180 H 0.7772 0.27986 0.15828 0.0
H3181 H 0.79554 0.28564 0.14514 0.0
H3182 H 0.81313 0.28863 0.17385 0.0
H3183 H 0.81682 0.30942 0.20384 0.0
H3184 H 0.16454 0.5502 0.32175 0.0
H3185 H 0.15408 0.56371 0.35041 0.0
H3186 H 0.12658 0.59713 0.31872 0.0
H3187 H 0.1363 0.58326 0.29022 0.0
H3188 H 0.15687 0.60455 0.36614 0.0
H3189 H 0.08917 0.56257 0.34359 0.0
H3190 H 0.10813 0.55659 0.33377 0.0
H3191 H 0.09892 0.5755 0.32638 0.0
C3192 C 0.15605 0.56022 0.32104 0.0
C3193 C 0.1506 0.5653 0.30398 0.0
C3194 C 0.15036 0.56805 0.33727 0.0
C3195 C 0.13955 0.58115 0.33633 0.0
C3196 C 0.13474 0.58677 0.31941 0.0
H3197 H 0.06822 0.61659 0.40525 0.0
H3198 H 0.09018 0.62207 0.38357 0.0
C3199 C 0.14006 0.57868 0.30323 0.0
C3200 C 0.132 0.58807 0.35268 0.0
H3201 H 0.09277 0.58712 0.36923 0.0
C3202 C 0.14287 0.60085 0.36698 0.0
C3203 C 0.1138 0.58293 0.35341 0.0
C3204 C 0.10182 0.56851 0.33856 0.0
C3205 C 0.13577 0.60919 0.38212 0.0
C3206 C 0.11749 0.6044 0.38269 0.0
C3207 C 0.10674 0.5913 0.3684 0.0
C3208 C 0.10914 0.61035 0.39902 0.0
C3209 C 0.14784 0.62294 0.39727 0.0
C3210 C 0.11339 0.60368 0.4156 0.0
C3211 C 0.10102 0.60091 0.42808 0.0
C3212 C 0.08437 0.6045 0.42377 0.0
C3213 C 0.08113 0.61394 0.40877 0.0
C3214 C 0.09362 0.61701 0.39642 0.0
H3215 H 0.15958 0.63051 0.39167 0.0
H3216 H 0.14113 0.63359 0.4042 0.0
H3217 H 0.15245 0.61488 0.40789 0.0
H3218 H 0.12513 0.59814 0.4177 0.0
H3219 H 0.10356 0.59354 0.43967 0.0
H3220 H 0.78848 0.84345 0.57047 0.0
H3221 H 0.783 0.82651 0.59707 0.0
H3222 H 0.8101 0.87686 0.63443 0.0
H3223 H 0.81482 0.89403 0.608 0.0
H3224 H 0.80236 0.81616 0.62257 0.0
H3225 H 0.76738 0.86595 0.65957 0.0
H3226 H 0.77264 0.86746 0.63614 0.0
H3227 H 0.78868 0.87823 0.65576 0.0
C3228 C 0.79315 0.85096 0.58438 0.0
C3229 C 0.80195 0.87021 0.58708 0.0
C3230 C 0.79003 0.84122 0.59963 0.0
C3231 C 0.7957 0.85044 0.61799 0.0
C3232 C 0.80495 0.8695 0.62059 0.0
H3233 H 0.80431 0.81584 0.7276 0.0
H3234 H 0.80758 0.83116 0.6997 0.0
C3235 C 0.80782 0.87931 0.60539 0.0
C3236 C 0.79231 0.84013 0.63436 0.0
H3237 H 0.77787 0.84438 0.67757 0.0
C3238 C 0.79685 0.82232 0.63448 0.0
C3239 C 0.78485 0.84782 0.64997 0.0
C3240 C 0.77792 0.8658 0.65028 0.0
C3241 C 0.79477 0.8125 0.6499 0.0
C3242 C 0.78812 0.8207 0.66576 0.0
C3243 C 0.78326 0.83824 0.66555 0.0
C3244 C 0.78604 0.8113 0.68272 0.0
C3245 C 0.79994 0.79353 0.64931 0.0
C3246 C 0.77268 0.79518 0.68262 0.0
C3247 C 0.77033 0.78685 0.69881 0.0
C3248 C 0.78148 0.79425 0.71541 0.0
C3249 C 0.79513 0.8101 0.71532 0.0
C3250 C 0.79716 0.81875 0.69927 0.0
H3251 H 0.80733 0.79042 0.6373 0.0
H3252 H 0.80807 0.79309 0.66238 0.0
H3253 H 0.78795 0.78213 0.64811 0.0
H3254 H 0.76392 0.78916 0.67005 0.0
H3255 H 0.75987 0.77446 0.69825 0.0
H3256 H 0.74465 0.43521 0.50389 0.0
H3257 H 0.72286 0.45087 0.51782 0.0
H3258 H 0.76428 0.49205 0.55256 0.0
H3259 H 0.78606 0.47714 0.53788 0.0
H3260 H 0.71651 0.45641 0.55392 0.0
H3261 H 0.73747 0.52578 0.5288 0.0
H3262 H 0.74568 0.50507 0.5205 0.0
H3263 H 0.75404 0.51869 0.54301 0.0
C3264 C 0.749 0.44789 0.51415 0.0
C3265 C 0.76683 0.45544 0.51946 0.0
C3266 C 0.73665 0.45664 0.52223 0.0
C3267 C 0.7421 0.47271 0.53595 0.0
C3268 C 0.75994 0.47999 0.54159 0.0
H3269 H 0.67434 0.54552 0.5761 0.0
H3270 H 0.69898 0.52987 0.57652 0.0
C3271 C 0.7723 0.47156 0.53315 0.0
C3272 C 0.72894 0.48194 0.54405 0.0
H3273 H 0.7134 0.52251 0.54605 0.0
C3274 C 0.71586 0.47093 0.55242 0.0
C3275 C 0.72842 0.50093 0.54218 0.0
C3276 C 0.74206 0.51328 0.53302 0.0
C3277 C 0.70172 0.47822 0.55833 0.0
C3278 C 0.70071 0.49685 0.55556 0.0
C3279 C 0.7143 0.50819 0.54814 0.0
C3280 C 0.68497 0.50436 0.55843 0.0
C3281 C 0.68789 0.46578 0.56712 0.0
C3282 C 0.66887 0.49489 0.54845 0.0
C3283 C 0.65458 0.50355 0.54859 0.0
C3284 C 0.65637 0.52202 0.55829 0.0
C3285 C 0.67239 0.53114 0.56879 0.0
C3286 C 0.68654 0.52231 0.56895 0.0
H3287 H 0.69352 0.45545 0.57435 0.0
H3288 H 0.68162 0.47434 0.57724 0.0
H3289 H 0.67763 0.45748 0.55605 0.0
H3290 H 0.66757 0.48124 0.53982 0.0
H3291 H 0.64235 0.49608 0.54057 0.0
H3292 H 0.22525 0.1809 0.52126 0.0
H3293 H 0.19655 0.16076 0.52315 0.0
H3294 H 0.21213 0.1132 0.49212 0.0
H3295 H 0.24109 0.13312 0.49089 0.0
H3296 H 0.17022 0.14226 0.49873 0.0
H3297 H 0.19453 0.08839 0.53427 0.0
H3298 H 0.20858 0.11055 0.53156 0.0
H3299 H 0.20378 0.09079 0.51281 0.0
C3300 C 0.22257 0.16613 0.51483 0.0
C3301 C 0.23557 0.15865 0.50597 0.0
C3302 C 0.20609 0.15458 0.51593 0.0
C3303 C 0.20205 0.13519 0.50815 0.0
C3304 C 0.21491 0.12786 0.49882 0.0
H3305 H 0.1078 0.04483 0.48695 0.0
H3306 H 0.13658 0.06594 0.48773 0.0
C3307 C 0.23148 0.13935 0.49794 0.0
C3308 C 0.18441 0.12279 0.50953 0.0
H3309 H 0.16445 0.08009 0.52137 0.0
C3310 C 0.16904 0.12876 0.50384 0.0
C3311 C 0.18257 0.10515 0.5164 0.0
C3312 C 0.19823 0.09843 0.5243 0.0
C3313 C 0.15217 0.11744 0.50425 0.0
C3314 C 0.1504 0.09956 0.51048 0.0
C3315 C 0.1657 0.09368 0.51643 0.0
C3316 C 0.13281 0.08658 0.51043 0.0
C3317 C 0.13626 0.12445 0.49758 0.0
C3318 C 0.121 0.09087 0.5231 0.0
C3319 C 0.10455 0.07859 0.52289 0.0
C3320 C 0.09934 0.06187 0.50977 0.0
C3321 C 0.11122 0.05763 0.49714 0.0
C3322 C 0.12776 0.0697 0.49759 0.0
H3323 H 0.13977 0.13738 0.4909 0.0
H3324 H 0.12728 0.11316 0.48749 0.0
H3325 H 0.12903 0.12792 0.50961 0.0
H3326 H 0.12457 0.10369 0.53327 0.0
H3327 H 0.09588 0.08225 0.53294 0.0
H3328 H 0.22063 0.99188 0.77643 0.0
H3329 H 0.23642 0.96583 0.77294 0.0
H3330 H 0.18834 0.92559 0.77468 0.0
H3331 H 0.17251 0.95154 0.77719 0.0
H3332 H 0.24691 0.94254 0.78967 0.0
H3333 H 0.20143 0.89199 0.73589 0.0
H3334 H 0.19857 0.91589 0.74235 0.0
H3335 H 0.19052 0.89751 0.75588 0.0
C3336 C 0.21325 0.97748 0.7759 0.0
C3337 C 0.19491 0.97442 0.7771 0.0
C3338 C 0.22248 0.96223 0.77391 0.0
C3339 C 0.21408 0.94277 0.77301 0.0
C3340 C 0.19573 0.9398 0.77447 0.0
H3341 H 0.24976 0.83063 0.76973 0.0
H3342 H 0.23364 0.85652 0.77076 0.0
C3343 C 0.18646 0.95504 0.77623 0.0
C3344 C 0.22456 0.92621 0.77138 0.0
H3345 H 0.22316 0.87949 0.75166 0.0
C3346 C 0.24153 0.92888 0.78114 0.0
C3347 C 0.21839 0.90776 0.76037 0.0
C3348 C 0.20133 0.90315 0.74787 0.0
C3349 C 0.25173 0.91439 0.7808 0.0
C3350 C 0.24542 0.89583 0.77007 0.0
C3351 C 0.22851 0.89317 0.76017 0.0
C3352 C 0.25581 0.87923 0.76903 0.0
C3353 C 0.2691 0.91926 0.79275 0.0
C3354 C 0.27406 0.88206 0.76718 0.0
C3355 C 0.28349 0.86702 0.76685 0.0
C3356 C 0.27531 0.84791 0.76785 0.0
C3357 C 0.25697 0.84485 0.76901 0.0
C3358 C 0.24756 0.85998 0.76957 0.0
H3359 H 0.26949 0.93092 0.80441 0.0
H3360 H 0.27195 0.90677 0.79871 0.0
H3361 H 0.27963 0.9243 0.78416 0.0
H3362 H 0.28127 0.89603 0.76575 0.0
H3363 H 0.29741 0.87049 0.76568 0.0
H3364 H 0.35179 0.96896 0.99163 0.0
H3365 H 0.38148 0.98822 0.99776 0.0
H3366 H 0.39431 0.95412 0.03894 0.0
H3367 H 0.36447 0.93444 0.03271 0.0
H3368 H 0.39554 1.00444 0.04263 0.0
H3369 H 0.43284 0.96409 0.99584 0.0
H3370 H 0.40973 0.96165 0.98924 0.0
H3371 H 0.41687 0.95249 0.0095 0.0
C3372 C 0.36105 0.96538 1.00171 0.0
C3373 C 0.35611 0.9505 0.01182 0.0
C3374 C 0.37782 0.97632 1.00522 0.0
C3375 C 0.38955 0.97247 0.01893 0.0
C3376 C 0.38507 0.95705 0.02842 0.0
H3377 H 0.48882 0.03398 0.04297 0.0
H3378 H 0.45917 0.0273 0.05005 0.0
C3379 C 0.36825 0.94589 0.02475 0.0
C3380 C 0.40617 0.98556 0.0235 0.0
H3381 H 0.44411 0.99701 1.00468 0.0
C3382 C 0.40647 1.00287 0.03477 0.0
C3383 C 0.41998 0.98301 0.01304 0.0
C3384 C 0.42001 0.96429 1.00125 0.0
C3385 C 0.4201 0.01846 0.0348 0.0
C3386 C 0.43312 0.01631 0.02309 0.0
C3387 C 0.43338 0.99859 0.01287 0.0
C3388 C 0.44829 0.03118 0.02298 0.0
C3389 C 0.42037 0.03718 0.0467 0.0
C3390 C 0.4518 0.037 1.00585 0.0
C3391 C 0.46896 0.04068 1.00153 0.0
C3392 C 0.48236 0.03864 0.01451 0.0
C3393 C 0.47875 0.03532 0.03251 0.0
C3394 C 0.4618 0.03206 0.03687 0.0
H3395 H 0.40831 0.0369 0.05377 0.0
H3396 H 0.43187 0.0406 0.05746 0.0
H3397 H 0.42184 0.04874 0.03802 0.0
H3398 H 0.44122 0.03619 0.99504 0.0
H3399 H 0.47156 0.04393 0.98782 0.0
H3400 H 0.8828 0.55386 0.77752 0.0
H3401 H 0.86494 0.57133 0.76094 0.0
H3402 H 0.90236 0.62374 0.7819 0.0
H3403 H 0.92103 0.60598 0.7978 0.0
H3404 H 0.84985 0.59767 0.77628 0.0
H3405 H 0.89451 0.62751 0.72745 0.0
H3406 H 0.89829 0.60841 0.73973 0.0
H3407 H 0.90453 0.63274 0.75106 0.0
C3408 C 0.8872 0.56915 0.77871 0.0
C3409 C 0.90307 0.57883 0.78913 0.0
C3410 C 0.87709 0.57899 0.76906 0.0
C3411 C 0.88259 0.59863 0.77 0.0
C3412 C 0.89829 0.60843 0.78065 0.0
H3413 H 0.84435 0.69409 0.75774 0.0
H3414 H 0.86097 0.66932 0.75999 0.0
C3415 C 0.90872 0.59845 0.78995 0.0
C3416 C 0.87106 0.60902 0.76116 0.0
H3417 H 0.8705 0.6429 0.73336 0.0
C3418 C 0.85416 0.60731 0.76659 0.0
C3419 C 0.87684 0.62121 0.74837 0.0
C3420 C 0.89448 0.62243 0.74116 0.0
C3421 C 0.8432 0.6187 0.76063 0.0
C3422 C 0.84947 0.63189 0.74885 0.0
C3423 C 0.86594 0.63273 0.74248 0.0
C3424 C 0.84018 0.64667 0.74519 0.0
C3425 C 0.82555 0.61737 0.76794 0.0
C3426 C 0.8233 0.64193 0.73577 0.0
C3427 C 0.8136 0.65587 0.73501 0.0
C3428 C 0.82092 0.67473 0.74326 0.0
C3429 C 0.83831 0.67959 0.75159 0.0
C3430 C 0.84786 0.66557 0.75268 0.0
H3431 H 0.82413 0.60864 0.77937 0.0
H3432 H 0.82346 0.63173 0.77316 0.0
H3433 H 0.81506 0.61063 0.75649 0.0
H3434 H 0.81739 0.62736 0.72976 0.0
H3435 H 0.80014 0.65169 0.72871 0.0
H3436 H 0.84398 0.67636 0.99621 0.0
H3437 H 0.86906 0.66278 1.00558 0.0
H3438 H 0.84636 0.65022 0.05567 0.0
H3439 H 0.82079 0.66234 0.04559 0.0
H3440 H 0.89378 0.67004 0.03319 0.0
H3441 H 0.853 0.59912 0.03758 0.0
H3442 H 0.84386 0.6173 0.02839 0.0
H3443 H 0.84787 0.61793 0.05319 0.0
C3444 C 0.84432 0.67047 0.00909 0.0
C3445 C 0.83023 0.66981 0.01988 0.0
C3446 C 0.85868 0.66282 0.01452 0.0
C3447 C 0.85939 0.65482 0.03106 0.0
C3448 C 0.84581 0.65541 0.04243 0.0
H3449 H 0.94119 0.59844 0.07412 0.0
H3450 H 0.91788 0.61653 0.07337 0.0
C3451 C 0.83123 0.66244 0.03671 0.0
C3452 C 0.8741 0.64552 0.03612 0.0
H3453 H 0.88333 0.60363 0.04636 0.0
C3454 C 0.89143 0.65554 0.03609 0.0
C3455 C 0.87116 0.62658 0.04012 0.0
C3456 C 0.85298 0.61455 0.03967 0.0
C3457 C 0.90575 0.64703 0.03947 0.0
C3458 C 0.90271 0.62805 0.04296 0.0
C3459 C 0.88554 0.61824 0.04374 0.0
C3460 C 0.91701 0.61751 0.04381 0.0
C3461 C 0.9241 0.65821 0.03905 0.0
C3462 C 0.92399 0.6119 0.02741 0.0
C3463 C 0.93705 0.60138 0.02771 0.0
C3464 C 0.94356 0.59631 0.04447 0.0
C3465 C 0.93648 0.60198 0.06095 0.0
C3466 C 0.92323 0.61241 0.06058 0.0
H3467 H 0.92454 0.67365 0.03948 0.0
H3468 H 0.93291 0.65618 0.05098 0.0
H3469 H 0.92923 0.65293 0.02606 0.0
H3470 H 0.91911 0.61543 0.01428 0.0
H3471 H 0.94173 0.59683 0.01465 0.0
H3472 H 0.21599 0.0811 0.80657 0.0
H3473 H 0.23225 0.11379 0.80648 0.0
H3474 H 0.19689 0.11857 0.75981 0.0
H3475 H 0.18015 0.08651 0.7607 0.0
H3476 H 0.25151 0.13274 0.78706 0.0
H3477 H 0.19554 0.16814 0.78512 0.0
H3478 H 0.19295 0.1437 0.7886 0.0
H3479 H 0.19327 0.14993 0.76544 0.0
C3480 C 0.2115 0.08916 0.79639 0.0
C3481 C 0.19639 0.08076 0.78379 0.0
C3482 C 0.22095 0.10812 0.79628 0.0
C3483 C 0.21592 0.11973 0.78348 0.0
C3484 C 0.20106 0.111 0.77055 0.0
H3485 H 0.26255 0.23777 0.75955 0.0
H3486 H 0.24479 0.20537 0.75883 0.0
C3487 C 0.19144 0.09222 0.77089 0.0
C3488 C 0.22644 0.14035 0.78335 0.0
H3489 H 0.2227 0.18646 0.77929 0.0
C3490 C 0.245 0.14437 0.78551 0.0
C3491 C 0.2186 0.15627 0.78123 0.0
C3492 C 0.19902 0.15437 0.78016 0.0
C3493 C 0.25552 0.16289 0.7853 0.0
C3494 C 0.24769 0.17878 0.78317 0.0
C3495 C 0.22915 0.17478 0.78087 0.0
C3496 C 0.25843 0.19939 0.78369 0.0
C3497 C 0.27513 0.16495 0.78679 0.0
C3498 C 0.27207 0.20795 0.79803 0.0
C3499 C 0.28232 0.22655 0.79838 0.0
C3500 C 0.27944 0.23796 0.7846 0.0
C3501 C 0.26544 0.22977 0.77049 0.0
C3502 C 0.25517 0.21098 0.77009 0.0
H3503 H 0.27878 0.15124 0.78197 0.0
H3504 H 0.28132 0.17571 0.7785 0.0
H3505 H 0.28061 0.16945 0.8016 0.0
H3506 H 0.27487 0.20027 0.80925 0.0
H3507 H 0.2927 0.23203 0.80966 0.0
H3508 H 0.42835 0.97007 0.30399 0.0
H3509 H 0.40953 0.93844 0.30184 0.0
H3510 H 0.37587 0.95093 0.25739 0.0
H3511 H 0.39433 0.98242 0.2598 0.0
H3512 H 0.37866 0.9511 0.3112 0.0
H3513 H 0.36339 0.89258 0.25125 0.0
H3514 H 0.38466 0.90856 0.25653 0.0
H3515 H 0.36673 0.9158 0.2445 0.0
C3516 C 0.41753 0.96549 0.29303 0.0
C3517 C 0.41224 0.97845 0.28241 0.0
C3518 C 0.40696 0.94742 0.29165 0.0
C3519 C 0.39129 0.94263 0.27965 0.0
C3520 C 0.38799 0.95437 0.26663 0.0
H3521 H 0.29135 0.87578 0.27571 0.0
H3522 H 0.31072 0.90636 0.27456 0.0
C3523 C 0.39833 0.97247 0.26822 0.0
C3524 C 0.37591 0.93123 0.28572 0.0
H3525 H 0.3401 0.89655 0.26972 0.0
C3526 C 0.3703 0.9389 0.30234 0.0
C3527 C 0.36491 0.916 0.27371 0.0
C3528 C 0.37029 0.90767 0.25556 0.0
C3529 C 0.35362 0.93202 0.30705 0.0
C3530 C 0.34259 0.91671 0.29508 0.0
C3531 C 0.34839 0.90875 0.27864 0.0
C3532 C 0.32628 0.90647 0.30055 0.0
C3533 C 0.34795 0.94147 0.32458 0.0
C3534 C 0.32735 0.89811 0.31674 0.0
C3535 C 0.31594 0.8812 0.31771 0.0
C3536 C 0.30408 0.87246 0.30216 0.0
C3537 C 0.30089 0.88236 0.28754 0.0
C3538 C 0.31182 0.89978 0.28698 0.0
H3539 H 0.35372 0.95698 0.32709 0.0
H3540 H 0.33348 0.93937 0.32399 0.0
H3541 H 0.35286 0.93543 0.33667 0.0
H3542 H 0.33848 0.90284 0.32729 0.0
H3543 H 0.3183 0.87369 0.32924 0.0
H3544 H 0.54604 0.34756 0.58773 0.0
H3545 H 0.54265 0.37621 0.57451 0.0
H3546 H 0.59286 0.40614 0.60295 0.0
H3547 H 0.59616 0.37768 0.61651 0.0
H3548 H 0.54418 0.41472 0.59579 0.0
H3549 H 0.59486 0.41375 0.54681 0.0
H3550 H 0.58486 0.39281 0.55609 0.0
H3551 H 0.60133 0.41097 0.57035 0.0
C3552 C 0.55642 0.3602 0.59105 0.0
C3553 C 0.57142 0.3603 0.60312 0.0
C3554 C 0.55443 0.3766 0.58354 0.0
C3555 C 0.56755 0.39332 0.58759 0.0
C3556 C 0.58262 0.39338 0.59947 0.0
H3557 H 0.58547 0.50585 0.5555 0.0
H3558 H 0.58705 0.47627 0.56725 0.0
C3559 C 0.58447 0.37711 0.60725 0.0
C3560 C 0.56537 0.41081 0.57974 0.0
H3561 H 0.58227 0.44076 0.55014 0.0
C3562 C 0.55242 0.42037 0.58572 0.0
C3563 C 0.57619 0.41827 0.56669 0.0
C3564 C 0.59004 0.40841 0.55944 0.0
C3565 C 0.55031 0.4374 0.57938 0.0
C3566 C 0.56111 0.44484 0.56623 0.0
C3567 C 0.57395 0.43514 0.56016 0.0
C3568 C 0.55976 0.46294 0.55899 0.0
C3569 C 0.53698 0.44761 0.5874 0.0
C3570 C 0.54393 0.4654 0.55009 0.0
C3571 C 0.54295 0.48246 0.54334 0.0
C3572 C 0.55784 0.4974 0.54515 0.0
C3573 C 0.57371 0.49473 0.55379 0.0
C3574 C 0.57465 0.47775 0.56056 0.0
H3575 H 0.53346 0.44314 0.60085 0.0
H3576 H 0.54194 0.46326 0.58968 0.0
H3577 H 0.52485 0.44417 0.57754 0.0
H3578 H 0.53233 0.45409 0.54825 0.0
H3579 H 0.53049 0.48395 0.53681 0.0
H3580 H 0.46521 0.80523 0.41478 0.0
H3581 H 0.43777 0.81142 0.40084 0.0
H3582 H 0.43712 0.76817 0.35411 0.0
H3583 H 0.46486 0.76215 0.36789 0.0
H3584 H 0.42867 0.82254 0.36478 0.0
H3585 H 0.38794 0.75283 0.37265 0.0
H3586 H 0.40907 0.76248 0.38589 0.0
H3587 H 0.4077 0.7517 0.36202 0.0
C3588 C 0.45927 0.79696 0.40153 0.0
C3589 C 0.46739 0.78304 0.3926 0.0
C3590 C 0.4435 0.80061 0.39349 0.0
C3591 C 0.43501 0.79022 0.37639 0.0
C3592 C 0.44312 0.77634 0.36738 0.0
H3593 H 0.33907 0.77899 0.30411 0.0
H3594 H 0.36666 0.77758 0.32086 0.0
C3595 C 0.4591 0.7729 0.37528 0.0
C3596 C 0.4177 0.79372 0.36812 0.0
H3597 H 0.37451 0.77206 0.35505 0.0
C3598 C 0.41681 0.81151 0.36274 0.0
C3599 C 0.40199 0.77958 0.36554 0.0
C3600 C 0.40155 0.7606 0.37194 0.0
C3601 C 0.40106 0.81514 0.35423 0.0
C3602 C 0.3854 0.80077 0.35125 0.0
C3603 C 0.38629 0.78319 0.35711 0.0
C3604 C 0.36834 0.80282 0.3409 0.0
C3605 C 0.40155 0.83412 0.34783 0.0
C3606 C 0.35945 0.81755 0.34627 0.0
C3607 C 0.34328 0.8185 0.3364 0.0
C3608 C 0.33548 0.80464 0.32097 0.0
C3609 C 0.34441 0.78998 0.31587 0.0
C3610 C 0.3604 0.78911 0.32554 0.0
H3611 H 0.41518 0.842 0.34742 0.0
H3612 H 0.39427 0.83228 0.33376 0.0
H3613 H 0.39521 0.84295 0.35762 0.0
H3614 H 0.36485 0.8282 0.35825 0.0
H3615 H 0.33695 0.83004 0.3408 0.0
H3616 H 0.09199 0.75181 0.1173 0.0
H3617 H 0.08644 0.71809 0.10464 0.0
H3618 H 0.03814 0.72264 0.07446 0.0
H3619 H 0.04419 0.75682 0.08643 0.0
H3620 H 0.06162 0.68964 0.10863 0.0
H3621 H 0.05841 0.69603 0.03342 0.0
H3622 H 0.06531 0.71651 0.05128 0.0
H3623 H 0.04236 0.70591 0.04525 0.0
C3624 C 0.08033 0.7457 0.10771 0.0
C3625 C 0.06869 0.75701 0.10257 0.0
C3626 C 0.0771 0.72637 0.10057 0.0
C3627 C 0.06202 0.71779 0.08831 0.0
C3628 C 0.05016 0.729 0.0834 0.0
H3629 H 0.02482 0.60049 0.03547 0.0
H3630 H 0.02773 0.63392 0.04799 0.0
C3631 C 0.05359 0.74852 0.09026 0.0
C3632 C 0.05888 0.69709 0.08104 0.0
H3633 H 0.0524 0.66501 0.04102 0.0
C3634 C 0.05966 0.68429 0.09383 0.0
C3635 C 0.05615 0.69 0.06172 0.0
C3636 C 0.05565 0.70284 0.04712 0.0
C3637 C 0.05799 0.66475 0.08785 0.0
C3638 C 0.05563 0.65784 0.06857 0.0
C3639 C 0.05439 0.67045 0.0558 0.0
C3640 C 0.05413 0.6375 0.06124 0.0
C3641 C 0.05851 0.65161 0.10218 0.0
C3642 C 0.0682 0.62853 0.06421 0.0
C3643 C 0.06664 0.60934 0.05694 0.0
C3644 C 0.05096 0.59889 0.0466 0.0
C3645 C 0.03708 0.60811 0.04336 0.0
C3646 C 0.03868 0.62721 0.05056 0.0
H3647 H 0.05655 0.65843 0.1162 0.0
H3648 H 0.0483 0.63834 0.09808 0.0
H3649 H 0.07147 0.64763 0.10318 0.0
H3650 H 0.08037 0.63636 0.07213 0.0
H3651 H 0.07751 0.60261 0.05982 0.0
H3652 H 0.05673 0.26583 0.8695 0.0
H3653 H 0.08587 0.27115 0.85845 0.0
H3654 H 0.10691 0.30998 0.90886 0.0
H3655 H 0.07809 0.30435 0.92009 0.0
H3656 H 0.1062 0.3023 0.85044 0.0
H3657 H 0.14344 0.2791 0.90792 0.0
H3658 H 0.11985 0.27512 0.90555 0.0
H3659 H 0.13296 0.29816 0.91538 0.0
C3660 C 0.06759 0.27537 0.87828 0.0
C3661 C 0.06495 0.28454 0.89572 0.0
C3662 C 0.08432 0.27845 0.87196 0.0
C3663 C 0.09891 0.29072 0.8829 0.0
C3664 C 0.0962 0.30002 0.90026 0.0
H3665 H 0.20727 0.32583 0.85094 0.0
H3666 H 0.18082 0.32552 0.8673 0.0
C3667 C 0.07954 0.29689 0.90661 0.0
C3668 C 0.11663 0.29429 0.8757 0.0
H3669 H 0.15985 0.29215 0.88502 0.0
C3670 C 0.11786 0.30001 0.85807 0.0
C3671 C 0.13218 0.29181 0.88569 0.0
C3672 C 0.13208 0.28556 0.90462 0.0
C3673 C 0.1338 0.30283 0.85007 0.0
C3674 C 0.14909 0.29957 0.85965 0.0
C3675 C 0.14815 0.29456 0.87757 0.0
C3676 C 0.16561 0.29977 0.85047 0.0
C3677 C 0.13422 0.30929 0.83127 0.0
C3678 C 0.16605 0.28536 0.83573 0.0
C3679 C 0.18113 0.28539 0.82658 0.0
C3680 C 0.19622 0.29998 0.83172 0.0
C3681 C 0.19584 0.31448 0.84652 0.0
C3682 C 0.18075 0.31425 0.85593 0.0
H3683 H 0.12255 0.31508 0.82745 0.0
H3684 H 0.14622 0.32037 0.83106 0.0
H3685 H 0.13449 0.29702 0.82054 0.0
H3686 H 0.15463 0.274 0.83124 0.0
H3687 H 0.18092 0.27406 0.81524 0.0
H3688 H 0.59231 0.76163 0.89462 0.0
H3689 H 0.58253 0.7312 0.90543 0.0
H3690 H 0.56434 0.75998 0.95324 0.0
H3691 H 0.57425 0.79064 0.94258 0.0
H3692 H 0.59467 0.72473 0.94387 0.0
H3693 H 0.52241 0.7139 0.9268 0.0
H3694 H 0.53789 0.72813 0.91447 0.0
H3695 H 0.53422 0.73726 0.93755 0.0
C3696 C 0.58629 0.76146 0.90748 0.0
C3697 C 0.58417 0.77837 0.91795 0.0
C3698 C 0.58063 0.74414 0.91351 0.0
C3699 C 0.57257 0.74354 0.92989 0.0
C3700 C 0.57039 0.76035 0.94041 0.0
H3701 H 0.54066 0.66217 1.00005 0.0
H3702 H 0.54524 0.6891 0.98309 0.0
C3703 C 0.57623 0.77776 0.93448 0.0
C3704 C 0.56765 0.7254 0.9367 0.0
H3705 H 0.53266 0.69203 0.94397 0.0
C3706 C 0.58114 0.71743 0.94378 0.0
C3707 C 0.54998 0.71617 0.93642 0.0
C3708 C 0.53521 0.72416 0.92832 0.0
C3709 C 0.57739 0.7005 0.95118 0.0
C3710 C 0.55971 0.69131 0.95112 0.0
C3711 C 0.54619 0.69917 0.94379 0.0
C3712 C 0.55509 0.67427 0.95992 0.0
C3713 C 0.5923 0.69288 0.95957 0.0
C3714 C 0.55875 0.65699 0.95211 0.0
C3715 C 0.5559 0.6414 0.96163 0.0
C3716 C 0.54945 0.64301 0.9791 0.0
C3717 C 0.54531 0.66029 0.98648 0.0
C3718 C 0.54802 0.67575 0.9769 0.0
H3719 H 0.60501 0.7033 0.96106 0.0
H3720 H 0.58967 0.68907 0.97348 0.0
H3721 H 0.59353 0.67979 0.95048 0.0
H3722 H 0.56413 0.65572 0.93889 0.0
H3723 H 0.55899 0.62822 0.95545 0.0
H3724 H 0.0519 0.80175 0.70684 0.0
H3725 H 0.0831 0.80823 0.7183 0.0
H3726 H 0.08699 0.75347 0.68972 0.0
H3727 H 0.05601 0.74694 0.67811 0.0
H3728 H 0.09955 0.78612 0.73997 0.0
H3729 H 0.12697 0.79054 0.67244 0.0
H3730 H 0.10459 0.79204 0.67536 0.0
H3731 H 0.11069 0.76931 0.67252 0.0
C3732 C 0.05942 0.79109 0.70312 0.0
C3733 C 0.05163 0.77383 0.69174 0.0
C3734 C 0.07717 0.79485 0.70954 0.0
C3735 C 0.08722 0.78145 0.70448 0.0
C3736 C 0.07941 0.7641 0.69338 0.0
H3737 H 0.18617 0.75754 0.7278 0.0
H3738 H 0.15617 0.75935 0.71764 0.0
C3739 C 0.06171 0.76032 0.68699 0.0
C3740 C 0.10573 0.78509 0.71167 0.0
H3741 H 0.14651 0.78725 0.69814 0.0
C3742 C 0.10992 0.78672 0.73094 0.0
C3743 C 0.119 0.78572 0.69965 0.0
C3744 C 0.11513 0.78448 0.67884 0.0
C3745 C 0.12714 0.78809 0.73854 0.0
C3746 C 0.14034 0.78823 0.72648 0.0
C3747 C 0.13623 0.78725 0.70726 0.0
C3748 C 0.1582 0.78739 0.73323 0.0
C3749 C 0.13094 0.78831 0.7592 0.0
C3750 C 0.16901 0.80256 0.74545 0.0
C3751 C 0.18608 0.80144 0.75143 0.0
C3752 C 0.19232 0.78527 0.74492 0.0
C3753 C 0.18146 0.77015 0.73279 0.0
C3754 C 0.16446 0.77118 0.72701 0.0
H3755 H 0.11876 0.78498 0.76603 0.0
H3756 H 0.13908 0.77786 0.7619 0.0
H3757 H 0.13841 0.80263 0.76574 0.0
H3758 H 0.16432 0.81525 0.75014 0.0
H3759 H 0.19447 0.81321 0.76077 0.0
H3760 H 0.09645 0.37708 0.44781 0.0
H3761 H 0.08477 0.40428 0.46061 0.0
H3762 H 0.07491 0.41766 0.40534 0.0
H3763 H 0.08639 0.39045 0.39238 0.0
H3764 H 0.09699 0.44248 0.45655 0.0
H3765 H 0.02744 0.41544 0.42643 0.0
H3766 H 0.043 0.40018 0.42723 0.0
H3767 H 0.04352 0.41594 0.41018 0.0
C3768 C 0.09204 0.38599 0.43844 0.0
C3769 C 0.09248 0.38183 0.41917 0.0
C3770 C 0.08523 0.40134 0.44572 0.0
C3771 C 0.07872 0.41259 0.4338 0.0
C3772 C 0.07957 0.40881 0.41463 0.0
H3773 H 0.03605 0.51309 0.46399 0.0
H3774 H 0.04342 0.48548 0.44571 0.0
C3775 C 0.08639 0.39349 0.40734 0.0
C3776 C 0.07183 0.42885 0.44168 0.0
H3777 H 0.03463 0.44621 0.44415 0.0
C3778 C 0.08338 0.44335 0.45383 0.0
C3779 C 0.05412 0.4299 0.43774 0.0
C3780 C 0.04123 0.41449 0.42478 0.0
C3781 C 0.07763 0.45889 0.46255 0.0
C3782 C 0.05974 0.45955 0.45934 0.0
C3783 C 0.04828 0.44542 0.44663 0.0
C3784 C 0.05272 0.4744 0.46989 0.0
C3785 C 0.0908 0.47441 0.47514 0.0
C3786 C 0.05466 0.47655 0.48935 0.0
C3787 C 0.05121 0.49258 0.49964 0.0
C3788 C 0.04515 0.50626 0.49057 0.0
C3789 C 0.04124 0.50302 0.47117 0.0
C3790 C 0.04528 0.48721 0.46078 0.0
H3791 H 0.10435 0.47469 0.47156 0.0
H3792 H 0.08781 0.48861 0.47431 0.0
H3793 H 0.09045 0.47172 0.48975 0.0
H3794 H 0.05977 0.46634 0.49655 0.0
H3795 H 0.05383 0.4946 0.51467 0.0
H3796 H 0.44998 0.28699 0.17124 0.0
H3797 H 0.42334 0.28775 0.18619 0.0
H3798 H 0.43373 0.24385 0.21739 0.0
H3799 H 0.46083 0.2436 0.20308 0.0
H3800 H 0.39455 0.26025 0.18656 0.0
H3801 H 0.42926 0.2856 0.25786 0.0
H3802 H 0.44069 0.28488 0.23737 0.0
H3803 H 0.43343 0.2635 0.24707 0.0
C3804 C 0.44658 0.27757 0.18134 0.0
C3805 C 0.45742 0.26544 0.18632 0.0
C3806 C 0.43141 0.27796 0.18976 0.0
C3807 C 0.42692 0.26608 0.20303 0.0
C3808 C 0.43736 0.25342 0.20748 0.0
H3809 H 0.33755 0.25247 0.26438 0.0
H3810 H 0.36401 0.24856 0.25014 0.0
C3811 C 0.45272 0.25327 0.19931 0.0
C3812 C 0.41146 0.26737 0.21248 0.0
H3813 H 0.39831 0.27856 0.25509 0.0
C3814 C 0.39531 0.26423 0.20154 0.0
C3815 C 0.41276 0.27265 0.23198 0.0
C3816 C 0.42999 0.27703 0.24425 0.0
C3817 C 0.38024 0.26637 0.2097 0.0
C3818 C 0.38164 0.2717 0.22913 0.0
C3819 C 0.39762 0.27448 0.24013 0.0
C3820 C 0.36656 0.27466 0.23837 0.0
C3821 C 0.36299 0.26306 0.19764 0.0
C3822 C 0.35998 0.29095 0.23669 0.0
C3823 C 0.34508 0.29334 0.24492 0.0
C3824 C 0.33678 0.27935 0.25472 0.0
C3825 C 0.34383 0.2634 0.25688 0.0
C3826 C 0.35879 0.26111 0.24877 0.0
H3827 H 0.36369 0.25609 0.18328 0.0
H3828 H 0.35247 0.2541 0.20387 0.0
H3829 H 0.35927 0.27692 0.19678 0.0
H3830 H 0.36614 0.30151 0.22872 0.0
H3831 H 0.33966 0.30562 0.24287 0.0
H3832 H 0.65749 0.5143 0.35142 0.0
H3833 H 0.64333 0.51718 0.38021 0.0
H3834 H 0.60472 0.54191 0.35283 0.0
H3835 H 0.61822 0.53782 0.32384 0.0
H3836 H 0.63804 0.53956 0.40597 0.0
H3837 H 0.56908 0.51373 0.3765 0.0
H3838 H 0.58666 0.51197 0.36242 0.0
H3839 H 0.57917 0.53398 0.36674 0.0
C3840 C 0.64581 0.52012 0.3513 0.0
C3841 C 0.63923 0.52553 0.33452 0.0
C3842 C 0.63754 0.52191 0.36818 0.0
C3843 C 0.62214 0.52941 0.36969 0.0
C3844 C 0.61584 0.53521 0.35292 0.0
H3845 H 0.55427 0.55373 0.46139 0.0
H3846 H 0.56904 0.55122 0.43317 0.0
C3847 C 0.62391 0.53308 0.33593 0.0
C3848 C 0.61343 0.53159 0.38859 0.0
H3849 H 0.57392 0.52833 0.40785 0.0
C3850 C 0.62395 0.53688 0.40607 0.0
C3851 C 0.5949 0.52843 0.39 0.0
C3852 C 0.58179 0.52154 0.37296 0.0
C3853 C 0.61705 0.53944 0.42382 0.0
C3854 C 0.59855 0.53631 0.42522 0.0
C3855 C 0.58801 0.53099 0.40774 0.0
C3856 C 0.58988 0.53876 0.4441 0.0
C3857 C 0.63008 0.54627 0.44091 0.0
C3858 C 0.59594 0.53298 0.46105 0.0
C3859 C 0.58757 0.53512 0.4779 0.0
C3860 C 0.57231 0.54277 0.47884 0.0
C3861 C 0.56613 0.54821 0.46192 0.0
C3862 C 0.57464 0.54649 0.44531 0.0
H3863 H 0.6429 0.55384 0.43741 0.0
H3864 H 0.62526 0.55603 0.45131 0.0
H3865 H 0.63243 0.53382 0.44727 0.0
H3866 H 0.60692 0.52608 0.4613 0.0
H3867 H 0.59263 0.52984 0.48997 0.0
H3868 H 0.33457 0.93519 0.06987 0.0
H3869 H 0.3424 0.92677 0.10011 0.0
H3870 H 0.29883 0.87836 0.08974 0.0
H3871 H 0.29108 0.88644 0.05898 0.0
H3872 H 0.32055 0.9241 0.1282 0.0
H3873 H 0.34112 0.85639 0.1059 0.0
H3874 H 0.33966 0.87383 0.09065 0.0
H3875 H 0.32022 0.85775 0.09476 0.0
C3876 C 0.32665 0.92272 0.07402 0.0
C3877 C 0.31219 0.91139 0.06233 0.0
C3878 C 0.33121 0.91795 0.09116 0.0
C3879 C 0.32131 0.90189 0.09672 0.0
C3880 C 0.30677 0.89058 0.08521 0.0
H3881 H 0.29811 0.8512 0.18697 0.0
H3882 H 0.30141 0.86512 0.15847 0.0
C3883 C 0.3023 0.89523 0.06787 0.0
C3884 C 0.32564 0.89759 0.1151 0.0
H3885 H 0.33483 0.86219 0.13762 0.0
C3886 C 0.32407 0.91078 0.13039 0.0
C3887 C 0.33041 0.8803 0.11753 0.0
C3888 C 0.33313 0.86632 0.10134 0.0
C3889 C 0.32596 0.90642 0.14832 0.0
C3890 C 0.32952 0.88861 0.1506 0.0
C3891 C 0.33216 0.8759 0.13546 0.0
C3892 C 0.32756 0.88163 0.16806 0.0
C3893 C 0.32299 0.92014 0.1646 0.0
C3894 C 0.34113 0.88695 0.1826 0.0
C3895 C 0.33923 0.87919 0.19888 0.0
C3896 C 0.32374 0.86626 0.20045 0.0
C3897 C 0.30996 0.86154 0.18605 0.0
C3898 C 0.3119 0.86921 0.16982 0.0
H3899 H 0.32035 0.93353 0.16035 0.0
H3900 H 0.31171 0.91336 0.17143 0.0
H3901 H 0.3347 0.92368 0.17509 0.0
H3902 H 0.35323 0.89663 0.18113 0.0
H3903 H 0.34997 0.88271 0.20996 0.0
H3904 H 0.93033 0.53541 0.86209 0.0
H3905 H 0.94278 0.52759 0.89105 0.0
H3906 H 0.99331 0.53325 0.87031 0.0
H3907 H 0.98108 0.54132 0.84127 0.0
H3908 H 0.9663 0.4999 0.90012 0.0
H3909 H 0.99416 0.57781 0.91532 0.0
H3910 H 0.97647 0.56737 0.89721 0.0
H3911 H 0.99862 0.56613 0.89349 0.0
C3912 C 0.94411 0.53502 0.86373 0.0
C3913 C 0.95502 0.53962 0.8499 0.0
C3914 C 0.95102 0.53018 0.88003 0.0
C3915 C 0.96878 0.52994 0.88246 0.0
C3916 C 0.97949 0.53341 0.86832 0.0
H3917 H 0.04869 0.54723 0.96899 0.0
H3918 H 0.02968 0.54094 0.93967 0.0
C3919 C 0.97263 0.53838 0.85204 0.0
C3920 C 0.97686 0.52977 0.9009 0.0
H3921 H 1.00404 0.55891 0.936 0.0
C3922 C 0.97461 0.51267 0.90813 0.0
C3923 C 0.98704 0.54676 0.91114 0.0
C3924 C 0.98912 0.56561 0.904 0.0
C3925 C 0.98363 0.51185 0.92521 0.0
C3926 C 0.99474 0.52869 0.93492 0.0
C3927 C 0.99584 0.54598 0.92815 0.0
C3928 C 1.00627 0.52901 0.95167 0.0
C3929 C 0.98163 0.49301 0.93229 0.0
C3930 C 0.99935 0.5238 0.96773 0.0
C3931 C 1.01032 0.52664 0.98417 0.0
C3932 C 0.02799 0.53578 0.9849 0.0
C3933 C 0.03497 0.54063 0.96876 0.0
C3934 C 0.0242 0.53693 0.95211 0.0
H3935 H 0.97617 0.48087 0.92102 0.0
H3936 H 0.99437 0.49105 0.93865 0.0
H3937 H 0.97242 0.49261 0.94309 0.0
H3938 H 0.98548 0.51803 0.96768 0.0
H3939 H 1.00492 0.52185 0.9963 0.0
H3940 H 0.26655 0.20415 0.57 0.0
H3941 H 0.26952 0.21699 0.60301 0.0
H3942 H 0.32082 0.25011 0.59843 0.0
H3943 H 0.31742 0.23795 0.56494 0.0
H3944 H 0.2905 0.21432 0.63124 0.0
H3945 H 0.30135 0.29097 0.62457 0.0
H3946 H 0.29525 0.27262 0.60457 0.0
H3947 H 0.31761 0.27941 0.61521 0.0
C3948 C 0.27838 0.21439 0.57595 0.0
C3949 C 0.2916 0.22029 0.56476 0.0
C3950 C 0.28012 0.22166 0.59491 0.0
C3951 C 0.29525 0.23488 0.60335 0.0
C3952 C 0.30873 0.24048 0.59226 0.0
H3953 H 0.32388 0.28954 0.7188 0.0
H3954 H 0.32364 0.27672 0.68608 0.0
C3955 C 0.30682 0.23346 0.5731 0.0
C3956 C 0.29666 0.24244 0.6237 0.0
H3957 H 0.30308 0.2834 0.65503 0.0
C3958 C 0.29318 0.22945 0.63636 0.0
C3959 C 0.30034 0.26219 0.63063 0.0
C3960 C 0.3037 0.27711 0.61803 0.0
C3961 C 0.29308 0.2356 0.6555 0.0
C3962 C 0.29639 0.25531 0.66226 0.0
C3963 C 0.30034 0.26829 0.64978 0.0
C3964 C 0.29621 0.26286 0.68226 0.0
C3965 C 0.28974 0.22099 0.66842 0.0
C3966 C 0.28074 0.25969 0.691 0.0
C3967 C 0.28077 0.26729 0.70978 0.0
C3968 C 0.2963 0.27808 0.72015 0.0
C3969 C 0.31166 0.28136 0.71124 0.0
C3970 C 0.31158 0.27397 0.69252 0.0
H3971 H 0.29104 0.20673 0.66178 0.0
H3972 H 0.29897 0.22537 0.68137 0.0
H3973 H 0.27623 0.21978 0.67238 0.0
H3974 H 0.26865 0.25138 0.68329 0.0
H3975 H 0.26878 0.26426 0.71629 0.0
H3976 H 0.66326 0.52852 0.21329 0.0
H3977 H 0.6489 0.53005 0.18249 0.0
H3978 H 0.59851 0.51194 0.20139 0.0
H3979 H 0.61288 0.51064 0.23232 0.0
H3980 H 0.62898 0.50668 0.15436 0.0
H3981 H 0.58755 0.55587 0.17939 0.0
H3982 H 0.60462 0.5505 0.19457 0.0
H3983 H 0.58359 0.53432 0.18933 0.0
C3984 C 0.64909 0.52486 0.21104 0.0
C3985 C 0.63948 0.51958 0.22588 0.0
C3986 C 0.64075 0.52573 0.19313 0.0
C3987 C 0.62228 0.52161 0.18902 0.0
C3988 C 0.61266 0.51587 0.20373 0.0
H3989 H 0.54933 0.51871 0.08587 0.0
H3990 H 0.56256 0.51582 0.11698 0.0
C3991 C 0.62101 0.51493 0.22166 0.0
C3992 C 0.61337 0.52325 0.1696 0.0
H3993 H 0.58188 0.54253 0.14743 0.0
C3994 C 0.61876 0.51466 0.15306 0.0
C3995 C 0.59981 0.53354 0.16706 0.0
C3996 C 0.59364 0.54425 0.18349 0.0
C3997 C 0.61108 0.51576 0.13482 0.0
C3998 C 0.5976 0.52609 0.13234 0.0
C3999 C 0.59211 0.53457 0.14881 0.0
C4000 C 0.58922 0.52826 0.11295 0.0
C4001 C 0.61719 0.50527 0.1182 0.0
C4002 C 0.59932 0.53656 0.09972 0.0
C4003 C 0.59163 0.53847 0.08187 0.0
C4004 C 0.57348 0.53197 0.07623 0.0
C4005 C 0.56332 0.52381 0.08943 0.0
C4006 C 0.57098 0.52218 0.10743 0.0
H4007 H 0.62416 0.49424 0.12218 0.0
H4008 H 0.60596 0.49833 0.10761 0.0
H4009 H 0.62636 0.51552 0.1117 0.0
H4010 H 0.61329 0.54183 0.10325 0.0
H4011 H 0.60001 0.54496 0.07234 0.0
H4012 H 0.30446 0.87078 0.96925 0.0
H4013 H 0.3117 0.85575 0.93971 0.0
H4014 H 0.31833 0.90938 0.91888 0.0
H4015 H 0.31131 0.9246 0.94835 0.0
H4016 H 0.2889 0.85854 0.90729 0.0
H4017 H 0.35969 0.88542 0.90105 0.0
H4018 H 0.35115 0.88518 0.92335 0.0
H4019 H 0.34708 0.90247 0.90908 0.0
C4020 C 0.3075 0.87933 0.95837 0.0
C4021 C 0.30679 0.89861 0.96071 0.0
C4022 C 0.3119 0.87086 0.94175 0.0
C4023 C 0.31569 0.88164 0.92746 0.0
C4024 C 0.31572 0.90105 0.93001 0.0
H4025 H 0.3143 0.84356 0.81012 0.0
H4026 H 0.31889 0.86362 0.84051 0.0
C4027 C 0.31133 0.90955 0.94663 0.0
C4028 C 0.31624 0.87186 0.90889 0.0
H4029 H 0.3426 0.86542 0.87484 0.0
C4030 C 0.30064 0.85992 0.90018 0.0
C4031 C 0.33151 0.87438 0.89974 0.0
C4032 C 0.34838 0.88749 0.90875 0.0
C4033 C 0.29996 0.84984 0.88248 0.0
C4034 C 0.31544 0.85153 0.87366 0.0
C4035 C 0.33092 0.86406 0.88202 0.0
C4036 C 0.31563 0.83988 0.85589 0.0
C4037 C 0.28271 0.83751 0.87336 0.0
C4038 C 0.31287 0.82009 0.85487 0.0
C4039 C 0.31012 0.80862 0.83763 0.0
C4040 C 0.31026 0.81695 0.82141 0.0
C4041 C 0.31415 0.83685 0.82253 0.0
C4042 C 0.31681 0.84831 0.83978 0.0
H4043 H 0.27142 0.8414 0.88008 0.0
H4044 H 0.28083 0.83869 0.85834 0.0
H4045 H 0.28266 0.82243 0.87459 0.0
H4046 H 0.31205 0.81354 0.86738 0.0
H4047 H 0.3072 0.7933 0.83699 0.0
H4048 H 0.92235 0.54134 0.73444 0.0
H4049 H 0.92752 0.53175 0.70241 0.0
H4050 H 0.97427 0.51409 0.72195 0.0
H4051 H 0.96918 0.52367 0.75434 0.0
H4052 H 0.96596 0.54943 0.69325 0.0
H4053 H 0.93999 0.47105 0.67636 0.0
H4054 H 0.93059 0.48587 0.69289 0.0
H4055 H 0.95177 0.48124 0.69893 0.0
C4056 C 0.93371 0.53536 0.73191 0.0
C4057 C 0.94563 0.53355 0.74663 0.0
C4058 C 0.93646 0.52969 0.71373 0.0
C4059 C 0.95103 0.52202 0.71017 0.0
C4060 C 0.96282 0.51979 0.72476 0.0
H4061 H 1.00639 0.5064 0.61868 0.0
H4062 H 0.99162 0.50307 0.64644 0.0
C4063 C 0.96011 0.52557 0.74306 0.0
C4064 C 0.95534 0.51942 0.69121 0.0
H4065 H 0.95322 0.48651 0.65287 0.0
C4066 C 0.96311 0.53575 0.68429 0.0
C4067 C 0.95146 0.50147 0.67998 0.0
C4068 C 0.94294 0.48381 0.68729 0.0
C4069 C 0.96746 0.53456 0.66614 0.0
C4070 C 0.96359 0.51659 0.6548 0.0
C4071 C 0.95573 0.50023 0.6617 0.0
C4072 C 0.96973 0.51446 0.63655 0.0
C4073 C 0.97671 0.55233 0.65943 0.0
C4074 C 0.96177 0.52135 0.62178 0.0
C4075 C 0.97011 0.52317 0.60578 0.0
C4076 C 0.98641 0.51811 0.60463 0.0
C4077 C 0.99363 0.50998 0.61903 0.0
C4078 C 0.9853 0.50813 0.6349 0.0
H4079 H 0.97994 0.56484 0.67066 0.0
H4080 H 0.98902 0.55002 0.6539 0.0
H4081 H 0.96823 0.55568 0.64794 0.0
H4082 H 0.94973 0.52634 0.62312 0.0
H4083 H 0.96435 0.52944 0.5948 0.0
H4084 H 0.30703 0.19937 0.44753 0.0
H4085 H 0.30794 0.21149 0.41779 0.0
H4086 H 0.27222 0.24706 0.43454 0.0
H4087 H 0.27213 0.23574 0.46472 0.0
H4088 H 0.28547 0.20887 0.38993 0.0
H4089 H 0.30533 0.28597 0.41588 0.0
H4090 H 0.30544 0.26849 0.43124 0.0
H4091 H 0.28537 0.27556 0.4243 0.0
C4092 C 0.29954 0.20997 0.44499 0.0
C4093 C 0.28959 0.21664 0.45866 0.0
C4094 C 0.30002 0.21689 0.42786 0.0
C4095 C 0.29043 0.23058 0.42372 0.0
C4096 C 0.28029 0.23707 0.43735 0.0
H4097 H 0.26945 0.28593 0.32839 0.0
H4098 H 0.27019 0.27254 0.35724 0.0
C4099 C 0.2801 0.23042 0.45465 0.0
C4100 C 0.29058 0.23737 0.40498 0.0
H4101 H 0.29522 0.27718 0.38371 0.0
C4102 C 0.28777 0.22385 0.38865 0.0
C4103 C 0.29355 0.25692 0.40297 0.0
C4104 C 0.29777 0.27255 0.41954 0.0
C4105 C 0.28736 0.22917 0.37067 0.0
C4106 C 0.29009 0.24869 0.36869 0.0
C4107 C 0.29306 0.2622 0.385 0.0
C4108 C 0.28914 0.25558 0.35006 0.0
C4109 C 0.28343 0.2137 0.35397 0.0
C4110 C 0.29936 0.25046 0.33588 0.0
C4111 C 0.29873 0.258 0.31898 0.0
C4112 C 0.28811 0.27111 0.31608 0.0
C4113 C 0.27784 0.27596 0.33015 0.0
C4114 C 0.27829 0.26831 0.34678 0.0
H4115 H 0.2768 0.19986 0.35762 0.0
H4116 H 0.27501 0.21742 0.34266 0.0
H4117 H 0.29591 0.21178 0.34861 0.0
H4118 H 0.30818 0.24103 0.33802 0.0
H4119 H 0.30691 0.25405 0.30849 0.0
H4120 H 0.33349 0.6268 0.55708 0.0
H4121 H 0.36091 0.61675 0.55138 0.0
H4122 H 0.35158 0.62157 0.49313 0.0
H4123 H 0.32479 0.63268 0.49909 0.0
H4124 H 0.36528 0.58626 0.52828 0.0
H4125 H 0.4005 0.65307 0.50675 0.0
H4126 H 0.38045 0.65168 0.51754 0.0
H4127 H 0.37985 0.64249 0.49329 0.0
C4128 C 0.33738 0.62553 0.54312 0.0
C4129 C 0.32743 0.63033 0.52846 0.0
C4130 C 0.35292 0.61997 0.53989 0.0
C4131 C 0.35825 0.61889 0.52193 0.0
C4132 C 0.34784 0.62294 0.50714 0.0
H4133 H 0.44821 0.58001 0.48314 0.0
H4134 H 0.42132 0.59223 0.48433 0.0
C4135 C 0.33257 0.629 0.51048 0.0
C4136 C 0.37451 0.61291 0.51868 0.0
H4137 H 0.41486 0.62723 0.50489 0.0
C4138 C 0.37615 0.59518 0.52318 0.0
C4139 C 0.38841 0.62467 0.51182 0.0
C4140 C 0.38732 0.64411 0.50721 0.0
C4141 C 0.39165 0.58893 0.52138 0.0
C4142 C 0.40572 0.60087 0.51502 0.0
C4143 C 0.40391 0.61832 0.50987 0.0
C4144 C 0.42267 0.5957 0.51436 0.0
C4145 C 0.39289 0.5697 0.52641 0.0
C4146 C 0.43237 0.5945 0.53095 0.0
C4147 C 0.44751 0.58739 0.53034 0.0
C4148 C 0.45312 0.5816 0.51311 0.0
C4149 C 0.44396 0.58412 0.49656 0.0
C4150 C 0.42873 0.59112 0.49719 0.0
H4151 H 0.37974 0.56057 0.52668 0.0
H4152 H 0.4001 0.56218 0.51641 0.0
H4153 H 0.40014 0.57164 0.54049 0.0
H4154 H 0.42783 0.59833 0.54429 0.0
H4155 H 0.45422 0.58545 0.54329 0.0
H4156 H 0.8545 0.94292 0.51317 0.0
H4157 H 0.88441 0.95796 0.50847 0.0
H4158 H 0.90422 0.93846 0.55765 0.0
H4159 H 0.87449 0.9223 0.56147 0.0
H4160 H 0.90782 0.98466 0.52356 0.0
H4161 H 0.93938 0.92404 0.52796 0.0
H4162 H 0.91598 0.92131 0.52722 0.0
H4163 H 0.92985 0.92893 0.54906 0.0
C4164 C 0.86525 0.94174 0.52294 0.0
C4165 C 0.8619 0.93131 0.53773 0.0
C4166 C 0.88252 0.95041 0.52024 0.0
C4167 C 0.89716 0.94924 0.53238 0.0
C4168 C 0.89365 0.93916 0.54745 0.0
H4169 H 1.00494 0.01459 0.55764 0.0
H4170 H 0.97522 0.99531 0.55687 0.0
C4171 C 0.87644 0.93008 0.54985 0.0
C4172 C 0.91577 0.9592 0.52978 0.0
H4173 H 0.95889 0.9549 0.53288 0.0
C4174 C 0.91884 0.97789 0.52539 0.0
C4175 C 0.93061 0.9507 0.5317 0.0
C4176 C 0.92875 0.93007 0.53401 0.0
C4177 C 0.93591 0.98828 0.52374 0.0
C4178 C 0.95072 0.9802 0.5269 0.0
C4179 C 0.94772 0.96141 0.53079 0.0
C4180 C 0.96935 0.99131 0.52696 0.0
C4181 C 0.93808 1.00811 0.51892 0.0
C4182 C 0.97643 0.9954 0.51039 0.0
C4183 C 0.99371 1.00618 0.51079 0.0
C4184 C 1.00432 0.01351 0.52781 0.0
C4185 C 0.99723 1.00928 0.54429 0.0
C4186 C 0.98015 0.9982 0.54386 0.0
H4187 H 0.92562 0.01319 0.51864 0.0
H4188 H 0.94808 0.01816 0.52913 0.0
H4189 H 0.94281 1.00828 0.50499 0.0
H4190 H 0.96855 0.99032 0.4971 0.0
H4191 H 0.99859 1.00919 0.49779 0.0
H4192 H 0.92782 0.14002 0.28213 0.0
H4193 H 0.91416 0.16789 0.28328 0.0
H4194 H 0.86494 0.13125 0.26003 0.0
H4195 H 0.87848 0.10351 0.25923 0.0
H4196 H 0.90012 0.1885 0.26241 0.0
H4197 H 0.84358 0.15969 0.29755 0.0
H4198 H 0.86153 0.1478 0.29508 0.0
H4199 H 0.84417 0.14442 0.2763 0.0
C4200 C 0.91401 0.13766 0.27732 0.0
C4201 C 0.9046 0.11867 0.27066 0.0
C4202 C 0.90601 0.15401 0.27795 0.0
C4203 C 0.88789 0.15268 0.27219 0.0
C4204 C 0.87861 0.13368 0.26533 0.0
H4205 H 0.81124 0.23121 0.26399 0.0
H4206 H 0.82675 0.2051 0.26422 0.0
C4207 C 0.8866 0.11737 0.26466 0.0
C4208 C 0.87901 0.1707 0.27298 0.0
H4209 H 0.8417 0.18718 0.28393 0.0
C4210 C 0.88733 0.18796 0.26723 0.0
C4211 C 0.86223 0.17132 0.27937 0.0
C4212 C 0.85242 0.15493 0.28762 0.0
C4213 C 0.87956 0.20449 0.2669 0.0
C4214 C 0.86254 0.20492 0.27289 0.0
C4215 C 0.85442 0.18776 0.27895 0.0
C4216 C 0.85284 0.22231 0.27274 0.0
C4217 C 0.88975 0.22116 0.25933 0.0
C4218 C 0.86133 0.24196 0.27761 0.0
C4219 C 0.85221 0.25737 0.27719 0.0
C4220 C 0.8338 0.25438 0.27229 0.0
C4221 C 0.82526 0.23483 0.26785 0.0
C4222 C 0.83439 0.21947 0.26805 0.0
H4223 H 0.89935 0.21679 0.25015 0.0
H4224 H 0.88093 0.2281 0.25125 0.0
H4225 H 0.89726 0.2317 0.27109 0.0
H4226 H 0.87519 0.24569 0.2822 0.0
H4227 H 0.85973 0.27181 0.28099 0.0
H4228 H 0.73436 0.11434 1.00143 0.0
H4229 H 0.70268 0.10578 0.99233 0.0
H4230 H 0.69427 0.13633 0.04469 0.0
H4231 H 0.72591 0.14573 0.05335 0.0
H4232 H 0.68065 0.08455 0.01075 0.0
H4233 H 0.66138 0.15379 0.00933 0.0
H4234 H 0.68388 0.1514 0.0093 0.0
H4235 H 0.67404 0.1533 0.03078 0.0
C4236 C 0.72564 0.11907 0.01096 0.0
C4237 C 0.73222 0.1302 0.02822 0.0
C4238 C 0.70772 0.11448 1.00567 0.0
C4239 C 0.69635 0.12076 0.01774 0.0
C4240 C 0.70296 0.1319 0.03499 0.0
H4241 H 0.5917 0.0883 0.03842 0.0
H4242 H 0.623 0.10046 0.03887 0.0
C4243 C 0.72089 0.13688 0.04008 0.0
C4244 C 0.67752 0.11363 0.01345 0.0
H4245 H 0.63849 0.12729 0.01285 0.0
C4246 C 0.6714 0.09385 0.01076 0.0
C4247 C 0.66568 0.12595 0.01373 0.0
C4248 C 0.67161 0.14729 0.01576 0.0
C4249 C 0.65355 0.086 0.00909 0.0
C4250 C 0.64184 0.09836 0.00998 0.0
C4251 C 0.64782 0.11807 0.01219 0.0
C4252 C 0.62324 0.09108 0.00947 0.0
C4253 C 0.64731 0.06469 1.00722 0.0
C4254 C 0.61345 0.08204 0.99269 0.0
C4255 C 0.59561 0.07508 0.99231 0.0
C4256 C 0.58765 0.07717 0.00875 0.0
C4257 C 0.59758 0.08646 0.02553 0.0
C4258 C 0.61536 0.09341 0.02587 0.0
H4259 H 0.65833 0.05729 0.00883 0.0
H4260 H 0.63829 0.06108 0.01782 0.0
H4261 H 0.6399 0.0592 0.99329 0.0
H4262 H 0.61963 0.08034 0.97999 0.0
H4263 H 0.58818 0.06786 0.97927 0.0
H4264 H 0.17857 0.50761 0.28552 0.0
H4265 H 0.19195 0.48249 0.29516 0.0
H4266 H 0.22264 0.48465 0.2485 0.0
H4267 H 0.20992 0.51084 0.23941 0.0
H4268 H 0.19005 0.44847 0.27584 0.0
H4269 H 0.25917 0.48799 0.29166 0.0
H4270 H 0.24116 0.49973 0.28828 0.0
H4271 H 0.25 0.48896 0.26856 0.0
C4272 C 0.18819 0.50265 0.27736 0.0
C4273 C 0.19337 0.51072 0.26176 0.0
C4274 C 0.19582 0.48851 0.28291 0.0
C4275 C 0.20839 0.48221 0.27268 0.0
C4276 C 0.21328 0.48995 0.25677 0.0
H4277 H 0.25573 0.39245 0.25546 0.0
H4278 H 0.24165 0.41951 0.25671 0.0
C4279 C 0.20598 0.50457 0.2515 0.0
C4280 C 0.21571 0.46681 0.27825 0.0
H4281 H 0.25417 0.45377 0.28816 0.0
C4282 C 0.20404 0.44964 0.27894 0.0
C4283 C 0.2339 0.46882 0.28245 0.0
C4284 C 0.24676 0.48744 0.28289 0.0
C4285 C 0.21029 0.43379 0.28266 0.0
C4286 C 0.22851 0.43546 0.28564 0.0
C4287 C 0.24015 0.45287 0.28593 0.0
C4288 C 0.23581 0.41868 0.28513 0.0
C4289 C 0.19757 0.41513 0.28232 0.0
C4290 C 0.23669 0.40945 0.30069 0.0
C4291 C 0.24463 0.39391 0.3 0.0
C4292 C 0.25154 0.3877 0.28369 0.0
C4293 C 0.25015 0.39681 0.26802 0.0
C4294 C 0.24233 0.41228 0.26876 0.0
H4295 H 0.18373 0.41629 0.2793 0.0
H4296 H 0.20046 0.40416 0.27159 0.0
H4297 H 0.19915 0.4102 0.296 0.0
H4298 H 0.23159 0.41449 0.31335 0.0
H4299 H 0.24567 0.38698 0.31219 0.0
H4300 H 0.25125 0.40608 0.05612 0.0
H4301 H 0.22374 0.4171 0.05168 0.0
H4302 H 0.2432 0.44604 1.00726 0.0
H4303 H 0.27105 0.43561 0.01214 0.0
H4304 H 0.2226 0.45908 0.05304 0.0
H4305 H 0.19094 0.41256 0.9873 0.0
H4306 H 0.20675 0.40569 1.00302 0.0
H4307 H 0.21395 0.42315 0.98851 0.0
C4308 C 0.24968 0.41482 0.04542 0.0
C4309 C 0.26346 0.42023 0.03468 0.0
C4310 C 0.23391 0.42104 0.04284 0.0
C4311 C 0.23127 0.43229 0.02903 0.0
C4312 C 0.24484 0.4373 0.01794 0.0
H4313 H 0.1521 0.49716 1.00325 0.0
H4314 H 0.17645 0.48081 1.00258 0.0
C4315 C 0.26083 0.4315 0.02086 0.0
C4316 C 0.21491 0.43995 0.02723 0.0
H4317 H 0.17667 0.43662 0.99932 0.0
C4318 C 0.21256 0.45412 0.04131 0.0
C4319 C 0.20174 0.43348 0.01195 0.0
C4320 C 0.20328 0.4178 0.99681 0.0
C4321 C 0.19763 0.46217 0.0404 0.0
C4322 C 0.18447 0.45579 0.02513 0.0
C4323 C 0.18675 0.44156 0.01102 0.0
C4324 C 0.16837 0.46392 0.02384 0.0
C4325 C 0.1961 0.47773 0.05568 0.0
C4326 C 0.1553 0.45947 0.03558 0.0
C4327 C 0.14102 0.46848 0.03574 0.0
C4328 C 0.13951 0.48255 0.0244 0.0
C4329 C 0.15241 0.4864 0.01213 0.0
C4330 C 0.16654 0.47712 0.01178 0.0
H4331 H 0.20846 0.48295 0.06516 0.0
H4332 H 0.19256 0.4899 0.04964 0.0
H4333 H 0.1855 0.47224 0.06402 0.0
H4334 H 0.1563 0.4492 0.04491 0.0
H4335 H 0.13128 0.46445 0.04499 0.0
H4336 H 0.91556 0.99414 0.25275 0.0
H4337 H 0.90103 0.96134 0.25526 0.0
H4338 H 0.86714 0.98296 0.29222 0.0
H4339 H 0.88154 0.01569 0.28957 0.0
H4340 H 0.896 0.9376 0.28064 0.0
H4341 H 0.82952 0.94654 0.25893 0.0
H4342 H 0.84869 0.96444 0.25738 0.0
H4343 H 0.83966 0.96298 0.27924 0.0
C4344 C 0.90488 0.99207 0.26131 0.0
C4345 C 0.89978 1.00828 0.27061 0.0
C4346 C 0.89648 0.97294 0.26285 0.0
C4347 C 0.88224 0.9687 0.27358 0.0
C4348 C 0.87747 0.98496 0.28324 0.0
H4349 H 0.80499 0.86554 0.29229 0.0
H4350 H 0.82326 0.8968 0.29184 0.0
C4351 C 0.88594 1.00408 0.2818 0.0
C4352 C 0.8725 0.94771 0.27455 0.0
H4353 H 0.83136 0.9181 0.2703 0.0
C4354 C 0.88183 0.93349 0.27833 0.0
C4355 C 0.85387 0.94132 0.27158 0.0
C4356 C 0.84233 0.95452 0.26637 0.0
C4357 C 0.87343 0.91419 0.27979 0.0
C4358 C 0.8547 0.90781 0.27686 0.0
C4359 C 0.84552 0.92207 0.27285 0.0
C4360 C 0.84414 0.88715 0.27825 0.0
C4361 C 0.885 0.9011 0.28523 0.0
C4362 C 0.84907 0.8698 0.27127 0.0
C4363 C 0.83847 0.85126 0.27206 0.0
C4364 C 0.82208 0.84893 0.27945 0.0
C4365 C 0.81732 0.86616 0.28643 0.0
C4366 C 0.82796 0.88449 0.28602 0.0
H4367 H 0.89779 0.90919 0.29265 0.0
H4368 H 0.87864 0.89133 0.29435 0.0
H4369 H 0.88774 0.89253 0.27247 0.0
H4370 H 0.86091 0.87039 0.26455 0.0
H4371 H 0.84285 0.83875 0.26615 0.0
H4372 H 0.69817 0.10706 0.79894 0.0
H4373 H 0.71018 0.14065 0.81078 0.0
H4374 H 0.69653 0.15487 0.75653 0.0
H4375 H 0.68348 0.12136 0.74511 0.0
H4376 H 0.73772 0.15281 0.79324 0.0
H4377 H 0.69233 0.20208 0.79012 0.0
H4378 H 0.68484 0.17706 0.79125 0.0
H4379 H 0.68918 0.18495 0.76937 0.0
C4380 C 0.69739 0.11757 0.78982 0.0
C4381 C 0.6906 0.11213 0.77113 0.0
C4382 C 0.70386 0.1366 0.79663 0.0
C4383 C 0.70407 0.15004 0.78453 0.0
C4384 C 0.69601 0.14467 0.76616 0.0
H4385 H 0.76869 0.24754 0.76034 0.0
H4386 H 0.75038 0.21617 0.76011 0.0
C4387 C 0.689 0.12564 0.75953 0.0
C4388 C 0.71686 0.16787 0.78909 0.0
H4389 H 0.72279 0.21488 0.78608 0.0
C4390 C 0.73445 0.1665 0.79223 0.0
C4391 C 0.71239 0.18543 0.78736 0.0
C4392 C 0.69362 0.18748 0.78451 0.0
C4393 C 0.74788 0.18225 0.79265 0.0
C4394 C 0.74341 0.19956 0.79012 0.0
C4395 C 0.72589 0.20125 0.78782 0.0
C4396 C 0.75684 0.21615 0.78953 0.0
C4397 C 0.76671 0.18017 0.79481 0.0
C4398 C 0.76705 0.22547 0.80598 0.0
C4399 C 0.77758 0.24321 0.80616 0.0
C4400 C 0.77763 0.25154 0.78994 0.0
C4401 C 0.76883 0.24124 0.77301 0.0
C4402 C 0.75826 0.22354 0.77287 0.0
H4403 H 0.76779 0.16504 0.79347 0.0
H4404 H 0.77408 0.18698 0.78422 0.0
H4405 H 0.77306 0.18748 0.80875 0.0
H4406 H 0.76595 0.21963 0.81886 0.0
H4407 H 0.78445 0.25104 0.81926 0.0
loop_
_geom_bond_atom_site_label_1
_geom_bond_atom_site_label_2
_geom_bond_distance
_geom_bond_site_symmetry_2
_ccdc_geom_bond_type
In0 O1 2.294 . S
In0 O2 2.326 . S
In0 O6 2.266 . S
In0 O7 2.326 . S
In0 O8 2.266 . S
In0 O9 2.326 . S
In0 O11 2.294 . S
In0 O12 2.326 . S
O1 In0 2.294 . S
O1 C10 1.240 . S
O2 In0 2.326 . S
O2 C10 1.252 . S
C3 O6 1.252 . S
C3 O7 1.260 . S
C4 O11 1.240 . S
C4 O12 1.252 . S
C5 O8 1.252 . S
C5 O9 1.260 . S
O6 In0 2.266 . S
O6 C3 1.252 . S
O7 In0 2.326 . S
O7 C3 1.260 . S
O8 In0 2.266 . S
O8 C5 1.252 . S
O9 In0 2.326 . S
O9 C5 1.260 . S
C10 O1 1.240 . S
C10 O2 1.252 . S
O11 In0 2.294 . S
O11 C4 1.240 . S
O12 In0 2.326 . S
O12 C4 1.252 . S
In13 O14 2.294 . S
In13 O15 2.326 . S
In13 O19 2.266 1_455 S
In13 O20 2.326 1_455 S
In13 O21 2.264 1_455 S
In13 O22 2.322 1_455 S
In13 O24 2.296 . S
In13 O25 2.330 . S
O14 In13 2.294 . S
O14 C23 1.240 . S
O15 In13 2.326 . S
O15 C23 1.252 . S
C16 O19 1.252 . S
C16 O20 1.260 . S
C17 O24 1.240 . S
C17 O25 1.252 . S
C18 O21 1.252 . S
C18 O22 1.260 . S
O19 In13 2.266 1_655 S
O19 C16 1.252 . S
O20 In13 2.326 1_655 S
O20 C16 1.260 . S
O21 In13 2.264 1_655 S
O21 C18 1.252 . S
O22 In13 2.322 1_655 S
O22 C18 1.260 . S
C23 O14 1.240 . S
C23 O15 1.252 . S
O24 In13 2.296 . S
O24 C17 1.240 . S
O25 In13 2.330 . S
O25 C17 1.252 . S
In26 O27 2.294 . S
In26 O28 2.326 . S
In26 O32 2.266 . S
In26 O33 2.326 . S
In26 O34 2.266 . S
In26 O35 2.326 . S
In26 O37 2.294 . S
In26 O38 2.326 . S
O27 In26 2.294 . S
O27 C36 1.240 . S
O28 In26 2.326 . S
O28 C36 1.252 . S
C29 O32 1.252 . S
C29 O33 1.260 . S
C30 O37 1.240 . S
C30 O38 1.252 . S
C31 O34 1.252 . S
C31 O35 1.260 . S
O32 In26 2.266 . S
O32 C29 1.252 . S
O33 In26 2.326 . S
O33 C29 1.260 . S
O34 In26 2.266 . S
O34 C31 1.252 . S
O35 In26 2.326 . S
O35 C31 1.260 . S
C36 O27 1.240 . S
C36 O28 1.252 . S
O37 In26 2.294 . S
O37 C30 1.240 . S
O38 In26 2.326 . S
O38 C30 1.252 . S
In39 O40 2.294 . S
In39 O41 2.326 . S
In39 O45 2.266 . S
In39 O46 2.326 . S
In39 O47 2.266 . S
In39 O48 2.326 . S
In39 O50 2.294 . S
In39 O51 2.326 . S
O40 In39 2.294 . S
O40 C49 1.240 . S
O41 In39 2.326 . S
O41 C49 1.252 . S
C42 O45 1.252 . S
C42 O46 1.260 . S
C43 O50 1.240 . S
C43 O51 1.252 . S
C44 O47 1.252 . S
C44 O48 1.260 . S
O45 In39 2.266 . S
O45 C42 1.252 . S
O46 In39 2.326 . S
O46 C42 1.260 . S
O47 In39 2.266 . S
O47 C44 1.252 . S
O48 In39 2.326 . S
O48 C44 1.260 . S
C49 O40 1.240 . S
C49 O41 1.252 . S
O50 In39 2.294 . S
O50 C43 1.240 . S
O51 In39 2.326 . S
O51 C43 1.252 . S
In52 O53 2.294 . S
In52 O54 2.326 . S
In52 O58 2.266 . S
In52 O59 2.326 . S
In52 O60 2.266 . S
In52 O61 2.326 . S
In52 O63 2.294 . S
In52 O64 2.326 . S
O53 In52 2.294 . S
O53 C62 1.240 . S
O54 In52 2.326 . S
O54 C62 1.252 . S
C55 O58 1.252 . S
C55 O59 1.260 . S
C56 O63 1.240 . S
C56 O64 1.252 . S
C57 O60 1.252 . S
C57 O61 1.260 . S
O58 In52 2.266 . S
O58 C55 1.252 . S
O59 In52 2.326 . S
O59 C55 1.260 . S
O60 In52 2.266 . S
O60 C57 1.252 . S
O61 In52 2.326 . S
O61 C57 1.260 . S
C62 O53 1.240 . S
C62 O54 1.252 . S
O63 In52 2.294 . S
O63 C56 1.240 . S
O64 In52 2.326 . S
O64 C56 1.252 . S
In65 O66 2.294 . S
In65 O67 2.326 . S
In65 O71 2.266 . S
In65 O72 2.326 . S
In65 O73 2.266 . S
In65 O74 2.326 . S
In65 O76 2.294 . S
In65 O77 2.326 . S
O66 In65 2.294 . S
O66 C75 1.240 . S
O67 In65 2.326 . S
O67 C75 1.252 . S
C68 O71 1.252 . S
C68 O72 1.260 . S
C69 O76 1.240 . S
C69 O77 1.252 . S
C70 O73 1.252 . S
C70 O74 1.260 . S
O71 In65 2.266 . S
O71 C68 1.252 . S
O72 In65 2.326 . S
O72 C68 1.260 . S
O73 In65 2.266 . S
O73 C70 1.252 . S
O74 In65 2.326 . S
O74 C70 1.260 . S
C75 O66 1.240 . S
C75 O67 1.252 . S
O76 In65 2.294 . S
O76 C69 1.240 . S
O77 In65 2.326 . S
O77 C69 1.252 . S
In78 O79 2.294 . S
In78 O80 2.326 . S
In78 O84 2.266 . S
In78 O85 2.326 . S
In78 O86 2.266 . S
In78 O87 2.326 . S
In78 O89 2.294 . S
In78 O90 2.326 . S
O79 In78 2.294 . S
O79 C88 1.240 . S
O80 In78 2.326 . S
O80 C88 1.252 . S
C81 O84 1.252 . S
C81 O85 1.260 . S
C82 O89 1.240 . S
C82 O90 1.252 . S
C83 O86 1.252 . S
C83 O87 1.260 . S
O84 In78 2.266 . S
O84 C81 1.252 . S
O85 In78 2.326 . S
O85 C81 1.260 . S
O86 In78 2.266 . S
O86 C83 1.252 . S
O87 In78 2.326 . S
O87 C83 1.260 . S
C88 O79 1.240 . S
C88 O80 1.252 . S
O89 In78 2.294 . S
O89 C82 1.240 . S
O90 In78 2.326 . S
O90 C82 1.252 . S
In91 O92 2.294 . S
In91 O93 2.326 . S
In91 O97 2.266 . S
In91 O98 2.326 . S
In91 O99 2.266 1_455 S
In91 O100 2.326 1_455 S
In91 O102 2.294 . S
In91 O103 2.326 . S
O92 In91 2.294 . S
O92 C101 1.240 . S
O93 In91 2.326 . S
O93 C101 1.252 . S
C94 O97 1.252 . S
C94 O98 1.260 . S
C95 O102 1.240 . S
C95 O103 1.252 . S
C96 O99 1.252 . S
C96 O100 1.260 . S
O97 In91 2.266 . S
O97 C94 1.252 . S
O98 In91 2.326 . S
O98 C94 1.260 . S
O99 In91 2.266 1_655 S
O99 C96 1.252 . S
O100 In91 2.326 1_655 S
O100 C96 1.260 . S
C101 O92 1.240 . S
C101 O93 1.252 . S
O102 In91 2.294 . S
O102 C95 1.240 . S
O103 In91 2.326 . S
O103 C95 1.252 . S
In104 O105 2.294 . S
In104 O106 2.326 . S
In104 O110 2.266 . S
In104 O111 2.326 . S
In104 O112 2.266 1_545 S
In104 O113 2.326 1_545 S
In104 O115 2.294 . S
In104 O116 2.326 . S
O105 In104 2.294 . S
O105 C114 1.240 . S
O106 In104 2.326 . S
O106 C114 1.252 . S
C107 O110 1.252 . S
C107 O111 1.260 . S
C108 O115 1.240 . S
C108 O116 1.252 . S
C109 O112 1.252 . S
C109 O113 1.260 . S
O110 In104 2.266 . S
O110 C107 1.252 . S
O111 In104 2.326 . S
O111 C107 1.260 . S
O112 In104 2.266 1_565 S
O112 C109 1.252 . S
O113 In104 2.326 1_565 S
O113 C109 1.260 . S
C114 O105 1.240 . S
C114 O106 1.252 . S
O115 In104 2.294 . S
O115 C108 1.240 . S
O116 In104 2.326 . S
O116 C108 1.252 . S
In117 O118 2.294 . S
In117 O119 2.326 . S
In117 O123 2.266 . S
In117 O124 2.326 . S
In117 O125 2.266 . S
In117 O126 2.326 . S
In117 O128 2.294 . S
In117 O129 2.326 . S
O118 In117 2.294 . S
O118 C127 1.240 . S
O119 In117 2.326 . S
O119 C127 1.252 . S
C120 O123 1.252 . S
C120 O124 1.260 . S
C121 O128 1.240 . S
C121 O129 1.252 . S
C122 O125 1.252 . S
C122 O126 1.260 . S
O123 In117 2.266 . S
O123 C120 1.252 . S
O124 In117 2.326 . S
O124 C120 1.260 . S
O125 In117 2.266 . S
O125 C122 1.252 . S
O126 In117 2.326 . S
O126 C122 1.260 . S
C127 O118 1.240 . S
C127 O119 1.252 . S
O128 In117 2.294 . S
O128 C121 1.240 . S
O129 In117 2.326 . S
O129 C121 1.252 . S
In130 O131 2.294 1_545 S
In130 O132 2.328 . S
In130 O136 2.266 . S
In130 O137 2.326 . S
In130 O138 2.266 . S
In130 O139 2.326 . S
In130 O141 2.294 1_545 S
In130 O142 2.326 1_545 S
O131 In130 2.294 1_565 S
O131 C140 1.240 . S
O132 In130 2.328 . S
O132 C140 1.254 1_545 S
C133 O136 1.252 . S
C133 O137 1.260 . S
C134 O141 1.240 . S
C134 O142 1.252 . S
C135 O138 1.252 . S
C135 O139 1.260 . S
O136 In130 2.266 . S
O136 C133 1.252 . S
O137 In130 2.326 . S
O137 C133 1.260 . S
O138 In130 2.266 . S
O138 C135 1.252 . S
O139 In130 2.326 . S
O139 C135 1.260 . S
C140 O131 1.240 . S
C140 O132 1.254 1_565 S
O141 In130 2.294 1_565 S
O141 C134 1.240 . S
O142 In130 2.326 1_565 S
O142 C134 1.252 . S
In143 O144 2.294 . S
In143 O145 2.326 . S
In143 O149 2.266 1_554 S
In143 O150 2.326 1_554 S
In143 O151 2.266 . S
In143 O152 2.326 . S
In143 O154 2.294 . S
In143 O155 2.326 . S
O144 In143 2.294 . S
O144 C153 1.240 . S
O145 In143 2.326 . S
O145 C153 1.252 . S
C146 O149 1.252 . S
C146 O150 1.260 . S
C147 O154 1.240 . S
C147 O155 1.252 . S
C148 O151 1.252 . S
C148 O152 1.260 . S
O149 In143 2.266 1_556 S
O149 C146 1.252 . S
O150 In143 2.326 1_556 S
O150 C146 1.260 . S
O151 In143 2.266 . S
O151 C148 1.252 . S
O152 In143 2.326 . S
O152 C148 1.260 . S
C153 O144 1.240 . S
C153 O145 1.252 . S
O154 In143 2.294 . S
O154 C147 1.240 . S
O155 In143 2.326 . S
O155 C147 1.252 . S
In156 O157 2.294 . S
In156 O158 2.326 . S
In156 O162 2.266 1_554 S
In156 O163 2.326 1_554 S
In156 O164 2.266 . S
In156 O165 2.326 . S
In156 O167 2.294 . S
In156 O168 2.326 . S
O157 In156 2.294 . S
O157 C166 1.240 . S
O158 In156 2.326 . S
O158 C166 1.252 . S
C159 O162 1.252 . S
C159 O163 1.260 . S
C160 O167 1.240 . S
C160 O168 1.252 . S
C161 O164 1.252 . S
C161 O165 1.260 . S
O162 In156 2.266 1_556 S
O162 C159 1.252 . S
O163 In156 2.326 1_556 S
O163 C159 1.260 . S
O164 In156 2.266 . S
O164 C161 1.252 . S
O165 In156 2.326 . S
O165 C161 1.260 . S
C166 O157 1.240 . S
C166 O158 1.252 . S
O167 In156 2.294 . S
O167 C160 1.240 . S
O168 In156 2.326 . S
O168 C160 1.252 . S
In169 O170 2.294 . S
In169 O171 2.326 . S
In169 O175 2.266 . S
In169 O176 2.326 . S
In169 O177 2.266 . S
In169 O178 2.326 1_554 S
In169 O180 2.294 . S
In169 O181 2.326 . S
O170 In169 2.294 . S
O170 C179 1.240 . S
O171 In169 2.326 . S
O171 C179 1.252 . S
C172 O175 1.252 . S
C172 O176 1.260 . S
C173 O180 1.240 . S
C173 O181 1.252 . S
C174 O177 1.252 1_556 S
C174 O178 1.260 . S
O175 In169 2.266 . S
O175 C172 1.252 . S
O176 In169 2.326 . S
O176 C172 1.260 . S
O177 In169 2.266 . S
O177 C174 1.252 1_554 S
O178 In169 2.326 1_556 S
O178 C174 1.260 . S
C179 O170 1.240 . S
C179 O171 1.252 . S
O180 In169 2.294 . S
O180 C173 1.240 . S
O181 In169 2.326 . S
O181 C173 1.252 . S
In182 O183 2.294 . S
In182 O184 2.326 . S
In182 O188 2.266 . S
In182 O189 2.326 . S
In182 O190 2.266 . S
In182 O191 2.326 . S
In182 O193 2.294 . S
In182 O194 2.326 . S
O183 In182 2.294 . S
O183 C192 1.240 . S
O184 In182 2.326 . S
O184 C192 1.252 . S
C185 O188 1.252 . S
C185 O189 1.260 . S
C186 O193 1.240 . S
C186 O194 1.252 . S
C187 O190 1.252 . S
C187 O191 1.260 . S
O188 In182 2.266 . S
O188 C185 1.252 . S
O189 In182 2.326 . S
O189 C185 1.260 . S
O190 In182 2.266 . S
O190 C187 1.252 . S
O191 In182 2.326 . S
O191 C187 1.260 . S
C192 O183 1.240 . S
C192 O184 1.252 . S
O193 In182 2.294 . S
O193 C186 1.240 . S
O194 In182 2.326 . S
O194 C186 1.252 . S
In195 O196 2.294 . S
In195 O197 2.326 . S
In195 O201 2.266 . S
In195 O202 2.326 . S
In195 O203 2.266 . S
In195 O204 2.326 . S
In195 O206 2.294 . S
In195 O207 2.326 . S
O196 In195 2.294 . S
O196 C205 1.240 . S
O197 In195 2.326 . S
O197 C205 1.252 . S
C198 O201 1.252 . S
C198 O202 1.260 . S
C199 O206 1.240 . S
C199 O207 1.252 . S
C200 O203 1.252 . S
C200 O204 1.260 . S
O201 In195 2.266 . S
O201 C198 1.252 . S
O202 In195 2.326 . S
O202 C198 1.260 . S
O203 In195 2.266 . S
O203 C200 1.252 . S
O204 In195 2.326 . S
O204 C200 1.260 . S
C205 O196 1.240 . S
C205 O197 1.252 . S
O206 In195 2.294 . S
O206 C199 1.240 . S
O207 In195 2.326 . S
O207 C199 1.252 . S
In208 O209 2.294 . S
In208 O210 2.326 . S
In208 O214 2.266 . S
In208 O215 2.326 . S
In208 O216 2.266 . S
In208 O217 2.326 . S
In208 O219 2.294 . S
In208 O220 2.326 . S
O209 In208 2.294 . S
O209 C218 1.240 . S
O210 In208 2.326 . S
O210 C218 1.252 . S
C211 O214 1.252 . S
C211 O215 1.260 . S
C212 O219 1.240 . S
C212 O220 1.252 . S
C213 O216 1.252 . S
C213 O217 1.260 . S
O214 In208 2.266 . S
O214 C211 1.252 . S
O215 In208 2.326 . S
O215 C211 1.260 . S
O216 In208 2.266 . S
O216 C213 1.252 . S
O217 In208 2.326 . S
O217 C213 1.260 . S
C218 O209 1.240 . S
C218 O210 1.252 . S
O219 In208 2.294 . S
O219 C212 1.240 . S
O220 In208 2.326 . S
O220 C212 1.252 . S
In221 O222 2.294 . S
In221 O223 2.326 . S
In221 O227 2.266 . S
In221 O228 2.326 . S
In221 O229 2.266 . S
In221 O230 2.326 . S
In221 O232 2.294 . S
In221 O233 2.326 . S
O222 In221 2.294 . S
O222 C231 1.240 . S
O223 In221 2.326 . S
O223 C231 1.252 . S
C224 O227 1.252 . S
C224 O228 1.260 . S
C225 O232 1.240 . S
C225 O233 1.252 . S
C226 O229 1.252 . S
C226 O230 1.260 . S
O227 In221 2.266 . S
O227 C224 1.252 . S
O228 In221 2.326 . S
O228 C224 1.260 . S
O229 In221 2.266 . S
O229 C226 1.252 . S
O230 In221 2.326 . S
O230 C226 1.260 . S
C231 O222 1.240 . S
C231 O223 1.252 . S
O232 In221 2.294 . S
O232 C225 1.240 . S
O233 In221 2.326 . S
O233 C225 1.252 . S
In234 O235 2.294 . S
In234 O236 2.326 . S
In234 O240 2.266 . S
In234 O241 2.326 . S
In234 O242 2.266 . S
In234 O243 2.326 . S
In234 O245 2.294 . S
In234 O246 2.326 . S
O235 In234 2.294 . S
O235 C244 1.240 . S
O236 In234 2.326 . S
O236 C244 1.252 . S
C237 O240 1.252 . S
C237 O241 1.260 . S
C238 O245 1.240 . S
C238 O246 1.252 . S
C239 O242 1.252 . S
C239 O243 1.260 . S
O240 In234 2.266 . S
O240 C237 1.252 . S
O241 In234 2.326 . S
O241 C237 1.260 . S
O242 In234 2.266 . S
O242 C239 1.252 . S
O243 In234 2.326 . S
O243 C239 1.260 . S
C244 O235 1.240 . S
C244 O236 1.252 . S
O245 In234 2.294 . S
O245 C238 1.240 . S
O246 In234 2.326 . S
O246 C238 1.252 . S
In247 O248 2.294 . S
In247 O249 2.326 . S
In247 O253 2.266 . S
In247 O254 2.326 . S
In247 O255 2.266 . S
In247 O256 2.326 . S
In247 O258 2.294 . S
In247 O259 2.326 . S
O248 In247 2.294 . S
O248 C257 1.240 . S
O249 In247 2.326 . S
O249 C257 1.252 . S
C250 O253 1.252 . S
C250 O254 1.260 . S
C251 O258 1.240 . S
C251 O259 1.252 . S
C252 O255 1.252 . S
C252 O256 1.260 . S
O253 In247 2.266 . S
O253 C250 1.252 . S
O254 In247 2.326 . S
O254 C250 1.260 . S
O255 In247 2.266 . S
O255 C252 1.252 . S
O256 In247 2.326 . S
O256 C252 1.260 . S
C257 O248 1.240 . S
C257 O249 1.252 . S
O258 In247 2.294 . S
O258 C251 1.240 . S
O259 In247 2.326 . S
O259 C251 1.252 . S
In260 O261 2.294 . S
In260 O262 2.326 . S
In260 O266 2.266 . S
In260 O267 2.326 . S
In260 O268 2.266 1_554 S
In260 O269 2.326 1_554 S
In260 O271 2.294 . S
In260 O272 2.326 . S
O261 In260 2.294 . S
O261 C270 1.240 . S
O262 In260 2.326 . S
O262 C270 1.252 . S
C263 O266 1.252 . S
C263 O267 1.260 . S
C264 O271 1.240 . S
C264 O272 1.252 . S
C265 O268 1.252 . S
C265 O269 1.260 . S
O266 In260 2.266 . S
O266 C263 1.252 . S
O267 In260 2.326 . S
O267 C263 1.260 . S
O268 In260 2.266 1_556 S
O268 C265 1.252 . S
O269 In260 2.326 1_556 S
O269 C265 1.260 . S
C270 O261 1.240 . S
C270 O262 1.252 . S
O271 In260 2.294 . S
O271 C264 1.240 . S
O272 In260 2.326 . S
O272 C264 1.252 . S
In273 O274 2.294 . S
In273 O275 2.326 . S
In273 O279 2.266 . S
In273 O280 2.326 . S
In273 O281 2.266 . S
In273 O282 2.326 . S
In273 O284 2.294 . S
In273 O285 2.326 . S
O274 In273 2.294 . S
O274 C283 1.240 . S
O275 In273 2.326 . S
O275 C283 1.252 . S
C276 O279 1.252 . S
C276 O280 1.260 . S
C277 O284 1.240 . S
C277 O285 1.252 . S
C278 O281 1.252 . S
C278 O282 1.260 . S
O279 In273 2.266 . S
O279 C276 1.252 . S
O280 In273 2.326 . S
O280 C276 1.260 . S
O281 In273 2.266 . S
O281 C278 1.252 . S
O282 In273 2.326 . S
O282 C278 1.260 . S
C283 O274 1.240 . S
C283 O275 1.252 . S
O284 In273 2.294 . S
O284 C277 1.240 . S
O285 In273 2.326 . S
O285 C277 1.252 . S
In286 O287 2.294 . S
In286 O288 2.326 . S
In286 O292 2.266 . S
In286 O293 2.326 . S
In286 O294 2.266 . S
In286 O295 2.326 . S
In286 O297 2.294 . S
In286 O298 2.326 . S
O287 In286 2.294 . S
O287 C296 1.240 . S
O288 In286 2.326 . S
O288 C296 1.252 . S
C289 O292 1.252 . S
C289 O293 1.260 . S
C290 O297 1.240 . S
C290 O298 1.252 . S
C291 O294 1.252 . S
C291 O295 1.260 . S
O292 In286 2.266 . S
O292 C289 1.252 . S
O293 In286 2.326 . S
O293 C289 1.260 . S
O294 In286 2.266 . S
O294 C291 1.252 . S
O295 In286 2.326 . S
O295 C291 1.260 . S
C296 O287 1.240 . S
C296 O288 1.252 . S
O297 In286 2.294 . S
O297 C290 1.240 . S
O298 In286 2.326 . S
O298 C290 1.252 . S
In299 O300 2.294 . S
In299 O301 2.326 . S
In299 O305 2.266 . S
In299 O306 2.326 . S
In299 O307 2.266 . S
In299 O308 2.326 . S
In299 O310 2.294 . S
In299 O311 2.326 . S
O300 In299 2.294 . S
O300 C309 1.240 . S
O301 In299 2.326 . S
O301 C309 1.252 . S
C302 O305 1.252 . S
C302 O306 1.260 . S
C303 O310 1.240 . S
C303 O311 1.252 . S
C304 O307 1.252 . S
C304 O308 1.260 . S
O305 In299 2.266 . S
O305 C302 1.252 . S
O306 In299 2.326 . S
O306 C302 1.260 . S
O307 In299 2.266 . S
O307 C304 1.252 . S
O308 In299 2.326 . S
O308 C304 1.260 . S
C309 O300 1.240 . S
C309 O301 1.252 . S
O310 In299 2.294 . S
O310 C303 1.240 . S
O311 In299 2.326 . S
O311 C303 1.252 . S
La312 C314 2.928 1_455 S
La312 O332 2.521 1_454 S
La312 O333 2.628 1_455 S
La312 O334 2.554 1_554 S
La312 O335 2.757 . S
La312 O336 2.470 . S
La312 O341 2.482 . S
La312 O343 2.503 . S
La313 C323 2.928 . S
La313 O335 2.482 . S
La313 O337 2.503 . S
La313 O338 2.521 . S
La313 O339 2.628 . S
La313 O340 2.554 . S
La313 O341 2.757 . S
La313 O342 2.470 . S
C314 La312 2.928 1_655 S
C314 C315 1.503 . S
C314 O332 1.261 1_554 S
C314 O333 1.243 . S
C315 C314 1.503 . S
C315 C316 1.394 1_554 S
C315 C320 1.373 . S
C316 C315 1.394 1_556 S
C316 C317 1.380 . S
C316 H344 0.930 . S
C317 C316 1.380 . S
C317 C318 1.376 . S
C317 H345 0.930 . S
C318 C317 1.376 . S
C318 C319 1.370 1_556 S
C319 C318 1.370 1_554 S
C319 C320 1.396 . S
C319 H346 0.929 . S
C320 C315 1.373 . S
C320 C319 1.396 . S
C320 H347 0.929 . S
C321 O334 1.240 . S
C321 O335 1.289 1_556 S
C322 O336 1.258 . S
C322 O337 1.256 . S
C323 La313 2.928 . S
C323 C324 1.503 . S
C323 O338 1.261 . S
C323 O339 1.243 . S
C324 C323 1.503 . S
C324 C325 1.394 . S
C324 C329 1.373 . S
C325 C324 1.394 . S
C325 C326 1.380 . S
C325 H348 0.930 . S
C326 C325 1.380 . S
C326 C327 1.376 . S
C326 H349 0.930 . S
C327 C326 1.376 . S
C327 C328 1.370 . S
C328 C327 1.370 . S
C328 C329 1.396 . S
C328 H350 0.929 . S
C329 C324 1.373 . S
C329 C328 1.396 . S
C329 H351 0.929 . S
C330 O340 1.240 . S
C330 O341 1.289 . S
C331 O342 1.258 . S
C331 O343 1.256 . S
O332 La312 2.521 1_656 S
O332 C314 1.261 1_556 S
O333 La312 2.628 1_655 S
O333 C314 1.243 . S
O334 La312 2.554 1_556 S
O334 C321 1.240 . S
O335 La312 2.757 . S
O335 La313 2.482 . S
O335 C321 1.289 1_554 S
O336 La312 2.470 . S
O336 C322 1.258 . S
O337 La313 2.503 . S
O337 C322 1.256 . S
O338 La313 2.521 . S
O338 C323 1.261 . S
O339 La313 2.628 . S
O339 C323 1.243 . S
O340 La313 2.554 . S
O340 C330 1.240 . S
O341 La312 2.482 . S
O341 La313 2.757 . S
O341 C330 1.289 . S
O342 La313 2.470 . S
O342 C331 1.258 . S
O343 La312 2.503 . S
O343 C331 1.256 . S
H344 C316 0.930 . S
H345 C317 0.930 . S
H346 C319 0.929 . S
H347 C320 0.929 . S
H348 C325 0.930 . S
H349 C326 0.930 . S
H350 C328 0.929 . S
H351 C329 0.929 . S
La352 C354 2.928 . S
La352 O372 2.521 . S
La352 O373 2.628 . S
La352 O374 2.554 . S
La352 O375 2.757 . S
La352 O376 2.470 . S
La352 O381 2.482 . S
La352 O383 2.503 . S
La353 C363 2.928 . S
La353 O375 2.482 . S
La353 O377 2.503 . S
La353 O378 2.521 . S
La353 O379 2.628 . S
La353 O380 2.554 . S
La353 O381 2.757 . S
La353 O382 2.470 . S
C354 La352 2.928 . S
C354 C355 1.503 . S
C354 O372 1.261 . S
C354 O373 1.243 . S
C355 C354 1.503 . S
C355 C356 1.394 . S
C355 C360 1.373 . S
C356 C355 1.394 . S
C356 C357 1.380 . S
C356 H384 0.930 . S
C357 C356 1.380 . S
C357 C358 1.376 . S
C357 H385 0.930 . S
C358 C357 1.376 . S
C358 C359 1.370 . S
C359 C358 1.370 . S
C359 C360 1.396 . S
C359 H386 0.929 . S
C360 C355 1.373 . S
C360 C359 1.396 . S
C360 H387 0.929 . S
C361 O374 1.240 . S
C361 O375 1.289 . S
C362 O376 1.258 . S
C362 O377 1.256 . S
C363 La353 2.928 . S
C363 C364 1.503 . S
C363 O378 1.261 . S
C363 O379 1.243 . S
C364 C363 1.503 . S
C364 C365 1.394 . S
C364 C369 1.373 . S
C365 C364 1.394 . S
C365 C366 1.380 . S
C365 H388 0.930 . S
C366 C365 1.380 . S
C366 C367 1.376 . S
C366 H389 0.930 . S
C367 C366 1.376 . S
C367 C368 1.370 . S
C368 C367 1.370 . S
C368 C369 1.396 . S
C368 H390 0.929 . S
C369 C364 1.373 . S
C369 C368 1.396 . S
C369 H391 0.929 . S
C370 O380 1.240 . S
C370 O381 1.289 . S
C371 O382 1.258 . S
C371 O383 1.256 . S
O372 La352 2.521 . S
O372 C354 1.261 . S
O373 La352 2.628 . S
O373 C354 1.243 . S
O374 La352 2.554 . S
O374 C361 1.240 . S
O375 La352 2.757 . S
O375 La353 2.482 . S
O375 C361 1.289 . S
O376 La352 2.470 . S
O376 C362 1.258 . S
O377 La353 2.503 . S
O377 C362 1.256 . S
O378 La353 2.521 . S
O378 C363 1.261 . S
O379 La353 2.628 . S
O379 C363 1.243 . S
O380 La353 2.554 . S
O380 C370 1.240 . S
O381 La352 2.482 . S
O381 La353 2.757 . S
O381 C370 1.289 . S
O382 La353 2.470 . S
O382 C371 1.258 . S
O383 La352 2.503 . S
O383 C371 1.256 . S
H384 C356 0.930 . S
H385 C357 0.930 . S
H386 C359 0.929 . S
H387 C360 0.929 . S
H388 C365 0.930 . S
H389 C366 0.930 . S
H390 C368 0.929 . S
H391 C369 0.929 . S
La392 C394 2.928 . S
La392 O412 2.521 . S
La392 O413 2.628 . S
La392 O414 2.554 . S
La392 O415 2.757 . S
La392 O416 2.470 1_545 S
La392 O421 2.482 . S
La392 O423 2.503 . S
La393 C403 2.928 . S
La393 O415 2.482 . S
La393 O417 2.503 1_545 S
La393 O418 2.521 . S
La393 O419 2.628 . S
La393 O420 2.554 . S
La393 O421 2.757 . S
La393 O422 2.470 . S
C394 La392 2.928 . S
C394 C395 1.503 1_545 S
C394 O412 1.261 . S
C394 O413 1.243 . S
C395 C394 1.503 1_565 S
C395 C396 1.394 . S
C395 C400 1.373 . S
C396 C395 1.394 . S
C396 C397 1.380 . S
C396 H424 0.980 . S
C397 C396 1.380 . S
C397 C398 1.376 . S
C397 H425 0.930 . S
C398 C397 1.376 . S
C398 C399 1.370 . S
C399 C398 1.370 . S
C399 C400 1.396 . S
C399 H426 0.929 . S
C400 C395 1.373 . S
C400 C399 1.396 . S
C400 H427 0.929 . S
C401 O414 1.240 . S
C401 O415 1.289 . S
C402 O416 1.258 . S
C402 O417 1.256 . S
C403 La393 2.928 . S
C403 C404 1.503 . S
C403 O418 1.261 . S
C403 O419 1.243 . S
C404 C403 1.503 . S
C404 C405 1.394 . S
C404 C409 1.373 . S
C405 C404 1.394 . S
C405 C406 1.380 . S
C405 H428 0.930 . S
C406 C405 1.380 . S
C406 C407 1.376 . S
C406 H429 0.930 . S
C407 C406 1.376 . S
C407 C408 1.370 . S
C408 C407 1.370 . S
C408 C409 1.396 . S
C408 H430 0.929 . S
C409 C404 1.373 . S
C409 C408 1.396 . S
C409 H431 0.929 . S
C410 O420 1.240 . S
C410 O421 1.289 . S
C411 O422 1.258 . S
C411 O423 1.256 . S
O412 La392 2.521 . S
O412 C394 1.261 . S
O413 La392 2.628 . S
O413 C394 1.243 . S
O414 La392 2.554 . S
O414 C401 1.240 . S
O415 La392 2.757 . S
O415 La393 2.482 . S
O415 C401 1.289 . S
O416 La392 2.470 1_565 S
O416 C402 1.258 . S
O417 La393 2.503 1_565 S
O417 C402 1.256 . S
O418 La393 2.521 . S
O418 C403 1.261 . S
O419 La393 2.628 . S
O419 C403 1.243 . S
O420 La393 2.554 . S
O420 C410 1.240 . S
O421 La392 2.482 . S
O421 La393 2.757 . S
O421 C410 1.289 . S
O422 La393 2.470 . S
O422 C411 1.258 . S
O423 La392 2.503 . S
O423 C411 1.256 . S
H424 C396 0.980 . S
H425 C397 0.930 . S
H426 C399 0.929 . S
H427 C400 0.929 . S
H428 C405 0.930 . S
H429 C406 0.930 . S
H430 C408 0.929 . S
H431 C409 0.929 . S
La432 C434 2.928 . S
La432 O452 2.521 . S
La432 O453 2.628 . S
La432 O454 2.554 . S
La432 O455 2.757 . S
La432 O456 2.470 . S
La432 O461 2.482 . S
La432 O463 2.503 . S
La433 C443 2.928 . S
La433 O455 2.482 . S
La433 O457 2.503 . S
La433 O458 2.521 . S
La433 O459 2.628 . S
La433 O460 2.554 . S
La433 O461 2.757 . S
La433 O462 2.470 . S
C434 La432 2.928 . S
C434 C435 1.503 . S
C434 O452 1.261 . S
C434 O453 1.243 . S
C435 C434 1.503 . S
C435 C436 1.394 . S
C435 C440 1.373 . S
C436 C435 1.394 . S
C436 C437 1.380 . S
C436 H464 0.930 . S
C437 C436 1.380 . S
C437 C438 1.376 . S
C437 H465 0.930 . S
C438 C437 1.376 . S
C438 C439 1.370 . S
C439 C438 1.370 . S
C439 C440 1.396 . S
C439 H466 0.929 . S
C440 C435 1.373 . S
C440 C439 1.396 . S
C440 H467 0.929 . S
C441 O454 1.240 . S
C441 O455 1.289 . S
C442 O456 1.258 . S
C442 O457 1.256 . S
C443 La433 2.928 . S
C443 C444 1.503 . S
C443 O458 1.261 . S
C443 O459 1.243 . S
C444 C443 1.503 . S
C444 C445 1.394 . S
C444 C449 1.373 . S
C445 C444 1.394 . S
C445 C446 1.380 . S
C445 H468 0.930 . S
C446 C445 1.380 . S
C446 C447 1.376 . S
C446 H469 0.930 . S
C447 C446 1.376 . S
C447 C448 1.370 . S
C448 C447 1.370 . S
C448 C449 1.396 . S
C448 H470 0.929 . S
C449 C444 1.373 . S
C449 C448 1.396 . S
C449 H471 0.929 . S
C450 O460 1.240 . S
C450 O461 1.289 . S
C451 O462 1.258 . S
C451 O463 1.256 . S
O452 La432 2.521 . S
O452 C434 1.261 . S
O453 La432 2.628 . S
O453 C434 1.243 . S
O454 La432 2.554 . S
O454 C441 1.240 . S
O455 La432 2.757 . S
O455 La433 2.482 . S
O455 C441 1.289 . S
O456 La432 2.470 . S
O456 C442 1.258 . S
O457 La433 2.503 . S
O457 C442 1.256 . S
O458 La433 2.521 . S
O458 C443 1.261 . S
O459 La433 2.628 . S
O459 C443 1.243 . S
O460 La433 2.554 . S
O460 C450 1.240 . S
O461 La432 2.482 . S
O461 La433 2.757 . S
O461 C450 1.289 . S
O462 La433 2.470 . S
O462 C451 1.258 . S
O463 La432 2.503 . S
O463 C451 1.256 . S
H464 C436 0.930 . S
H465 C437 0.930 . S
H466 C439 0.929 . S
H467 C440 0.929 . S
H468 C445 0.930 . S
H469 C446 0.930 . S
H470 C448 0.929 . S
H471 C449 0.929 . S
La472 C474 2.928 . S
La472 O492 2.521 . S
La472 O493 2.628 . S
La472 O494 2.554 . S
La472 O495 2.757 . S
La472 O496 2.470 . S
La472 O501 2.482 . S
La472 O503 2.503 . S
La473 C483 2.928 . S
La473 O495 2.482 1_565 S
La473 O497 2.503 1_565 S
La473 O498 2.521 . S
La473 O499 2.628 . S
La473 O500 2.554 1_565 S
La473 O501 2.757 1_565 S
La473 O502 2.470 1_565 S
C474 La472 2.928 . S
C474 C475 1.503 . S
C474 O492 1.261 . S
C474 O493 1.243 . S
C475 C474 1.503 . S
C475 C476 1.394 . S
C475 C480 1.373 . S
C476 C475 1.394 . S
C476 C477 1.380 . S
C476 H504 0.930 . S
C477 C476 1.380 . S
C477 C478 1.376 . S
C477 H505 0.930 . S
C478 C477 1.376 . S
C478 C479 1.370 . S
C479 C478 1.370 . S
C479 C480 1.396 . S
C479 H506 0.929 . S
C480 C475 1.373 . S
C480 C479 1.396 . S
C480 H507 0.929 . S
C481 O494 1.240 . S
C481 O495 1.289 . S
C482 O496 1.258 . S
C482 O497 1.256 . S
C483 La473 2.928 . S
C483 C484 1.503 . S
C483 O498 1.261 . S
C483 O499 1.243 . S
C484 C483 1.503 . S
C484 C485 1.394 . S
C484 C489 1.373 . S
C485 C484 1.394 . S
C485 C486 1.380 . S
C485 H508 0.930 . S
C486 C485 1.380 . S
C486 C487 1.376 . S
C486 H509 0.930 . S
C487 C486 1.376 . S
C487 C488 1.370 . S
C488 C487 1.370 . S
C488 C489 1.396 . S
C488 H510 0.929 . S
C489 C484 1.373 . S
C489 C488 1.396 . S
C489 H511 0.929 . S
C490 O500 1.240 . S
C490 O501 1.289 . S
C491 O502 1.258 . S
C491 O503 1.256 . S
O492 La472 2.521 . S
O492 C474 1.261 . S
O493 La472 2.628 . S
O493 C474 1.243 . S
O494 La472 2.554 . S
O494 C481 1.240 . S
O495 La472 2.757 . S
O495 La473 2.482 1_545 S
O495 C481 1.289 . S
O496 La472 2.470 . S
O496 C482 1.258 . S
O497 La473 2.503 1_545 S
O497 C482 1.256 . S
O498 La473 2.521 . S
O498 C483 1.261 . S
O499 La473 2.628 . S
O499 C483 1.243 . S
O500 La473 2.554 1_545 S
O500 C490 1.240 . S
O501 La472 2.482 . S
O501 La473 2.757 1_545 S
O501 C490 1.289 . S
O502 La473 2.470 1_545 S
O502 C491 1.258 . S
O503 La472 2.503 . S
O503 C491 1.256 . S
H504 C476 0.930 . S
H505 C477 0.930 . S
H506 C479 0.929 . S
H507 C480 0.929 . S
H508 C485 0.930 . S
H509 C486 0.930 . S
H510 C488 0.929 . S
H511 C489 0.929 . S
La512 C514 2.928 . S
La512 O532 2.521 . S
La512 O533 2.628 . S
La512 O534 2.554 . S
La512 O535 2.757 . S
La512 O536 2.470 . S
La512 O541 2.482 . S
La512 O543 2.503 . S
La513 C523 2.928 . S
La513 O535 2.482 . S
La513 O537 2.503 . S
La513 O538 2.521 . S
La513 O539 2.628 . S
La513 O540 2.554 . S
La513 O541 2.757 . S
La513 O542 2.470 . S
C514 La512 2.928 . S
C514 C515 1.503 . S
C514 O532 1.261 . S
C514 O533 1.243 . S
C515 C514 1.503 . S
C515 C516 1.394 . S
C515 C520 1.373 . S
C516 C515 1.394 . S
C516 C517 1.380 . S
C516 H544 0.930 . S
C517 C516 1.380 . S
C517 C518 1.376 . S
C517 H545 0.930 . S
C518 C517 1.376 . S
C518 C519 1.370 . S
C519 C518 1.370 . S
C519 C520 1.396 . S
C519 H546 0.929 . S
C520 C515 1.373 . S
C520 C519 1.396 . S
C520 H547 0.929 . S
C521 O534 1.240 . S
C521 O535 1.289 . S
C522 O536 1.258 . S
C522 O537 1.256 . S
C523 La513 2.928 . S
C523 C524 1.503 . S
C523 O538 1.261 . S
C523 O539 1.243 . S
C524 C523 1.503 . S
C524 C525 1.394 . S
C524 C529 1.373 . S
C525 C524 1.394 . S
C525 C526 1.380 . S
C525 H548 0.930 . S
C526 C525 1.380 . S
C526 C527 1.376 . S
C526 H549 0.930 . S
C527 C526 1.376 . S
C527 C528 1.370 . S
C528 C527 1.370 . S
C528 C529 1.396 . S
C528 H550 0.929 . S
C529 C524 1.373 . S
C529 C528 1.396 . S
C529 H551 0.929 . S
C530 O540 1.240 . S
C530 O541 1.289 . S
C531 O542 1.258 . S
C531 O543 1.256 . S
O532 La512 2.521 . S
O532 C514 1.261 . S
O533 La512 2.628 . S
O533 C514 1.243 . S
O534 La512 2.554 . S
O534 C521 1.240 . S
O535 La512 2.757 . S
O535 La513 2.482 . S
O535 C521 1.289 . S
O536 La512 2.470 . S
O536 C522 1.258 . S
O537 La513 2.503 . S
O537 C522 1.256 . S
O538 La513 2.521 . S
O538 C523 1.261 . S
O539 La513 2.628 . S
O539 C523 1.243 . S
O540 La513 2.554 . S
O540 C530 1.240 . S
O541 La512 2.482 . S
O541 La513 2.757 . S
O541 C530 1.289 . S
O542 La513 2.470 . S
O542 C531 1.258 . S
O543 La512 2.503 . S
O543 C531 1.256 . S
H544 C516 0.930 . S
H545 C517 0.930 . S
H546 C519 0.929 . S
H547 C520 0.929 . S
H548 C525 0.930 . S
H549 C526 0.930 . S
H550 C528 0.929 . S
H551 C529 0.929 . S
La552 C554 2.928 . S
La552 O572 2.521 . S
La552 O573 2.628 . S
La552 O574 2.554 . S
La552 O575 2.757 1_554 S
La552 O576 2.470 . S
La552 O581 2.482 . S
La552 O583 2.503 . S
La553 C563 2.928 . S
La553 O575 2.482 . S
La553 O577 2.503 . S
La553 O578 2.521 . S
La553 O579 2.628 . S
La553 O580 2.554 . S
La553 O581 2.757 1_556 S
La553 O582 2.470 . S
C554 La552 2.928 . S
C554 C555 1.503 . S
C554 O572 1.261 . S
C554 O573 1.243 . S
C555 C554 1.503 . S
C555 C556 1.394 . S
C555 C560 1.373 . S
C556 C555 1.394 . S
C556 C557 1.380 1_545 S
C556 H584 0.930 1_545 S
C557 C556 1.380 1_565 S
C557 C558 1.376 1_565 S
C557 H585 0.930 . S
C558 C557 1.376 1_545 S
C558 C559 1.370 . S
C559 C558 1.370 . S
C559 C560 1.396 . S
C559 H586 0.929 . S
C560 C555 1.373 . S
C560 C559 1.396 . S
C560 H587 0.929 . S
C561 O574 1.240 1_556 S
C561 O575 1.289 . S
C562 O576 1.258 . S
C562 O577 1.256 1_554 S
C563 La553 2.928 . S
C563 C564 1.503 . S
C563 O578 1.261 . S
C563 O579 1.243 . S
C564 C563 1.503 . S
C564 C565 1.394 . S
C564 C569 1.373 . S
C565 C564 1.394 . S
C565 C566 1.380 . S
C565 H588 0.930 . S
C566 C565 1.380 . S
C566 C567 1.376 . S
C566 H589 0.930 . S
C567 C566 1.376 . S
C567 C568 1.370 . S
C568 C567 1.370 . S
C568 C569 1.396 . S
C568 H590 0.929 . S
C569 C564 1.373 . S
C569 C568 1.396 . S
C569 H591 0.929 . S
C570 O580 1.240 1_554 S
C570 O581 1.289 . S
C571 O582 1.258 1_554 S
C571 O583 1.256 . S
O572 La552 2.521 . S
O572 C554 1.261 . S
O573 La552 2.628 . S
O573 C554 1.243 . S
O574 La552 2.554 . S
O574 C561 1.240 1_554 S
O575 La552 2.757 1_556 S
O575 La553 2.482 . S
O575 C561 1.289 . S
O576 La552 2.470 . S
O576 C562 1.258 . S
O577 La553 2.503 . S
O577 C562 1.256 1_556 S
O578 La553 2.521 . S
O578 C563 1.261 . S
O579 La553 2.628 . S
O579 C563 1.243 . S
O580 La553 2.554 . S
O580 C570 1.240 1_556 S
O581 La552 2.482 . S
O581 La553 2.757 1_554 S
O581 C570 1.289 . S
O582 La553 2.470 . S
O582 C571 1.258 1_556 S
O583 La552 2.503 . S
O583 C571 1.256 . S
H584 C556 0.930 1_565 S
H585 C557 0.930 . S
H586 C559 0.929 . S
H587 C560 0.929 . S
H588 C565 0.930 . S
H589 C566 0.930 . S
H590 C568 0.929 . S
H591 C569 0.929 . S
La592 C594 2.928 . S
La592 O612 2.521 . S
La592 O613 2.628 . S
La592 O614 2.554 . S
La592 O615 2.757 . S
La592 O616 2.470 . S
La592 O621 2.482 . S
La592 O623 2.503 . S
La593 C603 2.928 . S
La593 O615 2.482 . S
La593 O617 2.503 . S
La593 O618 2.521 . S
La593 O619 2.628 . S
La593 O620 2.554 . S
La593 O621 2.757 . S
La593 O622 2.470 . S
C594 La592 2.928 . S
C594 C595 1.503 . S
C594 O612 1.261 . S
C594 O613 1.243 . S
C595 C594 1.503 . S
C595 C596 1.394 . S
C595 C600 1.373 . S
C596 C595 1.394 . S
C596 C597 1.380 . S
C596 H624 0.930 . S
C597 C596 1.380 . S
C597 C598 1.376 . S
C597 H625 0.930 . S
C598 C597 1.376 . S
C598 C599 1.370 . S
C599 C598 1.370 . S
C599 C600 1.396 . S
C599 H626 0.929 . S
C600 C595 1.373 . S
C600 C599 1.396 . S
C600 H627 0.929 . S
C601 O614 1.240 . S
C601 O615 1.289 . S
C602 O616 1.258 . S
C602 O617 1.256 . S
C603 La593 2.928 . S
C603 C604 1.503 . S
C603 O618 1.261 . S
C603 O619 1.243 . S
C604 C603 1.503 . S
C604 C605 1.394 . S
C604 C609 1.373 . S
C605 C604 1.394 . S
C605 C606 1.380 . S
C605 H628 0.930 . S
C606 C605 1.380 . S
C606 C607 1.376 . S
C606 H629 0.930 . S
C607 C606 1.376 . S
C607 C608 1.370 . S
C608 C607 1.370 . S
C608 C609 1.396 . S
C608 H630 0.929 . S
C609 C604 1.373 . S
C609 C608 1.396 . S
C609 H631 0.929 . S
C610 O620 1.240 . S
C610 O621 1.289 . S
C611 O622 1.258 . S
C611 O623 1.256 . S
O612 La592 2.521 . S
O612 C594 1.261 . S
O613 La592 2.628 . S
O613 C594 1.243 . S
O614 La592 2.554 . S
O614 C601 1.240 . S
O615 La592 2.757 . S
O615 La593 2.482 . S
O615 C601 1.289 . S
O616 La592 2.470 . S
O616 C602 1.258 . S
O617 La593 2.503 . S
O617 C602 1.256 . S
O618 La593 2.521 . S
O618 C603 1.261 . S
O619 La593 2.628 . S
O619 C603 1.243 . S
O620 La593 2.554 . S
O620 C610 1.240 . S
O621 La592 2.482 . S
O621 La593 2.757 . S
O621 C610 1.289 . S
O622 La593 2.470 . S
O622 C611 1.258 . S
O623 La592 2.503 . S
O623 C611 1.256 . S
H624 C596 0.930 . S
H625 C597 0.930 . S
H626 C599 0.929 . S
H627 C600 0.929 . S
H628 C605 0.930 . S
H629 C606 0.930 . S
H630 C608 0.929 . S
H631 C609 0.929 . S
La632 C634 2.928 1_554 S
La632 O652 2.521 . S
La632 O653 2.628 1_554 S
La632 O654 2.554 . S
La632 O655 2.757 . S
La632 O656 2.470 1_554 S
La632 O661 2.482 . S
La632 O663 2.503 . S
La633 C643 2.928 1_556 S
La633 O655 2.482 1_556 S
La633 O657 2.503 . S
La633 O658 2.521 1_556 S
La633 O659 2.628 1_556 S
La633 O660 2.554 . S
La633 O661 2.757 1_556 S
La633 O662 2.470 1_556 S
C634 La632 2.928 1_556 S
C634 C635 1.503 . S
C634 O652 1.261 1_556 S
C634 O653 1.243 . S
C635 C634 1.503 . S
C635 C636 1.394 . S
C635 C640 1.373 . S
C636 C635 1.394 . S
C636 C637 1.380 . S
C636 H664 0.930 . S
C637 C636 1.380 . S
C637 C638 1.376 . S
C637 H665 0.930 . S
C638 C637 1.376 . S
C638 C639 1.370 . S
C639 C638 1.370 . S
C639 C640 1.396 . S
C639 H666 0.929 . S
C640 C635 1.373 . S
C640 C639 1.396 . S
C640 H667 0.929 . S
C641 O654 1.240 . S
C641 O655 1.289 . S
C642 O656 1.258 . S
C642 O657 1.256 . S
C643 La633 2.928 1_554 S
C643 C644 1.503 . S
C643 O658 1.261 . S
C643 O659 1.243 . S
C644 C643 1.503 . S
C644 C645 1.394 . S
C644 C649 1.373 . S
C645 C644 1.394 . S
C645 C646 1.380 . S
C645 H668 0.930 . S
C646 C645 1.380 . S
C646 C647 1.376 . S
C646 H669 0.930 . S
C647 C646 1.376 . S
C647 C648 1.370 . S
C648 C647 1.370 . S
C648 C649 1.396 . S
C648 H670 0.929 . S
C649 C644 1.373 . S
C649 C648 1.396 . S
C649 H671 0.929 . S
C650 O660 1.241 1_554 S
C650 O661 1.291 . S
C651 O662 1.258 . S
C651 O663 1.256 . S
O652 La632 2.521 . S
O652 C634 1.261 1_554 S
O653 La632 2.628 1_556 S
O653 C634 1.243 . S
O654 La632 2.554 . S
O654 C641 1.240 . S
O655 La632 2.757 . S
O655 La633 2.482 1_554 S
O655 C641 1.289 . S
O656 La632 2.470 1_556 S
O656 C642 1.258 . S
O657 La633 2.503 . S
O657 C642 1.256 . S
O658 La633 2.521 1_554 S
O658 C643 1.261 . S
O659 La633 2.628 1_554 S
O659 C643 1.243 . S
O660 La633 2.554 . S
O660 C650 1.241 1_556 S
O661 La632 2.482 . S
O661 La633 2.757 1_554 S
O661 C650 1.291 . S
O662 La633 2.470 1_554 S
O662 C651 1.258 . S
O663 La632 2.503 . S
O663 C651 1.256 . S
H664 C636 0.930 . S
H665 C637 0.930 . S
H666 C639 0.929 . S
H667 C640 0.929 . S
H668 C645 0.930 . S
H669 C646 0.930 . S
H670 C648 0.929 . S
H671 C649 0.929 . S
La672 C674 2.928 . S
La672 O692 2.521 . S
La672 O693 2.628 . S
La672 O694 2.554 . S
La672 O695 2.757 . S
La672 O696 2.470 . S
La672 O701 2.482 . S
La672 O703 2.503 . S
La673 C683 2.928 . S
La673 O695 2.482 . S
La673 O697 2.503 . S
La673 O698 2.521 . S
La673 O699 2.628 . S
La673 O700 2.554 . S
La673 O701 2.757 . S
La673 O702 2.470 . S
C674 La672 2.928 . S
C674 C675 1.503 . S
C674 O692 1.261 . S
C674 O693 1.243 . S
C675 C674 1.503 . S
C675 C676 1.394 . S
C675 C680 1.373 . S
C676 C675 1.394 . S
C676 C677 1.380 . S
C676 H704 0.930 . S
C677 C676 1.380 . S
C677 C678 1.376 . S
C677 H705 0.930 . S
C678 C677 1.376 . S
C678 C679 1.370 . S
C679 C678 1.370 . S
C679 C680 1.396 . S
C679 H706 0.929 . S
C680 C675 1.373 . S
C680 C679 1.396 . S
C680 H707 0.929 . S
C681 O694 1.240 . S
C681 O695 1.289 . S
C682 O696 1.258 . S
C682 O697 1.256 . S
C683 La673 2.928 . S
C683 C684 1.503 . S
C683 O698 1.261 . S
C683 O699 1.243 . S
C684 C683 1.503 . S
C684 C685 1.394 . S
C684 C689 1.373 . S
C685 C684 1.394 . S
C685 C686 1.380 . S
C685 H708 0.930 . S
C686 C685 1.380 . S
C686 C687 1.376 . S
C686 H709 0.930 . S
C687 C686 1.376 . S
C687 C688 1.370 . S
C688 C687 1.370 . S
C688 C689 1.396 . S
C688 H710 0.929 . S
C689 C684 1.373 . S
C689 C688 1.396 . S
C689 H711 0.929 . S
C690 O700 1.240 . S
C690 O701 1.289 . S
C691 O702 1.258 . S
C691 O703 1.256 . S
O692 La672 2.521 . S
O692 C674 1.261 . S
O693 La672 2.628 . S
O693 C674 1.243 . S
O694 La672 2.554 . S
O694 C681 1.240 . S
O695 La672 2.757 . S
O695 La673 2.482 . S
O695 C681 1.289 . S
O696 La672 2.470 . S
O696 C682 1.258 . S
O697 La673 2.503 . S
O697 C682 1.256 . S
O698 La673 2.521 . S
O698 C683 1.261 . S
O699 La673 2.628 . S
O699 C683 1.243 . S
O700 La673 2.554 . S
O700 C690 1.240 . S
O701 La672 2.482 . S
O701 La673 2.757 . S
O701 C690 1.289 . S
O702 La673 2.470 . S
O702 C691 1.258 . S
O703 La672 2.503 . S
O703 C691 1.256 . S
H704 C676 0.930 . S
H705 C677 0.930 . S
H706 C679 0.929 . S
H707 C680 0.929 . S
H708 C685 0.930 . S
H709 C686 0.930 . S
H710 C688 0.929 . S
H711 C689 0.929 . S
La712 C714 2.928 . S
La712 O732 2.521 . S
La712 O733 2.628 . S
La712 O734 2.554 . S
La712 O735 2.757 . S
La712 O736 2.470 1_455 S
La712 O741 2.482 . S
La712 O743 2.503 . S
La713 C723 2.928 . S
La713 O735 2.482 . S
La713 O737 2.503 1_455 S
La713 O738 2.521 . S
La713 O739 2.628 . S
La713 O740 2.554 . S
La713 O741 2.757 . S
La713 O742 2.470 . S
C714 La712 2.928 . S
C714 C715 1.503 1_455 S
C714 O732 1.261 . S
C714 O733 1.243 . S
C715 C714 1.503 1_655 S
C715 C716 1.394 . S
C715 C720 1.373 . S
C716 C715 1.394 . S
C716 C717 1.380 . S
C716 H744 0.930 1_655 S
C717 C716 1.380 . S
C717 C718 1.376 . S
C717 H745 0.930 . S
C718 C717 1.376 . S
C718 C719 1.370 . S
C719 C718 1.370 . S
C719 C720 1.396 . S
C719 H746 0.929 . S
C720 C715 1.373 . S
C720 C719 1.396 . S
C720 H747 0.929 . S
C721 O734 1.240 . S
C721 O735 1.289 . S
C722 O736 1.258 . S
C722 O737 1.256 . S
C723 La713 2.928 . S
C723 C724 1.503 . S
C723 O738 1.261 . S
C723 O739 1.243 . S
C724 C723 1.503 . S
C724 C725 1.394 . S
C724 C729 1.373 . S
C725 C724 1.394 . S
C725 C726 1.380 . S
C725 H748 0.930 . S
C726 C725 1.380 . S
C726 C727 1.376 . S
C726 H749 0.930 . S
C727 C726 1.376 . S
C727 C728 1.370 . S
C728 C727 1.370 . S
C728 C729 1.396 . S
C728 H750 0.929 . S
C729 C724 1.373 . S
C729 C728 1.396 . S
C729 H751 0.929 . S
C730 O740 1.240 . S
C730 O741 1.289 . S
C731 O742 1.258 . S
C731 O743 1.256 . S
O732 La712 2.521 . S
O732 C714 1.261 . S
O733 La712 2.628 . S
O733 C714 1.243 . S
O734 La712 2.554 . S
O734 C721 1.240 . S
O735 La712 2.757 . S
O735 La713 2.482 . S
O735 C721 1.289 . S
O736 La712 2.470 1_655 S
O736 C722 1.258 . S
O737 La713 2.503 1_655 S
O737 C722 1.256 . S
O738 La713 2.521 . S
O738 C723 1.261 . S
O739 La713 2.628 . S
O739 C723 1.243 . S
O740 La713 2.554 . S
O740 C730 1.240 . S
O741 La712 2.482 . S
O741 La713 2.757 . S
O741 C730 1.289 . S
O742 La713 2.470 . S
O742 C731 1.258 . S
O743 La712 2.503 . S
O743 C731 1.256 . S
H744 C716 0.930 1_455 S
H745 C717 0.930 . S
H746 C719 0.929 . S
H747 C720 0.929 . S
H748 C725 0.930 . S
H749 C726 0.930 . S
H750 C728 0.929 . S
H751 C729 0.929 . S
La752 C754 2.928 . S
La752 O772 2.521 . S
La752 O773 2.628 . S
La752 O774 2.554 . S
La752 O775 2.757 . S
La752 O776 2.470 . S
La752 O781 2.482 . S
La752 O783 2.503 . S
La753 C763 2.928 . S
La753 O775 2.482 . S
La753 O777 2.503 . S
La753 O778 2.521 . S
La753 O779 2.628 . S
La753 O780 2.554 . S
La753 O781 2.757 . S
La753 O782 2.470 . S
C754 La752 2.928 . S
C754 C755 1.503 . S
C754 O772 1.261 . S
C754 O773 1.243 . S
C755 C754 1.503 . S
C755 C756 1.394 . S
C755 C760 1.373 . S
C756 C755 1.394 . S
C756 C757 1.380 . S
C756 H784 0.930 . S
C757 C756 1.380 . S
C757 C758 1.376 . S
C757 H785 0.930 . S
C758 C757 1.376 . S
C758 C759 1.370 . S
C759 C758 1.370 . S
C759 C760 1.396 . S
C759 H786 0.929 . S
C760 C755 1.373 . S
C760 C759 1.396 . S
C760 H787 0.929 . S
C761 O774 1.240 . S
C761 O775 1.289 . S
C762 O776 1.258 . S
C762 O777 1.256 . S
C763 La753 2.928 . S
C763 C764 1.503 . S
C763 O778 1.261 . S
C763 O779 1.243 . S
C764 C763 1.503 . S
C764 C765 1.394 . S
C764 C769 1.373 . S
C765 C764 1.394 . S
C765 C766 1.380 . S
C765 H788 0.930 . S
C766 C765 1.380 . S
C766 C767 1.376 . S
C766 H789 0.930 . S
C767 C766 1.376 . S
C767 C768 1.370 . S
C768 C767 1.370 . S
C768 C769 1.396 . S
C768 H790 0.929 . S
C769 C764 1.373 . S
C769 C768 1.396 . S
C769 H791 0.929 . S
C770 O780 1.240 . S
C770 O781 1.289 . S
C771 O782 1.258 . S
C771 O783 1.256 . S
O772 La752 2.521 . S
O772 C754 1.261 . S
O773 La752 2.628 . S
O773 C754 1.243 . S
O774 La752 2.554 . S
O774 C761 1.240 . S
O775 La752 2.757 . S
O775 La753 2.482 . S
O775 C761 1.289 . S
O776 La752 2.470 . S
O776 C762 1.258 . S
O777 La753 2.503 . S
O777 C762 1.256 . S
O778 La753 2.521 . S
O778 C763 1.261 . S
O779 La753 2.628 . S
O779 C763 1.243 . S
O780 La753 2.554 . S
O780 C770 1.240 . S
O781 La752 2.482 . S
O781 La753 2.757 . S
O781 C770 1.289 . S
O782 La753 2.470 . S
O782 C771 1.258 . S
O783 La752 2.503 . S
O783 C771 1.256 . S
H784 C756 0.930 . S
H785 C757 0.930 . S
H786 C759 0.929 . S
H787 C760 0.929 . S
H788 C765 0.930 . S
H789 C766 0.930 . S
H790 C768 0.929 . S
H791 C769 0.929 . S
La792 C794 2.928 . S
La792 O812 2.521 . S
La792 O813 2.628 . S
La792 O814 2.554 . S
La792 O815 2.757 . S
La792 O816 2.470 . S
La792 O821 2.482 . S
La792 O823 2.503 . S
La793 C803 2.928 . S
La793 O815 2.482 . S
La793 O817 2.503 . S
La793 O818 2.521 . S
La793 O819 2.628 . S
La793 O820 2.554 . S
La793 O821 2.757 . S
La793 O822 2.470 . S
C794 La792 2.928 . S
C794 C795 1.503 . S
C794 O812 1.261 . S
C794 O813 1.243 . S
C795 C794 1.503 . S
C795 C796 1.394 . S
C795 C800 1.373 . S
C796 C795 1.394 . S
C796 C797 1.380 . S
C796 H824 0.930 . S
C797 C796 1.380 . S
C797 C798 1.376 . S
C797 H825 0.930 . S
C798 C797 1.376 . S
C798 C799 1.370 . S
C799 C798 1.370 . S
C799 C800 1.396 . S
C799 H826 0.929 . S
C800 C795 1.373 . S
C800 C799 1.396 . S
C800 H827 0.929 . S
C801 O814 1.240 . S
C801 O815 1.289 . S
C802 O816 1.258 . S
C802 O817 1.256 . S
C803 La793 2.928 . S
C803 C804 1.503 . S
C803 O818 1.261 . S
C803 O819 1.243 . S
C804 C803 1.503 . S
C804 C805 1.394 . S
C804 C809 1.373 . S
C805 C804 1.394 . S
C805 C806 1.380 . S
C805 H828 0.930 . S
C806 C805 1.380 . S
C806 C807 1.376 . S
C806 H829 0.930 . S
C807 C806 1.376 . S
C807 C808 1.370 . S
C808 C807 1.370 . S
C808 C809 1.396 . S
C808 H830 0.929 . S
C809 C804 1.373 . S
C809 C808 1.396 . S
C809 H831 0.929 . S
C810 O820 1.240 . S
C810 O821 1.289 . S
C811 O822 1.258 . S
C811 O823 1.256 . S
O812 La792 2.521 . S
O812 C794 1.261 . S
O813 La792 2.628 . S
O813 C794 1.243 . S
O814 La792 2.554 . S
O814 C801 1.240 . S
O815 La792 2.757 . S
O815 La793 2.482 . S
O815 C801 1.289 . S
O816 La792 2.470 . S
O816 C802 1.258 . S
O817 La793 2.503 . S
O817 C802 1.256 . S
O818 La793 2.521 . S
O818 C803 1.261 . S
O819 La793 2.628 . S
O819 C803 1.243 . S
O820 La793 2.554 . S
O820 C810 1.240 . S
O821 La792 2.482 . S
O821 La793 2.757 . S
O821 C810 1.289 . S
O822 La793 2.470 . S
O822 C811 1.258 . S
O823 La792 2.503 . S
O823 C811 1.256 . S
H824 C796 0.930 . S
H825 C797 0.930 . S
H826 C799 0.929 . S
H827 C800 0.929 . S
H828 C805 0.930 . S
H829 C806 0.930 . S
H830 C808 0.929 . S
H831 C809 0.929 . S
La832 C834 2.928 . S
La832 O852 2.521 . S
La832 O853 2.628 . S
La832 O854 2.554 . S
La832 O855 2.757 . S
La832 O856 2.470 . S
La832 O861 2.482 . S
La832 O863 2.503 . S
La833 C843 2.928 . S
La833 O855 2.482 . S
La833 O857 2.503 . S
La833 O858 2.521 . S
La833 O859 2.628 . S
La833 O860 2.554 . S
La833 O861 2.757 . S
La833 O862 2.470 . S
C834 La832 2.928 . S
C834 C835 1.503 . S
C834 O852 1.261 . S
C834 O853 1.243 . S
C835 C834 1.503 . S
C835 C836 1.394 . S
C835 C840 1.373 . S
C836 C835 1.394 . S
C836 C837 1.380 . S
C836 H864 0.930 . S
C837 C836 1.380 . S
C837 C838 1.376 . S
C837 H865 0.930 . S
C838 C837 1.376 . S
C838 C839 1.370 . S
C839 C838 1.370 . S
C839 C840 1.396 . S
C839 H866 0.929 . S
C840 C835 1.373 . S
C840 C839 1.396 . S
C840 H867 0.929 . S
C841 O854 1.240 . S
C841 O855 1.289 . S
C842 O856 1.258 . S
C842 O857 1.256 . S
C843 La833 2.928 . S
C843 C844 1.503 . S
C843 O858 1.261 . S
C843 O859 1.243 . S
C844 C843 1.503 . S
C844 C845 1.394 . S
C844 C849 1.373 . S
C845 C844 1.394 . S
C845 C846 1.380 . S
C845 H868 0.930 . S
C846 C845 1.380 . S
C846 C847 1.376 . S
C846 H869 0.930 . S
C847 C846 1.376 . S
C847 C848 1.370 . S
C848 C847 1.370 . S
C848 C849 1.396 . S
C848 H870 0.929 . S
C849 C844 1.373 . S
C849 C848 1.396 . S
C849 H871 0.929 . S
C850 O860 1.240 . S
C850 O861 1.289 . S
C851 O862 1.258 . S
C851 O863 1.256 . S
O852 La832 2.521 . S
O852 C834 1.261 . S
O853 La832 2.628 . S
O853 C834 1.243 . S
O854 La832 2.554 . S
O854 C841 1.240 . S
O855 La832 2.757 . S
O855 La833 2.482 . S
O855 C841 1.289 . S
O856 La832 2.470 . S
O856 C842 1.258 . S
O857 La833 2.503 . S
O857 C842 1.256 . S
O858 La833 2.521 . S
O858 C843 1.261 . S
O859 La833 2.628 . S
O859 C843 1.243 . S
O860 La833 2.554 . S
O860 C850 1.240 . S
O861 La832 2.482 . S
O861 La833 2.757 . S
O861 C850 1.289 . S
O862 La833 2.470 . S
O862 C851 1.258 . S
O863 La832 2.503 . S
O863 C851 1.256 . S
H864 C836 0.930 . S
H865 C837 0.930 . S
H866 C839 0.929 . S
H867 C840 0.929 . S
H868 C845 0.930 . S
H869 C846 0.930 . S
H870 C848 0.929 . S
H871 C849 0.929 . S
La872 C874 2.928 . S
La872 O892 2.521 . S
La872 O893 2.628 . S
La872 O894 2.554 . S
La872 O895 2.757 . S
La872 O896 2.470 . S
La872 O901 2.482 . S
La872 O903 2.503 . S
La873 C883 2.928 . S
La873 O895 2.482 . S
La873 O897 2.503 . S
La873 O898 2.521 . S
La873 O899 2.628 . S
La873 O900 2.554 . S
La873 O901 2.757 . S
La873 O902 2.470 . S
C874 La872 2.928 . S
C874 C875 1.503 . S
C874 O892 1.261 . S
C874 O893 1.243 . S
C875 C874 1.503 . S
C875 C876 1.394 . S
C875 C880 1.373 . S
C876 C875 1.394 . S
C876 C877 1.380 . S
C876 H904 0.930 . S
C877 C876 1.380 . S
C877 C878 1.376 . S
C877 H905 0.930 . S
C878 C877 1.376 . S
C878 C879 1.370 . S
C879 C878 1.370 . S
C879 C880 1.396 . S
C879 H906 0.929 . S
C880 C875 1.373 . S
C880 C879 1.396 . S
C880 H907 0.929 . S
C881 O894 1.240 . S
C881 O895 1.289 . S
C882 O896 1.258 . S
C882 O897 1.256 . S
C883 La873 2.928 . S
C883 C884 1.503 . S
C883 O898 1.261 . S
C883 O899 1.243 . S
C884 C883 1.503 . S
C884 C885 1.394 . S
C884 C889 1.373 . S
C885 C884 1.394 . S
C885 C886 1.380 . S
C885 H908 0.930 . S
C886 C885 1.380 . S
C886 C887 1.376 . S
C886 H909 0.930 . S
C887 C886 1.376 . S
C887 C888 1.370 . S
C888 C887 1.370 . S
C888 C889 1.396 . S
C888 H910 0.929 . S
C889 C884 1.373 . S
C889 C888 1.396 . S
C889 H911 0.929 . S
C890 O900 1.240 . S
C890 O901 1.289 . S
C891 O902 1.258 . S
C891 O903 1.256 . S
O892 La872 2.521 . S
O892 C874 1.261 . S
O893 La872 2.628 . S
O893 C874 1.243 . S
O894 La872 2.554 . S
O894 C881 1.240 . S
O895 La872 2.757 . S
O895 La873 2.482 . S
O895 C881 1.289 . S
O896 La872 2.470 . S
O896 C882 1.258 . S
O897 La873 2.503 . S
O897 C882 1.256 . S
O898 La873 2.521 . S
O898 C883 1.261 . S
O899 La873 2.628 . S
O899 C883 1.243 . S
O900 La873 2.554 . S
O900 C890 1.240 . S
O901 La872 2.482 . S
O901 La873 2.757 . S
O901 C890 1.289 . S
O902 La873 2.470 . S
O902 C891 1.258 . S
O903 La872 2.503 . S
O903 C891 1.256 . S
H904 C876 0.930 . S
H905 C877 0.930 . S
H906 C879 0.929 . S
H907 C880 0.929 . S
H908 C885 0.930 . S
H909 C886 0.930 . S
H910 C888 0.929 . S
H911 C889 0.929 . S
La912 C914 2.928 . S
La912 O932 2.521 . S
La912 O933 2.628 . S
La912 O934 2.554 1_554 S
La912 O935 2.757 . S
La912 O936 2.470 . S
La912 O941 2.482 . S
La912 O943 2.503 . S
La913 C923 2.928 1_455 S
La913 O935 2.482 . S
La913 O937 2.503 . S
La913 O938 2.521 1_455 S
La913 O939 2.628 1_455 S
La913 O940 2.554 . S
La913 O941 2.757 . S
La913 O942 2.470 . S
C914 La912 2.928 . S
C914 C915 1.503 . S
C914 O932 1.261 . S
C914 O933 1.243 . S
C915 C914 1.503 . S
C915 C916 1.394 1_554 S
C915 C920 1.373 . S
C916 C915 1.394 1_556 S
C916 C917 1.380 . S
C916 H944 0.930 . S
C917 C916 1.380 . S
C917 C918 1.376 1_556 S
C917 H945 0.930 . S
C918 C917 1.376 1_554 S
C918 C919 1.370 . S
C919 C918 1.370 . S
C919 C920 1.396 . S
C919 H946 0.929 . S
C920 C915 1.373 . S
C920 C919 1.396 . S
C920 H947 0.929 . S
C921 O934 1.240 . S
C921 O935 1.289 1_556 S
C922 O936 1.258 . S
C922 O937 1.256 . S
C923 La913 2.928 1_655 S
C923 C924 1.503 . S
C923 O938 1.261 . S
C923 O939 1.243 . S
C924 C923 1.503 . S
C924 C925 1.394 . S
C924 C929 1.373 . S
C925 C924 1.394 . S
C925 C926 1.380 . S
C925 H948 0.930 . S
C926 C925 1.380 . S
C926 C927 1.376 . S
C926 H949 0.930 . S
C927 C926 1.376 . S
C927 C928 1.370 . S
C928 C927 1.370 . S
C928 C929 1.396 . S
C928 H950 0.929 . S
C929 C924 1.373 . S
C929 C928 1.396 . S
C929 H951 0.929 . S
C930 O940 1.240 . S
C930 O941 1.289 . S
C931 O942 1.258 . S
C931 O943 1.256 . S
O932 La912 2.521 . S
O932 C914 1.261 . S
O933 La912 2.628 . S
O933 C914 1.243 . S
O934 La912 2.554 1_556 S
O934 C921 1.240 . S
O935 La912 2.757 . S
O935 La913 2.482 . S
O935 C921 1.289 1_554 S
O936 La912 2.470 . S
O936 C922 1.258 . S
O937 La913 2.503 . S
O937 C922 1.256 . S
O938 La913 2.521 1_655 S
O938 C923 1.261 . S
O939 La913 2.628 1_655 S
O939 C923 1.243 . S
O940 La913 2.554 . S
O940 C930 1.240 . S
O941 La912 2.482 . S
O941 La913 2.757 . S
O941 C930 1.289 . S
O942 La913 2.470 . S
O942 C931 1.258 . S
O943 La912 2.503 . S
O943 C931 1.256 . S
H944 C916 0.930 . S
H945 C917 0.930 . S
H946 C919 0.929 . S
H947 C920 0.929 . S
H948 C925 0.930 . S
H949 C926 0.930 . S
H950 C928 0.929 . S
H951 C929 0.929 . S
H952 C960 0.929 1_655 S
H953 C962 0.930 1_655 S
H954 C964 0.930 . S
H955 C967 0.929 . S
H956 C970 0.930 . S
H957 C972 0.956 . S
H958 C972 0.959 . S
H959 C972 0.963 1_556 S
C960 H952 0.929 1_455 S
C960 C961 1.377 . S
C960 C962 1.384 . S
C961 C960 1.377 . S
C961 C967 1.390 . S
C962 H953 0.930 1_455 S
C962 C960 1.384 . S
C962 C963 1.372 . S
C963 C962 1.372 . S
C963 C964 1.400 . S
C963 C968 1.490 . S
C964 H954 0.930 . S
C964 C963 1.400 . S
C964 C967 1.386 . S
H965 C981 0.930 . S
H966 C982 0.931 . S
C967 H955 0.929 . S
C967 C961 1.390 . S
C967 C964 1.386 . S
C968 C963 1.490 . S
C968 C970 1.395 . S
C968 C971 1.403 . S
H969 C975 0.930 1_554 S
C970 H956 0.930 . S
C970 C968 1.395 . S
C970 C973 1.403 . S
C971 C968 1.403 . S
C971 C972 1.525 1_556 S
C971 C975 1.400 . S
C972 H957 0.956 . S
C972 H958 0.959 . S
C972 H959 0.963 1_554 S
C972 C971 1.525 1_554 S
C973 C970 1.403 . S
C973 C974 1.392 . S
C973 C977 1.495 . S
C974 C973 1.392 . S
C974 C975 1.385 . S
C974 C976 1.478 . S
C975 H969 0.930 1_556 S
C975 C971 1.400 . S
C975 C974 1.385 . S
C976 C974 1.478 . S
C976 C978 1.352 1_556 S
C976 C982 1.383 . S
C977 C973 1.495 . S
C977 H983 0.959 . S
C977 H984 0.961 . S
C977 H985 0.964 . S
C978 C976 1.352 1_554 S
C978 C979 1.428 . S
C978 H986 0.930 1_554 S
C979 C978 1.428 . S
C979 C980 1.383 . S
C979 H987 0.929 . S
C980 C979 1.383 . S
C980 C981 1.377 . S
C981 H965 0.930 . S
C981 C980 1.377 . S
C981 C982 1.379 1_554 S
C982 H966 0.931 . S
C982 C976 1.383 . S
C982 C981 1.379 1_556 S
H983 C977 0.959 . S
H984 C977 0.961 . S
H985 C977 0.964 . S
H986 C978 0.930 1_556 S
H987 C979 0.929 . S
H988 C996 0.929 . S
H989 C998 0.930 . S
H990 C1000 0.930 . S
H991 C1003 0.929 . S
H992 C1006 0.930 . S
H993 C1008 0.960 . S
H994 C1008 0.960 . S
H995 C1008 0.960 . S
C996 H988 0.929 . S
C996 C997 1.377 . S
C996 C998 1.384 . S
C997 C996 1.377 . S
C997 C1003 1.390 . S
C998 H989 0.930 . S
C998 C996 1.384 . S
C998 C999 1.372 . S
C999 C998 1.372 . S
C999 C1000 1.400 . S
C999 C1004 1.490 . S
C1000 H990 0.930 . S
C1000 C999 1.400 . S
C1000 C1003 1.386 . S
H1001 C1017 0.930 . S
H1002 C1018 0.931 . S
C1003 H991 0.929 . S
C1003 C997 1.390 . S
C1003 C1000 1.386 . S
C1004 C999 1.490 . S
C1004 C1006 1.395 . S
C1004 C1007 1.403 . S
H1005 C1011 0.930 . S
C1006 H992 0.930 . S
C1006 C1004 1.395 . S
C1006 C1009 1.403 . S
C1007 C1004 1.403 . S
C1007 C1008 1.524 . S
C1007 C1011 1.400 . S
C1008 H993 0.960 . S
C1008 H994 0.960 . S
C1008 H995 0.960 . S
C1008 C1007 1.524 . S
C1009 C1006 1.403 . S
C1009 C1010 1.392 . S
C1009 C1013 1.495 . S
C1010 C1009 1.392 . S
C1010 C1011 1.385 . S
C1010 C1012 1.478 . S
C1011 H1005 0.930 . S
C1011 C1007 1.400 . S
C1011 C1010 1.385 . S
C1012 C1010 1.478 . S
C1012 C1014 1.381 . S
C1012 C1018 1.383 . S
C1013 C1009 1.495 . S
C1013 H1019 0.959 . S
C1013 H1020 0.961 . S
C1013 H1021 0.960 . S
C1014 C1012 1.381 . S
C1014 C1015 1.394 . S
C1014 H1022 0.930 . S
C1015 C1014 1.394 . S
C1015 C1016 1.383 . S
C1015 H1023 0.929 . S
C1016 C1015 1.383 . S
C1016 C1017 1.377 . S
C1017 H1001 0.930 . S
C1017 C1016 1.377 . S
C1017 C1018 1.379 . S
C1018 H1002 0.931 . S
C1018 C1012 1.383 . S
C1018 C1017 1.379 . S
H1019 C1013 0.959 . S
H1020 C1013 0.961 . S
H1021 C1013 0.960 . S
H1022 C1014 0.930 . S
H1023 C1015 0.929 . S
H1024 C1032 0.929 . S
H1025 C1034 0.930 . S
H1026 C1036 0.930 . S
H1027 C1039 0.929 . S
H1028 C1042 0.930 . S
H1029 C1044 0.960 . S
H1030 C1044 0.960 . S
H1031 C1044 0.960 . S
C1032 H1024 0.929 . S
C1032 C1033 1.377 . S
C1032 C1034 1.384 . S
C1033 C1032 1.377 . S
C1033 C1039 1.390 . S
C1034 H1025 0.930 . S
C1034 C1032 1.384 . S
C1034 C1035 1.372 . S
C1035 C1034 1.372 . S
C1035 C1036 1.400 . S
C1035 C1040 1.490 . S
C1036 H1026 0.930 . S
C1036 C1035 1.400 . S
C1036 C1039 1.386 . S
H1037 C1053 0.930 . S
H1038 C1054 0.931 . S
C1039 H1027 0.929 . S
C1039 C1033 1.390 . S
C1039 C1036 1.386 . S
C1040 C1035 1.490 . S
C1040 C1042 1.395 . S
C1040 C1043 1.403 . S
H1041 C1047 0.930 . S
C1042 H1028 0.930 . S
C1042 C1040 1.395 . S
C1042 C1045 1.403 . S
C1043 C1040 1.403 . S
C1043 C1044 1.524 . S
C1043 C1047 1.400 . S
C1044 H1029 0.960 . S
C1044 H1030 0.960 . S
C1044 H1031 0.960 . S
C1044 C1043 1.524 . S
C1045 C1042 1.403 . S
C1045 C1046 1.392 . S
C1045 C1049 1.495 . S
C1046 C1045 1.392 . S
C1046 C1047 1.385 . S
C1046 C1048 1.478 . S
C1047 H1041 0.930 . S
C1047 C1043 1.400 . S
C1047 C1046 1.385 . S
C1048 C1046 1.478 . S
C1048 C1050 1.381 . S
C1048 C1054 1.383 . S
C1049 C1045 1.495 . S
C1049 H1055 0.959 . S
C1049 H1056 0.961 . S
C1049 H1057 0.960 . S
C1050 C1048 1.381 . S
C1050 C1051 1.394 . S
C1050 H1058 0.930 . S
C1051 C1050 1.394 . S
C1051 C1052 1.383 . S
C1051 H1059 0.929 . S
C1052 C1051 1.383 . S
C1052 C1053 1.377 . S
C1053 H1037 0.930 . S
C1053 C1052 1.377 . S
C1053 C1054 1.379 . S
C1054 H1038 0.931 . S
C1054 C1048 1.383 . S
C1054 C1053 1.379 . S
H1055 C1049 0.959 . S
H1056 C1049 0.961 . S
H1057 C1049 0.960 . S
H1058 C1050 0.930 . S
H1059 C1051 0.929 . S
H1060 C1068 0.929 . S
H1061 C1070 0.930 . S
H1062 C1072 0.930 . S
H1063 C1075 0.929 . S
H1064 C1078 0.930 . S
H1065 C1080 0.960 . S
H1066 C1080 0.960 . S
H1067 C1080 0.960 . S
C1068 H1060 0.929 . S
C1068 C1069 1.377 . S
C1068 C1070 1.384 . S
C1069 C1068 1.377 . S
C1069 C1075 1.390 . S
C1070 H1061 0.930 . S
C1070 C1068 1.384 . S
C1070 C1071 1.372 . S
C1071 C1070 1.372 . S
C1071 C1072 1.400 . S
C1071 C1076 1.490 . S
C1072 H1062 0.930 . S
C1072 C1071 1.400 . S
C1072 C1075 1.386 . S
H1073 C1089 0.930 . S
H1074 C1090 0.931 . S
C1075 H1063 0.929 . S
C1075 C1069 1.390 . S
C1075 C1072 1.386 . S
C1076 C1071 1.490 . S
C1076 C1078 1.395 . S
C1076 C1079 1.403 . S
H1077 C1083 0.930 . S
C1078 H1064 0.930 . S
C1078 C1076 1.395 . S
C1078 C1081 1.403 . S
C1079 C1076 1.403 . S
C1079 C1080 1.524 . S
C1079 C1083 1.400 . S
C1080 H1065 0.960 . S
C1080 H1066 0.960 . S
C1080 H1067 0.960 . S
C1080 C1079 1.524 . S
C1081 C1078 1.403 . S
C1081 C1082 1.392 . S
C1081 C1085 1.495 . S
C1082 C1081 1.392 . S
C1082 C1083 1.385 . S
C1082 C1084 1.478 . S
C1083 H1077 0.930 . S
C1083 C1079 1.400 . S
C1083 C1082 1.385 . S
C1084 C1082 1.478 . S
C1084 C1086 1.381 . S
C1084 C1090 1.383 . S
C1085 C1081 1.495 . S
C1085 H1091 0.959 . S
C1085 H1092 0.961 . S
C1085 H1093 0.960 . S
C1086 C1084 1.381 . S
C1086 C1087 1.394 . S
C1086 H1094 0.930 . S
C1087 C1086 1.394 . S
C1087 C1088 1.383 . S
C1087 H1095 0.929 . S
C1088 C1087 1.383 . S
C1088 C1089 1.377 . S
C1089 H1073 0.930 . S
C1089 C1088 1.377 . S
C1089 C1090 1.379 . S
C1090 H1074 0.931 . S
C1090 C1084 1.383 . S
C1090 C1089 1.379 . S
H1091 C1085 0.959 . S
H1092 C1085 0.961 . S
H1093 C1085 0.960 . S
H1094 C1086 0.930 . S
H1095 C1087 0.929 . S
H1096 C1104 0.929 . S
H1097 C1106 0.930 . S
H1098 C1108 0.930 . S
H1099 C1111 0.929 1_655 S
H1100 C1114 0.930 . S
H1101 C1116 0.960 . S
H1102 C1116 0.960 . S
H1103 C1116 0.960 . S
C1104 H1096 0.929 . S
C1104 C1105 1.377 . S
C1104 C1106 1.384 . S
C1105 C1104 1.377 . S
C1105 C1111 1.390 . S
C1106 H1097 0.930 . S
C1106 C1104 1.384 . S
C1106 C1107 1.372 . S
C1107 C1106 1.372 . S
C1107 C1108 1.400 . S
C1107 C1112 1.490 . S
C1108 H1098 0.930 . S
C1108 C1107 1.400 . S
C1108 C1111 1.386 . S
H1109 C1125 0.930 . S
H1110 C1126 0.931 . S
C1111 H1099 0.929 1_455 S
C1111 C1105 1.390 . S
C1111 C1108 1.386 . S
C1112 C1107 1.490 . S
C1112 C1114 1.395 . S
C1112 C1115 1.403 . S
H1113 C1119 0.930 . S
C1114 H1100 0.930 . S
C1114 C1112 1.395 . S
C1114 C1117 1.403 . S
C1115 C1112 1.403 . S
C1115 C1116 1.524 . S
C1115 C1119 1.400 . S
C1116 H1101 0.960 . S
C1116 H1102 0.960 . S
C1116 H1103 0.960 . S
C1116 C1115 1.524 . S
C1117 C1114 1.403 . S
C1117 C1118 1.392 . S
C1117 C1121 1.495 . S
C1118 C1117 1.392 . S
C1118 C1119 1.385 . S
C1118 C1120 1.478 . S
C1119 H1113 0.930 . S
C1119 C1115 1.400 . S
C1119 C1118 1.385 . S
C1120 C1118 1.478 . S
C1120 C1122 1.381 . S
C1120 C1126 1.383 . S
C1121 C1117 1.495 . S
C1121 H1127 0.959 . S
C1121 H1128 0.961 . S
C1121 H1129 0.960 . S
C1122 C1120 1.381 . S
C1122 C1123 1.394 . S
C1122 H1130 0.930 . S
C1123 C1122 1.394 . S
C1123 C1124 1.383 . S
C1123 H1131 0.929 . S
C1124 C1123 1.383 . S
C1124 C1125 1.377 . S
C1125 H1109 0.930 . S
C1125 C1124 1.377 . S
C1125 C1126 1.379 . S
C1126 H1110 0.931 . S
C1126 C1120 1.383 . S
C1126 C1125 1.379 . S
H1127 C1121 0.959 . S
H1128 C1121 0.961 . S
H1129 C1121 0.960 . S
H1130 C1122 0.930 . S
H1131 C1123 0.929 . S
H1132 C1140 0.929 . S
H1133 C1142 0.930 . S
H1134 C1144 0.930 . S
H1135 C1147 0.929 . S
H1136 C1150 0.930 . S
H1137 C1152 0.960 . S
H1138 C1152 0.960 . S
H1139 C1152 0.960 . S
C1140 H1132 0.929 . S
C1140 C1141 1.377 . S
C1140 C1142 1.384 . S
C1141 C1140 1.377 . S
C1141 C1147 1.390 . S
C1142 H1133 0.930 . S
C1142 C1140 1.384 . S
C1142 C1143 1.372 . S
C1143 C1142 1.372 . S
C1143 C1144 1.400 . S
C1143 C1148 1.490 . S
C1144 H1134 0.930 . S
C1144 C1143 1.400 . S
C1144 C1147 1.386 . S
H1145 C1161 0.930 . S
H1146 C1162 0.931 . S
C1147 H1135 0.929 . S
C1147 C1141 1.390 . S
C1147 C1144 1.386 . S
C1148 C1143 1.490 . S
C1148 C1150 1.395 . S
C1148 C1151 1.403 . S
H1149 C1155 0.930 . S
C1150 H1136 0.930 . S
C1150 C1148 1.395 . S
C1150 C1153 1.403 . S
C1151 C1148 1.403 . S
C1151 C1152 1.524 . S
C1151 C1155 1.400 . S
C1152 H1137 0.960 . S
C1152 H1138 0.960 . S
C1152 H1139 0.960 . S
C1152 C1151 1.524 . S
C1153 C1150 1.403 . S
C1153 C1154 1.392 . S
C1153 C1157 1.495 . S
C1154 C1153 1.392 . S
C1154 C1155 1.385 . S
C1154 C1156 1.478 . S
C1155 H1149 0.930 . S
C1155 C1151 1.400 . S
C1155 C1154 1.385 . S
C1156 C1154 1.478 . S
C1156 C1158 1.381 . S
C1156 C1162 1.383 . S
C1157 C1153 1.495 . S
C1157 H1163 0.959 . S
C1157 H1164 0.961 . S
C1157 H1165 0.960 . S
C1158 C1156 1.381 . S
C1158 C1159 1.394 . S
C1158 H1166 0.930 . S
C1159 C1158 1.394 . S
C1159 C1160 1.383 . S
C1159 H1167 0.929 . S
C1160 C1159 1.383 . S
C1160 C1161 1.377 . S
C1161 H1145 0.930 . S
C1161 C1160 1.377 . S
C1161 C1162 1.379 . S
C1162 H1146 0.931 . S
C1162 C1156 1.383 . S
C1162 C1161 1.379 . S
H1163 C1157 0.959 . S
H1164 C1157 0.961 . S
H1165 C1157 0.960 . S
H1166 C1158 0.930 . S
H1167 C1159 0.929 . S
H1168 C1176 0.929 . S
H1169 C1178 0.930 . S
H1170 C1180 0.930 . S
H1171 C1183 0.929 . S
H1172 C1186 0.930 . S
H1173 C1188 0.960 . S
H1174 C1188 0.960 . S
H1175 C1188 0.960 . S
C1176 H1168 0.929 . S
C1176 C1177 1.377 . S
C1176 C1178 1.384 . S
C1177 C1176 1.377 . S
C1177 C1183 1.390 . S
C1178 H1169 0.930 . S
C1178 C1176 1.384 . S
C1178 C1179 1.372 . S
C1179 C1178 1.372 . S
C1179 C1180 1.400 . S
C1179 C1184 1.490 . S
C1180 H1170 0.930 . S
C1180 C1179 1.400 . S
C1180 C1183 1.386 . S
H1181 C1197 0.930 . S
H1182 C1198 0.931 . S
C1183 H1171 0.929 . S
C1183 C1177 1.390 . S
C1183 C1180 1.386 . S
C1184 C1179 1.490 . S
C1184 C1186 1.395 . S
C1184 C1187 1.403 . S
H1185 C1191 0.930 . S
C1186 H1172 0.930 . S
C1186 C1184 1.395 . S
C1186 C1189 1.403 . S
C1187 C1184 1.403 . S
C1187 C1188 1.524 . S
C1187 C1191 1.400 . S
C1188 H1173 0.960 . S
C1188 H1174 0.960 . S
C1188 H1175 0.960 . S
C1188 C1187 1.524 . S
C1189 C1186 1.403 . S
C1189 C1190 1.392 . S
C1189 C1193 1.495 . S
C1190 C1189 1.392 . S
C1190 C1191 1.385 . S
C1190 C1192 1.478 . S
C1191 H1185 0.930 . S
C1191 C1187 1.400 . S
C1191 C1190 1.385 . S
C1192 C1190 1.478 . S
C1192 C1194 1.381 . S
C1192 C1198 1.383 . S
C1193 C1189 1.495 . S
C1193 H1199 0.959 . S
C1193 H1200 0.961 . S
C1193 H1201 0.960 . S
C1194 C1192 1.381 . S
C1194 C1195 1.394 . S
C1194 H1202 0.930 . S
C1195 C1194 1.394 . S
C1195 C1196 1.383 . S
C1195 H1203 0.929 . S
C1196 C1195 1.383 . S
C1196 C1197 1.377 . S
C1197 H1181 0.930 . S
C1197 C1196 1.377 . S
C1197 C1198 1.379 . S
C1198 H1182 0.931 . S
C1198 C1192 1.383 . S
C1198 C1197 1.379 . S
H1199 C1193 0.959 . S
H1200 C1193 0.961 . S
H1201 C1193 0.960 . S
H1202 C1194 0.930 . S
H1203 C1195 0.929 . S
H1204 C1212 0.929 . S
H1205 C1214 0.930 . S
H1206 C1216 0.930 . S
H1207 C1219 0.929 . S
H1208 C1222 0.930 . S
H1209 C1224 0.960 . S
H1210 C1224 0.960 . S
H1211 C1224 0.960 . S
C1212 H1204 0.929 . S
C1212 C1213 1.377 . S
C1212 C1214 1.384 . S
C1213 C1212 1.377 . S
C1213 C1219 1.390 . S
C1214 H1205 0.930 . S
C1214 C1212 1.384 . S
C1214 C1215 1.372 . S
C1215 C1214 1.372 . S
C1215 C1216 1.400 . S
C1215 C1220 1.490 . S
C1216 H1206 0.930 . S
C1216 C1215 1.400 . S
C1216 C1219 1.386 . S
H1217 C1233 0.930 . S
H1218 C1234 0.931 . S
C1219 H1207 0.929 . S
C1219 C1213 1.390 . S
C1219 C1216 1.386 . S
C1220 C1215 1.490 . S
C1220 C1222 1.395 . S
C1220 C1223 1.403 . S
H1221 C1227 0.930 . S
C1222 H1208 0.930 . S
C1222 C1220 1.395 . S
C1222 C1225 1.403 . S
C1223 C1220 1.403 . S
C1223 C1224 1.524 . S
C1223 C1227 1.400 . S
C1224 H1209 0.960 . S
C1224 H1210 0.960 . S
C1224 H1211 0.960 . S
C1224 C1223 1.524 . S
C1225 C1222 1.403 . S
C1225 C1226 1.392 . S
C1225 C1229 1.495 . S
C1226 C1225 1.392 . S
C1226 C1227 1.385 . S
C1226 C1228 1.478 . S
C1227 H1221 0.930 . S
C1227 C1223 1.400 . S
C1227 C1226 1.385 . S
C1228 C1226 1.478 . S
C1228 C1230 1.381 . S
C1228 C1234 1.383 . S
C1229 C1225 1.495 . S
C1229 H1235 0.959 . S
C1229 H1236 0.961 . S
C1229 H1237 0.960 . S
C1230 C1228 1.381 . S
C1230 C1231 1.394 . S
C1230 H1238 0.930 . S
C1231 C1230 1.394 . S
C1231 C1232 1.383 . S
C1231 H1239 0.929 . S
C1232 C1231 1.383 . S
C1232 C1233 1.377 . S
C1233 H1217 0.930 . S
C1233 C1232 1.377 . S
C1233 C1234 1.379 . S
C1234 H1218 0.931 . S
C1234 C1228 1.383 . S
C1234 C1233 1.379 . S
H1235 C1229 0.959 . S
H1236 C1229 0.961 . S
H1237 C1229 0.960 . S
H1238 C1230 0.930 . S
H1239 C1231 0.929 . S
H1240 C1248 0.929 . S
H1241 C1250 0.930 . S
H1242 C1252 0.930 . S
H1243 C1255 0.929 . S
H1244 C1258 0.930 . S
H1245 C1260 0.960 . S
H1246 C1260 0.960 . S
H1247 C1260 0.960 . S
C1248 H1240 0.929 . S
C1248 C1249 1.377 . S
C1248 C1250 1.384 . S
C1249 C1248 1.377 . S
C1249 C1255 1.390 . S
C1250 H1241 0.930 . S
C1250 C1248 1.384 . S
C1250 C1251 1.372 . S
C1251 C1250 1.372 . S
C1251 C1252 1.400 . S
C1251 C1256 1.490 . S
C1252 H1242 0.930 . S
C1252 C1251 1.400 . S
C1252 C1255 1.386 . S
H1253 C1269 0.930 . S
H1254 C1270 0.931 1_655 S
C1255 H1243 0.929 . S
C1255 C1249 1.390 . S
C1255 C1252 1.386 . S
C1256 C1251 1.490 . S
C1256 C1258 1.395 . S
C1256 C1259 1.403 . S
H1257 C1263 0.930 . S
C1258 H1244 0.930 . S
C1258 C1256 1.395 . S
C1258 C1261 1.403 1_655 S
C1259 C1256 1.403 . S
C1259 C1260 1.524 . S
C1259 C1263 1.400 . S
C1260 H1245 0.960 . S
C1260 H1246 0.960 . S
C1260 H1247 0.960 . S
C1260 C1259 1.524 . S
C1261 C1258 1.403 1_455 S
C1261 C1262 1.392 . S
C1261 C1265 1.495 . S
C1262 C1261 1.392 . S
C1262 C1263 1.385 1_455 S
C1262 C1264 1.478 . S
C1263 H1257 0.930 . S
C1263 C1259 1.400 . S
C1263 C1262 1.385 1_655 S
C1264 C1262 1.478 . S
C1264 C1266 1.381 . S
C1264 C1270 1.383 . S
C1265 C1261 1.495 . S
C1265 H1271 0.959 . S
C1265 H1272 0.961 . S
C1265 H1273 0.960 . S
C1266 C1264 1.381 . S
C1266 C1267 1.394 . S
C1266 H1274 0.930 . S
C1267 C1266 1.394 . S
C1267 C1268 1.383 . S
C1267 H1275 0.929 . S
C1268 C1267 1.383 . S
C1268 C1269 1.377 . S
C1269 H1253 0.930 . S
C1269 C1268 1.377 . S
C1269 C1270 1.379 . S
C1270 H1254 0.931 1_455 S
C1270 C1264 1.383 . S
C1270 C1269 1.379 . S
H1271 C1265 0.959 . S
H1272 C1265 0.961 . S
H1273 C1265 0.960 . S
H1274 C1266 0.930 . S
H1275 C1267 0.929 . S
H1276 C1284 0.929 . S
H1277 C1286 0.930 . S
H1278 C1288 0.930 . S
H1279 C1291 0.929 . S
H1280 C1294 0.930 . S
H1281 C1296 0.960 . S
H1282 C1296 0.960 . S
H1283 C1296 0.960 . S
C1284 H1276 0.929 . S
C1284 C1285 1.377 . S
C1284 C1286 1.384 . S
C1285 C1284 1.377 . S
C1285 C1291 1.390 . S
C1286 H1277 0.930 . S
C1286 C1284 1.384 . S
C1286 C1287 1.372 . S
C1287 C1286 1.372 . S
C1287 C1288 1.400 . S
C1287 C1292 1.490 . S
C1288 H1278 0.930 . S
C1288 C1287 1.400 . S
C1288 C1291 1.386 . S
H1289 C1305 0.930 . S
H1290 C1306 0.931 . S
C1291 H1279 0.929 . S
C1291 C1285 1.390 . S
C1291 C1288 1.386 . S
C1292 C1287 1.490 . S
C1292 C1294 1.395 . S
C1292 C1295 1.403 . S
H1293 C1299 0.930 . S
C1294 H1280 0.930 . S
C1294 C1292 1.395 . S
C1294 C1297 1.403 . S
C1295 C1292 1.403 . S
C1295 C1296 1.524 . S
C1295 C1299 1.400 . S
C1296 H1281 0.960 . S
C1296 H1282 0.960 . S
C1296 H1283 0.960 . S
C1296 C1295 1.524 . S
C1297 C1294 1.403 . S
C1297 C1298 1.392 . S
C1297 C1301 1.495 . S
C1298 C1297 1.392 . S
C1298 C1299 1.385 . S
C1298 C1300 1.478 . S
C1299 H1293 0.930 . S
C1299 C1295 1.400 . S
C1299 C1298 1.385 . S
C1300 C1298 1.478 . S
C1300 C1302 1.381 . S
C1300 C1306 1.383 . S
C1301 C1297 1.495 . S
C1301 H1307 0.959 . S
C1301 H1308 0.961 . S
C1301 H1309 0.960 . S
C1302 C1300 1.381 . S
C1302 C1303 1.394 . S
C1302 H1310 0.930 . S
C1303 C1302 1.394 . S
C1303 C1304 1.383 . S
C1303 H1311 0.929 . S
C1304 C1303 1.383 . S
C1304 C1305 1.377 . S
C1305 H1289 0.930 . S
C1305 C1304 1.377 . S
C1305 C1306 1.379 . S
C1306 H1290 0.931 . S
C1306 C1300 1.383 . S
C1306 C1305 1.379 . S
H1307 C1301 0.959 . S
H1308 C1301 0.961 . S
H1309 C1301 0.960 . S
H1310 C1302 0.930 . S
H1311 C1303 0.929 . S
H1312 C1320 0.929 . S
H1313 C1322 0.930 . S
H1314 C1324 0.930 . S
H1315 C1327 0.929 . S
H1316 C1330 0.930 . S
H1317 C1332 0.960 . S
H1318 C1332 0.960 . S
H1319 C1332 0.960 . S
C1320 H1312 0.929 . S
C1320 C1321 1.377 . S
C1320 C1322 1.384 . S
C1321 C1320 1.377 . S
C1321 C1327 1.390 . S
C1322 H1313 0.930 . S
C1322 C1320 1.384 . S
C1322 C1323 1.372 . S
C1323 C1322 1.372 . S
C1323 C1324 1.400 . S
C1323 C1328 1.490 . S
C1324 H1314 0.930 . S
C1324 C1323 1.400 . S
C1324 C1327 1.386 . S
H1325 C1341 0.930 . S
H1326 C1342 0.931 . S
C1327 H1315 0.929 . S
C1327 C1321 1.390 . S
C1327 C1324 1.386 . S
C1328 C1323 1.490 . S
C1328 C1330 1.395 . S
C1328 C1331 1.403 . S
H1329 C1335 0.930 . S
C1330 H1316 0.930 . S
C1330 C1328 1.395 . S
C1330 C1333 1.403 . S
C1331 C1328 1.403 . S
C1331 C1332 1.524 . S
C1331 C1335 1.400 . S
C1332 H1317 0.960 . S
C1332 H1318 0.960 . S
C1332 H1319 0.960 . S
C1332 C1331 1.524 . S
C1333 C1330 1.403 . S
C1333 C1334 1.392 . S
C1333 C1337 1.495 1_545 S
C1334 C1333 1.392 . S
C1334 C1335 1.385 . S
C1334 C1336 1.478 . S
C1335 H1329 0.930 . S
C1335 C1331 1.400 . S
C1335 C1334 1.385 . S
C1336 C1334 1.478 . S
C1336 C1338 1.381 . S
C1336 C1342 1.383 . S
C1337 C1333 1.495 1_565 S
C1337 H1343 0.959 . S
C1337 H1344 0.961 . S
C1337 H1345 0.960 . S
C1338 C1336 1.381 . S
C1338 C1339 1.394 . S
C1338 H1346 0.930 . S
C1339 C1338 1.394 . S
C1339 C1340 1.383 . S
C1339 H1347 0.929 . S
C1340 C1339 1.383 . S
C1340 C1341 1.377 . S
C1341 H1325 0.930 . S
C1341 C1340 1.377 . S
C1341 C1342 1.379 . S
C1342 H1326 0.931 . S
C1342 C1336 1.383 . S
C1342 C1341 1.379 . S
H1343 C1337 0.959 . S
H1344 C1337 0.961 . S
H1345 C1337 0.960 . S
H1346 C1338 0.930 . S
H1347 C1339 0.929 . S
H1348 C1356 0.929 . S
H1349 C1358 0.930 . S
H1350 C1360 0.930 . S
H1351 C1363 0.929 . S
H1352 C1366 0.930 . S
H1353 C1368 0.960 . S
H1354 C1368 0.960 . S
H1355 C1368 0.960 . S
C1356 H1348 0.929 . S
C1356 C1357 1.377 . S
C1356 C1358 1.384 . S
C1357 C1356 1.377 . S
C1357 C1363 1.390 . S
C1358 H1349 0.930 . S
C1358 C1356 1.384 . S
C1358 C1359 1.372 . S
C1359 C1358 1.372 . S
C1359 C1360 1.400 . S
C1359 C1364 1.490 . S
C1360 H1350 0.930 . S
C1360 C1359 1.400 . S
C1360 C1363 1.386 . S
H1361 C1377 0.930 . S
H1362 C1378 0.931 . S
C1363 H1351 0.929 . S
C1363 C1357 1.390 . S
C1363 C1360 1.386 . S
C1364 C1359 1.490 . S
C1364 C1366 1.395 . S
C1364 C1367 1.403 . S
H1365 C1371 0.930 . S
C1366 H1352 0.930 . S
C1366 C1364 1.395 . S
C1366 C1369 1.403 . S
C1367 C1364 1.403 . S
C1367 C1368 1.524 . S
C1367 C1371 1.400 . S
C1368 H1353 0.960 . S
C1368 H1354 0.960 . S
C1368 H1355 0.960 . S
C1368 C1367 1.524 . S
C1369 C1366 1.403 . S
C1369 C1370 1.392 . S
C1369 C1373 1.495 . S
C1370 C1369 1.392 . S
C1370 C1371 1.385 . S
C1370 C1372 1.478 . S
C1371 H1365 0.930 . S
C1371 C1367 1.400 . S
C1371 C1370 1.385 . S
C1372 C1370 1.478 . S
C1372 C1374 1.381 . S
C1372 C1378 1.383 . S
C1373 C1369 1.495 . S
C1373 H1379 0.959 . S
C1373 H1380 0.961 . S
C1373 H1381 0.960 . S
C1374 C1372 1.381 . S
C1374 C1375 1.394 . S
C1374 H1382 0.930 . S
C1375 C1374 1.394 . S
C1375 C1376 1.383 . S
C1375 H1383 0.929 . S
C1376 C1375 1.383 . S
C1376 C1377 1.377 . S
C1377 H1361 0.930 . S
C1377 C1376 1.377 . S
C1377 C1378 1.379 . S
C1378 H1362 0.931 . S
C1378 C1372 1.383 . S
C1378 C1377 1.379 . S
H1379 C1373 0.959 . S
H1380 C1373 0.961 . S
H1381 C1373 0.960 . S
H1382 C1374 0.930 . S
H1383 C1375 0.929 . S
H1384 C1392 0.929 . S
H1385 C1394 0.930 . S
H1386 C1396 0.930 . S
H1387 C1399 0.929 . S
H1388 C1402 0.927 . S
H1389 C1404 0.960 . S
H1390 C1404 0.960 . S
H1391 C1404 0.960 . S
C1392 H1384 0.929 . S
C1392 C1393 1.377 . S
C1392 C1394 1.384 . S
C1393 C1392 1.377 . S
C1393 C1399 1.390 . S
C1394 H1385 0.930 . S
C1394 C1392 1.384 . S
C1394 C1395 1.372 . S
C1395 C1394 1.372 . S
C1395 C1396 1.400 . S
C1395 C1400 1.490 . S
C1396 H1386 0.930 . S
C1396 C1395 1.400 . S
C1396 C1399 1.386 . S
H1397 C1413 0.930 . S
H1398 C1414 0.931 . S
C1399 H1387 0.929 . S
C1399 C1393 1.390 . S
C1399 C1396 1.386 . S
C1400 C1395 1.490 . S
C1400 C1402 1.395 . S
C1400 C1403 1.403 . S
H1401 C1407 0.930 . S
C1402 H1388 0.927 . S
C1402 C1400 1.395 . S
C1402 C1405 1.403 1_655 S
C1403 C1400 1.403 . S
C1403 C1404 1.524 . S
C1403 C1407 1.400 . S
C1404 H1389 0.960 . S
C1404 H1390 0.960 . S
C1404 H1391 0.960 . S
C1404 C1403 1.524 . S
C1405 C1402 1.403 1_455 S
C1405 C1406 1.392 . S
C1405 C1409 1.495 . S
C1406 C1405 1.392 . S
C1406 C1407 1.385 1_455 S
C1406 C1408 1.478 . S
C1407 H1401 0.930 . S
C1407 C1403 1.400 . S
C1407 C1406 1.385 1_655 S
C1408 C1406 1.478 . S
C1408 C1410 1.381 . S
C1408 C1414 1.383 . S
C1409 C1405 1.495 . S
C1409 H1415 0.959 . S
C1409 H1416 0.961 . S
C1409 H1417 0.960 . S
C1410 C1408 1.381 . S
C1410 C1411 1.394 . S
C1410 H1418 0.930 . S
C1411 C1410 1.394 . S
C1411 C1412 1.383 . S
C1411 H1419 0.929 . S
C1412 C1411 1.383 . S
C1412 C1413 1.377 . S
C1413 H1397 0.930 . S
C1413 C1412 1.377 . S
C1413 C1414 1.379 . S
C1414 H1398 0.931 . S
C1414 C1408 1.383 . S
C1414 C1413 1.379 . S
H1415 C1409 0.959 . S
H1416 C1409 0.961 . S
H1417 C1409 0.960 . S
H1418 C1410 0.930 . S
H1419 C1411 0.929 . S
H1420 C1428 0.929 . S
H1421 C1430 0.930 . S
H1422 C1432 0.930 . S
H1423 C1435 0.929 . S
H1424 C1438 0.930 . S
H1425 C1440 0.960 . S
H1426 C1440 0.960 . S
H1427 C1440 0.960 . S
C1428 H1420 0.929 . S
C1428 C1429 1.377 . S
C1428 C1430 1.384 . S
C1429 C1428 1.377 . S
C1429 C1435 1.390 . S
C1430 H1421 0.930 . S
C1430 C1428 1.384 . S
C1430 C1431 1.372 . S
C1431 C1430 1.372 . S
C1431 C1432 1.400 . S
C1431 C1436 1.490 . S
C1432 H1422 0.930 . S
C1432 C1431 1.400 . S
C1432 C1435 1.386 . S
H1433 C1449 0.930 . S
H1434 C1450 0.931 . S
C1435 H1423 0.929 . S
C1435 C1429 1.390 . S
C1435 C1432 1.386 . S
C1436 C1431 1.490 . S
C1436 C1438 1.395 . S
C1436 C1439 1.403 . S
H1437 C1443 0.930 . S
C1438 H1424 0.930 . S
C1438 C1436 1.395 . S
C1438 C1441 1.403 . S
C1439 C1436 1.403 . S
C1439 C1440 1.524 . S
C1439 C1443 1.400 . S
C1440 H1425 0.960 . S
C1440 H1426 0.960 . S
C1440 H1427 0.960 . S
C1440 C1439 1.524 . S
C1441 C1438 1.403 . S
C1441 C1442 1.392 . S
C1441 C1445 1.495 . S
C1442 C1441 1.392 . S
C1442 C1443 1.385 . S
C1442 C1444 1.478 . S
C1443 H1437 0.930 . S
C1443 C1439 1.400 . S
C1443 C1442 1.385 . S
C1444 C1442 1.478 . S
C1444 C1446 1.381 . S
C1444 C1450 1.383 . S
C1445 C1441 1.495 . S
C1445 H1451 0.959 . S
C1445 H1452 0.961 . S
C1445 H1453 0.960 . S
C1446 C1444 1.381 . S
C1446 C1447 1.394 . S
C1446 H1454 0.930 . S
C1447 C1446 1.394 . S
C1447 C1448 1.383 . S
C1447 H1455 0.929 . S
C1448 C1447 1.383 . S
C1448 C1449 1.377 . S
C1449 H1433 0.930 . S
C1449 C1448 1.377 . S
C1449 C1450 1.379 . S
C1450 H1434 0.931 . S
C1450 C1444 1.383 . S
C1450 C1449 1.379 . S
H1451 C1445 0.959 . S
H1452 C1445 0.961 . S
H1453 C1445 0.960 . S
H1454 C1446 0.930 . S
H1455 C1447 0.929 . S
H1456 C1464 0.929 . S
H1457 C1466 0.930 . S
H1458 C1468 0.930 . S
H1459 C1471 0.929 . S
H1460 C1474 0.930 . S
H1461 C1476 0.960 . S
H1462 C1476 0.960 . S
H1463 C1476 0.960 . S
C1464 H1456 0.929 . S
C1464 C1465 1.377 . S
C1464 C1466 1.384 . S
C1465 C1464 1.377 . S
C1465 C1471 1.390 . S
C1466 H1457 0.930 . S
C1466 C1464 1.384 . S
C1466 C1467 1.372 . S
C1467 C1466 1.372 . S
C1467 C1468 1.400 . S
C1467 C1472 1.490 . S
C1468 H1458 0.930 . S
C1468 C1467 1.400 . S
C1468 C1471 1.386 . S
H1469 C1485 0.930 . S
H1470 C1486 0.931 . S
C1471 H1459 0.929 . S
C1471 C1465 1.390 . S
C1471 C1468 1.386 . S
C1472 C1467 1.490 . S
C1472 C1474 1.395 . S
C1472 C1475 1.403 . S
H1473 C1479 0.930 . S
C1474 H1460 0.930 . S
C1474 C1472 1.395 . S
C1474 C1477 1.403 . S
C1475 C1472 1.403 . S
C1475 C1476 1.524 . S
C1475 C1479 1.400 . S
C1476 H1461 0.960 . S
C1476 H1462 0.960 . S
C1476 H1463 0.960 . S
C1476 C1475 1.524 . S
C1477 C1474 1.403 . S
C1477 C1478 1.392 . S
C1477 C1481 1.495 . S
C1478 C1477 1.392 . S
C1478 C1479 1.385 . S
C1478 C1480 1.478 . S
C1479 H1473 0.930 . S
C1479 C1475 1.400 . S
C1479 C1478 1.385 . S
C1480 C1478 1.478 . S
C1480 C1482 1.381 . S
C1480 C1486 1.383 . S
C1481 C1477 1.495 . S
C1481 H1487 0.959 . S
C1481 H1488 0.961 . S
C1481 H1489 0.960 . S
C1482 C1480 1.381 . S
C1482 C1483 1.394 . S
C1482 H1490 0.930 . S
C1483 C1482 1.394 . S
C1483 C1484 1.383 . S
C1483 H1491 0.929 . S
C1484 C1483 1.383 . S
C1484 C1485 1.377 . S
C1485 H1469 0.930 . S
C1485 C1484 1.377 . S
C1485 C1486 1.379 . S
C1486 H1470 0.931 . S
C1486 C1480 1.383 . S
C1486 C1485 1.379 . S
H1487 C1481 0.959 . S
H1488 C1481 0.961 . S
H1489 C1481 0.960 . S
H1490 C1482 0.930 . S
H1491 C1483 0.929 . S
H1492 C1500 0.929 . S
H1493 C1502 0.930 . S
H1494 C1504 0.930 . S
H1495 C1507 0.929 . S
H1496 C1510 0.930 . S
H1497 C1512 0.960 . S
H1498 C1512 0.960 . S
H1499 C1512 0.960 . S
C1500 H1492 0.929 . S
C1500 C1501 1.377 . S
C1500 C1502 1.384 . S
C1501 C1500 1.377 . S
C1501 C1507 1.390 . S
C1502 H1493 0.930 . S
C1502 C1500 1.384 . S
C1502 C1503 1.372 . S
C1503 C1502 1.372 . S
C1503 C1504 1.400 . S
C1503 C1508 1.490 . S
C1504 H1494 0.930 . S
C1504 C1503 1.400 . S
C1504 C1507 1.386 . S
H1505 C1521 0.930 . S
H1506 C1522 0.931 . S
C1507 H1495 0.929 . S
C1507 C1501 1.390 . S
C1507 C1504 1.386 . S
C1508 C1503 1.490 . S
C1508 C1510 1.395 . S
C1508 C1511 1.403 . S
H1509 C1515 0.930 . S
C1510 H1496 0.930 . S
C1510 C1508 1.395 . S
C1510 C1513 1.403 . S
C1511 C1508 1.403 . S
C1511 C1512 1.524 . S
C1511 C1515 1.400 . S
C1512 H1497 0.960 . S
C1512 H1498 0.960 . S
C1512 H1499 0.960 . S
C1512 C1511 1.524 . S
C1513 C1510 1.403 . S
C1513 C1514 1.392 . S
C1513 C1517 1.495 . S
C1514 C1513 1.392 . S
C1514 C1515 1.385 . S
C1514 C1516 1.478 . S
C1515 H1509 0.930 . S
C1515 C1511 1.400 . S
C1515 C1514 1.385 . S
C1516 C1514 1.478 . S
C1516 C1518 1.381 . S
C1516 C1522 1.383 . S
C1517 C1513 1.495 . S
C1517 H1523 0.959 . S
C1517 H1524 0.961 . S
C1517 H1525 0.960 . S
C1518 C1516 1.381 . S
C1518 C1519 1.394 . S
C1518 H1526 0.930 . S
C1519 C1518 1.394 . S
C1519 C1520 1.383 . S
C1519 H1527 0.929 . S
C1520 C1519 1.383 . S
C1520 C1521 1.377 . S
C1521 H1505 0.930 . S
C1521 C1520 1.377 . S
C1521 C1522 1.379 . S
C1522 H1506 0.931 . S
C1522 C1516 1.383 . S
C1522 C1521 1.379 . S
H1523 C1517 0.959 . S
H1524 C1517 0.961 . S
H1525 C1517 0.960 . S
H1526 C1518 0.930 . S
H1527 C1519 0.929 . S
H1528 C1536 0.929 1_556 S
H1529 C1538 0.930 . S
H1530 C1540 0.930 . S
H1531 C1543 0.929 . S
H1532 C1546 0.930 . S
H1533 C1548 0.960 1_545 S
H1534 C1548 0.960 . S
H1535 C1548 0.960 . S
C1536 H1528 0.929 1_554 S
C1536 C1537 1.377 . S
C1536 C1538 1.384 . S
C1537 C1536 1.377 . S
C1537 C1543 1.390 . S
C1538 H1529 0.930 . S
C1538 C1536 1.384 . S
C1538 C1539 1.372 . S
C1539 C1538 1.372 . S
C1539 C1540 1.400 . S
C1539 C1544 1.490 . S
C1540 H1530 0.930 . S
C1540 C1539 1.400 . S
C1540 C1543 1.386 . S
H1541 C1557 0.930 . S
H1542 C1558 0.931 . S
C1543 H1531 0.929 . S
C1543 C1537 1.390 . S
C1543 C1540 1.386 . S
C1544 C1539 1.490 . S
C1544 C1546 1.395 . S
C1544 C1547 1.403 . S
H1545 C1551 0.930 1_545 S
C1546 H1532 0.930 . S
C1546 C1544 1.395 . S
C1546 C1549 1.403 . S
C1547 C1544 1.403 . S
C1547 C1548 1.524 . S
C1547 C1551 1.400 . S
C1548 H1533 0.960 1_565 S
C1548 H1534 0.960 . S
C1548 H1535 0.960 . S
C1548 C1547 1.524 . S
C1549 C1546 1.403 . S
C1549 C1550 1.392 . S
C1549 C1553 1.495 . S
C1550 C1549 1.392 . S
C1550 C1551 1.385 . S
C1550 C1552 1.478 . S
C1551 H1545 0.930 1_565 S
C1551 C1547 1.400 . S
C1551 C1550 1.385 . S
C1552 C1550 1.478 . S
C1552 C1554 1.381 . S
C1552 C1558 1.383 . S
C1553 C1549 1.495 . S
C1553 H1559 0.959 . S
C1553 H1560 0.961 . S
C1553 H1561 0.960 . S
C1554 C1552 1.381 . S
C1554 C1555 1.430 . S
C1554 H1562 0.930 . S
C1555 C1554 1.430 . S
C1555 C1556 1.373 1_565 S
C1555 H1563 0.908 1_565 S
C1556 C1555 1.373 1_545 S
C1556 C1557 1.377 . S
C1557 H1541 0.930 . S
C1557 C1556 1.377 . S
C1557 C1558 1.379 1_545 S
C1558 H1542 0.931 . S
C1558 C1552 1.383 . S
C1558 C1557 1.379 1_565 S
H1559 C1553 0.959 . S
H1560 C1553 0.961 . S
H1561 C1553 0.960 . S
H1562 C1554 0.930 . S
H1563 C1555 0.908 1_545 S
H1564 C1572 0.929 . S
H1565 C1574 0.930 . S
H1566 C1576 0.930 . S
H1567 C1579 0.929 . S
H1568 C1582 0.930 . S
H1569 C1584 0.960 . S
H1570 C1584 0.960 . S
H1571 C1584 0.960 . S
C1572 H1564 0.929 . S
C1572 C1573 1.377 1_556 S
C1572 C1574 1.384 . S
C1573 C1572 1.377 1_554 S
C1573 C1579 1.390 . S
C1574 H1565 0.930 . S
C1574 C1572 1.384 . S
C1574 C1575 1.347 1_556 S
C1575 C1574 1.347 1_554 S
C1575 C1576 1.416 . S
C1575 C1580 1.504 . S
C1576 H1566 0.930 . S
C1576 C1575 1.416 . S
C1576 C1579 1.386 . S
H1577 C1593 0.930 . S
H1578 C1594 0.931 . S
C1579 H1567 0.929 . S
C1579 C1573 1.390 . S
C1579 C1576 1.386 . S
C1580 C1575 1.504 . S
C1580 C1582 1.395 . S
C1580 C1583 1.403 1_554 S
H1581 C1587 0.930 . S
C1582 H1568 0.930 . S
C1582 C1580 1.395 . S
C1582 C1585 1.403 . S
C1583 C1580 1.403 1_556 S
C1583 C1584 1.524 . S
C1583 C1587 1.400 . S
C1584 H1569 0.960 . S
C1584 H1570 0.960 . S
C1584 H1571 0.960 . S
C1584 C1583 1.524 . S
C1585 C1582 1.403 . S
C1585 C1586 1.392 . S
C1585 C1589 1.495 . S
C1586 C1585 1.392 . S
C1586 C1587 1.385 1_554 S
C1586 C1588 1.478 . S
C1587 H1581 0.930 . S
C1587 C1583 1.400 . S
C1587 C1586 1.385 1_556 S
C1588 C1586 1.478 . S
C1588 C1590 1.381 1_554 S
C1588 C1594 1.383 . S
C1589 C1585 1.495 . S
C1589 H1595 0.959 . S
C1589 H1596 0.961 . S
C1589 H1597 0.960 . S
C1590 C1588 1.381 1_556 S
C1590 C1591 1.394 . S
C1590 H1598 0.930 . S
C1591 C1590 1.394 . S
C1591 C1592 1.383 1_556 S
C1591 H1599 0.929 . S
C1592 C1591 1.383 1_554 S
C1592 C1593 1.377 . S
C1593 H1577 0.930 . S
C1593 C1592 1.377 . S
C1593 C1594 1.379 . S
C1594 H1578 0.931 . S
C1594 C1588 1.383 . S
C1594 C1593 1.379 . S
H1595 C1589 0.959 . S
H1596 C1589 0.961 . S
H1597 C1589 0.960 . S
H1598 C1590 0.930 . S
H1599 C1591 0.929 . S
H1600 C1608 0.929 . S
H1601 C1610 0.930 . S
H1602 C1612 0.930 . S
H1603 C1615 0.929 . S
H1604 C1618 0.930 . S
H1605 C1620 0.960 . S
H1606 C1620 0.960 . S
H1607 C1620 0.960 . S
C1608 H1600 0.929 . S
C1608 C1609 1.377 . S
C1608 C1610 1.384 . S
C1609 C1608 1.377 . S
C1609 C1615 1.390 . S
C1610 H1601 0.930 . S
C1610 C1608 1.384 . S
C1610 C1611 1.372 . S
C1611 C1610 1.372 . S
C1611 C1612 1.400 . S
C1611 C1616 1.490 . S
C1612 H1602 0.930 . S
C1612 C1611 1.400 . S
C1612 C1615 1.386 . S
H1613 C1629 0.930 . S
H1614 C1630 0.931 . S
C1615 H1603 0.929 . S
C1615 C1609 1.390 . S
C1615 C1612 1.386 . S
C1616 C1611 1.490 . S
C1616 C1618 1.395 . S
C1616 C1619 1.403 . S
H1617 C1623 0.930 . S
C1618 H1604 0.930 . S
C1618 C1616 1.395 . S
C1618 C1621 1.403 . S
C1619 C1616 1.403 . S
C1619 C1620 1.524 . S
C1619 C1623 1.400 . S
C1620 H1605 0.960 . S
C1620 H1606 0.960 . S
C1620 H1607 0.960 . S
C1620 C1619 1.524 . S
C1621 C1618 1.403 . S
C1621 C1622 1.392 . S
C1621 C1625 1.495 . S
C1622 C1621 1.392 . S
C1622 C1623 1.385 . S
C1622 C1624 1.478 . S
C1623 H1617 0.930 . S
C1623 C1619 1.400 . S
C1623 C1622 1.385 . S
C1624 C1622 1.478 . S
C1624 C1626 1.381 . S
C1624 C1630 1.383 . S
C1625 C1621 1.495 . S
C1625 H1631 0.959 . S
C1625 H1632 0.961 . S
C1625 H1633 0.960 . S
C1626 C1624 1.381 . S
C1626 C1627 1.394 . S
C1626 H1634 0.930 . S
C1627 C1626 1.394 . S
C1627 C1628 1.383 . S
C1627 H1635 0.929 . S
C1628 C1627 1.383 . S
C1628 C1629 1.377 . S
C1629 H1613 0.930 . S
C1629 C1628 1.377 . S
C1629 C1630 1.379 . S
C1630 H1614 0.931 . S
C1630 C1624 1.383 . S
C1630 C1629 1.379 . S
H1631 C1625 0.959 . S
H1632 C1625 0.961 . S
H1633 C1625 0.960 . S
H1634 C1626 0.930 . S
H1635 C1627 0.929 . S
H1636 C1644 0.929 . S
H1637 C1646 0.930 . S
H1638 C1648 0.930 . S
H1639 C1651 0.929 . S
H1640 C1654 0.930 . S
H1641 C1656 0.960 . S
H1642 C1656 0.960 . S
H1643 C1656 0.960 . S
C1644 H1636 0.929 . S
C1644 C1645 1.377 . S
C1644 C1646 1.384 . S
C1645 C1644 1.377 . S
C1645 C1651 1.390 . S
C1646 H1637 0.930 . S
C1646 C1644 1.384 . S
C1646 C1647 1.372 . S
C1647 C1646 1.372 . S
C1647 C1648 1.400 . S
C1647 C1652 1.490 . S
C1648 H1638 0.930 . S
C1648 C1647 1.400 . S
C1648 C1651 1.386 . S
H1649 C1665 0.930 . S
H1650 C1666 0.931 . S
C1651 H1639 0.929 . S
C1651 C1645 1.390 . S
C1651 C1648 1.386 . S
C1652 C1647 1.490 . S
C1652 C1654 1.395 . S
C1652 C1655 1.403 . S
H1653 C1659 0.930 . S
C1654 H1640 0.930 . S
C1654 C1652 1.395 . S
C1654 C1657 1.403 . S
C1655 C1652 1.403 . S
C1655 C1656 1.524 . S
C1655 C1659 1.400 . S
C1656 H1641 0.960 . S
C1656 H1642 0.960 . S
C1656 H1643 0.960 . S
C1656 C1655 1.524 . S
C1657 C1654 1.403 . S
C1657 C1658 1.392 . S
C1657 C1661 1.495 . S
C1658 C1657 1.392 . S
C1658 C1659 1.385 . S
C1658 C1660 1.478 . S
C1659 H1653 0.930 . S
C1659 C1655 1.400 . S
C1659 C1658 1.385 . S
C1660 C1658 1.478 . S
C1660 C1662 1.381 . S
C1660 C1666 1.383 . S
C1661 C1657 1.495 . S
C1661 H1667 0.959 . S
C1661 H1668 0.961 . S
C1661 H1669 0.960 . S
C1662 C1660 1.381 . S
C1662 C1663 1.394 . S
C1662 H1670 0.930 . S
C1663 C1662 1.394 . S
C1663 C1664 1.383 . S
C1663 H1671 0.929 . S
C1664 C1663 1.383 . S
C1664 C1665 1.377 . S
C1665 H1649 0.930 . S
C1665 C1664 1.377 . S
C1665 C1666 1.379 . S
C1666 H1650 0.931 . S
C1666 C1660 1.383 . S
C1666 C1665 1.379 . S
H1667 C1661 0.959 . S
H1668 C1661 0.961 . S
H1669 C1661 0.960 . S
H1670 C1662 0.930 . S
H1671 C1663 0.929 . S
H1672 C1680 0.929 . S
H1673 C1682 0.930 . S
H1674 C1684 0.930 . S
H1675 C1687 0.929 . S
H1676 C1690 0.930 . S
H1677 C1692 0.960 . S
H1678 C1692 0.960 . S
H1679 C1692 0.960 . S
C1680 H1672 0.929 . S
C1680 C1681 1.377 . S
C1680 C1682 1.384 . S
C1681 C1680 1.377 . S
C1681 C1687 1.390 . S
C1682 H1673 0.930 . S
C1682 C1680 1.384 . S
C1682 C1683 1.372 . S
C1683 C1682 1.372 . S
C1683 C1684 1.400 . S
C1683 C1688 1.490 . S
C1684 H1674 0.930 . S
C1684 C1683 1.400 . S
C1684 C1687 1.386 . S
H1685 C1701 0.930 . S
H1686 C1702 0.931 . S
C1687 H1675 0.929 . S
C1687 C1681 1.390 . S
C1687 C1684 1.386 . S
C1688 C1683 1.490 . S
C1688 C1690 1.395 . S
C1688 C1691 1.403 . S
H1689 C1695 0.930 . S
C1690 H1676 0.930 . S
C1690 C1688 1.395 . S
C1690 C1693 1.403 . S
C1691 C1688 1.403 . S
C1691 C1692 1.524 . S
C1691 C1695 1.400 . S
C1692 H1677 0.960 . S
C1692 H1678 0.960 . S
C1692 H1679 0.960 . S
C1692 C1691 1.524 . S
C1693 C1690 1.403 . S
C1693 C1694 1.392 . S
C1693 C1697 1.495 . S
C1694 C1693 1.392 . S
C1694 C1695 1.385 . S
C1694 C1696 1.478 . S
C1695 H1689 0.930 . S
C1695 C1691 1.400 . S
C1695 C1694 1.385 . S
C1696 C1694 1.478 . S
C1696 C1698 1.381 . S
C1696 C1702 1.383 . S
C1697 C1693 1.495 . S
C1697 H1703 0.959 . S
C1697 H1704 0.961 . S
C1697 H1705 0.960 . S
C1698 C1696 1.381 . S
C1698 C1699 1.394 . S
C1698 H1706 0.930 . S
C1699 C1698 1.394 . S
C1699 C1700 1.383 . S
C1699 H1707 0.929 . S
C1700 C1699 1.383 . S
C1700 C1701 1.377 . S
C1701 H1685 0.930 . S
C1701 C1700 1.377 . S
C1701 C1702 1.379 . S
C1702 H1686 0.931 . S
C1702 C1696 1.383 . S
C1702 C1701 1.379 . S
H1703 C1697 0.959 . S
H1704 C1697 0.961 . S
H1705 C1697 0.960 . S
H1706 C1698 0.930 . S
H1707 C1699 0.929 . S
H1708 C1716 0.929 . S
H1709 C1718 0.930 . S
H1710 C1720 0.930 . S
H1711 C1723 0.929 . S
H1712 C1726 0.930 . S
H1713 C1728 0.960 . S
H1714 C1728 0.960 . S
H1715 C1728 0.960 . S
C1716 H1708 0.929 . S
C1716 C1717 1.377 . S
C1716 C1718 1.384 . S
C1717 C1716 1.377 . S
C1717 C1723 1.390 . S
C1718 H1709 0.930 . S
C1718 C1716 1.384 . S
C1718 C1719 1.372 . S
C1719 C1718 1.372 . S
C1719 C1720 1.400 . S
C1719 C1724 1.490 . S
C1720 H1710 0.930 . S
C1720 C1719 1.400 . S
C1720 C1723 1.386 . S
H1721 C1737 0.930 . S
H1722 C1738 0.931 . S
C1723 H1711 0.929 . S
C1723 C1717 1.390 . S
C1723 C1720 1.386 . S
C1724 C1719 1.490 . S
C1724 C1726 1.395 . S
C1724 C1727 1.403 . S
H1725 C1731 0.930 . S
C1726 H1712 0.930 . S
C1726 C1724 1.395 . S
C1726 C1729 1.403 . S
C1727 C1724 1.403 . S
C1727 C1728 1.524 . S
C1727 C1731 1.400 . S
C1728 H1713 0.960 . S
C1728 H1714 0.960 . S
C1728 H1715 0.960 . S
C1728 C1727 1.524 . S
C1729 C1726 1.403 . S
C1729 C1730 1.392 . S
C1729 C1733 1.495 . S
C1730 C1729 1.392 . S
C1730 C1731 1.385 . S
C1730 C1732 1.478 . S
C1731 H1725 0.930 . S
C1731 C1727 1.400 . S
C1731 C1730 1.385 . S
C1732 C1730 1.478 . S
C1732 C1734 1.381 . S
C1732 C1738 1.383 . S
C1733 C1729 1.495 . S
C1733 H1739 0.959 . S
C1733 H1740 0.961 . S
C1733 H1741 0.960 . S
C1734 C1732 1.381 . S
C1734 C1735 1.394 . S
C1734 H1742 0.930 . S
C1735 C1734 1.394 . S
C1735 C1736 1.383 . S
C1735 H1743 0.929 . S
C1736 C1735 1.383 . S
C1736 C1737 1.377 . S
C1737 H1721 0.930 . S
C1737 C1736 1.377 . S
C1737 C1738 1.379 . S
C1738 H1722 0.931 . S
C1738 C1732 1.383 . S
C1738 C1737 1.379 . S
H1739 C1733 0.959 . S
H1740 C1733 0.961 . S
H1741 C1733 0.960 . S
H1742 C1734 0.930 . S
H1743 C1735 0.929 . S
H1744 C1752 0.929 . S
H1745 C1754 0.930 . S
H1746 C1756 0.930 . S
H1747 C1759 0.929 . S
H1748 C1762 0.930 . S
H1749 C1764 0.960 . S
H1750 C1764 0.960 . S
H1751 C1764 0.960 . S
C1752 H1744 0.929 . S
C1752 C1753 1.377 . S
C1752 C1754 1.384 . S
C1753 C1752 1.377 . S
C1753 C1759 1.390 . S
C1754 H1745 0.930 . S
C1754 C1752 1.384 . S
C1754 C1755 1.372 . S
C1755 C1754 1.372 . S
C1755 C1756 1.400 . S
C1755 C1760 1.490 . S
C1756 H1746 0.930 . S
C1756 C1755 1.400 . S
C1756 C1759 1.386 . S
H1757 C1773 0.930 . S
H1758 C1774 0.931 . S
C1759 H1747 0.929 . S
C1759 C1753 1.390 . S
C1759 C1756 1.386 . S
C1760 C1755 1.490 . S
C1760 C1762 1.395 . S
C1760 C1763 1.403 . S
H1761 C1767 0.930 . S
C1762 H1748 0.930 . S
C1762 C1760 1.395 . S
C1762 C1765 1.403 . S
C1763 C1760 1.403 . S
C1763 C1764 1.524 . S
C1763 C1767 1.400 . S
C1764 H1749 0.960 . S
C1764 H1750 0.960 . S
C1764 H1751 0.960 . S
C1764 C1763 1.524 . S
C1765 C1762 1.403 . S
C1765 C1766 1.392 . S
C1765 C1769 1.495 . S
C1766 C1765 1.392 . S
C1766 C1767 1.385 . S
C1766 C1768 1.478 . S
C1767 H1761 0.930 . S
C1767 C1763 1.400 . S
C1767 C1766 1.385 . S
C1768 C1766 1.478 . S
C1768 C1770 1.381 . S
C1768 C1774 1.383 . S
C1769 C1765 1.495 . S
C1769 H1775 0.959 . S
C1769 H1776 0.961 . S
C1769 H1777 0.960 . S
C1770 C1768 1.381 . S
C1770 C1771 1.394 . S
C1770 H1778 0.930 . S
C1771 C1770 1.394 . S
C1771 C1772 1.383 . S
C1771 H1779 0.929 . S
C1772 C1771 1.383 . S
C1772 C1773 1.377 . S
C1773 H1757 0.930 . S
C1773 C1772 1.377 . S
C1773 C1774 1.379 . S
C1774 H1758 0.931 . S
C1774 C1768 1.383 . S
C1774 C1773 1.379 . S
H1775 C1769 0.959 . S
H1776 C1769 0.961 . S
H1777 C1769 0.960 . S
H1778 C1770 0.930 . S
H1779 C1771 0.929 . S
H1780 C1788 0.929 . S
H1781 C1790 0.930 . S
H1782 C1792 0.930 . S
H1783 C1795 0.929 . S
H1784 C1798 0.930 . S
H1785 C1800 0.960 . S
H1786 C1800 0.960 . S
H1787 C1800 0.960 . S
C1788 H1780 0.929 . S
C1788 C1789 1.377 . S
C1788 C1790 1.384 . S
C1789 C1788 1.377 . S
C1789 C1795 1.390 . S
C1790 H1781 0.930 . S
C1790 C1788 1.384 . S
C1790 C1791 1.372 . S
C1791 C1790 1.372 . S
C1791 C1792 1.400 . S
C1791 C1796 1.490 . S
C1792 H1782 0.930 . S
C1792 C1791 1.400 . S
C1792 C1795 1.386 . S
H1793 C1809 0.930 . S
H1794 C1810 0.931 . S
C1795 H1783 0.929 . S
C1795 C1789 1.390 . S
C1795 C1792 1.386 . S
C1796 C1791 1.490 . S
C1796 C1798 1.395 . S
C1796 C1799 1.403 . S
H1797 C1803 0.930 . S
C1798 H1784 0.930 . S
C1798 C1796 1.395 . S
C1798 C1801 1.403 . S
C1799 C1796 1.403 . S
C1799 C1800 1.524 . S
C1799 C1803 1.400 . S
C1800 H1785 0.960 . S
C1800 H1786 0.960 . S
C1800 H1787 0.960 . S
C1800 C1799 1.524 . S
C1801 C1798 1.403 . S
C1801 C1802 1.392 . S
C1801 C1805 1.495 . S
C1802 C1801 1.392 . S
C1802 C1803 1.385 . S
C1802 C1804 1.478 . S
C1803 H1797 0.930 . S
C1803 C1799 1.400 . S
C1803 C1802 1.385 . S
C1804 C1802 1.478 . S
C1804 C1806 1.381 . S
C1804 C1810 1.383 . S
C1805 C1801 1.495 . S
C1805 H1811 0.959 . S
C1805 H1812 0.961 . S
C1805 H1813 0.960 . S
C1806 C1804 1.381 . S
C1806 C1807 1.394 . S
C1806 H1814 0.930 . S
C1807 C1806 1.394 . S
C1807 C1808 1.383 . S
C1807 H1815 0.929 . S
C1808 C1807 1.383 . S
C1808 C1809 1.377 . S
C1809 H1793 0.930 . S
C1809 C1808 1.377 . S
C1809 C1810 1.379 . S
C1810 H1794 0.931 . S
C1810 C1804 1.383 . S
C1810 C1809 1.379 . S
H1811 C1805 0.959 . S
H1812 C1805 0.961 . S
H1813 C1805 0.960 . S
H1814 C1806 0.930 . S
H1815 C1807 0.929 . S
H1816 C1824 0.929 . S
H1817 C1826 0.930 . S
H1818 C1828 0.930 . S
H1819 C1831 0.929 . S
H1820 C1834 0.930 . S
H1821 C1836 0.960 . S
H1822 C1836 0.960 . S
H1823 C1836 0.960 . S
C1824 H1816 0.929 . S
C1824 C1825 1.377 . S
C1824 C1826 1.384 . S
C1825 C1824 1.377 . S
C1825 C1831 1.390 . S
C1826 H1817 0.930 . S
C1826 C1824 1.384 . S
C1826 C1827 1.372 . S
C1827 C1826 1.372 . S
C1827 C1828 1.400 . S
C1827 C1832 1.490 . S
C1828 H1818 0.930 . S
C1828 C1827 1.400 . S
C1828 C1831 1.386 . S
H1829 C1845 0.930 . S
H1830 C1846 0.931 . S
C1831 H1819 0.929 . S
C1831 C1825 1.390 . S
C1831 C1828 1.386 . S
C1832 C1827 1.490 . S
C1832 C1834 1.395 . S
C1832 C1835 1.403 . S
H1833 C1839 0.930 . S
C1834 H1820 0.930 . S
C1834 C1832 1.395 . S
C1834 C1837 1.403 . S
C1835 C1832 1.403 . S
C1835 C1836 1.524 . S
C1835 C1839 1.400 . S
C1836 H1821 0.960 . S
C1836 H1822 0.960 . S
C1836 H1823 0.960 . S
C1836 C1835 1.524 . S
C1837 C1834 1.403 . S
C1837 C1838 1.392 . S
C1837 C1841 1.495 . S
C1838 C1837 1.392 . S
C1838 C1839 1.385 . S
C1838 C1840 1.478 . S
C1839 H1833 0.930 . S
C1839 C1835 1.400 . S
C1839 C1838 1.385 . S
C1840 C1838 1.478 . S
C1840 C1842 1.381 . S
C1840 C1846 1.383 . S
C1841 C1837 1.495 . S
C1841 H1847 0.959 . S
C1841 H1848 0.961 . S
C1841 H1849 0.960 . S
C1842 C1840 1.381 . S
C1842 C1843 1.394 . S
C1842 H1850 0.930 . S
C1843 C1842 1.394 . S
C1843 C1844 1.383 . S
C1843 H1851 0.929 . S
C1844 C1843 1.383 . S
C1844 C1845 1.377 . S
C1845 H1829 0.930 . S
C1845 C1844 1.377 . S
C1845 C1846 1.379 . S
C1846 H1830 0.931 . S
C1846 C1840 1.383 . S
C1846 C1845 1.379 . S
H1847 C1841 0.959 . S
H1848 C1841 0.961 . S
H1849 C1841 0.960 . S
H1850 C1842 0.930 . S
H1851 C1843 0.929 . S
H1852 C1860 0.929 . S
H1853 C1862 0.930 . S
H1854 C1864 0.930 . S
H1855 C1867 0.929 . S
H1856 C1870 0.930 . S
H1857 C1872 0.960 . S
H1858 C1872 0.960 . S
H1859 C1872 0.960 . S
C1860 H1852 0.929 . S
C1860 C1861 1.377 . S
C1860 C1862 1.384 . S
C1861 C1860 1.377 . S
C1861 C1867 1.390 . S
C1862 H1853 0.930 . S
C1862 C1860 1.384 . S
C1862 C1863 1.372 . S
C1863 C1862 1.372 . S
C1863 C1864 1.400 . S
C1863 C1868 1.490 . S
C1864 H1854 0.930 . S
C1864 C1863 1.400 . S
C1864 C1867 1.386 . S
H1865 C1881 0.930 . S
H1866 C1882 0.931 . S
C1867 H1855 0.929 . S
C1867 C1861 1.390 . S
C1867 C1864 1.386 . S
C1868 C1863 1.490 . S
C1868 C1870 1.395 . S
C1868 C1871 1.403 . S
H1869 C1875 0.930 . S
C1870 H1856 0.930 . S
C1870 C1868 1.395 . S
C1870 C1873 1.403 . S
C1871 C1868 1.403 . S
C1871 C1872 1.524 . S
C1871 C1875 1.400 . S
C1872 H1857 0.960 . S
C1872 H1858 0.960 . S
C1872 H1859 0.960 . S
C1872 C1871 1.524 . S
C1873 C1870 1.403 . S
C1873 C1874 1.392 . S
C1873 C1877 1.495 . S
C1874 C1873 1.392 . S
C1874 C1875 1.385 . S
C1874 C1876 1.478 . S
C1875 H1869 0.930 . S
C1875 C1871 1.400 . S
C1875 C1874 1.385 . S
C1876 C1874 1.478 . S
C1876 C1878 1.381 . S
C1876 C1882 1.383 . S
C1877 C1873 1.495 . S
C1877 H1883 0.959 . S
C1877 H1884 0.961 . S
C1877 H1885 0.960 . S
C1878 C1876 1.381 . S
C1878 C1879 1.394 . S
C1878 H1886 0.930 . S
C1879 C1878 1.394 . S
C1879 C1880 1.383 . S
C1879 H1887 0.929 . S
C1880 C1879 1.383 . S
C1880 C1881 1.377 . S
C1881 H1865 0.930 . S
C1881 C1880 1.377 . S
C1881 C1882 1.379 . S
C1882 H1866 0.931 . S
C1882 C1876 1.383 . S
C1882 C1881 1.379 . S
H1883 C1877 0.959 . S
H1884 C1877 0.961 . S
H1885 C1877 0.960 . S
H1886 C1878 0.930 . S
H1887 C1879 0.929 . S
H1888 C1896 0.929 . S
H1889 C1898 0.930 . S
H1890 C1900 0.930 . S
H1891 C1903 0.929 . S
H1892 C1906 0.930 . S
H1893 C1908 0.960 . S
H1894 C1908 0.960 . S
H1895 C1908 0.960 . S
C1896 H1888 0.929 . S
C1896 C1897 1.377 . S
C1896 C1898 1.384 . S
C1897 C1896 1.377 . S
C1897 C1903 1.390 . S
C1898 H1889 0.930 . S
C1898 C1896 1.384 . S
C1898 C1899 1.372 . S
C1899 C1898 1.372 . S
C1899 C1900 1.400 . S
C1899 C1904 1.490 . S
C1900 H1890 0.930 . S
C1900 C1899 1.400 . S
C1900 C1903 1.386 . S
H1901 C1917 0.930 . S
H1902 C1918 0.931 . S
C1903 H1891 0.929 . S
C1903 C1897 1.390 . S
C1903 C1900 1.386 . S
C1904 C1899 1.490 . S
C1904 C1906 1.395 . S
C1904 C1907 1.403 . S
H1905 C1911 0.930 . S
C1906 H1892 0.930 . S
C1906 C1904 1.395 . S
C1906 C1909 1.403 . S
C1907 C1904 1.403 . S
C1907 C1908 1.524 . S
C1907 C1911 1.400 . S
C1908 H1893 0.960 . S
C1908 H1894 0.960 . S
C1908 H1895 0.960 . S
C1908 C1907 1.524 . S
C1909 C1906 1.403 . S
C1909 C1910 1.392 . S
C1909 C1913 1.495 . S
C1910 C1909 1.392 . S
C1910 C1911 1.385 . S
C1910 C1912 1.478 . S
C1911 H1905 0.930 . S
C1911 C1907 1.400 . S
C1911 C1910 1.385 . S
C1912 C1910 1.478 . S
C1912 C1914 1.381 . S
C1912 C1918 1.383 . S
C1913 C1909 1.495 . S
C1913 H1919 0.959 . S
C1913 H1920 0.961 . S
C1913 H1921 0.960 . S
C1914 C1912 1.381 . S
C1914 C1915 1.394 . S
C1914 H1922 0.930 . S
C1915 C1914 1.394 . S
C1915 C1916 1.383 . S
C1915 H1923 0.929 . S
C1916 C1915 1.383 . S
C1916 C1917 1.377 . S
C1917 H1901 0.930 . S
C1917 C1916 1.377 . S
C1917 C1918 1.379 . S
C1918 H1902 0.931 . S
C1918 C1912 1.383 . S
C1918 C1917 1.379 . S
H1919 C1913 0.959 . S
H1920 C1913 0.961 . S
H1921 C1913 0.960 . S
H1922 C1914 0.930 . S
H1923 C1915 0.929 . S
H1924 C1932 0.929 . S
H1925 C1934 0.930 . S
H1926 C1936 0.930 . S
H1927 C1939 0.929 . S
H1928 C1942 0.930 . S
H1929 C1944 0.960 . S
H1930 C1944 0.960 . S
H1931 C1944 0.960 . S
C1932 H1924 0.929 . S
C1932 C1933 1.377 . S
C1932 C1934 1.384 . S
C1933 C1932 1.377 . S
C1933 C1939 1.390 . S
C1934 H1925 0.930 . S
C1934 C1932 1.384 . S
C1934 C1935 1.372 . S
C1935 C1934 1.372 . S
C1935 C1936 1.400 . S
C1935 C1940 1.490 . S
C1936 H1926 0.930 . S
C1936 C1935 1.400 . S
C1936 C1939 1.386 . S
H1937 C1953 0.930 . S
H1938 C1954 0.931 . S
C1939 H1927 0.929 . S
C1939 C1933 1.390 . S
C1939 C1936 1.386 . S
C1940 C1935 1.490 . S
C1940 C1942 1.395 . S
C1940 C1943 1.403 . S
H1941 C1947 0.930 . S
C1942 H1928 0.930 . S
C1942 C1940 1.395 . S
C1942 C1945 1.403 . S
C1943 C1940 1.403 . S
C1943 C1944 1.524 . S
C1943 C1947 1.400 . S
C1944 H1929 0.960 . S
C1944 H1930 0.960 . S
C1944 H1931 0.960 . S
C1944 C1943 1.524 . S
C1945 C1942 1.403 . S
C1945 C1946 1.392 . S
C1945 C1949 1.495 . S
C1946 C1945 1.392 . S
C1946 C1947 1.385 . S
C1946 C1948 1.478 . S
C1947 H1941 0.930 . S
C1947 C1943 1.400 . S
C1947 C1946 1.385 . S
C1948 C1946 1.478 . S
C1948 C1950 1.381 . S
C1948 C1954 1.383 . S
C1949 C1945 1.495 . S
C1949 H1955 0.959 . S
C1949 H1956 0.961 . S
C1949 H1957 0.960 . S
C1950 C1948 1.381 . S
C1950 C1951 1.394 . S
C1950 H1958 0.930 . S
C1951 C1950 1.394 . S
C1951 C1952 1.383 . S
C1951 H1959 0.929 . S
C1952 C1951 1.383 . S
C1952 C1953 1.377 . S
C1953 H1937 0.930 . S
C1953 C1952 1.377 . S
C1953 C1954 1.379 . S
C1954 H1938 0.931 . S
C1954 C1948 1.383 . S
C1954 C1953 1.379 . S
H1955 C1949 0.959 . S
H1956 C1949 0.961 . S
H1957 C1949 0.960 . S
H1958 C1950 0.930 . S
H1959 C1951 0.929 . S
H1960 C1968 0.929 . S
H1961 C1970 0.930 . S
H1962 C1972 0.930 . S
H1963 C1975 0.929 . S
H1964 C1978 0.930 . S
H1965 C1980 0.960 . S
H1966 C1980 0.960 . S
H1967 C1980 0.960 . S
C1968 H1960 0.929 . S
C1968 C1969 1.377 . S
C1968 C1970 1.384 . S
C1969 C1968 1.377 . S
C1969 C1975 1.390 . S
C1970 H1961 0.930 . S
C1970 C1968 1.384 . S
C1970 C1971 1.372 . S
C1971 C1970 1.372 . S
C1971 C1972 1.400 . S
C1971 C1976 1.490 . S
C1972 H1962 0.930 . S
C1972 C1971 1.400 . S
C1972 C1975 1.386 . S
H1973 C1989 0.930 . S
H1974 C1990 0.931 . S
C1975 H1963 0.929 . S
C1975 C1969 1.390 . S
C1975 C1972 1.386 . S
C1976 C1971 1.490 . S
C1976 C1978 1.395 . S
C1976 C1979 1.403 . S
H1977 C1983 0.930 . S
C1978 H1964 0.930 . S
C1978 C1976 1.395 . S
C1978 C1981 1.403 . S
C1979 C1976 1.403 . S
C1979 C1980 1.524 . S
C1979 C1983 1.400 . S
C1980 H1965 0.960 . S
C1980 H1966 0.960 . S
C1980 H1967 0.960 . S
C1980 C1979 1.524 . S
C1981 C1978 1.403 . S
C1981 C1982 1.392 . S
C1981 C1985 1.495 . S
C1982 C1981 1.392 . S
C1982 C1983 1.385 . S
C1982 C1984 1.478 . S
C1983 H1977 0.930 . S
C1983 C1979 1.400 . S
C1983 C1982 1.385 . S
C1984 C1982 1.478 . S
C1984 C1986 1.381 . S
C1984 C1990 1.383 . S
C1985 C1981 1.495 . S
C1985 H1991 0.959 . S
C1985 H1992 0.961 . S
C1985 H1993 0.960 . S
C1986 C1984 1.381 . S
C1986 C1987 1.394 . S
C1986 H1994 0.930 . S
C1987 C1986 1.394 . S
C1987 C1988 1.383 . S
C1987 H1995 0.929 . S
C1988 C1987 1.383 . S
C1988 C1989 1.377 . S
C1989 H1973 0.930 . S
C1989 C1988 1.377 . S
C1989 C1990 1.379 . S
C1990 H1974 0.931 . S
C1990 C1984 1.383 . S
C1990 C1989 1.379 . S
H1991 C1985 0.959 . S
H1992 C1985 0.961 . S
H1993 C1985 0.960 . S
H1994 C1986 0.930 . S
H1995 C1987 0.929 . S
H1996 C2004 0.929 . S
H1997 C2006 0.930 . S
H1998 C2008 0.930 . S
H1999 C2011 0.929 . S
H2000 C2014 0.930 . S
H2001 C2016 0.960 . S
H2002 C2016 0.960 . S
H2003 C2016 0.960 . S
C2004 H1996 0.929 . S
C2004 C2005 1.377 . S
C2004 C2006 1.384 . S
C2005 C2004 1.377 . S
C2005 C2011 1.390 . S
C2006 H1997 0.930 . S
C2006 C2004 1.384 . S
C2006 C2007 1.372 . S
C2007 C2006 1.372 . S
C2007 C2008 1.400 . S
C2007 C2012 1.490 . S
C2008 H1998 0.930 . S
C2008 C2007 1.400 . S
C2008 C2011 1.386 . S
H2009 C2025 0.930 . S
H2010 C2026 0.931 . S
C2011 H1999 0.929 . S
C2011 C2005 1.390 . S
C2011 C2008 1.386 . S
C2012 C2007 1.490 . S
C2012 C2014 1.395 . S
C2012 C2015 1.403 . S
H2013 C2019 0.930 . S
C2014 H2000 0.930 . S
C2014 C2012 1.395 . S
C2014 C2017 1.403 . S
C2015 C2012 1.403 . S
C2015 C2016 1.524 . S
C2015 C2019 1.400 . S
C2016 H2001 0.960 . S
C2016 H2002 0.960 . S
C2016 H2003 0.960 . S
C2016 C2015 1.524 . S
C2017 C2014 1.403 . S
C2017 C2018 1.392 . S
C2017 C2021 1.495 . S
C2018 C2017 1.392 . S
C2018 C2019 1.385 . S
C2018 C2020 1.478 . S
C2019 H2013 0.930 . S
C2019 C2015 1.400 . S
C2019 C2018 1.385 . S
C2020 C2018 1.478 . S
C2020 C2022 1.381 . S
C2020 C2026 1.383 . S
C2021 C2017 1.495 . S
C2021 H2027 0.959 . S
C2021 H2028 0.961 . S
C2021 H2029 0.960 . S
C2022 C2020 1.381 . S
C2022 C2023 1.394 . S
C2022 H2030 0.930 . S
C2023 C2022 1.394 . S
C2023 C2024 1.383 . S
C2023 H2031 0.929 . S
C2024 C2023 1.383 . S
C2024 C2025 1.377 . S
C2025 H2009 0.930 . S
C2025 C2024 1.377 . S
C2025 C2026 1.379 . S
C2026 H2010 0.931 . S
C2026 C2020 1.383 . S
C2026 C2025 1.379 . S
H2027 C2021 0.959 . S
H2028 C2021 0.961 . S
H2029 C2021 0.960 . S
H2030 C2022 0.930 . S
H2031 C2023 0.929 . S
H2032 C2040 0.929 . S
H2033 C2042 0.930 . S
H2034 C2044 0.930 . S
H2035 C2047 0.929 . S
H2036 C2050 0.930 . S
H2037 C2052 0.960 . S
H2038 C2052 0.960 . S
H2039 C2052 0.960 . S
C2040 H2032 0.929 . S
C2040 C2041 1.377 . S
C2040 C2042 1.384 . S
C2041 C2040 1.377 . S
C2041 C2047 1.390 . S
C2042 H2033 0.930 . S
C2042 C2040 1.384 . S
C2042 C2043 1.372 . S
C2043 C2042 1.372 . S
C2043 C2044 1.400 . S
C2043 C2048 1.490 . S
C2044 H2034 0.930 . S
C2044 C2043 1.400 . S
C2044 C2047 1.386 . S
H2045 C2061 0.930 1_554 S
H2046 C2062 0.931 . S
C2047 H2035 0.929 . S
C2047 C2041 1.390 . S
C2047 C2044 1.386 . S
C2048 C2043 1.490 . S
C2048 C2050 1.395 . S
C2048 C2051 1.403 . S
H2049 C2055 0.930 . S
C2050 H2036 0.930 . S
C2050 C2048 1.395 . S
C2050 C2053 1.403 . S
C2051 C2048 1.403 . S
C2051 C2052 1.524 . S
C2051 C2055 1.400 . S
C2052 H2037 0.960 . S
C2052 H2038 0.960 . S
C2052 H2039 0.960 . S
C2052 C2051 1.524 . S
C2053 C2050 1.403 . S
C2053 C2054 1.392 . S
C2053 C2057 1.495 . S
C2054 C2053 1.392 . S
C2054 C2055 1.385 . S
C2054 C2056 1.478 . S
C2055 H2049 0.930 . S
C2055 C2051 1.400 . S
C2055 C2054 1.385 . S
C2056 C2054 1.478 . S
C2056 C2058 1.381 . S
C2056 C2062 1.383 . S
C2057 C2053 1.495 . S
C2057 H2063 0.959 . S
C2057 H2064 0.961 . S
C2057 H2065 0.960 . S
C2058 C2056 1.381 . S
C2058 C2059 1.394 . S
C2058 H2066 0.930 . S
C2059 C2058 1.394 . S
C2059 C2060 1.383 . S
C2059 H2067 0.929 . S
C2060 C2059 1.383 . S
C2060 C2061 1.377 . S
C2061 H2045 0.930 1_556 S
C2061 C2060 1.377 . S
C2061 C2062 1.379 . S
C2062 H2046 0.931 . S
C2062 C2056 1.383 . S
C2062 C2061 1.379 . S
H2063 C2057 0.959 . S
H2064 C2057 0.961 . S
H2065 C2057 0.960 . S
H2066 C2058 0.930 . S
H2067 C2059 0.929 . S
H2068 C2076 0.929 . S
H2069 C2078 0.930 . S
H2070 C2080 0.930 . S
H2071 C2083 0.929 . S
H2072 C2086 0.930 . S
H2073 C2088 0.960 . S
H2074 C2088 0.960 . S
H2075 C2088 0.960 . S
C2076 H2068 0.929 . S
C2076 C2077 1.377 . S
C2076 C2078 1.384 . S
C2077 C2076 1.377 . S
C2077 C2083 1.390 . S
C2078 H2069 0.930 . S
C2078 C2076 1.384 . S
C2078 C2079 1.372 . S
C2079 C2078 1.372 . S
C2079 C2080 1.400 . S
C2079 C2084 1.490 . S
C2080 H2070 0.930 . S
C2080 C2079 1.400 . S
C2080 C2083 1.386 . S
H2081 C2097 0.930 . S
H2082 C2098 0.931 . S
C2083 H2071 0.929 . S
C2083 C2077 1.390 . S
C2083 C2080 1.386 . S
C2084 C2079 1.490 . S
C2084 C2086 1.395 . S
C2084 C2087 1.403 . S
H2085 C2091 0.930 . S
C2086 H2072 0.930 . S
C2086 C2084 1.395 . S
C2086 C2089 1.403 . S
C2087 C2084 1.403 . S
C2087 C2088 1.524 . S
C2087 C2091 1.400 . S
C2088 H2073 0.960 . S
C2088 H2074 0.960 . S
C2088 H2075 0.960 . S
C2088 C2087 1.524 . S
C2089 C2086 1.403 . S
C2089 C2090 1.392 . S
C2089 C2093 1.495 . S
C2090 C2089 1.392 . S
C2090 C2091 1.385 . S
C2090 C2092 1.478 . S
C2091 H2085 0.930 . S
C2091 C2087 1.400 . S
C2091 C2090 1.385 . S
C2092 C2090 1.478 . S
C2092 C2094 1.381 . S
C2092 C2098 1.383 . S
C2093 C2089 1.495 . S
C2093 H2099 0.959 . S
C2093 H2100 0.961 . S
C2093 H2101 0.960 . S
C2094 C2092 1.381 . S
C2094 C2095 1.394 . S
C2094 H2102 0.930 . S
C2095 C2094 1.394 . S
C2095 C2096 1.383 . S
C2095 H2103 0.929 . S
C2096 C2095 1.383 . S
C2096 C2097 1.377 . S
C2097 H2081 0.930 . S
C2097 C2096 1.377 . S
C2097 C2098 1.379 . S
C2098 H2082 0.931 . S
C2098 C2092 1.383 . S
C2098 C2097 1.379 . S
H2099 C2093 0.959 . S
H2100 C2093 0.961 . S
H2101 C2093 0.960 . S
H2102 C2094 0.930 . S
H2103 C2095 0.929 . S
H2104 C2112 0.929 . S
H2105 C2114 0.919 1_565 S
H2106 C2116 0.930 . S
H2107 C2119 0.929 . S
H2108 C2122 0.930 1_565 S
H2109 C2124 0.960 . S
H2110 C2124 0.960 . S
H2111 C2124 0.960 . S
C2112 H2104 0.929 . S
C2112 C2113 1.377 1_565 S
C2112 C2114 1.383 1_565 S
C2113 C2112 1.377 1_545 S
C2113 C2119 1.390 . S
C2114 H2105 0.919 1_545 S
C2114 C2112 1.383 1_545 S
C2114 C2115 1.384 . S
C2115 C2114 1.384 . S
C2115 C2116 1.400 . S
C2115 C2120 1.490 . S
C2116 H2106 0.930 . S
C2116 C2115 1.400 . S
C2116 C2119 1.386 . S
H2117 C2133 0.930 . S
H2118 C2134 0.931 . S
C2119 H2107 0.929 . S
C2119 C2113 1.390 . S
C2119 C2116 1.386 . S
C2120 C2115 1.490 . S
C2120 C2122 1.395 . S
C2120 C2123 1.403 . S
H2121 C2127 0.930 . S
C2122 H2108 0.930 1_545 S
C2122 C2120 1.395 . S
C2122 C2125 1.403 . S
C2123 C2120 1.403 . S
C2123 C2124 1.524 . S
C2123 C2127 1.400 . S
C2124 H2109 0.960 . S
C2124 H2110 0.960 . S
C2124 H2111 0.960 . S
C2124 C2123 1.524 . S
C2125 C2122 1.403 . S
C2125 C2126 1.392 . S
C2125 C2129 1.495 1_545 S
C2126 C2125 1.392 . S
C2126 C2127 1.385 . S
C2126 C2128 1.478 . S
C2127 H2121 0.930 . S
C2127 C2123 1.400 . S
C2127 C2126 1.385 . S
C2128 C2126 1.478 . S
C2128 C2130 1.381 . S
C2128 C2134 1.383 . S
C2129 C2125 1.495 1_565 S
C2129 H2135 0.959 . S
C2129 H2136 0.961 1_565 S
C2129 H2137 0.960 . S
C2130 C2128 1.381 . S
C2130 C2131 1.394 . S
C2130 H2138 0.930 1_545 S
C2131 C2130 1.394 . S
C2131 C2132 1.383 . S
C2131 H2139 0.929 . S
C2132 C2131 1.383 . S
C2132 C2133 1.377 . S
C2133 H2117 0.930 . S
C2133 C2132 1.377 . S
C2133 C2134 1.379 . S
C2134 H2118 0.931 . S
C2134 C2128 1.383 . S
C2134 C2133 1.379 . S
H2135 C2129 0.959 . S
H2136 C2129 0.961 1_545 S
H2137 C2129 0.960 . S
H2138 C2130 0.930 1_565 S
H2139 C2131 0.929 . S
H2140 C2148 0.929 . S
H2141 C2150 0.930 . S
H2142 C2152 0.930 . S
H2143 C2155 0.929 . S
H2144 C2158 0.930 . S
H2145 C2160 0.960 . S
H2146 C2160 0.960 . S
H2147 C2160 0.960 . S
C2148 H2140 0.929 . S
C2148 C2149 1.377 . S
C2148 C2150 1.384 . S
C2149 C2148 1.377 . S
C2149 C2155 1.390 . S
C2150 H2141 0.930 . S
C2150 C2148 1.384 . S
C2150 C2151 1.372 . S
C2151 C2150 1.372 . S
C2151 C2152 1.400 . S
C2151 C2156 1.490 . S
C2152 H2142 0.930 . S
C2152 C2151 1.400 . S
C2152 C2155 1.386 . S
H2153 C2169 0.930 . S
H2154 C2170 0.931 . S
C2155 H2143 0.929 . S
C2155 C2149 1.390 . S
C2155 C2152 1.386 . S
C2156 C2151 1.490 . S
C2156 C2158 1.395 . S
C2156 C2159 1.403 . S
H2157 C2163 0.930 . S
C2158 H2144 0.930 . S
C2158 C2156 1.395 . S
C2158 C2161 1.403 . S
C2159 C2156 1.403 . S
C2159 C2160 1.524 . S
C2159 C2163 1.400 . S
C2160 H2145 0.960 . S
C2160 H2146 0.960 . S
C2160 H2147 0.960 . S
C2160 C2159 1.524 . S
C2161 C2158 1.403 . S
C2161 C2162 1.392 . S
C2161 C2165 1.495 . S
C2162 C2161 1.392 . S
C2162 C2163 1.385 . S
C2162 C2164 1.478 . S
C2163 H2157 0.930 . S
C2163 C2159 1.400 . S
C2163 C2162 1.385 . S
C2164 C2162 1.478 . S
C2164 C2166 1.381 . S
C2164 C2170 1.383 . S
C2165 C2161 1.495 . S
C2165 H2171 0.959 . S
C2165 H2172 0.961 . S
C2165 H2173 0.960 . S
C2166 C2164 1.381 . S
C2166 C2167 1.394 . S
C2166 H2174 0.930 . S
C2167 C2166 1.394 . S
C2167 C2168 1.383 . S
C2167 H2175 0.929 . S
C2168 C2167 1.383 . S
C2168 C2169 1.377 . S
C2169 H2153 0.930 . S
C2169 C2168 1.377 . S
C2169 C2170 1.379 . S
C2170 H2154 0.931 . S
C2170 C2164 1.383 . S
C2170 C2169 1.379 . S
H2171 C2165 0.959 . S
H2172 C2165 0.961 . S
H2173 C2165 0.960 . S
H2174 C2166 0.930 . S
H2175 C2167 0.929 . S
H2176 C2184 0.929 . S
H2177 C2186 0.930 . S
H2178 C2188 0.930 . S
H2179 C2191 0.929 . S
H2180 C2194 0.930 . S
H2181 C2196 0.960 . S
H2182 C2196 0.960 . S
H2183 C2196 0.960 . S
C2184 H2176 0.929 . S
C2184 C2185 1.377 . S
C2184 C2186 1.384 . S
C2185 C2184 1.377 . S
C2185 C2191 1.390 1_545 S
C2186 H2177 0.930 . S
C2186 C2184 1.384 . S
C2186 C2187 1.372 . S
C2187 C2186 1.372 . S
C2187 C2188 1.400 1_545 S
C2187 C2192 1.490 . S
C2188 H2178 0.930 . S
C2188 C2187 1.400 1_565 S
C2188 C2191 1.386 . S
H2189 C2205 0.891 1_565 S
H2190 C2206 0.931 1_565 S
C2191 H2179 0.929 . S
C2191 C2185 1.390 1_565 S
C2191 C2188 1.386 . S
C2192 C2187 1.490 . S
C2192 C2194 1.395 . S
C2192 C2195 1.403 . S
H2193 C2199 0.930 1_565 S
C2194 H2180 0.930 . S
C2194 C2192 1.395 . S
C2194 C2197 1.403 . S
C2195 C2192 1.403 . S
C2195 C2196 1.524 1_545 S
C2195 C2199 1.400 . S
C2196 H2181 0.960 . S
C2196 H2182 0.960 . S
C2196 H2183 0.960 . S
C2196 C2195 1.524 1_565 S
C2197 C2194 1.403 . S
C2197 C2198 1.392 . S
C2197 C2201 1.495 . S
C2198 C2197 1.392 . S
C2198 C2199 1.385 . S
C2198 C2200 1.478 . S
C2199 H2193 0.930 1_545 S
C2199 C2195 1.400 . S
C2199 C2198 1.385 . S
C2200 C2198 1.478 . S
C2200 C2202 1.381 . S
C2200 C2206 1.383 . S
C2201 C2197 1.495 . S
C2201 H2207 0.959 . S
C2201 H2208 0.961 . S
C2201 H2209 0.960 . S
C2202 C2200 1.381 . S
C2202 C2203 1.394 . S
C2202 H2210 0.930 . S
C2203 C2202 1.394 . S
C2203 C2204 1.383 . S
C2203 H2211 0.929 . S
C2204 C2203 1.383 . S
C2204 C2205 1.377 . S
C2205 H2189 0.891 1_545 S
C2205 C2204 1.377 . S
C2205 C2206 1.379 . S
C2206 H2190 0.931 1_545 S
C2206 C2200 1.383 . S
C2206 C2205 1.379 . S
H2207 C2201 0.959 . S
H2208 C2201 0.961 . S
H2209 C2201 0.960 . S
H2210 C2202 0.930 . S
H2211 C2203 0.929 . S
H2212 C2220 0.929 . S
H2213 C2222 0.930 . S
H2214 C2224 0.930 . S
H2215 C2227 0.929 . S
H2216 C2230 0.930 . S
H2217 C2232 0.960 . S
H2218 C2232 0.960 . S
H2219 C2232 0.960 . S
C2220 H2212 0.929 . S
C2220 C2221 1.377 . S
C2220 C2222 1.384 . S
C2221 C2220 1.377 . S
C2221 C2227 1.390 . S
C2222 H2213 0.930 . S
C2222 C2220 1.384 . S
C2222 C2223 1.372 . S
C2223 C2222 1.372 . S
C2223 C2224 1.400 . S
C2223 C2228 1.490 . S
C2224 H2214 0.930 . S
C2224 C2223 1.400 . S
C2224 C2227 1.386 . S
H2225 C2241 0.930 . S
H2226 C2242 0.931 . S
C2227 H2215 0.929 . S
C2227 C2221 1.390 . S
C2227 C2224 1.386 . S
C2228 C2223 1.490 . S
C2228 C2230 1.395 . S
C2228 C2231 1.403 . S
H2229 C2235 0.930 . S
C2230 H2216 0.930 . S
C2230 C2228 1.395 . S
C2230 C2233 1.403 . S
C2231 C2228 1.403 . S
C2231 C2232 1.524 . S
C2231 C2235 1.400 . S
C2232 H2217 0.960 . S
C2232 H2218 0.960 . S
C2232 H2219 0.960 . S
C2232 C2231 1.524 . S
C2233 C2230 1.403 . S
C2233 C2234 1.392 . S
C2233 C2237 1.495 . S
C2234 C2233 1.392 . S
C2234 C2235 1.385 . S
C2234 C2236 1.478 . S
C2235 H2229 0.930 . S
C2235 C2231 1.400 . S
C2235 C2234 1.385 . S
C2236 C2234 1.478 . S
C2236 C2238 1.381 . S
C2236 C2242 1.383 . S
C2237 C2233 1.495 . S
C2237 H2243 0.959 . S
C2237 H2244 0.961 . S
C2237 H2245 0.960 . S
C2238 C2236 1.381 . S
C2238 C2239 1.394 . S
C2238 H2246 0.930 . S
C2239 C2238 1.394 . S
C2239 C2240 1.383 . S
C2239 H2247 0.929 . S
C2240 C2239 1.383 . S
C2240 C2241 1.377 . S
C2241 H2225 0.930 . S
C2241 C2240 1.377 . S
C2241 C2242 1.379 . S
C2242 H2226 0.931 . S
C2242 C2236 1.383 . S
C2242 C2241 1.379 . S
H2243 C2237 0.959 . S
H2244 C2237 0.961 . S
H2245 C2237 0.960 . S
H2246 C2238 0.930 . S
H2247 C2239 0.929 . S
H2248 C2256 0.929 . S
H2249 C2258 0.930 . S
H2250 C2260 0.930 . S
H2251 C2263 0.929 . S
H2252 C2266 0.930 . S
H2253 C2268 0.960 . S
H2254 C2268 0.960 . S
H2255 C2268 0.960 . S
C2256 H2248 0.929 . S
C2256 C2257 1.377 . S
C2256 C2258 1.384 . S
C2257 C2256 1.377 . S
C2257 C2263 1.390 1_565 S
C2258 H2249 0.930 . S
C2258 C2256 1.384 . S
C2258 C2259 1.372 1_565 S
C2259 C2258 1.372 1_545 S
C2259 C2260 1.400 . S
C2259 C2264 1.490 . S
C2260 H2250 0.930 . S
C2260 C2259 1.400 . S
C2260 C2263 1.386 . S
H2261 C2277 0.930 . S
H2262 C2278 0.931 . S
C2263 H2251 0.929 . S
C2263 C2257 1.390 1_545 S
C2263 C2260 1.386 . S
C2264 C2259 1.490 . S
C2264 C2266 1.395 . S
C2264 C2267 1.403 1_545 S
H2265 C2271 0.930 1_565 S
C2266 H2252 0.930 . S
C2266 C2264 1.395 . S
C2266 C2269 1.403 . S
C2267 C2264 1.403 1_565 S
C2267 C2268 1.524 . S
C2267 C2271 1.400 1_565 S
C2268 H2253 0.960 . S
C2268 H2254 0.960 . S
C2268 H2255 0.960 . S
C2268 C2267 1.524 . S
C2269 C2266 1.403 . S
C2269 C2270 1.392 . S
C2269 C2273 1.495 . S
C2270 C2269 1.392 . S
C2270 C2271 1.385 . S
C2270 C2272 1.478 . S
C2271 H2265 0.930 1_545 S
C2271 C2267 1.400 1_545 S
C2271 C2270 1.385 . S
C2272 C2270 1.478 . S
C2272 C2274 1.381 . S
C2272 C2278 1.383 . S
C2273 C2269 1.495 . S
C2273 H2279 0.959 . S
C2273 H2280 0.961 . S
C2273 H2281 0.960 . S
C2274 C2272 1.381 . S
C2274 C2275 1.394 . S
C2274 H2282 0.930 1_545 S
C2275 C2274 1.394 . S
C2275 C2276 1.383 . S
C2275 H2283 0.915 1_545 S
C2276 C2275 1.383 . S
C2276 C2277 1.377 . S
C2277 H2261 0.930 . S
C2277 C2276 1.377 . S
C2277 C2278 1.379 . S
C2278 H2262 0.931 . S
C2278 C2272 1.383 . S
C2278 C2277 1.379 . S
H2279 C2273 0.959 . S
H2280 C2273 0.961 . S
H2281 C2273 0.960 . S
H2282 C2274 0.930 1_565 S
H2283 C2275 0.915 1_565 S
H2284 C2292 0.929 . S
H2285 C2294 0.930 . S
H2286 C2296 0.930 . S
H2287 C2299 0.929 . S
H2288 C2302 0.930 . S
H2289 C2304 0.960 . S
H2290 C2304 0.960 . S
H2291 C2304 0.960 . S
C2292 H2284 0.929 . S
C2292 C2293 1.377 . S
C2292 C2294 1.384 . S
C2293 C2292 1.377 . S
C2293 C2299 1.390 . S
C2294 H2285 0.930 . S
C2294 C2292 1.384 . S
C2294 C2295 1.372 . S
C2295 C2294 1.372 . S
C2295 C2296 1.400 . S
C2295 C2300 1.490 . S
C2296 H2286 0.930 . S
C2296 C2295 1.400 . S
C2296 C2299 1.386 . S
H2297 C2313 0.930 . S
H2298 C2314 0.931 . S
C2299 H2287 0.929 . S
C2299 C2293 1.390 . S
C2299 C2296 1.386 . S
C2300 C2295 1.490 . S
C2300 C2302 1.395 . S
C2300 C2303 1.403 . S
H2301 C2307 0.930 . S
C2302 H2288 0.930 . S
C2302 C2300 1.395 . S
C2302 C2305 1.403 . S
C2303 C2300 1.403 . S
C2303 C2304 1.524 . S
C2303 C2307 1.400 . S
C2304 H2289 0.960 . S
C2304 H2290 0.960 . S
C2304 H2291 0.960 . S
C2304 C2303 1.524 . S
C2305 C2302 1.403 . S
C2305 C2306 1.392 . S
C2305 C2309 1.495 . S
C2306 C2305 1.392 . S
C2306 C2307 1.385 . S
C2306 C2308 1.478 . S
C2307 H2301 0.930 . S
C2307 C2303 1.400 . S
C2307 C2306 1.385 . S
C2308 C2306 1.478 . S
C2308 C2310 1.381 . S
C2308 C2314 1.383 . S
C2309 C2305 1.495 . S
C2309 H2315 0.959 . S
C2309 H2316 0.961 . S
C2309 H2317 0.960 . S
C2310 C2308 1.381 . S
C2310 C2311 1.394 . S
C2310 H2318 0.930 . S
C2311 C2310 1.394 . S
C2311 C2312 1.383 . S
C2311 H2319 0.929 . S
C2312 C2311 1.383 . S
C2312 C2313 1.377 . S
C2313 H2297 0.930 . S
C2313 C2312 1.377 . S
C2313 C2314 1.379 . S
C2314 H2298 0.931 . S
C2314 C2308 1.383 . S
C2314 C2313 1.379 . S
H2315 C2309 0.959 . S
H2316 C2309 0.961 . S
H2317 C2309 0.960 . S
H2318 C2310 0.930 . S
H2319 C2311 0.929 . S
H2320 C2328 0.929 . S
H2321 C2330 0.930 . S
H2322 C2332 0.930 . S
H2323 C2335 0.929 . S
H2324 C2338 0.930 . S
H2325 C2340 0.960 . S
H2326 C2340 0.960 . S
H2327 C2340 0.960 . S
C2328 H2320 0.929 . S
C2328 C2329 1.377 . S
C2328 C2330 1.384 . S
C2329 C2328 1.377 . S
C2329 C2335 1.390 . S
C2330 H2321 0.930 . S
C2330 C2328 1.384 . S
C2330 C2331 1.372 . S
C2331 C2330 1.372 . S
C2331 C2332 1.400 . S
C2331 C2336 1.490 . S
C2332 H2322 0.930 . S
C2332 C2331 1.400 . S
C2332 C2335 1.386 . S
H2333 C2349 0.930 . S
H2334 C2350 0.931 . S
C2335 H2323 0.929 . S
C2335 C2329 1.390 . S
C2335 C2332 1.386 . S
C2336 C2331 1.490 . S
C2336 C2338 1.395 . S
C2336 C2339 1.403 1_545 S
H2337 C2343 0.930 . S
C2338 H2324 0.930 . S
C2338 C2336 1.395 . S
C2338 C2341 1.403 . S
C2339 C2336 1.403 1_565 S
C2339 C2340 1.524 . S
C2339 C2343 1.400 . S
C2340 H2325 0.960 . S
C2340 H2326 0.960 . S
C2340 H2327 0.960 . S
C2340 C2339 1.524 . S
C2341 C2338 1.403 . S
C2341 C2342 1.392 . S
C2341 C2345 1.495 . S
C2342 C2341 1.392 . S
C2342 C2343 1.385 1_545 S
C2342 C2344 1.478 . S
C2343 H2337 0.930 . S
C2343 C2339 1.400 . S
C2343 C2342 1.385 1_565 S
C2344 C2342 1.478 . S
C2344 C2346 1.381 . S
C2344 C2350 1.383 . S
C2345 C2341 1.495 . S
C2345 H2351 0.959 . S
C2345 H2352 0.961 . S
C2345 H2353 0.960 . S
C2346 C2344 1.381 . S
C2346 C2347 1.394 . S
C2346 H2354 0.930 . S
C2347 C2346 1.394 . S
C2347 C2348 1.383 . S
C2347 H2355 0.929 . S
C2348 C2347 1.383 . S
C2348 C2349 1.377 . S
C2349 H2333 0.930 . S
C2349 C2348 1.377 . S
C2349 C2350 1.379 . S
C2350 H2334 0.931 . S
C2350 C2344 1.383 . S
C2350 C2349 1.379 . S
H2351 C2345 0.959 . S
H2352 C2345 0.961 . S
H2353 C2345 0.960 . S
H2354 C2346 0.930 . S
H2355 C2347 0.929 . S
H2356 C2364 0.929 . S
H2357 C2366 0.930 . S
H2358 C2368 0.930 . S
H2359 C2371 0.929 . S
H2360 C2374 0.930 . S
H2361 C2376 0.960 . S
H2362 C2376 0.960 . S
H2363 C2376 0.960 . S
C2364 H2356 0.929 . S
C2364 C2365 1.377 . S
C2364 C2366 1.384 . S
C2365 C2364 1.377 . S
C2365 C2371 1.390 . S
C2366 H2357 0.930 . S
C2366 C2364 1.384 . S
C2366 C2367 1.372 . S
C2367 C2366 1.372 . S
C2367 C2368 1.400 . S
C2367 C2372 1.490 . S
C2368 H2358 0.930 . S
C2368 C2367 1.400 . S
C2368 C2371 1.386 . S
H2369 C2385 0.930 . S
H2370 C2386 0.931 . S
C2371 H2359 0.929 . S
C2371 C2365 1.390 . S
C2371 C2368 1.386 . S
C2372 C2367 1.490 . S
C2372 C2374 1.395 . S
C2372 C2375 1.403 . S
H2373 C2379 0.930 . S
C2374 H2360 0.930 . S
C2374 C2372 1.395 . S
C2374 C2377 1.403 . S
C2375 C2372 1.403 . S
C2375 C2376 1.524 . S
C2375 C2379 1.400 . S
C2376 H2361 0.960 . S
C2376 H2362 0.960 . S
C2376 H2363 0.960 . S
C2376 C2375 1.524 . S
C2377 C2374 1.403 . S
C2377 C2378 1.392 . S
C2377 C2381 1.495 . S
C2378 C2377 1.392 . S
C2378 C2379 1.385 . S
C2378 C2380 1.478 . S
C2379 H2373 0.930 . S
C2379 C2375 1.400 . S
C2379 C2378 1.385 . S
C2380 C2378 1.478 . S
C2380 C2382 1.381 . S
C2380 C2386 1.383 . S
C2381 C2377 1.495 . S
C2381 H2387 0.959 . S
C2381 H2388 0.961 . S
C2381 H2389 0.960 . S
C2382 C2380 1.381 . S
C2382 C2383 1.394 . S
C2382 H2390 0.930 . S
C2383 C2382 1.394 . S
C2383 C2384 1.383 . S
C2383 H2391 0.929 . S
C2384 C2383 1.383 . S
C2384 C2385 1.377 . S
C2385 H2369 0.930 . S
C2385 C2384 1.377 . S
C2385 C2386 1.379 . S
C2386 H2370 0.931 . S
C2386 C2380 1.383 . S
C2386 C2385 1.379 . S
H2387 C2381 0.959 . S
H2388 C2381 0.961 . S
H2389 C2381 0.960 . S
H2390 C2382 0.930 . S
H2391 C2383 0.929 . S
H2392 C2400 0.929 . S
H2393 C2402 0.930 . S
H2394 C2404 0.930 . S
H2395 C2407 0.929 . S
H2396 C2410 0.930 . S
H2397 C2412 0.960 . S
H2398 C2412 0.960 . S
H2399 C2412 0.960 . S
C2400 H2392 0.929 . S
C2400 C2401 1.377 . S
C2400 C2402 1.384 . S
C2401 C2400 1.377 . S
C2401 C2407 1.390 . S
C2402 H2393 0.930 . S
C2402 C2400 1.384 . S
C2402 C2403 1.372 . S
C2403 C2402 1.372 . S
C2403 C2404 1.400 . S
C2403 C2408 1.490 . S
C2404 H2394 0.930 . S
C2404 C2403 1.400 . S
C2404 C2407 1.386 . S
H2405 C2421 0.930 . S
H2406 C2422 0.931 . S
C2407 H2395 0.929 . S
C2407 C2401 1.390 . S
C2407 C2404 1.386 . S
C2408 C2403 1.490 . S
C2408 C2410 1.395 1_554 S
C2408 C2411 1.403 . S
H2409 C2415 0.930 . S
C2410 H2396 0.930 . S
C2410 C2408 1.395 1_556 S
C2410 C2413 1.403 . S
C2411 C2408 1.403 . S
C2411 C2412 1.524 . S
C2411 C2415 1.400 . S
C2412 H2397 0.960 . S
C2412 H2398 0.960 . S
C2412 H2399 0.960 . S
C2412 C2411 1.524 . S
C2413 C2410 1.403 . S
C2413 C2414 1.392 1_556 S
C2413 C2417 1.495 . S
C2414 C2413 1.392 1_554 S
C2414 C2415 1.385 . S
C2414 C2416 1.478 1_554 S
C2415 H2409 0.930 . S
C2415 C2411 1.400 . S
C2415 C2414 1.385 . S
C2416 C2414 1.478 1_556 S
C2416 C2418 1.381 1_556 S
C2416 C2422 1.383 . S
C2417 C2413 1.495 . S
C2417 H2423 0.959 . S
C2417 H2424 0.961 . S
C2417 H2425 0.960 . S
C2418 C2416 1.381 1_554 S
C2418 C2419 1.394 . S
C2418 H2426 0.930 . S
C2419 C2418 1.394 . S
C2419 C2420 1.383 1_554 S
C2419 H2427 0.929 . S
C2420 C2419 1.383 1_556 S
C2420 C2421 1.377 . S
C2421 H2405 0.930 . S
C2421 C2420 1.377 . S
C2421 C2422 1.379 . S
C2422 H2406 0.931 . S
C2422 C2416 1.383 . S
C2422 C2421 1.379 . S
H2423 C2417 0.959 . S
H2424 C2417 0.961 . S
H2425 C2417 0.960 . S
H2426 C2418 0.930 . S
H2427 C2419 0.929 . S
H2428 C2436 0.929 . S
H2429 C2438 0.930 . S
H2430 C2440 0.930 1_556 S
H2431 C2443 0.929 1_556 S
H2432 C2446 0.930 . S
H2433 C2448 0.962 1_556 S
H2434 C2448 0.958 . S
H2435 C2448 0.962 1_556 S
C2436 H2428 0.929 . S
C2436 C2437 1.377 . S
C2436 C2438 1.384 . S
C2437 C2436 1.377 . S
C2437 C2443 1.390 . S
C2438 H2429 0.930 . S
C2438 C2436 1.384 . S
C2438 C2439 1.372 . S
C2439 C2438 1.372 . S
C2439 C2440 1.400 . S
C2439 C2444 1.490 . S
C2440 H2430 0.930 1_554 S
C2440 C2439 1.400 . S
C2440 C2443 1.386 . S
H2441 C2457 0.930 . S
H2442 C2458 0.932 . S
C2443 H2431 0.929 1_554 S
C2443 C2437 1.390 . S
C2443 C2440 1.386 . S
C2444 C2439 1.490 . S
C2444 C2446 1.395 . S
C2444 C2447 1.403 . S
H2445 C2451 0.930 . S
C2446 H2432 0.930 . S
C2446 C2444 1.395 . S
C2446 C2449 1.403 . S
C2447 C2444 1.403 . S
C2447 C2448 1.522 . S
C2447 C2451 1.400 . S
C2448 H2433 0.962 1_554 S
C2448 H2434 0.958 . S
C2448 H2435 0.962 1_554 S
C2448 C2447 1.522 . S
C2449 C2446 1.403 . S
C2449 C2450 1.392 . S
C2449 C2453 1.495 . S
C2450 C2449 1.392 . S
C2450 C2451 1.385 . S
C2450 C2452 1.478 . S
C2451 H2445 0.930 . S
C2451 C2447 1.400 . S
C2451 C2450 1.385 . S
C2452 C2450 1.478 . S
C2452 C2454 1.381 . S
C2452 C2458 1.382 1_554 S
C2453 C2449 1.495 . S
C2453 H2459 0.959 . S
C2453 H2460 0.961 . S
C2453 H2461 0.960 . S
C2454 C2452 1.381 . S
C2454 C2455 1.394 . S
C2454 H2462 0.930 . S
C2455 C2454 1.394 . S
C2455 C2456 1.383 . S
C2455 H2463 0.929 . S
C2456 C2455 1.383 . S
C2456 C2457 1.377 1_554 S
C2457 H2441 0.930 . S
C2457 C2456 1.377 1_556 S
C2457 C2458 1.380 . S
C2458 H2442 0.932 . S
C2458 C2452 1.382 1_556 S
C2458 C2457 1.380 . S
H2459 C2453 0.959 . S
H2460 C2453 0.961 . S
H2461 C2453 0.960 . S
H2462 C2454 0.930 . S
H2463 C2455 0.929 . S
H2464 C2472 0.929 . S
H2465 C2474 0.930 . S
H2466 C2476 0.930 . S
H2467 C2479 0.929 . S
H2468 C2482 0.930 . S
H2469 C2484 0.960 . S
H2470 C2484 0.960 . S
H2471 C2484 0.960 . S
C2472 H2464 0.929 . S
C2472 C2473 1.377 . S
C2472 C2474 1.384 . S
C2473 C2472 1.377 . S
C2473 C2479 1.390 . S
C2474 H2465 0.930 . S
C2474 C2472 1.384 . S
C2474 C2475 1.372 . S
C2475 C2474 1.372 . S
C2475 C2476 1.400 . S
C2475 C2480 1.490 . S
C2476 H2466 0.930 . S
C2476 C2475 1.400 . S
C2476 C2479 1.386 . S
H2477 C2493 0.930 . S
H2478 C2494 0.931 . S
C2479 H2467 0.929 . S
C2479 C2473 1.390 . S
C2479 C2476 1.386 . S
C2480 C2475 1.490 . S
C2480 C2482 1.395 . S
C2480 C2483 1.403 . S
H2481 C2487 0.930 . S
C2482 H2468 0.930 . S
C2482 C2480 1.395 . S
C2482 C2485 1.403 . S
C2483 C2480 1.403 . S
C2483 C2484 1.524 . S
C2483 C2487 1.400 . S
C2484 H2469 0.960 . S
C2484 H2470 0.960 . S
C2484 H2471 0.960 . S
C2484 C2483 1.524 . S
C2485 C2482 1.403 . S
C2485 C2486 1.392 . S
C2485 C2489 1.495 . S
C2486 C2485 1.392 . S
C2486 C2487 1.385 . S
C2486 C2488 1.478 . S
C2487 H2481 0.930 . S
C2487 C2483 1.400 . S
C2487 C2486 1.385 . S
C2488 C2486 1.478 . S
C2488 C2490 1.381 . S
C2488 C2494 1.383 . S
C2489 C2485 1.495 . S
C2489 H2495 0.959 . S
C2489 H2496 0.961 . S
C2489 H2497 0.960 . S
C2490 C2488 1.381 . S
C2490 C2491 1.394 . S
C2490 H2498 0.930 . S
C2491 C2490 1.394 . S
C2491 C2492 1.383 . S
C2491 H2499 0.929 . S
C2492 C2491 1.383 . S
C2492 C2493 1.377 . S
C2493 H2477 0.930 . S
C2493 C2492 1.377 . S
C2493 C2494 1.379 . S
C2494 H2478 0.931 . S
C2494 C2488 1.383 . S
C2494 C2493 1.379 . S
H2495 C2489 0.959 . S
H2496 C2489 0.961 . S
H2497 C2489 0.960 . S
H2498 C2490 0.930 . S
H2499 C2491 0.929 . S
H2500 C2508 0.929 . S
H2501 C2510 0.930 . S
H2502 C2512 0.930 . S
H2503 C2515 0.929 . S
H2504 C2518 0.930 . S
H2505 C2520 0.960 . S
H2506 C2520 0.960 . S
H2507 C2520 0.960 . S
C2508 H2500 0.929 . S
C2508 C2509 1.377 . S
C2508 C2510 1.384 . S
C2509 C2508 1.377 . S
C2509 C2515 1.390 . S
C2510 H2501 0.930 . S
C2510 C2508 1.384 . S
C2510 C2511 1.372 . S
C2511 C2510 1.372 . S
C2511 C2512 1.400 . S
C2511 C2516 1.490 . S
C2512 H2502 0.930 . S
C2512 C2511 1.400 . S
C2512 C2515 1.386 . S
H2513 C2529 0.930 . S
H2514 C2530 0.931 . S
C2515 H2503 0.929 . S
C2515 C2509 1.390 . S
C2515 C2512 1.386 . S
C2516 C2511 1.490 . S
C2516 C2518 1.395 . S
C2516 C2519 1.403 . S
H2517 C2523 0.930 . S
C2518 H2504 0.930 . S
C2518 C2516 1.395 . S
C2518 C2521 1.403 . S
C2519 C2516 1.403 . S
C2519 C2520 1.524 . S
C2519 C2523 1.400 . S
C2520 H2505 0.960 . S
C2520 H2506 0.960 . S
C2520 H2507 0.960 . S
C2520 C2519 1.524 . S
C2521 C2518 1.403 . S
C2521 C2522 1.392 . S
C2521 C2525 1.495 . S
C2522 C2521 1.392 . S
C2522 C2523 1.385 . S
C2522 C2524 1.478 . S
C2523 H2517 0.930 . S
C2523 C2519 1.400 . S
C2523 C2522 1.385 . S
C2524 C2522 1.478 . S
C2524 C2526 1.381 . S
C2524 C2530 1.383 . S
C2525 C2521 1.495 . S
C2525 H2531 0.959 . S
C2525 H2532 0.961 . S
C2525 H2533 0.960 . S
C2526 C2524 1.381 . S
C2526 C2527 1.394 . S
C2526 H2534 0.930 . S
C2527 C2526 1.394 . S
C2527 C2528 1.383 . S
C2527 H2535 0.929 . S
C2528 C2527 1.383 . S
C2528 C2529 1.377 . S
C2529 H2513 0.930 . S
C2529 C2528 1.377 . S
C2529 C2530 1.379 . S
C2530 H2514 0.931 . S
C2530 C2524 1.383 . S
C2530 C2529 1.379 . S
H2531 C2525 0.959 . S
H2532 C2525 0.961 . S
H2533 C2525 0.960 . S
H2534 C2526 0.930 . S
H2535 C2527 0.929 . S
H2536 C2544 0.929 . S
H2537 C2546 0.927 . S
H2538 C2548 0.930 . S
H2539 C2551 0.929 . S
H2540 C2554 0.930 . S
H2541 C2556 0.960 . S
H2542 C2556 0.960 . S
H2543 C2556 0.960 . S
C2544 H2536 0.929 . S
C2544 C2545 1.377 . S
C2544 C2546 1.384 1_545 S
C2545 C2544 1.377 . S
C2545 C2551 1.390 1_545 S
C2546 H2537 0.927 . S
C2546 C2544 1.384 1_565 S
C2546 C2547 1.372 . S
C2547 C2546 1.372 . S
C2547 C2548 1.400 . S
C2547 C2552 1.490 . S
C2548 H2538 0.930 . S
C2548 C2547 1.400 . S
C2548 C2551 1.386 . S
H2549 C2565 0.930 . S
H2550 C2566 0.931 . S
C2551 H2539 0.929 . S
C2551 C2545 1.390 1_565 S
C2551 C2548 1.386 . S
C2552 C2547 1.490 . S
C2552 C2554 1.395 . S
C2552 C2555 1.403 . S
H2553 C2559 0.930 . S
C2554 H2540 0.930 . S
C2554 C2552 1.395 . S
C2554 C2557 1.403 . S
C2555 C2552 1.403 . S
C2555 C2556 1.524 . S
C2555 C2559 1.400 . S
C2556 H2541 0.960 . S
C2556 H2542 0.960 . S
C2556 H2543 0.960 . S
C2556 C2555 1.524 . S
C2557 C2554 1.403 . S
C2557 C2558 1.392 . S
C2557 C2561 1.495 . S
C2558 C2557 1.392 . S
C2558 C2559 1.385 . S
C2558 C2560 1.478 . S
C2559 H2553 0.930 . S
C2559 C2555 1.400 . S
C2559 C2558 1.385 . S
C2560 C2558 1.478 . S
C2560 C2562 1.381 . S
C2560 C2566 1.383 . S
C2561 C2557 1.495 . S
C2561 H2567 0.959 . S
C2561 H2568 0.961 . S
C2561 H2569 0.960 . S
C2562 C2560 1.381 . S
C2562 C2563 1.394 . S
C2562 H2570 0.930 . S
C2563 C2562 1.394 . S
C2563 C2564 1.383 . S
C2563 H2571 0.929 . S
C2564 C2563 1.383 . S
C2564 C2565 1.377 . S
C2565 H2549 0.930 . S
C2565 C2564 1.377 . S
C2565 C2566 1.379 . S
C2566 H2550 0.931 . S
C2566 C2560 1.383 . S
C2566 C2565 1.379 . S
H2567 C2561 0.959 . S
H2568 C2561 0.961 . S
H2569 C2561 0.960 . S
H2570 C2562 0.930 . S
H2571 C2563 0.929 . S
H2572 C2580 0.929 . S
H2573 C2582 0.930 . S
H2574 C2584 0.930 . S
H2575 C2587 0.929 . S
H2576 C2590 0.930 . S
H2577 C2592 0.960 . S
H2578 C2592 0.960 . S
H2579 C2592 0.960 . S
C2580 H2572 0.929 . S
C2580 C2581 1.377 . S
C2580 C2582 1.384 . S
C2581 C2580 1.377 . S
C2581 C2587 1.390 . S
C2582 H2573 0.930 . S
C2582 C2580 1.384 . S
C2582 C2583 1.372 . S
C2583 C2582 1.372 . S
C2583 C2584 1.400 . S
C2583 C2588 1.490 . S
C2584 H2574 0.930 . S
C2584 C2583 1.400 . S
C2584 C2587 1.386 . S
H2585 C2601 0.930 . S
H2586 C2602 0.931 . S
C2587 H2575 0.929 . S
C2587 C2581 1.390 . S
C2587 C2584 1.386 . S
C2588 C2583 1.490 . S
C2588 C2590 1.395 . S
C2588 C2591 1.403 . S
H2589 C2595 0.930 . S
C2590 H2576 0.930 . S
C2590 C2588 1.395 . S
C2590 C2593 1.403 . S
C2591 C2588 1.403 . S
C2591 C2592 1.524 . S
C2591 C2595 1.400 . S
C2592 H2577 0.960 . S
C2592 H2578 0.960 . S
C2592 H2579 0.960 . S
C2592 C2591 1.524 . S
C2593 C2590 1.403 . S
C2593 C2594 1.392 . S
C2593 C2597 1.495 . S
C2594 C2593 1.392 . S
C2594 C2595 1.385 . S
C2594 C2596 1.478 . S
C2595 H2589 0.930 . S
C2595 C2591 1.400 . S
C2595 C2594 1.385 . S
C2596 C2594 1.478 . S
C2596 C2598 1.381 . S
C2596 C2602 1.383 . S
C2597 C2593 1.495 . S
C2597 H2603 0.959 . S
C2597 H2604 0.961 . S
C2597 H2605 0.960 . S
C2598 C2596 1.381 . S
C2598 C2599 1.394 . S
C2598 H2606 0.930 . S
C2599 C2598 1.394 . S
C2599 C2600 1.383 . S
C2599 H2607 0.929 . S
C2600 C2599 1.383 . S
C2600 C2601 1.377 . S
C2601 H2585 0.930 . S
C2601 C2600 1.377 . S
C2601 C2602 1.379 . S
C2602 H2586 0.931 . S
C2602 C2596 1.383 . S
C2602 C2601 1.379 . S
H2603 C2597 0.959 . S
H2604 C2597 0.961 . S
H2605 C2597 0.960 . S
H2606 C2598 0.930 . S
H2607 C2599 0.929 . S
H2608 C2616 0.929 . S
H2609 C2618 0.930 . S
H2610 C2620 0.930 . S
H2611 C2623 0.929 . S
H2612 C2626 0.930 . S
H2613 C2628 0.960 . S
H2614 C2628 0.960 . S
H2615 C2628 0.960 . S
C2616 H2608 0.929 . S
C2616 C2617 1.377 . S
C2616 C2618 1.384 . S
C2617 C2616 1.377 . S
C2617 C2623 1.390 . S
C2618 H2609 0.930 . S
C2618 C2616 1.384 . S
C2618 C2619 1.372 . S
C2619 C2618 1.372 . S
C2619 C2620 1.400 . S
C2619 C2624 1.490 . S
C2620 H2610 0.930 . S
C2620 C2619 1.400 . S
C2620 C2623 1.386 . S
H2621 C2637 0.930 . S
H2622 C2638 0.931 . S
C2623 H2611 0.929 . S
C2623 C2617 1.390 . S
C2623 C2620 1.386 . S
C2624 C2619 1.490 . S
C2624 C2626 1.395 . S
C2624 C2627 1.403 . S
H2625 C2631 0.930 . S
C2626 H2612 0.930 . S
C2626 C2624 1.395 . S
C2626 C2629 1.403 . S
C2627 C2624 1.403 . S
C2627 C2628 1.524 . S
C2627 C2631 1.400 . S
C2628 H2613 0.960 . S
C2628 H2614 0.960 . S
C2628 H2615 0.960 . S
C2628 C2627 1.524 . S
C2629 C2626 1.403 . S
C2629 C2630 1.392 . S
C2629 C2633 1.495 . S
C2630 C2629 1.392 . S
C2630 C2631 1.385 . S
C2630 C2632 1.478 . S
C2631 H2625 0.930 . S
C2631 C2627 1.400 . S
C2631 C2630 1.385 . S
C2632 C2630 1.478 . S
C2632 C2634 1.381 . S
C2632 C2638 1.383 . S
C2633 C2629 1.495 . S
C2633 H2639 0.959 . S
C2633 H2640 0.961 . S
C2633 H2641 0.960 . S
C2634 C2632 1.381 . S
C2634 C2635 1.394 . S
C2634 H2642 0.930 . S
C2635 C2634 1.394 . S
C2635 C2636 1.383 . S
C2635 H2643 0.929 . S
C2636 C2635 1.383 . S
C2636 C2637 1.377 . S
C2637 H2621 0.930 . S
C2637 C2636 1.377 . S
C2637 C2638 1.379 . S
C2638 H2622 0.931 . S
C2638 C2632 1.383 . S
C2638 C2637 1.379 . S
H2639 C2633 0.959 . S
H2640 C2633 0.961 . S
H2641 C2633 0.960 . S
H2642 C2634 0.930 . S
H2643 C2635 0.929 . S
H2644 C2652 0.929 . S
H2645 C2654 0.930 . S
H2646 C2656 0.930 . S
H2647 C2659 0.929 . S
H2648 C2662 0.930 . S
H2649 C2664 0.960 . S
H2650 C2664 0.960 . S
H2651 C2664 0.960 . S
C2652 H2644 0.929 . S
C2652 C2653 1.377 . S
C2652 C2654 1.384 . S
C2653 C2652 1.377 . S
C2653 C2659 1.390 . S
C2654 H2645 0.930 . S
C2654 C2652 1.384 . S
C2654 C2655 1.372 . S
C2655 C2654 1.372 . S
C2655 C2656 1.400 . S
C2655 C2660 1.490 . S
C2656 H2646 0.930 . S
C2656 C2655 1.400 . S
C2656 C2659 1.386 . S
H2657 C2673 0.930 . S
H2658 C2674 0.931 . S
C2659 H2647 0.929 . S
C2659 C2653 1.390 . S
C2659 C2656 1.386 . S
C2660 C2655 1.490 . S
C2660 C2662 1.395 . S
C2660 C2663 1.403 . S
H2661 C2667 0.930 . S
C2662 H2648 0.930 . S
C2662 C2660 1.395 . S
C2662 C2665 1.403 . S
C2663 C2660 1.403 . S
C2663 C2664 1.524 . S
C2663 C2667 1.400 . S
C2664 H2649 0.960 . S
C2664 H2650 0.960 . S
C2664 H2651 0.960 . S
C2664 C2663 1.524 . S
C2665 C2662 1.403 . S
C2665 C2666 1.392 . S
C2665 C2669 1.495 . S
C2666 C2665 1.392 . S
C2666 C2667 1.385 . S
C2666 C2668 1.478 . S
C2667 H2661 0.930 . S
C2667 C2663 1.400 . S
C2667 C2666 1.385 . S
C2668 C2666 1.478 . S
C2668 C2670 1.381 . S
C2668 C2674 1.383 . S
C2669 C2665 1.495 . S
C2669 H2675 0.959 . S
C2669 H2676 0.961 . S
C2669 H2677 0.960 . S
C2670 C2668 1.381 . S
C2670 C2671 1.394 . S
C2670 H2678 0.930 . S
C2671 C2670 1.394 . S
C2671 C2672 1.383 . S
C2671 H2679 0.929 . S
C2672 C2671 1.383 . S
C2672 C2673 1.377 . S
C2673 H2657 0.930 . S
C2673 C2672 1.377 . S
C2673 C2674 1.379 . S
C2674 H2658 0.931 . S
C2674 C2668 1.383 . S
C2674 C2673 1.379 . S
H2675 C2669 0.959 . S
H2676 C2669 0.961 . S
H2677 C2669 0.960 . S
H2678 C2670 0.930 . S
H2679 C2671 0.929 . S
H2680 C2688 0.929 . S
H2681 C2690 0.930 . S
H2682 C2692 0.930 . S
H2683 C2695 0.929 . S
H2684 C2698 0.930 . S
H2685 C2700 0.960 . S
H2686 C2700 0.960 . S
H2687 C2700 0.960 . S
C2688 H2680 0.929 . S
C2688 C2689 1.377 . S
C2688 C2690 1.384 . S
C2689 C2688 1.377 . S
C2689 C2695 1.390 . S
C2690 H2681 0.930 . S
C2690 C2688 1.384 . S
C2690 C2691 1.372 . S
C2691 C2690 1.372 . S
C2691 C2692 1.400 . S
C2691 C2696 1.490 . S
C2692 H2682 0.930 . S
C2692 C2691 1.400 . S
C2692 C2695 1.386 . S
H2693 C2709 0.930 . S
H2694 C2710 0.931 . S
C2695 H2683 0.929 . S
C2695 C2689 1.390 . S
C2695 C2692 1.386 . S
C2696 C2691 1.490 . S
C2696 C2698 1.395 . S
C2696 C2699 1.403 . S
H2697 C2703 0.930 . S
C2698 H2684 0.930 . S
C2698 C2696 1.395 . S
C2698 C2701 1.403 . S
C2699 C2696 1.403 . S
C2699 C2700 1.524 . S
C2699 C2703 1.400 . S
C2700 H2685 0.960 . S
C2700 H2686 0.960 . S
C2700 H2687 0.960 . S
C2700 C2699 1.524 . S
C2701 C2698 1.403 . S
C2701 C2702 1.392 . S
C2701 C2705 1.495 . S
C2702 C2701 1.392 . S
C2702 C2703 1.385 . S
C2702 C2704 1.478 . S
C2703 H2697 0.930 . S
C2703 C2699 1.400 . S
C2703 C2702 1.385 . S
C2704 C2702 1.478 . S
C2704 C2706 1.381 . S
C2704 C2710 1.383 . S
C2705 C2701 1.495 . S
C2705 H2711 0.959 . S
C2705 H2712 0.961 . S
C2705 H2713 0.960 . S
C2706 C2704 1.381 . S
C2706 C2707 1.394 . S
C2706 H2714 0.930 . S
C2707 C2706 1.394 . S
C2707 C2708 1.383 . S
C2707 H2715 0.929 . S
C2708 C2707 1.383 . S
C2708 C2709 1.377 . S
C2709 H2693 0.930 . S
C2709 C2708 1.377 . S
C2709 C2710 1.379 . S
C2710 H2694 0.931 . S
C2710 C2704 1.383 . S
C2710 C2709 1.379 . S
H2711 C2705 0.959 . S
H2712 C2705 0.961 . S
H2713 C2705 0.960 . S
H2714 C2706 0.930 . S
H2715 C2707 0.929 . S
H2716 C2724 0.929 . S
H2717 C2726 0.930 . S
H2718 C2728 0.930 . S
H2719 C2731 0.929 . S
H2720 C2734 0.930 . S
H2721 C2736 0.960 . S
H2722 C2736 0.960 . S
H2723 C2736 0.960 . S
C2724 H2716 0.929 . S
C2724 C2725 1.377 . S
C2724 C2726 1.384 . S
C2725 C2724 1.377 . S
C2725 C2731 1.390 . S
C2726 H2717 0.930 . S
C2726 C2724 1.384 . S
C2726 C2727 1.372 . S
C2727 C2726 1.372 . S
C2727 C2728 1.400 . S
C2727 C2732 1.490 . S
C2728 H2718 0.930 . S
C2728 C2727 1.400 . S
C2728 C2731 1.386 . S
H2729 C2745 0.930 . S
H2730 C2746 0.931 . S
C2731 H2719 0.929 . S
C2731 C2725 1.390 . S
C2731 C2728 1.386 . S
C2732 C2727 1.490 . S
C2732 C2734 1.395 . S
C2732 C2735 1.403 . S
H2733 C2739 0.930 . S
C2734 H2720 0.930 . S
C2734 C2732 1.395 . S
C2734 C2737 1.403 . S
C2735 C2732 1.403 . S
C2735 C2736 1.524 . S
C2735 C2739 1.400 . S
C2736 H2721 0.960 . S
C2736 H2722 0.960 . S
C2736 H2723 0.960 . S
C2736 C2735 1.524 . S
C2737 C2734 1.403 . S
C2737 C2738 1.392 . S
C2737 C2741 1.495 . S
C2738 C2737 1.392 . S
C2738 C2739 1.385 . S
C2738 C2740 1.478 . S
C2739 H2733 0.930 . S
C2739 C2735 1.400 . S
C2739 C2738 1.385 . S
C2740 C2738 1.478 . S
C2740 C2742 1.381 . S
C2740 C2746 1.383 . S
C2741 C2737 1.495 . S
C2741 H2747 0.959 . S
C2741 H2748 0.961 . S
C2741 H2749 0.960 . S
C2742 C2740 1.381 . S
C2742 C2743 1.394 . S
C2742 H2750 0.930 . S
C2743 C2742 1.394 . S
C2743 C2744 1.383 . S
C2743 H2751 0.929 . S
C2744 C2743 1.383 . S
C2744 C2745 1.377 . S
C2745 H2729 0.930 . S
C2745 C2744 1.377 . S
C2745 C2746 1.379 . S
C2746 H2730 0.931 . S
C2746 C2740 1.383 . S
C2746 C2745 1.379 . S
H2747 C2741 0.959 . S
H2748 C2741 0.961 . S
H2749 C2741 0.960 . S
H2750 C2742 0.930 . S
H2751 C2743 0.929 . S
H2752 C2760 0.929 . S
H2753 C2762 0.930 . S
H2754 C2764 0.930 1_655 S
H2755 C2767 0.940 . S
H2756 C2770 0.930 . S
H2757 C2772 0.944 1_654 S
H2758 C2772 0.963 1_554 S
H2759 C2772 0.943 1_655 S
C2760 H2752 0.929 . S
C2760 C2761 1.377 . S
C2760 C2762 1.384 . S
C2761 C2760 1.377 . S
C2761 C2767 1.377 1_455 S
C2762 H2753 0.930 . S
C2762 C2760 1.384 . S
C2762 C2763 1.372 . S
C2763 C2762 1.372 . S
C2763 C2764 1.400 . S
C2763 C2768 1.490 . S
C2764 H2754 0.930 1_455 S
C2764 C2763 1.400 . S
C2764 C2767 1.388 1_455 S
H2765 C2781 0.938 . S
H2766 C2782 0.898 1_655 S
C2767 H2755 0.940 . S
C2767 C2761 1.377 1_655 S
C2767 C2764 1.388 1_655 S
C2768 C2763 1.490 . S
C2768 C2770 1.395 . S
C2768 C2771 1.403 . S
H2769 C2775 0.930 1_554 S
C2770 H2756 0.930 . S
C2770 C2768 1.395 . S
C2770 C2773 1.403 . S
C2771 C2768 1.403 . S
C2771 C2772 1.537 . S
C2771 C2775 1.400 . S
C2772 H2757 0.944 1_456 S
C2772 H2758 0.963 1_556 S
C2772 H2759 0.943 1_455 S
C2772 C2771 1.537 . S
C2773 C2770 1.403 . S
C2773 C2774 1.392 . S
C2773 C2777 1.495 . S
C2774 C2773 1.392 . S
C2774 C2775 1.385 . S
C2774 C2776 1.478 . S
C2775 H2769 0.930 1_556 S
C2775 C2771 1.400 . S
C2775 C2774 1.385 . S
C2776 C2774 1.478 . S
C2776 C2778 1.381 1_556 S
C2776 C2782 1.383 . S
C2777 C2773 1.495 . S
C2777 H2783 0.959 . S
C2777 H2784 0.961 . S
C2777 H2785 0.960 . S
C2778 C2776 1.381 1_554 S
C2778 C2779 1.394 . S
C2778 H2786 0.930 . S
C2779 C2778 1.394 . S
C2779 C2780 1.383 . S
C2779 H2787 0.929 . S
C2780 C2779 1.383 . S
C2780 C2781 1.377 . S
C2781 H2765 0.938 . S
C2781 C2780 1.377 . S
C2781 C2782 1.379 1_554 S
C2782 H2766 0.898 1_455 S
C2782 C2776 1.383 . S
C2782 C2781 1.379 1_556 S
H2783 C2777 0.959 . S
H2784 C2777 0.961 . S
H2785 C2777 0.960 . S
H2786 C2778 0.930 . S
H2787 C2779 0.929 . S
H2788 C2796 0.929 . S
H2789 C2798 0.930 . S
H2790 C2800 0.930 . S
H2791 C2803 0.929 . S
H2792 C2806 0.930 . S
H2793 C2808 0.960 . S
H2794 C2808 0.960 . S
H2795 C2808 0.960 . S
C2796 H2788 0.929 . S
C2796 C2797 1.377 . S
C2796 C2798 1.384 1_455 S
C2797 C2796 1.377 . S
C2797 C2803 1.390 . S
C2798 H2789 0.930 . S
C2798 C2796 1.384 1_655 S
C2798 C2799 1.372 . S
C2799 C2798 1.372 . S
C2799 C2800 1.400 . S
C2799 C2804 1.490 . S
C2800 H2790 0.930 . S
C2800 C2799 1.400 . S
C2800 C2803 1.386 1_655 S
H2801 C2817 0.930 . S
H2802 C2818 0.931 . S
C2803 H2791 0.929 . S
C2803 C2797 1.390 . S
C2803 C2800 1.386 1_455 S
C2804 C2799 1.490 . S
C2804 C2806 1.395 . S
C2804 C2807 1.403 . S
H2805 C2811 0.930 . S
C2806 H2792 0.930 . S
C2806 C2804 1.395 . S
C2806 C2809 1.403 . S
C2807 C2804 1.403 . S
C2807 C2808 1.524 . S
C2807 C2811 1.400 . S
C2808 H2793 0.960 . S
C2808 H2794 0.960 . S
C2808 H2795 0.960 . S
C2808 C2807 1.524 . S
C2809 C2806 1.403 . S
C2809 C2810 1.392 . S
C2809 C2813 1.495 . S
C2810 C2809 1.392 . S
C2810 C2811 1.385 . S
C2810 C2812 1.478 . S
C2811 H2805 0.930 . S
C2811 C2807 1.400 . S
C2811 C2810 1.385 . S
C2812 C2810 1.478 . S
C2812 C2814 1.381 . S
C2812 C2818 1.383 . S
C2813 C2809 1.495 . S
C2813 H2819 0.959 . S
C2813 H2820 0.961 . S
C2813 H2821 0.960 . S
C2814 C2812 1.381 . S
C2814 C2815 1.394 . S
C2814 H2822 0.930 . S
C2815 C2814 1.394 . S
C2815 C2816 1.383 . S
C2815 H2823 0.929 . S
C2816 C2815 1.383 . S
C2816 C2817 1.377 . S
C2817 H2801 0.930 . S
C2817 C2816 1.377 . S
C2817 C2818 1.379 . S
C2818 H2802 0.931 . S
C2818 C2812 1.383 . S
C2818 C2817 1.379 . S
H2819 C2813 0.959 . S
H2820 C2813 0.961 . S
H2821 C2813 0.960 . S
H2822 C2814 0.930 . S
H2823 C2815 0.929 . S
H2824 C2832 0.929 . S
H2825 C2834 0.930 . S
H2826 C2836 0.930 . S
H2827 C2839 0.929 . S
H2828 C2842 0.930 . S
H2829 C2844 0.960 . S
H2830 C2844 0.960 . S
H2831 C2844 0.960 . S
C2832 H2824 0.929 . S
C2832 C2833 1.377 . S
C2832 C2834 1.384 . S
C2833 C2832 1.377 . S
C2833 C2839 1.390 . S
C2834 H2825 0.930 . S
C2834 C2832 1.384 . S
C2834 C2835 1.372 . S
C2835 C2834 1.372 . S
C2835 C2836 1.400 . S
C2835 C2840 1.490 . S
C2836 H2826 0.930 . S
C2836 C2835 1.400 . S
C2836 C2839 1.386 . S
H2837 C2853 0.930 . S
H2838 C2854 0.931 . S
C2839 H2827 0.929 . S
C2839 C2833 1.390 . S
C2839 C2836 1.386 . S
C2840 C2835 1.490 . S
C2840 C2842 1.395 . S
C2840 C2843 1.403 . S
H2841 C2847 0.930 . S
C2842 H2828 0.930 . S
C2842 C2840 1.395 . S
C2842 C2845 1.403 . S
C2843 C2840 1.403 . S
C2843 C2844 1.524 . S
C2843 C2847 1.400 . S
C2844 H2829 0.960 . S
C2844 H2830 0.960 . S
C2844 H2831 0.960 . S
C2844 C2843 1.524 . S
C2845 C2842 1.403 . S
C2845 C2846 1.392 . S
C2845 C2849 1.495 . S
C2846 C2845 1.392 . S
C2846 C2847 1.385 . S
C2846 C2848 1.478 . S
C2847 H2841 0.930 . S
C2847 C2843 1.400 . S
C2847 C2846 1.385 . S
C2848 C2846 1.478 . S
C2848 C2850 1.381 . S
C2848 C2854 1.383 . S
C2849 C2845 1.495 . S
C2849 H2855 0.959 . S
C2849 H2856 0.961 . S
C2849 H2857 0.960 . S
C2850 C2848 1.381 . S
C2850 C2851 1.394 . S
C2850 H2858 0.930 . S
C2851 C2850 1.394 . S
C2851 C2852 1.383 . S
C2851 H2859 0.929 . S
C2852 C2851 1.383 . S
C2852 C2853 1.377 . S
C2853 H2837 0.930 . S
C2853 C2852 1.377 . S
C2853 C2854 1.379 . S
C2854 H2838 0.931 . S
C2854 C2848 1.383 . S
C2854 C2853 1.379 . S
H2855 C2849 0.959 . S
H2856 C2849 0.961 . S
H2857 C2849 0.960 . S
H2858 C2850 0.930 . S
H2859 C2851 0.929 . S
H2860 C2868 0.929 . S
H2861 C2870 0.930 . S
H2862 C2872 0.930 . S
H2863 C2875 0.929 . S
H2864 C2878 0.930 . S
H2865 C2880 0.960 . S
H2866 C2880 0.960 . S
H2867 C2880 0.960 . S
C2868 H2860 0.929 . S
C2868 C2869 1.377 . S
C2868 C2870 1.384 . S
C2869 C2868 1.377 . S
C2869 C2875 1.390 . S
C2870 H2861 0.930 . S
C2870 C2868 1.384 . S
C2870 C2871 1.372 . S
C2871 C2870 1.372 . S
C2871 C2872 1.400 . S
C2871 C2876 1.490 1_455 S
C2872 H2862 0.930 . S
C2872 C2871 1.400 . S
C2872 C2875 1.386 . S
H2873 C2889 0.930 . S
H2874 C2890 0.931 . S
C2875 H2863 0.929 . S
C2875 C2869 1.390 . S
C2875 C2872 1.386 . S
C2876 C2871 1.490 1_655 S
C2876 C2878 1.395 . S
C2876 C2879 1.403 . S
H2877 C2883 0.930 . S
C2878 H2864 0.930 . S
C2878 C2876 1.395 . S
C2878 C2881 1.403 . S
C2879 C2876 1.403 . S
C2879 C2880 1.524 1_655 S
C2879 C2883 1.400 . S
C2880 H2865 0.960 . S
C2880 H2866 0.960 . S
C2880 H2867 0.960 . S
C2880 C2879 1.524 1_455 S
C2881 C2878 1.403 . S
C2881 C2882 1.392 . S
C2881 C2885 1.495 . S
C2882 C2881 1.392 . S
C2882 C2883 1.385 . S
C2882 C2884 1.478 . S
C2883 H2877 0.930 . S
C2883 C2879 1.400 . S
C2883 C2882 1.385 . S
C2884 C2882 1.478 . S
C2884 C2886 1.381 . S
C2884 C2890 1.383 . S
C2885 C2881 1.495 . S
C2885 H2891 0.959 . S
C2885 H2892 0.961 . S
C2885 H2893 0.960 . S
C2886 C2884 1.381 . S
C2886 C2887 1.394 . S
C2886 H2894 0.930 . S
C2887 C2886 1.394 . S
C2887 C2888 1.383 . S
C2887 H2895 0.929 . S
C2888 C2887 1.383 . S
C2888 C2889 1.377 . S
C2889 H2873 0.930 . S
C2889 C2888 1.377 . S
C2889 C2890 1.379 . S
C2890 H2874 0.931 . S
C2890 C2884 1.383 . S
C2890 C2889 1.379 . S
H2891 C2885 0.959 . S
H2892 C2885 0.961 . S
H2893 C2885 0.960 . S
H2894 C2886 0.930 . S
H2895 C2887 0.929 . S
H2896 C2904 0.929 1_455 S
H2897 C2906 0.930 . S
H2898 C2908 0.930 . S
H2899 C2911 0.929 . S
H2900 C2914 0.930 . S
H2901 C2916 0.960 . S
H2902 C2916 0.960 . S
H2903 C2916 0.960 . S
C2904 H2896 0.929 1_655 S
C2904 C2905 1.377 . S
C2904 C2906 1.384 1_655 S
C2905 C2904 1.377 . S
C2905 C2911 1.390 . S
C2906 H2897 0.930 . S
C2906 C2904 1.384 1_455 S
C2906 C2907 1.372 1_455 S
C2907 C2906 1.372 1_655 S
C2907 C2908 1.400 . S
C2907 C2912 1.485 1_655 S
C2908 H2898 0.930 . S
C2908 C2907 1.400 . S
C2908 C2911 1.386 . S
H2909 C2925 0.930 . S
H2910 C2926 0.931 . S
C2911 H2899 0.929 . S
C2911 C2905 1.390 . S
C2911 C2908 1.386 . S
C2912 C2907 1.485 1_455 S
C2912 C2914 1.406 . S
C2912 C2915 1.397 1_455 S
H2913 C2919 0.930 . S
C2914 H2900 0.930 . S
C2914 C2912 1.406 . S
C2914 C2917 1.403 . S
C2915 C2912 1.397 1_655 S
C2915 C2916 1.524 . S
C2915 C2919 1.400 . S
C2916 H2901 0.960 . S
C2916 H2902 0.960 . S
C2916 H2903 0.960 . S
C2916 C2915 1.524 . S
C2917 C2914 1.403 . S
C2917 C2918 1.392 . S
C2917 C2921 1.495 . S
C2918 C2917 1.392 . S
C2918 C2919 1.385 1_455 S
C2918 C2920 1.478 . S
C2919 H2913 0.930 . S
C2919 C2915 1.400 . S
C2919 C2918 1.385 1_655 S
C2920 C2918 1.478 . S
C2920 C2922 1.381 . S
C2920 C2926 1.383 . S
C2921 C2917 1.495 . S
C2921 H2927 0.959 . S
C2921 H2928 0.961 . S
C2921 H2929 0.960 . S
C2922 C2920 1.381 . S
C2922 C2923 1.394 . S
C2922 H2930 0.930 . S
C2923 C2922 1.394 . S
C2923 C2924 1.383 . S
C2923 H2931 0.929 . S
C2924 C2923 1.383 . S
C2924 C2925 1.377 . S
C2925 H2909 0.930 . S
C2925 C2924 1.377 . S
C2925 C2926 1.379 . S
C2926 H2910 0.931 . S
C2926 C2920 1.383 . S
C2926 C2925 1.379 . S
H2927 C2921 0.959 . S
H2928 C2921 0.961 . S
H2929 C2921 0.960 . S
H2930 C2922 0.930 . S
H2931 C2923 0.929 . S
H2932 C2940 0.929 . S
H2933 C2942 0.930 . S
H2934 C2944 0.930 . S
H2935 C2947 0.929 . S
H2936 C2950 0.930 . S
H2937 C2952 0.960 . S
H2938 C2952 0.960 . S
H2939 C2952 0.960 . S
C2940 H2932 0.929 . S
C2940 C2941 1.377 . S
C2940 C2942 1.384 . S
C2941 C2940 1.377 . S
C2941 C2947 1.390 . S
C2942 H2933 0.930 . S
C2942 C2940 1.384 . S
C2942 C2943 1.372 . S
C2943 C2942 1.372 . S
C2943 C2944 1.400 . S
C2943 C2948 1.490 . S
C2944 H2934 0.930 . S
C2944 C2943 1.400 . S
C2944 C2947 1.386 . S
H2945 C2961 0.930 . S
H2946 C2962 0.931 . S
C2947 H2935 0.929 . S
C2947 C2941 1.390 . S
C2947 C2944 1.386 . S
C2948 C2943 1.490 . S
C2948 C2950 1.395 . S
C2948 C2951 1.403 . S
H2949 C2955 0.930 . S
C2950 H2936 0.930 . S
C2950 C2948 1.395 . S
C2950 C2953 1.403 . S
C2951 C2948 1.403 . S
C2951 C2952 1.524 . S
C2951 C2955 1.400 . S
C2952 H2937 0.960 . S
C2952 H2938 0.960 . S
C2952 H2939 0.960 . S
C2952 C2951 1.524 . S
C2953 C2950 1.403 . S
C2953 C2954 1.392 . S
C2953 C2957 1.495 . S
C2954 C2953 1.392 . S
C2954 C2955 1.385 . S
C2954 C2956 1.478 . S
C2955 H2949 0.930 . S
C2955 C2951 1.400 . S
C2955 C2954 1.385 . S
C2956 C2954 1.478 . S
C2956 C2958 1.381 . S
C2956 C2962 1.383 . S
C2957 C2953 1.495 . S
C2957 H2963 0.959 . S
C2957 H2964 0.961 . S
C2957 H2965 0.960 . S
C2958 C2956 1.381 . S
C2958 C2959 1.394 . S
C2958 H2966 0.930 . S
C2959 C2958 1.394 . S
C2959 C2960 1.383 . S
C2959 H2967 0.929 . S
C2960 C2959 1.383 . S
C2960 C2961 1.377 . S
C2961 H2945 0.930 . S
C2961 C2960 1.377 . S
C2961 C2962 1.379 . S
C2962 H2946 0.931 . S
C2962 C2956 1.383 . S
C2962 C2961 1.379 . S
H2963 C2957 0.959 . S
H2964 C2957 0.961 . S
H2965 C2957 0.960 . S
H2966 C2958 0.930 . S
H2967 C2959 0.929 . S
H2968 C2976 0.929 . S
H2969 C2978 0.930 . S
H2970 C2980 0.930 . S
H2971 C2983 0.929 . S
H2972 C2986 0.930 . S
H2973 C2988 0.960 . S
H2974 C2988 0.960 . S
H2975 C2988 0.960 . S
C2976 H2968 0.929 . S
C2976 C2977 1.377 . S
C2976 C2978 1.384 . S
C2977 C2976 1.377 . S
C2977 C2983 1.390 . S
C2978 H2969 0.930 . S
C2978 C2976 1.384 . S
C2978 C2979 1.372 . S
C2979 C2978 1.372 . S
C2979 C2980 1.400 . S
C2979 C2984 1.490 . S
C2980 H2970 0.930 . S
C2980 C2979 1.400 . S
C2980 C2983 1.386 . S
H2981 C2997 0.930 . S
H2982 C2998 0.931 . S
C2983 H2971 0.929 . S
C2983 C2977 1.390 . S
C2983 C2980 1.386 . S
C2984 C2979 1.490 . S
C2984 C2986 1.395 . S
C2984 C2987 1.403 . S
H2985 C2991 0.930 . S
C2986 H2972 0.930 . S
C2986 C2984 1.395 . S
C2986 C2989 1.403 . S
C2987 C2984 1.403 . S
C2987 C2988 1.524 . S
C2987 C2991 1.400 . S
C2988 H2973 0.960 . S
C2988 H2974 0.960 . S
C2988 H2975 0.960 . S
C2988 C2987 1.524 . S
C2989 C2986 1.403 . S
C2989 C2990 1.392 . S
C2989 C2993 1.495 . S
C2990 C2989 1.392 . S
C2990 C2991 1.385 . S
C2990 C2992 1.478 . S
C2991 H2985 0.930 . S
C2991 C2987 1.400 . S
C2991 C2990 1.385 . S
C2992 C2990 1.478 . S
C2992 C2994 1.381 . S
C2992 C2998 1.383 . S
C2993 C2989 1.495 . S
C2993 H2999 0.959 . S
C2993 H3000 0.961 . S
C2993 H3001 0.960 . S
C2994 C2992 1.381 . S
C2994 C2995 1.394 . S
C2994 H3002 0.930 . S
C2995 C2994 1.394 . S
C2995 C2996 1.383 . S
C2995 H3003 0.929 . S
C2996 C2995 1.383 . S
C2996 C2997 1.377 . S
C2997 H2981 0.930 . S
C2997 C2996 1.377 . S
C2997 C2998 1.379 . S
C2998 H2982 0.931 . S
C2998 C2992 1.383 . S
C2998 C2997 1.379 . S
H2999 C2993 0.959 . S
H3000 C2993 0.961 . S
H3001 C2993 0.960 . S
H3002 C2994 0.930 . S
H3003 C2995 0.929 . S
H3004 C3012 0.929 . S
H3005 C3014 0.930 . S
H3006 C3016 0.930 . S
H3007 C3019 0.929 . S
H3008 C3022 0.930 . S
H3009 C3024 0.960 . S
H3010 C3024 0.960 . S
H3011 C3024 0.960 . S
C3012 H3004 0.929 . S
C3012 C3013 1.377 . S
C3012 C3014 1.384 . S
C3013 C3012 1.377 . S
C3013 C3019 1.390 . S
C3014 H3005 0.930 . S
C3014 C3012 1.384 . S
C3014 C3015 1.372 . S
C3015 C3014 1.372 . S
C3015 C3016 1.400 . S
C3015 C3020 1.490 . S
C3016 H3006 0.930 . S
C3016 C3015 1.400 . S
C3016 C3019 1.386 . S
H3017 C3033 0.930 . S
H3018 C3034 0.931 . S
C3019 H3007 0.929 . S
C3019 C3013 1.390 . S
C3019 C3016 1.386 . S
C3020 C3015 1.490 . S
C3020 C3022 1.395 . S
C3020 C3023 1.403 . S
H3021 C3027 0.930 . S
C3022 H3008 0.930 . S
C3022 C3020 1.395 . S
C3022 C3025 1.403 . S
C3023 C3020 1.403 . S
C3023 C3024 1.524 . S
C3023 C3027 1.400 . S
C3024 H3009 0.960 . S
C3024 H3010 0.960 . S
C3024 H3011 0.960 . S
C3024 C3023 1.524 . S
C3025 C3022 1.403 . S
C3025 C3026 1.392 . S
C3025 C3029 1.495 . S
C3026 C3025 1.392 . S
C3026 C3027 1.385 . S
C3026 C3028 1.478 . S
C3027 H3021 0.930 . S
C3027 C3023 1.400 . S
C3027 C3026 1.385 . S
C3028 C3026 1.478 . S
C3028 C3030 1.381 . S
C3028 C3034 1.383 . S
C3029 C3025 1.495 . S
C3029 H3035 0.959 . S
C3029 H3036 0.961 . S
C3029 H3037 0.960 . S
C3030 C3028 1.381 . S
C3030 C3031 1.394 . S
C3030 H3038 0.930 . S
C3031 C3030 1.394 . S
C3031 C3032 1.383 . S
C3031 H3039 0.929 . S
C3032 C3031 1.383 . S
C3032 C3033 1.377 . S
C3033 H3017 0.930 . S
C3033 C3032 1.377 . S
C3033 C3034 1.379 . S
C3034 H3018 0.931 . S
C3034 C3028 1.383 . S
C3034 C3033 1.379 . S
H3035 C3029 0.959 . S
H3036 C3029 0.961 . S
H3037 C3029 0.960 . S
H3038 C3030 0.930 . S
H3039 C3031 0.929 . S
H3040 C3048 0.929 . S
H3041 C3050 0.930 . S
H3042 C3052 0.930 . S
H3043 C3055 0.929 . S
H3044 C3058 0.930 . S
H3045 C3060 0.960 . S
H3046 C3060 0.960 . S
H3047 C3060 0.960 . S
C3048 H3040 0.929 . S
C3048 C3049 1.377 . S
C3048 C3050 1.384 . S
C3049 C3048 1.377 . S
C3049 C3055 1.390 . S
C3050 H3041 0.930 . S
C3050 C3048 1.384 . S
C3050 C3051 1.372 . S
C3051 C3050 1.372 . S
C3051 C3052 1.400 . S
C3051 C3056 1.490 . S
C3052 H3042 0.930 . S
C3052 C3051 1.400 . S
C3052 C3055 1.386 . S
H3053 C3069 0.930 . S
H3054 C3070 0.931 . S
C3055 H3043 0.929 . S
C3055 C3049 1.390 . S
C3055 C3052 1.386 . S
C3056 C3051 1.490 . S
C3056 C3058 1.395 . S
C3056 C3059 1.403 . S
H3057 C3063 0.930 . S
C3058 H3044 0.930 . S
C3058 C3056 1.395 . S
C3058 C3061 1.403 . S
C3059 C3056 1.403 . S
C3059 C3060 1.524 . S
C3059 C3063 1.400 . S
C3060 H3045 0.960 . S
C3060 H3046 0.960 . S
C3060 H3047 0.960 . S
C3060 C3059 1.524 . S
C3061 C3058 1.403 . S
C3061 C3062 1.392 . S
C3061 C3065 1.495 . S
C3062 C3061 1.392 . S
C3062 C3063 1.385 . S
C3062 C3064 1.478 . S
C3063 H3057 0.930 . S
C3063 C3059 1.400 . S
C3063 C3062 1.385 . S
C3064 C3062 1.478 . S
C3064 C3066 1.381 . S
C3064 C3070 1.383 . S
C3065 C3061 1.495 . S
C3065 H3071 0.959 . S
C3065 H3072 0.961 . S
C3065 H3073 0.960 . S
C3066 C3064 1.381 . S
C3066 C3067 1.394 . S
C3066 H3074 0.930 . S
C3067 C3066 1.394 . S
C3067 C3068 1.383 . S
C3067 H3075 0.929 . S
C3068 C3067 1.383 . S
C3068 C3069 1.377 . S
C3069 H3053 0.930 . S
C3069 C3068 1.377 . S
C3069 C3070 1.379 . S
C3070 H3054 0.931 . S
C3070 C3064 1.383 . S
C3070 C3069 1.379 . S
H3071 C3065 0.959 . S
H3072 C3065 0.961 . S
H3073 C3065 0.960 . S
H3074 C3066 0.930 . S
H3075 C3067 0.929 . S
H3076 C3084 0.929 . S
H3077 C3086 0.930 . S
H3078 C3088 0.930 . S
H3079 C3091 0.929 . S
H3080 C3094 0.930 . S
H3081 C3096 0.960 . S
H3082 C3096 0.960 . S
H3083 C3096 0.960 . S
C3084 H3076 0.929 . S
C3084 C3085 1.377 . S
C3084 C3086 1.384 . S
C3085 C3084 1.377 . S
C3085 C3091 1.390 . S
C3086 H3077 0.930 . S
C3086 C3084 1.384 . S
C3086 C3087 1.372 . S
C3087 C3086 1.372 . S
C3087 C3088 1.400 . S
C3087 C3092 1.490 . S
C3088 H3078 0.930 . S
C3088 C3087 1.400 . S
C3088 C3091 1.386 . S
H3089 C3105 0.930 . S
H3090 C3106 0.931 . S
C3091 H3079 0.929 . S
C3091 C3085 1.390 . S
C3091 C3088 1.386 . S
C3092 C3087 1.490 . S
C3092 C3094 1.395 . S
C3092 C3095 1.403 . S
H3093 C3099 0.930 . S
C3094 H3080 0.930 . S
C3094 C3092 1.395 . S
C3094 C3097 1.403 . S
C3095 C3092 1.403 . S
C3095 C3096 1.524 . S
C3095 C3099 1.400 . S
C3096 H3081 0.960 . S
C3096 H3082 0.960 . S
C3096 H3083 0.960 . S
C3096 C3095 1.524 . S
C3097 C3094 1.403 . S
C3097 C3098 1.392 . S
C3097 C3101 1.495 . S
C3098 C3097 1.392 . S
C3098 C3099 1.385 . S
C3098 C3100 1.478 . S
C3099 H3093 0.930 . S
C3099 C3095 1.400 . S
C3099 C3098 1.385 . S
C3100 C3098 1.478 . S
C3100 C3102 1.381 . S
C3100 C3106 1.383 . S
C3101 C3097 1.495 . S
C3101 H3107 0.959 . S
C3101 H3108 0.961 . S
C3101 H3109 0.960 . S
C3102 C3100 1.381 . S
C3102 C3103 1.394 . S
C3102 H3110 0.930 . S
C3103 C3102 1.394 . S
C3103 C3104 1.383 . S
C3103 H3111 0.929 . S
C3104 C3103 1.383 . S
C3104 C3105 1.377 . S
C3105 H3089 0.930 . S
C3105 C3104 1.377 . S
C3105 C3106 1.379 . S
C3106 H3090 0.931 . S
C3106 C3100 1.383 . S
C3106 C3105 1.379 . S
H3107 C3101 0.959 . S
H3108 C3101 0.961 . S
H3109 C3101 0.960 . S
H3110 C3102 0.930 . S
H3111 C3103 0.929 . S
H3112 C3120 0.929 . S
H3113 C3122 0.930 . S
H3114 C3124 0.930 . S
H3115 C3127 0.929 . S
H3116 C3130 0.930 . S
H3117 C3132 0.960 . S
H3118 C3132 0.960 . S
H3119 C3132 0.960 . S
C3120 H3112 0.929 . S
C3120 C3121 1.377 . S
C3120 C3122 1.384 . S
C3121 C3120 1.377 . S
C3121 C3127 1.390 . S
C3122 H3113 0.930 . S
C3122 C3120 1.384 . S
C3122 C3123 1.372 . S
C3123 C3122 1.372 . S
C3123 C3124 1.400 . S
C3123 C3128 1.490 . S
C3124 H3114 0.930 . S
C3124 C3123 1.400 . S
C3124 C3127 1.386 . S
H3125 C3141 0.930 . S
H3126 C3142 0.931 . S
C3127 H3115 0.929 . S
C3127 C3121 1.390 . S
C3127 C3124 1.386 . S
C3128 C3123 1.490 . S
C3128 C3130 1.395 . S
C3128 C3131 1.403 . S
H3129 C3135 0.930 . S
C3130 H3116 0.930 . S
C3130 C3128 1.395 . S
C3130 C3133 1.403 . S
C3131 C3128 1.403 . S
C3131 C3132 1.524 . S
C3131 C3135 1.400 . S
C3132 H3117 0.960 . S
C3132 H3118 0.960 . S
C3132 H3119 0.960 . S
C3132 C3131 1.524 . S
C3133 C3130 1.403 . S
C3133 C3134 1.392 . S
C3133 C3137 1.495 . S
C3134 C3133 1.392 . S
C3134 C3135 1.385 . S
C3134 C3136 1.478 . S
C3135 H3129 0.930 . S
C3135 C3131 1.400 . S
C3135 C3134 1.385 . S
C3136 C3134 1.478 . S
C3136 C3138 1.381 . S
C3136 C3142 1.383 . S
C3137 C3133 1.495 . S
C3137 H3143 0.959 . S
C3137 H3144 0.961 . S
C3137 H3145 0.960 . S
C3138 C3136 1.381 . S
C3138 C3139 1.394 . S
C3138 H3146 0.930 . S
C3139 C3138 1.394 . S
C3139 C3140 1.383 . S
C3139 H3147 0.929 . S
C3140 C3139 1.383 . S
C3140 C3141 1.377 . S
C3141 H3125 0.930 . S
C3141 C3140 1.377 . S
C3141 C3142 1.379 . S
C3142 H3126 0.931 . S
C3142 C3136 1.383 . S
C3142 C3141 1.379 . S
H3143 C3137 0.959 . S
H3144 C3137 0.961 . S
H3145 C3137 0.960 . S
H3146 C3138 0.930 . S
H3147 C3139 0.929 . S
H3148 C3156 0.929 . S
H3149 C3158 0.930 . S
H3150 C3160 0.930 . S
H3151 C3163 0.929 . S
H3152 C3166 0.930 . S
H3153 C3168 0.960 . S
H3154 C3168 0.960 . S
H3155 C3168 0.960 . S
C3156 H3148 0.929 . S
C3156 C3157 1.377 . S
C3156 C3158 1.384 . S
C3157 C3156 1.377 . S
C3157 C3163 1.390 . S
C3158 H3149 0.930 . S
C3158 C3156 1.384 . S
C3158 C3159 1.372 . S
C3159 C3158 1.372 . S
C3159 C3160 1.400 . S
C3159 C3164 1.490 . S
C3160 H3150 0.930 . S
C3160 C3159 1.400 . S
C3160 C3163 1.386 . S
H3161 C3177 0.930 . S
H3162 C3178 0.931 . S
C3163 H3151 0.929 . S
C3163 C3157 1.390 . S
C3163 C3160 1.386 . S
C3164 C3159 1.490 . S
C3164 C3166 1.395 . S
C3164 C3167 1.403 . S
H3165 C3171 0.930 . S
C3166 H3152 0.930 . S
C3166 C3164 1.395 . S
C3166 C3169 1.403 . S
C3167 C3164 1.403 . S
C3167 C3168 1.524 . S
C3167 C3171 1.400 . S
C3168 H3153 0.960 . S
C3168 H3154 0.960 . S
C3168 H3155 0.960 . S
C3168 C3167 1.524 . S
C3169 C3166 1.403 . S
C3169 C3170 1.392 . S
C3169 C3173 1.495 . S
C3170 C3169 1.392 . S
C3170 C3171 1.385 . S
C3170 C3172 1.478 . S
C3171 H3165 0.930 . S
C3171 C3167 1.400 . S
C3171 C3170 1.385 . S
C3172 C3170 1.478 . S
C3172 C3174 1.381 . S
C3172 C3178 1.383 . S
C3173 C3169 1.495 . S
C3173 H3179 0.959 . S
C3173 H3180 0.961 . S
C3173 H3181 0.960 . S
C3174 C3172 1.381 . S
C3174 C3175 1.394 . S
C3174 H3182 0.930 . S
C3175 C3174 1.394 . S
C3175 C3176 1.383 . S
C3175 H3183 0.929 . S
C3176 C3175 1.383 . S
C3176 C3177 1.377 . S
C3177 H3161 0.930 . S
C3177 C3176 1.377 . S
C3177 C3178 1.379 . S
C3178 H3162 0.931 . S
C3178 C3172 1.383 . S
C3178 C3177 1.379 . S
H3179 C3173 0.959 . S
H3180 C3173 0.961 . S
H3181 C3173 0.960 . S
H3182 C3174 0.930 . S
H3183 C3175 0.929 . S
H3184 C3192 0.929 . S
H3185 C3194 0.930 . S
H3186 C3196 0.930 . S
H3187 C3199 0.929 . S
H3188 C3202 0.930 . S
H3189 C3204 0.960 . S
H3190 C3204 0.960 . S
H3191 C3204 0.960 . S
C3192 H3184 0.929 . S
C3192 C3193 1.377 . S
C3192 C3194 1.384 . S
C3193 C3192 1.377 . S
C3193 C3199 1.390 . S
C3194 H3185 0.930 . S
C3194 C3192 1.384 . S
C3194 C3195 1.372 . S
C3195 C3194 1.372 . S
C3195 C3196 1.400 . S
C3195 C3200 1.490 . S
C3196 H3186 0.930 . S
C3196 C3195 1.400 . S
C3196 C3199 1.386 . S
H3197 C3213 0.930 . S
H3198 C3214 0.931 . S
C3199 H3187 0.929 . S
C3199 C3193 1.390 . S
C3199 C3196 1.386 . S
C3200 C3195 1.490 . S
C3200 C3202 1.395 . S
C3200 C3203 1.403 . S
H3201 C3207 0.930 . S
C3202 H3188 0.930 . S
C3202 C3200 1.395 . S
C3202 C3205 1.403 . S
C3203 C3200 1.403 . S
C3203 C3204 1.524 . S
C3203 C3207 1.400 . S
C3204 H3189 0.960 . S
C3204 H3190 0.960 . S
C3204 H3191 0.960 . S
C3204 C3203 1.524 . S
C3205 C3202 1.403 . S
C3205 C3206 1.392 . S
C3205 C3209 1.495 . S
C3206 C3205 1.392 . S
C3206 C3207 1.385 . S
C3206 C3208 1.478 . S
C3207 H3201 0.930 . S
C3207 C3203 1.400 . S
C3207 C3206 1.385 . S
C3208 C3206 1.478 . S
C3208 C3210 1.381 . S
C3208 C3214 1.383 . S
C3209 C3205 1.495 . S
C3209 H3215 0.959 . S
C3209 H3216 0.961 . S
C3209 H3217 0.960 . S
C3210 C3208 1.381 . S
C3210 C3211 1.394 . S
C3210 H3218 0.930 . S
C3211 C3210 1.394 . S
C3211 C3212 1.383 . S
C3211 H3219 0.929 . S
C3212 C3211 1.383 . S
C3212 C3213 1.377 . S
C3213 H3197 0.930 . S
C3213 C3212 1.377 . S
C3213 C3214 1.379 . S
C3214 H3198 0.931 . S
C3214 C3208 1.383 . S
C3214 C3213 1.379 . S
H3215 C3209 0.959 . S
H3216 C3209 0.961 . S
H3217 C3209 0.960 . S
H3218 C3210 0.930 . S
H3219 C3211 0.929 . S
H3220 C3228 0.929 . S
H3221 C3230 0.930 . S
H3222 C3232 0.930 . S
H3223 C3235 0.929 . S
H3224 C3238 0.930 . S
H3225 C3240 0.960 . S
H3226 C3240 0.960 . S
H3227 C3240 0.960 . S
C3228 H3220 0.929 . S
C3228 C3229 1.377 . S
C3228 C3230 1.384 . S
C3229 C3228 1.377 . S
C3229 C3235 1.390 . S
C3230 H3221 0.930 . S
C3230 C3228 1.384 . S
C3230 C3231 1.372 . S
C3231 C3230 1.372 . S
C3231 C3232 1.400 . S
C3231 C3236 1.490 . S
C3232 H3222 0.930 . S
C3232 C3231 1.400 . S
C3232 C3235 1.386 . S
H3233 C3249 0.930 . S
H3234 C3250 0.931 . S
C3235 H3223 0.929 . S
C3235 C3229 1.390 . S
C3235 C3232 1.386 . S
C3236 C3231 1.490 . S
C3236 C3238 1.395 . S
C3236 C3239 1.403 . S
H3237 C3243 0.930 . S
C3238 H3224 0.930 . S
C3238 C3236 1.395 . S
C3238 C3241 1.403 . S
C3239 C3236 1.403 . S
C3239 C3240 1.524 . S
C3239 C3243 1.400 . S
C3240 H3225 0.960 . S
C3240 H3226 0.960 . S
C3240 H3227 0.960 . S
C3240 C3239 1.524 . S
C3241 C3238 1.403 . S
C3241 C3242 1.392 . S
C3241 C3245 1.495 . S
C3242 C3241 1.392 . S
C3242 C3243 1.385 . S
C3242 C3244 1.478 . S
C3243 H3237 0.930 . S
C3243 C3239 1.400 . S
C3243 C3242 1.385 . S
C3244 C3242 1.478 . S
C3244 C3246 1.381 . S
C3244 C3250 1.383 . S
C3245 C3241 1.495 . S
C3245 H3251 0.959 . S
C3245 H3252 0.961 . S
C3245 H3253 0.960 . S
C3246 C3244 1.381 . S
C3246 C3247 1.394 . S
C3246 H3254 0.930 . S
C3247 C3246 1.394 . S
C3247 C3248 1.383 . S
C3247 H3255 0.929 . S
C3248 C3247 1.383 . S
C3248 C3249 1.377 . S
C3249 H3233 0.930 . S
C3249 C3248 1.377 . S
C3249 C3250 1.379 . S
C3250 H3234 0.931 . S
C3250 C3244 1.383 . S
C3250 C3249 1.379 . S
H3251 C3245 0.959 . S
H3252 C3245 0.961 . S
H3253 C3245 0.960 . S
H3254 C3246 0.930 . S
H3255 C3247 0.929 . S
H3256 C3264 0.929 . S
H3257 C3266 0.930 . S
H3258 C3268 0.930 . S
H3259 C3271 0.929 . S
H3260 C3274 0.930 . S
H3261 C3276 0.960 . S
H3262 C3276 0.960 . S
H3263 C3276 0.960 . S
C3264 H3256 0.929 . S
C3264 C3265 1.377 . S
C3264 C3266 1.384 . S
C3265 C3264 1.377 . S
C3265 C3271 1.390 . S
C3266 H3257 0.930 . S
C3266 C3264 1.384 . S
C3266 C3267 1.372 . S
C3267 C3266 1.372 . S
C3267 C3268 1.400 . S
C3267 C3272 1.490 . S
C3268 H3258 0.930 . S
C3268 C3267 1.400 . S
C3268 C3271 1.386 . S
H3269 C3285 0.930 . S
H3270 C3286 0.931 . S
C3271 H3259 0.929 . S
C3271 C3265 1.390 . S
C3271 C3268 1.386 . S
C3272 C3267 1.490 . S
C3272 C3274 1.395 . S
C3272 C3275 1.403 . S
H3273 C3279 0.930 . S
C3274 H3260 0.930 . S
C3274 C3272 1.395 . S
C3274 C3277 1.403 . S
C3275 C3272 1.403 . S
C3275 C3276 1.524 . S
C3275 C3279 1.400 . S
C3276 H3261 0.960 . S
C3276 H3262 0.960 . S
C3276 H3263 0.960 . S
C3276 C3275 1.524 . S
C3277 C3274 1.403 . S
C3277 C3278 1.392 . S
C3277 C3281 1.495 . S
C3278 C3277 1.392 . S
C3278 C3279 1.385 . S
C3278 C3280 1.478 . S
C3279 H3273 0.930 . S
C3279 C3275 1.400 . S
C3279 C3278 1.385 . S
C3280 C3278 1.478 . S
C3280 C3282 1.381 . S
C3280 C3286 1.383 . S
C3281 C3277 1.495 . S
C3281 H3287 0.959 . S
C3281 H3288 0.961 . S
C3281 H3289 0.960 . S
C3282 C3280 1.381 . S
C3282 C3283 1.394 . S
C3282 H3290 0.930 . S
C3283 C3282 1.394 . S
C3283 C3284 1.383 . S
C3283 H3291 0.929 . S
C3284 C3283 1.383 . S
C3284 C3285 1.377 . S
C3285 H3269 0.930 . S
C3285 C3284 1.377 . S
C3285 C3286 1.379 . S
C3286 H3270 0.931 . S
C3286 C3280 1.383 . S
C3286 C3285 1.379 . S
H3287 C3281 0.959 . S
H3288 C3281 0.961 . S
H3289 C3281 0.960 . S
H3290 C3282 0.930 . S
H3291 C3283 0.929 . S
H3292 C3300 0.929 . S
H3293 C3302 0.930 . S
H3294 C3304 0.930 . S
H3295 C3307 0.929 . S
H3296 C3310 0.930 . S
H3297 C3312 0.960 . S
H3298 C3312 0.960 . S
H3299 C3312 0.960 . S
C3300 H3292 0.929 . S
C3300 C3301 1.377 . S
C3300 C3302 1.384 . S
C3301 C3300 1.377 . S
C3301 C3307 1.390 . S
C3302 H3293 0.930 . S
C3302 C3300 1.384 . S
C3302 C3303 1.372 . S
C3303 C3302 1.372 . S
C3303 C3304 1.400 . S
C3303 C3308 1.490 . S
C3304 H3294 0.930 . S
C3304 C3303 1.400 . S
C3304 C3307 1.386 . S
H3305 C3321 0.930 . S
H3306 C3322 0.931 . S
C3307 H3295 0.929 . S
C3307 C3301 1.390 . S
C3307 C3304 1.386 . S
C3308 C3303 1.490 . S
C3308 C3310 1.395 . S
C3308 C3311 1.403 . S
H3309 C3315 0.930 . S
C3310 H3296 0.930 . S
C3310 C3308 1.395 . S
C3310 C3313 1.403 . S
C3311 C3308 1.403 . S
C3311 C3312 1.524 . S
C3311 C3315 1.400 . S
C3312 H3297 0.960 . S
C3312 H3298 0.960 . S
C3312 H3299 0.960 . S
C3312 C3311 1.524 . S
C3313 C3310 1.403 . S
C3313 C3314 1.392 . S
C3313 C3317 1.495 . S
C3314 C3313 1.392 . S
C3314 C3315 1.385 . S
C3314 C3316 1.478 . S
C3315 H3309 0.930 . S
C3315 C3311 1.400 . S
C3315 C3314 1.385 . S
C3316 C3314 1.478 . S
C3316 C3318 1.381 . S
C3316 C3322 1.383 . S
C3317 C3313 1.495 . S
C3317 H3323 0.959 . S
C3317 H3324 0.961 . S
C3317 H3325 0.960 . S
C3318 C3316 1.381 . S
C3318 C3319 1.394 . S
C3318 H3326 0.930 . S
C3319 C3318 1.394 . S
C3319 C3320 1.383 . S
C3319 H3327 0.929 . S
C3320 C3319 1.383 . S
C3320 C3321 1.377 . S
C3321 H3305 0.930 . S
C3321 C3320 1.377 . S
C3321 C3322 1.379 . S
C3322 H3306 0.931 . S
C3322 C3316 1.383 . S
C3322 C3321 1.379 . S
H3323 C3317 0.959 . S
H3324 C3317 0.961 . S
H3325 C3317 0.960 . S
H3326 C3318 0.930 . S
H3327 C3319 0.929 . S
H3328 C3336 0.929 . S
H3329 C3338 0.930 . S
H3330 C3340 0.930 . S
H3331 C3343 0.929 . S
H3332 C3346 0.930 . S
H3333 C3348 0.960 . S
H3334 C3348 0.960 . S
H3335 C3348 0.960 . S
C3336 H3328 0.929 . S
C3336 C3337 1.377 . S
C3336 C3338 1.384 . S
C3337 C3336 1.377 . S
C3337 C3343 1.390 . S
C3338 H3329 0.930 . S
C3338 C3336 1.384 . S
C3338 C3339 1.372 . S
C3339 C3338 1.372 . S
C3339 C3340 1.400 . S
C3339 C3344 1.490 . S
C3340 H3330 0.930 . S
C3340 C3339 1.400 . S
C3340 C3343 1.386 . S
H3341 C3357 0.930 . S
H3342 C3358 0.931 . S
C3343 H3331 0.929 . S
C3343 C3337 1.390 . S
C3343 C3340 1.386 . S
C3344 C3339 1.490 . S
C3344 C3346 1.395 . S
C3344 C3347 1.403 . S
H3345 C3351 0.930 . S
C3346 H3332 0.930 . S
C3346 C3344 1.395 . S
C3346 C3349 1.403 . S
C3347 C3344 1.403 . S
C3347 C3348 1.524 . S
C3347 C3351 1.400 . S
C3348 H3333 0.960 . S
C3348 H3334 0.960 . S
C3348 H3335 0.960 . S
C3348 C3347 1.524 . S
C3349 C3346 1.403 . S
C3349 C3350 1.392 . S
C3349 C3353 1.495 . S
C3350 C3349 1.392 . S
C3350 C3351 1.385 . S
C3350 C3352 1.478 . S
C3351 H3345 0.930 . S
C3351 C3347 1.400 . S
C3351 C3350 1.385 . S
C3352 C3350 1.478 . S
C3352 C3354 1.381 . S
C3352 C3358 1.383 . S
C3353 C3349 1.495 . S
C3353 H3359 0.959 . S
C3353 H3360 0.961 . S
C3353 H3361 0.960 . S
C3354 C3352 1.381 . S
C3354 C3355 1.394 . S
C3354 H3362 0.930 . S
C3355 C3354 1.394 . S
C3355 C3356 1.383 . S
C3355 H3363 0.929 . S
C3356 C3355 1.383 . S
C3356 C3357 1.377 . S
C3357 H3341 0.930 . S
C3357 C3356 1.377 . S
C3357 C3358 1.379 . S
C3358 H3342 0.931 . S
C3358 C3352 1.383 . S
C3358 C3357 1.379 . S
H3359 C3353 0.959 . S
H3360 C3353 0.961 . S
H3361 C3353 0.960 . S
H3362 C3354 0.930 . S
H3363 C3355 0.929 . S
H3364 C3372 0.939 . S
H3365 C3374 0.930 1_556 S
H3366 C3376 0.930 . S
H3367 C3379 0.929 . S
H3368 C3382 0.930 . S
H3369 C3384 0.960 . S
H3370 C3384 0.960 . S
H3371 C3384 0.964 . S
C3372 H3364 0.939 . S
C3372 C3373 1.377 . S
C3372 C3374 1.384 . S
C3373 C3372 1.377 . S
C3373 C3379 1.390 . S
C3374 H3365 0.930 1_554 S
C3374 C3372 1.384 . S
C3374 C3375 1.372 . S
C3375 C3374 1.372 . S
C3375 C3376 1.400 . S
C3375 C3380 1.490 . S
C3376 H3366 0.930 . S
C3376 C3375 1.400 . S
C3376 C3379 1.386 . S
H3377 C3393 0.930 . S
H3378 C3394 0.931 1_565 S
C3379 H3367 0.929 . S
C3379 C3373 1.390 . S
C3379 C3376 1.386 . S
C3380 C3375 1.490 . S
C3380 C3382 1.395 . S
C3380 C3383 1.403 . S
H3381 C3387 0.930 1_556 S
C3382 H3368 0.930 . S
C3382 C3380 1.395 . S
C3382 C3385 1.403 1_565 S
C3383 C3380 1.403 . S
C3383 C3384 1.524 1_554 S
C3383 C3387 1.400 . S
C3384 H3369 0.960 . S
C3384 H3370 0.960 . S
C3384 H3371 0.964 . S
C3384 C3383 1.524 1_556 S
C3385 C3382 1.403 1_545 S
C3385 C3386 1.392 1_545 S
C3385 C3389 1.495 . S
C3386 C3385 1.392 1_565 S
C3386 C3387 1.385 . S
C3386 C3388 1.478 1_565 S
C3387 H3381 0.930 1_554 S
C3387 C3383 1.400 . S
C3387 C3386 1.385 . S
C3388 C3386 1.478 1_545 S
C3388 C3390 1.381 1_554 S
C3388 C3394 1.383 . S
C3389 C3385 1.495 . S
C3389 H3395 0.959 . S
C3389 H3396 0.961 . S
C3389 H3397 0.960 . S
C3390 C3388 1.381 1_556 S
C3390 C3391 1.394 . S
C3390 H3398 0.930 . S
C3391 C3390 1.394 . S
C3391 C3392 1.383 1_556 S
C3391 H3399 0.929 . S
C3392 C3391 1.383 1_554 S
C3392 C3393 1.377 . S
C3393 H3377 0.930 . S
C3393 C3392 1.377 . S
C3393 C3394 1.379 . S
C3394 H3378 0.931 1_545 S
C3394 C3388 1.383 . S
C3394 C3393 1.379 . S
H3395 C3389 0.959 . S
H3396 C3389 0.961 . S
H3397 C3389 0.960 . S
H3398 C3390 0.930 . S
H3399 C3391 0.929 . S
H3400 C3408 0.929 . S
H3401 C3410 0.930 . S
H3402 C3412 0.930 . S
H3403 C3415 0.929 . S
H3404 C3418 0.930 . S
H3405 C3420 0.960 . S
H3406 C3420 0.960 . S
H3407 C3420 0.960 . S
C3408 H3400 0.929 . S
C3408 C3409 1.377 . S
C3408 C3410 1.384 . S
C3409 C3408 1.377 . S
C3409 C3415 1.390 . S
C3410 H3401 0.930 . S
C3410 C3408 1.384 . S
C3410 C3411 1.372 . S
C3411 C3410 1.372 . S
C3411 C3412 1.400 . S
C3411 C3416 1.490 . S
C3412 H3402 0.930 . S
C3412 C3411 1.400 . S
C3412 C3415 1.386 . S
H3413 C3429 0.930 . S
H3414 C3430 0.931 . S
C3415 H3403 0.929 . S
C3415 C3409 1.390 . S
C3415 C3412 1.386 . S
C3416 C3411 1.490 . S
C3416 C3418 1.395 . S
C3416 C3419 1.403 . S
H3417 C3423 0.930 . S
C3418 H3404 0.930 . S
C3418 C3416 1.395 . S
C3418 C3421 1.403 . S
C3419 C3416 1.403 . S
C3419 C3420 1.524 . S
C3419 C3423 1.400 . S
C3420 H3405 0.960 . S
C3420 H3406 0.960 . S
C3420 H3407 0.960 . S
C3420 C3419 1.524 . S
C3421 C3418 1.403 . S
C3421 C3422 1.392 . S
C3421 C3425 1.495 . S
C3422 C3421 1.392 . S
C3422 C3423 1.385 . S
C3422 C3424 1.478 . S
C3423 H3417 0.930 . S
C3423 C3419 1.400 . S
C3423 C3422 1.385 . S
C3424 C3422 1.478 . S
C3424 C3426 1.381 . S
C3424 C3430 1.383 . S
C3425 C3421 1.495 . S
C3425 H3431 0.959 . S
C3425 H3432 0.961 . S
C3425 H3433 0.960 . S
C3426 C3424 1.381 . S
C3426 C3427 1.394 . S
C3426 H3434 0.930 . S
C3427 C3426 1.394 . S
C3427 C3428 1.383 . S
C3427 H3435 0.929 . S
C3428 C3427 1.383 . S
C3428 C3429 1.377 . S
C3429 H3413 0.930 . S
C3429 C3428 1.377 . S
C3429 C3430 1.379 . S
C3430 H3414 0.931 . S
C3430 C3424 1.383 . S
C3430 C3429 1.379 . S
H3431 C3425 0.959 . S
H3432 C3425 0.961 . S
H3433 C3425 0.960 . S
H3434 C3426 0.930 . S
H3435 C3427 0.929 . S
H3436 C3444 0.929 1_556 S
H3437 C3446 0.949 . S
H3438 C3448 0.930 . S
H3439 C3451 0.929 . S
H3440 C3454 0.930 . S
H3441 C3456 0.960 . S
H3442 C3456 0.960 . S
H3443 C3456 0.960 . S
C3444 H3436 0.929 1_554 S
C3444 C3445 1.377 . S
C3444 C3446 1.384 . S
C3445 C3444 1.377 . S
C3445 C3451 1.390 . S
C3446 H3437 0.949 . S
C3446 C3444 1.384 . S
C3446 C3447 1.372 . S
C3447 C3446 1.372 . S
C3447 C3448 1.400 . S
C3447 C3452 1.490 . S
C3448 H3438 0.930 . S
C3448 C3447 1.400 . S
C3448 C3451 1.386 . S
H3449 C3465 0.930 . S
H3450 C3466 0.931 . S
C3451 H3439 0.929 . S
C3451 C3445 1.390 . S
C3451 C3448 1.386 . S
C3452 C3447 1.490 . S
C3452 C3454 1.395 . S
C3452 C3455 1.403 . S
H3453 C3459 0.930 . S
C3454 H3440 0.930 . S
C3454 C3452 1.395 . S
C3454 C3457 1.403 . S
C3455 C3452 1.403 . S
C3455 C3456 1.524 . S
C3455 C3459 1.400 . S
C3456 H3441 0.960 . S
C3456 H3442 0.960 . S
C3456 H3443 0.960 . S
C3456 C3455 1.524 . S
C3457 C3454 1.403 . S
C3457 C3458 1.392 . S
C3457 C3461 1.495 . S
C3458 C3457 1.392 . S
C3458 C3459 1.385 . S
C3458 C3460 1.478 . S
C3459 H3453 0.930 . S
C3459 C3455 1.400 . S
C3459 C3458 1.385 . S
C3460 C3458 1.478 . S
C3460 C3462 1.381 . S
C3460 C3466 1.383 . S
C3461 C3457 1.495 . S
C3461 H3467 0.959 . S
C3461 H3468 0.961 . S
C3461 H3469 0.960 . S
C3462 C3460 1.381 . S
C3462 C3463 1.394 . S
C3462 H3470 0.930 . S
C3463 C3462 1.394 . S
C3463 C3464 1.383 . S
C3463 H3471 0.929 . S
C3464 C3463 1.383 . S
C3464 C3465 1.377 . S
C3465 H3449 0.930 . S
C3465 C3464 1.377 . S
C3465 C3466 1.379 . S
C3466 H3450 0.931 . S
C3466 C3460 1.383 . S
C3466 C3465 1.379 . S
H3467 C3461 0.959 . S
H3468 C3461 0.961 . S
H3469 C3461 0.960 . S
H3470 C3462 0.930 . S
H3471 C3463 0.929 . S
H3472 C3480 0.929 . S
H3473 C3482 0.930 . S
H3474 C3484 0.930 . S
H3475 C3487 0.929 . S
H3476 C3490 0.930 . S
H3477 C3492 0.960 . S
H3478 C3492 0.960 . S
H3479 C3492 0.960 . S
C3480 H3472 0.929 . S
C3480 C3481 1.377 . S
C3480 C3482 1.384 . S
C3481 C3480 1.377 . S
C3481 C3487 1.390 . S
C3482 H3473 0.930 . S
C3482 C3480 1.384 . S
C3482 C3483 1.372 . S
C3483 C3482 1.372 . S
C3483 C3484 1.400 . S
C3483 C3488 1.490 . S
C3484 H3474 0.930 . S
C3484 C3483 1.400 . S
C3484 C3487 1.386 . S
H3485 C3501 0.930 . S
H3486 C3502 0.931 . S
C3487 H3475 0.929 . S
C3487 C3481 1.390 . S
C3487 C3484 1.386 . S
C3488 C3483 1.490 . S
C3488 C3490 1.395 . S
C3488 C3491 1.403 . S
H3489 C3495 0.930 . S
C3490 H3476 0.930 . S
C3490 C3488 1.395 . S
C3490 C3493 1.403 . S
C3491 C3488 1.403 . S
C3491 C3492 1.524 . S
C3491 C3495 1.400 . S
C3492 H3477 0.960 . S
C3492 H3478 0.960 . S
C3492 H3479 0.960 . S
C3492 C3491 1.524 . S
C3493 C3490 1.403 . S
C3493 C3494 1.392 . S
C3493 C3497 1.495 . S
C3494 C3493 1.392 . S
C3494 C3495 1.385 . S
C3494 C3496 1.478 . S
C3495 H3489 0.930 . S
C3495 C3491 1.400 . S
C3495 C3494 1.385 . S
C3496 C3494 1.478 . S
C3496 C3498 1.381 . S
C3496 C3502 1.383 . S
C3497 C3493 1.495 . S
C3497 H3503 0.959 . S
C3497 H3504 0.961 . S
C3497 H3505 0.960 . S
C3498 C3496 1.381 . S
C3498 C3499 1.394 . S
C3498 H3506 0.930 . S
C3499 C3498 1.394 . S
C3499 C3500 1.383 . S
C3499 H3507 0.929 . S
C3500 C3499 1.383 . S
C3500 C3501 1.377 . S
C3501 H3485 0.930 . S
C3501 C3500 1.377 . S
C3501 C3502 1.379 . S
C3502 H3486 0.931 . S
C3502 C3496 1.383 . S
C3502 C3501 1.379 . S
H3503 C3497 0.959 . S
H3504 C3497 0.961 . S
H3505 C3497 0.960 . S
H3506 C3498 0.930 . S
H3507 C3499 0.929 . S
H3508 C3516 0.929 . S
H3509 C3518 0.930 . S
H3510 C3520 0.930 . S
H3511 C3523 0.929 . S
H3512 C3526 0.930 . S
H3513 C3528 0.960 . S
H3514 C3528 0.960 . S
H3515 C3528 0.960 . S
C3516 H3508 0.929 . S
C3516 C3517 1.377 . S
C3516 C3518 1.384 . S
C3517 C3516 1.377 . S
C3517 C3523 1.390 . S
C3518 H3509 0.930 . S
C3518 C3516 1.384 . S
C3518 C3519 1.372 . S
C3519 C3518 1.372 . S
C3519 C3520 1.400 . S
C3519 C3524 1.490 . S
C3520 H3510 0.930 . S
C3520 C3519 1.400 . S
C3520 C3523 1.386 . S
H3521 C3537 0.930 . S
H3522 C3538 0.931 . S
C3523 H3511 0.929 . S
C3523 C3517 1.390 . S
C3523 C3520 1.386 . S
C3524 C3519 1.490 . S
C3524 C3526 1.395 . S
C3524 C3527 1.403 . S
H3525 C3531 0.930 . S
C3526 H3512 0.930 . S
C3526 C3524 1.395 . S
C3526 C3529 1.403 . S
C3527 C3524 1.403 . S
C3527 C3528 1.524 . S
C3527 C3531 1.400 . S
C3528 H3513 0.960 . S
C3528 H3514 0.960 . S
C3528 H3515 0.960 . S
C3528 C3527 1.524 . S
C3529 C3526 1.403 . S
C3529 C3530 1.392 . S
C3529 C3533 1.495 . S
C3530 C3529 1.392 . S
C3530 C3531 1.385 . S
C3530 C3532 1.478 . S
C3531 H3525 0.930 . S
C3531 C3527 1.400 . S
C3531 C3530 1.385 . S
C3532 C3530 1.478 . S
C3532 C3534 1.381 . S
C3532 C3538 1.383 . S
C3533 C3529 1.495 . S
C3533 H3539 0.959 . S
C3533 H3540 0.961 . S
C3533 H3541 0.960 . S
C3534 C3532 1.381 . S
C3534 C3535 1.394 . S
C3534 H3542 0.930 . S
C3535 C3534 1.394 . S
C3535 C3536 1.383 . S
C3535 H3543 0.929 . S
C3536 C3535 1.383 . S
C3536 C3537 1.377 . S
C3537 H3521 0.930 . S
C3537 C3536 1.377 . S
C3537 C3538 1.379 . S
C3538 H3522 0.931 . S
C3538 C3532 1.383 . S
C3538 C3537 1.379 . S
H3539 C3533 0.959 . S
H3540 C3533 0.961 . S
H3541 C3533 0.960 . S
H3542 C3534 0.930 . S
H3543 C3535 0.929 . S
H3544 C3552 0.929 . S
H3545 C3554 0.930 . S
H3546 C3556 0.930 . S
H3547 C3559 0.929 . S
H3548 C3562 0.930 . S
H3549 C3564 0.960 . S
H3550 C3564 0.960 . S
H3551 C3564 0.960 . S
C3552 H3544 0.929 . S
C3552 C3553 1.377 . S
C3552 C3554 1.384 . S
C3553 C3552 1.377 . S
C3553 C3559 1.390 . S
C3554 H3545 0.930 . S
C3554 C3552 1.384 . S
C3554 C3555 1.372 . S
C3555 C3554 1.372 . S
C3555 C3556 1.400 . S
C3555 C3560 1.490 . S
C3556 H3546 0.930 . S
C3556 C3555 1.400 . S
C3556 C3559 1.386 . S
H3557 C3573 0.930 . S
H3558 C3574 0.931 . S
C3559 H3547 0.929 . S
C3559 C3553 1.390 . S
C3559 C3556 1.386 . S
C3560 C3555 1.490 . S
C3560 C3562 1.395 . S
C3560 C3563 1.403 . S
H3561 C3567 0.930 . S
C3562 H3548 0.930 . S
C3562 C3560 1.395 . S
C3562 C3565 1.403 . S
C3563 C3560 1.403 . S
C3563 C3564 1.524 . S
C3563 C3567 1.400 . S
C3564 H3549 0.960 . S
C3564 H3550 0.960 . S
C3564 H3551 0.960 . S
C3564 C3563 1.524 . S
C3565 C3562 1.403 . S
C3565 C3566 1.392 . S
C3565 C3569 1.495 . S
C3566 C3565 1.392 . S
C3566 C3567 1.385 . S
C3566 C3568 1.478 . S
C3567 H3561 0.930 . S
C3567 C3563 1.400 . S
C3567 C3566 1.385 . S
C3568 C3566 1.478 . S
C3568 C3570 1.381 . S
C3568 C3574 1.383 . S
C3569 C3565 1.495 . S
C3569 H3575 0.959 . S
C3569 H3576 0.961 . S
C3569 H3577 0.960 . S
C3570 C3568 1.381 . S
C3570 C3571 1.394 . S
C3570 H3578 0.930 . S
C3571 C3570 1.394 . S
C3571 C3572 1.383 . S
C3571 H3579 0.929 . S
C3572 C3571 1.383 . S
C3572 C3573 1.377 . S
C3573 H3557 0.930 . S
C3573 C3572 1.377 . S
C3573 C3574 1.379 . S
C3574 H3558 0.931 . S
C3574 C3568 1.383 . S
C3574 C3573 1.379 . S
H3575 C3569 0.959 . S
H3576 C3569 0.961 . S
H3577 C3569 0.960 . S
H3578 C3570 0.930 . S
H3579 C3571 0.929 . S
H3580 C3588 0.929 . S
H3581 C3590 0.930 . S
H3582 C3592 0.930 . S
H3583 C3595 0.929 . S
H3584 C3598 0.930 . S
H3585 C3600 0.960 . S
H3586 C3600 0.960 . S
H3587 C3600 0.960 . S
C3588 H3580 0.929 . S
C3588 C3589 1.377 . S
C3588 C3590 1.384 . S
C3589 C3588 1.377 . S
C3589 C3595 1.390 . S
C3590 H3581 0.930 . S
C3590 C3588 1.384 . S
C3590 C3591 1.372 . S
C3591 C3590 1.372 . S
C3591 C3592 1.400 . S
C3591 C3596 1.490 . S
C3592 H3582 0.930 . S
C3592 C3591 1.400 . S
C3592 C3595 1.386 . S
H3593 C3609 0.930 . S
H3594 C3610 0.931 . S
C3595 H3583 0.929 . S
C3595 C3589 1.390 . S
C3595 C3592 1.386 . S
C3596 C3591 1.490 . S
C3596 C3598 1.395 . S
C3596 C3599 1.403 . S
H3597 C3603 0.930 . S
C3598 H3584 0.930 . S
C3598 C3596 1.395 . S
C3598 C3601 1.403 . S
C3599 C3596 1.403 . S
C3599 C3600 1.524 . S
C3599 C3603 1.400 . S
C3600 H3585 0.960 . S
C3600 H3586 0.960 . S
C3600 H3587 0.960 . S
C3600 C3599 1.524 . S
C3601 C3598 1.403 . S
C3601 C3602 1.392 . S
C3601 C3605 1.495 . S
C3602 C3601 1.392 . S
C3602 C3603 1.385 . S
C3602 C3604 1.478 . S
C3603 H3597 0.930 . S
C3603 C3599 1.400 . S
C3603 C3602 1.385 . S
C3604 C3602 1.478 . S
C3604 C3606 1.381 . S
C3604 C3610 1.383 . S
C3605 C3601 1.495 . S
C3605 H3611 0.959 . S
C3605 H3612 0.961 . S
C3605 H3613 0.960 . S
C3606 C3604 1.381 . S
C3606 C3607 1.394 . S
C3606 H3614 0.930 . S
C3607 C3606 1.394 . S
C3607 C3608 1.383 . S
C3607 H3615 0.929 . S
C3608 C3607 1.383 . S
C3608 C3609 1.377 . S
C3609 H3593 0.930 . S
C3609 C3608 1.377 . S
C3609 C3610 1.379 . S
C3610 H3594 0.931 . S
C3610 C3604 1.383 . S
C3610 C3609 1.379 . S
H3611 C3605 0.959 . S
H3612 C3605 0.961 . S
H3613 C3605 0.960 . S
H3614 C3606 0.930 . S
H3615 C3607 0.929 . S
H3616 C3624 0.929 . S
H3617 C3626 0.930 . S
H3618 C3628 0.930 . S
H3619 C3631 0.929 . S
H3620 C3634 0.930 . S
H3621 C3636 0.960 . S
H3622 C3636 0.960 . S
H3623 C3636 0.960 . S
C3624 H3616 0.929 . S
C3624 C3625 1.377 . S
C3624 C3626 1.384 . S
C3625 C3624 1.377 . S
C3625 C3631 1.390 . S
C3626 H3617 0.930 . S
C3626 C3624 1.384 . S
C3626 C3627 1.372 . S
C3627 C3626 1.372 . S
C3627 C3628 1.400 . S
C3627 C3632 1.490 . S
C3628 H3618 0.930 . S
C3628 C3627 1.400 . S
C3628 C3631 1.386 . S
H3629 C3645 0.930 . S
H3630 C3646 0.931 . S
C3631 H3619 0.929 . S
C3631 C3625 1.390 . S
C3631 C3628 1.386 . S
C3632 C3627 1.490 . S
C3632 C3634 1.395 . S
C3632 C3635 1.403 . S
H3633 C3639 0.930 . S
C3634 H3620 0.930 . S
C3634 C3632 1.395 . S
C3634 C3637 1.403 . S
C3635 C3632 1.403 . S
C3635 C3636 1.524 . S
C3635 C3639 1.400 . S
C3636 H3621 0.960 . S
C3636 H3622 0.960 . S
C3636 H3623 0.960 . S
C3636 C3635 1.524 . S
C3637 C3634 1.403 . S
C3637 C3638 1.392 . S
C3637 C3641 1.495 . S
C3638 C3637 1.392 . S
C3638 C3639 1.385 . S
C3638 C3640 1.478 . S
C3639 H3633 0.930 . S
C3639 C3635 1.400 . S
C3639 C3638 1.385 . S
C3640 C3638 1.478 . S
C3640 C3642 1.381 . S
C3640 C3646 1.383 . S
C3641 C3637 1.495 . S
C3641 H3647 0.959 . S
C3641 H3648 0.961 . S
C3641 H3649 0.960 . S
C3642 C3640 1.381 . S
C3642 C3643 1.394 . S
C3642 H3650 0.930 . S
C3643 C3642 1.394 . S
C3643 C3644 1.383 . S
C3643 H3651 0.929 . S
C3644 C3643 1.383 . S
C3644 C3645 1.377 . S
C3645 H3629 0.930 . S
C3645 C3644 1.377 . S
C3645 C3646 1.379 . S
C3646 H3630 0.931 . S
C3646 C3640 1.383 . S
C3646 C3645 1.379 . S
H3647 C3641 0.959 . S
H3648 C3641 0.961 . S
H3649 C3641 0.960 . S
H3650 C3642 0.930 . S
H3651 C3643 0.929 . S
H3652 C3660 0.929 . S
H3653 C3662 0.930 . S
H3654 C3664 0.930 . S
H3655 C3667 0.929 . S
H3656 C3670 0.930 . S
H3657 C3672 0.960 . S
H3658 C3672 0.960 . S
H3659 C3672 0.960 . S
C3660 H3652 0.929 . S
C3660 C3661 1.377 . S
C3660 C3662 1.384 . S
C3661 C3660 1.377 . S
C3661 C3667 1.390 . S
C3662 H3653 0.930 . S
C3662 C3660 1.384 . S
C3662 C3663 1.372 . S
C3663 C3662 1.372 . S
C3663 C3664 1.400 . S
C3663 C3668 1.490 . S
C3664 H3654 0.930 . S
C3664 C3663 1.400 . S
C3664 C3667 1.386 . S
H3665 C3681 0.930 . S
H3666 C3682 0.931 . S
C3667 H3655 0.929 . S
C3667 C3661 1.390 . S
C3667 C3664 1.386 . S
C3668 C3663 1.490 . S
C3668 C3670 1.395 . S
C3668 C3671 1.403 . S
H3669 C3675 0.930 . S
C3670 H3656 0.930 . S
C3670 C3668 1.395 . S
C3670 C3673 1.403 . S
C3671 C3668 1.403 . S
C3671 C3672 1.524 . S
C3671 C3675 1.400 . S
C3672 H3657 0.960 . S
C3672 H3658 0.960 . S
C3672 H3659 0.960 . S
C3672 C3671 1.524 . S
C3673 C3670 1.403 . S
C3673 C3674 1.392 . S
C3673 C3677 1.495 . S
C3674 C3673 1.392 . S
C3674 C3675 1.385 . S
C3674 C3676 1.478 . S
C3675 H3669 0.930 . S
C3675 C3671 1.400 . S
C3675 C3674 1.385 . S
C3676 C3674 1.478 . S
C3676 C3678 1.381 . S
C3676 C3682 1.383 . S
C3677 C3673 1.495 . S
C3677 H3683 0.959 . S
C3677 H3684 0.961 . S
C3677 H3685 0.960 . S
C3678 C3676 1.381 . S
C3678 C3679 1.394 . S
C3678 H3686 0.930 . S
C3679 C3678 1.394 . S
C3679 C3680 1.383 . S
C3679 H3687 0.929 . S
C3680 C3679 1.383 . S
C3680 C3681 1.377 . S
C3681 H3665 0.930 . S
C3681 C3680 1.377 . S
C3681 C3682 1.379 . S
C3682 H3666 0.931 . S
C3682 C3676 1.383 . S
C3682 C3681 1.379 . S
H3683 C3677 0.959 . S
H3684 C3677 0.961 . S
H3685 C3677 0.960 . S
H3686 C3678 0.930 . S
H3687 C3679 0.929 . S
H3688 C3696 0.929 . S
H3689 C3698 0.930 . S
H3690 C3700 0.930 . S
H3691 C3703 0.929 . S
H3692 C3706 0.930 . S
H3693 C3708 0.960 . S
H3694 C3708 0.960 . S
H3695 C3708 0.960 . S
C3696 H3688 0.929 . S
C3696 C3697 1.377 . S
C3696 C3698 1.384 . S
C3697 C3696 1.377 . S
C3697 C3703 1.390 . S
C3698 H3689 0.930 . S
C3698 C3696 1.384 . S
C3698 C3699 1.372 . S
C3699 C3698 1.372 . S
C3699 C3700 1.400 . S
C3699 C3704 1.490 . S
C3700 H3690 0.930 . S
C3700 C3699 1.400 . S
C3700 C3703 1.386 . S
H3701 C3717 0.930 . S
H3702 C3718 0.931 . S
C3703 H3691 0.929 . S
C3703 C3697 1.390 . S
C3703 C3700 1.386 . S
C3704 C3699 1.490 . S
C3704 C3706 1.395 . S
C3704 C3707 1.403 . S
H3705 C3711 0.930 . S
C3706 H3692 0.930 . S
C3706 C3704 1.395 . S
C3706 C3709 1.403 . S
C3707 C3704 1.403 . S
C3707 C3708 1.524 . S
C3707 C3711 1.400 . S
C3708 H3693 0.960 . S
C3708 H3694 0.960 . S
C3708 H3695 0.960 . S
C3708 C3707 1.524 . S
C3709 C3706 1.403 . S
C3709 C3710 1.392 . S
C3709 C3713 1.495 . S
C3710 C3709 1.392 . S
C3710 C3711 1.385 . S
C3710 C3712 1.478 . S
C3711 H3705 0.930 . S
C3711 C3707 1.400 . S
C3711 C3710 1.385 . S
C3712 C3710 1.478 . S
C3712 C3714 1.381 . S
C3712 C3718 1.383 . S
C3713 C3709 1.495 . S
C3713 H3719 0.959 . S
C3713 H3720 0.961 . S
C3713 H3721 0.960 . S
C3714 C3712 1.381 . S
C3714 C3715 1.394 . S
C3714 H3722 0.930 . S
C3715 C3714 1.394 . S
C3715 C3716 1.383 . S
C3715 H3723 0.929 . S
C3716 C3715 1.383 . S
C3716 C3717 1.377 . S
C3717 H3701 0.930 . S
C3717 C3716 1.377 . S
C3717 C3718 1.379 . S
C3718 H3702 0.931 . S
C3718 C3712 1.383 . S
C3718 C3717 1.379 . S
H3719 C3713 0.959 . S
H3720 C3713 0.961 . S
H3721 C3713 0.960 . S
H3722 C3714 0.930 . S
H3723 C3715 0.929 . S
H3724 C3732 0.929 . S
H3725 C3734 0.930 . S
H3726 C3736 0.930 . S
H3727 C3739 0.929 . S
H3728 C3742 0.930 . S
H3729 C3744 0.960 . S
H3730 C3744 0.960 . S
H3731 C3744 0.960 . S
C3732 H3724 0.929 . S
C3732 C3733 1.377 . S
C3732 C3734 1.384 . S
C3733 C3732 1.377 . S
C3733 C3739 1.390 . S
C3734 H3725 0.930 . S
C3734 C3732 1.384 . S
C3734 C3735 1.372 . S
C3735 C3734 1.372 . S
C3735 C3736 1.400 . S
C3735 C3740 1.490 . S
C3736 H3726 0.930 . S
C3736 C3735 1.400 . S
C3736 C3739 1.386 . S
H3737 C3753 0.930 . S
H3738 C3754 0.931 . S
C3739 H3727 0.929 . S
C3739 C3733 1.390 . S
C3739 C3736 1.386 . S
C3740 C3735 1.490 . S
C3740 C3742 1.395 . S
C3740 C3743 1.403 . S
H3741 C3747 0.930 . S
C3742 H3728 0.930 . S
C3742 C3740 1.395 . S
C3742 C3745 1.403 . S
C3743 C3740 1.403 . S
C3743 C3744 1.524 . S
C3743 C3747 1.400 . S
C3744 H3729 0.960 . S
C3744 H3730 0.960 . S
C3744 H3731 0.960 . S
C3744 C3743 1.524 . S
C3745 C3742 1.403 . S
C3745 C3746 1.392 . S
C3745 C3749 1.495 . S
C3746 C3745 1.392 . S
C3746 C3747 1.385 . S
C3746 C3748 1.478 . S
C3747 H3741 0.930 . S
C3747 C3743 1.400 . S
C3747 C3746 1.385 . S
C3748 C3746 1.478 . S
C3748 C3750 1.381 . S
C3748 C3754 1.383 . S
C3749 C3745 1.495 . S
C3749 H3755 0.959 . S
C3749 H3756 0.961 . S
C3749 H3757 0.960 . S
C3750 C3748 1.381 . S
C3750 C3751 1.394 . S
C3750 H3758 0.930 . S
C3751 C3750 1.394 . S
C3751 C3752 1.383 . S
C3751 H3759 0.929 . S
C3752 C3751 1.383 . S
C3752 C3753 1.377 . S
C3753 H3737 0.930 . S
C3753 C3752 1.377 . S
C3753 C3754 1.379 . S
C3754 H3738 0.931 . S
C3754 C3748 1.383 . S
C3754 C3753 1.379 . S
H3755 C3749 0.959 . S
H3756 C3749 0.961 . S
H3757 C3749 0.960 . S
H3758 C3750 0.930 . S
H3759 C3751 0.929 . S
H3760 C3768 0.929 . S
H3761 C3770 0.930 . S
H3762 C3772 0.930 . S
H3763 C3775 0.929 . S
H3764 C3778 0.930 . S
H3765 C3780 0.960 . S
H3766 C3780 0.960 . S
H3767 C3780 0.960 . S
C3768 H3760 0.929 . S
C3768 C3769 1.377 . S
C3768 C3770 1.384 . S
C3769 C3768 1.377 . S
C3769 C3775 1.390 . S
C3770 H3761 0.930 . S
C3770 C3768 1.384 . S
C3770 C3771 1.372 . S
C3771 C3770 1.372 . S
C3771 C3772 1.400 . S
C3771 C3776 1.490 . S
C3772 H3762 0.930 . S
C3772 C3771 1.400 . S
C3772 C3775 1.386 . S
H3773 C3789 0.930 . S
H3774 C3790 0.931 . S
C3775 H3763 0.929 . S
C3775 C3769 1.390 . S
C3775 C3772 1.386 . S
C3776 C3771 1.490 . S
C3776 C3778 1.395 . S
C3776 C3779 1.403 . S
H3777 C3783 0.930 . S
C3778 H3764 0.930 . S
C3778 C3776 1.395 . S
C3778 C3781 1.403 . S
C3779 C3776 1.403 . S
C3779 C3780 1.524 . S
C3779 C3783 1.400 . S
C3780 H3765 0.960 . S
C3780 H3766 0.960 . S
C3780 H3767 0.960 . S
C3780 C3779 1.524 . S
C3781 C3778 1.403 . S
C3781 C3782 1.392 . S
C3781 C3785 1.495 . S
C3782 C3781 1.392 . S
C3782 C3783 1.385 . S
C3782 C3784 1.478 . S
C3783 H3777 0.930 . S
C3783 C3779 1.400 . S
C3783 C3782 1.385 . S
C3784 C3782 1.478 . S
C3784 C3786 1.381 . S
C3784 C3790 1.383 . S
C3785 C3781 1.495 . S
C3785 H3791 0.959 . S
C3785 H3792 0.961 . S
C3785 H3793 0.960 . S
C3786 C3784 1.381 . S
C3786 C3787 1.394 . S
C3786 H3794 0.930 . S
C3787 C3786 1.394 . S
C3787 C3788 1.383 . S
C3787 H3795 0.929 . S
C3788 C3787 1.383 . S
C3788 C3789 1.377 . S
C3789 H3773 0.930 . S
C3789 C3788 1.377 . S
C3789 C3790 1.379 . S
C3790 H3774 0.931 . S
C3790 C3784 1.383 . S
C3790 C3789 1.379 . S
H3791 C3785 0.959 . S
H3792 C3785 0.961 . S
H3793 C3785 0.960 . S
H3794 C3786 0.930 . S
H3795 C3787 0.929 . S
H3796 C3804 0.929 . S
H3797 C3806 0.930 . S
H3798 C3808 0.930 . S
H3799 C3811 0.929 . S
H3800 C3814 0.930 . S
H3801 C3816 0.960 . S
H3802 C3816 0.960 . S
H3803 C3816 0.960 . S
C3804 H3796 0.929 . S
C3804 C3805 1.377 . S
C3804 C3806 1.384 . S
C3805 C3804 1.377 . S
C3805 C3811 1.390 . S
C3806 H3797 0.930 . S
C3806 C3804 1.384 . S
C3806 C3807 1.372 . S
C3807 C3806 1.372 . S
C3807 C3808 1.400 . S
C3807 C3812 1.490 . S
C3808 H3798 0.930 . S
C3808 C3807 1.400 . S
C3808 C3811 1.386 . S
H3809 C3825 0.930 . S
H3810 C3826 0.931 . S
C3811 H3799 0.929 . S
C3811 C3805 1.390 . S
C3811 C3808 1.386 . S
C3812 C3807 1.490 . S
C3812 C3814 1.395 . S
C3812 C3815 1.403 . S
H3813 C3819 0.930 . S
C3814 H3800 0.930 . S
C3814 C3812 1.395 . S
C3814 C3817 1.403 . S
C3815 C3812 1.403 . S
C3815 C3816 1.524 . S
C3815 C3819 1.400 . S
C3816 H3801 0.960 . S
C3816 H3802 0.960 . S
C3816 H3803 0.960 . S
C3816 C3815 1.524 . S
C3817 C3814 1.403 . S
C3817 C3818 1.392 . S
C3817 C3821 1.495 . S
C3818 C3817 1.392 . S
C3818 C3819 1.385 . S
C3818 C3820 1.478 . S
C3819 H3813 0.930 . S
C3819 C3815 1.400 . S
C3819 C3818 1.385 . S
C3820 C3818 1.478 . S
C3820 C3822 1.381 . S
C3820 C3826 1.383 . S
C3821 C3817 1.495 . S
C3821 H3827 0.959 . S
C3821 H3828 0.961 . S
C3821 H3829 0.960 . S
C3822 C3820 1.381 . S
C3822 C3823 1.394 . S
C3822 H3830 0.930 . S
C3823 C3822 1.394 . S
C3823 C3824 1.383 . S
C3823 H3831 0.929 . S
C3824 C3823 1.383 . S
C3824 C3825 1.377 . S
C3825 H3809 0.930 . S
C3825 C3824 1.377 . S
C3825 C3826 1.379 . S
C3826 H3810 0.931 . S
C3826 C3820 1.383 . S
C3826 C3825 1.379 . S
H3827 C3821 0.959 . S
H3828 C3821 0.961 . S
H3829 C3821 0.960 . S
H3830 C3822 0.930 . S
H3831 C3823 0.929 . S
H3832 C3840 0.929 . S
H3833 C3842 0.930 . S
H3834 C3844 0.930 . S
H3835 C3847 0.929 . S
H3836 C3850 0.930 . S
H3837 C3852 0.960 . S
H3838 C3852 0.960 . S
H3839 C3852 0.960 . S
C3840 H3832 0.929 . S
C3840 C3841 1.377 . S
C3840 C3842 1.384 . S
C3841 C3840 1.377 . S
C3841 C3847 1.390 . S
C3842 H3833 0.930 . S
C3842 C3840 1.384 . S
C3842 C3843 1.372 . S
C3843 C3842 1.372 . S
C3843 C3844 1.400 . S
C3843 C3848 1.490 . S
C3844 H3834 0.930 . S
C3844 C3843 1.400 . S
C3844 C3847 1.386 . S
H3845 C3861 0.930 . S
H3846 C3862 0.931 . S
C3847 H3835 0.929 . S
C3847 C3841 1.390 . S
C3847 C3844 1.386 . S
C3848 C3843 1.490 . S
C3848 C3850 1.395 . S
C3848 C3851 1.403 . S
H3849 C3855 0.930 . S
C3850 H3836 0.930 . S
C3850 C3848 1.395 . S
C3850 C3853 1.403 . S
C3851 C3848 1.403 . S
C3851 C3852 1.524 . S
C3851 C3855 1.400 . S
C3852 H3837 0.960 . S
C3852 H3838 0.960 . S
C3852 H3839 0.960 . S
C3852 C3851 1.524 . S
C3853 C3850 1.403 . S
C3853 C3854 1.392 . S
C3853 C3857 1.495 . S
C3854 C3853 1.392 . S
C3854 C3855 1.385 . S
C3854 C3856 1.478 . S
C3855 H3849 0.930 . S
C3855 C3851 1.400 . S
C3855 C3854 1.385 . S
C3856 C3854 1.478 . S
C3856 C3858 1.381 . S
C3856 C3862 1.383 . S
C3857 C3853 1.495 . S
C3857 H3863 0.959 . S
C3857 H3864 0.961 . S
C3857 H3865 0.960 . S
C3858 C3856 1.381 . S
C3858 C3859 1.394 . S
C3858 H3866 0.930 . S
C3859 C3858 1.394 . S
C3859 C3860 1.383 . S
C3859 H3867 0.929 . S
C3860 C3859 1.383 . S
C3860 C3861 1.377 . S
C3861 H3845 0.930 . S
C3861 C3860 1.377 . S
C3861 C3862 1.379 . S
C3862 H3846 0.931 . S
C3862 C3856 1.383 . S
C3862 C3861 1.379 . S
H3863 C3857 0.959 . S
H3864 C3857 0.961 . S
H3865 C3857 0.960 . S
H3866 C3858 0.930 . S
H3867 C3859 0.929 . S
H3868 C3876 0.929 . S
H3869 C3878 0.930 . S
H3870 C3880 0.930 . S
H3871 C3883 0.929 . S
H3872 C3886 0.930 . S
H3873 C3888 0.960 . S
H3874 C3888 0.960 . S
H3875 C3888 0.960 . S
C3876 H3868 0.929 . S
C3876 C3877 1.377 . S
C3876 C3878 1.384 . S
C3877 C3876 1.377 . S
C3877 C3883 1.390 . S
C3878 H3869 0.930 . S
C3878 C3876 1.384 . S
C3878 C3879 1.372 . S
C3879 C3878 1.372 . S
C3879 C3880 1.400 . S
C3879 C3884 1.490 . S
C3880 H3870 0.930 . S
C3880 C3879 1.400 . S
C3880 C3883 1.386 . S
H3881 C3897 0.930 . S
H3882 C3898 0.931 . S
C3883 H3871 0.929 . S
C3883 C3877 1.390 . S
C3883 C3880 1.386 . S
C3884 C3879 1.490 . S
C3884 C3886 1.395 . S
C3884 C3887 1.403 . S
H3885 C3891 0.930 . S
C3886 H3872 0.930 . S
C3886 C3884 1.395 . S
C3886 C3889 1.403 . S
C3887 C3884 1.403 . S
C3887 C3888 1.524 . S
C3887 C3891 1.400 . S
C3888 H3873 0.960 . S
C3888 H3874 0.960 . S
C3888 H3875 0.960 . S
C3888 C3887 1.524 . S
C3889 C3886 1.403 . S
C3889 C3890 1.392 . S
C3889 C3893 1.495 . S
C3890 C3889 1.392 . S
C3890 C3891 1.385 . S
C3890 C3892 1.478 . S
C3891 H3885 0.930 . S
C3891 C3887 1.400 . S
C3891 C3890 1.385 . S
C3892 C3890 1.478 . S
C3892 C3894 1.381 . S
C3892 C3898 1.383 . S
C3893 C3889 1.495 . S
C3893 H3899 0.959 . S
C3893 H3900 0.961 . S
C3893 H3901 0.960 . S
C3894 C3892 1.381 . S
C3894 C3895 1.394 . S
C3894 H3902 0.930 . S
C3895 C3894 1.394 . S
C3895 C3896 1.383 . S
C3895 H3903 0.929 . S
C3896 C3895 1.383 . S
C3896 C3897 1.377 . S
C3897 H3881 0.930 . S
C3897 C3896 1.377 . S
C3897 C3898 1.379 . S
C3898 H3882 0.931 . S
C3898 C3892 1.383 . S
C3898 C3897 1.379 . S
H3899 C3893 0.959 . S
H3900 C3893 0.961 . S
H3901 C3893 0.960 . S
H3902 C3894 0.930 . S
H3903 C3895 0.929 . S
H3904 C3912 0.929 . S
H3905 C3914 0.930 . S
H3906 C3916 0.930 . S
H3907 C3919 0.929 . S
H3908 C3922 0.930 . S
H3909 C3924 0.960 . S
H3910 C3924 0.960 . S
H3911 C3924 0.960 . S
C3912 H3904 0.929 . S
C3912 C3913 1.377 . S
C3912 C3914 1.384 . S
C3913 C3912 1.377 . S
C3913 C3919 1.390 . S
C3914 H3905 0.930 . S
C3914 C3912 1.384 . S
C3914 C3915 1.372 . S
C3915 C3914 1.372 . S
C3915 C3916 1.400 . S
C3915 C3920 1.490 . S
C3916 H3906 0.930 . S
C3916 C3915 1.400 . S
C3916 C3919 1.386 . S
H3917 C3933 0.930 . S
H3918 C3934 0.931 . S
C3919 H3907 0.929 . S
C3919 C3913 1.390 . S
C3919 C3916 1.386 . S
C3920 C3915 1.490 . S
C3920 C3922 1.395 . S
C3920 C3923 1.403 . S
H3921 C3927 0.930 . S
C3922 H3908 0.930 . S
C3922 C3920 1.395 . S
C3922 C3925 1.403 . S
C3923 C3920 1.403 . S
C3923 C3924 1.524 . S
C3923 C3927 1.400 . S
C3924 H3909 0.960 . S
C3924 H3910 0.960 . S
C3924 H3911 0.960 . S
C3924 C3923 1.524 . S
C3925 C3922 1.403 . S
C3925 C3926 1.392 . S
C3925 C3929 1.495 . S
C3926 C3925 1.392 . S
C3926 C3927 1.385 . S
C3926 C3928 1.478 . S
C3927 H3921 0.930 . S
C3927 C3923 1.400 . S
C3927 C3926 1.385 . S
C3928 C3926 1.478 . S
C3928 C3930 1.381 . S
C3928 C3934 1.383 1_655 S
C3929 C3925 1.495 . S
C3929 H3935 0.959 . S
C3929 H3936 0.961 . S
C3929 H3937 0.960 . S
C3930 C3928 1.381 . S
C3930 C3931 1.394 . S
C3930 H3938 0.930 . S
C3931 C3930 1.394 . S
C3931 C3932 1.383 1_655 S
C3931 H3939 0.929 . S
C3932 C3931 1.383 1_455 S
C3932 C3933 1.377 . S
C3933 H3917 0.930 . S
C3933 C3932 1.377 . S
C3933 C3934 1.379 . S
C3934 H3918 0.931 . S
C3934 C3928 1.383 1_455 S
C3934 C3933 1.379 . S
H3935 C3929 0.959 . S
H3936 C3929 0.961 . S
H3937 C3929 0.960 . S
H3938 C3930 0.930 . S
H3939 C3931 0.929 . S
H3940 C3948 0.929 . S
H3941 C3950 0.930 . S
H3942 C3952 0.930 . S
H3943 C3955 0.929 . S
H3944 C3958 0.930 . S
H3945 C3960 0.960 . S
H3946 C3960 0.960 . S
H3947 C3960 0.960 . S
C3948 H3940 0.929 . S
C3948 C3949 1.377 . S
C3948 C3950 1.384 . S
C3949 C3948 1.377 . S
C3949 C3955 1.390 . S
C3950 H3941 0.930 . S
C3950 C3948 1.384 . S
C3950 C3951 1.372 . S
C3951 C3950 1.372 . S
C3951 C3952 1.400 . S
C3951 C3956 1.490 . S
C3952 H3942 0.930 . S
C3952 C3951 1.400 . S
C3952 C3955 1.386 . S
H3953 C3969 0.930 . S
H3954 C3970 0.931 . S
C3955 H3943 0.929 . S
C3955 C3949 1.390 . S
C3955 C3952 1.386 . S
C3956 C3951 1.490 . S
C3956 C3958 1.395 . S
C3956 C3959 1.403 . S
H3957 C3963 0.930 . S
C3958 H3944 0.930 . S
C3958 C3956 1.395 . S
C3958 C3961 1.403 . S
C3959 C3956 1.403 . S
C3959 C3960 1.524 . S
C3959 C3963 1.400 . S
C3960 H3945 0.960 . S
C3960 H3946 0.960 . S
C3960 H3947 0.960 . S
C3960 C3959 1.524 . S
C3961 C3958 1.403 . S
C3961 C3962 1.392 . S
C3961 C3965 1.495 . S
C3962 C3961 1.392 . S
C3962 C3963 1.385 . S
C3962 C3964 1.478 . S
C3963 H3957 0.930 . S
C3963 C3959 1.400 . S
C3963 C3962 1.385 . S
C3964 C3962 1.478 . S
C3964 C3966 1.381 . S
C3964 C3970 1.383 . S
C3965 C3961 1.495 . S
C3965 H3971 0.959 . S
C3965 H3972 0.961 . S
C3965 H3973 0.960 . S
C3966 C3964 1.381 . S
C3966 C3967 1.394 . S
C3966 H3974 0.930 . S
C3967 C3966 1.394 . S
C3967 C3968 1.383 . S
C3967 H3975 0.929 . S
C3968 C3967 1.383 . S
C3968 C3969 1.377 . S
C3969 H3953 0.930 . S
C3969 C3968 1.377 . S
C3969 C3970 1.379 . S
C3970 H3954 0.931 . S
C3970 C3964 1.383 . S
C3970 C3969 1.379 . S
H3971 C3965 0.959 . S
H3972 C3965 0.961 . S
H3973 C3965 0.960 . S
H3974 C3966 0.930 . S
H3975 C3967 0.929 . S
H3976 C3984 0.929 . S
H3977 C3986 0.930 . S
H3978 C3988 0.930 . S
H3979 C3991 0.929 . S
H3980 C3994 0.930 . S
H3981 C3996 0.960 . S
H3982 C3996 0.960 . S
H3983 C3996 0.960 . S
C3984 H3976 0.929 . S
C3984 C3985 1.377 . S
C3984 C3986 1.384 . S
C3985 C3984 1.377 . S
C3985 C3991 1.390 . S
C3986 H3977 0.930 . S
C3986 C3984 1.384 . S
C3986 C3987 1.372 . S
C3987 C3986 1.372 . S
C3987 C3988 1.400 . S
C3987 C3992 1.490 . S
C3988 H3978 0.930 . S
C3988 C3987 1.400 . S
C3988 C3991 1.386 . S
H3989 C4005 0.930 . S
H3990 C4006 0.931 . S
C3991 H3979 0.929 . S
C3991 C3985 1.390 . S
C3991 C3988 1.386 . S
C3992 C3987 1.490 . S
C3992 C3994 1.395 . S
C3992 C3995 1.403 . S
H3993 C3999 0.930 . S
C3994 H3980 0.930 . S
C3994 C3992 1.395 . S
C3994 C3997 1.403 . S
C3995 C3992 1.403 . S
C3995 C3996 1.524 . S
C3995 C3999 1.400 . S
C3996 H3981 0.960 . S
C3996 H3982 0.960 . S
C3996 H3983 0.960 . S
C3996 C3995 1.524 . S
C3997 C3994 1.403 . S
C3997 C3998 1.392 . S
C3997 C4001 1.495 . S
C3998 C3997 1.392 . S
C3998 C3999 1.385 . S
C3998 C4000 1.478 . S
C3999 H3993 0.930 . S
C3999 C3995 1.400 . S
C3999 C3998 1.385 . S
C4000 C3998 1.478 . S
C4000 C4002 1.381 . S
C4000 C4006 1.383 . S
C4001 C3997 1.495 . S
C4001 H4007 0.959 . S
C4001 H4008 0.961 . S
C4001 H4009 0.960 . S
C4002 C4000 1.381 . S
C4002 C4003 1.394 . S
C4002 H4010 0.930 . S
C4003 C4002 1.394 . S
C4003 C4004 1.383 . S
C4003 H4011 0.929 . S
C4004 C4003 1.383 . S
C4004 C4005 1.377 . S
C4005 H3989 0.930 . S
C4005 C4004 1.377 . S
C4005 C4006 1.379 . S
C4006 H3990 0.931 . S
C4006 C4000 1.383 . S
C4006 C4005 1.379 . S
H4007 C4001 0.959 . S
H4008 C4001 0.961 . S
H4009 C4001 0.960 . S
H4010 C4002 0.930 . S
H4011 C4003 0.929 . S
H4012 C4020 0.929 . S
H4013 C4022 0.930 . S
H4014 C4024 0.930 . S
H4015 C4027 0.929 . S
H4016 C4030 0.930 . S
H4017 C4032 0.960 . S
H4018 C4032 0.960 . S
H4019 C4032 0.960 . S
C4020 H4012 0.929 . S
C4020 C4021 1.377 . S
C4020 C4022 1.384 . S
C4021 C4020 1.377 . S
C4021 C4027 1.390 . S
C4022 H4013 0.930 . S
C4022 C4020 1.384 . S
C4022 C4023 1.372 . S
C4023 C4022 1.372 . S
C4023 C4024 1.400 . S
C4023 C4028 1.490 . S
C4024 H4014 0.930 . S
C4024 C4023 1.400 . S
C4024 C4027 1.386 . S
H4025 C4041 0.930 . S
H4026 C4042 0.931 . S
C4027 H4015 0.929 . S
C4027 C4021 1.390 . S
C4027 C4024 1.386 . S
C4028 C4023 1.490 . S
C4028 C4030 1.395 . S
C4028 C4031 1.403 . S
H4029 C4035 0.930 . S
C4030 H4016 0.930 . S
C4030 C4028 1.395 . S
C4030 C4033 1.403 . S
C4031 C4028 1.403 . S
C4031 C4032 1.524 . S
C4031 C4035 1.400 . S
C4032 H4017 0.960 . S
C4032 H4018 0.960 . S
C4032 H4019 0.960 . S
C4032 C4031 1.524 . S
C4033 C4030 1.403 . S
C4033 C4034 1.392 . S
C4033 C4037 1.495 . S
C4034 C4033 1.392 . S
C4034 C4035 1.385 . S
C4034 C4036 1.478 . S
C4035 H4029 0.930 . S
C4035 C4031 1.400 . S
C4035 C4034 1.385 . S
C4036 C4034 1.478 . S
C4036 C4038 1.381 . S
C4036 C4042 1.383 . S
C4037 C4033 1.495 . S
C4037 H4043 0.959 . S
C4037 H4044 0.961 . S
C4037 H4045 0.960 . S
C4038 C4036 1.381 . S
C4038 C4039 1.394 . S
C4038 H4046 0.930 . S
C4039 C4038 1.394 . S
C4039 C4040 1.383 . S
C4039 H4047 0.929 . S
C4040 C4039 1.383 . S
C4040 C4041 1.377 . S
C4041 H4025 0.930 . S
C4041 C4040 1.377 . S
C4041 C4042 1.379 . S
C4042 H4026 0.931 . S
C4042 C4036 1.383 . S
C4042 C4041 1.379 . S
H4043 C4037 0.959 . S
H4044 C4037 0.961 . S
H4045 C4037 0.960 . S
H4046 C4038 0.930 . S
H4047 C4039 0.929 . S
H4048 C4056 0.929 . S
H4049 C4058 0.930 . S
H4050 C4060 0.930 . S
H4051 C4063 0.929 . S
H4052 C4066 0.930 . S
H4053 C4068 0.960 . S
H4054 C4068 0.960 . S
H4055 C4068 0.960 . S
C4056 H4048 0.929 . S
C4056 C4057 1.377 . S
C4056 C4058 1.384 . S
C4057 C4056 1.377 . S
C4057 C4063 1.390 . S
C4058 H4049 0.930 . S
C4058 C4056 1.384 . S
C4058 C4059 1.372 . S
C4059 C4058 1.372 . S
C4059 C4060 1.400 . S
C4059 C4064 1.490 . S
C4060 H4050 0.930 . S
C4060 C4059 1.400 . S
C4060 C4063 1.386 . S
H4061 C4077 0.930 . S
H4062 C4078 0.931 . S
C4063 H4051 0.929 . S
C4063 C4057 1.390 . S
C4063 C4060 1.386 . S
C4064 C4059 1.490 . S
C4064 C4066 1.395 . S
C4064 C4067 1.403 . S
H4065 C4071 0.930 . S
C4066 H4052 0.930 . S
C4066 C4064 1.395 . S
C4066 C4069 1.403 . S
C4067 C4064 1.403 . S
C4067 C4068 1.524 . S
C4067 C4071 1.400 . S
C4068 H4053 0.960 . S
C4068 H4054 0.960 . S
C4068 H4055 0.960 . S
C4068 C4067 1.524 . S
C4069 C4066 1.403 . S
C4069 C4070 1.392 . S
C4069 C4073 1.495 . S
C4070 C4069 1.392 . S
C4070 C4071 1.385 . S
C4070 C4072 1.478 . S
C4071 H4065 0.930 . S
C4071 C4067 1.400 . S
C4071 C4070 1.385 . S
C4072 C4070 1.478 . S
C4072 C4074 1.381 . S
C4072 C4078 1.383 . S
C4073 C4069 1.495 . S
C4073 H4079 0.959 . S
C4073 H4080 0.961 . S
C4073 H4081 0.960 . S
C4074 C4072 1.381 . S
C4074 C4075 1.394 . S
C4074 H4082 0.930 . S
C4075 C4074 1.394 . S
C4075 C4076 1.383 . S
C4075 H4083 0.929 . S
C4076 C4075 1.383 . S
C4076 C4077 1.377 . S
C4077 H4061 0.930 . S
C4077 C4076 1.377 . S
C4077 C4078 1.379 . S
C4078 H4062 0.931 . S
C4078 C4072 1.383 . S
C4078 C4077 1.379 . S
H4079 C4073 0.959 . S
H4080 C4073 0.961 . S
H4081 C4073 0.960 . S
H4082 C4074 0.930 . S
H4083 C4075 0.929 . S
H4084 C4092 0.929 . S
H4085 C4094 0.930 . S
H4086 C4096 0.930 . S
H4087 C4099 0.929 . S
H4088 C4102 0.930 . S
H4089 C4104 0.960 . S
H4090 C4104 0.960 . S
H4091 C4104 0.960 . S
C4092 H4084 0.929 . S
C4092 C4093 1.377 . S
C4092 C4094 1.384 . S
C4093 C4092 1.377 . S
C4093 C4099 1.390 . S
C4094 H4085 0.930 . S
C4094 C4092 1.384 . S
C4094 C4095 1.372 . S
C4095 C4094 1.372 . S
C4095 C4096 1.400 . S
C4095 C4100 1.490 . S
C4096 H4086 0.930 . S
C4096 C4095 1.400 . S
C4096 C4099 1.386 . S
H4097 C4113 0.930 . S
H4098 C4114 0.931 . S
C4099 H4087 0.929 . S
C4099 C4093 1.390 . S
C4099 C4096 1.386 . S
C4100 C4095 1.490 . S
C4100 C4102 1.395 . S
C4100 C4103 1.403 . S
H4101 C4107 0.930 . S
C4102 H4088 0.930 . S
C4102 C4100 1.395 . S
C4102 C4105 1.403 . S
C4103 C4100 1.403 . S
C4103 C4104 1.524 . S
C4103 C4107 1.400 . S
C4104 H4089 0.960 . S
C4104 H4090 0.960 . S
C4104 H4091 0.960 . S
C4104 C4103 1.524 . S
C4105 C4102 1.403 . S
C4105 C4106 1.392 . S
C4105 C4109 1.495 . S
C4106 C4105 1.392 . S
C4106 C4107 1.385 . S
C4106 C4108 1.478 . S
C4107 H4101 0.930 . S
C4107 C4103 1.400 . S
C4107 C4106 1.385 . S
C4108 C4106 1.478 . S
C4108 C4110 1.381 . S
C4108 C4114 1.383 . S
C4109 C4105 1.495 . S
C4109 H4115 0.959 . S
C4109 H4116 0.961 . S
C4109 H4117 0.960 . S
C4110 C4108 1.381 . S
C4110 C4111 1.394 . S
C4110 H4118 0.930 . S
C4111 C4110 1.394 . S
C4111 C4112 1.383 . S
C4111 H4119 0.929 . S
C4112 C4111 1.383 . S
C4112 C4113 1.377 . S
C4113 H4097 0.930 . S
C4113 C4112 1.377 . S
C4113 C4114 1.379 . S
C4114 H4098 0.931 . S
C4114 C4108 1.383 . S
C4114 C4113 1.379 . S
H4115 C4109 0.959 . S
H4116 C4109 0.961 . S
H4117 C4109 0.960 . S
H4118 C4110 0.930 . S
H4119 C4111 0.929 . S
H4120 C4128 0.929 . S
H4121 C4130 0.930 . S
H4122 C4132 0.930 . S
H4123 C4135 0.929 . S
H4124 C4138 0.930 . S
H4125 C4140 0.960 . S
H4126 C4140 0.960 . S
H4127 C4140 0.960 . S
C4128 H4120 0.929 . S
C4128 C4129 1.377 . S
C4128 C4130 1.384 . S
C4129 C4128 1.377 . S
C4129 C4135 1.390 . S
C4130 H4121 0.930 . S
C4130 C4128 1.384 . S
C4130 C4131 1.372 . S
C4131 C4130 1.372 . S
C4131 C4132 1.400 . S
C4131 C4136 1.490 . S
C4132 H4122 0.930 . S
C4132 C4131 1.400 . S
C4132 C4135 1.386 . S
H4133 C4149 0.930 . S
H4134 C4150 0.931 . S
C4135 H4123 0.929 . S
C4135 C4129 1.390 . S
C4135 C4132 1.386 . S
C4136 C4131 1.490 . S
C4136 C4138 1.395 . S
C4136 C4139 1.403 . S
H4137 C4143 0.930 . S
C4138 H4124 0.930 . S
C4138 C4136 1.395 . S
C4138 C4141 1.403 . S
C4139 C4136 1.403 . S
C4139 C4140 1.524 . S
C4139 C4143 1.400 . S
C4140 H4125 0.960 . S
C4140 H4126 0.960 . S
C4140 H4127 0.960 . S
C4140 C4139 1.524 . S
C4141 C4138 1.403 . S
C4141 C4142 1.392 . S
C4141 C4145 1.495 . S
C4142 C4141 1.392 . S
C4142 C4143 1.385 . S
C4142 C4144 1.478 . S
C4143 H4137 0.930 . S
C4143 C4139 1.400 . S
C4143 C4142 1.385 . S
C4144 C4142 1.478 . S
C4144 C4146 1.381 . S
C4144 C4150 1.383 . S
C4145 C4141 1.495 . S
C4145 H4151 0.959 . S
C4145 H4152 0.961 . S
C4145 H4153 0.960 . S
C4146 C4144 1.381 . S
C4146 C4147 1.394 . S
C4146 H4154 0.930 . S
C4147 C4146 1.394 . S
C4147 C4148 1.383 . S
C4147 H4155 0.929 . S
C4148 C4147 1.383 . S
C4148 C4149 1.377 . S
C4149 H4133 0.930 . S
C4149 C4148 1.377 . S
C4149 C4150 1.379 . S
C4150 H4134 0.931 . S
C4150 C4144 1.383 . S
C4150 C4149 1.379 . S
H4151 C4145 0.959 . S
H4152 C4145 0.961 . S
H4153 C4145 0.960 . S
H4154 C4146 0.930 . S
H4155 C4147 0.929 . S
H4156 C4164 0.929 . S
H4157 C4166 0.930 . S
H4158 C4168 0.930 . S
H4159 C4171 0.929 . S
H4160 C4174 0.930 . S
H4161 C4176 0.960 . S
H4162 C4176 0.960 . S
H4163 C4176 0.960 . S
C4164 H4156 0.929 . S
C4164 C4165 1.377 . S
C4164 C4166 1.384 . S
C4165 C4164 1.377 . S
C4165 C4171 1.390 . S
C4166 H4157 0.930 . S
C4166 C4164 1.384 . S
C4166 C4167 1.372 . S
C4167 C4166 1.372 . S
C4167 C4168 1.400 . S
C4167 C4172 1.490 . S
C4168 H4158 0.930 . S
C4168 C4167 1.400 . S
C4168 C4171 1.386 . S
H4169 C4185 0.930 . S
H4170 C4186 0.931 . S
C4171 H4159 0.929 . S
C4171 C4165 1.390 . S
C4171 C4168 1.386 . S
C4172 C4167 1.490 . S
C4172 C4174 1.395 . S
C4172 C4175 1.403 . S
H4173 C4179 0.930 . S
C4174 H4160 0.930 . S
C4174 C4172 1.395 . S
C4174 C4177 1.403 . S
C4175 C4172 1.403 . S
C4175 C4176 1.524 . S
C4175 C4179 1.400 . S
C4176 H4161 0.960 . S
C4176 H4162 0.960 . S
C4176 H4163 0.960 . S
C4176 C4175 1.524 . S
C4177 C4174 1.403 . S
C4177 C4178 1.392 . S
C4177 C4181 1.495 . S
C4178 C4177 1.392 . S
C4178 C4179 1.385 . S
C4178 C4180 1.478 . S
C4179 H4173 0.930 . S
C4179 C4175 1.400 . S
C4179 C4178 1.385 . S
C4180 C4178 1.478 . S
C4180 C4182 1.381 . S
C4180 C4186 1.383 . S
C4181 C4177 1.495 . S
C4181 H4187 0.959 . S
C4181 H4188 0.961 1_565 S
C4181 H4189 0.960 . S
C4182 C4180 1.381 . S
C4182 C4183 1.394 . S
C4182 H4190 0.930 . S
C4183 C4182 1.394 . S
C4183 C4184 1.383 . S
C4183 H4191 0.929 . S
C4184 C4183 1.383 . S
C4184 C4185 1.377 . S
C4185 H4169 0.930 . S
C4185 C4184 1.377 . S
C4185 C4186 1.379 . S
C4186 H4170 0.931 . S
C4186 C4180 1.383 . S
C4186 C4185 1.379 . S
H4187 C4181 0.959 . S
H4188 C4181 0.961 1_545 S
H4189 C4181 0.960 . S
H4190 C4182 0.930 . S
H4191 C4183 0.929 . S
H4192 C4200 0.929 . S
H4193 C4202 0.930 . S
H4194 C4204 0.930 . S
H4195 C4207 0.929 . S
H4196 C4210 0.930 . S
H4197 C4212 0.960 . S
H4198 C4212 0.960 . S
H4199 C4212 0.960 . S
C4200 H4192 0.929 . S
C4200 C4201 1.377 . S
C4200 C4202 1.384 . S
C4201 C4200 1.377 . S
C4201 C4207 1.390 . S
C4202 H4193 0.930 . S
C4202 C4200 1.384 . S
C4202 C4203 1.372 . S
C4203 C4202 1.372 . S
C4203 C4204 1.400 . S
C4203 C4208 1.490 . S
C4204 H4194 0.930 . S
C4204 C4203 1.400 . S
C4204 C4207 1.386 . S
H4205 C4221 0.930 . S
H4206 C4222 0.931 . S
C4207 H4195 0.929 . S
C4207 C4201 1.390 . S
C4207 C4204 1.386 . S
C4208 C4203 1.490 . S
C4208 C4210 1.395 . S
C4208 C4211 1.403 . S
H4209 C4215 0.930 . S
C4210 H4196 0.930 . S
C4210 C4208 1.395 . S
C4210 C4213 1.403 . S
C4211 C4208 1.403 . S
C4211 C4212 1.524 . S
C4211 C4215 1.400 . S
C4212 H4197 0.960 . S
C4212 H4198 0.960 . S
C4212 H4199 0.960 . S
C4212 C4211 1.524 . S
C4213 C4210 1.403 . S
C4213 C4214 1.392 . S
C4213 C4217 1.495 . S
C4214 C4213 1.392 . S
C4214 C4215 1.385 . S
C4214 C4216 1.478 . S
C4215 H4209 0.930 . S
C4215 C4211 1.400 . S
C4215 C4214 1.385 . S
C4216 C4214 1.478 . S
C4216 C4218 1.381 . S
C4216 C4222 1.383 . S
C4217 C4213 1.495 . S
C4217 H4223 0.959 . S
C4217 H4224 0.961 . S
C4217 H4225 0.960 . S
C4218 C4216 1.381 . S
C4218 C4219 1.394 . S
C4218 H4226 0.930 . S
C4219 C4218 1.394 . S
C4219 C4220 1.383 . S
C4219 H4227 0.929 . S
C4220 C4219 1.383 . S
C4220 C4221 1.377 . S
C4221 H4205 0.930 . S
C4221 C4220 1.377 . S
C4221 C4222 1.379 . S
C4222 H4206 0.931 . S
C4222 C4216 1.383 . S
C4222 C4221 1.379 . S
H4223 C4217 0.959 . S
H4224 C4217 0.961 . S
H4225 C4217 0.960 . S
H4226 C4218 0.930 . S
H4227 C4219 0.929 . S
H4228 C4236 0.929 . S
H4229 C4238 0.930 . S
H4230 C4240 0.930 . S
H4231 C4243 0.929 . S
H4232 C4246 0.930 . S
H4233 C4248 0.960 . S
H4234 C4248 0.947 1_556 S
H4235 C4248 0.960 . S
C4236 H4228 0.929 . S
C4236 C4237 1.377 1_556 S
C4236 C4238 1.384 . S
C4237 C4236 1.377 1_554 S
C4237 C4243 1.390 . S
C4238 H4229 0.930 . S
C4238 C4236 1.384 . S
C4238 C4239 1.372 1_556 S
C4239 C4238 1.372 1_554 S
C4239 C4240 1.400 . S
C4239 C4244 1.490 . S
C4240 H4230 0.930 . S
C4240 C4239 1.400 . S
C4240 C4243 1.386 . S
H4241 C4257 0.930 . S
H4242 C4258 0.931 . S
C4243 H4231 0.929 . S
C4243 C4237 1.390 . S
C4243 C4240 1.386 . S
C4244 C4239 1.490 . S
C4244 C4246 1.395 . S
C4244 C4247 1.403 . S
H4245 C4251 0.930 . S
C4246 H4232 0.930 . S
C4246 C4244 1.395 . S
C4246 C4249 1.398 . S
C4247 C4244 1.403 . S
C4247 C4248 1.524 . S
C4247 C4251 1.400 . S
C4248 H4233 0.960 . S
C4248 H4234 0.947 1_554 S
C4248 H4235 0.960 . S
C4248 C4247 1.524 . S
C4249 C4246 1.398 . S
C4249 C4250 1.401 . S
C4249 C4253 1.498 1_554 S
C4250 C4249 1.401 . S
C4250 C4251 1.385 . S
C4250 C4252 1.478 . S
C4251 H4245 0.930 . S
C4251 C4247 1.400 . S
C4251 C4250 1.385 . S
C4252 C4250 1.478 . S
C4252 C4254 1.381 1_554 S
C4252 C4258 1.383 . S
C4253 C4249 1.498 1_556 S
C4253 H4259 0.959 . S
C4253 H4260 0.961 1_556 S
C4253 H4261 0.960 . S
C4254 C4252 1.381 1_556 S
C4254 C4255 1.394 . S
C4254 H4262 0.930 . S
C4255 C4254 1.394 . S
C4255 C4256 1.383 1_556 S
C4255 H4263 0.929 . S
C4256 C4255 1.383 1_554 S
C4256 C4257 1.377 . S
C4257 H4241 0.930 . S
C4257 C4256 1.377 . S
C4257 C4258 1.379 . S
C4258 H4242 0.931 . S
C4258 C4252 1.383 . S
C4258 C4257 1.379 . S
H4259 C4253 0.959 . S
H4260 C4253 0.961 1_554 S
H4261 C4253 0.960 . S
H4262 C4254 0.930 . S
H4263 C4255 0.929 . S
H4264 C4272 0.929 . S
H4265 C4274 0.930 . S
H4266 C4276 0.930 . S
H4267 C4279 0.929 . S
H4268 C4282 0.930 . S
H4269 C4284 0.960 . S
H4270 C4284 0.960 . S
H4271 C4284 0.960 . S
C4272 H4264 0.929 . S
C4272 C4273 1.377 . S
C4272 C4274 1.384 . S
C4273 C4272 1.377 . S
C4273 C4279 1.390 . S
C4274 H4265 0.930 . S
C4274 C4272 1.384 . S
C4274 C4275 1.372 . S
C4275 C4274 1.372 . S
C4275 C4276 1.400 . S
C4275 C4280 1.490 . S
C4276 H4266 0.930 . S
C4276 C4275 1.400 . S
C4276 C4279 1.386 . S
H4277 C4293 0.930 . S
H4278 C4294 0.931 . S
C4279 H4267 0.929 . S
C4279 C4273 1.390 . S
C4279 C4276 1.386 . S
C4280 C4275 1.490 . S
C4280 C4282 1.395 . S
C4280 C4283 1.403 . S
H4281 C4287 0.930 . S
C4282 H4268 0.930 . S
C4282 C4280 1.395 . S
C4282 C4285 1.403 . S
C4283 C4280 1.403 . S
C4283 C4284 1.524 . S
C4283 C4287 1.400 . S
C4284 H4269 0.960 . S
C4284 H4270 0.960 . S
C4284 H4271 0.960 . S
C4284 C4283 1.524 . S
C4285 C4282 1.403 . S
C4285 C4286 1.392 . S
C4285 C4289 1.495 . S
C4286 C4285 1.392 . S
C4286 C4287 1.385 . S
C4286 C4288 1.478 . S
C4287 H4281 0.930 . S
C4287 C4283 1.400 . S
C4287 C4286 1.385 . S
C4288 C4286 1.478 . S
C4288 C4290 1.381 . S
C4288 C4294 1.383 . S
C4289 C4285 1.495 . S
C4289 H4295 0.959 . S
C4289 H4296 0.961 . S
C4289 H4297 0.960 . S
C4290 C4288 1.381 . S
C4290 C4291 1.394 . S
C4290 H4298 0.930 . S
C4291 C4290 1.394 . S
C4291 C4292 1.383 . S
C4291 H4299 0.929 . S
C4292 C4291 1.383 . S
C4292 C4293 1.377 . S
C4293 H4277 0.930 . S
C4293 C4292 1.377 . S
C4293 C4294 1.379 . S
C4294 H4278 0.931 . S
C4294 C4288 1.383 . S
C4294 C4293 1.379 . S
H4295 C4289 0.959 . S
H4296 C4289 0.961 . S
H4297 C4289 0.960 . S
H4298 C4290 0.930 . S
H4299 C4291 0.929 . S
H4300 C4308 0.929 . S
H4301 C4310 0.930 . S
H4302 C4312 0.930 1_556 S
H4303 C4315 0.929 1_556 S
H4304 C4318 0.930 . S
H4305 C4320 0.960 . S
H4306 C4320 0.960 . S
H4307 C4320 0.960 . S
C4308 H4300 0.929 . S
C4308 C4309 1.377 . S
C4308 C4310 1.384 . S
C4309 C4308 1.377 . S
C4309 C4315 1.390 . S
C4310 H4301 0.930 . S
C4310 C4308 1.384 . S
C4310 C4311 1.372 . S
C4311 C4310 1.372 . S
C4311 C4312 1.400 . S
C4311 C4316 1.490 . S
C4312 H4302 0.930 1_554 S
C4312 C4311 1.400 . S
C4312 C4315 1.386 . S
H4313 C4329 0.930 . S
H4314 C4330 0.931 . S
C4315 H4303 0.929 1_554 S
C4315 C4309 1.390 . S
C4315 C4312 1.386 . S
C4316 C4311 1.490 . S
C4316 C4318 1.395 . S
C4316 C4319 1.403 . S
H4317 C4323 0.934 1_556 S
C4318 H4304 0.930 . S
C4318 C4316 1.395 . S
C4318 C4321 1.403 . S
C4319 C4316 1.403 . S
C4319 C4320 1.524 1_554 S
C4319 C4323 1.400 . S
C4320 H4305 0.960 . S
C4320 H4306 0.960 . S
C4320 H4307 0.960 . S
C4320 C4319 1.524 1_556 S
C4321 C4318 1.403 . S
C4321 C4322 1.392 . S
C4321 C4325 1.495 . S
C4322 C4321 1.392 . S
C4322 C4323 1.382 . S
C4322 C4324 1.478 . S
C4323 H4317 0.934 1_554 S
C4323 C4319 1.400 . S
C4323 C4322 1.382 . S
C4324 C4322 1.478 . S
C4324 C4326 1.381 . S
C4324 C4330 1.383 1_554 S
C4325 C4321 1.495 . S
C4325 H4331 0.959 . S
C4325 H4332 0.961 . S
C4325 H4333 0.960 . S
C4326 C4324 1.381 . S
C4326 C4327 1.394 . S
C4326 H4334 0.930 . S
C4327 C4326 1.394 . S
C4327 C4328 1.383 . S
C4327 H4335 0.929 . S
C4328 C4327 1.383 . S
C4328 C4329 1.377 1_554 S
C4329 H4313 0.930 . S
C4329 C4328 1.377 1_556 S
C4329 C4330 1.379 . S
C4330 H4314 0.931 . S
C4330 C4324 1.383 1_556 S
C4330 C4329 1.379 . S
H4331 C4325 0.959 . S
H4332 C4325 0.961 . S
H4333 C4325 0.960 . S
H4334 C4326 0.930 . S
H4335 C4327 0.929 . S
H4336 C4344 0.929 . S
H4337 C4346 0.930 . S
H4338 C4348 0.930 . S
H4339 C4351 0.929 . S
H4340 C4354 0.930 . S
H4341 C4356 0.960 . S
H4342 C4356 0.960 . S
H4343 C4356 0.960 . S
C4344 H4336 0.929 . S
C4344 C4345 1.377 . S
C4344 C4346 1.384 . S
C4345 C4344 1.377 . S
C4345 C4351 1.390 . S
C4346 H4337 0.930 . S
C4346 C4344 1.384 . S
C4346 C4347 1.372 . S
C4347 C4346 1.372 . S
C4347 C4348 1.400 . S
C4347 C4352 1.490 . S
C4348 H4338 0.930 . S
C4348 C4347 1.400 . S
C4348 C4351 1.386 . S
H4349 C4365 0.930 . S
H4350 C4366 0.931 . S
C4351 H4339 0.929 . S
C4351 C4345 1.390 . S
C4351 C4348 1.386 . S
C4352 C4347 1.490 . S
C4352 C4354 1.395 . S
C4352 C4355 1.403 . S
H4353 C4359 0.930 . S
C4354 H4340 0.930 . S
C4354 C4352 1.395 . S
C4354 C4357 1.403 . S
C4355 C4352 1.403 . S
C4355 C4356 1.524 . S
C4355 C4359 1.400 . S
C4356 H4341 0.960 . S
C4356 H4342 0.960 . S
C4356 H4343 0.960 . S
C4356 C4355 1.524 . S
C4357 C4354 1.403 . S
C4357 C4358 1.392 . S
C4357 C4361 1.495 . S
C4358 C4357 1.392 . S
C4358 C4359 1.385 . S
C4358 C4360 1.478 . S
C4359 H4353 0.930 . S
C4359 C4355 1.400 . S
C4359 C4358 1.385 . S
C4360 C4358 1.478 . S
C4360 C4362 1.381 . S
C4360 C4366 1.383 . S
C4361 C4357 1.495 . S
C4361 H4367 0.959 . S
C4361 H4368 0.961 . S
C4361 H4369 0.960 . S
C4362 C4360 1.381 . S
C4362 C4363 1.394 . S
C4362 H4370 0.930 . S
C4363 C4362 1.394 . S
C4363 C4364 1.383 . S
C4363 H4371 0.929 . S
C4364 C4363 1.383 . S
C4364 C4365 1.377 . S
C4365 H4349 0.930 . S
C4365 C4364 1.377 . S
C4365 C4366 1.379 . S
C4366 H4350 0.931 . S
C4366 C4360 1.383 . S
C4366 C4365 1.379 . S
H4367 C4361 0.959 . S
H4368 C4361 0.961 . S
H4369 C4361 0.960 . S
H4370 C4362 0.930 . S
H4371 C4363 0.929 . S
H4372 C4380 0.929 . S
H4373 C4382 0.930 . S
H4374 C4384 0.930 . S
H4375 C4387 0.929 . S
H4376 C4390 0.930 . S
H4377 C4392 0.960 . S
H4378 C4392 0.960 . S
H4379 C4392 0.960 . S
C4380 H4372 0.929 . S
C4380 C4381 1.377 . S
C4380 C4382 1.384 . S
C4381 C4380 1.377 . S
C4381 C4387 1.390 . S
C4382 H4373 0.930 . S
C4382 C4380 1.384 . S
C4382 C4383 1.372 . S
C4383 C4382 1.372 . S
C4383 C4384 1.400 . S
C4383 C4388 1.490 . S
C4384 H4374 0.930 . S
C4384 C4383 1.400 . S
C4384 C4387 1.386 . S
H4385 C4401 0.930 . S
H4386 C4402 0.931 . S
C4387 H4375 0.929 . S
C4387 C4381 1.390 . S
C4387 C4384 1.386 . S
C4388 C4383 1.490 . S
C4388 C4390 1.395 . S
C4388 C4391 1.403 . S
H4389 C4395 0.930 . S
C4390 H4376 0.930 . S
C4390 C4388 1.395 . S
C4390 C4393 1.403 . S
C4391 C4388 1.403 . S
C4391 C4392 1.524 . S
C4391 C4395 1.400 . S
C4392 H4377 0.960 . S
C4392 H4378 0.960 . S
C4392 H4379 0.960 . S
C4392 C4391 1.524 . S
C4393 C4390 1.403 . S
C4393 C4394 1.392 . S
C4393 C4397 1.495 . S
C4394 C4393 1.392 . S
C4394 C4395 1.385 . S
C4394 C4396 1.478 . S
C4395 H4389 0.930 . S
C4395 C4391 1.400 . S
C4395 C4394 1.385 . S
C4396 C4394 1.478 . S
C4396 C4398 1.381 . S
C4396 C4402 1.383 . S
C4397 C4393 1.495 . S
C4397 H4403 0.959 . S
C4397 H4404 0.961 . S
C4397 H4405 0.960 . S
C4398 C4396 1.381 . S
C4398 C4399 1.394 . S
C4398 H4406 0.930 . S
C4399 C4398 1.394 . S
C4399 C4400 1.383 . S
C4399 H4407 0.929 . S
C4400 C4399 1.383 . S
C4400 C4401 1.377 . S
C4401 H4385 0.930 . S
C4401 C4400 1.377 . S
C4401 C4402 1.379 . S
C4402 H4386 0.931 . S
C4402 C4396 1.383 . S
C4402 C4401 1.379 . S
H4403 C4397 0.959 . S
H4404 C4397 0.961 . S
H4405 C4397 0.960 . S
H4406 C4398 0.930 . S
H4407 C4399 0.929 . S
C961 C101 2.136 . S
C980 C322 2.049 . S
C997 C57 1.971 . S
C1016 C370 2.003 . S
C1033 C70 0.791 . S
C1052 C402 0.837 . S
C1088 C447 1.364 . S
C1069 C82 1.366 . S
C1105 C23 1.263 . S
C1124 C487 1.241 . S
C1160 C518 0.384 . S
C1141 C29 0.172 . S
C1196 C570 1.024 . S
C1177 C49 1.010 . S
C1213 C10 1.724 . S
C1232 C602 1.659 . S
C1268 C330 2.334 . S
C1249 C218 2.344 . S
C1285 C226 0.347 . S
C1304 C367 0.457 . S
C1340 C410 1.273 . S
C1321 C251 1.273 . S
C1376 C442 0.964 . S
C1357 C159 1.006 . S
C1393 C211 1.684 . S
C1412 C482 1.652 . S
C1448 C521 1.405 . S
C1429 C225 1.434 . S
C1484 C567 0.379 . S
C1465 C252 0.193 . S
C1520 C610 1.918 . S
C1501 C166 1.938 . S
C1556 C327 1.416 . S
C1537 C147 1.462 . S
C1573 C263 1.884 . S
C1592 C650 1.891 . S
C1628 C691 2.532 . S
C1609 C309 2.587 . S
C1664 C722 0.392 . S
C1645 C291 0.308 . S
C1681 C108 1.420 . S
C1700 C607 1.387 . S
C1717 C121 1.542 . S
C1736 C407 1.504 . S
C1753 C302 2.190 . S
C1772 C770 2.191 . S
C1808 C802 0.433 . S
C1789 C276 0.364 . S
C1844 C331 2.286 1_565 S
C1825 C55 2.353 . S
C1880 C801 2.349 . S
C1861 C96 2.361 . S
C1897 C88 1.293 . S
C1916 C411 1.284 . S
C1933 C75 1.631 . S
C1952 C758 1.611 . S
C1988 C478 1.331 . S
C1969 C4 1.329 . S
C2005 C44 0.467 . S
C2024 C687 0.483 . S
C2060 C561 1.523 1_565 S
C2041 C31 1.527 . S
C2096 C851 1.821 . S
C2077 C18 1.892 . S
C2132 C321 2.636 . S
C2113 C133 2.660 . S
C2168 C798 0.500 . S
C2149 C296 0.460 . S
C2185 C107 1.620 . S
C2204 C401 1.605 . S
C2221 C264 1.458 . S
C2240 C771 1.408 . S
C2257 C140 1.982 . S
C2276 C491 1.961 . S
C2312 C690 1.600 . S
C2293 C289 1.641 . S
C2329 C114 0.339 . S
C2348 C558 0.341 . S
C2365 C265 2.242 . S
C2384 C841 2.201 . S
C2401 C179 1.581 . S
C2420 C318 1.563 . S
C2437 C161 2.235 . S
C2456 C641 2.222 . S
C2473 C244 2.881 . S
C2492 C522 2.822 . S
C2509 C224 0.957 . S
C2528 C731 0.936 . S
C2564 C838 1.402 . S
C2545 C257 1.404 . S
C2581 C199 1.671 . S
C2600 C398 1.653 . S
C2636 C441 2.503 . S
C2617 C237 2.547 . S
C2672 C371 0.748 . S
C2653 C185 0.728 . S
C2689 C69 2.138 . S
C2708 C882 2.065 . S
C2744 C810 2.002 . S
C2725 C83 1.971 . S
C2761 C94 0.792 . S
C2780 C922 0.753 . S
C2797 C56 1.364 . S
C2816 C767 1.350 . S
C2833 C42 1.278 . S
C2852 C647 1.215 . S
C2888 C678 0.222 . S
C2869 C3 0.166 . S
C2924 C730 1.052 . S
C2905 C16 1.015 . S
C2960 C842 1.662 . S
C2941 C36 1.722 . S
C2996 C890 2.335 . S
C2977 C238 2.344 . S
C3013 C174 0.349 . S
C3032 C807 0.527 . S
C3068 C930 1.279 . S
C3049 C186 1.268 . S
C3104 C762 0.942 . S
C3085 C198 1.005 . S
C3140 C642 1.651 . S
C3121 C239 1.687 . S
C3157 C173 1.434 . S
C3176 C681 1.428 . S
C3212 C727 0.392 . S
C3193 C187 0.197 . S
C3229 C205 1.938 . S
C3248 C850 1.910 . S
C3284 C887 1.428 . S
C3265 C290 1.460 . S
C3301 C122 1.883 . S
C3320 C490 1.902 . S
C3356 C531 2.513 . S
C3337 C134 2.592 . S
C3392 C562 0.495 . S
C3373 C148 0.309 . S
C3428 C847 1.375 . S
C3409 C283 1.411 . S
C3445 C270 1.543 . S
C3464 C927 1.514 . S
C3500 C450 2.171 . S
C3481 C135 2.192 . S
C3536 C362 0.533 . S
C3517 C109 0.370 . S
C3553 C81 2.353 . S
C3572 C891 2.286 . S
C3608 C361 2.334 . S
C3589 C68 2.360 . S
C3625 C62 1.294 . S
C3644 C931 1.234 . S
C3661 C95 1.632 . S
C3680 C438 1.620 . S
C3697 C30 1.328 . S
C3716 C638 1.283 . S
C3752 C527 0.500 . S
C3733 C17 0.448 . S
C3769 C5 1.523 . S
C3788 C721 1.503 . S
C3805 C43 1.877 . S
C3824 C611 1.789 . S
C3860 C881 2.639 . S
C3841 C304 2.660 . S
C3877 C153 0.451 . S
C3896 C358 0.481 . S
C3932 C921 1.597 . S
C3913 C278 1.622 . S
C3949 C127 1.455 . S
C3968 C451 1.409 . S
C3985 C303 1.970 . S
C4004 C651 1.936 . S
C4040 C530 1.579 . S
C4021 C146 1.639 . S
C4057 C277 0.336 . S
C4076 C718 0.323 . S
C4112 C601 2.217 . S
C4093 C120 2.239 . S
C4148 C878 1.541 . S
C4129 C231 1.579 . S
C4184 C481 2.206 1_665 S
C4165 C200 2.235 . S
C4201 C212 2.887 . S
C4220 C682 2.810 . S
C4256 C571 0.968 . S
C4237 C172 0.960 . S
C4273 C192 1.401 . S
C4292 C598 1.380 . S
C4309 C160 1.674 . S
C4328 C918 1.643 . S
C4364 C761 2.521 . S
C4345 C213 2.549 1_565 S
C4400 C811 0.774 . S
C4381 C250 0.731 . S
