# Generated by pormake.
# Topology tph, (6,8)-cn, num edge types: 1
# Building blocks:
#     Node 0, Type 0, BuildingBlock: IZENUY_clean_sbu_0, # of connection points: 6
#     Node 1, Type 0, BuildingBlock: IZENUY_clean_sbu_0, # of connection points: 6
#     Node 2, Type 0, BuildingBlock: IZENUY_clean_sbu_0, # of connection points: 6
#     Node 3, Type 0, BuildingBlock: IZENUY_clean_sbu_0, # of connection points: 6
#     Node 4, Type 0, BuildingBlock: IZENUY_clean_sbu_0, # of connection points: 6
#     Node 5, Type 0, BuildingBlock: IZENUY_clean_sbu_0, # of connection points: 6
#     Node 6, Type 0, BuildingBlock: IZENUY_clean_sbu_0, # of connection points: 6
#     Node 7, Type 0, BuildingBlock: IZENUY_clean_sbu_0, # of connection points: 6
#     Node 8, Type 0, BuildingBlock: IZENUY_clean_sbu_0, # of connection points: 6
#     Node 9, Type 0, BuildingBlock: IZENUY_clean_sbu_0, # of connection points: 6
#     Node 10, Type 0, BuildingBlock: IZENUY_clean_sbu_0, # of connection points: 6
#     Node 11, Type 0, BuildingBlock: IZENUY_clean_sbu_0, # of connection points: 6
#     Node 12, Type 0, BuildingBlock: IZENUY_clean_sbu_0, # of connection points: 6
#     Node 13, Type 0, BuildingBlock: IZENUY_clean_sbu_0, # of connection points: 6
#     Node 14, Type 0, BuildingBlock: IZENUY_clean_sbu_0, # of connection points: 6
#     Node 15, Type 0, BuildingBlock: IZENUY_clean_sbu_0, # of connection points: 6
#     Node 16, Type 1, BuildingBlock: TAGTUT_clean_sbu_1, # of connection points: 8
#     Node 17, Type 1, BuildingBlock: TAGTUT_clean_sbu_1, # of connection points: 8
#     Node 18, Type 1, BuildingBlock: TAGTUT_clean_sbu_1, # of connection points: 8
#     Node 19, Type 1, BuildingBlock: TAGTUT_clean_sbu_1, # of connection points: 8
#     Node 20, Type 1, BuildingBlock: TAGTUT_clean_sbu_1, # of connection points: 8
#     Node 21, Type 1, BuildingBlock: TAGTUT_clean_sbu_1, # of connection points: 8
#     Node 22, Type 1, BuildingBlock: TAGTUT_clean_sbu_1, # of connection points: 8
#     Node 23, Type 1, BuildingBlock: TAGTUT_clean_sbu_1, # of connection points: 8
#     Node 24, Type 1, BuildingBlock: TAGTUT_clean_sbu_1, # of connection points: 8
#     Node 25, Type 1, BuildingBlock: TAGTUT_clean_sbu_1, # of connection points: 8
#     Node 26, Type 1, BuildingBlock: TAGTUT_clean_sbu_1, # of connection points: 8
#     Node 27, Type 1, BuildingBlock: TAGTUT_clean_sbu_1, # of connection points: 8
#     Edge 28, Type (0, 1), BuildingBlock: KIFKEQ_clean_linker_1, # of connection points: 2
#     Edge 29, Type (0, 1), BuildingBlock: KIFKEQ_clean_linker_1, # of connection points: 2
#     Edge 30, Type (0, 1), BuildingBlock: KIFKEQ_clean_linker_1, # of connection points: 2
#     Edge 31, Type (0, 1), BuildingBlock: KIFKEQ_clean_linker_1, # of connection points: 2
#     Edge 32, Type (0, 1), BuildingBlock: KIFKEQ_clean_linker_1, # of connection points: 2
#     Edge 33, Type (0, 1), BuildingBlock: KIFKEQ_clean_linker_1, # of connection points: 2
#     Edge 34, Type (0, 1), BuildingBlock: KIFKEQ_clean_linker_1, # of connection points: 2
#     Edge 35, Type (0, 1), BuildingBlock: KIFKEQ_clean_linker_1, # of connection points: 2
#     Edge 36, Type (0, 1), BuildingBlock: KIFKEQ_clean_linker_1, # of connection points: 2
#     Edge 37, Type (0, 1), BuildingBlock: KIFKEQ_clean_linker_1, # of connection points: 2
#     Edge 38, Type (0, 1), BuildingBlock: KIFKEQ_clean_linker_1, # of connection points: 2
#     Edge 39, Type (0, 1), BuildingBlock: KIFKEQ_clean_linker_1, # of connection points: 2
#     Edge 40, Type (0, 1), BuildingBlock: KIFKEQ_clean_linker_1, # of connection points: 2
#     Edge 41, Type (0, 1), BuildingBlock: KIFKEQ_clean_linker_1, # of connection points: 2
#     Edge 42, Type (0, 1), BuildingBlock: KIFKEQ_clean_linker_1, # of connection points: 2
#     Edge 43, Type (0, 1), BuildingBlock: KIFKEQ_clean_linker_1, # of connection points: 2
#     Edge 44, Type (0, 1), BuildingBlock: KIFKEQ_clean_linker_1, # of connection points: 2
#     Edge 45, Type (0, 1), BuildingBlock: KIFKEQ_clean_linker_1, # of connection points: 2
#     Edge 46, Type (0, 1), BuildingBlock: KIFKEQ_clean_linker_1, # of connection points: 2
#     Edge 47, Type (0, 1), BuildingBlock: KIFKEQ_clean_linker_1, # of connection points: 2
#     Edge 48, Type (0, 1), BuildingBlock: KIFKEQ_clean_linker_1, # of connection points: 2
#     Edge 49, Type (0, 1), BuildingBlock: KIFKEQ_clean_linker_1, # of connection points: 2
#     Edge 50, Type (0, 1), BuildingBlock: KIFKEQ_clean_linker_1, # of connection points: 2
#     Edge 51, Type (0, 1), BuildingBlock: KIFKEQ_clean_linker_1, # of connection points: 2
#     Edge 52, Type (0, 1), BuildingBlock: KIFKEQ_clean_linker_1, # of connection points: 2
#     Edge 53, Type (0, 1), BuildingBlock: KIFKEQ_clean_linker_1, # of connection points: 2
#     Edge 54, Type (0, 1), BuildingBlock: KIFKEQ_clean_linker_1, # of connection points: 2
#     Edge 55, Type (0, 1), BuildingBlock: KIFKEQ_clean_linker_1, # of connection points: 2
#     Edge 56, Type (0, 1), BuildingBlock: KIFKEQ_clean_linker_1, # of connection points: 2
#     Edge 57, Type (0, 1), BuildingBlock: KIFKEQ_clean_linker_1, # of connection points: 2
#     Edge 58, Type (0, 1), BuildingBlock: KIFKEQ_clean_linker_1, # of connection points: 2
#     Edge 59, Type (0, 1), BuildingBlock: KIFKEQ_clean_linker_1, # of connection points: 2
#     Edge 60, Type (0, 1), BuildingBlock: KIFKEQ_clean_linker_1, # of connection points: 2
#     Edge 61, Type (0, 1), BuildingBlock: KIFKEQ_clean_linker_1, # of connection points: 2
#     Edge 62, Type (0, 1), BuildingBlock: KIFKEQ_clean_linker_1, # of connection points: 2
#     Edge 63, Type (0, 1), BuildingBlock: KIFKEQ_clean_linker_1, # of connection points: 2
#     Edge 64, Type (0, 1), BuildingBlock: KIFKEQ_clean_linker_1, # of connection points: 2
#     Edge 65, Type (0, 1), BuildingBlock: KIFKEQ_clean_linker_1, # of connection points: 2
#     Edge 66, Type (0, 1), BuildingBlock: KIFKEQ_clean_linker_1, # of connection points: 2
#     Edge 67, Type (0, 1), BuildingBlock: KIFKEQ_clean_linker_1, # of connection points: 2
#     Edge 68, Type (0, 1), BuildingBlock: KIFKEQ_clean_linker_1, # of connection points: 2
#     Edge 69, Type (0, 1), BuildingBlock: KIFKEQ_clean_linker_1, # of connection points: 2
#     Edge 70, Type (0, 1), BuildingBlock: KIFKEQ_clean_linker_1, # of connection points: 2
#     Edge 71, Type (0, 1), BuildingBlock: KIFKEQ_clean_linker_1, # of connection points: 2
#     Edge 72, Type (0, 1), BuildingBlock: KIFKEQ_clean_linker_1, # of connection points: 2
#     Edge 73, Type (0, 1), BuildingBlock: KIFKEQ_clean_linker_1, # of connection points: 2
#     Edge 74, Type (0, 1), BuildingBlock: KIFKEQ_clean_linker_1, # of connection points: 2
#     Edge 75, Type (0, 1), BuildingBlock: KIFKEQ_clean_linker_1, # of connection points: 2
#     Edge 76, Type (0, 1), BuildingBlock: KIFKEQ_clean_linker_1, # of connection points: 2
#     Edge 77, Type (0, 1), BuildingBlock: KIFKEQ_clean_linker_1, # of connection points: 2
#     Edge 78, Type (0, 1), BuildingBlock: KIFKEQ_clean_linker_1, # of connection points: 2
#     Edge 79, Type (0, 1), BuildingBlock: KIFKEQ_clean_linker_1, # of connection points: 2
#     Edge 80, Type (0, 1), BuildingBlock: KIFKEQ_clean_linker_1, # of connection points: 2
#     Edge 81, Type (0, 1), BuildingBlock: KIFKEQ_clean_linker_1, # of connection points: 2
#     Edge 82, Type (0, 1), BuildingBlock: KIFKEQ_clean_linker_1, # of connection points: 2
#     Edge 83, Type (0, 1), BuildingBlock: KIFKEQ_clean_linker_1, # of connection points: 2
#     Edge 84, Type (0, 1), BuildingBlock: KIFKEQ_clean_linker_1, # of connection points: 2
#     Edge 85, Type (0, 1), BuildingBlock: KIFKEQ_clean_linker_1, # of connection points: 2
#     Edge 86, Type (0, 1), BuildingBlock: KIFKEQ_clean_linker_1, # of connection points: 2
#     Edge 87, Type (0, 1), BuildingBlock: KIFKEQ_clean_linker_1, # of connection points: 2
#     Edge 88, Type (0, 1), BuildingBlock: KIFKEQ_clean_linker_1, # of connection points: 2
#     Edge 89, Type (0, 1), BuildingBlock: KIFKEQ_clean_linker_1, # of connection points: 2
#     Edge 90, Type (0, 1), BuildingBlock: KIFKEQ_clean_linker_1, # of connection points: 2
#     Edge 91, Type (0, 1), BuildingBlock: KIFKEQ_clean_linker_1, # of connection points: 2
#     Edge 92, Type (0, 1), BuildingBlock: KIFKEQ_clean_linker_1, # of connection points: 2
#     Edge 93, Type (0, 1), BuildingBlock: KIFKEQ_clean_linker_1, # of connection points: 2
#     Edge 94, Type (0, 1), BuildingBlock: KIFKEQ_clean_linker_1, # of connection points: 2
#     Edge 95, Type (0, 1), BuildingBlock: KIFKEQ_clean_linker_1, # of connection points: 2
#     Edge 96, Type (0, 1), BuildingBlock: KIFKEQ_clean_linker_1, # of connection points: 2
#     Edge 97, Type (0, 1), BuildingBlock: KIFKEQ_clean_linker_1, # of connection points: 2
#     Edge 98, Type (0, 1), BuildingBlock: KIFKEQ_clean_linker_1, # of connection points: 2
#     Edge 99, Type (0, 1), BuildingBlock: KIFKEQ_clean_linker_1, # of connection points: 2
#     Edge 100, Type (0, 1), BuildingBlock: KIFKEQ_clean_linker_1, # of connection points: 2
#     Edge 101, Type (0, 1), BuildingBlock: KIFKEQ_clean_linker_1, # of connection points: 2
#     Edge 102, Type (0, 1), BuildingBlock: KIFKEQ_clean_linker_1, # of connection points: 2
#     Edge 103, Type (0, 1), BuildingBlock: KIFKEQ_clean_linker_1, # of connection points: 2
#     Edge 104, Type (0, 1), BuildingBlock: KIFKEQ_clean_linker_1, # of connection points: 2
#     Edge 105, Type (0, 1), BuildingBlock: KIFKEQ_clean_linker_1, # of connection points: 2
#     Edge 106, Type (0, 1), BuildingBlock: KIFKEQ_clean_linker_1, # of connection points: 2
#     Edge 107, Type (0, 1), BuildingBlock: KIFKEQ_clean_linker_1, # of connection points: 2
#     Edge 108, Type (0, 1), BuildingBlock: KIFKEQ_clean_linker_1, # of connection points: 2
#     Edge 109, Type (0, 1), BuildingBlock: KIFKEQ_clean_linker_1, # of connection points: 2
#     Edge 110, Type (0, 1), BuildingBlock: KIFKEQ_clean_linker_1, # of connection points: 2
#     Edge 111, Type (0, 1), BuildingBlock: KIFKEQ_clean_linker_1, # of connection points: 2
#     Edge 112, Type (0, 1), BuildingBlock: KIFKEQ_clean_linker_1, # of connection points: 2
#     Edge 113, Type (0, 1), BuildingBlock: KIFKEQ_clean_linker_1, # of connection points: 2
#     Edge 114, Type (0, 1), BuildingBlock: KIFKEQ_clean_linker_1, # of connection points: 2
#     Edge 115, Type (0, 1), BuildingBlock: KIFKEQ_clean_linker_1, # of connection points: 2
#     Edge 116, Type (0, 1), BuildingBlock: KIFKEQ_clean_linker_1, # of connection points: 2
#     Edge 117, Type (0, 1), BuildingBlock: KIFKEQ_clean_linker_1, # of connection points: 2
#     Edge 118, Type (0, 1), BuildingBlock: KIFKEQ_clean_linker_1, # of connection points: 2
#     Edge 119, Type (0, 1), BuildingBlock: KIFKEQ_clean_linker_1, # of connection points: 2
#     Edge 120, Type (0, 1), BuildingBlock: KIFKEQ_clean_linker_1, # of connection points: 2
#     Edge 121, Type (0, 1), BuildingBlock: KIFKEQ_clean_linker_1, # of connection points: 2
#     Edge 122, Type (0, 1), BuildingBlock: KIFKEQ_clean_linker_1, # of connection points: 2
#     Edge 123, Type (0, 1), BuildingBlock: KIFKEQ_clean_linker_1, # of connection points: 2
# Relax obj value: 0.214
# Max RMSD: 0.314
# Mean RMSD: 0.271
data_MOF--net-tph--node1-IZENUY_clean_sbu_0--node2-TAGTUT_clean_sbu_1--edge1-KIFKEQ_clean_linker_1
_symmetry_space_group_name_H-M    P1
_symmetry_Int_Tables_number       1
_symmetry_cell_setting            triclinic
loop_
_symmetry_equiv_pos_as_xyz
'x, y, z'
_cell_length_a     47.844619
_cell_length_b     47.577347
_cell_length_c     47.205856
_cell_angle_alpha  90.211366
_cell_angle_beta   91.836501
_cell_angle_gamma 90.176578
loop_
_atom_site_label
_atom_site_type_symbol
_atom_site_fract_x
_atom_site_fract_y
_atom_site_fract_z
_atom_type_partial_charge
Fe0 Fe 0.21535 0.20077 0.13636 0.0
Fe1 Fe 0.16754 0.1982 0.17763 0.0
O2 O 0.19855 0.18408 0.16432 0.0
Fe3 Fe 0.21255 0.15294 0.1789 0.0
O4 O 0.20749 0.13497 0.14584 0.0
O5 O 0.22753 0.16738 0.12015 0.0
O6 O 0.185 0.19684 0.11364 0.0
C7 C 0.16216 0.20867 0.11787 0.0
C8 C 0.26105 0.18526 0.16766 0.0
O9 O 0.15495 0.21385 0.14312 0.0
C10 C 0.19739 0.17768 0.227 0.0
O11 O 0.20503 0.23691 0.14738 0.0
O12 O 0.18538 0.23002 0.18825 0.0
O13 O 0.24942 0.16163 0.17157 0.0
O14 O 0.24706 0.20546 0.15761 0.0
C15 C 0.15409 0.14312 0.17817 0.0
O16 O 0.17466 0.18538 0.21449 0.0
O17 O 0.21773 0.16963 0.21282 0.0
C18 C 0.19646 0.24626 0.1709 0.0
O19 O 0.1482 0.16677 0.16772 0.0
O20 O 0.17835 0.13832 0.18864 0.0
C21 C 0.21712 0.1429 0.1228 0.0
Fe22 Fe 0.454 0.57963 0.11098 0.0
Fe23 Fe 0.44285 0.61757 0.05944 0.0
O24 O 0.43443 0.58782 0.07968 0.0
Fe25 Fe 0.4054 0.56662 0.06901 0.0
O26 O 0.38763 0.57612 0.10071 0.0
O27 O 0.42295 0.56644 0.13016 0.0
O28 O 0.44643 0.61285 0.12664 0.0
C29 C 0.45005 0.63673 0.11624 0.0
C30 C 0.44445 0.52653 0.09234 0.0
O31 O 0.45452 0.63976 0.09006 0.0
C32 C 0.42732 0.57521 0.01798 0.0
O33 O 0.48801 0.59273 0.09748 0.0
O34 O 0.47769 0.6049 0.05343 0.0
O35 O 0.41955 0.53377 0.08542 0.0
O36 O 0.46273 0.54509 0.09759 0.0
C37 C 0.38674 0.62163 0.05424 0.0
O38 O 0.43193 0.60072 0.02523 0.0
O39 O 0.42192 0.55693 0.03642 0.0
C40 C 0.49561 0.59938 0.0727 0.0
O41 O 0.40882 0.63241 0.06439 0.0
O42 O 0.38531 0.5952 0.05061 0.0
C43 C 0.39727 0.57278 0.12562 0.0
Fe44 Fe 0.82772 0.31089 0.1596 0.0
Fe45 Fe 0.86689 0.30213 0.21099 0.0
O46 O 0.84035 0.32168 0.19334 0.0
Fe47 Fe 0.82635 0.35192 0.20914 0.0
O48 O 0.83698 0.37396 0.18023 0.0
O49 O 0.81864 0.34647 0.14723 0.0
O50 O 0.86147 0.31653 0.14533 0.0
C51 C 0.88339 0.30439 0.15405 0.0
C52 C 0.77898 0.3246 0.18292 0.0
O53 O 0.88437 0.29196 0.17788 0.0
C54 C 0.83014 0.31712 0.25464 0.0
O55 O 0.83445 0.27316 0.16531 0.0
O56 O 0.84529 0.27091 0.21066 0.0
O57 O 0.79073 0.34668 0.19303 0.0
O58 O 0.79332 0.3051 0.17272 0.0
C59 C 0.88457 0.35528 0.22317 0.0
O60 O 0.8542 0.30937 0.24708 0.0
O61 O 0.81468 0.3317 0.23852 0.0
C62 C 0.8363 0.2593 0.18815 0.0
O63 O 0.88996 0.33195 0.21215 0.0
O64 O 0.85957 0.3623 0.22813 0.0
C65 C 0.82783 0.37032 0.15516 0.0
Fe66 Fe 0.56288 0.93677 0.11416 0.0
Fe67 Fe 0.56996 0.90226 0.05978 0.0
O68 O 0.58156 0.9297 0.08302 0.0
Fe69 Fe 0.61225 0.94925 0.07626 0.0
O70 O 0.6284 0.93915 0.10977 0.0
O71 O 0.59311 0.94927 0.13597 0.0
O72 O 0.57059 0.90199 0.12744 0.0
C73 C 0.56508 0.8793 0.11446 0.0
C74 C 0.57326 0.99032 0.09658 0.0
O75 O 0.55755 0.87944 0.08841 0.0
C76 C 0.5904 0.94435 0.02199 0.0
O77 O 0.52875 0.92501 0.09919 0.0
O78 O 0.53566 0.91813 0.05409 0.0
O79 O 0.59799 0.98267 0.09064 0.0
O80 O 0.55483 0.9722 0.10235 0.0
C81 C 0.62697 0.89303 0.06209 0.0
O82 O 0.58144 0.91979 0.0272 0.0
O83 O 0.59895 0.96037 0.04179 0.0
C84 C 0.5191 0.921 0.07418 0.0
O85 O 0.60248 0.88386 0.06412 0.0
O86 O 0.63179 0.91929 0.06119 0.0
C87 C 0.61854 0.94283 0.13381 0.0
Fe88 Fe 0.19271 0.85793 0.31665 0.0
Fe89 Fe 0.20417 0.81203 0.36003 0.0
O90 O 0.18382 0.82532 0.33131 0.0
Fe91 Fe 0.155 0.80596 0.31739 0.0
O92 O 0.13103 0.83418 0.32443 0.0
O93 O 0.15619 0.8676 0.30588 0.0
O94 O 0.18719 0.87555 0.34984 0.0
C95 C 0.20257 0.87097 0.3714 0.0
C96 C 0.17982 0.82976 0.26841 0.0
O97 O 0.21456 0.84727 0.37437 0.0
C98 C 0.19039 0.76274 0.32783 0.0
O99 O 0.23102 0.85393 0.32414 0.0
O100 O 0.23466 0.81015 0.33848 0.0
O101 O 0.15925 0.81795 0.28011 0.0
O102 O 0.19862 0.84192 0.28305 0.0
C103 C 0.1522 0.8 0.37754 0.0
O104 O 0.19755 0.77435 0.35127 0.0
O105 O 0.17707 0.77651 0.30918 0.0
C106 C 0.24533 0.83158 0.32749 0.0
O107 O 0.17458 0.81339 0.38254 0.0
O108 O 0.14579 0.79116 0.35258 0.0
C109 C 0.1326 0.85805 0.31314 0.0
Fe110 Fe 0.11294 0.56134 0.93862 0.0
Fe111 Fe 0.06674 0.5813 0.89698 0.0
O112 O 0.0854 0.58482 0.92981 0.0
Fe113 Fe 0.0769 0.61198 0.95378 0.0
O114 O 0.11169 0.6269 0.95265 0.0
O115 O 0.13368 0.58712 0.95998 0.0
O116 O 0.13232 0.5725 0.90856 0.0
C117 C 0.12366 0.57179 0.88308 0.0
C118 C 0.08981 0.56516 0.98984 0.0
O119 O 0.09759 0.56907 0.87707 0.0
C120 C 0.02419 0.59606 0.93618 0.0
O121 O 0.09743 0.53106 0.9191 0.0
O122 O 0.05582 0.54582 0.9052 0.0
O123 O 0.08648 0.59133 0.98578 0.0
O124 O 0.09517 0.54905 0.96951 0.0
C125 C 0.07292 0.63852 0.90025 0.0
O126 O 0.03266 0.59346 0.91094 0.0
O127 O 0.04159 0.59895 0.95663 0.0
C128 C 0.07233 0.52594 0.9112 0.0
O129 O 0.07666 0.61619 0.88657 0.0
O130 O 0.06638 0.63772 0.92607 0.0
C131 C 0.13337 0.61376 0.96046 0.0
Fe132 Fe 0.80856 0.65816 0.30467 0.0
Fe133 Fe 0.85563 0.70131 0.30034 0.0
O134 O 0.8268 0.68784 0.31824 0.0
Fe135 Fe 0.81683 0.70385 0.35014 0.0
O136 O 0.78276 0.71202 0.33529 0.0
O137 O 0.7742 0.66972 0.31788 0.0
O138 O 0.79968 0.67583 0.27177 0.0
C139 C 0.81777 0.68559 0.25562 0.0
C140 C 0.81071 0.64596 0.36101 0.0
O141 O 0.84228 0.6911 0.26495 0.0
C142 C 0.87314 0.70493 0.35759 0.0
O143 O 0.83991 0.64137 0.28977 0.0
O144 O 0.87418 0.66901 0.30503 0.0
O145 O 0.80402 0.67114 0.36633 0.0
O146 O 0.81668 0.63855 0.33638 0.0
C147 C 0.83337 0.75011 0.31583 0.0
O148 O 0.87468 0.71386 0.3325 0.0
O149 O 0.85036 0.69608 0.36673 0.0
C150 C 0.86545 0.64525 0.29705 0.0
O151 O 0.83823 0.73433 0.29517 0.0
O152 O 0.82826 0.73962 0.33986 0.0
C153 C 0.76564 0.69341 0.32681 0.0
Fe154 Fe 0.90197 0.95498 0.92897 0.0
Fe155 Fe 0.95322 0.94353 0.89371 0.0
O156 O 0.9314 0.93382 0.92176 0.0
Fe157 Fe 0.93792 0.90276 0.94146 0.0
O158 O 0.90345 0.88877 0.93218 0.0
O159 O 0.87978 0.92651 0.94223 0.0
O160 O 0.88701 0.9474 0.89397 0.0
C161 C 0.89934 0.95222 0.87128 0.0
C162 C 0.92114 0.94399 0.98281 0.0
O163 O 0.92491 0.95899 0.87162 0.0
C164 C 0.99201 0.92059 0.93459 0.0
O165 O 0.91804 0.98799 0.9168 0.0
O166 O 0.96183 0.97695 0.91049 0.0
O167 O 0.92629 0.91869 0.97532 0.0
O168 O 0.91548 0.96266 0.96444 0.0
C169 C 0.94694 0.88672 0.88433 0.0
O170 O 0.9853 0.92897 0.90991 0.0
O171 O 0.97346 0.91369 0.95175 0.0
C172 C 0.94328 0.99536 0.91367 0.0
O173 O 0.94563 0.91144 0.8751 0.0
O174 O 0.94986 0.88191 0.91077 0.0
C175 C 0.88054 0.90068 0.93626 0.0
Fe176 Fe 0.40563 0.45339 0.43165 0.0
Fe177 Fe 0.45396 0.4385 0.3933 0.0
O178 O 0.4337 0.43103 0.42312 0.0
Fe179 Fe 0.44052 0.40038 0.44336 0.0
O180 O 0.4058 0.38673 0.43493 0.0
O181 O 0.38307 0.4252 0.44542 0.0
O182 O 0.38863 0.44657 0.39749 0.0
C183 C 0.39951 0.45047 0.3739 0.0
C184 C 0.42547 0.44167 0.4849 0.0
O185 O 0.42543 0.45495 0.37228 0.0
C186 C 0.49399 0.41735 0.43402 0.0
O187 O 0.42287 0.48574 0.41881 0.0
O188 O 0.46511 0.47205 0.40798 0.0
O189 O 0.4293 0.41635 0.47707 0.0
O190 O 0.4208 0.46071 0.46673 0.0
C191 C 0.44588 0.38178 0.38714 0.0
O192 O 0.4863 0.42306 0.4087 0.0
O193 O 0.47605 0.41198 0.4524 0.0
C194 C 0.44805 0.49153 0.41297 0.0
O195 O 0.44329 0.40587 0.37656 0.0
O196 O 0.45229 0.37878 0.41323 0.0
C197 C 0.3832 0.39924 0.43935 0.0
Fe198 Fe 0.32657 0.81302 0.66078 0.0
Fe199 Fe 0.32388 0.85232 0.71182 0.0
O200 O 0.33921 0.8236 0.69456 0.0
Fe201 Fe 0.36735 0.8053 0.71099 0.0
O202 O 0.34721 0.77317 0.71114 0.0
O203 O 0.33482 0.77546 0.66603 0.0
O204 O 0.29264 0.80545 0.67394 0.0
C205 C 0.27738 0.82388 0.68463 0.0
C206 C 0.38219 0.80857 0.65373 0.0
O207 O 0.28812 0.84559 0.69657 0.0
C208 C 0.38233 0.85902 0.72336 0.0
O209 O 0.31587 0.84845 0.64933 0.0
O210 O 0.33218 0.87598 0.68343 0.0
O211 O 0.38411 0.79595 0.67736 0.0
O212 O 0.35981 0.82041 0.64598 0.0
C213 C 0.33181 0.81724 0.75638 0.0
O214 O 0.3572 0.8641 0.7299 0.0
O215 O 0.38869 0.83638 0.71144 0.0
C216 C 0.32338 0.87257 0.65822 0.0
O217 O 0.31441 0.83032 0.74097 0.0
O218 O 0.35598 0.81173 0.7476 0.0
C219 C 0.33759 0.76157 0.68884 0.0
Fe220 Fe 0.07281 0.40507 0.55835 0.0
Fe221 Fe 0.11563 0.45024 0.57882 0.0
O222 O 0.08313 0.43258 0.58204 0.0
Fe223 Fe 0.06135 0.44173 0.61048 0.0
O224 O 0.066 0.40716 0.62561 0.0
O225 O 0.05714 0.38341 0.58611 0.0
O226 O 0.10418 0.38544 0.56589 0.0
C227 C 0.12922 0.39339 0.56637 0.0
C228 C 0.02127 0.42606 0.5669 0.0
O229 O 0.13533 0.41935 0.56625 0.0
C230 C 0.07657 0.49383 0.59324 0.0
O231 O 0.08757 0.42201 0.52694 0.0
O232 O 0.10716 0.46139 0.54296 0.0
O233 O 0.02835 0.4309 0.5925 0.0
O234 O 0.03971 0.42168 0.54897 0.0
C235 C 0.11454 0.44512 0.63638 0.0
O236 O 0.10151 0.4846 0.59114 0.0
O237 O 0.05639 0.47696 0.59651 0.0
C238 C 0.0986 0.44592 0.52265 0.0
O239 O 0.12708 0.4396 0.61412 0.0
O240 O 0.08966 0.4538 0.63506 0.0
C241 C 0.06181 0.38411 0.61276 0.0
Fe242 Fe 0.95065 0.08408 0.61149 0.0
Fe243 Fe 0.9387 0.11824 0.55748 0.0
O244 O 0.93116 0.08946 0.57946 0.0
Fe245 Fe 0.90316 0.06668 0.56974 0.0
O246 O 0.88473 0.07653 0.60074 0.0
O247 O 0.92 0.07064 0.63126 0.0
O248 O 0.94069 0.11789 0.62466 0.0
C249 C 0.94289 0.14108 0.61243 0.0
C250 C 0.94371 0.02952 0.59563 0.0
O251 O 0.94968 0.14235 0.58674 0.0
C252 C 0.92474 0.07342 0.51837 0.0
O253 O 0.98447 0.09784 0.59733 0.0
O254 O 0.97366 0.10611 0.55251 0.0
O255 O 0.91871 0.03538 0.58772 0.0
O256 O 0.96115 0.04903 0.60068 0.0
C257 C 0.88247 0.12024 0.55228 0.0
O258 O 0.92851 0.09939 0.52413 0.0
O259 O 0.92024 0.05613 0.53792 0.0
C260 C 0.99187 0.10336 0.5721 0.0
O261 O 0.90425 0.13235 0.56144 0.0
O262 O 0.88198 0.09363 0.54995 0.0
C263 C 0.89387 0.07425 0.62595 0.0
Fe264 Fe 0.70867 0.70241 0.63773 0.0
Fe265 Fe 0.70944 0.65241 0.67824 0.0
O266 O 0.69379 0.68367 0.66569 0.0
Fe267 Fe 0.66303 0.69581 0.68101 0.0
O268 O 0.68011 0.72768 0.69217 0.0
O269 O 0.69757 0.73775 0.65096 0.0
O270 O 0.74111 0.70728 0.65786 0.0
C271 C 0.75609 0.6872 0.66665 0.0
C272 C 0.65397 0.70765 0.62234 0.0
O273 O 0.74548 0.66298 0.66987 0.0
C274 C 0.65159 0.6403 0.6795 0.0
O275 O 0.72137 0.67023 0.61948 0.0
O276 O 0.70361 0.63593 0.64449 0.0
O277 O 0.64843 0.71235 0.64806 0.0
O278 O 0.67745 0.69844 0.61587 0.0
C279 C 0.69555 0.67461 0.72813 0.0
O280 O 0.67636 0.63596 0.68873 0.0
O281 O 0.64446 0.66417 0.6705 0.0
C282 C 0.71207 0.64521 0.62145 0.0
O283 O 0.71547 0.66743 0.71291 0.0
O284 O 0.67214 0.68183 0.71683 0.0
C285 C 0.68887 0.74556 0.67505 0.0
Fe286 Fe 0.69248 0.35383 0.80727 0.0
Fe287 Fe 0.70044 0.3156 0.85852 0.0
O288 O 0.68152 0.3251 0.8274 0.0
Fe289 Fe 0.65176 0.30563 0.81608 0.0
O290 O 0.62953 0.3361 0.81932 0.0
O291 O 0.65651 0.36346 0.79448 0.0
O292 O 0.68765 0.37747 0.83633 0.0
C293 C 0.70178 0.37604 0.85919 0.0
C294 C 0.67871 0.31796 0.76484 0.0
O295 O 0.71134 0.35242 0.86776 0.0
C296 C 0.68621 0.26309 0.83219 0.0
O297 O 0.73038 0.34954 0.8163 0.0
O298 O 0.73166 0.30943 0.83907 0.0
O299 O 0.6564 0.31207 0.77754 0.0
O300 O 0.69805 0.33137 0.7774 0.0
C301 C 0.64825 0.30664 0.87647 0.0
O302 O 0.69311 0.27714 0.85441 0.0
O303 O 0.67255 0.27448 0.81211 0.0
C304 C 0.7437 0.32798 0.82494 0.0
O305 O 0.67018 0.3211 0.87968 0.0
O306 O 0.64195 0.29546 0.85255 0.0
C307 C 0.63277 0.3579 0.80466 0.0
Fe308 Fe 0.61117 0.06297 0.4406 0.0
Fe309 Fe 0.56539 0.07932 0.39673 0.0
O310 O 0.58273 0.08469 0.43002 0.0
Fe311 Fe 0.57195 0.11215 0.45253 0.0
O312 O 0.60597 0.12869 0.4518 0.0
O313 O 0.63027 0.09061 0.46115 0.0
O314 O 0.63091 0.07363 0.41047 0.0
C315 C 0.62302 0.07127 0.38485 0.0
C316 C 0.58714 0.06808 0.49126 0.0
O317 O 0.59723 0.06739 0.37832 0.0
C318 C 0.52077 0.09342 0.43364 0.0
O319 O 0.59739 0.03134 0.42198 0.0
O320 O 0.55552 0.0437 0.40604 0.0
O321 O 0.58164 0.09356 0.48558 0.0
O322 O 0.59336 0.05121 0.4718 0.0
C323 C 0.56908 0.13674 0.39816 0.0
O324 O 0.53047 0.09093 0.40891 0.0
O325 O 0.53713 0.09727 0.45479 0.0
C326 C 0.57282 0.02484 0.41323 0.0
O327 O 0.57451 0.11423 0.3854 0.0
O328 O 0.56108 0.13622 0.42352 0.0
C329 C 0.62817 0.1172 0.46096 0.0
Fe330 Fe 0.30615 0.15823 0.80383 0.0
Fe331 Fe 0.35595 0.19833 0.80338 0.0
O332 O 0.32484 0.18705 0.81871 0.0
Fe333 Fe 0.3129 0.2042 0.84918 0.0
O334 O 0.28052 0.21344 0.83127 0.0
O335 O 0.27142 0.17113 0.81458 0.0
O336 O 0.30066 0.17652 0.77056 0.0
C337 C 0.32062 0.18504 0.75597 0.0
C338 C 0.30415 0.1467 0.86019 0.0
O339 O 0.34485 0.18826 0.76718 0.0
C340 C 0.36851 0.20285 0.86184 0.0
O341 O 0.33766 0.13983 0.79116 0.0
O342 O 0.37193 0.16499 0.81026 0.0
O343 O 0.29773 0.17215 0.86469 0.0
O344 O 0.31112 0.13856 0.83605 0.0
C345 C 0.33464 0.24873 0.81567 0.0
O346 O 0.37299 0.21042 0.83674 0.0
O347 O 0.34446 0.19561 0.8689 0.0
C348 C 0.36264 0.14192 0.80095 0.0
O349 O 0.34139 0.2323 0.79615 0.0
O350 O 0.32659 0.23918 0.83919 0.0
C351 C 0.26315 0.19524 0.8225 0.0
C352 C 0.97355 0.27169 0.9711 0.0
C353 C 0.05462 0.26587 0.94366 0.0
C354 C 0.01872 0.32769 0.85289 0.0
Mg355 Mg 1.00165 0.23353 0.92731 0.0
O356 O 0.99059 0.26156 0.90237 0.0
Mg357 Mg 1.00006 0.30149 0.91288 0.0
Mg358 Mg 1.00425 0.2606 0.86291 0.0
O359 O 0.01694 0.26002 0.82348 0.0
Mg360 Mg 1.00472 0.2885 0.79916 0.0
Mg361 Mg 1.00865 0.21992 0.81255 0.0
C362 C 0.98729 0.19426 0.87415 0.0
C363 C 0.06052 0.22235 0.85864 0.0
O364 O 0.97926 0.29306 0.95569 0.0
O365 O 0.97884 0.24639 0.96361 0.0
O366 O 0.04183 0.28877 0.93715 0.0
O367 O 0.04427 0.2418 0.93759 0.0
O368 O 0.99133 0.19737 0.90099 0.0
O369 O 0.98815 0.21505 0.85671 0.0
C370 C 0.94819 0.29929 0.86535 0.0
O371 O 0.96163 0.28028 0.85204 0.0
O372 O 0.95816 0.31053 0.8884 0.0
O373 O 0.03095 0.22993 0.76972 0.0
O374 O 0.03174 0.27735 0.76625 0.0
O375 O 0.96775 0.23118 0.78839 0.0
C376 C 0.03803 0.25282 0.75725 0.0
O377 O 0.9641 0.27748 0.7814 0.0
O378 O 0.01281 0.32544 0.82619 0.0
C379 C 0.95503 0.25241 0.77759 0.0
O380 O 0.02006 0.30596 0.86907 0.0
O381 O 0.04799 0.24131 0.87301 0.0
O382 O 0.04943 0.21129 0.8362 0.0
C383 C 0.47702 0.77266 0.47317 0.0
C384 C 0.55785 0.76845 0.44485 0.0
C385 C 0.52249 0.82636 0.35344 0.0
Mg386 Mg 0.50603 0.73418 0.43004 0.0
O387 O 0.49277 0.76099 0.4047 0.0
Mg388 Mg 0.50175 0.8015 0.41395 0.0
Mg389 Mg 0.50585 0.75924 0.36504 0.0
O390 O 0.51835 0.75816 0.32561 0.0
Mg391 Mg 0.50699 0.78667 0.30086 0.0
Mg392 Mg 0.50996 0.718 0.31542 0.0
C393 C 0.49193 0.69279 0.37819 0.0
C394 C 0.56241 0.72124 0.36071 0.0
O395 O 0.48145 0.79374 0.45693 0.0
O396 O 0.4836 0.74741 0.46658 0.0
O397 O 0.54379 0.79056 0.43837 0.0
O398 O 0.54877 0.74391 0.43878 0.0
O399 O 0.49715 0.69697 0.40473 0.0
O400 O 0.49035 0.71316 0.36014 0.0
C401 C 0.44946 0.7975 0.36713 0.0
O402 O 0.4626 0.77795 0.35431 0.0
O403 O 0.45976 0.80969 0.38951 0.0
O404 O 0.53167 0.72704 0.27203 0.0
O405 O 0.53295 0.77432 0.26752 0.0
O406 O 0.46874 0.72991 0.29188 0.0
C407 C 0.53876 0.74955 0.25892 0.0
O408 O 0.46565 0.77627 0.28448 0.0
O409 O 0.51776 0.82393 0.32658 0.0
C410 C 0.45611 0.75129 0.28116 0.0
O411 O 0.52122 0.80502 0.37005 0.0
O412 O 0.55 0.74049 0.37483 0.0
O413 O 0.55107 0.70963 0.33866 0.0
C414 C 0.98103 0.75213 0.53447 0.0
C415 C 0.06449 0.75533 0.5609 0.0
C416 C 0.03367 0.69432 0.65177 0.0
Mg417 Mg 0.0144 0.7895 0.5777 0.0
O418 O 1.00241 0.76167 0.60216 0.0
Mg419 Mg 0.01015 0.72142 0.59181 0.0
Mg420 Mg 0.01621 0.76212 0.64235 0.0
O421 O 0.02947 0.76192 0.68236 0.0
Mg422 Mg 0.01874 0.73216 0.70538 0.0
Mg423 Mg 0.02029 0.80144 0.69364 0.0
C424 C 0.9997 0.82895 0.63043 0.0
C425 C 0.0719 0.80114 0.65054 0.0
O426 O 0.98632 0.73066 0.55009 0.0
O427 O 0.98939 0.77705 0.5409 0.0
O428 O 0.05055 0.73329 0.56739 0.0
O429 O 0.05655 0.7799 0.56788 0.0
O430 O 1.00459 0.82575 0.604 0.0
O431 O 0.99984 0.80795 0.64791 0.0
C432 C 0.95997 0.72336 0.63752 0.0
O433 O 0.97362 0.74246 0.65137 0.0
O434 O 0.96956 0.71216 0.61506 0.0
O435 O 0.04224 0.79062 0.73826 0.0
O436 O 0.04513 0.74325 0.7406 0.0
O437 O 0.97938 0.78811 0.71418 0.0
C438 C 0.05003 0.76777 0.75086 0.0
O439 O 0.97775 0.74156 0.72096 0.0
O440 O 0.02911 0.69593 0.67846 0.0
C441 C 0.96747 0.76616 0.72385 0.0
O442 O 0.03226 0.71631 0.63585 0.0
O443 O 0.05945 0.78234 0.63496 0.0
O444 O 0.06099 0.81134 0.67279 0.0
C445 C 0.97882 0.04454 0.2353 0.0
C446 C 0.95824 0.95947 0.24993 0.0
C447 C 0.8637 0.98485 0.18433 0.0
Mg448 Mg 0.94044 0.01454 0.27718 0.0
O449 O 0.91361 0.01999 0.24858 0.0
Mg450 Mg 0.92289 0.00831 0.20914 0.0
Mg451 Mg 0.87555 1.00301 0.25092 0.0
O452 O 0.8372 0.98746 0.25276 0.0
Mg453 Mg 0.81078 0.99561 0.22407 0.0
Mg454 Mg 0.82773 0.99587 0.29301 0.0
C455 C 0.88836 0.02464 0.31663 0.0
C456 C 0.87697 0.94902 0.29256 0.0
O457 O 0.96316 0.035 0.21484 0.0
O458 O 0.97385 0.04004 0.26142 0.0
O459 O 0.95001 0.96909 0.22558 0.0
O460 O 0.95337 0.9724 0.2729 0.0
O461 O 0.91486 0.02364 0.31315 0.0
O462 O 0.87026 0.02101 0.29608 0.0
C463 C 0.87331 0.05599 0.20825 0.0
O464 O 0.86178 0.04298 0.22859 0.0
O465 O 0.89596 0.0471 0.19728 0.0
O466 O 0.78623 0.96906 0.28343 0.0
O467 O 0.78317 0.96317 0.23586 0.0
O468 O 0.80055 0.03421 0.28225 0.0
C469 C 0.77455 0.95834 0.26078 0.0
O470 O 0.7864 0.03241 0.23667 0.0
O471 O 0.8373 0.98965 0.18662 0.0
C472 C 0.78508 0.04304 0.2616 0.0
O473 O 0.88051 0.9845 0.20624 0.0
O474 O 0.8894 0.962 0.27275 0.0
O475 O 0.85419 0.95793 0.3028 0.0
C476 C 0.27052 0.97596 0.976 0.0
C477 C 0.22092 0.95357 0.04223 0.0
C478 C 0.19119 0.86192 0.9807 0.0
Mg479 Mg 0.27829 0.9342 0.02609 0.0
O480 O 0.2635 0.90923 0.99946 0.0
Mg481 Mg 0.22767 0.91994 0.97912 0.0
Mg482 Mg 0.25429 0.87012 0.01113 0.0
O483 O 0.24516 0.83129 0.02143 0.0
Mg484 Mg 0.22835 0.80767 0.99433 0.0
Mg485 Mg 0.2806 0.81966 0.04145 0.0
C486 C 0.31658 0.88101 0.0416 0.0
C487 C 0.24702 0.86508 0.079 0.0
O488 O 0.24979 0.96106 0.9665 0.0
O489 O 0.28532 0.96905 0.99801 0.0
O490 O 0.21199 0.94615 0.01739 0.0
O491 O 0.24479 0.94584 0.05208 0.0
O492 O 0.3115 0.90749 0.0428 0.0
O493 O 0.29975 0.86356 0.02856 0.0
C494 C 0.26017 0.87167 0.94301 0.0
O495 O 0.26542 0.85844 0.96613 0.0
O496 O 0.24644 0.89482 0.9424 0.0
O497 O 0.25701 0.77687 0.05123 0.0
O498 O 0.21741 0.77664 0.02382 0.0
O499 O 0.29683 0.79626 0.00287 0.0
C500 C 0.23337 0.76585 0.04311 0.0
O501 O 0.26127 0.78595 0.97254 0.0
O502 O 0.19488 0.83534 0.97723 0.0
C503 C 0.28682 0.78327 0.98099 0.0
O504 O 0.20948 0.87727 0.99404 0.0
O505 O 0.24168 0.88005 0.05689 0.0
O506 O 0.26163 0.84261 0.07822 0.0
C507 C 0.03853 0.5345 0.26607 0.0
C508 C 0.06492 0.45156 0.26664 0.0
C509 C 0.15762 0.49082 0.32291 0.0
Mg510 Mg 0.07943 0.50091 0.22927 0.0
O511 O 0.10541 0.51483 0.25571 0.0
Mg512 Mg 0.09758 0.50852 0.29679 0.0
Mg513 Mg 0.14476 0.50102 0.25476 0.0
O514 O 0.18397 0.48854 0.25445 0.0
Mg515 Mg 0.20925 0.50201 0.28236 0.0
Mg516 Mg 0.1928 0.49376 0.21354 0.0
C517 C 0.1302 0.51155 0.18781 0.0
C518 C 0.14798 0.44289 0.21751 0.0
O519 O 0.05503 0.53025 0.28767 0.0
O520 O 0.04426 0.52627 0.241 0.0
O521 O 0.07285 0.46658 0.28806 0.0
O522 O 0.06969 0.45904 0.24136 0.0
O523 O 0.10422 0.50665 0.19204 0.0
O524 O 0.14852 0.51484 0.20822 0.0
C525 C 0.14381 0.55952 0.2914 0.0
O526 O 0.15603 0.54491 0.27253 0.0
O527 O 0.1218 0.55043 0.30338 0.0
O528 O 0.23478 0.4698 0.22479 0.0
O529 O 0.23879 0.47073 0.27272 0.0
O530 O 0.21771 0.53449 0.2213 0.0
C531 C 0.2468 0.46243 0.24844 0.0
O532 O 0.23027 0.53954 0.26704 0.0
O533 O 0.18361 0.49749 0.32059 0.0
C534 C 0.2317 0.54709 0.24111 0.0
O535 O 0.14116 0.48752 0.30108 0.0
O536 O 0.13427 0.4557 0.23674 0.0
O537 O 0.16954 0.45371 0.20665 0.0
C538 C 0.7733 0.54065 0.04055 0.0
C539 C 0.75814 0.55693 0.953 0.0
C540 C 0.82448 0.65131 0.97845 0.0
Mg541 Mg 0.73104 0.57813 0.00737 0.0
O542 O 0.75936 0.60459 0.00961 0.0
Mg543 Mg 0.79854 0.59355 0.0012 0.0
Mg544 Mg 0.7577 0.64298 0.99304 0.0
O545 O 0.75736 0.6817 0.9783 0.0
Mg546 Mg 0.78655 0.70544 0.99059 0.0
Mg547 Mg 0.71803 0.69363 0.98507 0.0
C548 C 0.69282 0.63276 0.01657 0.0
C549 C 0.71847 0.64556 0.93564 0.0
O550 O 0.79285 0.55453 0.02897 0.0
O551 O 0.74741 0.54678 0.03654 0.0
O552 O 0.78218 0.56599 0.96219 0.0
O553 O 0.7356 0.56187 0.9659 0.0
O554 O 0.6966 0.60602 0.01719 0.0
O555 O 0.71235 0.65003 0.00919 0.0
C556 C 0.79826 0.64303 0.04933 0.0
O557 O 0.77867 0.6555 0.03518 0.0
O558 O 0.80948 0.62026 0.04054 0.0
O559 O 0.73053 0.73569 0.95991 0.0
O560 O 0.77782 0.73586 0.95947 0.0
O561 O 0.72907 0.71874 0.02536 0.0
C562 C 0.75408 0.74624 0.95211 0.0
O563 O 0.77483 0.72833 0.02851 0.0
O564 O 0.8228 0.67763 0.98471 0.0
C565 C 0.74997 0.73132 0.03728 0.0
O566 O 0.80248 0.63554 0.97666 0.0
O567 O 0.73692 0.63126 0.94972 0.0
O568 O 0.70868 0.66874 0.94494 0.0
C569 C 0.26958 0.0427 0.54293 0.0
C570 C 0.25913 0.05573 0.45479 0.0
C571 C 0.32262 0.15159 0.47759 0.0
Mg572 Mg 0.22861 0.07869 0.50607 0.0
O573 O 0.25656 0.10552 0.5098 0.0
Mg574 Mg 0.29642 0.09474 0.50375 0.0
Mg575 Mg 0.25526 0.1437 0.4927 0.0
O576 O 0.25549 0.18231 0.47764 0.0
Mg577 Mg 0.28485 0.20527 0.4914 0.0
Mg578 Mg 0.21619 0.19444 0.48461 0.0
C579 C 0.18967 0.13323 0.51346 0.0
C580 C 0.21675 0.1468 0.43476 0.0
O581 O 0.2897 0.05678 0.53258 0.0
O582 O 0.24386 0.0481 0.53677 0.0
O583 O 0.28232 0.06526 0.46563 0.0
O584 O 0.23549 0.06139 0.46522 0.0
O585 O 0.19334 0.10646 0.51348 0.0
O586 O 0.20972 0.15071 0.50806 0.0
C587 C 0.29442 0.1458 0.54992 0.0
O588 O 0.27478 0.15706 0.53491 0.0
O589 O 0.3064 0.12306 0.54225 0.0
O590 O 0.22906 0.2368 0.46023 0.0
O591 O 0.27639 0.23747 0.46216 0.0
O592 O 0.22745 0.21878 0.52534 0.0
C593 C 0.25288 0.24778 0.45393 0.0
O594 O 0.27352 0.22588 0.53075 0.0
O595 O 0.32104 0.17804 0.48324 0.0
C596 C 0.24847 0.22971 0.53869 0.0
O597 O 0.30068 0.13569 0.47755 0.0
O598 O 0.23497 0.13212 0.44886 0.0
O599 O 0.20708 0.16997 0.44424 0.0
C600 C 0.47767 0.54293 0.73885 0.0
C601 C 0.4557 0.4581 0.74731 0.0
C602 C 0.3627 0.48532 0.68355 0.0
Mg603 Mg 0.43823 0.5106 0.77834 0.0
O604 O 0.41214 0.52012 0.74992 0.0
Mg605 Mg 0.4215 0.51016 0.71001 0.0
Mg606 Mg 0.37374 0.50372 0.75092 0.0
O607 O 0.3354 0.48824 0.75166 0.0
Mg608 Mg 0.30952 0.49605 0.7224 0.0
Mg609 Mg 0.32524 0.49604 0.79178 0.0
C610 C 0.38606 0.52333 0.81726 0.0
C611 C 0.37414 0.44893 0.7914 0.0
O612 O 0.46165 0.53593 0.71768 0.0
O613 O 0.47287 0.53584 0.76443 0.0
O614 O 0.44833 0.47057 0.72414 0.0
O615 O 0.44958 0.46797 0.77145 0.0
O616 O 0.41251 0.52061 0.81414 0.0
O617 O 0.36804 0.52085 0.7964 0.0
C618 C 0.37235 0.55801 0.70998 0.0
O619 O 0.36038 0.54446 0.72967 0.0
O620 O 0.39516 0.54938 0.69926 0.0
O621 O 0.28377 0.46938 0.78123 0.0
O622 O 0.28151 0.46392 0.73363 0.0
O623 O 0.29853 0.53459 0.7804 0.0
C624 C 0.27243 0.45887 0.75831 0.0
O625 O 0.2856 0.53323 0.7344 0.0
O626 O 0.33608 0.48883 0.68536 0.0
C627 C 0.28385 0.54379 0.75932 0.0
O628 O 0.37925 0.4866 0.70563 0.0
O629 O 0.38685 0.46208 0.77188 0.0
O630 O 0.35135 0.45786 0.80159 0.0
C631 C 0.77492 0.47348 0.47433 0.0
C632 C 0.72654 0.45502 0.54265 0.0
C633 C 0.69337 0.36156 0.48248 0.0
Mg634 Mg 0.78285 0.43292 0.52543 0.0
O635 O 0.76601 0.40792 0.50005 0.0
Mg636 Mg 0.73014 0.4191 0.48015 0.0
Mg637 Mg 0.75689 0.36899 0.51192 0.0
O638 O 0.74782 0.33004 0.52218 0.0
Mg639 Mg 0.73091 0.30709 0.49446 0.0
Mg640 Mg 0.78414 0.31811 0.54039 0.0
C641 C 0.82048 0.37895 0.53958 0.0
C642 C 0.75245 0.36332 0.58005 0.0
O643 O 0.7532 0.45935 0.466 0.0
O644 O 0.79024 0.46639 0.49591 0.0
O645 O 0.71647 0.44663 0.51852 0.0
O646 O 0.7507 0.44738 0.55187 0.0
O647 O 0.81611 0.40554 0.54119 0.0
O648 O 0.80275 0.36199 0.52721 0.0
C649 C 0.76061 0.36976 0.44352 0.0
O650 O 0.76697 0.3573 0.46678 0.0
O651 O 0.74654 0.39271 0.44301 0.0
O652 O 0.76082 0.27535 0.55087 0.0
O653 O 0.72132 0.27477 0.52324 0.0
O654 O 0.79873 0.29477 0.50104 0.0
C655 C 0.73729 0.26418 0.54267 0.0
O656 O 0.76301 0.2868 0.47027 0.0
O657 O 0.69725 0.33507 0.47858 0.0
C658 C 0.78842 0.28295 0.47863 0.0
O659 O 0.71151 0.37688 0.49612 0.0
O660 O 0.74594 0.37866 0.55846 0.0
O661 O 0.76704 0.34092 0.57802 0.0
C662 C 0.5385 0.03757 0.76869 0.0
C663 C 0.56384 0.95482 0.76462 0.0
C664 C 0.65626 0.98817 0.82512 0.0
Mg665 Mg 0.57989 0.00609 0.73055 0.0
O666 O 0.60555 0.01792 0.75842 0.0
Mg667 Mg 0.59678 0.00944 0.79885 0.0
Mg668 Mg 0.64471 1.00348 0.7575 0.0
O669 O 0.68353 0.99 0.75693 0.0
Mg670 Mg 0.70934 0.99834 0.78611 0.0
Mg671 Mg 0.69321 0.99724 0.71661 0.0
C672 C 0.63149 0.0192 0.69094 0.0
C673 C 0.64754 0.94689 0.71783 0.0
O674 O 0.55456 0.03197 0.79029 0.0
O675 O 0.54472 0.03092 0.74329 0.0
O676 O 0.57176 0.96842 0.78699 0.0
O677 O 0.56917 0.96365 0.73989 0.0
O678 O 0.60526 0.01484 0.69416 0.0
O679 O 0.6495 0.01964 0.71188 0.0
C680 C 0.64385 0.06 0.7972 0.0
O681 O 0.65633 0.0462 0.77788 0.0
O682 O 0.6214 0.05064 0.80815 0.0
O683 O 0.73475 0.97203 0.72672 0.0
O684 O 0.73716 0.96614 0.77423 0.0
O685 O 0.71876 0.03709 0.72793 0.0
C686 C 0.74597 0.96123 0.74935 0.0
O687 O 0.73243 0.03571 0.77376 0.0
O688 O 0.68277 0.99265 0.82345 0.0
C689 C 0.73367 0.04642 0.74896 0.0
O690 O 0.64 0.98771 0.8029 0.0
O691 O 0.6341 0.95944 0.73741 0.0
O692 O 0.66922 0.95765 0.70706 0.0
C693 C 0.48634 0.24605 0.03408 0.0
C694 C 0.56873 0.25526 0.06199 0.0
C695 C 0.53533 0.19315 0.15335 0.0
Mg696 Mg 0.51603 0.28655 0.07691 0.0
O697 O 0.50629 0.25858 0.10211 0.0
Mg698 Mg 0.51609 0.21859 0.09287 0.0
Mg699 Mg 0.51977 0.26049 0.14229 0.0
O700 O 0.53221 0.26157 0.18254 0.0
Mg701 Mg 0.51993 0.23253 0.20571 0.0
Mg702 Mg 0.52224 0.30123 0.19273 0.0
C703 C 0.4998 0.32636 0.12863 0.0
C704 C 0.57429 0.30123 0.15005 0.0
O705 O 0.4933 0.22553 0.05033 0.0
O706 O 0.49191 0.27173 0.04043 0.0
O707 O 0.55643 0.23237 0.06905 0.0
O708 O 0.55875 0.27935 0.06783 0.0
O709 O 0.50407 0.32273 0.10213 0.0
O710 O 0.502 0.30596 0.1467 0.0
C711 C 0.46491 0.21974 0.13761 0.0
O712 O 0.47781 0.2396 0.1511 0.0
O713 O 0.47515 0.20824 0.11557 0.0
O714 O 0.54386 0.29125 0.23779 0.0
O715 O 0.54618 0.24384 0.24086 0.0
O716 O 0.48141 0.28883 0.21331 0.0
C717 C 0.5513 0.26847 0.25077 0.0
O718 O 0.47905 0.2426 0.22106 0.0
O719 O 0.52868 0.19548 0.17947 0.0
C720 C 0.46917 0.26739 0.22354 0.0
O721 O 0.5372 0.21499 0.13737 0.0
O722 O 0.56252 0.28194 0.13457 0.0
O723 O 0.56284 0.31113 0.17211 0.0
H724 H 0.08005 0.37765 0.66735 0.0
H725 H 0.04591 0.3308 0.59557 0.0
H726 H 0.08139 0.33526 0.69535 0.0
H727 H 0.04746 0.2877 0.62398 0.0
H728 H 0.01034 0.24426 0.70753 0.0
H729 H 0.02139 0.27081 0.66534 0.0
H730 H 0.10334 0.28954 0.70178 0.0
H731 H 0.09161 0.2639 0.74445 0.0
C732 C 0.0729 0.35823 0.65746 0.0
C733 C 0.06246 0.35774 0.62933 0.0
C734 C 0.07415 0.33371 0.67342 0.0
C735 C 0.06494 0.30792 0.66179 0.0
C736 C 0.05483 0.30722 0.63348 0.0
C737 C 0.05381 0.3319 0.6173 0.0
C738 C 0.03137 0.25247 0.70568 0.0
C739 C 0.05012 0.25226 0.72918 0.0
C740 C 0.03765 0.26795 0.68156 0.0
C741 C 0.06287 0.28314 0.68071 0.0
C742 C 0.08342 0.27869 0.70222 0.0
C743 C 0.07696 0.26358 0.72646 0.0
H744 H 0.63646 0.67953 0.57544 0.0
H745 H 0.63436 0.761 0.61549 0.0
H746 H 0.61708 0.6994 0.53172 0.0
H747 H 0.6164 0.78167 0.57111 0.0
H748 H 0.55672 0.79945 0.49295 0.0
H749 H 0.57954 0.7865 0.53773 0.0
H750 H 0.63047 0.72655 0.49374 0.0
H751 H 0.60611 0.73836 0.44927 0.0
C752 C 0.63132 0.7017 0.57489 0.0
C753 C 0.63635 0.71866 0.59884 0.0
C754 C 0.62085 0.71332 0.54964 0.0
C755 C 0.61588 0.74241 0.54741 0.0
C756 C 0.61988 0.75921 0.5719 0.0
C757 C 0.6299 0.74739 0.59744 0.0
C758 C 0.57366 0.78438 0.4927 0.0
C759 C 0.57961 0.76983 0.46764 0.0
C760 C 0.58661 0.77669 0.51853 0.0
C761 C 0.60617 0.75466 0.51968 0.0
C762 C 0.61462 0.74273 0.49394 0.0
C763 C 0.6012 0.74995 0.46827 0.0
H764 H 0.89553 0.14932 0.63996 0.0
H765 H 0.97448 0.18863 0.62277 0.0
H766 H 0.88702 0.18422 0.67657 0.0
H767 H 0.96653 0.22333 0.66021 0.0
H768 H 0.9203 0.20746 0.76902 0.0
H769 H 0.90979 0.1867 0.72285 0.0
H770 H 0.93989 0.26169 0.6823 0.0
H771 H 0.95037 0.2825 0.72869 0.0
C772 C 0.91074 0.16599 0.64362 0.0
C773 C 0.93575 0.1663 0.62881 0.0
C774 C 0.90593 0.18588 0.66465 0.0
C775 C 0.92624 0.2063 0.67169 0.0
C776 C 0.95029 0.20803 0.65517 0.0
C777 C 0.95497 0.18818 0.63377 0.0
C778 C 0.92326 0.22012 0.75031 0.0
C779 C 0.93652 0.24642 0.75259 0.0
C780 C 0.9174 0.20816 0.72369 0.0
C781 C 0.92473 0.22227 0.69881 0.0
C782 C 0.93454 0.25007 0.70107 0.0
C783 C 0.94008 0.26218 0.72775 0.0
H784 H 0.39228 0.84467 0.61153 0.0
H785 H 0.41954 0.76548 0.64712 0.0
H786 H 0.41906 0.83596 0.56986 0.0
H787 H 0.44753 0.75697 0.60531 0.0
H788 H 0.4524 0.7355 0.5089 0.0
H789 H 0.43557 0.74505 0.55624 0.0
H790 H 0.46333 0.83129 0.54974 0.0
H791 H 0.47896 0.82207 0.50219 0.0
C792 C 0.40468 0.82567 0.6107 0.0
C793 C 0.4036 0.80556 0.63231 0.0
C794 C 0.42022 0.82074 0.58686 0.0
C795 C 0.43524 0.79563 0.58411 0.0
C796 C 0.43577 0.77632 0.60666 0.0
C797 C 0.42009 0.7813 0.6307 0.0
C798 C 0.45478 0.7565 0.51762 0.0
C799 C 0.46641 0.77818 0.50162 0.0
C800 C 0.44552 0.76188 0.54487 0.0
C801 C 0.44806 0.78896 0.55674 0.0
C802 C 0.46059 0.81034 0.54102 0.0
C803 C 0.46943 0.80507 0.51371 0.0
H804 H 0.09881 0.64727 0.85097 0.0
H805 H 0.05204 0.69082 0.91433 0.0
H806 H 0.09906 0.68897 0.8222 0.0
H807 H 0.05274 0.73359 0.88529 0.0
H808 H 0.01939 0.77318 0.79726 0.0
H809 H 0.02996 0.74797 0.84104 0.0
H810 H 0.11472 0.73544 0.81472 0.0
H811 H 0.10333 0.75924 0.77016 0.0
C812 C 0.08884 0.66597 0.85898 0.0
C813 C 0.07498 0.66551 0.88477 0.0
C814 C 0.08938 0.69021 0.84259 0.0
C815 C 0.0761 0.71493 0.85139 0.0
C816 C 0.06313 0.71492 0.8778 0.0
C817 C 0.06274 0.69046 0.89445 0.0
C818 C 0.04072 0.76646 0.80163 0.0
C819 C 0.06056 0.76808 0.7804 0.0
C820 C 0.04678 0.75177 0.82672 0.0
C821 C 0.07293 0.73874 0.83101 0.0
C822 C 0.09407 0.74442 0.81168 0.0
C823 C 0.08779 0.75856 0.78636 0.0
H824 H 0.89681 0.66859 0.39464 0.0
H825 H 0.89828 0.7551 0.36777 0.0
H826 H 0.92669 0.68041 0.43576 0.0
H827 H 0.92652 0.76765 0.40994 0.0
H828 H 0.98925 0.77836 0.48423 0.0
H829 H 0.9681 0.7659 0.43804 0.0
H830 H 0.91743 0.70298 0.47831 0.0
H831 H 0.93974 0.7144 0.52378 0.0
C832 C 0.904 0.69007 0.39748 0.0
C833 C 0.89548 0.711 0.3784 0.0
C834 C 0.92072 0.69698 0.42114 0.0
C835 C 0.92831 0.72514 0.42661 0.0
C836 C 0.92118 0.74577 0.40637 0.0
C837 C 0.90504 0.73866 0.38224 0.0
C838 C 0.9734 0.76204 0.48303 0.0
C839 C 0.96606 0.74724 0.50735 0.0
C840 C 0.96134 0.75485 0.45664 0.0
C841 C 0.94142 0.73308 0.45435 0.0
C842 C 0.93341 0.71915 0.47906 0.0
C843 C 0.94586 0.72592 0.5052 0.0
H844 H 0.9504 0.89217 0.82753 0.0
H845 H 0.93834 0.82946 0.89208 0.0
H846 H 0.94433 0.85709 0.7912 0.0
H847 H 0.93181 0.79351 0.85473 0.0
H848 H 0.97027 0.74328 0.7762 0.0
H849 H 0.95882 0.76923 0.81869 0.0
H850 H 0.91053 0.82778 0.76754 0.0
H851 H 0.92367 0.80274 0.72484 0.0
C852 C 0.94629 0.87079 0.83408 0.0
C853 C 0.94495 0.86374 0.86292 0.0
C854 C 0.94233 0.85059 0.81301 0.0
C855 C 0.93676 0.82247 0.81984 0.0
C856 C 0.93581 0.81505 0.84871 0.0
C857 C 0.93976 0.83556 0.8701 0.0
C858 C 0.95591 0.76078 0.77412 0.0
C859 C 0.94827 0.77133 0.74714 0.0
C860 C 0.9495 0.77585 0.79861 0.0
C861 C 0.93477 0.80129 0.79644 0.0
C862 C 0.92289 0.80883 0.76983 0.0
C863 C 0.92993 0.79422 0.74533 0.0
H864 H 0.13484 0.74688 0.39108 0.0
H865 H 0.1366 0.83257 0.42099 0.0
H866 H 0.11854 0.73131 0.43718 0.0
H867 H 0.11894 0.81769 0.46621 0.0
H868 H 0.11045 0.78822 0.55294 0.0
H869 H 0.13282 0.79607 0.508 0.0
H870 H 0.08276 0.72941 0.46967 0.0
H871 H 0.06192 0.72053 0.51508 0.0
C872 C 0.13084 0.76244 0.40726 0.0
C873 C 0.1367 0.79093 0.40249 0.0
C874 C 0.12169 0.75357 0.43379 0.0
C875 C 0.11794 0.77309 0.45594 0.0
C876 C 0.12251 0.80177 0.45031 0.0
C877 C 0.1321 0.81048 0.42413 0.0
C878 C 0.10513 0.77453 0.53517 0.0
C879 C 0.08447 0.75376 0.53761 0.0
C880 C 0.11748 0.77938 0.50915 0.0
C881 C 0.10889 0.76413 0.48467 0.0
C882 C 0.08999 0.7417 0.48782 0.0
C883 C 0.07812 0.73643 0.51405 0.0
H884 H 0.67955 0.07214 0.39385 0.0
H885 H 0.61677 0.07041 0.32608 0.0
H886 H 0.71602 0.07172 0.35978 0.0
H887 H 0.65388 0.07089 0.29131 0.0
H888 H 0.73115 0.03307 0.24399 0.0
H889 H 0.68999 0.04332 0.27129 0.0
H890 H 0.74001 0.09745 0.32653 0.0
H891 H 0.78135 0.08574 0.30012 0.0
C892 C 0.67341 0.07196 0.37157 0.0
C893 C 0.64497 0.07124 0.3629 0.0
C894 C 0.69455 0.07207 0.35182 0.0
C895 C 0.68823 0.07176 0.32249 0.0
C896 C 0.65974 0.07107 0.31365 0.0
C897 C 0.63838 0.07083 0.3336 0.0
C898 C 0.73312 0.04814 0.26121 0.0
C899 C 0.75964 0.05859 0.26984 0.0
C900 C 0.70942 0.05386 0.27713 0.0
C901 C 0.71159 0.07055 0.30185 0.0
C902 C 0.73754 0.08364 0.30833 0.0
C903 C 0.76126 0.07746 0.2928 0.0
H904 H 0.26494 0.14352 0.90107 0.0
H905 H 0.33728 0.10164 0.86864 0.0
H906 H 0.25752 0.10383 0.93322 0.0
H907 H 0.33021 0.06252 0.90088 0.0
H908 H 0.31927 0.00622 0.97823 0.0
H909 H 0.32864 0.05095 0.9548 0.0
H910 H 0.24425 0.05156 0.91962 0.0
H911 H 0.23487 0.00685 0.94263 0.0
C912 C 0.27953 0.12614 0.9013 0.0
C913 C 0.30148 0.12535 0.88232 0.0
C914 C 0.27525 0.1035 0.91951 0.0
C915 C 0.29329 0.08022 0.91937 0.0
C916 C 0.31615 0.08031 0.90152 0.0
C917 C 0.32006 0.10256 0.88299 0.0
C918 C 0.30272 0.01596 0.96555 0.0
C919 C 0.27646 1.00288 0.96196 0.0
C920 C 0.30806 0.04152 0.95226 0.0
C921 C 0.28707 0.05467 0.93566 0.0
C922 C 0.26064 0.04198 0.93264 0.0
C923 C 0.25544 0.01623 0.94549 0.0
H924 H 0.36825 0.40542 0.36063 0.0
H925 H 0.39306 0.48592 0.3287 0.0
H926 H 0.3409 0.39616 0.31777 0.0
H927 H 0.36153 0.47958 0.2877 0.0
H928 H 0.29605 0.47604 0.22446 0.0
H929 H 0.3411 0.46513 0.24726 0.0
H930 H 0.29959 0.4049 0.30061 0.0
H931 H 0.25622 0.41428 0.27613 0.0
C932 C 0.36745 0.42126 0.34431 0.0
C933 C 0.38246 0.44632 0.34786 0.0
C934 C 0.3513 0.4163 0.31976 0.0
C935 C 0.34766 0.43743 0.29913 0.0
C936 C 0.36361 0.46241 0.30252 0.0
C937 C 0.38136 0.46647 0.32637 0.0
C938 C 0.29724 0.45912 0.23976 0.0
C939 C 0.27279 0.44632 0.24908 0.0
C940 C 0.32294 0.45342 0.25359 0.0
C941 C 0.32419 0.43545 0.27735 0.0
C942 C 0.30023 0.41926 0.28299 0.0
C943 C 0.27493 0.42447 0.26873 0.0
H944 H 0.73498 0.38534 0.90757 0.0
H945 H 0.69207 0.42847 0.83853 0.0
H946 H 0.75259 0.43071 0.92563 0.0
H947 H 0.7106 0.47276 0.85541 0.0
H948 H 0.71517 0.54849 0.91526 0.0
H949 H 0.70323 0.50454 0.89182 0.0
H950 H 0.78355 0.47034 0.91806 0.0
H951 H 0.79504 0.51455 0.94259 0.0
C952 C 0.7293 0.40436 0.89627 0.0
C953 C 0.71175 0.40312 0.87184 0.0
C954 C 0.73971 0.43034 0.90635 0.0
C955 C 0.733 0.45555 0.89202 0.0
C956 C 0.71582 0.45404 0.8674 0.0
C957 C 0.70517 0.42839 0.85767 0.0
C958 C 0.73069 0.53194 0.91521 0.0
C959 C 0.75603 0.53502 0.93074 0.0
C960 C 0.72383 0.50656 0.90181 0.0
C961 C 0.74223 0.48355 0.90336 0.0
C962 C 0.76862 0.48739 0.91694 0.0
C963 C 0.7755 0.51295 0.93044 0.0
H964 H 0.67191 0.92353 0.13574 0.0
H965 H 0.60789 0.9556 0.1896 0.0
H966 H 0.70389 0.91999 0.17616 0.0
H967 H 0.64028 0.9516 0.23079 0.0
H968 H 0.72682 0.98424 0.27443 0.0
H969 H 0.68299 0.97549 0.24818 0.0
H970 H 0.71504 0.89587 0.21948 0.0
H971 H 0.75937 0.90562 0.2445 0.0
C972 C 0.66454 0.92967 0.15631 0.0
C973 C 0.63738 0.9402 0.15928 0.0
C974 C 0.68283 0.92719 0.17972 0.0
C975 C 0.67463 0.93512 0.20696 0.0
C976 C 0.64727 0.94526 0.21014 0.0
C977 C 0.62876 0.9476 0.18655 0.0
C978 C 0.72383 0.9641 0.26395 0.0
C979 C 0.74652 0.94571 0.26124 0.0
C980 C 0.69873 0.95917 0.24859 0.0
C981 C 0.69591 0.93548 0.23078 0.0
C982 C 0.71691 0.9148 0.23222 0.0
C983 C 0.74213 0.92003 0.24708 0.0
H984 H 0.26062 0.10864 0.113 0.0
H985 H 0.17541 0.12644 0.08689 0.0
H986 H 0.25595 0.06129 0.09302 0.0
H987 H 0.17048 0.07902 0.06697 0.0
H988 H 0.18839 0.99403 0.01665 0.0
H989 H 0.18722 0.04317 0.03148 0.0
H990 H 0.22742 0.02108 0.11143 0.0
H991 H 0.22872 0.97201 0.09671 0.0
C992 C 0.24139 0.10285 0.10165 0.0
C993 C 0.2186 0.12125 0.10082 0.0
C994 C 0.23843 0.07557 0.09085 0.0
C995 C 0.21257 0.06625 0.07915 0.0
C996 C 0.19059 0.08557 0.07596 0.0
C997 C 0.19354 0.11282 0.08693 0.0
C998 C 0.19589 0.99938 0.03789 0.0
C999 C 0.20914 0.97909 0.05531 0.0
C1000 C 0.19556 0.02767 0.0462 0.0
C1001 C 0.20833 0.03606 0.07208 0.0
C1002 C 0.2184 0.01532 0.09087 0.0
C1003 C 0.21866 0.98712 0.08265 0.0
H1004 H 0.39185 0.5401 0.17354 0.0
H1005 H 0.35727 0.6121 0.1299 0.0
H1006 H 0.35312 0.54136 0.20643 0.0
H1007 H 0.31959 0.61437 0.16316 0.0
H1008 H 0.23586 0.57789 0.19287 0.0
H1009 H 0.27876 0.58849 0.16912 0.0
H1010 H 0.32697 0.56272 0.24348 0.0
H1011 H 0.28364 0.55141 0.26706 0.0
C1012 C 0.37641 0.55664 0.1715 0.0
C1013 C 0.37733 0.57572 0.14893 0.0
C1014 C 0.35421 0.5575 0.19038 0.0
C1015 C 0.33274 0.57772 0.18728 0.0
C1016 C 0.3351 0.59799 0.16586 0.0
C1017 C 0.35686 0.59681 0.14685 0.0
C1018 C 0.25554 0.57554 0.20462 0.0
C1019 C 0.25614 0.56378 0.2319 0.0
C1020 C 0.28036 0.58153 0.19091 0.0
C1021 C 0.30664 0.57603 0.20409 0.0
C1022 C 0.30722 0.5667 0.23239 0.0
C1023 C 0.28228 0.56078 0.24618 0.0
H1024 H 0.84627 0.42424 0.16381 0.0
H1025 H 0.79619 0.37261 0.10605 0.0
H1026 H 0.83284 0.46591 0.13669 0.0
H1027 H 0.78299 0.41427 0.07897 0.0
H1028 H 0.73959 0.49859 0.0598 0.0
H1029 H 0.75388 0.4573 0.08725 0.0
H1030 H 0.83948 0.48648 0.08881 0.0
H1031 H 0.82535 0.52771 0.06169 0.0
C1032 C 0.83265 0.42174 0.14519 0.0
C1033 C 0.82225 0.39513 0.13714 0.0
C1034 C 0.82499 0.44559 0.12967 0.0
C1035 C 0.80666 0.44331 0.10592 0.0
C1036 C 0.7968 0.41666 0.09746 0.0
C1037 C 0.80461 0.39279 0.11283 0.0
C1038 C 0.7614 0.49629 0.06618 0.0
C1039 C 0.78132 0.51639 0.05849 0.0
C1040 C 0.76961 0.47257 0.08168 0.0
C1041 C 0.79781 0.46867 0.09 0.0
C1042 C 0.81759 0.48904 0.08283 0.0
C1043 C 0.80946 0.51259 0.06717 0.0
H1044 H 0.37631 0.6751 0.06974 0.0
H1045 H 0.35299 0.61293 0.00633 0.0
H1046 H 0.35318 0.71131 0.04159 0.0
H1047 H 0.32923 0.64971 0.97794 0.0
H1048 H 0.26472 0.73162 0.9686 0.0
H1049 H 0.28772 0.68784 0.98246 0.0
H1050 H 0.36619 0.73212 0.99283 0.0
H1051 H 0.34322 0.77595 0.97936 0.0
C1052 C 0.36575 0.66907 0.04998 0.0
C1053 C 0.36664 0.64117 0.04022 0.0
C1054 C 0.35281 0.6899 0.03366 0.0
C1055 C 0.34024 0.68349 0.00713 0.0
C1056 C 0.33916 0.65526 0.99814 0.0
C1057 C 0.35242 0.6342 0.01454 0.0
C1058 C 0.28721 0.73178 0.97211 0.0
C1059 C 0.30209 0.75743 0.97336 0.0
C1060 C 0.30031 0.70664 0.98039 0.0
C1061 C 0.32849 0.70682 0.98964 0.0
C1062 C 0.34423 0.73157 0.98645 0.0
C1063 C 0.33118 0.75663 0.97831 0.0
H1064 H 0.3432 0.39216 0.47901 0.0
H1065 H 0.3641 0.36982 0.39386 0.0
H1066 H 0.30299 0.36058 0.47597 0.0
H1067 H 0.32213 0.34151 0.38883 0.0
H1068 H 0.27917 0.2581 0.40579 0.0
H1069 H 0.30628 0.29976 0.39859 0.0
H1070 H 0.26093 0.34239 0.46407 0.0
H1071 H 0.23538 0.29895 0.47259 0.0
C1072 C 0.33855 0.38111 0.4593 0.0
C1073 C 0.35677 0.38319 0.43674 0.0
C1074 C 0.3152 0.36315 0.45728 0.0
C1075 C 0.30895 0.34762 0.4322 0.0
C1076 C 0.32635 0.35179 0.40898 0.0
C1077 C 0.35033 0.36856 0.41156 0.0
C1078 C 0.27398 0.27685 0.41762 0.0
C1079 C 0.25522 0.27518 0.43975 0.0
C1080 C 0.28987 0.3011 0.41372 0.0
C1081 C 0.28694 0.32481 0.43144 0.0
C1082 C 0.26495 0.32441 0.45076 0.0
C1083 C 0.24946 0.29972 0.45507 0.0
H1084 H 0.62291 0.38357 0.75345 0.0
H1085 H 0.58473 0.36588 0.83294 0.0
H1086 H 0.57889 0.40232 0.73471 0.0
H1087 H 0.5414 0.38691 0.81552 0.0
H1088 H 0.45931 0.40936 0.77755 0.0
H1089 H 0.50188 0.38313 0.78869 0.0
H1090 H 0.54725 0.43707 0.73235 0.0
H1091 H 0.50414 0.46118 0.7196 0.0
C1092 C 0.6052 0.38426 0.76714 0.0
C1093 C 0.60729 0.37313 0.79463 0.0
C1094 C 0.57979 0.39516 0.75644 0.0
C1095 C 0.55592 0.39606 0.77327 0.0
C1096 C 0.55861 0.38584 0.80126 0.0
C1097 C 0.58374 0.37417 0.81158 0.0
C1098 C 0.47823 0.41465 0.7667 0.0
C1099 C 0.47832 0.437 0.74741 0.0
C1100 C 0.50295 0.40011 0.77358 0.0
C1101 C 0.5287 0.40832 0.76226 0.0
C1102 C 0.5282 0.42965 0.74155 0.0
C1103 C 0.50328 0.44352 0.73399 0.0
H1104 H 0.67614 0.10052 0.49031 0.0
H1105 H 0.62668 0.17383 0.46896 0.0
H1106 H 0.70673 0.12978 0.52128 0.0
H1107 H 0.65661 0.20236 0.49986 0.0
H1108 H 0.69122 0.24675 0.56925 0.0
H1109 H 0.66644 0.20413 0.55432 0.0
H1110 H 0.74044 0.17458 0.51381 0.0
H1111 H 0.76543 0.21704 0.5295 0.0
C1112 C 0.67188 0.12279 0.49202 0.0
C1113 C 0.64885 0.13478 0.47716 0.0
C1114 C 0.68926 0.13941 0.5099 0.0
C1115 C 0.68353 0.16811 0.51358 0.0
C1116 C 0.66104 0.1801 0.49812 0.0
C1117 C 0.64405 0.16375 0.4801 0.0
C1118 C 0.70278 0.23023 0.55901 0.0
C1119 C 0.73009 0.23524 0.55029 0.0
C1120 C 0.68847 0.20603 0.55 0.0
C1121 C 0.70128 0.1866 0.53209 0.0
C1122 C 0.73002 0.18931 0.52745 0.0
C1123 C 0.74444 0.21351 0.53673 0.0
H1124 H 0.86774 0.60251 0.25757 0.0
H1125 H 0.91112 0.63866 0.33067 0.0
H1126 H 0.9078 0.57127 0.25024 0.0
H1127 H 0.95077 0.60849 0.32318 0.0
H1128 H 0.01275 0.54077 0.31624 0.0
H1129 H 0.96733 0.56131 0.32442 0.0
H1130 H 0.95634 0.57814 0.23486 0.0
H1131 H 1.00163 0.55658 0.22646 0.0
C1132 C 0.88554 0.60334 0.27231 0.0
C1133 C 0.88654 0.62304 0.29452 0.0
C1134 C 0.90853 0.58576 0.26799 0.0
C1135 C 0.93251 0.58752 0.28606 0.0
C1136 C 0.93259 0.60627 0.30907 0.0
C1137 C 0.90992 0.62375 0.31324 0.0
C1138 C 1.00072 0.54888 0.29825 0.0
C1139 C 0.01105 0.54752 0.27076 0.0
C1140 C 0.97461 0.56055 0.30294 0.0
C1141 C 0.9583 0.57154 0.28032 0.0
C1142 C 0.96825 0.56955 0.25269 0.0
C1143 C 0.99434 0.55754 0.24793 0.0
H1144 H 0.12112 0.33702 0.56161 0.0
H1145 H 0.187 0.39878 0.57289 0.0
H1146 H 0.15499 0.29979 0.56368 0.0
H1147 H 0.22159 0.36064 0.57561 0.0
H1148 H 0.26899 0.28265 0.53488 0.0
H1149 H 0.243 0.32487 0.54659 0.0
H1150 H 0.18571 0.27448 0.59401 0.0
H1151 H 0.21091 0.23217 0.58082 0.0
C1152 C 0.14293 0.34277 0.56474 0.0
C1153 C 0.15118 0.37114 0.56699 0.0
C1154 C 0.1625 0.32116 0.56635 0.0
C1155 C 0.19117 0.32694 0.57046 0.0
C1156 C 0.19968 0.35533 0.57252 0.0
C1157 C 0.17988 0.37721 0.57088 0.0
C1158 C 0.2517 0.28076 0.54904 0.0
C1159 C 0.24193 0.25405 0.55688 0.0
C1160 C 0.23656 0.30505 0.55555 0.0
C1161 C 0.21159 0.30309 0.57042 0.0
C1162 C 0.20424 0.27673 0.58163 0.0
C1163 C 0.219 0.25246 0.57461 0.0
H1164 H 0.60696 0.62457 0.64644 0.0
H1165 H 0.64547 0.61378 0.72954 0.0
H1166 H 0.56577 0.59899 0.66129 0.0
H1167 H 0.6036 0.59018 0.74537 0.0
H1168 H 0.52968 0.5324 0.76082 0.0
H1169 H 0.57366 0.55213 0.74515 0.0
H1170 H 0.52746 0.6074 0.68809 0.0
H1171 H 0.48395 0.586 0.70238 0.0
C1172 C 0.60657 0.6164 0.66783 0.0
C1173 C 0.62921 0.62086 0.68683 0.0
C1174 C 0.58286 0.60217 0.67656 0.0
C1175 C 0.58094 0.59304 0.7048 0.0
C1176 C 0.60428 0.59657 0.72342 0.0
C1177 C 0.62832 0.61009 0.7144 0.0
C1178 C 0.52913 0.54901 0.74517 0.0
C1179 C 0.50364 0.55782 0.73277 0.0
C1180 C 0.55428 0.56034 0.73613 0.0
C1181 C 0.5543 0.58116 0.71499 0.0
C1182 C 0.52848 0.59076 0.70366 0.0
C1183 C 0.50347 0.57888 0.71213 0.0
H1184 H 0.39938 0.87287 0.7775 0.0
H1185 H 0.41937 0.88359 0.68984 0.0
H1186 H 0.4455 0.89166 0.79208 0.0
H1187 H 0.46461 0.90344 0.70397 0.0
H1188 H 0.55291 0.91052 0.7291 0.0
H1189 H 0.50787 0.88709 0.7221 0.0
H1190 H 0.47675 0.93086 0.79497 0.0
H1191 H 0.52228 0.95313 0.8027 0.0
C1192 C 0.41327 0.88029 0.76144 0.0
C1193 C 0.40583 0.87722 0.73259 0.0
C1194 C 0.43979 0.89078 0.76971 0.0
C1195 C 0.45921 0.89841 0.74921 0.0
C1196 C 0.45076 0.89688 0.7204 0.0
C1197 C 0.42457 0.8861 0.71223 0.0
C1198 C 0.53678 0.91425 0.74425 0.0
C1199 C 0.54116 0.93372 0.76636 0.0
C1200 C 0.51073 0.90128 0.73996 0.0
C1201 C 0.48821 0.90791 0.75731 0.0
C1202 C 0.49344 0.92532 0.78106 0.0
C1203 C 0.51972 0.93794 0.78565 0.0
H1204 H 0.54635 0.82681 0.09759 0.0
H1205 H 0.5872 0.87124 0.16746 0.0
H1206 H 0.54712 0.78356 0.12569 0.0
H1207 H 0.58757 0.82877 0.19531 0.0
H1208 H 0.59272 0.7576 0.24543 0.0
H1209 H 0.60543 0.78214 0.20242 0.0
H1210 H 0.52209 0.76802 0.16714 0.0
H1211 H 0.51012 0.74238 0.20956 0.0
C1212 C 0.55564 0.82732 0.11882 0.0
C1213 C 0.56628 0.85259 0.13046 0.0
C1214 C 0.55617 0.80254 0.13485 0.0
C1215 C 0.56764 0.80254 0.16268 0.0
C1216 C 0.57915 0.82767 0.17376 0.0
C1217 C 0.57849 0.85228 0.15791 0.0
C1218 C 0.57787 0.75801 0.22761 0.0
C1219 C 0.55049 0.74824 0.2307 0.0
C1220 C 0.5849 0.77255 0.20317 0.0
C1221 C 0.56439 0.77807 0.18187 0.0
C1222 C 0.53838 0.76436 0.18315 0.0
C1223 C 0.53153 0.7494 0.20742 0.0
H1224 H 0.10973 0.23374 0.11296 0.0
H1225 H 0.18234 0.21249 0.06506 0.0
H1226 H 0.08742 0.25312 0.06956 0.0
H1227 H 0.16096 0.23249 0.02308 0.0
H1228 H 0.09787 0.22941 0.94793 0.0
H1229 H 0.12458 0.2185 0.99101 0.0
H1230 H 0.08873 0.29027 0.03272 0.0
H1231 H 0.06139 0.30084 0.98931 0.0
C1232 C 0.12094 0.23328 0.09339 0.0
C1233 C 0.14755 0.22096 0.09254 0.0
C1234 C 0.10835 0.24465 0.06861 0.0
C1235 C 0.12233 0.24409 0.04271 0.0
C1236 C 0.14927 0.23272 0.04236 0.0
C1237 C 0.16154 0.22117 0.06669 0.0
C1238 C 0.09651 0.24349 0.96593 0.0
C1239 C 0.0777 0.26605 0.96516 0.0
C1240 C 0.11169 0.23717 0.99079 0.0
C1241 C 0.10851 0.25328 0.01556 0.0
C1242 C 0.09127 0.27716 0.01418 0.0
C1243 C 0.07612 0.2836 0.98911 0.0
H1244 H 0.42686 0.68942 0.10836 0.0
H1245 H 0.47059 0.63723 0.16978 0.0
H1246 H 0.41687 0.72358 0.14633 0.0
H1247 H 0.46048 0.67052 0.207 0.0
H1248 H 0.41912 0.70792 0.27383 0.0
H1249 H 0.412 0.68417 0.22834 0.0
H1250 H 0.44707 0.75545 0.18574 0.0
H1251 H 0.45353 0.77958 0.2311 0.0
C1252 C 0.43489 0.68563 0.12972 0.0
C1253 C 0.44941 0.66068 0.13621 0.0
C1254 C 0.42884 0.70488 0.15142 0.0
C1255 C 0.437 0.69907 0.17971 0.0
C1256 C 0.45304 0.67504 0.18558 0.0
C1257 C 0.45916 0.65616 0.16417 0.0
C1258 C 0.4236 0.71929 0.25465 0.0
C1259 C 0.43756 0.74527 0.25618 0.0
C1260 C 0.41983 0.70557 0.22859 0.0
C1261 C 0.42996 0.71765 0.20374 0.0
C1262 C 0.4393 0.7456 0.2046 0.0
C1263 C 0.44279 0.7595 0.23071 0.0
H1264 H 0.91645 0.25842 0.1446 0.0
H1265 H 0.89881 0.34286 0.11624 0.0
H1266 H 0.94364 0.25026 0.10215 0.0
H1267 H 0.92466 0.33468 0.07386 0.0
H1268 H 0.98045 0.31895 0.00301 0.0
H1269 H 0.96682 0.32659 0.05153 0.0
H1270 H 0.93042 0.24331 0.05293 0.0
H1271 H 0.94539 0.23519 0.00466 0.0
C1272 C 0.91911 0.27543 0.12972 0.0
C1273 C 0.90545 0.30115 0.13341 0.0
C1274 C 0.93427 0.27068 0.10526 0.0
C1275 C 0.93595 0.29166 0.08436 0.0
C1276 C 0.92409 0.31809 0.08947 0.0
C1277 C 0.90911 0.32277 0.11374 0.0
C1278 C 0.96939 0.30232 0.01361 0.0
C1279 C 0.9635 0.27666 0.99987 0.0
C1280 C 0.9617 0.30664 0.0415 0.0
C1281 C 0.94742 0.28562 0.05615 0.0
C1282 C 0.94182 0.25978 0.04248 0.0
C1283 C 0.94999 0.25527 0.01468 0.0
H1284 H 0.54943 0.18933 0.41263 0.0
H1285 H 0.59375 0.14497 0.34794 0.0
H1286 H 0.55147 0.23248 0.38433 0.0
H1287 H 0.59538 0.18719 0.31995 0.0
H1288 H 0.52034 0.27528 0.29677 0.0
H1289 H 0.5293 0.24874 0.34006 0.0
H1290 H 0.61387 0.23343 0.31463 0.0
H1291 H 0.60415 0.25877 0.27062 0.0
C1292 C 0.55977 0.18882 0.39256 0.0
C1293 C 0.57108 0.16358 0.38239 0.0
C1294 C 0.56098 0.21352 0.37638 0.0
C1295 C 0.57384 0.2135 0.34994 0.0
C1296 C 0.58589 0.18839 0.34044 0.0
C1297 C 0.58454 0.16389 0.35637 0.0
C1298 C 0.54138 0.26776 0.30131 0.0
C1299 C 0.56156 0.26897 0.28038 0.0
C1300 C 0.54647 0.25224 0.32609 0.0
C1301 C 0.57199 0.23801 0.33033 0.0
C1302 C 0.59367 0.24337 0.31155 0.0
C1303 C 0.58837 0.25841 0.28658 0.0
H1304 H 0.37096 0.17702 0.91271 0.0
H1305 H 0.4143 0.23737 0.8616 0.0
H1306 H 0.40289 0.18713 0.95248 0.0
H1307 H 0.44667 0.24734 0.90168 0.0
H1308 H 0.46468 0.28262 0.99439 0.0
H1309 H 0.44016 0.27056 0.94977 0.0
H1310 H 0.45292 0.18235 0.96698 0.0
H1311 H 0.47688 0.19409 0.01149 0.0
C1312 C 0.38759 0.19219 0.90992 0.0
C1313 C 0.39011 0.20658 0.88425 0.0
C1314 C 0.40595 0.19783 0.93259 0.0
C1315 C 0.42712 0.21804 0.93006 0.0
C1316 C 0.43032 0.23181 0.9041 0.0
C1317 C 0.412 0.22596 0.88121 0.0
C1318 C 0.46233 0.26068 0.98858 0.0
C1319 C 0.47227 0.23932 0.0067 0.0
C1320 C 0.44858 0.25382 0.96295 0.0
C1321 C 0.44464 0.22555 0.95514 0.0
C1322 C 0.45543 0.20429 0.97275 0.0
C1323 C 0.46907 0.21109 0.99828 0.0
H1324 H 0.4028 0.37419 0.35011 0.0
H1325 H 0.47852 0.33469 0.38113 0.0
H1326 H 0.39717 0.33875 0.31325 0.0
H1327 H 0.47414 0.29971 0.34294 0.0
H1328 H 0.43249 0.31073 0.22681 0.0
H1329 H 0.42028 0.33316 0.2708 0.0
H1330 H 0.45166 0.26138 0.31769 0.0
H1331 H 0.46443 0.23918 0.27334 0.0
C1332 C 0.41809 0.35763 0.34914 0.0
C1333 C 0.44119 0.35735 0.36819 0.0
C1334 C 0.41499 0.33734 0.32791 0.0
C1335 C 0.43545 0.31658 0.3246 0.0
C1336 C 0.45777 0.31519 0.3449 0.0
C1337 C 0.46047 0.3353 0.3667 0.0
C1338 C 0.43547 0.29911 0.24637 0.0
C1339 C 0.44977 0.2734 0.24655 0.0
C1340 C 0.42862 0.31205 0.27181 0.0
C1341 C 0.43573 0.29945 0.29803 0.0
C1342 C 0.44657 0.27201 0.29796 0.0
C1343 C 0.45334 0.25899 0.27241 0.0
H1344 H 0.63225 0.25336 0.89005 0.0
H1345 H 0.63603 0.33818 0.92236 0.0
H1346 H 0.61908 0.2364 0.93651 0.0
H1347 H 0.62099 0.32191 0.9682 0.0
H1348 H 0.56697 0.22122 0.01584 0.0
H1349 H 0.58611 0.23223 0.97026 0.0
H1350 H 0.63462 0.29978 0.00916 0.0
H1351 H 0.61355 0.28985 0.05438 0.0
C1352 C 0.62932 0.26848 0.90692 0.0
C1353 C 0.63483 0.29712 0.90256 0.0
C1354 C 0.62191 0.25878 0.9337 0.0
C1355 C 0.6193 0.2776 0.95665 0.0
C1356 C 0.62367 0.30646 0.95164 0.0
C1357 C 0.63174 0.31599 0.92513 0.0
C1358 C 0.58255 0.23774 0.01488 0.0
C1359 C 0.58874 0.25469 0.03874 0.0
C1360 C 0.59345 0.24429 0.98851 0.0
C1361 C 0.61136 0.26758 0.98546 0.0
C1362 C 0.61997 0.28246 0.01017 0.0
C1363 C 0.60847 0.27637 0.03637 0.0
H1364 H 0.11618 0.57103 0.82435 0.0
H1365 H 0.1802 0.57402 0.89095 0.0
H1366 H 0.15268 0.57201 0.78886 0.0
H1367 H 0.21595 0.57417 0.85624 0.0
H1368 H 0.2801 0.588 0.79603 0.0
H1369 H 0.23872 0.60033 0.82216 0.0
H1370 H 0.18899 0.54391 0.7691 0.0
H1371 H 0.23014 0.53299 0.74206 0.0
C1372 C 0.13792 0.57188 0.83146 0.0
C1373 C 0.14506 0.57238 0.86064 0.0
C1374 C 0.15889 0.57242 0.81111 0.0
C1375 C 0.18749 0.57358 0.81947 0.0
C1376 C 0.19435 0.57414 0.84866 0.0
C1377 C 0.17362 0.57367 0.86879 0.0
C1378 C 0.26004 0.57938 0.78905 0.0
C1379 C 0.25846 0.55968 0.76685 0.0
C1380 C 0.23632 0.58595 0.80441 0.0
C1381 C 0.2105 0.57236 0.79852 0.0
C1382 C 0.20834 0.55485 0.77442 0.0
C1383 C 0.23201 0.54875 0.75865 0.0
H1384 H 0.77292 0.6422 0.40312 0.0
H1385 H 0.84287 0.59968 0.36659 0.0
H1386 H 0.76516 0.60141 0.43368 0.0
H1387 H 0.83543 0.55936 0.39728 0.0
H1388 H 0.82492 0.50145 0.47427 0.0
H1389 H 0.83517 0.54593 0.45084 0.0
H1390 H 0.74981 0.55005 0.41869 0.0
H1391 H 0.73953 0.50552 0.44173 0.0
C1392 C 0.78697 0.62443 0.40214 0.0
C1393 C 0.80834 0.62387 0.38248 0.0
C1394 C 0.78245 0.60113 0.41941 0.0
C1395 C 0.79966 0.57732 0.41763 0.0
C1396 C 0.822 0.57753 0.39912 0.0
C1397 C 0.82615 0.6005 0.38153 0.0
C1398 C 0.80836 0.51184 0.46219 0.0
C1399 C 0.78149 0.49988 0.4596 0.0
C1400 C 0.81422 0.53727 0.44888 0.0
C1401 C 0.79319 0.55141 0.43324 0.0
C1402 C 0.76626 0.53969 0.43097 0.0
C1403 C 0.76051 0.51405 0.44384 0.0
H1404 H 0.88301 0.90347 0.8468 0.0
H1405 H 0.88237 0.99321 0.83488 0.0
H1406 H 0.85395 0.89722 0.80368 0.0
H1407 H 0.85196 0.98753 0.79276 0.0
H1408 H 0.79291 0.98065 0.72523 0.0
H1409 H 0.83949 0.97273 0.74619 0.0
H1410 H 0.80637 0.90487 0.79598 0.0
H1411 H 0.7606 0.91237 0.77435 0.0
C1412 C 0.87661 0.92182 0.8347 0.0
C1413 C 0.88414 0.94883 0.84413 0.0
C1414 C 0.86008 0.9183 0.81004 0.0
C1415 C 0.85018 0.94184 0.79481 0.0
C1416 C 0.85939 0.96882 0.80354 0.0
C1417 C 0.87643 0.97224 0.82791 0.0
C1418 C 0.79613 0.96284 0.7392 0.0
C1419 C 0.77325 0.94736 0.74862 0.0
C1420 C 0.82271 0.95865 0.7517 0.0
C1421 C 0.8265 0.93899 0.77373 0.0
C1422 C 0.80444 0.92039 0.77933 0.0
C1423 C 0.77803 0.92454 0.76681 0.0
H1424 H 0.25531 0.88188 0.39307 0.0
H1425 H 0.17255 0.91708 0.38472 0.0
H1426 H 0.27384 0.92762 0.40799 0.0
H1427 H 0.19028 0.96213 0.40172 0.0
H1428 H 0.22572 0.04658 0.40786 0.0
H1429 H 0.21453 1.00078 0.38718 0.0
H1430 H 0.27857 0.96292 0.4413 0.0
H1431 H 0.29095 0.00909 0.46009 0.0
C1432 C 0.24097 0.89924 0.39523 0.0
C1433 C 0.21255 0.896 0.38748 0.0
C1434 C 0.25156 0.92558 0.40375 0.0
C1435 C 0.2338 0.94911 0.40536 0.0
C1436 C 0.20498 0.94506 0.3996 0.0
C1437 C 0.1946 0.91901 0.39043 0.0
C1438 C 0.2382 0.02858 0.41426 0.0
C1439 C 0.25933 0.03141 0.43536 0.0
C1440 C 0.23137 1.00213 0.40299 0.0
C1441 C 0.24482 0.9777 0.41331 0.0
C1442 C 0.26761 0.98099 0.4327 0.0
C1443 C 0.27495 0.00761 0.44337 0.0
H1444 H 0.12938 0.48713 0.6732 0.0
H1445 H 0.13429 0.3976 0.66064 0.0
H1446 H 0.16209 0.48382 0.71377 0.0
H1447 H 0.16535 0.39355 0.70243 0.0
H1448 H 0.25728 0.41023 0.73267 0.0
H1449 H 0.21188 0.40278 0.71013 0.0
H1450 H 0.17854 0.47138 0.75899 0.0
H1451 H 0.22492 0.4794 0.78065 0.0
C1452 C 0.13682 0.46662 0.67984 0.0
C1453 C 0.1298 0.44268 0.66379 0.0
C1454 C 0.1554 0.46457 0.70329 0.0
C1455 C 0.1669 0.43838 0.71142 0.0
C1456 C 0.1577 0.41417 0.69651 0.0
C1457 C 0.13976 0.41638 0.67266 0.0
C1458 C 0.23988 0.42266 0.73977 0.0
C1459 C 0.24467 0.44547 0.75821 0.0
C1460 C 0.21363 0.41857 0.72664 0.0
C1461 C 0.19145 0.4371 0.73188 0.0
C1462 C 0.19529 0.45726 0.75366 0.0
C1463 C 0.22175 0.46144 0.76671 0.0
H1464 H 0.75831 0.61638 0.60766 0.0
H1465 H 0.6701 0.62445 0.58827 0.0
H1466 H 0.75745 0.56884 0.58772 0.0
H1467 H 0.66902 0.57687 0.56839 0.0
H1468 H 0.69012 0.49306 0.51834 0.0
H1469 H 0.68644 0.54246 0.53191 0.0
H1470 H 0.73503 0.52601 0.60861 0.0
H1471 H 0.73876 0.47675 0.59524 0.0
C1472 C 0.7391 0.60851 0.59771 0.0
C1473 C 0.71442 0.62419 0.59889 0.0
C1474 C 0.73839 0.58108 0.58693 0.0
C1475 C 0.71297 0.56888 0.5772 0.0
C1476 C 0.68886 0.58564 0.57581 0.0
C1477 C 0.68956 0.61301 0.58678 0.0
C1478 C 0.69913 0.49969 0.53863 0.0
C1479 C 0.71511 0.48091 0.5555 0.0
C1480 C 0.69731 0.52813 0.54619 0.0
C1481 C 0.71141 0.53829 0.57073 0.0
C1482 C 0.72483 0.51898 0.58902 0.0
C1483 C 0.72653 0.49062 0.58158 0.0
H1484 H 0.9017 0.0752 0.68478 0.0
H1485 H 0.83743 0.07334 0.61835 0.0
H1486 H 0.86515 0.07657 0.72034 0.0
H1487 H 0.80183 0.07404 0.65302 0.0
H1488 H 0.73744 0.08981 0.71149 0.0
H1489 H 0.77915 0.10225 0.6859 0.0
H1490 H 0.82872 0.04812 0.74079 0.0
H1491 H 0.78726 0.03713 0.76732 0.0
C1492 C 0.87994 0.075 0.67773 0.0
C1493 C 0.87271 0.07419 0.64859 0.0
C1494 C 0.85896 0.07585 0.69809 0.0
C1495 C 0.83034 0.07601 0.68969 0.0
C1496 C 0.82343 0.07494 0.66056 0.0
C1497 C 0.84412 0.07416 0.64048 0.0
C1498 C 0.7575 0.08174 0.71896 0.0
C1499 C 0.75896 0.06256 0.74146 0.0
C1500 C 0.78141 0.0884 0.70397 0.0
C1501 C 0.80727 0.07536 0.71052 0.0
C1502 C 0.80931 0.05856 0.73497 0.0
C1503 C 0.78544 0.05241 0.7504 0.0
H1504 H 0.29323 0.87478 0.60811 0.0
H1505 H 0.33883 0.92699 0.66901 0.0
H1506 H 0.27963 0.91656 0.58132 0.0
H1507 H 0.32494 0.9687 0.64229 0.0
H1508 H 0.3203 0.0313 0.56807 0.0
H1509 H 0.33368 0.99021 0.5957 0.0
H1510 H 0.24903 0.95867 0.58789 0.0
H1511 H 0.23552 0.99983 0.55981 0.0
C1512 C 0.30052 0.89512 0.61568 0.0
C1513 C 0.31711 0.89757 0.64071 0.0
C1514 C 0.29247 0.91904 0.60049 0.0
C1515 C 0.30103 0.94585 0.60987 0.0
C1516 C 0.31813 0.94827 0.63451 0.0
C1517 C 0.32604 0.92439 0.64981 0.0
C1518 C 0.30444 0.01572 0.57232 0.0
C1519 C 0.27683 0.01879 0.56165 0.0
C1520 C 0.31212 0.99224 0.58828 0.0
C1521 C 0.29244 0.97122 0.59382 0.0
C1522 C 0.2647 0.97445 0.58362 0.0
C1523 C 0.25692 0.9981 0.56778 0.0
H1524 H 0.85397 0.11149 0.50124 0.0
H1525 H 0.86567 0.17115 0.56975 0.0
H1526 H 0.83102 0.14831 0.47211 0.0
H1527 H 0.8434 0.20749 0.54083 0.0
H1528 H 0.84449 0.27321 0.47792 0.0
H1529 H 0.86497 0.22814 0.49135 0.0
H1530 H 0.78501 0.18761 0.47731 0.0
H1531 H 0.76437 0.23269 0.46378 0.0
C1532 C 0.85074 0.13209 0.5104 0.0
C1533 C 0.86154 0.13849 0.53779 0.0
C1534 C 0.83801 0.15319 0.49362 0.0
C1535 C 0.83627 0.18086 0.504 0.0
C1536 C 0.84513 0.18649 0.53208 0.0
C1537 C 0.85754 0.1656 0.54876 0.0
C1538 C 0.83162 0.25447 0.47599 0.0
C1539 C 0.80271 0.25672 0.47029 0.0
C1540 C 0.84327 0.22869 0.48404 0.0
C1541 C 0.82632 0.20465 0.48612 0.0
C1542 C 0.79847 0.20588 0.476 0.0
C1543 C 0.78676 0.23177 0.46791 0.0
H1544 H 0.84473 0.88841 0.97831 0.0
H1545 H 0.85795 0.87568 0.88939 0.0
H1546 H 0.80498 0.85613 0.97572 0.0
H1547 H 0.81689 0.84526 0.88578 0.0
H1548 H 0.77985 0.75769 0.9037 0.0
H1549 H 0.80558 0.80053 0.89626 0.0
H1550 H 0.7606 0.84087 0.96327 0.0
H1551 H 0.73599 0.79676 0.97157 0.0
C1552 C 0.83856 0.87916 0.95804 0.0
C1553 C 0.85449 0.88405 0.93416 0.0
C1554 C 0.81552 0.86085 0.95636 0.0
C1555 C 0.80751 0.84753 0.93053 0.0
C1556 C 0.82263 0.85421 0.90626 0.0
C1557 C 0.84611 0.87182 0.90819 0.0
C1558 C 0.77435 0.77618 0.91577 0.0
C1559 C 0.75593 0.77383 0.93819 0.0
C1560 C 0.78939 0.80097 0.91172 0.0
C1561 C 0.78609 0.82431 0.92977 0.0
C1562 C 0.76459 0.82314 0.94957 0.0
C1563 C 0.74975 0.79806 0.95383 0.0
H1564 H 0.07916 0.83942 0.32006 0.0
H1565 H 0.12559 0.90712 0.28272 0.0
H1566 H 0.03595 0.85841 0.30013 0.0
H1567 H 0.08185 0.92695 0.2636 0.0
H1568 H 1.00186 0.94793 0.21552 0.0
H1569 H 0.04398 0.92147 0.22925 0.0
H1570 H 1.00468 0.89534 0.30606 0.0
H1571 H 0.96275 0.92085 0.29184 0.0
C1572 C 0.08019 0.85865 0.30792 0.0
C1573 C 0.10605 0.87179 0.30324 0.0
C1574 C 0.05523 0.8696 0.29643 0.0
C1575 C 0.05516 0.89427 0.2801 0.0
C1576 C 0.081 0.90764 0.2756 0.0
C1577 C 0.10612 0.89651 0.28696 0.0
C1578 C 1.00185 0.93546 0.23467 0.0
C1579 C 0.97891 0.93637 0.25252 0.0
C1580 C 0.02624 0.9208 0.24291 0.0
C1581 C 0.02814 0.90666 0.26912 0.0
C1582 C 1.00421 0.90577 0.28571 0.0
C1583 C 0.97999 0.92035 0.2775 0.0
H1584 H 0.12597 0.62658 0.0151 0.0
H1585 H 0.18488 0.63511 0.94849 0.0
H1586 H 0.15602 0.65467 0.04673 0.0
H1587 H 0.21435 0.66524 0.97937 0.0
H1588 H 0.2648 0.71958 0.03442 0.0
H1589 H 0.24419 0.6745 0.01998 0.0
H1590 H 0.16413 0.70268 0.0491 0.0
H1591 H 0.18497 0.74694 0.06379 0.0
C1592 C 0.14567 0.63426 0.00742 0.0
C1593 C 0.15331 0.62869 0.97953 0.0
C1594 C 0.16281 0.65056 0.02545 0.0
C1595 C 0.18756 0.6626 0.01566 0.0
C1596 C 0.19571 0.65602 0.98791 0.0
C1597 C 0.17875 0.63907 0.97003 0.0
C1598 C 0.24325 0.71527 0.03941 0.0
C1599 C 0.22639 0.73669 0.05014 0.0
C1600 C 0.23124 0.6897 0.03048 0.0
C1601 C 0.20226 0.68518 0.03246 0.0
C1602 C 0.18648 0.70515 0.04712 0.0
C1603 C 0.19847 0.73061 0.05591 0.0
H1604 H 0.3674 0.10324 0.75792 0.0
H1605 H 0.40452 0.1303 0.83802 0.0
H1606 H 0.40816 0.07317 0.75017 0.0
H1607 H 0.44506 0.10143 0.83019 0.0
H1608 H 0.51071 0.03804 0.81805 0.0
H1609 H 0.46427 0.05608 0.82631 0.0
H1610 H 0.45665 0.08256 0.73891 0.0
H1611 H 0.5029 0.06335 0.73033 0.0
C1612 C 0.3839 0.10214 0.77413 0.0
C1613 C 0.38304 0.11911 0.79845 0.0
C1614 C 0.40735 0.0853 0.76959 0.0
C1615 C 0.43002 0.08513 0.78942 0.0
C1616 C 0.42798 0.10072 0.81457 0.0
C1617 C 0.40478 0.11743 0.81903 0.0
C1618 C 0.49921 0.0478 0.80059 0.0
C1619 C 0.5107 0.04974 0.77365 0.0
C1620 C 0.4725 0.05804 0.8053 0.0
C1621 C 0.45676 0.07091 0.78332 0.0
C1622 C 0.46803 0.0724 0.75621 0.0
C1623 C 0.49468 0.06177 0.75138 0.0
H1624 H 0.62101 0.83704 0.05282 0.0
H1625 H 0.68451 0.90027 0.06951 0.0
H1626 H 0.65596 0.80074 0.0552 0.0
H1627 H 0.72024 0.86304 0.07205 0.0
H1628 H 0.76987 0.7845 0.03173 0.0
H1629 H 0.74313 0.82682 0.04171 0.0
H1630 H 0.68581 0.7773 0.08988 0.0
H1631 H 0.7119 0.73493 0.07882 0.0
C1632 C 0.64253 0.84331 0.05706 0.0
C1633 C 0.64979 0.87177 0.06106 0.0
C1634 C 0.66266 0.82227 0.05878 0.0
C1635 C 0.69092 0.82875 0.06462 0.0
C1636 C 0.6986 0.85728 0.06778 0.0
C1637 C 0.67818 0.87861 0.06614 0.0
C1638 C 0.75243 0.78287 0.04573 0.0
C1639 C 0.74292 0.7563 0.05441 0.0
C1640 C 0.7369 0.80719 0.05122 0.0
C1641 C 0.71177 0.80536 0.06579 0.0
C1642 C 0.70459 0.77935 0.07782 0.0
C1643 C 0.71982 0.75506 0.07196 0.0
H1644 H 0.14467 0.11994 0.22917 0.0
H1645 H 0.11062 0.12631 0.14378 0.0
H1646 H 0.1023 0.09661 0.24376 0.0
H1647 H 0.06899 0.10069 0.15743 0.0
H1648 H 0.9852 0.0837 0.19432 0.0
H1649 H 0.0284 0.10619 0.18052 0.0
H1650 H 0.07415 0.05823 0.24449 0.0
H1651 H 0.03042 0.03786 0.25962 0.0
C1652 C 0.12836 0.1154 0.21333 0.0
C1653 C 0.13075 0.12472 0.18538 0.0
C1654 C 0.10401 0.10194 0.22162 0.0
C1655 C 0.08181 0.09682 0.20191 0.0
C1656 C 0.08508 0.10496 0.17351 0.0
C1657 C 0.10909 0.11924 0.16547 0.0
C1658 C 1.00455 0.0784 0.20559 0.0
C1659 C 1.0046 0.05938 0.22816 0.0
C1660 C 0.02945 0.09093 0.19746 0.0
C1661 C 0.05512 0.08393 0.21109 0.0
C1662 C 0.05493 0.06473 0.23375 0.0
C1663 C 0.02988 0.05292 0.24245 0.0
H1664 H 0.89855 0.3739 0.27681 0.0
H1665 H 0.92592 0.3733 0.19072 0.0
H1666 H 0.94432 0.39245 0.29298 0.0
H1667 H 0.9708 0.39294 0.20621 0.0
H1668 H 0.05678 0.40317 0.2364 0.0
H1669 H 0.01224 0.3788 0.2293 0.0
H1670 H 0.97636 0.43067 0.29407 0.0
H1671 H 0.02142 0.45376 0.30218 0.0
C1672 C 0.91408 0.37868 0.26131 0.0
C1673 C 0.90876 0.37254 0.23253 0.0
C1674 C 0.94038 0.38905 0.27052 0.0
C1675 C 0.96169 0.39356 0.25104 0.0
C1676 C 0.95547 0.38879 0.22206 0.0
C1677 C 0.92952 0.3781 0.21302 0.0
C1678 C 0.03969 0.40844 0.24995 0.0
C1679 C 0.0426 0.43036 0.2698 0.0
C1680 C 0.01393 0.39493 0.24552 0.0
C1681 C 0.99025 0.40353 0.26029 0.0
C1682 C 0.99396 0.42352 0.28215 0.0
C1683 C 0.01995 0.43664 0.287 0.0
H1684 H 0.24236 0.23202 0.86063 0.0
H1685 H 0.2168 0.16782 0.8002 0.0
H1686 H 0.19481 0.23623 0.87587 0.0
H1687 H 0.16842 0.17335 0.81411 0.0
H1688 H 0.08657 0.17197 0.85481 0.0
H1689 H 0.1364 0.16465 0.84881 0.0
H1690 H 0.1512 0.25321 0.86458 0.0
H1691 H 0.10169 0.25979 0.8724 0.0
C1692 C 0.22641 0.2192 0.85007 0.0
C1693 C 0.23338 0.19969 0.82897 0.0
C1694 C 0.19897 0.22166 0.85887 0.0
C1695 C 0.17748 0.20514 0.84641 0.0
C1696 C 0.18439 0.186 0.8248 0.0
C1697 C 0.21208 0.18307 0.81643 0.0
C1698 C 0.10076 0.18956 0.85808 0.0
C1699 C 0.09038 0.21641 0.86412 0.0
C1700 C 0.12927 0.18554 0.85404 0.0
C1701 C 0.14795 0.20845 0.85527 0.0
C1702 C 0.13769 0.23493 0.86353 0.0
C1703 C 0.10923 0.23878 0.86821 0.0
H1704 H 0.41695 0.53958 0.41877 0.0
H1705 H 0.49636 0.51019 0.38944 0.0
H1706 H 0.42816 0.58693 0.40303 0.0
H1707 H 0.50712 0.55719 0.37285 0.0
H1708 H 0.53002 0.65168 0.38387 0.0
H1709 H 0.5197 0.60208 0.38994 0.0
H1710 H 0.43384 0.61686 0.36288 0.0
H1711 H 0.4444 0.667 0.35762 0.0
C1712 C 0.43683 0.54318 0.40903 0.0
C1713 C 0.4558 0.52097 0.40567 0.0
C1714 C 0.4431 0.57033 0.39956 0.0
C1715 C 0.46848 0.57604 0.38632 0.0
C1716 C 0.48749 0.55381 0.38314 0.0
C1717 C 0.48131 0.52675 0.39275 0.0
C1718 C 0.50926 0.64405 0.37797 0.0
C1719 C 0.48812 0.66308 0.36987 0.0
C1720 C 0.50321 0.61556 0.38167 0.0
C1721 C 0.47575 0.60533 0.37747 0.0
C1722 C 0.45509 0.62404 0.36694 0.0
C1723 C 0.46123 0.65267 0.36323 0.0
H1724 H 0.7749 0.28067 0.82318 0.0
H1725 H 0.78202 0.37114 0.82433 0.0
H1726 H 0.82543 0.27659 0.8288 0.0
H1727 H 0.83306 0.36706 0.83003 0.0
H1728 H 0.91809 0.27572 0.82105 0.0
H1729 H 0.8701 0.2855 0.80574 0.0
H1730 H 0.86525 0.35011 0.86983 0.0
H1731 H 0.91362 0.34063 0.88503 0.0
C1732 C 0.78738 0.29972 0.82408 0.0
C1733 C 0.7745 0.32622 0.82334 0.0
C1734 C 0.81638 0.29739 0.8272 0.0
C1735 C 0.8333 0.3215 0.82998 0.0
C1736 C 0.82055 0.3481 0.82815 0.0
C1737 C 0.7914 0.35045 0.8246 0.0
C1738 C 0.90705 0.29233 0.83166 0.0
C1739 C 0.91977 0.30722 0.85447 0.0
C1740 C 0.87943 0.29784 0.82292 0.0
C1741 C 0.86377 0.31845 0.83668 0.0
C1742 C 0.87682 0.33425 0.85863 0.0
C1743 C 0.90449 0.32865 0.86749 0.0
H1744 H 0.52066 1.00075 0.40973 0.0
H1745 H 0.60839 0.98104 0.40425 0.0
H1746 H 0.50871 0.95176 0.39808 0.0
H1747 H 0.5963 0.93241 0.39194 0.0
H1748 H 0.55535 0.86514 0.32902 0.0
H1749 H 0.56789 0.91218 0.34617 0.0
H1750 H 0.51872 0.89924 0.42003 0.0
H1751 H 0.5066 0.85168 0.40314 0.0
C1752 C 0.53738 0.98596 0.40618 0.0
C1753 C 0.56548 0.99484 0.40785 0.0
C1754 C 0.53052 0.95792 0.39967 0.0
C1755 C 0.55158 0.93834 0.39408 0.0
C1756 C 0.57966 0.9471 0.3961 0.0
C1757 C 0.58655 0.97493 0.40323 0.0
C1758 C 0.54732 0.87224 0.34901 0.0
C1759 C 0.53013 0.85459 0.36482 0.0
C1760 C 0.55461 0.89911 0.35886 0.0
C1761 C 0.54435 0.90932 0.38445 0.0
C1762 C 0.52694 0.89185 0.40024 0.0
C1763 C 0.52018 0.86457 0.39068 0.0
H1764 H 0.25296 0.79773 0.63914 0.0
H1765 H 0.23378 0.8479 0.7124 0.0
H1766 H 0.20396 0.79606 0.625 0.0
H1767 H 0.18402 0.84487 0.69914 0.0
H1768 H 0.09782 0.85089 0.66224 0.0
H1769 H 0.14805 0.85888 0.66734 0.0
H1770 H 0.16262 0.77447 0.63686 0.0
H1771 H 0.1125 0.76726 0.63041 0.0
C1772 C 0.23814 0.80808 0.65254 0.0
C1773 C 0.24718 0.82266 0.67716 0.0
C1774 C 0.20993 0.80706 0.64439 0.0
C1775 C 0.18982 0.82011 0.66094 0.0
C1776 C 0.1989 0.83493 0.68554 0.0
C1777 C 0.22736 0.83645 0.6934 0.0
C1778 C 0.1119 0.83442 0.6558 0.0
C1779 C 0.10136 0.80842 0.64605 0.0
C1780 C 0.14067 0.83882 0.65915 0.0
C1781 C 0.15951 0.81712 0.65326 0.0
C1782 C 0.14888 0.7918 0.6415 0.0
C1783 C 0.12008 0.78762 0.63767 0.0
H1784 H 0.11406 0.53451 0.61107 0.0
H1785 H 0.0275 0.52296 0.58494 0.0
H1786 H 0.10459 0.5837 0.62264 0.0
H1787 H 0.01823 0.57241 0.59597 0.0
H1788 H 0.02154 0.6717 0.59839 0.0
H1789 H 0.03262 0.62429 0.58127 0.0
H1790 H 0.07407 0.60593 0.6615 0.0
H1791 H 0.06256 0.65274 0.67876 0.0
C1792 C 0.09313 0.54254 0.60728 0.0
C1793 C 0.07155 0.52463 0.5971 0.0
C1794 C 0.08767 0.57074 0.61407 0.0
C1795 C 0.06063 0.58202 0.6103 0.0
C1796 C 0.03931 0.56447 0.59897 0.0
C1797 C 0.04463 0.53609 0.59275 0.0
C1798 C 0.03318 0.65767 0.61228 0.0
C1799 C 0.04113 0.66618 0.63999 0.0
C1800 C 0.0394 0.63041 0.60252 0.0
C1801 C 0.05436 0.61132 0.61998 0.0
C1802 C 0.06276 0.62012 0.6474 0.0
C1803 C 0.05599 0.64696 0.65734 0.0
H1804 H 0.78511 0.73669 0.66745 0.0
H1805 H 0.7968 0.64668 0.66925 0.0
H1806 H 0.83536 0.7434 0.66441 0.0
H1807 H 0.84732 0.65349 0.66646 0.0
H1808 H 0.9287 0.74854 0.67802 0.0
H1809 H 0.88062 0.73801 0.68993 0.0
H1810 H 0.87851 0.67002 0.62903 0.0
H1811 H 0.92678 0.68018 0.61743 0.0
C1812 C 0.79844 0.71832 0.66759 0.0
C1813 C 0.78688 0.69113 0.66838 0.0
C1814 C 0.8273 0.72219 0.66603 0.0
C1815 C 0.84535 0.69898 0.66506 0.0
C1816 C 0.83392 0.67179 0.66686 0.0
C1817 C 0.805 0.6679 0.66866 0.0
C1818 C 0.9182 0.73103 0.6675 0.0
C1819 C 0.93165 0.71528 0.64667 0.0
C1820 C 0.89054 0.72513 0.6742 0.0
C1821 C 0.87567 0.70328 0.66032 0.0
C1822 C 0.88945 0.68683 0.64031 0.0
C1823 C 0.91708 0.6928 0.63351 0.0
H1824 H 0.90904 0.98741 0.61291 0.0
H1825 H 0.99566 0.00505 0.59758 0.0
H1826 H 0.92141 0.94051 0.62908 0.0
H1827 H 1.00811 0.95743 0.61175 0.0
H1828 H 0.03019 0.87437 0.64962 0.0
H1829 H 0.01613 0.92356 0.64489 0.0
H1830 H 0.9332 0.89639 0.61733 0.0
H1831 H 0.94708 0.8479 0.62411 0.0
C1832 C 0.93075 0.98106 0.61247 0.0
C1833 C 0.95129 1.00005 0.60367 0.0
C1834 C 0.93796 0.95391 0.62173 0.0
C1835 C 0.96594 0.94446 0.62186 0.0
C1836 C 0.98643 0.96361 0.61279 0.0
C1837 C 0.97926 0.991 0.60419 0.0
C1838 C 1.00858 0.87916 0.64406 0.0
C1839 C 0.9895 0.85726 0.63818 0.0
C1840 C 1.00058 0.90743 0.6405 0.0
C1841 C 0.97348 0.91459 0.63006 0.0
C1842 C 0.95409 0.89243 0.62576 0.0
C1843 C 0.96197 0.86432 0.62988 0.0
H1844 H 0.82978 0.22438 0.23297 0.0
H1845 H 0.83744 0.22436 0.14199 0.0
H1846 H 0.833 0.17337 0.23322 0.0
H1847 H 0.84055 0.17306 0.14227 0.0
H1848 H 0.89386 0.09299 0.1696 0.0
H1849 H 0.87838 0.14107 0.161 0.0
H1850 H 0.81022 0.12883 0.21751 0.0
H1851 H 0.8257 0.08093 0.22639 0.0
C1852 C 0.83163 0.21343 0.21296 0.0
C1853 C 0.83365 0.22838 0.18752 0.0
C1854 C 0.83328 0.18418 0.21307 0.0
C1855 C 0.83716 0.16925 0.18776 0.0
C1856 C 0.83779 0.18408 0.1621 0.0
C1857 C 0.83584 0.2134 0.16195 0.0
C1858 C 0.87525 0.10034 0.17977 0.0
C1859 C 0.86135 0.08325 0.19908 0.0
C1860 C 0.86629 0.12785 0.17469 0.0
C1861 C 0.84328 0.13877 0.18886 0.0
C1862 C 0.82827 0.12108 0.20664 0.0
C1863 C 0.83716 0.0936 0.21166 0.0
H1864 H 0.48319 0.90567 0.1151 0.0
H1865 H 0.48758 0.91499 0.0244 0.0
H1866 H 0.43615 0.88724 0.10955 0.0
H1867 H 0.43943 0.89788 0.01881 0.0
H1868 H 0.35674 0.8538 0.01203 0.0
H1869 H 0.4072 0.86002 0.02055 0.0
H1870 H 0.39107 0.90134 0.10009 0.0
H1871 H 0.3414 0.89405 0.09189 0.0
C1872 C 0.47392 0.90433 0.0939 0.0
C1873 C 0.48922 0.91228 0.07021 0.0
C1874 C 0.44673 0.89365 0.0907 0.0
C1875 C 0.43356 0.89103 0.06372 0.0
C1876 C 0.44885 0.89904 0.03994 0.0
C1877 C 0.47638 0.90931 0.04313 0.0
C1878 C 0.36422 0.86276 0.03201 0.0
C1879 C 0.34513 0.87314 0.05146 0.0
C1880 C 0.39314 0.86706 0.0366 0.0
C1881 C 0.4035 0.88185 0.06074 0.0
C1882 C 0.38432 0.88973 0.08133 0.0
C1883 C 0.35563 0.88534 0.07678 0.0
H1884 H 0.20479 0.27679 0.21903 0.0
H1885 H 0.17264 0.28242 0.13291 0.0
H1886 H 0.18607 0.32315 0.2293 0.0
H1887 H 0.15213 0.32796 0.14335 0.0
H1888 H 0.14861 0.42235 0.16446 0.0
H1889 H 0.15978 0.37455 0.15182 0.0
H1890 H 0.14592 0.34857 0.23802 0.0
H1891 H 0.13647 0.39744 0.25091 0.0
C1892 C 0.19408 0.2883 0.20217 0.0
C1893 C 0.19082 0.27643 0.175 0.0
C1894 C 0.18267 0.31459 0.20819 0.0
C1895 C 0.16699 0.3294 0.18738 0.0
C1896 C 0.1643 0.3176 0.15994 0.0
C1897 C 0.1763 0.29155 0.15378 0.0
C1898 C 0.14697 0.40622 0.1805 0.0
C1899 C 0.14196 0.41364 0.20873 0.0
C1900 C 0.1535 0.37863 0.17326 0.0
C1901 C 0.15472 0.35752 0.19402 0.0
C1902 C 0.14629 0.3644 0.22163 0.0
C1903 C 0.14009 0.39229 0.22896 0.0
H1904 H 0.53742 0.61997 0.10865 0.0
H1905 H 0.5211 0.59361 0.02225 0.0
H1906 H 0.5839 0.6362 0.09614 0.0
H1907 H 0.56784 0.60811 0.00988 0.0
H1908 H 0.6465 0.64875 0.98496 0.0
H1909 H 0.59826 0.64357 0.99983 0.0
H1910 H 0.62868 0.62561 0.0851 0.0
H1911 H 0.67625 0.63261 0.0703 0.0
C1912 C 0.54404 0.61697 0.08713 0.0
C1913 C 0.52553 0.60525 0.06655 0.0
C1914 C 0.5708 0.6264 0.07979 0.0
C1915 C 0.58008 0.62397 0.05172 0.0
C1916 C 0.56163 0.61138 0.03147 0.0
C1917 C 0.5348 0.6025 0.03869 0.0
C1918 C 0.64265 0.64532 0.00718 0.0
C1919 C 0.66521 0.64188 0.02658 0.0
C1920 C 0.61494 0.64144 0.01568 0.0
C1921 C 0.60907 0.63326 0.0437 0.0
C1922 C 0.63175 0.63202 0.06345 0.0
C1923 C 0.65928 0.63634 0.05502 0.0
H1924 H 0.81519 0.79666 0.34408 0.0
H1925 H 0.87677 0.76833 0.28555 0.0
H1926 H 0.83446 0.84421 0.34189 0.0
H1927 H 0.89721 0.81485 0.28482 0.0
H1928 H 0.87604 0.92533 0.34466 0.0
H1929 H 0.8712 0.87515 0.35352 0.0
H1930 H 0.88797 0.85826 0.26552 0.0
H1931 H 0.89446 0.90809 0.25745 0.0
C1932 C 0.83288 0.80065 0.33088 0.0
C1933 C 0.84392 0.77912 0.31438 0.0
C1934 C 0.8443 0.82772 0.32994 0.0
C1935 C 0.86749 0.83348 0.3131 0.0
C1936 C 0.87902 0.8115 0.29746 0.0
C1937 C 0.86718 0.78478 0.29782 0.0
C1938 C 0.87996 0.91063 0.32765 0.0
C1939 C 0.88524 0.92038 0.30031 0.0
C1940 C 0.87667 0.88196 0.33255 0.0
C1941 C 0.87805 0.86268 0.31001 0.0
C1942 C 0.88665 0.87236 0.28346 0.0
C1943 C 0.89055 0.90101 0.27876 0.0
H1944 H 0.01778 0.91213 0.98707 0.0
H1945 H 0.03472 0.91697 0.89785 0.0
H1946 H 0.06718 0.9009 0.99726 0.0
H1947 H 0.08353 0.90531 0.90807 0.0
H1948 H 0.15485 0.84318 0.9388 0.0
H1949 H 0.10745 0.85987 0.92782 0.0
H1950 H 0.11749 0.92433 0.99187 0.0
H1951 H 0.16524 0.90806 0.00251 0.0
C1952 C 0.03198 0.91097 0.96969 0.0
C1953 C 0.02217 0.91546 0.94166 0.0
C1954 C 0.06027 0.90466 0.97554 0.0
C1955 C 0.07919 0.90214 0.95343 0.0
C1956 C 0.06944 0.90695 0.92552 0.0
C1957 C 0.04143 0.91377 0.91974 0.0
C1958 C 0.14716 0.86121 0.95022 0.0
C1959 C 0.16393 0.87435 0.97142 0.0
C1960 C 0.11999 0.87074 0.94395 0.0
C1961 C 0.10869 0.89328 0.95914 0.0
C1962 C 0.12558 0.90678 0.97999 0.0
C1963 C 0.15302 0.89764 0.98584 0.0
H1964 H 0.19075 0.73337 0.27832 0.0
H1965 H 0.19094 0.72206 0.36902 0.0
H1966 H 0.1833 0.68313 0.27139 0.0
H1967 H 0.18355 0.67146 0.36208 0.0
H1968 H 0.18647 0.58835 0.26686 0.0
H1969 H 0.20308 0.63584 0.2776 0.0
H1970 H 0.1433 0.64272 0.34385 0.0
H1971 H 0.12679 0.59513 0.33334 0.0
C1972 C 0.18982 0.72002 0.29682 0.0
C1973 C 0.19142 0.73174 0.32422 0.0
C1974 C 0.18562 0.69115 0.29284 0.0
C1975 C 0.1826 0.67322 0.31617 0.0
C1976 C 0.18548 0.68473 0.34365 0.0
C1977 C 0.19004 0.71367 0.34765 0.0
C1978 C 0.17698 0.59984 0.28389 0.0
C1979 C 0.15507 0.58788 0.29905 0.0
C1980 C 0.18649 0.62715 0.28999 0.0
C1981 C 0.1745 0.64318 0.31154 0.0
C1982 C 0.15323 0.63089 0.32732 0.0
C1983 C 0.14359 0.60364 0.32111 0.0
H1984 H 0.97812 0.59514 0.89869 0.0
H1985 H 1.0008 0.60515 0.98748 0.0
H1986 H 0.92914 0.6053 0.90927 0.0
H1987 H 0.95249 0.61532 0.99773 0.0
H1988 H 0.87485 0.67232 0.99726 0.0
H1989 H 0.92154 0.65615 0.9866 0.0
H1990 H 0.88609 0.5877 0.93704 0.0
H1991 H 0.83879 0.60388 0.94804 0.0
C1992 C 0.97274 0.59919 0.92043 0.0
C1993 C 0.99372 0.59953 0.9421 0.0
C1994 C 0.94462 0.60493 0.92652 0.0
C1995 C 0.93684 0.61144 0.95435 0.0
C1996 C 0.95768 0.61083 0.97601 0.0
C1997 C 0.98553 0.60487 0.97004 0.0
C1998 C 0.87684 0.65366 0.98428 0.0
C1999 C 0.85289 0.63942 0.97361 0.0
C2000 C 0.90374 0.64432 0.9782 0.0
C2001 C 0.90772 0.6206 0.96091 0.0
C2002 C 0.88382 0.60615 0.95027 0.0
C2003 C 0.85672 0.61527 0.9568 0.0
H2004 H 0.17548 0.79499 0.22152 0.0
H2005 H 0.183 0.88182 0.24761 0.0
H2006 H 0.18625 0.80881 0.17267 0.0
H2007 H 0.19425 0.89527 0.19953 0.0
H2008 H 0.26853 0.87665 0.13153 0.0
H2009 H 0.24439 0.87012 0.1761 0.0
H2010 H 0.1674 0.85253 0.12924 0.0
H2011 H 0.19135 0.86031 0.08459 0.0
C2012 C 0.17844 0.817 0.21659 0.0
C2013 C 0.17871 0.83731 0.23819 0.0
C2014 C 0.18465 0.8249 0.18883 0.0
C2015 C 0.19122 0.85306 0.18269 0.0
C2016 C 0.1893 0.8735 0.20386 0.0
C2017 C 0.18291 0.86573 0.23128 0.0
C2018 C 0.24621 0.87266 0.13088 0.0
C2019 C 0.23156 0.8697 0.10488 0.0
C2020 C 0.23251 0.86858 0.15622 0.0
C2021 C 0.20421 0.86058 0.15584 0.0
C2022 C 0.18924 0.85864 0.1299 0.0
C2023 C 0.2028 0.86352 0.10453 0.0
H2024 H 0.16972 0.20277 0.27053 0.0
H2025 H 0.22533 0.13439 0.25165 0.0
H2026 H 0.17181 0.18948 0.32058 0.0
H2027 H 0.22606 0.12001 0.30074 0.0
H2028 H 0.25187 0.12737 0.39515 0.0
H2029 H 0.24529 0.13258 0.34421 0.0
H2030 H 0.15947 0.1576 0.35555 0.0
H2031 H 0.16686 0.15389 0.40672 0.0
C2032 C 0.18217 0.18482 0.27707 0.0
C2033 C 0.19783 0.17009 0.25734 0.0
C2034 C 0.18316 0.1769 0.30568 0.0
C2035 C 0.19927 0.15364 0.31493 0.0
C2036 C 0.21405 0.13843 0.29477 0.0
C2037 C 0.21359 0.14671 0.2665 0.0
C2038 C 0.23135 0.13301 0.38664 0.0
C2039 C 0.20993 0.14034 0.4048 0.0
C2040 C 0.22751 0.13618 0.35734 0.0
C2041 C 0.20195 0.14619 0.34559 0.0
C2042 C 0.1797 0.15079 0.36378 0.0
C2043 C 0.18375 0.14816 0.39308 0.0
H2044 H 0.40395 0.61034 0.97855 0.0
H2045 H 0.43168 0.52487 0.99025 0.0
H2046 H 0.38519 0.59848 0.93164 0.0
H2047 H 0.4148 0.51319 0.94236 0.0
H2048 H 0.37106 0.4908 0.86165 0.0
H2049 H 0.37759 0.50409 0.91152 0.0
H2050 H 0.39593 0.58932 0.88607 0.0
H2051 H 0.38751 0.5761 0.83695 0.0
C2052 C 0.40674 0.58913 0.97073 0.0
C2053 C 0.41969 0.56863 0.98798 0.0
C2054 C 0.39588 0.58223 0.94371 0.0
C2055 C 0.39826 0.55475 0.93279 0.0
C2056 C 0.41178 0.53439 0.95001 0.0
C2057 C 0.422 0.54116 0.97736 0.0
C2058 C 0.37488 0.51267 0.86705 0.0
C2059 C 0.37807 0.5326 0.84559 0.0
C2060 C 0.37945 0.52022 0.89559 0.0
C2061 C 0.38809 0.54773 0.90317 0.0
C2062 C 0.38909 0.56803 0.88156 0.0
C2063 C 0.384 0.56055 0.85319 0.0
H2064 H 0.86248 0.31931 0.30372 0.0
H2065 H 0.7774 0.30997 0.27174 0.0
H2066 H 0.84525 0.328 0.35138 0.0
H2067 H 0.76029 0.31836 0.31903 0.0
H2068 H 0.7438 0.38315 0.38937 0.0
H2069 H 0.76117 0.36402 0.34537 0.0
H2070 H 0.81749 0.30982 0.39291 0.0
H2071 H 0.80026 0.32907 0.4371 0.0
C2072 C 0.84023 0.31807 0.3071 0.0
C2073 C 0.82124 0.31428 0.28409 0.0
C2074 C 0.83034 0.32317 0.33429 0.0
C2075 C 0.8014 0.3245 0.3387 0.0
C2076 C 0.78266 0.31812 0.31611 0.0
C2077 C 0.79247 0.3131 0.28911 0.0
C2078 C 0.75978 0.36709 0.39049 0.0
C2079 C 0.77054 0.3576 0.41675 0.0
C2080 C 0.76961 0.35597 0.36529 0.0
C2081 C 0.79055 0.33526 0.36574 0.0
C2082 C 0.80138 0.32576 0.39195 0.0
C2083 C 0.79135 0.3367 0.41721 0.0
H2084 H 0.06762 0.43652 0.47346 0.0
H2085 H 0.14432 0.47432 0.50551 0.0
H2086 H 0.07909 0.45012 0.42542 0.0
H2087 H 0.15725 0.48573 0.45779 0.0
H2088 H 0.17107 0.51992 0.37154 0.0
H2089 H 0.15416 0.51191 0.41886 0.0
H2090 H 0.10369 0.44242 0.38653 0.0
H2091 H 0.11885 0.45249 0.33898 0.0
C2092 C 0.08706 0.44759 0.47014 0.0
C2093 C 0.10492 0.45455 0.49329 0.0
C2094 C 0.09391 0.45521 0.44246 0.0
C2095 C 0.11932 0.46918 0.43704 0.0
C2096 C 0.13715 0.47585 0.46053 0.0
C2097 C 0.12985 0.46905 0.48815 0.0
C2098 C 0.15612 0.50315 0.37465 0.0
C2099 C 0.14637 0.4868 0.35158 0.0
C2100 C 0.14655 0.49821 0.40197 0.0
C2101 C 0.12769 0.47605 0.40727 0.0
C2102 C 0.11774 0.45998 0.38381 0.0
C2103 C 0.12662 0.46558 0.35636 0.0
H2104 H 0.27234 0.1788 0.72387 0.0
H2105 H 0.36118 0.1936 0.71754 0.0
H2106 H 0.26795 0.17469 0.67243 0.0
H2107 H 0.35662 0.18958 0.66615 0.0
H2108 H 0.33849 0.13266 0.58576 0.0
H2109 H 0.3457 0.14783 0.63486 0.0
H2110 H 0.27306 0.20125 0.62701 0.0
H2111 H 0.26552 0.18586 0.57817 0.0
C2112 C 0.29084 0.18159 0.71152 0.0
C2113 C 0.31715 0.18614 0.72481 0.0
C2114 C 0.28829 0.17941 0.68206 0.0
C2115 C 0.31202 0.18164 0.6654 0.0
C2116 C 0.33809 0.18747 0.67857 0.0
C2117 C 0.34062 0.18985 0.70799 0.0
C2118 C 0.32433 0.14797 0.59436 0.0
C2119 C 0.30137 0.15793 0.5781 0.0
C2120 C 0.32855 0.15678 0.6224 0.0
C2121 C 0.3098 0.17557 0.63471 0.0
C2122 C 0.28764 0.18654 0.61808 0.0
C2123 C 0.28351 0.17787 0.59003 0.0
H2124 H 0.41162 0.40473 0.52655 0.0
H2125 H 0.42751 0.49286 0.51227 0.0
H2126 H 0.39801 0.4154 0.57485 0.0
H2127 H 0.4144 0.50338 0.56099 0.0
H2128 H 0.41267 0.50262 0.66109 0.0
H2129 H 0.43025 0.49205 0.6141 0.0
H2130 H 0.35583 0.44356 0.59429 0.0
H2131 H 0.33806 0.45442 0.64106 0.0
C2132 C 0.41274 0.42633 0.53383 0.0
C2133 C 0.42069 0.44793 0.5154 0.0
C2134 C 0.40472 0.43244 0.56149 0.0
C2135 C 0.40497 0.46024 0.57172 0.0
C2136 C 0.41407 0.48174 0.55377 0.0
C2137 C 0.42154 0.4757 0.52585 0.0
C2138 C 0.40015 0.48952 0.64691 0.0
C2139 C 0.37401 0.4792 0.65508 0.0
C2140 C 0.41015 0.48366 0.61983 0.0
C2141 C 0.39453 0.46681 0.60051 0.0
C2142 C 0.36851 0.45637 0.60876 0.0
C2143 C 0.35826 0.46274 0.63551 0.0
H2144 H 0.61516 0.10178 0.52865 0.0
H2145 H 0.58113 0.01809 0.51924 0.0
H2146 H 0.63503 0.08979 0.57482 0.0
H2147 H 0.59902 0.00642 0.5668 0.0
H2148 H 0.64275 0.98417 0.64728 0.0
H2149 H 0.63607 0.996 0.59718 0.0
H2150 H 0.62457 0.08319 0.62063 0.0
H2151 H 0.63329 0.07126 0.66992 0.0
C2152 C 0.61122 0.08097 0.53692 0.0
C2153 C 0.59603 0.06103 0.52064 0.0
C2154 C 0.6227 0.07401 0.56351 0.0
C2155 C 0.61864 0.04712 0.57504 0.0
C2156 C 0.60322 0.02718 0.55865 0.0
C2157 C 0.59244 0.03394 0.53156 0.0
C2158 C 0.6404 0.00603 0.64131 0.0
C2159 C 0.63921 0.02695 0.66222 0.0
C2160 C 0.63577 0.0128 0.61268 0.0
C2161 C 0.62899 0.04052 0.60456 0.0
C2162 C 0.62999 0.06166 0.62559 0.0
C2163 C 0.63523 0.05494 0.65403 0.0
H2164 H 0.71947 0.66582 0.30428 0.0
H2165 H 0.74459 0.72925 0.36571 0.0
H2166 H 0.67092 0.67143 0.31761 0.0
H2167 H 0.69678 0.73363 0.38028 0.0
H2168 H 0.60388 0.75843 0.37469 0.0
H2169 H 0.65353 0.75132 0.36781 0.0
H2170 H 0.6381 0.66292 0.35174 0.0
H2171 H 0.58823 0.67072 0.35693 0.0
C2172 C 0.71462 0.68086 0.32067 0.0
C2173 C 0.73585 0.6973 0.3336 0.0
C2174 C 0.68682 0.68387 0.32867 0.0
C2175 C 0.67969 0.70294 0.35025 0.0
C2176 C 0.70113 0.71915 0.36326 0.0
C2177 C 0.72871 0.71657 0.35486 0.0
C2178 C 0.61129 0.73734 0.3706 0.0
C2179 C 0.59228 0.71516 0.36623 0.0
C2180 C 0.63983 0.73319 0.36648 0.0
C2181 C 0.64999 0.7066 0.35847 0.0
C2182 C 0.63108 0.68389 0.35684 0.0
C2183 C 0.60253 0.6882 0.36036 0.0
H2184 H 0.90769 0.03157 0.88669 0.0
H2185 H 0.99265 0.02461 0.91928 0.0
H2186 H 0.91791 0.07764 0.86777 0.0
H2187 H 1.00264 0.07181 0.90213 0.0
H2188 H 0.02164 0.15161 0.85942 0.0
H2189 H 0.01066 0.10172 0.86477 0.0
H2190 H 0.92462 0.12346 0.87992 0.0
H2191 H 0.93559 0.17258 0.87271 0.0
C2192 C 0.92845 0.04024 0.89043 0.0
C2193 C 0.94926 0.02462 0.90493 0.0
C2194 C 0.93438 0.06678 0.8795 0.0
C2195 C 0.96115 0.07888 0.88333 0.0
C2196 C 0.98193 0.06319 0.89807 0.0
C2197 C 0.97615 0.03626 0.9084 0.0
C2198 C 1.00011 0.14535 0.86222 0.0
C2199 C 0.97929 0.16577 0.86495 0.0
C2200 C 0.99388 0.11682 0.86612 0.0
C2201 C 0.96682 0.10827 0.87357 0.0
C2202 C 0.94562 0.12877 0.87396 0.0
C2203 C 0.9518 0.15711 0.86956 0.0
H2204 H 0.28204 0.86772 0.35356 0.0
H2205 H 0.27763 0.79551 0.2984 0.0
H2206 H 0.33206 0.86115 0.36058 0.0
H2207 H 0.32816 0.79041 0.30244 0.0
H2208 H 0.40987 0.76263 0.34398 0.0
H2209 H 0.36187 0.77344 0.33069 0.0
H2210 H 0.37736 0.86117 0.35089 0.0
H2211 H 0.42477 0.84931 0.36679 0.0
C2212 C 0.29209 0.85105 0.34208 0.0
C2213 C 0.27606 0.83203 0.32562 0.0
C2214 C 0.321 0.84723 0.34593 0.0
C2215 C 0.33476 0.82475 0.33262 0.0
C2216 C 0.31865 0.80724 0.31416 0.0
C2217 C 0.28963 0.81044 0.31127 0.0
C2218 C 0.40294 0.78423 0.34549 0.0
C2219 C 0.42097 0.80507 0.35666 0.0
C2220 C 0.37529 0.79065 0.33751 0.0
C2221 C 0.36504 0.81838 0.33951 0.0
C2222 C 0.38375 0.83943 0.34963 0.0
C2223 C 0.41116 0.83275 0.35856 0.0
H2224 H 0.02106 0.50755 0.89115 0.0
H2225 H 0.10211 0.4772 0.91988 0.0
H2226 H 1.00631 0.45955 0.88044 0.0
H2227 H 0.08734 0.42907 0.90879 0.0
H2228 H 0.04341 0.34266 0.9044 0.0
H2229 H 0.05504 0.3902 0.92137 0.0
H2230 H 0.0178 0.42483 0.84467 0.0
H2231 H 1.00604 0.37784 0.82797 0.0
C2232 C 0.03577 0.49066 0.89528 0.0
C2233 C 0.06293 0.4964 0.90613 0.0
C2234 C 0.02729 0.46309 0.88903 0.0
C2235 C 0.04569 0.44041 0.89354 0.0
C2236 C 0.07255 0.44599 0.90526 0.0
C2237 C 0.0811 0.47364 0.91143 0.0
C2238 C 0.03742 0.36047 0.89137 0.0
C2239 C 0.02384 0.35635 0.86478 0.0
C2240 C 0.04427 0.3877 0.90098 0.0
C2241 C 0.03739 0.41139 0.88438 0.0
C2242 C 0.02315 0.40718 0.8582 0.0
C2243 C 0.01655 0.38011 0.84852 0.0
H2244 H 0.74342 0.36891 0.17451 0.0
H2245 H 0.74631 0.27823 0.17649 0.0
H2246 H 0.69436 0.36678 0.15867 0.0
H2247 H 0.69721 0.27598 0.16181 0.0
H2248 H 0.61424 0.27442 0.11933 0.0
H2249 H 0.66464 0.28294 0.12328 0.0
H2250 H 0.6502 0.35567 0.17597 0.0
H2251 H 0.60035 0.34796 0.17094 0.0
C2252 C 0.73339 0.34856 0.1721 0.0
C2253 C 0.74856 0.32375 0.17694 0.0
C2254 C 0.70534 0.34729 0.16283 0.0
C2255 C 0.69184 0.32118 0.15859 0.0
C2256 C 0.70705 0.29644 0.16402 0.0
C2257 C 0.73508 0.29771 0.17291 0.0
C2258 C 0.62187 0.29273 0.13093 0.0
C2259 C 0.60339 0.31011 0.14539 0.0
C2260 C 0.65074 0.29742 0.13355 0.0
C2261 C 0.66154 0.31952 0.15068 0.0
C2262 C 0.6428 0.33843 0.16268 0.0
C2263 C 0.61409 0.33387 0.15992 0.0
H2264 H 0.6074 0.03662 0.08924 0.0
H2265 H 0.52408 0.01371 0.11338 0.0
H2266 H 0.59742 0.08594 0.10003 0.0
H2267 H 0.51419 0.0627 0.12389 0.0
H2268 H 0.52039 0.14333 0.17712 0.0
H2269 H 0.529 0.09585 0.16076 0.0
H2270 H 0.56876 0.12858 0.08697 0.0
H2271 H 0.56013 0.17675 0.10357 0.0
C2272 C 0.58688 0.04204 0.09655 0.0
C2273 C 0.5667 0.02089 0.10063 0.0
C2274 C 0.5811 0.07042 0.10262 0.0
C2275 C 0.55506 0.07844 0.11315 0.0
C2276 C 0.53464 0.05739 0.11631 0.0
C2277 C 0.54033 0.02917 0.11011 0.0
C2278 C 0.53087 0.14063 0.1573 0.0
C2279 C 0.53956 0.16413 0.14175 0.0
C2280 C 0.53567 0.1132 0.14779 0.0
C2281 C 0.54953 0.10815 0.12244 0.0
C2282 C 0.55818 0.1316 0.10668 0.0
C2283 C 0.55306 0.15925 0.1161 0.0
H2284 H 0.29121 0.23382 0.1703 0.0
H2285 H 0.30073 0.14357 0.16874 0.0
H2286 H 0.34145 0.23955 0.16675 0.0
H2287 H 0.35143 0.14936 0.16547 0.0
H2288 H 0.43408 0.24362 0.17907 0.0
H2289 H 0.38635 0.23274 0.19142 0.0
H2290 H 0.38322 0.16648 0.12862 0.0
H2291 H 0.43144 0.17689 0.11669 0.0
C2292 C 0.3041 0.21516 0.16966 0.0
C2293 C 0.29192 0.18824 0.16966 0.0
C2294 C 0.33298 0.21845 0.16778 0.0
C2295 C 0.35049 0.19491 0.16573 0.0
C2296 C 0.33847 0.16791 0.16675 0.0
C2297 C 0.30947 0.1646 0.16887 0.0
C2298 C 0.42351 0.22636 0.16823 0.0
C2299 C 0.4367 0.21121 0.14679 0.0
C2300 C 0.39599 0.22027 0.17518 0.0
C2301 C 0.38085 0.19889 0.16086 0.0
C2302 C 0.39436 0.18293 0.14024 0.0
C2303 C 0.42196 0.18905 0.13325 0.0
H2304 H 0.40869 0.48457 0.10841 0.0
H2305 H 0.49573 0.50115 0.09406 0.0
H2306 H 0.42048 0.43745 0.12483 0.0
H2307 H 0.50756 0.4536 0.10878 0.0
H2308 H 0.52882 0.37203 0.14959 0.0
H2309 H 0.51437 0.42106 0.14407 0.0
H2310 H 0.433 0.39299 0.11272 0.0
H2311 H 0.44721 0.34459 0.12 0.0
C2312 C 0.43033 0.47795 0.10822 0.0
C2313 C 0.4512 0.4967 0.09968 0.0
C2314 C 0.4372 0.45076 0.11769 0.0
C2315 C 0.46515 0.44119 0.11844 0.0
C2316 C 0.48591 0.45999 0.10941 0.0
C2317 C 0.47908 0.48732 0.10047 0.0
C2318 C 0.5074 0.37655 0.143 0.0
C2319 C 0.48889 0.35446 0.13607 0.0
C2320 C 0.49923 0.40472 0.13901 0.0
C2321 C 0.47253 0.41151 0.12725 0.0
C2322 C 0.45356 0.38919 0.12209 0.0
C2323 C 0.46163 0.36119 0.1265 0.0
H2324 H 0.33155 0.72719 0.73405 0.0
H2325 H 0.33758 0.72622 0.6429 0.0
H2326 H 0.33395 0.67617 0.73473 0.0
H2327 H 0.33984 0.67484 0.6436 0.0
H2328 H 0.3926 0.59449 0.67077 0.0
H2329 H 0.3775 0.6426 0.66195 0.0
H2330 H 0.31039 0.63179 0.72003 0.0
H2331 H 0.32557 0.58381 0.72919 0.0
C2332 C 0.3329 0.71602 0.7141 0.0
C2333 C 0.33472 0.73069 0.68847 0.0
C2334 C 0.33404 0.68676 0.71446 0.0
C2335 C 0.3372 0.67154 0.68921 0.0
C2336 C 0.33762 0.68611 0.66338 0.0
C2337 C 0.33619 0.71546 0.66298 0.0
C2338 C 0.37432 0.60217 0.68129 0.0
C2339 C 0.36063 0.58545 0.70108 0.0
C2340 C 0.36554 0.62969 0.67606 0.0
C2341 C 0.34294 0.64101 0.69054 0.0
C2342 C 0.32812 0.62371 0.70888 0.0
C2343 C 0.33683 0.5962 0.71407 0.0
H2344 H 0.97448 0.44411 0.59289 0.0
H2345 H 1.0015 0.38817 0.52714 0.0
H2346 H 0.92715 0.42575 0.58729 0.0
H2347 H 0.95448 0.36847 0.52249 0.0
H2348 H 0.85872 0.36375 0.50171 0.0
H2349 H 0.90846 0.37397 0.50722 0.0
H2350 H 0.89843 0.38828 0.59686 0.0
H2351 H 0.84834 0.37992 0.59053 0.0
C2352 C 0.97022 0.42795 0.57709 0.0
C2353 C 0.99174 0.41787 0.56029 0.0
C2354 C 0.94311 0.41693 0.5742 0.0
C2355 C 0.93675 0.39498 0.55484 0.0
C2356 C 0.95824 0.3854 0.53752 0.0
C2357 C 0.9853 0.39683 0.54007 0.0
C2358 C 0.86746 0.36772 0.52282 0.0
C2359 C 0.84971 0.37072 0.54575 0.0
C2360 C 0.89607 0.37399 0.526 0.0
C2361 C 0.90765 0.383 0.55236 0.0
C2362 C 0.89028 0.3826 0.57596 0.0
C2363 C 0.86161 0.37696 0.57259 0.0
H2364 H 0.70441 0.79384 0.64674 0.0
H2365 H 0.65598 0.76484 0.71671 0.0
H2366 H 0.68934 0.84201 0.6563 0.0
H2367 H 0.63956 0.81173 0.7248 0.0
H2368 H 0.64134 0.9034 0.75396 0.0
H2369 H 0.65116 0.85452 0.74324 0.0
H2370 H 0.65297 0.87443 0.65393 0.0
H2371 H 0.64491 0.92373 0.66527 0.0
C2372 C 0.69062 0.79768 0.66409 0.0
C2373 C 0.68183 0.7754 0.68109 0.0
C2374 C 0.68156 0.82525 0.66937 0.0
C2375 C 0.66305 0.83104 0.69141 0.0
C2376 C 0.65424 0.80856 0.70812 0.0
C2377 C 0.66371 0.78138 0.7033 0.0
C2378 C 0.64271 0.89706 0.73197 0.0
C2379 C 0.64213 0.91724 0.71045 0.0
C2380 C 0.64862 0.86896 0.7257 0.0
C2381 C 0.6535 0.86031 0.69763 0.0
C2382 C 0.6503 0.88027 0.67585 0.0
C2383 C 0.64498 0.90844 0.68224 0.0
H2384 H 0.00889 0.12924 0.52434 0.0
H2385 H 0.04193 0.0964 0.6037 0.0
H2386 H 0.05504 0.14338 0.51132 0.0
H2387 H 0.08931 0.10973 0.58981 0.0
H2388 H 0.17118 0.15097 0.56449 0.0
H2389 H 0.12314 0.14595 0.5805 0.0
H2390 H 0.09593 0.1245 0.49495 0.0
H2391 H 0.14347 0.13031 0.47933 0.0
C2392 C 0.02608 0.12461 0.53905 0.0
C2393 C 0.02135 0.11114 0.56508 0.0
C2394 C 0.05288 0.13277 0.53138 0.0
C2395 C 0.07638 0.1275 0.54914 0.0
C2396 C 0.07182 0.11444 0.57552 0.0
C2397 C 0.04463 0.10649 0.58345 0.0
C2398 C 0.15456 0.14673 0.54892 0.0
C2399 C 0.161 0.14213 0.52039 0.0
C2400 C 0.12708 0.14305 0.55822 0.0
C2401 C 0.1053 0.13449 0.53923 0.0
C2402 C 0.11168 0.13152 0.51036 0.0
C2403 C 0.13904 0.13522 0.50117 0.0
H2404 H 0.37786 0.26787 0.78547 0.0
H2405 H 0.31462 0.29518 0.8427 0.0
H2406 H 0.39681 0.31502 0.78418 0.0
H2407 H 0.33249 0.34321 0.84001 0.0
H2408 H 0.39201 0.40816 0.75626 0.0
H2409 H 0.38633 0.35818 0.76432 0.0
H2410 H 0.36872 0.37479 0.85218 0.0
H2411 H 0.37279 0.42504 0.84335 0.0
C2412 C 0.36762 0.28417 0.79738 0.0
C2413 C 0.34438 0.27802 0.81382 0.0
C2414 C 0.37859 0.31125 0.79668 0.0
C2415 C 0.36623 0.33305 0.81188 0.0
C2416 C 0.34298 0.32685 0.82847 0.0
C2417 C 0.33238 0.29948 0.8297 0.0
C2418 C 0.38804 0.401 0.77753 0.0
C2419 C 0.38235 0.42026 0.79907 0.0
C2420 C 0.38463 0.37228 0.78222 0.0
C2421 C 0.37609 0.36247 0.80873 0.0
C2422 C 0.37418 0.38171 0.83124 0.0
C2423 C 0.37701 0.41042 0.82636 0.0
H2424 H 0.53631 0.41183 0.39685 0.0
H2425 H 0.52055 0.41278 0.48646 0.0
H2426 H 0.58543 0.40148 0.40727 0.0
H2427 H 0.57006 0.40272 0.49681 0.0
H2428 H 0.66718 0.40832 0.50296 0.0
H2429 H 0.61961 0.42449 0.49114 0.0
H2430 H 0.61049 0.35867 0.42837 0.0
H2431 H 0.65767 0.34225 0.44038 0.0
C2432 C 0.54333 0.41014 0.41881 0.0
C2433 C 0.52432 0.41303 0.44082 0.0
C2434 C 0.57152 0.40409 0.42474 0.0
C2435 C 0.58164 0.40122 0.45284 0.0
C2436 C 0.56293 0.40501 0.47494 0.0
C2437 C 0.53454 0.41062 0.46899 0.0
C2438 C 0.65518 0.39759 0.48632 0.0
C2439 C 0.66626 0.37397 0.47262 0.0
C2440 C 0.62785 0.4067 0.47975 0.0
C2441 C 0.61124 0.39277 0.45893 0.0
C2442 C 0.62278 0.36994 0.44442 0.0
C2443 C 0.64983 0.3605 0.45134 0.0
H2444 H 0.6821 0.22485 0.87547 0.0
H2445 H 0.69475 0.23144 0.78566 0.0
H2446 H 0.67633 0.17373 0.87032 0.0
H2447 H 0.68886 0.18093 0.78041 0.0
H2448 H 0.62311 0.09624 0.83675 0.0
H2449 H 0.63931 0.14362 0.84856 0.0
H2450 H 0.7068 0.1344 0.79068 0.0
H2451 H 0.69039 0.08722 0.77848 0.0
C2452 C 0.68446 0.21529 0.85483 0.0
C2453 C 0.68888 0.2321 0.83097 0.0
C2454 C 0.68081 0.18609 0.85178 0.0
C2455 C 0.68191 0.17318 0.8249 0.0
C2456 C 0.68813 0.18996 0.80146 0.0
C2457 C 0.69143 0.219 0.80445 0.0
C2458 C 0.64156 0.10417 0.82671 0.0
C2459 C 0.65517 0.08793 0.80635 0.0
C2460 C 0.65102 0.13131 0.8337 0.0
C2461 C 0.6743 0.14296 0.82049 0.0
C2462 C 0.68858 0.12627 0.801 0.0
C2463 C 0.67916 0.09914 0.79404 0.0
H2464 H 0.48094 0.11467 0.39633 0.0
H2465 H 0.49114 0.08087 0.48069 0.0
H2466 H 0.43221 0.12641 0.40584 0.0
H2467 H 0.44221 0.09187 0.48985 0.0
H2468 H 0.34298 0.09699 0.4825 0.0
H2469 H 0.38962 0.07986 0.4706 0.0
H2470 H 0.41192 0.16285 0.4426 0.0
H2471 H 0.36603 0.18015 0.4552 0.0
C2472 C 0.47265 0.10913 0.41665 0.0
C2473 C 0.49005 0.0968 0.43772 0.0
C2474 C 0.44475 0.11602 0.42217 0.0
C2475 C 0.43328 0.11012 0.44864 0.0
C2476 C 0.45028 0.09655 0.46921 0.0
C2477 C 0.47836 0.09031 0.46395 0.0
C2478 C 0.35779 0.1116 0.47387 0.0
C2479 C 0.35061 0.14007 0.4701 0.0
C2480 C 0.38456 0.10177 0.46706 0.0
C2481 C 0.40449 0.11996 0.45549 0.0
C2482 C 0.39706 0.14821 0.45122 0.0
C2483 C 0.37073 0.15815 0.45868 0.0
H2484 H 0.71651 0.29101 0.73389 0.0
H2485 H 0.64602 0.34697 0.72716 0.0
H2486 H 0.73176 0.30632 0.68769 0.0
H2487 H 0.66185 0.36349 0.68124 0.0
H2488 H 0.7768 0.36317 0.63242 0.0
H2489 H 0.75362 0.35031 0.67569 0.0
H2490 H 0.67337 0.35498 0.63132 0.0
H2491 H 0.6968 0.36896 0.58815 0.0
C2492 C 0.70366 0.30576 0.72189 0.0
C2493 C 0.68003 0.31767 0.73386 0.0
C2494 C 0.71272 0.31511 0.69577 0.0
C2495 C 0.69866 0.337 0.68135 0.0
C2496 C 0.67332 0.34683 0.69195 0.0
C2497 C 0.66403 0.33714 0.71805 0.0
C2498 C 0.75414 0.3627 0.63231 0.0
C2499 C 0.73857 0.36718 0.6071 0.0
C2500 C 0.74085 0.35469 0.65687 0.0
C2501 C 0.71172 0.35046 0.6566 0.0
C2502 C 0.69585 0.35774 0.63213 0.0
C2503 C 0.70923 0.36614 0.60753 0.0
H2504 H 0.72646 0.63295 0.75238 0.0
H2505 H 0.6682 0.69876 0.77204 0.0
H2506 H 0.72834 0.61851 0.80156 0.0
H2507 H 0.67146 0.68565 0.82197 0.0
H2508 H 0.6682 0.65091 0.9079 0.0
H2509 H 0.66037 0.65362 0.85674 0.0
H2510 H 0.74686 0.63107 0.84518 0.0
H2511 H 0.75382 0.6266 0.89613 0.0
C2512 C 0.71442 0.6447 0.76741 0.0
C2513 C 0.69746 0.66728 0.75848 0.0
C2514 C 0.71552 0.63641 0.79571 0.0
C2515 C 0.7002 0.65088 0.81603 0.0
C2516 C 0.68315 0.67352 0.80698 0.0
C2517 C 0.68152 0.68138 0.77842 0.0
C2518 C 0.68515 0.64549 0.89423 0.0
C2519 C 0.71161 0.6386 0.90585 0.0
C2520 C 0.68086 0.64755 0.86492 0.0
C2521 C 0.70317 0.64346 0.84665 0.0
C2522 C 0.72905 0.63428 0.85836 0.0
C2523 C 0.73311 0.63157 0.88767 0.0
H2524 H 0.90335 0.02295 0.5 0.0
H2525 H 0.92891 0.10439 0.46968 0.0
H2526 H 0.88596 0.01052 0.45279 0.0
H2527 H 0.91262 0.09139 0.42193 0.0
H2528 H 0.867 0.0713 0.34124 0.0
H2529 H 0.87263 0.08282 0.39173 0.0
H2530 H 0.9016 0.99823 0.40816 0.0
H2531 H 0.89487 0.98686 0.35823 0.0
C2532 C 0.90575 0.03808 0.48316 0.0
C2533 C 0.91775 0.06467 0.48872 0.0
C2534 C 0.89566 0.03092 0.45597 0.0
C2535 C 0.89761 0.04996 0.43341 0.0
C2536 C 0.9101 0.07638 0.43885 0.0
C2537 C 0.91992 0.08369 0.46617 0.0
C2538 C 0.87306 0.05488 0.35603 0.0
C2539 C 0.88006 0.02809 0.34608 0.0
C2540 C 0.87699 0.0616 0.38483 0.0
C2541 C 0.88825 0.04168 0.40405 0.0
C2542 C 0.89276 0.01415 0.39424 0.0
C2543 C 0.88869 0.00747 0.36559 0.0
H2544 H 0.28474 0.79752 0.77962 0.0
H2545 H 0.36454 0.83609 0.8005 0.0
H2546 H 0.26921 0.80739 0.8276 0.0
H2547 H 0.34859 0.8469 0.84824 0.0
H2548 H 0.28059 0.90137 0.89903 0.0
H2549 H 0.302 0.88264 0.85643 0.0
H2550 H 0.2866 0.79809 0.88486 0.0
H2551 H 0.26576 0.8168 0.92778 0.0
C2552 C 0.29923 0.80723 0.79485 0.0
C2553 C 0.32587 0.81583 0.78664 0.0
C2554 C 0.29034 0.81297 0.82214 0.0
C2555 C 0.30769 0.82806 0.8413 0.0
C2556 C 0.33492 0.83523 0.83368 0.0
C2557 C 0.34411 0.82882 0.80658 0.0
C2558 C 0.28176 0.87881 0.89613 0.0
C2559 C 0.27158 0.86047 0.91664 0.0
C2560 C 0.29425 0.86814 0.87202 0.0
C2561 C 0.29618 0.83899 0.86774 0.0
C2562 C 0.28556 0.82063 0.88794 0.0
C2563 C 0.27367 0.83131 0.91239 0.0
H2564 H 0.5796 0.91445 0.97268 0.0
H2565 H 0.61249 0.99396 0.00347 0.0
H2566 H 0.59346 0.92652 0.9248 0.0
H2567 H 0.62613 0.00593 0.95576 0.0
H2568 H 0.68097 0.99845 0.87736 0.0
H2569 H 0.66219 0.98935 0.92383 0.0
H2570 H 0.58536 0.95886 0.88412 0.0
H2571 H 0.60426 0.96773 0.83749 0.0
C2572 C 0.58935 0.93467 0.96923 0.0
C2573 C 0.59505 0.95308 0.99214 0.0
C2574 C 0.59727 0.94162 0.94172 0.0
C2575 C 0.61125 0.96707 0.93644 0.0
C2576 C 0.61588 0.98594 0.95911 0.0
C2577 C 0.60784 0.9791 0.98651 0.0
C2578 C 0.66002 0.98994 0.87845 0.0
C2579 C 0.64417 0.98392 0.85354 0.0
C2580 C 0.64915 0.98487 0.90517 0.0
C2581 C 0.62219 0.97341 0.9078 0.0
C2582 C 0.60625 0.96751 0.88291 0.0
C2583 C 0.61703 0.97283 0.85615 0.0
H2584 H 0.84412 0.71587 0.21543 0.0
H2585 H 0.78031 0.65258 0.22614 0.0
H2586 H 0.84086 0.70859 0.16396 0.0
H2587 H 0.7777 0.64502 0.1749 0.0
H2588 H 0.82124 0.61287 0.093 0.0
H2589 H 0.8249 0.62682 0.1428 0.0
H2590 H 0.79458 0.70954 0.12126 0.0
H2591 H 0.79025 0.69554 0.07131 0.0
C2592 C 0.82913 0.70076 0.20676 0.0
C2593 C 0.81254 0.6847 0.22473 0.0
C2594 C 0.82732 0.69666 0.17744 0.0
C2595 C 0.80929 0.67608 0.16586 0.0
C2596 C 0.79186 0.66088 0.18361 0.0
C2597 C 0.79324 0.66536 0.21282 0.0
C2598 C 0.81588 0.63422 0.09871 0.0
C2599 C 0.80533 0.65312 0.07826 0.0
C2600 C 0.81778 0.64206 0.12719 0.0
C2601 C 0.80972 0.66906 0.13556 0.0
C2602 C 0.80081 0.68858 0.11508 0.0
C2603 C 0.79838 0.68056 0.08661 0.0
H2604 H 0.90344 0.99384 0.00521 0.0
H2605 H 0.9293 0.91032 0.03003 0.0
H2606 H 0.892 1.00436 0.05393 0.0
H2607 H 0.91784 0.9211 0.07916 0.0
H2608 H 0.91405 0.96165 0.16964 0.0
H2609 H 0.93061 0.95223 0.12186 0.0
H2610 H 0.85492 0.98828 0.08581 0.0
H2611 H 0.83836 0.99752 0.13318 0.0
C2612 C 0.90699 0.97773 0.02105 0.0
C2613 C 0.91718 0.95108 0.01339 0.0
C2614 C 0.90024 0.98378 0.04909 0.0
C2615 C 0.90369 0.96353 0.07053 0.0
C2616 C 0.915 0.93726 0.06323 0.0
C2617 C 0.92151 0.93105 0.03501 0.0
C2618 C 0.90103 0.96774 0.15151 0.0
C2619 C 0.87482 0.98039 0.1554 0.0
C2620 C 0.91046 0.96215 0.12411 0.0
C2621 C 0.89415 0.96951 0.0999 0.0
C2622 C 0.8682 0.98256 0.10388 0.0
C2623 C 0.85862 0.98776 0.13115 0.0
H2624 H 0.13898 0.57669 0.01642 0.0
H2625 H 0.06199 0.53107 0.02612 0.0
H2626 H 0.15598 0.56099 0.06287 0.0
H2627 H 0.07885 0.51507 0.07299 0.0
H2628 H 0.12058 0.47376 0.14611 0.0
H2629 H 0.11395 0.48506 0.09599 0.0
H2630 H 0.14611 0.5687 0.11257 0.0
H2631 H 0.15323 0.55696 0.16267 0.0
C2632 C 0.12546 0.56377 0.02889 0.0
C2633 C 0.09884 0.55582 0.01829 0.0
C2634 C 0.13531 0.55453 0.05535 0.0
C2635 C 0.11882 0.53682 0.07168 0.0
C2636 C 0.09225 0.52844 0.06076 0.0
C2637 C 0.0824 0.53777 0.03417 0.0
C2638 C 0.12742 0.49411 0.13869 0.0
C2639 C 0.1375 0.5145 0.15805 0.0
C2640 C 0.12313 0.50076 0.11014 0.0
C2641 C 0.12869 0.52802 0.10047 0.0
C2642 C 0.14155 0.54751 0.11935 0.0
C2643 C 0.14596 0.54075 0.14799 0.0
loop_
_geom_bond_atom_site_label_1
_geom_bond_atom_site_label_2
_geom_bond_distance
_geom_bond_site_symmetry_2
_ccdc_geom_bond_type
Fe0 O2 1.918 . S
Fe0 O5 1.997 . S
Fe0 O6 2.002 . S
Fe0 O11 1.976 . S
Fe0 O14 1.996 . S
Fe1 O2 1.918 . S
Fe1 O9 1.997 . S
Fe1 O12 1.996 . S
Fe1 O16 1.976 . S
Fe1 O19 2.002 . S
O2 Fe0 1.918 . S
O2 Fe1 1.918 . S
O2 Fe3 1.918 . S
Fe3 O2 1.918 . S
Fe3 O4 2.002 . S
Fe3 O13 1.976 . S
Fe3 O17 1.996 . S
Fe3 O20 1.997 . S
O4 Fe3 2.002 . S
O4 C21 1.295 . S
O5 Fe0 1.997 . S
O5 C21 1.235 . S
O6 Fe0 2.002 . S
O6 C7 1.295 . S
C7 O6 1.295 . S
C7 O9 1.235 . S
C8 O13 1.287 . S
C8 O14 1.255 . S
O9 Fe1 1.997 . S
O9 C7 1.235 . S
C10 O16 1.287 . S
C10 O17 1.255 . S
O11 Fe0 1.976 . S
O11 C18 1.287 . S
O12 Fe1 1.996 . S
O12 C18 1.255 . S
O13 Fe3 1.976 . S
O13 C8 1.287 . S
O14 Fe0 1.996 . S
O14 C8 1.255 . S
C15 O19 1.295 . S
C15 O20 1.235 . S
O16 Fe1 1.976 . S
O16 C10 1.287 . S
O17 Fe3 1.996 . S
O17 C10 1.255 . S
C18 O11 1.287 . S
C18 O12 1.255 . S
O19 Fe1 2.002 . S
O19 C15 1.295 . S
O20 Fe3 1.997 . S
O20 C15 1.235 . S
C21 O4 1.295 . S
C21 O5 1.235 . S
Fe22 O24 1.918 . S
Fe22 O27 1.997 . S
Fe22 O28 2.002 . S
Fe22 O33 1.976 . S
Fe22 O36 1.996 . S
Fe23 O24 1.918 . S
Fe23 O31 1.997 . S
Fe23 O34 1.996 . S
Fe23 O38 1.976 . S
Fe23 O41 2.002 . S
O24 Fe22 1.918 . S
O24 Fe23 1.918 . S
O24 Fe25 1.918 . S
Fe25 O24 1.918 . S
Fe25 O26 2.002 . S
Fe25 O35 1.976 . S
Fe25 O39 1.996 . S
Fe25 O42 1.997 . S
O26 Fe25 2.002 . S
O26 C43 1.295 . S
O27 Fe22 1.997 . S
O27 C43 1.235 . S
O28 Fe22 2.002 . S
O28 C29 1.295 . S
C29 O28 1.295 . S
C29 O31 1.235 . S
C30 O35 1.287 . S
C30 O36 1.255 . S
O31 Fe23 1.997 . S
O31 C29 1.235 . S
C32 O38 1.287 . S
C32 O39 1.255 . S
O33 Fe22 1.976 . S
O33 C40 1.287 . S
O34 Fe23 1.996 . S
O34 C40 1.255 . S
O35 Fe25 1.976 . S
O35 C30 1.287 . S
O36 Fe22 1.996 . S
O36 C30 1.255 . S
C37 O41 1.295 . S
C37 O42 1.235 . S
O38 Fe23 1.976 . S
O38 C32 1.287 . S
O39 Fe25 1.996 . S
O39 C32 1.255 . S
C40 O33 1.287 . S
C40 O34 1.255 . S
O41 Fe23 2.002 . S
O41 C37 1.295 . S
O42 Fe25 1.997 . S
O42 C37 1.235 . S
C43 O26 1.295 . S
C43 O27 1.235 . S
Fe44 O46 1.918 . S
Fe44 O49 1.997 . S
Fe44 O50 2.002 . S
Fe44 O55 1.976 . S
Fe44 O58 1.996 . S
Fe45 O46 1.918 . S
Fe45 O53 1.997 . S
Fe45 O56 1.996 . S
Fe45 O60 1.976 . S
Fe45 O63 2.002 . S
O46 Fe44 1.918 . S
O46 Fe45 1.918 . S
O46 Fe47 1.918 . S
Fe47 O46 1.918 . S
Fe47 O48 2.002 . S
Fe47 O57 1.976 . S
Fe47 O61 1.996 . S
Fe47 O64 1.997 . S
O48 Fe47 2.002 . S
O48 C65 1.295 . S
O49 Fe44 1.997 . S
O49 C65 1.235 . S
O50 Fe44 2.002 . S
O50 C51 1.295 . S
C51 O50 1.295 . S
C51 O53 1.235 . S
C52 O57 1.287 . S
C52 O58 1.255 . S
O53 Fe45 1.997 . S
O53 C51 1.235 . S
C54 O60 1.287 . S
C54 O61 1.255 . S
O55 Fe44 1.976 . S
O55 C62 1.287 . S
O56 Fe45 1.996 . S
O56 C62 1.255 . S
O57 Fe47 1.976 . S
O57 C52 1.287 . S
O58 Fe44 1.996 . S
O58 C52 1.255 . S
C59 O63 1.295 . S
C59 O64 1.235 . S
O60 Fe45 1.976 . S
O60 C54 1.287 . S
O61 Fe47 1.996 . S
O61 C54 1.255 . S
C62 O55 1.287 . S
C62 O56 1.255 . S
O63 Fe45 2.002 . S
O63 C59 1.295 . S
O64 Fe47 1.997 . S
O64 C59 1.235 . S
C65 O48 1.295 . S
C65 O49 1.235 . S
Fe66 O68 1.918 . S
Fe66 O71 1.997 . S
Fe66 O72 2.002 . S
Fe66 O77 1.976 . S
Fe66 O80 1.996 . S
Fe67 O68 1.918 . S
Fe67 O75 1.997 . S
Fe67 O78 1.996 . S
Fe67 O82 1.976 . S
Fe67 O85 2.002 . S
O68 Fe66 1.918 . S
O68 Fe67 1.918 . S
O68 Fe69 1.918 . S
Fe69 O68 1.918 . S
Fe69 O70 2.002 . S
Fe69 O79 1.976 . S
Fe69 O83 1.996 . S
Fe69 O86 1.997 . S
O70 Fe69 2.002 . S
O70 C87 1.295 . S
O71 Fe66 1.997 . S
O71 C87 1.235 . S
O72 Fe66 2.002 . S
O72 C73 1.295 . S
C73 O72 1.295 . S
C73 O75 1.235 . S
C74 O79 1.287 . S
C74 O80 1.255 . S
O75 Fe67 1.997 . S
O75 C73 1.235 . S
C76 O82 1.287 . S
C76 O83 1.255 . S
O77 Fe66 1.976 . S
O77 C84 1.287 . S
O78 Fe67 1.996 . S
O78 C84 1.255 . S
O79 Fe69 1.976 . S
O79 C74 1.287 . S
O80 Fe66 1.996 . S
O80 C74 1.255 . S
C81 O85 1.295 . S
C81 O86 1.235 . S
O82 Fe67 1.976 . S
O82 C76 1.287 . S
O83 Fe69 1.996 . S
O83 C76 1.255 . S
C84 O77 1.287 . S
C84 O78 1.255 . S
O85 Fe67 2.002 . S
O85 C81 1.295 . S
O86 Fe69 1.997 . S
O86 C81 1.235 . S
C87 O70 1.295 . S
C87 O71 1.235 . S
Fe88 O90 1.918 . S
Fe88 O93 1.997 . S
Fe88 O94 2.002 . S
Fe88 O99 1.976 . S
Fe88 O102 1.996 . S
Fe89 O90 1.918 . S
Fe89 O97 1.997 . S
Fe89 O100 1.996 . S
Fe89 O104 1.976 . S
Fe89 O107 2.002 . S
O90 Fe88 1.918 . S
O90 Fe89 1.918 . S
O90 Fe91 1.918 . S
Fe91 O90 1.918 . S
Fe91 O92 2.002 . S
Fe91 O101 1.976 . S
Fe91 O105 1.996 . S
Fe91 O108 1.997 . S
O92 Fe91 2.002 . S
O92 C109 1.295 . S
O93 Fe88 1.997 . S
O93 C109 1.235 . S
O94 Fe88 2.002 . S
O94 C95 1.295 . S
C95 O94 1.295 . S
C95 O97 1.235 . S
C96 O101 1.287 . S
C96 O102 1.255 . S
O97 Fe89 1.997 . S
O97 C95 1.235 . S
C98 O104 1.287 . S
C98 O105 1.255 . S
O99 Fe88 1.976 . S
O99 C106 1.287 . S
O100 Fe89 1.996 . S
O100 C106 1.255 . S
O101 Fe91 1.976 . S
O101 C96 1.287 . S
O102 Fe88 1.996 . S
O102 C96 1.255 . S
C103 O107 1.295 . S
C103 O108 1.235 . S
O104 Fe89 1.976 . S
O104 C98 1.287 . S
O105 Fe91 1.996 . S
O105 C98 1.255 . S
C106 O99 1.287 . S
C106 O100 1.255 . S
O107 Fe89 2.002 . S
O107 C103 1.295 . S
O108 Fe91 1.997 . S
O108 C103 1.235 . S
C109 O92 1.295 . S
C109 O93 1.235 . S
Fe110 O112 1.918 . S
Fe110 O115 1.997 . S
Fe110 O116 2.002 . S
Fe110 O121 1.976 . S
Fe110 O124 1.996 . S
Fe111 O112 1.918 . S
Fe111 O119 1.997 . S
Fe111 O122 1.996 . S
Fe111 O126 1.976 . S
Fe111 O129 2.002 . S
O112 Fe110 1.918 . S
O112 Fe111 1.918 . S
O112 Fe113 1.918 . S
Fe113 O112 1.918 . S
Fe113 O114 2.002 . S
Fe113 O123 1.976 . S
Fe113 O127 1.996 . S
Fe113 O130 1.997 . S
O114 Fe113 2.002 . S
O114 C131 1.295 . S
O115 Fe110 1.997 . S
O115 C131 1.235 . S
O116 Fe110 2.002 . S
O116 C117 1.295 . S
C117 O116 1.295 . S
C117 O119 1.235 . S
C118 O123 1.287 1_554 S
C118 O124 1.255 1_554 S
O119 Fe111 1.997 . S
O119 C117 1.235 . S
C120 O126 1.287 . S
C120 O127 1.255 . S
O121 Fe110 1.976 . S
O121 C128 1.287 . S
O122 Fe111 1.996 . S
O122 C128 1.255 . S
O123 Fe113 1.976 . S
O123 C118 1.287 1_556 S
O124 Fe110 1.996 . S
O124 C118 1.255 1_556 S
C125 O129 1.295 . S
C125 O130 1.235 . S
O126 Fe111 1.976 . S
O126 C120 1.287 . S
O127 Fe113 1.996 . S
O127 C120 1.255 . S
C128 O121 1.287 . S
C128 O122 1.255 . S
O129 Fe111 2.002 . S
O129 C125 1.295 . S
O130 Fe113 1.997 . S
O130 C125 1.235 . S
C131 O114 1.295 . S
C131 O115 1.235 . S
Fe132 O134 1.918 . S
Fe132 O137 1.997 . S
Fe132 O138 2.002 . S
Fe132 O143 1.976 . S
Fe132 O146 1.996 . S
Fe133 O134 1.918 . S
Fe133 O141 1.997 . S
Fe133 O144 1.996 . S
Fe133 O148 1.976 . S
Fe133 O151 2.002 . S
O134 Fe132 1.918 . S
O134 Fe133 1.918 . S
O134 Fe135 1.918 . S
Fe135 O134 1.918 . S
Fe135 O136 2.002 . S
Fe135 O145 1.976 . S
Fe135 O149 1.996 . S
Fe135 O152 1.997 . S
O136 Fe135 2.002 . S
O136 C153 1.295 . S
O137 Fe132 1.997 . S
O137 C153 1.235 . S
O138 Fe132 2.002 . S
O138 C139 1.295 . S
C139 O138 1.295 . S
C139 O141 1.235 . S
C140 O145 1.287 . S
C140 O146 1.255 . S
O141 Fe133 1.997 . S
O141 C139 1.235 . S
C142 O148 1.287 . S
C142 O149 1.255 . S
O143 Fe132 1.976 . S
O143 C150 1.287 . S
O144 Fe133 1.996 . S
O144 C150 1.255 . S
O145 Fe135 1.976 . S
O145 C140 1.287 . S
O146 Fe132 1.996 . S
O146 C140 1.255 . S
C147 O151 1.295 . S
C147 O152 1.235 . S
O148 Fe133 1.976 . S
O148 C142 1.287 . S
O149 Fe135 1.996 . S
O149 C142 1.255 . S
C150 O143 1.287 . S
C150 O144 1.255 . S
O151 Fe133 2.002 . S
O151 C147 1.295 . S
O152 Fe135 1.997 . S
O152 C147 1.235 . S
C153 O136 1.295 . S
C153 O137 1.235 . S
Fe154 O156 1.918 . S
Fe154 O159 1.997 . S
Fe154 O160 2.002 . S
Fe154 O165 1.976 . S
Fe154 O168 1.996 . S
Fe155 O156 1.918 . S
Fe155 O163 1.997 . S
Fe155 O166 1.996 . S
Fe155 O170 1.976 . S
Fe155 O173 2.002 . S
O156 Fe154 1.918 . S
O156 Fe155 1.918 . S
O156 Fe157 1.918 . S
Fe157 O156 1.918 . S
Fe157 O158 2.002 . S
Fe157 O167 1.976 . S
Fe157 O171 1.996 . S
Fe157 O174 1.997 . S
O158 Fe157 2.002 . S
O158 C175 1.295 . S
O159 Fe154 1.997 . S
O159 C175 1.235 . S
O160 Fe154 2.002 . S
O160 C161 1.295 . S
C161 O160 1.295 . S
C161 O163 1.235 . S
C162 O167 1.287 . S
C162 O168 1.255 . S
O163 Fe155 1.997 . S
O163 C161 1.235 . S
C164 O170 1.287 . S
C164 O171 1.255 . S
O165 Fe154 1.976 . S
O165 C172 1.287 . S
O166 Fe155 1.996 . S
O166 C172 1.255 . S
O167 Fe157 1.976 . S
O167 C162 1.287 . S
O168 Fe154 1.996 . S
O168 C162 1.255 . S
C169 O173 1.295 . S
C169 O174 1.235 . S
O170 Fe155 1.976 . S
O170 C164 1.287 . S
O171 Fe157 1.996 . S
O171 C164 1.255 . S
C172 O165 1.287 . S
C172 O166 1.255 . S
O173 Fe155 2.002 . S
O173 C169 1.295 . S
O174 Fe157 1.997 . S
O174 C169 1.235 . S
C175 O158 1.295 . S
C175 O159 1.235 . S
Fe176 O178 1.918 . S
Fe176 O181 1.997 . S
Fe176 O182 2.002 . S
Fe176 O187 1.976 . S
Fe176 O190 1.996 . S
Fe177 O178 1.918 . S
Fe177 O185 1.997 . S
Fe177 O188 1.996 . S
Fe177 O192 1.976 . S
Fe177 O195 2.002 . S
O178 Fe176 1.918 . S
O178 Fe177 1.918 . S
O178 Fe179 1.918 . S
Fe179 O178 1.918 . S
Fe179 O180 2.002 . S
Fe179 O189 1.976 . S
Fe179 O193 1.996 . S
Fe179 O196 1.997 . S
O180 Fe179 2.002 . S
O180 C197 1.295 . S
O181 Fe176 1.997 . S
O181 C197 1.235 . S
O182 Fe176 2.002 . S
O182 C183 1.295 . S
C183 O182 1.295 . S
C183 O185 1.235 . S
C184 O189 1.287 . S
C184 O190 1.255 . S
O185 Fe177 1.997 . S
O185 C183 1.235 . S
C186 O192 1.287 . S
C186 O193 1.255 . S
O187 Fe176 1.976 . S
O187 C194 1.287 . S
O188 Fe177 1.996 . S
O188 C194 1.255 . S
O189 Fe179 1.976 . S
O189 C184 1.287 . S
O190 Fe176 1.996 . S
O190 C184 1.255 . S
C191 O195 1.295 . S
C191 O196 1.235 . S
O192 Fe177 1.976 . S
O192 C186 1.287 . S
O193 Fe179 1.996 . S
O193 C186 1.255 . S
C194 O187 1.287 . S
C194 O188 1.255 . S
O195 Fe177 2.002 . S
O195 C191 1.295 . S
O196 Fe179 1.997 . S
O196 C191 1.235 . S
C197 O180 1.295 . S
C197 O181 1.235 . S
Fe198 O200 1.918 . S
Fe198 O203 1.997 . S
Fe198 O204 2.002 . S
Fe198 O209 1.976 . S
Fe198 O212 1.996 . S
Fe199 O200 1.918 . S
Fe199 O207 1.997 . S
Fe199 O210 1.996 . S
Fe199 O214 1.976 . S
Fe199 O217 2.002 . S
O200 Fe198 1.918 . S
O200 Fe199 1.918 . S
O200 Fe201 1.918 . S
Fe201 O200 1.918 . S
Fe201 O202 2.002 . S
Fe201 O211 1.976 . S
Fe201 O215 1.996 . S
Fe201 O218 1.997 . S
O202 Fe201 2.002 . S
O202 C219 1.295 . S
O203 Fe198 1.997 . S
O203 C219 1.235 . S
O204 Fe198 2.002 . S
O204 C205 1.295 . S
C205 O204 1.295 . S
C205 O207 1.235 . S
C206 O211 1.287 . S
C206 O212 1.255 . S
O207 Fe199 1.997 . S
O207 C205 1.235 . S
C208 O214 1.287 . S
C208 O215 1.255 . S
O209 Fe198 1.976 . S
O209 C216 1.287 . S
O210 Fe199 1.996 . S
O210 C216 1.255 . S
O211 Fe201 1.976 . S
O211 C206 1.287 . S
O212 Fe198 1.996 . S
O212 C206 1.255 . S
C213 O217 1.295 . S
C213 O218 1.235 . S
O214 Fe199 1.976 . S
O214 C208 1.287 . S
O215 Fe201 1.996 . S
O215 C208 1.255 . S
C216 O209 1.287 . S
C216 O210 1.255 . S
O217 Fe199 2.002 . S
O217 C213 1.295 . S
O218 Fe201 1.997 . S
O218 C213 1.235 . S
C219 O202 1.295 . S
C219 O203 1.235 . S
Fe220 O222 1.918 . S
Fe220 O225 1.997 . S
Fe220 O226 2.002 . S
Fe220 O231 1.976 . S
Fe220 O234 1.996 . S
Fe221 O222 1.918 . S
Fe221 O229 1.997 . S
Fe221 O232 1.996 . S
Fe221 O236 1.976 . S
Fe221 O239 2.002 . S
O222 Fe220 1.918 . S
O222 Fe221 1.918 . S
O222 Fe223 1.918 . S
Fe223 O222 1.918 . S
Fe223 O224 2.002 . S
Fe223 O233 1.976 . S
Fe223 O237 1.996 . S
Fe223 O240 1.997 . S
O224 Fe223 2.002 . S
O224 C241 1.295 . S
O225 Fe220 1.997 . S
O225 C241 1.235 . S
O226 Fe220 2.002 . S
O226 C227 1.295 . S
C227 O226 1.295 . S
C227 O229 1.235 . S
C228 O233 1.287 . S
C228 O234 1.255 . S
O229 Fe221 1.997 . S
O229 C227 1.235 . S
C230 O236 1.287 . S
C230 O237 1.255 . S
O231 Fe220 1.976 . S
O231 C238 1.287 . S
O232 Fe221 1.996 . S
O232 C238 1.255 . S
O233 Fe223 1.976 . S
O233 C228 1.287 . S
O234 Fe220 1.996 . S
O234 C228 1.255 . S
C235 O239 1.295 . S
C235 O240 1.235 . S
O236 Fe221 1.976 . S
O236 C230 1.287 . S
O237 Fe223 1.996 . S
O237 C230 1.255 . S
C238 O231 1.287 . S
C238 O232 1.255 . S
O239 Fe221 2.002 . S
O239 C235 1.295 . S
O240 Fe223 1.997 . S
O240 C235 1.235 . S
C241 O224 1.295 . S
C241 O225 1.235 . S
Fe242 O244 1.918 . S
Fe242 O247 1.997 . S
Fe242 O248 2.002 . S
Fe242 O253 1.976 . S
Fe242 O256 1.996 . S
Fe243 O244 1.918 . S
Fe243 O251 1.997 . S
Fe243 O254 1.996 . S
Fe243 O258 1.976 . S
Fe243 O261 2.002 . S
O244 Fe242 1.918 . S
O244 Fe243 1.918 . S
O244 Fe245 1.918 . S
Fe245 O244 1.918 . S
Fe245 O246 2.002 . S
Fe245 O255 1.976 . S
Fe245 O259 1.996 . S
Fe245 O262 1.997 . S
O246 Fe245 2.002 . S
O246 C263 1.295 . S
O247 Fe242 1.997 . S
O247 C263 1.235 . S
O248 Fe242 2.002 . S
O248 C249 1.295 . S
C249 O248 1.295 . S
C249 O251 1.235 . S
C250 O255 1.287 . S
C250 O256 1.255 . S
O251 Fe243 1.997 . S
O251 C249 1.235 . S
C252 O258 1.287 . S
C252 O259 1.255 . S
O253 Fe242 1.976 . S
O253 C260 1.287 . S
O254 Fe243 1.996 . S
O254 C260 1.255 . S
O255 Fe245 1.976 . S
O255 C250 1.287 . S
O256 Fe242 1.996 . S
O256 C250 1.255 . S
C257 O261 1.295 . S
C257 O262 1.235 . S
O258 Fe243 1.976 . S
O258 C252 1.287 . S
O259 Fe245 1.996 . S
O259 C252 1.255 . S
C260 O253 1.287 . S
C260 O254 1.255 . S
O261 Fe243 2.002 . S
O261 C257 1.295 . S
O262 Fe245 1.997 . S
O262 C257 1.235 . S
C263 O246 1.295 . S
C263 O247 1.235 . S
Fe264 O266 1.918 . S
Fe264 O269 1.997 . S
Fe264 O270 2.002 . S
Fe264 O275 1.976 . S
Fe264 O278 1.996 . S
Fe265 O266 1.918 . S
Fe265 O273 1.997 . S
Fe265 O276 1.996 . S
Fe265 O280 1.976 . S
Fe265 O283 2.002 . S
O266 Fe264 1.918 . S
O266 Fe265 1.918 . S
O266 Fe267 1.918 . S
Fe267 O266 1.918 . S
Fe267 O268 2.002 . S
Fe267 O277 1.976 . S
Fe267 O281 1.996 . S
Fe267 O284 1.997 . S
O268 Fe267 2.002 . S
O268 C285 1.295 . S
O269 Fe264 1.997 . S
O269 C285 1.235 . S
O270 Fe264 2.002 . S
O270 C271 1.295 . S
C271 O270 1.295 . S
C271 O273 1.235 . S
C272 O277 1.287 . S
C272 O278 1.255 . S
O273 Fe265 1.997 . S
O273 C271 1.235 . S
C274 O280 1.287 . S
C274 O281 1.255 . S
O275 Fe264 1.976 . S
O275 C282 1.287 . S
O276 Fe265 1.996 . S
O276 C282 1.255 . S
O277 Fe267 1.976 . S
O277 C272 1.287 . S
O278 Fe264 1.996 . S
O278 C272 1.255 . S
C279 O283 1.295 . S
C279 O284 1.235 . S
O280 Fe265 1.976 . S
O280 C274 1.287 . S
O281 Fe267 1.996 . S
O281 C274 1.255 . S
C282 O275 1.287 . S
C282 O276 1.255 . S
O283 Fe265 2.002 . S
O283 C279 1.295 . S
O284 Fe267 1.997 . S
O284 C279 1.235 . S
C285 O268 1.295 . S
C285 O269 1.235 . S
Fe286 O288 1.918 . S
Fe286 O291 1.997 . S
Fe286 O292 2.002 . S
Fe286 O297 1.976 . S
Fe286 O300 1.996 . S
Fe287 O288 1.918 . S
Fe287 O295 1.997 . S
Fe287 O298 1.996 . S
Fe287 O302 1.976 . S
Fe287 O305 2.002 . S
O288 Fe286 1.918 . S
O288 Fe287 1.918 . S
O288 Fe289 1.918 . S
Fe289 O288 1.918 . S
Fe289 O290 2.002 . S
Fe289 O299 1.976 . S
Fe289 O303 1.996 . S
Fe289 O306 1.997 . S
O290 Fe289 2.002 . S
O290 C307 1.295 . S
O291 Fe286 1.997 . S
O291 C307 1.235 . S
O292 Fe286 2.002 . S
O292 C293 1.295 . S
C293 O292 1.295 . S
C293 O295 1.235 . S
C294 O299 1.287 . S
C294 O300 1.255 . S
O295 Fe287 1.997 . S
O295 C293 1.235 . S
C296 O302 1.287 . S
C296 O303 1.255 . S
O297 Fe286 1.976 . S
O297 C304 1.287 . S
O298 Fe287 1.996 . S
O298 C304 1.255 . S
O299 Fe289 1.976 . S
O299 C294 1.287 . S
O300 Fe286 1.996 . S
O300 C294 1.255 . S
C301 O305 1.295 . S
C301 O306 1.235 . S
O302 Fe287 1.976 . S
O302 C296 1.287 . S
O303 Fe289 1.996 . S
O303 C296 1.255 . S
C304 O297 1.287 . S
C304 O298 1.255 . S
O305 Fe287 2.002 . S
O305 C301 1.295 . S
O306 Fe289 1.997 . S
O306 C301 1.235 . S
C307 O290 1.295 . S
C307 O291 1.235 . S
Fe308 O310 1.918 . S
Fe308 O313 1.997 . S
Fe308 O314 2.002 . S
Fe308 O319 1.976 . S
Fe308 O322 1.996 . S
Fe309 O310 1.918 . S
Fe309 O317 1.997 . S
Fe309 O320 1.996 . S
Fe309 O324 1.976 . S
Fe309 O327 2.002 . S
O310 Fe308 1.918 . S
O310 Fe309 1.918 . S
O310 Fe311 1.918 . S
Fe311 O310 1.918 . S
Fe311 O312 2.002 . S
Fe311 O321 1.976 . S
Fe311 O325 1.996 . S
Fe311 O328 1.997 . S
O312 Fe311 2.002 . S
O312 C329 1.295 . S
O313 Fe308 1.997 . S
O313 C329 1.235 . S
O314 Fe308 2.002 . S
O314 C315 1.295 . S
C315 O314 1.295 . S
C315 O317 1.235 . S
C316 O321 1.287 . S
C316 O322 1.255 . S
O317 Fe309 1.997 . S
O317 C315 1.235 . S
C318 O324 1.287 . S
C318 O325 1.255 . S
O319 Fe308 1.976 . S
O319 C326 1.287 . S
O320 Fe309 1.996 . S
O320 C326 1.255 . S
O321 Fe311 1.976 . S
O321 C316 1.287 . S
O322 Fe308 1.996 . S
O322 C316 1.255 . S
C323 O327 1.295 . S
C323 O328 1.235 . S
O324 Fe309 1.976 . S
O324 C318 1.287 . S
O325 Fe311 1.996 . S
O325 C318 1.255 . S
C326 O319 1.287 . S
C326 O320 1.255 . S
O327 Fe309 2.002 . S
O327 C323 1.295 . S
O328 Fe311 1.997 . S
O328 C323 1.235 . S
C329 O312 1.295 . S
C329 O313 1.235 . S
Fe330 O332 1.918 . S
Fe330 O335 1.997 . S
Fe330 O336 2.002 . S
Fe330 O341 1.976 . S
Fe330 O344 1.996 . S
Fe331 O332 1.918 . S
Fe331 O339 1.997 . S
Fe331 O342 1.996 . S
Fe331 O346 1.976 . S
Fe331 O349 2.002 . S
O332 Fe330 1.918 . S
O332 Fe331 1.918 . S
O332 Fe333 1.918 . S
Fe333 O332 1.918 . S
Fe333 O334 2.002 . S
Fe333 O343 1.976 . S
Fe333 O347 1.996 . S
Fe333 O350 1.997 . S
O334 Fe333 2.002 . S
O334 C351 1.295 . S
O335 Fe330 1.997 . S
O335 C351 1.235 . S
O336 Fe330 2.002 . S
O336 C337 1.295 . S
C337 O336 1.295 . S
C337 O339 1.235 . S
C338 O343 1.287 . S
C338 O344 1.255 . S
O339 Fe331 1.997 . S
O339 C337 1.235 . S
C340 O346 1.287 . S
C340 O347 1.255 . S
O341 Fe330 1.976 . S
O341 C348 1.287 . S
O342 Fe331 1.996 . S
O342 C348 1.255 . S
O343 Fe333 1.976 . S
O343 C338 1.287 . S
O344 Fe330 1.996 . S
O344 C338 1.255 . S
C345 O349 1.295 . S
C345 O350 1.235 . S
O346 Fe331 1.976 . S
O346 C340 1.287 . S
O347 Fe333 1.996 . S
O347 C340 1.255 . S
C348 O341 1.287 . S
C348 O342 1.255 . S
O349 Fe331 2.002 . S
O349 C345 1.295 . S
O350 Fe333 1.997 . S
O350 C345 1.235 . S
C351 O334 1.295 . S
C351 O335 1.235 . S
C352 O364 1.241 . S
C352 O365 1.280 . S
C353 O366 1.277 . S
C353 O367 1.245 . S
C354 O378 1.247 . S
C354 O380 1.289 . S
Mg355 O356 1.926 1_455 S
Mg355 O365 1.984 1_455 S
Mg355 O367 1.988 . S
Mg355 O368 2.061 1_455 S
O356 Mg355 1.926 1_655 S
O356 Mg357 1.986 . S
O356 Mg358 1.917 1_655 S
Mg357 O356 1.986 . S
Mg357 O364 2.042 . S
Mg357 O366 2.041 1_655 S
Mg357 O372 2.038 . S
Mg357 O380 2.238 1_655 S
Mg358 O356 1.917 1_455 S
Mg358 O359 1.917 . S
Mg358 O369 2.106 1_455 S
Mg358 O371 2.079 1_455 S
Mg358 O380 2.106 . S
Mg358 O381 2.079 . S
O359 Mg358 1.917 . S
O359 Mg360 1.926 1_455 S
O359 Mg361 1.986 . S
Mg360 O359 1.926 1_655 S
Mg360 O374 1.984 1_655 S
Mg360 O377 1.988 . S
Mg360 O378 2.061 1_655 S
Mg361 O359 1.986 . S
Mg361 O369 2.238 1_455 S
Mg361 O373 2.042 . S
Mg361 O375 2.041 1_455 S
Mg361 O382 2.038 . S
C362 O368 1.247 . S
C362 O369 1.289 . S
C363 O381 1.245 . S
C363 O382 1.274 . S
O364 C352 1.241 . S
O364 Mg357 2.042 . S
O365 C352 1.280 . S
O365 Mg355 1.984 1_655 S
O366 C353 1.277 . S
O366 Mg357 2.041 1_455 S
O367 C353 1.245 . S
O367 Mg355 1.988 . S
O368 Mg355 2.061 1_655 S
O368 C362 1.247 . S
O369 Mg358 2.106 1_655 S
O369 Mg361 2.238 1_655 S
O369 C362 1.289 . S
C370 O371 1.245 . S
C370 O372 1.274 . S
O371 Mg358 2.079 1_655 S
O371 C370 1.245 . S
O372 Mg357 2.038 . S
O372 C370 1.274 . S
O373 Mg361 2.042 . S
O373 C376 1.241 . S
O374 Mg360 1.984 1_455 S
O374 C376 1.280 . S
O375 Mg361 2.041 1_655 S
O375 C379 1.277 . S
C376 O373 1.241 . S
C376 O374 1.280 . S
O377 Mg360 1.988 . S
O377 C379 1.245 . S
O378 C354 1.247 . S
O378 Mg360 2.061 1_455 S
C379 O375 1.277 . S
C379 O377 1.245 . S
O380 C354 1.289 . S
O380 Mg357 2.238 1_455 S
O380 Mg358 2.106 . S
O381 Mg358 2.079 . S
O381 C363 1.245 . S
O382 Mg361 2.038 . S
O382 C363 1.274 . S
C383 O395 1.241 . S
C383 O396 1.280 . S
C384 O397 1.277 . S
C384 O398 1.245 . S
C385 O409 1.247 . S
C385 O411 1.289 . S
Mg386 O387 1.926 . S
Mg386 O396 1.984 . S
Mg386 O398 1.988 . S
Mg386 O399 2.061 . S
O387 Mg386 1.926 . S
O387 Mg388 1.986 . S
O387 Mg389 1.917 . S
Mg388 O387 1.986 . S
Mg388 O395 2.042 . S
Mg388 O397 2.041 . S
Mg388 O403 2.038 . S
Mg388 O411 2.238 . S
Mg389 O387 1.917 . S
Mg389 O390 1.917 . S
Mg389 O400 2.106 . S
Mg389 O402 2.079 . S
Mg389 O411 2.106 . S
Mg389 O412 2.079 . S
O390 Mg389 1.917 . S
O390 Mg391 1.926 . S
O390 Mg392 1.986 . S
Mg391 O390 1.926 . S
Mg391 O405 1.984 . S
Mg391 O408 1.988 . S
Mg391 O409 2.061 . S
Mg392 O390 1.986 . S
Mg392 O400 2.238 . S
Mg392 O404 2.042 . S
Mg392 O406 2.041 . S
Mg392 O413 2.038 . S
C393 O399 1.247 . S
C393 O400 1.289 . S
C394 O412 1.245 . S
C394 O413 1.274 . S
O395 C383 1.241 . S
O395 Mg388 2.042 . S
O396 C383 1.280 . S
O396 Mg386 1.984 . S
O397 C384 1.277 . S
O397 Mg388 2.041 . S
O398 C384 1.245 . S
O398 Mg386 1.988 . S
O399 Mg386 2.061 . S
O399 C393 1.247 . S
O400 Mg389 2.106 . S
O400 Mg392 2.238 . S
O400 C393 1.289 . S
C401 O402 1.245 . S
C401 O403 1.274 . S
O402 Mg389 2.079 . S
O402 C401 1.245 . S
O403 Mg388 2.038 . S
O403 C401 1.274 . S
O404 Mg392 2.042 . S
O404 C407 1.241 . S
O405 Mg391 1.984 . S
O405 C407 1.280 . S
O406 Mg392 2.041 . S
O406 C410 1.277 . S
C407 O404 1.241 . S
C407 O405 1.280 . S
O408 Mg391 1.988 . S
O408 C410 1.245 . S
O409 C385 1.247 . S
O409 Mg391 2.061 . S
C410 O406 1.277 . S
C410 O408 1.245 . S
O411 C385 1.289 . S
O411 Mg388 2.238 . S
O411 Mg389 2.106 . S
O412 Mg389 2.079 . S
O412 C394 1.245 . S
O413 Mg392 2.038 . S
O413 C394 1.274 . S
C414 O426 1.241 . S
C414 O427 1.280 . S
C415 O428 1.277 . S
C415 O429 1.245 . S
C416 O440 1.247 . S
C416 O442 1.289 . S
Mg417 O418 1.926 1_455 S
Mg417 O427 1.984 1_455 S
Mg417 O429 1.988 . S
Mg417 O430 2.061 . S
O418 Mg417 1.926 1_655 S
O418 Mg419 1.986 . S
O418 Mg420 1.917 1_655 S
Mg419 O418 1.986 . S
Mg419 O426 2.042 . S
Mg419 O428 2.041 1_655 S
Mg419 O434 2.038 . S
Mg419 O442 2.238 1_655 S
Mg420 O418 1.917 1_455 S
Mg420 O421 1.917 . S
Mg420 O431 2.104 1_455 S
Mg420 O433 2.079 1_455 S
Mg420 O442 2.106 . S
Mg420 O443 2.079 . S
O421 Mg420 1.917 . S
O421 Mg422 1.926 1_455 S
O421 Mg423 1.986 . S
Mg422 O421 1.926 1_655 S
Mg422 O436 1.984 1_655 S
Mg422 O439 1.988 . S
Mg422 O440 2.061 1_655 S
Mg423 O421 1.986 . S
Mg423 O431 2.226 1_455 S
Mg423 O435 2.042 . S
Mg423 O437 2.041 1_455 S
Mg423 O444 2.038 . S
C424 O430 1.247 1_655 S
C424 O431 1.294 . S
C425 O443 1.245 . S
C425 O444 1.274 . S
O426 C414 1.241 . S
O426 Mg419 2.042 . S
O427 C414 1.280 . S
O427 Mg417 1.984 1_655 S
O428 C415 1.277 . S
O428 Mg419 2.041 1_455 S
O429 C415 1.245 . S
O429 Mg417 1.988 . S
O430 Mg417 2.061 . S
O430 C424 1.247 1_455 S
O431 Mg420 2.104 1_655 S
O431 Mg423 2.226 1_655 S
O431 C424 1.294 . S
C432 O433 1.245 . S
C432 O434 1.274 . S
O433 Mg420 2.079 1_655 S
O433 C432 1.245 . S
O434 Mg419 2.038 . S
O434 C432 1.274 . S
O435 Mg423 2.042 . S
O435 C438 1.241 . S
O436 Mg422 1.984 1_455 S
O436 C438 1.280 . S
O437 Mg423 2.041 1_655 S
O437 C441 1.277 . S
C438 O435 1.241 . S
C438 O436 1.280 . S
O439 Mg422 1.988 . S
O439 C441 1.245 . S
O440 C416 1.247 . S
O440 Mg422 2.061 1_455 S
C441 O437 1.277 . S
C441 O439 1.245 . S
O442 C416 1.289 . S
O442 Mg419 2.238 1_455 S
O442 Mg420 2.106 . S
O443 Mg420 2.079 . S
O443 C425 1.245 . S
O444 Mg423 2.038 . S
O444 C425 1.274 . S
C445 O457 1.241 . S
C445 O458 1.280 . S
C446 O459 1.277 . S
C446 O460 1.245 . S
C447 O471 1.247 . S
C447 O473 1.289 . S
Mg448 O449 1.926 1_565 S
Mg448 O458 1.984 1_565 S
Mg448 O460 1.988 . S
Mg448 O461 2.061 1_565 S
O449 Mg448 1.926 1_545 S
O449 Mg450 1.986 . S
O449 Mg451 1.920 . S
Mg450 O449 1.986 . S
Mg450 O457 2.042 . S
Mg450 O459 2.041 1_545 S
Mg450 O465 2.038 . S
Mg450 O473 2.238 1_545 S
Mg451 O449 1.920 . S
Mg451 O452 1.914 1_545 S
Mg451 O462 2.108 . S
Mg451 O464 2.093 . S
Mg451 O473 2.105 1_545 S
Mg451 O474 2.064 1_545 S
O452 Mg451 1.914 1_565 S
O452 Mg453 1.926 1_565 S
O452 Mg454 1.986 . S
Mg453 O452 1.926 1_545 S
Mg453 O467 1.984 1_545 S
Mg453 O470 1.988 . S
Mg453 O471 2.061 1_545 S
Mg454 O452 1.986 . S
Mg454 O462 2.238 1_565 S
Mg454 O466 2.042 . S
Mg454 O468 2.041 1_565 S
Mg454 O475 2.038 . S
C455 O461 1.247 . S
C455 O462 1.289 . S
C456 O474 1.245 . S
C456 O475 1.274 . S
O457 C445 1.241 . S
O457 Mg450 2.042 . S
O458 C445 1.280 . S
O458 Mg448 1.984 1_545 S
O459 C446 1.277 . S
O459 Mg450 2.041 1_565 S
O460 C446 1.245 . S
O460 Mg448 1.988 . S
O461 Mg448 2.061 1_545 S
O461 C455 1.247 . S
O462 Mg451 2.108 . S
O462 Mg454 2.238 1_545 S
O462 C455 1.289 . S
C463 O464 1.245 . S
C463 O465 1.274 . S
O464 Mg451 2.093 . S
O464 C463 1.245 . S
O465 Mg450 2.038 . S
O465 C463 1.274 . S
O466 Mg454 2.042 . S
O466 C469 1.241 . S
O467 Mg453 1.984 1_565 S
O467 C469 1.280 . S
O468 Mg454 2.041 1_545 S
O468 C472 1.277 . S
C469 O466 1.241 . S
C469 O467 1.280 . S
O470 Mg453 1.988 . S
O470 C472 1.245 . S
O471 C447 1.247 . S
O471 Mg453 2.061 1_565 S
C472 O468 1.277 . S
C472 O470 1.245 . S
O473 C447 1.289 . S
O473 Mg450 2.238 1_565 S
O473 Mg451 2.105 1_565 S
O474 Mg451 2.064 1_565 S
O474 C456 1.245 . S
O475 Mg454 2.038 . S
O475 C456 1.274 . S
C476 O488 1.241 . S
C476 O489 1.280 . S
C477 O490 1.277 . S
C477 O491 1.245 . S
C478 O502 1.247 . S
C478 O504 1.289 . S
Mg479 O480 1.915 1_554 S
Mg479 O489 1.984 1_554 S
Mg479 O491 1.988 . S
Mg479 O492 2.061 . S
O480 Mg479 1.915 1_556 S
O480 Mg481 1.998 . S
O480 Mg482 1.915 1_556 S
Mg481 O480 1.998 . S
Mg481 O488 2.042 . S
Mg481 O490 2.041 1_556 S
Mg481 O496 2.038 . S
Mg481 O504 2.238 . S
Mg482 O480 1.915 1_554 S
Mg482 O483 1.917 . S
Mg482 O493 2.106 . S
Mg482 O495 2.079 1_554 S
Mg482 O504 2.106 1_554 S
Mg482 O505 2.079 . S
O483 Mg482 1.917 . S
O483 Mg484 1.926 1_554 S
O483 Mg485 1.986 . S
Mg484 O483 1.926 1_556 S
Mg484 O498 1.984 1_556 S
Mg484 O501 1.988 . S
Mg484 O502 2.061 . S
Mg485 O483 1.986 . S
Mg485 O493 2.238 . S
Mg485 O497 2.042 . S
Mg485 O499 2.041 . S
Mg485 O506 2.038 . S
C486 O492 1.247 . S
C486 O493 1.289 . S
C487 O505 1.245 . S
C487 O506 1.274 . S
O488 C476 1.241 . S
O488 Mg481 2.042 . S
O489 C476 1.280 . S
O489 Mg479 1.984 1_556 S
O490 C477 1.277 . S
O490 Mg481 2.041 1_554 S
O491 C477 1.245 . S
O491 Mg479 1.988 . S
O492 Mg479 2.061 . S
O492 C486 1.247 . S
O493 Mg482 2.106 . S
O493 Mg485 2.238 . S
O493 C486 1.289 . S
C494 O495 1.245 . S
C494 O496 1.274 . S
O495 Mg482 2.079 1_556 S
O495 C494 1.245 . S
O496 Mg481 2.038 . S
O496 C494 1.274 . S
O497 Mg485 2.042 . S
O497 C500 1.241 . S
O498 Mg484 1.984 1_554 S
O498 C500 1.280 . S
O499 Mg485 2.041 . S
O499 C503 1.277 1_554 S
C500 O497 1.241 . S
C500 O498 1.280 . S
O501 Mg484 1.988 . S
O501 C503 1.245 . S
O502 C478 1.247 . S
O502 Mg484 2.061 . S
C503 O499 1.277 1_556 S
C503 O501 1.245 . S
O504 C478 1.289 . S
O504 Mg481 2.238 . S
O504 Mg482 2.106 1_556 S
O505 Mg482 2.079 . S
O505 C487 1.245 . S
O506 Mg485 2.038 . S
O506 C487 1.274 . S
C507 O519 1.241 . S
C507 O520 1.280 . S
C508 O521 1.277 . S
C508 O522 1.245 . S
C509 O533 1.247 . S
C509 O535 1.289 . S
Mg510 O511 1.926 . S
Mg510 O520 1.984 . S
Mg510 O522 1.988 . S
Mg510 O523 2.061 . S
O511 Mg510 1.926 . S
O511 Mg512 1.986 . S
O511 Mg513 1.917 . S
Mg512 O511 1.986 . S
Mg512 O519 2.042 . S
Mg512 O521 2.041 . S
Mg512 O527 2.038 . S
Mg512 O535 2.238 . S
Mg513 O511 1.917 . S
Mg513 O514 1.917 . S
Mg513 O524 2.106 . S
Mg513 O526 2.079 . S
Mg513 O535 2.106 . S
Mg513 O536 2.079 . S
O514 Mg513 1.917 . S
O514 Mg515 1.926 . S
O514 Mg516 1.986 . S
Mg515 O514 1.926 . S
Mg515 O529 1.984 . S
Mg515 O532 1.988 . S
Mg515 O533 2.061 . S
Mg516 O514 1.986 . S
Mg516 O524 2.238 . S
Mg516 O528 2.042 . S
Mg516 O530 2.041 . S
Mg516 O537 2.038 . S
C517 O523 1.247 . S
C517 O524 1.289 . S
C518 O536 1.245 . S
C518 O537 1.274 . S
O519 C507 1.241 . S
O519 Mg512 2.042 . S
O520 C507 1.280 . S
O520 Mg510 1.984 . S
O521 C508 1.277 . S
O521 Mg512 2.041 . S
O522 C508 1.245 . S
O522 Mg510 1.988 . S
O523 Mg510 2.061 . S
O523 C517 1.247 . S
O524 Mg513 2.106 . S
O524 Mg516 2.238 . S
O524 C517 1.289 . S
C525 O526 1.245 . S
C525 O527 1.274 . S
O526 Mg513 2.079 . S
O526 C525 1.245 . S
O527 Mg512 2.038 . S
O527 C525 1.274 . S
O528 Mg516 2.042 . S
O528 C531 1.241 . S
O529 Mg515 1.984 . S
O529 C531 1.280 . S
O530 Mg516 2.041 . S
O530 C534 1.277 . S
C531 O528 1.241 . S
C531 O529 1.280 . S
O532 Mg515 1.988 . S
O532 C534 1.245 . S
O533 C509 1.247 . S
O533 Mg515 2.061 . S
C534 O530 1.277 . S
C534 O532 1.245 . S
O535 C509 1.289 . S
O535 Mg512 2.238 . S
O535 Mg513 2.106 . S
O536 Mg513 2.079 . S
O536 C518 1.245 . S
O537 Mg516 2.038 . S
O537 C518 1.274 . S
C538 O550 1.241 . S
C538 O551 1.280 . S
C539 O552 1.277 . S
C539 O553 1.245 . S
C540 O564 1.248 1_556 S
C540 O566 1.289 . S
Mg541 O542 1.926 1_556 S
Mg541 O551 1.984 1_556 S
Mg541 O553 1.988 . S
Mg541 O554 2.061 1_556 S
O542 Mg541 1.926 1_554 S
O542 Mg543 1.986 . S
O542 Mg544 1.917 . S
Mg543 O542 1.986 . S
Mg543 O550 2.042 . S
Mg543 O552 2.041 1_554 S
Mg543 O558 2.038 . S
Mg543 O566 2.238 1_554 S
Mg544 O542 1.917 . S
Mg544 O545 1.917 1_554 S
Mg544 O555 2.106 . S
Mg544 O557 2.079 . S
Mg544 O566 2.106 1_554 S
Mg544 O567 2.079 1_554 S
O545 Mg544 1.917 1_556 S
O545 Mg546 1.926 1_556 S
O545 Mg547 1.986 . S
Mg546 O545 1.926 1_554 S
Mg546 O560 1.984 1_554 S
Mg546 O563 1.988 . S
Mg546 O564 2.061 . S
Mg547 O545 1.986 . S
Mg547 O555 2.238 1_556 S
Mg547 O559 2.042 . S
Mg547 O561 2.041 1_556 S
Mg547 O568 2.038 . S
C548 O554 1.248 . S
C548 O555 1.289 . S
C549 O567 1.245 . S
C549 O568 1.274 . S
O550 C538 1.241 . S
O550 Mg543 2.042 . S
O551 C538 1.280 . S
O551 Mg541 1.984 1_554 S
O552 C539 1.277 . S
O552 Mg543 2.041 1_556 S
O553 C539 1.245 . S
O553 Mg541 1.988 . S
O554 Mg541 2.061 1_554 S
O554 C548 1.248 . S
O555 Mg544 2.106 . S
O555 Mg547 2.238 1_554 S
O555 C548 1.289 . S
C556 O557 1.245 . S
C556 O558 1.274 . S
O557 Mg544 2.079 . S
O557 C556 1.245 . S
O558 Mg543 2.038 . S
O558 C556 1.274 . S
O559 Mg547 2.042 . S
O559 C562 1.241 . S
O560 Mg546 1.984 1_556 S
O560 C562 1.280 . S
O561 Mg547 2.041 1_554 S
O561 C565 1.277 . S
C562 O559 1.241 . S
C562 O560 1.280 . S
O563 Mg546 1.988 . S
O563 C565 1.245 . S
O564 C540 1.248 1_554 S
O564 Mg546 2.061 . S
C565 O561 1.277 . S
C565 O563 1.245 . S
O566 C540 1.289 . S
O566 Mg543 2.238 1_556 S
O566 Mg544 2.106 1_556 S
O567 Mg544 2.079 1_556 S
O567 C549 1.245 . S
O568 Mg547 2.038 . S
O568 C549 1.274 . S
C569 O581 1.241 . S
C569 O582 1.280 . S
C570 O583 1.277 . S
C570 O584 1.245 . S
C571 O595 1.247 . S
C571 O597 1.289 . S
Mg572 O573 1.926 . S
Mg572 O582 1.984 . S
Mg572 O584 1.988 . S
Mg572 O585 2.061 . S
O573 Mg572 1.926 . S
O573 Mg574 1.986 . S
O573 Mg575 1.917 . S
Mg574 O573 1.986 . S
Mg574 O581 2.042 . S
Mg574 O583 2.041 . S
Mg574 O589 2.038 . S
Mg574 O597 2.238 . S
Mg575 O573 1.917 . S
Mg575 O576 1.917 . S
Mg575 O586 2.106 . S
Mg575 O588 2.079 . S
Mg575 O597 2.106 . S
Mg575 O598 2.079 . S
O576 Mg575 1.917 . S
O576 Mg577 1.926 . S
O576 Mg578 1.986 . S
Mg577 O576 1.926 . S
Mg577 O591 1.984 . S
Mg577 O594 1.988 . S
Mg577 O595 2.061 . S
Mg578 O576 1.986 . S
Mg578 O586 2.238 . S
Mg578 O590 2.042 . S
Mg578 O592 2.041 . S
Mg578 O599 2.038 . S
C579 O585 1.247 . S
C579 O586 1.289 . S
C580 O598 1.245 . S
C580 O599 1.274 . S
O581 C569 1.241 . S
O581 Mg574 2.042 . S
O582 C569 1.280 . S
O582 Mg572 1.984 . S
O583 C570 1.277 . S
O583 Mg574 2.041 . S
O584 C570 1.245 . S
O584 Mg572 1.988 . S
O585 Mg572 2.061 . S
O585 C579 1.247 . S
O586 Mg575 2.106 . S
O586 Mg578 2.238 . S
O586 C579 1.289 . S
C587 O588 1.245 . S
C587 O589 1.274 . S
O588 Mg575 2.079 . S
O588 C587 1.245 . S
O589 Mg574 2.038 . S
O589 C587 1.274 . S
O590 Mg578 2.042 . S
O590 C593 1.241 . S
O591 Mg577 1.984 . S
O591 C593 1.280 . S
O592 Mg578 2.041 . S
O592 C596 1.277 . S
C593 O590 1.241 . S
C593 O591 1.280 . S
O594 Mg577 1.988 . S
O594 C596 1.245 . S
O595 C571 1.247 . S
O595 Mg577 2.061 . S
C596 O592 1.277 . S
C596 O594 1.245 . S
O597 C571 1.289 . S
O597 Mg574 2.238 . S
O597 Mg575 2.106 . S
O598 Mg575 2.079 . S
O598 C580 1.245 . S
O599 Mg578 2.038 . S
O599 C580 1.274 . S
C600 O612 1.241 . S
C600 O613 1.280 . S
C601 O614 1.277 . S
C601 O615 1.245 . S
C602 O626 1.247 . S
C602 O628 1.289 . S
Mg603 O604 1.926 . S
Mg603 O613 1.984 . S
Mg603 O615 1.988 . S
Mg603 O616 2.061 . S
O604 Mg603 1.926 . S
O604 Mg605 1.986 . S
O604 Mg606 1.917 . S
Mg605 O604 1.986 . S
Mg605 O612 2.042 . S
Mg605 O614 2.041 . S
Mg605 O620 2.038 . S
Mg605 O628 2.238 . S
Mg606 O604 1.917 . S
Mg606 O607 1.917 . S
Mg606 O617 2.106 . S
Mg606 O619 2.079 . S
Mg606 O628 2.106 . S
Mg606 O629 2.079 . S
O607 Mg606 1.917 . S
O607 Mg608 1.926 . S
O607 Mg609 1.986 . S
Mg608 O607 1.926 . S
Mg608 O622 1.984 . S
Mg608 O625 1.988 . S
Mg608 O626 2.061 . S
Mg609 O607 1.986 . S
Mg609 O617 2.238 . S
Mg609 O621 2.042 . S
Mg609 O623 2.041 . S
Mg609 O630 2.038 . S
C610 O616 1.247 . S
C610 O617 1.289 . S
C611 O629 1.245 . S
C611 O630 1.274 . S
O612 C600 1.241 . S
O612 Mg605 2.042 . S
O613 C600 1.280 . S
O613 Mg603 1.984 . S
O614 C601 1.277 . S
O614 Mg605 2.041 . S
O615 C601 1.245 . S
O615 Mg603 1.988 . S
O616 Mg603 2.061 . S
O616 C610 1.247 . S
O617 Mg606 2.106 . S
O617 Mg609 2.238 . S
O617 C610 1.289 . S
C618 O619 1.245 . S
C618 O620 1.274 . S
O619 Mg606 2.079 . S
O619 C618 1.245 . S
O620 Mg605 2.038 . S
O620 C618 1.274 . S
O621 Mg609 2.042 . S
O621 C624 1.241 . S
O622 Mg608 1.984 . S
O622 C624 1.280 . S
O623 Mg609 2.041 . S
O623 C627 1.277 . S
C624 O621 1.241 . S
C624 O622 1.280 . S
O625 Mg608 1.988 . S
O625 C627 1.245 . S
O626 C602 1.247 . S
O626 Mg608 2.061 . S
C627 O623 1.277 . S
C627 O625 1.245 . S
O628 C602 1.289 . S
O628 Mg605 2.238 . S
O628 Mg606 2.106 . S
O629 Mg606 2.079 . S
O629 C611 1.245 . S
O630 Mg609 2.038 . S
O630 C611 1.274 . S
C631 O643 1.241 . S
C631 O644 1.280 . S
C632 O645 1.277 . S
C632 O646 1.245 . S
C633 O657 1.247 . S
C633 O659 1.289 . S
Mg634 O635 1.926 . S
Mg634 O644 1.984 . S
Mg634 O646 1.988 . S
Mg634 O647 2.061 . S
O635 Mg634 1.926 . S
O635 Mg636 1.986 . S
O635 Mg637 1.917 . S
Mg636 O635 1.986 . S
Mg636 O643 2.042 . S
Mg636 O645 2.041 . S
Mg636 O651 2.038 . S
Mg636 O659 2.238 . S
Mg637 O635 1.917 . S
Mg637 O638 1.917 . S
Mg637 O648 2.106 . S
Mg637 O650 2.079 . S
Mg637 O659 2.106 . S
Mg637 O660 2.079 . S
O638 Mg637 1.917 . S
O638 Mg639 1.926 . S
O638 Mg640 1.986 . S
Mg639 O638 1.926 . S
Mg639 O653 1.984 . S
Mg639 O656 1.988 . S
Mg639 O657 2.061 . S
Mg640 O638 1.986 . S
Mg640 O648 2.238 . S
Mg640 O652 2.042 . S
Mg640 O654 2.041 . S
Mg640 O661 2.038 . S
C641 O647 1.247 . S
C641 O648 1.289 . S
C642 O660 1.245 . S
C642 O661 1.274 . S
O643 C631 1.241 . S
O643 Mg636 2.042 . S
O644 C631 1.280 . S
O644 Mg634 1.984 . S
O645 C632 1.277 . S
O645 Mg636 2.041 . S
O646 C632 1.245 . S
O646 Mg634 1.988 . S
O647 Mg634 2.061 . S
O647 C641 1.247 . S
O648 Mg637 2.106 . S
O648 Mg640 2.238 . S
O648 C641 1.289 . S
C649 O650 1.245 . S
C649 O651 1.274 . S
O650 Mg637 2.079 . S
O650 C649 1.245 . S
O651 Mg636 2.038 . S
O651 C649 1.274 . S
O652 Mg640 2.042 . S
O652 C655 1.241 . S
O653 Mg639 1.984 . S
O653 C655 1.280 . S
O654 Mg640 2.041 . S
O654 C658 1.277 . S
C655 O652 1.241 . S
C655 O653 1.280 . S
O656 Mg639 1.988 . S
O656 C658 1.245 . S
O657 C633 1.247 . S
O657 Mg639 2.061 . S
C658 O654 1.277 . S
C658 O656 1.245 . S
O659 C633 1.289 . S
O659 Mg636 2.238 . S
O659 Mg637 2.106 . S
O660 Mg637 2.079 . S
O660 C642 1.245 . S
O661 Mg640 2.038 . S
O661 C642 1.274 . S
C662 O674 1.241 . S
C662 O675 1.280 . S
C663 O676 1.277 . S
C663 O677 1.245 . S
C664 O688 1.247 . S
C664 O690 1.289 . S
Mg665 O666 1.926 1_565 S
Mg665 O675 1.984 1_565 S
Mg665 O677 1.988 . S
Mg665 O678 2.061 1_565 S
O666 Mg665 1.926 1_545 S
O666 Mg667 1.986 . S
O666 Mg668 1.922 . S
Mg667 O666 1.986 . S
Mg667 O674 2.042 . S
Mg667 O676 2.041 1_545 S
Mg667 O682 2.038 . S
Mg667 O690 2.238 1_545 S
Mg668 O666 1.922 . S
Mg668 O669 1.912 1_545 S
Mg668 O679 2.109 . S
Mg668 O681 2.102 . S
Mg668 O690 2.104 1_545 S
Mg668 O691 2.055 1_545 S
O669 Mg668 1.912 1_565 S
O669 Mg670 1.926 1_565 S
O669 Mg671 1.986 . S
Mg670 O669 1.926 1_545 S
Mg670 O684 1.984 1_545 S
Mg670 O687 1.988 . S
Mg670 O688 2.061 1_545 S
Mg671 O669 1.986 . S
Mg671 O679 2.238 1_565 S
Mg671 O683 2.042 . S
Mg671 O685 2.041 1_565 S
Mg671 O692 2.038 . S
C672 O678 1.247 . S
C672 O679 1.289 . S
C673 O691 1.245 . S
C673 O692 1.274 . S
O674 C662 1.241 . S
O674 Mg667 2.042 . S
O675 C662 1.280 . S
O675 Mg665 1.984 1_545 S
O676 C663 1.277 . S
O676 Mg667 2.041 1_565 S
O677 C663 1.245 . S
O677 Mg665 1.988 . S
O678 Mg665 2.061 1_545 S
O678 C672 1.247 . S
O679 Mg668 2.109 . S
O679 Mg671 2.238 1_545 S
O679 C672 1.289 . S
C680 O681 1.245 . S
C680 O682 1.274 . S
O681 Mg668 2.102 . S
O681 C680 1.245 . S
O682 Mg667 2.038 . S
O682 C680 1.274 . S
O683 Mg671 2.042 . S
O683 C686 1.241 . S
O684 Mg670 1.984 1_565 S
O684 C686 1.280 . S
O685 Mg671 2.041 1_545 S
O685 C689 1.277 . S
C686 O683 1.241 . S
C686 O684 1.280 . S
O687 Mg670 1.988 . S
O687 C689 1.245 . S
O688 C664 1.247 . S
O688 Mg670 2.061 1_565 S
C689 O685 1.277 . S
C689 O687 1.245 . S
O690 C664 1.289 . S
O690 Mg667 2.238 1_565 S
O690 Mg668 2.104 1_565 S
O691 Mg668 2.055 1_565 S
O691 C673 1.245 . S
O692 Mg671 2.038 . S
O692 C673 1.274 . S
C693 O705 1.241 . S
C693 O706 1.280 . S
C694 O707 1.277 . S
C694 O708 1.245 . S
C695 O719 1.247 . S
C695 O721 1.289 . S
Mg696 O697 1.926 . S
Mg696 O706 1.984 . S
Mg696 O708 1.988 . S
Mg696 O709 2.061 . S
O697 Mg696 1.926 . S
O697 Mg698 1.986 . S
O697 Mg699 1.917 . S
Mg698 O697 1.986 . S
Mg698 O705 2.042 . S
Mg698 O707 2.041 . S
Mg698 O713 2.038 . S
Mg698 O721 2.238 . S
Mg699 O697 1.917 . S
Mg699 O700 1.917 . S
Mg699 O710 2.106 . S
Mg699 O712 2.079 . S
Mg699 O721 2.106 . S
Mg699 O722 2.079 . S
O700 Mg699 1.917 . S
O700 Mg701 1.926 . S
O700 Mg702 1.986 . S
Mg701 O700 1.926 . S
Mg701 O715 1.984 . S
Mg701 O718 1.988 . S
Mg701 O719 2.061 . S
Mg702 O700 1.986 . S
Mg702 O710 2.238 . S
Mg702 O714 2.042 . S
Mg702 O716 2.041 . S
Mg702 O723 2.038 . S
C703 O709 1.247 . S
C703 O710 1.289 . S
C704 O722 1.245 . S
C704 O723 1.274 . S
O705 C693 1.241 . S
O705 Mg698 2.042 . S
O706 C693 1.280 . S
O706 Mg696 1.984 . S
O707 C694 1.277 . S
O707 Mg698 2.041 . S
O708 C694 1.245 . S
O708 Mg696 1.988 . S
O709 Mg696 2.061 . S
O709 C703 1.247 . S
O710 Mg699 2.106 . S
O710 Mg702 2.238 . S
O710 C703 1.289 . S
C711 O712 1.245 . S
C711 O713 1.274 . S
O712 Mg699 2.079 . S
O712 C711 1.245 . S
O713 Mg698 2.038 . S
O713 C711 1.274 . S
O714 Mg702 2.042 . S
O714 C717 1.241 . S
O715 Mg701 1.984 . S
O715 C717 1.280 . S
O716 Mg702 2.041 . S
O716 C720 1.277 . S
C717 O714 1.241 . S
C717 O715 1.280 . S
O718 Mg701 1.988 . S
O718 C720 1.245 . S
O719 C695 1.247 . S
O719 Mg701 2.061 . S
C720 O716 1.277 . S
C720 O718 1.245 . S
O721 C695 1.289 . S
O721 Mg698 2.238 . S
O721 Mg699 2.106 . S
O722 Mg699 2.079 . S
O722 C704 1.245 . S
O723 Mg702 2.038 . S
O723 C704 1.274 . S
H724 C732 0.950 . S
H725 C737 0.950 . S
H726 C734 0.950 . S
H727 C736 0.950 . S
H728 C738 0.950 . S
H729 C740 0.950 . S
H730 C742 0.950 . S
H731 C743 0.950 . S
C732 H724 0.950 . S
C732 C733 1.386 . S
C732 C734 1.391 . S
C733 C732 1.386 . S
C733 C737 1.393 . S
C734 H726 0.950 . S
C734 C732 1.391 . S
C734 C735 1.400 . S
C735 C734 1.400 . S
C735 C736 1.398 . S
C735 C741 1.491 . S
C736 H727 0.950 . S
C736 C735 1.398 . S
C736 C737 1.391 . S
C737 H725 0.950 . S
C737 C733 1.393 . S
C737 C736 1.391 . S
C738 H728 0.950 . S
C738 C739 1.386 . S
C738 C740 1.391 . S
C739 C738 1.386 . S
C739 C743 1.393 . S
C740 H729 0.950 . S
C740 C738 1.391 . S
C740 C741 1.400 . S
C741 C735 1.491 . S
C741 C740 1.400 . S
C741 C742 1.398 . S
C742 H730 0.950 . S
C742 C741 1.398 . S
C742 C743 1.391 . S
C743 H731 0.950 . S
C743 C739 1.393 . S
C743 C742 1.391 . S
H744 C752 0.950 . S
H745 C757 0.950 . S
H746 C754 0.950 . S
H747 C756 0.950 . S
H748 C758 0.950 . S
H749 C760 0.950 . S
H750 C762 0.950 . S
H751 C763 0.950 . S
C752 H744 0.950 . S
C752 C753 1.386 . S
C752 C754 1.391 . S
C753 C752 1.386 . S
C753 C757 1.393 . S
C754 H746 0.950 . S
C754 C752 1.391 . S
C754 C755 1.400 . S
C755 C754 1.400 . S
C755 C756 1.398 . S
C755 C761 1.491 . S
C756 H747 0.950 . S
C756 C755 1.398 . S
C756 C757 1.391 . S
C757 H745 0.950 . S
C757 C753 1.393 . S
C757 C756 1.391 . S
C758 H748 0.950 . S
C758 C759 1.386 . S
C758 C760 1.391 . S
C759 C758 1.386 . S
C759 C763 1.393 . S
C760 H749 0.950 . S
C760 C758 1.391 . S
C760 C761 1.400 . S
C761 C755 1.491 . S
C761 C760 1.400 . S
C761 C762 1.398 . S
C762 H750 0.950 . S
C762 C761 1.398 . S
C762 C763 1.391 . S
C763 H751 0.950 . S
C763 C759 1.393 . S
C763 C762 1.391 . S
H764 C772 0.950 . S
H765 C777 0.950 . S
H766 C774 0.950 . S
H767 C776 0.950 . S
H768 C778 0.950 . S
H769 C780 0.950 . S
H770 C782 0.950 . S
H771 C783 0.950 . S
C772 H764 0.950 . S
C772 C773 1.386 . S
C772 C774 1.391 . S
C773 C772 1.386 . S
C773 C777 1.393 . S
C774 H766 0.950 . S
C774 C772 1.391 . S
C774 C775 1.400 . S
C775 C774 1.400 . S
C775 C776 1.398 . S
C775 C781 1.491 . S
C776 H767 0.950 . S
C776 C775 1.398 . S
C776 C777 1.391 . S
C777 H765 0.950 . S
C777 C773 1.393 . S
C777 C776 1.391 . S
C778 H768 0.950 . S
C778 C779 1.386 . S
C778 C780 1.391 . S
C779 C778 1.386 . S
C779 C783 1.393 . S
C780 H769 0.950 . S
C780 C778 1.391 . S
C780 C781 1.400 . S
C781 C775 1.491 . S
C781 C780 1.400 . S
C781 C782 1.398 . S
C782 H770 0.950 . S
C782 C781 1.398 . S
C782 C783 1.391 . S
C783 H771 0.950 . S
C783 C779 1.393 . S
C783 C782 1.391 . S
H784 C792 0.950 . S
H785 C797 0.950 . S
H786 C794 0.950 . S
H787 C796 0.950 . S
H788 C798 0.950 . S
H789 C800 0.950 . S
H790 C802 0.950 . S
H791 C803 0.950 . S
C792 H784 0.950 . S
C792 C793 1.386 . S
C792 C794 1.391 . S
C793 C792 1.386 . S
C793 C797 1.393 . S
C794 H786 0.950 . S
C794 C792 1.391 . S
C794 C795 1.400 . S
C795 C794 1.400 . S
C795 C796 1.398 . S
C795 C801 1.491 . S
C796 H787 0.950 . S
C796 C795 1.398 . S
C796 C797 1.391 . S
C797 H785 0.950 . S
C797 C793 1.393 . S
C797 C796 1.391 . S
C798 H788 0.950 . S
C798 C799 1.386 . S
C798 C800 1.391 . S
C799 C798 1.386 . S
C799 C803 1.393 . S
C800 H789 0.950 . S
C800 C798 1.391 . S
C800 C801 1.400 . S
C801 C795 1.491 . S
C801 C800 1.400 . S
C801 C802 1.398 . S
C802 H790 0.950 . S
C802 C801 1.398 . S
C802 C803 1.391 . S
C803 H791 0.950 . S
C803 C799 1.393 . S
C803 C802 1.391 . S
H804 C812 0.950 . S
H805 C817 0.950 . S
H806 C814 0.950 . S
H807 C816 0.950 . S
H808 C818 0.950 . S
H809 C820 0.950 . S
H810 C822 0.950 . S
H811 C823 0.950 . S
C812 H804 0.950 . S
C812 C813 1.386 . S
C812 C814 1.391 . S
C813 C812 1.386 . S
C813 C817 1.393 . S
C814 H806 0.950 . S
C814 C812 1.391 . S
C814 C815 1.400 . S
C815 C814 1.400 . S
C815 C816 1.398 . S
C815 C821 1.491 . S
C816 H807 0.950 . S
C816 C815 1.398 . S
C816 C817 1.391 . S
C817 H805 0.950 . S
C817 C813 1.393 . S
C817 C816 1.391 . S
C818 H808 0.950 . S
C818 C819 1.386 . S
C818 C820 1.391 . S
C819 C818 1.386 . S
C819 C823 1.393 . S
C820 H809 0.950 . S
C820 C818 1.391 . S
C820 C821 1.400 . S
C821 C815 1.491 . S
C821 C820 1.400 . S
C821 C822 1.398 . S
C822 H810 0.950 . S
C822 C821 1.398 . S
C822 C823 1.391 . S
C823 H811 0.950 . S
C823 C819 1.393 . S
C823 C822 1.391 . S
H824 C832 0.950 . S
H825 C837 0.950 . S
H826 C834 0.950 . S
H827 C836 0.950 . S
H828 C838 0.950 . S
H829 C840 0.950 . S
H830 C842 0.950 . S
H831 C843 0.950 . S
C832 H824 0.950 . S
C832 C833 1.386 . S
C832 C834 1.391 . S
C833 C832 1.386 . S
C833 C837 1.393 . S
C834 H826 0.950 . S
C834 C832 1.391 . S
C834 C835 1.400 . S
C835 C834 1.400 . S
C835 C836 1.398 . S
C835 C841 1.491 . S
C836 H827 0.950 . S
C836 C835 1.398 . S
C836 C837 1.391 . S
C837 H825 0.950 . S
C837 C833 1.393 . S
C837 C836 1.391 . S
C838 H828 0.950 . S
C838 C839 1.386 . S
C838 C840 1.391 . S
C839 C838 1.386 . S
C839 C843 1.393 . S
C840 H829 0.950 . S
C840 C838 1.391 . S
C840 C841 1.400 . S
C841 C835 1.491 . S
C841 C840 1.400 . S
C841 C842 1.398 . S
C842 H830 0.950 . S
C842 C841 1.398 . S
C842 C843 1.391 . S
C843 H831 0.950 . S
C843 C839 1.393 . S
C843 C842 1.391 . S
H844 C852 0.950 . S
H845 C857 0.950 . S
H846 C854 0.950 . S
H847 C856 0.950 . S
H848 C858 0.950 . S
H849 C860 0.950 . S
H850 C862 0.950 . S
H851 C863 0.950 . S
C852 H844 0.950 . S
C852 C853 1.386 . S
C852 C854 1.391 . S
C853 C852 1.386 . S
C853 C857 1.393 . S
C854 H846 0.950 . S
C854 C852 1.391 . S
C854 C855 1.400 . S
C855 C854 1.400 . S
C855 C856 1.398 . S
C855 C861 1.491 . S
C856 H847 0.950 . S
C856 C855 1.398 . S
C856 C857 1.391 . S
C857 H845 0.950 . S
C857 C853 1.393 . S
C857 C856 1.391 . S
C858 H848 0.950 . S
C858 C859 1.386 . S
C858 C860 1.391 . S
C859 C858 1.386 . S
C859 C863 1.393 . S
C860 H849 0.950 . S
C860 C858 1.391 . S
C860 C861 1.400 . S
C861 C855 1.491 . S
C861 C860 1.400 . S
C861 C862 1.398 . S
C862 H850 0.950 . S
C862 C861 1.398 . S
C862 C863 1.391 . S
C863 H851 0.950 . S
C863 C859 1.393 . S
C863 C862 1.391 . S
H864 C872 0.950 . S
H865 C877 0.950 . S
H866 C874 0.950 . S
H867 C876 0.950 . S
H868 C878 0.950 . S
H869 C880 0.950 . S
H870 C882 0.950 . S
H871 C883 0.950 . S
C872 H864 0.950 . S
C872 C873 1.386 . S
C872 C874 1.391 . S
C873 C872 1.386 . S
C873 C877 1.393 . S
C874 H866 0.950 . S
C874 C872 1.391 . S
C874 C875 1.400 . S
C875 C874 1.400 . S
C875 C876 1.398 . S
C875 C881 1.491 . S
C876 H867 0.950 . S
C876 C875 1.398 . S
C876 C877 1.391 . S
C877 H865 0.950 . S
C877 C873 1.393 . S
C877 C876 1.391 . S
C878 H868 0.950 . S
C878 C879 1.386 . S
C878 C880 1.391 . S
C879 C878 1.386 . S
C879 C883 1.393 . S
C880 H869 0.950 . S
C880 C878 1.391 . S
C880 C881 1.400 . S
C881 C875 1.491 . S
C881 C880 1.400 . S
C881 C882 1.398 . S
C882 H870 0.950 . S
C882 C881 1.398 . S
C882 C883 1.391 . S
C883 H871 0.950 . S
C883 C879 1.393 . S
C883 C882 1.391 . S
H884 C892 0.950 . S
H885 C897 0.950 . S
H886 C894 0.950 . S
H887 C896 0.950 . S
H888 C898 0.950 . S
H889 C900 0.950 . S
H890 C902 0.950 . S
H891 C903 0.950 . S
C892 H884 0.950 . S
C892 C893 1.386 . S
C892 C894 1.391 . S
C893 C892 1.386 . S
C893 C897 1.393 . S
C894 H886 0.950 . S
C894 C892 1.391 . S
C894 C895 1.400 . S
C895 C894 1.400 . S
C895 C896 1.398 . S
C895 C901 1.491 . S
C896 H887 0.950 . S
C896 C895 1.398 . S
C896 C897 1.391 . S
C897 H885 0.950 . S
C897 C893 1.393 . S
C897 C896 1.391 . S
C898 H888 0.950 . S
C898 C899 1.386 . S
C898 C900 1.391 . S
C899 C898 1.386 . S
C899 C903 1.393 . S
C900 H889 0.950 . S
C900 C898 1.391 . S
C900 C901 1.400 . S
C901 C895 1.491 . S
C901 C900 1.400 . S
C901 C902 1.398 . S
C902 H890 0.950 . S
C902 C901 1.398 . S
C902 C903 1.391 . S
C903 H891 0.950 . S
C903 C899 1.393 . S
C903 C902 1.391 . S
H904 C912 0.950 . S
H905 C917 0.950 . S
H906 C914 0.950 . S
H907 C916 0.950 . S
H908 C918 0.950 . S
H909 C920 0.950 . S
H910 C922 0.950 . S
H911 C923 0.950 . S
C912 H904 0.950 . S
C912 C913 1.386 . S
C912 C914 1.391 . S
C913 C912 1.386 . S
C913 C917 1.393 . S
C914 H906 0.950 . S
C914 C912 1.391 . S
C914 C915 1.400 . S
C915 C914 1.400 . S
C915 C916 1.398 . S
C915 C921 1.491 . S
C916 H907 0.950 . S
C916 C915 1.398 . S
C916 C917 1.391 . S
C917 H905 0.950 . S
C917 C913 1.393 . S
C917 C916 1.391 . S
C918 H908 0.950 . S
C918 C919 1.386 1_545 S
C918 C920 1.391 . S
C919 C918 1.386 1_565 S
C919 C923 1.393 . S
C920 H909 0.950 . S
C920 C918 1.391 . S
C920 C921 1.400 . S
C921 C915 1.491 . S
C921 C920 1.400 . S
C921 C922 1.398 . S
C922 H910 0.950 . S
C922 C921 1.398 . S
C922 C923 1.391 1_545 S
C923 H911 0.950 . S
C923 C919 1.393 . S
C923 C922 1.391 1_565 S
H924 C932 0.950 . S
H925 C937 0.950 . S
H926 C934 0.950 . S
H927 C936 0.950 . S
H928 C938 0.950 . S
H929 C940 0.950 . S
H930 C942 0.950 . S
H931 C943 0.950 . S
C932 H924 0.950 . S
C932 C933 1.386 . S
C932 C934 1.391 . S
C933 C932 1.386 . S
C933 C937 1.393 . S
C934 H926 0.950 . S
C934 C932 1.391 . S
C934 C935 1.400 . S
C935 C934 1.400 . S
C935 C936 1.398 . S
C935 C941 1.491 . S
C936 H927 0.950 . S
C936 C935 1.398 . S
C936 C937 1.391 . S
C937 H925 0.950 . S
C937 C933 1.393 . S
C937 C936 1.391 . S
C938 H928 0.950 . S
C938 C939 1.386 . S
C938 C940 1.391 . S
C939 C938 1.386 . S
C939 C943 1.393 . S
C940 H929 0.950 . S
C940 C938 1.391 . S
C940 C941 1.400 . S
C941 C935 1.491 . S
C941 C940 1.400 . S
C941 C942 1.398 . S
C942 H930 0.950 . S
C942 C941 1.398 . S
C942 C943 1.391 . S
C943 H931 0.950 . S
C943 C939 1.393 . S
C943 C942 1.391 . S
H944 C952 0.950 . S
H945 C957 0.950 . S
H946 C954 0.950 . S
H947 C956 0.950 . S
H948 C958 0.950 . S
H949 C960 0.950 . S
H950 C962 0.950 . S
H951 C963 0.950 . S
C952 H944 0.950 . S
C952 C953 1.386 . S
C952 C954 1.391 . S
C953 C952 1.386 . S
C953 C957 1.393 . S
C954 H946 0.950 . S
C954 C952 1.391 . S
C954 C955 1.400 . S
C955 C954 1.400 . S
C955 C956 1.398 . S
C955 C961 1.491 . S
C956 H947 0.950 . S
C956 C955 1.398 . S
C956 C957 1.391 . S
C957 H945 0.950 . S
C957 C953 1.393 . S
C957 C956 1.391 . S
C958 H948 0.950 . S
C958 C959 1.386 . S
C958 C960 1.391 . S
C959 C958 1.386 . S
C959 C963 1.393 . S
C960 H949 0.950 . S
C960 C958 1.391 . S
C960 C961 1.400 . S
C961 C955 1.491 . S
C961 C960 1.400 . S
C961 C962 1.398 . S
C962 H950 0.950 . S
C962 C961 1.398 . S
C962 C963 1.391 . S
C963 H951 0.950 . S
C963 C959 1.393 . S
C963 C962 1.391 . S
H964 C972 0.950 . S
H965 C977 0.950 . S
H966 C974 0.950 . S
H967 C976 0.950 . S
H968 C978 0.950 . S
H969 C980 0.950 . S
H970 C982 0.950 . S
H971 C983 0.950 . S
C972 H964 0.950 . S
C972 C973 1.386 . S
C972 C974 1.391 . S
C973 C972 1.386 . S
C973 C977 1.393 . S
C974 H966 0.950 . S
C974 C972 1.391 . S
C974 C975 1.400 . S
C975 C974 1.400 . S
C975 C976 1.398 . S
C975 C981 1.491 . S
C976 H967 0.950 . S
C976 C975 1.398 . S
C976 C977 1.391 . S
C977 H965 0.950 . S
C977 C973 1.393 . S
C977 C976 1.391 . S
C978 H968 0.950 . S
C978 C979 1.386 . S
C978 C980 1.391 . S
C979 C978 1.386 . S
C979 C983 1.393 . S
C980 H969 0.950 . S
C980 C978 1.391 . S
C980 C981 1.400 . S
C981 C975 1.491 . S
C981 C980 1.400 . S
C981 C982 1.398 . S
C982 H970 0.950 . S
C982 C981 1.398 . S
C982 C983 1.391 . S
C983 H971 0.950 . S
C983 C979 1.393 . S
C983 C982 1.391 . S
H984 C992 0.950 . S
H985 C997 0.950 . S
H986 C994 0.950 . S
H987 C996 0.950 . S
H988 C998 0.961 . S
H989 C1000 0.950 . S
H990 C1002 0.950 . S
H991 C1003 0.950 . S
C992 H984 0.950 . S
C992 C993 1.386 . S
C992 C994 1.391 . S
C993 C992 1.386 . S
C993 C997 1.393 . S
C994 H986 0.950 . S
C994 C992 1.391 . S
C994 C995 1.400 . S
C995 C994 1.400 . S
C995 C996 1.398 . S
C995 C1001 1.491 . S
C996 H987 0.950 . S
C996 C995 1.398 . S
C996 C997 1.391 . S
C997 H985 0.950 . S
C997 C993 1.393 . S
C997 C996 1.391 . S
C998 H988 0.961 . S
C998 C999 1.386 1_545 S
C998 C1000 1.391 . S
C999 C998 1.386 1_565 S
C999 C1003 1.393 . S
C1000 H989 0.950 . S
C1000 C998 1.391 . S
C1000 C1001 1.400 . S
C1001 C995 1.491 . S
C1001 C1000 1.400 . S
C1001 C1002 1.398 . S
C1002 H990 0.950 . S
C1002 C1001 1.398 . S
C1002 C1003 1.391 1_545 S
C1003 H991 0.950 . S
C1003 C999 1.393 . S
C1003 C1002 1.391 1_565 S
H1004 C1012 0.950 . S
H1005 C1017 0.950 . S
H1006 C1014 0.950 . S
H1007 C1016 0.950 . S
H1008 C1018 0.950 . S
H1009 C1020 0.950 . S
H1010 C1022 0.950 . S
H1011 C1023 0.950 . S
C1012 H1004 0.950 . S
C1012 C1013 1.386 . S
C1012 C1014 1.391 . S
C1013 C1012 1.386 . S
C1013 C1017 1.393 . S
C1014 H1006 0.950 . S
C1014 C1012 1.391 . S
C1014 C1015 1.400 . S
C1015 C1014 1.400 . S
C1015 C1016 1.398 . S
C1015 C1021 1.491 . S
C1016 H1007 0.950 . S
C1016 C1015 1.398 . S
C1016 C1017 1.391 . S
C1017 H1005 0.950 . S
C1017 C1013 1.393 . S
C1017 C1016 1.391 . S
C1018 H1008 0.950 . S
C1018 C1019 1.386 . S
C1018 C1020 1.391 . S
C1019 C1018 1.386 . S
C1019 C1023 1.393 . S
C1020 H1009 0.950 . S
C1020 C1018 1.391 . S
C1020 C1021 1.400 . S
C1021 C1015 1.491 . S
C1021 C1020 1.400 . S
C1021 C1022 1.398 . S
C1022 H1010 0.950 . S
C1022 C1021 1.398 . S
C1022 C1023 1.391 . S
C1023 H1011 0.950 . S
C1023 C1019 1.393 . S
C1023 C1022 1.391 . S
H1024 C1032 0.950 . S
H1025 C1037 0.950 . S
H1026 C1034 0.950 . S
H1027 C1036 0.950 . S
H1028 C1038 0.950 . S
H1029 C1040 0.950 . S
H1030 C1042 0.950 . S
H1031 C1043 0.950 . S
C1032 H1024 0.950 . S
C1032 C1033 1.386 . S
C1032 C1034 1.391 . S
C1033 C1032 1.386 . S
C1033 C1037 1.393 . S
C1034 H1026 0.950 . S
C1034 C1032 1.391 . S
C1034 C1035 1.400 . S
C1035 C1034 1.400 . S
C1035 C1036 1.398 . S
C1035 C1041 1.491 . S
C1036 H1027 0.950 . S
C1036 C1035 1.398 . S
C1036 C1037 1.391 . S
C1037 H1025 0.950 . S
C1037 C1033 1.393 . S
C1037 C1036 1.391 . S
C1038 H1028 0.950 . S
C1038 C1039 1.386 . S
C1038 C1040 1.391 . S
C1039 C1038 1.386 . S
C1039 C1043 1.393 . S
C1040 H1029 0.950 . S
C1040 C1038 1.391 . S
C1040 C1041 1.400 . S
C1041 C1035 1.491 . S
C1041 C1040 1.400 . S
C1041 C1042 1.398 . S
C1042 H1030 0.950 . S
C1042 C1041 1.398 . S
C1042 C1043 1.391 . S
C1043 H1031 0.950 . S
C1043 C1039 1.393 . S
C1043 C1042 1.391 . S
H1044 C1052 0.950 . S
H1045 C1057 0.950 . S
H1046 C1054 0.950 . S
H1047 C1056 0.950 1_556 S
H1048 C1058 0.950 . S
H1049 C1060 0.950 . S
H1050 C1062 0.950 . S
H1051 C1063 0.950 . S
C1052 H1044 0.950 . S
C1052 C1053 1.386 . S
C1052 C1054 1.391 . S
C1053 C1052 1.386 . S
C1053 C1057 1.393 . S
C1054 H1046 0.950 . S
C1054 C1052 1.391 . S
C1054 C1055 1.400 . S
C1055 C1054 1.400 . S
C1055 C1056 1.398 . S
C1055 C1061 1.491 . S
C1056 H1047 0.950 1_554 S
C1056 C1055 1.398 . S
C1056 C1057 1.391 . S
C1057 H1045 0.950 . S
C1057 C1053 1.393 . S
C1057 C1056 1.391 . S
C1058 H1048 0.950 . S
C1058 C1059 1.386 . S
C1058 C1060 1.391 . S
C1059 C1058 1.386 . S
C1059 C1063 1.393 1_556 S
C1060 H1049 0.950 . S
C1060 C1058 1.391 . S
C1060 C1061 1.400 1_556 S
C1061 C1055 1.491 . S
C1061 C1060 1.400 1_554 S
C1061 C1062 1.398 . S
C1062 H1050 0.950 . S
C1062 C1061 1.398 . S
C1062 C1063 1.391 . S
C1063 H1051 0.950 . S
C1063 C1059 1.393 1_554 S
C1063 C1062 1.391 . S
H1064 C1072 0.950 . S
H1065 C1077 0.950 . S
H1066 C1074 0.950 . S
H1067 C1076 0.950 . S
H1068 C1078 0.950 . S
H1069 C1080 0.950 . S
H1070 C1082 0.950 . S
H1071 C1083 0.950 . S
C1072 H1064 0.950 . S
C1072 C1073 1.386 . S
C1072 C1074 1.391 . S
C1073 C1072 1.386 . S
C1073 C1077 1.393 . S
C1074 H1066 0.950 . S
C1074 C1072 1.391 . S
C1074 C1075 1.400 . S
C1075 C1074 1.400 . S
C1075 C1076 1.398 . S
C1075 C1081 1.491 . S
C1076 H1067 0.950 . S
C1076 C1075 1.398 . S
C1076 C1077 1.391 . S
C1077 H1065 0.950 . S
C1077 C1073 1.393 . S
C1077 C1076 1.391 . S
C1078 H1068 0.950 . S
C1078 C1079 1.386 . S
C1078 C1080 1.391 . S
C1079 C1078 1.386 . S
C1079 C1083 1.393 . S
C1080 H1069 0.950 . S
C1080 C1078 1.391 . S
C1080 C1081 1.400 . S
C1081 C1075 1.491 . S
C1081 C1080 1.400 . S
C1081 C1082 1.398 . S
C1082 H1070 0.950 . S
C1082 C1081 1.398 . S
C1082 C1083 1.391 . S
C1083 H1071 0.950 . S
C1083 C1079 1.393 . S
C1083 C1082 1.391 . S
H1084 C1092 0.950 . S
H1085 C1097 0.950 . S
H1086 C1094 0.950 . S
H1087 C1096 0.950 . S
H1088 C1098 0.950 . S
H1089 C1100 0.950 . S
H1090 C1102 0.950 . S
H1091 C1103 0.950 . S
C1092 H1084 0.950 . S
C1092 C1093 1.386 . S
C1092 C1094 1.391 . S
C1093 C1092 1.386 . S
C1093 C1097 1.393 . S
C1094 H1086 0.950 . S
C1094 C1092 1.391 . S
C1094 C1095 1.400 . S
C1095 C1094 1.400 . S
C1095 C1096 1.398 . S
C1095 C1101 1.491 . S
C1096 H1087 0.950 . S
C1096 C1095 1.398 . S
C1096 C1097 1.391 . S
C1097 H1085 0.950 . S
C1097 C1093 1.393 . S
C1097 C1096 1.391 . S
C1098 H1088 0.950 . S
C1098 C1099 1.386 . S
C1098 C1100 1.391 . S
C1099 C1098 1.386 . S
C1099 C1103 1.393 . S
C1100 H1089 0.950 . S
C1100 C1098 1.391 . S
C1100 C1101 1.400 . S
C1101 C1095 1.491 . S
C1101 C1100 1.400 . S
C1101 C1102 1.398 . S
C1102 H1090 0.950 . S
C1102 C1101 1.398 . S
C1102 C1103 1.391 . S
C1103 H1091 0.950 . S
C1103 C1099 1.393 . S
C1103 C1102 1.391 . S
H1104 C1112 0.950 . S
H1105 C1117 0.950 . S
H1106 C1114 0.950 . S
H1107 C1116 0.950 . S
H1108 C1118 0.950 . S
H1109 C1120 0.950 . S
H1110 C1122 0.950 . S
H1111 C1123 0.950 . S
C1112 H1104 0.950 . S
C1112 C1113 1.386 . S
C1112 C1114 1.391 . S
C1113 C1112 1.386 . S
C1113 C1117 1.393 . S
C1114 H1106 0.950 . S
C1114 C1112 1.391 . S
C1114 C1115 1.400 . S
C1115 C1114 1.400 . S
C1115 C1116 1.398 . S
C1115 C1121 1.491 . S
C1116 H1107 0.950 . S
C1116 C1115 1.398 . S
C1116 C1117 1.391 . S
C1117 H1105 0.950 . S
C1117 C1113 1.393 . S
C1117 C1116 1.391 . S
C1118 H1108 0.950 . S
C1118 C1119 1.386 . S
C1118 C1120 1.391 . S
C1119 C1118 1.386 . S
C1119 C1123 1.393 . S
C1120 H1109 0.950 . S
C1120 C1118 1.391 . S
C1120 C1121 1.400 . S
C1121 C1115 1.491 . S
C1121 C1120 1.400 . S
C1121 C1122 1.398 . S
C1122 H1110 0.950 . S
C1122 C1121 1.398 . S
C1122 C1123 1.391 . S
C1123 H1111 0.950 . S
C1123 C1119 1.393 . S
C1123 C1122 1.391 . S
H1124 C1132 0.950 . S
H1125 C1137 0.950 . S
H1126 C1134 0.950 . S
H1127 C1136 0.950 . S
H1128 C1138 0.950 . S
H1129 C1140 0.950 . S
H1130 C1142 0.950 . S
H1131 C1143 0.945 1_455 S
C1132 H1124 0.950 . S
C1132 C1133 1.386 . S
C1132 C1134 1.391 . S
C1133 C1132 1.386 . S
C1133 C1137 1.393 . S
C1134 H1126 0.950 . S
C1134 C1132 1.391 . S
C1134 C1135 1.400 . S
C1135 C1134 1.400 . S
C1135 C1136 1.398 . S
C1135 C1141 1.491 . S
C1136 H1127 0.950 . S
C1136 C1135 1.398 . S
C1136 C1137 1.391 . S
C1137 H1125 0.950 . S
C1137 C1133 1.393 . S
C1137 C1136 1.391 . S
C1138 H1128 0.950 . S
C1138 C1139 1.386 . S
C1138 C1140 1.391 1_455 S
C1139 C1138 1.386 . S
C1139 C1143 1.388 1_455 S
C1140 H1129 0.950 . S
C1140 C1138 1.391 1_655 S
C1140 C1141 1.400 . S
C1141 C1135 1.491 . S
C1141 C1140 1.400 . S
C1141 C1142 1.398 . S
C1142 H1130 0.950 . S
C1142 C1141 1.398 . S
C1142 C1143 1.400 . S
C1143 H1131 0.945 1_655 S
C1143 C1139 1.388 1_655 S
C1143 C1142 1.400 . S
H1144 C1152 0.950 . S
H1145 C1157 0.950 . S
H1146 C1154 0.950 . S
H1147 C1156 0.950 . S
H1148 C1158 0.950 . S
H1149 C1160 0.950 . S
H1150 C1162 0.950 . S
H1151 C1163 0.950 . S
C1152 H1144 0.950 . S
C1152 C1153 1.386 . S
C1152 C1154 1.391 . S
C1153 C1152 1.386 . S
C1153 C1157 1.393 . S
C1154 H1146 0.950 . S
C1154 C1152 1.391 . S
C1154 C1155 1.400 . S
C1155 C1154 1.400 . S
C1155 C1156 1.398 . S
C1155 C1161 1.491 . S
C1156 H1147 0.950 . S
C1156 C1155 1.398 . S
C1156 C1157 1.391 . S
C1157 H1145 0.950 . S
C1157 C1153 1.393 . S
C1157 C1156 1.391 . S
C1158 H1148 0.950 . S
C1158 C1159 1.386 . S
C1158 C1160 1.391 . S
C1159 C1158 1.386 . S
C1159 C1163 1.393 . S
C1160 H1149 0.950 . S
C1160 C1158 1.391 . S
C1160 C1161 1.400 . S
C1161 C1155 1.491 . S
C1161 C1160 1.400 . S
C1161 C1162 1.398 . S
C1162 H1150 0.950 . S
C1162 C1161 1.398 . S
C1162 C1163 1.391 . S
C1163 H1151 0.950 . S
C1163 C1159 1.393 . S
C1163 C1162 1.391 . S
H1164 C1172 0.950 . S
H1165 C1177 0.950 . S
H1166 C1174 0.950 . S
H1167 C1176 0.950 . S
H1168 C1178 0.950 . S
H1169 C1180 0.950 . S
H1170 C1182 0.950 . S
H1171 C1183 0.950 . S
C1172 H1164 0.950 . S
C1172 C1173 1.386 . S
C1172 C1174 1.391 . S
C1173 C1172 1.386 . S
C1173 C1177 1.393 . S
C1174 H1166 0.950 . S
C1174 C1172 1.391 . S
C1174 C1175 1.400 . S
C1175 C1174 1.400 . S
C1175 C1176 1.398 . S
C1175 C1181 1.491 . S
C1176 H1167 0.950 . S
C1176 C1175 1.398 . S
C1176 C1177 1.391 . S
C1177 H1165 0.950 . S
C1177 C1173 1.393 . S
C1177 C1176 1.391 . S
C1178 H1168 0.950 . S
C1178 C1179 1.386 . S
C1178 C1180 1.391 . S
C1179 C1178 1.386 . S
C1179 C1183 1.393 . S
C1180 H1169 0.950 . S
C1180 C1178 1.391 . S
C1180 C1181 1.400 . S
C1181 C1175 1.491 . S
C1181 C1180 1.400 . S
C1181 C1182 1.398 . S
C1182 H1170 0.950 . S
C1182 C1181 1.398 . S
C1182 C1183 1.391 . S
C1183 H1171 0.950 . S
C1183 C1179 1.393 . S
C1183 C1182 1.391 . S
H1184 C1192 0.950 . S
H1185 C1197 0.950 . S
H1186 C1194 0.950 . S
H1187 C1196 0.950 . S
H1188 C1198 0.950 . S
H1189 C1200 0.950 . S
H1190 C1202 0.950 . S
H1191 C1203 0.950 . S
C1192 H1184 0.950 . S
C1192 C1193 1.386 . S
C1192 C1194 1.391 . S
C1193 C1192 1.386 . S
C1193 C1197 1.393 . S
C1194 H1186 0.950 . S
C1194 C1192 1.391 . S
C1194 C1195 1.400 . S
C1195 C1194 1.400 . S
C1195 C1196 1.398 . S
C1195 C1201 1.491 . S
C1196 H1187 0.950 . S
C1196 C1195 1.398 . S
C1196 C1197 1.391 . S
C1197 H1185 0.950 . S
C1197 C1193 1.393 . S
C1197 C1196 1.391 . S
C1198 H1188 0.950 . S
C1198 C1199 1.386 . S
C1198 C1200 1.391 . S
C1199 C1198 1.386 . S
C1199 C1203 1.393 . S
C1200 H1189 0.950 . S
C1200 C1198 1.391 . S
C1200 C1201 1.400 . S
C1201 C1195 1.491 . S
C1201 C1200 1.400 . S
C1201 C1202 1.398 . S
C1202 H1190 0.950 . S
C1202 C1201 1.398 . S
C1202 C1203 1.391 . S
C1203 H1191 0.950 . S
C1203 C1199 1.393 . S
C1203 C1202 1.391 . S
H1204 C1212 0.950 . S
H1205 C1217 0.950 . S
H1206 C1214 0.950 . S
H1207 C1216 0.950 . S
H1208 C1218 0.950 . S
H1209 C1220 0.950 . S
H1210 C1222 0.950 . S
H1211 C1223 0.950 . S
C1212 H1204 0.950 . S
C1212 C1213 1.386 . S
C1212 C1214 1.391 . S
C1213 C1212 1.386 . S
C1213 C1217 1.393 . S
C1214 H1206 0.950 . S
C1214 C1212 1.391 . S
C1214 C1215 1.400 . S
C1215 C1214 1.400 . S
C1215 C1216 1.398 . S
C1215 C1221 1.491 . S
C1216 H1207 0.950 . S
C1216 C1215 1.398 . S
C1216 C1217 1.391 . S
C1217 H1205 0.950 . S
C1217 C1213 1.393 . S
C1217 C1216 1.391 . S
C1218 H1208 0.950 . S
C1218 C1219 1.386 . S
C1218 C1220 1.391 . S
C1219 C1218 1.386 . S
C1219 C1223 1.393 . S
C1220 H1209 0.950 . S
C1220 C1218 1.391 . S
C1220 C1221 1.400 . S
C1221 C1215 1.491 . S
C1221 C1220 1.400 . S
C1221 C1222 1.398 . S
C1222 H1210 0.950 . S
C1222 C1221 1.398 . S
C1222 C1223 1.391 . S
C1223 H1211 0.950 . S
C1223 C1219 1.393 . S
C1223 C1222 1.391 . S
H1224 C1232 0.950 . S
H1225 C1237 0.950 . S
H1226 C1234 0.950 . S
H1227 C1236 0.950 . S
H1228 C1238 0.950 . S
H1229 C1240 0.950 . S
H1230 C1242 0.950 . S
H1231 C1243 0.950 . S
C1232 H1224 0.950 . S
C1232 C1233 1.386 . S
C1232 C1234 1.391 . S
C1233 C1232 1.386 . S
C1233 C1237 1.393 . S
C1234 H1226 0.950 . S
C1234 C1232 1.391 . S
C1234 C1235 1.400 . S
C1235 C1234 1.400 . S
C1235 C1236 1.398 . S
C1235 C1241 1.491 . S
C1236 H1227 0.950 . S
C1236 C1235 1.398 . S
C1236 C1237 1.391 . S
C1237 H1225 0.950 . S
C1237 C1233 1.393 . S
C1237 C1236 1.391 . S
C1238 H1228 0.950 . S
C1238 C1239 1.386 . S
C1238 C1240 1.391 1_556 S
C1239 C1238 1.386 . S
C1239 C1243 1.393 . S
C1240 H1229 0.950 . S
C1240 C1238 1.391 1_554 S
C1240 C1241 1.400 . S
C1241 C1235 1.491 . S
C1241 C1240 1.400 . S
C1241 C1242 1.398 . S
C1242 H1230 0.950 . S
C1242 C1241 1.398 . S
C1242 C1243 1.391 1_554 S
C1243 H1231 0.950 . S
C1243 C1239 1.393 . S
C1243 C1242 1.391 1_556 S
H1244 C1252 0.950 . S
H1245 C1257 0.950 . S
H1246 C1254 0.950 . S
H1247 C1256 0.950 . S
H1248 C1258 0.950 . S
H1249 C1260 0.950 . S
H1250 C1262 0.950 . S
H1251 C1263 0.950 . S
C1252 H1244 0.950 . S
C1252 C1253 1.386 . S
C1252 C1254 1.391 . S
C1253 C1252 1.386 . S
C1253 C1257 1.393 . S
C1254 H1246 0.950 . S
C1254 C1252 1.391 . S
C1254 C1255 1.400 . S
C1255 C1254 1.400 . S
C1255 C1256 1.398 . S
C1255 C1261 1.491 . S
C1256 H1247 0.950 . S
C1256 C1255 1.398 . S
C1256 C1257 1.391 . S
C1257 H1245 0.950 . S
C1257 C1253 1.393 . S
C1257 C1256 1.391 . S
C1258 H1248 0.950 . S
C1258 C1259 1.386 . S
C1258 C1260 1.391 . S
C1259 C1258 1.386 . S
C1259 C1263 1.393 . S
C1260 H1249 0.950 . S
C1260 C1258 1.391 . S
C1260 C1261 1.400 . S
C1261 C1255 1.491 . S
C1261 C1260 1.400 . S
C1261 C1262 1.398 . S
C1262 H1250 0.950 . S
C1262 C1261 1.398 . S
C1262 C1263 1.391 . S
C1263 H1251 0.950 . S
C1263 C1259 1.393 . S
C1263 C1262 1.391 . S
H1264 C1272 0.950 . S
H1265 C1277 0.950 . S
H1266 C1274 0.950 . S
H1267 C1276 0.950 . S
H1268 C1278 0.950 . S
H1269 C1280 0.950 . S
H1270 C1282 0.950 . S
H1271 C1283 0.950 1_556 S
C1272 H1264 0.950 . S
C1272 C1273 1.386 . S
C1272 C1274 1.391 . S
C1273 C1272 1.386 . S
C1273 C1277 1.393 . S
C1274 H1266 0.950 . S
C1274 C1272 1.391 . S
C1274 C1275 1.400 . S
C1275 C1274 1.400 . S
C1275 C1276 1.398 . S
C1275 C1281 1.491 . S
C1276 H1267 0.950 . S
C1276 C1275 1.398 . S
C1276 C1277 1.391 . S
C1277 H1265 0.950 . S
C1277 C1273 1.393 . S
C1277 C1276 1.391 . S
C1278 H1268 0.950 . S
C1278 C1279 1.386 1_554 S
C1278 C1280 1.391 . S
C1279 C1278 1.386 1_556 S
C1279 C1283 1.393 1_556 S
C1280 H1269 0.950 . S
C1280 C1278 1.391 . S
C1280 C1281 1.400 . S
C1281 C1275 1.491 . S
C1281 C1280 1.400 . S
C1281 C1282 1.398 . S
C1282 H1270 0.950 . S
C1282 C1281 1.398 . S
C1282 C1283 1.391 . S
C1283 H1271 0.950 1_554 S
C1283 C1279 1.393 1_554 S
C1283 C1282 1.391 . S
H1284 C1292 0.950 . S
H1285 C1297 0.950 . S
H1286 C1294 0.950 . S
H1287 C1296 0.950 . S
H1288 C1298 0.950 . S
H1289 C1300 0.950 . S
H1290 C1302 0.950 . S
H1291 C1303 0.950 . S
C1292 H1284 0.950 . S
C1292 C1293 1.386 . S
C1292 C1294 1.391 . S
C1293 C1292 1.386 . S
C1293 C1297 1.393 . S
C1294 H1286 0.950 . S
C1294 C1292 1.391 . S
C1294 C1295 1.400 . S
C1295 C1294 1.400 . S
C1295 C1296 1.398 . S
C1295 C1301 1.491 . S
C1296 H1287 0.950 . S
C1296 C1295 1.398 . S
C1296 C1297 1.391 . S
C1297 H1285 0.950 . S
C1297 C1293 1.393 . S
C1297 C1296 1.391 . S
C1298 H1288 0.950 . S
C1298 C1299 1.386 . S
C1298 C1300 1.391 . S
C1299 C1298 1.386 . S
C1299 C1303 1.393 . S
C1300 H1289 0.950 . S
C1300 C1298 1.391 . S
C1300 C1301 1.400 . S
C1301 C1295 1.491 . S
C1301 C1300 1.400 . S
C1301 C1302 1.398 . S
C1302 H1290 0.950 . S
C1302 C1301 1.398 . S
C1302 C1303 1.391 . S
C1303 H1291 0.950 . S
C1303 C1299 1.393 . S
C1303 C1302 1.391 . S
H1304 C1312 0.950 . S
H1305 C1317 0.950 . S
H1306 C1314 0.950 . S
H1307 C1316 0.950 . S
H1308 C1318 0.950 . S
H1309 C1320 0.950 . S
H1310 C1322 0.950 . S
H1311 C1323 0.950 . S
C1312 H1304 0.950 . S
C1312 C1313 1.386 . S
C1312 C1314 1.391 . S
C1313 C1312 1.386 . S
C1313 C1317 1.393 . S
C1314 H1306 0.950 . S
C1314 C1312 1.391 . S
C1314 C1315 1.400 . S
C1315 C1314 1.400 . S
C1315 C1316 1.398 . S
C1315 C1321 1.491 . S
C1316 H1307 0.950 . S
C1316 C1315 1.398 . S
C1316 C1317 1.391 . S
C1317 H1305 0.950 . S
C1317 C1313 1.393 . S
C1317 C1316 1.391 . S
C1318 H1308 0.950 . S
C1318 C1319 1.386 . S
C1318 C1320 1.391 1_554 S
C1319 C1318 1.386 . S
C1319 C1323 1.393 . S
C1320 H1309 0.950 . S
C1320 C1318 1.391 1_556 S
C1320 C1321 1.400 . S
C1321 C1315 1.491 . S
C1321 C1320 1.400 . S
C1321 C1322 1.398 . S
C1322 H1310 0.950 . S
C1322 C1321 1.398 . S
C1322 C1323 1.391 1_556 S
C1323 H1311 0.950 . S
C1323 C1319 1.393 . S
C1323 C1322 1.391 1_554 S
H1324 C1332 0.950 . S
H1325 C1337 0.950 . S
H1326 C1334 0.950 . S
H1327 C1336 0.950 . S
H1328 C1338 0.950 . S
H1329 C1340 0.950 . S
H1330 C1342 0.950 . S
H1331 C1343 0.950 . S
C1332 H1324 0.950 . S
C1332 C1333 1.386 . S
C1332 C1334 1.391 . S
C1333 C1332 1.386 . S
C1333 C1337 1.393 . S
C1334 H1326 0.950 . S
C1334 C1332 1.391 . S
C1334 C1335 1.400 . S
C1335 C1334 1.400 . S
C1335 C1336 1.398 . S
C1335 C1341 1.491 . S
C1336 H1327 0.950 . S
C1336 C1335 1.398 . S
C1336 C1337 1.391 . S
C1337 H1325 0.950 . S
C1337 C1333 1.393 . S
C1337 C1336 1.391 . S
C1338 H1328 0.950 . S
C1338 C1339 1.386 . S
C1338 C1340 1.391 . S
C1339 C1338 1.386 . S
C1339 C1343 1.393 . S
C1340 H1329 0.950 . S
C1340 C1338 1.391 . S
C1340 C1341 1.400 . S
C1341 C1335 1.491 . S
C1341 C1340 1.400 . S
C1341 C1342 1.398 . S
C1342 H1330 0.950 . S
C1342 C1341 1.398 . S
C1342 C1343 1.391 . S
C1343 H1331 0.950 . S
C1343 C1339 1.393 . S
C1343 C1342 1.391 . S
H1344 C1352 0.950 . S
H1345 C1357 0.950 . S
H1346 C1354 0.950 . S
H1347 C1356 0.950 . S
H1348 C1358 0.950 . S
H1349 C1360 0.950 . S
H1350 C1362 0.950 . S
H1351 C1363 0.950 . S
C1352 H1344 0.950 . S
C1352 C1353 1.386 . S
C1352 C1354 1.391 . S
C1353 C1352 1.386 . S
C1353 C1357 1.393 . S
C1354 H1346 0.950 . S
C1354 C1352 1.391 . S
C1354 C1355 1.400 . S
C1355 C1354 1.400 . S
C1355 C1356 1.398 . S
C1355 C1361 1.491 . S
C1356 H1347 0.950 . S
C1356 C1355 1.398 . S
C1356 C1357 1.391 . S
C1357 H1345 0.950 . S
C1357 C1353 1.393 . S
C1357 C1356 1.391 . S
C1358 H1348 0.950 . S
C1358 C1359 1.386 . S
C1358 C1360 1.391 1_554 S
C1359 C1358 1.386 . S
C1359 C1363 1.393 . S
C1360 H1349 0.950 . S
C1360 C1358 1.391 1_556 S
C1360 C1361 1.400 . S
C1361 C1355 1.491 . S
C1361 C1360 1.400 . S
C1361 C1362 1.398 . S
C1362 H1350 0.950 . S
C1362 C1361 1.398 . S
C1362 C1363 1.391 1_556 S
C1363 H1351 0.950 . S
C1363 C1359 1.393 . S
C1363 C1362 1.391 1_554 S
H1364 C1372 0.950 . S
H1365 C1377 0.950 . S
H1366 C1374 0.950 . S
H1367 C1376 0.950 . S
H1368 C1378 0.950 . S
H1369 C1380 0.950 . S
H1370 C1382 0.950 . S
H1371 C1383 0.950 . S
C1372 H1364 0.950 . S
C1372 C1373 1.386 . S
C1372 C1374 1.391 . S
C1373 C1372 1.386 . S
C1373 C1377 1.393 . S
C1374 H1366 0.950 . S
C1374 C1372 1.391 . S
C1374 C1375 1.400 . S
C1375 C1374 1.400 . S
C1375 C1376 1.398 . S
C1375 C1381 1.491 . S
C1376 H1367 0.950 . S
C1376 C1375 1.398 . S
C1376 C1377 1.391 . S
C1377 H1365 0.950 . S
C1377 C1373 1.393 . S
C1377 C1376 1.391 . S
C1378 H1368 0.950 . S
C1378 C1379 1.386 . S
C1378 C1380 1.391 . S
C1379 C1378 1.386 . S
C1379 C1383 1.393 . S
C1380 H1369 0.950 . S
C1380 C1378 1.391 . S
C1380 C1381 1.400 . S
C1381 C1375 1.491 . S
C1381 C1380 1.400 . S
C1381 C1382 1.398 . S
C1382 H1370 0.950 . S
C1382 C1381 1.398 . S
C1382 C1383 1.391 . S
C1383 H1371 0.950 . S
C1383 C1379 1.393 . S
C1383 C1382 1.391 . S
H1384 C1392 0.950 . S
H1385 C1397 0.950 . S
H1386 C1394 0.950 . S
H1387 C1396 0.950 . S
H1388 C1398 0.950 . S
H1389 C1400 0.950 . S
H1390 C1402 0.950 . S
H1391 C1403 0.950 . S
C1392 H1384 0.950 . S
C1392 C1393 1.386 . S
C1392 C1394 1.391 . S
C1393 C1392 1.386 . S
C1393 C1397 1.393 . S
C1394 H1386 0.950 . S
C1394 C1392 1.391 . S
C1394 C1395 1.400 . S
C1395 C1394 1.400 . S
C1395 C1396 1.398 . S
C1395 C1401 1.491 . S
C1396 H1387 0.950 . S
C1396 C1395 1.398 . S
C1396 C1397 1.391 . S
C1397 H1385 0.950 . S
C1397 C1393 1.393 . S
C1397 C1396 1.391 . S
C1398 H1388 0.950 . S
C1398 C1399 1.386 . S
C1398 C1400 1.391 . S
C1399 C1398 1.386 . S
C1399 C1403 1.393 . S
C1400 H1389 0.950 . S
C1400 C1398 1.391 . S
C1400 C1401 1.400 . S
C1401 C1395 1.491 . S
C1401 C1400 1.400 . S
C1401 C1402 1.398 . S
C1402 H1390 0.950 . S
C1402 C1401 1.398 . S
C1402 C1403 1.391 . S
C1403 H1391 0.950 . S
C1403 C1399 1.393 . S
C1403 C1402 1.391 . S
H1404 C1412 0.950 . S
H1405 C1417 0.950 . S
H1406 C1414 0.950 . S
H1407 C1416 0.950 . S
H1408 C1418 0.950 . S
H1409 C1420 0.950 . S
H1410 C1422 0.950 . S
H1411 C1423 0.950 . S
C1412 H1404 0.950 . S
C1412 C1413 1.386 . S
C1412 C1414 1.391 . S
C1413 C1412 1.386 . S
C1413 C1417 1.393 . S
C1414 H1406 0.950 . S
C1414 C1412 1.391 . S
C1414 C1415 1.400 . S
C1415 C1414 1.400 . S
C1415 C1416 1.398 . S
C1415 C1421 1.491 . S
C1416 H1407 0.950 . S
C1416 C1415 1.398 . S
C1416 C1417 1.391 . S
C1417 H1405 0.950 . S
C1417 C1413 1.393 . S
C1417 C1416 1.391 . S
C1418 H1408 0.950 . S
C1418 C1419 1.386 . S
C1418 C1420 1.391 . S
C1419 C1418 1.386 . S
C1419 C1423 1.393 . S
C1420 H1409 0.950 . S
C1420 C1418 1.391 . S
C1420 C1421 1.400 . S
C1421 C1415 1.491 . S
C1421 C1420 1.400 . S
C1421 C1422 1.398 . S
C1422 H1410 0.950 . S
C1422 C1421 1.398 . S
C1422 C1423 1.391 . S
C1423 H1411 0.950 . S
C1423 C1419 1.393 . S
C1423 C1422 1.391 . S
H1424 C1432 0.950 . S
H1425 C1437 0.950 . S
H1426 C1434 0.950 . S
H1427 C1436 0.950 . S
H1428 C1438 0.950 . S
H1429 C1440 0.950 . S
H1430 C1442 0.950 . S
H1431 C1443 0.950 . S
C1432 H1424 0.950 . S
C1432 C1433 1.386 . S
C1432 C1434 1.391 . S
C1433 C1432 1.386 . S
C1433 C1437 1.393 . S
C1434 H1426 0.950 . S
C1434 C1432 1.391 . S
C1434 C1435 1.400 . S
C1435 C1434 1.400 . S
C1435 C1436 1.398 . S
C1435 C1441 1.491 . S
C1436 H1427 0.950 . S
C1436 C1435 1.398 . S
C1436 C1437 1.391 . S
C1437 H1425 0.950 . S
C1437 C1433 1.393 . S
C1437 C1436 1.391 . S
C1438 H1428 0.950 . S
C1438 C1439 1.386 . S
C1438 C1440 1.391 1_545 S
C1439 C1438 1.386 . S
C1439 C1443 1.393 1_545 S
C1440 H1429 0.950 . S
C1440 C1438 1.391 1_565 S
C1440 C1441 1.400 . S
C1441 C1435 1.491 . S
C1441 C1440 1.400 . S
C1441 C1442 1.398 . S
C1442 H1430 0.950 . S
C1442 C1441 1.398 . S
C1442 C1443 1.391 . S
C1443 H1431 0.950 . S
C1443 C1439 1.393 1_565 S
C1443 C1442 1.391 . S
H1444 C1452 0.950 . S
H1445 C1457 0.950 . S
H1446 C1454 0.950 . S
H1447 C1456 0.950 . S
H1448 C1458 0.950 . S
H1449 C1460 0.950 . S
H1450 C1462 0.950 . S
H1451 C1463 0.950 . S
C1452 H1444 0.950 . S
C1452 C1453 1.386 . S
C1452 C1454 1.391 . S
C1453 C1452 1.386 . S
C1453 C1457 1.393 . S
C1454 H1446 0.950 . S
C1454 C1452 1.391 . S
C1454 C1455 1.400 . S
C1455 C1454 1.400 . S
C1455 C1456 1.398 . S
C1455 C1461 1.491 . S
C1456 H1447 0.950 . S
C1456 C1455 1.398 . S
C1456 C1457 1.391 . S
C1457 H1445 0.950 . S
C1457 C1453 1.393 . S
C1457 C1456 1.391 . S
C1458 H1448 0.950 . S
C1458 C1459 1.386 . S
C1458 C1460 1.391 . S
C1459 C1458 1.386 . S
C1459 C1463 1.393 . S
C1460 H1449 0.950 . S
C1460 C1458 1.391 . S
C1460 C1461 1.400 . S
C1461 C1455 1.491 . S
C1461 C1460 1.400 . S
C1461 C1462 1.398 . S
C1462 H1450 0.950 . S
C1462 C1461 1.398 . S
C1462 C1463 1.391 . S
C1463 H1451 0.950 . S
C1463 C1459 1.393 . S
C1463 C1462 1.391 . S
H1464 C1472 0.950 . S
H1465 C1477 0.950 . S
H1466 C1474 0.950 . S
H1467 C1476 0.950 . S
H1468 C1478 0.950 . S
H1469 C1480 0.950 . S
H1470 C1482 0.950 . S
H1471 C1483 0.950 . S
C1472 H1464 0.950 . S
C1472 C1473 1.386 . S
C1472 C1474 1.391 . S
C1473 C1472 1.386 . S
C1473 C1477 1.393 . S
C1474 H1466 0.950 . S
C1474 C1472 1.391 . S
C1474 C1475 1.400 . S
C1475 C1474 1.400 . S
C1475 C1476 1.398 . S
C1475 C1481 1.491 . S
C1476 H1467 0.950 . S
C1476 C1475 1.398 . S
C1476 C1477 1.391 . S
C1477 H1465 0.950 . S
C1477 C1473 1.393 . S
C1477 C1476 1.391 . S
C1478 H1468 0.950 . S
C1478 C1479 1.386 . S
C1478 C1480 1.391 . S
C1479 C1478 1.386 . S
C1479 C1483 1.393 . S
C1480 H1469 0.950 . S
C1480 C1478 1.391 . S
C1480 C1481 1.400 . S
C1481 C1475 1.491 . S
C1481 C1480 1.400 . S
C1481 C1482 1.398 . S
C1482 H1470 0.950 . S
C1482 C1481 1.398 . S
C1482 C1483 1.391 . S
C1483 H1471 0.950 . S
C1483 C1479 1.393 . S
C1483 C1482 1.391 . S
H1484 C1492 0.950 . S
H1485 C1497 0.950 . S
H1486 C1494 0.950 . S
H1487 C1496 0.950 . S
H1488 C1498 0.950 . S
H1489 C1500 0.950 . S
H1490 C1502 0.950 . S
H1491 C1503 0.950 . S
C1492 H1484 0.950 . S
C1492 C1493 1.386 . S
C1492 C1494 1.391 . S
C1493 C1492 1.386 . S
C1493 C1497 1.393 . S
C1494 H1486 0.950 . S
C1494 C1492 1.391 . S
C1494 C1495 1.400 . S
C1495 C1494 1.400 . S
C1495 C1496 1.398 . S
C1495 C1501 1.491 . S
C1496 H1487 0.950 . S
C1496 C1495 1.398 . S
C1496 C1497 1.391 . S
C1497 H1485 0.950 . S
C1497 C1493 1.393 . S
C1497 C1496 1.391 . S
C1498 H1488 0.950 . S
C1498 C1499 1.386 . S
C1498 C1500 1.391 . S
C1499 C1498 1.386 . S
C1499 C1503 1.393 . S
C1500 H1489 0.950 . S
C1500 C1498 1.391 . S
C1500 C1501 1.400 . S
C1501 C1495 1.491 . S
C1501 C1500 1.400 . S
C1501 C1502 1.398 . S
C1502 H1490 0.950 . S
C1502 C1501 1.398 . S
C1502 C1503 1.391 . S
C1503 H1491 0.950 . S
C1503 C1499 1.393 . S
C1503 C1502 1.391 . S
H1504 C1512 0.950 . S
H1505 C1517 0.950 . S
H1506 C1514 0.950 . S
H1507 C1516 0.950 . S
H1508 C1518 0.953 . S
H1509 C1520 0.950 . S
H1510 C1522 0.950 . S
H1511 C1523 0.950 1_545 S
C1512 H1504 0.950 . S
C1512 C1513 1.386 . S
C1512 C1514 1.391 . S
C1513 C1512 1.386 . S
C1513 C1517 1.393 . S
C1514 H1506 0.950 . S
C1514 C1512 1.391 . S
C1514 C1515 1.400 . S
C1515 C1514 1.400 . S
C1515 C1516 1.398 . S
C1515 C1521 1.491 . S
C1516 H1507 0.950 . S
C1516 C1515 1.398 . S
C1516 C1517 1.391 . S
C1517 H1505 0.950 . S
C1517 C1513 1.393 . S
C1517 C1516 1.391 . S
C1518 H1508 0.953 . S
C1518 C1519 1.388 . S
C1518 C1520 1.386 1_545 S
C1519 C1518 1.388 . S
C1519 C1523 1.393 1_545 S
C1520 H1509 0.950 . S
C1520 C1518 1.386 1_565 S
C1520 C1521 1.400 . S
C1521 C1515 1.491 . S
C1521 C1520 1.400 . S
C1521 C1522 1.398 . S
C1522 H1510 0.950 . S
C1522 C1521 1.398 . S
C1522 C1523 1.391 . S
C1523 H1511 0.950 1_565 S
C1523 C1519 1.393 1_565 S
C1523 C1522 1.391 . S
H1524 C1532 0.950 . S
H1525 C1537 0.950 . S
H1526 C1534 0.950 . S
H1527 C1536 0.950 . S
H1528 C1538 0.950 . S
H1529 C1540 0.950 . S
H1530 C1542 0.950 . S
H1531 C1543 0.950 . S
C1532 H1524 0.950 . S
C1532 C1533 1.386 . S
C1532 C1534 1.391 . S
C1533 C1532 1.386 . S
C1533 C1537 1.393 . S
C1534 H1526 0.950 . S
C1534 C1532 1.391 . S
C1534 C1535 1.400 . S
C1535 C1534 1.400 . S
C1535 C1536 1.398 . S
C1535 C1541 1.491 . S
C1536 H1527 0.950 . S
C1536 C1535 1.398 . S
C1536 C1537 1.391 . S
C1537 H1525 0.950 . S
C1537 C1533 1.393 . S
C1537 C1536 1.391 . S
C1538 H1528 0.950 . S
C1538 C1539 1.386 . S
C1538 C1540 1.391 . S
C1539 C1538 1.386 . S
C1539 C1543 1.393 . S
C1540 H1529 0.950 . S
C1540 C1538 1.391 . S
C1540 C1541 1.400 . S
C1541 C1535 1.491 . S
C1541 C1540 1.400 . S
C1541 C1542 1.398 . S
C1542 H1530 0.950 . S
C1542 C1541 1.398 . S
C1542 C1543 1.391 . S
C1543 H1531 0.950 . S
C1543 C1539 1.393 . S
C1543 C1542 1.391 . S
H1544 C1552 0.950 . S
H1545 C1557 0.950 . S
H1546 C1554 0.950 . S
H1547 C1556 0.950 . S
H1548 C1558 0.950 . S
H1549 C1560 0.950 . S
H1550 C1562 0.950 . S
H1551 C1563 0.950 . S
C1552 H1544 0.950 . S
C1552 C1553 1.386 . S
C1552 C1554 1.391 . S
C1553 C1552 1.386 . S
C1553 C1557 1.393 . S
C1554 H1546 0.950 . S
C1554 C1552 1.391 . S
C1554 C1555 1.400 . S
C1555 C1554 1.400 . S
C1555 C1556 1.398 . S
C1555 C1561 1.491 . S
C1556 H1547 0.950 . S
C1556 C1555 1.398 . S
C1556 C1557 1.391 . S
C1557 H1545 0.950 . S
C1557 C1553 1.393 . S
C1557 C1556 1.391 . S
C1558 H1548 0.950 . S
C1558 C1559 1.386 . S
C1558 C1560 1.391 . S
C1559 C1558 1.386 . S
C1559 C1563 1.393 . S
C1560 H1549 0.950 . S
C1560 C1558 1.391 . S
C1560 C1561 1.400 . S
C1561 C1555 1.491 . S
C1561 C1560 1.400 . S
C1561 C1562 1.398 . S
C1562 H1550 0.950 . S
C1562 C1561 1.398 . S
C1562 C1563 1.391 . S
C1563 H1551 0.950 . S
C1563 C1559 1.393 . S
C1563 C1562 1.391 . S
H1564 C1572 0.950 . S
H1565 C1577 0.950 . S
H1566 C1574 0.950 . S
H1567 C1576 0.950 . S
H1568 C1578 0.959 . S
H1569 C1580 0.950 . S
H1570 C1582 0.950 . S
H1571 C1583 0.950 . S
C1572 H1564 0.950 . S
C1572 C1573 1.386 . S
C1572 C1574 1.391 . S
C1573 C1572 1.386 . S
C1573 C1577 1.393 . S
C1574 H1566 0.950 . S
C1574 C1572 1.391 . S
C1574 C1575 1.400 . S
C1575 C1574 1.400 . S
C1575 C1576 1.398 . S
C1575 C1581 1.491 . S
C1576 H1567 0.950 . S
C1576 C1575 1.398 . S
C1576 C1577 1.391 . S
C1577 H1565 0.950 . S
C1577 C1573 1.393 . S
C1577 C1576 1.391 . S
C1578 H1568 0.959 . S
C1578 C1579 1.410 . S
C1578 C1580 1.359 1_655 S
C1579 C1578 1.410 . S
C1579 C1583 1.393 . S
C1580 H1569 0.950 . S
C1580 C1578 1.359 1_455 S
C1580 C1581 1.400 . S
C1581 C1575 1.491 . S
C1581 C1580 1.400 . S
C1581 C1582 1.398 . S
C1582 H1570 0.950 . S
C1582 C1581 1.398 . S
C1582 C1583 1.391 1_455 S
C1583 H1571 0.950 . S
C1583 C1579 1.393 . S
C1583 C1582 1.391 1_655 S
H1584 C1592 0.950 . S
H1585 C1597 0.950 . S
H1586 C1594 0.950 . S
H1587 C1596 0.950 . S
H1588 C1598 0.950 . S
H1589 C1600 0.950 1_556 S
H1590 C1602 0.950 . S
H1591 C1603 0.950 . S
C1592 H1584 0.950 . S
C1592 C1593 1.386 . S
C1592 C1594 1.391 1_556 S
C1593 C1592 1.386 . S
C1593 C1597 1.393 . S
C1594 H1586 0.950 . S
C1594 C1592 1.391 1_554 S
C1594 C1595 1.400 1_554 S
C1595 C1594 1.400 1_556 S
C1595 C1596 1.398 . S
C1595 C1601 1.491 1_556 S
C1596 H1587 0.950 . S
C1596 C1595 1.398 . S
C1596 C1597 1.391 . S
C1597 H1585 0.950 . S
C1597 C1593 1.393 . S
C1597 C1596 1.391 . S
C1598 H1588 0.950 . S
C1598 C1599 1.386 . S
C1598 C1600 1.391 . S
C1599 C1598 1.386 . S
C1599 C1603 1.393 . S
C1600 H1589 0.950 1_554 S
C1600 C1598 1.391 . S
C1600 C1601 1.400 . S
C1601 C1595 1.491 1_554 S
C1601 C1600 1.400 . S
C1601 C1602 1.398 . S
C1602 H1590 0.950 . S
C1602 C1601 1.398 . S
C1602 C1603 1.391 . S
C1603 H1591 0.950 . S
C1603 C1599 1.393 . S
C1603 C1602 1.391 . S
H1604 C1612 0.950 . S
H1605 C1617 0.950 . S
H1606 C1614 0.950 . S
H1607 C1616 0.950 . S
H1608 C1618 0.950 . S
H1609 C1620 0.950 . S
H1610 C1622 0.950 . S
H1611 C1623 0.950 . S
C1612 H1604 0.950 . S
C1612 C1613 1.386 . S
C1612 C1614 1.391 . S
C1613 C1612 1.386 . S
C1613 C1617 1.393 . S
C1614 H1606 0.950 . S
C1614 C1612 1.391 . S
C1614 C1615 1.400 . S
C1615 C1614 1.400 . S
C1615 C1616 1.398 . S
C1615 C1621 1.491 . S
C1616 H1607 0.950 . S
C1616 C1615 1.398 . S
C1616 C1617 1.391 . S
C1617 H1605 0.950 . S
C1617 C1613 1.393 . S
C1617 C1616 1.391 . S
C1618 H1608 0.950 . S
C1618 C1619 1.386 . S
C1618 C1620 1.391 . S
C1619 C1618 1.386 . S
C1619 C1623 1.393 . S
C1620 H1609 0.950 . S
C1620 C1618 1.391 . S
C1620 C1621 1.400 . S
C1621 C1615 1.491 . S
C1621 C1620 1.400 . S
C1621 C1622 1.398 . S
C1622 H1610 0.950 . S
C1622 C1621 1.398 . S
C1622 C1623 1.391 . S
C1623 H1611 0.950 . S
C1623 C1619 1.393 . S
C1623 C1622 1.391 . S
H1624 C1632 0.950 . S
H1625 C1637 0.950 . S
H1626 C1634 0.950 . S
H1627 C1636 0.950 . S
H1628 C1638 0.950 . S
H1629 C1640 0.950 . S
H1630 C1642 0.950 . S
H1631 C1643 0.950 . S
C1632 H1624 0.950 . S
C1632 C1633 1.386 . S
C1632 C1634 1.391 . S
C1633 C1632 1.386 . S
C1633 C1637 1.393 . S
C1634 H1626 0.950 . S
C1634 C1632 1.391 . S
C1634 C1635 1.400 . S
C1635 C1634 1.400 . S
C1635 C1636 1.398 . S
C1635 C1641 1.491 . S
C1636 H1627 0.950 . S
C1636 C1635 1.398 . S
C1636 C1637 1.391 . S
C1637 H1625 0.950 . S
C1637 C1633 1.393 . S
C1637 C1636 1.391 . S
C1638 H1628 0.950 . S
C1638 C1639 1.386 . S
C1638 C1640 1.391 . S
C1639 C1638 1.386 . S
C1639 C1643 1.393 . S
C1640 H1629 0.950 . S
C1640 C1638 1.391 . S
C1640 C1641 1.400 . S
C1641 C1635 1.491 . S
C1641 C1640 1.400 . S
C1641 C1642 1.398 . S
C1642 H1630 0.950 . S
C1642 C1641 1.398 . S
C1642 C1643 1.391 . S
C1643 H1631 0.950 . S
C1643 C1639 1.393 . S
C1643 C1642 1.391 . S
H1644 C1652 0.950 . S
H1645 C1657 0.950 . S
H1646 C1654 0.950 . S
H1647 C1656 0.950 . S
H1648 C1658 0.950 . S
H1649 C1660 0.950 . S
H1650 C1662 0.950 . S
H1651 C1663 0.950 . S
C1652 H1644 0.950 . S
C1652 C1653 1.386 . S
C1652 C1654 1.391 . S
C1653 C1652 1.386 . S
C1653 C1657 1.393 . S
C1654 H1646 0.950 . S
C1654 C1652 1.391 . S
C1654 C1655 1.400 . S
C1655 C1654 1.400 . S
C1655 C1656 1.398 . S
C1655 C1661 1.491 . S
C1656 H1647 0.950 . S
C1656 C1655 1.398 . S
C1656 C1657 1.391 . S
C1657 H1645 0.950 . S
C1657 C1653 1.393 . S
C1657 C1656 1.391 . S
C1658 H1648 0.950 . S
C1658 C1659 1.386 . S
C1658 C1660 1.391 1_655 S
C1659 C1658 1.386 . S
C1659 C1663 1.393 1_655 S
C1660 H1649 0.950 . S
C1660 C1658 1.391 1_455 S
C1660 C1661 1.400 . S
C1661 C1655 1.491 . S
C1661 C1660 1.400 . S
C1661 C1662 1.398 . S
C1662 H1650 0.950 . S
C1662 C1661 1.398 . S
C1662 C1663 1.391 . S
C1663 H1651 0.950 . S
C1663 C1659 1.393 1_455 S
C1663 C1662 1.391 . S
H1664 C1672 0.950 . S
H1665 C1677 0.950 . S
H1666 C1674 0.950 . S
H1667 C1676 0.950 . S
H1668 C1678 0.950 . S
H1669 C1680 0.950 . S
H1670 C1682 0.950 . S
H1671 C1683 0.950 1_455 S
C1672 H1664 0.950 . S
C1672 C1673 1.386 . S
C1672 C1674 1.391 . S
C1673 C1672 1.386 . S
C1673 C1677 1.393 . S
C1674 H1666 0.950 . S
C1674 C1672 1.391 . S
C1674 C1675 1.400 . S
C1675 C1674 1.400 . S
C1675 C1676 1.398 . S
C1675 C1681 1.491 . S
C1676 H1667 0.950 . S
C1676 C1675 1.398 . S
C1676 C1677 1.391 . S
C1677 H1665 0.950 . S
C1677 C1673 1.393 . S
C1677 C1676 1.391 . S
C1678 H1668 0.950 . S
C1678 C1679 1.386 . S
C1678 C1680 1.391 1_455 S
C1679 C1678 1.386 . S
C1679 C1683 1.359 1_455 S
C1680 H1669 0.950 . S
C1680 C1678 1.391 1_655 S
C1680 C1681 1.400 . S
C1681 C1675 1.491 . S
C1681 C1680 1.400 . S
C1681 C1682 1.398 . S
C1682 H1670 0.950 . S
C1682 C1681 1.398 . S
C1682 C1683 1.425 . S
C1683 H1671 0.950 1_655 S
C1683 C1679 1.359 1_655 S
C1683 C1682 1.425 . S
H1684 C1692 0.950 . S
H1685 C1697 0.950 . S
H1686 C1694 0.950 . S
H1687 C1696 0.950 . S
H1688 C1698 0.950 . S
H1689 C1700 0.950 . S
H1690 C1702 0.950 . S
H1691 C1703 0.950 . S
C1692 H1684 0.950 . S
C1692 C1693 1.386 . S
C1692 C1694 1.391 . S
C1693 C1692 1.386 . S
C1693 C1697 1.393 . S
C1694 H1686 0.950 . S
C1694 C1692 1.391 . S
C1694 C1695 1.400 . S
C1695 C1694 1.400 . S
C1695 C1696 1.398 . S
C1695 C1701 1.491 . S
C1696 H1687 0.950 . S
C1696 C1695 1.398 . S
C1696 C1697 1.391 . S
C1697 H1685 0.950 . S
C1697 C1693 1.393 . S
C1697 C1696 1.391 . S
C1698 H1688 0.950 . S
C1698 C1699 1.386 . S
C1698 C1700 1.391 . S
C1699 C1698 1.386 . S
C1699 C1703 1.393 . S
C1700 H1689 0.950 . S
C1700 C1698 1.391 . S
C1700 C1701 1.400 . S
C1701 C1695 1.491 . S
C1701 C1700 1.400 . S
C1701 C1702 1.398 . S
C1702 H1690 0.950 . S
C1702 C1701 1.398 . S
C1702 C1703 1.391 . S
C1703 H1691 0.950 . S
C1703 C1699 1.393 . S
C1703 C1702 1.391 . S
H1704 C1712 0.950 . S
H1705 C1717 0.950 . S
H1706 C1714 0.950 . S
H1707 C1716 0.950 . S
H1708 C1718 0.950 . S
H1709 C1720 0.950 . S
H1710 C1722 0.950 . S
H1711 C1723 0.950 . S
C1712 H1704 0.950 . S
C1712 C1713 1.386 . S
C1712 C1714 1.391 . S
C1713 C1712 1.386 . S
C1713 C1717 1.393 . S
C1714 H1706 0.950 . S
C1714 C1712 1.391 . S
C1714 C1715 1.400 . S
C1715 C1714 1.400 . S
C1715 C1716 1.398 . S
C1715 C1721 1.491 . S
C1716 H1707 0.950 . S
C1716 C1715 1.398 . S
C1716 C1717 1.391 . S
C1717 H1705 0.950 . S
C1717 C1713 1.393 . S
C1717 C1716 1.391 . S
C1718 H1708 0.950 . S
C1718 C1719 1.386 . S
C1718 C1720 1.391 . S
C1719 C1718 1.386 . S
C1719 C1723 1.393 . S
C1720 H1709 0.950 . S
C1720 C1718 1.391 . S
C1720 C1721 1.400 . S
C1721 C1715 1.491 . S
C1721 C1720 1.400 . S
C1721 C1722 1.398 . S
C1722 H1710 0.950 . S
C1722 C1721 1.398 . S
C1722 C1723 1.391 . S
C1723 H1711 0.950 . S
C1723 C1719 1.393 . S
C1723 C1722 1.391 . S
H1724 C1732 0.950 . S
H1725 C1737 0.950 . S
H1726 C1734 0.950 . S
H1727 C1736 0.950 . S
H1728 C1738 0.950 . S
H1729 C1740 0.950 . S
H1730 C1742 0.950 . S
H1731 C1743 0.950 . S
C1732 H1724 0.950 . S
C1732 C1733 1.386 . S
C1732 C1734 1.391 . S
C1733 C1732 1.386 . S
C1733 C1737 1.393 . S
C1734 H1726 0.950 . S
C1734 C1732 1.391 . S
C1734 C1735 1.400 . S
C1735 C1734 1.400 . S
C1735 C1736 1.398 . S
C1735 C1741 1.491 . S
C1736 H1727 0.950 . S
C1736 C1735 1.398 . S
C1736 C1737 1.391 . S
C1737 H1725 0.950 . S
C1737 C1733 1.393 . S
C1737 C1736 1.391 . S
C1738 H1728 0.950 . S
C1738 C1739 1.386 . S
C1738 C1740 1.391 . S
C1739 C1738 1.386 . S
C1739 C1743 1.393 . S
C1740 H1729 0.950 . S
C1740 C1738 1.391 . S
C1740 C1741 1.400 . S
C1741 C1735 1.491 . S
C1741 C1740 1.400 . S
C1741 C1742 1.398 . S
C1742 H1730 0.950 . S
C1742 C1741 1.398 . S
C1742 C1743 1.391 . S
C1743 H1731 0.950 . S
C1743 C1739 1.393 . S
C1743 C1742 1.391 . S
H1744 C1752 0.950 . S
H1745 C1757 0.950 . S
H1746 C1754 0.950 . S
H1747 C1756 0.950 . S
H1748 C1758 0.950 . S
H1749 C1760 0.950 . S
H1750 C1762 0.950 . S
H1751 C1763 0.950 . S
C1752 H1744 0.950 . S
C1752 C1753 1.386 . S
C1752 C1754 1.391 . S
C1753 C1752 1.386 . S
C1753 C1757 1.393 . S
C1754 H1746 0.950 . S
C1754 C1752 1.391 . S
C1754 C1755 1.400 . S
C1755 C1754 1.400 . S
C1755 C1756 1.398 . S
C1755 C1761 1.491 . S
C1756 H1747 0.950 . S
C1756 C1755 1.398 . S
C1756 C1757 1.391 . S
C1757 H1745 0.950 . S
C1757 C1753 1.393 . S
C1757 C1756 1.391 . S
C1758 H1748 0.950 . S
C1758 C1759 1.386 . S
C1758 C1760 1.391 . S
C1759 C1758 1.386 . S
C1759 C1763 1.393 . S
C1760 H1749 0.950 . S
C1760 C1758 1.391 . S
C1760 C1761 1.400 . S
C1761 C1755 1.491 . S
C1761 C1760 1.400 . S
C1761 C1762 1.398 . S
C1762 H1750 0.950 . S
C1762 C1761 1.398 . S
C1762 C1763 1.391 . S
C1763 H1751 0.950 . S
C1763 C1759 1.393 . S
C1763 C1762 1.391 . S
H1764 C1772 0.950 . S
H1765 C1777 0.950 . S
H1766 C1774 0.950 . S
H1767 C1776 0.950 . S
H1768 C1778 0.950 . S
H1769 C1780 0.950 . S
H1770 C1782 0.950 . S
H1771 C1783 0.950 . S
C1772 H1764 0.950 . S
C1772 C1773 1.386 . S
C1772 C1774 1.391 . S
C1773 C1772 1.386 . S
C1773 C1777 1.393 . S
C1774 H1766 0.950 . S
C1774 C1772 1.391 . S
C1774 C1775 1.400 . S
C1775 C1774 1.400 . S
C1775 C1776 1.398 . S
C1775 C1781 1.491 . S
C1776 H1767 0.950 . S
C1776 C1775 1.398 . S
C1776 C1777 1.391 . S
C1777 H1765 0.950 . S
C1777 C1773 1.393 . S
C1777 C1776 1.391 . S
C1778 H1768 0.950 . S
C1778 C1779 1.386 . S
C1778 C1780 1.391 . S
C1779 C1778 1.386 . S
C1779 C1783 1.393 . S
C1780 H1769 0.950 . S
C1780 C1778 1.391 . S
C1780 C1781 1.400 . S
C1781 C1775 1.491 . S
C1781 C1780 1.400 . S
C1781 C1782 1.398 . S
C1782 H1770 0.950 . S
C1782 C1781 1.398 . S
C1782 C1783 1.391 . S
C1783 H1771 0.950 . S
C1783 C1779 1.393 . S
C1783 C1782 1.391 . S
H1784 C1792 0.950 . S
H1785 C1797 0.950 . S
H1786 C1794 0.950 . S
H1787 C1796 0.950 . S
H1788 C1798 0.950 . S
H1789 C1800 0.950 . S
H1790 C1802 0.950 . S
H1791 C1803 0.950 . S
C1792 H1784 0.950 . S
C1792 C1793 1.386 . S
C1792 C1794 1.391 . S
C1793 C1792 1.386 . S
C1793 C1797 1.393 . S
C1794 H1786 0.950 . S
C1794 C1792 1.391 . S
C1794 C1795 1.400 . S
C1795 C1794 1.400 . S
C1795 C1796 1.398 . S
C1795 C1801 1.491 . S
C1796 H1787 0.950 . S
C1796 C1795 1.398 . S
C1796 C1797 1.391 . S
C1797 H1785 0.950 . S
C1797 C1793 1.393 . S
C1797 C1796 1.391 . S
C1798 H1788 0.950 . S
C1798 C1799 1.386 . S
C1798 C1800 1.391 . S
C1799 C1798 1.386 . S
C1799 C1803 1.393 . S
C1800 H1789 0.950 . S
C1800 C1798 1.391 . S
C1800 C1801 1.400 . S
C1801 C1795 1.491 . S
C1801 C1800 1.400 . S
C1801 C1802 1.398 . S
C1802 H1790 0.950 . S
C1802 C1801 1.398 . S
C1802 C1803 1.391 . S
C1803 H1791 0.950 . S
C1803 C1799 1.393 . S
C1803 C1802 1.391 . S
H1804 C1812 0.950 . S
H1805 C1817 0.950 . S
H1806 C1814 0.950 . S
H1807 C1816 0.950 . S
H1808 C1818 0.950 . S
H1809 C1820 0.950 . S
H1810 C1822 0.950 . S
H1811 C1823 0.950 . S
C1812 H1804 0.950 . S
C1812 C1813 1.386 . S
C1812 C1814 1.391 . S
C1813 C1812 1.386 . S
C1813 C1817 1.393 . S
C1814 H1806 0.950 . S
C1814 C1812 1.391 . S
C1814 C1815 1.400 . S
C1815 C1814 1.400 . S
C1815 C1816 1.398 . S
C1815 C1821 1.491 . S
C1816 H1807 0.950 . S
C1816 C1815 1.398 . S
C1816 C1817 1.391 . S
C1817 H1805 0.950 . S
C1817 C1813 1.393 . S
C1817 C1816 1.391 . S
C1818 H1808 0.950 . S
C1818 C1819 1.386 . S
C1818 C1820 1.391 . S
C1819 C1818 1.386 . S
C1819 C1823 1.393 . S
C1820 H1809 0.950 . S
C1820 C1818 1.391 . S
C1820 C1821 1.400 . S
C1821 C1815 1.491 . S
C1821 C1820 1.400 . S
C1821 C1822 1.398 . S
C1822 H1810 0.950 . S
C1822 C1821 1.398 . S
C1822 C1823 1.391 . S
C1823 H1811 0.950 . S
C1823 C1819 1.393 . S
C1823 C1822 1.391 . S
H1824 C1832 0.950 . S
H1825 C1837 0.950 . S
H1826 C1834 0.950 . S
H1827 C1836 0.950 . S
H1828 C1838 0.950 . S
H1829 C1840 0.950 . S
H1830 C1842 0.950 . S
H1831 C1843 0.950 . S
C1832 H1824 0.950 . S
C1832 C1833 1.386 . S
C1832 C1834 1.391 . S
C1833 C1832 1.386 . S
C1833 C1837 1.393 . S
C1834 H1826 0.950 . S
C1834 C1832 1.391 . S
C1834 C1835 1.400 . S
C1835 C1834 1.400 . S
C1835 C1836 1.398 . S
C1835 C1841 1.491 . S
C1836 H1827 0.950 . S
C1836 C1835 1.398 . S
C1836 C1837 1.391 . S
C1837 H1825 0.950 . S
C1837 C1833 1.393 . S
C1837 C1836 1.391 . S
C1838 H1828 0.950 . S
C1838 C1839 1.386 . S
C1838 C1840 1.391 . S
C1839 C1838 1.386 . S
C1839 C1843 1.393 . S
C1840 H1829 0.950 . S
C1840 C1838 1.391 . S
C1840 C1841 1.400 . S
C1841 C1835 1.491 . S
C1841 C1840 1.400 . S
C1841 C1842 1.398 . S
C1842 H1830 0.950 . S
C1842 C1841 1.398 . S
C1842 C1843 1.391 . S
C1843 H1831 0.950 . S
C1843 C1839 1.393 . S
C1843 C1842 1.391 . S
H1844 C1852 0.950 . S
H1845 C1857 0.950 . S
H1846 C1854 0.950 . S
H1847 C1856 0.950 . S
H1848 C1858 0.950 . S
H1849 C1860 0.950 . S
H1850 C1862 0.950 . S
H1851 C1863 0.950 . S
C1852 H1844 0.950 . S
C1852 C1853 1.386 . S
C1852 C1854 1.391 . S
C1853 C1852 1.386 . S
C1853 C1857 1.393 . S
C1854 H1846 0.950 . S
C1854 C1852 1.391 . S
C1854 C1855 1.400 . S
C1855 C1854 1.400 . S
C1855 C1856 1.398 . S
C1855 C1861 1.491 . S
C1856 H1847 0.950 . S
C1856 C1855 1.398 . S
C1856 C1857 1.391 . S
C1857 H1845 0.950 . S
C1857 C1853 1.393 . S
C1857 C1856 1.391 . S
C1858 H1848 0.950 . S
C1858 C1859 1.386 . S
C1858 C1860 1.391 . S
C1859 C1858 1.386 . S
C1859 C1863 1.393 . S
C1860 H1849 0.950 . S
C1860 C1858 1.391 . S
C1860 C1861 1.400 . S
C1861 C1855 1.491 . S
C1861 C1860 1.400 . S
C1861 C1862 1.398 . S
C1862 H1850 0.950 . S
C1862 C1861 1.398 . S
C1862 C1863 1.391 . S
C1863 H1851 0.950 . S
C1863 C1859 1.393 . S
C1863 C1862 1.391 . S
H1864 C1872 0.950 . S
H1865 C1877 0.950 . S
H1866 C1874 0.950 . S
H1867 C1876 0.950 . S
H1868 C1878 0.950 1_556 S
H1869 C1880 0.950 . S
H1870 C1882 0.950 . S
H1871 C1883 0.950 . S
C1872 H1864 0.950 . S
C1872 C1873 1.386 . S
C1872 C1874 1.391 . S
C1873 C1872 1.386 . S
C1873 C1877 1.393 . S
C1874 H1866 0.950 . S
C1874 C1872 1.391 . S
C1874 C1875 1.400 . S
C1875 C1874 1.400 . S
C1875 C1876 1.398 . S
C1875 C1881 1.491 . S
C1876 H1867 0.950 . S
C1876 C1875 1.398 . S
C1876 C1877 1.391 . S
C1877 H1865 0.950 . S
C1877 C1873 1.393 . S
C1877 C1876 1.391 . S
C1878 H1868 0.950 1_554 S
C1878 C1879 1.386 . S
C1878 C1880 1.391 . S
C1879 C1878 1.386 . S
C1879 C1883 1.393 . S
C1880 H1869 0.950 . S
C1880 C1878 1.391 . S
C1880 C1881 1.400 . S
C1881 C1875 1.491 . S
C1881 C1880 1.400 . S
C1881 C1882 1.398 . S
C1882 H1870 0.950 . S
C1882 C1881 1.398 . S
C1882 C1883 1.391 . S
C1883 H1871 0.950 . S
C1883 C1879 1.393 . S
C1883 C1882 1.391 . S
H1884 C1892 0.950 . S
H1885 C1897 0.950 . S
H1886 C1894 0.950 . S
H1887 C1896 0.950 . S
H1888 C1898 0.950 . S
H1889 C1900 0.950 . S
H1890 C1902 0.950 . S
H1891 C1903 0.950 . S
C1892 H1884 0.950 . S
C1892 C1893 1.386 . S
C1892 C1894 1.391 . S
C1893 C1892 1.386 . S
C1893 C1897 1.393 . S
C1894 H1886 0.950 . S
C1894 C1892 1.391 . S
C1894 C1895 1.400 . S
C1895 C1894 1.400 . S
C1895 C1896 1.398 . S
C1895 C1901 1.491 . S
C1896 H1887 0.950 . S
C1896 C1895 1.398 . S
C1896 C1897 1.391 . S
C1897 H1885 0.950 . S
C1897 C1893 1.393 . S
C1897 C1896 1.391 . S
C1898 H1888 0.950 . S
C1898 C1899 1.386 . S
C1898 C1900 1.391 . S
C1899 C1898 1.386 . S
C1899 C1903 1.393 . S
C1900 H1889 0.950 . S
C1900 C1898 1.391 . S
C1900 C1901 1.400 . S
C1901 C1895 1.491 . S
C1901 C1900 1.400 . S
C1901 C1902 1.398 . S
C1902 H1890 0.950 . S
C1902 C1901 1.398 . S
C1902 C1903 1.391 . S
C1903 H1891 0.950 . S
C1903 C1899 1.393 . S
C1903 C1902 1.391 . S
H1904 C1912 0.950 . S
H1905 C1917 0.950 . S
H1906 C1914 0.950 . S
H1907 C1916 0.950 . S
H1908 C1918 0.950 1_556 S
H1909 C1920 0.950 . S
H1910 C1922 0.950 . S
H1911 C1923 0.950 . S
C1912 H1904 0.950 . S
C1912 C1913 1.386 . S
C1912 C1914 1.391 . S
C1913 C1912 1.386 . S
C1913 C1917 1.393 . S
C1914 H1906 0.950 . S
C1914 C1912 1.391 . S
C1914 C1915 1.400 . S
C1915 C1914 1.400 . S
C1915 C1916 1.398 . S
C1915 C1921 1.491 . S
C1916 H1907 0.950 . S
C1916 C1915 1.398 . S
C1916 C1917 1.391 . S
C1917 H1905 0.950 . S
C1917 C1913 1.393 . S
C1917 C1916 1.391 . S
C1918 H1908 0.950 1_554 S
C1918 C1919 1.386 . S
C1918 C1920 1.391 . S
C1919 C1918 1.386 . S
C1919 C1923 1.393 . S
C1920 H1909 0.950 . S
C1920 C1918 1.391 . S
C1920 C1921 1.400 . S
C1921 C1915 1.491 . S
C1921 C1920 1.400 . S
C1921 C1922 1.398 . S
C1922 H1910 0.950 . S
C1922 C1921 1.398 . S
C1922 C1923 1.391 . S
C1923 H1911 0.950 . S
C1923 C1919 1.393 . S
C1923 C1922 1.391 . S
H1924 C1932 0.950 . S
H1925 C1937 0.950 . S
H1926 C1934 0.950 . S
H1927 C1936 0.950 . S
H1928 C1938 0.950 . S
H1929 C1940 0.950 . S
H1930 C1942 0.950 . S
H1931 C1943 0.950 . S
C1932 H1924 0.950 . S
C1932 C1933 1.386 . S
C1932 C1934 1.391 . S
C1933 C1932 1.386 . S
C1933 C1937 1.393 . S
C1934 H1926 0.950 . S
C1934 C1932 1.391 . S
C1934 C1935 1.400 . S
C1935 C1934 1.400 . S
C1935 C1936 1.398 . S
C1935 C1941 1.491 . S
C1936 H1927 0.950 . S
C1936 C1935 1.398 . S
C1936 C1937 1.391 . S
C1937 H1925 0.950 . S
C1937 C1933 1.393 . S
C1937 C1936 1.391 . S
C1938 H1928 0.950 . S
C1938 C1939 1.386 . S
C1938 C1940 1.391 . S
C1939 C1938 1.386 . S
C1939 C1943 1.393 . S
C1940 H1929 0.950 . S
C1940 C1938 1.391 . S
C1940 C1941 1.400 . S
C1941 C1935 1.491 . S
C1941 C1940 1.400 . S
C1941 C1942 1.398 . S
C1942 H1930 0.950 . S
C1942 C1941 1.398 . S
C1942 C1943 1.391 . S
C1943 H1931 0.950 . S
C1943 C1939 1.393 . S
C1943 C1942 1.391 . S
H1944 C1952 0.950 . S
H1945 C1957 0.950 . S
H1946 C1954 0.950 . S
H1947 C1956 0.950 . S
H1948 C1958 0.950 . S
H1949 C1960 0.950 . S
H1950 C1962 0.950 . S
H1951 C1963 0.950 . S
C1952 H1944 0.950 . S
C1952 C1953 1.386 . S
C1952 C1954 1.391 . S
C1953 C1952 1.386 . S
C1953 C1957 1.393 . S
C1954 H1946 0.950 . S
C1954 C1952 1.391 . S
C1954 C1955 1.400 . S
C1955 C1954 1.400 . S
C1955 C1956 1.398 . S
C1955 C1961 1.491 . S
C1956 H1947 0.950 . S
C1956 C1955 1.398 . S
C1956 C1957 1.391 . S
C1957 H1945 0.950 . S
C1957 C1953 1.393 . S
C1957 C1956 1.391 . S
C1958 H1948 0.950 . S
C1958 C1959 1.386 . S
C1958 C1960 1.391 . S
C1959 C1958 1.386 . S
C1959 C1963 1.393 . S
C1960 H1949 0.950 . S
C1960 C1958 1.391 . S
C1960 C1961 1.400 . S
C1961 C1955 1.491 . S
C1961 C1960 1.400 . S
C1961 C1962 1.398 . S
C1962 H1950 0.950 . S
C1962 C1961 1.398 . S
C1962 C1963 1.391 . S
C1963 H1951 0.950 . S
C1963 C1959 1.393 . S
C1963 C1962 1.391 . S
H1964 C1972 0.950 . S
H1965 C1977 0.950 . S
H1966 C1974 0.950 . S
H1967 C1976 0.950 . S
H1968 C1978 0.950 . S
H1969 C1980 0.950 . S
H1970 C1982 0.950 . S
H1971 C1983 0.950 . S
C1972 H1964 0.950 . S
C1972 C1973 1.386 . S
C1972 C1974 1.391 . S
C1973 C1972 1.386 . S
C1973 C1977 1.393 . S
C1974 H1966 0.950 . S
C1974 C1972 1.391 . S
C1974 C1975 1.400 . S
C1975 C1974 1.400 . S
C1975 C1976 1.398 . S
C1975 C1981 1.491 . S
C1976 H1967 0.950 . S
C1976 C1975 1.398 . S
C1976 C1977 1.391 . S
C1977 H1965 0.950 . S
C1977 C1973 1.393 . S
C1977 C1976 1.391 . S
C1978 H1968 0.950 . S
C1978 C1979 1.386 . S
C1978 C1980 1.391 . S
C1979 C1978 1.386 . S
C1979 C1983 1.393 . S
C1980 H1969 0.950 . S
C1980 C1978 1.391 . S
C1980 C1981 1.400 . S
C1981 C1975 1.491 . S
C1981 C1980 1.400 . S
C1981 C1982 1.398 . S
C1982 H1970 0.950 . S
C1982 C1981 1.398 . S
C1982 C1983 1.391 . S
C1983 H1971 0.950 . S
C1983 C1979 1.393 . S
C1983 C1982 1.391 . S
H1984 C1992 0.950 . S
H1985 C1997 0.950 . S
H1986 C1994 0.950 . S
H1987 C1996 0.950 . S
H1988 C1998 0.950 1_554 S
H1989 C2000 0.950 1_554 S
H1990 C2002 0.950 . S
H1991 C2003 0.950 . S
C1992 H1984 0.950 . S
C1992 C1993 1.386 . S
C1992 C1994 1.391 . S
C1993 C1992 1.386 . S
C1993 C1997 1.393 . S
C1994 H1986 0.950 . S
C1994 C1992 1.391 . S
C1994 C1995 1.400 . S
C1995 C1994 1.400 . S
C1995 C1996 1.398 . S
C1995 C2001 1.491 . S
C1996 H1987 0.950 . S
C1996 C1995 1.398 . S
C1996 C1997 1.391 . S
C1997 H1985 0.950 . S
C1997 C1993 1.393 . S
C1997 C1996 1.391 . S
C1998 H1988 0.950 1_556 S
C1998 C1999 1.386 . S
C1998 C2000 1.391 . S
C1999 C1998 1.386 . S
C1999 C2003 1.393 . S
C2000 H1989 0.950 1_556 S
C2000 C1998 1.391 . S
C2000 C2001 1.400 . S
C2001 C1995 1.491 . S
C2001 C2000 1.400 . S
C2001 C2002 1.398 . S
C2002 H1990 0.950 . S
C2002 C2001 1.398 . S
C2002 C2003 1.391 . S
C2003 H1991 0.950 . S
C2003 C1999 1.393 . S
C2003 C2002 1.391 . S
H2004 C2012 0.950 . S
H2005 C2017 0.950 . S
H2006 C2014 0.950 . S
H2007 C2016 0.950 . S
H2008 C2018 0.950 . S
H2009 C2020 0.950 . S
H2010 C2022 0.950 . S
H2011 C2023 0.950 . S
C2012 H2004 0.950 . S
C2012 C2013 1.386 . S
C2012 C2014 1.391 . S
C2013 C2012 1.386 . S
C2013 C2017 1.393 . S
C2014 H2006 0.950 . S
C2014 C2012 1.391 . S
C2014 C2015 1.400 . S
C2015 C2014 1.400 . S
C2015 C2016 1.398 . S
C2015 C2021 1.491 . S
C2016 H2007 0.950 . S
C2016 C2015 1.398 . S
C2016 C2017 1.391 . S
C2017 H2005 0.950 . S
C2017 C2013 1.393 . S
C2017 C2016 1.391 . S
C2018 H2008 0.950 . S
C2018 C2019 1.386 . S
C2018 C2020 1.391 . S
C2019 C2018 1.386 . S
C2019 C2023 1.393 . S
C2020 H2009 0.950 . S
C2020 C2018 1.391 . S
C2020 C2021 1.400 . S
C2021 C2015 1.491 . S
C2021 C2020 1.400 . S
C2021 C2022 1.398 . S
C2022 H2010 0.950 . S
C2022 C2021 1.398 . S
C2022 C2023 1.391 . S
C2023 H2011 0.950 . S
C2023 C2019 1.393 . S
C2023 C2022 1.391 . S
H2024 C2032 0.950 . S
H2025 C2037 0.950 . S
H2026 C2034 0.950 . S
H2027 C2036 0.950 . S
H2028 C2038 0.950 . S
H2029 C2040 0.950 . S
H2030 C2042 0.950 . S
H2031 C2043 0.950 . S
C2032 H2024 0.950 . S
C2032 C2033 1.386 . S
C2032 C2034 1.391 . S
C2033 C2032 1.386 . S
C2033 C2037 1.393 . S
C2034 H2026 0.950 . S
C2034 C2032 1.391 . S
C2034 C2035 1.400 . S
C2035 C2034 1.400 . S
C2035 C2036 1.398 . S
C2035 C2041 1.491 . S
C2036 H2027 0.950 . S
C2036 C2035 1.398 . S
C2036 C2037 1.391 . S
C2037 H2025 0.950 . S
C2037 C2033 1.393 . S
C2037 C2036 1.391 . S
C2038 H2028 0.950 . S
C2038 C2039 1.386 . S
C2038 C2040 1.391 . S
C2039 C2038 1.386 . S
C2039 C2043 1.393 . S
C2040 H2029 0.950 . S
C2040 C2038 1.391 . S
C2040 C2041 1.400 . S
C2041 C2035 1.491 . S
C2041 C2040 1.400 . S
C2041 C2042 1.398 . S
C2042 H2030 0.950 . S
C2042 C2041 1.398 . S
C2042 C2043 1.391 . S
C2043 H2031 0.950 . S
C2043 C2039 1.393 . S
C2043 C2042 1.391 . S
H2044 C2052 0.950 . S
H2045 C2057 0.950 . S
H2046 C2054 0.950 . S
H2047 C2056 0.950 . S
H2048 C2058 0.950 . S
H2049 C2060 0.950 . S
H2050 C2062 0.950 . S
H2051 C2063 0.950 . S
C2052 H2044 0.950 . S
C2052 C2053 1.386 . S
C2052 C2054 1.391 . S
C2053 C2052 1.386 . S
C2053 C2057 1.393 . S
C2054 H2046 0.950 . S
C2054 C2052 1.391 . S
C2054 C2055 1.400 . S
C2055 C2054 1.400 . S
C2055 C2056 1.398 . S
C2055 C2061 1.491 . S
C2056 H2047 0.950 . S
C2056 C2055 1.398 . S
C2056 C2057 1.391 . S
C2057 H2045 0.950 . S
C2057 C2053 1.393 . S
C2057 C2056 1.391 . S
C2058 H2048 0.950 . S
C2058 C2059 1.386 . S
C2058 C2060 1.391 . S
C2059 C2058 1.386 . S
C2059 C2063 1.393 . S
C2060 H2049 0.950 . S
C2060 C2058 1.391 . S
C2060 C2061 1.400 . S
C2061 C2055 1.491 . S
C2061 C2060 1.400 . S
C2061 C2062 1.398 . S
C2062 H2050 0.950 . S
C2062 C2061 1.398 . S
C2062 C2063 1.391 . S
C2063 H2051 0.950 . S
C2063 C2059 1.393 . S
C2063 C2062 1.391 . S
H2064 C2072 0.950 . S
H2065 C2077 0.950 . S
H2066 C2074 0.950 . S
H2067 C2076 0.950 . S
H2068 C2078 0.950 . S
H2069 C2080 0.950 . S
H2070 C2082 0.950 . S
H2071 C2083 0.950 . S
C2072 H2064 0.950 . S
C2072 C2073 1.386 . S
C2072 C2074 1.391 . S
C2073 C2072 1.386 . S
C2073 C2077 1.393 . S
C2074 H2066 0.950 . S
C2074 C2072 1.391 . S
C2074 C2075 1.400 . S
C2075 C2074 1.400 . S
C2075 C2076 1.398 . S
C2075 C2081 1.491 . S
C2076 H2067 0.950 . S
C2076 C2075 1.398 . S
C2076 C2077 1.391 . S
C2077 H2065 0.950 . S
C2077 C2073 1.393 . S
C2077 C2076 1.391 . S
C2078 H2068 0.950 . S
C2078 C2079 1.386 . S
C2078 C2080 1.391 . S
C2079 C2078 1.386 . S
C2079 C2083 1.393 . S
C2080 H2069 0.950 . S
C2080 C2078 1.391 . S
C2080 C2081 1.400 . S
C2081 C2075 1.491 . S
C2081 C2080 1.400 . S
C2081 C2082 1.398 . S
C2082 H2070 0.950 . S
C2082 C2081 1.398 . S
C2082 C2083 1.391 . S
C2083 H2071 0.950 . S
C2083 C2079 1.393 . S
C2083 C2082 1.391 . S
H2084 C2092 0.950 . S
H2085 C2097 0.950 . S
H2086 C2094 0.950 . S
H2087 C2096 0.950 . S
H2088 C2098 0.950 . S
H2089 C2100 0.950 . S
H2090 C2102 0.950 . S
H2091 C2103 0.950 . S
C2092 H2084 0.950 . S
C2092 C2093 1.386 . S
C2092 C2094 1.391 . S
C2093 C2092 1.386 . S
C2093 C2097 1.393 . S
C2094 H2086 0.950 . S
C2094 C2092 1.391 . S
C2094 C2095 1.400 . S
C2095 C2094 1.400 . S
C2095 C2096 1.398 . S
C2095 C2101 1.491 . S
C2096 H2087 0.950 . S
C2096 C2095 1.398 . S
C2096 C2097 1.391 . S
C2097 H2085 0.950 . S
C2097 C2093 1.393 . S
C2097 C2096 1.391 . S
C2098 H2088 0.950 . S
C2098 C2099 1.386 . S
C2098 C2100 1.391 . S
C2099 C2098 1.386 . S
C2099 C2103 1.393 . S
C2100 H2089 0.950 . S
C2100 C2098 1.391 . S
C2100 C2101 1.400 . S
C2101 C2095 1.491 . S
C2101 C2100 1.400 . S
C2101 C2102 1.398 . S
C2102 H2090 0.950 . S
C2102 C2101 1.398 . S
C2102 C2103 1.391 . S
C2103 H2091 0.950 . S
C2103 C2099 1.393 . S
C2103 C2102 1.391 . S
H2104 C2112 0.950 . S
H2105 C2117 0.950 . S
H2106 C2114 0.950 . S
H2107 C2116 0.950 . S
H2108 C2118 0.950 . S
H2109 C2120 0.950 . S
H2110 C2122 0.950 . S
H2111 C2123 0.950 . S
C2112 H2104 0.950 . S
C2112 C2113 1.386 . S
C2112 C2114 1.391 . S
C2113 C2112 1.386 . S
C2113 C2117 1.393 . S
C2114 H2106 0.950 . S
C2114 C2112 1.391 . S
C2114 C2115 1.400 . S
C2115 C2114 1.400 . S
C2115 C2116 1.398 . S
C2115 C2121 1.491 . S
C2116 H2107 0.950 . S
C2116 C2115 1.398 . S
C2116 C2117 1.391 . S
C2117 H2105 0.950 . S
C2117 C2113 1.393 . S
C2117 C2116 1.391 . S
C2118 H2108 0.950 . S
C2118 C2119 1.386 . S
C2118 C2120 1.391 . S
C2119 C2118 1.386 . S
C2119 C2123 1.393 . S
C2120 H2109 0.950 . S
C2120 C2118 1.391 . S
C2120 C2121 1.400 . S
C2121 C2115 1.491 . S
C2121 C2120 1.400 . S
C2121 C2122 1.398 . S
C2122 H2110 0.950 . S
C2122 C2121 1.398 . S
C2122 C2123 1.391 . S
C2123 H2111 0.950 . S
C2123 C2119 1.393 . S
C2123 C2122 1.391 . S
H2124 C2132 0.950 . S
H2125 C2137 0.950 . S
H2126 C2134 0.950 . S
H2127 C2136 0.950 . S
H2128 C2138 0.950 . S
H2129 C2140 0.950 . S
H2130 C2142 0.950 . S
H2131 C2143 0.950 . S
C2132 H2124 0.950 . S
C2132 C2133 1.386 . S
C2132 C2134 1.391 . S
C2133 C2132 1.386 . S
C2133 C2137 1.393 . S
C2134 H2126 0.950 . S
C2134 C2132 1.391 . S
C2134 C2135 1.400 . S
C2135 C2134 1.400 . S
C2135 C2136 1.398 . S
C2135 C2141 1.491 . S
C2136 H2127 0.950 . S
C2136 C2135 1.398 . S
C2136 C2137 1.391 . S
C2137 H2125 0.950 . S
C2137 C2133 1.393 . S
C2137 C2136 1.391 . S
C2138 H2128 0.950 . S
C2138 C2139 1.386 . S
C2138 C2140 1.391 . S
C2139 C2138 1.386 . S
C2139 C2143 1.393 . S
C2140 H2129 0.950 . S
C2140 C2138 1.391 . S
C2140 C2141 1.400 . S
C2141 C2135 1.491 . S
C2141 C2140 1.400 . S
C2141 C2142 1.398 . S
C2142 H2130 0.950 . S
C2142 C2141 1.398 . S
C2142 C2143 1.391 . S
C2143 H2131 0.950 . S
C2143 C2139 1.393 . S
C2143 C2142 1.391 . S
H2144 C2152 0.950 . S
H2145 C2157 0.950 . S
H2146 C2154 0.950 . S
H2147 C2156 0.950 . S
H2148 C2158 0.950 1_565 S
H2149 C2160 0.950 . S
H2150 C2162 0.950 . S
H2151 C2163 0.950 . S
C2152 H2144 0.950 . S
C2152 C2153 1.386 . S
C2152 C2154 1.391 . S
C2153 C2152 1.386 . S
C2153 C2157 1.393 . S
C2154 H2146 0.950 . S
C2154 C2152 1.391 . S
C2154 C2155 1.400 . S
C2155 C2154 1.400 . S
C2155 C2156 1.398 . S
C2155 C2161 1.491 . S
C2156 H2147 0.950 . S
C2156 C2155 1.398 . S
C2156 C2157 1.391 . S
C2157 H2145 0.950 . S
C2157 C2153 1.393 . S
C2157 C2156 1.391 . S
C2158 H2148 0.950 1_545 S
C2158 C2159 1.386 . S
C2158 C2160 1.391 . S
C2159 C2158 1.386 . S
C2159 C2163 1.393 . S
C2160 H2149 0.950 . S
C2160 C2158 1.391 . S
C2160 C2161 1.400 . S
C2161 C2155 1.491 . S
C2161 C2160 1.400 . S
C2161 C2162 1.398 . S
C2162 H2150 0.950 . S
C2162 C2161 1.398 . S
C2162 C2163 1.391 . S
C2163 H2151 0.950 . S
C2163 C2159 1.393 . S
C2163 C2162 1.391 . S
H2164 C2172 0.950 . S
H2165 C2177 0.950 . S
H2166 C2174 0.950 . S
H2167 C2176 0.950 . S
H2168 C2178 0.950 . S
H2169 C2180 0.950 . S
H2170 C2182 0.950 . S
H2171 C2183 0.950 . S
C2172 H2164 0.950 . S
C2172 C2173 1.386 . S
C2172 C2174 1.391 . S
C2173 C2172 1.386 . S
C2173 C2177 1.393 . S
C2174 H2166 0.950 . S
C2174 C2172 1.391 . S
C2174 C2175 1.400 . S
C2175 C2174 1.400 . S
C2175 C2176 1.398 . S
C2175 C2181 1.491 . S
C2176 H2167 0.950 . S
C2176 C2175 1.398 . S
C2176 C2177 1.391 . S
C2177 H2165 0.950 . S
C2177 C2173 1.393 . S
C2177 C2176 1.391 . S
C2178 H2168 0.950 . S
C2178 C2179 1.386 . S
C2178 C2180 1.391 . S
C2179 C2178 1.386 . S
C2179 C2183 1.393 . S
C2180 H2169 0.950 . S
C2180 C2178 1.391 . S
C2180 C2181 1.400 . S
C2181 C2175 1.491 . S
C2181 C2180 1.400 . S
C2181 C2182 1.398 . S
C2182 H2170 0.950 . S
C2182 C2181 1.398 . S
C2182 C2183 1.391 . S
C2183 H2171 0.950 . S
C2183 C2179 1.393 . S
C2183 C2182 1.391 . S
H2184 C2192 0.950 . S
H2185 C2197 0.950 . S
H2186 C2194 0.950 . S
H2187 C2196 0.950 . S
H2188 C2198 0.950 1_455 S
H2189 C2200 0.950 . S
H2190 C2202 0.950 . S
H2191 C2203 0.950 . S
C2192 H2184 0.950 . S
C2192 C2193 1.386 . S
C2192 C2194 1.391 . S
C2193 C2192 1.386 . S
C2193 C2197 1.393 . S
C2194 H2186 0.950 . S
C2194 C2192 1.391 . S
C2194 C2195 1.400 . S
C2195 C2194 1.400 . S
C2195 C2196 1.398 . S
C2195 C2201 1.491 . S
C2196 H2187 0.950 . S
C2196 C2195 1.398 . S
C2196 C2197 1.391 . S
C2197 H2185 0.950 . S
C2197 C2193 1.393 . S
C2197 C2196 1.391 . S
C2198 H2188 0.950 1_655 S
C2198 C2199 1.386 . S
C2198 C2200 1.391 . S
C2199 C2198 1.386 . S
C2199 C2203 1.393 . S
C2200 H2189 0.950 . S
C2200 C2198 1.391 . S
C2200 C2201 1.400 . S
C2201 C2195 1.491 . S
C2201 C2200 1.400 . S
C2201 C2202 1.398 . S
C2202 H2190 0.950 . S
C2202 C2201 1.398 . S
C2202 C2203 1.391 . S
C2203 H2191 0.950 . S
C2203 C2199 1.393 . S
C2203 C2202 1.391 . S
H2204 C2212 0.950 . S
H2205 C2217 0.950 . S
H2206 C2214 0.950 . S
H2207 C2216 0.950 . S
H2208 C2218 0.950 . S
H2209 C2220 0.950 . S
H2210 C2222 0.950 . S
H2211 C2223 0.950 . S
C2212 H2204 0.950 . S
C2212 C2213 1.386 . S
C2212 C2214 1.391 . S
C2213 C2212 1.386 . S
C2213 C2217 1.393 . S
C2214 H2206 0.950 . S
C2214 C2212 1.391 . S
C2214 C2215 1.400 . S
C2215 C2214 1.400 . S
C2215 C2216 1.398 . S
C2215 C2221 1.491 . S
C2216 H2207 0.950 . S
C2216 C2215 1.398 . S
C2216 C2217 1.391 . S
C2217 H2205 0.950 . S
C2217 C2213 1.393 . S
C2217 C2216 1.391 . S
C2218 H2208 0.950 . S
C2218 C2219 1.386 . S
C2218 C2220 1.391 . S
C2219 C2218 1.386 . S
C2219 C2223 1.393 . S
C2220 H2209 0.950 . S
C2220 C2218 1.391 . S
C2220 C2221 1.400 . S
C2221 C2215 1.491 . S
C2221 C2220 1.400 . S
C2221 C2222 1.398 . S
C2222 H2210 0.950 . S
C2222 C2221 1.398 . S
C2222 C2223 1.391 . S
C2223 H2211 0.950 . S
C2223 C2219 1.393 . S
C2223 C2222 1.391 . S
H2224 C2232 0.950 . S
H2225 C2237 0.950 . S
H2226 C2234 0.950 . S
H2227 C2236 0.950 . S
H2228 C2238 0.950 . S
H2229 C2240 0.950 . S
H2230 C2242 0.950 . S
H2231 C2243 0.950 1_655 S
C2232 H2224 0.950 . S
C2232 C2233 1.386 . S
C2232 C2234 1.391 . S
C2233 C2232 1.386 . S
C2233 C2237 1.393 . S
C2234 H2226 0.950 . S
C2234 C2232 1.391 . S
C2234 C2235 1.400 . S
C2235 C2234 1.400 . S
C2235 C2236 1.398 . S
C2235 C2241 1.491 . S
C2236 H2227 0.950 . S
C2236 C2235 1.398 . S
C2236 C2237 1.391 . S
C2237 H2225 0.950 . S
C2237 C2233 1.393 . S
C2237 C2236 1.391 . S
C2238 H2228 0.950 . S
C2238 C2239 1.386 . S
C2238 C2240 1.391 . S
C2239 C2238 1.386 . S
C2239 C2243 1.393 . S
C2240 H2229 0.950 . S
C2240 C2238 1.391 . S
C2240 C2241 1.400 . S
C2241 C2235 1.491 . S
C2241 C2240 1.400 . S
C2241 C2242 1.398 . S
C2242 H2230 0.950 . S
C2242 C2241 1.398 . S
C2242 C2243 1.391 . S
C2243 H2231 0.950 1_455 S
C2243 C2239 1.393 . S
C2243 C2242 1.391 . S
H2244 C2252 0.950 . S
H2245 C2257 0.950 . S
H2246 C2254 0.950 . S
H2247 C2256 0.950 . S
H2248 C2258 0.950 . S
H2249 C2260 0.950 . S
H2250 C2262 0.950 . S
H2251 C2263 0.950 . S
C2252 H2244 0.950 . S
C2252 C2253 1.386 . S
C2252 C2254 1.391 . S
C2253 C2252 1.386 . S
C2253 C2257 1.393 . S
C2254 H2246 0.950 . S
C2254 C2252 1.391 . S
C2254 C2255 1.400 . S
C2255 C2254 1.400 . S
C2255 C2256 1.398 . S
C2255 C2261 1.491 . S
C2256 H2247 0.950 . S
C2256 C2255 1.398 . S
C2256 C2257 1.391 . S
C2257 H2245 0.950 . S
C2257 C2253 1.393 . S
C2257 C2256 1.391 . S
C2258 H2248 0.950 . S
C2258 C2259 1.386 . S
C2258 C2260 1.391 . S
C2259 C2258 1.386 . S
C2259 C2263 1.393 . S
C2260 H2249 0.950 . S
C2260 C2258 1.391 . S
C2260 C2261 1.400 . S
C2261 C2255 1.491 . S
C2261 C2260 1.400 . S
C2261 C2262 1.398 . S
C2262 H2250 0.950 . S
C2262 C2261 1.398 . S
C2262 C2263 1.391 . S
C2263 H2251 0.950 . S
C2263 C2259 1.393 . S
C2263 C2262 1.391 . S
H2264 C2272 0.950 . S
H2265 C2277 0.950 . S
H2266 C2274 0.950 . S
H2267 C2276 0.950 . S
H2268 C2278 0.950 . S
H2269 C2280 0.950 . S
H2270 C2282 0.950 . S
H2271 C2283 0.950 . S
C2272 H2264 0.950 . S
C2272 C2273 1.386 . S
C2272 C2274 1.391 . S
C2273 C2272 1.386 . S
C2273 C2277 1.393 . S
C2274 H2266 0.950 . S
C2274 C2272 1.391 . S
C2274 C2275 1.400 . S
C2275 C2274 1.400 . S
C2275 C2276 1.398 . S
C2275 C2281 1.491 . S
C2276 H2267 0.950 . S
C2276 C2275 1.398 . S
C2276 C2277 1.391 . S
C2277 H2265 0.950 . S
C2277 C2273 1.393 . S
C2277 C2276 1.391 . S
C2278 H2268 0.950 . S
C2278 C2279 1.386 . S
C2278 C2280 1.391 . S
C2279 C2278 1.386 . S
C2279 C2283 1.393 . S
C2280 H2269 0.950 . S
C2280 C2278 1.391 . S
C2280 C2281 1.400 . S
C2281 C2275 1.491 . S
C2281 C2280 1.400 . S
C2281 C2282 1.398 . S
C2282 H2270 0.950 . S
C2282 C2281 1.398 . S
C2282 C2283 1.391 . S
C2283 H2271 0.950 . S
C2283 C2279 1.393 . S
C2283 C2282 1.391 . S
H2284 C2292 0.950 . S
H2285 C2297 0.950 . S
H2286 C2294 0.950 . S
H2287 C2296 0.950 . S
H2288 C2298 0.950 . S
H2289 C2300 0.950 . S
H2290 C2302 0.950 . S
H2291 C2303 0.950 . S
C2292 H2284 0.950 . S
C2292 C2293 1.386 . S
C2292 C2294 1.391 . S
C2293 C2292 1.386 . S
C2293 C2297 1.393 . S
C2294 H2286 0.950 . S
C2294 C2292 1.391 . S
C2294 C2295 1.400 . S
C2295 C2294 1.400 . S
C2295 C2296 1.398 . S
C2295 C2301 1.491 . S
C2296 H2287 0.950 . S
C2296 C2295 1.398 . S
C2296 C2297 1.391 . S
C2297 H2285 0.950 . S
C2297 C2293 1.393 . S
C2297 C2296 1.391 . S
C2298 H2288 0.950 . S
C2298 C2299 1.386 . S
C2298 C2300 1.391 . S
C2299 C2298 1.386 . S
C2299 C2303 1.393 . S
C2300 H2289 0.950 . S
C2300 C2298 1.391 . S
C2300 C2301 1.400 . S
C2301 C2295 1.491 . S
C2301 C2300 1.400 . S
C2301 C2302 1.398 . S
C2302 H2290 0.950 . S
C2302 C2301 1.398 . S
C2302 C2303 1.391 . S
C2303 H2291 0.950 . S
C2303 C2299 1.393 . S
C2303 C2302 1.391 . S
H2304 C2312 0.950 . S
H2305 C2317 0.950 . S
H2306 C2314 0.950 . S
H2307 C2316 0.950 . S
H2308 C2318 0.950 . S
H2309 C2320 0.950 . S
H2310 C2322 0.950 . S
H2311 C2323 0.950 . S
C2312 H2304 0.950 . S
C2312 C2313 1.386 . S
C2312 C2314 1.391 . S
C2313 C2312 1.386 . S
C2313 C2317 1.393 . S
C2314 H2306 0.950 . S
C2314 C2312 1.391 . S
C2314 C2315 1.400 . S
C2315 C2314 1.400 . S
C2315 C2316 1.398 . S
C2315 C2321 1.491 . S
C2316 H2307 0.950 . S
C2316 C2315 1.398 . S
C2316 C2317 1.391 . S
C2317 H2305 0.950 . S
C2317 C2313 1.393 . S
C2317 C2316 1.391 . S
C2318 H2308 0.950 . S
C2318 C2319 1.386 . S
C2318 C2320 1.391 . S
C2319 C2318 1.386 . S
C2319 C2323 1.393 . S
C2320 H2309 0.950 . S
C2320 C2318 1.391 . S
C2320 C2321 1.400 . S
C2321 C2315 1.491 . S
C2321 C2320 1.400 . S
C2321 C2322 1.398 . S
C2322 H2310 0.950 . S
C2322 C2321 1.398 . S
C2322 C2323 1.391 . S
C2323 H2311 0.950 . S
C2323 C2319 1.393 . S
C2323 C2322 1.391 . S
H2324 C2332 0.950 . S
H2325 C2337 0.950 . S
H2326 C2334 0.950 . S
H2327 C2336 0.950 . S
H2328 C2338 0.950 . S
H2329 C2340 0.950 . S
H2330 C2342 0.950 . S
H2331 C2343 0.950 . S
C2332 H2324 0.950 . S
C2332 C2333 1.386 . S
C2332 C2334 1.391 . S
C2333 C2332 1.386 . S
C2333 C2337 1.393 . S
C2334 H2326 0.950 . S
C2334 C2332 1.391 . S
C2334 C2335 1.400 . S
C2335 C2334 1.400 . S
C2335 C2336 1.398 . S
C2335 C2341 1.491 . S
C2336 H2327 0.950 . S
C2336 C2335 1.398 . S
C2336 C2337 1.391 . S
C2337 H2325 0.950 . S
C2337 C2333 1.393 . S
C2337 C2336 1.391 . S
C2338 H2328 0.950 . S
C2338 C2339 1.386 . S
C2338 C2340 1.391 . S
C2339 C2338 1.386 . S
C2339 C2343 1.393 . S
C2340 H2329 0.950 . S
C2340 C2338 1.391 . S
C2340 C2341 1.400 . S
C2341 C2335 1.491 . S
C2341 C2340 1.400 . S
C2341 C2342 1.398 . S
C2342 H2330 0.950 . S
C2342 C2341 1.398 . S
C2342 C2343 1.391 . S
C2343 H2331 0.950 . S
C2343 C2339 1.393 . S
C2343 C2342 1.391 . S
H2344 C2352 0.950 . S
H2345 C2357 0.950 . S
H2346 C2354 0.950 . S
H2347 C2356 0.950 . S
H2348 C2358 0.950 . S
H2349 C2360 0.950 . S
H2350 C2362 0.950 . S
H2351 C2363 0.950 . S
C2352 H2344 0.950 . S
C2352 C2353 1.386 . S
C2352 C2354 1.391 . S
C2353 C2352 1.386 . S
C2353 C2357 1.393 . S
C2354 H2346 0.950 . S
C2354 C2352 1.391 . S
C2354 C2355 1.400 . S
C2355 C2354 1.400 . S
C2355 C2356 1.398 . S
C2355 C2361 1.491 . S
C2356 H2347 0.950 . S
C2356 C2355 1.398 . S
C2356 C2357 1.391 . S
C2357 H2345 0.950 . S
C2357 C2353 1.393 . S
C2357 C2356 1.391 . S
C2358 H2348 0.950 . S
C2358 C2359 1.386 . S
C2358 C2360 1.391 . S
C2359 C2358 1.386 . S
C2359 C2363 1.393 . S
C2360 H2349 0.950 . S
C2360 C2358 1.391 . S
C2360 C2361 1.400 . S
C2361 C2355 1.491 . S
C2361 C2360 1.400 . S
C2361 C2362 1.398 . S
C2362 H2350 0.950 . S
C2362 C2361 1.398 . S
C2362 C2363 1.391 . S
C2363 H2351 0.950 . S
C2363 C2359 1.393 . S
C2363 C2362 1.391 . S
H2364 C2372 0.950 . S
H2365 C2377 0.950 . S
H2366 C2374 0.950 . S
H2367 C2376 0.950 . S
H2368 C2378 0.950 . S
H2369 C2380 0.950 . S
H2370 C2382 0.950 . S
H2371 C2383 0.950 . S
C2372 H2364 0.950 . S
C2372 C2373 1.386 . S
C2372 C2374 1.391 . S
C2373 C2372 1.386 . S
C2373 C2377 1.393 . S
C2374 H2366 0.950 . S
C2374 C2372 1.391 . S
C2374 C2375 1.400 . S
C2375 C2374 1.400 . S
C2375 C2376 1.398 . S
C2375 C2381 1.491 . S
C2376 H2367 0.950 . S
C2376 C2375 1.398 . S
C2376 C2377 1.391 . S
C2377 H2365 0.950 . S
C2377 C2373 1.393 . S
C2377 C2376 1.391 . S
C2378 H2368 0.950 . S
C2378 C2379 1.386 . S
C2378 C2380 1.391 . S
C2379 C2378 1.386 . S
C2379 C2383 1.393 . S
C2380 H2369 0.950 . S
C2380 C2378 1.391 . S
C2380 C2381 1.400 . S
C2381 C2375 1.491 . S
C2381 C2380 1.400 . S
C2381 C2382 1.398 . S
C2382 H2370 0.950 . S
C2382 C2381 1.398 . S
C2382 C2383 1.391 . S
C2383 H2371 0.950 . S
C2383 C2379 1.393 . S
C2383 C2382 1.391 . S
H2384 C2392 0.950 . S
H2385 C2397 0.950 . S
H2386 C2394 0.950 . S
H2387 C2396 0.950 . S
H2388 C2398 0.950 . S
H2389 C2400 0.950 . S
H2390 C2402 0.950 . S
H2391 C2403 0.950 . S
C2392 H2384 0.950 . S
C2392 C2393 1.386 . S
C2392 C2394 1.391 . S
C2393 C2392 1.386 . S
C2393 C2397 1.393 . S
C2394 H2386 0.950 . S
C2394 C2392 1.391 . S
C2394 C2395 1.400 . S
C2395 C2394 1.400 . S
C2395 C2396 1.398 . S
C2395 C2401 1.491 . S
C2396 H2387 0.950 . S
C2396 C2395 1.398 . S
C2396 C2397 1.391 . S
C2397 H2385 0.950 . S
C2397 C2393 1.393 . S
C2397 C2396 1.391 . S
C2398 H2388 0.950 . S
C2398 C2399 1.386 . S
C2398 C2400 1.391 . S
C2399 C2398 1.386 . S
C2399 C2403 1.393 . S
C2400 H2389 0.950 . S
C2400 C2398 1.391 . S
C2400 C2401 1.400 . S
C2401 C2395 1.491 . S
C2401 C2400 1.400 . S
C2401 C2402 1.398 . S
C2402 H2390 0.950 . S
C2402 C2401 1.398 . S
C2402 C2403 1.391 . S
C2403 H2391 0.950 . S
C2403 C2399 1.393 . S
C2403 C2402 1.391 . S
H2404 C2412 0.950 . S
H2405 C2417 0.950 . S
H2406 C2414 0.950 . S
H2407 C2416 0.950 . S
H2408 C2418 0.950 . S
H2409 C2420 0.950 . S
H2410 C2422 0.950 . S
H2411 C2423 0.950 . S
C2412 H2404 0.950 . S
C2412 C2413 1.386 . S
C2412 C2414 1.391 . S
C2413 C2412 1.386 . S
C2413 C2417 1.393 . S
C2414 H2406 0.950 . S
C2414 C2412 1.391 . S
C2414 C2415 1.400 . S
C2415 C2414 1.400 . S
C2415 C2416 1.398 . S
C2415 C2421 1.491 . S
C2416 H2407 0.950 . S
C2416 C2415 1.398 . S
C2416 C2417 1.391 . S
C2417 H2405 0.950 . S
C2417 C2413 1.393 . S
C2417 C2416 1.391 . S
C2418 H2408 0.950 . S
C2418 C2419 1.386 . S
C2418 C2420 1.391 . S
C2419 C2418 1.386 . S
C2419 C2423 1.393 . S
C2420 H2409 0.950 . S
C2420 C2418 1.391 . S
C2420 C2421 1.400 . S
C2421 C2415 1.491 . S
C2421 C2420 1.400 . S
C2421 C2422 1.398 . S
C2422 H2410 0.950 . S
C2422 C2421 1.398 . S
C2422 C2423 1.391 . S
C2423 H2411 0.950 . S
C2423 C2419 1.393 . S
C2423 C2422 1.391 . S
H2424 C2432 0.950 . S
H2425 C2437 0.950 . S
H2426 C2434 0.950 . S
H2427 C2436 0.950 . S
H2428 C2438 0.950 . S
H2429 C2440 0.950 . S
H2430 C2442 0.950 . S
H2431 C2443 0.950 . S
C2432 H2424 0.950 . S
C2432 C2433 1.386 . S
C2432 C2434 1.391 . S
C2433 C2432 1.386 . S
C2433 C2437 1.393 . S
C2434 H2426 0.950 . S
C2434 C2432 1.391 . S
C2434 C2435 1.400 . S
C2435 C2434 1.400 . S
C2435 C2436 1.398 . S
C2435 C2441 1.491 . S
C2436 H2427 0.950 . S
C2436 C2435 1.398 . S
C2436 C2437 1.391 . S
C2437 H2425 0.950 . S
C2437 C2433 1.393 . S
C2437 C2436 1.391 . S
C2438 H2428 0.950 . S
C2438 C2439 1.386 . S
C2438 C2440 1.391 . S
C2439 C2438 1.386 . S
C2439 C2443 1.393 . S
C2440 H2429 0.950 . S
C2440 C2438 1.391 . S
C2440 C2441 1.400 . S
C2441 C2435 1.491 . S
C2441 C2440 1.400 . S
C2441 C2442 1.398 . S
C2442 H2430 0.950 . S
C2442 C2441 1.398 . S
C2442 C2443 1.391 . S
C2443 H2431 0.950 . S
C2443 C2439 1.393 . S
C2443 C2442 1.391 . S
H2444 C2452 0.950 . S
H2445 C2457 0.950 . S
H2446 C2454 0.950 . S
H2447 C2456 0.950 . S
H2448 C2458 0.950 . S
H2449 C2460 0.950 . S
H2450 C2462 0.950 . S
H2451 C2463 0.950 . S
C2452 H2444 0.950 . S
C2452 C2453 1.386 . S
C2452 C2454 1.391 . S
C2453 C2452 1.386 . S
C2453 C2457 1.393 . S
C2454 H2446 0.950 . S
C2454 C2452 1.391 . S
C2454 C2455 1.400 . S
C2455 C2454 1.400 . S
C2455 C2456 1.398 . S
C2455 C2461 1.491 . S
C2456 H2447 0.950 . S
C2456 C2455 1.398 . S
C2456 C2457 1.391 . S
C2457 H2445 0.950 . S
C2457 C2453 1.393 . S
C2457 C2456 1.391 . S
C2458 H2448 0.950 . S
C2458 C2459 1.386 . S
C2458 C2460 1.391 . S
C2459 C2458 1.386 . S
C2459 C2463 1.393 . S
C2460 H2449 0.950 . S
C2460 C2458 1.391 . S
C2460 C2461 1.400 . S
C2461 C2455 1.491 . S
C2461 C2460 1.400 . S
C2461 C2462 1.398 . S
C2462 H2450 0.950 . S
C2462 C2461 1.398 . S
C2462 C2463 1.391 . S
C2463 H2451 0.950 . S
C2463 C2459 1.393 . S
C2463 C2462 1.391 . S
H2464 C2472 0.950 . S
H2465 C2477 0.950 . S
H2466 C2474 0.950 . S
H2467 C2476 0.950 . S
H2468 C2478 0.950 . S
H2469 C2480 0.950 . S
H2470 C2482 0.950 . S
H2471 C2483 0.950 . S
C2472 H2464 0.950 . S
C2472 C2473 1.386 . S
C2472 C2474 1.391 . S
C2473 C2472 1.386 . S
C2473 C2477 1.393 . S
C2474 H2466 0.950 . S
C2474 C2472 1.391 . S
C2474 C2475 1.400 . S
C2475 C2474 1.400 . S
C2475 C2476 1.398 . S
C2475 C2481 1.491 . S
C2476 H2467 0.950 . S
C2476 C2475 1.398 . S
C2476 C2477 1.391 . S
C2477 H2465 0.950 . S
C2477 C2473 1.393 . S
C2477 C2476 1.391 . S
C2478 H2468 0.950 . S
C2478 C2479 1.386 . S
C2478 C2480 1.391 . S
C2479 C2478 1.386 . S
C2479 C2483 1.393 . S
C2480 H2469 0.950 . S
C2480 C2478 1.391 . S
C2480 C2481 1.400 . S
C2481 C2475 1.491 . S
C2481 C2480 1.400 . S
C2481 C2482 1.398 . S
C2482 H2470 0.950 . S
C2482 C2481 1.398 . S
C2482 C2483 1.391 . S
C2483 H2471 0.950 . S
C2483 C2479 1.393 . S
C2483 C2482 1.391 . S
H2484 C2492 0.950 . S
H2485 C2497 0.950 . S
H2486 C2494 0.950 . S
H2487 C2496 0.950 . S
H2488 C2498 0.950 . S
H2489 C2500 0.950 . S
H2490 C2502 0.950 . S
H2491 C2503 0.950 . S
C2492 H2484 0.950 . S
C2492 C2493 1.386 . S
C2492 C2494 1.391 . S
C2493 C2492 1.386 . S
C2493 C2497 1.393 . S
C2494 H2486 0.950 . S
C2494 C2492 1.391 . S
C2494 C2495 1.400 . S
C2495 C2494 1.400 . S
C2495 C2496 1.398 . S
C2495 C2501 1.491 . S
C2496 H2487 0.950 . S
C2496 C2495 1.398 . S
C2496 C2497 1.391 . S
C2497 H2485 0.950 . S
C2497 C2493 1.393 . S
C2497 C2496 1.391 . S
C2498 H2488 0.950 . S
C2498 C2499 1.386 . S
C2498 C2500 1.391 . S
C2499 C2498 1.386 . S
C2499 C2503 1.393 . S
C2500 H2489 0.950 . S
C2500 C2498 1.391 . S
C2500 C2501 1.400 . S
C2501 C2495 1.491 . S
C2501 C2500 1.400 . S
C2501 C2502 1.398 . S
C2502 H2490 0.950 . S
C2502 C2501 1.398 . S
C2502 C2503 1.391 . S
C2503 H2491 0.950 . S
C2503 C2499 1.393 . S
C2503 C2502 1.391 . S
H2504 C2512 0.950 . S
H2505 C2517 0.950 . S
H2506 C2514 0.950 . S
H2507 C2516 0.950 . S
H2508 C2518 0.950 . S
H2509 C2520 0.950 . S
H2510 C2522 0.950 . S
H2511 C2523 0.950 . S
C2512 H2504 0.950 . S
C2512 C2513 1.386 . S
C2512 C2514 1.391 . S
C2513 C2512 1.386 . S
C2513 C2517 1.393 . S
C2514 H2506 0.950 . S
C2514 C2512 1.391 . S
C2514 C2515 1.400 . S
C2515 C2514 1.400 . S
C2515 C2516 1.398 . S
C2515 C2521 1.491 . S
C2516 H2507 0.950 . S
C2516 C2515 1.398 . S
C2516 C2517 1.391 . S
C2517 H2505 0.950 . S
C2517 C2513 1.393 . S
C2517 C2516 1.391 . S
C2518 H2508 0.950 . S
C2518 C2519 1.386 . S
C2518 C2520 1.391 . S
C2519 C2518 1.386 . S
C2519 C2523 1.393 . S
C2520 H2509 0.950 . S
C2520 C2518 1.391 . S
C2520 C2521 1.400 . S
C2521 C2515 1.491 . S
C2521 C2520 1.400 . S
C2521 C2522 1.398 . S
C2522 H2510 0.950 . S
C2522 C2521 1.398 . S
C2522 C2523 1.391 . S
C2523 H2511 0.950 . S
C2523 C2519 1.393 . S
C2523 C2522 1.391 . S
H2524 C2532 0.950 . S
H2525 C2537 0.950 . S
H2526 C2534 0.950 . S
H2527 C2536 0.950 . S
H2528 C2538 0.950 . S
H2529 C2540 0.950 . S
H2530 C2542 0.950 . S
H2531 C2543 0.950 . S
C2532 H2524 0.950 . S
C2532 C2533 1.386 . S
C2532 C2534 1.391 . S
C2533 C2532 1.386 . S
C2533 C2537 1.393 . S
C2534 H2526 0.950 . S
C2534 C2532 1.391 . S
C2534 C2535 1.400 . S
C2535 C2534 1.400 . S
C2535 C2536 1.398 . S
C2535 C2541 1.491 . S
C2536 H2527 0.950 . S
C2536 C2535 1.398 . S
C2536 C2537 1.391 . S
C2537 H2525 0.950 . S
C2537 C2533 1.393 . S
C2537 C2536 1.391 . S
C2538 H2528 0.950 . S
C2538 C2539 1.386 . S
C2538 C2540 1.391 . S
C2539 C2538 1.386 . S
C2539 C2543 1.393 . S
C2540 H2529 0.950 . S
C2540 C2538 1.391 . S
C2540 C2541 1.400 . S
C2541 C2535 1.491 . S
C2541 C2540 1.400 . S
C2541 C2542 1.398 . S
C2542 H2530 0.950 . S
C2542 C2541 1.398 . S
C2542 C2543 1.391 . S
C2543 H2531 0.950 . S
C2543 C2539 1.393 . S
C2543 C2542 1.391 . S
H2544 C2552 0.950 . S
H2545 C2557 0.950 . S
H2546 C2554 0.950 . S
H2547 C2556 0.950 . S
H2548 C2558 0.950 . S
H2549 C2560 0.950 . S
H2550 C2562 0.950 . S
H2551 C2563 0.950 . S
C2552 H2544 0.950 . S
C2552 C2553 1.386 . S
C2552 C2554 1.391 . S
C2553 C2552 1.386 . S
C2553 C2557 1.393 . S
C2554 H2546 0.950 . S
C2554 C2552 1.391 . S
C2554 C2555 1.400 . S
C2555 C2554 1.400 . S
C2555 C2556 1.398 . S
C2555 C2561 1.491 . S
C2556 H2547 0.950 . S
C2556 C2555 1.398 . S
C2556 C2557 1.391 . S
C2557 H2545 0.950 . S
C2557 C2553 1.393 . S
C2557 C2556 1.391 . S
C2558 H2548 0.950 . S
C2558 C2559 1.386 . S
C2558 C2560 1.391 . S
C2559 C2558 1.386 . S
C2559 C2563 1.393 . S
C2560 H2549 0.950 . S
C2560 C2558 1.391 . S
C2560 C2561 1.400 . S
C2561 C2555 1.491 . S
C2561 C2560 1.400 . S
C2561 C2562 1.398 . S
C2562 H2550 0.950 . S
C2562 C2561 1.398 . S
C2562 C2563 1.391 . S
C2563 H2551 0.950 . S
C2563 C2559 1.393 . S
C2563 C2562 1.391 . S
H2564 C2572 0.950 . S
H2565 C2577 0.950 . S
H2566 C2574 0.950 . S
H2567 C2576 0.950 . S
H2568 C2578 0.950 . S
H2569 C2580 0.950 . S
H2570 C2582 0.950 . S
H2571 C2583 0.950 . S
C2572 H2564 0.950 . S
C2572 C2573 1.386 . S
C2572 C2574 1.391 . S
C2573 C2572 1.386 . S
C2573 C2577 1.393 . S
C2574 H2566 0.950 . S
C2574 C2572 1.391 . S
C2574 C2575 1.400 . S
C2575 C2574 1.400 . S
C2575 C2576 1.398 . S
C2575 C2581 1.491 . S
C2576 H2567 0.950 . S
C2576 C2575 1.398 . S
C2576 C2577 1.391 . S
C2577 H2565 0.950 . S
C2577 C2573 1.393 . S
C2577 C2576 1.391 . S
C2578 H2568 0.950 . S
C2578 C2579 1.386 . S
C2578 C2580 1.391 . S
C2579 C2578 1.386 . S
C2579 C2583 1.393 . S
C2580 H2569 0.950 . S
C2580 C2578 1.391 . S
C2580 C2581 1.400 . S
C2581 C2575 1.491 . S
C2581 C2580 1.400 . S
C2581 C2582 1.398 . S
C2582 H2570 0.950 . S
C2582 C2581 1.398 . S
C2582 C2583 1.391 . S
C2583 H2571 0.950 . S
C2583 C2579 1.393 . S
C2583 C2582 1.391 . S
H2584 C2592 0.950 . S
H2585 C2597 0.950 . S
H2586 C2594 0.950 . S
H2587 C2596 0.950 . S
H2588 C2598 0.950 . S
H2589 C2600 0.950 . S
H2590 C2602 0.950 . S
H2591 C2603 0.950 . S
C2592 H2584 0.950 . S
C2592 C2593 1.386 . S
C2592 C2594 1.391 . S
C2593 C2592 1.386 . S
C2593 C2597 1.393 . S
C2594 H2586 0.950 . S
C2594 C2592 1.391 . S
C2594 C2595 1.400 . S
C2595 C2594 1.400 . S
C2595 C2596 1.398 . S
C2595 C2601 1.491 . S
C2596 H2587 0.950 . S
C2596 C2595 1.398 . S
C2596 C2597 1.391 . S
C2597 H2585 0.950 . S
C2597 C2593 1.393 . S
C2597 C2596 1.391 . S
C2598 H2588 0.950 . S
C2598 C2599 1.386 . S
C2598 C2600 1.391 . S
C2599 C2598 1.386 . S
C2599 C2603 1.393 . S
C2600 H2589 0.950 . S
C2600 C2598 1.391 . S
C2600 C2601 1.400 . S
C2601 C2595 1.491 . S
C2601 C2600 1.400 . S
C2601 C2602 1.398 . S
C2602 H2590 0.950 . S
C2602 C2601 1.398 . S
C2602 C2603 1.391 . S
C2603 H2591 0.950 . S
C2603 C2599 1.393 . S
C2603 C2602 1.391 . S
H2604 C2612 0.950 . S
H2605 C2617 0.950 . S
H2606 C2614 0.950 . S
H2607 C2616 0.950 . S
H2608 C2618 0.950 . S
H2609 C2620 0.950 . S
H2610 C2622 0.950 . S
H2611 C2623 0.950 1_545 S
C2612 H2604 0.950 . S
C2612 C2613 1.386 . S
C2612 C2614 1.391 . S
C2613 C2612 1.386 . S
C2613 C2617 1.393 . S
C2614 H2606 0.950 . S
C2614 C2612 1.391 . S
C2614 C2615 1.400 . S
C2615 C2614 1.400 . S
C2615 C2616 1.398 . S
C2615 C2621 1.491 . S
C2616 H2607 0.950 . S
C2616 C2615 1.398 . S
C2616 C2617 1.391 . S
C2617 H2605 0.950 . S
C2617 C2613 1.393 . S
C2617 C2616 1.391 . S
C2618 H2608 0.950 . S
C2618 C2619 1.386 . S
C2618 C2620 1.391 . S
C2619 C2618 1.386 . S
C2619 C2623 1.393 . S
C2620 H2609 0.950 . S
C2620 C2618 1.391 . S
C2620 C2621 1.400 . S
C2621 C2615 1.491 . S
C2621 C2620 1.400 . S
C2621 C2622 1.398 . S
C2622 H2610 0.950 . S
C2622 C2621 1.398 . S
C2622 C2623 1.391 . S
C2623 H2611 0.950 1_565 S
C2623 C2619 1.393 . S
C2623 C2622 1.391 . S
H2624 C2632 0.950 . S
H2625 C2637 0.950 . S
H2626 C2634 0.950 . S
H2627 C2636 0.950 . S
H2628 C2638 0.950 . S
H2629 C2640 0.950 . S
H2630 C2642 0.950 . S
H2631 C2643 0.950 . S
C2632 H2624 0.950 . S
C2632 C2633 1.386 . S
C2632 C2634 1.391 . S
C2633 C2632 1.386 . S
C2633 C2637 1.393 . S
C2634 H2626 0.950 . S
C2634 C2632 1.391 . S
C2634 C2635 1.400 . S
C2635 C2634 1.400 . S
C2635 C2636 1.398 . S
C2635 C2641 1.491 . S
C2636 H2627 0.950 . S
C2636 C2635 1.398 . S
C2636 C2637 1.391 . S
C2637 H2625 0.950 . S
C2637 C2633 1.393 . S
C2637 C2636 1.391 . S
C2638 H2628 0.950 . S
C2638 C2639 1.386 . S
C2638 C2640 1.391 . S
C2639 C2638 1.386 . S
C2639 C2643 1.393 . S
C2640 H2629 0.950 . S
C2640 C2638 1.391 . S
C2640 C2641 1.400 . S
C2641 C2635 1.491 . S
C2641 C2640 1.400 . S
C2641 C2642 1.398 . S
C2642 H2630 0.950 . S
C2642 C2641 1.398 . S
C2642 C2643 1.391 . S
C2643 H2631 0.950 . S
C2643 C2639 1.393 . S
C2643 C2642 1.391 . S
C739 C376 1.097 . S
C733 C241 1.178 . S
C759 C384 1.140 . S
C753 C272 1.217 . S
C779 C379 1.250 . S
C773 C249 1.369 . S
C793 C206 1.652 . S
C799 C383 1.539 . S
C819 C438 1.334 . S
C813 C125 1.483 . S
C833 C142 1.200 . S
C839 C414 1.134 . S
C859 C441 1.139 . S
C853 C169 1.191 . S
C873 C103 1.737 . S
C879 C415 1.594 . S
C893 C315 1.775 . S
C899 C472 1.653 . S
C913 C338 1.421 . S
C919 C476 1.332 . S
C939 C531 0.981 . S
C933 C183 1.046 . S
C959 C539 1.619 . S
C953 C293 1.766 . S
C979 C469 1.047 . S
C973 C87 1.124 . S
C999 C477 1.562 . S
C993 C21 1.668 . S
C1013 C43 1.726 . S
C1019 C534 1.580 . S
C1033 C65 1.615 . S
C1039 C538 1.510 . S
C1053 C37 1.389 . S
C1059 C503 1.227 . S
C1079 C593 1.103 . S
C1073 C197 1.250 . S
C1093 C307 1.640 . S
C1099 C601 1.514 . S
C1119 C655 1.148 . S
C1113 C329 1.334 . S
C1133 C150 1.438 . S
C1139 C507 1.339 . S
C1159 C596 1.143 . S
C1153 C227 1.215 . S
C1179 C600 1.422 . S
C1173 C274 1.530 . S
C1199 C663 1.340 . S
C1193 C208 1.452 . S
C1213 C73 1.178 . S
C1219 C407 1.075 . S
C1233 C7 1.235 . S
C1239 C353 1.147 . S
C1259 C410 1.232 . S
C1253 C29 1.366 . S
C1273 C51 1.675 . S
C1279 C352 1.563 . S
C1293 C323 1.488 . S
C1299 C717 1.315 . S
C1313 C340 1.185 . S
C1319 C693 1.101 . S
C1339 C720 1.115 . S
C1333 C191 1.194 . S
C1353 C301 1.732 . S
C1359 C694 1.602 . S
C1373 C117 1.764 . S
C1379 C627 1.608 . S
C1399 C631 1.346 . S
C1393 C140 1.429 . S
C1419 C686 0.978 . S
C1413 C161 1.037 . S
C1439 C570 1.619 . S
C1433 C95 1.763 . S
C1459 C624 1.018 . S
C1453 C235 1.126 . S
C1473 C282 1.614 . S
C1479 C632 1.517 . S
C1493 C263 1.716 . S
C1499 C689 1.575 . S
C1519 C569 1.441 . S
C1513 C216 1.560 . S
C1533 C257 1.407 . S
C1539 C658 1.264 . S
C1559 C562 1.110 . S
C1553 C175 1.246 . S
C1573 C109 1.633 . S
C1579 C446 1.522 . S
C1593 C131 1.319 . S
C1599 C500 1.108 . S
C1613 C348 1.461 . S
C1619 C662 1.353 . S
C1633 C81 1.212 . S
C1639 C565 1.145 . S
C1653 C15 1.542 . S
C1659 C445 1.430 . S
C1679 C508 1.375 . S
C1673 C59 1.483 . S
C1699 C363 1.682 . S
C1693 C351 1.725 . S
C1719 C393 1.815 . S
C1713 C194 1.852 . S
C1739 C370 1.607 . S
C1733 C304 1.595 . S
C1759 C385 1.963 . S
C1753 C326 1.910 1_565 S
C1779 C425 1.585 . S
C1773 C205 1.624 . S
C1793 C230 2.059 . S
C1799 C416 2.078 . S
C1813 C271 1.759 . S
C1819 C432 1.799 . S
C1833 C250 1.996 1_565 S
C1839 C424 1.956 . S
C1859 C463 1.319 . S
C1853 C62 1.304 . S
C1879 C486 1.746 . S
C1873 C84 1.797 . S
C1893 C18 1.206 . S
C1899 C518 1.164 . S
C1919 C548 1.798 . S
C1913 C40 1.836 . S
C1933 C147 1.276 . S
C1939 C456 1.248 . S
C1959 C478 1.831 . S
C1953 C164 1.830 1_455 S
C1979 C525 1.235 . S
C1973 C98 1.232 . S
C1993 C120 1.874 1_655 S
C1999 C540 1.870 . S
C2019 C487 1.338 . S
C2013 C96 1.391 . S
C2033 C10 1.444 . S
C2039 C580 1.374 . S
C2053 C32 1.398 1_556 S
C2059 C610 1.380 . S
C2073 C54 1.240 . S
C2079 C649 1.286 . S
C2099 C509 1.767 . S
C2093 C238 1.719 . S
C2119 C587 1.373 . S
C2113 C337 1.317 . S
C2133 C184 1.847 . S
C2139 C602 1.867 . S
C2159 C672 1.200 . S
C2153 C316 1.212 . S
C2179 C394 1.663 . S
C2173 C153 1.705 . S
C2193 C172 1.857 1_545 S
C2199 C362 1.821 . S
C2213 C106 1.580 . S
C2219 C401 1.612 . S
C2233 C128 1.912 . S
C2239 C354 1.953 . S
C2259 C704 1.531 . S
C2253 C52 1.582 . S
C2279 C695 2.086 . S
C2273 C74 2.057 1_545 S
C2293 C8 1.721 . S
C2299 C711 1.741 . S
C2313 C30 2.009 . S
C2319 C703 1.953 . S
C2333 C219 1.324 . S
C2339 C618 1.372 . S
C2359 C641 1.720 . S
C2353 C228 1.776 1_655 S
C2379 C673 1.201 . S
C2373 C285 1.234 . S
C2393 C260 1.822 1_455 S
C2399 C579 1.763 . S
C2419 C611 1.243 . S
C2413 C345 1.285 . S
C2433 C186 1.866 . S
C2439 C633 1.856 . S
C2459 C680 1.246 . S
C2453 C296 1.216 . S
C2473 C318 1.895 . S
C2479 C571 1.884 . S
C2493 C294 1.388 . S
C2499 C642 1.335 . S
C2513 C279 1.504 . S
C2519 C549 1.463 . S
C2539 C455 1.381 . S
C2533 C252 1.414 . S
C2553 C213 1.297 . S
C2559 C494 1.336 . S
C2573 C76 1.705 1_556 S
C2579 C664 1.746 . S
C2593 C139 1.318 . S
C2599 C556 1.371 . S
C2619 C447 1.855 . S
C2613 C162 1.819 1_554 S
C2633 C118 1.196 . S
C2639 C517 1.183 . S
