# Generated by pormake.
# Topology ocu, (6,8)-cn, num edge types: 1
# Building blocks:
#     Node 0, Type 0, BuildingBlock: KUMJIN_clean_sbu_0, # of connection points: 6
#     Node 1, Type 0, BuildingBlock: KUMJIN_clean_sbu_0, # of connection points: 6
#     Node 2, Type 0, BuildingBlock: KUMJIN_clean_sbu_0, # of connection points: 6
#     Node 3, Type 0, BuildingBlock: KUMJIN_clean_sbu_0, # of connection points: 6
#     Node 4, Type 0, BuildingBlock: KUMJIN_clean_sbu_0, # of connection points: 6
#     Node 5, Type 0, BuildingBlock: KUMJIN_clean_sbu_0, # of connection points: 6
#     Node 6, Type 0, BuildingBlock: KUMJIN_clean_sbu_0, # of connection points: 6
#     Node 7, Type 0, BuildingBlock: KUMJIN_clean_sbu_0, # of connection points: 6
#     Node 8, Type 1, BuildingBlock: AJUNOK_clean_sbu_0, # of connection points: 8
#     Node 9, Type 1, BuildingBlock: AJUNOK_clean_sbu_0, # of connection points: 8
#     Node 10, Type 1, BuildingBlock: AJUNOK_clean_sbu_0, # of connection points: 8
#     Node 11, Type 1, BuildingBlock: AJUNOK_clean_sbu_0, # of connection points: 8
#     Node 12, Type 1, BuildingBlock: AJUNOK_clean_sbu_0, # of connection points: 8
#     Node 13, Type 1, BuildingBlock: AJUNOK_clean_sbu_0, # of connection points: 8
#     Edge 14, Type (0, 1), BuildingBlock: XUDNAN_clean_linker_2, # of connection points: 2
#     Edge 15, Type (0, 1), BuildingBlock: XUDNAN_clean_linker_2, # of connection points: 2
#     Edge 16, Type (0, 1), BuildingBlock: XUDNAN_clean_linker_2, # of connection points: 2
#     Edge 17, Type (0, 1), BuildingBlock: XUDNAN_clean_linker_2, # of connection points: 2
#     Edge 18, Type (0, 1), BuildingBlock: XUDNAN_clean_linker_2, # of connection points: 2
#     Edge 19, Type (0, 1), BuildingBlock: XUDNAN_clean_linker_2, # of connection points: 2
#     Edge 20, Type (0, 1), BuildingBlock: XUDNAN_clean_linker_2, # of connection points: 2
#     Edge 21, Type (0, 1), BuildingBlock: XUDNAN_clean_linker_2, # of connection points: 2
#     Edge 22, Type (0, 1), BuildingBlock: XUDNAN_clean_linker_2, # of connection points: 2
#     Edge 23, Type (0, 1), BuildingBlock: XUDNAN_clean_linker_2, # of connection points: 2
#     Edge 24, Type (0, 1), BuildingBlock: XUDNAN_clean_linker_2, # of connection points: 2
#     Edge 25, Type (0, 1), BuildingBlock: XUDNAN_clean_linker_2, # of connection points: 2
#     Edge 26, Type (0, 1), BuildingBlock: XUDNAN_clean_linker_2, # of connection points: 2
#     Edge 27, Type (0, 1), BuildingBlock: XUDNAN_clean_linker_2, # of connection points: 2
#     Edge 28, Type (0, 1), BuildingBlock: XUDNAN_clean_linker_2, # of connection points: 2
#     Edge 29, Type (0, 1), BuildingBlock: XUDNAN_clean_linker_2, # of connection points: 2
#     Edge 30, Type (0, 1), BuildingBlock: XUDNAN_clean_linker_2, # of connection points: 2
#     Edge 31, Type (0, 1), BuildingBlock: XUDNAN_clean_linker_2, # of connection points: 2
#     Edge 32, Type (0, 1), BuildingBlock: XUDNAN_clean_linker_2, # of connection points: 2
#     Edge 33, Type (0, 1), BuildingBlock: XUDNAN_clean_linker_2, # of connection points: 2
#     Edge 34, Type (0, 1), BuildingBlock: XUDNAN_clean_linker_2, # of connection points: 2
#     Edge 35, Type (0, 1), BuildingBlock: XUDNAN_clean_linker_2, # of connection points: 2
#     Edge 36, Type (0, 1), BuildingBlock: XUDNAN_clean_linker_2, # of connection points: 2
#     Edge 37, Type (0, 1), BuildingBlock: XUDNAN_clean_linker_2, # of connection points: 2
#     Edge 38, Type (0, 1), BuildingBlock: XUDNAN_clean_linker_2, # of connection points: 2
#     Edge 39, Type (0, 1), BuildingBlock: XUDNAN_clean_linker_2, # of connection points: 2
#     Edge 40, Type (0, 1), BuildingBlock: XUDNAN_clean_linker_2, # of connection points: 2
#     Edge 41, Type (0, 1), BuildingBlock: XUDNAN_clean_linker_2, # of connection points: 2
#     Edge 42, Type (0, 1), BuildingBlock: XUDNAN_clean_linker_2, # of connection points: 2
#     Edge 43, Type (0, 1), BuildingBlock: XUDNAN_clean_linker_2, # of connection points: 2
#     Edge 44, Type (0, 1), BuildingBlock: XUDNAN_clean_linker_2, # of connection points: 2
#     Edge 45, Type (0, 1), BuildingBlock: XUDNAN_clean_linker_2, # of connection points: 2
#     Edge 46, Type (0, 1), BuildingBlock: XUDNAN_clean_linker_2, # of connection points: 2
#     Edge 47, Type (0, 1), BuildingBlock: XUDNAN_clean_linker_2, # of connection points: 2
#     Edge 48, Type (0, 1), BuildingBlock: XUDNAN_clean_linker_2, # of connection points: 2
#     Edge 49, Type (0, 1), BuildingBlock: XUDNAN_clean_linker_2, # of connection points: 2
#     Edge 50, Type (0, 1), BuildingBlock: XUDNAN_clean_linker_2, # of connection points: 2
#     Edge 51, Type (0, 1), BuildingBlock: XUDNAN_clean_linker_2, # of connection points: 2
#     Edge 52, Type (0, 1), BuildingBlock: XUDNAN_clean_linker_2, # of connection points: 2
#     Edge 53, Type (0, 1), BuildingBlock: XUDNAN_clean_linker_2, # of connection points: 2
#     Edge 54, Type (0, 1), BuildingBlock: XUDNAN_clean_linker_2, # of connection points: 2
#     Edge 55, Type (0, 1), BuildingBlock: XUDNAN_clean_linker_2, # of connection points: 2
#     Edge 56, Type (0, 1), BuildingBlock: XUDNAN_clean_linker_2, # of connection points: 2
#     Edge 57, Type (0, 1), BuildingBlock: XUDNAN_clean_linker_2, # of connection points: 2
#     Edge 58, Type (0, 1), BuildingBlock: XUDNAN_clean_linker_2, # of connection points: 2
#     Edge 59, Type (0, 1), BuildingBlock: XUDNAN_clean_linker_2, # of connection points: 2
#     Edge 60, Type (0, 1), BuildingBlock: XUDNAN_clean_linker_2, # of connection points: 2
#     Edge 61, Type (0, 1), BuildingBlock: XUDNAN_clean_linker_2, # of connection points: 2
# Relax obj value: 0.159
# Max RMSD: 0.262
# Mean RMSD: 0.204
data_MOF--net-ocu--node1-KUMJIN_clean_sbu_0--node2-AJUNOK_clean_sbu_0--edge1-XUDNAN_clean_linker_2
_symmetry_space_group_name_H-M    P1
_symmetry_Int_Tables_number       1
_symmetry_cell_setting            triclinic
loop_
_symmetry_equiv_pos_as_xyz
'x, y, z'
_cell_length_a     44.116217
_cell_length_b     43.553254
_cell_length_c     39.376892
_cell_angle_alpha  86.790936
_cell_angle_beta   105.05622
_cell_angle_gamma 114.78152
loop_
_atom_site_label
_atom_site_type_symbol
_atom_site_fract_x
_atom_site_fract_y
_atom_site_fract_z
_atom_type_partial_charge
Eu0 Eu 0.25402 0.21905 0.20317 0.0
C1 C 0.34427 0.31626 0.33821 0.0
C2 C 0.34431 0.27726 0.38455 0.0
C3 C 0.39189 0.33319 0.39125 0.0
C4 C 0.32866 0.2849 0.35112 0.0
C5 C 0.37573 0.34101 0.35841 0.0
C6 C 0.37624 0.30137 0.40427 0.0
C7 C 0.37159 0.38021 0.31338 0.0
N8 N 0.32791 0.32314 0.30655 0.0
C9 C 0.34033 0.35492 0.29447 0.0
C10 C 0.38956 0.37313 0.34535 0.0
Eu11 Eu 0.27518 0.27939 0.27602 0.0
N12 N 0.29768 0.26226 0.33152 0.0
C13 C 0.28007 0.23222 0.34474 0.0
C14 C 0.32707 0.24589 0.39747 0.0
C15 C 0.29465 0.22341 0.3776 0.0
H16 H 0.32637 0.36041 0.26977 0.0
H17 H 0.28081 0.19931 0.38762 0.0
H18 H 0.38871 0.29588 0.42991 0.0
H19 H 0.38173 0.40513 0.30335 0.0
H20 H 0.25492 0.21454 0.32997 0.0
H21 H 0.25648 0.30268 0.09351 0.0
H22 H 0.33824 0.23905 0.423 0.0
H23 H 0.20119 0.13795 0.20429 0.0
H24 H 0.27923 0.28533 0.15115 0.0
H25 H 0.146 0.09517 0.16782 0.0
H26 H 0.41618 0.35179 0.40707 0.0
H27 H 0.19817 0.26635 0.05708 0.0
H28 H 0.14504 0.2117 0.04851 0.0
H29 H 0.41368 0.39282 0.36008 0.0
H30 H 0.11485 0.15516 0.06869 0.0
N31 N 0.23418 0.23922 0.14836 0.0
C32 C 0.25376 0.26889 0.13589 0.0
C33 C 0.20799 0.25847 0.08258 0.0
C34 C 0.1886 0.22749 0.09476 0.0
C35 C 0.24096 0.27896 0.10298 0.0
C36 C 0.20267 0.21829 0.12808 0.0
H37 H 0.11538 0.11124 0.1127 0.0
N38 N 0.2008 0.1777 0.17062 0.0
C39 C 0.15665 0.12085 0.15972 0.0
C40 C 0.18552 0.18654 0.13952 0.0
C41 C 0.18777 0.14505 0.1803 0.0
C42 C 0.13941 0.13005 0.12868 0.0
C43 C 0.1541 0.16305 0.11787 0.0
O44 O 0.27076 0.17827 0.20456 0.0
O45 O 0.28586 0.23701 0.25885 0.0
O46 O 0.32506 0.29544 0.25987 0.0
O47 O 0.30244 0.26656 0.2045 0.0
O48 O 0.25663 0.18553 0.24867 0.0
O49 O 0.28333 0.21625 0.16683 0.0
O50 O 0.26065 0.32128 0.27986 0.0
O51 O 0.24365 0.26077 0.2211 0.0
O52 O 0.20446 0.20376 0.21914 0.0
O53 O 0.22763 0.23039 0.27561 0.0
O54 O 0.2695 0.31174 0.22933 0.0
O55 O 0.24067 0.27668 0.30835 0.0
C56 C 0.28063 0.2084 0.27203 0.0
C57 C 0.27919 0.16164 0.15317 0.0
C58 C 0.30084 0.12818 0.12667 0.0
C59 C 0.30704 0.15539 0.1492 0.0
C60 C 0.26677 0.10704 0.10875 0.0
C61 C 0.24547 0.14075 0.13407 0.0
C62 C 0.23928 0.11337 0.11241 0.0
C63 C 0.32788 0.28871 0.22884 0.0
C64 C 0.28537 0.18846 0.17883 0.0
C65 C 0.13915 0.17274 0.08552 0.0
C66 C 0.15635 0.20493 0.07402 0.0
C67 C 0.24594 0.28808 0.20657 0.0
C68 C 0.2453 0.32814 0.33156 0.0
C69 C 0.22063 0.34125 0.33022 0.0
C70 C 0.22345 0.36138 0.35896 0.0
C71 C 0.25157 0.36809 0.38882 0.0
C72 C 0.27291 0.33533 0.3617 0.0
C73 C 0.27597 0.35519 0.39008 0.0
C74 C 0.20187 0.20868 0.25089 0.0
C75 C 0.24177 0.30673 0.3016 0.0
H76 H 0.33331 0.17171 0.16328 0.0
H77 H 0.26156 0.0861 0.09119 0.0
H78 H 0.22386 0.14548 0.13584 0.0
H79 H 0.2131 0.09721 0.09809 0.0
H80 H 0.19912 0.33542 0.30699 0.0
H81 H 0.25518 0.38394 0.41107 0.0
H82 H 0.29205 0.32554 0.36332 0.0
H83 H 0.2975 0.36074 0.4132 0.0
Eu84 Eu 0.78933 0.21681 0.23811 0.0
C85 C 0.71378 0.26459 0.32211 0.0
C86 C 0.65508 0.2207 0.30789 0.0
C87 C 0.6776 0.25571 0.36233 0.0
C88 C 0.68701 0.23833 0.29948 0.0
C89 C 0.70908 0.2738 0.35355 0.0
C90 C 0.65065 0.22929 0.33952 0.0
C91 C 0.76563 0.32041 0.36383 0.0
N92 N 0.74394 0.2818 0.31295 0.0
C93 C 0.76884 0.31076 0.33219 0.0
C94 C 0.73576 0.30161 0.37478 0.0
Eu95 Eu 0.74409 0.26684 0.2559 0.0
N96 N 0.69201 0.23011 0.26921 0.0
C97 C 0.66621 0.20456 0.24629 0.0
C98 C 0.62834 0.19509 0.2841 0.0
C99 C 0.63399 0.18692 0.25323 0.0
H100 H 0.79155 0.3261 0.3232 0.0
H101 H 0.61352 0.16697 0.23476 0.0
H102 H 0.62637 0.21581 0.34648 0.0
H103 H 0.78593 0.34266 0.37941 0.0
H104 H 0.67012 0.1976 0.22249 0.0
H105 H 0.92767 0.30989 0.27406 0.0
H106 H 0.6033 0.18139 0.28942 0.0
H107 H 0.74891 0.16277 0.16621 0.0
H108 H 0.87524 0.26953 0.28688 0.0
H109 H 0.75716 0.15427 0.10874 0.0
H110 H 0.67361 0.26235 0.38641 0.0
H111 H 0.93506 0.31171 0.214 0.0
H112 H 0.91296 0.28571 0.15304 0.0
H113 H 0.7331 0.30941 0.39909 0.0
H114 H 0.86748 0.24246 0.10861 0.0
N115 N 0.84739 0.25204 0.23293 0.0
C116 C 0.87531 0.27143 0.25965 0.0
C117 C 0.91063 0.29469 0.21903 0.0
C118 C 0.88409 0.27199 0.19264 0.0
C119 C 0.90645 0.29389 0.25284 0.0
C120 C 0.85231 0.25079 0.20027 0.0
H121 H 0.80986 0.19326 0.09209 0.0
N122 N 0.79561 0.20759 0.18179 0.0
C123 C 0.77645 0.17534 0.12663 0.0
C124 C 0.82612 0.22738 0.17446 0.0
C125 C 0.77179 0.18051 0.15922 0.0
C126 C 0.80628 0.19731 0.11741 0.0
C127 C 0.83179 0.22339 0.14153 0.0
O128 O 0.75912 0.16185 0.23136 0.0
O129 O 0.74411 0.21549 0.25596 0.0
O130 O 0.78212 0.26578 0.30595 0.0
O131 O 0.82046 0.24997 0.28819 0.0
O132 O 0.77545 0.19469 0.28838 0.0
O133 O 0.81527 0.18319 0.24744 0.0
O134 O 0.75249 0.31978 0.25611 0.0
O135 O 0.77844 0.26199 0.22582 0.0
O136 O 0.74618 0.21335 0.19093 0.0
O137 O 0.71421 0.24164 0.20134 0.0
O138 O 0.79288 0.30983 0.24634 0.0
O139 O 0.70217 0.28049 0.22878 0.0
C140 C 0.74734 0.19877 0.28304 0.0
C141 C 0.78473 0.13376 0.27374 0.0
C142 C 0.80724 0.12631 0.33548 0.0
C143 C 0.80794 0.14666 0.30673 0.0
C144 C 0.78131 0.09297 0.33149 0.0
C145 C 0.75912 0.10048 0.26997 0.0
C146 C 0.75724 0.0803 0.29892 0.0
C147 C 0.81179 0.26357 0.3112 0.0
C148 C 0.78639 0.15588 0.24406 0.0
C149 C 0.86297 0.2449 0.13389 0.0
C150 C 0.88887 0.26944 0.15922 0.0
C151 C 0.80021 0.29211 0.22738 0.0
C152 C 0.71206 0.33807 0.21986 0.0
C153 C 0.70437 0.33706 0.1831 0.0
C154 C 0.69451 0.36139 0.16505 0.0
C155 C 0.69237 0.38649 0.18432 0.0
C156 C 0.71041 0.3634 0.23873 0.0
C157 C 0.70056 0.38757 0.22095 0.0
C158 C 0.72007 0.2222 0.18169 0.0
C159 C 0.72036 0.31235 0.23965 0.0
H160 H 0.82709 0.17273 0.31004 0.0
H161 H 0.7804 0.07627 0.353 0.0
H162 H 0.74057 0.09025 0.24479 0.0
H163 H 0.73754 0.05456 0.29594 0.0
H164 H 0.7056 0.31726 0.16873 0.0
H165 H 0.68343 0.4048 0.17109 0.0
H166 H 0.71617 0.36409 0.26725 0.0
H167 H 0.69865 0.40675 0.23551 0.0
Eu168 Eu 0.74383 0.74605 0.28043 0.0
C169 C 0.82018 0.82145 0.16772 0.0
C170 C 0.7744 0.82224 0.11805 0.0
C171 C 0.83218 0.86763 0.12821 0.0
C172 C 0.78571 0.80701 0.14836 0.0
C173 C 0.84384 0.8516 0.15732 0.0
C174 C 0.79756 0.85302 0.10866 0.0
C175 C 0.88964 0.84658 0.20331 0.0
N176 N 0.83099 0.80514 0.19547 0.0
C177 C 0.86543 0.81673 0.21259 0.0
C178 C 0.87877 0.86429 0.17581 0.0
Eu179 Eu 0.78692 0.75504 0.20883 0.0
N180 N 0.76391 0.77683 0.15746 0.0
C181 C 0.73197 0.75891 0.13551 0.0
C182 C 0.74054 0.80533 0.09713 0.0
C183 C 0.71948 0.7732 0.1055 0.0
H184 H 0.87431 0.803 0.23348 0.0
H185 H 0.69368 0.75938 0.0888 0.0
H186 H 0.78922 0.86519 0.08564 0.0
H187 H 0.91672 0.85577 0.21723 0.0
H188 H 0.71572 0.73382 0.14147 0.0
H189 H 0.83294 0.74597 0.406 0.0
H190 H 0.73088 0.81625 0.07371 0.0
H191 H 0.65725 0.70211 0.25925 0.0
H192 H 0.81223 0.76917 0.3508 0.0
H193 H 0.6135 0.64972 0.27448 0.0
H194 H 0.84996 0.89089 0.12002 0.0
H195 H 0.79595 0.68931 0.42177 0.0
H196 H 0.7381 0.63929 0.40864 0.0
H197 H 0.89769 0.88729 0.16851 0.0
H198 H 0.67792 0.61289 0.37255 0.0
N199 N 0.7651 0.72524 0.33406 0.0
C200 C 0.79623 0.74404 0.35684 0.0
C201 C 0.78699 0.69914 0.39717 0.0
C202 C 0.75393 0.68116 0.37509 0.0
C203 C 0.80789 0.73114 0.38842 0.0
C204 C 0.74347 0.69527 0.34349 0.0
H205 H 0.63104 0.61683 0.3227 0.0
N206 N 0.69983 0.69716 0.29554 0.0
C207 C 0.64053 0.65781 0.28815 0.0
C208 C 0.70966 0.68066 0.32348 0.0
C209 C 0.66555 0.68727 0.27916 0.0
C210 C 0.65054 0.63932 0.31536 0.0
C211 C 0.68533 0.65121 0.33411 0.0
O212 O 0.71264 0.77368 0.28192 0.0
O213 O 0.74871 0.76787 0.22723 0.0
O214 O 0.81227 0.80557 0.23894 0.0
O215 O 0.79662 0.7886 0.29147 0.0
O216 O 0.69998 0.74705 0.23612 0.0
O217 O 0.75586 0.78011 0.32592 0.0
O218 O 0.79957 0.71173 0.20555 0.0
O219 O 0.78306 0.73471 0.26193 0.0
O220 O 0.72274 0.69451 0.25332 0.0
O221 O 0.7336 0.71287 0.19915 0.0
O222 O 0.83135 0.75294 0.25191 0.0
O223 O 0.78918 0.73711 0.15891 0.0
C224 C 0.71709 0.76259 0.21371 0.0
C225 C 0.70794 0.78568 0.33705 0.0
C226 C 0.67645 0.81107 0.36022 0.0
C227 C 0.70099 0.81366 0.3418 0.0
C228 C 0.65981 0.7798 0.37437 0.0
C229 C 0.69152 0.75528 0.35208 0.0
C230 C 0.66768 0.75246 0.37071 0.0
C231 C 0.81489 0.8108 0.27235 0.0
C232 C 0.72954 0.78747 0.31342 0.0
C233 C 0.69616 0.63567 0.36413 0.0
C234 C 0.73043 0.65068 0.38466 0.0
C235 C 0.81454 0.73913 0.27526 0.0
C236 C 0.82984 0.71389 0.16362 0.0
C237 C 0.8293 0.68389 0.15104 0.0
C238 C 0.85939 0.68421 0.14444 0.0
C239 C 0.88962 0.71445 0.1504 0.0
C240 C 0.86022 0.74385 0.16855 0.0
C241 C 0.88992 0.74412 0.16218 0.0
C242 C 0.71887 0.68918 0.21949 0.0
C243 C 0.79937 0.71409 0.17254 0.0
H244 H 0.71445 0.83715 0.33055 0.0
H245 H 0.63991 0.77583 0.38754 0.0
H246 H 0.69654 0.73353 0.34878 0.0
H247 H 0.65457 0.72866 0.38166 0.0
H248 H 0.80589 0.66059 0.14665 0.0
H249 H 0.91289 0.7152 0.14524 0.0
H250 H 0.86097 0.76711 0.17723 0.0
H251 H 0.91321 0.76746 0.16625 0.0
Eu252 Eu 0.29555 0.72557 0.25665 0.0
C253 C 0.22126 0.80979 0.16757 0.0
C254 C 0.26685 0.86635 0.17165 0.0
C255 C 0.21893 0.84636 0.11895 0.0
C256 C 0.25232 0.83473 0.18601 0.0
C257 C 0.20363 0.81566 0.13431 0.0
C258 C 0.25057 0.87164 0.13755 0.0
C259 C 0.15598 0.76155 0.1353 0.0
N260 N 0.20738 0.78035 0.18304 0.0
C261 C 0.17473 0.75673 0.16812 0.0
C262 C 0.17075 0.79088 0.11801 0.0
Eu263 Eu 0.24129 0.77342 0.23759 0.0
N264 N 0.26707 0.82889 0.21901 0.0
C265 C 0.29423 0.85465 0.24047 0.0
C266 C 0.29649 0.89208 0.19255 0.0
C267 C 0.30974 0.88644 0.2274 0.0
H268 H 0.1635 0.73383 0.18121 0.0
H269 H 0.33204 0.90647 0.24415 0.0
H270 H 0.26161 0.89558 0.12585 0.0
H271 H 0.13035 0.74252 0.1232 0.0
H272 H 0.3048 0.85042 0.26736 0.0
H273 H 0.19626 0.59558 0.2462 0.0
H274 H 0.30855 0.91671 0.18248 0.0
H275 H 0.37321 0.75992 0.31407 0.0
H276 H 0.22605 0.65204 0.22564 0.0
H277 H 0.4045 0.74764 0.37111 0.0
H278 H 0.20607 0.85118 0.09316 0.0
H279 H 0.21971 0.5811 0.30595 0.0
H280 H 0.26735 0.59783 0.36216 0.0
H281 H 0.15628 0.79447 0.0925 0.0
H282 H 0.32429 0.63911 0.39607 0.0
N283 N 0.26597 0.6699 0.2734 0.0
C284 C 0.2368 0.64618 0.25169 0.0
C285 C 0.233 0.60599 0.29703 0.0
C286 C 0.2639 0.62978 0.31841 0.0
C287 C 0.21975 0.61403 0.26326 0.0
C288 C 0.28014 0.6618 0.3055 0.0
H289 H 0.37601 0.69472 0.39926 0.0
N290 N 0.32753 0.71464 0.31029 0.0
C291 C 0.37844 0.72982 0.35837 0.0
C292 C 0.31205 0.68489 0.32452 0.0
C293 C 0.36069 0.73669 0.32607 0.0
C294 C 0.36223 0.69998 0.37422 0.0
C295 C 0.32879 0.67683 0.35707 0.0
O296 O 0.34278 0.73789 0.24074 0.0
O297 O 0.28921 0.77064 0.23275 0.0
O298 O 0.23874 0.75269 0.18523 0.0
O299 O 0.25323 0.70795 0.205 0.0
O300 O 0.33839 0.77828 0.26221 0.0
O301 O 0.29721 0.69191 0.21883 0.0
O302 O 0.19406 0.76032 0.25361 0.0
O303 O 0.24943 0.73016 0.26241 0.0
O304 O 0.30031 0.74826 0.3088 0.0
O305 O 0.28334 0.79203 0.28972 0.0
O306 O 0.19953 0.71986 0.23754 0.0
O307 O 0.23816 0.80817 0.27319 0.0
C308 C 0.32001 0.79251 0.24308 0.0
C309 C 0.35157 0.69209 0.22297 0.0
C310 C 0.36738 0.6559 0.19355 0.0
C311 C 0.34584 0.67193 0.19356 0.0
C312 C 0.39472 0.65978 0.22319 0.0
C313 C 0.37874 0.69569 0.25285 0.0
C314 C 0.40021 0.67951 0.25287 0.0
C315 C 0.24063 0.72401 0.17953 0.0
C316 C 0.32982 0.71023 0.22074 0.0
C317 C 0.31203 0.64564 0.37092 0.0
C318 C 0.2796 0.62215 0.35162 0.0
C319 C 0.21923 0.70755 0.25794 0.0
C320 C 0.18233 0.80515 0.26849 0.0
C321 C 0.18785 0.82751 0.29593 0.0
C322 C 0.16492 0.84234 0.29424 0.0
C323 C 0.13619 0.83466 0.26512 0.0
C324 C 0.15351 0.79754 0.23929 0.0
C325 C 0.1305 0.81223 0.23776 0.0
C326 C 0.29791 0.77673 0.31459 0.0
C327 C 0.20589 0.78876 0.27206 0.0
H328 H 0.32492 0.66912 0.17041 0.0
H329 H 0.41157 0.64743 0.22339 0.0
H330 H 0.38361 0.7112 0.27589 0.0
H331 H 0.42125 0.68243 0.27581 0.0
H332 H 0.20994 0.83337 0.31863 0.0
H333 H 0.11825 0.84599 0.26363 0.0
H334 H 0.14854 0.78008 0.21792 0.0
H335 H 0.10822 0.80618 0.21537 0.0
Eu336 Eu 0.29074 0.72337 0.73594 0.0
C337 C 0.21246 0.77 0.82067 0.0
C338 C 0.15345 0.72739 0.80189 0.0
C339 C 0.17297 0.75962 0.85764 0.0
C340 C 0.18637 0.74577 0.79546 0.0
C341 C 0.20587 0.77726 0.85187 0.0
C342 C 0.14686 0.73472 0.83275 0.0
C343 C 0.26473 0.81959 0.86956 0.0
N344 N 0.24444 0.78614 0.81511 0.0
C345 C 0.27005 0.81167 0.83836 0.0
C346 C 0.23256 0.80214 0.87649 0.0
Eu347 Eu 0.25076 0.77539 0.75959 0.0
N348 N 0.19371 0.73848 0.76609 0.0
C349 C 0.16979 0.7105 0.74455 0.0
C350 C 0.12832 0.7012 0.77783 0.0
C351 C 0.1368 0.69228 0.74947 0.0
H352 H 0.29468 0.8264 0.83265 0.0
H353 H 0.11824 0.67059 0.73189 0.0
H354 H 0.12177 0.72082 0.83792 0.0
H355 H 0.28532 0.83948 0.88802 0.0
H356 H 0.17589 0.70016 0.72454 0.0
H357 H 0.41576 0.8335 0.762 0.0
H358 H 0.10284 0.68664 0.78187 0.0
H359 H 0.24906 0.66799 0.66553 0.0
H360 H 0.35809 0.79812 0.7704 0.0
H361 H 0.26207 0.65301 0.613 0.0
H362 H 0.16754 0.76483 0.88145 0.0
H363 H 0.43246 0.82114 0.71094 0.0
H364 H 0.41539 0.78798 0.65409 0.0
H365 H 0.22844 0.80841 0.90067 0.0
H366 H 0.37269 0.74038 0.61242 0.0
N367 N 0.34236 0.76519 0.72515 0.0
C368 C 0.36509 0.79203 0.74833 0.0
C369 C 0.40697 0.8056 0.71443 0.0
C370 C 0.383 0.77927 0.68982 0.0
C371 C 0.39773 0.81244 0.74346 0.0
C372 C 0.35052 0.75904 0.69608 0.0
H373 H 0.31563 0.68998 0.59702 0.0
N374 N 0.29516 0.71358 0.67913 0.0
C375 C 0.27951 0.67624 0.62865 0.0
C376 C 0.32622 0.73257 0.67235 0.0
C377 C 0.27231 0.68496 0.65835 0.0
C378 C 0.31016 0.69689 0.62002 0.0
C379 C 0.33416 0.72525 0.64212 0.0
O380 O 0.28483 0.67156 0.73107 0.0
O381 O 0.2602 0.72951 0.76945 0.0
O382 O 0.29486 0.77691 0.80592 0.0
O383 O 0.32139 0.7445 0.7918 0.0
O384 O 0.24427 0.68067 0.75072 0.0
O385 O 0.33282 0.70984 0.76289 0.0
O386 O 0.2842 0.83006 0.76181 0.0
O387 O 0.2912 0.7746 0.73536 0.0
O388 O 0.24366 0.71748 0.69029 0.0
O389 O 0.21553 0.74761 0.70741 0.0
O390 O 0.25748 0.79483 0.70629 0.0
O391 O 0.23012 0.81239 0.76074 0.0
C392 C 0.23896 0.69956 0.77042 0.0
C393 C 0.31899 0.65227 0.77468 0.0
C394 C 0.32684 0.63031 0.83264 0.0
C395 C 0.32321 0.65587 0.81102 0.0
C396 C 0.32644 0.60146 0.81761 0.0
C397 C 0.3186 0.62343 0.76011 0.0
C398 C 0.32231 0.59811 0.78156 0.0
C399 C 0.31811 0.76413 0.81372 0.0
C400 C 0.3157 0.67821 0.751 0.0
C401 C 0.36627 0.74559 0.63557 0.0
C402 C 0.39064 0.77256 0.65937 0.0
C403 C 0.28412 0.78908 0.70746 0.0
C404 C 0.25152 0.85606 0.72391 0.0
C405 C 0.21921 0.84211 0.69924 0.0
C406 C 0.21124 0.8588 0.66925 0.0
C407 C 0.23738 0.88877 0.66216 0.0
C408 C 0.2774 0.88606 0.71676 0.0
C409 C 0.27041 0.90206 0.68568 0.0
C410 C 0.21808 0.72746 0.68501 0.0
C411 C 0.25768 0.83766 0.75577 0.0
H412 H 0.32426 0.67849 0.82245 0.0
H413 H 0.33061 0.58202 0.83399 0.0
H414 H 0.31573 0.62069 0.73211 0.0
H415 H 0.32255 0.57611 0.77033 0.0
H416 H 0.19961 0.81797 0.70347 0.0
H417 H 0.2321 0.9024 0.63916 0.0
H418 H 0.30288 0.89688 0.73493 0.0
H419 H 0.29044 0.92518 0.68016 0.0
Eu420 Eu 0.23172 0.23865 0.77662 0.0
C421 C 0.3322 0.32855 0.68591 0.0
C422 C 0.29385 0.3303 0.62997 0.0
C423 C 0.35145 0.37587 0.64902 0.0
C424 C 0.30049 0.31425 0.66139 0.0
C425 C 0.35821 0.35933 0.67983 0.0
C426 C 0.31933 0.3614 0.62415 0.0
C427 C 0.39632 0.35411 0.73407 0.0
N428 N 0.33805 0.31176 0.71519 0.0
C429 C 0.36975 0.32363 0.73889 0.0
C430 C 0.39046 0.37219 0.70455 0.0
Eu431 Eu 0.29224 0.26008 0.72111 0.0
N432 N 0.27665 0.28396 0.66755 0.0
C433 C 0.24624 0.26754 0.64262 0.0
C434 C 0.26213 0.31422 0.60496 0.0
C435 C 0.23838 0.28252 0.61118 0.0
H436 H 0.3745 0.30977 0.76173 0.0
H437 H 0.21403 0.26955 0.59174 0.0
H438 H 0.31467 0.37414 0.60024 0.0
H439 H 0.4213 0.36363 0.75311 0.0
H440 H 0.22774 0.24289 0.64685 0.0
H441 H 0.3106 0.22468 0.9036 0.0
H442 H 0.25602 0.32571 0.58051 0.0
H443 H 0.14903 0.18998 0.73544 0.0
H444 H 0.29651 0.25372 0.85046 0.0
H445 H 0.10232 0.13547 0.74262 0.0
H446 H 0.37107 0.39959 0.64393 0.0
H447 H 0.26826 0.16807 0.91328 0.0
H448 H 0.20924 0.12038 0.89292 0.0
H449 H 0.41113 0.39576 0.70083 0.0
H450 H 0.15262 0.09631 0.84943 0.0
N451 N 0.24724 0.21334 0.8291 0.0
C452 C 0.27791 0.22884 0.85397 0.0
C453 C 0.26204 0.18057 0.88964 0.0
C454 C 0.23003 0.16546 0.86479 0.0
C455 C 0.28597 0.21253 0.8843 0.0
C456 C 0.22327 0.18273 0.83437 0.0
H457 H 0.11251 0.1018 0.79349 0.0
N458 N 0.18554 0.18681 0.78131 0.0
C459 C 0.1273 0.14459 0.76165 0.0
C460 C 0.19142 0.16915 0.80988 0.0
C461 C 0.15384 0.17545 0.75764 0.0
C462 C 0.13317 0.12565 0.79039 0.0
C463 C 0.16542 0.13796 0.81511 0.0
O464 O 0.19625 0.26255 0.77312 0.0
O465 O 0.24803 0.26804 0.73115 0.0
O466 O 0.30381 0.30873 0.75042 0.0
O467 O 0.2834 0.28277 0.79785 0.0
O468 O 0.1962 0.24193 0.7242 0.0
O469 O 0.23268 0.26575 0.82262 0.0
O470 O 0.33026 0.23946 0.72422 0.0
O471 O 0.27607 0.23096 0.76652 0.0
O472 O 0.22031 0.19031 0.74823 0.0
O473 O 0.24082 0.21487 0.70019 0.0
O474 O 0.32804 0.25645 0.77315 0.0
O475 O 0.28842 0.2283 0.67726 0.0
C476 C 0.21917 0.26398 0.71014 0.0
C477 C 0.18192 0.27239 0.82399 0.0
C478 C 0.15341 0.30068 0.84815 0.0
C479 C 0.18025 0.30235 0.83369 0.0
C480 C 0.1288 0.26862 0.85316 0.0
C481 C 0.15715 0.24086 0.82959 0.0
C482 C 0.13083 0.23907 0.84418 0.0
C483 C 0.29904 0.3102 0.78203 0.0
C484 C 0.20799 0.27426 0.80579 0.0
C485 C 0.17224 0.12035 0.845 0.0
C486 C 0.20449 0.13405 0.86976 0.0
C487 C 0.30495 0.23458 0.78716 0.0
C488 C 0.34 0.22549 0.67212 0.0
C489 C 0.34285 0.1958 0.66356 0.0
C490 C 0.3683 0.19782 0.64674 0.0
C491 C 0.39017 0.22979 0.6381 0.0
C492 C 0.36202 0.25691 0.66287 0.0
C493 C 0.38685 0.25896 0.64588 0.0
C494 C 0.22426 0.18812 0.7165 0.0
C495 C 0.31603 0.22383 0.6931 0.0
H496 H 0.19923 0.3268 0.82916 0.0
H497 H 0.10814 0.26639 0.86453 0.0
H498 H 0.15791 0.21765 0.82226 0.0
H499 H 0.11174 0.2146 0.84833 0.0
H500 H 0.32607 0.17144 0.6709 0.0
H501 H 0.40973 0.23219 0.62495 0.0
H502 H 0.36037 0.27991 0.6693 0.0
H503 H 0.40387 0.28336 0.63898 0.0
Eu504 Eu 0.78181 0.21464 0.74984 0.0
C505 C 0.71955 0.31432 0.67099 0.0
C506 C 0.76976 0.36621 0.66974 0.0
C507 C 0.71604 0.35269 0.62435 0.0
C508 C 0.75385 0.33565 0.68536 0.0
C509 C 0.70006 0.32283 0.64065 0.0
C510 C 0.75083 0.37434 0.63888 0.0
C511 C 0.6498 0.27302 0.64633 0.0
N512 N 0.70481 0.28587 0.68754 0.0
C513 C 0.67014 0.26589 0.67655 0.0
C514 C 0.66489 0.30145 0.62807 0.0
Eu515 Eu 0.74095 0.27436 0.73749 0.0
N516 N 0.77135 0.32711 0.71527 0.0
C517 C 0.80436 0.34898 0.73195 0.0
C518 C 0.80402 0.388 0.68597 0.0
C519 C 0.82126 0.37947 0.7174 0.0
H520 H 0.65837 0.24397 0.69068 0.0
H521 H 0.84759 0.39637 0.73049 0.0
H522 H 0.76268 0.3976 0.6264 0.0
H523 H 0.62251 0.25665 0.63719 0.0
H524 H 0.81823 0.34306 0.75626 0.0
H525 H 0.67527 0.08976 0.74332 0.0
H526 H 0.81715 0.4117 0.67482 0.0
H527 H 0.86129 0.24445 0.80458 0.0
H528 H 0.70736 0.14499 0.72168 0.0
H529 H 0.89169 0.23125 0.86176 0.0
H530 H 0.70157 0.35956 0.60088 0.0
H531 H 0.69876 0.07463 0.80272 0.0
H532 H 0.74729 0.08968 0.85795 0.0
H533 H 0.64905 0.30705 0.60477 0.0
H534 H 0.80614 0.12832 0.89035 0.0
N535 N 0.74871 0.16127 0.76838 0.0
C536 C 0.71804 0.13876 0.74759 0.0
C537 C 0.71301 0.09898 0.79336 0.0
C538 C 0.74512 0.12161 0.81396 0.0
C539 C 0.6997 0.10738 0.75979 0.0
C540 C 0.76278 0.15284 0.8004 0.0
H541 H 0.86037 0.18094 0.89179 0.0
N542 N 0.81307 0.20317 0.80361 0.0
C543 C 0.8647 0.21521 0.85005 0.0
C544 C 0.79593 0.17451 0.81862 0.0
C545 C 0.8475 0.22263 0.8178 0.0
C546 C 0.84689 0.18684 0.86695 0.0
C547 C 0.81231 0.16565 0.8509 0.0
O548 O 0.82636 0.21801 0.73366 0.0
O549 O 0.77892 0.25992 0.72288 0.0
O550 O 0.7243 0.24764 0.68466 0.0
O551 O 0.73651 0.2003 0.70009 0.0
O552 O 0.82763 0.26184 0.74405 0.0
O553 O 0.77632 0.17536 0.71383 0.0
O554 O 0.70121 0.27111 0.76231 0.0
O555 O 0.7436 0.22859 0.76243 0.0
O556 O 0.79562 0.24239 0.80222 0.0
O557 O 0.791 0.29134 0.78107 0.0
O558 O 0.69477 0.22546 0.74216 0.0
O559 O 0.75158 0.31391 0.77605 0.0
C560 C 0.81058 0.27756 0.7253 0.0
C561 C 0.82662 0.16711 0.71906 0.0
C562 C 0.85215 0.13924 0.692 0.0
C563 C 0.83393 0.1591 0.68939 0.0
C564 C 0.86322 0.12728 0.72461 0.0
C565 C 0.83771 0.15544 0.75182 0.0
C566 C 0.85608 0.13555 0.75453 0.0
C567 C 0.72211 0.21742 0.67767 0.0
C568 C 0.80919 0.18935 0.71494 0.0
C569 C 0.79413 0.13542 0.86541 0.0
C570 C 0.76061 0.11342 0.84696 0.0
C571 C 0.71234 0.20958 0.75944 0.0
C572 C 0.70317 0.32217 0.77962 0.0
C573 C 0.68937 0.32179 0.80775 0.0
C574 C 0.67235 0.34229 0.80833 0.0
C575 C 0.66876 0.36311 0.78046 0.0
C576 C 0.69941 0.34262 0.75146 0.0
C577 C 0.6821 0.36304 0.75192 0.0
C578 C 0.80408 0.27506 0.80568 0.0
C579 C 0.7203 0.30003 0.78012 0.0
H580 H 0.82555 0.16846 0.66416 0.0
H581 H 0.87775 0.11211 0.72694 0.0
H582 H 0.8325 0.16184 0.77512 0.0
H583 H 0.86493 0.12673 0.7798 0.0
H584 H 0.69233 0.30593 0.8295 0.0
H585 H 0.6558 0.37936 0.78091 0.0
H586 H 0.70981 0.34283 0.72939 0.0
H587 H 0.67923 0.37895 0.73032 0.0
Eu588 Eu 0.76215 0.72254 0.71154 0.0
C589 C 0.83758 0.80584 0.84395 0.0
C590 C 0.83306 0.75993 0.88304 0.0
C591 C 0.884 0.81358 0.89674 0.0
C592 C 0.81934 0.77287 0.85214 0.0
C593 C 0.86944 0.82694 0.86697 0.0
C594 C 0.86591 0.7801 0.90468 0.0
C595 C 0.86761 0.87412 0.83241 0.0
N596 N 0.82283 0.81821 0.81515 0.0
C597 C 0.83592 0.85222 0.81056 0.0
C598 C 0.88487 0.86126 0.86028 0.0
Eu599 Eu 0.76996 0.77923 0.77912 0.0
N600 N 0.78736 0.75414 0.83106 0.0
C601 C 0.76691 0.72324 0.84048 0.0
C602 C 0.8129 0.72748 0.89184 0.0
C603 C 0.77947 0.70929 0.87075 0.0
H604 H 0.82186 0.86219 0.78972 0.0
H605 H 0.76341 0.68444 0.87767 0.0
H606 H 0.87705 0.77043 0.92827 0.0
H607 H 0.87848 0.90089 0.82801 0.0
H608 H 0.74128 0.70898 0.82421 0.0
H609 H 0.76822 0.78284 0.58617 0.0
H610 H 0.82257 0.71662 0.91529 0.0
H611 H 0.70623 0.64116 0.71946 0.0
H612 H 0.7905 0.77334 0.64743 0.0
H613 H 0.64777 0.60022 0.68973 0.0
H614 H 0.9087 0.82926 0.91444 0.0
H615 H 0.70745 0.74827 0.55453 0.0
H616 H 0.65086 0.70008 0.55423 0.0
H617 H 0.90927 0.87832 0.87741 0.0
H618 H 0.6174 0.65085 0.58319 0.0
N619 N 0.74209 0.73515 0.65269 0.0
C620 C 0.76354 0.75867 0.63502 0.0
C621 C 0.71689 0.74426 0.58193 0.0
C622 C 0.69562 0.7187 0.59923 0.0
C623 C 0.75118 0.76385 0.59971 0.0
C624 C 0.70926 0.71424 0.63493 0.0
H625 H 0.61613 0.6132 0.63342 0.0
N626 N 0.70639 0.67967 0.68327 0.0
C627 C 0.65916 0.62449 0.67878 0.0
C628 C 0.69062 0.6861 0.65101 0.0
C629 C 0.69217 0.64818 0.69588 0.0
C630 C 0.64141 0.63195 0.64709 0.0
C631 C 0.65761 0.66238 0.63209 0.0
O632 O 0.7657 0.67399 0.70784 0.0
O633 O 0.77716 0.73155 0.77088 0.0
O634 O 0.82031 0.80208 0.76359 0.0
O635 O 0.8022 0.77473 0.7082 0.0
O636 O 0.81381 0.73054 0.74831 0.0
O637 O 0.79766 0.71771 0.68489 0.0
O638 O 0.75325 0.8188 0.78409 0.0
O639 O 0.74358 0.76279 0.72137 0.0
O640 O 0.72617 0.69649 0.74689 0.0
O641 O 0.71555 0.74157 0.75528 0.0
O642 O 0.77029 0.81448 0.73505 0.0
O643 O 0.74037 0.77699 0.8173 0.0
C644 C 0.8068 0.73072 0.77788 0.0
C645 C 0.7829 0.6645 0.65829 0.0
C646 C 0.79979 0.62871 0.62857 0.0
C647 C 0.80403 0.6474 0.65888 0.0
C648 C 0.77446 0.62736 0.59782 0.0
C649 C 0.75777 0.66275 0.62722 0.0
C650 C 0.75363 0.64433 0.59719 0.0
C651 C 0.825 0.79834 0.73266 0.0
C652 C 0.78842 0.6855 0.6894 0.0
C653 C 0.64282 0.66858 0.59785 0.0
C654 C 0.66189 0.69659 0.58136 0.0
C655 C 0.74886 0.79235 0.70948 0.0
C656 C 0.74404 0.82964 0.8373 0.0
C657 C 0.71669 0.8373 0.84001 0.0
C658 C 0.72286 0.86359 0.86375 0.0
C659 C 0.75653 0.88219 0.88456 0.0
C660 C 0.77723 0.84771 0.85934 0.0
C661 C 0.78347 0.87405 0.88255 0.0
C662 C 0.7062 0.70894 0.75495 0.0
C663 C 0.73827 0.80552 0.80892 0.0
H664 H 0.8235 0.6485 0.68276 0.0
H665 H 0.77062 0.61287 0.57437 0.0
H666 H 0.74155 0.67582 0.62602 0.0
H667 H 0.73415 0.64315 0.57336 0.0
H668 H 0.69085 0.82327 0.82336 0.0
H669 H 0.76176 0.90245 0.90303 0.0
H670 H 0.79841 0.84182 0.85837 0.0
H671 H 0.80928 0.88819 0.89909 0.0
Cd672 Cd 0.98149 0.9664 0.52672 0.0
Cd673 Cd 0.04968 0.02079 0.45371 0.0
C674 C 0.0232 0.92664 0.5172 0.0
N675 N 0.99063 0.91948 0.51881 0.0
C676 C 0.97852 0.86112 0.52587 0.0
C677 C 1.01303 0.86843 0.52728 0.0
C678 C 0.03497 0.90139 0.52112 0.0
C679 C 0.9678 0.88734 0.5218 0.0
H680 H 0.04067 0.95239 0.5149 0.0
H681 H 0.94204 0.88228 0.52321 0.0
C682 C 0.98007 0.96681 0.44438 0.0
C683 C 1.00192 0.05698 0.42921 0.0
C684 C 0.98652 0.07921 0.42738 0.0
C685 C 0.99416 0.0998 0.45723 0.0
C686 C 0.01699 0.09753 0.48851 0.0
C687 C 0.03232 0.07518 0.489 0.0
N688 N 0.02418 0.0554 0.45963 0.0
H689 H 0.99647 0.04108 0.40627 0.0
H690 H 0.05069 0.07372 0.51259 0.0
C691 C 0.06767 0.95788 0.45299 0.0
N692 N 0.08195 0.99013 0.46707 0.0
C693 C 0.13869 0.99285 0.47849 0.0
C694 C 0.12489 0.96099 0.46061 0.0
C695 C 0.08885 0.94242 0.44996 0.0
C696 C 0.11649 0.00718 0.48131 0.0
H697 H 0.04021 0.94551 0.441 0.0
H698 H 0.12694 0.03311 0.49162 0.0
C699 C 0.06693 0.01476 0.55095 0.0
C700 C 0.93751 0.93615 0.56788 0.0
N701 N 0.96335 0.00847 0.52334 0.0
C702 C 0.9836 0.03536 0.54686 0.0
C703 C 0.96968 0.05588 0.55631 0.0
C704 C 0.93455 0.048 0.54182 0.0
C705 C 0.91462 0.02104 0.51632 0.0
C706 C 0.92975 0.00138 0.5073 0.0
C707 C 0.07909 0.05593 0.40096 0.0
O708 O 0.99257 0.98335 0.47354 0.0
O709 O 0.99673 0.97711 0.4215 0.0
O710 O 0.06715 0.02051 0.51887 0.0
O711 O 0.03933 0.99656 0.55984 0.0
O712 O 0.92605 0.92913 0.53469 0.0
O713 O 0.96902 0.95621 0.58072 0.0
O714 O 0.09028 0.0694 0.43219 0.0
O715 O 0.05595 0.02583 0.3956 0.0
H716 H 1.00979 0.03933 0.56022 0.0
H717 H 0.91412 0.97897 0.48975 0.0
H718 H 0.96082 0.83602 0.53045 0.0
H719 H 0.06196 0.90852 0.52263 0.0
H720 H 0.96819 0.07975 0.40319 0.0
H721 H 0.02272 0.11272 0.51213 0.0
H722 H 0.16638 0.00782 0.48693 0.0
H723 H 0.07726 0.91799 0.43561 0.0
H724 H 0.98563 0.07646 0.57617 0.0
H725 H 0.88748 0.01465 0.50447 0.0
Cd726 Cd 0.50562 0.956 0.04918 0.0
Cd727 Cd 0.513 0.03279 0.93767 0.0
C728 C 0.57444 0.9402 0.09233 0.0
N729 N 0.54648 0.92914 0.06362 0.0
C730 C 0.55739 0.8805 0.05559 0.0
C731 C 0.58555 0.89029 0.08608 0.0
C732 C 0.59434 0.92131 0.10389 0.0
C733 C 0.53821 0.89998 0.04508 0.0
H734 H 0.58064 0.9631 0.10731 0.0
H735 H 0.51585 0.8911 0.02259 0.0
C736 C 0.47099 0.95139 0.95417 0.0
C737 C 0.43773 0.03748 0.89766 0.0
C738 C 0.41483 0.05241 0.88264 0.0
C739 C 0.42531 0.08781 0.88687 0.0
C740 C 0.45917 0.10666 0.90789 0.0
C741 C 0.48112 0.09062 0.92277 0.0
N742 N 0.4704 0.05658 0.91727 0.0
H743 H 0.42949 0.01058 0.89301 0.0
H744 H 0.50729 0.10571 0.93792 0.0
C745 C 0.53397 0.98898 0.88859 0.0
N746 N 0.53665 -0.00248 0.92236 0.0
C747 C 0.57352 0.96936 0.94469 0.0
C748 C 0.57156 0.96051 0.91027 0.0
C749 C 0.55163 0.97062 0.88192 0.0
C750 C 0.55616 0.98827 0.95013 0.0
H751 H 0.51857 0.99679 0.86685 0.0
H752 H 0.55856 0.99583 0.97668 0.0
C753 C 0.54986 0.03463 0.03099 0.0
C754 C 0.46425 0.91988 0.09421 0.0
N755 N 0.48143 0.99229 0.06027 0.0
C756 C 0.4915 0.00953 0.09197 0.0
C757 C 0.4743 0.02845 0.09831 0.0
C758 C 0.44686 0.02996 0.0716 0.0
C759 C 0.43714 0.01196 0.03921 0.0
C760 C 0.45462 0.993 0.03422 0.0
C761 C 0.56645 0.08028 0.91005 0.0
O762 O 0.48778 0.96286 0.98542 0.0
O763 O 0.47278 0.97155 0.92906 0.0
O764 O 0.52803 0.02463 0.00127 0.0
O765 O 0.54827 0.01395 0.05554 0.0
O766 O 0.45215 0.91244 0.06105 0.0
O767 O 0.4957 0.94091 0.1051 0.0
O768 O 0.5699 0.08015 0.94324 0.0
O769 O 0.53748 0.06026 0.8905 0.0
H770 H 0.51262 0.00828 0.11249 0.0
H771 H 0.4464 0.97838 0.00963 0.0
H772 H 0.54959 0.85746 0.04003 0.0
H773 H 0.61544 0.93027 0.12753 0.0
H774 H 0.38906 0.03595 0.86773 0.0
H775 H 0.46935 0.13385 0.91208 0.0
H776 H 0.58881 0.96218 0.96721 0.0
H777 H 0.54941 0.96402 0.855 0.0
H778 H 0.48263 0.04211 0.12359 0.0
H779 H 0.41582 0.01211 0.01811 0.0
Cd780 Cd 1.01287 0.46429 0.05482 0.0
Cd781 Cd 0.02719 0.54647 0.94861 0.0
C782 C 0.06821 0.44211 0.11235 0.0
N783 N 0.05372 0.43903 0.07694 0.0
C784 C 0.07816 0.40004 0.07032 0.0
C785 C 0.09222 0.40166 0.10702 0.0
C786 C 0.08747 0.42374 0.12786 0.0
C787 C 0.05877 0.41873 0.05585 0.0
H788 H 0.06376 0.45797 0.1289 0.0
H789 H 0.04665 0.41596 0.02784 0.0
C790 C 0.97897 0.46041 0.95555 0.0
C791 C 0.95588 0.55363 0.89955 0.0
C792 C 0.93244 0.56803 0.88467 0.0
C793 C 0.93712 0.59962 0.89808 0.0
C794 C 0.96623 0.61565 0.92671 0.0
C795 C 0.98905 0.60028 0.94089 0.0
N796 N 0.98363 0.56963 0.92739 0.0
H797 H 0.95217 0.52981 0.8883 0.0
H798 H 1.0115 0.61324 0.9625 0.0
C799 C 0.04497 0.5002 0.89791 0.0
N800 N 0.05046 0.51027 0.93199 0.0
C801 C 0.087 0.48109 0.95166 0.0
C802 C 0.08142 0.46988 0.91685 0.0
C803 C 0.05978 0.4795 0.8898 0.0
C804 C 0.07122 0.50118 0.95863 0.0
H805 H 0.02857 0.50771 0.87694 0.0
H806 H 0.07588 0.50979 0.98545 0.0
C807 C 0.06268 0.54146 0.03862 0.0
C808 C 0.96158 0.41665 0.0855 0.0
N809 N 0.98922 0.50069 0.06607 0.0
C810 C 1.00392 0.52565 0.09227 0.0
C811 C 0.98611 0.54447 0.09735 0.0
C812 C 0.95274 0.53719 0.07554 0.0
C813 C 0.93833 0.51089 0.04913 0.0
C814 C 0.9571 0.49311 0.04477 0.0
C815 C 0.07988 0.59356 0.91971 0.0
O816 O 0.99036 0.46164 0.98901 0.0
O817 O 0.98642 0.48719 0.93824 0.0
O818 O 0.03788 0.5326 0.01086 0.0
O819 O 0.06154 0.52074 0.06298 0.0
O820 O 0.96138 0.4121 0.05373 0.0
O821 O 0.98647 0.44259 0.10323 0.0
O822 O 0.08303 0.59541 0.95279 0.0
O823 O 0.0517 0.57169 0.90082 0.0
H824 H 0.0293 0.53084 0.10934 0.0
H825 H 0.94578 0.47265 0.02467 0.0
H826 H 0.08072 0.38327 0.05306 0.0
H827 H 0.09804 0.42637 0.15617 0.0
H828 H 0.91112 0.55465 0.86223 0.0
H829 H 0.97126 0.63979 0.93839 0.0
H830 H 0.10335 0.47427 0.97343 0.0
H831 H 0.05491 0.47169 0.86255 0.0
H832 H 0.99845 0.5646 0.11794 0.0
H833 H 0.91244 0.50358 0.03225 0.0
Cd834 Cd 0.47154 0.47286 0.02278 0.0
Cd835 Cd 0.55529 0.52604 0.95482 0.0
C836 C 0.52053 0.43951 0.04907 0.0
N837 N 0.49603 0.437 0.01898 0.0
C838 C 0.50918 0.39828 0.99174 0.0
C839 C 0.53689 0.40324 0.02136 0.0
C840 C 0.54142 0.4228 0.05085 0.0
C841 C 0.48894 0.41602 0.99092 0.0
H842 H 0.52458 0.45551 0.07132 0.0
H843 H 0.46858 0.41401 0.96766 0.0
C844 C 0.47648 0.48116 0.93163 0.0
C845 C 0.50435 0.56074 0.91496 0.0
C846 C 0.48131 0.57451 0.91592 0.0
C847 C 0.48615 0.59251 0.9467 0.0
C848 C 0.51596 0.5998 0.97418 0.0
C849 C 0.53795 0.58496 0.97223 0.0
N850 N 0.52998 0.5636 0.94432 0.0
H851 H 0.49995 0.54554 0.89192 0.0
H852 H 0.5601 0.58849 0.99378 0.0
C853 C 0.54578 0.45129 0.93757 0.0
N854 N 0.56761 0.48002 0.95806 0.0
C855 C 0.61226 0.46091 0.97319 0.0
C856 C 0.59035 0.43074 0.95236 0.0
C857 C 0.55664 0.42615 0.93442 0.0
C858 C 0.60017 0.48517 0.97601 0.0
H859 H 0.52039 0.44822 0.92254 0.0
H860 H 0.6172 0.50885 0.99115 0.0
C861 C 0.54817 0.52855 0.04249 0.0
C862 C 0.43988 0.43003 0.07046 0.0
N863 N 0.4385 0.50303 0.01049 0.0
C864 C 0.45555 0.53491 0.02573 0.0
C865 C 0.43726 0.55236 0.032 0.0
C866 C 0.40089 0.53698 0.02177 0.0
C867 C 0.38412 0.50524 0.00291 0.0
C868 C 0.40352 0.48819 -0.0017 0.0
C869 C 0.61008 0.56883 0.92964 0.0
O870 O 0.48498 0.48376 0.96505 0.0
O871 O 0.50024 0.49337 0.91576 0.0
O872 O 0.5424 0.51765 0.01139 0.0
O873 O 0.52468 0.51474 0.05844 0.0
O874 O 0.42904 0.42147 0.03752 0.0
O875 O 0.46367 0.4595 0.08042 0.0
O876 O 0.61028 0.57395 0.96128 0.0
O877 O 0.58567 0.54279 0.91184 0.0
H878 H 0.48321 0.54541 0.03607 0.0
H879 H 0.3905 0.46223 0.9877 0.0
H880 H 0.50459 0.3826 0.96893 0.0
H881 H 0.5618 0.42615 0.07465 0.0
H882 H 0.45891 0.5695 0.89384 0.0
H883 H 0.52071 0.61457 -0.00223 0.0
H884 H 0.63851 0.46589 0.9871 0.0
H885 H 0.53919 0.4041 0.91686 0.0
H886 H 0.4516 0.57644 0.04708 0.0
H887 H 0.35621 0.49266 0.99394 0.0
Cd888 Cd 1.00911 0.46068 0.54879 0.0
Cd889 Cd 0.02443 0.54249 0.44335 0.0
C890 C 0.08301 0.45676 0.59365 0.0
N891 N 0.0532 0.43866 0.56886 0.0
C892 C 0.06723 0.39014 0.57557 0.0
C893 C 0.09781 0.40783 0.60215 0.0
C894 C 0.10568 0.44205 0.61023 0.0
C895 C 0.04535 0.40595 0.55943 0.0
H896 H 0.08876 0.48242 0.60156 0.0
H897 H 0.02122 0.39146 0.54035 0.0
C898 C 0.97373 0.46417 0.45323 0.0
C899 C 0.95598 0.55785 0.39677 0.0
C900 C 0.93603 0.57659 0.38469 0.0
C901 C 0.94584 0.60897 0.40045 0.0
C902 C 0.97634 0.62079 0.42864 0.0
C903 C 0.99505 0.60107 0.44017 0.0
N904 N 0.98493 0.57016 0.42428 0.0
H905 H 0.94847 0.53359 0.38368 0.0
H906 H 0.01848 0.61103 0.46141 0.0
C907 C 0.03222 0.48935 0.39281 0.0
N908 N 0.04571 0.50547 0.42546 0.0
C909 C 0.09109 0.48643 0.43694 0.0
C910 C 0.07838 0.47033 0.40296 0.0
C911 C 0.04798 0.47141 0.38116 0.0
C912 C 0.07435 0.50392 0.44762 0.0
H913 H 1.00972 0.4912 0.37537 0.0
H914 H 0.08501 0.51739 0.47323 0.0
C915 C 0.05185 0.54289 0.53905 0.0
C916 C 0.95772 0.40695 0.57396 0.0
N917 N 0.98275 0.49165 0.56728 0.0
C918 C 0.98943 0.50193 0.60151 0.0
C919 C 0.96987 0.51669 0.61117 0.0
C920 C 0.94346 0.52091 0.58533 0.0
C921 C 0.93773 0.51091 0.55021 0.0
C922 C 0.95773 0.49619 0.54173 0.0
C923 C 0.07774 0.58794 0.4155 0.0
O924 O 0.99174 0.47173 0.48507 0.0
O925 O 0.97852 0.48669 0.43066 0.0
O926 O 0.03801 0.53245 0.50696 0.0
O927 O 0.04879 0.52151 0.56292 0.0
O928 O 0.9549 0.40955 0.54108 0.0
O929 O 0.9852 0.42806 0.59466 0.0
O930 O 0.08069 0.59001 0.44853 0.0
O931 O 0.04935 0.56661 0.39628 0.0
H932 H 1.00914 0.49767 0.62142 0.0
H933 H 0.95248 0.48731 0.51485 0.0
H934 H 0.05931 0.3638 0.56823 0.0
H935 H 0.12905 0.45756 0.62967 0.0
H936 H 0.91316 0.56545 0.36309 0.0
H937 H 0.98688 0.64559 0.44165 0.0
H938 H 0.11457 0.48677 0.45464 0.0
H939 H 0.0367 0.45896 0.35501 0.0
H940 H 0.97453 0.52373 0.63862 0.0
H941 H 0.91715 0.51332 0.52976 0.0
Cd942 Cd 0.50858 0.96326 0.55046 0.0
Cd943 Cd 0.5128 0.03124 0.43235 0.0
C944 C 0.57836 0.95089 0.59934 0.0
N945 N 0.55089 0.93899 0.57028 0.0
C946 C 0.56331 0.89102 0.56396 0.0
C947 C 0.59206 0.90246 0.5938 0.0
C948 C 0.59931 0.93314 0.61142 0.0
C949 C 0.54335 0.90958 0.5527 0.0
H950 H 0.58381 0.97389 0.61365 0.0
H951 H 0.52104 0.89988 0.53025 0.0
C952 C 0.46533 0.95575 0.45769 0.0
C953 C 0.44932 0.04959 0.38047 0.0
C954 C 0.43018 0.06885 0.36762 0.0
C955 C 0.43521 0.09724 0.38774 0.0
C956 C 0.45893 0.10428 0.42129 0.0
C957 C 0.47741 0.08438 0.43312 0.0
N958 N 0.47277 0.05776 0.41265 0.0
H959 H 0.44626 0.0288 0.36412 0.0
H960 H 0.49636 0.09091 0.45841 0.0
C961 C 0.52501 0.98277 0.38049 0.0
N962 N 0.53169 0.99292 0.41473 0.0
C963 C 0.57122 0.96697 0.43272 0.0
C964 C 0.56616 0.95749 0.39747 0.0
C965 C 0.54215 0.96506 0.37123 0.0
C966 C 0.55384 0.9849 0.44073 0.0
H967 H 0.50752 0.98965 0.36021 0.0
H968 H 0.55912 0.99366 0.46768 0.0
C969 C 0.55223 0.04054 0.52652 0.0
C970 C 0.45564 0.91419 0.57715 0.0
N971 N 0.48719 0.00055 0.56687 0.0
C972 C 0.49787 0.01678 0.59924 0.0
C973 C 0.48134 0.03591 0.60715 0.0
C974 C 0.45346 0.03831 0.58158 0.0
C975 C 0.44392 0.02204 0.54813 0.0
C976 C 0.461 0.00321 0.54144 0.0
C977 C 0.56726 0.0796 0.40669 0.0
O978 O 0.48923 0.96727 0.48593 0.0
O979 O 0.46623 0.97397 0.43102 0.0
O980 O 0.5325 0.02742 0.49654 0.0
O981 O 0.55111 0.02249 0.55328 0.0
O982 O 0.45507 0.91265 0.54476 0.0
O983 O 0.48152 0.93785 0.59707 0.0
O984 O 0.56751 0.08092 0.43905 0.0
O985 O 0.54086 0.05685 0.3863 0.0
H986 H 0.51864 0.01423 0.61919 0.0
H987 H 0.45285 0.99008 0.51594 0.0
H988 H 0.5554 0.86729 0.54963 0.0
H989 H 0.62104 0.94357 0.63433 0.0
H990 H 0.41261 0.06228 0.34152 0.0
H991 H 0.46356 0.1253 0.43835 0.0
H992 H 0.58963 0.96196 0.45378 0.0
H993 H 0.5371 0.95785 0.34376 0.0
H994 H 0.48964 0.04774 0.63338 0.0
H995 H 0.42326 0.02363 0.52719 0.0
H996 H 0.18371 0.21557 0.31006 0.0
H997 H 0.14834 0.15081 0.21539 0.0
H998 H 0.10785 0.10496 0.24199 0.0
H999 H 0.18752 0.16335 0.37015 0.0
H1000 H 0.16875 0.17478 0.40018 0.0
H1001 H 0.18883 0.20525 0.37122 0.0
H1002 H 0.13259 0.21342 0.34514 0.0
H1003 H 0.11239 0.18372 0.37497 0.0
H1004 H 0.0924 0.17702 0.32828 0.0
H1005 H 0.08342 0.06318 0.28397 0.0
H1006 H 0.06726 0.03065 0.33471 0.0
H1007 H 0.11522 0.12405 0.40049 0.0
C1008 C 0.16667 0.19216 0.29442 0.0
C1009 C 0.17063 0.18589 0.26146 0.0
C1010 C 0.14718 0.15541 0.24142 0.0
C1011 C 0.12361 0.12941 0.25612 0.0
C1012 C 0.12258 0.13532 0.29004 0.0
C1013 C 0.14227 0.16649 0.30831 0.0
C1014 C 0.13791 0.16565 0.34518 0.0
C1015 C 0.17283 0.17795 0.37329 0.0
C1016 C 0.11762 0.18617 0.34859 0.0
C1017 C 0.11639 0.12825 0.3462 0.0
C1018 C 0.10689 0.11134 0.31383 0.0
C1019 C 0.08956 0.07623 0.30912 0.0
C1020 C 0.08091 0.058 0.33814 0.0
C1021 C 0.09011 0.07502 0.37135 0.0
C1022 C 0.10798 0.1105 0.37535 0.0
H1023 H 0.87483 0.16383 0.33819 0.0
H1024 H 0.80571 0.1149 0.40471 0.0
H1025 H 0.85589 0.12228 0.45439 0.0
H1026 H 0.91929 0.12447 0.3554 0.0
H1027 H 0.96202 0.15671 0.35723 0.0
H1028 H 0.92513 0.16294 0.33275 0.0
H1029 H 0.94573 0.21907 0.36891 0.0
H1030 H 0.9837 0.21358 0.39323 0.0
H1031 H 0.95627 0.21988 0.41636 0.0
H1032 H 0.9044 0.11143 0.484 0.0
H1033 H 0.94939 0.09014 0.4943 0.0
H1034 H 0.99107 0.1495 0.41346 0.0
C1035 C 0.87032 0.15663 0.36377 0.0
C1036 C 0.8364 0.13855 0.36757 0.0
C1037 C 0.83149 0.12837 0.40112 0.0
C1038 C 0.85994 0.13296 0.4296 0.0
C1039 C 0.89303 0.1482 0.42413 0.0
C1040 C 0.89849 0.16098 0.39222 0.0
C1041 C 0.93495 0.16922 0.39029 0.0
C1042 C 0.93529 0.15226 0.35701 0.0
C1043 C 0.95642 0.20773 0.39234 0.0
C1044 C 0.94725 0.15411 0.42356 0.0
C1045 C 0.9233 0.14358 0.44352 0.0
C1046 C 0.92469 0.1218 0.47049 0.0
C1047 C 0.95032 0.10988 0.47656 0.0
C1048 C 0.97447 0.11991 0.45646 0.0
C1049 C 0.97373 0.14313 0.43039 0.0
H1050 H 0.82051 0.86835 0.30092 0.0
H1051 H 0.87641 0.80859 0.29373 0.0
H1052 H 0.91515 0.83172 0.35221 0.0
H1053 H 0.89695 0.943 0.34096 0.0
H1054 H 0.87452 0.95443 0.36679 0.0
H1055 H 0.85099 0.93055 0.3254 0.0
H1056 H 0.81012 0.88559 0.35861 0.0
H1057 H 0.83565 0.90837 0.40048 0.0
H1058 H 0.82775 0.86476 0.39389 0.0
H1059 H 0.94598 0.8587 0.40963 0.0
H1060 H 0.98602 0.90804 0.44899 0.0
H1061 H 0.91269 0.95285 0.4218 0.0
C1062 C 0.84198 0.86148 0.31116 0.0
C1063 C 0.84588 0.83699 0.2932 0.0
C1064 C 0.87369 0.82797 0.30704 0.0
C1065 C 0.89489 0.83994 0.34078 0.0
C1066 C 0.88819 0.86144 0.35952 0.0
C1067 C 0.86393 0.87382 0.3445 0.0
C1068 C 0.86583 0.90094 0.36818 0.0
C1069 C 0.87252 0.9342 0.34923 0.0
C1070 C 0.83287 0.8892 0.38105 0.0
C1071 C 0.8966 0.90335 0.39794 0.0
C1072 C 0.9073 0.87849 0.39336 0.0
C1073 C 0.93776 0.87797 0.41407 0.0
C1074 C 0.96024 0.90595 0.43689 0.0
C1075 C 0.95177 0.93351 0.43875 0.0
C1076 C 0.91867 0.93116 0.42152 0.0
H1077 H 0.1484 0.82782 0.35689 0.0
H1078 H 0.19459 0.9105 0.29393 0.0
H1079 H 0.20097 0.95168 0.33898 0.0
H1080 H 0.09661 0.85744 0.37921 0.0
H1081 H 0.10058 0.84446 0.42386 0.0
H1082 H 0.10746 0.82209 0.39179 0.0
H1083 H 0.16826 0.83323 0.43193 0.0
H1084 H 0.16136 0.85569 0.46421 0.0
H1085 H 0.1988 0.87603 0.44714 0.0
H1086 H 0.19404 0.98241 0.38432 0.0
H1087 H 0.16978 0.00096 0.42431 0.0
H1088 H 0.12585 0.8986 0.45784 0.0
C1089 C 0.16081 0.85471 0.35342 0.0
C1090 C 0.17142 0.86646 0.32255 0.0
C1091 C 0.18671 0.90148 0.31782 0.0
C1092 C 0.19069 0.92489 0.34334 0.0
C1093 C 0.17938 0.91268 0.37338 0.0
C1094 C 0.16476 0.8784 0.37865 0.0
C1095 C 0.15012 0.87182 0.41051 0.0
C1096 C 0.1114 0.84755 0.40072 0.0
C1097 C 0.17088 0.85839 0.4402 0.0
C1098 C 0.15618 0.9074 0.42038 0.0
C1099 C 0.17446 0.93068 0.39959 0.0
C1100 C 0.18067 0.96467 0.40153 0.0
C1101 C 0.16695 0.97501 0.42453 0.0
C1102 C 0.14668 0.9513 0.44478 0.0
C1103 C 0.14207 0.91729 0.44337 0.0
H1104 H 0.18604 0.85738 0.59688 0.0
H1105 H 0.15375 0.83256 0.69388 0.0
H1106 H 0.09346 0.81333 0.66075 0.0
H1107 H 0.13659 0.89667 0.564 0.0
H1108 H 0.12394 0.88262 0.51825 0.0
H1109 H 0.16333 0.88332 0.54638 0.0
H1110 H 0.14281 0.81966 0.53041 0.0
H1111 H 0.1032 0.81876 0.50171 0.0
H1112 H 0.10169 0.78943 0.53608 0.0
H1113 H 0.0403 0.81023 0.62244 0.0
H1114 H 1.00041 0.83036 0.5834 0.0
H1115 H 0.06291 0.85658 0.5085 0.0
C1116 C 0.16611 0.84703 0.61088 0.0
C1117 C 0.17476 0.84573 0.6479 0.0
C1118 C 0.14797 0.8327 0.66542 0.0
C1119 C 0.1134 0.8215 0.64677 0.0
C1120 C 0.10565 0.82351 0.61044 0.0
C1121 C 0.13117 0.83596 0.59251 0.0
C1122 C 0.11638 0.84156 0.55463 0.0
C1123 C 0.13622 0.87821 0.54533 0.0
C1124 C 0.11601 0.81581 0.52921 0.0
C1125 C 0.07987 0.83431 0.55558 0.0
C1126 C 0.07374 0.82213 0.58746 0.0
C1127 C 0.04415 0.81858 0.59686 0.0
C1128 C 0.02137 0.82992 0.57427 0.0
C1129 C 0.02855 0.84497 0.54281 0.0
C1130 C 0.05679 0.8449 0.53229 0.0
H1131 H 0.21782 0.17502 0.64791 0.0
H1132 H 0.19681 0.12631 0.74363 0.0
H1133 H 0.16701 0.07081 0.71073 0.0
H1134 H 0.14098 0.13533 0.59752 0.0
H1135 H 0.15187 0.13064 0.55762 0.0
H1136 H 0.18172 0.16422 0.58975 0.0
H1137 H 0.22942 0.14322 0.59371 0.0
H1138 H 0.19961 0.1095 0.56103 0.0
H1139 H 0.22113 0.09985 0.60299 0.0
H1140 H 0.12817 0.02505 0.66741 0.0
H1141 H 0.08022 0.99312 0.61691 0.0
H1142 H 0.12481 0.07067 0.54806 0.0
C1143 C 0.20795 0.15254 0.66217 0.0
C1144 C 0.20927 0.15478 0.69808 0.0
C1145 C 0.19572 0.12504 0.71591 0.0
C1146 C 0.1793 0.09338 0.69758 0.0
C1147 C 0.17702 0.09207 0.66166 0.0
C1148 C 0.19119 0.12092 0.64414 0.0
C1149 C 0.17919 0.11389 0.60464 0.0
C1150 C 0.16242 0.13737 0.58637 0.0
C1151 C 0.20912 0.11677 0.58972 0.0
C1152 C 0.15307 0.07753 0.60261 0.0
C1153 C 0.1535 0.06496 0.63578 0.0
C1154 C 0.12821 0.03408 0.64125 0.0
C1155 C 0.10089 0.01633 0.61248 0.0
C1156 C 0.09902 0.02975 0.57884 0.0
C1157 C 0.12622 0.05974 0.5735 0.0
H1158 H 0.83348 0.07733 0.66231 0.0
H1159 H 0.8881 0.18483 0.65143 0.0
H1160 H 0.90583 0.1724 0.60117 0.0
H1161 H 0.89269 0.05374 0.65088 0.0
H1162 H 0.86416 0.01435 0.62558 0.0
H1163 H 0.84899 0.03129 0.65474 0.0
H1164 H 0.79817 0.0304 0.60319 0.0
H1165 H 0.81288 0.01284 0.57379 0.0
H1166 H 0.80689 0.05114 0.56366 0.0
H1167 H 0.93277 0.14944 0.56951 0.0
H1168 H 0.9583 0.11686 0.54766 0.0
H1169 H 0.87855 0.02323 0.56825 0.0
C1170 C 0.84845 0.09804 0.64858 0.0
C1171 C 0.86002 0.13183 0.66051 0.0
C1172 C 0.87939 0.15872 0.64241 0.0
C1173 C 0.88923 0.15191 0.6138 0.0
C1174 C 0.87858 0.11816 0.60335 0.0
C1175 C 0.85778 0.09161 0.61949 0.0
C1176 C 0.85322 0.05781 0.60584 0.0
C1177 C 0.86551 0.03818 0.63605 0.0
C1178 C 0.81555 0.03682 0.58538 0.0
C1179 C 0.87696 0.06968 0.58163 0.0
C1180 C 0.89135 0.10464 0.58067 0.0
C1181 C 0.92013 0.12205 0.56773 0.0
C1182 C 0.93447 0.10332 0.55532 0.0
C1183 C 0.9187 0.06753 0.55384 0.0
C1184 C 0.88946 0.05052 0.56692 0.0
H1185 H 0.85983 0.79117 0.68917 0.0
H1186 H 0.84898 0.86599 0.74709 0.0
H1187 H 0.8787 0.91031 0.71119 0.0
H1188 H 0.94491 0.85103 0.66843 0.0
H1189 H 0.93047 0.82961 0.62553 0.0
H1190 H 0.91737 0.80627 0.66235 0.0
H1191 H 0.85349 0.78559 0.62599 0.0
H1192 H 0.86617 0.81036 0.5899 0.0
H1193 H 0.83651 0.81632 0.60997 0.0
H1194 H 0.898 0.94347 0.66249 0.0
H1195 H 0.91857 0.96726 0.60997 0.0
H1196 H 0.91309 0.87017 0.58099 0.0
C1197 C 0.86542 0.81725 0.69537 0.0
C1198 C 0.85268 0.82545 0.72114 0.0
C1199 C 0.85952 0.85944 0.72833 0.0
C1200 C 0.87593 0.88473 0.70761 0.0
C1201 C 0.88539 0.87529 0.68027 0.0
C1202 C 0.88149 0.84262 0.67473 0.0
C1203 C 0.89056 0.83844 0.64138 0.0
C1204 C 0.92275 0.83091 0.64994 0.0
C1205 C 0.85984 0.81106 0.61529 0.0
C1206 C 0.89828 0.87338 0.62813 0.0
C1207 C 0.8954 0.89427 0.65112 0.0
C1208 C 0.90091 0.92764 0.64449 0.0
C1209 C 0.91194 0.94072 0.61454 0.0
C1210 C 0.91652 0.92008 0.59179 0.0
C1211 C 0.9087 0.88587 0.59787 0.0
H1212 H 0.33479 0.09001 0.16069 0.0
H1213 H 0.32856 0.15298 0.07236 0.0
H1214 H 0.36795 0.13693 0.05053 0.0
H1215 H 0.4279 0.10661 0.17242 0.0
H1216 H 0.42023 0.06376 0.18364 0.0
H1217 H 0.39475 0.08316 0.19454 0.0
H1218 H 0.33896 0.03315 0.16075 0.0
H1219 H 0.36426 0.01395 0.14922 0.0
H1220 H 0.33343 0.023 0.11514 0.0
H1221 H 0.40164 0.10926 0.03439 0.0
H1222 H 0.43279 0.07533 0.02748 0.0
H1223 H 0.41965 0.03098 0.12702 0.0
C1224 C 0.34278 0.10118 0.13744 0.0
C1225 C 0.32936 0.12324 0.11841 0.0
C1226 C 0.33926 0.13662 0.08751 0.0
C1227 C 0.36143 0.12751 0.07488 0.0
C1228 C 0.37368 0.10514 0.09366 0.0
C1229 C 0.36527 0.09253 0.12461 0.0
C1230 C 0.38094 0.0677 0.13864 0.0
C1231 C 0.40754 0.08112 0.17444 0.0
C1232 C 0.35271 0.03236 0.14106 0.0
C1233 C 0.39848 0.06765 0.11016 0.0
C1234 C 0.39392 0.08948 0.08454 0.0
C1235 C 0.40594 0.09253 0.05457 0.0
C1236 C 0.42341 0.07302 0.05076 0.0
C1237 C 0.42888 0.0508 0.07682 0.0
C1238 C 0.41636 0.04825 0.10701 0.0
H1239 H 0.85363 0.35478 0.22994 0.0
H1240 H 0.78548 0.26507 0.16118 0.0
H1241 H 0.81858 0.28736 0.11682 0.0
H1242 H 0.85713 0.40926 0.15028 0.0
H1243 H 0.89994 0.43994 0.17161 0.0
H1244 H 0.86995 0.41711 0.19741 0.0
H1245 H 0.91469 0.3968 0.23561 0.0
H1246 H 0.94462 0.41917 0.20979 0.0
H1247 H 0.93192 0.37437 0.21462 0.0
H1248 H 0.8646 0.3155 0.08442 0.0
H1249 H 0.91252 0.35339 0.05962 0.0
H1250 H 0.94664 0.42821 0.14569 0.0
C1251 C 0.84594 0.33985 0.2056 0.0
C1252 C 0.81884 0.30694 0.20009 0.0
C1253 C 0.80778 0.28919 0.16698 0.0
C1254 C 0.82609 0.30189 0.14137 0.0
C1255 C 0.85425 0.33333 0.14855 0.0
C1256 C 0.86307 0.35285 0.17905 0.0
C1257 C 0.89241 0.38715 0.17856 0.0
C1258 C 0.87908 0.41502 0.17423 0.0
C1259 C 0.92271 0.39477 0.21161 0.0
C1260 C 0.90164 0.38197 0.14546 0.0
C1261 C 0.87869 0.35106 0.12805 0.0
C1262 C 0.88227 0.34014 0.09731 0.0
C1263 C 0.90967 0.36172 0.08354 0.0
C1264 C 0.93333 0.39367 0.10074 0.0
C1265 C 0.92913 0.40382 0.13209 0.0
H1266 H 0.73536 0.83123 0.19661 0.0
H1267 H 0.65795 0.72868 0.16559 0.0
H1268 H 0.61826 0.7503 0.1284 0.0
H1269 H 0.68123 0.86793 0.20344 0.0
H1270 H 0.70078 0.90706 0.18327 0.0
H1271 H 0.72628 0.88457 0.20385 0.0
H1272 H 0.743 0.88222 0.14616 0.0
H1273 H 0.71821 0.90545 0.12544 0.0
H1274 H 0.70952 0.8652 0.10587 0.0
H1275 H 0.583 0.78149 0.10258 0.0
H1276 H 0.55639 0.82067 0.08191 0.0
H1277 H 0.6552 0.9059 0.12403 0.0
C1278 C 0.71069 0.81344 0.18065 0.0
C1279 C 0.70025 0.77786 0.18367 0.0
C1280 C 0.66699 0.75573 0.1635 0.0
C1281 C 0.64402 0.76787 0.14228 0.0
C1282 C 0.65427 0.80269 0.1409 0.0
C1283 C 0.68709 0.82537 0.15864 0.0
C1284 C 0.69039 0.86164 0.15274 0.0
C1285 C 0.70025 0.88146 0.18793 0.0
C1286 C 0.71686 0.87972 0.13129 0.0
C1287 C 0.65373 0.8555 0.13113 0.0
C1288 C 0.6337 0.82115 0.12443 0.0
C1289 C 0.59873 0.80851 0.10669 0.0
C1290 C 0.58379 0.83129 0.09472 0.0
C1291 C 0.60341 0.86696 0.09998 0.0
C1292 C 0.63911 0.87902 0.11896 0.0
H1293 H 0.23482 0.66272 0.15915 0.0
H1294 H 0.20706 0.74488 0.11989 0.0
H1295 H 0.16457 0.70792 0.06836 0.0
H1296 H 0.21696 0.62147 0.06669 0.0
H1297 H 0.20159 0.58023 0.08427 0.0
H1298 H 0.23641 0.61592 0.11151 0.0
H1299 H 0.20179 0.60402 0.15844 0.0
H1300 H 0.16684 0.5689 0.13146 0.0
H1301 H 0.15892 0.60276 0.14596 0.0
H1302 H 0.11472 0.65826 0.0324 0.0
H1303 H 0.06556 0.60226 0.014 0.0
H1304 H 0.12808 0.55336 0.0742 0.0
C1305 C 0.22076 0.67341 0.13911 0.0
C1306 C 0.22297 0.7061 0.14434 0.0
C1307 C 0.20459 0.71933 0.11721 0.0
C1308 C 0.18083 0.69867 0.08748 0.0
C1309 C 0.177 0.66538 0.08464 0.0
C1310 C 0.19738 0.65323 0.10926 0.0
C1311 C 0.18523 0.6155 0.10337 0.0
C1312 C 0.21162 0.60784 0.09069 0.0
C1313 C 0.17773 0.59675 0.13676 0.0
C1314 C 0.15258 0.60764 0.07423 0.0
C1315 C 0.14879 0.63679 0.06278 0.0
C1316 C 0.11802 0.63537 0.04005 0.0
C1317 C 0.09022 0.60351 0.02972 0.0
C1318 C 0.09346 0.57372 0.04232 0.0
C1319 C 0.12534 0.57586 0.06371 0.0
H1320 H 0.38713 0.79285 0.82692 0.0
H1321 H 0.30346 0.76187 0.87717 0.0
H1322 H 0.34307 0.79799 0.92985 0.0
H1323 H 0.46591 0.82213 0.90925 0.0
H1324 H 0.48757 0.8591 0.88711 0.0
H1325 H 0.45939 0.81938 0.86218 0.0
H1326 H 0.4248 0.84929 0.82206 0.0
H1327 H 0.45194 0.88862 0.84704 0.0
H1328 H 0.40583 0.87095 0.84145 0.0
H1329 H 0.38483 0.84806 0.96823 0.0
H1330 H 0.42277 0.90856 0.98616 0.0
H1331 H 0.47519 0.91381 0.90571 0.0
C1332 C 0.37785 0.79225 0.8499 0.0
C1333 C 0.34265 0.77448 0.84837 0.0
C1334 C 0.33063 0.77496 0.87819 0.0
C1335 C 0.35307 0.79542 0.90833 0.0
C1336 C 0.38711 0.81578 0.90771 0.0
C1337 C 0.39947 0.81437 0.87907 0.0
C1338 C 0.43242 0.84534 0.87929 0.0
C1339 C 0.46315 0.83591 0.88482 0.0
C1340 C 0.42846 0.86467 0.8455 0.0
C1341 C 0.43544 0.86521 0.91104 0.0
C1342 C 0.41009 0.8472 0.92811 0.0
C1343 C 0.40533 0.86206 0.95566 0.0
C1344 C 0.42662 0.89633 0.96546 0.0
C1345 C 0.45115 0.91517 0.94675 0.0
C1346 C 0.45627 0.89941 0.92005 0.0
H1347 H 0.09595 0.31445 0.83207 0.0
H1348 H 0.20447 0.35695 0.8885 0.0
H1349 H 0.19833 0.40544 0.91119 0.0
H1350 H 0.09244 0.3962 0.80805 0.0
H1351 H 0.04917 0.38215 0.81284 0.0
H1352 H 0.0629 0.35205 0.79988 0.0
H1353 H 0.04585 0.31632 0.85232 0.0
H1354 H 0.03249 0.34654 0.86563 0.0
H1355 H 0.06429 0.3359 0.89639 0.0
H1356 H 0.17878 0.447 0.93159 0.0
H1357 H 0.14915 0.48071 0.94377 0.0
H1358 H 0.0536 0.41225 0.87236 0.0
C1359 C 0.11852 0.33415 0.84894 0.0
C1360 C 0.15074 0.33183 0.85857 0.0
C1361 C 0.17965 0.35827 0.88051 0.0
C1362 C 0.17632 0.38582 0.89368 0.0
C1363 C 0.144 0.38693 0.88423 0.0
C1364 C 0.11574 0.36205 0.86186 0.0
C1365 C 0.08386 0.36914 0.85576 0.0
C1366 C 0.07136 0.37525 0.81682 0.0
C1367 C 0.05492 0.34026 0.86828 0.0
C1368 C 0.0983 0.40145 0.87887 0.0
C1369 C 0.13304 0.41127 0.89512 0.0
C1370 C 0.15169 0.43966 0.91868 0.0
C1371 C 0.13455 0.45857 0.92562 0.0
C1372 C 0.09905 0.44931 0.90897 0.0
C1373 C 0.08084 0.42033 0.88516 0.0
H1374 H 0.65388 0.15083 0.75299 0.0
H1375 H 0.74278 0.22168 0.82965 0.0
H1376 H 0.71776 0.19266 0.8778 0.0
H1377 H 0.59082 0.14285 0.78823 0.0
H1378 H 0.56564 0.09764 0.78153 0.0
H1379 H 0.59309 0.11946 0.75328 0.0
H1380 H 0.62465 0.08019 0.76866 0.0
H1381 H 0.59707 0.05773 0.79681 0.0
H1382 H 0.64333 0.0758 0.81415 0.0
H1383 H 0.67821 0.16296 0.9164 0.0
H1384 H 0.62997 0.1299 0.94311 0.0
H1385 H 0.56837 0.07618 0.84186 0.0
C1386 C 0.66848 0.15933 0.78002 0.0
C1387 C 0.70042 0.18806 0.78772 0.0
C1388 C 0.71873 0.19911 0.82324 0.0
C1389 C 0.70465 0.18286 0.85081 0.0
C1390 C 0.67269 0.15501 0.84241 0.0
C1391 C 0.65539 0.14251 0.80794 0.0
C1392 C 0.62086 0.11293 0.8061 0.0
C1393 C 0.59085 0.11862 0.78081 0.0
C1394 C 0.62154 0.07971 0.79582 0.0
C1395 C 0.61971 0.1136 0.84413 0.0
C1396 C 0.65024 0.13732 0.86491 0.0
C1397 C 0.65446 0.14373 0.90057 0.0
C1398 C 0.62686 0.12508 0.91545 0.0
C1399 C 0.59537 0.10069 0.89453 0.0
C1400 C 0.59203 0.09484 0.85851 0.0
H1401 H 0.87176 0.74511 0.8218 0.0
H1402 H 0.76818 0.66527 0.78987 0.0
H1403 H 0.78969 0.62387 0.81924 0.0
H1404 H 0.91752 0.70118 0.80979 0.0
H1405 H 0.953 0.71805 0.84868 0.0
H1406 H 0.92915 0.74237 0.82935 0.0
H1407 H 0.91562 0.74689 0.88837 0.0
H1408 H 0.94001 0.7231 0.90837 0.0
H1409 H 0.89575 0.70895 0.91004 0.0
H1410 H 0.82414 0.58963 0.84505 0.0
H1411 H 0.86644 0.5663 0.87137 0.0
H1412 H 0.94875 0.66806 0.8894 0.0
C1413 C 0.85343 0.71913 0.82225 0.0
C1414 C 0.81797 0.70871 0.80417 0.0
C1415 C 0.7951 0.6742 0.80437 0.0
C1416 C 0.80726 0.65038 0.82074 0.0
C1417 C 0.84248 0.66126 0.83746 0.0
C1418 C 0.86511 0.69504 0.83924 0.0
C1419 C 0.90182 0.69988 0.85847 0.0
C1420 C 0.92683 0.71634 0.83516 0.0
C1421 C 0.91404 0.72096 0.89339 0.0
C1422 C 0.89676 0.66335 0.86519 0.0
C1423 C 0.8622 0.64158 0.85309 0.0
C1424 C 0.85116 0.6066 0.85499 0.0
C1425 C 0.87568 0.59348 0.86978 0.0
C1426 C 0.91144 0.61494 0.88271 0.0
C1427 C 0.92179 0.65061 0.88038 0.0
H1428 H 0.23141 0.32039 0.14532 0.0
H1429 H 0.19077 0.27276 0.23304 0.0
H1430 H 0.1461 0.29486 0.21627 0.0
H1431 H 0.22014 0.39236 0.14282 0.0
H1432 H 0.20304 0.39253 0.09596 0.0
H1433 H 0.23002 0.3706 0.11252 0.0
H1434 H 0.18255 0.31518 0.07889 0.0
H1435 H 0.1552 0.33673 0.06155 0.0
H1436 H 0.13967 0.29906 0.08521 0.0
H1437 H 0.11191 0.32994 0.19539 0.0
H1438 H 0.08382 0.36641 0.16632 0.0
H1439 H 0.14026 0.38545 0.08645 0.0
C1440 C 0.21197 0.31296 0.15979 0.0
C1441 C 0.21426 0.29389 0.19005 0.0
C1442 C 0.18922 0.2865 0.20934 0.0
C1443 C 0.16379 0.2992 0.2001 0.0
C1444 C 0.16257 0.31829 0.17051 0.0
C1445 C 0.18504 0.32391 0.14971 0.0
C1446 C 0.17735 0.34452 0.1187 0.0
C1447 C 0.20957 0.37694 0.11747 0.0
C1448 C 0.16284 0.32258 0.08403 0.0
C1449 C 0.14949 0.35246 0.12726 0.0
C1450 C 0.14116 0.33672 0.15713 0.0
C1451 C 0.11772 0.34172 0.17155 0.0
C1452 C 0.10209 0.36288 0.15495 0.0
C1453 C 0.10957 0.37905 0.1239 0.0
C1454 C 0.13351 0.37331 0.10983 0.0
H1455 H 0.18323 0.63873 0.77114 0.0
H1456 H 0.25503 0.73076 0.83444 0.0
H1457 H 0.22342 0.7136 0.88011 0.0
H1458 H 0.10567 0.62946 0.78934 0.0
H1459 H 0.08989 0.58443 0.79331 0.0
H1460 H 0.1193 0.60489 0.7664 0.0
H1461 H 0.1597 0.57823 0.80304 0.0
H1462 H 0.13036 0.55928 0.83044 0.0
H1463 H 0.175 0.58673 0.85013 0.0
H1464 H 0.18126 0.68876 0.91682 0.0
H1465 H 0.13396 0.65491 0.94458 0.0
H1466 H 0.09019 0.57784 0.85889 0.0
C1467 C 0.19227 0.65508 0.79473 0.0
C1468 C 0.22083 0.68695 0.79862 0.0
C1469 C 0.23259 0.70704 0.83031 0.0
C1470 C 0.21486 0.69732 0.85658 0.0
C1471 C 0.18578 0.66668 0.85126 0.0
C1472 C 0.17496 0.64539 0.82156 0.0
C1473 C 0.14354 0.61321 0.82323 0.0
C1474 C 0.11282 0.60773 0.79114 0.0
C1475 C 0.15269 0.58255 0.82693 0.0
C1476 C 0.13692 0.62117 0.85692 0.0
C1477 C 0.16206 0.6518 0.87311 0.0
C1478 C 0.16152 0.66455 0.9046 0.0
C1479 C 0.13459 0.64529 0.92011 0.0
C1480 C 0.10832 0.61407 0.90368 0.0
C1481 C 0.10968 0.60192 0.87176 0.0
H1482 H 0.35491 0.23524 0.84701 0.0
H1483 H 0.2746 0.16889 0.76051 0.0
H1484 H 0.2959 0.12463 0.77686 0.0
H1485 H 0.42143 0.21363 0.84217 0.0
H1486 H 0.43914 0.21354 0.88889 0.0
H1487 H 0.41621 0.2394 0.87252 0.0
H1488 H 0.37414 0.21071 0.91152 0.0
H1489 H 0.39735 0.18519 0.92869 0.0
H1490 H 0.35142 0.1652 0.90884 0.0
H1491 H 0.33149 0.09068 0.79741 0.0
H1492 H 0.37119 0.06546 0.82596 0.0
H1493 H 0.42547 0.15005 0.90462 0.0
C1494 C 0.34109 0.21092 0.83232 0.0
C1495 C 0.31238 0.20544 0.80283 0.0
C1496 C 0.29574 0.17354 0.78376 0.0
C1497 C 0.30806 0.14829 0.79265 0.0
C1498 C 0.33684 0.15476 0.82126 0.0
C1499 C 0.35253 0.18491 0.84152 0.0
C1500 C 0.38291 0.18516 0.87112 0.0
C1501 C 0.41693 0.21469 0.8685 0.0
C1502 C 0.37605 0.18665 0.90719 0.0
C1503 C 0.38267 0.15103 0.86353 0.0
C1504 C 0.35598 0.13411 0.83447 0.0
C1505 C 0.35172 0.10324 0.82092 0.0
C1506 C 0.37456 0.08884 0.83782 0.0
C1507 C 0.40154 0.10463 0.86878 0.0
C1508 C 0.40544 0.13659 0.88137 0.0
H1509 H 0.82333 0.28553 0.87837 0.0
H1510 H 0.86003 0.31298 0.78425 0.0
H1511 H 0.91572 0.3526 0.8186 0.0
H1512 H 0.85159 0.36231 0.91213 0.0
H1513 H 0.86779 0.35762 0.95824 0.0
H1514 H 0.83509 0.32149 0.93045 0.0
H1515 H 0.87368 0.28893 0.9477 0.0
H1516 H 0.90641 0.32486 0.97629 0.0
H1517 H 0.91712 0.3079 0.94268 0.0
H1518 H 0.95682 0.39888 0.8543 0.0
H1519 H 0.98595 0.44953 0.89277 0.0
H1520 H 0.92987 0.39874 0.96992 0.0
C1521 C 0.84388 0.29911 0.86571 0.0
C1522 C 0.83789 0.29564 0.82882 0.0
C1523 C 0.8644 0.31441 0.81245 0.0
C1524 C 0.89637 0.33707 0.83192 0.0
C1525 C 0.90139 0.34135 0.8679 0.0
C1526 C 0.87629 0.32289 0.88511 0.0
C1527 C 0.88698 0.33744 0.92285 0.0
C1528 C 0.85868 0.3452 0.93137 0.0
C1529 C 0.89661 0.31335 0.94893 0.0
C1530 C 0.91901 0.36952 0.92188 0.0
C1531 C 0.92733 0.36991 0.89028 0.0
C1532 C 0.95185 0.39826 0.87988 0.0
C1533 C 0.96831 0.42723 0.90203 0.0
C1534 C 0.96112 0.42789 0.9348 0.0
C1535 C 0.93658 0.39843 0.94541 0.0
H1536 H 0.70869 0.91885 0.84458 0.0
H1537 H 0.67387 0.8245 0.89619 0.0
H1538 H 0.63064 0.83873 0.91278 0.0
H1539 H 0.70117 0.97005 0.90533 0.0
H1540 H 0.68485 0.99427 0.87315 0.0
H1541 H 0.71195 0.97625 0.86358 0.0
H1542 H 0.66486 0.94493 0.80696 0.0
H1543 H 0.63788 0.96336 0.81611 0.0
H1544 H 0.62159 0.91803 0.80981 0.0
H1545 H 0.59544 0.86538 0.92854 0.0
H1546 H 0.56509 0.89984 0.93673 0.0
H1547 H 0.61935 0.97556 0.87163 0.0
C1548 C 0.69141 0.901 0.85876 0.0
C1549 C 0.6942 0.87045 0.86899 0.0
C1550 C 0.67164 0.84777 0.88784 0.0
C1551 C 0.64722 0.85574 0.89749 0.0
C1552 C 0.64536 0.88627 0.88755 0.0
C1553 C 0.66633 0.9083 0.868 0.0
C1554 C 0.65886 0.93943 0.86078 0.0
C1555 C 0.69113 0.97191 0.87667 0.0
C1556 C 0.64497 0.94155 0.82105 0.0
C1557 C 0.63097 0.93173 0.87996 0.0
C1558 C 0.62382 0.90104 0.89542 0.0
C1559 C 0.60033 0.88914 0.91604 0.0
C1560 C 0.58331 0.90888 0.92064 0.0
C1561 C 0.58955 0.93998 0.9044 0.0
C1562 C 0.61366 0.95151 0.88374 0.0
H1563 H 0.89313 0.6467 0.17809 0.0
H1564 H 0.83042 0.65685 0.07726 0.0
H1565 H 0.84505 0.61741 0.04884 0.0
H1566 H 0.96016 0.64783 0.14976 0.0
H1567 H 0.96852 0.61644 0.17759 0.0
H1568 H 0.94882 0.6407 0.19124 0.0
H1569 H 0.89667 0.58571 0.19767 0.0
H1570 H 0.9167 0.56118 0.18504 0.0
H1571 H 0.87338 0.55446 0.16121 0.0
H1572 H 0.87438 0.58522 0.03039 0.0
H1573 H 0.90957 0.55577 0.02366 0.0
H1574 H 0.95107 0.56341 0.13729 0.0
C1575 C 0.88136 0.63935 0.15032 0.0
C1576 C 0.86012 0.65409 0.12983 0.0
C1577 C 0.846 0.64503 0.09338 0.0
C1578 C 0.85443 0.62292 0.07705 0.0
C1579 C 0.8766 0.60981 0.09774 0.0
C1580 C 0.88916 0.61696 0.13375 0.0
C1581 C 0.914 0.60106 0.14961 0.0
C1582 C 0.95 0.62813 0.16813 0.0
C1583 C 0.89931 0.57399 0.17488 0.0
C1584 C 0.91469 0.58515 0.11671 0.0
C1585 C 0.89284 0.59041 0.08713 0.0
C1586 C 0.89076 0.58006 0.05347 0.0
C1587 C 0.91087 0.56321 0.04996 0.0
C1588 C 0.93274 0.55651 0.07995 0.0
C1589 C 0.93469 0.56796 0.11375 0.0
H1590 H 0.30799 0.79809 0.1719 0.0
H1591 H 0.37218 0.85117 0.27243 0.0
H1592 H 0.41078 0.89544 0.24229 0.0
H1593 H 0.37307 0.80497 0.13973 0.0
H1594 H 0.35593 0.81121 0.09439 0.0
H1595 H 0.32699 0.78938 0.12129 0.0
H1596 H 0.29905 0.83191 0.10828 0.0
H1597 H 0.32732 0.85361 0.08045 0.0
H1598 H 0.32599 0.87668 0.11625 0.0
H1599 H 0.44795 0.92617 0.20491 0.0
H1600 H 0.48227 0.94379 0.16177 0.0
H1601 H 0.39706 0.87006 0.08363 0.0
C1602 C 0.32916 0.82008 0.18713 0.0
C1603 C 0.33675 0.82214 0.22426 0.0
C1604 C 0.36574 0.84991 0.24389 0.0
C1605 C 0.38767 0.87512 0.22697 0.0
C1606 C 0.3806 0.87173 0.19045 0.0
C1607 C 0.35196 0.84509 0.17057 0.0
C1608 C 0.35376 0.84447 0.13261 0.0
C1609 C 0.35237 0.8105 0.12138 0.0
C1610 C 0.32482 0.85214 0.10792 0.0
C1611 C 0.38903 0.87331 0.13501 0.0
C1612 C 0.40338 0.88915 0.16844 0.0
C1613 C 0.4368 0.91447 0.17844 0.0
C1614 C 0.45626 0.92396 0.15376 0.0
C1615 C 0.44251 0.90807 0.11935 0.0
C1616 C 0.40821 0.88268 0.10971 0.0
H1617 H 0.6949 0.15629 0.17435 0.0
H1618 H 0.68471 0.24281 0.1218 0.0
H1619 H 0.64338 0.20439 0.06922 0.0
H1620 H 0.69764 0.11459 0.10013 0.0
H1621 H 0.67403 0.07327 0.1141 0.0
H1622 H 0.70131 0.10776 0.14643 0.0
H1623 H 0.64953 0.09841 0.17199 0.0
H1624 H 0.62258 0.06324 0.14046 0.0
H1625 H 0.61014 0.09738 0.14275 0.0
H1626 H 0.5968 0.15198 0.02675 0.0
H1627 H 0.55347 0.09466 0.00093 0.0
H1628 H 0.61003 0.04952 0.07769 0.0
C1629 C 0.68456 0.16742 0.15149 0.0
C1630 C 0.69303 0.20217 0.15143 0.0
C1631 C 0.67809 0.21589 0.12194 0.0
C1632 C 0.65517 0.19441 0.09205 0.0
C1633 C 0.64873 0.16005 0.09253 0.0
C1634 C 0.66355 0.1471 0.12167 0.0
C1635 C 0.65258 0.10975 0.1175 0.0
C1636 C 0.68327 0.10091 0.11967 0.0
C1637 C 0.63252 0.09113 0.14475 0.0
C1638 C 0.62931 0.10313 0.081 0.0
C1639 C 0.62616 0.13187 0.06698 0.0
C1640 C 0.60008 0.12962 0.0368 0.0
C1641 C 0.57584 0.09711 0.02206 0.0
C1642 C 0.5789 0.06799 0.03732 0.0
C1643 C 0.60737 0.07143 0.06527 0.0
H1644 H 0.67913 0.64043 0.76389 0.0
H1645 H 0.67554 0.734 0.79093 0.0
H1646 H 0.65398 0.70841 0.84165 0.0
H1647 H 0.59485 0.58671 0.79307 0.0
H1648 H 0.60964 0.55386 0.80524 0.0
H1649 H 0.62005 0.57862 0.76825 0.0
H1650 H 0.68468 0.59335 0.79707 0.0
H1651 H 0.67508 0.57072 0.83529 0.0
H1652 H 0.7048 0.61491 0.84023 0.0
H1653 H 0.64785 0.6783 0.89644 0.0
H1654 H 0.63257 0.63644 0.94109 0.0
H1655 H 0.63204 0.56013 0.87431 0.0
C1656 C 0.67238 0.65506 0.77942 0.0
C1657 C 0.68079 0.68964 0.77461 0.0
C1658 C 0.67076 0.70777 0.79505 0.0
C1659 C 0.65842 0.69353 0.82396 0.0
C1660 C 0.654 0.66049 0.83029 0.0
C1661 C 0.65817 0.64063 0.80727 0.0
C1662 C 0.6502 0.60536 0.81975 0.0
C1663 C 0.6167 0.57961 0.79513 0.0
C1664 C 0.68053 0.59556 0.82331 0.0
C1665 C 0.64493 0.60995 0.8552 0.0
C1666 C 0.64721 0.64195 0.8607 0.0
C1667 C 0.64489 0.65275 0.89216 0.0
C1668 C 0.6371 0.62914 0.91766 0.0
C1669 C 0.63128 0.59534 0.91089 0.0
C1670 C 0.63667 0.58601 0.88003 0.0
H1671 H 0.38125 0.68186 0.87313 0.0
H1672 H 0.29492 0.58757 0.8779 0.0
H1673 H 0.32844 0.57703 0.93347 0.0
H1674 H 0.43684 0.66486 0.88216 0.0
H1675 H 0.47411 0.69433 0.91388 0.0
H1676 H 0.44039 0.70645 0.89217 0.0
H1677 H 0.43331 0.71941 0.95202 0.0
H1678 H 0.46768 0.70745 0.97424 0.0
H1679 H 0.42623 0.68764 0.984 0.0
H1680 H 0.37326 0.55906 0.9501 0.0
H1681 H 0.42325 0.54754 0.95073 0.0
H1682 H 0.48607 0.65425 0.94859 0.0
C1683 C 0.36881 0.6607 0.8879 0.0
C1684 C 0.33632 0.63499 0.87131 0.0
C1685 C 0.32011 0.60725 0.8903 0.0
C1686 C 0.33914 0.60113 0.92199 0.0
C1687 C 0.37388 0.62346 0.93439 0.0
C1688 C 0.38802 0.65447 0.91982 0.0
C1689 C 0.42726 0.67035 0.93315 0.0
C1690 C 0.44562 0.68471 0.90353 0.0
C1691 C 0.43931 0.69783 0.96261 0.0
C1692 C 0.43276 0.63989 0.94833 0.0
C1693 C 0.40163 0.61345 0.95004 0.0
C1694 C 0.39813 0.58006 0.95193 0.0
C1695 C 0.42647 0.57356 0.95182 0.0
C1696 C 0.45835 0.60037 0.95129 0.0
C1697 C 0.46202 0.63391 0.95089 0.0
H1698 H 0.3464 0.3719 0.76912 0.0
H1699 H 0.28297 0.32169 0.84061 0.0
H1700 H 0.31278 0.37168 0.88078 0.0
H1701 H 0.41858 0.40124 0.82309 0.0
H1702 H 0.43944 0.44327 0.80883 0.0
H1703 H 0.40473 0.41116 0.7782 0.0
H1704 H 0.37068 0.44805 0.76453 0.0
H1705 H 0.40571 0.48119 0.79478 0.0
H1706 H 0.36241 0.46528 0.79992 0.0
H1707 H 0.36076 0.41253 0.92165 0.0
H1708 H 0.42018 0.44608 0.95666 0.0
H1709 H 0.45273 0.47612 0.86068 0.0
C1710 C 0.33795 0.37221 0.79251 0.0
C1711 C 0.31285 0.34277 0.80197 0.0
C1712 C 0.30241 0.34372 0.83283 0.0
C1713 C 0.31895 0.37234 0.85581 0.0
C1714 C 0.34565 0.40012 0.84744 0.0
C1715 C 0.35449 0.40091 0.81594 0.0
C1716 C 0.38806 0.43122 0.81641 0.0
C1717 C 0.41422 0.42105 0.80612 0.0
C1718 C 0.3813 0.45802 0.7925 0.0
C1719 C 0.39928 0.44334 0.85479 0.0
C1720 C 0.37371 0.42613 0.87181 0.0
C1721 C 0.38041 0.42767 0.90849 0.0
C1722 C 0.41419 0.44664 0.92827 0.0
C1723 C 0.44052 0.46406 0.91127 0.0
C1724 C 0.43271 0.46339 0.8742 0.0
H1725 H 0.70282 0.39174 0.85955 0.0
H1726 H 0.61531 0.29536 0.82559 0.0
H1727 H 0.59238 0.30086 0.87496 0.0
H1728 H 0.70537 0.38573 0.96013 0.0
H1729 H 0.71743 0.43062 0.96378 0.0
H1730 H 0.73274 0.41382 0.93429 0.0
H1731 H 0.70704 0.44262 0.88236 0.0
H1732 H 0.69225 0.45959 0.91162 0.0
H1733 H 0.66185 0.43401 0.87275 0.0
H1734 H 0.57212 0.32328 0.91589 0.0
H1735 H 0.5544 0.36134 0.94116 0.0
H1736 H 0.65527 0.44369 0.94853 0.0
C1737 C 0.67945 0.37145 0.86354 0.0
C1738 C 0.66043 0.3434 0.83929 0.0
C1739 C 0.62989 0.31707 0.84432 0.0
C1740 C 0.61709 0.31981 0.87248 0.0
C1741 C 0.63572 0.34864 0.89551 0.0
C1742 C 0.66662 0.37382 0.8916 0.0
C1743 C 0.67835 0.40495 0.91526 0.0
C1744 C 0.71037 0.409 0.94514 0.0
C1745 C 0.68519 0.43712 0.89422 0.0
C1746 C 0.64706 0.39518 0.9294 0.0
C1747 C 0.62363 0.36195 0.91939 0.0
C1748 C 0.59061 0.349 0.92469 0.0
C1749 C 0.58061 0.37101 0.93865 0.0
C1750 C 0.60337 0.40571 0.94654 0.0
C1751 C 0.63752 0.41723 0.94363 0.0
H1752 H 0.70915 0.41315 0.12256 0.0
H1753 H 0.65233 0.30461 0.12105 0.0
H1754 H 0.61597 0.30473 0.06227 0.0
H1755 H 0.64421 0.42613 0.11064 0.0
H1756 H 0.65455 0.46254 0.08431 0.0
H1757 H 0.68853 0.45371 0.11177 0.0
H1758 H 0.71206 0.44964 0.05795 0.0
H1759 H 0.68024 0.4634 0.03318 0.0
H1760 H 0.68167 0.42567 0.01827 0.0
H1761 H 0.5721 0.31685 0.02092 0.0
H1762 H 0.52703 0.33857 0.00572 0.0
H1763 H 0.60527 0.43983 0.03958 0.0
C1764 C 0.69001 0.38936 0.10879 0.0
C1765 C 0.68296 0.35916 0.12625 0.0
C1766 C 0.65825 0.32818 0.10798 0.0
C1767 C 0.63739 0.32809 0.07442 0.0
C1768 C 0.6412 0.35915 0.06003 0.0
C1769 C 0.66742 0.38943 0.07673 0.0
C1770 C 0.65995 0.41946 0.0638 0.0
C1771 C 0.66185 0.44161 0.09444 0.0
C1772 C 0.68483 0.44071 0.04186 0.0
C1773 C 0.62341 0.40105 0.04119 0.0
C1774 C 0.61391 0.36659 0.0371 0.0
C1775 C 0.57948 0.34383 0.02294 0.0
C1776 C 0.55394 0.35621 0.01469 0.0
C1777 C 0.56312 0.39077 0.02154 0.0
C1778 C 0.59814 0.41336 0.03361 0.0
H1779 H 0.71588 0.63404 0.18748 0.0
H1780 H 0.65505 0.68502 0.2052 0.0
H1781 H 0.61091 0.65753 0.15092 0.0
H1782 H 0.69622 0.63422 0.09427 0.0
H1783 H 0.69112 0.59168 0.08663 0.0
H1784 H 0.71952 0.61581 0.12701 0.0
H1785 H 0.68646 0.56899 0.16439 0.0
H1786 H 0.65953 0.54404 0.12416 0.0
H1787 H 0.6401 0.55337 0.15491 0.0
H1788 H 0.5773 0.63069 0.09431 0.0
H1789 H 0.5392 0.58411 0.05045 0.0
H1790 H 0.61683 0.54438 0.06929 0.0
C1791 C 0.69237 0.63793 0.18061 0.0
C1792 C 0.68833 0.66124 0.20036 0.0
C1793 C 0.6579 0.66651 0.19077 0.0
C1794 C 0.63333 0.65193 0.15934 0.0
C1795 C 0.63941 0.63142 0.13872 0.0
C1796 C 0.66682 0.62251 0.14979 0.0
C1797 C 0.66434 0.59624 0.12439 0.0
C1798 C 0.6946 0.61035 0.10705 0.0
C1799 C 0.66246 0.56372 0.14306 0.0
C1800 C 0.63044 0.5911 0.09807 0.0
C1801 C 0.61802 0.61344 0.10605 0.0
C1802 C 0.58645 0.61291 0.08765 0.0
C1803 C 0.56507 0.58648 0.06272 0.0
C1804 C 0.57547 0.56121 0.05669 0.0
C1805 C 0.6091 0.56425 0.07298 0.0
H1806 H 0.40185 0.67344 0.1426 0.0
H1807 H 0.31873 0.59191 0.1753 0.0
H1808 H 0.30976 0.55514 0.12458 0.0
H1809 H 0.36241 0.65101 0.04367 0.0
H1810 H 0.40441 0.66276 0.03632 0.0
H1811 H 0.39983 0.68471 0.07084 0.0
H1812 H 0.44564 0.67053 0.11631 0.0
H1813 H 0.45039 0.64879 0.08202 0.0
H1814 H 0.43942 0.62698 0.12037 0.0
H1815 H 0.31751 0.52496 0.07925 0.0
H1816 H 0.34171 0.50236 0.04308 0.0
H1817 H 0.41661 0.60441 0.03432 0.0
C1818 C 0.38134 0.64805 0.13836 0.0
C1819 C 0.36098 0.63504 0.16241 0.0
C1820 C 0.33444 0.60189 0.15681 0.0
C1821 C 0.32901 0.5811 0.128 0.0
C1822 C 0.34988 0.59433 0.10484 0.0
C1823 C 0.37527 0.62718 0.1094 0.0
C1824 C 0.39653 0.6339 0.08295 0.0
C1825 C 0.39041 0.65963 0.05691 0.0
C1826 C 0.43526 0.64571 0.10153 0.0
C1827 C 0.381 0.59891 0.06487 0.0
C1828 C 0.35354 0.57677 0.07726 0.0
C1829 C 0.33813 0.54217 0.06831 0.0
C1830 C 0.35203 0.52957 0.04739 0.0
C1831 C 0.38111 0.55153 0.03555 0.0
C1832 C 0.39448 0.58687 0.04298 0.0
H1833 H 0.36926 0.35697 0.23495 0.0
H1834 H 0.35714 0.25988 0.19732 0.0
H1835 H 0.39425 0.28818 0.15806 0.0
H1836 H 0.36083 0.39293 0.16435 0.0
H1837 H 0.39488 0.43513 0.17486 0.0
H1838 H 0.3787 0.41028 0.20936 0.0
H1839 H 0.43973 0.41627 0.24291 0.0
H1840 H 0.45676 0.44265 0.20932 0.0
H1841 H 0.4651 0.40571 0.22036 0.0
H1842 H 0.41095 0.32184 0.10979 0.0
H1843 H 0.42399 0.36332 0.0646 0.0
H1844 H 0.43249 0.44131 0.13501 0.0
C1845 C 0.37658 0.34211 0.2203 0.0
C1846 C 0.36035 0.30643 0.21874 0.0
C1847 C 0.36939 0.28733 0.19858 0.0
C1848 C 0.39048 0.30318 0.17623 0.0
C1849 C 0.40333 0.33821 0.17543 0.0
C1850 C 0.39847 0.35782 0.19823 0.0
C1851 C 0.41226 0.39465 0.189 0.0
C1852 C 0.385 0.40903 0.18407 0.0
C1853 C 0.44543 0.41609 0.21706 0.0
C1854 C 0.42036 0.39137 0.15458 0.0
C1855 C 0.41573 0.35869 0.1478 0.0
C1856 C 0.41636 0.34792 0.11544 0.0
C1857 C 0.42304 0.37141 0.08968 0.0
C1858 C 0.42927 0.40528 0.09657 0.0
C1859 C 0.42822 0.41552 0.12949 0.0
H1860 H 0.86376 0.64934 0.61583 0.0
H1861 H 0.77921 0.56214 0.63966 0.0
H1862 H 0.8077 0.52544 0.63261 0.0
H1863 H 0.87608 0.60781 0.54921 0.0
H1864 H 0.9226 0.62963 0.5608 0.0
H1865 H 0.89729 0.64987 0.57031 0.0
H1866 H 0.93085 0.65875 0.63617 0.0
H1867 H 0.95659 0.63892 0.62676 0.0
H1868 H 0.93326 0.6229 0.65995 0.0
H1869 H 0.84315 0.49771 0.61967 0.0
H1870 H 0.88507 0.48082 0.60392 0.0
H1871 H 0.94725 0.58546 0.58817 0.0
C1872 C 0.85183 0.62265 0.62035 0.0
C1873 C 0.81966 0.60844 0.62894 0.0
C1874 C 0.80414 0.57337 0.63371 0.0
C1875 C 0.82005 0.5524 0.6296 0.0
C1876 C 0.85152 0.56693 0.62068 0.0
C1877 C 0.86747 0.60128 0.61635 0.0
C1878 C 0.90076 0.61008 0.60565 0.0
C1879 C 0.89906 0.62523 0.56933 0.0
C1880 C 0.93223 0.63409 0.63382 0.0
C1881 C 0.90073 0.57528 0.60425 0.0
C1882 C 0.87208 0.55081 0.61309 0.0
C1883 C 0.86587 0.51668 0.61309 0.0
C1884 C 0.88973 0.5073 0.60416 0.0
C1885 C 0.91933 0.53191 0.59533 0.0
C1886 C 0.92488 0.56631 0.59522 0.0
H1887 H 0.3396 0.84962 0.71396 0.0
H1888 H 0.27292 0.7615 0.6426 0.0
H1889 H 0.30998 0.78368 0.60126 0.0
H1890 H 0.34853 0.90491 0.63794 0.0
H1891 H 0.39122 0.93506 0.66033 0.0
H1892 H 0.3604 0.91195 0.68516 0.0
H1893 H 0.40296 0.88702 0.72411 0.0
H1894 H 0.43298 0.91537 0.70098 0.0
H1895 H 0.42484 0.87163 0.70114 0.0
H1896 H 0.35763 0.81286 0.571 0.0
H1897 H 0.40673 0.85185 0.54826 0.0
H1898 H 0.43907 0.92364 0.63671 0.0
C1899 C 0.33332 0.83494 0.6898 0.0
C1900 C 0.30513 0.80279 0.68226 0.0
C1901 C 0.29562 0.78531 0.64941 0.0
C1902 C 0.31638 0.79781 0.62579 0.0
C1903 C 0.34529 0.82871 0.63479 0.0
C1904 C 0.35307 0.8477 0.66541 0.0
C1905 C 0.38298 0.88203 0.66653 0.0
C1906 C 0.37001 0.91014 0.66223 0.0
C1907 C 0.41256 0.88929 0.70023 0.0
C1908 C 0.39345 0.87748 0.63411 0.0
C1909 C 0.37088 0.84692 0.61571 0.0
C1910 C 0.37525 0.83706 0.5849 0.0
C1911 C 0.40324 0.85923 0.57229 0.0
C1912 C 0.42671 0.89056 0.59086 0.0
C1913 C 0.42171 0.89967 0.62217 0.0
H1914 H 0.17932 0.26862 0.64393 0.0
H1915 H 0.23808 0.32396 0.74474 0.0
H1916 H 0.21361 0.36592 0.72821 0.0
H1917 H 0.19291 0.34953 0.59488 0.0
H1918 H 0.15123 0.32988 0.56366 0.0
H1919 H 0.17461 0.30492 0.58266 0.0
H1920 H 0.1219 0.26383 0.60387 0.0
H1921 H 0.0984 0.28878 0.58563 0.0
H1922 H 0.10451 0.28002 0.6316 0.0
H1923 H 0.17599 0.39696 0.70434 0.0
H1924 H 0.13769 0.42206 0.67113 0.0
H1925 H 0.10871 0.35299 0.58095 0.0
C1926 C 0.18817 0.29038 0.66188 0.0
C1927 C 0.21145 0.29325 0.69547 0.0
C1928 C 0.22122 0.32154 0.71859 0.0
C1929 C 0.20707 0.34539 0.70953 0.0
C1930 C 0.18381 0.34153 0.6766 0.0
C1931 C 0.17544 0.31551 0.65252 0.0
C1932 C 0.1507 0.3182 0.6184 0.0
C1933 C 0.1684 0.32609 0.58809 0.0
C1934 C 0.11687 0.28577 0.60937 0.0
C1935 C 0.14468 0.34837 0.62797 0.0
C1936 C 0.16411 0.3613 0.66174 0.0
C1937 C 0.16167 0.3878 0.6774 0.0
C1938 C 0.13979 0.4022 0.65793 0.0
C1939 C 0.12047 0.39079 0.62248 0.0
C1940 C 0.12297 0.36297 0.60767 0.0
H1941 H 0.6533 0.19339 0.65727 0.0
H1942 H 0.74244 0.20368 0.62314 0.0
H1943 H 0.70394 0.17048 0.56746 0.0
H1944 H 0.61005 0.11206 0.63661 0.0
H1945 H 0.56716 0.11067 0.62288 0.0
H1946 H 0.6008 0.14416 0.653 0.0
H1947 H 0.58991 0.18851 0.61079 0.0
H1948 H 0.5561 0.1548 0.58029 0.0
H1949 H 0.5914 0.18671 0.56565 0.0
H1950 H 0.65774 0.12632 0.52431 0.0
H1951 H 0.60926 0.07089 0.50162 0.0
H1952 H 0.54986 0.08777 0.56431 0.0
C1953 C 0.66443 0.18974 0.63721 0.0
C1954 C 0.70028 0.201 0.64358 0.0
C1955 C 0.7147 0.19503 0.61804 0.0
C1956 C 0.69309 0.17671 0.58633 0.0
C1957 C 0.65737 0.16468 0.58102 0.0
C1958 C 0.64315 0.17097 0.60592 0.0
C1959 C 0.60475 0.14934 0.59818 0.0
C1960 C 0.59519 0.12779 0.62949 0.0
C1961 C 0.58434 0.17115 0.5881 0.0
C1962 C 0.60006 0.12785 0.56682 0.0
C1963 C 0.63029 0.13805 0.55623 0.0
C1964 C 0.63363 0.11873 0.53148 0.0
C1965 C 0.60612 0.08738 0.51872 0.0
C1966 C 0.57621 0.07603 0.53112 0.0
C1967 C 0.57248 0.0969 0.55406 0.0
H1968 H 0.87096 0.31506 0.30961 0.0
H1969 H 0.80952 0.25881 0.38046 0.0
H1970 H 0.84711 0.30345 0.42779 0.0
H1971 H 0.95677 0.35191 0.37397 0.0
H1972 H 0.96811 0.39141 0.35262 0.0
H1973 H 0.93957 0.35218 0.32715 0.0
H1974 H 0.89403 0.37652 0.30401 0.0
H1975 H 0.92169 0.4154 0.33023 0.0
H1976 H 0.87859 0.3912 0.33504 0.0
H1977 H 0.88497 0.35978 0.46279 0.0
H1978 H 0.925 0.4193 0.48449 0.0
H1979 H 0.96351 0.43391 0.39183 0.0
C1980 C 0.86694 0.31086 0.33576 0.0
C1981 C 0.83843 0.28303 0.34196 0.0
C1982 C 0.83183 0.27978 0.37557 0.0
C1983 C 0.85296 0.30501 0.40253 0.0
C1984 C 0.88031 0.33299 0.39507 0.0
C1985 C 0.88759 0.33566 0.3626 0.0
C1986 C 0.91557 0.36961 0.35938 0.0
C1987 C 0.94688 0.36605 0.35293 0.0
C1988 C 0.90162 0.38931 0.33047 0.0
C1989 C 0.92361 0.38542 0.3954 0.0
C1990 C 0.90268 0.36443 0.41555 0.0
C1991 C 0.90281 0.37576 0.44808 0.0
C1992 C 0.92593 0.4091 0.46063 0.0
C1993 C 0.94877 0.42977 0.44103 0.0
C1994 C 0.9471 0.41798 0.40788 0.0
H1995 H 0.6511 0.82563 0.41213 0.0
H1996 H 0.67822 0.86208 0.31418 0.0
H1997 H 0.65827 0.90646 0.31661 0.0
H1998 H 0.57156 0.83272 0.3875 0.0
H1999 H 0.57329 0.84451 0.43136 0.0
H2000 H 0.59472 0.81881 0.42526 0.0
H2001 H 0.65248 0.86244 0.46443 0.0
H2002 H 0.63118 0.88827 0.47067 0.0
H2003 H 0.66878 0.9062 0.45358 0.0
H2004 H 0.63061 0.94414 0.32647 0.0
H2005 H 0.5969 0.97137 0.34287 0.0
H2006 H 0.58292 0.90722 0.4311 0.0
C2007 C 0.65293 0.8427 0.39097 0.0
C2008 C 0.66665 0.83986 0.36301 0.0
C2009 C 0.66884 0.86367 0.33651 0.0
C2010 C 0.6572 0.88902 0.33742 0.0
C2011 C 0.64294 0.89023 0.36472 0.0
C2012 C 0.64066 0.86764 0.39097 0.0
C2013 C 0.62142 0.87242 0.41562 0.0
C2014 C 0.58829 0.8402 0.41487 0.0
C2015 C 0.64488 0.88298 0.4533 0.0
C2016 C 0.61297 0.90107 0.3989 0.0
C2017 C 0.62591 0.91118 0.36975 0.0
C2018 C 0.62038 0.93642 0.34926 0.0
C2019 C 0.60089 0.95151 0.35858 0.0
C2020 C 0.58693 0.94127 0.38808 0.0
C2021 C 0.59344 0.91586 0.4086 0.0
H2022 H 0.16809 0.64375 0.2586 0.0
H2023 H 0.24082 0.73359 0.325 0.0
H2024 H 0.21802 0.70912 0.37502 0.0
H2025 H 0.0986 0.63136 0.28724 0.0
H2026 H 0.0808 0.58582 0.28817 0.0
H2027 H 0.10761 0.60678 0.25906 0.0
H2028 H 0.14853 0.57823 0.28642 0.0
H2029 H 0.12186 0.5569 0.31578 0.0
H2030 H 0.16735 0.58282 0.33333 0.0
H2031 H 0.1822 0.67965 0.41539 0.0
H2032 H 0.13545 0.64567 0.44357 0.0
H2033 H 0.08468 0.57465 0.35192 0.0
C2034 C 0.18008 0.65743 0.28414 0.0
C2035 C 0.20787 0.68976 0.28841 0.0
C2036 C 0.2216 0.70787 0.32164 0.0
C2037 C 0.20834 0.6943 0.35028 0.0
C2038 C 0.18111 0.6624 0.3454 0.0
C2039 C 0.1673 0.64387 0.31334 0.0
C2040 C 0.13605 0.61147 0.31462 0.0
C2041 C 0.10387 0.60875 0.28556 0.0
C2042 C 0.14391 0.58052 0.31241 0.0
C2043 C 0.13269 0.61656 0.35103 0.0
C2044 C 0.15959 0.64555 0.36876 0.0
C2045 C 0.16125 0.65651 0.40211 0.0
C2046 C 0.13457 0.63724 0.41782 0.0
C2047 C 0.10643 0.60785 0.39977 0.0
C2048 C 0.1058 0.59724 0.36619 0.0
H2049 H 0.27877 0.14491 0.28258 0.0
H2050 H 0.34748 0.25083 0.30999 0.0
H2051 H 0.39329 0.23422 0.34459 0.0
H2052 H 0.3061 0.10643 0.35962 0.0
H2053 H 0.30466 0.07153 0.33568 0.0
H2054 H 0.27668 0.09192 0.31652 0.0
H2055 H 0.30086 0.10337 0.26155 0.0
H2056 H 0.32905 0.08311 0.28059 0.0
H2057 H 0.3468 0.12583 0.267 0.0
H2058 H 0.4322 0.20451 0.37633 0.0
H2059 H 0.46099 0.16678 0.39821 0.0
H2060 H 0.36841 0.08037 0.34445 0.0
C2061 C 0.30321 0.16477 0.29636 0.0
C2062 C 0.30858 0.19937 0.29498 0.0
C2063 C 0.34173 0.22424 0.31216 0.0
C2064 C 0.36818 0.21493 0.33145 0.0
C2065 C 0.36183 0.18058 0.33215 0.0
C2066 C 0.33026 0.156 0.31435 0.0
C2067 C 0.33081 0.1212 0.31608 0.0
C2068 C 0.30291 0.09631 0.333 0.0
C2069 C 0.32662 0.10757 0.27912 0.0
C2070 C 0.367 0.12951 0.33938 0.0
C2071 C 0.3846 0.16394 0.34819 0.0
C2072 C 0.41846 0.17757 0.3695 0.0
C2073 C 0.43458 0.15568 0.38212 0.0
C2074 C 0.41719 0.12014 0.37363 0.0
C2075 C 0.38284 0.10722 0.35157 0.0
H2076 H 0.72063 0.8334 0.72803 0.0
H2077 H 0.71395 0.77576 0.63885 0.0
H2078 H 0.673 0.79544 0.60102 0.0
H2079 H 0.62945 0.82072 0.70325 0.0
H2080 H 0.63981 0.863 0.71879 0.0
H2081 H 0.66698 0.84206 0.73922 0.0
H2082 H 0.72 0.89242 0.72709 0.0
H2083 H 0.69304 0.91342 0.70626 0.0
H2084 H 0.71917 0.90533 0.68266 0.0
H2085 H 0.63669 0.82655 0.57135 0.0
H2086 H 0.60433 0.86131 0.55304 0.0
H2087 H 0.63102 0.89818 0.66192 0.0
C2088 C 0.7102 0.82418 0.70073 0.0
C2089 C 0.72055 0.80154 0.68688 0.0
C2090 C 0.70615 0.7914 0.65074 0.0
C2091 C 0.68293 0.80316 0.62881 0.0
C2092 C 0.67382 0.82555 0.64327 0.0
C2093 C 0.68669 0.83568 0.67858 0.0
C2094 C 0.67314 0.86048 0.68741 0.0
C2095 C 0.65103 0.84568 0.71373 0.0
C2096 C 0.70313 0.89495 0.7017 0.0
C2097 C 0.6511 0.86314 0.65134 0.0
C2098 C 0.65207 0.8428 0.62632 0.0
C2099 C 0.63517 0.84196 0.59093 0.0
C2100 C 0.61642 0.86183 0.5808 0.0
C2101 C 0.61383 0.8824 0.60579 0.0
C2102 C 0.63196 0.88301 0.64172 0.0
H2103 H 0.68716 0.14123 0.27232 0.0
H2104 H 0.7573 0.22439 0.34843 0.0
H2105 H 0.71862 0.20367 0.38774 0.0
H2106 H 0.60192 0.12535 0.28414 0.0
H2107 H 0.59004 0.08082 0.28179 0.0
H2108 H 0.62192 0.10846 0.26016 0.0
H2109 H 0.65983 0.07785 0.29715 0.0
H2110 H 0.62774 0.05575 0.32092 0.0
H2111 H 0.67134 0.08272 0.34456 0.0
H2112 H 0.67012 0.17667 0.4165 0.0
H2113 H 0.61944 0.13953 0.43789 0.0
H2114 H 0.58274 0.07033 0.34612 0.0
C2115 C 0.69382 0.15527 0.29701 0.0
C2116 C 0.72402 0.18586 0.30645 0.0
C2117 C 0.73355 0.20208 0.34002 0.0
C2118 C 0.71174 0.19032 0.36259 0.0
C2119 C 0.68126 0.16112 0.3519 0.0
C2120 C 0.67276 0.14307 0.32044 0.0
C2121 C 0.64074 0.11006 0.31767 0.0
C2122 C 0.61209 0.10608 0.28391 0.0
C2123 C 0.6505 0.07981 0.32023 0.0
C2124 C 0.63056 0.11456 0.3504 0.0
C2125 C 0.65471 0.14385 0.37011 0.0
C2126 C 0.65115 0.15346 0.40152 0.0
C2127 C 0.62225 0.13234 0.41337 0.0
C2128 C 0.59709 0.10228 0.39354 0.0
C2129 C 0.60136 0.0934 0.36163 0.0
H2130 H 0.81033 0.67437 0.26886 0.0
H2131 H 0.85887 0.7639 0.33944 0.0
H2132 H 0.89197 0.73772 0.38085 0.0
H2133 H 0.81173 0.60833 0.33252 0.0
H2134 H 0.82617 0.58763 0.30592 0.0
H2135 H 0.80029 0.60978 0.28523 0.0
H2136 H 0.84741 0.64589 0.25395 0.0
H2137 H 0.87357 0.62407 0.27473 0.0
H2138 H 0.89109 0.66959 0.27984 0.0
H2139 H 0.91983 0.70156 0.4152 0.0
H2140 H 0.94852 0.66451 0.4356 0.0
H2141 H 0.89377 0.60281 0.33692 0.0
C2142 C 0.82647 0.68753 0.29403 0.0
C2143 C 0.82859 0.71983 0.30285 0.0
C2144 C 0.85362 0.7379 0.3338 0.0
C2145 C 0.87319 0.72335 0.35727 0.0
C2146 C 0.86984 0.69133 0.34834 0.0
C2147 C 0.84793 0.674 0.31692 0.0
C2148 C 0.85414 0.64287 0.31103 0.0
C2149 C 0.82111 0.61021 0.30853 0.0
C2150 C 0.86733 0.64578 0.27793 0.0
C2151 C 0.88226 0.64507 0.34447 0.0
C2152 C 0.89027 0.67297 0.3657 0.0
C2153 C 0.91434 0.68007 0.39834 0.0
C2154 C 0.93113 0.65864 0.40954 0.0
C2155 C 0.92525 0.63042 0.38795 0.0
C2156 C 0.89979 0.62372 0.35477 0.0
H2157 H 0.29824 0.83465 0.33746 0.0
H2158 H 0.3326 0.75581 0.37299 0.0
H2159 H 0.37059 0.7907 0.42716 0.0
H2160 H 0.36993 0.8979 0.35438 0.0
H2161 H 0.35888 0.92855 0.37096 0.0
H2162 H 0.3259 0.89351 0.34247 0.0
H2163 H 0.29075 0.8757 0.38921 0.0
H2164 H 0.3238 0.91118 0.41813 0.0
H2165 H 0.31074 0.8689 0.43333 0.0
H2166 H 0.41714 0.8395 0.46484 0.0
H2167 H 0.46518 0.8961 0.48261 0.0
H2168 H 0.39918 0.94287 0.42606 0.0
C2169 C 0.31277 0.82419 0.35725 0.0
C2170 C 0.31369 0.79327 0.35039 0.0
C2171 C 0.33257 0.78012 0.37706 0.0
C2172 C 0.35374 0.79952 0.40832 0.0
C2173 C 0.35459 0.83138 0.41305 0.0
C2174 C 0.33365 0.84316 0.38866 0.0
C2175 C 0.34335 0.88011 0.39654 0.0
C2176 C 0.34995 0.9012 0.3642 0.0
C2177 C 0.3155 0.8842 0.41012 0.0
C2178 C 0.37607 0.88849 0.42573 0.0
C2179 C 0.38128 0.85978 0.43622 0.0
C2180 C 0.41272 0.86198 0.45808 0.0
C2181 C 0.43992 0.89417 0.46804 0.0
C2182 C 0.43532 0.92342 0.45591 0.0
C2183 C 0.40272 0.92059 0.43606 0.0
H2184 H 0.19708 0.36938 0.41293 0.0
H2185 H 0.19271 0.38815 0.30268 0.0
H2186 H 0.15436 0.41648 0.30177 0.0
H2187 H 0.10802 0.35398 0.40763 0.0
H2188 H 0.11905 0.3749 0.45017 0.0
H2189 H 0.14467 0.35457 0.44163 0.0
H2190 H 0.19962 0.41078 0.45978 0.0
H2191 H 0.17411 0.43133 0.46809 0.0
H2192 H 0.20079 0.44859 0.43789 0.0
H2193 H 0.11896 0.4457 0.31363 0.0
H2194 H 0.08741 0.47141 0.33641 0.0
H2195 H 0.11406 0.43357 0.43911 0.0
C2196 C 0.18811 0.37941 0.38852 0.0
C2197 C 0.19813 0.37639 0.35781 0.0
C2198 C 0.18521 0.38958 0.32643 0.0
C2199 C 0.16355 0.40599 0.32573 0.0
C2200 C 0.15474 0.40899 0.35657 0.0
C2201 C 0.1664 0.39585 0.38734 0.0
C2202 C 0.15343 0.40286 0.41697 0.0
C2203 C 0.12989 0.36959 0.42985 0.0
C2204 C 0.1838 0.42469 0.44748 0.0
C2205 C 0.13299 0.42239 0.39816 0.0
C2206 C 0.13405 0.42554 0.36332 0.0
C2207 C 0.11762 0.44297 0.34075 0.0
C2208 C 0.09947 0.45732 0.35396 0.0
C2209 C 0.09759 0.45427 0.38953 0.0
C2210 C 0.11487 0.43655 0.41184 0.0
H2211 H 0.42807 0.18842 0.66282 0.0
H2212 H 0.31893 0.13868 0.60979 0.0
H2213 H 0.32818 0.0914 0.58875 0.0
H2214 H 0.46046 0.16888 0.59894 0.0
H2215 H 0.49452 0.16124 0.62947 0.0
H2216 H 0.47882 0.18958 0.64251 0.0
H2217 H 0.46523 0.15431 0.6963 0.0
H2218 H 0.48134 0.12611 0.68359 0.0
H2219 H 0.43826 0.10945 0.68949 0.0
H2220 H 0.35084 0.05149 0.57004 0.0
H2221 H 0.38347 0.021 0.5582 0.0
H2222 H 0.4782 0.09727 0.62356 0.0
C2223 C 0.40603 0.16732 0.64717 0.0
C2224 C 0.37273 0.16723 0.63794 0.0
C2225 C 0.34455 0.13913 0.61749 0.0
C2226 C 0.34964 0.11227 0.60529 0.0
C2227 C 0.383 0.11356 0.61426 0.0
C2228 C 0.4106 0.14016 0.63523 0.0
C2229 C 0.44392 0.13579 0.64083 0.0
C2230 C 0.47102 0.16565 0.62711 0.0
C2231 C 0.45802 0.13115 0.67987 0.0
C2232 C 0.43116 0.1033 0.61862 0.0
C2233 C 0.39589 0.09068 0.60375 0.0
C2234 C 0.37842 0.06118 0.58174 0.0
C2235 C 0.39737 0.04417 0.57488 0.0
C2236 C 0.43368 0.05664 0.5897 0.0
C2237 C 0.45054 0.08665 0.61204 0.0
H2238 H 0.87791 0.31173 0.72775 0.0
H2239 H 0.77564 0.28975 0.66018 0.0
H2240 H 0.80175 0.31954 0.61248 0.0
H2241 H 0.92637 0.39235 0.69934 0.0
H2242 H 0.96264 0.38269 0.7009 0.0
H2243 H 0.93512 0.36267 0.72967 0.0
H2244 H 0.92476 0.30389 0.70543 0.0
H2245 H 0.95144 0.32374 0.67576 0.0
H2246 H 0.90754 0.29292 0.6588 0.0
H2247 H 0.84071 0.35009 0.57108 0.0
H2248 H 0.88809 0.38191 0.5426 0.0
H2249 H 0.9632 0.37931 0.63746 0.0
C2250 C 0.86095 0.31382 0.70321 0.0
C2251 C 0.82481 0.29944 0.69811 0.0
C2252 C 0.80347 0.30167 0.66516 0.0
C2253 C 0.81809 0.3181 0.63774 0.0
C2254 C 0.85394 0.3311 0.64345 0.0
C2255 C 0.87495 0.32898 0.67548 0.0
C2256 C 0.91234 0.34264 0.67471 0.0
C2257 C 0.93546 0.37184 0.70281 0.0
C2258 C 0.92474 0.31411 0.67893 0.0
C2259 C 0.90967 0.35479 0.63789 0.0
C2260 C 0.87577 0.34729 0.6198 0.0
C2261 C 0.86728 0.35604 0.58509 0.0
C2262 C 0.89429 0.37384 0.56904 0.0
C2263 C 0.92919 0.38302 0.58798 0.0
C2264 C 0.93673 0.37269 0.62248 0.0
H2265 H 0.21736 0.6988 0.6242 0.0
H2266 H 0.15346 0.72622 0.67219 0.0
H2267 H 0.10181 0.68966 0.62756 0.0
H2268 H 0.15462 0.68514 0.52758 0.0
H2269 H 0.16534 0.65147 0.51813 0.0
H2270 H 0.19777 0.68815 0.54583 0.0
H2271 H 0.20817 0.64885 0.59388 0.0
H2272 H 0.17571 0.61203 0.56759 0.0
H2273 H 0.17324 0.61994 0.61113 0.0
H2274 H 0.05833 0.63703 0.59425 0.0
H2275 H 0.02639 0.5786 0.56736 0.0
H2276 H 0.11621 0.5868 0.53584 0.0
C2277 C 0.19262 0.69784 0.62464 0.0
C2278 C 0.1893 0.71394 0.65271 0.0
C2279 C 0.15668 0.71323 0.65167 0.0
C2280 C 0.12708 0.69279 0.62607 0.0
C2281 C 0.13077 0.67457 0.60065 0.0
C2282 C 0.1629 0.67812 0.59863 0.0
C2283 C 0.15941 0.65266 0.57148 0.0
C2284 C 0.1699 0.67042 0.53882 0.0
C2285 C 0.18027 0.63204 0.58702 0.0
C2286 C 0.1209 0.63104 0.5629 0.0
C2287 C 0.10462 0.6449 0.57894 0.0
C2288 C 0.07033 0.62674 0.58011 0.0
C2289 C 0.05249 0.59355 0.56512 0.0
C2290 C 0.06897 0.57907 0.54913 0.0
C2291 C 0.10308 0.59819 0.54702 0.0
loop_
_geom_bond_atom_site_label_1
_geom_bond_atom_site_label_2
_geom_bond_distance
_geom_bond_site_symmetry_2
_ccdc_geom_bond_type
Eu0 N31 2.657 . S
Eu0 N38 2.609 . S
Eu0 O44 2.558 . S
Eu0 O45 2.612 . S
Eu0 O47 2.339 . S
Eu0 O48 2.563 . S
Eu0 O49 2.419 . S
Eu0 O51 2.380 . S
Eu0 O52 2.432 . S
Eu0 C64 2.848 . S
C1 C4 1.429 . S
C1 C5 1.411 . S
C1 N8 1.377 . S
C2 C4 1.420 . S
C2 C6 1.423 . S
C2 C14 1.392 . S
C3 C5 1.420 . S
C3 C6 1.351 . S
C3 H26 0.931 . S
C4 C1 1.429 . S
C4 C2 1.420 . S
C4 N12 1.362 . S
C5 C1 1.411 . S
C5 C3 1.420 . S
C5 C10 1.395 . S
C6 C2 1.423 . S
C6 C3 1.351 . S
C6 H18 0.930 . S
C7 C9 1.400 . S
C7 C10 1.386 . S
C7 H19 0.930 . S
N8 C1 1.377 . S
N8 C9 1.321 . S
N8 Eu11 2.609 . S
C9 C7 1.400 . S
C9 N8 1.321 . S
C9 H16 0.930 . S
C10 C5 1.395 . S
C10 C7 1.386 . S
C10 H29 0.930 . S
Eu11 N8 2.609 . S
Eu11 N12 2.657 . S
Eu11 O45 2.380 . S
Eu11 O46 2.432 . S
Eu11 O50 2.558 . S
Eu11 O51 2.612 . S
Eu11 O53 2.339 . S
Eu11 O54 2.563 . S
Eu11 O55 2.419 . S
Eu11 C75 2.848 . S
N12 C4 1.362 . S
N12 Eu11 2.657 . S
N12 C13 1.334 . S
C13 N12 1.334 . S
C13 C15 1.413 . S
C13 H20 0.929 . S
C14 C2 1.392 . S
C14 C15 1.367 . S
C14 H22 0.930 . S
C15 C13 1.413 . S
C15 C14 1.367 . S
C15 H17 0.930 . S
H16 C9 0.930 . S
H17 C15 0.930 . S
H18 C6 0.930 . S
H19 C7 0.930 . S
H20 C13 0.929 . S
H21 C35 0.930 . S
H22 C14 0.930 . S
H23 C41 0.930 . S
H24 C32 0.929 . S
H25 C39 0.930 . S
H26 C3 0.931 . S
H27 C33 0.930 . S
H28 C66 0.930 . S
H29 C10 0.930 . S
H30 C65 0.931 . S
N31 Eu0 2.657 . S
N31 C32 1.334 . S
N31 C36 1.362 . S
C32 H24 0.929 . S
C32 N31 1.334 . S
C32 C35 1.413 . S
C33 H27 0.930 . S
C33 C34 1.392 . S
C33 C35 1.367 . S
C34 C33 1.392 . S
C34 C36 1.420 . S
C34 C66 1.423 . S
C35 H21 0.930 . S
C35 C32 1.413 . S
C35 C33 1.367 . S
C36 N31 1.362 . S
C36 C34 1.420 . S
C36 C40 1.429 . S
H37 C42 0.930 . S
N38 Eu0 2.609 . S
N38 C40 1.377 . S
N38 C41 1.321 . S
C39 H25 0.930 . S
C39 C41 1.400 . S
C39 C42 1.386 . S
C40 C36 1.429 . S
C40 N38 1.377 . S
C40 C43 1.411 . S
C41 H23 0.930 . S
C41 N38 1.321 . S
C41 C39 1.400 . S
C42 H37 0.930 . S
C42 C39 1.386 . S
C42 C43 1.395 . S
C43 C40 1.411 . S
C43 C42 1.395 . S
C43 C65 1.420 . S
O44 Eu0 2.558 . S
O44 C64 1.257 . S
O45 Eu0 2.612 . S
O45 Eu11 2.380 . S
O45 C56 1.276 . S
O46 Eu11 2.432 . S
O46 C63 1.264 . S
O47 Eu0 2.339 . S
O47 C63 1.254 . S
O48 Eu0 2.563 . S
O48 C56 1.235 . S
O49 Eu0 2.419 . S
O49 C64 1.249 . S
O50 Eu11 2.558 . S
O50 C75 1.257 . S
O51 Eu0 2.380 . S
O51 Eu11 2.612 . S
O51 C67 1.276 . S
O52 Eu0 2.432 . S
O52 C74 1.264 . S
O53 Eu11 2.339 . S
O53 C74 1.254 . S
O54 Eu11 2.563 . S
O54 C67 1.235 . S
O55 Eu11 2.419 . S
O55 C75 1.249 . S
C56 O45 1.276 . S
C56 O48 1.235 . S
C57 C59 1.393 . S
C57 C61 1.395 . S
C57 C64 1.492 . S
C58 C59 1.392 . S
C58 C60 1.386 . S
C59 C57 1.393 . S
C59 C58 1.392 . S
C59 H76 0.930 . S
C60 C58 1.386 . S
C60 C62 1.395 . S
C60 H77 0.930 . S
C61 C57 1.395 . S
C61 C62 1.379 . S
C61 H78 0.930 . S
C62 C60 1.395 . S
C62 C61 1.379 . S
C62 H79 0.930 . S
C63 O46 1.264 . S
C63 O47 1.254 . S
C64 Eu0 2.848 . S
C64 O44 1.257 . S
C64 O49 1.249 . S
C64 C57 1.492 . S
C65 H30 0.931 . S
C65 C43 1.420 . S
C65 C66 1.351 . S
C66 H28 0.930 . S
C66 C34 1.423 . S
C66 C65 1.351 . S
C67 O51 1.276 . S
C67 O54 1.235 . S
C68 C69 1.393 . S
C68 C72 1.395 . S
C68 C75 1.492 . S
C69 C68 1.393 . S
C69 C70 1.392 . S
C69 H80 0.930 . S
C70 C69 1.392 . S
C70 C71 1.386 . S
C71 C70 1.386 . S
C71 C73 1.395 . S
C71 H81 0.930 . S
C72 C68 1.395 . S
C72 C73 1.379 . S
C72 H82 0.930 . S
C73 C71 1.395 . S
C73 C72 1.379 . S
C73 H83 0.930 . S
C74 O52 1.264 . S
C74 O53 1.254 . S
C75 Eu11 2.848 . S
C75 O50 1.257 . S
C75 O55 1.249 . S
C75 C68 1.492 . S
H76 C59 0.930 . S
H77 C60 0.930 . S
H78 C61 0.930 . S
H79 C62 0.930 . S
H80 C69 0.930 . S
H81 C71 0.930 . S
H82 C72 0.930 . S
H83 C73 0.930 . S
Eu84 N115 2.657 . S
Eu84 N122 2.609 . S
Eu84 O128 2.558 . S
Eu84 O129 2.612 . S
Eu84 O131 2.339 . S
Eu84 O132 2.563 . S
Eu84 O133 2.419 . S
Eu84 O135 2.380 . S
Eu84 O136 2.432 . S
Eu84 C148 2.848 . S
C85 C88 1.429 . S
C85 C89 1.411 . S
C85 N92 1.377 . S
C86 C88 1.420 . S
C86 C90 1.423 . S
C86 C98 1.392 . S
C87 C89 1.420 . S
C87 C90 1.351 . S
C87 H110 0.931 . S
C88 C85 1.429 . S
C88 C86 1.420 . S
C88 N96 1.362 . S
C89 C85 1.411 . S
C89 C87 1.420 . S
C89 C94 1.395 . S
C90 C86 1.423 . S
C90 C87 1.351 . S
C90 H102 0.930 . S
C91 C93 1.400 . S
C91 C94 1.386 . S
C91 H103 0.930 . S
N92 C85 1.377 . S
N92 C93 1.321 . S
N92 Eu95 2.609 . S
C93 C91 1.400 . S
C93 N92 1.321 . S
C93 H100 0.930 . S
C94 C89 1.395 . S
C94 C91 1.386 . S
C94 H113 0.930 . S
Eu95 N92 2.609 . S
Eu95 N96 2.657 . S
Eu95 O129 2.380 . S
Eu95 O130 2.432 . S
Eu95 O134 2.558 . S
Eu95 O135 2.612 . S
Eu95 O137 2.339 . S
Eu95 O138 2.563 . S
Eu95 O139 2.419 . S
Eu95 C159 2.848 . S
N96 C88 1.362 . S
N96 Eu95 2.657 . S
N96 C97 1.334 . S
C97 N96 1.334 . S
C97 C99 1.413 . S
C97 H104 0.929 . S
C98 C86 1.392 . S
C98 C99 1.367 . S
C98 H106 0.930 . S
C99 C97 1.413 . S
C99 C98 1.367 . S
C99 H101 0.930 . S
H100 C93 0.930 . S
H101 C99 0.930 . S
H102 C90 0.930 . S
H103 C91 0.930 . S
H104 C97 0.929 . S
H105 C119 0.930 . S
H106 C98 0.930 . S
H107 C125 0.930 . S
H108 C116 0.929 . S
H109 C123 0.930 . S
H110 C87 0.931 . S
H111 C117 0.930 . S
H112 C150 0.930 . S
H113 C94 0.930 . S
H114 C149 0.931 . S
N115 Eu84 2.657 . S
N115 C116 1.334 . S
N115 C120 1.362 . S
C116 H108 0.929 . S
C116 N115 1.334 . S
C116 C119 1.413 . S
C117 H111 0.930 . S
C117 C118 1.392 . S
C117 C119 1.367 . S
C118 C117 1.392 . S
C118 C120 1.420 . S
C118 C150 1.423 . S
C119 H105 0.930 . S
C119 C116 1.413 . S
C119 C117 1.367 . S
C120 N115 1.362 . S
C120 C118 1.420 . S
C120 C124 1.429 . S
H121 C126 0.930 . S
N122 Eu84 2.609 . S
N122 C124 1.377 . S
N122 C125 1.321 . S
C123 H109 0.930 . S
C123 C125 1.400 . S
C123 C126 1.386 . S
C124 C120 1.429 . S
C124 N122 1.377 . S
C124 C127 1.411 . S
C125 H107 0.930 . S
C125 N122 1.321 . S
C125 C123 1.400 . S
C126 H121 0.930 . S
C126 C123 1.386 . S
C126 C127 1.395 . S
C127 C124 1.411 . S
C127 C126 1.395 . S
C127 C149 1.420 . S
O128 Eu84 2.558 . S
O128 C148 1.257 . S
O129 Eu84 2.612 . S
O129 Eu95 2.380 . S
O129 C140 1.276 . S
O130 Eu95 2.432 . S
O130 C147 1.264 . S
O131 Eu84 2.339 . S
O131 C147 1.254 . S
O132 Eu84 2.563 . S
O132 C140 1.235 . S
O133 Eu84 2.419 . S
O133 C148 1.249 . S
O134 Eu95 2.558 . S
O134 C159 1.257 . S
O135 Eu84 2.380 . S
O135 Eu95 2.612 . S
O135 C151 1.276 . S
O136 Eu84 2.432 . S
O136 C158 1.264 . S
O137 Eu95 2.339 . S
O137 C158 1.254 . S
O138 Eu95 2.563 . S
O138 C151 1.235 . S
O139 Eu95 2.419 . S
O139 C159 1.249 . S
C140 O129 1.276 . S
C140 O132 1.235 . S
C141 C143 1.393 . S
C141 C145 1.395 . S
C141 C148 1.492 . S
C142 C143 1.392 . S
C142 C144 1.386 . S
C143 C141 1.393 . S
C143 C142 1.392 . S
C143 H160 0.930 . S
C144 C142 1.386 . S
C144 C146 1.395 . S
C144 H161 0.930 . S
C145 C141 1.395 . S
C145 C146 1.379 . S
C145 H162 0.930 . S
C146 C144 1.395 . S
C146 C145 1.379 . S
C146 H163 0.930 . S
C147 O130 1.264 . S
C147 O131 1.254 . S
C148 Eu84 2.848 . S
C148 O128 1.257 . S
C148 O133 1.249 . S
C148 C141 1.492 . S
C149 H114 0.931 . S
C149 C127 1.420 . S
C149 C150 1.351 . S
C150 H112 0.930 . S
C150 C118 1.423 . S
C150 C149 1.351 . S
C151 O135 1.276 . S
C151 O138 1.235 . S
C152 C153 1.393 . S
C152 C156 1.395 . S
C152 C159 1.492 . S
C153 C152 1.393 . S
C153 C154 1.392 . S
C153 H164 0.930 . S
C154 C153 1.392 . S
C154 C155 1.386 . S
C155 C154 1.386 . S
C155 C157 1.395 . S
C155 H165 0.930 . S
C156 C152 1.395 . S
C156 C157 1.379 . S
C156 H166 0.930 . S
C157 C155 1.395 . S
C157 C156 1.379 . S
C157 H167 0.930 . S
C158 O136 1.264 . S
C158 O137 1.254 . S
C159 Eu95 2.848 . S
C159 O134 1.257 . S
C159 O139 1.249 . S
C159 C152 1.492 . S
H160 C143 0.930 . S
H161 C144 0.930 . S
H162 C145 0.930 . S
H163 C146 0.930 . S
H164 C153 0.930 . S
H165 C155 0.930 . S
H166 C156 0.930 . S
H167 C157 0.930 . S
Eu168 N199 2.657 . S
Eu168 N206 2.609 . S
Eu168 O212 2.558 . S
Eu168 O213 2.612 . S
Eu168 O215 2.339 . S
Eu168 O216 2.563 . S
Eu168 O217 2.419 . S
Eu168 O219 2.380 . S
Eu168 O220 2.432 . S
Eu168 C232 2.848 . S
C169 C172 1.429 . S
C169 C173 1.411 . S
C169 N176 1.377 . S
C170 C172 1.420 . S
C170 C174 1.423 . S
C170 C182 1.392 . S
C171 C173 1.420 . S
C171 C174 1.351 . S
C171 H194 0.931 . S
C172 C169 1.429 . S
C172 C170 1.420 . S
C172 N180 1.362 . S
C173 C169 1.411 . S
C173 C171 1.420 . S
C173 C178 1.395 . S
C174 C170 1.423 . S
C174 C171 1.351 . S
C174 H186 0.930 . S
C175 C177 1.400 . S
C175 C178 1.386 . S
C175 H187 0.930 . S
N176 C169 1.377 . S
N176 C177 1.321 . S
N176 Eu179 2.609 . S
C177 C175 1.400 . S
C177 N176 1.321 . S
C177 H184 0.930 . S
C178 C173 1.395 . S
C178 C175 1.386 . S
C178 H197 0.930 . S
Eu179 N176 2.609 . S
Eu179 N180 2.657 . S
Eu179 O213 2.380 . S
Eu179 O214 2.432 . S
Eu179 O218 2.558 . S
Eu179 O219 2.612 . S
Eu179 O221 2.339 . S
Eu179 O222 2.563 . S
Eu179 O223 2.419 . S
Eu179 C243 2.848 . S
N180 C172 1.362 . S
N180 Eu179 2.657 . S
N180 C181 1.334 . S
C181 N180 1.334 . S
C181 C183 1.413 . S
C181 H188 0.929 . S
C182 C170 1.392 . S
C182 C183 1.367 . S
C182 H190 0.930 . S
C183 C181 1.413 . S
C183 C182 1.367 . S
C183 H185 0.930 . S
H184 C177 0.930 . S
H185 C183 0.930 . S
H186 C174 0.930 . S
H187 C175 0.930 . S
H188 C181 0.929 . S
H189 C203 0.930 . S
H190 C182 0.930 . S
H191 C209 0.930 . S
H192 C200 0.929 . S
H193 C207 0.930 . S
H194 C171 0.931 . S
H195 C201 0.930 . S
H196 C234 0.930 . S
H197 C178 0.930 . S
H198 C233 0.931 . S
N199 Eu168 2.657 . S
N199 C200 1.334 . S
N199 C204 1.362 . S
C200 H192 0.929 . S
C200 N199 1.334 . S
C200 C203 1.413 . S
C201 H195 0.930 . S
C201 C202 1.392 . S
C201 C203 1.367 . S
C202 C201 1.392 . S
C202 C204 1.420 . S
C202 C234 1.423 . S
C203 H189 0.930 . S
C203 C200 1.413 . S
C203 C201 1.367 . S
C204 N199 1.362 . S
C204 C202 1.420 . S
C204 C208 1.429 . S
H205 C210 0.930 . S
N206 Eu168 2.609 . S
N206 C208 1.377 . S
N206 C209 1.321 . S
C207 H193 0.930 . S
C207 C209 1.400 . S
C207 C210 1.386 . S
C208 C204 1.429 . S
C208 N206 1.377 . S
C208 C211 1.411 . S
C209 H191 0.930 . S
C209 N206 1.321 . S
C209 C207 1.400 . S
C210 H205 0.930 . S
C210 C207 1.386 . S
C210 C211 1.395 . S
C211 C208 1.411 . S
C211 C210 1.395 . S
C211 C233 1.420 . S
O212 Eu168 2.558 . S
O212 C232 1.257 . S
O213 Eu168 2.612 . S
O213 Eu179 2.380 . S
O213 C224 1.276 . S
O214 Eu179 2.432 . S
O214 C231 1.264 . S
O215 Eu168 2.339 . S
O215 C231 1.254 . S
O216 Eu168 2.563 . S
O216 C224 1.235 . S
O217 Eu168 2.419 . S
O217 C232 1.249 . S
O218 Eu179 2.558 . S
O218 C243 1.257 . S
O219 Eu168 2.380 . S
O219 Eu179 2.612 . S
O219 C235 1.276 . S
O220 Eu168 2.432 . S
O220 C242 1.264 . S
O221 Eu179 2.339 . S
O221 C242 1.254 . S
O222 Eu179 2.563 . S
O222 C235 1.235 . S
O223 Eu179 2.419 . S
O223 C243 1.249 . S
C224 O213 1.276 . S
C224 O216 1.235 . S
C225 C227 1.393 . S
C225 C229 1.395 . S
C225 C232 1.492 . S
C226 C227 1.392 . S
C226 C228 1.386 . S
C227 C225 1.393 . S
C227 C226 1.392 . S
C227 H244 0.930 . S
C228 C226 1.386 . S
C228 C230 1.395 . S
C228 H245 0.930 . S
C229 C225 1.395 . S
C229 C230 1.379 . S
C229 H246 0.930 . S
C230 C228 1.395 . S
C230 C229 1.379 . S
C230 H247 0.930 . S
C231 O214 1.264 . S
C231 O215 1.254 . S
C232 Eu168 2.848 . S
C232 O212 1.257 . S
C232 O217 1.249 . S
C232 C225 1.492 . S
C233 H198 0.931 . S
C233 C211 1.420 . S
C233 C234 1.351 . S
C234 H196 0.930 . S
C234 C202 1.423 . S
C234 C233 1.351 . S
C235 O219 1.276 . S
C235 O222 1.235 . S
C236 C237 1.393 . S
C236 C240 1.395 . S
C236 C243 1.492 . S
C237 C236 1.393 . S
C237 C238 1.392 . S
C237 H248 0.930 . S
C238 C237 1.392 . S
C238 C239 1.386 . S
C239 C238 1.386 . S
C239 C241 1.395 . S
C239 H249 0.930 . S
C240 C236 1.395 . S
C240 C241 1.379 . S
C240 H250 0.930 . S
C241 C239 1.395 . S
C241 C240 1.379 . S
C241 H251 0.930 . S
C242 O220 1.264 . S
C242 O221 1.254 . S
C243 Eu179 2.848 . S
C243 O218 1.257 . S
C243 O223 1.249 . S
C243 C236 1.492 . S
H244 C227 0.930 . S
H245 C228 0.930 . S
H246 C229 0.930 . S
H247 C230 0.930 . S
H248 C237 0.930 . S
H249 C239 0.930 . S
H250 C240 0.930 . S
H251 C241 0.930 . S
Eu252 N283 2.657 . S
Eu252 N290 2.609 . S
Eu252 O296 2.558 . S
Eu252 O297 2.612 . S
Eu252 O299 2.339 . S
Eu252 O300 2.563 . S
Eu252 O301 2.419 . S
Eu252 O303 2.380 . S
Eu252 O304 2.432 . S
Eu252 C316 2.848 . S
C253 C256 1.429 . S
C253 C257 1.411 . S
C253 N260 1.377 . S
C254 C256 1.420 . S
C254 C258 1.423 . S
C254 C266 1.392 . S
C255 C257 1.420 . S
C255 C258 1.351 . S
C255 H278 0.931 . S
C256 C253 1.429 . S
C256 C254 1.420 . S
C256 N264 1.362 . S
C257 C253 1.411 . S
C257 C255 1.420 . S
C257 C262 1.395 . S
C258 C254 1.423 . S
C258 C255 1.351 . S
C258 H270 0.930 . S
C259 C261 1.400 . S
C259 C262 1.386 . S
C259 H271 0.930 . S
N260 C253 1.377 . S
N260 C261 1.321 . S
N260 Eu263 2.609 . S
C261 C259 1.400 . S
C261 N260 1.321 . S
C261 H268 0.930 . S
C262 C257 1.395 . S
C262 C259 1.386 . S
C262 H281 0.930 . S
Eu263 N260 2.609 . S
Eu263 N264 2.657 . S
Eu263 O297 2.380 . S
Eu263 O298 2.432 . S
Eu263 O302 2.558 . S
Eu263 O303 2.612 . S
Eu263 O305 2.339 . S
Eu263 O306 2.563 . S
Eu263 O307 2.419 . S
Eu263 C327 2.848 . S
N264 C256 1.362 . S
N264 Eu263 2.657 . S
N264 C265 1.334 . S
C265 N264 1.334 . S
C265 C267 1.413 . S
C265 H272 0.929 . S
C266 C254 1.392 . S
C266 C267 1.367 . S
C266 H274 0.930 . S
C267 C265 1.413 . S
C267 C266 1.367 . S
C267 H269 0.930 . S
H268 C261 0.930 . S
H269 C267 0.930 . S
H270 C258 0.930 . S
H271 C259 0.930 . S
H272 C265 0.929 . S
H273 C287 0.930 . S
H274 C266 0.930 . S
H275 C293 0.930 . S
H276 C284 0.929 . S
H277 C291 0.930 . S
H278 C255 0.931 . S
H279 C285 0.930 . S
H280 C318 0.930 . S
H281 C262 0.930 . S
H282 C317 0.931 . S
N283 Eu252 2.657 . S
N283 C284 1.334 . S
N283 C288 1.362 . S
C284 H276 0.929 . S
C284 N283 1.334 . S
C284 C287 1.413 . S
C285 H279 0.930 . S
C285 C286 1.392 . S
C285 C287 1.367 . S
C286 C285 1.392 . S
C286 C288 1.420 . S
C286 C318 1.423 . S
C287 H273 0.930 . S
C287 C284 1.413 . S
C287 C285 1.367 . S
C288 N283 1.362 . S
C288 C286 1.420 . S
C288 C292 1.429 . S
H289 C294 0.930 . S
N290 Eu252 2.609 . S
N290 C292 1.377 . S
N290 C293 1.321 . S
C291 H277 0.930 . S
C291 C293 1.400 . S
C291 C294 1.386 . S
C292 C288 1.429 . S
C292 N290 1.377 . S
C292 C295 1.411 . S
C293 H275 0.930 . S
C293 N290 1.321 . S
C293 C291 1.400 . S
C294 H289 0.930 . S
C294 C291 1.386 . S
C294 C295 1.395 . S
C295 C292 1.411 . S
C295 C294 1.395 . S
C295 C317 1.420 . S
O296 Eu252 2.558 . S
O296 C316 1.257 . S
O297 Eu252 2.612 . S
O297 Eu263 2.380 . S
O297 C308 1.276 . S
O298 Eu263 2.432 . S
O298 C315 1.264 . S
O299 Eu252 2.339 . S
O299 C315 1.254 . S
O300 Eu252 2.563 . S
O300 C308 1.235 . S
O301 Eu252 2.419 . S
O301 C316 1.249 . S
O302 Eu263 2.558 . S
O302 C327 1.257 . S
O303 Eu252 2.380 . S
O303 Eu263 2.612 . S
O303 C319 1.276 . S
O304 Eu252 2.432 . S
O304 C326 1.264 . S
O305 Eu263 2.339 . S
O305 C326 1.254 . S
O306 Eu263 2.563 . S
O306 C319 1.235 . S
O307 Eu263 2.419 . S
O307 C327 1.249 . S
C308 O297 1.276 . S
C308 O300 1.235 . S
C309 C311 1.393 . S
C309 C313 1.395 . S
C309 C316 1.492 . S
C310 C311 1.392 . S
C310 C312 1.386 . S
C311 C309 1.393 . S
C311 C310 1.392 . S
C311 H328 0.930 . S
C312 C310 1.386 . S
C312 C314 1.395 . S
C312 H329 0.930 . S
C313 C309 1.395 . S
C313 C314 1.379 . S
C313 H330 0.930 . S
C314 C312 1.395 . S
C314 C313 1.379 . S
C314 H331 0.930 . S
C315 O298 1.264 . S
C315 O299 1.254 . S
C316 Eu252 2.848 . S
C316 O296 1.257 . S
C316 O301 1.249 . S
C316 C309 1.492 . S
C317 H282 0.931 . S
C317 C295 1.420 . S
C317 C318 1.351 . S
C318 H280 0.930 . S
C318 C286 1.423 . S
C318 C317 1.351 . S
C319 O303 1.276 . S
C319 O306 1.235 . S
C320 C321 1.393 . S
C320 C324 1.395 . S
C320 C327 1.492 . S
C321 C320 1.393 . S
C321 C322 1.392 . S
C321 H332 0.930 . S
C322 C321 1.392 . S
C322 C323 1.386 . S
C323 C322 1.386 . S
C323 C325 1.395 . S
C323 H333 0.930 . S
C324 C320 1.395 . S
C324 C325 1.379 . S
C324 H334 0.930 . S
C325 C323 1.395 . S
C325 C324 1.379 . S
C325 H335 0.930 . S
C326 O304 1.264 . S
C326 O305 1.254 . S
C327 Eu263 2.848 . S
C327 O302 1.257 . S
C327 O307 1.249 . S
C327 C320 1.492 . S
H328 C311 0.930 . S
H329 C312 0.930 . S
H330 C313 0.930 . S
H331 C314 0.930 . S
H332 C321 0.930 . S
H333 C323 0.930 . S
H334 C324 0.930 . S
H335 C325 0.930 . S
Eu336 N367 2.657 . S
Eu336 N374 2.609 . S
Eu336 O380 2.558 . S
Eu336 O381 2.612 . S
Eu336 O383 2.339 . S
Eu336 O384 2.563 . S
Eu336 O385 2.419 . S
Eu336 O387 2.380 . S
Eu336 O388 2.432 . S
Eu336 C400 2.848 . S
C337 C340 1.429 . S
C337 C341 1.411 . S
C337 N344 1.377 . S
C338 C340 1.420 . S
C338 C342 1.423 . S
C338 C350 1.392 . S
C339 C341 1.420 . S
C339 C342 1.351 . S
C339 H362 0.931 . S
C340 C337 1.429 . S
C340 C338 1.420 . S
C340 N348 1.362 . S
C341 C337 1.411 . S
C341 C339 1.420 . S
C341 C346 1.395 . S
C342 C338 1.423 . S
C342 C339 1.351 . S
C342 H354 0.930 . S
C343 C345 1.400 . S
C343 C346 1.386 . S
C343 H355 0.930 . S
N344 C337 1.377 . S
N344 C345 1.321 . S
N344 Eu347 2.609 . S
C345 C343 1.400 . S
C345 N344 1.321 . S
C345 H352 0.930 . S
C346 C341 1.395 . S
C346 C343 1.386 . S
C346 H365 0.930 . S
Eu347 N344 2.609 . S
Eu347 N348 2.657 . S
Eu347 O381 2.380 . S
Eu347 O382 2.432 . S
Eu347 O386 2.558 . S
Eu347 O387 2.612 . S
Eu347 O389 2.339 . S
Eu347 O390 2.563 . S
Eu347 O391 2.419 . S
Eu347 C411 2.848 . S
N348 C340 1.362 . S
N348 Eu347 2.657 . S
N348 C349 1.334 . S
C349 N348 1.334 . S
C349 C351 1.413 . S
C349 H356 0.929 . S
C350 C338 1.392 . S
C350 C351 1.367 . S
C350 H358 0.930 . S
C351 C349 1.413 . S
C351 C350 1.367 . S
C351 H353 0.930 . S
H352 C345 0.930 . S
H353 C351 0.930 . S
H354 C342 0.930 . S
H355 C343 0.930 . S
H356 C349 0.929 . S
H357 C371 0.930 . S
H358 C350 0.930 . S
H359 C377 0.930 . S
H360 C368 0.929 . S
H361 C375 0.930 . S
H362 C339 0.931 . S
H363 C369 0.930 . S
H364 C402 0.930 . S
H365 C346 0.930 . S
H366 C401 0.931 . S
N367 Eu336 2.657 . S
N367 C368 1.334 . S
N367 C372 1.362 . S
C368 H360 0.929 . S
C368 N367 1.334 . S
C368 C371 1.413 . S
C369 H363 0.930 . S
C369 C370 1.392 . S
C369 C371 1.367 . S
C370 C369 1.392 . S
C370 C372 1.420 . S
C370 C402 1.423 . S
C371 H357 0.930 . S
C371 C368 1.413 . S
C371 C369 1.367 . S
C372 N367 1.362 . S
C372 C370 1.420 . S
C372 C376 1.429 . S
H373 C378 0.930 . S
N374 Eu336 2.609 . S
N374 C376 1.377 . S
N374 C377 1.321 . S
C375 H361 0.930 . S
C375 C377 1.400 . S
C375 C378 1.386 . S
C376 C372 1.429 . S
C376 N374 1.377 . S
C376 C379 1.411 . S
C377 H359 0.930 . S
C377 N374 1.321 . S
C377 C375 1.400 . S
C378 H373 0.930 . S
C378 C375 1.386 . S
C378 C379 1.395 . S
C379 C376 1.411 . S
C379 C378 1.395 . S
C379 C401 1.420 . S
O380 Eu336 2.558 . S
O380 C400 1.257 . S
O381 Eu336 2.612 . S
O381 Eu347 2.380 . S
O381 C392 1.276 . S
O382 Eu347 2.432 . S
O382 C399 1.264 . S
O383 Eu336 2.339 . S
O383 C399 1.254 . S
O384 Eu336 2.563 . S
O384 C392 1.235 . S
O385 Eu336 2.419 . S
O385 C400 1.249 . S
O386 Eu347 2.558 . S
O386 C411 1.257 . S
O387 Eu336 2.380 . S
O387 Eu347 2.612 . S
O387 C403 1.276 . S
O388 Eu336 2.432 . S
O388 C410 1.264 . S
O389 Eu347 2.339 . S
O389 C410 1.254 . S
O390 Eu347 2.563 . S
O390 C403 1.235 . S
O391 Eu347 2.419 . S
O391 C411 1.249 . S
C392 O381 1.276 . S
C392 O384 1.235 . S
C393 C395 1.393 . S
C393 C397 1.395 . S
C393 C400 1.492 . S
C394 C395 1.392 . S
C394 C396 1.386 . S
C395 C393 1.393 . S
C395 C394 1.392 . S
C395 H412 0.930 . S
C396 C394 1.386 . S
C396 C398 1.395 . S
C396 H413 0.930 . S
C397 C393 1.395 . S
C397 C398 1.379 . S
C397 H414 0.930 . S
C398 C396 1.395 . S
C398 C397 1.379 . S
C398 H415 0.930 . S
C399 O382 1.264 . S
C399 O383 1.254 . S
C400 Eu336 2.848 . S
C400 O380 1.257 . S
C400 O385 1.249 . S
C400 C393 1.492 . S
C401 H366 0.931 . S
C401 C379 1.420 . S
C401 C402 1.351 . S
C402 H364 0.930 . S
C402 C370 1.423 . S
C402 C401 1.351 . S
C403 O387 1.276 . S
C403 O390 1.235 . S
C404 C405 1.393 . S
C404 C408 1.395 . S
C404 C411 1.492 . S
C405 C404 1.393 . S
C405 C406 1.392 . S
C405 H416 0.930 . S
C406 C405 1.392 . S
C406 C407 1.386 . S
C407 C406 1.386 . S
C407 C409 1.395 . S
C407 H417 0.930 . S
C408 C404 1.395 . S
C408 C409 1.379 . S
C408 H418 0.930 . S
C409 C407 1.395 . S
C409 C408 1.379 . S
C409 H419 0.930 . S
C410 O388 1.264 . S
C410 O389 1.254 . S
C411 Eu347 2.848 . S
C411 O386 1.257 . S
C411 O391 1.249 . S
C411 C404 1.492 . S
H412 C395 0.930 . S
H413 C396 0.930 . S
H414 C397 0.930 . S
H415 C398 0.930 . S
H416 C405 0.930 . S
H417 C407 0.930 . S
H418 C408 0.930 . S
H419 C409 0.930 . S
Eu420 N451 2.657 . S
Eu420 N458 2.609 . S
Eu420 O464 2.558 . S
Eu420 O465 2.612 . S
Eu420 O467 2.339 . S
Eu420 O468 2.563 . S
Eu420 O469 2.419 . S
Eu420 O471 2.380 . S
Eu420 O472 2.432 . S
Eu420 C484 2.848 . S
C421 C424 1.429 . S
C421 C425 1.411 . S
C421 N428 1.377 . S
C422 C424 1.420 . S
C422 C426 1.423 . S
C422 C434 1.392 . S
C423 C425 1.420 . S
C423 C426 1.351 . S
C423 H446 0.931 . S
C424 C421 1.429 . S
C424 C422 1.420 . S
C424 N432 1.362 . S
C425 C421 1.411 . S
C425 C423 1.420 . S
C425 C430 1.395 . S
C426 C422 1.423 . S
C426 C423 1.351 . S
C426 H438 0.930 . S
C427 C429 1.400 . S
C427 C430 1.386 . S
C427 H439 0.930 . S
N428 C421 1.377 . S
N428 C429 1.321 . S
N428 Eu431 2.609 . S
C429 C427 1.400 . S
C429 N428 1.321 . S
C429 H436 0.930 . S
C430 C425 1.395 . S
C430 C427 1.386 . S
C430 H449 0.930 . S
Eu431 N428 2.609 . S
Eu431 N432 2.657 . S
Eu431 O465 2.380 . S
Eu431 O466 2.432 . S
Eu431 O470 2.558 . S
Eu431 O471 2.612 . S
Eu431 O473 2.339 . S
Eu431 O474 2.563 . S
Eu431 O475 2.419 . S
Eu431 C495 2.848 . S
N432 C424 1.362 . S
N432 Eu431 2.657 . S
N432 C433 1.334 . S
C433 N432 1.334 . S
C433 C435 1.413 . S
C433 H440 0.929 . S
C434 C422 1.392 . S
C434 C435 1.367 . S
C434 H442 0.930 . S
C435 C433 1.413 . S
C435 C434 1.367 . S
C435 H437 0.930 . S
H436 C429 0.930 . S
H437 C435 0.930 . S
H438 C426 0.930 . S
H439 C427 0.930 . S
H440 C433 0.929 . S
H441 C455 0.930 . S
H442 C434 0.930 . S
H443 C461 0.930 . S
H444 C452 0.929 . S
H445 C459 0.930 . S
H446 C423 0.931 . S
H447 C453 0.930 . S
H448 C486 0.930 . S
H449 C430 0.930 . S
H450 C485 0.931 . S
N451 Eu420 2.657 . S
N451 C452 1.334 . S
N451 C456 1.362 . S
C452 H444 0.929 . S
C452 N451 1.334 . S
C452 C455 1.413 . S
C453 H447 0.930 . S
C453 C454 1.392 . S
C453 C455 1.367 . S
C454 C453 1.392 . S
C454 C456 1.420 . S
C454 C486 1.423 . S
C455 H441 0.930 . S
C455 C452 1.413 . S
C455 C453 1.367 . S
C456 N451 1.362 . S
C456 C454 1.420 . S
C456 C460 1.429 . S
H457 C462 0.930 . S
N458 Eu420 2.609 . S
N458 C460 1.377 . S
N458 C461 1.321 . S
C459 H445 0.930 . S
C459 C461 1.400 . S
C459 C462 1.386 . S
C460 C456 1.429 . S
C460 N458 1.377 . S
C460 C463 1.411 . S
C461 H443 0.930 . S
C461 N458 1.321 . S
C461 C459 1.400 . S
C462 H457 0.930 . S
C462 C459 1.386 . S
C462 C463 1.395 . S
C463 C460 1.411 . S
C463 C462 1.395 . S
C463 C485 1.420 . S
O464 Eu420 2.558 . S
O464 C484 1.257 . S
O465 Eu420 2.612 . S
O465 Eu431 2.380 . S
O465 C476 1.276 . S
O466 Eu431 2.432 . S
O466 C483 1.264 . S
O467 Eu420 2.339 . S
O467 C483 1.254 . S
O468 Eu420 2.563 . S
O468 C476 1.235 . S
O469 Eu420 2.419 . S
O469 C484 1.249 . S
O470 Eu431 2.558 . S
O470 C495 1.257 . S
O471 Eu420 2.380 . S
O471 Eu431 2.612 . S
O471 C487 1.276 . S
O472 Eu420 2.432 . S
O472 C494 1.264 . S
O473 Eu431 2.339 . S
O473 C494 1.254 . S
O474 Eu431 2.563 . S
O474 C487 1.235 . S
O475 Eu431 2.419 . S
O475 C495 1.249 . S
C476 O465 1.276 . S
C476 O468 1.235 . S
C477 C479 1.393 . S
C477 C481 1.395 . S
C477 C484 1.492 . S
C478 C479 1.392 . S
C478 C480 1.386 . S
C479 C477 1.393 . S
C479 C478 1.392 . S
C479 H496 0.930 . S
C480 C478 1.386 . S
C480 C482 1.395 . S
C480 H497 0.930 . S
C481 C477 1.395 . S
C481 C482 1.379 . S
C481 H498 0.930 . S
C482 C480 1.395 . S
C482 C481 1.379 . S
C482 H499 0.930 . S
C483 O466 1.264 . S
C483 O467 1.254 . S
C484 Eu420 2.848 . S
C484 O464 1.257 . S
C484 O469 1.249 . S
C484 C477 1.492 . S
C485 H450 0.931 . S
C485 C463 1.420 . S
C485 C486 1.351 . S
C486 H448 0.930 . S
C486 C454 1.423 . S
C486 C485 1.351 . S
C487 O471 1.276 . S
C487 O474 1.235 . S
C488 C489 1.393 . S
C488 C492 1.395 . S
C488 C495 1.492 . S
C489 C488 1.393 . S
C489 C490 1.392 . S
C489 H500 0.930 . S
C490 C489 1.392 . S
C490 C491 1.386 . S
C491 C490 1.386 . S
C491 C493 1.395 . S
C491 H501 0.930 . S
C492 C488 1.395 . S
C492 C493 1.379 . S
C492 H502 0.930 . S
C493 C491 1.395 . S
C493 C492 1.379 . S
C493 H503 0.930 . S
C494 O472 1.264 . S
C494 O473 1.254 . S
C495 Eu431 2.848 . S
C495 O470 1.257 . S
C495 O475 1.249 . S
C495 C488 1.492 . S
H496 C479 0.930 . S
H497 C480 0.930 . S
H498 C481 0.930 . S
H499 C482 0.930 . S
H500 C489 0.930 . S
H501 C491 0.930 . S
H502 C492 0.930 . S
H503 C493 0.930 . S
Eu504 N535 2.657 . S
Eu504 N542 2.609 . S
Eu504 O548 2.558 . S
Eu504 O549 2.612 . S
Eu504 O551 2.339 . S
Eu504 O552 2.563 . S
Eu504 O553 2.419 . S
Eu504 O555 2.380 . S
Eu504 O556 2.432 . S
Eu504 C568 2.848 . S
C505 C508 1.429 . S
C505 C509 1.411 . S
C505 N512 1.377 . S
C506 C508 1.420 . S
C506 C510 1.423 . S
C506 C518 1.392 . S
C507 C509 1.420 . S
C507 C510 1.351 . S
C507 H530 0.931 . S
C508 C505 1.429 . S
C508 C506 1.420 . S
C508 N516 1.362 . S
C509 C505 1.411 . S
C509 C507 1.420 . S
C509 C514 1.395 . S
C510 C506 1.423 . S
C510 C507 1.351 . S
C510 H522 0.930 . S
C511 C513 1.400 . S
C511 C514 1.386 . S
C511 H523 0.930 . S
N512 C505 1.377 . S
N512 C513 1.321 . S
N512 Eu515 2.609 . S
C513 C511 1.400 . S
C513 N512 1.321 . S
C513 H520 0.930 . S
C514 C509 1.395 . S
C514 C511 1.386 . S
C514 H533 0.930 . S
Eu515 N512 2.609 . S
Eu515 N516 2.657 . S
Eu515 O549 2.380 . S
Eu515 O550 2.432 . S
Eu515 O554 2.558 . S
Eu515 O555 2.612 . S
Eu515 O557 2.339 . S
Eu515 O558 2.563 . S
Eu515 O559 2.419 . S
Eu515 C579 2.848 . S
N516 C508 1.362 . S
N516 Eu515 2.657 . S
N516 C517 1.334 . S
C517 N516 1.334 . S
C517 C519 1.413 . S
C517 H524 0.929 . S
C518 C506 1.392 . S
C518 C519 1.367 . S
C518 H526 0.930 . S
C519 C517 1.413 . S
C519 C518 1.367 . S
C519 H521 0.930 . S
H520 C513 0.930 . S
H521 C519 0.930 . S
H522 C510 0.930 . S
H523 C511 0.930 . S
H524 C517 0.929 . S
H525 C539 0.930 . S
H526 C518 0.930 . S
H527 C545 0.930 . S
H528 C536 0.929 . S
H529 C543 0.930 . S
H530 C507 0.931 . S
H531 C537 0.930 . S
H532 C570 0.930 . S
H533 C514 0.930 . S
H534 C569 0.931 . S
N535 Eu504 2.657 . S
N535 C536 1.334 . S
N535 C540 1.362 . S
C536 H528 0.929 . S
C536 N535 1.334 . S
C536 C539 1.413 . S
C537 H531 0.930 . S
C537 C538 1.392 . S
C537 C539 1.367 . S
C538 C537 1.392 . S
C538 C540 1.420 . S
C538 C570 1.423 . S
C539 H525 0.930 . S
C539 C536 1.413 . S
C539 C537 1.367 . S
C540 N535 1.362 . S
C540 C538 1.420 . S
C540 C544 1.429 . S
H541 C546 0.930 . S
N542 Eu504 2.609 . S
N542 C544 1.377 . S
N542 C545 1.321 . S
C543 H529 0.930 . S
C543 C545 1.400 . S
C543 C546 1.386 . S
C544 C540 1.429 . S
C544 N542 1.377 . S
C544 C547 1.411 . S
C545 H527 0.930 . S
C545 N542 1.321 . S
C545 C543 1.400 . S
C546 H541 0.930 . S
C546 C543 1.386 . S
C546 C547 1.395 . S
C547 C544 1.411 . S
C547 C546 1.395 . S
C547 C569 1.420 . S
O548 Eu504 2.558 . S
O548 C568 1.257 . S
O549 Eu504 2.612 . S
O549 Eu515 2.380 . S
O549 C560 1.276 . S
O550 Eu515 2.432 . S
O550 C567 1.264 . S
O551 Eu504 2.339 . S
O551 C567 1.254 . S
O552 Eu504 2.563 . S
O552 C560 1.235 . S
O553 Eu504 2.419 . S
O553 C568 1.249 . S
O554 Eu515 2.558 . S
O554 C579 1.257 . S
O555 Eu504 2.380 . S
O555 Eu515 2.612 . S
O555 C571 1.276 . S
O556 Eu504 2.432 . S
O556 C578 1.264 . S
O557 Eu515 2.339 . S
O557 C578 1.254 . S
O558 Eu515 2.563 . S
O558 C571 1.235 . S
O559 Eu515 2.419 . S
O559 C579 1.249 . S
C560 O549 1.276 . S
C560 O552 1.235 . S
C561 C563 1.393 . S
C561 C565 1.395 . S
C561 C568 1.492 . S
C562 C563 1.392 . S
C562 C564 1.386 . S
C563 C561 1.393 . S
C563 C562 1.392 . S
C563 H580 0.930 . S
C564 C562 1.386 . S
C564 C566 1.395 . S
C564 H581 0.930 . S
C565 C561 1.395 . S
C565 C566 1.379 . S
C565 H582 0.930 . S
C566 C564 1.395 . S
C566 C565 1.379 . S
C566 H583 0.930 . S
C567 O550 1.264 . S
C567 O551 1.254 . S
C568 Eu504 2.848 . S
C568 O548 1.257 . S
C568 O553 1.249 . S
C568 C561 1.492 . S
C569 H534 0.931 . S
C569 C547 1.420 . S
C569 C570 1.351 . S
C570 H532 0.930 . S
C570 C538 1.423 . S
C570 C569 1.351 . S
C571 O555 1.276 . S
C571 O558 1.235 . S
C572 C573 1.393 . S
C572 C576 1.395 . S
C572 C579 1.492 . S
C573 C572 1.393 . S
C573 C574 1.392 . S
C573 H584 0.930 . S
C574 C573 1.392 . S
C574 C575 1.386 . S
C575 C574 1.386 . S
C575 C577 1.395 . S
C575 H585 0.930 . S
C576 C572 1.395 . S
C576 C577 1.379 . S
C576 H586 0.930 . S
C577 C575 1.395 . S
C577 C576 1.379 . S
C577 H587 0.930 . S
C578 O556 1.264 . S
C578 O557 1.254 . S
C579 Eu515 2.848 . S
C579 O554 1.257 . S
C579 O559 1.249 . S
C579 C572 1.492 . S
H580 C563 0.930 . S
H581 C564 0.930 . S
H582 C565 0.930 . S
H583 C566 0.930 . S
H584 C573 0.930 . S
H585 C575 0.930 . S
H586 C576 0.930 . S
H587 C577 0.930 . S
Eu588 N619 2.657 . S
Eu588 N626 2.609 . S
Eu588 O632 2.558 . S
Eu588 O633 2.612 . S
Eu588 O635 2.339 . S
Eu588 O636 2.563 . S
Eu588 O637 2.419 . S
Eu588 O639 2.380 . S
Eu588 O640 2.432 . S
Eu588 C652 2.848 . S
C589 C592 1.429 . S
C589 C593 1.411 . S
C589 N596 1.377 . S
C590 C592 1.420 . S
C590 C594 1.423 . S
C590 C602 1.392 . S
C591 C593 1.420 . S
C591 C594 1.351 . S
C591 H614 0.931 . S
C592 C589 1.429 . S
C592 C590 1.420 . S
C592 N600 1.362 . S
C593 C589 1.411 . S
C593 C591 1.420 . S
C593 C598 1.395 . S
C594 C590 1.423 . S
C594 C591 1.351 . S
C594 H606 0.930 . S
C595 C597 1.400 . S
C595 C598 1.386 . S
C595 H607 0.930 . S
N596 C589 1.377 . S
N596 C597 1.321 . S
N596 Eu599 2.609 . S
C597 C595 1.400 . S
C597 N596 1.321 . S
C597 H604 0.930 . S
C598 C593 1.395 . S
C598 C595 1.386 . S
C598 H617 0.930 . S
Eu599 N596 2.609 . S
Eu599 N600 2.657 . S
Eu599 O633 2.380 . S
Eu599 O634 2.432 . S
Eu599 O638 2.558 . S
Eu599 O639 2.612 . S
Eu599 O641 2.339 . S
Eu599 O642 2.563 . S
Eu599 O643 2.419 . S
Eu599 C663 2.848 . S
N600 C592 1.362 . S
N600 Eu599 2.657 . S
N600 C601 1.334 . S
C601 N600 1.334 . S
C601 C603 1.413 . S
C601 H608 0.929 . S
C602 C590 1.392 . S
C602 C603 1.367 . S
C602 H610 0.930 . S
C603 C601 1.413 . S
C603 C602 1.367 . S
C603 H605 0.930 . S
H604 C597 0.930 . S
H605 C603 0.930 . S
H606 C594 0.930 . S
H607 C595 0.930 . S
H608 C601 0.929 . S
H609 C623 0.930 . S
H610 C602 0.930 . S
H611 C629 0.930 . S
H612 C620 0.929 . S
H613 C627 0.930 . S
H614 C591 0.931 . S
H615 C621 0.930 . S
H616 C654 0.930 . S
H617 C598 0.930 . S
H618 C653 0.931 . S
N619 Eu588 2.657 . S
N619 C620 1.334 . S
N619 C624 1.362 . S
C620 H612 0.929 . S
C620 N619 1.334 . S
C620 C623 1.413 . S
C621 H615 0.930 . S
C621 C622 1.392 . S
C621 C623 1.367 . S
C622 C621 1.392 . S
C622 C624 1.420 . S
C622 C654 1.423 . S
C623 H609 0.930 . S
C623 C620 1.413 . S
C623 C621 1.367 . S
C624 N619 1.362 . S
C624 C622 1.420 . S
C624 C628 1.429 . S
H625 C630 0.930 . S
N626 Eu588 2.609 . S
N626 C628 1.377 . S
N626 C629 1.321 . S
C627 H613 0.930 . S
C627 C629 1.400 . S
C627 C630 1.386 . S
C628 C624 1.429 . S
C628 N626 1.377 . S
C628 C631 1.411 . S
C629 H611 0.930 . S
C629 N626 1.321 . S
C629 C627 1.400 . S
C630 H625 0.930 . S
C630 C627 1.386 . S
C630 C631 1.395 . S
C631 C628 1.411 . S
C631 C630 1.395 . S
C631 C653 1.420 . S
O632 Eu588 2.558 . S
O632 C652 1.257 . S
O633 Eu588 2.612 . S
O633 Eu599 2.380 . S
O633 C644 1.276 . S
O634 Eu599 2.432 . S
O634 C651 1.264 . S
O635 Eu588 2.339 . S
O635 C651 1.254 . S
O636 Eu588 2.563 . S
O636 C644 1.235 . S
O637 Eu588 2.419 . S
O637 C652 1.249 . S
O638 Eu599 2.558 . S
O638 C663 1.257 . S
O639 Eu588 2.380 . S
O639 Eu599 2.612 . S
O639 C655 1.276 . S
O640 Eu588 2.432 . S
O640 C662 1.264 . S
O641 Eu599 2.339 . S
O641 C662 1.254 . S
O642 Eu599 2.563 . S
O642 C655 1.235 . S
O643 Eu599 2.419 . S
O643 C663 1.249 . S
C644 O633 1.276 . S
C644 O636 1.235 . S
C645 C647 1.393 . S
C645 C649 1.395 . S
C645 C652 1.492 . S
C646 C647 1.392 . S
C646 C648 1.386 . S
C647 C645 1.393 . S
C647 C646 1.392 . S
C647 H664 0.930 . S
C648 C646 1.386 . S
C648 C650 1.395 . S
C648 H665 0.930 . S
C649 C645 1.395 . S
C649 C650 1.379 . S
C649 H666 0.930 . S
C650 C648 1.395 . S
C650 C649 1.379 . S
C650 H667 0.930 . S
C651 O634 1.264 . S
C651 O635 1.254 . S
C652 Eu588 2.848 . S
C652 O632 1.257 . S
C652 O637 1.249 . S
C652 C645 1.492 . S
C653 H618 0.931 . S
C653 C631 1.420 . S
C653 C654 1.351 . S
C654 H616 0.930 . S
C654 C622 1.423 . S
C654 C653 1.351 . S
C655 O639 1.276 . S
C655 O642 1.235 . S
C656 C657 1.393 . S
C656 C660 1.395 . S
C656 C663 1.492 . S
C657 C656 1.393 . S
C657 C658 1.392 . S
C657 H668 0.930 . S
C658 C657 1.392 . S
C658 C659 1.386 . S
C659 C658 1.386 . S
C659 C661 1.395 . S
C659 H669 0.930 . S
C660 C656 1.395 . S
C660 C661 1.379 . S
C660 H670 0.930 . S
C661 C659 1.395 . S
C661 C660 1.379 . S
C661 H671 0.930 . S
C662 O640 1.264 . S
C662 O641 1.254 . S
C663 Eu599 2.848 . S
C663 O638 1.257 . S
C663 O643 1.249 . S
C663 C656 1.492 . S
H664 C647 0.930 . S
H665 C648 0.930 . S
H666 C649 0.930 . S
H667 C650 0.930 . S
H668 C657 0.930 . S
H669 C659 0.930 . S
H670 C660 0.930 . S
H671 C661 0.930 . S
Cd672 N675 2.334 1_655 S
Cd672 N701 2.304 1_565 S
Cd672 O708 2.268 . S
Cd672 O711 2.273 1_665 S
Cd672 O712 2.417 . S
Cd672 O713 2.330 . S
Cd673 N688 2.304 1_455 S
Cd673 N692 2.334 1_545 S
Cd673 O709 2.273 1_445 S
Cd673 O710 2.268 . S
Cd673 O714 2.417 . S
Cd673 O715 2.330 . S
C674 N675 1.332 . S
C674 C678 1.381 . S
C674 H680 0.931 . S
N675 Cd672 2.334 1_455 S
N675 C674 1.332 . S
N675 C679 1.328 . S
C676 C677 1.396 . S
C676 C679 1.378 . S
C676 H718 0.931 . S
C677 C676 1.396 . S
C677 C678 1.382 . S
C678 C674 1.381 . S
C678 C677 1.382 . S
C678 H719 0.930 . S
C679 N675 1.328 . S
C679 C676 1.378 . S
C679 H681 0.930 1_455 S
H680 C674 0.931 . S
H681 C679 0.930 1_655 S
C682 O708 1.238 . S
C682 O709 1.253 . S
C683 C684 1.379 . S
C683 N688 1.337 . S
C683 H689 0.929 . S
C684 C683 1.379 . S
C684 C685 1.380 . S
C684 H720 0.929 . S
C685 C684 1.380 . S
C685 C686 1.399 . S
C686 C685 1.399 . S
C686 C687 1.376 . S
C686 H721 0.931 . S
C687 C686 1.376 . S
C687 N688 1.338 . S
C687 H690 0.930 1_655 S
N688 Cd673 2.304 1_655 S
N688 C683 1.337 . S
N688 C687 1.338 . S
H689 C683 0.929 . S
H690 C687 0.930 1_455 S
C691 N692 1.332 . S
C691 C695 1.381 . S
C691 H697 0.931 . S
N692 Cd673 2.334 1_565 S
N692 C691 1.332 . S
N692 C696 1.328 . S
C693 C694 1.396 . S
C693 C696 1.378 . S
C693 H722 0.931 . S
C694 C693 1.396 . S
C694 C695 1.382 . S
C695 C691 1.381 . S
C695 C694 1.382 . S
C695 H723 0.930 . S
C696 N692 1.328 . S
C696 C693 1.378 . S
C696 H698 0.930 1_565 S
H697 C691 0.931 . S
H698 C696 0.930 1_545 S
C699 O710 1.238 . S
C699 O711 1.253 . S
C700 O712 1.239 . S
C700 O713 1.230 . S
N701 Cd672 2.304 1_545 S
N701 C702 1.337 . S
N701 C706 1.338 . S
C702 N701 1.337 . S
C702 C703 1.379 . S
C702 H716 0.929 . S
C703 C702 1.379 . S
C703 C704 1.380 . S
C703 H724 0.929 . S
C704 C703 1.380 . S
C704 C705 1.399 . S
C705 C704 1.399 . S
C705 C706 1.376 . S
C705 H725 0.931 . S
C706 N701 1.338 . S
C706 C705 1.376 . S
C706 H717 0.930 1_545 S
C707 O714 1.239 . S
C707 O715 1.230 . S
O708 Cd672 2.268 . S
O708 C682 1.238 . S
O709 Cd673 2.273 1_665 S
O709 C682 1.253 . S
O710 Cd673 2.268 . S
O710 C699 1.238 . S
O711 Cd672 2.273 1_445 S
O711 C699 1.253 . S
O712 Cd672 2.417 . S
O712 C700 1.239 . S
O713 Cd672 2.330 . S
O713 C700 1.230 . S
O714 Cd673 2.417 . S
O714 C707 1.239 . S
O715 Cd673 2.330 . S
O715 C707 1.230 . S
H716 C702 0.929 . S
H717 C706 0.930 1_565 S
H718 C676 0.931 . S
H719 C678 0.930 . S
H720 C684 0.929 . S
H721 C686 0.931 . S
H722 C693 0.931 . S
H723 C695 0.930 . S
H724 C703 0.929 . S
H725 C705 0.931 . S
Cd726 N729 2.334 . S
Cd726 N755 2.304 1_565 S
Cd726 O762 2.268 1_554 S
Cd726 O765 2.273 1_565 S
Cd726 O766 2.417 . S
Cd726 O767 2.330 . S
Cd727 N742 2.304 . S
Cd727 N746 2.334 1_545 S
Cd727 O763 2.273 1_545 S
Cd727 O764 2.268 1_556 S
Cd727 O768 2.417 . S
Cd727 O769 2.330 . S
C728 N729 1.332 . S
C728 C732 1.381 . S
C728 H734 0.931 . S
N729 Cd726 2.334 . S
N729 C728 1.332 . S
N729 C733 1.328 . S
C730 C731 1.396 . S
C730 C733 1.378 . S
C730 H772 0.931 . S
C731 C730 1.396 . S
C731 C732 1.382 . S
C732 C728 1.381 . S
C732 C731 1.382 . S
C732 H773 0.930 . S
C733 N729 1.328 . S
C733 C730 1.378 . S
C733 H735 0.929 . S
H734 C728 0.931 . S
H735 C733 0.929 . S
C736 O762 1.238 . S
C736 O763 1.253 . S
C737 C738 1.379 . S
C737 N742 1.337 . S
C737 H743 0.929 . S
C738 C737 1.379 . S
C738 C739 1.380 . S
C738 H774 0.929 . S
C739 C738 1.380 . S
C739 C740 1.399 . S
C740 C739 1.399 . S
C740 C741 1.376 . S
C740 H775 0.949 . S
C741 C740 1.376 . S
C741 N742 1.338 . S
C741 H744 0.930 1_556 S
N742 Cd727 2.304 . S
N742 C737 1.337 . S
N742 C741 1.338 . S
H743 C737 0.929 . S
H744 C741 0.930 1_554 S
C745 N746 1.332 . S
C745 C749 1.381 . S
C745 H751 0.931 . S
N746 Cd727 2.334 1_565 S
N746 C745 1.332 . S
N746 C750 1.321 . S
C747 C748 1.396 . S
C747 C750 1.411 . S
C747 H776 0.931 1_556 S
C748 C747 1.396 . S
C748 C749 1.382 . S
C749 C745 1.381 . S
C749 C748 1.382 . S
C749 H777 0.930 . S
C750 N746 1.321 . S
C750 C747 1.411 . S
C750 H752 0.903 1_566 S
H751 C745 0.931 . S
H752 C750 0.903 1_544 S
C753 O764 1.238 . S
C753 O765 1.253 . S
C754 O766 1.239 . S
C754 O767 1.230 . S
N755 Cd726 2.304 1_545 S
N755 C756 1.337 . S
N755 C760 1.338 . S
C756 N755 1.337 . S
C756 C757 1.379 . S
C756 H770 0.929 . S
C757 C756 1.379 . S
C757 C758 1.380 . S
C757 H778 0.929 . S
C758 C757 1.380 . S
C758 C759 1.399 . S
C759 C758 1.399 . S
C759 C760 1.376 . S
C759 H779 0.931 1_554 S
C760 N755 1.338 . S
C760 C759 1.376 . S
C760 H771 0.930 1_544 S
C761 O768 1.239 . S
C761 O769 1.230 . S
O762 Cd726 2.268 1_556 S
O762 C736 1.238 . S
O763 Cd727 2.273 1_565 S
O763 C736 1.253 . S
O764 Cd727 2.268 1_554 S
O764 C753 1.238 . S
O765 Cd726 2.273 1_545 S
O765 C753 1.253 . S
O766 Cd726 2.417 . S
O766 C754 1.239 . S
O767 Cd726 2.330 . S
O767 C754 1.230 . S
O768 Cd727 2.417 . S
O768 C761 1.239 . S
O769 Cd727 2.330 . S
O769 C761 1.230 . S
H770 C756 0.929 . S
H771 C760 0.930 1_566 S
H772 C730 0.931 . S
H773 C732 0.930 . S
H774 C738 0.929 . S
H775 C740 0.949 . S
H776 C747 0.931 1_554 S
H777 C749 0.930 . S
H778 C757 0.929 . S
H779 C759 0.931 1_556 S
Cd780 N783 2.334 1_655 S
Cd780 N809 2.304 . S
Cd780 O816 2.268 1_554 S
Cd780 O819 2.273 1_655 S
Cd780 O820 2.417 . S
Cd780 O821 2.330 . S
Cd781 N796 2.304 1_455 S
Cd781 N800 2.334 . S
Cd781 O817 2.273 1_455 S
Cd781 O818 2.268 1_556 S
Cd781 O822 2.417 . S
Cd781 O823 2.330 . S
C782 N783 1.332 . S
C782 C786 1.381 . S
C782 H788 0.931 . S
N783 Cd780 2.334 1_455 S
N783 C782 1.332 . S
N783 C787 1.328 . S
C784 C785 1.396 . S
C784 C787 1.378 . S
C784 H826 0.931 . S
C785 C784 1.396 . S
C785 C786 1.382 . S
C786 C782 1.381 . S
C786 C785 1.382 . S
C786 H827 0.930 . S
C787 N783 1.328 . S
C787 C784 1.378 . S
C787 H789 0.929 1_455 S
H788 C782 0.931 . S
H789 C787 0.929 1_655 S
C790 O816 1.238 . S
C790 O817 1.253 . S
C791 C792 1.379 . S
C791 N796 1.337 . S
C791 H797 0.929 . S
C792 C791 1.379 . S
C792 C793 1.380 . S
C792 H828 0.929 . S
C793 C792 1.380 . S
C793 C794 1.399 . S
C794 C793 1.399 . S
C794 C795 1.376 . S
C794 H829 0.950 . S
C795 C794 1.376 . S
C795 N796 1.338 . S
C795 H798 0.930 1_656 S
N796 Cd781 2.304 1_655 S
N796 C791 1.337 . S
N796 C795 1.338 . S
H797 C791 0.929 . S
H798 C795 0.930 1_454 S
C799 N800 1.332 . S
C799 C803 1.381 . S
C799 H805 0.931 . S
N800 Cd781 2.334 . S
N800 C799 1.332 . S
N800 C804 1.328 . S
C801 C802 1.396 . S
C801 C804 1.378 . S
C801 H830 0.931 1_556 S
C802 C801 1.396 . S
C802 C803 1.382 . S
C803 C799 1.381 . S
C803 C802 1.382 . S
C803 H831 0.930 . S
C804 N800 1.328 . S
C804 C801 1.378 . S
C804 H806 0.930 1_556 S
H805 C799 0.931 . S
H806 C804 0.930 1_554 S
C807 O818 1.238 . S
C807 O819 1.253 . S
C808 O820 1.239 . S
C808 O821 1.230 . S
N809 Cd780 2.304 . S
N809 C810 1.337 . S
N809 C814 1.338 . S
C810 N809 1.337 . S
C810 C811 1.379 . S
C810 H824 0.929 . S
C811 C810 1.379 . S
C811 C812 1.380 . S
C811 H832 0.929 . S
C812 C811 1.380 . S
C812 C813 1.399 . S
C813 C812 1.399 . S
C813 C814 1.376 . S
C813 H833 0.931 1_554 S
C814 N809 1.338 . S
C814 C813 1.376 . S
C814 H825 0.930 1_554 S
C815 O822 1.239 . S
C815 O823 1.230 . S
O816 Cd780 2.268 1_556 S
O816 C790 1.238 . S
O817 Cd781 2.273 1_655 S
O817 C790 1.253 . S
O818 Cd781 2.268 1_554 S
O818 C807 1.238 . S
O819 Cd780 2.273 1_455 S
O819 C807 1.253 . S
O820 Cd780 2.417 . S
O820 C808 1.239 . S
O821 Cd780 2.330 . S
O821 C808 1.230 . S
O822 Cd781 2.417 . S
O822 C815 1.239 . S
O823 Cd781 2.330 . S
O823 C815 1.230 . S
H824 C810 0.929 . S
H825 C814 0.930 1_556 S
H826 C784 0.931 . S
H827 C786 0.930 . S
H828 C792 0.929 . S
H829 C794 0.950 . S
H830 C801 0.931 1_554 S
H831 C803 0.930 . S
H832 C811 0.929 . S
H833 C813 0.931 1_556 S
Cd834 N837 2.334 . S
Cd834 N863 2.304 . S
Cd834 O870 2.268 1_554 S
Cd834 O873 2.273 . S
Cd834 O874 2.417 . S
Cd834 O875 2.330 . S
Cd835 N850 2.304 . S
Cd835 N854 2.334 . S
Cd835 O871 2.273 . S
Cd835 O872 2.268 1_556 S
Cd835 O876 2.417 . S
Cd835 O877 2.330 . S
C836 N837 1.332 . S
C836 C840 1.381 . S
C836 H842 0.931 . S
N837 Cd834 2.334 . S
N837 C836 1.332 . S
N837 C841 1.328 . S
C838 C839 1.396 . S
C838 C841 1.378 . S
C838 H880 0.931 . S
C839 C838 1.396 . S
C839 C840 1.382 . S
C840 C836 1.381 . S
C840 C839 1.382 . S
C840 H881 0.930 . S
C841 N837 1.328 . S
C841 C838 1.378 . S
C841 H843 0.928 . S
H842 C836 0.931 . S
H843 C841 0.928 . S
C844 O870 1.238 . S
C844 O871 1.253 . S
C845 C846 1.379 . S
C845 N850 1.337 . S
C845 H851 0.929 . S
C846 C845 1.379 . S
C846 C847 1.380 . S
C846 H882 0.929 . S
C847 C846 1.380 . S
C847 C848 1.399 . S
C848 C847 1.399 . S
C848 C849 1.376 . S
C848 H883 0.951 . S
C849 C848 1.376 . S
C849 N850 1.338 . S
C849 H852 0.930 1_556 S
N850 Cd835 2.304 . S
N850 C845 1.337 . S
N850 C849 1.338 . S
H851 C845 0.929 . S
H852 C849 0.930 1_554 S
C853 N854 1.332 . S
C853 C857 1.381 . S
C853 H859 0.931 . S
N854 Cd835 2.334 . S
N854 C853 1.332 . S
N854 C858 1.328 . S
C855 C856 1.396 . S
C855 C858 1.378 . S
C855 H884 0.931 1_556 S
C856 C855 1.396 . S
C856 C857 1.382 . S
C857 C853 1.381 . S
C857 C856 1.382 . S
C857 H885 0.930 . S
C858 N854 1.328 . S
C858 C855 1.378 . S
C858 H860 0.930 1_556 S
H859 C853 0.931 . S
H860 C858 0.930 1_554 S
C861 O872 1.238 . S
C861 O873 1.253 . S
C862 O874 1.239 . S
C862 O875 1.230 . S
N863 Cd834 2.304 . S
N863 C864 1.337 . S
N863 C868 1.338 . S
C864 N863 1.337 . S
C864 C865 1.379 . S
C864 H878 0.929 . S
C865 C864 1.379 . S
C865 C866 1.380 . S
C865 H886 0.929 . S
C866 C865 1.380 . S
C866 C867 1.399 . S
C867 C866 1.399 . S
C867 C868 1.376 . S
C867 H887 0.931 1_554 S
C868 N863 1.338 . S
C868 C867 1.376 . S
C868 H879 0.930 1_554 S
C869 O876 1.239 . S
C869 O877 1.230 . S
O870 Cd834 2.268 1_556 S
O870 C844 1.238 . S
O871 Cd835 2.273 . S
O871 C844 1.253 . S
O872 Cd835 2.268 1_554 S
O872 C861 1.238 . S
O873 Cd834 2.273 . S
O873 C861 1.253 . S
O874 Cd834 2.417 . S
O874 C862 1.239 . S
O875 Cd834 2.330 . S
O875 C862 1.230 . S
O876 Cd835 2.417 . S
O876 C869 1.239 . S
O877 Cd835 2.330 . S
O877 C869 1.230 . S
H878 C864 0.929 . S
H879 C868 0.930 1_556 S
H880 C838 0.931 . S
H881 C840 0.930 . S
H882 C846 0.929 . S
H883 C848 0.951 . S
H884 C855 0.931 1_554 S
H885 C857 0.930 . S
H886 C865 0.929 . S
H887 C867 0.931 1_556 S
Cd888 N891 2.334 1_655 S
Cd888 N917 2.304 . S
Cd888 O924 2.268 . S
Cd888 O927 2.273 1_655 S
Cd888 O928 2.417 . S
Cd888 O929 2.330 . S
Cd889 N904 2.304 1_455 S
Cd889 N908 2.334 . S
Cd889 O925 2.273 1_455 S
Cd889 O926 2.268 . S
Cd889 O930 2.417 . S
Cd889 O931 2.330 . S
C890 N891 1.332 . S
C890 C894 1.381 . S
C890 H896 0.931 . S
N891 Cd888 2.334 1_455 S
N891 C890 1.332 . S
N891 C895 1.328 . S
C892 C893 1.396 . S
C892 C895 1.378 . S
C892 H934 0.931 . S
C893 C892 1.396 . S
C893 C894 1.382 . S
C894 C890 1.381 . S
C894 C893 1.382 . S
C894 H935 0.930 . S
C895 N891 1.328 . S
C895 C892 1.378 . S
C895 H897 0.930 1_455 S
H896 C890 0.931 . S
H897 C895 0.930 1_655 S
C898 O924 1.238 . S
C898 O925 1.253 . S
C899 C900 1.379 . S
C899 N904 1.337 . S
C899 H905 0.929 . S
C900 C899 1.379 . S
C900 C901 1.380 . S
C900 H936 0.929 . S
C901 C900 1.380 . S
C901 C902 1.399 . S
C902 C901 1.399 . S
C902 C903 1.376 . S
C902 H937 0.931 . S
C903 C902 1.376 . S
C903 N904 1.338 . S
C903 H906 0.930 1_655 S
N904 Cd889 2.304 1_655 S
N904 C899 1.337 . S
N904 C903 1.338 . S
H905 C899 0.929 . S
H906 C903 0.930 1_455 S
C907 N908 1.332 . S
C907 C911 1.381 . S
C907 H913 0.931 . S
N908 Cd889 2.334 . S
N908 C907 1.332 . S
N908 C912 1.328 . S
C909 C910 1.396 . S
C909 C912 1.378 . S
C909 H938 0.931 . S
C910 C909 1.396 . S
C910 C911 1.382 . S
C911 C907 1.381 . S
C911 C910 1.382 . S
C911 H939 0.930 . S
C912 N908 1.328 . S
C912 C909 1.378 . S
C912 H914 0.930 . S
H913 C907 0.931 . S
H914 C912 0.930 . S
C915 O926 1.238 . S
C915 O927 1.253 . S
C916 O928 1.239 . S
C916 O929 1.230 . S
N917 Cd888 2.304 . S
N917 C918 1.337 . S
N917 C922 1.338 . S
C918 N917 1.337 . S
C918 C919 1.379 . S
C918 H932 0.929 . S
C919 C918 1.379 . S
C919 C920 1.380 . S
C919 H940 0.929 . S
C920 C919 1.380 . S
C920 C921 1.399 . S
C921 C920 1.399 . S
C921 C922 1.376 . S
C921 H941 0.931 . S
C922 N917 1.338 . S
C922 C921 1.376 . S
C922 H933 0.930 . S
C923 O930 1.239 . S
C923 O931 1.230 . S
O924 Cd888 2.268 . S
O924 C898 1.238 . S
O925 Cd889 2.273 1_655 S
O925 C898 1.253 . S
O926 Cd889 2.268 . S
O926 C915 1.238 . S
O927 Cd888 2.273 1_455 S
O927 C915 1.253 . S
O928 Cd888 2.417 . S
O928 C916 1.239 . S
O929 Cd888 2.330 . S
O929 C916 1.230 . S
O930 Cd889 2.417 . S
O930 C923 1.239 . S
O931 Cd889 2.330 . S
O931 C923 1.230 . S
H932 C918 0.929 . S
H933 C922 0.930 . S
H934 C892 0.931 . S
H935 C894 0.930 . S
H936 C900 0.929 . S
H937 C902 0.931 . S
H938 C909 0.931 . S
H939 C911 0.930 . S
H940 C919 0.929 . S
H941 C921 0.931 . S
Cd942 N945 2.334 . S
Cd942 N971 2.304 1_565 S
Cd942 O978 2.268 . S
Cd942 O981 2.273 1_565 S
Cd942 O982 2.417 . S
Cd942 O983 2.330 . S
Cd943 N958 2.304 . S
Cd943 N962 2.334 1_545 S
Cd943 O979 2.273 1_545 S
Cd943 O980 2.268 . S
Cd943 O984 2.417 . S
Cd943 O985 2.330 . S
C944 N945 1.332 . S
C944 C948 1.381 . S
C944 H950 0.931 . S
N945 Cd942 2.334 . S
N945 C944 1.332 . S
N945 C949 1.328 . S
C946 C947 1.396 . S
C946 C949 1.378 . S
C946 H988 0.931 . S
C947 C946 1.396 . S
C947 C948 1.382 . S
C948 C944 1.381 . S
C948 C947 1.382 . S
C948 H989 0.930 . S
C949 N945 1.328 . S
C949 C946 1.378 . S
C949 H951 0.930 . S
H950 C944 0.931 . S
H951 C949 0.930 . S
C952 O978 1.238 . S
C952 O979 1.253 . S
C953 C954 1.379 . S
C953 N958 1.337 . S
C953 H959 0.929 . S
C954 C953 1.379 . S
C954 C955 1.380 . S
C954 H990 0.929 . S
C955 C954 1.380 . S
C955 C956 1.399 . S
C956 C955 1.399 . S
C956 C957 1.376 . S
C956 H991 0.931 . S
C957 C956 1.376 . S
C957 N958 1.338 . S
C957 H960 0.930 . S
N958 Cd943 2.304 . S
N958 C953 1.337 . S
N958 C957 1.338 . S
H959 C953 0.929 . S
H960 C957 0.930 . S
C961 N962 1.332 . S
C961 C965 1.381 . S
C961 H967 0.931 . S
N962 Cd943 2.334 1_565 S
N962 C961 1.332 . S
N962 C966 1.321 . S
C963 C964 1.396 . S
C963 C966 1.412 . S
C963 H992 0.931 . S
C964 C963 1.396 . S
C964 C965 1.382 . S
C965 C961 1.381 . S
C965 C964 1.382 . S
C965 H993 0.930 . S
C966 N962 1.321 . S
C966 C963 1.412 . S
C966 H968 0.902 1_565 S
H967 C961 0.931 . S
H968 C966 0.902 1_545 S
C969 O980 1.238 . S
C969 O981 1.253 . S
C970 O982 1.239 . S
C970 O983 1.230 . S
N971 Cd942 2.304 1_545 S
N971 C972 1.337 . S
N971 C976 1.338 . S
C972 N971 1.337 . S
C972 C973 1.379 . S
C972 H986 0.929 . S
C973 C972 1.379 . S
C973 C974 1.380 . S
C973 H994 0.929 . S
C974 C973 1.380 . S
C974 C975 1.399 . S
C975 C974 1.399 . S
C975 C976 1.376 . S
C975 H995 0.931 . S
C976 N971 1.338 . S
C976 C975 1.376 . S
C976 H987 0.930 1_545 S
C977 O984 1.239 . S
C977 O985 1.230 . S
O978 Cd942 2.268 . S
O978 C952 1.238 . S
O979 Cd943 2.273 1_565 S
O979 C952 1.253 . S
O980 Cd943 2.268 . S
O980 C969 1.238 . S
O981 Cd942 2.273 1_545 S
O981 C969 1.253 . S
O982 Cd942 2.417 . S
O982 C970 1.239 . S
O983 Cd942 2.330 . S
O983 C970 1.230 . S
O984 Cd943 2.417 . S
O984 C977 1.239 . S
O985 Cd943 2.330 . S
O985 C977 1.230 . S
H986 C972 0.929 . S
H987 C976 0.930 1_565 S
H988 C946 0.931 . S
H989 C948 0.930 . S
H990 C954 0.929 . S
H991 C956 0.931 . S
H992 C963 0.931 . S
H993 C965 0.930 . S
H994 C973 0.929 . S
H995 C975 0.931 . S
H996 C1008 0.930 . S
H997 C1010 0.930 . S
H998 C1011 0.930 . S
H999 C1015 0.959 . S
H1000 C1015 0.959 . S
H1001 C1015 0.961 . S
H1002 C1016 0.960 . S
H1003 C1016 0.961 . S
H1004 C1016 0.959 . S
H1005 C1019 0.929 . S
H1006 C1020 0.931 . S
H1007 C1022 0.930 . S
C1008 H996 0.930 . S
C1008 C1009 1.399 . S
C1008 C1013 1.399 . S
C1009 C1008 1.399 . S
C1009 C1010 1.376 . S
C1010 H997 0.930 . S
C1010 C1009 1.376 . S
C1010 C1011 1.388 . S
C1011 H998 0.930 . S
C1011 C1010 1.388 . S
C1011 C1012 1.390 . S
C1012 C1011 1.390 . S
C1012 C1013 1.394 . S
C1012 C1018 1.465 . S
C1013 C1008 1.399 . S
C1013 C1012 1.394 . S
C1013 C1014 1.516 . S
C1014 C1013 1.516 . S
C1014 C1015 1.502 . S
C1014 C1016 1.561 . S
C1014 C1017 1.526 . S
C1015 H999 0.959 . S
C1015 H1000 0.959 . S
C1015 H1001 0.961 . S
C1015 C1014 1.502 . S
C1016 H1002 0.960 . S
C1016 H1003 0.961 . S
C1016 H1004 0.959 . S
C1016 C1014 1.561 . S
C1017 C1014 1.526 . S
C1017 C1018 1.396 . S
C1017 C1022 1.390 . S
C1018 C1012 1.465 . S
C1018 C1017 1.396 . S
C1018 C1019 1.399 . S
C1019 H1005 0.929 . S
C1019 C1018 1.399 . S
C1019 C1020 1.385 . S
C1020 H1006 0.931 . S
C1020 C1019 1.385 . S
C1020 C1021 1.389 . S
C1021 C1020 1.389 . S
C1021 C1022 1.387 . S
C1022 H1007 0.930 . S
C1022 C1017 1.390 . S
C1022 C1021 1.387 . S
H1023 C1035 0.930 . S
H1024 C1037 0.930 . S
H1025 C1038 0.930 . S
H1026 C1042 0.959 . S
H1027 C1042 0.959 . S
H1028 C1042 0.961 . S
H1029 C1043 0.960 . S
H1030 C1043 0.961 . S
H1031 C1043 0.959 . S
H1032 C1046 0.929 . S
H1033 C1047 0.931 . S
H1034 C1049 0.930 . S
C1035 H1023 0.930 . S
C1035 C1036 1.399 . S
C1035 C1040 1.399 . S
C1036 C1035 1.399 . S
C1036 C1037 1.376 . S
C1037 H1024 0.930 . S
C1037 C1036 1.376 . S
C1037 C1038 1.388 . S
C1038 H1025 0.930 . S
C1038 C1037 1.388 . S
C1038 C1039 1.390 . S
C1039 C1038 1.390 . S
C1039 C1040 1.394 . S
C1039 C1045 1.465 . S
C1040 C1035 1.399 . S
C1040 C1039 1.394 . S
C1040 C1041 1.516 . S
C1041 C1040 1.516 . S
C1041 C1042 1.502 . S
C1041 C1043 1.561 . S
C1041 C1044 1.526 . S
C1042 H1026 0.959 . S
C1042 H1027 0.959 . S
C1042 H1028 0.961 . S
C1042 C1041 1.502 . S
C1043 H1029 0.960 . S
C1043 H1030 0.961 . S
C1043 H1031 0.959 . S
C1043 C1041 1.561 . S
C1044 C1041 1.526 . S
C1044 C1045 1.396 . S
C1044 C1049 1.390 . S
C1045 C1039 1.465 . S
C1045 C1044 1.396 . S
C1045 C1046 1.399 . S
C1046 H1032 0.929 . S
C1046 C1045 1.399 . S
C1046 C1047 1.385 . S
C1047 H1033 0.931 . S
C1047 C1046 1.385 . S
C1047 C1048 1.389 . S
C1048 C1047 1.389 . S
C1048 C1049 1.387 . S
C1049 H1034 0.930 . S
C1049 C1044 1.390 . S
C1049 C1048 1.387 . S
H1050 C1062 0.930 . S
H1051 C1064 0.930 . S
H1052 C1065 0.930 . S
H1053 C1069 0.959 . S
H1054 C1069 0.959 . S
H1055 C1069 0.961 . S
H1056 C1070 0.960 . S
H1057 C1070 0.961 . S
H1058 C1070 0.959 . S
H1059 C1073 0.929 . S
H1060 C1074 0.931 . S
H1061 C1076 0.930 . S
C1062 H1050 0.930 . S
C1062 C1063 1.399 . S
C1062 C1067 1.399 . S
C1063 C1062 1.399 . S
C1063 C1064 1.376 . S
C1064 H1051 0.930 . S
C1064 C1063 1.376 . S
C1064 C1065 1.388 . S
C1065 H1052 0.930 . S
C1065 C1064 1.388 . S
C1065 C1066 1.390 . S
C1066 C1065 1.390 . S
C1066 C1067 1.394 . S
C1066 C1072 1.465 . S
C1067 C1062 1.399 . S
C1067 C1066 1.394 . S
C1067 C1068 1.516 . S
C1068 C1067 1.516 . S
C1068 C1069 1.502 . S
C1068 C1070 1.561 . S
C1068 C1071 1.526 . S
C1069 H1053 0.959 . S
C1069 H1054 0.959 . S
C1069 H1055 0.961 . S
C1069 C1068 1.502 . S
C1070 H1056 0.960 . S
C1070 H1057 0.961 . S
C1070 H1058 0.959 . S
C1070 C1068 1.561 . S
C1071 C1068 1.526 . S
C1071 C1072 1.396 . S
C1071 C1076 1.390 . S
C1072 C1066 1.465 . S
C1072 C1071 1.396 . S
C1072 C1073 1.399 . S
C1073 H1059 0.929 . S
C1073 C1072 1.399 . S
C1073 C1074 1.385 . S
C1074 H1060 0.931 . S
C1074 C1073 1.385 . S
C1074 C1075 1.389 . S
C1075 C1074 1.389 . S
C1075 C1076 1.387 . S
C1076 H1061 0.930 . S
C1076 C1071 1.390 . S
C1076 C1075 1.387 . S
H1077 C1089 0.930 . S
H1078 C1091 0.930 . S
H1079 C1092 0.930 . S
H1080 C1096 0.959 . S
H1081 C1096 0.959 . S
H1082 C1096 0.961 . S
H1083 C1097 0.960 . S
H1084 C1097 0.961 . S
H1085 C1097 0.959 . S
H1086 C1100 0.929 . S
H1087 C1101 0.931 . S
H1088 C1103 0.930 . S
C1089 H1077 0.930 . S
C1089 C1090 1.399 . S
C1089 C1094 1.399 . S
C1090 C1089 1.399 . S
C1090 C1091 1.376 . S
C1091 H1078 0.930 . S
C1091 C1090 1.376 . S
C1091 C1092 1.388 . S
C1092 H1079 0.930 . S
C1092 C1091 1.388 . S
C1092 C1093 1.390 . S
C1093 C1092 1.390 . S
C1093 C1094 1.394 . S
C1093 C1099 1.465 . S
C1094 C1089 1.399 . S
C1094 C1093 1.394 . S
C1094 C1095 1.516 . S
C1095 C1094 1.516 . S
C1095 C1096 1.502 . S
C1095 C1097 1.561 . S
C1095 C1098 1.526 . S
C1096 H1080 0.959 . S
C1096 H1081 0.959 . S
C1096 H1082 0.961 . S
C1096 C1095 1.502 . S
C1097 H1083 0.960 . S
C1097 H1084 0.961 . S
C1097 H1085 0.959 . S
C1097 C1095 1.561 . S
C1098 C1095 1.526 . S
C1098 C1099 1.396 . S
C1098 C1103 1.390 . S
C1099 C1093 1.465 . S
C1099 C1098 1.396 . S
C1099 C1100 1.399 . S
C1100 H1086 0.929 . S
C1100 C1099 1.399 . S
C1100 C1101 1.385 . S
C1101 H1087 0.931 . S
C1101 C1100 1.385 . S
C1101 C1102 1.389 . S
C1102 C1101 1.389 . S
C1102 C1103 1.387 . S
C1103 H1088 0.930 . S
C1103 C1098 1.390 . S
C1103 C1102 1.387 . S
H1104 C1116 0.930 . S
H1105 C1118 0.930 . S
H1106 C1119 0.930 . S
H1107 C1123 0.959 . S
H1108 C1123 0.959 . S
H1109 C1123 0.961 . S
H1110 C1124 0.960 . S
H1111 C1124 0.961 . S
H1112 C1124 0.959 . S
H1113 C1127 0.929 . S
H1114 C1128 0.931 . S
H1115 C1130 0.930 . S
C1116 H1104 0.930 . S
C1116 C1117 1.399 . S
C1116 C1121 1.399 . S
C1117 C1116 1.399 . S
C1117 C1118 1.376 . S
C1118 H1105 0.930 . S
C1118 C1117 1.376 . S
C1118 C1119 1.388 . S
C1119 H1106 0.930 . S
C1119 C1118 1.388 . S
C1119 C1120 1.390 . S
C1120 C1119 1.390 . S
C1120 C1121 1.394 . S
C1120 C1126 1.465 . S
C1121 C1116 1.399 . S
C1121 C1120 1.394 . S
C1121 C1122 1.516 . S
C1122 C1121 1.516 . S
C1122 C1123 1.502 . S
C1122 C1124 1.561 . S
C1122 C1125 1.526 . S
C1123 H1107 0.959 . S
C1123 H1108 0.959 . S
C1123 H1109 0.961 . S
C1123 C1122 1.502 . S
C1124 H1110 0.960 . S
C1124 H1111 0.961 . S
C1124 H1112 0.959 . S
C1124 C1122 1.561 . S
C1125 C1122 1.526 . S
C1125 C1126 1.396 . S
C1125 C1130 1.390 . S
C1126 C1120 1.465 . S
C1126 C1125 1.396 . S
C1126 C1127 1.399 . S
C1127 H1113 0.929 . S
C1127 C1126 1.399 . S
C1127 C1128 1.385 . S
C1128 H1114 0.931 . S
C1128 C1127 1.385 . S
C1128 C1129 1.389 . S
C1129 C1128 1.389 . S
C1129 C1130 1.387 . S
C1130 H1115 0.930 . S
C1130 C1125 1.390 . S
C1130 C1129 1.387 . S
H1131 C1143 0.930 . S
H1132 C1145 0.930 . S
H1133 C1146 0.930 . S
H1134 C1150 0.959 . S
H1135 C1150 0.959 . S
H1136 C1150 0.961 . S
H1137 C1151 0.960 . S
H1138 C1151 0.961 . S
H1139 C1151 0.959 . S
H1140 C1154 0.929 . S
H1141 C1155 0.931 . S
H1142 C1157 0.930 . S
C1143 H1131 0.930 . S
C1143 C1144 1.399 . S
C1143 C1148 1.399 . S
C1144 C1143 1.399 . S
C1144 C1145 1.376 . S
C1145 H1132 0.930 . S
C1145 C1144 1.376 . S
C1145 C1146 1.388 . S
C1146 H1133 0.930 . S
C1146 C1145 1.388 . S
C1146 C1147 1.390 . S
C1147 C1146 1.390 . S
C1147 C1148 1.394 . S
C1147 C1153 1.465 . S
C1148 C1143 1.399 . S
C1148 C1147 1.394 . S
C1148 C1149 1.516 . S
C1149 C1148 1.516 . S
C1149 C1150 1.502 . S
C1149 C1151 1.561 . S
C1149 C1152 1.526 . S
C1150 H1134 0.959 . S
C1150 H1135 0.959 . S
C1150 H1136 0.961 . S
C1150 C1149 1.502 . S
C1151 H1137 0.960 . S
C1151 H1138 0.961 . S
C1151 H1139 0.959 . S
C1151 C1149 1.561 . S
C1152 C1149 1.526 . S
C1152 C1153 1.396 . S
C1152 C1157 1.390 . S
C1153 C1147 1.465 . S
C1153 C1152 1.396 . S
C1153 C1154 1.399 . S
C1154 H1140 0.929 . S
C1154 C1153 1.399 . S
C1154 C1155 1.385 . S
C1155 H1141 0.931 . S
C1155 C1154 1.385 . S
C1155 C1156 1.389 . S
C1156 C1155 1.389 . S
C1156 C1157 1.387 . S
C1157 H1142 0.930 . S
C1157 C1152 1.390 . S
C1157 C1156 1.387 . S
H1158 C1170 0.930 . S
H1159 C1172 0.930 . S
H1160 C1173 0.930 . S
H1161 C1177 0.959 . S
H1162 C1177 0.959 . S
H1163 C1177 0.961 . S
H1164 C1178 0.960 . S
H1165 C1178 0.961 . S
H1166 C1178 0.959 . S
H1167 C1181 0.929 . S
H1168 C1182 0.931 . S
H1169 C1184 0.930 . S
C1170 H1158 0.930 . S
C1170 C1171 1.399 . S
C1170 C1175 1.399 . S
C1171 C1170 1.399 . S
C1171 C1172 1.376 . S
C1172 H1159 0.930 . S
C1172 C1171 1.376 . S
C1172 C1173 1.388 . S
C1173 H1160 0.930 . S
C1173 C1172 1.388 . S
C1173 C1174 1.390 . S
C1174 C1173 1.390 . S
C1174 C1175 1.394 . S
C1174 C1180 1.465 . S
C1175 C1170 1.399 . S
C1175 C1174 1.394 . S
C1175 C1176 1.516 . S
C1176 C1175 1.516 . S
C1176 C1177 1.502 . S
C1176 C1178 1.561 . S
C1176 C1179 1.526 . S
C1177 H1161 0.959 . S
C1177 H1162 0.959 . S
C1177 H1163 0.961 . S
C1177 C1176 1.502 . S
C1178 H1164 0.960 . S
C1178 H1165 0.961 . S
C1178 H1166 0.959 . S
C1178 C1176 1.561 . S
C1179 C1176 1.526 . S
C1179 C1180 1.396 . S
C1179 C1184 1.390 . S
C1180 C1174 1.465 . S
C1180 C1179 1.396 . S
C1180 C1181 1.399 . S
C1181 H1167 0.929 . S
C1181 C1180 1.399 . S
C1181 C1182 1.385 . S
C1182 H1168 0.931 . S
C1182 C1181 1.385 . S
C1182 C1183 1.389 . S
C1183 C1182 1.389 . S
C1183 C1184 1.387 . S
C1184 H1169 0.930 . S
C1184 C1179 1.390 . S
C1184 C1183 1.387 . S
H1185 C1197 0.930 . S
H1186 C1199 0.930 . S
H1187 C1200 0.930 . S
H1188 C1204 0.959 . S
H1189 C1204 0.959 . S
H1190 C1204 0.961 . S
H1191 C1205 0.960 . S
H1192 C1205 0.961 . S
H1193 C1205 0.959 . S
H1194 C1208 0.929 . S
H1195 C1209 0.931 . S
H1196 C1211 0.930 . S
C1197 H1185 0.930 . S
C1197 C1198 1.399 . S
C1197 C1202 1.399 . S
C1198 C1197 1.399 . S
C1198 C1199 1.376 . S
C1199 H1186 0.930 . S
C1199 C1198 1.376 . S
C1199 C1200 1.388 . S
C1200 H1187 0.930 . S
C1200 C1199 1.388 . S
C1200 C1201 1.390 . S
C1201 C1200 1.390 . S
C1201 C1202 1.394 . S
C1201 C1207 1.465 . S
C1202 C1197 1.399 . S
C1202 C1201 1.394 . S
C1202 C1203 1.516 . S
C1203 C1202 1.516 . S
C1203 C1204 1.502 . S
C1203 C1205 1.561 . S
C1203 C1206 1.526 . S
C1204 H1188 0.959 . S
C1204 H1189 0.959 . S
C1204 H1190 0.961 . S
C1204 C1203 1.502 . S
C1205 H1191 0.960 . S
C1205 H1192 0.961 . S
C1205 H1193 0.959 . S
C1205 C1203 1.561 . S
C1206 C1203 1.526 . S
C1206 C1207 1.396 . S
C1206 C1211 1.390 . S
C1207 C1201 1.465 . S
C1207 C1206 1.396 . S
C1207 C1208 1.399 . S
C1208 H1194 0.929 . S
C1208 C1207 1.399 . S
C1208 C1209 1.385 . S
C1209 H1195 0.931 . S
C1209 C1208 1.385 . S
C1209 C1210 1.389 . S
C1210 C1209 1.389 . S
C1210 C1211 1.387 . S
C1211 H1196 0.930 . S
C1211 C1206 1.390 . S
C1211 C1210 1.387 . S
H1212 C1224 0.930 . S
H1213 C1226 0.930 . S
H1214 C1227 0.930 . S
H1215 C1231 0.959 . S
H1216 C1231 0.959 . S
H1217 C1231 0.961 . S
H1218 C1232 0.960 . S
H1219 C1232 0.961 . S
H1220 C1232 0.959 . S
H1221 C1235 0.929 . S
H1222 C1236 0.931 1_556 S
H1223 C1238 0.930 . S
C1224 H1212 0.930 . S
C1224 C1225 1.399 . S
C1224 C1229 1.399 . S
C1225 C1224 1.399 . S
C1225 C1226 1.376 . S
C1226 H1213 0.930 . S
C1226 C1225 1.376 . S
C1226 C1227 1.388 . S
C1227 H1214 0.930 . S
C1227 C1226 1.388 . S
C1227 C1228 1.390 . S
C1228 C1227 1.390 . S
C1228 C1229 1.394 . S
C1228 C1234 1.465 . S
C1229 C1224 1.399 . S
C1229 C1228 1.394 . S
C1229 C1230 1.516 . S
C1230 C1229 1.516 . S
C1230 C1231 1.502 . S
C1230 C1232 1.561 . S
C1230 C1233 1.526 . S
C1231 H1215 0.959 . S
C1231 H1216 0.959 . S
C1231 H1217 0.961 . S
C1231 C1230 1.502 . S
C1232 H1218 0.960 . S
C1232 H1219 0.961 . S
C1232 H1220 0.959 . S
C1232 C1230 1.561 . S
C1233 C1230 1.526 . S
C1233 C1234 1.396 . S
C1233 C1238 1.390 . S
C1234 C1228 1.465 . S
C1234 C1233 1.396 . S
C1234 C1235 1.399 . S
C1235 H1221 0.929 . S
C1235 C1234 1.399 . S
C1235 C1236 1.385 . S
C1236 H1222 0.931 1_554 S
C1236 C1235 1.385 . S
C1236 C1237 1.389 . S
C1237 C1236 1.389 . S
C1237 C1238 1.387 . S
C1238 H1223 0.930 . S
C1238 C1233 1.390 . S
C1238 C1237 1.387 . S
H1239 C1251 0.930 . S
H1240 C1253 0.930 . S
H1241 C1254 0.930 . S
H1242 C1258 0.959 . S
H1243 C1258 0.959 . S
H1244 C1258 0.961 . S
H1245 C1259 0.960 . S
H1246 C1259 0.961 . S
H1247 C1259 0.959 . S
H1248 C1262 0.929 . S
H1249 C1263 0.931 . S
H1250 C1265 0.930 . S
C1251 H1239 0.930 . S
C1251 C1252 1.399 . S
C1251 C1256 1.399 . S
C1252 C1251 1.399 . S
C1252 C1253 1.376 . S
C1253 H1240 0.930 . S
C1253 C1252 1.376 . S
C1253 C1254 1.388 . S
C1254 H1241 0.930 . S
C1254 C1253 1.388 . S
C1254 C1255 1.390 . S
C1255 C1254 1.390 . S
C1255 C1256 1.394 . S
C1255 C1261 1.465 . S
C1256 C1251 1.399 . S
C1256 C1255 1.394 . S
C1256 C1257 1.516 . S
C1257 C1256 1.516 . S
C1257 C1258 1.502 . S
C1257 C1259 1.561 . S
C1257 C1260 1.526 . S
C1258 H1242 0.959 . S
C1258 H1243 0.959 . S
C1258 H1244 0.961 . S
C1258 C1257 1.502 . S
C1259 H1245 0.960 . S
C1259 H1246 0.961 . S
C1259 H1247 0.959 . S
C1259 C1257 1.561 . S
C1260 C1257 1.526 . S
C1260 C1261 1.396 . S
C1260 C1265 1.390 . S
C1261 C1255 1.465 . S
C1261 C1260 1.396 . S
C1261 C1262 1.399 . S
C1262 H1248 0.929 . S
C1262 C1261 1.399 . S
C1262 C1263 1.385 . S
C1263 H1249 0.931 . S
C1263 C1262 1.385 . S
C1263 C1264 1.389 . S
C1264 C1263 1.389 . S
C1264 C1265 1.387 . S
C1265 H1250 0.930 . S
C1265 C1260 1.390 . S
C1265 C1264 1.387 . S
H1266 C1278 0.930 . S
H1267 C1280 0.930 . S
H1268 C1281 0.930 . S
H1269 C1285 0.959 . S
H1270 C1285 0.959 . S
H1271 C1285 0.961 . S
H1272 C1286 0.960 . S
H1273 C1286 0.961 . S
H1274 C1286 0.959 . S
H1275 C1289 0.929 . S
H1276 C1290 0.931 . S
H1277 C1292 0.930 . S
C1278 H1266 0.930 . S
C1278 C1279 1.399 . S
C1278 C1283 1.399 . S
C1279 C1278 1.399 . S
C1279 C1280 1.376 . S
C1280 H1267 0.930 . S
C1280 C1279 1.376 . S
C1280 C1281 1.388 . S
C1281 H1268 0.930 . S
C1281 C1280 1.388 . S
C1281 C1282 1.390 . S
C1282 C1281 1.390 . S
C1282 C1283 1.394 . S
C1282 C1288 1.465 . S
C1283 C1278 1.399 . S
C1283 C1282 1.394 . S
C1283 C1284 1.516 . S
C1284 C1283 1.516 . S
C1284 C1285 1.502 . S
C1284 C1286 1.561 . S
C1284 C1287 1.526 . S
C1285 H1269 0.959 . S
C1285 H1270 0.959 . S
C1285 H1271 0.961 . S
C1285 C1284 1.502 . S
C1286 H1272 0.960 . S
C1286 H1273 0.961 . S
C1286 H1274 0.959 . S
C1286 C1284 1.561 . S
C1287 C1284 1.526 . S
C1287 C1288 1.396 . S
C1287 C1292 1.390 . S
C1288 C1282 1.465 . S
C1288 C1287 1.396 . S
C1288 C1289 1.399 . S
C1289 H1275 0.929 . S
C1289 C1288 1.399 . S
C1289 C1290 1.385 . S
C1290 H1276 0.931 . S
C1290 C1289 1.385 . S
C1290 C1291 1.389 . S
C1291 C1290 1.389 . S
C1291 C1292 1.387 . S
C1292 H1277 0.930 . S
C1292 C1287 1.390 . S
C1292 C1291 1.387 . S
H1293 C1305 0.930 . S
H1294 C1307 0.930 . S
H1295 C1308 0.930 . S
H1296 C1312 0.959 . S
H1297 C1312 0.959 . S
H1298 C1312 0.961 . S
H1299 C1313 0.960 . S
H1300 C1313 0.961 . S
H1301 C1313 0.959 . S
H1302 C1316 0.929 . S
H1303 C1317 0.931 . S
H1304 C1319 0.930 . S
C1305 H1293 0.930 . S
C1305 C1306 1.399 . S
C1305 C1310 1.399 . S
C1306 C1305 1.399 . S
C1306 C1307 1.376 . S
C1307 H1294 0.930 . S
C1307 C1306 1.376 . S
C1307 C1308 1.388 . S
C1308 H1295 0.930 . S
C1308 C1307 1.388 . S
C1308 C1309 1.390 . S
C1309 C1308 1.390 . S
C1309 C1310 1.394 . S
C1309 C1315 1.465 . S
C1310 C1305 1.399 . S
C1310 C1309 1.394 . S
C1310 C1311 1.516 . S
C1311 C1310 1.516 . S
C1311 C1312 1.502 . S
C1311 C1313 1.561 . S
C1311 C1314 1.526 . S
C1312 H1296 0.959 . S
C1312 H1297 0.959 . S
C1312 H1298 0.961 . S
C1312 C1311 1.502 . S
C1313 H1299 0.960 . S
C1313 H1300 0.961 . S
C1313 H1301 0.959 . S
C1313 C1311 1.561 . S
C1314 C1311 1.526 . S
C1314 C1315 1.396 . S
C1314 C1319 1.390 . S
C1315 C1309 1.465 . S
C1315 C1314 1.396 . S
C1315 C1316 1.399 . S
C1316 H1302 0.929 . S
C1316 C1315 1.399 . S
C1316 C1317 1.385 . S
C1317 H1303 0.931 . S
C1317 C1316 1.385 . S
C1317 C1318 1.389 . S
C1318 C1317 1.389 . S
C1318 C1319 1.387 . S
C1319 H1304 0.930 . S
C1319 C1314 1.390 . S
C1319 C1318 1.387 . S
H1320 C1332 0.930 . S
H1321 C1334 0.930 . S
H1322 C1335 0.930 . S
H1323 C1339 0.959 . S
H1324 C1339 0.959 . S
H1325 C1339 0.961 . S
H1326 C1340 0.960 . S
H1327 C1340 0.961 . S
H1328 C1340 0.959 . S
H1329 C1343 0.929 . S
H1330 C1344 0.931 . S
H1331 C1346 0.930 . S
C1332 H1320 0.930 . S
C1332 C1333 1.399 . S
C1332 C1337 1.399 . S
C1333 C1332 1.399 . S
C1333 C1334 1.376 . S
C1334 H1321 0.930 . S
C1334 C1333 1.376 . S
C1334 C1335 1.388 . S
C1335 H1322 0.930 . S
C1335 C1334 1.388 . S
C1335 C1336 1.390 . S
C1336 C1335 1.390 . S
C1336 C1337 1.394 . S
C1336 C1342 1.465 . S
C1337 C1332 1.399 . S
C1337 C1336 1.394 . S
C1337 C1338 1.516 . S
C1338 C1337 1.516 . S
C1338 C1339 1.502 . S
C1338 C1340 1.561 . S
C1338 C1341 1.526 . S
C1339 H1323 0.959 . S
C1339 H1324 0.959 . S
C1339 H1325 0.961 . S
C1339 C1338 1.502 . S
C1340 H1326 0.960 . S
C1340 H1327 0.961 . S
C1340 H1328 0.959 . S
C1340 C1338 1.561 . S
C1341 C1338 1.526 . S
C1341 C1342 1.396 . S
C1341 C1346 1.390 . S
C1342 C1336 1.465 . S
C1342 C1341 1.396 . S
C1342 C1343 1.399 . S
C1343 H1329 0.929 . S
C1343 C1342 1.399 . S
C1343 C1344 1.385 . S
C1344 H1330 0.931 . S
C1344 C1343 1.385 . S
C1344 C1345 1.389 . S
C1345 C1344 1.389 . S
C1345 C1346 1.387 . S
C1346 H1331 0.930 . S
C1346 C1341 1.390 . S
C1346 C1345 1.387 . S
H1347 C1359 0.930 . S
H1348 C1361 0.930 . S
H1349 C1362 0.930 . S
H1350 C1366 0.959 . S
H1351 C1366 0.959 . S
H1352 C1366 0.961 . S
H1353 C1367 0.960 . S
H1354 C1367 0.961 . S
H1355 C1367 0.959 . S
H1356 C1370 0.929 . S
H1357 C1371 0.931 1_554 S
H1358 C1373 0.930 . S
C1359 H1347 0.930 . S
C1359 C1360 1.399 . S
C1359 C1364 1.399 . S
C1360 C1359 1.399 . S
C1360 C1361 1.376 . S
C1361 H1348 0.930 . S
C1361 C1360 1.376 . S
C1361 C1362 1.388 . S
C1362 H1349 0.930 . S
C1362 C1361 1.388 . S
C1362 C1363 1.390 . S
C1363 C1362 1.390 . S
C1363 C1364 1.394 . S
C1363 C1369 1.465 . S
C1364 C1359 1.399 . S
C1364 C1363 1.394 . S
C1364 C1365 1.516 . S
C1365 C1364 1.516 . S
C1365 C1366 1.502 . S
C1365 C1367 1.561 . S
C1365 C1368 1.526 . S
C1366 H1350 0.959 . S
C1366 H1351 0.959 . S
C1366 H1352 0.961 . S
C1366 C1365 1.502 . S
C1367 H1353 0.960 . S
C1367 H1354 0.961 . S
C1367 H1355 0.959 . S
C1367 C1365 1.561 . S
C1368 C1365 1.526 . S
C1368 C1369 1.396 . S
C1368 C1373 1.390 . S
C1369 C1363 1.465 . S
C1369 C1368 1.396 . S
C1369 C1370 1.399 . S
C1370 H1356 0.929 . S
C1370 C1369 1.399 . S
C1370 C1371 1.385 . S
C1371 H1357 0.931 1_556 S
C1371 C1370 1.385 . S
C1371 C1372 1.389 . S
C1372 C1371 1.389 . S
C1372 C1373 1.387 . S
C1373 H1358 0.930 . S
C1373 C1368 1.390 . S
C1373 C1372 1.387 . S
H1374 C1386 0.930 . S
H1375 C1388 0.930 . S
H1376 C1389 0.930 . S
H1377 C1393 0.959 . S
H1378 C1393 0.959 . S
H1379 C1393 0.961 . S
H1380 C1394 0.960 . S
H1381 C1394 0.961 . S
H1382 C1394 0.959 . S
H1383 C1397 0.929 . S
H1384 C1398 0.931 . S
H1385 C1400 0.930 . S
C1386 H1374 0.930 . S
C1386 C1387 1.399 . S
C1386 C1391 1.399 . S
C1387 C1386 1.399 . S
C1387 C1388 1.376 . S
C1388 H1375 0.930 . S
C1388 C1387 1.376 . S
C1388 C1389 1.388 . S
C1389 H1376 0.930 . S
C1389 C1388 1.388 . S
C1389 C1390 1.390 . S
C1390 C1389 1.390 . S
C1390 C1391 1.394 . S
C1390 C1396 1.465 . S
C1391 C1386 1.399 . S
C1391 C1390 1.394 . S
C1391 C1392 1.516 . S
C1392 C1391 1.516 . S
C1392 C1393 1.502 . S
C1392 C1394 1.561 . S
C1392 C1395 1.526 . S
C1393 H1377 0.959 . S
C1393 H1378 0.959 . S
C1393 H1379 0.961 . S
C1393 C1392 1.502 . S
C1394 H1380 0.960 . S
C1394 H1381 0.961 . S
C1394 H1382 0.959 . S
C1394 C1392 1.561 . S
C1395 C1392 1.526 . S
C1395 C1396 1.396 . S
C1395 C1400 1.390 . S
C1396 C1390 1.465 . S
C1396 C1395 1.396 . S
C1396 C1397 1.399 . S
C1397 H1383 0.929 . S
C1397 C1396 1.399 . S
C1397 C1398 1.385 . S
C1398 H1384 0.931 . S
C1398 C1397 1.385 . S
C1398 C1399 1.389 . S
C1399 C1398 1.389 . S
C1399 C1400 1.387 . S
C1400 H1385 0.930 . S
C1400 C1395 1.390 . S
C1400 C1399 1.387 . S
H1401 C1413 0.930 . S
H1402 C1415 0.930 . S
H1403 C1416 0.930 . S
H1404 C1420 0.959 . S
H1405 C1420 0.959 . S
H1406 C1420 0.961 . S
H1407 C1421 0.960 . S
H1408 C1421 0.961 . S
H1409 C1421 0.959 . S
H1410 C1424 0.929 . S
H1411 C1425 0.931 . S
H1412 C1427 0.930 . S
C1413 H1401 0.930 . S
C1413 C1414 1.399 . S
C1413 C1418 1.399 . S
C1414 C1413 1.399 . S
C1414 C1415 1.376 . S
C1415 H1402 0.930 . S
C1415 C1414 1.376 . S
C1415 C1416 1.388 . S
C1416 H1403 0.930 . S
C1416 C1415 1.388 . S
C1416 C1417 1.390 . S
C1417 C1416 1.390 . S
C1417 C1418 1.394 . S
C1417 C1423 1.465 . S
C1418 C1413 1.399 . S
C1418 C1417 1.394 . S
C1418 C1419 1.516 . S
C1419 C1418 1.516 . S
C1419 C1420 1.502 . S
C1419 C1421 1.561 . S
C1419 C1422 1.526 . S
C1420 H1404 0.959 . S
C1420 H1405 0.959 . S
C1420 H1406 0.961 . S
C1420 C1419 1.502 . S
C1421 H1407 0.960 . S
C1421 H1408 0.961 . S
C1421 H1409 0.959 . S
C1421 C1419 1.561 . S
C1422 C1419 1.526 . S
C1422 C1423 1.396 . S
C1422 C1427 1.390 . S
C1423 C1417 1.465 . S
C1423 C1422 1.396 . S
C1423 C1424 1.399 . S
C1424 H1410 0.929 . S
C1424 C1423 1.399 . S
C1424 C1425 1.385 . S
C1425 H1411 0.931 . S
C1425 C1424 1.385 . S
C1425 C1426 1.389 . S
C1426 C1425 1.389 . S
C1426 C1427 1.387 . S
C1427 H1412 0.930 . S
C1427 C1422 1.390 . S
C1427 C1426 1.387 . S
H1428 C1440 0.930 . S
H1429 C1442 0.930 . S
H1430 C1443 0.930 . S
H1431 C1447 0.959 . S
H1432 C1447 0.959 . S
H1433 C1447 0.961 . S
H1434 C1448 0.960 . S
H1435 C1448 0.961 . S
H1436 C1448 0.959 . S
H1437 C1451 0.929 . S
H1438 C1452 0.931 . S
H1439 C1454 0.930 . S
C1440 H1428 0.930 . S
C1440 C1441 1.399 . S
C1440 C1445 1.399 . S
C1441 C1440 1.399 . S
C1441 C1442 1.376 . S
C1442 H1429 0.930 . S
C1442 C1441 1.376 . S
C1442 C1443 1.388 . S
C1443 H1430 0.930 . S
C1443 C1442 1.388 . S
C1443 C1444 1.390 . S
C1444 C1443 1.390 . S
C1444 C1445 1.394 . S
C1444 C1450 1.465 . S
C1445 C1440 1.399 . S
C1445 C1444 1.394 . S
C1445 C1446 1.516 . S
C1446 C1445 1.516 . S
C1446 C1447 1.502 . S
C1446 C1448 1.561 . S
C1446 C1449 1.526 . S
C1447 H1431 0.959 . S
C1447 H1432 0.959 . S
C1447 H1433 0.961 . S
C1447 C1446 1.502 . S
C1448 H1434 0.960 . S
C1448 H1435 0.961 . S
C1448 H1436 0.959 . S
C1448 C1446 1.561 . S
C1449 C1446 1.526 . S
C1449 C1450 1.396 . S
C1449 C1454 1.390 . S
C1450 C1444 1.465 . S
C1450 C1449 1.396 . S
C1450 C1451 1.399 . S
C1451 H1437 0.929 . S
C1451 C1450 1.399 . S
C1451 C1452 1.385 . S
C1452 H1438 0.931 . S
C1452 C1451 1.385 . S
C1452 C1453 1.389 . S
C1453 C1452 1.389 . S
C1453 C1454 1.387 . S
C1454 H1439 0.930 . S
C1454 C1449 1.390 . S
C1454 C1453 1.387 . S
H1455 C1467 0.930 . S
H1456 C1469 0.930 . S
H1457 C1470 0.930 . S
H1458 C1474 0.959 . S
H1459 C1474 0.959 . S
H1460 C1474 0.961 . S
H1461 C1475 0.960 . S
H1462 C1475 0.961 . S
H1463 C1475 0.959 . S
H1464 C1478 0.929 . S
H1465 C1479 0.931 . S
H1466 C1481 0.930 . S
C1467 H1455 0.930 . S
C1467 C1468 1.399 . S
C1467 C1472 1.399 . S
C1468 C1467 1.399 . S
C1468 C1469 1.376 . S
C1469 H1456 0.930 . S
C1469 C1468 1.376 . S
C1469 C1470 1.388 . S
C1470 H1457 0.930 . S
C1470 C1469 1.388 . S
C1470 C1471 1.390 . S
C1471 C1470 1.390 . S
C1471 C1472 1.394 . S
C1471 C1477 1.465 . S
C1472 C1467 1.399 . S
C1472 C1471 1.394 . S
C1472 C1473 1.516 . S
C1473 C1472 1.516 . S
C1473 C1474 1.502 . S
C1473 C1475 1.561 . S
C1473 C1476 1.526 . S
C1474 H1458 0.959 . S
C1474 H1459 0.959 . S
C1474 H1460 0.961 . S
C1474 C1473 1.502 . S
C1475 H1461 0.960 . S
C1475 H1462 0.961 . S
C1475 H1463 0.959 . S
C1475 C1473 1.561 . S
C1476 C1473 1.526 . S
C1476 C1477 1.396 . S
C1476 C1481 1.390 . S
C1477 C1471 1.465 . S
C1477 C1476 1.396 . S
C1477 C1478 1.399 . S
C1478 H1464 0.929 . S
C1478 C1477 1.399 . S
C1478 C1479 1.385 . S
C1479 H1465 0.931 . S
C1479 C1478 1.385 . S
C1479 C1480 1.389 . S
C1480 C1479 1.389 . S
C1480 C1481 1.387 . S
C1481 H1466 0.930 . S
C1481 C1476 1.390 . S
C1481 C1480 1.387 . S
H1482 C1494 0.930 . S
H1483 C1496 0.930 . S
H1484 C1497 0.930 . S
H1485 C1501 0.959 . S
H1486 C1501 0.959 . S
H1487 C1501 0.961 . S
H1488 C1502 0.960 . S
H1489 C1502 0.961 . S
H1490 C1502 0.959 . S
H1491 C1505 0.929 . S
H1492 C1506 0.931 . S
H1493 C1508 0.930 . S
C1494 H1482 0.930 . S
C1494 C1495 1.399 . S
C1494 C1499 1.399 . S
C1495 C1494 1.399 . S
C1495 C1496 1.376 . S
C1496 H1483 0.930 . S
C1496 C1495 1.376 . S
C1496 C1497 1.388 . S
C1497 H1484 0.930 . S
C1497 C1496 1.388 . S
C1497 C1498 1.390 . S
C1498 C1497 1.390 . S
C1498 C1499 1.394 . S
C1498 C1504 1.465 . S
C1499 C1494 1.399 . S
C1499 C1498 1.394 . S
C1499 C1500 1.516 . S
C1500 C1499 1.516 . S
C1500 C1501 1.502 . S
C1500 C1502 1.561 . S
C1500 C1503 1.526 . S
C1501 H1485 0.959 . S
C1501 H1486 0.959 . S
C1501 H1487 0.961 . S
C1501 C1500 1.502 . S
C1502 H1488 0.960 . S
C1502 H1489 0.961 . S
C1502 H1490 0.959 . S
C1502 C1500 1.561 . S
C1503 C1500 1.526 . S
C1503 C1504 1.396 . S
C1503 C1508 1.390 . S
C1504 C1498 1.465 . S
C1504 C1503 1.396 . S
C1504 C1505 1.399 . S
C1505 H1491 0.929 . S
C1505 C1504 1.399 . S
C1505 C1506 1.385 . S
C1506 H1492 0.931 . S
C1506 C1505 1.385 . S
C1506 C1507 1.389 . S
C1507 C1506 1.389 . S
C1507 C1508 1.387 . S
C1508 H1493 0.930 . S
C1508 C1503 1.390 . S
C1508 C1507 1.387 . S
H1509 C1521 0.930 . S
H1510 C1523 0.930 . S
H1511 C1524 0.930 . S
H1512 C1528 0.959 . S
H1513 C1528 0.959 . S
H1514 C1528 0.961 . S
H1515 C1529 0.960 . S
H1516 C1529 0.961 . S
H1517 C1529 0.959 . S
H1518 C1532 0.929 . S
H1519 C1533 0.931 . S
H1520 C1535 0.930 . S
C1521 H1509 0.930 . S
C1521 C1522 1.399 . S
C1521 C1526 1.399 . S
C1522 C1521 1.399 . S
C1522 C1523 1.376 . S
C1523 H1510 0.930 . S
C1523 C1522 1.376 . S
C1523 C1524 1.388 . S
C1524 H1511 0.930 . S
C1524 C1523 1.388 . S
C1524 C1525 1.390 . S
C1525 C1524 1.390 . S
C1525 C1526 1.394 . S
C1525 C1531 1.465 . S
C1526 C1521 1.399 . S
C1526 C1525 1.394 . S
C1526 C1527 1.516 . S
C1527 C1526 1.516 . S
C1527 C1528 1.502 . S
C1527 C1529 1.561 . S
C1527 C1530 1.526 . S
C1528 H1512 0.959 . S
C1528 H1513 0.959 . S
C1528 H1514 0.961 . S
C1528 C1527 1.502 . S
C1529 H1515 0.960 . S
C1529 H1516 0.961 . S
C1529 H1517 0.959 . S
C1529 C1527 1.561 . S
C1530 C1527 1.526 . S
C1530 C1531 1.396 . S
C1530 C1535 1.390 . S
C1531 C1525 1.465 . S
C1531 C1530 1.396 . S
C1531 C1532 1.399 . S
C1532 H1518 0.929 . S
C1532 C1531 1.399 . S
C1532 C1533 1.385 . S
C1533 H1519 0.931 . S
C1533 C1532 1.385 . S
C1533 C1534 1.389 . S
C1534 C1533 1.389 . S
C1534 C1535 1.387 . S
C1535 H1520 0.930 . S
C1535 C1530 1.390 . S
C1535 C1534 1.387 . S
H1536 C1548 0.930 . S
H1537 C1550 0.930 . S
H1538 C1551 0.930 . S
H1539 C1555 0.959 . S
H1540 C1555 0.959 . S
H1541 C1555 0.961 . S
H1542 C1556 0.960 . S
H1543 C1556 0.961 . S
H1544 C1556 0.959 . S
H1545 C1559 0.929 . S
H1546 C1560 0.931 . S
H1547 C1562 0.930 . S
C1548 H1536 0.930 . S
C1548 C1549 1.399 . S
C1548 C1553 1.399 . S
C1549 C1548 1.399 . S
C1549 C1550 1.376 . S
C1550 H1537 0.930 . S
C1550 C1549 1.376 . S
C1550 C1551 1.388 . S
C1551 H1538 0.930 . S
C1551 C1550 1.388 . S
C1551 C1552 1.390 . S
C1552 C1551 1.390 . S
C1552 C1553 1.394 . S
C1552 C1558 1.465 . S
C1553 C1548 1.399 . S
C1553 C1552 1.394 . S
C1553 C1554 1.516 . S
C1554 C1553 1.516 . S
C1554 C1555 1.502 . S
C1554 C1556 1.561 . S
C1554 C1557 1.526 . S
C1555 H1539 0.959 . S
C1555 H1540 0.959 . S
C1555 H1541 0.961 . S
C1555 C1554 1.502 . S
C1556 H1542 0.960 . S
C1556 H1543 0.961 . S
C1556 H1544 0.959 . S
C1556 C1554 1.561 . S
C1557 C1554 1.526 . S
C1557 C1558 1.396 . S
C1557 C1562 1.390 . S
C1558 C1552 1.465 . S
C1558 C1557 1.396 . S
C1558 C1559 1.399 . S
C1559 H1545 0.929 . S
C1559 C1558 1.399 . S
C1559 C1560 1.385 . S
C1560 H1546 0.931 . S
C1560 C1559 1.385 . S
C1560 C1561 1.389 . S
C1561 C1560 1.389 . S
C1561 C1562 1.387 . S
C1562 H1547 0.930 . S
C1562 C1557 1.390 . S
C1562 C1561 1.387 . S
H1563 C1575 0.930 . S
H1564 C1577 0.930 . S
H1565 C1578 0.930 . S
H1566 C1582 0.959 . S
H1567 C1582 0.959 . S
H1568 C1582 0.961 . S
H1569 C1583 0.960 . S
H1570 C1583 0.961 . S
H1571 C1583 0.959 . S
H1572 C1586 0.929 . S
H1573 C1587 0.931 1_556 S
H1574 C1589 0.930 . S
C1575 H1563 0.930 . S
C1575 C1576 1.399 . S
C1575 C1580 1.399 . S
C1576 C1575 1.399 . S
C1576 C1577 1.376 . S
C1577 H1564 0.930 . S
C1577 C1576 1.376 . S
C1577 C1578 1.388 . S
C1578 H1565 0.930 . S
C1578 C1577 1.388 . S
C1578 C1579 1.390 . S
C1579 C1578 1.390 . S
C1579 C1580 1.394 . S
C1579 C1585 1.465 . S
C1580 C1575 1.399 . S
C1580 C1579 1.394 . S
C1580 C1581 1.516 . S
C1581 C1580 1.516 . S
C1581 C1582 1.502 . S
C1581 C1583 1.561 . S
C1581 C1584 1.526 . S
C1582 H1566 0.959 . S
C1582 H1567 0.959 . S
C1582 H1568 0.961 . S
C1582 C1581 1.502 . S
C1583 H1569 0.960 . S
C1583 H1570 0.961 . S
C1583 H1571 0.959 . S
C1583 C1581 1.561 . S
C1584 C1581 1.526 . S
C1584 C1585 1.396 . S
C1584 C1589 1.390 . S
C1585 C1579 1.465 . S
C1585 C1584 1.396 . S
C1585 C1586 1.399 . S
C1586 H1572 0.929 . S
C1586 C1585 1.399 . S
C1586 C1587 1.385 . S
C1587 H1573 0.931 1_554 S
C1587 C1586 1.385 . S
C1587 C1588 1.389 . S
C1588 C1587 1.389 . S
C1588 C1589 1.387 . S
C1589 H1574 0.930 . S
C1589 C1584 1.390 . S
C1589 C1588 1.387 . S
H1590 C1602 0.930 . S
H1591 C1604 0.930 . S
H1592 C1605 0.930 . S
H1593 C1609 0.959 . S
H1594 C1609 0.959 . S
H1595 C1609 0.961 . S
H1596 C1610 0.960 . S
H1597 C1610 0.961 . S
H1598 C1610 0.959 . S
H1599 C1613 0.929 . S
H1600 C1614 0.931 . S
H1601 C1616 0.930 . S
C1602 H1590 0.930 . S
C1602 C1603 1.399 . S
C1602 C1607 1.399 . S
C1603 C1602 1.399 . S
C1603 C1604 1.376 . S
C1604 H1591 0.930 . S
C1604 C1603 1.376 . S
C1604 C1605 1.388 . S
C1605 H1592 0.930 . S
C1605 C1604 1.388 . S
C1605 C1606 1.390 . S
C1606 C1605 1.390 . S
C1606 C1607 1.394 . S
C1606 C1612 1.465 . S
C1607 C1602 1.399 . S
C1607 C1606 1.394 . S
C1607 C1608 1.516 . S
C1608 C1607 1.516 . S
C1608 C1609 1.502 . S
C1608 C1610 1.561 . S
C1608 C1611 1.526 . S
C1609 H1593 0.959 . S
C1609 H1594 0.959 . S
C1609 H1595 0.961 . S
C1609 C1608 1.502 . S
C1610 H1596 0.960 . S
C1610 H1597 0.961 . S
C1610 H1598 0.959 . S
C1610 C1608 1.561 . S
C1611 C1608 1.526 . S
C1611 C1612 1.396 . S
C1611 C1616 1.390 . S
C1612 C1606 1.465 . S
C1612 C1611 1.396 . S
C1612 C1613 1.399 . S
C1613 H1599 0.929 . S
C1613 C1612 1.399 . S
C1613 C1614 1.385 . S
C1614 H1600 0.931 . S
C1614 C1613 1.385 . S
C1614 C1615 1.389 . S
C1615 C1614 1.389 . S
C1615 C1616 1.387 . S
C1616 H1601 0.930 . S
C1616 C1611 1.390 . S
C1616 C1615 1.387 . S
H1617 C1629 0.930 . S
H1618 C1631 0.930 . S
H1619 C1632 0.930 . S
H1620 C1636 0.959 . S
H1621 C1636 0.959 . S
H1622 C1636 0.961 . S
H1623 C1637 0.960 . S
H1624 C1637 0.961 . S
H1625 C1637 0.959 . S
H1626 C1640 0.929 . S
H1627 C1641 0.931 . S
H1628 C1643 0.930 . S
C1629 H1617 0.930 . S
C1629 C1630 1.399 . S
C1629 C1634 1.399 . S
C1630 C1629 1.399 . S
C1630 C1631 1.376 . S
C1631 H1618 0.930 . S
C1631 C1630 1.376 . S
C1631 C1632 1.388 . S
C1632 H1619 0.930 . S
C1632 C1631 1.388 . S
C1632 C1633 1.390 . S
C1633 C1632 1.390 . S
C1633 C1634 1.394 . S
C1633 C1639 1.465 . S
C1634 C1629 1.399 . S
C1634 C1633 1.394 . S
C1634 C1635 1.516 . S
C1635 C1634 1.516 . S
C1635 C1636 1.502 . S
C1635 C1637 1.561 . S
C1635 C1638 1.526 . S
C1636 H1620 0.959 . S
C1636 H1621 0.959 . S
C1636 H1622 0.961 . S
C1636 C1635 1.502 . S
C1637 H1623 0.960 . S
C1637 H1624 0.961 . S
C1637 H1625 0.959 . S
C1637 C1635 1.561 . S
C1638 C1635 1.526 . S
C1638 C1639 1.396 . S
C1638 C1643 1.390 . S
C1639 C1633 1.465 . S
C1639 C1638 1.396 . S
C1639 C1640 1.399 . S
C1640 H1626 0.929 . S
C1640 C1639 1.399 . S
C1640 C1641 1.385 . S
C1641 H1627 0.931 . S
C1641 C1640 1.385 . S
C1641 C1642 1.389 . S
C1642 C1641 1.389 . S
C1642 C1643 1.387 . S
C1643 H1628 0.930 . S
C1643 C1638 1.390 . S
C1643 C1642 1.387 . S
H1644 C1656 0.930 . S
H1645 C1658 0.930 . S
H1646 C1659 0.930 . S
H1647 C1663 0.959 . S
H1648 C1663 0.959 . S
H1649 C1663 0.961 . S
H1650 C1664 0.960 . S
H1651 C1664 0.961 . S
H1652 C1664 0.959 . S
H1653 C1667 0.929 . S
H1654 C1668 0.931 . S
H1655 C1670 0.930 . S
C1656 H1644 0.930 . S
C1656 C1657 1.399 . S
C1656 C1661 1.399 . S
C1657 C1656 1.399 . S
C1657 C1658 1.376 . S
C1658 H1645 0.930 . S
C1658 C1657 1.376 . S
C1658 C1659 1.388 . S
C1659 H1646 0.930 . S
C1659 C1658 1.388 . S
C1659 C1660 1.390 . S
C1660 C1659 1.390 . S
C1660 C1661 1.394 . S
C1660 C1666 1.465 . S
C1661 C1656 1.399 . S
C1661 C1660 1.394 . S
C1661 C1662 1.516 . S
C1662 C1661 1.516 . S
C1662 C1663 1.502 . S
C1662 C1664 1.561 . S
C1662 C1665 1.526 . S
C1663 H1647 0.959 . S
C1663 H1648 0.959 . S
C1663 H1649 0.961 . S
C1663 C1662 1.502 . S
C1664 H1650 0.960 . S
C1664 H1651 0.961 . S
C1664 H1652 0.959 . S
C1664 C1662 1.561 . S
C1665 C1662 1.526 . S
C1665 C1666 1.396 . S
C1665 C1670 1.390 . S
C1666 C1660 1.465 . S
C1666 C1665 1.396 . S
C1666 C1667 1.399 . S
C1667 H1653 0.929 . S
C1667 C1666 1.399 . S
C1667 C1668 1.385 . S
C1668 H1654 0.931 . S
C1668 C1667 1.385 . S
C1668 C1669 1.389 . S
C1669 C1668 1.389 . S
C1669 C1670 1.387 . S
C1670 H1655 0.930 . S
C1670 C1665 1.390 . S
C1670 C1669 1.387 . S
H1671 C1683 0.930 . S
H1672 C1685 0.930 . S
H1673 C1686 0.930 . S
H1674 C1690 0.959 . S
H1675 C1690 0.959 . S
H1676 C1690 0.961 . S
H1677 C1691 0.960 . S
H1678 C1691 0.961 . S
H1679 C1691 0.959 . S
H1680 C1694 0.929 . S
H1681 C1695 0.931 . S
H1682 C1697 0.930 . S
C1683 H1671 0.930 . S
C1683 C1684 1.399 . S
C1683 C1688 1.399 . S
C1684 C1683 1.399 . S
C1684 C1685 1.376 . S
C1685 H1672 0.930 . S
C1685 C1684 1.376 . S
C1685 C1686 1.388 . S
C1686 H1673 0.930 . S
C1686 C1685 1.388 . S
C1686 C1687 1.390 . S
C1687 C1686 1.390 . S
C1687 C1688 1.394 . S
C1687 C1693 1.465 . S
C1688 C1683 1.399 . S
C1688 C1687 1.394 . S
C1688 C1689 1.516 . S
C1689 C1688 1.516 . S
C1689 C1690 1.502 . S
C1689 C1691 1.561 . S
C1689 C1692 1.526 . S
C1690 H1674 0.959 . S
C1690 H1675 0.959 . S
C1690 H1676 0.961 . S
C1690 C1689 1.502 . S
C1691 H1677 0.960 . S
C1691 H1678 0.961 . S
C1691 H1679 0.959 . S
C1691 C1689 1.561 . S
C1692 C1689 1.526 . S
C1692 C1693 1.396 . S
C1692 C1697 1.390 . S
C1693 C1687 1.465 . S
C1693 C1692 1.396 . S
C1693 C1694 1.399 . S
C1694 H1680 0.929 . S
C1694 C1693 1.399 . S
C1694 C1695 1.385 . S
C1695 H1681 0.931 . S
C1695 C1694 1.385 . S
C1695 C1696 1.389 . S
C1696 C1695 1.389 . S
C1696 C1697 1.387 . S
C1697 H1682 0.930 . S
C1697 C1692 1.390 . S
C1697 C1696 1.387 . S
H1698 C1710 0.930 . S
H1699 C1712 0.930 . S
H1700 C1713 0.930 . S
H1701 C1717 0.959 . S
H1702 C1717 0.959 . S
H1703 C1717 0.961 . S
H1704 C1718 0.960 . S
H1705 C1718 0.961 . S
H1706 C1718 0.959 . S
H1707 C1721 0.929 . S
H1708 C1722 0.931 . S
H1709 C1724 0.930 . S
C1710 H1698 0.930 . S
C1710 C1711 1.399 . S
C1710 C1715 1.399 . S
C1711 C1710 1.399 . S
C1711 C1712 1.376 . S
C1712 H1699 0.930 . S
C1712 C1711 1.376 . S
C1712 C1713 1.388 . S
C1713 H1700 0.930 . S
C1713 C1712 1.388 . S
C1713 C1714 1.390 . S
C1714 C1713 1.390 . S
C1714 C1715 1.394 . S
C1714 C1720 1.465 . S
C1715 C1710 1.399 . S
C1715 C1714 1.394 . S
C1715 C1716 1.516 . S
C1716 C1715 1.516 . S
C1716 C1717 1.502 . S
C1716 C1718 1.561 . S
C1716 C1719 1.526 . S
C1717 H1701 0.959 . S
C1717 H1702 0.959 . S
C1717 H1703 0.961 . S
C1717 C1716 1.502 . S
C1718 H1704 0.960 . S
C1718 H1705 0.961 . S
C1718 H1706 0.959 . S
C1718 C1716 1.561 . S
C1719 C1716 1.526 . S
C1719 C1720 1.396 . S
C1719 C1724 1.390 . S
C1720 C1714 1.465 . S
C1720 C1719 1.396 . S
C1720 C1721 1.399 . S
C1721 H1707 0.929 . S
C1721 C1720 1.399 . S
C1721 C1722 1.385 . S
C1722 H1708 0.931 . S
C1722 C1721 1.385 . S
C1722 C1723 1.389 . S
C1723 C1722 1.389 . S
C1723 C1724 1.387 . S
C1724 H1709 0.930 . S
C1724 C1719 1.390 . S
C1724 C1723 1.387 . S
H1725 C1737 0.930 . S
H1726 C1739 0.930 . S
H1727 C1740 0.930 . S
H1728 C1744 0.959 . S
H1729 C1744 0.959 . S
H1730 C1744 0.961 . S
H1731 C1745 0.960 . S
H1732 C1745 0.961 . S
H1733 C1745 0.959 . S
H1734 C1748 0.929 . S
H1735 C1749 0.931 . S
H1736 C1751 0.930 . S
C1737 H1725 0.930 . S
C1737 C1738 1.399 . S
C1737 C1742 1.399 . S
C1738 C1737 1.399 . S
C1738 C1739 1.376 . S
C1739 H1726 0.930 . S
C1739 C1738 1.376 . S
C1739 C1740 1.388 . S
C1740 H1727 0.930 . S
C1740 C1739 1.388 . S
C1740 C1741 1.390 . S
C1741 C1740 1.390 . S
C1741 C1742 1.394 . S
C1741 C1747 1.465 . S
C1742 C1737 1.399 . S
C1742 C1741 1.394 . S
C1742 C1743 1.516 . S
C1743 C1742 1.516 . S
C1743 C1744 1.502 . S
C1743 C1745 1.561 . S
C1743 C1746 1.526 . S
C1744 H1728 0.959 . S
C1744 H1729 0.959 . S
C1744 H1730 0.961 . S
C1744 C1743 1.502 . S
C1745 H1731 0.960 . S
C1745 H1732 0.961 . S
C1745 H1733 0.959 . S
C1745 C1743 1.561 . S
C1746 C1743 1.526 . S
C1746 C1747 1.396 . S
C1746 C1751 1.390 . S
C1747 C1741 1.465 . S
C1747 C1746 1.396 . S
C1747 C1748 1.399 . S
C1748 H1734 0.929 . S
C1748 C1747 1.399 . S
C1748 C1749 1.385 . S
C1749 H1735 0.931 . S
C1749 C1748 1.385 . S
C1749 C1750 1.389 . S
C1750 C1749 1.389 . S
C1750 C1751 1.387 . S
C1751 H1736 0.930 . S
C1751 C1746 1.390 . S
C1751 C1750 1.387 . S
H1752 C1764 0.930 . S
H1753 C1766 0.930 . S
H1754 C1767 0.930 . S
H1755 C1771 0.959 . S
H1756 C1771 0.959 . S
H1757 C1771 0.961 . S
H1758 C1772 0.960 . S
H1759 C1772 0.961 . S
H1760 C1772 0.959 . S
H1761 C1775 0.929 . S
H1762 C1776 0.920 1_556 S
H1763 C1778 0.930 . S
C1764 H1752 0.930 . S
C1764 C1765 1.399 . S
C1764 C1769 1.399 . S
C1765 C1764 1.399 . S
C1765 C1766 1.376 . S
C1766 H1753 0.930 . S
C1766 C1765 1.376 . S
C1766 C1767 1.388 . S
C1767 H1754 0.930 . S
C1767 C1766 1.388 . S
C1767 C1768 1.390 . S
C1768 C1767 1.390 . S
C1768 C1769 1.394 . S
C1768 C1774 1.465 . S
C1769 C1764 1.399 . S
C1769 C1768 1.394 . S
C1769 C1770 1.516 . S
C1770 C1769 1.516 . S
C1770 C1771 1.502 . S
C1770 C1772 1.561 . S
C1770 C1773 1.526 . S
C1771 H1755 0.959 . S
C1771 H1756 0.959 . S
C1771 H1757 0.961 . S
C1771 C1770 1.502 . S
C1772 H1758 0.960 . S
C1772 H1759 0.961 . S
C1772 H1760 0.959 . S
C1772 C1770 1.561 . S
C1773 C1770 1.526 . S
C1773 C1774 1.396 . S
C1773 C1778 1.390 . S
C1774 C1768 1.465 . S
C1774 C1773 1.396 . S
C1774 C1775 1.399 . S
C1775 H1761 0.929 . S
C1775 C1774 1.399 . S
C1775 C1776 1.385 . S
C1776 H1762 0.920 1_554 S
C1776 C1775 1.385 . S
C1776 C1777 1.389 . S
C1777 C1776 1.389 . S
C1777 C1778 1.387 . S
C1778 H1763 0.930 . S
C1778 C1773 1.390 . S
C1778 C1777 1.387 . S
H1779 C1791 0.930 . S
H1780 C1793 0.930 . S
H1781 C1794 0.930 . S
H1782 C1798 0.959 . S
H1783 C1798 0.959 . S
H1784 C1798 0.961 . S
H1785 C1799 0.960 . S
H1786 C1799 0.961 . S
H1787 C1799 0.959 . S
H1788 C1802 0.929 . S
H1789 C1803 0.931 . S
H1790 C1805 0.930 . S
C1791 H1779 0.930 . S
C1791 C1792 1.399 . S
C1791 C1796 1.399 . S
C1792 C1791 1.399 . S
C1792 C1793 1.376 . S
C1793 H1780 0.930 . S
C1793 C1792 1.376 . S
C1793 C1794 1.388 . S
C1794 H1781 0.930 . S
C1794 C1793 1.388 . S
C1794 C1795 1.390 . S
C1795 C1794 1.390 . S
C1795 C1796 1.394 . S
C1795 C1801 1.465 . S
C1796 C1791 1.399 . S
C1796 C1795 1.394 . S
C1796 C1797 1.516 . S
C1797 C1796 1.516 . S
C1797 C1798 1.502 . S
C1797 C1799 1.561 . S
C1797 C1800 1.526 . S
C1798 H1782 0.959 . S
C1798 H1783 0.959 . S
C1798 H1784 0.961 . S
C1798 C1797 1.502 . S
C1799 H1785 0.960 . S
C1799 H1786 0.961 . S
C1799 H1787 0.959 . S
C1799 C1797 1.561 . S
C1800 C1797 1.526 . S
C1800 C1801 1.396 . S
C1800 C1805 1.390 . S
C1801 C1795 1.465 . S
C1801 C1800 1.396 . S
C1801 C1802 1.399 . S
C1802 H1788 0.929 . S
C1802 C1801 1.399 . S
C1802 C1803 1.385 . S
C1803 H1789 0.931 . S
C1803 C1802 1.385 . S
C1803 C1804 1.389 . S
C1804 C1803 1.389 . S
C1804 C1805 1.387 . S
C1805 H1790 0.930 . S
C1805 C1800 1.390 . S
C1805 C1804 1.387 . S
H1806 C1818 0.930 . S
H1807 C1820 0.930 . S
H1808 C1821 0.930 . S
H1809 C1825 0.959 . S
H1810 C1825 0.959 . S
H1811 C1825 0.961 . S
H1812 C1826 0.960 . S
H1813 C1826 0.961 . S
H1814 C1826 0.959 . S
H1815 C1829 0.929 . S
H1816 C1830 0.931 . S
H1817 C1832 0.930 . S
C1818 H1806 0.930 . S
C1818 C1819 1.399 . S
C1818 C1823 1.399 . S
C1819 C1818 1.399 . S
C1819 C1820 1.376 . S
C1820 H1807 0.930 . S
C1820 C1819 1.376 . S
C1820 C1821 1.388 . S
C1821 H1808 0.930 . S
C1821 C1820 1.388 . S
C1821 C1822 1.390 . S
C1822 C1821 1.390 . S
C1822 C1823 1.394 . S
C1822 C1828 1.465 . S
C1823 C1818 1.399 . S
C1823 C1822 1.394 . S
C1823 C1824 1.516 . S
C1824 C1823 1.516 . S
C1824 C1825 1.502 . S
C1824 C1826 1.561 . S
C1824 C1827 1.526 . S
C1825 H1809 0.959 . S
C1825 H1810 0.959 . S
C1825 H1811 0.961 . S
C1825 C1824 1.502 . S
C1826 H1812 0.960 . S
C1826 H1813 0.961 . S
C1826 H1814 0.959 . S
C1826 C1824 1.561 . S
C1827 C1824 1.526 . S
C1827 C1828 1.396 . S
C1827 C1832 1.390 . S
C1828 C1822 1.465 . S
C1828 C1827 1.396 . S
C1828 C1829 1.399 . S
C1829 H1815 0.929 . S
C1829 C1828 1.399 . S
C1829 C1830 1.385 . S
C1830 H1816 0.931 . S
C1830 C1829 1.385 . S
C1830 C1831 1.389 . S
C1831 C1830 1.389 . S
C1831 C1832 1.387 . S
C1832 H1817 0.930 . S
C1832 C1827 1.390 . S
C1832 C1831 1.387 . S
H1833 C1845 0.930 . S
H1834 C1847 0.930 . S
H1835 C1848 0.930 . S
H1836 C1852 0.959 . S
H1837 C1852 0.959 . S
H1838 C1852 0.961 . S
H1839 C1853 0.960 . S
H1840 C1853 0.961 . S
H1841 C1853 0.959 . S
H1842 C1856 0.929 . S
H1843 C1857 0.931 . S
H1844 C1859 0.930 . S
C1845 H1833 0.930 . S
C1845 C1846 1.399 . S
C1845 C1850 1.399 . S
C1846 C1845 1.399 . S
C1846 C1847 1.376 . S
C1847 H1834 0.930 . S
C1847 C1846 1.376 . S
C1847 C1848 1.388 . S
C1848 H1835 0.930 . S
C1848 C1847 1.388 . S
C1848 C1849 1.390 . S
C1849 C1848 1.390 . S
C1849 C1850 1.394 . S
C1849 C1855 1.465 . S
C1850 C1845 1.399 . S
C1850 C1849 1.394 . S
C1850 C1851 1.516 . S
C1851 C1850 1.516 . S
C1851 C1852 1.502 . S
C1851 C1853 1.561 . S
C1851 C1854 1.526 . S
C1852 H1836 0.959 . S
C1852 H1837 0.959 . S
C1852 H1838 0.961 . S
C1852 C1851 1.502 . S
C1853 H1839 0.960 . S
C1853 H1840 0.961 . S
C1853 H1841 0.959 . S
C1853 C1851 1.561 . S
C1854 C1851 1.526 . S
C1854 C1855 1.396 . S
C1854 C1859 1.390 . S
C1855 C1849 1.465 . S
C1855 C1854 1.396 . S
C1855 C1856 1.399 . S
C1856 H1842 0.929 . S
C1856 C1855 1.399 . S
C1856 C1857 1.385 . S
C1857 H1843 0.931 . S
C1857 C1856 1.385 . S
C1857 C1858 1.389 . S
C1858 C1857 1.389 . S
C1858 C1859 1.387 . S
C1859 H1844 0.930 . S
C1859 C1854 1.390 . S
C1859 C1858 1.387 . S
H1860 C1872 0.930 . S
H1861 C1874 0.930 . S
H1862 C1875 0.930 . S
H1863 C1879 0.959 . S
H1864 C1879 0.959 . S
H1865 C1879 0.961 . S
H1866 C1880 0.960 . S
H1867 C1880 0.961 . S
H1868 C1880 0.959 . S
H1869 C1883 0.929 . S
H1870 C1884 0.931 . S
H1871 C1886 0.930 . S
C1872 H1860 0.930 . S
C1872 C1873 1.399 . S
C1872 C1877 1.399 . S
C1873 C1872 1.399 . S
C1873 C1874 1.376 . S
C1874 H1861 0.930 . S
C1874 C1873 1.376 . S
C1874 C1875 1.388 . S
C1875 H1862 0.930 . S
C1875 C1874 1.388 . S
C1875 C1876 1.390 . S
C1876 C1875 1.390 . S
C1876 C1877 1.394 . S
C1876 C1882 1.465 . S
C1877 C1872 1.399 . S
C1877 C1876 1.394 . S
C1877 C1878 1.516 . S
C1878 C1877 1.516 . S
C1878 C1879 1.502 . S
C1878 C1880 1.561 . S
C1878 C1881 1.526 . S
C1879 H1863 0.959 . S
C1879 H1864 0.959 . S
C1879 H1865 0.961 . S
C1879 C1878 1.502 . S
C1880 H1866 0.960 . S
C1880 H1867 0.961 . S
C1880 H1868 0.959 . S
C1880 C1878 1.561 . S
C1881 C1878 1.526 . S
C1881 C1882 1.396 . S
C1881 C1886 1.390 . S
C1882 C1876 1.465 . S
C1882 C1881 1.396 . S
C1882 C1883 1.399 . S
C1883 H1869 0.929 . S
C1883 C1882 1.399 . S
C1883 C1884 1.385 . S
C1884 H1870 0.931 . S
C1884 C1883 1.385 . S
C1884 C1885 1.389 . S
C1885 C1884 1.389 . S
C1885 C1886 1.387 . S
C1886 H1871 0.930 . S
C1886 C1881 1.390 . S
C1886 C1885 1.387 . S
H1887 C1899 0.930 . S
H1888 C1901 0.930 . S
H1889 C1902 0.930 . S
H1890 C1906 0.959 . S
H1891 C1906 0.959 . S
H1892 C1906 0.961 . S
H1893 C1907 0.960 . S
H1894 C1907 0.961 . S
H1895 C1907 0.959 . S
H1896 C1910 0.929 . S
H1897 C1911 0.931 . S
H1898 C1913 0.930 . S
C1899 H1887 0.930 . S
C1899 C1900 1.399 . S
C1899 C1904 1.399 . S
C1900 C1899 1.399 . S
C1900 C1901 1.376 . S
C1901 H1888 0.930 . S
C1901 C1900 1.376 . S
C1901 C1902 1.388 . S
C1902 H1889 0.930 . S
C1902 C1901 1.388 . S
C1902 C1903 1.390 . S
C1903 C1902 1.390 . S
C1903 C1904 1.394 . S
C1903 C1909 1.465 . S
C1904 C1899 1.399 . S
C1904 C1903 1.394 . S
C1904 C1905 1.516 . S
C1905 C1904 1.516 . S
C1905 C1906 1.502 . S
C1905 C1907 1.561 . S
C1905 C1908 1.526 . S
C1906 H1890 0.959 . S
C1906 H1891 0.959 . S
C1906 H1892 0.961 . S
C1906 C1905 1.502 . S
C1907 H1893 0.960 . S
C1907 H1894 0.961 . S
C1907 H1895 0.959 . S
C1907 C1905 1.561 . S
C1908 C1905 1.526 . S
C1908 C1909 1.396 . S
C1908 C1913 1.390 . S
C1909 C1903 1.465 . S
C1909 C1908 1.396 . S
C1909 C1910 1.399 . S
C1910 H1896 0.929 . S
C1910 C1909 1.399 . S
C1910 C1911 1.385 . S
C1911 H1897 0.931 . S
C1911 C1910 1.385 . S
C1911 C1912 1.389 . S
C1912 C1911 1.389 . S
C1912 C1913 1.387 . S
C1913 H1898 0.930 . S
C1913 C1908 1.390 . S
C1913 C1912 1.387 . S
H1914 C1926 0.930 . S
H1915 C1928 0.930 . S
H1916 C1929 0.930 . S
H1917 C1933 0.959 . S
H1918 C1933 0.959 . S
H1919 C1933 0.961 . S
H1920 C1934 0.960 . S
H1921 C1934 0.961 . S
H1922 C1934 0.959 . S
H1923 C1937 0.929 . S
H1924 C1938 0.931 . S
H1925 C1940 0.930 . S
C1926 H1914 0.930 . S
C1926 C1927 1.399 . S
C1926 C1931 1.399 . S
C1927 C1926 1.399 . S
C1927 C1928 1.376 . S
C1928 H1915 0.930 . S
C1928 C1927 1.376 . S
C1928 C1929 1.388 . S
C1929 H1916 0.930 . S
C1929 C1928 1.388 . S
C1929 C1930 1.390 . S
C1930 C1929 1.390 . S
C1930 C1931 1.394 . S
C1930 C1936 1.465 . S
C1931 C1926 1.399 . S
C1931 C1930 1.394 . S
C1931 C1932 1.516 . S
C1932 C1931 1.516 . S
C1932 C1933 1.502 . S
C1932 C1934 1.561 . S
C1932 C1935 1.526 . S
C1933 H1917 0.959 . S
C1933 H1918 0.959 . S
C1933 H1919 0.961 . S
C1933 C1932 1.502 . S
C1934 H1920 0.960 . S
C1934 H1921 0.961 . S
C1934 H1922 0.959 . S
C1934 C1932 1.561 . S
C1935 C1932 1.526 . S
C1935 C1936 1.396 . S
C1935 C1940 1.390 . S
C1936 C1930 1.465 . S
C1936 C1935 1.396 . S
C1936 C1937 1.399 . S
C1937 H1923 0.929 . S
C1937 C1936 1.399 . S
C1937 C1938 1.385 . S
C1938 H1924 0.931 . S
C1938 C1937 1.385 . S
C1938 C1939 1.389 . S
C1939 C1938 1.389 . S
C1939 C1940 1.387 . S
C1940 H1925 0.930 . S
C1940 C1935 1.390 . S
C1940 C1939 1.387 . S
H1941 C1953 0.930 . S
H1942 C1955 0.930 . S
H1943 C1956 0.930 . S
H1944 C1960 0.959 . S
H1945 C1960 0.959 . S
H1946 C1960 0.961 . S
H1947 C1961 0.960 . S
H1948 C1961 0.961 . S
H1949 C1961 0.959 . S
H1950 C1964 0.929 . S
H1951 C1965 0.931 . S
H1952 C1967 0.930 . S
C1953 H1941 0.930 . S
C1953 C1954 1.399 . S
C1953 C1958 1.399 . S
C1954 C1953 1.399 . S
C1954 C1955 1.376 . S
C1955 H1942 0.930 . S
C1955 C1954 1.376 . S
C1955 C1956 1.388 . S
C1956 H1943 0.930 . S
C1956 C1955 1.388 . S
C1956 C1957 1.390 . S
C1957 C1956 1.390 . S
C1957 C1958 1.394 . S
C1957 C1963 1.465 . S
C1958 C1953 1.399 . S
C1958 C1957 1.394 . S
C1958 C1959 1.516 . S
C1959 C1958 1.516 . S
C1959 C1960 1.502 . S
C1959 C1961 1.561 . S
C1959 C1962 1.526 . S
C1960 H1944 0.959 . S
C1960 H1945 0.959 . S
C1960 H1946 0.961 . S
C1960 C1959 1.502 . S
C1961 H1947 0.960 . S
C1961 H1948 0.961 . S
C1961 H1949 0.959 . S
C1961 C1959 1.561 . S
C1962 C1959 1.526 . S
C1962 C1963 1.396 . S
C1962 C1967 1.390 . S
C1963 C1957 1.465 . S
C1963 C1962 1.396 . S
C1963 C1964 1.399 . S
C1964 H1950 0.929 . S
C1964 C1963 1.399 . S
C1964 C1965 1.385 . S
C1965 H1951 0.931 . S
C1965 C1964 1.385 . S
C1965 C1966 1.389 . S
C1966 C1965 1.389 . S
C1966 C1967 1.387 . S
C1967 H1952 0.930 . S
C1967 C1962 1.390 . S
C1967 C1966 1.387 . S
H1968 C1980 0.930 . S
H1969 C1982 0.930 . S
H1970 C1983 0.930 . S
H1971 C1987 0.959 . S
H1972 C1987 0.959 . S
H1973 C1987 0.961 . S
H1974 C1988 0.960 . S
H1975 C1988 0.961 . S
H1976 C1988 0.959 . S
H1977 C1991 0.929 . S
H1978 C1992 0.931 . S
H1979 C1994 0.930 . S
C1980 H1968 0.930 . S
C1980 C1981 1.399 . S
C1980 C1985 1.399 . S
C1981 C1980 1.399 . S
C1981 C1982 1.376 . S
C1982 H1969 0.930 . S
C1982 C1981 1.376 . S
C1982 C1983 1.388 . S
C1983 H1970 0.930 . S
C1983 C1982 1.388 . S
C1983 C1984 1.390 . S
C1984 C1983 1.390 . S
C1984 C1985 1.394 . S
C1984 C1990 1.465 . S
C1985 C1980 1.399 . S
C1985 C1984 1.394 . S
C1985 C1986 1.516 . S
C1986 C1985 1.516 . S
C1986 C1987 1.502 . S
C1986 C1988 1.561 . S
C1986 C1989 1.526 . S
C1987 H1971 0.959 . S
C1987 H1972 0.959 . S
C1987 H1973 0.961 . S
C1987 C1986 1.502 . S
C1988 H1974 0.960 . S
C1988 H1975 0.961 . S
C1988 H1976 0.959 . S
C1988 C1986 1.561 . S
C1989 C1986 1.526 . S
C1989 C1990 1.396 . S
C1989 C1994 1.390 . S
C1990 C1984 1.465 . S
C1990 C1989 1.396 . S
C1990 C1991 1.399 . S
C1991 H1977 0.929 . S
C1991 C1990 1.399 . S
C1991 C1992 1.385 . S
C1992 H1978 0.931 . S
C1992 C1991 1.385 . S
C1992 C1993 1.389 . S
C1993 C1992 1.389 . S
C1993 C1994 1.387 . S
C1994 H1979 0.930 . S
C1994 C1989 1.390 . S
C1994 C1993 1.387 . S
H1995 C2007 0.930 . S
H1996 C2009 0.930 . S
H1997 C2010 0.930 . S
H1998 C2014 0.959 . S
H1999 C2014 0.959 . S
H2000 C2014 0.961 . S
H2001 C2015 0.960 . S
H2002 C2015 0.961 . S
H2003 C2015 0.959 . S
H2004 C2018 0.929 . S
H2005 C2019 0.931 . S
H2006 C2021 0.930 . S
C2007 H1995 0.930 . S
C2007 C2008 1.399 . S
C2007 C2012 1.399 . S
C2008 C2007 1.399 . S
C2008 C2009 1.376 . S
C2009 H1996 0.930 . S
C2009 C2008 1.376 . S
C2009 C2010 1.388 . S
C2010 H1997 0.930 . S
C2010 C2009 1.388 . S
C2010 C2011 1.390 . S
C2011 C2010 1.390 . S
C2011 C2012 1.394 . S
C2011 C2017 1.465 . S
C2012 C2007 1.399 . S
C2012 C2011 1.394 . S
C2012 C2013 1.516 . S
C2013 C2012 1.516 . S
C2013 C2014 1.502 . S
C2013 C2015 1.561 . S
C2013 C2016 1.526 . S
C2014 H1998 0.959 . S
C2014 H1999 0.959 . S
C2014 H2000 0.961 . S
C2014 C2013 1.502 . S
C2015 H2001 0.960 . S
C2015 H2002 0.961 . S
C2015 H2003 0.959 . S
C2015 C2013 1.561 . S
C2016 C2013 1.526 . S
C2016 C2017 1.396 . S
C2016 C2021 1.390 . S
C2017 C2011 1.465 . S
C2017 C2016 1.396 . S
C2017 C2018 1.399 . S
C2018 H2004 0.929 . S
C2018 C2017 1.399 . S
C2018 C2019 1.385 . S
C2019 H2005 0.931 . S
C2019 C2018 1.385 . S
C2019 C2020 1.389 . S
C2020 C2019 1.389 . S
C2020 C2021 1.387 . S
C2021 H2006 0.930 . S
C2021 C2016 1.390 . S
C2021 C2020 1.387 . S
H2022 C2034 0.930 . S
H2023 C2036 0.930 . S
H2024 C2037 0.930 . S
H2025 C2041 0.959 . S
H2026 C2041 0.959 . S
H2027 C2041 0.961 . S
H2028 C2042 0.960 . S
H2029 C2042 0.961 . S
H2030 C2042 0.959 . S
H2031 C2045 0.929 . S
H2032 C2046 0.931 . S
H2033 C2048 0.930 . S
C2034 H2022 0.930 . S
C2034 C2035 1.399 . S
C2034 C2039 1.399 . S
C2035 C2034 1.399 . S
C2035 C2036 1.376 . S
C2036 H2023 0.930 . S
C2036 C2035 1.376 . S
C2036 C2037 1.388 . S
C2037 H2024 0.930 . S
C2037 C2036 1.388 . S
C2037 C2038 1.390 . S
C2038 C2037 1.390 . S
C2038 C2039 1.394 . S
C2038 C2044 1.465 . S
C2039 C2034 1.399 . S
C2039 C2038 1.394 . S
C2039 C2040 1.516 . S
C2040 C2039 1.516 . S
C2040 C2041 1.502 . S
C2040 C2042 1.561 . S
C2040 C2043 1.526 . S
C2041 H2025 0.959 . S
C2041 H2026 0.959 . S
C2041 H2027 0.961 . S
C2041 C2040 1.502 . S
C2042 H2028 0.960 . S
C2042 H2029 0.961 . S
C2042 H2030 0.959 . S
C2042 C2040 1.561 . S
C2043 C2040 1.526 . S
C2043 C2044 1.396 . S
C2043 C2048 1.390 . S
C2044 C2038 1.465 . S
C2044 C2043 1.396 . S
C2044 C2045 1.399 . S
C2045 H2031 0.929 . S
C2045 C2044 1.399 . S
C2045 C2046 1.385 . S
C2046 H2032 0.931 . S
C2046 C2045 1.385 . S
C2046 C2047 1.389 . S
C2047 C2046 1.389 . S
C2047 C2048 1.387 . S
C2048 H2033 0.930 . S
C2048 C2043 1.390 . S
C2048 C2047 1.387 . S
H2049 C2061 0.930 . S
H2050 C2063 0.930 . S
H2051 C2064 0.930 . S
H2052 C2068 0.959 . S
H2053 C2068 0.959 . S
H2054 C2068 0.961 . S
H2055 C2069 0.960 . S
H2056 C2069 0.961 . S
H2057 C2069 0.959 . S
H2058 C2072 0.929 . S
H2059 C2073 0.931 . S
H2060 C2075 0.930 . S
C2061 H2049 0.930 . S
C2061 C2062 1.399 . S
C2061 C2066 1.399 . S
C2062 C2061 1.399 . S
C2062 C2063 1.376 . S
C2063 H2050 0.930 . S
C2063 C2062 1.376 . S
C2063 C2064 1.388 . S
C2064 H2051 0.930 . S
C2064 C2063 1.388 . S
C2064 C2065 1.390 . S
C2065 C2064 1.390 . S
C2065 C2066 1.394 . S
C2065 C2071 1.465 . S
C2066 C2061 1.399 . S
C2066 C2065 1.394 . S
C2066 C2067 1.516 . S
C2067 C2066 1.516 . S
C2067 C2068 1.502 . S
C2067 C2069 1.561 . S
C2067 C2070 1.526 . S
C2068 H2052 0.959 . S
C2068 H2053 0.959 . S
C2068 H2054 0.961 . S
C2068 C2067 1.502 . S
C2069 H2055 0.960 . S
C2069 H2056 0.961 . S
C2069 H2057 0.959 . S
C2069 C2067 1.561 . S
C2070 C2067 1.526 . S
C2070 C2071 1.396 . S
C2070 C2075 1.390 . S
C2071 C2065 1.465 . S
C2071 C2070 1.396 . S
C2071 C2072 1.399 . S
C2072 H2058 0.929 . S
C2072 C2071 1.399 . S
C2072 C2073 1.385 . S
C2073 H2059 0.931 . S
C2073 C2072 1.385 . S
C2073 C2074 1.389 . S
C2074 C2073 1.389 . S
C2074 C2075 1.387 . S
C2075 H2060 0.930 . S
C2075 C2070 1.390 . S
C2075 C2074 1.387 . S
H2076 C2088 0.930 . S
H2077 C2090 0.930 . S
H2078 C2091 0.930 . S
H2079 C2095 0.959 . S
H2080 C2095 0.959 . S
H2081 C2095 0.961 . S
H2082 C2096 0.960 . S
H2083 C2096 0.961 . S
H2084 C2096 0.959 . S
H2085 C2099 0.929 . S
H2086 C2100 0.931 . S
H2087 C2102 0.930 . S
C2088 H2076 0.930 . S
C2088 C2089 1.399 . S
C2088 C2093 1.399 . S
C2089 C2088 1.399 . S
C2089 C2090 1.376 . S
C2090 H2077 0.930 . S
C2090 C2089 1.376 . S
C2090 C2091 1.388 . S
C2091 H2078 0.930 . S
C2091 C2090 1.388 . S
C2091 C2092 1.390 . S
C2092 C2091 1.390 . S
C2092 C2093 1.394 . S
C2092 C2098 1.465 . S
C2093 C2088 1.399 . S
C2093 C2092 1.394 . S
C2093 C2094 1.516 . S
C2094 C2093 1.516 . S
C2094 C2095 1.502 . S
C2094 C2096 1.561 . S
C2094 C2097 1.526 . S
C2095 H2079 0.959 . S
C2095 H2080 0.959 . S
C2095 H2081 0.961 . S
C2095 C2094 1.502 . S
C2096 H2082 0.960 . S
C2096 H2083 0.961 . S
C2096 H2084 0.959 . S
C2096 C2094 1.561 . S
C2097 C2094 1.526 . S
C2097 C2098 1.396 . S
C2097 C2102 1.390 . S
C2098 C2092 1.465 . S
C2098 C2097 1.396 . S
C2098 C2099 1.399 . S
C2099 H2085 0.929 . S
C2099 C2098 1.399 . S
C2099 C2100 1.385 . S
C2100 H2086 0.931 . S
C2100 C2099 1.385 . S
C2100 C2101 1.389 . S
C2101 C2100 1.389 . S
C2101 C2102 1.387 . S
C2102 H2087 0.930 . S
C2102 C2097 1.390 . S
C2102 C2101 1.387 . S
H2103 C2115 0.930 . S
H2104 C2117 0.930 . S
H2105 C2118 0.930 . S
H2106 C2122 0.959 . S
H2107 C2122 0.959 . S
H2108 C2122 0.961 . S
H2109 C2123 0.960 . S
H2110 C2123 0.961 . S
H2111 C2123 0.959 . S
H2112 C2126 0.929 . S
H2113 C2127 0.931 . S
H2114 C2129 0.930 . S
C2115 H2103 0.930 . S
C2115 C2116 1.399 . S
C2115 C2120 1.399 . S
C2116 C2115 1.399 . S
C2116 C2117 1.376 . S
C2117 H2104 0.930 . S
C2117 C2116 1.376 . S
C2117 C2118 1.388 . S
C2118 H2105 0.930 . S
C2118 C2117 1.388 . S
C2118 C2119 1.390 . S
C2119 C2118 1.390 . S
C2119 C2120 1.394 . S
C2119 C2125 1.465 . S
C2120 C2115 1.399 . S
C2120 C2119 1.394 . S
C2120 C2121 1.516 . S
C2121 C2120 1.516 . S
C2121 C2122 1.502 . S
C2121 C2123 1.561 . S
C2121 C2124 1.526 . S
C2122 H2106 0.959 . S
C2122 H2107 0.959 . S
C2122 H2108 0.961 . S
C2122 C2121 1.502 . S
C2123 H2109 0.960 . S
C2123 H2110 0.961 . S
C2123 H2111 0.959 . S
C2123 C2121 1.561 . S
C2124 C2121 1.526 . S
C2124 C2125 1.396 . S
C2124 C2129 1.390 . S
C2125 C2119 1.465 . S
C2125 C2124 1.396 . S
C2125 C2126 1.399 . S
C2126 H2112 0.929 . S
C2126 C2125 1.399 . S
C2126 C2127 1.385 . S
C2127 H2113 0.931 . S
C2127 C2126 1.385 . S
C2127 C2128 1.389 . S
C2128 C2127 1.389 . S
C2128 C2129 1.387 . S
C2129 H2114 0.930 . S
C2129 C2124 1.390 . S
C2129 C2128 1.387 . S
H2130 C2142 0.930 . S
H2131 C2144 0.930 . S
H2132 C2145 0.930 . S
H2133 C2149 0.959 . S
H2134 C2149 0.959 . S
H2135 C2149 0.961 . S
H2136 C2150 0.960 . S
H2137 C2150 0.961 . S
H2138 C2150 0.959 . S
H2139 C2153 0.929 . S
H2140 C2154 0.931 . S
H2141 C2156 0.930 . S
C2142 H2130 0.930 . S
C2142 C2143 1.399 . S
C2142 C2147 1.399 . S
C2143 C2142 1.399 . S
C2143 C2144 1.376 . S
C2144 H2131 0.930 . S
C2144 C2143 1.376 . S
C2144 C2145 1.388 . S
C2145 H2132 0.930 . S
C2145 C2144 1.388 . S
C2145 C2146 1.390 . S
C2146 C2145 1.390 . S
C2146 C2147 1.394 . S
C2146 C2152 1.465 . S
C2147 C2142 1.399 . S
C2147 C2146 1.394 . S
C2147 C2148 1.516 . S
C2148 C2147 1.516 . S
C2148 C2149 1.502 . S
C2148 C2150 1.561 . S
C2148 C2151 1.526 . S
C2149 H2133 0.959 . S
C2149 H2134 0.959 . S
C2149 H2135 0.961 . S
C2149 C2148 1.502 . S
C2150 H2136 0.960 . S
C2150 H2137 0.961 . S
C2150 H2138 0.959 . S
C2150 C2148 1.561 . S
C2151 C2148 1.526 . S
C2151 C2152 1.396 . S
C2151 C2156 1.390 . S
C2152 C2146 1.465 . S
C2152 C2151 1.396 . S
C2152 C2153 1.399 . S
C2153 H2139 0.929 . S
C2153 C2152 1.399 . S
C2153 C2154 1.385 . S
C2154 H2140 0.931 . S
C2154 C2153 1.385 . S
C2154 C2155 1.389 . S
C2155 C2154 1.389 . S
C2155 C2156 1.387 . S
C2156 H2141 0.930 . S
C2156 C2151 1.390 . S
C2156 C2155 1.387 . S
H2157 C2169 0.930 . S
H2158 C2171 0.930 . S
H2159 C2172 0.930 . S
H2160 C2176 0.959 . S
H2161 C2176 0.959 . S
H2162 C2176 0.961 . S
H2163 C2177 0.960 . S
H2164 C2177 0.961 . S
H2165 C2177 0.959 . S
H2166 C2180 0.929 . S
H2167 C2181 0.931 . S
H2168 C2183 0.930 . S
C2169 H2157 0.930 . S
C2169 C2170 1.399 . S
C2169 C2174 1.399 . S
C2170 C2169 1.399 . S
C2170 C2171 1.376 . S
C2171 H2158 0.930 . S
C2171 C2170 1.376 . S
C2171 C2172 1.388 . S
C2172 H2159 0.930 . S
C2172 C2171 1.388 . S
C2172 C2173 1.390 . S
C2173 C2172 1.390 . S
C2173 C2174 1.394 . S
C2173 C2179 1.465 . S
C2174 C2169 1.399 . S
C2174 C2173 1.394 . S
C2174 C2175 1.516 . S
C2175 C2174 1.516 . S
C2175 C2176 1.502 . S
C2175 C2177 1.561 . S
C2175 C2178 1.526 . S
C2176 H2160 0.959 . S
C2176 H2161 0.959 . S
C2176 H2162 0.961 . S
C2176 C2175 1.502 . S
C2177 H2163 0.960 . S
C2177 H2164 0.961 . S
C2177 H2165 0.959 . S
C2177 C2175 1.561 . S
C2178 C2175 1.526 . S
C2178 C2179 1.396 . S
C2178 C2183 1.390 . S
C2179 C2173 1.465 . S
C2179 C2178 1.396 . S
C2179 C2180 1.399 . S
C2180 H2166 0.929 . S
C2180 C2179 1.399 . S
C2180 C2181 1.385 . S
C2181 H2167 0.931 . S
C2181 C2180 1.385 . S
C2181 C2182 1.389 . S
C2182 C2181 1.389 . S
C2182 C2183 1.387 . S
C2183 H2168 0.930 . S
C2183 C2178 1.390 . S
C2183 C2182 1.387 . S
H2184 C2196 0.930 . S
H2185 C2198 0.930 . S
H2186 C2199 0.930 . S
H2187 C2203 0.959 . S
H2188 C2203 0.959 . S
H2189 C2203 0.961 . S
H2190 C2204 0.960 . S
H2191 C2204 0.961 . S
H2192 C2204 0.959 . S
H2193 C2207 0.929 . S
H2194 C2208 0.931 . S
H2195 C2210 0.930 . S
C2196 H2184 0.930 . S
C2196 C2197 1.399 . S
C2196 C2201 1.399 . S
C2197 C2196 1.399 . S
C2197 C2198 1.376 . S
C2198 H2185 0.930 . S
C2198 C2197 1.376 . S
C2198 C2199 1.388 . S
C2199 H2186 0.930 . S
C2199 C2198 1.388 . S
C2199 C2200 1.390 . S
C2200 C2199 1.390 . S
C2200 C2201 1.394 . S
C2200 C2206 1.465 . S
C2201 C2196 1.399 . S
C2201 C2200 1.394 . S
C2201 C2202 1.516 . S
C2202 C2201 1.516 . S
C2202 C2203 1.502 . S
C2202 C2204 1.561 . S
C2202 C2205 1.526 . S
C2203 H2187 0.959 . S
C2203 H2188 0.959 . S
C2203 H2189 0.961 . S
C2203 C2202 1.502 . S
C2204 H2190 0.960 . S
C2204 H2191 0.961 . S
C2204 H2192 0.959 . S
C2204 C2202 1.561 . S
C2205 C2202 1.526 . S
C2205 C2206 1.396 . S
C2205 C2210 1.390 . S
C2206 C2200 1.465 . S
C2206 C2205 1.396 . S
C2206 C2207 1.399 . S
C2207 H2193 0.929 . S
C2207 C2206 1.399 . S
C2207 C2208 1.385 . S
C2208 H2194 0.931 . S
C2208 C2207 1.385 . S
C2208 C2209 1.389 . S
C2209 C2208 1.389 . S
C2209 C2210 1.387 . S
C2210 H2195 0.930 . S
C2210 C2205 1.390 . S
C2210 C2209 1.387 . S
H2211 C2223 0.930 . S
H2212 C2225 0.930 . S
H2213 C2226 0.930 . S
H2214 C2230 0.959 . S
H2215 C2230 0.959 . S
H2216 C2230 0.961 . S
H2217 C2231 0.960 . S
H2218 C2231 0.961 . S
H2219 C2231 0.959 . S
H2220 C2234 0.929 . S
H2221 C2235 0.931 . S
H2222 C2237 0.930 . S
C2223 H2211 0.930 . S
C2223 C2224 1.399 . S
C2223 C2228 1.399 . S
C2224 C2223 1.399 . S
C2224 C2225 1.376 . S
C2225 H2212 0.930 . S
C2225 C2224 1.376 . S
C2225 C2226 1.388 . S
C2226 H2213 0.930 . S
C2226 C2225 1.388 . S
C2226 C2227 1.390 . S
C2227 C2226 1.390 . S
C2227 C2228 1.394 . S
C2227 C2233 1.465 . S
C2228 C2223 1.399 . S
C2228 C2227 1.394 . S
C2228 C2229 1.516 . S
C2229 C2228 1.516 . S
C2229 C2230 1.502 . S
C2229 C2231 1.561 . S
C2229 C2232 1.526 . S
C2230 H2214 0.959 . S
C2230 H2215 0.959 . S
C2230 H2216 0.961 . S
C2230 C2229 1.502 . S
C2231 H2217 0.960 . S
C2231 H2218 0.961 . S
C2231 H2219 0.959 . S
C2231 C2229 1.561 . S
C2232 C2229 1.526 . S
C2232 C2233 1.396 . S
C2232 C2237 1.390 . S
C2233 C2227 1.465 . S
C2233 C2232 1.396 . S
C2233 C2234 1.399 . S
C2234 H2220 0.929 . S
C2234 C2233 1.399 . S
C2234 C2235 1.385 . S
C2235 H2221 0.931 . S
C2235 C2234 1.385 . S
C2235 C2236 1.389 . S
C2236 C2235 1.389 . S
C2236 C2237 1.387 . S
C2237 H2222 0.930 . S
C2237 C2232 1.390 . S
C2237 C2236 1.387 . S
H2238 C2250 0.930 . S
H2239 C2252 0.930 . S
H2240 C2253 0.930 . S
H2241 C2257 0.959 . S
H2242 C2257 0.959 . S
H2243 C2257 0.961 . S
H2244 C2258 0.960 . S
H2245 C2258 0.961 . S
H2246 C2258 0.959 . S
H2247 C2261 0.929 . S
H2248 C2262 0.931 . S
H2249 C2264 0.930 . S
C2250 H2238 0.930 . S
C2250 C2251 1.399 . S
C2250 C2255 1.399 . S
C2251 C2250 1.399 . S
C2251 C2252 1.376 . S
C2252 H2239 0.930 . S
C2252 C2251 1.376 . S
C2252 C2253 1.388 . S
C2253 H2240 0.930 . S
C2253 C2252 1.388 . S
C2253 C2254 1.390 . S
C2254 C2253 1.390 . S
C2254 C2255 1.394 . S
C2254 C2260 1.465 . S
C2255 C2250 1.399 . S
C2255 C2254 1.394 . S
C2255 C2256 1.516 . S
C2256 C2255 1.516 . S
C2256 C2257 1.502 . S
C2256 C2258 1.561 . S
C2256 C2259 1.526 . S
C2257 H2241 0.959 . S
C2257 H2242 0.959 . S
C2257 H2243 0.961 . S
C2257 C2256 1.502 . S
C2258 H2244 0.960 . S
C2258 H2245 0.961 . S
C2258 H2246 0.959 . S
C2258 C2256 1.561 . S
C2259 C2256 1.526 . S
C2259 C2260 1.396 . S
C2259 C2264 1.390 . S
C2260 C2254 1.465 . S
C2260 C2259 1.396 . S
C2260 C2261 1.399 . S
C2261 H2247 0.929 . S
C2261 C2260 1.399 . S
C2261 C2262 1.385 . S
C2262 H2248 0.931 . S
C2262 C2261 1.385 . S
C2262 C2263 1.389 . S
C2263 C2262 1.389 . S
C2263 C2264 1.387 . S
C2264 H2249 0.930 . S
C2264 C2259 1.390 . S
C2264 C2263 1.387 . S
H2265 C2277 0.930 . S
H2266 C2279 0.930 . S
H2267 C2280 0.930 . S
H2268 C2284 0.959 . S
H2269 C2284 0.959 . S
H2270 C2284 0.961 . S
H2271 C2285 0.960 . S
H2272 C2285 0.961 . S
H2273 C2285 0.959 . S
H2274 C2288 0.929 . S
H2275 C2289 0.931 . S
H2276 C2291 0.930 . S
C2277 H2265 0.930 . S
C2277 C2278 1.399 . S
C2277 C2282 1.399 . S
C2278 C2277 1.399 . S
C2278 C2279 1.376 . S
C2279 H2266 0.930 . S
C2279 C2278 1.376 . S
C2279 C2280 1.388 . S
C2280 H2267 0.930 . S
C2280 C2279 1.388 . S
C2280 C2281 1.390 . S
C2281 C2280 1.390 . S
C2281 C2282 1.394 . S
C2281 C2287 1.465 . S
C2282 C2277 1.399 . S
C2282 C2281 1.394 . S
C2282 C2283 1.516 . S
C2283 C2282 1.516 . S
C2283 C2284 1.502 . S
C2283 C2285 1.561 . S
C2283 C2286 1.526 . S
C2284 H2268 0.959 . S
C2284 H2269 0.959 . S
C2284 H2270 0.961 . S
C2284 C2283 1.502 . S
C2285 H2271 0.960 . S
C2285 H2272 0.961 . S
C2285 H2273 0.959 . S
C2285 C2283 1.561 . S
C2286 C2283 1.526 . S
C2286 C2287 1.396 . S
C2286 C2291 1.390 . S
C2287 C2281 1.465 . S
C2287 C2286 1.396 . S
C2287 C2288 1.399 . S
C2288 H2274 0.929 . S
C2288 C2287 1.399 . S
C2288 C2289 1.385 . S
C2289 H2275 0.931 . S
C2289 C2288 1.385 . S
C2289 C2290 1.389 . S
C2290 C2289 1.389 . S
C2290 C2291 1.387 . S
C2291 H2276 0.930 . S
C2291 C2286 1.390 . S
C2291 C2290 1.387 . S
C1021 C707 1.243 . S
C1009 C74 1.168 . S
C1048 C685 0.405 . S
C1036 C142 0.871 . S
C1075 C682 0.822 . S
C1063 C231 0.701 . S
C1090 C322 1.580 . S
C1102 C694 1.607 . S
C1117 C406 0.621 . S
C1129 C677 0.162 . S
C1156 C699 0.752 . S
C1144 C494 0.874 . S
C1171 C562 1.643 . S
C1183 C704 1.681 . S
C1198 C651 1.115 . S
C1210 C700 1.244 . S
C1237 C758 1.710 . S
C1225 C58 1.592 . S
C1252 C151 1.339 . S
C1264 C808 1.375 . S
C1291 C731 2.786 . S
C1279 C224 2.653 . S
C1318 C807 0.792 . S
C1306 C315 0.774 . S
C1333 C399 0.825 . S
C1345 C736 0.845 . S
C1372 C802 1.703 . S
C1360 C478 1.617 . S
C1387 C571 1.307 . S
C1399 C761 1.329 . S
C1414 C644 2.659 . S
C1426 C793 2.773 . S
C1441 C67 2.695 . S
C1453 C785 2.759 . S
C1468 C392 1.363 . S
C1480 C815 1.365 . S
C1507 C739 2.788 . S
C1495 C487 2.708 . S
C1534 C790 0.780 . S
C1522 C578 0.699 . S
C1549 C658 1.658 . S
C1561 C748 1.702 . S
C1576 C238 1.645 . S
C1588 C812 1.721 . S
C1615 C754 1.376 . S
C1603 C308 1.248 . S
C1630 C158 0.875 . S
C1642 C753 0.832 . S
C1657 C662 1.136 . S
C1669 C869 1.236 . S
C1684 C394 0.710 . S
C1696 C847 0.254 . S
C1723 C844 0.845 . S
C1711 C483 0.766 . S
C1750 C856 1.610 . S
C1738 C574 1.550 . S
C1765 C154 0.881 . S
C1777 C839 0.416 . S
C1804 C861 0.788 . S
C1792 C242 0.733 . S
C1819 C310 1.572 . S
C1831 C866 1.623 . S
C1846 C63 1.187 . S
C1858 C862 1.238 . S
C1873 C646 1.569 . S
C1885 C920 1.664 . S
C1912 C970 1.365 . S
C1900 C403 1.355 . S
C1927 C476 2.656 . S
C1939 C893 2.766 . S
C1954 C567 0.872 . S
C1966 C969 0.819 . S
C1993 C898 0.845 . S
C1981 C147 0.851 . S
C2008 C226 1.656 . S
C2020 C964 1.648 . S
C2047 C923 1.333 . S
C2035 C319 1.293 . S
C2074 C955 2.782 . S
C2062 C56 2.714 . S
C2101 C947 2.797 . S
C2089 C655 2.689 . S
C2116 C140 1.352 . S
C2128 C977 1.357 . S
C2143 C235 2.673 . S
C2155 C901 2.819 . S
C2182 C952 0.804 . S
C2170 C326 0.836 . S
C2197 C70 1.579 . S
C2209 C910 1.647 . S
C2224 C490 1.669 . S
C2236 C974 1.711 . S
C2263 C916 1.344 . S
C2251 C560 1.326 . S
C2290 C915 0.792 . S
C2278 C410 0.722 . S
