# Generated by pormake.
# Topology ssa, (4,4)-cn, num edge types: 1
# Building blocks:
#     Node 0, Type 0, BuildingBlock: KOZSID_clean_sbu_0, # of connection points: 4
#     Node 1, Type 0, BuildingBlock: KOZSID_clean_sbu_0, # of connection points: 4
#     Node 2, Type 0, BuildingBlock: KOZSID_clean_sbu_0, # of connection points: 4
#     Node 3, Type 0, BuildingBlock: KOZSID_clean_sbu_0, # of connection points: 4
#     Node 4, Type 0, BuildingBlock: KOZSID_clean_sbu_0, # of connection points: 4
#     Node 5, Type 0, BuildingBlock: KOZSID_clean_sbu_0, # of connection points: 4
#     Node 6, Type 1, BuildingBlock: KOZSID_clean_sbu_0, # of connection points: 4
#     Node 7, Type 1, BuildingBlock: KOZSID_clean_sbu_0, # of connection points: 4
#     Node 8, Type 1, BuildingBlock: KOZSID_clean_sbu_0, # of connection points: 4
#     Node 9, Type 1, BuildingBlock: KOZSID_clean_sbu_0, # of connection points: 4
#     Node 10, Type 1, BuildingBlock: KOZSID_clean_sbu_0, # of connection points: 4
#     Node 11, Type 1, BuildingBlock: KOZSID_clean_sbu_0, # of connection points: 4
#     Edge 12, Type (0, 1), BuildingBlock: KIFKEQ_clean_linker_1, # of connection points: 2
#     Edge 13, Type (0, 1), BuildingBlock: KIFKEQ_clean_linker_1, # of connection points: 2
#     Edge 14, Type (0, 1), BuildingBlock: KIFKEQ_clean_linker_1, # of connection points: 2
#     Edge 15, Type (0, 1), BuildingBlock: KIFKEQ_clean_linker_1, # of connection points: 2
#     Edge 16, Type (0, 1), BuildingBlock: KIFKEQ_clean_linker_1, # of connection points: 2
#     Edge 17, Type (0, 1), BuildingBlock: KIFKEQ_clean_linker_1, # of connection points: 2
#     Edge 18, Type (0, 1), BuildingBlock: KIFKEQ_clean_linker_1, # of connection points: 2
#     Edge 19, Type (0, 1), BuildingBlock: KIFKEQ_clean_linker_1, # of connection points: 2
#     Edge 20, Type (0, 1), BuildingBlock: KIFKEQ_clean_linker_1, # of connection points: 2
#     Edge 21, Type (0, 1), BuildingBlock: KIFKEQ_clean_linker_1, # of connection points: 2
#     Edge 22, Type (0, 1), BuildingBlock: KIFKEQ_clean_linker_1, # of connection points: 2
#     Edge 23, Type (0, 1), BuildingBlock: KIFKEQ_clean_linker_1, # of connection points: 2
#     Edge 24, Type (0, 1), BuildingBlock: KIFKEQ_clean_linker_1, # of connection points: 2
#     Edge 25, Type (0, 1), BuildingBlock: KIFKEQ_clean_linker_1, # of connection points: 2
#     Edge 26, Type (0, 1), BuildingBlock: KIFKEQ_clean_linker_1, # of connection points: 2
#     Edge 27, Type (0, 1), BuildingBlock: KIFKEQ_clean_linker_1, # of connection points: 2
#     Edge 28, Type (0, 1), BuildingBlock: KIFKEQ_clean_linker_1, # of connection points: 2
#     Edge 29, Type (0, 1), BuildingBlock: KIFKEQ_clean_linker_1, # of connection points: 2
#     Edge 30, Type (0, 1), BuildingBlock: KIFKEQ_clean_linker_1, # of connection points: 2
#     Edge 31, Type (0, 1), BuildingBlock: KIFKEQ_clean_linker_1, # of connection points: 2
#     Edge 32, Type (0, 1), BuildingBlock: KIFKEQ_clean_linker_1, # of connection points: 2
#     Edge 33, Type (0, 1), BuildingBlock: KIFKEQ_clean_linker_1, # of connection points: 2
#     Edge 34, Type (0, 1), BuildingBlock: KIFKEQ_clean_linker_1, # of connection points: 2
#     Edge 35, Type (0, 1), BuildingBlock: KIFKEQ_clean_linker_1, # of connection points: 2
# Relax obj value: 0.009
# Max RMSD: 0.036
# Mean RMSD: 0.017
data_MOF--net-ssa--node1-KOZSID_clean_sbu_0--node2-KOZSID_clean_sbu_0--edge1-KIFKEQ_clean_linker_1
_symmetry_space_group_name_H-M    P1
_symmetry_Int_Tables_number       1
_symmetry_cell_setting            triclinic
loop_
_symmetry_equiv_pos_as_xyz
'x, y, z'
_cell_length_a     59.077056
_cell_length_b     60.414029
_cell_length_c     42.445201
_cell_angle_alpha  90.592405
_cell_angle_beta   93.026956
_cell_angle_gamma 122.39565
loop_
_atom_site_label
_atom_site_type_symbol
_atom_site_fract_x
_atom_site_fract_y
_atom_site_fract_z
_atom_type_partial_charge
C0 C 0.96102 0.5144 0.99153 0.0
C1 C 0.94071 0.51303 0.00819 0.0
C2 C 0.94251 0.5046 0.03733 0.0
C3 C 0.96384 0.50153 0.03696 0.0
N4 N 0.9761 0.50785 0.0095 0.0
Co5 Co 0.00798 0.50619 0.99908 0.0
N6 N 0.00949 0.4921 0.04134 0.0
C7 C 0.99273 0.48684 0.06465 0.0
C8 C 0.99939 0.47865 0.09153 0.0
C9 C 0.0219 0.47888 0.08524 0.0
C10 C 0.02764 0.48705 0.05461 0.0
N11 N 0.03992 0.50463 0.98874 0.0
C12 C 0.05506 0.49816 0.00678 0.0
C13 C 0.07558 0.49986 0.99029 0.0
C14 C 0.07383 0.50836 0.96115 0.0
C15 C 0.05233 0.51117 0.96138 0.0
N16 N 0.00637 0.52018 0.95678 0.0
C17 C 0.02301 0.52528 0.93339 0.0
C18 C 0.01618 0.53324 0.90642 0.0
C19 C 0.99367 0.533 0.91274 0.0
C20 C 0.98809 0.52505 0.94347 0.0
N21 N 0.03269 0.54251 0.01701 0.0
C22 C 0.07044 0.5924 0.04524 0.0
C23 C 0.07369 0.58521 0.01526 0.0
C24 C 0.05462 0.56044 1.0016 0.0
C25 C 0.04747 0.57458 0.06031 0.0
C26 C 0.02902 0.55001 0.04588 0.0
N27 N 0.98327 0.4699 0.98108 0.0
C28 C 0.96846 0.43811 0.93745 0.0
C29 C 0.94489 0.42068 0.95176 0.0
C30 C 0.94149 0.42776 0.98175 0.0
C31 C 0.96087 0.4522 0.99596 0.0
C32 C 0.98724 0.46234 0.95243 0.0
H33 H 0.957 0.45653 0.01867 0.0
H34 H 0.00443 0.47485 0.93991 0.0
H35 H 0.05832 0.55611 0.97881 0.0
H36 H 0.01227 0.53724 0.05892 0.0
C37 C 0.97214 0.49169 0.0615 0.0
C38 C 0.96455 0.52126 0.95843 0.0
C39 C 0.05125 0.49091 0.03975 0.0
C40 C 0.04382 0.52072 0.93668 0.0
H41 H 0.92585 0.51729 0.99997 0.0
H42 H 0.92951 0.5007 0.05633 0.0
H43 H 0.98957 0.47394 0.11349 0.0
H44 H 0.03314 0.47422 0.10179 0.0
H45 H 0.09052 0.49572 0.99859 0.0
H46 H 0.08694 0.51239 0.94223 0.0
H47 H 0.02592 0.53786 0.88441 0.0
H48 H 0.98232 0.53752 0.89618 0.0
H49 H 0.09097 0.59855 0.00244 0.0
H50 H 0.04414 0.57914 0.0837 0.0
H51 H 0.97201 0.4336 0.91415 0.0
H52 H 0.9238 0.41465 0.99408 0.0
C53 C 0.54667 0.01887 0.55376 0.0
C54 C 0.55042 0.01149 0.5835 0.0
C55 C 0.52703 0.98875 0.58904 0.0
C56 C 0.51032 0.98363 0.56264 0.0
N57 N 0.52181 1.00142 0.54018 0.0
Co58 Co 0.50393 0.00305 0.49949 0.0
N59 N 0.46846 0.97163 0.50958 0.0
C60 C 0.46302 0.95754 0.5358 0.0
C61 C 0.43728 0.93607 0.53512 0.0
C62 C 0.42571 0.93608 0.50646 0.0
C63 C 0.44514 0.95773 0.49133 0.0
N64 N 0.48607 0.00494 0.45903 0.0
C65 C 0.46097 0.98799 0.44588 0.0
C66 C 0.45664 0.99609 0.41696 0.0
C67 C 0.48014 0.01869 0.41123 0.0
C68 C 0.49733 0.02309 0.43693 0.0
N69 N 0.53939 0.03424 0.4892 0.0
C70 C 0.54508 0.04776 0.46249 0.0
C71 C 0.57116 0.06862 0.46267 0.0
C72 C 0.58265 0.06878 0.49148 0.0
C73 C 0.56275 0.04802 0.50729 0.0
N74 N 0.5125 0.97923 0.47768 0.0
C75 C 0.52093 0.94336 0.44496 0.0
C76 C 0.52568 0.9663 0.43122 0.0
C77 C 0.5214 0.98377 0.44781 0.0
C78 C 0.51248 0.93908 0.4757 0.0
C79 C 0.50852 0.95709 0.49148 0.0
N80 N 0.49535 0.02686 0.52132 0.0
C81 C 0.49716 0.06789 0.52481 0.0
C82 C 0.48677 0.06237 0.5546 0.0
C83 C 0.48018 0.03842 0.567 0.0
C84 C 0.4845 0.02113 0.55013 0.0
C85 C 0.50123 0.05005 0.50874 0.0
H86 H 0.47917 0.00336 0.5611 0.0
H87 H 0.50958 0.05566 0.4864 0.0
H88 H 0.52502 1.00061 0.43573 0.0
H89 H 0.50195 0.95249 0.51472 0.0
C90 C 0.48309 0.96382 0.55954 0.0
C91 C 0.56635 0.04356 0.54033 0.0
C92 C 0.44132 0.96315 0.45877 0.0
C93 C 0.52482 0.04221 0.43931 0.0
H94 H 0.56779 0.02184 0.60009 0.0
H95 H 0.52233 0.97794 0.61042 0.0
H96 H 0.42835 0.92153 0.5528 0.0
H97 H 0.40555 0.92128 0.49736 0.0
H98 H 0.43864 0.98614 0.40119 0.0
H99 H 0.48454 0.02988 0.39018 0.0
H100 H 0.58035 0.08276 0.44462 0.0
H101 H 0.60302 0.08316 0.50042 0.0
H102 H 0.53204 0.97053 0.40738 0.0
H103 H 0.50897 0.92189 0.48772 0.0
H104 H 0.5028 0.08622 0.51416 0.0
H105 H 0.47159 0.0329 0.5897 0.0
C106 C 0.5492 0.53336 0.95874 0.0
C107 C 0.55544 0.54682 0.93101 0.0
C108 C 0.53312 0.54662 0.92039 0.0
C109 C 0.51459 0.53302 0.94206 0.0
N110 N 0.52392 0.52506 0.96634 0.0
Co111 Co 0.50295 0.50237 1.00121 0.0
N112 N 0.46955 0.50042 0.98436 0.0
C113 C 0.46661 0.51175 0.95846 0.0
C114 C 0.44174 0.50831 0.9541 0.0
C115 C 0.42821 0.49458 0.97923 0.0
C116 C 0.44574 0.49048 0.99744 0.0
N117 N 0.48177 0.47892 0.0354 0.0
C118 C 0.45649 0.4705 0.04308 0.0
C119 C 0.44963 0.45521 0.06932 0.0
C120 C 0.47153 0.45427 0.07881 0.0
C121 C 0.49046 0.46901 0.05798 0.0
N122 N 0.53661 0.5052 0.01885 0.0
C123 C 0.53977 0.4949 0.0456 0.0
C124 C 0.56517 0.49979 0.0512 0.0
C125 C 0.5789 0.51365 0.02623 0.0
C126 C 0.56092 0.51625 0.00676 0.0
N127 N 0.51216 0.5338 0.02793 0.0
C128 C 0.52152 0.57678 0.0666 0.0
C129 C 0.52255 0.55607 0.07942 0.0
C130 C 0.51783 0.535 0.05988 0.0
C131 C 0.51627 0.57578 0.03392 0.0
C132 C 0.51182 0.5544 0.0152 0.0
N133 N 0.49372 0.47084 0.9744 0.0
C134 C 0.49665 0.4328 0.96494 0.0
C135 C 0.48402 0.4281 0.93456 0.0
C136 C 0.47578 0.44499 0.92499 0.0
C137 C 0.481 0.46609 0.94486 0.0
C138 C 0.50088 0.45375 0.98436 0.0
H139 H 0.47472 0.47839 0.93555 0.0
H140 H 0.51038 0.45589 0.0072 0.0
H141 H 0.51845 0.51967 0.07126 0.0
H142 H 0.50785 0.55483 0.9905 0.0
C143 C 0.48799 0.5264 0.93953 0.0
C144 C 0.56707 0.52717 0.97572 0.0
C145 C 0.43955 0.47868 0.02802 0.0
C146 C 0.51761 0.47756 0.06221 0.0
H147 H 0.57388 0.55519 0.91914 0.0
H148 H 0.53043 0.55465 0.89887 0.0
H149 H 0.43462 0.51566 0.93547 0.0
H150 H 0.40805 0.48891 0.9842 0.0
H151 H 0.43121 0.44661 0.08127 0.0
H152 H 0.47394 0.44533 0.09963 0.0
H153 H 0.5724 0.49285 0.0702 0.0
H154 H 0.59942 0.5201 0.02203 0.0
H155 H 0.52629 0.55572 0.10461 0.0
H156 H 0.51569 0.59151 0.02269 0.0
H157 H 0.50387 0.42077 0.97376 0.0
H158 H 0.46525 0.4421 0.90219 0.0
C159 C 0.95415 0.44663 0.51302 0.0
C160 C 0.93069 0.42685 0.49686 0.0
C161 C 0.92994 0.43554 0.46752 0.0
C162 C 0.95295 0.45997 0.46732 0.0
N163 N 0.96862 0.46729 0.49461 0.0
Co164 Co 0.00344 0.50171 0.5047 0.0
N165 N 1.00093 0.51561 0.4627 0.0
C166 C 0.98089 0.50304 0.43969 0.0
C167 C 0.98506 0.51708 0.41311 0.0
C168 C 0.0094 0.53987 0.41927 0.0
C169 C 0.01871 0.53841 0.44939 0.0
N170 N 0.03834 0.53609 0.51471 0.0
C171 C 0.05271 0.55682 0.49636 0.0
C172 C 0.07651 0.57634 0.51217 0.0
C173 C 0.07748 0.5675 0.54135 0.0
C174 C 0.05431 0.54321 0.54173 0.0
N175 N 0.00583 0.48786 0.54679 0.0
C176 C 0.02577 0.50056 0.56989 0.0
C177 C 0.02128 0.48689 0.59683 0.0
C178 C 0.99681 0.46425 0.59086 0.0
C179 C 0.98776 0.46532 0.56039 0.0
N180 N 0.0236 0.4877 0.48592 0.0
C181 C 0.05702 0.47617 0.45444 0.0
C182 C 0.06423 0.48726 0.48515 0.0
C183 C 0.04716 0.4925 0.5005 0.0
C184 C 0.03192 0.46908 0.44068 0.0
C185 C 0.01563 0.47494 0.45675 0.0
N186 N 0.98332 0.51576 0.52343 0.0
C187 C 0.9762 0.53631 0.56768 0.0
C188 C 0.95081 0.52873 0.55444 0.0
C189 C 0.94268 0.51613 0.52455 0.0
C190 C 0.95929 0.51018 0.50939 0.0
C191 C 0.99202 0.52966 0.55188 0.0
H192 H 0.95189 0.50041 0.48675 0.0
H193 H 0.0108 0.53524 0.56363 0.0
H194 H 0.0539 0.5012 0.52373 0.0
H195 H 0.99716 0.46983 0.44456 0.0
C196 C 0.95937 0.47732 0.44288 0.0
C197 C 0.96125 0.44516 0.54612 0.0
C198 C 0.04514 0.5586 0.46362 0.0
C199 C 0.0476 0.52606 0.56639 0.0
H200 H 0.9154 0.40828 0.50563 0.0
H201 H 0.9141 0.42558 0.44889 0.0
H202 H 0.97232 0.51111 0.39144 0.0
H203 H 0.01947 0.55552 0.40312 0.0
H204 H 0.09183 0.59484 0.50327 0.0
H205 H 0.0935 0.57734 0.55981 0.0
H206 H 0.03387 0.49306 0.61863 0.0
H207 H 0.9865 0.44906 0.60747 0.0
H208 H 0.08325 0.49246 0.49701 0.0
H209 H 0.02544 0.46031 0.41694 0.0
H210 H 0.98334 0.54621 0.59082 0.0
H211 H 0.92334 0.51042 0.51315 0.0
C212 C 0.46718 0.9878 0.06311 0.0
C213 C 0.46804 0.99814 0.09284 0.0
C214 C 0.49064 0.02275 0.09556 0.0
C215 C 0.50237 0.02602 0.06756 0.0
N216 N 0.48849 0.00512 0.04686 0.0
Co217 Co 0.49951 1.00117 0.00417 0.0
N218 N 0.53377 0.0368 0.0091 0.0
C219 C 0.54215 0.05402 0.03422 0.0
C220 C 0.56543 0.07753 0.03028 0.0
C221 C 0.57232 0.07541 1.00077 0.0
C222 C 0.55289 0.05047 0.98837 0.0
N223 N 0.51055 0.99711 0.96159 0.0
C224 C 0.53218 0.01418 0.94561 0.0
C225 C 0.53212 0.00319 0.91668 0.0
C226 C 0.50936 0.97869 0.91385 0.0
C227 C 0.49695 0.97595 0.94119 0.0
N228 N 0.46519 0.96561 0.99915 0.0
C229 C 0.45639 0.94865 0.97372 0.0
C230 C 0.43243 0.92561 0.97718 0.0
C231 C 0.42561 0.92778 0.00675 0.0
C232 C 0.44597 0.95207 0.01976 0.0
N233 N 0.48105 0.01741 0.98431 0.0
C234 C 0.46349 0.04567 0.94996 0.0
C235 C 0.45671 0.0208 0.93908 0.0
C236 C 0.46562 0.00712 0.9565 0.0
C237 C 0.47707 0.055 0.97974 0.0
C238 C 0.48527 0.04048 0.99655 0.0
N239 N 0.51802 0.98498 0.02397 0.0
C240 C 0.52246 0.94766 0.02861 0.0
C241 C 0.53767 0.95801 0.05733 0.0
C242 C 0.54457 0.98301 0.0678 0.0
C243 C 0.53464 0.99606 0.05086 0.0
C244 C 0.51315 0.96148 0.01232 0.0
H245 H 0.54005 0.01471 0.06051 0.0
H246 H 0.50126 0.95229 0.99095 0.0
H247 H 0.46056 0.98871 0.94641 0.0
H248 H 0.49591 0.04887 0.0188 0.0
C249 C 0.52695 0.04802 0.06054 0.0
C250 C 0.44636 0.96103 0.05203 0.0
C251 C 0.55291 0.04111 0.95637 0.0
C252 C 0.47194 0.95427 0.94776 0.0
H253 H 0.4541 0.98871 0.111 0.0
H254 H 0.49801 0.03638 0.11586 0.0
H255 H 0.57577 0.09448 0.04659 0.0
H256 H 0.58943 0.09082 0.98952 0.0
H257 H 0.54682 0.01209 0.89918 0.0
H258 H 0.50245 0.9647 0.89398 0.0
H259 H 0.42154 0.90896 0.96049 0.0
H260 H 0.40787 0.91296 0.01771 0.0
H261 H 0.44532 0.01223 0.91668 0.0
H262 H 0.48269 0.07406 0.98947 0.0
H263 H 0.51653 0.92837 0.01939 0.0
H264 H 0.55698 0.99221 0.08946 0.0
C265 C 0.51824 0.56029 0.50657 0.0
C266 C 0.51464 0.57778 0.52359 0.0
C267 C 0.49972 0.5645 0.54813 0.0
C268 C 0.49511 0.53979 0.5446 0.0
N269 N 0.5068 0.5367 0.51981 0.0
Co270 Co 0.5035 0.50359 0.50421 0.0
N271 N 0.47924 0.4832 0.53819 0.0
C272 C 0.47132 0.49252 0.56144 0.0
C273 C 0.45634 0.4742 0.58271 0.0
C274 C 0.45516 0.452 0.57292 0.0
C275 C 0.46947 0.45811 0.54607 0.0
N276 N 0.49929 0.4703 0.48773 0.0
C277 C 0.48669 0.44625 0.49988 0.0
C278 C 0.48867 0.42837 0.48139 0.0
C279 C 0.50369 0.44183 0.45698 0.0
C280 C 0.50986 0.46701 0.46193 0.0
N281 N 0.52857 0.52417 0.471 0.0
C282 C 0.53846 0.51537 0.44961 0.0
C283 C 0.5547 0.53404 0.42936 0.0
C284 C 0.5548 0.55592 0.43799 0.0
C285 C 0.53855 0.54927 0.46313 0.0
N286 N 0.53494 0.51097 0.53292 0.0
C287 C 0.57824 0.51942 0.57488 0.0
C288 C 0.57302 0.50675 0.5451 0.0
C289 C 0.55179 0.50311 0.52461 0.0
C290 C 0.56142 0.52806 0.58288 0.0
C291 C 0.54001 0.52342 0.56202 0.0
N292 N 0.47217 0.49626 0.47556 0.0
C293 C 0.45005 0.48713 0.42304 0.0
C294 C 0.429 0.48851 0.43434 0.0
C295 C 0.42983 0.49348 0.46677 0.0
C296 C 0.45131 0.49715 0.48677 0.0
C297 C 0.47124 0.49108 0.44382 0.0
H298 H 0.45071 0.50091 0.5112 0.0
H299 H 0.48684 0.49019 0.43358 0.0
H300 H 0.54931 0.49359 0.50228 0.0
H301 H 0.52779 0.53001 0.57018 0.0
C302 C 0.47913 0.51881 0.56334 0.0
C303 C 0.53093 0.56637 0.47677 0.0
C304 C 0.47511 0.44023 0.53035 0.0
C305 C 0.52863 0.48863 0.44579 0.0
H306 H 0.52143 0.5978 0.51817 0.0
H307 H 0.49239 0.57172 0.56582 0.0
H308 H 0.448 0.47691 0.60343 0.0
H309 H 0.44558 0.43365 0.58475 0.0
H310 H 0.48107 0.40803 0.48597 0.0
H311 H 0.51056 0.43451 0.43885 0.0
H312 H 0.56399 0.53158 0.40944 0.0
H313 H 0.5647 0.57427 0.42618 0.0
H314 H 0.58489 0.49916 0.53754 0.0
H315 H 0.56466 0.53854 0.60516 0.0
H316 H 0.45056 0.48361 0.39809 0.0
H317 H 0.41385 0.49438 0.47683 0.0
C318 C 0.21632 0.50329 0.184 0.0
C319 C 0.22103 0.5279 0.17775 0.0
C320 C 0.24421 0.54583 0.1947 0.0
C321 C 0.25222 0.53129 0.21056 0.0
N322 N 0.23572 0.50509 0.20461 0.0
Co323 Co 0.23875 0.47688 0.22519 0.0
N324 N 0.27207 0.50342 0.25154 0.0
C325 C 0.28492 0.52985 0.2509 0.0
C326 C 0.3077 0.54306 0.27079 0.0
C327 C 0.3097 0.52395 0.2849 0.0
C328 C 0.28784 0.50008 0.27285 0.0
N329 N 0.24143 0.44866 0.2463 0.0
C330 C 0.25987 0.45046 0.26847 0.0
C331 C 0.25401 0.42588 0.27689 0.0
C332 C 0.23121 0.4079 0.25927 0.0
C333 C 0.22439 0.42243 0.24125 0.0
N334 N 0.20576 0.45039 0.19837 0.0
C335 C 0.19397 0.42402 0.19748 0.0
C336 C 0.17183 0.41087 0.17659 0.0
C337 C 0.16912 0.42993 0.16352 0.0
C338 C 0.18971 0.45372 0.17745 0.0
N339 N 0.26172 0.47797 0.19194 0.0
C340 C 0.29811 0.47955 0.15032 0.0
C341 C 0.27629 0.45565 0.15896 0.0
C342 C 0.2585 0.45532 0.17958 0.0
C343 C 0.30068 0.50263 0.16163 0.0
C344 C 0.28227 0.50139 0.18202 0.0
N345 N 0.21591 0.47574 0.25853 0.0
C346 C 0.17653 0.45146 0.28826 0.0
C347 C 0.18262 0.47438 0.30469 0.0
C348 C 0.20594 0.49792 0.29791 0.0
C349 C 0.22205 0.49817 0.27486 0.0
C350 C 0.19338 0.45256 0.26565 0.0
H351 H 0.2393 0.51678 0.27062 0.0
H352 H 0.1876 0.4344 0.25404 0.0
H353 H 0.24268 0.43648 0.18571 0.0
H354 H 0.28537 0.51965 0.18984 0.0
C355 C 0.27475 0.54168 0.23186 0.0
C356 C 0.19273 0.47882 0.17053 0.0
C357 C 0.2833 0.47486 0.28205 0.0
C358 C 0.20304 0.4121 0.21817 0.0
H359 H 0.20879 0.53255 0.16296 0.0
H360 H 0.25378 0.56694 0.19584 0.0
H361 H 0.32126 0.56407 0.27454 0.0
H362 H 0.32556 0.52724 0.30203 0.0
H363 H 0.26522 0.42144 0.29382 0.0
H364 H 0.22105 0.38674 0.25924 0.0
H365 H 0.15886 0.38989 0.17194 0.0
H366 H 0.15348 0.42663 0.14603 0.0
H367 H 0.27346 0.43723 0.15079 0.0
H368 H 0.31697 0.52162 0.15499 0.0
H369 H 0.15856 0.43274 0.2923 0.0
H370 H 0.21193 0.51618 0.31039 0.0
C371 C 0.71024 0.2134 0.69391 0.0
C372 C 0.68961 0.21692 0.68407 0.0
C373 C 0.69331 0.23779 0.70159 0.0
C374 C 0.71569 0.24564 0.72128 0.0
N375 N 0.72684 0.23134 0.71711 0.0
Co376 Co 0.75764 0.23415 0.74334 0.0
N377 N 0.76204 0.26387 0.77033 0.0
C378 C 0.74812 0.2757 0.76666 0.0
C379 C 0.75657 0.2965 0.7876 0.0
C380 C 0.77738 0.29831 0.80554 0.0
C381 C 0.78028 0.27827 0.7946 0.0
N382 N 0.78755 0.23605 0.77038 0.0
C383 C 0.80254 0.25228 0.79554 0.0
C384 C 0.82065 0.2463 0.80834 0.0
C385 C 0.81728 0.2258 0.7903 0.0
C386 C 0.79726 0.22035 0.76778 0.0
N387 N 0.75409 0.2053 0.71554 0.0
C388 C 0.76995 0.19544 0.71701 0.0
C389 C 0.76319 0.17634 0.69412 0.0
C390 C 0.74149 0.1736 0.6772 0.0
C391 C 0.7361 0.19107 0.69107 0.0
N392 N 0.78405 0.2605 0.71488 0.0
C393 C 0.82253 0.29936 0.67655 0.0
C394 C 0.82609 0.28008 0.68939 0.0
C395 C 0.80682 0.26104 0.70823 0.0
C396 C 0.79911 0.29852 0.68307 0.0
C397 C 0.78036 0.27916 0.70197 0.0
N398 N 0.73125 0.20793 0.77183 0.0
C399 C 0.7104 0.16571 0.79604 0.0
C400 C 0.69264 0.17028 0.8112 0.0
C401 C 0.69499 0.19431 0.80637 0.0
C402 C 0.71396 0.21247 0.78667 0.0
C403 C 0.72947 0.18466 0.7769 0.0
H404 H 0.71417 0.23006 0.7838 0.0
H405 H 0.74245 0.17996 0.76626 0.0
H406 H 0.81087 0.24702 0.71726 0.0
H407 H 0.76315 0.2799 0.70604 0.0
C408 C 0.72655 0.26616 0.74411 0.0
C409 C 0.7127 0.19221 0.68145 0.0
C410 C 0.80105 0.27413 0.80744 0.0
C411 C 0.78898 0.2024 0.74222 0.0
H412 H 0.67324 0.20536 0.6665 0.0
H413 H 0.68084 0.24593 0.70054 0.0
H414 H 0.74858 0.30889 0.78954 0.0
H415 H 0.78919 0.31288 0.8244 0.0
H416 H 0.83516 0.25609 0.8283 0.0
H417 H 0.82858 0.21647 0.79277 0.0
H418 H 0.7723 0.16507 0.69087 0.0
H419 H 0.73037 0.15973 0.65748 0.0
H420 H 0.84358 0.27944 0.68476 0.0
H421 H 0.79536 0.31309 0.67418 0.0
H422 H 0.70948 0.14743 0.79842 0.0
H423 H 0.6824 0.19943 0.81793 0.0
C424 C 0.51246 0.71699 0.21833 0.0
C425 C 0.48782 0.69676 0.2049 0.0
C426 C 0.4686 0.69924 0.21782 0.0
C427 C 0.48249 0.72069 0.23837 0.0
N428 N 0.50948 0.73221 0.23933 0.0
Co429 Co 0.53712 0.76366 0.26657 0.0
N430 N 0.50867 0.76683 0.28615 0.0
C431 C 0.48175 0.75086 0.28023 0.0
C432 C 0.46726 0.75829 0.29647 0.0
C433 C 0.486 0.78048 0.31363 0.0
C434 C 0.51098 0.78531 0.30691 0.0
N435 N 0.56473 0.79529 0.29358 0.0
C436 C 0.56176 0.81129 0.31331 0.0
C437 C 0.58633 0.83159 0.32671 0.0
C438 C 0.60556 0.82861 0.31469 0.0
C439 C 0.59171 0.80671 0.29477 0.0
N440 N 0.56554 0.76036 0.24714 0.0
C441 C 0.59243 0.77591 0.25369 0.0
C442 C 0.60688 0.76859 0.23714 0.0
C443 C 0.58813 0.74696 0.21906 0.0
C444 C 0.56321 0.74227 0.2257 0.0
N445 N 0.53919 0.78712 0.23308 0.0
C446 C 0.5421 0.8237 0.19039 0.0
C447 C 0.56542 0.82604 0.20378 0.0
C448 C 0.56351 0.80759 0.22475 0.0
C449 C 0.51732 0.802 0.1975 0.0
C450 C 0.51633 0.78408 0.21869 0.0
N451 N 0.53513 0.74018 0.30015 0.0
C452 C 0.55729 0.72636 0.33704 0.0
C453 C 0.53271 0.70419 0.34356 0.0
C454 C 0.50928 0.70088 0.329 0.0
C455 C 0.51093 0.71905 0.30771 0.0
C456 C 0.55803 0.74396 0.31549 0.0
H457 H 0.49238 0.71533 0.29737 0.0
H458 H 0.57742 0.76017 0.31122 0.0
H459 H 0.58199 0.81067 0.23447 0.0
H460 H 0.49686 0.76822 0.2235 0.0
C461 C 0.47072 0.72997 0.25783 0.0
C462 C 0.53797 0.7203 0.21109 0.0
C463 C 0.53625 0.80832 0.31977 0.0
C464 C 0.60348 0.79702 0.27585 0.0
H465 H 0.48406 0.68152 0.18784 0.0
H466 H 0.44705 0.68665 0.21315 0.0
H467 H 0.44567 0.74907 0.29531 0.0
H468 H 0.48174 0.79211 0.32884 0.0
H469 H 0.58998 0.84715 0.34318 0.0
H470 H 0.6271 0.84119 0.31945 0.0
H471 H 0.62847 0.77779 0.23826 0.0
H472 H 0.59231 0.73579 0.20292 0.0
H473 H 0.58511 0.84253 0.19903 0.0
H474 H 0.49867 0.79897 0.18706 0.0
H475 H 0.57601 0.72973 0.34771 0.0
H476 H 0.48971 0.68423 0.33386 0.0
C477 C 0.74951 0.55962 0.74025 0.0
C478 C 0.75416 0.58414 0.73361 0.0
C479 C 0.77697 0.60219 0.75109 0.0
C480 C 0.78488 0.58782 0.76759 0.0
N481 N 0.76856 0.5616 0.76164 0.0
Co482 Co 0.77194 0.53357 0.7822 0.0
N483 N 0.80516 0.56024 0.80861 0.0
C484 C 0.81697 0.58662 0.80928 0.0
C485 C 0.83968 0.59992 0.82929 0.0
C486 C 0.84284 0.58099 0.84187 0.0
C487 C 0.82188 0.5571 0.82859 0.0
N488 N 0.77533 0.50554 0.80273 0.0
C489 C 0.79499 0.50751 0.82303 0.0
C490 C 0.79015 0.48294 0.82984 0.0
C491 C 0.76669 0.46488 0.81349 0.0
C492 C 0.7586 0.47929 0.79745 0.0
N493 N 0.73884 0.50686 0.75571 0.0
C494 C 0.72685 0.48048 0.75541 0.0
C495 C 0.705 0.46714 0.73422 0.0
C496 C 0.70262 0.48607 0.72029 0.0
C497 C 0.72308 0.51001 0.73413 0.0
N498 N 0.79476 0.53515 0.74859 0.0
C499 C 0.82786 0.53749 0.70183 0.0
C500 C 0.80606 0.51346 0.71011 0.0
C501 C 0.79001 0.51272 0.73356 0.0
C502 C 0.83275 0.56035 0.71706 0.0
C503 C 0.81593 0.55876 0.73998 0.0
N504 N 0.74895 0.53209 0.81571 0.0
C505 C 0.70867 0.50757 0.84398 0.0
C506 C 0.71232 0.53076 0.85679 0.0
C507 C 0.73544 0.55446 0.8502 0.0
C508 C 0.75335 0.55466 0.82992 0.0
C509 C 0.72718 0.50868 0.82379 0.0
H510 H 0.77026 0.57341 0.82565 0.0
H511 H 0.72306 0.49038 0.81442 0.0
H512 H 0.77406 0.49379 0.73928 0.0
H513 H 0.82052 0.57689 0.75048 0.0
C514 C 0.80689 0.59833 0.78977 0.0
C515 C 0.72629 0.53505 0.72637 0.0
C516 C 0.81911 0.53209 0.83529 0.0
C517 C 0.73665 0.46879 0.7753 0.0
H518 H 0.74211 0.58861 0.71816 0.0
H519 H 0.78637 0.62328 0.75215 0.0
H520 H 0.85267 0.62093 0.83375 0.0
H521 H 0.85898 0.58441 0.85862 0.0
H522 H 0.80259 0.47838 0.84439 0.0
H523 H 0.75717 0.44378 0.8125 0.0
H524 H 0.6923 0.44614 0.72947 0.0
H525 H 0.6874 0.48256 0.70206 0.0
H526 H 0.80175 0.49523 0.69906 0.0
H527 H 0.84937 0.57941 0.71111 0.0
H528 H 0.69112 0.48867 0.84851 0.0
H529 H 0.73962 0.57291 0.86034 0.0
C530 C 0.26598 0.81738 0.31183 0.0
C531 C 0.26042 0.83476 0.32557 0.0
C532 C 0.23521 0.82751 0.31374 0.0
C533 C 0.22689 0.8063 0.29342 0.0
N534 N 0.24532 0.7998 0.29175 0.0
Co535 Co 0.24209 0.77105 0.26494 0.0
N536 N 0.21287 0.76904 0.23726 0.0
C537 C 0.19825 0.77934 0.24412 0.0
C538 C 0.17959 0.7751 0.22026 0.0
C539 C 0.18234 0.7609 0.19714 0.0
C540 C 0.20247 0.75707 0.20836 0.0
N541 N 0.23885 0.74216 0.23838 0.0
C542 C 0.22594 0.73205 0.2096 0.0
C543 C 0.22805 0.71116 0.20009 0.0
C544 C 0.24239 0.70793 0.22399 0.0
C545 C 0.24827 0.72691 0.2467 0.0
N546 N 0.27125 0.7732 0.29278 0.0
C547 C 0.27694 0.75452 0.29577 0.0
C548 C 0.29849 0.76189 0.31691 0.0
C549 C 0.30677 0.78674 0.32788 0.0
C550 C 0.28975 0.79309 0.31268 0.0
N551 N 0.21524 0.74497 0.29215 0.0
C552 C 0.17817 0.70585 0.33061 0.0
C553 C 0.20109 0.72889 0.34392 0.0
C554 C 0.21931 0.74812 0.32436 0.0
C555 C 0.174 0.70328 0.29759 0.0
C556 C 0.1926 0.72293 0.27893 0.0
N557 N 0.26894 0.79691 0.23771 0.0
C558 C 0.30871 0.81238 0.20924 0.0
C559 C 0.3075 0.83362 0.1984 0.0
C560 C 0.28643 0.83599 0.20786 0.0
C561 C 0.26747 0.81754 0.22747 0.0
C562 C 0.28936 0.79436 0.22873 0.0
H563 H 0.25164 0.82001 0.23439 0.0
H564 H 0.29092 0.77827 0.23646 0.0
H565 H 0.23693 0.76538 0.33534 0.0
H566 H 0.18871 0.72003 0.2537 0.0
C567 C 0.20499 0.79572 0.27111 0.0
C568 C 0.29047 0.81733 0.31898 0.0
C569 C 0.20846 0.73912 0.19279 0.0
C570 C 0.26513 0.73296 0.27417 0.0
H571 H 0.27327 0.85109 0.34213 0.0
H572 H 0.22485 0.83744 0.31812 0.0
H573 H 0.16601 0.78197 0.21945 0.0
H574 H 0.17037 0.75358 0.17491 0.0
H575 H 0.21944 0.699 0.17855 0.0
H576 H 0.24814 0.69366 0.22451 0.0
H577 H 0.30785 0.75104 0.32259 0.0
H578 H 0.32338 0.79879 0.34504 0.0
H579 H 0.20535 0.73181 0.36928 0.0
H580 H 0.15639 0.68618 0.28608 0.0
H581 H 0.32428 0.80936 0.20234 0.0
H582 H 0.28473 0.85218 0.20053 0.0
C583 C 0.44235 0.26158 0.77529 0.0
C584 C 0.41733 0.2573 0.7806 0.0
C585 C 0.39876 0.23537 0.76287 0.0
C586 C 0.41336 0.22761 0.7475 0.0
N587 N 0.44019 0.24313 0.75451 0.0
Co588 Co 0.4688 0.24013 0.73504 0.0
N589 N 0.4414 0.20825 0.70821 0.0
C590 C 0.41437 0.19631 0.7075 0.0
C591 C 0.40067 0.17433 0.6877 0.0
C592 C 0.42006 0.17182 0.6753 0.0
C593 C 0.44458 0.19248 0.68835 0.0
N594 N 0.49746 0.23752 0.7151 0.0
C595 C 0.4954 0.21938 0.69396 0.0
C596 C 0.52051 0.22476 0.68689 0.0
C597 C 0.53906 0.24699 0.70412 0.0
C598 C 0.52435 0.25389 0.72076 0.0
N599 N 0.49621 0.27157 0.76239 0.0
C600 C 0.52317 0.2828 0.76401 0.0
C601 C 0.53684 0.3034 0.78575 0.0
C602 C 0.51753 0.30572 0.79865 0.0
C603 C 0.49306 0.2865 0.78366 0.0
N604 N 0.4671 0.21677 0.76852 0.0
C605 C 0.46433 0.18083 0.81226 0.0
C606 C 0.48909 0.2018 0.80382 0.0
C607 C 0.49001 0.21936 0.78206 0.0
C608 C 0.44102 0.1788 0.79938 0.0
C609 C 0.44287 0.19693 0.77791 0.0
N610 N 0.47037 0.26349 0.70155 0.0
C611 C 0.4953 0.30374 0.67405 0.0
C612 C 0.47162 0.29938 0.65881 0.0
C613 C 0.44752 0.27617 0.66416 0.0
C614 C 0.44738 0.25864 0.68532 0.0
C615 C 0.49423 0.28562 0.69509 0.0
H616 H 0.4283 0.24153 0.68848 0.0
H617 H 0.51289 0.29023 0.70631 0.0
H618 H 0.50946 0.23461 0.77624 0.0
H619 H 0.42436 0.19413 0.76878 0.0
C620 C 0.40248 0.20617 0.72589 0.0
C621 C 0.46758 0.28382 0.78981 0.0
C622 C 0.47027 0.1961 0.68121 0.0
C623 C 0.53514 0.27422 0.74387 0.0
H624 H 0.41286 0.269 0.79533 0.0
H625 H 0.3772 0.22642 0.76097 0.0
H626 H 0.37913 0.16153 0.68307 0.0
H627 H 0.41656 0.15642 0.65866 0.0
H628 H 0.52504 0.21345 0.6715 0.0
H629 H 0.56069 0.25649 0.7052 0.0
H630 H 0.55833 0.31552 0.79127 0.0
H631 H 0.52115 0.32018 0.81679 0.0
H632 H 0.50778 0.20461 0.81372 0.0
H633 H 0.42132 0.16284 0.805 0.0
H634 H 0.5145 0.32146 0.67062 0.0
H635 H 0.42873 0.2716 0.65225 0.0
H636 H 0.10346 0.52929 0.05572 0.0
H637 H 0.04565 0.44689 0.06524 0.0
H638 H 0.1376 0.52555 0.08626 0.0
H639 H 0.07955 0.44316 0.09646 0.0
H640 H 0.14044 0.45881 0.18272 0.0
H641 H 0.10594 0.46078 0.15033 0.0
H642 H 0.16318 0.50256 0.08059 0.0
H643 H 0.1974 0.49998 0.11272 0.0
C644 C 0.09813 0.5104 0.0644 0.0
C645 C 0.07193 0.48842 0.05837 0.0
C646 C 0.11763 0.50822 0.08177 0.0
C647 C 0.11126 0.48407 0.09385 0.0
C648 C 0.08501 0.46207 0.08775 0.0
C649 C 0.06563 0.46418 0.06991 0.0
C650 C 0.14548 0.4682 0.16033 0.0
C651 C 0.17157 0.47941 0.15027 0.0
C652 C 0.12578 0.4693 0.14178 0.0
C653 C 0.13188 0.48196 0.11297 0.0
C654 C 0.15796 0.49295 0.10282 0.0
C655 C 0.1775 0.49145 0.12113 0.0
H656 H 0.57174 0.08993 0.55531 0.0
H657 H 0.61002 0.04663 0.57059 0.0
H658 H 0.60756 0.12659 0.58897 0.0
H659 H 0.64547 0.08294 0.60509 0.0
H660 H 0.68116 0.14082 0.6944 0.0
H661 H 0.64606 0.10467 0.65954 0.0
H662 H 0.6599 0.15925 0.58688 0.0
H663 H 0.69559 0.19527 0.62152 0.0
C664 C 0.58784 0.08834 0.56602 0.0
C665 C 0.5881 0.06549 0.5609 0.0
C666 C 0.60828 0.10923 0.58513 0.0
C667 C 0.62911 0.10744 0.5997 0.0
C668 C 0.62943 0.08461 0.59438 0.0
C669 C 0.60923 0.06391 0.5748 0.0
C670 C 0.67661 0.14497 0.67095 0.0
C671 C 0.69072 0.1707 0.66059 0.0
C672 C 0.6567 0.12438 0.65105 0.0
C673 C 0.65034 0.12926 0.62063 0.0
C674 C 0.66433 0.15507 0.61036 0.0
C675 C 0.6846 0.1756 0.63008 0.0
H676 H 0.49368 0.60131 0.06265 0.0
H677 H 0.55796 0.60234 0.11742 0.0
H678 H 0.49906 0.63663 0.09696 0.0
H679 H 0.56356 0.63788 0.15164 0.0
H680 H 0.54494 0.68067 0.22684 0.0
H681 H 0.54187 0.64659 0.19173 0.0
H682 H 0.52816 0.68235 0.11137 0.0
H683 H 0.53061 0.71591 0.14688 0.0
C684 C 0.50922 0.6093 0.08177 0.0
C685 C 0.52538 0.59892 0.0872 0.0
C686 C 0.51235 0.62963 0.10149 0.0
C687 C 0.53178 0.64024 0.12717 0.0
C688 C 0.54809 0.62998 0.13245 0.0
C689 C 0.5449 0.60958 0.11278 0.0
C690 C 0.54148 0.68121 0.20162 0.0
C691 C 0.53801 0.70076 0.18942 0.0
C692 C 0.53982 0.6618 0.18145 0.0
C693 C 0.53467 0.66157 0.1486 0.0
C694 C 0.53171 0.68159 0.1365 0.0
C695 C 0.53332 0.70094 0.15672 0.0
H696 H 0.89876 0.49203 0.56354 0.0
H697 H 0.96109 0.5728 0.58712 0.0
H698 H 0.86898 0.4958 0.59742 0.0
H699 H 0.93094 0.57707 0.62029 0.0
H700 H 0.88246 0.56381 0.70707 0.0
H701 H 0.91188 0.56331 0.66933 0.0
H702 H 0.84281 0.51384 0.60456 0.0
H703 H 0.81344 0.51356 0.64306 0.0
C704 C 0.90584 0.51079 0.57547 0.0
C705 C 0.93218 0.53213 0.57274 0.0
C706 C 0.88875 0.51302 0.59484 0.0
C707 C 0.8975 0.53676 0.61167 0.0
C708 C 0.92367 0.55836 0.60815 0.0
C709 C 0.9409 0.556 0.58905 0.0
C710 C 0.87369 0.55305 0.68462 0.0
C711 C 0.84574 0.53859 0.67798 0.0
C712 C 0.89052 0.55285 0.66288 0.0
C713 C 0.87976 0.53846 0.63385 0.0
C714 C 0.85178 0.52468 0.62691 0.0
C715 C 0.83494 0.52458 0.64886 0.0
H716 H 0.44228 0.91813 0.07826 0.0
H717 H 0.40449 0.96244 0.07429 0.0
H718 H 0.40878 0.88757 0.11336 0.0
H719 H 0.37121 0.93236 0.11001 0.0
H720 H 0.29982 0.85756 0.14774 0.0
H721 H 0.33302 0.88825 0.11281 0.0
H722 H 0.39497 0.88436 0.16622 0.0
H723 H 0.36182 0.8537 0.20109 0.0
C724 C 0.4268 0.92133 0.08512 0.0
C725 C 0.42596 0.94263 0.07375 0.0
C726 C 0.40769 0.90396 0.10538 0.0
C727 C 0.3872 0.90743 0.11475 0.0
C728 C 0.38642 0.9288 0.10312 0.0
C729 C 0.40556 0.94617 0.08285 0.0
C730 C 0.32057 0.86344 0.15228 0.0
C731 C 0.32799 0.85296 0.17732 0.0
C732 C 0.33967 0.8811 0.13217 0.0
C733 C 0.3668 0.88885 0.13648 0.0
C734 C 0.37425 0.87854 0.16169 0.0
C735 C 0.35516 0.86089 0.18178 0.0
H736 H 0.43121 0.39219 0.54036 0.0
H737 H 0.51712 0.4406 0.55929 0.0
H738 H 0.43006 0.35697 0.56992 0.0
H739 H 0.51621 0.40581 0.58935 0.0
H740 H 0.50737 0.32844 0.61501 0.0
H741 H 0.50788 0.36182 0.58251 0.0
H742 H 0.43688 0.34868 0.62461 0.0
H743 H 0.43634 0.31539 0.65693 0.0
C744 C 0.44976 0.39515 0.55101 0.0
C745 C 0.4742 0.41885 0.54795 0.0
C746 C 0.44917 0.37518 0.56796 0.0
C747 C 0.47306 0.37864 0.58202 0.0
C748 C 0.49754 0.4024 0.57849 0.0
C749 C 0.49809 0.42233 0.56155 0.0
C750 C 0.49195 0.33277 0.61735 0.0
C751 C 0.47178 0.31924 0.63845 0.0
C752 C 0.49223 0.35187 0.59877 0.0
C753 C 0.47239 0.35784 0.60096 0.0
C754 C 0.45217 0.3442 0.62195 0.0
C755 C 0.45187 0.32513 0.64048 0.0
H756 H 0.56035 0.95281 0.40547 0.0
H757 H 0.48893 0.88964 0.44402 0.0
H758 H 0.56532 0.92088 0.37611 0.0
H759 H 0.49379 0.85777 0.41461 0.0
H760 H 0.52337 0.80631 0.38086 0.0
H761 H 0.52089 0.83928 0.41187 0.0
H762 H 0.5452 0.88928 0.33221 0.0
H763 H 0.54816 0.85635 0.30175 0.0
C764 C 0.54559 0.93212 0.40755 0.0
C765 C 0.52426 0.92387 0.42723 0.0
C766 C 0.54844 0.91377 0.39067 0.0
C767 C 0.53 0.88665 0.39294 0.0
C768 C 0.50869 0.87843 0.41267 0.0
C769 C 0.50589 0.89676 0.42957 0.0
C770 C 0.52832 0.82447 0.37023 0.0
C771 C 0.53591 0.8289 0.33904 0.0
C772 C 0.52673 0.84329 0.38782 0.0
C773 C 0.53269 0.86698 0.37457 0.0
C774 C 0.54075 0.87147 0.34339 0.0
C775 C 0.54235 0.85262 0.32584 0.0
H776 H 0.61582 0.57015 0.96454 0.0
H777 H 0.5675 0.48592 0.95115 0.0
H778 H 0.65197 0.57125 0.93732 0.0
H779 H 0.60328 0.48676 0.92348 0.0
H780 H 0.68334 0.49665 0.90218 0.0
H781 H 0.64886 0.496 0.93227 0.0
H782 H 0.66017 0.56343 0.88387 0.0
H783 H 0.69447 0.56407 0.85389 0.0
C784 C 0.61306 0.55194 0.95561 0.0
C785 C 0.58908 0.528 0.95954 0.0
C786 C 0.63359 0.5525 0.93999 0.0
C787 C 0.63045 0.52908 0.92815 0.0
C788 C 0.60645 0.50509 0.93262 0.0
C789 C 0.58595 0.50458 0.94821 0.0
C790 C 0.67837 0.51126 0.89792 0.0
C791 C 0.69174 0.53048 0.87575 0.0
C792 C 0.65864 0.51089 0.91514 0.0
C793 C 0.65184 0.52972 0.91052 0.0
C794 C 0.66528 0.54896 0.88842 0.0
C795 C 0.68496 0.54932 0.87124 0.0
H796 H 0.08542 0.56124 0.43218 0.0
H797 H 0.04899 0.60488 0.45227 0.0
H798 H 0.11799 0.59696 0.40085 0.0
H799 H 0.08124 0.64066 0.42063 0.0
H800 H 0.16008 0.71035 0.38742 0.0
H801 H 0.12861 0.6752 0.41995 0.0
H802 H 0.12053 0.61759 0.35151 0.0
H803 H 0.15255 0.6526 0.31961 0.0
C804 C 0.08443 0.57854 0.42971 0.0
C805 C 0.06478 0.58041 0.44444 0.0
C806 C 0.10295 0.59895 0.41167 0.0
C807 C 0.10231 0.62179 0.40806 0.0
C808 C 0.0826 0.62358 0.42312 0.0
C809 C 0.06402 0.60308 0.44106 0.0
C810 C 0.15179 0.69019 0.37944 0.0
C811 C 0.15892 0.68443 0.35075 0.0
C812 C 0.13348 0.66999 0.39796 0.0
C813 C 0.1219 0.64344 0.38843 0.0
C814 C 0.12917 0.63773 0.35985 0.0
C815 C 0.14735 0.65789 0.3413 0.0
H816 H 0.46742 0.04965 0.88622 0.0
H817 H 0.44969 0.08085 0.96678 0.0
H818 H 0.46482 0.08068 0.85297 0.0
H819 H 0.44887 0.11319 0.93371 0.0
H820 H 0.42939 0.15545 0.85842 0.0
H821 H 0.42572 0.12062 0.89069 0.0
H822 H 0.493 0.12665 0.84659 0.0
H823 H 0.49563 0.16016 0.81319 0.0
C824 C 0.46258 0.06286 0.89682 0.0
C825 C 0.45886 0.06276 0.92928 0.0
C826 C 0.46156 0.081 0.8778 0.0
C827 C 0.45714 0.09975 0.89078 0.0
C828 C 0.45228 0.09899 0.92294 0.0
C829 C 0.45305 0.08063 0.94197 0.0
C830 C 0.4432 0.14912 0.85541 0.0
C831 C 0.4628 0.1606 0.83319 0.0
C832 C 0.44127 0.12935 0.87413 0.0
C833 C 0.45894 0.12071 0.87108 0.0
C834 C 0.47873 0.13246 0.84916 0.0
C835 C 0.48055 0.15205 0.83035 0.0
H836 H 0.40477 0.51653 0.43487 0.0
H837 H 0.40259 0.45307 0.38405 0.0
H838 H 0.36888 0.51178 0.39868 0.0
H839 H 0.36643 0.44807 0.34799 0.0
H840 H 0.323 0.46671 0.26908 0.0
H841 H 0.35765 0.46918 0.30601 0.0
H842 H 0.32208 0.48404 0.38339 0.0
H843 H 0.28802 0.48223 0.34603 0.0
C844 C 0.3964 0.50132 0.4162 0.0
C845 C 0.40662 0.48518 0.41245 0.0
C846 C 0.37573 0.49855 0.39541 0.0
C847 C 0.36459 0.47949 0.37031 0.0
C848 C 0.37473 0.46324 0.36668 0.0
C849 C 0.39549 0.46608 0.38742 0.0
C850 C 0.32261 0.47028 0.29406 0.0
C851 C 0.30298 0.47426 0.30488 0.0
C852 C 0.34234 0.4716 0.31527 0.0
C853 C 0.34283 0.47691 0.34781 0.0
C854 C 0.32268 0.48035 0.35853 0.0
C855 C 0.30302 0.4791 0.33727 0.0
H856 H 0.95047 0.38632 0.91552 0.0
H857 H 0.8908 0.39986 0.94869 0.0
H858 H 0.91559 0.34881 0.88266 0.0
H859 H 0.85599 0.3624 0.91591 0.0
H860 H 0.79642 0.28144 0.86962 0.0
H861 H 0.83128 0.31456 0.90768 0.0
H862 H 0.88778 0.34345 0.83487 0.0
H863 H 0.85293 0.31011 0.79728 0.0
C864 C 0.92989 0.38121 0.9159 0.0
C865 C 0.92342 0.39615 0.93457 0.0
C866 C 0.90993 0.35975 0.89708 0.0
C867 C 0.88307 0.35276 0.89651 0.0
C868 C 0.87644 0.36708 0.9161 0.0
C869 C 0.8964 0.38855 0.93492 0.0
C870 C 0.81639 0.29488 0.86205 0.0
C871 C 0.82221 0.29355 0.83077 0.0
C872 C 0.83627 0.31382 0.88366 0.0
C873 C 0.86229 0.33161 0.87427 0.0
C874 C 0.86807 0.32981 0.84296 0.0
C875 C 0.84818 0.31093 0.82141 0.0
H876 H 0.91221 0.48265 0.94377 0.0
H877 H 0.96963 0.56482 0.93207 0.0
H878 H 0.87726 0.48609 0.91481 0.0
H879 H 0.93488 0.56822 0.90234 0.0
H880 H 0.87049 0.55146 0.81959 0.0
H881 H 0.90618 0.54974 0.84957 0.0
H882 H 0.85244 0.50972 0.92307 0.0
H883 H 0.81707 0.51209 0.89337 0.0
C884 C 0.91731 0.50141 0.93485 0.0
C885 C 0.9436 0.52342 0.93991 0.0
C886 C 0.89734 0.50342 0.9184 0.0
C887 C 0.90332 0.52743 0.90627 0.0
C888 C 0.92972 0.54942 0.91115 0.0
C889 C 0.94958 0.54749 0.9281 0.0
C890 C 0.86648 0.54251 0.84227 0.0
C891 C 0.84102 0.53169 0.85408 0.0
C892 C 0.88685 0.54155 0.85944 0.0
C893 C 0.88205 0.52943 0.88858 0.0
C894 C 0.85663 0.51889 0.90051 0.0
C895 C 0.83644 0.52027 0.8836 0.0
H896 H 0.38804 0.94534 0.45744 0.0
H897 H 0.4454 0.93448 0.41258 0.0
H898 H 0.35154 0.91012 0.42292 0.0
H899 H 0.40906 0.89908 0.37812 0.0
H900 H 0.33928 0.85567 0.30119 0.0
H901 H 0.37622 0.89175 0.33449 0.0
H902 H 0.32867 0.86216 0.41555 0.0
H903 H 0.29188 0.82641 0.38201 0.0
C904 C 0.39268 0.93527 0.44015 0.0
C905 C 0.41924 0.94224 0.4376 0.0
C906 C 0.37191 0.91512 0.42053 0.0
C907 C 0.37742 0.90174 0.3979 0.0
C908 C 0.4042 0.90916 0.3951 0.0
C909 C 0.42493 0.92925 0.41482 0.0
C910 C 0.33694 0.85706 0.32615 0.0
C911 C 0.3129 0.83872 0.3392 0.0
C912 C 0.35799 0.87754 0.3452 0.0
C913 C 0.35527 0.8799 0.37761 0.0
C914 C 0.3312 0.86116 0.39059 0.0
C915 C 0.31024 0.84068 0.37156 0.0
H916 H 0.47612 0.38019 0.95019 0.0
H917 H 0.48255 0.42577 0.86938 0.0
H918 H 0.47214 0.34609 0.91548 0.0
H919 H 0.47556 0.39045 0.83457 0.0
H920 H 0.49136 0.3359 0.77953 0.0
H921 H 0.49512 0.37019 0.81427 0.0
H922 H 0.44625 0.31163 0.88 0.0
H923 H 0.44469 0.27788 0.84613 0.0
C924 C 0.47659 0.38305 0.92505 0.0
C925 C 0.4799 0.40617 0.91296 0.0
C926 C 0.47372 0.36304 0.9049 0.0
C927 C 0.47347 0.36517 0.87187 0.0
C928 C 0.47616 0.38803 0.85976 0.0
C929 C 0.47964 0.40828 0.87993 0.0
C930 C 0.48149 0.3305 0.80147 0.0
C931 C 0.46772 0.30429 0.81014 0.0
C932 C 0.48336 0.35012 0.82137 0.0
C933 C 0.47096 0.34399 0.85026 0.0
C934 C 0.4566 0.31747 0.85844 0.0
C935 C 0.4553 0.29796 0.83882 0.0
H936 H 0.10968 0.51355 0.44929 0.0
H937 H 0.04784 0.43453 0.41705 0.0
H938 H 0.1407 0.51231 0.41466 0.0
H939 H 0.07898 0.43337 0.38216 0.0
H940 H 0.15406 0.43636 0.34679 0.0
H941 H 0.12397 0.43554 0.38475 0.0
H942 H 0.14083 0.51062 0.35457 0.0
H943 H 0.17007 0.51117 0.3159 0.0
C944 C 0.10289 0.49575 0.4352 0.0
C945 C 0.07638 0.47412 0.43585 0.0
C946 C 0.12055 0.49515 0.41519 0.0
C947 C 0.11214 0.47282 0.39565 0.0
C948 C 0.08596 0.45079 0.39711 0.0
C949 C 0.06815 0.4515 0.4169 0.0
C950 C 0.15115 0.45257 0.34796 0.0
C951 C 0.16462 0.47388 0.32828 0.0
C952 C 0.13401 0.45211 0.3698 0.0
C953 C 0.13027 0.47309 0.37269 0.0
C954 C 0.14373 0.49439 0.35317 0.0
C955 C 0.16057 0.49472 0.3311 0.0
H956 H 0.60758 0.0643 0.96258 0.0
H957 H 0.54427 0.05824 0.90046 0.0
H958 H 0.64103 0.09513 0.92791 0.0
H959 H 0.57726 0.08751 0.86436 0.0
H960 H 0.64231 0.16059 0.82095 0.0
H961 H 0.60977 0.13021 0.85591 0.0
H962 H 0.66156 0.10202 0.88117 0.0
H963 H 0.6953 0.13423 0.84837 0.0
C964 C 0.60088 0.06948 0.94127 0.0
C965 C 0.57339 0.05916 0.93439 0.0
C966 C 0.62002 0.08695 0.92109 0.0
C967 C 0.61215 0.09416 0.89305 0.0
C968 C 0.58443 0.08315 0.88593 0.0
C969 C 0.56537 0.06608 0.90644 0.0
C970 C 0.64716 0.14834 0.83434 0.0
C971 C 0.67188 0.15035 0.83175 0.0
C972 C 0.62805 0.13036 0.85412 0.0
C973 C 0.63267 0.1133 0.87164 0.0
C974 C 0.6572 0.11497 0.86865 0.0
C975 C 0.67653 0.13329 0.84923 0.0
H976 H 0.57429 0.6141 0.46411 0.0
H977 H 0.48821 0.56456 0.44764 0.0
H978 H 0.57444 0.6478 0.43229 0.0
H979 H 0.48796 0.59836 0.4167 0.0
H980 H 0.50212 0.65105 0.33374 0.0
H981 H 0.50173 0.61801 0.36647 0.0
H982 H 0.5606 0.67903 0.43305 0.0
H983 H 0.56117 0.71215 0.40003 0.0
C984 C 0.55546 0.61059 0.45363 0.0
C985 C 0.53129 0.58689 0.45779 0.0
C986 C 0.55544 0.62985 0.43572 0.0
C987 C 0.5312 0.62572 0.42192 0.0
C988 C 0.507 0.60198 0.42658 0.0
C989 C 0.50707 0.58274 0.44436 0.0
C990 C 0.51472 0.65738 0.35557 0.0
C991 C 0.53164 0.68417 0.36437 0.0
C992 C 0.51451 0.63846 0.37432 0.0
C993 C 0.53114 0.64589 0.40236 0.0
C994 C 0.54786 0.6727 0.41134 0.0
C995 C 0.54814 0.69165 0.3925 0.0
H996 H 0.49698 0.07505 0.61818 0.0
H997 H 0.46881 0.09333 0.53243 0.0
H998 H 0.49182 0.10655 0.648 0.0
H999 H 0.4635 0.12481 0.56232 0.0
H1000 H 0.48561 0.19938 0.621 0.0
H1001 H 0.48899 0.1669 0.59015 0.0
H1002 H 0.45897 0.11423 0.667 0.0
H1003 H 0.4564 0.14719 0.69789 0.0
C1004 C 0.48937 0.08555 0.6057 0.0
C1005 C 0.48328 0.08154 0.57283 0.0
C1006 C 0.48638 0.10366 0.62285 0.0
C1007 C 0.47717 0.11828 0.60768 0.0
C1008 C 0.47101 0.11423 0.5748 0.0
C1009 C 0.47405 0.09614 0.55762 0.0
C1010 C 0.47969 0.18078 0.63109 0.0
C1011 C 0.47089 0.17574 0.66177 0.0
C1012 C 0.48146 0.16209 0.61343 0.0
C1013 C 0.47436 0.13788 0.62605 0.0
C1014 C 0.46505 0.13277 0.65665 0.0
C1015 C 0.46334 0.1515 0.67429 0.0
H1016 H 0.44109 0.52101 0.05242 0.0
H1017 H 0.39093 0.43667 0.04206 0.0
H1018 H 0.40646 0.52195 0.08039 0.0
H1019 H 0.35652 0.43722 0.07117 0.0
H1020 H 0.28998 0.44934 0.09728 0.0
H1021 H 0.32393 0.44936 0.06689 0.0
H1022 H 0.3865 0.51099 0.12993 0.0
H1023 H 0.35257 0.51124 0.15982 0.0
C1024 C 0.42262 0.50268 0.05646 0.0
C1025 C 0.41858 0.47875 0.04556 0.0
C1026 C 0.40289 0.50314 0.07259 0.0
C1027 C 0.37873 0.47964 0.07819 0.0
C1028 C 0.37473 0.45569 0.06697 0.0
C1029 C 0.39445 0.45528 0.05064 0.0
C1030 C 0.31101 0.46289 0.10456 0.0
C1031 C 0.31863 0.48033 0.13086 0.0
C1032 C 0.33046 0.46284 0.08725 0.0
C1033 C 0.35797 0.48013 0.096 0.0
C1034 C 0.36553 0.49772 0.12218 0.0
C1035 C 0.34609 0.49787 0.13934 0.0
H1036 H 0.91452 0.43792 0.56531 0.0
H1037 H 0.96255 0.4038 0.56975 0.0
H1038 H 0.8812 0.40269 0.59649 0.0
H1039 H 0.92923 0.36829 0.60074 0.0
H1040 H 0.87773 0.32506 0.68385 0.0
H1041 H 0.911 0.35969 0.65243 0.0
H1042 H 0.84736 0.35611 0.59312 0.0
H1043 H 0.81408 0.32135 0.6243 0.0
C1044 C 0.91785 0.42278 0.573 0.0
C1045 C 0.94112 0.42362 0.56537 0.0
C1046 C 0.89873 0.4025 0.5907 0.0
C1047 C 0.90242 0.38253 0.60124 0.0
C1048 C 0.92582 0.38346 0.59346 0.0
C1049 C 0.94487 0.40371 0.57564 0.0
C1050 C 0.87074 0.33138 0.66388 0.0
C1051 C 0.84305 0.32028 0.65682 0.0
C1052 C 0.8899 0.35134 0.64584 0.0
C1053 C 0.88198 0.36088 0.62021 0.0
C1054 C 0.8543 0.34966 0.61299 0.0
C1055 C 0.83515 0.32966 0.63096 0.0
H1056 H 0.53657 0.95496 0.12136 0.0
H1057 H 0.55235 0.92392 0.03897 0.0
H1058 H 0.54104 0.92453 0.15388 0.0
H1059 H 0.55533 0.89236 0.07141 0.0
H1060 H 0.57729 0.85068 0.14505 0.0
H1061 H 0.58037 0.88592 0.11399 0.0
H1062 H 0.51264 0.87789 0.15921 0.0
H1063 H 0.51038 0.84375 0.19112 0.0
C1064 C 0.54145 0.94196 0.11022 0.0
C1065 C 0.54393 0.94178 0.07748 0.0
C1066 C 0.54359 0.92421 0.12882 0.0
C1067 C 0.54804 0.90572 0.11512 0.0
C1068 C 0.55191 0.90639 0.08268 0.0
C1069 C 0.54992 0.92428 0.06405 0.0
C1070 C 0.56324 0.85665 0.14851 0.0
C1071 C 0.54354 0.84438 0.17048 0.0
C1072 C 0.56487 0.87666 0.13055 0.0
C1073 C 0.54687 0.88481 0.13429 0.0
C1074 C 0.52712 0.8724 0.15614 0.0
C1075 C 0.52553 0.85251 0.17408 0.0
H1076 H 0.62672 0.52591 0.56136 0.0
H1077 H 0.58125 0.52177 0.64015 0.0
H1078 H 0.66173 0.52981 0.59772 0.0
H1079 H 0.61758 0.52866 0.67643 0.0
H1080 H 0.67331 0.51318 0.73593 0.0
H1081 H 0.6381 0.50959 0.6996 0.0
H1082 H 0.69749 0.55526 0.63302 0.0
H1083 H 0.7321 0.55666 0.66862 0.0
C1084 C 0.62407 0.52592 0.58638 0.0
C1085 C 0.6007 0.52328 0.59743 0.0
C1086 C 0.64463 0.52874 0.60746 0.0
C1087 C 0.64285 0.52963 0.64038 0.0
C1088 C 0.61974 0.52757 0.65141 0.0
C1089 C 0.59892 0.52413 0.63035 0.0
C1090 C 0.67869 0.52239 0.71346 0.0
C1091 C 0.70537 0.53516 0.70504 0.0
C1092 C 0.65855 0.52061 0.69262 0.0
C1093 C 0.66463 0.53213 0.66301 0.0
C1094 C 0.69165 0.54559 0.65512 0.0
C1095 C 0.71167 0.54679 0.67571 0.0
H1096 H 0.12495 0.61538 0.04755 0.0
H1097 H 0.06331 0.62619 0.0802 0.0
H1098 H 0.15894 0.65367 0.08011 0.0
H1099 H 0.0973 0.66443 0.11275 0.0
H1100 H 0.15717 0.70053 0.20028 0.0
H1101 H 0.12423 0.66791 0.16093 0.0
H1102 H 0.18243 0.70213 0.09029 0.0
H1103 H 0.21558 0.73494 0.13027 0.0
C1104 C 0.11874 0.62628 0.06112 0.0
C1105 C 0.09141 0.61759 0.06161 0.0
C1106 C 0.13822 0.64821 0.07975 0.0
C1107 C 0.13073 0.66185 0.09925 0.0
C1108 C 0.10359 0.65399 0.09841 0.0
C1109 C 0.08414 0.6321 0.07981 0.0
C1110 C 0.16272 0.70121 0.17622 0.0
C1111 C 0.18861 0.72025 0.16797 0.0
C1112 C 0.14389 0.68267 0.15367 0.0
C1113 C 0.15065 0.68264 0.12243 0.0
C1114 C 0.1767 0.70171 0.1142 0.0
C1115 C 0.19556 0.72046 0.13687 0.0
loop_
_geom_bond_atom_site_label_1
_geom_bond_atom_site_label_2
_geom_bond_distance
_geom_bond_site_symmetry_2
_ccdc_geom_bond_type
C0 C1 1.443 . S
C0 N4 1.376 1_556 S
C0 C38 1.389 . S
C1 C0 1.443 . S
C1 C2 1.340 1_556 S
C1 H41 0.951 . S
C2 C1 1.340 1_554 S
C2 C3 1.439 . S
C2 H42 0.950 . S
C3 C2 1.439 . S
C3 N4 1.374 . S
C3 C37 1.395 . S
N4 C0 1.376 1_554 S
N4 C3 1.374 . S
N4 Co5 1.981 1_655 S
Co5 N4 1.981 1_455 S
Co5 N6 2.017 1_455 S
Co5 N11 2.036 1_554 S
Co5 N16 1.972 1_554 S
Co5 N21 2.297 . S
Co5 N27 2.269 1_454 S
N6 Co5 2.017 1_655 S
N6 C7 1.376 . S
N6 C10 1.383 1_655 S
C7 N6 1.376 . S
C7 C8 1.446 . S
C7 C37 1.391 . S
C8 C7 1.446 . S
C8 C9 1.339 1_655 S
C8 H43 0.949 . S
C9 C8 1.339 1_455 S
C9 C10 1.439 . S
C9 H44 0.950 . S
C10 N6 1.383 1_455 S
C10 C9 1.439 . S
C10 C39 1.392 . S
N11 Co5 2.036 1_556 S
N11 C12 1.376 1_556 S
N11 C15 1.374 . S
C12 N11 1.376 1_554 S
C12 C13 1.443 . S
C12 C39 1.389 . S
C13 C12 1.443 . S
C13 C14 1.340 1_554 S
C13 H45 0.951 . S
C14 C13 1.340 1_556 S
C14 C15 1.439 . S
C14 H46 0.950 . S
C15 N11 1.374 . S
C15 C14 1.439 . S
C15 C40 1.395 . S
N16 Co5 1.972 1_556 S
N16 C17 1.376 . S
N16 C20 1.383 1_455 S
C17 N16 1.376 . S
C17 C18 1.446 . S
C17 C40 1.391 . S
C18 C17 1.446 . S
C18 C19 1.339 1_455 S
C18 H47 0.949 . S
C19 C18 1.339 1_655 S
C19 C20 1.439 . S
C19 H48 0.950 . S
C20 N16 1.383 1_655 S
C20 C19 1.439 . S
C20 C38 1.392 . S
N21 Co5 2.297 . S
N21 C24 1.332 . S
N21 C26 1.332 . S
C22 C23 1.386 . S
C22 C25 1.388 . S
C23 C22 1.386 . S
C23 C24 1.382 . S
C23 H49 0.950 . S
C24 N21 1.332 . S
C24 C23 1.382 . S
C24 H35 0.954 1_554 S
C25 C22 1.388 . S
C25 C26 1.382 . S
C25 H50 0.950 . S
C26 N21 1.332 . S
C26 C25 1.382 . S
C26 H36 0.948 . S
N27 Co5 2.269 1_656 S
N27 C31 1.332 . S
N27 C32 1.332 . S
C28 C29 1.388 . S
C28 C32 1.382 . S
C28 H51 0.950 . S
C29 C28 1.388 . S
C29 C30 1.386 . S
C30 C29 1.386 . S
C30 C31 1.382 . S
C30 H52 0.950 . S
C31 N27 1.332 . S
C31 C30 1.382 . S
C31 H33 0.952 1_556 S
C32 N27 1.332 . S
C32 C28 1.382 . S
C32 H34 0.948 . S
H33 C31 0.952 1_554 S
H34 C32 0.948 . S
H35 C24 0.954 1_556 S
H36 C26 0.948 . S
C37 C3 1.395 . S
C37 C7 1.391 . S
C38 C0 1.389 . S
C38 C20 1.392 . S
C39 C10 1.392 . S
C39 C12 1.389 . S
C40 C15 1.395 . S
C40 C17 1.391 . S
H41 C1 0.951 . S
H42 C2 0.950 . S
H43 C8 0.949 . S
H44 C9 0.950 . S
H45 C13 0.951 . S
H46 C14 0.950 . S
H47 C18 0.949 . S
H48 C19 0.950 . S
H49 C23 0.950 . S
H50 C25 0.950 . S
H51 C28 0.950 . S
H52 C30 0.950 . S
C53 C54 1.443 . S
C53 N57 1.375 . S
C53 C91 1.389 . S
C54 C53 1.443 . S
C54 C55 1.340 1_545 S
C54 H94 0.951 . S
C55 C54 1.340 1_565 S
C55 C56 1.439 . S
C55 H95 0.950 . S
C56 C55 1.439 . S
C56 N57 1.376 1_565 S
C56 C90 1.395 . S
N57 C53 1.375 . S
N57 C56 1.376 1_545 S
N57 Co58 2.007 . S
Co58 N57 2.007 . S
Co58 N59 1.995 1_545 S
Co58 N64 2.008 . S
Co58 N69 1.995 . S
Co58 N74 2.282 1_545 S
Co58 N80 2.282 . S
N59 Co58 1.995 1_565 S
N59 C60 1.376 . S
N59 C63 1.383 . S
C60 N59 1.376 . S
C60 C61 1.446 . S
C60 C90 1.391 . S
C61 C60 1.446 . S
C61 C62 1.339 . S
C61 H96 0.949 . S
C62 C61 1.339 . S
C62 C63 1.439 . S
C62 H97 0.950 . S
C63 N59 1.383 . S
C63 C62 1.439 . S
C63 C92 1.392 . S
N64 Co58 2.008 . S
N64 C65 1.376 1_545 S
N64 C68 1.374 . S
C65 N64 1.376 1_565 S
C65 C66 1.443 . S
C65 C92 1.389 . S
C66 C65 1.443 . S
C66 C67 1.340 1_565 S
C66 H98 0.951 . S
C67 C66 1.340 1_545 S
C67 C68 1.439 . S
C67 H99 0.950 . S
C68 N64 1.374 . S
C68 C67 1.439 . S
C68 C93 1.395 . S
N69 Co58 1.995 . S
N69 C70 1.376 . S
N69 C73 1.383 . S
C70 N69 1.376 . S
C70 C71 1.446 . S
C70 C93 1.391 . S
C71 C70 1.446 . S
C71 C72 1.339 . S
C71 H100 0.949 . S
C72 C71 1.339 . S
C72 C73 1.439 . S
C72 H101 0.950 . S
C73 N69 1.383 . S
C73 C72 1.439 . S
C73 C91 1.392 . S
N74 Co58 2.282 1_565 S
N74 C77 1.332 . S
N74 C79 1.332 . S
C75 C76 1.386 . S
C75 C78 1.388 . S
C76 C75 1.386 . S
C76 C77 1.382 . S
C76 H102 0.950 . S
C77 N74 1.332 . S
C77 C76 1.382 . S
C77 H88 0.952 1_565 S
C78 C75 1.388 . S
C78 C79 1.382 . S
C78 H103 0.950 . S
C79 N74 1.332 . S
C79 C78 1.382 . S
C79 H89 0.948 . S
N80 Co58 2.282 . S
N80 C84 1.332 . S
N80 C85 1.332 . S
C81 C82 1.388 . S
C81 C85 1.382 . S
C81 H104 0.950 . S
C82 C81 1.388 . S
C82 C83 1.386 . S
C83 C82 1.386 . S
C83 C84 1.382 . S
C83 H105 0.950 . S
C84 N80 1.332 . S
C84 C83 1.382 . S
C84 H86 0.952 1_545 S
C85 N80 1.332 . S
C85 C81 1.382 . S
C85 H87 0.948 . S
H86 C84 0.952 1_565 S
H87 C85 0.948 . S
H88 C77 0.952 1_545 S
H89 C79 0.948 . S
C90 C56 1.395 . S
C90 C60 1.391 . S
C91 C53 1.389 . S
C91 C73 1.392 . S
C92 C63 1.392 . S
C92 C65 1.389 . S
C93 C68 1.395 . S
C93 C70 1.391 . S
H94 C54 0.951 . S
H95 C55 0.950 . S
H96 C61 0.949 . S
H97 C62 0.950 . S
H98 C66 0.951 . S
H99 C67 0.950 . S
H100 C71 0.949 . S
H101 C72 0.950 . S
H102 C76 0.950 . S
H103 C78 0.950 . S
H104 C81 0.950 . S
H105 C83 0.950 . S
C106 C107 1.443 . S
C106 N110 1.376 . S
C106 C144 1.389 . S
C107 C106 1.443 . S
C107 C108 1.340 . S
C107 H147 0.951 . S
C108 C107 1.340 . S
C108 C109 1.439 . S
C108 H148 0.950 . S
C109 C108 1.439 . S
C109 N110 1.374 . S
C109 C143 1.395 . S
N110 C106 1.376 . S
N110 C109 1.374 . S
N110 Co111 1.989 1_556 S
Co111 N110 1.989 1_554 S
Co111 N112 1.991 1_554 S
Co111 N117 2.027 . S
Co111 N122 1.998 . S
Co111 N127 2.293 . S
Co111 N133 2.272 1_554 S
N112 Co111 1.991 1_556 S
N112 C113 1.376 . S
N112 C116 1.383 1_556 S
C113 N112 1.376 . S
C113 C114 1.446 . S
C113 C143 1.391 . S
C114 C113 1.446 . S
C114 C115 1.339 . S
C114 H149 0.949 . S
C115 C114 1.339 . S
C115 C116 1.439 1_556 S
C115 H150 0.950 1_556 S
C116 N112 1.383 1_554 S
C116 C115 1.439 1_554 S
C116 C145 1.392 . S
N117 Co111 2.027 . S
N117 C118 1.376 . S
N117 C121 1.374 . S
C118 N117 1.376 . S
C118 C119 1.443 . S
C118 C145 1.389 . S
C119 C118 1.443 . S
C119 C120 1.340 . S
C119 H151 0.951 . S
C120 C119 1.340 . S
C120 C121 1.439 . S
C120 H152 0.950 . S
C121 N117 1.374 . S
C121 C120 1.439 . S
C121 C146 1.395 . S
N122 Co111 1.998 . S
N122 C123 1.376 . S
N122 C126 1.383 1_554 S
C123 N122 1.376 . S
C123 C124 1.446 . S
C123 C146 1.391 . S
C124 C123 1.446 . S
C124 C125 1.339 . S
C124 H153 0.949 . S
C125 C124 1.339 . S
C125 C126 1.439 1_554 S
C125 H154 0.950 1_554 S
C126 N122 1.383 1_556 S
C126 C125 1.439 1_556 S
C126 C144 1.392 . S
N127 Co111 2.293 . S
N127 C130 1.332 . S
N127 C132 1.332 . S
C128 C129 1.386 . S
C128 C131 1.388 . S
C129 C128 1.386 . S
C129 C130 1.382 . S
C129 H155 0.950 . S
C130 N127 1.332 . S
C130 C129 1.382 . S
C130 H141 0.952 . S
C131 C128 1.388 . S
C131 C132 1.382 . S
C131 H156 0.950 . S
C132 N127 1.332 . S
C132 C131 1.382 . S
C132 H142 0.948 . S
N133 Co111 2.272 1_556 S
N133 C137 1.332 . S
N133 C138 1.332 . S
C134 C135 1.388 . S
C134 C138 1.382 . S
C134 H157 0.950 . S
C135 C134 1.388 . S
C135 C136 1.386 . S
C136 C135 1.386 . S
C136 C137 1.382 . S
C136 H158 0.950 . S
C137 N133 1.332 . S
C137 C136 1.382 . S
C137 H139 0.952 . S
C138 N133 1.332 . S
C138 C134 1.382 . S
C138 H140 0.948 . S
H139 C137 0.952 . S
H140 C138 0.948 . S
H141 C130 0.952 . S
H142 C132 0.948 . S
C143 C109 1.395 . S
C143 C113 1.391 . S
C144 C106 1.389 . S
C144 C126 1.392 . S
C145 C116 1.392 . S
C145 C118 1.389 . S
C146 C121 1.395 . S
C146 C123 1.391 . S
H147 C107 0.951 . S
H148 C108 0.950 . S
H149 C114 0.949 . S
H150 C115 0.950 1_554 S
H151 C119 0.951 . S
H152 C120 0.950 . S
H153 C124 0.949 . S
H154 C125 0.950 1_556 S
H155 C129 0.950 . S
H156 C131 0.950 . S
H157 C134 0.950 . S
H158 C136 0.950 . S
C159 C160 1.443 . S
C159 N163 1.376 . S
C159 C197 1.389 . S
C160 C159 1.443 . S
C160 C161 1.340 . S
C160 H200 0.951 . S
C161 C160 1.340 . S
C161 C162 1.439 . S
C161 H201 0.950 . S
C162 C161 1.439 . S
C162 N163 1.374 . S
C162 C196 1.395 . S
N163 C159 1.376 . S
N163 C162 1.374 . S
N163 Co164 1.989 1_655 S
Co164 N163 1.989 1_455 S
Co164 N165 1.983 1_455 S
Co164 N170 2.027 . S
Co164 N175 2.007 . S
Co164 N180 2.307 . S
Co164 N186 2.258 1_455 S
N165 Co164 1.983 1_655 S
N165 C166 1.376 . S
N165 C169 1.383 1_655 S
C166 N165 1.376 . S
C166 C167 1.446 . S
C166 C196 1.391 . S
C167 C166 1.446 . S
C167 C168 1.339 1_655 S
C167 H202 0.949 . S
C168 C167 1.339 1_455 S
C168 C169 1.439 . S
C168 H203 0.950 . S
C169 N165 1.383 1_455 S
C169 C168 1.439 . S
C169 C198 1.392 . S
N170 Co164 2.027 . S
N170 C171 1.376 . S
N170 C174 1.374 . S
C171 N170 1.376 . S
C171 C172 1.443 . S
C171 C198 1.389 . S
C172 C171 1.443 . S
C172 C173 1.340 . S
C172 H204 0.951 . S
C173 C172 1.340 . S
C173 C174 1.439 . S
C173 H205 0.950 . S
C174 N170 1.374 . S
C174 C173 1.439 . S
C174 C199 1.395 . S
N175 Co164 2.007 . S
N175 C176 1.376 . S
N175 C179 1.383 1_455 S
C176 N175 1.376 . S
C176 C177 1.446 . S
C176 C199 1.391 . S
C177 C176 1.446 . S
C177 C178 1.324 1_455 S
C177 H206 0.949 . S
C178 C177 1.324 1_655 S
C178 C179 1.450 . S
C178 H207 0.953 . S
C179 N175 1.383 1_655 S
C179 C178 1.450 . S
C179 C197 1.392 . S
N180 Co164 2.307 . S
N180 C183 1.332 . S
N180 C185 1.332 . S
C181 C182 1.386 . S
C181 C184 1.388 . S
C182 C181 1.386 . S
C182 C183 1.382 . S
C182 H208 0.950 . S
C183 N180 1.332 . S
C183 C182 1.382 . S
C183 H194 0.952 . S
C184 C181 1.388 . S
C184 C185 1.382 . S
C184 H209 0.950 . S
C185 N180 1.332 . S
C185 C184 1.382 . S
C185 H195 0.942 1_455 S
N186 Co164 2.258 1_655 S
N186 C190 1.332 . S
N186 C191 1.332 . S
C187 C188 1.388 . S
C187 C191 1.382 . S
C187 H210 0.950 . S
C188 C187 1.388 . S
C188 C189 1.386 . S
C189 C188 1.386 . S
C189 C190 1.382 . S
C189 H211 0.950 . S
C190 N186 1.332 . S
C190 C189 1.382 . S
C190 H192 0.952 . S
C191 N186 1.332 . S
C191 C187 1.382 . S
C191 H193 0.948 1_655 S
H192 C190 0.952 . S
H193 C191 0.948 1_455 S
H194 C183 0.952 . S
H195 C185 0.942 1_655 S
C196 C162 1.395 . S
C196 C166 1.391 . S
C197 C159 1.389 . S
C197 C179 1.392 . S
C198 C169 1.392 . S
C198 C171 1.389 . S
C199 C174 1.395 . S
C199 C176 1.391 . S
H200 C160 0.951 . S
H201 C161 0.950 . S
H202 C167 0.949 . S
H203 C168 0.950 . S
H204 C172 0.951 . S
H205 C173 0.950 . S
H206 C177 0.949 . S
H207 C178 0.953 . S
H208 C182 0.950 . S
H209 C184 0.950 . S
H210 C187 0.950 . S
H211 C189 0.950 . S
C212 C213 1.443 . S
C212 N216 1.376 1_565 S
C212 C250 1.389 . S
C213 C212 1.443 . S
C213 C214 1.340 1_565 S
C213 H253 0.951 . S
C214 C213 1.340 1_545 S
C214 C215 1.439 . S
C214 H254 0.950 . S
C215 C214 1.439 . S
C215 N216 1.374 . S
C215 C249 1.395 . S
N216 C212 1.376 1_545 S
N216 C215 1.374 . S
N216 Co217 2.028 . S
Co217 N216 2.028 . S
Co217 N218 1.996 . S
Co217 N223 1.989 1_544 S
Co217 N228 1.993 1_544 S
Co217 N233 2.273 1_554 S
Co217 N239 2.292 1_545 S
N218 Co217 1.996 . S
N218 C219 1.376 . S
N218 C222 1.383 1_554 S
C219 N218 1.376 . S
C219 C220 1.446 . S
C219 C249 1.391 . S
C220 C219 1.446 . S
C220 C221 1.339 1_554 S
C220 H255 0.949 . S
C221 C220 1.339 1_556 S
C221 C222 1.439 . S
C221 H256 0.950 . S
C222 N218 1.383 1_556 S
C222 C221 1.439 . S
C222 C251 1.392 . S
N223 Co217 1.989 1_566 S
N223 C224 1.376 1_565 S
N223 C227 1.374 . S
C224 N223 1.376 1_545 S
C224 C225 1.443 . S
C224 C251 1.389 . S
C225 C224 1.443 . S
C225 C226 1.340 1_545 S
C225 H257 0.951 . S
C226 C225 1.340 1_565 S
C226 C227 1.439 . S
C226 H258 0.950 . S
C227 N223 1.374 . S
C227 C226 1.439 . S
C227 C252 1.395 . S
N228 Co217 1.993 1_566 S
N228 C229 1.376 . S
N228 C232 1.383 1_556 S
C229 N228 1.376 . S
C229 C230 1.446 . S
C229 C252 1.391 . S
C230 C229 1.446 . S
C230 C231 1.339 1_556 S
C230 H259 0.949 . S
C231 C230 1.339 1_554 S
C231 C232 1.439 . S
C231 H260 0.950 . S
C232 N228 1.383 1_554 S
C232 C231 1.439 . S
C232 C250 1.392 . S
N233 Co217 2.273 1_556 S
N233 C236 1.332 . S
N233 C238 1.332 . S
C234 C235 1.386 . S
C234 C237 1.388 . S
C235 C234 1.386 . S
C235 C236 1.382 . S
C235 H261 0.950 . S
C236 N233 1.332 . S
C236 C235 1.382 . S
C236 H247 0.952 1_545 S
C237 C234 1.388 . S
C237 C238 1.382 . S
C237 H262 0.950 . S
C238 N233 1.332 . S
C238 C237 1.382 . S
C238 H248 0.948 . S
N239 Co217 2.292 1_565 S
N239 C243 1.332 . S
N239 C244 1.332 . S
C240 C241 1.388 . S
C240 C244 1.382 . S
C240 H263 0.950 . S
C241 C240 1.388 . S
C241 C242 1.386 . S
C242 C241 1.386 . S
C242 C243 1.382 . S
C242 H264 0.950 . S
C243 N239 1.332 . S
C243 C242 1.382 . S
C243 H245 0.952 1_565 S
C244 N239 1.332 . S
C244 C240 1.382 . S
C244 H246 0.948 . S
H245 C243 0.952 1_545 S
H246 C244 0.948 . S
H247 C236 0.952 1_565 S
H248 C238 0.948 . S
C249 C215 1.395 . S
C249 C219 1.391 . S
C250 C212 1.389 . S
C250 C232 1.392 . S
C251 C222 1.392 . S
C251 C224 1.389 . S
C252 C227 1.395 . S
C252 C229 1.391 . S
H253 C213 0.951 . S
H254 C214 0.950 . S
H255 C220 0.949 . S
H256 C221 0.950 . S
H257 C225 0.951 . S
H258 C226 0.950 . S
H259 C230 0.949 . S
H260 C231 0.950 . S
H261 C235 0.950 . S
H262 C237 0.950 . S
H263 C240 0.950 . S
H264 C242 0.950 . S
C265 C266 1.443 . S
C265 N269 1.376 . S
C265 C303 1.389 . S
C266 C265 1.443 . S
C266 C267 1.340 . S
C266 H306 0.951 . S
C267 C266 1.340 . S
C267 C268 1.439 . S
C267 H307 0.950 . S
C268 C267 1.439 . S
C268 N269 1.374 . S
C268 C302 1.395 . S
N269 C265 1.376 . S
N269 C268 1.374 . S
N269 Co270 2.008 . S
Co270 N269 2.008 . S
Co270 N271 1.995 . S
Co270 N276 2.008 . S
Co270 N281 1.995 . S
Co270 N286 2.282 . S
Co270 N292 2.282 . S
N271 Co270 1.995 . S
N271 C272 1.376 . S
N271 C275 1.383 . S
C272 N271 1.376 . S
C272 C273 1.446 . S
C272 C302 1.391 . S
C273 C272 1.446 . S
C273 C274 1.339 . S
C273 H308 0.949 . S
C274 C273 1.339 . S
C274 C275 1.439 . S
C274 H309 0.950 . S
C275 N271 1.383 . S
C275 C274 1.439 . S
C275 C304 1.392 . S
N276 Co270 2.008 . S
N276 C277 1.376 . S
N276 C280 1.374 . S
C277 N276 1.376 . S
C277 C278 1.443 . S
C277 C304 1.389 . S
C278 C277 1.443 . S
C278 C279 1.340 . S
C278 H310 0.951 . S
C279 C278 1.340 . S
C279 C280 1.439 . S
C279 H311 0.950 . S
C280 N276 1.374 . S
C280 C279 1.439 . S
C280 C305 1.395 . S
N281 Co270 1.995 . S
N281 C282 1.376 . S
N281 C285 1.383 . S
C282 N281 1.376 . S
C282 C283 1.446 . S
C282 C305 1.391 . S
C283 C282 1.446 . S
C283 C284 1.339 . S
C283 H312 0.949 . S
C284 C283 1.339 . S
C284 C285 1.439 . S
C284 H313 0.950 . S
C285 N281 1.383 . S
C285 C284 1.439 . S
C285 C303 1.392 . S
N286 Co270 2.282 . S
N286 C289 1.332 . S
N286 C291 1.332 . S
C287 C288 1.386 . S
C287 C290 1.388 . S
C288 C287 1.386 . S
C288 C289 1.382 . S
C288 H314 0.950 . S
C289 N286 1.332 . S
C289 C288 1.382 . S
C289 H300 0.952 . S
C290 C287 1.388 . S
C290 C291 1.382 . S
C290 H315 0.950 . S
C291 N286 1.332 . S
C291 C290 1.382 . S
C291 H301 0.948 . S
N292 Co270 2.282 . S
N292 C296 1.332 . S
N292 C297 1.332 . S
C293 C294 1.388 . S
C293 C297 1.382 . S
C293 H316 0.950 . S
C294 C293 1.388 . S
C294 C295 1.386 . S
C295 C294 1.386 . S
C295 C296 1.382 . S
C295 H317 0.950 . S
C296 N292 1.332 . S
C296 C295 1.382 . S
C296 H298 0.952 . S
C297 N292 1.332 . S
C297 C293 1.382 . S
C297 H299 0.948 . S
H298 C296 0.952 . S
H299 C297 0.948 . S
H300 C289 0.952 . S
H301 C291 0.948 . S
C302 C268 1.395 . S
C302 C272 1.391 . S
C303 C265 1.389 . S
C303 C285 1.392 . S
C304 C275 1.392 . S
C304 C277 1.389 . S
C305 C280 1.395 . S
C305 C282 1.391 . S
H306 C266 0.951 . S
H307 C267 0.950 . S
H308 C273 0.949 . S
H309 C274 0.950 . S
H310 C278 0.951 . S
H311 C279 0.950 . S
H312 C283 0.949 . S
H313 C284 0.950 . S
H314 C288 0.950 . S
H315 C290 0.950 . S
H316 C293 0.950 . S
H317 C295 0.950 . S
C318 C319 1.443 . S
C318 N322 1.376 . S
C318 C356 1.389 . S
C319 C318 1.443 . S
C319 C320 1.340 . S
C319 H359 0.951 . S
C320 C319 1.340 . S
C320 C321 1.439 . S
C320 H360 0.950 . S
C321 C320 1.439 . S
C321 N322 1.374 . S
C321 C355 1.395 . S
N322 C318 1.376 . S
N322 C321 1.374 . S
N322 Co323 2.008 . S
Co323 N322 2.008 . S
Co323 N324 1.995 . S
Co323 N329 2.008 . S
Co323 N334 1.995 . S
Co323 N339 2.282 . S
Co323 N345 2.282 . S
N324 Co323 1.995 . S
N324 C325 1.376 . S
N324 C328 1.383 . S
C325 N324 1.376 . S
C325 C326 1.446 . S
C325 C355 1.391 . S
C326 C325 1.446 . S
C326 C327 1.339 . S
C326 H361 0.949 . S
C327 C326 1.339 . S
C327 C328 1.439 . S
C327 H362 0.950 . S
C328 N324 1.383 . S
C328 C327 1.439 . S
C328 C357 1.392 . S
N329 Co323 2.008 . S
N329 C330 1.376 . S
N329 C333 1.374 . S
C330 N329 1.376 . S
C330 C331 1.443 . S
C330 C357 1.389 . S
C331 C330 1.443 . S
C331 C332 1.340 . S
C331 H363 0.951 . S
C332 C331 1.340 . S
C332 C333 1.439 . S
C332 H364 0.950 . S
C333 N329 1.374 . S
C333 C332 1.439 . S
C333 C358 1.395 . S
N334 Co323 1.995 . S
N334 C335 1.376 . S
N334 C338 1.383 . S
C335 N334 1.376 . S
C335 C336 1.446 . S
C335 C358 1.391 . S
C336 C335 1.446 . S
C336 C337 1.339 . S
C336 H365 0.949 . S
C337 C336 1.339 . S
C337 C338 1.439 . S
C337 H366 0.950 . S
C338 N334 1.383 . S
C338 C337 1.439 . S
C338 C356 1.392 . S
N339 Co323 2.282 . S
N339 C342 1.332 . S
N339 C344 1.332 . S
C340 C341 1.386 . S
C340 C343 1.388 . S
C341 C340 1.386 . S
C341 C342 1.382 . S
C341 H367 0.950 . S
C342 N339 1.332 . S
C342 C341 1.382 . S
C342 H353 0.952 . S
C343 C340 1.388 . S
C343 C344 1.382 . S
C343 H368 0.950 . S
C344 N339 1.332 . S
C344 C343 1.382 . S
C344 H354 0.948 . S
N345 Co323 2.282 . S
N345 C349 1.332 . S
N345 C350 1.332 . S
C346 C347 1.388 . S
C346 C350 1.382 . S
C346 H369 0.950 . S
C347 C346 1.388 . S
C347 C348 1.386 . S
C348 C347 1.386 . S
C348 C349 1.382 . S
C348 H370 0.950 . S
C349 N345 1.332 . S
C349 C348 1.382 . S
C349 H351 0.952 . S
C350 N345 1.332 . S
C350 C346 1.382 . S
C350 H352 0.948 . S
H351 C349 0.952 . S
H352 C350 0.948 . S
H353 C342 0.952 . S
H354 C344 0.948 . S
C355 C321 1.395 . S
C355 C325 1.391 . S
C356 C318 1.389 . S
C356 C338 1.392 . S
C357 C328 1.392 . S
C357 C330 1.389 . S
C358 C333 1.395 . S
C358 C335 1.391 . S
H359 C319 0.951 . S
H360 C320 0.950 . S
H361 C326 0.949 . S
H362 C327 0.950 . S
H363 C331 0.951 . S
H364 C332 0.950 . S
H365 C336 0.949 . S
H366 C337 0.950 . S
H367 C341 0.950 . S
H368 C343 0.950 . S
H369 C346 0.950 . S
H370 C348 0.950 . S
C371 C372 1.443 . S
C371 N375 1.376 . S
C371 C409 1.389 . S
C372 C371 1.443 . S
C372 C373 1.340 . S
C372 H412 0.951 . S
C373 C372 1.340 . S
C373 C374 1.439 . S
C373 H413 0.950 . S
C374 C373 1.439 . S
C374 N375 1.374 . S
C374 C408 1.395 . S
N375 C371 1.376 . S
N375 C374 1.374 . S
N375 Co376 2.008 . S
Co376 N375 2.008 . S
Co376 N377 1.995 . S
Co376 N382 2.008 . S
Co376 N387 1.995 . S
Co376 N392 2.282 . S
Co376 N398 2.282 . S
N377 Co376 1.995 . S
N377 C378 1.376 . S
N377 C381 1.383 . S
C378 N377 1.376 . S
C378 C379 1.446 . S
C378 C408 1.391 . S
C379 C378 1.446 . S
C379 C380 1.339 . S
C379 H414 0.949 . S
C380 C379 1.339 . S
C380 C381 1.439 . S
C380 H415 0.950 . S
C381 N377 1.383 . S
C381 C380 1.439 . S
C381 C410 1.392 . S
N382 Co376 2.008 . S
N382 C383 1.376 . S
N382 C386 1.374 . S
C383 N382 1.376 . S
C383 C384 1.443 . S
C383 C410 1.389 . S
C384 C383 1.443 . S
C384 C385 1.340 . S
C384 H416 0.951 . S
C385 C384 1.340 . S
C385 C386 1.439 . S
C385 H417 0.950 . S
C386 N382 1.374 . S
C386 C385 1.439 . S
C386 C411 1.395 . S
N387 Co376 1.995 . S
N387 C388 1.376 . S
N387 C391 1.383 . S
C388 N387 1.376 . S
C388 C389 1.446 . S
C388 C411 1.391 . S
C389 C388 1.446 . S
C389 C390 1.339 . S
C389 H418 0.949 . S
C390 C389 1.339 . S
C390 C391 1.439 . S
C390 H419 0.950 . S
C391 N387 1.383 . S
C391 C390 1.439 . S
C391 C409 1.392 . S
N392 Co376 2.282 . S
N392 C395 1.332 . S
N392 C397 1.332 . S
C393 C394 1.386 . S
C393 C396 1.388 . S
C394 C393 1.386 . S
C394 C395 1.382 . S
C394 H420 0.950 . S
C395 N392 1.332 . S
C395 C394 1.382 . S
C395 H406 0.952 . S
C396 C393 1.388 . S
C396 C397 1.382 . S
C396 H421 0.950 . S
C397 N392 1.332 . S
C397 C396 1.382 . S
C397 H407 0.948 . S
N398 Co376 2.282 . S
N398 C402 1.332 . S
N398 C403 1.332 . S
C399 C400 1.388 . S
C399 C403 1.382 . S
C399 H422 0.950 . S
C400 C399 1.388 . S
C400 C401 1.386 . S
C401 C400 1.386 . S
C401 C402 1.382 . S
C401 H423 0.950 . S
C402 N398 1.332 . S
C402 C401 1.382 . S
C402 H404 0.952 . S
C403 N398 1.332 . S
C403 C399 1.382 . S
C403 H405 0.948 . S
H404 C402 0.952 . S
H405 C403 0.948 . S
H406 C395 0.952 . S
H407 C397 0.948 . S
C408 C374 1.395 . S
C408 C378 1.391 . S
C409 C371 1.389 . S
C409 C391 1.392 . S
C410 C381 1.392 . S
C410 C383 1.389 . S
C411 C386 1.395 . S
C411 C388 1.391 . S
H412 C372 0.951 . S
H413 C373 0.950 . S
H414 C379 0.949 . S
H415 C380 0.950 . S
H416 C384 0.951 . S
H417 C385 0.950 . S
H418 C389 0.949 . S
H419 C390 0.950 . S
H420 C394 0.950 . S
H421 C396 0.950 . S
H422 C399 0.950 . S
H423 C401 0.950 . S
C424 C425 1.443 . S
C424 N428 1.376 . S
C424 C462 1.389 . S
C425 C424 1.443 . S
C425 C426 1.340 . S
C425 H465 0.951 . S
C426 C425 1.340 . S
C426 C427 1.439 . S
C426 H466 0.950 . S
C427 C426 1.439 . S
C427 N428 1.374 . S
C427 C461 1.395 . S
N428 C424 1.376 . S
N428 C427 1.374 . S
N428 Co429 2.008 . S
Co429 N428 2.008 . S
Co429 N430 1.995 . S
Co429 N435 2.008 . S
Co429 N440 1.995 . S
Co429 N445 2.282 . S
Co429 N451 2.282 . S
N430 Co429 1.995 . S
N430 C431 1.376 . S
N430 C434 1.383 . S
C431 N430 1.376 . S
C431 C432 1.446 . S
C431 C461 1.391 . S
C432 C431 1.446 . S
C432 C433 1.339 . S
C432 H467 0.949 . S
C433 C432 1.339 . S
C433 C434 1.439 . S
C433 H468 0.950 . S
C434 N430 1.383 . S
C434 C433 1.439 . S
C434 C463 1.392 . S
N435 Co429 2.008 . S
N435 C436 1.376 . S
N435 C439 1.374 . S
C436 N435 1.376 . S
C436 C437 1.443 . S
C436 C463 1.389 . S
C437 C436 1.443 . S
C437 C438 1.340 . S
C437 H469 0.951 . S
C438 C437 1.340 . S
C438 C439 1.439 . S
C438 H470 0.950 . S
C439 N435 1.374 . S
C439 C438 1.439 . S
C439 C464 1.395 . S
N440 Co429 1.995 . S
N440 C441 1.376 . S
N440 C444 1.383 . S
C441 N440 1.376 . S
C441 C442 1.446 . S
C441 C464 1.391 . S
C442 C441 1.446 . S
C442 C443 1.339 . S
C442 H471 0.949 . S
C443 C442 1.339 . S
C443 C444 1.439 . S
C443 H472 0.950 . S
C444 N440 1.383 . S
C444 C443 1.439 . S
C444 C462 1.392 . S
N445 Co429 2.282 . S
N445 C448 1.332 . S
N445 C450 1.332 . S
C446 C447 1.386 . S
C446 C449 1.388 . S
C447 C446 1.386 . S
C447 C448 1.382 . S
C447 H473 0.950 . S
C448 N445 1.332 . S
C448 C447 1.382 . S
C448 H459 0.952 . S
C449 C446 1.388 . S
C449 C450 1.382 . S
C449 H474 0.950 . S
C450 N445 1.332 . S
C450 C449 1.382 . S
C450 H460 0.948 . S
N451 Co429 2.282 . S
N451 C455 1.332 . S
N451 C456 1.332 . S
C452 C453 1.388 . S
C452 C456 1.382 . S
C452 H475 0.950 . S
C453 C452 1.388 . S
C453 C454 1.386 . S
C454 C453 1.386 . S
C454 C455 1.382 . S
C454 H476 0.950 . S
C455 N451 1.332 . S
C455 C454 1.382 . S
C455 H457 0.952 . S
C456 N451 1.332 . S
C456 C452 1.382 . S
C456 H458 0.948 . S
H457 C455 0.952 . S
H458 C456 0.948 . S
H459 C448 0.952 . S
H460 C450 0.948 . S
C461 C427 1.395 . S
C461 C431 1.391 . S
C462 C424 1.389 . S
C462 C444 1.392 . S
C463 C434 1.392 . S
C463 C436 1.389 . S
C464 C439 1.395 . S
C464 C441 1.391 . S
H465 C425 0.951 . S
H466 C426 0.950 . S
H467 C432 0.949 . S
H468 C433 0.950 . S
H469 C437 0.951 . S
H470 C438 0.950 . S
H471 C442 0.949 . S
H472 C443 0.950 . S
H473 C447 0.950 . S
H474 C449 0.950 . S
H475 C452 0.950 . S
H476 C454 0.950 . S
C477 C478 1.443 . S
C477 N481 1.376 . S
C477 C515 1.389 . S
C478 C477 1.443 . S
C478 C479 1.340 . S
C478 H518 0.951 . S
C479 C478 1.340 . S
C479 C480 1.439 . S
C479 H519 0.950 . S
C480 C479 1.439 . S
C480 N481 1.374 . S
C480 C514 1.395 . S
N481 C477 1.376 . S
N481 C480 1.374 . S
N481 Co482 2.008 . S
Co482 N481 2.008 . S
Co482 N483 1.995 . S
Co482 N488 2.008 . S
Co482 N493 1.995 . S
Co482 N498 2.282 . S
Co482 N504 2.282 . S
N483 Co482 1.995 . S
N483 C484 1.376 . S
N483 C487 1.383 . S
C484 N483 1.376 . S
C484 C485 1.446 . S
C484 C514 1.391 . S
C485 C484 1.446 . S
C485 C486 1.339 . S
C485 H520 0.949 . S
C486 C485 1.339 . S
C486 C487 1.439 . S
C486 H521 0.950 . S
C487 N483 1.383 . S
C487 C486 1.439 . S
C487 C516 1.392 . S
N488 Co482 2.008 . S
N488 C489 1.376 . S
N488 C492 1.374 . S
C489 N488 1.376 . S
C489 C490 1.443 . S
C489 C516 1.389 . S
C490 C489 1.443 . S
C490 C491 1.340 . S
C490 H522 0.951 . S
C491 C490 1.340 . S
C491 C492 1.439 . S
C491 H523 0.950 . S
C492 N488 1.374 . S
C492 C491 1.439 . S
C492 C517 1.395 . S
N493 Co482 1.995 . S
N493 C494 1.376 . S
N493 C497 1.383 . S
C494 N493 1.376 . S
C494 C495 1.446 . S
C494 C517 1.391 . S
C495 C494 1.446 . S
C495 C496 1.339 . S
C495 H524 0.949 . S
C496 C495 1.339 . S
C496 C497 1.439 . S
C496 H525 0.950 . S
C497 N493 1.383 . S
C497 C496 1.439 . S
C497 C515 1.392 . S
N498 Co482 2.282 . S
N498 C501 1.332 . S
N498 C503 1.332 . S
C499 C500 1.386 . S
C499 C502 1.388 . S
C500 C499 1.386 . S
C500 C501 1.382 . S
C500 H526 0.950 . S
C501 N498 1.332 . S
C501 C500 1.382 . S
C501 H512 0.952 . S
C502 C499 1.388 . S
C502 C503 1.382 . S
C502 H527 0.950 . S
C503 N498 1.332 . S
C503 C502 1.382 . S
C503 H513 0.948 . S
N504 Co482 2.282 . S
N504 C508 1.332 . S
N504 C509 1.332 . S
C505 C506 1.388 . S
C505 C509 1.382 . S
C505 H528 0.950 . S
C506 C505 1.388 . S
C506 C507 1.386 . S
C507 C506 1.386 . S
C507 C508 1.382 . S
C507 H529 0.950 . S
C508 N504 1.332 . S
C508 C507 1.382 . S
C508 H510 0.952 . S
C509 N504 1.332 . S
C509 C505 1.382 . S
C509 H511 0.948 . S
H510 C508 0.952 . S
H511 C509 0.948 . S
H512 C501 0.952 . S
H513 C503 0.948 . S
C514 C480 1.395 . S
C514 C484 1.391 . S
C515 C477 1.389 . S
C515 C497 1.392 . S
C516 C487 1.392 . S
C516 C489 1.389 . S
C517 C492 1.395 . S
C517 C494 1.391 . S
H518 C478 0.951 . S
H519 C479 0.950 . S
H520 C485 0.949 . S
H521 C486 0.950 . S
H522 C490 0.951 . S
H523 C491 0.950 . S
H524 C495 0.949 . S
H525 C496 0.950 . S
H526 C500 0.950 . S
H527 C502 0.950 . S
H528 C505 0.950 . S
H529 C507 0.950 . S
C530 C531 1.443 . S
C530 N534 1.376 . S
C530 C568 1.389 . S
C531 C530 1.443 . S
C531 C532 1.340 . S
C531 H571 0.951 . S
C532 C531 1.340 . S
C532 C533 1.439 . S
C532 H572 0.950 . S
C533 C532 1.439 . S
C533 N534 1.374 . S
C533 C567 1.395 . S
N534 C530 1.376 . S
N534 C533 1.374 . S
N534 Co535 2.008 . S
Co535 N534 2.008 . S
Co535 N536 1.995 . S
Co535 N541 2.008 . S
Co535 N546 1.995 . S
Co535 N551 2.282 . S
Co535 N557 2.282 . S
N536 Co535 1.995 . S
N536 C537 1.376 . S
N536 C540 1.383 . S
C537 N536 1.376 . S
C537 C538 1.446 . S
C537 C567 1.391 . S
C538 C537 1.446 . S
C538 C539 1.339 . S
C538 H573 0.949 . S
C539 C538 1.339 . S
C539 C540 1.439 . S
C539 H574 0.950 . S
C540 N536 1.383 . S
C540 C539 1.439 . S
C540 C569 1.392 . S
N541 Co535 2.008 . S
N541 C542 1.376 . S
N541 C545 1.374 . S
C542 N541 1.376 . S
C542 C543 1.443 . S
C542 C569 1.389 . S
C543 C542 1.443 . S
C543 C544 1.340 . S
C543 H575 0.951 . S
C544 C543 1.340 . S
C544 C545 1.439 . S
C544 H576 0.950 . S
C545 N541 1.374 . S
C545 C544 1.439 . S
C545 C570 1.395 . S
N546 Co535 1.995 . S
N546 C547 1.376 . S
N546 C550 1.383 . S
C547 N546 1.376 . S
C547 C548 1.446 . S
C547 C570 1.391 . S
C548 C547 1.446 . S
C548 C549 1.339 . S
C548 H577 0.949 . S
C549 C548 1.339 . S
C549 C550 1.439 . S
C549 H578 0.950 . S
C550 N546 1.383 . S
C550 C549 1.439 . S
C550 C568 1.392 . S
N551 Co535 2.282 . S
N551 C554 1.332 . S
N551 C556 1.332 . S
C552 C553 1.386 . S
C552 C555 1.388 . S
C553 C552 1.386 . S
C553 C554 1.382 . S
C553 H579 0.950 . S
C554 N551 1.332 . S
C554 C553 1.382 . S
C554 H565 0.952 . S
C555 C552 1.388 . S
C555 C556 1.382 . S
C555 H580 0.950 . S
C556 N551 1.332 . S
C556 C555 1.382 . S
C556 H566 0.948 . S
N557 Co535 2.282 . S
N557 C561 1.332 . S
N557 C562 1.332 . S
C558 C559 1.388 . S
C558 C562 1.382 . S
C558 H581 0.950 . S
C559 C558 1.388 . S
C559 C560 1.386 . S
C560 C559 1.386 . S
C560 C561 1.382 . S
C560 H582 0.950 . S
C561 N557 1.332 . S
C561 C560 1.382 . S
C561 H563 0.952 . S
C562 N557 1.332 . S
C562 C558 1.382 . S
C562 H564 0.948 . S
H563 C561 0.952 . S
H564 C562 0.948 . S
H565 C554 0.952 . S
H566 C556 0.948 . S
C567 C533 1.395 . S
C567 C537 1.391 . S
C568 C530 1.389 . S
C568 C550 1.392 . S
C569 C540 1.392 . S
C569 C542 1.389 . S
C570 C545 1.395 . S
C570 C547 1.391 . S
H571 C531 0.951 . S
H572 C532 0.950 . S
H573 C538 0.949 . S
H574 C539 0.950 . S
H575 C543 0.951 . S
H576 C544 0.950 . S
H577 C548 0.949 . S
H578 C549 0.950 . S
H579 C553 0.950 . S
H580 C555 0.950 . S
H581 C558 0.950 . S
H582 C560 0.950 . S
C583 C584 1.443 . S
C583 N587 1.376 . S
C583 C621 1.389 . S
C584 C583 1.443 . S
C584 C585 1.340 . S
C584 H624 0.951 . S
C585 C584 1.340 . S
C585 C586 1.439 . S
C585 H625 0.950 . S
C586 C585 1.439 . S
C586 N587 1.374 . S
C586 C620 1.395 . S
N587 C583 1.376 . S
N587 C586 1.374 . S
N587 Co588 2.008 . S
Co588 N587 2.008 . S
Co588 N589 1.995 . S
Co588 N594 2.008 . S
Co588 N599 1.995 . S
Co588 N604 2.282 . S
Co588 N610 2.282 . S
N589 Co588 1.995 . S
N589 C590 1.376 . S
N589 C593 1.383 . S
C590 N589 1.376 . S
C590 C591 1.446 . S
C590 C620 1.391 . S
C591 C590 1.446 . S
C591 C592 1.339 . S
C591 H626 0.949 . S
C592 C591 1.339 . S
C592 C593 1.439 . S
C592 H627 0.950 . S
C593 N589 1.383 . S
C593 C592 1.439 . S
C593 C622 1.392 . S
N594 Co588 2.008 . S
N594 C595 1.376 . S
N594 C598 1.374 . S
C595 N594 1.376 . S
C595 C596 1.443 . S
C595 C622 1.389 . S
C596 C595 1.443 . S
C596 C597 1.340 . S
C596 H628 0.951 . S
C597 C596 1.340 . S
C597 C598 1.439 . S
C597 H629 0.950 . S
C598 N594 1.374 . S
C598 C597 1.439 . S
C598 C623 1.395 . S
N599 Co588 1.995 . S
N599 C600 1.376 . S
N599 C603 1.383 . S
C600 N599 1.376 . S
C600 C601 1.446 . S
C600 C623 1.391 . S
C601 C600 1.446 . S
C601 C602 1.339 . S
C601 H630 0.949 . S
C602 C601 1.339 . S
C602 C603 1.439 . S
C602 H631 0.950 . S
C603 N599 1.383 . S
C603 C602 1.439 . S
C603 C621 1.392 . S
N604 Co588 2.282 . S
N604 C607 1.332 . S
N604 C609 1.332 . S
C605 C606 1.386 . S
C605 C608 1.388 . S
C606 C605 1.386 . S
C606 C607 1.382 . S
C606 H632 0.950 . S
C607 N604 1.332 . S
C607 C606 1.382 . S
C607 H618 0.952 . S
C608 C605 1.388 . S
C608 C609 1.382 . S
C608 H633 0.950 . S
C609 N604 1.332 . S
C609 C608 1.382 . S
C609 H619 0.948 . S
N610 Co588 2.282 . S
N610 C614 1.332 . S
N610 C615 1.332 . S
C611 C612 1.388 . S
C611 C615 1.382 . S
C611 H634 0.950 . S
C612 C611 1.388 . S
C612 C613 1.386 . S
C613 C612 1.386 . S
C613 C614 1.382 . S
C613 H635 0.950 . S
C614 N610 1.332 . S
C614 C613 1.382 . S
C614 H616 0.952 . S
C615 N610 1.332 . S
C615 C611 1.382 . S
C615 H617 0.948 . S
H616 C614 0.952 . S
H617 C615 0.948 . S
H618 C607 0.952 . S
H619 C609 0.948 . S
C620 C586 1.395 . S
C620 C590 1.391 . S
C621 C583 1.389 . S
C621 C603 1.392 . S
C622 C593 1.392 . S
C622 C595 1.389 . S
C623 C598 1.395 . S
C623 C600 1.391 . S
H624 C584 0.951 . S
H625 C585 0.950 . S
H626 C591 0.949 . S
H627 C592 0.950 . S
H628 C596 0.951 . S
H629 C597 0.950 . S
H630 C601 0.949 . S
H631 C602 0.950 . S
H632 C606 0.950 . S
H633 C608 0.950 . S
H634 C611 0.950 . S
H635 C613 0.950 . S
H636 C644 0.950 . S
H637 C649 0.950 . S
H638 C646 0.950 . S
H639 C648 0.950 . S
H640 C650 0.950 . S
H641 C652 0.950 . S
H642 C654 0.950 . S
H643 C655 0.950 . S
C644 H636 0.950 . S
C644 C645 1.386 . S
C644 C646 1.391 . S
C645 C644 1.386 . S
C645 C649 1.393 . S
C646 H638 0.950 . S
C646 C644 1.391 . S
C646 C647 1.400 . S
C647 C646 1.400 . S
C647 C648 1.398 . S
C647 C653 1.491 . S
C648 H639 0.950 . S
C648 C647 1.398 . S
C648 C649 1.391 . S
C649 H637 0.950 . S
C649 C645 1.393 . S
C649 C648 1.391 . S
C650 H640 0.950 . S
C650 C651 1.386 . S
C650 C652 1.391 . S
C651 C650 1.386 . S
C651 C655 1.393 . S
C652 H641 0.950 . S
C652 C650 1.391 . S
C652 C653 1.400 . S
C653 C647 1.491 . S
C653 C652 1.400 . S
C653 C654 1.398 . S
C654 H642 0.950 . S
C654 C653 1.398 . S
C654 C655 1.391 . S
C655 H643 0.950 . S
C655 C651 1.393 . S
C655 C654 1.391 . S
H656 C664 0.950 . S
H657 C669 0.950 . S
H658 C666 0.950 . S
H659 C668 0.950 . S
H660 C670 0.950 . S
H661 C672 0.950 . S
H662 C674 0.950 . S
H663 C675 0.950 . S
C664 H656 0.950 . S
C664 C665 1.386 . S
C664 C666 1.391 . S
C665 C664 1.386 . S
C665 C669 1.393 . S
C666 H658 0.950 . S
C666 C664 1.391 . S
C666 C667 1.400 . S
C667 C666 1.400 . S
C667 C668 1.398 . S
C667 C673 1.491 . S
C668 H659 0.950 . S
C668 C667 1.398 . S
C668 C669 1.391 . S
C669 H657 0.950 . S
C669 C665 1.393 . S
C669 C668 1.391 . S
C670 H660 0.950 . S
C670 C671 1.386 . S
C670 C672 1.391 . S
C671 C670 1.386 . S
C671 C675 1.393 . S
C672 H661 0.950 . S
C672 C670 1.391 . S
C672 C673 1.400 . S
C673 C667 1.491 . S
C673 C672 1.400 . S
C673 C674 1.398 . S
C674 H662 0.950 . S
C674 C673 1.398 . S
C674 C675 1.391 . S
C675 H663 0.950 . S
C675 C671 1.393 . S
C675 C674 1.391 . S
H676 C684 0.950 . S
H677 C689 0.950 . S
H678 C686 0.950 . S
H679 C688 0.950 . S
H680 C690 0.950 . S
H681 C692 0.950 . S
H682 C694 0.950 . S
H683 C695 0.950 . S
C684 H676 0.950 . S
C684 C685 1.386 . S
C684 C686 1.391 . S
C685 C684 1.386 . S
C685 C689 1.393 . S
C686 H678 0.950 . S
C686 C684 1.391 . S
C686 C687 1.400 . S
C687 C686 1.400 . S
C687 C688 1.398 . S
C687 C693 1.491 . S
C688 H679 0.950 . S
C688 C687 1.398 . S
C688 C689 1.391 . S
C689 H677 0.950 . S
C689 C685 1.393 . S
C689 C688 1.391 . S
C690 H680 0.950 . S
C690 C691 1.386 . S
C690 C692 1.391 . S
C691 C690 1.386 . S
C691 C695 1.393 . S
C692 H681 0.950 . S
C692 C690 1.391 . S
C692 C693 1.400 . S
C693 C687 1.491 . S
C693 C692 1.400 . S
C693 C694 1.398 . S
C694 H682 0.950 . S
C694 C693 1.398 . S
C694 C695 1.391 . S
C695 H683 0.950 . S
C695 C691 1.393 . S
C695 C694 1.391 . S
H696 C704 0.950 . S
H697 C709 0.950 . S
H698 C706 0.950 . S
H699 C708 0.950 . S
H700 C710 0.950 . S
H701 C712 0.950 . S
H702 C714 0.950 . S
H703 C715 0.950 . S
C704 H696 0.950 . S
C704 C705 1.386 . S
C704 C706 1.391 . S
C705 C704 1.386 . S
C705 C709 1.393 . S
C706 H698 0.950 . S
C706 C704 1.391 . S
C706 C707 1.400 . S
C707 C706 1.400 . S
C707 C708 1.398 . S
C707 C713 1.491 . S
C708 H699 0.950 . S
C708 C707 1.398 . S
C708 C709 1.391 . S
C709 H697 0.950 . S
C709 C705 1.393 . S
C709 C708 1.391 . S
C710 H700 0.950 . S
C710 C711 1.386 . S
C710 C712 1.391 . S
C711 C710 1.386 . S
C711 C715 1.393 . S
C712 H701 0.950 . S
C712 C710 1.391 . S
C712 C713 1.400 . S
C713 C707 1.491 . S
C713 C712 1.400 . S
C713 C714 1.398 . S
C714 H702 0.950 . S
C714 C713 1.398 . S
C714 C715 1.391 . S
C715 H703 0.950 . S
C715 C711 1.393 . S
C715 C714 1.391 . S
H716 C724 0.950 . S
H717 C729 0.950 . S
H718 C726 0.950 . S
H719 C728 0.950 . S
H720 C730 0.950 . S
H721 C732 0.950 . S
H722 C734 0.950 . S
H723 C735 0.950 . S
C724 H716 0.950 . S
C724 C725 1.386 . S
C724 C726 1.391 . S
C725 C724 1.386 . S
C725 C729 1.393 . S
C726 H718 0.950 . S
C726 C724 1.391 . S
C726 C727 1.400 . S
C727 C726 1.400 . S
C727 C728 1.398 . S
C727 C733 1.491 . S
C728 H719 0.950 . S
C728 C727 1.398 . S
C728 C729 1.391 . S
C729 H717 0.950 . S
C729 C725 1.393 . S
C729 C728 1.391 . S
C730 H720 0.950 . S
C730 C731 1.386 . S
C730 C732 1.391 . S
C731 C730 1.386 . S
C731 C735 1.393 . S
C732 H721 0.950 . S
C732 C730 1.391 . S
C732 C733 1.400 . S
C733 C727 1.491 . S
C733 C732 1.400 . S
C733 C734 1.398 . S
C734 H722 0.950 . S
C734 C733 1.398 . S
C734 C735 1.391 . S
C735 H723 0.950 . S
C735 C731 1.393 . S
C735 C734 1.391 . S
H736 C744 0.950 . S
H737 C749 0.950 . S
H738 C746 0.950 . S
H739 C748 0.950 . S
H740 C750 0.950 . S
H741 C752 0.950 . S
H742 C754 0.950 . S
H743 C755 0.950 . S
C744 H736 0.950 . S
C744 C745 1.386 . S
C744 C746 1.391 . S
C745 C744 1.386 . S
C745 C749 1.393 . S
C746 H738 0.950 . S
C746 C744 1.391 . S
C746 C747 1.400 . S
C747 C746 1.400 . S
C747 C748 1.398 . S
C747 C753 1.491 . S
C748 H739 0.950 . S
C748 C747 1.398 . S
C748 C749 1.391 . S
C749 H737 0.950 . S
C749 C745 1.393 . S
C749 C748 1.391 . S
C750 H740 0.950 . S
C750 C751 1.386 . S
C750 C752 1.391 . S
C751 C750 1.386 . S
C751 C755 1.393 . S
C752 H741 0.950 . S
C752 C750 1.391 . S
C752 C753 1.400 . S
C753 C747 1.491 . S
C753 C752 1.400 . S
C753 C754 1.398 . S
C754 H742 0.950 . S
C754 C753 1.398 . S
C754 C755 1.391 . S
C755 H743 0.950 . S
C755 C751 1.393 . S
C755 C754 1.391 . S
H756 C764 0.950 . S
H757 C769 0.950 . S
H758 C766 0.950 . S
H759 C768 0.950 . S
H760 C770 0.950 . S
H761 C772 0.950 . S
H762 C774 0.950 . S
H763 C775 0.950 . S
C764 H756 0.950 . S
C764 C765 1.386 . S
C764 C766 1.391 . S
C765 C764 1.386 . S
C765 C769 1.393 . S
C766 H758 0.950 . S
C766 C764 1.391 . S
C766 C767 1.400 . S
C767 C766 1.400 . S
C767 C768 1.398 . S
C767 C773 1.491 . S
C768 H759 0.950 . S
C768 C767 1.398 . S
C768 C769 1.391 . S
C769 H757 0.950 . S
C769 C765 1.393 . S
C769 C768 1.391 . S
C770 H760 0.950 . S
C770 C771 1.386 . S
C770 C772 1.391 . S
C771 C770 1.386 . S
C771 C775 1.393 . S
C772 H761 0.950 . S
C772 C770 1.391 . S
C772 C773 1.400 . S
C773 C767 1.491 . S
C773 C772 1.400 . S
C773 C774 1.398 . S
C774 H762 0.950 . S
C774 C773 1.398 . S
C774 C775 1.391 . S
C775 H763 0.950 . S
C775 C771 1.393 . S
C775 C774 1.391 . S
H776 C784 0.950 . S
H777 C789 0.950 . S
H778 C786 0.950 . S
H779 C788 0.950 . S
H780 C790 0.950 . S
H781 C792 0.950 . S
H782 C794 0.950 . S
H783 C795 0.950 . S
C784 H776 0.950 . S
C784 C785 1.386 . S
C784 C786 1.391 . S
C785 C784 1.386 . S
C785 C789 1.393 . S
C786 H778 0.950 . S
C786 C784 1.391 . S
C786 C787 1.400 . S
C787 C786 1.400 . S
C787 C788 1.398 . S
C787 C793 1.491 . S
C788 H779 0.950 . S
C788 C787 1.398 . S
C788 C789 1.391 . S
C789 H777 0.950 . S
C789 C785 1.393 . S
C789 C788 1.391 . S
C790 H780 0.950 . S
C790 C791 1.386 . S
C790 C792 1.391 . S
C791 C790 1.386 . S
C791 C795 1.393 . S
C792 H781 0.950 . S
C792 C790 1.391 . S
C792 C793 1.400 . S
C793 C787 1.491 . S
C793 C792 1.400 . S
C793 C794 1.398 . S
C794 H782 0.950 . S
C794 C793 1.398 . S
C794 C795 1.391 . S
C795 H783 0.950 . S
C795 C791 1.393 . S
C795 C794 1.391 . S
H796 C804 0.950 . S
H797 C809 0.950 . S
H798 C806 0.950 . S
H799 C808 0.950 . S
H800 C810 0.950 . S
H801 C812 0.950 . S
H802 C814 0.950 . S
H803 C815 0.950 . S
C804 H796 0.950 . S
C804 C805 1.386 . S
C804 C806 1.391 . S
C805 C804 1.386 . S
C805 C809 1.393 . S
C806 H798 0.950 . S
C806 C804 1.391 . S
C806 C807 1.400 . S
C807 C806 1.400 . S
C807 C808 1.398 . S
C807 C813 1.491 . S
C808 H799 0.950 . S
C808 C807 1.398 . S
C808 C809 1.391 . S
C809 H797 0.950 . S
C809 C805 1.393 . S
C809 C808 1.391 . S
C810 H800 0.950 . S
C810 C811 1.386 . S
C810 C812 1.391 . S
C811 C810 1.386 . S
C811 C815 1.393 . S
C812 H801 0.950 . S
C812 C810 1.391 . S
C812 C813 1.400 . S
C813 C807 1.491 . S
C813 C812 1.400 . S
C813 C814 1.398 . S
C814 H802 0.950 . S
C814 C813 1.398 . S
C814 C815 1.391 . S
C815 H803 0.950 . S
C815 C811 1.393 . S
C815 C814 1.391 . S
H816 C824 0.950 . S
H817 C829 0.950 . S
H818 C826 0.950 . S
H819 C828 0.950 . S
H820 C830 0.950 . S
H821 C832 0.950 . S
H822 C834 0.950 . S
H823 C835 0.950 . S
C824 H816 0.950 . S
C824 C825 1.386 . S
C824 C826 1.391 . S
C825 C824 1.386 . S
C825 C829 1.393 . S
C826 H818 0.950 . S
C826 C824 1.391 . S
C826 C827 1.400 . S
C827 C826 1.400 . S
C827 C828 1.398 . S
C827 C833 1.491 . S
C828 H819 0.950 . S
C828 C827 1.398 . S
C828 C829 1.391 . S
C829 H817 0.950 . S
C829 C825 1.393 . S
C829 C828 1.391 . S
C830 H820 0.950 . S
C830 C831 1.386 . S
C830 C832 1.391 . S
C831 C830 1.386 . S
C831 C835 1.393 . S
C832 H821 0.950 . S
C832 C830 1.391 . S
C832 C833 1.400 . S
C833 C827 1.491 . S
C833 C832 1.400 . S
C833 C834 1.398 . S
C834 H822 0.950 . S
C834 C833 1.398 . S
C834 C835 1.391 . S
C835 H823 0.950 . S
C835 C831 1.393 . S
C835 C834 1.391 . S
H836 C844 0.950 . S
H837 C849 0.950 . S
H838 C846 0.950 . S
H839 C848 0.950 . S
H840 C850 0.950 . S
H841 C852 0.950 . S
H842 C854 0.950 . S
H843 C855 0.950 . S
C844 H836 0.950 . S
C844 C845 1.386 . S
C844 C846 1.391 . S
C845 C844 1.386 . S
C845 C849 1.393 . S
C846 H838 0.950 . S
C846 C844 1.391 . S
C846 C847 1.400 . S
C847 C846 1.400 . S
C847 C848 1.398 . S
C847 C853 1.491 . S
C848 H839 0.950 . S
C848 C847 1.398 . S
C848 C849 1.391 . S
C849 H837 0.950 . S
C849 C845 1.393 . S
C849 C848 1.391 . S
C850 H840 0.950 . S
C850 C851 1.386 . S
C850 C852 1.391 . S
C851 C850 1.386 . S
C851 C855 1.393 . S
C852 H841 0.950 . S
C852 C850 1.391 . S
C852 C853 1.400 . S
C853 C847 1.491 . S
C853 C852 1.400 . S
C853 C854 1.398 . S
C854 H842 0.950 . S
C854 C853 1.398 . S
C854 C855 1.391 . S
C855 H843 0.950 . S
C855 C851 1.393 . S
C855 C854 1.391 . S
H856 C864 0.950 . S
H857 C869 0.950 . S
H858 C866 0.950 . S
H859 C868 0.950 . S
H860 C870 0.950 . S
H861 C872 0.950 . S
H862 C874 0.950 . S
H863 C875 0.950 . S
C864 H856 0.950 . S
C864 C865 1.386 . S
C864 C866 1.391 . S
C865 C864 1.386 . S
C865 C869 1.393 . S
C866 H858 0.950 . S
C866 C864 1.391 . S
C866 C867 1.400 . S
C867 C866 1.400 . S
C867 C868 1.398 . S
C867 C873 1.491 . S
C868 H859 0.950 . S
C868 C867 1.398 . S
C868 C869 1.391 . S
C869 H857 0.950 . S
C869 C865 1.393 . S
C869 C868 1.391 . S
C870 H860 0.950 . S
C870 C871 1.386 . S
C870 C872 1.391 . S
C871 C870 1.386 . S
C871 C875 1.393 . S
C872 H861 0.950 . S
C872 C870 1.391 . S
C872 C873 1.400 . S
C873 C867 1.491 . S
C873 C872 1.400 . S
C873 C874 1.398 . S
C874 H862 0.950 . S
C874 C873 1.398 . S
C874 C875 1.391 . S
C875 H863 0.950 . S
C875 C871 1.393 . S
C875 C874 1.391 . S
H876 C884 0.950 . S
H877 C889 0.950 . S
H878 C886 0.950 . S
H879 C888 0.950 . S
H880 C890 0.950 . S
H881 C892 0.950 . S
H882 C894 0.950 . S
H883 C895 0.950 . S
C884 H876 0.950 . S
C884 C885 1.386 . S
C884 C886 1.391 . S
C885 C884 1.386 . S
C885 C889 1.393 . S
C886 H878 0.950 . S
C886 C884 1.391 . S
C886 C887 1.400 . S
C887 C886 1.400 . S
C887 C888 1.398 . S
C887 C893 1.491 . S
C888 H879 0.950 . S
C888 C887 1.398 . S
C888 C889 1.391 . S
C889 H877 0.950 . S
C889 C885 1.393 . S
C889 C888 1.391 . S
C890 H880 0.950 . S
C890 C891 1.386 . S
C890 C892 1.391 . S
C891 C890 1.386 . S
C891 C895 1.393 . S
C892 H881 0.950 . S
C892 C890 1.391 . S
C892 C893 1.400 . S
C893 C887 1.491 . S
C893 C892 1.400 . S
C893 C894 1.398 . S
C894 H882 0.950 . S
C894 C893 1.398 . S
C894 C895 1.391 . S
C895 H883 0.950 . S
C895 C891 1.393 . S
C895 C894 1.391 . S
H896 C904 0.950 . S
H897 C909 0.950 . S
H898 C906 0.950 . S
H899 C908 0.950 . S
H900 C910 0.950 . S
H901 C912 0.950 . S
H902 C914 0.950 . S
H903 C915 0.950 . S
C904 H896 0.950 . S
C904 C905 1.386 . S
C904 C906 1.391 . S
C905 C904 1.386 . S
C905 C909 1.393 . S
C906 H898 0.950 . S
C906 C904 1.391 . S
C906 C907 1.400 . S
C907 C906 1.400 . S
C907 C908 1.398 . S
C907 C913 1.491 . S
C908 H899 0.950 . S
C908 C907 1.398 . S
C908 C909 1.391 . S
C909 H897 0.950 . S
C909 C905 1.393 . S
C909 C908 1.391 . S
C910 H900 0.950 . S
C910 C911 1.386 . S
C910 C912 1.391 . S
C911 C910 1.386 . S
C911 C915 1.393 . S
C912 H901 0.950 . S
C912 C910 1.391 . S
C912 C913 1.400 . S
C913 C907 1.491 . S
C913 C912 1.400 . S
C913 C914 1.398 . S
C914 H902 0.950 . S
C914 C913 1.398 . S
C914 C915 1.391 . S
C915 H903 0.950 . S
C915 C911 1.393 . S
C915 C914 1.391 . S
H916 C924 0.950 . S
H917 C929 0.950 . S
H918 C926 0.950 . S
H919 C928 0.950 . S
H920 C930 0.950 . S
H921 C932 0.950 . S
H922 C934 0.950 . S
H923 C935 0.950 . S
C924 H916 0.950 . S
C924 C925 1.386 . S
C924 C926 1.391 . S
C925 C924 1.386 . S
C925 C929 1.393 . S
C926 H918 0.950 . S
C926 C924 1.391 . S
C926 C927 1.400 . S
C927 C926 1.400 . S
C927 C928 1.398 . S
C927 C933 1.491 . S
C928 H919 0.950 . S
C928 C927 1.398 . S
C928 C929 1.391 . S
C929 H917 0.950 . S
C929 C925 1.393 . S
C929 C928 1.391 . S
C930 H920 0.950 . S
C930 C931 1.386 . S
C930 C932 1.391 . S
C931 C930 1.386 . S
C931 C935 1.393 . S
C932 H921 0.950 . S
C932 C930 1.391 . S
C932 C933 1.400 . S
C933 C927 1.491 . S
C933 C932 1.400 . S
C933 C934 1.398 . S
C934 H922 0.950 . S
C934 C933 1.398 . S
C934 C935 1.391 . S
C935 H923 0.950 . S
C935 C931 1.393 . S
C935 C934 1.391 . S
H936 C944 0.950 . S
H937 C949 0.950 . S
H938 C946 0.950 . S
H939 C948 0.950 . S
H940 C950 0.950 . S
H941 C952 0.950 . S
H942 C954 0.950 . S
H943 C955 0.950 . S
C944 H936 0.950 . S
C944 C945 1.386 . S
C944 C946 1.391 . S
C945 C944 1.386 . S
C945 C949 1.393 . S
C946 H938 0.950 . S
C946 C944 1.391 . S
C946 C947 1.400 . S
C947 C946 1.400 . S
C947 C948 1.398 . S
C947 C953 1.491 . S
C948 H939 0.950 . S
C948 C947 1.398 . S
C948 C949 1.391 . S
C949 H937 0.950 . S
C949 C945 1.393 . S
C949 C948 1.391 . S
C950 H940 0.950 . S
C950 C951 1.386 . S
C950 C952 1.391 . S
C951 C950 1.386 . S
C951 C955 1.393 . S
C952 H941 0.950 . S
C952 C950 1.391 . S
C952 C953 1.400 . S
C953 C947 1.491 . S
C953 C952 1.400 . S
C953 C954 1.398 . S
C954 H942 0.950 . S
C954 C953 1.398 . S
C954 C955 1.391 . S
C955 H943 0.950 . S
C955 C951 1.393 . S
C955 C954 1.391 . S
H956 C964 0.950 . S
H957 C969 0.950 . S
H958 C966 0.950 . S
H959 C968 0.950 . S
H960 C970 0.950 . S
H961 C972 0.950 . S
H962 C974 0.950 . S
H963 C975 0.950 . S
C964 H956 0.950 . S
C964 C965 1.386 . S
C964 C966 1.391 . S
C965 C964 1.386 . S
C965 C969 1.393 . S
C966 H958 0.950 . S
C966 C964 1.391 . S
C966 C967 1.400 . S
C967 C966 1.400 . S
C967 C968 1.398 . S
C967 C973 1.491 . S
C968 H959 0.950 . S
C968 C967 1.398 . S
C968 C969 1.391 . S
C969 H957 0.950 . S
C969 C965 1.393 . S
C969 C968 1.391 . S
C970 H960 0.950 . S
C970 C971 1.386 . S
C970 C972 1.391 . S
C971 C970 1.386 . S
C971 C975 1.393 . S
C972 H961 0.950 . S
C972 C970 1.391 . S
C972 C973 1.400 . S
C973 C967 1.491 . S
C973 C972 1.400 . S
C973 C974 1.398 . S
C974 H962 0.950 . S
C974 C973 1.398 . S
C974 C975 1.391 . S
C975 H963 0.950 . S
C975 C971 1.393 . S
C975 C974 1.391 . S
H976 C984 0.950 . S
H977 C989 0.950 . S
H978 C986 0.950 . S
H979 C988 0.950 . S
H980 C990 0.950 . S
H981 C992 0.950 . S
H982 C994 0.950 . S
H983 C995 0.950 . S
C984 H976 0.950 . S
C984 C985 1.386 . S
C984 C986 1.391 . S
C985 C984 1.386 . S
C985 C989 1.393 . S
C986 H978 0.950 . S
C986 C984 1.391 . S
C986 C987 1.400 . S
C987 C986 1.400 . S
C987 C988 1.398 . S
C987 C993 1.491 . S
C988 H979 0.950 . S
C988 C987 1.398 . S
C988 C989 1.391 . S
C989 H977 0.950 . S
C989 C985 1.393 . S
C989 C988 1.391 . S
C990 H980 0.950 . S
C990 C991 1.386 . S
C990 C992 1.391 . S
C991 C990 1.386 . S
C991 C995 1.393 . S
C992 H981 0.950 . S
C992 C990 1.391 . S
C992 C993 1.400 . S
C993 C987 1.491 . S
C993 C992 1.400 . S
C993 C994 1.398 . S
C994 H982 0.950 . S
C994 C993 1.398 . S
C994 C995 1.391 . S
C995 H983 0.950 . S
C995 C991 1.393 . S
C995 C994 1.391 . S
H996 C1004 0.950 . S
H997 C1009 0.950 . S
H998 C1006 0.950 . S
H999 C1008 0.950 . S
H1000 C1010 0.950 . S
H1001 C1012 0.950 . S
H1002 C1014 0.950 . S
H1003 C1015 0.950 . S
C1004 H996 0.950 . S
C1004 C1005 1.386 . S
C1004 C1006 1.391 . S
C1005 C1004 1.386 . S
C1005 C1009 1.393 . S
C1006 H998 0.950 . S
C1006 C1004 1.391 . S
C1006 C1007 1.400 . S
C1007 C1006 1.400 . S
C1007 C1008 1.398 . S
C1007 C1013 1.491 . S
C1008 H999 0.950 . S
C1008 C1007 1.398 . S
C1008 C1009 1.391 . S
C1009 H997 0.950 . S
C1009 C1005 1.393 . S
C1009 C1008 1.391 . S
C1010 H1000 0.950 . S
C1010 C1011 1.386 . S
C1010 C1012 1.391 . S
C1011 C1010 1.386 . S
C1011 C1015 1.393 . S
C1012 H1001 0.950 . S
C1012 C1010 1.391 . S
C1012 C1013 1.400 . S
C1013 C1007 1.491 . S
C1013 C1012 1.400 . S
C1013 C1014 1.398 . S
C1014 H1002 0.950 . S
C1014 C1013 1.398 . S
C1014 C1015 1.391 . S
C1015 H1003 0.950 . S
C1015 C1011 1.393 . S
C1015 C1014 1.391 . S
H1016 C1024 0.950 . S
H1017 C1029 0.950 . S
H1018 C1026 0.950 . S
H1019 C1028 0.950 . S
H1020 C1030 0.950 . S
H1021 C1032 0.950 . S
H1022 C1034 0.950 . S
H1023 C1035 0.950 . S
C1024 H1016 0.950 . S
C1024 C1025 1.386 . S
C1024 C1026 1.391 . S
C1025 C1024 1.386 . S
C1025 C1029 1.393 . S
C1026 H1018 0.950 . S
C1026 C1024 1.391 . S
C1026 C1027 1.400 . S
C1027 C1026 1.400 . S
C1027 C1028 1.398 . S
C1027 C1033 1.491 . S
C1028 H1019 0.950 . S
C1028 C1027 1.398 . S
C1028 C1029 1.391 . S
C1029 H1017 0.950 . S
C1029 C1025 1.393 . S
C1029 C1028 1.391 . S
C1030 H1020 0.950 . S
C1030 C1031 1.386 . S
C1030 C1032 1.391 . S
C1031 C1030 1.386 . S
C1031 C1035 1.393 . S
C1032 H1021 0.950 . S
C1032 C1030 1.391 . S
C1032 C1033 1.400 . S
C1033 C1027 1.491 . S
C1033 C1032 1.400 . S
C1033 C1034 1.398 . S
C1034 H1022 0.950 . S
C1034 C1033 1.398 . S
C1034 C1035 1.391 . S
C1035 H1023 0.950 . S
C1035 C1031 1.393 . S
C1035 C1034 1.391 . S
H1036 C1044 0.950 . S
H1037 C1049 0.950 . S
H1038 C1046 0.950 . S
H1039 C1048 0.950 . S
H1040 C1050 0.950 . S
H1041 C1052 0.950 . S
H1042 C1054 0.950 . S
H1043 C1055 0.950 . S
C1044 H1036 0.950 . S
C1044 C1045 1.386 . S
C1044 C1046 1.391 . S
C1045 C1044 1.386 . S
C1045 C1049 1.393 . S
C1046 H1038 0.950 . S
C1046 C1044 1.391 . S
C1046 C1047 1.400 . S
C1047 C1046 1.400 . S
C1047 C1048 1.398 . S
C1047 C1053 1.491 . S
C1048 H1039 0.950 . S
C1048 C1047 1.398 . S
C1048 C1049 1.391 . S
C1049 H1037 0.950 . S
C1049 C1045 1.393 . S
C1049 C1048 1.391 . S
C1050 H1040 0.950 . S
C1050 C1051 1.386 . S
C1050 C1052 1.391 . S
C1051 C1050 1.386 . S
C1051 C1055 1.393 . S
C1052 H1041 0.950 . S
C1052 C1050 1.391 . S
C1052 C1053 1.400 . S
C1053 C1047 1.491 . S
C1053 C1052 1.400 . S
C1053 C1054 1.398 . S
C1054 H1042 0.950 . S
C1054 C1053 1.398 . S
C1054 C1055 1.391 . S
C1055 H1043 0.950 . S
C1055 C1051 1.393 . S
C1055 C1054 1.391 . S
H1056 C1064 0.950 . S
H1057 C1069 0.950 . S
H1058 C1066 0.950 . S
H1059 C1068 0.950 . S
H1060 C1070 0.950 . S
H1061 C1072 0.950 . S
H1062 C1074 0.950 . S
H1063 C1075 0.950 . S
C1064 H1056 0.950 . S
C1064 C1065 1.386 . S
C1064 C1066 1.391 . S
C1065 C1064 1.386 . S
C1065 C1069 1.393 . S
C1066 H1058 0.950 . S
C1066 C1064 1.391 . S
C1066 C1067 1.400 . S
C1067 C1066 1.400 . S
C1067 C1068 1.398 . S
C1067 C1073 1.491 . S
C1068 H1059 0.950 . S
C1068 C1067 1.398 . S
C1068 C1069 1.391 . S
C1069 H1057 0.950 . S
C1069 C1065 1.393 . S
C1069 C1068 1.391 . S
C1070 H1060 0.950 . S
C1070 C1071 1.386 . S
C1070 C1072 1.391 . S
C1071 C1070 1.386 . S
C1071 C1075 1.393 . S
C1072 H1061 0.950 . S
C1072 C1070 1.391 . S
C1072 C1073 1.400 . S
C1073 C1067 1.491 . S
C1073 C1072 1.400 . S
C1073 C1074 1.398 . S
C1074 H1062 0.950 . S
C1074 C1073 1.398 . S
C1074 C1075 1.391 . S
C1075 H1063 0.950 . S
C1075 C1071 1.393 . S
C1075 C1074 1.391 . S
H1076 C1084 0.950 . S
H1077 C1089 0.950 . S
H1078 C1086 0.950 . S
H1079 C1088 0.950 . S
H1080 C1090 0.950 . S
H1081 C1092 0.950 . S
H1082 C1094 0.950 . S
H1083 C1095 0.950 . S
C1084 H1076 0.950 . S
C1084 C1085 1.386 . S
C1084 C1086 1.391 . S
C1085 C1084 1.386 . S
C1085 C1089 1.393 . S
C1086 H1078 0.950 . S
C1086 C1084 1.391 . S
C1086 C1087 1.400 . S
C1087 C1086 1.400 . S
C1087 C1088 1.398 . S
C1087 C1093 1.491 . S
C1088 H1079 0.950 . S
C1088 C1087 1.398 . S
C1088 C1089 1.391 . S
C1089 H1077 0.950 . S
C1089 C1085 1.393 . S
C1089 C1088 1.391 . S
C1090 H1080 0.950 . S
C1090 C1091 1.386 . S
C1090 C1092 1.391 . S
C1091 C1090 1.386 . S
C1091 C1095 1.393 . S
C1092 H1081 0.950 . S
C1092 C1090 1.391 . S
C1092 C1093 1.400 . S
C1093 C1087 1.491 . S
C1093 C1092 1.400 . S
C1093 C1094 1.398 . S
C1094 H1082 0.950 . S
C1094 C1093 1.398 . S
C1094 C1095 1.391 . S
C1095 H1083 0.950 . S
C1095 C1091 1.393 . S
C1095 C1094 1.391 . S
H1096 C1104 0.950 . S
H1097 C1109 0.950 . S
H1098 C1106 0.950 . S
H1099 C1108 0.950 . S
H1100 C1110 0.950 . S
H1101 C1112 0.950 . S
H1102 C1114 0.950 . S
H1103 C1115 0.950 . S
C1104 H1096 0.950 . S
C1104 C1105 1.386 . S
C1104 C1106 1.391 . S
C1105 C1104 1.386 . S
C1105 C1109 1.393 . S
C1106 H1098 0.950 . S
C1106 C1104 1.391 . S
C1106 C1107 1.400 . S
C1107 C1106 1.400 . S
C1107 C1108 1.398 . S
C1107 C1113 1.491 . S
C1108 H1099 0.950 . S
C1108 C1107 1.398 . S
C1108 C1109 1.391 . S
C1109 H1097 0.950 . S
C1109 C1105 1.393 . S
C1109 C1108 1.391 . S
C1110 H1100 0.950 . S
C1110 C1111 1.386 . S
C1110 C1112 1.391 . S
C1111 C1110 1.386 . S
C1111 C1115 1.393 . S
C1112 H1101 0.950 . S
C1112 C1110 1.391 . S
C1112 C1113 1.400 . S
C1113 C1107 1.491 . S
C1113 C1112 1.400 . S
C1113 C1114 1.398 . S
C1114 H1102 0.950 . S
C1114 C1113 1.398 . S
C1114 C1115 1.391 . S
C1115 H1103 0.950 . S
C1115 C1111 1.393 . S
C1115 C1114 1.391 . S
C645 C39 1.965 . S
C651 C356 1.945 . S
C665 C91 1.639 . S
C671 C409 1.620 . S
C691 C462 1.673 . S
C685 C128 1.700 . S
C711 C499 1.324 . S
C705 C188 1.337 . S
C731 C559 1.684 . S
C725 C250 1.708 . S
C751 C612 1.559 . S
C745 C304 1.582 . S
C765 C75 1.826 . S
C771 C463 1.810 . S
C785 C144 1.598 . S
C791 C506 1.574 . S
C811 C552 1.734 . S
C805 C198 1.751 . S
C831 C605 1.323 . S
C825 C234 1.345 . S
C845 C294 1.650 . S
C851 C357 1.637 . S
C871 C410 1.468 . S
C865 C29 1.479 . S
C891 C516 1.937 . S
C885 C38 1.960 . S
C905 C92 1.637 . S
C911 C568 1.622 . S
C931 C621 1.676 . S
C925 C135 1.699 . S
C945 C181 1.336 . S
C951 C347 1.323 . S
C965 C251 1.709 . S
C971 C400 1.690 . S
C985 C303 1.581 . S
C991 C453 1.557 . S
C1005 C82 1.831 . S
C1011 C622 1.812 . S
C1031 C340 1.586 . S
C1025 C145 1.604 . S
C1045 C197 1.751 . S
C1051 C393 1.729 . S
C1065 C241 1.352 . S
C1071 C446 1.338 . S
C1085 C287 1.646 . S
C1091 C515 1.627 . S
C1105 C22 1.478 . S
C1111 C569 1.459 . S
