# Generated by pormake.
# Topology myd, (4,6)-cn, num edge types: 1
# Building blocks:
#     Node 0, Type 0, BuildingBlock: KOZSID_clean_sbu_0, # of connection points: 4
#     Node 1, Type 0, BuildingBlock: KOZSID_clean_sbu_0, # of connection points: 4
#     Node 2, Type 0, BuildingBlock: KOZSID_clean_sbu_0, # of connection points: 4
#     Node 3, Type 0, BuildingBlock: KOZSID_clean_sbu_0, # of connection points: 4
#     Node 4, Type 0, BuildingBlock: KOZSID_clean_sbu_0, # of connection points: 4
#     Node 5, Type 0, BuildingBlock: KOZSID_clean_sbu_0, # of connection points: 4
#     Node 6, Type 0, BuildingBlock: KOZSID_clean_sbu_0, # of connection points: 4
#     Node 7, Type 0, BuildingBlock: KOZSID_clean_sbu_0, # of connection points: 4
#     Node 8, Type 0, BuildingBlock: KOZSID_clean_sbu_0, # of connection points: 4
#     Node 9, Type 0, BuildingBlock: KOZSID_clean_sbu_0, # of connection points: 4
#     Node 10, Type 0, BuildingBlock: KOZSID_clean_sbu_0, # of connection points: 4
#     Node 11, Type 0, BuildingBlock: KOZSID_clean_sbu_0, # of connection points: 4
#     Node 12, Type 1, BuildingBlock: JUFBIX_clean_sbu_0, # of connection points: 6
#     Node 13, Type 1, BuildingBlock: JUFBIX_clean_sbu_0, # of connection points: 6
#     Node 14, Type 1, BuildingBlock: JUFBIX_clean_sbu_0, # of connection points: 6
#     Node 15, Type 1, BuildingBlock: JUFBIX_clean_sbu_0, # of connection points: 6
#     Node 16, Type 1, BuildingBlock: JUFBIX_clean_sbu_0, # of connection points: 6
#     Node 17, Type 1, BuildingBlock: JUFBIX_clean_sbu_0, # of connection points: 6
#     Node 18, Type 1, BuildingBlock: JUFBIX_clean_sbu_0, # of connection points: 6
#     Node 19, Type 1, BuildingBlock: JUFBIX_clean_sbu_0, # of connection points: 6
#     Edge 20, Type (0, 1), BuildingBlock: UVAHIK_clean_linker_0, # of connection points: 2
#     Edge 21, Type (0, 1), BuildingBlock: UVAHIK_clean_linker_0, # of connection points: 2
#     Edge 22, Type (0, 1), BuildingBlock: UVAHIK_clean_linker_0, # of connection points: 2
#     Edge 23, Type (0, 1), BuildingBlock: UVAHIK_clean_linker_0, # of connection points: 2
#     Edge 24, Type (0, 1), BuildingBlock: UVAHIK_clean_linker_0, # of connection points: 2
#     Edge 25, Type (0, 1), BuildingBlock: UVAHIK_clean_linker_0, # of connection points: 2
#     Edge 26, Type (0, 1), BuildingBlock: UVAHIK_clean_linker_0, # of connection points: 2
#     Edge 27, Type (0, 1), BuildingBlock: UVAHIK_clean_linker_0, # of connection points: 2
#     Edge 28, Type (0, 1), BuildingBlock: UVAHIK_clean_linker_0, # of connection points: 2
#     Edge 29, Type (0, 1), BuildingBlock: UVAHIK_clean_linker_0, # of connection points: 2
#     Edge 30, Type (0, 1), BuildingBlock: UVAHIK_clean_linker_0, # of connection points: 2
#     Edge 31, Type (0, 1), BuildingBlock: UVAHIK_clean_linker_0, # of connection points: 2
#     Edge 32, Type (0, 1), BuildingBlock: UVAHIK_clean_linker_0, # of connection points: 2
#     Edge 33, Type (0, 1), BuildingBlock: UVAHIK_clean_linker_0, # of connection points: 2
#     Edge 34, Type (0, 1), BuildingBlock: UVAHIK_clean_linker_0, # of connection points: 2
#     Edge 35, Type (0, 1), BuildingBlock: UVAHIK_clean_linker_0, # of connection points: 2
#     Edge 36, Type (0, 1), BuildingBlock: UVAHIK_clean_linker_0, # of connection points: 2
#     Edge 37, Type (0, 1), BuildingBlock: UVAHIK_clean_linker_0, # of connection points: 2
#     Edge 38, Type (0, 1), BuildingBlock: UVAHIK_clean_linker_0, # of connection points: 2
#     Edge 39, Type (0, 1), BuildingBlock: UVAHIK_clean_linker_0, # of connection points: 2
#     Edge 40, Type (0, 1), BuildingBlock: UVAHIK_clean_linker_0, # of connection points: 2
#     Edge 41, Type (0, 1), BuildingBlock: UVAHIK_clean_linker_0, # of connection points: 2
#     Edge 42, Type (0, 1), BuildingBlock: UVAHIK_clean_linker_0, # of connection points: 2
#     Edge 43, Type (0, 1), BuildingBlock: UVAHIK_clean_linker_0, # of connection points: 2
#     Edge 44, Type (0, 1), BuildingBlock: UVAHIK_clean_linker_0, # of connection points: 2
#     Edge 45, Type (0, 1), BuildingBlock: UVAHIK_clean_linker_0, # of connection points: 2
#     Edge 46, Type (0, 1), BuildingBlock: UVAHIK_clean_linker_0, # of connection points: 2
#     Edge 47, Type (0, 1), BuildingBlock: UVAHIK_clean_linker_0, # of connection points: 2
#     Edge 48, Type (0, 1), BuildingBlock: UVAHIK_clean_linker_0, # of connection points: 2
#     Edge 49, Type (0, 1), BuildingBlock: UVAHIK_clean_linker_0, # of connection points: 2
#     Edge 50, Type (0, 1), BuildingBlock: UVAHIK_clean_linker_0, # of connection points: 2
#     Edge 51, Type (0, 1), BuildingBlock: UVAHIK_clean_linker_0, # of connection points: 2
#     Edge 52, Type (0, 1), BuildingBlock: UVAHIK_clean_linker_0, # of connection points: 2
#     Edge 53, Type (0, 1), BuildingBlock: UVAHIK_clean_linker_0, # of connection points: 2
#     Edge 54, Type (0, 1), BuildingBlock: UVAHIK_clean_linker_0, # of connection points: 2
#     Edge 55, Type (0, 1), BuildingBlock: UVAHIK_clean_linker_0, # of connection points: 2
#     Edge 56, Type (0, 1), BuildingBlock: UVAHIK_clean_linker_0, # of connection points: 2
#     Edge 57, Type (0, 1), BuildingBlock: UVAHIK_clean_linker_0, # of connection points: 2
#     Edge 58, Type (0, 1), BuildingBlock: UVAHIK_clean_linker_0, # of connection points: 2
#     Edge 59, Type (0, 1), BuildingBlock: UVAHIK_clean_linker_0, # of connection points: 2
#     Edge 60, Type (0, 1), BuildingBlock: UVAHIK_clean_linker_0, # of connection points: 2
#     Edge 61, Type (0, 1), BuildingBlock: UVAHIK_clean_linker_0, # of connection points: 2
#     Edge 62, Type (0, 1), BuildingBlock: UVAHIK_clean_linker_0, # of connection points: 2
#     Edge 63, Type (0, 1), BuildingBlock: UVAHIK_clean_linker_0, # of connection points: 2
#     Edge 64, Type (0, 1), BuildingBlock: UVAHIK_clean_linker_0, # of connection points: 2
#     Edge 65, Type (0, 1), BuildingBlock: UVAHIK_clean_linker_0, # of connection points: 2
#     Edge 66, Type (0, 1), BuildingBlock: UVAHIK_clean_linker_0, # of connection points: 2
#     Edge 67, Type (0, 1), BuildingBlock: UVAHIK_clean_linker_0, # of connection points: 2
# Relax obj value: 0.218
# Max RMSD: 0.216
# Mean RMSD: 0.147
data_MOF--net-myd--node1-KOZSID_clean_sbu_0--node2-JUFBIX_clean_sbu_0--edge1-UVAHIK_clean_linker_0
_symmetry_space_group_name_H-M    P1
_symmetry_Int_Tables_number       1
_symmetry_cell_setting            triclinic
loop_
_symmetry_equiv_pos_as_xyz
'x, y, z'
_cell_length_a     63.120412
_cell_length_b     65.922258
_cell_length_c     65.23729
_cell_angle_alpha  91.748936
_cell_angle_beta   88.27065
_cell_angle_gamma 93.120323
loop_
_atom_site_label
_atom_site_type_symbol
_atom_site_fract_x
_atom_site_fract_y
_atom_site_fract_z
_atom_type_partial_charge
C0 C 0.98804 0.25764 0.33905 0.0
C1 C 0.96831 0.25983 0.3485 0.0
C2 C 0.95566 0.24325 0.34225 0.0
C3 C 0.96837 0.23187 0.32942 0.0
N4 N 0.98817 0.24026 0.32744 0.0
Co5 Co 0.01132 0.23004 0.30956 0.0
N6 N 0.99111 0.21395 0.29204 0.0
C7 C 0.97086 0.20849 0.29739 0.0
C8 C 0.96064 0.19719 0.28229 0.0
C9 C 0.97549 0.19517 0.26665 0.0
C10 C 0.9941 0.20526 0.27314 0.0
N11 N 0.03475 0.22012 0.29171 0.0
C12 C 0.03423 0.21096 0.27282 0.0
C13 C 0.05444 0.20576 0.26632 0.0
C14 C 0.06789 0.21172 0.28177 0.0
C15 C 0.05525 0.22016 0.29686 0.0
N16 N 0.03123 0.24618 0.32731 0.0
C17 C 0.05206 0.24346 0.32886 0.0
C18 C 0.06197 0.25818 0.34109 0.0
C19 C 0.0464 0.27094 0.34747 0.0
C20 C 0.02768 0.26316 0.33891 0.0
N21 N 0.01312 0.20627 0.32682 0.0
C22 C 0.01294 0.1709 0.34995 0.0
C23 C 0.01526 0.17 0.32856 0.0
C24 C 0.01524 0.18763 0.31741 0.0
C25 C 0.0115 0.19015 0.35966 0.0
C26 C 0.0116 0.20767 0.34779 0.0
N27 N 0.00942 0.25333 0.2921 0.0
C28 C 0.02619 0.28075 0.27303 0.0
C29 C 0.00642 0.2862 0.26638 0.0
C30 C 0.9882 0.27489 0.27306 0.0
C31 C 0.99004 0.25861 0.28591 0.0
C32 C 0.02734 0.26427 0.28584 0.0
H33 H 0.97574 0.25019 0.29071 0.0
H34 H 0.04274 0.26033 0.29065 0.0
H35 H 0.01662 0.18595 0.30101 0.0
H36 H 0.01008 0.22229 0.35549 0.0
C37 C 0.96128 0.21668 0.31531 0.0
C38 C 0.00665 0.27173 0.3419 0.0
C39 C 0.01473 0.20456 0.26197 0.0
C40 C 0.06232 0.23065 0.31464 0.0
H41 H 0.96353 0.27223 0.35855 0.0
H42 H 0.93885 0.2406 0.34557 0.0
H43 H 0.94422 0.19154 0.28237 0.0
H44 H 0.97295 0.18692 0.25226 0.0
H45 H 0.05894 0.19798 0.25214 0.0
H46 H 0.0849 0.21037 0.28182 0.0
H47 H 0.0788 0.26037 0.34374 0.0
H48 H 0.04889 0.28463 0.35679 0.0
H49 H 0.01704 0.15565 0.32031 0.0
H50 H 0.00978 0.19162 0.37619 0.0
H51 H 0.04068 0.28919 0.26849 0.0
H52 H 0.9726 0.27828 0.26809 0.0
C53 C 0.98968 0.70559 0.14071 0.0
C54 C 0.96836 0.70402 0.136 0.0
C55 C 0.95813 0.71611 0.14999 0.0
C56 C 0.97377 0.72436 0.16231 0.0
N57 N 0.99342 0.71849 0.15689 0.0
Co58 Co 0.02075 0.72656 0.17064 0.0
N59 N 0.00546 0.74232 0.19272 0.0
C60 C 0.98425 0.74423 0.19487 0.0
C61 C 0.97847 0.75626 0.21136 0.0
C62 C 0.99707 0.76244 0.22028 0.0
C63 C 0.01322 0.75369 0.20872 0.0
N64 N 0.04815 0.73501 0.18403 0.0
C65 C 0.05187 0.74714 0.20078 0.0
C66 C 0.07335 0.74913 0.20495 0.0
C67 C 0.08362 0.73817 0.19006 0.0
C68 C 0.0679 0.73008 0.17778 0.0
N69 N 0.03591 0.71036 0.14879 0.0
C70 C 0.05704 0.70809 0.14673 0.0
C71 C 0.06262 0.69527 0.13078 0.0
C72 C 0.0439 0.68864 0.12232 0.0
C73 C 0.02796 0.69792 0.13364 0.0
N74 N 0.02393 0.75135 0.15372 0.0
C75 C 0.02928 0.78864 0.13321 0.0
C76 C 0.04575 0.77527 0.13359 0.0
C77 C 0.04273 0.75683 0.14375 0.0
C78 C 0.00995 0.78265 0.14279 0.0
C79 C 0.00763 0.76417 0.15274 0.0
N80 N 0.01758 0.70208 0.18792 0.0
C81 C 0.03312 0.67641 0.20775 0.0
C82 C 0.01338 0.67087 0.21693 0.0
C83 C 0.99567 0.6804 0.21021 0.0
C84 C 0.9981 0.6958 0.19595 0.0
C85 C 0.0348 0.69177 0.19324 0.0
H86 H 0.98396 0.70266 0.19197 0.0
H87 H 0.05027 0.69534 0.18687 0.0
H88 H 0.05592 0.7474 0.14356 0.0
H89 H 0.99256 0.76086 0.15988 0.0
C90 C 0.97029 0.73589 0.18028 0.0
C91 C 0.00549 0.69344 0.1303 0.0
C92 C 0.0357 0.75729 0.21303 0.0
C93 C 0.07114 0.71751 0.16052 0.0
H94 H 0.96094 0.69459 0.12406 0.0
H95 H 0.94123 0.71802 0.1515 0.0
H96 H 0.96267 0.7605 0.21599 0.0
H97 H 0.9985 0.77261 0.23355 0.0
H98 H 0.08085 0.75768 0.21744 0.0
H99 H 0.10053 0.73631 0.18838 0.0
H100 H 0.07837 0.69083 0.1262 0.0
H101 H 0.04215 0.67783 0.10959 0.0
H102 H 0.06095 0.77897 0.12609 0.0
H103 H 0.9967 0.79244 0.1432 0.0
H104 H 0.04738 0.66947 0.21216 0.0
H105 H 0.97986 0.67622 0.2161 0.0
C106 C 0.33689 0.99352 0.26039 0.0
C107 C 0.34547 0.97464 0.26114 0.0
C108 C 0.34029 0.96438 0.24315 0.0
C109 C 0.3288 0.97748 0.2325 0.0
N110 N 0.32655 0.99529 0.24268 0.0
Co111 Co 0.30998 0.018 0.23387 0.0
N112 N 0.29327 1.0 0.21474 0.0
C113 C 0.29895 0.98167 0.20745 0.0
C114 C 0.28497 0.97299 0.19362 0.0
C115 C 0.26973 0.98683 0.19188 0.0
C116 C 0.27522 0.00329 0.20485 0.0
N117 N 0.29346 0.04093 0.22538 0.0
C118 C 0.27506 0.04078 0.21514 0.0
C119 C 0.26891 0.06048 0.21278 0.0
C120 C 0.28439 0.07329 0.22116 0.0
C121 C 0.29899 0.06081 0.22839 0.0
N122 N 0.32689 0.03579 0.25292 0.0
C123 C 0.32953 0.05613 0.25244 0.0
C124 C 0.34153 0.06415 0.26829 0.0
C125 C 0.34657 0.04779 0.27941 0.0
C126 C 0.33727 0.0307 0.2697 0.0
N127 N 0.33084 0.02368 0.21147 0.0
C128 C 0.35958 0.0303 0.17829 0.0
C129 C 0.33779 0.03187 0.17607 0.0
C130 C 0.32379 0.02838 0.19265 0.0
C131 C 0.36681 0.02536 0.19756 0.0
C132 C 0.35218 0.02235 0.21404 0.0
N133 N 0.28907 0.01224 0.25594 0.0
C134 C 0.26702 0.02358 0.28434 0.0
C135 C 0.25921 0.00358 0.28761 0.0
C136 C 0.26687 0.98804 0.27473 0.0
C137 C 0.28168 0.99267 0.25903 0.0
C138 C 0.28189 0.02758 0.26844 0.0
H139 H 0.28722 0.98037 0.24942 0.0
H140 H 0.28756 0.0431 0.26624 0.0
H141 H 0.30716 0.02929 0.19002 0.0
H142 H 0.35808 0.01881 0.22881 0.0
C143 C 0.31598 0.97216 0.21578 0.0
C144 C 0.33904 0.0098 0.27623 0.0
C145 C 0.26451 0.02262 0.20535 0.0
C146 C 0.3164 0.06704 0.24037 0.0
H147 H 0.35419 0.96873 0.27345 0.0
H148 H 0.34336 0.94876 0.23901 0.0
H149 H 0.2856 0.95825 0.18592 0.0
H150 H 0.25644 0.9852 0.18176 0.0
H151 H 0.25495 0.06517 0.20537 0.0
H152 H 0.28467 0.08971 0.22225 0.0
H153 H 0.345 0.08005 0.27213 0.0
H154 H 0.3557 0.04836 0.29321 0.0
H155 H 0.33147 0.0354 0.16141 0.0
H156 H 0.38358 0.02408 0.19992 0.0
H157 H 0.26143 0.03613 0.29374 0.0
H158 H 0.26163 0.9723 0.27684 0.0
C159 C 0.66963 0.46422 0.25056 0.0
C160 C 0.66212 0.44456 0.24569 0.0
C161 C 0.67252 0.43205 0.25779 0.0
C162 C 0.68578 0.44478 0.26919 0.0
N163 N 0.68407 0.46468 0.26555 0.0
Co164 Co 0.70205 0.48825 0.27674 0.0
N165 N 0.71999 0.46976 0.29174 0.0
C166 C 0.7169 0.44937 0.29321 0.0
C167 C 0.73094 0.44089 0.30559 0.0
C168 C 0.74371 0.45681 0.31257 0.0
C169 C 0.73681 0.47416 0.30385 0.0
N170 N 0.7205 0.51183 0.2871 0.0
C171 C 0.73801 0.51218 0.29865 0.0
C172 C 0.74689 0.53182 0.30129 0.0
C173 C 0.73426 0.54432 0.29147 0.0
C174 C 0.71861 0.53169 0.28321 0.0
N175 N 0.68367 0.50672 0.26226 0.0
C176 C 0.6845 0.52725 0.26324 0.0
C177 C 0.67018 0.53559 0.25099 0.0
C178 C 0.65992 0.5194 0.2413 0.0
C179 C 0.66869 0.50213 0.24822 0.0
N180 N 0.68303 0.49031 0.3019 0.0
C181 C 0.65835 0.49336 0.33905 0.0
C182 C 0.66702 0.51066 0.32931 0.0
C183 C 0.67907 0.50882 0.311 0.0
C184 C 0.662 0.47449 0.32955 0.0
C185 C 0.67415 0.47333 0.31119 0.0
N186 N 0.72106 0.48624 0.25184 0.0
C187 C 0.7388 0.50167 0.22223 0.0
C188 C 0.74804 0.48345 0.2163 0.0
C189 C 0.74328 0.46662 0.2286 0.0
C190 C 0.72982 0.46829 0.24603 0.0
C191 C 0.72563 0.50274 0.23987 0.0
H192 H 0.72673 0.45488 0.25465 0.0
H193 H 0.7192 0.51712 0.24352 0.0
H194 H 0.68521 0.5227 0.3047 0.0
H195 H 0.6762 0.45847 0.30495 0.0
C196 C 0.7011 0.43852 0.28227 0.0
C197 C 0.66383 0.48188 0.23961 0.0
C198 C 0.74647 0.49449 0.30784 0.0
C199 C 0.70137 0.53809 0.27262 0.0
H200 H 0.65082 0.43975 0.23413 0.0
H201 H 0.67125 0.4156 0.25764 0.0
H202 H 0.73177 0.42503 0.30914 0.0
H203 H 0.75653 0.45571 0.32305 0.0
H204 H 0.76093 0.53667 0.30962 0.0
H205 H 0.73613 0.5607 0.29066 0.0
H206 H 0.66844 0.55153 0.24832 0.0
H207 H 0.6481 0.52019 0.2297 0.0
H208 H 0.66497 0.52569 0.33598 0.0
H209 H 0.65538 0.46057 0.33613 0.0
H210 H 0.74147 0.51511 0.2132 0.0
H211 H 0.75011 0.45217 0.22504 0.0
C212 C 0.29974 0.38511 0.99419 0.0
C213 C 0.30719 0.39345 0.97592 0.0
C214 C 0.29376 0.38608 0.9611 0.0
C215 C 0.27895 0.37371 0.97116 0.0
N216 N 0.28176 0.37318 0.9916 0.0
Co217 Co 0.26545 0.35555 0.0118 0.0
N218 N 0.24862 0.34138 0.98952 0.0
C219 C 0.24926 0.34586 0.9694 0.0
C220 C 0.23539 0.33392 0.95788 0.0
C221 C 0.22519 0.32113 0.97147 0.0
C222 C 0.2335 0.326 0.99056 0.0
N223 N 0.24978 0.33752 0.03205 0.0
C224 C 0.23487 0.32225 0.02904 0.0
C225 C 0.22838 0.31331 0.04735 0.0
C226 C 0.23943 0.32344 0.0625 0.0
C227 C 0.25206 0.33784 0.05262 0.0
N228 N 0.28215 0.37002 0.03404 0.0
C229 C 0.27948 0.36768 0.05449 0.0
C230 C 0.29413 0.37883 0.06585 0.0
C231 C 0.30724 0.38851 0.05182 0.0
C232 C 0.29976 0.38273 0.03261 0.0
N233 N 0.24268 0.37556 0.01518 0.0
C234 C 0.20366 0.3951 0.01776 0.0
C235 C 0.21246 0.38735 0.03515 0.0
C236 C 0.23193 0.37809 0.0336 0.0
C237 C 0.21589 0.39461 0.99952 0.0
C238 C 0.23519 0.38502 0.99863 0.0
N239 N 0.28747 0.33525 0.00829 0.0
C240 C 0.31016 0.31115 0.02257 0.0
C241 C 0.31644 0.30424 1.00294 0.0
C242 C 0.30834 0.31352 0.98608 0.0
C243 C 0.294 0.32883 0.98908 0.0
C244 C 0.2959 0.32668 0.02489 0.0
H245 H 0.28814 0.3351 0.9756 0.0
H246 H 0.29174 0.33143 0.04021 0.0
H247 H 0.2375 0.37244 0.04742 0.0
H248 H 0.24339 0.38502 0.98416 0.0
C249 C 0.2636 0.36085 0.96167 0.0
C250 C 0.31085 0.38814 0.01342 0.0
C251 C 0.22617 0.3159 0.00927 0.0
C252 C 0.26568 0.35232 0.06224 0.0
H253 H 0.32126 0.40332 0.9735 0.0
H254 H 0.29521 0.38865 0.9448 0.0
H255 H 0.23304 0.33441 0.94155 0.0
H256 H 0.21292 0.30959 0.96777 0.0
H257 H 0.21673 0.30085 0.04956 0.0
H258 H 0.23826 0.32075 0.07879 0.0
H259 H 0.29596 0.37882 0.0823 0.0
H260 H 0.32127 0.39796 0.05536 0.0
H261 H 0.20402 0.38755 0.04985 0.0
H262 H 0.21046 0.40125 0.98577 0.0
H263 H 0.3163 0.3047 0.03612 0.0
H264 H 0.3126 0.30866 0.97057 0.0
C265 C 0.22852 0.66328 0.47637 0.0
C266 C 0.22992 0.65516 0.45654 0.0
C267 C 0.24885 0.66276 0.44816 0.0
C268 C 0.25785 0.6751 0.46326 0.0
N269 N 0.24574 0.67568 0.48054 0.0
Co270 Co 0.25194 0.69208 0.50582 0.0
N271 N 0.27234 0.71052 0.49087 0.0
C272 C 0.28178 0.70635 0.47253 0.0
C273 C 0.296 0.72157 0.46632 0.0
C274 C 0.29565 0.73607 0.48183 0.0
C275 C 0.2811 0.7289 0.4967 0.0
N276 N 0.25786 0.70832 0.53126 0.0
C277 C 0.2671 0.72721 0.53361 0.0
C278 C 0.26736 0.73319 0.55423 0.0
C279 C 0.25869 0.71715 0.56508 0.0
C280 C 0.25336 0.7024 0.55057 0.0
N281 N 0.23172 0.67338 0.52063 0.0
C282 C 0.23063 0.67053 0.54096 0.0
C283 C 0.21462 0.65665 0.54657 0.0
C284 C 0.20508 0.65049 0.52862 0.0
C285 C 0.21585 0.66105 0.51309 0.0
N286 N 0.27547 0.67475 0.51161 0.0
C287 C 0.31038 0.65122 0.51876 0.0
C288 C 0.31146 0.67227 0.52243 0.0
C289 C 0.29406 0.68366 0.51867 0.0
C290 C 0.29129 0.64213 0.51145 0.0
C291 C 0.27396 0.65412 0.50819 0.0
N292 N 0.22884 0.70979 0.50003 0.0
C293 C 0.19982 0.72988 0.51196 0.0
C294 C 0.19863 0.73853 0.49263 0.0
C295 C 0.2125 0.73181 0.47693 0.0
C296 C 0.22739 0.71751 0.48092 0.0
C297 C 0.21491 0.71556 0.5153 0.0
H298 H 0.23811 0.71309 0.46862 0.0
H299 H 0.21558 0.70946 0.5304 0.0
H300 H 0.2959 0.69983 0.5213 0.0
H301 H 0.2594 0.64675 0.50278 0.0
C302 C 0.27491 0.68935 0.46055 0.0
C303 C 0.21127 0.65859 0.49129 0.0
C304 C 0.27797 0.73873 0.51705 0.0
C305 C 0.24142 0.68427 0.55427 0.0
H306 H 0.21846 0.64501 0.44889 0.0
H307 H 0.25473 0.66043 0.43255 0.0
H308 H 0.30524 0.72223 0.45209 0.0
H309 H 0.30543 0.75006 0.48228 0.0
H310 H 0.27355 0.74748 0.56081 0.0
H311 H 0.25604 0.71656 0.58152 0.0
H312 H 0.20965 0.65241 0.56195 0.0
H313 H 0.19165 0.63967 0.52712 0.0
H314 H 0.3259 0.68005 0.52778 0.0
H315 H 0.28968 0.62587 0.5085 0.0
H316 H 0.18923 0.73419 0.52451 0.0
H317 H 0.2124 0.73805 0.46177 0.0
C318 C 0.78032 0.86499 0.48102 0.0
C319 C 0.78595 0.87187 0.46163 0.0
C320 C 0.77131 0.86324 0.44857 0.0
C321 C 0.75757 0.85169 0.4607 0.0
N322 N 0.76224 0.85285 0.48082 0.0
Co323 Co 0.74756 0.83739 0.50366 0.0
N324 N 0.72913 0.82112 0.48398 0.0
C325 C 0.72876 0.82307 0.4634 0.0
C326 C 0.71425 0.80995 0.454 0.0
C327 C 0.70474 0.799 0.46948 0.0
C328 C 0.71405 0.80608 0.48752 0.0
N329 N 0.73308 0.82194 0.5266 0.0
C330 C 0.71758 0.80691 0.52613 0.0
C331 C 0.71202 0.80032 0.5457 0.0
C332 C 0.72427 0.81178 0.55901 0.0
C333 C 0.7366 0.82457 0.54689 0.0
N334 N 0.7663 0.85358 0.52322 0.0
C335 C 0.76559 0.8529 0.54392 0.0
C336 C 0.78156 0.86438 0.55312 0.0
C337 C 0.79355 0.87251 0.53737 0.0
C338 C 0.78407 0.86559 0.51935 0.0
N339 N 0.72523 0.8579 0.50657 0.0
C340 C 0.68671 0.87818 0.51106 0.0
C341 C 0.69872 0.87426 0.52808 0.0
C342 C 0.71781 0.8644 0.5255 0.0
C343 C 0.6955 0.87346 0.49167 0.0
C344 C 0.71467 0.86372 0.48982 0.0
N345 N 0.76915 0.81656 0.50071 0.0
C346 C 0.79199 0.79289 0.51557 0.0
C347 C 0.79769 0.78502 0.49612 0.0
C348 C 0.78912 0.79356 0.47906 0.0
C349 C 0.77507 0.80914 0.48167 0.0
C350 C 0.77791 0.80864 0.5175 0.0
H351 H 0.76896 0.81481 0.46803 0.0
H352 H 0.77419 0.81413 0.53269 0.0
H353 H 0.72592 0.86166 0.53912 0.0
H354 H 0.72012 0.86042 0.4746 0.0
C355 C 0.74211 0.83749 0.45339 0.0
C356 C 0.79333 0.86937 0.49892 0.0
C357 C 0.7076 0.79847 0.50766 0.0
C358 C 0.75171 0.83911 0.55406 0.0
H359 H 0.79971 0.88148 0.4573 0.0
H360 H 0.77137 0.86433 0.43204 0.0
H361 H 0.71089 0.80861 0.43783 0.0
H362 H 0.69218 0.78727 0.46772 0.0
H363 H 0.7003 0.78849 0.54994 0.0
H364 H 0.7242 0.81087 0.57555 0.0
H365 H 0.78488 0.86565 0.56931 0.0
H366 H 0.80813 0.88171 0.53907 0.0
H367 H 0.69326 0.87843 0.54346 0.0
H368 H 0.68722 0.87636 0.47786 0.0
H369 H 0.79846 0.78705 0.52926 0.0
H370 H 0.79283 0.78794 0.46367 0.0
C371 C 0.49781 0.77319 0.85082 0.0
C372 C 0.47835 0.77839 0.85923 0.0
C373 C 0.46387 0.76339 0.85319 0.0
C374 C 0.47528 0.74991 0.84151 0.0
N375 N 0.49629 0.75511 0.84023 0.0
Co376 Co 0.51839 0.74133 0.82293 0.0
N377 N 0.49645 0.72277 0.80928 0.0
C378 C 0.47533 0.72164 0.8137 0.0
C379 C 0.46415 0.70788 0.80147 0.0
C380 C 0.47896 0.69978 0.78841 0.0
C381 C 0.49848 0.709 0.79351 0.0
N382 N 0.54056 0.7279 0.80545 0.0
C383 C 0.53851 0.7136 0.79011 0.0
C384 C 0.55817 0.70834 0.78211 0.0
C385 C 0.57311 0.7199 0.79255 0.0
C386 C 0.56183 0.73145 0.80636 0.0
N387 N 0.54019 0.76017 0.83642 0.0
C388 C 0.56151 0.75985 0.83394 0.0
C389 C 0.57228 0.7758 0.8437 0.0
C390 C 0.55691 0.78732 0.85246 0.0
C391 C 0.53757 0.77766 0.84757 0.0
N392 N 0.5213 0.72048 0.84435 0.0
C393 C 0.52521 0.68522 0.86748 0.0
C394 C 0.54311 0.69711 0.86123 0.0
C395 C 0.54081 0.71456 0.84989 0.0
C396 C 0.50534 0.69226 0.86347 0.0
C397 C 0.50379 0.7099 0.85234 0.0
N398 N 0.51547 0.76153 0.80157 0.0
C399 C 0.53098 0.78584 0.77772 0.0
C400 C 0.51083 0.79109 0.77206 0.0
C401 C 0.49311 0.78102 0.78122 0.0
C402 C 0.49577 0.76645 0.79581 0.0
C403 C 0.53293 0.77109 0.79241 0.0
H404 H 0.48164 0.75939 0.80232 0.0
H405 H 0.54866 0.76772 0.79632 0.0
H406 H 0.55511 0.72261 0.84537 0.0
H407 H 0.48815 0.71427 0.85004 0.0
C408 C 0.46637 0.73446 0.82875 0.0
C409 C 0.51712 0.78639 0.85234 0.0
C410 C 0.51842 0.70446 0.78271 0.0
C411 C 0.57067 0.74637 0.81974 0.0
H412 H 0.47489 0.79205 0.86805 0.0
H413 H 0.44684 0.76308 0.85583 0.0
H414 H 0.44718 0.70445 0.80174 0.0
H415 H 0.47569 0.68853 0.77634 0.0
H416 H 0.56139 0.69731 0.76994 0.0
H417 H 0.59017 0.72003 0.79019 0.0
H418 H 0.58923 0.77938 0.84332 0.0
H419 H 0.55965 0.80169 0.86066 0.0
H420 H 0.55891 0.69254 0.8643 0.0
H421 H 0.49095 0.68404 0.86871 0.0
H422 H 0.54519 0.79331 0.77112 0.0
H423 H 0.47718 0.78422 0.77707 0.0
C424 C 0.53751 0.26339 0.65979 0.0
C425 C 0.55659 0.26786 0.64936 0.0
C426 C 0.57002 0.25325 0.65415 0.0
C427 C 0.55851 0.24075 0.66727 0.0
N428 N 0.53837 0.24629 0.67082 0.0
Co429 Co 0.51674 0.23338 0.69028 0.0
N430 N 0.53808 0.21544 0.70154 0.0
C431 C 0.5588 0.21485 0.69574 0.0
C432 C 0.56971 0.20149 0.70654 0.0
C433 C 0.55513 0.19312 0.72016 0.0
C434 C 0.53606 0.20184 0.71682 0.0
N435 N 0.4949 0.22015 0.70928 0.0
C436 C 0.49676 0.20563 0.72336 0.0
C437 C 0.47735 0.20034 0.73286 0.0
C438 C 0.46272 0.2119 0.72453 0.0
C439 C 0.47394 0.22352 0.71044 0.0
N440 N 0.49568 0.252 0.67978 0.0
C441 C 0.47482 0.25233 0.68507 0.0
C442 C 0.46472 0.26772 0.67646 0.0
C443 C 0.4802 0.27825 0.66549 0.0
C444 C 0.49892 0.26865 0.66813 0.0
N445 N 0.50922 0.21237 0.6687 0.0
C446 C 0.49869 0.18187 0.63882 0.0
C447 C 0.48321 0.19405 0.64758 0.0
C448 C 0.48877 0.20904 0.66235 0.0
C449 C 0.51954 0.18542 0.64506 0.0
C450 C 0.5244 0.20059 0.65978 0.0
N451 N 0.52424 0.25435 0.7114 0.0
C452 C 0.51349 0.28032 0.73574 0.0
C453 C 0.53417 0.2892 0.73585 0.0
C454 C 0.54998 0.2794 0.72454 0.0
C455 C 0.54478 0.26191 0.71288 0.0
C456 C 0.50888 0.26308 0.7234 0.0
H457 H 0.55752 0.25519 0.70457 0.0
H458 H 0.49271 0.25736 0.72332 0.0
H459 H 0.47613 0.21758 0.6684 0.0
H460 H 0.54056 0.20222 0.66375 0.0
C461 C 0.56728 0.22649 0.67955 0.0
C462 C 0.51954 0.27656 0.66021 0.0
C463 C 0.51646 0.19651 0.7284 0.0
C464 C 0.46555 0.23872 0.69916 0.0
H465 H 0.56082 0.28083 0.64005 0.0
H466 H 0.58667 0.25271 0.6498 0.0
H467 H 0.58626 0.19812 0.70464 0.0
H468 H 0.55813 0.18178 0.73122 0.0
H469 H 0.47413 0.18936 0.74471 0.0
H470 H 0.44596 0.21207 0.72853 0.0
H471 H 0.44825 0.2713 0.67852 0.0
H472 H 0.47811 0.29182 0.65701 0.0
H473 H 0.46683 0.19208 0.64309 0.0
H474 H 0.53211 0.17619 0.63903 0.0
H475 H 0.50076 0.28675 0.74486 0.0
H476 H 0.56626 0.28547 0.72399 0.0
C477 C 0.8375 0.4914 0.76093 0.0
C478 C 0.84506 0.47218 0.76253 0.0
C479 C 0.838 0.46096 0.74571 0.0
C480 C 0.82654 0.47393 0.73483 0.0
N481 N 0.8261 0.49253 0.74378 0.0
Co482 Co 0.81049 0.51557 0.73434 0.0
N483 N 0.79124 0.4973 0.71785 0.0
C484 C 0.79517 0.47817 0.71158 0.0
C485 C 0.77957 0.4694 0.6995 0.0
C486 C 0.76509 0.48401 0.69786 0.0
C487 C 0.77265 0.50098 0.70914 0.0
N488 N 0.79498 0.53884 0.72512 0.0
C489 C 0.77584 0.53912 0.71625 0.0
C490 C 0.77089 0.55897 0.71266 0.0
C491 C 0.78784 0.57133 0.71883 0.0
C492 C 0.8021 0.55849 0.72607 0.0
N493 N 0.82991 0.53358 0.75082 0.0
C494 C 0.83388 0.55363 0.74858 0.0
C495 C 0.84738 0.56199 0.76311 0.0
C496 C 0.85199 0.54617 0.77522 0.0
C497 C 0.84097 0.52905 0.76737 0.0
N498 N 0.82991 0.51825 0.71031 0.0
C499 C 0.85672 0.52204 0.67529 0.0
C500 C 0.83483 0.5239 0.67413 0.0
C501 C 0.8218 0.52185 0.69164 0.0
C502 C 0.86498 0.51801 0.6944 0.0
C503 C 0.85131 0.51637 0.71178 0.0
N504 N 0.79106 0.5129 0.7581 0.0
C505 C 0.77268 0.52801 0.78707 0.0
C506 C 0.7641 0.50889 0.79281 0.0
C507 C 0.76931 0.49183 0.78072 0.0
C508 C 0.78274 0.49416 0.76345 0.0
C509 C 0.78608 0.52968 0.76971 0.0
H510 H 0.78645 0.48078 0.75444 0.0
H511 H 0.79254 0.54456 0.76576 0.0
H512 H 0.80505 0.52316 0.68991 0.0
H513 H 0.85802 0.51359 0.72641 0.0
C514 C 0.81218 0.46821 0.71942 0.0
C515 C 0.84161 0.50857 0.77538 0.0
C516 C 0.76318 0.52094 0.70908 0.0
C517 C 0.82071 0.56445 0.73645 0.0
H518 H 0.85436 0.46676 0.77469 0.0
H519 H 0.83986 0.44494 0.74255 0.0
H520 H 0.77863 0.45412 0.69292 0.0
H521 H 0.75091 0.48248 0.68891 0.0
H522 H 0.75669 0.56402 0.70596 0.0
H523 H 0.7893 0.58776 0.71859 0.0
H524 H 0.85213 0.57789 0.76553 0.0
H525 H 0.86195 0.54715 0.78846 0.0
H526 H 0.8277 0.5267 0.65966 0.0
H527 H 0.88185 0.51651 0.69596 0.0
H528 H 0.76926 0.54159 0.79604 0.0
H529 H 0.7628 0.47678 0.78436 0.0
C530 C 0.17549 0.01772 0.7972 0.0
C531 C 0.16854 0.03692 0.8022 0.0
C532 C 0.17683 0.0496 0.78751 0.0
C533 C 0.18826 0.03749 0.77437 0.0
N534 N 0.18746 0.01772 0.77951 0.0
Co535 Co 0.20284 0.99524 0.76505 0.0
N536 N 0.21632 0.01422 0.74423 0.0
C537 C 0.21272 0.03415 0.74262 0.0
C538 C 0.22321 0.04312 0.72629 0.0
C539 C 0.23409 0.02802 0.71676 0.0
C540 C 0.22975 0.01063 0.72796 0.0
N541 N 0.21887 0.97292 0.75106 0.0
C542 C 0.23261 0.97327 0.73456 0.0
C543 C 0.24064 0.95433 0.73049 0.0
C544 C 0.23145 0.94151 0.74461 0.0
C545 C 0.21851 0.95331 0.7566 0.0
N546 N 0.18883 0.97617 0.78546 0.0
C547 C 0.19072 0.95584 0.7858 0.0
C548 C 0.17992 0.94676 0.80189 0.0
C549 C 0.17069 0.96219 0.81262 0.0
C550 C 0.17633 0.97993 0.80237 0.0
N551 N 0.17885 0.98945 0.74636 0.0
C552 C 0.15003 0.98208 0.71462 0.0
C553 C 0.15906 0.96598 0.72392 0.0
C554 C 0.17329 0.96998 0.73974 0.0
C555 C 0.15424 1.0017 0.72259 0.0
C556 C 0.16843 0.00499 0.73843 0.0
N557 N 0.22678 1.00108 0.78359 0.0
C558 C 0.25041 0.99028 0.80906 0.0
C559 C 0.25933 0.01005 0.8115 0.0
C560 C 0.25188 0.02515 0.79946 0.0
C561 C 0.23571 0.02039 0.78578 0.0
C562 C 0.23438 0.98614 0.79503 0.0
H563 H 0.23065 0.03263 0.77719 0.0
H564 H 0.22826 0.97078 0.79384 0.0
H565 H 0.18007 0.95713 0.74588 0.0
H566 H 0.17112 0.02033 0.74351 0.0
C567 C 0.19992 0.04418 0.75708 0.0
C568 C 0.1705 1.00008 0.80996 0.0
C569 C 0.23846 0.99102 0.72221 0.0
C570 C 0.20495 0.9462 0.77243 0.0
H571 H 0.15865 0.04136 0.81523 0.0
H572 H 0.17493 0.06577 0.78664 0.0
H573 H 0.22296 0.05879 0.72183 0.0
H574 H 0.24397 0.02965 0.703 0.0
H575 H 0.25188 0.95013 0.71845 0.0
H576 H 0.23372 0.92544 0.74582 0.0
H577 H 0.17963 0.93093 0.80591 0.0
H578 H 0.16148 0.96057 0.82677 0.0
H579 H 0.15602 0.95047 0.71836 0.0
H580 H 0.14705 0.01459 0.71623 0.0
H581 H 0.25552 0.97804 0.81812 0.0
H582 H 0.2586 0.04061 0.8004 0.0
C583 C 0.73873 0.17016 0.97228 0.0
C584 C 0.73473 0.16373 0.95224 0.0
C585 C 0.74867 0.17463 0.93993 0.0
C586 C 0.76028 0.1871 0.95308 0.0
N587 N 0.75486 0.18462 0.9731 0.0
Co588 Co 0.76671 0.20058 0.99727 0.0
N589 N 0.78531 0.21836 0.97898 0.0
C590 C 0.78692 0.21714 0.95825 0.0
C591 C 0.80182 0.23063 0.94997 0.0
C592 C 0.81036 0.24105 0.96638 0.0
C593 C 0.79999 0.23339 0.98382 0.0
N594 N 0.77841 0.21646 0.02148 0.0
C595 C 0.79326 0.23206 0.02228 0.0
C596 C 0.7964 0.23909 0.04232 0.0
C597 C 0.78354 0.22714 0.05464 0.0
C598 C 0.77316 0.21369 0.04151 0.0
N599 N 0.74806 0.18279 0.01551 0.0
C600 C 0.74703 0.18331 0.03626 0.0
C601 C 0.73237 0.16952 0.04446 0.0
C602 C 0.72318 0.15982 0.02797 0.0
C603 C 0.73276 0.16838 0.01062 0.0
N604 N 0.7903 0.18161 0.99881 0.0
C605 C 0.82824 0.16085 1.00179 0.0
C606 C 0.81514 0.1644 0.01907 0.0
C607 C 0.79643 0.1747 0.01725 0.0
C608 C 0.82128 0.16675 0.98285 0.0
C609 C 0.80233 0.17672 0.98168 0.0
N610 N 0.74358 0.21994 0.99578 0.0
C611 C 0.71782 0.24137 0.01259 0.0
C612 C 0.71332 0.2501 0.99401 0.0
C613 C 0.72379 0.24288 0.97626 0.0
C614 C 0.73864 0.22794 0.97746 0.0
C615 C 0.73274 0.22639 0.0131 0.0
H616 H 0.74617 0.22331 0.96339 0.0
H617 H 0.7354 0.22036 0.02773 0.0
H618 H 0.78751 0.17741 0.03109 0.0
H619 H 0.79806 0.18074 0.96676 0.0
C620 C 0.77506 0.20242 0.94702 0.0
C621 C 0.72598 0.16304 0.98991 0.0
C622 C 0.80514 0.24037 0.00464 0.0
C623 C 0.75877 0.19804 0.04755 0.0
H624 H 0.7226 0.15274 0.94698 0.0
H625 H 0.74967 0.1741 0.92333 0.0
H626 H 0.80633 0.23232 0.93395 0.0
H627 H 0.8231 0.25266 0.96553 0.0
H628 H 0.80706 0.25146 0.04756 0.0
H629 H 0.78208 0.22801 0.07122 0.0
H630 H 0.72833 0.16729 0.06051 0.0
H631 H 0.71044 0.14815 0.02861 0.0
H632 H 0.81969 0.15996 0.0341 0.0
H633 H 0.83053 0.16382 0.96891 0.0
H634 H 0.70983 0.24602 0.02675 0.0
H635 H 0.72102 0.2491 0.96146 0.0
Co636 Co 0.05802 0.05056 0.04922 0.0
C637 C 0.05579 0.08352 0.07793 0.0
Co638 Co 0.07524 0.07911 0.04001 0.0
C639 C 0.04975 0.00813 0.05935 0.0
C640 C 0.0224 0.02565 0.06437 0.0
N641 N 0.04287 0.0271 0.05778 0.0
N642 N 0.03435 0.99491 0.06658 0.0
C643 C 0.01712 0.00594 0.06969 0.0
H644 H 0.06574 0.00409 0.0552 0.0
H645 H 0.01205 0.03821 0.0655 0.0
C646 C 0.07827 0.04696 0.01091 0.0
N647 N 0.091 0.10198 0.03129 0.0
C648 C 0.08715 0.12197 0.03275 0.0
C649 C 0.10996 0.10124 0.0212 0.0
N650 N 0.10285 0.13345 0.02359 0.0
C651 C 0.11718 0.12052 0.01633 0.0
C652 C 0.0994 0.05347 0.06234 0.0
O653 O 0.06647 0.03669 0.02349 0.0
O654 O 0.0833 0.06537 0.01547 0.0
O655 O 0.09986 0.07025 0.05316 0.0
O656 O 0.08254 0.04207 0.06204 0.0
O657 O 0.06722 0.09273 0.06443 0.0
H658 H 0.11813 0.08751 0.01766 0.0
H659 H 0.07316 0.12795 0.04021 0.0
O660 O 0.04994 0.06487 0.07463 0.0
O661 O 0.03338 0.05957 0.03677 0.0
O662 O 0.05019 0.08796 0.02744 0.0
C663 C 0.03306 0.0768 0.02853 0.0
H664 H 1.00189 1.00029 0.07588 0.0
H665 H 0.13198 0.12482 0.00838 0.0
Co666 Co 0.94811 0.45194 0.06323 0.0
C667 C 0.95449 0.49294 0.05254 0.0
Co668 Co 0.94211 0.45875 0.03084 0.0
C669 C 0.9612 0.43244 0.09936 0.0
C670 C 0.94775 0.46099 0.10661 0.0
N671 N 0.95253 0.44827 0.09075 0.0
N672 N 0.96207 0.43479 0.11995 0.0
C673 C 0.95367 0.45277 0.12457 0.0
H674 H 0.96692 0.41951 0.09066 0.0
H675 H 0.94027 0.47524 0.10522 0.0
C676 C 0.93517 0.41784 0.04155 0.0
N677 N 0.93805 0.46157 1.00255 0.0
C678 C 0.92628 0.47345 0.99114 0.0
C679 C 0.94795 0.44958 0.98856 0.0
N680 N 0.92898 0.46941 0.97069 0.0
C681 C 0.94257 0.45438 0.96923 0.0
C682 C 0.98431 0.44902 0.03914 0.0
O683 O 0.94118 0.42377 0.05923 0.0
O684 O 0.93452 0.43069 0.02751 0.0
O685 O 0.97202 0.45351 0.02499 0.0
O686 O 0.97681 0.44766 0.05731 0.0
O687 O 0.94956 0.48685 0.03451 0.0
H688 H 0.95831 0.43773 0.99217 0.0
H689 H 0.91614 0.48486 0.99763 0.0
O690 O 0.9548 0.48015 0.06673 0.0
O691 O 0.91946 0.45623 0.06946 0.0
O692 O 0.91252 0.46399 0.03785 0.0
C693 C 0.90641 0.4616 0.05655 0.0
H694 H 0.95149 0.45929 0.13987 0.0
H695 H 0.94793 0.44703 0.95508 0.0
Co696 Co 0.05515 0.94642 0.4576 0.0
C697 C 0.08534 0.95 0.42546 0.0
Co698 Co 0.04496 0.93209 0.42846 0.0
C699 C 0.06316 0.95162 0.5009 0.0
C700 C 0.07139 0.97845 0.48404 0.0
N701 N 0.06393 0.95896 0.48179 0.0
N702 N 0.06948 0.96594 0.51493 0.0
C703 C 0.07465 0.98283 0.50445 0.0
H704 H 0.05755 0.9363 0.50454 0.0
H705 H 0.07401 0.98892 0.47166 0.0
C706 C 0.01433 0.92805 0.45978 0.0
N707 N 0.03582 0.92021 0.40424 0.0
C708 C 0.04683 0.90915 0.39034 0.0
C709 C 0.01634 0.92107 0.39654 0.0
N710 N 0.03497 0.90302 0.37418 0.0
C711 C 0.01574 0.91048 0.37811 0.0
C712 C 0.0662 0.90606 0.45291 0.0
O713 O 0.02783 0.93846 0.47046 0.0
O714 O 0.01905 0.92358 0.44125 0.0
O715 O 0.05708 0.90722 0.43585 0.0
O716 O 0.0666 0.92145 0.46519 0.0
O717 O 0.07077 0.94038 0.41564 0.0
H718 H 1.00338 0.92885 0.4039 0.0
H719 H 0.06329 0.9059 0.39201 0.0
O720 O 0.08213 0.95437 0.44442 0.0
O721 O 0.04412 0.97123 0.44981 0.0
O722 O 0.03332 0.9572 0.42097 0.0
C723 C 0.03535 0.97286 0.43276 0.0
H724 H 0.08049 0.99723 0.51111 0.0
H725 H 1.00203 0.90818 0.36859 0.0
Co726 Co 0.96203 0.56734 0.43991 0.0
C727 C 0.0048 0.56501 0.44875 0.0
Co728 Co 0.97416 0.53637 0.43494 0.0
C729 C 0.93536 0.60224 0.44942 0.0
C730 C 0.96533 0.60995 0.43464 0.0
N731 N 0.95334 0.59403 0.44187 0.0
N732 N 0.93574 0.62262 0.44693 0.0
C733 C 0.95467 0.62738 0.43771 0.0
H734 H 0.92214 0.59342 0.45623 0.0
H735 H 0.98092 0.60894 0.42745 0.0
C736 C 0.93171 0.53908 0.42567 0.0
N737 N 0.98361 0.50968 0.43309 0.0
C738 C 0.98175 0.49429 0.41875 0.0
C739 C 0.9942 0.5018 0.44832 0.0
N740 N 0.99088 0.47718 0.42456 0.0
C741 C 0.99856 0.48211 0.44326 0.0
C742 C 0.95623 0.54586 0.47473 0.0
O743 O 0.93485 0.55758 0.43151 0.0
O744 O 0.94683 0.52705 0.426 0.0
O745 O 0.96475 0.53213 0.4635 0.0
O746 O 0.95377 0.56309 0.46724 0.0
O747 O 1.0016 0.54633 0.4437 0.0
H748 H 0.99833 0.50985 0.46246 0.0
H749 H 0.97389 0.49567 0.40439 0.0
O750 O 0.98949 0.5767 0.44828 0.0
O751 O 0.97013 0.57141 0.41234 0.0
O752 O 0.98298 0.54142 0.40663 0.0
C753 C 0.97883 0.55881 0.40012 0.0
H754 H 0.96056 0.6425 0.43363 0.0
H755 H 0.00646 0.47213 0.45303 0.0
Co756 Co 0.43772 0.94825 0.5665 0.0
C757 C 0.44958 0.98736 0.55231 0.0
Co758 Co 0.42919 0.95441 0.53465 0.0
C759 C 0.45232 0.92914 0.60225 0.0
C760 C 0.44364 0.95965 0.60882 0.0
N761 N 0.44463 0.94544 0.59357 0.0
N762 N 0.45629 0.93266 0.62231 0.0
C763 C 0.45084 0.95186 0.62649 0.0
H764 H 0.45534 0.9151 0.59389 0.0
H765 H 0.43811 0.97475 0.60717 0.0
C766 C 0.41661 0.91556 0.54869 0.0
N767 N 0.42291 0.9563 0.50669 0.0
C768 C 0.41388 0.97006 0.49503 0.0
C769 C 0.42865 0.94158 0.49311 0.0
N770 N 0.41424 0.96439 0.47481 0.0
C771 C 0.42349 0.94649 0.47375 0.0
C772 C 0.46984 0.93839 0.53947 0.0
O773 O 0.42456 0.9215 0.56565 0.0
O774 O 0.41782 0.92742 0.53372 0.0
O775 O 0.45761 0.94537 0.52645 0.0
O776 O 0.46365 0.93788 0.55809 0.0
O777 O 0.44032 0.98152 0.53594 0.0
H778 H 0.43638 0.92803 0.49701 0.0
H779 H 0.40773 0.98411 0.50109 0.0
O780 O 0.45061 0.97507 0.56689 0.0
O781 O 0.41185 0.95868 0.57522 0.0
O782 O 0.40122 0.96342 0.54398 0.0
C783 C 0.39778 0.96427 0.56345 0.0
H784 H 0.45175 0.95964 0.64132 0.0
H785 H 0.42632 0.93756 0.45983 0.0
Co786 Co 0.53883 0.53924 0.57484 0.0
C787 C 0.53952 0.57403 0.6017 0.0
Co788 Co 0.55426 0.56738 0.5623 0.0
C789 C 0.53163 0.49729 0.58792 0.0
C790 C 0.50637 0.51626 0.59718 0.0
N791 N 0.525 0.51641 0.58651 0.0
N792 N 0.51797 0.48536 0.59928 0.0
C793 C 0.50205 0.49731 0.60506 0.0
H794 H 0.54658 0.49246 0.58143 0.0
H795 H 0.49677 0.52929 0.59952 0.0
C796 C 0.55398 0.53355 0.53489 0.0
N797 N 0.56875 0.58958 0.55043 0.0
C798 C 0.56605 0.6098 0.55228 0.0
C799 C 0.58536 0.58788 0.53704 0.0
N800 N 0.58007 0.62046 0.54017 0.0
C801 C 0.59218 0.60676 0.5306 0.0
C802 C 0.58151 0.54332 0.58321 0.0
O803 O 0.54504 0.52359 0.54954 0.0
O804 O 0.55864 0.5523 0.53774 0.0
O805 O 0.58063 0.55919 0.57268 0.0
O806 O 0.56478 0.532 0.58583 0.0
O807 O 0.54956 0.58242 0.58677 0.0
H808 H 0.59225 0.57376 0.5323 0.0
H809 H 0.55406 0.61652 0.56213 0.0
O810 O 0.53319 0.55534 0.59982 0.0
O811 O 0.51255 0.54714 0.56399 0.0
O812 O 0.52778 0.57546 0.55243 0.0
C813 C 0.51108 0.56397 0.55512 0.0
H814 H 0.4883 0.49271 0.61446 0.0
H815 H 0.60535 0.61028 0.52005 0.0
Co816 Co 0.57219 0.46206 0.97772 0.0
C817 C 0.59946 0.46301 0.94305 0.0
Co818 Co 0.55874 0.44713 0.95 0.0
C819 C 0.58496 0.46883 0.01989 0.0
C820 C 0.59393 0.49381 1.00068 0.0
N821 N 0.584 0.47517 1.00046 0.0
N822 N 0.59499 0.48288 0.03223 0.0
C823 C 0.60064 0.4986 0.02014 0.0
H824 H 0.57829 0.45427 0.02489 0.0
H825 H 0.59629 0.50327 0.98745 0.0
C826 C 0.531 0.44585 0.98397 0.0
N827 N 0.54684 0.43438 0.92715 0.0
C828 C 0.55152 0.438 0.90723 0.0
C829 C 0.53168 0.41912 0.92682 0.0
N830 N 0.53989 0.42566 0.89457 0.0
C831 C 0.52733 0.41379 0.90682 0.0
C832 C 0.58082 0.42107 0.97363 0.0
O833 O 0.54591 0.45578 0.99326 0.0
O834 O 0.53374 0.44085 0.96524 0.0
O835 O 0.57006 0.4221 0.95752 0.0
O836 O 0.58327 0.43686 0.98524 0.0
O837 O 0.5838 0.4534 0.93492 0.0
H838 H 0.52463 0.41189 0.94023 0.0
H839 H 0.56348 0.44922 0.90203 0.0
O840 O 0.59808 0.46831 0.96196 0.0
O841 O 0.56148 0.48706 0.96977 0.0
O842 O 0.54787 0.47236 0.94229 0.0
C843 C 0.55154 0.48838 0.95326 0.0
H844 H 0.60943 0.51242 0.02489 0.0
H845 H 0.51665 0.40139 0.90166 0.0
Co846 Co 0.47467 0.08373 0.94808 0.0
C847 C 0.51651 0.0747 0.95705 0.0
Co848 Co 0.48303 0.05167 0.94156 0.0
C849 C 0.4526 0.12089 0.95823 0.0
C850 C 0.48471 0.12648 0.94746 0.0
N851 N 0.4702 0.11134 0.95185 0.0
N852 N 0.45559 0.14138 0.95778 0.0
C853 C 0.47583 0.14485 0.95107 0.0
H854 H 0.43776 0.11296 0.96257 0.0
H855 H 0.50069 0.1243 0.9417 0.0
C856 C 0.44153 0.06072 0.93227 0.0
N857 N 0.48672 0.02328 0.93794 0.0
C858 C 0.49834 0.01163 0.92467 0.0
C859 C 0.47534 0.00954 0.94936 0.0
N860 N 0.49483 0.99143 0.928 0.0
C861 C 0.48043 0.99026 0.94352 0.0
C862 C 0.46568 0.06125 0.98172 0.0
O863 O 0.44692 0.07882 0.93801 0.0
O864 O 0.45482 0.04699 0.93311 0.0
O865 O 0.47379 0.04755 0.9702 0.0
O866 O 0.46431 0.07885 0.97474 0.0
O867 O 0.51152 0.05687 0.95003 0.0
H868 H 0.46343 0.01308 0.96095 0.0
H869 H 0.50904 0.01775 0.91286 0.0
O870 O 0.50261 0.08803 0.95795 0.0
O871 O 0.48504 0.08873 0.92138 0.0
O872 O 0.49204 0.05715 0.91319 0.0
C873 C 0.49177 0.07579 0.9083 0.0
H874 H 0.48374 0.15965 0.94895 0.0
H875 H 0.47356 0.9763 0.94983 0.0
C876 C 0.02297 0.14977 0.37966 0.0
C877 C 0.01189 0.15159 0.36146 0.0
C878 C 0.02376 0.13081 0.38884 0.0
C879 C 0.01977 0.0761 0.37509 0.0
H880 H 0.0135 0.06796 0.43356 0.0
C881 C 0.01917 0.99543 0.40762 0.0
C882 C 0.02949 0.99318 0.42613 0.0
C883 C 0.01546 0.01483 0.40067 0.0
C884 C 0.01556 0.06995 0.4172 0.0
H885 H 0.9916 0.1351 0.33964 0.0
H886 H 0.99321 0.1023 0.35541 0.0
H887 H 0.0105 0.10189 0.42021 0.0
H888 H 0.04368 0.00967 0.45202 0.0
H889 H 0.03775 0.04324 0.43975 0.0
H890 H 0.02538 0.04446 0.37193 0.0
C891 C 1.00168 0.11536 0.36236 0.0
C892 C 0.01379 0.08945 0.40956 0.0
C893 C 1.00079 0.13421 0.35331 0.0
C894 C 0.03556 0.01078 0.43774 0.0
C895 C 0.03205 0.03013 0.43071 0.0
C896 C 0.02175 0.05669 0.3827 0.0
C897 C 0.01354 0.11329 0.37997 0.0
C898 C 0.01576 0.09273 0.38839 0.0
C899 C 0.02217 0.0325 0.41194 0.0
C900 C 0.0196 0.05326 0.40387 0.0
H901 H 0.03174 0.1628 0.38632 0.0
H902 H 0.03304 0.12972 0.40242 0.0
H903 H 0.02174 0.07814 0.35871 0.0
H904 H 0.01421 0.98223 0.39832 0.0
H905 H 0.00741 0.01593 0.38635 0.0
C906 C 0.99335 0.30667 0.33755 0.0
C907 C 1.00398 0.29319 0.34944 0.0
C908 C 0.99107 0.32693 0.34429 0.0
C909 C 0.01637 0.36704 0.37699 0.0
H910 H 0.96256 0.39278 0.37782 0.0
C911 C 0.0068 0.44357 0.42016 0.0
C912 C 0.99235 0.45755 0.41384 0.0
C913 C 0.00776 0.42423 0.41089 0.0
C914 C 0.97783 0.38605 0.37738 0.0
H915 H 0.01899 0.28998 0.37847 0.0
H916 H 0.01596 0.32548 0.38979 0.0
H917 H 0.96474 0.35781 0.36446 0.0
H918 H 0.96784 0.46171 0.392 0.0
H919 H 0.97009 0.42814 0.3752 0.0
H920 H 0.02979 0.39511 0.38918 0.0
C921 C 0.00967 0.32051 0.3751 0.0
C922 C 0.97902 0.36589 0.3698 0.0
C923 C 0.01158 0.30021 0.36854 0.0
C924 C 0.97921 0.45154 0.39738 0.0
C925 C 0.98035 0.43209 0.38787 0.0
C926 C 0.01529 0.38722 0.38419 0.0
C927 C 0.99954 0.33421 0.36301 0.0
C928 C 0.99824 0.35601 0.36988 0.0
C929 C 0.99463 0.41805 0.39455 0.0
C930 C 0.99592 0.39699 0.38498 0.0
H931 H 0.98706 0.30158 0.32289 0.0
H932 H 0.98315 0.33704 0.33462 0.0
H933 H 0.03152 0.36006 0.37689 0.0
H934 H 0.01757 0.44741 0.43241 0.0
H935 H 0.01869 0.414 0.41695 0.0
C936 C 0.01548 0.81692 0.11305 0.0
C937 C 0.03219 0.80889 0.12347 0.0
C938 C 0.01754 0.83648 0.10523 0.0
C939 C 0.04876 0.88561 0.11133 0.0
H940 H 0.02097 0.89818 0.06142 0.0
C941 C 0.05513 0.96619 0.07697 0.0
C942 C 0.03592 0.97365 0.07083 0.0
C943 C 0.05622 0.94577 0.08211 0.0
C944 C 0.02874 0.89495 0.07545 0.0
H945 H 0.06442 0.81524 0.13339 0.0
H946 H 0.06825 0.84912 0.11923 0.0
H947 H 0.0204 0.86313 0.07236 0.0
H948 H 1.003 0.96529 0.06466 0.0
H949 H 0.00487 0.92981 0.07358 0.0
H950 H 0.05707 0.91752 0.11435 0.0
C951 C 0.05335 0.84039 0.11743 0.0
C952 C 0.02838 0.87482 0.08177 0.0
C953 C 0.05126 0.82081 0.12533 0.0
C954 C 0.01798 0.96011 0.06952 0.0
C955 C 0.01911 0.9397 0.07445 0.0
C956 C 0.04925 0.90574 0.10492 0.0
C957 C 0.03643 0.8486 0.10747 0.0
C958 C 0.03811 0.86988 0.09997 0.0
C959 C 0.03819 0.93229 0.08098 0.0
C960 C 0.03898 0.9107 0.08705 0.0
H961 H 1.00065 0.80814 0.11103 0.0
H962 H 0.00405 0.84227 0.09788 0.0
H963 H 0.05619 0.88252 0.12557 0.0
H964 H 0.06919 0.97624 0.07829 0.0
H965 H 0.0712 0.94052 0.08694 0.0
C966 C 0.99134 0.65761 0.13125 0.0
C967 C 0.99853 0.67424 0.11964 0.0
C968 C 0.98482 0.63932 0.12153 0.0
C969 C 0.99072 0.60965 0.07328 0.0
H970 H 0.94325 0.57754 0.0968 0.0
C971 C 0.96117 0.52925 0.04217 0.0
C972 C 0.9589 0.51473 0.05756 0.0
C973 C 0.96474 0.54989 0.04744 0.0
C974 C 0.95651 0.58637 0.09005 0.0
H975 H 0.00446 0.68533 0.08904 0.0
H976 H 0.99288 0.65314 0.07177 0.0
H977 H 0.9514 0.61187 0.11024 0.0
H978 H 0.9587 0.51048 0.09046 0.0
H979 H 0.96471 0.54625 0.09949 0.0
H980 H 0.99589 0.58384 0.05327 0.0
C981 C 0.99248 0.65415 0.08837 0.0
C982 C 0.96123 0.60598 0.09777 0.0
C983 C 0.99901 0.67251 0.09816 0.0
C984 C 0.96036 0.52123 0.07821 0.0
C985 C 0.96365 0.54175 0.08343 0.0
C986 C 0.98589 0.59 0.06545 0.0
C987 C 0.9853 0.63736 0.09998 0.0
C988 C 0.97876 0.61762 0.0899 0.0
C989 C 0.96574 0.5563 0.06815 0.0
C990 C 0.96911 0.57801 0.07419 0.0
H991 H 0.99095 0.65876 0.14786 0.0
H992 H 0.97977 0.62658 0.13092 0.0
H993 H 0.00439 0.61821 0.06696 0.0
H994 H 0.96014 0.52468 0.02613 0.0
H995 H 0.96633 0.56087 0.03539 0.0
C996 C 0.37236 0.05095 0.14837 0.0
C997 C 0.37422 0.03376 0.16025 0.0
C998 C 0.38389 0.05318 0.12988 0.0
C999 C 0.42873 0.03352 0.09771 0.0
H1000 H 0.39831 0.05706 0.0543 0.0
C1001 C 0.45925 0.03804 0.01178 0.0
C1002 C 0.45707 0.0569 1.00273 0.0
C1003 C 0.45026 0.03414 0.03136 0.0
C1004 C 0.4071 0.05056 0.06627 0.0
H1005 H 0.39022 0.00572 0.16239 0.0
H1006 H 0.41021 0.00938 0.12976 0.0
H1007 H 0.38102 0.05246 0.08771 0.0
H1008 H 0.44394 0.08652 0.00742 0.0
H1009 H 0.42831 0.07968 0.04113 0.0
H1010 H 0.45474 0.03142 0.07579 0.0
C1011 C 0.40002 0.02132 0.13489 0.0
C1012 C 0.39722 0.04801 0.08554 0.0
C1013 C 0.38858 0.0192 0.15361 0.0
C1014 C 0.44593 0.07179 0.01381 0.0
C1015 C 0.43683 0.06784 0.03315 0.0
C1016 C 0.43859 0.03593 0.07825 0.0
C1017 C 0.39743 0.03814 0.12252 0.0
C1018 C 0.40798 0.03982 0.1017 0.0
C1019 C 0.43868 0.04894 0.04213 0.0
C1020 C 0.42799 0.04483 0.06242 0.0
H1021 H 0.36161 0.06255 0.15323 0.0
H1022 H 0.38192 0.06666 0.1212 0.0
H1023 H 0.43758 0.02721 0.10973 0.0
H1024 H 0.46773 0.02624 0.0037 0.0
H1025 H 0.4519 0.0194 0.03785 0.0
C1026 C 0.67043 0.48347 0.2019 0.0
C1027 C 0.65622 0.47959 0.2184 0.0
C1028 C 0.66329 0.48247 0.18184 0.0
C1029 C 0.61895 0.46295 0.14951 0.0
H1030 H 0.6407 0.50533 0.11338 0.0
C1031 C 0.60275 0.46261 0.0622 0.0
C1032 C 0.59949 0.48147 0.05365 0.0
C1033 C 0.60871 0.46159 0.08264 0.0
C1034 C 0.63432 0.49347 0.1233 0.0
H1035 H 0.62365 0.4716 0.2273 0.0
H1036 H 0.61092 0.47002 0.19208 0.0
H1037 H 0.653 0.50492 0.1483 0.0
H1038 H 0.59871 0.51386 0.06016 0.0
H1039 H 0.6089 0.5121 0.09569 0.0
H1040 H 0.59991 0.45179 0.1245 0.0
C1041 C 0.62763 0.4735 0.19455 0.0
C1042 C 0.6416 0.49308 0.14326 0.0
C1043 C 0.63482 0.47448 0.21466 0.0
C1044 C 0.60157 0.49916 0.06615 0.0
C1045 C 0.60743 0.49814 0.08652 0.0
C1046 C 0.61165 0.46334 0.12948 0.0
C1047 C 0.64176 0.4777 0.17792 0.0
C1048 C 0.63402 0.47783 0.15662 0.0
C1049 C 0.61146 0.4794 0.09492 0.0
C1050 C 0.6192 0.47868 0.11618 0.0
H1051 H 0.68702 0.48743 0.2046 0.0
H1052 H 0.67465 0.48548 0.16938 0.0
H1053 H 0.61293 0.4509 0.15937 0.0
H1054 H 0.60143 0.44874 0.05292 0.0
H1055 H 0.61183 0.44692 0.0886 0.0
C1056 C 0.36697 1.0005 0.3005 0.0
C1057 C 0.34618 0.00591 0.29728 0.0
C1058 C 0.37376 0.99743 0.32037 0.0
C1059 C 0.36109 0.00834 0.3758 0.0
H1060 H 0.39836 0.96456 0.38344 0.0
C1061 C 0.38648 0.98113 0.45621 0.0
C1062 C 0.40725 0.97461 0.45716 0.0
C1063 C 0.37852 0.98682 0.43738 0.0
C1064 C 0.38817 0.97704 0.38161 0.0
H1065 H 0.31635 0.01306 0.3122 0.0
H1066 H 0.32801 0.00742 0.34702 0.0
H1067 H 0.3854 0.9702 0.34952 0.0
H1068 H 0.43638 0.97037 0.43967 0.0
H1069 H 0.42292 0.98072 0.40722 0.0
H1070 H 0.36386 0.01498 0.40813 0.0
C1071 C 0.33917 0.00557 0.33426 0.0
C1072 C 0.38071 0.98029 0.36206 0.0
C1073 C 0.33241 0.00865 0.31433 0.0
C1074 C 0.42026 0.97518 0.43932 0.0
C1075 C 0.41244 0.98091 0.42068 0.0
C1076 C 0.36856 0.00505 0.39547 0.0
C1077 C 0.35995 0.99981 0.33758 0.0
C1078 C 0.36725 0.99612 0.35876 0.0
C1079 C 0.39124 0.9861 0.41922 0.0
C1080 C 0.38244 0.9895 0.39858 0.0
H1081 H 0.37805 0.99882 0.28763 0.0
H1082 H 0.39 0.99347 0.32226 0.0
H1083 H 0.35088 0.02078 0.3739 0.0
H1084 H 0.37606 0.9806 0.46969 0.0
H1085 H 0.36212 0.99075 0.43686 0.0
C1086 C 0.64742 0.48087 0.37446 0.0
C1087 C 0.64583 0.49508 0.35893 0.0
C1088 C 0.63631 0.48303 0.39334 0.0
C1089 C 0.61104 0.52221 0.42655 0.0
H1090 H 0.58438 0.47645 0.45526 0.0
C1091 C 0.55737 0.53626 0.49708 0.0
C1092 C 0.55943 0.52444 0.51441 0.0
C1093 C 0.56645 0.53066 0.4781 0.0
C1094 C 0.5919 0.48937 0.44755 0.0
H1095 H 0.63035 0.52228 0.3511 0.0
H1096 H 0.61122 0.52606 0.38381 0.0
H1097 H 0.60321 0.47076 0.42233 0.0
H1098 H 0.57192 0.49689 0.52516 0.0
H1099 H 0.58811 0.48701 0.49175 0.0
H1100 H 0.60007 0.54084 0.45161 0.0
C1101 C 0.6214 0.51343 0.38159 0.0
C1102 C 0.60272 0.48612 0.42864 0.0
C1103 C 0.63244 0.51126 0.36275 0.0
C1104 C 0.56984 0.50616 0.51202 0.0
C1105 C 0.5792 0.50059 0.49288 0.0
C1106 C 0.60033 0.52544 0.44536 0.0
C1107 C 0.62332 0.49949 0.39728 0.0
C1108 C 0.61224 0.50255 0.41774 0.0
C1109 C 0.57823 0.51319 0.47583 0.0
C1110 C 0.59031 0.50915 0.45606 0.0
H1111 H 0.65772 0.46833 0.37227 0.0
H1112 H 0.63839 0.47208 0.40507 0.0
H1113 H 0.6186 0.53521 0.41898 0.0
H1114 H 0.54937 0.55039 0.49839 0.0
H1115 H 0.56472 0.54045 0.46529 0.0
C1116 C 0.16835 0.39974 1.00155 0.0
C1117 C 0.18168 0.40279 0.01847 0.0
C1118 C 0.14734 0.40569 1.00262 0.0
C1119 C 0.10388 0.41476 0.03998 0.0
H1120 H 0.0785 0.44276 0.99624 0.0
C1121 C 0.02103 0.44593 0.05154 0.0
C1122 C 0.00712 0.44529 0.03507 0.0
C1123 C 0.04228 0.44141 0.04851 0.0
C1124 C 0.0852 0.43469 0.00849 0.0
H1125 H 0.18313 0.41541 0.04957 0.0
H1126 H 0.14646 0.42526 0.05153 0.0
H1127 H 0.11558 0.4338 0.99281 0.0
H1128 H 0.00487 0.43969 1.00231 0.0
H1129 H 0.04204 0.43118 0.997 0.0
H1130 H 0.07364 0.41503 0.05551 0.0
C1131 C 0.15231 0.41809 0.03747 0.0
C1132 C 0.10652 0.42962 0.00654 0.0
C1133 C 0.17338 0.41235 0.03634 0.0
C1134 C 0.01518 0.44037 0.01532 0.0
C1135 C 0.03654 0.43556 0.0123 0.0
C1136 C 0.08258 0.41957 0.04184 0.0
C1137 C 0.13895 0.41466 0.0207 0.0
C1138 C 0.11618 0.4198 0.02239 0.0
C1139 C 0.05034 0.43577 0.02894 0.0
C1140 C 0.07293 0.42988 0.02627 0.0
H1141 H 0.17389 0.39213 0.98762 0.0
H1142 H 0.13743 0.40265 0.98948 0.0
H1143 H 0.11066 0.4068 0.05228 0.0
H1144 H 0.01549 0.44992 0.06694 0.0
H1145 H 0.0524 0.4424 0.06165 0.0
C1146 C 0.18916 0.62833 0.47844 0.0
C1147 C 0.19068 0.64879 0.48507 0.0
C1148 C 0.16934 0.6187 0.47444 0.0
C1149 C 0.11205 0.62302 0.48693 0.0
H1150 H 0.10426 0.58505 0.44086 0.0
C1151 C 0.02919 0.59397 0.46056 0.0
C1152 C 0.02621 0.57343 0.4543 0.0
C1153 C 0.04942 0.60237 0.46487 0.0
C1154 C 0.10623 0.59542 0.45395 0.0
H1155 H 0.17305 0.67526 0.49291 0.0
H1156 H 0.13838 0.65868 0.48553 0.0
H1157 H 0.13924 0.60154 0.44664 0.0
H1158 H 0.04223 0.54557 0.44787 0.0
H1159 H 0.07765 0.56028 0.45549 0.0
H1160 H 0.07904 0.61704 0.49415 0.0
C1161 C 0.15236 0.64993 0.48357 0.0
C1162 C 0.12629 0.60489 0.45726 0.0
C1163 C 0.17217 0.65951 0.48759 0.0
C1164 C 0.04397 0.56143 0.45267 0.0
C1165 C 0.06428 0.56989 0.45689 0.0
C1166 C 0.09202 0.61359 0.4836 0.0
C1167 C 0.15065 0.62933 0.47713 0.0
C1168 C 0.12942 0.61893 0.47371 0.0
C1169 C 0.06724 0.5905 0.46297 0.0
C1170 C 0.08882 0.59978 0.46699 0.0
H1171 H 0.20326 0.61969 0.47687 0.0
H1172 H 0.16861 0.60277 0.46981 0.0
H1173 H 0.11395 0.63339 0.50002 0.0
H1174 H 0.01589 0.60369 0.46192 0.0
H1175 H 0.05114 0.61834 0.46925 0.0
C1176 C 0.8239 0.89545 0.50292 0.0
C1177 C 0.8162 0.87609 0.4961 0.0
C1178 C 0.84547 0.90142 0.50039 0.0
C1179 C 0.89278 0.89118 0.46828 0.0
H1180 H 0.92494 0.91596 0.51309 0.0
C1181 C 0.98303 0.90344 0.45968 0.0
C1182 C 0.993 0.92129 0.46796 0.0
C1183 C 0.96188 0.89802 0.4647 0.0
C1184 C 0.91618 0.90931 0.50032 0.0
H1185 H 0.82475 0.84803 0.48078 0.0
H1186 H 0.86235 0.85853 0.47594 0.0
H1187 H 0.88707 0.90685 0.51826 0.0
H1188 H 0.98874 0.94716 0.4886 0.0
H1189 H 0.95134 0.93802 0.49705 0.0
H1190 H 0.92139 0.89401 0.4501 0.0
C1191 C 0.85182 0.86905 0.48346 0.0
C1192 C 0.89446 0.90405 0.50331 0.0
C1193 C 0.83034 0.863 0.48625 0.0
C1194 C 0.98151 0.93324 0.4821 0.0
C1195 C 0.96006 0.92796 0.48691 0.0
C1196 C 0.91433 0.89664 0.46521 0.0
C1197 C 0.85969 0.8883 0.49057 0.0
C1198 C 0.88257 0.89468 0.48738 0.0
C1199 C 0.94979 0.9105 0.47784 0.0
C1200 C 0.9265 0.90551 0.48124 0.0
H1201 H 0.8132 0.90596 0.51021 0.0
H1202 H 0.85096 0.91645 0.50578 0.0
H1203 H 0.88401 0.88438 0.45556 0.0
H1204 H 0.99154 0.89377 0.44892 0.0
H1205 H 0.95492 0.8841 0.45794 0.0
C1206 C 0.33678 0.62521 0.50763 0.0
C1207 C 0.32931 0.63925 0.52245 0.0
C1208 C 0.35575 0.61552 0.51044 0.0
C1209 C 0.39303 0.6021 0.55024 0.0
H1210 H 0.43469 0.60034 0.50539 0.0
C1211 C 0.47111 0.56022 0.55609 0.0
C1212 C 0.48992 0.57069 0.54927 0.0
C1213 C 0.45117 0.56736 0.552 0.0
C1214 C 0.42325 0.60072 0.51808 0.0
H1215 H 0.33557 0.6535 0.55219 0.0
H1216 H 0.36833 0.63648 0.55719 0.0
H1217 H 0.40033 0.61464 0.50016 0.0
H1218 H 0.50232 0.59672 0.5323 0.0
H1219 H 0.46755 0.60901 0.52493 0.0
H1220 H 0.41595 0.58838 0.56823 0.0
C1221 C 0.35966 0.63299 0.54333 0.0
C1222 C 0.40345 0.60875 0.51503 0.0
C1223 C 0.34092 0.64286 0.54041 0.0
C1224 C 0.4882 0.58823 0.53778 0.0
C1225 C 0.46824 0.59525 0.53348 0.0
C1226 C 0.4127 0.59385 0.55322 0.0
C1227 C 0.36752 0.61939 0.52829 0.0
C1228 C 0.38815 0.60974 0.53113 0.0
C1229 C 0.44944 0.58507 0.54077 0.0
C1230 C 0.42817 0.5932 0.53725 0.0
H1231 H 0.32831 0.62219 0.49357 0.0
H1232 H 0.36122 0.60501 0.49861 0.0
H1233 H 0.38161 0.60248 0.56295 0.0
H1234 H 0.47175 0.54669 0.56502 0.0
H1235 H 0.43706 0.559 0.55767 0.0
C1236 C 0.51449 0.64817 0.87091 0.0
C1237 C 0.52712 0.66529 0.87734 0.0
C1238 C 0.51648 0.62925 0.87964 0.0
C1239 C 0.55302 0.60065 0.91083 0.0
H1240 H 0.50367 0.56336 0.91674 0.0
C1241 C 0.55472 0.52649 0.95581 0.0
C1242 C 0.54623 0.50865 0.94605 0.0
C1243 C 0.55165 0.5456 0.94797 0.0
C1244 C 0.51762 0.57356 0.91506 0.0
H1245 H 0.55156 0.67594 0.89826 0.0
H1246 H 0.55464 0.64314 0.91399 0.0
H1247 H 0.49985 0.59673 0.90255 0.0
H1248 H 0.52731 0.49709 0.92063 0.0
H1249 H 0.52158 0.53057 0.90717 0.0
H1250 H 0.57062 0.57752 0.9238 0.0
C1251 C 0.54354 0.64413 0.90178 0.0
C1252 C 0.51549 0.59272 0.90683 0.0
C1253 C 0.54173 0.66302 0.89284 0.0
C1254 C 0.53402 0.51049 0.92857 0.0
C1255 C 0.53071 0.52968 0.92087 0.0
C1256 C 0.55507 0.58161 0.9193 0.0
C1257 C 0.53101 0.6269 0.89525 0.0
C1258 C 0.53318 0.60656 0.90448 0.0
C1259 C 0.53979 0.54745 0.93029 0.0
C1260 C 0.53743 0.56779 0.92146 0.0
H1261 H 0.50334 0.6493 0.85875 0.0
H1262 H 0.50686 0.61639 0.87379 0.0
H1263 H 0.56713 0.61058 0.90893 0.0
H1264 H 0.56426 0.5257 0.96926 0.0
H1265 H 0.55865 0.55899 0.95572 0.0
C1266 C 0.50933 0.8225 0.84508 0.0
C1267 C 0.51597 0.8083 0.85881 0.0
C1268 C 0.50876 0.84318 0.85088 0.0
C1269 C 0.52995 0.88138 0.88986 0.0
H1270 H 0.48478 0.91374 0.87214 0.0
C1271 C 0.51063 0.95823 0.92915 0.0
C1272 C 0.50326 0.97386 0.91752 0.0
C1273 C 0.51453 0.9392 0.92015 0.0
C1274 C 0.49773 0.90506 0.87697 0.0
H1275 H 0.52665 0.80437 0.88952 0.0
H1276 H 0.5254 0.84029 0.8999 0.0
H1277 H 0.48607 0.87824 0.86057 0.0
H1278 H 0.49461 0.9819 0.88715 0.0
H1279 H 0.50157 0.94849 0.87114 0.0
H1280 H 0.54137 0.90807 0.90657 0.0
C1281 C 0.52109 0.83572 0.88443 0.0
C1282 C 0.49846 0.88459 0.87035 0.0
C1283 C 0.52167 0.81508 0.87859 0.0
C1284 C 0.50066 0.97025 0.89638 0.0
C1285 C 0.50434 0.95101 0.88733 0.0
C1286 C 0.52918 0.90178 0.89652 0.0
C1287 C 0.51476 0.85017 0.87064 0.0
C1288 C 0.51443 0.87233 0.87691 0.0
C1289 C 0.51094 0.93507 0.89922 0.0
C1290 C 0.5129 0.91389 0.89042 0.0
H1291 H 0.50484 0.81761 0.82973 0.0
H1292 H 0.50398 0.85373 0.83972 0.0
H1293 H 0.54281 0.87271 0.8949 0.0
H1294 H 0.51248 0.96053 0.94552 0.0
H1295 H 0.51933 0.92738 0.92992 0.0
C1296 C 0.51855 0.31402 0.66792 0.0
C1297 C 0.52204 0.29811 0.65361 0.0
C1298 C 0.51917 0.33421 0.66172 0.0
C1299 C 0.53937 0.3689 0.62148 0.0
H1300 H 0.49293 0.40154 0.64015 0.0
C1301 C 0.52939 0.45036 0.59172 0.0
C1302 C 0.52017 0.46463 0.6052 0.0
C1303 C 0.53034 0.42998 0.59723 0.0
C1304 C 0.50628 0.39287 0.63503 0.0
H1305 H 0.5287 0.29079 0.62159 0.0
H1306 H 0.53046 0.32622 0.61079 0.0
H1307 H 0.49376 0.36657 0.65076 0.0
H1308 H 0.50575 0.46891 0.63544 0.0
H1309 H 0.50805 0.43391 0.64536 0.0
H1310 H 0.55221 0.39531 0.60615 0.0
C1311 C 0.52735 0.32307 0.62683 0.0
C1312 C 0.50666 0.3727 0.64108 0.0
C1313 C 0.52641 0.30281 0.63299 0.0
C1314 C 0.51254 0.45821 0.62453 0.0
C1315 C 0.51378 0.43801 0.63016 0.0
C1316 C 0.53916 0.38923 0.61564 0.0
C1317 C 0.52347 0.339 0.64108 0.0
C1318 C 0.52321 0.36046 0.63444 0.0
C1319 C 0.52236 0.42344 0.61651 0.0
C1320 C 0.52263 0.40158 0.62239 0.0
H1321 H 0.51503 0.31076 0.68388 0.0
H1322 H 0.51627 0.34611 0.67312 0.0
H1323 H 0.55242 0.3599 0.6162 0.0
H1324 H 0.53528 0.45483 0.57667 0.0
H1325 H 0.53687 0.4193 0.58615 0.0
C1326 C 0.47446 0.15265 0.62708 0.0
C1327 C 0.49313 0.16496 0.62405 0.0
C1328 C 0.47027 0.13552 0.61445 0.0
C1329 C 0.46132 0.10417 0.58011 0.0
H1330 H 0.50789 0.06814 0.57463 0.0
C1331 C 0.45138 0.02388 0.54253 0.0
C1332 C 0.45786 0.0086 0.55514 0.0
C1333 C 0.45726 0.04429 0.54686 0.0
C1334 C 0.4948 0.07812 0.57588 0.0
H1335 H 0.52136 0.16957 0.60456 0.0
H1336 H 0.51416 0.13939 0.58276 0.0
H1337 H 0.51401 0.10224 0.58966 0.0
H1338 H 0.47644 1.00255 0.58151 0.0
H1339 H 0.48685 0.03805 0.5889 0.0
H1340 H 0.44193 0.07971 0.56707 0.0
C1341 C 0.50292 0.14296 0.59504 0.0
C1342 C 0.49833 0.09768 0.58433 0.0
C1343 C 0.50706 0.16018 0.60758 0.0
C1344 C 0.47114 0.01399 0.57154 0.0
C1345 C 0.47722 0.03431 0.57571 0.0
C1346 C 0.45784 0.08465 0.57149 0.0
C1347 C 0.48468 0.13026 0.59859 0.0
C1348 C 0.4815 0.1107 0.58702 0.0
C1349 C 0.46998 0.04969 0.56368 0.0
C1350 C 0.47443 0.07127 0.56981 0.0
H1351 H 0.46353 0.15571 0.63976 0.0
H1352 H 0.45621 0.12585 0.61772 0.0
H1353 H 0.44812 0.11396 0.58185 0.0
H1354 H 0.4411 0.02017 0.52979 0.0
H1355 H 0.45158 0.05587 0.5373 0.0
C1356 C 0.86768 0.54073 0.64353 0.0
C1357 C 0.87041 0.52445 0.65641 0.0
C1358 C 0.87851 0.54203 0.62459 0.0
C1359 C 0.92315 0.52204 0.59259 0.0
H1360 H 0.89045 0.54154 0.54855 0.0
C1361 C 0.95169 0.52373 0.50586 0.0
C1362 C 0.94828 0.54196 0.49606 0.0
C1363 C 0.94328 0.52028 0.52575 0.0
C1364 C 0.89987 0.53616 0.56068 0.0
H1365 H 0.88731 0.49709 0.65982 0.0
H1366 H 0.90614 0.49915 0.62642 0.0
H1367 H 0.87419 0.53816 0.58257 0.0
H1368 H 0.9336 0.57095 0.49977 0.0
H1369 H 0.91903 0.56488 0.534 0.0
H1370 H 0.9488 0.51991 0.57028 0.0
C1371 C 0.89573 0.51107 0.6311 0.0
C1372 C 0.89057 0.53431 0.58028 0.0
C1373 C 0.88496 0.50988 0.65025 0.0
C1374 C 0.93654 0.55669 0.50672 0.0
C1375 C 0.92804 0.55318 0.52637 0.0
C1376 C 0.93245 0.52377 0.57282 0.0
C1377 C 0.89226 0.52695 0.6178 0.0
C1378 C 0.90216 0.52764 0.59666 0.0
C1379 C 0.93109 0.53489 0.53609 0.0
C1380 C 0.92101 0.53124 0.55674 0.0
H1381 H 0.85685 0.55239 0.648 0.0
H1382 H 0.87588 0.55483 0.61514 0.0
H1383 H 0.93261 0.51689 0.60479 0.0
H1384 H 0.96068 0.51209 0.49811 0.0
H1385 H 0.94587 0.50602 0.53284 0.0
C1386 C 0.14246 0.99137 0.67901 0.0
C1387 C 0.13775 0.97884 0.69573 0.0
C1388 C 0.13141 0.98848 0.66093 0.0
C1389 C 0.09829 0.95096 0.6313 0.0
H1390 H 0.0878 0.99891 0.60103 0.0
C1391 C 0.08191 0.94837 0.54464 0.0
C1392 C 0.07073 0.96396 0.53664 0.0
C1393 C 0.08596 0.94838 0.56561 0.0
C1394 C 0.0901 0.98528 0.60936 0.0
H1395 H 0.11792 0.95334 0.70665 0.0
H1396 H 0.09809 0.94849 0.67496 0.0
H1397 H 0.10215 1.00274 0.6349 0.0
H1398 H 0.0534 0.99071 0.544 0.0
H1399 H 0.05925 0.99021 0.58076 0.0
H1400 H 0.08572 0.9335 0.60579 0.0
C1401 C 0.11056 0.9604 0.67581 0.0
C1402 C 0.09875 0.98751 0.62872 0.0
C1403 C 0.12183 0.9632 0.69395 0.0
C1404 C 0.06233 0.97873 0.54996 0.0
C1405 C 0.06586 0.97848 0.57094 0.0
C1406 C 0.08932 0.9487 0.61194 0.0
C1407 C 0.11519 0.97311 0.65913 0.0
C1408 C 0.10355 0.97042 0.63969 0.0
C1409 C 0.07848 0.96381 0.57894 0.0
C1410 C 0.08557 0.96586 0.60052 0.0
H1411 H 0.15502 0.00322 0.67977 0.0
H1412 H 0.13587 0.99816 0.64821 0.0
H1413 H 0.10181 0.93745 0.63932 0.0
H1414 H 0.08858 0.93692 0.53449 0.0
H1415 H 0.0959 0.93694 0.57109 0.0
C1416 C 0.87102 0.50144 0.79878 0.0
C1417 C 0.84971 0.5055 0.7962 0.0
C1418 C 0.87866 0.49873 0.8184 0.0
C1419 C 0.86657 0.50789 0.87432 0.0
H1420 H 0.90831 0.46761 0.88003 0.0
C1421 C 0.89792 0.482 0.95317 0.0
C1422 C 0.91963 0.47821 0.95329 0.0
C1423 C 0.88841 0.48687 0.93479 0.0
C1424 C 0.89681 0.47908 0.87873 0.0
H1425 H 0.81969 0.51029 0.81191 0.0
H1426 H 0.83283 0.50519 0.84631 0.0
H1427 H 0.89364 0.47247 0.84666 0.0
H1428 H 0.94863 0.47818 0.93473 0.0
H1429 H 0.93234 0.48682 0.90306 0.0
H1430 H 0.86975 0.51422 0.90667 0.0
C1431 C 0.84379 0.50429 0.83326 0.0
C1432 C 0.8884 0.48191 0.85949 0.0
C1433 C 0.83619 0.50707 0.81359 0.0
C1434 C 0.93181 0.48067 0.93505 0.0
C1435 C 0.92242 0.4855 0.91685 0.0
C1436 C 0.87496 0.50496 0.89368 0.0
C1437 C 0.86515 0.49997 0.83597 0.0
C1438 C 0.87337 0.49655 0.85687 0.0
C1439 C 0.90048 0.48802 0.91625 0.0
C1440 C 0.89046 0.49071 0.89606 0.0
H1441 H 0.88178 0.50045 0.78557 0.0
H1442 H 0.89528 0.49588 0.81978 0.0
H1443 H 0.85515 0.5194 0.87296 0.0
H1444 H 0.88813 0.4801 0.96696 0.0
H1445 H 0.87148 0.48877 0.9349 0.0
C1446 C 0.13958 0.99473 0.83527 0.0
C1447 C 0.1602 0.00291 0.83082 0.0
C1448 C 0.12993 0.99789 0.85472 0.0
C1449 C 0.13177 0.03349 0.89958 0.0
H1450 H 0.10153 0.99022 0.92923 0.0
C1451 C 0.10689 0.04639 0.98384 0.0
C1452 C 0.08721 0.03826 0.99134 0.0
C1453 C 0.11499 0.04059 0.96453 0.0
C1454 C 0.10965 1.00256 0.92108 0.0
H1455 H 0.1868 0.02085 0.84316 0.0
H1456 H 0.16994 0.02666 0.87698 0.0
H1457 H 0.117 0.98317 0.89499 0.0
H1458 H 0.06091 0.01693 0.98453 0.0
H1459 H 0.07489 0.00695 0.95024 0.0
H1460 H 0.12426 0.05302 0.92517 0.0
C1461 C 0.16119 0.01775 0.86551 0.0
C1462 C 0.11858 0.99849 0.90144 0.0
C1463 C 0.1709 0.01438 0.84618 0.0
C1464 C 0.07614 0.02345 0.97922 0.0
C1465 C 0.0842 0.01776 0.95956 0.0
C1466 C 0.12272 0.03759 0.91902 0.0
C1467 C 0.14053 0.00961 0.87007 0.0
C1468 C 0.13007 0.01385 0.89057 0.0
C1469 C 0.10356 0.02665 0.95175 0.0
C1470 C 0.11186 0.02214 0.93032 0.0
H1471 H 0.13089 0.98602 0.82361 0.0
H1472 H 0.11395 0.99157 0.85759 0.0
H1473 H 0.14003 0.04582 0.89151 0.0
H1474 H 0.11607 0.05756 0.99288 0.0
H1475 H 0.13026 0.04728 0.95957 0.0
C1476 C 0.65128 0.88013 0.52995 0.0
C1477 C 0.66489 0.88616 0.51348 0.0
C1478 C 0.63051 0.88662 0.53176 0.0
C1479 C 0.58726 0.90608 0.50188 0.0
H1480 H 0.56455 0.92139 0.55564 0.0
C1481 C 0.50238 0.93724 0.51566 0.0
C1482 C 0.4914 0.93146 0.53383 0.0
C1483 C 0.52359 0.93215 0.51199 0.0
C1484 C 0.57047 0.91692 0.54051 0.0
H1485 H 0.667 0.90427 0.48616 0.0
H1486 H 0.63071 0.91531 0.48922 0.0
H1487 H 0.60121 0.91204 0.55183 0.0
H1488 H 0.49384 0.91482 0.56179 0.0
H1489 H 0.53007 0.90562 0.5552 0.0
H1490 H 0.5563 0.91072 0.49063 0.0
C1491 C 0.63615 0.90538 0.50065 0.0
C1492 C 0.5916 0.91159 0.53833 0.0
C1493 C 0.65702 0.899 0.49891 0.0
C1494 C 0.50183 0.91982 0.54775 0.0
C1495 C 0.52279 0.91465 0.54404 0.0
C1496 C 0.56599 0.91132 0.50408 0.0
C1497 C 0.62259 0.89925 0.5171 0.0
C1498 C 0.60026 0.90586 0.51905 0.0
C1499 C 0.53422 0.9211 0.52637 0.0
C1500 C 0.55719 0.91655 0.5235 0.0
H1501 H 0.65644 0.86991 0.54125 0.0
H1502 H 0.62046 0.88131 0.54446 0.0
H1503 H 0.59334 0.90162 0.4868 0.0
H1504 H 0.49485 0.94625 0.50465 0.0
H1505 H 0.53184 0.93743 0.4982 0.0
C1506 C 0.6864 0.16174 0.99212 0.0
C1507 C 0.70509 0.15199 0.98699 0.0
C1508 C 0.66664 0.15138 0.99009 0.0
C1509 C 0.63951 0.10769 0.96341 0.0
H1510 H 0.59566 0.11599 0.00527 0.0
C1511 C 0.55529 0.06785 0.95893 0.0
C1512 C 0.53848 0.08063 0.96315 0.0
C1513 C 0.57621 0.0745 0.96326 0.0
C1514 C 0.60769 0.11358 0.99339 0.0
H1515 H 0.71813 0.12387 0.97603 0.0
H1516 H 0.68346 0.10558 0.97234 0.0
H1517 H 0.6311 0.13175 0.00972 0.0
H1518 H 0.53044 0.11021 0.9757 0.0
H1519 H 0.56662 0.1217 0.98311 0.0
H1520 H 0.61592 0.08981 0.94691 0.0
C1521 C 0.68402 0.1213 0.97772 0.0
C1522 C 0.628 0.12264 0.99593 0.0
C1523 C 0.70381 0.13169 0.97984 0.0
C1524 C 0.54297 0.09993 0.97227 0.0
C1525 C 0.56376 0.1065 0.97665 0.0
C1526 C 0.61914 0.09863 0.96085 0.0
C1527 C 0.66519 0.13101 0.98292 0.0
C1528 C 0.64406 0.12011 0.98081 0.0
C1529 C 0.58069 0.09398 0.97202 0.0
C1530 C 0.60288 0.10178 0.97565 0.0
H1531 H 0.68711 0.17741 0.99771 0.0
H1532 H 0.65247 0.1594 0.99394 0.0
H1533 H 0.65148 0.10555 0.95141 0.0
H1534 H 0.55237 0.05291 0.95188 0.0
H1535 H 0.58889 0.06443 0.95967 0.0
C1536 C 0.34037 0.41443 0.02078 0.0
C1537 C 0.33374 0.39503 0.0132 0.0
C1538 C 0.362 0.42056 0.02085 0.0
C1539 C 0.41575 0.3996 0.01733 0.0
H1540 H 0.43466 0.45446 1.00307 0.0
C1541 C 0.50052 0.42087 0.98832 0.0
C1542 C 0.5104 0.43972 0.99403 0.0
C1543 C 0.47959 0.41581 0.99448 0.0
C1544 C 0.42963 0.43919 0.00746 0.0
H1545 H 0.34421 0.36705 0.9992 0.0
H1546 H 0.38192 0.37773 0.99887 0.0
H1547 H 0.3967 0.44504 0.00539 0.0
H1548 H 0.50631 0.46791 0.01118 0.0
H1549 H 0.46925 0.45913 0.02195 0.0
H1550 H 0.44867 0.39359 0.01877 0.0
C1551 C 0.37061 0.38811 0.0053 0.0
C1552 C 0.40784 0.43375 0.00875 0.0
C1553 C 0.34901 0.38202 0.00529 0.0
C1554 C 0.49913 0.45318 0.00677 0.0
C1555 C 0.4779 0.44823 0.01272 0.0
C1556 C 0.43748 0.40501 0.01595 0.0
C1557 C 0.37746 0.40742 0.01322 0.0
C1558 C 0.40059 0.41375 0.0133 0.0
C1559 C 0.4678 0.42959 0.00633 0.0
C1560 C 0.44473 0.42475 0.0106 0.0
H1561 H 0.32879 0.42478 0.02679 0.0
H1562 H 0.36661 0.43547 0.02717 0.0
H1563 H 0.41083 0.38421 0.02139 0.0
H1564 H 0.50881 0.41021 0.97844 0.0
H1565 H 0.47233 0.40145 0.98908 0.0
C1566 C 0.8515 0.13478 0.01572 0.0
C1567 C 0.84925 0.1517 0.00354 0.0
C1568 C 0.87133 0.1264 0.01742 0.0
C1569 C 0.92622 0.1267 0.99309 0.0
H1570 H 0.93978 0.10262 0.04421 0.0
C1571 C 0.01123 0.10337 0.01326 0.0
C1572 C 0.01237 0.08449 0.02258 0.0
C1573 C 0.99147 0.11133 0.00978 0.0
C1574 C 0.93619 0.10916 0.02977 0.0
H1575 H 0.86629 0.17335 0.98392 0.0
H1576 H 0.90084 0.15929 0.98733 0.0
H1577 H 0.90543 0.11707 0.04087 0.0
H1578 H 0.99342 0.05905 0.03509 0.0
H1579 H 0.95926 0.073 0.0292 0.0
H1580 H 0.95743 0.11919 0.98233 0.0
C1581 C 0.88725 0.15194 0.9951 0.0
C1582 C 0.91637 0.11739 0.02778 0.0
C1583 C 0.86738 0.16011 0.99319 0.0
C1584 C 0.99325 0.07362 0.02786 0.0
C1585 C 0.9736 0.08168 0.02464 0.0
C1586 C 0.94619 0.1187 0.99521 0.0
C1587 C 0.8896 0.13491 0.00723 0.0
C1588 C 0.91096 0.12621 0.00936 0.0
C1589 C 0.97242 0.10075 0.0158 0.0
C1590 C 0.95137 0.10969 0.01353 0.0
H1591 H 0.83784 0.1278 0.02374 0.0
H1592 H 0.87222 0.11308 0.02657 0.0
H1593 H 0.92269 0.13297 0.97852 0.0
H1594 H 0.02559 0.11221 0.00907 0.0
H1595 H 0.99112 0.1261 1.00299 0.0
C1596 C 0.01278 0.17054 0.24351 0.0
C1597 C 0.01662 0.1917 0.24285 0.0
C1598 C 0.01548 0.15826 0.22583 0.0
C1599 C 0.0207 0.16037 0.16883 0.0
H1600 H 0.04475 0.10784 0.17333 0.0
C1601 C 0.05365 0.11602 0.09855 0.0
C1602 C 0.04949 0.09483 0.09705 0.0
C1603 C 0.04821 0.12705 0.11637 0.0
C1604 C 0.03775 0.12234 0.17183 0.0
H1605 H 0.0269 0.21661 0.22354 0.0
H1606 H 0.03202 0.19522 0.19261 0.0
H1607 H 0.03842 0.12876 0.20419 0.0
H1608 H 0.03625 0.06867 0.11329 0.0
H1609 H 0.02682 0.08805 0.14469 0.0
H1610 H 0.02046 0.1541 0.13642 0.0
C1611 C 0.02632 0.18807 0.20659 0.0
C1612 C 0.0341 0.13438 0.18955 0.0
C1613 C 0.0235 0.20036 0.22429 0.0
C1614 C 0.03967 0.08496 0.11392 0.0
C1615 C 0.03436 0.09605 0.13193 0.0
C1616 C 0.02446 0.14839 0.15113 0.0
C1617 C 0.02237 0.16682 0.20711 0.0
C1618 C 0.02568 0.15366 0.18829 0.0
C1619 C 0.03854 0.11726 0.13332 0.0
C1620 C 0.03323 0.12931 0.15237 0.0
H1621 H 0.00779 0.1635 0.25778 0.0
H1622 H 0.01206 0.14205 0.22686 0.0
H1623 H 0.01377 0.17489 0.16721 0.0
H1624 H 0.06119 0.1242 0.0859 0.0
H1625 H 0.05194 0.14328 0.11697 0.0
C1626 C 0.0196 0.30635 0.23599 0.0
C1627 C 0.0047 0.30324 0.2522 0.0
C1628 C 0.01727 0.32168 0.22201 0.0
C1629 C 0.98853 0.36855 0.2143 0.0
H1630 H 1.00024 0.35616 0.15673 0.0
C1631 C 0.97866 0.42777 0.1526 0.0
C1632 C 0.96955 0.4207 0.13416 0.0
C1633 C 0.98512 0.41409 0.1668 0.0
C1634 C 0.99676 0.35983 0.17272 0.0
H1635 H 0.97607 0.31435 0.26682 0.0
H1636 H 0.97157 0.34049 0.2421 0.0
H1637 H 0.007 0.33128 0.1822 0.0
H1638 H 0.96011 0.39378 0.11611 0.0
H1639 H 0.97092 0.36986 0.14102 0.0
H1640 H 0.97732 0.39667 0.20477 0.0
C1641 C 0.98526 0.33132 0.2403 0.0
C1642 C 1.00093 0.34566 0.18739 0.0
C1643 C 0.98767 0.3161 0.25434 0.0
C1644 C 0.96732 0.39967 0.13007 0.0
C1645 C 0.97358 0.38597 0.14435 0.0
C1646 C 0.98421 0.38264 0.19963 0.0
C1647 C 0.99992 0.3342 0.22385 0.0
C1648 C 0.99668 0.34976 0.20835 0.0
C1649 C 0.98242 0.393 0.16298 0.0
C1650 C 0.98808 0.3784 0.17863 0.0
H1651 H 0.03281 0.29663 0.23377 0.0
H1652 H 0.02903 0.32364 0.2097 0.0
H1653 H 0.98535 0.37236 0.23032 0.0
H1654 H 0.98087 0.44391 0.15599 0.0
H1655 H 0.99225 0.42007 0.18077 0.0
C1656 C 0.05301 0.79067 0.22376 0.0
C1657 C 0.04227 0.77236 0.22917 0.0
C1658 C 0.05827 0.80539 0.23884 0.0
C1659 C 0.06026 0.81422 0.29558 0.0
H1660 H 0.04901 0.86933 0.28182 0.0
C1661 C 0.05848 0.87811 0.35756 0.0
C1662 C 0.04123 0.89067 0.35666 0.0
C1663 C 0.06361 0.86521 0.34098 0.0
C1664 C 0.05219 0.85402 0.28593 0.0
H1665 H 0.02925 0.75445 0.25421 0.0
H1666 H 0.03742 0.78048 0.2806 0.0
H1667 H 0.0485 0.84288 0.25516 0.0
H1668 H 0.01663 0.90023 0.33711 0.0
H1669 H 0.02485 0.87721 0.30879 0.0
H1670 H 0.06226 0.82509 0.32666 0.0
C1671 C 0.04236 0.78343 0.26489 0.0
C1672 C 0.05223 0.83886 0.27056 0.0
C1673 C 0.03743 0.76861 0.24983 0.0
C1674 C 0.02973 0.89051 0.33856 0.0
C1675 C 0.03472 0.87752 0.3221 0.0
C1676 C 0.05991 0.82933 0.31101 0.0
C1677 C 0.05258 0.80213 0.25955 0.0
C1678 C 0.05566 0.81866 0.2753 0.0
C1679 C 0.05153 0.86451 0.3232 0.0
C1680 C 0.05524 0.84928 0.30645 0.0
H1681 H 0.05702 0.79367 0.20783 0.0
H1682 H 0.06649 0.81943 0.23422 0.0
H1683 H 0.06344 0.79891 0.29969 0.0
H1684 H 0.06767 0.87773 0.37125 0.0
H1685 H 0.07684 0.85557 0.34223 0.0
C1686 C 0.02398 0.63906 0.2343 0.0
C1687 C 0.01114 0.65589 0.23381 0.0
C1688 C 0.02153 0.62518 0.25025 0.0
C1689 C 0.98204 0.60646 0.28906 0.0
H1690 H 0.02975 0.59069 0.31995 0.0
C1691 C 0.9714 0.5808 0.37124 0.0
C1692 C 0.98291 0.56497 0.37856 0.0
C1693 C 0.97541 0.58821 0.35168 0.0
C1694 C 0.0163 0.59459 0.31122 0.0
H1695 H 0.98627 0.67154 0.25052 0.0
H1696 H 0.9817 0.64724 0.27768 0.0
H1697 H 0.03605 0.61105 0.28924 0.0
H1698 H 0.00763 0.54431 0.37074 0.0
H1699 H 0.01488 0.55756 0.33607 0.0
H1700 H 0.96224 0.5905 0.31106 0.0
C1701 C 0.99345 0.64459 0.26558 0.0
C1702 C 0.0199 0.60631 0.29367 0.0
C1703 C 0.99603 0.65851 0.24987 0.0
C1704 C 0.99844 0.55645 0.36552 0.0
C1705 C 1.00266 0.56413 0.34577 0.0
C1706 C 0.97846 0.59473 0.30642 0.0
C1707 C 0.00604 0.62767 0.26594 0.0
C1708 C 1.00274 0.61293 0.2828 0.0
C1709 C 0.99113 0.58013 0.33866 0.0
C1710 C 0.99547 0.58923 0.31816 0.0
H1711 H 0.03569 0.63639 0.2222 0.0
H1712 H 0.03145 0.61227 0.25008 0.0
H1713 H 0.96849 0.6109 0.28077 0.0
H1714 H 0.95926 0.58774 0.38076 0.0
H1715 H 0.96645 0.60075 0.34696 0.0
C1716 C 0.25164 0.0366 0.17287 0.0
C1717 C 0.24739 0.02519 0.19048 0.0
C1718 C 0.23586 0.0388 0.15862 0.0
C1719 C 0.17717 0.03243 0.15225 0.0
H1720 H 0.19294 0.03752 0.09464 0.0
C1721 C 0.11487 0.03233 0.08891 0.0
C1722 C 0.11746 0.04814 0.07489 0.0
C1723 C 0.13099 0.02859 0.10235 0.0
C1724 C 0.18831 0.03622 0.11069 0.0
H1725 H 0.2237 0.00638 0.20665 0.0
H1726 H 0.19618 0.00954 0.18145 0.0
H1727 H 0.2202 0.03238 0.11937 0.0
H1728 H 0.13941 0.07195 0.06357 0.0
H1729 H 0.16775 0.06511 0.08679 0.0
H1730 H 0.14516 0.03584 0.14334 0.0
C1731 C 0.21144 0.0175 0.17892 0.0
C1732 C 0.20395 0.03337 0.12495 0.0
C1733 C 0.22721 0.01555 0.19334 0.0
C1734 C 0.13689 0.05965 0.07415 0.0
C1735 C 0.15314 0.05571 0.08743 0.0
C1736 C 0.1615 0.035 0.13794 0.0
C1737 C 0.2155 0.02923 0.16136 0.0
C1738 C 0.19867 0.0316 0.146 0.0
C1739 C 0.15023 0.04037 0.10193 0.0
C1740 C 0.16689 0.03706 0.11701 0.0
H1741 H 0.26723 0.0439 0.17015 0.0
H1742 H 0.23964 0.04821 0.14556 0.0
H1743 H 0.1724 0.03152 0.16829 0.0
H1744 H 0.10012 0.02317 0.08995 0.0
H1745 H 0.12835 0.01651 0.11319 0.0
C1746 C 0.7633 0.46406 0.18551 0.0
C1747 C 0.76256 0.4821 0.19762 0.0
C1748 C 0.77704 0.46279 0.16823 0.0
C1749 C 0.82547 0.48869 0.14396 0.0
H1750 H 0.80981 0.45465 0.09671 0.0
C1751 C 0.88049 0.48534 0.07166 0.0
C1752 C 0.88482 0.46567 0.06446 0.0
C1753 C 0.86348 0.48845 0.08557 0.0
C1754 C 0.81445 0.46421 0.10979 0.0
H1755 H 0.77617 0.51298 0.20065 0.0
H1756 H 0.79924 0.51104 0.17029 0.0
H1757 H 0.78476 0.45787 0.12574 0.0
H1758 H 0.87458 0.4339 0.06582 0.0
H1759 H 0.84446 0.43929 0.08949 0.0
H1760 H 0.8551 0.49506 0.12793 0.0
C1761 C 0.78952 0.49765 0.17434 0.0
C1762 C 0.80011 0.46597 0.12657 0.0
C1763 C 0.77593 0.49887 0.19171 0.0
C1764 C 0.87114 0.4493 0.07057 0.0
C1765 C 0.85399 0.4524 0.0843 0.0
C1766 C 0.83968 0.48707 0.12711 0.0
C1767 C 0.79042 0.47956 0.16234 0.0
C1768 C 0.80544 0.47812 0.14404 0.0
C1769 C 0.85041 0.47193 0.09261 0.0
C1770 C 0.83447 0.4747 0.10984 0.0
H1771 H 0.75313 0.45086 0.18924 0.0
H1772 H 0.77734 0.44847 0.15968 0.0
H1773 H 0.8305 0.49786 0.15715 0.0
H1774 H 0.8912 0.49813 0.06773 0.0
H1775 H 0.8611 0.50371 0.09148 0.0
C1776 C 0.22649 0.98405 0.30051 0.0
C1777 C 0.24296 0.99885 0.30407 0.0
C1778 C 0.21146 0.97912 0.31595 0.0
C1779 C 0.18659 0.9982 0.36397 0.0
H1780 H 0.16867 0.9414 0.36962 0.0
C1781 C 0.12088 0.96953 0.42303 0.0
C1782 C 0.10562 0.95566 0.4145 0.0
C1783 C 0.13959 0.97504 0.41185 0.0
C1784 C 0.17346 0.95734 0.36822 0.0
H1785 H 0.25635 0.0202 0.32677 0.0
H1786 H 0.22985 0.0117 0.35375 0.0
H1787 H 0.19752 0.95082 0.34557 0.0
H1788 H 0.09823 0.93651 0.3877 0.0
H1789 H 0.13046 0.94601 0.3685 0.0
H1790 H 0.16207 0.00466 0.38638 0.0
C1791 C 0.22863 0.00397 0.3389 0.0
C1792 C 0.18997 0.96274 0.35441 0.0
C1793 C 0.24377 0.00886 0.32343 0.0
C1794 C 0.10959 0.94725 0.39478 0.0
C1795 C 0.1282 0.95258 0.38378 0.0
C1796 C 0.16999 0.99277 0.37784 0.0
C1797 C 0.21241 0.9889 0.33538 0.0
C1798 C 0.19638 0.98326 0.35171 0.0
C1799 C 0.14344 0.96654 0.3921 0.0
C1800 C 0.16288 0.9723 0.3797 0.0
H1801 H 0.22504 0.97636 0.28567 0.0
H1802 H 0.1989 0.96778 0.31256 0.0
H1803 H 0.19112 0.01415 0.3622 0.0
H1804 H 0.11826 0.9763 0.43816 0.0
H1805 H 0.15108 0.98581 0.41867 0.0
C1806 C 0.78405 0.48936 0.3169 0.0
C1807 C 0.76438 0.49735 0.32206 0.0
C1808 C 0.80099 0.49239 0.33014 0.0
C1809 C 0.82262 0.528 0.36823 0.0
H1810 H 0.85554 0.48364 0.38486 0.0
C1811 C 0.89296 0.54306 0.42149 0.0
C1812 C 0.91108 0.53206 0.41723 0.0
C1813 C 0.87387 0.5375 0.41202 0.0
C1814 C 0.8467 0.49626 0.38018 0.0
H1815 H 0.74671 0.51457 0.34488 0.0
H1816 H 0.77665 0.52048 0.36785 0.0
H1817 H 0.82471 0.47652 0.36357 0.0
H1818 H 0.92339 0.50639 0.40005 0.0
H1819 H 0.89044 0.49717 0.38288 0.0
H1820 H 0.84496 0.54792 0.38382 0.0
C1821 C 0.77887 0.51173 0.35369 0.0
C1822 C 0.82899 0.49212 0.36808 0.0
C1823 C 0.76183 0.50837 0.34063 0.0
C1824 C 0.90962 0.51507 0.40374 0.0
C1825 C 0.89064 0.50973 0.39397 0.0
C1826 C 0.84052 0.53219 0.38001 0.0
C1827 C 0.7986 0.50378 0.34854 0.0
C1828 C 0.81687 0.50797 0.36196 0.0
C1829 C 0.87258 0.52106 0.39775 0.0
C1830 C 0.85288 0.51639 0.38609 0.0
H1831 H 0.7863 0.48089 0.30258 0.0
H1832 H 0.81612 0.48628 0.32577 0.0
H1833 H 0.81363 0.54051 0.36349 0.0
H1834 H 0.89358 0.55611 0.432 0.0
H1835 H 0.8602 0.54628 0.41574 0.0
C1836 C 0.21487 0.27957 1.0023 0.0
C1837 C 0.20951 0.29922 0.00836 0.0
C1838 C 0.19951 0.26352 1.00275 0.0
C1839 C 0.14786 0.248 0.02723 0.0
H1840 H 0.14964 0.20449 0.98603 0.0
C1841 C 0.11131 0.1669 0.03955 0.0
C1842 C 0.10525 0.15506 0.02231 0.0
C1843 C 0.11957 0.18687 0.03727 0.0
C1844 C 0.14854 0.21664 0.9975 0.0
H1845 H 0.18422 0.31793 0.01935 0.0
H1846 H 0.15704 0.28988 0.01985 0.0
H1847 H 0.173 0.23464 0.98222 0.0
H1848 H 0.10142 0.15478 0.98956 0.0
H1849 H 0.11473 0.19 0.9855 0.0
H1850 H 0.12326 0.22994 0.04245 0.0
C1851 C 0.17312 0.28674 0.015 0.0
C1852 C 0.16225 0.23383 0.99546 0.0
C1853 C 0.18855 0.30278 0.01458 0.0
C1854 C 0.10591 0.16384 1.00302 0.0
C1855 C 0.11381 0.18386 1.00073 0.0
C1856 C 0.13403 0.2308 0.02923 0.0
C1857 C 0.17846 0.26687 0.00924 0.0
C1858 C 0.16242 0.24953 0.01051 0.0
C1859 C 0.12173 0.1953 0.01767 0.0
C1860 C 0.13446 0.21472 0.01456 0.0
H1861 H 0.23105 0.2766 0.99763 0.0
H1862 H 0.20428 0.24839 0.99855 0.0
H1863 H 0.14765 0.25976 0.03918 0.0
H1864 H 0.11124 0.16015 0.05448 0.0
H1865 H 0.12564 0.1951 0.05065 0.0
C1866 C 0.17983 0.77003 0.50418 0.0
C1867 C 0.18357 0.75486 0.48903 0.0
C1868 C 0.16639 0.78575 0.5006 0.0
C1869 C 0.12339 0.80054 0.46686 0.0
H1870 H 0.13976 0.85506 0.4865 0.0
C1871 C 0.07972 0.87156 0.44327 0.0
C1872 C 0.07755 0.88758 0.45783 0.0
C1873 C 0.09182 0.85496 0.44736 0.0
C1874 C 0.13471 0.83991 0.48113 0.0
H1875 H 0.17551 0.74433 0.45828 0.0
H1876 H 0.15236 0.7718 0.45196 0.0
H1877 H 0.16219 0.8272 0.49302 0.0
H1878 H 0.08613 0.89827 0.4884 0.0
H1879 H 0.10679 0.86929 0.49565 0.0
H1880 H 0.0959 0.81328 0.45495 0.0
C1881 C 0.15973 0.77148 0.46671 0.0
C1882 C 0.14766 0.82386 0.48488 0.0
C1883 C 0.17324 0.75579 0.47027 0.0
C1884 C 0.08746 0.88629 0.47676 0.0
C1885 C 0.09951 0.86969 0.48086 0.0
C1886 C 0.1104 0.81661 0.46314 0.0
C1887 C 0.1562 0.7868 0.48177 0.0
C1888 C 0.14222 0.80391 0.47781 0.0
C1889 C 0.10211 0.85386 0.46614 0.0
C1890 C 0.11585 0.83657 0.47023 0.0
H1891 H 0.18763 0.77004 0.51873 0.0
H1892 H 0.16392 0.79707 0.51269 0.0
H1893 H 0.11847 0.78539 0.4614 0.0
H1894 H 0.07245 0.87205 0.42848 0.0
H1895 H 0.09357 0.84326 0.43552 0.0
C1896 C 0.82758 0.76799 0.47732 0.0
C1897 C 0.81228 0.76798 0.49344 0.0
C1898 C 0.84064 0.75167 0.47408 0.0
C1899 C 0.84457 0.69709 0.4846 0.0
H1900 H 0.90311 0.70795 0.46677 0.0
C1901 C 0.90622 0.63418 0.46986 0.0
C1902 C 0.91976 0.63686 0.45251 0.0
C1903 C 0.89237 0.64932 0.47619 0.0
C1904 C 0.88675 0.70461 0.47159 0.0
H1905 H 0.79889 0.75067 0.5189 0.0
H1906 H 0.82198 0.72224 0.51343 0.0
H1907 H 0.88104 0.73616 0.47583 0.0
H1908 H 0.92814 0.65686 0.42741 0.0
H1909 H 0.90426 0.68297 0.43833 0.0
H1910 H 0.85046 0.66542 0.48021 0.0
C1911 C 0.82369 0.73486 0.50315 0.0
C1912 C 0.87407 0.72082 0.47678 0.0
C1913 C 0.81061 0.75127 0.50644 0.0
C1914 C 0.9184 0.65452 0.44116 0.0
C1915 C 0.90469 0.66954 0.44745 0.0
C1916 C 0.85735 0.68079 0.47943 0.0
C1917 C 0.83885 0.73482 0.48688 0.0
C1918 C 0.85269 0.71734 0.48298 0.0
C1919 C 0.89183 0.66741 0.46529 0.0
C1920 C 0.87848 0.6844 0.47246 0.0
H1921 H 0.82949 0.78067 0.46713 0.0
H1922 H 0.85193 0.75212 0.46124 0.0
H1923 H 0.82814 0.69382 0.4892 0.0
H1924 H 0.90692 0.62077 0.47894 0.0
H1925 H 0.88264 0.64719 0.48999 0.0
C1926 C 0.30921 0.75477 0.5352 0.0
C1927 C 0.29195 0.75678 0.52244 0.0
C1928 C 0.32327 0.77134 0.53932 0.0
C1929 C 0.34713 0.81573 0.51645 0.0
H1930 H 0.35757 0.83747 0.57137 0.0
C1931 C 0.39187 0.89231 0.52913 0.0
C1932 C 0.4046 0.89583 0.5463 0.0
C1933 C 0.37942 0.87438 0.52686 0.0
C1934 C 0.35519 0.83134 0.55597 0.0
H1935 H 0.27602 0.77724 0.50355 0.0
H1936 H 0.30121 0.80632 0.51021 0.0
H1937 H 0.33262 0.80811 0.56647 0.0
H1938 H 0.41457 0.8831 0.57446 0.0
H1939 H 0.39325 0.85114 0.57013 0.0
H1940 H 0.37004 0.83823 0.50579 0.0
C1941 C 0.30344 0.79202 0.51739 0.0
C1942 C 0.34078 0.81468 0.5532 0.0
C1943 C 0.28908 0.77553 0.51364 0.0
C1944 C 0.40488 0.88079 0.56107 0.0
C1945 C 0.39256 0.86257 0.55864 0.0
C1946 C 0.36183 0.83206 0.51921 0.0
C1947 C 0.32063 0.79 0.53023 0.0
C1948 C 0.33636 0.80706 0.53339 0.0
C1949 C 0.37959 0.85922 0.54151 0.0
C1950 C 0.3657 0.84041 0.53896 0.0
H1951 H 0.31198 0.74025 0.54172 0.0
H1952 H 0.33658 0.76944 0.54905 0.0
H1953 H 0.34423 0.80978 0.50106 0.0
H1954 H 0.39105 0.90366 0.51755 0.0
H1955 H 0.36925 0.87269 0.51378 0.0
C1956 C 0.5135 0.66939 0.76649 0.0
C1957 C 0.51847 0.69027 0.76442 0.0
C1958 C 0.51418 0.65606 0.74934 0.0
C1959 C 0.51473 0.65527 0.69209 0.0
H1960 H 0.53707 0.60203 0.69689 0.0
C1961 C 0.54034 0.60732 0.62129 0.0
C1962 C 0.53538 0.58624 0.62084 0.0
C1963 C 0.5368 0.61914 0.63909 0.0
C1964 C 0.53053 0.61674 0.69534 0.0
H1965 H 0.52828 0.7136 0.74305 0.0
H1966 H 0.52985 0.69042 0.71312 0.0
H1967 H 0.53388 0.62435 0.7273 0.0
H1968 H 0.52278 0.56109 0.63897 0.0
H1969 H 0.51667 0.58184 0.67026 0.0
H1970 H 0.51176 0.64783 0.66009 0.0
C1971 C 0.52495 0.68427 0.72783 0.0
C1972 C 0.52868 0.62957 0.7128 0.0
C1973 C 0.5242 0.69757 0.74495 0.0
C1974 C 0.52677 0.57728 0.63876 0.0
C1975 C 0.52337 0.58915 0.65672 0.0
C1976 C 0.51667 0.64251 0.67467 0.0
C1977 C 0.51994 0.6633 0.72974 0.0
C1978 C 0.52098 0.64914 0.71138 0.0
C1979 C 0.52828 0.61027 0.65706 0.0
C1980 C 0.52485 0.62317 0.67598 0.0
H1981 H 0.50917 0.66342 0.78142 0.0
H1982 H 0.51001 0.64009 0.75144 0.0
H1983 H 0.50827 0.67 0.69041 0.0
H1984 H 0.54702 0.61481 0.60784 0.0
H1985 H 0.54108 0.63527 0.63883 0.0
C1986 C 0.52113 0.80814 0.73894 0.0
C1987 C 0.50808 0.80692 0.75676 0.0
C1988 C 0.51772 0.82247 0.72416 0.0
C1989 C 0.49071 0.87024 0.71652 0.0
H1990 H 0.49375 0.85353 0.65905 0.0
C1991 C 0.47671 0.92624 0.65292 0.0
C1992 C 0.4645 0.91883 0.63638 0.0
C1993 C 0.4841 0.91293 0.667 0.0
C1994 C 0.49271 0.85841 0.67503 0.0
H1995 H 0.48173 0.82029 0.77335 0.0
H1996 H 0.47542 0.84476 0.74742 0.0
H1997 H 0.50255 0.82988 0.6851 0.0
H1998 H 0.45055 0.89165 0.62158 0.0
H1999 H 0.46308 0.8684 0.64635 0.0
H2000 H 0.48002 0.89841 0.7066 0.0
C2001 C 0.48843 0.83485 0.74489 0.0
C2002 C 0.49804 0.84493 0.68996 0.0
C2003 C 0.49187 0.82061 0.75965 0.0
C2004 C 0.46011 0.89778 0.63404 0.0
C2005 C 0.46736 0.88446 0.64822 0.0
C2006 C 0.48529 0.88365 0.70162 0.0
C2007 C 0.50122 0.83589 0.72689 0.0
C2008 C 0.49689 0.85061 0.7109 0.0
C2009 C 0.4793 0.89189 0.66498 0.0
C2010 C 0.48605 0.87786 0.6807 0.0
H2011 H 0.53367 0.79773 0.73618 0.0
H2012 H 0.52802 0.82302 0.71058 0.0
H2013 H 0.48993 0.87523 0.73248 0.0
H2014 H 0.48068 0.94234 0.6549 0.0
H2015 H 0.49361 0.91916 0.67947 0.0
C2016 C 0.52397 0.32347 0.74957 0.0
C2017 C 0.53914 0.30865 0.74731 0.0
C2018 C 0.52834 0.34143 0.76087 0.0
C2019 C 0.56407 0.36165 0.80142 0.0
H2020 H 0.53305 0.41007 0.79457 0.0
C2021 C 0.56371 0.42267 0.86424 0.0
C2022 C 0.54305 0.42268 0.87287 0.0
C2023 C 0.56708 0.41508 0.84427 0.0
C2024 C 0.54211 0.39678 0.7964 0.0
H2025 H 0.57128 0.30172 0.75471 0.0
H2026 H 0.57938 0.33351 0.77295 0.0
H2027 H 0.53273 0.38355 0.76755 0.0
H2028 H 0.50969 0.41707 0.86697 0.0
H2029 H 0.51551 0.40403 0.83188 0.0
H2030 H 0.57321 0.37481 0.83034 0.0
C2031 C 0.56374 0.33094 0.76671 0.0
C2032 C 0.54173 0.38146 0.78111 0.0
C2033 C 0.55916 0.31273 0.75589 0.0
C2034 C 0.52574 0.41699 0.8606 0.0
C2035 C 0.52907 0.40974 0.84053 0.0
C2036 C 0.56484 0.37713 0.81641 0.0
C2037 C 0.54821 0.34532 0.76981 0.0
C2038 C 0.55193 0.36329 0.78386 0.0
C2039 C 0.54981 0.40778 0.8326 0.0
C2040 C 0.55319 0.39443 0.81441 0.0
H2041 H 0.50857 0.32121 0.74273 0.0
H2042 H 0.5158 0.3519 0.7631 0.0
H2043 H 0.57187 0.34786 0.8044 0.0
H2044 H 0.57731 0.42692 0.87347 0.0
H2045 H 0.5832 0.41365 0.83843 0.0
C2046 C 0.51954 0.18935 0.76569 0.0
C2047 C 0.51644 0.18202 0.74556 0.0
C2048 C 0.51805 0.17605 0.78208 0.0
C2049 C 0.51765 0.12126 0.7956 0.0
H2050 H 0.49114 0.14153 0.84593 0.0
C2051 C 0.49484 0.07326 0.86934 0.0
C2052 C 0.49921 0.08362 0.88804 0.0
C2053 C 0.49809 0.08333 0.85061 0.0
C2054 C 0.49871 0.13563 0.83204 0.0
H2055 H 0.50958 0.15518 0.72656 0.0
H2056 H 0.50677 0.13178 0.75523 0.0
H2057 H 0.4943 0.16292 0.81623 0.0
H2058 H 0.51198 0.11197 0.9016 0.0
H2059 H 0.51776 0.12914 0.86942 0.0
H2060 H 0.5218 0.09377 0.81173 0.0
C2061 C 0.51064 0.14774 0.75843 0.0
C2062 C 0.50063 0.14798 0.81497 0.0
C2063 C 0.51216 0.1611 0.74201 0.0
C2064 C 0.50818 0.10361 0.8875 0.0
C2065 C 0.51138 0.11354 0.86903 0.0
C2066 C 0.51562 0.10879 0.81277 0.0
C2067 C 0.51327 0.15507 0.77877 0.0
C2068 C 0.51047 0.14119 0.79658 0.0
C2069 C 0.50568 0.10387 0.85038 0.0
C2070 C 0.50648 0.11601 0.83134 0.0
H2071 H 0.52285 0.20544 0.76875 0.0
H2072 H 0.52062 0.18228 0.79741 0.0
H2073 H 0.52538 0.11548 0.78174 0.0
H2074 H 0.48777 0.05791 0.86928 0.0
H2075 H 0.49362 0.07543 0.83646 0.0
C2076 C 0.72435 0.51475 0.70185 0.0
C2077 C 0.74443 0.52329 0.6961 0.0
C2078 C 0.707 0.51625 0.68915 0.0
C2079 C 0.68709 0.54698 0.64843 0.0
H2080 H 0.65045 0.49944 0.63582 0.0
C2081 C 0.62036 0.55028 0.5899 0.0
C2082 C 0.60116 0.53912 0.59398 0.0
C2083 C 0.6383 0.54754 0.60147 0.0
C2084 C 0.66028 0.51298 0.63937 0.0
H2085 H 0.76236 0.53941 0.67229 0.0
H2086 H 0.73198 0.54263 0.6504 0.0
H2087 H 0.68013 0.49662 0.65846 0.0
H2088 H 0.58592 0.51611 0.61333 0.0
H2089 H 0.61677 0.51179 0.63379 0.0
H2090 H 0.66706 0.56355 0.62995 0.0
C2091 C 0.72954 0.53495 0.66479 0.0
C2092 C 0.67737 0.51131 0.65234 0.0
C2093 C 0.74691 0.53316 0.67732 0.0
C2094 C 0.60048 0.52486 0.60963 0.0
C2095 C 0.6183 0.52231 0.62136 0.0
C2096 C 0.66985 0.54873 0.6357 0.0
C2097 C 0.70938 0.52649 0.67051 0.0
C2098 C 0.691 0.52828 0.65699 0.0
C2099 C 0.63745 0.53376 0.61763 0.0
C2100 C 0.65617 0.53175 0.63092 0.0
H2101 H 0.72215 0.50682 0.71613 0.0
H2102 H 0.69166 0.50962 0.694 0.0
H2103 H 0.69718 0.56039 0.6519 0.0
H2104 H 0.62147 0.56133 0.57791 0.0
H2105 H 0.65281 0.55634 0.59776 0.0
C2106 C 0.27344 0.9991 0.70365 0.0
C2107 C 0.25319 0.98916 0.7038 0.0
C2108 C 0.28714 0.99762 0.68638 0.0
C2109 C 0.29763 0.96608 0.63912 0.0
H2110 H 0.33285 0.01336 0.62336 0.0
C2111 C 0.35798 0.96283 0.56955 0.0
C2112 C 0.37819 0.97184 0.57351 0.0
C2113 C 0.34064 0.96637 0.58312 0.0
C2114 C 0.32324 0.99993 0.62756 0.0
H2115 H 0.23142 0.9698 0.68604 0.0
H2116 H 0.25531 0.96709 0.65582 0.0
H2117 H 0.30735 0.01611 0.65194 0.0
H2118 H 0.39589 0.99211 0.59424 0.0
H2119 H 0.36604 0.99855 0.61741 0.0
H2120 H 0.31388 0.9498 0.61494 0.0
C2121 C 0.26073 0.97597 0.66908 0.0
C2122 C 0.3086 1.00151 0.64406 0.0
C2123 C 0.24698 0.97756 0.68634 0.0
C2124 C 0.38042 0.98523 0.59059 0.0
C2125 C 0.36322 0.9889 0.60393 0.0
C2126 C 0.31236 0.96448 0.62261 0.0
C2127 C 0.28101 0.98606 0.66878 0.0
C2128 C 0.29579 0.98454 0.65034 0.0
C2129 C 0.34316 0.97912 0.6008 0.0
C2130 C 0.32567 0.9813 0.61678 0.0
H2131 H 0.27866 0.00804 0.71695 0.0
H2132 H 0.30271 0.00534 0.68695 0.0
H2133 H 0.28821 0.95261 0.64353 0.0
H2134 H 0.35588 0.95209 0.55679 0.0
H2135 H 0.32541 0.9587 0.58006 0.0
C2136 C 0.75061 0.49045 0.82421 0.0
C2137 C 0.74939 0.50676 0.81096 0.0
C2138 C 0.73599 0.48785 0.84058 0.0
C2139 C 0.68158 0.49983 0.85574 0.0
H2140 H 0.69598 0.48017 0.90875 0.0
C2141 C 0.63588 0.48021 0.93779 0.0
C2142 C 0.61846 0.46849 0.93006 0.0
C2143 C 0.65306 0.48613 0.92474 0.0
C2144 C 0.69177 0.48585 0.8941 0.0
H2145 H 0.7321 0.53337 0.80485 0.0
H2146 H 0.70678 0.52896 0.83353 0.0
H2147 H 0.72427 0.48902 0.88349 0.0
H2148 H 0.60579 0.45329 0.90267 0.0
H2149 H 0.63545 0.46357 0.88022 0.0
H2150 H 0.64917 0.49649 0.86614 0.0
C2151 C 0.71894 0.51808 0.83115 0.0
C2152 C 0.70792 0.49074 0.87958 0.0
C2153 C 0.73358 0.52072 0.81482 0.0
C2154 C 0.61881 0.46246 0.90918 0.0
C2155 C 0.63579 0.46844 0.89623 0.0
C2156 C 0.66551 0.49484 0.87015 0.0
C2157 C 0.71977 0.50145 0.84404 0.0
C2158 C 0.70296 0.49757 0.86014 0.0
C2159 C 0.65297 0.48057 0.90374 0.0
C2160 C 0.67037 0.48749 0.88935 0.0
H2161 H 0.76278 0.47959 0.82182 0.0
H2162 H 0.73697 0.47479 0.85012 0.0
H2163 H 0.67716 0.50484 0.84088 0.0
H2164 H 0.63609 0.48508 0.9538 0.0
H2165 H 0.66613 0.49549 0.93093 0.0
C2166 C 0.27738 0.03348 0.83743 0.0
C2167 C 0.27649 0.01489 0.82622 0.0
C2168 C 0.29411 0.03846 0.8505 0.0
C2169 C 0.34914 0.02531 0.85919 0.0
H2170 H 0.34134 0.05476 0.91105 0.0
C2171 C 0.41565 0.03557 0.91636 0.0
C2172 C 0.42058 0.05557 0.92347 0.0
C2173 C 0.39693 0.0308 0.90611 0.0
C2174 C 0.3437 0.04665 0.89653 0.0
H2175 H 0.29232 0.9868 0.82033 0.0
H2176 H 0.32096 0.99511 0.8437 0.0
H2177 H 0.31059 0.04552 0.89006 0.0
H2178 H 0.40923 0.08603 0.92631 0.0
H2179 H 0.37622 0.07755 0.90833 0.0
H2180 H 0.38213 0.02618 0.86576 0.0
C2181 C 0.309 0.00607 0.84203 0.0
C2182 C 0.32615 0.0414 0.8845 0.0
C2183 C 0.29239 1.00117 0.82883 0.0
C2184 C 0.40589 0.07051 0.92094 0.0
C2185 C 0.38701 0.06567 0.91073 0.0
C2186 C 0.36656 0.03038 0.87126 0.0
C2187 C 0.31024 0.0249 0.85278 0.0
C2188 C 0.32869 0.03058 0.86572 0.0
C2189 C 0.38266 0.04587 0.90281 0.0
C2190 C 0.364 0.04099 0.89008 0.0
H2191 H 0.26519 0.04426 0.83606 0.0
H2192 H 0.29464 0.05314 0.85844 0.0
H2193 H 0.35177 0.01746 0.84458 0.0
H2194 H 0.42651 0.02363 0.91822 0.0
H2195 H 0.39377 0.01535 0.90043 0.0
C2196 C 0.6704 0.78645 0.51716 0.0
C2197 C 0.6907 0.78206 0.50951 0.0
C2198 C 0.65483 0.77079 0.52001 0.0
C2199 C 0.64118 0.71726 0.50451 0.0
H2200 H 0.60619 0.71685 0.55443 0.0
C2201 C 0.58253 0.65029 0.51877 0.0
C2202 C 0.58321 0.64198 0.53823 0.0
C2203 C 0.59111 0.66988 0.51532 0.0
C2204 C 0.61583 0.71675 0.54041 0.0
H2205 H 0.7109 0.75832 0.49875 0.0
H2206 H 0.68384 0.7308 0.50381 0.0
H2207 H 0.6312 0.7457 0.54789 0.0
H2208 H 0.59219 0.64766 0.56963 0.0
H2209 H 0.60778 0.6819 0.56369 0.0
H2210 H 0.62676 0.68801 0.4974 0.0
C2211 C 0.67971 0.74627 0.50735 0.0
C2212 C 0.63001 0.73337 0.53656 0.0
C2213 C 0.69523 0.76193 0.50451 0.0
C2214 C 0.59124 0.65402 0.55459 0.0
C2215 C 0.60018 0.67357 0.55111 0.0
C2216 C 0.6271 0.70068 0.50836 0.0
C2217 C 0.65934 0.75049 0.51522 0.0
C2218 C 0.6431 0.73365 0.51871 0.0
C2219 C 0.60104 0.68137 0.5312 0.0
C2220 C 0.6144 0.70007 0.52646 0.0
H2221 H 0.66671 0.80197 0.52112 0.0
H2222 H 0.63927 0.77457 0.52589 0.0
H2223 H 0.65078 0.7171 0.49047 0.0
H2224 H 0.57645 0.6411 0.50599 0.0
H2225 H 0.59097 0.67558 0.49994 0.0
C2226 C 0.69783 0.28223 0.00862 0.0
C2227 C 0.69823 0.26685 0.99318 0.0
C2228 C 0.68425 0.2983 0.00751 0.0
C2229 C 0.63568 0.31382 0.98229 0.0
H2230 H 0.65701 0.36831 0.99739 0.0
C2231 C 0.59098 0.38554 0.96384 0.0
C2232 C 0.59189 0.40225 0.9778 0.0
C2233 C 0.60296 0.3686 0.9667 0.0
C2234 C 0.65062 0.35318 0.99339 0.0
H2235 H 0.6841 0.25627 0.96463 0.0
H2236 H 0.66071 0.28434 0.96255 0.0
H2237 H 0.67965 0.33986 1.00042 0.0
H2238 H 0.60578 0.41383 0.00612 0.0
H2239 H 0.62632 0.38419 0.0113 0.0
H2240 H 0.60666 0.32716 0.9752 0.0
C2241 C 0.67081 0.28393 0.97564 0.0
C2242 C 0.66367 0.3368 0.99512 0.0
C2243 C 0.68445 0.2679 0.97671 0.0
C2244 C 0.60468 0.40129 0.99501 0.0
C2245 C 0.61665 0.38432 0.99788 0.0
C2246 C 0.6226 0.33021 0.98061 0.0
C2247 C 0.6706 0.29945 0.99095 0.0
C2248 C 0.65644 0.31688 0.98951 0.0
C2249 C 0.6162 0.36782 0.98363 0.0
C2250 C 0.62989 0.35017 0.98605 0.0
H2251 H 0.70833 0.28211 0.02144 0.0
H2252 H 0.68441 0.3098 0.01972 0.0
H2253 H 0.62939 0.2987 0.97813 0.0
H2254 H 0.58141 0.38574 0.95035 0.0
H2255 H 0.60232 0.35637 0.95523 0.0
C2256 C 0.32855 0.26985 0.01185 0.0
C2257 C 0.33106 0.28731 0.99994 0.0
C2258 C 0.34177 0.2536 0.0084 0.0
C2259 C 0.39385 0.24094 0.98534 0.0
H2260 H 0.36969 0.18557 0.9831 0.0
C2261 C 0.4423 0.17543 0.95298 0.0
C2262 C 0.44049 0.15664 0.96268 0.0
C2263 C 0.42855 0.19075 0.9583 0.0
C2264 C 0.37676 0.20091 0.98394 0.0
H2265 H 0.34977 0.3015 0.97536 0.0
H2266 H 0.37272 0.27322 0.96929 0.0
H2267 H 0.3468 0.21361 0.99136 0.0
H2268 H 0.42239 0.13912 0.98538 0.0
H2269 H 0.39832 0.16602 0.99487 0.0
H2270 H 0.42376 0.2284 0.97801 0.0
C2271 C 0.36057 0.27207 0.98135 0.0
C2272 C 0.36362 0.21699 0.98867 0.0
C2273 C 0.34728 0.28822 0.9847 0.0
C2274 C 0.42414 0.15337 0.97754 0.0
C2275 C 0.41036 0.16881 0.98296 0.0
C2276 C 0.40697 0.2249 0.98071 0.0
C2277 C 0.35794 0.25451 0.99308 0.0
C2278 C 0.37197 0.23723 0.98916 0.0
C2279 C 0.41258 0.18781 0.97357 0.0
C2280 C 0.39858 0.20468 0.97965 0.0
H2281 H 0.31609 0.26857 0.0236 0.0
H2282 H 0.33942 0.24038 0.01782 0.0
H2283 H 0.4009 0.25629 0.98599 0.0
H2284 H 0.45435 0.17832 0.94112 0.0
H2285 H 0.43041 0.20492 0.9503 0.0
C2286 C 0.8208 0.27577 1.00104 0.0
C2287 C 0.82255 0.25603 0.00798 0.0
C2288 C 0.83701 0.29061 0.00447 0.0
C2289 C 0.87397 0.30985 0.03961 0.0
H2290 H 0.90556 0.33457 0.99408 0.0
C2291 C 0.92926 0.38156 0.05201 0.0
C2292 C 0.92763 0.39656 0.03738 0.0
C2293 C 0.92052 0.36185 0.04835 0.0
C2294 C 0.89682 0.32794 0.00698 0.0
H2295 H 0.84216 0.23616 0.02408 0.0
H2296 H 0.87034 0.2626 0.03089 0.0
H2297 H 0.88146 0.30496 0.98778 0.0
H2298 H 0.91604 0.40257 0.00729 0.0
H2299 H 0.90027 0.3688 1.00129 0.0
H2300 H 0.88791 0.33357 0.05868 0.0
C2301 C 0.85662 0.26634 0.02245 0.0
C2302 C 0.88319 0.31092 0.00334 0.0
C2303 C 0.84061 0.25134 0.01859 0.0
C2304 C 0.91765 0.39136 0.01886 0.0
C2305 C 0.90875 0.37184 0.01533 0.0
C2306 C 0.88729 0.32714 0.04323 0.0
C2307 C 0.85492 0.286 0.01531 0.0
C2308 C 0.87139 0.30207 0.01956 0.0
C2309 C 0.90983 0.35686 0.03009 0.0
C2310 C 0.89843 0.33674 0.02685 0.0
H2311 H 0.80687 0.27969 0.99302 0.0
H2312 H 0.83541 0.3058 0.99903 0.0
H2313 H 0.86484 0.30321 0.05229 0.0
H2314 H 0.937 0.3851 0.06638 0.0
H2315 H 0.92191 0.35062 0.05994 0.0
loop_
_geom_bond_atom_site_label_1
_geom_bond_atom_site_label_2
_geom_bond_distance
_geom_bond_site_symmetry_2
_ccdc_geom_bond_type
C0 C1 1.443 . S
C0 N4 1.376 . S
C0 C38 1.389 1_655 S
C1 C0 1.443 . S
C1 C2 1.340 . S
C1 H41 0.951 . S
C2 C1 1.340 . S
C2 C3 1.439 . S
C2 H42 0.950 . S
C3 C2 1.439 . S
C3 N4 1.374 . S
C3 C37 1.395 . S
N4 C0 1.376 . S
N4 C3 1.374 . S
N4 Co5 2.008 1_655 S
Co5 N4 2.008 1_455 S
Co5 N6 1.995 . S
Co5 N11 2.008 . S
Co5 N16 1.995 . S
Co5 N21 2.282 . S
Co5 N27 2.282 . S
N6 Co5 1.995 . S
N6 C7 1.376 1_455 S
N6 C10 1.383 . S
C7 N6 1.376 1_655 S
C7 C8 1.446 . S
C7 C37 1.391 . S
C8 C7 1.446 . S
C8 C9 1.339 . S
C8 H43 0.949 . S
C9 C8 1.339 . S
C9 C10 1.439 1_655 S
C9 H44 0.950 . S
C10 N6 1.383 . S
C10 C9 1.439 1_455 S
C10 C39 1.392 . S
N11 Co5 2.008 . S
N11 C12 1.376 . S
N11 C15 1.374 . S
C12 N11 1.376 . S
C12 C13 1.443 . S
C12 C39 1.389 . S
C13 C12 1.443 . S
C13 C14 1.340 . S
C13 H45 0.951 . S
C14 C13 1.340 . S
C14 C15 1.439 . S
C14 H46 0.950 . S
C15 N11 1.374 . S
C15 C14 1.439 . S
C15 C40 1.395 . S
N16 Co5 1.995 . S
N16 C17 1.376 . S
N16 C20 1.383 . S
C17 N16 1.376 . S
C17 C18 1.446 . S
C17 C40 1.391 . S
C18 C17 1.446 . S
C18 C19 1.339 . S
C18 H47 0.949 . S
C19 C18 1.339 . S
C19 C20 1.439 . S
C19 H48 0.950 . S
C20 N16 1.383 . S
C20 C19 1.439 . S
C20 C38 1.392 . S
N21 Co5 2.282 . S
N21 C24 1.332 . S
N21 C26 1.332 . S
C22 C23 1.386 . S
C22 C25 1.388 . S
C23 C22 1.386 . S
C23 C24 1.382 . S
C23 H49 0.950 . S
C24 N21 1.332 . S
C24 C23 1.382 . S
C24 H35 0.952 . S
C25 C22 1.388 . S
C25 C26 1.382 . S
C25 H50 0.950 . S
C26 N21 1.332 . S
C26 C25 1.382 . S
C26 H36 0.948 . S
N27 Co5 2.282 . S
N27 C31 1.332 . S
N27 C32 1.332 . S
C28 C29 1.388 . S
C28 C32 1.382 . S
C28 H51 0.950 . S
C29 C28 1.388 . S
C29 C30 1.386 1_455 S
C30 C29 1.386 1_655 S
C30 C31 1.382 1_655 S
C30 H52 0.950 . S
C31 N27 1.332 . S
C31 C30 1.382 1_455 S
C31 H33 0.952 1_455 S
C32 N27 1.332 . S
C32 C28 1.382 . S
C32 H34 0.948 . S
H33 C31 0.952 1_655 S
H34 C32 0.948 . S
H35 C24 0.952 . S
H36 C26 0.948 . S
C37 C3 1.395 . S
C37 C7 1.391 . S
C38 C0 1.389 1_455 S
C38 C20 1.392 . S
C39 C10 1.392 . S
C39 C12 1.389 . S
C40 C15 1.395 . S
C40 C17 1.391 . S
H41 C1 0.951 . S
H42 C2 0.950 . S
H43 C8 0.949 . S
H44 C9 0.950 . S
H45 C13 0.951 . S
H46 C14 0.950 . S
H47 C18 0.949 . S
H48 C19 0.950 . S
H49 C23 0.950 . S
H50 C25 0.950 . S
H51 C28 0.950 . S
H52 C30 0.950 . S
C53 C54 1.443 . S
C53 N57 1.376 . S
C53 C91 1.389 1_655 S
C54 C53 1.443 . S
C54 C55 1.340 . S
C54 H94 0.951 . S
C55 C54 1.340 . S
C55 C56 1.439 . S
C55 H95 0.950 . S
C56 C55 1.439 . S
C56 N57 1.374 . S
C56 C90 1.395 . S
N57 C53 1.376 . S
N57 C56 1.374 . S
N57 Co58 2.008 1_655 S
Co58 N57 2.008 1_455 S
Co58 N59 1.995 1_455 S
Co58 N64 2.008 . S
Co58 N69 1.995 . S
Co58 N74 2.282 . S
Co58 N80 2.282 . S
N59 Co58 1.995 1_655 S
N59 C60 1.376 . S
N59 C63 1.383 . S
C60 N59 1.376 . S
C60 C61 1.446 . S
C60 C90 1.391 . S
C61 C60 1.446 . S
C61 C62 1.339 . S
C61 H96 0.949 . S
C62 C61 1.339 . S
C62 C63 1.439 . S
C62 H97 0.950 . S
C63 N59 1.383 . S
C63 C62 1.439 . S
C63 C92 1.392 1_655 S
N64 Co58 2.008 . S
N64 C65 1.376 . S
N64 C68 1.374 . S
C65 N64 1.376 . S
C65 C66 1.443 . S
C65 C92 1.389 . S
C66 C65 1.443 . S
C66 C67 1.340 . S
C66 H98 0.951 . S
C67 C66 1.340 . S
C67 C68 1.439 . S
C67 H99 0.950 . S
C68 N64 1.374 . S
C68 C67 1.439 . S
C68 C93 1.395 . S
N69 Co58 1.995 . S
N69 C70 1.376 . S
N69 C73 1.383 . S
C70 N69 1.376 . S
C70 C71 1.446 . S
C70 C93 1.391 . S
C71 C70 1.446 . S
C71 C72 1.339 . S
C71 H100 0.949 . S
C72 C71 1.339 . S
C72 C73 1.439 . S
C72 H101 0.950 . S
C73 N69 1.383 . S
C73 C72 1.439 . S
C73 C91 1.392 . S
N74 Co58 2.282 . S
N74 C77 1.332 . S
N74 C79 1.365 . S
C75 C76 1.386 . S
C75 C78 1.388 . S
C76 C75 1.386 . S
C76 C77 1.382 . S
C76 H102 0.950 . S
C77 N74 1.332 . S
C77 C76 1.382 . S
C77 H88 0.952 . S
C78 C75 1.388 . S
C78 C79 1.388 . S
C78 H103 0.950 1_455 S
C79 N74 1.365 . S
C79 C78 1.388 . S
C79 H89 0.908 1_455 S
N80 Co58 2.282 . S
N80 C84 1.332 1_455 S
N80 C85 1.332 . S
C81 C82 1.388 1_455 S
C81 C85 1.382 . S
C81 H104 0.950 . S
C82 C81 1.388 1_655 S
C82 C83 1.386 . S
C83 C82 1.386 . S
C83 C84 1.382 . S
C83 H105 0.950 . S
C84 N80 1.332 1_655 S
C84 C83 1.382 . S
C84 H86 0.952 . S
C85 N80 1.332 . S
C85 C81 1.382 . S
C85 H87 0.948 . S
H86 C84 0.952 . S
H87 C85 0.948 . S
H88 C77 0.952 . S
H89 C79 0.908 1_655 S
C90 C56 1.395 . S
C90 C60 1.391 . S
C91 C53 1.389 1_455 S
C91 C73 1.392 . S
C92 C63 1.392 1_455 S
C92 C65 1.389 . S
C93 C68 1.395 . S
C93 C70 1.391 . S
H94 C54 0.951 . S
H95 C55 0.950 . S
H96 C61 0.949 . S
H97 C62 0.950 . S
H98 C66 0.951 . S
H99 C67 0.950 . S
H100 C71 0.949 . S
H101 C72 0.950 . S
H102 C76 0.950 . S
H103 C78 0.950 1_655 S
H104 C81 0.950 . S
H105 C83 0.950 . S
C106 C107 1.443 . S
C106 N110 1.376 . S
C106 C144 1.389 1_565 S
C107 C106 1.443 . S
C107 C108 1.340 . S
C107 H147 0.951 . S
C108 C107 1.340 . S
C108 C109 1.439 . S
C108 H148 0.950 . S
C109 C108 1.439 . S
C109 N110 1.374 . S
C109 C143 1.395 . S
N110 C106 1.376 . S
N110 C109 1.374 . S
N110 Co111 2.008 1_565 S
Co111 N110 2.008 1_545 S
Co111 N112 1.995 1_545 S
Co111 N117 2.008 . S
Co111 N122 1.995 . S
Co111 N127 2.282 . S
Co111 N133 2.282 . S
N112 Co111 1.995 1_565 S
N112 C113 1.376 . S
N112 C116 1.383 1_565 S
C113 N112 1.376 . S
C113 C114 1.446 . S
C113 C143 1.391 . S
C114 C113 1.446 . S
C114 C115 1.339 . S
C114 H149 0.949 . S
C115 C114 1.339 . S
C115 C116 1.439 1_565 S
C115 H150 0.950 . S
C116 N112 1.383 1_545 S
C116 C115 1.439 1_545 S
C116 C145 1.392 . S
N117 Co111 2.008 . S
N117 C118 1.376 . S
N117 C121 1.374 . S
C118 N117 1.376 . S
C118 C119 1.443 . S
C118 C145 1.389 . S
C119 C118 1.443 . S
C119 C120 1.340 . S
C119 H151 0.951 . S
C120 C119 1.340 . S
C120 C121 1.439 . S
C120 H152 0.950 . S
C121 N117 1.374 . S
C121 C120 1.439 . S
C121 C146 1.395 . S
N122 Co111 1.995 . S
N122 C123 1.376 . S
N122 C126 1.383 . S
C123 N122 1.376 . S
C123 C124 1.446 . S
C123 C146 1.391 . S
C124 C123 1.446 . S
C124 C125 1.339 . S
C124 H153 0.949 . S
C125 C124 1.339 . S
C125 C126 1.439 . S
C125 H154 0.950 . S
C126 N122 1.383 . S
C126 C125 1.439 . S
C126 C144 1.392 . S
N127 Co111 2.282 . S
N127 C130 1.332 . S
N127 C132 1.332 . S
C128 C129 1.386 . S
C128 C131 1.388 . S
C129 C128 1.386 . S
C129 C130 1.382 . S
C129 H155 0.950 . S
C130 N127 1.332 . S
C130 C129 1.382 . S
C130 H141 0.952 . S
C131 C128 1.388 . S
C131 C132 1.382 . S
C131 H156 0.963 . S
C132 N127 1.332 . S
C132 C131 1.382 . S
C132 H142 0.948 1_545 S
N133 Co111 2.282 . S
N133 C137 1.332 1_545 S
N133 C138 1.332 . S
C134 C135 1.388 1_545 S
C134 C138 1.382 . S
C134 H157 0.950 . S
C135 C134 1.388 1_565 S
C135 C136 1.386 . S
C136 C135 1.386 . S
C136 C137 1.382 . S
C136 H158 0.950 . S
C137 N133 1.332 1_565 S
C137 C136 1.382 . S
C137 H139 0.952 . S
C138 N133 1.332 . S
C138 C134 1.382 . S
C138 H140 0.948 . S
H139 C137 0.952 . S
H140 C138 0.948 . S
H141 C130 0.952 . S
H142 C132 0.948 1_565 S
C143 C109 1.395 . S
C143 C113 1.391 . S
C144 C106 1.389 1_545 S
C144 C126 1.392 . S
C145 C116 1.392 . S
C145 C118 1.389 . S
C146 C121 1.395 . S
C146 C123 1.391 . S
H147 C107 0.951 . S
H148 C108 0.950 . S
H149 C114 0.949 . S
H150 C115 0.950 . S
H151 C119 0.951 . S
H152 C120 0.950 . S
H153 C124 0.949 . S
H154 C125 0.950 . S
H155 C129 0.950 . S
H156 C131 0.963 . S
H157 C134 0.950 . S
H158 C136 0.950 . S
C159 C160 1.443 . S
C159 N163 1.376 . S
C159 C197 1.389 . S
C160 C159 1.443 . S
C160 C161 1.340 . S
C160 H200 0.951 . S
C161 C160 1.340 . S
C161 C162 1.439 . S
C161 H201 0.950 . S
C162 C161 1.439 . S
C162 N163 1.374 . S
C162 C196 1.395 . S
N163 C159 1.376 . S
N163 C162 1.374 . S
N163 Co164 2.008 . S
Co164 N163 2.008 . S
Co164 N165 1.995 . S
Co164 N170 2.008 . S
Co164 N175 1.995 . S
Co164 N180 2.282 . S
Co164 N186 2.282 . S
N165 Co164 1.995 . S
N165 C166 1.376 . S
N165 C169 1.383 . S
C166 N165 1.376 . S
C166 C167 1.446 . S
C166 C196 1.391 . S
C167 C166 1.446 . S
C167 C168 1.339 . S
C167 H202 0.949 . S
C168 C167 1.339 . S
C168 C169 1.439 . S
C168 H203 0.950 . S
C169 N165 1.383 . S
C169 C168 1.439 . S
C169 C198 1.392 . S
N170 Co164 2.008 . S
N170 C171 1.376 . S
N170 C174 1.374 . S
C171 N170 1.376 . S
C171 C172 1.443 . S
C171 C198 1.389 . S
C172 C171 1.443 . S
C172 C173 1.340 . S
C172 H204 0.951 . S
C173 C172 1.340 . S
C173 C174 1.439 . S
C173 H205 0.950 . S
C174 N170 1.374 . S
C174 C173 1.439 . S
C174 C199 1.395 . S
N175 Co164 1.995 . S
N175 C176 1.376 . S
N175 C179 1.383 . S
C176 N175 1.376 . S
C176 C177 1.446 . S
C176 C199 1.391 . S
C177 C176 1.446 . S
C177 C178 1.339 . S
C177 H206 0.949 . S
C178 C177 1.339 . S
C178 C179 1.439 . S
C178 H207 0.950 . S
C179 N175 1.383 . S
C179 C178 1.439 . S
C179 C197 1.392 . S
N180 Co164 2.282 . S
N180 C183 1.332 . S
N180 C185 1.332 . S
C181 C182 1.386 . S
C181 C184 1.388 . S
C182 C181 1.386 . S
C182 C183 1.382 . S
C182 H208 0.950 . S
C183 N180 1.332 . S
C183 C182 1.382 . S
C183 H194 0.952 . S
C184 C181 1.388 . S
C184 C185 1.382 . S
C184 H209 0.950 . S
C185 N180 1.332 . S
C185 C184 1.382 . S
C185 H195 0.948 . S
N186 Co164 2.282 . S
N186 C190 1.332 . S
N186 C191 1.332 . S
C187 C188 1.388 . S
C187 C191 1.382 . S
C187 H210 0.950 . S
C188 C187 1.388 . S
C188 C189 1.386 . S
C189 C188 1.386 . S
C189 C190 1.382 . S
C189 H211 0.950 . S
C190 N186 1.332 . S
C190 C189 1.382 . S
C190 H192 0.952 . S
C191 N186 1.332 . S
C191 C187 1.382 . S
C191 H193 0.948 . S
H192 C190 0.952 . S
H193 C191 0.948 . S
H194 C183 0.952 . S
H195 C185 0.948 . S
C196 C162 1.395 . S
C196 C166 1.391 . S
C197 C159 1.389 . S
C197 C179 1.392 . S
C198 C169 1.392 . S
C198 C171 1.389 . S
C199 C174 1.395 . S
C199 C176 1.391 . S
H200 C160 0.951 . S
H201 C161 0.950 . S
H202 C167 0.949 . S
H203 C168 0.950 . S
H204 C172 0.951 . S
H205 C173 0.950 . S
H206 C177 0.949 . S
H207 C178 0.950 . S
H208 C182 0.950 . S
H209 C184 0.950 . S
H210 C187 0.950 . S
H211 C189 0.950 . S
C212 C213 1.443 . S
C212 N216 1.376 . S
C212 C250 1.389 1_556 S
C213 C212 1.443 . S
C213 C214 1.340 . S
C213 H253 0.951 . S
C214 C213 1.340 . S
C214 C215 1.439 . S
C214 H254 0.950 . S
C215 C214 1.439 . S
C215 N216 1.374 . S
C215 C249 1.395 . S
N216 C212 1.376 . S
N216 C215 1.374 . S
N216 Co217 2.008 1_556 S
Co217 N216 2.008 1_554 S
Co217 N218 1.995 1_554 S
Co217 N223 2.008 . S
Co217 N228 1.995 . S
Co217 N233 2.282 . S
Co217 N239 2.282 . S
N218 Co217 1.995 1_556 S
N218 C219 1.376 . S
N218 C222 1.383 1_556 S
C219 N218 1.376 . S
C219 C220 1.446 . S
C219 C249 1.391 . S
C220 C219 1.446 . S
C220 C221 1.339 . S
C220 H255 0.949 . S
C221 C220 1.339 . S
C221 C222 1.439 1_556 S
C221 H256 0.950 . S
C222 N218 1.383 1_554 S
C222 C221 1.439 1_554 S
C222 C251 1.392 . S
N223 Co217 2.008 . S
N223 C224 1.376 . S
N223 C227 1.374 . S
C224 N223 1.376 . S
C224 C225 1.443 . S
C224 C251 1.389 . S
C225 C224 1.443 . S
C225 C226 1.340 . S
C225 H257 0.951 . S
C226 C225 1.340 . S
C226 C227 1.439 . S
C226 H258 0.950 . S
C227 N223 1.374 . S
C227 C226 1.439 . S
C227 C252 1.395 . S
N228 Co217 1.995 . S
N228 C229 1.376 . S
N228 C232 1.383 . S
C229 N228 1.376 . S
C229 C230 1.446 . S
C229 C252 1.391 . S
C230 C229 1.446 . S
C230 C231 1.339 . S
C230 H259 0.949 . S
C231 C230 1.339 . S
C231 C232 1.439 . S
C231 H260 0.950 . S
C232 N228 1.383 . S
C232 C231 1.439 . S
C232 C250 1.392 . S
N233 Co217 2.282 . S
N233 C236 1.332 . S
N233 C238 1.332 . S
C234 C235 1.386 . S
C234 C237 1.388 . S
C235 C234 1.386 . S
C235 C236 1.382 . S
C235 H261 0.950 . S
C236 N233 1.332 . S
C236 C235 1.382 . S
C236 H247 0.952 . S
C237 C234 1.388 . S
C237 C238 1.382 . S
C237 H262 0.950 1_554 S
C238 N233 1.332 . S
C238 C237 1.382 . S
C238 H248 0.948 1_554 S
N239 Co217 2.282 . S
N239 C243 1.332 1_554 S
N239 C244 1.332 . S
C240 C241 1.388 1_554 S
C240 C244 1.382 . S
C240 H263 0.950 . S
C241 C240 1.388 1_556 S
C241 C242 1.386 . S
C242 C241 1.386 . S
C242 C243 1.382 . S
C242 H264 0.950 . S
C243 N239 1.332 1_556 S
C243 C242 1.382 . S
C243 H245 0.952 . S
C244 N239 1.332 . S
C244 C240 1.382 . S
C244 H246 0.948 . S
H245 C243 0.952 . S
H246 C244 0.948 . S
H247 C236 0.952 . S
H248 C238 0.948 1_556 S
C249 C215 1.395 . S
C249 C219 1.391 . S
C250 C212 1.389 1_554 S
C250 C232 1.392 . S
C251 C222 1.392 . S
C251 C224 1.389 . S
C252 C227 1.395 . S
C252 C229 1.391 . S
H253 C213 0.951 . S
H254 C214 0.950 . S
H255 C220 0.949 . S
H256 C221 0.950 . S
H257 C225 0.951 . S
H258 C226 0.950 . S
H259 C230 0.949 . S
H260 C231 0.950 . S
H261 C235 0.950 . S
H262 C237 0.950 1_556 S
H263 C240 0.950 . S
H264 C242 0.950 . S
C265 C266 1.443 . S
C265 N269 1.376 . S
C265 C303 1.389 . S
C266 C265 1.443 . S
C266 C267 1.340 . S
C266 H306 0.951 . S
C267 C266 1.340 . S
C267 C268 1.439 . S
C267 H307 0.950 . S
C268 C267 1.439 . S
C268 N269 1.374 . S
C268 C302 1.395 . S
N269 C265 1.376 . S
N269 C268 1.374 . S
N269 Co270 2.008 . S
Co270 N269 2.008 . S
Co270 N271 1.995 . S
Co270 N276 2.008 . S
Co270 N281 1.995 . S
Co270 N286 2.282 . S
Co270 N292 2.282 . S
N271 Co270 1.995 . S
N271 C272 1.376 . S
N271 C275 1.383 . S
C272 N271 1.376 . S
C272 C273 1.446 . S
C272 C302 1.391 . S
C273 C272 1.446 . S
C273 C274 1.339 . S
C273 H308 0.949 . S
C274 C273 1.339 . S
C274 C275 1.439 . S
C274 H309 0.950 . S
C275 N271 1.383 . S
C275 C274 1.439 . S
C275 C304 1.392 . S
N276 Co270 2.008 . S
N276 C277 1.376 . S
N276 C280 1.374 . S
C277 N276 1.376 . S
C277 C278 1.443 . S
C277 C304 1.389 . S
C278 C277 1.443 . S
C278 C279 1.340 . S
C278 H310 0.951 . S
C279 C278 1.340 . S
C279 C280 1.439 . S
C279 H311 0.950 . S
C280 N276 1.374 . S
C280 C279 1.439 . S
C280 C305 1.395 . S
N281 Co270 1.995 . S
N281 C282 1.376 . S
N281 C285 1.383 . S
C282 N281 1.376 . S
C282 C283 1.446 . S
C282 C305 1.391 . S
C283 C282 1.446 . S
C283 C284 1.339 . S
C283 H312 0.949 . S
C284 C283 1.339 . S
C284 C285 1.439 . S
C284 H313 0.950 . S
C285 N281 1.383 . S
C285 C284 1.439 . S
C285 C303 1.392 . S
N286 Co270 2.282 . S
N286 C289 1.332 . S
N286 C291 1.332 . S
C287 C288 1.386 . S
C287 C290 1.388 . S
C288 C287 1.386 . S
C288 C289 1.382 . S
C288 H314 0.950 . S
C289 N286 1.332 . S
C289 C288 1.382 . S
C289 H300 0.952 . S
C290 C287 1.388 . S
C290 C291 1.382 . S
C290 H315 0.950 . S
C291 N286 1.332 . S
C291 C290 1.382 . S
C291 H301 0.948 . S
N292 Co270 2.282 . S
N292 C296 1.332 . S
N292 C297 1.332 . S
C293 C294 1.388 . S
C293 C297 1.382 . S
C293 H316 0.950 . S
C294 C293 1.388 . S
C294 C295 1.386 . S
C295 C294 1.386 . S
C295 C296 1.382 . S
C295 H317 0.950 . S
C296 N292 1.332 . S
C296 C295 1.382 . S
C296 H298 0.952 . S
C297 N292 1.332 . S
C297 C293 1.382 . S
C297 H299 0.948 . S
H298 C296 0.952 . S
H299 C297 0.948 . S
H300 C289 0.952 . S
H301 C291 0.948 . S
C302 C268 1.395 . S
C302 C272 1.391 . S
C303 C265 1.389 . S
C303 C285 1.392 . S
C304 C275 1.392 . S
C304 C277 1.389 . S
C305 C280 1.395 . S
C305 C282 1.391 . S
H306 C266 0.951 . S
H307 C267 0.950 . S
H308 C273 0.949 . S
H309 C274 0.950 . S
H310 C278 0.951 . S
H311 C279 0.950 . S
H312 C283 0.949 . S
H313 C284 0.950 . S
H314 C288 0.950 . S
H315 C290 0.950 . S
H316 C293 0.950 . S
H317 C295 0.950 . S
C318 C319 1.443 . S
C318 N322 1.376 . S
C318 C356 1.389 . S
C319 C318 1.443 . S
C319 C320 1.340 . S
C319 H359 0.951 . S
C320 C319 1.340 . S
C320 C321 1.439 . S
C320 H360 0.950 . S
C321 C320 1.439 . S
C321 N322 1.374 . S
C321 C355 1.395 . S
N322 C318 1.376 . S
N322 C321 1.374 . S
N322 Co323 2.008 . S
Co323 N322 2.008 . S
Co323 N324 1.995 . S
Co323 N329 2.008 . S
Co323 N334 1.995 . S
Co323 N339 2.282 . S
Co323 N345 2.282 . S
N324 Co323 1.995 . S
N324 C325 1.376 . S
N324 C328 1.383 . S
C325 N324 1.376 . S
C325 C326 1.446 . S
C325 C355 1.391 . S
C326 C325 1.446 . S
C326 C327 1.339 . S
C326 H361 0.949 . S
C327 C326 1.339 . S
C327 C328 1.439 . S
C327 H362 0.950 . S
C328 N324 1.383 . S
C328 C327 1.439 . S
C328 C357 1.392 . S
N329 Co323 2.008 . S
N329 C330 1.376 . S
N329 C333 1.374 . S
C330 N329 1.376 . S
C330 C331 1.443 . S
C330 C357 1.389 . S
C331 C330 1.443 . S
C331 C332 1.340 . S
C331 H363 0.951 . S
C332 C331 1.340 . S
C332 C333 1.439 . S
C332 H364 0.950 . S
C333 N329 1.374 . S
C333 C332 1.439 . S
C333 C358 1.395 . S
N334 Co323 1.995 . S
N334 C335 1.376 . S
N334 C338 1.383 . S
C335 N334 1.376 . S
C335 C336 1.446 . S
C335 C358 1.391 . S
C336 C335 1.446 . S
C336 C337 1.339 . S
C336 H365 0.949 . S
C337 C336 1.339 . S
C337 C338 1.439 . S
C337 H366 0.950 . S
C338 N334 1.383 . S
C338 C337 1.439 . S
C338 C356 1.392 . S
N339 Co323 2.282 . S
N339 C342 1.332 . S
N339 C344 1.332 . S
C340 C341 1.386 . S
C340 C343 1.388 . S
C341 C340 1.386 . S
C341 C342 1.382 . S
C341 H367 0.950 . S
C342 N339 1.332 . S
C342 C341 1.382 . S
C342 H353 0.952 . S
C343 C340 1.388 . S
C343 C344 1.382 . S
C343 H368 0.950 . S
C344 N339 1.332 . S
C344 C343 1.382 . S
C344 H354 0.948 . S
N345 Co323 2.282 . S
N345 C349 1.332 . S
N345 C350 1.332 . S
C346 C347 1.388 . S
C346 C350 1.382 . S
C346 H369 0.950 . S
C347 C346 1.388 . S
C347 C348 1.386 . S
C348 C347 1.386 . S
C348 C349 1.382 . S
C348 H370 0.950 . S
C349 N345 1.332 . S
C349 C348 1.382 . S
C349 H351 0.952 . S
C350 N345 1.332 . S
C350 C346 1.382 . S
C350 H352 0.948 . S
H351 C349 0.952 . S
H352 C350 0.948 . S
H353 C342 0.952 . S
H354 C344 0.948 . S
C355 C321 1.395 . S
C355 C325 1.391 . S
C356 C318 1.389 . S
C356 C338 1.392 . S
C357 C328 1.392 . S
C357 C330 1.389 . S
C358 C333 1.395 . S
C358 C335 1.391 . S
H359 C319 0.951 . S
H360 C320 0.950 . S
H361 C326 0.949 . S
H362 C327 0.950 . S
H363 C331 0.951 . S
H364 C332 0.950 . S
H365 C336 0.949 . S
H366 C337 0.950 . S
H367 C341 0.950 . S
H368 C343 0.950 . S
H369 C346 0.950 . S
H370 C348 0.950 . S
C371 C372 1.443 . S
C371 N375 1.376 . S
C371 C409 1.389 . S
C372 C371 1.443 . S
C372 C373 1.340 . S
C372 H412 0.951 . S
C373 C372 1.340 . S
C373 C374 1.439 . S
C373 H413 0.950 . S
C374 C373 1.439 . S
C374 N375 1.374 . S
C374 C408 1.395 . S
N375 C371 1.376 . S
N375 C374 1.374 . S
N375 Co376 2.008 . S
Co376 N375 2.008 . S
Co376 N377 1.995 . S
Co376 N382 2.008 . S
Co376 N387 1.995 . S
Co376 N392 2.282 . S
Co376 N398 2.282 . S
N377 Co376 1.995 . S
N377 C378 1.376 . S
N377 C381 1.383 . S
C378 N377 1.376 . S
C378 C379 1.446 . S
C378 C408 1.391 . S
C379 C378 1.446 . S
C379 C380 1.339 . S
C379 H414 0.949 . S
C380 C379 1.339 . S
C380 C381 1.439 . S
C380 H415 0.950 . S
C381 N377 1.383 . S
C381 C380 1.439 . S
C381 C410 1.392 . S
N382 Co376 2.008 . S
N382 C383 1.376 . S
N382 C386 1.374 . S
C383 N382 1.376 . S
C383 C384 1.443 . S
C383 C410 1.389 . S
C384 C383 1.443 . S
C384 C385 1.340 . S
C384 H416 0.951 . S
C385 C384 1.340 . S
C385 C386 1.439 . S
C385 H417 0.950 . S
C386 N382 1.374 . S
C386 C385 1.439 . S
C386 C411 1.395 . S
N387 Co376 1.995 . S
N387 C388 1.376 . S
N387 C391 1.383 . S
C388 N387 1.376 . S
C388 C389 1.446 . S
C388 C411 1.391 . S
C389 C388 1.446 . S
C389 C390 1.339 . S
C389 H418 0.949 . S
C390 C389 1.339 . S
C390 C391 1.439 . S
C390 H419 0.950 . S
C391 N387 1.383 . S
C391 C390 1.439 . S
C391 C409 1.392 . S
N392 Co376 2.282 . S
N392 C395 1.332 . S
N392 C397 1.332 . S
C393 C394 1.386 . S
C393 C396 1.388 . S
C394 C393 1.386 . S
C394 C395 1.382 . S
C394 H420 0.950 . S
C395 N392 1.332 . S
C395 C394 1.382 . S
C395 H406 0.952 . S
C396 C393 1.388 . S
C396 C397 1.382 . S
C396 H421 0.950 . S
C397 N392 1.332 . S
C397 C396 1.382 . S
C397 H407 0.948 . S
N398 Co376 2.282 . S
N398 C402 1.332 . S
N398 C403 1.332 . S
C399 C400 1.388 . S
C399 C403 1.382 . S
C399 H422 0.950 . S
C400 C399 1.388 . S
C400 C401 1.386 . S
C401 C400 1.386 . S
C401 C402 1.382 . S
C401 H423 0.950 . S
C402 N398 1.332 . S
C402 C401 1.382 . S
C402 H404 0.952 . S
C403 N398 1.332 . S
C403 C399 1.382 . S
C403 H405 0.948 . S
H404 C402 0.952 . S
H405 C403 0.948 . S
H406 C395 0.952 . S
H407 C397 0.948 . S
C408 C374 1.395 . S
C408 C378 1.391 . S
C409 C371 1.389 . S
C409 C391 1.392 . S
C410 C381 1.392 . S
C410 C383 1.389 . S
C411 C386 1.395 . S
C411 C388 1.391 . S
H412 C372 0.951 . S
H413 C373 0.950 . S
H414 C379 0.949 . S
H415 C380 0.950 . S
H416 C384 0.951 . S
H417 C385 0.950 . S
H418 C389 0.949 . S
H419 C390 0.950 . S
H420 C394 0.950 . S
H421 C396 0.950 . S
H422 C399 0.950 . S
H423 C401 0.950 . S
C424 C425 1.443 . S
C424 N428 1.376 . S
C424 C462 1.389 . S
C425 C424 1.443 . S
C425 C426 1.340 . S
C425 H465 0.951 . S
C426 C425 1.340 . S
C426 C427 1.439 . S
C426 H466 0.950 . S
C427 C426 1.439 . S
C427 N428 1.374 . S
C427 C461 1.395 . S
N428 C424 1.376 . S
N428 C427 1.374 . S
N428 Co429 2.008 . S
Co429 N428 2.008 . S
Co429 N430 1.995 . S
Co429 N435 2.008 . S
Co429 N440 1.995 . S
Co429 N445 2.282 . S
Co429 N451 2.282 . S
N430 Co429 1.995 . S
N430 C431 1.376 . S
N430 C434 1.383 . S
C431 N430 1.376 . S
C431 C432 1.446 . S
C431 C461 1.391 . S
C432 C431 1.446 . S
C432 C433 1.339 . S
C432 H467 0.949 . S
C433 C432 1.339 . S
C433 C434 1.439 . S
C433 H468 0.950 . S
C434 N430 1.383 . S
C434 C433 1.439 . S
C434 C463 1.392 . S
N435 Co429 2.008 . S
N435 C436 1.376 . S
N435 C439 1.374 . S
C436 N435 1.376 . S
C436 C437 1.443 . S
C436 C463 1.389 . S
C437 C436 1.443 . S
C437 C438 1.340 . S
C437 H469 0.951 . S
C438 C437 1.340 . S
C438 C439 1.439 . S
C438 H470 0.950 . S
C439 N435 1.374 . S
C439 C438 1.439 . S
C439 C464 1.395 . S
N440 Co429 1.995 . S
N440 C441 1.376 . S
N440 C444 1.383 . S
C441 N440 1.376 . S
C441 C442 1.446 . S
C441 C464 1.391 . S
C442 C441 1.446 . S
C442 C443 1.339 . S
C442 H471 0.949 . S
C443 C442 1.339 . S
C443 C444 1.439 . S
C443 H472 0.950 . S
C444 N440 1.383 . S
C444 C443 1.439 . S
C444 C462 1.392 . S
N445 Co429 2.282 . S
N445 C448 1.332 . S
N445 C450 1.332 . S
C446 C447 1.386 . S
C446 C449 1.388 . S
C447 C446 1.386 . S
C447 C448 1.382 . S
C447 H473 0.950 . S
C448 N445 1.332 . S
C448 C447 1.382 . S
C448 H459 0.952 . S
C449 C446 1.388 . S
C449 C450 1.382 . S
C449 H474 0.950 . S
C450 N445 1.332 . S
C450 C449 1.382 . S
C450 H460 0.948 . S
N451 Co429 2.282 . S
N451 C455 1.332 . S
N451 C456 1.332 . S
C452 C453 1.388 . S
C452 C456 1.382 . S
C452 H475 0.950 . S
C453 C452 1.388 . S
C453 C454 1.386 . S
C454 C453 1.386 . S
C454 C455 1.382 . S
C454 H476 0.950 . S
C455 N451 1.332 . S
C455 C454 1.382 . S
C455 H457 0.952 . S
C456 N451 1.332 . S
C456 C452 1.382 . S
C456 H458 0.948 . S
H457 C455 0.952 . S
H458 C456 0.948 . S
H459 C448 0.952 . S
H460 C450 0.948 . S
C461 C427 1.395 . S
C461 C431 1.391 . S
C462 C424 1.389 . S
C462 C444 1.392 . S
C463 C434 1.392 . S
C463 C436 1.389 . S
C464 C439 1.395 . S
C464 C441 1.391 . S
H465 C425 0.951 . S
H466 C426 0.950 . S
H467 C432 0.949 . S
H468 C433 0.950 . S
H469 C437 0.951 . S
H470 C438 0.950 . S
H471 C442 0.949 . S
H472 C443 0.950 . S
H473 C447 0.950 . S
H474 C449 0.950 . S
H475 C452 0.950 . S
H476 C454 0.950 . S
C477 C478 1.443 . S
C477 N481 1.376 . S
C477 C515 1.389 . S
C478 C477 1.443 . S
C478 C479 1.340 . S
C478 H518 0.951 . S
C479 C478 1.340 . S
C479 C480 1.439 . S
C479 H519 0.950 . S
C480 C479 1.439 . S
C480 N481 1.374 . S
C480 C514 1.395 . S
N481 C477 1.376 . S
N481 C480 1.374 . S
N481 Co482 2.008 . S
Co482 N481 2.008 . S
Co482 N483 1.995 . S
Co482 N488 2.008 . S
Co482 N493 1.995 . S
Co482 N498 2.282 . S
Co482 N504 2.282 . S
N483 Co482 1.995 . S
N483 C484 1.376 . S
N483 C487 1.383 . S
C484 N483 1.376 . S
C484 C485 1.446 . S
C484 C514 1.391 . S
C485 C484 1.446 . S
C485 C486 1.339 . S
C485 H520 0.949 . S
C486 C485 1.339 . S
C486 C487 1.439 . S
C486 H521 0.950 . S
C487 N483 1.383 . S
C487 C486 1.439 . S
C487 C516 1.392 . S
N488 Co482 2.008 . S
N488 C489 1.376 . S
N488 C492 1.374 . S
C489 N488 1.376 . S
C489 C490 1.443 . S
C489 C516 1.389 . S
C490 C489 1.443 . S
C490 C491 1.340 . S
C490 H522 0.951 . S
C491 C490 1.340 . S
C491 C492 1.439 . S
C491 H523 0.950 . S
C492 N488 1.374 . S
C492 C491 1.439 . S
C492 C517 1.395 . S
N493 Co482 1.995 . S
N493 C494 1.376 . S
N493 C497 1.383 . S
C494 N493 1.376 . S
C494 C495 1.446 . S
C494 C517 1.391 . S
C495 C494 1.446 . S
C495 C496 1.339 . S
C495 H524 0.949 . S
C496 C495 1.339 . S
C496 C497 1.439 . S
C496 H525 0.950 . S
C497 N493 1.383 . S
C497 C496 1.439 . S
C497 C515 1.392 . S
N498 Co482 2.282 . S
N498 C501 1.332 . S
N498 C503 1.332 . S
C499 C500 1.386 . S
C499 C502 1.388 . S
C500 C499 1.386 . S
C500 C501 1.382 . S
C500 H526 0.950 . S
C501 N498 1.332 . S
C501 C500 1.382 . S
C501 H512 0.952 . S
C502 C499 1.388 . S
C502 C503 1.382 . S
C502 H527 0.950 . S
C503 N498 1.332 . S
C503 C502 1.382 . S
C503 H513 0.948 . S
N504 Co482 2.282 . S
N504 C508 1.332 . S
N504 C509 1.332 . S
C505 C506 1.388 . S
C505 C509 1.382 . S
C505 H528 0.950 . S
C506 C505 1.388 . S
C506 C507 1.386 . S
C507 C506 1.386 . S
C507 C508 1.382 . S
C507 H529 0.950 . S
C508 N504 1.332 . S
C508 C507 1.382 . S
C508 H510 0.952 . S
C509 N504 1.332 . S
C509 C505 1.382 . S
C509 H511 0.948 . S
H510 C508 0.952 . S
H511 C509 0.948 . S
H512 C501 0.952 . S
H513 C503 0.948 . S
C514 C480 1.395 . S
C514 C484 1.391 . S
C515 C477 1.389 . S
C515 C497 1.392 . S
C516 C487 1.392 . S
C516 C489 1.389 . S
C517 C492 1.395 . S
C517 C494 1.391 . S
H518 C478 0.951 . S
H519 C479 0.950 . S
H520 C485 0.949 . S
H521 C486 0.950 . S
H522 C490 0.951 . S
H523 C491 0.950 . S
H524 C495 0.949 . S
H525 C496 0.950 . S
H526 C500 0.950 . S
H527 C502 0.950 . S
H528 C505 0.950 . S
H529 C507 0.950 . S
C530 C531 1.443 . S
C530 N534 1.376 . S
C530 C568 1.389 . S
C531 C530 1.443 . S
C531 C532 1.340 . S
C531 H571 0.951 . S
C532 C531 1.340 . S
C532 C533 1.439 . S
C532 H572 0.950 . S
C533 C532 1.439 . S
C533 N534 1.374 . S
C533 C567 1.395 . S
N534 C530 1.376 . S
N534 C533 1.374 . S
N534 Co535 2.008 . S
Co535 N534 2.008 . S
Co535 N536 1.995 . S
Co535 N541 2.008 1_545 S
Co535 N546 1.995 1_545 S
Co535 N551 2.282 . S
Co535 N557 2.282 . S
N536 Co535 1.995 . S
N536 C537 1.376 . S
N536 C540 1.383 . S
C537 N536 1.376 . S
C537 C538 1.446 . S
C537 C567 1.391 . S
C538 C537 1.446 . S
C538 C539 1.339 . S
C538 H573 0.949 . S
C539 C538 1.339 . S
C539 C540 1.439 . S
C539 H574 0.950 . S
C540 N536 1.383 . S
C540 C539 1.439 . S
C540 C569 1.392 1_545 S
N541 Co535 2.008 1_565 S
N541 C542 1.376 . S
N541 C545 1.374 . S
C542 N541 1.376 . S
C542 C543 1.443 . S
C542 C569 1.389 . S
C543 C542 1.443 . S
C543 C544 1.340 . S
C543 H575 0.951 . S
C544 C543 1.340 . S
C544 C545 1.439 . S
C544 H576 0.950 . S
C545 N541 1.374 . S
C545 C544 1.439 . S
C545 C570 1.395 . S
N546 Co535 1.995 1_565 S
N546 C547 1.376 . S
N546 C550 1.374 1_565 S
C547 N546 1.376 . S
C547 C548 1.446 . S
C547 C570 1.391 . S
C548 C547 1.446 . S
C548 C549 1.339 . S
C548 H577 0.949 . S
C549 C548 1.339 . S
C549 C550 1.419 1_565 S
C549 H578 0.950 . S
C550 N546 1.374 1_545 S
C550 C549 1.419 1_545 S
C550 C568 1.417 . S
N551 Co535 2.282 . S
N551 C554 1.332 1_545 S
N551 C556 1.332 . S
C552 C553 1.386 . S
C552 C555 1.388 1_565 S
C553 C552 1.386 . S
C553 C554 1.382 . S
C553 H579 0.950 . S
C554 N551 1.332 1_565 S
C554 C553 1.382 . S
C554 H565 0.952 . S
C555 C552 1.388 1_545 S
C555 C556 1.382 . S
C555 H580 0.950 . S
C556 N551 1.332 . S
C556 C555 1.382 . S
C556 H566 0.948 . S
N557 Co535 2.282 . S
N557 C561 1.332 . S
N557 C562 1.332 . S
C558 C559 1.388 . S
C558 C562 1.382 . S
C558 H581 0.950 1_545 S
C559 C558 1.388 . S
C559 C560 1.386 . S
C560 C559 1.386 . S
C560 C561 1.382 . S
C560 H582 0.950 . S
C561 N557 1.332 . S
C561 C560 1.382 . S
C561 H563 0.952 . S
C562 N557 1.332 . S
C562 C558 1.382 . S
C562 H564 0.948 1_545 S
H563 C561 0.952 . S
H564 C562 0.948 1_565 S
H565 C554 0.952 . S
H566 C556 0.948 . S
C567 C533 1.395 . S
C567 C537 1.391 . S
C568 C530 1.389 . S
C568 C550 1.417 . S
C569 C540 1.392 1_565 S
C569 C542 1.389 . S
C570 C545 1.395 . S
C570 C547 1.391 . S
H571 C531 0.951 . S
H572 C532 0.950 . S
H573 C538 0.949 . S
H574 C539 0.950 . S
H575 C543 0.951 . S
H576 C544 0.950 . S
H577 C548 0.949 . S
H578 C549 0.950 . S
H579 C553 0.950 . S
H580 C555 0.950 . S
H581 C558 0.950 1_565 S
H582 C560 0.950 . S
C583 C584 1.443 . S
C583 N587 1.376 . S
C583 C621 1.364 1_556 S
C584 C583 1.443 . S
C584 C585 1.340 . S
C584 H624 0.951 . S
C585 C584 1.340 . S
C585 C586 1.439 . S
C585 H625 0.950 . S
C586 C585 1.439 . S
C586 N587 1.374 . S
C586 C620 1.395 . S
N587 C583 1.376 . S
N587 C586 1.374 . S
N587 Co588 2.008 1_556 S
Co588 N587 2.008 1_554 S
Co588 N589 1.995 1_554 S
Co588 N594 2.008 . S
Co588 N599 1.995 . S
Co588 N604 2.282 . S
Co588 N610 2.282 . S
N589 Co588 1.995 1_556 S
N589 C590 1.376 . S
N589 C593 1.383 1_556 S
C590 N589 1.376 . S
C590 C591 1.446 . S
C590 C620 1.391 . S
C591 C590 1.446 . S
C591 C592 1.339 . S
C591 H626 0.949 . S
C592 C591 1.339 . S
C592 C593 1.439 1_556 S
C592 H627 0.950 . S
C593 N589 1.383 1_554 S
C593 C592 1.439 1_554 S
C593 C622 1.392 . S
N594 Co588 2.008 . S
N594 C595 1.376 . S
N594 C598 1.374 . S
C595 N594 1.376 . S
C595 C596 1.443 . S
C595 C622 1.389 . S
C596 C595 1.443 . S
C596 C597 1.340 . S
C596 H628 0.951 . S
C597 C596 1.340 . S
C597 C598 1.439 . S
C597 H629 0.950 . S
C598 N594 1.374 . S
C598 C597 1.439 . S
C598 C623 1.395 . S
N599 Co588 1.995 . S
N599 C600 1.376 . S
N599 C603 1.383 . S
C600 N599 1.376 . S
C600 C601 1.446 . S
C600 C623 1.391 . S
C601 C600 1.446 . S
C601 C602 1.339 . S
C601 H630 0.949 . S
C602 C601 1.339 . S
C602 C603 1.439 . S
C602 H631 0.950 . S
C603 N599 1.383 . S
C603 C602 1.439 . S
C603 C621 1.423 . S
N604 Co588 2.282 . S
N604 C607 1.332 . S
N604 C609 1.366 . S
C605 C606 1.386 . S
C605 C608 1.388 . S
C606 C605 1.386 . S
C606 C607 1.382 . S
C606 H632 0.950 . S
C607 N604 1.332 . S
C607 C606 1.382 . S
C607 H618 0.952 . S
C608 C605 1.388 . S
C608 C609 1.394 . S
C608 H633 0.950 1_554 S
C609 N604 1.366 . S
C609 C608 1.394 . S
C609 H619 0.902 1_554 S
N610 Co588 2.282 . S
N610 C614 1.332 1_554 S
N610 C615 1.332 . S
C611 C612 1.356 1_554 S
C611 C615 1.382 . S
C611 H634 0.950 . S
C612 C611 1.356 1_556 S
C612 C613 1.410 . S
C613 C612 1.410 . S
C613 C614 1.382 . S
C613 H635 0.950 . S
C614 N610 1.332 1_556 S
C614 C613 1.382 . S
C614 H616 0.952 . S
C615 N610 1.332 . S
C615 C611 1.382 . S
C615 H617 0.948 . S
H616 C614 0.952 . S
H617 C615 0.948 . S
H618 C607 0.952 . S
H619 C609 0.902 1_556 S
C620 C586 1.395 . S
C620 C590 1.391 . S
C621 C583 1.364 1_554 S
C621 C603 1.423 . S
C622 C593 1.392 . S
C622 C595 1.389 . S
C623 C598 1.395 . S
C623 C600 1.391 . S
H624 C584 0.951 . S
H625 C585 0.950 . S
H626 C591 0.949 . S
H627 C592 0.950 . S
H628 C596 0.951 . S
H629 C597 0.950 . S
H630 C601 0.949 . S
H631 C602 0.950 . S
H632 C606 0.950 . S
H633 C608 0.950 1_556 S
H634 C611 0.950 . S
H635 C613 0.950 . S
Co636 N641 2.057 . S
Co636 O653 2.021 . S
Co636 O656 2.062 . S
Co636 O660 2.117 . S
Co636 O661 2.020 . S
C637 O657 1.259 . S
C637 O660 1.258 . S
Co638 N647 2.057 . S
Co638 O654 2.117 . S
Co638 O655 2.020 . S
Co638 O657 2.021 . S
Co638 O662 2.062 . S
C639 N641 1.316 . S
C639 N642 1.347 1_545 S
C639 H644 0.931 1_545 S
C640 N641 1.375 . S
C640 C643 1.383 . S
C640 H645 0.930 . S
N641 Co636 2.057 . S
N641 C639 1.316 . S
N641 C640 1.375 . S
N642 C639 1.347 1_565 S
N642 C643 1.354 1_565 S
C643 C640 1.383 . S
C643 N642 1.354 1_545 S
C643 H664 0.920 1_545 S
H644 C639 0.931 1_565 S
H645 C640 0.930 . S
C646 O653 1.259 . S
C646 O654 1.258 . S
N647 Co638 2.057 . S
N647 C648 1.316 . S
N647 C649 1.375 . S
C648 N647 1.316 . S
C648 N650 1.347 . S
C648 H659 0.931 . S
C649 N647 1.375 . S
C649 C651 1.350 . S
C649 H658 0.930 . S
N650 C648 1.347 . S
N650 C651 1.373 . S
C651 C649 1.350 . S
C651 N650 1.373 . S
C651 H665 0.931 1_554 S
C652 O655 1.256 . S
C652 O656 1.255 . S
O653 Co636 2.021 . S
O653 C646 1.259 . S
O654 Co638 2.117 . S
O654 C646 1.258 . S
O655 Co638 2.020 . S
O655 C652 1.256 . S
O656 Co636 2.062 . S
O656 C652 1.255 . S
O657 C637 1.259 . S
O657 Co638 2.021 . S
H658 C649 0.930 . S
H659 C648 0.931 . S
O660 Co636 2.117 . S
O660 C637 1.258 . S
O661 Co636 2.020 . S
O661 C663 1.256 . S
O662 Co638 2.062 . S
O662 C663 1.255 . S
C663 O661 1.256 . S
C663 O662 1.255 . S
H664 C643 0.920 1_565 S
H665 C651 0.931 1_556 S
Co666 N671 2.057 . S
Co666 O683 2.021 . S
Co666 O686 2.062 . S
Co666 O690 2.117 . S
Co666 O691 2.020 . S
C667 O687 1.259 . S
C667 O690 1.258 . S
Co668 N677 2.057 . S
Co668 O684 2.117 . S
Co668 O685 2.020 . S
Co668 O687 2.021 . S
Co668 O692 2.062 . S
C669 N671 1.316 . S
C669 N672 1.347 . S
C669 H674 0.931 . S
C670 N671 1.375 . S
C670 C673 1.350 . S
C670 H675 0.930 . S
N671 Co666 2.057 . S
N671 C669 1.316 . S
N671 C670 1.375 . S
N672 C669 1.347 . S
N672 C673 1.373 . S
C673 C670 1.350 . S
C673 N672 1.373 . S
C673 H694 0.931 . S
H674 C669 0.931 . S
H675 C670 0.930 . S
C676 O683 1.259 . S
C676 O684 1.258 . S
N677 Co668 2.057 . S
N677 C678 1.316 1_554 S
N677 C679 1.375 1_554 S
C678 N677 1.316 1_556 S
C678 N680 1.347 . S
C678 H689 0.931 1_556 S
C679 N677 1.375 1_556 S
C679 C681 1.350 . S
C679 H688 0.930 . S
N680 C678 1.347 . S
N680 C681 1.373 . S
C681 C679 1.350 . S
C681 N680 1.373 . S
C681 H695 0.931 . S
C682 O685 1.256 . S
C682 O686 1.255 . S
O683 Co666 2.021 . S
O683 C676 1.259 . S
O684 Co668 2.117 . S
O684 C676 1.258 . S
O685 Co668 2.020 . S
O685 C682 1.256 . S
O686 Co666 2.062 . S
O686 C682 1.255 . S
O687 C667 1.259 . S
O687 Co668 2.021 . S
H688 C679 0.930 . S
H689 C678 0.931 1_554 S
O690 Co666 2.117 . S
O690 C667 1.258 . S
O691 Co666 2.020 . S
O691 C693 1.256 . S
O692 Co668 2.062 . S
O692 C693 1.255 . S
C693 O691 1.256 . S
C693 O692 1.255 . S
H694 C673 0.931 . S
H695 C681 0.931 . S
Co696 N701 2.057 . S
Co696 O713 2.021 . S
Co696 O716 2.062 . S
Co696 O720 2.117 . S
Co696 O721 2.020 . S
C697 O717 1.259 . S
C697 O720 1.258 . S
Co698 N707 2.057 . S
Co698 O714 2.117 . S
Co698 O715 2.020 . S
Co698 O717 2.021 . S
Co698 O722 2.062 . S
C699 N701 1.316 . S
C699 N702 1.347 . S
C699 H704 0.931 . S
C700 N701 1.375 . S
C700 C703 1.350 . S
C700 H705 0.930 . S
N701 Co696 2.057 . S
N701 C699 1.316 . S
N701 C700 1.375 . S
N702 C699 1.347 . S
N702 C703 1.373 . S
C703 C700 1.350 . S
C703 N702 1.373 . S
C703 H724 0.931 . S
H704 C699 0.931 . S
H705 C700 0.930 . S
C706 O713 1.259 . S
C706 O714 1.258 . S
N707 Co698 2.057 . S
N707 C708 1.316 . S
N707 C709 1.375 . S
C708 N707 1.316 . S
C708 N710 1.347 . S
C708 H719 0.931 . S
C709 N707 1.375 . S
C709 C711 1.350 . S
C709 H718 0.939 . S
N710 C708 1.347 . S
N710 C711 1.373 . S
C711 C709 1.350 . S
C711 N710 1.373 . S
C711 H725 0.931 1_455 S
C712 O715 1.256 . S
C712 O716 1.255 . S
O713 Co696 2.021 . S
O713 C706 1.259 . S
O714 Co698 2.117 . S
O714 C706 1.258 . S
O715 Co698 2.020 . S
O715 C712 1.256 . S
O716 Co696 2.062 . S
O716 C712 1.255 . S
O717 C697 1.259 . S
O717 Co698 2.021 . S
H718 C709 0.939 . S
H719 C708 0.931 . S
O720 Co696 2.117 . S
O720 C697 1.258 . S
O721 Co696 2.020 . S
O721 C723 1.256 . S
O722 Co698 2.062 . S
O722 C723 1.255 . S
C723 O721 1.256 . S
C723 O722 1.255 . S
H724 C703 0.931 . S
H725 C711 0.931 1_655 S
Co726 N731 2.057 . S
Co726 O743 2.021 . S
Co726 O746 2.062 . S
Co726 O750 2.117 . S
Co726 O751 2.020 . S
C727 O747 1.259 . S
C727 O750 1.258 . S
Co728 N737 2.057 . S
Co728 O744 2.117 . S
Co728 O745 2.020 . S
Co728 O747 2.021 . S
Co728 O752 2.062 . S
C729 N731 1.316 . S
C729 N732 1.347 . S
C729 H734 0.931 . S
C730 N731 1.375 . S
C730 C733 1.350 . S
C730 H735 0.930 . S
N731 Co726 2.057 . S
N731 C729 1.316 . S
N731 C730 1.375 . S
N732 C729 1.347 . S
N732 C733 1.373 . S
C733 C730 1.350 . S
C733 N732 1.373 . S
C733 H754 0.931 . S
H734 C729 0.931 . S
H735 C730 0.930 . S
C736 O743 1.259 . S
C736 O744 1.258 . S
N737 Co728 2.057 . S
N737 C738 1.316 . S
N737 C739 1.375 . S
C738 N737 1.316 . S
C738 N740 1.347 . S
C738 H749 0.931 . S
C739 N737 1.375 . S
C739 C741 1.350 . S
C739 H748 0.930 . S
N740 C738 1.347 . S
N740 C741 1.373 . S
C741 C739 1.350 . S
C741 N740 1.373 . S
C741 H755 0.931 . S
C742 O745 1.256 . S
C742 O746 1.255 . S
O743 Co726 2.021 . S
O743 C736 1.259 . S
O744 Co728 2.117 . S
O744 C736 1.258 . S
O745 Co728 2.020 . S
O745 C742 1.256 . S
O746 Co726 2.062 . S
O746 C742 1.255 . S
O747 C727 1.259 . S
O747 Co728 2.021 . S
H748 C739 0.930 . S
H749 C738 0.931 . S
O750 Co726 2.117 . S
O750 C727 1.258 . S
O751 Co726 2.020 . S
O751 C753 1.256 . S
O752 Co728 2.062 . S
O752 C753 1.255 . S
C753 O751 1.256 . S
C753 O752 1.255 . S
H754 C733 0.931 . S
H755 C741 0.931 . S
Co756 N761 2.057 . S
Co756 O773 2.021 . S
Co756 O776 2.062 . S
Co756 O780 2.117 . S
Co756 O781 2.020 . S
C757 O777 1.259 . S
C757 O780 1.258 . S
Co758 N767 2.057 . S
Co758 O774 2.117 . S
Co758 O775 2.020 . S
Co758 O777 2.021 . S
Co758 O782 2.062 . S
C759 N761 1.316 . S
C759 N762 1.347 . S
C759 H764 0.931 . S
C760 N761 1.375 . S
C760 C763 1.350 . S
C760 H765 0.930 . S
N761 Co756 2.057 . S
N761 C759 1.316 . S
N761 C760 1.375 . S
N762 C759 1.347 . S
N762 C763 1.373 . S
C763 C760 1.350 . S
C763 N762 1.373 . S
C763 H784 0.931 . S
H764 C759 0.931 . S
H765 C760 0.930 . S
C766 O773 1.259 . S
C766 O774 1.258 . S
N767 Co758 2.057 . S
N767 C768 1.316 . S
N767 C769 1.375 . S
C768 N767 1.316 . S
C768 N770 1.347 . S
C768 H779 0.931 . S
C769 N767 1.375 . S
C769 C771 1.350 . S
C769 H778 0.930 . S
N770 C768 1.347 . S
N770 C771 1.373 . S
C771 C769 1.350 . S
C771 N770 1.373 . S
C771 H785 0.931 . S
C772 O775 1.256 . S
C772 O776 1.255 . S
O773 Co756 2.021 . S
O773 C766 1.259 . S
O774 Co758 2.117 . S
O774 C766 1.258 . S
O775 Co758 2.020 . S
O775 C772 1.256 . S
O776 Co756 2.062 . S
O776 C772 1.255 . S
O777 C757 1.259 . S
O777 Co758 2.021 . S
H778 C769 0.930 . S
H779 C768 0.931 . S
O780 Co756 2.117 . S
O780 C757 1.258 . S
O781 Co756 2.020 . S
O781 C783 1.256 . S
O782 Co758 2.062 . S
O782 C783 1.255 . S
C783 O781 1.256 . S
C783 O782 1.255 . S
H784 C763 0.931 . S
H785 C771 0.931 . S
Co786 N791 2.057 . S
Co786 O803 2.021 . S
Co786 O806 2.062 . S
Co786 O810 2.117 . S
Co786 O811 2.020 . S
C787 O807 1.259 . S
C787 O810 1.258 . S
Co788 N797 2.057 . S
Co788 O804 2.117 . S
Co788 O805 2.020 . S
Co788 O807 2.021 . S
Co788 O812 2.062 . S
C789 N791 1.316 . S
C789 N792 1.347 . S
C789 H794 0.931 . S
C790 N791 1.375 . S
C790 C793 1.350 . S
C790 H795 0.930 . S
N791 Co786 2.057 . S
N791 C789 1.316 . S
N791 C790 1.375 . S
N792 C789 1.347 . S
N792 C793 1.373 . S
C793 C790 1.350 . S
C793 N792 1.373 . S
C793 H814 0.931 . S
H794 C789 0.931 . S
H795 C790 0.930 . S
C796 O803 1.259 . S
C796 O804 1.258 . S
N797 Co788 2.057 . S
N797 C798 1.316 . S
N797 C799 1.375 . S
C798 N797 1.316 . S
C798 N800 1.347 . S
C798 H809 0.931 . S
C799 N797 1.375 . S
C799 C801 1.350 . S
C799 H808 0.930 . S
N800 C798 1.347 . S
N800 C801 1.373 . S
C801 C799 1.350 . S
C801 N800 1.373 . S
C801 H815 0.931 . S
C802 O805 1.256 . S
C802 O806 1.255 . S
O803 Co786 2.021 . S
O803 C796 1.259 . S
O804 Co788 2.117 . S
O804 C796 1.258 . S
O805 Co788 2.020 . S
O805 C802 1.256 . S
O806 Co786 2.062 . S
O806 C802 1.255 . S
O807 C787 1.259 . S
O807 Co788 2.021 . S
H808 C799 0.930 . S
H809 C798 0.931 . S
O810 Co786 2.117 . S
O810 C787 1.258 . S
O811 Co786 2.020 . S
O811 C813 1.256 . S
O812 Co788 2.062 . S
O812 C813 1.255 . S
C813 O811 1.256 . S
C813 O812 1.255 . S
H814 C793 0.931 . S
H815 C801 0.931 . S
Co816 N821 2.057 . S
Co816 O833 2.021 . S
Co816 O836 2.062 . S
Co816 O840 2.117 . S
Co816 O841 2.020 . S
C817 O837 1.259 . S
C817 O840 1.258 . S
Co818 N827 2.057 . S
Co818 O834 2.117 . S
Co818 O835 2.020 . S
Co818 O837 2.021 . S
Co818 O842 2.062 . S
C819 N821 1.316 1_554 S
C819 N822 1.347 . S
C819 H824 0.931 . S
C820 N821 1.375 . S
C820 C823 1.350 1_556 S
C820 H825 0.930 . S
N821 Co816 2.057 . S
N821 C819 1.316 1_556 S
N821 C820 1.375 . S
N822 C819 1.347 . S
N822 C823 1.373 . S
C823 C820 1.350 1_554 S
C823 N822 1.373 . S
C823 H844 0.931 . S
H824 C819 0.931 . S
H825 C820 0.930 . S
C826 O833 1.259 . S
C826 O834 1.258 . S
N827 Co818 2.057 . S
N827 C828 1.316 . S
N827 C829 1.375 . S
C828 N827 1.316 . S
C828 N830 1.347 . S
C828 H839 0.931 . S
C829 N827 1.375 . S
C829 C831 1.350 . S
C829 H838 0.930 . S
N830 C828 1.347 . S
N830 C831 1.373 . S
C831 C829 1.350 . S
C831 N830 1.373 . S
C831 H845 0.931 . S
C832 O835 1.256 . S
C832 O836 1.255 . S
O833 Co816 2.021 . S
O833 C826 1.259 . S
O834 Co818 2.117 . S
O834 C826 1.258 . S
O835 Co818 2.020 . S
O835 C832 1.256 . S
O836 Co816 2.062 . S
O836 C832 1.255 . S
O837 C817 1.259 . S
O837 Co818 2.021 . S
H838 C829 0.930 . S
H839 C828 0.931 . S
O840 Co816 2.117 . S
O840 C817 1.258 . S
O841 Co816 2.020 . S
O841 C843 1.256 . S
O842 Co818 2.062 . S
O842 C843 1.255 . S
C843 O841 1.256 . S
C843 O842 1.255 . S
H844 C823 0.931 . S
H845 C831 0.931 . S
Co846 N851 2.057 . S
Co846 O863 2.021 . S
Co846 O866 2.062 . S
Co846 O870 2.117 . S
Co846 O871 2.020 . S
C847 O867 1.259 . S
C847 O870 1.258 . S
Co848 N857 2.057 . S
Co848 O864 2.117 . S
Co848 O865 2.020 . S
Co848 O867 2.021 . S
Co848 O872 2.062 . S
C849 N851 1.316 . S
C849 N852 1.347 . S
C849 H854 0.931 . S
C850 N851 1.375 . S
C850 C853 1.350 . S
C850 H855 0.930 . S
N851 Co846 2.057 . S
N851 C849 1.316 . S
N851 C850 1.375 . S
N852 C849 1.347 . S
N852 C853 1.373 . S
C853 C850 1.350 . S
C853 N852 1.373 . S
C853 H874 0.931 . S
H854 C849 0.931 . S
H855 C850 0.930 . S
C856 O863 1.259 . S
C856 O864 1.258 . S
N857 Co848 2.057 . S
N857 C858 1.316 . S
N857 C859 1.375 . S
C858 N857 1.316 . S
C858 N860 1.347 1_545 S
C858 H869 0.931 . S
C859 N857 1.375 . S
C859 C861 1.350 1_545 S
C859 H868 0.930 . S
N860 C858 1.347 1_565 S
N860 C861 1.373 . S
C861 C859 1.350 1_565 S
C861 N860 1.373 . S
C861 H875 0.931 . S
C862 O865 1.256 . S
C862 O866 1.255 . S
O863 Co846 2.021 . S
O863 C856 1.259 . S
O864 Co848 2.117 . S
O864 C856 1.258 . S
O865 Co848 2.020 . S
O865 C862 1.256 . S
O866 Co846 2.062 . S
O866 C862 1.255 . S
O867 C847 1.259 . S
O867 Co848 2.021 . S
H868 C859 0.930 . S
H869 C858 0.931 . S
O870 Co846 2.117 . S
O870 C847 1.258 . S
O871 Co846 2.020 . S
O871 C873 1.256 . S
O872 Co848 2.062 . S
O872 C873 1.255 . S
C873 O871 1.256 . S
C873 O872 1.255 . S
H874 C853 0.931 . S
H875 C861 0.931 . S
C876 C877 1.349 . S
C876 C878 1.327 . S
C876 H901 0.950 . S
C877 C876 1.349 . S
C877 C893 1.349 . S
C878 C876 1.327 . S
C878 C897 1.429 . S
C878 H902 0.950 . S
C879 C896 1.574 . S
C879 C898 1.368 . S
C879 H903 0.949 . S
H880 C884 0.949 . S
C881 C882 1.349 . S
C881 C883 1.327 1_565 S
C881 H904 0.950 . S
C882 C881 1.349 . S
C882 C894 1.349 1_565 S
C883 C881 1.327 1_545 S
C883 C899 1.429 . S
C883 H905 0.950 . S
C884 H880 0.949 . S
C884 C892 1.574 . S
C884 C900 1.368 . S
H885 C893 0.950 . S
H886 C891 0.950 . S
H887 C892 0.949 . S
H888 C894 0.940 1_565 S
H889 C895 0.950 . S
H890 C896 0.949 . S
C891 H886 0.950 . S
C891 C893 1.327 . S
C891 C897 1.429 . S
C892 C884 1.574 . S
C892 H887 0.949 . S
C892 C898 1.368 . S
C893 C877 1.349 . S
C893 H885 0.950 . S
C893 C891 1.327 . S
C894 C882 1.349 1_545 S
C894 H888 0.940 1_545 S
C894 C895 1.327 . S
C895 H889 0.950 . S
C895 C894 1.327 . S
C895 C899 1.429 . S
C896 C879 1.574 . S
C896 H890 0.949 . S
C896 C900 1.368 . S
C897 C878 1.429 . S
C897 C891 1.429 . S
C897 C898 1.523 . S
C898 C879 1.368 . S
C898 C892 1.368 . S
C898 C897 1.523 . S
C899 C883 1.429 . S
C899 C895 1.429 . S
C899 C900 1.523 . S
C900 C884 1.368 . S
C900 C896 1.368 . S
C900 C899 1.523 . S
H901 C876 0.950 . S
H902 C878 0.950 . S
H903 C879 0.949 . S
H904 C881 0.950 . S
H905 C883 0.950 . S
C906 C907 1.346 . S
C906 C908 1.328 1_455 S
C906 H931 0.952 1_455 S
C907 C906 1.346 . S
C907 C923 1.349 . S
C908 C906 1.328 1_655 S
C908 C927 1.429 1_655 S
C908 H932 0.950 . S
C909 C926 1.574 . S
C909 C928 1.368 . S
C909 H933 0.949 . S
H910 C914 0.949 . S
C911 C912 1.349 1_455 S
C911 C913 1.327 . S
C911 H934 0.950 . S
C912 C911 1.349 1_655 S
C912 C924 1.349 . S
C913 C911 1.327 . S
C913 C929 1.429 1_455 S
C913 H935 0.950 . S
C914 H910 0.949 . S
C914 C922 1.574 . S
C914 C930 1.368 1_655 S
H915 C923 0.950 . S
H916 C921 0.950 . S
H917 C922 0.949 . S
H918 C924 0.950 . S
H919 C925 0.950 . S
H920 C926 0.949 . S
C921 H916 0.950 . S
C921 C923 1.327 . S
C921 C927 1.429 . S
C922 C914 1.574 . S
C922 H917 0.949 . S
C922 C928 1.368 1_655 S
C923 C907 1.349 . S
C923 H915 0.950 . S
C923 C921 1.327 . S
C924 C912 1.349 . S
C924 H918 0.950 . S
C924 C925 1.327 . S
C925 H919 0.950 . S
C925 C924 1.327 . S
C925 C929 1.429 . S
C926 C909 1.574 . S
C926 H920 0.949 . S
C926 C930 1.368 . S
C927 C908 1.429 1_455 S
C927 C921 1.429 . S
C927 C928 1.523 . S
C928 C909 1.368 . S
C928 C922 1.368 1_455 S
C928 C927 1.523 . S
C929 C913 1.429 1_655 S
C929 C925 1.429 . S
C929 C930 1.523 1_655 S
C930 C914 1.368 1_455 S
C930 C926 1.368 . S
C930 C929 1.523 1_455 S
H931 C906 0.952 1_655 S
H932 C908 0.950 . S
H933 C909 0.949 . S
H934 C911 0.950 . S
H935 C913 0.950 . S
C936 C937 1.349 . S
C936 C938 1.327 . S
C936 H961 0.950 . S
C937 C936 1.349 . S
C937 C953 1.349 . S
C938 C936 1.327 . S
C938 C957 1.429 . S
C938 H962 0.989 . S
C939 C956 1.574 . S
C939 C958 1.368 . S
C939 H963 0.949 . S
H940 C944 0.949 . S
C941 C942 1.349 . S
C941 C943 1.327 . S
C941 H964 0.950 . S
C942 C941 1.349 . S
C942 C954 1.349 . S
C943 C941 1.327 . S
C943 C959 1.429 . S
C943 H965 0.950 . S
C944 H940 0.949 . S
C944 C952 1.574 . S
C944 C960 1.368 . S
H945 C953 0.950 . S
H946 C951 0.950 . S
H947 C952 0.949 . S
H948 C954 0.950 . S
H949 C955 0.950 . S
H950 C956 0.949 . S
C951 H946 0.950 . S
C951 C953 1.327 . S
C951 C957 1.429 . S
C952 C944 1.574 . S
C952 H947 0.949 . S
C952 C958 1.368 . S
C953 C937 1.349 . S
C953 H945 0.950 . S
C953 C951 1.327 . S
C954 C942 1.349 . S
C954 H948 0.950 . S
C954 C955 1.327 . S
C955 H949 0.950 . S
C955 C954 1.327 . S
C955 C959 1.429 . S
C956 C939 1.574 . S
C956 H950 0.949 . S
C956 C960 1.368 . S
C957 C938 1.429 . S
C957 C951 1.429 . S
C957 C958 1.523 . S
C958 C939 1.368 . S
C958 C952 1.368 . S
C958 C957 1.523 . S
C959 C943 1.429 . S
C959 C955 1.429 . S
C959 C960 1.523 . S
C960 C944 1.368 . S
C960 C956 1.368 . S
C960 C959 1.523 . S
H961 C936 0.950 . S
H962 C938 0.989 . S
H963 C939 0.949 . S
H964 C941 0.950 . S
H965 C943 0.950 . S
C966 C967 1.349 . S
C966 C968 1.327 . S
C966 H991 0.950 . S
C967 C966 1.349 . S
C967 C983 1.349 1_655 S
C968 C966 1.327 . S
C968 C987 1.429 . S
C968 H992 0.950 . S
C969 C986 1.574 . S
C969 C988 1.368 . S
C969 H993 0.949 1_655 S
H970 C974 0.949 . S
C971 C972 1.349 . S
C971 C973 1.327 . S
C971 H994 0.950 . S
C972 C971 1.349 . S
C972 C984 1.349 . S
C973 C971 1.327 . S
C973 C989 1.429 . S
C973 H995 0.950 . S
C974 H970 0.949 . S
C974 C982 1.574 . S
C974 C990 1.368 . S
H975 C983 0.950 . S
H976 C981 0.950 . S
H977 C982 0.949 . S
H978 C984 0.950 . S
H979 C985 0.950 . S
H980 C986 0.949 . S
C981 H976 0.950 . S
C981 C983 1.327 . S
C981 C987 1.429 1_455 S
C982 C974 1.574 . S
C982 H977 0.949 . S
C982 C988 1.368 . S
C983 C967 1.349 1_455 S
C983 H975 0.950 . S
C983 C981 1.327 . S
C984 C972 1.349 . S
C984 H978 0.950 . S
C984 C985 1.327 . S
C985 H979 0.950 . S
C985 C984 1.327 . S
C985 C989 1.429 . S
C986 C969 1.574 . S
C986 H980 0.949 . S
C986 C990 1.368 . S
C987 C968 1.429 . S
C987 C981 1.429 1_655 S
C987 C988 1.523 . S
C988 C969 1.368 . S
C988 C982 1.368 . S
C988 C987 1.523 . S
C989 C973 1.429 . S
C989 C985 1.429 . S
C989 C990 1.523 . S
C990 C974 1.368 . S
C990 C986 1.368 . S
C990 C989 1.523 . S
H991 C966 0.950 . S
H992 C968 0.950 . S
H993 C969 0.949 1_455 S
H994 C971 0.950 . S
H995 C973 0.950 . S
C996 C997 1.349 . S
C996 C998 1.327 . S
C996 H1021 0.950 . S
C997 C996 1.349 . S
C997 C1013 1.349 . S
C998 C996 1.327 . S
C998 C1017 1.429 . S
C998 H1022 0.950 . S
C999 C1016 1.574 . S
C999 C1018 1.368 . S
C999 H1023 0.949 . S
H1000 C1004 0.949 . S
C1001 C1002 1.355 . S
C1001 C1003 1.297 1_556 S
C1001 H1024 0.975 . S
C1002 C1001 1.355 . S
C1002 C1014 1.349 1_556 S
C1003 C1001 1.297 1_554 S
C1003 C1019 1.429 . S
C1003 H1025 0.950 . S
C1004 H1000 0.949 . S
C1004 C1012 1.574 . S
C1004 C1020 1.368 . S
H1005 C1013 0.950 . S
H1006 C1011 0.950 . S
H1007 C1012 0.949 . S
H1008 C1014 0.950 . S
H1009 C1015 0.950 . S
H1010 C1016 0.949 . S
C1011 H1006 0.950 . S
C1011 C1013 1.327 . S
C1011 C1017 1.429 . S
C1012 C1004 1.574 . S
C1012 H1007 0.949 . S
C1012 C1018 1.368 . S
C1013 C997 1.349 . S
C1013 H1005 0.950 . S
C1013 C1011 1.327 . S
C1014 C1002 1.349 1_554 S
C1014 H1008 0.950 . S
C1014 C1015 1.327 . S
C1015 H1009 0.950 . S
C1015 C1014 1.327 . S
C1015 C1019 1.429 . S
C1016 C999 1.574 . S
C1016 H1010 0.949 . S
C1016 C1020 1.368 . S
C1017 C998 1.429 . S
C1017 C1011 1.429 . S
C1017 C1018 1.523 . S
C1018 C999 1.368 . S
C1018 C1012 1.368 . S
C1018 C1017 1.523 . S
C1019 C1003 1.429 . S
C1019 C1015 1.429 . S
C1019 C1020 1.523 . S
C1020 C1004 1.368 . S
C1020 C1016 1.368 . S
C1020 C1019 1.523 . S
H1021 C996 0.950 . S
H1022 C998 0.950 . S
H1023 C999 0.949 . S
H1024 C1001 0.975 . S
H1025 C1003 0.950 . S
C1026 C1027 1.349 . S
C1026 C1028 1.327 . S
C1026 H1051 0.950 . S
C1027 C1026 1.349 . S
C1027 C1043 1.349 . S
C1028 C1026 1.327 . S
C1028 C1047 1.429 . S
C1028 H1052 0.950 . S
C1029 C1046 1.574 . S
C1029 C1048 1.368 . S
C1029 H1053 0.949 . S
H1030 C1034 0.949 . S
C1031 C1032 1.349 . S
C1031 C1033 1.327 . S
C1031 H1054 0.950 . S
C1032 C1031 1.349 . S
C1032 C1044 1.349 . S
C1033 C1031 1.327 . S
C1033 C1049 1.429 . S
C1033 H1055 0.950 . S
C1034 H1030 0.949 . S
C1034 C1042 1.574 . S
C1034 C1050 1.368 . S
H1035 C1043 0.950 . S
H1036 C1041 0.950 . S
H1037 C1042 0.949 . S
H1038 C1044 0.950 . S
H1039 C1045 0.950 . S
H1040 C1046 0.949 . S
C1041 H1036 0.950 . S
C1041 C1043 1.327 . S
C1041 C1047 1.429 . S
C1042 C1034 1.574 . S
C1042 H1037 0.949 . S
C1042 C1048 1.368 . S
C1043 C1027 1.349 . S
C1043 H1035 0.950 . S
C1043 C1041 1.327 . S
C1044 C1032 1.349 . S
C1044 H1038 0.950 . S
C1044 C1045 1.327 . S
C1045 H1039 0.950 . S
C1045 C1044 1.327 . S
C1045 C1049 1.429 . S
C1046 C1029 1.574 . S
C1046 H1040 0.949 . S
C1046 C1050 1.368 . S
C1047 C1028 1.429 . S
C1047 C1041 1.429 . S
C1047 C1048 1.523 . S
C1048 C1029 1.368 . S
C1048 C1042 1.368 . S
C1048 C1047 1.523 . S
C1049 C1033 1.429 . S
C1049 C1045 1.429 . S
C1049 C1050 1.523 . S
C1050 C1034 1.368 . S
C1050 C1046 1.368 . S
C1050 C1049 1.523 . S
H1051 C1026 0.950 . S
H1052 C1028 0.950 . S
H1053 C1029 0.949 . S
H1054 C1031 0.950 . S
H1055 C1033 0.950 . S
C1056 C1057 1.349 . S
C1056 C1058 1.327 . S
C1056 H1081 0.950 . S
C1057 C1056 1.349 . S
C1057 C1073 1.349 1_565 S
C1058 C1056 1.327 . S
C1058 C1077 1.429 . S
C1058 H1082 0.950 . S
C1059 C1076 1.574 . S
C1059 C1078 1.368 1_545 S
C1059 H1083 0.949 . S
H1060 C1064 0.949 . S
C1061 C1062 1.349 . S
C1061 C1063 1.334 . S
C1061 H1084 0.950 1_565 S
C1062 C1061 1.349 . S
C1062 C1074 1.349 . S
C1063 C1061 1.334 . S
C1063 C1079 1.454 . S
C1063 H1085 0.917 1_565 S
C1064 H1060 0.949 . S
C1064 C1072 1.574 . S
C1064 C1080 1.368 . S
H1065 C1073 0.950 . S
H1066 C1071 0.950 . S
H1067 C1072 0.949 . S
H1068 C1074 0.950 . S
H1069 C1075 0.950 . S
H1070 C1076 0.949 . S
C1071 H1066 0.950 . S
C1071 C1073 1.327 . S
C1071 C1077 1.429 1_545 S
C1072 C1064 1.574 . S
C1072 H1067 0.949 . S
C1072 C1078 1.368 . S
C1073 C1057 1.349 1_545 S
C1073 H1065 0.950 . S
C1073 C1071 1.327 . S
C1074 C1062 1.349 . S
C1074 H1068 0.950 . S
C1074 C1075 1.327 . S
C1075 H1069 0.950 . S
C1075 C1074 1.327 . S
C1075 C1079 1.429 . S
C1076 C1059 1.574 . S
C1076 H1070 0.949 . S
C1076 C1080 1.368 1_545 S
C1077 C1058 1.429 . S
C1077 C1071 1.429 1_565 S
C1077 C1078 1.523 . S
C1078 C1059 1.368 1_565 S
C1078 C1072 1.368 . S
C1078 C1077 1.523 . S
C1079 C1063 1.454 . S
C1079 C1075 1.429 . S
C1079 C1080 1.523 . S
C1080 C1064 1.368 . S
C1080 C1076 1.368 1_565 S
C1080 C1079 1.523 . S
H1081 C1056 0.950 . S
H1082 C1058 0.950 . S
H1083 C1059 0.949 . S
H1084 C1061 0.950 1_545 S
H1085 C1063 0.917 1_545 S
C1086 C1087 1.349 . S
C1086 C1088 1.327 . S
C1086 H1111 0.950 . S
C1087 C1086 1.349 . S
C1087 C1103 1.349 . S
C1088 C1086 1.327 . S
C1088 C1107 1.429 . S
C1088 H1112 0.950 . S
C1089 C1106 1.574 . S
C1089 C1108 1.368 . S
C1089 H1113 0.949 . S
H1090 C1094 0.949 . S
C1091 C1092 1.349 . S
C1091 C1093 1.327 . S
C1091 H1114 0.950 . S
C1092 C1091 1.349 . S
C1092 C1104 1.349 . S
C1093 C1091 1.327 . S
C1093 C1109 1.429 . S
C1093 H1115 0.950 . S
C1094 H1090 0.949 . S
C1094 C1102 1.574 . S
C1094 C1110 1.368 . S
H1095 C1103 0.950 . S
H1096 C1101 0.950 . S
H1097 C1102 0.949 . S
H1098 C1104 0.950 . S
H1099 C1105 0.950 . S
H1100 C1106 0.949 . S
C1101 H1096 0.950 . S
C1101 C1103 1.327 . S
C1101 C1107 1.429 . S
C1102 C1094 1.574 . S
C1102 H1097 0.949 . S
C1102 C1108 1.368 . S
C1103 C1087 1.349 . S
C1103 H1095 0.950 . S
C1103 C1101 1.327 . S
C1104 C1092 1.349 . S
C1104 H1098 0.950 . S
C1104 C1105 1.327 . S
C1105 H1099 0.950 . S
C1105 C1104 1.327 . S
C1105 C1109 1.429 . S
C1106 C1089 1.574 . S
C1106 H1100 0.949 . S
C1106 C1110 1.368 . S
C1107 C1088 1.429 . S
C1107 C1101 1.429 . S
C1107 C1108 1.523 . S
C1108 C1089 1.368 . S
C1108 C1102 1.368 . S
C1108 C1107 1.523 . S
C1109 C1093 1.429 . S
C1109 C1105 1.429 . S
C1109 C1110 1.523 . S
C1110 C1094 1.368 . S
C1110 C1106 1.368 . S
C1110 C1109 1.523 . S
H1111 C1086 0.950 . S
H1112 C1088 0.950 . S
H1113 C1089 0.949 . S
H1114 C1091 0.950 . S
H1115 C1093 0.950 . S
C1116 C1117 1.349 . S
C1116 C1118 1.327 . S
C1116 H1141 0.950 . S
C1117 C1116 1.349 . S
C1117 C1133 1.349 . S
C1118 C1116 1.327 . S
C1118 C1137 1.429 . S
C1118 H1142 0.950 . S
C1119 C1136 1.574 . S
C1119 C1138 1.368 . S
C1119 H1143 0.949 . S
H1120 C1124 0.949 . S
C1121 C1122 1.349 . S
C1121 C1123 1.327 . S
C1121 H1144 0.950 . S
C1122 C1121 1.349 . S
C1122 C1134 1.349 . S
C1123 C1121 1.327 . S
C1123 C1139 1.429 . S
C1123 H1145 0.950 . S
C1124 H1120 0.949 . S
C1124 C1132 1.574 . S
C1124 C1140 1.368 . S
H1125 C1133 0.950 . S
H1126 C1131 0.950 . S
H1127 C1132 0.949 . S
H1128 C1134 0.950 . S
H1129 C1135 0.950 . S
H1130 C1136 0.949 . S
C1131 H1126 0.950 . S
C1131 C1133 1.327 . S
C1131 C1137 1.429 . S
C1132 C1124 1.574 . S
C1132 H1127 0.949 . S
C1132 C1138 1.368 . S
C1133 C1117 1.349 . S
C1133 H1125 0.950 . S
C1133 C1131 1.327 . S
C1134 C1122 1.349 . S
C1134 H1128 0.950 . S
C1134 C1135 1.327 . S
C1135 H1129 0.950 . S
C1135 C1134 1.327 . S
C1135 C1139 1.429 . S
C1136 C1119 1.574 . S
C1136 H1130 0.949 . S
C1136 C1140 1.368 . S
C1137 C1118 1.429 . S
C1137 C1131 1.429 . S
C1137 C1138 1.523 . S
C1138 C1119 1.368 . S
C1138 C1132 1.368 . S
C1138 C1137 1.523 . S
C1139 C1123 1.429 . S
C1139 C1135 1.429 . S
C1139 C1140 1.523 . S
C1140 C1124 1.368 . S
C1140 C1136 1.368 . S
C1140 C1139 1.523 . S
H1141 C1116 0.950 . S
H1142 C1118 0.950 . S
H1143 C1119 0.949 . S
H1144 C1121 0.950 . S
H1145 C1123 0.950 . S
C1146 C1147 1.349 . S
C1146 C1148 1.327 . S
C1146 H1171 0.950 . S
C1147 C1146 1.349 . S
C1147 C1163 1.349 . S
C1148 C1146 1.327 . S
C1148 C1167 1.429 . S
C1148 H1172 0.950 . S
C1149 C1166 1.574 . S
C1149 C1168 1.368 . S
C1149 H1173 0.949 . S
H1150 C1154 0.949 . S
C1151 C1152 1.349 . S
C1151 C1153 1.327 . S
C1151 H1174 0.950 . S
C1152 C1151 1.349 . S
C1152 C1164 1.349 . S
C1153 C1151 1.327 . S
C1153 C1169 1.429 . S
C1153 H1175 0.950 . S
C1154 H1150 0.949 . S
C1154 C1162 1.574 . S
C1154 C1170 1.368 . S
H1155 C1163 0.950 . S
H1156 C1161 0.950 . S
H1157 C1162 0.949 . S
H1158 C1164 0.950 . S
H1159 C1165 0.950 . S
H1160 C1166 0.949 . S
C1161 H1156 0.950 . S
C1161 C1163 1.327 . S
C1161 C1167 1.429 . S
C1162 C1154 1.574 . S
C1162 H1157 0.949 . S
C1162 C1168 1.368 . S
C1163 C1147 1.349 . S
C1163 H1155 0.950 . S
C1163 C1161 1.327 . S
C1164 C1152 1.349 . S
C1164 H1158 0.950 . S
C1164 C1165 1.327 . S
C1165 H1159 0.950 . S
C1165 C1164 1.327 . S
C1165 C1169 1.429 . S
C1166 C1149 1.574 . S
C1166 H1160 0.949 . S
C1166 C1170 1.368 . S
C1167 C1148 1.429 . S
C1167 C1161 1.429 . S
C1167 C1168 1.523 . S
C1168 C1149 1.368 . S
C1168 C1162 1.368 . S
C1168 C1167 1.523 . S
C1169 C1153 1.429 . S
C1169 C1165 1.429 . S
C1169 C1170 1.523 . S
C1170 C1154 1.368 . S
C1170 C1166 1.368 . S
C1170 C1169 1.523 . S
H1171 C1146 0.950 . S
H1172 C1148 0.950 . S
H1173 C1149 0.949 . S
H1174 C1151 0.950 . S
H1175 C1153 0.950 . S
C1176 C1177 1.349 . S
C1176 C1178 1.327 . S
C1176 H1201 0.950 . S
C1177 C1176 1.349 . S
C1177 C1193 1.349 . S
C1178 C1176 1.327 . S
C1178 C1197 1.429 . S
C1178 H1202 0.950 . S
C1179 C1196 1.574 . S
C1179 C1198 1.368 . S
C1179 H1203 0.949 . S
H1180 C1184 0.949 . S
C1181 C1182 1.349 . S
C1181 C1183 1.327 . S
C1181 H1204 0.950 . S
C1182 C1181 1.349 . S
C1182 C1194 1.349 . S
C1183 C1181 1.327 . S
C1183 C1199 1.429 . S
C1183 H1205 0.950 . S
C1184 H1180 0.949 . S
C1184 C1192 1.574 . S
C1184 C1200 1.368 . S
H1185 C1193 0.950 . S
H1186 C1191 0.950 . S
H1187 C1192 0.949 . S
H1188 C1194 0.950 . S
H1189 C1195 0.950 . S
H1190 C1196 0.949 . S
C1191 H1186 0.950 . S
C1191 C1193 1.327 . S
C1191 C1197 1.429 . S
C1192 C1184 1.574 . S
C1192 H1187 0.949 . S
C1192 C1198 1.368 . S
C1193 C1177 1.349 . S
C1193 H1185 0.950 . S
C1193 C1191 1.327 . S
C1194 C1182 1.349 . S
C1194 H1188 0.950 . S
C1194 C1195 1.327 . S
C1195 H1189 0.950 . S
C1195 C1194 1.327 . S
C1195 C1199 1.429 . S
C1196 C1179 1.574 . S
C1196 H1190 0.949 . S
C1196 C1200 1.368 . S
C1197 C1178 1.429 . S
C1197 C1191 1.429 . S
C1197 C1198 1.523 . S
C1198 C1179 1.368 . S
C1198 C1192 1.368 . S
C1198 C1197 1.523 . S
C1199 C1183 1.429 . S
C1199 C1195 1.429 . S
C1199 C1200 1.523 . S
C1200 C1184 1.368 . S
C1200 C1196 1.368 . S
C1200 C1199 1.523 . S
H1201 C1176 0.950 . S
H1202 C1178 0.950 . S
H1203 C1179 0.949 . S
H1204 C1181 0.950 . S
H1205 C1183 0.950 . S
C1206 C1207 1.349 . S
C1206 C1208 1.327 . S
C1206 H1231 0.950 . S
C1207 C1206 1.349 . S
C1207 C1223 1.349 . S
C1208 C1206 1.327 . S
C1208 C1227 1.429 . S
C1208 H1232 0.950 . S
C1209 C1226 1.574 . S
C1209 C1228 1.368 . S
C1209 H1233 0.949 . S
H1210 C1214 0.949 . S
C1211 C1212 1.349 . S
C1211 C1213 1.327 . S
C1211 H1234 0.950 . S
C1212 C1211 1.349 . S
C1212 C1224 1.349 . S
C1213 C1211 1.327 . S
C1213 C1229 1.429 . S
C1213 H1235 0.950 . S
C1214 H1210 0.949 . S
C1214 C1222 1.574 . S
C1214 C1230 1.368 . S
H1215 C1223 0.950 . S
H1216 C1221 0.950 . S
H1217 C1222 0.949 . S
H1218 C1224 0.950 . S
H1219 C1225 0.950 . S
H1220 C1226 0.949 . S
C1221 H1216 0.950 . S
C1221 C1223 1.327 . S
C1221 C1227 1.429 . S
C1222 C1214 1.574 . S
C1222 H1217 0.949 . S
C1222 C1228 1.368 . S
C1223 C1207 1.349 . S
C1223 H1215 0.950 . S
C1223 C1221 1.327 . S
C1224 C1212 1.349 . S
C1224 H1218 0.950 . S
C1224 C1225 1.327 . S
C1225 H1219 0.950 . S
C1225 C1224 1.327 . S
C1225 C1229 1.429 . S
C1226 C1209 1.574 . S
C1226 H1220 0.949 . S
C1226 C1230 1.368 . S
C1227 C1208 1.429 . S
C1227 C1221 1.429 . S
C1227 C1228 1.523 . S
C1228 C1209 1.368 . S
C1228 C1222 1.368 . S
C1228 C1227 1.523 . S
C1229 C1213 1.429 . S
C1229 C1225 1.429 . S
C1229 C1230 1.523 . S
C1230 C1214 1.368 . S
C1230 C1226 1.368 . S
C1230 C1229 1.523 . S
H1231 C1206 0.950 . S
H1232 C1208 0.950 . S
H1233 C1209 0.949 . S
H1234 C1211 0.950 . S
H1235 C1213 0.950 . S
C1236 C1237 1.349 . S
C1236 C1238 1.327 . S
C1236 H1261 0.950 . S
C1237 C1236 1.349 . S
C1237 C1253 1.349 . S
C1238 C1236 1.327 . S
C1238 C1257 1.429 . S
C1238 H1262 0.950 . S
C1239 C1256 1.574 . S
C1239 C1258 1.368 . S
C1239 H1263 0.949 . S
H1240 C1244 0.949 . S
C1241 C1242 1.349 . S
C1241 C1243 1.327 . S
C1241 H1264 0.950 . S
C1242 C1241 1.349 . S
C1242 C1254 1.349 . S
C1243 C1241 1.327 . S
C1243 C1259 1.429 . S
C1243 H1265 0.950 . S
C1244 H1240 0.949 . S
C1244 C1252 1.574 . S
C1244 C1260 1.368 . S
H1245 C1253 0.950 . S
H1246 C1251 0.950 . S
H1247 C1252 0.949 . S
H1248 C1254 0.950 . S
H1249 C1255 0.950 . S
H1250 C1256 0.949 . S
C1251 H1246 0.950 . S
C1251 C1253 1.327 . S
C1251 C1257 1.429 . S
C1252 C1244 1.574 . S
C1252 H1247 0.949 . S
C1252 C1258 1.368 . S
C1253 C1237 1.349 . S
C1253 H1245 0.950 . S
C1253 C1251 1.327 . S
C1254 C1242 1.349 . S
C1254 H1248 0.950 . S
C1254 C1255 1.327 . S
C1255 H1249 0.950 . S
C1255 C1254 1.327 . S
C1255 C1259 1.429 . S
C1256 C1239 1.574 . S
C1256 H1250 0.949 . S
C1256 C1260 1.368 . S
C1257 C1238 1.429 . S
C1257 C1251 1.429 . S
C1257 C1258 1.523 . S
C1258 C1239 1.368 . S
C1258 C1252 1.368 . S
C1258 C1257 1.523 . S
C1259 C1243 1.429 . S
C1259 C1255 1.429 . S
C1259 C1260 1.523 . S
C1260 C1244 1.368 . S
C1260 C1256 1.368 . S
C1260 C1259 1.523 . S
H1261 C1236 0.950 . S
H1262 C1238 0.950 . S
H1263 C1239 0.949 . S
H1264 C1241 0.950 . S
H1265 C1243 0.950 . S
C1266 C1267 1.349 . S
C1266 C1268 1.327 . S
C1266 H1291 0.950 . S
C1267 C1266 1.349 . S
C1267 C1283 1.349 . S
C1268 C1266 1.327 . S
C1268 C1287 1.429 . S
C1268 H1292 0.950 . S
C1269 C1286 1.574 . S
C1269 C1288 1.368 . S
C1269 H1293 0.949 . S
H1270 C1274 0.949 . S
C1271 C1272 1.349 . S
C1271 C1273 1.327 . S
C1271 H1294 0.950 . S
C1272 C1271 1.349 . S
C1272 C1284 1.349 . S
C1273 C1271 1.327 . S
C1273 C1289 1.429 . S
C1273 H1295 0.950 . S
C1274 H1270 0.949 . S
C1274 C1282 1.574 . S
C1274 C1290 1.368 . S
H1275 C1283 0.950 . S
H1276 C1281 0.950 . S
H1277 C1282 0.949 . S
H1278 C1284 0.950 . S
H1279 C1285 0.950 . S
H1280 C1286 0.949 . S
C1281 H1276 0.950 . S
C1281 C1283 1.327 . S
C1281 C1287 1.429 . S
C1282 C1274 1.574 . S
C1282 H1277 0.949 . S
C1282 C1288 1.368 . S
C1283 C1267 1.349 . S
C1283 H1275 0.950 . S
C1283 C1281 1.327 . S
C1284 C1272 1.349 . S
C1284 H1278 0.950 . S
C1284 C1285 1.327 . S
C1285 H1279 0.950 . S
C1285 C1284 1.327 . S
C1285 C1289 1.429 . S
C1286 C1269 1.574 . S
C1286 H1280 0.949 . S
C1286 C1290 1.368 . S
C1287 C1268 1.429 . S
C1287 C1281 1.429 . S
C1287 C1288 1.523 . S
C1288 C1269 1.368 . S
C1288 C1282 1.368 . S
C1288 C1287 1.523 . S
C1289 C1273 1.429 . S
C1289 C1285 1.429 . S
C1289 C1290 1.523 . S
C1290 C1274 1.368 . S
C1290 C1286 1.368 . S
C1290 C1289 1.523 . S
H1291 C1266 0.950 . S
H1292 C1268 0.950 . S
H1293 C1269 0.949 . S
H1294 C1271 0.950 . S
H1295 C1273 0.950 . S
C1296 C1297 1.349 . S
C1296 C1298 1.327 . S
C1296 H1321 0.950 . S
C1297 C1296 1.349 . S
C1297 C1313 1.349 . S
C1298 C1296 1.327 . S
C1298 C1317 1.429 . S
C1298 H1322 0.950 . S
C1299 C1316 1.574 . S
C1299 C1318 1.368 . S
C1299 H1323 0.949 . S
H1300 C1304 0.949 . S
C1301 C1302 1.349 . S
C1301 C1303 1.327 . S
C1301 H1324 0.950 . S
C1302 C1301 1.349 . S
C1302 C1314 1.349 . S
C1303 C1301 1.327 . S
C1303 C1319 1.429 . S
C1303 H1325 0.950 . S
C1304 H1300 0.949 . S
C1304 C1312 1.574 . S
C1304 C1320 1.368 . S
H1305 C1313 0.950 . S
H1306 C1311 0.950 . S
H1307 C1312 0.949 . S
H1308 C1314 0.950 . S
H1309 C1315 0.950 . S
H1310 C1316 0.949 . S
C1311 H1306 0.950 . S
C1311 C1313 1.327 . S
C1311 C1317 1.429 . S
C1312 C1304 1.574 . S
C1312 H1307 0.949 . S
C1312 C1318 1.368 . S
C1313 C1297 1.349 . S
C1313 H1305 0.950 . S
C1313 C1311 1.327 . S
C1314 C1302 1.349 . S
C1314 H1308 0.950 . S
C1314 C1315 1.327 . S
C1315 H1309 0.950 . S
C1315 C1314 1.327 . S
C1315 C1319 1.429 . S
C1316 C1299 1.574 . S
C1316 H1310 0.949 . S
C1316 C1320 1.368 . S
C1317 C1298 1.429 . S
C1317 C1311 1.429 . S
C1317 C1318 1.523 . S
C1318 C1299 1.368 . S
C1318 C1312 1.368 . S
C1318 C1317 1.523 . S
C1319 C1303 1.429 . S
C1319 C1315 1.429 . S
C1319 C1320 1.523 . S
C1320 C1304 1.368 . S
C1320 C1316 1.368 . S
C1320 C1319 1.523 . S
H1321 C1296 0.950 . S
H1322 C1298 0.950 . S
H1323 C1299 0.949 . S
H1324 C1301 0.950 . S
H1325 C1303 0.950 . S
C1326 C1327 1.349 . S
C1326 C1328 1.327 . S
C1326 H1351 0.950 . S
C1327 C1326 1.349 . S
C1327 C1343 1.349 . S
C1328 C1326 1.327 . S
C1328 C1347 1.429 . S
C1328 H1352 0.950 . S
C1329 C1346 1.574 . S
C1329 C1348 1.368 . S
C1329 H1353 0.949 . S
H1330 C1334 0.949 . S
C1331 C1332 1.349 1_545 S
C1331 C1333 1.327 . S
C1331 H1354 0.950 1_545 S
C1332 C1331 1.349 1_565 S
C1332 C1344 1.349 . S
C1333 C1331 1.327 . S
C1333 C1349 1.429 . S
C1333 H1355 0.950 . S
C1334 H1330 0.949 . S
C1334 C1342 1.574 . S
C1334 C1350 1.368 . S
H1335 C1343 0.950 . S
H1336 C1341 0.950 . S
H1337 C1342 0.949 . S
H1338 C1344 0.950 . S
H1339 C1345 0.950 . S
H1340 C1346 0.949 . S
C1341 H1336 0.950 . S
C1341 C1343 1.327 . S
C1341 C1347 1.429 . S
C1342 C1334 1.574 . S
C1342 H1337 0.949 . S
C1342 C1348 1.368 . S
C1343 C1327 1.349 . S
C1343 H1335 0.950 . S
C1343 C1341 1.327 . S
C1344 C1332 1.349 . S
C1344 H1338 0.950 . S
C1344 C1345 1.327 1_565 S
C1345 H1339 0.950 . S
C1345 C1344 1.327 1_545 S
C1345 C1349 1.429 . S
C1346 C1329 1.574 . S
C1346 H1340 0.949 . S
C1346 C1350 1.368 . S
C1347 C1328 1.429 . S
C1347 C1341 1.429 . S
C1347 C1348 1.523 . S
C1348 C1329 1.368 . S
C1348 C1342 1.368 . S
C1348 C1347 1.523 . S
C1349 C1333 1.429 . S
C1349 C1345 1.429 . S
C1349 C1350 1.523 . S
C1350 C1334 1.368 . S
C1350 C1346 1.368 . S
C1350 C1349 1.523 . S
H1351 C1326 0.950 . S
H1352 C1328 0.950 . S
H1353 C1329 0.949 . S
H1354 C1331 0.950 1_565 S
H1355 C1333 0.950 . S
C1356 C1357 1.349 . S
C1356 C1358 1.327 . S
C1356 H1381 0.950 . S
C1357 C1356 1.349 . S
C1357 C1373 1.349 . S
C1358 C1356 1.327 . S
C1358 C1377 1.429 . S
C1358 H1382 0.950 . S
C1359 C1376 1.574 . S
C1359 C1378 1.368 . S
C1359 H1383 0.949 . S
H1360 C1364 0.949 . S
C1361 C1362 1.349 . S
C1361 C1363 1.327 . S
C1361 H1384 0.950 . S
C1362 C1361 1.349 . S
C1362 C1374 1.349 . S
C1363 C1361 1.327 . S
C1363 C1379 1.429 . S
C1363 H1385 0.950 . S
C1364 H1360 0.949 . S
C1364 C1372 1.574 . S
C1364 C1380 1.368 . S
H1365 C1373 0.950 . S
H1366 C1371 0.950 . S
H1367 C1372 0.949 . S
H1368 C1374 0.950 . S
H1369 C1375 0.950 . S
H1370 C1376 0.949 . S
C1371 H1366 0.950 . S
C1371 C1373 1.327 . S
C1371 C1377 1.429 . S
C1372 C1364 1.574 . S
C1372 H1367 0.949 . S
C1372 C1378 1.368 . S
C1373 C1357 1.349 . S
C1373 H1365 0.950 . S
C1373 C1371 1.327 . S
C1374 C1362 1.349 . S
C1374 H1368 0.950 . S
C1374 C1375 1.327 . S
C1375 H1369 0.950 . S
C1375 C1374 1.327 . S
C1375 C1379 1.429 . S
C1376 C1359 1.574 . S
C1376 H1370 0.949 . S
C1376 C1380 1.368 . S
C1377 C1358 1.429 . S
C1377 C1371 1.429 . S
C1377 C1378 1.523 . S
C1378 C1359 1.368 . S
C1378 C1372 1.368 . S
C1378 C1377 1.523 . S
C1379 C1363 1.429 . S
C1379 C1375 1.429 . S
C1379 C1380 1.523 . S
C1380 C1364 1.368 . S
C1380 C1376 1.368 . S
C1380 C1379 1.523 . S
H1381 C1356 0.950 . S
H1382 C1358 0.950 . S
H1383 C1359 0.949 . S
H1384 C1361 0.950 . S
H1385 C1363 0.950 . S
C1386 C1387 1.349 1_545 S
C1386 C1388 1.327 . S
C1386 H1411 0.950 . S
C1387 C1386 1.349 1_565 S
C1387 C1403 1.349 . S
C1388 C1386 1.327 . S
C1388 C1407 1.429 1_545 S
C1388 H1412 0.950 . S
C1389 C1406 1.574 . S
C1389 C1408 1.368 . S
C1389 H1413 0.949 . S
H1390 C1394 0.949 1_545 S
C1391 C1392 1.349 . S
C1391 C1393 1.327 . S
C1391 H1414 0.950 . S
C1392 C1391 1.349 . S
C1392 C1404 1.349 . S
C1393 C1391 1.327 . S
C1393 C1409 1.429 . S
C1393 H1415 0.950 . S
C1394 H1390 0.949 1_565 S
C1394 C1402 1.574 . S
C1394 C1410 1.368 . S
H1395 C1403 0.950 . S
H1396 C1401 0.950 . S
H1397 C1402 0.949 1_545 S
H1398 C1404 0.950 . S
H1399 C1405 0.948 1_545 S
H1400 C1406 0.949 . S
C1401 H1396 0.950 . S
C1401 C1403 1.327 . S
C1401 C1407 1.429 . S
C1402 C1394 1.574 . S
C1402 H1397 0.949 1_565 S
C1402 C1408 1.368 . S
C1403 C1387 1.349 . S
C1403 H1395 0.950 . S
C1403 C1401 1.327 . S
C1404 C1392 1.349 . S
C1404 H1398 0.950 . S
C1404 C1405 1.327 . S
C1405 H1399 0.948 1_565 S
C1405 C1404 1.327 . S
C1405 C1409 1.429 . S
C1406 C1389 1.574 . S
C1406 H1400 0.949 . S
C1406 C1410 1.368 . S
C1407 C1388 1.429 1_565 S
C1407 C1401 1.429 . S
C1407 C1408 1.523 . S
C1408 C1389 1.368 . S
C1408 C1402 1.368 . S
C1408 C1407 1.523 . S
C1409 C1393 1.429 . S
C1409 C1405 1.429 . S
C1409 C1410 1.523 . S
C1410 C1394 1.368 . S
C1410 C1406 1.368 . S
C1410 C1409 1.523 . S
H1411 C1386 0.950 . S
H1412 C1388 0.950 . S
H1413 C1389 0.949 . S
H1414 C1391 0.950 . S
H1415 C1393 0.950 . S
C1416 C1417 1.349 . S
C1416 C1418 1.327 . S
C1416 H1441 0.950 . S
C1417 C1416 1.349 . S
C1417 C1433 1.349 . S
C1418 C1416 1.327 . S
C1418 C1437 1.429 . S
C1418 H1442 0.950 . S
C1419 C1436 1.574 . S
C1419 C1438 1.368 . S
C1419 H1443 0.949 . S
H1420 C1424 0.949 . S
C1421 C1422 1.349 . S
C1421 C1423 1.327 . S
C1421 H1444 0.950 . S
C1422 C1421 1.349 . S
C1422 C1434 1.349 . S
C1423 C1421 1.327 . S
C1423 C1439 1.429 . S
C1423 H1445 0.950 . S
C1424 H1420 0.949 . S
C1424 C1432 1.574 . S
C1424 C1440 1.368 . S
H1425 C1433 0.950 . S
H1426 C1431 0.950 . S
H1427 C1432 0.949 . S
H1428 C1434 0.950 . S
H1429 C1435 0.950 . S
H1430 C1436 0.949 . S
C1431 H1426 0.950 . S
C1431 C1433 1.327 . S
C1431 C1437 1.429 . S
C1432 C1424 1.574 . S
C1432 H1427 0.949 . S
C1432 C1438 1.368 . S
C1433 C1417 1.349 . S
C1433 H1425 0.950 . S
C1433 C1431 1.327 . S
C1434 C1422 1.349 . S
C1434 H1428 0.950 . S
C1434 C1435 1.327 . S
C1435 H1429 0.950 . S
C1435 C1434 1.327 . S
C1435 C1439 1.429 . S
C1436 C1419 1.574 . S
C1436 H1430 0.949 . S
C1436 C1440 1.368 . S
C1437 C1418 1.429 . S
C1437 C1431 1.429 . S
C1437 C1438 1.523 . S
C1438 C1419 1.368 . S
C1438 C1432 1.368 . S
C1438 C1437 1.523 . S
C1439 C1423 1.429 . S
C1439 C1435 1.429 . S
C1439 C1440 1.523 . S
C1440 C1424 1.368 . S
C1440 C1436 1.368 . S
C1440 C1439 1.523 . S
H1441 C1416 0.950 . S
H1442 C1418 0.950 . S
H1443 C1419 0.949 . S
H1444 C1421 0.950 . S
H1445 C1423 0.950 . S
C1446 C1447 1.349 . S
C1446 C1448 1.327 . S
C1446 H1471 0.950 . S
C1447 C1446 1.349 . S
C1447 C1463 1.349 . S
C1448 C1446 1.327 . S
C1448 C1467 1.429 . S
C1448 H1472 0.950 . S
C1449 C1466 1.574 . S
C1449 C1468 1.368 . S
C1449 H1473 0.949 . S
H1450 C1454 0.949 . S
C1451 C1452 1.349 . S
C1451 C1453 1.327 . S
C1451 H1474 0.950 . S
C1452 C1451 1.349 . S
C1452 C1464 1.349 . S
C1453 C1451 1.327 . S
C1453 C1469 1.429 . S
C1453 H1475 0.950 . S
C1454 H1450 0.949 . S
C1454 C1462 1.574 . S
C1454 C1470 1.368 . S
H1455 C1463 0.950 . S
H1456 C1461 0.950 . S
H1457 C1462 0.949 . S
H1458 C1464 0.950 . S
H1459 C1465 0.950 . S
H1460 C1466 0.949 . S
C1461 H1456 0.950 . S
C1461 C1463 1.327 . S
C1461 C1467 1.429 . S
C1462 C1454 1.574 . S
C1462 H1457 0.949 . S
C1462 C1468 1.368 . S
C1463 C1447 1.349 . S
C1463 H1455 0.950 . S
C1463 C1461 1.327 . S
C1464 C1452 1.349 . S
C1464 H1458 0.950 . S
C1464 C1465 1.327 . S
C1465 H1459 0.950 . S
C1465 C1464 1.327 . S
C1465 C1469 1.429 . S
C1466 C1449 1.574 . S
C1466 H1460 0.949 . S
C1466 C1470 1.368 . S
C1467 C1448 1.429 . S
C1467 C1461 1.429 . S
C1467 C1468 1.523 . S
C1468 C1449 1.368 . S
C1468 C1462 1.368 . S
C1468 C1467 1.523 . S
C1469 C1453 1.429 . S
C1469 C1465 1.429 . S
C1469 C1470 1.523 . S
C1470 C1454 1.368 . S
C1470 C1466 1.368 . S
C1470 C1469 1.523 . S
H1471 C1446 0.950 . S
H1472 C1448 0.950 . S
H1473 C1449 0.949 . S
H1474 C1451 0.950 . S
H1475 C1453 0.950 . S
C1476 C1477 1.349 . S
C1476 C1478 1.327 . S
C1476 H1501 0.950 . S
C1477 C1476 1.349 . S
C1477 C1493 1.349 . S
C1478 C1476 1.327 . S
C1478 C1497 1.429 . S
C1478 H1502 0.950 . S
C1479 C1496 1.574 . S
C1479 C1498 1.368 . S
C1479 H1503 0.949 . S
H1480 C1484 0.949 . S
C1481 C1482 1.349 . S
C1481 C1483 1.327 . S
C1481 H1504 0.950 . S
C1482 C1481 1.349 . S
C1482 C1494 1.349 . S
C1483 C1481 1.327 . S
C1483 C1499 1.429 . S
C1483 H1505 0.950 . S
C1484 H1480 0.949 . S
C1484 C1492 1.574 . S
C1484 C1500 1.368 . S
H1485 C1493 0.950 . S
H1486 C1491 0.950 . S
H1487 C1492 0.949 . S
H1488 C1494 0.950 . S
H1489 C1495 0.950 . S
H1490 C1496 0.949 . S
C1491 H1486 0.950 . S
C1491 C1493 1.327 . S
C1491 C1497 1.429 . S
C1492 C1484 1.574 . S
C1492 H1487 0.949 . S
C1492 C1498 1.368 . S
C1493 C1477 1.349 . S
C1493 H1485 0.950 . S
C1493 C1491 1.327 . S
C1494 C1482 1.349 . S
C1494 H1488 0.950 . S
C1494 C1495 1.327 . S
C1495 H1489 0.950 . S
C1495 C1494 1.327 . S
C1495 C1499 1.429 . S
C1496 C1479 1.574 . S
C1496 H1490 0.949 . S
C1496 C1500 1.368 . S
C1497 C1478 1.429 . S
C1497 C1491 1.429 . S
C1497 C1498 1.523 . S
C1498 C1479 1.368 . S
C1498 C1492 1.368 . S
C1498 C1497 1.523 . S
C1499 C1483 1.429 . S
C1499 C1495 1.429 . S
C1499 C1500 1.523 . S
C1500 C1484 1.368 . S
C1500 C1496 1.368 . S
C1500 C1499 1.523 . S
H1501 C1476 0.950 . S
H1502 C1478 0.950 . S
H1503 C1479 0.949 . S
H1504 C1481 0.950 . S
H1505 C1483 0.950 . S
C1506 C1507 1.349 1_554 S
C1506 C1508 1.327 . S
C1506 H1531 0.950 . S
C1507 C1506 1.349 1_556 S
C1507 C1523 1.349 . S
C1508 C1506 1.327 . S
C1508 C1527 1.429 1_554 S
C1508 H1532 0.950 . S
C1509 C1526 1.574 . S
C1509 C1528 1.368 . S
C1509 H1533 0.949 . S
H1510 C1514 0.949 1_554 S
C1511 C1512 1.349 . S
C1511 C1513 1.327 . S
C1511 H1534 0.950 . S
C1512 C1511 1.349 . S
C1512 C1524 1.349 . S
C1513 C1511 1.327 . S
C1513 C1529 1.429 . S
C1513 H1535 0.950 . S
C1514 H1510 0.949 1_556 S
C1514 C1522 1.574 . S
C1514 C1530 1.368 . S
H1515 C1523 0.950 . S
H1516 C1521 0.950 . S
H1517 C1522 0.949 1_554 S
H1518 C1524 0.950 . S
H1519 C1525 0.950 . S
H1520 C1526 0.949 . S
C1521 H1516 0.950 . S
C1521 C1523 1.327 . S
C1521 C1527 1.429 . S
C1522 C1514 1.574 . S
C1522 H1517 0.949 1_556 S
C1522 C1528 1.368 . S
C1523 C1507 1.349 . S
C1523 H1515 0.950 . S
C1523 C1521 1.327 . S
C1524 C1512 1.349 . S
C1524 H1518 0.950 . S
C1524 C1525 1.327 . S
C1525 H1519 0.950 . S
C1525 C1524 1.327 . S
C1525 C1529 1.429 . S
C1526 C1509 1.574 . S
C1526 H1520 0.949 . S
C1526 C1530 1.368 . S
C1527 C1508 1.429 1_556 S
C1527 C1521 1.429 . S
C1527 C1528 1.523 . S
C1528 C1509 1.368 . S
C1528 C1522 1.368 . S
C1528 C1527 1.523 . S
C1529 C1513 1.429 . S
C1529 C1525 1.429 . S
C1529 C1530 1.523 . S
C1530 C1514 1.368 . S
C1530 C1526 1.368 . S
C1530 C1529 1.523 . S
H1531 C1506 0.950 . S
H1532 C1508 0.950 . S
H1533 C1509 0.949 . S
H1534 C1511 0.950 . S
H1535 C1513 0.950 . S
C1536 C1537 1.349 . S
C1536 C1538 1.327 . S
C1536 H1561 0.950 . S
C1537 C1536 1.349 . S
C1537 C1553 1.349 1_556 S
C1538 C1536 1.327 . S
C1538 C1557 1.429 . S
C1538 H1562 0.950 . S
C1539 C1556 1.574 . S
C1539 C1558 1.368 1_554 S
C1539 H1563 0.949 . S
H1540 C1544 0.949 . S
C1541 C1542 1.349 . S
C1541 C1543 1.327 . S
C1541 H1564 0.950 1_556 S
C1542 C1541 1.349 . S
C1542 C1554 1.349 . S
C1543 C1541 1.327 . S
C1543 C1559 1.429 . S
C1543 H1565 0.950 1_556 S
C1544 H1540 0.949 . S
C1544 C1552 1.574 . S
C1544 C1560 1.368 . S
H1545 C1553 0.950 . S
H1546 C1551 0.950 . S
H1547 C1552 0.949 . S
H1548 C1554 0.950 . S
H1549 C1555 0.950 . S
H1550 C1556 0.949 . S
C1551 H1546 0.950 . S
C1551 C1553 1.327 . S
C1551 C1557 1.429 1_554 S
C1552 C1544 1.574 . S
C1552 H1547 0.949 . S
C1552 C1558 1.368 . S
C1553 C1537 1.349 1_554 S
C1553 H1545 0.950 . S
C1553 C1551 1.327 . S
C1554 C1542 1.349 . S
C1554 H1548 0.950 . S
C1554 C1555 1.327 . S
C1555 H1549 0.950 . S
C1555 C1554 1.327 . S
C1555 C1559 1.429 . S
C1556 C1539 1.574 . S
C1556 H1550 0.949 . S
C1556 C1560 1.368 1_554 S
C1557 C1538 1.429 . S
C1557 C1551 1.429 1_556 S
C1557 C1558 1.523 . S
C1558 C1539 1.368 1_556 S
C1558 C1552 1.368 . S
C1558 C1557 1.523 . S
C1559 C1543 1.429 . S
C1559 C1555 1.429 . S
C1559 C1560 1.523 . S
C1560 C1544 1.368 . S
C1560 C1556 1.368 1_556 S
C1560 C1559 1.523 . S
H1561 C1536 0.950 . S
H1562 C1538 0.950 . S
H1563 C1539 0.949 . S
H1564 C1541 0.950 1_554 S
H1565 C1543 0.950 1_554 S
C1566 C1567 1.349 . S
C1566 C1568 1.327 . S
C1566 H1591 0.950 . S
C1567 C1566 1.349 . S
C1567 C1583 1.349 . S
C1568 C1566 1.327 . S
C1568 C1587 1.429 . S
C1568 H1592 0.950 . S
C1569 C1586 1.574 . S
C1569 C1588 1.368 . S
C1569 H1593 0.946 . S
H1570 C1574 0.949 . S
C1571 C1572 1.351 . S
C1571 C1573 1.319 1_455 S
C1571 H1594 0.955 . S
C1572 C1571 1.351 . S
C1572 C1584 1.349 1_455 S
C1573 C1571 1.319 1_655 S
C1573 C1589 1.429 . S
C1573 H1595 0.950 . S
C1574 H1570 0.949 . S
C1574 C1582 1.574 . S
C1574 C1590 1.368 . S
H1575 C1583 0.946 1_556 S
H1576 C1581 0.941 1_556 S
H1577 C1582 0.949 . S
H1578 C1584 0.950 . S
H1579 C1585 0.950 . S
H1580 C1586 0.976 . S
C1581 H1576 0.941 1_554 S
C1581 C1583 1.327 . S
C1581 C1587 1.429 . S
C1582 C1574 1.574 . S
C1582 H1577 0.949 . S
C1582 C1588 1.368 . S
C1583 C1567 1.349 . S
C1583 H1575 0.946 1_554 S
C1583 C1581 1.327 . S
C1584 C1572 1.349 1_655 S
C1584 H1578 0.950 . S
C1584 C1585 1.327 . S
C1585 H1579 0.950 . S
C1585 C1584 1.327 . S
C1585 C1589 1.429 . S
C1586 C1569 1.574 . S
C1586 H1580 0.976 . S
C1586 C1590 1.368 . S
C1587 C1568 1.429 . S
C1587 C1581 1.429 . S
C1587 C1588 1.523 . S
C1588 C1569 1.368 . S
C1588 C1582 1.368 . S
C1588 C1587 1.523 . S
C1589 C1573 1.429 . S
C1589 C1585 1.429 . S
C1589 C1590 1.523 . S
C1590 C1574 1.368 . S
C1590 C1586 1.368 . S
C1590 C1589 1.523 . S
H1591 C1566 0.950 . S
H1592 C1568 0.950 . S
H1593 C1569 0.946 . S
H1594 C1571 0.955 . S
H1595 C1573 0.950 . S
C1596 C1597 1.349 . S
C1596 C1598 1.327 . S
C1596 H1621 0.950 . S
C1597 C1596 1.349 . S
C1597 C1613 1.349 . S
C1598 C1596 1.327 . S
C1598 C1617 1.429 . S
C1598 H1622 0.950 . S
C1599 C1616 1.574 . S
C1599 C1618 1.368 . S
C1599 H1623 0.949 . S
H1600 C1604 0.949 . S
C1601 C1602 1.349 . S
C1601 C1603 1.327 . S
C1601 H1624 0.950 . S
C1602 C1601 1.349 . S
C1602 C1614 1.349 . S
C1603 C1601 1.327 . S
C1603 C1619 1.429 . S
C1603 H1625 0.950 . S
C1604 H1600 0.949 . S
C1604 C1612 1.574 . S
C1604 C1620 1.368 . S
H1605 C1613 0.950 . S
H1606 C1611 0.950 . S
H1607 C1612 0.949 . S
H1608 C1614 0.950 . S
H1609 C1615 0.950 . S
H1610 C1616 0.949 . S
C1611 H1606 0.950 . S
C1611 C1613 1.327 . S
C1611 C1617 1.429 . S
C1612 C1604 1.574 . S
C1612 H1607 0.949 . S
C1612 C1618 1.368 . S
C1613 C1597 1.349 . S
C1613 H1605 0.950 . S
C1613 C1611 1.327 . S
C1614 C1602 1.349 . S
C1614 H1608 0.950 . S
C1614 C1615 1.327 . S
C1615 H1609 0.950 . S
C1615 C1614 1.327 . S
C1615 C1619 1.429 . S
C1616 C1599 1.574 . S
C1616 H1610 0.949 . S
C1616 C1620 1.368 . S
C1617 C1598 1.429 . S
C1617 C1611 1.429 . S
C1617 C1618 1.523 . S
C1618 C1599 1.368 . S
C1618 C1612 1.368 . S
C1618 C1617 1.523 . S
C1619 C1603 1.429 . S
C1619 C1615 1.429 . S
C1619 C1620 1.523 . S
C1620 C1604 1.368 . S
C1620 C1616 1.368 . S
C1620 C1619 1.523 . S
H1621 C1596 0.950 . S
H1622 C1598 0.950 . S
H1623 C1599 0.949 . S
H1624 C1601 0.950 . S
H1625 C1603 0.950 . S
C1626 C1627 1.349 1_655 S
C1626 C1628 1.327 . S
C1626 H1651 0.950 . S
C1627 C1626 1.349 1_455 S
C1627 C1643 1.349 . S
C1628 C1626 1.327 . S
C1628 C1647 1.429 1_655 S
C1628 H1652 0.950 . S
C1629 C1646 1.574 . S
C1629 C1648 1.349 1_455 S
C1629 H1653 0.949 . S
H1630 C1634 0.949 . S
C1631 C1632 1.349 . S
C1631 C1633 1.327 . S
C1631 H1654 0.935 1_655 S
C1632 C1631 1.349 . S
C1632 C1644 1.349 . S
C1633 C1631 1.327 . S
C1633 C1649 1.429 . S
C1633 H1655 0.950 1_655 S
C1634 H1630 0.949 . S
C1634 C1642 1.574 . S
C1634 C1650 1.368 . S
H1635 C1643 0.950 . S
H1636 C1641 0.950 . S
H1637 C1642 0.949 . S
H1638 C1644 0.950 . S
H1639 C1645 0.950 . S
H1640 C1646 0.949 . S
C1641 H1636 0.950 . S
C1641 C1643 1.327 . S
C1641 C1647 1.429 . S
C1642 C1634 1.574 . S
C1642 H1637 0.949 . S
C1642 C1648 1.396 . S
C1643 C1627 1.349 . S
C1643 H1635 0.950 . S
C1643 C1641 1.327 . S
C1644 C1632 1.349 . S
C1644 H1638 0.950 . S
C1644 C1645 1.327 . S
C1645 H1639 0.950 . S
C1645 C1644 1.327 . S
C1645 C1649 1.429 . S
C1646 C1629 1.574 . S
C1646 H1640 0.949 . S
C1646 C1650 1.368 1_455 S
C1647 C1628 1.429 1_455 S
C1647 C1641 1.429 . S
C1647 C1648 1.513 1_455 S
C1648 C1629 1.349 1_655 S
C1648 C1642 1.396 . S
C1648 C1647 1.513 1_655 S
C1649 C1633 1.429 . S
C1649 C1645 1.429 . S
C1649 C1650 1.523 . S
C1650 C1634 1.368 . S
C1650 C1646 1.368 1_655 S
C1650 C1649 1.523 . S
H1651 C1626 0.950 . S
H1652 C1628 0.950 . S
H1653 C1629 0.949 . S
H1654 C1631 0.935 1_455 S
H1655 C1633 0.950 1_455 S
C1656 C1657 1.349 . S
C1656 C1658 1.327 . S
C1656 H1681 0.950 . S
C1657 C1656 1.349 . S
C1657 C1673 1.349 . S
C1658 C1656 1.327 . S
C1658 C1677 1.429 . S
C1658 H1682 0.950 . S
C1659 C1676 1.574 . S
C1659 C1678 1.368 . S
C1659 H1683 0.949 . S
H1660 C1664 0.949 . S
C1661 C1662 1.349 . S
C1661 C1663 1.327 . S
C1661 H1684 0.950 . S
C1662 C1661 1.349 . S
C1662 C1674 1.349 . S
C1663 C1661 1.327 . S
C1663 C1679 1.429 . S
C1663 H1685 0.950 . S
C1664 H1660 0.949 . S
C1664 C1672 1.574 . S
C1664 C1680 1.368 . S
H1665 C1673 0.950 . S
H1666 C1671 0.950 . S
H1667 C1672 0.949 . S
H1668 C1674 0.950 . S
H1669 C1675 0.950 . S
H1670 C1676 0.949 . S
C1671 H1666 0.950 . S
C1671 C1673 1.327 . S
C1671 C1677 1.429 . S
C1672 C1664 1.574 . S
C1672 H1667 0.949 . S
C1672 C1678 1.368 . S
C1673 C1657 1.349 . S
C1673 H1665 0.950 . S
C1673 C1671 1.327 . S
C1674 C1662 1.349 . S
C1674 H1668 0.950 . S
C1674 C1675 1.327 . S
C1675 H1669 0.950 . S
C1675 C1674 1.327 . S
C1675 C1679 1.429 . S
C1676 C1659 1.574 . S
C1676 H1670 0.949 . S
C1676 C1680 1.368 . S
C1677 C1658 1.429 . S
C1677 C1671 1.429 . S
C1677 C1678 1.523 . S
C1678 C1659 1.368 . S
C1678 C1672 1.368 . S
C1678 C1677 1.523 . S
C1679 C1663 1.429 . S
C1679 C1675 1.429 . S
C1679 C1680 1.523 . S
C1680 C1664 1.368 . S
C1680 C1676 1.368 . S
C1680 C1679 1.523 . S
H1681 C1656 0.950 . S
H1682 C1658 0.950 . S
H1683 C1659 0.949 . S
H1684 C1661 0.950 . S
H1685 C1663 0.950 . S
C1686 C1687 1.349 1_455 S
C1686 C1688 1.327 1_455 S
C1686 H1711 0.950 . S
C1687 C1686 1.349 1_655 S
C1687 C1703 1.349 . S
C1688 C1686 1.327 1_655 S
C1688 C1707 1.434 . S
C1688 H1712 0.944 1_655 S
C1689 C1706 1.574 . S
C1689 C1708 1.368 . S
C1689 H1713 0.949 . S
H1690 C1694 0.949 . S
C1691 C1692 1.349 . S
C1691 C1693 1.327 . S
C1691 H1714 0.950 . S
C1692 C1691 1.349 . S
C1692 C1704 1.349 . S
C1693 C1691 1.327 . S
C1693 C1709 1.429 . S
C1693 H1715 0.950 . S
C1694 H1690 0.949 . S
C1694 C1702 1.574 . S
C1694 C1710 1.368 . S
H1695 C1703 0.950 . S
H1696 C1701 0.950 . S
H1697 C1702 0.949 1_455 S
H1698 C1704 0.950 . S
H1699 C1705 0.950 . S
H1700 C1706 0.949 . S
C1701 H1696 0.950 . S
C1701 C1703 1.327 . S
C1701 C1707 1.429 . S
C1702 C1694 1.574 . S
C1702 H1697 0.949 1_655 S
C1702 C1708 1.368 . S
C1703 C1687 1.349 . S
C1703 H1695 0.950 . S
C1703 C1701 1.327 . S
C1704 C1692 1.349 . S
C1704 H1698 0.950 . S
C1704 C1705 1.327 . S
C1705 H1699 0.950 . S
C1705 C1704 1.327 . S
C1705 C1709 1.429 . S
C1706 C1689 1.574 . S
C1706 H1700 0.949 . S
C1706 C1710 1.368 . S
C1707 C1688 1.434 . S
C1707 C1701 1.429 . S
C1707 C1708 1.523 . S
C1708 C1689 1.368 . S
C1708 C1702 1.368 . S
C1708 C1707 1.523 . S
C1709 C1693 1.429 . S
C1709 C1705 1.429 . S
C1709 C1710 1.523 . S
C1710 C1694 1.368 . S
C1710 C1706 1.368 . S
C1710 C1709 1.523 . S
H1711 C1686 0.950 . S
H1712 C1688 0.944 1_455 S
H1713 C1689 0.949 . S
H1714 C1691 0.950 . S
H1715 C1693 0.950 . S
C1716 C1717 1.349 . S
C1716 C1718 1.327 . S
C1716 H1741 0.950 . S
C1717 C1716 1.349 . S
C1717 C1733 1.349 . S
C1718 C1716 1.327 . S
C1718 C1737 1.429 . S
C1718 H1742 0.950 . S
C1719 C1736 1.574 . S
C1719 C1738 1.368 . S
C1719 H1743 0.949 . S
H1720 C1724 0.949 . S
C1721 C1722 1.349 . S
C1721 C1723 1.327 . S
C1721 H1744 0.950 . S
C1722 C1721 1.349 . S
C1722 C1734 1.349 . S
C1723 C1721 1.327 . S
C1723 C1739 1.429 . S
C1723 H1745 0.950 . S
C1724 H1720 0.949 . S
C1724 C1732 1.574 . S
C1724 C1740 1.368 . S
H1725 C1733 0.950 . S
H1726 C1731 0.950 . S
H1727 C1732 0.949 . S
H1728 C1734 0.950 . S
H1729 C1735 0.950 . S
H1730 C1736 0.949 . S
C1731 H1726 0.950 . S
C1731 C1733 1.327 . S
C1731 C1737 1.429 . S
C1732 C1724 1.574 . S
C1732 H1727 0.949 . S
C1732 C1738 1.368 . S
C1733 C1717 1.349 . S
C1733 H1725 0.950 . S
C1733 C1731 1.327 . S
C1734 C1722 1.349 . S
C1734 H1728 0.950 . S
C1734 C1735 1.327 . S
C1735 H1729 0.950 . S
C1735 C1734 1.327 . S
C1735 C1739 1.429 . S
C1736 C1719 1.574 . S
C1736 H1730 0.949 . S
C1736 C1740 1.368 . S
C1737 C1718 1.429 . S
C1737 C1731 1.429 . S
C1737 C1738 1.523 . S
C1738 C1719 1.368 . S
C1738 C1732 1.368 . S
C1738 C1737 1.523 . S
C1739 C1723 1.429 . S
C1739 C1735 1.429 . S
C1739 C1740 1.523 . S
C1740 C1724 1.368 . S
C1740 C1736 1.368 . S
C1740 C1739 1.523 . S
H1741 C1716 0.950 . S
H1742 C1718 0.950 . S
H1743 C1719 0.949 . S
H1744 C1721 0.950 . S
H1745 C1723 0.950 . S
C1746 C1747 1.349 . S
C1746 C1748 1.327 . S
C1746 H1771 0.950 . S
C1747 C1746 1.349 . S
C1747 C1763 1.349 . S
C1748 C1746 1.327 . S
C1748 C1767 1.429 . S
C1748 H1772 0.950 . S
C1749 C1766 1.574 . S
C1749 C1768 1.368 . S
C1749 H1773 0.949 . S
H1750 C1754 0.949 . S
C1751 C1752 1.349 . S
C1751 C1753 1.327 . S
C1751 H1774 0.950 . S
C1752 C1751 1.349 . S
C1752 C1764 1.349 . S
C1753 C1751 1.327 . S
C1753 C1769 1.429 . S
C1753 H1775 0.950 . S
C1754 H1750 0.949 . S
C1754 C1762 1.574 . S
C1754 C1770 1.368 . S
H1755 C1763 0.950 . S
H1756 C1761 0.950 . S
H1757 C1762 0.949 . S
H1758 C1764 0.950 . S
H1759 C1765 0.950 . S
H1760 C1766 0.949 . S
C1761 H1756 0.950 . S
C1761 C1763 1.327 . S
C1761 C1767 1.429 . S
C1762 C1754 1.574 . S
C1762 H1757 0.949 . S
C1762 C1768 1.368 . S
C1763 C1747 1.349 . S
C1763 H1755 0.950 . S
C1763 C1761 1.327 . S
C1764 C1752 1.349 . S
C1764 H1758 0.950 . S
C1764 C1765 1.327 . S
C1765 H1759 0.950 . S
C1765 C1764 1.327 . S
C1765 C1769 1.429 . S
C1766 C1749 1.574 . S
C1766 H1760 0.949 . S
C1766 C1770 1.368 . S
C1767 C1748 1.429 . S
C1767 C1761 1.429 . S
C1767 C1768 1.523 . S
C1768 C1749 1.368 . S
C1768 C1762 1.368 . S
C1768 C1767 1.523 . S
C1769 C1753 1.429 . S
C1769 C1765 1.429 . S
C1769 C1770 1.523 . S
C1770 C1754 1.368 . S
C1770 C1766 1.368 . S
C1770 C1769 1.523 . S
H1771 C1746 0.950 . S
H1772 C1748 0.950 . S
H1773 C1749 0.949 . S
H1774 C1751 0.950 . S
H1775 C1753 0.950 . S
C1776 C1777 1.349 . S
C1776 C1778 1.327 . S
C1776 H1801 0.950 . S
C1777 C1776 1.349 . S
C1777 C1793 1.349 . S
C1778 C1776 1.327 . S
C1778 C1797 1.429 . S
C1778 H1802 0.950 . S
C1779 C1796 1.574 . S
C1779 C1798 1.368 . S
C1779 H1803 0.949 . S
H1780 C1784 0.949 . S
C1781 C1782 1.349 . S
C1781 C1783 1.327 . S
C1781 H1804 0.950 . S
C1782 C1781 1.349 . S
C1782 C1794 1.349 . S
C1783 C1781 1.327 . S
C1783 C1799 1.429 . S
C1783 H1805 0.950 . S
C1784 H1780 0.949 . S
C1784 C1792 1.574 . S
C1784 C1800 1.368 . S
H1785 C1793 0.950 . S
H1786 C1791 0.950 . S
H1787 C1792 0.949 . S
H1788 C1794 0.950 . S
H1789 C1795 0.950 . S
H1790 C1796 0.949 . S
C1791 H1786 0.950 . S
C1791 C1793 1.327 . S
C1791 C1797 1.429 . S
C1792 C1784 1.574 . S
C1792 H1787 0.949 . S
C1792 C1798 1.368 . S
C1793 C1777 1.349 . S
C1793 H1785 0.950 . S
C1793 C1791 1.327 . S
C1794 C1782 1.349 . S
C1794 H1788 0.950 . S
C1794 C1795 1.327 . S
C1795 H1789 0.950 . S
C1795 C1794 1.327 . S
C1795 C1799 1.429 . S
C1796 C1779 1.574 . S
C1796 H1790 0.949 . S
C1796 C1800 1.368 . S
C1797 C1778 1.429 . S
C1797 C1791 1.429 . S
C1797 C1798 1.523 . S
C1798 C1779 1.368 . S
C1798 C1792 1.368 . S
C1798 C1797 1.523 . S
C1799 C1783 1.429 . S
C1799 C1795 1.429 . S
C1799 C1800 1.523 . S
C1800 C1784 1.368 . S
C1800 C1796 1.368 . S
C1800 C1799 1.523 . S
H1801 C1776 0.950 . S
H1802 C1778 0.950 . S
H1803 C1779 0.949 . S
H1804 C1781 0.950 . S
H1805 C1783 0.950 . S
C1806 C1807 1.349 . S
C1806 C1808 1.327 . S
C1806 H1831 0.950 . S
C1807 C1806 1.349 . S
C1807 C1823 1.349 . S
C1808 C1806 1.327 . S
C1808 C1827 1.429 . S
C1808 H1832 0.950 . S
C1809 C1826 1.574 . S
C1809 C1828 1.368 . S
C1809 H1833 0.949 . S
H1810 C1814 0.949 . S
C1811 C1812 1.349 . S
C1811 C1813 1.327 . S
C1811 H1834 0.950 . S
C1812 C1811 1.349 . S
C1812 C1824 1.349 . S
C1813 C1811 1.327 . S
C1813 C1829 1.429 . S
C1813 H1835 0.950 . S
C1814 H1810 0.949 . S
C1814 C1822 1.574 . S
C1814 C1830 1.368 . S
H1815 C1823 0.950 . S
H1816 C1821 0.950 . S
H1817 C1822 0.949 . S
H1818 C1824 0.950 . S
H1819 C1825 0.950 . S
H1820 C1826 0.949 . S
C1821 H1816 0.950 . S
C1821 C1823 1.327 . S
C1821 C1827 1.429 . S
C1822 C1814 1.574 . S
C1822 H1817 0.949 . S
C1822 C1828 1.368 . S
C1823 C1807 1.349 . S
C1823 H1815 0.950 . S
C1823 C1821 1.327 . S
C1824 C1812 1.349 . S
C1824 H1818 0.950 . S
C1824 C1825 1.327 . S
C1825 H1819 0.950 . S
C1825 C1824 1.327 . S
C1825 C1829 1.429 . S
C1826 C1809 1.574 . S
C1826 H1820 0.949 . S
C1826 C1830 1.368 . S
C1827 C1808 1.429 . S
C1827 C1821 1.429 . S
C1827 C1828 1.523 . S
C1828 C1809 1.368 . S
C1828 C1822 1.368 . S
C1828 C1827 1.523 . S
C1829 C1813 1.429 . S
C1829 C1825 1.429 . S
C1829 C1830 1.523 . S
C1830 C1814 1.368 . S
C1830 C1826 1.368 . S
C1830 C1829 1.523 . S
H1831 C1806 0.950 . S
H1832 C1808 0.950 . S
H1833 C1809 0.949 . S
H1834 C1811 0.950 . S
H1835 C1813 0.950 . S
C1836 C1837 1.349 . S
C1836 C1838 1.327 . S
C1836 H1861 0.950 1_554 S
C1837 C1836 1.349 . S
C1837 C1853 1.349 . S
C1838 C1836 1.327 . S
C1838 C1857 1.429 . S
C1838 H1862 0.950 1_554 S
C1839 C1856 1.574 . S
C1839 C1858 1.368 . S
C1839 H1863 0.949 . S
H1840 C1844 0.949 1_556 S
C1841 C1842 1.349 . S
C1841 C1843 1.327 . S
C1841 H1864 0.950 . S
C1842 C1841 1.349 . S
C1842 C1854 1.349 . S
C1843 C1841 1.327 . S
C1843 C1859 1.429 . S
C1843 H1865 0.950 . S
C1844 H1840 0.949 1_554 S
C1844 C1852 1.574 . S
C1844 C1860 1.368 . S
H1845 C1853 0.950 . S
H1846 C1851 0.950 . S
H1847 C1852 0.949 1_556 S
H1848 C1854 0.950 1_556 S
H1849 C1855 0.950 1_556 S
H1850 C1856 0.949 . S
C1851 H1846 0.950 . S
C1851 C1853 1.327 . S
C1851 C1857 1.429 . S
C1852 C1844 1.574 . S
C1852 H1847 0.949 1_554 S
C1852 C1858 1.368 . S
C1853 C1837 1.349 . S
C1853 H1845 0.950 . S
C1853 C1851 1.327 . S
C1854 C1842 1.349 . S
C1854 H1848 0.950 1_554 S
C1854 C1855 1.327 . S
C1855 H1849 0.950 1_554 S
C1855 C1854 1.327 . S
C1855 C1859 1.429 . S
C1856 C1839 1.574 . S
C1856 H1850 0.949 . S
C1856 C1860 1.368 . S
C1857 C1838 1.429 . S
C1857 C1851 1.429 . S
C1857 C1858 1.523 . S
C1858 C1839 1.368 . S
C1858 C1852 1.368 . S
C1858 C1857 1.523 . S
C1859 C1843 1.429 . S
C1859 C1855 1.429 . S
C1859 C1860 1.523 . S
C1860 C1844 1.368 . S
C1860 C1856 1.368 . S
C1860 C1859 1.523 . S
H1861 C1836 0.950 1_556 S
H1862 C1838 0.950 1_556 S
H1863 C1839 0.949 . S
H1864 C1841 0.950 . S
H1865 C1843 0.950 . S
C1866 C1867 1.349 . S
C1866 C1868 1.327 . S
C1866 H1891 0.950 . S
C1867 C1866 1.349 . S
C1867 C1883 1.349 . S
C1868 C1866 1.327 . S
C1868 C1887 1.429 . S
C1868 H1892 0.950 . S
C1869 C1886 1.574 . S
C1869 C1888 1.368 . S
C1869 H1893 0.949 . S
H1870 C1874 0.949 . S
C1871 C1872 1.349 . S
C1871 C1873 1.327 . S
C1871 H1894 0.950 . S
C1872 C1871 1.349 . S
C1872 C1884 1.349 . S
C1873 C1871 1.327 . S
C1873 C1889 1.429 . S
C1873 H1895 0.950 . S
C1874 H1870 0.949 . S
C1874 C1882 1.574 . S
C1874 C1890 1.368 . S
H1875 C1883 0.950 . S
H1876 C1881 0.950 . S
H1877 C1882 0.949 . S
H1878 C1884 0.950 . S
H1879 C1885 0.950 . S
H1880 C1886 0.949 . S
C1881 H1876 0.950 . S
C1881 C1883 1.327 . S
C1881 C1887 1.429 . S
C1882 C1874 1.574 . S
C1882 H1877 0.949 . S
C1882 C1888 1.368 . S
C1883 C1867 1.349 . S
C1883 H1875 0.950 . S
C1883 C1881 1.327 . S
C1884 C1872 1.349 . S
C1884 H1878 0.950 . S
C1884 C1885 1.327 . S
C1885 H1879 0.950 . S
C1885 C1884 1.327 . S
C1885 C1889 1.429 . S
C1886 C1869 1.574 . S
C1886 H1880 0.949 . S
C1886 C1890 1.368 . S
C1887 C1868 1.429 . S
C1887 C1881 1.429 . S
C1887 C1888 1.523 . S
C1888 C1869 1.368 . S
C1888 C1882 1.368 . S
C1888 C1887 1.523 . S
C1889 C1873 1.429 . S
C1889 C1885 1.429 . S
C1889 C1890 1.523 . S
C1890 C1874 1.368 . S
C1890 C1886 1.368 . S
C1890 C1889 1.523 . S
H1891 C1866 0.950 . S
H1892 C1868 0.950 . S
H1893 C1869 0.949 . S
H1894 C1871 0.950 . S
H1895 C1873 0.950 . S
C1896 C1897 1.349 . S
C1896 C1898 1.327 . S
C1896 H1921 0.950 . S
C1897 C1896 1.349 . S
C1897 C1913 1.349 . S
C1898 C1896 1.327 . S
C1898 C1917 1.429 . S
C1898 H1922 0.950 . S
C1899 C1916 1.574 . S
C1899 C1918 1.368 . S
C1899 H1923 0.949 . S
H1900 C1904 0.949 . S
C1901 C1902 1.349 . S
C1901 C1903 1.327 . S
C1901 H1924 0.950 . S
C1902 C1901 1.349 . S
C1902 C1914 1.349 . S
C1903 C1901 1.327 . S
C1903 C1919 1.429 . S
C1903 H1925 0.950 . S
C1904 H1900 0.949 . S
C1904 C1912 1.574 . S
C1904 C1920 1.368 . S
H1905 C1913 0.950 . S
H1906 C1911 0.950 . S
H1907 C1912 0.949 . S
H1908 C1914 0.950 . S
H1909 C1915 0.950 . S
H1910 C1916 0.949 . S
C1911 H1906 0.950 . S
C1911 C1913 1.327 . S
C1911 C1917 1.429 . S
C1912 C1904 1.574 . S
C1912 H1907 0.949 . S
C1912 C1918 1.368 . S
C1913 C1897 1.349 . S
C1913 H1905 0.950 . S
C1913 C1911 1.327 . S
C1914 C1902 1.349 . S
C1914 H1908 0.950 . S
C1914 C1915 1.327 . S
C1915 H1909 0.950 . S
C1915 C1914 1.327 . S
C1915 C1919 1.429 . S
C1916 C1899 1.574 . S
C1916 H1910 0.949 . S
C1916 C1920 1.368 . S
C1917 C1898 1.429 . S
C1917 C1911 1.429 . S
C1917 C1918 1.523 . S
C1918 C1899 1.368 . S
C1918 C1912 1.368 . S
C1918 C1917 1.523 . S
C1919 C1903 1.429 . S
C1919 C1915 1.429 . S
C1919 C1920 1.523 . S
C1920 C1904 1.368 . S
C1920 C1916 1.368 . S
C1920 C1919 1.523 . S
H1921 C1896 0.950 . S
H1922 C1898 0.950 . S
H1923 C1899 0.949 . S
H1924 C1901 0.950 . S
H1925 C1903 0.950 . S
C1926 C1927 1.349 . S
C1926 C1928 1.327 . S
C1926 H1951 0.950 . S
C1927 C1926 1.349 . S
C1927 C1943 1.349 . S
C1928 C1926 1.327 . S
C1928 C1947 1.429 . S
C1928 H1952 0.950 . S
C1929 C1946 1.574 . S
C1929 C1948 1.368 . S
C1929 H1953 0.949 . S
H1930 C1934 0.949 . S
C1931 C1932 1.349 . S
C1931 C1933 1.327 . S
C1931 H1954 0.950 . S
C1932 C1931 1.349 . S
C1932 C1944 1.349 . S
C1933 C1931 1.327 . S
C1933 C1949 1.429 . S
C1933 H1955 0.950 . S
C1934 H1930 0.949 . S
C1934 C1942 1.574 . S
C1934 C1950 1.368 . S
H1935 C1943 0.950 . S
H1936 C1941 0.950 . S
H1937 C1942 0.949 . S
H1938 C1944 0.950 . S
H1939 C1945 0.950 . S
H1940 C1946 0.949 . S
C1941 H1936 0.950 . S
C1941 C1943 1.327 . S
C1941 C1947 1.429 . S
C1942 C1934 1.574 . S
C1942 H1937 0.949 . S
C1942 C1948 1.368 . S
C1943 C1927 1.349 . S
C1943 H1935 0.950 . S
C1943 C1941 1.327 . S
C1944 C1932 1.349 . S
C1944 H1938 0.950 . S
C1944 C1945 1.327 . S
C1945 H1939 0.950 . S
C1945 C1944 1.327 . S
C1945 C1949 1.429 . S
C1946 C1929 1.574 . S
C1946 H1940 0.949 . S
C1946 C1950 1.368 . S
C1947 C1928 1.429 . S
C1947 C1941 1.429 . S
C1947 C1948 1.523 . S
C1948 C1929 1.368 . S
C1948 C1942 1.368 . S
C1948 C1947 1.523 . S
C1949 C1933 1.429 . S
C1949 C1945 1.429 . S
C1949 C1950 1.523 . S
C1950 C1934 1.368 . S
C1950 C1946 1.368 . S
C1950 C1949 1.523 . S
H1951 C1926 0.950 . S
H1952 C1928 0.950 . S
H1953 C1929 0.949 . S
H1954 C1931 0.950 . S
H1955 C1933 0.950 . S
C1956 C1957 1.349 . S
C1956 C1958 1.327 . S
C1956 H1981 0.950 . S
C1957 C1956 1.349 . S
C1957 C1973 1.349 . S
C1958 C1956 1.327 . S
C1958 C1977 1.429 . S
C1958 H1982 0.950 . S
C1959 C1976 1.574 . S
C1959 C1978 1.368 . S
C1959 H1983 0.949 . S
H1960 C1964 0.949 . S
C1961 C1962 1.349 . S
C1961 C1963 1.327 . S
C1961 H1984 0.950 . S
C1962 C1961 1.349 . S
C1962 C1974 1.349 . S
C1963 C1961 1.327 . S
C1963 C1979 1.429 . S
C1963 H1985 0.950 . S
C1964 H1960 0.949 . S
C1964 C1972 1.574 . S
C1964 C1980 1.368 . S
H1965 C1973 0.950 . S
H1966 C1971 0.950 . S
H1967 C1972 0.949 . S
H1968 C1974 0.950 . S
H1969 C1975 0.950 . S
H1970 C1976 0.949 . S
C1971 H1966 0.950 . S
C1971 C1973 1.327 . S
C1971 C1977 1.429 . S
C1972 C1964 1.574 . S
C1972 H1967 0.949 . S
C1972 C1978 1.368 . S
C1973 C1957 1.349 . S
C1973 H1965 0.950 . S
C1973 C1971 1.327 . S
C1974 C1962 1.349 . S
C1974 H1968 0.950 . S
C1974 C1975 1.327 . S
C1975 H1969 0.950 . S
C1975 C1974 1.327 . S
C1975 C1979 1.429 . S
C1976 C1959 1.574 . S
C1976 H1970 0.949 . S
C1976 C1980 1.368 . S
C1977 C1958 1.429 . S
C1977 C1971 1.429 . S
C1977 C1978 1.523 . S
C1978 C1959 1.368 . S
C1978 C1972 1.368 . S
C1978 C1977 1.523 . S
C1979 C1963 1.429 . S
C1979 C1975 1.429 . S
C1979 C1980 1.523 . S
C1980 C1964 1.368 . S
C1980 C1976 1.368 . S
C1980 C1979 1.523 . S
H1981 C1956 0.950 . S
H1982 C1958 0.950 . S
H1983 C1959 0.949 . S
H1984 C1961 0.950 . S
H1985 C1963 0.950 . S
C1986 C1987 1.349 . S
C1986 C1988 1.327 . S
C1986 H2011 0.950 . S
C1987 C1986 1.349 . S
C1987 C2003 1.349 . S
C1988 C1986 1.327 . S
C1988 C2007 1.429 . S
C1988 H2012 0.950 . S
C1989 C2006 1.574 . S
C1989 C2008 1.368 . S
C1989 H2013 0.949 . S
H1990 C1994 0.949 . S
C1991 C1992 1.349 . S
C1991 C1993 1.327 . S
C1991 H2014 0.950 . S
C1992 C1991 1.349 . S
C1992 C2004 1.349 . S
C1993 C1991 1.327 . S
C1993 C2009 1.429 . S
C1993 H2015 0.950 . S
C1994 H1990 0.949 . S
C1994 C2002 1.574 . S
C1994 C2010 1.368 . S
H1995 C2003 0.950 . S
H1996 C2001 0.950 . S
H1997 C2002 0.949 . S
H1998 C2004 0.950 . S
H1999 C2005 0.950 . S
H2000 C2006 0.949 . S
C2001 H1996 0.950 . S
C2001 C2003 1.327 . S
C2001 C2007 1.429 . S
C2002 C1994 1.574 . S
C2002 H1997 0.949 . S
C2002 C2008 1.368 . S
C2003 C1987 1.349 . S
C2003 H1995 0.950 . S
C2003 C2001 1.327 . S
C2004 C1992 1.349 . S
C2004 H1998 0.950 . S
C2004 C2005 1.327 . S
C2005 H1999 0.950 . S
C2005 C2004 1.327 . S
C2005 C2009 1.429 . S
C2006 C1989 1.574 . S
C2006 H2000 0.949 . S
C2006 C2010 1.368 . S
C2007 C1988 1.429 . S
C2007 C2001 1.429 . S
C2007 C2008 1.523 . S
C2008 C1989 1.368 . S
C2008 C2002 1.368 . S
C2008 C2007 1.523 . S
C2009 C1993 1.429 . S
C2009 C2005 1.429 . S
C2009 C2010 1.523 . S
C2010 C1994 1.368 . S
C2010 C2006 1.368 . S
C2010 C2009 1.523 . S
H2011 C1986 0.950 . S
H2012 C1988 0.950 . S
H2013 C1989 0.949 . S
H2014 C1991 0.950 . S
H2015 C1993 0.950 . S
C2016 C2017 1.349 . S
C2016 C2018 1.327 . S
C2016 H2041 0.950 . S
C2017 C2016 1.349 . S
C2017 C2033 1.349 . S
C2018 C2016 1.327 . S
C2018 C2037 1.429 . S
C2018 H2042 0.950 . S
C2019 C2036 1.574 . S
C2019 C2038 1.368 . S
C2019 H2043 0.949 . S
H2020 C2024 0.949 . S
C2021 C2022 1.349 . S
C2021 C2023 1.327 . S
C2021 H2044 0.950 . S
C2022 C2021 1.349 . S
C2022 C2034 1.349 . S
C2023 C2021 1.327 . S
C2023 C2039 1.429 . S
C2023 H2045 0.950 . S
C2024 H2020 0.949 . S
C2024 C2032 1.574 . S
C2024 C2040 1.368 . S
H2025 C2033 0.950 . S
H2026 C2031 0.950 . S
H2027 C2032 0.949 . S
H2028 C2034 0.950 . S
H2029 C2035 0.950 . S
H2030 C2036 0.949 . S
C2031 H2026 0.950 . S
C2031 C2033 1.327 . S
C2031 C2037 1.429 . S
C2032 C2024 1.574 . S
C2032 H2027 0.949 . S
C2032 C2038 1.368 . S
C2033 C2017 1.349 . S
C2033 H2025 0.950 . S
C2033 C2031 1.327 . S
C2034 C2022 1.349 . S
C2034 H2028 0.950 . S
C2034 C2035 1.327 . S
C2035 H2029 0.950 . S
C2035 C2034 1.327 . S
C2035 C2039 1.429 . S
C2036 C2019 1.574 . S
C2036 H2030 0.949 . S
C2036 C2040 1.368 . S
C2037 C2018 1.429 . S
C2037 C2031 1.429 . S
C2037 C2038 1.523 . S
C2038 C2019 1.368 . S
C2038 C2032 1.368 . S
C2038 C2037 1.523 . S
C2039 C2023 1.429 . S
C2039 C2035 1.429 . S
C2039 C2040 1.523 . S
C2040 C2024 1.368 . S
C2040 C2036 1.368 . S
C2040 C2039 1.523 . S
H2041 C2016 0.950 . S
H2042 C2018 0.950 . S
H2043 C2019 0.949 . S
H2044 C2021 0.950 . S
H2045 C2023 0.950 . S
C2046 C2047 1.349 . S
C2046 C2048 1.327 . S
C2046 H2071 0.950 . S
C2047 C2046 1.349 . S
C2047 C2063 1.349 . S
C2048 C2046 1.327 . S
C2048 C2067 1.429 . S
C2048 H2072 0.950 . S
C2049 C2066 1.574 . S
C2049 C2068 1.368 . S
C2049 H2073 0.949 . S
H2050 C2054 0.949 . S
C2051 C2052 1.349 . S
C2051 C2053 1.327 . S
C2051 H2074 0.950 . S
C2052 C2051 1.349 . S
C2052 C2064 1.349 . S
C2053 C2051 1.327 . S
C2053 C2069 1.429 . S
C2053 H2075 0.950 . S
C2054 H2050 0.949 . S
C2054 C2062 1.574 . S
C2054 C2070 1.368 . S
H2055 C2063 0.950 . S
H2056 C2061 0.950 . S
H2057 C2062 0.949 . S
H2058 C2064 0.950 . S
H2059 C2065 0.950 . S
H2060 C2066 0.949 . S
C2061 H2056 0.950 . S
C2061 C2063 1.327 . S
C2061 C2067 1.429 . S
C2062 C2054 1.574 . S
C2062 H2057 0.949 . S
C2062 C2068 1.368 . S
C2063 C2047 1.349 . S
C2063 H2055 0.950 . S
C2063 C2061 1.327 . S
C2064 C2052 1.349 . S
C2064 H2058 0.950 . S
C2064 C2065 1.327 . S
C2065 H2059 0.950 . S
C2065 C2064 1.327 . S
C2065 C2069 1.429 . S
C2066 C2049 1.574 . S
C2066 H2060 0.949 . S
C2066 C2070 1.368 . S
C2067 C2048 1.429 . S
C2067 C2061 1.429 . S
C2067 C2068 1.523 . S
C2068 C2049 1.368 . S
C2068 C2062 1.368 . S
C2068 C2067 1.523 . S
C2069 C2053 1.429 . S
C2069 C2065 1.429 . S
C2069 C2070 1.523 . S
C2070 C2054 1.368 . S
C2070 C2066 1.368 . S
C2070 C2069 1.523 . S
H2071 C2046 0.950 . S
H2072 C2048 0.950 . S
H2073 C2049 0.949 . S
H2074 C2051 0.950 . S
H2075 C2053 0.950 . S
C2076 C2077 1.349 . S
C2076 C2078 1.327 . S
C2076 H2101 0.950 . S
C2077 C2076 1.349 . S
C2077 C2093 1.349 . S
C2078 C2076 1.327 . S
C2078 C2097 1.429 . S
C2078 H2102 0.950 . S
C2079 C2096 1.574 . S
C2079 C2098 1.368 . S
C2079 H2103 0.949 . S
H2080 C2084 0.949 . S
C2081 C2082 1.349 . S
C2081 C2083 1.327 . S
C2081 H2104 0.950 . S
C2082 C2081 1.349 . S
C2082 C2094 1.349 . S
C2083 C2081 1.327 . S
C2083 C2099 1.429 . S
C2083 H2105 0.950 . S
C2084 H2080 0.949 . S
C2084 C2092 1.574 . S
C2084 C2100 1.368 . S
H2085 C2093 0.950 . S
H2086 C2091 0.950 . S
H2087 C2092 0.949 . S
H2088 C2094 0.950 . S
H2089 C2095 0.950 . S
H2090 C2096 0.949 . S
C2091 H2086 0.950 . S
C2091 C2093 1.327 . S
C2091 C2097 1.429 . S
C2092 C2084 1.574 . S
C2092 H2087 0.949 . S
C2092 C2098 1.368 . S
C2093 C2077 1.349 . S
C2093 H2085 0.950 . S
C2093 C2091 1.327 . S
C2094 C2082 1.349 . S
C2094 H2088 0.950 . S
C2094 C2095 1.327 . S
C2095 H2089 0.950 . S
C2095 C2094 1.327 . S
C2095 C2099 1.429 . S
C2096 C2079 1.574 . S
C2096 H2090 0.949 . S
C2096 C2100 1.368 . S
C2097 C2078 1.429 . S
C2097 C2091 1.429 . S
C2097 C2098 1.523 . S
C2098 C2079 1.368 . S
C2098 C2092 1.368 . S
C2098 C2097 1.523 . S
C2099 C2083 1.429 . S
C2099 C2095 1.429 . S
C2099 C2100 1.523 . S
C2100 C2084 1.368 . S
C2100 C2096 1.368 . S
C2100 C2099 1.523 . S
H2101 C2076 0.950 . S
H2102 C2078 0.950 . S
H2103 C2079 0.949 . S
H2104 C2081 0.950 . S
H2105 C2083 0.950 . S
C2106 C2107 1.349 1_545 S
C2106 C2108 1.320 1_545 S
C2106 H2131 0.950 . S
C2107 C2106 1.349 1_565 S
C2107 C2123 1.349 . S
C2108 C2106 1.320 1_565 S
C2108 C2127 1.450 . S
C2108 H2132 0.935 1_565 S
C2109 C2126 1.574 . S
C2109 C2128 1.368 . S
C2109 H2133 0.949 . S
H2110 C2114 0.949 . S
C2111 C2112 1.349 . S
C2111 C2113 1.327 . S
C2111 H2134 0.950 . S
C2112 C2111 1.349 . S
C2112 C2124 1.349 . S
C2113 C2111 1.327 . S
C2113 C2129 1.429 . S
C2113 H2135 0.950 . S
C2114 H2110 0.949 . S
C2114 C2122 1.574 . S
C2114 C2130 1.368 . S
H2115 C2123 0.950 . S
H2116 C2121 0.950 . S
H2117 C2122 0.949 1_545 S
H2118 C2124 0.950 . S
H2119 C2125 0.950 . S
H2120 C2126 0.949 . S
C2121 H2116 0.950 . S
C2121 C2123 1.327 . S
C2121 C2127 1.429 . S
C2122 C2114 1.574 . S
C2122 H2117 0.949 1_565 S
C2122 C2128 1.368 . S
C2123 C2107 1.349 . S
C2123 H2115 0.950 . S
C2123 C2121 1.327 . S
C2124 C2112 1.349 . S
C2124 H2118 0.950 . S
C2124 C2125 1.327 . S
C2125 H2119 0.950 . S
C2125 C2124 1.327 . S
C2125 C2129 1.429 . S
C2126 C2109 1.574 . S
C2126 H2120 0.949 . S
C2126 C2130 1.368 . S
C2127 C2108 1.450 . S
C2127 C2121 1.429 . S
C2127 C2128 1.523 . S
C2128 C2109 1.368 . S
C2128 C2122 1.368 . S
C2128 C2127 1.523 . S
C2129 C2113 1.429 . S
C2129 C2125 1.429 . S
C2129 C2130 1.523 . S
C2130 C2114 1.368 . S
C2130 C2126 1.368 . S
C2130 C2129 1.523 . S
H2131 C2106 0.950 . S
H2132 C2108 0.935 1_545 S
H2133 C2109 0.949 . S
H2134 C2111 0.950 . S
H2135 C2113 0.950 . S
C2136 C2137 1.349 . S
C2136 C2138 1.327 . S
C2136 H2161 0.950 . S
C2137 C2136 1.349 . S
C2137 C2153 1.349 . S
C2138 C2136 1.327 . S
C2138 C2157 1.429 . S
C2138 H2162 0.950 . S
C2139 C2156 1.574 . S
C2139 C2158 1.368 . S
C2139 H2163 0.949 . S
H2140 C2144 0.949 . S
C2141 C2142 1.349 . S
C2141 C2143 1.327 . S
C2141 H2164 0.950 . S
C2142 C2141 1.349 . S
C2142 C2154 1.349 . S
C2143 C2141 1.327 . S
C2143 C2159 1.429 . S
C2143 H2165 0.950 . S
C2144 H2140 0.949 . S
C2144 C2152 1.574 . S
C2144 C2160 1.368 . S
H2145 C2153 0.950 . S
H2146 C2151 0.950 . S
H2147 C2152 0.949 . S
H2148 C2154 0.950 . S
H2149 C2155 0.950 . S
H2150 C2156 0.949 . S
C2151 H2146 0.950 . S
C2151 C2153 1.327 . S
C2151 C2157 1.429 . S
C2152 C2144 1.574 . S
C2152 H2147 0.949 . S
C2152 C2158 1.368 . S
C2153 C2137 1.349 . S
C2153 H2145 0.950 . S
C2153 C2151 1.327 . S
C2154 C2142 1.349 . S
C2154 H2148 0.950 . S
C2154 C2155 1.327 . S
C2155 H2149 0.950 . S
C2155 C2154 1.327 . S
C2155 C2159 1.429 . S
C2156 C2139 1.574 . S
C2156 H2150 0.949 . S
C2156 C2160 1.368 . S
C2157 C2138 1.429 . S
C2157 C2151 1.429 . S
C2157 C2158 1.523 . S
C2158 C2139 1.368 . S
C2158 C2152 1.368 . S
C2158 C2157 1.523 . S
C2159 C2143 1.429 . S
C2159 C2155 1.429 . S
C2159 C2160 1.523 . S
C2160 C2144 1.368 . S
C2160 C2156 1.368 . S
C2160 C2159 1.523 . S
H2161 C2136 0.950 . S
H2162 C2138 0.950 . S
H2163 C2139 0.949 . S
H2164 C2141 0.950 . S
H2165 C2143 0.950 . S
C2166 C2167 1.349 . S
C2166 C2168 1.327 . S
C2166 H2191 0.950 . S
C2167 C2166 1.349 . S
C2167 C2183 1.349 . S
C2168 C2166 1.327 . S
C2168 C2187 1.429 . S
C2168 H2192 0.950 . S
C2169 C2186 1.574 . S
C2169 C2188 1.368 . S
C2169 H2193 0.949 . S
H2170 C2174 0.949 . S
C2171 C2172 1.349 . S
C2171 C2173 1.327 . S
C2171 H2194 0.950 . S
C2172 C2171 1.349 . S
C2172 C2184 1.349 . S
C2173 C2171 1.327 . S
C2173 C2189 1.429 . S
C2173 H2195 0.950 . S
C2174 H2170 0.949 . S
C2174 C2182 1.574 . S
C2174 C2190 1.368 . S
H2175 C2183 0.950 . S
H2176 C2181 0.950 . S
H2177 C2182 0.949 . S
H2178 C2184 0.950 . S
H2179 C2185 0.950 . S
H2180 C2186 0.949 . S
C2181 H2176 0.950 . S
C2181 C2183 1.327 . S
C2181 C2187 1.429 . S
C2182 C2174 1.574 . S
C2182 H2177 0.949 . S
C2182 C2188 1.368 . S
C2183 C2167 1.349 . S
C2183 H2175 0.950 . S
C2183 C2181 1.327 . S
C2184 C2172 1.349 . S
C2184 H2178 0.950 . S
C2184 C2185 1.327 . S
C2185 H2179 0.950 . S
C2185 C2184 1.327 . S
C2185 C2189 1.429 . S
C2186 C2169 1.574 . S
C2186 H2180 0.949 . S
C2186 C2190 1.368 . S
C2187 C2168 1.429 . S
C2187 C2181 1.429 . S
C2187 C2188 1.523 . S
C2188 C2169 1.368 . S
C2188 C2182 1.368 . S
C2188 C2187 1.523 . S
C2189 C2173 1.429 . S
C2189 C2185 1.429 . S
C2189 C2190 1.523 . S
C2190 C2174 1.368 . S
C2190 C2186 1.368 . S
C2190 C2189 1.523 . S
H2191 C2166 0.950 . S
H2192 C2168 0.950 . S
H2193 C2169 0.949 . S
H2194 C2171 0.950 . S
H2195 C2173 0.950 . S
C2196 C2197 1.349 . S
C2196 C2198 1.327 . S
C2196 H2221 0.950 . S
C2197 C2196 1.349 . S
C2197 C2213 1.349 . S
C2198 C2196 1.327 . S
C2198 C2217 1.429 . S
C2198 H2222 0.950 . S
C2199 C2216 1.574 . S
C2199 C2218 1.368 . S
C2199 H2223 0.949 . S
H2200 C2204 0.949 . S
C2201 C2202 1.349 . S
C2201 C2203 1.327 . S
C2201 H2224 0.950 . S
C2202 C2201 1.349 . S
C2202 C2214 1.349 . S
C2203 C2201 1.327 . S
C2203 C2219 1.429 . S
C2203 H2225 0.950 . S
C2204 H2200 0.949 . S
C2204 C2212 1.574 . S
C2204 C2220 1.368 . S
H2205 C2213 0.950 . S
H2206 C2211 0.950 . S
H2207 C2212 0.949 . S
H2208 C2214 0.950 . S
H2209 C2215 0.950 . S
H2210 C2216 0.949 . S
C2211 H2206 0.950 . S
C2211 C2213 1.327 . S
C2211 C2217 1.429 . S
C2212 C2204 1.574 . S
C2212 H2207 0.949 . S
C2212 C2218 1.368 . S
C2213 C2197 1.349 . S
C2213 H2205 0.950 . S
C2213 C2211 1.327 . S
C2214 C2202 1.349 . S
C2214 H2208 0.950 . S
C2214 C2215 1.327 . S
C2215 H2209 0.950 . S
C2215 C2214 1.327 . S
C2215 C2219 1.429 . S
C2216 C2199 1.574 . S
C2216 H2210 0.949 . S
C2216 C2220 1.368 . S
C2217 C2198 1.429 . S
C2217 C2211 1.429 . S
C2217 C2218 1.523 . S
C2218 C2199 1.368 . S
C2218 C2212 1.368 . S
C2218 C2217 1.523 . S
C2219 C2203 1.429 . S
C2219 C2215 1.429 . S
C2219 C2220 1.523 . S
C2220 C2204 1.368 . S
C2220 C2216 1.368 . S
C2220 C2219 1.523 . S
H2221 C2196 0.950 . S
H2222 C2198 0.950 . S
H2223 C2199 0.949 . S
H2224 C2201 0.950 . S
H2225 C2203 0.950 . S
C2226 C2227 1.349 1_554 S
C2226 C2228 1.327 . S
C2226 H2251 0.950 . S
C2227 C2226 1.349 1_556 S
C2227 C2243 1.349 . S
C2228 C2226 1.327 . S
C2228 C2247 1.429 1_554 S
C2228 H2252 0.950 . S
C2229 C2246 1.574 . S
C2229 C2248 1.368 . S
C2229 H2253 0.949 . S
H2230 C2234 0.949 1_554 S
C2231 C2232 1.349 . S
C2231 C2233 1.327 . S
C2231 H2254 0.950 . S
C2232 C2231 1.349 . S
C2232 C2244 1.349 . S
C2233 C2231 1.327 . S
C2233 C2249 1.429 . S
C2233 H2255 0.950 . S
C2234 H2230 0.949 1_556 S
C2234 C2242 1.574 . S
C2234 C2250 1.368 . S
H2235 C2243 0.950 . S
H2236 C2241 0.950 . S
H2237 C2242 0.949 1_554 S
H2238 C2244 0.950 . S
H2239 C2245 0.990 . S
H2240 C2246 0.949 . S
C2241 H2236 0.950 . S
C2241 C2243 1.327 . S
C2241 C2247 1.429 . S
C2242 C2234 1.574 . S
C2242 H2237 0.949 1_556 S
C2242 C2248 1.368 . S
C2243 C2227 1.349 . S
C2243 H2235 0.950 . S
C2243 C2241 1.327 . S
C2244 C2232 1.349 . S
C2244 H2238 0.950 . S
C2244 C2245 1.327 . S
C2245 H2239 0.990 . S
C2245 C2244 1.327 . S
C2245 C2249 1.429 . S
C2246 C2229 1.574 . S
C2246 H2240 0.949 . S
C2246 C2250 1.368 . S
C2247 C2228 1.429 1_556 S
C2247 C2241 1.429 . S
C2247 C2248 1.523 . S
C2248 C2229 1.368 . S
C2248 C2242 1.368 . S
C2248 C2247 1.523 . S
C2249 C2233 1.429 . S
C2249 C2245 1.429 . S
C2249 C2250 1.523 . S
C2250 C2234 1.368 . S
C2250 C2246 1.368 . S
C2250 C2249 1.523 . S
H2251 C2226 0.950 . S
H2252 C2228 0.950 . S
H2253 C2229 0.949 . S
H2254 C2231 0.950 . S
H2255 C2233 0.950 . S
C2256 C2257 1.349 1_554 S
C2256 C2258 1.327 . S
C2256 H2281 0.950 . S
C2257 C2256 1.349 1_556 S
C2257 C2273 1.349 . S
C2258 C2256 1.327 . S
C2258 C2277 1.429 1_554 S
C2258 H2282 0.950 . S
C2259 C2276 1.574 . S
C2259 C2278 1.368 . S
C2259 H2283 0.949 . S
H2260 C2264 0.949 1_554 S
C2261 C2262 1.349 . S
C2261 C2263 1.327 . S
C2261 H2284 0.950 . S
C2262 C2261 1.349 . S
C2262 C2274 1.349 . S
C2263 C2261 1.327 . S
C2263 C2279 1.429 . S
C2263 H2285 0.950 . S
C2264 H2260 0.949 1_556 S
C2264 C2272 1.574 . S
C2264 C2280 1.368 . S
H2265 C2273 0.950 . S
H2266 C2271 0.950 . S
H2267 C2272 0.949 1_554 S
H2268 C2274 0.950 . S
H2269 C2275 0.950 . S
H2270 C2276 0.949 . S
C2271 H2266 0.950 . S
C2271 C2273 1.327 . S
C2271 C2277 1.429 . S
C2272 C2264 1.574 . S
C2272 H2267 0.949 1_556 S
C2272 C2278 1.368 . S
C2273 C2257 1.349 . S
C2273 H2265 0.950 . S
C2273 C2271 1.327 . S
C2274 C2262 1.349 . S
C2274 H2268 0.950 . S
C2274 C2275 1.327 . S
C2275 H2269 0.950 . S
C2275 C2274 1.327 . S
C2275 C2279 1.429 . S
C2276 C2259 1.574 . S
C2276 H2270 0.949 . S
C2276 C2280 1.368 . S
C2277 C2258 1.429 1_556 S
C2277 C2271 1.429 . S
C2277 C2278 1.523 . S
C2278 C2259 1.368 . S
C2278 C2272 1.368 . S
C2278 C2277 1.523 . S
C2279 C2263 1.429 . S
C2279 C2275 1.429 . S
C2279 C2280 1.523 . S
C2280 C2264 1.368 . S
C2280 C2276 1.368 . S
C2280 C2279 1.523 . S
H2281 C2256 0.950 . S
H2282 C2258 0.950 . S
H2283 C2259 0.949 . S
H2284 C2261 0.950 . S
H2285 C2263 0.950 . S
C2286 C2287 1.349 . S
C2286 C2288 1.327 . S
C2286 H2311 0.931 1_554 S
C2287 C2286 1.349 . S
C2287 C2303 1.349 . S
C2288 C2286 1.327 . S
C2288 C2307 1.429 . S
C2288 H2312 0.950 . S
C2289 C2306 1.574 . S
C2289 C2308 1.368 . S
C2289 H2313 0.949 . S
H2290 C2294 0.949 . S
C2291 C2292 1.349 . S
C2291 C2293 1.327 . S
C2291 H2314 0.950 . S
C2292 C2291 1.349 . S
C2292 C2304 1.349 . S
C2293 C2291 1.327 . S
C2293 C2309 1.429 . S
C2293 H2315 0.950 . S
C2294 H2290 0.949 . S
C2294 C2302 1.574 . S
C2294 C2310 1.368 . S
H2295 C2303 0.950 . S
H2296 C2301 0.950 . S
H2297 C2302 0.949 . S
H2298 C2304 0.950 . S
H2299 C2305 0.950 . S
H2300 C2306 0.949 . S
C2301 H2296 0.950 . S
C2301 C2303 1.327 . S
C2301 C2307 1.429 . S
C2302 C2294 1.574 . S
C2302 H2297 0.949 . S
C2302 C2308 1.368 . S
C2303 C2287 1.349 . S
C2303 H2295 0.950 . S
C2303 C2301 1.327 . S
C2304 C2292 1.349 . S
C2304 H2298 0.950 . S
C2304 C2305 1.327 . S
C2305 H2299 0.950 . S
C2305 C2304 1.327 . S
C2305 C2309 1.429 . S
C2306 C2289 1.574 . S
C2306 H2300 0.949 . S
C2306 C2310 1.368 . S
C2307 C2288 1.429 . S
C2307 C2301 1.429 . S
C2307 C2308 1.523 . S
C2308 C2289 1.368 . S
C2308 C2302 1.368 . S
C2308 C2307 1.523 . S
C2309 C2293 1.429 . S
C2309 C2305 1.429 . S
C2309 C2310 1.523 . S
C2310 C2294 1.368 . S
C2310 C2306 1.368 . S
C2310 C2309 1.523 . S
H2311 C2286 0.931 1_556 S
H2312 C2288 0.950 . S
H2313 C2289 0.949 . S
H2314 C2291 0.950 . S
H2315 C2293 0.950 . S
C877 C22 1.708 . S
C882 C723 1.682 . S
C912 N740 1.824 . S
C907 C38 1.943 . S
C942 N642 1.647 . S
C937 C75 1.632 . S
C967 C91 1.323 1_655 S
C972 C667 1.320 . S
C997 C128 1.829 . S
C1002 C862 1.831 . S
C1027 C197 1.453 . S
C1032 N822 1.443 . S
C1062 N770 1.747 . S
C1057 C144 1.875 1_565 S
C1087 C181 1.720 . S
C1092 C796 1.721 . S
C1122 C682 1.694 1_455 S
C1117 C234 1.696 . S
C1152 C727 1.898 1_455 S
C1147 C303 1.897 . S
C1177 C356 1.841 . S
C1182 C706 1.855 1_655 S
C1207 C287 1.966 . S
C1212 C813 1.959 . S
C1242 C843 1.620 . S
C1237 C393 1.636 . S
C1272 N860 1.820 . S
C1267 C409 1.965 . S
C1297 C462 1.764 . S
C1302 N792 1.774 . S
C1332 C757 1.271 . S
C1327 C446 1.267 . S
C1357 C499 1.784 . S
C1362 C742 1.780 . S
C1387 C552 1.391 . S
C1392 N702 1.388 . S
C1422 N680 1.627 . S
C1417 C515 1.757 . S
C1447 C568 1.962 . S
C1452 C646 1.963 1_556 S
C1482 C772 1.777 . S
C1477 C340 1.774 . S
C1512 C847 1.848 . S
C1507 C621 1.841 1_556 S
C1537 C250 1.720 1_556 S
C1542 C826 1.726 . S
C1567 C605 1.905 . S
C1572 C663 1.885 . S
C1602 C637 1.202 . S
C1597 C39 1.195 . S
C1627 C29 0.638 . S
C1632 N672 0.640 . S
C1662 N710 1.106 . S
C1657 C92 1.160 . S
C1692 C753 1.573 . S
C1687 C82 1.537 . S
C1717 C145 1.519 . S
C1722 C652 1.523 . S
C1747 C188 1.368 . S
C1752 C693 1.365 . S
C1782 C697 0.986 . S
C1777 C135 0.985 . S
C1807 C198 1.475 . S
C1812 C736 1.472 . S
C1837 C251 0.924 . S
C1842 N650 0.908 . S
C1872 C712 1.600 . S
C1867 C294 1.582 . S
C1897 C347 1.022 . S
C1902 N732 1.020 . S
C1927 C304 1.417 . S
C1932 C766 1.421 . S
C1962 C787 1.220 . S
C1957 C410 1.223 . S
C1987 C400 0.665 . S
C1992 N762 0.666 . S
C2017 C453 0.849 . S
C2022 N830 0.835 . S
C2047 C463 1.842 . S
C2052 C873 1.867 . S
C2077 C516 1.511 . S
C2082 C802 1.522 . S
C2112 C783 1.703 . S
C2107 C569 1.715 . S
C2137 C506 0.886 . S
C2142 C817 0.882 . S
C2172 C856 1.267 . S
C2167 C559 1.258 . S
C2202 N800 0.853 . S
C2197 C357 0.867 . S
C2232 C832 1.568 . S
C2227 C612 1.561 . S
C2262 N852 0.987 . S
C2257 C241 0.987 . S
C2287 C622 1.317 . S
C2292 C676 1.316 . S
