# Generated by pormake.
# Topology gar, (4,6)-cn, num edge types: 1
# Building blocks:
#     Node 0, Type 0, BuildingBlock: KUFVIS_clean_sbu_0, # of connection points: 4
#     Node 1, Type 0, BuildingBlock: KUFVIS_clean_sbu_0, # of connection points: 4
#     Node 2, Type 0, BuildingBlock: KUFVIS_clean_sbu_0, # of connection points: 4
#     Node 3, Type 0, BuildingBlock: KUFVIS_clean_sbu_0, # of connection points: 4
#     Node 4, Type 0, BuildingBlock: KUFVIS_clean_sbu_0, # of connection points: 4
#     Node 5, Type 0, BuildingBlock: KUFVIS_clean_sbu_0, # of connection points: 4
#     Node 6, Type 0, BuildingBlock: KUFVIS_clean_sbu_0, # of connection points: 4
#     Node 7, Type 0, BuildingBlock: KUFVIS_clean_sbu_0, # of connection points: 4
#     Node 8, Type 0, BuildingBlock: KUFVIS_clean_sbu_0, # of connection points: 4
#     Node 9, Type 0, BuildingBlock: KUFVIS_clean_sbu_0, # of connection points: 4
#     Node 10, Type 0, BuildingBlock: KUFVIS_clean_sbu_0, # of connection points: 4
#     Node 11, Type 0, BuildingBlock: KUFVIS_clean_sbu_0, # of connection points: 4
#     Node 12, Type 0, BuildingBlock: KUFVIS_clean_sbu_0, # of connection points: 4
#     Node 13, Type 0, BuildingBlock: KUFVIS_clean_sbu_0, # of connection points: 4
#     Node 14, Type 0, BuildingBlock: KUFVIS_clean_sbu_0, # of connection points: 4
#     Node 15, Type 0, BuildingBlock: KUFVIS_clean_sbu_0, # of connection points: 4
#     Node 16, Type 0, BuildingBlock: KUFVIS_clean_sbu_0, # of connection points: 4
#     Node 17, Type 0, BuildingBlock: KUFVIS_clean_sbu_0, # of connection points: 4
#     Node 18, Type 0, BuildingBlock: KUFVIS_clean_sbu_0, # of connection points: 4
#     Node 19, Type 0, BuildingBlock: KUFVIS_clean_sbu_0, # of connection points: 4
#     Node 20, Type 0, BuildingBlock: KUFVIS_clean_sbu_0, # of connection points: 4
#     Node 21, Type 0, BuildingBlock: KUFVIS_clean_sbu_0, # of connection points: 4
#     Node 22, Type 0, BuildingBlock: KUFVIS_clean_sbu_0, # of connection points: 4
#     Node 23, Type 0, BuildingBlock: KUFVIS_clean_sbu_0, # of connection points: 4
#     Node 24, Type 1, BuildingBlock: MIFKUJ_clean_sbu_0, # of connection points: 6
#     Node 25, Type 1, BuildingBlock: MIFKUJ_clean_sbu_0, # of connection points: 6
#     Node 26, Type 1, BuildingBlock: MIFKUJ_clean_sbu_0, # of connection points: 6
#     Node 27, Type 1, BuildingBlock: MIFKUJ_clean_sbu_0, # of connection points: 6
#     Node 28, Type 1, BuildingBlock: MIFKUJ_clean_sbu_0, # of connection points: 6
#     Node 29, Type 1, BuildingBlock: MIFKUJ_clean_sbu_0, # of connection points: 6
#     Node 30, Type 1, BuildingBlock: MIFKUJ_clean_sbu_0, # of connection points: 6
#     Node 31, Type 1, BuildingBlock: MIFKUJ_clean_sbu_0, # of connection points: 6
#     Node 32, Type 1, BuildingBlock: MIFKUJ_clean_sbu_0, # of connection points: 6
#     Node 33, Type 1, BuildingBlock: MIFKUJ_clean_sbu_0, # of connection points: 6
#     Node 34, Type 1, BuildingBlock: MIFKUJ_clean_sbu_0, # of connection points: 6
#     Node 35, Type 1, BuildingBlock: MIFKUJ_clean_sbu_0, # of connection points: 6
#     Node 36, Type 1, BuildingBlock: MIFKUJ_clean_sbu_0, # of connection points: 6
#     Node 37, Type 1, BuildingBlock: MIFKUJ_clean_sbu_0, # of connection points: 6
#     Node 38, Type 1, BuildingBlock: MIFKUJ_clean_sbu_0, # of connection points: 6
#     Node 39, Type 1, BuildingBlock: MIFKUJ_clean_sbu_0, # of connection points: 6
#     Edge 40, Type (0, 1), BuildingBlock: EZIPEK_clean_linker_0, # of connection points: 2
#     Edge 41, Type (0, 1), BuildingBlock: EZIPEK_clean_linker_0, # of connection points: 2
#     Edge 42, Type (0, 1), BuildingBlock: EZIPEK_clean_linker_0, # of connection points: 2
#     Edge 43, Type (0, 1), BuildingBlock: EZIPEK_clean_linker_0, # of connection points: 2
#     Edge 44, Type (0, 1), BuildingBlock: EZIPEK_clean_linker_0, # of connection points: 2
#     Edge 45, Type (0, 1), BuildingBlock: EZIPEK_clean_linker_0, # of connection points: 2
#     Edge 46, Type (0, 1), BuildingBlock: EZIPEK_clean_linker_0, # of connection points: 2
#     Edge 47, Type (0, 1), BuildingBlock: EZIPEK_clean_linker_0, # of connection points: 2
#     Edge 48, Type (0, 1), BuildingBlock: EZIPEK_clean_linker_0, # of connection points: 2
#     Edge 49, Type (0, 1), BuildingBlock: EZIPEK_clean_linker_0, # of connection points: 2
#     Edge 50, Type (0, 1), BuildingBlock: EZIPEK_clean_linker_0, # of connection points: 2
#     Edge 51, Type (0, 1), BuildingBlock: EZIPEK_clean_linker_0, # of connection points: 2
#     Edge 52, Type (0, 1), BuildingBlock: EZIPEK_clean_linker_0, # of connection points: 2
#     Edge 53, Type (0, 1), BuildingBlock: EZIPEK_clean_linker_0, # of connection points: 2
#     Edge 54, Type (0, 1), BuildingBlock: EZIPEK_clean_linker_0, # of connection points: 2
#     Edge 55, Type (0, 1), BuildingBlock: EZIPEK_clean_linker_0, # of connection points: 2
#     Edge 56, Type (0, 1), BuildingBlock: EZIPEK_clean_linker_0, # of connection points: 2
#     Edge 57, Type (0, 1), BuildingBlock: EZIPEK_clean_linker_0, # of connection points: 2
#     Edge 58, Type (0, 1), BuildingBlock: EZIPEK_clean_linker_0, # of connection points: 2
#     Edge 59, Type (0, 1), BuildingBlock: EZIPEK_clean_linker_0, # of connection points: 2
#     Edge 60, Type (0, 1), BuildingBlock: EZIPEK_clean_linker_0, # of connection points: 2
#     Edge 61, Type (0, 1), BuildingBlock: EZIPEK_clean_linker_0, # of connection points: 2
#     Edge 62, Type (0, 1), BuildingBlock: EZIPEK_clean_linker_0, # of connection points: 2
#     Edge 63, Type (0, 1), BuildingBlock: EZIPEK_clean_linker_0, # of connection points: 2
#     Edge 64, Type (0, 1), BuildingBlock: EZIPEK_clean_linker_0, # of connection points: 2
#     Edge 65, Type (0, 1), BuildingBlock: EZIPEK_clean_linker_0, # of connection points: 2
#     Edge 66, Type (0, 1), BuildingBlock: EZIPEK_clean_linker_0, # of connection points: 2
#     Edge 67, Type (0, 1), BuildingBlock: EZIPEK_clean_linker_0, # of connection points: 2
#     Edge 68, Type (0, 1), BuildingBlock: EZIPEK_clean_linker_0, # of connection points: 2
#     Edge 69, Type (0, 1), BuildingBlock: EZIPEK_clean_linker_0, # of connection points: 2
#     Edge 70, Type (0, 1), BuildingBlock: EZIPEK_clean_linker_0, # of connection points: 2
#     Edge 71, Type (0, 1), BuildingBlock: EZIPEK_clean_linker_0, # of connection points: 2
#     Edge 72, Type (0, 1), BuildingBlock: EZIPEK_clean_linker_0, # of connection points: 2
#     Edge 73, Type (0, 1), BuildingBlock: EZIPEK_clean_linker_0, # of connection points: 2
#     Edge 74, Type (0, 1), BuildingBlock: EZIPEK_clean_linker_0, # of connection points: 2
#     Edge 75, Type (0, 1), BuildingBlock: EZIPEK_clean_linker_0, # of connection points: 2
#     Edge 76, Type (0, 1), BuildingBlock: EZIPEK_clean_linker_0, # of connection points: 2
#     Edge 77, Type (0, 1), BuildingBlock: EZIPEK_clean_linker_0, # of connection points: 2
#     Edge 78, Type (0, 1), BuildingBlock: EZIPEK_clean_linker_0, # of connection points: 2
#     Edge 79, Type (0, 1), BuildingBlock: EZIPEK_clean_linker_0, # of connection points: 2
#     Edge 80, Type (0, 1), BuildingBlock: EZIPEK_clean_linker_0, # of connection points: 2
#     Edge 81, Type (0, 1), BuildingBlock: EZIPEK_clean_linker_0, # of connection points: 2
#     Edge 82, Type (0, 1), BuildingBlock: EZIPEK_clean_linker_0, # of connection points: 2
#     Edge 83, Type (0, 1), BuildingBlock: EZIPEK_clean_linker_0, # of connection points: 2
#     Edge 84, Type (0, 1), BuildingBlock: EZIPEK_clean_linker_0, # of connection points: 2
#     Edge 85, Type (0, 1), BuildingBlock: EZIPEK_clean_linker_0, # of connection points: 2
#     Edge 86, Type (0, 1), BuildingBlock: EZIPEK_clean_linker_0, # of connection points: 2
#     Edge 87, Type (0, 1), BuildingBlock: EZIPEK_clean_linker_0, # of connection points: 2
#     Edge 88, Type (0, 1), BuildingBlock: EZIPEK_clean_linker_0, # of connection points: 2
#     Edge 89, Type (0, 1), BuildingBlock: EZIPEK_clean_linker_0, # of connection points: 2
#     Edge 90, Type (0, 1), BuildingBlock: EZIPEK_clean_linker_0, # of connection points: 2
#     Edge 91, Type (0, 1), BuildingBlock: EZIPEK_clean_linker_0, # of connection points: 2
#     Edge 92, Type (0, 1), BuildingBlock: EZIPEK_clean_linker_0, # of connection points: 2
#     Edge 93, Type (0, 1), BuildingBlock: EZIPEK_clean_linker_0, # of connection points: 2
#     Edge 94, Type (0, 1), BuildingBlock: EZIPEK_clean_linker_0, # of connection points: 2
#     Edge 95, Type (0, 1), BuildingBlock: EZIPEK_clean_linker_0, # of connection points: 2
#     Edge 96, Type (0, 1), BuildingBlock: EZIPEK_clean_linker_0, # of connection points: 2
#     Edge 97, Type (0, 1), BuildingBlock: EZIPEK_clean_linker_0, # of connection points: 2
#     Edge 98, Type (0, 1), BuildingBlock: EZIPEK_clean_linker_0, # of connection points: 2
#     Edge 99, Type (0, 1), BuildingBlock: EZIPEK_clean_linker_0, # of connection points: 2
#     Edge 100, Type (0, 1), BuildingBlock: EZIPEK_clean_linker_0, # of connection points: 2
#     Edge 101, Type (0, 1), BuildingBlock: EZIPEK_clean_linker_0, # of connection points: 2
#     Edge 102, Type (0, 1), BuildingBlock: EZIPEK_clean_linker_0, # of connection points: 2
#     Edge 103, Type (0, 1), BuildingBlock: EZIPEK_clean_linker_0, # of connection points: 2
#     Edge 104, Type (0, 1), BuildingBlock: EZIPEK_clean_linker_0, # of connection points: 2
#     Edge 105, Type (0, 1), BuildingBlock: EZIPEK_clean_linker_0, # of connection points: 2
#     Edge 106, Type (0, 1), BuildingBlock: EZIPEK_clean_linker_0, # of connection points: 2
#     Edge 107, Type (0, 1), BuildingBlock: EZIPEK_clean_linker_0, # of connection points: 2
#     Edge 108, Type (0, 1), BuildingBlock: EZIPEK_clean_linker_0, # of connection points: 2
#     Edge 109, Type (0, 1), BuildingBlock: EZIPEK_clean_linker_0, # of connection points: 2
#     Edge 110, Type (0, 1), BuildingBlock: EZIPEK_clean_linker_0, # of connection points: 2
#     Edge 111, Type (0, 1), BuildingBlock: EZIPEK_clean_linker_0, # of connection points: 2
#     Edge 112, Type (0, 1), BuildingBlock: EZIPEK_clean_linker_0, # of connection points: 2
#     Edge 113, Type (0, 1), BuildingBlock: EZIPEK_clean_linker_0, # of connection points: 2
#     Edge 114, Type (0, 1), BuildingBlock: EZIPEK_clean_linker_0, # of connection points: 2
#     Edge 115, Type (0, 1), BuildingBlock: EZIPEK_clean_linker_0, # of connection points: 2
#     Edge 116, Type (0, 1), BuildingBlock: EZIPEK_clean_linker_0, # of connection points: 2
#     Edge 117, Type (0, 1), BuildingBlock: EZIPEK_clean_linker_0, # of connection points: 2
#     Edge 118, Type (0, 1), BuildingBlock: EZIPEK_clean_linker_0, # of connection points: 2
#     Edge 119, Type (0, 1), BuildingBlock: EZIPEK_clean_linker_0, # of connection points: 2
#     Edge 120, Type (0, 1), BuildingBlock: EZIPEK_clean_linker_0, # of connection points: 2
#     Edge 121, Type (0, 1), BuildingBlock: EZIPEK_clean_linker_0, # of connection points: 2
#     Edge 122, Type (0, 1), BuildingBlock: EZIPEK_clean_linker_0, # of connection points: 2
#     Edge 123, Type (0, 1), BuildingBlock: EZIPEK_clean_linker_0, # of connection points: 2
#     Edge 124, Type (0, 1), BuildingBlock: EZIPEK_clean_linker_0, # of connection points: 2
#     Edge 125, Type (0, 1), BuildingBlock: EZIPEK_clean_linker_0, # of connection points: 2
#     Edge 126, Type (0, 1), BuildingBlock: EZIPEK_clean_linker_0, # of connection points: 2
#     Edge 127, Type (0, 1), BuildingBlock: EZIPEK_clean_linker_0, # of connection points: 2
#     Edge 128, Type (0, 1), BuildingBlock: EZIPEK_clean_linker_0, # of connection points: 2
#     Edge 129, Type (0, 1), BuildingBlock: EZIPEK_clean_linker_0, # of connection points: 2
#     Edge 130, Type (0, 1), BuildingBlock: EZIPEK_clean_linker_0, # of connection points: 2
#     Edge 131, Type (0, 1), BuildingBlock: EZIPEK_clean_linker_0, # of connection points: 2
#     Edge 132, Type (0, 1), BuildingBlock: EZIPEK_clean_linker_0, # of connection points: 2
#     Edge 133, Type (0, 1), BuildingBlock: EZIPEK_clean_linker_0, # of connection points: 2
#     Edge 134, Type (0, 1), BuildingBlock: EZIPEK_clean_linker_0, # of connection points: 2
#     Edge 135, Type (0, 1), BuildingBlock: EZIPEK_clean_linker_0, # of connection points: 2
# Relax obj value: 0.103
# Max RMSD: 0.306
# Mean RMSD: 0.130
data_MOF--net-gar--node1-KUFVIS_clean_sbu_0--node2-MIFKUJ_clean_sbu_0--edge1-EZIPEK_clean_linker_0
_symmetry_space_group_name_H-M    P1
_symmetry_Int_Tables_number       1
_symmetry_cell_setting            triclinic
loop_
_symmetry_equiv_pos_as_xyz
'x, y, z'
_cell_length_a     41.713138
_cell_length_b     41.90139
_cell_length_c     41.194855
_cell_angle_alpha  94.968009
_cell_angle_beta   95.0703
_cell_angle_gamma 100.20403
loop_
_atom_site_label
_atom_site_type_symbol
_atom_site_fract_x
_atom_site_fract_y
_atom_site_fract_z
_atom_type_partial_charge
Mn0 Mn 0.02495 0.27564 0.41674 0.0
Mn1 Mn 0.02828 0.33281 0.36324 0.0
C2 C 0.97754 0.29003 0.39504 0.0
C3 C 0.02186 0.2238 0.43111 0.0
C4 C 0.04778 0.34771 0.43673 0.0
O5 O 0.06855 0.2758 0.40014 0.0
O6 O 0.06746 0.31123 0.36161 0.0
C7 C 0.02733 0.29977 0.29666 0.0
N8 N 0.01149 0.31434 0.31954 0.0
C9 C 0.96545 0.31355 0.27964 0.0
C10 C 0.97988 0.29537 0.25682 0.0
C11 C 0.01131 0.28902 0.26519 0.0
C12 C 0.98241 0.3229 0.31089 0.0
H13 H 0.05257 0.29797 0.30192 0.0
C14 C 0.08004 0.28977 0.37632 0.0
O15 O 0.03469 0.24895 0.45152 0.0
O16 O 0.01143 0.22853 0.40151 0.0
N17 N 0.99028 0.35284 0.36215 0.0
C18 C 0.98218 0.37476 0.38494 0.0
C19 C 0.95312 0.3868 0.37903 0.0
C20 C 0.93266 0.37635 0.34975 0.0
C21 C 0.94192 0.35454 0.3262 0.0
C22 C 0.97121 0.34336 0.33342 0.0
H23 H 0.99776 0.38312 0.40745 0.0
O24 O 0.9787 0.27787 0.42299 0.0
O25 O 0.00459 0.29453 0.38121 0.0
O26 O 0.04146 0.31865 0.44337 0.0
O27 O 0.04501 0.35578 0.40755 0.0
C28 C 0.92361 0.34406 0.29555 0.0
C29 C 0.93548 0.32374 0.27219 0.0
H30 H 0.96775 0.28754 0.23235 0.0
H31 H 0.02359 0.27681 0.24713 0.0
H32 H 0.94668 0.40427 0.39694 0.0
H33 H 0.91024 0.38571 0.34534 0.0
H34 H 0.90073 0.35209 0.2894 0.0
H35 H 0.92164 0.31653 0.24838 0.0
Mn36 Mn 0.01407 0.74027 0.64232 0.0
Mn37 Mn 0.03171 0.80288 0.70257 0.0
C38 C 0.06738 0.75738 0.66667 0.0
C39 C 0.99946 0.68651 0.62088 0.0
C40 C 0.01951 0.81105 0.63047 0.0
O41 O 0.96929 0.74356 0.65702 0.0
O42 O 0.9848 0.78342 0.69885 0.0
C43 C 0.01866 0.7649 0.75887 0.0
N44 N 0.03943 0.78613 0.74363 0.0
C45 C 0.08141 0.79236 0.78879 0.0
C46 C 0.06046 0.77069 0.80507 0.0
C47 C 0.02901 0.75672 0.78992 0.0
C48 C 0.07001 0.799 0.75758 0.0
H49 H 0.99436 0.75432 0.74746 0.0
C50 C 0.96323 0.76212 0.68111 0.0
O51 O 0.99445 0.70997 0.60384 0.0
O52 O 0.0104 0.6939 0.65172 0.0
N53 N 0.0765 0.82432 0.70983 0.0
C54 C 0.09284 0.84647 0.69187 0.0
C55 C 0.12451 0.86296 0.7038 0.0
C56 C 0.13851 0.85747 0.73457 0.0
C57 C 0.12079 0.83558 0.7532 0.0
C58 C 0.08949 0.81953 0.73988 0.0
H59 H 0.08191 0.85139 0.66852 0.0
O60 O 0.06153 0.74148 0.63771 0.0
O61 O 0.04192 0.76294 0.68065 0.0
O62 O 0.01501 0.7812 0.6202 0.0
O63 O 0.02492 0.82216 0.66073 0.0
C64 C 0.13256 0.82981 0.78487 0.0
C65 C 0.11294 0.80803 0.80255 0.0
H66 H 0.06823 0.76467 0.82921 0.0
H67 H 0.0127 0.73991 0.80227 0.0
H68 H 0.13814 0.87976 0.68926 0.0
H69 H 0.16273 0.87034 0.74377 0.0
H70 H 0.15636 0.84243 0.7961 0.0
H71 H 0.12199 0.804 0.82699 0.0
Mn72 Mn 0.52496 0.78358 0.92065 0.0
Mn73 Mn 0.52563 0.83124 0.85834 0.0
C74 C 0.4757 0.7913 0.8937 0.0
C75 C 0.52452 0.7338 0.94146 0.0
C76 C 0.54235 0.85794 0.93025 0.0
O77 O 0.57086 0.78499 0.9064 0.0
O78 O 0.56706 0.81415 0.86355 0.0
C79 C 0.52697 0.78183 0.80263 0.0
N80 N 0.51184 0.80439 0.81772 0.0
C81 C 0.46817 0.79502 0.77371 0.0
C82 C 0.48336 0.77179 0.75772 0.0
C83 C 0.51286 0.76513 0.77228 0.0
C84 C 0.48336 0.81087 0.80395 0.0
H85 H 0.54962 0.77651 0.81362 0.0
C86 C 0.58262 0.79729 0.88165 0.0
O87 O 0.53524 0.76106 0.95963 0.0
O88 O 0.51493 0.73525 0.91085 0.0
N89 N 0.48619 0.8481 0.8499 0.0
C90 C 0.47643 0.87366 0.86641 0.0
C91 C 0.44684 0.88282 0.85559 0.0
C92 C 0.42843 0.86676 0.82676 0.0
C93 C 0.4403 0.8423 0.80864 0.0
C94 C 0.46967 0.83383 0.82108 0.0
H95 H 0.49163 0.88765 0.88703 0.0
O96 O 0.47698 0.7827 0.92326 0.0
O97 O 0.50356 0.79607 0.88142 0.0
O98 O 0.53703 0.83053 0.94173 0.0
O99 O 0.53906 0.86111 0.89956 0.0
C100 C 0.42443 0.82643 0.77843 0.0
C101 C 0.43841 0.80289 0.76091 0.0
H102 H 0.47253 0.75883 0.73432 0.0
H103 H 0.52471 0.74718 0.76013 0.0
H104 H 0.43861 0.90266 0.86904 0.0
H105 H 0.40576 0.87406 0.81828 0.0
H106 H 0.4016 0.83235 0.7683 0.0
H107 H 0.42602 0.7909 0.73767 0.0
Mn108 Mn 0.51484 0.23205 0.14208 0.0
Mn109 Mn 0.45039 0.22115 0.08415 0.0
C110 C 0.49514 0.18042 0.11616 0.0
C111 C 0.56905 0.23878 0.16161 0.0
C112 C 0.44599 0.23712 0.15617 0.0
O113 O 0.51795 0.27685 0.1274 0.0
O114 O 0.47544 0.26718 0.08711 0.0
C115 C 0.47436 0.23277 0.02015 0.0
N116 N 0.45975 0.21163 0.04009 0.0
C117 C 0.43971 0.1714 0.99399 0.0
C118 C 0.45618 0.19215 0.97342 0.0
C119 C 0.47349 0.22304 0.98657 0.0
C120 C 0.44208 0.18222 0.02742 0.0
H121 H 0.48541 0.25731 0.02952 0.0
C122 C 0.50024 0.28574 0.1043 0.0
O123 O 0.5477 0.24697 0.18012 0.0
O124 O 0.55954 0.22907 0.1309 0.0
N125 N 0.42636 0.17734 0.07975 0.0
C126 C 0.41114 0.16058 0.10274 0.0
C127 C 0.39327 0.12887 0.09375 0.0
C128 C 0.39084 0.11494 0.06115 0.0
C129 C 0.40677 0.13266 0.03796 0.0
C130 C 0.42504 0.16377 0.0486 0.0
H131 H 0.41265 0.17134 0.12775 0.0
O132 O 0.50768 0.18553 0.1464 0.0
O133 O 0.49019 0.20671 0.10298 0.0
O134 O 0.47565 0.23775 0.16577 0.0
O135 O 0.43417 0.23086 0.12646 0.0
C136 C 0.4049 0.12087 0.00464 0.0
C137 C 0.42101 0.1404 0.98258 0.0
H138 H 0.45519 0.18486 0.94742 0.0
H139 H 0.48535 0.23967 0.97071 0.0
H140 H 0.38111 0.11533 0.11182 0.0
H141 H 0.3766 0.09068 0.05417 0.0
H142 H 0.39078 0.09699 0.99564 0.0
H143 H 0.41899 0.1313 0.95692 0.0
Mn144 Mn 0.05076 0.77367 0.15064 0.0
Mn145 Mn 0.98229 0.75128 0.09628 0.0
C146 C 0.03311 0.71957 0.13035 0.0
C147 C 0.10674 0.78582 0.16715 0.0
C148 C 0.98048 0.76534 0.16912 0.0
O149 O 0.04657 0.81662 0.13301 0.0
O150 O 0.99927 0.79926 0.09988 0.0
C151 C 0.00127 0.77057 0.03249 0.0
N152 N 0.99266 0.74643 0.05191 0.0
C153 C 0.98202 0.7064 0.00478 0.0
C154 C 0.99443 0.73045 0.98522 0.0
C155 C 0.0036 0.76287 0.99909 0.0
C156 C 0.9815 0.71551 0.03831 0.0
H157 H 0.00406 0.79562 0.04181 0.0
C158 C 0.02363 0.82137 0.11239 0.0
O159 O 0.08563 0.79362 0.18621 0.0
O160 O 0.0958 0.77541 0.13687 0.0
N161 N 0.96461 0.70546 0.08948 0.0
C162 C 0.94867 0.68614 0.11019 0.0
C163 C 0.93509 0.65345 0.09936 0.0
C164 C 0.93691 0.64124 0.06691 0.0
C165 C 0.95241 0.66184 0.04568 0.0
C166 C 0.96649 0.69389 0.05815 0.0
H167 H 0.94587 0.69572 0.13458 0.0
O168 O 0.05052 0.72808 0.15835 0.0
O169 O 0.02552 0.74335 0.11437 0.0
O170 O 0.01113 0.77476 0.1766 0.0
O171 O 0.96741 0.75497 0.14019 0.0
C172 C 0.95391 0.65192 0.01245 0.0
C173 C 0.96847 0.67417 0.9919 0.0
H174 H 0.99526 0.72463 0.95921 0.0
H175 H 0.01097 0.78207 0.98382 0.0
H176 H 0.92266 0.63789 0.11579 0.0
H177 H 0.92584 0.61618 0.05838 0.0
H178 H 0.94382 0.62727 0.00251 0.0
H179 H 0.9687 0.66636 0.96617 0.0
Mn180 Mn 0.49813 0.74588 0.39672 0.0
Mn181 Mn 0.49888 0.78182 0.32779 0.0
C182 C 0.44862 0.74501 0.36662 0.0
C183 C 0.50762 0.7025 0.4253 0.0
C184 C 0.51874 0.81604 0.39645 0.0
O185 O 0.54565 0.75375 0.38528 0.0
O186 O 0.53567 0.75862 0.3313 0.0
C187 C 0.48572 0.72642 0.2759 0.0
N188 N 0.47774 0.75421 0.28987 0.0
C189 C 0.43477 0.75299 0.24659 0.0
C190 C 0.44238 0.72425 0.23177 0.0
C191 C 0.46787 0.71082 0.24658 0.0
C192 C 0.45287 0.76697 0.2762 0.0
H193 H 0.50556 0.71631 0.2871 0.0
C194 C 0.55436 0.75462 0.35629 0.0
O195 O 0.511 0.7318 0.43966 0.0
O196 O 0.49817 0.69828 0.39399 0.0
N197 N 0.46412 0.80576 0.32167 0.0
C198 C 0.46101 0.83452 0.33819 0.0
C199 C 0.43814 0.85231 0.32553 0.0
C200 C 0.41906 0.84076 0.29566 0.0
C201 C 0.42278 0.81126 0.27891 0.0
C202 C 0.4462 0.79473 0.29261 0.0
H203 H 0.47628 0.84431 0.36055 0.0
O204 O 0.4492 0.73799 0.39677 0.0
O205 O 0.47667 0.75074 0.35506 0.0
O206 O 0.50139 0.79403 0.40996 0.0
O207 O 0.52123 0.81281 0.36574 0.0
C208 C 0.40452 0.79787 0.24891 0.0
C209 C 0.41019 0.7685 0.23299 0.0
H210 H 0.42892 0.71237 0.20895 0.0
H211 H 0.47391 0.68867 0.23527 0.0
H212 H 0.43561 0.87515 0.33852 0.0
H213 H 0.40151 0.85464 0.28594 0.0
H214 H 0.38611 0.80994 0.23781 0.0
H215 H 0.39584 0.75834 0.21005 0.0
Mn216 Mn 0.54928 0.27644 0.6584 0.0
Mn217 Mn 0.4862 0.25433 0.59875 0.0
C218 C 0.53216 0.22236 0.63868 0.0
C219 C 0.60481 0.28928 0.6761 0.0
C220 C 0.47771 0.27344 0.66986 0.0
O221 O 0.54512 0.31938 0.64016 0.0
O222 O 0.50608 0.30036 0.59773 0.0
C223 C 0.52011 0.26025 0.5388 0.0
N224 N 0.50015 0.24198 0.55738 0.0
C225 C 0.48538 0.19835 0.51376 0.0
C226 C 0.50591 0.2166 0.49418 0.0
C227 C 0.52355 0.24759 0.50686 0.0
C228 C 0.48354 0.21194 0.54562 0.0
H229 H 0.53292 0.28442 0.54817 0.0
C230 C 0.52678 0.32309 0.6147 0.0
O231 O 0.58322 0.29677 0.69482 0.0
O232 O 0.59452 0.27892 0.64574 0.0
N233 N 0.46447 0.21001 0.59688 0.0
C234 C 0.44741 0.19481 0.61967 0.0
C235 C 0.42954 0.16306 0.61148 0.0
C236 C 0.42894 0.14761 0.57976 0.0
C237 C 0.44662 0.16373 0.5567 0.0
C238 C 0.46454 0.19506 0.56652 0.0
H239 H 0.44803 0.20656 0.64409 0.0
O240 O 0.54873 0.23053 0.66717 0.0
O241 O 0.52634 0.24609 0.62208 0.0
O242 O 0.50762 0.27667 0.68132 0.0
O243 O 0.46842 0.26595 0.63956 0.0
C244 C 0.44724 0.14995 0.52439 0.0
C245 C 0.46663 0.16723 0.50293 0.0
H246 H 0.50831 0.20707 0.46939 0.0
H247 H 0.53933 0.26189 0.49185 0.0
H248 H 0.4162 0.15059 0.62951 0.0
H249 H 0.41524 0.12325 0.57346 0.0
H250 H 0.43293 0.12611 0.51583 0.0
H251 H 0.46718 0.15629 0.47825 0.0
Mn252 Mn 0.9957 0.23875 0.89707 0.0
Mn253 Mn 0.99265 0.28576 0.83447 0.0
C254 C 0.94535 0.24067 0.86874 0.0
C255 C 0.00492 0.19158 0.91946 0.0
C256 C 0.00561 0.31235 0.90631 0.0
O257 O 0.04278 0.24877 0.886 0.0
O258 O 0.0349 0.27077 0.83841 0.0
C259 C 0.99339 0.23717 0.77799 0.0
N260 N 0.97897 0.26011 0.79334 0.0
C261 C 0.93866 0.25653 0.74703 0.0
C262 C 0.95288 0.23263 0.73082 0.0
C263 C 0.98029 0.2228 0.74645 0.0
C264 C 0.95227 0.26931 0.77877 0.0
H265 H 0.0148 0.2301 0.78964 0.0
C266 C 0.05244 0.25897 0.85957 0.0
O267 O 0.00901 0.21949 0.93682 0.0
O268 O 0.99549 0.19093 0.88836 0.0
N269 N 0.95316 0.30239 0.82733 0.0
C270 C 0.94351 0.32695 0.84565 0.0
C271 C 0.91823 0.3415 0.83256 0.0
C272 C 0.90304 0.3308 0.80079 0.0
C273 C 0.91329 0.3055 0.78233 0.0
C274 C 0.9391 0.2923 0.79645 0.0
H275 H 0.95544 0.336 0.86982 0.0
O276 O 0.94684 0.22987 0.89736 0.0
O277 O 0.97318 0.24873 0.85704 0.0
O278 O -0.00039 0.28506 0.91785 0.0
O279 O 0.00591 0.31505 0.8757 0.0
C280 C 0.89952 0.29337 0.75021 0.0
C281 C 0.91183 0.26852 0.73277 0.0
H282 H 0.94312 0.22185 0.7063 0.0
H283 H 0.99153 0.2045 0.73405 0.0
H284 H 0.91063 0.36101 0.84694 0.0
H285 H 0.8837 0.34236 0.79091 0.0
H286 H 0.87952 0.30296 0.73858 0.0
H287 H 0.90087 0.25925 0.70818 0.0
Mn288 Mn 0.40761 0.01859 0.29675 0.0
Mn289 Mn 0.34828 0.01526 0.34771 0.0
C290 C 0.3789 0.96858 0.30856 0.0
C291 C 0.42728 0.01893 0.24612 0.0
C292 C 0.42115 0.03212 0.37099 0.0
O293 O 0.39519 0.06356 0.29581 0.0
O294 O 0.35398 0.05663 0.32723 0.0
C295 C 0.2922 0.0135 0.29758 0.0
N296 N 0.3067 0.99995 0.32253 0.0
C297 C 0.26204 0.95406 0.31682 0.0
C298 C 0.24663 0.96759 0.29117 0.0
C299 C 0.2618 0.99742 0.28149 0.0
C300 C 0.29242 0.97109 0.33182 0.0
H301 H 0.30383 0.03625 0.28976 0.0
C302 C 0.37151 0.07363 0.30862 0.0
O303 O 0.4461 0.03081 0.27264 0.0
O304 O 0.39637 0.00895 0.24853 0.0
N305 N 0.33943 0.97573 0.36815 0.0
C306 C 0.35698 0.96641 0.39403 0.0
C307 C 0.34453 0.93773 0.40755 0.0
C308 C 0.31403 0.91907 0.39459 0.0
C309 C 0.29608 0.92946 0.36843 0.0
C310 C 0.30945 0.95861 0.35639 0.0
H311 H 0.38037 0.98063 0.40431 0.0
O312 O 0.40786 0.97065 0.29878 0.0
O313 O 0.36849 0.99573 0.31215 0.0
O314 O 0.43082 0.03004 0.34272 0.0
O315 O 0.39092 0.02919 0.37582 0.0
C316 C 0.26546 0.91202 0.35385 0.0
C317 C 0.24858 0.92416 0.32786 0.0
H318 H 0.22322 0.95523 0.27864 0.0
H319 H 0.25014 0.00794 0.26159 0.0
H320 H 0.35848 0.92996 0.42783 0.0
H321 H 0.30465 0.89677 0.40487 0.0
H322 H 0.25474 0.88916 0.36235 0.0
H323 H 0.2252 0.91038 0.31663 0.0
Mn324 Mn 0.25092 0.14279 0.5059 0.0
Mn325 Mn 0.23796 0.08468 0.4421 0.0
C326 C 0.1972 0.11471 0.48842 0.0
C327 C 0.26211 0.16142 0.56153 0.0
C328 C 0.25948 0.15753 0.43581 0.0
O329 O 0.29599 0.12931 0.50354 0.0
O330 O 0.28124 0.08484 0.46662 0.0
C331 C 0.23426 0.02555 0.47722 0.0
N332 N 0.22019 0.04325 0.4557 0.0
C333 C 0.17096 0.00246 0.44626 0.0
C334 C 0.18495 0.98377 0.46825 0.0
C335 C 0.21671 0.99543 0.48386 0.0
C336 C 0.18949 0.03246 0.44088 0.0
H337 H 0.25863 0.03439 0.48937 0.0
C338 C 0.30165 0.1029 0.48879 0.0
O339 O 0.26863 0.18048 0.53896 0.0
O340 O 0.24985 0.13103 0.55188 0.0
N341 N 0.1962 0.08144 0.41732 0.0
C342 C 0.18661 0.10184 0.39589 0.0
C343 C 0.15583 0.09318 0.37744 0.0
C344 C 0.13535 0.06351 0.38089 0.0
C345 C 0.14597 0.0426 0.40258 0.0
C346 C 0.17701 0.0524 0.42014 0.0
H347 H 0.20234 0.1245 0.39275 0.0
O348 O 0.20243 0.14371 0.50411 0.0
O349 O 0.22368 0.10444 0.48185 0.0
O350 O 0.25635 0.16657 0.46536 0.0
O351 O 0.25551 0.1273 0.42487 0.0
C352 C 0.12701 0.01236 0.40737 0.0
C353 C 0.13937 0.99244 0.42943 0.0
H354 H 0.17155 0.96046 0.47332 0.0
H355 H 0.22765 0.98119 0.50093 0.0
H356 H 0.14792 0.10934 0.36055 0.0
H357 H 0.11158 0.05698 0.36672 0.0
H358 H 0.10282 0.00426 0.39433 0.0
H359 H 0.12448 0.96935 0.43307 0.0
Mn360 Mn 0.14689 0.02353 0.80414 0.0
Mn361 Mn 0.21 0.03694 0.86319 0.0
C362 C 0.17629 0.07664 0.81917 0.0
C363 C 0.12623 0.0127 0.749 0.0
C364 C 0.13823 0.01756 0.87709 0.0
O365 O 0.1609 0.97861 0.80473 0.0
O366 O 0.20678 0.99226 0.84041 0.0
C367 C 0.26573 0.03609 0.82346 0.0
N368 N 0.2503 0.05209 0.84575 0.0
C369 C 0.29298 0.09965 0.85061 0.0
C370 C 0.30927 0.0837 0.82769 0.0
C371 C 0.29557 0.05179 0.81405 0.0
C372 C 0.26333 0.08277 0.85908 0.0
H373 H 0.25524 0.01164 0.81271 0.0
C374 C 0.18754 0.97232 0.81869 0.0
O375 O 0.10762 0.00582 0.77201 0.0
O376 O 0.15683 0.02477 0.75778 0.0
N377 N 0.21606 0.08002 0.88552 0.0
C378 C 0.19549 0.09361 0.904 0.0
C379 C 0.2058 0.1252 0.92005 0.0
C380 C 0.23667 0.14305 0.91583 0.0
C381 C 0.25663 0.12938 0.89504 0.0
C382 C 0.24545 0.09737 0.88056 0.0
H383 H 0.17099 0.08093 0.90551 0.0
O384 O 0.1462 0.07184 0.80584 0.0
O385 O 0.18681 0.05021 0.82505 0.0
O386 O 0.12603 0.01948 0.84789 0.0
O387 O 0.16928 0.02196 0.88457 0.0
C388 C 0.28671 0.1466 0.88737 0.0
C389 C 0.30479 0.13181 0.86503 0.0
H390 H 0.33222 0.09578 0.82025 0.0
H391 H 0.30792 0.03935 0.79625 0.0
H392 H 0.18963 0.13606 0.93493 0.0
H393 H 0.24429 0.16768 0.9277 0.0
H394 H 0.29584 0.17147 0.89801 0.0
H395 H 0.32763 0.14548 0.85892 0.0
Mn396 Mn 0.25468 0.86982 0.0125 0.0
Mn397 Mn 0.25699 0.92179 0.95403 0.0
C398 C 0.3048 0.89549 0.99863 0.0
C399 C 0.25172 0.85815 0.06646 0.0
C400 C 0.23972 0.8476 0.9402 0.0
O401 O 0.20955 0.88195 0.01049 0.0
O402 O 0.21789 0.92342 0.97886 0.0
C403 C 0.26126 0.98841 0.98694 0.0
N404 N 0.2758 0.96588 0.97105 0.0
C405 C 0.32424 0.00629 0.96885 0.0
C406 C 0.31109 0.0287 0.98845 0.0
C407 C 0.27913 0.0199 0.99696 0.0
C408 C 0.30559 0.97486 0.96058 0.0
H409 H 0.23579 0.9828 0.99079 0.0
C410 C 0.20231 0.90784 1.00004 0.0
O411 O 0.24231 0.8361 0.04183 0.0
O412 O 0.2631 0.8873 0.05938 0.0
N413 N 0.29526 0.92356 0.93091 0.0
C414 C 0.30141 0.9018 0.90669 0.0
C415 C 0.3298 0.90908 0.89073 0.0
C416 C 0.35157 0.93877 0.89958 0.0
C417 C 0.34435 0.96125 0.92379 0.0
C418 C 0.31554 0.95275 0.93874 0.0
H419 H 0.28502 0.8789 0.8996 0.0
O420 O 0.30225 0.86855 0.01237 0.0
O421 O 0.27775 0.90609 0.99262 0.0
O422 O 0.24431 0.84122 0.96951 0.0
O423 O 0.23913 0.87651 0.93256 0.0
C424 C 0.36424 0.99211 0.93303 0.0
C425 C 0.3543 0.01455 0.95573 0.0
H426 H 0.32458 0.05325 0.99554 0.0
H427 H 0.26792 0.03763 0.01033 0.0
H428 H 0.33496 0.89173 0.87177 0.0
H429 H 0.3735 0.94426 0.88729 0.0
H430 H 0.38687 0.99912 0.92224 0.0
H431 H 0.36933 0.03855 0.96192 0.0
Mn432 Mn 0.2874 0.38779 0.06774 0.0
Mn433 Mn 0.29698 0.44969 0.01845 0.0
C434 C 0.34035 0.41569 0.05972 0.0
C435 C 0.27858 0.36383 0.11744 0.0
C436 C 0.27956 0.37818 0.99241 0.0
O437 O 0.24173 0.40056 0.06352 0.0
O438 O 0.25295 0.44344 0.03396 0.0
C439 C 0.29498 0.5046 0.06813 0.0
N440 N 0.31035 0.49077 0.04432 0.0
C441 C 0.35253 0.53861 0.04796 0.0
C442 C 0.33717 0.55338 0.07254 0.0
C443 C 0.30836 0.53622 0.08279 0.0
C444 C 0.33839 0.50682 0.03472 0.0
H445 H 0.27267 0.49161 0.07575 0.0
C446 C 0.2338 0.4248 0.04978 0.0
O447 O 0.27102 0.34761 0.08888 0.0
O448 O 0.29068 0.39475 0.11748 0.0
N449 N 0.33803 0.45936 0.00077 0.0
C450 C 0.34889 0.44222 0.97566 0.0
C451 C 0.37653 0.45646 0.96145 0.0
C452 C 0.39263 0.48829 0.97292 0.0
C453 C 0.38064 0.50575 0.99825 0.0
C454 C 0.35267 0.49043 0.01117 0.0
H455 H 0.33637 0.41797 0.96619 0.0
O456 O 0.33598 0.38699 0.07016 0.0
O457 O 0.3139 0.42777 0.05512 0.0
O458 O 0.27977 0.36701 0.02016 0.0
O459 O 0.2846 0.40861 0.98924 0.0
C460 C 0.39503 0.53793 0.01086 0.0
C461 C 0.38121 0.55421 0.03597 0.0
H462 H 0.34724 0.57789 0.08368 0.0
H463 H 0.29635 0.54746 0.10174 0.0
H464 H 0.38519 0.44295 0.94154 0.0
H465 H 0.41397 0.49915 0.96196 0.0
H466 H 0.41674 0.55039 0.00146 0.0
H467 H 0.39265 0.57885 0.04563 0.0
Mn468 Mn 0.79088 0.16001 0.04714 0.0
Mn469 Mn 0.76281 0.09745 0.98766 0.0
C470 C 0.7355 0.13731 0.03661 0.0
C471 C 0.80581 0.18756 0.09926 0.0
C472 C 0.78104 0.16742 0.97438 0.0
O473 O 0.83238 0.1408 0.04175 0.0
O474 O 0.81062 0.10227 0.99985 0.0
C475 C 0.77518 0.04316 0.02578 0.0
N476 N 0.75425 0.05734 0.00707 0.0
C477 C 0.71076 0.01112 0.00684 0.0
C478 C 0.73192 0.99603 0.026 0.0
C479 C 0.76422 0.01224 0.03571 0.0
C480 C 0.72287 0.0423 0.9983 0.0
H481 H 0.80004 0.05524 0.03296 0.0
C482 C 0.83451 0.1172 0.02044 0.0
O483 O 0.81454 0.20045 0.07331 0.0
O484 O 0.79238 0.15675 0.09563 0.0
N485 N 0.71681 0.08901 0.97343 0.0
C486 C 0.69973 0.10621 0.95379 0.0
C487 C 0.66704 0.09317 0.94177 0.0
C488 C 0.65256 0.06217 0.94916 0.0
C489 C 0.67082 0.04451 0.96857 0.0
C490 C 0.70318 0.05887 0.98015 0.0
H491 H 0.71091 0.12971 0.94723 0.0
O492 O 0.7449 0.16734 0.04902 0.0
O493 O 0.75839 0.12151 0.02961 0.0
O494 O 0.79322 0.17805 0.00329 0.0
O495 O 0.76909 0.13754 0.96534 0.0
C496 C 0.65834 0.01294 0.9764 0.0
C497 C 0.67819 0.99635 0.9957 0.0
H498 H 0.72363 0.972 0.03337 0.0
H499 H 0.78075 0.0008 0.05053 0.0
H500 H 0.65317 0.10681 0.92652 0.0
H501 H 0.62752 0.052 0.9396 0.0
H502 H 0.63357 0.00111 0.96762 0.0
H503 H 0.66822 0.97216 0.00167 0.0
Mn504 Mn 0.12068 0.504 0.2587 0.0
Mn505 Mn 0.18716 0.52728 0.31565 0.0
C506 C 0.14729 0.55823 0.26755 0.0
C507 C 0.09096 0.48737 0.20773 0.0
C508 C 0.11735 0.5149 0.33243 0.0
O509 O 0.13474 0.46057 0.26583 0.0
O510 O 0.1779 0.47951 0.30382 0.0
C511 C 0.23685 0.50921 0.27395 0.0
N512 N 0.22575 0.53209 0.29326 0.0
C513 C 0.27319 0.5725 0.28775 0.0
C514 C 0.2851 0.54935 0.26786 0.0
C515 C 0.26679 0.5176 0.26084 0.0
C516 C 0.24293 0.56286 0.29973 0.0
H517 H 0.22307 0.48468 0.26865 0.0
C518 C 0.15892 0.45644 0.2854 0.0
O519 O 0.07823 0.48236 0.23468 0.0
O520 O 0.12235 0.49874 0.20995 0.0
N521 N 0.20047 0.57288 0.32997 0.0
C522 C 0.18864 0.59061 0.35394 0.0
C523 C 0.20489 0.62247 0.36501 0.0
C524 C 0.23401 0.63535 0.35239 0.0
C525 C 0.24712 0.61595 0.32957 0.0
C526 C 0.22973 0.58435 0.31941 0.0
H527 H 0.16783 0.58008 0.36567 0.0
O528 O 0.11722 0.55017 0.25456 0.0
O529 O 0.16168 0.53421 0.27479 0.0
O530 O 0.10454 0.50637 0.30332 0.0
O531 O 0.14815 0.52384 0.34056 0.0
C532 C 0.27745 0.62627 0.3176 0.0
C533 C 0.29036 0.60463 0.2965 0.0
H534 H 0.30836 0.55563 0.25799 0.0
H535 H 0.27584 0.49955 0.24556 0.0
H536 H 0.19537 0.63682 0.38371 0.0
H537 H 0.24674 0.65969 0.36127 0.0
H538 H 0.29135 0.65059 0.32492 0.0
H539 H 0.31384 0.61277 0.28766 0.0
Mn540 Mn 0.78369 0.88475 0.5675 0.0
Mn541 Mn 0.79411 0.9464 0.51852 0.0
C542 C 0.83733 0.91172 0.55904 0.0
C543 C 0.77499 0.85887 0.61658 0.0
C544 C 0.77419 0.8748 0.4924 0.0
O545 O 0.73837 0.89943 0.5641 0.0
O546 O 0.7514 0.94281 0.53589 0.0
C547 C 0.79616 0.00196 0.56868 0.0
N548 N 0.80988 0.98725 0.54406 0.0
C549 C 0.85314 0.03377 0.54567 0.0
C550 C 0.83948 0.04953 0.57097 0.0
C551 C 0.81099 0.03345 0.58269 0.0
C552 C 0.83768 0.00215 0.53316 0.0
H553 H 0.77406 0.98979 0.5775 0.0
C554 C 0.73143 0.92466 0.55127 0.0
O555 O 0.76528 0.84467 0.58752 0.0
O556 O 0.78869 0.8895 0.61763 0.0
N557 N 0.83447 0.95386 0.49946 0.0
C558 C 0.84406 0.93548 0.47445 0.0
C559 C 0.87165 0.94825 0.45935 0.0
C560 C 0.88872 0.97996 0.46968 0.0
C561 C 0.87809 0.99872 0.49505 0.0
C562 C 0.85037 0.98469 0.50911 0.0
H563 H 0.83063 0.91134 0.46582 0.0
O564 O 0.83234 0.88273 0.56886 0.0
O565 O 0.81111 0.92417 0.55489 0.0
O566 O 0.7753 0.86393 0.52018 0.0
O567 O 0.77854 0.90524 0.48903 0.0
C568 C 0.89356 0.03089 0.50672 0.0
C569 C 0.88137 0.04823 0.53226 0.0
H570 H 0.85067 0.07396 0.58157 0.0
H571 H 0.80032 0.04541 0.60225 0.0
H572 H 0.87955 0.9338 0.43958 0.0
H573 H 0.90976 0.98953 0.45773 0.0
H574 H 0.91488 0.04268 0.49646 0.0
H575 H 0.89375 0.07277 0.54121 0.0
Mn576 Mn 0.89912 0.98833 0.24245 0.0
Mn577 Mn 0.83616 0.97683 0.29069 0.0
C578 C 0.87097 0.93502 0.24751 0.0
C579 C 0.92516 0.00076 0.19481 0.0
C580 C 0.908 0.99165 0.31746 0.0
O581 O 0.88722 0.03419 0.24972 0.0
O582 O 0.84397 0.02205 0.27855 0.0
C583 C 0.78313 0.98352 0.24048 0.0
N584 N 0.79561 0.96595 0.26315 0.0
C585 C 0.74729 0.92401 0.25394 0.0
C586 C 0.73387 0.9417 0.23055 0.0
C587 C 0.75195 0.97151 0.22368 0.0
C588 C 0.77874 0.93691 0.2694 0.0
H589 H 0.79682 0.00656 0.23531 0.0
C590 C 0.86328 0.042 0.26418 0.0
O591 O 0.94022 0.00644 0.22398 0.0
O592 O 0.89395 0.98844 0.19272 0.0
N593 N 0.82422 0.93474 0.30565 0.0
C594 C 0.8381 0.92353 0.33257 0.0
C595 C 0.82225 0.89511 0.34431 0.0
C596 C 0.79168 0.87893 0.32891 0.0
C597 C 0.77671 0.89201 0.3027 0.0
C598 C 0.79363 0.92066 0.29232 0.0
H599 H 0.86025 0.93705 0.34606 0.0
O600 O 0.89968 0.94014 0.23689 0.0
O601 O 0.85859 0.96114 0.25342 0.0
O602 O 0.9192 0.99185 0.28981 0.0
O603 O 0.87741 0.98704 0.32101 0.0
C604 C 0.74511 0.87846 0.28738 0.0
C605 C 0.73054 0.89428 0.26275 0.0
H606 H 0.70968 0.9327 0.21782 0.0
H607 H 0.74177 0.98531 0.20567 0.0
H608 H 0.83332 0.886 0.36553 0.0
H609 H 0.77947 0.85714 0.33812 0.0
H610 H 0.73163 0.85613 0.29468 0.0
H611 H 0.70617 0.88373 0.25123 0.0
Mn612 Mn 0.28112 0.65218 0.54445 0.0
Mn613 Mn 0.25153 0.59282 0.48252 0.0
C614 C 0.22519 0.63032 0.53524 0.0
C615 C 0.29709 0.67208 0.59918 0.0
C616 C 0.27016 0.66398 0.47236 0.0
O617 O 0.32283 0.63537 0.53376 0.0
O618 O 0.29914 0.59714 0.49263 0.0
C619 C 0.26586 0.53714 0.51725 0.0
N620 N 0.24402 0.552 0.5005 0.0
C621 C 0.20068 0.50614 0.50143 0.0
C622 C 0.22267 0.49019 0.51846 0.0
C623 C 0.25537 0.50589 0.52664 0.0
C624 C 0.21236 0.53746 0.49324 0.0
H625 H 0.29112 0.54892 0.52332 0.0
C626 C 0.32407 0.61236 0.51147 0.0
O627 O 0.30449 0.68981 0.57566 0.0
O628 O 0.28544 0.64135 0.59076 0.0
N629 N 0.20537 0.58491 0.4702 0.0
C630 C 0.18755 0.60279 0.45228 0.0
C631 C 0.15417 0.59076 0.44278 0.0
C632 C 0.13976 0.56004 0.451 0.0
C633 C 0.15891 0.54133 0.46791 0.0
C634 C 0.19193 0.55479 0.4771 0.0
H635 H 0.19879 0.62586 0.44501 0.0
O636 O 0.23581 0.65903 0.55056 0.0
O637 O 0.2477 0.61507 0.52535 0.0
O638 O 0.28035 0.6742 0.50212 0.0
O639 O 0.25815 0.63424 0.46217 0.0
C640 C 0.14673 0.50957 0.47539 0.0
C641 C 0.16771 0.49199 0.49196 0.0
H642 H 0.21469 0.46593 0.52543 0.0
H643 H 0.2725 0.49383 0.5399 0.0
H644 H 0.13971 0.60503 0.42901 0.0
H645 H 0.11407 0.55086 0.44415 0.0
H646 H 0.12149 0.49818 0.46808 0.0
H647 H 0.15861 0.46738 0.49682 0.0
Mn648 Mn 0.39993 0.48844 0.7393 0.0
Mn649 Mn 0.335 0.47821 0.78499 0.0
C650 C 0.37085 0.43521 0.74376 0.0
C651 C 0.42813 0.5009 0.69299 0.0
C652 C 0.40615 0.49285 0.81417 0.0
O653 O 0.38861 0.53478 0.74621 0.0
O654 O 0.34312 0.52302 0.77193 0.0
C655 C 0.28329 0.48346 0.7327 0.0
N656 N 0.29522 0.46655 0.75632 0.0
C657 C 0.24772 0.42369 0.74589 0.0
C658 C 0.23483 0.44072 0.72157 0.0
C659 C 0.25276 0.47067 0.71486 0.0
C660 C 0.27844 0.43747 0.76255 0.0
H661 H 0.29696 0.50653 0.72755 0.0
C662 C 0.36379 0.54288 0.75893 0.0
O663 O 0.44215 0.50599 0.72254 0.0
O664 O 0.39678 0.48896 0.68958 0.0
N665 N 0.32285 0.43665 0.80067 0.0
C666 C 0.33612 0.42602 0.82821 0.0
C667 C 0.32085 0.39696 0.83913 0.0
C668 C 0.29138 0.37972 0.82228 0.0
C669 C 0.27637 0.39274 0.79606 0.0
C670 C 0.29284 0.42189 0.78636 0.0
H671 H 0.3575 0.44019 0.84247 0.0
O672 O 0.39991 0.44009 0.73394 0.0
O673 O 0.35859 0.46158 0.749 0.0
O674 O 0.41832 0.49157 0.78705 0.0
O675 O 0.37539 0.48941 0.81659 0.0
C676 C 0.24551 0.37827 0.77955 0.0
C677 C 0.23128 0.39364 0.7543 0.0
H678 H 0.2112 0.43104 0.70791 0.0
H679 H 0.24301 0.48394 0.6961 0.0
H680 H 0.33176 0.38786 0.86043 0.0
H681 H 0.28059 0.35659 0.82975 0.0
H682 H 0.23237 0.35554 0.78632 0.0
H683 H 0.20751 0.38236 0.74182 0.0
Mn684 Mn 0.63252 0.00189 0.74798 0.0
Mn685 Mn 0.69121 0.03542 0.80921 0.0
C686 C 0.64588 0.05789 0.76038 0.0
C687 C 0.61014 0.98698 0.69431 0.0
C688 C 0.62302 0.00639 0.8209 0.0
O689 O 0.65715 0.96443 0.75399 0.0
O690 O 0.69072 0.98838 0.79823 0.0
C691 C 0.74371 0.03182 0.76567 0.0
N692 N 0.7303 0.04874 0.78896 0.0
C693 C 0.7722 0.09625 0.78858 0.0
C694 C 0.7878 0.07849 0.76647 0.0
C695 C 0.77315 0.04631 0.75449 0.0
C696 C 0.74284 0.08047 0.7987 0.0
H697 H 0.73172 0.00763 0.75539 0.0
C698 C 0.67865 0.96349 0.7779 0.0
O699 O 0.59584 0.97512 0.71847 0.0
O700 O 0.64008 0.00286 0.70092 0.0
N701 N 0.69544 0.08065 0.82447 0.0
C702 C 0.67754 0.09431 0.84611 0.0
C703 C 0.68841 0.12666 0.86 0.0
C704 C 0.71781 0.1446 0.85192 0.0
C705 C 0.73645 0.12974 0.83056 0.0
C706 C 0.72466 0.09721 0.81797 0.0
H707 H 0.65562 0.08036 0.85348 0.0
O708 O 0.61739 0.04419 0.74589 0.0
O709 O 0.66582 0.0384 0.76763 0.0
O710 O 0.61332 0.99558 0.79124 0.0
O711 O 0.65126 0.02343 0.83072 0.0
C712 C 0.7665 0.14578 0.82164 0.0
C713 C 0.7842 0.12917 0.80037 0.0
H714 H 0.81048 0.08963 0.75778 0.0
H715 H 0.78435 0.03283 0.73647 0.0
H716 H 0.67423 0.13768 0.87706 0.0
H717 H 0.72604 0.16961 0.86256 0.0
H718 H 0.776 0.17101 0.83066 0.0
H719 H 0.80696 0.14198 0.79317 0.0
Mn720 Mn 0.75127 0.63361 0.00389 0.0
Mn721 Mn 0.73626 0.5775 0.93795 0.0
C722 C 0.69769 0.60572 0.98779 0.0
C723 C 0.76447 0.65038 0.05979 0.0
C724 C 0.75559 0.65067 0.93368 0.0
O725 O 0.79594 0.61998 0.99913 0.0
O726 O 0.78054 0.5769 0.96031 0.0
C727 C 0.73424 0.51599 0.96898 0.0
N728 N 0.71902 0.5353 0.95027 0.0
C729 C 0.66877 0.49577 0.94312 0.0
C730 C 0.68383 0.47569 0.96263 0.0
C731 C 0.71673 0.48581 0.97554 0.0
C732 C 0.68739 0.52568 0.93756 0.0
H733 H 0.75953 0.52356 0.97889 0.0
C734 C 0.80124 0.59427 0.98273 0.0
O735 O 0.77027 0.67028 0.03779 0.0
O736 O 0.75212 0.62014 0.04945 0.0
N737 N 0.69353 0.5754 0.91547 0.0
C738 C 0.68308 0.59667 0.89554 0.0
C739 C 0.65108 0.58952 0.87964 0.0
C740 C 0.63029 0.56029 0.88386 0.0
C741 C 0.64185 0.53829 0.90366 0.0
C742 C 0.67406 0.54668 0.91877 0.0
H743 H 0.69907 0.6188 0.89146 0.0
O744 O 0.70307 0.63418 0.00464 0.0
O745 O 0.72381 0.59589 0.97937 0.0
O746 O 0.75359 0.65897 0.96372 0.0
O747 O 0.75273 0.62085 0.92192 0.0
C748 C 0.62265 0.50838 0.90899 0.0
C749 C 0.63602 0.48723 0.92889 0.0
H750 H 0.67042 0.45237 0.9677 0.0
H751 H 0.72859 0.47037 0.99049 0.0
H752 H 0.64249 0.60647 0.86409 0.0
H753 H 0.60556 0.55491 0.87166 0.0
H754 H 0.59753 0.50142 0.89795 0.0
H755 H 0.62099 0.46433 0.93288 0.0
Mn756 Mn 0.90823 0.51704 0.79189 0.0
Mn757 Mn 0.8515 0.51569 0.84604 0.0
C758 C 0.87988 0.46789 0.80613 0.0
C759 C 0.92644 0.51395 0.74052 0.0
C760 C 0.9251 0.53314 0.86548 0.0
O761 O 0.896 0.56208 0.79004 0.0
O762 O 0.85626 0.55568 0.82391 0.0
C763 C 0.79347 0.51298 0.79791 0.0
N764 N 0.80905 0.49997 0.82261 0.0
C765 C 0.76448 0.45423 0.81939 0.0
C766 C 0.74805 0.46714 0.79394 0.0
C767 C 0.76263 0.49663 0.78315 0.0
C768 C 0.79535 0.47142 0.83294 0.0
H769 H 0.80457 0.53549 0.78923 0.0
C770 C 0.87209 0.57136 0.80322 0.0
O771 O 0.94562 0.52775 0.76617 0.0
O772 O 0.89562 0.50478 0.74402 0.0
N773 N 0.84332 0.47719 0.86818 0.0
C774 C 0.8609 0.46966 0.89503 0.0
C775 C 0.84871 0.44196 0.91024 0.0
C776 C 0.81831 0.42258 0.89806 0.0
C777 C 0.8 0.43154 0.8713 0.0
C778 C 0.81315 0.45977 0.85754 0.0
H779 H 0.88409 0.48464 0.90486 0.0
O780 O 0.90837 0.46936 0.79541 0.0
O781 O 0.87 0.49523 0.80982 0.0
O782 O 0.93313 0.53032 0.83662 0.0
O783 O 0.89534 0.53008 0.87216 0.0
C784 C 0.76902 0.41383 0.85804 0.0
C785 C 0.75142 0.42498 0.83187 0.0
H786 H 0.72422 0.45463 0.78253 0.0
H787 H 0.75014 0.50671 0.76344 0.0
H788 H 0.86273 0.43556 0.93127 0.0
H789 H 0.80909 0.40108 0.9097 0.0
H790 H 0.75845 0.39165 0.86787 0.0
H791 H 0.72766 0.4111 0.82181 0.0
Mn792 Mn 0.76418 0.36811 0.50726 0.0
Mn793 Mn 0.76837 0.42457 0.45319 0.0
C794 C 0.81446 0.39505 0.49508 0.0
C795 C 0.76308 0.35235 0.55957 0.0
C796 C 0.75017 0.35141 0.43317 0.0
O797 O 0.71928 0.38111 0.50684 0.0
O798 O 0.72672 0.42145 0.47358 0.0
C799 C 0.77134 0.48313 0.50016 0.0
N800 N 0.78472 0.4668 0.47635 0.0
C801 C 0.83162 0.5102 0.48006 0.0
C802 C 0.81831 0.52742 0.5046 0.0
C803 C 0.78804 0.5138 0.51469 0.0
C804 C 0.81394 0.47963 0.46659 0.0
H805 H 0.74819 0.47282 0.50818 0.0
C806 C 0.71062 0.40532 0.49384 0.0
O807 O 0.75174 0.33181 0.53407 0.0
O808 O 0.77348 0.38248 0.55488 0.0
N809 N 0.80827 0.43098 0.43286 0.0
C810 C 0.81753 0.41158 0.40844 0.0
C811 C 0.84663 0.42232 0.39465 0.0
C812 C 0.86577 0.45299 0.40586 0.0
C813 C 0.85564 0.47268 0.43076 0.0
C814 C 0.82608 0.46095 0.44314 0.0
H815 H 0.80287 0.38807 0.39946 0.0
O816 O 0.81198 0.36672 0.50615 0.0
O817 O 0.78742 0.40573 0.49022 0.0
O818 O 0.75276 0.34304 0.46205 0.0
O819 O 0.75315 0.3812 0.42703 0.0
C820 C 0.87376 0.50343 0.44383 0.0
C821 C 0.8619 0.52206 0.46866 0.0
H822 H 0.83116 0.55106 0.51591 0.0
H823 H 0.77763 0.52689 0.53367 0.0
H824 H 0.85434 0.40695 0.37549 0.0
H825 H 0.88835 0.46107 0.39535 0.0
H826 H 0.89695 0.5129 0.43508 0.0
H827 H 0.87619 0.54554 0.47875 0.0
Mn828 Mn 0.63932 0.52968 0.30143 0.0
Mn829 Mn 0.69954 0.53276 0.362 0.0
C830 C 0.6734 0.5797 0.32021 0.0
C831 C 0.62057 0.52352 0.24588 0.0
C832 C 0.6268 0.52138 0.37232 0.0
O833 O 0.64637 0.4823 0.30074 0.0
O834 O 0.69148 0.48878 0.33643 0.0
C835 C 0.755 0.52791 0.32276 0.0
N836 N 0.74103 0.54484 0.3456 0.0
C837 C 0.78591 0.59041 0.35014 0.0
C838 C 0.8007 0.5735 0.32659 0.0
C839 C 0.7852 0.54209 0.3129 0.0
C840 C 0.7558 0.57504 0.35901 0.0
H841 H 0.743 0.50395 0.31181 0.0
C842 C 0.67009 0.47113 0.31474 0.0
O843 O 0.60053 0.51772 0.26793 0.0
O844 O 0.65153 0.5316 0.2559 0.0
N845 N 0.70997 0.57444 0.38746 0.0
C846 C 0.6931 0.58701 0.41074 0.0
C847 C 0.70574 0.61792 0.42751 0.0
C848 C 0.73582 0.63543 0.42046 0.0
C849 C 0.75324 0.6216 0.39711 0.0
C850 C 0.73958 0.59052 0.38149 0.0
H851 H 0.67032 0.57347 0.41674 0.0
O852 O 0.64427 0.57871 0.30566 0.0
O853 O 0.68028 0.55132 0.32483 0.0
O854 O 0.61655 0.52614 0.34341 0.0
O855 O 0.65702 0.52144 0.38145 0.0
C856 C 0.78352 0.63752 0.38857 0.0
C857 C 0.79974 0.62202 0.36495 0.0
H858 H 0.82391 0.58442 0.31879 0.0
H859 H 0.79641 0.52894 0.29463 0.0
H860 H 0.69231 0.62823 0.44578 0.0
H861 H 0.74536 0.6594 0.43322 0.0
H862 H 0.79446 0.66175 0.39992 0.0
H863 H 0.8229 0.63458 0.35843 0.0
Zn864 Zn 0.05062 0.99769 0.04921 0.0
Zn865 Zn 0.99256 0.02586 0.01069 0.0
C866 C 0.03122 0.93173 0.03619 0.0
O867 O 0.0568 0.93637 0.01953 0.0
C868 C 0.00439 0.09463 0.00744 0.0
O869 O 0.9755 0.09276 0.01817 0.0
O870 O 0.09221 0.98112 0.06554 0.0
O871 O 0.06164 0.01594 0.007 0.0
O872 O 0.01499 0.00103 0.97576 0.0
C873 C 0.11852 0.98754 0.05191 0.0
O874 O 0.1212 0.01048 0.032 0.0
O875 O 0.01715 0.95574 0.04206 0.0
C876 C 0.92239 0.02658 0.01031 0.0
O877 O 0.92535 0.00802 0.03401 0.0
O878 O 0.94672 0.03284 0.99374 0.0
O879 O 0.98639 0.014 0.05799 0.0
O880 O 0.03514 0.02582 0.08533 0.0
O881 O 0.01932 0.0709 0.00984 0.0
C882 C 0.0463 0.00842 0.97856 0.0
C883 C 0.00417 0.02143 0.08529 0.0
Zn884 Zn 0.25935 0.74979 0.29921 0.0
Zn885 Zn 0.29255 0.7796 0.24101 0.0
C886 C 0.21437 0.69248 0.27782 0.0
O887 O 0.1953 0.71424 0.27945 0.0
C888 C 0.31452 0.84313 0.27186 0.0
O889 O 0.3365 0.84011 0.25146 0.0
O890 O 0.25173 0.75028 0.34663 0.0
O891 O 0.30839 0.76209 0.30497 0.0
O892 O 0.32617 0.75398 0.25688 0.0
C893 C 0.26763 0.73022 0.35914 0.0
O894 O 0.28447 0.71403 0.34037 0.0
O895 O 0.24518 0.70203 0.28289 0.0
C896 C 0.2829 0.81513 0.19074 0.0
O897 O 0.26159 0.82087 0.21091 0.0
O898 O 0.30314 0.79698 0.19843 0.0
O899 O 0.24693 0.75569 0.2286 0.0
O900 O 0.22977 0.77497 0.27362 0.0
O901 O 0.29203 0.81893 0.27393 0.0
C902 C 0.33035 0.75488 0.28782 0.0
C903 C 0.22518 0.76745 0.24274 0.0
Zn904 Zn 0.4741 0.02803 0.55093 0.0
Zn905 Zn 0.54977 0.98972 0.52263 0.0
C906 C 0.48845 0.091 0.58118 0.0
O907 O 0.46056 0.07886 0.59182 0.0
C908 C 0.55231 0.93879 0.47689 0.0
O909 O 0.57566 0.9618 0.46997 0.0
O910 O 0.42534 0.03128 0.54423 0.0
O911 O 0.48624 0.00745 0.50771 0.0
O912 O 0.53446 0.01871 0.48928 0.0
C913 C 0.41948 0.05203 0.52467 0.0
O914 O 0.4438 0.06686 0.51017 0.0
O915 O 0.50037 0.07335 0.56064 0.0
C916 C 0.60737 0.97069 0.55178 0.0
O917 O 0.58431 0.94864 0.56078 0.0
O918 O 0.5988 0.99446 0.53797 0.0
O919 O 0.52189 0.99552 0.55719 0.0
O920 O 0.48916 0.00681 0.592 0.0
O921 O 0.53589 0.94457 0.50047 0.0
C922 C 0.5044 0.02196 0.48807 0.0
C923 C 0.51526 0.99666 0.58634 0.0
Zn924 Zn 0.30834 0.23943 0.76211 0.0
Zn925 Zn 0.24462 0.27403 0.80181 0.0
C926 C 0.28951 0.20658 0.69894 0.0
O927 O 0.30661 0.18696 0.71264 0.0
C928 C 0.25493 0.29007 0.87234 0.0
O929 O 0.23153 0.26464 0.87229 0.0
O930 O 0.35476 0.23357 0.75635 0.0
O931 O 0.3131 0.28656 0.78095 0.0
O932 O 0.26673 0.30248 0.76865 0.0
C933 C 0.37702 0.25834 0.7551 0.0
O934 O 0.37 0.28749 0.76045 0.0
O935 O 0.28556 0.23237 0.71561 0.0
C936 C 0.17722 0.25491 0.81307 0.0
O937 O 0.18685 0.22721 0.81659 0.0
O938 O 0.19678 0.27852 0.80372 0.0
O939 O 0.24485 0.22497 0.80068 0.0
O940 O 0.28659 0.20292 0.78692 0.0
O941 O 0.26633 0.29691 0.84567 0.0
C942 C 0.29785 0.30746 0.7694 0.0
C943 C 0.2584 0.20015 0.79708 0.0
Zn944 Zn 0.03984 0.98486 0.55032 0.0
Zn945 Zn 0.00433 0.04203 0.50663 0.0
C946 C 0.08406 0.99518 0.60971 0.0
O947 O 0.10133 0.97989 0.59057 0.0
C948 C 0.9758 0.02127 0.44388 0.0
O949 O 0.95468 0.03616 0.45757 0.0
O950 O 0.04293 0.93824 0.54826 0.0
O951 O 0.99031 0.97909 0.5467 0.0
O952 O 0.96627 0.01765 0.52855 0.0
C953 C 0.02882 0.92635 0.57174 0.0
O954 O 0.01651 0.94543 0.59232 0.0
O955 O 0.05775 0.00286 0.59736 0.0
C956 C 0.01372 0.10028 0.48177 0.0
O957 O 0.03759 0.08609 0.47325 0.0
O958 O 0.99341 0.08609 0.49944 0.0
O959 O 0.053 0.05319 0.52519 0.0
O960 O 0.06897 0.00616 0.51769 0.0
O961 O 0.00189 0.01865 0.46089 0.0
C962 C 0.96459 0.99054 0.5405 0.0
C963 C 0.07364 0.03658 0.51514 0.0
Zn964 Zn 0.25911 0.7947 0.76496 0.0
Zn965 Zn 0.29049 0.72336 0.78745 0.0
C966 C 0.20189 0.77331 0.72242 0.0
O967 O 0.22377 0.77895 0.70155 0.0
C968 C 0.35009 0.7494 0.82203 0.0
O969 O 0.3384 0.72481 0.83786 0.0
O970 O 0.25724 0.84476 0.76773 0.0
O971 O 0.27329 0.78706 0.8115 0.0
O972 O 0.25998 0.73555 0.82078 0.0
C973 C 0.23319 0.85147 0.78276 0.0
O974 O 0.21407 0.82744 0.79383 0.0
O975 O 0.21155 0.77498 0.7527 0.0
C976 C 0.32342 0.66988 0.76885 0.0
O977 O 0.3371 0.69245 0.75158 0.0
O978 O 0.30176 0.67671 0.7872 0.0
O979 O 0.27101 0.72416 0.74238 0.0
O980 O 0.28423 0.77458 0.72898 0.0
O981 O 0.33338 0.75533 0.79676 0.0
C982 C 0.25855 0.76554 0.8277 0.0
C983 C 0.28164 0.74368 0.72228 0.0
Zn984 Zn 0.54903 0.03406 0.99011 0.0
Zn985 Zn 0.49603 0.99815 0.06219 0.0
C986 C 0.60779 0.05896 0.02701 0.0
O987 O 0.58897 0.0529 0.05047 0.0
C988 C 0.43563 0.96061 0.03164 0.0
O989 O 0.45314 0.93764 0.02829 0.0
O990 O 0.53534 0.02131 0.94303 0.0
O991 O 0.53859 0.99692 0.01629 0.0
O992 O 0.51888 0.96043 0.04631 0.0
C993 C 0.55427 0.00324 0.93255 0.0
O994 O 0.57234 0.99056 0.95375 0.0
O995 O 0.59636 0.0508 0.99733 0.0
C996 C 0.47701 0.98849 0.12372 0.0
O997 O 0.4605 0.96182 0.10667 0.0
O998 O 0.49795 0.00752 0.11053 0.0
O999 O 0.51044 0.03829 0.04085 0.0
O1000 O 0.53113 0.07239 0.0085 0.0
O1001 O 0.44897 0.98851 0.04526 0.0
C1002 C 0.53552 0.96775 0.02276 0.0
C1003 C 0.51648 0.06731 0.03373 0.0
Zn1004 Zn 0.29073 0.23473 0.26352 0.0
Zn1005 Zn 0.24931 0.29251 0.30237 0.0
C1006 C 0.34471 0.25101 0.23203 0.0
O1007 O 0.32182 0.23505 0.20959 0.0
C1008 C 0.19756 0.26771 0.33031 0.0
O1009 O 0.21912 0.28706 0.35176 0.0
O1010 O 0.29151 0.18642 0.24944 0.0
O1011 O 0.28342 0.23229 0.31238 0.0
O1012 O 0.27927 0.27896 0.3392 0.0
C1013 C 0.31618 0.17946 0.26601 0.0
O1014 O 0.33483 0.20232 0.28626 0.0
O1015 O 0.33754 0.257 0.26096 0.0
C1016 C 0.21202 0.33877 0.29187 0.0
O1017 O 0.20125 0.31511 0.26831 0.0
O1018 O 0.23511 0.33579 0.31329 0.0
O1019 O 0.26458 0.30263 0.25876 0.0
O1020 O 0.2661 0.2571 0.22846 0.0
O1021 O 0.20569 0.26205 0.30162 0.0
C1022 C 0.28318 0.24947 0.33945 0.0
C1023 C 0.26648 0.28777 0.23112 0.0
Zn1024 Zn 0.53925 0.47676 0.04822 0.0
Zn1025 Zn 0.50688 0.54382 0.00436 0.0
C1026 C 0.57145 0.51949 0.10937 0.0
O1027 O 0.57354 0.5456 0.09364 0.0
C1028 C 0.47584 0.53053 0.94047 0.0
O1029 O 0.45992 0.55195 0.95337 0.0
O1030 O 0.53923 0.42894 0.0485 0.0
O1031 O 0.49213 0.48112 0.04427 0.0
O1032 O 0.46838 0.52021 0.02658 0.0
C1033 C 0.51785 0.41513 0.06553 0.0
O1034 O 0.49679 0.43173 0.07729 0.0
O1035 O 0.55848 0.49173 0.09474 0.0
C1036 C 0.52704 0.61372 1.00017 0.0
O1037 O 0.55635 0.60779 0.00846 0.0
O1038 O 0.50215 0.59103 0.99931 0.0
O1039 O 0.55487 0.54566 0.02246 0.0
O1040 O 0.56869 0.4972 0.01569 0.0
O1041 O 0.49918 0.52222 0.95777 0.0
C1042 C 0.46666 0.49311 0.03873 0.0
C1043 C 0.57416 0.52751 0.0122 0.0
Zn1044 Zn 0.74885 0.29857 0.25821 0.0
Zn1045 Zn 0.7941 0.22617 0.28344 0.0
C1046 C 0.69724 0.24531 0.22616 0.0
O1047 O 0.72024 0.22965 0.21756 0.0
C1048 C 0.84806 0.25633 0.33246 0.0
O1049 O 0.83018 0.24299 0.3541 0.0
O1050 O 0.74166 0.34653 0.26674 0.0
O1051 O 0.76924 0.2865 0.30128 0.0
O1052 O 0.7608 0.23659 0.31473 0.0
C1053 C 0.71254 0.35252 0.2654 0.0
O1054 O 0.68786 0.32903 0.25416 0.0
O1055 O 0.70447 0.27194 0.24454 0.0
C1056 C 0.82833 0.17067 0.275 0.0
O1057 O 0.85389 0.19433 0.28061 0.0
O1058 O 0.79958 0.17751 0.275 0.0
O1059 O 0.79058 0.24905 0.2434 0.0
O1060 O 0.77404 0.28809 0.21907 0.0
O1061 O 0.8371 0.25184 0.3026 0.0
C1062 C 0.75536 0.26564 0.3188 0.0
C1063 C 0.78837 0.26358 0.21785 0.0
Zn1064 Zn 0.02672 0.52811 0.49939 0.0
Zn1065 Zn 0.00286 0.49619 0.55928 0.0
C1066 C 0.09046 0.56679 0.53681 0.0
O1067 O 0.07406 0.58154 0.55714 0.0
C1068 C 0.94249 0.46249 0.52572 0.0
O1069 O 0.95128 0.43979 0.54275 0.0
O1070 O 0.02418 0.53557 0.45217 0.0
O1071 O 0.01802 0.47934 0.49495 0.0
O1072 O 0.03552 0.46951 0.54401 0.0
C1073 C 0.04459 0.5203 0.43965 0.0
O1074 O 0.0615 0.50387 0.45815 0.0
O1075 O 0.07551 0.54537 0.51422 0.0
C1076 C 0.99375 0.49794 0.62726 0.0
O1077 O 0.01707 0.5238 0.62954 0.0
O1078 O 0.98628 0.47998 0.60029 0.0
O1079 O 0.01774 0.54406 0.57001 0.0
O1080 O 0.99637 0.55343 0.52203 0.0
O1081 O 0.96175 0.48974 0.52699 0.0
C1082 C 0.03227 0.46225 0.51326 0.0
C1083 C 0.00369 0.56197 0.55244 0.0
Zn1084 Zn 0.80817 0.7366 0.25878 0.0
Zn1085 Zn 0.74532 0.77206 0.30046 0.0
C1086 C 0.79144 0.69943 0.19697 0.0
O1087 O 0.80773 0.68086 0.21336 0.0
C1088 C 0.75182 0.7891 0.37133 0.0
O1089 O 0.72751 0.76447 0.37074 0.0
O1090 O 0.85516 0.73378 0.25516 0.0
O1091 O 0.81431 0.78457 0.27583 0.0
O1092 O 0.76717 0.80071 0.26783 0.0
C1093 C 0.86809 0.75468 0.23723 0.0
O1094 O 0.85039 0.77462 0.22491 0.0
O1095 O 0.78687 0.72623 0.21133 0.0
C1096 C 0.67858 0.75174 0.31048 0.0
O1097 O 0.69043 0.72667 0.31989 0.0
O1098 O 0.69716 0.77386 0.29812 0.0
O1099 O 0.74747 0.724 0.30065 0.0
O1100 O 0.78776 0.70075 0.28517 0.0
O1101 O 0.76412 0.79579 0.34503 0.0
C1102 C 0.79811 0.80602 0.26738 0.0
C1103 C 0.76046 0.6989 0.29705 0.0
Zn1104 Zn 0.75272 0.24673 0.80638 0.0
Zn1105 Zn 0.78849 0.2792 0.74348 0.0
C1106 C 0.70285 0.19388 0.78221 0.0
O1107 O 0.68517 0.2168 0.78476 0.0
C1108 C 0.81276 0.34181 0.76966 0.0
O1109 O 0.83359 0.33521 0.7492 0.0
O1110 O 0.7447 0.2441 0.85326 0.0
O1111 O 0.80115 0.24996 0.80604 0.0
O1112 O 0.82525 0.25853 0.76126 0.0
C1113 C 0.76799 0.255 0.87555 0.0
O1114 O 0.79202 0.27784 0.86978 0.0
O1115 O 0.73367 0.20131 0.78876 0.0
C1116 C 0.77481 0.30792 0.68759 0.0
O1117 O 0.75215 0.31421 0.70594 0.0
O1118 O 0.7961 0.29219 0.6985 0.0
O1119 O 0.74319 0.25381 0.73699 0.0
O1120 O 0.72678 0.27524 0.78149 0.0
O1121 O 0.78848 0.32004 0.77305 0.0
C1122 C 0.82639 0.25199 0.79076 0.0
C1123 C 0.72248 0.26779 0.7506 0.0
Zn1124 Zn 0.78365 0.72926 0.76313 0.0
Zn1125 Zn 0.71861 0.77614 0.7924 0.0
C1126 C 0.83793 0.74057 0.7308 0.0
O1127 O 0.81527 0.72295 0.70916 0.0
C1128 C 0.66553 0.73013 0.80651 0.0
O1129 O 0.68459 0.71377 0.82267 0.0
O1130 O 0.78481 0.68102 0.75281 0.0
O1131 O 0.77365 0.73202 0.81139 0.0
O1132 O 0.74268 0.76362 0.83275 0.0
C1133 C 0.80696 0.67613 0.77419 0.0
O1134 O 0.82092 0.70021 0.79616 0.0
O1135 O 0.83075 0.74906 0.75928 0.0
C1136 C 0.72129 0.84258 0.80367 0.0
O1137 O 0.75233 0.84193 0.80128 0.0
O1138 O 0.70173 0.8162 0.80558 0.0
O1139 O 0.74011 0.78952 0.75132 0.0
O1140 O 0.76229 0.75119 0.72652 0.0
O1141 O 0.67693 0.74314 0.78212 0.0
C1142 C 0.76135 0.74308 0.83625 0.0
C1143 C 0.75357 0.77887 0.72711 0.0
Zn1144 Zn 0.55916 0.50308 0.54657 0.0
Zn1145 Zn 0.49119 0.52831 0.513 0.0
C1146 C 0.53935 0.44585 0.56635 0.0
O1147 O 0.56161 0.46292 0.58864 0.0
C1148 C 0.51465 0.60266 0.51015 0.0
O1149 O 0.50497 0.61267 0.53813 0.0
O1150 O 0.60416 0.48925 0.55094 0.0
O1151 O 0.55937 0.5271 0.50633 0.0
O1152 O 0.51292 0.50197 0.47927 0.0
C1153 C 0.621 0.48886 0.52658 0.0
O1154 O 0.61478 0.50569 0.50216 0.0
O1155 O 0.53102 0.45845 0.54057 0.0
C1156 C 0.43276 0.54819 0.48593 0.0
O1157 O 0.45189 0.56055 0.4649 0.0
O1158 O 0.44215 0.52761 0.50384 0.0
O1159 O 0.49519 0.52415 0.56245 0.0
O1160 O 0.54354 0.52321 0.58834 0.0
O1161 O 0.51053 0.57246 0.50141 0.0
C1162 C 0.54337 0.51396 0.47943 0.0
C1163 C 0.5131 0.52381 0.58908 0.0
Zn1164 Zn 0.98009 0.52747 0.03794 0.0
Zn1165 Zn 0.05346 0.49562 0.01951 0.0
C1166 C 0.99917 0.58892 0.07006 0.0
O1167 O 0.97294 0.57624 0.08328 0.0
C1168 C 0.03672 0.42578 0.00179 0.0
O1169 O 0.05704 0.42353 0.02728 0.0
O1170 O 0.933 0.5376 0.03419 0.0
O1171 O 0.9885 0.50733 0.99464 0.0
O1172 O 0.03959 0.52843 0.98914 0.0
C1173 C 0.91155 0.52914 0.00948 0.0
O1174 O 0.91753 0.50962 0.98496 0.0
O1175 O 0.00959 0.57154 0.04803 0.0
C1176 C 0.11512 0.4785 0.04557 0.0
O1177 O 0.09887 0.47466 0.07122 0.0
O1178 O 0.10238 0.49054 0.02112 0.0
O1179 O 0.04046 0.4961 0.06541 0.0
O1180 O 0.99079 0.50276 0.07656 0.0
O1181 O 0.02982 0.45315 0.99617 0.0
C1182 C 0.0091 0.52456 0.97935 0.0
C1183 C 0.01894 0.49658 0.08541 0.0
C1184 C 0.03578 0.16763 0.96291 0.0
C1185 C 0.01095 0.16255 0.93591 0.0
C1186 C 0.99363 0.10702 0.94987 0.0
C1187 C 0.0117 0.11581 0.98111 0.0
N1188 N 0.05129 0.15424 0.01753 0.0
N1189 N 0.96469 0.12599 0.90438 0.0
C1190 C 0.0335 0.14595 0.98761 0.0
C1191 C 0.98979 0.13163 0.92904 0.0
N1192 N 0.06186 0.19275 0.96445 0.0
N1193 N 0.98051 0.07509 0.93997 0.0
H1194 H 0.96007 0.14279 0.88831 0.0
H1195 H 0.94661 0.10502 0.90138 0.0
H1196 H 0.98453 0.05642 0.95407 0.0
H1197 H 0.96941 0.06692 0.91633 0.0
H1198 H 0.08179 0.19621 0.98233 0.0
H1199 H 0.06527 0.20771 0.94557 0.0
H1200 H 0.06484 0.17752 0.02489 0.0
H1201 H 0.05093 0.13821 0.03559 0.0
C1202 C 0.14866 0.75097 0.18079 0.0
C1203 C 0.1398 0.78235 0.18181 0.0
C1204 C 0.18569 0.80367 0.22438 0.0
C1205 C 0.19513 0.7725 0.22272 0.0
N1206 N 0.1876 0.7173 0.19644 0.0
N1207 N 0.15333 0.83971 0.19926 0.0
C1208 C 0.17738 0.74659 0.19986 0.0
C1209 C 0.15933 0.80898 0.20219 0.0
N1210 N 0.12846 0.7245 0.1635 0.0
N1211 N 0.20186 0.82837 0.24703 0.0
H1212 H 0.1347 0.84432 0.18269 0.0
H1213 H 0.16847 0.86086 0.21069 0.0
H1214 H 0.22312 0.82711 0.2617 0.0
H1215 H 0.19341 0.84993 0.25253 0.0
H1216 H 0.13033 0.70048 0.16665 0.0
H1217 H 0.10859 0.72582 0.14702 0.0
H1218 H 0.17968 0.69992 0.17637 0.0
H1219 H 0.20493 0.71047 0.21286 0.0
C1220 C 0.53987 0.84735 0.45177 0.0
C1221 C 0.53485 0.84695 0.41703 0.0
C1222 C 0.54133 0.90617 0.42229 0.0
C1223 C 0.54526 0.90689 0.45687 0.0
N1224 N 0.55461 0.87908 0.50483 0.0
N1225 N 0.55059 0.87771 0.37188 0.0
C1226 C 0.54611 0.87768 0.47182 0.0
C1227 C 0.54143 0.87677 0.40285 0.0
N1228 N 0.54039 0.81882 0.4654 0.0
N1229 N 0.53666 0.93332 0.40773 0.0
H1230 H 0.55739 0.85798 0.35891 0.0
H1231 H 0.55742 0.89946 0.36161 0.0
H1232 H 0.53584 0.95551 0.42087 0.0
H1233 H 0.53021 0.93273 0.38261 0.0
H1234 H 0.53805 0.81602 0.48998 0.0
H1235 H 0.54398 0.79777 0.45185 0.0
H1236 H 0.55833 0.8592 0.51714 0.0
H1237 H 0.56005 0.90075 0.52019 0.0
C1238 C 0.45904 0.28751 0.72595 0.0
C1239 C 0.45169 0.273 0.69289 0.0
C1240 C 0.40328 0.23824 0.70799 0.0
C1241 C 0.40718 0.25572 0.73925 0.0
N1242 N 0.43974 0.29605 0.77964 0.0
N1243 N 0.40675 0.24732 0.65193 0.0
C1244 C 0.43571 0.27989 0.74886 0.0
C1245 C 0.42085 0.25213 0.68356 0.0
N1246 N 0.48726 0.30973 0.73496 0.0
N1247 N 0.38243 0.20898 0.70115 0.0
H1248 H 0.41379 0.263 0.63448 0.0
H1249 H 0.38477 0.23127 0.64464 0.0
H1250 H 0.37184 0.19642 0.71943 0.0
H1251 H 0.3801 0.19513 0.67847 0.0
H1252 H 0.49633 0.31774 0.7592 0.0
H1253 H 0.50141 0.32071 0.7179 0.0
H1254 H 0.45766 0.31655 0.78746 0.0
H1255 H 0.42427 0.28892 0.79736 0.0
C1256 C 0.99029 0.84831 0.6005 0.0
C1257 C 0.0182 0.83406 0.60576 0.0
C1258 C 0.05088 0.87489 0.57793 0.0
C1259 C 0.02406 0.89149 0.5759 0.0
N1260 N 0.96558 0.88823 0.57308 0.0
N1261 N 0.06714 0.823 0.58392 0.0
C1262 C 0.99272 0.87618 0.58319 0.0
C1263 C 0.04608 0.84382 0.58943 0.0
N1264 N 0.96174 0.83505 0.61199 0.0
N1265 N 0.08125 0.88922 0.57112 0.0
H1266 H 0.06182 0.7988 0.58896 0.0
H1267 H 0.08689 0.82819 0.5702 0.0
H1268 H 0.08627 0.91195 0.56241 0.0
H1269 H 0.10211 0.87933 0.57638 0.0
H1270 H 0.94148 0.84638 0.61263 0.0
H1271 H 0.95868 0.81233 0.62103 0.0
H1272 H 0.9417 0.87711 0.57567 0.0
H1273 H 0.96701 0.90798 0.5592 0.0
C1274 C 0.41695 0.79883 0.8811 0.0
C1275 C 0.44387 0.78423 0.87247 0.0
C1276 C 0.41006 0.7548 0.8234 0.0
C1277 C 0.38321 0.7679 0.83321 0.0
N1278 N 0.36222 0.80859 0.86479 0.0
N1279 N 0.46286 0.74189 0.83937 0.0
C1280 C 0.38715 0.79208 0.85996 0.0
C1281 C 0.43975 0.76075 0.84441 0.0
N1282 N 0.41878 0.81683 0.91068 0.0
N1283 N 0.40703 0.73692 0.79359 0.0
H1284 H 0.48411 0.74334 0.85505 0.0
H1285 H 0.45958 0.72225 0.82136 0.0
H1286 H 0.38584 0.73394 0.77737 0.0
H1287 H 0.42636 0.72865 0.78332 0.0
H1288 H 0.39927 0.82605 0.91948 0.0
H1289 H 0.43866 0.81953 0.92832 0.0
H1290 H 0.36413 0.82879 0.88192 0.0
H1291 H 0.34045 0.8039 0.84914 0.0
C1292 C 0.50584 0.15234 0.06206 0.0
C1293 C 0.50179 0.15097 0.09596 0.0
C1294 C 0.51566 0.09605 0.08992 0.0
C1295 C 0.50957 0.09494 0.05537 0.0
N1296 N 0.49407 0.12193 0.00863 0.0
N1297 N 0.50651 0.11863 0.14289 0.0
C1298 C 0.5026 0.12293 0.0415 0.0
C1299 C 0.50745 0.12198 0.1102 0.0
N1300 N 0.51711 0.18112 0.05004 0.0
N1301 N 0.5325 0.07449 0.10369 0.0
H1302 H 0.50677 0.13688 0.16156 0.0
H1303 H 0.50463 0.09593 0.15187 0.0
H1304 H 0.54213 0.05698 0.09023 0.0
H1305 H 0.54083 0.07665 0.12853 0.0
H1306 H 0.52237 0.18238 0.02585 0.0
H1307 H 0.52638 0.20269 0.065 0.0
H1308 H 0.49059 0.14242 0.99727 0.0
H1309 H 0.48759 0.10015 0.99329 0.0
C1310 C 0.10594 0.26282 0.3313 0.0
C1311 C 0.10836 0.27829 0.36375 0.0
C1312 C 0.16095 0.26259 0.37357 0.0
C1313 C 0.16367 0.25939 0.3396 0.0
N1314 N 0.13504 0.25146 0.28477 0.0
N1315 N 0.14004 0.2926 0.41675 0.0
C1316 C 0.13505 0.25782 0.31777 0.0
C1317 C 0.13633 0.27788 0.3854 0.0
N1318 N 0.07601 0.24988 0.3149 0.0
N1319 N 0.18163 0.2504 0.39431 0.0
H1320 H 0.12298 0.30535 0.42611 0.0
H1321 H 0.16164 0.29458 0.43226 0.0
H1322 H 0.19838 0.23709 0.3852 0.0
H1323 H 0.17831 0.24969 0.41903 0.0
H1324 H 0.07309 0.23604 0.29218 0.0
H1325 H 0.05439 0.24998 0.32586 0.0
H1326 H 0.11547 0.25413 0.26827 0.0
H1327 H 0.15424 0.24349 0.27401 0.0
C1328 C 0.97414 0.99428 0.16509 0.0
C1329 C 0.94449 0.00653 0.16596 0.0
C1330 C 0.95775 0.03494 0.1173 0.0
C1331 C 0.98733 0.02221 0.11656 0.0
N1332 N 0.02942 0.00347 0.15021 0.0
N1333 N 0.91108 0.04367 0.14664 0.0
C1334 C 0.9974 0.00609 0.14358 0.0
C1335 C 0.93702 0.02827 0.14298 0.0
N1336 N 0.97976 0.97027 0.18412 0.0
N1337 N 0.95034 0.05469 0.09414 0.0
H1338 H 0.89566 0.03938 0.165 0.0
H1339 H 0.90573 0.06215 0.13298 0.0
H1340 H 0.96695 0.0636 0.07808 0.0
H1341 H 0.92811 0.06251 0.09076 0.0
H1342 H -0.00032 0.95852 0.18248 0.0
H1343 H 0.96273 0.95954 0.19891 0.0
H1344 H 0.03818 0.99466 0.17151 0.0
H1345 H 0.04807 0.01379 0.13713 0.0
C1346 C 0.24079 0.69731 0.4369 0.0
C1347 C 0.27059 0.68827 0.44839 0.0
C1348 C 0.29921 0.72155 0.41026 0.0
C1349 C 0.26846 0.72422 0.39404 0.0
N1350 N 0.20953 0.71656 0.39301 0.0
N1351 N 0.329 0.69329 0.44818 0.0
C1352 C 0.23913 0.71344 0.4081 0.0
C1353 C 0.30022 0.7013 0.43609 0.0
N1354 N 0.21426 0.69096 0.45401 0.0
N1355 N 0.3273 0.73862 0.40077 0.0
H1356 H 0.33079 0.67994 0.46828 0.0
H1357 H 0.35077 0.69856 0.43749 0.0
H1358 H 0.32687 0.75441 0.38252 0.0
H1359 H 0.35053 0.7397 0.41284 0.0
H1360 H 0.19273 0.69982 0.44911 0.0
H1361 H 0.2151 0.67907 0.47509 0.0
H1362 H 0.18723 0.70439 0.39913 0.0
H1363 H 0.20701 0.73047 0.37356 0.0
C1364 C 0.56672 0.96044 0.64939 0.0
C1365 C 0.58986 0.98856 0.66302 0.0
C1366 C 0.56651 0.02039 0.62267 0.0
C1367 C 0.54052 0.99363 0.61285 0.0
N1368 N 0.51426 0.93862 0.61777 0.0
N1369 N 0.60814 0.04741 0.66509 0.0
C1370 C 0.54016 0.96373 0.62647 0.0
C1371 C 0.58917 0.01905 0.6501 0.0
N1372 N 0.57093 0.93041 0.65752 0.0
N1373 N 0.56973 0.04729 0.60575 0.0
H1374 H 0.62558 0.04902 0.68498 0.0
H1375 H 0.60472 0.07038 0.65933 0.0
H1376 H 0.55285 0.05026 0.58657 0.0
H1377 H 0.59062 0.06551 0.60898 0.0
H1378 H 0.55675 0.90866 0.64623 0.0
H1379 H 0.59093 0.92714 0.67314 0.0
H1380 H 0.51079 0.91736 0.6294 0.0
H1381 H 0.49488 0.94006 0.60045 0.0
C1382 C 0.25276 0.36135 0.93476 0.0
C1383 C 0.27323 0.35484 0.96192 0.0
C1384 C 0.28083 0.30457 0.93021 0.0
C1385 C 0.2636 0.3134 0.90225 0.0
N1386 N 0.23851 0.35387 0.87628 0.0
N1387 N 0.31211 0.32273 0.98269 0.0
C1388 C 0.25151 0.34304 0.90394 0.0
C1389 C 0.28865 0.32702 0.959 0.0
N1390 N 0.23268 0.38359 0.93867 0.0
N1391 N 0.2898 0.27468 0.92935 0.0
H1392 H 0.31937 0.33842 0.00398 0.0
H1393 H 0.32671 0.30513 0.97985 0.0
H1394 H 0.28638 0.25839 0.90816 0.0
H1395 H 0.29865 0.26519 0.95018 0.0
H1396 H 0.21457 0.38639 0.92058 0.0
H1397 H 0.23127 0.39659 0.96101 0.0
H1398 H 0.2333 0.37726 0.87574 0.0
H1399 H 0.23529 0.34068 0.85328 0.0
C1400 C 0.95208 0.02845 0.35609 0.0
C1401 C 0.93209 0.99722 0.34709 0.0
C1402 C 0.95201 0.97826 0.39842 0.0
C1403 C 0.96917 0.01021 0.40862 0.0
N1404 N 0.99504 0.06212 0.39441 0.0
N1405 N 0.92298 0.93993 0.35366 0.0
C1406 C 0.97234 0.03415 0.38638 0.0
C1407 C 0.93515 0.97127 0.36644 0.0
N1408 N 0.95085 0.05287 0.33633 0.0
N1409 N 0.9509 0.95507 0.41982 0.0
H1410 H 0.91133 0.93448 0.32996 0.0
H1411 H 0.92679 0.91956 0.36517 0.0
H1412 H 0.96495 0.95928 0.44252 0.0
H1413 H 0.93553 0.93233 0.41557 0.0
H1414 H 0.96153 0.07714 0.34336 0.0
H1415 H 0.93792 0.04916 0.31308 0.0
H1416 H 0.00057 0.07997 0.37867 0.0
H1417 H 0.0108 0.06574 0.41601 0.0
C1418 C 0.26238 0.68592 0.64366 0.0
C1419 C 0.29398 0.68822 0.63233 0.0
C1420 C 0.31634 0.73185 0.67701 0.0
C1421 C 0.28505 0.72858 0.68888 0.0
N1422 N 0.22872 0.70063 0.6852 0.0
N1423 N 0.35176 0.70979 0.64039 0.0
C1424 C 0.25827 0.70522 0.67252 0.0
C1425 C 0.32113 0.71041 0.64955 0.0
N1426 N 0.23555 0.6664 0.62617 0.0
N1427 N 0.34154 0.75521 0.69227 0.0
H1428 H 0.35595 0.69372 0.6211 0.0
H1429 H 0.37327 0.72304 0.65319 0.0
H1430 H 0.33927 0.77031 0.71308 0.0
H1431 H 0.36419 0.76119 0.68342 0.0
H1432 H 0.21156 0.66905 0.62891 0.0
H1433 H 0.2366 0.64781 0.60824 0.0
H1434 H 0.21026 0.68032 0.67839 0.0
H1435 H 0.22292 0.71629 0.70386 0.0
C1436 C 0.58768 0.0321 0.8558 0.0
C1437 C 0.59855 0.00356 0.8444 0.0
C1438 C 0.56686 0.97315 0.88231 0.0
C1439 C 0.56287 0.00315 0.89874 0.0
N1440 N 0.5733 0.06264 0.90243 0.0
N1441 N 0.59817 0.94608 0.84536 0.0
C1442 C 0.5735 0.03307 0.88554 0.0
C1443 C 0.58762 0.97359 0.85682 0.0
N1444 N 0.5912 0.0584 0.83823 0.0
N1445 N 0.55074 0.94447 0.89121 0.0
H1446 H 0.61301 0.94568 0.82627 0.0
H1447 H 0.59381 0.92426 0.85598 0.0
H1448 H 0.53474 0.9438 0.90933 0.0
H1449 H 0.55058 0.92186 0.87847 0.0
H1450 H 0.58067 0.07876 0.8436 0.0
H1451 H 0.60203 0.05822 0.81645 0.0
H1452 H 0.58483 0.08462 0.89514 0.0
H1453 H 0.56495 0.06584 0.92528 0.0
C1454 C 0.29946 0.35211 0.17467 0.0
C1455 C 0.27435 0.34663 0.14806 0.0
C1456 C 0.24514 0.30059 0.17449 0.0
C1457 C 0.26924 0.30752 0.20208 0.0
N1458 N 0.31523 0.34599 0.23131 0.0
N1459 N 0.21891 0.32112 0.1277 0.0
C1460 C 0.29476 0.33542 0.2032 0.0
C1461 C 0.24599 0.32228 0.14935 0.0
N1462 N 0.32907 0.37125 0.17203 0.0
N1463 N 0.22087 0.27369 0.17242 0.0
H1464 H 0.21768 0.33789 0.11054 0.0
H1465 H 0.19644 0.30615 0.12918 0.0
H1466 H 0.21754 0.25876 0.19126 0.0
H1467 H 0.20518 0.26509 0.15117 0.0
H1468 H 0.34938 0.37308 0.18921 0.0
H1469 H 0.33476 0.38245 0.15115 0.0
H1470 H 0.33071 0.36873 0.23479 0.0
H1471 H 0.31622 0.33281 0.25155 0.0
C1472 C 0.19634 0.95639 0.03769 0.0
C1473 C 0.18174 0.92585 0.02004 0.0
C1474 C 0.13188 0.93084 0.04537 0.0
C1475 C 0.14268 0.96507 0.0514 0.0
N1476 N 0.18848 0.00996 0.05818 0.0
N1477 N 0.13487 0.88199 0.01064 0.0
C1478 C 0.17604 0.97775 0.04913 0.0
C1479 C 0.1493 0.91222 0.02512 0.0
N1480 N 0.22934 0.96374 0.04598 0.0
N1481 N 0.10741 0.91567 0.0614 0.0
H1482 H 0.14695 0.86777 0.99565 0.0
H1483 H 0.11025 0.87234 0.01197 0.0
H1484 H 0.09656 0.9282 0.07905 0.0
H1485 H 0.10225 0.89038 0.06094 0.0
H1486 H 0.2409 0.98436 0.06143 0.0
H1487 H 0.24445 0.94746 0.03965 0.0
H1488 H 0.21186 0.02095 0.05354 0.0
H1489 H 0.17493 0.02557 0.0695 0.0
C1490 C 0.66677 0.55854 0.01366 0.0
C1491 C 0.66685 0.58226 0.99079 0.0
C1492 C 0.60798 0.5624 0.97631 0.0
C1493 C 0.60677 0.54333 0.00306 0.0
N1494 N 0.63547 0.52597 0.04985 0.0
N1495 N 0.63584 0.60988 0.95391 0.0
C1496 C 0.63635 0.54179 0.02224 0.0
C1497 C 0.63692 0.58517 0.97324 0.0
N1498 N 0.69555 0.55204 0.02762 0.0
N1499 N 0.58208 0.55744 0.95272 0.0
H1500 H 0.65652 0.62691 0.95085 0.0
H1501 H 0.61401 0.61453 0.94269 0.0
H1502 H 0.56095 0.54021 0.95376 0.0
H1503 H 0.58332 0.56764 0.93057 0.0
H1504 H 0.6967 0.5322 0.04099 0.0
H1505 H 0.71851 0.56441 0.02368 0.0
H1506 H 0.65569 0.52758 0.06708 0.0
H1507 H 0.61392 0.51344 0.05709 0.0
C1508 C 0.69598 0.42182 0.32468 0.0
C1509 C 0.67602 0.43732 0.30358 0.0
C1510 C 0.68352 0.39907 0.25722 0.0
C1511 C 0.70476 0.3847 0.27781 0.0
N1512 N 0.73467 0.3852 0.33084 0.0
N1513 N 0.63846 0.4279 0.25386 0.0
C1514 C 0.71206 0.39693 0.31146 0.0
C1515 C 0.66628 0.42254 0.27089 0.0
N1516 N 0.69663 0.42852 0.35785 0.0
N1517 N 0.68054 0.39092 0.22409 0.0
H1518 H 0.62162 0.43999 0.26438 0.0
H1519 H 0.62909 0.41567 0.23096 0.0
H1520 H 0.69341 0.37444 0.21311 0.0
H1521 H 0.66835 0.4032 0.20742 0.0
H1522 H 0.70806 0.41621 0.37499 0.0
H1523 H 0.68186 0.44342 0.36824 0.0
H1524 H 0.74411 0.39586 0.35429 0.0
H1525 H 0.74614 0.36632 0.32276 0.0
C1526 C 0.87085 0.41119 0.4784 0.0
C1527 C 0.84644 0.41745 0.4986 0.0
C1528 C 0.88415 0.46565 0.52671 0.0
C1529 C 0.90895 0.45679 0.50892 0.0
N1530 N 0.9203 0.4354 0.45666 0.0
N1531 N 0.83015 0.45006 0.54377 0.0
C1532 C 0.90087 0.43351 0.48149 0.0
C1533 C 0.85285 0.44501 0.52284 0.0
N1534 N 0.86575 0.38382 0.45671 0.0
N1535 N 0.89057 0.49442 0.54642 0.0
H1536 H 0.80697 0.43566 0.54229 0.0
H1537 H 0.83488 0.46735 0.56413 0.0
H1538 H 0.91327 0.51004 0.54823 0.0
H1539 H 0.87292 0.50441 0.55802 0.0
H1540 H 0.88421 0.37689 0.44381 0.0
H1541 H 0.84363 0.3673 0.45293 0.0
H1542 H 0.91433 0.42065 0.43453 0.0
H1543 H 0.93987 0.45486 0.45697 0.0
C1544 C 0.3695 0.11814 0.2694 0.0
C1545 C 0.35936 0.10349 0.29785 0.0
C1546 C 0.3119 0.13123 0.29575 0.0
C1547 C 0.32241 0.1461 0.26824 0.0
N1548 N 0.35611 0.1494 0.22434 0.0
N1549 N 0.32849 0.10796 0.34455 0.0
C1550 C 0.34951 0.1378 0.25349 0.0
C1551 C 0.33243 0.11316 0.31273 0.0
N1552 N 0.39971 0.11642 0.25975 0.0
N1553 N 0.28271 0.13571 0.30629 0.0
H1554 H 0.34701 0.10183 0.36019 0.0
H1555 H 0.30914 0.11371 0.3567 0.0
H1556 H 0.2677 0.14931 0.29407 0.0
H1557 H 0.27193 0.12348 0.32467 0.0
H1558 H 0.40875 0.12675 0.23957 0.0
H1559 H 0.41797 0.10908 0.2746 0.0
H1560 H 0.37356 0.14237 0.2101 0.0
H1561 H 0.34156 0.16396 0.21292 0.0
C1562 C 0.34096 0.08646 0.53244 0.0
C1563 C 0.33216 0.09029 0.49892 0.0
C1564 C 0.37476 0.05972 0.48332 0.0
C1565 C 0.38617 0.05971 0.51673 0.0
N1566 N 0.37573 0.06898 0.57362 0.0
N1567 N 0.34456 0.08434 0.44268 0.0
C1568 C 0.36818 0.07171 0.54128 0.0
C1569 C 0.35001 0.07772 0.47441 0.0
N1570 N 0.32314 0.09628 0.55646 0.0
N1571 N 0.38645 0.04092 0.46003 0.0
H1572 H 0.32768 0.09846 0.43515 0.0
H1573 H 0.35911 0.07869 0.4245 0.0
H1574 H 0.40368 0.02645 0.46584 0.0
H1575 H 0.37616 0.03656 0.43576 0.0
H1576 H 0.32964 0.09489 0.58128 0.0
H1577 H 0.30142 0.10475 0.5519 0.0
H1578 H 0.39465 0.05804 0.58292 0.0
H1579 H 0.39465 0.05804 0.58292 0.0
C1580 C 0.72056 0.60815 0.29246 0.0
C1581 C 0.69941 0.60883 0.31777 0.0
C1582 C 0.72527 0.66604 0.33419 0.0
C1583 C 0.74217 0.66691 0.30568 0.0
N1584 N 0.74858 0.63912 0.25333 0.0
N1585 N 0.67765 0.64107 0.35878 0.0
C1586 C 0.73822 0.63796 0.28381 0.0
C1587 C 0.70046 0.63863 0.33737 0.0
N1588 N 0.72335 0.57933 0.27576 0.0
N1589 N 0.73374 0.69081 0.3589 0.0
H1590 H 0.65961 0.62139 0.36229 0.0
H1591 H 0.67538 0.66317 0.37122 0.0
H1592 H 0.75339 0.70995 0.35842 0.0
H1593 H 0.72378 0.69037 0.38122 0.0
H1594 H 0.74132 0.57754 0.25999 0.0
H1595 H 0.71017 0.5568 0.27967 0.0
H1596 H 0.74292 0.61949 0.23515 0.0
H1597 H 0.75917 0.6606 0.24465 0.0
C1598 C 0.83155 0.43173 0.77318 0.0
C1599 C 0.85593 0.43703 0.80069 0.0
C1600 C 0.83423 0.38314 0.81603 0.0
C1601 C 0.81647 0.3754 0.78497 0.0
N1602 N 0.79335 0.39213 0.73549 0.0
N1603 N 0.88076 0.41743 0.84836 0.0
C1604 C 0.81309 0.39994 0.76434 0.0
C1605 C 0.85735 0.41261 0.82227 0.0
N1606 N 0.82625 0.45659 0.75518 0.0
N1607 N 0.82822 0.36247 0.83941 0.0
H1608 H 0.89802 0.43883 0.85356 0.0
H1609 H 0.88343 0.40009 0.86448 0.0
H1610 H 0.80881 0.34259 0.83532 0.0
H1611 H 0.8393 0.36712 0.86342 0.0
H1612 H 0.8063 0.45479 0.73762 0.0
H1613 H 0.84012 0.47998 0.75901 0.0
H1614 H 0.79319 0.40711 0.71661 0.0
H1615 H 0.77744 0.36977 0.73042 0.0
C1616 C 0.01583 0.87908 0.10755 0.0
C1617 C 0.02851 0.85165 0.09614 0.0
C1618 C 0.03573 0.87397 0.04398 0.0
C1619 C 0.02691 0.90352 0.05638 0.0
N1620 N 0.02074 0.93684 0.10624 0.0
N1621 N 0.06014 0.82865 0.05646 0.0
C1622 C 0.01994 0.90696 0.08986 0.0
C1623 C 0.04179 0.85106 0.0657 0.0
N1624 N 0.00056 0.87896 0.1355 0.0
N1625 N 0.03909 0.86764 0.01152 0.0
H1626 H 0.06652 0.8113 0.07131 0.0
H1627 H 0.06652 0.8113 0.07131 0.0
H1628 H 0.03225 0.88226 0.99387 0.0
H1629 H 0.046 0.84618 0.00217 0.0
H1630 H 0.98792 0.89721 0.14299 0.0
H1631 H 0.99875 0.85951 0.14981 0.0
H1632 H 0.01852 0.93982 0.13123 0.0
H1633 H 0.02874 0.95873 0.09689 0.0
C1634 C 0.89291 0.2617 0.86135 0.0
C1635 C 0.91349 0.24084 0.84971 0.0
C1636 C 0.87495 0.22388 0.79984 0.0
C1637 C 0.85763 0.24879 0.80938 0.0
N1638 N 0.85425 0.29556 0.84633 0.0
N1639 N 0.92384 0.20034 0.80864 0.0
C1640 C 0.86775 0.26874 0.83942 0.0
C1641 C 0.9044 0.22136 0.81911 0.0
N1642 N 0.89709 0.27475 0.89331 0.0
N1643 N 0.86253 0.20189 0.77332 0.0
H1644 H 0.94398 0.19588 0.82322 0.0
H1645 H 0.92096 0.18843 0.78503 0.0
H1646 H 0.84102 0.20302 0.75888 0.0
H1647 H 0.87206 0.18117 0.76695 0.0
H1648 H 0.8806 0.28756 0.90367 0.0
H1649 H 0.9147 0.26959 0.91048 0.0
H1650 H 0.86245 0.31266 0.86658 0.0
H1651 H 0.83743 0.30264 0.82957 0.0
C1652 C 0.53504 0.17905 0.59373 0.0
C1653 C 0.52515 0.18796 0.62481 0.0
C1654 C 0.50561 0.13066 0.63047 0.0
C1655 C 0.50673 0.12314 0.59646 0.0
N1656 N 0.52355 0.14072 0.54503 0.0
N1657 N 0.49933 0.17182 0.67274 0.0
C1658 C 0.52235 0.14727 0.57788 0.0
C1659 C 0.51045 0.16361 0.64349 0.0
N1660 N 0.55675 0.20066 0.57967 0.0
N1661 N 0.50087 0.10625 0.65047 0.0
H1662 H 0.5008 0.19583 0.68269 0.0
H1663 H 0.48545 0.1548 0.68539 0.0
H1664 H 0.49946 0.0818 0.6419 0.0
H1665 H 0.50259 0.11065 0.67591 0.0
H1666 H 0.56694 0.1945 0.55834 0.0
H1667 H 0.56727 0.22379 0.5911 0.0
H1668 H 0.5327 0.15821 0.53006 0.0
H1669 H 0.51281 0.11856 0.53197 0.0
C1670 C 0.61149 0.78159 0.35371 0.0
C1671 C 0.58796 0.75245 0.35015 0.0
C1672 C 0.62114 0.72543 0.31475 0.0
C1673 C 0.64507 0.75459 0.31828 0.0
N1674 N 0.65795 0.81317 0.33293 0.0
N1675 N 0.57175 0.6953 0.33289 0.0
C1676 C 0.639 0.78354 0.33552 0.0
C1677 C 0.59323 0.72393 0.33226 0.0
N1678 N 0.60759 0.80726 0.37494 0.0
N1679 N 0.62432 0.69995 0.2929 0.0
H1680 H 0.55143 0.69379 0.34617 0.0
H1681 H 0.57541 0.67272 0.32294 0.0
H1682 H 0.64332 0.70133 0.27791 0.0
H1683 H 0.60671 0.67883 0.28708 0.0
H1684 H 0.62548 0.82805 0.3816 0.0
H1685 H 0.58766 0.80634 0.38865 0.0
H1686 H 0.65289 0.83523 0.34277 0.0
H1687 H 0.67627 0.81676 0.31746 0.0
C1688 C 0.0465 0.18368 0.46074 0.0
C1689 C 0.01901 0.19128 0.44236 0.0
C1690 C 0.98628 0.13896 0.45094 0.0
C1691 C 0.01287 0.13302 0.47206 0.0
N1692 N 0.0652 0.15331 0.50351 0.0
N1693 N 0.96059 0.17935 0.42587 0.0
C1694 C 0.04202 0.15659 0.47902 0.0
C1695 C 0.98825 0.16982 0.43893 0.0
N1696 N 0.07713 0.20154 0.45967 0.0
N1697 N 0.95964 0.11496 0.44135 0.0
H1698 H 0.96045 0.20214 0.41766 0.0
H1699 H 0.93715 0.16573 0.42604 0.0
H1700 H 0.95624 0.09273 0.45103 0.0
H1701 H 0.94196 0.11651 0.42231 0.0
H1702 H 0.09835 0.19512 0.47036 0.0
H1703 H 0.08174 0.2206 0.44501 0.0
H1704 H 0.08557 0.17141 0.51159 0.0
H1705 H 0.0622 0.13405 0.51811 0.0
C1706 C 0.60678 0.21648 0.20025 0.0
C1707 C 0.60231 0.23789 0.17593 0.0
C1708 C 0.66127 0.25733 0.1795 0.0
C1709 C 0.66532 0.23899 0.20648 0.0
N1710 N 0.64283 0.20278 0.24438 0.0
N1711 N 0.62407 0.28152 0.14503 0.0
C1712 C 0.63834 0.21883 0.21729 0.0
C1713 C 0.62924 0.25886 0.16596 0.0
N1714 N 0.58107 0.19341 0.20638 0.0
N1715 N 0.68815 0.27325 0.16686 0.0
H1716 H 0.60084 0.2835 0.13471 0.0
H1717 H 0.64243 0.30012 0.13994 0.0
H1718 H 0.71209 0.27298 0.1764 0.0
H1719 H 0.68686 0.28432 0.14524 0.0
H1720 H 0.58344 0.17512 0.2215 0.0
H1721 H 0.5576 0.19075 0.19423 0.0
H1722 H 0.6237 0.1908 0.25597 0.0
H1723 H 0.66595 0.20293 0.25643 0.0
C1724 C 0.57223 0.90425 0.97235 0.0
C1725 C 0.54303 0.88714 0.9536 0.0
C1726 C 0.51332 0.92779 0.97493 0.0
C1727 C 0.54025 0.94185 0.99776 0.0
N1728 N 0.59641 0.94423 0.01867 0.0
N1729 N 0.484 0.87816 0.94538 0.0
C1730 C 0.57023 0.93033 0.99667 0.0
C1731 C 0.51311 0.89758 0.95741 0.0
N1732 N 0.60152 0.89583 0.96664 0.0
N1733 N 0.48854 0.94412 0.96813 0.0
H1734 H 0.48278 0.85553 0.93239 0.0
H1735 H 0.46143 0.88383 0.95039 0.0
H1736 H 0.48796 0.96714 0.97966 0.0
H1737 H 0.47134 0.93626 0.94778 0.0
H1738 H 0.62403 0.90905 0.97736 0.0
H1739 H 0.60321 0.87661 0.94936 0.0
H1740 H 0.61811 0.93525 0.02116 0.0
H1741 H 0.59564 0.96409 0.03555 0.0
C1742 C 0.92064 0.7284 0.70856 0.0
C1743 C 0.93042 0.75659 0.69251 0.0
C1744 C 0.88002 0.77592 0.70392 0.0
C1745 C 0.87142 0.74879 0.72163 0.0
N1746 N 0.8873 0.70428 0.74829 0.0
N1747 N 0.92338 0.81093 0.68173 0.0
C1748 C 0.8928 0.72644 0.72609 0.0
C1749 C 0.9113 0.78154 0.6922 0.0
N1750 N 0.93812 0.70367 0.70759 0.0
N1751 N 0.85816 0.79604 0.69795 0.0
H1752 H 0.94634 0.81619 0.67334 0.0
H1753 H 0.91192 0.83104 0.6841 0.0
H1754 H 0.83567 0.79356 0.70765 0.0
H1755 H 0.86148 0.8139 0.68185 0.0
H1756 H 0.92964 0.68094 0.71527 0.0
H1757 H 0.96008 0.70481 0.69712 0.0
H1758 H 0.90359 0.68922 0.75501 0.0
H1759 H 0.86813 0.70362 0.7628 0.0
C1760 C 0.1215 0.03123 0.93451 0.0
C1761 C 0.11512 0.01172 0.90374 0.0
C1762 C 0.06189 0.98662 0.92227 0.0
C1763 C 0.0665 0.01088 0.94963 0.0
N1764 N 0.09725 0.06337 0.9733 0.0
N1765 N 0.07749 0.96926 0.86893 0.0
C1766 C 0.09508 0.03547 0.95284 0.0
C1767 C 0.0845 0.98926 0.8976 0.0
N1768 N 0.15263 0.04399 0.94812 0.0
N1769 N 0.03741 0.95997 0.92066 0.0
H1770 H 0.09486 0.96658 0.85268 0.0
H1771 H 0.05419 0.95582 0.86107 0.0
H1772 H 0.02102 0.95663 0.93824 0.0
H1773 H 0.03506 0.93981 0.90337 0.0
H1774 H 0.15753 0.05679 0.97144 0.0
H1775 H 0.17337 0.03771 0.93906 0.0
H1776 H 0.11704 0.08273 0.97464 0.0
H1777 H 0.07763 0.06868 0.98547 0.0
C1778 C 0.73903 0.32221 0.60409 0.0
C1779 C 0.76643 0.3411 0.59241 0.0
C1780 C 0.79999 0.33861 0.64364 0.0
C1781 C 0.7734 0.31726 0.65394 0.0
N1782 N 0.72034 0.28244 0.64075 0.0
N1783 N 0.82506 0.36076 0.59779 0.0
C1784 C 0.74369 0.30716 0.63318 0.0
C1785 C 0.79755 0.34754 0.61123 0.0
N1786 N 0.70836 0.31972 0.58821 0.0
N1787 N 0.82703 0.35145 0.66505 0.0
H1788 H 0.82478 0.36672 0.57375 0.0
H1789 H 0.84865 0.36273 0.6094 0.0
H1790 H 0.82992 0.34548 0.68899 0.0
H1791 H 0.84532 0.37014 0.6599 0.0
H1792 H 0.68715 0.30894 0.59761 0.0
H1793 H 0.70376 0.33134 0.56736 0.0
H1794 H 0.69946 0.27211 0.62498 0.0
H1795 H 0.72353 0.26986 0.66121 0.0
C1796 C 0.4584 0.00248 0.40294 0.0
C1797 C 0.44588 0.03158 0.39926 0.0
C1798 C 0.48065 0.05719 0.44924 0.0
C1799 C 0.48766 0.02634 0.45586 0.0
N1800 N 0.47854 0.96816 0.44084 0.0
N1801 N 0.44415 0.08675 0.41991 0.0
C1802 C 0.47528 0.9986 0.4332 0.0
C1803 C 0.45675 0.05908 0.42274 0.0
N1804 N 0.45512 0.97864 0.37746 0.0
N1805 N 0.49728 0.08457 0.46789 0.0
H1806 H 0.42756 0.08916 0.40018 0.0
H1807 H 0.44855 0.10631 0.43812 0.0
H1808 H 0.51555 0.0835 0.48655 0.0
H1809 H 0.49524 0.10809 0.46283 0.0
H1810 H 0.46693 0.95873 0.37822 0.0
H1811 H 0.44376 0.98021 0.35437 0.0
H1812 H 0.46617 0.94687 0.4269 0.0
H1813 H 0.49161 0.96396 0.46226 0.0
C1814 C 0.745 0.65861 0.11572 0.0
C1815 C 0.77082 0.66253 0.09518 0.0
C1816 C 0.80688 0.69722 0.13975 0.0
C1817 C 0.78242 0.69037 0.16127 0.0
N1818 N 0.72901 0.66267 0.171 0.0
N1819 N 0.82801 0.68083 0.08928 0.0
C1820 C 0.75167 0.67051 0.14959 0.0
C1821 C 0.80219 0.68071 0.1076 0.0
N1822 N 0.71378 0.64501 0.10263 0.0
N1823 N 0.83449 0.71991 0.14996 0.0
H1824 H 0.82591 0.66801 0.0661 0.0
H1825 H 0.85215 0.69082 0.09829 0.0
H1826 H 0.83857 0.73244 0.17332 0.0
H1827 H 0.8517 0.72859 0.13445 0.0
H1828 H 0.69341 0.64454 0.11559 0.0
H1829 H 0.70761 0.63654 0.07793 0.0
H1830 H 0.70801 0.6448 0.16518 0.0
H1831 H 0.73206 0.67308 0.19525 0.0
C1832 C 0.11429 0.97795 0.69533 0.0
C1833 C 0.11321 0.00758 0.714 0.0
C1834 C 0.09443 0.03018 0.66423 0.0
C1835 C 0.09312 0.99955 0.64586 0.0
N1836 N 0.09315 0.94182 0.6464 0.0
N1837 N 0.09667 0.0599 0.71792 0.0
C1838 C 0.10072 0.97273 0.66207 0.0
C1839 C 0.10139 0.03305 0.69897 0.0
N1840 N 0.12874 0.95486 0.70917 0.0
N1841 N 0.09085 0.05694 0.64848 0.0
H1842 H 0.10213 0.06304 0.74334 0.0
H1843 H 0.08479 0.07765 0.70883 0.0
H1844 H 0.08689 0.05621 0.62307 0.0
H1845 H 0.09486 0.0805 0.66034 0.0
H1846 H 0.13434 0.93496 0.69538 0.0
H1847 H 0.13761 0.95699 0.73391 0.0
H1848 H 0.09529 0.9211 0.65808 0.0
H1849 H 0.08114 0.93645 0.62282 0.0
C1850 C 0.72205 0.32287 0.37852 0.0
C1851 C 0.74643 0.32506 0.40539 0.0
C1852 C 0.76219 0.27542 0.38056 0.0
C1853 C 0.74461 0.2786 0.35046 0.0
N1854 N 0.70207 0.30057 0.32239 0.0
N1855 N 0.79323 0.30463 0.42937 0.0
C1856 C 0.72269 0.30097 0.35001 0.0
C1857 C 0.76723 0.30145 0.40593 0.0
N1858 N 0.69791 0.34094 0.38069 0.0
N1859 N 0.77305 0.24725 0.38569 0.0
H1860 H 0.79956 0.32402 0.44765 0.0
H1861 H 0.81072 0.2897 0.42841 0.0
H1862 H 0.76691 0.22641 0.36906 0.0
H1863 H 0.78394 0.24315 0.40834 0.0
H1864 H 0.6781 0.33911 0.363 0.0
H1865 H 0.69626 0.35617 0.40165 0.0
H1866 H 0.68736 0.31781 0.31869 0.0
H1867 H 0.69973 0.2822 0.30315 0.0
C1868 C 0.43484 0.03031 0.1884 0.0
C1869 C 0.44152 0.01268 0.21525 0.0
C1870 C 0.47332 0.98054 0.18255 0.0
C1871 C 0.4672 0.99859 0.15592 0.0
N1872 N 0.44555 0.04285 0.13352 0.0
N1873 N 0.46956 0.97351 0.23992 0.0
C1874 C 0.44912 0.02429 0.15891 0.0
C1875 C 0.46164 0.98863 0.21297 0.0
N1876 N 0.41425 0.05225 0.191 0.0
N1877 N 0.48961 0.95508 0.17838 0.0
H1878 H 0.45952 0.97654 0.26199 0.0
H1879 H 0.48737 0.95901 0.24121 0.0
H1880 H 0.50035 0.94979 0.15712 0.0
H1881 H 0.49134 0.93815 0.19519 0.0
H1882 H 0.40521 0.06334 0.17141 0.0
H1883 H 0.40464 0.05834 0.21274 0.0
H1884 H 0.43615 0.06425 0.13534 0.0
H1885 H 0.45367 0.03805 0.11071 0.0
C1886 C 0.73347 0.69497 0.90602 0.0
C1887 C 0.75923 0.67727 0.91124 0.0
C1888 C 0.79174 0.712 0.87577 0.0
C1889 C 0.76453 0.72728 0.86803 0.0
N1890 N 0.71857 0.74533 0.89109 0.0
N1891 N 0.81588 0.67439 0.90808 0.0
C1892 C 0.738 0.72247 0.88768 0.0
C1893 C 0.78936 0.68746 0.89816 0.0
N1894 N 0.70425 0.68528 0.91817 0.0
N1895 N 0.82024 0.72208 0.86259 0.0
H1896 H 0.81447 0.65635 0.92401 0.0
H1897 H 0.83946 0.68212 0.90201 0.0
H1898 H 0.82389 0.74299 0.85031 0.0
H1899 H 0.84019 0.7103 0.86385 0.0
H1900 H 0.68344 0.6949 0.912 0.0
H1901 H 0.69996 0.66586 0.93236 0.0
H1902 H 0.70035 0.74404 0.90692 0.0
H1903 H 0.72404 0.76818 0.88272 0.0
C1904 C 0.87949 0.09799 0.99285 0.0
C1905 C 0.86362 0.10115 0.02169 0.0
C1906 C 0.87803 0.05007 0.03723 0.0
C1907 C 0.89685 0.04812 0.0102 0.0
N1908 N 0.90488 0.06375 0.95616 0.0
N1909 N 0.85522 0.08479 0.07534 0.0
C1910 C 0.895 0.07059 0.98632 0.0
C1911 C 0.86586 0.07895 0.04536 0.0
N1912 N 0.87975 0.12164 0.97197 0.0
N1913 N 0.86844 0.02312 0.05293 0.0
H1914 H 0.84615 0.10573 0.08216 0.0
H1915 H 0.85863 0.07056 0.09443 0.0
H1916 H 0.87125 0.99991 0.0438 0.0
H1917 H 0.85283 0.0227 0.07136 0.0
H1918 H 0.89287 0.12288 0.95164 0.0
H1919 H 0.86885 0.14189 0.9769 0.0
H1920 H 0.90282 0.07789 0.93683 0.0
H1921 H 0.9114 0.04148 0.94903 0.0
C1922 C 0.38547 0.46542 0.07498 0.0
C1923 C 0.374 0.43449 0.05645 0.0
C1924 C 0.42339 0.44222 0.02714 0.0
C1925 C 0.4345 0.47346 0.04495 0.0
N1926 N 0.42906 0.51317 0.08886 0.0
N1927 N 0.38576 0.39041 0.02047 0.0
C1928 C 0.41629 0.48464 0.06973 0.0
C1929 C 0.3943 0.42188 0.03453 0.0
N1930 N 0.36683 0.47626 0.09776 0.0
N1931 N 0.43959 0.43273 0.00155 0.0
H1932 H 0.36393 0.3753 0.02353 0.0
H1933 H 0.40134 0.37836 0.00774 0.0
H1934 H 0.46086 0.44668 0.99509 0.0
H1935 H 0.43052 0.41247 0.98471 0.0
H1936 H 0.37127 0.49975 0.10967 0.0
H1937 H 0.34592 0.46178 0.10439 0.0
H1938 H 0.41874 0.52207 0.109 0.0
H1939 H 0.45136 0.52761 0.08556 0.0
C1940 C 0.35965 0.59528 0.79164 0.0
C1941 C 0.35785 0.57724 0.76042 0.0
C1942 C 0.3335 0.61976 0.73478 0.0
C1943 C 0.33377 0.6371 0.76631 0.0
N1944 N 0.34582 0.64051 0.82506 0.0
N1945 N 0.34095 0.57048 0.70256 0.0
C1946 C 0.34648 0.62456 0.7948 0.0
C1947 C 0.34463 0.58926 0.732 0.0
N1948 N 0.3749 0.58467 0.81833 0.0
N1949 N 0.32199 0.63222 0.70737 0.0
H1950 H 0.34962 0.54866 0.69951 0.0
H1951 H 0.32804 0.5754 0.68138 0.0
H1952 H 0.30946 0.65166 0.70821 0.0
H1953 H 0.32541 0.62393 0.68362 0.0
H1954 H 0.38095 0.59815 0.84114 0.0
H1955 H 0.3837 0.56289 0.81722 0.0
H1956 H 0.35025 0.63072 0.847 0.0
H1957 H 0.33929 0.66327 0.82861 0.0
C1958 C 0.18376 0.58399 0.55083 0.0
C1959 C 0.19061 0.61388 0.53633 0.0
C1960 C 0.13218 0.61004 0.5195 0.0
C1961 C 0.12512 0.58111 0.53489 0.0
N1962 N 0.14264 0.53996 0.56556 0.0
N1963 N 0.16987 0.66006 0.5168 0.0
C1964 C 0.15054 0.56777 0.55056 0.0
C1965 C 0.16444 0.62836 0.52368 0.0
N1966 N 0.20892 0.57183 0.56584 0.0
N1967 N 0.1082 0.61944 0.49973 0.0
H1968 H 0.1926 0.67535 0.52097 0.0
H1969 H 0.15106 0.6725 0.5106 0.0
H1970 H 0.08434 0.60617 0.49533 0.0
H1971 H 0.11284 0.63817 0.48475 0.0
H1972 H 0.20657 0.54881 0.57393 0.0
H1973 H 0.23284 0.58487 0.57036 0.0
H1974 H 0.1593 0.52942 0.57927 0.0
H1975 H 0.11862 0.52731 0.56478 0.0
C1976 C 0.66834 0.90143 0.77389 0.0
C1977 C 0.68932 0.93201 0.78429 0.0
C1978 C 0.72611 0.90264 0.81476 0.0
C1979 C 0.70875 0.87276 0.79864 0.0
N1980 N 0.66808 0.84552 0.75457 0.0
N1981 N 0.74429 0.95885 0.8084 0.0
C1982 C 0.68126 0.87253 0.77568 0.0
C1983 C 0.71995 0.93194 0.80309 0.0
N1984 N 0.63574 0.89921 0.7644 0.0
N1985 N 0.7484 0.90326 0.84129 0.0
H1986 H 0.74336 0.9801 0.79767 0.0
H1987 H 0.76752 0.95839 0.81979 0.0
H1988 H 0.75285 0.88215 0.85116 0.0
H1989 H 0.75951 0.92483 0.85556 0.0
H1990 H 0.61987 0.8768 0.75872 0.0
H1991 H 0.6236 0.91879 0.76703 0.0
H1992 H 0.64946 0.8457 0.73597 0.0
H1993 H 0.67806 0.8244 0.75306 0.0
C1994 C 0.68321 0.94367 0.5232 0.0
C1995 C 0.69862 0.93465 0.55246 0.0
C1996 C 0.65582 0.9535 0.58266 0.0
C1997 C 0.64177 0.96413 0.55358 0.0
N1998 N 0.64987 0.9784 0.49868 0.0
N1999 N 0.70304 0.93768 0.61148 0.0
C2000 C 0.65779 0.96206 0.52468 0.0
C2001 C 0.68577 0.94121 0.58265 0.0
N2002 N 0.69241 0.93414 0.49342 0.0
N2003 N 0.64079 0.95583 0.61064 0.0
H2004 H 0.72513 0.9293 0.61265 0.0
H2005 H 0.69692 0.94553 0.63441 0.0
H2006 H 0.62157 0.96844 0.61255 0.0
H2007 H 0.64674 0.94464 0.63139 0.0
H2008 H 0.67893 0.93566 0.47125 0.0
H2009 H 0.71185 0.92213 0.49079 0.0
H2010 H 0.66332 0.9802 0.47856 0.0
H2011 H 0.63301 0.99385 0.49854 0.0
C2012 C 0.36685 0.38257 0.77073 0.0
C2013 C 0.35332 0.40119 0.74776 0.0
C2014 C 0.30652 0.35503 0.73378 0.0
C2015 C 0.31699 0.33968 0.76147 0.0
N2016 N 0.35734 0.34433 0.80942 0.0
N2017 N 0.31053 0.40413 0.70549 0.0
C2018 C 0.34718 0.35456 0.78038 0.0
C2019 C 0.32319 0.38705 0.72869 0.0
N2020 N 0.39832 0.39206 0.78491 0.0
N2021 N 0.28187 0.33839 0.71128 0.0
H2022 H 0.32298 0.42638 0.69961 0.0
H2023 H 0.28695 0.39729 0.69351 0.0
H2024 H 0.27046 0.31445 0.71289 0.0
H2025 H 0.27497 0.34687 0.6892 0.0
H2026 H 0.40894 0.37855 0.80158 0.0
H2027 H 0.41424 0.41237 0.7792 0.0
H2028 H 0.34339 0.327 0.82167 0.0
H2029 H 0.34339 0.327 0.82167 0.0
C2030 C 0.15255 0.61764 0.28644 0.0
C2031 C 0.16474 0.59248 0.26905 0.0
C2032 C 0.20909 0.63373 0.25372 0.0
C2033 C 0.19942 0.65746 0.27566 0.0
N2034 N 0.16808 0.66834 0.32065 0.0
N2035 N 0.20434 0.57648 0.23444 0.0
C2036 C 0.17294 0.64836 0.29424 0.0
C2037 C 0.19317 0.60044 0.25237 0.0
N2038 N 0.12126 0.61307 0.29486 0.0
N2039 N 0.23202 0.64313 0.23298 0.0
H2040 H 0.19152 0.55257 0.22973 0.0
H2041 H 0.22711 0.57989 0.22544 0.0
H2042 H 0.24348 0.66727 0.23258 0.0
H2043 H 0.23787 0.62754 0.21426 0.0
H2044 H 0.111 0.63216 0.30485 0.0
H2045 H 0.10441 0.59142 0.28916 0.0
H2046 H 0.15073 0.66115 0.33662 0.0
H2047 H 0.18418 0.68999 0.32917 0.0
C2048 C 0.49815 0.64295 0.43527 0.0
C2049 C 0.51478 0.67548 0.44431 0.0
C2050 C 0.53917 0.65833 0.49491 0.0
C2051 C 0.52247 0.62598 0.48522 0.0
N2052 N 0.50481 0.58748 0.4364 0.0
N2053 N 0.56205 0.70981 0.4761 0.0
C2054 C 0.50808 0.618 0.45227 0.0
C2055 C 0.53869 0.68206 0.47222 0.0
N2056 N 0.47162 0.63544 0.41222 0.0
N2057 N 0.55613 0.6662 0.52526 0.0
H2058 H 0.56483 0.72597 0.45823 0.0
H2059 H 0.58128 0.7145 0.49482 0.0
H2060 H 0.56004 0.6486 0.54086 0.0
H2061 H 0.56549 0.69018 0.535 0.0
H2062 H 0.4581 0.61178 0.40718 0.0
H2063 H 0.46044 0.65284 0.40153 0.0
H2064 H 0.4961 0.58221 0.41162 0.0
H2065 H 0.5144 0.56875 0.44628 0.0
C2066 C 0.64586 0.25362 0.68906 0.0
C2067 C 0.63754 0.28522 0.6909 0.0
C2068 C 0.6846 0.30556 0.73239 0.0
C2069 C 0.69298 0.27391 0.73045 0.0
N2070 N 0.68397 0.21893 0.70317 0.0
N2071 N 0.65203 0.34242 0.7089 0.0
C2072 C 0.67448 0.24848 0.70753 0.0
C2073 C 0.65776 0.31149 0.71117 0.0
N2074 N 0.62525 0.22751 0.67158 0.0
N2075 N 0.70257 0.33018 0.75408 0.0
H2076 H 0.63309 0.3474 0.69296 0.0
H2077 H 0.66741 0.36338 0.72038 0.0
H2078 H 0.72458 0.32845 0.76719 0.0
H2079 H 0.6953 0.35228 0.75998 0.0
H2080 H 0.62649 0.20335 0.67476 0.0
H2081 H 0.60579 0.22915 0.65478 0.0
H2082 H 0.6759 0.20223 0.68259 0.0
H2083 H 0.70072 0.21117 0.71933 0.0
C2084 C 0.03775 0.36879 0.92575 0.0
C2085 C 0.01232 0.34243 0.92982 0.0
C2086 C 0.00402 0.3705 0.98243 0.0
C2087 C 0.02693 0.39791 0.97645 0.0
N2088 N 0.05988 0.42615 0.93842 0.0
N2089 N 0.96519 0.32314 0.95804 0.0
C2090 C 0.04176 0.39813 0.94675 0.0
C2091 C 0.99376 0.34458 0.95713 0.0
N2092 N 0.05967 0.3654 0.90348 0.0
N2093 N 0.99179 0.36926 0.01211 0.0
H2094 H 0.95529 0.30549 0.93881 0.0
H2095 H 0.94934 0.32542 0.97593 0.0
H2096 H 0.99739 0.38856 0.03068 0.0
H2097 H 0.97796 0.34818 0.01903 0.0
H2098 H 0.08073 0.38274 0.90247 0.0
H2099 H 0.05918 0.34403 0.88847 0.0
H2100 H 0.06778 0.42817 0.91524 0.0
H2101 H 0.06472 0.44817 0.95333 0.0
C2102 C 0.94325 0.73213 0.20224 0.0
C2103 C 0.95851 0.76333 0.19544 0.0
C2104 C 0.92206 0.78773 0.22907 0.0
C2105 C 0.90195 0.75645 0.22848 0.0
N2106 N 0.89297 0.69822 0.21194 0.0
N2107 N 0.96425 0.82167 0.20386 0.0
C2108 C 0.91267 0.72829 0.21506 0.0
C2109 C 0.94881 0.79151 0.20974 0.0
N2110 N 0.95827 0.70618 0.19658 0.0
N2111 N 0.91571 0.81355 0.24842 0.0
H2112 H 0.98494 0.82502 0.19118 0.0
H2113 H 0.95576 0.84303 0.21029 0.0
H2114 H 0.89701 0.81106 0.26377 0.0
H2115 H 0.93094 0.83639 0.25183 0.0
H2116 H 0.94989 0.6832 0.20382 0.0
H2117 H 0.98087 0.70896 0.18735 0.0
H2118 H 0.89834 0.67806 0.1983 0.0
H2119 H 0.87017 0.69359 0.22059 0.0
C2120 C 0.52182 0.32509 0.06592 0.0
C2121 C 0.50964 0.31946 0.09628 0.0
C2122 C 0.51535 0.37809 0.10981 0.0
C2123 C 0.51898 0.38261 0.07642 0.0
N2124 N 0.52305 0.35894 0.02147 0.0
N2125 N 0.49521 0.34085 0.14825 0.0
C2126 C 0.52192 0.35582 0.05409 0.0
C2127 C 0.50669 0.34605 0.11873 0.0
N2128 N 0.53474 0.3017 0.0492 0.0
N2129 N 0.52174 0.40426 0.1332 0.0
H2130 H 0.49007 0.31781 0.15641 0.0
H2131 H 0.48889 0.35924 0.16371 0.0
H2132 H 0.53068 0.42791 0.12794 0.0
H2133 H 0.52208 0.402 0.15821 0.0
H2134 H 0.54654 0.30573 0.02824 0.0
H2135 H 0.53675 0.27961 0.05843 0.0
H2136 H 0.52207 0.33902 0.00415 0.0
H2137 H 0.52184 0.38064 0.01127 0.0
C2138 C 0.92057 0.30217 0.38864 0.0
C2139 C 0.94539 0.28703 0.37584 0.0
C2140 C 0.90816 0.26398 0.32736 0.0
C2141 C 0.88198 0.27367 0.34281 0.0
N2142 N 0.86383 0.30995 0.38236 0.0
N2143 N 0.95973 0.24677 0.3362 0.0
C2144 C 0.88837 0.29518 0.37195 0.0
C2145 C 0.9385 0.26622 0.346 0.0
N2146 N 0.92776 0.32238 0.41712 0.0
N2147 N 0.90478 0.2539 0.29468 0.0
H2148 H 0.98183 0.24572 0.34945 0.0
H2149 H 0.95362 0.22872 0.31646 0.0
H2150 H 0.88504 0.25723 0.27909 0.0
H2151 H 0.92394 0.24799 0.28218 0.0
H2152 H 0.9106 0.33166 0.43006 0.0
H2153 H 0.95163 0.3299 0.42798 0.0
H2154 H 0.86647 0.32716 0.4026 0.0
H2155 H 0.84079 0.30645 0.36901 0.0
C2156 C 0.01933 0.65238 0.57749 0.0
C2157 C 0.99938 0.65419 0.60358 0.0
C2158 C 0.98002 0.5952 0.59451 0.0
C2159 C 0.99871 0.59388 0.56729 0.0
N2160 N 0.0295 0.62257 0.52799 0.0
N2161 N 0.95711 0.62879 0.63418 0.0
C2162 C 0.01599 0.62288 0.55706 0.0
C2163 C 0.97872 0.62597 0.61146 0.0
N2164 N 0.04314 0.67829 0.57339 0.0
N2165 N 0.96335 0.567 0.60391 0.0
H2166 H 0.95574 0.65102 0.64699 0.0
H2167 H 0.93903 0.6097 0.63881 0.0
H2168 H 0.96109 0.54452 0.59008 0.0
H2169 H 0.95274 0.56567 0.6258 0.0
H2170 H 0.06102 0.67686 0.55747 0.0
H2171 H 0.04749 0.70029 0.58826 0.0
H2172 H 0.03868 0.64375 0.51774 0.0
H2173 H 0.02925 0.60157 0.5125 0.0
C2174 C 0.62116 0.79636 0.83814 0.0
C2175 C 0.61158 0.78575 0.86816 0.0
C2176 C 0.6343 0.73628 0.85642 0.0
C2177 C 0.64206 0.74612 0.82533 0.0
N2178 N 0.62773 0.77872 0.78247 0.0
N2179 N 0.62408 0.75356 0.91159 0.0
C2180 C 0.63143 0.77437 0.81494 0.0
C2181 C 0.62256 0.75798 0.8791 0.0
N2182 N 0.62163 0.82798 0.83226 0.0
N2183 N 0.63505 0.70507 0.86316 0.0
H2184 H 0.61955 0.77116 0.92922 0.0
H2185 H 0.63439 0.73512 0.92138 0.0
H2186 H 0.63893 0.68711 0.84557 0.0
H2187 H 0.6271 0.69585 0.88434 0.0
H2188 H 0.63049 0.83748 0.81154 0.0
H2189 H 0.61732 0.84542 0.85023 0.0
H2190 H 0.61741 0.79771 0.77385 0.0
H2191 H 0.62965 0.7607 0.76403 0.0
C2192 C 0.44783 0.53345 0.64693 0.0
C2193 C 0.44888 0.50641 0.66525 0.0
C2194 C 0.49963 0.49813 0.64171 0.0
C2195 C 0.4964 0.52252 0.62035 0.0
N2196 N 0.4757 0.57134 0.61245 0.0
N2197 N 0.47331 0.46012 0.67681 0.0
C2198 C 0.47253 0.54228 0.62555 0.0
C2199 C 0.47417 0.48802 0.66171 0.0
N2200 N 0.42277 0.55026 0.64936 0.0
N2201 N 0.52816 0.48653 0.6451 0.0
H2202 H 0.4548 0.4516 0.6911 0.0
H2203 H 0.4889 0.4437 0.67257 0.0
H2204 H 0.54909 0.49738 0.63547 0.0
H2205 H 0.5329 0.47015 0.6617 0.0
H2206 H 0.41838 0.56791 0.6341 0.0
H2207 H 0.40483 0.54486 0.66519 0.0
H2208 H 0.46279 0.5895 0.61926 0.0
H2209 H 0.49433 0.5789 0.59791 0.0
C2210 C 0.79727 0.18963 0.92275 0.0
C2211 C 0.77963 0.19145 0.95038 0.0
C2212 C 0.75413 0.23494 0.92889 0.0
C2213 C 0.77316 0.23444 0.90223 0.0
N2214 N 0.81639 0.21456 0.87582 0.0
N2215 N 0.74678 0.22069 0.98359 0.0
C2216 C 0.79587 0.21282 0.89985 0.0
C2217 C 0.75976 0.2156 0.95469 0.0
N2218 N 0.81515 0.16549 0.91817 0.0
N2219 N 0.7302 0.25343 0.92929 0.0
H2220 H 0.74995 0.20728 0.0033 0.0
H2221 H 0.73525 0.24025 0.98928 0.0
H2222 H 0.72634 0.26903 0.91152 0.0
H2223 H 0.71265 0.25155 0.94585 0.0
H2224 H 0.82464 0.15989 0.89628 0.0
H2225 H 0.81916 0.1497 0.93568 0.0
H2226 H 0.83653 0.20303 0.87547 0.0
H2227 H 0.81432 0.22899 0.85692 0.0
C2228 C 0.06896 0.46351 0.15015 0.0
C2229 C 0.06888 0.48668 0.17723 0.0
C2230 C 0.02458 0.50795 0.14734 0.0
C2231 C 0.028 0.4878 0.11897 0.0
N2232 N 0.04137 0.43729 0.09773 0.0
N2233 N 0.04762 0.53232 0.20159 0.0
C2234 C 0.04665 0.46276 0.12177 0.0
C2235 C 0.04651 0.50886 0.17606 0.0
N2236 N 0.09096 0.44293 0.15114 0.0
N2237 N -0.00043 0.52504 0.1475 0.0
H2238 H 0.06239 0.53376 0.22352 0.0
H2239 H 0.03568 0.55206 0.2003 0.0
H2240 H 0.98226 0.52416 0.12754 0.0
H2241 H 0.99361 0.5374 0.16848 0.0
H2242 H 0.09492 0.42818 0.13077 0.0
H2243 H 0.10685 0.44211 0.17196 0.0
H2244 H 0.05194 0.41665 0.09903 0.0
H2245 H 0.02347 0.4355 0.07793 0.0
C2246 C 0.74307 0.85356 0.43758 0.0
C2247 C 0.76798 0.8509 0.46229 0.0
C2248 C 0.78206 0.80573 0.42728 0.0
C2249 C 0.76032 0.81214 0.40132 0.0
N2250 N 0.72462 0.84642 0.37977 0.0
N2251 N 0.81302 0.82481 0.4799 0.0
C2252 C 0.74249 0.83764 0.40578 0.0
C2253 C 0.78797 0.82696 0.45703 0.0
N2254 N 0.71798 0.86856 0.44543 0.0
N2255 N 0.79648 0.77894 0.42377 0.0
H2256 H 0.8169 0.83791 0.50289 0.0
H2257 H 0.83099 0.81109 0.47549 0.0
H2258 H 0.7938 0.7638 0.40183 0.0
H2259 H 0.80935 0.77054 0.44308 0.0
H2260 H 0.69777 0.86942 0.42895 0.0
H2261 H 0.71504 0.87491 0.46981 0.0
H2262 H 0.71342 0.86678 0.38139 0.0
H2263 H 0.72384 0.83536 0.35599 0.0
C2264 C 0.4327 0.47595 0.86564 0.0
C2265 C 0.42946 0.50039 0.84438 0.0
C2266 C 0.46937 0.53964 0.88175 0.0
C2267 C 0.46645 0.51749 0.90579 0.0
N2268 N 0.44897 0.46323 0.92039 0.0
N2269 N 0.4476 0.55499 0.83017 0.0
C2270 C 0.44961 0.48501 0.89752 0.0
C2271 C 0.44909 0.53199 0.85159 0.0
N2272 N 0.42068 0.44406 0.85476 0.0
N2273 N 0.49233 0.56761 0.88773 0.0
H2274 H 0.43451 0.54999 0.80701 0.0
H2275 H 0.45807 0.57952 0.83587 0.0
H2276 H 0.50798 0.57269 0.90938 0.0
H2277 H 0.49824 0.58369 0.87035 0.0
H2278 H 0.42448 0.42453 0.86763 0.0
H2279 H 0.40918 0.43715 0.83117 0.0
H2280 H 0.43471 0.43994 0.91704 0.0
H2281 H 0.46214 0.46892 0.94346 0.0
C2282 C 0.82239 0.20518 0.1594 0.0
C2283 C 0.80474 0.20918 0.12963 0.0
C2284 C 0.78931 0.25849 0.15604 0.0
C2285 C 0.80115 0.25067 0.18707 0.0
N2286 N 0.84114 0.22392 0.21503 0.0
N2287 N 0.76791 0.23831 0.10042 0.0
C2288 C 0.821 0.22618 0.18792 0.0
C2289 C 0.78745 0.23561 0.12809 0.0
N2290 N 0.84141 0.18182 0.1606 0.0
N2291 N 0.78234 0.28873 0.15255 0.0
H2292 H 0.76529 0.22238 0.07918 0.0
H2293 H 0.75178 0.25467 0.09964 0.0
H2294 H 0.78844 0.30786 0.1712 0.0
H2295 H 0.77591 0.29645 0.12991 0.0
H2296 H 0.85508 0.17842 0.18208 0.0
H2297 H 0.8437 0.16616 0.14017 0.0
H2298 H 0.84513 0.24086 0.23569 0.0
H2299 H 0.84513 0.24086 0.23569 0.0
C2300 C 0.07464 0.48788 0.36517 0.0
C2301 C 0.09418 0.5169 0.35724 0.0
C2302 C 0.06782 0.54999 0.39493 0.0
C2303 C 0.05135 0.52083 0.40537 0.0
N2304 N 0.0295 0.46371 0.39406 0.0
N2305 N 0.10227 0.57522 0.35651 0.0
C2306 C 0.0515 0.49028 0.38803 0.0
C2307 C 0.08847 0.54792 0.36959 0.0
N2308 N 0.07907 0.45816 0.3518 0.0
N2309 N 0.0657 0.57941 0.41091 0.0
H2310 H 0.11789 0.57428 0.33835 0.0
H2311 H 0.09663 0.5982 0.3618 0.0
H2312 H 0.0494 0.58186 0.42829 0.0
H2313 H 0.08059 0.60136 0.40771 0.0
H2314 H 0.0683 0.43605 0.35931 0.0
H2315 H 0.09487 0.4555 0.33395 0.0
H2316 H 0.02634 0.44085 0.38086 0.0
H2317 H 0.01222 0.46556 0.41067 0.0
C2318 C 0.76974 0.85385 0.67828 0.0
C2319 C 0.7716 0.83941 0.64604 0.0
C2320 C 0.75699 0.78537 0.6662 0.0
C2321 C 0.75966 0.79966 0.69907 0.0
N2322 N 0.78163 0.84836 0.73578 0.0
N2323 N 0.78022 0.79011 0.61503 0.0
C2324 C 0.76973 0.83421 0.70502 0.0
C2325 C 0.76909 0.80476 0.64159 0.0
N2326 N 0.76696 0.88576 0.68382 0.0
N2327 N 0.74218 0.75362 0.65782 0.0
H2328 H 0.79372 0.8032 0.59879 0.0
H2329 H 0.78054 0.76519 0.61221 0.0
H2330 H 0.73073 0.7391 0.67432 0.0
H2331 H 0.73778 0.74322 0.63353 0.0
H2332 H 0.76312 0.89615 0.70676 0.0
H2333 H 0.76452 0.90068 0.66519 0.0
H2334 H 0.79126 0.87321 0.74081 0.0
H2335 H 0.78643 0.83462 0.75492 0.0
C2336 C 0.68991 0.4403 0.53648 0.0
C2337 C 0.68355 0.41974 0.50634 0.0
C2338 C 0.6325 0.43953 0.49393 0.0
C2339 C 0.6413 0.46342 0.52156 0.0
N2340 N 0.67899 0.48807 0.56829 0.0
N2341 N 0.64953 0.39961 0.45606 0.0
C2342 C 0.66986 0.46383 0.543 0.0
C2343 C 0.65485 0.41911 0.48513 0.0
N2344 N 0.71563 0.43787 0.55851 0.0
N2345 N 0.60235 0.43583 0.47663 0.0
H2346 H 0.66436 0.38282 0.45004 0.0
H2347 H 0.63149 0.40099 0.43737 0.0
H2348 H 0.58497 0.44965 0.48295 0.0
H2349 H 0.59311 0.41693 0.4583 0.0
H2350 H 0.71967 0.44965 0.58221 0.0
H2351 H 0.73175 0.42207 0.55409 0.0
H2352 H 0.70158 0.4924 0.58239 0.0
H2353 H 0.66483 0.50557 0.57386 0.0
C2354 C 0.16553 0.07205 0.51939 0.0
C2355 C 0.16637 0.09143 0.49255 0.0
C2356 C 0.10852 0.06745 0.47641 0.0
C2357 C 0.10613 0.05363 0.50654 0.0
N2358 N 0.13248 0.04798 0.5596 0.0
N2359 N 0.13546 0.11241 0.44969 0.0
C2360 C 0.13474 0.05726 0.52882 0.0
C2361 C 0.13686 0.09071 0.47235 0.0
N2362 N 0.19388 0.06744 0.53596 0.0
N2363 N 0.08469 0.0571 0.45102 0.0
H2364 H 0.1556 0.13005 0.44638 0.0
H2365 H 0.1136 0.11431 0.43626 0.0
H2366 H 0.06503 0.03824 0.45255 0.0
H2367 H 0.08619 0.06516 0.42787 0.0
H2368 H 0.19431 0.0512 0.55371 0.0
H2369 H 0.21697 0.07673 0.52954 0.0
H2370 H 0.15203 0.05314 0.57799 0.0
H2371 H 0.1102 0.03822 0.56761 0.0
C2372 C 0.20339 0.91922 0.8316 0.0
C2373 C 0.19871 0.94122 0.80817 0.0
C2374 C 0.22127 0.90662 0.76739 0.0
C2375 C 0.22712 0.88543 0.7915 0.0
N2376 N 0.2331 0.87793 0.84872 0.0
N2377 N 0.20936 0.95944 0.75549 0.0
C2378 C 0.22091 0.89372 0.82422 0.0
C2379 C 0.2094 0.93593 0.7765 0.0
N2380 N 0.19023 0.92207 0.86072 0.0
N2381 N 0.22544 0.8981 0.73551 0.0
H2382 H 0.20086 0.981 0.76108 0.0
H2383 H 0.22004 0.95877 0.7336 0.0
H2384 H 0.2349 0.87757 0.72814 0.0
H2385 H 0.21747 0.91011 0.71611 0.0
H2386 H 0.18972 0.90464 0.87734 0.0
H2387 H 0.17693 0.9402 0.86682 0.0
H2388 H 0.23206 0.88505 0.87332 0.0
H2389 H 0.24767 0.86044 0.8446 0.0
C2390 C 0.36123 0.9141 0.98336 0.0
C2391 C 0.33656 0.91799 0.00388 0.0
C2392 C 0.37656 0.95666 0.04199 0.0
C2393 C 0.40046 0.95324 0.02025 0.0
N2394 N 0.40954 0.94112 0.96396 0.0
N2395 N 0.31912 0.94968 0.04895 0.0
C2396 C 0.39103 0.93593 0.98908 0.0
C2397 C 0.34357 0.94172 0.03179 0.0
N2398 N 0.35649 0.89011 0.95804 0.0
N2399 N 0.38525 0.97206 0.07297 0.0
H2400 H 0.29484 0.93853 0.0433 0.0
H2401 H 0.32261 0.96936 0.067 0.0
H2402 H 0.40878 0.98439 0.0814 0.0
H2403 H 0.36933 0.97098 0.09113 0.0
H2404 H 0.37494 0.88679 0.94318 0.0
H2405 H 0.33474 0.87333 0.95278 0.0
H2406 H 0.4293 0.9605 0.96551 0.0
H2407 H 0.4293 0.9605 0.96551 0.0
C2408 C 0.85171 0.60538 0.75979 0.0
C2409 C 0.85873 0.60019 0.79334 0.0
C2410 C 0.81999 0.63463 0.80851 0.0
C2411 C 0.81769 0.64465 0.77677 0.0
N2412 N 0.83456 0.64216 0.72223 0.0
N2413 N 0.85598 0.61842 0.85019 0.0
C2414 C 0.83442 0.63077 0.75227 0.0
C2415 C 0.8449 0.61761 0.81786 0.0
N2416 N 0.8596 0.58535 0.73501 0.0
N2417 N 0.79824 0.64143 0.82977 0.0
H2418 H 0.87607 0.60819 0.85792 0.0
H2419 H 0.8476 0.63234 0.86869 0.0
H2420 H 0.77916 0.65349 0.82313 0.0
H2421 H 0.79701 0.63159 0.85213 0.0
H2422 H 0.85195 0.58645 0.71042 0.0
H2423 H 0.87104 0.56571 0.73877 0.0
H2424 H 0.84977 0.63573 0.70498 0.0
H2425 H 0.82105 0.65962 0.71544 0.0
C2426 C 0.85938 0.58798 0.97639 0.0
C2427 C 0.83099 0.58071 0.99271 0.0
C2428 C 0.85553 0.53984 0.0213 0.0
C2429 C 0.88396 0.54731 0.00479 0.0
N2430 N 0.91255 0.57944 0.96631 0.0
N2431 N 0.80312 0.55306 0.03403 0.0
C2432 C 0.88571 0.57145 0.98245 0.0
C2433 C 0.82942 0.55759 0.01622 0.0
N2434 N 0.86169 0.61126 0.95508 0.0
N2435 N 0.85287 0.51466 0.04051 0.0
H2436 H 0.7836 0.56536 0.03069 0.0
H2437 H 0.80134 0.53885 0.0535 0.0
H2438 H 0.87165 0.50162 0.04491 0.0
H2439 H 0.83158 0.50523 0.05047 0.0
H2440 H 0.88217 0.6174 0.94245 0.0
H2441 H 0.84342 0.62484 0.9508 0.0
H2442 H 0.93391 0.57003 0.97032 0.0
H2443 H 0.93391 0.57003 0.97032 0.0
C2444 C 0.22209 0.10811 0.79145 0.0
C2445 C 0.19925 0.10768 0.81531 0.0
C2446 C 0.22098 0.16581 0.83142 0.0
C2447 C 0.24026 0.1675 0.8046 0.0
N2448 N 0.25195 0.14004 0.75409 0.0
N2449 N 0.17186 0.13889 0.85222 0.0
C2450 C 0.23918 0.13852 0.78343 0.0
C2451 C 0.19694 0.13744 0.83332 0.0
N2452 N 0.22707 0.07974 0.77546 0.0
N2453 N 0.22688 0.19059 0.85616 0.0
H2454 H 0.15417 0.11856 0.85478 0.0
H2455 H 0.16745 0.16079 0.86331 0.0
H2456 H 0.24696 0.20959 0.85749 0.0
H2457 H 0.21452 0.19012 0.87706 0.0
H2458 H 0.24646 0.07876 0.76131 0.0
H2459 H 0.21382 0.05685 0.77808 0.0
H2460 H 0.2484 0.12033 0.73608 0.0
H2461 H 0.2626 0.16173 0.74588 0.0
C2462 C 0.35908 0.91248 0.32475 0.0
C2463 C 0.35561 0.9371 0.30379 0.0
C2464 C 0.30902 0.90037 0.27178 0.0
C2465 C 0.31593 0.87524 0.29009 0.0
N2466 N 0.33209 0.86229 0.34339 0.0
N2467 N 0.3269 0.95444 0.25638 0.0
C2468 C 0.33635 0.88274 0.31958 0.0
C2469 C 0.32989 0.93137 0.27743 0.0
N2470 N 0.38443 0.91698 0.3489 0.0
N2471 N 0.28181 0.89428 0.24966 0.0
H2472 H 0.34143 0.97754 0.25915 0.0
H2473 H 0.31113 0.95022 0.2348 0.0
H2474 H 0.26584 0.87189 0.24731 0.0
H2475 H 0.27316 0.91184 0.23675 0.0
H2476 H 0.38973 0.89849 0.36268 0.0
H2477 H 0.4009 0.9389 0.3541 0.0
H2478 H 0.34482 0.86718 0.36673 0.0
H2479 H 0.31331 0.84178 0.34013 0.0
C2480 C 0.50619 0.37477 0.60931 0.0
C2481 C 0.5297 0.35509 0.60236 0.0
C2482 C 0.55014 0.39011 0.56152 0.0
C2483 C 0.52895 0.41136 0.57058 0.0
N2484 N 0.48339 0.42292 0.59794 0.0
N2485 N 0.57561 0.34437 0.5743 0.0
C2486 C 0.50573 0.40322 0.5929 0.0
C2487 C 0.55202 0.36274 0.57896 0.0
N2488 N 0.48515 0.36651 0.63219 0.0
N2489 N 0.56813 0.39631 0.5359 0.0
H2490 H 0.57776 0.3242 0.58696 0.0
H2491 H 0.59452 0.35024 0.55976 0.0
H2492 H 0.56586 0.41586 0.52245 0.0
H2493 H 0.58258 0.38088 0.52605 0.0
H2494 H 0.46777 0.37989 0.63932 0.0
H2495 H 0.48571 0.34626 0.64516 0.0
H2496 H 0.46499 0.41878 0.61332 0.0
H2497 H 0.48241 0.44316 0.58502 0.0
C2498 C 0.40525 0.72161 0.32036 0.0
C2499 C 0.41764 0.74583 0.34702 0.0
C2500 C 0.37621 0.77689 0.33125 0.0
C2501 C 0.36231 0.75242 0.30538 0.0
N2502 N 0.36013 0.69837 0.27881 0.0
N2503 N 0.41196 0.79425 0.38076 0.0
C2504 C 0.37597 0.72387 0.30068 0.0
C2505 C 0.40163 0.77214 0.35383 0.0
N2506 N 0.42157 0.69662 0.31385 0.0
N2507 N 0.36709 0.80639 0.33362 0.0
H2508 H 0.43138 0.79261 0.3979 0.0
H2509 H 0.40046 0.81399 0.38617 0.0
H2510 H 0.35205 0.81368 0.31527 0.0
H2511 H 0.35205 0.81368 0.31527 0.0
H2512 H 0.41616 0.68036 0.29269 0.0
H2513 H 0.4419 0.69322 0.32889 0.0
H2514 H 0.36685 0.67557 0.27677 0.0
H2515 H 0.33865 0.69915 0.26417 0.0
C2516 C 0.03664 0.67953 0.08194 0.0
C2517 C 0.03007 0.68552 0.11506 0.0
C2518 C 0.02189 0.62682 0.11889 0.0
C2519 C 0.01768 0.62125 0.08451 0.0
N2520 N 0.02495 0.64205 0.03237 0.0
N2521 N 0.01867 0.66284 0.16636 0.0
C2522 C 0.02678 0.64745 0.06563 0.0
C2523 C 0.0238 0.65866 0.13411 0.0
N2524 N 0.05321 0.70399 0.06656 0.0
N2525 N 0.02544 0.6016 0.13691 0.0
H2526 H 0.02185 0.68523 0.18015 0.0
H2527 H 0.00948 0.64348 0.17924 0.0
H2528 H 0.02662 0.57862 0.12566 0.0
H2529 H 0.0316 0.60455 0.16221 0.0
H2530 H 0.06065 0.7004 0.04327 0.0
H2531 H 0.06299 0.72709 0.07845 0.0
H2532 H 0.02929 0.66055 0.01713 0.0
H2533 H 0.01694 0.61906 0.01982 0.0
C2534 C 0.08824 0.23194 0.82606 0.0
C2535 C 0.08535 0.25596 0.85137 0.0
C2536 C 0.14294 0.28054 0.85157 0.0
C2537 C 0.14496 0.25861 0.8237 0.0
N2538 N 0.11805 0.21703 0.78105 0.0
N2539 N 0.10867 0.30374 0.88817 0.0
C2540 C 0.11712 0.23528 0.81 0.0
C2541 C 0.11237 0.28042 0.86418 0.0
N2542 N 0.06371 0.20537 0.8182 0.0
N2543 N 0.17047 0.30032 0.86706 0.0
H2544 H 0.08753 0.30238 0.90014 0.0
H2545 H 0.12592 0.32492 0.89541 0.0
H2546 H 0.19285 0.30206 0.85779 0.0
H2547 H 0.1716 0.31349 0.88988 0.0
H2548 H 0.06556 0.18543 0.80201 0.0
H2549 H 0.04267 0.20188 0.83043 0.0
H2550 H 0.09752 0.20188 0.76822 0.0
H2551 H 0.13866 0.21953 0.76819 0.0
C2552 C 0.54171 0.67971 0.94269 0.0
C2553 C 0.5233 0.70229 0.95534 0.0
C2554 C 0.50689 0.66693 0.99794 0.0
C2555 C 0.52407 0.64367 0.98422 0.0
N2556 N 0.55048 0.62428 0.93873 0.0
N2557 N 0.48291 0.71486 0.99046 0.0
C2558 C 0.53939 0.64907 0.95521 0.0
C2559 C 0.5043 0.69521 0.98173 0.0
N2560 N 0.56248 0.68791 0.91959 0.0
N2561 N 0.494 0.66254 0.02695 0.0
H2562 H 0.47995 0.73541 0.97875 0.0
H2563 H 0.46599 0.70925 0.00719 0.0
H2564 H 0.4951 0.6419 0.03916 0.0
H2565 H 0.48434 0.6803 0.0401 0.0
H2566 H 0.57942 0.67389 0.91249 0.0
H2567 H 0.56485 0.71004 0.90946 0.0
H2568 H 0.5585 0.6254 0.91554 0.0
H2569 H 0.54807 0.60124 0.94671 0.0
C2570 C 0.10871 0.74609 0.71039 0.0
C2571 C 0.10101 0.76378 0.68372 0.0
C2572 C 0.15799 0.7917 0.68786 0.0
C2573 C 0.16673 0.77077 0.71103 0.0
N2574 N 0.15082 0.72451 0.74113 0.0
N2575 N 0.11953 0.79946 0.64353 0.0
C2576 C 0.14218 0.74724 0.72186 0.0
C2577 C 0.12613 0.78504 0.67116 0.0
N2578 N 0.08427 0.72753 0.72424 0.0
N2579 N 0.17943 0.81928 0.68328 0.0
H2580 H 0.09586 0.79768 0.63249 0.0
H2581 H 0.13768 0.81187 0.631 0.0
H2582 H 0.20165 0.82729 0.69778 0.0
H2583 H 0.17344 0.83651 0.66818 0.0
H2584 H 0.08819 0.71763 0.74626 0.0
H2585 H 0.05965 0.72391 0.71516 0.0
H2586 H 0.13421 0.70472 0.74693 0.0
H2587 H 0.17503 0.72341 0.74882 0.0
C2588 C 0.01716 0.37511 0.47518 0.0
C2589 C 0.04769 0.37283 0.46406 0.0
C2590 C 0.0706 0.42464 0.49688 0.0
C2591 C 0.03832 0.43053 0.49893 0.0
N2592 N 0.98048 0.41162 0.48211 0.0
N2593 N 0.10533 0.39455 0.46669 0.0
C2594 C 0.01149 0.40587 0.48588 0.0
C2595 C 0.07523 0.39727 0.47578 0.0
N2596 N 0.99346 0.34832 0.47603 0.0
N2597 N 0.09646 0.44456 0.51507 0.0
H2598 H 0.10913 0.37405 0.4523 0.0
H2599 H 0.12582 0.41304 0.47256 0.0
H2600 H 0.09408 0.46572 0.52926 0.0
H2601 H 0.11912 0.43757 0.51887 0.0
H2602 H 0.97171 0.34979 0.48632 0.0
H2603 H 0.9969 0.32457 0.47065 0.0
H2604 H 0.96108 0.39467 0.46941 0.0
H2605 H 0.97532 0.43433 0.48825 0.0
C2606 C 0.41995 0.22758 0.20779 0.0
C2607 C 0.42444 0.24581 0.18054 0.0
C2608 C 0.38415 0.27801 0.19719 0.0
C2609 C 0.37842 0.25845 0.22306 0.0
N2610 N 0.40026 0.22585 0.26133 0.0
N2611 N 0.41793 0.29412 0.15438 0.0
C2612 C 0.39961 0.23697 0.23121 0.0
C2613 C 0.4089 0.27305 0.17692 0.0
N2614 N 0.43341 0.20032 0.21032 0.0
N2615 N 0.36478 0.30034 0.19146 0.0
H2616 H 0.43556 0.29089 0.13861 0.0
H2617 H 0.40981 0.3161 0.15288 0.0
H2618 H 0.34806 0.30525 0.20762 0.0
H2619 H 0.36458 0.31301 0.17082 0.0
H2620 H 0.4283 0.18459 0.22818 0.0
H2621 H 0.44746 0.1918 0.19295 0.0
H2622 H 0.41631 0.21109 0.26944 0.0
H2623 H 0.38785 0.23541 0.27961 0.0
C2624 C 0.58674 0.48832 0.40537 0.0
C2625 C 0.60283 0.51901 0.39744 0.0
C2626 C 0.57834 0.54643 0.4414 0.0
C2627 C 0.56054 0.51585 0.44861 0.0
N2628 N 0.54342 0.45803 0.43243 0.0
N2629 N 0.60588 0.57716 0.40146 0.0
C2630 C 0.56314 0.48693 0.4288 0.0
C2631 C 0.59602 0.54796 0.4134 0.0
N2632 N 0.59465 0.46046 0.39116 0.0
N2633 N 0.5794 0.57428 0.46166 0.0
H2634 H 0.61914 0.57947 0.38122 0.0
H2635 H 0.59826 0.59854 0.40968 0.0
H2636 H 0.56573 0.57565 0.48139 0.0
H2637 H 0.5956 0.59594 0.45999 0.0
H2638 H 0.58683 0.43746 0.39852 0.0
H2639 H 0.61103 0.46065 0.3734 0.0
H2640 H 0.54164 0.43701 0.41642 0.0
H2641 H 0.52722 0.45538 0.45026 0.0
C2642 C 0.2436 0.81591 0.10603 0.0
C2643 C 0.25408 0.84895 0.10066 0.0
C2644 C 0.28612 0.85926 0.15444 0.0
C2645 C 0.27857 0.82554 0.15788 0.0
N2646 N 0.25339 0.77074 0.13592 0.0
N2647 N 0.27141 0.90394 0.1266 0.0
C2648 C 0.2584 0.80352 0.13327 0.0
C2649 C 0.27159 0.87139 0.12674 0.0
N2650 N 0.21712 0.79742 0.08711 0.0
N2651 N 0.30771 0.87949 0.17747 0.0
H2652 H 0.25631 0.91296 0.10952 0.0
H2653 H 0.28194 0.92137 0.14591 0.0
H2654 H 0.31902 0.87096 0.19772 0.0
H2655 H 0.31672 0.90387 0.17501 0.0
H2656 H 0.20671 0.77385 0.09132 0.0
H2657 H 0.20249 0.8074 0.07039 0.0
H2658 H 0.24185 0.75329 0.11699 0.0
H2659 H 0.26343 0.76077 0.15589 0.0
C2660 C 0.96544 0.56198 0.91299 0.0
C2661 C 0.95163 0.53322 0.89208 0.0
C2662 C 0.98681 0.50234 0.92243 0.0
C2663 C 0.99785 0.52997 0.94537 0.0
N2664 N 0.00658 0.58782 0.95785 0.0
N2665 N 0.95712 0.47892 0.87061 0.0
C2666 C 0.99014 0.56052 0.93895 0.0
C2667 C 0.96485 0.50431 0.89481 0.0
N2668 N 0.95452 0.59029 0.90829 0.0
N2669 N 0.99686 0.4738 0.92777 0.0
H2670 H 0.94075 0.47868 0.85015 0.0
H2671 H 0.96881 0.45894 0.86928 0.0
H2672 H 0.01657 0.47326 0.94485 0.0
H2673 H 0.98578 0.45108 0.91584 0.0
H2674 H 0.96158 0.61171 0.92397 0.0
H2675 H 0.93704 0.59198 0.88907 0.0
H2676 H 0.0034 0.61141 0.95444 0.0
H2677 H 0.02577 0.58663 0.97549 0.0
C2678 C 0.24305 0.16603 0.618 0.0
C2679 C 0.26763 0.17442 0.59674 0.0
C2680 C 0.29993 0.21269 0.64109 0.0
C2681 C 0.27857 0.19985 0.66346 0.0
N2682 N 0.22976 0.16389 0.67403 0.0
N2683 N 0.32241 0.202 0.5901 0.0
C2684 C 0.25009 0.17633 0.65214 0.0
C2685 C 0.29675 0.19705 0.6087 0.0
N2686 N 0.21243 0.14991 0.60551 0.0
N2687 N 0.32327 0.23987 0.65075 0.0
H2688 H 0.32256 0.18885 0.56746 0.0
H2689 H 0.34501 0.2165 0.59868 0.0
H2690 H 0.3268 0.25144 0.6746 0.0
H2691 H 0.3365 0.25276 0.63419 0.0
H2692 H 0.19281 0.14576 0.61954 0.0
H2693 H 0.20545 0.1437 0.58052 0.0
H2694 H 0.21108 0.14361 0.66804 0.0
H2695 H 0.23253 0.17327 0.6986 0.0
C2696 C 0.58653 0.54362 0.20153 0.0
C2697 C 0.60853 0.52293 0.21086 0.0
C2698 C 0.60948 0.50345 0.15314 0.0
C2699 C 0.58498 0.52168 0.14417 0.0
N2700 N 0.54603 0.55471 0.16026 0.0
N2701 N 0.63829 0.48036 0.19625 0.0
C2702 C 0.57242 0.54067 0.16846 0.0
C2703 C 0.61939 0.50216 0.18684 0.0
N2704 N 0.58021 0.56714 0.22395 0.0
N2705 N 0.62417 0.48825 0.12945 0.0
H2706 H 0.64694 0.47932 0.22056 0.0
H2707 H 0.64343 0.46165 0.18036 0.0
H2708 H 0.61752 0.48819 0.1045 0.0
H2709 H 0.6448 0.47794 0.13434 0.0
H2710 H 0.56725 0.58521 0.21774 0.0
H2711 H 0.59056 0.57067 0.24827 0.0
H2712 H 0.53347 0.56566 0.17751 0.0
H2713 H 0.53473 0.55291 0.13639 0.0
C2714 C 0.26916 0.80594 0.91381 0.0
C2715 C 0.24082 0.8209 0.9138 0.0
C2716 C 0.21909 0.78939 0.86068 0.0
C2717 C 0.24865 0.77728 0.85975 0.0
N2718 N 0.29596 0.76442 0.88934 0.0
N2719 N 0.18788 0.82554 0.88832 0.0
C2720 C 0.27177 0.78251 0.88763 0.0
C2721 C 0.21524 0.81185 0.88768 0.0
N2722 N 0.29499 0.81578 0.93746 0.0
N2723 N 0.19442 0.77821 0.83613 0.0
H2724 H 0.18368 0.84047 0.90851 0.0
H2725 H 0.16982 0.82312 0.86873 0.0
H2726 H 0.19677 0.76115 0.81687 0.0
H2727 H 0.17112 0.78376 0.83579 0.0
H2728 H 0.31807 0.80999 0.93564 0.0
H2729 H 0.29468 0.83176 0.958 0.0
H2730 H 0.31181 0.76433 0.91031 0.0
H2731 H 0.29779 0.74653 0.87084 0.0
C2732 C 0.92631 0.50928 0.67902 0.0
C2733 C 0.94062 0.50449 0.71025 0.0
C2734 C 0.98776 0.48901 0.68569 0.0
C2735 C 0.97319 0.49341 0.65449 0.0
N2736 N 0.92346 0.49599 0.62058 0.0
N2737 N 0.9785 0.47776 0.74095 0.0
C2738 C 0.94069 0.49945 0.6508 0.0
C2739 C 0.96945 0.49069 0.71295 0.0
N2740 N 0.90036 0.52504 0.67615 0.0
N2741 N 0.01909 0.48338 0.68935 0.0
H2742 H 0.96437 0.47616 0.76061 0.0
H2743 H 0.99778 0.46506 0.74309 0.0
H2744 H 0.03239 0.47967 0.66949 0.0
H2745 H 0.0323 0.48403 0.71216 0.0
H2746 H 0.8916 0.53246 0.65409 0.0
H2747 H 0.88956 0.53357 0.69617 0.0
H2748 H 0.89865 0.49712 0.61723 0.0
H2749 H 0.93272 0.48842 0.59921 0.0
C2750 C 0.29649 0.18355 0.39547 0.0
C2751 C 0.26925 0.18398 0.41386 0.0
C2752 C 0.26685 0.23897 0.39705 0.0
C2753 C 0.2857 0.23296 0.37094 0.0
N2754 N 0.32884 0.20672 0.35405 0.0
N2755 N 0.23107 0.21515 0.43566 0.0
C2756 C 0.30355 0.20716 0.37273 0.0
C2757 C 0.25538 0.21284 0.41591 0.0
N2758 N 0.31748 0.16284 0.40221 0.0
N2759 N 0.26121 0.26969 0.40468 0.0
H2760 H 0.21737 0.19497 0.44432 0.0
H2761 H 0.22318 0.23663 0.44237 0.0
H2762 H 0.27283 0.28968 0.39412 0.0
H2763 H 0.24894 0.27638 0.42433 0.0
H2764 H 0.33978 0.16358 0.39255 0.0
H2765 H 0.31427 0.14694 0.42021 0.0
H2766 H 0.34051 0.18691 0.35036 0.0
H2767 H 0.33837 0.22721 0.34281 0.0
C2768 C 0.37402 0.59058 0.53275 0.0
C2769 C 0.35505 0.6005 0.50648 0.0
C2770 C 0.38349 0.57107 0.46736 0.0
C2771 C 0.40474 0.56416 0.49349 0.0
N2772 N 0.42622 0.57758 0.55061 0.0
N2773 N 0.34834 0.60729 0.44874 0.0
C2774 C 0.40179 0.57676 0.5261 0.0
C2775 C 0.36197 0.59301 0.47375 0.0
N2776 N 0.36497 0.59266 0.56383 0.0
N2777 N 0.38298 0.55586 0.43655 0.0
H2778 H 0.33322 0.62429 0.45256 0.0
H2779 H 0.35486 0.60494 0.42492 0.0
H2780 H 0.39749 0.53863 0.43114 0.0
H2781 H 0.36569 0.55773 0.41728 0.0
H2782 H 0.37632 0.58238 0.58284 0.0
H2783 H 0.3444 0.6017 0.57009 0.0
H2784 H 0.42629 0.59012 0.57358 0.0
H2785 H 0.44803 0.56961 0.54708 0.0
C2786 C 0.89168 0.91915 0.53425 0.0
C2787 C 0.87131 0.93075 0.55664 0.0
C2788 C 0.9133 0.98135 0.57051 0.0
C2789 C 0.93212 0.97057 0.54599 0.0
N2790 N 0.93784 0.92812 0.50391 0.0
N2791 N 0.86403 0.97143 0.59894 0.0
C2792 C 0.9211 0.93936 0.52806 0.0
C2793 C 0.88264 0.96148 0.5757 0.0
N2794 N 0.88264 0.88881 0.51762 0.0
N2795 N 0.92534 0.01018 0.58943 0.0
H2796 H 0.84325 0.95647 0.60526 0.0
H2797 H 0.86851 0.99441 0.61195 0.0
H2798 H 0.94754 0.02493 0.58635 0.0
H2799 H 0.9143 0.01944 0.60887 0.0
H2800 H 0.8966 0.87949 0.50058 0.0
H2801 H 0.86171 0.87274 0.52146 0.0
H2802 H 0.95925 0.9411 0.49662 0.0
H2803 H 0.95925 0.9411 0.49662 0.0
C2804 C 0.84005 0.08667 0.23811 0.0
C2805 C 0.85664 0.07601 0.26564 0.0
C2806 C 0.84889 0.12469 0.30005 0.0
C2807 C 0.83425 0.13641 0.27214 0.0
N2808 N 0.81715 0.13004 0.21427 0.0
N2809 N 0.87928 0.0857 0.32224 0.0
C2810 C 0.83003 0.1177 0.24107 0.0
C2811 C 0.8617 0.09533 0.29645 0.0
N2812 N 0.83288 0.06655 0.20945 0.0
N2813 N 0.84934 0.14116 0.33032 0.0
H2814 H 0.88767 0.0637 0.32096 0.0
H2815 H 0.88749 0.10023 0.3442 0.0
H2816 H 0.83974 0.16241 0.33388 0.0
H2817 H 0.85661 0.13259 0.35224 0.0
H2818 H 0.81768 0.07078 0.1895 0.0
H2819 H 0.84091 0.04441 0.20607 0.0
H2820 H 0.81657 0.11973 0.19029 0.0
H2821 H 0.80821 0.15179 0.21591 0.0
C2822 C 0.69703 0.09183 0.05558 0.0
C2823 C 0.70181 0.12001 0.03837 0.0
C2824 C 0.64289 0.11247 0.02317 0.0
C2825 C 0.6394 0.08114 0.03436 0.0
N2826 N 0.66233 0.04012 0.06106 0.0
N2827 N 0.67947 0.15737 0.00534 0.0
C2828 C 0.66614 0.07068 0.05096 0.0
C2829 C 0.67471 0.13084 0.0226 0.0
N2830 N 0.72173 0.0858 0.07694 0.0
N2831 N 0.61571 0.12481 0.01365 0.0
H2832 H 0.70251 0.1711 0.00382 0.0
H2833 H 0.66105 0.16403 0.99008 0.0
H2834 H 0.59193 0.11209 0.01429 0.0
H2835 H 0.61658 0.14877 0.00833 0.0
H2836 H 0.7188 0.06712 0.09213 0.0
H2837 H 0.7443 0.10154 0.08211 0.0
H2838 H 0.68181 0.02972 0.06991 0.0
H2839 H 0.63984 0.02412 0.05838 0.0
C2840 C 0.18312 0.41164 0.25878 0.0
C2841 C 0.16826 0.42392 0.28572 0.0
C2842 C 0.18083 0.37917 0.31659 0.0
C2843 C 0.19862 0.36911 0.29106 0.0
N2844 N 0.22166 0.37878 0.24032 0.0
N2845 N 0.15687 0.42222 0.34214 0.0
C2846 C 0.20095 0.38604 0.26271 0.0
C2847 C 0.16823 0.40847 0.31518 0.0
N2848 N 0.18074 0.42473 0.22957 0.0
N2849 N 0.17484 0.36012 0.34151 0.0
H2850 H 0.1464 0.44299 0.34188 0.0
H2851 H 0.15986 0.41433 0.36532 0.0
H2852 H 0.1838 0.33859 0.34347 0.0
H2853 H 0.1588 0.36419 0.35876 0.0
H2854 H 0.18768 0.41429 0.20805 0.0
H2855 H 0.16954 0.44466 0.22598 0.0
H2856 H 0.22717 0.39244 0.22092 0.0
H2857 H 0.23602 0.36096 0.24286 0.0
C2858 C 0.19692 0.45751 0.07642 0.0
C2859 C 0.20081 0.43327 0.05169 0.0
C2860 C 0.14883 0.43902 0.02158 0.0
C2861 C 0.1463 0.46539 0.045 0.0
N2862 N 0.17058 0.50291 0.09198 0.0
N2863 N 0.18117 0.4002 0.00099 0.0
C2864 C 0.17104 0.47534 0.0718 0.0
C2865 C 0.17679 0.42373 0.02443 0.0
N2866 N 0.2179 0.46309 0.10458 0.0
N2867 N 0.12399 0.42774 0.99724 0.0
H2868 H 0.19939 0.38629 0.00435 0.0
H2869 H 0.16755 0.39493 0.97814 0.0
H2870 H 0.10444 0.43949 0.99277 0.0
H2871 H 0.12191 0.40609 0.98214 0.0
H2872 H 0.21486 0.47819 0.12507 0.0
H2873 H 0.23685 0.45014 0.10854 0.0
H2874 H 0.18945 0.51344 0.11001 0.0
H2875 H 0.15269 0.5172 0.08862 0.0
C2876 C 0.82256 0.8882 0.23153 0.0
C2877 C 0.85315 0.90099 0.2504 0.0
C2878 C 0.84636 0.85295 0.28102 0.0
C2879 C 0.81645 0.83908 0.26144 0.0
N2880 N 0.78053 0.84061 0.2125 0.0
N2881 N 0.89896 0.88851 0.28395 0.0
C2882 C 0.80568 0.85595 0.23513 0.0
C2883 C 0.86667 0.88104 0.27198 0.0
N2884 N 0.80982 0.90666 0.20975 0.0
N2885 N 0.85451 0.84095 0.30984 0.0
H2886 H 0.91503 0.90876 0.27837 0.0
H2887 H 0.91048 0.87284 0.29718 0.0
H2888 H 0.83882 0.82307 0.31981 0.0
H2889 H 0.87465 0.85209 0.32625 0.0
H2890 H 0.78595 0.90072 0.19833 0.0
H2891 H 0.82251 0.92904 0.20445 0.0
H2892 H 0.77347 0.85031 0.19117 0.0
H2893 H 0.76868 0.81664 0.21318 0.0
C2894 C 0.68646 0.10503 0.74652 0.0
C2895 C 0.6574 0.09337 0.76076 0.0
C2896 C 0.65782 0.14734 0.78761 0.0
C2897 C 0.68681 0.15954 0.77355 0.0
N2898 N 0.72444 0.15166 0.73328 0.0
N2899 N 0.60832 0.10709 0.7811 0.0
C2900 C 0.7 0.13889 0.75112 0.0
C2901 C 0.64062 0.11564 0.77669 0.0
N2902 N 0.70075 0.08383 0.72812 0.0
N2903 N 0.64791 0.16474 0.81328 0.0
H2904 H 0.59395 0.08479 0.77168 0.0
H2905 H 0.5948 0.12379 0.79046 0.0
H2906 H 0.66154 0.1866 0.82497 0.0
H2907 H 0.62854 0.15512 0.82603 0.0
H2908 H 0.72437 0.08962 0.72132 0.0
H2909 H 0.68927 0.05988 0.72029 0.0
H2910 H 0.73279 0.13838 0.71432 0.0
H2911 H 0.73473 0.17634 0.7352 0.0
loop_
_geom_bond_atom_site_label_1
_geom_bond_atom_site_label_2
_geom_bond_distance
_geom_bond_site_symmetry_2
_ccdc_geom_bond_type
Mn0 O5 2.095 . S
Mn0 O15 2.162 . S
Mn0 O16 2.297 . S
Mn0 O24 2.385 1_455 S
Mn0 O25 2.209 . S
Mn0 O26 2.094 . S
Mn1 O6 2.121 . S
Mn1 N8 2.257 . S
Mn1 N17 2.282 1_455 S
Mn1 O25 2.215 . S
Mn1 O27 2.117 . S
C2 O24 1.234 . S
C2 O25 1.283 1_655 S
C3 O15 1.281 . S
C3 O16 1.236 . S
C4 O26 1.240 . S
C4 O27 1.264 . S
O5 Mn0 2.095 . S
O5 C14 1.250 . S
O6 Mn1 2.121 . S
O6 C14 1.258 . S
C7 N8 1.326 . S
C7 C11 1.460 . S
C7 H13 0.929 . S
N8 Mn1 2.257 . S
N8 C7 1.326 . S
N8 C12 1.362 1_455 S
C9 C10 1.258 . S
C9 C12 1.431 . S
C9 C29 1.449 . S
C10 C9 1.258 . S
C10 C11 1.477 1_655 S
C10 H30 0.931 . S
C11 C7 1.460 . S
C11 C10 1.477 1_455 S
C11 H31 0.930 . S
C12 N8 1.362 1_655 S
C12 C9 1.431 . S
C12 C22 1.476 . S
H13 C7 0.929 . S
C14 O5 1.250 . S
C14 O6 1.258 . S
O15 Mn0 2.162 . S
O15 C3 1.281 . S
O16 Mn0 2.297 . S
O16 C3 1.236 . S
N17 Mn1 2.282 1_655 S
N17 C18 1.328 . S
N17 C22 1.318 . S
C18 N17 1.328 . S
C18 C19 1.457 . S
C18 H23 0.929 . S
C19 C18 1.457 . S
C19 C20 1.291 . S
C19 H32 0.931 . S
C20 C19 1.291 . S
C20 C21 1.373 . S
C20 H33 0.929 . S
C21 C20 1.373 . S
C21 C22 1.396 . S
C21 C28 1.403 . S
C22 C12 1.476 . S
C22 N17 1.318 . S
C22 C21 1.396 . S
H23 C18 0.929 . S
O24 Mn0 2.385 1_655 S
O24 C2 1.234 . S
O25 Mn0 2.209 . S
O25 Mn1 2.215 . S
O25 C2 1.283 1_455 S
O26 Mn0 2.094 . S
O26 C4 1.240 . S
O27 Mn1 2.117 . S
O27 C4 1.264 . S
C28 C21 1.403 . S
C28 C29 1.399 . S
C28 H34 0.929 . S
C29 C9 1.449 . S
C29 C28 1.399 . S
C29 H35 0.930 . S
H30 C10 0.931 . S
H31 C11 0.930 . S
H32 C19 0.931 . S
H33 C20 0.929 . S
H34 C28 0.929 . S
H35 C29 0.930 . S
Mn36 O41 2.095 1_455 S
Mn36 O51 2.162 . S
Mn36 O52 2.297 . S
Mn36 O60 2.385 . S
Mn36 O61 2.209 . S
Mn36 O62 2.094 . S
Mn37 O42 2.121 1_455 S
Mn37 N44 2.257 . S
Mn37 N53 2.282 . S
Mn37 O61 2.215 . S
Mn37 O63 2.117 . S
C38 O60 1.234 . S
C38 O61 1.283 . S
C39 O51 1.281 . S
C39 O52 1.236 . S
C40 O62 1.240 . S
C40 O63 1.264 . S
O41 Mn36 2.095 1_655 S
O41 C50 1.250 . S
O42 Mn37 2.121 1_655 S
O42 C50 1.258 . S
C43 N44 1.326 . S
C43 C47 1.460 . S
C43 H49 0.929 1_455 S
N44 Mn37 2.257 . S
N44 C43 1.326 . S
N44 C48 1.362 . S
C45 C46 1.258 . S
C45 C48 1.431 . S
C45 C65 1.449 . S
C46 C45 1.258 . S
C46 C47 1.477 . S
C46 H66 0.931 . S
C47 C43 1.460 . S
C47 C46 1.477 . S
C47 H67 0.930 . S
C48 N44 1.362 . S
C48 C45 1.431 . S
C48 C58 1.476 . S
H49 C43 0.929 1_655 S
C50 O41 1.250 . S
C50 O42 1.258 . S
O51 Mn36 2.162 . S
O51 C39 1.281 . S
O52 Mn36 2.297 . S
O52 C39 1.236 . S
N53 Mn37 2.282 . S
N53 C54 1.328 . S
N53 C58 1.318 . S
C54 N53 1.328 . S
C54 C55 1.457 . S
C54 H59 0.929 . S
C55 C54 1.457 . S
C55 C56 1.291 . S
C55 H68 0.931 . S
C56 C55 1.291 . S
C56 C57 1.373 . S
C56 H69 0.929 . S
C57 C56 1.373 . S
C57 C58 1.396 . S
C57 C64 1.403 . S
C58 C48 1.476 . S
C58 N53 1.318 . S
C58 C57 1.396 . S
H59 C54 0.929 . S
O60 Mn36 2.385 . S
O60 C38 1.234 . S
O61 Mn36 2.209 . S
O61 Mn37 2.215 . S
O61 C38 1.283 . S
O62 Mn36 2.094 . S
O62 C40 1.240 . S
O63 Mn37 2.117 . S
O63 C40 1.264 . S
C64 C57 1.403 . S
C64 C65 1.399 . S
C64 H70 0.929 . S
C65 C45 1.449 . S
C65 C64 1.399 . S
C65 H71 0.930 . S
H66 C46 0.931 . S
H67 C47 0.930 . S
H68 C55 0.931 . S
H69 C56 0.929 . S
H70 C64 0.929 . S
H71 C65 0.930 . S
Mn72 O77 2.095 . S
Mn72 O87 2.162 . S
Mn72 O88 2.297 . S
Mn72 O96 2.385 . S
Mn72 O97 2.209 . S
Mn72 O98 2.094 . S
Mn73 O78 2.121 . S
Mn73 N80 2.257 . S
Mn73 N89 2.282 . S
Mn73 O97 2.215 . S
Mn73 O99 2.117 . S
C74 O96 1.234 . S
C74 O97 1.283 . S
C75 O87 1.281 . S
C75 O88 1.236 . S
C76 O98 1.240 . S
C76 O99 1.264 . S
O77 Mn72 2.095 . S
O77 C86 1.250 . S
O78 Mn73 2.121 . S
O78 C86 1.258 . S
C79 N80 1.326 . S
C79 C83 1.460 . S
C79 H85 0.929 . S
N80 Mn73 2.257 . S
N80 C79 1.326 . S
N80 C84 1.362 . S
C81 C82 1.258 . S
C81 C84 1.431 . S
C81 C101 1.449 . S
C82 C81 1.258 . S
C82 C83 1.477 . S
C82 H102 0.931 . S
C83 C79 1.460 . S
C83 C82 1.477 . S
C83 H103 0.930 . S
C84 N80 1.362 . S
C84 C81 1.431 . S
C84 C94 1.476 . S
H85 C79 0.929 . S
C86 O77 1.250 . S
C86 O78 1.258 . S
O87 Mn72 2.162 . S
O87 C75 1.281 . S
O88 Mn72 2.297 . S
O88 C75 1.236 . S
N89 Mn73 2.282 . S
N89 C90 1.328 . S
N89 C94 1.318 . S
C90 N89 1.328 . S
C90 C91 1.457 . S
C90 H95 0.929 . S
C91 C90 1.457 . S
C91 C92 1.291 . S
C91 H104 0.931 . S
C92 C91 1.291 . S
C92 C93 1.373 . S
C92 H105 0.929 . S
C93 C92 1.373 . S
C93 C94 1.396 . S
C93 C100 1.403 . S
C94 C84 1.476 . S
C94 N89 1.318 . S
C94 C93 1.396 . S
H95 C90 0.929 . S
O96 Mn72 2.385 . S
O96 C74 1.234 . S
O97 Mn72 2.209 . S
O97 Mn73 2.215 . S
O97 C74 1.283 . S
O98 Mn72 2.094 . S
O98 C76 1.240 . S
O99 Mn73 2.117 . S
O99 C76 1.264 . S
C100 C93 1.403 . S
C100 C101 1.399 . S
C100 H106 0.929 . S
C101 C81 1.449 . S
C101 C100 1.399 . S
C101 H107 0.930 . S
H102 C82 0.931 . S
H103 C83 0.930 . S
H104 C91 0.931 . S
H105 C92 0.929 . S
H106 C100 0.929 . S
H107 C101 0.930 . S
Mn108 O113 2.095 . S
Mn108 O123 2.162 . S
Mn108 O124 2.297 . S
Mn108 O132 2.385 . S
Mn108 O133 2.209 . S
Mn108 O134 2.094 . S
Mn109 O114 2.121 . S
Mn109 N116 2.257 . S
Mn109 N125 2.282 . S
Mn109 O133 2.215 . S
Mn109 O135 2.117 . S
C110 O132 1.234 . S
C110 O133 1.283 . S
C111 O123 1.281 . S
C111 O124 1.236 . S
C112 O134 1.240 . S
C112 O135 1.264 . S
O113 Mn108 2.095 . S
O113 C122 1.250 . S
O114 Mn109 2.121 . S
O114 C122 1.258 . S
C115 N116 1.326 . S
C115 C119 1.460 1_554 S
C115 H121 0.929 . S
N116 Mn109 2.257 . S
N116 C115 1.326 . S
N116 C120 1.362 . S
C117 C118 1.258 . S
C117 C120 1.431 1_556 S
C117 C137 1.449 . S
C118 C117 1.258 . S
C118 C119 1.477 . S
C118 H138 0.931 . S
C119 C115 1.460 1_556 S
C119 C118 1.477 . S
C119 H139 0.930 . S
C120 N116 1.362 . S
C120 C117 1.431 1_554 S
C120 C130 1.476 . S
H121 C115 0.929 . S
C122 O113 1.250 . S
C122 O114 1.258 . S
O123 Mn108 2.162 . S
O123 C111 1.281 . S
O124 Mn108 2.297 . S
O124 C111 1.236 . S
N125 Mn109 2.282 . S
N125 C126 1.328 . S
N125 C130 1.318 . S
C126 N125 1.328 . S
C126 C127 1.457 . S
C126 H131 0.929 . S
C127 C126 1.457 . S
C127 C128 1.291 . S
C127 H140 0.931 . S
C128 C127 1.291 . S
C128 C129 1.373 . S
C128 H141 0.929 . S
C129 C128 1.373 . S
C129 C130 1.396 . S
C129 C136 1.403 . S
C130 C120 1.476 . S
C130 N125 1.318 . S
C130 C129 1.396 . S
H131 C126 0.929 . S
O132 Mn108 2.385 . S
O132 C110 1.234 . S
O133 Mn108 2.209 . S
O133 Mn109 2.215 . S
O133 C110 1.283 . S
O134 Mn108 2.094 . S
O134 C112 1.240 . S
O135 Mn109 2.117 . S
O135 C112 1.264 . S
C136 C129 1.403 . S
C136 C137 1.399 1_554 S
C136 H142 0.936 . S
C137 C117 1.449 . S
C137 C136 1.399 1_556 S
C137 H143 0.930 . S
H138 C118 0.931 . S
H139 C119 0.930 . S
H140 C127 0.931 . S
H141 C128 0.929 . S
H142 C136 0.936 . S
H143 C137 0.930 . S
Mn144 O149 2.095 . S
Mn144 O159 2.162 . S
Mn144 O160 2.297 . S
Mn144 O168 2.385 . S
Mn144 O169 2.209 . S
Mn144 O170 2.094 . S
Mn145 O150 2.121 1_655 S
Mn145 N152 2.257 . S
Mn145 N161 2.282 . S
Mn145 O169 2.215 1_655 S
Mn145 O171 2.117 . S
C146 O168 1.234 . S
C146 O169 1.283 . S
C147 O159 1.281 . S
C147 O160 1.236 . S
C148 O170 1.240 1_655 S
C148 O171 1.264 . S
O149 Mn144 2.095 . S
O149 C158 1.250 . S
O150 Mn145 2.121 1_455 S
O150 C158 1.258 . S
C151 N152 1.326 1_455 S
C151 C155 1.460 1_554 S
C151 H157 0.929 . S
N152 Mn145 2.257 . S
N152 C151 1.326 1_655 S
N152 C156 1.362 . S
C153 C154 1.258 1_554 S
C153 C156 1.431 . S
C153 C173 1.449 1_554 S
C154 C153 1.258 1_556 S
C154 C155 1.477 1_655 S
C154 H174 0.931 . S
C155 C151 1.460 1_556 S
C155 C154 1.477 1_455 S
C155 H175 0.930 . S
C156 N152 1.362 . S
C156 C153 1.431 . S
C156 C166 1.476 . S
H157 C151 0.929 . S
C158 O149 1.250 . S
C158 O150 1.258 . S
O159 Mn144 2.162 . S
O159 C147 1.281 . S
O160 Mn144 2.297 . S
O160 C147 1.236 . S
N161 Mn145 2.282 . S
N161 C162 1.328 . S
N161 C166 1.318 . S
C162 N161 1.328 . S
C162 C163 1.457 . S
C162 H167 0.929 . S
C163 C162 1.457 . S
C163 C164 1.291 . S
C163 H176 0.931 . S
C164 C163 1.291 . S
C164 C165 1.373 . S
C164 H177 0.929 . S
C165 C164 1.373 . S
C165 C166 1.396 . S
C165 C172 1.403 . S
C166 C156 1.476 . S
C166 N161 1.318 . S
C166 C165 1.396 . S
H167 C162 0.929 . S
O168 Mn144 2.385 . S
O168 C146 1.234 . S
O169 Mn144 2.209 . S
O169 Mn145 2.215 1_455 S
O169 C146 1.283 . S
O170 Mn144 2.094 . S
O170 C148 1.240 1_455 S
O171 Mn145 2.117 . S
O171 C148 1.264 . S
C172 C165 1.403 . S
C172 C173 1.399 1_554 S
C172 H178 0.929 . S
C173 C153 1.449 1_556 S
C173 C172 1.399 1_556 S
C173 H179 0.930 . S
H174 C154 0.931 . S
H175 C155 0.930 . S
H176 C163 0.931 . S
H177 C164 0.929 . S
H178 C172 0.929 . S
H179 C173 0.930 . S
Mn180 O185 2.095 . S
Mn180 O195 2.162 . S
Mn180 O196 2.297 . S
Mn180 O204 2.385 . S
Mn180 O205 2.209 . S
Mn180 O206 2.094 . S
Mn181 O186 2.121 . S
Mn181 N188 2.257 . S
Mn181 N197 2.282 . S
Mn181 O205 2.215 . S
Mn181 O207 2.117 . S
C182 O204 1.234 . S
C182 O205 1.283 . S
C183 O195 1.281 . S
C183 O196 1.236 . S
C184 O206 1.240 . S
C184 O207 1.264 . S
O185 Mn180 2.095 . S
O185 C194 1.250 . S
O186 Mn181 2.121 . S
O186 C194 1.258 . S
C187 N188 1.326 . S
C187 C191 1.460 . S
C187 H193 0.929 . S
N188 Mn181 2.257 . S
N188 C187 1.326 . S
N188 C192 1.362 . S
C189 C190 1.258 . S
C189 C192 1.431 . S
C189 C209 1.449 . S
C190 C189 1.258 . S
C190 C191 1.477 . S
C190 H210 0.931 . S
C191 C187 1.460 . S
C191 C190 1.477 . S
C191 H211 0.930 . S
C192 N188 1.362 . S
C192 C189 1.431 . S
C192 C202 1.476 . S
H193 C187 0.929 . S
C194 O185 1.250 . S
C194 O186 1.258 . S
O195 Mn180 2.162 . S
O195 C183 1.281 . S
O196 Mn180 2.297 . S
O196 C183 1.236 . S
N197 Mn181 2.282 . S
N197 C198 1.328 . S
N197 C202 1.318 . S
C198 N197 1.328 . S
C198 C199 1.457 . S
C198 H203 0.929 . S
C199 C198 1.457 . S
C199 C200 1.291 . S
C199 H212 0.931 . S
C200 C199 1.291 . S
C200 C201 1.373 . S
C200 H213 0.929 . S
C201 C200 1.373 . S
C201 C202 1.396 . S
C201 C208 1.403 . S
C202 C192 1.476 . S
C202 N197 1.318 . S
C202 C201 1.396 . S
H203 C198 0.929 . S
O204 Mn180 2.385 . S
O204 C182 1.234 . S
O205 Mn180 2.209 . S
O205 Mn181 2.215 . S
O205 C182 1.283 . S
O206 Mn180 2.094 . S
O206 C184 1.240 . S
O207 Mn181 2.117 . S
O207 C184 1.264 . S
C208 C201 1.403 . S
C208 C209 1.399 . S
C208 H214 0.929 . S
C209 C189 1.449 . S
C209 C208 1.399 . S
C209 H215 0.930 . S
H210 C190 0.931 . S
H211 C191 0.930 . S
H212 C199 0.931 . S
H213 C200 0.929 . S
H214 C208 0.929 . S
H215 C209 0.930 . S
Mn216 O221 2.095 . S
Mn216 O231 2.162 . S
Mn216 O232 2.297 . S
Mn216 O240 2.385 . S
Mn216 O241 2.209 . S
Mn216 O242 2.094 . S
Mn217 O222 2.121 . S
Mn217 N224 2.257 . S
Mn217 N233 2.282 . S
Mn217 O241 2.215 . S
Mn217 O243 2.117 . S
C218 O240 1.234 . S
C218 O241 1.283 . S
C219 O231 1.281 . S
C219 O232 1.236 . S
C220 O242 1.240 . S
C220 O243 1.264 . S
O221 Mn216 2.095 . S
O221 C230 1.250 . S
O222 Mn217 2.121 . S
O222 C230 1.258 . S
C223 N224 1.326 . S
C223 C227 1.460 . S
C223 H229 0.929 . S
N224 Mn217 2.257 . S
N224 C223 1.326 . S
N224 C228 1.362 . S
C225 C226 1.258 . S
C225 C228 1.431 . S
C225 C245 1.449 . S
C226 C225 1.258 . S
C226 C227 1.477 . S
C226 H246 0.931 . S
C227 C223 1.460 . S
C227 C226 1.477 . S
C227 H247 0.930 . S
C228 N224 1.362 . S
C228 C225 1.431 . S
C228 C238 1.476 . S
H229 C223 0.929 . S
C230 O221 1.250 . S
C230 O222 1.258 . S
O231 Mn216 2.162 . S
O231 C219 1.281 . S
O232 Mn216 2.297 . S
O232 C219 1.236 . S
N233 Mn217 2.282 . S
N233 C234 1.328 . S
N233 C238 1.318 . S
C234 N233 1.328 . S
C234 C235 1.457 . S
C234 H239 0.929 . S
C235 C234 1.457 . S
C235 C236 1.291 . S
C235 H248 0.931 . S
C236 C235 1.291 . S
C236 C237 1.373 . S
C236 H249 0.929 . S
C237 C236 1.373 . S
C237 C238 1.396 . S
C237 C244 1.403 . S
C238 C228 1.476 . S
C238 N233 1.318 . S
C238 C237 1.396 . S
H239 C234 0.929 . S
O240 Mn216 2.385 . S
O240 C218 1.234 . S
O241 Mn216 2.209 . S
O241 Mn217 2.215 . S
O241 C218 1.283 . S
O242 Mn216 2.094 . S
O242 C220 1.240 . S
O243 Mn217 2.117 . S
O243 C220 1.264 . S
C244 C237 1.403 . S
C244 C245 1.399 . S
C244 H250 0.929 . S
C245 C225 1.449 . S
C245 C244 1.399 . S
C245 H251 0.930 . S
H246 C226 0.931 . S
H247 C227 0.930 . S
H248 C235 0.931 . S
H249 C236 0.929 . S
H250 C244 0.929 . S
H251 C245 0.930 . S
Mn252 O257 2.095 1_655 S
Mn252 O267 2.159 1_655 S
Mn252 O268 2.297 . S
Mn252 O276 2.385 . S
Mn252 O277 2.209 . S
Mn252 O278 2.094 1_655 S
Mn253 O258 2.121 1_655 S
Mn253 N260 2.257 . S
Mn253 N269 2.282 . S
Mn253 O277 2.215 . S
Mn253 O279 2.117 1_655 S
C254 O276 1.234 . S
C254 O277 1.283 . S
C255 O267 1.282 1_655 S
C255 O268 1.236 . S
C256 O278 1.240 . S
C256 O279 1.264 . S
O257 Mn252 2.095 1_455 S
O257 C266 1.250 . S
O258 Mn253 2.121 1_455 S
O258 C266 1.258 . S
C259 N260 1.326 . S
C259 C263 1.460 . S
C259 H265 0.929 1_655 S
N260 Mn253 2.257 . S
N260 C259 1.326 . S
N260 C264 1.362 . S
C261 C262 1.258 . S
C261 C264 1.431 . S
C261 C281 1.449 . S
C262 C261 1.258 . S
C262 C263 1.477 . S
C262 H282 0.931 . S
C263 C259 1.460 . S
C263 C262 1.477 . S
C263 H283 0.930 . S
C264 N260 1.362 . S
C264 C261 1.431 . S
C264 C274 1.476 . S
H265 C259 0.929 1_455 S
C266 O257 1.250 . S
C266 O258 1.258 . S
O267 Mn252 2.159 1_455 S
O267 C255 1.282 1_455 S
O268 Mn252 2.297 . S
O268 C255 1.236 . S
N269 Mn253 2.282 . S
N269 C270 1.328 . S
N269 C274 1.318 . S
C270 N269 1.328 . S
C270 C271 1.457 . S
C270 H275 0.929 . S
C271 C270 1.457 . S
C271 C272 1.291 . S
C271 H284 0.931 . S
C272 C271 1.291 . S
C272 C273 1.373 . S
C272 H285 0.929 . S
C273 C272 1.373 . S
C273 C274 1.396 . S
C273 C280 1.403 . S
C274 C264 1.476 . S
C274 N269 1.318 . S
C274 C273 1.396 . S
H275 C270 0.929 . S
O276 Mn252 2.385 . S
O276 C254 1.234 . S
O277 Mn252 2.209 . S
O277 Mn253 2.215 . S
O277 C254 1.283 . S
O278 Mn252 2.094 1_455 S
O278 C256 1.240 . S
O279 Mn253 2.117 1_455 S
O279 C256 1.264 . S
C280 C273 1.403 . S
C280 C281 1.399 . S
C280 H286 0.929 . S
C281 C261 1.449 . S
C281 C280 1.399 . S
C281 H287 0.930 . S
H282 C262 0.931 . S
H283 C263 0.930 . S
H284 C271 0.931 . S
H285 C272 0.929 . S
H286 C280 0.929 . S
H287 C281 0.930 . S
Mn288 O293 2.095 . S
Mn288 O303 2.162 . S
Mn288 O304 2.297 . S
Mn288 O312 2.385 1_545 S
Mn288 O313 2.209 1_545 S
Mn288 O314 2.094 . S
Mn289 O294 2.121 . S
Mn289 N296 2.257 1_545 S
Mn289 N305 2.282 1_545 S
Mn289 O313 2.215 1_545 S
Mn289 O315 2.117 . S
C290 O312 1.234 . S
C290 O313 1.283 . S
C291 O303 1.281 . S
C291 O304 1.236 . S
C292 O314 1.240 . S
C292 O315 1.264 . S
O293 Mn288 2.095 . S
O293 C302 1.250 . S
O294 Mn289 2.121 . S
O294 C302 1.258 . S
C295 N296 1.326 1_545 S
C295 C299 1.460 1_545 S
C295 H301 0.929 . S
N296 Mn289 2.257 1_565 S
N296 C295 1.326 1_565 S
N296 C300 1.362 . S
C297 C298 1.258 . S
C297 C300 1.431 . S
C297 C317 1.449 . S
C298 C297 1.258 . S
C298 C299 1.477 . S
C298 H318 0.931 . S
C299 C295 1.460 1_565 S
C299 C298 1.477 . S
C299 H319 0.930 1_565 S
C300 N296 1.362 . S
C300 C297 1.431 . S
C300 C310 1.476 . S
H301 C295 0.929 . S
C302 O293 1.250 . S
C302 O294 1.258 . S
O303 Mn288 2.162 . S
O303 C291 1.281 . S
O304 Mn288 2.297 . S
O304 C291 1.236 . S
N305 Mn289 2.282 1_565 S
N305 C306 1.328 . S
N305 C310 1.318 . S
C306 N305 1.328 . S
C306 C307 1.457 . S
C306 H311 0.929 . S
C307 C306 1.457 . S
C307 C308 1.291 . S
C307 H320 0.931 . S
C308 C307 1.291 . S
C308 C309 1.373 . S
C308 H321 0.929 . S
C309 C308 1.373 . S
C309 C310 1.396 . S
C309 C316 1.403 . S
C310 C300 1.476 . S
C310 N305 1.318 . S
C310 C309 1.396 . S
H311 C306 0.929 . S
O312 Mn288 2.385 1_565 S
O312 C290 1.234 . S
O313 Mn288 2.209 1_565 S
O313 Mn289 2.215 1_565 S
O313 C290 1.283 . S
O314 Mn288 2.094 . S
O314 C292 1.240 . S
O315 Mn289 2.117 . S
O315 C292 1.264 . S
C316 C309 1.403 . S
C316 C317 1.399 . S
C316 H322 0.929 . S
C317 C297 1.449 . S
C317 C316 1.399 . S
C317 H323 0.930 . S
H318 C298 0.931 . S
H319 C299 0.930 1_545 S
H320 C307 0.931 . S
H321 C308 0.929 . S
H322 C316 0.929 . S
H323 C317 0.930 . S
Mn324 O329 2.095 . S
Mn324 O339 2.162 . S
Mn324 O340 2.297 . S
Mn324 O348 2.385 . S
Mn324 O349 2.209 . S
Mn324 O350 2.094 . S
Mn325 O330 2.121 . S
Mn325 N332 2.257 . S
Mn325 N341 2.282 . S
Mn325 O349 2.215 . S
Mn325 O351 2.117 . S
C326 O348 1.234 . S
C326 O349 1.283 . S
C327 O339 1.281 . S
C327 O340 1.236 . S
C328 O350 1.240 . S
C328 O351 1.264 . S
O329 Mn324 2.095 . S
O329 C338 1.250 . S
O330 Mn325 2.121 . S
O330 C338 1.258 . S
C331 N332 1.326 . S
C331 C335 1.460 1_545 S
C331 H337 0.929 . S
N332 Mn325 2.257 . S
N332 C331 1.326 . S
N332 C336 1.362 . S
C333 C334 1.258 . S
C333 C336 1.431 1_565 S
C333 C353 1.449 . S
C334 C333 1.258 . S
C334 C335 1.477 . S
C334 H354 0.931 . S
C335 C331 1.460 1_565 S
C335 C334 1.477 . S
C335 H355 0.930 . S
C336 N332 1.362 . S
C336 C333 1.431 1_545 S
C336 C346 1.476 . S
H337 C331 0.929 . S
C338 O329 1.250 . S
C338 O330 1.258 . S
O339 Mn324 2.162 . S
O339 C327 1.281 . S
O340 Mn324 2.297 . S
O340 C327 1.236 . S
N341 Mn325 2.282 . S
N341 C342 1.328 . S
N341 C346 1.318 . S
C342 N341 1.328 . S
C342 C343 1.457 . S
C342 H347 0.929 . S
C343 C342 1.457 . S
C343 C344 1.291 . S
C343 H356 0.931 . S
C344 C343 1.291 . S
C344 C345 1.373 . S
C344 H357 0.929 . S
C345 C344 1.373 . S
C345 C346 1.396 . S
C345 C352 1.403 1_545 S
C346 C336 1.476 . S
C346 N341 1.318 . S
C346 C345 1.396 . S
H347 C342 0.929 . S
O348 Mn324 2.385 . S
O348 C326 1.234 . S
O349 Mn324 2.209 . S
O349 Mn325 2.215 . S
O349 C326 1.283 . S
O350 Mn324 2.094 . S
O350 C328 1.240 . S
O351 Mn325 2.117 . S
O351 C328 1.264 . S
C352 C345 1.403 1_565 S
C352 C353 1.399 . S
C352 H358 0.929 . S
C353 C333 1.449 . S
C353 C352 1.399 . S
C353 H359 0.930 . S
H354 C334 0.931 . S
H355 C335 0.930 . S
H356 C343 0.931 . S
H357 C344 0.929 . S
H358 C352 0.929 . S
H359 C353 0.930 . S
Mn360 O365 2.095 1_545 S
Mn360 O375 2.162 . S
Mn360 O376 2.297 . S
Mn360 O384 2.385 . S
Mn360 O385 2.209 . S
Mn360 O386 2.094 . S
Mn361 O366 2.121 1_545 S
Mn361 N368 2.257 . S
Mn361 N377 2.282 . S
Mn361 O385 2.215 . S
Mn361 O387 2.117 . S
C362 O384 1.234 . S
C362 O385 1.283 . S
C363 O375 1.281 . S
C363 O376 1.236 . S
C364 O386 1.240 . S
C364 O387 1.264 . S
O365 Mn360 2.095 1_565 S
O365 C374 1.250 . S
O366 Mn361 2.121 1_565 S
O366 C374 1.258 . S
C367 N368 1.326 . S
C367 C371 1.460 . S
C367 H373 0.929 . S
N368 Mn361 2.257 . S
N368 C367 1.326 . S
N368 C372 1.362 . S
C369 C370 1.258 . S
C369 C372 1.431 . S
C369 C389 1.449 . S
C370 C369 1.258 . S
C370 C371 1.477 . S
C370 H390 0.931 . S
C371 C367 1.460 . S
C371 C370 1.477 . S
C371 H391 0.930 . S
C372 N368 1.362 . S
C372 C369 1.431 . S
C372 C382 1.476 . S
H373 C367 0.929 . S
C374 O365 1.250 . S
C374 O366 1.258 . S
O375 Mn360 2.162 . S
O375 C363 1.281 . S
O376 Mn360 2.297 . S
O376 C363 1.236 . S
N377 Mn361 2.282 . S
N377 C378 1.328 . S
N377 C382 1.318 . S
C378 N377 1.328 . S
C378 C379 1.457 . S
C378 H383 0.929 . S
C379 C378 1.457 . S
C379 C380 1.291 . S
C379 H392 0.931 . S
C380 C379 1.291 . S
C380 C381 1.373 . S
C380 H393 0.929 . S
C381 C380 1.373 . S
C381 C382 1.396 . S
C381 C388 1.403 . S
C382 C372 1.476 . S
C382 N377 1.318 . S
C382 C381 1.396 . S
H383 C378 0.929 . S
O384 Mn360 2.385 . S
O384 C362 1.234 . S
O385 Mn360 2.209 . S
O385 Mn361 2.215 . S
O385 C362 1.283 . S
O386 Mn360 2.094 . S
O386 C364 1.240 . S
O387 Mn361 2.117 . S
O387 C364 1.264 . S
C388 C381 1.403 . S
C388 C389 1.399 . S
C388 H394 0.929 . S
C389 C369 1.449 . S
C389 C388 1.399 . S
C389 H395 0.930 . S
H390 C370 0.931 . S
H391 C371 0.930 . S
H392 C379 0.931 . S
H393 C380 0.929 . S
H394 C388 0.929 . S
H395 C389 0.930 . S
Mn396 O401 2.095 . S
Mn396 O411 2.162 . S
Mn396 O412 2.297 . S
Mn396 O420 2.385 . S
Mn396 O421 2.209 . S
Mn396 O422 2.094 1_554 S
Mn397 O402 2.121 . S
Mn397 N404 2.257 . S
Mn397 N413 2.282 . S
Mn397 O421 2.215 1_556 S
Mn397 O423 2.117 . S
C398 O420 1.234 . S
C398 O421 1.283 . S
C399 O411 1.281 . S
C399 O412 1.236 . S
C400 O422 1.240 . S
C400 O423 1.264 . S
O401 Mn396 2.095 . S
O401 C410 1.250 . S
O402 Mn397 2.121 . S
O402 C410 1.258 1_556 S
C403 N404 1.326 . S
C403 C407 1.460 1_565 S
C403 H409 0.929 1_556 S
N404 Mn397 2.257 . S
N404 C403 1.326 . S
N404 C408 1.362 . S
C405 C406 1.258 . S
C405 C408 1.431 1_545 S
C405 C425 1.449 . S
C406 C405 1.258 . S
C406 C407 1.477 . S
C406 H426 0.931 . S
C407 C403 1.460 1_545 S
C407 C406 1.477 . S
C407 H427 0.930 1_556 S
C408 N404 1.362 . S
C408 C405 1.431 1_565 S
C408 C418 1.476 . S
H409 C403 0.929 1_554 S
C410 O401 1.250 . S
C410 O402 1.258 1_554 S
O411 Mn396 2.162 . S
O411 C399 1.281 . S
O412 Mn396 2.297 . S
O412 C399 1.236 . S
N413 Mn397 2.282 . S
N413 C414 1.328 . S
N413 C418 1.318 . S
C414 N413 1.328 . S
C414 C415 1.457 . S
C414 H419 0.929 . S
C415 C414 1.457 . S
C415 C416 1.291 . S
C415 H428 0.931 . S
C416 C415 1.291 . S
C416 C417 1.373 . S
C416 H429 0.929 . S
C417 C416 1.373 . S
C417 C418 1.396 . S
C417 C424 1.403 1_565 S
C418 C408 1.476 . S
C418 N413 1.318 . S
C418 C417 1.396 . S
H419 C414 0.929 . S
O420 Mn396 2.385 . S
O420 C398 1.234 . S
O421 Mn396 2.209 . S
O421 Mn397 2.215 1_554 S
O421 C398 1.283 . S
O422 Mn396 2.094 1_556 S
O422 C400 1.240 . S
O423 Mn397 2.117 . S
O423 C400 1.264 . S
C424 C417 1.403 1_545 S
C424 C425 1.399 . S
C424 H430 0.929 . S
C425 C405 1.449 . S
C425 C424 1.399 . S
C425 H431 0.930 . S
H426 C406 0.931 . S
H427 C407 0.930 1_554 S
H428 C415 0.931 . S
H429 C416 0.929 . S
H430 C424 0.929 . S
H431 C425 0.930 . S
Mn432 O437 2.095 . S
Mn432 O447 2.162 . S
Mn432 O448 2.297 . S
Mn432 O456 2.385 . S
Mn432 O457 2.209 . S
Mn432 O458 2.094 . S
Mn433 O438 2.121 . S
Mn433 N440 2.257 . S
Mn433 N449 2.282 1_554 S
Mn433 O457 2.215 . S
Mn433 O459 2.117 1_554 S
C434 O456 1.234 . S
C434 O457 1.283 . S
C435 O447 1.281 . S
C435 O448 1.236 . S
C436 O458 1.240 1_556 S
C436 O459 1.264 . S
O437 Mn432 2.095 . S
O437 C446 1.250 . S
O438 Mn433 2.121 . S
O438 C446 1.258 . S
C439 N440 1.326 . S
C439 C443 1.460 . S
C439 H445 0.929 . S
N440 Mn433 2.257 . S
N440 C439 1.326 . S
N440 C444 1.362 . S
C441 C442 1.258 . S
C441 C444 1.431 . S
C441 C461 1.449 1_554 S
C442 C441 1.258 . S
C442 C443 1.477 . S
C442 H462 0.931 . S
C443 C439 1.460 . S
C443 C442 1.477 . S
C443 H463 0.930 . S
C444 N440 1.362 . S
C444 C441 1.431 . S
C444 C454 1.476 1_554 S
H445 C439 0.929 . S
C446 O437 1.250 . S
C446 O438 1.258 . S
O447 Mn432 2.162 . S
O447 C435 1.281 . S
O448 Mn432 2.297 . S
O448 C435 1.236 . S
N449 Mn433 2.282 1_556 S
N449 C450 1.328 . S
N449 C454 1.318 . S
C450 N449 1.328 . S
C450 C451 1.457 . S
C450 H455 0.929 . S
C451 C450 1.457 . S
C451 C452 1.291 . S
C451 H464 0.931 . S
C452 C451 1.291 . S
C452 C453 1.373 . S
C452 H465 0.929 . S
C453 C452 1.373 . S
C453 C454 1.396 . S
C453 C460 1.403 . S
C454 C444 1.476 1_556 S
C454 N449 1.318 . S
C454 C453 1.396 . S
H455 C450 0.929 . S
O456 Mn432 2.385 . S
O456 C434 1.234 . S
O457 Mn432 2.209 . S
O457 Mn433 2.215 . S
O457 C434 1.283 . S
O458 Mn432 2.094 . S
O458 C436 1.240 1_554 S
O459 Mn433 2.117 1_556 S
O459 C436 1.264 . S
C460 C453 1.403 . S
C460 C461 1.399 . S
C460 H466 0.929 . S
C461 C441 1.449 1_556 S
C461 C460 1.399 . S
C461 H467 0.931 1_556 S
H462 C442 0.931 . S
H463 C443 0.930 . S
H464 C451 0.931 . S
H465 C452 0.929 . S
H466 C460 0.929 . S
H467 C461 0.931 1_554 S
Mn468 O473 2.095 . S
Mn468 O483 2.162 . S
Mn468 O484 2.297 . S
Mn468 O492 2.385 . S
Mn468 O493 2.209 . S
Mn468 O494 2.094 . S
Mn469 O474 2.121 1_556 S
Mn469 N476 2.257 . S
Mn469 N485 2.282 . S
Mn469 O493 2.215 1_556 S
Mn469 O495 2.117 . S
C470 O492 1.234 . S
C470 O493 1.283 . S
C471 O483 1.281 . S
C471 O484 1.236 . S
C472 O494 1.240 1_556 S
C472 O495 1.264 . S
O473 Mn468 2.095 . S
O473 C482 1.250 . S
O474 Mn469 2.121 1_554 S
O474 C482 1.258 . S
C475 N476 1.326 1_554 S
C475 C479 1.461 1_544 S
C475 H481 0.929 . S
N476 Mn469 2.257 . S
N476 C475 1.326 1_556 S
N476 C480 1.362 . S
C477 C478 1.262 . S
C477 C480 1.426 1_565 S
C477 C497 1.449 . S
C478 C477 1.262 . S
C478 C479 1.483 . S
C478 H498 0.931 . S
C479 C475 1.461 1_566 S
C479 C478 1.483 . S
C479 H499 0.924 1_556 S
C480 N476 1.362 . S
C480 C477 1.426 1_545 S
C480 C490 1.476 . S
H481 C475 0.929 . S
C482 O473 1.250 . S
C482 O474 1.258 . S
O483 Mn468 2.162 . S
O483 C471 1.281 . S
O484 Mn468 2.297 . S
O484 C471 1.236 . S
N485 Mn469 2.282 . S
N485 C486 1.328 . S
N485 C490 1.318 . S
C486 N485 1.328 . S
C486 C487 1.457 . S
C486 H491 0.929 . S
C487 C486 1.457 . S
C487 C488 1.291 . S
C487 H500 0.931 . S
C488 C487 1.291 . S
C488 C489 1.373 . S
C488 H501 0.929 . S
C489 C488 1.373 . S
C489 C490 1.396 . S
C489 C496 1.403 . S
C490 C480 1.476 . S
C490 N485 1.318 . S
C490 C489 1.396 . S
H491 C486 0.929 . S
O492 Mn468 2.385 . S
O492 C470 1.234 . S
O493 Mn468 2.209 . S
O493 Mn469 2.215 1_554 S
O493 C470 1.283 . S
O494 Mn468 2.094 . S
O494 C472 1.240 1_554 S
O495 Mn469 2.117 . S
O495 C472 1.264 . S
C496 C489 1.403 . S
C496 C497 1.399 1_545 S
C496 H502 0.929 . S
C497 C477 1.449 . S
C497 C496 1.399 1_565 S
C497 H503 0.930 . S
H498 C478 0.931 . S
H499 C479 0.924 1_554 S
H500 C487 0.931 . S
H501 C488 0.929 . S
H502 C496 0.929 . S
H503 C497 0.930 . S
Mn504 O509 2.095 . S
Mn504 O519 2.162 . S
Mn504 O520 2.297 . S
Mn504 O528 2.385 . S
Mn504 O529 2.209 . S
Mn504 O530 2.094 . S
Mn505 O510 2.121 . S
Mn505 N512 2.257 . S
Mn505 N521 2.282 . S
Mn505 O529 2.215 . S
Mn505 O531 2.117 . S
C506 O528 1.234 . S
C506 O529 1.283 . S
C507 O519 1.281 . S
C507 O520 1.236 . S
C508 O530 1.240 . S
C508 O531 1.264 . S
O509 Mn504 2.095 . S
O509 C518 1.250 . S
O510 Mn505 2.121 . S
O510 C518 1.258 . S
C511 N512 1.326 . S
C511 C515 1.460 . S
C511 H517 0.929 . S
N512 Mn505 2.257 . S
N512 C511 1.326 . S
N512 C516 1.362 . S
C513 C514 1.258 . S
C513 C516 1.431 . S
C513 C533 1.449 . S
C514 C513 1.258 . S
C514 C515 1.477 . S
C514 H534 0.931 . S
C515 C511 1.460 . S
C515 C514 1.477 . S
C515 H535 0.930 . S
C516 N512 1.362 . S
C516 C513 1.431 . S
C516 C526 1.476 . S
H517 C511 0.929 . S
C518 O509 1.250 . S
C518 O510 1.258 . S
O519 Mn504 2.162 . S
O519 C507 1.281 . S
O520 Mn504 2.297 . S
O520 C507 1.236 . S
N521 Mn505 2.282 . S
N521 C522 1.328 . S
N521 C526 1.318 . S
C522 N521 1.328 . S
C522 C523 1.457 . S
C522 H527 0.929 . S
C523 C522 1.457 . S
C523 C524 1.291 . S
C523 H536 0.931 . S
C524 C523 1.291 . S
C524 C525 1.373 . S
C524 H537 0.929 . S
C525 C524 1.373 . S
C525 C526 1.396 . S
C525 C532 1.403 . S
C526 C516 1.476 . S
C526 N521 1.318 . S
C526 C525 1.396 . S
H527 C522 0.929 . S
O528 Mn504 2.385 . S
O528 C506 1.234 . S
O529 Mn504 2.209 . S
O529 Mn505 2.215 . S
O529 C506 1.283 . S
O530 Mn504 2.094 . S
O530 C508 1.240 . S
O531 Mn505 2.117 . S
O531 C508 1.264 . S
C532 C525 1.403 . S
C532 C533 1.399 . S
C532 H538 0.929 . S
C533 C513 1.449 . S
C533 C532 1.399 . S
C533 H539 0.930 . S
H534 C514 0.931 . S
H535 C515 0.930 . S
H536 C523 0.931 . S
H537 C524 0.929 . S
H538 C532 0.929 . S
H539 C533 0.930 . S
Mn540 O545 2.095 . S
Mn540 O555 2.162 . S
Mn540 O556 2.297 . S
Mn540 O564 2.385 . S
Mn540 O565 2.209 . S
Mn540 O566 2.094 . S
Mn541 O546 2.121 . S
Mn541 N548 2.257 . S
Mn541 N557 2.282 . S
Mn541 O565 2.215 . S
Mn541 O567 2.117 . S
C542 O564 1.234 . S
C542 O565 1.283 . S
C543 O555 1.281 . S
C543 O556 1.236 . S
C544 O566 1.240 . S
C544 O567 1.264 . S
O545 Mn540 2.095 . S
O545 C554 1.250 . S
O546 Mn541 2.121 . S
O546 C554 1.258 . S
C547 N548 1.326 1_545 S
C547 C551 1.460 . S
C547 H553 0.929 . S
N548 Mn541 2.257 . S
N548 C547 1.326 1_565 S
N548 C552 1.367 . S
C549 C550 1.258 . S
C549 C552 1.410 1_545 S
C549 C569 1.449 . S
C550 C549 1.258 . S
C550 C551 1.477 . S
C550 H570 0.931 . S
C551 C547 1.460 . S
C551 C550 1.477 . S
C551 H571 0.930 . S
C552 N548 1.367 . S
C552 C549 1.410 1_565 S
C552 C562 1.493 . S
H553 C547 0.929 . S
C554 O545 1.250 . S
C554 O546 1.258 . S
O555 Mn540 2.162 . S
O555 C543 1.281 . S
O556 Mn540 2.297 . S
O556 C543 1.236 . S
N557 Mn541 2.282 . S
N557 C558 1.328 . S
N557 C562 1.318 . S
C558 N557 1.328 . S
C558 C559 1.457 . S
C558 H563 0.929 . S
C559 C558 1.457 . S
C559 C560 1.291 . S
C559 H572 0.931 . S
C560 C559 1.291 . S
C560 C561 1.373 . S
C560 H573 0.929 . S
C561 C560 1.373 . S
C561 C562 1.396 . S
C561 C568 1.403 1_565 S
C562 C552 1.493 . S
C562 N557 1.318 . S
C562 C561 1.396 . S
H563 C558 0.929 . S
O564 Mn540 2.385 . S
O564 C542 1.234 . S
O565 Mn540 2.209 . S
O565 Mn541 2.215 . S
O565 C542 1.283 . S
O566 Mn540 2.094 . S
O566 C544 1.240 . S
O567 Mn541 2.117 . S
O567 C544 1.264 . S
C568 C561 1.403 1_545 S
C568 C569 1.399 . S
C568 H574 0.929 . S
C569 C549 1.449 . S
C569 C568 1.399 . S
C569 H575 0.930 . S
H570 C550 0.931 . S
H571 C551 0.930 . S
H572 C559 0.931 . S
H573 C560 0.929 . S
H574 C568 0.929 . S
H575 C569 0.930 . S
Mn576 O581 2.095 . S
Mn576 O591 2.162 . S
Mn576 O592 2.297 1_545 S
Mn576 O600 2.385 1_545 S
Mn576 O601 2.209 1_545 S
Mn576 O602 2.094 . S
Mn577 O582 2.121 1_565 S
Mn577 N584 2.257 . S
Mn577 N593 2.282 . S
Mn577 O601 2.215 . S
Mn577 O603 2.117 1_565 S
C578 O600 1.234 . S
C578 O601 1.283 . S
C579 O591 1.281 . S
C579 O592 1.236 1_545 S
C580 O602 1.240 . S
C580 O603 1.264 . S
O581 Mn576 2.095 . S
O581 C590 1.250 . S
O582 Mn577 2.121 1_545 S
O582 C590 1.258 . S
C583 N584 1.326 . S
C583 C587 1.460 . S
C583 H589 0.929 1_565 S
N584 Mn577 2.257 . S
N584 C583 1.326 . S
N584 C588 1.362 . S
C585 C586 1.258 . S
C585 C588 1.431 . S
C585 C605 1.449 . S
C586 C585 1.258 . S
C586 C587 1.477 . S
C586 H606 0.931 . S
C587 C583 1.460 . S
C587 C586 1.477 . S
C587 H607 0.930 . S
C588 N584 1.362 . S
C588 C585 1.431 . S
C588 C598 1.476 . S
H589 C583 0.929 1_545 S
C590 O581 1.250 . S
C590 O582 1.258 . S
O591 Mn576 2.162 . S
O591 C579 1.281 . S
O592 Mn576 2.297 1_565 S
O592 C579 1.236 1_565 S
N593 Mn577 2.282 . S
N593 C594 1.328 . S
N593 C598 1.318 . S
C594 N593 1.328 . S
C594 C595 1.457 . S
C594 H599 0.929 . S
C595 C594 1.457 . S
C595 C596 1.291 . S
C595 H608 0.931 . S
C596 C595 1.291 . S
C596 C597 1.373 . S
C596 H609 0.929 . S
C597 C596 1.373 . S
C597 C598 1.396 . S
C597 C604 1.403 . S
C598 C588 1.476 . S
C598 N593 1.318 . S
C598 C597 1.396 . S
H599 C594 0.929 . S
O600 Mn576 2.385 1_565 S
O600 C578 1.234 . S
O601 Mn576 2.209 1_565 S
O601 Mn577 2.215 . S
O601 C578 1.283 . S
O602 Mn576 2.094 . S
O602 C580 1.240 . S
O603 Mn577 2.117 1_545 S
O603 C580 1.264 . S
C604 C597 1.403 . S
C604 C605 1.399 . S
C604 H610 0.929 . S
C605 C585 1.449 . S
C605 C604 1.399 . S
C605 H611 0.930 . S
H606 C586 0.931 . S
H607 C587 0.930 . S
H608 C595 0.931 . S
H609 C596 0.929 . S
H610 C604 0.929 . S
H611 C605 0.930 . S
Mn612 O617 2.095 . S
Mn612 O627 2.162 . S
Mn612 O628 2.297 . S
Mn612 O636 2.385 . S
Mn612 O637 2.209 . S
Mn612 O638 2.094 . S
Mn613 O618 2.121 . S
Mn613 N620 2.257 . S
Mn613 N629 2.282 . S
Mn613 O637 2.215 . S
Mn613 O639 2.117 . S
C614 O636 1.234 . S
C614 O637 1.283 . S
C615 O627 1.281 . S
C615 O628 1.236 . S
C616 O638 1.240 . S
C616 O639 1.264 . S
O617 Mn612 2.095 . S
O617 C626 1.250 . S
O618 Mn613 2.121 . S
O618 C626 1.258 . S
C619 N620 1.326 . S
C619 C623 1.460 . S
C619 H625 0.929 . S
N620 Mn613 2.257 . S
N620 C619 1.326 . S
N620 C624 1.362 . S
C621 C622 1.258 . S
C621 C624 1.431 . S
C621 C641 1.449 . S
C622 C621 1.258 . S
C622 C623 1.477 . S
C622 H642 0.931 . S
C623 C619 1.460 . S
C623 C622 1.477 . S
C623 H643 0.930 . S
C624 N620 1.362 . S
C624 C621 1.431 . S
C624 C634 1.476 . S
H625 C619 0.929 . S
C626 O617 1.250 . S
C626 O618 1.258 . S
O627 Mn612 2.162 . S
O627 C615 1.281 . S
O628 Mn612 2.297 . S
O628 C615 1.236 . S
N629 Mn613 2.282 . S
N629 C630 1.328 . S
N629 C634 1.318 . S
C630 N629 1.328 . S
C630 C631 1.457 . S
C630 H635 0.929 . S
C631 C630 1.457 . S
C631 C632 1.291 . S
C631 H644 0.931 . S
C632 C631 1.291 . S
C632 C633 1.373 . S
C632 H645 0.929 . S
C633 C632 1.373 . S
C633 C634 1.396 . S
C633 C640 1.403 . S
C634 C624 1.476 . S
C634 N629 1.318 . S
C634 C633 1.396 . S
H635 C630 0.929 . S
O636 Mn612 2.385 . S
O636 C614 1.234 . S
O637 Mn612 2.209 . S
O637 Mn613 2.215 . S
O637 C614 1.283 . S
O638 Mn612 2.094 . S
O638 C616 1.240 . S
O639 Mn613 2.117 . S
O639 C616 1.264 . S
C640 C633 1.403 . S
C640 C641 1.399 . S
C640 H646 0.929 . S
C641 C621 1.449 . S
C641 C640 1.399 . S
C641 H647 0.930 . S
H642 C622 0.931 . S
H643 C623 0.930 . S
H644 C631 0.931 . S
H645 C632 0.929 . S
H646 C640 0.929 . S
H647 C641 0.930 . S
Mn648 O653 2.095 . S
Mn648 O663 2.162 . S
Mn648 O664 2.297 . S
Mn648 O672 2.385 . S
Mn648 O673 2.209 . S
Mn648 O674 2.094 . S
Mn649 O654 2.121 . S
Mn649 N656 2.257 . S
Mn649 N665 2.282 . S
Mn649 O673 2.215 . S
Mn649 O675 2.117 . S
C650 O672 1.234 . S
C650 O673 1.283 . S
C651 O663 1.281 . S
C651 O664 1.236 . S
C652 O674 1.240 . S
C652 O675 1.264 . S
O653 Mn648 2.095 . S
O653 C662 1.250 . S
O654 Mn649 2.121 . S
O654 C662 1.258 . S
C655 N656 1.326 . S
C655 C659 1.460 . S
C655 H661 0.929 . S
N656 Mn649 2.257 . S
N656 C655 1.326 . S
N656 C660 1.362 . S
C657 C658 1.258 . S
C657 C660 1.431 . S
C657 C677 1.449 . S
C658 C657 1.258 . S
C658 C659 1.477 . S
C658 H678 0.931 . S
C659 C655 1.460 . S
C659 C658 1.477 . S
C659 H679 0.930 . S
C660 N656 1.362 . S
C660 C657 1.431 . S
C660 C670 1.476 . S
H661 C655 0.929 . S
C662 O653 1.250 . S
C662 O654 1.258 . S
O663 Mn648 2.162 . S
O663 C651 1.281 . S
O664 Mn648 2.297 . S
O664 C651 1.236 . S
N665 Mn649 2.282 . S
N665 C666 1.328 . S
N665 C670 1.318 . S
C666 N665 1.328 . S
C666 C667 1.457 . S
C666 H671 0.929 . S
C667 C666 1.457 . S
C667 C668 1.291 . S
C667 H680 0.931 . S
C668 C667 1.291 . S
C668 C669 1.373 . S
C668 H681 0.929 . S
C669 C668 1.373 . S
C669 C670 1.396 . S
C669 C676 1.403 . S
C670 C660 1.476 . S
C670 N665 1.318 . S
C670 C669 1.396 . S
H671 C666 0.929 . S
O672 Mn648 2.385 . S
O672 C650 1.234 . S
O673 Mn648 2.209 . S
O673 Mn649 2.215 . S
O673 C650 1.283 . S
O674 Mn648 2.094 . S
O674 C652 1.240 . S
O675 Mn649 2.117 . S
O675 C652 1.264 . S
C676 C669 1.403 . S
C676 C677 1.399 . S
C676 H682 0.929 . S
C677 C657 1.449 . S
C677 C676 1.399 . S
C677 H683 0.930 . S
H678 C658 0.931 . S
H679 C659 0.930 . S
H680 C667 0.931 . S
H681 C668 0.929 . S
H682 C676 0.929 . S
H683 C677 0.930 . S
Mn684 O689 2.095 1_545 S
Mn684 O699 2.162 1_545 S
Mn684 O700 2.297 . S
Mn684 O708 2.385 . S
Mn684 O709 2.209 . S
Mn684 O710 2.094 . S
Mn685 O690 2.121 1_545 S
Mn685 N692 2.257 . S
Mn685 N701 2.282 . S
Mn685 O709 2.215 . S
Mn685 O711 2.117 . S
C686 O708 1.234 . S
C686 O709 1.283 . S
C687 O699 1.281 . S
C687 O700 1.236 1_565 S
C688 O710 1.240 . S
C688 O711 1.264 . S
O689 Mn684 2.095 1_565 S
O689 C698 1.250 . S
O690 Mn685 2.121 1_565 S
O690 C698 1.258 . S
C691 N692 1.326 . S
C691 C695 1.460 . S
C691 H697 0.929 1_545 S
N692 Mn685 2.257 . S
N692 C691 1.326 . S
N692 C696 1.362 . S
C693 C694 1.258 . S
C693 C696 1.431 . S
C693 C713 1.449 . S
C694 C693 1.258 . S
C694 C695 1.477 . S
C694 H714 0.931 . S
C695 C691 1.460 . S
C695 C694 1.477 . S
C695 H715 0.930 . S
C696 N692 1.362 . S
C696 C693 1.431 . S
C696 C706 1.476 . S
H697 C691 0.929 1_565 S
C698 O689 1.250 . S
C698 O690 1.258 . S
O699 Mn684 2.162 1_565 S
O699 C687 1.281 . S
O700 Mn684 2.297 . S
O700 C687 1.236 1_545 S
N701 Mn685 2.282 . S
N701 C702 1.328 . S
N701 C706 1.318 . S
C702 N701 1.328 . S
C702 C703 1.457 . S
C702 H707 0.929 . S
C703 C702 1.457 . S
C703 C704 1.291 . S
C703 H716 0.931 . S
C704 C703 1.291 . S
C704 C705 1.373 . S
C704 H717 0.929 . S
C705 C704 1.373 . S
C705 C706 1.396 . S
C705 C712 1.403 . S
C706 C696 1.476 . S
C706 N701 1.318 . S
C706 C705 1.396 . S
H707 C702 0.929 . S
O708 Mn684 2.385 . S
O708 C686 1.234 . S
O709 Mn684 2.209 . S
O709 Mn685 2.215 . S
O709 C686 1.283 . S
O710 Mn684 2.094 . S
O710 C688 1.240 . S
O711 Mn685 2.117 . S
O711 C688 1.264 . S
C712 C705 1.403 . S
C712 C713 1.399 . S
C712 H718 0.929 . S
C713 C693 1.449 . S
C713 C712 1.399 . S
C713 H719 0.930 . S
H714 C694 0.931 . S
H715 C695 0.930 . S
H716 C703 0.931 . S
H717 C704 0.929 . S
H718 C712 0.929 . S
H719 C713 0.930 . S
Mn720 O725 2.095 1_554 S
Mn720 O735 2.162 . S
Mn720 O736 2.297 . S
Mn720 O744 2.385 . S
Mn720 O745 2.209 1_554 S
Mn720 O746 2.094 1_554 S
Mn721 O726 2.121 . S
Mn721 N728 2.257 . S
Mn721 N737 2.282 . S
Mn721 O745 2.215 . S
Mn721 O747 2.117 . S
C722 O744 1.234 1_556 S
C722 O745 1.283 . S
C723 O735 1.281 . S
C723 O736 1.236 . S
C724 O746 1.240 . S
C724 O747 1.264 . S
O725 Mn720 2.095 1_556 S
O725 C734 1.250 . S
O726 Mn721 2.121 . S
O726 C734 1.258 . S
C727 N728 1.326 . S
C727 C731 1.460 . S
C727 H733 0.929 . S
N728 Mn721 2.257 . S
N728 C727 1.326 . S
N728 C732 1.362 . S
C729 C730 1.258 . S
C729 C732 1.431 . S
C729 C749 1.449 . S
C730 C729 1.258 . S
C730 C731 1.477 . S
C730 H750 0.931 . S
C731 C727 1.460 . S
C731 C730 1.477 . S
C731 H751 0.930 . S
C732 N728 1.362 . S
C732 C729 1.431 . S
C732 C742 1.476 . S
H733 C727 0.929 . S
C734 O725 1.250 . S
C734 O726 1.258 . S
O735 Mn720 2.162 . S
O735 C723 1.281 . S
O736 Mn720 2.297 . S
O736 C723 1.236 . S
N737 Mn721 2.282 . S
N737 C738 1.328 . S
N737 C742 1.318 . S
C738 N737 1.328 . S
C738 C739 1.457 . S
C738 H743 0.929 . S
C739 C738 1.457 . S
C739 C740 1.291 . S
C739 H752 0.931 . S
C740 C739 1.291 . S
C740 C741 1.373 . S
C740 H753 0.929 . S
C741 C740 1.373 . S
C741 C742 1.396 . S
C741 C748 1.403 . S
C742 C732 1.476 . S
C742 N737 1.318 . S
C742 C741 1.396 . S
H743 C738 0.929 . S
O744 Mn720 2.385 . S
O744 C722 1.234 1_554 S
O745 Mn720 2.209 1_556 S
O745 Mn721 2.215 . S
O745 C722 1.283 . S
O746 Mn720 2.094 1_556 S
O746 C724 1.240 . S
O747 Mn721 2.117 . S
O747 C724 1.264 . S
C748 C741 1.403 . S
C748 C749 1.399 . S
C748 H754 0.929 . S
C749 C729 1.449 . S
C749 C748 1.399 . S
C749 H755 0.930 . S
H750 C730 0.931 . S
H751 C731 0.930 . S
H752 C739 0.931 . S
H753 C740 0.929 . S
H754 C748 0.929 . S
H755 C749 0.930 . S
Mn756 O761 2.095 . S
Mn756 O771 2.162 . S
Mn756 O772 2.297 . S
Mn756 O780 2.385 . S
Mn756 O781 2.209 . S
Mn756 O782 2.094 . S
Mn757 O762 2.121 . S
Mn757 N764 2.257 . S
Mn757 N773 2.282 . S
Mn757 O781 2.215 . S
Mn757 O783 2.117 . S
C758 O780 1.234 . S
C758 O781 1.283 . S
C759 O771 1.281 . S
C759 O772 1.236 . S
C760 O782 1.240 . S
C760 O783 1.264 . S
O761 Mn756 2.095 . S
O761 C770 1.250 . S
O762 Mn757 2.121 . S
O762 C770 1.258 . S
C763 N764 1.326 . S
C763 C767 1.460 . S
C763 H769 0.929 . S
N764 Mn757 2.257 . S
N764 C763 1.326 . S
N764 C768 1.362 . S
C765 C766 1.258 . S
C765 C768 1.431 . S
C765 C785 1.449 . S
C766 C765 1.258 . S
C766 C767 1.477 . S
C766 H786 0.931 . S
C767 C763 1.460 . S
C767 C766 1.477 . S
C767 H787 0.930 . S
C768 N764 1.362 . S
C768 C765 1.431 . S
C768 C778 1.476 . S
H769 C763 0.929 . S
C770 O761 1.250 . S
C770 O762 1.258 . S
O771 Mn756 2.162 . S
O771 C759 1.281 . S
O772 Mn756 2.297 . S
O772 C759 1.236 . S
N773 Mn757 2.282 . S
N773 C774 1.328 . S
N773 C778 1.318 . S
C774 N773 1.328 . S
C774 C775 1.457 . S
C774 H779 0.929 . S
C775 C774 1.457 . S
C775 C776 1.291 . S
C775 H788 0.931 . S
C776 C775 1.291 . S
C776 C777 1.373 . S
C776 H789 0.929 . S
C777 C776 1.373 . S
C777 C778 1.396 . S
C777 C784 1.403 . S
C778 C768 1.476 . S
C778 N773 1.318 . S
C778 C777 1.396 . S
H779 C774 0.929 . S
O780 Mn756 2.385 . S
O780 C758 1.234 . S
O781 Mn756 2.209 . S
O781 Mn757 2.215 . S
O781 C758 1.283 . S
O782 Mn756 2.094 . S
O782 C760 1.240 . S
O783 Mn757 2.117 . S
O783 C760 1.264 . S
C784 C777 1.403 . S
C784 C785 1.399 . S
C784 H790 0.929 . S
C785 C765 1.449 . S
C785 C784 1.399 . S
C785 H791 0.930 . S
H786 C766 0.931 . S
H787 C767 0.930 . S
H788 C775 0.931 . S
H789 C776 0.929 . S
H790 C784 0.929 . S
H791 C785 0.930 . S
Mn792 O797 2.095 . S
Mn792 O807 2.162 . S
Mn792 O808 2.297 . S
Mn792 O816 2.385 . S
Mn792 O817 2.209 . S
Mn792 O818 2.094 . S
Mn793 O798 2.121 . S
Mn793 N800 2.257 . S
Mn793 N809 2.282 . S
Mn793 O817 2.215 . S
Mn793 O819 2.117 . S
C794 O816 1.234 . S
C794 O817 1.283 . S
C795 O807 1.281 . S
C795 O808 1.236 . S
C796 O818 1.240 . S
C796 O819 1.264 . S
O797 Mn792 2.095 . S
O797 C806 1.250 . S
O798 Mn793 2.121 . S
O798 C806 1.258 . S
C799 N800 1.326 . S
C799 C803 1.460 . S
C799 H805 0.929 . S
N800 Mn793 2.257 . S
N800 C799 1.326 . S
N800 C804 1.362 . S
C801 C802 1.258 . S
C801 C804 1.431 . S
C801 C821 1.449 . S
C802 C801 1.258 . S
C802 C803 1.477 . S
C802 H822 0.931 . S
C803 C799 1.460 . S
C803 C802 1.477 . S
C803 H823 0.930 . S
C804 N800 1.362 . S
C804 C801 1.431 . S
C804 C814 1.476 . S
H805 C799 0.929 . S
C806 O797 1.250 . S
C806 O798 1.258 . S
O807 Mn792 2.162 . S
O807 C795 1.281 . S
O808 Mn792 2.297 . S
O808 C795 1.236 . S
N809 Mn793 2.282 . S
N809 C810 1.328 . S
N809 C814 1.318 . S
C810 N809 1.328 . S
C810 C811 1.457 . S
C810 H815 0.929 . S
C811 C810 1.457 . S
C811 C812 1.291 . S
C811 H824 0.931 . S
C812 C811 1.291 . S
C812 C813 1.373 . S
C812 H825 0.929 . S
C813 C812 1.373 . S
C813 C814 1.396 . S
C813 C820 1.403 . S
C814 C804 1.476 . S
C814 N809 1.318 . S
C814 C813 1.396 . S
H815 C810 0.929 . S
O816 Mn792 2.385 . S
O816 C794 1.234 . S
O817 Mn792 2.209 . S
O817 Mn793 2.215 . S
O817 C794 1.283 . S
O818 Mn792 2.094 . S
O818 C796 1.240 . S
O819 Mn793 2.117 . S
O819 C796 1.264 . S
C820 C813 1.403 . S
C820 C821 1.399 . S
C820 H826 0.929 . S
C821 C801 1.449 . S
C821 C820 1.399 . S
C821 H827 0.930 . S
H822 C802 0.931 . S
H823 C803 0.930 . S
H824 C811 0.931 . S
H825 C812 0.929 . S
H826 C820 0.929 . S
H827 C821 0.930 . S
Mn828 O833 2.095 . S
Mn828 O843 2.162 . S
Mn828 O844 2.297 . S
Mn828 O852 2.385 . S
Mn828 O853 2.209 . S
Mn828 O854 2.094 . S
Mn829 O834 2.121 . S
Mn829 N836 2.257 . S
Mn829 N845 2.282 . S
Mn829 O853 2.215 . S
Mn829 O855 2.117 . S
C830 O852 1.234 . S
C830 O853 1.283 . S
C831 O843 1.281 . S
C831 O844 1.236 . S
C832 O854 1.240 . S
C832 O855 1.264 . S
O833 Mn828 2.095 . S
O833 C842 1.250 . S
O834 Mn829 2.121 . S
O834 C842 1.258 . S
C835 N836 1.326 . S
C835 C839 1.460 . S
C835 H841 0.929 . S
N836 Mn829 2.257 . S
N836 C835 1.326 . S
N836 C840 1.362 . S
C837 C838 1.258 . S
C837 C840 1.431 . S
C837 C857 1.449 . S
C838 C837 1.258 . S
C838 C839 1.477 . S
C838 H858 0.931 . S
C839 C835 1.460 . S
C839 C838 1.477 . S
C839 H859 0.930 . S
C840 N836 1.362 . S
C840 C837 1.431 . S
C840 C850 1.476 . S
H841 C835 0.929 . S
C842 O833 1.250 . S
C842 O834 1.258 . S
O843 Mn828 2.162 . S
O843 C831 1.281 . S
O844 Mn828 2.297 . S
O844 C831 1.236 . S
N845 Mn829 2.282 . S
N845 C846 1.328 . S
N845 C850 1.318 . S
C846 N845 1.328 . S
C846 C847 1.457 . S
C846 H851 0.929 . S
C847 C846 1.457 . S
C847 C848 1.291 . S
C847 H860 0.931 . S
C848 C847 1.291 . S
C848 C849 1.373 . S
C848 H861 0.929 . S
C849 C848 1.373 . S
C849 C850 1.396 . S
C849 C856 1.403 . S
C850 C840 1.476 . S
C850 N845 1.318 . S
C850 C849 1.396 . S
H851 C846 0.929 . S
O852 Mn828 2.385 . S
O852 C830 1.234 . S
O853 Mn828 2.209 . S
O853 Mn829 2.215 . S
O853 C830 1.283 . S
O854 Mn828 2.094 . S
O854 C832 1.240 . S
O855 Mn829 2.117 . S
O855 C832 1.264 . S
C856 C849 1.403 . S
C856 C857 1.399 . S
C856 H862 0.929 . S
C857 C837 1.449 . S
C857 C856 1.399 . S
C857 H863 0.930 . S
H858 C838 0.931 . S
H859 C839 0.930 . S
H860 C847 0.931 . S
H861 C848 0.929 . S
H862 C856 0.929 . S
H863 C857 0.930 . S
Zn864 O870 1.969 . S
Zn864 O871 1.965 . S
Zn864 O875 2.024 . S
Zn864 O880 1.969 . S
Zn865 O872 1.969 1_654 S
Zn865 O878 1.969 1_554 S
Zn865 O879 1.965 . S
Zn865 O881 2.024 1_655 S
C866 O867 1.229 . S
C866 O875 1.058 . S
O867 C866 1.229 . S
C868 O869 1.229 1_454 S
C868 O881 1.058 . S
O869 C868 1.229 1_656 S
O870 Zn864 1.969 . S
O870 C873 1.267 . S
O871 Zn864 1.965 . S
O871 C882 1.260 1_554 S
O872 Zn865 1.969 1_456 S
O872 C882 1.258 1_545 S
C873 O870 1.267 . S
C873 O874 1.228 . S
O874 C873 1.228 . S
O875 Zn864 2.024 . S
O875 C866 1.058 . S
C876 O877 1.228 . S
C876 O878 1.267 1_554 S
O877 C876 1.228 . S
O878 Zn865 1.969 1_556 S
O878 C876 1.267 1_556 S
O879 Zn865 1.965 . S
O879 C883 1.260 1_655 S
O880 Zn864 1.969 . S
O880 C883 1.258 1_565 S
O881 Zn865 2.024 1_455 S
O881 C868 1.058 . S
C882 O871 1.260 1_556 S
C882 O872 1.258 1_565 S
C883 O879 1.260 1_455 S
C883 O880 1.258 1_545 S
Zn884 O890 1.969 . S
Zn884 O891 1.965 . S
Zn884 O895 2.024 . S
Zn884 O900 1.969 . S
Zn885 O892 1.969 . S
Zn885 O898 1.969 . S
Zn885 O899 1.965 . S
Zn885 O901 2.024 . S
C886 O887 1.229 . S
C886 O895 1.058 . S
O887 C886 1.229 . S
C888 O889 1.229 . S
C888 O901 1.058 . S
O889 C888 1.229 . S
O890 Zn884 1.969 . S
O890 C893 1.267 . S
O891 Zn884 1.965 . S
O891 C902 1.260 . S
O892 Zn885 1.969 . S
O892 C902 1.258 . S
C893 O890 1.267 . S
C893 O894 1.228 . S
O894 C893 1.228 . S
O895 Zn884 2.024 . S
O895 C886 1.058 . S
C896 O897 1.228 . S
C896 O898 1.267 . S
O897 C896 1.228 . S
O898 Zn885 1.969 . S
O898 C896 1.267 . S
O899 Zn885 1.965 . S
O899 C903 1.260 . S
O900 Zn884 1.969 . S
O900 C903 1.258 . S
O901 Zn885 2.024 . S
O901 C888 1.058 . S
C902 O891 1.260 . S
C902 O892 1.258 . S
C903 O899 1.260 . S
C903 O900 1.258 . S
Zn904 O910 1.969 . S
Zn904 O911 1.965 . S
Zn904 O915 2.024 . S
Zn904 O920 1.969 . S
Zn905 O912 1.969 1_565 S
Zn905 O918 1.969 . S
Zn905 O919 1.965 1_565 S
Zn905 O921 2.024 . S
C906 O907 1.229 . S
C906 O915 1.058 . S
O907 C906 1.229 . S
C908 O909 1.229 . S
C908 O921 1.058 . S
O909 C908 1.229 . S
O910 Zn904 1.969 . S
O910 C913 1.267 . S
O911 Zn904 1.965 . S
O911 C922 1.260 . S
O912 Zn905 1.969 1_545 S
O912 C922 1.258 . S
C913 O910 1.267 . S
C913 O914 1.228 . S
O914 C913 1.228 . S
O915 Zn904 2.024 . S
O915 C906 1.058 . S
C916 O917 1.228 . S
C916 O918 1.267 . S
O917 C916 1.228 . S
O918 Zn905 1.969 . S
O918 C916 1.267 . S
O919 Zn905 1.965 1_545 S
O919 C923 1.260 . S
O920 Zn904 1.969 . S
O920 C923 1.258 . S
O921 Zn905 2.024 . S
O921 C908 1.058 . S
C922 O911 1.260 . S
C922 O912 1.258 . S
C923 O919 1.260 . S
C923 O920 1.258 . S
Zn924 O930 1.969 . S
Zn924 O931 1.965 . S
Zn924 O935 2.024 . S
Zn924 O940 1.969 . S
Zn925 O932 1.969 . S
Zn925 O938 1.969 . S
Zn925 O939 1.965 . S
Zn925 O941 2.024 . S
C926 O927 1.229 . S
C926 O935 1.058 . S
O927 C926 1.229 . S
C928 O929 1.229 . S
C928 O941 1.058 . S
O929 C928 1.229 . S
O930 Zn924 1.969 . S
O930 C933 1.267 . S
O931 Zn924 1.965 . S
O931 C942 1.260 . S
O932 Zn925 1.969 . S
O932 C942 1.258 . S
C933 O930 1.267 . S
C933 O934 1.228 . S
O934 C933 1.228 . S
O935 Zn924 2.024 . S
O935 C926 1.058 . S
C936 O937 1.228 . S
C936 O938 1.267 . S
O937 C936 1.228 . S
O938 Zn925 1.969 . S
O938 C936 1.267 . S
O939 Zn925 1.965 . S
O939 C943 1.260 . S
O940 Zn924 1.969 . S
O940 C943 1.258 . S
O941 Zn925 2.024 . S
O941 C928 1.058 . S
C942 O931 1.260 . S
C942 O932 1.258 . S
C943 O939 1.260 . S
C943 O940 1.258 . S
Zn944 O950 1.969 . S
Zn944 O951 1.965 1_455 S
Zn944 O955 2.024 1_565 S
Zn944 O960 1.969 1_565 S
Zn945 O952 1.969 1_455 S
Zn945 O958 1.969 1_455 S
Zn945 O959 1.965 . S
Zn945 O961 2.024 . S
C946 O947 1.229 1_545 S
C946 O955 1.058 . S
O947 C946 1.229 1_565 S
C948 O949 1.229 . S
C948 O961 1.058 1_655 S
O949 C948 1.229 . S
O950 Zn944 1.969 . S
O950 C953 1.267 . S
O951 Zn944 1.965 1_655 S
O951 C962 1.260 . S
O952 Zn945 1.969 1_655 S
O952 C962 1.258 1_545 S
C953 O950 1.267 . S
C953 O954 1.228 . S
O954 C953 1.228 . S
O955 Zn944 2.024 1_545 S
O955 C946 1.058 . S
C956 O957 1.228 . S
C956 O958 1.267 1_455 S
O957 C956 1.228 . S
O958 Zn945 1.969 1_655 S
O958 C956 1.267 1_655 S
O959 Zn945 1.965 . S
O959 C963 1.260 . S
O960 Zn944 1.969 1_545 S
O960 C963 1.258 . S
O961 Zn945 2.024 . S
O961 C948 1.058 1_455 S
C962 O951 1.260 . S
C962 O952 1.258 1_565 S
C963 O959 1.260 . S
C963 O960 1.258 . S
Zn964 O970 1.969 . S
Zn964 O971 1.965 . S
Zn964 O975 2.024 . S
Zn964 O980 1.969 . S
Zn965 O972 1.969 . S
Zn965 O978 1.969 . S
Zn965 O979 1.965 . S
Zn965 O981 2.024 . S
C966 O967 1.229 . S
C966 O975 1.058 . S
O967 C966 1.229 . S
C968 O969 1.229 . S
C968 O981 1.058 . S
O969 C968 1.229 . S
O970 Zn964 1.969 . S
O970 C973 1.267 . S
O971 Zn964 1.965 . S
O971 C982 1.260 . S
O972 Zn965 1.969 . S
O972 C982 1.258 . S
C973 O970 1.267 . S
C973 O974 1.228 . S
O974 C973 1.228 . S
O975 Zn964 2.024 . S
O975 C966 1.058 . S
C976 O977 1.228 . S
C976 O978 1.267 . S
O977 C976 1.228 . S
O978 Zn965 1.969 . S
O978 C976 1.267 . S
O979 Zn965 1.965 . S
O979 C983 1.260 . S
O980 Zn964 1.969 . S
O980 C983 1.258 . S
O981 Zn965 2.024 . S
O981 C968 1.058 . S
C982 O971 1.260 . S
C982 O972 1.258 . S
C983 O979 1.260 . S
C983 O980 1.258 . S
Zn984 O990 1.969 . S
Zn984 O991 1.965 1_545 S
Zn984 O995 2.024 1_556 S
Zn984 O1000 1.969 1_556 S
Zn985 O992 1.969 . S
Zn985 O998 1.969 . S
Zn985 O999 1.965 1_565 S
Zn985 O1001 2.015 1_565 S
C986 O987 1.229 . S
C986 O995 1.058 . S
O987 C986 1.229 . S
C988 O989 1.229 . S
C988 O1001 1.031 1_565 S
O989 C988 1.229 . S
O990 Zn984 1.969 . S
O990 C993 1.267 . S
O991 Zn984 1.965 1_565 S
O991 C1002 1.260 1_556 S
O992 Zn985 1.969 . S
O992 C1002 1.258 . S
C993 O990 1.267 . S
C993 O994 1.228 . S
O994 C993 1.228 . S
O995 Zn984 2.024 1_554 S
O995 C986 1.058 . S
C996 O997 1.228 . S
C996 O998 1.267 1_545 S
O997 C996 1.228 . S
O998 Zn985 1.969 . S
O998 C996 1.267 1_565 S
O999 Zn985 1.965 1_545 S
O999 C1003 1.260 . S
O1000 Zn984 1.969 1_554 S
O1000 C1003 1.258 . S
O1001 Zn985 2.015 1_545 S
O1001 C988 1.031 1_545 S
C1002 O991 1.260 1_554 S
C1002 O992 1.258 . S
C1003 O999 1.260 . S
C1003 O1000 1.258 . S
Zn1004 O1010 1.969 . S
Zn1004 O1011 1.965 . S
Zn1004 O1015 2.024 . S
Zn1004 O1020 1.969 . S
Zn1005 O1012 1.969 . S
Zn1005 O1018 1.969 . S
Zn1005 O1019 1.965 . S
Zn1005 O1021 2.024 . S
C1006 O1007 1.229 . S
C1006 O1015 1.058 . S
O1007 C1006 1.229 . S
C1008 O1009 1.229 . S
C1008 O1021 1.058 . S
O1009 C1008 1.229 . S
O1010 Zn1004 1.969 . S
O1010 C1013 1.267 . S
O1011 Zn1004 1.965 . S
O1011 C1022 1.260 . S
O1012 Zn1005 1.969 . S
O1012 C1022 1.258 . S
C1013 O1010 1.267 . S
C1013 O1014 1.228 . S
O1014 C1013 1.228 . S
O1015 Zn1004 2.024 . S
O1015 C1006 1.058 . S
C1016 O1017 1.228 . S
C1016 O1018 1.267 . S
O1017 C1016 1.228 . S
O1018 Zn1005 1.969 . S
O1018 C1016 1.267 . S
O1019 Zn1005 1.965 . S
O1019 C1023 1.260 . S
O1020 Zn1004 1.969 . S
O1020 C1023 1.258 . S
O1021 Zn1005 2.024 . S
O1021 C1008 1.058 . S
C1022 O1011 1.260 . S
C1022 O1012 1.258 . S
C1023 O1019 1.260 . S
C1023 O1020 1.258 . S
Zn1024 O1030 1.969 . S
Zn1024 O1031 1.965 . S
Zn1024 O1035 2.024 . S
Zn1024 O1040 1.969 . S
Zn1025 O1032 1.969 1_556 S
Zn1025 O1038 1.964 1_556 S
Zn1025 O1039 1.965 1_556 S
Zn1025 O1041 2.024 . S
C1026 O1027 1.229 . S
C1026 O1035 1.058 . S
O1027 C1026 1.229 . S
C1028 O1029 1.229 . S
C1028 O1041 1.058 . S
O1029 C1028 1.229 . S
O1030 Zn1024 1.969 . S
O1030 C1033 1.267 . S
O1031 Zn1024 1.965 . S
O1031 C1042 1.260 . S
O1032 Zn1025 1.969 1_554 S
O1032 C1042 1.258 . S
C1033 O1030 1.267 . S
C1033 O1034 1.228 . S
O1034 C1033 1.228 . S
O1035 Zn1024 2.024 . S
O1035 C1026 1.058 . S
C1036 O1037 1.228 . S
C1036 O1038 1.246 1_556 S
O1037 C1036 1.228 . S
O1038 Zn1025 1.964 1_554 S
O1038 C1036 1.246 1_554 S
O1039 Zn1025 1.965 1_554 S
O1039 C1043 1.260 . S
O1040 Zn1024 1.969 . S
O1040 C1043 1.258 . S
O1041 Zn1025 2.024 . S
O1041 C1028 1.058 . S
C1042 O1031 1.260 . S
C1042 O1032 1.258 . S
C1043 O1039 1.260 . S
C1043 O1040 1.258 . S
Zn1044 O1050 1.969 . S
Zn1044 O1051 1.965 . S
Zn1044 O1055 2.024 . S
Zn1044 O1060 1.969 . S
Zn1045 O1052 1.969 . S
Zn1045 O1058 1.969 . S
Zn1045 O1059 1.965 . S
Zn1045 O1061 2.024 . S
C1046 O1047 1.229 . S
C1046 O1055 1.058 . S
O1047 C1046 1.229 . S
C1048 O1049 1.229 . S
C1048 O1061 1.058 . S
O1049 C1048 1.229 . S
O1050 Zn1044 1.969 . S
O1050 C1053 1.267 . S
O1051 Zn1044 1.965 . S
O1051 C1062 1.260 . S
O1052 Zn1045 1.969 . S
O1052 C1062 1.258 . S
C1053 O1050 1.267 . S
C1053 O1054 1.228 . S
O1054 C1053 1.228 . S
O1055 Zn1044 2.024 . S
O1055 C1046 1.058 . S
C1056 O1057 1.228 . S
C1056 O1058 1.267 . S
O1057 C1056 1.228 . S
O1058 Zn1045 1.969 . S
O1058 C1056 1.267 . S
O1059 Zn1045 1.965 . S
O1059 C1063 1.260 . S
O1060 Zn1044 1.969 . S
O1060 C1063 1.258 . S
O1061 Zn1045 2.024 . S
O1061 C1048 1.058 . S
C1062 O1051 1.260 . S
C1062 O1052 1.258 . S
C1063 O1059 1.260 . S
C1063 O1060 1.258 . S
Zn1064 O1070 1.969 . S
Zn1064 O1071 1.965 . S
Zn1064 O1075 2.024 . S
Zn1064 O1080 1.969 . S
Zn1065 O1072 1.969 1_655 S
Zn1065 O1078 1.969 . S
Zn1065 O1079 1.965 1_655 S
Zn1065 O1081 2.024 . S
C1066 O1067 1.229 . S
C1066 O1075 1.058 . S
O1067 C1066 1.229 . S
C1068 O1069 1.229 . S
C1068 O1081 1.058 . S
O1069 C1068 1.229 . S
O1070 Zn1064 1.969 . S
O1070 C1073 1.267 . S
O1071 Zn1064 1.965 . S
O1071 C1082 1.260 . S
O1072 Zn1065 1.969 1_455 S
O1072 C1082 1.258 . S
C1073 O1070 1.267 . S
C1073 O1074 1.228 . S
O1074 C1073 1.228 . S
O1075 Zn1064 2.024 . S
O1075 C1066 1.058 . S
C1076 O1077 1.228 . S
C1076 O1078 1.267 . S
O1077 C1076 1.228 . S
O1078 Zn1065 1.969 . S
O1078 C1076 1.267 . S
O1079 Zn1065 1.965 1_455 S
O1079 C1083 1.260 . S
O1080 Zn1064 1.969 . S
O1080 C1083 1.258 . S
O1081 Zn1065 2.024 . S
O1081 C1068 1.058 . S
C1082 O1071 1.260 . S
C1082 O1072 1.258 . S
C1083 O1079 1.260 . S
C1083 O1080 1.258 . S
Zn1084 O1090 1.969 . S
Zn1084 O1091 1.965 . S
Zn1084 O1095 2.024 . S
Zn1084 O1100 1.969 . S
Zn1085 O1092 1.969 . S
Zn1085 O1098 1.969 . S
Zn1085 O1099 1.965 . S
Zn1085 O1101 2.024 . S
C1086 O1087 1.229 . S
C1086 O1095 1.058 . S
O1087 C1086 1.229 . S
C1088 O1089 1.229 . S
C1088 O1101 1.058 . S
O1089 C1088 1.229 . S
O1090 Zn1084 1.969 . S
O1090 C1093 1.267 . S
O1091 Zn1084 1.965 . S
O1091 C1102 1.260 . S
O1092 Zn1085 1.969 . S
O1092 C1102 1.258 . S
C1093 O1090 1.267 . S
C1093 O1094 1.228 . S
O1094 C1093 1.228 . S
O1095 Zn1084 2.024 . S
O1095 C1086 1.058 . S
C1096 O1097 1.228 . S
C1096 O1098 1.267 . S
O1097 C1096 1.228 . S
O1098 Zn1085 1.969 . S
O1098 C1096 1.267 . S
O1099 Zn1085 1.965 . S
O1099 C1103 1.260 . S
O1100 Zn1084 1.969 . S
O1100 C1103 1.258 . S
O1101 Zn1085 2.024 . S
O1101 C1088 1.058 . S
C1102 O1091 1.260 . S
C1102 O1092 1.258 . S
C1103 O1099 1.260 . S
C1103 O1100 1.258 . S
Zn1104 O1110 1.969 . S
Zn1104 O1111 1.965 . S
Zn1104 O1115 2.024 . S
Zn1104 O1120 1.969 . S
Zn1105 O1112 1.969 . S
Zn1105 O1118 1.969 . S
Zn1105 O1119 1.965 . S
Zn1105 O1121 2.024 . S
C1106 O1107 1.229 . S
C1106 O1115 1.058 . S
O1107 C1106 1.229 . S
C1108 O1109 1.229 . S
C1108 O1121 1.058 . S
O1109 C1108 1.229 . S
O1110 Zn1104 1.969 . S
O1110 C1113 1.267 . S
O1111 Zn1104 1.965 . S
O1111 C1122 1.260 . S
O1112 Zn1105 1.969 . S
O1112 C1122 1.258 . S
C1113 O1110 1.267 . S
C1113 O1114 1.228 . S
O1114 C1113 1.228 . S
O1115 Zn1104 2.024 . S
O1115 C1106 1.058 . S
C1116 O1117 1.228 . S
C1116 O1118 1.267 . S
O1117 C1116 1.228 . S
O1118 Zn1105 1.969 . S
O1118 C1116 1.267 . S
O1119 Zn1105 1.965 . S
O1119 C1123 1.260 . S
O1120 Zn1104 1.969 . S
O1120 C1123 1.258 . S
O1121 Zn1105 2.024 . S
O1121 C1108 1.058 . S
C1122 O1111 1.260 . S
C1122 O1112 1.258 . S
C1123 O1119 1.260 . S
C1123 O1120 1.258 . S
Zn1124 O1130 1.969 . S
Zn1124 O1131 1.965 . S
Zn1124 O1135 2.024 . S
Zn1124 O1140 1.969 . S
Zn1125 O1132 1.969 . S
Zn1125 O1138 1.969 . S
Zn1125 O1139 1.965 . S
Zn1125 O1141 2.024 . S
C1126 O1127 1.229 . S
C1126 O1135 1.058 . S
O1127 C1126 1.229 . S
C1128 O1129 1.229 . S
C1128 O1141 1.058 . S
O1129 C1128 1.229 . S
O1130 Zn1124 1.969 . S
O1130 C1133 1.267 . S
O1131 Zn1124 1.965 . S
O1131 C1142 1.260 . S
O1132 Zn1125 1.969 . S
O1132 C1142 1.258 . S
C1133 O1130 1.267 . S
C1133 O1134 1.228 . S
O1134 C1133 1.228 . S
O1135 Zn1124 2.024 . S
O1135 C1126 1.058 . S
C1136 O1137 1.228 . S
C1136 O1138 1.267 . S
O1137 C1136 1.228 . S
O1138 Zn1125 1.969 . S
O1138 C1136 1.267 . S
O1139 Zn1125 1.965 . S
O1139 C1143 1.260 . S
O1140 Zn1124 1.969 . S
O1140 C1143 1.258 . S
O1141 Zn1125 2.024 . S
O1141 C1128 1.058 . S
C1142 O1131 1.260 . S
C1142 O1132 1.258 . S
C1143 O1139 1.260 . S
C1143 O1140 1.258 . S
Zn1144 O1150 1.969 . S
Zn1144 O1151 1.965 . S
Zn1144 O1155 2.024 . S
Zn1144 O1160 1.969 . S
Zn1145 O1152 1.969 . S
Zn1145 O1158 1.969 . S
Zn1145 O1159 1.965 . S
Zn1145 O1161 2.024 . S
C1146 O1147 1.229 . S
C1146 O1155 1.058 . S
O1147 C1146 1.229 . S
C1148 O1149 1.229 . S
C1148 O1161 1.058 . S
O1149 C1148 1.229 . S
O1150 Zn1144 1.969 . S
O1150 C1153 1.267 . S
O1151 Zn1144 1.965 . S
O1151 C1162 1.260 . S
O1152 Zn1145 1.969 . S
O1152 C1162 1.258 . S
C1153 O1150 1.267 . S
C1153 O1154 1.228 . S
O1154 C1153 1.228 . S
O1155 Zn1144 2.024 . S
O1155 C1146 1.058 . S
C1156 O1157 1.228 . S
C1156 O1158 1.267 . S
O1157 C1156 1.228 . S
O1158 Zn1145 1.969 . S
O1158 C1156 1.267 . S
O1159 Zn1145 1.965 . S
O1159 C1163 1.260 . S
O1160 Zn1144 1.969 . S
O1160 C1163 1.258 . S
O1161 Zn1145 2.024 . S
O1161 C1148 1.058 . S
C1162 O1151 1.260 . S
C1162 O1152 1.258 . S
C1163 O1159 1.260 . S
C1163 O1160 1.258 . S
Zn1164 O1170 1.969 . S
Zn1164 O1171 1.965 . S
Zn1164 O1175 2.024 1_655 S
Zn1164 O1180 1.969 1_655 S
Zn1165 O1172 1.969 1_554 S
Zn1165 O1178 1.973 . S
Zn1165 O1179 1.965 . S
Zn1165 O1181 2.024 . S
C1166 O1167 1.229 . S
C1166 O1175 1.058 . S
O1167 C1166 1.229 . S
C1168 O1169 1.229 . S
C1168 O1181 1.058 1_556 S
O1169 C1168 1.229 . S
O1170 Zn1164 1.969 . S
O1170 C1173 1.267 . S
O1171 Zn1164 1.965 . S
O1171 C1182 1.260 1_654 S
O1172 Zn1165 1.969 1_556 S
O1172 C1182 1.258 . S
C1173 O1170 1.267 . S
C1173 O1174 1.228 . S
O1174 C1173 1.228 . S
O1175 Zn1164 2.024 1_455 S
O1175 C1166 1.058 . S
C1176 O1177 1.228 . S
C1176 O1178 1.273 . S
O1177 C1176 1.228 . S
O1178 Zn1165 1.973 . S
O1178 C1176 1.273 . S
O1179 Zn1165 1.965 . S
O1179 C1183 1.260 . S
O1180 Zn1164 1.969 1_455 S
O1180 C1183 1.258 . S
O1181 Zn1165 2.024 . S
O1181 C1168 1.058 1_554 S
C1182 O1171 1.260 1_456 S
C1182 O1172 1.258 . S
C1183 O1179 1.260 . S
C1183 O1180 1.258 . S
C1184 C1185 1.363 1_455 S
C1184 C1190 1.379 . S
C1184 N1192 1.356 . S
C1185 C1184 1.363 1_655 S
C1185 C1191 1.363 . S
C1186 C1187 1.372 . S
C1186 C1191 1.370 1_455 S
C1186 N1193 1.365 1_455 S
C1187 C1186 1.372 . S
C1187 C1190 1.363 . S
N1188 C1190 1.356 1_554 S
N1188 H1200 0.984 . S
N1188 H1201 0.985 . S
N1189 C1191 1.356 . S
N1189 H1194 0.984 . S
N1189 H1195 0.985 . S
C1190 C1184 1.379 . S
C1190 C1187 1.363 . S
C1190 N1188 1.356 1_556 S
C1191 C1185 1.363 . S
C1191 C1186 1.370 1_655 S
C1191 N1189 1.356 . S
N1192 C1184 1.356 . S
N1192 H1198 0.984 . S
N1192 H1199 0.984 . S
N1193 C1186 1.365 1_655 S
N1193 H1196 0.975 1_655 S
N1193 H1197 0.991 . S
H1194 N1189 0.984 . S
H1195 N1189 0.985 . S
H1196 N1193 0.975 1_455 S
H1197 N1193 0.991 . S
H1198 N1192 0.984 . S
H1199 N1192 0.984 . S
H1200 N1188 0.984 . S
H1201 N1188 0.985 . S
C1202 C1203 1.363 . S
C1202 C1208 1.379 . S
C1202 N1210 1.356 . S
C1203 C1202 1.363 . S
C1203 C1209 1.363 . S
C1204 C1205 1.363 . S
C1204 C1209 1.379 . S
C1204 N1211 1.356 . S
C1205 C1204 1.363 . S
C1205 C1208 1.363 . S
N1206 C1208 1.356 . S
N1206 H1218 0.984 . S
N1206 H1219 0.985 . S
N1207 C1209 1.356 . S
N1207 H1212 0.984 . S
N1207 H1213 0.985 . S
C1208 C1202 1.379 . S
C1208 C1205 1.363 . S
C1208 N1206 1.356 . S
C1209 C1203 1.363 . S
C1209 C1204 1.379 . S
C1209 N1207 1.356 . S
N1210 C1202 1.356 . S
N1210 H1216 0.984 . S
N1210 H1217 0.984 . S
N1211 C1204 1.356 . S
N1211 H1214 0.984 . S
N1211 H1215 0.985 . S
H1212 N1207 0.984 . S
H1213 N1207 0.985 . S
H1214 N1211 0.984 . S
H1215 N1211 0.985 . S
H1216 N1210 0.984 . S
H1217 N1210 0.984 . S
H1218 N1206 0.984 . S
H1219 N1206 0.985 . S
C1220 C1221 1.363 . S
C1220 C1226 1.379 . S
C1220 N1228 1.356 . S
C1221 C1220 1.363 . S
C1221 C1227 1.363 . S
C1222 C1223 1.363 . S
C1222 C1227 1.379 . S
C1222 N1229 1.356 . S
C1223 C1222 1.363 . S
C1223 C1226 1.363 . S
N1224 C1226 1.356 . S
N1224 H1236 0.984 . S
N1224 H1237 0.985 . S
N1225 C1227 1.356 . S
N1225 H1230 0.984 . S
N1225 H1231 0.985 . S
C1226 C1220 1.379 . S
C1226 C1223 1.363 . S
C1226 N1224 1.356 . S
C1227 C1221 1.363 . S
C1227 C1222 1.379 . S
C1227 N1225 1.356 . S
N1228 C1220 1.356 . S
N1228 H1234 0.984 . S
N1228 H1235 0.984 . S
N1229 C1222 1.356 . S
N1229 H1232 0.984 . S
N1229 H1233 0.985 . S
H1230 N1225 0.984 . S
H1231 N1225 0.985 . S
H1232 N1229 0.984 . S
H1233 N1229 0.985 . S
H1234 N1228 0.984 . S
H1235 N1228 0.984 . S
H1236 N1224 0.984 . S
H1237 N1224 0.985 . S
C1238 C1239 1.363 . S
C1238 C1244 1.379 . S
C1238 N1246 1.356 . S
C1239 C1238 1.363 . S
C1239 C1245 1.363 . S
C1240 C1241 1.363 . S
C1240 C1245 1.379 . S
C1240 N1247 1.356 . S
C1241 C1240 1.363 . S
C1241 C1244 1.363 . S
N1242 C1244 1.356 . S
N1242 H1254 0.984 . S
N1242 H1255 0.985 . S
N1243 C1245 1.356 . S
N1243 H1248 0.984 . S
N1243 H1249 0.985 . S
C1244 C1238 1.379 . S
C1244 C1241 1.363 . S
C1244 N1242 1.356 . S
C1245 C1239 1.363 . S
C1245 C1240 1.379 . S
C1245 N1243 1.356 . S
N1246 C1238 1.356 . S
N1246 H1252 0.984 . S
N1246 H1253 0.984 . S
N1247 C1240 1.356 . S
N1247 H1250 0.984 . S
N1247 H1251 0.985 . S
H1248 N1243 0.984 . S
H1249 N1243 0.985 . S
H1250 N1247 0.984 . S
H1251 N1247 0.985 . S
H1252 N1246 0.984 . S
H1253 N1246 0.984 . S
H1254 N1242 0.984 . S
H1255 N1242 0.985 . S
C1256 C1257 1.362 . S
C1256 C1262 1.379 . S
C1256 N1264 1.357 1_455 S
C1257 C1256 1.362 . S
C1257 C1263 1.363 . S
C1258 C1259 1.363 . S
C1258 C1263 1.379 . S
C1258 N1265 1.356 . S
C1259 C1258 1.363 . S
C1259 C1262 1.363 . S
N1260 C1262 1.356 1_655 S
N1260 H1272 0.984 . S
N1260 H1273 0.985 1_655 S
N1261 C1263 1.356 . S
N1261 H1266 0.984 . S
N1261 H1267 0.985 . S
C1262 C1256 1.379 . S
C1262 C1259 1.363 . S
C1262 N1260 1.356 1_455 S
C1263 C1257 1.363 . S
C1263 C1258 1.379 . S
C1263 N1261 1.356 . S
N1264 C1256 1.357 1_655 S
N1264 H1270 0.984 . S
N1264 H1271 0.984 . S
N1265 C1258 1.356 . S
N1265 H1268 0.984 . S
N1265 H1269 0.985 . S
H1266 N1261 0.984 . S
H1267 N1261 0.985 . S
H1268 N1265 0.984 . S
H1269 N1265 0.985 . S
H1270 N1264 0.984 . S
H1271 N1264 0.984 . S
H1272 N1260 0.984 . S
H1273 N1260 0.985 1_455 S
C1274 C1275 1.363 . S
C1274 C1280 1.379 . S
C1274 N1282 1.356 . S
C1275 C1274 1.363 . S
C1275 C1281 1.363 . S
C1276 C1277 1.363 . S
C1276 C1281 1.379 . S
C1276 N1283 1.356 . S
C1277 C1276 1.363 . S
C1277 C1280 1.363 . S
N1278 C1280 1.356 . S
N1278 H1290 0.984 . S
N1278 H1291 0.985 . S
N1279 C1281 1.356 . S
N1279 H1284 0.984 . S
N1279 H1285 0.985 . S
C1280 C1274 1.379 . S
C1280 C1277 1.363 . S
C1280 N1278 1.356 . S
C1281 C1275 1.363 . S
C1281 C1276 1.379 . S
C1281 N1279 1.356 . S
N1282 C1274 1.356 . S
N1282 H1288 0.984 . S
N1282 H1289 0.984 . S
N1283 C1276 1.356 . S
N1283 H1286 0.984 . S
N1283 H1287 0.985 . S
H1284 N1279 0.984 . S
H1285 N1279 0.985 . S
H1286 N1283 0.984 . S
H1287 N1283 0.985 . S
H1288 N1282 0.984 . S
H1289 N1282 0.984 . S
H1290 N1278 0.984 . S
H1291 N1278 0.985 . S
C1292 C1293 1.363 . S
C1292 C1298 1.379 . S
C1292 N1300 1.356 . S
C1293 C1292 1.363 . S
C1293 C1299 1.363 . S
C1294 C1295 1.363 . S
C1294 C1299 1.379 . S
C1294 N1301 1.356 . S
C1295 C1294 1.363 . S
C1295 C1298 1.363 . S
N1296 C1298 1.356 . S
N1296 H1308 0.984 . S
N1296 H1309 0.985 . S
N1297 C1299 1.356 . S
N1297 H1302 0.984 . S
N1297 H1303 0.985 . S
C1298 C1292 1.379 . S
C1298 C1295 1.363 . S
C1298 N1296 1.356 . S
C1299 C1293 1.363 . S
C1299 C1294 1.379 . S
C1299 N1297 1.356 . S
N1300 C1292 1.356 . S
N1300 H1306 0.984 . S
N1300 H1307 0.984 . S
N1301 C1294 1.356 . S
N1301 H1304 0.984 . S
N1301 H1305 0.985 . S
H1302 N1297 0.984 . S
H1303 N1297 0.985 . S
H1304 N1301 0.984 . S
H1305 N1301 0.985 . S
H1306 N1300 0.984 . S
H1307 N1300 0.984 . S
H1308 N1296 0.984 . S
H1309 N1296 0.985 . S
C1310 C1311 1.363 . S
C1310 C1316 1.379 . S
C1310 N1318 1.356 . S
C1311 C1310 1.363 . S
C1311 C1317 1.363 . S
C1312 C1313 1.363 . S
C1312 C1317 1.379 . S
C1312 N1319 1.356 . S
C1313 C1312 1.363 . S
C1313 C1316 1.363 . S
N1314 C1316 1.356 . S
N1314 H1326 0.984 . S
N1314 H1327 0.985 . S
N1315 C1317 1.356 . S
N1315 H1320 0.984 . S
N1315 H1321 0.985 . S
C1316 C1310 1.379 . S
C1316 C1313 1.363 . S
C1316 N1314 1.356 . S
C1317 C1311 1.363 . S
C1317 C1312 1.379 . S
C1317 N1315 1.356 . S
N1318 C1310 1.356 . S
N1318 H1324 0.984 . S
N1318 H1325 0.984 . S
N1319 C1312 1.356 . S
N1319 H1322 0.984 . S
N1319 H1323 0.985 . S
H1320 N1315 0.984 . S
H1321 N1315 0.985 . S
H1322 N1319 0.984 . S
H1323 N1319 0.985 . S
H1324 N1318 0.984 . S
H1325 N1318 0.984 . S
H1326 N1314 0.984 . S
H1327 N1314 0.985 . S
C1328 C1329 1.363 1_565 S
C1328 C1334 1.379 . S
C1328 N1336 1.356 . S
C1329 C1328 1.363 1_545 S
C1329 C1335 1.363 . S
C1330 C1331 1.363 . S
C1330 C1335 1.379 . S
C1330 N1337 1.356 . S
C1331 C1330 1.363 . S
C1331 C1334 1.363 1_545 S
N1332 C1334 1.356 1_455 S
N1332 H1344 0.984 . S
N1332 H1345 0.985 . S
N1333 C1335 1.356 . S
N1333 H1338 0.984 . S
N1333 H1339 0.985 . S
C1334 C1328 1.379 . S
C1334 C1331 1.363 1_565 S
C1334 N1332 1.356 1_655 S
C1335 C1329 1.363 . S
C1335 C1330 1.379 . S
C1335 N1333 1.356 . S
N1336 C1328 1.356 . S
N1336 H1342 0.984 . S
N1336 H1343 0.984 . S
N1337 C1330 1.356 . S
N1337 H1340 0.984 . S
N1337 H1341 0.985 . S
H1338 N1333 0.984 . S
H1339 N1333 0.985 . S
H1340 N1337 0.984 . S
H1341 N1337 0.985 . S
H1342 N1336 0.984 . S
H1343 N1336 0.984 . S
H1344 N1332 0.984 . S
H1345 N1332 0.985 . S
C1346 C1347 1.363 . S
C1346 C1352 1.379 . S
C1346 N1354 1.356 . S
C1347 C1346 1.363 . S
C1347 C1353 1.363 . S
C1348 C1349 1.363 . S
C1348 C1353 1.379 . S
C1348 N1355 1.356 . S
C1349 C1348 1.363 . S
C1349 C1352 1.363 . S
N1350 C1352 1.356 . S
N1350 H1362 0.984 . S
N1350 H1363 0.985 . S
N1351 C1353 1.356 . S
N1351 H1356 0.984 . S
N1351 H1357 0.985 . S
C1352 C1346 1.379 . S
C1352 C1349 1.363 . S
C1352 N1350 1.356 . S
C1353 C1347 1.363 . S
C1353 C1348 1.379 . S
C1353 N1351 1.356 . S
N1354 C1346 1.356 . S
N1354 H1360 0.984 . S
N1354 H1361 0.984 . S
N1355 C1348 1.356 . S
N1355 H1358 0.984 . S
N1355 H1359 0.985 . S
H1356 N1351 0.984 . S
H1357 N1351 0.985 . S
H1358 N1355 0.984 . S
H1359 N1355 0.985 . S
H1360 N1354 0.984 . S
H1361 N1354 0.984 . S
H1362 N1350 0.984 . S
H1363 N1350 0.985 . S
C1364 C1365 1.363 . S
C1364 C1370 1.379 . S
C1364 N1372 1.356 . S
C1365 C1364 1.363 . S
C1365 C1371 1.363 1_565 S
C1366 C1367 1.363 . S
C1366 C1371 1.379 . S
C1366 N1373 1.356 . S
C1367 C1366 1.363 . S
C1367 C1370 1.363 1_545 S
N1368 C1370 1.356 . S
N1368 H1380 0.984 . S
N1368 H1381 0.985 . S
N1369 C1371 1.356 . S
N1369 H1374 0.984 . S
N1369 H1375 0.985 . S
C1370 C1364 1.379 . S
C1370 C1367 1.363 1_565 S
C1370 N1368 1.356 . S
C1371 C1365 1.363 1_545 S
C1371 C1366 1.379 . S
C1371 N1369 1.356 . S
N1372 C1364 1.356 . S
N1372 H1378 0.984 . S
N1372 H1379 0.984 . S
N1373 C1366 1.356 . S
N1373 H1376 0.984 . S
N1373 H1377 0.985 . S
H1374 N1369 0.984 . S
H1375 N1369 0.985 . S
H1376 N1373 0.984 . S
H1377 N1373 0.985 . S
H1378 N1372 0.984 . S
H1379 N1372 0.984 . S
H1380 N1368 0.984 . S
H1381 N1368 0.985 . S
C1382 C1383 1.363 . S
C1382 C1388 1.379 . S
C1382 N1390 1.356 . S
C1383 C1382 1.363 . S
C1383 C1389 1.363 . S
C1384 C1385 1.363 . S
C1384 C1389 1.379 . S
C1384 N1391 1.356 . S
C1385 C1384 1.363 . S
C1385 C1388 1.363 . S
N1386 C1388 1.356 . S
N1386 H1398 0.984 . S
N1386 H1399 0.985 . S
N1387 C1389 1.356 . S
N1387 H1392 0.984 1_556 S
N1387 H1393 0.985 . S
C1388 C1382 1.379 . S
C1388 C1385 1.363 . S
C1388 N1386 1.356 . S
C1389 C1383 1.363 . S
C1389 C1384 1.379 . S
C1389 N1387 1.356 . S
N1390 C1382 1.356 . S
N1390 H1396 0.984 . S
N1390 H1397 0.984 . S
N1391 C1384 1.356 . S
N1391 H1394 0.984 . S
N1391 H1395 0.985 . S
H1392 N1387 0.984 1_554 S
H1393 N1387 0.985 . S
H1394 N1391 0.984 . S
H1395 N1391 0.985 . S
H1396 N1390 0.984 . S
H1397 N1390 0.984 . S
H1398 N1386 0.984 . S
H1399 N1386 0.985 . S
C1400 C1401 1.363 . S
C1400 C1406 1.379 . S
C1400 N1408 1.356 . S
C1401 C1400 1.363 . S
C1401 C1407 1.363 1_545 S
C1402 C1403 1.363 1_565 S
C1402 C1407 1.379 . S
C1402 N1409 1.356 . S
C1403 C1402 1.363 1_545 S
C1403 C1406 1.363 . S
N1404 C1406 1.356 1_455 S
N1404 H1416 0.984 . S
N1404 H1417 0.985 . S
N1405 C1407 1.356 . S
N1405 H1410 0.984 . S
N1405 H1411 0.985 . S
C1406 C1400 1.379 . S
C1406 C1403 1.363 . S
C1406 N1404 1.356 1_655 S
C1407 C1401 1.363 1_565 S
C1407 C1402 1.379 . S
C1407 N1405 1.356 . S
N1408 C1400 1.356 . S
N1408 H1414 0.984 . S
N1408 H1415 0.984 . S
N1409 C1402 1.356 . S
N1409 H1412 0.984 . S
N1409 H1413 0.985 . S
H1410 N1405 0.984 . S
H1411 N1405 0.985 . S
H1412 N1409 0.984 . S
H1413 N1409 0.985 . S
H1414 N1408 0.984 . S
H1415 N1408 0.984 . S
H1416 N1404 0.984 . S
H1417 N1404 0.985 . S
C1418 C1419 1.363 . S
C1418 C1424 1.379 . S
C1418 N1426 1.356 . S
C1419 C1418 1.363 . S
C1419 C1425 1.363 . S
C1420 C1421 1.363 . S
C1420 C1425 1.379 . S
C1420 N1427 1.356 . S
C1421 C1420 1.363 . S
C1421 C1424 1.363 . S
N1422 C1424 1.356 . S
N1422 H1434 0.984 . S
N1422 H1435 0.985 . S
N1423 C1425 1.356 . S
N1423 H1428 0.984 . S
N1423 H1429 0.985 . S
C1424 C1418 1.379 . S
C1424 C1421 1.363 . S
C1424 N1422 1.356 . S
C1425 C1419 1.363 . S
C1425 C1420 1.379 . S
C1425 N1423 1.356 . S
N1426 C1418 1.356 . S
N1426 H1432 0.984 . S
N1426 H1433 0.984 . S
N1427 C1420 1.356 . S
N1427 H1430 0.984 . S
N1427 H1431 0.985 . S
H1428 N1423 0.984 . S
H1429 N1423 0.985 . S
H1430 N1427 0.984 . S
H1431 N1427 0.985 . S
H1432 N1426 0.984 . S
H1433 N1426 0.984 . S
H1434 N1422 0.984 . S
H1435 N1422 0.985 . S
C1436 C1437 1.363 . S
C1436 C1442 1.379 . S
C1436 N1444 1.356 . S
C1437 C1436 1.363 . S
C1437 C1443 1.363 1_545 S
C1438 C1439 1.338 1_565 S
C1438 C1443 1.389 . S
C1438 N1445 1.364 . S
C1439 C1438 1.338 1_545 S
C1439 C1442 1.363 . S
N1440 C1442 1.356 . S
N1440 H1452 0.984 . S
N1440 H1453 0.985 . S
N1441 C1443 1.356 . S
N1441 H1446 0.984 . S
N1441 H1447 0.985 . S
C1442 C1436 1.379 . S
C1442 C1439 1.363 . S
C1442 N1440 1.356 . S
C1443 C1437 1.363 1_565 S
C1443 C1438 1.389 . S
C1443 N1441 1.356 . S
N1444 C1436 1.356 . S
N1444 H1450 0.984 . S
N1444 H1451 0.984 . S
N1445 C1438 1.364 . S
N1445 H1448 0.984 1_565 S
N1445 H1449 0.985 . S
H1446 N1441 0.984 . S
H1447 N1441 0.985 . S
H1448 N1445 0.984 1_545 S
H1449 N1445 0.985 . S
H1450 N1444 0.984 . S
H1451 N1444 0.984 . S
H1452 N1440 0.984 . S
H1453 N1440 0.985 . S
C1454 C1455 1.363 . S
C1454 C1460 1.379 . S
C1454 N1462 1.356 . S
C1455 C1454 1.363 . S
C1455 C1461 1.363 . S
C1456 C1457 1.363 . S
C1456 C1461 1.379 . S
C1456 N1463 1.356 . S
C1457 C1456 1.363 . S
C1457 C1460 1.363 . S
N1458 C1460 1.356 . S
N1458 H1470 0.984 . S
N1458 H1471 0.985 . S
N1459 C1461 1.356 . S
N1459 H1464 0.984 . S
N1459 H1465 0.985 . S
C1460 C1454 1.379 . S
C1460 C1457 1.363 . S
C1460 N1458 1.356 . S
C1461 C1455 1.363 . S
C1461 C1456 1.379 . S
C1461 N1459 1.356 . S
N1462 C1454 1.356 . S
N1462 H1468 0.984 . S
N1462 H1469 0.984 . S
N1463 C1456 1.356 . S
N1463 H1466 0.984 . S
N1463 H1467 0.985 . S
H1464 N1459 0.984 . S
H1465 N1459 0.985 . S
H1466 N1463 0.984 . S
H1467 N1463 0.985 . S
H1468 N1462 0.984 . S
H1469 N1462 0.984 . S
H1470 N1458 0.984 . S
H1471 N1458 0.985 . S
C1472 C1473 1.363 . S
C1472 C1478 1.379 . S
C1472 N1480 1.356 . S
C1473 C1472 1.363 . S
C1473 C1479 1.363 . S
C1474 C1475 1.363 . S
C1474 C1479 1.379 . S
C1474 N1481 1.356 . S
C1475 C1474 1.363 . S
C1475 C1478 1.363 . S
N1476 C1478 1.356 1_545 S
N1476 H1488 0.984 . S
N1476 H1489 0.985 . S
N1477 C1479 1.356 . S
N1477 H1482 0.984 . S
N1477 H1483 0.985 . S
C1478 C1472 1.379 . S
C1478 C1475 1.363 . S
C1478 N1476 1.356 1_565 S
C1479 C1473 1.363 . S
C1479 C1474 1.379 . S
C1479 N1477 1.356 . S
N1480 C1472 1.356 . S
N1480 H1486 0.984 . S
N1480 H1487 0.984 . S
N1481 C1474 1.356 . S
N1481 H1484 0.984 . S
N1481 H1485 0.985 . S
H1482 N1477 0.984 . S
H1483 N1477 0.985 . S
H1484 N1481 0.984 . S
H1485 N1481 0.985 . S
H1486 N1480 0.984 . S
H1487 N1480 0.984 . S
H1488 N1476 0.984 . S
H1489 N1476 0.985 . S
C1490 C1491 1.363 1_554 S
C1490 C1496 1.379 . S
C1490 N1498 1.356 . S
C1491 C1490 1.363 1_556 S
C1491 C1497 1.363 . S
C1492 C1493 1.363 1_556 S
C1492 C1497 1.379 . S
C1492 N1499 1.356 . S
C1493 C1492 1.363 1_554 S
C1493 C1496 1.363 . S
N1494 C1496 1.356 . S
N1494 H1506 0.984 . S
N1494 H1507 0.985 . S
N1495 C1497 1.356 . S
N1495 H1500 0.984 . S
N1495 H1501 0.985 . S
C1496 C1490 1.379 . S
C1496 C1493 1.363 . S
C1496 N1494 1.356 . S
C1497 C1491 1.363 . S
C1497 C1492 1.379 . S
C1497 N1495 1.356 . S
N1498 C1490 1.356 . S
N1498 H1504 0.984 . S
N1498 H1505 0.984 . S
N1499 C1492 1.356 . S
N1499 H1502 0.984 . S
N1499 H1503 0.985 . S
H1500 N1495 0.984 . S
H1501 N1495 0.985 . S
H1502 N1499 0.984 . S
H1503 N1499 0.985 . S
H1504 N1498 0.984 . S
H1505 N1498 0.984 . S
H1506 N1494 0.984 . S
H1507 N1494 0.985 . S
C1508 C1509 1.363 . S
C1508 C1514 1.379 . S
C1508 N1516 1.356 . S
C1509 C1508 1.363 . S
C1509 C1515 1.363 . S
C1510 C1511 1.363 . S
C1510 C1515 1.379 . S
C1510 N1517 1.356 . S
C1511 C1510 1.363 . S
C1511 C1514 1.363 . S
N1512 C1514 1.356 . S
N1512 H1524 0.984 . S
N1512 H1525 0.985 . S
N1513 C1515 1.356 . S
N1513 H1518 0.984 . S
N1513 H1519 0.985 . S
C1514 C1508 1.379 . S
C1514 C1511 1.363 . S
C1514 N1512 1.356 . S
C1515 C1509 1.363 . S
C1515 C1510 1.379 . S
C1515 N1513 1.356 . S
N1516 C1508 1.356 . S
N1516 H1522 0.984 . S
N1516 H1523 0.984 . S
N1517 C1510 1.356 . S
N1517 H1520 0.984 . S
N1517 H1521 0.985 . S
H1518 N1513 0.984 . S
H1519 N1513 0.985 . S
H1520 N1517 0.984 . S
H1521 N1517 0.985 . S
H1522 N1516 0.984 . S
H1523 N1516 0.984 . S
H1524 N1512 0.984 . S
H1525 N1512 0.985 . S
C1526 C1527 1.363 . S
C1526 C1532 1.379 . S
C1526 N1534 1.356 . S
C1527 C1526 1.363 . S
C1527 C1533 1.363 . S
C1528 C1529 1.363 . S
C1528 C1533 1.379 . S
C1528 N1535 1.356 . S
C1529 C1528 1.363 . S
C1529 C1532 1.363 . S
N1530 C1532 1.356 . S
N1530 H1542 0.984 . S
N1530 H1543 0.985 . S
N1531 C1533 1.356 . S
N1531 H1536 0.984 . S
N1531 H1537 0.985 . S
C1532 C1526 1.379 . S
C1532 C1529 1.363 . S
C1532 N1530 1.356 . S
C1533 C1527 1.363 . S
C1533 C1528 1.379 . S
C1533 N1531 1.356 . S
N1534 C1526 1.356 . S
N1534 H1540 0.984 . S
N1534 H1541 0.984 . S
N1535 C1528 1.356 . S
N1535 H1538 0.984 . S
N1535 H1539 0.985 . S
H1536 N1531 0.984 . S
H1537 N1531 0.985 . S
H1538 N1535 0.984 . S
H1539 N1535 0.985 . S
H1540 N1534 0.984 . S
H1541 N1534 0.984 . S
H1542 N1530 0.984 . S
H1543 N1530 0.985 . S
C1544 C1545 1.363 . S
C1544 C1550 1.379 . S
C1544 N1552 1.356 . S
C1545 C1544 1.363 . S
C1545 C1551 1.363 . S
C1546 C1547 1.363 . S
C1546 C1551 1.379 . S
C1546 N1553 1.356 . S
C1547 C1546 1.363 . S
C1547 C1550 1.363 . S
N1548 C1550 1.356 . S
N1548 H1560 0.984 . S
N1548 H1561 0.985 . S
N1549 C1551 1.356 . S
N1549 H1554 0.984 . S
N1549 H1555 0.985 . S
C1550 C1544 1.379 . S
C1550 C1547 1.363 . S
C1550 N1548 1.356 . S
C1551 C1545 1.363 . S
C1551 C1546 1.379 . S
C1551 N1549 1.356 . S
N1552 C1544 1.356 . S
N1552 H1558 0.984 . S
N1552 H1559 0.984 . S
N1553 C1546 1.356 . S
N1553 H1556 0.984 . S
N1553 H1557 0.985 . S
H1554 N1549 0.984 . S
H1555 N1549 0.985 . S
H1556 N1553 0.984 . S
H1557 N1553 0.985 . S
H1558 N1552 0.984 . S
H1559 N1552 0.984 . S
H1560 N1548 0.984 . S
H1561 N1548 0.985 . S
C1562 C1563 1.363 . S
C1562 C1568 1.379 . S
C1562 N1570 1.356 . S
C1563 C1562 1.363 . S
C1563 C1569 1.363 . S
C1564 C1565 1.363 . S
C1564 C1569 1.379 . S
C1564 N1571 1.356 . S
C1565 C1564 1.363 . S
C1565 C1568 1.363 . S
N1566 C1568 1.356 . S
N1566 H1578 0.984 . S
N1566 H1579 0.985 . S
N1567 C1569 1.356 . S
N1567 H1572 0.984 . S
N1567 H1573 0.985 . S
C1568 C1562 1.379 . S
C1568 C1565 1.363 . S
C1568 N1566 1.356 . S
C1569 C1563 1.363 . S
C1569 C1564 1.379 . S
C1569 N1567 1.356 . S
N1570 C1562 1.356 . S
N1570 H1576 0.984 . S
N1570 H1577 0.984 . S
N1571 C1564 1.356 . S
N1571 H1574 0.984 . S
N1571 H1575 1.004 . S
H1572 N1567 0.984 . S
H1573 N1567 0.985 . S
H1574 N1571 0.984 . S
H1575 N1571 1.004 . S
H1576 N1570 0.984 . S
H1577 N1570 0.984 . S
H1578 N1566 0.984 . S
H1579 N1566 0.985 . S
C1580 C1581 1.363 . S
C1580 C1586 1.379 . S
C1580 N1588 1.356 . S
C1581 C1580 1.363 . S
C1581 C1587 1.363 . S
C1582 C1583 1.363 . S
C1582 C1587 1.379 . S
C1582 N1589 1.356 . S
C1583 C1582 1.363 . S
C1583 C1586 1.363 . S
N1584 C1586 1.356 . S
N1584 H1596 0.984 . S
N1584 H1597 0.985 . S
N1585 C1587 1.356 . S
N1585 H1590 0.984 . S
N1585 H1591 0.985 . S
C1586 C1580 1.379 . S
C1586 C1583 1.363 . S
C1586 N1584 1.356 . S
C1587 C1581 1.363 . S
C1587 C1582 1.379 . S
C1587 N1585 1.356 . S
N1588 C1580 1.356 . S
N1588 H1594 0.984 . S
N1588 H1595 0.984 . S
N1589 C1582 1.356 . S
N1589 H1592 0.984 . S
N1589 H1593 0.985 . S
H1590 N1585 0.984 . S
H1591 N1585 0.985 . S
H1592 N1589 0.984 . S
H1593 N1589 0.985 . S
H1594 N1588 0.984 . S
H1595 N1588 0.984 . S
H1596 N1584 0.984 . S
H1597 N1584 0.985 . S
C1598 C1599 1.363 . S
C1598 C1604 1.379 . S
C1598 N1606 1.356 . S
C1599 C1598 1.363 . S
C1599 C1605 1.363 . S
C1600 C1601 1.363 . S
C1600 C1605 1.379 . S
C1600 N1607 1.356 . S
C1601 C1600 1.363 . S
C1601 C1604 1.363 . S
N1602 C1604 1.356 . S
N1602 H1614 0.984 . S
N1602 H1615 0.985 . S
N1603 C1605 1.356 . S
N1603 H1608 0.984 . S
N1603 H1609 0.985 . S
C1604 C1598 1.379 . S
C1604 C1601 1.363 . S
C1604 N1602 1.356 . S
C1605 C1599 1.363 . S
C1605 C1600 1.379 . S
C1605 N1603 1.356 . S
N1606 C1598 1.356 . S
N1606 H1612 0.984 . S
N1606 H1613 0.984 . S
N1607 C1600 1.356 . S
N1607 H1610 0.984 . S
N1607 H1611 0.985 . S
H1608 N1603 0.984 . S
H1609 N1603 0.985 . S
H1610 N1607 0.984 . S
H1611 N1607 0.985 . S
H1612 N1606 0.984 . S
H1613 N1606 0.984 . S
H1614 N1602 0.984 . S
H1615 N1602 0.985 . S
C1616 C1617 1.363 . S
C1616 C1622 1.379 . S
C1616 N1624 1.356 . S
C1617 C1616 1.363 . S
C1617 C1623 1.363 . S
C1618 C1619 1.363 . S
C1618 C1623 1.379 . S
C1618 N1625 1.356 1_455 S
C1619 C1618 1.363 . S
C1619 C1622 1.363 . S
N1620 C1622 1.356 . S
N1620 H1632 0.984 . S
N1620 H1633 0.985 . S
N1621 C1623 1.356 . S
N1621 H1626 0.984 . S
N1621 H1627 0.985 . S
C1622 C1616 1.379 . S
C1622 C1619 1.363 . S
C1622 N1620 1.356 . S
C1623 C1617 1.363 . S
C1623 C1618 1.379 . S
C1623 N1621 1.356 . S
N1624 C1616 1.356 . S
N1624 H1630 0.984 . S
N1624 H1631 0.984 . S
N1625 C1618 1.356 1_655 S
N1625 H1628 0.984 . S
N1625 H1629 0.985 . S
H1626 N1621 0.984 . S
H1627 N1621 0.985 . S
H1628 N1625 0.984 . S
H1629 N1625 0.985 . S
H1630 N1624 0.984 . S
H1631 N1624 0.984 . S
H1632 N1620 0.984 . S
H1633 N1620 0.985 . S
C1634 C1635 1.363 . S
C1634 C1640 1.379 . S
C1634 N1642 1.356 . S
C1635 C1634 1.363 . S
C1635 C1641 1.363 . S
C1636 C1637 1.363 . S
C1636 C1641 1.379 . S
C1636 N1643 1.356 . S
C1637 C1636 1.363 . S
C1637 C1640 1.363 . S
N1638 C1640 1.356 . S
N1638 H1650 0.984 . S
N1638 H1651 0.985 . S
N1639 C1641 1.356 . S
N1639 H1644 0.984 . S
N1639 H1645 0.985 . S
C1640 C1634 1.379 . S
C1640 C1637 1.363 . S
C1640 N1638 1.356 . S
C1641 C1635 1.363 . S
C1641 C1636 1.379 . S
C1641 N1639 1.356 . S
N1642 C1634 1.356 . S
N1642 H1648 0.984 . S
N1642 H1649 0.984 . S
N1643 C1636 1.356 . S
N1643 H1646 0.984 . S
N1643 H1647 0.985 . S
H1644 N1639 0.984 . S
H1645 N1639 0.985 . S
H1646 N1643 0.984 . S
H1647 N1643 0.985 . S
H1648 N1642 0.984 . S
H1649 N1642 0.984 . S
H1650 N1638 0.984 . S
H1651 N1638 0.985 . S
C1652 C1653 1.363 . S
C1652 C1658 1.379 . S
C1652 N1660 1.356 . S
C1653 C1652 1.363 . S
C1653 C1659 1.363 . S
C1654 C1655 1.363 . S
C1654 C1659 1.379 . S
C1654 N1661 1.356 . S
C1655 C1654 1.363 . S
C1655 C1658 1.363 . S
N1656 C1658 1.356 . S
N1656 H1668 0.984 . S
N1656 H1669 0.985 . S
N1657 C1659 1.356 . S
N1657 H1662 0.984 . S
N1657 H1663 0.985 . S
C1658 C1652 1.379 . S
C1658 C1655 1.363 . S
C1658 N1656 1.356 . S
C1659 C1653 1.363 . S
C1659 C1654 1.379 . S
C1659 N1657 1.356 . S
N1660 C1652 1.356 . S
N1660 H1666 0.984 . S
N1660 H1667 0.984 . S
N1661 C1654 1.356 . S
N1661 H1664 0.984 . S
N1661 H1665 0.985 . S
H1662 N1657 0.984 . S
H1663 N1657 0.985 . S
H1664 N1661 0.984 . S
H1665 N1661 0.985 . S
H1666 N1660 0.984 . S
H1667 N1660 0.984 . S
H1668 N1656 0.984 . S
H1669 N1656 0.985 . S
C1670 C1671 1.363 . S
C1670 C1676 1.379 . S
C1670 N1678 1.356 . S
C1671 C1670 1.363 . S
C1671 C1677 1.363 . S
C1672 C1673 1.363 . S
C1672 C1677 1.379 . S
C1672 N1679 1.356 . S
C1673 C1672 1.363 . S
C1673 C1676 1.363 . S
N1674 C1676 1.356 . S
N1674 H1686 0.984 . S
N1674 H1687 0.985 . S
N1675 C1677 1.356 . S
N1675 H1680 0.984 . S
N1675 H1681 0.985 . S
C1676 C1670 1.379 . S
C1676 C1673 1.363 . S
C1676 N1674 1.356 . S
C1677 C1671 1.363 . S
C1677 C1672 1.379 . S
C1677 N1675 1.356 . S
N1678 C1670 1.356 . S
N1678 H1684 0.984 . S
N1678 H1685 0.984 . S
N1679 C1672 1.356 . S
N1679 H1682 0.984 . S
N1679 H1683 0.985 . S
H1680 N1675 0.984 . S
H1681 N1675 0.985 . S
H1682 N1679 0.984 . S
H1683 N1679 0.985 . S
H1684 N1678 0.984 . S
H1685 N1678 0.984 . S
H1686 N1674 0.984 . S
H1687 N1674 0.985 . S
C1688 C1689 1.363 . S
C1688 C1694 1.379 . S
C1688 N1696 1.356 . S
C1689 C1688 1.363 . S
C1689 C1695 1.363 . S
C1690 C1691 1.367 . S
C1690 C1695 1.381 . S
C1690 N1697 1.351 1_455 S
C1691 C1690 1.367 . S
C1691 C1694 1.363 . S
N1692 C1694 1.356 . S
N1692 H1704 0.984 . S
N1692 H1705 0.985 . S
N1693 C1695 1.356 . S
N1693 H1698 0.984 . S
N1693 H1699 0.985 1_455 S
C1694 C1688 1.379 . S
C1694 C1691 1.363 . S
C1694 N1692 1.356 . S
C1695 C1689 1.363 . S
C1695 C1690 1.381 . S
C1695 N1693 1.356 . S
N1696 C1688 1.356 . S
N1696 H1702 0.984 . S
N1696 H1703 0.984 . S
N1697 C1690 1.351 1_655 S
N1697 H1700 0.984 . S
N1697 H1701 0.985 . S
H1698 N1693 0.984 . S
H1699 N1693 0.985 1_655 S
H1700 N1697 0.984 . S
H1701 N1697 0.985 . S
H1702 N1696 0.984 . S
H1703 N1696 0.984 . S
H1704 N1692 0.984 . S
H1705 N1692 0.985 . S
C1706 C1707 1.363 . S
C1706 C1712 1.379 . S
C1706 N1714 1.356 . S
C1707 C1706 1.363 . S
C1707 C1713 1.363 . S
C1708 C1709 1.363 . S
C1708 C1713 1.379 . S
C1708 N1715 1.356 . S
C1709 C1708 1.363 . S
C1709 C1712 1.363 . S
N1710 C1712 1.356 . S
N1710 H1722 0.984 . S
N1710 H1723 0.985 . S
N1711 C1713 1.356 . S
N1711 H1716 0.984 . S
N1711 H1717 0.985 . S
C1712 C1706 1.379 . S
C1712 C1709 1.363 . S
C1712 N1710 1.356 . S
C1713 C1707 1.363 . S
C1713 C1708 1.379 . S
C1713 N1711 1.356 . S
N1714 C1706 1.356 . S
N1714 H1720 0.984 . S
N1714 H1721 0.984 . S
N1715 C1708 1.356 . S
N1715 H1718 0.984 . S
N1715 H1719 0.985 . S
H1716 N1711 0.984 . S
H1717 N1711 0.985 . S
H1718 N1715 0.984 . S
H1719 N1715 0.985 . S
H1720 N1714 0.984 . S
H1721 N1714 0.984 . S
H1722 N1710 0.984 . S
H1723 N1710 0.985 . S
C1724 C1725 1.363 . S
C1724 C1730 1.379 1_556 S
C1724 N1732 1.356 . S
C1725 C1724 1.363 . S
C1725 C1731 1.363 . S
C1726 C1727 1.363 . S
C1726 C1731 1.379 . S
C1726 N1733 1.356 . S
C1727 C1726 1.363 . S
C1727 C1730 1.363 1_556 S
N1728 C1730 1.356 . S
N1728 H1740 0.984 . S
N1728 H1741 0.985 . S
N1729 C1731 1.356 . S
N1729 H1734 0.984 . S
N1729 H1735 0.985 . S
C1730 C1724 1.379 1_554 S
C1730 C1727 1.363 1_554 S
C1730 N1728 1.356 . S
C1731 C1725 1.363 . S
C1731 C1726 1.379 . S
C1731 N1729 1.356 . S
N1732 C1724 1.356 . S
N1732 H1738 0.989 . S
N1732 H1739 0.984 . S
N1733 C1726 1.356 . S
N1733 H1736 0.984 . S
N1733 H1737 0.985 . S
H1734 N1729 0.984 . S
H1735 N1729 0.985 . S
H1736 N1733 0.984 . S
H1737 N1733 0.985 . S
H1738 N1732 0.989 . S
H1739 N1732 0.984 . S
H1740 N1728 0.984 . S
H1741 N1728 0.985 . S
C1742 C1743 1.363 . S
C1742 C1748 1.379 . S
C1742 N1750 1.356 . S
C1743 C1742 1.363 . S
C1743 C1749 1.363 . S
C1744 C1745 1.363 . S
C1744 C1749 1.379 . S
C1744 N1751 1.356 . S
C1745 C1744 1.363 . S
C1745 C1748 1.363 . S
N1746 C1748 1.356 . S
N1746 H1758 0.984 . S
N1746 H1759 0.985 . S
N1747 C1749 1.356 . S
N1747 H1752 0.984 . S
N1747 H1753 0.985 . S
C1748 C1742 1.379 . S
C1748 C1745 1.363 . S
C1748 N1746 1.356 . S
C1749 C1743 1.363 . S
C1749 C1744 1.379 . S
C1749 N1747 1.356 . S
N1750 C1742 1.356 . S
N1750 H1756 0.984 . S
N1750 H1757 0.984 . S
N1751 C1744 1.356 . S
N1751 H1754 0.984 . S
N1751 H1755 0.985 . S
H1752 N1747 0.984 . S
H1753 N1747 0.985 . S
H1754 N1751 0.984 . S
H1755 N1751 0.985 . S
H1756 N1750 0.984 . S
H1757 N1750 0.984 . S
H1758 N1746 0.984 . S
H1759 N1746 0.985 . S
C1760 C1761 1.363 . S
C1760 C1766 1.379 . S
C1760 N1768 1.356 . S
C1761 C1760 1.363 . S
C1761 C1767 1.363 1_545 S
C1762 C1763 1.363 . S
C1762 C1767 1.379 . S
C1762 N1769 1.356 . S
C1763 C1762 1.363 . S
C1763 C1766 1.363 1_565 S
N1764 C1766 1.356 . S
N1764 H1776 0.984 . S
N1764 H1777 0.985 . S
N1765 C1767 1.356 . S
N1765 H1770 0.984 . S
N1765 H1771 0.985 . S
C1766 C1760 1.379 . S
C1766 C1763 1.363 1_545 S
C1766 N1764 1.356 . S
C1767 C1761 1.363 1_565 S
C1767 C1762 1.379 . S
C1767 N1765 1.356 . S
N1768 C1760 1.356 . S
N1768 H1774 0.984 . S
N1768 H1775 0.984 . S
N1769 C1762 1.356 . S
N1769 H1772 0.984 . S
N1769 H1773 0.985 . S
H1770 N1765 0.984 . S
H1771 N1765 0.985 . S
H1772 N1769 0.984 . S
H1773 N1769 0.985 . S
H1774 N1768 0.984 . S
H1775 N1768 0.984 . S
H1776 N1764 0.984 . S
H1777 N1764 0.985 . S
C1778 C1779 1.363 . S
C1778 C1784 1.379 . S
C1778 N1786 1.356 . S
C1779 C1778 1.363 . S
C1779 C1785 1.363 . S
C1780 C1781 1.363 . S
C1780 C1785 1.379 . S
C1780 N1787 1.356 . S
C1781 C1780 1.363 . S
C1781 C1784 1.363 . S
N1782 C1784 1.356 . S
N1782 H1794 0.984 . S
N1782 H1795 0.985 . S
N1783 C1785 1.356 . S
N1783 H1788 0.984 . S
N1783 H1789 0.985 . S
C1784 C1778 1.379 . S
C1784 C1781 1.363 . S
C1784 N1782 1.356 . S
C1785 C1779 1.363 . S
C1785 C1780 1.379 . S
C1785 N1783 1.356 . S
N1786 C1778 1.356 . S
N1786 H1792 0.984 . S
N1786 H1793 0.984 . S
N1787 C1780 1.356 . S
N1787 H1790 0.984 . S
N1787 H1791 0.985 . S
H1788 N1783 0.984 . S
H1789 N1783 0.985 . S
H1790 N1787 0.984 . S
H1791 N1787 0.985 . S
H1792 N1786 0.984 . S
H1793 N1786 0.984 . S
H1794 N1782 0.984 . S
H1795 N1782 0.985 . S
C1796 C1797 1.363 . S
C1796 C1802 1.379 . S
C1796 N1804 1.356 1_545 S
C1797 C1796 1.363 . S
C1797 C1803 1.363 . S
C1798 C1799 1.363 . S
C1798 C1803 1.379 . S
C1798 N1805 1.356 . S
C1799 C1798 1.363 . S
C1799 C1802 1.363 . S
N1800 C1802 1.356 1_565 S
N1800 H1812 0.984 . S
N1800 H1813 0.985 . S
N1801 C1803 1.356 . S
N1801 H1806 0.984 . S
N1801 H1807 0.985 . S
C1802 C1796 1.379 . S
C1802 C1799 1.363 . S
C1802 N1800 1.356 1_545 S
C1803 C1797 1.363 . S
C1803 C1798 1.379 . S
C1803 N1801 1.356 . S
N1804 C1796 1.356 1_565 S
N1804 H1810 0.984 . S
N1804 H1811 0.984 . S
N1805 C1798 1.356 . S
N1805 H1808 0.984 . S
N1805 H1809 0.985 . S
H1806 N1801 0.984 . S
H1807 N1801 0.985 . S
H1808 N1805 0.984 . S
H1809 N1805 0.985 . S
H1810 N1804 0.984 . S
H1811 N1804 0.984 . S
H1812 N1800 0.984 . S
H1813 N1800 0.985 . S
C1814 C1815 1.363 . S
C1814 C1820 1.379 . S
C1814 N1822 1.356 . S
C1815 C1814 1.363 . S
C1815 C1821 1.363 . S
C1816 C1817 1.363 . S
C1816 C1821 1.379 . S
C1816 N1823 1.356 . S
C1817 C1816 1.363 . S
C1817 C1820 1.363 . S
N1818 C1820 1.356 . S
N1818 H1830 0.984 . S
N1818 H1831 0.985 . S
N1819 C1821 1.356 . S
N1819 H1824 0.984 . S
N1819 H1825 0.985 . S
C1820 C1814 1.379 . S
C1820 C1817 1.363 . S
C1820 N1818 1.356 . S
C1821 C1815 1.363 . S
C1821 C1816 1.379 . S
C1821 N1819 1.356 . S
N1822 C1814 1.356 . S
N1822 H1828 0.984 . S
N1822 H1829 0.984 . S
N1823 C1816 1.356 . S
N1823 H1826 0.984 . S
N1823 H1827 0.985 . S
H1824 N1819 0.984 . S
H1825 N1819 0.985 . S
H1826 N1823 0.984 . S
H1827 N1823 0.985 . S
H1828 N1822 0.984 . S
H1829 N1822 0.984 . S
H1830 N1818 0.984 . S
H1831 N1818 0.985 . S
C1832 C1833 1.363 1_565 S
C1832 C1838 1.379 . S
C1832 N1840 1.356 . S
C1833 C1832 1.363 1_545 S
C1833 C1839 1.363 . S
C1834 C1835 1.363 . S
C1834 C1839 1.379 . S
C1834 N1841 1.356 . S
C1835 C1834 1.363 . S
C1835 C1838 1.363 1_545 S
N1836 C1838 1.356 . S
N1836 H1848 0.984 . S
N1836 H1849 0.985 . S
N1837 C1839 1.356 . S
N1837 H1842 0.984 . S
N1837 H1843 0.985 . S
C1838 C1832 1.379 . S
C1838 C1835 1.363 1_565 S
C1838 N1836 1.356 . S
C1839 C1833 1.363 . S
C1839 C1834 1.379 . S
C1839 N1837 1.356 . S
N1840 C1832 1.356 . S
N1840 H1846 0.984 . S
N1840 H1847 0.984 . S
N1841 C1834 1.356 . S
N1841 H1844 0.984 . S
N1841 H1845 0.985 . S
H1842 N1837 0.984 . S
H1843 N1837 0.985 . S
H1844 N1841 0.984 . S
H1845 N1841 0.985 . S
H1846 N1840 0.984 . S
H1847 N1840 0.984 . S
H1848 N1836 0.984 . S
H1849 N1836 0.985 . S
C1850 C1851 1.363 . S
C1850 C1856 1.379 . S
C1850 N1858 1.356 . S
C1851 C1850 1.363 . S
C1851 C1857 1.363 . S
C1852 C1853 1.363 . S
C1852 C1857 1.379 . S
C1852 N1859 1.356 . S
C1853 C1852 1.363 . S
C1853 C1856 1.363 . S
N1854 C1856 1.356 . S
N1854 H1866 0.984 . S
N1854 H1867 0.985 . S
N1855 C1857 1.356 . S
N1855 H1860 0.984 . S
N1855 H1861 0.985 . S
C1856 C1850 1.379 . S
C1856 C1853 1.363 . S
C1856 N1854 1.356 . S
C1857 C1851 1.363 . S
C1857 C1852 1.379 . S
C1857 N1855 1.356 . S
N1858 C1850 1.356 . S
N1858 H1864 0.984 . S
N1858 H1865 0.984 . S
N1859 C1852 1.356 . S
N1859 H1862 0.984 . S
N1859 H1863 0.985 . S
H1860 N1855 0.984 . S
H1861 N1855 0.985 . S
H1862 N1859 0.984 . S
H1863 N1859 0.985 . S
H1864 N1858 0.984 . S
H1865 N1858 0.984 . S
H1866 N1854 0.984 . S
H1867 N1854 0.985 . S
C1868 C1869 1.363 . S
C1868 C1874 1.379 . S
C1868 N1876 1.356 . S
C1869 C1868 1.363 . S
C1869 C1875 1.363 1_545 S
C1870 C1871 1.363 1_565 S
C1870 C1875 1.379 . S
C1870 N1877 1.356 . S
C1871 C1870 1.363 1_545 S
C1871 C1874 1.363 . S
N1872 C1874 1.356 . S
N1872 H1884 0.984 . S
N1872 H1885 0.985 . S
N1873 C1875 1.356 . S
N1873 H1878 0.984 1_565 S
N1873 H1879 0.985 . S
C1874 C1868 1.379 . S
C1874 C1871 1.363 . S
C1874 N1872 1.356 . S
C1875 C1869 1.363 1_565 S
C1875 C1870 1.379 . S
C1875 N1873 1.356 . S
N1876 C1868 1.356 . S
N1876 H1882 0.984 . S
N1876 H1883 0.984 . S
N1877 C1870 1.356 . S
N1877 H1880 0.984 . S
N1877 H1881 0.985 . S
H1878 N1873 0.984 1_545 S
H1879 N1873 0.985 . S
H1880 N1877 0.984 . S
H1881 N1877 0.985 . S
H1882 N1876 0.984 . S
H1883 N1876 0.984 . S
H1884 N1872 0.984 . S
H1885 N1872 0.985 . S
C1886 C1887 1.363 . S
C1886 C1892 1.379 . S
C1886 N1894 1.356 . S
C1887 C1886 1.363 . S
C1887 C1893 1.363 . S
C1888 C1889 1.363 . S
C1888 C1893 1.379 . S
C1888 N1895 1.356 . S
C1889 C1888 1.363 . S
C1889 C1892 1.363 . S
N1890 C1892 1.356 . S
N1890 H1902 0.984 . S
N1890 H1903 0.985 . S
N1891 C1893 1.356 . S
N1891 H1896 0.984 . S
N1891 H1897 0.985 . S
C1892 C1886 1.379 . S
C1892 C1889 1.363 . S
C1892 N1890 1.356 . S
C1893 C1887 1.363 . S
C1893 C1888 1.379 . S
C1893 N1891 1.356 . S
N1894 C1886 1.356 . S
N1894 H1900 0.984 . S
N1894 H1901 0.984 . S
N1895 C1888 1.356 . S
N1895 H1898 0.984 . S
N1895 H1899 0.985 . S
H1896 N1891 0.984 . S
H1897 N1891 0.985 . S
H1898 N1895 0.984 . S
H1899 N1895 0.985 . S
H1900 N1894 0.984 . S
H1901 N1894 0.984 . S
H1902 N1890 0.984 . S
H1903 N1890 0.985 . S
C1904 C1905 1.363 1_556 S
C1904 C1910 1.379 . S
C1904 N1912 1.356 . S
C1905 C1904 1.363 1_554 S
C1905 C1911 1.363 . S
C1906 C1907 1.363 . S
C1906 C1911 1.379 . S
C1906 N1913 1.356 . S
C1907 C1906 1.363 . S
C1907 C1910 1.363 1_554 S
N1908 C1910 1.356 . S
N1908 H1920 0.984 . S
N1908 H1921 0.985 . S
N1909 C1911 1.356 . S
N1909 H1914 0.984 . S
N1909 H1915 0.985 . S
C1910 C1904 1.379 . S
C1910 C1907 1.363 1_556 S
C1910 N1908 1.356 . S
C1911 C1905 1.363 . S
C1911 C1906 1.379 . S
C1911 N1909 1.356 . S
N1912 C1904 1.356 . S
N1912 H1918 0.984 . S
N1912 H1919 0.984 1_556 S
N1913 C1906 1.356 . S
N1913 H1916 0.984 . S
N1913 H1917 0.985 . S
H1914 N1909 0.984 . S
H1915 N1909 0.985 . S
H1916 N1913 0.984 . S
H1917 N1913 0.985 . S
H1918 N1912 0.984 . S
H1919 N1912 0.984 1_554 S
H1920 N1908 0.984 . S
H1921 N1908 0.985 . S
C1922 C1923 1.363 . S
C1922 C1928 1.379 . S
C1922 N1930 1.356 . S
C1923 C1922 1.363 . S
C1923 C1929 1.363 . S
C1924 C1925 1.363 . S
C1924 C1929 1.379 . S
C1924 N1931 1.356 1_554 S
C1925 C1924 1.363 . S
C1925 C1928 1.363 . S
N1926 C1928 1.356 . S
N1926 H1938 0.984 . S
N1926 H1939 0.985 . S
N1927 C1929 1.356 . S
N1927 H1932 0.984 . S
N1927 H1933 0.985 1_554 S
C1928 C1922 1.379 . S
C1928 C1925 1.363 . S
C1928 N1926 1.356 . S
C1929 C1923 1.363 . S
C1929 C1924 1.379 . S
C1929 N1927 1.356 . S
N1930 C1922 1.356 . S
N1930 H1936 0.984 . S
N1930 H1937 0.984 . S
N1931 C1924 1.356 1_556 S
N1931 H1934 0.985 1_556 S
N1931 H1935 0.985 . S
H1932 N1927 0.984 . S
H1933 N1927 0.985 1_556 S
H1934 N1931 0.985 1_554 S
H1935 N1931 0.985 . S
H1936 N1930 0.984 . S
H1937 N1930 0.984 . S
H1938 N1926 0.984 . S
H1939 N1926 0.985 . S
C1940 C1941 1.363 . S
C1940 C1946 1.379 . S
C1940 N1948 1.356 . S
C1941 C1940 1.363 . S
C1941 C1947 1.363 . S
C1942 C1943 1.363 . S
C1942 C1947 1.379 . S
C1942 N1949 1.356 . S
C1943 C1942 1.363 . S
C1943 C1946 1.363 . S
N1944 C1946 1.356 . S
N1944 H1956 0.984 . S
N1944 H1957 0.985 . S
N1945 C1947 1.356 . S
N1945 H1950 0.984 . S
N1945 H1951 0.985 . S
C1946 C1940 1.379 . S
C1946 C1943 1.363 . S
C1946 N1944 1.356 . S
C1947 C1941 1.363 . S
C1947 C1942 1.379 . S
C1947 N1945 1.356 . S
N1948 C1940 1.356 . S
N1948 H1954 0.984 . S
N1948 H1955 0.984 . S
N1949 C1942 1.356 . S
N1949 H1952 0.984 . S
N1949 H1953 0.985 . S
H1950 N1945 0.984 . S
H1951 N1945 0.985 . S
H1952 N1949 0.984 . S
H1953 N1949 0.985 . S
H1954 N1948 0.984 . S
H1955 N1948 0.984 . S
H1956 N1944 0.984 . S
H1957 N1944 0.985 . S
C1958 C1959 1.363 . S
C1958 C1964 1.379 . S
C1958 N1966 1.356 . S
C1959 C1958 1.363 . S
C1959 C1965 1.363 . S
C1960 C1961 1.363 . S
C1960 C1965 1.379 . S
C1960 N1967 1.356 . S
C1961 C1960 1.363 . S
C1961 C1964 1.363 . S
N1962 C1964 1.356 . S
N1962 H1974 0.984 . S
N1962 H1975 0.985 . S
N1963 C1965 1.356 . S
N1963 H1968 0.984 . S
N1963 H1969 0.985 . S
C1964 C1958 1.379 . S
C1964 C1961 1.363 . S
C1964 N1962 1.356 . S
C1965 C1959 1.363 . S
C1965 C1960 1.379 . S
C1965 N1963 1.356 . S
N1966 C1958 1.356 . S
N1966 H1972 0.984 . S
N1966 H1973 0.984 . S
N1967 C1960 1.356 . S
N1967 H1970 0.984 . S
N1967 H1971 0.985 . S
H1968 N1963 0.984 . S
H1969 N1963 0.985 . S
H1970 N1967 0.984 . S
H1971 N1967 0.985 . S
H1972 N1966 0.984 . S
H1973 N1966 0.984 . S
H1974 N1962 0.984 . S
H1975 N1962 0.985 . S
C1976 C1977 1.363 . S
C1976 C1982 1.379 . S
C1976 N1984 1.356 . S
C1977 C1976 1.363 . S
C1977 C1983 1.363 . S
C1978 C1979 1.363 . S
C1978 C1983 1.379 . S
C1978 N1985 1.356 . S
C1979 C1978 1.363 . S
C1979 C1982 1.363 . S
N1980 C1982 1.356 . S
N1980 H1992 0.984 . S
N1980 H1993 0.985 . S
N1981 C1983 1.356 . S
N1981 H1986 0.984 . S
N1981 H1987 0.985 . S
C1982 C1976 1.379 . S
C1982 C1979 1.363 . S
C1982 N1980 1.356 . S
C1983 C1977 1.363 . S
C1983 C1978 1.379 . S
C1983 N1981 1.356 . S
N1984 C1976 1.356 . S
N1984 H1990 0.984 . S
N1984 H1991 0.984 . S
N1985 C1978 1.356 . S
N1985 H1988 0.984 . S
N1985 H1989 0.985 . S
H1986 N1981 0.984 . S
H1987 N1981 0.985 . S
H1988 N1985 0.984 . S
H1989 N1985 0.985 . S
H1990 N1984 0.984 . S
H1991 N1984 0.984 . S
H1992 N1980 0.984 . S
H1993 N1980 0.985 . S
C1994 C1995 1.363 . S
C1994 C2000 1.379 . S
C1994 N2002 1.356 . S
C1995 C1994 1.363 . S
C1995 C2001 1.363 . S
C1996 C1997 1.363 . S
C1996 C2001 1.379 . S
C1996 N2003 1.356 . S
C1997 C1996 1.363 . S
C1997 C2000 1.363 . S
N1998 C2000 1.356 . S
N1998 H2010 0.984 . S
N1998 H2011 0.985 . S
N1999 C2001 1.356 . S
N1999 H2004 0.984 . S
N1999 H2005 0.985 . S
C2000 C1994 1.379 . S
C2000 C1997 1.363 . S
C2000 N1998 1.356 . S
C2001 C1995 1.363 . S
C2001 C1996 1.379 . S
C2001 N1999 1.356 . S
N2002 C1994 1.356 . S
N2002 H2008 0.984 . S
N2002 H2009 0.984 . S
N2003 C1996 1.356 . S
N2003 H2006 0.984 . S
N2003 H2007 0.985 . S
H2004 N1999 0.984 . S
H2005 N1999 0.985 . S
H2006 N2003 0.984 . S
H2007 N2003 0.985 . S
H2008 N2002 0.984 . S
H2009 N2002 0.984 . S
H2010 N1998 0.984 . S
H2011 N1998 0.985 . S
C2012 C2013 1.363 . S
C2012 C2018 1.379 . S
C2012 N2020 1.356 . S
C2013 C2012 1.363 . S
C2013 C2019 1.363 . S
C2014 C2015 1.363 . S
C2014 C2019 1.379 . S
C2014 N2021 1.356 . S
C2015 C2014 1.363 . S
C2015 C2018 1.363 . S
N2016 C2018 1.356 . S
N2016 H2028 0.984 . S
N2016 H2029 0.985 . S
N2017 C2019 1.356 . S
N2017 H2022 0.984 . S
N2017 H2023 0.985 . S
C2018 C2012 1.379 . S
C2018 C2015 1.363 . S
C2018 N2016 1.356 . S
C2019 C2013 1.363 . S
C2019 C2014 1.379 . S
C2019 N2017 1.356 . S
N2020 C2012 1.356 . S
N2020 H2026 0.984 . S
N2020 H2027 0.984 . S
N2021 C2014 1.356 . S
N2021 H2024 0.984 . S
N2021 H2025 0.985 . S
H2022 N2017 0.984 . S
H2023 N2017 0.985 . S
H2024 N2021 0.984 . S
H2025 N2021 0.985 . S
H2026 N2020 0.984 . S
H2027 N2020 0.984 . S
H2028 N2016 0.984 . S
H2029 N2016 0.985 . S
C2030 C2031 1.363 . S
C2030 C2036 1.379 . S
C2030 N2038 1.356 . S
C2031 C2030 1.363 . S
C2031 C2037 1.363 . S
C2032 C2033 1.363 . S
C2032 C2037 1.379 . S
C2032 N2039 1.356 . S
C2033 C2032 1.363 . S
C2033 C2036 1.363 . S
N2034 C2036 1.356 . S
N2034 H2046 0.984 . S
N2034 H2047 0.985 . S
N2035 C2037 1.356 . S
N2035 H2040 0.984 . S
N2035 H2041 0.985 . S
C2036 C2030 1.379 . S
C2036 C2033 1.363 . S
C2036 N2034 1.356 . S
C2037 C2031 1.363 . S
C2037 C2032 1.379 . S
C2037 N2035 1.356 . S
N2038 C2030 1.356 . S
N2038 H2044 0.984 . S
N2038 H2045 0.984 . S
N2039 C2032 1.356 . S
N2039 H2042 0.984 . S
N2039 H2043 0.985 . S
H2040 N2035 0.984 . S
H2041 N2035 0.985 . S
H2042 N2039 0.984 . S
H2043 N2039 0.985 . S
H2044 N2038 0.984 . S
H2045 N2038 0.984 . S
H2046 N2034 0.984 . S
H2047 N2034 0.985 . S
C2048 C2049 1.363 . S
C2048 C2054 1.379 . S
C2048 N2056 1.356 . S
C2049 C2048 1.363 . S
C2049 C2055 1.363 . S
C2050 C2051 1.363 . S
C2050 C2055 1.379 . S
C2050 N2057 1.356 . S
C2051 C2050 1.363 . S
C2051 C2054 1.363 . S
N2052 C2054 1.356 . S
N2052 H2064 0.984 . S
N2052 H2065 0.985 . S
N2053 C2055 1.356 . S
N2053 H2058 0.984 . S
N2053 H2059 0.985 . S
C2054 C2048 1.379 . S
C2054 C2051 1.363 . S
C2054 N2052 1.356 . S
C2055 C2049 1.363 . S
C2055 C2050 1.379 . S
C2055 N2053 1.356 . S
N2056 C2048 1.356 . S
N2056 H2062 0.984 . S
N2056 H2063 0.984 . S
N2057 C2050 1.356 . S
N2057 H2060 0.984 . S
N2057 H2061 0.985 . S
H2058 N2053 0.984 . S
H2059 N2053 0.985 . S
H2060 N2057 0.984 . S
H2061 N2057 0.985 . S
H2062 N2056 0.984 . S
H2063 N2056 0.984 . S
H2064 N2052 0.984 . S
H2065 N2052 0.985 . S
C2066 C2067 1.363 . S
C2066 C2072 1.379 . S
C2066 N2074 1.356 . S
C2067 C2066 1.363 . S
C2067 C2073 1.363 . S
C2068 C2069 1.363 . S
C2068 C2073 1.379 . S
C2068 N2075 1.356 . S
C2069 C2068 1.363 . S
C2069 C2072 1.363 . S
N2070 C2072 1.356 . S
N2070 H2082 0.984 . S
N2070 H2083 0.985 . S
N2071 C2073 1.356 . S
N2071 H2076 0.984 . S
N2071 H2077 0.985 . S
C2072 C2066 1.379 . S
C2072 C2069 1.363 . S
C2072 N2070 1.356 . S
C2073 C2067 1.363 . S
C2073 C2068 1.379 . S
C2073 N2071 1.356 . S
N2074 C2066 1.356 . S
N2074 H2080 0.984 . S
N2074 H2081 0.984 . S
N2075 C2068 1.356 . S
N2075 H2078 0.984 . S
N2075 H2079 0.985 . S
H2076 N2071 0.984 . S
H2077 N2071 0.985 . S
H2078 N2075 0.984 . S
H2079 N2075 0.985 . S
H2080 N2074 0.984 . S
H2081 N2074 0.984 . S
H2082 N2070 0.984 . S
H2083 N2070 0.985 . S
C2084 C2085 1.363 . S
C2084 C2090 1.379 . S
C2084 N2092 1.356 . S
C2085 C2084 1.363 . S
C2085 C2091 1.363 . S
C2086 C2087 1.363 . S
C2086 C2091 1.379 . S
C2086 N2093 1.356 1_456 S
C2087 C2086 1.363 . S
C2087 C2090 1.363 . S
N2088 C2090 1.356 . S
N2088 H2100 0.984 . S
N2088 H2101 0.985 . S
N2089 C2091 1.356 1_655 S
N2089 H2094 0.984 . S
N2089 H2095 0.985 . S
C2090 C2084 1.379 . S
C2090 C2087 1.363 . S
C2090 N2088 1.356 . S
C2091 C2085 1.363 . S
C2091 C2086 1.379 . S
C2091 N2089 1.356 1_455 S
N2092 C2084 1.356 . S
N2092 H2098 0.984 . S
N2092 H2099 0.984 . S
N2093 C2086 1.356 1_654 S
N2093 H2096 0.981 . S
N2093 H2097 0.985 . S
H2094 N2089 0.984 . S
H2095 N2089 0.985 . S
H2096 N2093 0.981 . S
H2097 N2093 0.985 . S
H2098 N2092 0.984 . S
H2099 N2092 0.984 . S
H2100 N2088 0.984 . S
H2101 N2088 0.985 . S
C2102 C2103 1.363 . S
C2102 C2108 1.379 . S
C2102 N2110 1.356 . S
C2103 C2102 1.363 . S
C2103 C2109 1.363 . S
C2104 C2105 1.363 . S
C2104 C2109 1.379 . S
C2104 N2111 1.356 . S
C2105 C2104 1.363 . S
C2105 C2108 1.363 . S
N2106 C2108 1.356 . S
N2106 H2118 0.984 . S
N2106 H2119 0.985 . S
N2107 C2109 1.356 . S
N2107 H2112 0.984 . S
N2107 H2113 0.985 . S
C2108 C2102 1.379 . S
C2108 C2105 1.363 . S
C2108 N2106 1.356 . S
C2109 C2103 1.363 . S
C2109 C2104 1.379 . S
C2109 N2107 1.356 . S
N2110 C2102 1.356 . S
N2110 H2116 0.984 . S
N2110 H2117 0.984 . S
N2111 C2104 1.356 . S
N2111 H2114 0.984 . S
N2111 H2115 0.985 . S
H2112 N2107 0.984 . S
H2113 N2107 0.985 . S
H2114 N2111 0.984 . S
H2115 N2111 0.985 . S
H2116 N2110 0.984 . S
H2117 N2110 0.984 . S
H2118 N2106 0.984 . S
H2119 N2106 0.985 . S
C2120 C2121 1.363 . S
C2120 C2126 1.379 . S
C2120 N2128 1.356 . S
C2121 C2120 1.363 . S
C2121 C2127 1.363 . S
C2122 C2123 1.363 . S
C2122 C2127 1.379 . S
C2122 N2129 1.356 . S
C2123 C2122 1.363 . S
C2123 C2126 1.363 . S
N2124 C2126 1.356 . S
N2124 H2136 0.984 . S
N2124 H2137 0.985 . S
N2125 C2127 1.356 . S
N2125 H2130 0.984 . S
N2125 H2131 0.985 . S
C2126 C2120 1.379 . S
C2126 C2123 1.363 . S
C2126 N2124 1.356 . S
C2127 C2121 1.363 . S
C2127 C2122 1.379 . S
C2127 N2125 1.356 . S
N2128 C2120 1.356 . S
N2128 H2134 0.984 . S
N2128 H2135 0.984 . S
N2129 C2122 1.356 . S
N2129 H2132 0.984 . S
N2129 H2133 0.985 . S
H2130 N2125 0.984 . S
H2131 N2125 0.985 . S
H2132 N2129 0.984 . S
H2133 N2129 0.985 . S
H2134 N2128 0.984 . S
H2135 N2128 0.984 . S
H2136 N2124 0.984 . S
H2137 N2124 0.985 . S
C2138 C2139 1.363 . S
C2138 C2144 1.379 . S
C2138 N2146 1.356 . S
C2139 C2138 1.363 . S
C2139 C2145 1.363 . S
C2140 C2141 1.363 . S
C2140 C2145 1.379 . S
C2140 N2147 1.356 . S
C2141 C2140 1.363 . S
C2141 C2144 1.363 . S
N2142 C2144 1.356 . S
N2142 H2154 0.984 . S
N2142 H2155 0.985 . S
N2143 C2145 1.356 . S
N2143 H2148 0.984 . S
N2143 H2149 0.985 . S
C2144 C2138 1.379 . S
C2144 C2141 1.363 . S
C2144 N2142 1.356 . S
C2145 C2139 1.363 . S
C2145 C2140 1.379 . S
C2145 N2143 1.356 . S
N2146 C2138 1.356 . S
N2146 H2152 0.984 . S
N2146 H2153 0.984 . S
N2147 C2140 1.356 . S
N2147 H2150 0.984 . S
N2147 H2151 0.985 . S
H2148 N2143 0.984 . S
H2149 N2143 0.985 . S
H2150 N2147 0.984 . S
H2151 N2147 0.985 . S
H2152 N2146 0.984 . S
H2153 N2146 0.984 . S
H2154 N2142 0.984 . S
H2155 N2142 0.985 . S
C2156 C2157 1.363 . S
C2156 C2162 1.379 . S
C2156 N2164 1.356 . S
C2157 C2156 1.363 . S
C2157 C2163 1.363 1_455 S
C2158 C2159 1.377 . S
C2158 C2163 1.368 1_455 S
C2158 N2165 1.358 1_455 S
C2159 C2158 1.377 . S
C2159 C2162 1.363 . S
N2160 C2162 1.356 . S
N2160 H2172 0.984 . S
N2160 H2173 0.985 . S
N2161 C2163 1.356 . S
N2161 H2166 0.984 . S
N2161 H2167 0.985 . S
C2162 C2156 1.379 . S
C2162 C2159 1.363 . S
C2162 N2160 1.356 . S
C2163 C2157 1.363 1_655 S
C2163 C2158 1.368 1_655 S
C2163 N2161 1.356 . S
N2164 C2156 1.356 . S
N2164 H2170 0.984 . S
N2164 H2171 0.984 . S
N2165 C2158 1.358 1_655 S
N2165 H2168 0.975 1_655 S
N2165 H2169 0.985 . S
H2166 N2161 0.984 . S
H2167 N2161 0.985 . S
H2168 N2165 0.975 1_455 S
H2169 N2165 0.985 . S
H2170 N2164 0.984 . S
H2171 N2164 0.984 . S
H2172 N2160 0.984 . S
H2173 N2160 0.985 . S
C2174 C2175 1.363 . S
C2174 C2180 1.379 . S
C2174 N2182 1.356 . S
C2175 C2174 1.363 . S
C2175 C2181 1.363 . S
C2176 C2177 1.363 . S
C2176 C2181 1.379 . S
C2176 N2183 1.356 . S
C2177 C2176 1.363 . S
C2177 C2180 1.363 . S
N2178 C2180 1.356 . S
N2178 H2190 0.984 . S
N2178 H2191 0.985 . S
N2179 C2181 1.356 . S
N2179 H2184 0.984 . S
N2179 H2185 0.985 . S
C2180 C2174 1.379 . S
C2180 C2177 1.363 . S
C2180 N2178 1.356 . S
C2181 C2175 1.363 . S
C2181 C2176 1.379 . S
C2181 N2179 1.356 . S
N2182 C2174 1.356 . S
N2182 H2188 0.984 . S
N2182 H2189 0.984 . S
N2183 C2176 1.356 . S
N2183 H2186 0.984 . S
N2183 H2187 0.985 . S
H2184 N2179 0.984 . S
H2185 N2179 0.985 . S
H2186 N2183 0.984 . S
H2187 N2183 0.985 . S
H2188 N2182 0.984 . S
H2189 N2182 0.984 . S
H2190 N2178 0.984 . S
H2191 N2178 0.985 . S
C2192 C2193 1.363 . S
C2192 C2198 1.379 . S
C2192 N2200 1.356 . S
C2193 C2192 1.363 . S
C2193 C2199 1.363 . S
C2194 C2195 1.363 . S
C2194 C2199 1.379 . S
C2194 N2201 1.356 . S
C2195 C2194 1.363 . S
C2195 C2198 1.363 . S
N2196 C2198 1.356 . S
N2196 H2208 0.984 . S
N2196 H2209 0.985 . S
N2197 C2199 1.356 . S
N2197 H2202 0.984 . S
N2197 H2203 0.985 . S
C2198 C2192 1.379 . S
C2198 C2195 1.363 . S
C2198 N2196 1.356 . S
C2199 C2193 1.363 . S
C2199 C2194 1.379 . S
C2199 N2197 1.356 . S
N2200 C2192 1.356 . S
N2200 H2206 0.984 . S
N2200 H2207 0.984 . S
N2201 C2194 1.356 . S
N2201 H2204 0.984 . S
N2201 H2205 0.985 . S
H2202 N2197 0.984 . S
H2203 N2197 0.985 . S
H2204 N2201 0.984 . S
H2205 N2201 0.985 . S
H2206 N2200 0.984 . S
H2207 N2200 0.984 . S
H2208 N2196 0.984 . S
H2209 N2196 0.985 . S
C2210 C2211 1.363 . S
C2210 C2216 1.379 . S
C2210 N2218 1.356 . S
C2211 C2210 1.363 . S
C2211 C2217 1.363 . S
C2212 C2213 1.363 . S
C2212 C2217 1.379 . S
C2212 N2219 1.356 . S
C2213 C2212 1.363 . S
C2213 C2216 1.363 . S
N2214 C2216 1.356 . S
N2214 H2226 0.984 . S
N2214 H2227 0.985 . S
N2215 C2217 1.356 . S
N2215 H2220 0.984 1_556 S
N2215 H2221 0.985 . S
C2216 C2210 1.379 . S
C2216 C2213 1.363 . S
C2216 N2214 1.356 . S
C2217 C2211 1.363 . S
C2217 C2212 1.379 . S
C2217 N2215 1.356 . S
N2218 C2210 1.356 . S
N2218 H2224 0.984 . S
N2218 H2225 0.984 . S
N2219 C2212 1.356 . S
N2219 H2222 0.984 . S
N2219 H2223 0.985 . S
H2220 N2215 0.984 1_554 S
H2221 N2215 0.985 . S
H2222 N2219 0.984 . S
H2223 N2219 0.985 . S
H2224 N2218 0.984 . S
H2225 N2218 0.984 . S
H2226 N2214 0.984 . S
H2227 N2214 0.985 . S
C2228 C2229 1.363 . S
C2228 C2234 1.379 . S
C2228 N2236 1.356 . S
C2229 C2228 1.363 . S
C2229 C2235 1.363 . S
C2230 C2231 1.363 . S
C2230 C2235 1.379 . S
C2230 N2237 1.356 . S
C2231 C2230 1.363 . S
C2231 C2234 1.363 . S
N2232 C2234 1.356 . S
N2232 H2244 0.984 . S
N2232 H2245 0.985 . S
N2233 C2235 1.356 . S
N2233 H2238 0.984 . S
N2233 H2239 0.985 . S
C2234 C2228 1.379 . S
C2234 C2231 1.363 . S
C2234 N2232 1.356 . S
C2235 C2229 1.363 . S
C2235 C2230 1.379 . S
C2235 N2233 1.356 . S
N2236 C2228 1.356 . S
N2236 H2242 0.984 . S
N2236 H2243 0.984 . S
N2237 C2230 1.356 . S
N2237 H2240 0.984 . S
N2237 H2241 0.985 . S
H2238 N2233 0.984 . S
H2239 N2233 0.985 . S
H2240 N2237 0.984 . S
H2241 N2237 0.985 . S
H2242 N2236 0.984 . S
H2243 N2236 0.984 . S
H2244 N2232 0.984 . S
H2245 N2232 0.985 . S
C2246 C2247 1.363 . S
C2246 C2252 1.379 . S
C2246 N2254 1.356 . S
C2247 C2246 1.363 . S
C2247 C2253 1.363 . S
C2248 C2249 1.363 . S
C2248 C2253 1.379 . S
C2248 N2255 1.356 . S
C2249 C2248 1.363 . S
C2249 C2252 1.363 . S
N2250 C2252 1.356 . S
N2250 H2262 0.984 . S
N2250 H2263 0.985 . S
N2251 C2253 1.356 . S
N2251 H2256 0.984 . S
N2251 H2257 0.985 . S
C2252 C2246 1.379 . S
C2252 C2249 1.363 . S
C2252 N2250 1.356 . S
C2253 C2247 1.363 . S
C2253 C2248 1.379 . S
C2253 N2251 1.356 . S
N2254 C2246 1.356 . S
N2254 H2260 0.984 . S
N2254 H2261 0.984 . S
N2255 C2248 1.356 . S
N2255 H2258 0.984 . S
N2255 H2259 0.985 . S
H2256 N2251 0.984 . S
H2257 N2251 0.985 . S
H2258 N2255 0.984 . S
H2259 N2255 0.985 . S
H2260 N2254 0.984 . S
H2261 N2254 0.984 . S
H2262 N2250 0.984 . S
H2263 N2250 0.985 . S
C2264 C2265 1.363 . S
C2264 C2270 1.379 . S
C2264 N2272 1.356 . S
C2265 C2264 1.363 . S
C2265 C2271 1.363 . S
C2266 C2267 1.363 . S
C2266 C2271 1.379 . S
C2266 N2273 1.356 . S
C2267 C2266 1.363 . S
C2267 C2270 1.363 . S
N2268 C2270 1.356 . S
N2268 H2280 0.984 . S
N2268 H2281 0.985 . S
N2269 C2271 1.356 . S
N2269 H2274 0.984 . S
N2269 H2275 0.985 . S
C2270 C2264 1.379 . S
C2270 C2267 1.363 . S
C2270 N2268 1.356 . S
C2271 C2265 1.363 . S
C2271 C2266 1.379 . S
C2271 N2269 1.356 . S
N2272 C2264 1.356 . S
N2272 H2278 0.984 . S
N2272 H2279 0.984 . S
N2273 C2266 1.356 . S
N2273 H2276 0.984 . S
N2273 H2277 0.985 . S
H2274 N2269 0.984 . S
H2275 N2269 0.985 . S
H2276 N2273 0.984 . S
H2277 N2273 0.985 . S
H2278 N2272 0.984 . S
H2279 N2272 0.984 . S
H2280 N2268 0.984 . S
H2281 N2268 0.985 . S
C2282 C2283 1.363 . S
C2282 C2288 1.379 . S
C2282 N2290 1.356 . S
C2283 C2282 1.363 . S
C2283 C2289 1.363 . S
C2284 C2285 1.363 . S
C2284 C2289 1.379 . S
C2284 N2291 1.356 . S
C2285 C2284 1.363 . S
C2285 C2288 1.363 . S
N2286 C2288 1.356 . S
N2286 H2298 0.984 . S
N2286 H2299 0.985 . S
N2287 C2289 1.356 . S
N2287 H2292 0.984 . S
N2287 H2293 0.985 . S
C2288 C2282 1.379 . S
C2288 C2285 1.363 . S
C2288 N2286 1.356 . S
C2289 C2283 1.363 . S
C2289 C2284 1.379 . S
C2289 N2287 1.356 . S
N2290 C2282 1.356 . S
N2290 H2296 0.984 . S
N2290 H2297 0.984 . S
N2291 C2284 1.356 . S
N2291 H2294 0.984 . S
N2291 H2295 0.985 . S
H2292 N2287 0.984 . S
H2293 N2287 0.985 . S
H2294 N2291 0.984 . S
H2295 N2291 0.985 . S
H2296 N2290 0.984 . S
H2297 N2290 0.984 . S
H2298 N2286 0.984 . S
H2299 N2286 0.985 . S
C2300 C2301 1.363 . S
C2300 C2306 1.379 . S
C2300 N2308 1.356 . S
C2301 C2300 1.363 . S
C2301 C2307 1.363 . S
C2302 C2303 1.363 . S
C2302 C2307 1.379 . S
C2302 N2309 1.356 . S
C2303 C2302 1.363 . S
C2303 C2306 1.363 . S
N2304 C2306 1.356 . S
N2304 H2316 0.984 . S
N2304 H2317 0.985 . S
N2305 C2307 1.356 . S
N2305 H2310 0.984 . S
N2305 H2311 0.985 . S
C2306 C2300 1.379 . S
C2306 C2303 1.363 . S
C2306 N2304 1.356 . S
C2307 C2301 1.363 . S
C2307 C2302 1.379 . S
C2307 N2305 1.356 . S
N2308 C2300 1.356 . S
N2308 H2314 0.984 . S
N2308 H2315 0.984 . S
N2309 C2302 1.356 . S
N2309 H2312 0.984 . S
N2309 H2313 0.985 . S
H2310 N2305 0.984 . S
H2311 N2305 0.985 . S
H2312 N2309 0.984 . S
H2313 N2309 0.985 . S
H2314 N2308 0.984 . S
H2315 N2308 0.984 . S
H2316 N2304 0.984 . S
H2317 N2304 0.985 . S
C2318 C2319 1.363 . S
C2318 C2324 1.379 . S
C2318 N2326 1.356 . S
C2319 C2318 1.363 . S
C2319 C2325 1.363 . S
C2320 C2321 1.363 . S
C2320 C2325 1.379 . S
C2320 N2327 1.356 . S
C2321 C2320 1.363 . S
C2321 C2324 1.363 . S
N2322 C2324 1.356 . S
N2322 H2334 0.984 . S
N2322 H2335 0.985 . S
N2323 C2325 1.356 . S
N2323 H2328 0.984 . S
N2323 H2329 0.985 . S
C2324 C2318 1.379 . S
C2324 C2321 1.363 . S
C2324 N2322 1.356 . S
C2325 C2319 1.363 . S
C2325 C2320 1.379 . S
C2325 N2323 1.356 . S
N2326 C2318 1.356 . S
N2326 H2332 0.984 . S
N2326 H2333 0.984 . S
N2327 C2320 1.356 . S
N2327 H2330 0.984 . S
N2327 H2331 0.985 . S
H2328 N2323 0.984 . S
H2329 N2323 0.985 . S
H2330 N2327 0.984 . S
H2331 N2327 0.985 . S
H2332 N2326 0.984 . S
H2333 N2326 0.984 . S
H2334 N2322 0.984 . S
H2335 N2322 0.985 . S
C2336 C2337 1.363 . S
C2336 C2342 1.379 . S
C2336 N2344 1.356 . S
C2337 C2336 1.363 . S
C2337 C2343 1.363 . S
C2338 C2339 1.363 . S
C2338 C2343 1.379 . S
C2338 N2345 1.356 . S
C2339 C2338 1.363 . S
C2339 C2342 1.363 . S
N2340 C2342 1.356 . S
N2340 H2352 0.984 . S
N2340 H2353 0.985 . S
N2341 C2343 1.356 . S
N2341 H2346 0.984 . S
N2341 H2347 0.985 . S
C2342 C2336 1.379 . S
C2342 C2339 1.363 . S
C2342 N2340 1.356 . S
C2343 C2337 1.363 . S
C2343 C2338 1.379 . S
C2343 N2341 1.356 . S
N2344 C2336 1.356 . S
N2344 H2350 0.984 . S
N2344 H2351 0.984 . S
N2345 C2338 1.356 . S
N2345 H2348 0.984 . S
N2345 H2349 0.985 . S
H2346 N2341 0.984 . S
H2347 N2341 0.985 . S
H2348 N2345 0.984 . S
H2349 N2345 0.985 . S
H2350 N2344 0.984 . S
H2351 N2344 0.984 . S
H2352 N2340 0.984 . S
H2353 N2340 0.985 . S
C2354 C2355 1.363 . S
C2354 C2360 1.379 . S
C2354 N2362 1.356 . S
C2355 C2354 1.363 . S
C2355 C2361 1.363 . S
C2356 C2357 1.363 . S
C2356 C2361 1.379 . S
C2356 N2363 1.356 . S
C2357 C2356 1.363 . S
C2357 C2360 1.363 . S
N2358 C2360 1.356 . S
N2358 H2370 0.984 . S
N2358 H2371 0.985 . S
N2359 C2361 1.356 . S
N2359 H2364 0.984 . S
N2359 H2365 0.985 . S
C2360 C2354 1.379 . S
C2360 C2357 1.363 . S
C2360 N2358 1.356 . S
C2361 C2355 1.363 . S
C2361 C2356 1.379 . S
C2361 N2359 1.356 . S
N2362 C2354 1.356 . S
N2362 H2368 0.984 . S
N2362 H2369 0.984 . S
N2363 C2356 1.356 . S
N2363 H2366 0.984 . S
N2363 H2367 0.985 . S
H2364 N2359 0.984 . S
H2365 N2359 0.985 . S
H2366 N2363 0.984 . S
H2367 N2363 0.985 . S
H2368 N2362 0.984 . S
H2369 N2362 0.984 . S
H2370 N2358 0.984 . S
H2371 N2358 0.985 . S
C2372 C2373 1.363 . S
C2372 C2378 1.379 . S
C2372 N2380 1.356 . S
C2373 C2372 1.363 . S
C2373 C2379 1.363 . S
C2374 C2375 1.363 . S
C2374 C2379 1.379 . S
C2374 N2381 1.356 . S
C2375 C2374 1.363 . S
C2375 C2378 1.363 . S
N2376 C2378 1.356 . S
N2376 H2388 0.984 . S
N2376 H2389 0.985 . S
N2377 C2379 1.356 . S
N2377 H2382 0.984 . S
N2377 H2383 0.985 . S
C2378 C2372 1.379 . S
C2378 C2375 1.363 . S
C2378 N2376 1.356 . S
C2379 C2373 1.363 . S
C2379 C2374 1.379 . S
C2379 N2377 1.356 . S
N2380 C2372 1.356 . S
N2380 H2386 0.984 . S
N2380 H2387 0.984 . S
N2381 C2374 1.356 . S
N2381 H2384 0.984 . S
N2381 H2385 0.985 . S
H2382 N2377 0.984 . S
H2383 N2377 0.985 . S
H2384 N2381 0.984 . S
H2385 N2381 0.985 . S
H2386 N2380 0.984 . S
H2387 N2380 0.984 . S
H2388 N2376 0.984 . S
H2389 N2376 0.985 . S
C2390 C2391 1.363 1_556 S
C2390 C2396 1.379 . S
C2390 N2398 1.356 . S
C2391 C2390 1.363 1_554 S
C2391 C2397 1.363 . S
C2392 C2393 1.363 . S
C2392 C2397 1.379 . S
C2392 N2399 1.356 . S
C2393 C2392 1.363 . S
C2393 C2396 1.363 1_554 S
N2394 C2396 1.356 . S
N2394 H2406 0.984 . S
N2394 H2407 0.985 . S
N2395 C2397 1.356 . S
N2395 H2400 0.984 . S
N2395 H2401 0.985 . S
C2396 C2390 1.379 . S
C2396 C2393 1.363 1_556 S
C2396 N2394 1.356 . S
C2397 C2391 1.363 . S
C2397 C2392 1.379 . S
C2397 N2395 1.356 . S
N2398 C2390 1.356 . S
N2398 H2404 0.984 . S
N2398 H2405 0.984 . S
N2399 C2392 1.356 . S
N2399 H2402 0.984 . S
N2399 H2403 0.985 . S
H2400 N2395 0.984 . S
H2401 N2395 0.985 . S
H2402 N2399 0.984 . S
H2403 N2399 0.985 . S
H2404 N2398 0.984 . S
H2405 N2398 0.984 . S
H2406 N2394 0.984 . S
H2407 N2394 0.985 . S
C2408 C2409 1.363 . S
C2408 C2414 1.379 . S
C2408 N2416 1.356 . S
C2409 C2408 1.363 . S
C2409 C2415 1.363 . S
C2410 C2411 1.363 . S
C2410 C2415 1.379 . S
C2410 N2417 1.356 . S
C2411 C2410 1.363 . S
C2411 C2414 1.363 . S
N2412 C2414 1.356 . S
N2412 H2424 0.984 . S
N2412 H2425 0.985 . S
N2413 C2415 1.356 . S
N2413 H2418 0.984 . S
N2413 H2419 0.985 . S
C2414 C2408 1.379 . S
C2414 C2411 1.363 . S
C2414 N2412 1.356 . S
C2415 C2409 1.363 . S
C2415 C2410 1.379 . S
C2415 N2413 1.356 . S
N2416 C2408 1.356 . S
N2416 H2422 0.984 . S
N2416 H2423 0.984 . S
N2417 C2410 1.356 . S
N2417 H2420 0.984 . S
N2417 H2421 0.985 . S
H2418 N2413 0.984 . S
H2419 N2413 0.985 . S
H2420 N2417 0.984 . S
H2421 N2417 0.985 . S
H2422 N2416 0.984 . S
H2423 N2416 0.984 . S
H2424 N2412 0.984 . S
H2425 N2412 0.985 . S
C2426 C2427 1.363 . S
C2426 C2432 1.379 . S
C2426 N2434 1.356 . S
C2427 C2426 1.363 . S
C2427 C2433 1.363 . S
C2428 C2429 1.363 . S
C2428 C2433 1.379 . S
C2428 N2435 1.356 . S
C2429 C2428 1.363 . S
C2429 C2432 1.363 . S
N2430 C2432 1.356 . S
N2430 H2442 0.984 . S
N2430 H2443 0.985 . S
N2431 C2433 1.356 1_556 S
N2431 H2436 0.984 . S
N2431 H2437 0.985 . S
C2432 C2426 1.379 . S
C2432 C2429 1.363 . S
C2432 N2430 1.356 . S
C2433 C2427 1.363 . S
C2433 C2428 1.379 . S
C2433 N2431 1.356 1_554 S
N2434 C2426 1.356 . S
N2434 H2440 0.984 . S
N2434 H2441 0.984 . S
N2435 C2428 1.356 . S
N2435 H2438 0.984 . S
N2435 H2439 0.985 . S
H2436 N2431 0.984 . S
H2437 N2431 0.985 . S
H2438 N2435 0.984 . S
H2439 N2435 0.985 . S
H2440 N2434 0.984 . S
H2441 N2434 0.984 . S
H2442 N2430 0.984 . S
H2443 N2430 0.985 . S
C2444 C2445 1.363 . S
C2444 C2450 1.379 . S
C2444 N2452 1.356 . S
C2445 C2444 1.363 . S
C2445 C2451 1.363 . S
C2446 C2447 1.363 . S
C2446 C2451 1.379 . S
C2446 N2453 1.356 . S
C2447 C2446 1.363 . S
C2447 C2450 1.363 . S
N2448 C2450 1.356 . S
N2448 H2460 0.984 . S
N2448 H2461 0.985 . S
N2449 C2451 1.356 . S
N2449 H2454 0.984 . S
N2449 H2455 0.985 . S
C2450 C2444 1.379 . S
C2450 C2447 1.363 . S
C2450 N2448 1.356 . S
C2451 C2445 1.363 . S
C2451 C2446 1.379 . S
C2451 N2449 1.356 . S
N2452 C2444 1.356 . S
N2452 H2458 0.984 . S
N2452 H2459 0.984 . S
N2453 C2446 1.356 . S
N2453 H2456 0.984 . S
N2453 H2457 0.985 . S
H2454 N2449 0.984 . S
H2455 N2449 0.985 . S
H2456 N2453 0.984 . S
H2457 N2453 0.985 . S
H2458 N2452 0.984 . S
H2459 N2452 0.984 . S
H2460 N2448 0.984 . S
H2461 N2448 0.985 . S
C2462 C2463 1.363 . S
C2462 C2468 1.379 . S
C2462 N2470 1.356 . S
C2463 C2462 1.363 . S
C2463 C2469 1.363 . S
C2464 C2465 1.363 . S
C2464 C2469 1.379 . S
C2464 N2471 1.356 . S
C2465 C2464 1.363 . S
C2465 C2468 1.363 . S
N2466 C2468 1.356 . S
N2466 H2478 0.984 . S
N2466 H2479 0.985 . S
N2467 C2469 1.356 . S
N2467 H2472 0.984 . S
N2467 H2473 0.985 . S
C2468 C2462 1.379 . S
C2468 C2465 1.363 . S
C2468 N2466 1.356 . S
C2469 C2463 1.363 . S
C2469 C2464 1.379 . S
C2469 N2467 1.356 . S
N2470 C2462 1.356 . S
N2470 H2476 0.984 . S
N2470 H2477 0.984 . S
N2471 C2464 1.356 . S
N2471 H2474 0.984 . S
N2471 H2475 0.985 . S
H2472 N2467 0.984 . S
H2473 N2467 0.985 . S
H2474 N2471 0.984 . S
H2475 N2471 0.985 . S
H2476 N2470 0.984 . S
H2477 N2470 0.984 . S
H2478 N2466 0.984 . S
H2479 N2466 0.985 . S
C2480 C2481 1.363 . S
C2480 C2486 1.379 . S
C2480 N2488 1.356 . S
C2481 C2480 1.363 . S
C2481 C2487 1.363 . S
C2482 C2483 1.363 . S
C2482 C2487 1.379 . S
C2482 N2489 1.356 . S
C2483 C2482 1.363 . S
C2483 C2486 1.363 . S
N2484 C2486 1.356 . S
N2484 H2496 0.984 . S
N2484 H2497 0.985 . S
N2485 C2487 1.356 . S
N2485 H2490 0.984 . S
N2485 H2491 0.985 . S
C2486 C2480 1.379 . S
C2486 C2483 1.363 . S
C2486 N2484 1.356 . S
C2487 C2481 1.363 . S
C2487 C2482 1.379 . S
C2487 N2485 1.356 . S
N2488 C2480 1.356 . S
N2488 H2494 0.984 . S
N2488 H2495 0.984 . S
N2489 C2482 1.356 . S
N2489 H2492 0.984 . S
N2489 H2493 0.985 . S
H2490 N2485 0.984 . S
H2491 N2485 0.985 . S
H2492 N2489 0.984 . S
H2493 N2489 0.985 . S
H2494 N2488 0.984 . S
H2495 N2488 0.984 . S
H2496 N2484 0.984 . S
H2497 N2484 0.985 . S
C2498 C2499 1.363 . S
C2498 C2504 1.379 . S
C2498 N2506 1.356 . S
C2499 C2498 1.363 . S
C2499 C2505 1.363 . S
C2500 C2501 1.363 . S
C2500 C2505 1.379 . S
C2500 N2507 1.356 . S
C2501 C2500 1.363 . S
C2501 C2504 1.363 . S
N2502 C2504 1.356 . S
N2502 H2514 0.984 . S
N2502 H2515 0.985 . S
N2503 C2505 1.356 . S
N2503 H2508 0.984 . S
N2503 H2509 0.985 . S
C2504 C2498 1.379 . S
C2504 C2501 1.363 . S
C2504 N2502 1.356 . S
C2505 C2499 1.363 . S
C2505 C2500 1.379 . S
C2505 N2503 1.356 . S
N2506 C2498 1.356 . S
N2506 H2512 0.984 . S
N2506 H2513 0.984 . S
N2507 C2500 1.356 . S
N2507 H2510 0.984 . S
N2507 H2511 0.985 . S
H2508 N2503 0.984 . S
H2509 N2503 0.985 . S
H2510 N2507 0.984 . S
H2511 N2507 0.985 . S
H2512 N2506 0.984 . S
H2513 N2506 0.984 . S
H2514 N2502 0.984 . S
H2515 N2502 0.985 . S
C2516 C2517 1.363 . S
C2516 C2522 1.379 . S
C2516 N2524 1.356 . S
C2517 C2516 1.363 . S
C2517 C2523 1.363 . S
C2518 C2519 1.363 . S
C2518 C2523 1.379 . S
C2518 N2525 1.356 . S
C2519 C2518 1.363 . S
C2519 C2522 1.363 . S
N2520 C2522 1.356 . S
N2520 H2532 0.984 1_455 S
N2520 H2533 0.985 . S
N2521 C2523 1.356 . S
N2521 H2526 0.984 . S
N2521 H2527 0.985 . S
C2522 C2516 1.379 . S
C2522 C2519 1.363 . S
C2522 N2520 1.356 . S
C2523 C2517 1.363 . S
C2523 C2518 1.379 . S
C2523 N2521 1.356 . S
N2524 C2516 1.356 . S
N2524 H2530 0.984 1_455 S
N2524 H2531 0.984 . S
N2525 C2518 1.356 . S
N2525 H2528 0.984 . S
N2525 H2529 0.985 . S
H2526 N2521 0.984 . S
H2527 N2521 0.985 . S
H2528 N2525 0.984 . S
H2529 N2525 0.985 . S
H2530 N2524 0.984 1_655 S
H2531 N2524 0.984 . S
H2532 N2520 0.984 1_655 S
H2533 N2520 0.985 . S
C2534 C2535 1.363 . S
C2534 C2540 1.379 . S
C2534 N2542 1.356 . S
C2535 C2534 1.363 . S
C2535 C2541 1.363 . S
C2536 C2537 1.363 . S
C2536 C2541 1.379 . S
C2536 N2543 1.356 . S
C2537 C2536 1.363 . S
C2537 C2540 1.363 . S
N2538 C2540 1.356 . S
N2538 H2550 0.984 . S
N2538 H2551 0.985 . S
N2539 C2541 1.356 . S
N2539 H2544 0.984 . S
N2539 H2545 0.985 . S
C2540 C2534 1.379 . S
C2540 C2537 1.363 . S
C2540 N2538 1.356 . S
C2541 C2535 1.363 . S
C2541 C2536 1.379 . S
C2541 N2539 1.356 . S
N2542 C2534 1.356 . S
N2542 H2548 0.984 . S
N2542 H2549 0.984 . S
N2543 C2536 1.356 . S
N2543 H2546 0.984 . S
N2543 H2547 0.985 . S
H2544 N2539 0.984 . S
H2545 N2539 0.985 . S
H2546 N2543 0.984 . S
H2547 N2543 0.985 . S
H2548 N2542 0.984 . S
H2549 N2542 0.984 . S
H2550 N2538 0.984 . S
H2551 N2538 0.985 . S
C2552 C2553 1.363 . S
C2552 C2558 1.379 . S
C2552 N2560 1.356 . S
C2553 C2552 1.363 . S
C2553 C2559 1.363 . S
C2554 C2555 1.363 . S
C2554 C2559 1.379 . S
C2554 N2561 1.356 1_556 S
C2555 C2554 1.363 . S
C2555 C2558 1.363 . S
N2556 C2558 1.356 . S
N2556 H2568 0.984 . S
N2556 H2569 0.985 . S
N2557 C2559 1.356 . S
N2557 H2562 0.984 . S
N2557 H2563 0.985 1_556 S
C2558 C2552 1.379 . S
C2558 C2555 1.363 . S
C2558 N2556 1.356 . S
C2559 C2553 1.363 . S
C2559 C2554 1.379 . S
C2559 N2557 1.356 . S
N2560 C2552 1.356 . S
N2560 H2566 0.984 . S
N2560 H2567 0.984 . S
N2561 C2554 1.356 1_554 S
N2561 H2564 0.984 . S
N2561 H2565 0.985 . S
H2562 N2557 0.984 . S
H2563 N2557 0.985 1_554 S
H2564 N2561 0.984 . S
H2565 N2561 0.985 . S
H2566 N2560 0.984 . S
H2567 N2560 0.984 . S
H2568 N2556 0.984 . S
H2569 N2556 0.985 . S
C2570 C2571 1.363 . S
C2570 C2576 1.379 . S
C2570 N2578 1.356 . S
C2571 C2570 1.363 . S
C2571 C2577 1.363 . S
C2572 C2573 1.363 . S
C2572 C2577 1.379 . S
C2572 N2579 1.356 . S
C2573 C2572 1.363 . S
C2573 C2576 1.363 . S
N2574 C2576 1.356 . S
N2574 H2586 0.984 . S
N2574 H2587 0.985 . S
N2575 C2577 1.356 . S
N2575 H2580 0.984 . S
N2575 H2581 0.985 . S
C2576 C2570 1.379 . S
C2576 C2573 1.363 . S
C2576 N2574 1.356 . S
C2577 C2571 1.363 . S
C2577 C2572 1.379 . S
C2577 N2575 1.356 . S
N2578 C2570 1.356 . S
N2578 H2584 0.984 . S
N2578 H2585 0.984 . S
N2579 C2572 1.356 . S
N2579 H2582 0.984 . S
N2579 H2583 0.985 . S
H2580 N2575 0.984 . S
H2581 N2575 0.985 . S
H2582 N2579 0.984 . S
H2583 N2579 0.985 . S
H2584 N2578 0.984 . S
H2585 N2578 0.984 . S
H2586 N2574 0.984 . S
H2587 N2574 0.985 . S
C2588 C2589 1.363 . S
C2588 C2594 1.379 . S
C2588 N2596 1.356 1_455 S
C2589 C2588 1.363 . S
C2589 C2595 1.363 . S
C2590 C2591 1.363 . S
C2590 C2595 1.379 . S
C2590 N2597 1.356 . S
C2591 C2590 1.363 . S
C2591 C2594 1.363 . S
N2592 C2594 1.356 1_655 S
N2592 H2604 0.984 . S
N2592 H2605 0.985 . S
N2593 C2595 1.356 . S
N2593 H2598 0.984 . S
N2593 H2599 0.985 . S
C2594 C2588 1.379 . S
C2594 C2591 1.363 . S
C2594 N2592 1.356 1_455 S
C2595 C2589 1.363 . S
C2595 C2590 1.379 . S
C2595 N2593 1.356 . S
N2596 C2588 1.356 1_655 S
N2596 H2602 0.984 . S
N2596 H2603 0.984 1_655 S
N2597 C2590 1.356 . S
N2597 H2600 0.984 . S
N2597 H2601 0.985 . S
H2598 N2593 0.984 . S
H2599 N2593 0.985 . S
H2600 N2597 0.984 . S
H2601 N2597 0.985 . S
H2602 N2596 0.984 . S
H2603 N2596 0.984 1_455 S
H2604 N2592 0.984 . S
H2605 N2592 0.985 . S
C2606 C2607 1.363 . S
C2606 C2612 1.379 . S
C2606 N2614 1.356 . S
C2607 C2606 1.363 . S
C2607 C2613 1.363 . S
C2608 C2609 1.363 . S
C2608 C2613 1.379 . S
C2608 N2615 1.356 . S
C2609 C2608 1.363 . S
C2609 C2612 1.363 . S
N2610 C2612 1.356 . S
N2610 H2622 0.984 . S
N2610 H2623 0.985 . S
N2611 C2613 1.356 . S
N2611 H2616 0.984 . S
N2611 H2617 0.985 . S
C2612 C2606 1.379 . S
C2612 C2609 1.363 . S
C2612 N2610 1.356 . S
C2613 C2607 1.363 . S
C2613 C2608 1.379 . S
C2613 N2611 1.356 . S
N2614 C2606 1.356 . S
N2614 H2620 0.984 . S
N2614 H2621 0.984 . S
N2615 C2608 1.356 . S
N2615 H2618 0.984 . S
N2615 H2619 0.985 . S
H2616 N2611 0.984 . S
H2617 N2611 0.985 . S
H2618 N2615 0.984 . S
H2619 N2615 0.985 . S
H2620 N2614 0.984 . S
H2621 N2614 0.984 . S
H2622 N2610 0.984 . S
H2623 N2610 0.985 . S
C2624 C2625 1.363 . S
C2624 C2630 1.379 . S
C2624 N2632 1.356 . S
C2625 C2624 1.363 . S
C2625 C2631 1.363 . S
C2626 C2627 1.363 . S
C2626 C2631 1.379 . S
C2626 N2633 1.356 . S
C2627 C2626 1.363 . S
C2627 C2630 1.363 . S
N2628 C2630 1.356 . S
N2628 H2640 0.984 . S
N2628 H2641 0.985 . S
N2629 C2631 1.356 . S
N2629 H2634 0.984 . S
N2629 H2635 0.985 . S
C2630 C2624 1.379 . S
C2630 C2627 1.363 . S
C2630 N2628 1.356 . S
C2631 C2625 1.363 . S
C2631 C2626 1.379 . S
C2631 N2629 1.356 . S
N2632 C2624 1.356 . S
N2632 H2638 0.984 . S
N2632 H2639 0.984 . S
N2633 C2626 1.356 . S
N2633 H2636 0.984 . S
N2633 H2637 0.985 . S
H2634 N2629 0.984 . S
H2635 N2629 0.985 . S
H2636 N2633 0.984 . S
H2637 N2633 0.985 . S
H2638 N2632 0.984 . S
H2639 N2632 0.984 . S
H2640 N2628 0.984 . S
H2641 N2628 0.985 . S
C2642 C2643 1.363 . S
C2642 C2648 1.379 . S
C2642 N2650 1.356 . S
C2643 C2642 1.363 . S
C2643 C2649 1.363 . S
C2644 C2645 1.363 . S
C2644 C2649 1.379 . S
C2644 N2651 1.356 . S
C2645 C2644 1.363 . S
C2645 C2648 1.363 . S
N2646 C2648 1.356 . S
N2646 H2658 0.984 . S
N2646 H2659 0.985 . S
N2647 C2649 1.356 . S
N2647 H2652 0.984 . S
N2647 H2653 0.985 . S
C2648 C2642 1.379 . S
C2648 C2645 1.363 . S
C2648 N2646 1.356 . S
C2649 C2643 1.363 . S
C2649 C2644 1.379 . S
C2649 N2647 1.356 . S
N2650 C2642 1.356 . S
N2650 H2656 0.984 . S
N2650 H2657 0.984 . S
N2651 C2644 1.356 . S
N2651 H2654 0.984 . S
N2651 H2655 0.985 . S
H2652 N2647 0.984 . S
H2653 N2647 0.985 . S
H2654 N2651 0.984 . S
H2655 N2651 0.985 . S
H2656 N2650 0.984 . S
H2657 N2650 0.984 . S
H2658 N2646 0.984 . S
H2659 N2646 0.985 . S
C2660 C2661 1.363 . S
C2660 C2666 1.361 1_655 S
C2660 N2668 1.356 . S
C2661 C2660 1.363 . S
C2661 C2667 1.363 . S
C2662 C2663 1.363 . S
C2662 C2667 1.379 . S
C2662 N2669 1.356 . S
C2663 C2662 1.363 . S
C2663 C2666 1.363 1_655 S
N2664 C2666 1.378 . S
N2664 H2676 0.984 . S
N2664 H2677 0.985 . S
N2665 C2667 1.356 . S
N2665 H2670 0.984 . S
N2665 H2671 0.985 . S
C2666 C2660 1.361 1_455 S
C2666 C2663 1.363 1_455 S
C2666 N2664 1.378 . S
C2667 C2661 1.363 . S
C2667 C2662 1.379 . S
C2667 N2665 1.356 . S
N2668 C2660 1.356 . S
N2668 H2674 0.984 . S
N2668 H2675 0.984 . S
N2669 C2662 1.356 . S
N2669 H2672 0.984 . S
N2669 H2673 0.985 . S
H2670 N2665 0.984 . S
H2671 N2665 0.985 . S
H2672 N2669 0.984 . S
H2673 N2669 0.985 . S
H2674 N2668 0.984 . S
H2675 N2668 0.984 . S
H2676 N2664 0.984 . S
H2677 N2664 0.985 . S
C2678 C2679 1.363 . S
C2678 C2684 1.379 . S
C2678 N2686 1.356 . S
C2679 C2678 1.363 . S
C2679 C2685 1.363 . S
C2680 C2681 1.363 . S
C2680 C2685 1.379 . S
C2680 N2687 1.356 . S
C2681 C2680 1.363 . S
C2681 C2684 1.363 . S
N2682 C2684 1.356 . S
N2682 H2694 0.984 . S
N2682 H2695 0.985 . S
N2683 C2685 1.356 . S
N2683 H2688 0.984 . S
N2683 H2689 0.985 . S
C2684 C2678 1.379 . S
C2684 C2681 1.363 . S
C2684 N2682 1.356 . S
C2685 C2679 1.363 . S
C2685 C2680 1.379 . S
C2685 N2683 1.356 . S
N2686 C2678 1.356 . S
N2686 H2692 0.984 . S
N2686 H2693 0.984 . S
N2687 C2680 1.356 . S
N2687 H2690 0.984 . S
N2687 H2691 0.985 . S
H2688 N2683 0.984 . S
H2689 N2683 0.985 . S
H2690 N2687 0.984 . S
H2691 N2687 0.985 . S
H2692 N2686 0.984 . S
H2693 N2686 0.984 . S
H2694 N2682 0.984 . S
H2695 N2682 0.985 . S
C2696 C2697 1.363 . S
C2696 C2702 1.379 . S
C2696 N2704 1.356 . S
C2697 C2696 1.363 . S
C2697 C2703 1.363 . S
C2698 C2699 1.363 . S
C2698 C2703 1.379 . S
C2698 N2705 1.356 . S
C2699 C2698 1.363 . S
C2699 C2702 1.363 . S
N2700 C2702 1.356 . S
N2700 H2712 0.984 . S
N2700 H2713 0.985 . S
N2701 C2703 1.356 . S
N2701 H2706 0.984 . S
N2701 H2707 0.985 . S
C2702 C2696 1.379 . S
C2702 C2699 1.363 . S
C2702 N2700 1.356 . S
C2703 C2697 1.363 . S
C2703 C2698 1.379 . S
C2703 N2701 1.356 . S
N2704 C2696 1.356 . S
N2704 H2710 0.984 . S
N2704 H2711 0.984 . S
N2705 C2698 1.356 . S
N2705 H2708 0.984 . S
N2705 H2709 0.985 . S
H2706 N2701 0.984 . S
H2707 N2701 0.985 . S
H2708 N2705 0.984 . S
H2709 N2705 0.985 . S
H2710 N2704 0.984 . S
H2711 N2704 0.984 . S
H2712 N2700 0.984 . S
H2713 N2700 0.985 . S
C2714 C2715 1.363 . S
C2714 C2720 1.379 . S
C2714 N2722 1.356 . S
C2715 C2714 1.363 . S
C2715 C2721 1.363 . S
C2716 C2717 1.363 . S
C2716 C2721 1.379 . S
C2716 N2723 1.356 . S
C2717 C2716 1.363 . S
C2717 C2720 1.363 . S
N2718 C2720 1.356 . S
N2718 H2730 0.984 . S
N2718 H2731 0.985 . S
N2719 C2721 1.356 . S
N2719 H2724 0.984 . S
N2719 H2725 0.985 . S
C2720 C2714 1.379 . S
C2720 C2717 1.363 . S
C2720 N2718 1.356 . S
C2721 C2715 1.363 . S
C2721 C2716 1.379 . S
C2721 N2719 1.356 . S
N2722 C2714 1.356 . S
N2722 H2728 0.984 . S
N2722 H2729 0.984 . S
N2723 C2716 1.356 . S
N2723 H2726 0.984 . S
N2723 H2727 0.985 . S
H2724 N2719 0.984 . S
H2725 N2719 0.985 . S
H2726 N2723 0.984 . S
H2727 N2723 0.985 . S
H2728 N2722 0.984 . S
H2729 N2722 0.984 . S
H2730 N2718 0.984 . S
H2731 N2718 0.985 . S
C2732 C2733 1.363 . S
C2732 C2738 1.379 . S
C2732 N2740 1.356 . S
C2733 C2732 1.363 . S
C2733 C2739 1.363 . S
C2734 C2735 1.363 . S
C2734 C2739 1.379 . S
C2734 N2741 1.356 1_655 S
C2735 C2734 1.363 . S
C2735 C2738 1.363 . S
N2736 C2738 1.356 . S
N2736 H2748 0.984 . S
N2736 H2749 0.985 . S
N2737 C2739 1.356 . S
N2737 H2742 0.984 . S
N2737 H2743 0.985 . S
C2738 C2732 1.379 . S
C2738 C2735 1.363 . S
C2738 N2736 1.356 . S
C2739 C2733 1.363 . S
C2739 C2734 1.379 . S
C2739 N2737 1.356 . S
N2740 C2732 1.356 . S
N2740 H2746 0.984 . S
N2740 H2747 0.984 . S
N2741 C2734 1.356 1_455 S
N2741 H2744 0.984 . S
N2741 H2745 0.985 . S
H2742 N2737 0.984 . S
H2743 N2737 0.985 . S
H2744 N2741 0.984 . S
H2745 N2741 0.985 . S
H2746 N2740 0.984 . S
H2747 N2740 0.984 . S
H2748 N2736 0.984 . S
H2749 N2736 0.985 . S
C2750 C2751 1.363 . S
C2750 C2756 1.379 . S
C2750 N2758 1.356 . S
C2751 C2750 1.363 . S
C2751 C2757 1.363 . S
C2752 C2753 1.363 . S
C2752 C2757 1.379 . S
C2752 N2759 1.356 . S
C2753 C2752 1.363 . S
C2753 C2756 1.363 . S
N2754 C2756 1.356 . S
N2754 H2766 0.984 . S
N2754 H2767 0.985 . S
N2755 C2757 1.356 . S
N2755 H2760 0.984 . S
N2755 H2761 0.985 . S
C2756 C2750 1.379 . S
C2756 C2753 1.363 . S
C2756 N2754 1.356 . S
C2757 C2751 1.363 . S
C2757 C2752 1.379 . S
C2757 N2755 1.356 . S
N2758 C2750 1.356 . S
N2758 H2764 0.984 . S
N2758 H2765 0.984 . S
N2759 C2752 1.356 . S
N2759 H2762 0.984 . S
N2759 H2763 0.985 . S
H2760 N2755 0.984 . S
H2761 N2755 0.985 . S
H2762 N2759 0.984 . S
H2763 N2759 0.985 . S
H2764 N2758 0.984 . S
H2765 N2758 0.984 . S
H2766 N2754 0.984 . S
H2767 N2754 0.985 . S
C2768 C2769 1.363 . S
C2768 C2774 1.379 . S
C2768 N2776 1.356 . S
C2769 C2768 1.363 . S
C2769 C2775 1.363 . S
C2770 C2771 1.363 . S
C2770 C2775 1.379 . S
C2770 N2777 1.356 . S
C2771 C2770 1.363 . S
C2771 C2774 1.363 . S
N2772 C2774 1.356 . S
N2772 H2784 0.984 . S
N2772 H2785 0.985 . S
N2773 C2775 1.356 . S
N2773 H2778 0.984 . S
N2773 H2779 0.985 . S
C2774 C2768 1.379 . S
C2774 C2771 1.363 . S
C2774 N2772 1.356 . S
C2775 C2769 1.363 . S
C2775 C2770 1.379 . S
C2775 N2773 1.356 . S
N2776 C2768 1.356 . S
N2776 H2782 0.984 . S
N2776 H2783 0.984 . S
N2777 C2770 1.356 . S
N2777 H2780 0.984 . S
N2777 H2781 0.985 . S
H2778 N2773 0.984 . S
H2779 N2773 0.985 . S
H2780 N2777 0.984 . S
H2781 N2777 0.985 . S
H2782 N2776 0.984 . S
H2783 N2776 0.984 . S
H2784 N2772 0.984 . S
H2785 N2772 0.985 . S
C2786 C2787 1.363 . S
C2786 C2792 1.379 . S
C2786 N2794 1.356 . S
C2787 C2786 1.363 . S
C2787 C2793 1.363 . S
C2788 C2789 1.363 . S
C2788 C2793 1.379 . S
C2788 N2795 1.356 . S
C2789 C2788 1.363 . S
C2789 C2792 1.363 . S
N2790 C2792 1.356 . S
N2790 H2802 0.984 . S
N2790 H2803 0.985 . S
N2791 C2793 1.356 . S
N2791 H2796 0.984 . S
N2791 H2797 0.985 . S
C2792 C2786 1.379 . S
C2792 C2789 1.363 . S
C2792 N2790 1.356 . S
C2793 C2787 1.363 . S
C2793 C2788 1.379 . S
C2793 N2791 1.356 . S
N2794 C2786 1.356 . S
N2794 H2800 0.984 . S
N2794 H2801 0.984 . S
N2795 C2788 1.356 . S
N2795 H2798 0.984 . S
N2795 H2799 0.985 . S
H2796 N2791 0.984 . S
H2797 N2791 0.985 . S
H2798 N2795 0.984 . S
H2799 N2795 0.985 . S
H2800 N2794 0.984 . S
H2801 N2794 0.984 . S
H2802 N2790 0.984 . S
H2803 N2790 0.985 . S
C2804 C2805 1.363 . S
C2804 C2810 1.379 . S
C2804 N2812 1.356 . S
C2805 C2804 1.363 . S
C2805 C2811 1.363 . S
C2806 C2807 1.363 . S
C2806 C2811 1.379 . S
C2806 N2813 1.356 . S
C2807 C2806 1.363 . S
C2807 C2810 1.363 . S
N2808 C2810 1.356 . S
N2808 H2820 0.984 . S
N2808 H2821 0.985 . S
N2809 C2811 1.356 . S
N2809 H2814 0.984 . S
N2809 H2815 0.985 . S
C2810 C2804 1.379 . S
C2810 C2807 1.363 . S
C2810 N2808 1.356 . S
C2811 C2805 1.363 . S
C2811 C2806 1.379 . S
C2811 N2809 1.356 . S
N2812 C2804 1.356 . S
N2812 H2818 0.984 . S
N2812 H2819 0.984 . S
N2813 C2806 1.356 . S
N2813 H2816 0.984 . S
N2813 H2817 0.985 . S
H2814 N2809 0.984 . S
H2815 N2809 0.985 . S
H2816 N2813 0.984 . S
H2817 N2813 0.985 . S
H2818 N2812 0.984 . S
H2819 N2812 0.984 . S
H2820 N2808 0.984 . S
H2821 N2808 0.985 . S
C2822 C2823 1.363 . S
C2822 C2828 1.379 . S
C2822 N2830 1.356 . S
C2823 C2822 1.363 . S
C2823 C2829 1.363 . S
C2824 C2825 1.363 . S
C2824 C2829 1.379 . S
C2824 N2831 1.356 1_554 S
C2825 C2824 1.363 . S
C2825 C2828 1.363 . S
N2826 C2828 1.356 . S
N2826 H2838 0.984 . S
N2826 H2839 0.985 . S
N2827 C2829 1.356 1_556 S
N2827 H2832 0.984 . S
N2827 H2833 0.985 . S
C2828 C2822 1.379 . S
C2828 C2825 1.363 . S
C2828 N2826 1.356 . S
C2829 C2823 1.363 . S
C2829 C2824 1.379 . S
C2829 N2827 1.356 1_554 S
N2830 C2822 1.356 . S
N2830 H2836 0.984 . S
N2830 H2837 0.984 . S
N2831 C2824 1.356 1_556 S
N2831 H2834 0.984 . S
N2831 H2835 0.985 . S
H2832 N2827 0.984 . S
H2833 N2827 0.985 . S
H2834 N2831 0.984 . S
H2835 N2831 0.985 . S
H2836 N2830 0.984 . S
H2837 N2830 0.984 . S
H2838 N2826 0.984 . S
H2839 N2826 0.985 . S
C2840 C2841 1.363 . S
C2840 C2846 1.379 . S
C2840 N2848 1.356 . S
C2841 C2840 1.363 . S
C2841 C2847 1.363 . S
C2842 C2843 1.363 . S
C2842 C2847 1.379 . S
C2842 N2849 1.356 . S
C2843 C2842 1.363 . S
C2843 C2846 1.363 . S
N2844 C2846 1.356 . S
N2844 H2856 0.984 . S
N2844 H2857 0.985 . S
N2845 C2847 1.356 . S
N2845 H2850 0.984 . S
N2845 H2851 0.985 . S
C2846 C2840 1.379 . S
C2846 C2843 1.363 . S
C2846 N2844 1.356 . S
C2847 C2841 1.363 . S
C2847 C2842 1.379 . S
C2847 N2845 1.356 . S
N2848 C2840 1.356 . S
N2848 H2854 0.984 . S
N2848 H2855 0.984 . S
N2849 C2842 1.356 . S
N2849 H2852 0.984 . S
N2849 H2853 0.985 . S
H2850 N2845 0.984 . S
H2851 N2845 0.985 . S
H2852 N2849 0.984 . S
H2853 N2849 0.985 . S
H2854 N2848 0.984 . S
H2855 N2848 0.984 . S
H2856 N2844 0.984 . S
H2857 N2844 0.985 . S
C2858 C2859 1.363 . S
C2858 C2864 1.379 . S
C2858 N2866 1.356 . S
C2859 C2858 1.363 . S
C2859 C2865 1.363 . S
C2860 C2861 1.363 . S
C2860 C2865 1.379 . S
C2860 N2867 1.356 1_554 S
C2861 C2860 1.363 . S
C2861 C2864 1.363 . S
N2862 C2864 1.356 . S
N2862 H2874 0.984 . S
N2862 H2875 0.985 . S
N2863 C2865 1.364 . S
N2863 H2868 0.996 . S
N2863 H2869 0.966 1_554 S
C2864 C2858 1.379 . S
C2864 C2861 1.363 . S
C2864 N2862 1.356 . S
C2865 C2859 1.363 . S
C2865 C2860 1.379 . S
C2865 N2863 1.364 . S
N2866 C2858 1.356 . S
N2866 H2872 0.984 . S
N2866 H2873 0.984 . S
N2867 C2860 1.356 1_556 S
N2867 H2870 0.984 . S
N2867 H2871 0.985 . S
H2868 N2863 0.996 . S
H2869 N2863 0.966 1_556 S
H2870 N2867 0.984 . S
H2871 N2867 0.985 . S
H2872 N2866 0.984 . S
H2873 N2866 0.984 . S
H2874 N2862 0.984 . S
H2875 N2862 0.985 . S
C2876 C2877 1.363 . S
C2876 C2882 1.379 . S
C2876 N2884 1.356 . S
C2877 C2876 1.363 . S
C2877 C2883 1.363 . S
C2878 C2879 1.363 . S
C2878 C2883 1.379 . S
C2878 N2885 1.356 . S
C2879 C2878 1.363 . S
C2879 C2882 1.363 . S
N2880 C2882 1.356 . S
N2880 H2892 0.984 . S
N2880 H2893 0.985 . S
N2881 C2883 1.356 . S
N2881 H2886 0.984 . S
N2881 H2887 0.985 . S
C2882 C2876 1.379 . S
C2882 C2879 1.363 . S
C2882 N2880 1.356 . S
C2883 C2877 1.363 . S
C2883 C2878 1.379 . S
C2883 N2881 1.356 . S
N2884 C2876 1.356 . S
N2884 H2890 0.984 . S
N2884 H2891 0.984 . S
N2885 C2878 1.356 . S
N2885 H2888 0.984 . S
N2885 H2889 0.985 . S
H2886 N2881 0.984 . S
H2887 N2881 0.985 . S
H2888 N2885 0.984 . S
H2889 N2885 0.985 . S
H2890 N2884 0.984 . S
H2891 N2884 0.984 . S
H2892 N2880 0.984 . S
H2893 N2880 0.985 . S
C2894 C2895 1.363 . S
C2894 C2900 1.379 . S
C2894 N2902 1.356 . S
C2895 C2894 1.363 . S
C2895 C2901 1.363 . S
C2896 C2897 1.363 . S
C2896 C2901 1.379 . S
C2896 N2903 1.356 . S
C2897 C2896 1.363 . S
C2897 C2900 1.363 . S
N2898 C2900 1.356 . S
N2898 H2910 0.984 . S
N2898 H2911 0.985 . S
N2899 C2901 1.356 . S
N2899 H2904 0.984 . S
N2899 H2905 0.985 . S
C2900 C2894 1.379 . S
C2900 C2897 1.363 . S
C2900 N2898 1.356 . S
C2901 C2895 1.363 . S
C2901 C2896 1.379 . S
C2901 N2899 1.356 . S
N2902 C2894 1.356 . S
N2902 H2908 0.984 . S
N2902 H2909 0.984 . S
N2903 C2896 1.356 . S
N2903 H2906 0.984 . S
N2903 H2907 0.985 . S
H2904 N2899 0.984 . S
H2905 N2899 0.985 . S
H2906 N2903 0.984 . S
H2907 N2903 0.985 . S
H2908 N2902 0.984 . S
H2909 N2902 0.984 . S
H2910 N2898 0.984 . S
H2911 N2898 0.985 . S
C1185 C255 1.499 . S
C1187 C868 1.273 1_556 S
C1203 C147 1.522 . S
C1205 C903 1.496 . S
C1221 C184 1.194 . S
C1223 C908 1.079 . S
C1241 C933 1.363 . S
C1239 C220 1.441 . S
C1257 C40 1.410 . S
C1259 C953 1.320 . S
C1277 C968 1.136 . S
C1275 C74 1.258 . S
C1295 C1003 1.538 . S
C1293 C110 1.567 . S
C1311 C14 1.490 . S
C1313 C1008 1.247 . S
C1331 C883 1.639 1_655 S
C1329 C579 1.723 . S
C1347 C616 1.160 . S
C1349 C893 1.099 . S
C1367 C923 1.477 . S
C1365 C687 1.510 . S
C1385 C928 1.206 . S
C1383 C436 1.319 . S
C1401 C580 1.297 . S
C1403 C948 1.189 . S
C1421 C983 1.461 . S
C1419 C615 1.495 . S
C1439 C993 1.104 . S
C1437 C688 1.181 . S
C1457 C1023 1.618 . S
C1455 C435 1.717 . S
C1475 C873 1.360 . S
C1473 C410 1.527 . S
C1491 C722 1.817 . S
C1493 C1043 1.805 . S
C1511 C1053 1.530 . S
C1509 C842 1.665 . S
C1529 C1068 1.096 . S
C1527 C794 1.198 . S
C1545 C302 1.602 . S
C1547 C1013 1.390 . S
C1563 C338 1.629 . S
C1565 C913 1.511 . S
C1581 C830 1.842 . S
C1583 C1103 1.839 . S
C1601 C1108 1.121 . S
C1599 C758 1.205 . S
C1619 C866 1.266 . S
C1617 C158 1.415 . S
C1637 C1122 1.497 . S
C1635 C254 1.532 . S
C1653 C218 1.223 . S
C1655 C906 1.089 . S
C1671 C194 1.372 . S
C1673 C1096 1.347 . S
C1691 C956 1.313 . S
C1689 C3 1.405 . S
C1707 C111 1.161 . S
C1709 C1046 1.049 . S
C1727 C1002 1.501 1_556 S
C1725 C76 1.529 . S
C1745 C1126 1.290 . S
C1743 C50 1.425 . S
C1763 C882 1.611 . S
C1761 C364 1.745 . S
C1781 C1116 1.079 . S
C1779 C795 1.171 . S
C1797 C292 1.462 . S
C1799 C922 1.427 . S
C1815 C723 1.282 . S
C1817 C1086 1.157 . S
C1833 C363 1.290 . S
C1835 C946 1.166 . S
C1853 C1062 1.454 . S
C1851 C796 1.482 . S
C1869 C291 1.159 . S
C1871 C996 1.081 . S
C1887 C724 1.749 . S
C1889 C1142 1.628 . S
C1905 C482 1.454 . S
C1907 C876 1.369 . S
C1923 C434 1.797 . S
C1925 C1042 1.798 . S
C1941 C662 1.508 . S
C1943 C976 1.508 . S
C1959 C614 1.195 . S
C1961 C1066 1.091 . S
C1979 C1136 1.377 . S
C1977 C698 1.443 . S
C1995 C554 1.508 . S
C1997 C916 1.495 . S
C2015 C942 1.788 . S
C2013 C650 1.795 . S
C2033 C886 1.095 . S
C2031 C506 1.216 . S
C2049 C183 1.499 . S
C2051 C1148 1.272 . S
C2069 C1123 1.494 . S
C2067 C219 1.521 . S
C2085 C256 1.192 . S
C2087 C1168 1.075 . S
C2103 C148 1.439 . S
C2105 C1093 1.361 . S
C2121 C122 1.454 . S
C2123 C1033 1.391 . S
C2141 C1048 1.087 . S
C2139 C2 1.207 . S
C2159 C1083 1.437 . S
C2157 C39 1.466 . S
C2177 C1128 1.292 . S
C2175 C86 1.524 . S
C2195 C1163 1.651 . S
C2193 C651 1.736 . S
C2211 C472 1.164 . S
C2213 C1113 1.102 . S
C2231 C1183 1.465 . S
C2229 C507 1.500 . S
C2249 C1088 1.207 . S
C2247 C544 1.321 . S
C2267 C1028 1.187 . S
C2265 C652 1.300 . S
C2283 C471 1.475 . S
C2285 C1063 1.436 . S
C2303 C1073 1.092 . S
C2301 C508 1.162 . S
C2319 C543 1.724 . S
C2321 C1143 1.636 . S
C2339 C1153 1.375 . S
C2337 C806 1.549 . S
C2355 C326 1.796 . S
C2357 C963 1.789 . S
C2375 C973 1.515 . S
C2373 C374 1.644 . S
C2393 C988 1.109 . S
C2391 C398 1.224 . S
C2411 C1133 1.376 . S
C2409 C770 1.569 . S
C2427 C734 1.621 1_554 S
C2429 C1173 1.503 . S
C2447 C943 1.832 . S
C2445 C362 1.831 . S
C2465 C888 1.134 . S
C2463 C290 1.222 . S
C2481 C230 1.413 . S
C2483 C1146 1.266 . S
C2501 C902 1.501 . S
C2499 C182 1.534 . S
C2517 C146 1.218 . S
C2519 C1166 1.087 . S
C2535 C266 1.372 . S
C2537 C936 1.342 . S
C2553 C75 1.452 . S
C2555 C1036 1.359 . S
C2573 C966 1.121 . S
C2571 C38 1.246 . S
C2589 C4 1.460 . S
C2591 C1082 1.433 . S
C2607 C112 1.539 . S
C2609 C1006 1.256 . S
C2627 C1162 1.614 . S
C2625 C832 1.745 . S
C2643 C399 1.180 . S
C2645 C896 1.085 . S
C2663 C1182 1.420 1_655 S
C2661 C760 1.457 . S
C2679 C327 1.279 . S
C2681 C926 1.157 . S
C2697 C831 1.308 . S
C2699 C1026 1.188 . S
C2717 C982 1.445 . S
C2715 C400 1.481 . S
C2733 C759 1.178 . S
C2735 C1076 1.088 . S
C2753 C1022 1.627 . S
C2751 C328 1.741 . S
C2771 C1156 1.379 . S
C2769 C626 1.461 . S
C2789 C962 1.795 . S
C2787 C542 1.799 . S
C2805 C590 1.488 . S
C2807 C1056 1.492 . S
C2825 C986 1.097 . S
C2823 C470 1.189 . S
C2841 C518 1.417 . S
C2843 C1016 1.361 . S
C2859 C446 1.497 . S
C2861 C1176 1.484 . S
C2879 C1102 1.797 . S
C2877 C578 1.805 . S
C2897 C1106 1.083 . S
C2895 C686 1.198 . S
