# Generated by pormake.
# Topology myd, (4,6)-cn, num edge types: 1
# Building blocks:
#     Node 0, Type 0, BuildingBlock: KOZSID_clean_sbu_0, # of connection points: 4
#     Node 1, Type 0, BuildingBlock: KOZSID_clean_sbu_0, # of connection points: 4
#     Node 2, Type 0, BuildingBlock: KOZSID_clean_sbu_0, # of connection points: 4
#     Node 3, Type 0, BuildingBlock: KOZSID_clean_sbu_0, # of connection points: 4
#     Node 4, Type 0, BuildingBlock: KOZSID_clean_sbu_0, # of connection points: 4
#     Node 5, Type 0, BuildingBlock: KOZSID_clean_sbu_0, # of connection points: 4
#     Node 6, Type 0, BuildingBlock: KOZSID_clean_sbu_0, # of connection points: 4
#     Node 7, Type 0, BuildingBlock: KOZSID_clean_sbu_0, # of connection points: 4
#     Node 8, Type 0, BuildingBlock: KOZSID_clean_sbu_0, # of connection points: 4
#     Node 9, Type 0, BuildingBlock: KOZSID_clean_sbu_0, # of connection points: 4
#     Node 10, Type 0, BuildingBlock: KOZSID_clean_sbu_0, # of connection points: 4
#     Node 11, Type 0, BuildingBlock: KOZSID_clean_sbu_0, # of connection points: 4
#     Node 12, Type 1, BuildingBlock: FUNLAD_clean_sbu_0, # of connection points: 6
#     Node 13, Type 1, BuildingBlock: FUNLAD_clean_sbu_0, # of connection points: 6
#     Node 14, Type 1, BuildingBlock: FUNLAD_clean_sbu_0, # of connection points: 6
#     Node 15, Type 1, BuildingBlock: FUNLAD_clean_sbu_0, # of connection points: 6
#     Node 16, Type 1, BuildingBlock: FUNLAD_clean_sbu_0, # of connection points: 6
#     Node 17, Type 1, BuildingBlock: FUNLAD_clean_sbu_0, # of connection points: 6
#     Node 18, Type 1, BuildingBlock: FUNLAD_clean_sbu_0, # of connection points: 6
#     Node 19, Type 1, BuildingBlock: FUNLAD_clean_sbu_0, # of connection points: 6
#     Edge 20, Type (0, 1), BuildingBlock: UVAHIK_clean_linker_0, # of connection points: 2
#     Edge 21, Type (0, 1), BuildingBlock: UVAHIK_clean_linker_0, # of connection points: 2
#     Edge 22, Type (0, 1), BuildingBlock: UVAHIK_clean_linker_0, # of connection points: 2
#     Edge 23, Type (0, 1), BuildingBlock: UVAHIK_clean_linker_0, # of connection points: 2
#     Edge 24, Type (0, 1), BuildingBlock: UVAHIK_clean_linker_0, # of connection points: 2
#     Edge 25, Type (0, 1), BuildingBlock: UVAHIK_clean_linker_0, # of connection points: 2
#     Edge 26, Type (0, 1), BuildingBlock: UVAHIK_clean_linker_0, # of connection points: 2
#     Edge 27, Type (0, 1), BuildingBlock: UVAHIK_clean_linker_0, # of connection points: 2
#     Edge 28, Type (0, 1), BuildingBlock: UVAHIK_clean_linker_0, # of connection points: 2
#     Edge 29, Type (0, 1), BuildingBlock: UVAHIK_clean_linker_0, # of connection points: 2
#     Edge 30, Type (0, 1), BuildingBlock: UVAHIK_clean_linker_0, # of connection points: 2
#     Edge 31, Type (0, 1), BuildingBlock: UVAHIK_clean_linker_0, # of connection points: 2
#     Edge 32, Type (0, 1), BuildingBlock: UVAHIK_clean_linker_0, # of connection points: 2
#     Edge 33, Type (0, 1), BuildingBlock: UVAHIK_clean_linker_0, # of connection points: 2
#     Edge 34, Type (0, 1), BuildingBlock: UVAHIK_clean_linker_0, # of connection points: 2
#     Edge 35, Type (0, 1), BuildingBlock: UVAHIK_clean_linker_0, # of connection points: 2
#     Edge 36, Type (0, 1), BuildingBlock: UVAHIK_clean_linker_0, # of connection points: 2
#     Edge 37, Type (0, 1), BuildingBlock: UVAHIK_clean_linker_0, # of connection points: 2
#     Edge 38, Type (0, 1), BuildingBlock: UVAHIK_clean_linker_0, # of connection points: 2
#     Edge 39, Type (0, 1), BuildingBlock: UVAHIK_clean_linker_0, # of connection points: 2
#     Edge 40, Type (0, 1), BuildingBlock: UVAHIK_clean_linker_0, # of connection points: 2
#     Edge 41, Type (0, 1), BuildingBlock: UVAHIK_clean_linker_0, # of connection points: 2
#     Edge 42, Type (0, 1), BuildingBlock: UVAHIK_clean_linker_0, # of connection points: 2
#     Edge 43, Type (0, 1), BuildingBlock: UVAHIK_clean_linker_0, # of connection points: 2
#     Edge 44, Type (0, 1), BuildingBlock: UVAHIK_clean_linker_0, # of connection points: 2
#     Edge 45, Type (0, 1), BuildingBlock: UVAHIK_clean_linker_0, # of connection points: 2
#     Edge 46, Type (0, 1), BuildingBlock: UVAHIK_clean_linker_0, # of connection points: 2
#     Edge 47, Type (0, 1), BuildingBlock: UVAHIK_clean_linker_0, # of connection points: 2
#     Edge 48, Type (0, 1), BuildingBlock: UVAHIK_clean_linker_0, # of connection points: 2
#     Edge 49, Type (0, 1), BuildingBlock: UVAHIK_clean_linker_0, # of connection points: 2
#     Edge 50, Type (0, 1), BuildingBlock: UVAHIK_clean_linker_0, # of connection points: 2
#     Edge 51, Type (0, 1), BuildingBlock: UVAHIK_clean_linker_0, # of connection points: 2
#     Edge 52, Type (0, 1), BuildingBlock: UVAHIK_clean_linker_0, # of connection points: 2
#     Edge 53, Type (0, 1), BuildingBlock: UVAHIK_clean_linker_0, # of connection points: 2
#     Edge 54, Type (0, 1), BuildingBlock: UVAHIK_clean_linker_0, # of connection points: 2
#     Edge 55, Type (0, 1), BuildingBlock: UVAHIK_clean_linker_0, # of connection points: 2
#     Edge 56, Type (0, 1), BuildingBlock: UVAHIK_clean_linker_0, # of connection points: 2
#     Edge 57, Type (0, 1), BuildingBlock: UVAHIK_clean_linker_0, # of connection points: 2
#     Edge 58, Type (0, 1), BuildingBlock: UVAHIK_clean_linker_0, # of connection points: 2
#     Edge 59, Type (0, 1), BuildingBlock: UVAHIK_clean_linker_0, # of connection points: 2
#     Edge 60, Type (0, 1), BuildingBlock: UVAHIK_clean_linker_0, # of connection points: 2
#     Edge 61, Type (0, 1), BuildingBlock: UVAHIK_clean_linker_0, # of connection points: 2
#     Edge 62, Type (0, 1), BuildingBlock: UVAHIK_clean_linker_0, # of connection points: 2
#     Edge 63, Type (0, 1), BuildingBlock: UVAHIK_clean_linker_0, # of connection points: 2
#     Edge 64, Type (0, 1), BuildingBlock: UVAHIK_clean_linker_0, # of connection points: 2
#     Edge 65, Type (0, 1), BuildingBlock: UVAHIK_clean_linker_0, # of connection points: 2
#     Edge 66, Type (0, 1), BuildingBlock: UVAHIK_clean_linker_0, # of connection points: 2
#     Edge 67, Type (0, 1), BuildingBlock: UVAHIK_clean_linker_0, # of connection points: 2
# Relax obj value: 0.233
# Max RMSD: 0.218
# Mean RMSD: 0.149
data_MOF--net-myd--node1-KOZSID_clean_sbu_0--node2-FUNLAD_clean_sbu_0--edge1-UVAHIK_clean_linker_0
_symmetry_space_group_name_H-M    P1
_symmetry_Int_Tables_number       1
_symmetry_cell_setting            triclinic
loop_
_symmetry_equiv_pos_as_xyz
'x, y, z'
_cell_length_a     64.103495
_cell_length_b     64.296489
_cell_length_c     68.787192
_cell_angle_alpha  87.378533
_cell_angle_beta   85.446247
_cell_angle_gamma 90.811275
loop_
_atom_site_label
_atom_site_type_symbol
_atom_site_fract_x
_atom_site_fract_y
_atom_site_fract_z
_atom_type_partial_charge
C0 C 0.99254 0.28056 0.36527 0.0
C1 C 0.97301 0.28146 0.37535 0.0
C2 C 0.96129 0.26525 0.36923 0.0
C3 C 0.97435 0.25542 0.35583 0.0
N4 N 0.99346 0.26441 0.35335 0.0
Co5 Co 0.0168 0.25666 0.33472 0.0
N6 N 0.99755 0.24222 0.31837 0.0
C7 C 0.97792 0.23561 0.32431 0.0
C8 C 0.96856 0.22508 0.31034 0.0
C9 C 0.98331 0.22477 0.2948 0.0
C10 C 1.00098 0.2352 0.30013 0.0
N11 N 0.04041 0.24928 0.31605 0.0
C12 C 0.04025 0.24254 0.29769 0.0
C13 C 0.06056 0.23981 0.28963 0.0
C14 C 0.0737 0.24428 0.30372 0.0
C15 C 0.06081 0.2497 0.31949 0.0
N16 N 0.03575 0.27098 0.35135 0.0
C17 C 0.0565 0.26842 0.35155 0.0
C18 C 0.06548 0.28181 0.36361 0.0
C19 C 0.04938 0.29356 0.37128 0.0
C20 C 0.03136 0.28655 0.36354 0.0
N21 N 0.01982 0.23023 0.34961 0.0
C22 C 0.01718 0.19077 0.36887 0.0
C23 C 0.02223 0.193 0.34875 0.0
C24 C 0.02336 0.21264 0.33949 0.0
C25 C 0.01503 0.20887 0.37949 0.0
C26 C 0.01649 0.22855 0.36954 0.0
N27 N 0.0135 0.28257 0.3195 0.0
C28 C 0.02857 0.31091 0.29875 0.0
C29 C 0.00879 0.3157 0.29263 0.0
C30 C 0.99131 0.30461 0.30142 0.0
C31 C 0.994 0.28814 0.31476 0.0
C32 C 0.03057 0.2943 0.31228 0.0
H33 H 0.98032 0.27935 0.3206 0.0
H34 H 0.04603 0.29037 0.31621 0.0
H35 H 0.02618 0.21329 0.3239 0.0
H36 H 0.01412 0.24231 0.37782 0.0
C37 C 0.96808 0.24157 0.34215 0.0
C38 C 0.01022 0.29468 0.36765 0.0
C39 C 0.02142 0.23549 0.28868 0.0
C40 C 0.06734 0.25793 0.33658 0.0
H41 H 0.96778 0.29279 0.38574 0.0
H42 H 0.94485 0.26194 0.37312 0.0
H43 H 0.95282 0.21858 0.31124 0.0
H44 H 0.98145 0.21713 0.28134 0.0
H45 H 0.06536 0.2345 0.27528 0.0
H46 H 0.09063 0.24402 0.30244 0.0
H47 H 0.08199 0.284 0.36537 0.0
H48 H 0.05105 0.30619 0.38089 0.0
H49 H 0.02473 0.17954 0.33999 0.0
H50 H 0.01141 0.20784 0.39515 0.0
H51 H 0.0425 0.31913 0.29236 0.0
H52 H 0.97567 0.30814 0.29746 0.0
C53 C 0.98232 0.71286 0.13195 0.0
C54 C 0.96335 0.70873 0.12434 0.0
C55 C 0.94883 0.72073 0.13385 0.0
C56 C 0.95969 0.73144 0.14668 0.0
N57 N 0.98034 0.72719 0.1458 0.0
Co58 Co 0.00185 0.73908 0.16203 0.0
N59 N 0.97994 0.75432 0.17791 0.0
C60 C 0.95902 0.75355 0.17649 0.0
C61 C 0.94789 0.76523 0.18972 0.0
C62 C 0.96259 0.77406 0.20021 0.0
C63 C 0.98191 0.76732 0.1926 0.0
N64 N 0.02353 0.75166 0.17759 0.0
C65 C 0.02147 0.76576 0.1916 0.0
C66 C 0.04079 0.77181 0.19754 0.0
C67 C 0.05555 0.76105 0.18699 0.0
C68 C 0.0445 0.74926 0.17514 0.0
N69 N 0.02358 0.72306 0.14668 0.0
C70 C 0.04439 0.72289 0.14869 0.0
C71 C 0.05518 0.70953 0.13679 0.0
C72 C 0.0403 0.70025 0.12683 0.0
C73 C 0.02127 0.70856 0.1333 0.0
N74 N 0.00584 0.76362 0.14319 0.0
C75 C 0.01302 0.80349 0.12458 0.0
C76 C 0.02934 0.78947 0.12624 0.0
C77 C 0.02542 0.76975 0.13536 0.0
C78 C 0.99274 0.79636 0.13074 0.0
C79 C 0.98951 0.77646 0.13971 0.0
N80 N 0.99789 0.71504 0.18135 0.0
C81 C 0.01141 0.69314 0.20688 0.0
C82 C 0.99143 0.68489 0.21273 0.0
C83 C 0.97497 0.69126 0.2017 0.0
C84 C 0.97849 0.70623 0.1863 0.0
C85 C 0.0143 0.70777 0.19116 0.0
H86 H 0.96518 0.71073 0.17883 0.0
H87 H 0.02992 0.71339 0.18751 0.0
H88 H 0.03863 0.76005 0.13648 0.0
H89 H 0.97374 0.77217 0.14441 0.0
C90 C 0.95052 0.74322 0.16149 0.0
C91 C 1.00139 0.70162 0.12679 0.0
C92 C 0.00168 0.7741 0.19945 0.0
C93 C 0.05333 0.7355 0.16185 0.0
H94 H 0.96013 0.69763 0.11356 0.0
H95 H 0.93216 0.72082 0.13231 0.0
H96 H 0.93115 0.76747 0.19125 0.0
H97 H 0.95946 0.78454 0.21193 0.0
H98 H 0.04397 0.78299 0.20825 0.0
H99 H 0.07234 0.76183 0.18776 0.0
H100 H 0.07182 0.70667 0.13567 0.0
H101 H 0.04306 0.68848 0.1162 0.0
H102 H 0.04523 0.79383 0.12095 0.0
H103 H 0.97943 0.8064 0.12955 0.0
H104 H 0.02483 0.68894 0.21473 0.0
H105 H 0.95929 0.68492 0.20499 0.0
C106 C 0.34921 0.98281 0.26031 0.0
C107 C 0.35668 0.96347 0.26591 0.0
C108 C 0.34766 0.94927 0.25489 0.0
C109 C 0.33518 0.96066 0.2433 0.0
N110 N 0.33594 0.98137 0.24597 0.0
Co111 Co 0.31912 0.00347 0.23319 0.0
N112 N 0.30362 0.98221 0.21906 0.0
C113 C 0.30622 0.96134 0.21989 0.0
C114 C 0.29371 0.95081 0.20826 0.0
C115 C 0.28255 0.96584 0.19931 0.0
C116 C 0.28892 0.98475 0.20606 0.0
N117 N 0.30232 0.02559 0.22047 0.0
C118 C 0.2878 0.02401 0.20728 0.0
C119 C 0.28013 0.04334 0.2019 0.0
C120 C 0.29035 0.05768 0.21185 0.0
C121 C 0.30358 0.04635 0.22272 0.0
N122 N 0.33457 0.02467 0.24737 0.0
C123 C 0.33264 0.0456 0.24597 0.0
C124 C 0.34478 0.05603 0.258 0.0
C125 C 0.35477 0.04085 0.26798 0.0
C126 C 0.34803 0.02197 0.26148 0.0
N127 N 0.34062 0.00624 0.21051 0.0
C128 C 0.36605 0.01017 0.17496 0.0
C129 C 0.35995 0.02771 0.1851 0.0
C130 C 0.34735 0.02541 0.20269 0.0
C131 C 0.36024 0.99062 0.18352 0.0
C132 C 0.34786 0.98903 0.20122 0.0
N133 N 0.29748 1.00069 0.2556 0.0
C134 C 0.27368 0.01613 0.27982 0.0
C135 C 0.26571 0.99652 0.28652 0.0
C136 C 0.27433 0.97905 0.2778 0.0
C137 C 0.2901 0.98146 0.2626 0.0
C138 C 0.28939 0.01786 0.26442 0.0
H139 H 0.296 0.96751 0.25667 0.0
H140 H 0.29461 0.03323 0.25976 0.0
H141 H 0.34283 0.03942 0.20937 0.0
H142 H 0.344 0.97367 0.20683 0.0
C143 C 0.32107 0.95218 0.23122 0.0
C144 C 0.35401 1.00191 0.26988 0.0
C145 C 0.28108 0.00471 0.19914 0.0
C146 C 0.31793 0.05482 0.23454 0.0
H147 H 0.36702 0.95985 0.27723 0.0
H148 H 0.34929 0.93252 0.25584 0.0
H149 H 0.29306 0.93422 0.20626 0.0
H150 H 0.27124 0.96322 0.18876 0.0
H151 H 0.26854 0.04674 0.19164 0.0
H152 H 0.28861 0.07441 0.211 0.0
H153 H 0.34564 0.07264 0.25984 0.0
H154 H 0.36535 0.04332 0.2792 0.0
H155 H 0.36416 0.04322 0.17913 0.0
H156 H 0.36506 0.97653 0.17649 0.0
H157 H 0.26744 0.03014 0.28604 0.0
H158 H 0.26895 0.9635 0.28269 0.0
C159 C 0.65992 0.48378 0.21712 0.0
C160 C 0.65003 0.46558 0.21229 0.0
C161 C 0.66025 0.44949 0.22069 0.0
C162 C 0.67574 0.45871 0.23008 0.0
N163 N 0.67587 0.47976 0.22844 0.0
Co164 Co 0.69607 0.49939 0.23927 0.0
N165 N 0.71198 0.47562 0.25045 0.0
C166 C 0.70845 0.45503 0.24859 0.0
C167 C 0.7211 0.44249 0.25897 0.0
C168 C 0.73312 0.45582 0.26838 0.0
C169 C 0.72713 0.47583 0.26308 0.0
N170 N 0.71609 0.519 0.25029 0.0
C171 C 0.73088 0.51492 0.26283 0.0
C172 C 0.74094 0.53297 0.26774 0.0
C173 C 0.73167 0.54913 0.2584 0.0
C174 C 0.71662 0.54003 0.24833 0.0
N175 N 0.68025 0.52317 0.22802 0.0
C176 C 0.6843 0.54377 0.22923 0.0
C177 C 0.67103 0.5563 0.21953 0.0
C178 C 0.65792 0.54292 0.21136 0.0
C179 C 0.66404 0.52295 0.21655 0.0
N180 N 0.67799 0.49967 0.26411 0.0
C181 C 0.65746 0.49995 0.3019 0.0
C182 C 0.66293 0.51853 0.29132 0.0
C183 C 0.67316 0.51804 0.27263 0.0
C184 C 0.66154 0.48123 0.29291 0.0
C185 C 0.67148 0.48146 0.27405 0.0
N186 N 0.7145 0.49912 0.21451 0.0
C187 C 0.73746 0.51731 0.18945 0.0
C188 C 0.7436 0.49858 0.18137 0.0
C189 C 0.73408 0.48019 0.18964 0.0
C190 C 0.71962 0.48083 0.20595 0.0
C191 C 0.72304 0.51722 0.2058 0.0
H192 H 0.71306 0.46627 0.21153 0.0
H193 H 0.71926 0.53202 0.21121 0.0
H194 H 0.67755 0.53273 0.26561 0.0
H195 H 0.6742 0.46669 0.26799 0.0
C196 C 0.69129 0.44801 0.23929 0.0
C197 C 0.6548 0.50435 0.20926 0.0
C198 C 0.73467 0.49449 0.27171 0.0
C199 C 0.70141 0.55082 0.23867 0.0
H200 H 0.63719 0.46401 0.20315 0.0
H201 H 0.65721 0.43301 0.21951 0.0
H202 H 0.72074 0.42565 0.26046 0.0
H203 H 0.74428 0.45118 0.27866 0.0
H204 H 0.75312 0.5343 0.27767 0.0
H205 H 0.73484 0.56559 0.25957 0.0
H206 H 0.67124 0.57314 0.21811 0.0
H207 H 0.64558 0.54729 0.20219 0.0
H208 H 0.66008 0.53342 0.29771 0.0
H209 H 0.6572 0.46645 0.30044 0.0
H210 H 0.74386 0.53207 0.1833 0.0
H211 H 0.73823 0.46522 0.18399 0.0
C212 C 0.29833 0.34973 0.97448 0.0
C213 C 0.30315 0.35658 0.95518 0.0
C214 C 0.28724 0.34957 0.94478 0.0
C215 C 0.27372 0.33866 0.95815 0.0
N216 N 0.28023 0.33843 0.97627 0.0
Co217 Co 0.2667 0.32301 0.99961 0.0
N218 N 0.25149 0.30411 0.98345 0.0
C219 C 0.24789 0.30792 0.9646 0.0
C220 C 0.23618 0.29247 0.95735 0.0
C221 C 0.23196 0.2782 0.97266 0.0
C222 C 0.24143 0.28573 0.98848 0.0
N223 N 0.25317 0.30785 0.02312 0.0
C224 C 0.24341 0.28896 0.02494 0.0
C225 C 0.23683 0.284 0.04437 0.0
C226 C 0.24199 0.30071 0.05482 0.0
C227 C 0.25167 0.31482 0.04136 0.0
N228 N 0.28196 0.34191 0.01561 0.0
C229 C 0.27699 0.34582 0.03442 0.0
C230 C 0.2909 0.35946 0.04153 0.0
C231 C 0.30549 0.3643 0.0262 0.0
C232 C 0.29966 0.35322 0.01061 0.0
N233 N 0.24311 0.3421 0.99977 0.0
C234 C 0.20886 0.36845 0.99733 0.0
C235 C 0.20589 0.347 1.00095 0.0
C236 C 0.22311 0.33419 0.00228 0.0
C237 C 0.22937 0.37659 0.99551 0.0
C238 C 0.24631 0.36312 0.99664 0.0
N239 N 0.29005 0.30383 0.99927 0.0
C240 C 0.31472 0.28329 0.0161 0.0
C241 C 0.32258 0.27531 0.99844 0.0
C242 C 0.31407 0.28211 0.98121 0.0
C243 C 0.29773 0.29619 0.98196 0.0
C244 C 0.2986 0.29774 0.01617 0.0
H245 H 0.29112 0.30068 0.96852 0.0
H246 H 0.29288 0.3038 0.02991 0.0
H247 H 0.22013 0.31777 0.00507 0.0
H248 H 0.26199 0.36965 0.9947 0.0
C249 C 0.25811 0.32457 0.95367 0.0
C250 C 0.3106 0.35435 0.99104 0.0
C251 C 0.23841 0.27639 0.00847 0.0
C252 C 0.26237 0.33301 0.04569 0.0
H253 H 0.31684 0.36526 0.94903 0.0
H254 H 0.28644 0.35103 0.92912 0.0
H255 H 0.23159 0.29146 0.94261 0.0
H256 H 0.22254 0.26415 0.9723 0.0
H257 H 0.22893 0.2699 0.0504 0.0
H258 H 0.23963 0.30206 0.07047 0.0
H259 H 0.29114 0.36437 0.05636 0.0
H260 H 0.31895 0.3746 0.02648 0.0
H261 H 0.1903 0.34012 0.00286 0.0
H262 H 0.23232 0.39314 0.99277 0.0
H263 H 0.32096 0.27839 0.02972 0.0
H264 H 0.31954 0.27607 0.9673 0.0
C265 C 0.25511 0.66756 0.47426 0.0
C266 C 0.25517 0.66025 0.45559 0.0
C267 C 0.27061 0.67108 0.44446 0.0
C268 C 0.279 0.68436 0.45691 0.0
N269 N 0.27016 0.68238 0.47543 0.0
Co270 Co 0.27625 0.69975 0.49789 0.0
N271 N 0.29643 0.71806 0.48082 0.0
C272 C 0.30219 0.71596 0.46165 0.0
C273 C 0.31694 0.73032 0.454 0.0
C274 C 0.32092 0.7423 0.46917 0.0
C275 C 0.30817 0.73464 0.48527 0.0
N276 N 0.28205 0.71723 0.52035 0.0
C277 C 0.29471 0.73422 0.52096 0.0
C278 C 0.29361 0.7421 0.53949 0.0
C279 C 0.28014 0.72939 0.55107 0.0
C280 C 0.27364 0.71466 0.53901 0.0
N281 N 0.25611 0.6814 0.51494 0.0
C282 C 0.25156 0.68225 0.53442 0.0
C283 C 0.23647 0.66808 0.54186 0.0
C284 C 0.23072 0.65787 0.52612 0.0
C285 C 0.24265 0.66651 0.50996 0.0
N286 N 0.29984 0.68119 0.5042 0.0
C287 C 0.33526 0.65788 0.5136 0.0
C288 C 0.31995 0.66329 0.52805 0.0
C289 C 0.30263 0.67482 0.5231 0.0
C290 C 0.33205 0.66378 0.49426 0.0
C291 C 0.31438 0.67516 0.48993 0.0
N292 N 0.25288 0.71832 0.49164 0.0
C293 C 0.22153 0.73679 0.50187 0.0
C294 C 0.21968 0.74485 0.48285 0.0
C295 C 0.23472 0.73913 0.46827 0.0
C296 C 0.25099 0.72594 0.47293 0.0
C297 C 0.23809 0.72376 0.50591 0.0
H298 H 0.26193 0.72216 0.46117 0.0
H299 H 0.2386 0.71821 0.5207 0.0
H300 H 0.29188 0.67855 0.53491 0.0
H301 H 0.31309 0.67914 0.47492 0.0
C302 C 0.29365 0.70019 0.45127 0.0
C303 C 0.23956 0.66113 0.49007 0.0
C304 C 0.30817 0.74332 0.50453 0.0
C305 C 0.25982 0.69814 0.54483 0.0
H306 H 0.24468 0.64882 0.45036 0.0
H307 H 0.27459 0.67007 0.42895 0.0
H308 H 0.32411 0.73175 0.43921 0.0
H309 H 0.33214 0.75509 0.46844 0.0
H310 H 0.30175 0.7556 0.54421 0.0
H311 H 0.27565 0.73072 0.56646 0.0
H312 H 0.22973 0.66614 0.55678 0.0
H313 H 0.21858 0.64596 0.52633 0.0
H314 H 0.32125 0.65869 0.54324 0.0
H315 H 0.34337 0.66014 0.48242 0.0
H316 H 0.21015 0.74036 0.51369 0.0
H317 H 0.23422 0.74506 0.45333 0.0
C318 C 0.78285 0.82795 0.47342 0.0
C319 C 0.78582 0.83437 0.45384 0.0
C320 C 0.76887 0.82702 0.44502 0.0
C321 C 0.75661 0.81633 0.45956 0.0
N322 N 0.76485 0.81656 0.47692 0.0
Co323 Co 0.75356 0.80141 0.50136 0.0
N324 N 0.73649 0.78221 0.48702 0.0
C325 C 0.73117 0.78568 0.46861 0.0
C326 C 0.71838 0.7703 0.4627 0.0
C327 C 0.71522 0.75645 0.47845 0.0
C328 C 0.72636 0.76413 0.49319 0.0
N329 N 0.74249 0.78644 0.526 0.0
C330 C 0.73251 0.7677 0.52893 0.0
C331 C 0.7281 0.76296 0.54877 0.0
C332 C 0.73478 0.77968 0.55842 0.0
C333 C 0.74316 0.79356 0.54408 0.0
N334 N 0.77053 0.82067 0.51556 0.0
C335 C 0.7675 0.82479 0.53454 0.0
C336 C 0.78198 0.83881 0.54017 0.0
C337 C 0.79494 0.84367 0.52367 0.0
C338 C 0.78764 0.83221 0.50893 0.0
N339 N 0.72986 0.82047 0.50345 0.0
C340 C 0.69493 0.84653 0.50438 0.0
C341 C 0.69271 0.82517 0.50917 0.0
C342 C 0.71019 0.81254 0.50865 0.0
C343 C 0.71517 0.85464 0.49922 0.0
C344 C 0.73244 0.84137 0.49898 0.0
N345 N 0.777 0.78225 0.49906 0.0
C346 C 0.80396 0.76241 0.51339 0.0
C347 C 0.81003 0.7543 0.49528 0.0
C348 C 0.79934 0.76059 0.47912 0.0
C349 C 0.7828 0.77436 0.48136 0.0
C350 C 0.78755 0.77656 0.51493 0.0
H351 H 0.77461 0.7785 0.46871 0.0
H352 H 0.78332 0.78278 0.52896 0.0
H353 H 0.70761 0.7962 0.51216 0.0
H354 H 0.74786 0.84796 0.49498 0.0
C355 C 0.7405 0.8021 0.4567 0.0
C356 C 0.79675 0.83315 0.48865 0.0
C357 C 0.72477 0.75528 0.51341 0.0
C358 C 0.75424 0.81191 0.54714 0.0
H359 H 0.79895 0.84299 0.44646 0.0
H360 H 0.76656 0.82811 0.42959 0.0
H361 H 0.7123 0.76912 0.44855 0.0
H362 H 0.70537 0.7426 0.47915 0.0
H363 H 0.72044 0.74908 0.55559 0.0
H364 H 0.73408 0.78126 0.57406 0.0
H365 H 0.7837 0.84394 0.55473 0.0
H366 H 0.80833 0.85422 0.52265 0.0
H367 H 0.67742 0.81803 0.51292 0.0
H368 H 0.71768 0.87108 0.49553 0.0
H369 H 0.8119 0.75794 0.52623 0.0
H370 H 0.80335 0.75445 0.46493 0.0
C371 C 0.49573 0.79757 0.87853 0.0
C372 C 0.4766 0.80218 0.88806 0.0
C373 C 0.46248 0.78782 0.88275 0.0
C374 C 0.4738 0.77527 0.87039 0.0
N375 N 0.4944 0.7804 0.86793 0.0
Co376 Co 0.51635 0.76751 0.85012 0.0
N377 N 0.49493 0.74968 0.83863 0.0
C378 C 0.47414 0.74854 0.844 0.0
C379 C 0.46342 0.73466 0.83381 0.0
C380 C 0.4782 0.72643 0.82115 0.0
C381 C 0.49719 0.73587 0.82427 0.0
N382 N 0.53835 0.75474 0.83222 0.0
C383 C 0.53654 0.74066 0.81831 0.0
C384 C 0.55588 0.7365 0.80883 0.0
C385 C 0.57042 0.74799 0.81729 0.0
C386 C 0.55922 0.75864 0.83127 0.0
N387 N 0.53764 0.78561 0.86148 0.0
C388 C 0.55864 0.7855 0.85751 0.0
C389 C 0.569 0.80096 0.86611 0.0
C390 C 0.55369 0.81197 0.87573 0.0
C391 C 0.53477 0.80246 0.87254 0.0
N392 N 0.52022 0.74478 0.87019 0.0
C393 C 0.52559 0.70664 0.89108 0.0
C394 C 0.54281 0.7192 0.88413 0.0
C395 C 0.53979 0.73811 0.87395 0.0
C396 C 0.50566 0.71458 0.8891 0.0
C397 C 0.5034 0.73362 0.87898 0.0
N398 N 0.51248 0.7897 0.82999 0.0
C399 C 0.5268 0.81424 0.80462 0.0
C400 C 0.50671 0.81926 0.79965 0.0
C401 C 0.48958 0.80988 0.81066 0.0
C402 C 0.4928 0.79529 0.82566 0.0
C403 C 0.52932 0.79952 0.81977 0.0
H404 H 0.47913 0.7885 0.83341 0.0
H405 H 0.54499 0.79603 0.82278 0.0
H406 H 0.55357 0.74663 0.86873 0.0
H407 H 0.48779 0.73845 0.87786 0.0
C408 C 0.46515 0.76061 0.85878 0.0
C409 C 0.51437 0.81083 0.8788 0.0
C410 C 0.51698 0.73078 0.81361 0.0
C411 C 0.56777 0.77288 0.84332 0.0
H412 H 0.47308 0.81515 0.89721 0.0
H413 H 0.44576 0.78735 0.88651 0.0
H414 H 0.44685 0.73088 0.83547 0.0
H415 H 0.4753 0.71463 0.81092 0.0
H416 H 0.55921 0.72626 0.79697 0.0
H417 H 0.58715 0.74867 0.81355 0.0
H418 H 0.58559 0.80466 0.86449 0.0
H419 H 0.55626 0.82596 0.88339 0.0
H420 H 0.55863 0.71424 0.88603 0.0
H421 H 0.4917 0.70573 0.89439 0.0
H422 H 0.54054 0.82109 0.79645 0.0
H423 H 0.47371 0.81363 0.8076 0.0
C424 C 0.52268 0.27629 0.65553 0.0
C425 C 0.54246 0.28026 0.64635 0.0
C426 C 0.55438 0.26331 0.65084 0.0
C427 C 0.54125 0.25001 0.66252 0.0
N428 N 0.5219 0.25759 0.66547 0.0
Co429 Co 0.49841 0.24473 0.68245 0.0
N430 N 0.51755 0.2275 0.69738 0.0
C431 C 0.53743 0.22309 0.69132 0.0
C432 C 0.54683 0.21046 0.70457 0.0
C433 C 0.53183 0.20652 0.71974 0.0
C434 C 0.51399 0.2169 0.71486 0.0
N435 N 0.47471 0.23205 0.69935 0.0
C436 C 0.47465 0.22116 0.7167 0.0
C437 C 0.45448 0.21444 0.72313 0.0
C438 C 0.44164 0.22124 0.70918 0.0
C439 C 0.45458 0.23168 0.69501 0.0
N440 N 0.47951 0.26196 0.66739 0.0
C441 C 0.45897 0.25847 0.66611 0.0
C442 C 0.45001 0.27405 0.65537 0.0
C443 C 0.46598 0.28814 0.64972 0.0
C444 C 0.48377 0.28033 0.6574 0.0
N445 N 0.49622 0.22236 0.66432 0.0
C446 C 0.49314 0.18996 0.63881 0.0
C447 C 0.49644 0.21057 0.63155 0.0
C448 C 0.49778 0.22658 0.64457 0.0
C449 C 0.49159 0.18596 0.65904 0.0
C450 C 0.49323 0.20227 0.67148 0.0
N451 N 0.5006 0.26703 0.70035 0.0
C452 C 0.48482 0.29614 0.71606 0.0
C453 C 0.50462 0.30386 0.71961 0.0
C454 C 0.52222 0.29204 0.71448 0.0
C455 C 0.51986 0.27362 0.70496 0.0
C456 C 0.48315 0.27761 0.7065 0.0
H457 H 0.53372 0.26519 0.70054 0.0
H458 H 0.46782 0.2724 0.70322 0.0
H459 H 0.50008 0.24238 0.63869 0.0
H460 H 0.49213 0.19852 0.68694 0.0
C461 C 0.54751 0.23347 0.67465 0.0
C462 C 0.50468 0.29009 0.65461 0.0
C463 C 0.49351 0.21489 0.72622 0.0
C464 C 0.44817 0.24368 0.67899 0.0
H465 H 0.54783 0.29405 0.63769 0.0
H466 H 0.57098 0.26163 0.64716 0.0
H467 H 0.56283 0.20523 0.70361 0.0
H468 H 0.53376 0.19687 0.73275 0.0
H469 H 0.44963 0.20521 0.73631 0.0
H470 H 0.42482 0.21917 0.70957 0.0
H471 H 0.43361 0.27573 0.65302 0.0
H472 H 0.46467 0.30259 0.64124 0.0
H473 H 0.49766 0.21431 0.61599 0.0
H474 H 0.4894 0.17022 0.66528 0.0
H475 H 0.4708 0.30474 0.71987 0.0
H476 H 0.53776 0.29714 0.7175 0.0
C477 C 0.85499 0.48395 0.75831 0.0
C478 C 0.86302 0.46497 0.76421 0.0
C479 C 0.85329 0.4501 0.75445 0.0
C480 C 0.8399 0.46079 0.74322 0.0
N481 N 0.84078 0.48165 0.74493 0.0
Co482 Co 0.82307 0.50302 0.73227 0.0
N483 N 0.8059 0.48092 0.72094 0.0
C484 C 0.80828 0.46006 0.72292 0.0
C485 C 0.79406 0.4488 0.71364 0.0
C486 C 0.78185 0.4633 0.70522 0.0
C487 C 0.78942 0.48266 0.7098 0.0
N488 N 0.80553 0.52446 0.71949 0.0
C489 C 0.78921 0.52209 0.70835 0.0
C490 C 0.78175 0.54117 0.70193 0.0
C491 C 0.79377 0.55613 0.70928 0.0
C492 C 0.80786 0.54541 0.71967 0.0
N493 N 0.83993 0.52507 0.74398 0.0
C494 C 0.83822 0.54594 0.74147 0.0
C495 C 0.85109 0.55705 0.75233 0.0
C496 C 0.86131 0.5424 0.76277 0.0
C497 C 0.85399 0.52316 0.75763 0.0
N498 N 0.84281 0.50399 0.70822 0.0
C499 C 0.86635 0.50549 0.67159 0.0
C500 C 0.86195 0.52364 0.68141 0.0
C501 C 0.85028 0.52255 0.69954 0.0
C502 C 0.85971 0.48652 0.68088 0.0
C503 C 0.84828 0.48612 0.69907 0.0
N504 N 0.8033 0.50205 0.75603 0.0
C505 C 0.78117 0.51959 0.78003 0.0
C506 C 0.77477 0.50059 0.78952 0.0
C507 C 0.78316 0.48237 0.78206 0.0
C508 C 0.79726 0.48344 0.76545 0.0
C509 C 0.79535 0.51996 0.76347 0.0
H510 H 0.80296 0.469 0.7604 0.0
H511 H 0.79965 0.53491 0.75689 0.0
H512 H 0.84718 0.53701 0.70596 0.0
H513 H 0.84377 0.47113 0.7052 0.0
C514 C 0.82437 0.45156 0.73315 0.0
C515 C 0.86003 0.50356 0.76687 0.0
C516 C 0.78046 0.50221 0.70318 0.0
C517 C 0.82313 0.55456 0.73009 0.0
H518 H 0.87412 0.46205 0.77503 0.0
H519 H 0.85492 0.43339 0.75617 0.0
H520 H 0.79281 0.43204 0.71299 0.0
H521 H 0.76889 0.46 0.6966 0.0
H522 H 0.769 0.54398 0.6928 0.0
H523 H 0.7924 0.57284 0.7073 0.0
H524 H 0.85229 0.57379 0.75316 0.0
H525 H 0.87242 0.54547 0.77339 0.0
H526 H 0.86683 0.53875 0.67486 0.0
H527 H 0.86321 0.47196 0.67409 0.0
H528 H 0.77534 0.53417 0.78537 0.0
H529 H 0.77852 0.46725 0.78872 0.0
C530 C 0.1764 0.03131 0.75992 0.0
C531 C 0.17139 0.05112 0.76574 0.0
C532 C 0.18144 0.0648 0.75225 0.0
C533 C 0.19199 0.05262 0.73903 0.0
N534 N 0.18889 0.03197 0.74304 0.0
Co535 Co 0.20223 0.00862 0.72852 0.0
N536 N 0.22116 0.02847 0.71175 0.0
C537 C 0.2218 0.04948 0.71245 0.0
C538 C 0.23649 0.05897 0.69928 0.0
C539 C 0.24586 0.04309 0.68961 0.0
C540 C 0.23632 0.02474 0.69748 0.0
N541 N 0.21519 0.98525 0.7137 0.0
C542 C 0.23046 0.98563 0.69883 0.0
C543 C 0.23448 0.9658 0.69245 0.0
C544 C 0.22118 0.95245 0.70355 0.0
C545 C 0.20985 0.9648 0.71606 0.0
N546 N 0.18393 0.98876 0.7459 0.0
C547 C 0.18272 0.96781 0.74501 0.0
C548 C 0.17034 0.95826 0.7601 0.0
C549 C 0.16375 0.97399 0.77165 0.0
C550 C 0.17253 0.99225 0.76286 0.0
N551 N 0.18053 0.01091 0.70943 0.0
C552 C 0.14996 0.01395 0.68225 0.0
C553 C 0.15322 0.99516 0.69238 0.0
C554 C 0.16849 0.99398 0.7057 0.0
C555 C 0.16206 0.03126 0.68602 0.0
C556 C 0.17704 0.02944 0.69961 0.0
N557 N 0.2234 0.00634 0.74773 0.0
C558 C 0.23818 0.9855 0.77304 0.0
C559 C 0.24323 0.00345 0.78246 0.0
C560 C 0.24036 0.0228 0.7731 0.0
C561 C 0.23075 0.02387 0.75565 0.0
C562 C 0.22847 0.98731 0.75561 0.0
H563 H 0.22837 0.03905 0.74937 0.0
H564 H 0.22415 0.97315 0.74934 0.0
H565 H 0.17032 0.9791 0.71256 0.0
H566 H 0.18562 0.04325 0.70173 0.0
C567 C 0.20772 0.05989 0.72503 0.0
C568 C 0.17067 0.01237 0.7717 0.0
C569 C 0.24178 0.00425 0.69046 0.0
C570 C 0.19493 0.95751 0.73084 0.0
H571 H 0.16226 0.05527 0.77886 0.0
H572 H 0.18215 0.08159 0.75278 0.0
H573 H 0.23978 0.07548 0.69681 0.0
H574 H 0.25815 0.04487 0.67789 0.0
H575 H 0.24595 0.9614 0.68104 0.0
H576 H 0.2201 0.9357 0.70276 0.0
H577 H 0.16729 0.94175 0.76287 0.0
H578 H 0.15419 0.97221 0.78534 0.0
H579 H 0.14443 0.98122 0.68965 0.0
H580 H 0.15999 0.04619 0.67852 0.0
H581 H 0.24064 0.97017 0.77959 0.0
H582 H 0.24492 0.03708 0.77952 0.0
C583 C 0.76673 0.17342 0.9689 0.0
C584 C 0.76426 0.16511 0.95094 0.0
C585 C 0.77823 0.17541 0.93776 0.0
C586 C 0.78835 0.18933 0.94843 0.0
N587 N 0.78213 0.18815 0.9677 0.0
Co588 Co 0.79139 0.20651 0.98827 0.0
N589 N 0.81021 0.22336 0.96864 0.0
C590 C 0.81412 0.21971 0.94948 0.0
C591 C 0.82894 0.23286 0.93995 0.0
C592 C 0.83511 0.24552 0.95388 0.0
C593 C 0.82348 0.23945 0.97116 0.0
N594 N 0.79975 0.2255 0.00873 0.0
C595 C 0.81299 0.24218 0.00723 0.0
C596 C 0.81353 0.2517 0.02492 0.0
C597 C 0.80061 0.24028 0.03818 0.0
C598 C 0.79275 0.22466 0.02783 0.0
N599 N 0.77329 0.18908 0.00802 0.0
C600 C 0.77161 0.19083 0.02759 0.0
C601 C 0.75746 0.17708 0.03728 0.0
C602 C 0.74935 0.16613 0.02303 0.0
C603 C 0.75912 0.17383 0.00538 0.0
N604 N 0.81546 0.18811 0.99302 0.0
C605 C 0.85197 0.16515 0.99911 0.0
C606 C 0.84092 0.17483 0.01446 0.0
C607 C 0.82282 0.18591 0.01118 0.0
C608 C 0.84392 0.16662 0.9808 0.0
C609 C 0.82591 0.17807 0.9781 0.0
N610 N 0.76753 0.22496 0.98351 0.0
C611 C 0.73654 0.24295 0.99551 0.0
C612 C 0.73398 0.25182 0.9769 0.0
C613 C 0.7484 0.24662 0.9616 0.0
C614 C 0.76483 0.23322 0.96517 0.0
C615 C 0.75328 0.22978 0.99847 0.0
H616 H 0.77526 0.22985 0.95289 0.0
H617 H 0.75439 0.22368 0.01303 0.0
H618 H 0.8153 0.19285 0.02356 0.0
H619 H 0.82096 0.17871 0.9637 0.0
C620 C 0.80341 0.20401 0.9408 0.0
C621 C 0.75316 0.16778 0.98639 0.0
C622 C 0.82611 0.24893 0.98972 0.0
C623 C 0.78039 0.20792 0.03594 0.0
H624 H 0.75309 0.15323 0.94768 0.0
H625 H 0.78036 0.1734 0.9222 0.0
H626 H 0.83475 0.23306 0.92473 0.0
H627 H 0.84705 0.25762 0.95156 0.0
H628 H 0.82271 0.26523 0.02805 0.0
H629 H 0.79775 0.24271 0.05362 0.0
H630 H 0.75255 0.17611 0.05273 0.0
H631 H 0.73694 0.15452 0.02543 0.0
H632 H 0.84643 0.17439 0.02895 0.0
H633 H 0.85148 0.159 0.96847 0.0
H634 H 0.72563 0.24604 0.00783 0.0
H635 H 0.74734 0.25317 0.94693 0.0
C636 C 0.11914 0.04115 0.0727 0.0
N637 N 0.09858 0.04111 0.01546 0.0
C638 C 0.11858 0.04513 0.0079 0.0
C639 C 0.12481 0.04046 0.98867 0.0
C640 C 0.11035 0.03154 0.97701 0.0
C641 C 0.08999 0.02696 0.98541 0.0
C642 C 0.08441 0.03191 0.00471 0.0
Zn643 Zn 0.08913 0.05125 0.04268 0.0
C644 C 0.06372 0.01862 0.06734 0.0
N645 N 0.06899 0.07382 0.09884 0.0
C646 C 0.08399 0.08282 0.10879 0.0
C647 C 0.04838 0.07456 0.10532 0.0
C648 C 0.04218 0.0854 0.12196 0.0
C649 C 0.05736 0.09522 0.13218 0.0
C650 C 0.07852 0.09345 0.12564 0.0
Zn651 Zn 0.07811 0.06221 0.0721 0.0
O652 O 0.11713 0.03936 0.05456 0.0
C653 C 0.10464 0.09417 0.04749 0.0
O654 O 0.10505 0.05014 0.08308 0.0
H655 H 0.03665 0.06735 0.09724 0.0
H656 H 0.12959 0.05255 0.01662 0.0
H657 H 0.10024 0.08248 0.10327 0.0
O658 O 0.10488 0.07987 0.03536 0.0
O659 O 0.09431 0.09123 0.06399 0.0
H660 H 0.06859 0.02883 0.01096 0.0
O661 O 0.05105 0.07374 0.06092 0.0
O662 O 0.06076 0.06361 0.03161 0.0
O663 O 0.06254 0.0329 0.07963 0.0
O664 O 0.07355 0.02235 0.05069 0.0
C665 C 0.04736 0.0722 0.0432 0.0
H666 H 0.1406 0.04451 0.98282 0.0
H667 H 0.07839 0.0198 0.97712 0.0
H668 H 0.02569 0.08634 0.12663 0.0
H669 H 0.09069 0.10102 0.13298 0.0
C670 C 0.92616 0.4693 0.05097 0.0
N671 N 0.95314 0.48136 0.99332 0.0
C672 C 0.93387 0.47546 0.98834 0.0
C673 C 0.92742 0.48089 0.96993 0.0
C674 C 0.94093 0.49244 0.9563 0.0
C675 C 0.96066 0.4986 0.96185 0.0
C676 C 0.96646 0.49292 0.98057 0.0
Zn677 Zn 0.9618 0.47014 0.01994 0.0
C678 C 0.97775 0.5022 0.04448 0.0
N679 N 0.97817 0.4439 0.07468 0.0
C680 C 0.96424 0.43032 0.08455 0.0
C681 C 0.99629 0.44945 0.08231 0.0
C682 C 1.00096 0.44115 0.10058 0.0
C683 C 0.98678 0.42712 0.11112 0.0
C684 C 0.96816 0.42186 0.10286 0.0
Zn685 Zn 0.97063 0.456 0.04823 0.0
O686 O 0.93064 0.4759 0.03337 0.0
C687 C 0.9541 0.42403 0.02385 0.0
O688 O 0.94009 0.46016 0.06007 0.0
H689 H 0.00713 0.46031 0.07422 0.0
H690 H 0.92361 0.46599 0.9985 0.0
H691 H 0.94992 0.42611 0.07828 0.0
O692 O 0.95204 0.44017 0.0129 0.0
O693 O 0.96227 0.42577 0.03994 0.0
H694 H 0.98174 0.49739 0.98476 0.0
O695 O 1.00117 0.45223 0.0365 0.0
O696 O 0.99332 0.46404 0.00751 0.0
O697 O 0.97866 0.48625 0.05601 0.0
O698 O 0.97153 0.50014 0.02754 0.0
C699 C 0.00669 0.45675 0.01868 0.0
H700 H 0.91224 0.47547 0.96621 0.0
H701 H 0.97152 0.50763 0.95182 0.0
H702 H 0.01559 0.44551 0.10627 0.0
H703 H 0.95652 0.41149 0.11056 0.0
C704 C 0.02946 0.97417 0.42474 0.0
N705 N 0.03697 0.92041 0.39256 0.0
C706 C 0.01854 0.92398 0.38455 0.0
C707 C 0.0149 0.91585 0.36663 0.0
C708 C 0.03039 0.90394 0.35706 0.0
C709 C 0.0495 0.90117 0.36535 0.0
C710 C 0.05245 0.90952 0.38322 0.0
Zn711 Zn 0.04202 0.93042 0.41925 0.0
C712 C 0.08465 0.94974 0.41813 0.0
N713 N 0.05407 0.9508 0.47494 0.0
C714 C 0.03807 0.95995 0.48537 0.0
C715 C 0.07336 0.94919 0.48172 0.0
C716 C 0.07724 0.9573 0.49956 0.0
C717 C 0.06104 0.96697 0.51054 0.0
C718 C 0.0412 0.96808 0.50336 0.0
Zn719 Zn 0.04899 0.94047 0.44828 0.0
O720 O 0.02962 0.96052 0.41189 0.0
C721 C 0.00583 0.92055 0.44774 0.0
O722 O 0.03611 0.96937 0.4412 0.0
H723 H 0.08581 0.94178 0.47319 0.0
H724 H 0.0065 0.93275 0.39227 0.0
H725 H 0.02292 0.96122 0.47959 0.0
O726 O 0.0121 0.91979 0.42985 0.0
O727 O 0.01807 0.92801 0.45951 0.0
H728 H 0.06703 0.90698 0.38979 0.0
O729 O 0.06246 0.91191 0.4554 0.0
O730 O 0.05544 0.90055 0.42706 0.0
O731 O 0.07981 0.95251 0.43616 0.0
O732 O 0.07144 0.941 0.40833 0.0
C733 C 0.06347 0.89757 0.44331 0.0
H734 H 0.99991 0.9182 0.36069 0.0
H735 H 0.06194 0.89235 0.35824 0.0
H736 H 0.09269 0.95595 0.50478 0.0
H737 H 0.02839 0.97559 0.51137 0.0
C738 C 0.93942 0.58161 0.44601 0.0
N739 N 1.00098 0.55933 0.44104 0.0
C740 C 0.00762 0.57875 0.43442 0.0
C741 C 0.0273 0.58627 0.43835 0.0
C742 C 0.04033 0.57372 0.44924 0.0
C743 C 0.03319 0.55361 0.45567 0.0
C744 C 0.01335 0.54671 0.45141 0.0
Zn745 Zn 0.97154 0.54964 0.43569 0.0
C746 C 0.94892 0.52836 0.47099 0.0
N747 N 0.91023 0.5301 0.42501 0.0
C748 C 0.8971 0.54411 0.4173 0.0
C749 C 0.90431 0.50982 0.42882 0.0
C750 C 0.88475 0.50275 0.42412 0.0
C751 C 0.87112 0.51678 0.41572 0.0
C752 C 0.8773 0.53776 0.41264 0.0
Zn753 Zn 0.93957 0.53953 0.4302 0.0
O754 O 0.95918 0.57952 0.44399 0.0
C755 C 0.96156 0.56213 0.39514 0.0
O756 O 0.92757 0.56686 0.44167 0.0
H757 H 0.91495 0.499 0.43511 0.0
H758 H 0.99757 0.58853 0.42617 0.0
H759 H 0.90218 0.56012 0.41431 0.0
O760 O 0.97669 0.56124 0.40602 0.0
O761 O 0.94379 0.55457 0.4017 0.0
H762 H 0.00773 0.53134 0.45659 0.0
O763 O 0.9517 0.5119 0.41889 0.0
O764 O 0.98307 0.51932 0.42748 0.0
O765 O 0.9355 0.52524 0.45874 0.0
O766 O 0.96573 0.53839 0.46535 0.0
C767 C 0.97059 0.50675 0.42019 0.0
H768 H 0.03228 0.60175 0.43284 0.0
H769 H 0.04263 0.54349 0.46427 0.0
H770 H 0.88045 0.48644 0.4267 0.0
H771 H 0.86731 0.54896 0.40589 0.0
C772 C 0.41974 0.97406 0.55605 0.0
N773 N 0.4459 0.97566 0.4973 0.0
C774 C 0.42603 0.97144 0.49279 0.0
C775 C 0.41989 0.97638 0.47416 0.0
C776 C 0.43428 0.98577 0.45984 0.0
C777 C 0.45467 0.99018 0.46491 0.0
C778 C 0.46017 0.985 0.48384 0.0
Zn779 Zn 0.4536 0.96569 0.52464 0.0
C780 C 0.47563 0.99749 0.54555 0.0
N781 N 0.4676 0.94264 0.58108 0.0
C782 C 0.45193 0.93306 0.59282 0.0
C783 C 0.48715 0.94497 0.58716 0.0
C784 C 0.49159 0.93725 0.60567 0.0
C785 C 0.4757 0.92714 0.61803 0.0
C786 C 0.45561 0.9253 0.61143 0.0
Zn787 Zn 0.46091 0.95332 0.554 0.0
O788 O 0.42355 0.97631 0.5376 0.0
C789 C 0.43805 0.92184 0.53344 0.0
O790 O 0.43305 0.96518 0.56609 0.0
H791 H 0.49937 0.95267 0.57758 0.0
H792 H 0.41496 0.96377 0.50356 0.0
H793 H 0.43649 0.9314 0.58774 0.0
O794 O 0.43972 0.9364 0.52028 0.0
O795 O 0.44565 0.92453 0.54966 0.0
H796 H 0.4759 0.98816 0.48769 0.0
O797 O 0.48875 0.94158 0.54211 0.0
O798 O 0.4841 0.95453 0.51275 0.0
O799 O 0.47582 0.98221 0.55796 0.0
O800 O 0.4672 0.99514 0.52962 0.0
C801 C 0.49528 0.94429 0.52429 0.0
H802 H 0.40414 0.97231 0.47088 0.0
H803 H 0.46624 0.99755 0.45439 0.0
H804 H 0.50735 0.93884 0.61009 0.0
H805 H 0.44277 0.918 0.62057 0.0
C806 C 0.59814 0.5307 0.59873 0.0
N807 N 0.57492 0.52766 0.54282 0.0
C808 C 0.59523 0.5297 0.53544 0.0
C809 C 0.6011 0.52434 0.51635 0.0
C810 C 0.5859 0.51706 0.50458 0.0
C811 C 0.56514 0.51463 0.51268 0.0
C812 C 0.55999 0.51992 0.53196 0.0
Zn813 Zn 0.56658 0.53901 0.56978 0.0
C814 C 0.5423 0.50755 0.59651 0.0
N815 N 0.54937 0.56489 0.62528 0.0
C816 C 0.5651 0.57394 0.6343 0.0
C817 C 0.5291 0.5659 0.63278 0.0
C818 C 0.52402 0.57682 0.64964 0.0
C819 C 0.53999 0.58645 0.65906 0.0
C820 C 0.56076 0.58463 0.65133 0.0
Zn821 Zn 0.55707 0.55202 0.59873 0.0
O822 O 0.59499 0.52753 0.58104 0.0
C823 C 0.58307 0.58234 0.57178 0.0
O824 O 0.58463 0.54046 0.60907 0.0
H825 H 0.51678 0.55869 0.62542 0.0
H826 H 0.60683 0.53615 0.54416 0.0
H827 H 0.58106 0.57343 0.62799 0.0
O828 O 0.58238 0.56716 0.56068 0.0
O829 O 0.57337 0.58074 0.58869 0.0
H830 H 0.54395 0.51836 0.53807 0.0
O831 O 0.52937 0.56348 0.58799 0.0
O832 O 0.53783 0.55106 0.55933 0.0
O833 O 0.54164 0.52253 0.60813 0.0
O834 O 0.55121 0.51059 0.57938 0.0
C835 C 0.52507 0.56093 0.57055 0.0
H836 H 0.61723 0.52667 0.51059 0.0
H837 H 0.55299 0.50891 0.50413 0.0
H838 H 0.5078 0.57781 0.6552 0.0
H839 H 0.5735 0.59208 0.65797 0.0
C840 C 0.54677 0.4884 0.94007 0.0
N841 N 0.55317 0.44022 0.90176 0.0
C842 C 0.53425 0.4459 0.89579 0.0
C843 C 0.52951 0.443 0.87669 0.0
C844 C 0.54438 0.43416 0.86361 0.0
C845 C 0.56385 0.42858 0.8701 0.0
C846 C 0.56794 0.43175 0.88937 0.0
Zn847 Zn 0.55937 0.44569 0.92952 0.0
C848 C 0.60144 0.46484 0.93056 0.0
N849 N 0.57175 0.4584 0.98754 0.0
C850 C 0.55681 0.46802 0.99888 0.0
C851 C 0.59066 0.45379 0.99415 0.0
C852 C 0.59527 0.45925 0.01275 0.0
C853 C 0.58028 0.46957 0.02464 0.0
C854 C 0.56076 0.47377 0.01756 0.0
Zn855 Zn 0.56591 0.45201 0.95981 0.0
O856 O 0.54637 0.47587 0.92635 0.0
C857 C 0.5231 0.43311 0.95749 0.0
O858 O 0.55405 0.48231 0.95594 0.0
H859 H 0.60228 0.4461 0.98489 0.0
H860 H 0.5228 0.45276 0.90586 0.0
H861 H 0.54191 0.4716 0.99328 0.0
O862 O 0.52987 0.43335 0.93965 0.0
O863 O 0.53488 0.4399 0.96995 0.0
H864 H 0.58289 0.42742 0.89445 0.0
O865 O 0.57821 0.42218 0.9634 0.0
O866 O 0.5734 0.41545 0.93309 0.0
O867 O 0.59682 0.4638 0.94894 0.0
O868 O 0.58836 0.45844 0.91924 0.0
C869 C 0.58024 0.40994 0.94943 0.0
H870 H 0.51437 0.44765 0.87221 0.0
H871 H 0.57561 0.42141 0.86053 0.0
H872 H 0.6104 0.45543 0.01777 0.0
H873 H 0.54884 0.48189 0.02615 0.0
C874 C 0.4457 0.098 0.95377 0.0
N875 N 0.50737 0.07615 0.94873 0.0
C876 C 0.51323 0.09639 0.94469 0.0
C877 C 0.53311 0.10343 0.94845 0.0
C878 C 0.54739 0.08945 0.95609 0.0
C879 C 0.5409 0.06858 0.96002 0.0
C880 C 0.52069 0.06229 0.95637 0.0
Zn881 Zn 0.47806 0.06671 0.943 0.0
C882 C 0.45539 0.04391 0.97717 0.0
N883 N 0.41728 0.04706 0.93087 0.0
C884 C 0.40392 0.06071 0.923 0.0
C885 C 0.41154 0.02685 0.93538 0.0
C886 C 0.3918 0.01951 0.93154 0.0
C887 C 0.37783 0.03316 0.92313 0.0
C888 C 0.38396 0.05406 0.91905 0.0
Zn889 Zn 0.44642 0.05673 0.93627 0.0
O890 O 0.46542 0.09568 0.95265 0.0
C891 C 0.46847 0.08119 0.90249 0.0
O892 O 0.43402 0.08375 0.94816 0.0
H893 H 0.42237 0.01633 0.94179 0.0
H894 H 0.50245 0.10716 0.93854 0.0
H895 H 0.40885 0.0767 0.91955 0.0
O896 O 0.48312 0.08025 0.91394 0.0
O897 O 0.45088 0.07251 0.90803 0.0
H898 H 0.5157 0.04627 0.95953 0.0
O899 O 0.45878 0.02947 0.92452 0.0
O900 O 0.48996 0.0371 0.93336 0.0
O901 O 0.44213 0.04174 0.96459 0.0
O902 O 0.47242 0.05385 0.97216 0.0
C903 C 0.47773 0.02457 0.92575 0.0
H904 H 0.53711 0.11975 0.94554 0.0
H905 H 0.55136 0.0571 0.96561 0.0
H906 H 0.38757 0.00331 0.93495 0.0
H907 H 0.37372 0.06497 0.91226 0.0
C908 C 0.02248 0.16302 0.3952 0.0
C909 C 0.01355 0.16943 0.37795 0.0
C910 C 0.02126 0.14201 0.40183 0.0
C911 C 0.01759 0.09038 0.38218 0.0
H912 H 0.00361 0.07012 0.43558 0.0
C913 C 0.01549 0.00219 0.40266 0.0
C914 C 0.02345 0.99601 0.42043 0.0
C915 C 0.0117 0.02326 0.39827 0.0
C916 C 0.0078 0.07549 0.42062 0.0
H917 H 0.99477 0.15923 0.35514 0.0
H918 H 0.99298 0.12282 0.36649 0.0
H919 H 0.00244 0.10741 0.42723 0.0
H920 H 0.03322 0.00714 0.4477 0.0
H921 H 0.02734 0.04352 0.43984 0.0
H922 H 0.02376 0.05883 0.37553 0.0
C923 C 1.00125 0.13383 0.37468 0.0
C924 C 0.00706 0.09688 0.41587 0.0
C925 C 0.00231 0.1547 0.3682 0.0
C926 C 0.027 0.01128 0.43387 0.0
C927 C 0.02347 0.03226 0.42941 0.0
C928 C 0.01862 0.06908 0.38695 0.0
C929 C 0.01117 0.12714 0.39125 0.0
C930 C 0.01193 0.10452 0.39659 0.0
C931 C 0.01601 0.03864 0.41146 0.0
C932 C 0.01379 0.06129 0.40625 0.0
H933 H 0.03122 0.174 0.40302 0.0
H934 H 0.02903 0.13724 0.41468 0.0
H935 H 0.0217 0.09587 0.36722 0.0
H936 H 0.01249 0.99082 0.39203 0.0
H937 H 0.00556 0.02747 0.38444 0.0
C938 C 0.01352 0.32347 0.39109 0.0
C939 C 0.00655 0.3164 0.37365 0.0
C940 C 0.01049 0.34416 0.39615 0.0
C941 C 0.97655 0.38867 0.38917 0.0
H942 H 0.02319 0.42254 0.40295 0.0
C943 C 0.96642 0.47628 0.39952 0.0
C944 C 0.97728 0.48599 0.41368 0.0
C945 C 0.97101 0.45597 0.3944 0.0
C946 C 0.00988 0.41329 0.39946 0.0
H947 H 0.99 0.325 0.34836 0.0
H948 H 0.9841 0.36101 0.35746 0.0
H949 H 0.02866 0.3862 0.39521 0.0
H950 H 0.00176 0.48206 0.43338 0.0
H951 H 0.00932 0.44618 0.42506 0.0
H952 H 0.9575 0.41517 0.39403 0.0
C953 C 0.99233 0.35071 0.36701 0.0
C954 C 0.01307 0.39244 0.39493 0.0
C955 C 0.99569 0.33014 0.3618 0.0
C956 C 0.99323 0.47504 0.42231 0.0
C957 C 0.99757 0.45444 0.41746 0.0
C958 C 0.97326 0.40934 0.39402 0.0
C959 C 0.99989 0.35802 0.38414 0.0
C960 C 0.99648 0.37998 0.38954 0.0
C961 C 0.98628 0.44447 0.40361 0.0
C962 C 0.9899 0.42212 0.39901 0.0
H963 H 0.02115 0.31297 0.40092 0.0
H964 H 0.01612 0.34923 0.40963 0.0
H965 H 0.96338 0.37937 0.38537 0.0
H966 H 0.95419 0.48438 0.39241 0.0
H967 H 0.9624 0.4493 0.38321 0.0
C968 C 0.00325 0.8365 0.10622 0.0
C969 C 0.01727 0.82561 0.11754 0.0
C970 C 0.00685 0.85757 0.10061 0.0
C971 C 0.03641 0.90445 0.11375 0.0
H972 H 0.02464 0.92583 0.06224 0.0
C973 C 0.04563 0.99225 0.09147 0.0
C974 C 0.0551 0.99733 0.07267 0.0
C975 C 0.03921 0.97171 0.09687 0.0
C976 C 0.02811 0.92012 0.07666 0.0
H977 H 0.04608 0.82864 0.13183 0.0
H978 H 0.05262 0.86498 0.12161 0.0
H979 H 0.01786 0.88915 0.07147 0.0
H980 H 0.06474 0.98475 0.04468 0.0
H981 H 0.05383 0.94911 0.05413 0.0
H982 H 0.04728 0.93522 0.11874 0.0
C983 C 0.03866 0.85735 0.11727 0.0
C984 C 0.02399 0.89909 0.08204 0.0
C985 C 0.03507 0.83634 0.12289 0.0
C986 C 0.05746 0.98147 0.05927 0.0
C987 C 0.05108 0.96097 0.06468 0.0
C988 C 0.04054 0.92545 0.10837 0.0
C989 C 0.02453 0.86833 0.10619 0.0
C990 C 0.02826 0.89091 0.1006 0.0
C991 C 0.04211 0.95573 0.08363 0.0
C992 C 0.03661 0.93357 0.08969 0.0
H993 H 0.98947 0.82876 0.10167 0.0
H994 H 0.99553 0.86552 0.09219 0.0
H995 H 0.0396 0.89883 0.12827 0.0
H996 H 0.04351 0.00406 0.10215 0.0
H997 H 0.03207 0.96835 0.1115 0.0
C998 C 0.99676 0.68092 0.09737 0.0
C999 C 1.00019 0.68153 0.11721 0.0
C1000 C 0.99531 0.6618 0.08862 0.0
C1001 C 0.98426 0.60608 0.10121 0.0
H1002 H 0.00895 0.59794 0.04884 0.0
C1003 C 0.98914 0.525 0.07024 0.0
C1004 C 0.98286 0.52301 0.05129 0.0
C1005 C 0.99233 0.54461 0.07743 0.0
C1006 C 0.00184 0.60006 0.06341 0.0
H1007 H 0.0055 0.66319 0.14342 0.0
H1008 H 0.00336 0.62972 0.12816 0.0
H1009 H 0.01244 0.63184 0.06313 0.0
H1010 H 0.97575 0.54009 0.02475 0.0
H1011 H 0.98132 0.57449 0.03741 0.0
H1012 H 0.97375 0.57436 0.10158 0.0
C1013 C 1.00128 0.64384 0.11939 0.0
C1014 C 0.0038 0.61946 0.07158 0.0
C1015 C 0.00264 0.66293 0.12811 0.0
C1016 C 0.98055 0.5411 0.03943 0.0
C1017 C 0.98381 0.56079 0.04664 0.0
C1018 C 0.98238 0.58673 0.09309 0.0
C1019 C 0.99738 0.64303 0.09959 0.0
C1020 C 0.99512 0.62263 0.09063 0.0
C1021 C 0.98936 0.56272 0.06585 0.0
C1022 C 0.99125 0.58347 0.07417 0.0
H1023 H 0.995 0.69522 0.08874 0.0
H1024 H 0.99214 0.66171 0.07339 0.0
H1025 H 0.97699 0.60811 0.11574 0.0
H1026 H 0.99122 0.51139 0.07972 0.0
H1027 H 0.99697 0.54562 0.09217 0.0
C1028 C 0.39441 0.02645 0.15135 0.0
C1029 C 0.37761 0.0122 0.15528 0.0
C1030 C 0.40486 0.02857 0.13266 0.0
C1031 C 0.41168 0.00235 0.08506 0.0
H1032 H 0.43059 0.05732 0.06502 0.0
C1033 C 0.43235 0.0239 0.00293 0.0
C1034 C 0.44992 0.03694 0.99785 0.0
C1035 C 0.42557 0.01941 0.02255 0.0
C1036 C 0.42564 0.04182 0.07049 0.0
H1037 H 0.35838 0.98929 0.14255 0.0
H1038 H 0.37612 0.9933 0.10997 0.0
H1039 H 0.41458 0.05272 0.09829 0.0
H1040 H 0.4745 0.05501 0.00949 0.0
H1041 H 0.46251 0.0473 0.04373 0.0
H1042 H 0.42212 0.99168 0.05689 0.0
C1043 C 0.38176 0.00243 0.12138 0.0
C1044 C 0.41648 0.03914 0.08962 0.0
C1045 C 0.3715 1.00015 0.14009 0.0
C1046 C 0.46095 0.04485 0.01287 0.0
C1047 C 0.45399 0.04058 0.03249 0.0
C1048 C 0.42061 0.00509 0.06585 0.0
C1049 C 0.39861 0.01668 0.11734 0.0
C1050 C 0.40922 0.01939 0.09717 0.0
C1051 C 0.43604 0.02806 0.03755 0.0
C1052 C 0.42759 0.02487 0.0583 0.0
H1053 H 0.39962 0.03582 0.16279 0.0
H1054 H 0.41795 0.03945 0.13028 0.0
H1055 H 0.40673 0.98682 0.0904 0.0
H1056 H 0.42348 0.01757 0.99174 0.0
H1057 H 0.41161 0.00982 0.02595 0.0
C1058 C 0.62221 0.50214 0.19163 0.0
C1059 C 0.6438 0.50608 0.19119 0.0
C1060 C 0.61242 0.50172 0.17421 0.0
C1061 C 0.61945 0.51643 0.12137 0.0
H1062 H 0.58537 0.46703 0.11593 0.0
C1063 C 0.60489 0.48496 0.0468 0.0
C1064 C 0.58514 0.47629 0.04413 0.0
C1065 C 0.60962 0.49115 0.06514 0.0
C1066 C 0.59451 0.48111 0.11728 0.0
H1067 H 0.67206 0.51361 0.17279 0.0
H1068 H 0.65505 0.51292 0.14226 0.0
H1069 H 0.59764 0.47417 0.1476 0.0
H1070 H 0.5548 0.46744 0.05859 0.0
H1071 H 0.56298 0.47853 0.09063 0.0
H1072 H 0.61674 0.52309 0.09092 0.0
C1073 C 0.64558 0.51026 0.15592 0.0
C1074 C 0.60152 0.48521 0.13544 0.0
C1075 C 0.65534 0.51056 0.17331 0.0
C1076 C 0.57012 0.47419 0.06016 0.0
C1077 C 0.57485 0.48038 0.07854 0.0
C1078 C 0.6124 0.51235 0.10321 0.0
C1079 C 0.6241 0.50542 0.15616 0.0
C1080 C 0.61445 0.50266 0.13757 0.0
C1081 C 0.59469 0.48884 0.08124 0.0
C1082 C 0.60025 0.4944 0.10088 0.0
H1083 H 0.6131 0.49877 0.20539 0.0
H1084 H 0.59581 0.49816 0.17482 0.0
H1085 H 0.62914 0.53016 0.12266 0.0
H1086 H 0.6167 0.48706 0.03468 0.0
H1087 H 0.62514 0.49735 0.06679 0.0
C1088 C 0.35151 0.00578 0.30598 0.0
C1089 C 0.36356 1.001 0.28891 0.0
C1090 C 0.36038 0.00535 0.32392 0.0
C1091 C 0.40418 0.98335 0.34947 0.0
H1092 H 0.39019 0.026 0.38615 0.0
C1093 C 0.44161 0.98616 0.42326 0.0
C1094 C 0.42802 0.99024 0.43967 0.0
C1095 C 0.43501 0.98883 0.40438 0.0
C1096 C 0.39414 0.01386 0.37616 0.0
H1097 H 0.39426 0.99245 0.27688 0.0
H1098 H 0.4099 0.99158 0.30832 0.0
H1099 H 0.37613 0.02773 0.35423 0.0
H1100 H 0.39713 1.00118 0.44896 0.0
H1101 H 0.38553 0.00541 0.41622 0.0
H1102 H 0.42193 0.96929 0.3715 0.0
C1103 C 0.39354 0.9954 0.30794 0.0
C1104 C 0.38606 0.01485 0.35784 0.0
C1105 C 0.38466 0.99593 0.28997 0.0
C1106 C 0.40792 0.99762 0.43669 0.0
C1107 C 0.40134 1.00029 0.41786 0.0
C1108 C 0.41222 0.98232 0.36782 0.0
C1109 C 0.3815 1.00013 0.32514 0.0
C1110 C 0.39082 0.99951 0.34433 0.0
C1111 C 0.4147 0.9957 0.40145 0.0
C1112 C 0.40714 0.99746 0.38149 0.0
H1113 H 0.3352 0.00979 0.30541 0.0
H1114 H 0.35059 0.00882 0.33689 0.0
H1115 H 0.40797 0.97114 0.3395 0.0
H1116 H 0.45714 0.98031 0.42501 0.0
H1117 H 0.44582 0.98539 0.39208 0.0
C1118 C 0.65657 0.48745 0.33702 0.0
C1119 C 0.64834 0.50013 0.32243 0.0
C1120 C 0.6488 0.48837 0.35655 0.0
C1121 C 0.61803 0.52243 0.39021 0.0
H1122 H 0.6165 0.47326 0.42514 0.0
C1123 C 0.57933 0.5213 0.46915 0.0
C1124 C 0.59153 0.51315 0.4837 0.0
C1125 C 0.58538 0.51891 0.4494 0.0
C1126 C 0.61693 0.48713 0.41556 0.0
H1127 H 0.62514 0.52329 0.31671 0.0
H1128 H 0.61103 0.52445 0.35063 0.0
H1129 H 0.62819 0.47048 0.39074 0.0
H1130 H 0.61929 0.49559 0.48899 0.0
H1131 H 0.62971 0.49115 0.45443 0.0
H1132 H 0.60638 0.53893 0.41507 0.0
C1133 C 0.62393 0.51421 0.34719 0.0
C1134 C 0.62372 0.48559 0.39583 0.0
C1135 C 0.63191 0.51348 0.3277 0.0
C1136 C 0.60964 0.50211 0.47809 0.0
C1137 C 0.61552 0.49947 0.45833 0.0
C1138 C 0.61098 0.52389 0.40986 0.0
C1139 C 0.63241 0.50183 0.36195 0.0
C1140 C 0.62452 0.50326 0.38288 0.0
C1141 C 0.6036 0.50807 0.44377 0.0
C1142 C 0.61048 0.50629 0.42277 0.0
H1143 H 0.66946 0.47722 0.33341 0.0
H1144 H 0.65605 0.47888 0.36745 0.0
H1145 H 0.6188 0.53649 0.38088 0.0
H1146 H 0.56541 0.53004 0.47302 0.0
H1147 H 0.57582 0.52559 0.4385 0.0
C1148 C 0.17433 0.37622 0.98413 0.0
C1149 C 0.19043 0.38198 0.99567 0.0
C1150 C 0.15597 0.38769 0.98398 0.0
C1151 C 0.12308 0.41945 0.01576 0.0
H1152 H 0.09444 0.4337 0.9695 0.0
C1153 C 0.04442 0.46013 0.02346 0.0
C1154 C 0.02877 0.4538 0.01177 0.0
C1155 C 0.06518 0.45453 0.01928 0.0
C1156 C 0.10211 0.42966 0.98258 0.0
H1157 H 0.2002 0.40462 0.01562 0.0
H1158 H 0.1679 0.42457 0.01559 0.0
H1159 H 0.12904 0.41802 0.9662 0.0
H1160 H 0.02246 0.43727 0.98614 0.0
H1161 H 0.05875 0.42658 0.97914 0.0
H1162 H 0.09608 0.42994 0.0323 0.0
C1163 C 0.16957 0.41119 0.00662 0.0
C1164 C 0.12198 0.42078 0.98067 0.0
C1165 C 0.18809 0.39988 0.00655 0.0
C1166 C 0.03435 0.44249 0.99525 0.0
C1167 C 0.05516 0.43641 0.99128 0.0
C1168 C 0.10318 0.42802 0.0177 0.0
C1169 C 0.15318 0.40502 0.99557 0.0
C1170 C 0.13266 0.41557 0.99726 0.0
C1171 C 0.07076 0.44186 0.00361 0.0
C1172 C 0.09235 0.43329 0.00117 0.0
H1173 H 0.1758 0.36258 0.97548 0.0
H1174 H 0.14359 0.38246 0.97543 0.0
H1175 H 0.13071 0.41521 0.02884 0.0
H1176 H 0.04049 0.46901 0.03623 0.0
H1177 H 0.07674 0.45969 0.02874 0.0
C1178 C 0.21848 0.63032 0.48119 0.0
C1179 C 0.21949 0.65131 0.48578 0.0
C1180 C 0.19933 0.62112 0.47762 0.0
C1181 C 0.14219 0.62753 0.48676 0.0
H1182 H 0.13884 0.5911 0.44368 0.0
C1183 C 0.06342 0.60242 0.45948 0.0
C1184 C 0.06108 0.58175 0.45407 0.0
C1185 C 0.08289 0.61013 0.46387 0.0
C1186 C 0.13955 0.60102 0.45592 0.0
H1187 H 0.20172 0.6792 0.49051 0.0
H1188 H 0.16819 0.66328 0.48413 0.0
H1189 H 0.17263 0.60601 0.4503 0.0
H1190 H 0.07745 0.55297 0.44899 0.0
H1191 H 0.11144 0.56636 0.45694 0.0
H1192 H 0.10914 0.62265 0.49234 0.0
C1193 C 0.18204 0.65381 0.4834 0.0
C1194 C 0.15892 0.60957 0.45971 0.0
C1195 C 0.20117 0.66297 0.48692 0.0
C1196 C 0.07869 0.56892 0.45325 0.0
C1197 C 0.0982 0.57666 0.45761 0.0
C1198 C 0.12285 0.61898 0.48298 0.0
C1199 C 0.18087 0.63276 0.47874 0.0
C1200 C 0.16043 0.62307 0.47508 0.0
C1201 C 0.10053 0.59736 0.46296 0.0
C1202 C 0.12127 0.60576 0.46742 0.0
H1203 H 0.23248 0.62106 0.48048 0.0
H1204 H 0.19892 0.60482 0.47431 0.0
H1205 H 0.14287 0.63755 0.49894 0.0
H1206 H 0.05014 0.61265 0.46049 0.0
H1207 H 0.08417 0.62622 0.46772 0.0
C1208 C 0.82233 0.86038 0.47286 0.0
C1209 C 0.81847 0.84173 0.48412 0.0
C1210 C 0.84269 0.8687 0.46951 0.0
C1211 C 0.89274 0.87309 0.49003 0.0
H1212 H 0.9167 0.88216 0.43679 0.0
C1213 C 0.97928 0.90198 0.47185 0.0
C1214 C 0.98419 0.91327 0.45408 0.0
C1215 C 0.9591 0.89327 0.47633 0.0
C1216 C 0.91024 0.88024 0.45179 0.0
H1217 H 0.83268 0.81785 0.50164 0.0
H1218 H 0.86828 0.83283 0.49632 0.0
H1219 H 0.88151 0.86753 0.44299 0.0
H1220 H 0.9716 0.92537 0.42764 0.0
H1221 H 0.93647 0.91166 0.43586 0.0
H1222 H 0.92096 0.8866 0.49896 0.0
C1223 C 0.8556 0.84063 0.48964 0.0
C1224 C 0.89005 0.87162 0.45529 0.0
C1225 C 0.8353 0.83203 0.49259 0.0
C1226 C 0.96835 0.91649 0.44135 0.0
C1227 C 0.94818 0.90833 0.44601 0.0
C1228 C 0.91281 0.88221 0.48654 0.0
C1229 C 0.85952 0.85897 0.47794 0.0
C1230 C 0.88108 0.86795 0.47442 0.0
C1231 C 0.94327 0.89606 0.46331 0.0
C1232 C 0.9219 0.88603 0.46733 0.0
H1233 H 0.80955 0.86878 0.46696 0.0
H1234 H 0.84525 0.88303 0.46068 0.0
H1235 H 0.88612 0.8705 0.50495 0.0
H1236 H 0.99124 0.89914 0.48188 0.0
H1237 H 0.9562 0.88383 0.48973 0.0
C1238 C 0.36384 0.65068 0.53608 0.0
C1239 C 0.35452 0.64662 0.51875 0.0
C1240 C 0.38186 0.64028 0.54098 0.0
C1241 C 0.42747 0.61213 0.52015 0.0
H1242 H 0.43091 0.59165 0.57365 0.0
C1243 C 0.49889 0.56556 0.54513 0.0
C1244 C 0.50544 0.56965 0.56363 0.0
C1245 C 0.48021 0.57387 0.53901 0.0
C1246 C 0.43038 0.59748 0.55868 0.0
H1247 H 0.35712 0.62814 0.49306 0.0
H1248 H 0.38881 0.61033 0.50148 0.0
H1249 H 0.39913 0.6083 0.56426 0.0
H1250 H 0.49756 0.58604 0.59005 0.0
H1251 H 0.46559 0.60076 0.57932 0.0
H1252 H 0.45892 0.60171 0.51466 0.0
C1253 C 0.3821 0.62167 0.51122 0.0
C1254 C 0.41209 0.60699 0.55329 0.0
C1255 C 0.36393 0.63195 0.50638 0.0
C1256 C 0.49297 0.58237 0.57576 0.0
C1257 C 0.47446 0.59073 0.56964 0.0
C1258 C 0.44589 0.60274 0.52558 0.0
C1259 C 0.39123 0.62564 0.52863 0.0
C1260 C 0.41045 0.61465 0.53402 0.0
C1261 C 0.46769 0.58653 0.55123 0.0
C1262 C 0.44771 0.59549 0.545 0.0
H1263 H 0.35744 0.66218 0.54579 0.0
H1264 H 0.38868 0.64399 0.55434 0.0
H1265 H 0.42678 0.61799 0.5052 0.0
H1266 H 0.5081 0.5558 0.53543 0.0
H1267 H 0.47545 0.57012 0.52481 0.0
C1268 C 0.51404 0.67584 0.91363 0.0
C1269 C 0.52823 0.68489 0.89887 0.0
C1270 C 0.51512 0.6547 0.9192 0.0
C1271 C 0.53605 0.60525 0.90058 0.0
H1272 H 0.52266 0.58441 0.95394 0.0
C1273 C 0.53177 0.51716 0.91992 0.0
C1274 C 0.54074 0.51038 0.93703 0.0
C1275 C 0.52826 0.53833 0.91613 0.0
C1276 C 0.52658 0.58996 0.93898 0.0
H1277 H 0.55513 0.67872 0.87887 0.0
H1278 H 0.55762 0.64233 0.88923 0.0
H1279 H 0.52219 0.62173 0.94615 0.0
H1280 H 0.55246 0.52046 0.96387 0.0
H1281 H 0.54687 0.55727 0.95706 0.0
H1282 H 0.54133 0.57366 0.89351 0.0
C1283 C 0.54525 0.65139 0.89613 0.0
C1284 C 0.52607 0.61138 0.93446 0.0
C1285 C 0.54405 0.67244 0.89043 0.0
C1286 C 0.54545 0.52514 0.95057 0.0
C1287 C 0.54213 0.5463 0.9467 0.0
C1288 C 0.53673 0.58389 0.90511 0.0
C1289 C 0.53053 0.64212 0.91028 0.0
C1290 C 0.53092 0.61932 0.91521 0.0
C1291 C 0.53384 0.55323 0.92926 0.0
C1292 C 0.53208 0.57594 0.92438 0.0
H1293 H 0.50183 0.68498 0.92069 0.0
H1294 H 0.50345 0.64813 0.93009 0.0
H1295 H 0.53949 0.6107 0.88552 0.0
H1296 H 0.52784 0.50617 0.90925 0.0
H1297 H 0.52143 0.54303 0.90275 0.0
C1298 C 0.50098 0.84653 0.87163 0.0
C1299 C 0.5121 0.83313 0.88356 0.0
C1300 C 0.49831 0.8674 0.87607 0.0
C1301 C 0.52054 0.9102 0.90176 0.0
H1302 H 0.46483 0.93279 0.90175 0.0
C1303 C 0.50087 0.9933 0.92782 0.0
C1304 C 0.48472 0.00396 0.91919 0.0
C1305 C 0.50534 0.97269 0.9232 0.0
C1306 C 0.4806 0.92697 0.90148 0.0
H1307 H 0.52861 0.83076 0.90979 0.0
H1308 H 0.52453 0.86754 0.91729 0.0
H1309 H 0.47038 0.89665 0.89414 0.0
H1310 H 0.46147 1.00185 0.89812 0.0
H1311 H 0.46987 0.96664 0.88936 0.0
H1312 H 0.53093 0.94063 0.90859 0.0
C1313 C 0.51802 0.86192 0.90441 0.0
C1314 C 0.48372 0.90613 0.89722 0.0
C1315 C 0.52039 0.84093 0.90012 0.0
C1316 C 0.47386 0.99398 0.9052 0.0
C1317 C 0.47855 0.97362 0.90034 0.0
C1318 C 0.51749 0.9312 0.90574 0.0
C1319 C 0.50686 0.87536 0.89248 0.0
C1320 C 0.5037 0.8975 0.89727 0.0
C1321 C 0.49395 0.9624 0.90964 0.0
C1322 C 0.49746 0.93995 0.90557 0.0
H1323 H 0.49434 0.84082 0.85884 0.0
H1324 H 0.4897 0.87738 0.86656 0.0
H1325 H 0.53616 0.90399 0.90178 0.0
H1326 H 0.50941 1.00055 0.93876 0.0
H1327 H 0.51721 0.96462 0.93082 0.0
C1328 C 0.50371 0.32752 0.66334 0.0
C1329 C 0.50735 0.31272 0.64915 0.0
C1330 C 0.50602 0.34888 0.65833 0.0
C1331 C 0.5073 0.3869 0.61576 0.0
H1332 H 0.5343 0.42363 0.64962 0.0
C1333 C 0.53532 0.47014 0.58974 0.0
C1334 C 0.53457 0.48615 0.60306 0.0
C1335 C 0.53024 0.44952 0.59592 0.0
C1336 C 0.52642 0.41371 0.64011 0.0
H1337 H 0.51582 0.30844 0.61857 0.0
H1338 H 0.51998 0.34569 0.60969 0.0
H1339 H 0.52923 0.38679 0.65926 0.0
H1340 H 0.5273 0.49286 0.63342 0.0
H1341 H 0.51809 0.45683 0.64421 0.0
H1342 H 0.50449 0.41371 0.59658 0.0
C1343 C 0.51528 0.34094 0.62472 0.0
C1344 C 0.52355 0.3925 0.64564 0.0
C1345 C 0.51308 0.3196 0.62979 0.0
C1346 C 0.52802 0.48098 0.62272 0.0
C1347 C 0.52293 0.46025 0.62894 0.0
C1348 C 0.5101 0.40809 0.61026 0.0
C1349 C 0.51179 0.35592 0.63892 0.0
C1350 C 0.51416 0.37873 0.63343 0.0
C1351 C 0.5242 0.44416 0.61565 0.0
C1352 C 0.51993 0.4218 0.62223 0.0
H1353 H 0.49912 0.32255 0.67835 0.0
H1354 H 0.50296 0.35989 0.66962 0.0
H1355 H 0.49962 0.37692 0.60615 0.0
H1356 H 0.54035 0.47342 0.57448 0.0
H1357 H 0.53173 0.43766 0.58524 0.0
C1358 C 0.50609 0.17027 0.60957 0.0
C1359 C 0.49146 0.17246 0.62565 0.0
C1360 C 0.50578 0.15239 0.59866 0.0
C1361 C 0.48801 0.09755 0.60446 0.0
H1362 H 0.49872 0.09706 0.54821 0.0
C1363 C 0.49452 0.02017 0.56717 0.0
C1364 C 0.48298 0.01827 0.55079 0.0
C1365 C 0.49844 0.03971 0.57429 0.0
C1366 C 0.49567 0.09696 0.56392 0.0
H1367 H 0.46415 0.15844 0.64203 0.0
H1368 H 0.46341 0.12753 0.62295 0.0
H1369 H 0.4983 0.13026 0.56433 0.0
H1370 H 0.46763 0.0355 0.52831 0.0
H1371 H 0.47414 0.06964 0.54098 0.0
H1372 H 0.48475 0.06451 0.6042 0.0
C1373 C 0.47552 0.13924 0.61907 0.0
C1374 C 0.49559 0.11596 0.57316 0.0
C1375 C 0.47589 0.15698 0.62997 0.0
C1376 C 0.47659 0.03645 0.54096 0.0
C1377 C 0.48037 0.05604 0.5482 0.0
C1378 C 0.4881 0.07866 0.59528 0.0
C1379 C 0.49078 0.13645 0.60362 0.0
C1380 C 0.49152 0.11645 0.59353 0.0
C1381 C 0.49073 0.05782 0.56534 0.0
C1382 C 0.49184 0.07809 0.5749 0.0
H1383 H 0.51832 0.18193 0.60596 0.0
H1384 H 0.51779 0.15068 0.58688 0.0
H1385 H 0.48518 0.09731 0.6202 0.0
H1386 H 0.4999 0.00648 0.57494 0.0
H1387 H 0.50695 0.04056 0.58723 0.0
C1388 C 0.86964 0.49409 0.63708 0.0
C1389 C 0.87709 0.50632 0.65156 0.0
C1390 C 0.8792 0.49523 0.61806 0.0
C1391 C 0.91414 0.5293 0.58406 0.0
H1392 H 0.91666 0.48029 0.55316 0.0
C1393 C 0.95573 0.53066 0.50627 0.0
C1394 C 0.94393 0.52238 0.49196 0.0
C1395 C 0.94936 0.52735 0.52613 0.0
C1396 C 0.91601 0.49412 0.5616 0.0
H1397 H 0.90075 0.52905 0.65749 0.0
H1398 H 0.91778 0.53076 0.62441 0.0
H1399 H 0.9024 0.47729 0.58715 0.0
H1400 H 0.91672 0.50333 0.48737 0.0
H1401 H 0.90583 0.49732 0.52202 0.0
H1402 H 0.9279 0.54605 0.55847 0.0
C1403 C 0.90421 0.5206 0.6276 0.0
C1404 C 0.90775 0.49245 0.58108 0.0
C1405 C 0.8945 0.51959 0.64661 0.0
C1406 C 0.92617 0.50993 0.498 0.0
C1407 C 0.91995 0.50643 0.51787 0.0
C1408 C 0.9226 0.53091 0.56465 0.0
C1409 C 0.89662 0.50852 0.61301 0.0
C1410 C 0.90645 0.51007 0.59253 0.0
C1411 C 0.93122 0.51548 0.53214 0.0
C1412 C 0.92343 0.51339 0.55313 0.0
H1413 H 0.85604 0.48396 0.64034 0.0
H1414 H 0.87258 0.48602 0.60721 0.0
H1415 H 0.91311 0.54329 0.59223 0.0
H1416 H 0.96946 0.54036 0.50214 0.0
H1417 H 0.9585 0.53433 0.5368 0.0
C1418 C 0.14103 0.02448 0.64859 0.0
C1419 C 0.13497 0.01503 0.667 0.0
C1420 C 0.128 0.02326 0.63337 0.0
C1421 C 0.08732 0.98883 0.61759 0.0
H1422 H 0.08735 0.03021 0.57476 0.0
C1423 C 0.05097 0.97201 0.54589 0.0
C1424 C 0.06491 0.97603 0.52929 0.0
C1425 C 0.05524 0.97979 0.56381 0.0
C1426 C 0.08711 0.01858 0.58668 0.0
H1427 H 0.11002 0.99817 0.6844 0.0
H1428 H 0.08702 0.99628 0.65785 0.0
H1429 H 0.10201 0.03919 0.60506 0.0
H1430 H 0.09367 0.99203 0.51811 0.0
H1431 H 0.10119 0.00555 0.54942 0.0
H1432 H 0.07292 0.96807 0.59902 0.0
C1433 C 0.10204 0.00422 0.65504 0.0
C1434 C 0.09553 0.02368 0.60399 0.0
C1435 C 0.11517 0.00531 0.67023 0.0
C1436 C 0.08281 0.98851 0.53075 0.0
C1437 C 0.08696 0.99645 0.54859 0.0
C1438 C 0.07875 0.9838 0.60036 0.0
C1439 C 0.10857 0.01267 0.6363 0.0
C1440 C 0.09636 0.00863 0.61939 0.0
C1441 C 0.07338 0.99191 0.56534 0.0
C1442 C 0.07918 0.99842 0.58454 0.0
H1443 H 0.15631 0.03189 0.64565 0.0
H1444 H 0.1337 0.02965 0.61906 0.0
H1445 H 0.08794 0.97676 0.62903 0.0
H1446 H 0.03709 0.96237 0.54513 0.0
H1447 H 0.04452 0.97611 0.57651 0.0
C1448 C 0.85753 0.50834 0.80279 0.0
C1449 C 0.8697 0.50363 0.78579 0.0
C1450 C 0.86647 0.5087 0.82067 0.0
C1451 C 0.91155 0.48923 0.8461 0.0
H1452 H 0.89492 0.53103 0.8829 0.0
C1453 C 0.94864 0.49458 0.91979 0.0
C1454 C 0.93458 0.49714 0.93623 0.0
C1455 C 0.94201 0.49708 0.90092 0.0
C1456 C 0.89964 0.51916 0.87284 0.0
H1457 H 0.90069 0.49606 0.77374 0.0
H1458 H 0.91653 0.49673 0.80502 0.0
H1459 H 0.88085 0.53184 0.85097 0.0
H1460 H 0.90277 0.50526 0.94567 0.0
H1461 H 0.89117 0.50939 0.91287 0.0
H1462 H 0.93017 0.47642 0.86807 0.0
C1463 C 0.9 0.49982 0.80469 0.0
C1464 C 0.89155 0.51961 0.85453 0.0
C1465 C 0.89101 0.49949 0.7868 0.0
C1466 C 0.91395 0.50295 0.93333 0.0
C1467 C 0.90734 0.50552 0.9145 0.0
C1468 C 0.91966 0.48879 0.86442 0.0
C1469 C 0.88782 0.50442 0.82186 0.0
C1470 C 0.89722 0.50452 0.841 0.0
C1471 C 0.92119 0.50232 0.89805 0.0
C1472 C 0.91364 0.50362 0.8781 0.0
H1473 H 0.84104 0.51163 0.80224 0.0
H1474 H 0.85656 0.51202 0.83361 0.0
H1475 H 0.91607 0.47721 0.83616 0.0
H1476 H 0.96459 0.48996 0.9215 0.0
H1477 H 0.95314 0.49474 0.88856 0.0
C1478 C 0.14396 0.01938 0.79913 0.0
C1479 C 0.16423 0.01343 0.79284 0.0
C1480 C 0.13808 0.02067 0.81906 0.0
C1481 C 0.15248 0.00283 0.8682 0.0
H1482 H 0.11889 0.04928 0.88524 0.0
C1483 C 0.13627 0.02092 0.94985 0.0
C1484 C 0.11623 0.02793 0.95601 0.0
C1485 C 0.14203 0.01848 0.93003 0.0
C1486 C 0.12804 0.03605 0.88074 0.0
H1487 H 0.19424 0.00385 0.80205 0.0
H1488 H 0.18415 0.00625 0.83699 0.0
H1489 H 0.12912 0.04633 0.85063 0.0
H1490 H 0.08654 0.03782 0.94595 0.0
H1491 H 0.09639 0.03311 0.91155 0.0
H1492 H 0.1514 0.99258 0.89835 0.0
C1493 C 0.17266 0.00977 0.82665 0.0
C1494 C 0.13393 0.03437 0.86086 0.0
C1495 C 0.17851 0.00849 0.8067 0.0
C1496 C 0.10202 0.03216 0.94182 0.0
C1497 C 0.10778 0.02973 0.92202 0.0
C1498 C 0.14657 0.00451 0.88811 0.0
C1499 C 0.15239 0.01597 0.83309 0.0
C1500 C 0.1462 0.01772 0.85431 0.0
C1501 C 0.12791 0.02302 0.91583 0.0
C1502 C 0.13423 0.02113 0.89464 0.0
H1503 H 0.1327 0.02308 0.7886 0.0
H1504 H 0.12226 0.02518 0.82349 0.0
H1505 H 0.1617 0.98966 0.86367 0.0
H1506 H 0.14755 0.0173 0.96037 0.0
H1507 H 0.15772 0.01344 0.92581 0.0
C1508 C 0.65968 0.85632 0.51941 0.0
C1509 C 0.67595 0.85977 0.5046 0.0
C1510 C 0.64075 0.86668 0.51862 0.0
C1511 C 0.6142 0.91178 0.49752 0.0
H1512 H 0.56499 0.87646 0.51011 0.0
C1513 C 0.52751 0.94174 0.50049 0.0
C1514 C 0.51562 0.93498 0.51776 0.0
C1515 C 0.54731 0.93321 0.4957 0.0
C1516 C 0.57855 0.88658 0.50655 0.0
H1517 H 0.68532 0.87775 0.47782 0.0
H1518 H 0.6521 0.89617 0.4766 0.0
H1519 H 0.59953 0.86116 0.50847 0.0
H1520 H 0.51509 0.91366 0.54324 0.0
H1521 H 0.54891 0.89899 0.53491 0.0
H1522 H 0.59295 0.93733 0.49616 0.0
C1523 C 0.65411 0.88526 0.48876 0.0
C1524 C 0.59837 0.87781 0.50567 0.0
C1525 C 0.67315 0.87477 0.4895 0.0
C1526 C 0.52374 0.91933 0.52983 0.0
C1527 C 0.54317 0.91075 0.52498 0.0
C1528 C 0.59422 0.92064 0.49847 0.0
C1529 C 0.6375 0.8809 0.50306 0.0
C1530 C 0.61649 0.89034 0.50173 0.0
C1531 C 0.55528 0.91754 0.50792 0.0
C1532 C 0.57621 0.90817 0.50358 0.0
H1533 H 0.66144 0.84529 0.53152 0.0
H1534 H 0.62851 0.86335 0.53017 0.0
H1535 H 0.62786 0.92185 0.49439 0.0
H1536 H 0.52174 0.95383 0.49095 0.0
H1537 H 0.55629 0.93874 0.48243 0.0
C1538 C 0.72621 0.13893 0.99179 0.0
C1539 C 0.73199 0.15901 0.98432 0.0
C1540 C 0.70614 0.13097 0.98975 0.0
C1541 C 0.65307 0.14772 0.97719 0.0
H1542 H 0.64478 0.08881 0.96982 0.0
C1543 C 0.57925 0.11242 0.94776 0.0
C1544 C 0.56884 0.09663 0.95986 0.0
C1545 C 0.59907 0.11964 0.95158 0.0
C1546 C 0.64693 0.10526 0.97199 0.0
H1547 H 0.722 0.18627 0.96822 0.0
H1548 H 0.68737 0.17212 0.96367 0.0
H1549 H 0.67976 0.10222 0.9745 0.0
H1550 H 0.57149 0.07604 0.98548 0.0
H1551 H 0.6066 0.08808 0.99147 0.0
H1552 H 0.6203 0.15072 0.97372 0.0
C1553 C 0.6978 0.16274 0.9719 0.0
C1554 C 0.66691 0.11298 0.97479 0.0
C1555 C 0.7177 0.17081 0.97429 0.0
C1556 C 0.57906 0.08795 0.97563 0.0
C1557 C 0.59911 0.0949 0.97918 0.0
C1558 C 0.63322 0.14006 0.97399 0.0
C1559 C 0.69164 0.14278 0.97976 0.0
C1560 C 0.67028 0.13435 0.97734 0.0
C1561 C 0.60914 0.11094 0.9673 0.0
C1562 C 0.63002 0.1188 0.9713 0.0
H1563 H 0.7372 0.12946 0.99927 0.0
H1564 H 0.70196 0.11565 0.99618 0.0
H1565 H 0.65486 0.16414 0.97959 0.0
H1566 H 0.57221 0.11916 0.93519 0.0
H1567 H 0.60668 0.13188 0.9421 0.0
C1568 C 0.33791 0.38099 0.97765 0.0
C1569 C 0.33265 0.36227 0.98836 0.0
C1570 C 0.35868 0.38826 0.97534 0.0
C1571 C 0.40753 0.39066 0.99717 0.0
H1572 H 0.43438 0.39475 0.94463 0.0
C1573 C 0.49546 0.41539 0.98104 0.0
C1574 C 0.50132 0.4258 0.963 0.0
C1575 C 0.475 0.40729 0.98511 0.0
C1576 C 0.42713 0.39418 0.9594 0.0
H1577 H 0.34462 0.33729 0.00624 0.0
H1578 H 0.38101 0.35048 0.00276 0.0
H1579 H 0.39839 0.38208 0.95009 0.0
H1580 H 0.49014 0.43696 0.93558 0.0
H1581 H 0.45458 0.42419 0.94298 0.0
H1582 H 0.4358 0.40366 0.00651 0.0
C1583 C 0.3691 0.3591 0.99568 0.0
C1584 C 0.4065 0.38668 0.96248 0.0
C1585 C 0.34838 0.35156 0.99759 0.0
C1586 C 0.48619 0.42868 0.94949 0.0
C1587 C 0.46576 0.42111 0.9537 0.0
C1588 C 0.42807 0.39866 0.99405 0.0
C1589 C 0.37446 0.37738 0.98431 0.0
C1590 C 0.3965 0.38491 0.98136 0.0
C1591 C 0.45988 0.40983 0.97137 0.0
C1592 C 0.43817 0.40069 0.97506 0.0
H1593 H 0.32594 0.3901 0.97118 0.0
H1594 H 0.36241 0.40256 0.96674 0.0
H1595 H 0.40006 0.38947 0.01188 0.0
H1596 H 0.50684 0.4129 0.9917 0.0
H1597 H 0.47128 0.39859 0.99882 0.0
C1598 C 0.87478 0.14333 0.01996 0.0
C1599 C 0.87189 0.15407 0.0021 0.0
C1600 C 0.89384 0.13397 0.02315 0.0
C1601 C 0.94151 0.11282 0.99906 0.0
H1602 H 0.96592 0.12537 0.04704 0.0
C1603 C 0.02464 0.08539 0.01706 0.0
C1604 C 0.02733 0.08018 0.03675 0.0
C1605 C 0.00586 0.09418 0.01169 0.0
C1606 C 0.95924 0.12138 0.03369 0.0
H1607 H 0.88705 0.16299 0.97349 0.0
H1608 H 0.92005 0.14606 0.97895 0.0
H1609 H 0.9326 0.14035 0.03998 0.0
H1610 H 0.01205 0.07904 0.06609 0.0
H1611 H 0.97943 0.09341 0.05678 0.0
H1612 H 0.96794 0.09339 0.99299 0.0
C1613 C 0.90746 0.14499 0.99045 0.0
C1614 C 0.94014 0.13008 0.02964 0.0
C1615 C 0.88847 0.15462 0.98732 0.0
C1616 C 0.01066 0.08321 0.05081 0.0
C1617 C 0.99193 0.09164 0.04547 0.0
C1618 C 0.96057 0.10384 0.00324 0.0
C1619 C 0.91043 0.13484 0.00849 0.0
C1620 C 0.93098 0.12578 0.01238 0.0
C1621 C 0.98935 0.09767 0.02591 0.0
C1622 C 0.96958 0.10784 0.02075 0.0
H1623 H 0.8623 0.14211 0.03154 0.0
H1624 H 0.8956 0.12598 0.03712 0.0
H1625 H 0.93476 0.10921 0.98564 0.0
H1626 H 0.03722 0.08323 0.0059 0.0
H1627 H 0.00451 0.0987 0.9965 0.0
C1628 C 0.01638 0.2267 0.254 0.0
C1629 C 0.02416 0.22147 0.27206 0.0
C1630 C 0.01887 0.21311 0.23864 0.0
C1631 C 0.05262 0.17172 0.22032 0.0
H1632 H 0.00593 0.15484 0.19179 0.0
C1633 C 0.06165 0.10638 0.16611 0.0
C1634 C 0.05132 0.1083 0.14889 0.0
C1635 C 0.05727 0.11988 0.18121 0.0
C1636 C 0.01923 0.1596 0.19939 0.0
H1637 H 0.03987 0.19781 0.28858 0.0
H1638 H 0.04478 0.17438 0.26166 0.0
H1639 H 1.00056 0.17985 0.21735 0.0
H1640 H 0.02815 0.1257 0.13403 0.0
H1641 H 0.02086 0.14968 0.1601 0.0
H1642 H 0.07151 0.15209 0.20224 0.0
C1643 C 0.03692 0.18898 0.25926 0.0
C1644 C 0.0161 0.1739 0.21406 0.0
C1645 C 0.03414 0.20235 0.27463 0.0
C1646 C 0.03618 0.12372 0.14725 0.0
C1647 C 0.03199 0.13745 0.16224 0.0
C1648 C 0.05583 0.15769 0.20551 0.0
C1649 C 0.02938 0.19421 0.24109 0.0
C1650 C 0.03273 0.17992 0.22481 0.0
C1651 C 0.04268 0.1359 0.17936 0.0
C1652 C 0.03915 0.1512 0.19495 0.0
H1653 H 0.00842 0.24127 0.25182 0.0
H1654 H 0.01291 0.21751 0.22476 0.0
H1655 H 0.06579 0.17632 0.2282 0.0
H1656 H 0.07325 0.09448 0.16785 0.0
H1657 H 0.06543 0.11776 0.19433 0.0
C1658 C 0.01761 0.34964 0.27372 0.0
C1659 C 0.00647 0.33057 0.27585 0.0
C1660 C 0.01565 0.36307 0.25736 0.0
C1661 C 0.98128 0.37296 0.21697 0.0
H1662 H 0.03081 0.39884 0.18941 0.0
C1663 C 0.98479 0.39735 0.13607 0.0
C1664 C 0.99108 0.41798 0.13063 0.0
C1665 C 0.98721 0.38911 0.15482 0.0
C1666 C 0.01685 0.39191 0.19713 0.0
H1667 H 0.98513 0.31034 0.26223 0.0
H1668 H 0.98187 0.33344 0.23388 0.0
H1669 H 0.03358 0.38018 0.22096 0.0
H1670 H 0.00562 0.44586 0.1406 0.0
H1671 H 0.01046 0.43103 0.17335 0.0
H1672 H 0.96478 0.38383 0.19275 0.0
C1673 C 0.9916 0.33846 0.24502 0.0
C1674 C 0.01838 0.3813 0.21519 0.0
C1675 C 0.99348 0.32517 0.2613 0.0
C1676 C 1.00073 0.42987 0.14422 0.0
C1677 C 0.00342 0.42147 0.16299 0.0
C1678 C 0.97982 0.3833 0.1989 0.0
C1679 C 0.00258 0.3576 0.24283 0.0
C1680 C 1.00069 0.37123 0.22505 0.0
C1681 C 0.99627 0.40116 0.16852 0.0
C1682 C 0.99766 0.39242 0.18861 0.0
H1683 H 0.02771 0.35421 0.28474 0.0
H1684 H 0.02424 0.37776 0.25615 0.0
H1685 H 0.96724 0.36588 0.22441 0.0
H1686 H 0.97787 0.38751 0.12585 0.0
H1687 H 0.98194 0.37325 0.15865 0.0
C1688 C 0.00759 0.7835 0.23322 0.0
C1689 C 0.00181 0.78956 0.21463 0.0
C1690 C 0.00991 0.79837 0.24699 0.0
C1691 C 0.995 0.84909 0.26286 0.0
H1692 H 0.04821 0.8477 0.28607 0.0
C1693 C 0.01704 0.90359 0.32371 0.0
C1694 C 0.02638 0.89327 0.33915 0.0
C1695 C 0.01394 0.89327 0.30668 0.0
C1696 C 0.03326 0.84825 0.27976 0.0
H1697 H 0.99294 0.81529 0.19581 0.0
H1698 H 0.99659 0.84156 0.2203 0.0
H1699 H 0.04205 0.82479 0.25981 0.0
H1700 H 0.03882 0.86391 0.34938 0.0
H1701 H 0.03335 0.84597 0.31991 0.0
H1702 H 0.98591 0.87198 0.28345 0.0
C1703 C 0.99948 0.82537 0.22408 0.0
C1704 C 0.02978 0.83519 0.26475 0.0
C1705 C 0.99741 0.81047 0.21017 0.0
C1706 C 0.03208 0.8724 0.3375 0.0
C1707 C 0.02898 0.86215 0.32061 0.0
C1708 C 0.99842 0.86209 0.27808 0.0
C1709 C 0.00624 0.81944 0.2424 0.0
C1710 C 0.01045 0.8351 0.25658 0.0
C1711 C 0.02014 0.87251 0.30493 0.0
C1712 C 0.01737 0.86128 0.28704 0.0
H1713 H 0.01091 0.76737 0.23683 0.0
H1714 H 0.01488 0.79348 0.26115 0.0
H1715 H 0.97999 0.84924 0.25665 0.0
H1716 H 0.01253 0.91971 0.32466 0.0
H1717 H 0.00709 0.90159 0.29478 0.0
C1718 C 0.96863 0.67057 0.2422 0.0
C1719 C 0.9877 0.67044 0.2305 0.0
C1720 C 0.96541 0.65778 0.25924 0.0
C1721 C 0.98782 0.61228 0.28642 0.0
H1722 H 0.95293 0.63273 0.32983 0.0
C1723 C 0.98446 0.57662 0.36613 0.0
C1724 C 0.96434 0.57275 0.37543 0.0
C1725 C 0.98708 0.58746 0.34792 0.0
C1726 C 0.9626 0.62675 0.31778 0.0
H1727 H 0.01813 0.65595 0.22776 0.0
H1728 H 0.01304 0.6348 0.25788 0.0
H1729 H 0.95817 0.65379 0.29948 0.0
H1730 H 0.9312 0.57726 0.37282 0.0
H1731 H 0.93584 0.59664 0.34128 0.0
H1732 H 0.99286 0.5856 0.30531 0.0
C1733 C 1.00027 0.6444 0.25366 0.0
C1734 C 0.96553 0.63877 0.30025 0.0
C1735 C 0.00336 0.65692 0.23641 0.0
C1736 C 0.9469 0.57989 0.36604 0.0
C1737 C 0.94955 0.59109 0.34803 0.0
C1738 C 0.98519 0.60045 0.30411 0.0
C1739 C 0.98127 0.64468 0.26544 0.0
C1740 C 0.97813 0.63172 0.28421 0.0
C1741 C 0.96966 0.59505 0.33879 0.0
C1742 C 0.97248 0.60752 0.31995 0.0
H1743 H 0.95621 0.68088 0.23849 0.0
H1744 H 0.95038 0.65825 0.26755 0.0
H1745 H 0.9973 0.60599 0.27442 0.0
H1746 H 0.99822 0.57134 0.37296 0.0
H1747 H 0.00277 0.59039 0.3412 0.0
C1748 C 0.24475 1.00158 0.18877 0.0
C1749 C 0.2661 0.0054 0.18378 0.0
C1750 C 0.23052 0.00261 0.17441 0.0
C1751 C 0.22391 0.02511 0.12484 0.0
H1752 H 0.17537 0.98803 0.12916 0.0
C1753 C 0.1571 0.0312 0.07209 0.0
C1754 C 0.13733 0.03282 0.08224 0.0
C1755 C 0.17444 0.02512 0.08212 0.0
C1756 C 0.1889 0.99843 0.12771 0.0
H1757 H 0.28962 0.01311 0.16019 0.0
H1758 H 0.26479 0.01469 0.13481 0.0
H1759 H 0.20284 0.9827 0.15135 0.0
H1760 H 0.12 0.02848 0.11057 0.0
H1761 H 0.1499 0.01758 0.12781 0.0
H1762 H 0.20965 0.04101 0.10133 0.0
C1763 C 0.25891 0.01113 0.14981 0.0
C1764 C 0.20458 0.99548 0.1405 0.0
C1765 C 0.27313 0.01015 0.16424 0.0
C1766 C 0.13505 0.02748 0.10235 0.0
C1767 C 0.15216 0.02109 0.11222 0.0
C1768 C 0.20825 0.02798 0.11193 0.0
C1769 C 0.2374 0.00742 0.15472 0.0
C1770 C 0.222 0.00914 0.13961 0.0
C1771 C 0.1721 0.02012 0.10232 0.0
C1772 C 0.19031 0.01502 0.11361 0.0
H1773 H 0.23909 0.998 0.20384 0.0
H1774 H 0.21406 1.00006 0.17881 0.0
H1775 H 0.23702 0.03603 0.1238 0.0
H1776 H 0.15929 0.03531 0.0566 0.0
H1777 H 0.18967 0.02447 0.07415 0.0
C1778 C 0.7598 0.48388 0.15032 0.0
C1779 C 0.76051 0.49818 0.16516 0.0
C1780 C 0.77647 0.48267 0.13596 0.0
C1781 C 0.83311 0.49386 0.12881 0.0
H1782 H 0.82668 0.48231 0.07472 0.0
C1783 C 0.89025 0.48536 0.05362 0.0
C1784 C 0.90542 0.47258 0.06149 0.0
C1785 C 0.87149 0.48939 0.06474 0.0
C1786 C 0.8287 0.48572 0.08974 0.0
H1787 H 0.7793 0.52272 0.17617 0.0
H1788 H 0.80795 0.52093 0.15101 0.0
H1789 H 0.79565 0.48859 0.09679 0.0
H1790 H 0.91225 0.45324 0.08687 0.0
H1791 H 0.87991 0.46014 0.1059 0.0
H1792 H 0.866 0.49098 0.12193 0.0
C1793 C 0.79463 0.51045 0.15058 0.0
C1794 C 0.81094 0.48912 0.10242 0.0
C1795 C 0.77803 0.51164 0.16491 0.0
C1796 C 0.9011 0.46339 0.08037 0.0
C1797 C 0.88255 0.46741 0.09138 0.0
C1798 C 0.85075 0.49039 0.11622 0.0
C1799 C 0.79426 0.4957 0.13613 0.0
C1800 C 0.81295 0.49307 0.12217 0.0
C1801 C 0.86769 0.48077 0.08391 0.0
C1802 C 0.84877 0.48599 0.09662 0.0
H1803 H 0.74644 0.47346 0.14988 0.0
H1804 H 0.7757 0.47104 0.12513 0.0
H1805 H 0.8353 0.4966 0.14394 0.0
H1806 H 0.89308 0.49264 0.03912 0.0
H1807 H 0.8603 0.49974 0.05859 0.0
C1808 C 0.24731 0.00585 0.31876 0.0
C1809 C 0.24798 0.99418 0.30189 0.0
C1810 C 0.23043 0.00349 0.33304 0.0
C1811 C 0.17508 0.98658 0.33884 0.0
H1812 H 0.18269 0.97697 0.39391 0.0
C1813 C 0.11081 0.94791 0.38967 0.0
C1814 C 0.10518 0.95617 0.4079 0.0
C1815 C 0.12886 0.95473 0.37852 0.0
C1816 C 0.18031 0.97999 0.37863 0.0
H1817 H 0.23131 0.97111 0.28675 0.0
H1818 H 0.20205 0.96704 0.31149 0.0
H1819 H 0.21318 0.98512 0.37067 0.0
H1820 H 0.11483 0.97749 0.42911 0.0
H1821 H 0.14689 0.9896 0.40931 0.0
H1822 H 0.14245 0.98119 0.3465 0.0
C1823 C 0.21452 0.97801 0.31373 0.0
C1824 C 0.19775 0.98462 0.36533 0.0
C1825 C 0.23141 0.98019 0.29963 0.0
C1826 C 0.1187 0.97089 0.4151 0.0
C1827 C 0.13701 0.9778 0.40378 0.0
C1828 C 0.15778 0.98207 0.35203 0.0
C1829 C 0.21375 0.98966 0.33058 0.0
C1830 C 0.19534 0.98733 0.3452 0.0
C1831 C 0.14195 0.97011 0.38513 0.0
C1832 C 0.16021 0.97805 0.37199 0.0
H1833 H 0.25992 0.01666 0.32098 0.0
H1834 H 0.23025 0.01272 0.34584 0.0
H1835 H 0.17262 0.98909 0.32351 0.0
H1836 H 0.10107 0.93625 0.38374 0.0
H1837 H 0.13248 0.94802 0.36451 0.0
C1838 C 0.76384 0.48446 0.2921 0.0
C1839 C 0.74401 0.49301 0.29068 0.0
C1840 C 0.77281 0.4837 0.30993 0.0
C1841 C 0.77579 0.51236 0.35277 0.0
H1842 H 0.80201 0.46313 0.37373 0.0
C1843 C 0.83282 0.52012 0.4118 0.0
C1844 C 0.85152 0.50934 0.40827 0.0
C1845 C 0.81521 0.51503 0.40215 0.0
C1846 C 0.79483 0.47704 0.36806 0.0
H1847 H 0.718 0.50775 0.3063 0.0
H1848 H 0.73413 0.50715 0.33755 0.0
H1849 H 0.77973 0.46021 0.34674 0.0
H1850 H 0.86633 0.48426 0.3927 0.0
H1851 H 0.83607 0.47585 0.37535 0.0
H1852 H 0.79202 0.52959 0.37278 0.0
C1853 C 0.74244 0.5006 0.32499 0.0
C1854 C 0.782 0.4753 0.35271 0.0
C1855 C 0.7333 0.50098 0.30723 0.0
C1856 C 0.85201 0.49267 0.3958 0.0
C1857 C 0.83456 0.4878 0.38593 0.0
C1858 C 0.78891 0.51419 0.36786 0.0
C1859 C 0.76227 0.49195 0.32645 0.0
C1860 C 0.77288 0.49305 0.34462 0.0
C1861 C 0.81612 0.49933 0.38851 0.0
C1862 C 0.79914 0.49665 0.37527 0.0
H1863 H 0.77247 0.47862 0.27936 0.0
H1864 H 0.7883 0.47734 0.31066 0.0
H1865 H 0.76901 0.52628 0.34664 0.0
H1866 H 0.83204 0.5329 0.42155 0.0
H1867 H 0.80113 0.52392 0.40484 0.0
C1868 C 0.20437 0.25927 0.02137 0.0
C1869 C 0.22461 0.25756 0.0122 0.0
C1870 C 0.19135 0.24169 0.025 0.0
C1871 C 0.17972 0.19065 0.00783 0.0
H1872 H 0.15546 0.17779 0.06052 0.0
C1873 C 0.13371 0.1138 0.02792 0.0
C1874 C 0.11731 0.11346 0.04277 0.0
C1875 C 0.14651 0.1315 0.02399 0.0
C1876 C 0.16172 0.18128 0.04563 0.0
H1877 H 0.24673 0.23649 0.99863 0.0
H1878 H 0.2236 0.20559 0.00448 0.0
H1879 H 0.17824 0.20837 0.05381 0.0
H1880 H 0.10118 0.13166 0.06484 0.0
H1881 H 0.12283 0.16295 0.05741 0.0
H1882 H 0.16271 0.1642 0.99933 0.0
C1883 C 0.21808 0.22051 0.00927 0.0
C1884 C 0.17493 0.19875 0.04186 0.0
C1885 C 0.2313 0.23808 0.00599 0.0
C1886 C 0.11376 0.1314 0.05337 0.0
C1887 C 0.12634 0.1493 0.04919 0.0
C1888 C 0.16618 0.1734 0.0115 0.0
C1889 C 0.19807 0.22213 0.01901 0.0
C1890 C 0.18414 0.20354 0.02295 0.0
C1891 C 0.14307 0.14955 0.03455 0.0
C1892 C 0.15706 0.16835 0.0305 0.0
H1893 H 0.19866 0.27426 0.02579 0.0
H1894 H 0.17589 0.24341 0.03226 0.0
H1895 H 0.18643 0.19416 0.99306 0.0
H1896 H 0.13703 0.10014 0.01962 0.0
H1897 H 0.15943 0.13078 0.01292 0.0
C1898 C 0.19284 0.75868 0.46068 0.0
C1899 C 0.20245 0.75935 0.47837 0.0
C1900 C 0.17692 0.77254 0.45648 0.0
C1901 C 0.15494 0.82331 0.47108 0.0
H1902 H 0.10707 0.80593 0.4443 0.0
C1903 C 0.08398 0.8759 0.46589 0.0
C1904 C 0.07592 0.87878 0.44753 0.0
C1905 C 0.09822 0.86018 0.46932 0.0
C1906 C 0.12043 0.81105 0.45165 0.0
H1907 H 0.20267 0.77539 0.50544 0.0
H1908 H 0.17466 0.79893 0.49844 0.0
H1909 H 0.1344 0.78095 0.45089 0.0
H1910 H 0.07588 0.86661 0.41865 0.0
H1911 H 0.10081 0.83894 0.42473 0.0
H1912 H 0.14097 0.85329 0.47202 0.0
C1913 C 0.17962 0.78793 0.48761 0.0
C1914 C 0.13614 0.79675 0.4554 0.0
C1915 C 0.19555 0.77416 0.49177 0.0
C1916 C 0.08172 0.8648 0.43297 0.0
C1917 C 0.09601 0.84895 0.43646 0.0
C1918 C 0.13924 0.8375 0.46744 0.0
C1919 C 0.17015 0.78744 0.46985 0.0
C1920 C 0.15355 0.80265 0.46532 0.0
C1921 C 0.10486 0.84683 0.45453 0.0
C1922 C 0.12168 0.83155 0.45784 0.0
H1923 H 0.19752 0.74735 0.45009 0.0
H1924 H 0.17016 0.77177 0.44259 0.0
H1925 H 0.16831 0.82865 0.47828 0.0
H1926 H 0.07978 0.88624 0.47752 0.0
H1927 H 0.10435 0.85871 0.48354 0.0
C1928 C 0.8427 0.7408 0.478 0.0
C1929 C 0.82669 0.73858 0.4932 0.0
C1930 C 0.85716 0.72495 0.47481 0.0
C1931 C 0.86007 0.66904 0.47917 0.0
H1932 H 0.92042 0.67617 0.4726 0.0
C1933 C 0.91151 0.59823 0.46662 0.0
C1934 C 0.92974 0.60044 0.45397 0.0
C1935 C 0.90074 0.61567 0.47298 0.0
C1936 C 0.9036 0.67392 0.47411 0.0
H1937 H 0.8135 0.7183 0.51719 0.0
H1938 H 0.8385 0.69035 0.51131 0.0
H1939 H 0.89847 0.70591 0.48073 0.0
H1940 H 0.95141 0.62257 0.43835 0.0
H1941 H 0.93199 0.65331 0.44862 0.0
H1942 H 0.86467 0.6376 0.47162 0.0
C1943 C 0.83997 0.70446 0.50204 0.0
C1944 C 0.89106 0.69096 0.4789 0.0
C1945 C 0.82577 0.72046 0.50547 0.0
C1946 C 0.9374 0.62051 0.44819 0.0
C1947 C 0.92627 0.63809 0.45416 0.0
C1948 C 0.87248 0.65219 0.47401 0.0
C1949 C 0.85562 0.70643 0.48651 0.0
C1950 C 0.86919 0.68859 0.48164 0.0
C1951 C 0.90752 0.63588 0.46636 0.0
C1952 C 0.89447 0.65425 0.47161 0.0
H1953 H 0.84379 0.75466 0.46838 0.0
H1954 H 0.869 0.72681 0.46268 0.0
H1955 H 0.84321 0.66689 0.4808 0.0
H1956 H 0.90544 0.5829 0.47154 0.0
H1957 H 0.88689 0.61319 0.48293 0.0
C1958 C 0.33891 0.75845 0.51967 0.0
C1959 C 0.32243 0.76109 0.50758 0.0
C1960 C 0.35231 0.77516 0.52258 0.0
C1961 C 0.37311 0.82425 0.49987 0.0
H1962 H 0.38341 0.83902 0.55233 0.0
C1963 C 0.41374 0.90165 0.51448 0.0
C1964 C 0.42655 0.9024 0.53008 0.0
C1965 C 0.40204 0.88372 0.51168 0.0
C1966 C 0.38106 0.83492 0.53756 0.0
H1967 H 0.30684 0.78296 0.48905 0.0
H1968 H 0.33066 0.8122 0.4937 0.0
H1969 H 0.36118 0.80886 0.54757 0.0
H1970 H 0.43753 0.88476 0.55475 0.0
H1971 H 0.41769 0.85312 0.54947 0.0
H1972 H 0.39325 0.84987 0.48971 0.0
C1973 C 0.33316 0.79725 0.50098 0.0
C1974 C 0.36822 0.81769 0.53487 0.0
C1975 C 0.31956 0.78063 0.49835 0.0
C1976 C 0.42771 0.88468 0.54265 0.0
C1977 C 0.4162 0.86659 0.53968 0.0
C1978 C 0.38619 0.84127 0.50252 0.0
C1979 C 0.34963 0.79468 0.51316 0.0
C1980 C 0.36393 0.81237 0.51601 0.0
C1981 C 0.40307 0.86593 0.52424 0.0
C1982 C 0.39013 0.84703 0.52141 0.0
H1983 H 0.34139 0.74344 0.52686 0.0
H1984 H 0.36496 0.77277 0.53194 0.0
H1985 H 0.37027 0.82027 0.48516 0.0
H1986 H 0.41234 0.91511 0.50464 0.0
H1987 H 0.39182 0.88403 0.49988 0.0
C1988 C 0.52774 0.6959 0.80163 0.0
C1989 C 0.51742 0.71474 0.79859 0.0
C1990 C 0.52904 0.68122 0.7872 0.0
C1991 C 0.50439 0.66359 0.74425 0.0
H1992 H 0.559 0.64143 0.72951 0.0
C1993 C 0.51985 0.61458 0.67599 0.0
C1994 C 0.53516 0.59917 0.67631 0.0
C1995 C 0.5167 0.62788 0.69149 0.0
C1996 C 0.54353 0.64708 0.73363 0.0
H1997 H 0.49995 0.73291 0.77843 0.0
H1998 H 0.5018 0.707 0.75324 0.0
H1999 H 0.55514 0.6658 0.75554 0.0
H2000 H 0.55848 0.58497 0.69349 0.0
H2001 H 0.55249 0.60751 0.72084 0.0
H2002 H 0.49262 0.64462 0.72266 0.0
C2003 C 0.50897 0.70363 0.76674 0.0
C2004 C 0.54137 0.66118 0.74853 0.0
C2005 C 0.50795 0.71845 0.78107 0.0
C2006 C 0.54674 0.59687 0.69275 0.0
C2007 C 0.54338 0.60994 0.70837 0.0
C2008 C 0.50648 0.64924 0.72951 0.0
C2009 C 0.51975 0.68496 0.76955 0.0
C2010 C 0.52181 0.66966 0.75395 0.0
C2011 C 0.5286 0.62592 0.70783 0.0
C2012 C 0.52611 0.64082 0.72392 0.0
H2013 H 0.53503 0.69268 0.8151 0.0
H2014 H 0.53726 0.6669 0.78987 0.0
H2015 H 0.48908 0.66973 0.74825 0.0
H2016 H 0.51086 0.61687 0.6634 0.0
H2017 H 0.50538 0.64012 0.69031 0.0
C2018 C 0.48858 0.82802 0.76962 0.0
C2019 C 0.50354 0.83329 0.78249 0.0
C2020 C 0.48575 0.84075 0.75314 0.0
C2021 C 0.51226 0.88051 0.71951 0.0
H2022 H 0.45632 0.88719 0.70267 0.0
C2023 C 0.49309 0.92871 0.64952 0.0
C2024 C 0.47994 0.91824 0.6376 0.0
C2025 C 0.49642 0.92044 0.66817 0.0
C2026 C 0.47203 0.88544 0.7072 0.0
H2027 H 0.52716 0.85615 0.7883 0.0
H2028 H 0.52213 0.87859 0.75939 0.0
H2029 H 0.461 0.86945 0.73403 0.0
H2030 H 0.46071 0.89045 0.63565 0.0
H2031 H 0.46618 0.87637 0.6682 0.0
H2032 H 0.52319 0.89644 0.69246 0.0
C2033 C 0.51275 0.86445 0.76201 0.0
C2034 C 0.47473 0.87525 0.72512 0.0
C2035 C 0.51562 0.85163 0.77854 0.0
C2036 C 0.47049 0.89921 0.64461 0.0
C2037 C 0.47365 0.89109 0.66324 0.0
C2038 C 0.50953 0.89087 0.70159 0.0
C2039 C 0.49777 0.85912 0.74914 0.0
C2040 C 0.4949 0.87217 0.73124 0.0
C2041 C 0.4865 0.90169 0.67526 0.0
C2042 C 0.48941 0.89293 0.69508 0.0
H2043 H 0.47935 0.81376 0.77203 0.0
H2044 H 0.47444 0.83592 0.74329 0.0
H2045 H 0.52801 0.87827 0.72376 0.0
H2046 H 0.50046 0.9435 0.64463 0.0
H2047 H 0.50636 0.92892 0.6772 0.0
C2048 C 0.5235 0.33798 0.72146 0.0
C2049 C 0.50703 0.32424 0.72839 0.0
C2050 C 0.52675 0.35649 0.73068 0.0
C2051 C 0.50297 0.39217 0.76657 0.0
H2052 H 0.55887 0.39516 0.78418 0.0
C2053 C 0.51963 0.42066 0.84075 0.0
C2054 C 0.53915 0.42966 0.84366 0.0
C2055 C 0.51536 0.4143 0.82238 0.0
C2056 C 0.54334 0.39506 0.77902 0.0
H2057 H 0.48046 0.31958 0.74979 0.0
H2058 H 0.48612 0.3519 0.76588 0.0
H2059 H 0.55159 0.37174 0.75879 0.0
H2060 H 0.56899 0.44038 0.82939 0.0
H2061 H 0.56149 0.42925 0.79711 0.0
H2062 H 0.49453 0.41486 0.78747 0.0
C2063 C 0.4964 0.34845 0.75321 0.0
C2064 C 0.53916 0.38157 0.76446 0.0
C2065 C 0.49322 0.3299 0.74406 0.0
C2066 C 0.55394 0.43315 0.8276 0.0
C2067 C 0.54963 0.42685 0.80915 0.0
C2068 C 0.50719 0.40579 0.78105 0.0
C2069 C 0.51348 0.36168 0.74689 0.0
C2070 C 0.51874 0.37933 0.75874 0.0
C2071 C 0.53049 0.41685 0.80647 0.0
C2072 C 0.52718 0.40663 0.78806 0.0
H2073 H 0.53407 0.33426 0.70908 0.0
H2074 H 0.53992 0.36653 0.72544 0.0
H2075 H 0.48717 0.39095 0.76216 0.0
H2076 H 0.50802 0.41755 0.85289 0.0
H2077 H 0.50062 0.40629 0.82096 0.0
C2078 C 0.49266 0.17937 0.74309 0.0
C2079 C 0.49117 0.20104 0.7443 0.0
C2080 C 0.49015 0.16623 0.75995 0.0
C2081 C 0.47269 0.14108 0.79646 0.0
H2082 H 0.49605 0.15762 0.84379 0.0
C2083 C 0.45514 0.09543 0.8711 0.0
C2084 C 0.47151 0.09342 0.88349 0.0
C2085 C 0.45759 0.10812 0.85389 0.0
C2086 C 0.48955 0.15264 0.83067 0.0
H2087 H 0.48542 0.22602 0.76388 0.0
H2088 H 0.48091 0.20312 0.79351 0.0
H2089 H 0.5003 0.18053 0.81446 0.0
H2090 H 0.50348 0.10301 0.88718 0.0
H2091 H 0.50781 0.12485 0.85718 0.0
H2092 H 0.46224 0.11304 0.81258 0.0
C2093 C 0.48439 0.19622 0.77958 0.0
C2094 C 0.49177 0.16595 0.81388 0.0
C2095 C 0.48687 0.20936 0.76265 0.0
C2096 C 0.49051 0.10416 0.87804 0.0
C2097 C 0.49294 0.11687 0.86087 0.0
C2098 C 0.47042 0.1278 0.81327 0.0
C2099 C 0.486 0.17444 0.77848 0.0
C2100 C 0.48341 0.16035 0.7965 0.0
C2101 C 0.47646 0.11921 0.84862 0.0
C2102 C 0.47886 0.13336 0.83063 0.0
H2103 H 0.49579 0.17262 0.72903 0.0
H2104 H 0.49174 0.14962 0.75849 0.0
H2105 H 0.46583 0.1363 0.78345 0.0
H2106 H 0.44025 0.08749 0.87484 0.0
H2107 H 0.44447 0.10966 0.84497 0.0
C2108 C 0.76517 0.49853 0.67107 0.0
C2109 C 0.7623 0.50192 0.6911 0.0
C2110 C 0.74804 0.49875 0.65964 0.0
C2111 C 0.69022 0.49387 0.66334 0.0
H2112 H 0.69435 0.5249 0.61345 0.0
C2113 C 0.61814 0.52399 0.62792 0.0
C2114 C 0.61728 0.52355 0.60758 0.0
C2115 C 0.63625 0.51843 0.63665 0.0
C2116 C 0.69304 0.51585 0.62717 0.0
H2117 H 0.73973 0.50818 0.71504 0.0
H2118 H 0.7097 0.50868 0.69516 0.0
H2119 H 0.72541 0.5209 0.63165 0.0
H2120 H 0.6348 0.51664 0.58045 0.0
H2121 H 0.6668 0.50693 0.59585 0.0
H2122 H 0.65781 0.48921 0.65913 0.0
C2123 C 0.72504 0.50558 0.68824 0.0
C2124 C 0.71082 0.51358 0.63763 0.0
C2125 C 0.74216 0.50543 0.69961 0.0
C2126 C 0.63497 0.51709 0.59616 0.0
C2127 C 0.65329 0.51165 0.60495 0.0
C2128 C 0.6725 0.49612 0.65292 0.0
C2129 C 0.72776 0.50228 0.66811 0.0
C2130 C 0.70949 0.50298 0.65605 0.0
C2131 C 0.65411 0.51232 0.62531 0.0
C2132 C 0.67357 0.50757 0.63494 0.0
H2133 H 0.78067 0.49582 0.6643 0.0
H2134 H 0.75065 0.49602 0.64423 0.0
H2135 H 0.68876 0.4852 0.67728 0.0
H2136 H 0.60482 0.52887 0.63719 0.0
H2137 H 0.63642 0.51946 0.65231 0.0
C2138 C 0.27978 0.00529 0.67875 0.0
C2139 C 0.25888 0.00245 0.6747 0.0
C2140 C 0.29591 0.00423 0.6639 0.0
C2141 C 0.30864 0.98433 0.61465 0.0
H2142 H 0.35656 0.02172 0.61511 0.0
C2143 C 0.38124 0.98258 0.55764 0.0
C2144 C 0.40029 0.9815 0.56641 0.0
C2145 C 0.36269 0.9874 0.56873 0.0
C2146 C 0.34328 0.01118 0.61476 0.0
H2147 H 0.23822 0.99631 0.65221 0.0
H2148 H 0.26641 0.99454 0.62605 0.0
H2149 H 0.32664 0.02525 0.63879 0.0
H2150 H 0.41499 0.9855 0.59337 0.0
H2151 H 0.38308 0.99413 0.61239 0.0
H2152 H 0.32559 0.97011 0.59071 0.0
C2153 C 0.27044 0.99736 0.6407 0.0
C2154 C 0.32616 0.01311 0.62841 0.0
C2155 C 0.2543 0.99843 0.6556 0.0
C2156 C 0.40057 0.98613 0.58617 0.0
C2157 C 0.38226 0.99122 0.59707 0.0
C2158 C 0.3258 0.98245 0.6009 0.0
C2159 C 0.29147 1.00037 0.64464 0.0
C2160 C 0.30882 0.9994 0.62888 0.0
C2161 C 0.36303 0.99164 0.58863 0.0
C2162 C 0.34353 0.99553 0.60112 0.0
H2163 H 0.28361 0.00836 0.69342 0.0
H2164 H 0.3119 0.00623 0.6676 0.0
H2165 H 0.29562 0.97342 0.61462 0.0
H2166 H 0.38056 0.97897 0.54247 0.0
H2167 H 0.34809 0.98767 0.56182 0.0
C2168 C 0.74133 0.51256 0.80674 0.0
C2169 C 0.75889 0.4997 0.8066 0.0
C2170 C 0.72573 0.51089 0.82215 0.0
C2171 C 0.71353 0.49079 0.87321 0.0
H2172 H 0.65667 0.48951 0.85788 0.0
C2173 C 0.64054 0.46455 0.92535 0.0
C2174 C 0.62143 0.47374 0.92172 0.0
C2175 C 0.65868 0.46981 0.91321 0.0
C2176 C 0.6724 0.49022 0.86254 0.0
H2177 H 0.77417 0.47555 0.82303 0.0
H2178 H 0.74674 0.47247 0.84985 0.0
H2179 H 0.68556 0.49465 0.8331 0.0
H2180 H 0.60635 0.49653 0.90373 0.0
H2181 H 0.63797 0.50653 0.8833 0.0
H2182 H 0.70019 0.48623 0.90276 0.0
C2183 C 0.74512 0.4839 0.83804 0.0
C2184 C 0.68901 0.49312 0.84826 0.0
C2185 C 0.76073 0.48552 0.82256 0.0
C2186 C 0.62097 0.48925 0.90678 0.0
C2187 C 0.63904 0.49475 0.89493 0.0
C2188 C 0.69682 0.48799 0.8876 0.0
C2189 C 0.72728 0.49634 0.83785 0.0
C2190 C 0.70978 0.49349 0.85337 0.0
C2191 C 0.65793 0.48445 0.89738 0.0
C2192 C 0.67601 0.48777 0.88243 0.0
H2193 H 0.73931 0.52354 0.79465 0.0
H2194 H 0.71231 0.52089 0.82166 0.0
H2195 H 0.72937 0.49109 0.87762 0.0
H2196 H 0.64113 0.4523 0.93664 0.0
H2197 H 0.67292 0.46151 0.91552 0.0
C2198 C 0.2419 0.01518 0.81656 0.0
C2199 C 0.25058 0.00221 0.80227 0.0
C2200 C 0.24966 0.0152 0.83491 0.0
C2201 C 0.28437 0.98763 0.86783 0.0
H2202 H 0.29958 0.04364 0.88069 0.0
C2203 C 0.35703 0.00727 0.9065 0.0
C2204 C 0.35765 0.02537 0.91711 0.0
C2205 C 0.33889 1.00166 0.89796 0.0
C2206 C 0.295 0.02788 0.87777 0.0
H2207 H 0.27332 0.97828 0.7962 0.0
H2208 H 0.28725 0.97858 0.82822 0.0
H2209 H 0.27659 0.03866 0.85499 0.0
H2210 H 0.33938 0.05073 0.9287 0.0
H2211 H 0.30745 0.04076 0.91403 0.0
H2212 H 0.30359 0.97692 0.89018 0.0
C2213 C 0.27425 0.98853 0.82534 0.0
C2214 C 0.28182 0.02502 0.86294 0.0
C2215 C 0.26641 0.98846 0.80697 0.0
C2216 C 0.33937 0.0369 0.92028 0.0
C2217 C 0.32114 0.03118 0.91189 0.0
C2218 C 0.29751 0.99049 0.88279 0.0
C2219 C 0.26629 0.00229 0.83931 0.0
C2220 C 0.27697 0.0049 0.85735 0.0
C2221 C 0.32097 0.01398 0.89998 0.0
C2222 C 0.30359 0.01067 0.8874 0.0
H2223 H 0.22927 0.02554 0.81344 0.0
H2224 H 0.24301 0.02572 0.8455 0.0
H2225 H 0.28059 0.97194 0.864 0.0
H2226 H 0.37096 0.99818 0.90371 0.0
H2227 H 0.33944 0.98849 0.88869 0.0
C2228 C 0.7141 0.71743 0.51301 0.0
C2229 C 0.70973 0.73764 0.51887 0.0
C2230 C 0.69984 0.70098 0.51822 0.0
C2231 C 0.6582 0.6839 0.55519 0.0
H2232 H 0.64022 0.6473 0.51631 0.0
C2233 C 0.59447 0.61968 0.57506 0.0
C2234 C 0.59624 0.60098 0.56531 0.0
C2235 C 0.60756 0.63686 0.56905 0.0
C2236 C 0.64528 0.65709 0.52749 0.0
H2237 H 0.68674 0.75674 0.534 0.0
H2238 H 0.66219 0.72791 0.54373 0.0
H2239 H 0.66515 0.67555 0.5066 0.0
H2240 H 0.61341 0.58561 0.54176 0.0
H2241 H 0.63659 0.61492 0.53189 0.0
H2242 H 0.63907 0.66516 0.57627 0.0
C2243 C 0.67665 0.72473 0.53523 0.0
C2244 C 0.65953 0.67338 0.52184 0.0
C2245 C 0.69068 0.74119 0.5297 0.0
C2246 C 0.61141 0.59985 0.54948 0.0
C2247 C 0.62468 0.61683 0.54371 0.0
C2248 C 0.64424 0.66738 0.56094 0.0
C2249 C 0.68108 0.70443 0.52959 0.0
C2250 C 0.66612 0.68697 0.53562 0.0
C2251 C 0.623 0.63565 0.55335 0.0
C2252 C 0.63754 0.65367 0.54718 0.0
H2253 H 0.72858 0.71439 0.50446 0.0
H2254 H 0.70365 0.68548 0.51367 0.0
H2255 H 0.66314 0.69406 0.56616 0.0
H2256 H 0.58291 0.62108 0.58728 0.0
H2257 H 0.60544 0.65112 0.57669 0.0
C2258 C 0.70665 0.26722 0.95616 0.0
C2259 C 0.71675 0.26671 0.97362 0.0
C2260 C 0.69091 0.28162 0.95298 0.0
C2261 C 0.67041 0.33183 0.9707 0.0
H2262 H 0.62187 0.31768 0.9434 0.0
C2263 C 0.60003 0.38552 0.97015 0.0
C2264 C 0.59243 0.39065 0.95193 0.0
C2265 C 0.61398 0.36926 0.97226 0.0
C2266 C 0.63542 0.32187 0.95091 0.0
H2267 H 0.71796 0.28114 0.00144 0.0
H2268 H 0.69016 0.30548 0.99628 0.0
H2269 H 0.64867 0.2916 0.94826 0.0
H2270 H 0.5928 0.38188 0.92184 0.0
H2271 H 0.61717 0.35315 0.92564 0.0
H2272 H 0.65706 0.36193 0.97365 0.0
C2273 C 0.69465 0.29507 0.9848 0.0
C2274 C 0.65083 0.30697 0.95367 0.0
C2275 C 0.71045 0.28081 0.9879 0.0
C2276 C 0.59833 0.37834 0.93608 0.0
C2277 C 0.61228 0.36189 0.93824 0.0
C2278 C 0.65498 0.34659 0.96811 0.0
C2279 C 0.68478 0.29585 0.96722 0.0
C2280 C 0.66848 0.31171 0.96375 0.0
C2281 C 0.62068 0.35757 0.95626 0.0
C2282 C 0.63722 0.34177 0.95834 0.0
H2283 H 0.71083 0.25645 0.94491 0.0
H2284 H 0.68382 0.28182 0.93921 0.0
H2285 H 0.68399 0.33632 0.97806 0.0
H2286 H 0.59575 0.39452 0.98275 0.0
H2287 H 0.61985 0.36607 0.98642 0.0
C2288 C 0.35631 0.2608 0.98444 0.0
C2289 C 0.33862 0.25896 0.99789 0.0
C2290 C 0.3701 0.24425 0.98228 0.0
C2291 C 0.36893 0.18854 0.98416 0.0
H2292 H 0.42933 0.1909 0.98498 0.0
C2293 C 0.41637 0.11498 0.97229 0.0
C2294 C 0.436 0.11677 0.96175 0.0
C2295 C 0.40607 0.13263 0.97875 0.0
C2296 C 0.41252 0.19002 0.98442 0.0
H2297 H 0.32173 0.23872 0.01997 0.0
H2298 H 0.3456 0.20955 0.01584 0.0
H2299 H 0.40876 0.22172 0.99258 0.0
H2300 H 0.46058 0.13827 0.95002 0.0
H2301 H 0.4421 0.16945 0.96036 0.0
H2302 H 0.37234 0.15752 0.97498 0.0
C2303 C 0.3489 0.22389 0.00719 0.0
C2304 C 0.40078 0.20763 0.98892 0.0
C2305 C 0.33534 0.24057 0.00961 0.0
C2306 C 0.44545 0.13653 0.95819 0.0
C2307 C 0.43486 0.15436 0.96422 0.0
C2308 C 0.38062 0.17114 0.97928 0.0
C2309 C 0.36618 0.22547 0.99327 0.0
C2310 C 0.37887 0.20694 0.98897 0.0
C2311 C 0.41482 0.15266 0.97431 0.0
C2312 C 0.40259 0.1715 0.97949 0.0
H2313 H 0.35916 0.27487 0.97527 0.0
H2314 H 0.38325 0.24576 0.97137 0.0
H2315 H 0.35208 0.18777 0.98371 0.0
H2316 H 0.4089 0.09985 0.97551 0.0
H2317 H 0.39108 0.1305 0.98706 0.0
C2318 C 0.84157 0.28456 0.98178 0.0
C2319 C 0.84282 0.26485 0.99114 0.0
C2320 C 0.8568 0.29984 0.98394 0.0
C2321 C 0.89293 0.31677 0.0182 0.0
H2322 H 0.91789 0.35088 0.97427 0.0
C2323 C 0.94884 0.38541 0.02957 0.0
C2324 C 0.94572 0.40377 0.01838 0.0
C2325 C 0.93937 0.36665 0.02514 0.0
C2326 C 0.91095 0.34161 0.98672 0.0
H2327 H 0.86069 0.24537 0.00994 0.0
H2328 H 0.88722 0.27234 0.01413 0.0
H2329 H 0.89494 0.32157 0.96853 0.0
H2330 H 0.93064 0.41677 0.99352 0.0
H2331 H 0.91374 0.38444 0.98622 0.0
H2332 H 0.90799 0.33726 0.03651 0.0
C2333 C 0.8746 0.2759 0.00501 0.0
C2334 C 0.89789 0.3248 0.9834 0.0
C2335 C 0.85953 0.26053 0.00261 0.0
C2336 C 0.93344 0.40289 0.0024 0.0
C2337 C 0.92385 0.38425 0.9981 0.0
C2338 C 0.90577 0.33374 0.02156 0.0
C2339 C 0.87331 0.29572 0.99576 0.0
C2340 C 0.88853 0.31242 0.99912 0.0
C2341 C 0.92645 0.36593 0.00955 0.0
C2342 C 0.91467 0.3466 0.00587 0.0
H2343 H 0.82865 0.28819 0.97303 0.0
H2344 H 0.85532 0.31509 0.97686 0.0
H2345 H 0.88573 0.30755 0.03059 0.0
H2346 H 0.95832 0.38558 0.04191 0.0
H2347 H 0.94199 0.35278 0.03408 0.0
loop_
_geom_bond_atom_site_label_1
_geom_bond_atom_site_label_2
_geom_bond_distance
_geom_bond_site_symmetry_2
_ccdc_geom_bond_type
C0 C1 1.443 . S
C0 N4 1.376 . S
C0 C38 1.389 . S
C1 C0 1.443 . S
C1 C2 1.340 . S
C1 H41 0.951 . S
C2 C1 1.340 . S
C2 C3 1.439 . S
C2 H42 0.950 . S
C3 C2 1.439 . S
C3 N4 1.374 . S
C3 C37 1.395 . S
N4 C0 1.376 . S
N4 C3 1.374 . S
N4 Co5 2.008 1_655 S
Co5 N4 2.008 1_455 S
Co5 N6 1.995 1_455 S
Co5 N11 2.008 . S
Co5 N16 1.995 . S
Co5 N21 2.282 . S
Co5 N27 2.282 . S
N6 Co5 1.995 1_655 S
N6 C7 1.376 . S
N6 C10 1.383 . S
C7 N6 1.376 . S
C7 C8 1.446 . S
C7 C37 1.391 . S
C8 C7 1.446 . S
C8 C9 1.339 . S
C8 H43 0.949 . S
C9 C8 1.339 . S
C9 C10 1.439 . S
C9 H44 0.950 . S
C10 N6 1.383 . S
C10 C9 1.439 . S
C10 C39 1.392 1_655 S
N11 Co5 2.008 . S
N11 C12 1.376 . S
N11 C15 1.374 . S
C12 N11 1.376 . S
C12 C13 1.443 . S
C12 C39 1.389 . S
C13 C12 1.443 . S
C13 C14 1.340 . S
C13 H45 0.951 . S
C14 C13 1.340 . S
C14 C15 1.439 . S
C14 H46 0.950 . S
C15 N11 1.374 . S
C15 C14 1.439 . S
C15 C40 1.395 . S
N16 Co5 1.995 . S
N16 C17 1.376 . S
N16 C20 1.383 . S
C17 N16 1.376 . S
C17 C18 1.446 . S
C17 C40 1.391 . S
C18 C17 1.446 . S
C18 C19 1.339 . S
C18 H47 0.949 . S
C19 C18 1.339 . S
C19 C20 1.439 . S
C19 H48 0.950 . S
C20 N16 1.383 . S
C20 C19 1.439 . S
C20 C38 1.392 1_455 S
N21 Co5 2.282 . S
N21 C24 1.332 . S
N21 C26 1.332 1_455 S
C22 C23 1.386 . S
C22 C25 1.392 . S
C23 C22 1.386 . S
C23 C24 1.382 . S
C23 H49 0.950 . S
C24 N21 1.332 . S
C24 C23 1.382 . S
C24 H35 0.952 . S
C25 C22 1.392 . S
C25 C26 1.381 1_455 S
C25 H50 0.947 1_455 S
C26 N21 1.332 1_655 S
C26 C25 1.381 1_655 S
C26 H36 0.948 . S
N27 Co5 2.282 . S
N27 C31 1.332 1_455 S
N27 C32 1.332 . S
C28 C29 1.388 1_455 S
C28 C32 1.382 . S
C28 H51 0.950 . S
C29 C28 1.388 1_655 S
C29 C30 1.386 . S
C30 C29 1.386 . S
C30 C31 1.382 . S
C30 H52 0.950 . S
C31 N27 1.332 1_655 S
C31 C30 1.382 . S
C31 H33 0.952 . S
C32 N27 1.332 . S
C32 C28 1.382 . S
C32 H34 0.948 . S
H33 C31 0.952 . S
H34 C32 0.948 . S
H35 C24 0.952 . S
H36 C26 0.948 . S
C37 C3 1.395 . S
C37 C7 1.391 . S
C38 C0 1.389 . S
C38 C20 1.392 1_655 S
C39 C10 1.392 1_455 S
C39 C12 1.389 . S
C40 C15 1.395 . S
C40 C17 1.391 . S
H41 C1 0.951 . S
H42 C2 0.950 . S
H43 C8 0.949 . S
H44 C9 0.950 . S
H45 C13 0.951 . S
H46 C14 0.950 . S
H47 C18 0.949 . S
H48 C19 0.950 . S
H49 C23 0.950 . S
H50 C25 0.947 1_655 S
H51 C28 0.950 . S
H52 C30 0.950 . S
C53 C54 1.443 . S
C53 N57 1.376 . S
C53 C91 1.411 . S
C54 C53 1.443 . S
C54 C55 1.340 . S
C54 H94 0.951 . S
C55 C54 1.340 . S
C55 C56 1.439 . S
C55 H95 0.950 . S
C56 C55 1.439 . S
C56 N57 1.374 . S
C56 C90 1.395 . S
N57 C53 1.376 . S
N57 C56 1.374 . S
N57 Co58 2.008 1_655 S
Co58 N57 2.008 1_455 S
Co58 N59 1.995 1_455 S
Co58 N64 2.008 . S
Co58 N69 1.995 . S
Co58 N74 2.282 . S
Co58 N80 2.282 . S
N59 Co58 1.995 1_655 S
N59 C60 1.376 . S
N59 C63 1.383 . S
C60 N59 1.376 . S
C60 C61 1.446 . S
C60 C90 1.391 . S
C61 C60 1.446 . S
C61 C62 1.339 . S
C61 H96 0.949 . S
C62 C61 1.339 . S
C62 C63 1.439 . S
C62 H97 0.950 . S
C63 N59 1.383 . S
C63 C62 1.439 . S
C63 C92 1.392 1_655 S
N64 Co58 2.008 . S
N64 C65 1.376 . S
N64 C68 1.374 . S
C65 N64 1.376 . S
C65 C66 1.443 . S
C65 C92 1.389 . S
C66 C65 1.443 . S
C66 C67 1.340 . S
C66 H98 0.951 . S
C67 C66 1.340 . S
C67 C68 1.439 . S
C67 H99 0.950 . S
C68 N64 1.374 . S
C68 C67 1.439 . S
C68 C93 1.395 . S
N69 Co58 1.995 . S
N69 C70 1.376 . S
N69 C73 1.383 . S
C70 N69 1.376 . S
C70 C71 1.446 . S
C70 C93 1.391 . S
C71 C70 1.446 . S
C71 C72 1.339 . S
C71 H100 0.949 . S
C72 C71 1.339 . S
C72 C73 1.439 . S
C72 H101 0.950 . S
C73 N69 1.383 . S
C73 C72 1.439 . S
C73 C91 1.366 1_455 S
N74 Co58 2.282 . S
N74 C77 1.332 . S
N74 C79 1.300 1_455 S
C75 C76 1.386 . S
C75 C78 1.388 . S
C76 C75 1.386 . S
C76 C77 1.382 . S
C76 H102 0.950 . S
C77 N74 1.332 . S
C77 C76 1.382 . S
C77 H88 0.952 . S
C78 C75 1.388 . S
C78 C79 1.376 1_455 S
C78 H103 0.950 1_455 S
C79 N74 1.300 1_655 S
C79 C78 1.376 1_655 S
C79 H89 0.990 . S
N80 Co58 2.282 . S
N80 C84 1.332 1_455 S
N80 C85 1.332 . S
C81 C82 1.388 1_455 S
C81 C85 1.382 . S
C81 H104 0.950 . S
C82 C81 1.388 1_655 S
C82 C83 1.386 . S
C83 C82 1.386 . S
C83 C84 1.382 . S
C83 H105 0.950 . S
C84 N80 1.332 1_655 S
C84 C83 1.382 . S
C84 H86 0.952 . S
C85 N80 1.332 . S
C85 C81 1.382 . S
C85 H87 0.948 . S
H86 C84 0.952 . S
H87 C85 0.948 . S
H88 C77 0.952 . S
H89 C79 0.990 . S
C90 C56 1.395 . S
C90 C60 1.391 . S
C91 C53 1.411 . S
C91 C73 1.366 1_655 S
C92 C63 1.392 1_455 S
C92 C65 1.389 . S
C93 C68 1.395 . S
C93 C70 1.391 . S
H94 C54 0.951 . S
H95 C55 0.950 . S
H96 C61 0.949 . S
H97 C62 0.950 . S
H98 C66 0.951 . S
H99 C67 0.950 . S
H100 C71 0.949 . S
H101 C72 0.950 . S
H102 C76 0.950 . S
H103 C78 0.950 1_655 S
H104 C81 0.950 . S
H105 C83 0.950 . S
C106 C107 1.443 . S
C106 N110 1.376 . S
C106 C144 1.386 . S
C107 C106 1.443 . S
C107 C108 1.340 . S
C107 H147 0.951 . S
C108 C107 1.340 . S
C108 C109 1.439 . S
C108 H148 0.950 . S
C109 C108 1.439 . S
C109 N110 1.374 . S
C109 C143 1.395 . S
N110 C106 1.376 . S
N110 C109 1.374 . S
N110 Co111 2.008 1_565 S
Co111 N110 2.008 1_545 S
Co111 N112 1.995 1_545 S
Co111 N117 2.008 . S
Co111 N122 1.995 . S
Co111 N127 2.282 . S
Co111 N133 2.282 . S
N112 Co111 1.995 1_565 S
N112 C113 1.376 . S
N112 C116 1.383 . S
C113 N112 1.376 . S
C113 C114 1.446 . S
C113 C143 1.391 . S
C114 C113 1.446 . S
C114 C115 1.339 . S
C114 H149 0.949 . S
C115 C114 1.339 . S
C115 C116 1.439 . S
C115 H150 0.950 . S
C116 N112 1.383 . S
C116 C115 1.439 . S
C116 C145 1.392 1_565 S
N117 Co111 2.008 . S
N117 C118 1.376 . S
N117 C121 1.374 . S
C118 N117 1.376 . S
C118 C119 1.443 . S
C118 C145 1.389 . S
C119 C118 1.443 . S
C119 C120 1.340 . S
C119 H151 0.951 . S
C120 C119 1.340 . S
C120 C121 1.439 . S
C120 H152 0.950 . S
C121 N117 1.374 . S
C121 C120 1.439 . S
C121 C146 1.395 . S
N122 Co111 1.995 . S
N122 C123 1.376 . S
N122 C126 1.383 . S
C123 N122 1.376 . S
C123 C124 1.446 . S
C123 C146 1.391 . S
C124 C123 1.446 . S
C124 C125 1.339 . S
C124 H153 0.949 . S
C125 C124 1.339 . S
C125 C126 1.439 . S
C125 H154 0.950 . S
C126 N122 1.383 . S
C126 C125 1.439 . S
C126 C144 1.395 1_545 S
N127 Co111 2.282 . S
N127 C130 1.332 . S
N127 C132 1.332 . S
C128 C129 1.386 . S
C128 C131 1.388 . S
C129 C128 1.386 . S
C129 C130 1.382 . S
C129 H155 0.950 . S
C130 N127 1.332 . S
C130 C129 1.382 . S
C130 H141 0.952 . S
C131 C128 1.388 . S
C131 C132 1.382 . S
C131 H156 0.950 1_545 S
C132 N127 1.332 . S
C132 C131 1.382 . S
C132 H142 0.948 1_545 S
N133 Co111 2.282 . S
N133 C137 1.332 1_545 S
N133 C138 1.332 . S
C134 C135 1.388 1_545 S
C134 C138 1.382 . S
C134 H157 0.950 . S
C135 C134 1.388 1_565 S
C135 C136 1.386 . S
C136 C135 1.386 . S
C136 C137 1.382 . S
C136 H158 0.950 . S
C137 N133 1.332 1_565 S
C137 C136 1.382 . S
C137 H139 0.952 . S
C138 N133 1.332 . S
C138 C134 1.382 . S
C138 H140 0.948 . S
H139 C137 0.952 . S
H140 C138 0.948 . S
H141 C130 0.952 . S
H142 C132 0.948 1_565 S
C143 C109 1.395 . S
C143 C113 1.391 . S
C144 C106 1.386 . S
C144 C126 1.395 1_565 S
C145 C116 1.392 1_545 S
C145 C118 1.389 . S
C146 C121 1.395 . S
C146 C123 1.391 . S
H147 C107 0.951 . S
H148 C108 0.950 . S
H149 C114 0.949 . S
H150 C115 0.950 . S
H151 C119 0.951 . S
H152 C120 0.950 . S
H153 C124 0.949 . S
H154 C125 0.950 . S
H155 C129 0.950 . S
H156 C131 0.950 1_565 S
H157 C134 0.950 . S
H158 C136 0.950 . S
C159 C160 1.443 . S
C159 N163 1.376 . S
C159 C197 1.389 . S
C160 C159 1.443 . S
C160 C161 1.340 . S
C160 H200 0.951 . S
C161 C160 1.340 . S
C161 C162 1.439 . S
C161 H201 0.950 . S
C162 C161 1.439 . S
C162 N163 1.374 . S
C162 C196 1.395 . S
N163 C159 1.376 . S
N163 C162 1.374 . S
N163 Co164 2.008 . S
Co164 N163 2.008 . S
Co164 N165 1.995 . S
Co164 N170 2.008 . S
Co164 N175 1.995 . S
Co164 N180 2.282 . S
Co164 N186 2.282 . S
N165 Co164 1.995 . S
N165 C166 1.376 . S
N165 C169 1.383 . S
C166 N165 1.376 . S
C166 C167 1.446 . S
C166 C196 1.391 . S
C167 C166 1.446 . S
C167 C168 1.339 . S
C167 H202 0.949 . S
C168 C167 1.339 . S
C168 C169 1.439 . S
C168 H203 0.950 . S
C169 N165 1.383 . S
C169 C168 1.439 . S
C169 C198 1.392 . S
N170 Co164 2.008 . S
N170 C171 1.376 . S
N170 C174 1.374 . S
C171 N170 1.376 . S
C171 C172 1.443 . S
C171 C198 1.389 . S
C172 C171 1.443 . S
C172 C173 1.340 . S
C172 H204 0.951 . S
C173 C172 1.340 . S
C173 C174 1.439 . S
C173 H205 0.950 . S
C174 N170 1.374 . S
C174 C173 1.439 . S
C174 C199 1.395 . S
N175 Co164 1.995 . S
N175 C176 1.376 . S
N175 C179 1.383 . S
C176 N175 1.376 . S
C176 C177 1.446 . S
C176 C199 1.391 . S
C177 C176 1.446 . S
C177 C178 1.339 . S
C177 H206 0.949 . S
C178 C177 1.339 . S
C178 C179 1.439 . S
C178 H207 0.950 . S
C179 N175 1.383 . S
C179 C178 1.439 . S
C179 C197 1.392 . S
N180 Co164 2.282 . S
N180 C183 1.332 . S
N180 C185 1.332 . S
C181 C182 1.386 . S
C181 C184 1.388 . S
C182 C181 1.386 . S
C182 C183 1.382 . S
C182 H208 0.950 . S
C183 N180 1.332 . S
C183 C182 1.382 . S
C183 H194 0.952 . S
C184 C181 1.388 . S
C184 C185 1.382 . S
C184 H209 0.950 . S
C185 N180 1.332 . S
C185 C184 1.382 . S
C185 H195 0.948 . S
N186 Co164 2.282 . S
N186 C190 1.332 . S
N186 C191 1.332 . S
C187 C188 1.388 . S
C187 C191 1.382 . S
C187 H210 0.950 . S
C188 C187 1.388 . S
C188 C189 1.386 . S
C189 C188 1.386 . S
C189 C190 1.382 . S
C189 H211 0.950 . S
C190 N186 1.332 . S
C190 C189 1.382 . S
C190 H192 0.952 . S
C191 N186 1.332 . S
C191 C187 1.382 . S
C191 H193 0.948 . S
H192 C190 0.952 . S
H193 C191 0.948 . S
H194 C183 0.952 . S
H195 C185 0.948 . S
C196 C162 1.395 . S
C196 C166 1.391 . S
C197 C159 1.389 . S
C197 C179 1.392 . S
C198 C169 1.392 . S
C198 C171 1.389 . S
C199 C174 1.395 . S
C199 C176 1.391 . S
H200 C160 0.951 . S
H201 C161 0.950 . S
H202 C167 0.949 . S
H203 C168 0.950 . S
H204 C172 0.951 . S
H205 C173 0.950 . S
H206 C177 0.949 . S
H207 C178 0.950 . S
H208 C182 0.950 . S
H209 C184 0.950 . S
H210 C187 0.950 . S
H211 C189 0.950 . S
C212 C213 1.443 . S
C212 N216 1.376 . S
C212 C250 1.389 . S
C213 C212 1.443 . S
C213 C214 1.340 . S
C213 H253 0.951 . S
C214 C213 1.340 . S
C214 C215 1.439 . S
C214 H254 0.950 . S
C215 C214 1.439 . S
C215 N216 1.374 . S
C215 C249 1.395 . S
N216 C212 1.376 . S
N216 C215 1.374 . S
N216 Co217 2.008 1_556 S
Co217 N216 2.008 1_554 S
Co217 N218 1.995 1_554 S
Co217 N223 2.008 . S
Co217 N228 1.995 . S
Co217 N233 2.282 . S
Co217 N239 2.282 1_554 S
N218 Co217 1.995 1_556 S
N218 C219 1.376 . S
N218 C222 1.383 . S
C219 N218 1.376 . S
C219 C220 1.446 . S
C219 C249 1.391 . S
C220 C219 1.446 . S
C220 C221 1.339 . S
C220 H255 0.949 . S
C221 C220 1.339 . S
C221 C222 1.439 . S
C221 H256 0.950 . S
C222 N218 1.383 . S
C222 C221 1.439 . S
C222 C251 1.392 1_556 S
N223 Co217 2.008 . S
N223 C224 1.376 . S
N223 C227 1.374 . S
C224 N223 1.376 . S
C224 C225 1.443 . S
C224 C251 1.389 . S
C225 C224 1.443 . S
C225 C226 1.340 . S
C225 H257 0.951 . S
C226 C225 1.340 . S
C226 C227 1.439 . S
C226 H258 0.950 . S
C227 N223 1.374 . S
C227 C226 1.439 . S
C227 C252 1.395 . S
N228 Co217 1.995 . S
N228 C229 1.376 . S
N228 C232 1.383 . S
C229 N228 1.376 . S
C229 C230 1.446 . S
C229 C252 1.391 . S
C230 C229 1.446 . S
C230 C231 1.339 . S
C230 H259 0.949 . S
C231 C230 1.339 . S
C231 C232 1.439 . S
C231 H260 0.950 . S
C232 N228 1.383 . S
C232 C231 1.439 . S
C232 C250 1.392 1_554 S
N233 Co217 2.282 . S
N233 C236 1.332 . S
N233 C238 1.332 1_554 S
C234 C235 1.386 . S
C234 C237 1.388 1_554 S
C235 C234 1.386 . S
C235 C236 1.382 . S
C235 H261 0.950 . S
C236 N233 1.332 . S
C236 C235 1.382 . S
C236 H247 0.952 . S
C237 C234 1.388 1_556 S
C237 C238 1.382 . S
C237 H262 0.950 . S
C238 N233 1.332 1_556 S
C238 C237 1.382 . S
C238 H248 0.948 . S
N239 Co217 2.282 1_556 S
N239 C243 1.332 . S
N239 C244 1.332 1_556 S
C240 C241 1.388 1_554 S
C240 C244 1.382 . S
C240 H263 0.950 . S
C241 C240 1.388 1_556 S
C241 C242 1.386 . S
C242 C241 1.386 . S
C242 C243 1.382 . S
C242 H264 0.950 . S
C243 N239 1.332 . S
C243 C242 1.382 . S
C243 H245 0.952 . S
C244 N239 1.332 1_554 S
C244 C240 1.382 . S
C244 H246 0.948 . S
H245 C243 0.952 . S
H246 C244 0.948 . S
H247 C236 0.952 . S
H248 C238 0.948 . S
C249 C215 1.395 . S
C249 C219 1.391 . S
C250 C212 1.389 . S
C250 C232 1.392 1_556 S
C251 C222 1.392 1_554 S
C251 C224 1.389 . S
C252 C227 1.395 . S
C252 C229 1.391 . S
H253 C213 0.951 . S
H254 C214 0.950 . S
H255 C220 0.949 . S
H256 C221 0.950 . S
H257 C225 0.951 . S
H258 C226 0.950 . S
H259 C230 0.949 . S
H260 C231 0.950 . S
H261 C235 0.950 . S
H262 C237 0.950 . S
H263 C240 0.950 . S
H264 C242 0.950 . S
C265 C266 1.443 . S
C265 N269 1.376 . S
C265 C303 1.389 . S
C266 C265 1.443 . S
C266 C267 1.340 . S
C266 H306 0.951 . S
C267 C266 1.340 . S
C267 C268 1.439 . S
C267 H307 0.950 . S
C268 C267 1.439 . S
C268 N269 1.374 . S
C268 C302 1.395 . S
N269 C265 1.376 . S
N269 C268 1.374 . S
N269 Co270 2.008 . S
Co270 N269 2.008 . S
Co270 N271 1.995 . S
Co270 N276 2.008 . S
Co270 N281 1.995 . S
Co270 N286 2.282 . S
Co270 N292 2.282 . S
N271 Co270 1.995 . S
N271 C272 1.376 . S
N271 C275 1.383 . S
C272 N271 1.376 . S
C272 C273 1.446 . S
C272 C302 1.391 . S
C273 C272 1.446 . S
C273 C274 1.339 . S
C273 H308 0.949 . S
C274 C273 1.339 . S
C274 C275 1.439 . S
C274 H309 0.950 . S
C275 N271 1.383 . S
C275 C274 1.439 . S
C275 C304 1.392 . S
N276 Co270 2.008 . S
N276 C277 1.376 . S
N276 C280 1.374 . S
C277 N276 1.376 . S
C277 C278 1.443 . S
C277 C304 1.389 . S
C278 C277 1.443 . S
C278 C279 1.340 . S
C278 H310 0.951 . S
C279 C278 1.340 . S
C279 C280 1.439 . S
C279 H311 0.950 . S
C280 N276 1.374 . S
C280 C279 1.439 . S
C280 C305 1.395 . S
N281 Co270 1.995 . S
N281 C282 1.376 . S
N281 C285 1.383 . S
C282 N281 1.376 . S
C282 C283 1.446 . S
C282 C305 1.391 . S
C283 C282 1.446 . S
C283 C284 1.339 . S
C283 H312 0.949 . S
C284 C283 1.339 . S
C284 C285 1.439 . S
C284 H313 0.950 . S
C285 N281 1.383 . S
C285 C284 1.439 . S
C285 C303 1.392 . S
N286 Co270 2.282 . S
N286 C289 1.332 . S
N286 C291 1.332 . S
C287 C288 1.386 . S
C287 C290 1.388 . S
C288 C287 1.386 . S
C288 C289 1.382 . S
C288 H314 0.950 . S
C289 N286 1.332 . S
C289 C288 1.382 . S
C289 H300 0.952 . S
C290 C287 1.388 . S
C290 C291 1.382 . S
C290 H315 0.950 . S
C291 N286 1.332 . S
C291 C290 1.382 . S
C291 H301 0.948 . S
N292 Co270 2.282 . S
N292 C296 1.332 . S
N292 C297 1.332 . S
C293 C294 1.388 . S
C293 C297 1.382 . S
C293 H316 0.950 . S
C294 C293 1.388 . S
C294 C295 1.386 . S
C295 C294 1.386 . S
C295 C296 1.382 . S
C295 H317 0.950 . S
C296 N292 1.332 . S
C296 C295 1.382 . S
C296 H298 0.952 . S
C297 N292 1.332 . S
C297 C293 1.382 . S
C297 H299 0.948 . S
H298 C296 0.952 . S
H299 C297 0.948 . S
H300 C289 0.952 . S
H301 C291 0.948 . S
C302 C268 1.395 . S
C302 C272 1.391 . S
C303 C265 1.389 . S
C303 C285 1.392 . S
C304 C275 1.392 . S
C304 C277 1.389 . S
C305 C280 1.395 . S
C305 C282 1.391 . S
H306 C266 0.951 . S
H307 C267 0.950 . S
H308 C273 0.949 . S
H309 C274 0.950 . S
H310 C278 0.951 . S
H311 C279 0.950 . S
H312 C283 0.949 . S
H313 C284 0.950 . S
H314 C288 0.950 . S
H315 C290 0.950 . S
H316 C293 0.950 . S
H317 C295 0.950 . S
C318 C319 1.443 . S
C318 N322 1.376 . S
C318 C356 1.389 . S
C319 C318 1.443 . S
C319 C320 1.340 . S
C319 H359 0.951 . S
C320 C319 1.340 . S
C320 C321 1.439 . S
C320 H360 0.950 . S
C321 C320 1.439 . S
C321 N322 1.374 . S
C321 C355 1.395 . S
N322 C318 1.376 . S
N322 C321 1.374 . S
N322 Co323 2.008 . S
Co323 N322 2.008 . S
Co323 N324 1.995 . S
Co323 N329 2.008 . S
Co323 N334 1.995 . S
Co323 N339 2.282 . S
Co323 N345 2.282 . S
N324 Co323 1.995 . S
N324 C325 1.376 . S
N324 C328 1.383 . S
C325 N324 1.376 . S
C325 C326 1.446 . S
C325 C355 1.391 . S
C326 C325 1.446 . S
C326 C327 1.339 . S
C326 H361 0.949 . S
C327 C326 1.339 . S
C327 C328 1.439 . S
C327 H362 0.950 . S
C328 N324 1.383 . S
C328 C327 1.439 . S
C328 C357 1.392 . S
N329 Co323 2.008 . S
N329 C330 1.376 . S
N329 C333 1.374 . S
C330 N329 1.376 . S
C330 C331 1.443 . S
C330 C357 1.389 . S
C331 C330 1.443 . S
C331 C332 1.340 . S
C331 H363 0.951 . S
C332 C331 1.340 . S
C332 C333 1.439 . S
C332 H364 0.950 . S
C333 N329 1.374 . S
C333 C332 1.439 . S
C333 C358 1.395 . S
N334 Co323 1.995 . S
N334 C335 1.376 . S
N334 C338 1.383 . S
C335 N334 1.376 . S
C335 C336 1.446 . S
C335 C358 1.391 . S
C336 C335 1.446 . S
C336 C337 1.339 . S
C336 H365 0.949 . S
C337 C336 1.339 . S
C337 C338 1.439 . S
C337 H366 0.950 . S
C338 N334 1.383 . S
C338 C337 1.439 . S
C338 C356 1.392 . S
N339 Co323 2.282 . S
N339 C342 1.332 . S
N339 C344 1.332 . S
C340 C341 1.386 . S
C340 C343 1.388 . S
C341 C340 1.386 . S
C341 C342 1.382 . S
C341 H367 0.950 . S
C342 N339 1.332 . S
C342 C341 1.382 . S
C342 H353 0.952 . S
C343 C340 1.388 . S
C343 C344 1.382 . S
C343 H368 0.950 . S
C344 N339 1.332 . S
C344 C343 1.382 . S
C344 H354 0.948 . S
N345 Co323 2.282 . S
N345 C349 1.332 . S
N345 C350 1.332 . S
C346 C347 1.388 . S
C346 C350 1.382 . S
C346 H369 0.950 . S
C347 C346 1.388 . S
C347 C348 1.386 . S
C348 C347 1.386 . S
C348 C349 1.382 . S
C348 H370 0.950 . S
C349 N345 1.332 . S
C349 C348 1.382 . S
C349 H351 0.952 . S
C350 N345 1.332 . S
C350 C346 1.382 . S
C350 H352 0.948 . S
H351 C349 0.952 . S
H352 C350 0.948 . S
H353 C342 0.952 . S
H354 C344 0.948 . S
C355 C321 1.395 . S
C355 C325 1.391 . S
C356 C318 1.389 . S
C356 C338 1.392 . S
C357 C328 1.392 . S
C357 C330 1.389 . S
C358 C333 1.395 . S
C358 C335 1.391 . S
H359 C319 0.951 . S
H360 C320 0.950 . S
H361 C326 0.949 . S
H362 C327 0.950 . S
H363 C331 0.951 . S
H364 C332 0.950 . S
H365 C336 0.949 . S
H366 C337 0.950 . S
H367 C341 0.950 . S
H368 C343 0.950 . S
H369 C346 0.950 . S
H370 C348 0.950 . S
C371 C372 1.443 . S
C371 N375 1.376 . S
C371 C409 1.389 . S
C372 C371 1.443 . S
C372 C373 1.340 . S
C372 H412 0.951 . S
C373 C372 1.340 . S
C373 C374 1.439 . S
C373 H413 0.950 . S
C374 C373 1.439 . S
C374 N375 1.374 . S
C374 C408 1.395 . S
N375 C371 1.376 . S
N375 C374 1.374 . S
N375 Co376 2.008 . S
Co376 N375 2.008 . S
Co376 N377 1.995 . S
Co376 N382 2.008 . S
Co376 N387 1.995 . S
Co376 N392 2.282 . S
Co376 N398 2.282 . S
N377 Co376 1.995 . S
N377 C378 1.376 . S
N377 C381 1.383 . S
C378 N377 1.376 . S
C378 C379 1.446 . S
C378 C408 1.391 . S
C379 C378 1.446 . S
C379 C380 1.339 . S
C379 H414 0.949 . S
C380 C379 1.339 . S
C380 C381 1.439 . S
C380 H415 0.950 . S
C381 N377 1.383 . S
C381 C380 1.439 . S
C381 C410 1.392 . S
N382 Co376 2.008 . S
N382 C383 1.376 . S
N382 C386 1.374 . S
C383 N382 1.376 . S
C383 C384 1.443 . S
C383 C410 1.389 . S
C384 C383 1.443 . S
C384 C385 1.340 . S
C384 H416 0.951 . S
C385 C384 1.340 . S
C385 C386 1.439 . S
C385 H417 0.950 . S
C386 N382 1.374 . S
C386 C385 1.439 . S
C386 C411 1.395 . S
N387 Co376 1.995 . S
N387 C388 1.376 . S
N387 C391 1.383 . S
C388 N387 1.376 . S
C388 C389 1.446 . S
C388 C411 1.391 . S
C389 C388 1.446 . S
C389 C390 1.339 . S
C389 H418 0.949 . S
C390 C389 1.339 . S
C390 C391 1.439 . S
C390 H419 0.950 . S
C391 N387 1.383 . S
C391 C390 1.439 . S
C391 C409 1.392 . S
N392 Co376 2.282 . S
N392 C395 1.332 . S
N392 C397 1.332 . S
C393 C394 1.386 . S
C393 C396 1.388 . S
C394 C393 1.386 . S
C394 C395 1.382 . S
C394 H420 0.950 . S
C395 N392 1.332 . S
C395 C394 1.382 . S
C395 H406 0.952 . S
C396 C393 1.388 . S
C396 C397 1.382 . S
C396 H421 0.950 . S
C397 N392 1.332 . S
C397 C396 1.382 . S
C397 H407 0.948 . S
N398 Co376 2.282 . S
N398 C402 1.332 . S
N398 C403 1.332 . S
C399 C400 1.388 . S
C399 C403 1.382 . S
C399 H422 0.950 . S
C400 C399 1.388 . S
C400 C401 1.386 . S
C401 C400 1.386 . S
C401 C402 1.382 . S
C401 H423 0.950 . S
C402 N398 1.332 . S
C402 C401 1.382 . S
C402 H404 0.952 . S
C403 N398 1.332 . S
C403 C399 1.382 . S
C403 H405 0.948 . S
H404 C402 0.952 . S
H405 C403 0.948 . S
H406 C395 0.952 . S
H407 C397 0.948 . S
C408 C374 1.395 . S
C408 C378 1.391 . S
C409 C371 1.389 . S
C409 C391 1.392 . S
C410 C381 1.392 . S
C410 C383 1.389 . S
C411 C386 1.395 . S
C411 C388 1.391 . S
H412 C372 0.951 . S
H413 C373 0.950 . S
H414 C379 0.949 . S
H415 C380 0.950 . S
H416 C384 0.951 . S
H417 C385 0.950 . S
H418 C389 0.949 . S
H419 C390 0.950 . S
H420 C394 0.950 . S
H421 C396 0.950 . S
H422 C399 0.950 . S
H423 C401 0.950 . S
C424 C425 1.443 . S
C424 N428 1.376 . S
C424 C462 1.389 . S
C425 C424 1.443 . S
C425 C426 1.340 . S
C425 H465 0.951 . S
C426 C425 1.340 . S
C426 C427 1.439 . S
C426 H466 0.950 . S
C427 C426 1.439 . S
C427 N428 1.374 . S
C427 C461 1.395 . S
N428 C424 1.376 . S
N428 C427 1.374 . S
N428 Co429 2.008 . S
Co429 N428 2.008 . S
Co429 N430 1.995 . S
Co429 N435 2.008 . S
Co429 N440 1.995 . S
Co429 N445 2.282 . S
Co429 N451 2.282 . S
N430 Co429 1.995 . S
N430 C431 1.376 . S
N430 C434 1.383 . S
C431 N430 1.376 . S
C431 C432 1.446 . S
C431 C461 1.391 . S
C432 C431 1.446 . S
C432 C433 1.339 . S
C432 H467 0.949 . S
C433 C432 1.339 . S
C433 C434 1.439 . S
C433 H468 0.950 . S
C434 N430 1.383 . S
C434 C433 1.439 . S
C434 C463 1.392 . S
N435 Co429 2.008 . S
N435 C436 1.376 . S
N435 C439 1.374 . S
C436 N435 1.376 . S
C436 C437 1.443 . S
C436 C463 1.389 . S
C437 C436 1.443 . S
C437 C438 1.340 . S
C437 H469 0.951 . S
C438 C437 1.340 . S
C438 C439 1.439 . S
C438 H470 0.950 . S
C439 N435 1.374 . S
C439 C438 1.439 . S
C439 C464 1.395 . S
N440 Co429 1.995 . S
N440 C441 1.376 . S
N440 C444 1.383 . S
C441 N440 1.376 . S
C441 C442 1.446 . S
C441 C464 1.391 . S
C442 C441 1.446 . S
C442 C443 1.339 . S
C442 H471 0.949 . S
C443 C442 1.339 . S
C443 C444 1.439 . S
C443 H472 0.950 . S
C444 N440 1.383 . S
C444 C443 1.439 . S
C444 C462 1.392 . S
N445 Co429 2.282 . S
N445 C448 1.332 . S
N445 C450 1.332 . S
C446 C447 1.386 . S
C446 C449 1.388 . S
C447 C446 1.386 . S
C447 C448 1.382 . S
C447 H473 0.950 . S
C448 N445 1.332 . S
C448 C447 1.382 . S
C448 H459 0.952 . S
C449 C446 1.388 . S
C449 C450 1.382 . S
C449 H474 0.950 . S
C450 N445 1.332 . S
C450 C449 1.382 . S
C450 H460 0.948 . S
N451 Co429 2.282 . S
N451 C455 1.332 . S
N451 C456 1.332 . S
C452 C453 1.388 . S
C452 C456 1.382 . S
C452 H475 0.950 . S
C453 C452 1.388 . S
C453 C454 1.386 . S
C454 C453 1.386 . S
C454 C455 1.382 . S
C454 H476 0.950 . S
C455 N451 1.332 . S
C455 C454 1.382 . S
C455 H457 0.952 . S
C456 N451 1.332 . S
C456 C452 1.382 . S
C456 H458 0.948 . S
H457 C455 0.952 . S
H458 C456 0.948 . S
H459 C448 0.952 . S
H460 C450 0.948 . S
C461 C427 1.395 . S
C461 C431 1.391 . S
C462 C424 1.389 . S
C462 C444 1.392 . S
C463 C434 1.392 . S
C463 C436 1.389 . S
C464 C439 1.395 . S
C464 C441 1.391 . S
H465 C425 0.951 . S
H466 C426 0.950 . S
H467 C432 0.949 . S
H468 C433 0.950 . S
H469 C437 0.951 . S
H470 C438 0.950 . S
H471 C442 0.949 . S
H472 C443 0.950 . S
H473 C447 0.950 . S
H474 C449 0.950 . S
H475 C452 0.950 . S
H476 C454 0.950 . S
C477 C478 1.443 . S
C477 N481 1.376 . S
C477 C515 1.389 . S
C478 C477 1.443 . S
C478 C479 1.340 . S
C478 H518 0.951 . S
C479 C478 1.340 . S
C479 C480 1.439 . S
C479 H519 0.950 . S
C480 C479 1.439 . S
C480 N481 1.374 . S
C480 C514 1.395 . S
N481 C477 1.376 . S
N481 C480 1.374 . S
N481 Co482 2.008 . S
Co482 N481 2.008 . S
Co482 N483 1.995 . S
Co482 N488 2.008 . S
Co482 N493 1.995 . S
Co482 N498 2.282 . S
Co482 N504 2.282 . S
N483 Co482 1.995 . S
N483 C484 1.376 . S
N483 C487 1.383 . S
C484 N483 1.376 . S
C484 C485 1.446 . S
C484 C514 1.391 . S
C485 C484 1.446 . S
C485 C486 1.339 . S
C485 H520 0.949 . S
C486 C485 1.339 . S
C486 C487 1.439 . S
C486 H521 0.950 . S
C487 N483 1.383 . S
C487 C486 1.439 . S
C487 C516 1.392 . S
N488 Co482 2.008 . S
N488 C489 1.376 . S
N488 C492 1.374 . S
C489 N488 1.376 . S
C489 C490 1.443 . S
C489 C516 1.389 . S
C490 C489 1.443 . S
C490 C491 1.340 . S
C490 H522 0.951 . S
C491 C490 1.340 . S
C491 C492 1.439 . S
C491 H523 0.950 . S
C492 N488 1.374 . S
C492 C491 1.439 . S
C492 C517 1.395 . S
N493 Co482 1.995 . S
N493 C494 1.376 . S
N493 C497 1.383 . S
C494 N493 1.376 . S
C494 C495 1.446 . S
C494 C517 1.391 . S
C495 C494 1.446 . S
C495 C496 1.339 . S
C495 H524 0.949 . S
C496 C495 1.339 . S
C496 C497 1.439 . S
C496 H525 0.950 . S
C497 N493 1.383 . S
C497 C496 1.439 . S
C497 C515 1.392 . S
N498 Co482 2.282 . S
N498 C501 1.332 . S
N498 C503 1.332 . S
C499 C500 1.386 . S
C499 C502 1.388 . S
C500 C499 1.386 . S
C500 C501 1.382 . S
C500 H526 0.950 . S
C501 N498 1.332 . S
C501 C500 1.382 . S
C501 H512 0.952 . S
C502 C499 1.388 . S
C502 C503 1.382 . S
C502 H527 0.950 . S
C503 N498 1.332 . S
C503 C502 1.382 . S
C503 H513 0.948 . S
N504 Co482 2.282 . S
N504 C508 1.332 . S
N504 C509 1.332 . S
C505 C506 1.388 . S
C505 C509 1.382 . S
C505 H528 0.950 . S
C506 C505 1.388 . S
C506 C507 1.386 . S
C507 C506 1.386 . S
C507 C508 1.382 . S
C507 H529 0.950 . S
C508 N504 1.332 . S
C508 C507 1.382 . S
C508 H510 0.952 . S
C509 N504 1.332 . S
C509 C505 1.382 . S
C509 H511 0.948 . S
H510 C508 0.952 . S
H511 C509 0.948 . S
H512 C501 0.952 . S
H513 C503 0.948 . S
C514 C480 1.395 . S
C514 C484 1.391 . S
C515 C477 1.389 . S
C515 C497 1.392 . S
C516 C487 1.392 . S
C516 C489 1.389 . S
C517 C492 1.395 . S
C517 C494 1.391 . S
H518 C478 0.951 . S
H519 C479 0.950 . S
H520 C485 0.949 . S
H521 C486 0.950 . S
H522 C490 0.951 . S
H523 C491 0.950 . S
H524 C495 0.949 . S
H525 C496 0.950 . S
H526 C500 0.950 . S
H527 C502 0.950 . S
H528 C505 0.950 . S
H529 C507 0.950 . S
C530 C531 1.443 . S
C530 N534 1.376 . S
C530 C568 1.389 . S
C531 C530 1.443 . S
C531 C532 1.340 . S
C531 H571 0.951 . S
C532 C531 1.340 . S
C532 C533 1.439 . S
C532 H572 0.950 . S
C533 C532 1.439 . S
C533 N534 1.374 . S
C533 C567 1.395 . S
N534 C530 1.376 . S
N534 C533 1.374 . S
N534 Co535 2.008 . S
Co535 N534 2.008 . S
Co535 N536 1.995 . S
Co535 N541 2.008 1_545 S
Co535 N546 1.995 1_545 S
Co535 N551 2.277 1_545 S
Co535 N557 2.282 . S
N536 Co535 1.995 . S
N536 C537 1.376 . S
N536 C540 1.383 . S
C537 N536 1.376 . S
C537 C538 1.446 . S
C537 C567 1.391 . S
C538 C537 1.446 . S
C538 C539 1.339 . S
C538 H573 0.949 . S
C539 C538 1.339 . S
C539 C540 1.439 . S
C539 H574 0.950 . S
C540 N536 1.383 . S
C540 C539 1.439 . S
C540 C569 1.392 1_545 S
N541 Co535 2.008 1_565 S
N541 C542 1.376 . S
N541 C545 1.374 . S
C542 N541 1.376 . S
C542 C543 1.443 . S
C542 C569 1.389 . S
C543 C542 1.443 . S
C543 C544 1.340 . S
C543 H575 0.951 . S
C544 C543 1.340 . S
C544 C545 1.439 . S
C544 H576 0.950 . S
C545 N541 1.374 . S
C545 C544 1.439 . S
C545 C570 1.395 . S
N546 Co535 1.995 1_565 S
N546 C547 1.376 . S
N546 C550 1.383 . S
C547 N546 1.376 . S
C547 C548 1.446 . S
C547 C570 1.391 . S
C548 C547 1.446 . S
C548 C549 1.339 . S
C548 H577 0.949 . S
C549 C548 1.339 . S
C549 C550 1.439 . S
C549 H578 0.950 . S
C550 N546 1.383 . S
C550 C549 1.439 . S
C550 C568 1.392 1_565 S
N551 Co535 2.277 1_565 S
N551 C554 1.369 . S
N551 C556 1.306 1_565 S
C552 C553 1.386 . S
C552 C555 1.388 1_565 S
C553 C552 1.386 . S
C553 C554 1.382 . S
C553 H579 0.950 . S
C554 N551 1.369 . S
C554 C553 1.382 . S
C554 H565 0.952 . S
C555 C552 1.388 1_545 S
C555 C556 1.382 . S
C555 H580 0.950 . S
C556 N551 1.306 1_545 S
C556 C555 1.382 . S
C556 H566 0.948 . S
N557 Co535 2.282 . S
N557 C561 1.332 . S
N557 C562 1.332 1_545 S
C558 C559 1.388 1_565 S
C558 C562 1.382 . S
C558 H581 0.950 . S
C559 C558 1.388 1_545 S
C559 C560 1.386 . S
C560 C559 1.386 . S
C560 C561 1.382 . S
C560 H582 0.950 . S
C561 N557 1.332 . S
C561 C560 1.382 . S
C561 H563 0.952 . S
C562 N557 1.332 1_565 S
C562 C558 1.382 . S
C562 H564 0.948 . S
H563 C561 0.952 . S
H564 C562 0.948 . S
H565 C554 0.952 . S
H566 C556 0.948 . S
C567 C533 1.395 . S
C567 C537 1.391 . S
C568 C530 1.389 . S
C568 C550 1.392 1_545 S
C569 C540 1.392 1_565 S
C569 C542 1.389 . S
C570 C545 1.395 . S
C570 C547 1.391 . S
H571 C531 0.951 . S
H572 C532 0.950 . S
H573 C538 0.949 . S
H574 C539 0.950 . S
H575 C543 0.951 . S
H576 C544 0.950 . S
H577 C548 0.949 . S
H578 C549 0.950 . S
H579 C553 0.950 . S
H580 C555 0.950 . S
H581 C558 0.950 . S
H582 C560 0.950 . S
C583 C584 1.443 . S
C583 N587 1.376 . S
C583 C621 1.431 . S
C584 C583 1.443 . S
C584 C585 1.340 . S
C584 H624 0.951 . S
C585 C584 1.340 . S
C585 C586 1.439 . S
C585 H625 0.950 . S
C586 C585 1.439 . S
C586 N587 1.374 . S
C586 C620 1.395 . S
N587 C583 1.376 . S
N587 C586 1.374 . S
N587 Co588 2.008 1_556 S
Co588 N587 2.008 1_554 S
Co588 N589 1.995 1_554 S
Co588 N594 2.008 . S
Co588 N599 1.995 . S
Co588 N604 2.282 . S
Co588 N610 2.282 . S
N589 Co588 1.995 1_556 S
N589 C590 1.376 . S
N589 C593 1.383 . S
C590 N589 1.376 . S
C590 C591 1.446 . S
C590 C620 1.391 . S
C591 C590 1.446 . S
C591 C592 1.339 . S
C591 H626 0.949 . S
C592 C591 1.339 . S
C592 C593 1.439 . S
C592 H627 0.950 . S
C593 N589 1.383 . S
C593 C592 1.439 . S
C593 C622 1.392 1_556 S
N594 Co588 2.008 . S
N594 C595 1.376 . S
N594 C598 1.374 . S
C595 N594 1.376 . S
C595 C596 1.443 . S
C595 C622 1.389 . S
C596 C595 1.443 . S
C596 C597 1.340 . S
C596 H628 0.951 . S
C597 C596 1.340 . S
C597 C598 1.439 . S
C597 H629 0.950 . S
C598 N594 1.374 . S
C598 C597 1.439 . S
C598 C623 1.395 . S
N599 Co588 1.995 . S
N599 C600 1.376 . S
N599 C603 1.383 . S
C600 N599 1.376 . S
C600 C601 1.446 . S
C600 C623 1.391 . S
C601 C600 1.446 . S
C601 C602 1.339 . S
C601 H630 0.949 . S
C602 C601 1.339 . S
C602 C603 1.439 . S
C602 H631 0.950 . S
C603 N599 1.383 . S
C603 C602 1.439 . S
C603 C621 1.336 1_554 S
N604 Co588 2.282 . S
N604 C607 1.332 . S
N604 C609 1.331 1_554 S
C605 C606 1.386 . S
C605 C608 1.388 . S
C606 C605 1.386 . S
C606 C607 1.382 . S
C606 H632 0.950 . S
C607 N604 1.332 . S
C607 C606 1.382 . S
C607 H618 0.952 . S
C608 C605 1.388 . S
C608 C609 1.382 1_554 S
C608 H633 0.950 1_554 S
C609 N604 1.331 1_556 S
C609 C608 1.382 1_556 S
C609 H619 0.950 . S
N610 Co588 2.282 . S
N610 C614 1.332 1_554 S
N610 C615 1.332 . S
C611 C612 1.388 1_554 S
C611 C615 1.382 . S
C611 H634 0.950 . S
C612 C611 1.388 1_556 S
C612 C613 1.386 . S
C613 C612 1.386 . S
C613 C614 1.382 . S
C613 H635 0.950 . S
C614 N610 1.332 1_556 S
C614 C613 1.382 . S
C614 H616 0.952 . S
C615 N610 1.332 . S
C615 C611 1.382 . S
C615 H617 0.948 . S
H616 C614 0.952 . S
H617 C615 0.948 . S
H618 C607 0.952 . S
H619 C609 0.950 . S
C620 C586 1.395 . S
C620 C590 1.391 . S
C621 C583 1.431 . S
C621 C603 1.336 1_556 S
C622 C593 1.392 1_554 S
C622 C595 1.389 . S
C623 C598 1.395 . S
C623 C600 1.391 . S
H624 C584 0.951 . S
H625 C585 0.950 . S
H626 C591 0.949 . S
H627 C592 0.950 . S
H628 C596 0.951 . S
H629 C597 0.950 . S
H630 C601 0.949 . S
H631 C602 0.950 . S
H632 C606 0.950 . S
H633 C608 0.950 1_556 S
H634 C611 0.950 . S
H635 C613 0.950 . S
C636 O652 1.251 . S
C636 O654 1.254 . S
N637 C638 1.333 . S
N637 C642 1.307 1_554 S
N637 Zn643 2.020 . S
C638 N637 1.333 . S
C638 C639 1.379 1_554 S
C638 H656 0.952 . S
C639 C638 1.379 1_556 S
C639 C640 1.390 . S
C639 H666 0.949 . S
C640 C639 1.390 . S
C640 C641 1.357 . S
C641 C640 1.357 . S
C641 C642 1.370 . S
C641 H667 0.950 . S
C642 N637 1.307 1_556 S
C642 C641 1.370 . S
C642 H660 0.948 1_556 S
Zn643 N637 2.020 . S
Zn643 O652 2.039 . S
Zn643 O658 2.034 . S
Zn643 O662 2.025 . S
Zn643 O664 2.024 . S
C644 O663 1.246 . S
C644 O664 1.249 . S
N645 C646 1.307 . S
N645 C647 1.333 . S
N645 Zn651 2.020 . S
C646 N645 1.307 . S
C646 C650 1.370 . S
C646 H657 0.948 . S
C647 N645 1.333 . S
C647 C648 1.379 . S
C647 H655 0.952 . S
C648 C647 1.379 . S
C648 C649 1.390 . S
C648 H668 0.949 . S
C649 C648 1.390 . S
C649 C650 1.357 . S
C650 C646 1.370 . S
C650 C649 1.357 . S
C650 H669 0.950 . S
Zn651 N645 2.020 . S
Zn651 O654 2.025 . S
Zn651 O659 2.024 . S
Zn651 O661 2.039 . S
Zn651 O663 2.034 . S
O652 C636 1.251 . S
O652 Zn643 2.039 . S
C653 O658 1.246 . S
C653 O659 1.249 . S
O654 C636 1.254 . S
O654 Zn651 2.025 . S
H655 C647 0.952 . S
H656 C638 0.952 . S
H657 C646 0.948 . S
O658 Zn643 2.034 . S
O658 C653 1.246 . S
O659 Zn651 2.024 . S
O659 C653 1.249 . S
H660 C642 0.948 1_554 S
O661 Zn651 2.039 . S
O661 C665 1.251 . S
O662 Zn643 2.025 . S
O662 C665 1.254 . S
O663 C644 1.246 . S
O663 Zn651 2.034 . S
O664 Zn643 2.024 . S
O664 C644 1.249 . S
C665 O661 1.251 . S
C665 O662 1.254 . S
H666 C639 0.949 . S
H667 C641 0.950 . S
H668 C648 0.949 . S
H669 C650 0.950 . S
C670 O686 1.251 . S
C670 O688 1.254 . S
N671 C672 1.333 . S
N671 C676 1.307 . S
N671 Zn677 2.020 1_556 S
C672 N671 1.333 . S
C672 C673 1.379 . S
C672 H690 0.952 1_556 S
C673 C672 1.379 . S
C673 C674 1.390 . S
C673 H700 0.949 . S
C674 C673 1.390 . S
C674 C675 1.357 . S
C675 C674 1.357 . S
C675 C676 1.370 . S
C675 H701 0.950 . S
C676 N671 1.307 . S
C676 C675 1.370 . S
C676 H694 0.948 . S
Zn677 N671 2.020 1_554 S
Zn677 O686 2.039 . S
Zn677 O692 2.034 . S
Zn677 O696 2.025 . S
Zn677 O698 2.024 . S
C678 O697 1.246 . S
C678 O698 1.249 . S
N679 C680 1.307 . S
N679 C681 1.333 . S
N679 Zn685 2.020 . S
C680 N679 1.307 . S
C680 C684 1.370 . S
C680 H691 0.948 . S
C681 N679 1.333 . S
C681 C682 1.360 1_655 S
C681 H689 0.952 1_655 S
C682 C681 1.360 1_455 S
C682 C683 1.361 1_455 S
C682 H702 0.997 . S
C683 C682 1.361 1_655 S
C683 C684 1.357 . S
C684 C680 1.370 . S
C684 C683 1.357 . S
C684 H703 0.950 . S
Zn685 N679 2.020 . S
Zn685 O688 2.025 . S
Zn685 O693 2.024 . S
Zn685 O695 2.039 . S
Zn685 O697 2.034 . S
O686 C670 1.251 . S
O686 Zn677 2.039 . S
C687 O692 1.246 . S
C687 O693 1.249 . S
O688 C670 1.254 . S
O688 Zn685 2.025 . S
H689 C681 0.952 1_455 S
H690 C672 0.952 1_554 S
H691 C680 0.948 . S
O692 Zn677 2.034 . S
O692 C687 1.246 . S
O693 Zn685 2.024 . S
O693 C687 1.249 . S
H694 C676 0.948 . S
O695 Zn685 2.039 . S
O695 C699 1.251 . S
O696 Zn677 2.025 . S
O696 C699 1.254 . S
O697 C678 1.246 . S
O697 Zn685 2.034 . S
O698 Zn677 2.024 . S
O698 C678 1.249 . S
C699 O695 1.251 . S
C699 O696 1.254 . S
H700 C673 0.949 . S
H701 C675 0.950 . S
H702 C682 0.997 . S
H703 C684 0.950 . S
C704 O720 1.251 . S
C704 O722 1.254 . S
N705 C706 1.333 . S
N705 C710 1.307 . S
N705 Zn711 2.020 . S
C706 N705 1.333 . S
C706 C707 1.379 . S
C706 H724 0.952 . S
C707 C706 1.379 . S
C707 C708 1.390 . S
C707 H734 0.949 . S
C708 C707 1.390 . S
C708 C709 1.357 . S
C709 C708 1.357 . S
C709 C710 1.370 . S
C709 H735 0.950 . S
C710 N705 1.307 . S
C710 C709 1.370 . S
C710 H728 0.948 . S
Zn711 N705 2.020 . S
Zn711 O720 2.039 . S
Zn711 O726 2.034 . S
Zn711 O730 2.025 . S
Zn711 O732 2.024 . S
C712 O731 1.246 . S
C712 O732 1.249 . S
N713 C714 1.307 . S
N713 C715 1.333 . S
N713 Zn719 2.020 . S
C714 N713 1.307 . S
C714 C718 1.370 . S
C714 H725 0.948 . S
C715 N713 1.333 . S
C715 C716 1.379 . S
C715 H723 0.952 . S
C716 C715 1.379 . S
C716 C717 1.390 . S
C716 H736 0.949 . S
C717 C716 1.390 . S
C717 C718 1.357 . S
C718 C714 1.370 . S
C718 C717 1.357 . S
C718 H737 0.950 . S
Zn719 N713 2.020 . S
Zn719 O722 2.025 . S
Zn719 O727 2.024 . S
Zn719 O729 2.039 . S
Zn719 O731 2.034 . S
O720 C704 1.251 . S
O720 Zn711 2.039 . S
C721 O726 1.246 . S
C721 O727 1.249 . S
O722 C704 1.254 . S
O722 Zn719 2.025 . S
H723 C715 0.952 . S
H724 C706 0.952 . S
H725 C714 0.948 . S
O726 Zn711 2.034 . S
O726 C721 1.246 . S
O727 Zn719 2.024 . S
O727 C721 1.249 . S
H728 C710 0.948 . S
O729 Zn719 2.039 . S
O729 C733 1.251 . S
O730 Zn711 2.025 . S
O730 C733 1.254 . S
O731 C712 1.246 . S
O731 Zn719 2.034 . S
O732 Zn711 2.024 . S
O732 C712 1.249 . S
C733 O729 1.251 . S
C733 O730 1.254 . S
H734 C707 0.949 . S
H735 C709 0.950 . S
H736 C716 0.949 . S
H737 C718 0.950 . S
C738 O754 1.251 . S
C738 O756 1.254 . S
N739 C740 1.333 1_655 S
N739 C744 1.307 1_655 S
N739 Zn745 2.020 . S
C740 N739 1.333 1_455 S
C740 C741 1.379 . S
C740 H758 0.952 1_455 S
C741 C740 1.379 . S
C741 C742 1.390 . S
C741 H768 0.949 . S
C742 C741 1.390 . S
C742 C743 1.357 . S
C743 C742 1.357 . S
C743 C744 1.370 . S
C743 H769 0.950 . S
C744 N739 1.307 1_455 S
C744 C743 1.370 . S
C744 H762 0.948 . S
Zn745 N739 2.020 . S
Zn745 O754 2.039 . S
Zn745 O760 2.034 . S
Zn745 O764 2.025 . S
Zn745 O766 2.024 . S
C746 O765 1.246 . S
C746 O766 1.249 . S
N747 C748 1.307 . S
N747 C749 1.333 . S
N747 Zn753 2.020 . S
C748 N747 1.307 . S
C748 C752 1.370 . S
C748 H759 0.948 . S
C749 N747 1.333 . S
C749 C750 1.379 . S
C749 H757 0.952 . S
C750 C749 1.379 . S
C750 C751 1.390 . S
C750 H770 0.949 . S
C751 C750 1.390 . S
C751 C752 1.357 . S
C752 C748 1.370 . S
C752 C751 1.357 . S
C752 H771 0.950 . S
Zn753 N747 2.020 . S
Zn753 O756 2.025 . S
Zn753 O761 2.024 . S
Zn753 O763 2.039 . S
Zn753 O765 2.034 . S
O754 C738 1.251 . S
O754 Zn745 2.039 . S
C755 O760 1.246 . S
C755 O761 1.249 . S
O756 C738 1.254 . S
O756 Zn753 2.025 . S
H757 C749 0.952 . S
H758 C740 0.952 1_655 S
H759 C748 0.948 . S
O760 Zn745 2.034 . S
O760 C755 1.246 . S
O761 Zn753 2.024 . S
O761 C755 1.249 . S
H762 C744 0.948 . S
O763 Zn753 2.039 . S
O763 C767 1.251 . S
O764 Zn745 2.025 . S
O764 C767 1.254 . S
O765 C746 1.246 . S
O765 Zn753 2.034 . S
O766 Zn745 2.024 . S
O766 C746 1.249 . S
C767 O763 1.251 . S
C767 O764 1.254 . S
H768 C741 0.949 . S
H769 C743 0.950 . S
H770 C750 0.949 . S
H771 C752 0.950 . S
C772 O788 1.251 . S
C772 O790 1.254 . S
N773 C774 1.333 . S
N773 C778 1.307 . S
N773 Zn779 2.020 . S
C774 N773 1.333 . S
C774 C775 1.379 . S
C774 H792 0.952 . S
C775 C774 1.379 . S
C775 C776 1.390 . S
C775 H802 0.949 . S
C776 C775 1.390 . S
C776 C777 1.357 . S
C777 C776 1.357 . S
C777 C778 1.370 . S
C777 H803 0.950 . S
C778 N773 1.307 . S
C778 C777 1.370 . S
C778 H796 0.948 . S
Zn779 N773 2.020 . S
Zn779 O788 2.039 . S
Zn779 O794 2.034 . S
Zn779 O798 2.025 . S
Zn779 O800 2.024 . S
C780 O799 1.246 . S
C780 O800 1.249 . S
N781 C782 1.307 . S
N781 C783 1.333 . S
N781 Zn787 2.020 . S
C782 N781 1.307 . S
C782 C786 1.370 . S
C782 H793 0.948 . S
C783 N781 1.333 . S
C783 C784 1.379 . S
C783 H791 0.952 . S
C784 C783 1.379 . S
C784 C785 1.390 . S
C784 H804 0.949 . S
C785 C784 1.390 . S
C785 C786 1.357 . S
C786 C782 1.370 . S
C786 C785 1.357 . S
C786 H805 0.950 . S
Zn787 N781 2.020 . S
Zn787 O790 2.025 . S
Zn787 O795 2.024 . S
Zn787 O797 2.039 . S
Zn787 O799 2.034 . S
O788 C772 1.251 . S
O788 Zn779 2.039 . S
C789 O794 1.246 . S
C789 O795 1.249 . S
O790 C772 1.254 . S
O790 Zn787 2.025 . S
H791 C783 0.952 . S
H792 C774 0.952 . S
H793 C782 0.948 . S
O794 Zn779 2.034 . S
O794 C789 1.246 . S
O795 Zn787 2.024 . S
O795 C789 1.249 . S
H796 C778 0.948 . S
O797 Zn787 2.039 . S
O797 C801 1.251 . S
O798 Zn779 2.025 . S
O798 C801 1.254 . S
O799 C780 1.246 . S
O799 Zn787 2.034 . S
O800 Zn779 2.024 . S
O800 C780 1.249 . S
C801 O797 1.251 . S
C801 O798 1.254 . S
H802 C775 0.949 . S
H803 C777 0.950 . S
H804 C784 0.949 . S
H805 C786 0.950 . S
C806 O822 1.251 . S
C806 O824 1.254 . S
N807 C808 1.333 . S
N807 C812 1.307 . S
N807 Zn813 2.020 . S
C808 N807 1.333 . S
C808 C809 1.379 . S
C808 H826 0.952 . S
C809 C808 1.379 . S
C809 C810 1.390 . S
C809 H836 0.949 . S
C810 C809 1.390 . S
C810 C811 1.357 . S
C811 C810 1.357 . S
C811 C812 1.370 . S
C811 H837 0.950 . S
C812 N807 1.307 . S
C812 C811 1.370 . S
C812 H830 0.948 . S
Zn813 N807 2.020 . S
Zn813 O822 2.039 . S
Zn813 O828 2.034 . S
Zn813 O832 2.025 . S
Zn813 O834 2.024 . S
C814 O833 1.246 . S
C814 O834 1.249 . S
N815 C816 1.307 . S
N815 C817 1.333 . S
N815 Zn821 2.020 . S
C816 N815 1.307 . S
C816 C820 1.370 . S
C816 H827 0.948 . S
C817 N815 1.333 . S
C817 C818 1.379 . S
C817 H825 0.952 . S
C818 C817 1.379 . S
C818 C819 1.390 . S
C818 H838 0.949 . S
C819 C818 1.390 . S
C819 C820 1.357 . S
C820 C816 1.370 . S
C820 C819 1.357 . S
C820 H839 0.950 . S
Zn821 N815 2.020 . S
Zn821 O824 2.025 . S
Zn821 O829 2.024 . S
Zn821 O831 2.039 . S
Zn821 O833 2.034 . S
O822 C806 1.251 . S
O822 Zn813 2.039 . S
C823 O828 1.246 . S
C823 O829 1.249 . S
O824 C806 1.254 . S
O824 Zn821 2.025 . S
H825 C817 0.952 . S
H826 C808 0.952 . S
H827 C816 0.948 . S
O828 Zn813 2.034 . S
O828 C823 1.246 . S
O829 Zn821 2.024 . S
O829 C823 1.249 . S
H830 C812 0.948 . S
O831 Zn821 2.039 . S
O831 C835 1.251 . S
O832 Zn813 2.025 . S
O832 C835 1.254 . S
O833 C814 1.246 . S
O833 Zn821 2.034 . S
O834 Zn813 2.024 . S
O834 C814 1.249 . S
C835 O831 1.251 . S
C835 O832 1.254 . S
H836 C809 0.949 . S
H837 C811 0.950 . S
H838 C818 0.949 . S
H839 C820 0.950 . S
C840 O856 1.251 . S
C840 O858 1.254 . S
N841 C842 1.333 . S
N841 C846 1.307 . S
N841 Zn847 2.020 . S
C842 N841 1.333 . S
C842 C843 1.379 . S
C842 H860 0.952 . S
C843 C842 1.379 . S
C843 C844 1.390 . S
C843 H870 0.949 . S
C844 C843 1.390 . S
C844 C845 1.357 . S
C845 C844 1.357 . S
C845 C846 1.370 . S
C845 H871 0.950 . S
C846 N841 1.307 . S
C846 C845 1.370 . S
C846 H864 0.948 . S
Zn847 N841 2.020 . S
Zn847 O856 2.039 . S
Zn847 O862 2.034 . S
Zn847 O866 2.025 . S
Zn847 O868 2.024 . S
C848 O867 1.246 . S
C848 O868 1.249 . S
N849 C850 1.307 . S
N849 C851 1.333 . S
N849 Zn855 2.020 . S
C850 N849 1.307 . S
C850 C854 1.370 1_556 S
C850 H861 0.948 . S
C851 N849 1.333 . S
C851 C852 1.379 1_556 S
C851 H859 0.952 . S
C852 C851 1.379 1_554 S
C852 C853 1.390 . S
C852 H872 0.949 . S
C853 C852 1.390 . S
C853 C854 1.357 . S
C854 C850 1.370 1_554 S
C854 C853 1.357 . S
C854 H873 0.950 . S
Zn855 N849 2.020 . S
Zn855 O858 2.025 . S
Zn855 O863 2.024 . S
Zn855 O865 2.039 . S
Zn855 O867 2.034 . S
O856 C840 1.251 . S
O856 Zn847 2.039 . S
C857 O862 1.246 . S
C857 O863 1.249 . S
O858 C840 1.254 . S
O858 Zn855 2.025 . S
H859 C851 0.952 . S
H860 C842 0.952 . S
H861 C850 0.948 . S
O862 Zn847 2.034 . S
O862 C857 1.246 . S
O863 Zn855 2.024 . S
O863 C857 1.249 . S
H864 C846 0.948 . S
O865 Zn855 2.039 . S
O865 C869 1.251 . S
O866 Zn847 2.025 . S
O866 C869 1.254 . S
O867 C848 1.246 . S
O867 Zn855 2.034 . S
O868 Zn847 2.024 . S
O868 C848 1.249 . S
C869 O865 1.251 . S
C869 O866 1.254 . S
H870 C843 0.949 . S
H871 C845 0.950 . S
H872 C852 0.949 . S
H873 C854 0.950 . S
C874 O890 1.251 . S
C874 O892 1.254 . S
N875 C876 1.333 . S
N875 C880 1.307 . S
N875 Zn881 2.020 . S
C876 N875 1.333 . S
C876 C877 1.379 . S
C876 H894 0.952 . S
C877 C876 1.379 . S
C877 C878 1.390 . S
C877 H904 0.949 . S
C878 C877 1.390 . S
C878 C879 1.357 . S
C879 C878 1.357 . S
C879 C880 1.370 . S
C879 H905 0.950 . S
C880 N875 1.307 . S
C880 C879 1.370 . S
C880 H898 0.948 . S
Zn881 N875 2.020 . S
Zn881 O890 2.039 . S
Zn881 O896 2.034 . S
Zn881 O900 2.025 . S
Zn881 O902 2.024 . S
C882 O901 1.246 . S
C882 O902 1.249 . S
N883 C884 1.307 . S
N883 C885 1.333 . S
N883 Zn889 2.020 . S
C884 N883 1.307 . S
C884 C888 1.370 . S
C884 H895 0.948 . S
C885 N883 1.333 . S
C885 C886 1.379 . S
C885 H893 0.952 . S
C886 C885 1.379 . S
C886 C887 1.390 . S
C886 H906 0.957 . S
C887 C886 1.390 . S
C887 C888 1.357 . S
C888 C884 1.370 . S
C888 C887 1.357 . S
C888 H907 0.950 . S
Zn889 N883 2.020 . S
Zn889 O892 2.025 . S
Zn889 O897 2.024 . S
Zn889 O899 2.039 . S
Zn889 O901 2.034 . S
O890 C874 1.251 . S
O890 Zn881 2.039 . S
C891 O896 1.246 . S
C891 O897 1.249 . S
O892 C874 1.254 . S
O892 Zn889 2.025 . S
H893 C885 0.952 . S
H894 C876 0.952 . S
H895 C884 0.948 . S
O896 Zn881 2.034 . S
O896 C891 1.246 . S
O897 Zn889 2.024 . S
O897 C891 1.249 . S
H898 C880 0.948 . S
O899 Zn889 2.039 . S
O899 C903 1.251 . S
O900 Zn881 2.025 . S
O900 C903 1.254 . S
O901 C882 1.246 . S
O901 Zn889 2.034 . S
O902 Zn881 2.024 . S
O902 C882 1.249 . S
C903 O899 1.251 . S
C903 O900 1.254 . S
H904 C877 0.949 . S
H905 C879 0.950 . S
H906 C886 0.957 . S
H907 C888 0.950 . S
C908 C909 1.349 . S
C908 C910 1.327 . S
C908 H933 0.950 1_455 S
C909 C908 1.349 . S
C909 C925 1.349 . S
C910 C908 1.327 . S
C910 C929 1.429 . S
C910 H934 0.950 1_455 S
C911 C928 1.574 . S
C911 C930 1.368 . S
C911 H935 0.949 . S
H912 C916 0.950 1_655 S
C913 C914 1.349 1_545 S
C913 C915 1.327 . S
C913 H936 0.950 1_545 S
C914 C913 1.349 1_565 S
C914 C926 1.349 1_565 S
C915 C913 1.327 . S
C915 C931 1.429 . S
C915 H937 0.950 . S
C916 H912 0.950 1_455 S
C916 C924 1.574 . S
C916 C932 1.368 . S
H917 C925 0.950 . S
H918 C923 0.950 . S
H919 C924 0.949 1_655 S
H920 C926 0.950 1_565 S
H921 C927 0.950 . S
H922 C928 0.949 . S
C923 H918 0.950 . S
C923 C925 1.327 . S
C923 C929 1.429 . S
C924 C916 1.574 . S
C924 H919 0.949 1_455 S
C924 C930 1.368 . S
C925 C909 1.349 . S
C925 H917 0.950 . S
C925 C923 1.327 . S
C926 C914 1.349 1_545 S
C926 H920 0.950 1_545 S
C926 C927 1.327 . S
C927 H921 0.950 . S
C927 C926 1.327 . S
C927 C931 1.429 . S
C928 C911 1.574 . S
C928 H922 0.949 . S
C928 C932 1.368 . S
C929 C910 1.429 . S
C929 C923 1.429 . S
C929 C930 1.523 . S
C930 C911 1.368 . S
C930 C924 1.368 . S
C930 C929 1.523 . S
C931 C915 1.429 . S
C931 C927 1.429 . S
C931 C932 1.523 . S
C932 C916 1.368 . S
C932 C928 1.368 . S
C932 C931 1.523 . S
H933 C908 0.950 1_655 S
H934 C910 0.950 1_655 S
H935 C911 0.949 . S
H936 C913 0.950 1_565 S
H937 C915 0.950 . S
C938 C939 1.351 . S
C938 C940 1.328 . S
C938 H963 0.947 1_655 S
C939 C938 1.351 . S
C939 C955 1.349 . S
C940 C938 1.328 . S
C940 C959 1.429 . S
C940 H964 0.950 1_655 S
C941 C958 1.574 . S
C941 C960 1.368 . S
C941 H965 0.949 . S
H942 C946 0.949 . S
C943 C944 1.349 . S
C943 C945 1.327 . S
C943 H966 0.950 . S
C944 C943 1.349 . S
C944 C956 1.349 . S
C945 C943 1.327 . S
C945 C961 1.429 . S
C945 H967 0.950 . S
C946 H942 0.949 . S
C946 C954 1.574 . S
C946 C962 1.368 . S
H947 C955 0.950 . S
H948 C953 0.950 . S
H949 C954 0.934 1_455 S
H950 C956 0.950 . S
H951 C957 0.950 . S
H952 C958 0.949 . S
C953 H948 0.950 . S
C953 C955 1.327 . S
C953 C959 1.429 . S
C954 C946 1.574 . S
C954 H949 0.934 1_655 S
C954 C960 1.368 . S
C955 C939 1.349 . S
C955 H947 0.950 . S
C955 C953 1.327 . S
C956 C944 1.349 . S
C956 H950 0.950 . S
C956 C957 1.327 . S
C957 H951 0.950 . S
C957 C956 1.327 . S
C957 C961 1.429 . S
C958 C941 1.574 . S
C958 H952 0.949 . S
C958 C962 1.368 . S
C959 C940 1.429 . S
C959 C953 1.429 . S
C959 C960 1.523 . S
C960 C941 1.368 . S
C960 C954 1.368 . S
C960 C959 1.523 . S
C961 C945 1.429 . S
C961 C957 1.429 . S
C961 C962 1.523 . S
C962 C946 1.368 . S
C962 C958 1.368 . S
C962 C961 1.523 . S
H963 C938 0.947 1_455 S
H964 C940 0.950 1_455 S
H965 C941 0.949 . S
H966 C943 0.950 . S
H967 C945 0.950 . S
C968 C969 1.349 . S
C968 C970 1.327 . S
C968 H993 0.950 . S
C969 C968 1.349 . S
C969 C985 1.349 . S
C970 C968 1.327 . S
C970 C989 1.429 . S
C970 H994 0.950 . S
C971 C988 1.574 . S
C971 C990 1.368 . S
C971 H995 0.949 . S
H972 C976 0.949 . S
C973 C974 1.359 . S
C973 C975 1.327 . S
C973 H996 0.954 . S
C974 C973 1.359 . S
C974 C986 1.364 . S
C975 C973 1.327 . S
C975 C991 1.429 . S
C975 H997 0.950 . S
C976 H972 0.949 . S
C976 C984 1.574 . S
C976 C992 1.368 . S
H977 C985 0.950 . S
H978 C983 0.950 . S
H979 C984 0.949 . S
H980 C986 0.950 . S
H981 C987 0.950 . S
H982 C988 0.949 . S
C983 H978 0.950 . S
C983 C985 1.327 . S
C983 C989 1.429 . S
C984 C976 1.574 . S
C984 H979 0.949 . S
C984 C990 1.368 . S
C985 C969 1.349 . S
C985 H977 0.950 . S
C985 C983 1.327 . S
C986 C974 1.364 . S
C986 H980 0.950 . S
C986 C987 1.327 . S
C987 H981 0.950 . S
C987 C986 1.327 . S
C987 C991 1.429 . S
C988 C971 1.574 . S
C988 H982 0.949 . S
C988 C992 1.368 . S
C989 C970 1.429 . S
C989 C983 1.429 . S
C989 C990 1.523 . S
C990 C971 1.368 . S
C990 C984 1.368 . S
C990 C989 1.523 . S
C991 C975 1.429 . S
C991 C987 1.429 . S
C991 C992 1.523 . S
C992 C976 1.368 . S
C992 C988 1.368 . S
C992 C991 1.523 . S
H993 C968 0.950 . S
H994 C970 0.950 . S
H995 C971 0.949 . S
H996 C973 0.954 . S
H997 C975 0.950 . S
C998 C999 1.349 1_455 S
C998 C1000 1.327 . S
C998 H1023 0.950 . S
C999 C998 1.349 1_655 S
C999 C1015 1.349 . S
C1000 C998 1.327 . S
C1000 C1019 1.429 1_455 S
C1000 H1024 0.950 . S
C1001 C1018 1.574 . S
C1001 C1020 1.368 . S
C1001 H1025 0.949 . S
H1002 C1006 0.933 1_455 S
C1003 C1004 1.349 . S
C1003 C1005 1.327 . S
C1003 H1026 0.950 . S
C1004 C1003 1.349 . S
C1004 C1016 1.349 . S
C1005 C1003 1.327 . S
C1005 C1021 1.429 . S
C1005 H1027 0.950 . S
C1006 H1002 0.933 1_655 S
C1006 C1014 1.570 1_655 S
C1006 C1022 1.392 . S
H1007 C1015 0.950 . S
H1008 C1013 0.950 . S
H1009 C1014 0.949 . S
H1010 C1016 0.961 . S
H1011 C1017 0.950 1_455 S
H1012 C1018 0.949 . S
C1013 H1008 0.950 . S
C1013 C1015 1.327 . S
C1013 C1019 1.429 . S
C1014 C1006 1.570 1_455 S
C1014 H1009 0.949 . S
C1014 C1020 1.368 1_455 S
C1015 C999 1.349 . S
C1015 H1007 0.950 . S
C1015 C1013 1.327 . S
C1016 C1004 1.349 . S
C1016 H1010 0.961 . S
C1016 C1017 1.327 . S
C1017 H1011 0.950 1_655 S
C1017 C1016 1.327 . S
C1017 C1021 1.429 . S
C1018 C1001 1.574 . S
C1018 H1012 0.949 . S
C1018 C1022 1.368 . S
C1019 C1000 1.429 1_655 S
C1019 C1013 1.429 . S
C1019 C1020 1.523 . S
C1020 C1001 1.368 . S
C1020 C1014 1.368 1_655 S
C1020 C1019 1.523 . S
C1021 C1005 1.429 . S
C1021 C1017 1.429 . S
C1021 C1022 1.523 . S
C1022 C1006 1.392 . S
C1022 C1018 1.368 . S
C1022 C1021 1.523 . S
H1023 C998 0.950 . S
H1024 C1000 0.950 . S
H1025 C1001 0.949 . S
H1026 C1003 0.950 . S
H1027 C1005 0.950 . S
C1028 C1029 1.349 . S
C1028 C1030 1.327 . S
C1028 H1053 0.950 . S
C1029 C1028 1.349 . S
C1029 C1045 1.349 . S
C1030 C1028 1.327 . S
C1030 C1049 1.429 . S
C1030 H1054 0.950 . S
C1031 C1048 1.574 . S
C1031 C1050 1.368 . S
C1031 H1055 0.949 . S
H1032 C1036 0.949 . S
C1033 C1034 1.349 . S
C1033 C1035 1.327 1_556 S
C1033 H1056 0.950 . S
C1034 C1033 1.349 . S
C1034 C1046 1.347 1_556 S
C1035 C1033 1.327 1_554 S
C1035 C1051 1.429 . S
C1035 H1057 0.950 . S
C1036 H1032 0.949 . S
C1036 C1044 1.574 . S
C1036 C1052 1.368 . S
H1037 C1045 0.950 . S
H1038 C1043 0.950 . S
H1039 C1044 0.949 . S
H1040 C1046 0.949 1_556 S
H1041 C1047 0.950 . S
H1042 C1048 0.949 . S
C1043 H1038 0.950 . S
C1043 C1045 1.327 . S
C1043 C1049 1.429 . S
C1044 C1036 1.574 . S
C1044 H1039 0.949 . S
C1044 C1050 1.368 . S
C1045 C1029 1.349 . S
C1045 H1037 0.950 . S
C1045 C1043 1.327 . S
C1046 C1034 1.347 1_554 S
C1046 H1040 0.949 1_554 S
C1046 C1047 1.329 . S
C1047 H1041 0.950 . S
C1047 C1046 1.329 . S
C1047 C1051 1.429 . S
C1048 C1031 1.574 . S
C1048 H1042 0.949 . S
C1048 C1052 1.368 . S
C1049 C1030 1.429 . S
C1049 C1043 1.429 . S
C1049 C1050 1.523 . S
C1050 C1031 1.368 . S
C1050 C1044 1.368 . S
C1050 C1049 1.523 . S
C1051 C1035 1.429 . S
C1051 C1047 1.429 . S
C1051 C1052 1.523 . S
C1052 C1036 1.368 . S
C1052 C1048 1.368 . S
C1052 C1051 1.523 . S
H1053 C1028 0.950 . S
H1054 C1030 0.950 . S
H1055 C1031 0.949 . S
H1056 C1033 0.950 . S
H1057 C1035 0.950 . S
C1058 C1059 1.349 . S
C1058 C1060 1.327 . S
C1058 H1083 0.950 . S
C1059 C1058 1.349 . S
C1059 C1075 1.349 . S
C1060 C1058 1.327 . S
C1060 C1079 1.429 . S
C1060 H1084 0.950 . S
C1061 C1078 1.574 . S
C1061 C1080 1.368 . S
C1061 H1085 0.949 . S
H1062 C1066 0.949 . S
C1063 C1064 1.349 . S
C1063 C1065 1.327 . S
C1063 H1086 0.950 . S
C1064 C1063 1.349 . S
C1064 C1076 1.349 . S
C1065 C1063 1.327 . S
C1065 C1081 1.429 . S
C1065 H1087 0.950 . S
C1066 H1062 0.949 . S
C1066 C1074 1.574 . S
C1066 C1082 1.368 . S
H1067 C1075 0.950 . S
H1068 C1073 0.950 . S
H1069 C1074 0.949 . S
H1070 C1076 0.950 . S
H1071 C1077 0.950 . S
H1072 C1078 0.949 . S
C1073 H1068 0.950 . S
C1073 C1075 1.327 . S
C1073 C1079 1.429 . S
C1074 C1066 1.574 . S
C1074 H1069 0.949 . S
C1074 C1080 1.368 . S
C1075 C1059 1.349 . S
C1075 H1067 0.950 . S
C1075 C1073 1.327 . S
C1076 C1064 1.349 . S
C1076 H1070 0.950 . S
C1076 C1077 1.327 . S
C1077 H1071 0.950 . S
C1077 C1076 1.327 . S
C1077 C1081 1.429 . S
C1078 C1061 1.574 . S
C1078 H1072 0.949 . S
C1078 C1082 1.368 . S
C1079 C1060 1.429 . S
C1079 C1073 1.429 . S
C1079 C1080 1.523 . S
C1080 C1061 1.368 . S
C1080 C1074 1.368 . S
C1080 C1079 1.523 . S
C1081 C1065 1.429 . S
C1081 C1077 1.429 . S
C1081 C1082 1.523 . S
C1082 C1066 1.368 . S
C1082 C1078 1.368 . S
C1082 C1081 1.523 . S
H1083 C1058 0.950 . S
H1084 C1060 0.950 . S
H1085 C1061 0.949 . S
H1086 C1063 0.950 . S
H1087 C1065 0.950 . S
C1088 C1089 1.349 1_545 S
C1088 C1090 1.327 . S
C1088 H1113 0.950 . S
C1089 C1088 1.349 1_565 S
C1089 C1105 1.349 . S
C1090 C1088 1.327 . S
C1090 C1109 1.429 1_545 S
C1090 H1114 0.950 . S
C1091 C1108 1.574 . S
C1091 C1110 1.368 . S
C1091 H1115 0.949 . S
H1092 C1096 0.949 . S
C1093 C1094 1.349 . S
C1093 C1095 1.327 . S
C1093 H1116 0.950 . S
C1094 C1093 1.349 . S
C1094 C1106 1.349 1_565 S
C1095 C1093 1.327 . S
C1095 C1111 1.429 . S
C1095 H1117 0.950 . S
C1096 H1092 0.949 . S
C1096 C1104 1.574 . S
C1096 C1112 1.368 1_545 S
H1097 C1105 0.950 . S
H1098 C1103 0.950 . S
H1099 C1104 0.949 . S
H1100 C1106 0.950 . S
H1101 C1107 0.950 . S
H1102 C1108 0.949 . S
C1103 H1098 0.950 . S
C1103 C1105 1.327 . S
C1103 C1109 1.429 . S
C1104 C1096 1.574 . S
C1104 H1099 0.949 . S
C1104 C1110 1.368 1_545 S
C1105 C1089 1.349 . S
C1105 H1097 0.950 . S
C1105 C1103 1.327 . S
C1106 C1094 1.349 1_545 S
C1106 H1100 0.950 . S
C1106 C1107 1.327 . S
C1107 H1101 0.950 . S
C1107 C1106 1.327 . S
C1107 C1111 1.429 1_545 S
C1108 C1091 1.574 . S
C1108 H1102 0.949 . S
C1108 C1112 1.368 . S
C1109 C1090 1.429 1_565 S
C1109 C1103 1.429 . S
C1109 C1110 1.523 . S
C1110 C1091 1.368 . S
C1110 C1104 1.368 1_565 S
C1110 C1109 1.523 . S
C1111 C1095 1.429 . S
C1111 C1107 1.429 1_565 S
C1111 C1112 1.523 . S
C1112 C1096 1.368 1_565 S
C1112 C1108 1.368 . S
C1112 C1111 1.523 . S
H1113 C1088 0.950 . S
H1114 C1090 0.950 . S
H1115 C1091 0.949 . S
H1116 C1093 0.950 . S
H1117 C1095 0.950 . S
C1118 C1119 1.349 . S
C1118 C1120 1.327 . S
C1118 H1143 0.950 . S
C1119 C1118 1.349 . S
C1119 C1135 1.349 . S
C1120 C1118 1.327 . S
C1120 C1139 1.429 . S
C1120 H1144 0.950 . S
C1121 C1138 1.574 . S
C1121 C1140 1.368 . S
C1121 H1145 0.949 . S
H1122 C1126 0.949 . S
C1123 C1124 1.349 . S
C1123 C1125 1.327 . S
C1123 H1146 0.950 . S
C1124 C1123 1.349 . S
C1124 C1136 1.349 . S
C1125 C1123 1.327 . S
C1125 C1141 1.429 . S
C1125 H1147 0.950 . S
C1126 H1122 0.949 . S
C1126 C1134 1.574 . S
C1126 C1142 1.368 . S
H1127 C1135 0.950 . S
H1128 C1133 0.950 . S
H1129 C1134 0.949 . S
H1130 C1136 0.950 . S
H1131 C1137 0.950 . S
H1132 C1138 0.949 . S
C1133 H1128 0.950 . S
C1133 C1135 1.327 . S
C1133 C1139 1.429 . S
C1134 C1126 1.574 . S
C1134 H1129 0.949 . S
C1134 C1140 1.368 . S
C1135 C1119 1.349 . S
C1135 H1127 0.950 . S
C1135 C1133 1.327 . S
C1136 C1124 1.349 . S
C1136 H1130 0.950 . S
C1136 C1137 1.327 . S
C1137 H1131 0.950 . S
C1137 C1136 1.327 . S
C1137 C1141 1.429 . S
C1138 C1121 1.574 . S
C1138 H1132 0.949 . S
C1138 C1142 1.368 . S
C1139 C1120 1.429 . S
C1139 C1133 1.429 . S
C1139 C1140 1.523 . S
C1140 C1121 1.368 . S
C1140 C1134 1.368 . S
C1140 C1139 1.523 . S
C1141 C1125 1.429 . S
C1141 C1137 1.429 . S
C1141 C1142 1.523 . S
C1142 C1126 1.368 . S
C1142 C1138 1.368 . S
C1142 C1141 1.523 . S
H1143 C1118 0.950 . S
H1144 C1120 0.950 . S
H1145 C1121 0.949 . S
H1146 C1123 0.950 . S
H1147 C1125 0.950 . S
C1148 C1149 1.349 . S
C1148 C1150 1.327 . S
C1148 H1173 0.923 1_554 S
C1149 C1148 1.349 . S
C1149 C1165 1.349 . S
C1150 C1148 1.327 . S
C1150 C1169 1.429 . S
C1150 H1174 0.923 1_554 S
C1151 C1168 1.574 . S
C1151 C1170 1.368 . S
C1151 H1175 0.949 . S
H1152 C1156 0.956 . S
C1153 C1154 1.349 . S
C1153 C1155 1.327 . S
C1153 H1176 0.950 . S
C1154 C1153 1.349 . S
C1154 C1166 1.349 . S
C1155 C1153 1.327 . S
C1155 C1171 1.429 . S
C1155 H1177 0.950 . S
C1156 H1152 0.956 . S
C1156 C1164 1.574 . S
C1156 C1172 1.368 . S
H1157 C1165 0.950 . S
H1158 C1163 0.950 . S
H1159 C1164 0.938 1_556 S
H1160 C1166 0.950 . S
H1161 C1167 0.983 . S
H1162 C1168 0.949 . S
C1163 H1158 0.950 . S
C1163 C1165 1.327 . S
C1163 C1169 1.429 . S
C1164 C1156 1.574 . S
C1164 H1159 0.938 1_554 S
C1164 C1170 1.368 . S
C1165 C1149 1.349 . S
C1165 H1157 0.950 . S
C1165 C1163 1.327 . S
C1166 C1154 1.349 . S
C1166 H1160 0.950 . S
C1166 C1167 1.327 . S
C1167 H1161 0.983 . S
C1167 C1166 1.327 . S
C1167 C1171 1.429 . S
C1168 C1151 1.574 . S
C1168 H1162 0.949 . S
C1168 C1172 1.368 . S
C1169 C1150 1.429 . S
C1169 C1163 1.429 . S
C1169 C1170 1.523 . S
C1170 C1151 1.368 . S
C1170 C1164 1.368 . S
C1170 C1169 1.523 . S
C1171 C1155 1.429 . S
C1171 C1167 1.429 . S
C1171 C1172 1.523 . S
C1172 C1156 1.368 . S
C1172 C1168 1.368 . S
C1172 C1171 1.523 . S
H1173 C1148 0.923 1_556 S
H1174 C1150 0.923 1_556 S
H1175 C1151 0.949 . S
H1176 C1153 0.950 . S
H1177 C1155 0.950 . S
C1178 C1179 1.349 . S
C1178 C1180 1.327 . S
C1178 H1203 0.950 . S
C1179 C1178 1.349 . S
C1179 C1195 1.349 . S
C1180 C1178 1.327 . S
C1180 C1199 1.429 . S
C1180 H1204 0.950 . S
C1181 C1198 1.574 . S
C1181 C1200 1.368 . S
C1181 H1205 0.949 . S
H1182 C1186 0.949 . S
C1183 C1184 1.349 . S
C1183 C1185 1.327 . S
C1183 H1206 0.950 . S
C1184 C1183 1.349 . S
C1184 C1196 1.349 . S
C1185 C1183 1.327 . S
C1185 C1201 1.429 . S
C1185 H1207 0.950 . S
C1186 H1182 0.949 . S
C1186 C1194 1.574 . S
C1186 C1202 1.368 . S
H1187 C1195 0.950 . S
H1188 C1193 0.950 . S
H1189 C1194 0.949 . S
H1190 C1196 0.950 . S
H1191 C1197 0.950 . S
H1192 C1198 0.949 . S
C1193 H1188 0.950 . S
C1193 C1195 1.327 . S
C1193 C1199 1.429 . S
C1194 C1186 1.574 . S
C1194 H1189 0.949 . S
C1194 C1200 1.368 . S
C1195 C1179 1.349 . S
C1195 H1187 0.950 . S
C1195 C1193 1.327 . S
C1196 C1184 1.349 . S
C1196 H1190 0.950 . S
C1196 C1197 1.327 . S
C1197 H1191 0.950 . S
C1197 C1196 1.327 . S
C1197 C1201 1.429 . S
C1198 C1181 1.574 . S
C1198 H1192 0.949 . S
C1198 C1202 1.368 . S
C1199 C1180 1.429 . S
C1199 C1193 1.429 . S
C1199 C1200 1.523 . S
C1200 C1181 1.368 . S
C1200 C1194 1.368 . S
C1200 C1199 1.523 . S
C1201 C1185 1.429 . S
C1201 C1197 1.429 . S
C1201 C1202 1.523 . S
C1202 C1186 1.368 . S
C1202 C1198 1.368 . S
C1202 C1201 1.523 . S
H1203 C1178 0.950 . S
H1204 C1180 0.950 . S
H1205 C1181 0.949 . S
H1206 C1183 0.950 . S
H1207 C1185 0.950 . S
C1208 C1209 1.349 . S
C1208 C1210 1.327 . S
C1208 H1233 0.950 . S
C1209 C1208 1.349 . S
C1209 C1225 1.349 . S
C1210 C1208 1.327 . S
C1210 C1229 1.429 . S
C1210 H1234 0.950 . S
C1211 C1228 1.574 . S
C1211 C1230 1.368 . S
C1211 H1235 0.949 . S
H1212 C1216 0.949 . S
C1213 C1214 1.349 . S
C1213 C1215 1.327 . S
C1213 H1236 0.950 . S
C1214 C1213 1.349 . S
C1214 C1226 1.349 . S
C1215 C1213 1.327 . S
C1215 C1231 1.429 . S
C1215 H1237 0.950 . S
C1216 H1212 0.949 . S
C1216 C1224 1.574 . S
C1216 C1232 1.368 . S
H1217 C1225 0.950 . S
H1218 C1223 0.950 . S
H1219 C1224 0.949 . S
H1220 C1226 0.950 . S
H1221 C1227 0.950 . S
H1222 C1228 0.949 . S
C1223 H1218 0.950 . S
C1223 C1225 1.327 . S
C1223 C1229 1.429 . S
C1224 C1216 1.574 . S
C1224 H1219 0.949 . S
C1224 C1230 1.368 . S
C1225 C1209 1.349 . S
C1225 H1217 0.950 . S
C1225 C1223 1.327 . S
C1226 C1214 1.349 . S
C1226 H1220 0.950 . S
C1226 C1227 1.327 . S
C1227 H1221 0.950 . S
C1227 C1226 1.327 . S
C1227 C1231 1.429 . S
C1228 C1211 1.574 . S
C1228 H1222 0.949 . S
C1228 C1232 1.368 . S
C1229 C1210 1.429 . S
C1229 C1223 1.429 . S
C1229 C1230 1.523 . S
C1230 C1211 1.368 . S
C1230 C1224 1.368 . S
C1230 C1229 1.523 . S
C1231 C1215 1.429 . S
C1231 C1227 1.429 . S
C1231 C1232 1.523 . S
C1232 C1216 1.368 . S
C1232 C1228 1.368 . S
C1232 C1231 1.523 . S
H1233 C1208 0.950 . S
H1234 C1210 0.950 . S
H1235 C1211 0.949 . S
H1236 C1213 0.950 . S
H1237 C1215 0.950 . S
C1238 C1239 1.349 . S
C1238 C1240 1.327 . S
C1238 H1263 0.950 . S
C1239 C1238 1.349 . S
C1239 C1255 1.349 . S
C1240 C1238 1.327 . S
C1240 C1259 1.429 . S
C1240 H1264 0.950 . S
C1241 C1258 1.574 . S
C1241 C1260 1.368 . S
C1241 H1265 0.949 . S
H1242 C1246 0.949 . S
C1243 C1244 1.349 . S
C1243 C1245 1.327 . S
C1243 H1266 0.950 . S
C1244 C1243 1.349 . S
C1244 C1256 1.349 . S
C1245 C1243 1.327 . S
C1245 C1261 1.429 . S
C1245 H1267 0.950 . S
C1246 H1242 0.949 . S
C1246 C1254 1.574 . S
C1246 C1262 1.368 . S
H1247 C1255 0.950 . S
H1248 C1253 0.950 . S
H1249 C1254 0.949 . S
H1250 C1256 0.950 . S
H1251 C1257 0.950 . S
H1252 C1258 0.949 . S
C1253 H1248 0.950 . S
C1253 C1255 1.327 . S
C1253 C1259 1.429 . S
C1254 C1246 1.574 . S
C1254 H1249 0.949 . S
C1254 C1260 1.368 . S
C1255 C1239 1.349 . S
C1255 H1247 0.950 . S
C1255 C1253 1.327 . S
C1256 C1244 1.349 . S
C1256 H1250 0.950 . S
C1256 C1257 1.327 . S
C1257 H1251 0.950 . S
C1257 C1256 1.327 . S
C1257 C1261 1.429 . S
C1258 C1241 1.574 . S
C1258 H1252 0.949 . S
C1258 C1262 1.368 . S
C1259 C1240 1.429 . S
C1259 C1253 1.429 . S
C1259 C1260 1.523 . S
C1260 C1241 1.368 . S
C1260 C1254 1.368 . S
C1260 C1259 1.523 . S
C1261 C1245 1.429 . S
C1261 C1257 1.429 . S
C1261 C1262 1.523 . S
C1262 C1246 1.368 . S
C1262 C1258 1.368 . S
C1262 C1261 1.523 . S
H1263 C1238 0.950 . S
H1264 C1240 0.950 . S
H1265 C1241 0.949 . S
H1266 C1243 0.950 . S
H1267 C1245 0.950 . S
C1268 C1269 1.349 . S
C1268 C1270 1.327 . S
C1268 H1293 0.950 . S
C1269 C1268 1.349 . S
C1269 C1285 1.349 . S
C1270 C1268 1.327 . S
C1270 C1289 1.429 . S
C1270 H1294 0.950 . S
C1271 C1288 1.574 . S
C1271 C1290 1.368 . S
C1271 H1295 0.949 . S
H1272 C1276 0.949 . S
C1273 C1274 1.349 . S
C1273 C1275 1.327 . S
C1273 H1296 0.950 . S
C1274 C1273 1.349 . S
C1274 C1286 1.349 . S
C1275 C1273 1.327 . S
C1275 C1291 1.429 . S
C1275 H1297 0.950 . S
C1276 H1272 0.949 . S
C1276 C1284 1.574 . S
C1276 C1292 1.368 . S
H1277 C1285 0.950 . S
H1278 C1283 0.950 . S
H1279 C1284 0.949 . S
H1280 C1286 0.950 . S
H1281 C1287 0.950 . S
H1282 C1288 0.949 . S
C1283 H1278 0.950 . S
C1283 C1285 1.327 . S
C1283 C1289 1.429 . S
C1284 C1276 1.574 . S
C1284 H1279 0.949 . S
C1284 C1290 1.368 . S
C1285 C1269 1.349 . S
C1285 H1277 0.950 . S
C1285 C1283 1.327 . S
C1286 C1274 1.349 . S
C1286 H1280 0.950 . S
C1286 C1287 1.327 . S
C1287 H1281 0.950 . S
C1287 C1286 1.327 . S
C1287 C1291 1.429 . S
C1288 C1271 1.574 . S
C1288 H1282 0.949 . S
C1288 C1292 1.368 . S
C1289 C1270 1.429 . S
C1289 C1283 1.429 . S
C1289 C1290 1.523 . S
C1290 C1271 1.368 . S
C1290 C1284 1.368 . S
C1290 C1289 1.523 . S
C1291 C1275 1.429 . S
C1291 C1287 1.429 . S
C1291 C1292 1.523 . S
C1292 C1276 1.368 . S
C1292 C1288 1.368 . S
C1292 C1291 1.523 . S
H1293 C1268 0.950 . S
H1294 C1270 0.950 . S
H1295 C1271 0.949 . S
H1296 C1273 0.950 . S
H1297 C1275 0.950 . S
C1298 C1299 1.349 . S
C1298 C1300 1.327 . S
C1298 H1323 0.950 . S
C1299 C1298 1.349 . S
C1299 C1315 1.349 . S
C1300 C1298 1.327 . S
C1300 C1319 1.429 . S
C1300 H1324 0.950 . S
C1301 C1318 1.574 . S
C1301 C1320 1.368 . S
C1301 H1325 0.949 . S
H1302 C1306 0.949 . S
C1303 C1304 1.349 . S
C1303 C1305 1.327 . S
C1303 H1326 0.950 . S
C1304 C1303 1.349 . S
C1304 C1316 1.349 . S
C1305 C1303 1.327 . S
C1305 C1321 1.429 . S
C1305 H1327 0.950 . S
C1306 H1302 0.949 . S
C1306 C1314 1.574 . S
C1306 C1322 1.368 . S
H1307 C1315 0.950 . S
H1308 C1313 0.950 . S
H1309 C1314 0.949 . S
H1310 C1316 0.950 . S
H1311 C1317 0.950 . S
H1312 C1318 0.949 . S
C1313 H1308 0.950 . S
C1313 C1315 1.327 . S
C1313 C1319 1.429 . S
C1314 C1306 1.574 . S
C1314 H1309 0.949 . S
C1314 C1320 1.368 . S
C1315 C1299 1.349 . S
C1315 H1307 0.950 . S
C1315 C1313 1.327 . S
C1316 C1304 1.349 . S
C1316 H1310 0.950 . S
C1316 C1317 1.327 . S
C1317 H1311 0.950 . S
C1317 C1316 1.327 . S
C1317 C1321 1.429 . S
C1318 C1301 1.574 . S
C1318 H1312 0.949 . S
C1318 C1322 1.368 . S
C1319 C1300 1.429 . S
C1319 C1313 1.429 . S
C1319 C1320 1.523 . S
C1320 C1301 1.368 . S
C1320 C1314 1.368 . S
C1320 C1319 1.523 . S
C1321 C1305 1.429 . S
C1321 C1317 1.429 . S
C1321 C1322 1.523 . S
C1322 C1306 1.368 . S
C1322 C1318 1.368 . S
C1322 C1321 1.523 . S
H1323 C1298 0.950 . S
H1324 C1300 0.950 . S
H1325 C1301 0.949 . S
H1326 C1303 0.950 . S
H1327 C1305 0.950 . S
C1328 C1329 1.349 . S
C1328 C1330 1.327 . S
C1328 H1353 0.950 . S
C1329 C1328 1.349 . S
C1329 C1345 1.349 . S
C1330 C1328 1.327 . S
C1330 C1349 1.429 . S
C1330 H1354 0.950 . S
C1331 C1348 1.574 . S
C1331 C1350 1.368 . S
C1331 H1355 0.949 . S
H1332 C1336 0.949 . S
C1333 C1334 1.349 . S
C1333 C1335 1.327 . S
C1333 H1356 0.950 . S
C1334 C1333 1.349 . S
C1334 C1346 1.349 . S
C1335 C1333 1.327 . S
C1335 C1351 1.429 . S
C1335 H1357 0.950 . S
C1336 H1332 0.949 . S
C1336 C1344 1.574 . S
C1336 C1352 1.368 . S
H1337 C1345 0.950 . S
H1338 C1343 0.950 . S
H1339 C1344 0.949 . S
H1340 C1346 0.950 . S
H1341 C1347 0.950 . S
H1342 C1348 0.949 . S
C1343 H1338 0.950 . S
C1343 C1345 1.327 . S
C1343 C1349 1.429 . S
C1344 C1336 1.574 . S
C1344 H1339 0.949 . S
C1344 C1350 1.368 . S
C1345 C1329 1.349 . S
C1345 H1337 0.950 . S
C1345 C1343 1.327 . S
C1346 C1334 1.349 . S
C1346 H1340 0.950 . S
C1346 C1347 1.327 . S
C1347 H1341 0.950 . S
C1347 C1346 1.327 . S
C1347 C1351 1.429 . S
C1348 C1331 1.574 . S
C1348 H1342 0.949 . S
C1348 C1352 1.368 . S
C1349 C1330 1.429 . S
C1349 C1343 1.429 . S
C1349 C1350 1.523 . S
C1350 C1331 1.368 . S
C1350 C1344 1.368 . S
C1350 C1349 1.523 . S
C1351 C1335 1.429 . S
C1351 C1347 1.429 . S
C1351 C1352 1.523 . S
C1352 C1336 1.368 . S
C1352 C1348 1.368 . S
C1352 C1351 1.523 . S
H1353 C1328 0.950 . S
H1354 C1330 0.950 . S
H1355 C1331 0.949 . S
H1356 C1333 0.950 . S
H1357 C1335 0.950 . S
C1358 C1359 1.349 . S
C1358 C1360 1.327 . S
C1358 H1383 0.950 . S
C1359 C1358 1.349 . S
C1359 C1375 1.349 . S
C1360 C1358 1.327 . S
C1360 C1379 1.429 . S
C1360 H1384 0.950 . S
C1361 C1378 1.574 . S
C1361 C1380 1.368 . S
C1361 H1385 0.949 . S
H1362 C1366 0.949 . S
C1363 C1364 1.349 . S
C1363 C1365 1.327 . S
C1363 H1386 0.950 . S
C1364 C1363 1.349 . S
C1364 C1376 1.349 . S
C1365 C1363 1.327 . S
C1365 C1381 1.429 . S
C1365 H1387 0.950 . S
C1366 H1362 0.949 . S
C1366 C1374 1.574 . S
C1366 C1382 1.368 . S
H1367 C1375 0.950 . S
H1368 C1373 0.950 . S
H1369 C1374 0.949 . S
H1370 C1376 0.950 . S
H1371 C1377 0.950 . S
H1372 C1378 0.949 . S
C1373 H1368 0.950 . S
C1373 C1375 1.327 . S
C1373 C1379 1.429 . S
C1374 C1366 1.574 . S
C1374 H1369 0.949 . S
C1374 C1380 1.368 . S
C1375 C1359 1.349 . S
C1375 H1367 0.950 . S
C1375 C1373 1.327 . S
C1376 C1364 1.349 . S
C1376 H1370 0.950 . S
C1376 C1377 1.327 . S
C1377 H1371 0.950 . S
C1377 C1376 1.327 . S
C1377 C1381 1.429 . S
C1378 C1361 1.574 . S
C1378 H1372 0.949 . S
C1378 C1382 1.368 . S
C1379 C1360 1.429 . S
C1379 C1373 1.429 . S
C1379 C1380 1.523 . S
C1380 C1361 1.368 . S
C1380 C1374 1.368 . S
C1380 C1379 1.523 . S
C1381 C1365 1.429 . S
C1381 C1377 1.429 . S
C1381 C1382 1.523 . S
C1382 C1366 1.368 . S
C1382 C1378 1.368 . S
C1382 C1381 1.523 . S
H1383 C1358 0.950 . S
H1384 C1360 0.950 . S
H1385 C1361 0.949 . S
H1386 C1363 0.950 . S
H1387 C1365 0.950 . S
C1388 C1389 1.349 . S
C1388 C1390 1.327 . S
C1388 H1413 0.950 . S
C1389 C1388 1.349 . S
C1389 C1405 1.349 . S
C1390 C1388 1.327 . S
C1390 C1409 1.429 . S
C1390 H1414 0.950 . S
C1391 C1408 1.574 . S
C1391 C1410 1.368 . S
C1391 H1415 0.949 . S
H1392 C1396 0.949 . S
C1393 C1394 1.349 . S
C1393 C1395 1.327 . S
C1393 H1416 0.950 . S
C1394 C1393 1.349 . S
C1394 C1406 1.349 . S
C1395 C1393 1.327 . S
C1395 C1411 1.429 . S
C1395 H1417 0.950 . S
C1396 H1392 0.949 . S
C1396 C1404 1.574 . S
C1396 C1412 1.368 . S
H1397 C1405 0.950 . S
H1398 C1403 0.950 . S
H1399 C1404 0.949 . S
H1400 C1406 0.950 . S
H1401 C1407 0.950 . S
H1402 C1408 0.949 . S
C1403 H1398 0.950 . S
C1403 C1405 1.327 . S
C1403 C1409 1.429 . S
C1404 C1396 1.574 . S
C1404 H1399 0.949 . S
C1404 C1410 1.368 . S
C1405 C1389 1.349 . S
C1405 H1397 0.950 . S
C1405 C1403 1.327 . S
C1406 C1394 1.349 . S
C1406 H1400 0.950 . S
C1406 C1407 1.327 . S
C1407 H1401 0.950 . S
C1407 C1406 1.327 . S
C1407 C1411 1.429 . S
C1408 C1391 1.574 . S
C1408 H1402 0.949 . S
C1408 C1412 1.368 . S
C1409 C1390 1.429 . S
C1409 C1403 1.429 . S
C1409 C1410 1.523 . S
C1410 C1391 1.368 . S
C1410 C1404 1.368 . S
C1410 C1409 1.523 . S
C1411 C1395 1.429 . S
C1411 C1407 1.429 . S
C1411 C1412 1.523 . S
C1412 C1396 1.368 . S
C1412 C1408 1.368 . S
C1412 C1411 1.523 . S
H1413 C1388 0.950 . S
H1414 C1390 0.950 . S
H1415 C1391 0.949 . S
H1416 C1393 0.950 . S
H1417 C1395 0.950 . S
C1418 C1419 1.349 1_545 S
C1418 C1420 1.330 . S
C1418 H1443 0.950 . S
C1419 C1418 1.349 1_565 S
C1419 C1435 1.349 . S
C1420 C1418 1.330 . S
C1420 C1439 1.407 1_545 S
C1420 H1444 0.970 . S
C1421 C1438 1.574 . S
C1421 C1440 1.368 . S
C1421 H1445 0.949 . S
H1422 C1426 0.949 1_545 S
C1423 C1424 1.349 . S
C1423 C1425 1.327 . S
C1423 H1446 0.950 . S
C1424 C1423 1.349 . S
C1424 C1436 1.349 . S
C1425 C1423 1.327 . S
C1425 C1441 1.429 . S
C1425 H1447 0.950 . S
C1426 H1422 0.949 1_565 S
C1426 C1434 1.574 . S
C1426 C1442 1.368 . S
H1427 C1435 0.950 . S
H1428 C1433 0.950 . S
H1429 C1434 0.949 1_545 S
H1430 C1436 0.950 1_545 S
H1431 C1437 0.950 1_545 S
H1432 C1438 0.949 . S
C1433 H1428 0.950 . S
C1433 C1435 1.327 . S
C1433 C1439 1.429 . S
C1434 C1426 1.574 . S
C1434 H1429 0.949 1_565 S
C1434 C1440 1.368 . S
C1435 C1419 1.349 . S
C1435 H1427 0.950 . S
C1435 C1433 1.327 . S
C1436 C1424 1.349 . S
C1436 H1430 0.950 1_565 S
C1436 C1437 1.327 . S
C1437 H1431 0.950 1_565 S
C1437 C1436 1.327 . S
C1437 C1441 1.429 . S
C1438 C1421 1.574 . S
C1438 H1432 0.949 . S
C1438 C1442 1.368 . S
C1439 C1420 1.407 1_565 S
C1439 C1433 1.429 . S
C1439 C1440 1.523 . S
C1440 C1421 1.368 . S
C1440 C1434 1.368 . S
C1440 C1439 1.523 . S
C1441 C1425 1.429 . S
C1441 C1437 1.429 . S
C1441 C1442 1.523 . S
C1442 C1426 1.368 . S
C1442 C1438 1.368 . S
C1442 C1441 1.523 . S
H1443 C1418 0.950 . S
H1444 C1420 0.970 . S
H1445 C1421 0.949 . S
H1446 C1423 0.950 . S
H1447 C1425 0.950 . S
C1448 C1449 1.349 . S
C1448 C1450 1.327 . S
C1448 H1473 0.950 . S
C1449 C1448 1.349 . S
C1449 C1465 1.349 . S
C1450 C1448 1.327 . S
C1450 C1469 1.429 . S
C1450 H1474 0.950 . S
C1451 C1468 1.574 . S
C1451 C1470 1.368 . S
C1451 H1475 0.949 . S
H1452 C1456 0.949 . S
C1453 C1454 1.349 . S
C1453 C1455 1.327 . S
C1453 H1476 0.950 . S
C1454 C1453 1.349 . S
C1454 C1466 1.349 . S
C1455 C1453 1.327 . S
C1455 C1471 1.429 . S
C1455 H1477 0.950 . S
C1456 H1452 0.949 . S
C1456 C1464 1.574 . S
C1456 C1472 1.368 . S
H1457 C1465 0.950 . S
H1458 C1463 0.950 . S
H1459 C1464 0.949 . S
H1460 C1466 0.950 . S
H1461 C1467 0.950 . S
H1462 C1468 0.949 . S
C1463 H1458 0.950 . S
C1463 C1465 1.327 . S
C1463 C1469 1.429 . S
C1464 C1456 1.574 . S
C1464 H1459 0.949 . S
C1464 C1470 1.368 . S
C1465 C1449 1.349 . S
C1465 H1457 0.950 . S
C1465 C1463 1.327 . S
C1466 C1454 1.349 . S
C1466 H1460 0.950 . S
C1466 C1467 1.327 . S
C1467 H1461 0.950 . S
C1467 C1466 1.327 . S
C1467 C1471 1.429 . S
C1468 C1451 1.574 . S
C1468 H1462 0.949 . S
C1468 C1472 1.368 . S
C1469 C1450 1.429 . S
C1469 C1463 1.429 . S
C1469 C1470 1.523 . S
C1470 C1451 1.368 . S
C1470 C1464 1.368 . S
C1470 C1469 1.523 . S
C1471 C1455 1.429 . S
C1471 C1467 1.429 . S
C1471 C1472 1.523 . S
C1472 C1456 1.368 . S
C1472 C1468 1.368 . S
C1472 C1471 1.523 . S
H1473 C1448 0.950 . S
H1474 C1450 0.950 . S
H1475 C1451 0.949 . S
H1476 C1453 0.950 . S
H1477 C1455 0.950 . S
C1478 C1479 1.349 . S
C1478 C1480 1.327 . S
C1478 H1503 0.950 . S
C1479 C1478 1.349 . S
C1479 C1495 1.349 . S
C1480 C1478 1.327 . S
C1480 C1499 1.429 . S
C1480 H1504 0.950 . S
C1481 C1498 1.574 . S
C1481 C1500 1.368 . S
C1481 H1505 0.949 1_545 S
H1482 C1486 0.949 . S
C1483 C1484 1.349 . S
C1483 C1485 1.327 . S
C1483 H1506 0.950 1_545 S
C1484 C1483 1.349 . S
C1484 C1496 1.349 . S
C1485 C1483 1.327 . S
C1485 C1501 1.429 . S
C1485 H1507 0.950 1_545 S
C1486 H1482 0.949 . S
C1486 C1494 1.574 . S
C1486 C1502 1.368 . S
H1487 C1495 0.950 1_565 S
H1488 C1493 0.950 1_565 S
H1489 C1494 0.949 . S
H1490 C1496 0.950 . S
H1491 C1497 0.950 . S
H1492 C1498 0.949 1_565 S
C1493 H1488 0.950 1_545 S
C1493 C1495 1.327 . S
C1493 C1499 1.429 . S
C1494 C1486 1.574 . S
C1494 H1489 0.949 . S
C1494 C1500 1.368 . S
C1495 C1479 1.349 . S
C1495 H1487 0.950 1_545 S
C1495 C1493 1.327 . S
C1496 C1484 1.349 . S
C1496 H1490 0.950 . S
C1496 C1497 1.327 . S
C1497 H1491 0.950 . S
C1497 C1496 1.327 . S
C1497 C1501 1.429 . S
C1498 C1481 1.574 . S
C1498 H1492 0.949 1_545 S
C1498 C1502 1.368 . S
C1499 C1480 1.429 . S
C1499 C1493 1.429 . S
C1499 C1500 1.523 . S
C1500 C1481 1.368 . S
C1500 C1494 1.368 . S
C1500 C1499 1.523 . S
C1501 C1485 1.429 . S
C1501 C1497 1.429 . S
C1501 C1502 1.523 . S
C1502 C1486 1.368 . S
C1502 C1498 1.368 . S
C1502 C1501 1.523 . S
H1503 C1478 0.950 . S
H1504 C1480 0.950 . S
H1505 C1481 0.949 1_565 S
H1506 C1483 0.950 1_565 S
H1507 C1485 0.950 1_565 S
C1508 C1509 1.349 . S
C1508 C1510 1.327 . S
C1508 H1533 0.950 . S
C1509 C1508 1.349 . S
C1509 C1525 1.349 . S
C1510 C1508 1.327 . S
C1510 C1529 1.429 . S
C1510 H1534 0.950 . S
C1511 C1528 1.574 . S
C1511 C1530 1.368 . S
C1511 H1535 0.949 . S
H1512 C1516 0.949 . S
C1513 C1514 1.349 . S
C1513 C1515 1.327 . S
C1513 H1536 0.950 . S
C1514 C1513 1.349 . S
C1514 C1526 1.349 . S
C1515 C1513 1.327 . S
C1515 C1531 1.429 . S
C1515 H1537 0.950 . S
C1516 H1512 0.949 . S
C1516 C1524 1.574 . S
C1516 C1532 1.368 . S
H1517 C1525 0.950 . S
H1518 C1523 0.950 . S
H1519 C1524 0.949 . S
H1520 C1526 0.950 . S
H1521 C1527 0.950 . S
H1522 C1528 0.949 . S
C1523 H1518 0.950 . S
C1523 C1525 1.327 . S
C1523 C1529 1.429 . S
C1524 C1516 1.574 . S
C1524 H1519 0.949 . S
C1524 C1530 1.368 . S
C1525 C1509 1.349 . S
C1525 H1517 0.950 . S
C1525 C1523 1.327 . S
C1526 C1514 1.349 . S
C1526 H1520 0.950 . S
C1526 C1527 1.327 . S
C1527 H1521 0.950 . S
C1527 C1526 1.327 . S
C1527 C1531 1.429 . S
C1528 C1511 1.574 . S
C1528 H1522 0.949 . S
C1528 C1532 1.368 . S
C1529 C1510 1.429 . S
C1529 C1523 1.429 . S
C1529 C1530 1.523 . S
C1530 C1511 1.368 . S
C1530 C1524 1.368 . S
C1530 C1529 1.523 . S
C1531 C1515 1.429 . S
C1531 C1527 1.429 . S
C1531 C1532 1.523 . S
C1532 C1516 1.368 . S
C1532 C1528 1.368 . S
C1532 C1531 1.523 . S
H1533 C1508 0.950 . S
H1534 C1510 0.950 . S
H1535 C1511 0.949 . S
H1536 C1513 0.950 . S
H1537 C1515 0.950 . S
C1538 C1539 1.349 1_554 S
C1538 C1540 1.327 . S
C1538 H1563 0.950 . S
C1539 C1538 1.349 1_556 S
C1539 C1555 1.349 . S
C1540 C1538 1.327 . S
C1540 C1559 1.429 1_554 S
C1540 H1564 0.950 . S
C1541 C1558 1.574 . S
C1541 C1560 1.368 . S
C1541 H1565 0.949 . S
H1542 C1546 0.923 1_554 S
C1543 C1544 1.349 . S
C1543 C1545 1.327 . S
C1543 H1566 0.950 . S
C1544 C1543 1.349 . S
C1544 C1556 1.349 . S
C1545 C1543 1.327 . S
C1545 C1561 1.429 . S
C1545 H1567 0.950 . S
C1546 H1542 0.923 1_556 S
C1546 C1554 1.565 1_556 S
C1546 C1562 1.407 . S
H1547 C1555 0.950 . S
H1548 C1553 0.950 . S
H1549 C1554 0.949 . S
H1550 C1556 0.980 . S
H1551 C1557 0.950 1_554 S
H1552 C1558 0.949 . S
C1553 H1548 0.950 . S
C1553 C1555 1.327 . S
C1553 C1559 1.429 . S
C1554 C1546 1.565 1_554 S
C1554 H1549 0.949 . S
C1554 C1560 1.368 1_554 S
C1555 C1539 1.349 . S
C1555 H1547 0.950 . S
C1555 C1553 1.327 . S
C1556 C1544 1.349 . S
C1556 H1550 0.980 . S
C1556 C1557 1.327 . S
C1557 H1551 0.950 1_556 S
C1557 C1556 1.327 . S
C1557 C1561 1.429 . S
C1558 C1541 1.574 . S
C1558 H1552 0.949 . S
C1558 C1562 1.368 . S
C1559 C1540 1.429 1_556 S
C1559 C1553 1.429 . S
C1559 C1560 1.523 . S
C1560 C1541 1.368 . S
C1560 C1554 1.368 1_556 S
C1560 C1559 1.523 . S
C1561 C1545 1.429 . S
C1561 C1557 1.429 . S
C1561 C1562 1.523 . S
C1562 C1546 1.407 . S
C1562 C1558 1.368 . S
C1562 C1561 1.523 . S
H1563 C1538 0.950 . S
H1564 C1540 0.950 . S
H1565 C1541 0.949 . S
H1566 C1543 0.950 . S
H1567 C1545 0.950 . S
C1568 C1569 1.349 . S
C1568 C1570 1.327 . S
C1568 H1593 0.950 . S
C1569 C1568 1.349 . S
C1569 C1585 1.349 1_556 S
C1570 C1568 1.327 . S
C1570 C1589 1.429 . S
C1570 H1594 0.950 . S
C1571 C1588 1.574 . S
C1571 C1590 1.368 . S
C1571 H1595 0.949 1_556 S
H1572 C1576 0.949 . S
C1573 C1574 1.349 . S
C1573 C1575 1.327 . S
C1573 H1596 0.950 . S
C1574 C1573 1.349 . S
C1574 C1586 1.349 . S
C1575 C1573 1.327 . S
C1575 C1591 1.429 . S
C1575 H1597 0.916 1_556 S
C1576 H1572 0.949 . S
C1576 C1584 1.574 . S
C1576 C1592 1.368 . S
H1577 C1585 0.950 . S
H1578 C1583 0.945 . S
H1579 C1584 0.949 . S
H1580 C1586 0.950 . S
H1581 C1587 0.950 . S
H1582 C1588 0.949 1_554 S
C1583 H1578 0.945 . S
C1583 C1585 1.327 . S
C1583 C1589 1.433 1_554 S
C1584 C1576 1.574 . S
C1584 H1579 0.949 . S
C1584 C1590 1.368 . S
C1585 C1569 1.349 1_554 S
C1585 H1577 0.950 . S
C1585 C1583 1.327 . S
C1586 C1574 1.349 . S
C1586 H1580 0.950 . S
C1586 C1587 1.327 . S
C1587 H1581 0.950 . S
C1587 C1586 1.327 . S
C1587 C1591 1.429 . S
C1588 C1571 1.574 . S
C1588 H1582 0.949 1_556 S
C1588 C1592 1.368 . S
C1589 C1570 1.429 . S
C1589 C1583 1.433 1_556 S
C1589 C1590 1.523 . S
C1590 C1571 1.368 . S
C1590 C1584 1.368 . S
C1590 C1589 1.523 . S
C1591 C1575 1.429 . S
C1591 C1587 1.429 . S
C1591 C1592 1.523 . S
C1592 C1576 1.368 . S
C1592 C1588 1.368 . S
C1592 C1591 1.523 . S
H1593 C1568 0.950 . S
H1594 C1570 0.950 . S
H1595 C1571 0.949 1_554 S
H1596 C1573 0.950 . S
H1597 C1575 0.916 1_554 S
C1598 C1599 1.349 . S
C1598 C1600 1.327 . S
C1598 H1623 0.950 . S
C1599 C1598 1.349 . S
C1599 C1615 1.349 . S
C1600 C1598 1.327 . S
C1600 C1619 1.429 . S
C1600 H1624 0.950 . S
C1601 C1618 1.574 . S
C1601 C1620 1.368 . S
C1601 H1625 0.949 . S
H1602 C1606 0.949 . S
C1603 C1604 1.349 . S
C1603 C1605 1.327 . S
C1603 H1626 0.950 . S
C1604 C1603 1.349 . S
C1604 C1616 1.349 . S
C1605 C1603 1.327 . S
C1605 C1621 1.429 1_455 S
C1605 H1627 0.941 1_455 S
C1606 H1602 0.949 . S
C1606 C1614 1.574 . S
C1606 C1622 1.368 . S
H1607 C1615 0.914 1_556 S
H1608 C1613 0.950 . S
H1609 C1614 0.949 . S
H1610 C1616 0.950 . S
H1611 C1617 0.950 . S
H1612 C1618 0.949 . S
C1613 H1608 0.950 . S
C1613 C1615 1.327 . S
C1613 C1619 1.429 . S
C1614 C1606 1.574 . S
C1614 H1609 0.949 . S
C1614 C1620 1.368 . S
C1615 C1599 1.349 . S
C1615 H1607 0.914 1_554 S
C1615 C1613 1.327 . S
C1616 C1604 1.349 . S
C1616 H1610 0.950 . S
C1616 C1617 1.327 1_455 S
C1617 H1611 0.950 . S
C1617 C1616 1.327 1_655 S
C1617 C1621 1.429 . S
C1618 C1601 1.574 . S
C1618 H1612 0.949 . S
C1618 C1622 1.368 . S
C1619 C1600 1.429 . S
C1619 C1613 1.429 . S
C1619 C1620 1.523 . S
C1620 C1601 1.368 . S
C1620 C1614 1.368 . S
C1620 C1619 1.523 . S
C1621 C1605 1.429 1_655 S
C1621 C1617 1.429 . S
C1621 C1622 1.523 . S
C1622 C1606 1.368 . S
C1622 C1618 1.368 . S
C1622 C1621 1.523 . S
H1623 C1598 0.950 . S
H1624 C1600 0.950 . S
H1625 C1601 0.949 . S
H1626 C1603 0.950 . S
H1627 C1605 0.941 1_655 S
C1628 C1629 1.349 . S
C1628 C1630 1.327 . S
C1628 H1653 0.950 1_455 S
C1629 C1628 1.349 . S
C1629 C1645 1.349 . S
C1630 C1628 1.327 . S
C1630 C1649 1.429 . S
C1630 H1654 0.950 1_455 S
C1631 C1648 1.574 . S
C1631 C1650 1.368 . S
C1631 H1655 0.949 . S
H1632 C1636 0.949 . S
C1633 C1634 1.349 . S
C1633 C1635 1.327 . S
C1633 H1656 0.950 . S
C1634 C1633 1.349 . S
C1634 C1646 1.349 . S
C1635 C1633 1.327 . S
C1635 C1651 1.429 . S
C1635 H1657 0.950 . S
C1636 H1632 0.949 . S
C1636 C1644 1.574 . S
C1636 C1652 1.368 . S
H1637 C1645 0.950 . S
H1638 C1643 0.950 . S
H1639 C1644 0.952 . S
H1640 C1646 0.950 . S
H1641 C1647 0.950 . S
H1642 C1648 0.949 . S
C1643 H1638 0.950 . S
C1643 C1645 1.327 . S
C1643 C1649 1.429 . S
C1644 C1636 1.574 . S
C1644 H1639 0.952 . S
C1644 C1650 1.368 . S
C1645 C1629 1.349 . S
C1645 H1637 0.950 . S
C1645 C1643 1.327 . S
C1646 C1634 1.349 . S
C1646 H1640 0.950 . S
C1646 C1647 1.327 . S
C1647 H1641 0.950 . S
C1647 C1646 1.327 . S
C1647 C1651 1.429 . S
C1648 C1631 1.574 . S
C1648 H1642 0.949 . S
C1648 C1652 1.368 . S
C1649 C1630 1.429 . S
C1649 C1643 1.429 . S
C1649 C1650 1.523 . S
C1650 C1631 1.368 . S
C1650 C1644 1.368 . S
C1650 C1649 1.523 . S
C1651 C1635 1.429 . S
C1651 C1647 1.429 . S
C1651 C1652 1.523 . S
C1652 C1636 1.368 . S
C1652 C1648 1.368 . S
C1652 C1651 1.523 . S
H1653 C1628 0.950 1_655 S
H1654 C1630 0.950 1_655 S
H1655 C1631 0.949 . S
H1656 C1633 0.950 . S
H1657 C1635 0.950 . S
C1658 C1659 1.349 1_455 S
C1658 C1660 1.327 . S
C1658 H1683 0.950 . S
C1659 C1658 1.349 1_655 S
C1659 C1675 1.349 . S
C1660 C1658 1.327 . S
C1660 C1679 1.429 1_455 S
C1660 H1684 0.950 . S
C1661 C1678 1.574 . S
C1661 C1680 1.368 . S
C1661 H1685 0.949 . S
H1662 C1666 0.949 . S
C1663 C1664 1.349 . S
C1663 C1665 1.327 . S
C1663 H1686 0.950 . S
C1664 C1663 1.349 . S
C1664 C1676 1.349 1_655 S
C1665 C1663 1.327 . S
C1665 C1681 1.429 . S
C1665 H1687 0.950 . S
C1666 H1662 0.949 . S
C1666 C1674 1.574 . S
C1666 C1682 1.368 1_455 S
H1667 C1675 0.950 . S
H1668 C1673 0.950 . S
H1669 C1674 0.949 . S
H1670 C1676 0.950 . S
H1671 C1677 0.950 . S
H1672 C1678 0.949 . S
C1673 H1668 0.950 . S
C1673 C1675 1.327 . S
C1673 C1679 1.429 . S
C1674 C1666 1.574 . S
C1674 H1669 0.949 . S
C1674 C1680 1.368 1_455 S
C1675 C1659 1.349 . S
C1675 H1667 0.950 . S
C1675 C1673 1.327 . S
C1676 C1664 1.349 1_455 S
C1676 H1670 0.950 . S
C1676 C1677 1.327 . S
C1677 H1671 0.950 . S
C1677 C1676 1.327 . S
C1677 C1681 1.429 1_455 S
C1678 C1661 1.574 . S
C1678 H1672 0.949 . S
C1678 C1682 1.368 . S
C1679 C1660 1.429 1_655 S
C1679 C1673 1.429 . S
C1679 C1680 1.523 . S
C1680 C1661 1.368 . S
C1680 C1674 1.368 1_655 S
C1680 C1679 1.523 . S
C1681 C1665 1.429 . S
C1681 C1677 1.429 1_655 S
C1681 C1682 1.523 . S
C1682 C1666 1.368 1_655 S
C1682 C1678 1.368 . S
C1682 C1681 1.523 . S
H1683 C1658 0.950 . S
H1684 C1660 0.950 . S
H1685 C1661 0.949 . S
H1686 C1663 0.950 . S
H1687 C1665 0.950 . S
C1688 C1689 1.349 . S
C1688 C1690 1.327 . S
C1688 H1713 0.950 . S
C1689 C1688 1.349 . S
C1689 C1705 1.349 . S
C1690 C1688 1.327 . S
C1690 C1709 1.429 . S
C1690 H1714 0.950 . S
C1691 C1708 1.574 . S
C1691 C1710 1.368 . S
C1691 H1715 0.949 . S
H1692 C1696 0.949 . S
C1693 C1694 1.349 . S
C1693 C1695 1.327 . S
C1693 H1716 0.950 . S
C1694 C1693 1.349 . S
C1694 C1706 1.349 . S
C1695 C1693 1.327 . S
C1695 C1711 1.429 . S
C1695 H1717 0.950 . S
C1696 H1692 0.949 . S
C1696 C1704 1.574 . S
C1696 C1712 1.368 . S
H1697 C1705 0.950 . S
H1698 C1703 0.950 . S
H1699 C1704 0.949 . S
H1700 C1706 0.950 . S
H1701 C1707 0.950 . S
H1702 C1708 0.949 . S
C1703 H1698 0.950 . S
C1703 C1705 1.327 . S
C1703 C1709 1.429 . S
C1704 C1696 1.574 . S
C1704 H1699 0.949 . S
C1704 C1710 1.368 . S
C1705 C1689 1.349 . S
C1705 H1697 0.950 . S
C1705 C1703 1.327 . S
C1706 C1694 1.349 . S
C1706 H1700 0.950 . S
C1706 C1707 1.327 . S
C1707 H1701 0.950 . S
C1707 C1706 1.327 . S
C1707 C1711 1.429 . S
C1708 C1691 1.574 . S
C1708 H1702 0.949 . S
C1708 C1712 1.368 . S
C1709 C1690 1.429 . S
C1709 C1703 1.429 . S
C1709 C1710 1.523 . S
C1710 C1691 1.368 . S
C1710 C1704 1.368 . S
C1710 C1709 1.523 . S
C1711 C1695 1.429 . S
C1711 C1707 1.429 . S
C1711 C1712 1.523 . S
C1712 C1696 1.368 . S
C1712 C1708 1.368 . S
C1712 C1711 1.523 . S
H1713 C1688 0.950 . S
H1714 C1690 0.950 . S
H1715 C1691 0.949 . S
H1716 C1693 0.950 . S
H1717 C1695 0.950 . S
C1718 C1719 1.349 . S
C1718 C1720 1.327 . S
C1718 H1743 0.950 . S
C1719 C1718 1.349 . S
C1719 C1735 1.349 . S
C1720 C1718 1.327 . S
C1720 C1739 1.429 . S
C1720 H1744 0.950 . S
C1721 C1738 1.574 . S
C1721 C1740 1.368 . S
C1721 H1745 0.949 . S
H1722 C1726 0.949 . S
C1723 C1724 1.349 . S
C1723 C1725 1.327 . S
C1723 H1746 0.950 . S
C1724 C1723 1.349 . S
C1724 C1736 1.349 . S
C1725 C1723 1.327 . S
C1725 C1741 1.429 . S
C1725 H1747 0.950 . S
C1726 H1722 0.949 . S
C1726 C1734 1.574 . S
C1726 C1742 1.368 . S
H1727 C1735 0.950 1_455 S
H1728 C1733 0.950 . S
H1729 C1734 0.949 . S
H1730 C1736 0.950 . S
H1731 C1737 0.950 . S
H1732 C1738 0.949 . S
C1733 H1728 0.950 . S
C1733 C1735 1.327 . S
C1733 C1739 1.429 . S
C1734 C1726 1.574 . S
C1734 H1729 0.949 . S
C1734 C1740 1.368 . S
C1735 C1719 1.349 . S
C1735 H1727 0.950 1_655 S
C1735 C1733 1.327 . S
C1736 C1724 1.349 . S
C1736 H1730 0.950 . S
C1736 C1737 1.327 . S
C1737 H1731 0.950 . S
C1737 C1736 1.327 . S
C1737 C1741 1.429 . S
C1738 C1721 1.574 . S
C1738 H1732 0.949 . S
C1738 C1742 1.368 . S
C1739 C1720 1.429 . S
C1739 C1733 1.429 . S
C1739 C1740 1.523 . S
C1740 C1721 1.368 . S
C1740 C1734 1.368 . S
C1740 C1739 1.523 . S
C1741 C1725 1.429 . S
C1741 C1737 1.429 . S
C1741 C1742 1.523 . S
C1742 C1726 1.368 . S
C1742 C1738 1.368 . S
C1742 C1741 1.523 . S
H1743 C1718 0.950 . S
H1744 C1720 0.950 . S
H1745 C1721 0.949 . S
H1746 C1723 0.950 . S
H1747 C1725 0.950 . S
C1748 C1749 1.349 . S
C1748 C1750 1.327 . S
C1748 H1773 0.950 1_545 S
C1749 C1748 1.349 . S
C1749 C1765 1.349 . S
C1750 C1748 1.327 . S
C1750 C1769 1.429 . S
C1750 H1774 0.950 1_545 S
C1751 C1768 1.574 . S
C1751 C1770 1.368 . S
C1751 H1775 0.949 . S
H1752 C1756 0.949 . S
C1753 C1754 1.349 . S
C1753 C1755 1.327 . S
C1753 H1776 0.950 . S
C1754 C1753 1.349 . S
C1754 C1766 1.349 . S
C1755 C1753 1.327 . S
C1755 C1771 1.429 . S
C1755 H1777 0.950 . S
C1756 H1752 0.949 . S
C1756 C1764 1.574 . S
C1756 C1772 1.368 . S
H1757 C1765 0.950 . S
H1758 C1763 0.950 . S
H1759 C1764 0.949 1_565 S
H1760 C1766 0.950 . S
H1761 C1767 0.950 . S
H1762 C1768 0.949 . S
C1763 H1758 0.950 . S
C1763 C1765 1.327 . S
C1763 C1769 1.429 . S
C1764 C1756 1.574 . S
C1764 H1759 0.949 1_545 S
C1764 C1770 1.368 . S
C1765 C1749 1.349 . S
C1765 H1757 0.950 . S
C1765 C1763 1.327 . S
C1766 C1754 1.349 . S
C1766 H1760 0.950 . S
C1766 C1767 1.327 . S
C1767 H1761 0.950 . S
C1767 C1766 1.327 . S
C1767 C1771 1.429 . S
C1768 C1751 1.574 . S
C1768 H1762 0.949 . S
C1768 C1772 1.368 . S
C1769 C1750 1.429 . S
C1769 C1763 1.429 . S
C1769 C1770 1.523 . S
C1770 C1751 1.368 . S
C1770 C1764 1.368 . S
C1770 C1769 1.523 . S
C1771 C1755 1.429 . S
C1771 C1767 1.429 . S
C1771 C1772 1.523 . S
C1772 C1756 1.368 . S
C1772 C1768 1.368 . S
C1772 C1771 1.523 . S
H1773 C1748 0.950 1_565 S
H1774 C1750 0.950 1_565 S
H1775 C1751 0.949 . S
H1776 C1753 0.950 . S
H1777 C1755 0.950 . S
C1778 C1779 1.349 . S
C1778 C1780 1.327 . S
C1778 H1803 0.950 . S
C1779 C1778 1.349 . S
C1779 C1795 1.349 . S
C1780 C1778 1.327 . S
C1780 C1799 1.429 . S
C1780 H1804 0.950 . S
C1781 C1798 1.574 . S
C1781 C1800 1.368 . S
C1781 H1805 0.949 . S
H1782 C1786 0.949 . S
C1783 C1784 1.349 . S
C1783 C1785 1.327 . S
C1783 H1806 0.950 . S
C1784 C1783 1.349 . S
C1784 C1796 1.349 . S
C1785 C1783 1.327 . S
C1785 C1801 1.429 . S
C1785 H1807 0.950 . S
C1786 H1782 0.949 . S
C1786 C1794 1.574 . S
C1786 C1802 1.368 . S
H1787 C1795 0.950 . S
H1788 C1793 0.950 . S
H1789 C1794 0.949 . S
H1790 C1796 0.950 . S
H1791 C1797 0.950 . S
H1792 C1798 0.949 . S
C1793 H1788 0.950 . S
C1793 C1795 1.327 . S
C1793 C1799 1.429 . S
C1794 C1786 1.574 . S
C1794 H1789 0.949 . S
C1794 C1800 1.368 . S
C1795 C1779 1.349 . S
C1795 H1787 0.950 . S
C1795 C1793 1.327 . S
C1796 C1784 1.349 . S
C1796 H1790 0.950 . S
C1796 C1797 1.327 . S
C1797 H1791 0.950 . S
C1797 C1796 1.327 . S
C1797 C1801 1.429 . S
C1798 C1781 1.574 . S
C1798 H1792 0.949 . S
C1798 C1802 1.368 . S
C1799 C1780 1.429 . S
C1799 C1793 1.429 . S
C1799 C1800 1.523 . S
C1800 C1781 1.368 . S
C1800 C1794 1.368 . S
C1800 C1799 1.523 . S
C1801 C1785 1.429 . S
C1801 C1797 1.429 . S
C1801 C1802 1.523 . S
C1802 C1786 1.368 . S
C1802 C1798 1.368 . S
C1802 C1801 1.523 . S
H1803 C1778 0.950 . S
H1804 C1780 0.950 . S
H1805 C1781 0.949 . S
H1806 C1783 0.950 . S
H1807 C1785 0.950 . S
C1808 C1809 1.349 1_545 S
C1808 C1810 1.327 1_545 S
C1808 H1833 0.950 . S
C1809 C1808 1.349 1_565 S
C1809 C1825 1.349 . S
C1810 C1808 1.327 1_565 S
C1810 C1829 1.429 . S
C1810 H1834 0.950 1_565 S
C1811 C1828 1.574 . S
C1811 C1830 1.368 . S
C1811 H1835 0.949 . S
H1812 C1816 0.949 . S
C1813 C1814 1.349 . S
C1813 C1815 1.327 . S
C1813 H1836 0.950 . S
C1814 C1813 1.349 . S
C1814 C1826 1.349 . S
C1815 C1813 1.327 . S
C1815 C1831 1.429 . S
C1815 H1837 0.950 . S
C1816 H1812 0.949 . S
C1816 C1824 1.574 . S
C1816 C1832 1.368 . S
H1817 C1825 0.950 . S
H1818 C1823 0.950 . S
H1819 C1824 0.949 1_545 S
H1820 C1826 0.950 . S
H1821 C1827 0.950 . S
H1822 C1828 0.949 . S
C1823 H1818 0.950 . S
C1823 C1825 1.327 . S
C1823 C1829 1.429 . S
C1824 C1816 1.574 . S
C1824 H1819 0.949 1_565 S
C1824 C1830 1.368 . S
C1825 C1809 1.349 . S
C1825 H1817 0.950 . S
C1825 C1823 1.327 . S
C1826 C1814 1.349 . S
C1826 H1820 0.950 . S
C1826 C1827 1.327 . S
C1827 H1821 0.950 . S
C1827 C1826 1.327 . S
C1827 C1831 1.429 . S
C1828 C1811 1.574 . S
C1828 H1822 0.949 . S
C1828 C1832 1.368 . S
C1829 C1810 1.429 . S
C1829 C1823 1.429 . S
C1829 C1830 1.523 . S
C1830 C1811 1.368 . S
C1830 C1824 1.368 . S
C1830 C1829 1.523 . S
C1831 C1815 1.429 . S
C1831 C1827 1.429 . S
C1831 C1832 1.523 . S
C1832 C1816 1.368 . S
C1832 C1828 1.368 . S
C1832 C1831 1.523 . S
H1833 C1808 0.950 . S
H1834 C1810 0.950 1_545 S
H1835 C1811 0.949 . S
H1836 C1813 0.950 . S
H1837 C1815 0.950 . S
C1838 C1839 1.349 . S
C1838 C1840 1.327 . S
C1838 H1863 0.950 . S
C1839 C1838 1.349 . S
C1839 C1855 1.349 . S
C1840 C1838 1.327 . S
C1840 C1859 1.429 . S
C1840 H1864 0.950 . S
C1841 C1858 1.574 . S
C1841 C1860 1.368 . S
C1841 H1865 0.949 . S
H1842 C1846 0.949 . S
C1843 C1844 1.349 . S
C1843 C1845 1.327 . S
C1843 H1866 0.950 . S
C1844 C1843 1.349 . S
C1844 C1856 1.349 . S
C1845 C1843 1.327 . S
C1845 C1861 1.429 . S
C1845 H1867 0.950 . S
C1846 H1842 0.949 . S
C1846 C1854 1.574 . S
C1846 C1862 1.368 . S
H1847 C1855 0.950 . S
H1848 C1853 0.950 . S
H1849 C1854 0.949 . S
H1850 C1856 0.950 . S
H1851 C1857 0.950 . S
H1852 C1858 0.949 . S
C1853 H1848 0.950 . S
C1853 C1855 1.327 . S
C1853 C1859 1.429 . S
C1854 C1846 1.574 . S
C1854 H1849 0.949 . S
C1854 C1860 1.368 . S
C1855 C1839 1.349 . S
C1855 H1847 0.950 . S
C1855 C1853 1.327 . S
C1856 C1844 1.349 . S
C1856 H1850 0.950 . S
C1856 C1857 1.327 . S
C1857 H1851 0.950 . S
C1857 C1856 1.327 . S
C1857 C1861 1.429 . S
C1858 C1841 1.574 . S
C1858 H1852 0.949 . S
C1858 C1862 1.368 . S
C1859 C1840 1.429 . S
C1859 C1853 1.429 . S
C1859 C1860 1.523 . S
C1860 C1841 1.368 . S
C1860 C1854 1.368 . S
C1860 C1859 1.523 . S
C1861 C1845 1.429 . S
C1861 C1857 1.429 . S
C1861 C1862 1.523 . S
C1862 C1846 1.368 . S
C1862 C1858 1.368 . S
C1862 C1861 1.523 . S
H1863 C1838 0.950 . S
H1864 C1840 0.950 . S
H1865 C1841 0.949 . S
H1866 C1843 0.950 . S
H1867 C1845 0.950 . S
C1868 C1869 1.349 . S
C1868 C1870 1.327 . S
C1868 H1893 0.950 . S
C1869 C1868 1.349 . S
C1869 C1885 1.349 . S
C1870 C1868 1.327 . S
C1870 C1889 1.429 . S
C1870 H1894 0.950 . S
C1871 C1888 1.574 . S
C1871 C1890 1.368 . S
C1871 H1895 0.971 . S
H1872 C1876 0.949 . S
C1873 C1874 1.349 . S
C1873 C1875 1.327 . S
C1873 H1896 0.950 . S
C1874 C1873 1.349 . S
C1874 C1886 1.349 . S
C1875 C1873 1.327 . S
C1875 C1891 1.429 . S
C1875 H1897 0.950 . S
C1876 H1872 0.949 . S
C1876 C1884 1.574 . S
C1876 C1892 1.368 . S
H1877 C1885 0.950 1_556 S
H1878 C1883 0.950 1_556 S
H1879 C1884 0.949 . S
H1880 C1886 0.950 . S
H1881 C1887 0.950 . S
H1882 C1888 0.949 . S
C1883 H1878 0.950 1_554 S
C1883 C1885 1.327 . S
C1883 C1889 1.429 . S
C1884 C1876 1.574 . S
C1884 H1879 0.949 . S
C1884 C1890 1.368 . S
C1885 C1869 1.349 . S
C1885 H1877 0.950 1_554 S
C1885 C1883 1.327 . S
C1886 C1874 1.349 . S
C1886 H1880 0.950 . S
C1886 C1887 1.327 . S
C1887 H1881 0.950 . S
C1887 C1886 1.327 . S
C1887 C1891 1.429 . S
C1888 C1871 1.574 . S
C1888 H1882 0.949 . S
C1888 C1892 1.368 . S
C1889 C1870 1.429 . S
C1889 C1883 1.429 . S
C1889 C1890 1.523 . S
C1890 C1871 1.368 . S
C1890 C1884 1.368 . S
C1890 C1889 1.523 . S
C1891 C1875 1.429 . S
C1891 C1887 1.429 . S
C1891 C1892 1.523 . S
C1892 C1876 1.368 . S
C1892 C1888 1.368 . S
C1892 C1891 1.523 . S
H1893 C1868 0.950 . S
H1894 C1870 0.950 . S
H1895 C1871 0.971 . S
H1896 C1873 0.950 . S
H1897 C1875 0.950 . S
C1898 C1899 1.349 . S
C1898 C1900 1.327 . S
C1898 H1923 0.950 . S
C1899 C1898 1.349 . S
C1899 C1915 1.349 . S
C1900 C1898 1.327 . S
C1900 C1919 1.429 . S
C1900 H1924 0.950 . S
C1901 C1918 1.574 . S
C1901 C1920 1.368 . S
C1901 H1925 0.949 . S
H1902 C1906 0.949 . S
C1903 C1904 1.349 . S
C1903 C1905 1.327 . S
C1903 H1926 0.950 . S
C1904 C1903 1.349 . S
C1904 C1916 1.349 . S
C1905 C1903 1.327 . S
C1905 C1921 1.429 . S
C1905 H1927 0.950 . S
C1906 H1902 0.949 . S
C1906 C1914 1.574 . S
C1906 C1922 1.368 . S
H1907 C1915 0.950 . S
H1908 C1913 0.950 . S
H1909 C1914 0.949 . S
H1910 C1916 0.950 . S
H1911 C1917 0.950 . S
H1912 C1918 0.949 . S
C1913 H1908 0.950 . S
C1913 C1915 1.327 . S
C1913 C1919 1.429 . S
C1914 C1906 1.574 . S
C1914 H1909 0.949 . S
C1914 C1920 1.368 . S
C1915 C1899 1.349 . S
C1915 H1907 0.950 . S
C1915 C1913 1.327 . S
C1916 C1904 1.349 . S
C1916 H1910 0.950 . S
C1916 C1917 1.327 . S
C1917 H1911 0.950 . S
C1917 C1916 1.327 . S
C1917 C1921 1.429 . S
C1918 C1901 1.574 . S
C1918 H1912 0.949 . S
C1918 C1922 1.368 . S
C1919 C1900 1.429 . S
C1919 C1913 1.429 . S
C1919 C1920 1.523 . S
C1920 C1901 1.368 . S
C1920 C1914 1.368 . S
C1920 C1919 1.523 . S
C1921 C1905 1.429 . S
C1921 C1917 1.429 . S
C1921 C1922 1.523 . S
C1922 C1906 1.368 . S
C1922 C1918 1.368 . S
C1922 C1921 1.523 . S
H1923 C1898 0.950 . S
H1924 C1900 0.950 . S
H1925 C1901 0.949 . S
H1926 C1903 0.950 . S
H1927 C1905 0.950 . S
C1928 C1929 1.349 . S
C1928 C1930 1.327 . S
C1928 H1953 0.950 . S
C1929 C1928 1.349 . S
C1929 C1945 1.349 . S
C1930 C1928 1.327 . S
C1930 C1949 1.429 . S
C1930 H1954 0.950 . S
C1931 C1948 1.574 . S
C1931 C1950 1.368 . S
C1931 H1955 0.949 . S
H1932 C1936 0.949 . S
C1933 C1934 1.349 . S
C1933 C1935 1.327 . S
C1933 H1956 0.950 . S
C1934 C1933 1.349 . S
C1934 C1946 1.349 . S
C1935 C1933 1.327 . S
C1935 C1951 1.429 . S
C1935 H1957 0.950 . S
C1936 H1932 0.949 . S
C1936 C1944 1.574 . S
C1936 C1952 1.368 . S
H1937 C1945 0.950 . S
H1938 C1943 0.950 . S
H1939 C1944 0.949 . S
H1940 C1946 0.950 . S
H1941 C1947 0.950 . S
H1942 C1948 0.949 . S
C1943 H1938 0.950 . S
C1943 C1945 1.327 . S
C1943 C1949 1.429 . S
C1944 C1936 1.574 . S
C1944 H1939 0.949 . S
C1944 C1950 1.368 . S
C1945 C1929 1.349 . S
C1945 H1937 0.950 . S
C1945 C1943 1.327 . S
C1946 C1934 1.349 . S
C1946 H1940 0.950 . S
C1946 C1947 1.327 . S
C1947 H1941 0.950 . S
C1947 C1946 1.327 . S
C1947 C1951 1.429 . S
C1948 C1931 1.574 . S
C1948 H1942 0.949 . S
C1948 C1952 1.368 . S
C1949 C1930 1.429 . S
C1949 C1943 1.429 . S
C1949 C1950 1.523 . S
C1950 C1931 1.368 . S
C1950 C1944 1.368 . S
C1950 C1949 1.523 . S
C1951 C1935 1.429 . S
C1951 C1947 1.429 . S
C1951 C1952 1.523 . S
C1952 C1936 1.368 . S
C1952 C1948 1.368 . S
C1952 C1951 1.523 . S
H1953 C1928 0.950 . S
H1954 C1930 0.950 . S
H1955 C1931 0.949 . S
H1956 C1933 0.950 . S
H1957 C1935 0.950 . S
C1958 C1959 1.349 . S
C1958 C1960 1.327 . S
C1958 H1983 0.950 . S
C1959 C1958 1.349 . S
C1959 C1975 1.349 . S
C1960 C1958 1.327 . S
C1960 C1979 1.429 . S
C1960 H1984 0.950 . S
C1961 C1978 1.574 . S
C1961 C1980 1.368 . S
C1961 H1985 0.949 . S
H1962 C1966 0.949 . S
C1963 C1964 1.349 . S
C1963 C1965 1.327 . S
C1963 H1986 0.950 . S
C1964 C1963 1.349 . S
C1964 C1976 1.349 . S
C1965 C1963 1.327 . S
C1965 C1981 1.429 . S
C1965 H1987 0.950 . S
C1966 H1962 0.949 . S
C1966 C1974 1.574 . S
C1966 C1982 1.368 . S
H1967 C1975 0.950 . S
H1968 C1973 0.950 . S
H1969 C1974 0.949 . S
H1970 C1976 0.950 . S
H1971 C1977 0.950 . S
H1972 C1978 0.949 . S
C1973 H1968 0.950 . S
C1973 C1975 1.327 . S
C1973 C1979 1.429 . S
C1974 C1966 1.574 . S
C1974 H1969 0.949 . S
C1974 C1980 1.368 . S
C1975 C1959 1.349 . S
C1975 H1967 0.950 . S
C1975 C1973 1.327 . S
C1976 C1964 1.349 . S
C1976 H1970 0.950 . S
C1976 C1977 1.327 . S
C1977 H1971 0.950 . S
C1977 C1976 1.327 . S
C1977 C1981 1.429 . S
C1978 C1961 1.574 . S
C1978 H1972 0.949 . S
C1978 C1982 1.368 . S
C1979 C1960 1.429 . S
C1979 C1973 1.429 . S
C1979 C1980 1.523 . S
C1980 C1961 1.368 . S
C1980 C1974 1.368 . S
C1980 C1979 1.523 . S
C1981 C1965 1.429 . S
C1981 C1977 1.429 . S
C1981 C1982 1.523 . S
C1982 C1966 1.368 . S
C1982 C1978 1.368 . S
C1982 C1981 1.523 . S
H1983 C1958 0.950 . S
H1984 C1960 0.950 . S
H1985 C1961 0.949 . S
H1986 C1963 0.950 . S
H1987 C1965 0.950 . S
C1988 C1989 1.349 . S
C1988 C1990 1.327 . S
C1988 H2013 0.950 . S
C1989 C1988 1.349 . S
C1989 C2005 1.349 . S
C1990 C1988 1.327 . S
C1990 C2009 1.429 . S
C1990 H2014 0.950 . S
C1991 C2008 1.574 . S
C1991 C2010 1.368 . S
C1991 H2015 0.949 . S
H1992 C1996 0.949 . S
C1993 C1994 1.349 . S
C1993 C1995 1.327 . S
C1993 H2016 0.950 . S
C1994 C1993 1.349 . S
C1994 C2006 1.349 . S
C1995 C1993 1.327 . S
C1995 C2011 1.429 . S
C1995 H2017 0.950 . S
C1996 H1992 0.949 . S
C1996 C2004 1.574 . S
C1996 C2012 1.368 . S
H1997 C2005 0.950 . S
H1998 C2003 0.950 . S
H1999 C2004 0.949 . S
H2000 C2006 0.950 . S
H2001 C2007 0.950 . S
H2002 C2008 0.949 . S
C2003 H1998 0.950 . S
C2003 C2005 1.327 . S
C2003 C2009 1.429 . S
C2004 C1996 1.574 . S
C2004 H1999 0.949 . S
C2004 C2010 1.368 . S
C2005 C1989 1.349 . S
C2005 H1997 0.950 . S
C2005 C2003 1.327 . S
C2006 C1994 1.349 . S
C2006 H2000 0.950 . S
C2006 C2007 1.327 . S
C2007 H2001 0.950 . S
C2007 C2006 1.327 . S
C2007 C2011 1.429 . S
C2008 C1991 1.574 . S
C2008 H2002 0.949 . S
C2008 C2012 1.368 . S
C2009 C1990 1.429 . S
C2009 C2003 1.429 . S
C2009 C2010 1.523 . S
C2010 C1991 1.368 . S
C2010 C2004 1.368 . S
C2010 C2009 1.523 . S
C2011 C1995 1.429 . S
C2011 C2007 1.429 . S
C2011 C2012 1.523 . S
C2012 C1996 1.368 . S
C2012 C2008 1.368 . S
C2012 C2011 1.523 . S
H2013 C1988 0.950 . S
H2014 C1990 0.950 . S
H2015 C1991 0.949 . S
H2016 C1993 0.950 . S
H2017 C1995 0.950 . S
C2018 C2019 1.349 . S
C2018 C2020 1.327 . S
C2018 H2043 0.950 . S
C2019 C2018 1.349 . S
C2019 C2035 1.349 . S
C2020 C2018 1.327 . S
C2020 C2039 1.429 . S
C2020 H2044 0.950 . S
C2021 C2038 1.574 . S
C2021 C2040 1.368 . S
C2021 H2045 0.949 . S
H2022 C2026 0.949 . S
C2023 C2024 1.349 . S
C2023 C2025 1.327 . S
C2023 H2046 0.950 . S
C2024 C2023 1.349 . S
C2024 C2036 1.349 . S
C2025 C2023 1.327 . S
C2025 C2041 1.429 . S
C2025 H2047 0.950 . S
C2026 H2022 0.949 . S
C2026 C2034 1.574 . S
C2026 C2042 1.368 . S
H2027 C2035 0.950 . S
H2028 C2033 0.950 . S
H2029 C2034 0.949 . S
H2030 C2036 0.950 . S
H2031 C2037 0.950 . S
H2032 C2038 0.949 . S
C2033 H2028 0.950 . S
C2033 C2035 1.327 . S
C2033 C2039 1.429 . S
C2034 C2026 1.574 . S
C2034 H2029 0.949 . S
C2034 C2040 1.368 . S
C2035 C2019 1.349 . S
C2035 H2027 0.950 . S
C2035 C2033 1.327 . S
C2036 C2024 1.349 . S
C2036 H2030 0.950 . S
C2036 C2037 1.327 . S
C2037 H2031 0.950 . S
C2037 C2036 1.327 . S
C2037 C2041 1.429 . S
C2038 C2021 1.574 . S
C2038 H2032 0.949 . S
C2038 C2042 1.368 . S
C2039 C2020 1.429 . S
C2039 C2033 1.429 . S
C2039 C2040 1.523 . S
C2040 C2021 1.368 . S
C2040 C2034 1.368 . S
C2040 C2039 1.523 . S
C2041 C2025 1.429 . S
C2041 C2037 1.429 . S
C2041 C2042 1.523 . S
C2042 C2026 1.368 . S
C2042 C2038 1.368 . S
C2042 C2041 1.523 . S
H2043 C2018 0.950 . S
H2044 C2020 0.950 . S
H2045 C2021 0.949 . S
H2046 C2023 0.950 . S
H2047 C2025 0.950 . S
C2048 C2049 1.349 . S
C2048 C2050 1.327 . S
C2048 H2073 0.950 . S
C2049 C2048 1.349 . S
C2049 C2065 1.349 . S
C2050 C2048 1.327 . S
C2050 C2069 1.429 . S
C2050 H2074 0.950 . S
C2051 C2068 1.574 . S
C2051 C2070 1.368 . S
C2051 H2075 0.949 . S
H2052 C2056 0.949 . S
C2053 C2054 1.349 . S
C2053 C2055 1.327 . S
C2053 H2076 0.950 . S
C2054 C2053 1.349 . S
C2054 C2066 1.349 . S
C2055 C2053 1.327 . S
C2055 C2071 1.429 . S
C2055 H2077 0.950 . S
C2056 H2052 0.949 . S
C2056 C2064 1.574 . S
C2056 C2072 1.368 . S
H2057 C2065 0.950 . S
H2058 C2063 0.950 . S
H2059 C2064 0.949 . S
H2060 C2066 0.950 . S
H2061 C2067 0.950 . S
H2062 C2068 0.949 . S
C2063 H2058 0.950 . S
C2063 C2065 1.327 . S
C2063 C2069 1.429 . S
C2064 C2056 1.574 . S
C2064 H2059 0.949 . S
C2064 C2070 1.368 . S
C2065 C2049 1.349 . S
C2065 H2057 0.950 . S
C2065 C2063 1.327 . S
C2066 C2054 1.349 . S
C2066 H2060 0.950 . S
C2066 C2067 1.327 . S
C2067 H2061 0.950 . S
C2067 C2066 1.327 . S
C2067 C2071 1.429 . S
C2068 C2051 1.574 . S
C2068 H2062 0.949 . S
C2068 C2072 1.368 . S
C2069 C2050 1.429 . S
C2069 C2063 1.429 . S
C2069 C2070 1.523 . S
C2070 C2051 1.368 . S
C2070 C2064 1.368 . S
C2070 C2069 1.523 . S
C2071 C2055 1.429 . S
C2071 C2067 1.429 . S
C2071 C2072 1.523 . S
C2072 C2056 1.368 . S
C2072 C2068 1.368 . S
C2072 C2071 1.523 . S
H2073 C2048 0.950 . S
H2074 C2050 0.950 . S
H2075 C2051 0.949 . S
H2076 C2053 0.950 . S
H2077 C2055 0.950 . S
C2078 C2079 1.349 . S
C2078 C2080 1.327 . S
C2078 H2103 0.950 . S
C2079 C2078 1.349 . S
C2079 C2095 1.349 . S
C2080 C2078 1.327 . S
C2080 C2099 1.429 . S
C2080 H2104 0.950 . S
C2081 C2098 1.574 . S
C2081 C2100 1.368 . S
C2081 H2105 0.949 . S
H2082 C2086 0.949 . S
C2083 C2084 1.349 . S
C2083 C2085 1.327 . S
C2083 H2106 0.950 . S
C2084 C2083 1.349 . S
C2084 C2096 1.349 . S
C2085 C2083 1.327 . S
C2085 C2101 1.429 . S
C2085 H2107 0.950 . S
C2086 H2082 0.949 . S
C2086 C2094 1.574 . S
C2086 C2102 1.368 . S
H2087 C2095 0.950 . S
H2088 C2093 0.950 . S
H2089 C2094 0.949 . S
H2090 C2096 0.950 . S
H2091 C2097 0.950 . S
H2092 C2098 0.949 . S
C2093 H2088 0.950 . S
C2093 C2095 1.327 . S
C2093 C2099 1.429 . S
C2094 C2086 1.574 . S
C2094 H2089 0.949 . S
C2094 C2100 1.368 . S
C2095 C2079 1.349 . S
C2095 H2087 0.950 . S
C2095 C2093 1.327 . S
C2096 C2084 1.349 . S
C2096 H2090 0.950 . S
C2096 C2097 1.327 . S
C2097 H2091 0.950 . S
C2097 C2096 1.327 . S
C2097 C2101 1.429 . S
C2098 C2081 1.574 . S
C2098 H2092 0.949 . S
C2098 C2102 1.368 . S
C2099 C2080 1.429 . S
C2099 C2093 1.429 . S
C2099 C2100 1.523 . S
C2100 C2081 1.368 . S
C2100 C2094 1.368 . S
C2100 C2099 1.523 . S
C2101 C2085 1.429 . S
C2101 C2097 1.429 . S
C2101 C2102 1.523 . S
C2102 C2086 1.368 . S
C2102 C2098 1.368 . S
C2102 C2101 1.523 . S
H2103 C2078 0.950 . S
H2104 C2080 0.950 . S
H2105 C2081 0.949 . S
H2106 C2083 0.950 . S
H2107 C2085 0.950 . S
C2108 C2109 1.349 . S
C2108 C2110 1.327 . S
C2108 H2133 0.950 . S
C2109 C2108 1.349 . S
C2109 C2125 1.349 . S
C2110 C2108 1.327 . S
C2110 C2129 1.429 . S
C2110 H2134 0.950 . S
C2111 C2128 1.574 . S
C2111 C2130 1.368 . S
C2111 H2135 0.949 . S
H2112 C2116 0.949 . S
C2113 C2114 1.349 . S
C2113 C2115 1.327 . S
C2113 H2136 0.950 . S
C2114 C2113 1.349 . S
C2114 C2126 1.349 . S
C2115 C2113 1.327 . S
C2115 C2131 1.429 . S
C2115 H2137 0.950 . S
C2116 H2112 0.949 . S
C2116 C2124 1.574 . S
C2116 C2132 1.368 . S
H2117 C2125 0.950 . S
H2118 C2123 0.950 . S
H2119 C2124 0.949 . S
H2120 C2126 0.950 . S
H2121 C2127 0.950 . S
H2122 C2128 0.949 . S
C2123 H2118 0.950 . S
C2123 C2125 1.327 . S
C2123 C2129 1.429 . S
C2124 C2116 1.574 . S
C2124 H2119 0.949 . S
C2124 C2130 1.368 . S
C2125 C2109 1.349 . S
C2125 H2117 0.950 . S
C2125 C2123 1.327 . S
C2126 C2114 1.349 . S
C2126 H2120 0.950 . S
C2126 C2127 1.327 . S
C2127 H2121 0.950 . S
C2127 C2126 1.327 . S
C2127 C2131 1.429 . S
C2128 C2111 1.574 . S
C2128 H2122 0.949 . S
C2128 C2132 1.368 . S
C2129 C2110 1.429 . S
C2129 C2123 1.429 . S
C2129 C2130 1.523 . S
C2130 C2111 1.368 . S
C2130 C2124 1.368 . S
C2130 C2129 1.523 . S
C2131 C2115 1.429 . S
C2131 C2127 1.429 . S
C2131 C2132 1.523 . S
C2132 C2116 1.368 . S
C2132 C2128 1.368 . S
C2132 C2131 1.523 . S
H2133 C2108 0.950 . S
H2134 C2110 0.950 . S
H2135 C2111 0.949 . S
H2136 C2113 0.950 . S
H2137 C2115 0.950 . S
C2138 C2139 1.349 1_545 S
C2138 C2140 1.327 . S
C2138 H2163 0.950 . S
C2139 C2138 1.349 1_565 S
C2139 C2155 1.349 . S
C2140 C2138 1.327 . S
C2140 C2159 1.429 1_545 S
C2140 H2164 0.950 . S
C2141 C2158 1.574 . S
C2141 C2160 1.368 . S
C2141 H2165 0.949 . S
H2142 C2146 0.949 1_545 S
C2143 C2144 1.349 . S
C2143 C2145 1.327 . S
C2143 H2166 0.950 . S
C2144 C2143 1.349 . S
C2144 C2156 1.349 . S
C2145 C2143 1.327 . S
C2145 C2161 1.429 . S
C2145 H2167 0.950 . S
C2146 H2142 0.949 1_565 S
C2146 C2154 1.572 1_565 S
C2146 C2162 1.368 . S
H2147 C2155 0.950 . S
H2148 C2153 0.950 . S
H2149 C2154 0.961 . S
H2150 C2156 0.967 . S
H2151 C2157 0.950 1_545 S
H2152 C2158 0.949 . S
C2153 H2148 0.950 . S
C2153 C2155 1.327 . S
C2153 C2159 1.429 . S
C2154 C2146 1.572 1_545 S
C2154 H2149 0.961 . S
C2154 C2160 1.357 1_545 S
C2155 C2139 1.349 . S
C2155 H2147 0.950 . S
C2155 C2153 1.327 . S
C2156 C2144 1.349 . S
C2156 H2150 0.967 . S
C2156 C2157 1.327 . S
C2157 H2151 0.950 1_565 S
C2157 C2156 1.327 . S
C2157 C2161 1.429 . S
C2158 C2141 1.574 . S
C2158 H2152 0.949 . S
C2158 C2162 1.368 . S
C2159 C2140 1.429 1_565 S
C2159 C2153 1.429 . S
C2159 C2160 1.523 . S
C2160 C2141 1.368 . S
C2160 C2154 1.357 1_565 S
C2160 C2159 1.523 . S
C2161 C2145 1.429 . S
C2161 C2157 1.429 . S
C2161 C2162 1.523 . S
C2162 C2146 1.368 . S
C2162 C2158 1.368 . S
C2162 C2161 1.523 . S
H2163 C2138 0.950 . S
H2164 C2140 0.950 . S
H2165 C2141 0.949 . S
H2166 C2143 0.950 . S
H2167 C2145 0.950 . S
C2168 C2169 1.349 . S
C2168 C2170 1.327 . S
C2168 H2193 0.950 . S
C2169 C2168 1.349 . S
C2169 C2185 1.349 . S
C2170 C2168 1.327 . S
C2170 C2189 1.429 . S
C2170 H2194 0.950 . S
C2171 C2188 1.574 . S
C2171 C2190 1.368 . S
C2171 H2195 0.949 . S
H2172 C2176 0.949 . S
C2173 C2174 1.349 . S
C2173 C2175 1.327 . S
C2173 H2196 0.950 . S
C2174 C2173 1.349 . S
C2174 C2186 1.349 . S
C2175 C2173 1.327 . S
C2175 C2191 1.429 . S
C2175 H2197 0.950 . S
C2176 H2172 0.949 . S
C2176 C2184 1.574 . S
C2176 C2192 1.368 . S
H2177 C2185 0.950 . S
H2178 C2183 0.950 . S
H2179 C2184 0.949 . S
H2180 C2186 0.950 . S
H2181 C2187 0.950 . S
H2182 C2188 0.949 . S
C2183 H2178 0.950 . S
C2183 C2185 1.327 . S
C2183 C2189 1.429 . S
C2184 C2176 1.574 . S
C2184 H2179 0.949 . S
C2184 C2190 1.368 . S
C2185 C2169 1.349 . S
C2185 H2177 0.950 . S
C2185 C2183 1.327 . S
C2186 C2174 1.349 . S
C2186 H2180 0.950 . S
C2186 C2187 1.327 . S
C2187 H2181 0.950 . S
C2187 C2186 1.327 . S
C2187 C2191 1.429 . S
C2188 C2171 1.574 . S
C2188 H2182 0.949 . S
C2188 C2192 1.368 . S
C2189 C2170 1.429 . S
C2189 C2183 1.429 . S
C2189 C2190 1.523 . S
C2190 C2171 1.368 . S
C2190 C2184 1.368 . S
C2190 C2189 1.523 . S
C2191 C2175 1.429 . S
C2191 C2187 1.429 . S
C2191 C2192 1.523 . S
C2192 C2176 1.368 . S
C2192 C2188 1.368 . S
C2192 C2191 1.523 . S
H2193 C2168 0.950 . S
H2194 C2170 0.950 . S
H2195 C2171 0.949 . S
H2196 C2173 0.950 . S
H2197 C2175 0.950 . S
C2198 C2199 1.349 . S
C2198 C2200 1.327 . S
C2198 H2223 0.950 . S
C2199 C2198 1.349 . S
C2199 C2215 1.349 . S
C2200 C2198 1.327 . S
C2200 C2219 1.429 . S
C2200 H2224 0.950 . S
C2201 C2218 1.574 . S
C2201 C2220 1.368 . S
C2201 H2225 0.949 1_545 S
H2202 C2206 0.949 . S
C2203 C2204 1.349 . S
C2203 C2205 1.327 . S
C2203 H2226 0.950 1_545 S
C2204 C2203 1.349 . S
C2204 C2216 1.349 . S
C2205 C2203 1.327 . S
C2205 C2221 1.429 . S
C2205 H2227 0.950 1_545 S
C2206 H2202 0.949 . S
C2206 C2214 1.574 . S
C2206 C2222 1.368 . S
H2207 C2215 0.950 1_565 S
H2208 C2213 0.950 1_565 S
H2209 C2214 0.949 . S
H2210 C2216 0.950 . S
H2211 C2217 0.950 . S
H2212 C2218 0.949 1_565 S
C2213 H2208 0.950 1_545 S
C2213 C2215 1.327 . S
C2213 C2219 1.429 . S
C2214 C2206 1.574 . S
C2214 H2209 0.949 . S
C2214 C2220 1.368 . S
C2215 C2199 1.349 . S
C2215 H2207 0.950 1_545 S
C2215 C2213 1.327 . S
C2216 C2204 1.349 . S
C2216 H2210 0.950 . S
C2216 C2217 1.327 . S
C2217 H2211 0.950 . S
C2217 C2216 1.327 . S
C2217 C2221 1.429 . S
C2218 C2201 1.574 . S
C2218 H2212 0.949 1_545 S
C2218 C2222 1.368 . S
C2219 C2200 1.429 . S
C2219 C2213 1.429 . S
C2219 C2220 1.523 . S
C2220 C2201 1.368 . S
C2220 C2214 1.368 . S
C2220 C2219 1.523 . S
C2221 C2205 1.429 . S
C2221 C2217 1.429 . S
C2221 C2222 1.523 . S
C2222 C2206 1.368 . S
C2222 C2218 1.368 . S
C2222 C2221 1.523 . S
H2223 C2198 0.950 . S
H2224 C2200 0.950 . S
H2225 C2201 0.949 1_565 S
H2226 C2203 0.950 1_565 S
H2227 C2205 0.950 1_565 S
C2228 C2229 1.349 . S
C2228 C2230 1.327 . S
C2228 H2253 0.950 . S
C2229 C2228 1.349 . S
C2229 C2245 1.349 . S
C2230 C2228 1.327 . S
C2230 C2249 1.429 . S
C2230 H2254 0.950 . S
C2231 C2248 1.574 . S
C2231 C2250 1.368 . S
C2231 H2255 0.949 . S
H2232 C2236 0.949 . S
C2233 C2234 1.349 . S
C2233 C2235 1.327 . S
C2233 H2256 0.950 . S
C2234 C2233 1.349 . S
C2234 C2246 1.349 . S
C2235 C2233 1.327 . S
C2235 C2251 1.429 . S
C2235 H2257 0.950 . S
C2236 H2232 0.949 . S
C2236 C2244 1.574 . S
C2236 C2252 1.368 . S
H2237 C2245 0.950 . S
H2238 C2243 0.950 . S
H2239 C2244 0.949 . S
H2240 C2246 0.950 . S
H2241 C2247 0.950 . S
H2242 C2248 0.949 . S
C2243 H2238 0.950 . S
C2243 C2245 1.327 . S
C2243 C2249 1.429 . S
C2244 C2236 1.574 . S
C2244 H2239 0.949 . S
C2244 C2250 1.368 . S
C2245 C2229 1.349 . S
C2245 H2237 0.950 . S
C2245 C2243 1.327 . S
C2246 C2234 1.349 . S
C2246 H2240 0.950 . S
C2246 C2247 1.327 . S
C2247 H2241 0.950 . S
C2247 C2246 1.327 . S
C2247 C2251 1.429 . S
C2248 C2231 1.574 . S
C2248 H2242 0.949 . S
C2248 C2252 1.368 . S
C2249 C2230 1.429 . S
C2249 C2243 1.429 . S
C2249 C2250 1.523 . S
C2250 C2231 1.368 . S
C2250 C2244 1.368 . S
C2250 C2249 1.523 . S
C2251 C2235 1.429 . S
C2251 C2247 1.429 . S
C2251 C2252 1.523 . S
C2252 C2236 1.368 . S
C2252 C2248 1.368 . S
C2252 C2251 1.523 . S
H2253 C2228 0.950 . S
H2254 C2230 0.950 . S
H2255 C2231 0.949 . S
H2256 C2233 0.950 . S
H2257 C2235 0.950 . S
C2258 C2259 1.349 . S
C2258 C2260 1.327 . S
C2258 H2283 0.950 . S
C2259 C2258 1.349 . S
C2259 C2275 1.349 1_556 S
C2260 C2258 1.327 . S
C2260 C2279 1.429 . S
C2260 H2284 0.950 . S
C2261 C2278 1.574 . S
C2261 C2280 1.368 . S
C2261 H2285 0.949 1_556 S
H2262 C2266 0.949 . S
C2263 C2264 1.349 . S
C2263 C2265 1.327 . S
C2263 H2286 0.950 . S
C2264 C2263 1.349 . S
C2264 C2276 1.349 . S
C2265 C2263 1.327 . S
C2265 C2281 1.429 . S
C2265 H2287 0.950 . S
C2266 H2262 0.949 . S
C2266 C2274 1.574 . S
C2266 C2282 1.368 . S
H2267 C2275 0.950 . S
H2268 C2273 0.950 1_554 S
H2269 C2274 0.949 . S
H2270 C2276 0.950 . S
H2271 C2277 0.950 . S
H2272 C2278 0.949 . S
C2273 H2268 0.950 1_556 S
C2273 C2275 1.327 1_556 S
C2273 C2279 1.429 . S
C2274 C2266 1.574 . S
C2274 H2269 0.949 . S
C2274 C2280 1.368 . S
C2275 C2259 1.349 1_554 S
C2275 H2267 0.950 . S
C2275 C2273 1.327 1_554 S
C2276 C2264 1.349 . S
C2276 H2270 0.950 . S
C2276 C2277 1.327 . S
C2277 H2271 0.950 . S
C2277 C2276 1.327 . S
C2277 C2281 1.429 . S
C2278 C2261 1.574 . S
C2278 H2272 0.949 . S
C2278 C2282 1.368 . S
C2279 C2260 1.429 . S
C2279 C2273 1.429 . S
C2279 C2280 1.523 . S
C2280 C2261 1.368 . S
C2280 C2274 1.368 . S
C2280 C2279 1.523 . S
C2281 C2265 1.429 . S
C2281 C2277 1.429 . S
C2281 C2282 1.523 . S
C2282 C2266 1.368 . S
C2282 C2278 1.368 . S
C2282 C2281 1.523 . S
H2283 C2258 0.950 . S
H2284 C2260 0.950 . S
H2285 C2261 0.949 1_554 S
H2286 C2263 0.950 . S
H2287 C2265 0.950 . S
C2288 C2289 1.349 . S
C2288 C2290 1.327 . S
C2288 H2313 0.950 . S
C2289 C2288 1.349 . S
C2289 C2305 1.349 . S
C2290 C2288 1.327 . S
C2290 C2309 1.429 . S
C2290 H2314 0.950 . S
C2291 C2308 1.574 . S
C2291 C2310 1.368 . S
C2291 H2315 0.949 . S
H2292 C2296 0.949 . S
C2293 C2294 1.349 . S
C2293 C2295 1.327 . S
C2293 H2316 0.950 . S
C2294 C2293 1.349 . S
C2294 C2306 1.349 . S
C2295 C2293 1.327 . S
C2295 C2311 1.429 . S
C2295 H2317 0.950 . S
C2296 H2292 0.949 . S
C2296 C2304 1.574 . S
C2296 C2312 1.368 . S
H2297 C2305 0.950 . S
H2298 C2303 0.950 . S
H2299 C2304 0.949 . S
H2300 C2306 0.950 . S
H2301 C2307 0.950 . S
H2302 C2308 0.949 . S
C2303 H2298 0.950 . S
C2303 C2305 1.327 . S
C2303 C2309 1.429 . S
C2304 C2296 1.574 . S
C2304 H2299 0.949 . S
C2304 C2310 1.368 . S
C2305 C2289 1.349 . S
C2305 H2297 0.950 . S
C2305 C2303 1.327 . S
C2306 C2294 1.349 . S
C2306 H2300 0.950 . S
C2306 C2307 1.327 . S
C2307 H2301 0.950 . S
C2307 C2306 1.327 . S
C2307 C2311 1.429 . S
C2308 C2291 1.574 . S
C2308 H2302 0.949 . S
C2308 C2312 1.368 . S
C2309 C2290 1.429 . S
C2309 C2303 1.429 . S
C2309 C2310 1.523 . S
C2310 C2291 1.368 . S
C2310 C2304 1.368 . S
C2310 C2309 1.523 . S
C2311 C2295 1.429 . S
C2311 C2307 1.429 . S
C2311 C2312 1.523 . S
C2312 C2296 1.368 . S
C2312 C2308 1.368 . S
C2312 C2311 1.523 . S
H2313 C2288 0.950 . S
H2314 C2290 0.950 . S
H2315 C2291 0.949 . S
H2316 C2293 0.950 . S
H2317 C2295 0.950 . S
C2318 C2319 1.349 . S
C2318 C2320 1.327 . S
C2318 H2343 0.950 1_554 S
C2319 C2318 1.349 . S
C2319 C2335 1.349 . S
C2320 C2318 1.327 . S
C2320 C2339 1.429 . S
C2320 H2344 0.950 1_554 S
C2321 C2338 1.574 . S
C2321 C2340 1.368 . S
C2321 H2345 0.949 . S
H2322 C2326 0.949 . S
C2323 C2324 1.349 . S
C2323 C2325 1.327 . S
C2323 H2346 0.950 . S
C2324 C2323 1.349 . S
C2324 C2336 1.349 . S
C2325 C2323 1.327 . S
C2325 C2341 1.429 . S
C2325 H2347 0.950 . S
C2326 H2322 0.949 . S
C2326 C2334 1.574 . S
C2326 C2342 1.368 . S
H2327 C2335 0.950 . S
H2328 C2333 0.950 . S
H2329 C2334 0.931 1_556 S
H2330 C2336 0.950 . S
H2331 C2337 0.950 . S
H2332 C2338 0.949 . S
C2333 H2328 0.950 . S
C2333 C2335 1.327 . S
C2333 C2339 1.429 . S
C2334 C2326 1.574 . S
C2334 H2329 0.931 1_554 S
C2334 C2340 1.368 . S
C2335 C2319 1.349 . S
C2335 H2327 0.950 . S
C2335 C2333 1.327 . S
C2336 C2324 1.349 . S
C2336 H2330 0.950 . S
C2336 C2337 1.327 . S
C2337 H2331 0.950 . S
C2337 C2336 1.327 . S
C2337 C2341 1.429 . S
C2338 C2321 1.574 . S
C2338 H2332 0.949 . S
C2338 C2342 1.368 . S
C2339 C2320 1.429 . S
C2339 C2333 1.429 . S
C2339 C2340 1.523 . S
C2340 C2321 1.368 . S
C2340 C2334 1.368 . S
C2340 C2339 1.523 . S
C2341 C2325 1.429 . S
C2341 C2337 1.429 . S
C2341 C2342 1.523 . S
C2342 C2326 1.368 . S
C2342 C2338 1.368 . S
C2342 C2341 1.523 . S
H2343 C2318 0.950 1_556 S
H2344 C2320 0.950 1_556 S
H2345 C2321 0.949 . S
H2346 C2323 0.950 . S
H2347 C2325 0.950 . S
C909 C22 1.674 . S
C914 C704 1.679 . S
C944 C767 2.016 . S
C939 C38 2.020 . S
C974 C644 1.896 1_565 S
C969 C75 1.906 . S
C999 C91 1.803 . S
C1004 C678 1.798 . S
C1029 C128 1.826 . S
C1034 C882 1.832 . S
C1059 C197 1.163 . S
C1064 C853 1.159 . S
C1094 C776 2.001 . S
C1089 C144 2.034 . S
C1119 C181 1.467 . S
C1124 C810 1.454 . S
C1154 C699 2.009 1_455 S
C1149 C234 2.027 . S
C1184 C742 1.468 . S
C1179 C303 1.477 . S
C1209 C356 2.036 . S
C1214 C721 2.020 1_655 S
C1239 C287 1.726 . S
C1244 C835 1.727 . S
C1274 C840 1.609 . S
C1269 C393 1.597 . S
C1304 C903 2.045 1_565 S
C1299 C409 2.060 . S
C1329 C462 2.054 . S
C1334 C814 2.061 . S
C1364 C780 1.670 1_545 S
C1359 C446 1.664 . S
C1389 C499 1.799 . S
C1394 C746 1.795 . S
C1419 C552 1.101 . S
C1424 C717 1.104 . S
C1454 C674 1.953 . S
C1449 C515 1.995 . S
C1479 C568 1.634 . S
C1484 C640 1.622 . S
C1514 C801 2.073 . S
C1509 C340 2.086 . S
C1544 C878 1.448 . S
C1539 C621 1.473 . S
C1569 C250 1.929 . S
C1574 C857 1.899 . S
C1599 C605 1.621 . S
C1604 C665 1.614 . S
C1634 C649 0.958 . S
C1629 C39 0.955 . S
C1659 C29 0.743 . S
C1664 C683 0.743 . S
C1694 C708 0.969 . S
C1689 C92 0.974 . S
C1724 C755 1.641 . S
C1719 C82 1.622 . S
C1749 C145 1.428 . S
C1754 C636 1.427 . S
C1779 C188 1.171 . S
C1784 C670 1.178 . S
C1814 C712 1.258 . S
C1809 C135 1.258 . S
C1839 C198 0.771 . S
C1844 C751 0.769 . S
C1869 C251 1.573 . S
C1874 C653 1.567 . S
C1904 C733 1.370 . S
C1899 C294 1.377 . S
C1929 C347 1.356 . S
C1934 C738 1.372 . S
C1959 C304 1.557 . S
C1964 C789 1.558 . S
C1994 C819 1.021 . S
C1989 C410 1.023 . S
C2019 C400 0.750 . S
C2024 C785 0.750 . S
C2049 C453 0.694 . S
C2054 C844 0.694 . S
C2079 C463 1.925 . S
C2084 C891 1.926 . S
C2109 C516 1.462 . S
C2114 C806 1.467 . S
C2144 C772 1.480 . S
C2139 C569 1.477 . S
C2169 C506 1.169 . S
C2174 C848 1.159 . S
C2204 C887 0.531 . S
C2199 C559 0.514 . S
C2234 C823 1.537 . S
C2229 C357 1.542 . S
C2264 C869 1.316 . S
C2259 C612 1.324 . S
C2294 C874 1.319 . S
C2289 C241 1.303 . S
C2319 C622 1.444 . S
C2324 C687 1.441 . S
