# Generated by pormake.
# Topology ctn, (3,4)-cn, num edge types: 1
# Building blocks:
#     Node 0, Type 0, BuildingBlock: OLANEW_clean_sbu_2, # of connection points: 3
#     Node 1, Type 0, BuildingBlock: OLANEW_clean_sbu_2, # of connection points: 3
#     Node 2, Type 0, BuildingBlock: OLANEW_clean_sbu_2, # of connection points: 3
#     Node 3, Type 0, BuildingBlock: OLANEW_clean_sbu_2, # of connection points: 3
#     Node 4, Type 0, BuildingBlock: OLANEW_clean_sbu_2, # of connection points: 3
#     Node 5, Type 0, BuildingBlock: OLANEW_clean_sbu_2, # of connection points: 3
#     Node 6, Type 0, BuildingBlock: OLANEW_clean_sbu_2, # of connection points: 3
#     Node 7, Type 0, BuildingBlock: OLANEW_clean_sbu_2, # of connection points: 3
#     Node 8, Type 0, BuildingBlock: OLANEW_clean_sbu_2, # of connection points: 3
#     Node 9, Type 0, BuildingBlock: OLANEW_clean_sbu_2, # of connection points: 3
#     Node 10, Type 0, BuildingBlock: OLANEW_clean_sbu_2, # of connection points: 3
#     Node 11, Type 0, BuildingBlock: OLANEW_clean_sbu_2, # of connection points: 3
#     Node 12, Type 0, BuildingBlock: OLANEW_clean_sbu_2, # of connection points: 3
#     Node 13, Type 0, BuildingBlock: OLANEW_clean_sbu_2, # of connection points: 3
#     Node 14, Type 0, BuildingBlock: OLANEW_clean_sbu_2, # of connection points: 3
#     Node 15, Type 0, BuildingBlock: OLANEW_clean_sbu_2, # of connection points: 3
#     Node 16, Type 1, BuildingBlock: QUQFOY_clean_sbu_1, # of connection points: 4
#     Node 17, Type 1, BuildingBlock: QUQFOY_clean_sbu_1, # of connection points: 4
#     Node 18, Type 1, BuildingBlock: QUQFOY_clean_sbu_1, # of connection points: 4
#     Node 19, Type 1, BuildingBlock: QUQFOY_clean_sbu_1, # of connection points: 4
#     Node 20, Type 1, BuildingBlock: QUQFOY_clean_sbu_1, # of connection points: 4
#     Node 21, Type 1, BuildingBlock: QUQFOY_clean_sbu_1, # of connection points: 4
#     Node 22, Type 1, BuildingBlock: QUQFOY_clean_sbu_1, # of connection points: 4
#     Node 23, Type 1, BuildingBlock: QUQFOY_clean_sbu_1, # of connection points: 4
#     Node 24, Type 1, BuildingBlock: QUQFOY_clean_sbu_1, # of connection points: 4
#     Node 25, Type 1, BuildingBlock: QUQFOY_clean_sbu_1, # of connection points: 4
#     Node 26, Type 1, BuildingBlock: QUQFOY_clean_sbu_1, # of connection points: 4
#     Node 27, Type 1, BuildingBlock: QUQFOY_clean_sbu_1, # of connection points: 4
#     Edge 28, Type (0, 1), BuildingBlock: OJICUG_clean_linker_0, # of connection points: 2
#     Edge 29, Type (0, 1), BuildingBlock: OJICUG_clean_linker_0, # of connection points: 2
#     Edge 30, Type (0, 1), BuildingBlock: OJICUG_clean_linker_0, # of connection points: 2
#     Edge 31, Type (0, 1), BuildingBlock: OJICUG_clean_linker_0, # of connection points: 2
#     Edge 32, Type (0, 1), BuildingBlock: OJICUG_clean_linker_0, # of connection points: 2
#     Edge 33, Type (0, 1), BuildingBlock: OJICUG_clean_linker_0, # of connection points: 2
#     Edge 34, Type (0, 1), BuildingBlock: OJICUG_clean_linker_0, # of connection points: 2
#     Edge 35, Type (0, 1), BuildingBlock: OJICUG_clean_linker_0, # of connection points: 2
#     Edge 36, Type (0, 1), BuildingBlock: OJICUG_clean_linker_0, # of connection points: 2
#     Edge 37, Type (0, 1), BuildingBlock: OJICUG_clean_linker_0, # of connection points: 2
#     Edge 38, Type (0, 1), BuildingBlock: OJICUG_clean_linker_0, # of connection points: 2
#     Edge 39, Type (0, 1), BuildingBlock: OJICUG_clean_linker_0, # of connection points: 2
#     Edge 40, Type (0, 1), BuildingBlock: OJICUG_clean_linker_0, # of connection points: 2
#     Edge 41, Type (0, 1), BuildingBlock: OJICUG_clean_linker_0, # of connection points: 2
#     Edge 42, Type (0, 1), BuildingBlock: OJICUG_clean_linker_0, # of connection points: 2
#     Edge 43, Type (0, 1), BuildingBlock: OJICUG_clean_linker_0, # of connection points: 2
#     Edge 44, Type (0, 1), BuildingBlock: OJICUG_clean_linker_0, # of connection points: 2
#     Edge 45, Type (0, 1), BuildingBlock: OJICUG_clean_linker_0, # of connection points: 2
#     Edge 46, Type (0, 1), BuildingBlock: OJICUG_clean_linker_0, # of connection points: 2
#     Edge 47, Type (0, 1), BuildingBlock: OJICUG_clean_linker_0, # of connection points: 2
#     Edge 48, Type (0, 1), BuildingBlock: OJICUG_clean_linker_0, # of connection points: 2
#     Edge 49, Type (0, 1), BuildingBlock: OJICUG_clean_linker_0, # of connection points: 2
#     Edge 50, Type (0, 1), BuildingBlock: OJICUG_clean_linker_0, # of connection points: 2
#     Edge 51, Type (0, 1), BuildingBlock: OJICUG_clean_linker_0, # of connection points: 2
#     Edge 52, Type (0, 1), BuildingBlock: OJICUG_clean_linker_0, # of connection points: 2
#     Edge 53, Type (0, 1), BuildingBlock: OJICUG_clean_linker_0, # of connection points: 2
#     Edge 54, Type (0, 1), BuildingBlock: OJICUG_clean_linker_0, # of connection points: 2
#     Edge 55, Type (0, 1), BuildingBlock: OJICUG_clean_linker_0, # of connection points: 2
#     Edge 56, Type (0, 1), BuildingBlock: OJICUG_clean_linker_0, # of connection points: 2
#     Edge 57, Type (0, 1), BuildingBlock: OJICUG_clean_linker_0, # of connection points: 2
#     Edge 58, Type (0, 1), BuildingBlock: OJICUG_clean_linker_0, # of connection points: 2
#     Edge 59, Type (0, 1), BuildingBlock: OJICUG_clean_linker_0, # of connection points: 2
#     Edge 60, Type (0, 1), BuildingBlock: OJICUG_clean_linker_0, # of connection points: 2
#     Edge 61, Type (0, 1), BuildingBlock: OJICUG_clean_linker_0, # of connection points: 2
#     Edge 62, Type (0, 1), BuildingBlock: OJICUG_clean_linker_0, # of connection points: 2
#     Edge 63, Type (0, 1), BuildingBlock: OJICUG_clean_linker_0, # of connection points: 2
#     Edge 64, Type (0, 1), BuildingBlock: OJICUG_clean_linker_0, # of connection points: 2
#     Edge 65, Type (0, 1), BuildingBlock: OJICUG_clean_linker_0, # of connection points: 2
#     Edge 66, Type (0, 1), BuildingBlock: OJICUG_clean_linker_0, # of connection points: 2
#     Edge 67, Type (0, 1), BuildingBlock: OJICUG_clean_linker_0, # of connection points: 2
#     Edge 68, Type (0, 1), BuildingBlock: OJICUG_clean_linker_0, # of connection points: 2
#     Edge 69, Type (0, 1), BuildingBlock: OJICUG_clean_linker_0, # of connection points: 2
#     Edge 70, Type (0, 1), BuildingBlock: OJICUG_clean_linker_0, # of connection points: 2
#     Edge 71, Type (0, 1), BuildingBlock: OJICUG_clean_linker_0, # of connection points: 2
#     Edge 72, Type (0, 1), BuildingBlock: OJICUG_clean_linker_0, # of connection points: 2
#     Edge 73, Type (0, 1), BuildingBlock: OJICUG_clean_linker_0, # of connection points: 2
#     Edge 74, Type (0, 1), BuildingBlock: OJICUG_clean_linker_0, # of connection points: 2
#     Edge 75, Type (0, 1), BuildingBlock: OJICUG_clean_linker_0, # of connection points: 2
# Relax obj value: 0.087
# Max RMSD: 0.192
# Mean RMSD: 0.122
data_MOF--net-ctn--node1-OLANEW_clean_sbu_2--node2-QUQFOY_clean_sbu_1--edge1-OJICUG_clean_linker_0
_symmetry_space_group_name_H-M    P1
_symmetry_Int_Tables_number       1
_symmetry_cell_setting            triclinic
loop_
_symmetry_equiv_pos_as_xyz
'x, y, z'
_cell_length_a     42.83152
_cell_length_b     44.232176
_cell_length_c     41.489643
_cell_angle_alpha  93.607305
_cell_angle_beta   95.501221
_cell_angle_gamma 100.47283
loop_
_atom_site_label
_atom_site_type_symbol
_atom_site_fract_x
_atom_site_fract_y
_atom_site_fract_z
_atom_type_partial_charge
O0 O 0.03362 0.07783 0.02969 0.0
Cd1 Cd 0.03756 0.03545 0.06485 0.0
O2 O 0.07459 0.11122 0.05444 0.0
Cd3 Cd 0.07776 0.08147 0.09392 0.0
O4 O 0.05908 0.06255 0.13696 0.0
C5 C 0.03914 0.07635 0.14973 0.0
O6 O 0.03173 0.10082 0.13676 0.0
C7 C 0.05198 0.10412 0.03153 0.0
C8 C 0.08224 0.99912 0.05001 0.0
O9 O 0.05431 0.99441 0.03428 0.0
O10 O 0.08926 0.02125 0.0725 0.0
O11 O 0.35253 0.79294 0.2857 0.0
Cd12 Cd 0.30235 0.78713 0.24988 0.0
O13 O 0.35623 0.74484 0.27236 0.0
Cd14 Cd 0.30982 0.73196 0.24404 0.0
O15 O 0.26509 0.70056 0.24729 0.0
C16 C 0.26461 0.68711 0.27349 0.0
O17 O 0.28995 0.69348 0.29503 0.0
C18 C 0.36752 0.77068 0.2882 0.0
C19 C 0.30178 0.82743 0.20069 0.0
O20 O 0.28963 0.8328 0.22703 0.0
O21 O 0.3147 0.80356 0.19799 0.0
O22 O 0.91339 0.50854 0.16449 0.0
Cd23 Cd 0.85942 0.49404 0.1376 0.0
O24 O 0.92369 0.46248 0.15347 0.0
Cd25 Cd 0.95507 0.42925 0.14818 0.0
O26 O 0.97777 0.39783 0.12014 0.0
C27 C 0.96304 0.37043 0.11177 0.0
O28 O 0.93523 0.36092 0.12229 0.0
C29 C 0.9329 0.49009 0.16573 0.0
C30 C 0.84516 0.54164 0.10133 0.0
O31 O 0.83985 0.54083 0.13118 0.0
O32 O 0.85707 0.51978 0.08856 0.0
O33 O 0.8014 0.83493 0.26861 0.0
Cd34 Cd 0.76567 0.78473 0.26541 0.0
O35 O 0.78089 0.85069 0.31182 0.0
Cd36 Cd 0.74486 0.80986 0.31548 0.0
O37 O 0.70201 0.79727 0.33964 0.0
C38 C 0.69388 0.82057 0.35366 0.0
O39 O 0.71134 0.84799 0.35188 0.0
C40 C 0.80064 0.85575 0.29092 0.0
C41 C 0.75138 0.75692 0.20222 0.0
O42 O 0.73326 0.77385 0.21408 0.0
O43 O 0.7763 0.75335 0.22019 0.0
O44 O 0.18344 0.96423 0.55345 0.0
Cd45 Cd 0.17814 0.91339 0.57395 0.0
O46 O 0.13296 0.96496 0.55812 0.0
Cd47 Cd 0.09076 0.98481 0.54634 0.0
O48 O 0.05778 0.00146 0.51179 0.0
C49 C 0.0674 0.00559 0.48409 0.0
O50 O 0.09596 0.0006 0.47916 0.0
C51 C 0.15972 0.97772 0.54984 0.0
C52 C 0.12261 0.89704 0.60365 0.0
O53 O 0.14915 0.90885 0.62058 0.0
O54 O 0.12232 0.89333 0.57273 0.0
O55 O 0.31365 0.78431 0.87812 0.0
Cd56 Cd 0.34199 0.76705 0.83389 0.0
O57 O 0.26553 0.7687 0.8527 0.0
Cd58 Cd 0.21338 0.76239 0.84631 0.0
O59 O 0.16259 0.75794 0.83028 0.0
C60 C 0.15314 0.78058 0.81764 0.0
O61 O 0.17406 0.80594 0.8157 0.0
C62 C 0.28362 0.7825 0.87737 0.0
C63 C 0.35691 0.70842 0.83626 0.0
O64 O 0.37254 0.73117 0.85534 0.0
O65 O 0.33373 0.71309 0.81648 0.0
O66 O 0.93087 0.62133 0.39195 0.0
Cd67 Cd 0.88616 0.63412 0.41879 0.0
O68 O 0.95051 0.61395 0.44055 0.0
Cd69 Cd 0.98327 0.60902 0.4826 0.0
O70 O 0.98611 0.63218 0.53104 0.0
C71 C 0.96715 0.65119 0.5319 0.0
O72 O 0.94926 0.65403 0.50511 0.0
C73 C 0.95351 0.61443 0.4104 0.0
C74 C 0.85515 0.58324 0.44703 0.0
O75 O 0.84574 0.58918 0.41825 0.0
O76 O 0.87922 0.60157 0.46267 0.0
O77 O 0.74968 0.78531 0.84784 0.0
Cd78 Cd 0.7548 0.81826 0.80285 0.0
O79 O 0.70338 0.794 0.86143 0.0
Cd80 Cd 0.69839 0.83106 0.83002 0.0
O81 O 0.68162 0.87417 0.82206 0.0
C82 C 0.68137 0.89134 0.84775 0.0
O83 O 0.69171 0.88241 0.87578 0.0
C84 C 0.72666 0.77987 0.86515 0.0
C85 C 0.81015 0.81113 0.77502 0.0
O86 O 0.80998 0.83484 0.79437 0.0
O87 O 0.78415 0.79133 0.76829 0.0
O88 O 0.23843 0.28533 0.34589 0.0
Cd89 Cd 0.23943 0.31727 0.2999 0.0
O90 O 0.19163 0.29171 0.36004 0.0
Cd91 Cd 0.18477 0.32775 0.32791 0.0
O92 O 0.16892 0.37118 0.31958 0.0
C93 C 0.16953 0.38883 0.34512 0.0
O94 O 0.18001 0.38004 0.37317 0.0
C95 C 0.21597 0.27904 0.36374 0.0
C96 C 0.29343 0.31179 0.26892 0.0
O97 O 0.2933 0.33559 0.28815 0.0
O98 O 0.26796 0.29111 0.26378 0.0
O99 O 0.41903 0.0156 0.66427 0.0
Cd100 Cd 0.36529 0.002 0.6366 0.0
O101 O 0.42935 0.97016 0.65017 0.0
Cd102 Cd 0.46048 0.93701 0.64286 0.0
O103 O 0.48254 0.90563 0.61399 0.0
C104 C 0.46819 0.87794 0.60663 0.0
O105 O 0.44117 0.86814 0.61856 0.0
C106 C 0.43847 0.99708 0.66431 0.0
C107 C 0.35078 0.05046 0.60181 0.0
O108 O 0.34529 0.04878 0.63154 0.0
O109 O 0.36314 0.02916 0.58852 0.0
O110 O 0.29193 0.34638 0.7659 0.0
Cd111 Cd 0.25792 0.29537 0.76403 0.0
O112 O 0.27534 0.36076 0.81201 0.0
Cd113 Cd 0.24131 0.31887 0.81719 0.0
O114 O 0.20016 0.30332 0.84291 0.0
C115 C 0.19284 0.32518 0.86021 0.0
O116 O 0.21027 0.35295 0.86069 0.0
C117 C 0.29271 0.3667 0.78919 0.0
C118 C 0.24548 0.26537 0.7017 0.0
O119 O 0.22636 0.2818 0.71246 0.0
O120 O 0.27054 0.26334 0.72034 0.0
O121 O 0.85615 0.29624 0.78688 0.0
Cd122 Cd 0.80726 0.29225 0.74952 0.0
O123 O 0.857 0.24722 0.77487 0.0
Cd124 Cd 0.81068 0.23575 0.74618 0.0
O125 O 0.76633 0.20402 0.75021 0.0
C126 C 0.76651 0.19061 0.77644 0.0
O127 O 0.79217 0.19725 0.79755 0.0
C128 C 0.8695 0.27299 0.79028 0.0
C129 C 0.80925 0.33426 0.70184 0.0
O130 O 0.79625 0.33899 0.72781 0.0
O131 O 0.82186 0.31022 0.69886 0.0
O132 O 0.53897 0.58456 0.5309 0.0
Cd133 Cd 0.54373 0.54333 0.56741 0.0
O134 O 0.5793 0.61903 0.55515 0.0
Cd135 Cd 0.58247 0.59024 0.59545 0.0
O136 O 0.56115 0.57093 0.63705 0.0
C137 C 0.54072 0.58484 0.6487 0.0
O138 O 0.53457 0.60975 0.63572 0.0
C139 C 0.55685 0.61107 0.53218 0.0
C140 C 0.58962 0.50776 0.5545 0.0
O141 O 0.5617 0.50198 0.53869 0.0
O142 O 0.59608 0.53064 0.57614 0.0
O143 O 0.67322 0.46087 0.04851 0.0
Cd144 Cd 0.66532 0.41002 0.06906 0.0
O145 O 0.62296 0.46354 0.052 0.0
Cd146 Cd 0.58223 0.48524 0.03935 0.0
O147 O 0.55069 0.50343 0.00465 0.0
C148 C 0.56025 0.50645 0.97677 0.0
O149 O 0.58799 0.49945 0.97164 0.0
C150 C 0.6503 0.47535 0.04435 0.0
C151 C 0.60897 0.39598 0.09794 0.0
O152 O 0.63553 0.40708 0.11517 0.0
O153 O 0.60906 0.3919 0.06709 0.0
O154 O 0.78507 0.25763 0.38787 0.0
Cd155 Cd 0.78161 0.21982 0.34127 0.0
O156 O 0.73514 0.25627 0.3706 0.0
Cd157 Cd 0.68748 0.26766 0.36367 0.0
O158 O 0.63835 0.26809 0.34465 0.0
C159 C 0.63206 0.28944 0.32746 0.0
O160 O 0.65534 0.31195 0.3227 0.0
C161 C 0.75929 0.26742 0.39095 0.0
C162 C 0.82091 0.17625 0.34747 0.0
O163 O 0.82992 0.2011 0.33382 0.0
O164 O 0.79379 0.17248 0.35882 0.0
O165 O 0.43468 0.11434 0.90054 0.0
Cd166 Cd 0.39134 0.12788 0.9292 0.0
O167 O 0.45729 0.11068 0.94896 0.0
Cd168 Cd 0.49172 0.10959 0.99087 0.0
O169 O 0.49033 0.13486 0.03746 0.0
C170 C 0.46884 0.15131 0.03599 0.0
O171 O 0.45111 0.1509 0.00825 0.0
C172 C 0.45865 0.10936 0.91847 0.0
C173 C 0.35662 0.07661 0.95371 0.0
O174 O 0.34815 0.08502 0.9257 0.0
O175 O 0.38163 0.09257 0.97032 0.0
O176 O 0.2736 0.87437 0.9987 0.0
Cd177 Cd 0.27772 0.90982 0.03458 0.0
Cd178 Cd 0.22531 0.91856 0.99668 0.0
O179 O 0.22657 0.87631 0.97311 0.0
O180 O 0.30944 0.89852 0.06782 0.0
O181 O 0.25988 0.90067 0.07699 0.0
C182 C 0.28733 0.8944 0.08694 0.0
C183 C 0.1795 0.93247 0.01442 0.0
C184 C 0.25079 0.86349 0.9768 0.0
C185 C 0.28482 0.96706 0.99971 0.0
O186 O 0.25759 0.95535 0.98478 0.0
O187 O 0.29665 0.95382 0.02301 0.0
O188 O 0.18266 0.92881 0.98389 0.0
O189 O 0.20163 0.92629 0.03502 0.0
O190 O 0.15234 0.58946 0.32711 0.0
Cd191 Cd 0.1165 0.55534 0.33911 0.0
Cd192 Cd 0.08551 0.56945 0.28532 0.0
O193 O 0.12975 0.59301 0.27787 0.0
O194 O 0.13688 0.52666 0.36533 0.0
O195 O 0.11204 0.51347 0.3157 0.0
C196 C 0.12824 0.50618 0.341 0.0
C197 C 0.05094 0.54286 0.24183 0.0
C198 C 0.15347 0.60032 0.29949 0.0
C199 C 0.05995 0.58288 0.34878 0.0
O200 O 0.06083 0.58814 0.31912 0.0
O201 O 0.07928 0.56761 0.36218 0.0
O202 O 0.05857 0.5725 0.24456 0.0
O203 O 0.06466 0.52789 0.26296 0.0
O204 O 0.70695 0.68899 0.98213 0.0
Cd205 Cd 0.70649 0.66506 0.02351 0.0
Cd206 Cd 0.74724 0.63728 0.99138 0.0
O207 O 0.74848 0.6739 0.96297 0.0
O208 O 0.69117 0.68962 0.059 0.0
O209 O 0.74066 0.68138 0.05982 0.0
C210 C 0.71969 0.69343 0.07384 0.0
C211 C 0.78971 0.62379 0.0222 0.0
C212 C 0.7276 0.69103 0.96185 0.0
C213 C 0.6882 0.59684 0.00389 0.0
O214 O 0.70942 0.60097 0.98442 0.0
O215 O 0.68436 0.61921 0.02297 0.0
O216 O 0.78586 0.61798 0.991 0.0
O217 O 0.77137 0.64014 0.03512 0.0
O218 O 0.98429 0.01419 0.34781 0.0
Cd219 Cd 0.95502 0.01064 0.30481 0.0
Cd220 Cd 0.91579 0.03342 0.34602 0.0
O221 O 0.95318 0.03217 0.38072 0.0
O222 O 0.98339 0.00447 0.27072 0.0
O223 O 0.95999 0.04498 0.2751 0.0
C224 C 0.97858 0.03024 0.26025 0.0
C225 C 0.89174 0.07677 0.34792 0.0
C226 C 0.97911 0.02331 0.37613 0.0
C227 C 0.89121 0.97106 0.30898 0.0
O228 O 0.8864 0.99217 0.32908 0.0
O229 O 0.91717 0.97392 0.29602 0.0
O230 O 0.88706 0.05626 0.36853 0.0
O231 O 0.91064 0.07292 0.32616 0.0
O232 O 0.20403 0.19078 0.48359 0.0
Cd233 Cd 0.20574 0.16792 0.52564 0.0
Cd234 Cd 0.24774 0.14225 0.49377 0.0
O235 O 0.24657 0.17793 0.46441 0.0
O236 O 0.18893 0.19194 0.56039 0.0
O237 O 0.2394 0.18661 0.56169 0.0
C238 C 0.21752 0.19762 0.57525 0.0
C239 C 0.29175 0.13116 0.52415 0.0
C240 C 0.22441 0.19361 0.46304 0.0
C241 C 0.19085 0.09942 0.50759 0.0
O242 O 0.21163 0.10435 0.48774 0.0
O243 O 0.18604 0.12156 0.52639 0.0
O244 O 0.28756 0.12502 0.493 0.0
O245 O 0.27277 0.14666 0.53725 0.0
O246 O 0.4781 0.51953 0.84105 0.0
Cd247 Cd 0.44843 0.51866 0.79878 0.0
Cd248 Cd 0.41207 0.54316 0.84008 0.0
O249 O 0.44924 0.54021 0.87437 0.0
O250 O 0.47561 0.51098 0.76403 0.0
O251 O 0.45586 0.55361 0.77004 0.0
C252 C 0.47308 0.53772 0.75461 0.0
C253 C 0.39539 0.59022 0.83766 0.0
C254 C 0.474 0.52934 0.86947 0.0
C255 C 0.38304 0.48198 0.80421 0.0
O256 O 0.37974 0.50312 0.82513 0.0
O257 O 0.40841 0.48414 0.79024 0.0
O258 O 0.38893 0.57296 0.86097 0.0
O259 O 0.41119 0.58064 0.81534 0.0
O260 O 0.78378 0.38332 0.50096 0.0
Cd261 Cd 0.78912 0.41869 0.53709 0.0
Cd262 Cd 0.73352 0.42551 0.50534 0.0
O263 O 0.73274 0.38123 0.48548 0.0
O264 O 0.82067 0.40775 0.57069 0.0
O265 O 0.77074 0.40958 0.57906 0.0
C266 C 0.79817 0.40346 0.58942 0.0
C267 C 0.68817 0.44104 0.52275 0.0
C268 C 0.75795 0.37001 0.4843 0.0
C269 C 0.79187 0.47421 0.50125 0.0
O270 O 0.76423 0.46099 0.48838 0.0
O271 O 0.80574 0.46274 0.52468 0.0
O272 O 0.69038 0.4347 0.49241 0.0
O273 O 0.7111 0.43687 0.54361 0.0
O274 O 0.65727 0.09039 0.83123 0.0
Cd275 Cd 0.62251 0.05532 0.84336 0.0
Cd276 Cd 0.58988 0.06901 0.78944 0.0
O277 O 0.63363 0.09405 0.78245 0.0
O278 O 0.64428 0.02723 0.86907 0.0
O279 O 0.61907 0.01368 0.81965 0.0
C280 C 0.63595 0.00676 0.84469 0.0
C281 C 0.55548 0.0451 0.74442 0.0
C282 C 0.65758 0.10166 0.80378 0.0
C283 C 0.56467 0.08037 0.85399 0.0
O284 O 0.56467 0.08542 0.8242 0.0
O285 O 0.58522 0.0663 0.86724 0.0
O286 O 0.56296 0.07463 0.74954 0.0
O287 O 0.56915 0.02872 0.76404 0.0
O288 O 0.98507 0.27535 0.99349 0.0
Cd289 Cd 0.9946 0.24891 0.95391 0.0
Cd290 Cd 0.02673 0.30232 0.9402 0.0
O291 O 0.02065 0.31652 0.98686 0.0
O292 O 0.98358 0.20514 0.96437 0.0
O293 O 0.03302 0.22873 0.96005 0.0
C294 C 0.01365 0.20435 0.96627 0.0
C295 C 0.07716 0.30804 0.92289 0.0
C296 C 1.00029 0.30223 0.00359 0.0
C297 C 0.96988 0.27589 0.89434 0.0
O298 O 0.98936 0.30056 0.90465 0.0
O299 O 0.97001 0.2515 0.909 0.0
O300 O 0.06338 0.33138 0.92712 0.0
O301 O 0.06251 0.2813 0.92944 0.0
O302 O 0.48842 0.78059 0.48961 0.0
Cd303 Cd 0.49717 0.75296 0.45056 0.0
Cd304 Cd 0.52815 0.80597 0.43441 0.0
O305 O 0.52308 0.82172 0.48087 0.0
O306 O 0.48665 0.70965 0.46271 0.0
O307 O 0.53576 0.73302 0.45678 0.0
C308 C 0.51671 0.70893 0.46414 0.0
C309 C 0.578 0.80979 0.41598 0.0
C310 C 0.50341 0.80782 0.49855 0.0
C311 C 0.47058 0.77784 0.39039 0.0
O312 O 0.48993 0.80288 0.39957 0.0
O313 O 0.47148 0.75401 0.40584 0.0
O314 O 0.56476 0.83363 0.41929 0.0
O315 O 0.56312 0.78374 0.42408 0.0
O316 O 0.93722 0.76731 0.72984 0.0
Cd317 Cd 0.9789 0.75586 0.71555 0.0
Cd318 Cd 0.97165 0.79945 0.67285 0.0
O319 O 0.93688 0.80811 0.70158 0.0
O320 O 0.00482 0.74061 0.75178 0.0
O321 O 0.01996 0.78456 0.72992 0.0
C322 C 0.02613 0.76512 0.75041 0.0
C323 C 0.01217 0.83771 0.65931 0.0
C324 C 0.92511 0.79049 0.72224 0.0
C325 C 0.96782 0.73373 0.64555 0.0
O326 O 0.9624 0.7605 0.64079 0.0
O327 O 0.97653 0.7271 0.67396 0.0
O328 O 0.98351 0.83422 0.64491 0.0
O329 O 0.0172 0.82076 0.6827 0.0
O330 O 0.42181 0.27227 0.22351 0.0
Cd331 Cd 0.46523 0.26304 0.2119 0.0
Cd332 Cd 0.45554 0.30236 0.16592 0.0
O333 O 0.41963 0.31124 0.19298 0.0
O334 O 0.48882 0.24906 0.25047 0.0
O335 O 0.50519 0.29275 0.22864 0.0
C336 C 0.51003 0.27383 0.25017 0.0
C337 C 0.49645 0.34011 0.15251 0.0
C338 C 0.40836 0.29413 0.21428 0.0
C339 C 0.45707 0.23684 0.14313 0.0
O340 O 0.4487 0.262 0.13618 0.0
O341 O 0.46651 0.23292 0.17226 0.0
O342 O 0.46823 0.33596 0.13694 0.0
O343 O 0.50069 0.32419 0.17702 0.0
C344 C 0.2448 0.81322 0.8983 0.0
C345 C 0.2709 0.79836 0.90424 0.0
H346 H 0.21751 0.84519 0.91684 0.0
C347 C 0.28764 0.80226 0.93547 0.0
H348 H 0.23212 0.81163 0.87425 0.0
C349 C 0.27962 0.82187 0.95974 0.0
C350 C 0.25472 0.83816 0.95331 0.0
H351 H 0.30785 0.7911 0.94078 0.0
H352 H 0.29393 0.82533 0.98312 0.0
C353 C 0.23663 0.83277 0.92269 0.0
C354 C 0.00304 0.59099 0.41234 0.0
C355 C 0.98259 0.60833 0.39663 0.0
H356 H 0.04379 0.56933 0.40963 0.0
C357 C 0.9891 0.61871 0.36626 0.0
H358 H 0.99834 0.58217 0.43547 0.0
C359 C 0.01489 0.6113 0.35146 0.0
C360 C 0.03482 0.59315 0.36655 0.0
H361 H 0.97395 0.63228 0.35358 0.0
H362 H 0.01871 0.61932 0.32776 0.0
C363 C 0.02898 0.58349 0.39744 0.0
C364 C 0.75124 0.73956 0.89271 0.0
C365 C 0.7269 0.75702 0.88976 0.0
H366 H 0.77052 0.705 0.91762 0.0
C367 C 0.70277 0.75246 0.91062 0.0
H368 H 0.77018 0.74245 0.877 0.0
C369 C 0.70301 0.73106 0.93397 0.0
C370 C 0.72733 0.71359 0.93693 0.0
H371 H 0.68367 0.76552 0.90905 0.0
H372 H 0.68407 0.72821 0.94967 0.0
C373 C 0.75141 0.71804 0.91598 0.0
C374 C 0.05458 0.01192 0.42518 0.0
C375 C 0.04588 0.01306 0.45697 0.0
H376 H 0.04035 0.01429 0.37473 0.0
C377 C 0.01586 0.0198 0.46223 0.0
H378 H 0.07759 0.0069 0.42031 0.0
C379 C 0.99456 0.02428 0.43606 0.0
C380 C 0.00276 0.02182 0.40411 0.0
H381 H 0.00855 0.021 0.48648 0.0
H382 H 0.97129 0.02869 0.4408 0.0
C383 C 0.0332 0.01611 0.39902 0.0
C384 C 0.26148 0.23394 0.65593 0.0
C385 C 0.23861 0.24882 0.66893 0.0
H386 H 0.27284 0.20631 0.61608 0.0
C387 C 0.20893 0.24725 0.65056 0.0
H388 H 0.2846 0.23476 0.66942 0.0
C389 C 0.20211 0.23075 0.62005 0.0
C390 C 0.22493 0.21572 0.60716 0.0
H391 H 0.19079 0.25845 0.65991 0.0
H392 H 0.17893 0.22973 0.60662 0.0
C393 C 0.25476 0.21768 0.62531 0.0
C394 C 0.52748 0.54459 0.68763 0.0
C395 C 0.52352 0.57291 0.67592 0.0
H396 H 0.51451 0.51123 0.72146 0.0
C397 C 0.50263 0.58956 0.69018 0.0
H398 H 0.54331 0.53115 0.67713 0.0
C399 C 0.48613 0.57816 0.71571 0.0
C400 C 0.49006 0.54981 0.72734 0.0
H401 H 0.49905 0.61147 0.68171 0.0
H402 H 0.4703 0.59156 0.72627 0.0
C403 C 0.51087 0.53314 0.713 0.0
C404 C 0.78417 0.3724 0.67109 0.0
C405 C 0.8084 0.35494 0.67524 0.0
H406 H 0.76164 0.40133 0.64038 0.0
C407 C 0.83063 0.35574 0.65242 0.0
H408 H 0.76664 0.37213 0.68829 0.0
C409 C 0.82817 0.37289 0.62546 0.0
C410 C 0.80299 0.38908 0.62034 0.0
H411 H 0.84965 0.34264 0.65508 0.0
H412 H 0.84526 0.37235 0.60791 0.0
C413 C 0.78126 0.38905 0.64366 0.0
C414 C 0.48708 0.98771 0.69805 0.0
C415 C 0.47122 0.00754 0.68032 0.0
H416 H 0.52672 0.98406 0.73241 0.0
C417 C 0.48554 0.0387 0.68062 0.0
H418 H 0.47629 0.96366 0.69858 0.0
C419 C 0.51429 0.0503 0.69968 0.0
C420 C 0.52915 0.03107 0.71928 0.0
H421 H 0.47391 0.05441 0.66693 0.0
H422 H 0.52397 0.07475 0.70028 0.0
C423 C 0.51588 0.99942 0.71749 0.0
C424 C 0.90681 0.24706 0.82371 0.0
C425 C 0.89758 0.27452 0.81455 0.0
H426 H 0.9366 0.22598 0.85615 0.0
C427 C 0.91378 0.30274 0.83059 0.0
H428 H 0.89484 0.22486 0.81194 0.0
C429 C 0.9381 0.30334 0.85586 0.0
C430 C 0.94626 0.27571 0.86587 0.0
H431 H 0.90725 0.32428 0.82409 0.0
H432 H 0.94974 0.32537 0.86826 0.0
C433 C 0.93067 0.24763 0.84921 0.0
C434 C 0.46273 0.82843 0.57186 0.0
C435 C 0.47954 0.85846 0.58165 0.0
H436 H 0.4572 0.78873 0.53805 0.0
C437 C 0.5059 0.87059 0.5656 0.0
H438 H 0.44241 0.81835 0.58383 0.0
C439 C 0.51428 0.85369 0.53929 0.0
C440 C 0.49659 0.82421 0.52853 0.0
H441 H 0.51947 0.89359 0.57261 0.0
H442 H 0.53414 0.86411 0.52688 0.0
C443 C 0.47122 0.81144 0.54561 0.0
C444 C 0.14704 0.29039 0.88052 0.0
C445 C 0.16439 0.32021 0.87813 0.0
H446 H 0.10592 0.26305 0.89709 0.0
C447 C 0.15381 0.34567 0.89232 0.0
H448 H 0.15471 0.27031 0.86997 0.0
C449 C 0.12591 0.34155 0.90758 0.0
C450 C 0.10812 0.31185 0.90931 0.0
H451 H 0.16666 0.36896 0.89101 0.0
H452 H 0.11804 0.36174 0.91762 0.0
C453 C 0.11922 0.28623 0.89616 0.0
C454 C 0.51805 0.62981 0.49293 0.0
C455 C 0.5488 0.63402 0.5098 0.0
H456 H 0.48376 0.65035 0.46536 0.0
C457 C 0.5702 0.6619 0.50805 0.0
H458 H 0.50095 0.60865 0.49376 0.0
C459 C 0.56043 0.68568 0.49129 0.0
C460 C 0.52892 0.6822 0.47653 0.0
H461 H 0.59409 0.6658 0.52067 0.0
H462 H 0.57698 0.70737 0.49152 0.0
C463 C 0.50812 0.65375 0.47674 0.0
C464 C 0.86293 0.83125 0.75536 0.0
C465 C 0.83967 0.80616 0.76159 0.0
H466 H 0.9081 0.8459 0.73726 0.0
C467 C 0.84495 0.77605 0.75524 0.0
H468 H 0.85938 0.85469 0.76004 0.0
C469 C 0.87313 0.77107 0.74322 0.0
C470 C 0.89612 0.79609 0.73638 0.0
H471 H 0.82748 0.75632 0.76002 0.0
H472 H 0.87662 0.7476 0.73862 0.0
C473 C 0.8907 0.82623 0.74233 0.0
C474 C 0.09598 0.87957 0.65209 0.0
C475 C 0.09357 0.88614 0.61935 0.0
H476 H 0.07192 0.85898 0.69051 0.0
C477 C 0.06341 0.88 0.60113 0.0
H478 H 0.11891 0.8841 0.66675 0.0
C479 C 0.0364 0.86616 0.61492 0.0
C480 C 0.03919 0.85769 0.64699 0.0
H481 H 0.06081 0.88507 0.57591 0.0
H482 H 0.0137 0.86057 0.59986 0.0
C483 C 0.06908 0.8652 0.6657 0.0
C484 C 0.11049 0.80125 0.78532 0.0
C485 C 0.11972 0.77762 0.80294 0.0
H486 H 0.07371 0.81587 0.75503 0.0
C487 C 0.09713 0.75062 0.80499 0.0
H488 H 0.12725 0.82239 0.78332 0.0
C489 C 0.06629 0.74694 0.78886 0.0
C490 C 0.0575 0.77012 0.77024 0.0
H491 H 0.10344 0.73202 0.8185 0.0
H492 H 0.04967 0.72557 0.79025 0.0
C493 C 0.07976 0.79751 0.76908 0.0
C494 C 0.98155 0.66589 0.59172 0.0
C495 C 0.96601 0.67095 0.5617 0.0
H496 H 0.99389 0.68156 0.64208 0.0
C497 C 0.94964 0.69571 0.56002 0.0
H498 H 0.99421 0.6469 0.59379 0.0
C499 C 0.94965 0.71559 0.58747 0.0
C500 C 0.96569 0.71099 0.61737 0.0
H501 H 0.93734 0.70022 0.5373 0.0
H502 H 0.93736 0.73482 0.58513 0.0
C503 C 0.98121 0.68563 0.61938 0.0
C504 C 0.84928 0.89048 0.27544 0.0
C505 C 0.82288 0.88582 0.29344 0.0
H506 H 0.89174 0.92114 0.26621 0.0
C507 C 0.81828 0.91 0.31504 0.0
H508 H 0.85343 0.87231 0.25856 0.0
C509 C 0.83999 0.93788 0.31927 0.0
C510 C 0.867 0.94229 0.30217 0.0
H511 H 0.79804 0.90731 0.32908 0.0
H512 H 0.83587 0.95575 0.33656 0.0
C513 C 0.87122 0.91844 0.27986 0.0
C514 C 0.83309 0.12754 0.36865 0.0
C515 C 0.84053 0.15197 0.34898 0.0
H516 H 0.8436 0.08491 0.38394 0.0
C517 C 0.86587 0.15215 0.32974 0.0
H518 H 0.81379 0.12676 0.38382 0.0
C519 C 0.88282 0.12789 0.32951 0.0
C520 C 0.875 0.10323 0.34885 0.0
H521 H 0.87212 0.17064 0.31425 0.0
H522 H 0.90185 0.12834 0.31403 0.0
C523 C 0.85024 0.10355 0.36873 0.0
C524 C 0.30881 0.03422 0.9494 0.0
C525 C 0.33809 0.04914 0.96627 0.0
H526 H 0.26904 0.99695 0.94682 0.0
C527 C 0.34951 0.0373 0.99483 0.0
H528 H 0.29927 0.0428 0.92739 0.0
C529 C 0.33219 0.01076 0.00599 0.0
C530 C 0.30299 0.99572 0.9889 0.0
H531 H 0.37203 0.04831 0.00837 0.0
H532 H 0.34173 0.00198 0.02786 0.0
C533 C 0.29143 0.00792 0.96063 0.0
C534 C 0.14356 0.42685 0.31477 0.0
C535 C 0.15846 0.4186 0.34374 0.0
H536 H 0.12195 0.46091 0.29122 0.0
C537 C 0.16258 0.43905 0.37179 0.0
H538 H 0.13992 0.41153 0.29277 0.0
C539 C 0.15242 0.46726 0.37088 0.0
C540 C 0.13767 0.47564 0.34195 0.0
H541 H 0.17392 0.43343 0.39453 0.0
H542 H 0.15626 0.48255 0.39292 0.0
C543 C 0.13314 0.45507 0.31392 0.0
C544 C 0.14923 0.03147 0.54801 0.0
C545 C 0.16342 0.00767 0.5355 0.0
H546 H 0.14623 0.07928 0.54847 0.0
C547 C 0.1832 0.01339 0.51066 0.0
H548 H 0.13431 0.02779 0.56758 0.0
C549 C 0.18987 0.04276 0.4995 0.0
C550 C 0.17739 0.0672 0.51346 0.0
H551 H 0.19427 0.99533 0.50048 0.0
H552 H 0.20637 0.04665 0.48131 0.0
C553 C 0.15614 0.06098 0.5371 0.0
C554 C 0.71157 0.15952 0.76036 0.0
C555 C 0.73865 0.16778 0.78325 0.0
H556 H 0.66482 0.1321 0.74881 0.0
C557 C 0.73898 0.15394 0.81284 0.0
H558 H 0.71059 0.16972 0.73731 0.0
C559 C 0.71275 0.13238 0.81949 0.0
C560 C 0.68562 0.12414 0.79664 0.0
H561 H 0.7595 0.15979 0.83101 0.0
H562 H 0.71376 0.12223 0.84256 0.0
C563 C 0.68536 0.1379 0.76696 0.0
C564 C 0.32685 0.09784 0.59746 0.0
C565 C 0.34113 0.07509 0.58279 0.0
H566 H 0.30071 0.13417 0.59041 0.0
C567 C 0.3438 0.07471 0.54928 0.0
H568 H 0.32481 0.09903 0.62331 0.0
C569 C 0.33008 0.09497 0.53039 0.0
C570 C 0.31346 0.116 0.54468 0.0
H571 H 0.35501 0.05771 0.5373 0.0
H572 H 0.33081 0.09279 0.50433 0.0
C573 C 0.31321 0.11814 0.5786 0.0
C574 C 0.60995 0.4697 0.51864 0.0
C575 C 0.61381 0.48887 0.54761 0.0
H576 H 0.63046 0.43952 0.4881 0.0
C577 C 0.64128 0.49025 0.56956 0.0
H578 H 0.58903 0.46807 0.50127 0.0
C579 C 0.66476 0.47338 0.56229 0.0
C580 C 0.66148 0.45525 0.53268 0.0
H581 H 0.64481 0.50463 0.59221 0.0
H582 H 0.68603 0.47551 0.57929 0.0
C583 C 0.63366 0.45331 0.51112 0.0
C584 C 0.72952 0.29865 0.42582 0.0
C585 C 0.75851 0.29239 0.41633 0.0
H586 H 0.70648 0.32818 0.45454 0.0
C587 C 0.78725 0.31069 0.43107 0.0
H588 H 0.70703 0.2842 0.41638 0.0
C589 C 0.78699 0.33534 0.45373 0.0
C590 C 0.75796 0.34246 0.46208 0.0
H591 H 0.81006 0.3064 0.42459 0.0
H592 H 0.80961 0.34932 0.46405 0.0
C593 C 0.72922 0.32364 0.44816 0.0
C594 C 0.50998 0.08881 0.91978 0.0
C595 C 0.48735 0.10363 0.90366 0.0
H596 H 0.55239 0.06973 0.91678 0.0
C597 C 0.49146 0.11205 0.87206 0.0
H598 H 0.50723 0.08162 0.94395 0.0
C599 C 0.51709 0.10527 0.85658 0.0
C600 C 0.53931 0.08967 0.87216 0.0
H601 H 0.4746 0.12367 0.85901 0.0
H602 H 0.51906 0.1118 0.83202 0.0
C603 C 0.53576 0.08186 0.90414 0.0
C604 C 0.24382 0.24123 0.39208 0.0
C605 C 0.21814 0.25702 0.38898 0.0
H606 H 0.26593 0.2088 0.41775 0.0
C607 C 0.19452 0.25165 0.41035 0.0
H608 H 0.26241 0.2448 0.37601 0.0
C609 C 0.19659 0.2311 0.43434 0.0
C610 C 0.22226 0.2153 0.43747 0.0
H611 H 0.17442 0.26342 0.40868 0.0
H612 H 0.178 0.22759 0.4504 0.0
C613 C 0.24582 0.22056 0.41601 0.0
C614 C 0.51056 0.52427 0.95529 0.0
C615 C 0.53943 0.51506 0.94974 0.0
H616 H 0.46735 0.53636 0.9343 0.0
C617 C 0.54757 0.51266 0.91779 0.0
H618 H 0.50371 0.52649 0.97967 0.0
C619 C 0.52667 0.51811 0.89179 0.0
C620 C 0.49733 0.52636 0.89721 0.0
H621 H 0.56969 0.50572 0.91269 0.0
H622 H 0.5333 0.5153 0.86738 0.0
C623 C 0.48977 0.53 0.92929 0.0
C624 C 0.76535 0.72583 0.15502 0.0
C625 C 0.74356 0.7415 0.16896 0.0
H626 H 0.77499 0.69856 0.11402 0.0
C627 C 0.71405 0.74181 0.15105 0.0
H628 H 0.78831 0.72521 0.16815 0.0
C629 C 0.70632 0.72635 0.12005 0.0
C630 C 0.72805 0.7105 0.10624 0.0
H631 H 0.69673 0.75367 0.16112 0.0
H632 H 0.68328 0.72675 0.10698 0.0
C633 C 0.75773 0.7106 0.12396 0.0
C634 C 0.03017 0.03753 0.19093 0.0
C635 C 0.02396 0.06481 0.17828 0.0
H636 H 0.02067 0.00523 0.2266 0.0
C637 C 0.00276 0.0808 0.19294 0.0
H638 H 0.04634 0.02464 0.1802 0.0
C639 C 0.98803 0.06968 0.21964 0.0
C640 C 0.99413 0.0423 0.23214 0.0
H641 H 0.99747 0.10192 0.1838 0.0
H642 H 0.9718 0.08248 0.23037 0.0
C643 C 0.01539 0.02638 0.21752 0.0
C644 C 0.32136 0.84768 0.15 0.0
C645 C 0.29981 0.84729 0.17347 0.0
H646 H 0.33472 0.86349 0.10476 0.0
C647 C 0.27531 0.86447 0.16953 0.0
H648 H 0.34056 0.83479 0.15247 0.0
C649 C 0.27155 0.88054 0.14178 0.0
C650 C 0.2927 0.88027 0.11792 0.0
H651 H 0.25828 0.86449 0.18722 0.0
H652 H 0.25181 0.89269 0.13875 0.0
C653 C 0.31806 0.86426 0.12273 0.0
C654 C 0.98217 0.48295 0.19993 0.0
C655 C 0.96586 0.50146 0.18078 0.0
H656 H 0.02245 0.48157 0.23442 0.0
C657 C 0.97998 0.53235 0.17863 0.0
H658 H 0.97155 0.45916 0.20232 0.0
C659 C 0.009 0.54508 0.1967 0.0
C660 C 0.02433 0.52731 0.21772 0.0
H661 H 0.96799 0.54703 0.1638 0.0
H662 H 0.01852 0.56935 0.19543 0.0
C663 C 0.01123 0.49582 0.21836 0.0
C664 C 0.4067 0.74648 0.32118 0.0
C665 C 0.39617 0.77333 0.31196 0.0
H666 H 0.43818 0.72686 0.35329 0.0
C667 C 0.4117 0.80201 0.32748 0.0
H668 H 0.39525 0.72396 0.30981 0.0
C669 C 0.4367 0.80365 0.35227 0.0
C670 C 0.4462 0.77659 0.36236 0.0
H671 H 0.40415 0.8231 0.32092 0.0
H672 H 0.44784 0.82599 0.36428 0.0
C673 C 0.43122 0.74806 0.34625 0.0
C674 C 0.00218 0.36323 0.07224 0.0
C675 C 0.97488 0.35119 0.08695 0.0
H676 H 0.03165 0.35721 0.03449 0.0
C677 C 0.95764 0.32162 0.07585 0.0
H678 H 0.01612 0.38588 0.08029 0.0
C679 C 0.96663 0.30508 0.04955 0.0
C680 C 0.99294 0.31787 0.03375 0.0
H681 H 0.93659 0.31161 0.08678 0.0
H682 H 0.95225 0.28278 0.04091 0.0
C683 C 0.01106 0.3468 0.04589 0.0
C684 C 0.64766 0.78822 0.37595 0.0
C685 C 0.66498 0.81741 0.3709 0.0
H686 H 0.60666 0.76288 0.39463 0.0
C687 C 0.6542 0.84391 0.38214 0.0
H688 H 0.65547 0.76738 0.3677 0.0
C689 C 0.62629 0.84134 0.39735 0.0
C690 C 0.60866 0.81222 0.40194 0.0
H691 H 0.66701 0.86675 0.37873 0.0
H692 H 0.61838 0.86225 0.40522 0.0
C693 C 0.61981 0.78566 0.39149 0.0
C694 C 0.06611 0.15566 0.009 0.0
C695 C 0.0444 0.1278 0.00986 0.0
H696 H 0.07356 0.20165 0.99386 0.0
C697 C 0.01382 0.12423 0.99274 0.0
H698 H 0.08989 0.15908 0.02182 0.0
C699 C 0.00436 0.14873 0.97721 0.0
C700 C 0.02544 0.17713 0.97792 0.0
H701 H 0.9965 0.10309 0.99287 0.0
H702 H 0.98011 0.14576 0.96562 0.0
C703 C 0.05679 0.18002 0.99292 0.0
C704 C 0.32873 0.27777 0.24808 0.0
C705 C 0.32251 0.30758 0.25415 0.0
H706 H 0.36125 0.2503 0.23142 0.0
C707 C 0.34462 0.33308 0.24676 0.0
H708 H 0.31216 0.25773 0.25374 0.0
C709 C 0.37234 0.32876 0.23316 0.0
C710 C 0.37886 0.29896 0.22781 0.0
H711 H 0.34032 0.35629 0.25119 0.0
H712 H 0.38898 0.34873 0.22746 0.0
C713 C 0.35687 0.27353 0.23551 0.0
C714 C 0.58101 0.38054 0.14626 0.0
C715 C 0.57942 0.38619 0.11325 0.0
H716 H 0.5558 0.36147 0.18469 0.0
C717 C 0.54956 0.38011 0.09445 0.0
H718 H 0.60368 0.38506 0.16138 0.0
C719 C 0.52206 0.36711 0.10795 0.0
C720 C 0.524 0.35947 0.14035 0.0
H721 H 0.54758 0.3845 0.06901 0.0
H722 H 0.49961 0.36148 0.09247 0.0
C723 C 0.55359 0.36704 0.15962 0.0
C724 C 0.59332 0.30931 0.28896 0.0
C725 C 0.59969 0.28719 0.31029 0.0
H726 H 0.55992 0.32253 0.25336 0.0
C727 C 0.57539 0.26186 0.3135 0.0
H728 H 0.61146 0.32915 0.28601 0.0
C729 C 0.54582 0.25806 0.29477 0.0
C730 C 0.53994 0.27951 0.27247 0.0
H731 H 0.57945 0.24446 0.32983 0.0
H732 H 0.52792 0.23784 0.29715 0.0
C733 C 0.56375 0.30551 0.27024 0.0
C734 C 0.44504 0.19387 0.0599 0.0
C735 C 0.46449 0.17172 0.06417 0.0
H736 H 0.4274 0.23169 0.08144 0.0
C737 C 0.47999 0.16988 0.09521 0.0
H738 H 0.43268 0.19586 0.03633 0.0
C739 C 0.47659 0.19027 0.12129 0.0
C740 C 0.45799 0.21311 0.11667 0.0
H741 H 0.49498 0.15294 0.09928 0.0
H742 H 0.48934 0.18876 0.14479 0.0
C743 C 0.44199 0.21444 0.08578 0.0
C744 C 0.33892 0.4023 0.77052 0.0
C745 C 0.31428 0.39706 0.7907 0.0
H746 H 0.38006 0.43332 0.75889 0.0
C747 C 0.31111 0.42084 0.81359 0.0
H748 H 0.34192 0.38447 0.75258 0.0
C749 C 0.33272 0.44881 0.81705 0.0
C750 C 0.35821 0.45363 0.79788 0.0
H751 H 0.29219 0.41769 0.82931 0.0
H752 H 0.32995 0.4663 0.83548 0.0
C753 C 0.36077 0.43028 0.77417 0.0
C754 C 0.36493 0.65958 0.80741 0.0
C755 C 0.36597 0.67785 0.83658 0.0
H756 H 0.37449 0.61767 0.78481 0.0
C757 C 0.37666 0.66711 0.86598 0.0
H758 H 0.35698 0.66753 0.78441 0.0
C759 C 0.3857 0.63831 0.86628 0.0
C760 C 0.38533 0.62032 0.83708 0.0
H761 H 0.37765 0.68082 0.88877 0.0
H762 H 0.39359 0.63037 0.88931 0.0
C763 C 0.3751 0.63124 0.8076 0.0
C764 C 0.80996 0.53855 0.44595 0.0
C765 C 0.8388 0.55584 0.46155 0.0
H766 H 0.77251 0.4995 0.44632 0.0
C767 C 0.85197 0.54642 0.49075 0.0
H768 H 0.79914 0.54523 0.42347 0.0
C769 C 0.83677 0.51995 0.50383 0.0
C770 C 0.80795 0.50259 0.48809 0.0
H771 H 0.87422 0.55927 0.50332 0.0
H772 H 0.8476 0.5131 0.5262 0.0
C773 C 0.79465 0.51233 0.45913 0.0
C774 C 0.67279 0.9408 0.87481 0.0
C775 C 0.66933 0.92065 0.84659 0.0
H776 H 0.66496 0.98359 0.89632 0.0
C777 C 0.65408 0.92871 0.81771 0.0
H778 H 0.68438 0.93531 0.89748 0.0
C779 C 0.64263 0.95643 0.81712 0.0
C780 C 0.64647 0.9767 0.84532 0.0
H781 H 0.65092 0.91362 0.79558 0.0
H782 H 0.63117 0.96214 0.79448 0.0
C783 C 0.66161 0.96852 0.87415 0.0
C784 C 0.64239 0.52993 0.0426 0.0
C785 C 0.65563 0.5054 0.03024 0.0
H786 H 0.64181 0.57827 0.04343 0.0
C787 C 0.67612 0.51043 0.00589 0.0
H788 H 0.62694 0.52676 0.06178 0.0
C789 C 0.68445 0.53981 0.99516 0.0
C790 C 0.67298 0.56492 0.00907 0.0
H791 H 0.68647 0.49181 0.99585 0.0
H792 H 0.70147 0.54312 0.9774 0.0
C793 C 0.65099 0.55945 0.03212 0.0
C794 C 0.23577 0.65097 0.30952 0.0
C795 C 0.23626 0.66469 0.27987 0.0
H796 H 0.20935 0.61991 0.339 0.0
C797 C 0.2095 0.65675 0.25654 0.0
H798 H 0.25603 0.65656 0.32802 0.0
C799 C 0.18275 0.63564 0.26282 0.0
C800 C 0.18215 0.62208 0.29259 0.0
H801 H 0.20916 0.66686 0.23343 0.0
H802 H 0.16245 0.63012 0.24436 0.0
C803 C 0.209 0.62993 0.31584 0.0
C804 C 0.82288 0.58985 0.09607 0.0
C805 C 0.8361 0.56615 0.08175 0.0
H806 H 0.79855 0.62736 0.08845 0.0
C807 C 0.83856 0.56494 0.04817 0.0
H808 H 0.82104 0.59168 0.12195 0.0
C809 C 0.82576 0.58552 0.02894 0.0
C810 C 0.81031 0.60769 0.04294 0.0
H811 H 0.84896 0.54717 0.03646 0.0
H812 H 0.82634 0.58282 0.00288 0.0
C813 C 0.81017 0.61045 0.07686 0.0
C814 C 0.13279 0.97942 0.06411 0.0
C815 C 0.10587 0.97994 0.04206 0.0
H816 H 0.17682 0.96321 0.07299 0.0
C817 C 0.10211 0.96253 0.01195 0.0
H818 H 0.13621 0.99241 0.0876 0.0
C819 C 0.12552 0.94613 0.00346 0.0
C820 C 0.15285 0.94625 0.02515 0.0
H821 H 0.08159 0.9624 0.99448 0.0
H822 H 0.12251 0.93384 0.97961 0.0
C823 C 0.15591 0.96249 0.05586 0.0
loop_
_geom_bond_atom_site_label_1
_geom_bond_atom_site_label_2
_geom_bond_distance
_geom_bond_site_symmetry_2
_ccdc_geom_bond_type
O0 Cd1 2.300 . S
O0 C7 1.275 . S
Cd1 O0 2.300 . S
Cd1 O9 2.381 . S
Cd1 O10 2.378 . S
O2 Cd3 2.385 . S
O2 C7 1.255 . S
Cd3 O2 2.385 . S
Cd3 O4 2.317 . S
O4 Cd3 2.317 . S
O4 C5 1.232 . S
C5 O4 1.232 . S
C5 O6 1.218 . S
O6 C5 1.218 . S
C7 O0 1.275 . S
C7 O2 1.255 . S
C8 O9 1.258 . S
C8 O10 1.256 . S
O9 Cd1 2.381 . S
O9 C8 1.258 . S
O10 Cd1 2.378 . S
O10 C8 1.256 . S
O11 Cd12 2.300 . S
O11 C18 1.275 . S
Cd12 O11 2.300 . S
Cd12 O20 2.381 . S
Cd12 O21 2.378 . S
O13 Cd14 2.385 . S
O13 C18 1.255 . S
Cd14 O13 2.385 . S
Cd14 O15 2.317 . S
O15 Cd14 2.317 . S
O15 C16 1.232 . S
C16 O15 1.232 . S
C16 O17 1.218 . S
O17 C16 1.218 . S
C18 O11 1.275 . S
C18 O13 1.255 . S
C19 O20 1.258 . S
C19 O21 1.256 . S
O20 Cd12 2.381 . S
O20 C19 1.258 . S
O21 Cd12 2.378 . S
O21 C19 1.256 . S
O22 Cd23 2.300 . S
O22 C29 1.275 . S
Cd23 O22 2.300 . S
Cd23 O31 2.381 . S
Cd23 O32 2.378 . S
O24 Cd25 2.385 . S
O24 C29 1.255 . S
Cd25 O24 2.385 . S
Cd25 O26 2.317 . S
O26 Cd25 2.317 . S
O26 C27 1.232 . S
C27 O26 1.232 . S
C27 O28 1.218 . S
O28 C27 1.218 . S
C29 O22 1.275 . S
C29 O24 1.255 . S
C30 O31 1.258 . S
C30 O32 1.256 . S
O31 Cd23 2.381 . S
O31 C30 1.258 . S
O32 Cd23 2.378 . S
O32 C30 1.256 . S
O33 Cd34 2.300 . S
O33 C40 1.275 . S
Cd34 O33 2.300 . S
Cd34 O42 2.381 . S
Cd34 O43 2.378 . S
O35 Cd36 2.385 . S
O35 C40 1.255 . S
Cd36 O35 2.385 . S
Cd36 O37 2.317 . S
O37 Cd36 2.317 . S
O37 C38 1.232 . S
C38 O37 1.232 . S
C38 O39 1.218 . S
O39 C38 1.218 . S
C40 O33 1.275 . S
C40 O35 1.255 . S
C41 O42 1.258 . S
C41 O43 1.256 . S
O42 Cd34 2.381 . S
O42 C41 1.258 . S
O43 Cd34 2.378 . S
O43 C41 1.256 . S
O44 Cd45 2.300 . S
O44 C51 1.275 1_565 S
Cd45 O44 2.300 . S
Cd45 O53 2.381 . S
Cd45 O54 2.378 . S
O46 Cd47 2.385 . S
O46 C51 1.255 . S
Cd47 O46 2.385 . S
Cd47 O48 2.317 1_545 S
O48 Cd47 2.317 1_565 S
O48 C49 1.232 1_565 S
C49 O48 1.232 1_545 S
C49 O50 1.218 . S
O50 C49 1.218 . S
C51 O44 1.275 1_545 S
C51 O46 1.255 . S
C52 O53 1.258 . S
C52 O54 1.256 . S
O53 Cd45 2.381 . S
O53 C52 1.258 . S
O54 Cd45 2.378 . S
O54 C52 1.256 . S
O55 Cd56 2.300 . S
O55 C62 1.275 . S
Cd56 O55 2.300 . S
Cd56 O64 2.381 . S
Cd56 O65 2.378 . S
O57 Cd58 2.385 . S
O57 C62 1.255 . S
Cd58 O57 2.385 . S
Cd58 O59 2.317 . S
O59 Cd58 2.317 . S
O59 C60 1.232 . S
C60 O59 1.232 . S
C60 O61 1.218 . S
O61 C60 1.218 . S
C62 O55 1.275 . S
C62 O57 1.255 . S
C63 O64 1.258 . S
C63 O65 1.256 . S
O64 Cd56 2.381 . S
O64 C63 1.258 . S
O65 Cd56 2.378 . S
O65 C63 1.256 . S
O66 Cd67 2.300 . S
O66 C73 1.275 . S
Cd67 O66 2.300 . S
Cd67 O75 2.381 . S
Cd67 O76 2.378 . S
O68 Cd69 2.385 . S
O68 C73 1.255 . S
Cd69 O68 2.385 . S
Cd69 O70 2.317 . S
O70 Cd69 2.317 . S
O70 C71 1.232 . S
C71 O70 1.232 . S
C71 O72 1.218 1_655 S
O72 C71 1.218 1_455 S
C73 O66 1.275 . S
C73 O68 1.255 . S
C74 O75 1.258 . S
C74 O76 1.256 . S
O75 Cd67 2.381 . S
O75 C74 1.258 . S
O76 Cd67 2.378 . S
O76 C74 1.256 . S
O77 Cd78 2.300 . S
O77 C84 1.275 . S
Cd78 O77 2.300 . S
Cd78 O86 2.381 . S
Cd78 O87 2.378 . S
O79 Cd80 2.385 . S
O79 C84 1.255 . S
Cd80 O79 2.385 . S
Cd80 O81 2.317 . S
O81 Cd80 2.317 . S
O81 C82 1.232 . S
C82 O81 1.232 . S
C82 O83 1.218 . S
O83 C82 1.218 . S
C84 O77 1.275 . S
C84 O79 1.255 . S
C85 O86 1.258 . S
C85 O87 1.256 . S
O86 Cd78 2.381 . S
O86 C85 1.258 . S
O87 Cd78 2.378 . S
O87 C85 1.256 . S
O88 Cd89 2.300 . S
O88 C95 1.275 . S
Cd89 O88 2.300 . S
Cd89 O97 2.381 . S
Cd89 O98 2.378 . S
O90 Cd91 2.385 . S
O90 C95 1.255 . S
Cd91 O90 2.385 . S
Cd91 O92 2.317 . S
O92 Cd91 2.317 . S
O92 C93 1.232 . S
C93 O92 1.232 . S
C93 O94 1.218 . S
O94 C93 1.218 . S
C95 O88 1.275 . S
C95 O90 1.255 . S
C96 O97 1.258 . S
C96 O98 1.256 . S
O97 Cd89 2.381 . S
O97 C96 1.258 . S
O98 Cd89 2.378 . S
O98 C96 1.256 . S
O99 Cd100 2.300 . S
O99 C106 1.275 . S
Cd100 O99 2.300 . S
Cd100 O108 2.381 . S
Cd100 O109 2.378 . S
O101 Cd102 2.385 . S
O101 C106 1.255 . S
Cd102 O101 2.385 . S
Cd102 O103 2.317 . S
O103 Cd102 2.317 . S
O103 C104 1.232 . S
C104 O103 1.232 . S
C104 O105 1.218 . S
O105 C104 1.218 . S
C106 O99 1.275 . S
C106 O101 1.255 . S
C107 O108 1.263 . S
C107 O109 1.257 . S
O108 Cd100 2.381 . S
O108 C107 1.263 . S
O109 Cd100 2.378 . S
O109 C107 1.257 . S
O110 Cd111 2.300 . S
O110 C117 1.275 . S
Cd111 O110 2.300 . S
Cd111 O119 2.381 . S
Cd111 O120 2.378 . S
O112 Cd113 2.385 . S
O112 C117 1.255 . S
Cd113 O112 2.385 . S
Cd113 O114 2.317 . S
O114 Cd113 2.317 . S
O114 C115 1.232 . S
C115 O114 1.232 . S
C115 O116 1.218 . S
O116 C115 1.218 . S
C117 O110 1.275 . S
C117 O112 1.255 . S
C118 O119 1.258 . S
C118 O120 1.256 . S
O119 Cd111 2.381 . S
O119 C118 1.258 . S
O120 Cd111 2.378 . S
O120 C118 1.256 . S
O121 Cd122 2.300 . S
O121 C128 1.275 . S
Cd122 O121 2.300 . S
Cd122 O130 2.381 . S
Cd122 O131 2.378 . S
O123 Cd124 2.385 . S
O123 C128 1.255 . S
Cd124 O123 2.385 . S
Cd124 O125 2.317 . S
O125 Cd124 2.317 . S
O125 C126 1.232 . S
C126 O125 1.232 . S
C126 O127 1.218 . S
O127 C126 1.218 . S
C128 O121 1.275 . S
C128 O123 1.255 . S
C129 O130 1.258 . S
C129 O131 1.256 . S
O130 Cd122 2.381 . S
O130 C129 1.258 . S
O131 Cd122 2.378 . S
O131 C129 1.256 . S
O132 Cd133 2.300 . S
O132 C139 1.275 . S
Cd133 O132 2.300 . S
Cd133 O141 2.381 . S
Cd133 O142 2.378 . S
O134 Cd135 2.385 . S
O134 C139 1.255 . S
Cd135 O134 2.385 . S
Cd135 O136 2.317 . S
O136 Cd135 2.317 . S
O136 C137 1.232 . S
C137 O136 1.232 . S
C137 O138 1.218 . S
O138 C137 1.218 . S
C139 O132 1.275 . S
C139 O134 1.255 . S
C140 O141 1.258 . S
C140 O142 1.256 . S
O141 Cd133 2.381 . S
O141 C140 1.258 . S
O142 Cd133 2.378 . S
O142 C140 1.256 . S
O143 Cd144 2.300 . S
O143 C150 1.275 . S
Cd144 O143 2.300 . S
Cd144 O152 2.381 . S
Cd144 O153 2.378 . S
O145 Cd146 2.385 . S
O145 C150 1.255 . S
Cd146 O145 2.385 . S
Cd146 O147 2.317 . S
O147 Cd146 2.317 . S
O147 C148 1.232 . S
C148 O147 1.232 . S
C148 O149 1.218 . S
O149 C148 1.218 . S
C150 O143 1.275 . S
C150 O145 1.255 . S
C151 O152 1.258 . S
C151 O153 1.256 . S
O152 Cd144 2.381 . S
O152 C151 1.258 . S
O153 Cd144 2.378 . S
O153 C151 1.256 . S
O154 Cd155 2.300 . S
O154 C161 1.275 . S
Cd155 O154 2.300 . S
Cd155 O163 2.381 . S
Cd155 O164 2.378 . S
O156 Cd157 2.385 . S
O156 C161 1.255 . S
Cd157 O156 2.385 . S
Cd157 O158 2.317 . S
O158 Cd157 2.317 . S
O158 C159 1.232 . S
C159 O158 1.232 . S
C159 O160 1.218 . S
O160 C159 1.218 . S
C161 O154 1.275 . S
C161 O156 1.255 . S
C162 O163 1.258 . S
C162 O164 1.256 . S
O163 Cd155 2.381 . S
O163 C162 1.258 . S
O164 Cd155 2.378 . S
O164 C162 1.256 . S
O165 Cd166 2.300 . S
O165 C172 1.275 . S
Cd166 O165 2.300 . S
Cd166 O174 2.381 . S
Cd166 O175 2.378 . S
O167 Cd168 2.385 1_556 S
O167 C172 1.255 . S
Cd168 O167 2.385 1_554 S
Cd168 O169 2.317 . S
O169 Cd168 2.317 . S
O169 C170 1.231 . S
C170 O169 1.231 . S
C170 O171 1.219 1_554 S
O171 C170 1.219 1_556 S
C172 O165 1.275 . S
C172 O167 1.255 . S
C173 O174 1.258 . S
C173 O175 1.256 . S
O174 Cd166 2.381 . S
O174 C173 1.258 . S
O175 Cd166 2.378 . S
O175 C173 1.256 . S
O176 Cd177 2.223 . S
O176 C184 1.315 . S
Cd177 O176 2.223 . S
Cd177 O180 2.297 . S
Cd177 O181 2.439 . S
Cd177 O187 2.240 . S
Cd178 O179 2.240 . S
Cd178 O186 2.223 . S
Cd178 O188 2.297 . S
Cd178 O189 2.439 . S
O179 Cd178 2.240 . S
O179 C184 1.279 . S
O180 Cd177 2.297 . S
O180 C182 1.247 . S
O181 Cd177 2.439 . S
O181 C182 1.208 . S
C182 O180 1.247 . S
C182 O181 1.208 . S
C183 O188 1.247 . S
C183 O189 1.208 . S
C184 O176 1.315 . S
C184 O179 1.279 . S
C185 O186 1.315 . S
C185 O187 1.279 . S
O186 Cd178 2.223 . S
O186 C185 1.315 . S
O187 Cd177 2.240 . S
O187 C185 1.279 . S
O188 Cd178 2.297 . S
O188 C183 1.247 . S
O189 Cd178 2.439 . S
O189 C183 1.208 . S
O190 Cd191 2.223 . S
O190 C198 1.315 . S
Cd191 O190 2.223 . S
Cd191 O194 2.297 . S
Cd191 O195 2.439 . S
Cd191 O201 2.240 . S
Cd192 O193 2.240 . S
Cd192 O200 2.223 . S
Cd192 O202 2.297 . S
Cd192 O203 2.439 . S
O193 Cd192 2.240 . S
O193 C198 1.279 . S
O194 Cd191 2.297 . S
O194 C196 1.247 . S
O195 Cd191 2.439 . S
O195 C196 1.208 . S
C196 O194 1.247 . S
C196 O195 1.208 . S
C197 O202 1.247 . S
C197 O203 1.208 . S
C198 O190 1.315 . S
C198 O193 1.279 . S
C199 O200 1.315 . S
C199 O201 1.279 . S
O200 Cd192 2.223 . S
O200 C199 1.315 . S
O201 Cd191 2.240 . S
O201 C199 1.279 . S
O202 Cd192 2.297 . S
O202 C197 1.247 . S
O203 Cd192 2.439 . S
O203 C197 1.208 . S
O204 Cd205 2.223 1_556 S
O204 C212 1.315 . S
Cd205 O204 2.223 1_554 S
Cd205 O208 2.297 . S
Cd205 O209 2.439 . S
Cd205 O215 2.240 . S
Cd206 O207 2.240 . S
Cd206 O214 2.223 . S
Cd206 O216 2.297 1_556 S
Cd206 O217 2.439 1_556 S
O207 Cd206 2.240 . S
O207 C212 1.279 . S
O208 Cd205 2.297 . S
O208 C210 1.247 . S
O209 Cd205 2.439 . S
O209 C210 1.208 . S
C210 O208 1.247 . S
C210 O209 1.208 . S
C211 O216 1.247 . S
C211 O217 1.208 . S
C212 O204 1.315 . S
C212 O207 1.279 . S
C213 O214 1.315 . S
C213 O215 1.279 1_556 S
O214 Cd206 2.223 . S
O214 C213 1.315 . S
O215 Cd205 2.240 . S
O215 C213 1.279 1_554 S
O216 Cd206 2.297 1_554 S
O216 C211 1.247 . S
O217 Cd206 2.439 1_554 S
O217 C211 1.208 . S
O218 Cd219 2.223 . S
O218 C226 1.315 . S
Cd219 O218 2.223 . S
Cd219 O222 2.297 . S
Cd219 O223 2.439 . S
Cd219 O229 2.240 . S
Cd220 O221 2.240 . S
Cd220 O228 2.223 . S
Cd220 O230 2.297 . S
Cd220 O231 2.439 . S
O221 Cd220 2.240 . S
O221 C226 1.279 . S
O222 Cd219 2.297 . S
O222 C224 1.247 . S
O223 Cd219 2.439 . S
O223 C224 1.208 . S
C224 O222 1.247 . S
C224 O223 1.208 . S
C225 O230 1.247 . S
C225 O231 1.208 . S
C226 O218 1.315 . S
C226 O221 1.279 . S
C227 O228 1.315 . S
C227 O229 1.279 . S
O228 Cd220 2.223 . S
O228 C227 1.315 . S
O229 Cd219 2.240 . S
O229 C227 1.279 . S
O230 Cd220 2.297 . S
O230 C225 1.247 . S
O231 Cd220 2.439 . S
O231 C225 1.208 . S
O232 Cd233 2.223 . S
O232 C240 1.315 . S
Cd233 O232 2.223 . S
Cd233 O236 2.297 . S
Cd233 O237 2.439 . S
Cd233 O243 2.240 . S
Cd234 O235 2.240 . S
Cd234 O242 2.223 . S
Cd234 O244 2.297 . S
Cd234 O245 2.439 . S
O235 Cd234 2.240 . S
O235 C240 1.279 . S
O236 Cd233 2.297 . S
O236 C238 1.247 . S
O237 Cd233 2.439 . S
O237 C238 1.208 . S
C238 O236 1.247 . S
C238 O237 1.208 . S
C239 O244 1.247 . S
C239 O245 1.208 . S
C240 O232 1.315 . S
C240 O235 1.279 . S
C241 O242 1.315 . S
C241 O243 1.279 . S
O242 Cd234 2.223 . S
O242 C241 1.315 . S
O243 Cd233 2.240 . S
O243 C241 1.279 . S
O244 Cd234 2.297 . S
O244 C239 1.247 . S
O245 Cd234 2.439 . S
O245 C239 1.208 . S
O246 Cd247 2.223 . S
O246 C254 1.315 . S
Cd247 O246 2.223 . S
Cd247 O250 2.297 . S
Cd247 O251 2.439 . S
Cd247 O257 2.240 . S
Cd248 O249 2.240 . S
Cd248 O256 2.223 . S
Cd248 O258 2.297 . S
Cd248 O259 2.439 . S
O249 Cd248 2.240 . S
O249 C254 1.279 . S
O250 Cd247 2.297 . S
O250 C252 1.247 . S
O251 Cd247 2.439 . S
O251 C252 1.208 . S
C252 O250 1.247 . S
C252 O251 1.208 . S
C253 O258 1.247 . S
C253 O259 1.208 . S
C254 O246 1.315 . S
C254 O249 1.279 . S
C255 O256 1.315 . S
C255 O257 1.279 . S
O256 Cd248 2.223 . S
O256 C255 1.315 . S
O257 Cd247 2.240 . S
O257 C255 1.279 . S
O258 Cd248 2.297 . S
O258 C253 1.247 . S
O259 Cd248 2.439 . S
O259 C253 1.208 . S
O260 Cd261 2.223 . S
O260 C268 1.315 . S
Cd261 O260 2.223 . S
Cd261 O264 2.297 . S
Cd261 O265 2.439 . S
Cd261 O271 2.240 . S
Cd262 O263 2.240 . S
Cd262 O270 2.223 . S
Cd262 O272 2.297 . S
Cd262 O273 2.439 . S
O263 Cd262 2.240 . S
O263 C268 1.279 . S
O264 Cd261 2.297 . S
O264 C266 1.247 . S
O265 Cd261 2.439 . S
O265 C266 1.208 . S
C266 O264 1.247 . S
C266 O265 1.208 . S
C267 O272 1.247 . S
C267 O273 1.208 . S
C268 O260 1.315 . S
C268 O263 1.279 . S
C269 O270 1.315 . S
C269 O271 1.279 . S
O270 Cd262 2.223 . S
O270 C269 1.315 . S
O271 Cd261 2.240 . S
O271 C269 1.279 . S
O272 Cd262 2.297 . S
O272 C267 1.247 . S
O273 Cd262 2.439 . S
O273 C267 1.208 . S
O274 Cd275 2.223 1_545 S
O274 C282 1.315 . S
Cd275 O274 2.223 1_565 S
Cd275 O278 2.297 . S
Cd275 O279 2.439 . S
Cd275 O285 2.240 1_565 S
Cd276 O277 2.240 . S
Cd276 O284 2.223 . S
Cd276 O286 2.297 . S
Cd276 O287 2.439 1_545 S
O277 Cd276 2.240 . S
O277 C282 1.279 . S
O278 Cd275 2.297 . S
O278 C280 1.247 . S
O279 Cd275 2.439 . S
O279 C280 1.208 . S
C280 O278 1.247 . S
C280 O279 1.208 . S
C281 O286 1.247 1_565 S
C281 O287 1.208 . S
C282 O274 1.315 . S
C282 O277 1.279 . S
C283 O284 1.315 . S
C283 O285 1.279 . S
O284 Cd276 2.223 . S
O284 C283 1.315 . S
O285 Cd275 2.240 1_545 S
O285 C283 1.279 . S
O286 Cd276 2.297 . S
O286 C281 1.247 1_545 S
O287 Cd276 2.439 1_565 S
O287 C281 1.208 . S
O288 Cd289 2.223 1_554 S
O288 C296 1.315 . S
Cd289 O288 2.223 1_556 S
Cd289 O292 2.297 1_656 S
Cd289 O293 2.439 1_655 S
Cd289 O299 2.240 . S
Cd290 O291 2.240 . S
Cd290 O298 2.223 1_455 S
Cd290 O300 2.297 . S
Cd290 O301 2.439 . S
O291 Cd290 2.240 . S
O291 C296 1.279 1_456 S
O292 Cd289 2.297 1_454 S
O292 C294 1.247 . S
O293 Cd289 2.439 1_455 S
O293 C294 1.208 1_556 S
C294 O292 1.247 . S
C294 O293 1.208 1_554 S
C295 O300 1.247 . S
C295 O301 1.208 . S
C296 O288 1.315 . S
C296 O291 1.279 1_654 S
C297 O298 1.315 . S
C297 O299 1.279 . S
O298 Cd290 2.223 1_655 S
O298 C297 1.315 . S
O299 Cd289 2.240 . S
O299 C297 1.279 . S
O300 Cd290 2.297 . S
O300 C295 1.247 . S
O301 Cd290 2.439 . S
O301 C295 1.208 . S
O302 Cd303 2.223 . S
O302 C310 1.315 . S
Cd303 O302 2.223 . S
Cd303 O306 2.297 . S
Cd303 O307 2.439 . S
Cd303 O313 2.240 . S
Cd304 O305 2.240 . S
Cd304 O312 2.223 . S
Cd304 O314 2.297 . S
Cd304 O315 2.439 . S
O305 Cd304 2.240 . S
O305 C310 1.279 . S
O306 Cd303 2.297 . S
O306 C308 1.247 . S
O307 Cd303 2.439 . S
O307 C308 1.208 . S
C308 O306 1.247 . S
C308 O307 1.208 . S
C309 O314 1.247 . S
C309 O315 1.208 . S
C310 O302 1.315 . S
C310 O305 1.279 . S
C311 O312 1.315 . S
C311 O313 1.279 . S
O312 Cd304 2.223 . S
O312 C311 1.315 . S
O313 Cd303 2.240 . S
O313 C311 1.279 . S
O314 Cd304 2.297 . S
O314 C309 1.247 . S
O315 Cd304 2.439 . S
O315 C309 1.208 . S
O316 Cd317 2.223 1_655 S
O316 C324 1.315 . S
Cd317 O316 2.223 1_455 S
Cd317 O320 2.297 . S
Cd317 O321 2.439 . S
Cd317 O327 2.240 . S
Cd318 O319 2.240 . S
Cd318 O326 2.223 . S
Cd318 O328 2.297 1_655 S
Cd318 O329 2.439 1_655 S
O319 Cd318 2.240 . S
O319 C324 1.279 . S
O320 Cd317 2.297 . S
O320 C322 1.247 . S
O321 Cd317 2.439 . S
O321 C322 1.208 . S
C322 O320 1.247 . S
C322 O321 1.208 . S
C323 O328 1.247 . S
C323 O329 1.208 . S
C324 O316 1.315 . S
C324 O319 1.279 . S
C325 O326 1.315 . S
C325 O327 1.279 1_655 S
O326 Cd318 2.223 . S
O326 C325 1.315 . S
O327 Cd317 2.240 . S
O327 C325 1.279 1_455 S
O328 Cd318 2.297 1_455 S
O328 C323 1.247 . S
O329 Cd318 2.439 1_455 S
O329 C323 1.208 . S
O330 Cd331 2.223 . S
O330 C338 1.315 . S
Cd331 O330 2.223 . S
Cd331 O334 2.297 . S
Cd331 O335 2.439 . S
Cd331 O341 2.240 . S
Cd332 O333 2.240 . S
Cd332 O340 2.223 . S
Cd332 O342 2.297 . S
Cd332 O343 2.439 . S
O333 Cd332 2.240 . S
O333 C338 1.279 . S
O334 Cd331 2.297 . S
O334 C336 1.247 . S
O335 Cd331 2.439 . S
O335 C336 1.208 . S
C336 O334 1.247 . S
C336 O335 1.208 . S
C337 O342 1.247 . S
C337 O343 1.208 . S
C338 O330 1.315 . S
C338 O333 1.279 . S
C339 O340 1.315 . S
C339 O341 1.279 . S
O340 Cd332 2.223 . S
O340 C339 1.315 . S
O341 Cd331 2.240 . S
O341 C339 1.279 . S
O342 Cd332 2.297 . S
O342 C337 1.247 . S
O343 Cd332 2.439 . S
O343 C337 1.208 . S
C344 C345 1.387 . S
C344 H348 0.950 . S
C344 C353 1.390 . S
C345 C344 1.387 . S
C345 C347 1.387 . S
H346 C353 0.950 . S
C347 C345 1.387 . S
C347 C349 1.390 . S
C347 H351 0.950 . S
H348 C344 0.950 . S
C349 C347 1.390 . S
C349 C350 1.387 . S
C349 H352 0.918 1_556 S
C350 C349 1.387 . S
C350 C353 1.387 . S
H351 C347 0.950 . S
H352 C349 0.918 1_554 S
C353 C344 1.390 . S
C353 H346 0.950 . S
C353 C350 1.387 . S
C354 C355 1.387 1_455 S
C354 H358 0.950 . S
C354 C363 1.390 . S
C355 C354 1.387 1_655 S
C355 C357 1.387 1_655 S
H356 C363 0.950 . S
C357 C355 1.387 1_455 S
C357 C359 1.390 . S
C357 H361 0.950 1_455 S
H358 C354 0.950 . S
C359 C357 1.390 . S
C359 C360 1.387 . S
C359 H362 0.950 . S
C360 C359 1.387 . S
C360 C363 1.387 . S
H361 C357 0.950 1_655 S
H362 C359 0.950 . S
C363 C354 1.390 . S
C363 H356 0.950 . S
C363 C360 1.387 . S
C364 C365 1.387 . S
C364 H368 0.950 . S
C364 C373 1.390 . S
C365 C364 1.387 . S
C365 C367 1.387 . S
H366 C373 0.950 . S
C367 C365 1.387 . S
C367 C369 1.390 . S
C367 H371 0.950 . S
H368 C364 0.950 . S
C369 C367 1.390 . S
C369 C370 1.387 . S
C369 H372 0.950 . S
C370 C369 1.387 . S
C370 C373 1.387 . S
H371 C367 0.950 . S
H372 C369 0.950 . S
C373 C364 1.390 . S
C373 H366 0.950 . S
C373 C370 1.387 . S
C374 C375 1.387 1_655 S
C374 H378 0.950 1_655 S
C374 C383 1.390 . S
C375 C374 1.387 1_455 S
C375 C377 1.387 1_455 S
H376 C383 0.950 . S
C377 C375 1.387 1_655 S
C377 C379 1.390 . S
C377 H381 0.950 1_655 S
H378 C374 0.950 1_455 S
C379 C377 1.390 . S
C379 C380 1.387 . S
C379 H382 0.950 . S
C380 C379 1.387 . S
C380 C383 1.387 . S
H381 C377 0.950 1_455 S
H382 C379 0.950 . S
C383 C374 1.390 . S
C383 H376 0.950 . S
C383 C380 1.387 . S
C384 C385 1.387 . S
C384 H388 0.950 . S
C384 C393 1.390 . S
C385 C384 1.387 . S
C385 C387 1.387 . S
H386 C393 0.950 . S
C387 C385 1.387 . S
C387 C389 1.390 . S
C387 H391 0.950 . S
H388 C384 0.950 . S
C389 C387 1.390 . S
C389 C390 1.387 . S
C389 H392 0.950 . S
C390 C389 1.387 . S
C390 C393 1.387 . S
H391 C387 0.950 . S
H392 C389 0.950 . S
C393 C384 1.390 . S
C393 H386 0.950 . S
C393 C390 1.387 . S
C394 C395 1.387 . S
C394 H398 0.950 . S
C394 C403 1.390 . S
C395 C394 1.387 . S
C395 C397 1.387 . S
H396 C403 0.950 . S
C397 C395 1.387 . S
C397 C399 1.390 . S
C397 H401 0.950 . S
H398 C394 0.950 . S
C399 C397 1.390 . S
C399 C400 1.387 . S
C399 H402 0.950 . S
C400 C399 1.387 . S
C400 C403 1.387 . S
H401 C397 0.950 . S
H402 C399 0.950 . S
C403 C394 1.390 . S
C403 H396 0.950 . S
C403 C400 1.387 . S
C404 C405 1.387 . S
C404 H408 0.950 . S
C404 C413 1.390 . S
C405 C404 1.387 . S
C405 C407 1.387 . S
H406 C413 0.950 . S
C407 C405 1.387 . S
C407 C409 1.390 . S
C407 H411 0.950 . S
H408 C404 0.950 . S
C409 C407 1.390 . S
C409 C410 1.387 . S
C409 H412 0.950 . S
C410 C409 1.387 . S
C410 C413 1.387 . S
H411 C407 0.950 . S
H412 C409 0.950 . S
C413 C404 1.390 . S
C413 H406 0.950 . S
C413 C410 1.387 . S
C414 C415 1.387 . S
C414 H418 0.950 . S
C414 C423 1.390 . S
C415 C414 1.387 . S
C415 C417 1.387 . S
H416 C423 0.950 . S
C417 C415 1.387 . S
C417 C419 1.390 . S
C417 H421 0.950 . S
H418 C414 0.950 . S
C419 C417 1.390 . S
C419 C420 1.387 . S
C419 H422 0.950 1_565 S
C420 C419 1.387 . S
C420 C423 1.387 . S
H421 C417 0.950 . S
H422 C419 0.950 1_545 S
C423 C414 1.390 . S
C423 H416 0.950 . S
C423 C420 1.387 . S
C424 C425 1.387 . S
C424 H428 0.950 . S
C424 C433 1.390 . S
C425 C424 1.387 . S
C425 C427 1.387 . S
H426 C433 0.950 . S
C427 C425 1.387 . S
C427 C429 1.390 . S
C427 H431 0.950 . S
H428 C424 0.950 . S
C429 C427 1.390 . S
C429 C430 1.387 . S
C429 H432 0.950 . S
C430 C429 1.387 . S
C430 C433 1.387 . S
H431 C427 0.950 . S
H432 C429 0.950 . S
C433 C424 1.390 . S
C433 H426 0.950 . S
C433 C430 1.387 . S
C434 C435 1.387 . S
C434 H438 0.950 . S
C434 C443 1.390 . S
C435 C434 1.387 . S
C435 C437 1.387 . S
H436 C443 0.950 . S
C437 C435 1.387 . S
C437 C439 1.390 . S
C437 H441 0.950 . S
H438 C434 0.950 . S
C439 C437 1.390 . S
C439 C440 1.387 . S
C439 H442 0.950 . S
C440 C439 1.387 . S
C440 C443 1.387 . S
H441 C437 0.950 . S
H442 C439 0.950 . S
C443 C434 1.390 . S
C443 H436 0.950 . S
C443 C440 1.387 . S
C444 C445 1.387 . S
C444 H448 0.950 . S
C444 C453 1.390 . S
C445 C444 1.387 . S
C445 C447 1.387 . S
H446 C453 0.950 . S
C447 C445 1.387 . S
C447 C449 1.390 . S
C447 H451 0.950 . S
H448 C444 0.950 . S
C449 C447 1.390 . S
C449 C450 1.387 . S
C449 H452 0.950 . S
C450 C449 1.387 . S
C450 C453 1.387 . S
H451 C447 0.950 . S
H452 C449 0.950 . S
C453 C444 1.390 . S
C453 H446 0.950 . S
C453 C450 1.387 . S
C454 C455 1.387 . S
C454 H458 0.950 . S
C454 C463 1.390 . S
C455 C454 1.387 . S
C455 C457 1.387 . S
H456 C463 0.950 . S
C457 C455 1.387 . S
C457 C459 1.390 . S
C457 H461 0.950 . S
H458 C454 0.950 . S
C459 C457 1.390 . S
C459 C460 1.387 . S
C459 H462 0.950 . S
C460 C459 1.387 . S
C460 C463 1.387 . S
H461 C457 0.950 . S
H462 C459 0.950 . S
C463 C454 1.390 . S
C463 H456 0.950 . S
C463 C460 1.387 . S
C464 C465 1.387 . S
C464 H468 0.950 . S
C464 C473 1.390 . S
C465 C464 1.387 . S
C465 C467 1.387 . S
H466 C473 0.950 . S
C467 C465 1.387 . S
C467 C469 1.390 . S
C467 H471 0.950 . S
H468 C464 0.950 . S
C469 C467 1.390 . S
C469 C470 1.387 . S
C469 H472 0.950 . S
C470 C469 1.387 . S
C470 C473 1.387 . S
H471 C467 0.950 . S
H472 C469 0.950 . S
C473 C464 1.390 . S
C473 H466 0.950 . S
C473 C470 1.387 . S
C474 C475 1.387 . S
C474 H478 0.950 . S
C474 C483 1.390 . S
C475 C474 1.387 . S
C475 C477 1.387 . S
H476 C483 0.950 . S
C477 C475 1.387 . S
C477 C479 1.390 . S
C477 H481 0.950 . S
H478 C474 0.950 . S
C479 C477 1.390 . S
C479 C480 1.387 . S
C479 H482 0.950 . S
C480 C479 1.387 . S
C480 C483 1.387 . S
H481 C477 0.950 . S
H482 C479 0.950 . S
C483 C474 1.390 . S
C483 H476 0.950 . S
C483 C480 1.387 . S
C484 C485 1.387 . S
C484 H488 0.950 . S
C484 C493 1.390 . S
C485 C484 1.387 . S
C485 C487 1.387 . S
H486 C493 0.950 . S
C487 C485 1.387 . S
C487 C489 1.390 . S
C487 H491 0.950 . S
H488 C484 0.950 . S
C489 C487 1.390 . S
C489 C490 1.387 . S
C489 H492 0.950 . S
C490 C489 1.387 . S
C490 C493 1.387 . S
H491 C487 0.950 . S
H492 C489 0.950 . S
C493 C484 1.390 . S
C493 H486 0.950 . S
C493 C490 1.387 . S
C494 C495 1.359 1_455 S
C494 H498 0.983 . S
C494 C503 1.387 . S
C495 C494 1.359 1_655 S
C495 C497 1.387 . S
H496 C503 0.950 . S
C497 C495 1.387 . S
C497 C499 1.390 . S
C497 H501 0.950 . S
H498 C494 0.983 . S
C499 C497 1.390 . S
C499 C500 1.387 . S
C499 H502 0.950 . S
C500 C499 1.387 . S
C500 C503 1.387 1_655 S
H501 C497 0.950 . S
H502 C499 0.950 . S
C503 C494 1.387 . S
C503 H496 0.950 . S
C503 C500 1.387 1_455 S
C504 C505 1.387 . S
C504 H508 0.950 . S
C504 C513 1.390 . S
C505 C504 1.387 . S
C505 C507 1.387 . S
H506 C513 0.950 . S
C507 C505 1.387 . S
C507 C509 1.390 . S
C507 H511 0.950 . S
H508 C504 0.950 . S
C509 C507 1.390 . S
C509 C510 1.387 . S
C509 H512 0.950 . S
C510 C509 1.387 . S
C510 C513 1.387 . S
H511 C507 0.950 . S
H512 C509 0.950 . S
C513 C504 1.390 . S
C513 H506 0.950 . S
C513 C510 1.387 . S
C514 C515 1.387 . S
C514 H518 0.950 . S
C514 C523 1.390 . S
C515 C514 1.387 . S
C515 C517 1.387 . S
H516 C523 0.950 . S
C517 C515 1.387 . S
C517 C519 1.390 . S
C517 H521 0.950 . S
H518 C514 0.950 . S
C519 C517 1.390 . S
C519 C520 1.387 . S
C519 H522 0.950 . S
C520 C519 1.387 . S
C520 C523 1.387 . S
H521 C517 0.950 . S
H522 C519 0.950 . S
C523 C514 1.390 . S
C523 H516 0.950 . S
C523 C520 1.387 . S
C524 C525 1.387 1_565 S
C524 H528 0.950 . S
C524 C533 1.390 . S
C525 C524 1.387 1_545 S
C525 C527 1.387 1_556 S
H526 C533 0.950 . S
C527 C525 1.387 1_554 S
C527 C529 1.390 1_545 S
C527 H531 0.950 . S
H528 C524 0.950 . S
C529 C527 1.390 1_565 S
C529 C530 1.387 . S
C529 H532 0.950 1_565 S
C530 C529 1.387 . S
C530 C533 1.387 1_554 S
H531 C527 0.950 . S
H532 C529 0.950 1_545 S
C533 C524 1.390 . S
C533 H526 0.950 . S
C533 C530 1.387 1_556 S
C534 C535 1.387 . S
C534 H538 0.950 . S
C534 C543 1.390 . S
C535 C534 1.387 . S
C535 C537 1.387 . S
H536 C543 0.950 . S
C537 C535 1.387 . S
C537 C539 1.390 . S
C537 H541 0.950 . S
H538 C534 0.950 . S
C539 C537 1.390 . S
C539 C540 1.387 . S
C539 H542 0.950 . S
C540 C539 1.387 . S
C540 C543 1.387 . S
H541 C537 0.950 . S
H542 C539 0.950 . S
C543 C534 1.390 . S
C543 H536 0.950 . S
C543 C540 1.387 . S
C544 C545 1.387 . S
C544 H548 0.950 . S
C544 C553 1.390 . S
C545 C544 1.387 . S
C545 C547 1.387 . S
H546 C553 0.950 . S
C547 C545 1.387 . S
C547 C549 1.390 . S
C547 H551 0.950 . S
H548 C544 0.950 . S
C549 C547 1.390 . S
C549 C550 1.387 . S
C549 H552 0.950 . S
C550 C549 1.387 . S
C550 C553 1.387 . S
H551 C547 0.950 . S
H552 C549 0.950 . S
C553 C544 1.390 . S
C553 H546 0.950 . S
C553 C550 1.387 . S
C554 C555 1.387 . S
C554 H558 0.950 . S
C554 C563 1.390 . S
C555 C554 1.387 . S
C555 C557 1.387 . S
H556 C563 0.950 . S
C557 C555 1.387 . S
C557 C559 1.390 . S
C557 H561 0.950 . S
H558 C554 0.950 . S
C559 C557 1.390 . S
C559 C560 1.387 . S
C559 H562 0.950 . S
C560 C559 1.387 . S
C560 C563 1.387 . S
H561 C557 0.950 . S
H562 C559 0.950 . S
C563 C554 1.390 . S
C563 H556 0.950 . S
C563 C560 1.387 . S
C564 C565 1.387 . S
C564 H568 0.950 . S
C564 C573 1.390 . S
C565 C564 1.387 . S
C565 C567 1.387 . S
H566 C573 0.950 . S
C567 C565 1.387 . S
C567 C569 1.390 . S
C567 H571 0.950 . S
H568 C564 0.950 . S
C569 C567 1.390 . S
C569 C570 1.387 . S
C569 H572 0.950 . S
C570 C569 1.387 . S
C570 C573 1.387 . S
H571 C567 0.950 . S
H572 C569 0.950 . S
C573 C564 1.390 . S
C573 H566 0.950 . S
C573 C570 1.387 . S
C574 C575 1.387 . S
C574 H578 0.950 . S
C574 C583 1.390 . S
C575 C574 1.387 . S
C575 C577 1.387 . S
H576 C583 0.950 . S
C577 C575 1.387 . S
C577 C579 1.390 . S
C577 H581 0.950 . S
H578 C574 0.950 . S
C579 C577 1.390 . S
C579 C580 1.387 . S
C579 H582 0.950 . S
C580 C579 1.387 . S
C580 C583 1.387 . S
H581 C577 0.950 . S
H582 C579 0.950 . S
C583 C574 1.390 . S
C583 H576 0.950 . S
C583 C580 1.387 . S
C584 C585 1.387 . S
C584 H588 0.950 . S
C584 C593 1.390 . S
C585 C584 1.387 . S
C585 C587 1.387 . S
H586 C593 0.950 . S
C587 C585 1.387 . S
C587 C589 1.390 . S
C587 H591 0.950 . S
H588 C584 0.950 . S
C589 C587 1.390 . S
C589 C590 1.387 . S
C589 H592 0.950 . S
C590 C589 1.387 . S
C590 C593 1.387 . S
H591 C587 0.950 . S
H592 C589 0.950 . S
C593 C584 1.390 . S
C593 H586 0.950 . S
C593 C590 1.387 . S
C594 C595 1.387 . S
C594 H598 0.950 . S
C594 C603 1.390 . S
C595 C594 1.387 . S
C595 C597 1.387 . S
H596 C603 0.950 . S
C597 C595 1.387 . S
C597 C599 1.390 . S
C597 H601 0.950 . S
H598 C594 0.950 . S
C599 C597 1.390 . S
C599 C600 1.387 . S
C599 H602 0.950 . S
C600 C599 1.387 . S
C600 C603 1.387 . S
H601 C597 0.950 . S
H602 C599 0.950 . S
C603 C594 1.390 . S
C603 H596 0.950 . S
C603 C600 1.387 . S
C604 C605 1.387 . S
C604 H608 0.950 . S
C604 C613 1.390 . S
C605 C604 1.387 . S
C605 C607 1.387 . S
H606 C613 0.950 . S
C607 C605 1.387 . S
C607 C609 1.390 . S
C607 H611 0.950 . S
H608 C604 0.950 . S
C609 C607 1.390 . S
C609 C610 1.387 . S
C609 H612 0.950 . S
C610 C609 1.387 . S
C610 C613 1.387 . S
H611 C607 0.950 . S
H612 C609 0.950 . S
C613 C604 1.390 . S
C613 H606 0.950 . S
C613 C610 1.387 . S
C614 C615 1.387 . S
C614 H618 0.950 . S
C614 C623 1.390 . S
C615 C614 1.387 . S
C615 C617 1.387 . S
H616 C623 0.950 . S
C617 C615 1.387 . S
C617 C619 1.390 . S
C617 H621 0.950 . S
H618 C614 0.950 . S
C619 C617 1.390 . S
C619 C620 1.387 . S
C619 H622 0.950 . S
C620 C619 1.387 . S
C620 C623 1.387 . S
H621 C617 0.950 . S
H622 C619 0.950 . S
C623 C614 1.390 . S
C623 H616 0.950 . S
C623 C620 1.387 . S
C624 C625 1.387 . S
C624 H628 0.950 . S
C624 C633 1.390 . S
C625 C624 1.387 . S
C625 C627 1.387 . S
H626 C633 0.950 . S
C627 C625 1.387 . S
C627 C629 1.390 . S
C627 H631 0.950 . S
H628 C624 0.950 . S
C629 C627 1.390 . S
C629 C630 1.387 . S
C629 H632 0.950 . S
C630 C629 1.387 . S
C630 C633 1.387 . S
H631 C627 0.950 . S
H632 C629 0.950 . S
C633 C624 1.390 . S
C633 H626 0.950 . S
C633 C630 1.387 . S
C634 C635 1.387 . S
C634 H638 0.950 . S
C634 C643 1.390 1_455 S
C635 C634 1.387 . S
C635 C637 1.387 . S
H636 C643 0.950 . S
C637 C635 1.387 . S
C637 C639 1.386 1_455 S
C637 H641 0.950 . S
H638 C634 0.950 . S
C639 C637 1.386 1_655 S
C639 C640 1.390 . S
C639 H642 0.951 . S
C640 C639 1.390 . S
C640 C643 1.387 . S
H641 C637 0.950 . S
H642 C639 0.951 . S
C643 C634 1.390 1_655 S
C643 H636 0.950 . S
C643 C640 1.387 . S
C644 C645 1.387 . S
C644 H648 0.950 . S
C644 C653 1.390 . S
C645 C644 1.387 . S
C645 C647 1.387 . S
H646 C653 0.950 . S
C647 C645 1.387 . S
C647 C649 1.390 . S
C647 H651 0.950 . S
H648 C644 0.950 . S
C649 C647 1.390 . S
C649 C650 1.387 . S
C649 H652 0.950 . S
C650 C649 1.387 . S
C650 C653 1.387 . S
H651 C647 0.950 . S
H652 C649 0.950 . S
C653 C644 1.390 . S
C653 H646 0.950 . S
C653 C650 1.387 . S
C654 C655 1.387 . S
C654 H658 0.950 . S
C654 C663 1.390 . S
C655 C654 1.387 . S
C655 C657 1.387 . S
H656 C663 0.950 . S
C657 C655 1.387 . S
C657 C659 1.390 . S
C657 H661 0.950 . S
H658 C654 0.950 . S
C659 C657 1.390 . S
C659 C660 1.387 1_655 S
C659 H662 0.950 1_655 S
C660 C659 1.387 1_455 S
C660 C663 1.387 1_455 S
H661 C657 0.950 . S
H662 C659 0.950 1_455 S
C663 C654 1.390 . S
C663 H656 0.950 . S
C663 C660 1.387 1_655 S
C664 C665 1.387 . S
C664 H668 0.950 . S
C664 C673 1.390 . S
C665 C664 1.387 . S
C665 C667 1.387 . S
H666 C673 0.950 . S
C667 C665 1.387 . S
C667 C669 1.390 . S
C667 H671 0.950 . S
H668 C664 0.950 . S
C669 C667 1.390 . S
C669 C670 1.387 . S
C669 H672 0.950 . S
C670 C669 1.387 . S
C670 C673 1.387 . S
H671 C667 0.950 . S
H672 C669 0.950 . S
C673 C664 1.390 . S
C673 H666 0.950 . S
C673 C670 1.387 . S
C674 C675 1.387 . S
C674 H678 0.950 . S
C674 C683 1.390 . S
C675 C674 1.387 . S
C675 C677 1.387 . S
H676 C683 0.950 1_455 S
C677 C675 1.387 . S
C677 C679 1.390 . S
C677 H681 0.950 . S
H678 C674 0.950 . S
C679 C677 1.390 . S
C679 C680 1.387 . S
C679 H682 0.950 . S
C680 C679 1.387 . S
C680 C683 1.387 . S
H681 C677 0.950 . S
H682 C679 0.950 . S
C683 C674 1.390 . S
C683 H676 0.950 1_655 S
C683 C680 1.387 . S
C684 C685 1.387 . S
C684 H688 0.950 . S
C684 C693 1.390 . S
C685 C684 1.387 . S
C685 C687 1.387 . S
H686 C693 0.950 . S
C687 C685 1.387 . S
C687 C689 1.390 . S
C687 H691 0.950 . S
H688 C684 0.950 . S
C689 C687 1.390 . S
C689 C690 1.387 . S
C689 H692 0.950 . S
C690 C689 1.387 . S
C690 C693 1.387 . S
H691 C687 0.950 . S
H692 C689 0.950 . S
C693 C684 1.390 . S
C693 H686 0.950 . S
C693 C690 1.387 . S
C694 C695 1.387 . S
C694 H698 0.950 . S
C694 C703 1.390 . S
C695 C694 1.387 . S
C695 C697 1.387 . S
H696 C703 0.950 . S
C697 C695 1.387 . S
C697 C699 1.390 . S
C697 H701 0.950 . S
H698 C694 0.950 . S
C699 C697 1.390 . S
C699 C700 1.387 . S
C699 H702 0.950 . S
C700 C699 1.387 . S
C700 C703 1.387 . S
H701 C697 0.950 . S
H702 C699 0.950 . S
C703 C694 1.390 . S
C703 H696 0.950 . S
C703 C700 1.387 . S
C704 C705 1.387 . S
C704 H708 0.950 . S
C704 C713 1.390 . S
C705 C704 1.387 . S
C705 C707 1.387 . S
H706 C713 0.950 . S
C707 C705 1.387 . S
C707 C709 1.390 . S
C707 H711 0.950 . S
H708 C704 0.950 . S
C709 C707 1.390 . S
C709 C710 1.387 . S
C709 H712 0.950 . S
C710 C709 1.387 . S
C710 C713 1.387 . S
H711 C707 0.950 . S
H712 C709 0.950 . S
C713 C704 1.390 . S
C713 H706 0.950 . S
C713 C710 1.387 . S
C714 C715 1.387 . S
C714 H718 0.950 . S
C714 C723 1.390 . S
C715 C714 1.387 . S
C715 C717 1.387 . S
H716 C723 0.950 . S
C717 C715 1.387 . S
C717 C719 1.390 . S
C717 H721 0.950 1_554 S
H718 C714 0.950 . S
C719 C717 1.390 . S
C719 C720 1.387 . S
C719 H722 0.950 . S
C720 C719 1.387 . S
C720 C723 1.387 . S
H721 C717 0.950 1_556 S
H722 C719 0.950 . S
C723 C714 1.390 . S
C723 H716 0.950 . S
C723 C720 1.387 . S
C724 C725 1.387 . S
C724 H728 0.950 . S
C724 C733 1.390 . S
C725 C724 1.387 . S
C725 C727 1.387 . S
H726 C733 0.950 . S
C727 C725 1.387 . S
C727 C729 1.390 . S
C727 H731 0.950 . S
H728 C724 0.950 . S
C729 C727 1.390 . S
C729 C730 1.387 . S
C729 H732 0.950 . S
C730 C729 1.387 . S
C730 C733 1.387 . S
H731 C727 0.950 . S
H732 C729 0.950 . S
C733 C724 1.390 . S
C733 H726 0.950 . S
C733 C730 1.387 . S
C734 C735 1.387 . S
C734 H738 0.950 . S
C734 C743 1.390 . S
C735 C734 1.387 . S
C735 C737 1.387 . S
H736 C743 0.950 . S
C737 C735 1.387 . S
C737 C739 1.390 . S
C737 H741 0.950 . S
H738 C734 0.950 . S
C739 C737 1.390 . S
C739 C740 1.387 . S
C739 H742 0.950 . S
C740 C739 1.387 . S
C740 C743 1.387 . S
H741 C737 0.950 . S
H742 C739 0.950 . S
C743 C734 1.390 . S
C743 H736 0.950 . S
C743 C740 1.387 . S
C744 C745 1.387 . S
C744 H748 0.950 . S
C744 C753 1.390 . S
C745 C744 1.387 . S
C745 C747 1.387 . S
H746 C753 0.950 . S
C747 C745 1.387 . S
C747 C749 1.390 . S
C747 H751 0.950 . S
H748 C744 0.950 . S
C749 C747 1.390 . S
C749 C750 1.387 . S
C749 H752 0.950 . S
C750 C749 1.387 . S
C750 C753 1.387 . S
H751 C747 0.950 . S
H752 C749 0.950 . S
C753 C744 1.390 . S
C753 H746 0.950 . S
C753 C750 1.387 . S
C754 C755 1.387 . S
C754 H758 0.950 . S
C754 C763 1.390 . S
C755 C754 1.387 . S
C755 C757 1.387 . S
H756 C763 0.950 . S
C757 C755 1.387 . S
C757 C759 1.390 . S
C757 H761 0.950 . S
H758 C754 0.950 . S
C759 C757 1.390 . S
C759 C760 1.387 . S
C759 H762 0.950 . S
C760 C759 1.387 . S
C760 C763 1.387 . S
H761 C757 0.950 . S
H762 C759 0.950 . S
C763 C754 1.390 . S
C763 H756 0.950 . S
C763 C760 1.387 . S
C764 C765 1.387 . S
C764 H768 0.950 . S
C764 C773 1.390 . S
C765 C764 1.387 . S
C765 C767 1.387 . S
H766 C773 0.950 . S
C767 C765 1.387 . S
C767 C769 1.390 . S
C767 H771 0.950 . S
H768 C764 0.950 . S
C769 C767 1.390 . S
C769 C770 1.387 . S
C769 H772 0.950 . S
C770 C769 1.387 . S
C770 C773 1.387 . S
H771 C767 0.950 . S
H772 C769 0.950 . S
C773 C764 1.390 . S
C773 H766 0.950 . S
C773 C770 1.387 . S
C774 C775 1.387 . S
C774 H778 0.950 . S
C774 C783 1.390 . S
C775 C774 1.387 . S
C775 C777 1.387 . S
H776 C783 0.950 . S
C777 C775 1.387 . S
C777 C779 1.390 . S
C777 H781 0.950 . S
H778 C774 0.950 . S
C779 C777 1.390 . S
C779 C780 1.387 . S
C779 H782 0.950 . S
C780 C779 1.387 . S
C780 C783 1.387 . S
H781 C777 0.950 . S
H782 C779 0.950 . S
C783 C774 1.390 . S
C783 H776 0.950 . S
C783 C780 1.387 . S
C784 C785 1.387 . S
C784 H788 0.950 . S
C784 C793 1.390 . S
C785 C784 1.387 . S
C785 C787 1.387 . S
H786 C793 0.950 . S
C787 C785 1.387 . S
C787 C789 1.390 . S
C787 H791 0.950 . S
H788 C784 0.950 . S
C789 C787 1.390 . S
C789 C790 1.387 . S
C789 H792 0.950 . S
C790 C789 1.387 . S
C790 C793 1.387 . S
H791 C787 0.950 . S
H792 C789 0.950 . S
C793 C784 1.390 . S
C793 H786 0.950 . S
C793 C790 1.387 . S
C794 C795 1.387 . S
C794 H798 0.950 . S
C794 C803 1.390 . S
C795 C794 1.387 . S
C795 C797 1.387 . S
H796 C803 0.950 . S
C797 C795 1.387 . S
C797 C799 1.390 . S
C797 H801 0.950 . S
H798 C794 0.950 . S
C799 C797 1.390 . S
C799 C800 1.387 . S
C799 H802 0.950 . S
C800 C799 1.387 . S
C800 C803 1.387 . S
H801 C797 0.950 . S
H802 C799 0.950 . S
C803 C794 1.390 . S
C803 H796 0.950 . S
C803 C800 1.387 . S
C804 C805 1.387 . S
C804 H808 0.950 . S
C804 C813 1.390 . S
C805 C804 1.387 . S
C805 C807 1.387 . S
H806 C813 0.950 . S
C807 C805 1.387 . S
C807 C809 1.390 . S
C807 H811 0.950 . S
H808 C804 0.950 . S
C809 C807 1.390 . S
C809 C810 1.387 . S
C809 H812 0.950 . S
C810 C809 1.387 . S
C810 C813 1.387 . S
H811 C807 0.950 . S
H812 C809 0.950 . S
C813 C804 1.390 . S
C813 H806 0.950 . S
C813 C810 1.387 . S
C814 C815 1.387 . S
C814 H818 0.950 . S
C814 C823 1.390 . S
C815 C814 1.387 . S
C815 C817 1.387 . S
H816 C823 0.950 1_565 S
C817 C815 1.387 . S
C817 C819 1.390 . S
C817 H821 0.950 . S
H818 C814 0.950 . S
C819 C817 1.390 . S
C819 C820 1.387 1_545 S
C819 H822 0.950 . S
C820 C819 1.387 1_565 S
C820 C823 1.387 1_565 S
H821 C817 0.950 . S
H822 C819 0.950 . S
C823 C814 1.390 . S
C823 H816 0.950 1_545 S
C823 C820 1.387 1_545 S
C350 C184 1.272 1_556 S
C345 C62 1.233 . S
C360 C199 1.767 . S
C355 C73 1.711 . S
C365 C84 1.730 . S
C370 C212 1.754 . S
C380 C226 1.445 . S
C375 C49 1.122 . S
C390 C238 1.499 . S
C385 C118 1.543 . S
C400 C252 1.397 . S
C395 C137 1.363 . S
C405 C129 1.715 . S
C410 C266 1.668 . S
C420 C281 1.674 . S
C415 C106 1.656 . S
C425 C128 1.772 . S
C430 C297 1.849 . S
C440 C310 1.598 . S
C435 C104 1.245 . S
C445 C115 1.573 . S
C450 C295 1.737 . S
C460 C308 1.611 . S
C455 C139 1.613 . S
C465 C85 1.859 . S
C470 C324 1.853 . S
C475 C52 1.356 . S
C480 C323 1.429 . S
C485 C60 1.247 . S
C490 C322 1.340 . S
C495 C71 1.490 . S
C500 C325 1.758 . S
C505 C40 1.794 . S
C510 C227 1.888 1_565 S
C515 C162 1.221 . S
C520 C225 1.212 . S
C530 C185 1.313 . S
C525 C173 1.278 . S
C540 C196 1.914 . S
C535 C93 1.809 . S
C545 C51 1.532 . S
C550 C241 1.627 . S
C560 C282 1.837 . S
C555 C126 1.654 . S
C570 C239 1.771 . S
C565 C107 1.676 1_545 S
C580 C267 1.611 . S
C575 C140 1.632 . S
C590 C268 1.270 . S
C585 C161 1.235 . S
C595 C172 1.711 . S
C600 C283 1.767 . S
C605 C95 1.730 . S
C610 C240 1.754 . S
C620 C254 1.444 . S
C615 C148 1.125 . S
C625 C41 1.543 . S
C630 C210 1.499 . S
C640 C224 1.396 . S
C635 C5 1.361 . S
C650 C182 1.670 . S
C645 C19 1.714 . S
C660 C197 1.674 . S
C655 C29 1.657 . S
C665 C18 1.772 . S
C670 C311 1.849 . S
C675 C27 1.248 . S
C680 C296 1.598 . S
C685 C38 1.573 . S
C690 C309 1.737 . S
C695 C7 1.614 . S
C700 C294 1.612 . S
C710 C338 1.854 . S
C705 C96 1.859 . S
C720 C337 1.428 . S
C715 C151 1.360 1_554 S
C730 C336 1.340 . S
C725 C159 1.247 . S
C735 C170 1.493 . S
C740 C339 1.761 . S
C745 C117 1.794 . S
C750 C255 1.888 . S
C760 C253 1.211 . S
C755 C63 1.218 . S
C770 C269 1.313 . S
C765 C74 1.278 . S
C780 C280 1.914 . S
C775 C82 1.806 . S
C785 C150 1.532 . S
C790 C213 1.626 . S
C800 C198 1.838 . S
C795 C16 1.650 . S
C805 C30 1.686 . S
C810 C211 1.770 . S
C820 C183 1.613 . S
C815 C8 1.634 . S
