# Generated by pormake.
# Topology ana-f, (3,3)-cn, num edge types: 1
# Building blocks:
#     Node 0, Type 0, BuildingBlock: OLANEW_clean_sbu_2, # of connection points: 3
#     Node 1, Type 0, BuildingBlock: OLANEW_clean_sbu_2, # of connection points: 3
#     Node 2, Type 0, BuildingBlock: OLANEW_clean_sbu_2, # of connection points: 3
#     Node 3, Type 0, BuildingBlock: OLANEW_clean_sbu_2, # of connection points: 3
#     Node 4, Type 0, BuildingBlock: OLANEW_clean_sbu_2, # of connection points: 3
#     Node 5, Type 0, BuildingBlock: OLANEW_clean_sbu_2, # of connection points: 3
#     Node 6, Type 0, BuildingBlock: OLANEW_clean_sbu_2, # of connection points: 3
#     Node 7, Type 0, BuildingBlock: OLANEW_clean_sbu_2, # of connection points: 3
#     Node 8, Type 0, BuildingBlock: OLANEW_clean_sbu_2, # of connection points: 3
#     Node 9, Type 0, BuildingBlock: OLANEW_clean_sbu_2, # of connection points: 3
#     Node 10, Type 0, BuildingBlock: OLANEW_clean_sbu_2, # of connection points: 3
#     Node 11, Type 0, BuildingBlock: OLANEW_clean_sbu_2, # of connection points: 3
#     Node 12, Type 0, BuildingBlock: OLANEW_clean_sbu_2, # of connection points: 3
#     Node 13, Type 0, BuildingBlock: OLANEW_clean_sbu_2, # of connection points: 3
#     Node 14, Type 0, BuildingBlock: OLANEW_clean_sbu_2, # of connection points: 3
#     Node 15, Type 0, BuildingBlock: OLANEW_clean_sbu_2, # of connection points: 3
#     Node 16, Type 0, BuildingBlock: OLANEW_clean_sbu_2, # of connection points: 3
#     Node 17, Type 0, BuildingBlock: OLANEW_clean_sbu_2, # of connection points: 3
#     Node 18, Type 0, BuildingBlock: OLANEW_clean_sbu_2, # of connection points: 3
#     Node 19, Type 0, BuildingBlock: OLANEW_clean_sbu_2, # of connection points: 3
#     Node 20, Type 0, BuildingBlock: OLANEW_clean_sbu_2, # of connection points: 3
#     Node 21, Type 0, BuildingBlock: OLANEW_clean_sbu_2, # of connection points: 3
#     Node 22, Type 0, BuildingBlock: OLANEW_clean_sbu_2, # of connection points: 3
#     Node 23, Type 0, BuildingBlock: OLANEW_clean_sbu_2, # of connection points: 3
#     Node 24, Type 0, BuildingBlock: OLANEW_clean_sbu_2, # of connection points: 3
#     Node 25, Type 0, BuildingBlock: OLANEW_clean_sbu_2, # of connection points: 3
#     Node 26, Type 0, BuildingBlock: OLANEW_clean_sbu_2, # of connection points: 3
#     Node 27, Type 0, BuildingBlock: OLANEW_clean_sbu_2, # of connection points: 3
#     Node 28, Type 0, BuildingBlock: OLANEW_clean_sbu_2, # of connection points: 3
#     Node 29, Type 0, BuildingBlock: OLANEW_clean_sbu_2, # of connection points: 3
#     Node 30, Type 0, BuildingBlock: OLANEW_clean_sbu_2, # of connection points: 3
#     Node 31, Type 0, BuildingBlock: OLANEW_clean_sbu_2, # of connection points: 3
#     Node 32, Type 0, BuildingBlock: OLANEW_clean_sbu_2, # of connection points: 3
#     Node 33, Type 0, BuildingBlock: OLANEW_clean_sbu_2, # of connection points: 3
#     Node 34, Type 0, BuildingBlock: OLANEW_clean_sbu_2, # of connection points: 3
#     Node 35, Type 0, BuildingBlock: OLANEW_clean_sbu_2, # of connection points: 3
#     Node 36, Type 0, BuildingBlock: OLANEW_clean_sbu_2, # of connection points: 3
#     Node 37, Type 0, BuildingBlock: OLANEW_clean_sbu_2, # of connection points: 3
#     Node 38, Type 0, BuildingBlock: OLANEW_clean_sbu_2, # of connection points: 3
#     Node 39, Type 0, BuildingBlock: OLANEW_clean_sbu_2, # of connection points: 3
#     Node 40, Type 0, BuildingBlock: OLANEW_clean_sbu_2, # of connection points: 3
#     Node 41, Type 0, BuildingBlock: OLANEW_clean_sbu_2, # of connection points: 3
#     Node 42, Type 0, BuildingBlock: OLANEW_clean_sbu_2, # of connection points: 3
#     Node 43, Type 0, BuildingBlock: OLANEW_clean_sbu_2, # of connection points: 3
#     Node 44, Type 0, BuildingBlock: OLANEW_clean_sbu_2, # of connection points: 3
#     Node 45, Type 0, BuildingBlock: OLANEW_clean_sbu_2, # of connection points: 3
#     Node 46, Type 0, BuildingBlock: OLANEW_clean_sbu_2, # of connection points: 3
#     Node 47, Type 0, BuildingBlock: OLANEW_clean_sbu_2, # of connection points: 3
#     Node 48, Type 0, BuildingBlock: OLANEW_clean_sbu_2, # of connection points: 3
#     Node 49, Type 0, BuildingBlock: OLANEW_clean_sbu_2, # of connection points: 3
#     Node 50, Type 0, BuildingBlock: OLANEW_clean_sbu_2, # of connection points: 3
#     Node 51, Type 0, BuildingBlock: OLANEW_clean_sbu_2, # of connection points: 3
#     Node 52, Type 0, BuildingBlock: OLANEW_clean_sbu_2, # of connection points: 3
#     Node 53, Type 0, BuildingBlock: OLANEW_clean_sbu_2, # of connection points: 3
#     Node 54, Type 0, BuildingBlock: OLANEW_clean_sbu_2, # of connection points: 3
#     Node 55, Type 0, BuildingBlock: OLANEW_clean_sbu_2, # of connection points: 3
#     Node 56, Type 0, BuildingBlock: OLANEW_clean_sbu_2, # of connection points: 3
#     Node 57, Type 0, BuildingBlock: OLANEW_clean_sbu_2, # of connection points: 3
#     Node 58, Type 0, BuildingBlock: OLANEW_clean_sbu_2, # of connection points: 3
#     Node 59, Type 0, BuildingBlock: OLANEW_clean_sbu_2, # of connection points: 3
#     Node 60, Type 0, BuildingBlock: OLANEW_clean_sbu_2, # of connection points: 3
#     Node 61, Type 0, BuildingBlock: OLANEW_clean_sbu_2, # of connection points: 3
#     Node 62, Type 0, BuildingBlock: OLANEW_clean_sbu_2, # of connection points: 3
#     Node 63, Type 0, BuildingBlock: OLANEW_clean_sbu_2, # of connection points: 3
#     Node 64, Type 0, BuildingBlock: OLANEW_clean_sbu_2, # of connection points: 3
#     Node 65, Type 0, BuildingBlock: OLANEW_clean_sbu_2, # of connection points: 3
#     Node 66, Type 0, BuildingBlock: OLANEW_clean_sbu_2, # of connection points: 3
#     Node 67, Type 0, BuildingBlock: OLANEW_clean_sbu_2, # of connection points: 3
#     Node 68, Type 0, BuildingBlock: OLANEW_clean_sbu_2, # of connection points: 3
#     Node 69, Type 0, BuildingBlock: OLANEW_clean_sbu_2, # of connection points: 3
#     Node 70, Type 0, BuildingBlock: OLANEW_clean_sbu_2, # of connection points: 3
#     Node 71, Type 0, BuildingBlock: OLANEW_clean_sbu_2, # of connection points: 3
#     Node 72, Type 0, BuildingBlock: OLANEW_clean_sbu_2, # of connection points: 3
#     Node 73, Type 0, BuildingBlock: OLANEW_clean_sbu_2, # of connection points: 3
#     Node 74, Type 0, BuildingBlock: OLANEW_clean_sbu_2, # of connection points: 3
#     Node 75, Type 0, BuildingBlock: OLANEW_clean_sbu_2, # of connection points: 3
#     Node 76, Type 0, BuildingBlock: OLANEW_clean_sbu_2, # of connection points: 3
#     Node 77, Type 0, BuildingBlock: OLANEW_clean_sbu_2, # of connection points: 3
#     Node 78, Type 0, BuildingBlock: OLANEW_clean_sbu_2, # of connection points: 3
#     Node 79, Type 0, BuildingBlock: OLANEW_clean_sbu_2, # of connection points: 3
#     Node 80, Type 0, BuildingBlock: OLANEW_clean_sbu_2, # of connection points: 3
#     Node 81, Type 0, BuildingBlock: OLANEW_clean_sbu_2, # of connection points: 3
#     Node 82, Type 0, BuildingBlock: OLANEW_clean_sbu_2, # of connection points: 3
#     Node 83, Type 0, BuildingBlock: OLANEW_clean_sbu_2, # of connection points: 3
#     Node 84, Type 0, BuildingBlock: OLANEW_clean_sbu_2, # of connection points: 3
#     Node 85, Type 0, BuildingBlock: OLANEW_clean_sbu_2, # of connection points: 3
#     Node 86, Type 0, BuildingBlock: OLANEW_clean_sbu_2, # of connection points: 3
#     Node 87, Type 0, BuildingBlock: OLANEW_clean_sbu_2, # of connection points: 3
#     Node 88, Type 0, BuildingBlock: OLANEW_clean_sbu_2, # of connection points: 3
#     Node 89, Type 0, BuildingBlock: OLANEW_clean_sbu_2, # of connection points: 3
#     Node 90, Type 0, BuildingBlock: OLANEW_clean_sbu_2, # of connection points: 3
#     Node 91, Type 0, BuildingBlock: OLANEW_clean_sbu_2, # of connection points: 3
#     Node 92, Type 0, BuildingBlock: OLANEW_clean_sbu_2, # of connection points: 3
#     Node 93, Type 0, BuildingBlock: OLANEW_clean_sbu_2, # of connection points: 3
#     Node 94, Type 0, BuildingBlock: OLANEW_clean_sbu_2, # of connection points: 3
#     Node 95, Type 0, BuildingBlock: OLANEW_clean_sbu_2, # of connection points: 3
#     Node 96, Type 1, BuildingBlock: OLANEW_clean_sbu_2, # of connection points: 3
#     Node 97, Type 1, BuildingBlock: OLANEW_clean_sbu_2, # of connection points: 3
#     Node 98, Type 1, BuildingBlock: OLANEW_clean_sbu_2, # of connection points: 3
#     Node 99, Type 1, BuildingBlock: OLANEW_clean_sbu_2, # of connection points: 3
#     Node 100, Type 1, BuildingBlock: OLANEW_clean_sbu_2, # of connection points: 3
#     Node 101, Type 1, BuildingBlock: OLANEW_clean_sbu_2, # of connection points: 3
#     Node 102, Type 1, BuildingBlock: OLANEW_clean_sbu_2, # of connection points: 3
#     Node 103, Type 1, BuildingBlock: OLANEW_clean_sbu_2, # of connection points: 3
#     Node 104, Type 1, BuildingBlock: OLANEW_clean_sbu_2, # of connection points: 3
#     Node 105, Type 1, BuildingBlock: OLANEW_clean_sbu_2, # of connection points: 3
#     Node 106, Type 1, BuildingBlock: OLANEW_clean_sbu_2, # of connection points: 3
#     Node 107, Type 1, BuildingBlock: OLANEW_clean_sbu_2, # of connection points: 3
#     Node 108, Type 1, BuildingBlock: OLANEW_clean_sbu_2, # of connection points: 3
#     Node 109, Type 1, BuildingBlock: OLANEW_clean_sbu_2, # of connection points: 3
#     Node 110, Type 1, BuildingBlock: OLANEW_clean_sbu_2, # of connection points: 3
#     Node 111, Type 1, BuildingBlock: OLANEW_clean_sbu_2, # of connection points: 3
#     Node 112, Type 1, BuildingBlock: OLANEW_clean_sbu_2, # of connection points: 3
#     Node 113, Type 1, BuildingBlock: OLANEW_clean_sbu_2, # of connection points: 3
#     Node 114, Type 1, BuildingBlock: OLANEW_clean_sbu_2, # of connection points: 3
#     Node 115, Type 1, BuildingBlock: OLANEW_clean_sbu_2, # of connection points: 3
#     Node 116, Type 1, BuildingBlock: OLANEW_clean_sbu_2, # of connection points: 3
#     Node 117, Type 1, BuildingBlock: OLANEW_clean_sbu_2, # of connection points: 3
#     Node 118, Type 1, BuildingBlock: OLANEW_clean_sbu_2, # of connection points: 3
#     Node 119, Type 1, BuildingBlock: OLANEW_clean_sbu_2, # of connection points: 3
#     Node 120, Type 1, BuildingBlock: OLANEW_clean_sbu_2, # of connection points: 3
#     Node 121, Type 1, BuildingBlock: OLANEW_clean_sbu_2, # of connection points: 3
#     Node 122, Type 1, BuildingBlock: OLANEW_clean_sbu_2, # of connection points: 3
#     Node 123, Type 1, BuildingBlock: OLANEW_clean_sbu_2, # of connection points: 3
#     Node 124, Type 1, BuildingBlock: OLANEW_clean_sbu_2, # of connection points: 3
#     Node 125, Type 1, BuildingBlock: OLANEW_clean_sbu_2, # of connection points: 3
#     Node 126, Type 1, BuildingBlock: OLANEW_clean_sbu_2, # of connection points: 3
#     Node 127, Type 1, BuildingBlock: OLANEW_clean_sbu_2, # of connection points: 3
#     Node 128, Type 1, BuildingBlock: OLANEW_clean_sbu_2, # of connection points: 3
#     Node 129, Type 1, BuildingBlock: OLANEW_clean_sbu_2, # of connection points: 3
#     Node 130, Type 1, BuildingBlock: OLANEW_clean_sbu_2, # of connection points: 3
#     Node 131, Type 1, BuildingBlock: OLANEW_clean_sbu_2, # of connection points: 3
#     Node 132, Type 1, BuildingBlock: OLANEW_clean_sbu_2, # of connection points: 3
#     Node 133, Type 1, BuildingBlock: OLANEW_clean_sbu_2, # of connection points: 3
#     Node 134, Type 1, BuildingBlock: OLANEW_clean_sbu_2, # of connection points: 3
#     Node 135, Type 1, BuildingBlock: OLANEW_clean_sbu_2, # of connection points: 3
#     Node 136, Type 1, BuildingBlock: OLANEW_clean_sbu_2, # of connection points: 3
#     Node 137, Type 1, BuildingBlock: OLANEW_clean_sbu_2, # of connection points: 3
#     Node 138, Type 1, BuildingBlock: OLANEW_clean_sbu_2, # of connection points: 3
#     Node 139, Type 1, BuildingBlock: OLANEW_clean_sbu_2, # of connection points: 3
#     Node 140, Type 1, BuildingBlock: OLANEW_clean_sbu_2, # of connection points: 3
#     Node 141, Type 1, BuildingBlock: OLANEW_clean_sbu_2, # of connection points: 3
#     Node 142, Type 1, BuildingBlock: OLANEW_clean_sbu_2, # of connection points: 3
#     Node 143, Type 1, BuildingBlock: OLANEW_clean_sbu_2, # of connection points: 3
#     Node 144, Type 1, BuildingBlock: OLANEW_clean_sbu_2, # of connection points: 3
#     Node 145, Type 1, BuildingBlock: OLANEW_clean_sbu_2, # of connection points: 3
#     Node 146, Type 1, BuildingBlock: OLANEW_clean_sbu_2, # of connection points: 3
#     Node 147, Type 1, BuildingBlock: OLANEW_clean_sbu_2, # of connection points: 3
#     Node 148, Type 1, BuildingBlock: OLANEW_clean_sbu_2, # of connection points: 3
#     Node 149, Type 1, BuildingBlock: OLANEW_clean_sbu_2, # of connection points: 3
#     Node 150, Type 1, BuildingBlock: OLANEW_clean_sbu_2, # of connection points: 3
#     Node 151, Type 1, BuildingBlock: OLANEW_clean_sbu_2, # of connection points: 3
#     Node 152, Type 1, BuildingBlock: OLANEW_clean_sbu_2, # of connection points: 3
#     Node 153, Type 1, BuildingBlock: OLANEW_clean_sbu_2, # of connection points: 3
#     Node 154, Type 1, BuildingBlock: OLANEW_clean_sbu_2, # of connection points: 3
#     Node 155, Type 1, BuildingBlock: OLANEW_clean_sbu_2, # of connection points: 3
#     Node 156, Type 1, BuildingBlock: OLANEW_clean_sbu_2, # of connection points: 3
#     Node 157, Type 1, BuildingBlock: OLANEW_clean_sbu_2, # of connection points: 3
#     Node 158, Type 1, BuildingBlock: OLANEW_clean_sbu_2, # of connection points: 3
#     Node 159, Type 1, BuildingBlock: OLANEW_clean_sbu_2, # of connection points: 3
#     Node 160, Type 1, BuildingBlock: OLANEW_clean_sbu_2, # of connection points: 3
#     Node 161, Type 1, BuildingBlock: OLANEW_clean_sbu_2, # of connection points: 3
#     Node 162, Type 1, BuildingBlock: OLANEW_clean_sbu_2, # of connection points: 3
#     Node 163, Type 1, BuildingBlock: OLANEW_clean_sbu_2, # of connection points: 3
#     Node 164, Type 1, BuildingBlock: OLANEW_clean_sbu_2, # of connection points: 3
#     Node 165, Type 1, BuildingBlock: OLANEW_clean_sbu_2, # of connection points: 3
#     Node 166, Type 1, BuildingBlock: OLANEW_clean_sbu_2, # of connection points: 3
#     Node 167, Type 1, BuildingBlock: OLANEW_clean_sbu_2, # of connection points: 3
#     Node 168, Type 1, BuildingBlock: OLANEW_clean_sbu_2, # of connection points: 3
#     Node 169, Type 1, BuildingBlock: OLANEW_clean_sbu_2, # of connection points: 3
#     Node 170, Type 1, BuildingBlock: OLANEW_clean_sbu_2, # of connection points: 3
#     Node 171, Type 1, BuildingBlock: OLANEW_clean_sbu_2, # of connection points: 3
#     Node 172, Type 1, BuildingBlock: OLANEW_clean_sbu_2, # of connection points: 3
#     Node 173, Type 1, BuildingBlock: OLANEW_clean_sbu_2, # of connection points: 3
#     Node 174, Type 1, BuildingBlock: OLANEW_clean_sbu_2, # of connection points: 3
#     Node 175, Type 1, BuildingBlock: OLANEW_clean_sbu_2, # of connection points: 3
#     Node 176, Type 1, BuildingBlock: OLANEW_clean_sbu_2, # of connection points: 3
#     Node 177, Type 1, BuildingBlock: OLANEW_clean_sbu_2, # of connection points: 3
#     Node 178, Type 1, BuildingBlock: OLANEW_clean_sbu_2, # of connection points: 3
#     Node 179, Type 1, BuildingBlock: OLANEW_clean_sbu_2, # of connection points: 3
#     Node 180, Type 1, BuildingBlock: OLANEW_clean_sbu_2, # of connection points: 3
#     Node 181, Type 1, BuildingBlock: OLANEW_clean_sbu_2, # of connection points: 3
#     Node 182, Type 1, BuildingBlock: OLANEW_clean_sbu_2, # of connection points: 3
#     Node 183, Type 1, BuildingBlock: OLANEW_clean_sbu_2, # of connection points: 3
#     Node 184, Type 1, BuildingBlock: OLANEW_clean_sbu_2, # of connection points: 3
#     Node 185, Type 1, BuildingBlock: OLANEW_clean_sbu_2, # of connection points: 3
#     Node 186, Type 1, BuildingBlock: OLANEW_clean_sbu_2, # of connection points: 3
#     Node 187, Type 1, BuildingBlock: OLANEW_clean_sbu_2, # of connection points: 3
#     Node 188, Type 1, BuildingBlock: OLANEW_clean_sbu_2, # of connection points: 3
#     Node 189, Type 1, BuildingBlock: OLANEW_clean_sbu_2, # of connection points: 3
#     Node 190, Type 1, BuildingBlock: OLANEW_clean_sbu_2, # of connection points: 3
#     Node 191, Type 1, BuildingBlock: OLANEW_clean_sbu_2, # of connection points: 3
#     Edge 192, Type (0, 1), None
#     Edge 193, Type (0, 1), None
#     Edge 194, Type (0, 1), None
#     Edge 195, Type (0, 1), None
#     Edge 196, Type (0, 1), None
#     Edge 197, Type (0, 1), None
#     Edge 198, Type (0, 1), None
#     Edge 199, Type (0, 1), None
#     Edge 200, Type (0, 1), None
#     Edge 201, Type (0, 1), None
#     Edge 202, Type (0, 1), None
#     Edge 203, Type (0, 1), None
#     Edge 204, Type (0, 1), None
#     Edge 205, Type (0, 1), None
#     Edge 206, Type (0, 1), None
#     Edge 207, Type (0, 1), None
#     Edge 208, Type (0, 1), None
#     Edge 209, Type (0, 1), None
#     Edge 210, Type (0, 1), None
#     Edge 211, Type (0, 1), None
#     Edge 212, Type (0, 1), None
#     Edge 213, Type (0, 1), None
#     Edge 214, Type (0, 1), None
#     Edge 215, Type (0, 1), None
#     Edge 216, Type (0, 1), None
#     Edge 217, Type (0, 1), None
#     Edge 218, Type (0, 1), None
#     Edge 219, Type (0, 1), None
#     Edge 220, Type (0, 1), None
#     Edge 221, Type (0, 1), None
#     Edge 222, Type (0, 1), None
#     Edge 223, Type (0, 1), None
#     Edge 224, Type (0, 1), None
#     Edge 225, Type (0, 1), None
#     Edge 226, Type (0, 1), None
#     Edge 227, Type (0, 1), None
#     Edge 228, Type (0, 1), None
#     Edge 229, Type (0, 1), None
#     Edge 230, Type (0, 1), None
#     Edge 231, Type (0, 1), None
#     Edge 232, Type (0, 1), None
#     Edge 233, Type (0, 1), None
#     Edge 234, Type (0, 1), None
#     Edge 235, Type (0, 1), None
#     Edge 236, Type (0, 1), None
#     Edge 237, Type (0, 1), None
#     Edge 238, Type (0, 1), None
#     Edge 239, Type (0, 1), None
#     Edge 240, Type (0, 1), None
#     Edge 241, Type (0, 1), None
#     Edge 242, Type (0, 1), None
#     Edge 243, Type (0, 1), None
#     Edge 244, Type (0, 1), None
#     Edge 245, Type (0, 1), None
#     Edge 246, Type (0, 1), None
#     Edge 247, Type (0, 1), None
#     Edge 248, Type (0, 1), None
#     Edge 249, Type (0, 1), None
#     Edge 250, Type (0, 1), None
#     Edge 251, Type (0, 1), None
#     Edge 252, Type (0, 1), None
#     Edge 253, Type (0, 1), None
#     Edge 254, Type (0, 1), None
#     Edge 255, Type (0, 1), None
#     Edge 256, Type (0, 1), None
#     Edge 257, Type (0, 1), None
#     Edge 258, Type (0, 1), None
#     Edge 259, Type (0, 1), None
#     Edge 260, Type (0, 1), None
#     Edge 261, Type (0, 1), None
#     Edge 262, Type (0, 1), None
#     Edge 263, Type (0, 1), None
#     Edge 264, Type (0, 1), None
#     Edge 265, Type (0, 1), None
#     Edge 266, Type (0, 1), None
#     Edge 267, Type (0, 1), None
#     Edge 268, Type (0, 1), None
#     Edge 269, Type (0, 1), None
#     Edge 270, Type (0, 1), None
#     Edge 271, Type (0, 1), None
#     Edge 272, Type (0, 1), None
#     Edge 273, Type (0, 1), None
#     Edge 274, Type (0, 1), None
#     Edge 275, Type (0, 1), None
#     Edge 276, Type (0, 1), None
#     Edge 277, Type (0, 1), None
#     Edge 278, Type (0, 1), None
#     Edge 279, Type (0, 1), None
#     Edge 280, Type (0, 1), None
#     Edge 281, Type (0, 1), None
#     Edge 282, Type (0, 1), None
#     Edge 283, Type (0, 1), None
#     Edge 284, Type (0, 1), None
#     Edge 285, Type (0, 1), None
#     Edge 286, Type (0, 1), None
#     Edge 287, Type (0, 1), None
#     Edge 288, Type (0, 1), None
#     Edge 289, Type (0, 1), None
#     Edge 290, Type (0, 1), None
#     Edge 291, Type (0, 1), None
#     Edge 292, Type (0, 1), None
#     Edge 293, Type (0, 1), None
#     Edge 294, Type (0, 1), None
#     Edge 295, Type (0, 1), None
#     Edge 296, Type (0, 1), None
#     Edge 297, Type (0, 1), None
#     Edge 298, Type (0, 1), None
#     Edge 299, Type (0, 1), None
#     Edge 300, Type (0, 1), None
#     Edge 301, Type (0, 1), None
#     Edge 302, Type (0, 1), None
#     Edge 303, Type (0, 1), None
#     Edge 304, Type (0, 1), None
#     Edge 305, Type (0, 1), None
#     Edge 306, Type (0, 1), None
#     Edge 307, Type (0, 1), None
#     Edge 308, Type (0, 1), None
#     Edge 309, Type (0, 1), None
#     Edge 310, Type (0, 1), None
#     Edge 311, Type (0, 1), None
#     Edge 312, Type (0, 1), None
#     Edge 313, Type (0, 1), None
#     Edge 314, Type (0, 1), None
#     Edge 315, Type (0, 1), None
#     Edge 316, Type (0, 1), None
#     Edge 317, Type (0, 1), None
#     Edge 318, Type (0, 1), None
#     Edge 319, Type (0, 1), None
#     Edge 320, Type (0, 1), None
#     Edge 321, Type (0, 1), None
#     Edge 322, Type (0, 1), None
#     Edge 323, Type (0, 1), None
#     Edge 324, Type (0, 1), None
#     Edge 325, Type (0, 1), None
#     Edge 326, Type (0, 1), None
#     Edge 327, Type (0, 1), None
#     Edge 328, Type (0, 1), None
#     Edge 329, Type (0, 1), None
#     Edge 330, Type (0, 1), None
#     Edge 331, Type (0, 1), None
#     Edge 332, Type (0, 1), None
#     Edge 333, Type (0, 1), None
#     Edge 334, Type (0, 1), None
#     Edge 335, Type (0, 1), None
#     Edge 336, Type (0, 1), None
#     Edge 337, Type (0, 1), None
#     Edge 338, Type (0, 1), None
#     Edge 339, Type (0, 1), None
#     Edge 340, Type (0, 1), None
#     Edge 341, Type (0, 1), None
#     Edge 342, Type (0, 1), None
#     Edge 343, Type (0, 1), None
#     Edge 344, Type (0, 1), None
#     Edge 345, Type (0, 1), None
#     Edge 346, Type (0, 1), None
#     Edge 347, Type (0, 1), None
#     Edge 348, Type (0, 1), None
#     Edge 349, Type (0, 1), None
#     Edge 350, Type (0, 1), None
#     Edge 351, Type (0, 1), None
#     Edge 352, Type (0, 1), None
#     Edge 353, Type (0, 1), None
#     Edge 354, Type (0, 1), None
#     Edge 355, Type (0, 1), None
#     Edge 356, Type (0, 1), None
#     Edge 357, Type (0, 1), None
#     Edge 358, Type (0, 1), None
#     Edge 359, Type (0, 1), None
#     Edge 360, Type (0, 1), None
#     Edge 361, Type (0, 1), None
#     Edge 362, Type (0, 1), None
#     Edge 363, Type (0, 1), None
#     Edge 364, Type (0, 1), None
#     Edge 365, Type (0, 1), None
#     Edge 366, Type (0, 1), None
#     Edge 367, Type (0, 1), None
#     Edge 368, Type (0, 1), None
#     Edge 369, Type (0, 1), None
#     Edge 370, Type (0, 1), None
#     Edge 371, Type (0, 1), None
#     Edge 372, Type (0, 1), None
#     Edge 373, Type (0, 1), None
#     Edge 374, Type (0, 1), None
#     Edge 375, Type (0, 1), None
#     Edge 376, Type (0, 1), None
#     Edge 377, Type (0, 1), None
#     Edge 378, Type (0, 1), None
#     Edge 379, Type (0, 1), None
#     Edge 380, Type (0, 1), None
#     Edge 381, Type (0, 1), None
#     Edge 382, Type (0, 1), None
#     Edge 383, Type (0, 1), None
#     Edge 384, Type (0, 1), None
#     Edge 385, Type (0, 1), None
#     Edge 386, Type (0, 1), None
#     Edge 387, Type (0, 1), None
#     Edge 388, Type (0, 1), None
#     Edge 389, Type (0, 1), None
#     Edge 390, Type (0, 1), None
#     Edge 391, Type (0, 1), None
#     Edge 392, Type (0, 1), None
#     Edge 393, Type (0, 1), None
#     Edge 394, Type (0, 1), None
#     Edge 395, Type (0, 1), None
#     Edge 396, Type (0, 1), None
#     Edge 397, Type (0, 1), None
#     Edge 398, Type (0, 1), None
#     Edge 399, Type (0, 1), None
#     Edge 400, Type (0, 1), None
#     Edge 401, Type (0, 1), None
#     Edge 402, Type (0, 1), None
#     Edge 403, Type (0, 1), None
#     Edge 404, Type (0, 1), None
#     Edge 405, Type (0, 1), None
#     Edge 406, Type (0, 1), None
#     Edge 407, Type (0, 1), None
#     Edge 408, Type (0, 1), None
#     Edge 409, Type (0, 1), None
#     Edge 410, Type (0, 1), None
#     Edge 411, Type (0, 1), None
#     Edge 412, Type (0, 1), None
#     Edge 413, Type (0, 1), None
#     Edge 414, Type (0, 1), None
#     Edge 415, Type (0, 1), None
#     Edge 416, Type (0, 1), None
#     Edge 417, Type (0, 1), None
#     Edge 418, Type (0, 1), None
#     Edge 419, Type (0, 1), None
#     Edge 420, Type (0, 1), None
#     Edge 421, Type (0, 1), None
#     Edge 422, Type (0, 1), None
#     Edge 423, Type (0, 1), None
#     Edge 424, Type (0, 1), None
#     Edge 425, Type (0, 1), None
#     Edge 426, Type (0, 1), None
#     Edge 427, Type (0, 1), None
#     Edge 428, Type (0, 1), None
#     Edge 429, Type (0, 1), None
#     Edge 430, Type (0, 1), None
#     Edge 431, Type (0, 1), None
#     Edge 432, Type (0, 1), None
#     Edge 433, Type (0, 1), None
#     Edge 434, Type (0, 1), None
#     Edge 435, Type (0, 1), None
#     Edge 436, Type (0, 1), None
#     Edge 437, Type (0, 1), None
#     Edge 438, Type (0, 1), None
#     Edge 439, Type (0, 1), None
#     Edge 440, Type (0, 1), None
#     Edge 441, Type (0, 1), None
#     Edge 442, Type (0, 1), None
#     Edge 443, Type (0, 1), None
#     Edge 444, Type (0, 1), None
#     Edge 445, Type (0, 1), None
#     Edge 446, Type (0, 1), None
#     Edge 447, Type (0, 1), None
#     Edge 448, Type (0, 1), None
#     Edge 449, Type (0, 1), None
#     Edge 450, Type (0, 1), None
#     Edge 451, Type (0, 1), None
#     Edge 452, Type (0, 1), None
#     Edge 453, Type (0, 1), None
#     Edge 454, Type (0, 1), None
#     Edge 455, Type (0, 1), None
#     Edge 456, Type (0, 1), None
#     Edge 457, Type (0, 1), None
#     Edge 458, Type (0, 1), None
#     Edge 459, Type (0, 1), None
#     Edge 460, Type (0, 1), None
#     Edge 461, Type (0, 1), None
#     Edge 462, Type (0, 1), None
#     Edge 463, Type (0, 1), None
#     Edge 464, Type (0, 1), None
#     Edge 465, Type (0, 1), None
#     Edge 466, Type (0, 1), None
#     Edge 467, Type (0, 1), None
#     Edge 468, Type (0, 1), None
#     Edge 469, Type (0, 1), None
#     Edge 470, Type (0, 1), None
#     Edge 471, Type (0, 1), None
#     Edge 472, Type (0, 1), None
#     Edge 473, Type (0, 1), None
#     Edge 474, Type (0, 1), None
#     Edge 475, Type (0, 1), None
#     Edge 476, Type (0, 1), None
#     Edge 477, Type (0, 1), None
#     Edge 478, Type (0, 1), None
#     Edge 479, Type (0, 1), None
# Relax obj value: 0.005
# Max RMSD: 0.029
# Mean RMSD: 0.027
data_MOF--net-ana-f--node1-OLANEW_clean_sbu_2--node2-OLANEW_clean_sbu_2--edge1-none
_symmetry_space_group_name_H-M    P1
_symmetry_Int_Tables_number       1
_symmetry_cell_setting            triclinic
loop_
_symmetry_equiv_pos_as_xyz
'x, y, z'
_cell_length_a     80.151802
_cell_length_b     80.14235
_cell_length_c     80.146988
_cell_angle_alpha  89.979891
_cell_angle_beta   89.981213
_cell_angle_gamma 89.998122
loop_
_atom_site_label
_atom_site_type_symbol
_atom_site_fract_x
_atom_site_fract_y
_atom_site_fract_z
_atom_type_partial_charge
O0 O 0.03753 0.20339 0.4048 0.0
Cd1 Cd 0.01542 0.18992 0.42085 0.0
O2 O 0.05229 0.19223 0.42485 0.0
Cd3 Cd 0.07588 0.18549 0.43685 0.0
O4 O 0.10189 0.18128 0.44372 0.0
C5 C 0.10666 0.18041 0.4588 0.0
O6 O 0.09573 0.18186 0.47092 0.0
C7 C 0.05168 0.2003 0.41118 0.0
C8 C 0.99548 0.16966 0.40096 0.0
O9 O 0.98988 0.18346 0.40674 0.0
O10 O 0.01044 0.16536 0.40452 0.0
O11 O 0.0401 0.78372 0.6728 0.0
Cd12 Cd 0.05954 0.76156 0.68068 0.0
O13 O 0.06341 0.79496 0.66412 0.0
Cd14 Cd 0.078 0.81712 0.65814 0.0
O15 O 0.0866 0.84254 0.66233 0.0
C16 C 0.09184 0.84627 0.67681 0.0
O17 O 0.09261 0.83467 0.68836 0.0
C18 C 0.04777 0.79608 0.66652 0.0
C19 C 0.0752 0.74596 0.65389 0.0
O20 O 0.0639 0.7384 0.66229 0.0
O21 O 0.07903 0.76091 0.65794 0.0
O22 O 0.46765 0.78806 0.92292 0.0
Cd23 Cd 0.48981 0.80701 0.93205 0.0
O24 O 0.45697 0.81139 0.91363 0.0
Cd25 Cd 0.43514 0.82616 0.90699 0.0
O26 O 0.40979 0.83496 0.91116 0.0
C27 C 0.40604 0.83969 0.92581 0.0
O28 O 0.41756 0.83983 0.93745 0.0
C29 C 0.45562 0.79579 0.91612 0.0
C30 C 0.50483 0.82544 0.90669 0.0
O31 O 0.51261 0.81341 0.91376 0.0
O32 O 0.48992 0.8287 0.91136 0.0
O33 O 0.46172 0.21578 0.17352 0.0
Cd34 Cd 0.44315 0.23835 0.18233 0.0
O35 O 0.43794 0.20513 0.16541 0.0
Cd36 Cd 0.42273 0.18332 0.15965 0.0
O37 O 0.41352 0.15809 0.16369 0.0
C38 C 0.40794 0.15441 0.17806 0.0
O39 O 0.40719 0.16598 0.18964 0.0
C40 C 0.45361 0.20367 0.16733 0.0
C41 C 0.42623 0.25411 0.15642 0.0
O42 O 0.43814 0.26151 0.16407 0.0
O43 O 0.42237 0.23925 0.16079 0.0
O44 O 0.0376 0.79661 0.0949 0.0
Cd45 Cd 0.01549 0.81006 0.07885 0.0
O46 O 0.05237 0.80794 0.07493 0.0
Cd47 Cd 0.07596 0.81481 0.06299 0.0
O48 O 0.10197 0.81903 0.05614 0.0
C49 C 0.10675 0.8199 0.04106 0.0
O50 O 0.09582 0.81844 0.02895 0.0
C51 C 0.05176 0.79979 0.08856 0.0
C52 C 0.99549 0.83025 0.09875 0.0
O53 O 0.98992 0.81645 0.09295 0.0
O54 O 0.01044 0.83458 0.09521 0.0
O55 O 0.46065 0.78324 0.3266 0.0
Cd56 Cd 0.44182 0.76086 0.31786 0.0
O57 O 0.43707 0.79412 0.33499 0.0
Cd58 Cd 0.42216 0.81607 0.34099 0.0
O59 O 0.41322 0.84144 0.33724 0.0
C60 C 0.40759 0.84532 0.32294 0.0
O61 O 0.40662 0.83387 0.31127 0.0
C62 C 0.45273 0.79543 0.33291 0.0
C63 C 0.42456 0.74544 0.34378 0.0
O64 O 0.43642 0.73786 0.33622 0.0
O65 O 0.42093 0.76033 0.33932 0.0
O66 O 0.46147 0.20027 0.59627 0.0
Cd67 Cd 0.48385 0.18597 0.5814 0.0
O68 O 0.44708 0.19018 0.57539 0.0
Cd69 Cd 0.42367 0.18444 0.56254 0.0
O70 O 0.39758 0.1809 0.55563 0.0
C71 C 0.39273 0.18011 0.54057 0.0
O72 O 0.40365 0.18128 0.52841 0.0
C73 C 0.44748 0.19795 0.58924 0.0
C74 C 0.50406 0.1679 0.60302 0.0
O75 O 0.50942 0.18127 0.5961 0.0
O76 O 0.48923 0.163 0.59977 0.0
O77 O 0.03853 0.2157 0.82709 0.0
Cd78 Cd 0.05764 0.23828 0.81967 0.0
O79 O 0.06209 0.20455 0.8352 0.0
Cd80 Cd 0.07701 0.18246 0.84061 0.0
O81 O 0.086 0.15721 0.83619 0.0
C82 C 0.09162 0.15372 0.82179 0.0
O83 O 0.09254 0.16548 0.8104 0.0
C84 C 0.04643 0.2033 0.83299 0.0
C85 C 0.07277 0.25362 0.84689 0.0
O86 O 0.06143 0.26116 0.83853 0.0
O87 O 0.0769 0.23881 0.84259 0.0
O88 O 0.40476 0.0382 0.2043 0.0
Cd89 Cd 0.42048 0.01573 0.19106 0.0
O90 O 0.42462 0.05271 0.19246 0.0
Cd91 Cd 0.43656 0.07615 0.18509 0.0
O92 O 0.44343 0.10211 0.18056 0.0
C93 C 0.45852 0.10688 0.17976 0.0
O94 O 0.47062 0.09598 0.18146 0.0
C95 C 0.41111 0.05228 0.2008 0.0
C96 C 0.40015 0.9957 0.17136 0.0
O97 O 0.406 0.99025 0.18519 0.0
O98 O 0.40384 0.01053 0.16677 0.0
O99 O 0.21533 0.1726 0.46121 0.0
Cd100 Cd 0.23799 0.18005 0.4422 0.0
O101 O 0.20428 0.16452 0.4376 0.0
Cd102 Cd 0.18224 0.1591 0.42262 0.0
O103 O 0.15702 0.16342 0.4135 0.0
C104 C 0.15349 0.17779 0.40783 0.0
O105 O 0.1652 0.18922 0.40692 0.0
C106 C 0.20298 0.1667 0.45326 0.0
C107 C 0.25336 0.15286 0.42704 0.0
O108 O 0.26086 0.16117 0.43842 0.0
O109 O 0.23858 0.15719 0.42287 0.0
O110 O 0.0937 0.96253 0.70177 0.0
Cd111 Cd 0.07782 0.98471 0.68823 0.0
O112 O 0.0735 0.94774 0.69092 0.0
Cd113 Cd 0.06149 0.92409 0.68438 0.0
O114 O 0.05522 0.8979 0.68035 0.0
C115 C 0.04027 0.89271 0.67966 0.0
O116 O 0.02787 0.9033 0.68119 0.0
C117 C 0.08724 0.94838 0.69886 0.0
C118 C 0.09807 0.00471 0.66838 0.0
O119 O 0.0921 0.01025 0.68213 0.0
O120 O 0.09452 0.9898 0.66394 0.0
O121 O 0.2897 0.84422 0.94999 0.0
Cd122 Cd 0.26672 0.83006 0.936 0.0
O123 O 0.30371 0.82356 0.93891 0.0
Cd124 Cd 0.32694 0.81082 0.93222 0.0
O125 O 0.35308 0.80435 0.92816 0.0
C126 C 0.3583 0.78939 0.92801 0.0
O127 O 0.34773 0.77704 0.93013 0.0
C128 C 0.30358 0.83718 0.94708 0.0
C129 C 0.24605 0.85258 0.91965 0.0
O130 O 0.24113 0.84517 0.93293 0.0
O131 O 0.26064 0.8494 0.91404 0.0
O132 O 0.40492 0.96186 0.29863 0.0
Cd133 Cd 0.42101 0.98401 0.31196 0.0
O134 O 0.4251 0.94703 0.30949 0.0
Cd135 Cd 0.43711 0.92339 0.31605 0.0
O136 O 0.4437 0.89728 0.32009 0.0
C137 C 0.45872 0.89229 0.32073 0.0
O138 O 0.47097 0.90307 0.31915 0.0
C139 C 0.41134 0.94769 0.3016 0.0
C140 C 0.40102 0.00436 0.3317 0.0
O141 O 0.407 0.00974 0.31789 0.0
O142 O 0.40444 0.98945 0.33625 0.0
O143 O 0.28377 0.17305 0.53814 0.0
Cd144 Cd 0.26096 0.18046 0.557 0.0
O145 O 0.29456 0.16459 0.56173 0.0
Cd146 Cd 0.31643 0.15883 0.57684 0.0
O147 O 0.34164 0.16308 0.58596 0.0
C148 C 0.34528 0.1776 0.59115 0.0
O149 O 0.33369 0.18918 0.59155 0.0
C150 C 0.29602 0.16698 0.54612 0.0
C151 C 0.24585 0.15325 0.57242 0.0
O152 O 0.23831 0.16133 0.56088 0.0
O153 O 0.26055 0.15783 0.57662 0.0
O154 O 0.09414 0.03787 0.79542 0.0
Cd155 Cd 0.07803 0.01569 0.80869 0.0
O156 O 0.07409 0.05261 0.80663 0.0
Cd157 Cd 0.06215 0.07618 0.81354 0.0
O158 O 0.05542 0.10219 0.81791 0.0
C159 C 0.04037 0.10705 0.81885 0.0
O160 O 0.02819 0.09618 0.81738 0.0
C161 C 0.08779 0.05201 0.7986 0.0
C162 C 0.09795 0.99552 0.82867 0.0
O163 O 0.09213 0.99007 0.81483 0.0
O164 O 0.09441 0.01042 0.83315 0.0
O165 O 0.2156 0.82601 0.03808 0.0
Cd166 Cd 0.23812 0.81723 0.0567 0.0
O167 O 0.20486 0.83402 0.06185 0.0
Cd168 Cd 0.183 0.83973 0.07702 0.0
O169 O 0.15773 0.83582 0.08619 0.0
C170 C 0.15397 0.8215 0.09186 0.0
O171 O 0.16548 0.80987 0.09272 0.0
C172 C 0.20345 0.83214 0.04617 0.0
C173 C 0.25392 0.84318 0.07352 0.0
O174 O 0.26132 0.83545 0.06166 0.0
O175 O 0.23904 0.83887 0.07737 0.0
O176 O 0.20131 0.40492 0.03743 0.0
Cd177 Cd 0.18796 0.42102 0.01529 0.0
O178 O 0.19095 0.42538 0.05223 0.0
Cd179 Cd 0.18477 0.43761 0.07586 0.0
O180 O 0.18088 0.44435 0.10195 0.0
C181 C 0.18006 0.4594 0.10683 0.0
O182 O 0.18138 0.4716 0.09597 0.0
C183 C 0.19861 0.41148 0.05158 0.0
C184 C 0.16816 0.40103 0.99502 0.0
O185 O 0.18197 0.40697 0.98961 0.0
O186 O 0.16364 0.40448 0.00994 0.0
O187 O 0.70405 0.09334 0.96143 0.0
Cd188 Cd 0.69072 0.07734 0.98365 0.0
O189 O 0.69236 0.07359 0.94667 0.0
Cd190 Cd 0.68502 0.0619 0.9231 0.0
O191 O 0.68021 0.05515 0.89715 0.0
C192 C 0.67894 0.0401 0.89237 0.0
O193 O 0.68033 0.02793 0.90326 0.0
C194 C 0.70064 0.08714 0.94727 0.0
C195 C 0.67094 0.09742 0.00387 0.0
O196 O 0.68475 0.09149 0.00929 0.0
O197 O 0.66641 0.09391 0.98898 0.0
O198 O 0.17256 0.46122 0.21563 0.0
Cd199 Cd 0.17998 0.44212 0.23822 0.0
O200 O 0.16414 0.43773 0.20458 0.0
Cd201 Cd 0.15842 0.42285 0.18255 0.0
O202 O 0.1625 0.41383 0.15726 0.0
C203 C 0.17683 0.40811 0.15361 0.0
O204 O 0.18833 0.4071 0.16523 0.0
C205 C 0.1665 0.45337 0.20329 0.0
C206 C 0.15278 0.42692 0.25357 0.0
O207 O 0.16112 0.43828 0.2611 0.0
O208 O 0.1571 0.4228 0.23877 0.0
O209 O 0.79775 0.90594 0.46287 0.0
Cd210 Cd 0.81142 0.9217 0.48504 0.0
O211 O 0.80814 0.92644 0.44813 0.0
Cd212 Cd 0.8143 0.93874 0.42453 0.0
O213 O 0.81819 0.9452 0.39836 0.0
C214 C 0.81908 0.96019 0.39329 0.0
O215 O 0.81782 0.97252 0.404 0.0
C216 C 0.80038 0.91259 0.44874 0.0
C217 C 0.83129 0.90134 0.50489 0.0
O218 O 0.81758 0.90732 0.5105 0.0
O219 O 0.83568 0.90494 0.48996 0.0
O220 O 0.827 0.03873 0.21561 0.0
Cd221 Cd 0.81954 0.05785 0.23816 0.0
O222 O 0.83538 0.06223 0.20452 0.0
Cd223 Cd 0.84107 0.07709 0.18246 0.0
O224 O 0.83693 0.08596 0.15713 0.0
C225 C 0.8225 0.09137 0.15341 0.0
O226 O 0.81093 0.09215 0.165 0.0
C227 C 0.83305 0.04659 0.20325 0.0
C228 C 0.8467 0.07301 0.25358 0.0
O229 O 0.83832 0.06167 0.2611 0.0
O230 O 0.84245 0.07713 0.23876 0.0
O231 O 0.28507 0.57825 0.53328 0.0
Cd232 Cd 0.30363 0.56908 0.51082 0.0
O233 O 0.30878 0.58663 0.54386 0.0
Cd234 Cd 0.32399 0.59262 0.56558 0.0
O235 O 0.33346 0.58826 0.59065 0.0
C236 C 0.33884 0.57375 0.5941 0.0
O237 O 0.3392 0.56229 0.5824 0.0
C238 C 0.29312 0.58463 0.54533 0.0
C239 C 0.32203 0.59448 0.49583 0.0
O240 O 0.30987 0.58757 0.48812 0.0
O241 O 0.32546 0.58962 0.51064 0.0
O242 O 0.17276 0.53809 0.28387 0.0
Cd243 Cd 0.18015 0.55704 0.26113 0.0
O244 O 0.1644 0.56167 0.29479 0.0
Cd245 Cd 0.15878 0.5767 0.31674 0.0
O246 O 0.16318 0.58569 0.34197 0.0
C247 C 0.17778 0.59069 0.34558 0.0
O248 O 0.18933 0.59098 0.33396 0.0
C249 C 0.16675 0.54604 0.29618 0.0
C250 C 0.15297 0.57253 0.24605 0.0
O251 O 0.16106 0.56103 0.23847 0.0
O252 O 0.15752 0.57666 0.26078 0.0
O253 O 0.3272 0.46214 0.78349 0.0
Cd254 Cd 0.31848 0.44329 0.76112 0.0
O255 O 0.33551 0.43856 0.79443 0.0
Cd256 Cd 0.34127 0.42363 0.81643 0.0
O257 O 0.33698 0.41445 0.84164 0.0
C258 C 0.3226 0.40879 0.84514 0.0
O259 O 0.31118 0.40795 0.83343 0.0
C260 C 0.33344 0.45423 0.79571 0.0
C261 C 0.34432 0.42585 0.74579 0.0
O262 O 0.33684 0.43773 0.73816 0.0
O263 O 0.33983 0.42228 0.76069 0.0
O264 O 0.93815 0.83733 0.61349 0.0
Cd265 Cd 0.95727 0.86008 0.60671 0.0
O266 O 0.94007 0.82486 0.5891 0.0
Cd267 Cd 0.94843 0.84848 0.57844 0.0
O268 O 0.932 0.86987 0.5744 0.0
C269 C 0.92053 0.86807 0.5636 0.0
O270 O 0.92041 0.85459 0.55429 0.0
C271 C 0.93496 0.82495 0.60412 0.0
C272 C 0.98811 0.85531 0.62208 0.0
O273 O 0.97595 0.86211 0.62991 0.0
O274 O 0.98582 0.85078 0.60692 0.0
O275 O 0.90656 0.17849 0.36474 0.0
Cd276 Cd 0.88632 0.19875 0.35425 0.0
O277 O 0.92159 0.17889 0.34173 0.0
Cd278 Cd 0.90028 0.18852 0.32781 0.0
O279 O 0.88034 0.17191 0.31951 0.0
C280 C 0.88442 0.16093 0.30883 0.0
O281 O 0.89933 0.16155 0.30207 0.0
C282 C 0.9196 0.17424 0.35676 0.0
C283 C 0.89543 0.23135 0.36228 0.0
O284 O 0.88624 0.22276 0.37215 0.0
O285 O 0.90035 0.22461 0.34865 0.0
O286 O 0.5626 0.15842 0.11417 0.0
Cd287 Cd 0.54211 0.1372 0.1065 0.0
O288 O 0.56342 0.1703 0.08941 0.0
Cd289 Cd 0.55363 0.14746 0.07833 0.0
O290 O 0.56998 0.12619 0.07346 0.0
C291 C 0.58151 0.12852 0.06283 0.0
O292 O 0.58165 0.14243 0.05415 0.0
C293 C 0.56752 0.17018 0.10472 0.0
C294 C 0.51149 0.14312 0.12193 0.0
O295 O 0.52322 0.13541 0.12957 0.0
O296 O 0.51411 0.14806 0.10695 0.0
O297 O 0.58946 0.82067 0.86345 0.0
Cd298 Cd 0.61113 0.80165 0.85354 0.0
O299 O 0.57423 0.81833 0.84071 0.0
Cd300 Cd 0.59635 0.8102 0.82707 0.0
O301 O 0.61649 0.82698 0.81954 0.0
C302 C 0.61288 0.83797 0.80871 0.0
O303 O 0.59825 0.8374 0.80134 0.0
C304 C 0.576 0.82358 0.85557 0.0
C305 C 0.60401 0.76876 0.86237 0.0
O306 O 0.61246 0.7782 0.87212 0.0
O307 O 0.59893 0.77478 0.84846 0.0
O308 O 0.93775 0.16178 0.88594 0.0
Cd309 Cd 0.9568 0.13896 0.89269 0.0
O310 O 0.94001 0.17446 0.91019 0.0
Cd311 Cd 0.94843 0.1509 0.92091 0.0
O312 O 0.93197 0.12953 0.92504 0.0
C313 C 0.92051 0.13139 0.93584 0.0
O314 O 0.9204 0.14491 0.9451 0.0
C315 C 0.93473 0.17426 0.89524 0.0
C316 C 0.98759 0.14362 0.8772 0.0
O317 O 0.97539 0.13685 0.86942 0.0
O318 O 0.98537 0.14817 0.89236 0.0
O319 O 0.59111 0.18348 0.63701 0.0
Cd320 Cd 0.61173 0.20435 0.64531 0.0
O321 O 0.57865 0.18232 0.66148 0.0
Cd322 Cd 0.60096 0.19218 0.67351 0.0
O323 O 0.62082 0.17493 0.6807 0.0
C324 C 0.61679 0.16373 0.69119 0.0
O325 O 0.60207 0.16445 0.69835 0.0
C326 C 0.57922 0.17831 0.64615 0.0
C327 C 0.60566 0.23506 0.63002 0.0
O328 O 0.61366 0.22351 0.62243 0.0
O329 O 0.60047 0.23222 0.64488 0.0
O330 O 0.56254 0.84061 0.38551 0.0
Cd331 Cd 0.54206 0.86184 0.39322 0.0
O332 O 0.56356 0.82887 0.41033 0.0
Cd333 Cd 0.55382 0.85175 0.4214 0.0
O334 O 0.57006 0.8731 0.42628 0.0
C335 C 0.58153 0.87087 0.43699 0.0
O336 O 0.58168 0.857 0.44574 0.0
C337 C 0.56755 0.82892 0.39498 0.0
C338 C 0.51138 0.85584 0.37794 0.0
O339 O 0.52308 0.86352 0.37023 0.0
O340 O 0.51406 0.85096 0.39293 0.0
O341 O 0.90656 0.82123 0.13523 0.0
Cd342 Cd 0.8864 0.80094 0.14581 0.0
O343 O 0.92167 0.82086 0.15817 0.0
Cd344 Cd 0.90043 0.81123 0.1722 0.0
O345 O 0.88054 0.82785 0.18059 0.0
C346 C 0.88467 0.83885 0.19124 0.0
O347 O 0.89963 0.83823 0.19792 0.0
C348 C 0.91962 0.8255 0.14314 0.0
C349 C 0.89553 0.76835 0.13769 0.0
O350 O 0.88628 0.77695 0.12789 0.0
O351 O 0.9005 0.77508 0.15131 0.0
O352 O 0.61158 0.93719 0.83723 0.0
Cd353 Cd 0.60417 0.9565 0.85962 0.0
O354 O 0.58718 0.93821 0.82468 0.0
Cd355 Cd 0.57588 0.94623 0.84812 0.0
O356 O 0.57033 0.92945 0.86893 0.0
C357 C 0.55925 0.91839 0.86647 0.0
O358 O 0.5505 0.91881 0.85261 0.0
C359 C 0.60234 0.93357 0.82487 0.0
C360 C 0.61989 0.98724 0.85515 0.0
O361 O 0.62745 0.97506 0.86221 0.0
O362 O 0.60485 0.98503 0.85021 0.0
O363 O 0.8215 0.86442 0.59341 0.0
Cd364 Cd 0.80118 0.85394 0.6136 0.0
O365 O 0.82111 0.84143 0.57836 0.0
Cd366 Cd 0.81147 0.82747 0.59964 0.0
O367 O 0.82817 0.81902 0.61945 0.0
C368 C 0.83913 0.80837 0.61525 0.0
O369 O 0.83844 0.80172 0.60029 0.0
C370 C 0.82577 0.85646 0.58037 0.0
C371 C 0.76865 0.86249 0.60468 0.0
O372 O 0.77742 0.87217 0.6139 0.0
O373 O 0.77519 0.8488 0.59964 0.0
O374 O 0.88596 0.06205 0.33813 0.0
Cd375 Cd 0.89276 0.043 0.36093 0.0
O376 O 0.91028 0.05998 0.32552 0.0
Cd377 Cd 0.92103 0.05168 0.34912 0.0
O378 O 0.92529 0.06816 0.37043 0.0
C379 C 0.93616 0.07955 0.36855 0.0
O380 O 0.94541 0.07958 0.35502 0.0
C381 C 0.89529 0.06514 0.32568 0.0
C382 C 0.8772 0.01223 0.35632 0.0
O383 O 0.86945 0.02446 0.36309 0.0
O384 O 0.89236 0.01441 0.35175 0.0
O385 O 0.68026 0.13187 0.09354 0.0
Cd386 Cd 0.70033 0.14169 0.11429 0.0
O387 O 0.68125 0.15514 0.07894 0.0
Cd388 Cd 0.69104 0.16832 0.10064 0.0
O389 O 0.67452 0.17531 0.12114 0.0
C390 C 0.66327 0.1859 0.11759 0.0
O391 O 0.66363 0.1933 0.10297 0.0
C392 C 0.67631 0.14015 0.0806 0.0
C393 C 0.73306 0.13499 0.10462 0.0
O394 O 0.72483 0.1245 0.11344 0.0
O395 O 0.7259 0.14862 0.10033 0.0
O396 O 0.61451 0.06424 0.6615 0.0
Cd397 Cd 0.60749 0.04493 0.63899 0.0
O398 O 0.59031 0.06224 0.67434 0.0
Cd399 Cd 0.57927 0.05373 0.65097 0.0
O400 O 0.57415 0.07088 0.63039 0.0
C401 C 0.56355 0.0823 0.63334 0.0
O402 O 0.55514 0.08192 0.6474 0.0
C403 C 0.60528 0.06745 0.67399 0.0
C404 C 0.62245 0.0139 0.64398 0.0
O405 O 0.63045 0.02591 0.6371 0.0
O406 O 0.60732 0.01643 0.64851 0.0
O407 O 0.68015 0.86794 0.40625 0.0
Cd408 Cd 0.70025 0.85819 0.3855 0.0
O409 O 0.68101 0.84455 0.42066 0.0
Cd410 Cd 0.69068 0.83145 0.39886 0.0
O411 O 0.67417 0.82435 0.3784 0.0
C412 C 0.66307 0.81359 0.38189 0.0
O413 O 0.66354 0.80609 0.39646 0.0
C414 C 0.67615 0.85957 0.41913 0.0
C415 C 0.73294 0.86498 0.39523 0.0
O416 O 0.7247 0.87545 0.3864 0.0
O417 O 0.72581 0.85132 0.39949 0.0
O418 O 0.88611 0.93773 0.16195 0.0
Cd419 Cd 0.89288 0.95676 0.13911 0.0
O420 O 0.91045 0.93983 0.17449 0.0
Cd421 Cd 0.92114 0.9481 0.15085 0.0
O422 O 0.92528 0.93162 0.12951 0.0
C423 C 0.93614 0.92021 0.13133 0.0
O424 O 0.94546 0.92015 0.14482 0.0
C425 C 0.89546 0.93465 0.17438 0.0
C426 C 0.87743 0.98757 0.14376 0.0
O427 O 0.86963 0.97538 0.13699 0.0
O428 O 0.89259 0.98534 0.1483 0.0
O429 O 0.8214 0.13515 0.90619 0.0
Cd430 Cd 0.80103 0.14559 0.88604 0.0
O431 O 0.82093 0.15811 0.92128 0.0
Cd432 Cd 0.81114 0.17205 0.90006 0.0
O433 O 0.82779 0.18044 0.88017 0.0
C434 C 0.83879 0.19106 0.88435 0.0
O435 O 0.83816 0.19771 0.89931 0.0
C436 C 0.82565 0.1431 0.91923 0.0
C437 C 0.76852 0.13713 0.89511 0.0
O438 O 0.77722 0.12742 0.88587 0.0
O439 O 0.77511 0.15081 0.9001 0.0
O440 O 0.83718 0.61383 0.9386 0.0
Cd441 Cd 0.85993 0.60702 0.95769 0.0
O442 O 0.82496 0.58928 0.94018 0.0
Cd443 Cd 0.84866 0.5787 0.94841 0.0
O444 O 0.87004 0.57469 0.93194 0.0
C445 C 0.86831 0.5638 0.92055 0.0
O446 O 0.85489 0.55439 0.9205 0.0
C447 C 0.8249 0.60436 0.93527 0.0
C448 C 0.85504 0.62212 0.98865 0.0
O449 O 0.86182 0.63008 0.97656 0.0
O450 O 0.85059 0.60696 0.98624 0.0
O451 O 0.34027 0.88341 0.06696 0.0
Cd452 Cd 0.36289 0.89227 0.04853 0.0
O453 O 0.32615 0.90681 0.06417 0.0
Cd454 Cd 0.34902 0.9192 0.05611 0.0
O455 O 0.37039 0.92453 0.07216 0.0
C456 C 0.36846 0.93574 0.0832 0.0
O457 O 0.35478 0.94477 0.08309 0.0
C458 C 0.32713 0.89191 0.06954 0.0
C459 C 0.35552 0.88483 0.0154 0.0
O460 O 0.3634 0.87437 0.02457 0.0
O461 O 0.35116 0.89881 0.0218 0.0
O462 O 0.8644 0.59345 0.82158 0.0
Cd463 Cd 0.85383 0.61358 0.80125 0.0
O464 O 0.8413 0.57858 0.82157 0.0
Cd465 Cd 0.82733 0.59993 0.81209 0.0
O466 O 0.81888 0.61973 0.8288 0.0
C467 C 0.80818 0.61556 0.83973 0.0
O468 O 0.80148 0.60062 0.83903 0.0
C469 C 0.8564 0.58049 0.82601 0.0
C470 C 0.86233 0.6046 0.76872 0.0
O471 O 0.87201 0.61386 0.77744 0.0
O472 O 0.84866 0.59956 0.7753 0.0
O473 O 0.16162 0.11376 0.56194 0.0
Cd474 Cd 0.13877 0.107 0.54293 0.0
O475 O 0.17429 0.0895 0.55967 0.0
Cd476 Cd 0.15071 0.07878 0.5513 0.0
O477 O 0.12933 0.07466 0.56774 0.0
C478 C 0.13115 0.06383 0.57918 0.0
O479 O 0.14465 0.05453 0.57927 0.0
C480 C 0.1741 0.10446 0.56494 0.0
C481 C 0.1434 0.12242 0.51209 0.0
O482 O 0.13664 0.13023 0.52428 0.0
O483 O 0.14797 0.10726 0.51435 0.0
O484 O 0.13195 0.90593 0.81943 0.0
Cd485 Cd 0.14167 0.88521 0.79927 0.0
O486 O 0.15529 0.9204 0.81849 0.0
Cd487 Cd 0.16839 0.89867 0.80864 0.0
O488 O 0.17533 0.87823 0.82526 0.0
C489 C 0.18587 0.88184 0.83652 0.0
O490 O 0.19325 0.89647 0.83612 0.0
C491 C 0.1403 0.91881 0.82342 0.0
C492 C 0.13485 0.89498 0.76659 0.0
O493 O 0.1244 0.88613 0.77484 0.0
O494 O 0.14851 0.89924 0.77371 0.0
O495 O 0.65996 0.38625 0.42852 0.0
Cd496 Cd 0.6381 0.39605 0.44738 0.0
O497 O 0.67519 0.40897 0.43112 0.0
Cd498 Cd 0.65305 0.42256 0.43926 0.0
O499 O 0.63297 0.43025 0.4225 0.0
C500 C 0.63658 0.44125 0.41166 0.0
O501 O 0.65117 0.44867 0.41238 0.0
C502 C 0.67344 0.39414 0.42576 0.0
C503 C 0.64487 0.387 0.48028 0.0
O504 O 0.63655 0.3773 0.47068 0.0
O505 O 0.64999 0.40097 0.47442 0.0
O506 O 0.86746 0.40624 0.67981 0.0
Cd507 Cd 0.85749 0.38559 0.69992 0.0
O508 O 0.84407 0.42066 0.6804 0.0
Cd509 Cd 0.83082 0.39889 0.68995 0.0
O510 O 0.82358 0.37853 0.67337 0.0
C511 C 0.81287 0.38213 0.66226 0.0
O512 O 0.8055 0.39676 0.66275 0.0
C513 C 0.85914 0.41911 0.67569 0.0
C514 C 0.86435 0.39524 0.73262 0.0
O515 O 0.87476 0.38635 0.72437 0.0
O516 O 0.85073 0.3996 0.7255 0.0
O517 O 0.63772 0.58782 0.1841 0.0
Cd518 Cd 0.64544 0.60991 0.20364 0.0
O519 O 0.66175 0.57458 0.18547 0.0
Cd520 Cd 0.67355 0.59765 0.19379 0.0
O521 O 0.67991 0.61783 0.17657 0.0
C522 C 0.69064 0.61442 0.16539 0.0
O523 O 0.69851 0.60006 0.16602 0.0
C524 C 0.64668 0.57522 0.18058 0.0
C525 C 0.63015 0.6051 0.23455 0.0
O526 O 0.62243 0.61232 0.22257 0.0
O527 O 0.64514 0.60015 0.23206 0.0
O528 O 0.53949 0.70225 0.90486 0.0
Cd529 Cd 0.51693 0.68796 0.91946 0.0
O530 O 0.55374 0.69065 0.92504 0.0
Cd531 Cd 0.57702 0.68369 0.93756 0.0
O532 O 0.60278 0.67917 0.94516 0.0
C533 C 0.60712 0.67807 0.96036 0.0
O534 O 0.59586 0.67948 0.97218 0.0
C535 C 0.55346 0.69914 0.91161 0.0
C536 C 0.49686 0.66998 0.89764 0.0
O537 O 0.49147 0.68335 0.90453 0.0
O538 O 0.51165 0.66504 0.90101 0.0
O539 O 0.54955 0.28962 0.15573 0.0
Cd540 Cd 0.56365 0.26668 0.16987 0.0
O541 O 0.56044 0.30369 0.17644 0.0
Cd542 Cd 0.56703 0.32695 0.18917 0.0
O543 O 0.57123 0.35307 0.19566 0.0
C544 C 0.57211 0.35819 0.21063 0.0
O545 O 0.57067 0.34754 0.22299 0.0
C546 C 0.55233 0.30351 0.16278 0.0
C547 C 0.58006 0.2461 0.14731 0.0
O548 O 0.56682 0.24112 0.15473 0.0
O549 O 0.58562 0.26072 0.15051 0.0
O550 O 0.96164 0.29666 0.40522 0.0
Cd551 Cd 0.9837 0.3102 0.42126 0.0
O552 O 0.94675 0.30823 0.42496 0.0
Cd553 Cd 0.92309 0.3153 0.43663 0.0
O554 O 0.897 0.31972 0.44307 0.0
C555 C 0.89194 0.32044 0.45807 0.0
O556 O 0.90262 0.31871 0.47036 0.0
C557 C 0.94745 0.29995 0.41142 0.0
C558 C 0.00374 0.33032 0.4013 0.0
O559 O 0.0093 0.31655 0.40718 0.0
O560 O 0.98878 0.33466 0.40479 0.0
O561 O 0.96243 0.71547 0.67214 0.0
Cd562 Cd 0.94326 0.73795 0.67972 0.0
O563 O 0.93894 0.70433 0.66387 0.0
Cd564 Cd 0.92407 0.68225 0.65833 0.0
O565 O 0.91487 0.65709 0.66287 0.0
C566 C 0.90907 0.65377 0.67724 0.0
O567 O 0.9081 0.66562 0.68851 0.0
C568 C 0.95459 0.7031 0.66613 0.0
C569 C 0.92765 0.75315 0.65268 0.0
O570 O 0.93905 0.76077 0.66087 0.0
O571 O 0.92367 0.73833 0.65707 0.0
O572 O 0.53323 0.28526 0.57854 0.0
Cd573 Cd 0.51074 0.30374 0.56925 0.0
O574 O 0.54383 0.30906 0.58665 0.0
Cd575 Cd 0.56557 0.32433 0.59237 0.0
O576 O 0.59055 0.33386 0.58759 0.0
C577 C 0.59378 0.33909 0.57298 0.0
O578 O 0.58192 0.33928 0.56167 0.0
C579 C 0.5453 0.29338 0.5848 0.0
C580 C 0.4957 0.32229 0.59449 0.0
O581 O 0.48801 0.31007 0.58765 0.0
O582 O 0.51052 0.32569 0.58964 0.0
O583 O 0.96088 0.2843 0.82679 0.0
Cd584 Cd 0.94176 0.26173 0.81939 0.0
O585 O 0.93737 0.29538 0.83514 0.0
Cd586 Cd 0.9225 0.31744 0.84079 0.0
O587 O 0.91363 0.34277 0.83659 0.0
C588 C 0.90823 0.34646 0.82215 0.0
O589 O 0.90747 0.33487 0.81061 0.0
C590 C 0.95301 0.29666 0.83281 0.0
C591 C 0.92666 0.24632 0.84661 0.0
O592 O 0.93799 0.2388 0.83822 0.0
O593 O 0.92253 0.26113 0.84235 0.0
O594 O 0.96175 0.70334 0.09436 0.0
Cd595 Cd 0.98382 0.6899 0.07824 0.0
O596 O 0.94683 0.69195 0.07455 0.0
Cd597 Cd 0.92315 0.68498 0.06287 0.0
O598 O 0.89705 0.68055 0.0565 0.0
C599 C 0.89194 0.67982 0.04152 0.0
O600 O 0.90259 0.68155 0.02918 0.0
C601 C 0.94755 0.70012 0.08815 0.0
C602 C 0.0039 0.66974 0.09809 0.0
O603 O 0.00944 0.68354 0.09226 0.0
O604 O 0.98894 0.66539 0.09461 0.0
O605 O 0.5482 0.70966 0.34454 0.0
Cd606 Cd 0.56222 0.73257 0.33025 0.0
O607 O 0.55959 0.6956 0.32409 0.0
Cd608 Cd 0.56654 0.6724 0.31141 0.0
O609 O 0.57109 0.64655 0.30413 0.0
C610 C 0.57206 0.64196 0.289 0.0
O611 O 0.5705 0.65301 0.277 0.0
C612 C 0.55127 0.69575 0.33762 0.0
C613 C 0.57914 0.75301 0.35255 0.0
O614 O 0.5658 0.75808 0.34537 0.0
O615 O 0.58455 0.73837 0.34924 0.0
O616 O 0.90584 0.53817 0.70416 0.0
Cd617 Cd 0.92183 0.51591 0.6909 0.0
O618 O 0.92584 0.55283 0.69275 0.0
Cd619 Cd 0.93783 0.57634 0.68569 0.0
O620 O 0.94483 0.60227 0.68113 0.0
C621 C 0.95993 0.60697 0.68027 0.0
O622 O 0.972 0.59602 0.68195 0.0
C623 C 0.9122 0.55229 0.70088 0.0
C624 C 0.90187 0.4958 0.67089 0.0
O625 O 0.90765 0.49033 0.68475 0.0
O626 O 0.90546 0.5107 0.66643 0.0
O627 O 0.71543 0.6709 0.96476 0.0
Cd628 Cd 0.73808 0.67903 0.946 0.0
O629 O 0.70468 0.66279 0.94103 0.0
Cd630 Cd 0.68288 0.65725 0.92578 0.0
O631 O 0.65797 0.66206 0.91612 0.0
C632 C 0.65485 0.67659 0.91061 0.0
O633 O 0.66677 0.68782 0.91021 0.0
C634 C 0.70323 0.66484 0.95669 0.0
C635 C 0.75312 0.65247 0.92944 0.0
O636 O 0.76073 0.6601 0.94124 0.0
O637 O 0.7384 0.65719 0.92551 0.0
O638 O 0.57902 0.4672 0.21125 0.0
Cd639 Cd 0.57071 0.48944 0.19204 0.0
O640 O 0.58777 0.4562 0.18787 0.0
Cd641 Cd 0.59383 0.4342 0.1731 0.0
O642 O 0.58908 0.40893 0.1644 0.0
C643 C 0.57432 0.40546 0.1598 0.0
O644 O 0.56291 0.41722 0.15974 0.0
C645 C 0.5854 0.45495 0.2035 0.0
C646 C 0.59702 0.5044 0.17495 0.0
O647 O 0.58938 0.51218 0.18664 0.0
O648 O 0.59244 0.48953 0.1714 0.0
O649 O 0.78299 0.32681 0.45932 0.0
Cd650 Cd 0.76089 0.31778 0.44029 0.0
O651 O 0.79414 0.33497 0.43578 0.0
Cd652 Cd 0.81628 0.34073 0.42105 0.0
O653 O 0.84165 0.3366 0.41229 0.0
C654 C 0.84539 0.32218 0.40687 0.0
O655 O 0.83382 0.31062 0.40601 0.0
C656 C 0.79526 0.33304 0.45148 0.0
C657 C 0.74537 0.34339 0.42265 0.0
O658 O 0.73774 0.33582 0.43448 0.0
O659 O 0.76036 0.33909 0.41923 0.0
O660 O 0.90534 0.46273 0.79765 0.0
Cd661 Cd 0.92121 0.48489 0.81122 0.0
O662 O 0.92571 0.44798 0.80827 0.0
Cd663 Cd 0.93792 0.42438 0.81458 0.0
O664 O 0.94449 0.39824 0.81849 0.0
C665 C 0.9595 0.39324 0.8193 0.0
O666 O 0.97177 0.40401 0.81795 0.0
C667 C 0.91191 0.44859 0.80043 0.0
C668 C 0.90105 0.50483 0.8312 0.0
O669 O 0.90696 0.51041 0.81745 0.0
O670 O 0.9046 0.48989 0.83558 0.0
O671 O 0.78316 0.67187 0.0411 0.0
Cd672 Cd 0.76103 0.67976 0.06059 0.0
O673 O 0.79464 0.6636 0.06444 0.0
Cd674 Cd 0.81697 0.65807 0.07894 0.0
O675 O 0.84233 0.66255 0.08757 0.0
C676 C 0.84587 0.677 0.09303 0.0
O677 O 0.83412 0.68838 0.09399 0.0
C678 C 0.79563 0.66582 0.04876 0.0
C679 C 0.7456 0.65306 0.07658 0.0
O680 O 0.73796 0.66132 0.06524 0.0
O681 O 0.76057 0.65719 0.08029 0.0
O682 O 0.57961 0.5334 0.2857 0.0
Cd683 Cd 0.57154 0.51083 0.30462 0.0
O684 O 0.588 0.54426 0.30927 0.0
Cd685 Cd 0.5937 0.56615 0.32434 0.0
O686 O 0.58881 0.59115 0.33373 0.0
C687 C 0.5742 0.5943 0.33902 0.0
O688 O 0.56299 0.58236 0.33935 0.0
C689 C 0.58576 0.54564 0.29364 0.0
C690 C 0.59806 0.49619 0.32163 0.0
O691 O 0.59063 0.4884 0.30983 0.0
O692 O 0.59315 0.51092 0.32536 0.0
O693 O 0.70929 0.34462 0.54654 0.0
Cd694 Cd 0.73222 0.33048 0.56067 0.0
O695 O 0.69528 0.32461 0.55877 0.0
Cd696 Cd 0.67214 0.31218 0.56631 0.0
O697 O 0.64636 0.30479 0.57117 0.0
C698 C 0.64186 0.28963 0.57211 0.0
O699 O 0.65296 0.2777 0.57035 0.0
C700 C 0.69539 0.33788 0.55002 0.0
C701 C 0.75247 0.35284 0.57775 0.0
O702 O 0.75764 0.34572 0.56442 0.0
O703 O 0.73781 0.34945 0.58307 0.0
O704 O 0.70405 0.9062 0.53847 0.0
Cd705 Cd 0.6907 0.92214 0.51622 0.0
O706 O 0.69267 0.92617 0.55318 0.0
Cd707 Cd 0.68563 0.93809 0.57673 0.0
O708 O 0.68101 0.94486 0.60271 0.0
C709 C 0.68022 0.95992 0.60757 0.0
O710 O 0.68202 0.97209 0.59674 0.0
C711 C 0.70081 0.91254 0.55261 0.0
C712 C 0.67093 0.90204 0.49601 0.0
O713 O 0.68474 0.90797 0.49059 0.0
O714 O 0.66639 0.90554 0.51091 0.0
O715 O 0.20011 0.59569 0.46171 0.0
Cd716 Cd 0.18568 0.58098 0.48411 0.0
O717 O 0.19028 0.57467 0.44735 0.0
Cd718 Cd 0.18471 0.56173 0.42395 0.0
O719 O 0.18117 0.55496 0.39781 0.0
C720 C 0.18026 0.53993 0.39288 0.0
O721 O 0.1813 0.5277 0.40373 0.0
C722 C 0.19796 0.58857 0.44775 0.0
C723 C 0.16769 0.60281 0.50417 0.0
O724 O 0.181 0.59585 0.5096 0.0
O725 O 0.1628 0.5995 0.48934 0.0
O726 O 0.67137 0.96161 0.71615 0.0
Cd727 Cd 0.67887 0.94226 0.73853 0.0
O728 O 0.66321 0.93819 0.70476 0.0
Cd729 Cd 0.65789 0.92351 0.6825 0.0
O730 O 0.66262 0.91454 0.6573 0.0
C731 C 0.67705 0.90888 0.654 0.0
O732 O 0.68827 0.90792 0.6659 0.0
C733 C 0.66546 0.95385 0.70367 0.0
C734 C 0.65185 0.92646 0.7536 0.0
O735 O 0.66002 0.93782 0.76132 0.0
O736 O 0.65623 0.92264 0.73874 0.0
O737 O 0.29575 0.40552 0.96104 0.0
Cd738 Cd 0.30903 0.42111 0.98356 0.0
O739 O 0.30767 0.42535 0.94654 0.0
Cd740 Cd 0.31511 0.43727 0.9231 0.0
O741 O 0.31981 0.44417 0.89717 0.0
C742 C 0.3204 0.45925 0.89235 0.0
O743 O 0.31836 0.47136 0.9032 0.0
C744 C 0.29928 0.41186 0.94697 0.0
C745 C 0.32852 0.40063 0.00367 0.0
O746 O 0.31471 0.40658 0.00907 0.0
O747 O 0.33318 0.40429 0.98885 0.0
O748 O 0.34462 0.54977 0.71 0.0
Cd749 Cd 0.3301 0.56405 0.73261 0.0
O750 O 0.32413 0.56083 0.69575 0.0
Cd751 Cd 0.31144 0.56739 0.67245 0.0
O752 O 0.30412 0.5716 0.64655 0.0
C753 C 0.28898 0.57253 0.64199 0.0
O754 O 0.27701 0.57113 0.6531 0.0
C755 C 0.33771 0.5526 0.69604 0.0
C756 C 0.35209 0.58118 0.75322 0.0
O757 O 0.34483 0.56789 0.75831 0.0
O758 O 0.34902 0.58643 0.73846 0.0
O759 O 0.79809 0.09419 0.03712 0.0
Cd760 Cd 0.81167 0.07831 0.01497 0.0
O761 O 0.80874 0.07385 0.05188 0.0
Cd762 Cd 0.81508 0.06166 0.07549 0.0
O763 O 0.81897 0.05511 0.10163 0.0
C764 C 0.81973 0.0401 0.10665 0.0
O765 O 0.81833 0.02783 0.0959 0.0
C766 C 0.80089 0.08764 0.05126 0.0
C767 C 0.83147 0.09855 0.99492 0.0
O768 O 0.81773 0.09255 0.9894 0.0
O769 O 0.83592 0.09504 0.00984 0.0
O770 O 0.67126 0.03872 0.78399 0.0
Cd771 Cd 0.67961 0.05806 0.7619 0.0
O772 O 0.66315 0.06221 0.79525 0.0
Cd773 Cd 0.65757 0.07696 0.8174 0.0
O774 O 0.66223 0.08591 0.8426 0.0
C775 C 0.67669 0.09149 0.84593 0.0
O776 O 0.68794 0.09239 0.83405 0.0
C777 C 0.66516 0.04651 0.79635 0.0
C778 C 0.65322 0.07429 0.74622 0.0
O779 O 0.66142 0.06285 0.73867 0.0
O780 O 0.65727 0.078 0.7612 0.0
O781 O 0.82695 0.96116 0.28433 0.0
Cd782 Cd 0.81961 0.94199 0.26177 0.0
O783 O 0.83521 0.93766 0.29549 0.0
Cd784 Cd 0.84076 0.92282 0.3176 0.0
O785 O 0.83646 0.91404 0.34294 0.0
C786 C 0.82196 0.90879 0.34663 0.0
O787 O 0.81043 0.9081 0.33501 0.0
C788 C 0.83291 0.95331 0.29672 0.0
C789 C 0.84684 0.92686 0.24644 0.0
O790 O 0.83847 0.93817 0.23888 0.0
O791 O 0.84256 0.92276 0.26126 0.0
O792 O 0.43271 0.3404 0.11622 0.0
Cd793 Cd 0.4512 0.36296 0.10736 0.0
O794 O 0.43546 0.32629 0.0928 0.0
Cd795 Cd 0.44355 0.34916 0.08043 0.0
O796 O 0.42752 0.37055 0.07507 0.0
C797 C 0.4165 0.36863 0.06384 0.0
O798 O 0.41661 0.35496 0.05481 0.0
C799 C 0.43011 0.32727 0.10771 0.0
C800 C 0.48431 0.35549 0.11483 0.0
O801 O 0.47516 0.36342 0.12527 0.0
O802 O 0.47791 0.35113 0.10086 0.0
O803 O 0.40945 0.68486 0.86473 0.0
Cd804 Cd 0.38843 0.70555 0.85702 0.0
O805 O 0.42166 0.68437 0.84012 0.0
Cd806 Cd 0.399 0.69434 0.82882 0.0
O807 O 0.37841 0.6774 0.82314 0.0
C808 C 0.38168 0.66591 0.81272 0.0
O809 O 0.39603 0.66619 0.8048 0.0
C810 C 0.42131 0.68003 0.85537 0.0
C811 C 0.39493 0.73637 0.87183 0.0
O812 O 0.3872 0.72486 0.87978 0.0
O813 O 0.39963 0.73343 0.85683 0.0
O814 O 0.06438 0.66137 0.6144 0.0
Cd815 Cd 0.0451 0.63886 0.6073 0.0
O816 O 0.06209 0.67452 0.59039 0.0
Cd817 Cd 0.0535 0.65125 0.57919 0.0
O818 O 0.07062 0.63068 0.57396 0.0
C819 C 0.08208 0.6337 0.56342 0.0
O820 O 0.08175 0.64784 0.55513 0.0
C821 C 0.06746 0.674 0.6053 0.0
C822 C 0.01413 0.64366 0.62243 0.0
O823 O 0.02618 0.63675 0.63032 0.0
O824 O 0.01659 0.64832 0.60733 0.0
O825 O 0.09282 0.32144 0.36476 0.0
Cd826 Cd 0.11307 0.30123 0.3542 0.0
O827 O 0.07766 0.32096 0.34184 0.0
Cd828 Cd 0.09893 0.31137 0.32783 0.0
O829 O 0.11889 0.32794 0.31949 0.0
C830 C 0.11483 0.33893 0.3088 0.0
O831 O 0.09991 0.33833 0.30205 0.0
C832 C 0.07972 0.32564 0.35686 0.0
C833 C 0.10396 0.26859 0.36215 0.0
O834 O 0.11313 0.27717 0.37204 0.0
O835 O 0.09906 0.27537 0.34853 0.0
O836 O 0.43111 0.66019 0.38642 0.0
Cd837 Cd 0.44979 0.63815 0.39614 0.0
O838 O 0.43325 0.67496 0.40948 0.0
Cd839 Cd 0.44122 0.65255 0.42276 0.0
O840 O 0.42507 0.63165 0.4296 0.0
C841 C 0.41427 0.63424 0.44091 0.0
O842 O 0.41462 0.64837 0.44921 0.0
C843 C 0.42819 0.67351 0.39452 0.0
C844 C 0.48272 0.64497 0.38731 0.0
O845 O 0.47318 0.63668 0.37752 0.0
O846 O 0.47679 0.65001 0.40127 0.0
O847 O 0.093 0.67854 0.13479 0.0
Cd848 Cd 0.11318 0.69876 0.14545 0.0
O849 O 0.07777 0.67894 0.15766 0.0
Cd850 Cd 0.09898 0.6885 0.17177 0.0
O851 O 0.11892 0.67197 0.18025 0.0
C852 C 0.11483 0.66102 0.19097 0.0
O853 O 0.09989 0.66162 0.19768 0.0
C854 C 0.07988 0.67431 0.14264 0.0
C855 C 0.10406 0.73139 0.1375 0.0
O856 O 0.11328 0.72284 0.12763 0.0
O857 O 0.09912 0.72459 0.1511 0.0
O858 O 0.06173 0.33807 0.88604 0.0
Cd859 Cd 0.04267 0.3609 0.89271 0.0
O860 O 0.0595 0.32548 0.91035 0.0
Cd861 Cd 0.05109 0.34909 0.92099 0.0
O862 O 0.06757 0.37045 0.92499 0.0
C863 C 0.07905 0.3686 0.93577 0.0
O864 O 0.07916 0.35511 0.94507 0.0
C865 C 0.06476 0.32562 0.89539 0.0
C866 C 0.01191 0.35623 0.87719 0.0
O867 O 0.02413 0.36298 0.86941 0.0
O868 O 0.0141 0.3517 0.89236 0.0
O869 O 0.41072 0.318 0.63656 0.0
Cd870 Cd 0.38877 0.29923 0.6463 0.0
O871 O 0.42534 0.31602 0.65973 0.0
Cd872 Cd 0.40285 0.30815 0.67293 0.0
O873 O 0.38187 0.32428 0.67951 0.0
C874 C 0.38434 0.33514 0.69079 0.0
O875 O 0.3984 0.33486 0.69919 0.0
C876 C 0.42398 0.321 0.64473 0.0
C877 C 0.39624 0.26622 0.63828 0.0
O878 O 0.38789 0.2754 0.62821 0.0
O879 O 0.40103 0.27255 0.65215 0.0
O880 O 0.11348 0.43778 0.33804 0.0
Cd881 Cd 0.10673 0.45687 0.36082 0.0
O882 O 0.08917 0.4399 0.32545 0.0
Cd883 Cd 0.07845 0.44821 0.34906 0.0
O884 O 0.07419 0.43174 0.3704 0.0
C885 C 0.0633 0.42036 0.36854 0.0
O886 O 0.05404 0.42033 0.35503 0.0
C887 C 0.10415 0.43471 0.3256 0.0
C888 C 0.12233 0.4876 0.35611 0.0
O889 O 0.13006 0.47538 0.36291 0.0
O890 O 0.10716 0.48543 0.35156 0.0
O891 O 0.31833 0.36459 0.09263 0.0
Cd892 Cd 0.29834 0.35412 0.11313 0.0
O893 O 0.3186 0.34117 0.07825 0.0
Cd894 Cd 0.30928 0.32759 0.09994 0.0
O895 O 0.3252 0.32025 0.1208 0.0
C896 C 0.33616 0.30918 0.11786 0.0
O897 O 0.33598 0.30142 0.10343 0.0
C898 C 0.32281 0.35639 0.07981 0.0
C899 C 0.26567 0.3619 0.10408 0.0
O900 O 0.27422 0.37187 0.11318 0.0
O901 O 0.27248 0.34827 0.09924 0.0
O902 O 0.38464 0.56496 0.84126 0.0
Cd903 Cd 0.39236 0.54435 0.86238 0.0
O904 O 0.40924 0.56538 0.82904 0.0
Cd905 Cd 0.42061 0.55547 0.85169 0.0
O906 O 0.42671 0.57257 0.87202 0.0
C907 C 0.43723 0.5839 0.86852 0.0
O908 O 0.44501 0.58337 0.8541 0.0
C909 C 0.394 0.56974 0.82938 0.0
C910 C 0.37748 0.51349 0.85618 0.0
O911 O 0.36957 0.52507 0.86385 0.0
O912 O 0.39245 0.51638 0.85138 0.0
O913 O 0.18326 0.63723 0.59103 0.0
Cd914 Cd 0.20414 0.64545 0.61168 0.0
O915 O 0.18242 0.66161 0.57838 0.0
Cd916 Cd 0.19237 0.67363 0.60067 0.0
O917 O 0.17516 0.68072 0.6206 0.0
C918 C 0.16392 0.69118 0.61661 0.0
O919 O 0.16458 0.69836 0.60189 0.0
C920 C 0.17824 0.64633 0.57906 0.0
C921 C 0.23479 0.63007 0.60562 0.0
O922 O 0.2232 0.6225 0.61361 0.0
O923 O 0.23201 0.64493 0.60045 0.0
O924 O 0.11368 0.56227 0.16183 0.0
Cd925 Cd 0.10694 0.54326 0.13898 0.0
O926 O 0.08931 0.56019 0.17433 0.0
Cd927 Cd 0.07865 0.55194 0.15067 0.0
O928 O 0.0745 0.56835 0.12927 0.0
C929 C 0.06356 0.5797 0.131 0.0
O930 O 0.05418 0.57974 0.14444 0.0
C931 C 0.1043 0.56535 0.17424 0.0
C932 C 0.12233 0.51241 0.14367 0.0
O933 O 0.13017 0.5246 0.13692 0.0
O934 O 0.10717 0.51467 0.14819 0.0
O935 O 0.17811 0.3647 0.90588 0.0
Cd936 Cd 0.1984 0.35423 0.88566 0.0
O937 O 0.17865 0.3418 0.92108 0.0
Cd938 Cd 0.18843 0.32781 0.89989 0.0
O939 O 0.17174 0.31934 0.88009 0.0
C940 C 0.16074 0.30876 0.88436 0.0
O941 O 0.16139 0.30218 0.89936 0.0
C942 C 0.1739 0.35679 0.91898 0.0
C943 C 0.23096 0.36264 0.89457 0.0
O944 O 0.22221 0.37239 0.88541 0.0
O945 O 0.22439 0.34895 0.89957 0.0
O946 O 0.38633 0.43199 0.66056 0.0
Cd947 Cd 0.3959 0.45071 0.63848 0.0
O948 O 0.40963 0.43391 0.67498 0.0
Cd949 Cd 0.42268 0.44173 0.65239 0.0
O950 O 0.42932 0.42551 0.6315 0.0
C951 C 0.44067 0.41472 0.63399 0.0
O952 O 0.44911 0.41513 0.64803 0.0
C953 C 0.3946 0.42897 0.67375 0.0
C954 C 0.3872 0.48365 0.64544 0.0
O955 O 0.37734 0.47416 0.63719 0.0
O956 O 0.40117 0.47767 0.65039 0.0
O957 O 0.31759 0.63637 0.41086 0.0
Cd958 Cd 0.29882 0.64588 0.38882 0.0
O959 O 0.31536 0.65956 0.42542 0.0
Cd960 Cd 0.3074 0.6726 0.40288 0.0
O961 O 0.32347 0.67904 0.3818 0.0
C962 C 0.33432 0.69036 0.38416 0.0
O963 O 0.33404 0.69888 0.39815 0.0
C964 C 0.32048 0.6446 0.42411 0.0
C965 C 0.26584 0.63782 0.39635 0.0
O966 O 0.27504 0.62771 0.38805 0.0
O967 O 0.27213 0.65173 0.40106 0.0
O968 O 0.33789 0.11369 0.43793 0.0
Cd969 Cd 0.36072 0.10702 0.457 0.0
O970 O 0.32525 0.08941 0.44026 0.0
Cd971 Cd 0.34885 0.07876 0.44869 0.0
O972 O 0.37025 0.07471 0.43226 0.0
C973 C 0.36846 0.06388 0.42081 0.0
O974 O 0.35498 0.05456 0.42071 0.0
C975 C 0.32543 0.10436 0.43495 0.0
C976 C 0.35595 0.12253 0.48776 0.0
O977 O 0.36273 0.13031 0.47556 0.0
O978 O 0.35145 0.10735 0.48555 0.0
O979 O 0.84003 0.38554 0.56177 0.0
Cd980 Cd 0.86137 0.39315 0.54137 0.0
O981 O 0.82858 0.41049 0.56292 0.0
Cd982 Cd 0.85163 0.42138 0.55338 0.0
O983 O 0.87295 0.4261 0.56971 0.0
C984 C 0.87079 0.43685 0.58116 0.0
O985 O 0.85701 0.44572 0.58126 0.0
C986 C 0.82843 0.39511 0.56681 0.0
C987 C 0.85543 0.37794 0.51064 0.0
O988 O 0.86303 0.37018 0.52235 0.0
O989 O 0.8506 0.39294 0.51332 0.0
O990 O 0.36458 0.09371 0.32187 0.0
Cd991 Cd 0.35406 0.11395 0.30163 0.0
O992 O 0.34177 0.0784 0.32123 0.0
Cd993 Cd 0.32771 0.09956 0.31146 0.0
O994 O 0.31922 0.11942 0.32807 0.0
C995 C 0.30859 0.11522 0.33906 0.0
O996 O 0.30198 0.10024 0.33843 0.0
C997 C 0.35674 0.08056 0.32602 0.0
C998 C 0.3622 0.10491 0.26903 0.0
O999 O 0.37204 0.11407 0.27767 0.0
O1000 O 0.34854 0.09998 0.27572 0.0
O1001 O 0.66167 0.61228 0.06575 0.0
Cd1002 Cd 0.63957 0.60446 0.04625 0.0
O1003 O 0.67494 0.58827 0.06442 0.0
Cd1004 Cd 0.65189 0.57637 0.05616 0.0
O1005 O 0.63183 0.56981 0.07346 0.0
C1006 C 0.63534 0.55904 0.08456 0.0
O1007 O 0.64974 0.55124 0.08383 0.0
C1008 C 0.67428 0.60334 0.06929 0.0
C1009 C 0.64414 0.61988 0.01537 0.0
O1010 O 0.63689 0.62751 0.0274 0.0
O1011 O 0.64923 0.60493 0.01781 0.0
O1012 O 0.63847 0.41303 0.31276 0.0
Cd1013 Cd 0.64589 0.39071 0.29339 0.0
O1014 O 0.66277 0.42578 0.31157 0.0
Cd1015 Cd 0.67413 0.40241 0.3034 0.0
O1016 O 0.67958 0.38143 0.31999 0.0
C1017 C 0.69067 0.38375 0.33107 0.0
O1018 O 0.69948 0.39757 0.33078 0.0
C1019 C 0.64764 0.42546 0.31631 0.0
C1020 C 0.63033 0.3955 0.26263 0.0
O1021 O 0.62268 0.38839 0.27473 0.0
O1022 O 0.64539 0.40032 0.26492 0.0
O1023 O 0.15826 0.88561 0.93725 0.0
Cd1024 Cd 0.13704 0.89327 0.95776 0.0
O1025 O 0.17015 0.91036 0.93644 0.0
Cd1026 Cd 0.14731 0.92144 0.94625 0.0
O1027 O 0.12609 0.92628 0.92983 0.0
C1028 C 0.12849 0.93685 0.91826 0.0
O1029 O 0.14242 0.94548 0.91812 0.0
C1030 C 0.17001 0.89504 0.93233 0.0
C1031 C 0.14294 0.87773 0.98833 0.0
O1032 O 0.13523 0.87014 0.97658 0.0
O1033 O 0.1479 0.89271 0.98576 0.0
O1034 O 0.36436 0.90687 0.1814 0.0
Cd1035 Cd 0.35393 0.88637 0.20142 0.0
O1036 O 0.34089 0.92117 0.18106 0.0
Cd1037 Cd 0.32736 0.89947 0.19042 0.0
O1038 O 0.32003 0.87864 0.17446 0.0
C1039 C 0.30897 0.88162 0.1635 0.0
O1040 O 0.30122 0.89606 0.16371 0.0
C1041 C 0.35612 0.91965 0.17688 0.0
C1042 C 0.36183 0.89538 0.23407 0.0
O1043 O 0.37176 0.88628 0.22547 0.0
O1044 O 0.34818 0.90025 0.22732 0.0
O1045 O 0.13511 0.09344 0.67817 0.0
Cd1046 Cd 0.14568 0.11359 0.69846 0.0
O1047 O 0.15796 0.07818 0.67867 0.0
Cd1048 Cd 0.17202 0.09936 0.68839 0.0
O1049 O 0.18042 0.11928 0.67179 0.0
C1050 C 0.19104 0.11514 0.66077 0.0
O1051 O 0.1977 0.10018 0.66135 0.0
C1052 C 0.14297 0.08032 0.67396 0.0
C1053 C 0.13749 0.10445 0.73103 0.0
O1054 O 0.1277 0.1137 0.72242 0.0
O1055 O 0.15113 0.09949 0.72432 0.0
O1056 O 0.06674 0.21277 0.38871 0.0
Cd1057 Cd 0.09248 0.2179 0.37293 0.0
O1058 O 0.08096 0.19977 0.40829 0.0
Cd1059 Cd 0.10591 0.20267 0.39801 0.0
O1060 O 0.13239 0.19683 0.39948 0.0
C1061 C 0.13616 0.1821 0.40399 0.0
O1062 O 0.12423 0.1712 0.40671 0.0
C1063 C 0.06715 0.20483 0.40244 0.0
C1064 C 0.09956 0.25127 0.36612 0.0
O1065 O 0.09072 0.24257 0.35604 0.0
O1066 O 0.10479 0.24437 0.37956 0.0
O1067 O 0.04505 0.82232 0.65323 0.0
Cd1068 Cd 0.03542 0.85054 0.64582 0.0
O1069 O 0.0274 0.81642 0.67348 0.0
Cd1070 Cd 0.01944 0.8424 0.67378 0.0
O1071 O 0.02216 0.86936 0.67671 0.0
C1072 C 0.03701 0.87485 0.67746 0.0
O1073 O 0.04954 0.86433 0.67646 0.0
C1074 C 0.03933 0.81212 0.66397 0.0
C1075 C 0.00433 0.85312 0.63024 0.0
O1076 O 0.01734 0.84916 0.62183 0.0
O1077 O 0.00587 0.85549 0.64595 0.0
O1078 O 0.42972 0.79318 0.90215 0.0
Cd1079 Cd 0.40141 0.78407 0.89439 0.0
O1080 O 0.43475 0.77594 0.92298 0.0
Cd1081 Cd 0.40864 0.76838 0.92291 0.0
O1082 O 0.38167 0.77122 0.92568 0.0
C1083 C 0.37615 0.78607 0.92585 0.0
O1084 O 0.38664 0.79857 0.92436 0.0
C1085 C 0.43953 0.78752 0.91327 0.0
C1086 C 0.39785 0.75267 0.87962 0.0
O1087 O 0.40256 0.76525 0.87095 0.0
O1088 O 0.39524 0.75475 0.89523 0.0
O1089 O 0.45549 0.17758 0.15362 0.0
Cd1090 Cd 0.46426 0.14924 0.14558 0.0
O1091 O 0.47358 0.18274 0.17366 0.0
Cd1092 Cd 0.48078 0.15655 0.17359 0.0
O1093 O 0.47726 0.12969 0.1766 0.0
C1094 C 0.46227 0.12461 0.17735 0.0
O1095 O 0.45004 0.13547 0.17626 0.0
C1096 C 0.46163 0.18747 0.1644 0.0
C1097 C 0.49533 0.14583 0.13009 0.0
O1098 O 0.48256 0.15061 0.12174 0.0
O1099 O 0.49358 0.14304 0.14571 0.0
O1100 O 0.06682 0.78721 0.11096 0.0
Cd1101 Cd 0.09255 0.78207 0.12673 0.0
O1102 O 0.08104 0.80036 0.09146 0.0
Cd1103 Cd 0.10599 0.79736 0.10169 0.0
O1104 O 0.13256 0.80281 0.10019 0.0
C1105 C 0.13657 0.81748 0.09571 0.0
O1106 O 0.12482 0.82857 0.09302 0.0
C1107 C 0.06723 0.79524 0.09728 0.0
C1108 C 0.09965 0.74871 0.13353 0.0
O1109 O 0.09079 0.7574 0.14361 0.0
O1110 O 0.1049 0.75562 0.1201 0.0
O1111 O 0.45502 0.82147 0.34664 0.0
Cd1112 Cd 0.46404 0.84977 0.35455 0.0
O1113 O 0.47283 0.81617 0.32637 0.0
Cd1114 Cd 0.48034 0.84228 0.32642 0.0
O1115 O 0.47717 0.8692 0.32358 0.0
C1116 C 0.46225 0.87449 0.32292 0.0
O1117 O 0.44988 0.86379 0.32396 0.0
C1118 C 0.46095 0.81154 0.33578 0.0
C1119 C 0.49519 0.85311 0.36987 0.0
O1120 O 0.48244 0.84843 0.37831 0.0
O1121 O 0.49338 0.85582 0.35424 0.0
O1122 O 0.43208 0.20982 0.61178 0.0
Cd1123 Cd 0.40604 0.21535 0.62688 0.0
O1124 O 0.4181 0.19895 0.59079 0.0
Cd1125 Cd 0.393 0.20233 0.60052 0.0
O1126 O 0.36649 0.19671 0.59899 0.0
C1127 C 0.36261 0.18187 0.59498 0.0
O1128 O 0.37446 0.17077 0.59276 0.0
C1129 C 0.43188 0.20285 0.59753 0.0
C1130 C 0.39997 0.24878 0.63417 0.0
O1131 O 0.40813 0.23955 0.64435 0.0
O1132 O 0.39491 0.24237 0.62043 0.0
O1133 O 0.04416 0.17684 0.84591 0.0
Cd1134 Cd 0.03477 0.14852 0.8532 0.0
O1135 O 0.02616 0.18287 0.82602 0.0
Cd1136 Cd 0.01851 0.15681 0.82546 0.0
O1137 O 0.02178 0.12995 0.82225 0.0
C1138 C 0.03674 0.1248 0.82126 0.0
O1139 O 0.04904 0.13558 0.82222 0.0
C1140 C 0.0382 0.18713 0.8354 0.0
C1141 C 0.00378 0.14581 0.86896 0.0
O1142 O 0.01682 0.14978 0.8773 0.0
O1143 O 0.00525 0.14344 0.85324 0.0
O1144 O 0.38893 0.06762 0.21342 0.0
Cd1145 Cd 0.37332 0.09348 0.21842 0.0
O1146 O 0.4083 0.08156 0.1998 0.0
Cd1147 Cd 0.39819 0.1066 0.20258 0.0
O1148 O 0.3997 0.13312 0.19694 0.0
C1149 C 0.40408 0.13704 0.18222 0.0
O1150 O 0.40667 0.12522 0.17117 0.0
C1151 C 0.4025 0.06786 0.20521 0.0
C1152 C 0.36628 0.10054 0.25173 0.0
O1153 O 0.35622 0.09176 0.24293 0.0
O1154 O 0.3798 0.10572 0.24495 0.0
O1155 O 0.17657 0.15367 0.45548 0.0
Cd1156 Cd 0.14826 0.14629 0.46483 0.0
O1157 O 0.18244 0.17364 0.47344 0.0
Cd1158 Cd 0.15633 0.17412 0.48095 0.0
O1159 O 0.12948 0.17719 0.47752 0.0
C1160 C 0.1244 0.17809 0.46254 0.0
O1161 O 0.13526 0.17716 0.4503 0.0
C1162 C 0.18679 0.16424 0.46144 0.0
C1163 C 0.14557 0.13062 0.49588 0.0
O1164 O 0.14958 0.12226 0.48286 0.0
O1165 O 0.14316 0.14633 0.49436 0.0
O1166 O 0.10996 0.93336 0.71089 0.0
Cd1167 Cd 0.12571 0.90759 0.71587 0.0
O1168 O 0.08993 0.91906 0.6987 0.0
Cd1169 Cd 0.10029 0.89416 0.7016 0.0
O1170 O 0.09935 0.86763 0.69588 0.0
C1171 C 0.0953 0.86369 0.68107 0.0
O1172 O 0.09268 0.8755 0.67002 0.0
C1173 C 0.096 0.93292 0.70338 0.0
C1174 C 0.13146 0.89975 0.74925 0.0
O1175 O 0.1419 0.90864 0.74102 0.0
O1176 O 0.11816 0.89483 0.74187 0.0
O1177 O 0.31938 0.85939 0.959 0.0
Cd1178 Cd 0.34564 0.8741 0.96442 0.0
O1179 O 0.33299 0.83845 0.94758 0.0
Cd1180 Cd 0.35818 0.84797 0.95074 0.0
O1181 O 0.3847 0.84678 0.94506 0.0
C1182 C 0.38865 0.84327 0.93012 0.0
O1183 O 0.37687 0.84131 0.9189 0.0
C1184 C 0.31934 0.84525 0.95182 0.0
C1185 C 0.35181 0.88098 0.9979 0.0
O1186 O 0.3439 0.89142 0.98874 0.0
O1187 O 0.3566 0.8672 0.99137 0.0
O1188 O 0.38858 0.93271 0.28959 0.0
Cd1189 Cd 0.37268 0.90702 0.28469 0.0
O1190 O 0.40853 0.91838 0.3019 0.0
Cd1191 Cd 0.39817 0.89348 0.29898 0.0
O1192 O 0.39944 0.86688 0.30434 0.0
C1193 C 0.40389 0.86277 0.31899 0.0
O1194 O 0.40669 0.87445 0.33013 0.0
C1195 C 0.40252 0.93224 0.29714 0.0
C1196 C 0.36581 0.8998 0.25138 0.0
O1197 O 0.35575 0.90869 0.26007 0.0
O1198 O 0.37925 0.89458 0.25827 0.0
O1199 O 0.32241 0.1539 0.54402 0.0
Cd1200 Cd 0.3508 0.14658 0.53487 0.0
O1201 O 0.31673 0.17402 0.52614 0.0
Cd1202 Cd 0.34286 0.17444 0.51869 0.0
O1203 O 0.36978 0.17721 0.52196 0.0
C1204 C 0.37493 0.17813 0.53692 0.0
O1205 O 0.36411 0.17741 0.54921 0.0
C1206 C 0.31227 0.16455 0.53805 0.0
C1207 C 0.35369 0.13079 0.50392 0.0
O1208 O 0.34967 0.12246 0.51697 0.0
O1209 O 0.35601 0.14652 0.50537 0.0
O1210 O 0.1104 0.0671 0.78643 0.0
Cd1211 Cd 0.12631 0.09281 0.78159 0.0
O1212 O 0.09072 0.0813 0.79931 0.0
Cd1213 Cd 0.10112 0.10622 0.79664 0.0
O1214 O 0.0998 0.13268 0.80263 0.0
C1215 C 0.09535 0.13639 0.81738 0.0
O1216 O 0.0926 0.12442 0.82823 0.0
C1217 C 0.09659 0.0675 0.79424 0.0
C1218 C 0.13339 0.10001 0.74832 0.0
O1219 O 0.14337 0.0911 0.75705 0.0
O1220 O 0.11992 0.10528 0.75513 0.0
O1221 O 0.17735 0.84584 0.04426 0.0
Cd1222 Cd 0.14903 0.8539 0.03548 0.0
O1223 O 0.1826 0.82586 0.02611 0.0
Cd1224 Cd 0.15644 0.82596 0.01883 0.0
O1225 O 0.12957 0.82303 0.02232 0.0
C1226 C 0.12449 0.82218 0.03731 0.0
O1227 O 0.13536 0.82309 0.04954 0.0
C1228 C 0.18728 0.83509 0.03811 0.0
C1229 C 0.14565 0.86951 0.00446 0.0
O1230 O 0.15041 0.87781 0.01726 0.0
O1231 O 0.14287 0.85388 0.00615 0.0
O1232 O 0.21025 0.38853 0.06657 0.0
Cd1233 Cd 0.21506 0.37262 0.09228 0.0
O1234 O 0.19855 0.40884 0.0809 0.0
Cd1235 Cd 0.20137 0.39846 0.10582 0.0
O1236 O 0.19569 0.3998 0.13234 0.0
C1237 C 0.18101 0.40435 0.13623 0.0
O1238 O 0.17005 0.40719 0.12438 0.0
C1239 C 0.20303 0.40266 0.06704 0.0
C1240 C 0.24836 0.36583 0.09961 0.0
O1241 O 0.23973 0.35574 0.09071 0.0
O1242 O 0.24141 0.37926 0.10482 0.0
O1243 O 0.7131 0.10962 0.93222 0.0
Cd1244 Cd 0.718 0.12559 0.90656 0.0
O1245 O 0.69973 0.09027 0.91802 0.0
Cd1246 Cd 0.70239 0.10077 0.89315 0.0
O1247 O 0.69612 0.09955 0.86676 0.0
C1248 C 0.6813 0.09518 0.86321 0.0
O1249 O 0.67059 0.09245 0.87531 0.0
C1250 C 0.70503 0.09596 0.93181 0.0
C1251 C 0.75125 0.1329 0.8995 0.0
O1252 O 0.74241 0.14281 0.90839 0.0
O1253 O 0.74455 0.11939 0.8942 0.0
O1254 O 0.15345 0.45574 0.17691 0.0
Cd1255 Cd 0.14617 0.46515 0.14859 0.0
O1256 O 0.17357 0.47354 0.18278 0.0
Cd1257 Cd 0.17404 0.48119 0.15671 0.0
O1258 O 0.17699 0.47796 0.12981 0.0
C1259 C 0.17789 0.46301 0.12462 0.0
O1260 O 0.17703 0.45069 0.1354 0.0
C1261 C 0.16408 0.46161 0.18712 0.0
C1262 C 0.13052 0.4962 0.14587 0.0
O1263 O 0.12214 0.48318 0.14984 0.0
O1264 O 0.14624 0.49469 0.14353 0.0
O1265 O 0.78863 0.88976 0.43367 0.0
Cd1266 Cd 0.78365 0.87412 0.40784 0.0
O1267 O 0.80014 0.91022 0.4194 0.0
Cd1268 Cd 0.79715 0.9 0.39445 0.0
O1269 O 0.80286 0.90112 0.36793 0.0
C1270 C 0.81767 0.90521 0.36402 0.0
O1271 O 0.82872 0.90773 0.37585 0.0
C1272 C 0.7958 0.90391 0.43326 0.0
C1273 C 0.75028 0.86838 0.4 0.0
O1274 O 0.75852 0.85791 0.40885 0.0
O1275 O 0.75765 0.8817 0.39511 0.0
O1276 O 0.84615 0.04421 0.17689 0.0
Cd1277 Cd 0.8535 0.03479 0.1486 0.0
O1278 O 0.82604 0.02638 0.18277 0.0
Cd1279 Cd 0.82563 0.01869 0.15671 0.0
O1280 O 0.82271 0.02172 0.12979 0.0
C1281 C 0.82187 0.03663 0.12447 0.0
O1282 O 0.82276 0.04904 0.13514 0.0
C1283 C 0.8355 0.03834 0.1871 0.0
C1284 C 0.8692 0.00378 0.14593 0.0
O1285 O 0.87756 0.01681 0.1499 0.0
O1286 O 0.85349 0.00526 0.14357 0.0
O1287 O 0.29111 0.59857 0.5713 0.0
Cd1288 Cd 0.28219 0.6067 0.59958 0.0
O1289 O 0.27323 0.57828 0.56634 0.0
Cd1290 Cd 0.26612 0.57851 0.59257 0.0
O1291 O 0.26994 0.57568 0.61941 0.0
C1292 C 0.285 0.57482 0.62429 0.0
O1293 O 0.29709 0.57573 0.61326 0.0
C1294 C 0.28507 0.58764 0.56151 0.0
C1295 C 0.25099 0.62198 0.60291 0.0
O1296 O 0.26368 0.63037 0.59801 0.0
O1297 O 0.25286 0.6064 0.60585 0.0
O1298 O 0.15378 0.54388 0.32263 0.0
Cd1299 Cd 0.14653 0.53465 0.35101 0.0
O1300 O 0.17381 0.52596 0.31679 0.0
Cd1301 Cd 0.1743 0.51839 0.34289 0.0
O1302 O 0.17718 0.52148 0.36982 0.0
C1303 C 0.17823 0.5364 0.37506 0.0
O1304 O 0.17758 0.54876 0.36431 0.0
C1305 C 0.16436 0.53791 0.31242 0.0
C1306 C 0.13064 0.50375 0.35387 0.0
O1307 O 0.12235 0.51682 0.34989 0.0
O1308 O 0.14638 0.50513 0.35616 0.0
O1309 O 0.3471 0.45659 0.82179 0.0
Cd1310 Cd 0.35483 0.46577 0.85009 0.0
O1311 O 0.32666 0.4742 0.81649 0.0
Cd1312 Cd 0.32652 0.48151 0.84265 0.0
O1313 O 0.3234 0.478 0.86951 0.0
C1314 C 0.32291 0.463 0.87463 0.0
O1315 O 0.32434 0.45076 0.86383 0.0
C1316 C 0.33621 0.46244 0.81184 0.0
C1317 C 0.36965 0.49718 0.85342 0.0
O1318 O 0.37828 0.48456 0.84875 0.0
O1319 O 0.35405 0.49512 0.85613 0.0
O1320 O 0.92074 0.79905 0.60127 0.0
Cd1321 Cd 0.90259 0.77756 0.61289 0.0
O1322 O 0.91491 0.81472 0.62313 0.0
Cd1323 Cd 0.89186 0.80122 0.62873 0.0
O1324 O 0.86646 0.79814 0.6193 0.0
C1325 C 0.85434 0.80646 0.62524 0.0
O1326 O 0.85672 0.81591 0.6384 0.0
C1327 C 0.92347 0.812 0.61002 0.0
C1328 C 0.91901 0.76142 0.63893 0.0
O1329 O 0.91362 0.77633 0.64061 0.0
O1330 O 0.91654 0.7539 0.62505 0.0
O1331 O 0.94448 0.15815 0.35644 0.0
Cd1332 Cd 0.9646 0.13986 0.37007 0.0
O1333 O 0.92738 0.15495 0.37775 0.0
Cd1334 Cd 0.93976 0.13182 0.3853 0.0
O1335 O 0.94485 0.10687 0.37546 0.0
C1336 C 0.93586 0.09438 0.37929 0.0
O1337 O 0.92416 0.09602 0.39065 0.0
C1338 C 0.9313 0.16233 0.36423 0.0
C1339 C 0.98502 0.15908 0.39046 0.0
O1340 O 0.96988 0.15608 0.39453 0.0
O1341 O 0.99071 0.15281 0.37692 0.0
O1342 O 0.58469 0.19419 0.10181 0.0
Cd1343 Cd 0.60466 0.21426 0.11294 0.0
O1344 O 0.58695 0.17939 0.12491 0.0
Cd1345 Cd 0.61045 0.1914 0.13178 0.0
O1346 O 0.63577 0.19526 0.1224 0.0
C1347 C 0.64813 0.18697 0.12783 0.0
O1348 O 0.64611 0.17685 0.14056 0.0
C1349 C 0.57982 0.18217 0.11099 0.0
C1350 C 0.58871 0.23527 0.1355 0.0
O1351 O 0.59172 0.22005 0.13922 0.0
O1352 O 0.59334 0.24074 0.12122 0.0
O1353 O 0.5497 0.83729 0.85549 0.0
Cd1354 Cd 0.52883 0.85447 0.86943 0.0
O1355 O 0.56734 0.84331 0.87571 0.0
Cd1356 Cd 0.55383 0.86606 0.88247 0.0
O1357 O 0.54957 0.8912 0.87269 0.0
C1358 C 0.55875 0.9034 0.877 0.0
O1359 O 0.56998 0.90128 0.88874 0.0
C1360 C 0.56353 0.83479 0.86286 0.0
C1361 C 0.51296 0.8355 0.89383 0.0
O1362 O 0.52796 0.84055 0.89582 0.0
O1363 O 0.50524 0.83953 0.88044 0.0
O1364 O 0.92056 0.2002 0.89807 0.0
Cd1365 Cd 0.90222 0.22163 0.88663 0.0
O1366 O 0.91456 0.18444 0.87633 0.0
Cd1367 Cd 0.89153 0.19797 0.87076 0.0
O1368 O 0.86616 0.20117 0.88023 0.0
C1369 C 0.854 0.19291 0.87431 0.0
O1370 O 0.85632 0.18345 0.86115 0.0
C1371 C 0.92322 0.18721 0.88936 0.0
C1372 C 0.91827 0.23794 0.86046 0.0
O1373 O 0.913 0.22298 0.8588 0.0
O1374 O 0.91587 0.24541 0.87437 0.0
O1375 O 0.55528 0.16097 0.64838 0.0
Cd1376 Cd 0.53536 0.14135 0.6364 0.0
O1377 O 0.5707 0.15883 0.62568 0.0
Cd1378 Cd 0.55898 0.1352 0.61865 0.0
O1379 O 0.55468 0.10989 0.62794 0.0
C1380 C 0.5633 0.09749 0.62311 0.0
O1381 O 0.57422 0.09945 0.61105 0.0
C1382 C 0.56751 0.16591 0.63954 0.0
C1383 C 0.51468 0.15846 0.61441 0.0
O1384 O 0.52987 0.15538 0.61063 0.0
O1385 O 0.50906 0.15328 0.62845 0.0
O1386 O 0.5847 0.8049 0.39786 0.0
Cd1387 Cd 0.60445 0.78469 0.38655 0.0
O1388 O 0.58683 0.81961 0.37469 0.0
Cd1389 Cd 0.61032 0.80757 0.36775 0.0
O1390 O 0.63567 0.80391 0.37707 0.0
C1391 C 0.64792 0.8124 0.37168 0.0
O1392 O 0.64575 0.8226 0.35904 0.0
C1393 C 0.5798 0.81689 0.38867 0.0
C1394 C 0.58805 0.76378 0.36422 0.0
O1395 O 0.59117 0.77896 0.36043 0.0
O1396 O 0.5928 0.75829 0.37845 0.0
O1397 O 0.94448 0.84163 0.14336 0.0
Cd1398 Cd 0.96452 0.85997 0.12966 0.0
O1399 O 0.92729 0.8448 0.12212 0.0
Cd1400 Cd 0.93962 0.86794 0.11451 0.0
O1401 O 0.94477 0.89288 0.12435 0.0
C1402 C 0.93578 0.90539 0.12058 0.0
O1403 O 0.92403 0.90377 0.10928 0.0
C1404 C 0.93128 0.83744 0.13562 0.0
C1405 C 0.98499 0.8408 0.10926 0.0
O1406 O 0.96983 0.84373 0.10521 0.0
O1407 O 0.99067 0.84711 0.12278 0.0
O1408 O 0.60004 0.91915 0.79904 0.0
Cd1409 Cd 0.61214 0.90103 0.77779 0.0
O1410 O 0.62171 0.91365 0.81506 0.0
Cd1411 Cd 0.6275 0.89049 0.80183 0.0
O1412 O 0.61777 0.86522 0.79853 0.0
C1413 C 0.62313 0.85307 0.8072 0.0
O1414 O 0.63587 0.85534 0.81725 0.0
C1415 C 0.60857 0.92207 0.81209 0.0
C1416 C 0.63812 0.9177 0.7618 0.0
O1417 O 0.63972 0.91243 0.77677 0.0
O1418 O 0.62435 0.915 0.75417 0.0
O1419 O 0.84196 0.85613 0.55555 0.0
Cd1420 Cd 0.86049 0.86965 0.53556 0.0
O1421 O 0.84512 0.87742 0.57268 0.0
Cd1422 Cd 0.86828 0.88499 0.56037 0.0
O1423 O 0.89318 0.87511 0.55511 0.0
C1424 C 0.90574 0.87886 0.56404 0.0
O1425 O 0.9042 0.89017 0.57579 0.0
C1426 C 0.83774 0.86393 0.56872 0.0
C1427 C 0.84166 0.89057 0.51529 0.0
O1428 O 0.84468 0.89444 0.53047 0.0
O1429 O 0.84772 0.87697 0.50949 0.0
O1430 O 0.89809 0.07931 0.29973 0.0
Cd1431 Cd 0.8866 0.09759 0.27828 0.0
O1432 O 0.8763 0.08522 0.31547 0.0
Cd1433 Cd 0.87068 0.10824 0.30192 0.0
O1434 O 0.88018 0.13359 0.29869 0.0
C1435 C 0.87435 0.14575 0.30702 0.0
O1436 O 0.86125 0.14343 0.31659 0.0
C1437 C 0.88937 0.07662 0.31272 0.0
C1438 C 0.8605 0.08145 0.26196 0.0
O1439 O 0.85881 0.08672 0.27692 0.0
O1440 O 0.87442 0.08389 0.2545 0.0
O1441 O 0.66033 0.14131 0.05567 0.0
Cd1442 Cd 0.64183 0.12856 0.03518 0.0
O1443 O 0.65695 0.11952 0.07214 0.0
Cd1444 Cd 0.63394 0.11225 0.05938 0.0
O1445 O 0.60899 0.12209 0.05431 0.0
C1446 C 0.59637 0.11782 0.06291 0.0
O1447 O 0.59789 0.106 0.07416 0.0
C1448 C 0.66441 0.1331 0.06864 0.0
C1449 C 0.6606 0.10802 0.01449 0.0
O1450 O 0.65742 0.10375 0.02953 0.0
O1451 O 0.65474 0.12184 0.00901 0.0
O1452 O 0.60261 0.08187 0.69979 0.0
Cd1453 Cd 0.61436 0.1001 0.72112 0.0
O1454 O 0.62436 0.0876 0.68392 0.0
Cd1455 Cd 0.63009 0.1107 0.69729 0.0
O1456 O 0.6209 0.13616 0.7008 0.0
C1457 C 0.62668 0.14837 0.69249 0.0
O1458 O 0.63956 0.14606 0.68263 0.0
C1459 C 0.61127 0.07905 0.68679 0.0
C1460 C 0.6398 0.08324 0.73772 0.0
O1461 O 0.6418 0.08846 0.72278 0.0
O1462 O 0.62589 0.0861 0.74505 0.0
O1463 O 0.6602 0.85831 0.44408 0.0
Cd1464 Cd 0.64176 0.87099 0.46469 0.0
O1465 O 0.65684 0.8802 0.42774 0.0
Cd1466 Cd 0.63385 0.88741 0.44058 0.0
O1467 O 0.60893 0.87747 0.44562 0.0
C1468 C 0.59634 0.88164 0.43693 0.0
O1469 O 0.59787 0.8934 0.42563 0.0
C1470 C 0.66427 0.86658 0.43115 0.0
C1471 C 0.66059 0.89146 0.48539 0.0
O1472 O 0.65735 0.89578 0.47037 0.0
O1473 O 0.65476 0.87761 0.49083 0.0
O1474 O 0.89831 0.92054 0.20035 0.0
Cd1475 Cd 0.88684 0.90229 0.22185 0.0
O1476 O 0.87652 0.91456 0.18465 0.0
Cd1477 Cd 0.87097 0.89154 0.19823 0.0
O1478 O 0.88049 0.86619 0.2014 0.0
C1479 C 0.87461 0.85403 0.19311 0.0
O1480 O 0.86146 0.85635 0.18362 0.0
C1481 C 0.88958 0.92319 0.18736 0.0
C1482 C 0.86068 0.91843 0.2381 0.0
O1483 O 0.85903 0.9131 0.22316 0.0
O1484 O 0.87459 0.91605 0.24558 0.0
O1485 O 0.84193 0.14349 0.94398 0.0
Cd1486 Cd 0.86056 0.13005 0.96393 0.0
O1487 O 0.84504 0.12217 0.92688 0.0
Cd1488 Cd 0.86822 0.11459 0.93914 0.0
O1489 O 0.89315 0.12444 0.94435 0.0
C1490 C 0.9057 0.12063 0.93544 0.0
O1491 O 0.90414 0.10927 0.92374 0.0
C1492 C 0.83767 0.13567 0.93085 0.0
C1493 C 0.8418 0.10926 0.98441 0.0
O1494 O 0.84474 0.10531 0.96923 0.0
O1495 O 0.8479 0.12288 0.99011 0.0
O1496 O 0.79899 0.60147 0.92108 0.0
Cd1497 Cd 0.77731 0.61326 0.90329 0.0
O1498 O 0.81448 0.62349 0.91543 0.0
Cd1499 Cd 0.8009 0.62913 0.89244 0.0
O1500 O 0.79786 0.61967 0.86704 0.0
C1501 C 0.80625 0.62557 0.85494 0.0
O1502 O 0.81574 0.63871 0.85734 0.0
C1503 C 0.81189 0.61027 0.92386 0.0
C1504 C 0.76129 0.63894 0.92037 0.0
O1505 O 0.77612 0.64079 0.91478 0.0
O1506 O 0.7538 0.62507 0.91777 0.0
O1507 O 0.30076 0.89345 0.08304 0.0
Cd1508 Cd 0.2791 0.88114 0.10052 0.0
O1509 O 0.3171 0.87212 0.08897 0.0
Cd1510 Cd 0.30292 0.86571 0.11139 0.0
O1511 O 0.29891 0.87578 0.13641 0.0
C1512 C 0.30773 0.87095 0.14867 0.0
O1513 O 0.3182 0.85851 0.14666 0.0
C1514 C 0.31413 0.88526 0.08055 0.0
C1515 C 0.26248 0.85632 0.0828 0.0
O1516 O 0.27738 0.85408 0.08804 0.0
O1517 O 0.25522 0.87019 0.08601 0.0
O1518 O 0.85612 0.55569 0.84224 0.0
Cd1519 Cd 0.86973 0.53566 0.86065 0.0
O1520 O 0.8775 0.57275 0.84518 0.0
Cd1521 Cd 0.88519 0.56044 0.8683 0.0
O1522 O 0.87538 0.55521 0.89324 0.0
C1523 C 0.87907 0.56424 0.90574 0.0
O1524 O 0.89029 0.57607 0.90411 0.0
C1525 C 0.86393 0.56883 0.83792 0.0
C1526 C 0.89039 0.51529 0.84165 0.0
O1527 O 0.89435 0.53046 0.84461 0.0
O1528 O 0.87682 0.50954 0.84783 0.0
O1529 O 0.20009 0.10164 0.579 0.0
Cd1530 Cd 0.22159 0.11318 0.59719 0.0
O1531 O 0.18433 0.12336 0.58508 0.0
Cd1532 Cd 0.19792 0.1289 0.60807 0.0
O1533 O 0.20115 0.11935 0.63341 0.0
C1534 C 0.19289 0.12523 0.6456 0.0
O1535 O 0.18342 0.1384 0.64333 0.0
C1536 C 0.18707 0.11034 0.57641 0.0
C1537 C 0.23764 0.1394 0.58095 0.0
O1538 O 0.22272 0.141 0.58638 0.0
O1539 O 0.24519 0.12552 0.58329 0.0
O1540 O 0.14159 0.94367 0.83949 0.0
Cd1541 Cd 0.12892 0.96423 0.85797 0.0
O1542 O 0.11967 0.92737 0.84276 0.0
Cd1543 Cd 0.11241 0.94015 0.86576 0.0
O1544 O 0.12218 0.94527 0.89072 0.0
C1545 C 0.11784 0.93674 0.90336 0.0
O1546 O 0.10599 0.92553 0.90187 0.0
C1547 C 0.13331 0.93078 0.83535 0.0
C1548 C 0.10848 0.98492 0.8391 0.0
O1549 O 0.10415 0.96991 0.84236 0.0
O1550 O 0.12231 0.99037 0.84494 0.0
O1551 O 0.69975 0.39441 0.41205 0.0
Cd1552 Cd 0.72066 0.3809 0.39457 0.0
O1553 O 0.68222 0.3741 0.40599 0.0
Cd1554 Cd 0.69582 0.36738 0.38329 0.0
O1555 O 0.70024 0.37729 0.35823 0.0
C1556 C 0.69108 0.37311 0.34598 0.0
O1557 O 0.67979 0.36141 0.34799 0.0
C1558 C 0.68597 0.38694 0.41455 0.0
C1559 C 0.73697 0.35636 0.41297 0.0
O1560 O 0.72194 0.35429 0.40805 0.0
O1561 O 0.74451 0.36991 0.40909 0.0
O1562 O 0.85807 0.44405 0.65971 0.0
Cd1563 Cd 0.87099 0.46462 0.64139 0.0
O1564 O 0.87992 0.42763 0.65649 0.0
Cd1565 Cd 0.88726 0.4404 0.63351 0.0
O1566 O 0.87741 0.44548 0.60856 0.0
C1567 C 0.88152 0.43672 0.596 0.0
O1568 O 0.89318 0.42532 0.59757 0.0
C1569 C 0.86627 0.43109 0.66385 0.0
C1570 C 0.89136 0.48523 0.66043 0.0
O1571 O 0.89565 0.4702 0.65721 0.0
O1572 O 0.87759 0.49073 0.65447 0.0
O1573 O 0.64856 0.54941 0.16605 0.0
Cd1574 Cd 0.6359 0.52837 0.14811 0.0
O1575 O 0.6272 0.56586 0.16055 0.0
Cd1576 Cd 0.62117 0.55276 0.13736 0.0
O1577 O 0.63054 0.54922 0.11196 0.0
C1578 C 0.62527 0.55796 0.09983 0.0
O1579 O 0.61281 0.56834 0.10217 0.0
C1580 C 0.64027 0.56262 0.16898 0.0
C1581 C 0.61042 0.5125 0.16562 0.0
O1582 O 0.60868 0.52746 0.16035 0.0
O1583 O 0.62407 0.50481 0.16247 0.0
O1584 O 0.56904 0.71213 0.88981 0.0
Cd1585 Cd 0.59513 0.71795 0.87489 0.0
O1586 O 0.58283 0.69914 0.90971 0.0
Cd1587 Cd 0.60798 0.70243 0.90011 0.0
O1588 O 0.63432 0.69616 0.90211 0.0
C1589 C 0.63771 0.68129 0.90641 0.0
O1590 O 0.62552 0.67055 0.9086 0.0
C1591 C 0.56914 0.70406 0.90347 0.0
C1592 C 0.60056 0.75136 0.86689 0.0
O1593 O 0.59258 0.74176 0.8569 0.0
O1594 O 0.60572 0.74532 0.88076 0.0
O1595 O 0.54063 0.31924 0.14041 0.0
Cd1596 Cd 0.53526 0.34547 0.12559 0.0
O1597 O 0.55159 0.33292 0.16154 0.0
Cd1598 Cd 0.54847 0.35808 0.15189 0.0
O1599 O 0.55461 0.38449 0.15293 0.0
C1600 C 0.56965 0.38816 0.15631 0.0
O1601 O 0.58065 0.37616 0.15821 0.0
C1602 C 0.54757 0.31925 0.15467 0.0
C1603 C 0.50179 0.35173 0.1187 0.0
O1604 O 0.51093 0.34376 0.10828 0.0
O1605 O 0.50834 0.35654 0.13246 0.0
O1606 O 0.93251 0.28722 0.38903 0.0
Cd1607 Cd 0.90686 0.28203 0.37314 0.0
O1608 O 0.91819 0.30058 0.40829 0.0
Cd1609 Cd 0.89331 0.29759 0.3979 0.0
O1610 O 0.86677 0.30324 0.39903 0.0
C1611 C 0.86281 0.31799 0.40329 0.0
O1612 O 0.8746 0.32904 0.40597 0.0
C1613 C 0.93202 0.29537 0.40263 0.0
C1614 C 0.89982 0.24867 0.36629 0.0
O1615 O 0.9087 0.25739 0.35624 0.0
O1616 O 0.89454 0.25554 0.37972 0.0
O1617 O 0.95703 0.67674 0.65305 0.0
Cd1618 Cd 0.96658 0.64847 0.64573 0.0
O1619 O 0.97478 0.68262 0.6732 0.0
Cd1620 Cd 0.98232 0.65653 0.67372 0.0
O1621 O 0.97877 0.6297 0.67695 0.0
C1622 C 0.96376 0.62468 0.67776 0.0
O1623 O 0.95156 0.63557 0.67662 0.0
C1624 C 0.96287 0.68696 0.6637 0.0
C1625 C 0.99783 0.64585 0.63045 0.0
O1626 O 0.98493 0.64992 0.62194 0.0
O1627 O 0.99611 0.64336 0.64613 0.0
O1628 O 0.57129 0.29146 0.59871 0.0
Cd1629 Cd 0.59958 0.28256 0.60682 0.0
O1630 O 0.56634 0.27353 0.57847 0.0
Cd1631 Cd 0.5926 0.26655 0.57863 0.0
O1632 O 0.61939 0.2705 0.57551 0.0
C1633 C 0.62422 0.28558 0.57472 0.0
O1634 O 0.61317 0.29763 0.5759 0.0
C1635 C 0.56149 0.28537 0.58781 0.0
C1636 C 0.60294 0.25129 0.62199 0.0
O1637 O 0.59799 0.26394 0.63042 0.0
O1638 O 0.60591 0.25324 0.60643 0.0
O1639 O 0.95536 0.32304 0.84585 0.0
Cd1640 Cd 0.96476 0.35135 0.85314 0.0
O1641 O 0.97322 0.31714 0.82579 0.0
Cd1642 Cd 0.98092 0.34319 0.82533 0.0
O1643 O 0.97788 0.37012 0.82237 0.0
C1644 C 0.96298 0.37542 0.82147 0.0
O1645 O 0.95058 0.36474 0.82233 0.0
C1646 C 0.96126 0.31282 0.83524 0.0
C1647 C 0.99573 0.35404 0.86893 0.0
O1648 O 0.98267 0.3501 0.87726 0.0
O1649 O 0.9943 0.35637 0.8532 0.0
O1650 O 0.93264 0.71265 0.11069 0.0
Cd1651 Cd 0.90703 0.71772 0.1267 0.0
O1652 O 0.9183 0.69944 0.09135 0.0
Cd1653 Cd 0.89345 0.70225 0.10188 0.0
O1654 O 0.86698 0.69623 0.10084 0.0
C1655 C 0.86323 0.68145 0.09654 0.0
O1656 O 0.87518 0.67059 0.09376 0.0
C1657 C 0.93214 0.70462 0.09702 0.0
C1658 C 0.89994 0.75105 0.13364 0.0
O1659 O 0.90887 0.74233 0.14363 0.0
O1660 O 0.89462 0.74419 0.12022 0.0
O1661 O 0.53895 0.68 0.35967 0.0
Cd1662 Cd 0.53345 0.65384 0.37456 0.0
O1663 O 0.55116 0.66636 0.33919 0.0
Cd1664 Cd 0.5481 0.64118 0.3488 0.0
O1665 O 0.55448 0.61485 0.34708 0.0
C1666 C 0.56942 0.61146 0.34301 0.0
O1667 O 0.58016 0.62366 0.34086 0.0
C1668 C 0.54654 0.68001 0.34573 0.0
C1669 C 0.50012 0.64836 0.38275 0.0
O1670 O 0.50978 0.65628 0.39272 0.0
O1671 O 0.50607 0.64324 0.36882 0.0
O1672 O 0.88978 0.56748 0.71328 0.0
Cd1673 Cd 0.87398 0.59324 0.7182 0.0
O1674 O 0.90929 0.58157 0.70002 0.0
Cd1675 Cd 0.899 0.60653 0.70268 0.0
O1676 O 0.90055 0.63294 0.6965 0.0
C1677 C 0.90517 0.6365 0.68176 0.0
O1678 O 0.90796 0.62442 0.67105 0.0
C1679 C 0.90347 0.56781 0.70527 0.0
C1680 C 0.8666 0.60025 0.75146 0.0
O1681 O 0.85668 0.59141 0.74257 0.0
O1682 O 0.88014 0.60552 0.7448 0.0
O1683 O 0.67701 0.65139 0.95867 0.0
Cd1684 Cd 0.64878 0.64356 0.96796 0.0
O1685 O 0.68239 0.67143 0.97669 0.0
Cd1686 Cd 0.65617 0.67156 0.98381 0.0
O1687 O 0.6294 0.6746 0.97968 0.0
C1688 C 0.62474 0.6756 0.96457 0.0
O1689 O 0.63593 0.6747 0.95262 0.0
C1690 C 0.68701 0.66211 0.96473 0.0
C1691 C 0.64624 0.62805 0.99912 0.0
O1692 O 0.65059 0.61971 0.9862 0.0
O1693 O 0.6434 0.64367 0.99746 0.0
O1694 O 0.59879 0.42874 0.20601 0.0
Cd1695 Cd 0.6063 0.40047 0.21546 0.0
O1696 O 0.57859 0.43444 0.22377 0.0
Cd1697 Cd 0.57839 0.40841 0.23159 0.0
O1698 O 0.57535 0.38146 0.2288 0.0
C1699 C 0.57444 0.37602 0.21394 0.0
O1700 O 0.57537 0.38659 0.20144 0.0
C1701 C 0.58804 0.43886 0.21184 0.0
C1702 C 0.62206 0.39774 0.24646 0.0
O1703 O 0.63036 0.40189 0.23344 0.0
O1704 O 0.60636 0.39524 0.24498 0.0
O1705 O 0.82129 0.34678 0.45396 0.0
Cd1706 Cd 0.84953 0.35467 0.4632 0.0
O1707 O 0.81581 0.32655 0.47178 0.0
Cd1708 Cd 0.84187 0.32656 0.47945 0.0
O1709 O 0.86879 0.32351 0.47641 0.0
C1710 C 0.87414 0.32282 0.46151 0.0
O1711 O 0.86352 0.32399 0.44908 0.0
C1712 C 0.81129 0.33594 0.45984 0.0
C1713 C 0.85275 0.36991 0.49441 0.0
O1714 O 0.84813 0.37838 0.48167 0.0
O1715 O 0.85544 0.35428 0.49258 0.0
O1716 O 0.88922 0.43352 0.78841 0.0
Cd1717 Cd 0.87356 0.40771 0.78336 0.0
O1718 O 0.90937 0.41926 0.80046 0.0
Cd1719 Cd 0.89914 0.39431 0.79748 0.0
O1720 O 0.90037 0.36778 0.80315 0.0
C1721 C 0.90458 0.36386 0.81792 0.0
O1722 O 0.90718 0.37568 0.82896 0.0
C1723 C 0.90321 0.43311 0.79586 0.0
C1724 C 0.86777 0.39997 0.74997 0.0
O1725 O 0.85734 0.40882 0.75824 0.0
O1726 O 0.88108 0.39502 0.75732 0.0
O1727 O 0.82193 0.65268 0.04594 0.0
Cd1728 Cd 0.85016 0.64545 0.03617 0.0
O1729 O 0.81585 0.67291 0.02831 0.0
Cd1730 Cd 0.84183 0.67343 0.02037 0.0
O1731 O 0.86874 0.67664 0.02327 0.0
C1732 C 0.87414 0.67739 0.03815 0.0
O1733 O 0.86357 0.6762 0.05062 0.0
C1734 C 0.81165 0.66336 0.04025 0.0
C1735 C 0.8528 0.63014 0.00495 0.0
O1736 O 0.84885 0.62161 0.01788 0.0
O1737 O 0.85513 0.64585 0.00662 0.0
O1738 O 0.59911 0.5719 0.29141 0.0
Cd1739 Cd 0.60666 0.60018 0.28202 0.0
O1740 O 0.5789 0.56636 0.27361 0.0
Cd1741 Cd 0.57861 0.59254 0.2663 0.0
O1742 O 0.57547 0.61936 0.27002 0.0
C1743 C 0.57457 0.62427 0.28506 0.0
O1744 O 0.57561 0.61329 0.29718 0.0
C1745 C 0.58836 0.56183 0.28549 0.0
C1746 C 0.62205 0.60288 0.25082 0.0
O1747 O 0.63047 0.5986 0.26371 0.0
O1748 O 0.6064 0.60555 0.25252 0.0
O1749 O 0.67956 0.35937 0.53685 0.0
Cd1750 Cd 0.65335 0.37407 0.53104 0.0
O1751 O 0.66601 0.33964 0.55035 0.0
Cd1752 Cd 0.64079 0.34906 0.54714 0.0
O1753 O 0.61443 0.34718 0.55336 0.0
C1754 C 0.61095 0.34318 0.5683 0.0
O1755 O 0.62307 0.34118 0.57914 0.0
C1756 C 0.67962 0.34585 0.54517 0.0
C1757 C 0.64817 0.38236 0.49767 0.0
O1758 O 0.65597 0.39231 0.50744 0.0
O1759 O 0.64305 0.36839 0.50353 0.0
O1760 O 0.71318 0.89006 0.56772 0.0
Cd1761 Cd 0.71813 0.87421 0.59345 0.0
O1762 O 0.70006 0.90961 0.58188 0.0
Cd1763 Cd 0.70274 0.89925 0.60682 0.0
O1764 O 0.69646 0.90063 0.6332 0.0
C1765 C 0.68167 0.90512 0.63673 0.0
O1766 O 0.67099 0.90788 0.62462 0.0
C1767 C 0.70523 0.90379 0.5681 0.0
C1768 C 0.75138 0.86679 0.60037 0.0
O1769 O 0.74246 0.85688 0.59155 0.0
O1770 O 0.74476 0.88034 0.60566 0.0
O1771 O 0.20954 0.61124 0.43232 0.0
Cd1772 Cd 0.21501 0.62632 0.40625 0.0
O1773 O 0.1993 0.58993 0.41836 0.0
Cd1774 Cd 0.20273 0.59964 0.39327 0.0
O1775 O 0.19703 0.59825 0.36677 0.0
C1776 C 0.18214 0.59442 0.36292 0.0
O1777 O 0.17103 0.5923 0.37479 0.0
C1778 C 0.2029 0.59684 0.43214 0.0
C1779 C 0.24841 0.63367 0.40011 0.0
O1780 O 0.23917 0.64386 0.40825 0.0
O1781 O 0.24202 0.6199 0.3951 0.0
O1782 O 0.65255 0.95653 0.67725 0.0
Cd1783 Cd 0.64548 0.96624 0.64897 0.0
O1784 O 0.67276 0.97414 0.68336 0.0
Cd1785 Cd 0.6735 0.98184 0.65731 0.0
O1786 O 0.67688 0.97853 0.63046 0.0
C1787 C 0.67765 0.96357 0.6253 0.0
O1788 O 0.67638 0.95127 0.63606 0.0
C1789 C 0.66316 0.96226 0.68757 0.0
C1790 C 0.63037 0.99756 0.64625 0.0
O1791 O 0.62177 0.98469 0.65024 0.0
O1792 O 0.64606 0.99578 0.6439 0.0
O1793 O 0.28657 0.38975 0.93161 0.0
Cd1794 Cd 0.28154 0.37415 0.90576 0.0
O1795 O 0.30033 0.40903 0.91769 0.0
Cd1796 Cd 0.29759 0.39892 0.89267 0.0
O1797 O 0.30351 0.40045 0.8662 0.0
C1798 C 0.31825 0.40492 0.86246 0.0
O1799 O 0.32914 0.40757 0.87441 0.0
C1800 C 0.29486 0.40327 0.93139 0.0
C1801 C 0.24824 0.36686 0.89887 0.0
O1802 O 0.25716 0.35686 0.90761 0.0
O1803 O 0.25489 0.38043 0.89366 0.0
O1804 O 0.35981 0.54014 0.68048 0.0
Cd1805 Cd 0.37474 0.53444 0.65437 0.0
O1806 O 0.33931 0.55209 0.66665 0.0
Cd1807 Cd 0.34889 0.5487 0.6415 0.0
O1808 O 0.34706 0.55452 0.61505 0.0
C1809 C 0.3429 0.56936 0.61135 0.0
O1810 O 0.34072 0.58034 0.62332 0.0
C1811 C 0.34585 0.54768 0.68037 0.0
C1812 C 0.38272 0.50106 0.64888 0.0
O1813 O 0.39274 0.51066 0.65681 0.0
O1814 O 0.36882 0.50709 0.64378 0.0
O1815 O 0.7889 0.11036 0.06631 0.0
Cd1816 Cd 0.78384 0.12602 0.09212 0.0
O1817 O 0.80089 0.09019 0.08059 0.0
Cd1818 Cd 0.79791 0.10043 0.10553 0.0
O1819 O 0.80354 0.09923 0.13207 0.0
C1820 C 0.8183 0.09501 0.13601 0.0
O1821 O 0.82936 0.0924 0.1242 0.0
C1822 C 0.79632 0.09635 0.06674 0.0
C1823 C 0.75043 0.13166 0.09989 0.0
O1824 O 0.75865 0.14214 0.09104 0.0
O1825 O 0.75784 0.11837 0.10481 0.0
O1826 O 0.6518 0.04405 0.82258 0.0
Cd1827 Cd 0.64408 0.0344 0.85073 0.0
O1828 O 0.67166 0.02597 0.81668 0.0
Cd1829 Cd 0.67183 0.01818 0.8427 0.0
O1830 O 0.67512 0.02148 0.86955 0.0
C1831 C 0.6763 0.03644 0.87465 0.0
O1832 O 0.67543 0.04873 0.86383 0.0
C1833 C 0.66241 0.0381 0.81238 0.0
C1834 C 0.62822 0.00341 0.8531 0.0
O1835 O 0.61999 0.01648 0.84896 0.0
O1836 O 0.6439 0.00485 0.85577 0.0
O1837 O 0.84584 0.95569 0.32316 0.0
Cd1838 Cd 0.85307 0.96512 0.35147 0.0
O1839 O 0.82585 0.97358 0.31713 0.0
Cd1840 Cd 0.82531 0.98136 0.34316 0.0
O1841 O 0.82227 0.97846 0.37009 0.0
C1842 C 0.82128 0.96358 0.37546 0.0
O1843 O 0.82209 0.95113 0.36483 0.0
C1844 C 0.83529 0.96158 0.31288 0.0
C1845 C 0.86891 0.99607 0.35415 0.0
O1846 O 0.87722 0.98299 0.35023 0.0
O1847 O 0.85318 0.99466 0.35646 0.0
O1848 O 0.41657 0.30092 0.10617 0.0
Cd1849 Cd 0.39912 0.27925 0.1185 0.0
O1850 O 0.41067 0.31725 0.1275 0.0
Cd1851 Cd 0.38823 0.3031 0.13389 0.0
O1852 O 0.36323 0.2991 0.12377 0.0
C1853 C 0.35096 0.30793 0.12856 0.0
O1854 O 0.35295 0.31842 0.14099 0.0
C1855 C 0.41908 0.31428 0.11436 0.0
C1856 C 0.4169 0.26266 0.1433 0.0
O1857 O 0.41164 0.27755 0.14554 0.0
O1858 O 0.41367 0.25539 0.12944 0.0
O1859 O 0.4454 0.66297 0.85257 0.0
Cd1860 Cd 0.46568 0.64347 0.86413 0.0
O1861 O 0.4304 0.66048 0.87552 0.0
Cd1862 Cd 0.44245 0.63694 0.88231 0.0
O1863 O 0.44638 0.61152 0.8732 0.0
C1864 C 0.43797 0.59919 0.87856 0.0
O1865 O 0.42757 0.60131 0.89105 0.0
C1866 C 0.43327 0.6677 0.86165 0.0
C1867 C 0.48629 0.66056 0.88619 0.0
O1868 O 0.47118 0.65721 0.89005 0.0
O1869 O 0.49188 0.65566 0.87205 0.0
O1870 O 0.08186 0.69983 0.60276 0.0
Cd1871 Cd 0.10029 0.72101 0.61447 0.0
O1872 O 0.08777 0.68373 0.62429 0.0
Cd1873 Cd 0.1109 0.69706 0.63001 0.0
O1874 O 0.13632 0.70067 0.62078 0.0
C1875 C 0.14858 0.69241 0.62653 0.0
O1876 O 0.14633 0.68254 0.63942 0.0
C1877 C 0.07911 0.68674 0.61132 0.0
C1878 C 0.08387 0.7375 0.64027 0.0
O1879 O 0.08901 0.72251 0.64207 0.0
O1880 O 0.08659 0.74492 0.62638 0.0
O1881 O 0.05479 0.34167 0.35665 0.0
Cd1882 Cd 0.03474 0.35999 0.37034 0.0
O1883 O 0.07203 0.34497 0.37782 0.0
Cd1884 Cd 0.05967 0.36811 0.38538 0.0
O1885 O 0.05459 0.39306 0.37551 0.0
C1886 C 0.0636 0.40554 0.3793 0.0
O1887 O 0.0753 0.40389 0.39065 0.0
C1888 C 0.06804 0.33755 0.36437 0.0
C1889 C 0.01426 0.34084 0.39077 0.0
O1890 O 0.02942 0.34376 0.39481 0.0
O1891 O 0.00858 0.34715 0.37723 0.0
O1892 O 0.41444 0.69979 0.39505 0.0
Cd1893 Cd 0.39699 0.7209 0.38179 0.0
O1894 O 0.4088 0.68266 0.37428 0.0
Cd1895 Cd 0.38622 0.69638 0.36744 0.0
O1896 O 0.36122 0.7005 0.37757 0.0
C1897 C 0.34908 0.69123 0.37335 0.0
O1898 O 0.35117 0.68015 0.36147 0.0
C1899 C 0.41711 0.68617 0.38735 0.0
C1900 C 0.41508 0.73709 0.35693 0.0
O1901 O 0.41005 0.72207 0.35496 0.0
O1902 O 0.41147 0.74465 0.37053 0.0
O1903 O 0.05495 0.65828 0.14272 0.0
Cd1904 Cd 0.03495 0.64 0.12892 0.0
O1905 O 0.07228 0.65501 0.12161 0.0
Cd1906 Cd 0.05995 0.63189 0.11398 0.0
O1907 O 0.05483 0.60696 0.12388 0.0
C1908 C 0.06391 0.59449 0.1202 0.0
O1909 O 0.07571 0.59614 0.10895 0.0
C1910 C 0.06823 0.66242 0.13507 0.0
C1911 C 0.01443 0.6592 0.10858 0.0
O1912 O 0.02961 0.65635 0.10453 0.0
O1913 O 0.00876 0.65281 0.12208 0.0
O1914 O 0.07893 0.29969 0.89831 0.0
Cd1915 Cd 0.09724 0.27822 0.88691 0.0
O1916 O 0.08493 0.31539 0.87651 0.0
Cd1917 Cd 0.10796 0.30184 0.87097 0.0
O1918 O 0.13334 0.29866 0.88039 0.0
C1919 C 0.14551 0.30687 0.87438 0.0
O1920 O 0.14317 0.31627 0.86116 0.0
C1921 C 0.07627 0.31266 0.88956 0.0
C1922 C 0.08119 0.26196 0.86073 0.0
O1923 O 0.0865 0.27691 0.85908 0.0
O1924 O 0.08354 0.25448 0.87465 0.0
O1925 O 0.45034 0.33459 0.64523 0.0
Cd1926 Cd 0.47165 0.35148 0.63158 0.0
O1927 O 0.43329 0.34024 0.6244 0.0
Cd1928 Cd 0.44711 0.36277 0.61757 0.0
O1929 O 0.45102 0.38784 0.62762 0.0
C1930 C 0.44169 0.39991 0.62328 0.0
O1931 O 0.43069 0.39769 0.61135 0.0
C1932 C 0.43671 0.33199 0.63754 0.0
C1933 C 0.48755 0.3324 0.60729 0.0
O1934 O 0.47264 0.33765 0.60514 0.0
O1935 O 0.49517 0.33627 0.62078 0.0
O1936 O 0.10133 0.42057 0.29965 0.0
Cd1937 Cd 0.11282 0.40232 0.27818 0.0
O1938 O 0.1231 0.4146 0.31538 0.0
Cd1939 Cd 0.12867 0.39159 0.30182 0.0
O1940 O 0.11912 0.36625 0.29862 0.0
C1941 C 0.12493 0.35409 0.30696 0.0
O1942 O 0.13804 0.35639 0.31651 0.0
C1943 C 0.11005 0.42323 0.31264 0.0
C1944 C 0.13896 0.41847 0.26192 0.0
O1945 O 0.14062 0.41316 0.27687 0.0
O1946 O 0.12505 0.41607 0.25444 0.0
O1947 O 0.33903 0.35579 0.05501 0.0
Cd1948 Cd 0.35745 0.36905 0.03474 0.0
O1949 O 0.34155 0.37766 0.07151 0.0
Cd1950 Cd 0.36448 0.38553 0.05899 0.0
O1951 O 0.38947 0.37561 0.05434 0.0
C1952 C 0.40175 0.37949 0.06358 0.0
O1953 O 0.39985 0.39096 0.07512 0.0
C1954 C 0.33456 0.36385 0.06794 0.0
C1955 C 0.33873 0.38985 0.01423 0.0
O1956 O 0.34175 0.39386 0.02938 0.0
O1957 O 0.34471 0.37615 0.00859 0.0
O1958 O 0.39689 0.58683 0.80532 0.0
Cd1959 Cd 0.38569 0.60666 0.78515 0.0
O1960 O 0.37395 0.5894 0.82032 0.0
Cd1961 Cd 0.36726 0.61296 0.80824 0.0
O1962 O 0.37661 0.63824 0.80396 0.0
C1963 C 0.37146 0.65073 0.81226 0.0
O1964 O 0.35903 0.64887 0.82279 0.0
C1965 C 0.38777 0.58211 0.81743 0.0
C1966 C 0.3636 0.59019 0.76407 0.0
O1967 O 0.35966 0.59331 0.77921 0.0
O1968 O 0.37786 0.59501 0.75869 0.0
O1969 O 0.16098 0.64856 0.55506 0.0
Cd1970 Cd 0.14132 0.63659 0.53519 0.0
O1971 O 0.15862 0.62596 0.5706 0.0
Cd1972 Cd 0.13497 0.61901 0.55888 0.0
O1973 O 0.10969 0.62836 0.55459 0.0
C1974 C 0.09726 0.62346 0.56314 0.0
O1975 O 0.09917 0.61131 0.57397 0.0
C1976 C 0.16582 0.63975 0.56736 0.0
C1977 C 0.1583 0.61434 0.51469 0.0
O1978 O 0.15516 0.61068 0.5299 0.0
O1979 O 0.15324 0.62838 0.50897 0.0
O1980 O 0.10144 0.57938 0.20024 0.0
Cd1981 Cd 0.11299 0.59747 0.22182 0.0
O1982 O 0.12324 0.58541 0.18456 0.0
Cd1983 Cd 0.12874 0.60841 0.19817 0.0
O1984 O 0.11913 0.63374 0.20128 0.0
C1985 C 0.12495 0.64588 0.1929 0.0
O1986 O 0.13809 0.64356 0.18339 0.0
C1987 C 0.11018 0.57678 0.18725 0.0
C1988 C 0.13915 0.58112 0.23784 0.0
O1989 O 0.14079 0.58659 0.22295 0.0
O1990 O 0.12526 0.58347 0.24539 0.0
O1991 O 0.15766 0.35646 0.94376 0.0
Cd1992 Cd 0.13905 0.36992 0.96371 0.0
O1993 O 0.15452 0.37774 0.92661 0.0
Cd1994 Cd 0.13137 0.38535 0.93891 0.0
O1995 O 0.10644 0.37555 0.9442 0.0
C1996 C 0.09388 0.37935 0.9353 0.0
O1997 O 0.09543 0.39067 0.92356 0.0
C1998 C 0.1619 0.36425 0.9306 0.0
C1999 C 0.15782 0.39045 0.98439 0.0
O2000 O 0.155 0.39451 0.96922 0.0
O2001 O 0.1516 0.37683 0.98998 0.0
O2002 O 0.39535 0.41527 0.70005 0.0
Cd2003 Cd 0.38216 0.39797 0.72134 0.0
O2004 O 0.3744 0.40964 0.68313 0.0
Cd2005 Cd 0.3677 0.38706 0.69693 0.0
O2006 O 0.37787 0.36206 0.70097 0.0
C2007 C 0.37355 0.34991 0.69174 0.0
O2008 O 0.36158 0.352 0.68076 0.0
C2009 C 0.38753 0.41793 0.6865 0.0
C2010 C 0.35741 0.41625 0.73748 0.0
O2011 O 0.35537 0.4111 0.72252 0.0
O2012 O 0.37103 0.41267 0.74502 0.0
O2013 O 0.33401 0.6453 0.45049 0.0
Cd2014 Cd 0.35096 0.63185 0.47187 0.0
O2015 O 0.33982 0.62443 0.43354 0.0
Cd2016 Cd 0.36234 0.61777 0.44743 0.0
O2017 O 0.38738 0.6279 0.45128 0.0
C2018 C 0.39948 0.62349 0.44203 0.0
O2019 O 0.39731 0.61144 0.43114 0.0
C2020 C 0.33149 0.63754 0.43688 0.0
C2021 C 0.33205 0.60737 0.48772 0.0
O2022 O 0.33739 0.60527 0.47283 0.0
O2023 O 0.33576 0.62091 0.49534 0.0
O2024 O 0.29948 0.10146 0.42083 0.0
Cd2025 Cd 0.278 0.11286 0.40253 0.0
O2026 O 0.31518 0.12323 0.41478 0.0
Cd2027 Cd 0.3016 0.12878 0.39178 0.0
O2028 O 0.29843 0.1193 0.36642 0.0
C2029 C 0.30669 0.12525 0.35425 0.0
O2030 O 0.31612 0.13844 0.35658 0.0
C2031 C 0.31246 0.1102 0.42345 0.0
C2032 C 0.26171 0.13903 0.41861 0.0
O2033 O 0.27666 0.14069 0.41329 0.0
O2034 O 0.25425 0.1251 0.41625 0.0
O2035 O 0.80432 0.39811 0.58382 0.0
Cd2036 Cd 0.7839 0.38683 0.60337 0.0
O2037 O 0.8189 0.37487 0.58604 0.0
Cd2038 Cd 0.80673 0.36805 0.6095 0.0
O2039 O 0.80315 0.37741 0.63486 0.0
C2040 C 0.81161 0.37194 0.6471 0.0
O2041 O 0.82169 0.35922 0.64492 0.0
C2042 C 0.81629 0.38887 0.57898 0.0
C2043 C 0.76315 0.36451 0.58677 0.0
O2044 O 0.77829 0.3607 0.59005 0.0
O2045 O 0.75763 0.37875 0.59145 0.0
O2046 O 0.35649 0.05573 0.3422 0.0
Cd2047 Cd 0.36999 0.0358 0.36079 0.0
O2048 O 0.37769 0.07296 0.34541 0.0
Cd2049 Cd 0.38532 0.06065 0.36854 0.0
O2050 O 0.37548 0.05538 0.39347 0.0
C2051 C 0.37923 0.06432 0.40601 0.0
O2052 O 0.39052 0.07609 0.40444 0.0
C2053 C 0.36423 0.06894 0.338 0.0
C2054 C 0.39046 0.01504 0.34201 0.0
O2055 O 0.39454 0.03022 0.34478 0.0
O2056 O 0.37686 0.00948 0.34829 0.0
O2057 O 0.70003 0.60146 0.0839 0.0
Cd2058 Cd 0.72093 0.6138 0.10224 0.0
O2059 O 0.68354 0.6228 0.08939 0.0
Cd2060 Cd 0.69657 0.62881 0.11261 0.0
O2061 O 0.70029 0.61937 0.13796 0.0
C2062 C 0.69159 0.62455 0.15016 0.0
O2063 O 0.68115 0.63698 0.14793 0.0
C2064 C 0.68683 0.60976 0.08093 0.0
C2065 C 0.73724 0.63949 0.08544 0.0
O2066 O 0.72219 0.64121 0.09046 0.0
O2067 O 0.74479 0.62574 0.08846 0.0
O2068 O 0.6498 0.45136 0.33066 0.0
Cd2069 Cd 0.63728 0.47268 0.34838 0.0
O2070 O 0.62814 0.43529 0.3361 0.0
Cd2071 Cd 0.62217 0.44859 0.35917 0.0
O2072 O 0.63176 0.45173 0.38451 0.0
C2073 C 0.62639 0.44288 0.39653 0.0
O2074 O 0.61371 0.4328 0.39409 0.0
C2075 C 0.64134 0.43825 0.32776 0.0
C2076 C 0.61158 0.48826 0.33092 0.0
O2077 O 0.60993 0.47337 0.33642 0.0
O2078 O 0.62524 0.49602 0.3338 0.0
O2079 O 0.19399 0.89796 0.91512 0.0
Cd2080 Cd 0.21405 0.88685 0.89511 0.0
O2081 O 0.17923 0.87483 0.91292 0.0
Cd2082 Cd 0.19125 0.86791 0.88943 0.0
O2083 O 0.19515 0.87718 0.86408 0.0
C2084 C 0.1869 0.87167 0.85171 0.0
O2085 O 0.1768 0.85894 0.85377 0.0
C2086 C 0.182 0.88878 0.92002 0.0
C2087 C 0.23515 0.86436 0.91103 0.0
O2088 O 0.21994 0.8606 0.90808 0.0
O2089 O 0.24058 0.87864 0.90636 0.0
O2090 O 0.35545 0.94441 0.1606 0.0
Cd2091 Cd 0.3687 0.96473 0.14222 0.0
O2092 O 0.37741 0.92801 0.15818 0.0
Cd2093 Cd 0.38529 0.94053 0.13524 0.0
O2094 O 0.37539 0.9452 0.11025 0.0
C2095 C 0.3793 0.93598 0.09796 0.0
O2096 O 0.39077 0.92444 0.09985 0.0
C2097 C 0.36356 0.93153 0.16512 0.0
C2098 C 0.38943 0.98518 0.16105 0.0
O2099 O 0.39347 0.97005 0.15798 0.0
O2100 O 0.37573 0.99084 0.15507 0.0
O2101 O 0.14318 0.0555 0.65776 0.0
Cd2102 Cd 0.12959 0.0356 0.63921 0.0
O2103 O 0.12198 0.07276 0.6546 0.0
Cd2104 Cd 0.11433 0.06049 0.63146 0.0
O2105 O 0.12416 0.05527 0.60653 0.0
C2106 C 0.12039 0.06423 0.59399 0.0
O2107 O 0.10907 0.07597 0.59558 0.0
C2108 C 0.13545 0.06871 0.66199 0.0
C2109 C 0.10879 0.01519 0.65803 0.0
O2110 O 0.10488 0.03039 0.65512 0.0
O2111 O 0.12237 0.00944 0.65188 0.0
loop_
_geom_bond_atom_site_label_1
_geom_bond_atom_site_label_2
_geom_bond_distance
_geom_bond_site_symmetry_2
_ccdc_geom_bond_type
O0 Cd1 2.300 . S
O0 C7 1.275 . S
Cd1 O0 2.300 . S
Cd1 O9 2.381 . S
Cd1 O10 2.378 . S
O2 Cd3 2.385 . S
O2 C7 1.255 . S
Cd3 O2 2.385 . S
Cd3 O4 2.317 . S
O4 Cd3 2.317 . S
O4 C5 1.232 . S
C5 O4 1.232 . S
C5 O6 1.218 . S
O6 C5 1.218 . S
C7 O0 1.275 . S
C7 O2 1.255 . S
C8 O9 1.258 . S
C8 O10 1.256 . S
O9 Cd1 2.381 . S
O9 C8 1.258 . S
O10 Cd1 2.378 . S
O10 C8 1.256 . S
O11 Cd12 2.300 . S
O11 C18 1.275 . S
Cd12 O11 2.300 . S
Cd12 O20 2.381 . S
Cd12 O21 2.378 . S
O13 Cd14 2.385 . S
O13 C18 1.255 . S
Cd14 O13 2.385 . S
Cd14 O15 2.317 . S
O15 Cd14 2.317 . S
O15 C16 1.232 . S
C16 O15 1.232 . S
C16 O17 1.218 . S
O17 C16 1.218 . S
C18 O11 1.275 . S
C18 O13 1.255 . S
C19 O20 1.258 . S
C19 O21 1.256 . S
O20 Cd12 2.381 . S
O20 C19 1.258 . S
O21 Cd12 2.378 . S
O21 C19 1.256 . S
O22 Cd23 2.300 . S
O22 C29 1.275 . S
Cd23 O22 2.300 . S
Cd23 O31 2.381 . S
Cd23 O32 2.378 . S
O24 Cd25 2.385 . S
O24 C29 1.255 . S
Cd25 O24 2.385 . S
Cd25 O26 2.317 . S
O26 Cd25 2.317 . S
O26 C27 1.232 . S
C27 O26 1.232 . S
C27 O28 1.218 . S
O28 C27 1.218 . S
C29 O22 1.275 . S
C29 O24 1.255 . S
C30 O31 1.258 . S
C30 O32 1.256 . S
O31 Cd23 2.381 . S
O31 C30 1.258 . S
O32 Cd23 2.378 . S
O32 C30 1.256 . S
O33 Cd34 2.300 . S
O33 C40 1.275 . S
Cd34 O33 2.300 . S
Cd34 O42 2.381 . S
Cd34 O43 2.378 . S
O35 Cd36 2.385 . S
O35 C40 1.255 . S
Cd36 O35 2.385 . S
Cd36 O37 2.317 . S
O37 Cd36 2.317 . S
O37 C38 1.232 . S
C38 O37 1.232 . S
C38 O39 1.218 . S
O39 C38 1.218 . S
C40 O33 1.275 . S
C40 O35 1.255 . S
C41 O42 1.258 . S
C41 O43 1.256 . S
O42 Cd34 2.381 . S
O42 C41 1.258 . S
O43 Cd34 2.378 . S
O43 C41 1.256 . S
O44 Cd45 2.300 . S
O44 C51 1.275 . S
Cd45 O44 2.300 . S
Cd45 O53 2.381 . S
Cd45 O54 2.378 . S
O46 Cd47 2.385 . S
O46 C51 1.255 . S
Cd47 O46 2.385 . S
Cd47 O48 2.317 . S
O48 Cd47 2.317 . S
O48 C49 1.232 . S
C49 O48 1.232 . S
C49 O50 1.218 . S
O50 C49 1.218 . S
C51 O44 1.275 . S
C51 O46 1.255 . S
C52 O53 1.258 . S
C52 O54 1.256 . S
O53 Cd45 2.381 . S
O53 C52 1.258 . S
O54 Cd45 2.378 . S
O54 C52 1.256 . S
O55 Cd56 2.300 . S
O55 C62 1.275 . S
Cd56 O55 2.300 . S
Cd56 O64 2.381 . S
Cd56 O65 2.378 . S
O57 Cd58 2.385 . S
O57 C62 1.255 . S
Cd58 O57 2.385 . S
Cd58 O59 2.317 . S
O59 Cd58 2.317 . S
O59 C60 1.232 . S
C60 O59 1.232 . S
C60 O61 1.218 . S
O61 C60 1.218 . S
C62 O55 1.275 . S
C62 O57 1.255 . S
C63 O64 1.258 . S
C63 O65 1.256 . S
O64 Cd56 2.381 . S
O64 C63 1.258 . S
O65 Cd56 2.378 . S
O65 C63 1.256 . S
O66 Cd67 2.300 . S
O66 C73 1.275 . S
Cd67 O66 2.300 . S
Cd67 O75 2.381 . S
Cd67 O76 2.378 . S
O68 Cd69 2.385 . S
O68 C73 1.255 . S
Cd69 O68 2.385 . S
Cd69 O70 2.317 . S
O70 Cd69 2.317 . S
O70 C71 1.232 . S
C71 O70 1.232 . S
C71 O72 1.218 . S
O72 C71 1.218 . S
C73 O66 1.275 . S
C73 O68 1.255 . S
C74 O75 1.258 . S
C74 O76 1.256 . S
O75 Cd67 2.381 . S
O75 C74 1.258 . S
O76 Cd67 2.378 . S
O76 C74 1.256 . S
O77 Cd78 2.300 . S
O77 C84 1.275 . S
Cd78 O77 2.300 . S
Cd78 O86 2.381 . S
Cd78 O87 2.378 . S
O79 Cd80 2.385 . S
O79 C84 1.255 . S
Cd80 O79 2.385 . S
Cd80 O81 2.317 . S
O81 Cd80 2.317 . S
O81 C82 1.232 . S
C82 O81 1.232 . S
C82 O83 1.218 . S
O83 C82 1.218 . S
C84 O77 1.275 . S
C84 O79 1.255 . S
C85 O86 1.258 . S
C85 O87 1.256 . S
O86 Cd78 2.381 . S
O86 C85 1.258 . S
O87 Cd78 2.378 . S
O87 C85 1.256 . S
O88 Cd89 2.300 . S
O88 C95 1.275 . S
Cd89 O88 2.300 . S
Cd89 O97 2.381 . S
Cd89 O98 2.378 . S
O90 Cd91 2.385 . S
O90 C95 1.255 . S
Cd91 O90 2.385 . S
Cd91 O92 2.317 . S
O92 Cd91 2.317 . S
O92 C93 1.232 . S
C93 O92 1.232 . S
C93 O94 1.218 . S
O94 C93 1.218 . S
C95 O88 1.275 . S
C95 O90 1.255 . S
C96 O97 1.258 . S
C96 O98 1.256 . S
O97 Cd89 2.381 . S
O97 C96 1.258 . S
O98 Cd89 2.378 . S
O98 C96 1.256 . S
O99 Cd100 2.300 . S
O99 C106 1.275 . S
Cd100 O99 2.300 . S
Cd100 O108 2.381 . S
Cd100 O109 2.378 . S
O101 Cd102 2.385 . S
O101 C106 1.255 . S
Cd102 O101 2.385 . S
Cd102 O103 2.317 . S
O103 Cd102 2.317 . S
O103 C104 1.232 . S
C104 O103 1.232 . S
C104 O105 1.218 . S
O105 C104 1.218 . S
C106 O99 1.275 . S
C106 O101 1.255 . S
C107 O108 1.258 . S
C107 O109 1.256 . S
O108 Cd100 2.381 . S
O108 C107 1.258 . S
O109 Cd100 2.378 . S
O109 C107 1.256 . S
O110 Cd111 2.300 . S
O110 C117 1.275 . S
Cd111 O110 2.300 . S
Cd111 O119 2.381 . S
Cd111 O120 2.378 . S
O112 Cd113 2.385 . S
O112 C117 1.255 . S
Cd113 O112 2.385 . S
Cd113 O114 2.317 . S
O114 Cd113 2.317 . S
O114 C115 1.232 . S
C115 O114 1.232 . S
C115 O116 1.218 . S
O116 C115 1.218 . S
C117 O110 1.275 . S
C117 O112 1.255 . S
C118 O119 1.258 . S
C118 O120 1.256 . S
O119 Cd111 2.381 . S
O119 C118 1.258 . S
O120 Cd111 2.378 . S
O120 C118 1.256 . S
O121 Cd122 2.300 . S
O121 C128 1.275 . S
Cd122 O121 2.300 . S
Cd122 O130 2.381 . S
Cd122 O131 2.378 . S
O123 Cd124 2.385 . S
O123 C128 1.255 . S
Cd124 O123 2.385 . S
Cd124 O125 2.317 . S
O125 Cd124 2.317 . S
O125 C126 1.232 . S
C126 O125 1.232 . S
C126 O127 1.218 . S
O127 C126 1.218 . S
C128 O121 1.275 . S
C128 O123 1.255 . S
C129 O130 1.258 . S
C129 O131 1.256 . S
O130 Cd122 2.381 . S
O130 C129 1.258 . S
O131 Cd122 2.378 . S
O131 C129 1.256 . S
O132 Cd133 2.300 . S
O132 C139 1.275 . S
Cd133 O132 2.300 . S
Cd133 O141 2.381 . S
Cd133 O142 2.378 . S
O134 Cd135 2.385 . S
O134 C139 1.255 . S
Cd135 O134 2.385 . S
Cd135 O136 2.317 . S
O136 Cd135 2.317 . S
O136 C137 1.232 . S
C137 O136 1.232 . S
C137 O138 1.218 . S
O138 C137 1.218 . S
C139 O132 1.275 . S
C139 O134 1.255 . S
C140 O141 1.258 . S
C140 O142 1.256 . S
O141 Cd133 2.381 . S
O141 C140 1.258 . S
O142 Cd133 2.378 . S
O142 C140 1.256 . S
O143 Cd144 2.300 . S
O143 C150 1.275 . S
Cd144 O143 2.300 . S
Cd144 O152 2.381 . S
Cd144 O153 2.378 . S
O145 Cd146 2.385 . S
O145 C150 1.255 . S
Cd146 O145 2.385 . S
Cd146 O147 2.317 . S
O147 Cd146 2.317 . S
O147 C148 1.232 . S
C148 O147 1.232 . S
C148 O149 1.218 . S
O149 C148 1.218 . S
C150 O143 1.275 . S
C150 O145 1.255 . S
C151 O152 1.258 . S
C151 O153 1.256 . S
O152 Cd144 2.381 . S
O152 C151 1.258 . S
O153 Cd144 2.378 . S
O153 C151 1.256 . S
O154 Cd155 2.300 . S
O154 C161 1.275 . S
Cd155 O154 2.300 . S
Cd155 O163 2.381 . S
Cd155 O164 2.378 . S
O156 Cd157 2.385 . S
O156 C161 1.255 . S
Cd157 O156 2.385 . S
Cd157 O158 2.317 . S
O158 Cd157 2.317 . S
O158 C159 1.232 . S
C159 O158 1.232 . S
C159 O160 1.218 . S
O160 C159 1.218 . S
C161 O154 1.275 . S
C161 O156 1.255 . S
C162 O163 1.258 . S
C162 O164 1.256 . S
O163 Cd155 2.381 . S
O163 C162 1.258 . S
O164 Cd155 2.378 . S
O164 C162 1.256 . S
O165 Cd166 2.300 . S
O165 C172 1.275 . S
Cd166 O165 2.300 . S
Cd166 O174 2.381 . S
Cd166 O175 2.378 . S
O167 Cd168 2.385 . S
O167 C172 1.255 . S
Cd168 O167 2.385 . S
Cd168 O169 2.317 . S
O169 Cd168 2.317 . S
O169 C170 1.232 . S
C170 O169 1.232 . S
C170 O171 1.218 . S
O171 C170 1.218 . S
C172 O165 1.275 . S
C172 O167 1.255 . S
C173 O174 1.258 . S
C173 O175 1.256 . S
O174 Cd166 2.381 . S
O174 C173 1.258 . S
O175 Cd166 2.378 . S
O175 C173 1.256 . S
O176 Cd177 2.300 . S
O176 C183 1.275 . S
Cd177 O176 2.300 . S
Cd177 O185 2.381 . S
Cd177 O186 2.378 . S
O178 Cd179 2.385 . S
O178 C183 1.255 . S
Cd179 O178 2.385 . S
Cd179 O180 2.317 . S
O180 Cd179 2.317 . S
O180 C181 1.232 . S
C181 O180 1.232 . S
C181 O182 1.218 . S
O182 C181 1.218 . S
C183 O176 1.275 . S
C183 O178 1.255 . S
C184 O185 1.258 . S
C184 O186 1.256 . S
O185 Cd177 2.381 . S
O185 C184 1.258 . S
O186 Cd177 2.378 . S
O186 C184 1.256 . S
O187 Cd188 2.300 . S
O187 C194 1.275 . S
Cd188 O187 2.300 . S
Cd188 O196 2.381 . S
Cd188 O197 2.378 . S
O189 Cd190 2.385 . S
O189 C194 1.255 . S
Cd190 O189 2.385 . S
Cd190 O191 2.317 . S
O191 Cd190 2.317 . S
O191 C192 1.232 . S
C192 O191 1.232 . S
C192 O193 1.218 . S
O193 C192 1.218 . S
C194 O187 1.275 . S
C194 O189 1.255 . S
C195 O196 1.258 . S
C195 O197 1.256 . S
O196 Cd188 2.381 . S
O196 C195 1.258 . S
O197 Cd188 2.378 . S
O197 C195 1.256 . S
O198 Cd199 2.300 . S
O198 C205 1.275 . S
Cd199 O198 2.300 . S
Cd199 O207 2.381 . S
Cd199 O208 2.378 . S
O200 Cd201 2.385 . S
O200 C205 1.255 . S
Cd201 O200 2.385 . S
Cd201 O202 2.317 . S
O202 Cd201 2.317 . S
O202 C203 1.232 . S
C203 O202 1.232 . S
C203 O204 1.218 . S
O204 C203 1.218 . S
C205 O198 1.275 . S
C205 O200 1.255 . S
C206 O207 1.258 . S
C206 O208 1.256 . S
O207 Cd199 2.381 . S
O207 C206 1.258 . S
O208 Cd199 2.378 . S
O208 C206 1.256 . S
O209 Cd210 2.300 . S
O209 C216 1.275 . S
Cd210 O209 2.300 . S
Cd210 O218 2.381 . S
Cd210 O219 2.378 . S
O211 Cd212 2.385 . S
O211 C216 1.255 . S
Cd212 O211 2.385 . S
Cd212 O213 2.317 . S
O213 Cd212 2.317 . S
O213 C214 1.232 . S
C214 O213 1.232 . S
C214 O215 1.218 . S
O215 C214 1.218 . S
C216 O209 1.275 . S
C216 O211 1.255 . S
C217 O218 1.258 . S
C217 O219 1.256 . S
O218 Cd210 2.381 . S
O218 C217 1.258 . S
O219 Cd210 2.378 . S
O219 C217 1.256 . S
O220 Cd221 2.300 . S
O220 C227 1.275 . S
Cd221 O220 2.300 . S
Cd221 O229 2.381 . S
Cd221 O230 2.378 . S
O222 Cd223 2.385 . S
O222 C227 1.255 . S
Cd223 O222 2.385 . S
Cd223 O224 2.317 . S
O224 Cd223 2.317 . S
O224 C225 1.232 . S
C225 O224 1.232 . S
C225 O226 1.218 . S
O226 C225 1.218 . S
C227 O220 1.275 . S
C227 O222 1.255 . S
C228 O229 1.258 . S
C228 O230 1.256 . S
O229 Cd221 2.381 . S
O229 C228 1.258 . S
O230 Cd221 2.378 . S
O230 C228 1.256 . S
O231 Cd232 2.300 . S
O231 C238 1.275 . S
Cd232 O231 2.300 . S
Cd232 O240 2.381 . S
Cd232 O241 2.378 . S
O233 Cd234 2.385 . S
O233 C238 1.255 . S
Cd234 O233 2.385 . S
Cd234 O235 2.317 . S
O235 Cd234 2.317 . S
O235 C236 1.232 . S
C236 O235 1.232 . S
C236 O237 1.218 . S
O237 C236 1.218 . S
C238 O231 1.275 . S
C238 O233 1.255 . S
C239 O240 1.258 . S
C239 O241 1.256 . S
O240 Cd232 2.381 . S
O240 C239 1.258 . S
O241 Cd232 2.378 . S
O241 C239 1.256 . S
O242 Cd243 2.300 . S
O242 C249 1.275 . S
Cd243 O242 2.300 . S
Cd243 O251 2.381 . S
Cd243 O252 2.378 . S
O244 Cd245 2.385 . S
O244 C249 1.255 . S
Cd245 O244 2.385 . S
Cd245 O246 2.317 . S
O246 Cd245 2.317 . S
O246 C247 1.232 . S
C247 O246 1.232 . S
C247 O248 1.218 . S
O248 C247 1.218 . S
C249 O242 1.275 . S
C249 O244 1.255 . S
C250 O251 1.258 . S
C250 O252 1.256 . S
O251 Cd243 2.381 . S
O251 C250 1.258 . S
O252 Cd243 2.378 . S
O252 C250 1.256 . S
O253 Cd254 2.300 . S
O253 C260 1.275 . S
Cd254 O253 2.300 . S
Cd254 O262 2.381 . S
Cd254 O263 2.378 . S
O255 Cd256 2.385 . S
O255 C260 1.255 . S
Cd256 O255 2.385 . S
Cd256 O257 2.317 . S
O257 Cd256 2.317 . S
O257 C258 1.232 . S
C258 O257 1.232 . S
C258 O259 1.218 . S
O259 C258 1.218 . S
C260 O253 1.275 . S
C260 O255 1.255 . S
C261 O262 1.258 . S
C261 O263 1.256 . S
O262 Cd254 2.381 . S
O262 C261 1.258 . S
O263 Cd254 2.378 . S
O263 C261 1.256 . S
O264 Cd265 2.300 . S
O264 C271 1.275 . S
Cd265 O264 2.300 . S
Cd265 O273 2.381 . S
Cd265 O274 2.378 . S
O266 Cd267 2.385 . S
O266 C271 1.255 . S
Cd267 O266 2.385 . S
Cd267 O268 2.317 . S
O268 Cd267 2.317 . S
O268 C269 1.232 . S
C269 O268 1.232 . S
C269 O270 1.218 . S
O270 C269 1.218 . S
C271 O264 1.275 . S
C271 O266 1.255 . S
C272 O273 1.258 . S
C272 O274 1.256 . S
O273 Cd265 2.381 . S
O273 C272 1.258 . S
O274 Cd265 2.378 . S
O274 C272 1.256 . S
O275 Cd276 2.300 . S
O275 C282 1.275 . S
Cd276 O275 2.300 . S
Cd276 O284 2.381 . S
Cd276 O285 2.378 . S
O277 Cd278 2.385 . S
O277 C282 1.255 . S
Cd278 O277 2.385 . S
Cd278 O279 2.317 . S
O279 Cd278 2.317 . S
O279 C280 1.232 . S
C280 O279 1.232 . S
C280 O281 1.218 . S
O281 C280 1.218 . S
C282 O275 1.275 . S
C282 O277 1.255 . S
C283 O284 1.258 . S
C283 O285 1.256 . S
O284 Cd276 2.381 . S
O284 C283 1.258 . S
O285 Cd276 2.378 . S
O285 C283 1.256 . S
O286 Cd287 2.300 . S
O286 C293 1.275 . S
Cd287 O286 2.300 . S
Cd287 O295 2.381 . S
Cd287 O296 2.378 . S
O288 Cd289 2.385 . S
O288 C293 1.255 . S
Cd289 O288 2.385 . S
Cd289 O290 2.317 . S
O290 Cd289 2.317 . S
O290 C291 1.232 . S
C291 O290 1.232 . S
C291 O292 1.218 . S
O292 C291 1.218 . S
C293 O286 1.275 . S
C293 O288 1.255 . S
C294 O295 1.258 . S
C294 O296 1.256 . S
O295 Cd287 2.381 . S
O295 C294 1.258 . S
O296 Cd287 2.378 . S
O296 C294 1.256 . S
O297 Cd298 2.300 . S
O297 C304 1.275 . S
Cd298 O297 2.300 . S
Cd298 O306 2.381 . S
Cd298 O307 2.378 . S
O299 Cd300 2.385 . S
O299 C304 1.255 . S
Cd300 O299 2.385 . S
Cd300 O301 2.317 . S
O301 Cd300 2.317 . S
O301 C302 1.232 . S
C302 O301 1.232 . S
C302 O303 1.218 . S
O303 C302 1.218 . S
C304 O297 1.275 . S
C304 O299 1.255 . S
C305 O306 1.258 . S
C305 O307 1.256 . S
O306 Cd298 2.381 . S
O306 C305 1.258 . S
O307 Cd298 2.378 . S
O307 C305 1.256 . S
O308 Cd309 2.300 . S
O308 C315 1.275 . S
Cd309 O308 2.300 . S
Cd309 O317 2.381 . S
Cd309 O318 2.378 . S
O310 Cd311 2.385 . S
O310 C315 1.255 . S
Cd311 O310 2.385 . S
Cd311 O312 2.317 . S
O312 Cd311 2.317 . S
O312 C313 1.232 . S
C313 O312 1.232 . S
C313 O314 1.218 . S
O314 C313 1.218 . S
C315 O308 1.275 . S
C315 O310 1.255 . S
C316 O317 1.258 . S
C316 O318 1.256 . S
O317 Cd309 2.381 . S
O317 C316 1.258 . S
O318 Cd309 2.378 . S
O318 C316 1.256 . S
O319 Cd320 2.300 . S
O319 C326 1.275 . S
Cd320 O319 2.300 . S
Cd320 O328 2.381 . S
Cd320 O329 2.378 . S
O321 Cd322 2.385 . S
O321 C326 1.255 . S
Cd322 O321 2.385 . S
Cd322 O323 2.317 . S
O323 Cd322 2.317 . S
O323 C324 1.232 . S
C324 O323 1.232 . S
C324 O325 1.218 . S
O325 C324 1.218 . S
C326 O319 1.275 . S
C326 O321 1.255 . S
C327 O328 1.258 . S
C327 O329 1.256 . S
O328 Cd320 2.381 . S
O328 C327 1.258 . S
O329 Cd320 2.378 . S
O329 C327 1.256 . S
O330 Cd331 2.300 . S
O330 C337 1.275 . S
Cd331 O330 2.300 . S
Cd331 O339 2.381 . S
Cd331 O340 2.378 . S
O332 Cd333 2.385 . S
O332 C337 1.255 . S
Cd333 O332 2.385 . S
Cd333 O334 2.317 . S
O334 Cd333 2.317 . S
O334 C335 1.232 . S
C335 O334 1.232 . S
C335 O336 1.218 . S
O336 C335 1.218 . S
C337 O330 1.275 . S
C337 O332 1.255 . S
C338 O339 1.258 . S
C338 O340 1.256 . S
O339 Cd331 2.381 . S
O339 C338 1.258 . S
O340 Cd331 2.378 . S
O340 C338 1.256 . S
O341 Cd342 2.300 . S
O341 C348 1.275 . S
Cd342 O341 2.300 . S
Cd342 O350 2.381 . S
Cd342 O351 2.378 . S
O343 Cd344 2.385 . S
O343 C348 1.255 . S
Cd344 O343 2.385 . S
Cd344 O345 2.317 . S
O345 Cd344 2.317 . S
O345 C346 1.232 . S
C346 O345 1.232 . S
C346 O347 1.218 . S
O347 C346 1.218 . S
C348 O341 1.275 . S
C348 O343 1.255 . S
C349 O350 1.258 . S
C349 O351 1.256 . S
O350 Cd342 2.381 . S
O350 C349 1.258 . S
O351 Cd342 2.378 . S
O351 C349 1.256 . S
O352 Cd353 2.300 . S
O352 C359 1.275 . S
Cd353 O352 2.300 . S
Cd353 O361 2.381 . S
Cd353 O362 2.378 . S
O354 Cd355 2.385 . S
O354 C359 1.255 . S
Cd355 O354 2.385 . S
Cd355 O356 2.317 . S
O356 Cd355 2.317 . S
O356 C357 1.232 . S
C357 O356 1.232 . S
C357 O358 1.218 . S
O358 C357 1.218 . S
C359 O352 1.275 . S
C359 O354 1.255 . S
C360 O361 1.258 . S
C360 O362 1.256 . S
O361 Cd353 2.381 . S
O361 C360 1.258 . S
O362 Cd353 2.378 . S
O362 C360 1.256 . S
O363 Cd364 2.300 . S
O363 C370 1.275 . S
Cd364 O363 2.300 . S
Cd364 O372 2.381 . S
Cd364 O373 2.378 . S
O365 Cd366 2.385 . S
O365 C370 1.255 . S
Cd366 O365 2.385 . S
Cd366 O367 2.317 . S
O367 Cd366 2.317 . S
O367 C368 1.232 . S
C368 O367 1.232 . S
C368 O369 1.218 . S
O369 C368 1.218 . S
C370 O363 1.275 . S
C370 O365 1.255 . S
C371 O372 1.258 . S
C371 O373 1.256 . S
O372 Cd364 2.381 . S
O372 C371 1.258 . S
O373 Cd364 2.378 . S
O373 C371 1.256 . S
O374 Cd375 2.300 . S
O374 C381 1.275 . S
Cd375 O374 2.300 . S
Cd375 O383 2.381 . S
Cd375 O384 2.378 . S
O376 Cd377 2.385 . S
O376 C381 1.255 . S
Cd377 O376 2.385 . S
Cd377 O378 2.317 . S
O378 Cd377 2.317 . S
O378 C379 1.232 . S
C379 O378 1.232 . S
C379 O380 1.218 . S
O380 C379 1.218 . S
C381 O374 1.275 . S
C381 O376 1.255 . S
C382 O383 1.258 . S
C382 O384 1.256 . S
O383 Cd375 2.381 . S
O383 C382 1.258 . S
O384 Cd375 2.378 . S
O384 C382 1.256 . S
O385 Cd386 2.300 . S
O385 C392 1.275 . S
Cd386 O385 2.300 . S
Cd386 O394 2.381 . S
Cd386 O395 2.378 . S
O387 Cd388 2.385 . S
O387 C392 1.255 . S
Cd388 O387 2.385 . S
Cd388 O389 2.317 . S
O389 Cd388 2.317 . S
O389 C390 1.232 . S
C390 O389 1.232 . S
C390 O391 1.218 . S
O391 C390 1.218 . S
C392 O385 1.275 . S
C392 O387 1.255 . S
C393 O394 1.258 . S
C393 O395 1.256 . S
O394 Cd386 2.381 . S
O394 C393 1.258 . S
O395 Cd386 2.378 . S
O395 C393 1.256 . S
O396 Cd397 2.300 . S
O396 C403 1.275 . S
Cd397 O396 2.300 . S
Cd397 O405 2.381 . S
Cd397 O406 2.378 . S
O398 Cd399 2.385 . S
O398 C403 1.255 . S
Cd399 O398 2.385 . S
Cd399 O400 2.317 . S
O400 Cd399 2.317 . S
O400 C401 1.232 . S
C401 O400 1.232 . S
C401 O402 1.218 . S
O402 C401 1.218 . S
C403 O396 1.275 . S
C403 O398 1.255 . S
C404 O405 1.258 . S
C404 O406 1.256 . S
O405 Cd397 2.381 . S
O405 C404 1.258 . S
O406 Cd397 2.378 . S
O406 C404 1.256 . S
O407 Cd408 2.300 . S
O407 C414 1.275 . S
Cd408 O407 2.300 . S
Cd408 O416 2.381 . S
Cd408 O417 2.378 . S
O409 Cd410 2.385 . S
O409 C414 1.255 . S
Cd410 O409 2.385 . S
Cd410 O411 2.317 . S
O411 Cd410 2.317 . S
O411 C412 1.232 . S
C412 O411 1.232 . S
C412 O413 1.218 . S
O413 C412 1.218 . S
C414 O407 1.275 . S
C414 O409 1.255 . S
C415 O416 1.258 . S
C415 O417 1.256 . S
O416 Cd408 2.381 . S
O416 C415 1.258 . S
O417 Cd408 2.378 . S
O417 C415 1.256 . S
O418 Cd419 2.300 . S
O418 C425 1.275 . S
Cd419 O418 2.300 . S
Cd419 O427 2.381 . S
Cd419 O428 2.378 . S
O420 Cd421 2.385 . S
O420 C425 1.255 . S
Cd421 O420 2.385 . S
Cd421 O422 2.317 . S
O422 Cd421 2.317 . S
O422 C423 1.232 . S
C423 O422 1.232 . S
C423 O424 1.218 . S
O424 C423 1.218 . S
C425 O418 1.275 . S
C425 O420 1.255 . S
C426 O427 1.258 . S
C426 O428 1.256 . S
O427 Cd419 2.381 . S
O427 C426 1.258 . S
O428 Cd419 2.378 . S
O428 C426 1.256 . S
O429 Cd430 2.300 . S
O429 C436 1.275 . S
Cd430 O429 2.300 . S
Cd430 O438 2.381 . S
Cd430 O439 2.378 . S
O431 Cd432 2.385 . S
O431 C436 1.255 . S
Cd432 O431 2.385 . S
Cd432 O433 2.317 . S
O433 Cd432 2.317 . S
O433 C434 1.232 . S
C434 O433 1.232 . S
C434 O435 1.218 . S
O435 C434 1.218 . S
C436 O429 1.275 . S
C436 O431 1.255 . S
C437 O438 1.258 . S
C437 O439 1.256 . S
O438 Cd430 2.381 . S
O438 C437 1.258 . S
O439 Cd430 2.378 . S
O439 C437 1.256 . S
O440 Cd441 2.300 . S
O440 C447 1.275 . S
Cd441 O440 2.300 . S
Cd441 O449 2.381 . S
Cd441 O450 2.378 . S
O442 Cd443 2.385 . S
O442 C447 1.255 . S
Cd443 O442 2.385 . S
Cd443 O444 2.317 . S
O444 Cd443 2.317 . S
O444 C445 1.232 . S
C445 O444 1.232 . S
C445 O446 1.218 . S
O446 C445 1.218 . S
C447 O440 1.275 . S
C447 O442 1.255 . S
C448 O449 1.258 . S
C448 O450 1.256 . S
O449 Cd441 2.381 . S
O449 C448 1.258 . S
O450 Cd441 2.378 . S
O450 C448 1.256 . S
O451 Cd452 2.300 . S
O451 C458 1.275 . S
Cd452 O451 2.300 . S
Cd452 O460 2.381 . S
Cd452 O461 2.378 . S
O453 Cd454 2.385 . S
O453 C458 1.255 . S
Cd454 O453 2.385 . S
Cd454 O455 2.317 . S
O455 Cd454 2.317 . S
O455 C456 1.232 . S
C456 O455 1.232 . S
C456 O457 1.218 . S
O457 C456 1.218 . S
C458 O451 1.275 . S
C458 O453 1.255 . S
C459 O460 1.258 . S
C459 O461 1.256 . S
O460 Cd452 2.381 . S
O460 C459 1.258 . S
O461 Cd452 2.378 . S
O461 C459 1.256 . S
O462 Cd463 2.300 . S
O462 C469 1.275 . S
Cd463 O462 2.300 . S
Cd463 O471 2.381 . S
Cd463 O472 2.378 . S
O464 Cd465 2.385 . S
O464 C469 1.255 . S
Cd465 O464 2.385 . S
Cd465 O466 2.317 . S
O466 Cd465 2.317 . S
O466 C467 1.232 . S
C467 O466 1.232 . S
C467 O468 1.218 . S
O468 C467 1.218 . S
C469 O462 1.275 . S
C469 O464 1.255 . S
C470 O471 1.258 . S
C470 O472 1.256 . S
O471 Cd463 2.381 . S
O471 C470 1.258 . S
O472 Cd463 2.378 . S
O472 C470 1.256 . S
O473 Cd474 2.300 . S
O473 C480 1.275 . S
Cd474 O473 2.300 . S
Cd474 O482 2.381 . S
Cd474 O483 2.378 . S
O475 Cd476 2.385 . S
O475 C480 1.255 . S
Cd476 O475 2.385 . S
Cd476 O477 2.317 . S
O477 Cd476 2.317 . S
O477 C478 1.232 . S
C478 O477 1.232 . S
C478 O479 1.218 . S
O479 C478 1.218 . S
C480 O473 1.275 . S
C480 O475 1.255 . S
C481 O482 1.258 . S
C481 O483 1.256 . S
O482 Cd474 2.381 . S
O482 C481 1.258 . S
O483 Cd474 2.378 . S
O483 C481 1.256 . S
O484 Cd485 2.300 . S
O484 C491 1.275 . S
Cd485 O484 2.300 . S
Cd485 O493 2.381 . S
Cd485 O494 2.378 . S
O486 Cd487 2.385 . S
O486 C491 1.255 . S
Cd487 O486 2.385 . S
Cd487 O488 2.317 . S
O488 Cd487 2.317 . S
O488 C489 1.232 . S
C489 O488 1.232 . S
C489 O490 1.218 . S
O490 C489 1.218 . S
C491 O484 1.275 . S
C491 O486 1.255 . S
C492 O493 1.258 . S
C492 O494 1.256 . S
O493 Cd485 2.381 . S
O493 C492 1.258 . S
O494 Cd485 2.378 . S
O494 C492 1.256 . S
O495 Cd496 2.300 . S
O495 C502 1.275 . S
Cd496 O495 2.300 . S
Cd496 O504 2.381 . S
Cd496 O505 2.378 . S
O497 Cd498 2.385 . S
O497 C502 1.255 . S
Cd498 O497 2.385 . S
Cd498 O499 2.317 . S
O499 Cd498 2.317 . S
O499 C500 1.232 . S
C500 O499 1.232 . S
C500 O501 1.218 . S
O501 C500 1.218 . S
C502 O495 1.275 . S
C502 O497 1.255 . S
C503 O504 1.258 . S
C503 O505 1.256 . S
O504 Cd496 2.381 . S
O504 C503 1.258 . S
O505 Cd496 2.378 . S
O505 C503 1.256 . S
O506 Cd507 2.300 . S
O506 C513 1.275 . S
Cd507 O506 2.300 . S
Cd507 O515 2.381 . S
Cd507 O516 2.378 . S
O508 Cd509 2.385 . S
O508 C513 1.255 . S
Cd509 O508 2.385 . S
Cd509 O510 2.317 . S
O510 Cd509 2.317 . S
O510 C511 1.232 . S
C511 O510 1.232 . S
C511 O512 1.218 . S
O512 C511 1.218 . S
C513 O506 1.275 . S
C513 O508 1.255 . S
C514 O515 1.258 . S
C514 O516 1.256 . S
O515 Cd507 2.381 . S
O515 C514 1.258 . S
O516 Cd507 2.378 . S
O516 C514 1.256 . S
O517 Cd518 2.300 . S
O517 C524 1.275 . S
Cd518 O517 2.300 . S
Cd518 O526 2.381 . S
Cd518 O527 2.378 . S
O519 Cd520 2.385 . S
O519 C524 1.255 . S
Cd520 O519 2.385 . S
Cd520 O521 2.317 . S
O521 Cd520 2.317 . S
O521 C522 1.232 . S
C522 O521 1.232 . S
C522 O523 1.218 . S
O523 C522 1.218 . S
C524 O517 1.275 . S
C524 O519 1.255 . S
C525 O526 1.258 . S
C525 O527 1.256 . S
O526 Cd518 2.381 . S
O526 C525 1.258 . S
O527 Cd518 2.378 . S
O527 C525 1.256 . S
O528 Cd529 2.300 . S
O528 C535 1.275 . S
Cd529 O528 2.300 . S
Cd529 O537 2.381 . S
Cd529 O538 2.378 . S
O530 Cd531 2.385 . S
O530 C535 1.255 . S
Cd531 O530 2.385 . S
Cd531 O532 2.317 . S
O532 Cd531 2.317 . S
O532 C533 1.232 . S
C533 O532 1.232 . S
C533 O534 1.218 . S
O534 C533 1.218 . S
C535 O528 1.275 . S
C535 O530 1.255 . S
C536 O537 1.258 . S
C536 O538 1.256 . S
O537 Cd529 2.381 . S
O537 C536 1.258 . S
O538 Cd529 2.378 . S
O538 C536 1.256 . S
O539 Cd540 2.300 . S
O539 C546 1.275 . S
Cd540 O539 2.300 . S
Cd540 O548 2.381 . S
Cd540 O549 2.378 . S
O541 Cd542 2.385 . S
O541 C546 1.255 . S
Cd542 O541 2.385 . S
Cd542 O543 2.317 . S
O543 Cd542 2.317 . S
O543 C544 1.232 . S
C544 O543 1.232 . S
C544 O545 1.218 . S
O545 C544 1.218 . S
C546 O539 1.275 . S
C546 O541 1.255 . S
C547 O548 1.258 . S
C547 O549 1.256 . S
O548 Cd540 2.381 . S
O548 C547 1.258 . S
O549 Cd540 2.378 . S
O549 C547 1.256 . S
O550 Cd551 2.300 . S
O550 C557 1.275 . S
Cd551 O550 2.300 . S
Cd551 O559 2.381 . S
Cd551 O560 2.378 . S
O552 Cd553 2.385 . S
O552 C557 1.255 . S
Cd553 O552 2.385 . S
Cd553 O554 2.317 . S
O554 Cd553 2.317 . S
O554 C555 1.232 . S
C555 O554 1.232 . S
C555 O556 1.218 . S
O556 C555 1.218 . S
C557 O550 1.275 . S
C557 O552 1.255 . S
C558 O559 1.258 . S
C558 O560 1.256 . S
O559 Cd551 2.381 . S
O559 C558 1.258 . S
O560 Cd551 2.378 . S
O560 C558 1.256 . S
O561 Cd562 2.300 . S
O561 C568 1.275 . S
Cd562 O561 2.300 . S
Cd562 O570 2.381 . S
Cd562 O571 2.378 . S
O563 Cd564 2.385 . S
O563 C568 1.255 . S
Cd564 O563 2.385 . S
Cd564 O565 2.317 . S
O565 Cd564 2.317 . S
O565 C566 1.232 . S
C566 O565 1.232 . S
C566 O567 1.218 . S
O567 C566 1.218 . S
C568 O561 1.275 . S
C568 O563 1.255 . S
C569 O570 1.258 . S
C569 O571 1.256 . S
O570 Cd562 2.381 . S
O570 C569 1.258 . S
O571 Cd562 2.378 . S
O571 C569 1.256 . S
O572 Cd573 2.300 . S
O572 C579 1.275 . S
Cd573 O572 2.300 . S
Cd573 O581 2.381 . S
Cd573 O582 2.378 . S
O574 Cd575 2.385 . S
O574 C579 1.255 . S
Cd575 O574 2.385 . S
Cd575 O576 2.317 . S
O576 Cd575 2.317 . S
O576 C577 1.232 . S
C577 O576 1.232 . S
C577 O578 1.218 . S
O578 C577 1.218 . S
C579 O572 1.275 . S
C579 O574 1.255 . S
C580 O581 1.258 . S
C580 O582 1.256 . S
O581 Cd573 2.381 . S
O581 C580 1.258 . S
O582 Cd573 2.378 . S
O582 C580 1.256 . S
O583 Cd584 2.300 . S
O583 C590 1.275 . S
Cd584 O583 2.300 . S
Cd584 O592 2.381 . S
Cd584 O593 2.378 . S
O585 Cd586 2.385 . S
O585 C590 1.255 . S
Cd586 O585 2.385 . S
Cd586 O587 2.317 . S
O587 Cd586 2.317 . S
O587 C588 1.232 . S
C588 O587 1.232 . S
C588 O589 1.218 . S
O589 C588 1.218 . S
C590 O583 1.275 . S
C590 O585 1.255 . S
C591 O592 1.258 . S
C591 O593 1.256 . S
O592 Cd584 2.381 . S
O592 C591 1.258 . S
O593 Cd584 2.378 . S
O593 C591 1.256 . S
O594 Cd595 2.300 . S
O594 C601 1.275 . S
Cd595 O594 2.300 . S
Cd595 O603 2.381 . S
Cd595 O604 2.378 . S
O596 Cd597 2.385 . S
O596 C601 1.255 . S
Cd597 O596 2.385 . S
Cd597 O598 2.317 . S
O598 Cd597 2.317 . S
O598 C599 1.232 . S
C599 O598 1.232 . S
C599 O600 1.218 . S
O600 C599 1.218 . S
C601 O594 1.275 . S
C601 O596 1.255 . S
C602 O603 1.258 . S
C602 O604 1.256 . S
O603 Cd595 2.381 . S
O603 C602 1.258 . S
O604 Cd595 2.378 . S
O604 C602 1.256 . S
O605 Cd606 2.300 . S
O605 C612 1.275 . S
Cd606 O605 2.300 . S
Cd606 O614 2.381 . S
Cd606 O615 2.378 . S
O607 Cd608 2.385 . S
O607 C612 1.255 . S
Cd608 O607 2.385 . S
Cd608 O609 2.317 . S
O609 Cd608 2.317 . S
O609 C610 1.232 . S
C610 O609 1.232 . S
C610 O611 1.218 . S
O611 C610 1.218 . S
C612 O605 1.275 . S
C612 O607 1.255 . S
C613 O614 1.258 . S
C613 O615 1.256 . S
O614 Cd606 2.381 . S
O614 C613 1.258 . S
O615 Cd606 2.378 . S
O615 C613 1.256 . S
O616 Cd617 2.300 . S
O616 C623 1.275 . S
Cd617 O616 2.300 . S
Cd617 O625 2.381 . S
Cd617 O626 2.378 . S
O618 Cd619 2.385 . S
O618 C623 1.255 . S
Cd619 O618 2.385 . S
Cd619 O620 2.317 . S
O620 Cd619 2.317 . S
O620 C621 1.232 . S
C621 O620 1.232 . S
C621 O622 1.218 . S
O622 C621 1.218 . S
C623 O616 1.275 . S
C623 O618 1.255 . S
C624 O625 1.258 . S
C624 O626 1.256 . S
O625 Cd617 2.381 . S
O625 C624 1.258 . S
O626 Cd617 2.378 . S
O626 C624 1.256 . S
O627 Cd628 2.300 . S
O627 C634 1.275 . S
Cd628 O627 2.300 . S
Cd628 O636 2.381 . S
Cd628 O637 2.378 . S
O629 Cd630 2.385 . S
O629 C634 1.255 . S
Cd630 O629 2.385 . S
Cd630 O631 2.317 . S
O631 Cd630 2.317 . S
O631 C632 1.232 . S
C632 O631 1.232 . S
C632 O633 1.218 . S
O633 C632 1.218 . S
C634 O627 1.275 . S
C634 O629 1.255 . S
C635 O636 1.258 . S
C635 O637 1.256 . S
O636 Cd628 2.381 . S
O636 C635 1.258 . S
O637 Cd628 2.378 . S
O637 C635 1.256 . S
O638 Cd639 2.300 . S
O638 C645 1.275 . S
Cd639 O638 2.300 . S
Cd639 O647 2.381 . S
Cd639 O648 2.378 . S
O640 Cd641 2.385 . S
O640 C645 1.255 . S
Cd641 O640 2.385 . S
Cd641 O642 2.317 . S
O642 Cd641 2.317 . S
O642 C643 1.232 . S
C643 O642 1.232 . S
C643 O644 1.218 . S
O644 C643 1.218 . S
C645 O638 1.275 . S
C645 O640 1.255 . S
C646 O647 1.258 . S
C646 O648 1.256 . S
O647 Cd639 2.381 . S
O647 C646 1.258 . S
O648 Cd639 2.378 . S
O648 C646 1.256 . S
O649 Cd650 2.300 . S
O649 C656 1.275 . S
Cd650 O649 2.300 . S
Cd650 O658 2.381 . S
Cd650 O659 2.378 . S
O651 Cd652 2.385 . S
O651 C656 1.255 . S
Cd652 O651 2.385 . S
Cd652 O653 2.317 . S
O653 Cd652 2.317 . S
O653 C654 1.232 . S
C654 O653 1.232 . S
C654 O655 1.218 . S
O655 C654 1.218 . S
C656 O649 1.275 . S
C656 O651 1.255 . S
C657 O658 1.258 . S
C657 O659 1.256 . S
O658 Cd650 2.381 . S
O658 C657 1.258 . S
O659 Cd650 2.378 . S
O659 C657 1.256 . S
O660 Cd661 2.300 . S
O660 C667 1.275 . S
Cd661 O660 2.300 . S
Cd661 O669 2.381 . S
Cd661 O670 2.378 . S
O662 Cd663 2.385 . S
O662 C667 1.255 . S
Cd663 O662 2.385 . S
Cd663 O664 2.317 . S
O664 Cd663 2.317 . S
O664 C665 1.232 . S
C665 O664 1.232 . S
C665 O666 1.218 . S
O666 C665 1.218 . S
C667 O660 1.275 . S
C667 O662 1.255 . S
C668 O669 1.258 . S
C668 O670 1.256 . S
O669 Cd661 2.381 . S
O669 C668 1.258 . S
O670 Cd661 2.378 . S
O670 C668 1.256 . S
O671 Cd672 2.300 . S
O671 C678 1.275 . S
Cd672 O671 2.300 . S
Cd672 O680 2.381 . S
Cd672 O681 2.378 . S
O673 Cd674 2.385 . S
O673 C678 1.255 . S
Cd674 O673 2.385 . S
Cd674 O675 2.317 . S
O675 Cd674 2.317 . S
O675 C676 1.232 . S
C676 O675 1.232 . S
C676 O677 1.218 . S
O677 C676 1.218 . S
C678 O671 1.275 . S
C678 O673 1.255 . S
C679 O680 1.258 . S
C679 O681 1.256 . S
O680 Cd672 2.381 . S
O680 C679 1.258 . S
O681 Cd672 2.378 . S
O681 C679 1.256 . S
O682 Cd683 2.300 . S
O682 C689 1.275 . S
Cd683 O682 2.300 . S
Cd683 O691 2.381 . S
Cd683 O692 2.378 . S
O684 Cd685 2.385 . S
O684 C689 1.255 . S
Cd685 O684 2.385 . S
Cd685 O686 2.317 . S
O686 Cd685 2.317 . S
O686 C687 1.232 . S
C687 O686 1.232 . S
C687 O688 1.218 . S
O688 C687 1.218 . S
C689 O682 1.275 . S
C689 O684 1.255 . S
C690 O691 1.258 . S
C690 O692 1.256 . S
O691 Cd683 2.381 . S
O691 C690 1.258 . S
O692 Cd683 2.378 . S
O692 C690 1.256 . S
O693 Cd694 2.300 . S
O693 C700 1.275 . S
Cd694 O693 2.300 . S
Cd694 O702 2.381 . S
Cd694 O703 2.378 . S
O695 Cd696 2.385 . S
O695 C700 1.255 . S
Cd696 O695 2.385 . S
Cd696 O697 2.317 . S
O697 Cd696 2.317 . S
O697 C698 1.232 . S
C698 O697 1.232 . S
C698 O699 1.218 . S
O699 C698 1.218 . S
C700 O693 1.275 . S
C700 O695 1.255 . S
C701 O702 1.258 . S
C701 O703 1.256 . S
O702 Cd694 2.381 . S
O702 C701 1.258 . S
O703 Cd694 2.378 . S
O703 C701 1.256 . S
O704 Cd705 2.300 . S
O704 C711 1.275 . S
Cd705 O704 2.300 . S
Cd705 O713 2.381 . S
Cd705 O714 2.378 . S
O706 Cd707 2.385 . S
O706 C711 1.255 . S
Cd707 O706 2.385 . S
Cd707 O708 2.317 . S
O708 Cd707 2.317 . S
O708 C709 1.232 . S
C709 O708 1.232 . S
C709 O710 1.218 . S
O710 C709 1.218 . S
C711 O704 1.275 . S
C711 O706 1.255 . S
C712 O713 1.258 . S
C712 O714 1.256 . S
O713 Cd705 2.381 . S
O713 C712 1.258 . S
O714 Cd705 2.378 . S
O714 C712 1.256 . S
O715 Cd716 2.300 . S
O715 C722 1.275 . S
Cd716 O715 2.300 . S
Cd716 O724 2.381 . S
Cd716 O725 2.378 . S
O717 Cd718 2.385 . S
O717 C722 1.255 . S
Cd718 O717 2.385 . S
Cd718 O719 2.317 . S
O719 Cd718 2.317 . S
O719 C720 1.232 . S
C720 O719 1.232 . S
C720 O721 1.218 . S
O721 C720 1.218 . S
C722 O715 1.275 . S
C722 O717 1.255 . S
C723 O724 1.258 . S
C723 O725 1.256 . S
O724 Cd716 2.381 . S
O724 C723 1.258 . S
O725 Cd716 2.378 . S
O725 C723 1.256 . S
O726 Cd727 2.300 . S
O726 C733 1.275 . S
Cd727 O726 2.300 . S
Cd727 O735 2.381 . S
Cd727 O736 2.378 . S
O728 Cd729 2.385 . S
O728 C733 1.255 . S
Cd729 O728 2.385 . S
Cd729 O730 2.317 . S
O730 Cd729 2.317 . S
O730 C731 1.232 . S
C731 O730 1.232 . S
C731 O732 1.218 . S
O732 C731 1.218 . S
C733 O726 1.275 . S
C733 O728 1.255 . S
C734 O735 1.258 . S
C734 O736 1.256 . S
O735 Cd727 2.381 . S
O735 C734 1.258 . S
O736 Cd727 2.378 . S
O736 C734 1.256 . S
O737 Cd738 2.300 . S
O737 C744 1.275 . S
Cd738 O737 2.300 . S
Cd738 O746 2.381 . S
Cd738 O747 2.378 . S
O739 Cd740 2.385 . S
O739 C744 1.255 . S
Cd740 O739 2.385 . S
Cd740 O741 2.317 . S
O741 Cd740 2.317 . S
O741 C742 1.232 . S
C742 O741 1.232 . S
C742 O743 1.218 . S
O743 C742 1.218 . S
C744 O737 1.275 . S
C744 O739 1.255 . S
C745 O746 1.258 . S
C745 O747 1.256 . S
O746 Cd738 2.381 . S
O746 C745 1.258 . S
O747 Cd738 2.378 . S
O747 C745 1.256 . S
O748 Cd749 2.300 . S
O748 C755 1.275 . S
Cd749 O748 2.300 . S
Cd749 O757 2.381 . S
Cd749 O758 2.378 . S
O750 Cd751 2.385 . S
O750 C755 1.255 . S
Cd751 O750 2.385 . S
Cd751 O752 2.317 . S
O752 Cd751 2.317 . S
O752 C753 1.232 . S
C753 O752 1.232 . S
C753 O754 1.218 . S
O754 C753 1.218 . S
C755 O748 1.275 . S
C755 O750 1.255 . S
C756 O757 1.258 . S
C756 O758 1.256 . S
O757 Cd749 2.381 . S
O757 C756 1.258 . S
O758 Cd749 2.378 . S
O758 C756 1.256 . S
O759 Cd760 2.300 . S
O759 C766 1.275 . S
Cd760 O759 2.300 . S
Cd760 O768 2.381 . S
Cd760 O769 2.378 . S
O761 Cd762 2.385 . S
O761 C766 1.255 . S
Cd762 O761 2.385 . S
Cd762 O763 2.317 . S
O763 Cd762 2.317 . S
O763 C764 1.232 . S
C764 O763 1.232 . S
C764 O765 1.218 . S
O765 C764 1.218 . S
C766 O759 1.275 . S
C766 O761 1.255 . S
C767 O768 1.258 . S
C767 O769 1.256 . S
O768 Cd760 2.381 . S
O768 C767 1.258 . S
O769 Cd760 2.378 . S
O769 C767 1.256 . S
O770 Cd771 2.300 . S
O770 C777 1.275 . S
Cd771 O770 2.300 . S
Cd771 O779 2.381 . S
Cd771 O780 2.378 . S
O772 Cd773 2.385 . S
O772 C777 1.255 . S
Cd773 O772 2.385 . S
Cd773 O774 2.317 . S
O774 Cd773 2.317 . S
O774 C775 1.232 . S
C775 O774 1.232 . S
C775 O776 1.218 . S
O776 C775 1.218 . S
C777 O770 1.275 . S
C777 O772 1.255 . S
C778 O779 1.258 . S
C778 O780 1.256 . S
O779 Cd771 2.381 . S
O779 C778 1.258 . S
O780 Cd771 2.378 . S
O780 C778 1.256 . S
O781 Cd782 2.300 . S
O781 C788 1.275 . S
Cd782 O781 2.300 . S
Cd782 O790 2.381 . S
Cd782 O791 2.378 . S
O783 Cd784 2.385 . S
O783 C788 1.255 . S
Cd784 O783 2.385 . S
Cd784 O785 2.317 . S
O785 Cd784 2.317 . S
O785 C786 1.232 . S
C786 O785 1.232 . S
C786 O787 1.218 . S
O787 C786 1.218 . S
C788 O781 1.275 . S
C788 O783 1.255 . S
C789 O790 1.258 . S
C789 O791 1.256 . S
O790 Cd782 2.381 . S
O790 C789 1.258 . S
O791 Cd782 2.378 . S
O791 C789 1.256 . S
O792 Cd793 2.300 . S
O792 C799 1.275 . S
Cd793 O792 2.300 . S
Cd793 O801 2.381 . S
Cd793 O802 2.378 . S
O794 Cd795 2.385 . S
O794 C799 1.255 . S
Cd795 O794 2.385 . S
Cd795 O796 2.317 . S
O796 Cd795 2.317 . S
O796 C797 1.232 . S
C797 O796 1.232 . S
C797 O798 1.218 . S
O798 C797 1.218 . S
C799 O792 1.275 . S
C799 O794 1.255 . S
C800 O801 1.258 . S
C800 O802 1.256 . S
O801 Cd793 2.381 . S
O801 C800 1.258 . S
O802 Cd793 2.378 . S
O802 C800 1.256 . S
O803 Cd804 2.300 . S
O803 C810 1.275 . S
Cd804 O803 2.300 . S
Cd804 O812 2.381 . S
Cd804 O813 2.378 . S
O805 Cd806 2.385 . S
O805 C810 1.255 . S
Cd806 O805 2.385 . S
Cd806 O807 2.317 . S
O807 Cd806 2.317 . S
O807 C808 1.232 . S
C808 O807 1.232 . S
C808 O809 1.218 . S
O809 C808 1.218 . S
C810 O803 1.275 . S
C810 O805 1.255 . S
C811 O812 1.258 . S
C811 O813 1.256 . S
O812 Cd804 2.381 . S
O812 C811 1.258 . S
O813 Cd804 2.378 . S
O813 C811 1.256 . S
O814 Cd815 2.300 . S
O814 C821 1.275 . S
Cd815 O814 2.300 . S
Cd815 O823 2.381 . S
Cd815 O824 2.378 . S
O816 Cd817 2.385 . S
O816 C821 1.255 . S
Cd817 O816 2.385 . S
Cd817 O818 2.317 . S
O818 Cd817 2.317 . S
O818 C819 1.232 . S
C819 O818 1.232 . S
C819 O820 1.218 . S
O820 C819 1.218 . S
C821 O814 1.275 . S
C821 O816 1.255 . S
C822 O823 1.258 . S
C822 O824 1.256 . S
O823 Cd815 2.381 . S
O823 C822 1.258 . S
O824 Cd815 2.378 . S
O824 C822 1.256 . S
O825 Cd826 2.300 . S
O825 C832 1.275 . S
Cd826 O825 2.300 . S
Cd826 O834 2.381 . S
Cd826 O835 2.378 . S
O827 Cd828 2.385 . S
O827 C832 1.255 . S
Cd828 O827 2.385 . S
Cd828 O829 2.317 . S
O829 Cd828 2.317 . S
O829 C830 1.232 . S
C830 O829 1.232 . S
C830 O831 1.218 . S
O831 C830 1.218 . S
C832 O825 1.275 . S
C832 O827 1.255 . S
C833 O834 1.258 . S
C833 O835 1.256 . S
O834 Cd826 2.381 . S
O834 C833 1.258 . S
O835 Cd826 2.378 . S
O835 C833 1.256 . S
O836 Cd837 2.300 . S
O836 C843 1.275 . S
Cd837 O836 2.300 . S
Cd837 O845 2.381 . S
Cd837 O846 2.378 . S
O838 Cd839 2.385 . S
O838 C843 1.255 . S
Cd839 O838 2.385 . S
Cd839 O840 2.317 . S
O840 Cd839 2.317 . S
O840 C841 1.232 . S
C841 O840 1.232 . S
C841 O842 1.218 . S
O842 C841 1.218 . S
C843 O836 1.275 . S
C843 O838 1.255 . S
C844 O845 1.258 . S
C844 O846 1.256 . S
O845 Cd837 2.381 . S
O845 C844 1.258 . S
O846 Cd837 2.378 . S
O846 C844 1.256 . S
O847 Cd848 2.300 . S
O847 C854 1.275 . S
Cd848 O847 2.300 . S
Cd848 O856 2.381 . S
Cd848 O857 2.378 . S
O849 Cd850 2.385 . S
O849 C854 1.255 . S
Cd850 O849 2.385 . S
Cd850 O851 2.317 . S
O851 Cd850 2.317 . S
O851 C852 1.232 . S
C852 O851 1.232 . S
C852 O853 1.218 . S
O853 C852 1.218 . S
C854 O847 1.275 . S
C854 O849 1.255 . S
C855 O856 1.258 . S
C855 O857 1.256 . S
O856 Cd848 2.381 . S
O856 C855 1.258 . S
O857 Cd848 2.378 . S
O857 C855 1.256 . S
O858 Cd859 2.300 . S
O858 C865 1.275 . S
Cd859 O858 2.300 . S
Cd859 O867 2.381 . S
Cd859 O868 2.378 . S
O860 Cd861 2.385 . S
O860 C865 1.255 . S
Cd861 O860 2.385 . S
Cd861 O862 2.317 . S
O862 Cd861 2.317 . S
O862 C863 1.232 . S
C863 O862 1.232 . S
C863 O864 1.218 . S
O864 C863 1.218 . S
C865 O858 1.275 . S
C865 O860 1.255 . S
C866 O867 1.258 . S
C866 O868 1.256 . S
O867 Cd859 2.381 . S
O867 C866 1.258 . S
O868 Cd859 2.378 . S
O868 C866 1.256 . S
O869 Cd870 2.300 . S
O869 C876 1.275 . S
Cd870 O869 2.300 . S
Cd870 O878 2.381 . S
Cd870 O879 2.378 . S
O871 Cd872 2.385 . S
O871 C876 1.255 . S
Cd872 O871 2.385 . S
Cd872 O873 2.317 . S
O873 Cd872 2.317 . S
O873 C874 1.232 . S
C874 O873 1.232 . S
C874 O875 1.218 . S
O875 C874 1.218 . S
C876 O869 1.275 . S
C876 O871 1.255 . S
C877 O878 1.258 . S
C877 O879 1.256 . S
O878 Cd870 2.381 . S
O878 C877 1.258 . S
O879 Cd870 2.378 . S
O879 C877 1.256 . S
O880 Cd881 2.300 . S
O880 C887 1.275 . S
Cd881 O880 2.300 . S
Cd881 O889 2.381 . S
Cd881 O890 2.378 . S
O882 Cd883 2.385 . S
O882 C887 1.255 . S
Cd883 O882 2.385 . S
Cd883 O884 2.317 . S
O884 Cd883 2.317 . S
O884 C885 1.232 . S
C885 O884 1.232 . S
C885 O886 1.218 . S
O886 C885 1.218 . S
C887 O880 1.275 . S
C887 O882 1.255 . S
C888 O889 1.258 . S
C888 O890 1.256 . S
O889 Cd881 2.381 . S
O889 C888 1.258 . S
O890 Cd881 2.378 . S
O890 C888 1.256 . S
O891 Cd892 2.300 . S
O891 C898 1.275 . S
Cd892 O891 2.300 . S
Cd892 O900 2.381 . S
Cd892 O901 2.378 . S
O893 Cd894 2.385 . S
O893 C898 1.255 . S
Cd894 O893 2.385 . S
Cd894 O895 2.317 . S
O895 Cd894 2.317 . S
O895 C896 1.232 . S
C896 O895 1.232 . S
C896 O897 1.218 . S
O897 C896 1.218 . S
C898 O891 1.275 . S
C898 O893 1.255 . S
C899 O900 1.258 . S
C899 O901 1.256 . S
O900 Cd892 2.381 . S
O900 C899 1.258 . S
O901 Cd892 2.378 . S
O901 C899 1.256 . S
O902 Cd903 2.300 . S
O902 C909 1.275 . S
Cd903 O902 2.300 . S
Cd903 O911 2.381 . S
Cd903 O912 2.378 . S
O904 Cd905 2.385 . S
O904 C909 1.255 . S
Cd905 O904 2.385 . S
Cd905 O906 2.317 . S
O906 Cd905 2.317 . S
O906 C907 1.232 . S
C907 O906 1.232 . S
C907 O908 1.218 . S
O908 C907 1.218 . S
C909 O902 1.275 . S
C909 O904 1.255 . S
C910 O911 1.258 . S
C910 O912 1.256 . S
O911 Cd903 2.381 . S
O911 C910 1.258 . S
O912 Cd903 2.378 . S
O912 C910 1.256 . S
O913 Cd914 2.300 . S
O913 C920 1.275 . S
Cd914 O913 2.300 . S
Cd914 O922 2.381 . S
Cd914 O923 2.378 . S
O915 Cd916 2.385 . S
O915 C920 1.255 . S
Cd916 O915 2.385 . S
Cd916 O917 2.317 . S
O917 Cd916 2.317 . S
O917 C918 1.232 . S
C918 O917 1.232 . S
C918 O919 1.218 . S
O919 C918 1.218 . S
C920 O913 1.275 . S
C920 O915 1.255 . S
C921 O922 1.258 . S
C921 O923 1.256 . S
O922 Cd914 2.381 . S
O922 C921 1.258 . S
O923 Cd914 2.378 . S
O923 C921 1.256 . S
O924 Cd925 2.300 . S
O924 C931 1.275 . S
Cd925 O924 2.300 . S
Cd925 O933 2.381 . S
Cd925 O934 2.378 . S
O926 Cd927 2.385 . S
O926 C931 1.255 . S
Cd927 O926 2.385 . S
Cd927 O928 2.317 . S
O928 Cd927 2.317 . S
O928 C929 1.232 . S
C929 O928 1.232 . S
C929 O930 1.218 . S
O930 C929 1.218 . S
C931 O924 1.275 . S
C931 O926 1.255 . S
C932 O933 1.258 . S
C932 O934 1.256 . S
O933 Cd925 2.381 . S
O933 C932 1.258 . S
O934 Cd925 2.378 . S
O934 C932 1.256 . S
O935 Cd936 2.300 . S
O935 C942 1.275 . S
Cd936 O935 2.300 . S
Cd936 O944 2.381 . S
Cd936 O945 2.378 . S
O937 Cd938 2.385 . S
O937 C942 1.255 . S
Cd938 O937 2.385 . S
Cd938 O939 2.317 . S
O939 Cd938 2.317 . S
O939 C940 1.232 . S
C940 O939 1.232 . S
C940 O941 1.218 . S
O941 C940 1.218 . S
C942 O935 1.275 . S
C942 O937 1.255 . S
C943 O944 1.258 . S
C943 O945 1.256 . S
O944 Cd936 2.381 . S
O944 C943 1.258 . S
O945 Cd936 2.378 . S
O945 C943 1.256 . S
O946 Cd947 2.300 . S
O946 C953 1.275 . S
Cd947 O946 2.300 . S
Cd947 O955 2.381 . S
Cd947 O956 2.378 . S
O948 Cd949 2.385 . S
O948 C953 1.255 . S
Cd949 O948 2.385 . S
Cd949 O950 2.317 . S
O950 Cd949 2.317 . S
O950 C951 1.232 . S
C951 O950 1.232 . S
C951 O952 1.218 . S
O952 C951 1.218 . S
C953 O946 1.275 . S
C953 O948 1.255 . S
C954 O955 1.258 . S
C954 O956 1.256 . S
O955 Cd947 2.381 . S
O955 C954 1.258 . S
O956 Cd947 2.378 . S
O956 C954 1.256 . S
O957 Cd958 2.300 . S
O957 C964 1.275 . S
Cd958 O957 2.300 . S
Cd958 O966 2.381 . S
Cd958 O967 2.378 . S
O959 Cd960 2.385 . S
O959 C964 1.255 . S
Cd960 O959 2.385 . S
Cd960 O961 2.317 . S
O961 Cd960 2.317 . S
O961 C962 1.232 . S
C962 O961 1.232 . S
C962 O963 1.218 . S
O963 C962 1.218 . S
C964 O957 1.275 . S
C964 O959 1.255 . S
C965 O966 1.258 . S
C965 O967 1.256 . S
O966 Cd958 2.381 . S
O966 C965 1.258 . S
O967 Cd958 2.378 . S
O967 C965 1.256 . S
O968 Cd969 2.300 . S
O968 C975 1.275 . S
Cd969 O968 2.300 . S
Cd969 O977 2.381 . S
Cd969 O978 2.378 . S
O970 Cd971 2.385 . S
O970 C975 1.255 . S
Cd971 O970 2.385 . S
Cd971 O972 2.317 . S
O972 Cd971 2.317 . S
O972 C973 1.232 . S
C973 O972 1.232 . S
C973 O974 1.218 . S
O974 C973 1.218 . S
C975 O968 1.275 . S
C975 O970 1.255 . S
C976 O977 1.258 . S
C976 O978 1.256 . S
O977 Cd969 2.381 . S
O977 C976 1.258 . S
O978 Cd969 2.378 . S
O978 C976 1.256 . S
O979 Cd980 2.300 . S
O979 C986 1.275 . S
Cd980 O979 2.300 . S
Cd980 O988 2.381 . S
Cd980 O989 2.378 . S
O981 Cd982 2.385 . S
O981 C986 1.255 . S
Cd982 O981 2.385 . S
Cd982 O983 2.317 . S
O983 Cd982 2.317 . S
O983 C984 1.232 . S
C984 O983 1.232 . S
C984 O985 1.218 . S
O985 C984 1.218 . S
C986 O979 1.275 . S
C986 O981 1.255 . S
C987 O988 1.258 . S
C987 O989 1.256 . S
O988 Cd980 2.381 . S
O988 C987 1.258 . S
O989 Cd980 2.378 . S
O989 C987 1.256 . S
O990 Cd991 2.300 . S
O990 C997 1.275 . S
Cd991 O990 2.300 . S
Cd991 O999 2.381 . S
Cd991 O1000 2.378 . S
O992 Cd993 2.385 . S
O992 C997 1.255 . S
Cd993 O992 2.385 . S
Cd993 O994 2.317 . S
O994 Cd993 2.317 . S
O994 C995 1.232 . S
C995 O994 1.232 . S
C995 O996 1.218 . S
O996 C995 1.218 . S
C997 O990 1.275 . S
C997 O992 1.255 . S
C998 O999 1.258 . S
C998 O1000 1.256 . S
O999 Cd991 2.381 . S
O999 C998 1.258 . S
O1000 Cd991 2.378 . S
O1000 C998 1.256 . S
O1001 Cd1002 2.300 . S
O1001 C1008 1.275 . S
Cd1002 O1001 2.300 . S
Cd1002 O1010 2.381 . S
Cd1002 O1011 2.378 . S
O1003 Cd1004 2.385 . S
O1003 C1008 1.255 . S
Cd1004 O1003 2.385 . S
Cd1004 O1005 2.317 . S
O1005 Cd1004 2.317 . S
O1005 C1006 1.232 . S
C1006 O1005 1.232 . S
C1006 O1007 1.218 . S
O1007 C1006 1.218 . S
C1008 O1001 1.275 . S
C1008 O1003 1.255 . S
C1009 O1010 1.258 . S
C1009 O1011 1.256 . S
O1010 Cd1002 2.381 . S
O1010 C1009 1.258 . S
O1011 Cd1002 2.378 . S
O1011 C1009 1.256 . S
O1012 Cd1013 2.300 . S
O1012 C1019 1.275 . S
Cd1013 O1012 2.300 . S
Cd1013 O1021 2.381 . S
Cd1013 O1022 2.378 . S
O1014 Cd1015 2.385 . S
O1014 C1019 1.255 . S
Cd1015 O1014 2.385 . S
Cd1015 O1016 2.317 . S
O1016 Cd1015 2.317 . S
O1016 C1017 1.232 . S
C1017 O1016 1.232 . S
C1017 O1018 1.218 . S
O1018 C1017 1.218 . S
C1019 O1012 1.275 . S
C1019 O1014 1.255 . S
C1020 O1021 1.258 . S
C1020 O1022 1.256 . S
O1021 Cd1013 2.381 . S
O1021 C1020 1.258 . S
O1022 Cd1013 2.378 . S
O1022 C1020 1.256 . S
O1023 Cd1024 2.300 . S
O1023 C1030 1.275 . S
Cd1024 O1023 2.300 . S
Cd1024 O1032 2.381 . S
Cd1024 O1033 2.378 . S
O1025 Cd1026 2.385 . S
O1025 C1030 1.255 . S
Cd1026 O1025 2.385 . S
Cd1026 O1027 2.317 . S
O1027 Cd1026 2.317 . S
O1027 C1028 1.232 . S
C1028 O1027 1.232 . S
C1028 O1029 1.218 . S
O1029 C1028 1.218 . S
C1030 O1023 1.275 . S
C1030 O1025 1.255 . S
C1031 O1032 1.258 . S
C1031 O1033 1.256 . S
O1032 Cd1024 2.381 . S
O1032 C1031 1.258 . S
O1033 Cd1024 2.378 . S
O1033 C1031 1.256 . S
O1034 Cd1035 2.300 . S
O1034 C1041 1.275 . S
Cd1035 O1034 2.300 . S
Cd1035 O1043 2.381 . S
Cd1035 O1044 2.378 . S
O1036 Cd1037 2.385 . S
O1036 C1041 1.255 . S
Cd1037 O1036 2.385 . S
Cd1037 O1038 2.317 . S
O1038 Cd1037 2.317 . S
O1038 C1039 1.232 . S
C1039 O1038 1.232 . S
C1039 O1040 1.218 . S
O1040 C1039 1.218 . S
C1041 O1034 1.275 . S
C1041 O1036 1.255 . S
C1042 O1043 1.258 . S
C1042 O1044 1.256 . S
O1043 Cd1035 2.381 . S
O1043 C1042 1.258 . S
O1044 Cd1035 2.378 . S
O1044 C1042 1.256 . S
O1045 Cd1046 2.300 . S
O1045 C1052 1.275 . S
Cd1046 O1045 2.300 . S
Cd1046 O1054 2.381 . S
Cd1046 O1055 2.378 . S
O1047 Cd1048 2.385 . S
O1047 C1052 1.255 . S
Cd1048 O1047 2.385 . S
Cd1048 O1049 2.317 . S
O1049 Cd1048 2.317 . S
O1049 C1050 1.232 . S
C1050 O1049 1.232 . S
C1050 O1051 1.218 . S
O1051 C1050 1.218 . S
C1052 O1045 1.275 . S
C1052 O1047 1.255 . S
C1053 O1054 1.258 . S
C1053 O1055 1.256 . S
O1054 Cd1046 2.381 . S
O1054 C1053 1.258 . S
O1055 Cd1046 2.378 . S
O1055 C1053 1.256 . S
O1056 Cd1057 2.300 . S
O1056 C1063 1.275 . S
Cd1057 O1056 2.300 . S
Cd1057 O1065 2.381 . S
Cd1057 O1066 2.378 . S
O1058 Cd1059 2.385 . S
O1058 C1063 1.255 . S
Cd1059 O1058 2.385 . S
Cd1059 O1060 2.317 . S
O1060 Cd1059 2.317 . S
O1060 C1061 1.232 . S
C1061 O1060 1.232 . S
C1061 O1062 1.218 . S
O1062 C1061 1.218 . S
C1063 O1056 1.275 . S
C1063 O1058 1.255 . S
C1064 O1065 1.258 . S
C1064 O1066 1.256 . S
O1065 Cd1057 2.381 . S
O1065 C1064 1.258 . S
O1066 Cd1057 2.378 . S
O1066 C1064 1.256 . S
O1067 Cd1068 2.300 . S
O1067 C1074 1.275 . S
Cd1068 O1067 2.300 . S
Cd1068 O1076 2.381 . S
Cd1068 O1077 2.378 1_455 S
O1069 Cd1070 2.385 . S
O1069 C1074 1.255 . S
Cd1070 O1069 2.385 . S
Cd1070 O1071 2.317 . S
O1071 Cd1070 2.317 . S
O1071 C1072 1.232 . S
C1072 O1071 1.232 . S
C1072 O1073 1.218 . S
O1073 C1072 1.218 . S
C1074 O1067 1.275 . S
C1074 O1069 1.255 . S
C1075 O1076 1.258 1_655 S
C1075 O1077 1.256 . S
O1076 Cd1068 2.381 . S
O1076 C1075 1.258 1_455 S
O1077 Cd1068 2.378 1_655 S
O1077 C1075 1.256 . S
O1078 Cd1079 2.300 . S
O1078 C1085 1.275 . S
Cd1079 O1078 2.300 . S
Cd1079 O1087 2.381 . S
Cd1079 O1088 2.378 . S
O1080 Cd1081 2.385 . S
O1080 C1085 1.255 . S
Cd1081 O1080 2.385 . S
Cd1081 O1082 2.317 . S
O1082 Cd1081 2.317 . S
O1082 C1083 1.232 . S
C1083 O1082 1.232 . S
C1083 O1084 1.218 . S
O1084 C1083 1.218 . S
C1085 O1078 1.275 . S
C1085 O1080 1.255 . S
C1086 O1087 1.258 . S
C1086 O1088 1.256 . S
O1087 Cd1079 2.381 . S
O1087 C1086 1.258 . S
O1088 Cd1079 2.378 . S
O1088 C1086 1.256 . S
O1089 Cd1090 2.300 . S
O1089 C1096 1.275 . S
Cd1090 O1089 2.300 . S
Cd1090 O1098 2.381 . S
Cd1090 O1099 2.378 . S
O1091 Cd1092 2.385 . S
O1091 C1096 1.255 . S
Cd1092 O1091 2.385 . S
Cd1092 O1093 2.317 . S
O1093 Cd1092 2.317 . S
O1093 C1094 1.232 . S
C1094 O1093 1.232 . S
C1094 O1095 1.218 . S
O1095 C1094 1.218 . S
C1096 O1089 1.275 . S
C1096 O1091 1.255 . S
C1097 O1098 1.258 . S
C1097 O1099 1.256 . S
O1098 Cd1090 2.381 . S
O1098 C1097 1.258 . S
O1099 Cd1090 2.378 . S
O1099 C1097 1.256 . S
O1100 Cd1101 2.300 . S
O1100 C1107 1.275 . S
Cd1101 O1100 2.300 . S
Cd1101 O1109 2.381 . S
Cd1101 O1110 2.378 . S
O1102 Cd1103 2.385 . S
O1102 C1107 1.255 . S
Cd1103 O1102 2.385 . S
Cd1103 O1104 2.317 . S
O1104 Cd1103 2.317 . S
O1104 C1105 1.232 . S
C1105 O1104 1.232 . S
C1105 O1106 1.218 . S
O1106 C1105 1.218 . S
C1107 O1100 1.275 . S
C1107 O1102 1.255 . S
C1108 O1109 1.258 . S
C1108 O1110 1.256 . S
O1109 Cd1101 2.381 . S
O1109 C1108 1.258 . S
O1110 Cd1101 2.378 . S
O1110 C1108 1.256 . S
O1111 Cd1112 2.300 . S
O1111 C1118 1.275 . S
Cd1112 O1111 2.300 . S
Cd1112 O1120 2.381 . S
Cd1112 O1121 2.378 . S
O1113 Cd1114 2.385 . S
O1113 C1118 1.255 . S
Cd1114 O1113 2.385 . S
Cd1114 O1115 2.317 . S
O1115 Cd1114 2.317 . S
O1115 C1116 1.232 . S
C1116 O1115 1.232 . S
C1116 O1117 1.218 . S
O1117 C1116 1.218 . S
C1118 O1111 1.275 . S
C1118 O1113 1.255 . S
C1119 O1120 1.258 . S
C1119 O1121 1.256 . S
O1120 Cd1112 2.381 . S
O1120 C1119 1.258 . S
O1121 Cd1112 2.378 . S
O1121 C1119 1.256 . S
O1122 Cd1123 2.300 . S
O1122 C1129 1.275 . S
Cd1123 O1122 2.300 . S
Cd1123 O1131 2.381 . S
Cd1123 O1132 2.378 . S
O1124 Cd1125 2.385 . S
O1124 C1129 1.255 . S
Cd1125 O1124 2.385 . S
Cd1125 O1126 2.317 . S
O1126 Cd1125 2.317 . S
O1126 C1127 1.232 . S
C1127 O1126 1.232 . S
C1127 O1128 1.218 . S
O1128 C1127 1.218 . S
C1129 O1122 1.275 . S
C1129 O1124 1.255 . S
C1130 O1131 1.258 . S
C1130 O1132 1.256 . S
O1131 Cd1123 2.381 . S
O1131 C1130 1.258 . S
O1132 Cd1123 2.378 . S
O1132 C1130 1.256 . S
O1133 Cd1134 2.300 . S
O1133 C1140 1.275 . S
Cd1134 O1133 2.300 . S
Cd1134 O1142 2.381 . S
Cd1134 O1143 2.378 1_455 S
O1135 Cd1136 2.385 . S
O1135 C1140 1.255 . S
Cd1136 O1135 2.385 . S
Cd1136 O1137 2.317 . S
O1137 Cd1136 2.317 . S
O1137 C1138 1.232 . S
C1138 O1137 1.232 . S
C1138 O1139 1.218 . S
O1139 C1138 1.218 . S
C1140 O1133 1.275 . S
C1140 O1135 1.255 . S
C1141 O1142 1.258 1_655 S
C1141 O1143 1.256 . S
O1142 Cd1134 2.381 . S
O1142 C1141 1.258 1_455 S
O1143 Cd1134 2.378 1_655 S
O1143 C1141 1.256 . S
O1144 Cd1145 2.300 . S
O1144 C1151 1.275 . S
Cd1145 O1144 2.300 . S
Cd1145 O1153 2.381 . S
Cd1145 O1154 2.378 . S
O1146 Cd1147 2.385 . S
O1146 C1151 1.255 . S
Cd1147 O1146 2.385 . S
Cd1147 O1148 2.317 . S
O1148 Cd1147 2.317 . S
O1148 C1149 1.232 . S
C1149 O1148 1.232 . S
C1149 O1150 1.218 . S
O1150 C1149 1.218 . S
C1151 O1144 1.275 . S
C1151 O1146 1.255 . S
C1152 O1153 1.258 . S
C1152 O1154 1.256 . S
O1153 Cd1145 2.381 . S
O1153 C1152 1.258 . S
O1154 Cd1145 2.378 . S
O1154 C1152 1.256 . S
O1155 Cd1156 2.300 . S
O1155 C1162 1.275 . S
Cd1156 O1155 2.300 . S
Cd1156 O1164 2.381 . S
Cd1156 O1165 2.378 . S
O1157 Cd1158 2.385 . S
O1157 C1162 1.255 . S
Cd1158 O1157 2.385 . S
Cd1158 O1159 2.317 . S
O1159 Cd1158 2.317 . S
O1159 C1160 1.232 . S
C1160 O1159 1.232 . S
C1160 O1161 1.218 . S
O1161 C1160 1.218 . S
C1162 O1155 1.275 . S
C1162 O1157 1.255 . S
C1163 O1164 1.258 . S
C1163 O1165 1.256 . S
O1164 Cd1156 2.381 . S
O1164 C1163 1.258 . S
O1165 Cd1156 2.378 . S
O1165 C1163 1.256 . S
O1166 Cd1167 2.300 . S
O1166 C1173 1.275 . S
Cd1167 O1166 2.300 . S
Cd1167 O1175 2.381 . S
Cd1167 O1176 2.378 . S
O1168 Cd1169 2.385 . S
O1168 C1173 1.255 . S
Cd1169 O1168 2.385 . S
Cd1169 O1170 2.317 . S
O1170 Cd1169 2.317 . S
O1170 C1171 1.232 . S
C1171 O1170 1.232 . S
C1171 O1172 1.218 . S
O1172 C1171 1.218 . S
C1173 O1166 1.275 . S
C1173 O1168 1.255 . S
C1174 O1175 1.258 . S
C1174 O1176 1.256 . S
O1175 Cd1167 2.381 . S
O1175 C1174 1.258 . S
O1176 Cd1167 2.378 . S
O1176 C1174 1.256 . S
O1177 Cd1178 2.300 . S
O1177 C1184 1.275 . S
Cd1178 O1177 2.300 . S
Cd1178 O1186 2.381 . S
Cd1178 O1187 2.378 1_556 S
O1179 Cd1180 2.385 . S
O1179 C1184 1.255 . S
Cd1180 O1179 2.385 . S
Cd1180 O1181 2.317 . S
O1181 Cd1180 2.317 . S
O1181 C1182 1.232 . S
C1182 O1181 1.232 . S
C1182 O1183 1.218 . S
O1183 C1182 1.218 . S
C1184 O1177 1.275 . S
C1184 O1179 1.255 . S
C1185 O1186 1.258 1_554 S
C1185 O1187 1.256 . S
O1186 Cd1178 2.381 . S
O1186 C1185 1.258 1_556 S
O1187 Cd1178 2.378 1_554 S
O1187 C1185 1.256 . S
O1188 Cd1189 2.300 . S
O1188 C1195 1.275 . S
Cd1189 O1188 2.300 . S
Cd1189 O1197 2.381 . S
Cd1189 O1198 2.378 . S
O1190 Cd1191 2.385 . S
O1190 C1195 1.255 . S
Cd1191 O1190 2.385 . S
Cd1191 O1192 2.317 . S
O1192 Cd1191 2.317 . S
O1192 C1193 1.232 . S
C1193 O1192 1.232 . S
C1193 O1194 1.218 . S
O1194 C1193 1.218 . S
C1195 O1188 1.275 . S
C1195 O1190 1.255 . S
C1196 O1197 1.258 . S
C1196 O1198 1.256 . S
O1197 Cd1189 2.381 . S
O1197 C1196 1.258 . S
O1198 Cd1189 2.378 . S
O1198 C1196 1.256 . S
O1199 Cd1200 2.300 . S
O1199 C1206 1.275 . S
Cd1200 O1199 2.300 . S
Cd1200 O1208 2.381 . S
Cd1200 O1209 2.378 . S
O1201 Cd1202 2.385 . S
O1201 C1206 1.255 . S
Cd1202 O1201 2.385 . S
Cd1202 O1203 2.317 . S
O1203 Cd1202 2.317 . S
O1203 C1204 1.232 . S
C1204 O1203 1.232 . S
C1204 O1205 1.218 . S
O1205 C1204 1.218 . S
C1206 O1199 1.275 . S
C1206 O1201 1.255 . S
C1207 O1208 1.258 . S
C1207 O1209 1.256 . S
O1208 Cd1200 2.381 . S
O1208 C1207 1.258 . S
O1209 Cd1200 2.378 . S
O1209 C1207 1.256 . S
O1210 Cd1211 2.300 . S
O1210 C1217 1.275 . S
Cd1211 O1210 2.300 . S
Cd1211 O1219 2.381 . S
Cd1211 O1220 2.378 . S
O1212 Cd1213 2.385 . S
O1212 C1217 1.255 . S
Cd1213 O1212 2.385 . S
Cd1213 O1214 2.317 . S
O1214 Cd1213 2.317 . S
O1214 C1215 1.232 . S
C1215 O1214 1.232 . S
C1215 O1216 1.218 . S
O1216 C1215 1.218 . S
C1217 O1210 1.275 . S
C1217 O1212 1.255 . S
C1218 O1219 1.258 . S
C1218 O1220 1.256 . S
O1219 Cd1211 2.381 . S
O1219 C1218 1.258 . S
O1220 Cd1211 2.378 . S
O1220 C1218 1.256 . S
O1221 Cd1222 2.300 . S
O1221 C1228 1.275 . S
Cd1222 O1221 2.300 . S
Cd1222 O1230 2.381 . S
Cd1222 O1231 2.378 1_554 S
O1223 Cd1224 2.385 . S
O1223 C1228 1.255 . S
Cd1224 O1223 2.385 . S
Cd1224 O1225 2.317 . S
O1225 Cd1224 2.317 . S
O1225 C1226 1.232 . S
C1226 O1225 1.232 . S
C1226 O1227 1.218 . S
O1227 C1226 1.218 . S
C1228 O1221 1.275 . S
C1228 O1223 1.255 . S
C1229 O1230 1.258 1_556 S
C1229 O1231 1.256 . S
O1230 Cd1222 2.381 . S
O1230 C1229 1.258 1_554 S
O1231 Cd1222 2.378 1_556 S
O1231 C1229 1.256 . S
O1232 Cd1233 2.300 . S
O1232 C1239 1.275 . S
Cd1233 O1232 2.300 . S
Cd1233 O1241 2.381 . S
Cd1233 O1242 2.378 . S
O1234 Cd1235 2.385 . S
O1234 C1239 1.255 . S
Cd1235 O1234 2.385 . S
Cd1235 O1236 2.317 . S
O1236 Cd1235 2.317 . S
O1236 C1237 1.232 . S
C1237 O1236 1.232 . S
C1237 O1238 1.218 . S
O1238 C1237 1.218 . S
C1239 O1232 1.275 . S
C1239 O1234 1.255 . S
C1240 O1241 1.258 . S
C1240 O1242 1.256 . S
O1241 Cd1233 2.381 . S
O1241 C1240 1.258 . S
O1242 Cd1233 2.378 . S
O1242 C1240 1.256 . S
O1243 Cd1244 2.300 . S
O1243 C1250 1.275 . S
Cd1244 O1243 2.300 . S
Cd1244 O1252 2.381 . S
Cd1244 O1253 2.378 . S
O1245 Cd1246 2.385 . S
O1245 C1250 1.255 . S
Cd1246 O1245 2.385 . S
Cd1246 O1247 2.317 . S
O1247 Cd1246 2.317 . S
O1247 C1248 1.232 . S
C1248 O1247 1.232 . S
C1248 O1249 1.218 . S
O1249 C1248 1.218 . S
C1250 O1243 1.275 . S
C1250 O1245 1.255 . S
C1251 O1252 1.258 . S
C1251 O1253 1.256 . S
O1252 Cd1244 2.381 . S
O1252 C1251 1.258 . S
O1253 Cd1244 2.378 . S
O1253 C1251 1.256 . S
O1254 Cd1255 2.300 . S
O1254 C1261 1.275 . S
Cd1255 O1254 2.300 . S
Cd1255 O1263 2.381 . S
Cd1255 O1264 2.378 . S
O1256 Cd1257 2.385 . S
O1256 C1261 1.255 . S
Cd1257 O1256 2.385 . S
Cd1257 O1258 2.317 . S
O1258 Cd1257 2.317 . S
O1258 C1259 1.232 . S
C1259 O1258 1.232 . S
C1259 O1260 1.218 . S
O1260 C1259 1.218 . S
C1261 O1254 1.275 . S
C1261 O1256 1.255 . S
C1262 O1263 1.258 . S
C1262 O1264 1.256 . S
O1263 Cd1255 2.381 . S
O1263 C1262 1.258 . S
O1264 Cd1255 2.378 . S
O1264 C1262 1.256 . S
O1265 Cd1266 2.300 . S
O1265 C1272 1.275 . S
Cd1266 O1265 2.300 . S
Cd1266 O1274 2.381 . S
Cd1266 O1275 2.378 . S
O1267 Cd1268 2.385 . S
O1267 C1272 1.255 . S
Cd1268 O1267 2.385 . S
Cd1268 O1269 2.317 . S
O1269 Cd1268 2.317 . S
O1269 C1270 1.232 . S
C1270 O1269 1.232 . S
C1270 O1271 1.218 . S
O1271 C1270 1.218 . S
C1272 O1265 1.275 . S
C1272 O1267 1.255 . S
C1273 O1274 1.258 . S
C1273 O1275 1.256 . S
O1274 Cd1266 2.381 . S
O1274 C1273 1.258 . S
O1275 Cd1266 2.378 . S
O1275 C1273 1.256 . S
O1276 Cd1277 2.300 . S
O1276 C1283 1.275 . S
Cd1277 O1276 2.300 . S
Cd1277 O1285 2.381 . S
Cd1277 O1286 2.378 1_545 S
O1278 Cd1279 2.385 . S
O1278 C1283 1.255 . S
Cd1279 O1278 2.385 . S
Cd1279 O1280 2.317 . S
O1280 Cd1279 2.317 . S
O1280 C1281 1.232 . S
C1281 O1280 1.232 . S
C1281 O1282 1.218 . S
O1282 C1281 1.218 . S
C1283 O1276 1.275 . S
C1283 O1278 1.255 . S
C1284 O1285 1.258 1_565 S
C1284 O1286 1.256 . S
O1285 Cd1277 2.381 . S
O1285 C1284 1.258 1_545 S
O1286 Cd1277 2.378 1_565 S
O1286 C1284 1.256 . S
O1287 Cd1288 2.300 . S
O1287 C1294 1.275 . S
Cd1288 O1287 2.300 . S
Cd1288 O1296 2.381 . S
Cd1288 O1297 2.378 . S
O1289 Cd1290 2.385 . S
O1289 C1294 1.255 . S
Cd1290 O1289 2.385 . S
Cd1290 O1291 2.317 . S
O1291 Cd1290 2.317 . S
O1291 C1292 1.232 . S
C1292 O1291 1.232 . S
C1292 O1293 1.218 . S
O1293 C1292 1.218 . S
C1294 O1287 1.275 . S
C1294 O1289 1.255 . S
C1295 O1296 1.258 . S
C1295 O1297 1.256 . S
O1296 Cd1288 2.381 . S
O1296 C1295 1.258 . S
O1297 Cd1288 2.378 . S
O1297 C1295 1.256 . S
O1298 Cd1299 2.300 . S
O1298 C1305 1.275 . S
Cd1299 O1298 2.300 . S
Cd1299 O1307 2.381 . S
Cd1299 O1308 2.378 . S
O1300 Cd1301 2.385 . S
O1300 C1305 1.255 . S
Cd1301 O1300 2.385 . S
Cd1301 O1302 2.317 . S
O1302 Cd1301 2.317 . S
O1302 C1303 1.232 . S
C1303 O1302 1.232 . S
C1303 O1304 1.218 . S
O1304 C1303 1.218 . S
C1305 O1298 1.275 . S
C1305 O1300 1.255 . S
C1306 O1307 1.258 . S
C1306 O1308 1.256 . S
O1307 Cd1299 2.381 . S
O1307 C1306 1.258 . S
O1308 Cd1299 2.378 . S
O1308 C1306 1.256 . S
O1309 Cd1310 2.300 . S
O1309 C1316 1.275 . S
Cd1310 O1309 2.300 . S
Cd1310 O1318 2.381 . S
Cd1310 O1319 2.378 . S
O1311 Cd1312 2.385 . S
O1311 C1316 1.255 . S
Cd1312 O1311 2.385 . S
Cd1312 O1313 2.317 . S
O1313 Cd1312 2.317 . S
O1313 C1314 1.232 . S
C1314 O1313 1.232 . S
C1314 O1315 1.218 . S
O1315 C1314 1.218 . S
C1316 O1309 1.275 . S
C1316 O1311 1.255 . S
C1317 O1318 1.258 . S
C1317 O1319 1.256 . S
O1318 Cd1310 2.381 . S
O1318 C1317 1.258 . S
O1319 Cd1310 2.378 . S
O1319 C1317 1.256 . S
O1320 Cd1321 2.300 . S
O1320 C1327 1.275 . S
Cd1321 O1320 2.300 . S
Cd1321 O1329 2.381 . S
Cd1321 O1330 2.378 . S
O1322 Cd1323 2.385 . S
O1322 C1327 1.255 . S
Cd1323 O1322 2.385 . S
Cd1323 O1324 2.317 . S
O1324 Cd1323 2.317 . S
O1324 C1325 1.232 . S
C1325 O1324 1.232 . S
C1325 O1326 1.218 . S
O1326 C1325 1.218 . S
C1327 O1320 1.275 . S
C1327 O1322 1.255 . S
C1328 O1329 1.258 . S
C1328 O1330 1.256 . S
O1329 Cd1321 2.381 . S
O1329 C1328 1.258 . S
O1330 Cd1321 2.378 . S
O1330 C1328 1.256 . S
O1331 Cd1332 2.300 . S
O1331 C1338 1.275 . S
Cd1332 O1331 2.300 . S
Cd1332 O1340 2.381 . S
Cd1332 O1341 2.378 . S
O1333 Cd1334 2.385 . S
O1333 C1338 1.255 . S
Cd1334 O1333 2.385 . S
Cd1334 O1335 2.317 . S
O1335 Cd1334 2.317 . S
O1335 C1336 1.232 . S
C1336 O1335 1.232 . S
C1336 O1337 1.218 . S
O1337 C1336 1.218 . S
C1338 O1331 1.275 . S
C1338 O1333 1.255 . S
C1339 O1340 1.247 1_455 S
C1339 O1341 1.240 1_455 S
O1340 Cd1332 2.381 . S
O1340 C1339 1.247 1_655 S
O1341 Cd1332 2.378 . S
O1341 C1339 1.240 1_655 S
O1342 Cd1343 2.300 . S
O1342 C1349 1.275 . S
Cd1343 O1342 2.300 . S
Cd1343 O1351 2.381 . S
Cd1343 O1352 2.378 . S
O1344 Cd1345 2.385 . S
O1344 C1349 1.255 . S
Cd1345 O1344 2.385 . S
Cd1345 O1346 2.317 . S
O1346 Cd1345 2.317 . S
O1346 C1347 1.232 . S
C1347 O1346 1.232 . S
C1347 O1348 1.218 . S
O1348 C1347 1.218 . S
C1349 O1342 1.275 . S
C1349 O1344 1.255 . S
C1350 O1351 1.258 . S
C1350 O1352 1.256 . S
O1351 Cd1343 2.381 . S
O1351 C1350 1.258 . S
O1352 Cd1343 2.378 . S
O1352 C1350 1.256 . S
O1353 Cd1354 2.300 . S
O1353 C1360 1.275 . S
Cd1354 O1353 2.300 . S
Cd1354 O1362 2.381 . S
Cd1354 O1363 2.378 . S
O1355 Cd1356 2.385 . S
O1355 C1360 1.255 . S
Cd1356 O1355 2.385 . S
Cd1356 O1357 2.317 . S
O1357 Cd1356 2.317 . S
O1357 C1358 1.232 . S
C1358 O1357 1.232 . S
C1358 O1359 1.218 . S
O1359 C1358 1.218 . S
C1360 O1353 1.275 . S
C1360 O1355 1.255 . S
C1361 O1362 1.258 . S
C1361 O1363 1.256 . S
O1362 Cd1354 2.381 . S
O1362 C1361 1.258 . S
O1363 Cd1354 2.378 . S
O1363 C1361 1.256 . S
O1364 Cd1365 2.300 . S
O1364 C1371 1.275 . S
Cd1365 O1364 2.300 . S
Cd1365 O1373 2.381 . S
Cd1365 O1374 2.378 . S
O1366 Cd1367 2.385 . S
O1366 C1371 1.255 . S
Cd1367 O1366 2.385 . S
Cd1367 O1368 2.317 . S
O1368 Cd1367 2.317 . S
O1368 C1369 1.232 . S
C1369 O1368 1.232 . S
C1369 O1370 1.218 . S
O1370 C1369 1.218 . S
C1371 O1364 1.275 . S
C1371 O1366 1.255 . S
C1372 O1373 1.258 . S
C1372 O1374 1.256 . S
O1373 Cd1365 2.381 . S
O1373 C1372 1.258 . S
O1374 Cd1365 2.378 . S
O1374 C1372 1.256 . S
O1375 Cd1376 2.300 . S
O1375 C1382 1.275 . S
Cd1376 O1375 2.300 . S
Cd1376 O1384 2.381 . S
Cd1376 O1385 2.378 . S
O1377 Cd1378 2.385 . S
O1377 C1382 1.255 . S
Cd1378 O1377 2.385 . S
Cd1378 O1379 2.317 . S
O1379 Cd1378 2.317 . S
O1379 C1380 1.232 . S
C1380 O1379 1.232 . S
C1380 O1381 1.218 . S
O1381 C1380 1.218 . S
C1382 O1375 1.275 . S
C1382 O1377 1.255 . S
C1383 O1384 1.258 . S
C1383 O1385 1.256 . S
O1384 Cd1376 2.381 . S
O1384 C1383 1.258 . S
O1385 Cd1376 2.378 . S
O1385 C1383 1.256 . S
O1386 Cd1387 2.300 . S
O1386 C1393 1.275 . S
Cd1387 O1386 2.300 . S
Cd1387 O1395 2.381 . S
Cd1387 O1396 2.378 . S
O1388 Cd1389 2.385 . S
O1388 C1393 1.255 . S
Cd1389 O1388 2.385 . S
Cd1389 O1390 2.317 . S
O1390 Cd1389 2.317 . S
O1390 C1391 1.232 . S
C1391 O1390 1.232 . S
C1391 O1392 1.218 . S
O1392 C1391 1.218 . S
C1393 O1386 1.275 . S
C1393 O1388 1.255 . S
C1394 O1395 1.258 . S
C1394 O1396 1.256 . S
O1395 Cd1387 2.381 . S
O1395 C1394 1.258 . S
O1396 Cd1387 2.378 . S
O1396 C1394 1.256 . S
O1397 Cd1398 2.300 . S
O1397 C1404 1.275 . S
Cd1398 O1397 2.300 . S
Cd1398 O1406 2.381 . S
Cd1398 O1407 2.378 . S
O1399 Cd1400 2.385 . S
O1399 C1404 1.255 . S
Cd1400 O1399 2.385 . S
Cd1400 O1401 2.317 . S
O1401 Cd1400 2.317 . S
O1401 C1402 1.232 . S
C1402 O1401 1.232 . S
C1402 O1403 1.218 . S
O1403 C1402 1.218 . S
C1404 O1397 1.275 . S
C1404 O1399 1.255 . S
C1405 O1406 1.248 1_455 S
C1405 O1407 1.240 1_455 S
O1406 Cd1398 2.381 . S
O1406 C1405 1.248 1_655 S
O1407 Cd1398 2.378 . S
O1407 C1405 1.240 1_655 S
O1408 Cd1409 2.300 . S
O1408 C1415 1.275 . S
Cd1409 O1408 2.300 . S
Cd1409 O1417 2.381 . S
Cd1409 O1418 2.378 . S
O1410 Cd1411 2.385 . S
O1410 C1415 1.255 . S
Cd1411 O1410 2.385 . S
Cd1411 O1412 2.317 . S
O1412 Cd1411 2.317 . S
O1412 C1413 1.232 . S
C1413 O1412 1.232 . S
C1413 O1414 1.218 . S
O1414 C1413 1.218 . S
C1415 O1408 1.275 . S
C1415 O1410 1.255 . S
C1416 O1417 1.258 . S
C1416 O1418 1.256 . S
O1417 Cd1409 2.381 . S
O1417 C1416 1.258 . S
O1418 Cd1409 2.378 . S
O1418 C1416 1.256 . S
O1419 Cd1420 2.300 . S
O1419 C1426 1.275 . S
Cd1420 O1419 2.300 . S
Cd1420 O1428 2.381 . S
Cd1420 O1429 2.378 . S
O1421 Cd1422 2.385 . S
O1421 C1426 1.255 . S
Cd1422 O1421 2.385 . S
Cd1422 O1423 2.317 . S
O1423 Cd1422 2.317 . S
O1423 C1424 1.232 . S
C1424 O1423 1.232 . S
C1424 O1425 1.218 . S
O1425 C1424 1.218 . S
C1426 O1419 1.275 . S
C1426 O1421 1.255 . S
C1427 O1428 1.258 . S
C1427 O1429 1.256 . S
O1428 Cd1420 2.381 . S
O1428 C1427 1.258 . S
O1429 Cd1420 2.378 . S
O1429 C1427 1.256 . S
O1430 Cd1431 2.300 . S
O1430 C1437 1.275 . S
Cd1431 O1430 2.300 . S
Cd1431 O1439 2.381 . S
Cd1431 O1440 2.378 . S
O1432 Cd1433 2.385 . S
O1432 C1437 1.255 . S
Cd1433 O1432 2.385 . S
Cd1433 O1434 2.317 . S
O1434 Cd1433 2.317 . S
O1434 C1435 1.232 . S
C1435 O1434 1.232 . S
C1435 O1436 1.218 . S
O1436 C1435 1.218 . S
C1437 O1430 1.275 . S
C1437 O1432 1.255 . S
C1438 O1439 1.258 . S
C1438 O1440 1.256 . S
O1439 Cd1431 2.381 . S
O1439 C1438 1.258 . S
O1440 Cd1431 2.378 . S
O1440 C1438 1.256 . S
O1441 Cd1442 2.300 . S
O1441 C1448 1.275 . S
Cd1442 O1441 2.300 . S
Cd1442 O1450 2.381 . S
Cd1442 O1451 2.378 . S
O1443 Cd1444 2.385 . S
O1443 C1448 1.255 . S
Cd1444 O1443 2.385 . S
Cd1444 O1445 2.317 . S
O1445 Cd1444 2.317 . S
O1445 C1446 1.232 . S
C1446 O1445 1.232 . S
C1446 O1447 1.218 . S
O1447 C1446 1.218 . S
C1448 O1441 1.275 . S
C1448 O1443 1.255 . S
C1449 O1450 1.248 1_556 S
C1449 O1451 1.240 1_556 S
O1450 Cd1442 2.381 . S
O1450 C1449 1.248 1_554 S
O1451 Cd1442 2.378 . S
O1451 C1449 1.240 1_554 S
O1452 Cd1453 2.300 . S
O1452 C1459 1.275 . S
Cd1453 O1452 2.300 . S
Cd1453 O1461 2.381 . S
Cd1453 O1462 2.378 . S
O1454 Cd1455 2.385 . S
O1454 C1459 1.255 . S
Cd1455 O1454 2.385 . S
Cd1455 O1456 2.317 . S
O1456 Cd1455 2.317 . S
O1456 C1457 1.232 . S
C1457 O1456 1.232 . S
C1457 O1458 1.218 . S
O1458 C1457 1.218 . S
C1459 O1452 1.275 . S
C1459 O1454 1.255 . S
C1460 O1461 1.258 . S
C1460 O1462 1.256 . S
O1461 Cd1453 2.381 . S
O1461 C1460 1.258 . S
O1462 Cd1453 2.378 . S
O1462 C1460 1.256 . S
O1463 Cd1464 2.300 . S
O1463 C1470 1.275 . S
Cd1464 O1463 2.300 . S
Cd1464 O1472 2.381 . S
Cd1464 O1473 2.378 . S
O1465 Cd1466 2.385 . S
O1465 C1470 1.255 . S
Cd1466 O1465 2.385 . S
Cd1466 O1467 2.317 . S
O1467 Cd1466 2.317 . S
O1467 C1468 1.232 . S
C1468 O1467 1.232 . S
C1468 O1469 1.218 . S
O1469 C1468 1.218 . S
C1470 O1463 1.275 . S
C1470 O1465 1.255 . S
C1471 O1472 1.258 . S
C1471 O1473 1.256 . S
O1472 Cd1464 2.381 . S
O1472 C1471 1.258 . S
O1473 Cd1464 2.378 . S
O1473 C1471 1.256 . S
O1474 Cd1475 2.300 . S
O1474 C1481 1.275 . S
Cd1475 O1474 2.300 . S
Cd1475 O1483 2.381 . S
Cd1475 O1484 2.378 . S
O1476 Cd1477 2.385 . S
O1476 C1481 1.255 . S
Cd1477 O1476 2.385 . S
Cd1477 O1478 2.317 . S
O1478 Cd1477 2.317 . S
O1478 C1479 1.232 . S
C1479 O1478 1.232 . S
C1479 O1480 1.218 . S
O1480 C1479 1.218 . S
C1481 O1474 1.275 . S
C1481 O1476 1.255 . S
C1482 O1483 1.258 . S
C1482 O1484 1.256 . S
O1483 Cd1475 2.381 . S
O1483 C1482 1.258 . S
O1484 Cd1475 2.378 . S
O1484 C1482 1.256 . S
O1485 Cd1486 2.300 . S
O1485 C1492 1.275 . S
Cd1486 O1485 2.300 . S
Cd1486 O1494 2.381 . S
Cd1486 O1495 2.378 . S
O1487 Cd1488 2.385 . S
O1487 C1492 1.255 . S
Cd1488 O1487 2.385 . S
Cd1488 O1489 2.317 . S
O1489 Cd1488 2.317 . S
O1489 C1490 1.232 . S
C1490 O1489 1.232 . S
C1490 O1491 1.218 . S
O1491 C1490 1.218 . S
C1492 O1485 1.275 . S
C1492 O1487 1.255 . S
C1493 O1494 1.248 1_554 S
C1493 O1495 1.240 1_554 S
O1494 Cd1486 2.381 . S
O1494 C1493 1.248 1_556 S
O1495 Cd1486 2.378 . S
O1495 C1493 1.240 1_556 S
O1496 Cd1497 2.300 . S
O1496 C1503 1.275 . S
Cd1497 O1496 2.300 . S
Cd1497 O1505 2.381 . S
Cd1497 O1506 2.378 . S
O1498 Cd1499 2.385 . S
O1498 C1503 1.255 . S
Cd1499 O1498 2.385 . S
Cd1499 O1500 2.317 . S
O1500 Cd1499 2.317 . S
O1500 C1501 1.232 . S
C1501 O1500 1.232 . S
C1501 O1502 1.218 . S
O1502 C1501 1.218 . S
C1503 O1496 1.275 . S
C1503 O1498 1.255 . S
C1504 O1505 1.258 . S
C1504 O1506 1.256 . S
O1505 Cd1497 2.381 . S
O1505 C1504 1.258 . S
O1506 Cd1497 2.378 . S
O1506 C1504 1.256 . S
O1507 Cd1508 2.300 . S
O1507 C1514 1.275 . S
Cd1508 O1507 2.300 . S
Cd1508 O1516 2.381 . S
Cd1508 O1517 2.378 . S
O1509 Cd1510 2.385 . S
O1509 C1514 1.255 . S
Cd1510 O1509 2.385 . S
Cd1510 O1511 2.317 . S
O1511 Cd1510 2.317 . S
O1511 C1512 1.232 . S
C1512 O1511 1.232 . S
C1512 O1513 1.218 . S
O1513 C1512 1.218 . S
C1514 O1507 1.275 . S
C1514 O1509 1.255 . S
C1515 O1516 1.258 . S
C1515 O1517 1.256 . S
O1516 Cd1508 2.381 . S
O1516 C1515 1.258 . S
O1517 Cd1508 2.378 . S
O1517 C1515 1.256 . S
O1518 Cd1519 2.300 . S
O1518 C1525 1.275 . S
Cd1519 O1518 2.300 . S
Cd1519 O1527 2.381 . S
Cd1519 O1528 2.378 . S
O1520 Cd1521 2.385 . S
O1520 C1525 1.255 . S
Cd1521 O1520 2.385 . S
Cd1521 O1522 2.317 . S
O1522 Cd1521 2.317 . S
O1522 C1523 1.232 . S
C1523 O1522 1.232 . S
C1523 O1524 1.218 . S
O1524 C1523 1.218 . S
C1525 O1518 1.275 . S
C1525 O1520 1.255 . S
C1526 O1527 1.258 . S
C1526 O1528 1.256 . S
O1527 Cd1519 2.381 . S
O1527 C1526 1.258 . S
O1528 Cd1519 2.378 . S
O1528 C1526 1.256 . S
O1529 Cd1530 2.300 . S
O1529 C1536 1.275 . S
Cd1530 O1529 2.300 . S
Cd1530 O1538 2.381 . S
Cd1530 O1539 2.378 . S
O1531 Cd1532 2.385 . S
O1531 C1536 1.255 . S
Cd1532 O1531 2.385 . S
Cd1532 O1533 2.317 . S
O1533 Cd1532 2.317 . S
O1533 C1534 1.232 . S
C1534 O1533 1.232 . S
C1534 O1535 1.218 . S
O1535 C1534 1.218 . S
C1536 O1529 1.275 . S
C1536 O1531 1.255 . S
C1537 O1538 1.258 . S
C1537 O1539 1.256 . S
O1538 Cd1530 2.381 . S
O1538 C1537 1.258 . S
O1539 Cd1530 2.378 . S
O1539 C1537 1.256 . S
O1540 Cd1541 2.300 . S
O1540 C1547 1.275 . S
Cd1541 O1540 2.300 . S
Cd1541 O1549 2.381 . S
Cd1541 O1550 2.378 . S
O1542 Cd1543 2.385 . S
O1542 C1547 1.255 . S
Cd1543 O1542 2.385 . S
Cd1543 O1544 2.317 . S
O1544 Cd1543 2.317 . S
O1544 C1545 1.232 . S
C1545 O1544 1.232 . S
C1545 O1546 1.218 . S
O1546 C1545 1.218 . S
C1547 O1540 1.275 . S
C1547 O1542 1.255 . S
C1548 O1549 1.248 1_545 S
C1548 O1550 1.240 1_545 S
O1549 Cd1541 2.381 . S
O1549 C1548 1.248 1_565 S
O1550 Cd1541 2.378 . S
O1550 C1548 1.240 1_565 S
O1551 Cd1552 2.300 . S
O1551 C1558 1.275 . S
Cd1552 O1551 2.300 . S
Cd1552 O1560 2.381 . S
Cd1552 O1561 2.378 . S
O1553 Cd1554 2.385 . S
O1553 C1558 1.255 . S
Cd1554 O1553 2.385 . S
Cd1554 O1555 2.317 . S
O1555 Cd1554 2.317 . S
O1555 C1556 1.232 . S
C1556 O1555 1.232 . S
C1556 O1557 1.218 . S
O1557 C1556 1.218 . S
C1558 O1551 1.275 . S
C1558 O1553 1.255 . S
C1559 O1560 1.258 . S
C1559 O1561 1.256 . S
O1560 Cd1552 2.381 . S
O1560 C1559 1.258 . S
O1561 Cd1552 2.378 . S
O1561 C1559 1.256 . S
O1562 Cd1563 2.300 . S
O1562 C1569 1.275 . S
Cd1563 O1562 2.300 . S
Cd1563 O1571 2.381 . S
Cd1563 O1572 2.378 . S
O1564 Cd1565 2.385 . S
O1564 C1569 1.255 . S
Cd1565 O1564 2.385 . S
Cd1565 O1566 2.317 . S
O1566 Cd1565 2.317 . S
O1566 C1567 1.232 . S
C1567 O1566 1.232 . S
C1567 O1568 1.218 . S
O1568 C1567 1.218 . S
C1569 O1562 1.275 . S
C1569 O1564 1.255 . S
C1570 O1571 1.258 . S
C1570 O1572 1.256 . S
O1571 Cd1563 2.381 . S
O1571 C1570 1.258 . S
O1572 Cd1563 2.378 . S
O1572 C1570 1.256 . S
O1573 Cd1574 2.300 . S
O1573 C1580 1.275 . S
Cd1574 O1573 2.300 . S
Cd1574 O1582 2.381 . S
Cd1574 O1583 2.378 . S
O1575 Cd1576 2.385 . S
O1575 C1580 1.255 . S
Cd1576 O1575 2.385 . S
Cd1576 O1577 2.317 . S
O1577 Cd1576 2.317 . S
O1577 C1578 1.232 . S
C1578 O1577 1.232 . S
C1578 O1579 1.218 . S
O1579 C1578 1.218 . S
C1580 O1573 1.275 . S
C1580 O1575 1.255 . S
C1581 O1582 1.258 . S
C1581 O1583 1.256 . S
O1582 Cd1574 2.381 . S
O1582 C1581 1.258 . S
O1583 Cd1574 2.378 . S
O1583 C1581 1.256 . S
O1584 Cd1585 2.300 . S
O1584 C1591 1.275 . S
Cd1585 O1584 2.300 . S
Cd1585 O1593 2.381 . S
Cd1585 O1594 2.378 . S
O1586 Cd1587 2.385 . S
O1586 C1591 1.255 . S
Cd1587 O1586 2.385 . S
Cd1587 O1588 2.317 . S
O1588 Cd1587 2.317 . S
O1588 C1589 1.232 . S
C1589 O1588 1.232 . S
C1589 O1590 1.218 . S
O1590 C1589 1.218 . S
C1591 O1584 1.275 . S
C1591 O1586 1.255 . S
C1592 O1593 1.258 . S
C1592 O1594 1.256 . S
O1593 Cd1585 2.381 . S
O1593 C1592 1.258 . S
O1594 Cd1585 2.378 . S
O1594 C1592 1.256 . S
O1595 Cd1596 2.300 . S
O1595 C1602 1.275 . S
Cd1596 O1595 2.300 . S
Cd1596 O1604 2.381 . S
Cd1596 O1605 2.378 . S
O1597 Cd1598 2.385 . S
O1597 C1602 1.255 . S
Cd1598 O1597 2.385 . S
Cd1598 O1599 2.317 . S
O1599 Cd1598 2.317 . S
O1599 C1600 1.232 . S
C1600 O1599 1.232 . S
C1600 O1601 1.218 . S
O1601 C1600 1.218 . S
C1602 O1595 1.275 . S
C1602 O1597 1.255 . S
C1603 O1604 1.258 . S
C1603 O1605 1.256 . S
O1604 Cd1596 2.381 . S
O1604 C1603 1.258 . S
O1605 Cd1596 2.378 . S
O1605 C1603 1.256 . S
O1606 Cd1607 2.300 . S
O1606 C1613 1.275 . S
Cd1607 O1606 2.300 . S
Cd1607 O1615 2.381 . S
Cd1607 O1616 2.378 . S
O1608 Cd1609 2.385 . S
O1608 C1613 1.255 . S
Cd1609 O1608 2.385 . S
Cd1609 O1610 2.317 . S
O1610 Cd1609 2.317 . S
O1610 C1611 1.232 . S
C1611 O1610 1.232 . S
C1611 O1612 1.218 . S
O1612 C1611 1.218 . S
C1613 O1606 1.275 . S
C1613 O1608 1.255 . S
C1614 O1615 1.258 . S
C1614 O1616 1.256 . S
O1615 Cd1607 2.381 . S
O1615 C1614 1.258 . S
O1616 Cd1607 2.378 . S
O1616 C1614 1.256 . S
O1617 Cd1618 2.300 . S
O1617 C1624 1.275 . S
Cd1618 O1617 2.300 . S
Cd1618 O1626 2.381 . S
Cd1618 O1627 2.378 1_655 S
O1619 Cd1620 2.385 . S
O1619 C1624 1.255 . S
Cd1620 O1619 2.385 . S
Cd1620 O1621 2.317 . S
O1621 Cd1620 2.317 . S
O1621 C1622 1.232 . S
C1622 O1621 1.232 . S
C1622 O1623 1.218 . S
O1623 C1622 1.218 . S
C1624 O1617 1.275 . S
C1624 O1619 1.255 . S
C1625 O1626 1.258 1_455 S
C1625 O1627 1.256 . S
O1626 Cd1618 2.381 . S
O1626 C1625 1.258 1_655 S
O1627 Cd1618 2.378 1_455 S
O1627 C1625 1.256 . S
O1628 Cd1629 2.300 . S
O1628 C1635 1.275 . S
Cd1629 O1628 2.300 . S
Cd1629 O1637 2.381 . S
Cd1629 O1638 2.378 . S
O1630 Cd1631 2.385 . S
O1630 C1635 1.255 . S
Cd1631 O1630 2.385 . S
Cd1631 O1632 2.317 . S
O1632 Cd1631 2.317 . S
O1632 C1633 1.232 . S
C1633 O1632 1.232 . S
C1633 O1634 1.218 . S
O1634 C1633 1.218 . S
C1635 O1628 1.275 . S
C1635 O1630 1.255 . S
C1636 O1637 1.258 . S
C1636 O1638 1.256 . S
O1637 Cd1629 2.381 . S
O1637 C1636 1.258 . S
O1638 Cd1629 2.378 . S
O1638 C1636 1.256 . S
O1639 Cd1640 2.300 . S
O1639 C1646 1.275 . S
Cd1640 O1639 2.300 . S
Cd1640 O1648 2.381 . S
Cd1640 O1649 2.378 1_655 S
O1641 Cd1642 2.385 . S
O1641 C1646 1.255 . S
Cd1642 O1641 2.385 . S
Cd1642 O1643 2.317 . S
O1643 Cd1642 2.317 . S
O1643 C1644 1.232 . S
C1644 O1643 1.232 . S
C1644 O1645 1.218 . S
O1645 C1644 1.218 . S
C1646 O1639 1.275 . S
C1646 O1641 1.255 . S
C1647 O1648 1.258 1_455 S
C1647 O1649 1.256 . S
O1648 Cd1640 2.381 . S
O1648 C1647 1.258 1_655 S
O1649 Cd1640 2.378 1_455 S
O1649 C1647 1.256 . S
O1650 Cd1651 2.300 . S
O1650 C1657 1.275 . S
Cd1651 O1650 2.300 . S
Cd1651 O1659 2.381 . S
Cd1651 O1660 2.378 . S
O1652 Cd1653 2.385 . S
O1652 C1657 1.255 . S
Cd1653 O1652 2.385 . S
Cd1653 O1654 2.317 . S
O1654 Cd1653 2.317 . S
O1654 C1655 1.232 . S
C1655 O1654 1.232 . S
C1655 O1656 1.218 . S
O1656 C1655 1.218 . S
C1657 O1650 1.275 . S
C1657 O1652 1.255 . S
C1658 O1659 1.258 . S
C1658 O1660 1.256 . S
O1659 Cd1651 2.381 . S
O1659 C1658 1.258 . S
O1660 Cd1651 2.378 . S
O1660 C1658 1.256 . S
O1661 Cd1662 2.300 . S
O1661 C1668 1.275 . S
Cd1662 O1661 2.300 . S
Cd1662 O1670 2.381 . S
Cd1662 O1671 2.378 . S
O1663 Cd1664 2.385 . S
O1663 C1668 1.255 . S
Cd1664 O1663 2.385 . S
Cd1664 O1665 2.317 . S
O1665 Cd1664 2.317 . S
O1665 C1666 1.232 . S
C1666 O1665 1.232 . S
C1666 O1667 1.218 . S
O1667 C1666 1.218 . S
C1668 O1661 1.275 . S
C1668 O1663 1.255 . S
C1669 O1670 1.258 . S
C1669 O1671 1.256 . S
O1670 Cd1662 2.381 . S
O1670 C1669 1.258 . S
O1671 Cd1662 2.378 . S
O1671 C1669 1.256 . S
O1672 Cd1673 2.300 . S
O1672 C1679 1.275 . S
Cd1673 O1672 2.300 . S
Cd1673 O1681 2.381 . S
Cd1673 O1682 2.378 . S
O1674 Cd1675 2.385 . S
O1674 C1679 1.255 . S
Cd1675 O1674 2.385 . S
Cd1675 O1676 2.317 . S
O1676 Cd1675 2.317 . S
O1676 C1677 1.232 . S
C1677 O1676 1.232 . S
C1677 O1678 1.218 . S
O1678 C1677 1.218 . S
C1679 O1672 1.275 . S
C1679 O1674 1.255 . S
C1680 O1681 1.258 . S
C1680 O1682 1.256 . S
O1681 Cd1673 2.381 . S
O1681 C1680 1.258 . S
O1682 Cd1673 2.378 . S
O1682 C1680 1.256 . S
O1683 Cd1684 2.300 . S
O1683 C1690 1.275 . S
Cd1684 O1683 2.300 . S
Cd1684 O1692 2.381 . S
Cd1684 O1693 2.378 1_556 S
O1685 Cd1686 2.385 . S
O1685 C1690 1.255 . S
Cd1686 O1685 2.385 . S
Cd1686 O1687 2.317 . S
O1687 Cd1686 2.317 . S
O1687 C1688 1.232 . S
C1688 O1687 1.232 . S
C1688 O1689 1.218 . S
O1689 C1688 1.218 . S
C1690 O1683 1.275 . S
C1690 O1685 1.255 . S
C1691 O1692 1.258 1_554 S
C1691 O1693 1.256 . S
O1692 Cd1684 2.381 . S
O1692 C1691 1.258 1_556 S
O1693 Cd1684 2.378 1_554 S
O1693 C1691 1.256 . S
O1694 Cd1695 2.300 . S
O1694 C1701 1.275 . S
Cd1695 O1694 2.300 . S
Cd1695 O1703 2.381 . S
Cd1695 O1704 2.378 . S
O1696 Cd1697 2.385 . S
O1696 C1701 1.255 . S
Cd1697 O1696 2.385 . S
Cd1697 O1698 2.317 . S
O1698 Cd1697 2.317 . S
O1698 C1699 1.232 . S
C1699 O1698 1.232 . S
C1699 O1700 1.218 . S
O1700 C1699 1.218 . S
C1701 O1694 1.275 . S
C1701 O1696 1.255 . S
C1702 O1703 1.258 . S
C1702 O1704 1.256 . S
O1703 Cd1695 2.381 . S
O1703 C1702 1.258 . S
O1704 Cd1695 2.378 . S
O1704 C1702 1.256 . S
O1705 Cd1706 2.300 . S
O1705 C1712 1.275 . S
Cd1706 O1705 2.300 . S
Cd1706 O1714 2.381 . S
Cd1706 O1715 2.378 . S
O1707 Cd1708 2.385 . S
O1707 C1712 1.255 . S
Cd1708 O1707 2.385 . S
Cd1708 O1709 2.317 . S
O1709 Cd1708 2.317 . S
O1709 C1710 1.232 . S
C1710 O1709 1.232 . S
C1710 O1711 1.218 . S
O1711 C1710 1.218 . S
C1712 O1705 1.275 . S
C1712 O1707 1.255 . S
C1713 O1714 1.258 . S
C1713 O1715 1.256 . S
O1714 Cd1706 2.381 . S
O1714 C1713 1.258 . S
O1715 Cd1706 2.378 . S
O1715 C1713 1.256 . S
O1716 Cd1717 2.300 . S
O1716 C1723 1.275 . S
Cd1717 O1716 2.300 . S
Cd1717 O1725 2.381 . S
Cd1717 O1726 2.378 . S
O1718 Cd1719 2.385 . S
O1718 C1723 1.255 . S
Cd1719 O1718 2.385 . S
Cd1719 O1720 2.317 . S
O1720 Cd1719 2.317 . S
O1720 C1721 1.232 . S
C1721 O1720 1.232 . S
C1721 O1722 1.218 . S
O1722 C1721 1.218 . S
C1723 O1716 1.275 . S
C1723 O1718 1.255 . S
C1724 O1725 1.258 . S
C1724 O1726 1.256 . S
O1725 Cd1717 2.381 . S
O1725 C1724 1.258 . S
O1726 Cd1717 2.378 . S
O1726 C1724 1.256 . S
O1727 Cd1728 2.300 . S
O1727 C1734 1.275 . S
Cd1728 O1727 2.300 . S
Cd1728 O1736 2.381 . S
Cd1728 O1737 2.378 1_554 S
O1729 Cd1730 2.385 . S
O1729 C1734 1.255 . S
Cd1730 O1729 2.385 . S
Cd1730 O1731 2.317 . S
O1731 Cd1730 2.317 . S
O1731 C1732 1.232 . S
C1732 O1731 1.232 . S
C1732 O1733 1.218 . S
O1733 C1732 1.218 . S
C1734 O1727 1.275 . S
C1734 O1729 1.255 . S
C1735 O1736 1.258 1_556 S
C1735 O1737 1.256 . S
O1736 Cd1728 2.381 . S
O1736 C1735 1.258 1_554 S
O1737 Cd1728 2.378 1_556 S
O1737 C1735 1.256 . S
O1738 Cd1739 2.300 . S
O1738 C1745 1.275 . S
Cd1739 O1738 2.300 . S
Cd1739 O1747 2.381 . S
Cd1739 O1748 2.378 . S
O1740 Cd1741 2.385 . S
O1740 C1745 1.255 . S
Cd1741 O1740 2.385 . S
Cd1741 O1742 2.317 . S
O1742 Cd1741 2.317 . S
O1742 C1743 1.232 . S
C1743 O1742 1.232 . S
C1743 O1744 1.218 . S
O1744 C1743 1.218 . S
C1745 O1738 1.275 . S
C1745 O1740 1.255 . S
C1746 O1747 1.258 . S
C1746 O1748 1.256 . S
O1747 Cd1739 2.381 . S
O1747 C1746 1.258 . S
O1748 Cd1739 2.378 . S
O1748 C1746 1.256 . S
O1749 Cd1750 2.300 . S
O1749 C1756 1.275 . S
Cd1750 O1749 2.300 . S
Cd1750 O1758 2.381 . S
Cd1750 O1759 2.378 . S
O1751 Cd1752 2.385 . S
O1751 C1756 1.255 . S
Cd1752 O1751 2.385 . S
Cd1752 O1753 2.317 . S
O1753 Cd1752 2.317 . S
O1753 C1754 1.232 . S
C1754 O1753 1.232 . S
C1754 O1755 1.218 . S
O1755 C1754 1.218 . S
C1756 O1749 1.275 . S
C1756 O1751 1.255 . S
C1757 O1758 1.258 . S
C1757 O1759 1.256 . S
O1758 Cd1750 2.381 . S
O1758 C1757 1.258 . S
O1759 Cd1750 2.378 . S
O1759 C1757 1.256 . S
O1760 Cd1761 2.300 . S
O1760 C1767 1.275 . S
Cd1761 O1760 2.300 . S
Cd1761 O1769 2.381 . S
Cd1761 O1770 2.378 . S
O1762 Cd1763 2.385 . S
O1762 C1767 1.255 . S
Cd1763 O1762 2.385 . S
Cd1763 O1764 2.317 . S
O1764 Cd1763 2.317 . S
O1764 C1765 1.232 . S
C1765 O1764 1.232 . S
C1765 O1766 1.218 . S
O1766 C1765 1.218 . S
C1767 O1760 1.275 . S
C1767 O1762 1.255 . S
C1768 O1769 1.258 . S
C1768 O1770 1.256 . S
O1769 Cd1761 2.381 . S
O1769 C1768 1.258 . S
O1770 Cd1761 2.378 . S
O1770 C1768 1.256 . S
O1771 Cd1772 2.300 . S
O1771 C1778 1.275 . S
Cd1772 O1771 2.300 . S
Cd1772 O1780 2.381 . S
Cd1772 O1781 2.378 . S
O1773 Cd1774 2.385 . S
O1773 C1778 1.255 . S
Cd1774 O1773 2.385 . S
Cd1774 O1775 2.317 . S
O1775 Cd1774 2.317 . S
O1775 C1776 1.232 . S
C1776 O1775 1.232 . S
C1776 O1777 1.218 . S
O1777 C1776 1.218 . S
C1778 O1771 1.275 . S
C1778 O1773 1.255 . S
C1779 O1780 1.258 . S
C1779 O1781 1.256 . S
O1780 Cd1772 2.381 . S
O1780 C1779 1.258 . S
O1781 Cd1772 2.378 . S
O1781 C1779 1.256 . S
O1782 Cd1783 2.300 . S
O1782 C1789 1.275 . S
Cd1783 O1782 2.300 . S
Cd1783 O1791 2.381 . S
Cd1783 O1792 2.378 1_565 S
O1784 Cd1785 2.385 . S
O1784 C1789 1.255 . S
Cd1785 O1784 2.385 . S
Cd1785 O1786 2.317 . S
O1786 Cd1785 2.317 . S
O1786 C1787 1.232 . S
C1787 O1786 1.232 . S
C1787 O1788 1.218 . S
O1788 C1787 1.218 . S
C1789 O1782 1.275 . S
C1789 O1784 1.255 . S
C1790 O1791 1.258 1_545 S
C1790 O1792 1.256 . S
O1791 Cd1783 2.381 . S
O1791 C1790 1.258 1_565 S
O1792 Cd1783 2.378 1_545 S
O1792 C1790 1.256 . S
O1793 Cd1794 2.300 . S
O1793 C1800 1.275 . S
Cd1794 O1793 2.300 . S
Cd1794 O1802 2.381 . S
Cd1794 O1803 2.378 . S
O1795 Cd1796 2.385 . S
O1795 C1800 1.255 . S
Cd1796 O1795 2.385 . S
Cd1796 O1797 2.317 . S
O1797 Cd1796 2.317 . S
O1797 C1798 1.232 . S
C1798 O1797 1.232 . S
C1798 O1799 1.218 . S
O1799 C1798 1.218 . S
C1800 O1793 1.275 . S
C1800 O1795 1.255 . S
C1801 O1802 1.258 . S
C1801 O1803 1.256 . S
O1802 Cd1794 2.381 . S
O1802 C1801 1.258 . S
O1803 Cd1794 2.378 . S
O1803 C1801 1.256 . S
O1804 Cd1805 2.300 . S
O1804 C1811 1.275 . S
Cd1805 O1804 2.300 . S
Cd1805 O1813 2.381 . S
Cd1805 O1814 2.378 . S
O1806 Cd1807 2.385 . S
O1806 C1811 1.255 . S
Cd1807 O1806 2.385 . S
Cd1807 O1808 2.317 . S
O1808 Cd1807 2.317 . S
O1808 C1809 1.232 . S
C1809 O1808 1.232 . S
C1809 O1810 1.218 . S
O1810 C1809 1.218 . S
C1811 O1804 1.275 . S
C1811 O1806 1.255 . S
C1812 O1813 1.258 . S
C1812 O1814 1.256 . S
O1813 Cd1805 2.381 . S
O1813 C1812 1.258 . S
O1814 Cd1805 2.378 . S
O1814 C1812 1.256 . S
O1815 Cd1816 2.300 . S
O1815 C1822 1.275 . S
Cd1816 O1815 2.300 . S
Cd1816 O1824 2.381 . S
Cd1816 O1825 2.378 . S
O1817 Cd1818 2.385 . S
O1817 C1822 1.255 . S
Cd1818 O1817 2.385 . S
Cd1818 O1819 2.317 . S
O1819 Cd1818 2.317 . S
O1819 C1820 1.232 . S
C1820 O1819 1.232 . S
C1820 O1821 1.218 . S
O1821 C1820 1.218 . S
C1822 O1815 1.275 . S
C1822 O1817 1.255 . S
C1823 O1824 1.258 . S
C1823 O1825 1.256 . S
O1824 Cd1816 2.381 . S
O1824 C1823 1.258 . S
O1825 Cd1816 2.378 . S
O1825 C1823 1.256 . S
O1826 Cd1827 2.300 . S
O1826 C1833 1.275 . S
Cd1827 O1826 2.300 . S
Cd1827 O1835 2.381 . S
Cd1827 O1836 2.378 1_545 S
O1828 Cd1829 2.385 . S
O1828 C1833 1.255 . S
Cd1829 O1828 2.385 . S
Cd1829 O1830 2.317 . S
O1830 Cd1829 2.317 . S
O1830 C1831 1.232 . S
C1831 O1830 1.232 . S
C1831 O1832 1.218 . S
O1832 C1831 1.218 . S
C1833 O1826 1.275 . S
C1833 O1828 1.255 . S
C1834 O1835 1.258 1_565 S
C1834 O1836 1.256 . S
O1835 Cd1827 2.381 . S
O1835 C1834 1.258 1_545 S
O1836 Cd1827 2.378 1_565 S
O1836 C1834 1.256 . S
O1837 Cd1838 2.300 . S
O1837 C1844 1.275 . S
Cd1838 O1837 2.300 . S
Cd1838 O1846 2.381 . S
Cd1838 O1847 2.378 1_565 S
O1839 Cd1840 2.385 . S
O1839 C1844 1.255 . S
Cd1840 O1839 2.385 . S
Cd1840 O1841 2.317 . S
O1841 Cd1840 2.317 . S
O1841 C1842 1.232 . S
C1842 O1841 1.232 . S
C1842 O1843 1.218 . S
O1843 C1842 1.218 . S
C1844 O1837 1.275 . S
C1844 O1839 1.255 . S
C1845 O1846 1.258 1_545 S
C1845 O1847 1.256 . S
O1846 Cd1838 2.381 . S
O1846 C1845 1.258 1_565 S
O1847 Cd1838 2.378 1_545 S
O1847 C1845 1.256 . S
O1848 Cd1849 2.300 . S
O1848 C1855 1.275 . S
Cd1849 O1848 2.300 . S
Cd1849 O1857 2.381 . S
Cd1849 O1858 2.378 . S
O1850 Cd1851 2.385 . S
O1850 C1855 1.255 . S
Cd1851 O1850 2.385 . S
Cd1851 O1852 2.317 . S
O1852 Cd1851 2.317 . S
O1852 C1853 1.232 . S
C1853 O1852 1.232 . S
C1853 O1854 1.218 . S
O1854 C1853 1.218 . S
C1855 O1848 1.275 . S
C1855 O1850 1.255 . S
C1856 O1857 1.258 . S
C1856 O1858 1.256 . S
O1857 Cd1849 2.381 . S
O1857 C1856 1.258 . S
O1858 Cd1849 2.378 . S
O1858 C1856 1.256 . S
O1859 Cd1860 2.300 . S
O1859 C1866 1.275 . S
Cd1860 O1859 2.300 . S
Cd1860 O1868 2.381 . S
Cd1860 O1869 2.378 . S
O1861 Cd1862 2.385 . S
O1861 C1866 1.255 . S
Cd1862 O1861 2.385 . S
Cd1862 O1863 2.317 . S
O1863 Cd1862 2.317 . S
O1863 C1864 1.232 . S
C1864 O1863 1.232 . S
C1864 O1865 1.218 . S
O1865 C1864 1.218 . S
C1866 O1859 1.275 . S
C1866 O1861 1.255 . S
C1867 O1868 1.258 . S
C1867 O1869 1.256 . S
O1868 Cd1860 2.381 . S
O1868 C1867 1.258 . S
O1869 Cd1860 2.378 . S
O1869 C1867 1.256 . S
O1870 Cd1871 2.300 . S
O1870 C1877 1.275 . S
Cd1871 O1870 2.300 . S
Cd1871 O1879 2.381 . S
Cd1871 O1880 2.378 . S
O1872 Cd1873 2.385 . S
O1872 C1877 1.255 . S
Cd1873 O1872 2.385 . S
Cd1873 O1874 2.317 . S
O1874 Cd1873 2.317 . S
O1874 C1875 1.232 . S
C1875 O1874 1.232 . S
C1875 O1876 1.218 . S
O1876 C1875 1.218 . S
C1877 O1870 1.275 . S
C1877 O1872 1.255 . S
C1878 O1879 1.258 . S
C1878 O1880 1.256 . S
O1879 Cd1871 2.381 . S
O1879 C1878 1.258 . S
O1880 Cd1871 2.378 . S
O1880 C1878 1.256 . S
O1881 Cd1882 2.300 . S
O1881 C1888 1.275 . S
Cd1882 O1881 2.300 . S
Cd1882 O1890 2.381 . S
Cd1882 O1891 2.378 . S
O1883 Cd1884 2.385 . S
O1883 C1888 1.255 . S
Cd1884 O1883 2.385 . S
Cd1884 O1885 2.317 . S
O1885 Cd1884 2.317 . S
O1885 C1886 1.232 . S
C1886 O1885 1.232 . S
C1886 O1887 1.218 . S
O1887 C1886 1.218 . S
C1888 O1881 1.275 . S
C1888 O1883 1.255 . S
C1889 O1890 1.248 1_655 S
C1889 O1891 1.240 1_655 S
O1890 Cd1882 2.381 . S
O1890 C1889 1.248 1_455 S
O1891 Cd1882 2.378 . S
O1891 C1889 1.240 1_455 S
O1892 Cd1893 2.300 . S
O1892 C1899 1.275 . S
Cd1893 O1892 2.300 . S
Cd1893 O1901 2.381 . S
Cd1893 O1902 2.378 . S
O1894 Cd1895 2.385 . S
O1894 C1899 1.255 . S
Cd1895 O1894 2.385 . S
Cd1895 O1896 2.317 . S
O1896 Cd1895 2.317 . S
O1896 C1897 1.232 . S
C1897 O1896 1.232 . S
C1897 O1898 1.218 . S
O1898 C1897 1.218 . S
C1899 O1892 1.275 . S
C1899 O1894 1.255 . S
C1900 O1901 1.258 . S
C1900 O1902 1.256 . S
O1901 Cd1893 2.381 . S
O1901 C1900 1.258 . S
O1902 Cd1893 2.378 . S
O1902 C1900 1.256 . S
O1903 Cd1904 2.300 . S
O1903 C1910 1.275 . S
Cd1904 O1903 2.300 . S
Cd1904 O1912 2.381 . S
Cd1904 O1913 2.378 . S
O1905 Cd1906 2.385 . S
O1905 C1910 1.255 . S
Cd1906 O1905 2.385 . S
Cd1906 O1907 2.317 . S
O1907 Cd1906 2.317 . S
O1907 C1908 1.232 . S
C1908 O1907 1.232 . S
C1908 O1909 1.218 . S
O1909 C1908 1.218 . S
C1910 O1903 1.275 . S
C1910 O1905 1.255 . S
C1911 O1912 1.248 1_655 S
C1911 O1913 1.240 1_655 S
O1912 Cd1904 2.381 . S
O1912 C1911 1.248 1_455 S
O1913 Cd1904 2.378 . S
O1913 C1911 1.240 1_455 S
O1914 Cd1915 2.300 . S
O1914 C1921 1.275 . S
Cd1915 O1914 2.300 . S
Cd1915 O1923 2.381 . S
Cd1915 O1924 2.378 . S
O1916 Cd1917 2.385 . S
O1916 C1921 1.255 . S
Cd1917 O1916 2.385 . S
Cd1917 O1918 2.317 . S
O1918 Cd1917 2.317 . S
O1918 C1919 1.232 . S
C1919 O1918 1.232 . S
C1919 O1920 1.218 . S
O1920 C1919 1.218 . S
C1921 O1914 1.275 . S
C1921 O1916 1.255 . S
C1922 O1923 1.258 . S
C1922 O1924 1.256 . S
O1923 Cd1915 2.381 . S
O1923 C1922 1.258 . S
O1924 Cd1915 2.378 . S
O1924 C1922 1.256 . S
O1925 Cd1926 2.300 . S
O1925 C1932 1.275 . S
Cd1926 O1925 2.300 . S
Cd1926 O1934 2.381 . S
Cd1926 O1935 2.378 . S
O1927 Cd1928 2.385 . S
O1927 C1932 1.255 . S
Cd1928 O1927 2.385 . S
Cd1928 O1929 2.317 . S
O1929 Cd1928 2.317 . S
O1929 C1930 1.232 . S
C1930 O1929 1.232 . S
C1930 O1931 1.218 . S
O1931 C1930 1.218 . S
C1932 O1925 1.275 . S
C1932 O1927 1.255 . S
C1933 O1934 1.258 . S
C1933 O1935 1.256 . S
O1934 Cd1926 2.381 . S
O1934 C1933 1.258 . S
O1935 Cd1926 2.378 . S
O1935 C1933 1.256 . S
O1936 Cd1937 2.300 . S
O1936 C1943 1.275 . S
Cd1937 O1936 2.300 . S
Cd1937 O1945 2.381 . S
Cd1937 O1946 2.378 . S
O1938 Cd1939 2.385 . S
O1938 C1943 1.255 . S
Cd1939 O1938 2.385 . S
Cd1939 O1940 2.317 . S
O1940 Cd1939 2.317 . S
O1940 C1941 1.232 . S
C1941 O1940 1.232 . S
C1941 O1942 1.218 . S
O1942 C1941 1.218 . S
C1943 O1936 1.275 . S
C1943 O1938 1.255 . S
C1944 O1945 1.258 . S
C1944 O1946 1.256 . S
O1945 Cd1937 2.381 . S
O1945 C1944 1.258 . S
O1946 Cd1937 2.378 . S
O1946 C1944 1.256 . S
O1947 Cd1948 2.300 . S
O1947 C1954 1.275 . S
Cd1948 O1947 2.300 . S
Cd1948 O1956 2.381 . S
Cd1948 O1957 2.378 . S
O1949 Cd1950 2.385 . S
O1949 C1954 1.255 . S
Cd1950 O1949 2.385 . S
Cd1950 O1951 2.317 . S
O1951 Cd1950 2.317 . S
O1951 C1952 1.232 . S
C1952 O1951 1.232 . S
C1952 O1953 1.218 . S
O1953 C1952 1.218 . S
C1954 O1947 1.275 . S
C1954 O1949 1.255 . S
C1955 O1956 1.248 1_556 S
C1955 O1957 1.240 1_556 S
O1956 Cd1948 2.381 . S
O1956 C1955 1.248 1_554 S
O1957 Cd1948 2.378 . S
O1957 C1955 1.240 1_554 S
O1958 Cd1959 2.300 . S
O1958 C1965 1.275 . S
Cd1959 O1958 2.300 . S
Cd1959 O1967 2.381 . S
Cd1959 O1968 2.378 . S
O1960 Cd1961 2.385 . S
O1960 C1965 1.255 . S
Cd1961 O1960 2.385 . S
Cd1961 O1962 2.317 . S
O1962 Cd1961 2.317 . S
O1962 C1963 1.232 . S
C1963 O1962 1.232 . S
C1963 O1964 1.218 . S
O1964 C1963 1.218 . S
C1965 O1958 1.275 . S
C1965 O1960 1.255 . S
C1966 O1967 1.258 . S
C1966 O1968 1.256 . S
O1967 Cd1959 2.381 . S
O1967 C1966 1.258 . S
O1968 Cd1959 2.378 . S
O1968 C1966 1.256 . S
O1969 Cd1970 2.300 . S
O1969 C1976 1.275 . S
Cd1970 O1969 2.300 . S
Cd1970 O1978 2.381 . S
Cd1970 O1979 2.378 . S
O1971 Cd1972 2.385 . S
O1971 C1976 1.255 . S
Cd1972 O1971 2.385 . S
Cd1972 O1973 2.317 . S
O1973 Cd1972 2.317 . S
O1973 C1974 1.232 . S
C1974 O1973 1.232 . S
C1974 O1975 1.218 . S
O1975 C1974 1.218 . S
C1976 O1969 1.275 . S
C1976 O1971 1.255 . S
C1977 O1978 1.258 . S
C1977 O1979 1.256 . S
O1978 Cd1970 2.381 . S
O1978 C1977 1.258 . S
O1979 Cd1970 2.378 . S
O1979 C1977 1.256 . S
O1980 Cd1981 2.300 . S
O1980 C1987 1.275 . S
Cd1981 O1980 2.300 . S
Cd1981 O1989 2.381 . S
Cd1981 O1990 2.378 . S
O1982 Cd1983 2.385 . S
O1982 C1987 1.255 . S
Cd1983 O1982 2.385 . S
Cd1983 O1984 2.317 . S
O1984 Cd1983 2.317 . S
O1984 C1985 1.232 . S
C1985 O1984 1.232 . S
C1985 O1986 1.218 . S
O1986 C1985 1.218 . S
C1987 O1980 1.275 . S
C1987 O1982 1.255 . S
C1988 O1989 1.258 . S
C1988 O1990 1.256 . S
O1989 Cd1981 2.381 . S
O1989 C1988 1.258 . S
O1990 Cd1981 2.378 . S
O1990 C1988 1.256 . S
O1991 Cd1992 2.300 . S
O1991 C1998 1.275 . S
Cd1992 O1991 2.300 . S
Cd1992 O2000 2.381 . S
Cd1992 O2001 2.378 . S
O1993 Cd1994 2.385 . S
O1993 C1998 1.255 . S
Cd1994 O1993 2.385 . S
Cd1994 O1995 2.317 . S
O1995 Cd1994 2.317 . S
O1995 C1996 1.232 . S
C1996 O1995 1.232 . S
C1996 O1997 1.218 . S
O1997 C1996 1.218 . S
C1998 O1991 1.275 . S
C1998 O1993 1.255 . S
C1999 O2000 1.247 1_554 S
C1999 O2001 1.240 1_554 S
O2000 Cd1992 2.381 . S
O2000 C1999 1.247 1_556 S
O2001 Cd1992 2.378 . S
O2001 C1999 1.240 1_556 S
O2002 Cd2003 2.300 . S
O2002 C2009 1.275 . S
Cd2003 O2002 2.300 . S
Cd2003 O2011 2.381 . S
Cd2003 O2012 2.378 . S
O2004 Cd2005 2.385 . S
O2004 C2009 1.255 . S
Cd2005 O2004 2.385 . S
Cd2005 O2006 2.317 . S
O2006 Cd2005 2.317 . S
O2006 C2007 1.232 . S
C2007 O2006 1.232 . S
C2007 O2008 1.218 . S
O2008 C2007 1.218 . S
C2009 O2002 1.275 . S
C2009 O2004 1.255 . S
C2010 O2011 1.258 . S
C2010 O2012 1.256 . S
O2011 Cd2003 2.381 . S
O2011 C2010 1.258 . S
O2012 Cd2003 2.378 . S
O2012 C2010 1.256 . S
O2013 Cd2014 2.300 . S
O2013 C2020 1.275 . S
Cd2014 O2013 2.300 . S
Cd2014 O2022 2.381 . S
Cd2014 O2023 2.378 . S
O2015 Cd2016 2.385 . S
O2015 C2020 1.255 . S
Cd2016 O2015 2.385 . S
Cd2016 O2017 2.317 . S
O2017 Cd2016 2.317 . S
O2017 C2018 1.232 . S
C2018 O2017 1.232 . S
C2018 O2019 1.218 . S
O2019 C2018 1.218 . S
C2020 O2013 1.275 . S
C2020 O2015 1.255 . S
C2021 O2022 1.258 . S
C2021 O2023 1.256 . S
O2022 Cd2014 2.381 . S
O2022 C2021 1.258 . S
O2023 Cd2014 2.378 . S
O2023 C2021 1.256 . S
O2024 Cd2025 2.300 . S
O2024 C2031 1.275 . S
Cd2025 O2024 2.300 . S
Cd2025 O2033 2.381 . S
Cd2025 O2034 2.378 . S
O2026 Cd2027 2.385 . S
O2026 C2031 1.255 . S
Cd2027 O2026 2.385 . S
Cd2027 O2028 2.317 . S
O2028 Cd2027 2.317 . S
O2028 C2029 1.232 . S
C2029 O2028 1.232 . S
C2029 O2030 1.218 . S
O2030 C2029 1.218 . S
C2031 O2024 1.275 . S
C2031 O2026 1.255 . S
C2032 O2033 1.258 . S
C2032 O2034 1.256 . S
O2033 Cd2025 2.381 . S
O2033 C2032 1.258 . S
O2034 Cd2025 2.378 . S
O2034 C2032 1.256 . S
O2035 Cd2036 2.300 . S
O2035 C2042 1.275 . S
Cd2036 O2035 2.300 . S
Cd2036 O2044 2.381 . S
Cd2036 O2045 2.378 . S
O2037 Cd2038 2.385 . S
O2037 C2042 1.255 . S
Cd2038 O2037 2.385 . S
Cd2038 O2039 2.317 . S
O2039 Cd2038 2.317 . S
O2039 C2040 1.232 . S
C2040 O2039 1.232 . S
C2040 O2041 1.218 . S
O2041 C2040 1.218 . S
C2042 O2035 1.275 . S
C2042 O2037 1.255 . S
C2043 O2044 1.258 . S
C2043 O2045 1.256 . S
O2044 Cd2036 2.381 . S
O2044 C2043 1.258 . S
O2045 Cd2036 2.378 . S
O2045 C2043 1.256 . S
O2046 Cd2047 2.300 . S
O2046 C2053 1.275 . S
Cd2047 O2046 2.300 . S
Cd2047 O2055 2.381 . S
Cd2047 O2056 2.378 . S
O2048 Cd2049 2.385 . S
O2048 C2053 1.255 . S
Cd2049 O2048 2.385 . S
Cd2049 O2050 2.317 . S
O2050 Cd2049 2.317 . S
O2050 C2051 1.232 . S
C2051 O2050 1.232 . S
C2051 O2052 1.218 . S
O2052 C2051 1.218 . S
C2053 O2046 1.275 . S
C2053 O2048 1.255 . S
C2054 O2055 1.248 1_565 S
C2054 O2056 1.240 1_565 S
O2055 Cd2047 2.381 . S
O2055 C2054 1.248 1_545 S
O2056 Cd2047 2.378 . S
O2056 C2054 1.240 1_545 S
O2057 Cd2058 2.300 . S
O2057 C2064 1.275 . S
Cd2058 O2057 2.300 . S
Cd2058 O2066 2.381 . S
Cd2058 O2067 2.378 . S
O2059 Cd2060 2.385 . S
O2059 C2064 1.255 . S
Cd2060 O2059 2.385 . S
Cd2060 O2061 2.317 . S
O2061 Cd2060 2.317 . S
O2061 C2062 1.232 . S
C2062 O2061 1.232 . S
C2062 O2063 1.218 . S
O2063 C2062 1.218 . S
C2064 O2057 1.275 . S
C2064 O2059 1.255 . S
C2065 O2066 1.258 . S
C2065 O2067 1.256 . S
O2066 Cd2058 2.381 . S
O2066 C2065 1.258 . S
O2067 Cd2058 2.378 . S
O2067 C2065 1.256 . S
O2068 Cd2069 2.300 . S
O2068 C2075 1.275 . S
Cd2069 O2068 2.300 . S
Cd2069 O2077 2.381 . S
Cd2069 O2078 2.378 . S
O2070 Cd2071 2.385 . S
O2070 C2075 1.255 . S
Cd2071 O2070 2.385 . S
Cd2071 O2072 2.317 . S
O2072 Cd2071 2.317 . S
O2072 C2073 1.232 . S
C2073 O2072 1.232 . S
C2073 O2074 1.218 . S
O2074 C2073 1.218 . S
C2075 O2068 1.275 . S
C2075 O2070 1.255 . S
C2076 O2077 1.258 . S
C2076 O2078 1.256 . S
O2077 Cd2069 2.381 . S
O2077 C2076 1.258 . S
O2078 Cd2069 2.378 . S
O2078 C2076 1.256 . S
O2079 Cd2080 2.300 . S
O2079 C2086 1.275 . S
Cd2080 O2079 2.300 . S
Cd2080 O2088 2.381 . S
Cd2080 O2089 2.378 . S
O2081 Cd2082 2.385 . S
O2081 C2086 1.255 . S
Cd2082 O2081 2.385 . S
Cd2082 O2083 2.317 . S
O2083 Cd2082 2.317 . S
O2083 C2084 1.232 . S
C2084 O2083 1.232 . S
C2084 O2085 1.218 . S
O2085 C2084 1.218 . S
C2086 O2079 1.275 . S
C2086 O2081 1.255 . S
C2087 O2088 1.258 . S
C2087 O2089 1.256 . S
O2088 Cd2080 2.381 . S
O2088 C2087 1.258 . S
O2089 Cd2080 2.378 . S
O2089 C2087 1.256 . S
O2090 Cd2091 2.300 . S
O2090 C2097 1.275 . S
Cd2091 O2090 2.300 . S
Cd2091 O2099 2.381 . S
Cd2091 O2100 2.378 . S
O2092 Cd2093 2.385 . S
O2092 C2097 1.255 . S
Cd2093 O2092 2.385 . S
Cd2093 O2094 2.317 . S
O2094 Cd2093 2.317 . S
O2094 C2095 1.232 . S
C2095 O2094 1.232 . S
C2095 O2096 1.218 . S
O2096 C2095 1.218 . S
C2097 O2090 1.275 . S
C2097 O2092 1.255 . S
C2098 O2099 1.247 1_545 S
C2098 O2100 1.240 1_545 S
O2099 Cd2091 2.381 . S
O2099 C2098 1.247 1_565 S
O2100 Cd2091 2.378 . S
O2100 C2098 1.240 1_565 S
O2101 Cd2102 2.300 . S
O2101 C2108 1.275 . S
Cd2102 O2101 2.300 . S
Cd2102 O2110 2.381 . S
Cd2102 O2111 2.378 . S
O2103 Cd2104 2.385 . S
O2103 C2108 1.255 . S
Cd2104 O2103 2.385 . S
Cd2104 O2105 2.317 . S
O2105 Cd2104 2.317 . S
O2105 C2106 1.232 . S
C2106 O2105 1.232 . S
C2106 O2107 1.218 . S
O2107 C2106 1.218 . S
C2108 O2101 1.275 . S
C2108 O2103 1.255 . S
C2109 O2110 1.247 1_565 S
C2109 O2111 1.240 1_565 S
O2110 Cd2102 2.381 . S
O2110 C2109 1.247 1_545 S
O2111 Cd2102 2.378 . S
O2111 C2109 1.240 1_545 S
C1339 C8 1.612 . S
C1878 C19 1.585 . S
C1361 C30 1.585 . S
C1856 C41 1.585 . S
C1405 C52 1.611 . S
C63 C1900 1.585 . S
C1383 C74 1.585 . S
C1922 C85 1.585 . S
C2098 C96 1.612 . S
C107 C2032 1.585 . S
C2109 C118 1.612 . S
C129 C2087 1.585 . S
C2054 C140 1.611 . S
C1537 C151 1.585 . S
C1548 C162 1.611 . S
C173 C1515 1.585 . S
C184 C1999 1.612 . S
C1449 C195 1.612 . S
C1944 C206 1.585 . S
C1427 C217 1.585 . S
C228 C1438 1.585 . S
C2021 C239 1.585 . S
C1988 C250 1.585 . S
C261 C2010 1.585 . S
C272 C1075 1.618 . S
C283 C1614 1.618 . S
C1097 C294 1.618 . S
C305 C1592 1.618 . S
C1141 C316 1.618 . S
C327 C1636 1.618 . S
C1119 C338 1.618 . S
C1658 C349 1.618 . S
C360 C1834 1.618 . S
C1768 C371 1.618 . S
C382 C1845 1.618 . S
C1823 C393 1.618 . S
C1790 C404 1.618 . S
C415 C1273 1.618 . S
C426 C1284 1.618 . S
C1251 C437 1.618 . S
C448 C1735 1.618 . S
C1185 C459 1.618 . S
C470 C1680 1.618 . S
C1163 C481 1.618 . S
C492 C1174 1.618 . S
C1757 C503 1.618 . S
C1724 C514 1.618 . S
C1746 C525 1.618 . S
C536 C1867 1.585 . S
C1350 C547 1.585 . S
C1889 C558 1.612 . S
C1328 C569 1.585 . S
C580 C1933 1.585 . S
C1372 C591 1.585 . S
C1911 C602 1.612 . S
C1394 C613 1.585 . S
C624 C1570 1.585 . S
C1504 C635 1.585 . S
C1581 C646 1.585 . S
C657 C1559 1.585 . S
C668 C1526 1.585 . S
C679 C2065 1.585 . S
C690 C2076 1.585 . S
C2043 C701 1.585 . S
C712 C1471 1.585 . S
C1977 C723 1.585 . S
C1416 C734 1.585 . S
C1955 C745 1.612 . S
C756 C1966 1.585 . S
C767 C1493 1.611 . S
C1460 C778 1.585 . S
C789 C1482 1.585 . S
C800 C1603 1.618 . S
C1086 C811 1.618 . S
C1625 C822 1.618 . S
C833 C1064 1.618 . S
C1669 C844 1.618 . S
C1108 C855 1.618 . S
C866 C1647 1.618 . S
C877 C1130 1.618 . S
C1306 C888 1.618 . S
C899 C1240 1.618 . S
C1317 C910 1.618 . S
C1295 C921 1.618 . S
C932 C1262 1.618 . S
C943 C1801 1.618 . S
C1812 C954 1.618 . S
C965 C1779 1.618 . S
C1207 C976 1.618 . S
C1713 C987 1.618 . S
C998 C1152 1.618 . S
C1009 C1691 1.618 . S
C1020 C1702 1.618 . S
C1031 C1229 1.618 . S
C1042 C1196 1.618 . S
C1218 C1053 1.618 . S
C1160 C5 0.665 . S
C1171 C16 0.665 . S
C27 C1182 0.665 . S
C38 C1149 0.665 . S
C49 C1226 0.665 . S
C1193 C60 0.665 . S
C1204 C71 0.665 . S
C82 C1215 0.665 . S
C93 C1094 0.665 . S
C104 C1061 0.665 . S
C115 C1072 0.665 . S
C1083 C126 0.665 . S
C137 C1116 0.665 . S
C148 C1127 0.665 . S
C159 C1138 0.665 . S
C170 C1105 0.665 . S
C1259 C181 0.665 . S
C192 C1831 0.665 . S
C1237 C203 0.665 . S
C1842 C214 0.665 . S
C225 C1820 0.665 . S
C236 C1809 0.665 . S
C1776 C247 0.665 . S
C1798 C258 0.665 . S
C1424 C269 2.489 . S
C1435 C280 2.488 . S
C1446 C291 2.489 . S
C302 C1413 2.488 . S
C313 C1490 2.488 . S
C1457 C324 2.489 . S
C335 C1468 2.488 . S
C1479 C346 2.489 . S
C357 C1358 2.489 . S
C1325 C368 2.488 . S
C379 C1336 2.488 . S
C1347 C390 2.488 . S
C1380 C401 2.488 . S
C412 C1391 2.488 . S
C1402 C423 2.488 . S
C1369 C434 2.489 . S
C1523 C445 2.488 . S
C2095 C456 2.488 . S
C1501 C467 2.488 . S
C478 C2106 2.488 . S
C489 C2084 2.488 . S
C2073 C500 2.488 . S
C2040 C511 2.488 . S
C2062 C522 2.488 . S
C533 C1688 0.665 . S
C1699 C544 0.665 . S
C555 C1710 0.665 . S
C1677 C566 0.665 . S
C577 C1754 0.665 . S
C588 C1721 0.665 . S
C599 C1732 0.665 . S
C610 C1743 0.665 . S
C621 C1622 0.665 . S
C1589 C632 0.665 . S
C1600 C643 0.665 . S
C654 C1611 0.665 . S
C665 C1644 0.665 . S
C676 C1655 0.665 . S
C687 C1666 0.665 . S
C698 C1633 0.665 . S
C1787 C709 0.665 . S
C1303 C720 0.665 . S
C1765 C731 0.665 . S
C1314 C742 0.665 . S
C1292 C753 0.665 . S
C1281 C764 0.665 . S
C775 C1248 0.665 . S
C1270 C786 0.665 . S
C797 C1952 2.489 . S
C808 C1963 2.488 . S
C1974 C819 2.489 . S
C830 C1941 2.488 . S
C2018 C841 2.488 . S
C852 C1985 2.489 . S
C863 C1996 2.488 . S
C2007 C874 2.489 . S
C1886 C885 2.489 . S
C1853 C896 2.488 . S
C1864 C907 2.488 . S
C1875 C918 2.488 . S
C929 C1908 2.488 . S
C1919 C940 2.488 . S
C951 C1930 2.488 . S
C962 C1897 2.489 . S
C973 C2051 2.488 . S
C984 C1567 2.488 . S
C995 C2029 2.488 . S
C1578 C1006 2.488 . S
C1017 C1556 2.488 . S
C1028 C1545 2.488 . S
C1039 C1512 2.488 . S
C1534 C1050 2.488 . S
C7 C1063 1.385 . S
C18 C1074 1.385 . S
C29 C1085 1.385 . S
C1096 C40 1.385 . S
C1107 C51 1.385 . S
C62 C1118 1.385 . S
C73 C1129 1.385 . S
C84 C1140 1.385 . S
C1151 C95 1.385 . S
C1162 C106 1.385 . S
C117 C1173 1.385 . S
C1184 C128 1.385 . S
C139 C1195 1.385 . S
C150 C1206 1.385 . S
C161 C1217 1.385 . S
C172 C1228 1.385 . S
C183 C1239 1.385 . S
C194 C1250 1.385 . S
C1261 C205 1.385 . S
C1272 C216 1.385 . S
C1283 C227 1.385 . S
C1294 C238 1.385 . S
C249 C1305 1.385 . S
C1316 C260 1.385 . S
C271 C1327 1.991 . S
C282 C1338 1.991 . S
C293 C1349 1.991 . S
C1360 C304 1.991 . S
C315 C1371 1.991 . S
C1382 C326 1.991 . S
C337 C1393 1.991 . S
C348 C1404 1.991 . S
C1415 C359 1.991 . S
C370 C1426 1.991 . S
C1437 C381 1.991 . S
C392 C1448 1.991 . S
C1459 C403 1.991 . S
C1470 C414 1.991 . S
C1481 C425 1.991 . S
C436 C1492 1.991 . S
C447 C1503 1.991 . S
C458 C1514 1.991 . S
C469 C1525 1.991 . S
C480 C1536 1.991 . S
C491 C1547 1.991 . S
C1558 C502 1.991 . S
C513 C1569 1.991 . S
C1580 C524 1.991 . S
C535 C1591 1.385 . S
C1602 C546 1.385 . S
C1613 C557 1.385 . S
C1624 C568 1.385 . S
C579 C1635 1.385 . S
C590 C1646 1.385 . S
C1657 C601 1.385 . S
C1668 C612 1.385 . S
C623 C1679 1.385 . S
C634 C1690 1.385 . S
C645 C1701 1.385 . S
C656 C1712 1.385 . S
C667 C1723 1.385 . S
C1734 C678 1.385 . S
C1745 C689 1.385 . S
C1756 C700 1.385 . S
C1767 C711 1.385 . S
C722 C1778 1.385 . S
C733 C1789 1.385 . S
C1800 C744 1.385 . S
C755 C1811 1.385 . S
C1822 C766 1.385 . S
C1833 C777 1.385 . S
C1844 C788 1.385 . S
C799 C1855 1.991 . S
C810 C1866 1.991 . S
C821 C1877 1.991 . S
C832 C1888 1.991 . S
C1899 C843 1.991 . S
C1910 C854 1.991 . S
C1921 C865 1.991 . S
C876 C1932 1.991 . S
C887 C1943 1.991 . S
C1954 C898 1.991 . S
C1965 C909 1.991 . S
C1976 C920 1.991 . S
C1987 C931 1.991 . S
C1998 C942 1.991 . S
C2009 C953 1.991 . S
C2020 C964 1.991 . S
C2031 C975 1.991 . S
C2042 C986 1.991 . S
C2053 C997 1.991 . S
C1008 C2064 1.991 . S
C2075 C1019 1.991 . S
C1030 C2086 1.991 . S
C2097 C1041 1.991 . S
C2108 C1052 1.991 . S
