# Generated by pormake.
# Topology pyr, (3,6)-cn, num edge types: 1
# Building blocks:
#     Node 0, Type 0, BuildingBlock: OLANEW_clean_sbu_2, # of connection points: 3
#     Node 1, Type 0, BuildingBlock: OLANEW_clean_sbu_2, # of connection points: 3
#     Node 2, Type 0, BuildingBlock: OLANEW_clean_sbu_2, # of connection points: 3
#     Node 3, Type 0, BuildingBlock: OLANEW_clean_sbu_2, # of connection points: 3
#     Node 4, Type 0, BuildingBlock: OLANEW_clean_sbu_2, # of connection points: 3
#     Node 5, Type 0, BuildingBlock: OLANEW_clean_sbu_2, # of connection points: 3
#     Node 6, Type 0, BuildingBlock: OLANEW_clean_sbu_2, # of connection points: 3
#     Node 7, Type 0, BuildingBlock: OLANEW_clean_sbu_2, # of connection points: 3
#     Node 8, Type 1, BuildingBlock: JUFBIX_clean_sbu_0, # of connection points: 6
#     Node 9, Type 1, BuildingBlock: JUFBIX_clean_sbu_0, # of connection points: 6
#     Node 10, Type 1, BuildingBlock: JUFBIX_clean_sbu_0, # of connection points: 6
#     Node 11, Type 1, BuildingBlock: JUFBIX_clean_sbu_0, # of connection points: 6
#     Edge 12, Type (0, 1), BuildingBlock: TEMPAE_clean_linker_10, # of connection points: 2
#     Edge 13, Type (0, 1), BuildingBlock: TEMPAE_clean_linker_10, # of connection points: 2
#     Edge 14, Type (0, 1), BuildingBlock: TEMPAE_clean_linker_10, # of connection points: 2
#     Edge 15, Type (0, 1), BuildingBlock: TEMPAE_clean_linker_10, # of connection points: 2
#     Edge 16, Type (0, 1), BuildingBlock: TEMPAE_clean_linker_10, # of connection points: 2
#     Edge 17, Type (0, 1), BuildingBlock: TEMPAE_clean_linker_10, # of connection points: 2
#     Edge 18, Type (0, 1), BuildingBlock: TEMPAE_clean_linker_10, # of connection points: 2
#     Edge 19, Type (0, 1), BuildingBlock: TEMPAE_clean_linker_10, # of connection points: 2
#     Edge 20, Type (0, 1), BuildingBlock: TEMPAE_clean_linker_10, # of connection points: 2
#     Edge 21, Type (0, 1), BuildingBlock: TEMPAE_clean_linker_10, # of connection points: 2
#     Edge 22, Type (0, 1), BuildingBlock: TEMPAE_clean_linker_10, # of connection points: 2
#     Edge 23, Type (0, 1), BuildingBlock: TEMPAE_clean_linker_10, # of connection points: 2
#     Edge 24, Type (0, 1), BuildingBlock: TEMPAE_clean_linker_10, # of connection points: 2
#     Edge 25, Type (0, 1), BuildingBlock: TEMPAE_clean_linker_10, # of connection points: 2
#     Edge 26, Type (0, 1), BuildingBlock: TEMPAE_clean_linker_10, # of connection points: 2
#     Edge 27, Type (0, 1), BuildingBlock: TEMPAE_clean_linker_10, # of connection points: 2
#     Edge 28, Type (0, 1), BuildingBlock: TEMPAE_clean_linker_10, # of connection points: 2
#     Edge 29, Type (0, 1), BuildingBlock: TEMPAE_clean_linker_10, # of connection points: 2
#     Edge 30, Type (0, 1), BuildingBlock: TEMPAE_clean_linker_10, # of connection points: 2
#     Edge 31, Type (0, 1), BuildingBlock: TEMPAE_clean_linker_10, # of connection points: 2
#     Edge 32, Type (0, 1), BuildingBlock: TEMPAE_clean_linker_10, # of connection points: 2
#     Edge 33, Type (0, 1), BuildingBlock: TEMPAE_clean_linker_10, # of connection points: 2
#     Edge 34, Type (0, 1), BuildingBlock: TEMPAE_clean_linker_10, # of connection points: 2
#     Edge 35, Type (0, 1), BuildingBlock: TEMPAE_clean_linker_10, # of connection points: 2
# Relax obj value: 0.120
# Max RMSD: 0.171
# Mean RMSD: 0.119
data_MOF--net-pyr--node1-OLANEW_clean_sbu_2--node2-JUFBIX_clean_sbu_0--edge1-TEMPAE_clean_linker_10
_symmetry_space_group_name_H-M    P1
_symmetry_Int_Tables_number       1
_symmetry_cell_setting            triclinic
loop_
_symmetry_equiv_pos_as_xyz
'x, y, z'
_cell_length_a     40.911033
_cell_length_b     38.572048
_cell_length_c     39.959663
_cell_angle_alpha  90.559249
_cell_angle_beta   90.130974
_cell_angle_gamma 96.996447
loop_
_atom_site_label
_atom_site_type_symbol
_atom_site_fract_x
_atom_site_fract_y
_atom_site_fract_z
_atom_type_partial_charge
O0 O 0.23526 0.17045 0.17469 0.0
Cd1 Cd 0.18628 0.19917 0.19214 0.0
O2 O 0.23562 0.13026 0.21426 0.0
Cd3 Cd 0.19438 0.13616 0.24942 0.0
O4 O 0.16369 0.12684 0.29551 0.0
C5 C 0.15787 0.09595 0.307 0.0
O6 O 0.16955 0.07042 0.29068 0.0
C7 C 0.24796 0.14504 0.18785 0.0
C8 C 0.1592 0.24749 0.1497 0.0
O9 O 0.1837 0.25718 0.16909 0.0
O10 O 0.14831 0.21487 0.14914 0.0
O11 O 0.49065 0.94161 0.68907 0.0
Cd12 Cd 0.48229 0.92449 0.63043 0.0
O13 O 0.44117 0.91368 0.69368 0.0
Cd14 Cd 0.39296 0.89977 0.71664 0.0
O15 O 0.33989 0.90166 0.71493 0.0
C16 C 0.32939 0.90852 0.68609 0.0
O17 O 0.35049 0.9122 0.66124 0.0
C18 C 0.46591 0.93164 0.70723 0.0
C19 C 0.49069 0.85486 0.61924 0.0
O20 O 0.51329 0.87939 0.61141 0.0
O21 O 0.46416 0.86316 0.63238 0.0
O22 O 0.72546 0.47895 0.91805 0.0
Cd23 Cd 0.66847 0.48132 0.89967 0.0
O24 O 0.7053 0.42876 0.93826 0.0
Cd25 Cd 0.69559 0.37773 0.96226 0.0
O26 O 0.66513 0.33038 0.97856 0.0
C27 C 0.6696 0.30024 0.9677 0.0
O28 O 0.69413 0.2972 0.94713 0.0
C29 C 0.72997 0.45195 0.93464 0.0
C30 C 0.65729 0.49512 0.83232 0.0
O31 O 0.66192 0.51992 0.85405 0.0
O32 O 0.65913 0.46389 0.84224 0.0
O33 O 0.06049 0.70549 0.44754 0.0
Cd34 Cd 0.06079 0.64698 0.42409 0.0
O35 O 0.01926 0.68087 0.47681 0.0
Cd36 Cd 0.97543 0.6762 0.50833 0.0
O37 O 0.92446 0.66014 0.52253 0.0
C38 C 0.90649 0.64429 0.49981 0.0
O39 O 0.91975 0.63886 0.47058 0.0
C40 C 0.03838 0.70821 0.46933 0.0
C41 C 0.03661 0.63937 0.35871 0.0
O42 O 0.01693 0.63601 0.38369 0.0
O43 O 0.06746 0.64701 0.36472 0.0
O44 O 0.87652 0.85239 0.85375 0.0
Cd45 Cd 0.86053 0.81666 0.9042 0.0
O46 O 0.84379 0.8947 0.8541 0.0
Cd47 Cd 0.80711 0.88757 0.89559 0.0
O48 O 0.76281 0.89763 0.92558 0.0
C49 C 0.75387 0.92821 0.9261 0.0
O50 O 0.7715 0.95298 0.90937 0.0
C51 C 0.86729 0.88003 0.84115 0.0
C52 C 0.89483 0.75853 0.91903 0.0
O53 O 0.86779 0.75474 0.90237 0.0
O54 O 0.90638 0.78972 0.92776 0.0
O55 O 0.57691 0.06545 0.4481 0.0
Cd56 Cd 0.59202 0.07163 0.50736 0.0
O57 O 0.58091 0.12228 0.44475 0.0
Cd58 Cd 0.57887 0.17516 0.42588 0.0
O59 O 0.57897 0.23186 0.42946 0.0
C60 C 0.59367 0.24697 0.45468 0.0
O61 O 0.6084 0.22806 0.47585 0.0
C62 C 0.57502 0.09246 0.43057 0.0
C63 C 0.65742 0.06066 0.51818 0.0
O64 O 0.63412 0.03524 0.51867 0.0
O65 O 0.64976 0.09136 0.51269 0.0
O66 O 0.41336 0.7124 0.19219 0.0
Cd67 Cd 0.39036 0.65578 0.21481 0.0
O68 O 0.3714 0.70444 0.15794 0.0
Cd69 Cd 0.33845 0.71225 0.11615 0.0
O70 O 0.29724 0.69067 0.08411 0.0
C71 C 0.29731 0.65932 0.07395 0.0
O72 O 0.32265 0.64293 0.08149 0.0
C73 C 0.39701 0.72354 0.16833 0.0
C74 C 0.41932 0.63644 0.27402 0.0
O75 O 0.42898 0.62622 0.24547 0.0
O76 O 0.3964 0.65634 0.27452 0.0
O77 O 0.09562 0.51707 0.63817 0.0
Cd78 Cd 0.11395 0.52278 0.58013 0.0
O79 O 0.08132 0.46085 0.63093 0.0
Cd80 Cd 0.05984 0.40777 0.64417 0.0
O81 O 0.04071 0.35207 0.64426 0.0
C82 C 0.04164 0.33532 0.61677 0.0
O83 O 0.0536 0.35219 0.59022 0.0
C84 C 0.08421 0.48764 0.65005 0.0
C85 C 0.18151 0.51901 0.57602 0.0
O86 O 0.16066 0.49166 0.57197 0.0
O87 O 0.17036 0.54814 0.58168 0.0
Co88 Co 0.98478 0.00956 0.56637 0.0
C89 C 0.01451 0.94806 0.56173 0.0
Co90 Co 0.0329 0.01178 0.5918 0.0
C91 C 0.91646 0.01838 0.55288 0.0
C92 C 0.93829 0.99016 0.5142 0.0
N93 N 0.94473 0.00593 0.54414 0.0
N94 N 0.89265 0.0111 0.52942 0.0
C95 C 0.9064 0.99321 0.50514 0.0
H96 H 0.91368 0.03307 0.57569 0.0
H97 H 0.95577 0.97736 0.49976 0.0
C98 C 1.00377 0.07367 0.59598 0.0
N99 N 0.0735 0.01581 0.61303 0.0
C100 C 0.08895 0.99114 0.62814 0.0
C101 C 0.09538 0.04491 0.61399 0.0
N102 N 0.11966 0.00376 0.63842 0.0
C103 C 0.12363 0.03764 0.62956 0.0
C104 C 0.03782 0.03258 0.52487 0.0
O105 O 0.98065 0.05686 0.57895 0.0
O106 O 0.02816 0.05829 0.60452 0.0
O107 O 0.0543 0.02829 0.55122 0.0
O108 O 0.00662 0.0259 0.52594 0.0
O109 O 0.03735 0.96524 0.57873 0.0
H110 H 0.09159 0.06955 0.60285 0.0
H111 H 0.07812 0.96429 0.63082 0.0
O112 O 0.98935 0.9626 0.55389 0.0
O113 O 0.96333 0.9929 0.60694 0.0
O114 O 0.01127 0.99508 0.63217 0.0
C115 C 0.98002 0.98799 0.63309 0.0
H116 H 0.89424 0.9827 0.48251 0.0
H117 H 0.14599 0.05554 0.63246 0.0
Co118 Co 0.48787 0.02112 0.0425 0.0
C119 C 0.4764 0.96614 0.08779 0.0
Co120 Co 0.51402 0.03016 0.09079 0.0
C121 C 0.47634 0.01016 0.97164 0.0
C122 C 0.43146 0.00477 0.99954 0.0
N123 N 0.46438 0.01239 1.00295 0.0
N124 N 0.45225 1.00134 0.94891 0.0
C125 C 0.42392 0.99812 0.96634 0.0
H126 H 0.50229 0.01453 0.96563 0.0
H127 H 0.41407 1.00312 0.01997 0.0
C128 C 0.52649 0.08468 0.04533 0.0
N129 N 0.53817 0.03925 0.12998 0.0
C130 C 0.52822 0.04039 0.16218 0.0
C131 C 0.57107 0.04825 0.13123 0.0
N132 N 0.55374 0.04951 0.18335 0.0
C133 C 0.58069 0.0544 0.16386 0.0
C134 C 0.5496 0.99795 0.04122 0.0
O135 O 0.50628 0.06578 0.02654 0.0
O136 O 0.5327 0.07382 0.07427 0.0
O137 O 0.55011 0.00851 0.07152 0.0
O138 O 0.52415 1.00083 0.0237 0.0
O139 O 0.49517 0.98614 0.10707 0.0
H140 H 0.58706 0.05097 0.10965 0.0
H141 H 0.5028 0.03474 0.1699 0.0
O142 O 0.47011 0.97643 0.05858 0.0
O143 O 0.45163 0.0416 0.06177 0.0
O144 O 0.47777 0.05171 0.1094 0.0
C145 C 0.45214 0.05347 0.09162 0.0
H146 H 0.39965 0.99013 0.95602 0.0
H147 H 0.60551 0.06288 0.17249 0.0
Co148 Co 0.56792 0.56184 0.53749 0.0
C149 C 0.51763 0.56168 0.48976 0.0
Co150 Co 0.51914 0.53749 0.55415 0.0
C151 C 0.63881 0.57943 0.52933 0.0
C152 C 0.61028 0.61363 0.5033 0.0
N153 N 0.60748 0.58488 0.52251 0.0
N154 N 0.66096 0.60385 0.51524 0.0
C155 C 0.64294 0.62519 0.49866 0.0
H156 H 0.64516 0.55863 0.54517 0.0
H157 H 0.58982 0.62595 0.49379 0.0
C158 C 0.56944 0.53818 0.60205 0.0
N159 N 0.47918 0.51552 0.56898 0.0
C160 C 0.44899 0.52484 0.56303 0.0
C161 C 0.47385 0.4868 0.58813 0.0
N162 N 0.425 0.50317 0.57776 0.0
C163 C 0.44055 0.47922 0.59368 0.0
C164 C 0.55776 0.49138 0.52352 0.0
O165 O 0.58748 0.55234 0.57889 0.0
O166 O 0.53878 0.53007 0.59657 0.0
O167 O 0.53067 0.49415 0.53828 0.0
O168 O 0.57843 0.51852 0.51979 0.0
O169 O 0.49994 0.54517 0.51187 0.0
H170 H 0.49295 0.47229 0.59739 0.0
H171 H 0.44475 0.54746 0.54855 0.0
O172 O 0.54782 0.57121 0.49608 0.0
O173 O 0.55721 0.6048 0.5554 0.0
O174 O 0.50779 0.58111 0.56965 0.0
C175 C 0.52921 0.60775 0.56796 0.0
H176 H 0.65258 0.64766 0.48414 0.0
H177 H 0.42869 0.45751 0.60791 0.0
Co178 Co 0.02563 0.48366 0.99368 0.0
C179 C 0.9614 0.46302 0.01946 0.0
Co180 Co 0.01616 0.49935 0.04566 0.0
C181 C 0.0379 0.48483 0.92135 0.0
C182 C 0.01687 0.43517 0.93992 0.0
N183 N 0.02812 0.46803 0.94983 0.0
N184 N 0.03261 0.46365 0.89421 0.0
C185 C 0.01945 0.43246 0.90585 0.0
H186 H 0.04759 0.5122 0.92038 0.0
H187 H 0.00665 0.4146 0.95643 0.0
C188 C 0.07977 0.52154 0.01949 0.0
N189 N 0.01458 0.51256 0.0905 0.0
C190 C 0.99435 0.53063 0.10879 0.0
C191 C 0.03723 0.50405 0.11265 0.0
N192 N 1.00338 0.53258 0.14142 0.0
C193 C 0.0303 0.51599 0.14374 0.0
C194 C 0.0422 0.43501 0.03977 0.0
O195 O 0.06938 0.50691 0.99218 0.0
O196 O 0.06065 0.52026 0.04458 0.0
O197 O 0.03018 0.45593 0.05962 0.0
O198 O 0.04275 0.4419 0.00874 0.0
O199 O 0.97158 0.47898 0.0462 0.0
H200 H 0.05799 0.49031 0.10655 0.0
H201 H 0.97358 0.54192 0.09853 0.0
O202 O 0.98141 0.46104 0.99541 0.0
O203 O 0.00894 0.52571 0.9791 0.0
O204 O 1.00188 0.54226 0.03113 0.0
C205 C 0.9999 0.54804 0.99984 0.0
H206 H 0.01211 0.40939 0.89069 0.0
H207 H 0.04449 0.51358 0.16633 0.0
C208 C 0.13196 0.05384 0.34971 0.0
C209 C 0.13904 0.08844 0.3387 0.0
C210 C 0.11505 0.04588 0.37983 0.0
C211 C 0.10486 0.07312 0.39981 0.0
C212 C 0.11167 0.10811 0.3888 0.0
C213 C 0.1286 0.11535 0.35841 0.0
C214 C 0.10829 0.0082 0.39039 0.0
C215 C 0.10132 0.13796 0.40929 0.0
C216 C 0.0368 0.04716 0.46353 0.0
C217 C 0.0548 0.04448 0.49319 0.0
C218 C 0.05265 0.05715 0.43321 0.0
C219 C 0.08743 0.06477 0.43233 0.0
C220 C 0.10567 0.06272 0.46231 0.0
C221 C 0.08921 0.0526 0.49226 0.0
C222 C 0.03217 0.05886 0.40194 0.0
C223 C 0.14273 0.07061 0.46265 0.0
H224 H 0.13977 0.03275 0.33479 0.0
H225 H 0.13391 0.14216 0.35027 0.0
H226 H 0.12032 0.00469 0.41483 0.0
H227 H 0.08144 1.00086 0.39379 0.0
H228 H 0.11735 0.98999 0.37184 0.0
H229 H 0.108 0.16363 0.39716 0.0
H230 H 0.0743 0.13401 0.41328 0.0
H231 H 0.11318 0.13867 0.43433 0.0
H232 H 0.01024 0.041 0.46385 0.0
H233 H 0.10343 0.05075 0.51495 0.0
H234 H 0.03877 0.03937 0.38333 0.0
H235 H 0.03744 0.08498 0.39039 0.0
H236 H 0.00534 0.05369 0.407 0.0
H237 H 0.15361 0.05158 0.44638 0.0
H238 H 0.15323 0.06943 0.48822 0.0
H239 H 0.15028 0.09698 0.45238 0.0
C240 C 0.48151 0.97485 0.75313 0.0
C241 C 0.46528 0.94242 0.74274 0.0
C242 C 0.48043 0.98585 0.78666 0.0
C243 C 0.46325 0.96355 0.81038 0.0
C244 C 0.44745 0.93043 0.8001 0.0
C245 C 0.44852 0.92034 0.76633 0.0
C246 C 0.49721 0.02152 0.79659 0.0
C247 C 0.4294 0.90565 0.82478 0.0
C248 C 0.48306 0.97765 0.9028 0.0
C249 C 0.45602 0.99366 0.91392 0.0
C250 C 0.48593 0.96799 0.86908 0.0
C251 C 0.46138 0.97495 0.84591 0.0
C252 C 0.43447 0.99193 0.85686 0.0
C253 C 0.432 1.00085 0.8908 0.0
C254 C 0.51476 0.94951 0.85846 0.0
C255 C 0.40807 1.00029 0.8328 0.0
H256 H 0.49449 0.99195 0.73486 0.0
H257 H 0.43671 0.89488 0.7585 0.0
H258 H 0.47887 0.03752 0.80717 0.0
H259 H 0.5158 0.01907 0.8164 0.0
H260 H 0.50961 0.03565 0.77512 0.0
H261 H 0.41914 0.88049 0.81289 0.0
H262 H 0.4463 0.90015 0.84529 0.0
H263 H 0.4089 0.91785 0.8363 0.0
H264 H 0.50143 0.97165 0.9207 0.0
H265 H 0.41129 0.01356 0.89933 0.0
H266 H 0.52835 0.96389 0.83786 0.0
H267 H 0.50571 0.92303 0.84874 0.0
H268 H 0.5322 0.94693 0.87939 0.0
H269 H 0.41937 0.01592 0.8117 0.0
H270 H 0.38961 0.01504 0.84504 0.0
H271 H 0.39512 0.97576 0.82201 0.0
C272 C 0.64088 0.53531 0.78813 0.0
C273 C 0.6482 0.50207 0.79726 0.0
C274 C 0.62946 0.54155 0.75583 0.0
C275 C 0.62549 0.51396 0.73197 0.0
C276 C 0.63385 0.48064 0.74069 0.0
C277 C 0.64497 0.47505 0.77326 0.0
C278 C 0.62068 0.57741 0.74756 0.0
C279 C 0.63029 0.45066 0.71584 0.0
C280 C 0.56351 0.51928 0.66174 0.0
C281 C 0.58388 0.53148 0.63509 0.0
C282 C 0.57677 0.5134 0.69333 0.0
C283 C 0.61127 0.51961 0.69838 0.0
C284 C 0.63201 0.53158 0.67151 0.0
C285 C 0.61807 0.53749 0.64023 0.0
C286 C 0.55379 0.50081 0.72139 0.0
C287 C 0.66893 0.53824 0.67584 0.0
H288 H 0.64324 0.55633 0.8065 0.0
H289 H 0.65067 0.44932 0.78005 0.0
H290 H 0.63421 0.58756 0.72498 0.0
H291 H 0.59399 0.57577 0.74175 0.0
H292 H 0.62641 0.5964 0.76845 0.0
H293 H 0.63967 0.42698 0.72588 0.0
H294 H 0.60397 0.44389 0.70901 0.0
H295 H 0.6438 0.45837 0.69251 0.0
H296 H 0.53708 0.51459 0.65803 0.0
H297 H 0.63402 0.5468 0.61976 0.0
H298 H 0.55656 0.5199 0.74247 0.0
H299 H 0.56025 0.47565 0.73105 0.0
H300 H 0.52758 0.49712 0.71334 0.0
H301 H 0.67527 0.55867 0.69531 0.0
H302 H 0.68168 0.54679 0.65227 0.0
H303 H 0.67852 0.51417 0.68453 0.0
C304 C 0.04683 0.62591 0.2988 0.0
C305 C 0.0245 0.63196 0.32409 0.0
C306 C 0.03581 0.61385 0.26707 0.0
C307 C 1.00155 0.60841 0.26013 0.0
C308 C 0.97898 0.61715 0.2847 0.0
C309 C 0.9907 0.62837 0.31662 0.0
C310 C 0.06085 0.60461 0.24176 0.0
C311 C 0.9424 0.61294 0.27801 0.0
C312 C 0.99002 0.58673 0.16812 0.0
C313 C 0.99033 0.55051 0.169 0.0
C314 C 0.98961 0.60622 0.19806 0.0
C315 C 0.99 0.58886 0.22915 0.0
C316 C 0.98606 0.5519 0.22975 0.0
C317 C 0.98611 0.53322 0.19958 0.0
C318 C 0.99225 0.64549 0.19638 0.0
C319 C 0.98611 0.53212 0.26218 0.0
H320 H 0.07299 0.62878 0.30431 0.0
H321 H 0.97329 0.63347 0.33593 0.0
H322 H 0.05725 0.57604 0.23675 0.0
H323 H 0.0575 0.61787 0.21773 0.0
H324 H 0.08658 0.61203 0.25049 0.0
H325 H 0.92953 0.62958 0.29517 0.0
H326 H 0.93701 0.61963 0.25178 0.0
H327 H 0.93211 0.58535 0.28201 0.0
H328 H 0.99333 0.60004 0.14438 0.0
H329 H 0.98619 0.50513 0.19998 0.0
H330 H 0.01838 0.65665 0.1996 0.0
H331 H 0.97785 0.65618 0.21671 0.0
H332 H 0.98347 0.65419 0.17188 0.0
H333 H 0.01119 0.53607 0.2733 0.0
H334 H 0.97888 0.50364 0.25845 0.0
H335 H 0.96905 0.54201 0.28047 0.0
C336 C 0.29811 0.15303 0.15036 0.0
C337 C 0.27796 0.13241 0.17282 0.0
C338 C 0.32703 0.14163 0.13716 0.0
C339 C 0.3359 0.10847 0.14605 0.0
C340 C 0.31543 0.08739 0.16837 0.0
C341 C 0.28704 0.09968 0.18163 0.0
C342 C 0.34827 0.16521 0.11386 0.0
C343 C 0.32341 0.05164 0.17814 0.0
C344 C 0.39257 0.06356 0.08814 0.0
C345 C 0.42279 0.06838 0.1054 0.0
C346 C 0.36433 0.07655 0.10095 0.0
C347 C 0.36618 0.09544 0.13165 0.0
C348 C 0.39675 0.10088 0.14896 0.0
C349 C 0.42453 0.08709 0.13582 0.0
C350 C 0.33229 0.0695 0.08184 0.0
C351 C 0.40009 0.12121 0.1815 0.0
H352 H 0.29158 0.17843 0.1435 0.0
H353 H 0.2717 0.08335 0.19879 0.0
H354 H 0.37364 0.17049 0.12411 0.0
H355 H 0.35001 0.15211 0.08921 0.0
H356 H 0.33851 0.19052 0.10997 0.0
H357 H 0.30484 0.03824 0.19541 0.0
H358 H 0.32471 0.03507 0.15543 0.0
H359 H 0.3479 0.05384 0.19047 0.0
H360 H 0.39077 0.04905 0.06471 0.0
H361 H 0.4477 0.09112 0.14935 0.0
H362 H 0.32294 0.09448 0.07564 0.0
H363 H 0.31343 0.05443 0.09763 0.0
H364 H 0.3349 0.05461 0.05826 0.0
H365 H 0.39221 0.14747 0.17799 0.0
H366 H 0.42574 0.1244 0.19125 0.0
H367 H 0.38371 0.1077 0.20063 0.0
C368 C 0.27148 0.90993 0.70641 0.0
C369 C 0.29498 0.91562 0.68089 0.0
C370 C 0.23963 0.91949 0.70233 0.0
C371 C 0.23141 0.93561 0.67229 0.0
C372 C 0.25466 0.9402 0.64604 0.0
C373 C 0.28603 0.92992 0.65058 0.0
C374 C 0.21523 0.9135 0.73057 0.0
C375 C 0.247 0.95755 0.61368 0.0
C376 C 0.14528 0.94916 0.64414 0.0
C377 C 0.14492 0.98472 0.65176 0.0
C378 C 0.17241 0.93192 0.65279 0.0
C379 C 0.19987 0.95083 0.66907 0.0
C380 C 0.19868 0.98605 0.67872 0.0
C381 C 0.17113 1.00242 0.67019 0.0
C382 C 0.17248 0.89413 0.64269 0.0
C383 C 0.22744 0.00722 0.69607 0.0
H384 H 0.27813 0.89858 0.7298 0.0
H385 H 0.30396 0.93431 0.63067 0.0
H386 H 0.21142 0.93891 0.74222 0.0
H387 H 0.19099 0.90137 0.72095 0.0
H388 H 0.22377 0.89651 0.75025 0.0
H389 H 0.26719 0.95756 0.59513 0.0
H390 H 0.22406 0.94408 0.60236 0.0
H391 H 0.24286 0.98501 0.6188 0.0
H392 H 0.12521 0.9352 0.6299 0.0
H393 H 0.17063 0.0296 0.67697 0.0
H394 H 0.18177 0.87908 0.66344 0.0
H395 H 0.18922 0.89239 0.6211 0.0
H396 H 0.14753 0.88169 0.63534 0.0
H397 H 0.23522 0.99318 0.71823 0.0
H398 H 0.22155 0.03335 0.70428 0.0
H399 H 0.24872 0.01093 0.67874 0.0
C400 C 0.7681 0.42169 0.97126 0.0
C401 C 0.76297 0.44881 0.9494 0.0
C402 C 0.79921 0.4196 0.98573 0.0
C403 C 0.82581 0.4454 0.97837 0.0
C404 C 0.8208 0.47288 0.95644 0.0
C405 C 0.78958 0.4742 0.94223 0.0
C406 C 0.80361 0.38987 0.00895 0.0
C407 C 0.84847 0.50102 0.94792 0.0
C408 C 0.902 0.46583 0.03305 0.0
C409 C 0.92584 0.45188 0.01361 0.0
C410 C 0.86877 0.46207 0.023 0.0
C411 C 0.85919 0.44374 0.99295 0.0
C412 C 0.88272 0.42726 0.97473 0.0
C413 C 0.91574 0.4316 0.98523 0.0
C414 C 0.84445 0.47996 0.04321 0.0
C415 C 0.87355 0.40716 0.94278 0.0
H416 H 0.74789 0.40224 0.97749 0.0
H417 H 0.78605 0.49537 0.92548 0.0
H418 H 0.82314 0.37489 0.99928 0.0
H419 H 0.81173 0.40031 0.03397 0.0
H420 H 0.78057 0.3717 0.0119 0.0
H421 H 0.84041 0.5209 0.93081 0.0
H422 H 0.85847 0.51443 0.97112 0.0
H423 H 0.86889 0.48915 0.93585 0.0
H424 H 0.90957 0.48162 0.05495 0.0
H425 H 0.93396 0.42051 0.97017 0.0
H426 H 0.82135 0.4622 0.04694 0.0
H427 H 0.83802 0.50302 0.02937 0.0
H428 H 0.85456 0.48894 0.06807 0.0
H429 H 0.85083 0.38874 0.9463 0.0
H430 H 0.89352 0.39221 0.93401 0.0
H431 H 0.86844 0.42562 0.92286 0.0
C432 C 0.85708 0.63597 0.53723 0.0
C433 C 0.8709 0.63383 0.50528 0.0
C434 C 0.823 0.62804 0.54209 0.0
C435 C 0.80231 0.61824 0.51427 0.0
C436 C 0.81627 0.61498 0.48219 0.0
C437 C 0.85039 0.62262 0.47813 0.0
C438 C 0.80902 0.6313 0.57676 0.0
C439 C 0.795 0.60495 0.45182 0.0
C440 C 0.7131 0.57834 0.52316 0.0
C441 C 0.6964 0.60749 0.51776 0.0
C442 C 0.74771 0.58155 0.52341 0.0
C443 C 0.76591 0.61463 0.51787 0.0
C444 C 0.74919 0.64428 0.51355 0.0
C445 C 0.71473 0.64037 0.51379 0.0
C446 C 0.76475 0.54943 0.52851 0.0
C447 C 0.76767 0.68004 0.50756 0.0
H448 H 0.87282 0.6443 0.55839 0.0
H449 H 0.86086 0.6208 0.45337 0.0
H450 H 0.79441 0.6537 0.5777 0.0
H451 H 0.79214 0.60751 0.58293 0.0
H452 H 0.8286 0.63542 0.5962 0.0
H453 H 0.80983 0.60143 0.42906 0.0
H454 H 0.77867 0.58035 0.45641 0.0
H455 H 0.77896 0.62558 0.44689 0.0
H456 H 0.69918 0.55284 0.52618 0.0
H457 H 0.70212 0.66321 0.51055 0.0
H458 H 0.78405 0.55444 0.54811 0.0
H459 H 0.77716 0.54293 0.50502 0.0
H460 H 0.74728 0.52644 0.53584 0.0
H461 H 0.78565 0.68717 0.52803 0.0
H462 H 0.75098 0.70063 0.50587 0.0
H463 H 0.78179 0.67973 0.4839 0.0
C464 C 0.1125 0.26361 0.11397 0.0
C465 C 0.14289 0.27342 0.12998 0.0
C466 C 0.09559 0.28834 0.09754 0.0
C467 C 0.10944 0.32386 0.09666 0.0
C468 C 0.14057 0.33372 0.11192 0.0
C469 C 0.15676 0.30852 0.12849 0.0
C470 C 0.0624 0.27661 0.08194 0.0
C471 C 0.15651 0.37113 0.11136 0.0
C472 C 0.07759 0.38603 0.03333 0.0
C473 C 0.05743 0.4047 0.05333 0.0
C474 C 0.09438 0.35948 0.0469 0.0
C475 C 0.09074 0.351 0.08128 0.0
C476 C 0.06972 0.36915 0.10133 0.0
C477 C 0.05356 0.39577 0.08722 0.0
C478 C 0.11668 0.3411 0.02463 0.0
C479 C 0.06471 0.36087 0.13795 0.0
H480 H 0.10142 0.23665 0.11501 0.0
H481 H 0.18023 0.31648 0.14064 0.0
H482 H 0.04319 0.28969 0.09485 0.0
H483 H 0.06229 0.28435 0.05528 0.0
H484 H 0.0556 0.24789 0.08342 0.0
H485 H 0.18159 0.37425 0.12254 0.0
H486 H 0.15821 0.38069 0.08525 0.0
H487 H 0.14112 0.38799 0.12545 0.0
H488 H 0.08099 0.39279 0.00719 0.0
H489 H 0.03807 0.40991 0.10299 0.0
H490 H 0.10943 0.31245 0.02529 0.0
H491 H 0.14239 0.34613 0.034 0.0
H492 H 0.1161 0.34982 0.99825 0.0
H493 H 0.05615 0.33266 0.14101 0.0
H494 H 0.04649 0.37623 0.14979 0.0
H495 H 0.08844 0.3665 0.15157 0.0
C496 C 0.65474 0.23538 0.97042 0.0
C497 C 0.64695 0.26909 0.97756 0.0
C498 C 0.63372 0.20568 0.98012 0.0
C499 C 0.60402 0.20977 0.99703 0.0
C500 C 0.59565 0.24371 0.00361 0.0
C501 C 0.6173 0.27295 0.99399 0.0
C502 C 0.64369 0.16991 0.97299 0.0
C503 C 0.56407 0.24914 0.02131 0.0
C504 C 0.53882 0.13055 1.00134 0.0
C505 C 0.54455 0.11788 0.03334 0.0
C506 C 0.5576 0.16083 0.98931 0.0
C507 C 0.58279 0.1786 0.00968 0.0
C508 C 0.58828 0.16621 0.04217 0.0
C509 C 0.56905 0.13615 0.05362 0.0
C510 C 0.55084 0.1735 0.95465 0.0
C511 C 0.61499 0.18428 0.06463 0.0
H512 H 0.67757 0.23216 0.95772 0.0
H513 H 0.61093 0.2989 0.99934 0.0
H514 H 0.64705 0.15635 0.9969 0.0
H515 H 0.62397 0.15378 0.95876 0.0
H516 H 0.66694 0.17115 0.95851 0.0
H517 H 0.56018 0.27712 0.02266 0.0
H518 H 0.54273 0.23436 0.00823 0.0
H519 H 0.56449 0.23894 0.04715 0.0
H520 H 0.51996 0.11659 0.98552 0.0
H521 H 0.57375 0.12658 0.07837 0.0
H522 H 0.57281 0.17237 0.93864 0.0
H523 H 0.54602 0.20117 0.95578 0.0
H524 H 0.52944 0.15768 0.94255 0.0
H525 H 0.63934 0.18418 0.05247 0.0
H526 H 0.61578 0.17159 0.0894 0.0
H527 H 0.61111 0.21198 0.06865 0.0
C528 C 0.02074 0.74549 0.51613 0.0
C529 C 0.0345 0.74272 0.48426 0.0
C530 C 0.01713 0.77826 0.53031 0.0
C531 C 0.02789 0.80896 0.51231 0.0
C532 C 0.04227 0.80633 0.48034 0.0
C533 C 0.04545 0.77326 0.46674 0.0
C534 C 1.00188 0.78005 0.56456 0.0
C535 C 0.05411 0.83847 0.46039 0.0
C536 C 0.99205 0.89313 0.53161 0.0
C537 C 0.01738 0.91188 0.55047 0.0
C538 C 0.99489 0.85933 0.51962 0.0
C539 C 0.02379 0.84391 0.5266 0.0
C540 C 0.04922 0.86241 0.54614 0.0
C541 C 0.0457 0.89618 0.55786 0.0
C542 C 0.9672 0.84037 0.49898 0.0
C543 C 0.08043 0.84683 0.55409 0.0
H544 H 0.01344 0.72212 0.53035 0.0
H545 H 0.05626 0.77129 0.44216 0.0
H546 H 0.01953 0.79508 0.58198 0.0
H547 H 0.97976 0.79403 0.56319 0.0
H548 H 0.99456 0.75374 0.57517 0.0
H549 H 0.06516 0.83194 0.43611 0.0
H550 H 0.03326 0.85359 0.45537 0.0
H551 H 0.07275 0.85571 0.47499 0.0
H552 H 0.97003 0.905 0.52585 0.0
H553 H 0.06537 0.91045 0.57248 0.0
H554 H 0.95868 0.81469 0.51026 0.0
H555 H 0.97614 0.83522 0.47343 0.0
H556 H 0.94585 0.85547 0.49686 0.0
H557 H 0.07441 0.82108 0.56618 0.0
H558 H 0.09717 0.86395 0.57088 0.0
H559 H 0.09374 0.84234 0.53058 0.0
C560 C 0.51166 0.80854 0.58445 0.0
C561 C 0.49501 0.818 0.61305 0.0
C562 C 0.51553 0.77349 0.57788 0.0
C563 C 0.5036 0.74757 0.60119 0.0
C564 C 0.48717 0.75712 0.6304 0.0
C565 C 0.4825 0.79222 0.63565 0.0
C566 C 0.53223 0.7642 0.54591 0.0
C567 C 0.47518 0.73043 0.65638 0.0
C568 C 0.49098 0.65312 0.57117 0.0
C569 C 0.52146 0.64225 0.57906 0.0
C570 C 0.48464 0.68734 0.57847 0.0
C571 C 0.50897 0.71061 0.59515 0.0
C572 C 0.53919 0.69905 0.60459 0.0
C573 C 0.54535 0.66518 0.59578 0.0
C574 C 0.45258 0.69904 0.567 0.0
C575 C 0.56527 0.72264 0.62346 0.0
H576 H 0.52105 0.82851 0.56684 0.0
H577 H 0.46982 0.79968 0.6579 0.0
H578 H 0.5554 0.75328 0.55182 0.0
H579 H 0.51614 0.74377 0.53188 0.0
H580 H 0.53817 0.78713 0.52945 0.0
H581 H 0.46336 0.74224 0.67798 0.0
H582 H 0.45717 0.70978 0.64508 0.0
H583 H 0.49616 0.7175 0.66576 0.0
H584 H 0.4727 0.63536 0.55789 0.0
H585 H 0.56886 0.65654 0.602 0.0
H586 H 0.45766 0.72044 0.54867 0.0
H587 H 0.43959 0.70958 0.58843 0.0
H588 H 0.43593 0.67748 0.5551 0.0
H589 H 0.57544 0.74448 0.60724 0.0
H590 H 0.58588 0.70853 0.63188 0.0
H591 H 0.55434 0.73425 0.64568 0.0
C592 C 0.90353 0.87661 0.79033 0.0
C593 C 0.88424 0.89587 0.81077 0.0
C594 C 0.91907 0.89125 0.76136 0.0
C595 C 0.91588 0.92628 0.75276 0.0
C596 C 0.8968 0.94597 0.77351 0.0
C597 C 0.88104 0.9305 0.80196 0.0
C598 C 0.93869 0.86907 0.73974 0.0
C599 C 0.89312 0.98353 0.76576 0.0
C600 C 0.9803 0.97398 0.69458 0.0
C601 C 0.9634 0.97296 0.66388 0.0
C602 C 0.96511 0.95922 0.72364 0.0
C603 C 0.93234 0.94234 0.72203 0.0
C604 C 0.91522 0.94108 0.69106 0.0
C605 C 0.93079 0.95662 0.66253 0.0
C606 C 0.98415 0.96181 0.75616 0.0
C607 C 0.88048 0.92296 0.68794 0.0
H608 H 0.9061 0.84983 0.79669 0.0
H609 H 0.86644 0.9458 0.81757 0.0
H610 H 0.92855 0.86741 0.71391 0.0
H611 H 0.9646 0.88132 0.73813 0.0
H612 H 0.93847 0.84218 0.7495 0.0
H613 H 0.87814 0.9956 0.78477 0.0
H614 H 0.91774 0.9991 0.7645 0.0
H615 H 0.88127 0.98516 0.74092 0.0
H616 H 0.00544 0.98658 0.69599 0.0
H617 H 0.91754 0.95541 0.63895 0.0
H618 H 0.98664 0.93529 0.76554 0.0
H619 H 0.97055 0.97517 0.77542 0.0
H620 H 0.00915 0.97635 0.75347 0.0
H621 H 0.87967 0.8953 0.69563 0.0
H622 H 0.87074 0.92362 0.66201 0.0
H623 H 0.86394 0.93551 0.70495 0.0
C624 C 0.57674 0.11472 0.37159 0.0
C625 C 0.56651 0.08836 0.39453 0.0
C626 C 0.57137 0.10937 0.33706 0.0
C627 C 0.55573 0.07676 0.32519 0.0
C628 C 0.54438 0.05049 0.34832 0.0
C629 C 0.54994 0.0566 0.38265 0.0
C630 C 0.58387 0.13804 0.31319 0.0
C631 C 0.52769 0.01533 0.33673 0.0
C632 C 0.52634 0.06786 0.23457 0.0
C633 C 0.55301 0.0546 0.21911 0.0
C634 C 0.52673 0.0752 0.26914 0.0
C635 C 0.55431 0.06881 0.28863 0.0
C636 C 0.58092 0.05468 0.2732 0.0
C637 C 0.57994 0.04783 0.23869 0.0
C638 C 0.49797 0.09039 0.2847 0.0
C639 C 0.61063 0.04704 0.29309 0.0
H640 H 0.59033 0.13891 0.38033 0.0
H641 H 0.54187 0.03611 0.40022 0.0
H642 H 0.6049 0.13006 0.29875 0.0
H643 H 0.56438 0.14253 0.29495 0.0
H644 H 0.5922 0.16303 0.32643 0.0
H645 H 0.51772 0.9989 0.35791 0.0
H646 H 0.50726 0.01863 0.3192 0.0
H647 H 0.5456 1.00118 0.32295 0.0
H648 H 0.50563 0.07346 0.21946 0.0
H649 H 0.60036 0.03708 0.22693 0.0
H650 H 0.50644 0.11653 0.29557 0.0
H651 H 0.48763 0.07364 0.30547 0.0
H652 H 0.47807 0.09304 0.26628 0.0
H653 H 0.62272 0.07143 0.30494 0.0
H654 H 0.62904 0.03563 0.27734 0.0
H655 H 0.60288 0.02856 0.31349 0.0
C656 C 0.42812 0.64167 0.33596 0.0
C657 C 0.43374 0.62505 0.3055 0.0
C658 C 0.44145 0.63096 0.36602 0.0
C659 C 0.46042 0.60261 0.36567 0.0
C660 C 0.46591 0.58551 0.33505 0.0
C661 C 0.45272 0.59712 0.30529 0.0
C662 C 0.4355 0.65022 0.3981 0.0
C663 C 0.48566 0.55491 0.33374 0.0
C664 C 0.52099 0.59558 0.43669 0.0
C665 C 0.50318 0.57114 0.4576 0.0
C666 C 0.50732 0.60608 0.40678 0.0
C667 C 0.47522 0.59141 0.39724 0.0
C668 C 0.45725 0.56635 0.41799 0.0
C669 C 0.47136 0.55669 0.44807 0.0
C670 C 0.52709 0.63324 0.3856 0.0
C671 C 0.4231 0.54982 0.40845 0.0
H672 H 0.41355 0.66333 0.33629 0.0
H673 H 0.45697 0.58399 0.28188 0.0
H674 H 0.42297 0.63186 0.41653 0.0
H675 H 0.45938 0.66135 0.40932 0.0
H676 H 0.42022 0.67175 0.39411 0.0
H677 H 0.48682 0.54377 0.30808 0.0
H678 H 0.51115 0.56316 0.34264 0.0
H679 H 0.47468 0.53405 0.35068 0.0
H680 H 0.54551 0.60706 0.44397 0.0
H681 H 0.45747 0.53776 0.46409 0.0
H682 H 0.51347 0.6562 0.38262 0.0
H683 H 0.53068 0.62248 0.36021 0.0
H684 H 0.55165 0.64222 0.39665 0.0
H685 H 0.40632 0.57023 0.40637 0.0
H686 H 0.4127 0.53019 0.42694 0.0
H687 H 0.42367 0.53688 0.38357 0.0
C688 C 0.06195 0.51296 0.7016 0.0
C689 C 0.07497 0.48514 0.68571 0.0
C690 C 0.05438 0.51184 0.73584 0.0
C691 C 0.06073 0.48254 0.75475 0.0
C692 C 0.07421 0.45452 0.73885 0.0
C693 C 0.08096 0.45607 0.70443 0.0
C694 C 0.0394 0.54186 0.75173 0.0
C695 C 0.08182 0.42308 0.75829 0.0
C696 C 0.0685 0.4901 0.84954 0.0
C697 C 0.03852 0.47191 0.85962 0.0
C698 C 0.07597 0.49432 0.81538 0.0
C699 C 0.05252 0.48064 0.79098 0.0
C700 C 0.02158 0.46375 0.80123 0.0
C701 C 0.01511 0.45929 0.83543 0.0
C702 C 0.10941 0.51206 0.80541 0.0
C703 C 0.99561 0.44954 0.77607 0.0
H704 H 0.05742 0.53553 0.68712 0.0
H705 H 0.09193 0.43502 0.69241 0.0
H706 H 0.01522 0.5322 0.7629 0.0
H707 H 0.05544 0.5536 0.77232 0.0
H708 H 0.03575 0.56259 0.73347 0.0
H709 H 0.09308 0.40397 0.74238 0.0
H710 H 0.09895 0.43149 0.7792 0.0
H711 H 0.05893 0.40971 0.76945 0.0
H712 H 0.08661 0.49955 0.86837 0.0
H713 H 0.99179 0.44554 0.8434 0.0
H714 H 0.10674 0.53377 0.78801 0.0
H715 H 0.12313 0.49313 0.79194 0.0
H716 H 0.12426 0.5226 0.82736 0.0
H717 H 0.99094 0.47019 0.75815 0.0
H718 H 0.97199 0.43946 0.7882 0.0
H719 H 1.00445 0.42798 0.7614 0.0
C720 C 0.7156 0.97063 0.94534 0.0
C721 C 0.72381 0.93628 0.94454 0.0
C722 C 0.68722 0.97912 0.96184 0.0
C723 C 0.66612 0.95268 0.9781 0.0
C724 C 0.67427 0.91794 0.97759 0.0
C725 C 0.70297 0.91017 0.9609 0.0
C726 C 0.67971 0.0165 0.9617 0.0
C727 C 0.65251 0.88892 0.9945 0.0
C728 C 0.60816 0.98368 0.04411 0.0
C729 C 0.57875 0.98401 0.02594 0.0
C730 C 0.63642 0.97267 0.02918 0.0
C731 C 0.63546 0.9616 0.99519 0.0
C732 C 0.60561 0.96107 0.97699 0.0
C733 C 0.57776 0.97227 0.99249 0.0
C734 C 0.66764 0.97381 0.04958 0.0
C735 C 0.60327 0.94949 0.94077 0.0
H736 H 0.73139 0.99114 0.93291 0.0
H737 H 0.70893 0.88355 0.96048 0.0
H738 H 0.65555 0.01796 0.94947 0.0
H739 H 0.67791 0.02627 0.98775 0.0
H740 H 0.69877 0.03412 0.94836 0.0
H741 H 0.66236 0.86341 0.99228 0.0
H742 H 0.6499 0.89529 0.02142 0.0
H743 H 0.62749 0.8863 0.98327 0.0
H744 H 0.60933 0.99269 0.06991 0.0
H745 H 0.55525 0.97231 0.97813 0.0
H746 H 0.68697 0.99309 0.03873 0.0
H747 H 0.67698 0.948 0.04875 0.0
H748 H 0.66394 0.98112 0.07615 0.0
H749 H 0.61994 0.96773 0.9254 0.0
H750 H 0.57785 0.94859 0.93066 0.0
H751 H 0.61139 0.92321 0.93793 0.0
C752 C 0.70041 0.02052 0.52622 0.0
C753 C 0.69219 0.05461 0.52311 0.0
C754 C 0.73335 0.01421 0.52927 0.0
C755 C 0.7587 0.04269 0.52939 0.0
C756 C 0.75054 0.07722 0.52718 0.0
C757 C 0.71738 0.08277 0.52398 0.0
C758 C 0.74107 0.97699 0.53141 0.0
C759 C 0.77688 0.10826 0.52741 0.0
C760 C 0.84346 0.02576 0.55996 0.0
C761 C 0.85955 0.0205 0.52968 0.0
C762 C 0.81079 0.0336 0.56032 0.0
C763 C 0.7938 0.03611 0.52969 0.0
C764 C 0.81008 0.03142 0.49908 0.0
C765 C 0.84272 0.02383 0.49946 0.0
C766 C 0.79426 0.03859 0.59346 0.0
C767 C 0.79287 0.03396 0.46585 0.0
H768 H 0.68112 0.99861 0.52564 0.0
H769 H 0.71125 0.10921 0.52176 0.0
H770 H 0.75547 0.97061 0.50916 0.0
H771 H 0.75646 0.9738 0.5538 0.0
H772 H 0.71848 0.9579 0.5327 0.0
H773 H 0.76637 0.13349 0.52768 0.0
H774 H 0.79309 0.1074 0.5496 0.0
H775 H 0.79259 0.10732 0.5049 0.0
H776 H 0.85612 0.02297 0.58342 0.0
H777 H 0.8551 0.02059 0.47593 0.0
H778 H 0.77302 0.01808 0.59653 0.0
H779 H 0.78448 0.06418 0.59414 0.0
H780 H 0.81131 0.03737 0.61498 0.0
H781 H 0.77098 0.01396 0.46431 0.0
H782 H 0.80917 0.03012 0.44428 0.0
H783 H 0.78399 0.05989 0.4636 0.0
C784 C 0.23999 0.65685 0.05073 0.0
C785 C 0.26773 0.64004 0.05777 0.0
C786 C 0.21044 0.63781 0.03958 0.0
C787 C 0.20851 0.60107 0.03563 0.0
C788 C 0.23697 0.58428 0.04077 0.0
C789 C 0.26625 0.60397 0.05166 0.0
C790 C 0.18073 0.65675 0.034 0.0
C791 C 0.23596 0.54518 0.03698 0.0
C792 C 0.12589 0.54969 0.05483 0.0
C793 C 0.11338 0.54048 0.02281 0.0
C794 C 0.15686 0.56904 0.05915 0.0
C795 C 0.1759 0.57982 0.03075 0.0
C796 C 0.16368 0.57034 0.99829 0.0
C797 C 0.13254 0.55058 0.99468 0.0
C798 C 0.16906 0.57819 0.09425 0.0
C799 C 0.18323 0.58156 0.96745 0.0
H800 H 0.24098 0.68474 0.05505 0.0
H801 H 0.28759 0.59073 0.05679 0.0
H802 H 0.1684 0.64827 0.01002 0.0
H803 H 0.16265 0.65023 0.05432 0.0
H804 H 0.1873 0.68555 0.03369 0.0
H805 H 0.26094 0.5367 0.03779 0.0
H806 H 0.22114 0.53214 0.05754 0.0
H807 H 0.22391 0.53603 0.01306 0.0
H808 H 0.11137 0.5418 0.07674 0.0
H809 H 0.12295 0.54367 0.96988 0.0
H810 H 0.17315 0.60699 0.09758 0.0
H811 H 0.19303 0.56821 0.09849 0.0
H812 H 0.15148 0.5672 0.11367 0.0
H813 H 0.18727 0.6105 0.96637 0.0
H814 H 0.17066 0.57137 0.94406 0.0
H815 H 0.20785 0.57233 0.9686 0.0
C816 C 0.23981 0.54553 0.58501 0.0
C817 C 0.2174 0.51693 0.57479 0.0
C818 C 0.27385 0.54359 0.58503 0.0
C819 C 0.28579 0.51243 0.5742 0.0
C820 C 0.26334 0.48366 0.56332 0.0
C821 C 0.22939 0.48618 0.56393 0.0
C822 C 0.29702 0.57471 0.5971 0.0
C823 C 0.27517 0.45014 0.55125 0.0
C824 C 0.37559 0.51804 0.54829 0.0
C825 C 0.3901 0.50527 0.57674 0.0
C826 C 0.34161 0.52021 0.54696 0.0
C827 C 0.32175 0.50972 0.57491 0.0
C828 C 0.33629 0.49689 0.60374 0.0
C829 C 0.37026 0.49464 0.60422 0.0
C830 C 0.32696 0.53362 0.51561 0.0
C831 C 0.316 0.48584 0.6342 0.0
H832 H 0.23074 0.56934 0.59353 0.0
H833 H 0.21223 0.46402 0.55586 0.0
H834 H 0.31131 0.56729 0.61897 0.0
H835 H 0.31496 0.58334 0.57719 0.0
H836 H 0.28381 0.59711 0.60443 0.0
H837 H 0.25462 0.43062 0.54256 0.0
H838 H 0.29283 0.45559 0.53038 0.0
H839 H 0.28844 0.43849 0.57173 0.0
H840 H 0.39079 0.52583 0.52684 0.0
H841 H 0.38146 0.48516 0.62638 0.0
H842 H 0.31512 0.55731 0.52157 0.0
H843 H 0.30751 0.5137 0.50548 0.0
H844 H 0.34571 0.54018 0.49587 0.0
H845 H 0.30385 0.50811 0.64383 0.0
H846 H 0.33108 0.4765 0.65462 0.0
H847 H 0.29624 0.46463 0.62737 0.0
C848 C 0.89496 0.69372 0.92652 0.0
C849 C 0.91151 0.72777 0.92905 0.0
C850 C 0.90964 0.66462 0.93763 0.0
C851 C 0.94197 0.66942 0.95118 0.0
C852 C 0.95906 0.70365 0.95315 0.0
C853 C 0.94358 0.73235 0.94236 0.0
C854 C 0.89027 0.62876 0.93542 0.0
C855 C 0.9937 0.71003 0.96688 0.0
C856 C 0.96864 0.59965 0.00933 0.0
C857 C 0.98608 0.57976 0.98762 0.0
C858 C 0.95421 0.62873 0.99784 0.0
C859 C 0.95761 0.63872 0.96383 0.0
C860 C 0.97565 0.61908 0.94192 0.0
C861 C 0.98939 0.58977 0.95396 0.0
C862 C 0.93485 0.64847 0.02204 0.0
C863 C 0.98039 0.62898 0.90564 0.0
H864 H 0.87014 0.68981 0.91649 0.0
H865 H 0.95667 0.75846 0.94438 0.0
H866 H 0.90386 0.61107 0.9202 0.0
H867 H 0.88724 0.61739 0.96079 0.0
H868 H 0.86549 0.62931 0.92416 0.0
H869 H 1.00416 0.73793 0.9655 0.0
H870 H 0.99395 0.70179 0.99339 0.0
H871 H 0.00993 0.69408 0.95278 0.0
H872 H 0.9657 0.59209 0.03531 0.0
H873 H 1.00286 0.57472 0.93695 0.0
H874 H 0.90911 0.64786 0.01301 0.0
H875 H 0.9456 0.67627 0.02343 0.0
H876 H 0.93442 0.63744 0.04764 0.0
H877 H 0.95614 0.62737 0.89288 0.0
H878 H 0.99594 0.61181 0.89208 0.0
H879 H 0.99205 0.65641 0.90382 0.0
C880 C 0.44124 0.77029 0.15143 0.0
C881 C 0.40764 0.75807 0.15363 0.0
C882 C 0.45187 0.80382 0.13937 0.0
C883 C 0.42828 0.82609 0.13031 0.0
C884 C 0.39427 0.81383 0.13245 0.0
C885 C 0.38435 0.77975 0.14369 0.0
C886 C 0.48835 0.81551 0.13658 0.0
C887 C 0.36837 0.83706 0.12387 0.0
C888 C 0.4584 0.92337 0.13274 0.0
C889 C 0.46292 0.93074 0.09868 0.0
C890 C 0.4462 0.88963 0.14331 0.0
C891 C 0.43931 0.86243 0.11929 0.0
C892 C 0.4439 0.86977 0.08485 0.0
C893 C 0.45521 0.90396 0.07494 0.0
C894 C 0.44084 0.88307 0.18019 0.0
C895 C 0.43769 0.84135 0.05854 0.0
H896 H 0.45927 0.75349 0.15906 0.0
H897 H 0.35835 0.77057 0.14599 0.0
H898 H 0.49441 0.82469 0.11084 0.0
H899 H 0.49547 0.83783 0.15387 0.0
H900 H 0.50342 0.7943 0.14262 0.0
H901 H 0.34298 0.82347 0.1265 0.0
H902 H 0.37112 0.86044 0.14052 0.0
H903 H 0.37167 0.84645 0.09781 0.0
H904 H 0.46412 0.94409 0.15113 0.0
H905 H 0.45893 0.90951 0.04858 0.0
H906 H 0.45753 0.86449 0.18913 0.0
H907 H 0.41523 0.87092 0.1846 0.0
H908 H 0.4454 0.90745 0.19542 0.0
H909 H 0.45387 0.82079 0.06319 0.0
H910 H 0.4423 0.85141 0.03281 0.0
H911 H 0.41188 0.82876 0.05998 0.0
C912 C 0.01576 0.27918 0.64208 0.0
C913 C 0.03098 0.29716 0.6148 0.0
C914 C 0.0072 0.24274 0.6408 0.0
C915 C 0.0144 0.22383 0.61172 0.0
C916 C 0.02894 0.24198 0.58381 0.0
C917 C 0.03688 0.27838 0.58563 0.0
C918 C 0.99134 0.22436 0.6709 0.0
C919 C 0.03733 0.22281 0.55244 0.0
C920 C 0.03239 0.13004 0.61821 0.0
C921 C 1.00427 0.11149 0.60346 0.0
C922 C 0.03543 0.16644 0.62204 0.0
C923 C 0.00954 0.1849 0.61129 0.0
C924 C 0.98036 0.16624 0.59791 0.0
C925 C 0.97814 0.12972 0.59394 0.0
C926 C 0.06709 0.18527 0.63618 0.0
C927 C 0.95201 0.18497 0.58667 0.0
H928 H 0.01086 0.2935 0.66462 0.0
H929 H 0.04855 0.292 0.56438 0.0
H930 H 0.96902 0.20677 0.66325 0.0
H931 H 0.00866 0.20788 0.68238 0.0
H932 H 0.98433 0.24302 0.69018 0.0
H933 H 0.04697 0.2409 0.53232 0.0
H934 H 0.05619 0.20536 0.55827 0.0
H935 H 0.01525 0.20611 0.54283 0.0
H936 H 0.05272 0.11627 0.62576 0.0
H937 H 0.95626 0.1156 0.58267 0.0
H938 H 0.06179 0.20241 0.65743 0.0
H939 H 0.07979 0.20223 0.61672 0.0
H940 H 0.08416 0.16695 0.64498 0.0
H941 H 0.94557 0.20328 0.6065 0.0
H942 H 0.92977 0.16654 0.58037 0.0
H943 H 0.95932 0.20071 0.56422 0.0
C944 C 0.57661 0.30515 0.43932 0.0
C945 C 0.59222 0.28459 0.46168 0.0
C946 C 0.573 0.3401 0.44708 0.0
C947 C 0.58509 0.35473 0.478 0.0
C948 C 0.60185 0.33448 0.50013 0.0
C949 C 0.60529 0.29973 0.49166 0.0
C950 C 0.55524 0.36098 0.42271 0.0
C951 C 0.61498 0.34906 0.53341 0.0
C952 C 0.59372 0.45306 0.49325 0.0
C953 C 0.56484 0.45673 0.51113 0.0
C954 C 0.60049 0.42009 0.48179 0.0
C955 C 0.57792 0.39015 0.48853 0.0
C956 C 0.54865 0.39377 0.50636 0.0
C957 C 0.54246 0.42696 0.51736 0.0
C958 C 0.63187 0.41724 0.46273 0.0
C959 C 0.52402 0.36249 0.51423 0.0
H960 H 0.56662 0.29375 0.416 0.0
H961 H 0.6175 0.28414 0.50906 0.0
H962 H 0.53159 0.36666 0.43375 0.0
H963 H 0.5701 0.38642 0.41774 0.0
H964 H 0.54996 0.34692 0.39854 0.0
H965 H 0.62936 0.33077 0.54673 0.0
H966 H 0.63092 0.37412 0.52982 0.0
H967 H 0.59418 0.35457 0.5496 0.0
H968 H 0.6111 0.47593 0.48825 0.0
H969 H 0.52006 0.42947 0.53114 0.0
H970 H 0.6261 0.40438 0.4381 0.0
H971 H 0.64746 0.40067 0.47668 0.0
H972 H 0.64631 0.44313 0.45855 0.0
H973 H 0.51546 0.34864 0.49077 0.0
H974 H 0.50221 0.36984 0.52788 0.0
H975 H 0.53588 0.34381 0.52973 0.0
loop_
_geom_bond_atom_site_label_1
_geom_bond_atom_site_label_2
_geom_bond_distance
_geom_bond_site_symmetry_2
_ccdc_geom_bond_type
O0 Cd1 2.300 . S
O0 C7 1.275 . S
Cd1 O0 2.300 . S
Cd1 O9 2.381 . S
Cd1 O10 2.378 . S
O2 Cd3 2.385 . S
O2 C7 1.255 . S
Cd3 O2 2.385 . S
Cd3 O4 2.317 . S
O4 Cd3 2.317 . S
O4 C5 1.232 . S
C5 O4 1.232 . S
C5 O6 1.218 . S
O6 C5 1.218 . S
C7 O0 1.275 . S
C7 O2 1.255 . S
C8 O9 1.258 . S
C8 O10 1.256 . S
O9 Cd1 2.381 . S
O9 C8 1.258 . S
O10 Cd1 2.378 . S
O10 C8 1.256 . S
O11 Cd12 2.300 . S
O11 C18 1.275 . S
Cd12 O11 2.300 . S
Cd12 O20 2.381 . S
Cd12 O21 2.378 . S
O13 Cd14 2.385 . S
O13 C18 1.255 . S
Cd14 O13 2.385 . S
Cd14 O15 2.317 . S
O15 Cd14 2.317 . S
O15 C16 1.232 . S
C16 O15 1.232 . S
C16 O17 1.218 . S
O17 C16 1.218 . S
C18 O11 1.275 . S
C18 O13 1.255 . S
C19 O20 1.258 . S
C19 O21 1.256 . S
O20 Cd12 2.381 . S
O20 C19 1.258 . S
O21 Cd12 2.378 . S
O21 C19 1.256 . S
O22 Cd23 2.300 . S
O22 C29 1.275 . S
Cd23 O22 2.300 . S
Cd23 O31 2.381 . S
Cd23 O32 2.378 . S
O24 Cd25 2.385 . S
O24 C29 1.255 . S
Cd25 O24 2.385 . S
Cd25 O26 2.317 . S
O26 Cd25 2.317 . S
O26 C27 1.232 . S
C27 O26 1.232 . S
C27 O28 1.218 . S
O28 C27 1.218 . S
C29 O22 1.275 . S
C29 O24 1.255 . S
C30 O31 1.258 . S
C30 O32 1.256 . S
O31 Cd23 2.381 . S
O31 C30 1.258 . S
O32 Cd23 2.378 . S
O32 C30 1.256 . S
O33 Cd34 2.300 . S
O33 C40 1.275 . S
Cd34 O33 2.300 . S
Cd34 O42 2.381 . S
Cd34 O43 2.378 . S
O35 Cd36 2.385 . S
O35 C40 1.255 . S
Cd36 O35 2.385 . S
Cd36 O37 2.317 . S
O37 Cd36 2.317 . S
O37 C38 1.232 . S
C38 O37 1.232 . S
C38 O39 1.218 . S
O39 C38 1.218 . S
C40 O33 1.275 . S
C40 O35 1.255 . S
C41 O42 1.258 . S
C41 O43 1.256 . S
O42 Cd34 2.381 . S
O42 C41 1.258 . S
O43 Cd34 2.378 . S
O43 C41 1.256 . S
O44 Cd45 2.300 . S
O44 C51 1.275 . S
Cd45 O44 2.300 . S
Cd45 O53 2.381 . S
Cd45 O54 2.378 . S
O46 Cd47 2.385 . S
O46 C51 1.255 . S
Cd47 O46 2.385 . S
Cd47 O48 2.317 . S
O48 Cd47 2.317 . S
O48 C49 1.232 . S
C49 O48 1.232 . S
C49 O50 1.218 . S
O50 C49 1.218 . S
C51 O44 1.275 . S
C51 O46 1.255 . S
C52 O53 1.258 . S
C52 O54 1.256 . S
O53 Cd45 2.381 . S
O53 C52 1.258 . S
O54 Cd45 2.378 . S
O54 C52 1.256 . S
O55 Cd56 2.300 . S
O55 C62 1.275 . S
Cd56 O55 2.300 . S
Cd56 O64 2.381 . S
Cd56 O65 2.378 . S
O57 Cd58 2.385 . S
O57 C62 1.255 . S
Cd58 O57 2.385 . S
Cd58 O59 2.317 . S
O59 Cd58 2.317 . S
O59 C60 1.232 . S
C60 O59 1.232 . S
C60 O61 1.218 . S
O61 C60 1.218 . S
C62 O55 1.275 . S
C62 O57 1.255 . S
C63 O64 1.258 . S
C63 O65 1.256 . S
O64 Cd56 2.381 . S
O64 C63 1.258 . S
O65 Cd56 2.378 . S
O65 C63 1.256 . S
O66 Cd67 2.300 . S
O66 C73 1.275 . S
Cd67 O66 2.300 . S
Cd67 O75 2.381 . S
Cd67 O76 2.378 . S
O68 Cd69 2.385 . S
O68 C73 1.255 . S
Cd69 O68 2.385 . S
Cd69 O70 2.317 . S
O70 Cd69 2.317 . S
O70 C71 1.232 . S
C71 O70 1.232 . S
C71 O72 1.218 . S
O72 C71 1.218 . S
C73 O66 1.275 . S
C73 O68 1.255 . S
C74 O75 1.258 . S
C74 O76 1.256 . S
O75 Cd67 2.381 . S
O75 C74 1.258 . S
O76 Cd67 2.378 . S
O76 C74 1.256 . S
O77 Cd78 2.300 . S
O77 C84 1.275 . S
Cd78 O77 2.300 . S
Cd78 O86 2.381 . S
Cd78 O87 2.378 . S
O79 Cd80 2.385 . S
O79 C84 1.255 . S
Cd80 O79 2.385 . S
Cd80 O81 2.317 . S
O81 Cd80 2.317 . S
O81 C82 1.232 . S
C82 O81 1.232 . S
C82 O83 1.218 . S
O83 C82 1.218 . S
C84 O77 1.275 . S
C84 O79 1.255 . S
C85 O86 1.258 . S
C85 O87 1.256 . S
O86 Cd78 2.381 . S
O86 C85 1.258 . S
O87 Cd78 2.378 . S
O87 C85 1.256 . S
Co88 N93 2.057 . S
Co88 O105 2.021 . S
Co88 O108 2.062 . S
Co88 O112 2.117 1_545 S
Co88 O113 2.014 1_545 S
C89 O109 1.259 1_655 S
C89 O112 1.258 . S
Co90 N99 2.057 . S
Co90 O106 2.117 1_565 S
Co90 O107 2.020 1_565 S
Co90 O109 2.021 . S
Co90 O114 2.062 . S
C91 N93 1.316 . S
C91 N94 1.347 . S
C91 H96 0.931 . S
C92 N93 1.375 1_565 S
C92 C95 1.350 1_565 S
C92 H97 0.930 . S
N93 Co88 2.057 . S
N93 C91 1.316 . S
N93 C92 1.375 1_545 S
N94 C91 1.347 . S
N94 C95 1.373 . S
C95 C92 1.350 1_545 S
C95 N94 1.373 . S
C95 H116 0.931 1_545 S
H96 C91 0.931 . S
H97 C92 0.930 . S
C98 O105 1.259 1_455 S
C98 O106 1.258 . S
N99 Co90 2.057 . S
N99 C100 1.316 . S
N99 C101 1.375 1_565 S
C100 N99 1.316 . S
C100 N102 1.347 . S
C100 H111 0.931 . S
C101 N99 1.375 1_545 S
C101 C103 1.350 . S
C101 H110 0.930 . S
N102 C100 1.347 . S
N102 C103 1.373 1_565 S
C103 C101 1.350 . S
C103 N102 1.373 1_545 S
C103 H117 0.931 . S
C104 O107 1.256 . S
C104 O108 1.255 1_455 S
O105 Co88 2.021 . S
O105 C98 1.259 1_655 S
O106 Co90 2.117 1_545 S
O106 C98 1.258 . S
O107 Co90 2.020 1_545 S
O107 C104 1.256 . S
O108 Co88 2.062 . S
O108 C104 1.255 1_655 S
O109 C89 1.259 1_455 S
O109 Co90 2.021 . S
H110 C101 0.930 . S
H111 C100 0.931 . S
O112 Co88 2.117 1_565 S
O112 C89 1.258 . S
O113 Co88 2.014 1_565 S
O113 C115 1.264 . S
O114 Co90 2.062 . S
O114 C115 1.255 1_455 S
C115 O113 1.264 . S
C115 O114 1.255 1_655 S
H116 C95 0.931 1_565 S
H117 C103 0.931 . S
Co118 N123 2.057 1_544 S
Co118 O135 2.021 . S
Co118 O138 2.062 . S
Co118 O142 2.117 1_545 S
Co118 O143 2.020 . S
C119 O139 1.259 . S
C119 O142 1.258 . S
Co120 N129 2.057 . S
Co120 O136 2.117 . S
Co120 O137 2.020 . S
Co120 O139 2.021 1_545 S
Co120 O144 2.062 . S
C121 N123 1.316 1_545 S
C121 N124 1.347 1_545 S
C121 H126 0.931 . S
C122 N123 1.375 . S
C122 C125 1.350 . S
C122 H127 0.930 . S
N123 Co118 2.057 1_566 S
N123 C121 1.316 1_565 S
N123 C122 1.375 . S
N124 C121 1.347 1_565 S
N124 C125 1.373 . S
C125 C122 1.350 . S
C125 N124 1.373 . S
C125 H146 0.931 . S
H126 C121 0.931 . S
H127 C122 0.930 . S
C128 O135 1.259 . S
C128 O136 1.258 . S
N129 Co120 2.057 . S
N129 C130 1.316 . S
N129 C131 1.375 . S
C130 N129 1.316 . S
C130 N132 1.347 . S
C130 H141 0.931 . S
C131 N129 1.375 . S
C131 C133 1.350 . S
C131 H140 0.930 . S
N132 C130 1.347 . S
N132 C133 1.373 . S
C133 C131 1.350 . S
C133 N132 1.373 . S
C133 H147 0.931 . S
C134 O137 1.256 . S
C134 O138 1.255 . S
O135 Co118 2.021 . S
O135 C128 1.259 . S
O136 Co120 2.117 . S
O136 C128 1.258 . S
O137 Co120 2.020 . S
O137 C134 1.256 . S
O138 Co118 2.062 . S
O138 C134 1.255 . S
O139 C119 1.259 . S
O139 Co120 2.021 1_565 S
H140 C131 0.930 . S
H141 C130 0.931 . S
O142 Co118 2.117 1_565 S
O142 C119 1.258 . S
O143 Co118 2.020 . S
O143 C145 1.256 . S
O144 Co120 2.062 . S
O144 C145 1.255 . S
C145 O143 1.256 . S
C145 O144 1.255 . S
H146 C125 0.931 . S
H147 C133 0.931 . S
Co148 N153 2.057 . S
Co148 O165 2.021 . S
Co148 O168 2.062 . S
Co148 O172 2.117 . S
Co148 O173 2.020 . S
C149 O169 1.259 . S
C149 O172 1.258 . S
Co150 N159 2.057 . S
Co150 O166 2.117 . S
Co150 O167 2.020 . S
Co150 O169 2.021 . S
Co150 O174 2.062 . S
C151 N153 1.316 . S
C151 N154 1.347 . S
C151 H156 0.931 . S
C152 N153 1.375 . S
C152 C155 1.350 . S
C152 H157 0.930 . S
N153 Co148 2.057 . S
N153 C151 1.316 . S
N153 C152 1.375 . S
N154 C151 1.347 . S
N154 C155 1.373 . S
C155 C152 1.350 . S
C155 N154 1.373 . S
C155 H176 0.931 . S
H156 C151 0.931 . S
H157 C152 0.930 . S
C158 O165 1.259 . S
C158 O166 1.258 . S
N159 Co150 2.057 . S
N159 C160 1.316 . S
N159 C161 1.375 . S
C160 N159 1.316 . S
C160 N162 1.347 . S
C160 H171 0.931 . S
C161 N159 1.375 . S
C161 C163 1.350 . S
C161 H170 0.930 . S
N162 C160 1.347 . S
N162 C163 1.373 . S
C163 C161 1.350 . S
C163 N162 1.373 . S
C163 H177 0.931 . S
C164 O167 1.256 . S
C164 O168 1.255 . S
O165 Co148 2.021 . S
O165 C158 1.259 . S
O166 Co150 2.117 . S
O166 C158 1.258 . S
O167 Co150 2.020 . S
O167 C164 1.256 . S
O168 Co148 2.062 . S
O168 C164 1.255 . S
O169 C149 1.259 . S
O169 Co150 2.021 . S
H170 C161 0.930 . S
H171 C160 0.931 . S
O172 Co148 2.117 . S
O172 C149 1.258 . S
O173 Co148 2.020 . S
O173 C175 1.256 . S
O174 Co150 2.062 . S
O174 C175 1.255 . S
C175 O173 1.256 . S
C175 O174 1.255 . S
H176 C155 0.931 . S
H177 C163 0.931 . S
Co178 N183 2.057 . S
Co178 O195 2.021 1_556 S
Co178 O198 2.062 1_556 S
Co178 O202 2.117 1_455 S
Co178 O203 2.020 . S
C179 O199 1.259 . S
C179 O202 1.258 1_554 S
Co180 N189 2.057 . S
Co180 O196 2.117 . S
Co180 O197 2.020 . S
Co180 O199 2.021 1_455 S
Co180 O204 2.062 . S
C181 N183 1.316 . S
C181 N184 1.347 . S
C181 H186 0.931 . S
C182 N183 1.375 . S
C182 C185 1.350 . S
C182 H187 0.930 1_455 S
N183 Co178 2.057 . S
N183 C181 1.316 . S
N183 C182 1.375 . S
N184 C181 1.347 . S
N184 C185 1.373 . S
C185 C182 1.350 . S
C185 N184 1.373 . S
C185 H206 0.931 . S
H186 C181 0.931 . S
H187 C182 0.930 1_655 S
C188 O195 1.259 . S
C188 O196 1.258 . S
N189 Co180 2.057 . S
N189 C190 1.316 1_455 S
N189 C191 1.375 . S
C190 N189 1.316 1_655 S
C190 N192 1.347 . S
C190 H201 0.931 . S
C191 N189 1.375 . S
C191 C193 1.350 . S
C191 H200 0.930 . S
N192 C190 1.347 . S
N192 C193 1.373 1_655 S
C193 C191 1.350 . S
C193 N192 1.373 1_455 S
C193 H207 0.931 . S
C194 O197 1.256 . S
C194 O198 1.255 . S
O195 Co178 2.021 1_554 S
O195 C188 1.259 . S
O196 Co180 2.117 . S
O196 C188 1.258 . S
O197 Co180 2.020 . S
O197 C194 1.256 . S
O198 Co178 2.062 1_554 S
O198 C194 1.255 . S
O199 C179 1.259 . S
O199 Co180 2.021 1_655 S
H200 C191 0.930 . S
H201 C190 0.931 . S
O202 Co178 2.117 1_655 S
O202 C179 1.258 1_556 S
O203 Co178 2.020 . S
O203 C205 1.256 1_556 S
O204 Co180 2.062 . S
O204 C205 1.255 . S
C205 O203 1.256 1_554 S
C205 O204 1.255 . S
H206 C185 0.931 . S
H207 C193 0.931 . S
C208 C209 1.391 . S
C208 C210 1.394 . S
C208 H224 0.931 . S
C209 C208 1.391 . S
C209 C213 1.376 . S
C210 C208 1.394 . S
C210 C211 1.369 . S
C210 C214 1.531 . S
C211 C210 1.369 . S
C211 C212 1.410 . S
C211 C219 1.503 . S
C212 C211 1.410 . S
C212 C213 1.392 . S
C212 C215 1.511 . S
C213 C209 1.376 . S
C213 C212 1.392 . S
C213 H225 0.929 . S
C214 C210 1.531 . S
C214 H226 0.960 1_545 S
C214 H227 0.962 . S
C214 H228 0.960 1_545 S
C215 C212 1.511 . S
C215 H229 0.961 . S
C215 H230 0.961 . S
C215 H231 0.961 . S
C216 C217 1.370 . S
C216 C218 1.363 . S
C216 H232 0.931 . S
C217 C216 1.370 . S
C217 C221 1.408 . S
C218 C216 1.363 . S
C218 C219 1.370 . S
C218 C222 1.524 . S
C219 C211 1.503 . S
C219 C218 1.370 . S
C219 C220 1.403 . S
C220 C219 1.403 . S
C220 C221 1.404 . S
C220 C223 1.539 1_545 S
C221 C217 1.408 . S
C221 C220 1.404 . S
C221 H233 0.930 1_545 S
C222 C218 1.524 . S
C222 H234 0.956 . S
C222 H235 0.961 . S
C222 H236 0.961 . S
C223 C220 1.539 1_565 S
C223 H237 0.958 . S
C223 H238 0.961 . S
C223 H239 0.960 1_565 S
H224 C208 0.931 . S
H225 C213 0.929 . S
H226 C214 0.960 1_565 S
H227 C214 0.962 . S
H228 C214 0.960 1_565 S
H229 C215 0.961 . S
H230 C215 0.961 . S
H231 C215 0.961 . S
H232 C216 0.931 . S
H233 C221 0.930 1_565 S
H234 C222 0.956 . S
H235 C222 0.961 . S
H236 C222 0.961 . S
H237 C223 0.958 . S
H238 C223 0.961 . S
H239 C223 0.960 1_545 S
C240 C241 1.391 . S
C240 C242 1.394 . S
C240 H256 0.931 . S
C241 C240 1.391 . S
C241 C245 1.376 . S
C242 C240 1.394 . S
C242 C243 1.369 . S
C242 C246 1.531 . S
C243 C242 1.369 . S
C243 C244 1.410 . S
C243 C251 1.503 . S
C244 C243 1.410 . S
C244 C245 1.392 . S
C244 C247 1.511 . S
C245 C241 1.376 . S
C245 C244 1.392 . S
C245 H257 0.929 . S
C246 C242 1.531 . S
C246 H258 0.960 1_565 S
C246 H259 0.962 . S
C246 H260 0.960 1_565 S
C247 C244 1.511 . S
C247 H261 0.961 . S
C247 H262 0.961 . S
C247 H263 0.961 . S
C248 C249 1.370 . S
C248 C250 1.363 . S
C248 H264 0.931 . S
C249 C248 1.370 . S
C249 C253 1.408 . S
C250 C248 1.363 . S
C250 C251 1.370 . S
C250 C254 1.524 . S
C251 C243 1.503 . S
C251 C250 1.370 . S
C251 C252 1.403 . S
C252 C251 1.403 . S
C252 C253 1.404 . S
C252 C255 1.539 1_565 S
C253 C249 1.408 . S
C253 C252 1.404 . S
C253 H265 0.930 1_565 S
C254 C250 1.524 . S
C254 H266 0.956 . S
C254 H267 0.961 . S
C254 H268 0.961 . S
C255 C252 1.539 1_545 S
C255 H269 0.958 . S
C255 H270 0.961 . S
C255 H271 0.960 1_545 S
H256 C240 0.931 . S
H257 C245 0.929 . S
H258 C246 0.960 1_545 S
H259 C246 0.962 . S
H260 C246 0.960 1_545 S
H261 C247 0.961 . S
H262 C247 0.961 . S
H263 C247 0.961 . S
H264 C248 0.931 . S
H265 C253 0.930 1_545 S
H266 C254 0.956 . S
H267 C254 0.961 . S
H268 C254 0.961 . S
H269 C255 0.958 . S
H270 C255 0.961 . S
H271 C255 0.960 1_565 S
C272 C273 1.391 . S
C272 C274 1.394 . S
C272 H288 0.931 . S
C273 C272 1.391 . S
C273 C277 1.376 . S
C274 C272 1.394 . S
C274 C275 1.369 . S
C274 C278 1.531 . S
C275 C274 1.369 . S
C275 C276 1.410 . S
C275 C283 1.503 . S
C276 C275 1.410 . S
C276 C277 1.392 . S
C276 C279 1.511 . S
C277 C273 1.376 . S
C277 C276 1.392 . S
C277 H289 0.929 . S
C278 C274 1.531 . S
C278 H290 0.960 . S
C278 H291 0.962 . S
C278 H292 0.960 . S
C279 C276 1.511 . S
C279 H293 0.961 . S
C279 H294 0.961 . S
C279 H295 0.961 . S
C280 C281 1.370 . S
C280 C282 1.363 . S
C280 H296 0.931 . S
C281 C280 1.370 . S
C281 C285 1.408 . S
C282 C280 1.363 . S
C282 C283 1.370 . S
C282 C286 1.524 . S
C283 C275 1.503 . S
C283 C282 1.370 . S
C283 C284 1.403 . S
C284 C283 1.403 . S
C284 C285 1.404 . S
C284 C287 1.539 . S
C285 C281 1.408 . S
C285 C284 1.404 . S
C285 H297 0.930 . S
C286 C282 1.524 . S
C286 H298 0.956 . S
C286 H299 0.961 . S
C286 H300 0.961 . S
C287 C284 1.539 . S
C287 H301 0.958 . S
C287 H302 0.961 . S
C287 H303 0.960 . S
H288 C272 0.931 . S
H289 C277 0.929 . S
H290 C278 0.960 . S
H291 C278 0.962 . S
H292 C278 0.960 . S
H293 C279 0.961 . S
H294 C279 0.961 . S
H295 C279 0.961 . S
H296 C280 0.931 . S
H297 C285 0.930 . S
H298 C286 0.956 . S
H299 C286 0.961 . S
H300 C286 0.961 . S
H301 C287 0.958 . S
H302 C287 0.961 . S
H303 C287 0.960 . S
C304 C305 1.391 . S
C304 C306 1.394 . S
C304 H320 0.931 1_655 S
C305 C304 1.391 . S
C305 C309 1.376 . S
C306 C304 1.394 . S
C306 C307 1.369 . S
C306 C310 1.531 1_655 S
C307 C306 1.369 . S
C307 C308 1.410 . S
C307 C315 1.503 . S
C308 C307 1.410 . S
C308 C309 1.392 . S
C308 C311 1.511 . S
C309 C305 1.376 . S
C309 C308 1.392 . S
C309 H321 0.929 . S
C310 C306 1.531 1_455 S
C310 H322 0.960 . S
C310 H323 0.962 . S
C310 H324 0.960 . S
C311 C308 1.511 . S
C311 H325 0.961 . S
C311 H326 0.961 . S
C311 H327 0.961 . S
C312 C313 1.370 . S
C312 C314 1.363 . S
C312 H328 0.931 1_655 S
C313 C312 1.370 . S
C313 C317 1.408 . S
C314 C312 1.363 . S
C314 C315 1.370 . S
C314 C318 1.524 1_655 S
C315 C307 1.503 . S
C315 C314 1.370 . S
C315 C316 1.403 . S
C316 C315 1.403 . S
C316 C317 1.404 . S
C316 C319 1.539 . S
C317 C313 1.408 . S
C317 C316 1.404 . S
C317 H329 0.930 . S
C318 C314 1.524 1_455 S
C318 H330 0.956 . S
C318 H331 0.961 . S
C318 H332 0.961 . S
C319 C316 1.539 . S
C319 H333 0.958 . S
C319 H334 0.961 . S
C319 H335 0.960 . S
H320 C304 0.931 1_455 S
H321 C309 0.929 . S
H322 C310 0.960 . S
H323 C310 0.962 . S
H324 C310 0.960 . S
H325 C311 0.961 . S
H326 C311 0.961 . S
H327 C311 0.961 . S
H328 C312 0.931 1_455 S
H329 C317 0.930 . S
H330 C318 0.956 . S
H331 C318 0.961 . S
H332 C318 0.961 . S
H333 C319 0.958 . S
H334 C319 0.961 . S
H335 C319 0.960 . S
C336 C337 1.391 . S
C336 C338 1.394 . S
C336 H352 0.931 . S
C337 C336 1.391 . S
C337 C341 1.376 . S
C338 C336 1.394 . S
C338 C339 1.369 . S
C338 C342 1.531 . S
C339 C338 1.369 . S
C339 C340 1.410 . S
C339 C347 1.503 . S
C340 C339 1.410 . S
C340 C341 1.392 . S
C340 C343 1.511 . S
C341 C337 1.376 . S
C341 C340 1.392 . S
C341 H353 0.929 . S
C342 C338 1.531 . S
C342 H354 0.960 . S
C342 H355 0.962 . S
C342 H356 0.960 . S
C343 C340 1.511 . S
C343 H357 0.961 . S
C343 H358 0.961 . S
C343 H359 0.961 . S
C344 C345 1.370 . S
C344 C346 1.363 . S
C344 H360 0.931 . S
C345 C344 1.370 . S
C345 C349 1.408 . S
C346 C344 1.363 . S
C346 C347 1.370 . S
C346 C350 1.524 . S
C347 C339 1.503 . S
C347 C346 1.370 . S
C347 C348 1.403 . S
C348 C347 1.403 . S
C348 C349 1.404 . S
C348 C351 1.539 . S
C349 C345 1.408 . S
C349 C348 1.404 . S
C349 H361 0.930 . S
C350 C346 1.524 . S
C350 H362 0.956 . S
C350 H363 0.961 . S
C350 H364 0.961 . S
C351 C348 1.539 . S
C351 H365 0.958 . S
C351 H366 0.961 . S
C351 H367 0.960 . S
H352 C336 0.931 . S
H353 C341 0.929 . S
H354 C342 0.960 . S
H355 C342 0.962 . S
H356 C342 0.960 . S
H357 C343 0.961 . S
H358 C343 0.961 . S
H359 C343 0.961 . S
H360 C344 0.931 . S
H361 C349 0.930 . S
H362 C350 0.956 . S
H363 C350 0.961 . S
H364 C350 0.961 . S
H365 C351 0.958 . S
H366 C351 0.961 . S
H367 C351 0.960 . S
C368 C369 1.391 . S
C368 C370 1.394 . S
C368 H384 0.931 . S
C369 C368 1.391 . S
C369 C373 1.376 . S
C370 C368 1.394 . S
C370 C371 1.369 . S
C370 C374 1.531 . S
C371 C370 1.369 . S
C371 C372 1.410 . S
C371 C379 1.503 . S
C372 C371 1.410 . S
C372 C373 1.392 . S
C372 C375 1.511 . S
C373 C369 1.376 . S
C373 C372 1.392 . S
C373 H385 0.929 . S
C374 C370 1.531 . S
C374 H386 0.960 . S
C374 H387 0.962 . S
C374 H388 0.960 . S
C375 C372 1.511 . S
C375 H389 0.961 . S
C375 H390 0.961 . S
C375 H391 0.961 . S
C376 C377 1.370 . S
C376 C378 1.363 . S
C376 H392 0.931 . S
C377 C376 1.370 . S
C377 C381 1.408 . S
C378 C376 1.363 . S
C378 C379 1.370 . S
C378 C382 1.524 . S
C379 C371 1.503 . S
C379 C378 1.370 . S
C379 C380 1.403 . S
C380 C379 1.403 . S
C380 C381 1.404 . S
C380 C383 1.539 1_565 S
C381 C377 1.408 . S
C381 C380 1.404 . S
C381 H393 0.930 1_565 S
C382 C378 1.524 . S
C382 H394 0.956 . S
C382 H395 0.961 . S
C382 H396 0.961 . S
C383 C380 1.539 1_545 S
C383 H397 0.958 . S
C383 H398 0.961 . S
C383 H399 0.960 . S
H384 C368 0.931 . S
H385 C373 0.929 . S
H386 C374 0.960 . S
H387 C374 0.962 . S
H388 C374 0.960 . S
H389 C375 0.961 . S
H390 C375 0.961 . S
H391 C375 0.961 . S
H392 C376 0.931 . S
H393 C381 0.930 1_545 S
H394 C382 0.956 . S
H395 C382 0.961 . S
H396 C382 0.961 . S
H397 C383 0.958 . S
H398 C383 0.961 . S
H399 C383 0.960 . S
C400 C401 1.391 . S
C400 C402 1.394 . S
C400 H416 0.931 1_556 S
C401 C400 1.391 . S
C401 C405 1.376 . S
C402 C400 1.394 . S
C402 C403 1.369 . S
C402 C406 1.531 1_556 S
C403 C402 1.369 . S
C403 C404 1.410 . S
C403 C411 1.503 . S
C404 C403 1.410 . S
C404 C405 1.392 . S
C404 C407 1.511 . S
C405 C401 1.376 . S
C405 C404 1.392 . S
C405 H417 0.929 . S
C406 C402 1.531 1_554 S
C406 H418 0.960 . S
C406 H419 0.962 . S
C406 H420 0.960 . S
C407 C404 1.511 . S
C407 H421 0.961 . S
C407 H422 0.961 . S
C407 H423 0.961 . S
C408 C409 1.370 . S
C408 C410 1.363 . S
C408 H424 0.931 . S
C409 C408 1.370 . S
C409 C413 1.408 . S
C410 C408 1.363 . S
C410 C411 1.370 . S
C410 C414 1.524 . S
C411 C403 1.503 . S
C411 C410 1.370 . S
C411 C412 1.403 . S
C412 C411 1.403 . S
C412 C413 1.404 . S
C412 C415 1.539 . S
C413 C409 1.408 . S
C413 C412 1.404 . S
C413 H425 0.924 1_556 S
C414 C410 1.524 . S
C414 H426 0.956 . S
C414 H427 0.961 . S
C414 H428 0.961 . S
C415 C412 1.539 . S
C415 H429 0.958 1_556 S
C415 H430 0.961 . S
C415 H431 0.960 . S
H416 C400 0.931 1_554 S
H417 C405 0.929 . S
H418 C406 0.960 . S
H419 C406 0.962 . S
H420 C406 0.960 . S
H421 C407 0.961 . S
H422 C407 0.961 . S
H423 C407 0.961 . S
H424 C408 0.931 . S
H425 C413 0.924 1_554 S
H426 C414 0.956 . S
H427 C414 0.961 . S
H428 C414 0.961 . S
H429 C415 0.958 1_554 S
H430 C415 0.961 . S
H431 C415 0.960 . S
C432 C433 1.391 . S
C432 C434 1.394 . S
C432 H448 0.931 . S
C433 C432 1.391 . S
C433 C437 1.376 . S
C434 C432 1.394 . S
C434 C435 1.369 . S
C434 C438 1.531 . S
C435 C434 1.369 . S
C435 C436 1.410 . S
C435 C443 1.503 . S
C436 C435 1.410 . S
C436 C437 1.392 . S
C436 C439 1.511 . S
C437 C433 1.376 . S
C437 C436 1.392 . S
C437 H449 0.929 . S
C438 C434 1.531 . S
C438 H450 0.960 . S
C438 H451 0.962 . S
C438 H452 0.960 . S
C439 C436 1.511 . S
C439 H453 0.961 . S
C439 H454 0.961 . S
C439 H455 0.961 . S
C440 C441 1.370 . S
C440 C442 1.363 . S
C440 H456 0.931 . S
C441 C440 1.370 . S
C441 C445 1.408 . S
C442 C440 1.363 . S
C442 C443 1.370 . S
C442 C446 1.524 . S
C443 C435 1.503 . S
C443 C442 1.370 . S
C443 C444 1.403 . S
C444 C443 1.403 . S
C444 C445 1.404 . S
C444 C447 1.539 . S
C445 C441 1.408 . S
C445 C444 1.404 . S
C445 H457 0.930 . S
C446 C442 1.524 . S
C446 H458 0.956 . S
C446 H459 0.961 . S
C446 H460 0.961 . S
C447 C444 1.539 . S
C447 H461 0.958 . S
C447 H462 0.961 . S
C447 H463 0.960 . S
H448 C432 0.931 . S
H449 C437 0.929 . S
H450 C438 0.960 . S
H451 C438 0.962 . S
H452 C438 0.960 . S
H453 C439 0.961 . S
H454 C439 0.961 . S
H455 C439 0.961 . S
H456 C440 0.931 . S
H457 C445 0.930 . S
H458 C446 0.956 . S
H459 C446 0.961 . S
H460 C446 0.961 . S
H461 C447 0.958 . S
H462 C447 0.961 . S
H463 C447 0.960 . S
C464 C465 1.391 . S
C464 C466 1.394 . S
C464 H480 0.931 . S
C465 C464 1.391 . S
C465 C469 1.376 . S
C466 C464 1.394 . S
C466 C467 1.369 . S
C466 C470 1.531 . S
C467 C466 1.369 . S
C467 C468 1.410 . S
C467 C475 1.503 . S
C468 C467 1.410 . S
C468 C469 1.392 . S
C468 C471 1.511 . S
C469 C465 1.376 . S
C469 C468 1.392 . S
C469 H481 0.929 . S
C470 C466 1.531 . S
C470 H482 0.960 . S
C470 H483 0.962 . S
C470 H484 0.960 . S
C471 C468 1.511 . S
C471 H485 0.961 . S
C471 H486 0.961 . S
C471 H487 0.961 . S
C472 C473 1.370 . S
C472 C474 1.363 . S
C472 H488 0.931 . S
C473 C472 1.370 . S
C473 C477 1.408 . S
C474 C472 1.363 . S
C474 C475 1.370 . S
C474 C478 1.524 . S
C475 C467 1.503 . S
C475 C474 1.370 . S
C475 C476 1.403 . S
C476 C475 1.403 . S
C476 C477 1.404 . S
C476 C479 1.539 . S
C477 C473 1.408 . S
C477 C476 1.404 . S
C477 H489 0.930 . S
C478 C474 1.524 . S
C478 H490 0.956 . S
C478 H491 0.961 . S
C478 H492 0.961 . S
C479 C476 1.539 . S
C479 H493 0.958 . S
C479 H494 0.961 . S
C479 H495 0.960 . S
H480 C464 0.931 . S
H481 C469 0.929 . S
H482 C470 0.960 . S
H483 C470 0.962 . S
H484 C470 0.960 . S
H485 C471 0.961 . S
H486 C471 0.961 . S
H487 C471 0.961 . S
H488 C472 0.931 . S
H489 C477 0.930 . S
H490 C478 0.956 . S
H491 C478 0.961 . S
H492 C478 0.961 . S
H493 C479 0.958 . S
H494 C479 0.961 . S
H495 C479 0.960 . S
C496 C497 1.391 1_554 S
C496 C498 1.394 . S
C496 H512 0.931 . S
C497 C496 1.391 1_556 S
C497 C501 1.376 . S
C498 C496 1.394 . S
C498 C499 1.369 . S
C498 C502 1.531 . S
C499 C498 1.369 . S
C499 C500 1.410 1_554 S
C499 C507 1.503 . S
C500 C499 1.410 1_556 S
C500 C501 1.392 . S
C500 C503 1.511 . S
C501 C497 1.376 . S
C501 C500 1.392 . S
C501 H513 0.929 . S
C502 C498 1.531 . S
C502 H514 0.960 . S
C502 H515 0.962 . S
C502 H516 0.960 . S
C503 C500 1.511 . S
C503 H517 0.961 . S
C503 H518 0.961 . S
C503 H519 0.961 . S
C504 C505 1.370 1_556 S
C504 C506 1.363 . S
C504 H520 0.931 . S
C505 C504 1.370 1_554 S
C505 C509 1.408 . S
C506 C504 1.363 . S
C506 C507 1.370 1_556 S
C506 C510 1.524 . S
C507 C499 1.503 . S
C507 C506 1.370 1_554 S
C507 C508 1.403 . S
C508 C507 1.403 . S
C508 C509 1.404 . S
C508 C511 1.539 . S
C509 C505 1.408 . S
C509 C508 1.404 . S
C509 H521 0.930 . S
C510 C506 1.524 . S
C510 H522 0.956 . S
C510 H523 0.961 . S
C510 H524 0.961 . S
C511 C508 1.539 . S
C511 H525 0.958 . S
C511 H526 0.961 . S
C511 H527 0.960 . S
H512 C496 0.931 . S
H513 C501 0.929 . S
H514 C502 0.960 . S
H515 C502 0.962 . S
H516 C502 0.960 . S
H517 C503 0.961 . S
H518 C503 0.961 . S
H519 C503 0.961 . S
H520 C504 0.931 . S
H521 C509 0.930 . S
H522 C510 0.956 . S
H523 C510 0.961 . S
H524 C510 0.961 . S
H525 C511 0.958 . S
H526 C511 0.961 . S
H527 C511 0.960 . S
C528 C529 1.391 . S
C528 C530 1.394 . S
C528 H544 0.931 . S
C529 C528 1.391 . S
C529 C533 1.376 . S
C530 C528 1.394 . S
C530 C531 1.369 . S
C530 C534 1.531 . S
C531 C530 1.369 . S
C531 C532 1.410 . S
C531 C539 1.503 . S
C532 C531 1.410 . S
C532 C533 1.392 . S
C532 C535 1.511 1_655 S
C533 C529 1.376 . S
C533 C532 1.392 . S
C533 H545 0.929 1_655 S
C534 C530 1.531 . S
C534 H546 0.960 . S
C534 H547 0.962 . S
C534 H548 0.960 . S
C535 C532 1.511 1_455 S
C535 H549 0.961 . S
C535 H550 0.961 . S
C535 H551 0.961 . S
C536 C537 1.370 . S
C536 C538 1.363 . S
C536 H552 0.931 . S
C537 C536 1.370 . S
C537 C541 1.408 . S
C538 C536 1.363 . S
C538 C539 1.370 . S
C538 C542 1.524 . S
C539 C531 1.503 . S
C539 C538 1.370 . S
C539 C540 1.403 . S
C540 C539 1.403 . S
C540 C541 1.404 . S
C540 C543 1.539 . S
C541 C537 1.408 . S
C541 C540 1.404 . S
C541 H553 0.930 . S
C542 C538 1.524 . S
C542 H554 0.956 . S
C542 H555 0.961 . S
C542 H556 0.961 . S
C543 C540 1.539 . S
C543 H557 0.958 . S
C543 H558 0.961 1_655 S
C543 H559 0.960 1_655 S
H544 C528 0.931 . S
H545 C533 0.929 1_455 S
H546 C534 0.960 . S
H547 C534 0.962 . S
H548 C534 0.960 . S
H549 C535 0.961 . S
H550 C535 0.961 . S
H551 C535 0.961 . S
H552 C536 0.931 . S
H553 C541 0.930 . S
H554 C542 0.956 . S
H555 C542 0.961 . S
H556 C542 0.961 . S
H557 C543 0.958 . S
H558 C543 0.961 1_455 S
H559 C543 0.960 1_455 S
C560 C561 1.391 . S
C560 C562 1.394 . S
C560 H576 0.931 . S
C561 C560 1.391 . S
C561 C565 1.376 . S
C562 C560 1.394 . S
C562 C563 1.369 . S
C562 C566 1.531 . S
C563 C562 1.369 . S
C563 C564 1.410 . S
C563 C571 1.503 . S
C564 C563 1.410 . S
C564 C565 1.392 . S
C564 C567 1.511 . S
C565 C561 1.376 . S
C565 C564 1.392 . S
C565 H577 0.929 . S
C566 C562 1.531 . S
C566 H578 0.960 . S
C566 H579 0.962 . S
C566 H580 0.960 . S
C567 C564 1.511 . S
C567 H581 0.961 . S
C567 H582 0.961 . S
C567 H583 0.961 . S
C568 C569 1.370 . S
C568 C570 1.363 . S
C568 H584 0.931 . S
C569 C568 1.370 . S
C569 C573 1.408 . S
C570 C568 1.363 . S
C570 C571 1.370 . S
C570 C574 1.524 . S
C571 C563 1.503 . S
C571 C570 1.370 . S
C571 C572 1.403 . S
C572 C571 1.403 . S
C572 C573 1.404 . S
C572 C575 1.539 . S
C573 C569 1.408 . S
C573 C572 1.404 . S
C573 H585 0.930 . S
C574 C570 1.524 . S
C574 H586 0.956 . S
C574 H587 0.961 . S
C574 H588 0.961 . S
C575 C572 1.539 . S
C575 H589 0.958 . S
C575 H590 0.961 . S
C575 H591 0.960 . S
H576 C560 0.931 . S
H577 C565 0.929 . S
H578 C566 0.960 . S
H579 C566 0.962 . S
H580 C566 0.960 . S
H581 C567 0.961 . S
H582 C567 0.961 . S
H583 C567 0.961 . S
H584 C568 0.931 . S
H585 C573 0.930 . S
H586 C574 0.956 . S
H587 C574 0.961 . S
H588 C574 0.961 . S
H589 C575 0.958 . S
H590 C575 0.961 . S
H591 C575 0.960 . S
C592 C593 1.391 . S
C592 C594 1.394 . S
C592 H608 0.931 . S
C593 C592 1.391 . S
C593 C597 1.376 . S
C594 C592 1.394 . S
C594 C595 1.369 . S
C594 C598 1.531 . S
C595 C594 1.369 . S
C595 C596 1.410 . S
C595 C603 1.503 . S
C596 C595 1.410 . S
C596 C597 1.392 . S
C596 C599 1.511 . S
C597 C593 1.376 . S
C597 C596 1.392 . S
C597 H609 0.929 . S
C598 C594 1.531 . S
C598 H610 0.960 1_655 S
C598 H611 0.962 . S
C598 H612 0.960 1_655 S
C599 C596 1.511 . S
C599 H613 0.961 . S
C599 H614 0.961 . S
C599 H615 0.961 . S
C600 C601 1.370 . S
C600 C602 1.363 . S
C600 H616 0.931 1_565 S
C601 C600 1.370 . S
C601 C605 1.408 . S
C602 C600 1.363 . S
C602 C603 1.370 . S
C602 C606 1.524 1_565 S
C603 C595 1.503 . S
C603 C602 1.370 . S
C603 C604 1.403 . S
C604 C603 1.403 . S
C604 C605 1.404 . S
C604 C607 1.539 . S
C605 C601 1.408 . S
C605 C604 1.404 . S
C605 H617 0.930 . S
C606 C602 1.524 1_545 S
C606 H618 0.956 . S
C606 H619 0.961 . S
C606 H620 0.961 . S
C607 C604 1.539 . S
C607 H621 0.958 . S
C607 H622 0.961 . S
C607 H623 0.960 . S
H608 C592 0.931 . S
H609 C597 0.929 . S
H610 C598 0.960 1_455 S
H611 C598 0.962 . S
H612 C598 0.960 1_455 S
H613 C599 0.961 . S
H614 C599 0.961 . S
H615 C599 0.961 . S
H616 C600 0.931 1_545 S
H617 C605 0.930 . S
H618 C606 0.956 . S
H619 C606 0.961 . S
H620 C606 0.961 . S
H621 C607 0.958 . S
H622 C607 0.961 . S
H623 C607 0.960 . S
C624 C625 1.391 . S
C624 C626 1.394 . S
C624 H640 0.931 . S
C625 C624 1.391 . S
C625 C629 1.376 . S
C626 C624 1.394 . S
C626 C627 1.369 . S
C626 C630 1.531 . S
C627 C626 1.369 . S
C627 C628 1.410 . S
C627 C635 1.503 . S
C628 C627 1.410 . S
C628 C629 1.392 . S
C628 C631 1.511 . S
C629 C625 1.376 . S
C629 C628 1.392 . S
C629 H641 0.929 . S
C630 C626 1.531 . S
C630 H642 0.960 . S
C630 H643 0.962 . S
C630 H644 0.960 . S
C631 C628 1.511 . S
C631 H645 0.961 . S
C631 H646 0.961 . S
C631 H647 0.961 . S
C632 C633 1.370 . S
C632 C634 1.363 . S
C632 H648 0.931 . S
C633 C632 1.370 . S
C633 C637 1.408 . S
C634 C632 1.363 . S
C634 C635 1.370 . S
C634 C638 1.524 . S
C635 C627 1.503 . S
C635 C634 1.370 . S
C635 C636 1.403 . S
C636 C635 1.403 . S
C636 C637 1.404 . S
C636 C639 1.539 . S
C637 C633 1.408 . S
C637 C636 1.404 . S
C637 H649 0.930 . S
C638 C634 1.524 . S
C638 H650 0.956 . S
C638 H651 0.961 . S
C638 H652 0.961 . S
C639 C636 1.539 . S
C639 H653 0.958 . S
C639 H654 0.961 . S
C639 H655 0.960 . S
H640 C624 0.931 . S
H641 C629 0.929 . S
H642 C630 0.960 . S
H643 C630 0.962 . S
H644 C630 0.960 . S
H645 C631 0.961 . S
H646 C631 0.961 . S
H647 C631 0.961 . S
H648 C632 0.931 . S
H649 C637 0.930 . S
H650 C638 0.956 . S
H651 C638 0.961 . S
H652 C638 0.961 . S
H653 C639 0.958 . S
H654 C639 0.961 . S
H655 C639 0.960 . S
C656 C657 1.391 . S
C656 C658 1.394 . S
C656 H672 0.931 . S
C657 C656 1.391 . S
C657 C661 1.376 . S
C658 C656 1.394 . S
C658 C659 1.369 . S
C658 C662 1.531 . S
C659 C658 1.369 . S
C659 C660 1.410 . S
C659 C667 1.503 . S
C660 C659 1.410 . S
C660 C661 1.392 . S
C660 C663 1.511 . S
C661 C657 1.376 . S
C661 C660 1.392 . S
C661 H673 0.929 . S
C662 C658 1.531 . S
C662 H674 0.960 . S
C662 H675 0.962 . S
C662 H676 0.960 . S
C663 C660 1.511 . S
C663 H677 0.961 . S
C663 H678 0.961 . S
C663 H679 0.961 . S
C664 C665 1.370 . S
C664 C666 1.363 . S
C664 H680 0.931 . S
C665 C664 1.370 . S
C665 C669 1.408 . S
C666 C664 1.363 . S
C666 C667 1.370 . S
C666 C670 1.524 . S
C667 C659 1.503 . S
C667 C666 1.370 . S
C667 C668 1.403 . S
C668 C667 1.403 . S
C668 C669 1.404 . S
C668 C671 1.539 . S
C669 C665 1.408 . S
C669 C668 1.404 . S
C669 H681 0.930 . S
C670 C666 1.524 . S
C670 H682 0.956 . S
C670 H683 0.961 . S
C670 H684 0.961 . S
C671 C668 1.539 . S
C671 H685 0.958 . S
C671 H686 0.961 . S
C671 H687 0.960 . S
H672 C656 0.931 . S
H673 C661 0.929 . S
H674 C662 0.960 . S
H675 C662 0.962 . S
H676 C662 0.960 . S
H677 C663 0.961 . S
H678 C663 0.961 . S
H679 C663 0.961 . S
H680 C664 0.931 . S
H681 C669 0.930 . S
H682 C670 0.956 . S
H683 C670 0.961 . S
H684 C670 0.961 . S
H685 C671 0.958 . S
H686 C671 0.961 . S
H687 C671 0.960 . S
C688 C689 1.391 . S
C688 C690 1.394 . S
C688 H704 0.931 . S
C689 C688 1.391 . S
C689 C693 1.376 . S
C690 C688 1.394 . S
C690 C691 1.369 . S
C690 C694 1.531 . S
C691 C690 1.369 . S
C691 C692 1.410 . S
C691 C699 1.503 . S
C692 C691 1.410 . S
C692 C693 1.392 . S
C692 C695 1.511 . S
C693 C689 1.376 . S
C693 C692 1.392 . S
C693 H705 0.929 . S
C694 C690 1.531 . S
C694 H706 0.960 . S
C694 H707 0.962 . S
C694 H708 0.960 . S
C695 C692 1.511 . S
C695 H709 0.961 . S
C695 H710 0.961 . S
C695 H711 0.961 . S
C696 C697 1.370 . S
C696 C698 1.363 . S
C696 H712 0.931 . S
C697 C696 1.370 . S
C697 C701 1.408 . S
C698 C696 1.363 . S
C698 C699 1.370 . S
C698 C702 1.524 . S
C699 C691 1.503 . S
C699 C698 1.370 . S
C699 C700 1.403 . S
C700 C699 1.403 . S
C700 C701 1.404 . S
C700 C703 1.539 . S
C701 C697 1.408 . S
C701 C700 1.404 . S
C701 H713 0.930 . S
C702 C698 1.524 . S
C702 H714 0.956 . S
C702 H715 0.961 . S
C702 H716 0.961 . S
C703 C700 1.539 . S
C703 H717 0.958 . S
C703 H718 0.961 1_455 S
C703 H719 0.960 . S
H704 C688 0.931 . S
H705 C693 0.929 . S
H706 C694 0.960 . S
H707 C694 0.962 . S
H708 C694 0.960 . S
H709 C695 0.961 . S
H710 C695 0.961 . S
H711 C695 0.961 . S
H712 C696 0.931 . S
H713 C701 0.930 . S
H714 C702 0.956 . S
H715 C702 0.961 . S
H716 C702 0.961 . S
H717 C703 0.958 . S
H718 C703 0.961 1_655 S
H719 C703 0.960 . S
C720 C721 1.391 . S
C720 C722 1.394 . S
C720 H736 0.931 1_565 S
C721 C720 1.391 . S
C721 C725 1.376 . S
C722 C720 1.394 . S
C722 C723 1.369 . S
C722 C726 1.531 1_566 S
C723 C722 1.369 . S
C723 C724 1.410 . S
C723 C731 1.503 . S
C724 C723 1.410 . S
C724 C725 1.392 . S
C724 C727 1.511 . S
C725 C721 1.376 . S
C725 C724 1.392 . S
C725 H737 0.929 . S
C726 C722 1.531 1_544 S
C726 H738 0.960 . S
C726 H739 0.962 . S
C726 H740 0.960 . S
C727 C724 1.511 . S
C727 H741 0.961 . S
C727 H742 0.961 . S
C727 H743 0.961 . S
C728 C729 1.370 . S
C728 C730 1.363 . S
C728 H744 0.931 . S
C729 C728 1.370 . S
C729 C733 1.408 1_564 S
C730 C728 1.363 . S
C730 C731 1.370 1_554 S
C730 C734 1.524 . S
C731 C723 1.503 . S
C731 C730 1.370 1_556 S
C731 C732 1.403 1_565 S
C732 C731 1.403 1_545 S
C732 C733 1.404 . S
C732 C735 1.539 . S
C733 C729 1.408 1_546 S
C733 C732 1.404 . S
C733 H745 0.930 . S
C734 C730 1.524 . S
C734 H746 0.956 . S
C734 H747 0.961 . S
C734 H748 0.961 . S
C735 C732 1.539 . S
C735 H749 0.958 . S
C735 H750 0.961 . S
C735 H751 0.960 . S
H736 C720 0.931 1_545 S
H737 C725 0.929 . S
H738 C726 0.960 . S
H739 C726 0.962 . S
H740 C726 0.960 . S
H741 C727 0.961 . S
H742 C727 0.961 . S
H743 C727 0.961 . S
H744 C728 0.931 . S
H745 C733 0.930 . S
H746 C734 0.956 . S
H747 C734 0.961 . S
H748 C734 0.961 . S
H749 C735 0.958 . S
H750 C735 0.961 . S
H751 C735 0.960 . S
C752 C753 1.391 . S
C752 C754 1.394 . S
C752 H768 0.931 . S
C753 C752 1.391 . S
C753 C757 1.376 . S
C754 C752 1.394 . S
C754 C755 1.369 . S
C754 C758 1.531 . S
C755 C754 1.369 . S
C755 C756 1.410 . S
C755 C763 1.503 . S
C756 C755 1.410 . S
C756 C757 1.392 . S
C756 C759 1.511 . S
C757 C753 1.376 . S
C757 C756 1.392 . S
C757 H769 0.929 . S
C758 C754 1.531 . S
C758 H770 0.960 . S
C758 H771 0.962 . S
C758 H772 0.960 . S
C759 C756 1.511 . S
C759 H773 0.961 . S
C759 H774 0.961 . S
C759 H775 0.961 . S
C760 C761 1.370 . S
C760 C762 1.363 . S
C760 H776 0.931 . S
C761 C760 1.370 . S
C761 C765 1.408 . S
C762 C760 1.363 . S
C762 C763 1.370 . S
C762 C766 1.524 . S
C763 C755 1.503 . S
C763 C762 1.370 . S
C763 C764 1.403 . S
C764 C763 1.403 . S
C764 C765 1.404 . S
C764 C767 1.539 . S
C765 C761 1.408 . S
C765 C764 1.404 . S
C765 H777 0.930 . S
C766 C762 1.524 . S
C766 H778 0.956 . S
C766 H779 0.961 . S
C766 H780 0.961 . S
C767 C764 1.539 . S
C767 H781 0.958 . S
C767 H782 0.961 . S
C767 H783 0.960 . S
H768 C752 0.931 . S
H769 C757 0.929 . S
H770 C758 0.960 . S
H771 C758 0.962 . S
H772 C758 0.960 . S
H773 C759 0.961 . S
H774 C759 0.961 . S
H775 C759 0.961 . S
H776 C760 0.931 . S
H777 C765 0.930 . S
H778 C766 0.956 . S
H779 C766 0.961 . S
H780 C766 0.961 . S
H781 C767 0.958 . S
H782 C767 0.961 . S
H783 C767 0.960 . S
C784 C785 1.391 . S
C784 C786 1.394 . S
C784 H800 0.931 . S
C785 C784 1.391 . S
C785 C789 1.376 . S
C786 C784 1.394 . S
C786 C787 1.369 . S
C786 C790 1.531 . S
C787 C786 1.369 . S
C787 C788 1.410 . S
C787 C795 1.503 . S
C788 C787 1.410 . S
C788 C789 1.392 . S
C788 C791 1.511 . S
C789 C785 1.376 . S
C789 C788 1.392 . S
C789 H801 0.929 . S
C790 C786 1.531 . S
C790 H802 0.960 . S
C790 H803 0.962 . S
C790 H804 0.960 . S
C791 C788 1.511 . S
C791 H805 0.961 . S
C791 H806 0.961 . S
C791 H807 0.961 . S
C792 C793 1.370 . S
C792 C794 1.363 . S
C792 H808 0.931 . S
C793 C792 1.370 . S
C793 C797 1.408 . S
C794 C792 1.363 . S
C794 C795 1.370 . S
C794 C798 1.524 . S
C795 C787 1.503 . S
C795 C794 1.370 . S
C795 C796 1.403 . S
C796 C795 1.403 . S
C796 C797 1.404 . S
C796 C799 1.539 . S
C797 C793 1.408 . S
C797 C796 1.404 . S
C797 H809 0.930 . S
C798 C794 1.524 . S
C798 H810 0.956 . S
C798 H811 0.961 . S
C798 H812 0.961 . S
C799 C796 1.539 . S
C799 H813 0.958 . S
C799 H814 0.961 1_554 S
C799 H815 0.960 . S
H800 C784 0.931 . S
H801 C789 0.929 . S
H802 C790 0.960 . S
H803 C790 0.962 . S
H804 C790 0.960 . S
H805 C791 0.961 . S
H806 C791 0.961 . S
H807 C791 0.961 . S
H808 C792 0.931 . S
H809 C797 0.930 . S
H810 C798 0.956 . S
H811 C798 0.961 . S
H812 C798 0.961 . S
H813 C799 0.958 . S
H814 C799 0.961 1_556 S
H815 C799 0.960 . S
C816 C817 1.391 . S
C816 C818 1.394 . S
C816 H832 0.931 . S
C817 C816 1.391 . S
C817 C821 1.376 . S
C818 C816 1.394 . S
C818 C819 1.369 . S
C818 C822 1.531 . S
C819 C818 1.369 . S
C819 C820 1.410 . S
C819 C827 1.503 . S
C820 C819 1.410 . S
C820 C821 1.392 . S
C820 C823 1.511 . S
C821 C817 1.376 . S
C821 C820 1.392 . S
C821 H833 0.929 . S
C822 C818 1.531 . S
C822 H834 0.960 . S
C822 H835 0.962 . S
C822 H836 0.960 . S
C823 C820 1.511 . S
C823 H837 0.961 . S
C823 H838 0.961 . S
C823 H839 0.961 . S
C824 C825 1.370 . S
C824 C826 1.363 . S
C824 H840 0.931 . S
C825 C824 1.370 . S
C825 C829 1.408 . S
C826 C824 1.363 . S
C826 C827 1.370 . S
C826 C830 1.524 . S
C827 C819 1.503 . S
C827 C826 1.370 . S
C827 C828 1.403 . S
C828 C827 1.403 . S
C828 C829 1.404 . S
C828 C831 1.539 . S
C829 C825 1.408 . S
C829 C828 1.404 . S
C829 H841 0.930 . S
C830 C826 1.524 . S
C830 H842 0.956 . S
C830 H843 0.961 . S
C830 H844 0.961 . S
C831 C828 1.539 . S
C831 H845 0.958 . S
C831 H846 0.961 . S
C831 H847 0.960 . S
H832 C816 0.931 . S
H833 C821 0.929 . S
H834 C822 0.960 . S
H835 C822 0.962 . S
H836 C822 0.960 . S
H837 C823 0.961 . S
H838 C823 0.961 . S
H839 C823 0.961 . S
H840 C824 0.931 . S
H841 C829 0.930 . S
H842 C830 0.956 . S
H843 C830 0.961 . S
H844 C830 0.961 . S
H845 C831 0.958 . S
H846 C831 0.961 . S
H847 C831 0.960 . S
C848 C849 1.391 . S
C848 C850 1.394 . S
C848 H864 0.931 . S
C849 C848 1.391 . S
C849 C853 1.376 . S
C850 C848 1.394 . S
C850 C851 1.369 . S
C850 C854 1.531 . S
C851 C850 1.369 . S
C851 C852 1.410 . S
C851 C859 1.503 . S
C852 C851 1.410 . S
C852 C853 1.392 . S
C852 C855 1.511 1_656 S
C853 C849 1.376 . S
C853 C852 1.392 . S
C853 H865 0.929 1_556 S
C854 C850 1.531 . S
C854 H866 0.960 . S
C854 H867 0.962 . S
C854 H868 0.960 . S
C855 C852 1.511 1_454 S
C855 H869 0.961 . S
C855 H870 0.961 . S
C855 H871 0.961 . S
C856 C857 1.370 1_554 S
C856 C858 1.363 . S
C856 H872 0.931 . S
C857 C856 1.370 1_556 S
C857 C861 1.408 1_655 S
C858 C856 1.363 . S
C858 C859 1.370 1_554 S
C858 C862 1.524 . S
C859 C851 1.503 . S
C859 C858 1.370 1_556 S
C859 C860 1.403 1_655 S
C860 C859 1.403 1_455 S
C860 C861 1.404 . S
C860 C863 1.539 . S
C861 C857 1.408 1_455 S
C861 C860 1.404 . S
C861 H873 0.930 . S
C862 C858 1.524 . S
C862 H874 0.956 . S
C862 H875 0.961 . S
C862 H876 0.961 . S
C863 C860 1.539 . S
C863 H877 0.958 . S
C863 H878 0.961 . S
C863 H879 0.960 . S
H864 C848 0.931 . S
H865 C853 0.929 1_554 S
H866 C854 0.960 . S
H867 C854 0.962 . S
H868 C854 0.960 . S
H869 C855 0.961 . S
H870 C855 0.961 . S
H871 C855 0.961 . S
H872 C856 0.931 . S
H873 C861 0.930 . S
H874 C862 0.956 . S
H875 C862 0.961 . S
H876 C862 0.961 . S
H877 C863 0.958 . S
H878 C863 0.961 . S
H879 C863 0.960 . S
C880 C881 1.391 . S
C880 C882 1.394 . S
C880 H896 0.931 . S
C881 C880 1.391 . S
C881 C885 1.376 . S
C882 C880 1.394 . S
C882 C883 1.369 . S
C882 C886 1.531 . S
C883 C882 1.369 . S
C883 C884 1.410 . S
C883 C891 1.503 . S
C884 C883 1.410 . S
C884 C885 1.392 . S
C884 C887 1.511 . S
C885 C881 1.376 . S
C885 C884 1.392 . S
C885 H897 0.929 . S
C886 C882 1.531 . S
C886 H898 0.960 . S
C886 H899 0.962 . S
C886 H900 0.960 . S
C887 C884 1.511 . S
C887 H901 0.961 . S
C887 H902 0.961 . S
C887 H903 0.961 . S
C888 C889 1.370 . S
C888 C890 1.363 . S
C888 H904 0.931 . S
C889 C888 1.370 . S
C889 C893 1.408 . S
C890 C888 1.363 . S
C890 C891 1.370 . S
C890 C894 1.524 . S
C891 C883 1.503 . S
C891 C890 1.370 . S
C891 C892 1.403 . S
C892 C891 1.403 . S
C892 C893 1.404 . S
C892 C895 1.539 . S
C893 C889 1.408 . S
C893 C892 1.404 . S
C893 H905 0.930 . S
C894 C890 1.524 . S
C894 H906 0.956 . S
C894 H907 0.961 . S
C894 H908 0.961 . S
C895 C892 1.539 . S
C895 H909 0.958 . S
C895 H910 0.961 . S
C895 H911 0.960 . S
H896 C880 0.931 . S
H897 C885 0.929 . S
H898 C886 0.960 . S
H899 C886 0.962 . S
H900 C886 0.960 . S
H901 C887 0.961 . S
H902 C887 0.961 . S
H903 C887 0.961 . S
H904 C888 0.931 . S
H905 C893 0.930 . S
H906 C894 0.956 . S
H907 C894 0.961 . S
H908 C894 0.961 . S
H909 C895 0.958 . S
H910 C895 0.961 . S
H911 C895 0.960 . S
C912 C913 1.391 . S
C912 C914 1.394 . S
C912 H928 0.931 . S
C913 C912 1.391 . S
C913 C917 1.376 . S
C914 C912 1.394 . S
C914 C915 1.369 . S
C914 C918 1.531 . S
C915 C914 1.369 . S
C915 C916 1.410 . S
C915 C923 1.503 . S
C916 C915 1.410 . S
C916 C917 1.392 . S
C916 C919 1.511 1_455 S
C917 C913 1.376 . S
C917 C916 1.392 . S
C917 H929 0.929 . S
C918 C914 1.531 . S
C918 H930 0.960 . S
C918 H931 0.962 . S
C918 H932 0.960 . S
C919 C916 1.511 1_655 S
C919 H933 0.961 . S
C919 H934 0.961 . S
C919 H935 0.961 . S
C920 C921 1.370 . S
C920 C922 1.363 . S
C920 H936 0.931 . S
C921 C920 1.370 . S
C921 C925 1.408 . S
C922 C920 1.363 . S
C922 C923 1.370 . S
C922 C926 1.524 . S
C923 C915 1.503 . S
C923 C922 1.370 . S
C923 C924 1.403 . S
C924 C923 1.403 . S
C924 C925 1.404 . S
C924 C927 1.539 . S
C925 C921 1.408 . S
C925 C924 1.404 . S
C925 H937 0.930 . S
C926 C922 1.524 . S
C926 H938 0.956 . S
C926 H939 0.961 . S
C926 H940 0.961 . S
C927 C924 1.539 . S
C927 H941 0.958 . S
C927 H942 0.961 1_455 S
C927 H943 0.960 . S
H928 C912 0.931 . S
H929 C917 0.929 . S
H930 C918 0.960 . S
H931 C918 0.962 . S
H932 C918 0.960 . S
H933 C919 0.961 . S
H934 C919 0.961 . S
H935 C919 0.961 . S
H936 C920 0.931 . S
H937 C925 0.930 . S
H938 C926 0.956 . S
H939 C926 0.961 . S
H940 C926 0.961 . S
H941 C927 0.958 . S
H942 C927 0.961 1_655 S
H943 C927 0.960 . S
C944 C945 1.391 . S
C944 C946 1.394 . S
C944 H960 0.931 . S
C945 C944 1.391 . S
C945 C949 1.376 . S
C946 C944 1.394 . S
C946 C947 1.369 . S
C946 C950 1.531 . S
C947 C946 1.369 . S
C947 C948 1.410 . S
C947 C955 1.503 . S
C948 C947 1.410 . S
C948 C949 1.392 . S
C948 C951 1.511 . S
C949 C945 1.376 . S
C949 C948 1.392 . S
C949 H961 0.929 . S
C950 C946 1.531 . S
C950 H962 0.960 . S
C950 H963 0.962 . S
C950 H964 0.960 . S
C951 C948 1.511 . S
C951 H965 0.961 . S
C951 H966 0.961 . S
C951 H967 0.961 . S
C952 C953 1.370 . S
C952 C954 1.363 . S
C952 H968 0.931 . S
C953 C952 1.370 . S
C953 C957 1.408 . S
C954 C952 1.363 . S
C954 C955 1.370 . S
C954 C958 1.524 . S
C955 C947 1.503 . S
C955 C954 1.370 . S
C955 C956 1.403 . S
C956 C955 1.403 . S
C956 C957 1.404 . S
C956 C959 1.539 . S
C957 C953 1.408 . S
C957 C956 1.404 . S
C957 H969 0.930 . S
C958 C954 1.524 . S
C958 H970 0.956 . S
C958 H971 0.961 . S
C958 H972 0.961 . S
C959 C956 1.539 . S
C959 H973 0.958 . S
C959 H974 0.961 . S
C959 H975 0.960 . S
H960 C944 0.931 . S
H961 C949 0.929 . S
H962 C950 0.960 . S
H963 C950 0.962 . S
H964 C950 0.960 . S
H965 C951 0.961 . S
H966 C951 0.961 . S
H967 C951 0.961 . S
H968 C952 0.931 . S
H969 C957 0.930 . S
H970 C958 0.956 . S
H971 C958 0.961 . S
H972 C958 0.961 . S
H973 C959 0.958 . S
H974 C959 0.961 . S
H975 C959 0.960 . S
C209 C5 2.351 . S
C217 C104 2.495 . S
C241 C18 1.149 . S
C249 N124 1.155 . S
C281 C158 1.763 . S
C273 C30 1.732 . S
C305 C41 1.094 . S
C313 N192 1.070 . S
C345 C145 2.625 . S
C337 C7 2.562 . S
C377 N102 1.320 . S
C369 C16 1.141 . S
C409 C179 2.059 1_556 S
C401 C29 1.936 . S
C441 N154 0.724 . S
C433 C38 0.721 . S
C465 C8 1.923 . S
C473 C194 1.927 . S
C505 C128 1.845 . S
C497 C27 1.583 . S
C529 C40 1.396 . S
C537 C89 1.385 . S
C561 C19 1.058 . S
C569 C175 1.054 . S
C601 C115 2.233 . S
C593 C51 2.128 . S
C625 C62 1.137 . S
C633 N132 1.233 . S
C657 C74 1.801 . S
C665 C149 1.858 . S
C689 C84 1.149 . S
C697 N184 1.120 . S
C721 C49 2.497 . S
C729 C134 2.653 1_565 S
C761 N94 1.091 . S
C753 C63 1.075 . S
C793 C188 1.883 . S
C785 C71 1.572 . S
C825 N162 0.782 . S
C817 C85 0.761 . S
C849 C52 1.852 . S
C857 C205 1.865 1_656 S
C889 C119 1.940 . S
C881 C73 1.838 . S
C921 C98 1.231 . S
C913 C82 0.927 . S
C945 C60 1.255 . S
C953 C164 1.603 . S
