# Generated by pormake.
# Topology apo, (3,6)-cn, num edge types: 1
# Building blocks:
#     Node 0, Type 0, BuildingBlock: OLANEW_clean_sbu_2, # of connection points: 3
#     Node 1, Type 0, BuildingBlock: OLANEW_clean_sbu_2, # of connection points: 3
#     Node 2, Type 0, BuildingBlock: OLANEW_clean_sbu_2, # of connection points: 3
#     Node 3, Type 0, BuildingBlock: OLANEW_clean_sbu_2, # of connection points: 3
#     Node 4, Type 0, BuildingBlock: OLANEW_clean_sbu_2, # of connection points: 3
#     Node 5, Type 0, BuildingBlock: OLANEW_clean_sbu_2, # of connection points: 3
#     Node 6, Type 0, BuildingBlock: OLANEW_clean_sbu_2, # of connection points: 3
#     Node 7, Type 0, BuildingBlock: OLANEW_clean_sbu_2, # of connection points: 3
#     Node 8, Type 1, BuildingBlock: MIDCAF_clean_sbu_0, # of connection points: 6
#     Node 9, Type 1, BuildingBlock: MIDCAF_clean_sbu_0, # of connection points: 6
#     Node 10, Type 1, BuildingBlock: MIDCAF_clean_sbu_0, # of connection points: 6
#     Node 11, Type 1, BuildingBlock: MIDCAF_clean_sbu_0, # of connection points: 6
#     Edge 12, Type (0, 1), BuildingBlock: ZUJKAS_clean_linker_0, # of connection points: 2
#     Edge 13, Type (0, 1), BuildingBlock: ZUJKAS_clean_linker_0, # of connection points: 2
#     Edge 14, Type (0, 1), BuildingBlock: ZUJKAS_clean_linker_0, # of connection points: 2
#     Edge 15, Type (0, 1), BuildingBlock: ZUJKAS_clean_linker_0, # of connection points: 2
#     Edge 16, Type (0, 1), BuildingBlock: ZUJKAS_clean_linker_0, # of connection points: 2
#     Edge 17, Type (0, 1), BuildingBlock: ZUJKAS_clean_linker_0, # of connection points: 2
#     Edge 18, Type (0, 1), BuildingBlock: ZUJKAS_clean_linker_0, # of connection points: 2
#     Edge 19, Type (0, 1), BuildingBlock: ZUJKAS_clean_linker_0, # of connection points: 2
#     Edge 20, Type (0, 1), BuildingBlock: ZUJKAS_clean_linker_0, # of connection points: 2
#     Edge 21, Type (0, 1), BuildingBlock: ZUJKAS_clean_linker_0, # of connection points: 2
#     Edge 22, Type (0, 1), BuildingBlock: ZUJKAS_clean_linker_0, # of connection points: 2
#     Edge 23, Type (0, 1), BuildingBlock: ZUJKAS_clean_linker_0, # of connection points: 2
#     Edge 24, Type (0, 1), BuildingBlock: ZUJKAS_clean_linker_0, # of connection points: 2
#     Edge 25, Type (0, 1), BuildingBlock: ZUJKAS_clean_linker_0, # of connection points: 2
#     Edge 26, Type (0, 1), BuildingBlock: ZUJKAS_clean_linker_0, # of connection points: 2
#     Edge 27, Type (0, 1), BuildingBlock: ZUJKAS_clean_linker_0, # of connection points: 2
#     Edge 28, Type (0, 1), BuildingBlock: ZUJKAS_clean_linker_0, # of connection points: 2
#     Edge 29, Type (0, 1), BuildingBlock: ZUJKAS_clean_linker_0, # of connection points: 2
#     Edge 30, Type (0, 1), BuildingBlock: ZUJKAS_clean_linker_0, # of connection points: 2
#     Edge 31, Type (0, 1), BuildingBlock: ZUJKAS_clean_linker_0, # of connection points: 2
#     Edge 32, Type (0, 1), BuildingBlock: ZUJKAS_clean_linker_0, # of connection points: 2
#     Edge 33, Type (0, 1), BuildingBlock: ZUJKAS_clean_linker_0, # of connection points: 2
#     Edge 34, Type (0, 1), BuildingBlock: ZUJKAS_clean_linker_0, # of connection points: 2
#     Edge 35, Type (0, 1), BuildingBlock: ZUJKAS_clean_linker_0, # of connection points: 2
# Relax obj value: 0.030
# Max RMSD: 0.083
# Mean RMSD: 0.071
data_MOF--net-apo--node1-OLANEW_clean_sbu_2--node2-MIDCAF_clean_sbu_0--edge1-ZUJKAS_clean_linker_0
_symmetry_space_group_name_H-M    P1
_symmetry_Int_Tables_number       1
_symmetry_cell_setting            triclinic
loop_
_symmetry_equiv_pos_as_xyz
'x, y, z'
_cell_length_a     49.588523
_cell_length_b     55.62871
_cell_length_c     48.748989
_cell_angle_alpha  88.680394
_cell_angle_beta   89.849713
_cell_angle_gamma 90.162317
loop_
_atom_site_label
_atom_site_type_symbol
_atom_site_fract_x
_atom_site_fract_y
_atom_site_fract_z
_atom_type_partial_charge
O0 O 0.37378 0.3318 0.33639 0.0
Cd1 Cd 0.34766 0.29664 0.35149 0.0
O2 O 0.37768 0.33748 0.38037 0.0
Cd3 Cd 0.38694 0.35441 0.41944 0.0
O4 O 0.39139 0.36068 0.46343 0.0
C5 C 0.37322 0.35324 0.48008 0.0
O6 O 0.35175 0.34254 0.47032 0.0
C7 C 0.38283 0.34435 0.35581 0.0
C8 C 0.3115 0.27829 0.31356 0.0
O9 O 0.30544 0.29659 0.32781 0.0
O10 O 0.335 0.26907 0.31663 0.0
O11 O 0.20172 0.19787 0.93593 0.0
Cd12 Cd 0.20639 0.19476 0.88592 0.0
O13 O 0.19954 0.15843 0.93978 0.0
Cd14 Cd 0.19618 0.15164 0.89594 0.0
O15 O 0.17618 0.13519 0.86109 0.0
C16 C 0.15063 0.13367 0.86259 0.0
O17 O 0.13834 0.14304 0.88372 0.0
C18 C 0.20027 0.17888 0.95094 0.0
C19 C 0.24906 0.221 0.86247 0.0
O20 O 0.22496 0.22927 0.86203 0.0
O21 O 0.25307 0.20053 0.87434 0.0
O22 O 0.86076 0.16959 0.65549 0.0
Cd23 Cd 0.8381 0.20365 0.63288 0.0
O24 O 0.89956 0.17558 0.63411 0.0
Cd25 Cd 0.88467 0.19951 0.60119 0.0
O26 O 0.88698 0.20671 0.55673 0.0
C27 C 0.87824 0.19068 0.54079 0.0
O28 O 0.86639 0.17152 0.55159 0.0
C29 C 0.88557 0.16455 0.65235 0.0
C30 C 0.80178 0.22611 0.66822 0.0
O31 O 0.79415 0.20909 0.65271 0.0
O32 O 0.82661 0.23252 0.6671 0.0
O33 O 0.68371 0.26659 0.08076 0.0
Cd34 Cd 0.68517 0.2619 0.13098 0.0
O35 O 0.65521 0.29438 0.0921 0.0
Cd36 Cd 0.62487 0.3229 0.09009 0.0
O37 O 0.59951 0.35167 0.10578 0.0
C38 C 0.58409 0.34732 0.12621 0.0
O39 O 0.58284 0.32531 0.1365 0.0
C40 C 0.66767 0.28329 0.07338 0.0
C41 C 0.73262 0.24388 0.15406 0.0
O42 O 0.71277 0.22993 0.14876 0.0
O43 O 0.73032 0.26629 0.14776 0.0
O44 O 0.62741 0.69315 0.71407 0.0
Cd45 Cd 0.63547 0.73646 0.71102 0.0
O46 O 0.63261 0.69029 0.66966 0.0
Cd47 Cd 0.63578 0.67479 0.62868 0.0
O48 O 0.63701 0.6687 0.58436 0.0
C49 C 0.62739 0.68508 0.56863 0.0
O50 O 0.61735 0.70445 0.57966 0.0
C51 C 0.62737 0.68028 0.69284 0.0
C52 C 0.68603 0.75047 0.73 0.0
O53 O 0.66583 0.74875 0.7464 0.0
O54 O 0.68234 0.7452 0.70482 0.0
O55 O 0.86367 0.83248 0.18393 0.0
Cd56 Cd 0.84291 0.79642 0.16542 0.0
O57 O 0.86286 0.8541 0.1454 0.0
Cd58 Cd 0.84825 0.82714 0.11691 0.0
O59 O 0.85167 0.81591 0.07417 0.0
C60 C 0.84248 0.82976 0.05531 0.0
O61 O 0.82934 0.84918 0.06231 0.0
C62 C 0.86836 0.85209 0.17084 0.0
C63 C 0.79665 0.78141 0.19412 0.0
O64 O 0.82024 0.77647 0.20327 0.0
O65 O 0.79486 0.79367 0.17162 0.0
O66 O 0.12841 0.80368 0.27929 0.0
Cd67 Cd 0.14201 0.76139 0.28099 0.0
O68 O 0.13175 0.80511 0.324 0.0
Cd69 Cd 0.12761 0.81875 0.36576 0.0
O70 O 0.12451 0.82498 0.40995 0.0
C71 C 0.10735 0.81277 0.42386 0.0
O72 O 0.09203 0.79728 0.41115 0.0
C73 C 0.1259 0.81545 0.3012 0.0
C74 C 0.19483 0.75175 0.26452 0.0
O75 O 0.17556 0.75243 0.24705 0.0
O76 O 0.18921 0.75626 0.28957 0.0
O77 O 0.31966 0.63674 0.79355 0.0
Cd78 Cd 0.2781 0.65608 0.80882 0.0
O79 O 0.33082 0.63968 0.83656 0.0
Cd80 Cd 0.35154 0.63765 0.87635 0.0
O81 O 0.36269 0.63784 0.91984 0.0
C82 C 0.37477 0.65583 0.92979 0.0
O83 O 0.38111 0.67412 0.91347 0.0
C84 C 0.33653 0.6324 0.81262 0.0
C85 C 0.24935 0.68475 0.77139 0.0
O86 O 0.26819 0.69362 0.78606 0.0
O87 O 0.24488 0.66207 0.77357 0.0
Zn88 Zn 0.05723 0.11056 0.29514 0.0
Zn89 Zn 0.01562 0.10768 0.19408 0.0
Zn90 Zn 0.03343 0.11187 0.24479 0.0
C91 C 0.06613 0.12696 0.18845 0.0
C92 C 0.01039 0.06266 0.21769 0.0
O93 O 0.00627 0.13216 0.27171 0.0
O94 O 0.02827 0.13077 0.3113 0.0
C95 C 0.09235 0.13419 0.25812 0.0
O96 O 0.06281 0.12819 0.21465 0.0
O97 O 0.04893 0.11643 0.17395 0.0
O98 O 0.00428 0.07343 0.19552 0.0
O99 O 0.02237 0.07405 0.23692 0.0
O100 O 0.09138 0.12638 0.28264 0.0
O101 O 0.0726 0.13059 0.24157 0.0
O102 O 0.03988 0.07422 0.25962 0.0
O103 O 0.05718 0.07505 0.30142 0.0
C104 C 0.04913 0.06321 0.28121 0.0
O105 O 0.99574 0.13239 0.24463 0.0
O106 O 0.98785 0.1331 0.19992 0.0
C107 C 0.00827 0.13762 0.29715 0.0
C108 C 0.9819 0.13979 0.22381 0.0
Zn109 Zn 0.55154 0.38339 0.72444 0.0
Zn110 Zn 0.51617 0.39609 0.82352 0.0
Zn111 Zn 0.53214 0.38794 0.77449 0.0
C112 C 0.51447 0.44027 0.79857 0.0
C113 C 0.47818 0.36494 0.79958 0.0
O114 O 0.5698 0.3661 0.77742 0.0
O115 O 0.58028 0.36028 0.73388 0.0
C116 C 0.55404 0.43204 0.73516 0.0
O117 O 0.52514 0.4274 0.77969 0.0
O118 O 0.50796 0.4306 0.82128 0.0
O119 O 0.485 0.3736 0.82228 0.0
O120 O 0.49272 0.36922 0.77804 0.0
O121 O 0.56093 0.4177 0.71671 0.0
O122 O 0.54227 0.42404 0.75719 0.0
O123 O 0.50016 0.37024 0.75008 0.0
O124 O 0.5184 0.37024 0.70856 0.0
C125 C 0.49871 0.3657 0.7243 0.0
O126 O 0.56131 0.37093 0.80414 0.0
O127 O 0.54867 0.38601 0.84369 0.0
C128 C 0.58475 0.3564 0.75905 0.0
C129 C 0.56496 0.3736 0.8301 0.0
Zn130 Zn 0.03002 0.87853 0.78832 0.0
Zn131 Zn 0.9625 0.8834 0.70273 0.0
Zn132 Zn 0.9967 0.88232 0.74554 0.0
C133 C 0.9741 0.93133 0.71745 0.0
C134 C 0.93605 0.85965 0.74577 0.0
O135 O 0.03203 0.8604 0.73331 0.0
O136 O 0.05882 0.86059 0.76954 0.0
C137 C 0.02472 0.92759 0.77461 0.0
O138 O 0.98922 0.92068 0.73542 0.0
O139 O 0.96063 0.91918 0.70067 0.0
O140 O 0.93275 0.86524 0.72079 0.0
O141 O 0.95812 0.86495 0.75819 0.0
O142 O 0.03493 0.91366 0.79255 0.0
O143 O 0.00986 0.91915 0.75541 0.0
O144 O 0.97524 0.86489 0.78095 0.0
O145 O 0.00564 0.86056 0.81388 0.0
C146 C 0.98186 0.85768 0.80536 0.0
O147 O 0.01586 0.86448 0.71004 0.0
O148 O 0.98583 0.86645 0.67651 0.0
C149 C 0.05416 0.85417 0.74534 0.0
C150 C 0.00883 0.86028 0.68513 0.0
Zn151 Zn 0.53832 0.61677 0.2109 0.0
Zn152 Zn 0.47724 0.63004 0.29731 0.0
Zn153 Zn 0.50767 0.62197 0.25399 0.0
C154 C 0.52827 0.64723 0.30978 0.0
C155 C 0.48023 0.57992 0.2909 0.0
O156 O 0.48582 0.63711 0.21784 0.0
O157 O 0.51462 0.63287 0.18352 0.0
C158 C 0.56893 0.64365 0.24564 0.0
O159 O 0.53278 0.64047 0.28503 0.0
O160 O 0.50516 0.64467 0.32034 0.0
O161 O 0.46763 0.59556 0.30423 0.0
O162 O 0.49686 0.58637 0.27173 0.0
O163 O 0.57048 0.63404 0.22252 0.0
O164 O 0.54728 0.64111 0.26024 0.0
O165 O 0.5119 0.58274 0.24757 0.0
O166 O 0.53967 0.58128 0.21205 0.0
C167 C 0.52552 0.57061 0.23013 0.0
O168 O 0.47075 0.64251 0.24136 0.0
O169 O 0.45044 0.65162 0.28028 0.0
C170 C 0.49197 0.63968 0.19221 0.0
C171 C 0.45167 0.65309 0.25447 0.0
H172 H 0.13581 0.85262 0.33603 0.0
H173 H 0.11826 0.89366 0.33261 0.0
H174 H 0.07623 0.87609 0.25837 0.0
H175 H 0.09299 0.83485 0.26213 0.0
H176 H 0.12693 0.92639 0.28915 0.0
H177 H 0.01744 0.90869 0.30368 0.0
H178 H 0.04289 0.88668 0.3125 0.0
H179 H 0.03315 0.89152 0.27732 0.0
C180 C 0.12222 0.85726 0.31945 0.0
C181 C 0.1153 0.84031 0.29972 0.0
C182 C 0.11245 0.88081 0.31733 0.0
C183 C 0.09551 0.88779 0.29552 0.0
C184 C 0.08874 0.87095 0.2757 0.0
H185 H 0.05931 0.03368 0.23844 0.0
H186 H 0.06799 0.99029 0.24072 0.0
C187 C 0.09855 0.84745 0.27777 0.0
C188 C 0.08624 0.91305 0.29265 0.0
H189 H 0.03003 0.94851 0.29022 0.0
C190 C 0.10576 0.93122 0.28944 0.0
C191 C 0.05857 0.91928 0.29297 0.0
C192 C 0.03676 0.90057 0.29703 0.0
C193 C 0.09835 0.95545 0.28642 0.0
C194 C 0.07075 0.96163 0.28662 0.0
C195 C 0.05117 0.94357 0.2899 0.0
C196 C 0.06219 0.98703 0.28462 0.0
C197 C 0.12002 0.97441 0.28334 0.0
C198 C 0.05551 0.99928 0.30848 0.0
C199 C 0.05048 0.02399 0.30724 0.0
C200 C 0.05177 0.03675 0.28205 0.0
C201 C 0.05766 0.02423 0.25804 0.0
C202 C 0.06276 -0.00048 0.25931 0.0
H203 H 0.14059 0.96685 0.28598 0.0
H204 H 0.11869 0.98303 0.26262 0.0
H205 H 0.11695 0.98865 0.29863 0.0
H206 H 0.0551 0.98988 0.32819 0.0
H207 H 0.04604 0.0332 0.32606 0.0
H208 H 0.37038 0.60903 0.84917 0.0
H209 H 0.40864 0.5835 0.83881 0.0
H210 H 0.3961 0.59638 0.75229 0.0
H211 H 0.35808 0.62271 0.76251 0.0
H212 H 0.39747 0.54692 0.77009 0.0
H213 H 0.48576 0.59755 0.80794 0.0
H214 H 0.45786 0.59596 0.83153 0.0
H215 H 0.4541 0.61182 0.79923 0.0
C216 C 0.37623 0.60732 0.828 0.0
C217 C 0.36131 0.61841 0.80677 0.0
C218 C 0.39813 0.59253 0.82207 0.0
C219 C 0.4055 0.58837 0.79479 0.0
C220 C 0.39094 0.59959 0.7735 0.0
H221 H 0.50327 0.46308 0.74928 0.0
H222 H 0.48188 0.50249 0.74276 0.0
C223 C 0.36916 0.61457 0.77942 0.0
C224 C 0.42642 0.57025 0.78872 0.0
H225 H 0.49192 0.55528 0.80183 0.0
C226 C 0.41829 0.54886 0.77648 0.0
C227 C 0.45349 0.57292 0.79712 0.0
C228 C 0.46347 0.59589 0.80947 0.0
C229 C 0.43601 0.52937 0.77414 0.0
C230 C 0.46289 0.53163 0.78361 0.0
C231 C 0.47139 0.55356 0.79449 0.0
C232 C 0.48105 0.51048 0.78603 0.0
C233 C 0.42516 0.50602 0.76337 0.0
C234 C 0.48956 0.50274 0.81218 0.0
C235 C 0.50236 0.48062 0.81584 0.0
C236 C 0.50692 0.4657 0.79342 0.0
C237 C 0.50027 0.47424 0.76693 0.0
C238 C 0.48768 0.49661 0.76323 0.0
H239 H 0.4028 0.50598 0.76204 0.0
H240 H 0.4333 0.50323 0.74246 0.0
H241 H 0.43144 0.49059 0.7767 0.0
H242 H 0.48485 0.51316 0.83007 0.0
H243 H 0.50739 0.47462 0.83649 0.0
H244 H 0.60605 0.65008 0.6544 0.0
H245 H 0.59368 0.60777 0.66092 0.0
H246 H 0.61921 0.61005 0.74533 0.0
H247 H 0.63282 0.65199 0.7386 0.0
H248 H 0.63633 0.5695 0.72059 0.0
H249 H 0.52714 0.58341 0.70147 0.0
H250 H 0.54838 0.59371 0.67372 0.0
H251 H 0.55025 0.60805 0.70635 0.0
C252 C 0.60976 0.64145 0.6741 0.0
C253 C 0.62091 0.65434 0.69581 0.0
C254 C 0.60213 0.61736 0.67798 0.0
C255 C 0.60511 0.60586 0.70375 0.0
C256 C 0.61661 0.61858 0.7253 0.0
H257 H 0.56516 0.46491 0.77446 0.0
H258 H 0.57661 0.50755 0.76734 0.0
C259 C 0.62434 0.64257 0.72142 0.0
C260 C 0.59644 0.58054 0.7084 0.0
H261 H 0.54189 0.54292 0.70634 0.0
C262 C 0.61566 0.56372 0.71757 0.0
C263 C 0.5694 0.57306 0.70461 0.0
C264 C 0.54752 0.59052 0.69626 0.0
C265 C 0.60869 0.53956 0.72263 0.0
C266 C 0.58178 0.53208 0.71855 0.0
C267 C 0.56252 0.54881 0.7094 0.0
C268 C 0.57348 0.50676 0.72311 0.0
C269 C 0.63017 0.52204 0.73189 0.0
C270 C 0.56748 0.49246 0.70062 0.0
C271 C 0.56092 0.4682 0.70463 0.0
C272 C 0.55987 0.45794 0.73123 0.0
C273 C 0.56545 0.47243 0.75377 0.0
C274 C 0.57216 0.49669 0.74974 0.0
H275 H 0.65076 0.52985 0.72999 0.0
H276 H 0.62664 0.51683 0.75372 0.0
H277 H 0.6292 0.50545 0.7197 0.0
H278 H 0.56839 0.49998 0.67994 0.0
H279 H 0.55669 0.45745 0.68689 0.0
H280 H 0.89476 0.85135 0.2203 0.0
H281 H 0.92068 0.88417 0.2405 0.0
H282 H 0.89887 0.93097 0.17246 0.0
H283 H 0.87315 0.89848 0.15215 0.0
H284 H 0.96518 0.90954 0.21342 0.0
H285 H 0.88205 0.97051 0.2418 0.0
H286 H 0.87694 0.9388 0.23627 0.0
H287 H 0.87909 0.95961 0.20755 0.0
C288 C 0.89516 0.86874 0.20986 0.0
C289 C 0.88187 0.87231 0.18461 0.0
C290 C 0.91005 0.88741 0.22139 0.0
C291 C 0.91145 0.91001 0.20809 0.0
C292 C 0.89771 0.91375 0.18325 0.0
H293 H 0.00902 0.0278 0.17967 0.0
H294 H 0.98886 0.98774 0.18465 0.0
C295 C 0.8831 0.89511 0.17161 0.0
C296 C 0.92846 0.92952 0.21893 0.0
H297 H 0.92578 0.98878 0.23512 0.0
C298 C 0.9566 0.92672 0.21881 0.0
C299 C 0.91723 0.95177 0.22638 0.0
C300 C 0.88715 0.95534 0.2283 0.0
C301 C 0.9738 0.94626 0.22377 0.0
C302 C 0.96248 0.96903 0.22872 0.0
C303 C 0.9344 0.97131 0.23108 0.0
C304 C 0.97887 0.99128 0.22761 0.0
C305 C 0.00391 0.94268 0.2226 0.0
C306 C 0.98022 0.00639 0.25023 0.0
C307 C 0.9919 0.02925 0.24744 0.0
C308 C 0.00199 0.03739 0.22189 0.0
C309 C 0.00143 0.0219 0.19958 0.0
C310 C 0.99012 0.99899 0.20246 0.0
H311 H 0.00941 0.92367 0.2272 0.0
H312 H 0.01123 0.94743 0.20163 0.0
H313 H 0.01443 0.95443 0.23729 0.0
H314 H 0.97137 0.00082 0.26971 0.0
H315 H 0.9918 0.04099 0.26486 0.0
H316 H 0.86069 0.12425 0.6728 0.0
H317 H 0.88201 0.0885 0.69272 0.0
H318 H 0.9595 0.12402 0.68863 0.0
H319 H 0.93834 0.15927 0.66695 0.0
H320 H 0.96539 0.08337 0.66932 0.0
H321 H 0.90855 0.06745 0.7649 0.0
H322 H 0.885 0.06934 0.73721 0.0
H323 H 0.90542 0.09517 0.74524 0.0
C324 C 0.88219 0.1246 0.67668 0.0
C325 C 0.89787 0.14451 0.6683 0.0
C326 C 0.89438 0.10418 0.68834 0.0
C327 C 0.9224 0.10356 0.69278 0.0
C328 C 0.93788 0.12396 0.68552 0.0
H329 H 0.97755 0.9632 0.75954 0.0
H330 H 0.97118 0.00695 0.75671 0.0
C331 C 0.92578 0.14413 0.67317 0.0
C332 C 0.93576 0.08075 0.7018 0.0
H333 H 0.92788 0.03155 0.74429 0.0
C334 C 0.9575 0.07235 0.68616 0.0
C335 C 0.92625 0.06642 0.72423 0.0
C336 C 0.90524 0.07527 0.744 0.0
C337 C 0.96854 0.04947 0.691 0.0
C338 C 0.95678 0.03406 0.71122 0.0
C339 C 0.9365 0.04308 0.72829 0.0
C340 C 0.96326 0.008 0.71301 0.0
C341 C 0.99247 0.04198 0.67405 0.0
C342 C 0.96089 0.99401 0.68954 0.0
C343 C 0.96525 0.96928 0.69101 0.0
C344 C 0.97169 0.95782 0.7161 0.0
C345 C 0.97368 0.97168 0.73975 0.0
C346 C 0.96968 0.99662 0.7382 0.0
H347 H 0.00527 0.05777 0.66839 0.0
H348 H 0.0051 0.02851 0.68517 0.0
H349 H 0.98524 0.03409 0.6547 0.0
H350 H 0.95496 0.00212 0.67007 0.0
H351 H 0.96314 0.95903 0.6725 0.0
H352 H 0.5855 0.39526 0.11258 0.0
H353 H 0.56523 0.42824 0.13749 0.0
H354 H 0.52951 0.3775 0.1952 0.0
H355 H 0.55014 0.34429 0.17063 0.0
H356 H 0.51163 0.43888 0.15091 0.0
H357 H 0.57377 0.42151 0.2443 0.0
H358 H 0.58107 0.40763 0.21205 0.0
H359 H 0.55323 0.3971 0.23269 0.0
C360 C 0.57319 0.39104 0.13045 0.0
C361 C 0.56969 0.36713 0.13976 0.0
C362 C 0.56156 0.40993 0.14464 0.0
C363 C 0.54619 0.40534 0.16843 0.0
C364 C 0.5417 0.38146 0.17718 0.0
H365 H 0.48161 0.54068 0.23519 0.0
H366 H 0.48077 0.49719 0.2266 0.0
C367 C 0.55342 0.36251 0.16302 0.0
C368 C 0.53609 0.42583 0.18441 0.0
H369 H 0.54775 0.45655 0.24308 0.0
C370 C 0.51904 0.44256 0.17131 0.0
C371 C 0.54581 0.4305 0.21104 0.0
C372 C 0.56462 0.41338 0.2259 0.0
C373 C 0.51284 0.46457 0.18335 0.0
C374 C 0.52374 0.46979 0.20935 0.0
C375 C 0.5393 0.45237 0.22325 0.0
C376 C 0.52381 0.49464 0.21966 0.0
C377 C 0.4964 0.48279 0.16726 0.0
C378 C 0.54835 0.50721 0.21992 0.0
C379 C 0.54885 0.53173 0.22498 0.0
C380 C 0.52487 0.54415 0.23017 0.0
C381 C 0.5004 0.53138 0.23153 0.0
C382 C 0.49988 0.50666 0.22641 0.0
H383 H 0.49188 0.47681 0.14617 0.0
H384 H 0.477 0.48582 0.17801 0.0
H385 H 0.50728 0.50025 0.16579 0.0
H386 H 0.56703 0.49831 0.21473 0.0
H387 H 0.56795 0.54123 0.22376 0.0
H388 H 0.37849 0.37325 0.31037 0.0
H389 H 0.4024 0.4108 0.30009 0.0
H390 H 0.44627 0.4032 0.3761 0.0
H391 H 0.42198 0.36572 0.3867 0.0
H392 H 0.4273 0.4469 0.37051 0.0
H393 H 0.47716 0.42453 0.27308 0.0
H394 H 0.44158 0.41918 0.27103 0.0
H395 H 0.46162 0.4019 0.29512 0.0
C396 C 0.39338 0.37948 0.32481 0.0
C397 C 0.39806 0.36672 0.34955 0.0
C398 C 0.40726 0.40085 0.31877 0.0
C399 C 0.42656 0.40964 0.33704 0.0
C400 C 0.43153 0.39674 0.36163 0.0
H401 H 0.51591 0.54234 0.29086 0.0
H402 H 0.50635 0.5 0.30315 0.0
C403 C 0.41743 0.37546 0.36782 0.0
C404 C 0.43979 0.43327 0.33146 0.0
H405 H 0.47128 0.46702 0.28132 0.0
C406 C 0.43731 0.45113 0.35117 0.0
C407 C 0.4534 0.43878 0.30648 0.0
C408 C 0.45887 0.41997 0.28539 0.0
C409 C 0.4466 0.47463 0.34599 0.0
C410 C 0.45801 0.48064 0.32008 0.0
C411 C 0.46204 0.4625 0.30098 0.0
C412 C 0.46408 0.50592 0.31189 0.0
C413 C 0.44378 0.49286 0.36827 0.0
C414 C 0.4434 0.52307 0.31207 0.0
C415 C 0.4488 0.54704 0.30507 0.0
C416 C 0.47489 0.55429 0.29722 0.0
C417 C 0.49555 0.53709 0.2965 0.0
C418 C 0.49014 0.513 0.30363 0.0
H419 H 0.44355 0.48402 0.38894 0.0
H420 H 0.46046 0.50622 0.36743 0.0
H421 H 0.4244 0.50255 0.36562 0.0
H422 H 0.423 0.51791 0.31767 0.0
H423 H 0.43247 0.55992 0.30565 0.0
H424 H 0.16889 0.11305 0.81546 0.0
H425 H 0.14476 0.08444 0.78697 0.0
H426 H 0.07411 0.09158 0.83796 0.0
H427 H 0.09766 0.12064 0.86577 0.0
H428 H 0.12882 0.04253 0.80494 0.0
H429 H 0.03856 0.08882 0.765 0.0
H430 H 0.06664 0.10504 0.77926 0.0
H431 H 0.04067 0.0925 0.80133 0.0
C432 C 0.148 0.10897 0.82016 0.0
C433 C 0.13526 0.11901 0.843 0.0
C434 C 0.1342 0.09265 0.80382 0.0
C435 C 0.10745 0.08604 0.81003 0.0
C436 C 0.09441 0.09685 0.83216 0.0
H437 H 0.03124 0.95396 0.81998 0.0
H438 H 0.04991 0.99452 0.82259 0.0
C439 C 0.10807 0.11331 0.8483 0.0
C440 C 0.09459 0.06532 0.79642 0.0
H441 H 0.03426 0.04508 0.77194 0.0
C442 C 0.10842 0.04333 0.79699 0.0
C443 C 0.068 0.06621 0.78581 0.0
C444 C 0.05278 0.08952 0.78254 0.0
C445 C 0.09575 0.02201 0.78928 0.0
C446 C 0.06846 0.02261 0.78113 0.0
C447 C 0.05512 0.04471 0.77858 0.0
C448 C 0.05302 4e-05 0.77865 0.0
C449 C 0.11118 0.99869 0.79131 0.0
C450 C 0.04784 0.99013 0.75298 0.0
C451 C 0.03715 0.96684 0.75142 0.0
C452 C 0.03148 0.95339 0.77555 0.0
C453 C 0.03545 0.96395 0.8011 0.0
C454 C 0.04602 0.9871 0.80262 0.0
H455 H 0.1333 0.00177 0.79224 0.0
H456 H 0.10493 0.98866 0.81024 0.0
H457 H 0.10665 0.98724 0.77352 0.0
H458 H 0.05325 -0.0001 0.73428 0.0
H459 H 0.03454 0.95895 0.73149 0.0
H460 H 0.18954 0.21855 0.98178 0.0
H461 H 0.17747 0.21892 0.03061 0.0
H462 H 0.1907 0.14239 0.03675 0.0
H463 H 0.20305 0.14191 0.98846 0.0
H464 H 0.13428 0.1951 0.0512 0.0
H465 H 0.22416 0.1636 0.10749 0.0
H466 H 0.2259 0.17485 0.07245 0.0
H467 H 0.21674 0.14399 0.07983 0.0
C468 C 0.19056 0.20193 0.99373 0.0
C469 C 0.1971 0.18018 0.98115 0.0
C470 C 0.18365 0.20217 0.02163 0.0
C471 C 0.18353 0.18074 0.0375 0.0
C472 C 0.19129 0.15926 0.02521 0.0
H473 H 0.10205 0.10382 0.15712 0.0
H474 H 0.13499 0.122 0.12543 0.0
C475 C 0.19808 0.15899 0.99743 0.0
C476 C 0.17166 0.17986 0.06554 0.0
H477 H 0.18073 0.15433 0.12925 0.0
C478 C 0.14466 0.18686 0.06856 0.0
C479 C 0.18523 0.16915 0.0882 0.0
C480 C 0.21471 0.16272 0.08689 0.0
C481 C 0.13019 0.18152 0.09274 0.0
C482 C 0.14322 0.16916 0.11466 0.0
C483 C 0.17075 0.16372 0.1124 0.0
C484 C 0.12754 0.15849 0.13788 0.0
C485 C 0.10051 0.18746 0.0938 0.0
C486 C 0.11321 0.17289 0.15618 0.0
C487 C 0.09432 0.16244 0.17432 0.0
C488 C 0.08987 0.13752 0.17456 0.0
C489 C 0.10543 0.12306 0.15748 0.0
C490 C 0.12424 0.13344 0.13943 0.0
H491 H 0.09278 0.19426 0.07372 0.0
H492 H 0.08861 0.17131 0.10014 0.0
H493 H 0.09705 0.2015 0.1092 0.0
H494 H 0.11555 0.19225 0.15538 0.0
H495 H 0.08192 0.17397 0.18669 0.0
H496 H 0.33881 0.33828 0.52117 0.0
H497 H 0.34613 0.33987 0.57077 0.0
H498 H 0.42335 0.37381 0.55646 0.0
H499 H 0.41606 0.37266 0.50705 0.0
H500 H 0.38542 0.31829 0.60065 0.0
H501 H 0.39167 0.4162 0.61446 0.0
H502 H 0.37803 0.4033 0.58377 0.0
H503 H 0.41391 0.40729 0.58751 0.0
C504 C 0.35721 0.34637 0.52859 0.0
C505 C 0.37684 0.3554 0.51011 0.0
C506 C 0.36134 0.34726 0.55695 0.0
C507 C 0.38506 0.35735 0.56737 0.0
C508 C 0.40456 0.36653 0.54895 0.0
H509 H 0.49468 0.3316 0.68628 0.0
H510 H 0.45778 0.32661 0.65422 0.0
C511 C 0.40045 0.36568 0.52065 0.0
C512 C 0.39067 0.35674 0.59729 0.0
H513 H 0.41619 0.39143 0.64783 0.0
C514 C 0.39152 0.33436 0.61121 0.0
C515 C 0.3978 0.37772 0.61147 0.0
C516 C 0.39499 0.40249 0.59858 0.0
C517 C 0.40188 0.33219 0.63794 0.0
C518 C 0.41213 0.35284 0.6508 0.0
C519 C 0.4087 0.37548 0.63793 0.0
C520 C 0.43079 0.3511 0.67455 0.0
C521 C 0.40276 0.30764 0.65168 0.0
C522 C 0.42779 0.366 0.69731 0.0
C523 C 0.44912 0.36887 0.71581 0.0
C524 C 0.47373 0.35711 0.71148 0.0
C525 C 0.47581 0.34073 0.69013 0.0
C526 C 0.45459 0.33776 0.67186 0.0
H527 H 0.38509 0.29667 0.6456 0.0
H528 H 0.42115 0.2981 0.64492 0.0
H529 H 0.40307 0.30881 0.67438 0.0
H530 H 0.40968 0.37661 0.69969 0.0
H531 H 0.4472 0.38181 0.73197 0.0
H532 H 0.65285 0.32646 0.05 0.0
H533 H 0.64471 0.3357 1.00146 0.0
H534 H 0.66633 0.26324 0.98114 0.0
H535 H 0.67413 0.25371 0.02991 0.0
H536 H 0.68326 0.32904 0.95406 0.0
H537 H 0.58815 0.27559 0.94865 0.0
H538 H 0.6012 0.28578 0.98093 0.0
H539 H 0.61765 0.26181 0.96358 0.0
C540 C 0.65544 0.31236 0.03533 0.0
C541 C 0.66346 0.28918 0.0439 0.0
C542 C 0.65114 0.31776 0.00754 0.0
C543 C 0.65469 0.30009 0.98778 0.0
C544 C 0.66326 0.27706 0.99613 0.0
H545 H 0.58531 0.32806 0.82427 0.0
H546 H 0.61457 0.30655 0.85735 0.0
C547 C 0.66775 0.27168 0.02395 0.0
C548 C 0.64861 0.30588 0.95863 0.0
H549 H 0.59908 0.30033 0.91072 0.0
C550 C 0.66512 0.32245 0.94434 0.0
C551 C 0.6252 0.29694 0.94585 0.0
C552 C 0.60685 0.2791 0.96041 0.0
C553 C 0.65802 0.33132 0.91814 0.0
C554 C 0.63342 0.3239 0.90628 0.0
C555 C 0.61794 0.30602 0.91977 0.0
C556 C 0.62097 0.33738 0.88291 0.0
C557 C 0.67653 0.34914 0.90379 0.0
C558 C 0.61548 0.36191 0.88586 0.0
C559 C 0.59891 0.37404 0.86719 0.0
C560 C 0.58739 0.36197 0.84511 0.0
C561 C 0.59425 0.33784 0.84094 0.0
C562 C 0.6108 0.32554 0.8599 0.0
H563 H 0.69791 0.34562 0.90928 0.0
H564 H 0.67441 0.34856 0.88114 0.0
H565 H 0.67157 0.36754 0.91051 0.0
H566 H 0.62246 0.37135 0.9037 0.0
H567 H 0.59386 0.39263 0.87091 0.0
H568 H 0.8648 0.15803 0.502 0.0
H569 H 0.88104 0.15663 0.4547 0.0
H570 H 0.92221 0.22423 0.46452 0.0
H571 H 0.90635 0.22567 0.51208 0.0
H572 H 0.87878 0.18855 0.40712 0.0
H573 H 0.9827 0.1758 0.44763 0.0
H574 H 0.95321 0.17313 0.46922 0.0
H575 H 0.96557 0.2023 0.4587 0.0
C576 C 0.87699 0.1728 0.49404 0.0
C577 C 0.88462 0.19178 0.51101 0.0
C578 C 0.88617 0.172 0.46692 0.0
C579 C 0.90317 0.19012 0.45624 0.0
C580 C 0.90942 0.20987 0.47252 0.0
H581 H 0.01224 0.18222 0.3174 0.0
H582 H 0.98291 0.19953 0.35225 0.0
C583 C 0.90028 0.21069 0.49968 0.0
C584 C 0.91634 0.18708 0.42916 0.0
H585 H 0.97751 0.17611 0.39993 0.0
C586 C 0.90039 0.18603 0.40543 0.0
C587 C 0.94451 0.18368 0.42706 0.0
C588 C 0.96256 0.18357 0.45197 0.0
C589 C 0.91195 0.18165 0.3796 0.0
C590 C 0.94009 0.1778 0.37763 0.0
C591 C 0.95598 0.17928 0.40135 0.0
C592 C 0.95364 0.17059 0.35184 0.0
C593 C 0.89397 0.18127 0.35472 0.0
C594 C 0.94638 0.14909 0.33912 0.0
C595 C 0.96296 0.13941 0.31887 0.0
C596 C 0.98704 0.15104 0.3112 0.0
C597 C 0.99344 0.17323 0.32265 0.0
C598 C 0.97679 0.18302 0.34265 0.0
H599 H 0.87547 0.19211 0.35781 0.0
H600 H 0.90466 0.18823 0.33612 0.0
H601 H 0.88761 0.16247 0.35106 0.0
H602 H 0.92907 0.13881 0.34628 0.0
H603 H 0.95811 0.1219 0.3109 0.0
H604 H 0.87358 0.79398 0.03401 0.0
H605 H 0.8916 0.79204 0.98731 0.0
H606 H 0.84693 0.85564 0.96411 0.0
H607 H 0.82859 0.85765 0.01061 0.0
H608 H 0.84988 0.81814 0.92214 0.0
H609 H 0.94906 0.84418 0.96582 0.0
H610 H 0.93338 0.81801 0.98125 0.0
H611 H 0.91789 0.84694 0.98464 0.0
C612 C 0.86717 0.80731 0.01887 0.0
C613 C 0.84995 0.82619 0.02619 0.0
C614 C 0.87751 0.80618 0.9922 0.0
C615 C 0.87088 0.8239 0.97241 0.0
C616 C 0.85233 0.84182 0.97911 0.0
H617 H 0.93113 0.87408 0.81472 0.0
H618 H 0.90126 0.8624 0.85289 0.0
C619 C 0.84196 0.84297 0.00576 0.0
C620 C 0.88547 0.82534 0.94583 0.0
H621 H 0.94751 0.83763 0.91854 0.0
C622 C 0.87126 0.82225 0.92126 0.0
C623 C 0.9133 0.83089 0.94479 0.0
C624 C 0.92936 0.83541 0.97046 0.0
C625 C 0.88433 0.8243 0.89561 0.0
C626 C 0.91215 0.83003 0.89462 0.0
C627 C 0.92625 0.833 0.91927 0.0
C628 C 0.92725 0.83401 0.86851 0.0
C629 C 0.86832 0.82 0.8699 0.0
C630 C 0.95163 0.82183 0.86429 0.0
C631 C 0.96871 0.82865 0.84264 0.0
C632 C 0.96159 0.84757 0.82459 0.0
C633 C 0.93659 0.85891 0.82783 0.0
C634 C 0.91956 0.85226 0.84971 0.0
H635 H 0.85045 0.80841 0.8742 0.0
H636 H 0.86098 0.83748 0.86147 0.0
H637 H 0.88091 0.81146 0.85401 0.0
H638 H 0.95805 0.80777 0.87855 0.0
H639 H 0.988 0.81974 0.84065 0.0
H640 H 0.6502 0.64944 0.53818 0.0
H641 H 0.64708 0.64435 0.48847 0.0
H642 H 0.5989 0.70864 0.48154 0.0
H643 H 0.60257 0.71421 0.53076 0.0
H644 H 0.60351 0.63639 0.45955 0.0
H645 H 0.64911 0.7202 0.41851 0.0
H646 H 0.65287 0.71068 0.45395 0.0
H647 H 0.62332 0.72703 0.44289 0.0
C648 C 0.63926 0.66267 0.52598 0.0
C649 C 0.62666 0.68225 0.53846 0.0
C650 C 0.63756 0.65977 0.49756 0.0
C651 C 0.62327 0.6764 0.48108 0.0
C652 C 0.61082 0.696 0.49356 0.0
H653 H 0.52475 0.6827 0.34651 0.0
H654 H 0.55581 0.69027 0.38414 0.0
C655 C 0.61269 0.69901 0.52185 0.0
C656 C 0.61883 0.67212 0.45141 0.0
H657 H 0.61604 0.70107 0.38885 0.0
C658 C 0.60699 0.65027 0.44394 0.0
C659 C 0.62353 0.69014 0.43091 0.0
C660 C 0.63819 0.7132 0.43697 0.0
C661 C 0.59776 0.64673 0.41714 0.0
C662 C 0.60052 0.6655 0.39725 0.0
C663 C 0.6139 0.68674 0.40418 0.0
C664 C 0.58566 0.6647 0.37098 0.0
C665 C 0.58334 0.6236 0.41073 0.0
C666 C 0.59286 0.64869 0.35034 0.0
C667 C 0.57517 0.64451 0.32854 0.0
C668 C 0.55006 0.65613 0.32743 0.0
C669 C 0.54398 0.67349 0.34695 0.0
C670 C 0.56171 0.67786 0.36842 0.0
H671 H 0.58135 0.61143 0.42902 0.0
H672 H 0.56289 0.62753 0.4026 0.0
H673 H 0.59465 0.61401 0.39465 0.0
H674 H 0.61134 0.63843 0.35197 0.0
H675 H 0.5802 0.6309 0.31384 0.0
H676 H 0.35916 0.62383 0.97037 0.0
H677 H 0.37093 0.62436 0.01905 0.0
H678 H 0.41804 0.68875 0.00469 0.0
H679 H 0.40577 0.68873 0.95622 0.0
H680 H 0.41946 0.62021 0.0412 0.0
H681 H 0.3766 0.70726 0.07183 0.0
H682 H 0.36818 0.69351 0.03977 0.0
H683 H 0.39881 0.7107 0.04292 0.0
C684 C 0.37182 0.63824 0.97762 0.0
C685 C 0.3815 0.65626 0.95939 0.0
C686 C 0.37847 0.63855 0.00548 0.0
C687 C 0.39494 0.65686 0.0157 0.0
C688 C 0.40464 0.67485 0.99752 0.0
H689 H 0.49941 0.67281 0.15126 0.0
H690 H 0.47082 0.67879 0.11072 0.0
C691 C 0.39783 0.67466 0.96971 0.0
C692 C 0.40377 0.65606 0.04482 0.0
H693 H 0.41008 0.68996 0.10213 0.0
C694 C 0.41696 0.63531 0.05466 0.0
C695 C 0.40048 0.67576 0.06244 0.0
C696 C 0.38499 0.69795 0.05379 0.0
C697 C 0.42798 0.63411 0.08112 0.0
C698 C 0.42562 0.65414 0.09829 0.0
C699 C 0.41182 0.67466 0.08885 0.0
C700 C 0.43945 0.6545 0.12513 0.0
C701 C 0.44307 0.61178 0.09018 0.0
C702 C 0.43069 0.63962 0.14705 0.0
C703 C 0.44694 0.63632 0.17025 0.0
C704 C 0.47201 0.64795 0.17185 0.0
C705 C 0.47994 0.66395 0.15063 0.0
C706 C 0.46367 0.66736 0.12752 0.0
H707 H 0.44588 0.59903 0.07321 0.0
H708 H 0.46319 0.61666 0.09836 0.0
H709 H 0.43169 0.60243 0.10692 0.0
H710 H 0.41213 0.62944 0.14545 0.0
H711 H 0.44099 0.62315 0.18581 0.0
H712 H 0.06892 0.79317 0.45776 0.0
H713 H 0.06287 0.79928 0.50678 0.0
H714 H 0.13332 0.84491 0.5073 0.0
H715 H 0.13914 0.83939 0.45791 0.0
H716 H 0.09533 0.78957 0.55122 0.0
H717 H 0.07667 0.88798 0.54016 0.0
H718 H 0.07742 0.86856 0.51107 0.0
H719 H 0.10834 0.87773 0.52693 0.0
C720 C 0.08316 0.80453 0.46824 0.0
C721 C 0.10436 0.816 0.45383 0.0
C722 C 0.07973 0.80793 0.49633 0.0
C723 C 0.09741 0.82281 0.51068 0.0
C724 C 0.11908 0.83376 0.49656 0.0
H725 H 0.0626 0.87 0.67865 0.0
H726 H 0.09109 0.85858 0.63965 0.0
C727 C 0.12243 0.83051 0.46834 0.0
C728 C 0.09235 0.82722 0.5402 0.0
H729 H 0.07276 0.87075 0.58429 0.0
C730 C 0.09075 0.80738 0.55853 0.0
C731 C 0.08656 0.85048 0.54982 0.0
C732 C 0.0871 0.87242 0.53101 0.0
C733 C 0.08235 0.81005 0.58583 0.0
C734 C 0.07523 0.83309 0.59495 0.0
C735 C 0.07838 0.85311 0.5772 0.0
C736 C 0.06053 0.83643 0.62107 0.0
C737 C 0.08032 0.78813 0.60451 0.0
C738 C 0.0342 0.8274 0.62373 0.0
C739 C 0.01794 0.83407 0.64564 0.0
C740 C 0.0278 0.8497 0.66549 0.0
C741 C 0.05468 0.85766 0.66377 0.0
C742 C 0.0709 0.85124 0.64152 0.0
H743 H 0.09362 0.77345 0.59747 0.0
H744 H 0.08573 0.79255 0.62591 0.0
H745 H 0.05923 0.78139 0.60451 0.0
H746 H 0.02566 0.8163 0.60795 0.0
H747 H 0.99724 0.82781 0.64645 0.0
H748 H 0.26617 0.29872 0.29156 0.0
H749 H 0.22928 0.27819 0.26831 0.0
H750 H 0.2732 0.21144 0.27414 0.0
H751 H 0.31066 0.23211 0.29606 0.0
H752 H 0.24477 0.21394 0.22725 0.0
H753 H 0.17905 0.23836 0.31488 0.0
H754 H 0.19238 0.26372 0.29592 0.0
H755 H 0.21481 0.24404 0.31472 0.0
C756 C 0.26813 0.27976 0.28742 0.0
C757 C 0.29109 0.26692 0.29599 0.0
C758 C 0.24699 0.26802 0.27427 0.0
C759 C 0.24811 0.24312 0.27026 0.0
C760 C 0.27179 0.23062 0.27718 0.0
H761 H 0.14535 0.12364 0.2643 0.0
H762 H 0.18338 0.15165 0.25906 0.0
C763 C 0.29318 0.24245 0.28977 0.0
C764 C 0.22393 0.22958 0.26134 0.0
H765 H 0.15965 0.21494 0.28087 0.0
C766 C 0.22606 0.21435 0.2388 0.0
C767 C 0.19952 0.22999 0.27653 0.0
C768 C 0.19628 0.24471 0.302 0.0
C769 C 0.20468 0.19913 0.23152 0.0
C770 C 0.18067 0.19927 0.24709 0.0
C771 C 0.17809 0.21514 0.26883 0.0
C772 C 0.15908 0.18123 0.24367 0.0
C773 C 0.208 0.18262 0.20765 0.0
C774 C 0.13297 0.18852 0.23627 0.0
C775 C 0.11132 0.17249 0.23911 0.0
C776 C 0.11551 0.1491 0.24958 0.0
C777 C 0.14179 0.14152 0.25582 0.0
C778 C 0.16347 0.15743 0.25269 0.0
H779 H 0.22503 0.18829 0.19411 0.0
H780 H 0.21207 0.16413 0.21556 0.0
H781 H 0.18921 0.18205 0.19532 0.0
H782 H 0.12916 0.20695 0.22977 0.0
H783 H 0.09108 0.17888 0.23501 0.0
H784 H 0.24629 0.25524 0.82157 0.0
H785 H 0.2836 0.27785 0.80037 0.0
H786 H 0.33962 0.24119 0.85441 0.0
H787 H 0.30261 0.21761 0.87441 0.0
H788 H 0.31464 0.3089 0.81959 0.0
H789 H 0.38096 0.23614 0.78582 0.0
H790 H 0.34693 0.23039 0.79743 0.0
H791 H 0.37426 0.23203 0.82172 0.0
C792 C 0.26664 0.25184 0.82866 0.0
C793 C 0.27158 0.23462 0.84957 0.0
C794 C 0.28797 0.26473 0.8165 0.0
C795 C 0.31464 0.26093 0.82528 0.0
C796 C 0.31948 0.24388 0.84643 0.0
H797 H 0.43838 0.36303 0.83776 0.0
H798 H 0.39811 0.33827 0.8386 0.0
C799 C 0.29824 0.23058 0.85813 0.0
C800 C 0.33705 0.27616 0.81408 0.0
H801 H 0.40317 0.27444 0.79431 0.0
C802 C 0.33379 0.30125 0.81354 0.0
C803 C 0.36194 0.26642 0.80531 0.0
C804 C 0.36607 0.23976 0.80229 0.0
C805 C 0.35513 0.31676 0.80636 0.0
C806 C 0.38085 0.30702 0.8007 0.0
C807 C 0.38365 0.28198 0.79927 0.0
C808 C 0.40541 0.32238 0.79915 0.0
C809 C 0.34989 0.34348 0.80531 0.0
C810 C 0.42378 0.32102 0.7772 0.0
C811 C 0.44749 0.33488 0.77699 0.0
C812 C 0.45308 0.35041 0.79862 0.0
C813 C 0.43468 0.35149 0.82057 0.0
C814 C 0.41135 0.33752 0.82094 0.0
H815 H 0.32876 0.34731 0.79911 0.0
H816 H 0.35278 0.35084 0.82607 0.0
H817 H 0.36369 0.35302 0.79074 0.0
H818 H 0.4199 0.30911 0.76038 0.0
H819 H 0.46167 0.33296 0.76033 0.0
H820 H 0.74738 0.21867 0.67223 0.0
H821 H 0.71499 0.2402 0.70037 0.0
H822 H 0.77961 0.28217 0.73415 0.0
H823 H 0.81217 0.26104 0.7056 0.0
H824 H 0.71033 0.24566 0.75706 0.0
H825 H 0.72902 0.33365 0.70347 0.0
H826 H 0.74132 0.3057 0.69027 0.0
H827 H 0.75799 0.31938 0.71865 0.0
C828 C 0.75476 0.23244 0.68568 0.0
C829 C 0.78235 0.2383 0.68643 0.0
C830 C 0.73621 0.24467 0.70185 0.0
C831 C 0.74481 0.26303 0.7191 0.0
C832 C 0.77244 0.2684 0.72061 0.0
H833 H 0.63033 0.36602 0.78841 0.0
H834 H 0.67218 0.34223 0.7877 0.0
C835 C 0.79103 0.25624 0.70433 0.0
C836 C 0.72452 0.277 0.73453 0.0
H837 H 0.69507 0.33233 0.73688 0.0
C838 C 0.70723 0.2647 0.75295 0.0
C839 C 0.72061 0.3019 0.72937 0.0
C840 C 0.73803 0.31598 0.70924 0.0
C841 C 0.68544 0.27638 0.76538 0.0
C842 C 0.68063 0.30091 0.75897 0.0
C843 C 0.69888 0.31356 0.7419 0.0
C844 C 0.65467 0.3127 0.76561 0.0
C845 C 0.66728 0.26218 0.78464 0.0
C846 C 0.63085 0.30369 0.7542 0.0
C847 C 0.60727 0.31725 0.75444 0.0
C848 C 0.60693 0.33998 0.76627 0.0
C849 C 0.63009 0.34834 0.77956 0.0
C850 C 0.65395 0.33483 0.77903 0.0
H851 H 0.67842 0.24722 0.79495 0.0
H852 H 0.65841 0.2738 0.80053 0.0
H853 H 0.6506 0.25419 0.77274 0.0
H854 H 0.63099 0.28699 0.7432 0.0
H855 H 0.5897 0.31065 0.74374 0.0
H856 H 0.73929 0.20035 0.18012 0.0
H857 H 0.77998 0.1847 0.20227 0.0
H858 H 0.82256 0.24998 0.17969 0.0
H859 H 0.78164 0.26609 0.15844 0.0
H860 H 0.82584 0.17454 0.17944 0.0
H861 H 0.84608 0.24254 0.25771 0.0
H862 H 0.81448 0.24122 0.2395 0.0
H863 H 0.84326 0.25618 0.22418 0.0
C864 C 0.75726 0.21146 0.18008 0.0
C865 C 0.75726 0.23446 0.16752 0.0
C866 C 0.78048 0.20253 0.19286 0.0
C867 C 0.80424 0.21633 0.19318 0.0
C868 C 0.80429 0.23929 0.18055 0.0
H869 H 0.96669 0.17613 0.18973 0.0
H870 H 0.92285 0.19604 0.18826 0.0
C871 C 0.78095 0.24837 0.1681 0.0
C872 C 0.82954 0.20583 0.20445 0.0
H873 H 0.88384 0.21738 0.24533 0.0
C874 C 0.83818 0.18372 0.19429 0.0
C875 C 0.84569 0.21768 0.22397 0.0
C876 C 0.83674 0.24059 0.23718 0.0
C877 C 0.86301 0.17377 0.20203 0.0
C878 C 0.8798 0.18633 0.22017 0.0
C879 C 0.87086 0.2079 0.23131 0.0
C880 C 0.90774 0.17827 0.22509 0.0
C881 C 0.87174 0.15029 0.18994 0.0
C882 C 0.91398 0.16238 0.24695 0.0
C883 C 0.93918 0.15103 0.24791 0.0
C884 C 0.95816 0.15537 0.22692 0.0
C885 C 0.95237 0.17247 0.20614 0.0
C886 C 0.92741 0.1839 0.20531 0.0
H887 H 0.85511 0.14135 0.17881 0.0
H888 H 0.88864 0.15367 0.17536 0.0
H889 H 0.87916 0.13785 0.20637 0.0
H890 H 0.89885 0.1577 0.26224 0.0
H891 H 0.943 0.13756 0.26378 0.0
H892 H 0.7006 0.76274 0.78212 0.0
H893 H 0.74352 0.78041 0.79664 0.0
H894 H 0.77404 0.7759 0.71406 0.0
H895 H 0.73145 0.75828 0.69934 0.0
H896 H 0.80124 0.7624 0.78879 0.0
H897 H 0.77674 0.84934 0.73655 0.0
H898 H 0.75131 0.82728 0.74588 0.0
H899 H 0.77191 0.82327 0.71597 0.0
C900 C 0.71654 0.7653 0.7671 0.0
C901 C 0.71254 0.75928 0.73951 0.0
C902 C 0.74103 0.77533 0.77547 0.0
C903 C 0.76174 0.77961 0.75634 0.0
C904 C 0.75815 0.77288 0.72905 0.0
H905 H 0.92604 0.81211 0.74392 0.0
H906 H 0.88335 0.79216 0.75541 0.0
C907 C 0.73379 0.76279 0.7207 0.0
C908 C 0.7867 0.79227 0.76421 0.0
H909 H 0.82244 0.84333 0.74952 0.0
C910 C 0.80581 0.78026 0.78063 0.0
C911 C 0.79231 0.81571 0.75398 0.0
C912 C 0.77192 0.82981 0.7373 0.0
C913 C 0.83119 0.7906 0.78568 0.0
C914 C 0.83754 0.81336 0.77371 0.0
C915 C 0.81769 0.82589 0.75871 0.0
C916 C 0.86527 0.82351 0.77349 0.0
C917 C 0.85104 0.77683 0.8033 0.0
C918 C 0.86963 0.84764 0.78028 0.0
C919 C 0.89391 0.85909 0.7733 0.0
C920 C 0.91429 0.84645 0.75992 0.0
C921 C 0.91074 0.82196 0.75486 0.0
C922 C 0.88639 0.81055 0.76156 0.0
H923 H 0.84043 0.76576 0.81926 0.0
H924 H 0.8626 0.76441 0.79025 0.0
H925 H 0.86546 0.78899 0.8135 0.0
H926 H 0.85356 0.85804 0.78926 0.0
H927 H 0.89608 0.87817 0.77674 0.0
H928 H 0.79068 0.76951 0.24858 0.0
H929 H 0.75102 0.75164 0.27125 0.0
H930 H 0.70867 0.75315 0.19398 0.0
H931 H 0.74752 0.77241 0.17178 0.0
H932 H 0.67516 0.76318 0.23278 0.0
H933 H 0.73316 0.6827 0.26742 0.0
H934 H 0.74454 0.71039 0.28156 0.0
H935 H 0.74767 0.70563 0.24527 0.0
C936 C 0.77277 0.7662 0.23655 0.0
C937 C 0.77225 0.77213 0.20837 0.0
C938 C 0.75018 0.75581 0.24948 0.0
C939 C 0.72702 0.75034 0.23423 0.0
C940 C 0.72625 0.75707 0.20626 0.0
H941 H 0.62081 0.63766 0.23083 0.0
H942 H 0.65804 0.66536 0.23635 0.0
C943 C 0.74852 0.76804 0.19353 0.0
C944 C 0.70392 0.73669 0.24663 0.0
H945 H 0.68685 0.68239 0.27598 0.0
C946 C 0.67771 0.74558 0.24247 0.0
C947 C 0.70723 0.71377 0.25949 0.0
C948 C 0.73461 0.70242 0.26353 0.0
C949 C 0.65479 0.73154 0.24873 0.0
C950 C 0.65814 0.70825 0.2606 0.0
C951 C 0.68429 0.70023 0.26693 0.0
C952 C 0.63585 0.69024 0.26137 0.0
C953 C 0.62743 0.7411 0.24057 0.0
C954 C 0.61099 0.69436 0.27447 0.0
C955 C 0.5892 0.67853 0.27083 0.0
C956 C 0.59223 0.65821 0.2545 0.0
C957 C 0.6177 0.65329 0.24331 0.0
C958 C 0.63914 0.66911 0.2466 0.0
H959 H 0.6289 0.75767 0.22749 0.0
H960 H 0.61591 0.72741 0.22918 0.0
H961 H 0.61584 0.74551 0.25928 0.0
H962 H 0.60811 0.7102 0.2866 0.0
H963 H 0.56976 0.6829 0.27951 0.0
H964 H 0.21329 0.74097 0.21316 0.0
H965 H 0.25792 0.72553 0.20089 0.0
H966 H 0.28324 0.73081 0.28506 0.0
H967 H 0.23887 0.7462 0.29755 0.0
H968 H 0.31335 0.74561 0.21069 0.0
H969 H 0.2921 0.65816 0.2637 0.0
H970 H 0.26579 0.67894 0.25367 0.0
H971 H 0.28544 0.68413 0.28389 0.0
C972 C 0.22845 0.73908 0.22901 0.0
C973 C 0.22245 0.74463 0.25639 0.0
C974 C 0.25392 0.7303 0.22193 0.0
C975 C 0.27369 0.7268 0.24214 0.0
C976 C 0.26811 0.73317 0.26924 0.0
H977 H 0.43963 0.70017 0.25784 0.0
H978 H 0.39629 0.71872 0.24666 0.0
C979 C 0.24275 0.74201 0.27631 0.0
C980 C 0.29975 0.71538 0.23546 0.0
H981 H 0.33772 0.66605 0.25135 0.0
C982 C 0.31865 0.72808 0.21923 0.0
C983 C 0.30634 0.69233 0.24618 0.0
C984 C 0.2863 0.67744 0.26263 0.0
C985 C 0.34461 0.7188 0.21471 0.0
C986 C 0.35178 0.69642 0.22698 0.0
C987 C 0.3323 0.68323 0.24195 0.0
C988 C 0.37989 0.68729 0.22721 0.0
C989 C 0.36421 0.73317 0.19719 0.0
C990 C 0.3854 0.66359 0.21954 0.0
C991 C 0.41017 0.65296 0.2261 0.0
C992 C 0.42984 0.66595 0.24016 0.0
C993 C 0.42499 0.69007 0.24629 0.0
C994 C 0.40025 0.70069 0.23982 0.0
H995 H 0.35347 0.74489 0.18206 0.0
H996 H 0.37632 0.74495 0.21052 0.0
H997 H 0.3782 0.72127 0.18602 0.0
H998 H 0.36986 0.65279 0.21021 0.0
H999 H 0.41297 0.63402 0.22239 0.0
H1000 H 0.20679 0.67168 0.73917 0.0
H1001 H 0.17354 0.6983 0.71736 0.0
H1002 H 0.21794 0.76005 0.74469 0.0
H1003 H 0.25142 0.73369 0.76594 0.0
H1004 H 0.14246 0.72741 0.7459 0.0
H1005 H 0.19724 0.7829 0.66891 0.0
H1006 H 0.21096 0.75527 0.68312 0.0
H1007 H 0.2145 0.78304 0.70115 0.0
C1008 C 0.20985 0.69094 0.73991 0.0
C1009 C 0.2317 0.70056 0.75443 0.0
C1010 C 0.19083 0.70613 0.7274 0.0
C1011 C 0.19337 0.7312 0.72905 0.0
C1012 C 0.21586 0.74081 0.74245 0.0
H1013 H 0.10831 0.85496 0.75147 0.0
H1014 H 0.14027 0.82395 0.73854 0.0
C1015 C 0.23491 0.72566 0.75486 0.0
C1016 C 0.17081 0.74725 0.72059 0.0
H1017 H 0.15751 0.80147 0.6893 0.0
C1018 C 0.14549 0.74324 0.73285 0.0
C1019 C 0.17471 0.76786 0.70348 0.0
C1020 C 0.20078 0.77236 0.6882 0.0
C1021 C 0.12477 0.76029 0.73046 0.0
C1022 C 0.12939 0.78178 0.71503 0.0
C1023 C 0.15403 0.785 0.70115 0.0
C1024 C 0.11088 0.80254 0.71719 0.0
C1025 C 0.09891 0.75602 0.74628 0.0
C1026 C 0.08394 0.80135 0.70839 0.0
C1027 C 0.0655 0.81909 0.71595 0.0
C1028 C 0.0739 0.83828 0.73216 0.0
C1029 C 0.10128 0.8403 0.73907 0.0
C1030 C 0.11959 0.82265 0.73157 0.0
H1031 H 0.09996 0.73981 0.75999 0.0
H1032 H 0.09411 0.77179 0.75894 0.0
H1033 H 0.08207 0.75349 0.73168 0.0
H1034 H 0.07689 0.78609 0.697 0.0
H1035 H 0.04446 0.81697 0.71063 0.0
loop_
_geom_bond_atom_site_label_1
_geom_bond_atom_site_label_2
_geom_bond_distance
_geom_bond_site_symmetry_2
_ccdc_geom_bond_type
O0 Cd1 2.300 . S
O0 C7 1.275 . S
Cd1 O0 2.300 . S
Cd1 O9 2.381 . S
Cd1 O10 2.378 . S
O2 Cd3 2.385 . S
O2 C7 1.255 . S
Cd3 O2 2.385 . S
Cd3 O4 2.317 . S
O4 Cd3 2.317 . S
O4 C5 1.232 . S
C5 O4 1.232 . S
C5 O6 1.218 . S
O6 C5 1.218 . S
C7 O0 1.275 . S
C7 O2 1.255 . S
C8 O9 1.258 . S
C8 O10 1.256 . S
O9 Cd1 2.381 . S
O9 C8 1.258 . S
O10 Cd1 2.378 . S
O10 C8 1.256 . S
O11 Cd12 2.300 . S
O11 C18 1.275 . S
Cd12 O11 2.300 . S
Cd12 O20 2.381 . S
Cd12 O21 2.378 . S
O13 Cd14 2.385 . S
O13 C18 1.255 . S
Cd14 O13 2.385 . S
Cd14 O15 2.317 . S
O15 Cd14 2.317 . S
O15 C16 1.232 . S
C16 O15 1.232 . S
C16 O17 1.218 . S
O17 C16 1.218 . S
C18 O11 1.275 . S
C18 O13 1.255 . S
C19 O20 1.258 . S
C19 O21 1.256 . S
O20 Cd12 2.381 . S
O20 C19 1.258 . S
O21 Cd12 2.378 . S
O21 C19 1.256 . S
O22 Cd23 2.300 . S
O22 C29 1.275 . S
Cd23 O22 2.300 . S
Cd23 O31 2.381 . S
Cd23 O32 2.378 . S
O24 Cd25 2.385 . S
O24 C29 1.255 . S
Cd25 O24 2.385 . S
Cd25 O26 2.317 . S
O26 Cd25 2.317 . S
O26 C27 1.232 . S
C27 O26 1.232 . S
C27 O28 1.218 . S
O28 C27 1.218 . S
C29 O22 1.275 . S
C29 O24 1.255 . S
C30 O31 1.258 . S
C30 O32 1.256 . S
O31 Cd23 2.381 . S
O31 C30 1.258 . S
O32 Cd23 2.378 . S
O32 C30 1.256 . S
O33 Cd34 2.300 . S
O33 C40 1.275 . S
Cd34 O33 2.300 . S
Cd34 O42 2.381 . S
Cd34 O43 2.378 . S
O35 Cd36 2.385 . S
O35 C40 1.255 . S
Cd36 O35 2.385 . S
Cd36 O37 2.317 . S
O37 Cd36 2.317 . S
O37 C38 1.232 . S
C38 O37 1.232 . S
C38 O39 1.218 . S
O39 C38 1.218 . S
C40 O33 1.275 . S
C40 O35 1.255 . S
C41 O42 1.258 . S
C41 O43 1.256 . S
O42 Cd34 2.381 . S
O42 C41 1.258 . S
O43 Cd34 2.378 . S
O43 C41 1.256 . S
O44 Cd45 2.300 . S
O44 C51 1.275 . S
Cd45 O44 2.300 . S
Cd45 O53 2.381 . S
Cd45 O54 2.378 . S
O46 Cd47 2.385 . S
O46 C51 1.255 . S
Cd47 O46 2.385 . S
Cd47 O48 2.317 . S
O48 Cd47 2.317 . S
O48 C49 1.232 . S
C49 O48 1.232 . S
C49 O50 1.218 . S
O50 C49 1.218 . S
C51 O44 1.275 . S
C51 O46 1.255 . S
C52 O53 1.258 . S
C52 O54 1.256 . S
O53 Cd45 2.381 . S
O53 C52 1.258 . S
O54 Cd45 2.378 . S
O54 C52 1.256 . S
O55 Cd56 2.300 . S
O55 C62 1.275 . S
Cd56 O55 2.300 . S
Cd56 O64 2.381 . S
Cd56 O65 2.378 . S
O57 Cd58 2.385 . S
O57 C62 1.255 . S
Cd58 O57 2.385 . S
Cd58 O59 2.317 . S
O59 Cd58 2.317 . S
O59 C60 1.232 . S
C60 O59 1.232 . S
C60 O61 1.218 . S
O61 C60 1.218 . S
C62 O55 1.275 . S
C62 O57 1.255 . S
C63 O64 1.258 . S
C63 O65 1.256 . S
O64 Cd56 2.381 . S
O64 C63 1.258 . S
O65 Cd56 2.378 . S
O65 C63 1.256 . S
O66 Cd67 2.300 . S
O66 C73 1.275 . S
Cd67 O66 2.300 . S
Cd67 O75 2.381 . S
Cd67 O76 2.378 . S
O68 Cd69 2.385 . S
O68 C73 1.255 . S
Cd69 O68 2.385 . S
Cd69 O70 2.317 . S
O70 Cd69 2.317 . S
O70 C71 1.232 . S
C71 O70 1.232 . S
C71 O72 1.218 . S
O72 C71 1.218 . S
C73 O66 1.275 . S
C73 O68 1.255 . S
C74 O75 1.258 . S
C74 O76 1.256 . S
O75 Cd67 2.381 . S
O75 C74 1.258 . S
O76 Cd67 2.378 . S
O76 C74 1.256 . S
O77 Cd78 2.300 . S
O77 C84 1.275 . S
Cd78 O77 2.300 . S
Cd78 O86 2.381 . S
Cd78 O87 2.378 . S
O79 Cd80 2.385 . S
O79 C84 1.255 . S
Cd80 O79 2.385 . S
Cd80 O81 2.317 . S
O81 Cd80 2.317 . S
O81 C82 1.232 . S
C82 O81 1.232 . S
C82 O83 1.218 . S
O83 C82 1.218 . S
C84 O77 1.275 . S
C84 O79 1.255 . S
C85 O86 1.258 . S
C85 O87 1.256 . S
O86 Cd78 2.381 . S
O86 C85 1.258 . S
O87 Cd78 2.378 . S
O87 C85 1.256 . S
Zn88 O94 1.920 . S
Zn88 O100 1.898 . S
Zn88 O103 1.905 . S
Zn89 O97 1.905 1_655 S
Zn89 O98 1.898 . S
Zn89 O106 1.920 . S
Zn90 O93 2.080 . S
Zn90 O96 2.114 . S
Zn90 O99 2.120 1_455 S
Zn90 O101 2.120 . S
Zn90 O102 2.114 . S
Zn90 O105 2.061 1_455 S
C91 O96 1.166 . S
C91 O97 1.182 . S
C92 O98 1.167 . S
C92 O99 1.299 . S
O93 Zn90 2.080 . S
O93 C107 1.305 . S
O94 Zn88 1.920 . S
O94 C107 1.239 . S
C95 O100 1.167 . S
C95 O101 1.299 . S
O96 Zn90 2.114 . S
O96 C91 1.166 . S
O97 Zn89 1.905 1_455 S
O97 C91 1.182 . S
O98 Zn89 1.898 . S
O98 C92 1.167 . S
O99 Zn90 2.120 1_655 S
O99 C92 1.299 . S
O100 Zn88 1.898 . S
O100 C95 1.167 . S
O101 Zn90 2.120 . S
O101 C95 1.299 . S
O102 Zn90 2.114 . S
O102 C104 1.166 . S
O103 Zn88 1.905 . S
O103 C104 1.182 . S
C104 O102 1.166 . S
C104 O103 1.182 . S
O105 Zn90 2.061 1_655 S
O105 C108 1.337 . S
O106 Zn89 1.920 . S
O106 C108 1.234 . S
C107 O93 1.305 . S
C107 O94 1.239 . S
C108 O105 1.337 . S
C108 O106 1.234 . S
Zn109 O115 1.920 . S
Zn109 O121 1.898 . S
Zn109 O124 1.905 . S
Zn110 O118 1.905 . S
Zn110 O119 1.898 . S
Zn110 O127 1.920 . S
Zn111 O114 2.080 . S
Zn111 O117 2.114 . S
Zn111 O120 2.120 . S
Zn111 O122 2.120 . S
Zn111 O123 2.114 . S
Zn111 O126 2.080 . S
C112 O117 1.166 . S
C112 O118 1.182 . S
C113 O119 1.167 . S
C113 O120 1.299 . S
O114 Zn111 2.080 . S
O114 C128 1.305 . S
O115 Zn109 1.920 . S
O115 C128 1.234 . S
C116 O121 1.167 . S
C116 O122 1.299 . S
O117 Zn111 2.114 . S
O117 C112 1.166 . S
O118 Zn110 1.905 . S
O118 C112 1.182 . S
O119 Zn110 1.898 . S
O119 C113 1.167 . S
O120 Zn111 2.120 . S
O120 C113 1.299 . S
O121 Zn109 1.898 . S
O121 C116 1.167 . S
O122 Zn111 2.120 . S
O122 C116 1.299 . S
O123 Zn111 2.114 . S
O123 C125 1.166 . S
O124 Zn109 1.905 . S
O124 C125 1.182 . S
C125 O123 1.166 . S
C125 O124 1.182 . S
O126 Zn111 2.080 . S
O126 C129 1.305 . S
O127 Zn110 1.920 . S
O127 C129 1.234 . S
C128 O114 1.305 . S
C128 O115 1.234 . S
C129 O126 1.305 . S
C129 O127 1.234 . S
Zn130 O136 1.920 . S
Zn130 O142 1.898 . S
Zn130 O145 1.905 1_455 S
Zn131 O139 1.905 . S
Zn131 O140 1.898 . S
Zn131 O148 1.920 1_655 S
Zn132 O135 2.080 . S
Zn132 O138 2.114 1_455 S
Zn132 O141 2.120 1_455 S
Zn132 O143 2.120 . S
Zn132 O144 2.114 1_455 S
Zn132 O147 2.080 . S
C133 O138 1.166 . S
C133 O139 1.182 . S
C134 O140 1.167 . S
C134 O141 1.299 . S
O135 Zn132 2.080 . S
O135 C149 1.305 . S
O136 Zn130 1.920 . S
O136 C149 1.234 . S
C137 O142 1.167 . S
C137 O143 1.299 . S
O138 Zn132 2.114 1_655 S
O138 C133 1.166 . S
O139 Zn131 1.905 . S
O139 C133 1.182 . S
O140 Zn131 1.898 . S
O140 C134 1.167 . S
O141 Zn132 2.120 1_655 S
O141 C134 1.299 . S
O142 Zn130 1.898 . S
O142 C137 1.167 . S
O143 Zn132 2.120 . S
O143 C137 1.299 . S
O144 Zn132 2.114 1_655 S
O144 C146 1.166 . S
O145 Zn130 1.905 1_655 S
O145 C146 1.182 . S
C146 O144 1.166 . S
C146 O145 1.182 . S
O147 Zn132 2.080 . S
O147 C150 1.305 . S
O148 Zn131 1.920 1_455 S
O148 C150 1.234 . S
C149 O135 1.305 . S
C149 O136 1.234 . S
C150 O147 1.305 . S
C150 O148 1.234 . S
Zn151 O157 1.920 . S
Zn151 O163 1.898 . S
Zn151 O166 1.905 . S
Zn152 O160 1.905 . S
Zn152 O161 1.898 . S
Zn152 O169 1.920 . S
Zn153 O156 2.080 . S
Zn153 O159 2.114 . S
Zn153 O162 2.120 . S
Zn153 O164 2.120 . S
Zn153 O165 2.114 . S
Zn153 O168 2.080 . S
C154 O159 1.166 . S
C154 O160 1.182 . S
C155 O161 1.167 . S
C155 O162 1.299 . S
O156 Zn153 2.080 . S
O156 C170 1.305 . S
O157 Zn151 1.920 . S
O157 C170 1.234 . S
C158 O163 1.167 . S
C158 O164 1.299 . S
O159 Zn153 2.114 . S
O159 C154 1.166 . S
O160 Zn152 1.905 . S
O160 C154 1.182 . S
O161 Zn152 1.898 . S
O161 C155 1.167 . S
O162 Zn153 2.120 . S
O162 C155 1.299 . S
O163 Zn151 1.898 . S
O163 C158 1.167 . S
O164 Zn153 2.120 . S
O164 C158 1.299 . S
O165 Zn153 2.114 . S
O165 C167 1.166 . S
O166 Zn151 1.905 . S
O166 C167 1.182 . S
C167 O165 1.166 . S
C167 O166 1.182 . S
O168 Zn153 2.080 . S
O168 C171 1.305 . S
O169 Zn152 1.920 . S
O169 C171 1.234 . S
C170 O156 1.305 . S
C170 O157 1.234 . S
C171 O168 1.305 . S
C171 O169 1.234 . S
H172 C180 0.929 . S
H173 C182 0.930 . S
H174 C184 0.930 . S
H175 C187 0.929 . S
H176 C190 0.930 . S
H177 C192 0.960 . S
H178 C192 0.960 . S
H179 C192 0.960 . S
C180 H172 0.929 . S
C180 C181 1.377 . S
C180 C182 1.384 . S
C181 C180 1.377 . S
C181 C187 1.390 . S
C182 H173 0.930 . S
C182 C180 1.384 . S
C182 C183 1.372 . S
C183 C182 1.372 . S
C183 C184 1.400 . S
C183 C188 1.490 . S
C184 H174 0.930 . S
C184 C183 1.400 . S
C184 C187 1.386 . S
H185 C201 0.930 . S
H186 C202 0.931 1_565 S
C187 H175 0.929 . S
C187 C181 1.390 . S
C187 C184 1.386 . S
C188 C183 1.490 . S
C188 C190 1.395 . S
C188 C191 1.403 . S
H189 C195 0.930 . S
C190 H176 0.930 . S
C190 C188 1.395 . S
C190 C193 1.403 . S
C191 C188 1.403 . S
C191 C192 1.524 . S
C191 C195 1.400 . S
C192 H177 0.960 . S
C192 H178 0.960 . S
C192 H179 0.960 . S
C192 C191 1.524 . S
C193 C190 1.403 . S
C193 C194 1.392 . S
C193 C197 1.495 . S
C194 C193 1.392 . S
C194 C195 1.385 . S
C194 C196 1.478 1_565 S
C195 H189 0.930 . S
C195 C191 1.400 . S
C195 C194 1.385 . S
C196 C194 1.478 1_545 S
C196 C198 1.381 . S
C196 C202 1.383 . S
C197 C193 1.495 . S
C197 H203 0.959 . S
C197 H204 0.961 . S
C197 H205 0.960 1_565 S
C198 C196 1.381 . S
C198 C199 1.394 . S
C198 H206 0.930 . S
C199 C198 1.394 . S
C199 C200 1.383 . S
C199 H207 0.929 . S
C200 C199 1.383 . S
C200 C201 1.377 . S
C201 H185 0.930 . S
C201 C200 1.377 . S
C201 C202 1.379 . S
C202 H186 0.931 1_545 S
C202 C196 1.383 . S
C202 C201 1.379 . S
H203 C197 0.959 . S
H204 C197 0.961 . S
H205 C197 0.960 1_545 S
H206 C198 0.930 . S
H207 C199 0.929 . S
H208 C216 0.929 . S
H209 C218 0.930 . S
H210 C220 0.930 . S
H211 C223 0.929 . S
H212 C226 0.930 . S
H213 C228 0.960 . S
H214 C228 0.960 . S
H215 C228 0.960 . S
C216 H208 0.929 . S
C216 C217 1.377 . S
C216 C218 1.384 . S
C217 C216 1.377 . S
C217 C223 1.390 . S
C218 H209 0.930 . S
C218 C216 1.384 . S
C218 C219 1.372 . S
C219 C218 1.372 . S
C219 C220 1.400 . S
C219 C224 1.490 . S
C220 H210 0.930 . S
C220 C219 1.400 . S
C220 C223 1.386 . S
H221 C237 0.930 . S
H222 C238 0.931 . S
C223 H211 0.929 . S
C223 C217 1.390 . S
C223 C220 1.386 . S
C224 C219 1.490 . S
C224 C226 1.395 . S
C224 C227 1.403 . S
H225 C231 0.930 . S
C226 H212 0.930 . S
C226 C224 1.395 . S
C226 C229 1.403 . S
C227 C224 1.403 . S
C227 C228 1.524 . S
C227 C231 1.400 . S
C228 H213 0.960 . S
C228 H214 0.960 . S
C228 H215 0.960 . S
C228 C227 1.524 . S
C229 C226 1.403 . S
C229 C230 1.392 . S
C229 C233 1.495 . S
C230 C229 1.392 . S
C230 C231 1.385 . S
C230 C232 1.478 . S
C231 H225 0.930 . S
C231 C227 1.400 . S
C231 C230 1.385 . S
C232 C230 1.478 . S
C232 C234 1.381 . S
C232 C238 1.383 . S
C233 C229 1.495 . S
C233 H239 0.959 . S
C233 H240 0.961 . S
C233 H241 0.960 . S
C234 C232 1.381 . S
C234 C235 1.394 . S
C234 H242 0.930 . S
C235 C234 1.394 . S
C235 C236 1.383 . S
C235 H243 0.929 . S
C236 C235 1.383 . S
C236 C237 1.377 . S
C237 H221 0.930 . S
C237 C236 1.377 . S
C237 C238 1.379 . S
C238 H222 0.931 . S
C238 C232 1.383 . S
C238 C237 1.379 . S
H239 C233 0.959 . S
H240 C233 0.961 . S
H241 C233 0.960 . S
H242 C234 0.930 . S
H243 C235 0.929 . S
H244 C252 0.929 . S
H245 C254 0.930 . S
H246 C256 0.930 . S
H247 C259 0.929 . S
H248 C262 0.930 . S
H249 C264 0.960 . S
H250 C264 0.960 . S
H251 C264 0.960 . S
C252 H244 0.929 . S
C252 C253 1.377 . S
C252 C254 1.384 . S
C253 C252 1.377 . S
C253 C259 1.390 . S
C254 H245 0.930 . S
C254 C252 1.384 . S
C254 C255 1.372 . S
C255 C254 1.372 . S
C255 C256 1.400 . S
C255 C260 1.490 . S
C256 H246 0.930 . S
C256 C255 1.400 . S
C256 C259 1.386 . S
H257 C273 0.930 . S
H258 C274 0.931 . S
C259 H247 0.929 . S
C259 C253 1.390 . S
C259 C256 1.386 . S
C260 C255 1.490 . S
C260 C262 1.395 . S
C260 C263 1.403 . S
H261 C267 0.930 . S
C262 H248 0.930 . S
C262 C260 1.395 . S
C262 C265 1.403 . S
C263 C260 1.403 . S
C263 C264 1.524 . S
C263 C267 1.400 . S
C264 H249 0.960 . S
C264 H250 0.960 . S
C264 H251 0.960 . S
C264 C263 1.524 . S
C265 C262 1.403 . S
C265 C266 1.392 . S
C265 C269 1.495 . S
C266 C265 1.392 . S
C266 C267 1.385 . S
C266 C268 1.478 . S
C267 H261 0.930 . S
C267 C263 1.400 . S
C267 C266 1.385 . S
C268 C266 1.478 . S
C268 C270 1.381 . S
C268 C274 1.383 . S
C269 C265 1.495 . S
C269 H275 0.959 . S
C269 H276 0.961 . S
C269 H277 0.960 . S
C270 C268 1.381 . S
C270 C271 1.394 . S
C270 H278 0.930 . S
C271 C270 1.394 . S
C271 C272 1.383 . S
C271 H279 0.929 . S
C272 C271 1.383 . S
C272 C273 1.377 . S
C273 H257 0.930 . S
C273 C272 1.377 . S
C273 C274 1.379 . S
C274 H258 0.931 . S
C274 C268 1.383 . S
C274 C273 1.379 . S
H275 C269 0.959 . S
H276 C269 0.961 . S
H277 C269 0.960 . S
H278 C270 0.930 . S
H279 C271 0.929 . S
H280 C288 0.929 . S
H281 C290 0.930 . S
H282 C292 0.930 . S
H283 C295 0.929 . S
H284 C298 0.930 . S
H285 C300 0.960 . S
H286 C300 0.960 . S
H287 C300 0.960 . S
C288 H280 0.929 . S
C288 C289 1.377 . S
C288 C290 1.384 . S
C289 C288 1.377 . S
C289 C295 1.390 . S
C290 H281 0.930 . S
C290 C288 1.384 . S
C290 C291 1.372 . S
C291 C290 1.372 . S
C291 C292 1.400 . S
C291 C296 1.490 . S
C292 H282 0.930 . S
C292 C291 1.400 . S
C292 C295 1.386 . S
H293 C309 0.930 . S
H294 C310 0.931 . S
C295 H283 0.929 . S
C295 C289 1.390 . S
C295 C292 1.386 . S
C296 C291 1.490 . S
C296 C298 1.395 . S
C296 C299 1.403 . S
H297 C303 0.930 1_545 S
C298 H284 0.930 . S
C298 C296 1.395 . S
C298 C301 1.403 . S
C299 C296 1.403 . S
C299 C300 1.524 . S
C299 C303 1.400 . S
C300 H285 0.960 . S
C300 H286 0.960 . S
C300 H287 0.960 . S
C300 C299 1.524 . S
C301 C298 1.403 . S
C301 C302 1.392 . S
C301 C305 1.495 . S
C302 C301 1.392 . S
C302 C303 1.385 . S
C302 C304 1.478 1_565 S
C303 H297 0.930 1_565 S
C303 C299 1.400 . S
C303 C302 1.385 . S
C304 C302 1.478 1_545 S
C304 C306 1.381 . S
C304 C310 1.383 . S
C305 C301 1.495 . S
C305 H311 0.959 . S
C305 H312 0.961 . S
C305 H313 0.960 . S
C306 C304 1.381 . S
C306 C307 1.394 . S
C306 H314 0.930 . S
C307 C306 1.394 . S
C307 C308 1.383 . S
C307 H315 0.929 . S
C308 C307 1.383 . S
C308 C309 1.377 . S
C309 H293 0.930 . S
C309 C308 1.377 . S
C309 C310 1.379 . S
C310 H294 0.931 . S
C310 C304 1.383 . S
C310 C309 1.379 . S
H311 C305 0.959 . S
H312 C305 0.961 . S
H313 C305 0.960 . S
H314 C306 0.930 . S
H315 C307 0.929 . S
H316 C324 0.929 . S
H317 C326 0.930 . S
H318 C328 0.930 . S
H319 C331 0.929 . S
H320 C334 0.930 . S
H321 C336 0.960 . S
H322 C336 0.960 . S
H323 C336 0.960 . S
C324 H316 0.929 . S
C324 C325 1.377 . S
C324 C326 1.384 . S
C325 C324 1.377 . S
C325 C331 1.390 . S
C326 H317 0.930 . S
C326 C324 1.384 . S
C326 C327 1.372 . S
C327 C326 1.372 . S
C327 C328 1.400 . S
C327 C332 1.490 . S
C328 H318 0.930 . S
C328 C327 1.400 . S
C328 C331 1.386 . S
H329 C345 0.930 . S
H330 C346 0.931 1_545 S
C331 H319 0.929 . S
C331 C325 1.390 . S
C331 C328 1.386 . S
C332 C327 1.490 . S
C332 C334 1.395 . S
C332 C335 1.403 . S
H333 C339 0.930 . S
C334 H320 0.930 . S
C334 C332 1.395 . S
C334 C337 1.403 . S
C335 C332 1.403 . S
C335 C336 1.524 . S
C335 C339 1.400 . S
C336 H321 0.960 . S
C336 H322 0.960 . S
C336 H323 0.960 . S
C336 C335 1.524 . S
C337 C334 1.403 . S
C337 C338 1.392 . S
C337 C341 1.495 . S
C338 C337 1.392 . S
C338 C339 1.385 . S
C338 C340 1.478 1_545 S
C339 H333 0.930 . S
C339 C335 1.400 . S
C339 C338 1.385 . S
C340 C338 1.478 1_565 S
C340 C342 1.381 . S
C340 C346 1.383 . S
C341 C337 1.495 . S
C341 H347 0.959 . S
C341 H348 0.961 . S
C341 H349 0.960 1_545 S
C342 C340 1.381 . S
C342 C343 1.394 . S
C342 H350 0.930 . S
C343 C342 1.394 . S
C343 C344 1.383 . S
C343 H351 0.929 . S
C344 C343 1.383 . S
C344 C345 1.377 . S
C345 H329 0.930 . S
C345 C344 1.377 . S
C345 C346 1.379 . S
C346 H330 0.931 1_565 S
C346 C340 1.383 . S
C346 C345 1.379 . S
H347 C341 0.959 . S
H348 C341 0.961 . S
H349 C341 0.960 1_565 S
H350 C342 0.930 . S
H351 C343 0.929 . S
H352 C360 0.929 . S
H353 C362 0.930 . S
H354 C364 0.930 . S
H355 C367 0.929 . S
H356 C370 0.930 . S
H357 C372 0.960 . S
H358 C372 0.960 . S
H359 C372 0.960 . S
C360 H352 0.929 . S
C360 C361 1.377 . S
C360 C362 1.384 . S
C361 C360 1.377 . S
C361 C367 1.390 . S
C362 H353 0.930 . S
C362 C360 1.384 . S
C362 C363 1.372 . S
C363 C362 1.372 . S
C363 C364 1.400 . S
C363 C368 1.490 . S
C364 H354 0.930 . S
C364 C363 1.400 . S
C364 C367 1.386 . S
H365 C381 0.930 . S
H366 C382 0.931 . S
C367 H355 0.929 . S
C367 C361 1.390 . S
C367 C364 1.386 . S
C368 C363 1.490 . S
C368 C370 1.395 . S
C368 C371 1.403 . S
H369 C375 0.930 . S
C370 H356 0.930 . S
C370 C368 1.395 . S
C370 C373 1.403 . S
C371 C368 1.403 . S
C371 C372 1.524 . S
C371 C375 1.400 . S
C372 H357 0.960 . S
C372 H358 0.960 . S
C372 H359 0.960 . S
C372 C371 1.524 . S
C373 C370 1.403 . S
C373 C374 1.392 . S
C373 C377 1.495 . S
C374 C373 1.392 . S
C374 C375 1.385 . S
C374 C376 1.478 . S
C375 H369 0.930 . S
C375 C371 1.400 . S
C375 C374 1.385 . S
C376 C374 1.478 . S
C376 C378 1.381 . S
C376 C382 1.383 . S
C377 C373 1.495 . S
C377 H383 0.959 . S
C377 H384 0.961 . S
C377 H385 0.960 . S
C378 C376 1.381 . S
C378 C379 1.394 . S
C378 H386 0.930 . S
C379 C378 1.394 . S
C379 C380 1.383 . S
C379 H387 0.929 . S
C380 C379 1.383 . S
C380 C381 1.377 . S
C381 H365 0.930 . S
C381 C380 1.377 . S
C381 C382 1.379 . S
C382 H366 0.931 . S
C382 C376 1.383 . S
C382 C381 1.379 . S
H383 C377 0.959 . S
H384 C377 0.961 . S
H385 C377 0.960 . S
H386 C378 0.930 . S
H387 C379 0.929 . S
H388 C396 0.929 . S
H389 C398 0.930 . S
H390 C400 0.930 . S
H391 C403 0.929 . S
H392 C406 0.930 . S
H393 C408 0.960 . S
H394 C408 0.960 . S
H395 C408 0.960 . S
C396 H388 0.929 . S
C396 C397 1.377 . S
C396 C398 1.384 . S
C397 C396 1.377 . S
C397 C403 1.390 . S
C398 H389 0.930 . S
C398 C396 1.384 . S
C398 C399 1.372 . S
C399 C398 1.372 . S
C399 C400 1.400 . S
C399 C404 1.490 . S
C400 H390 0.930 . S
C400 C399 1.400 . S
C400 C403 1.386 . S
H401 C417 0.930 . S
H402 C418 0.931 . S
C403 H391 0.929 . S
C403 C397 1.390 . S
C403 C400 1.386 . S
C404 C399 1.490 . S
C404 C406 1.395 . S
C404 C407 1.403 . S
H405 C411 0.930 . S
C406 H392 0.930 . S
C406 C404 1.395 . S
C406 C409 1.403 . S
C407 C404 1.403 . S
C407 C408 1.524 . S
C407 C411 1.400 . S
C408 H393 0.960 . S
C408 H394 0.960 . S
C408 H395 0.960 . S
C408 C407 1.524 . S
C409 C406 1.403 . S
C409 C410 1.392 . S
C409 C413 1.495 . S
C410 C409 1.392 . S
C410 C411 1.385 . S
C410 C412 1.478 . S
C411 H405 0.930 . S
C411 C407 1.400 . S
C411 C410 1.385 . S
C412 C410 1.478 . S
C412 C414 1.381 . S
C412 C418 1.383 . S
C413 C409 1.495 . S
C413 H419 0.959 . S
C413 H420 0.961 . S
C413 H421 0.960 . S
C414 C412 1.381 . S
C414 C415 1.394 . S
C414 H422 0.930 . S
C415 C414 1.394 . S
C415 C416 1.383 . S
C415 H423 0.929 . S
C416 C415 1.383 . S
C416 C417 1.377 . S
C417 H401 0.930 . S
C417 C416 1.377 . S
C417 C418 1.379 . S
C418 H402 0.931 . S
C418 C412 1.383 . S
C418 C417 1.379 . S
H419 C413 0.959 . S
H420 C413 0.961 . S
H421 C413 0.960 . S
H422 C414 0.930 . S
H423 C415 0.929 . S
H424 C432 0.929 . S
H425 C434 0.930 . S
H426 C436 0.930 . S
H427 C439 0.929 . S
H428 C442 0.930 . S
H429 C444 0.960 . S
H430 C444 0.960 . S
H431 C444 0.960 . S
C432 H424 0.929 . S
C432 C433 1.377 . S
C432 C434 1.384 . S
C433 C432 1.377 . S
C433 C439 1.390 . S
C434 H425 0.930 . S
C434 C432 1.384 . S
C434 C435 1.372 . S
C435 C434 1.372 . S
C435 C436 1.400 . S
C435 C440 1.490 . S
C436 H426 0.930 . S
C436 C435 1.400 . S
C436 C439 1.386 . S
H437 C453 0.930 . S
H438 C454 0.931 . S
C439 H427 0.929 . S
C439 C433 1.390 . S
C439 C436 1.386 . S
C440 C435 1.490 . S
C440 C442 1.395 . S
C440 C443 1.403 . S
H441 C447 0.930 . S
C442 H428 0.930 . S
C442 C440 1.395 . S
C442 C445 1.403 . S
C443 C440 1.403 . S
C443 C444 1.524 . S
C443 C447 1.400 . S
C444 H429 0.960 . S
C444 H430 0.960 . S
C444 H431 0.960 . S
C444 C443 1.524 . S
C445 C442 1.403 . S
C445 C446 1.394 . S
C445 C449 1.495 1_545 S
C446 C445 1.394 . S
C446 C447 1.389 . S
C446 C448 1.472 1_545 S
C447 H441 0.930 . S
C447 C443 1.400 . S
C447 C446 1.389 . S
C448 C446 1.472 1_565 S
C448 C450 1.381 . S
C448 C454 1.383 . S
C449 C445 1.495 1_565 S
C449 H455 0.959 1_565 S
C449 H456 0.961 . S
C449 H457 0.960 . S
C450 C448 1.381 . S
C450 C451 1.394 . S
C450 H458 0.930 . S
C451 C450 1.394 . S
C451 C452 1.383 . S
C451 H459 0.929 . S
C452 C451 1.383 . S
C452 C453 1.377 . S
C453 H437 0.930 . S
C453 C452 1.377 . S
C453 C454 1.379 . S
C454 H438 0.931 . S
C454 C448 1.383 . S
C454 C453 1.379 . S
H455 C449 0.959 1_545 S
H456 C449 0.961 . S
H457 C449 0.960 . S
H458 C450 0.930 . S
H459 C451 0.929 . S
H460 C468 0.929 . S
H461 C470 0.955 . S
H462 C472 0.930 . S
H463 C475 0.929 . S
H464 C478 0.930 . S
H465 C480 0.960 . S
H466 C480 0.960 . S
H467 C480 0.960 . S
C468 H460 0.929 . S
C468 C469 1.377 . S
C468 C470 1.348 1_556 S
C469 C468 1.377 . S
C469 C475 1.390 . S
C470 H461 0.955 . S
C470 C468 1.348 1_554 S
C470 C471 1.385 . S
C471 C470 1.385 . S
C471 C472 1.400 1_554 S
C471 C476 1.490 . S
C472 H462 0.930 . S
C472 C471 1.400 1_556 S
C472 C475 1.386 . S
H473 C489 0.930 . S
H474 C490 0.931 . S
C475 H463 0.929 . S
C475 C469 1.390 . S
C475 C472 1.386 . S
C476 C471 1.490 . S
C476 C478 1.395 . S
C476 C479 1.403 . S
H477 C483 0.930 . S
C478 H464 0.930 . S
C478 C476 1.395 . S
C478 C481 1.403 . S
C479 C476 1.403 . S
C479 C480 1.524 . S
C479 C483 1.400 . S
C480 H465 0.960 . S
C480 H466 0.960 . S
C480 H467 0.960 . S
C480 C479 1.524 . S
C481 C478 1.403 . S
C481 C482 1.392 . S
C481 C485 1.495 . S
C482 C481 1.392 . S
C482 C483 1.385 . S
C482 C484 1.478 . S
C483 H477 0.930 . S
C483 C479 1.400 . S
C483 C482 1.385 . S
C484 C482 1.478 . S
C484 C486 1.381 . S
C484 C490 1.383 . S
C485 C481 1.495 . S
C485 H491 0.959 . S
C485 H492 0.961 . S
C485 H493 0.960 . S
C486 C484 1.381 . S
C486 C487 1.394 . S
C486 H494 0.930 . S
C487 C486 1.394 . S
C487 C488 1.383 . S
C487 H495 0.929 . S
C488 C487 1.383 . S
C488 C489 1.377 . S
C489 H473 0.930 . S
C489 C488 1.377 . S
C489 C490 1.379 . S
C490 H474 0.931 . S
C490 C484 1.383 . S
C490 C489 1.379 . S
H491 C485 0.959 . S
H492 C485 0.961 . S
H493 C485 0.960 . S
H494 C486 0.930 . S
H495 C487 0.929 . S
H496 C504 0.929 . S
H497 C506 0.930 . S
H498 C508 0.930 . S
H499 C511 0.929 . S
H500 C514 0.930 . S
H501 C516 0.960 . S
H502 C516 0.960 . S
H503 C516 0.960 . S
C504 H496 0.929 . S
C504 C505 1.377 . S
C504 C506 1.384 . S
C505 C504 1.377 . S
C505 C511 1.390 . S
C506 H497 0.930 . S
C506 C504 1.384 . S
C506 C507 1.372 . S
C507 C506 1.372 . S
C507 C508 1.400 . S
C507 C512 1.490 . S
C508 H498 0.930 . S
C508 C507 1.400 . S
C508 C511 1.386 . S
H509 C525 0.930 . S
H510 C526 0.931 . S
C511 H499 0.929 . S
C511 C505 1.390 . S
C511 C508 1.386 . S
C512 C507 1.490 . S
C512 C514 1.395 . S
C512 C515 1.403 . S
H513 C519 0.930 . S
C514 H500 0.930 . S
C514 C512 1.395 . S
C514 C517 1.403 . S
C515 C512 1.403 . S
C515 C516 1.524 . S
C515 C519 1.400 . S
C516 H501 0.960 . S
C516 H502 0.960 . S
C516 H503 0.960 . S
C516 C515 1.524 . S
C517 C514 1.403 . S
C517 C518 1.392 . S
C517 C521 1.495 . S
C518 C517 1.392 . S
C518 C519 1.385 . S
C518 C520 1.478 . S
C519 H513 0.930 . S
C519 C515 1.400 . S
C519 C518 1.385 . S
C520 C518 1.478 . S
C520 C522 1.381 . S
C520 C526 1.383 . S
C521 C517 1.495 . S
C521 H527 0.959 . S
C521 H528 0.961 . S
C521 H529 0.960 . S
C522 C520 1.381 . S
C522 C523 1.394 . S
C522 H530 0.930 . S
C523 C522 1.394 . S
C523 C524 1.383 . S
C523 H531 0.929 . S
C524 C523 1.383 . S
C524 C525 1.377 . S
C525 H509 0.930 . S
C525 C524 1.377 . S
C525 C526 1.379 . S
C526 H510 0.931 . S
C526 C520 1.383 . S
C526 C525 1.379 . S
H527 C521 0.959 . S
H528 C521 0.961 . S
H529 C521 0.960 . S
H530 C522 0.930 . S
H531 C523 0.929 . S
H532 C540 0.929 . S
H533 C542 0.930 1_556 S
H534 C544 0.930 . S
H535 C547 0.929 . S
H536 C550 0.930 . S
H537 C552 0.960 . S
H538 C552 0.958 1_554 S
H539 C552 0.960 . S
C540 H532 0.929 . S
C540 C541 1.377 . S
C540 C542 1.384 . S
C541 C540 1.377 . S
C541 C547 1.390 . S
C542 H533 0.930 1_554 S
C542 C540 1.384 . S
C542 C543 1.372 1_554 S
C543 C542 1.372 1_556 S
C543 C544 1.400 1_556 S
C543 C548 1.490 . S
C544 H534 0.930 . S
C544 C543 1.400 1_554 S
C544 C547 1.386 . S
H545 C561 0.930 . S
H546 C562 0.931 . S
C547 H535 0.929 . S
C547 C541 1.390 . S
C547 C544 1.386 . S
C548 C543 1.490 . S
C548 C550 1.395 . S
C548 C551 1.403 . S
H549 C555 0.930 . S
C550 H536 0.930 . S
C550 C548 1.395 . S
C550 C553 1.403 . S
C551 C548 1.403 . S
C551 C552 1.524 . S
C551 C555 1.400 . S
C552 H537 0.960 . S
C552 H538 0.958 1_556 S
C552 H539 0.960 . S
C552 C551 1.524 . S
C553 C550 1.403 . S
C553 C554 1.392 . S
C553 C557 1.495 . S
C554 C553 1.392 . S
C554 C555 1.385 . S
C554 C556 1.478 . S
C555 H549 0.930 . S
C555 C551 1.400 . S
C555 C554 1.385 . S
C556 C554 1.478 . S
C556 C558 1.381 . S
C556 C562 1.383 . S
C557 C553 1.495 . S
C557 H563 0.959 . S
C557 H564 0.961 . S
C557 H565 0.960 . S
C558 C556 1.381 . S
C558 C559 1.394 . S
C558 H566 0.930 . S
C559 C558 1.394 . S
C559 C560 1.383 . S
C559 H567 0.929 . S
C560 C559 1.383 . S
C560 C561 1.377 . S
C561 H545 0.930 . S
C561 C560 1.377 . S
C561 C562 1.379 . S
C562 H546 0.931 . S
C562 C556 1.383 . S
C562 C561 1.379 . S
H563 C557 0.959 . S
H564 C557 0.961 . S
H565 C557 0.960 . S
H566 C558 0.930 . S
H567 C559 0.929 . S
H568 C576 0.929 . S
H569 C578 0.930 . S
H570 C580 0.930 . S
H571 C583 0.929 . S
H572 C586 0.930 . S
H573 C588 0.960 . S
H574 C588 0.960 . S
H575 C588 0.960 . S
C576 H568 0.929 . S
C576 C577 1.377 . S
C576 C578 1.384 . S
C577 C576 1.377 . S
C577 C583 1.390 . S
C578 H569 0.930 . S
C578 C576 1.384 . S
C578 C579 1.372 . S
C579 C578 1.372 . S
C579 C580 1.400 . S
C579 C584 1.490 . S
C580 H570 0.930 . S
C580 C579 1.400 . S
C580 C583 1.386 . S
H581 C597 0.930 1_455 S
H582 C598 0.931 . S
C583 H571 0.929 . S
C583 C577 1.390 . S
C583 C580 1.386 . S
C584 C579 1.490 . S
C584 C586 1.395 . S
C584 C587 1.403 . S
H585 C591 0.930 . S
C586 H572 0.930 . S
C586 C584 1.395 . S
C586 C589 1.403 . S
C587 C584 1.403 . S
C587 C588 1.524 . S
C587 C591 1.400 . S
C588 H573 0.960 . S
C588 H574 0.960 . S
C588 H575 0.960 . S
C588 C587 1.524 . S
C589 C586 1.403 . S
C589 C590 1.392 . S
C589 C593 1.495 . S
C590 C589 1.392 . S
C590 C591 1.385 . S
C590 C592 1.478 . S
C591 H585 0.930 . S
C591 C587 1.400 . S
C591 C590 1.385 . S
C592 C590 1.478 . S
C592 C594 1.381 . S
C592 C598 1.383 . S
C593 C589 1.495 . S
C593 H599 0.959 . S
C593 H600 0.961 . S
C593 H601 0.960 . S
C594 C592 1.381 . S
C594 C595 1.394 . S
C594 H602 0.930 . S
C595 C594 1.394 . S
C595 C596 1.383 . S
C595 H603 0.929 . S
C596 C595 1.383 . S
C596 C597 1.377 . S
C597 H581 0.930 1_655 S
C597 C596 1.377 . S
C597 C598 1.379 . S
C598 H582 0.931 . S
C598 C592 1.383 . S
C598 C597 1.379 . S
H599 C593 0.959 . S
H600 C593 0.961 . S
H601 C593 0.960 . S
H602 C594 0.930 . S
H603 C595 0.929 . S
H604 C612 0.929 . S
H605 C614 0.930 . S
H606 C616 0.930 . S
H607 C619 0.929 . S
H608 C622 0.930 . S
H609 C624 0.960 . S
H610 C624 0.960 . S
H611 C624 0.960 . S
C612 H604 0.929 . S
C612 C613 1.377 . S
C612 C614 1.384 1_554 S
C613 C612 1.377 . S
C613 C619 1.390 . S
C614 H605 0.930 . S
C614 C612 1.384 1_556 S
C614 C615 1.372 . S
C615 C614 1.372 . S
C615 C616 1.400 . S
C615 C620 1.490 . S
C616 H606 0.930 . S
C616 C615 1.400 . S
C616 C619 1.386 1_556 S
H617 C633 0.930 . S
H618 C634 0.931 . S
C619 H607 0.929 . S
C619 C613 1.390 . S
C619 C616 1.386 1_554 S
C620 C615 1.490 . S
C620 C622 1.395 . S
C620 C623 1.403 . S
H621 C627 0.930 . S
C622 H608 0.930 . S
C622 C620 1.395 . S
C622 C625 1.403 . S
C623 C620 1.403 . S
C623 C624 1.524 . S
C623 C627 1.400 . S
C624 H609 0.960 . S
C624 H610 0.960 . S
C624 H611 0.960 . S
C624 C623 1.524 . S
C625 C622 1.403 . S
C625 C626 1.392 . S
C625 C629 1.495 . S
C626 C625 1.392 . S
C626 C627 1.385 . S
C626 C628 1.478 . S
C627 H621 0.930 . S
C627 C623 1.400 . S
C627 C626 1.385 . S
C628 C626 1.478 . S
C628 C630 1.381 . S
C628 C634 1.383 . S
C629 C625 1.495 . S
C629 H635 0.959 . S
C629 H636 0.961 . S
C629 H637 0.960 . S
C630 C628 1.381 . S
C630 C631 1.394 . S
C630 H638 0.930 . S
C631 C630 1.394 . S
C631 C632 1.383 . S
C631 H639 0.929 . S
C632 C631 1.383 . S
C632 C633 1.377 . S
C633 H617 0.930 . S
C633 C632 1.377 . S
C633 C634 1.379 . S
C634 H618 0.931 . S
C634 C628 1.383 . S
C634 C633 1.379 . S
H635 C629 0.959 . S
H636 C629 0.961 . S
H637 C629 0.960 . S
H638 C630 0.930 . S
H639 C631 0.929 . S
H640 C648 0.929 . S
H641 C650 0.930 . S
H642 C652 0.930 . S
H643 C655 0.929 . S
H644 C658 0.930 . S
H645 C660 0.960 . S
H646 C660 0.960 . S
H647 C660 0.960 . S
C648 H640 0.929 . S
C648 C649 1.377 . S
C648 C650 1.384 . S
C649 C648 1.377 . S
C649 C655 1.390 . S
C650 H641 0.930 . S
C650 C648 1.384 . S
C650 C651 1.372 . S
C651 C650 1.372 . S
C651 C652 1.400 . S
C651 C656 1.490 . S
C652 H642 0.930 . S
C652 C651 1.400 . S
C652 C655 1.386 . S
H653 C669 0.930 . S
H654 C670 0.931 . S
C655 H643 0.929 . S
C655 C649 1.390 . S
C655 C652 1.386 . S
C656 C651 1.490 . S
C656 C658 1.395 . S
C656 C659 1.403 . S
H657 C663 0.930 . S
C658 H644 0.930 . S
C658 C656 1.395 . S
C658 C661 1.403 . S
C659 C656 1.403 . S
C659 C660 1.524 . S
C659 C663 1.400 . S
C660 H645 0.960 . S
C660 H646 0.960 . S
C660 H647 0.960 . S
C660 C659 1.524 . S
C661 C658 1.403 . S
C661 C662 1.392 . S
C661 C665 1.495 . S
C662 C661 1.392 . S
C662 C663 1.385 . S
C662 C664 1.478 . S
C663 H657 0.930 . S
C663 C659 1.400 . S
C663 C662 1.385 . S
C664 C662 1.478 . S
C664 C666 1.381 . S
C664 C670 1.383 . S
C665 C661 1.495 . S
C665 H671 0.959 . S
C665 H672 0.961 . S
C665 H673 0.960 . S
C666 C664 1.381 . S
C666 C667 1.394 . S
C666 H674 0.930 . S
C667 C666 1.394 . S
C667 C668 1.383 . S
C667 H675 0.929 . S
C668 C667 1.383 . S
C668 C669 1.377 . S
C669 H653 0.930 . S
C669 C668 1.377 . S
C669 C670 1.379 . S
C670 H654 0.931 . S
C670 C664 1.383 . S
C670 C669 1.379 . S
H671 C665 0.959 . S
H672 C665 0.961 . S
H673 C665 0.960 . S
H674 C666 0.930 . S
H675 C667 0.929 . S
H676 C684 0.929 . S
H677 C686 0.930 . S
H678 C688 0.932 . S
H679 C691 0.929 . S
H680 C694 0.930 . S
H681 C696 0.960 . S
H682 C696 0.960 . S
H683 C696 0.960 . S
C684 H676 0.929 . S
C684 C685 1.377 . S
C684 C686 1.384 1_556 S
C685 C684 1.377 . S
C685 C691 1.390 . S
C686 H677 0.930 . S
C686 C684 1.384 1_554 S
C686 C687 1.372 . S
C687 C686 1.372 . S
C687 C688 1.414 . S
C687 C692 1.490 . S
C688 H678 0.932 . S
C688 C687 1.414 . S
C688 C691 1.369 1_554 S
H689 C705 0.930 . S
H690 C706 0.931 . S
C691 H679 0.929 . S
C691 C685 1.390 . S
C691 C688 1.369 1_556 S
C692 C687 1.490 . S
C692 C694 1.395 . S
C692 C695 1.403 . S
H693 C699 0.930 . S
C694 H680 0.930 . S
C694 C692 1.395 . S
C694 C697 1.403 . S
C695 C692 1.403 . S
C695 C696 1.524 . S
C695 C699 1.400 . S
C696 H681 0.960 . S
C696 H682 0.960 . S
C696 H683 0.960 . S
C696 C695 1.524 . S
C697 C694 1.403 . S
C697 C698 1.392 . S
C697 C701 1.495 . S
C698 C697 1.392 . S
C698 C699 1.385 . S
C698 C700 1.478 . S
C699 H693 0.930 . S
C699 C695 1.400 . S
C699 C698 1.385 . S
C700 C698 1.478 . S
C700 C702 1.381 . S
C700 C706 1.383 . S
C701 C697 1.495 . S
C701 H707 0.959 . S
C701 H708 0.961 . S
C701 H709 0.960 . S
C702 C700 1.381 . S
C702 C703 1.394 . S
C702 H710 0.930 . S
C703 C702 1.394 . S
C703 C704 1.383 . S
C703 H711 0.929 . S
C704 C703 1.383 . S
C704 C705 1.377 . S
C705 H689 0.930 . S
C705 C704 1.377 . S
C705 C706 1.379 . S
C706 H690 0.931 . S
C706 C700 1.383 . S
C706 C705 1.379 . S
H707 C701 0.959 . S
H708 C701 0.961 . S
H709 C701 0.960 . S
H710 C702 0.930 . S
H711 C703 0.929 . S
H712 C720 0.929 . S
H713 C722 0.930 . S
H714 C724 0.930 . S
H715 C727 0.929 . S
H716 C730 0.930 . S
H717 C732 0.960 . S
H718 C732 0.960 . S
H719 C732 0.960 . S
C720 H712 0.929 . S
C720 C721 1.377 . S
C720 C722 1.384 . S
C721 C720 1.377 . S
C721 C727 1.390 . S
C722 H713 0.930 . S
C722 C720 1.384 . S
C722 C723 1.372 . S
C723 C722 1.372 . S
C723 C724 1.400 . S
C723 C728 1.490 . S
C724 H714 0.930 . S
C724 C723 1.400 . S
C724 C727 1.386 . S
H725 C741 0.930 . S
H726 C742 0.931 . S
C727 H715 0.929 . S
C727 C721 1.390 . S
C727 C724 1.386 . S
C728 C723 1.490 . S
C728 C730 1.395 . S
C728 C731 1.403 . S
H729 C735 0.930 . S
C730 H716 0.930 . S
C730 C728 1.395 . S
C730 C733 1.403 . S
C731 C728 1.403 . S
C731 C732 1.524 . S
C731 C735 1.400 . S
C732 H717 0.960 . S
C732 H718 0.960 . S
C732 H719 0.960 . S
C732 C731 1.524 . S
C733 C730 1.403 . S
C733 C734 1.392 . S
C733 C737 1.495 . S
C734 C733 1.392 . S
C734 C735 1.385 . S
C734 C736 1.478 . S
C735 H729 0.930 . S
C735 C731 1.400 . S
C735 C734 1.385 . S
C736 C734 1.478 . S
C736 C738 1.381 . S
C736 C742 1.383 . S
C737 C733 1.495 . S
C737 H743 0.959 . S
C737 H744 0.961 . S
C737 H745 0.960 . S
C738 C736 1.381 . S
C738 C739 1.394 . S
C738 H746 0.930 . S
C739 C738 1.394 . S
C739 C740 1.383 . S
C739 H747 0.929 . S
C740 C739 1.383 . S
C740 C741 1.377 . S
C741 H725 0.930 . S
C741 C740 1.377 . S
C741 C742 1.379 . S
C742 H726 0.931 . S
C742 C736 1.383 . S
C742 C741 1.379 . S
H743 C737 0.959 . S
H744 C737 0.961 . S
H745 C737 0.960 . S
H746 C738 0.930 . S
H747 C739 0.929 . S
H748 C756 0.929 . S
H749 C758 0.930 . S
H750 C760 0.930 . S
H751 C763 0.929 . S
H752 C766 0.930 . S
H753 C768 0.960 . S
H754 C768 0.960 . S
H755 C768 0.960 . S
C756 H748 0.929 . S
C756 C757 1.377 . S
C756 C758 1.384 . S
C757 C756 1.377 . S
C757 C763 1.390 . S
C758 H749 0.930 . S
C758 C756 1.384 . S
C758 C759 1.372 . S
C759 C758 1.372 . S
C759 C760 1.400 . S
C759 C764 1.490 . S
C760 H750 0.930 . S
C760 C759 1.400 . S
C760 C763 1.386 . S
H761 C777 0.930 . S
H762 C778 0.931 . S
C763 H751 0.929 . S
C763 C757 1.390 . S
C763 C760 1.386 . S
C764 C759 1.490 . S
C764 C766 1.395 . S
C764 C767 1.403 . S
H765 C771 0.930 . S
C766 H752 0.930 . S
C766 C764 1.395 . S
C766 C769 1.403 . S
C767 C764 1.403 . S
C767 C768 1.524 . S
C767 C771 1.400 . S
C768 H753 0.960 . S
C768 H754 0.960 . S
C768 H755 0.960 . S
C768 C767 1.524 . S
C769 C766 1.403 . S
C769 C770 1.392 . S
C769 C773 1.495 . S
C770 C769 1.392 . S
C770 C771 1.385 . S
C770 C772 1.478 . S
C771 H765 0.930 . S
C771 C767 1.400 . S
C771 C770 1.385 . S
C772 C770 1.478 . S
C772 C774 1.381 . S
C772 C778 1.383 . S
C773 C769 1.495 . S
C773 H779 0.959 . S
C773 H780 0.961 . S
C773 H781 0.960 . S
C774 C772 1.381 . S
C774 C775 1.394 . S
C774 H782 0.930 . S
C775 C774 1.394 . S
C775 C776 1.383 . S
C775 H783 0.929 . S
C776 C775 1.383 . S
C776 C777 1.377 . S
C777 H761 0.930 . S
C777 C776 1.377 . S
C777 C778 1.379 . S
C778 H762 0.931 . S
C778 C772 1.383 . S
C778 C777 1.379 . S
H779 C773 0.959 . S
H780 C773 0.961 . S
H781 C773 0.960 . S
H782 C774 0.930 . S
H783 C775 0.929 . S
H784 C792 0.929 . S
H785 C794 0.930 . S
H786 C796 0.930 . S
H787 C799 0.929 . S
H788 C802 0.930 . S
H789 C804 0.960 . S
H790 C804 0.960 . S
H791 C804 0.960 . S
C792 H784 0.929 . S
C792 C793 1.377 . S
C792 C794 1.384 . S
C793 C792 1.377 . S
C793 C799 1.390 . S
C794 H785 0.930 . S
C794 C792 1.384 . S
C794 C795 1.372 . S
C795 C794 1.372 . S
C795 C796 1.400 . S
C795 C800 1.490 . S
C796 H786 0.930 . S
C796 C795 1.400 . S
C796 C799 1.386 . S
H797 C813 0.930 . S
H798 C814 0.931 . S
C799 H787 0.929 . S
C799 C793 1.390 . S
C799 C796 1.386 . S
C800 C795 1.490 . S
C800 C802 1.395 . S
C800 C803 1.403 . S
H801 C807 0.930 . S
C802 H788 0.930 . S
C802 C800 1.395 . S
C802 C805 1.403 . S
C803 C800 1.403 . S
C803 C804 1.524 . S
C803 C807 1.400 . S
C804 H789 0.960 . S
C804 H790 0.960 . S
C804 H791 0.960 . S
C804 C803 1.524 . S
C805 C802 1.403 . S
C805 C806 1.392 . S
C805 C809 1.495 . S
C806 C805 1.392 . S
C806 C807 1.385 . S
C806 C808 1.478 . S
C807 H801 0.930 . S
C807 C803 1.400 . S
C807 C806 1.385 . S
C808 C806 1.478 . S
C808 C810 1.381 . S
C808 C814 1.383 . S
C809 C805 1.495 . S
C809 H815 0.959 . S
C809 H816 0.961 . S
C809 H817 0.960 . S
C810 C808 1.381 . S
C810 C811 1.394 . S
C810 H818 0.930 . S
C811 C810 1.394 . S
C811 C812 1.383 . S
C811 H819 0.929 . S
C812 C811 1.383 . S
C812 C813 1.377 . S
C813 H797 0.930 . S
C813 C812 1.377 . S
C813 C814 1.379 . S
C814 H798 0.931 . S
C814 C808 1.383 . S
C814 C813 1.379 . S
H815 C809 0.959 . S
H816 C809 0.961 . S
H817 C809 0.960 . S
H818 C810 0.930 . S
H819 C811 0.929 . S
H820 C828 0.929 . S
H821 C830 0.930 . S
H822 C832 0.930 . S
H823 C835 0.929 . S
H824 C838 0.930 . S
H825 C840 0.960 . S
H826 C840 0.960 . S
H827 C840 0.960 . S
C828 H820 0.929 . S
C828 C829 1.377 . S
C828 C830 1.384 . S
C829 C828 1.377 . S
C829 C835 1.390 . S
C830 H821 0.930 . S
C830 C828 1.384 . S
C830 C831 1.372 . S
C831 C830 1.372 . S
C831 C832 1.400 . S
C831 C836 1.490 . S
C832 H822 0.930 . S
C832 C831 1.400 . S
C832 C835 1.386 . S
H833 C849 0.930 . S
H834 C850 0.931 . S
C835 H823 0.929 . S
C835 C829 1.390 . S
C835 C832 1.386 . S
C836 C831 1.490 . S
C836 C838 1.395 . S
C836 C839 1.403 . S
H837 C843 0.930 . S
C838 H824 0.930 . S
C838 C836 1.395 . S
C838 C841 1.403 . S
C839 C836 1.403 . S
C839 C840 1.524 . S
C839 C843 1.400 . S
C840 H825 0.960 . S
C840 H826 0.960 . S
C840 H827 0.960 . S
C840 C839 1.524 . S
C841 C838 1.403 . S
C841 C842 1.392 . S
C841 C845 1.495 . S
C842 C841 1.392 . S
C842 C843 1.385 . S
C842 C844 1.478 . S
C843 H837 0.930 . S
C843 C839 1.400 . S
C843 C842 1.385 . S
C844 C842 1.478 . S
C844 C846 1.381 . S
C844 C850 1.383 . S
C845 C841 1.495 . S
C845 H851 0.959 . S
C845 H852 0.961 . S
C845 H853 0.960 . S
C846 C844 1.381 . S
C846 C847 1.394 . S
C846 H854 0.930 . S
C847 C846 1.394 . S
C847 C848 1.383 . S
C847 H855 0.929 . S
C848 C847 1.383 . S
C848 C849 1.377 . S
C849 H833 0.930 . S
C849 C848 1.377 . S
C849 C850 1.379 . S
C850 H834 0.931 . S
C850 C844 1.383 . S
C850 C849 1.379 . S
H851 C845 0.959 . S
H852 C845 0.961 . S
H853 C845 0.960 . S
H854 C846 0.930 . S
H855 C847 0.929 . S
H856 C864 0.929 . S
H857 C866 0.930 . S
H858 C868 0.930 . S
H859 C871 0.929 . S
H860 C874 0.930 . S
H861 C876 0.960 . S
H862 C876 0.960 . S
H863 C876 0.960 . S
C864 H856 0.929 . S
C864 C865 1.377 . S
C864 C866 1.384 . S
C865 C864 1.377 . S
C865 C871 1.390 . S
C866 H857 0.930 . S
C866 C864 1.384 . S
C866 C867 1.372 . S
C867 C866 1.372 . S
C867 C868 1.400 . S
C867 C872 1.490 . S
C868 H858 0.930 . S
C868 C867 1.400 . S
C868 C871 1.386 . S
H869 C885 0.930 . S
H870 C886 0.931 . S
C871 H859 0.929 . S
C871 C865 1.390 . S
C871 C868 1.386 . S
C872 C867 1.490 . S
C872 C874 1.395 . S
C872 C875 1.403 . S
H873 C879 0.930 . S
C874 H860 0.930 . S
C874 C872 1.395 . S
C874 C877 1.403 . S
C875 C872 1.403 . S
C875 C876 1.524 . S
C875 C879 1.400 . S
C876 H861 0.960 . S
C876 H862 0.960 . S
C876 H863 0.960 . S
C876 C875 1.524 . S
C877 C874 1.403 . S
C877 C878 1.392 . S
C877 C881 1.495 . S
C878 C877 1.392 . S
C878 C879 1.385 . S
C878 C880 1.478 . S
C879 H873 0.930 . S
C879 C875 1.400 . S
C879 C878 1.385 . S
C880 C878 1.478 . S
C880 C882 1.381 . S
C880 C886 1.383 . S
C881 C877 1.495 . S
C881 H887 0.959 . S
C881 H888 0.961 . S
C881 H889 0.960 . S
C882 C880 1.381 . S
C882 C883 1.394 . S
C882 H890 0.930 . S
C883 C882 1.394 . S
C883 C884 1.383 . S
C883 H891 0.929 . S
C884 C883 1.383 . S
C884 C885 1.377 . S
C885 H869 0.930 . S
C885 C884 1.377 . S
C885 C886 1.379 . S
C886 H870 0.931 . S
C886 C880 1.383 . S
C886 C885 1.379 . S
H887 C881 0.959 . S
H888 C881 0.961 . S
H889 C881 0.960 . S
H890 C882 0.930 . S
H891 C883 0.929 . S
H892 C900 0.929 . S
H893 C902 0.930 . S
H894 C904 0.930 . S
H895 C907 0.929 . S
H896 C910 0.930 . S
H897 C912 0.960 . S
H898 C912 0.960 . S
H899 C912 0.960 . S
C900 H892 0.929 . S
C900 C901 1.377 . S
C900 C902 1.384 . S
C901 C900 1.377 . S
C901 C907 1.390 . S
C902 H893 0.930 . S
C902 C900 1.384 . S
C902 C903 1.372 . S
C903 C902 1.372 . S
C903 C904 1.400 . S
C903 C908 1.490 . S
C904 H894 0.930 . S
C904 C903 1.400 . S
C904 C907 1.386 . S
H905 C921 0.930 . S
H906 C922 0.931 . S
C907 H895 0.929 . S
C907 C901 1.390 . S
C907 C904 1.386 . S
C908 C903 1.490 . S
C908 C910 1.395 . S
C908 C911 1.403 . S
H909 C915 0.930 . S
C910 H896 0.930 . S
C910 C908 1.395 . S
C910 C913 1.403 . S
C911 C908 1.403 . S
C911 C912 1.524 . S
C911 C915 1.400 . S
C912 H897 0.960 . S
C912 H898 0.960 . S
C912 H899 0.960 . S
C912 C911 1.524 . S
C913 C910 1.403 . S
C913 C914 1.392 . S
C913 C917 1.495 . S
C914 C913 1.392 . S
C914 C915 1.385 . S
C914 C916 1.478 . S
C915 H909 0.930 . S
C915 C911 1.400 . S
C915 C914 1.385 . S
C916 C914 1.478 . S
C916 C918 1.381 . S
C916 C922 1.383 . S
C917 C913 1.495 . S
C917 H923 0.959 . S
C917 H924 0.961 . S
C917 H925 0.960 . S
C918 C916 1.381 . S
C918 C919 1.394 . S
C918 H926 0.930 . S
C919 C918 1.394 . S
C919 C920 1.383 . S
C919 H927 0.929 . S
C920 C919 1.383 . S
C920 C921 1.377 . S
C921 H905 0.930 . S
C921 C920 1.377 . S
C921 C922 1.379 . S
C922 H906 0.931 . S
C922 C916 1.383 . S
C922 C921 1.379 . S
H923 C917 0.959 . S
H924 C917 0.961 . S
H925 C917 0.960 . S
H926 C918 0.930 . S
H927 C919 0.929 . S
H928 C936 0.929 . S
H929 C938 0.930 . S
H930 C940 0.930 . S
H931 C943 0.929 . S
H932 C946 0.930 . S
H933 C948 0.960 . S
H934 C948 0.960 . S
H935 C948 0.960 . S
C936 H928 0.929 . S
C936 C937 1.377 . S
C936 C938 1.384 . S
C937 C936 1.377 . S
C937 C943 1.390 . S
C938 H929 0.930 . S
C938 C936 1.384 . S
C938 C939 1.372 . S
C939 C938 1.372 . S
C939 C940 1.400 . S
C939 C944 1.490 . S
C940 H930 0.930 . S
C940 C939 1.400 . S
C940 C943 1.386 . S
H941 C957 0.930 . S
H942 C958 0.931 . S
C943 H931 0.929 . S
C943 C937 1.390 . S
C943 C940 1.386 . S
C944 C939 1.490 . S
C944 C946 1.395 . S
C944 C947 1.403 . S
H945 C951 0.930 . S
C946 H932 0.930 . S
C946 C944 1.395 . S
C946 C949 1.403 . S
C947 C944 1.403 . S
C947 C948 1.524 . S
C947 C951 1.400 . S
C948 H933 0.960 . S
C948 H934 0.960 . S
C948 H935 0.960 . S
C948 C947 1.524 . S
C949 C946 1.403 . S
C949 C950 1.392 . S
C949 C953 1.495 . S
C950 C949 1.392 . S
C950 C951 1.385 . S
C950 C952 1.478 . S
C951 H945 0.930 . S
C951 C947 1.400 . S
C951 C950 1.385 . S
C952 C950 1.478 . S
C952 C954 1.381 . S
C952 C958 1.383 . S
C953 C949 1.495 . S
C953 H959 0.959 . S
C953 H960 0.961 . S
C953 H961 0.960 . S
C954 C952 1.381 . S
C954 C955 1.394 . S
C954 H962 0.930 . S
C955 C954 1.394 . S
C955 C956 1.383 . S
C955 H963 0.929 . S
C956 C955 1.383 . S
C956 C957 1.377 . S
C957 H941 0.930 . S
C957 C956 1.377 . S
C957 C958 1.379 . S
C958 H942 0.931 . S
C958 C952 1.383 . S
C958 C957 1.379 . S
H959 C953 0.959 . S
H960 C953 0.961 . S
H961 C953 0.960 . S
H962 C954 0.930 . S
H963 C955 0.929 . S
H964 C972 0.929 . S
H965 C974 0.930 . S
H966 C976 0.930 . S
H967 C979 0.929 . S
H968 C982 0.930 . S
H969 C984 0.960 . S
H970 C984 0.960 . S
H971 C984 0.960 . S
C972 H964 0.929 . S
C972 C973 1.377 . S
C972 C974 1.384 . S
C973 C972 1.377 . S
C973 C979 1.390 . S
C974 H965 0.930 . S
C974 C972 1.384 . S
C974 C975 1.372 . S
C975 C974 1.372 . S
C975 C976 1.400 . S
C975 C980 1.490 . S
C976 H966 0.930 . S
C976 C975 1.400 . S
C976 C979 1.386 . S
H977 C993 0.930 . S
H978 C994 0.931 . S
C979 H967 0.929 . S
C979 C973 1.390 . S
C979 C976 1.386 . S
C980 C975 1.490 . S
C980 C982 1.395 . S
C980 C983 1.403 . S
H981 C987 0.930 . S
C982 H968 0.930 . S
C982 C980 1.395 . S
C982 C985 1.403 . S
C983 C980 1.403 . S
C983 C984 1.524 . S
C983 C987 1.400 . S
C984 H969 0.960 . S
C984 H970 0.960 . S
C984 H971 0.960 . S
C984 C983 1.524 . S
C985 C982 1.403 . S
C985 C986 1.392 . S
C985 C989 1.495 . S
C986 C985 1.392 . S
C986 C987 1.385 . S
C986 C988 1.478 . S
C987 H981 0.930 . S
C987 C983 1.400 . S
C987 C986 1.385 . S
C988 C986 1.478 . S
C988 C990 1.381 . S
C988 C994 1.383 . S
C989 C985 1.495 . S
C989 H995 0.959 . S
C989 H996 0.961 . S
C989 H997 0.960 . S
C990 C988 1.381 . S
C990 C991 1.394 . S
C990 H998 0.930 . S
C991 C990 1.394 . S
C991 C992 1.383 . S
C991 H999 0.929 . S
C992 C991 1.383 . S
C992 C993 1.377 . S
C993 H977 0.930 . S
C993 C992 1.377 . S
C993 C994 1.379 . S
C994 H978 0.931 . S
C994 C988 1.383 . S
C994 C993 1.379 . S
H995 C989 0.959 . S
H996 C989 0.961 . S
H997 C989 0.960 . S
H998 C990 0.930 . S
H999 C991 0.929 . S
H1000 C1008 0.929 . S
H1001 C1010 0.930 . S
H1002 C1012 0.930 . S
H1003 C1015 0.929 . S
H1004 C1018 0.930 . S
H1005 C1020 0.960 . S
H1006 C1020 0.960 . S
H1007 C1020 0.960 . S
C1008 H1000 0.929 . S
C1008 C1009 1.377 . S
C1008 C1010 1.384 . S
C1009 C1008 1.377 . S
C1009 C1015 1.390 . S
C1010 H1001 0.930 . S
C1010 C1008 1.384 . S
C1010 C1011 1.372 . S
C1011 C1010 1.372 . S
C1011 C1012 1.400 . S
C1011 C1016 1.490 . S
C1012 H1002 0.930 . S
C1012 C1011 1.400 . S
C1012 C1015 1.386 . S
H1013 C1029 0.930 . S
H1014 C1030 0.931 . S
C1015 H1003 0.929 . S
C1015 C1009 1.390 . S
C1015 C1012 1.386 . S
C1016 C1011 1.490 . S
C1016 C1018 1.395 . S
C1016 C1019 1.403 . S
H1017 C1023 0.930 . S
C1018 H1004 0.930 . S
C1018 C1016 1.395 . S
C1018 C1021 1.403 . S
C1019 C1016 1.403 . S
C1019 C1020 1.524 . S
C1019 C1023 1.400 . S
C1020 H1005 0.960 . S
C1020 H1006 0.960 . S
C1020 H1007 0.960 . S
C1020 C1019 1.524 . S
C1021 C1018 1.403 . S
C1021 C1022 1.392 . S
C1021 C1025 1.495 . S
C1022 C1021 1.392 . S
C1022 C1023 1.385 . S
C1022 C1024 1.478 . S
C1023 H1017 0.930 . S
C1023 C1019 1.400 . S
C1023 C1022 1.385 . S
C1024 C1022 1.478 . S
C1024 C1026 1.381 . S
C1024 C1030 1.383 . S
C1025 C1021 1.495 . S
C1025 H1031 0.959 . S
C1025 H1032 0.961 . S
C1025 H1033 0.960 . S
C1026 C1024 1.381 . S
C1026 C1027 1.394 . S
C1026 H1034 0.930 . S
C1027 C1026 1.394 . S
C1027 C1028 1.383 . S
C1027 H1035 0.929 . S
C1028 C1027 1.383 . S
C1028 C1029 1.377 . S
C1029 H1013 0.930 . S
C1029 C1028 1.377 . S
C1029 C1030 1.379 . S
C1030 H1014 0.931 . S
C1030 C1024 1.383 . S
C1030 C1029 1.379 . S
H1031 C1025 0.959 . S
H1032 C1025 0.961 . S
H1033 C1025 0.960 . S
H1034 C1026 0.930 . S
H1035 C1027 0.929 . S
C181 C73 1.384 . S
C200 C104 1.331 . S
C236 C112 1.418 . S
C217 C84 1.505 . S
C272 C116 1.299 . S
C253 C51 1.383 . S
C289 C62 1.488 . S
C308 C92 1.442 . S
C344 C133 1.380 . S
C325 C29 1.485 . S
C380 C167 1.089 . S
C361 C38 1.029 . S
C397 C7 1.479 . S
C416 C155 1.352 . S
C433 C16 1.045 . S
C452 C137 1.111 . S
C488 C91 1.407 . S
C469 C18 1.544 . S
C524 C125 1.425 . S
C505 C5 1.384 . S
C560 C129 1.478 . S
C541 C40 1.555 . S
C596 C107 1.418 1_655 S
C577 C27 1.375 . S
C632 C146 1.226 . S
C613 C60 1.140 . S
C649 C49 1.141 . S
C668 C154 1.195 . S
C704 C170 1.184 . S
C685 C82 1.138 . S
C721 C71 1.151 . S
C740 C150 1.228 . S
C776 C95 1.482 . S
C757 C8 1.654 . S
C812 C113 1.331 . S
C793 C19 1.484 . S
C829 C30 1.644 . S
C848 C128 1.474 . S
C884 C108 1.327 . S
C865 C41 1.476 . S
C920 C134 1.289 . S
C901 C52 1.390 . S
C937 C63 1.556 . S
C956 C158 1.407 . S
C973 C74 1.382 . S
C992 C171 1.286 . S
C1009 C85 1.553 . S
C1028 C149 1.383 . S
