# Generated by pormake.
# Topology gar, (4,6)-cn, num edge types: 1
# Building blocks:
#     Node 0, Type 0, BuildingBlock: GALJAG_clean_sbu_0, # of connection points: 4
#     Node 1, Type 0, BuildingBlock: GALJAG_clean_sbu_0, # of connection points: 4
#     Node 2, Type 0, BuildingBlock: GALJAG_clean_sbu_0, # of connection points: 4
#     Node 3, Type 0, BuildingBlock: GALJAG_clean_sbu_0, # of connection points: 4
#     Node 4, Type 0, BuildingBlock: GALJAG_clean_sbu_0, # of connection points: 4
#     Node 5, Type 0, BuildingBlock: GALJAG_clean_sbu_0, # of connection points: 4
#     Node 6, Type 0, BuildingBlock: GALJAG_clean_sbu_0, # of connection points: 4
#     Node 7, Type 0, BuildingBlock: GALJAG_clean_sbu_0, # of connection points: 4
#     Node 8, Type 0, BuildingBlock: GALJAG_clean_sbu_0, # of connection points: 4
#     Node 9, Type 0, BuildingBlock: GALJAG_clean_sbu_0, # of connection points: 4
#     Node 10, Type 0, BuildingBlock: GALJAG_clean_sbu_0, # of connection points: 4
#     Node 11, Type 0, BuildingBlock: GALJAG_clean_sbu_0, # of connection points: 4
#     Node 12, Type 0, BuildingBlock: GALJAG_clean_sbu_0, # of connection points: 4
#     Node 13, Type 0, BuildingBlock: GALJAG_clean_sbu_0, # of connection points: 4
#     Node 14, Type 0, BuildingBlock: GALJAG_clean_sbu_0, # of connection points: 4
#     Node 15, Type 0, BuildingBlock: GALJAG_clean_sbu_0, # of connection points: 4
#     Node 16, Type 0, BuildingBlock: GALJAG_clean_sbu_0, # of connection points: 4
#     Node 17, Type 0, BuildingBlock: GALJAG_clean_sbu_0, # of connection points: 4
#     Node 18, Type 0, BuildingBlock: GALJAG_clean_sbu_0, # of connection points: 4
#     Node 19, Type 0, BuildingBlock: GALJAG_clean_sbu_0, # of connection points: 4
#     Node 20, Type 0, BuildingBlock: GALJAG_clean_sbu_0, # of connection points: 4
#     Node 21, Type 0, BuildingBlock: GALJAG_clean_sbu_0, # of connection points: 4
#     Node 22, Type 0, BuildingBlock: GALJAG_clean_sbu_0, # of connection points: 4
#     Node 23, Type 0, BuildingBlock: GALJAG_clean_sbu_0, # of connection points: 4
#     Node 24, Type 1, BuildingBlock: PAMTUU_clean_sbu_0, # of connection points: 6
#     Node 25, Type 1, BuildingBlock: PAMTUU_clean_sbu_0, # of connection points: 6
#     Node 26, Type 1, BuildingBlock: PAMTUU_clean_sbu_0, # of connection points: 6
#     Node 27, Type 1, BuildingBlock: PAMTUU_clean_sbu_0, # of connection points: 6
#     Node 28, Type 1, BuildingBlock: PAMTUU_clean_sbu_0, # of connection points: 6
#     Node 29, Type 1, BuildingBlock: PAMTUU_clean_sbu_0, # of connection points: 6
#     Node 30, Type 1, BuildingBlock: PAMTUU_clean_sbu_0, # of connection points: 6
#     Node 31, Type 1, BuildingBlock: PAMTUU_clean_sbu_0, # of connection points: 6
#     Node 32, Type 1, BuildingBlock: PAMTUU_clean_sbu_0, # of connection points: 6
#     Node 33, Type 1, BuildingBlock: PAMTUU_clean_sbu_0, # of connection points: 6
#     Node 34, Type 1, BuildingBlock: PAMTUU_clean_sbu_0, # of connection points: 6
#     Node 35, Type 1, BuildingBlock: PAMTUU_clean_sbu_0, # of connection points: 6
#     Node 36, Type 1, BuildingBlock: PAMTUU_clean_sbu_0, # of connection points: 6
#     Node 37, Type 1, BuildingBlock: PAMTUU_clean_sbu_0, # of connection points: 6
#     Node 38, Type 1, BuildingBlock: PAMTUU_clean_sbu_0, # of connection points: 6
#     Node 39, Type 1, BuildingBlock: PAMTUU_clean_sbu_0, # of connection points: 6
#     Edge 40, Type (0, 1), BuildingBlock: EZIPEK_clean_linker_0, # of connection points: 2
#     Edge 41, Type (0, 1), BuildingBlock: EZIPEK_clean_linker_0, # of connection points: 2
#     Edge 42, Type (0, 1), BuildingBlock: EZIPEK_clean_linker_0, # of connection points: 2
#     Edge 43, Type (0, 1), BuildingBlock: EZIPEK_clean_linker_0, # of connection points: 2
#     Edge 44, Type (0, 1), BuildingBlock: EZIPEK_clean_linker_0, # of connection points: 2
#     Edge 45, Type (0, 1), BuildingBlock: EZIPEK_clean_linker_0, # of connection points: 2
#     Edge 46, Type (0, 1), BuildingBlock: EZIPEK_clean_linker_0, # of connection points: 2
#     Edge 47, Type (0, 1), BuildingBlock: EZIPEK_clean_linker_0, # of connection points: 2
#     Edge 48, Type (0, 1), BuildingBlock: EZIPEK_clean_linker_0, # of connection points: 2
#     Edge 49, Type (0, 1), BuildingBlock: EZIPEK_clean_linker_0, # of connection points: 2
#     Edge 50, Type (0, 1), BuildingBlock: EZIPEK_clean_linker_0, # of connection points: 2
#     Edge 51, Type (0, 1), BuildingBlock: EZIPEK_clean_linker_0, # of connection points: 2
#     Edge 52, Type (0, 1), BuildingBlock: EZIPEK_clean_linker_0, # of connection points: 2
#     Edge 53, Type (0, 1), BuildingBlock: EZIPEK_clean_linker_0, # of connection points: 2
#     Edge 54, Type (0, 1), BuildingBlock: EZIPEK_clean_linker_0, # of connection points: 2
#     Edge 55, Type (0, 1), BuildingBlock: EZIPEK_clean_linker_0, # of connection points: 2
#     Edge 56, Type (0, 1), BuildingBlock: EZIPEK_clean_linker_0, # of connection points: 2
#     Edge 57, Type (0, 1), BuildingBlock: EZIPEK_clean_linker_0, # of connection points: 2
#     Edge 58, Type (0, 1), BuildingBlock: EZIPEK_clean_linker_0, # of connection points: 2
#     Edge 59, Type (0, 1), BuildingBlock: EZIPEK_clean_linker_0, # of connection points: 2
#     Edge 60, Type (0, 1), BuildingBlock: EZIPEK_clean_linker_0, # of connection points: 2
#     Edge 61, Type (0, 1), BuildingBlock: EZIPEK_clean_linker_0, # of connection points: 2
#     Edge 62, Type (0, 1), BuildingBlock: EZIPEK_clean_linker_0, # of connection points: 2
#     Edge 63, Type (0, 1), BuildingBlock: EZIPEK_clean_linker_0, # of connection points: 2
#     Edge 64, Type (0, 1), BuildingBlock: EZIPEK_clean_linker_0, # of connection points: 2
#     Edge 65, Type (0, 1), BuildingBlock: EZIPEK_clean_linker_0, # of connection points: 2
#     Edge 66, Type (0, 1), BuildingBlock: EZIPEK_clean_linker_0, # of connection points: 2
#     Edge 67, Type (0, 1), BuildingBlock: EZIPEK_clean_linker_0, # of connection points: 2
#     Edge 68, Type (0, 1), BuildingBlock: EZIPEK_clean_linker_0, # of connection points: 2
#     Edge 69, Type (0, 1), BuildingBlock: EZIPEK_clean_linker_0, # of connection points: 2
#     Edge 70, Type (0, 1), BuildingBlock: EZIPEK_clean_linker_0, # of connection points: 2
#     Edge 71, Type (0, 1), BuildingBlock: EZIPEK_clean_linker_0, # of connection points: 2
#     Edge 72, Type (0, 1), BuildingBlock: EZIPEK_clean_linker_0, # of connection points: 2
#     Edge 73, Type (0, 1), BuildingBlock: EZIPEK_clean_linker_0, # of connection points: 2
#     Edge 74, Type (0, 1), BuildingBlock: EZIPEK_clean_linker_0, # of connection points: 2
#     Edge 75, Type (0, 1), BuildingBlock: EZIPEK_clean_linker_0, # of connection points: 2
#     Edge 76, Type (0, 1), BuildingBlock: EZIPEK_clean_linker_0, # of connection points: 2
#     Edge 77, Type (0, 1), BuildingBlock: EZIPEK_clean_linker_0, # of connection points: 2
#     Edge 78, Type (0, 1), BuildingBlock: EZIPEK_clean_linker_0, # of connection points: 2
#     Edge 79, Type (0, 1), BuildingBlock: EZIPEK_clean_linker_0, # of connection points: 2
#     Edge 80, Type (0, 1), BuildingBlock: EZIPEK_clean_linker_0, # of connection points: 2
#     Edge 81, Type (0, 1), BuildingBlock: EZIPEK_clean_linker_0, # of connection points: 2
#     Edge 82, Type (0, 1), BuildingBlock: EZIPEK_clean_linker_0, # of connection points: 2
#     Edge 83, Type (0, 1), BuildingBlock: EZIPEK_clean_linker_0, # of connection points: 2
#     Edge 84, Type (0, 1), BuildingBlock: EZIPEK_clean_linker_0, # of connection points: 2
#     Edge 85, Type (0, 1), BuildingBlock: EZIPEK_clean_linker_0, # of connection points: 2
#     Edge 86, Type (0, 1), BuildingBlock: EZIPEK_clean_linker_0, # of connection points: 2
#     Edge 87, Type (0, 1), BuildingBlock: EZIPEK_clean_linker_0, # of connection points: 2
#     Edge 88, Type (0, 1), BuildingBlock: EZIPEK_clean_linker_0, # of connection points: 2
#     Edge 89, Type (0, 1), BuildingBlock: EZIPEK_clean_linker_0, # of connection points: 2
#     Edge 90, Type (0, 1), BuildingBlock: EZIPEK_clean_linker_0, # of connection points: 2
#     Edge 91, Type (0, 1), BuildingBlock: EZIPEK_clean_linker_0, # of connection points: 2
#     Edge 92, Type (0, 1), BuildingBlock: EZIPEK_clean_linker_0, # of connection points: 2
#     Edge 93, Type (0, 1), BuildingBlock: EZIPEK_clean_linker_0, # of connection points: 2
#     Edge 94, Type (0, 1), BuildingBlock: EZIPEK_clean_linker_0, # of connection points: 2
#     Edge 95, Type (0, 1), BuildingBlock: EZIPEK_clean_linker_0, # of connection points: 2
#     Edge 96, Type (0, 1), BuildingBlock: EZIPEK_clean_linker_0, # of connection points: 2
#     Edge 97, Type (0, 1), BuildingBlock: EZIPEK_clean_linker_0, # of connection points: 2
#     Edge 98, Type (0, 1), BuildingBlock: EZIPEK_clean_linker_0, # of connection points: 2
#     Edge 99, Type (0, 1), BuildingBlock: EZIPEK_clean_linker_0, # of connection points: 2
#     Edge 100, Type (0, 1), BuildingBlock: EZIPEK_clean_linker_0, # of connection points: 2
#     Edge 101, Type (0, 1), BuildingBlock: EZIPEK_clean_linker_0, # of connection points: 2
#     Edge 102, Type (0, 1), BuildingBlock: EZIPEK_clean_linker_0, # of connection points: 2
#     Edge 103, Type (0, 1), BuildingBlock: EZIPEK_clean_linker_0, # of connection points: 2
#     Edge 104, Type (0, 1), BuildingBlock: EZIPEK_clean_linker_0, # of connection points: 2
#     Edge 105, Type (0, 1), BuildingBlock: EZIPEK_clean_linker_0, # of connection points: 2
#     Edge 106, Type (0, 1), BuildingBlock: EZIPEK_clean_linker_0, # of connection points: 2
#     Edge 107, Type (0, 1), BuildingBlock: EZIPEK_clean_linker_0, # of connection points: 2
#     Edge 108, Type (0, 1), BuildingBlock: EZIPEK_clean_linker_0, # of connection points: 2
#     Edge 109, Type (0, 1), BuildingBlock: EZIPEK_clean_linker_0, # of connection points: 2
#     Edge 110, Type (0, 1), BuildingBlock: EZIPEK_clean_linker_0, # of connection points: 2
#     Edge 111, Type (0, 1), BuildingBlock: EZIPEK_clean_linker_0, # of connection points: 2
#     Edge 112, Type (0, 1), BuildingBlock: EZIPEK_clean_linker_0, # of connection points: 2
#     Edge 113, Type (0, 1), BuildingBlock: EZIPEK_clean_linker_0, # of connection points: 2
#     Edge 114, Type (0, 1), BuildingBlock: EZIPEK_clean_linker_0, # of connection points: 2
#     Edge 115, Type (0, 1), BuildingBlock: EZIPEK_clean_linker_0, # of connection points: 2
#     Edge 116, Type (0, 1), BuildingBlock: EZIPEK_clean_linker_0, # of connection points: 2
#     Edge 117, Type (0, 1), BuildingBlock: EZIPEK_clean_linker_0, # of connection points: 2
#     Edge 118, Type (0, 1), BuildingBlock: EZIPEK_clean_linker_0, # of connection points: 2
#     Edge 119, Type (0, 1), BuildingBlock: EZIPEK_clean_linker_0, # of connection points: 2
#     Edge 120, Type (0, 1), BuildingBlock: EZIPEK_clean_linker_0, # of connection points: 2
#     Edge 121, Type (0, 1), BuildingBlock: EZIPEK_clean_linker_0, # of connection points: 2
#     Edge 122, Type (0, 1), BuildingBlock: EZIPEK_clean_linker_0, # of connection points: 2
#     Edge 123, Type (0, 1), BuildingBlock: EZIPEK_clean_linker_0, # of connection points: 2
#     Edge 124, Type (0, 1), BuildingBlock: EZIPEK_clean_linker_0, # of connection points: 2
#     Edge 125, Type (0, 1), BuildingBlock: EZIPEK_clean_linker_0, # of connection points: 2
#     Edge 126, Type (0, 1), BuildingBlock: EZIPEK_clean_linker_0, # of connection points: 2
#     Edge 127, Type (0, 1), BuildingBlock: EZIPEK_clean_linker_0, # of connection points: 2
#     Edge 128, Type (0, 1), BuildingBlock: EZIPEK_clean_linker_0, # of connection points: 2
#     Edge 129, Type (0, 1), BuildingBlock: EZIPEK_clean_linker_0, # of connection points: 2
#     Edge 130, Type (0, 1), BuildingBlock: EZIPEK_clean_linker_0, # of connection points: 2
#     Edge 131, Type (0, 1), BuildingBlock: EZIPEK_clean_linker_0, # of connection points: 2
#     Edge 132, Type (0, 1), BuildingBlock: EZIPEK_clean_linker_0, # of connection points: 2
#     Edge 133, Type (0, 1), BuildingBlock: EZIPEK_clean_linker_0, # of connection points: 2
#     Edge 134, Type (0, 1), BuildingBlock: EZIPEK_clean_linker_0, # of connection points: 2
#     Edge 135, Type (0, 1), BuildingBlock: EZIPEK_clean_linker_0, # of connection points: 2
# Relax obj value: 0.239
# Max RMSD: 0.375
# Mean RMSD: 0.189
data_MOF--net-gar--node1-GALJAG_clean_sbu_0--node2-PAMTUU_clean_sbu_0--edge1-EZIPEK_clean_linker_0
_symmetry_space_group_name_H-M    P1
_symmetry_Int_Tables_number       1
_symmetry_cell_setting            triclinic
loop_
_symmetry_equiv_pos_as_xyz
'x, y, z'
_cell_length_a     45.573144
_cell_length_b     41.917031
_cell_length_c     45.078423
_cell_angle_alpha  94.066571
_cell_angle_beta   94.309056
_cell_angle_gamma 106.83659
loop_
_atom_site_label
_atom_site_type_symbol
_atom_site_fract_x
_atom_site_fract_y
_atom_site_fract_z
_atom_type_partial_charge
In0 In 0.08248 0.30459 0.42054 0.0
O1 O 0.11462 0.29385 0.37877 0.0
O2 O 0.14005 0.3224 0.41518 0.0
C3 C 1.01869 0.30067 0.3896 0.0
C4 C 0.07776 0.24329 0.45424 0.0
C5 C 0.08829 0.3697 0.45588 0.0
O6 O 0.04382 0.30551 0.37726 0.0
O7 O 1.02538 0.29606 0.41655 0.0
O8 O 0.08572 0.34179 0.4665 0.0
O9 O 0.08976 0.36546 0.42788 0.0
C10 C 0.14246 0.30869 0.3896 0.0
O11 O 0.08729 0.27379 0.46513 0.0
O12 O 0.06993 0.24334 0.4265 0.0
In13 In 0.07353 0.81982 0.69493 0.0
O14 O 0.06895 0.85092 0.65049 0.0
O15 O 0.08565 0.88092 0.68983 0.0
C16 C 0.07074 0.75605 0.65877 0.0
C17 C 0.13636 0.82347 0.72679 0.0
C18 C 1.0135 0.8162 0.72535 0.0
O19 O 0.07463 0.78452 0.64882 0.0
O20 O 0.0662 0.75905 0.68617 0.0
O21 O 0.04106 0.83357 0.735 0.0
O22 O 1.01604 0.79979 0.70117 0.0
C23 C 0.07825 0.88123 0.66206 0.0
O24 O 0.11012 0.8107 0.73617 0.0
O25 O 0.13108 0.8365 0.70309 0.0
In26 In 0.58162 0.80456 0.91601 0.0
O27 O 0.61379 0.80202 0.8721 0.0
O28 O 0.63905 0.81491 0.91258 0.0
C29 C 0.51803 0.80081 0.88526 0.0
C30 C 0.57653 0.74265 0.9494 0.0
C31 C 0.58718 0.8701 0.95042 0.0
O32 O 0.54224 0.80172 0.87223 0.0
O33 O 0.5255 0.80004 0.91288 0.0
O34 O 0.57934 0.84153 0.96035 0.0
O35 O 0.59422 0.8663 0.92391 0.0
C36 C 0.64137 0.80932 0.88476 0.0
O37 O 0.58877 0.77311 0.95976 0.0
O38 O 0.56635 0.74298 0.92229 0.0
In39 In 0.57318 0.31801 0.19432 0.0
O40 O 0.57389 0.28363 0.14717 0.0
O41 O 0.56626 0.25722 0.18389 0.0
C42 C 0.57767 0.37945 0.16057 0.0
C43 C 0.5135 0.31421 0.22667 0.0
C44 C 0.6358 0.32092 0.22728 0.0
O45 O 0.56865 0.34898 0.14947 0.0
O46 O 0.58497 0.37941 0.18847 0.0
O47 O 0.60911 0.30576 0.23448 0.0
O48 O 0.63114 0.33661 0.20504 0.0
C49 C 0.57039 0.25487 0.15634 0.0
O50 O 0.54167 0.3272 0.23738 0.0
O51 O 0.51532 0.30231 0.20017 0.0
In52 In 0.13848 0.84796 0.15475 0.0
O53 O 0.1392 0.80773 0.11585 0.0
O54 O 0.12033 0.79049 0.15522 0.0
C55 C 0.13648 0.90564 0.12709 0.0
C56 C 0.0859 0.83874 0.1815 0.0
C57 C 0.19262 0.85395 0.19011 0.0
O58 O 0.13554 0.87821 0.11275 0.0
O59 O 0.14066 0.90468 0.15494 0.0
O60 O 0.1684 0.85693 0.20015 0.0
O61 O 0.1906 0.85016 0.16186 0.0
C62 C 0.12681 0.78264 0.12958 0.0
O63 O 0.11232 0.84928 0.19576 0.0
O64 O 0.08581 0.8331 0.15358 0.0
In65 In 0.52662 0.79771 0.47364 0.0
O66 O 0.54651 0.78131 0.43239 0.0
O67 O 0.57538 0.82237 0.46143 0.0
C68 C 0.47452 0.79495 0.43741 0.0
C69 C 0.53299 0.74251 0.50222 0.0
C70 C 0.53584 0.86089 0.5027 0.0
O71 O 0.49854 0.79058 0.42801 0.0
O72 O 0.47526 0.79763 0.46569 0.0
O73 O 0.52997 0.83475 0.51651 0.0
O74 O 0.53692 0.8547 0.47514 0.0
C75 C 0.57228 0.80334 0.43771 0.0
O76 O 0.55275 0.771 0.50542 0.0
O77 O 0.50855 0.74224 0.4867 0.0
In78 In 0.63393 0.34302 0.65564 0.0
O79 O 0.64015 0.30374 0.61849 0.0
O80 O 0.60916 0.2862 0.65035 0.0
C81 C 0.63183 0.40106 0.62897 0.0
C82 C 0.58481 0.33685 0.68733 0.0
C83 C 0.68739 0.34651 0.69065 0.0
O84 O 0.62285 0.37206 0.61518 0.0
O85 O 0.64374 0.40112 0.65519 0.0
O86 O 0.66188 0.34423 0.70068 0.0
O87 O 0.68676 0.3484 0.6627 0.0
C88 C 0.6216 0.27871 0.62802 0.0
O89 O 0.61219 0.3454 0.69941 0.0
O90 O 0.5821 0.33195 0.65915 0.0
In91 In 1.02508 0.30049 0.97559 0.0
O92 O 0.05245 0.27368 1.00603 0.0
O93 O 1.00858 0.24424 0.98715 0.0
C94 C 0.03406 0.36307 1.0063 0.0
C95 C 0.07108 0.30683 0.93982 0.0
C96 C 0.97123 0.29509 0.94077 0.0
O97 O 0.03038 0.33676 0.01968 0.0
O98 O 0.03234 0.35726 0.97836 0.0
O99 O 0.99697 0.29885 0.93075 0.0
O100 O 0.97181 0.29191 0.96861 0.0
C101 C 0.03331 0.24479 1.00228 0.0
O102 O 0.04554 0.28442 0.93435 0.0
O103 O 0.0735 0.32607 0.96325 0.0
In104 In 0.49855 0.09167 0.34109 0.0
O105 O 0.542 0.12705 0.32642 0.0
O106 O 0.53543 0.07455 0.3206 0.0
C107 C 0.51986 0.10001 0.39894 0.0
C108 C 0.46476 0.12241 0.30916 0.0
C109 C 0.45473 0.03237 0.33551 0.0
O110 O 0.51795 0.07427 0.38185 0.0
O111 O 0.51098 0.12248 0.38698 0.0
O112 O 0.45418 0.05632 0.35379 0.0
O113 O 0.47741 0.03811 0.32016 0.0
C114 C 0.55233 0.10358 0.31738 0.0
O115 O 0.46825 0.12611 0.33743 0.0
O116 O 0.47996 0.10517 0.29714 0.0
In117 In 0.31173 0.24941 0.55852 0.0
O118 O 0.3245 0.29496 0.59733 0.0
O119 O 0.30526 0.24617 0.60904 0.0
C120 C 0.31896 0.27096 0.50012 0.0
C121 C 0.35966 0.22509 0.56695 0.0
C122 C 0.2547 0.20372 0.55433 0.0
O123 O 0.30782 0.28572 0.5201 0.0
O124 O 0.32654 0.24674 0.50987 0.0
O125 O 0.27925 0.19583 0.55312 0.0
O126 O 0.25831 0.23494 0.55601 0.0
C127 C 0.31603 0.27664 0.61835 0.0
O128 O 0.33237 0.20673 0.56013 0.0
O129 O 0.36332 0.2563 0.56943 0.0
In130 In 0.18719 0.06027 0.84438 0.0
O131 O 0.14442 0.02026 0.82139 0.0
O132 O 0.14856 0.07164 0.81692 0.0
C133 C 0.16701 0.05713 0.89876 0.0
C134 C 0.2248 0.02744 0.82295 0.0
C135 C 0.22493 0.12179 0.8407 0.0
O136 O 0.17013 0.03168 0.88418 0.0
O137 O 0.17448 0.08379 0.88621 0.0
O138 O 0.22941 0.10411 0.86108 0.0
O139 O 0.20136 0.10873 0.82248 0.0
C140 C 0.13313 0.0414 0.81019 0.0
O141 O 0.22455 0.03439 0.85061 0.0
O142 O 0.20527 0.0356 0.80634 0.0
In143 In 0.33797 0.96698 0.01312 0.0
O144 O 0.36035 0.93269 0.03641 0.0
O145 O 0.32312 0.94402 0.05619 0.0
C146 C 0.31619 0.92829 0.96163 0.0
C147 C 0.30841 1.00992 0.03191 0.0
C148 C 0.39516 1.00421 1.00707 0.0
O149 O 0.30624 0.91982 0.98612 0.0
O150 O 0.33553 0.95678 0.96292 0.0
O151 O 0.37215 1.01335 0.99836 0.0
O152 O 0.3892 0.97654 0.01803 0.0
C153 C 0.3437 0.92935 0.05769 0.0
O154 O 0.33501 1.01128 0.04295 0.0
O155 O 0.29632 0.98663 0.01138 0.0
In156 In 0.34034 0.38307 0.06705 0.0
O157 O 0.32345 0.34036 0.10003 0.0
O158 O 0.35275 0.38679 0.11896 0.0
C159 C 0.3343 0.35783 1.00637 0.0
C160 C 0.29351 0.41001 0.0698 0.0
C161 C 0.39713 0.42713 0.06575 0.0
O162 O 0.34065 0.34171 0.02764 0.0
O163 O 0.33007 0.38498 0.01591 0.0
O164 O 0.37298 0.43581 0.06725 0.0
O165 O 0.39318 0.39593 0.06586 0.0
C166 C 0.3365 0.35818 0.12407 0.0
O167 O 0.32135 0.42676 0.07609 0.0
O168 O 0.28878 0.37921 0.06209 0.0
In169 In 0.82485 0.16328 0.10196 0.0
O170 O 0.85713 0.13164 0.11115 0.0
O171 O 0.8436 0.13663 0.06593 0.0
C172 C 0.76692 0.1265 0.10811 0.0
C173 C 0.84471 0.20024 0.15454 0.0
C174 C 0.81924 0.20455 0.06052 0.0
O175 O 0.78704 0.11357 0.09966 0.0
O176 O 0.77627 0.15803 0.11266 0.0
O177 O 0.84356 0.21002 0.0779 0.0
O178 O 0.79807 0.17846 0.06391 0.0
C179 C 0.85848 0.12397 0.08384 0.0
O180 O 0.85623 0.20906 0.13076 0.0
O181 O 0.82494 0.17187 0.1522 0.0
In182 In 0.2292 0.56816 0.25886 0.0
O183 O 0.27547 0.57101 0.24145 0.0
O184 O 0.24596 0.52314 0.24695 0.0
C185 C 0.25869 0.62958 0.2842 0.0
C186 C 0.18886 0.56149 0.21122 0.0
C187 C 0.19472 0.55117 0.30432 0.0
O188 O 0.2618 0.60388 0.2955 0.0
O189 O 0.24137 0.62426 0.26006 0.0
O190 O 0.19008 0.57063 0.28575 0.0
O191 O 0.21626 0.5387 0.29946 0.0
C192 C 0.27126 0.5399 0.2387 0.0
O193 O 0.18772 0.53801 0.2275 0.0
O194 O 0.21113 0.58764 0.21804 0.0
In195 In 0.8408 0.88684 0.55604 0.0
O196 O 0.83188 0.84453 0.59046 0.0
O197 O 0.8422 0.89461 0.60829 0.0
C198 C 0.83377 0.86183 0.4949 0.0
C199 C 0.79361 0.91326 0.55675 0.0
C200 C 0.89959 0.92833 0.55765 0.0
O201 O 0.83256 0.843 0.51607 0.0
O202 O 0.83811 0.89186 0.50478 0.0
O203 O 0.87588 0.93801 0.55571 0.0
O204 O 0.89406 0.89718 0.55991 0.0
C205 C 0.83517 0.86445 0.61401 0.0
O206 O 0.82145 0.93068 0.55997 0.0
O207 O 0.78902 0.88197 0.55256 0.0
In208 In 0.96537 0.06255 0.25562 0.0
O209 O 1.00027 0.10129 0.23302 0.0
O210 O 0.96965 0.05955 0.206 0.0
C211 C 1.01023 0.05121 0.29101 0.0
C212 C 0.93574 0.10003 0.28384 0.0
C213 C 0.92195 1.00309 0.25256 0.0
O214 O 0.99817 0.03296 0.26726 0.0
O215 O 1.00061 0.07623 0.29641 0.0
O216 O 0.91501 0.0297 0.24948 0.0
O217 O 0.95028 1.00628 0.25498 0.0
C218 C 0.99224 0.08556 0.20748 0.0
O219 O 0.93354 0.09527 0.25566 0.0
O220 O 0.95404 0.08741 0.29771 0.0
In221 In 0.33145 0.6731 0.59056 0.0
O222 O 0.33253 0.62595 0.56324 0.0
O223 O 0.37518 0.65812 0.58434 0.0
C224 C 0.27331 0.63804 0.59556 0.0
C225 C 0.34352 0.70417 0.64618 0.0
C226 C 0.33676 0.71843 0.55077 0.0
O227 O 0.29556 0.63211 0.61016 0.0
O228 O 0.28042 0.66152 0.57905 0.0
O229 O 0.35787 0.72132 0.57152 0.0
O230 O 0.31425 0.69236 0.54952 0.0
C231 C 0.36114 0.63133 0.5683 0.0
O232 O 0.32972 0.71406 0.62517 0.0
O233 O 0.35241 0.67904 0.63921 0.0
In234 In 0.45938 0.56976 0.75975 0.0
O235 O 0.41574 0.57744 0.73753 0.0
O236 O 0.43489 0.60495 0.77952 0.0
C237 C 0.42839 0.5093 0.774 0.0
C238 C 0.48747 0.57953 0.70999 0.0
C239 C 0.50853 0.58386 0.80021 0.0
O240 O 0.4334 0.53534 0.79178 0.0
O241 O 0.43946 0.51356 0.74925 0.0
O242 O 0.49711 0.55553 0.7857 0.0
O243 O 0.49557 0.60571 0.7938 0.0
C244 C 0.41338 0.59753 0.75865 0.0
O245 O 0.49323 0.60206 0.7315 0.0
O246 O 0.46666 0.553 0.71313 0.0
In247 In 0.73121 0.06147 0.74346 0.0
O248 O 0.75921 0.02527 0.74884 0.0
O249 O 0.75922 0.04704 0.70754 0.0
C250 C 0.77003 0.12299 0.7555 0.0
C251 C 0.68321 0.0517 0.70242 0.0
C252 C 0.70606 0.05567 0.79602 0.0
O253 O 0.77734 0.09755 0.76281 0.0
O254 O 0.74387 0.11716 0.74119 0.0
O255 O 0.7171 0.08311 0.7856 0.0
O256 O 0.70757 0.03025 0.78012 0.0
C257 C 0.76941 0.02845 0.72361 0.0
O258 O 0.68548 0.02923 0.71886 0.0
O259 O 0.70525 0.07832 0.70614 0.0
In260 In 0.80986 0.74286 0.04591 0.0
O261 O 0.83172 0.7009 0.04472 0.0
O262 O 0.86198 0.75033 0.05539 0.0
C263 C 0.75262 0.69827 0.04374 0.0
C264 C 0.81282 0.77015 0.10556 0.0
C265 C 0.8162 0.76485 0.98774 0.0
O266 O 0.7771 0.69008 0.04523 0.0
O267 O 0.75641 0.72922 0.04191 0.0
O268 O 0.81634 0.78428 0.0108 0.0
O269 O 0.81212 0.73511 0.99396 0.0
C270 C 0.8589 0.71926 0.05188 0.0
O271 O 0.8154 0.7881 0.0837 0.0
O272 O 0.80907 0.73983 0.09727 0.0
In273 In 0.95464 0.58359 0.86678 0.0
O274 O 0.92033 0.60559 0.844 0.0
O275 O 0.9268 0.6119 0.89172 0.0
C276 C 0.91404 0.52273 0.86561 0.0
C277 C 0.98828 0.59292 0.82039 0.0
C278 C 0.99838 0.59234 0.91211 0.0
O279 O 0.92225 0.54238 0.88916 0.0
O280 O 0.92582 0.53389 0.84264 0.0
O281 O 0.98686 0.56508 0.89606 0.0
O282 O 0.9886 0.61624 0.90482 0.0
C283 C 0.91222 0.61588 0.86809 0.0
O284 O 0.98193 0.61713 0.83403 0.0
O285 O 0.97817 0.56495 0.83037 0.0
In286 In 0.83276 0.47012 0.51268 0.0
O287 O 0.83768 0.42967 0.5423 0.0
O288 O 0.83217 0.47421 0.56337 0.0
C289 C 0.81028 0.42751 0.46366 0.0
C290 C 0.80041 0.51395 0.51349 0.0
C291 C 0.89399 0.49559 0.51406 0.0
O292 O 0.80103 0.42109 0.48891 0.0
O293 O 0.82899 0.45616 0.46284 0.0
O294 O 0.87726 0.51272 0.52306 0.0
O295 O 0.87983 0.46623 0.50303 0.0
C296 C 0.83707 0.44652 0.56639 0.0
O297 O 0.82549 0.5194 0.50181 0.0
O298 O 0.79039 0.48533 0.52257 0.0
In299 In 0.68577 0.56385 0.34859 0.0
O300 O 0.70498 0.53934 0.31183 0.0
O301 O 0.71925 0.53348 0.35674 0.0
C302 C 0.71854 0.62635 0.34056 0.0
C303 C 0.63272 0.54771 0.31337 0.0
C304 C 0.67353 0.5591 0.40556 0.0
O305 O 0.6955 0.62083 0.35543 0.0
O306 O 0.7247 0.60083 0.32996 0.0
O307 O 0.65445 0.54372 0.38387 0.0
O308 O 0.69967 0.57525 0.39873 0.0
C309 C 0.72214 0.52875 0.32925 0.0
O310 O 0.64288 0.52559 0.32425 0.0
O311 O 0.64871 0.57755 0.32111 0.0
Tb312 Tb 0.12003 0.10095 0.07352 0.0
Tb313 Tb 0.05581 0.04776 0.04361 0.0
C314 C 0.06037 0.08603 0.10629 0.0
C315 C 0.20224 0.13467 0.08808 0.0
C316 C 0.24687 0.10418 0.07309 0.0
C317 C 0.24214 0.10967 0.10315 0.0
C318 C 0.21996 0.12503 0.11064 0.0
C319 C 0.20969 0.13252 0.05839 0.0
C320 C 0.2319 0.11732 0.05098 0.0
C321 C 0.1722 0.13876 0.09427 0.0
O322 O 0.12723 0.05091 0.07466 0.0
O323 O 0.0769 0.01944 0.07358 0.0
O324 O 0.09097 0.03969 0.01693 0.0
O325 O 0.12496 0.09226 0.02648 0.0
O326 O 1.01629 1.00853 0.04851 0.0
O327 O 1.02521 0.02639 1.00536 0.0
O328 O 0.0559 0.09628 0.02696 0.0
O329 O 0.09058 0.13273 0.0626 0.0
O330 O 0.09028 0.09193 0.10898 0.0
O331 O 0.04335 0.07482 0.08091 0.0
C332 C 0.10649 0.0227 0.07921 0.0
O333 O 0.15584 0.14537 0.07186 0.0
O334 O 0.15554 0.11527 0.10866 0.0
C335 C 0.11426 0.06362 1.01005 0.0
C336 C 0.97455 1.01553 0.01942 0.0
C337 C 0.92659 0.04104 0.03393 0.0
C338 C 0.92764 1.01022 0.04336 0.0
C339 C 0.95148 0.99739 0.03596 0.0
C340 C 0.97133 0.0445 1.0073 0.0
C341 C 0.94741 0.05713 0.01451 0.0
C342 C 1.00463 1.00901 0.02128 0.0
C343 C 0.06856 0.12687 0.04037 0.0
H344 H 0.25375 0.09967 0.12041 0.0
H345 H 0.21464 0.12645 0.13364 0.0
H346 H 0.19657 0.13978 0.04043 0.0
H347 H 0.23553 0.11333 0.02769 0.0
H348 H 0.91164 0.99765 0.05843 0.0
H349 H 0.95356 0.97507 0.04556 0.0
H350 H 0.98872 0.05913 0.99452 0.0
H351 H 0.94676 0.08097 1.00711 0.0
Tb352 Tb 0.31969 0.84205 0.342 0.0
Tb353 Tb 0.3579 0.82761 0.28627 0.0
C354 C 0.29444 0.84437 0.27464 0.0
C355 C 0.30276 0.84166 0.41806 0.0
C356 C 0.3163 0.80839 0.46677 0.0
C357 C 0.28571 0.80722 0.45821 0.0
C358 C 0.27895 0.82368 0.43382 0.0
C359 C 0.33352 0.8445 0.42811 0.0
C360 C 0.34019 0.82785 0.45217 0.0
C361 C 0.29567 0.85236 0.38862 0.0
O362 O 0.31313 0.78859 0.33916 0.0
O363 O 0.32482 0.77999 0.29107 0.0
O364 O 0.38014 0.81011 0.32378 0.0
O365 O 0.36369 0.83775 0.36219 0.0
O366 O 0.35786 0.80083 0.24512 0.0
O367 O 0.39834 0.83965 0.26448 0.0
O368 O 0.38175 0.87736 0.30767 0.0
O369 O 0.34126 0.8904 0.32681 0.0
O370 O 0.28758 0.83735 0.30188 0.0
O371 O 0.32237 0.84788 0.26677 0.0
C372 C 0.31297 0.7689 0.31527 0.0
O373 O 0.31813 0.87486 0.37883 0.0
O374 O 0.28224 0.82804 0.36791 0.0
C375 C 0.38165 0.82054 0.35229 0.0
C376 C 0.38376 0.83774 0.21317 0.0
C377 C 0.37234 0.86609 0.16075 0.0
C378 C 0.37916 0.83549 0.15907 0.0
C379 C 0.38482 0.82131 0.18526 0.0
C380 C 0.37753 0.86871 0.2147 0.0
C381 C 0.37198 0.88285 0.18864 0.0
C382 C 0.38446 0.8207 0.24035 0.0
C383 C 0.36929 0.89941 0.3189 0.0
H384 H 0.26704 0.79206 0.4693 0.0
H385 H 0.25511 0.82086 0.42627 0.0
H386 H 0.35245 0.85805 0.41642 0.0
H387 H 0.36388 0.82883 0.45849 0.0
H388 H 0.3795 0.82239 0.13756 0.0
H389 H 0.389 0.79711 0.18373 0.0
H390 H 0.37594 0.88145 0.23603 0.0
H391 H 0.36668 0.90647 0.19017 0.0
Tb392 Tb 0.53551 0.06285 0.58281 0.0
Tb393 Tb 0.61266 0.07293 0.56284 0.0
C394 C 0.57973 0.04925 0.62052 0.0
C395 C 0.46645 0.09048 0.58575 0.0
C396 C 0.43773 0.14106 0.58029 0.0
C397 C 0.46897 0.14943 0.59092 0.0
C398 C 0.48332 0.12433 0.59341 0.0
C399 C 0.43529 0.08221 0.57485 0.0
C400 C 0.42102 0.10738 0.57207 0.0
C401 C 0.48128 0.06387 0.58896 0.0
O402 O 0.56415 0.11581 0.59441 0.0
O403 O 0.61246 0.12401 0.5758 0.0
O404 O 0.59103 0.08302 0.52222 0.0
O405 O 0.54319 0.08289 0.53927 0.0
O406 O 0.65134 0.07451 0.5919 0.0
O407 O 0.65299 0.07329 0.5435 0.0
O408 O 0.58733 0.02046 0.54892 0.0
O409 O 0.53688 1.01317 0.56234 0.0
O410 O 0.55192 0.04699 0.6254 0.0
O411 O 0.58279 0.05776 0.59407 0.0
C412 C 0.59167 0.13516 0.58883 0.0
O413 O 0.48933 0.05172 0.56451 0.0
O414 O 0.50286 0.06956 0.61102 0.0
C415 C 0.56316 0.08668 0.5188 0.0
C416 C 0.68133 0.04356 0.57011 0.0
C417 C 0.71126 0.99366 0.56791 0.0
C418 C 0.68143 0.9871 0.55359 0.0
C419 C 0.66645 1.01188 0.55481 0.0
C420 C 0.71059 0.04954 0.58548 0.0
C421 C 0.72548 0.02471 0.5844 0.0
C422 C 0.66705 0.07081 0.56938 0.0
C423 C 0.55847 1.00181 0.55051 0.0
H424 H 0.48214 0.17532 0.59737 0.0
H425 H 0.5075 0.13136 0.60159 0.0
H426 H 0.422 0.05632 0.56865 0.0
H427 H 0.39683 0.10059 0.5639 0.0
H428 H 0.67021 0.96327 0.54072 0.0
H429 H 0.64369 1.00664 0.54308 0.0
H430 H 0.72225 0.07371 0.59762 0.0
H431 H 0.74855 0.03012 0.5955 0.0
Tb432 Tb 0.35948 0.30865 0.8156 0.0
Tb433 Tb 0.29402 0.32661 0.80917 0.0
C434 C 0.29691 0.25522 0.82251 0.0
C435 C 0.43555 0.30265 0.79881 0.0
C436 C 0.48333 0.31474 0.76121 0.0
C437 C 0.48197 0.29217 0.78301 0.0
C438 C 0.45819 0.28617 0.80173 0.0
C439 C 0.43686 0.32512 0.7769 0.0
C440 C 0.4606 0.33113 0.75821 0.0
C441 C 0.41057 0.29632 0.81847 0.0
O442 O 0.3421 0.29523 0.76756 0.0
O443 O 0.30534 0.32293 0.76251 0.0
O444 O 0.33002 0.37398 0.81112 0.0
O445 O 0.36998 0.35571 0.79634 0.0
O446 O 0.24782 0.31565 0.79137 0.0
O447 O 0.2694 0.35993 0.82151 0.0
O448 O 0.30296 0.32147 0.85723 0.0
O449 O 0.35527 0.33166 0.86046 0.0
O450 O 0.32615 0.26737 0.8323 0.0
O451 O 0.28201 0.27254 0.80777 0.0
C452 C 0.32306 0.30655 0.75051 0.0
O453 O 0.4062 0.32295 0.83187 0.0
O454 O 0.38462 0.27463 0.80727 0.0
C455 C 0.35704 0.37934 0.80103 0.0
C456 C 0.21701 0.33376 0.82503 0.0
C457 C 0.16855 0.32294 0.86176 0.0
C458 C 0.1801 0.35417 0.85081 0.0
C459 C 0.20421 0.35954 0.83259 0.0
C460 C 0.20512 0.30232 0.83567 0.0
C461 C 0.18103 0.29695 0.85397 0.0
C462 C 0.24368 0.34082 0.80741 0.0
C463 C 0.3298 0.32933 0.8736 0.0
H464 H 0.49934 0.2793 0.78554 0.0
H465 H 0.45748 0.26871 0.81846 0.0
H466 H 0.41958 0.33807 0.77434 0.0
H467 H 0.4613 0.34854 0.74144 0.0
H468 H 0.17066 0.37444 0.85666 0.0
H469 H 0.21316 0.38399 0.8247 0.0
H470 H 0.21459 0.28206 0.83004 0.0
H471 H 0.17228 0.27268 0.86223 0.0
Tb472 Tb 0.07411 0.08323 0.58877 0.0
Tb473 Tb 0.08543 0.04361 0.53047 0.0
C474 C 1.02012 0.02594 0.55268 0.0
C475 C 0.05821 0.09874 0.66566 0.0
C476 C 0.06091 0.06465 0.71645 0.0
C477 C 0.03887 0.0496 0.69224 0.0
C478 C 0.03788 0.06643 0.66663 0.0
C479 C 0.07699 0.11525 0.6915 0.0
C480 C 0.0785 0.09821 0.71669 0.0
C481 C 0.06608 0.11177 0.637 0.0
O482 O 0.08495 0.03784 0.60714 0.0
O483 O 0.08321 1.00519 0.56384 0.0
O484 O 0.13114 0.0701 0.55285 0.0
O485 O 0.11826 0.11275 0.5765 0.0
O486 O 0.07213 1.00281 0.49749 0.0
O487 O 0.11612 0.03987 0.49882 0.0
O488 O 0.0812 0.0918 0.51234 0.0
O489 O 0.06663 0.11701 0.55319 0.0
O490 O 0.03286 0.041 0.57883 0.0
O491 O 0.0352 0.03135 0.52893 0.0
C492 C 0.08403 1.00792 0.59357 0.0
O493 O 0.09286 0.10984 0.63001 0.0
O494 O 0.04491 0.10218 0.61424 0.0
C495 C 0.1386 0.10139 0.56408 0.0
C496 C 0.09007 0.01906 0.45205 0.0
C497 C 0.07809 0.0289 0.39231 0.0
C498 C 0.10199 1.0155 0.40065 0.0
C499 C 0.10788 1.01045 0.43056 0.0
C500 C 0.06702 0.03366 0.44374 0.0
C501 C 0.06096 0.03836 0.414 0.0
C502 C 0.09627 1.01443 0.48339 0.0
C503 C 0.07361 0.11792 0.52481 0.0
H504 H 1.02487 0.02382 0.69199 0.0
H505 H 1.02323 0.05314 0.64688 0.0
H506 H 0.09285 0.1401 0.69115 0.0
H507 H 0.09531 0.11029 0.73544 0.0
H508 H 0.11535 1.0082 0.38398 0.0
H509 H 0.12611 0.99969 0.43689 0.0
H510 H 0.05351 0.0411 0.4602 0.0
H511 H 0.04253 0.04887 0.40777 0.0
Tb512 Tb 0.34286 0.84509 0.79184 0.0
Tb513 Tb 0.31032 0.77757 0.81884 0.0
C514 C 0.33696 0.7761 0.75714 0.0
C515 C 0.35599 0.93001 0.77417 0.0
C516 C 0.31765 0.97051 0.78368 0.0
C517 C 0.31561 0.9529 0.75564 0.0
C518 C 0.33479 0.93281 0.75085 0.0
C519 C 0.36035 0.95101 0.80095 0.0
C520 C 0.34106 0.97089 0.80575 0.0
C521 C 0.3679 0.90072 0.77326 0.0
O522 O 0.29273 0.84161 0.77835 0.0
O523 O 0.26967 0.79137 0.79552 0.0
O524 O 0.3114 0.81392 0.85521 0.0
O525 O 0.32462 0.86178 0.83111 0.0
O526 O 0.27345 0.73368 0.8101 0.0
O527 O 0.30281 0.74321 0.8514 0.0
O528 O 0.36063 0.78321 0.83479 0.0
O529 O 0.38406 0.83104 0.8139 0.0
O530 O 0.33703 0.80701 0.75509 0.0
O531 O 0.33267 0.76225 0.78208 0.0
C532 C 0.26678 0.81741 0.78115 0.0
O533 O 0.37605 0.89225 0.79918 0.0
O534 O 0.35146 0.87454 0.75578 0.0
C535 C 0.3158 0.846 0.8544 0.0
C536 C 0.2896 0.68898 0.8255 0.0
C537 C 0.31783 0.64519 0.79845 0.0
C538 C 0.32918 0.66092 0.82719 0.0
C539 C 0.31509 0.68269 0.84074 0.0
C540 C 0.27586 0.66946 0.79853 0.0
C541 C 0.29022 0.648 0.78482 0.0
C542 C 0.28248 0.72055 0.8331 0.0
C543 C 0.38689 0.80632 0.83032 0.0
H544 H 0.29768 0.95267 0.73836 0.0
H545 H 0.33115 0.9173 0.72984 0.0
H546 H 0.37679 0.9499 0.8192 0.0
H547 H 0.34298 0.9847 0.82742 0.0
H548 H 0.35041 0.65855 0.83799 0.0
H549 H 0.32593 0.69688 0.86174 0.0
H550 H 0.25589 0.67337 0.78651 0.0
H551 H 0.28118 0.63571 0.76267 0.0
Tb552 Tb 0.57095 0.04518 0.07779 0.0
Tb553 Tb 0.59248 0.08514 0.02177 0.0
C554 C 0.63929 0.07927 0.07196 0.0
C555 C 0.56839 0.03165 0.15562 0.0
C556 C 0.58362 0.0657 0.21297 0.0
C557 C 0.60427 0.07382 0.1913 0.0
C558 C 0.59663 0.05696 0.16271 0.0
C559 C 0.54831 0.02275 0.17768 0.0
C560 C 0.55593 0.03969 0.20628 0.0
C561 C 0.55856 0.01737 0.12459 0.0
O562 O 0.56665 0.09639 0.09233 0.0
O563 O 0.5917 0.12719 0.05662 0.0
O564 O 0.54418 0.08076 0.02287 0.0
O565 O 0.53123 0.03221 0.04519 0.0
O566 O 0.62523 0.12166 1.00215 0.0
O567 O 0.58259 0.09224 0.97698 0.0
O568 O 0.58593 0.03111 1.00393 0.0
O569 O 0.58061 1.00517 0.04711 0.0
O570 O 0.61755 0.07645 0.08957 0.0
O571 O 0.63289 0.07561 0.04303 0.0
C572 C 0.5784 0.12625 0.08229 0.0
O573 O 0.53995 0.03071 0.11003 0.0
O574 O 0.58058 1.0139 0.10893 0.0
C575 C 0.52366 0.0539 0.0292 0.0
C576 C 0.62665 0.10401 0.95149 0.0
C577 C 0.65386 0.08191 0.90326 0.0
C578 C 0.63803 0.1058 0.89979 0.0
C579 C 0.62442 0.11671 0.92376 0.0
C580 C 0.64283 0.08043 0.95508 0.0
C581 C 0.65627 0.06934 0.93108 0.0
C582 C 0.60985 0.11307 0.97574 0.0
C583 C 0.58377 1.00354 0.01792 0.0
H584 H 0.62567 0.09389 0.19623 0.0
H585 H 0.61239 0.06447 0.14594 0.0
H586 H 0.52636 1.00356 0.17252 0.0
H587 H 0.53981 0.03327 0.22296 0.0
H588 H 0.63596 0.11571 0.87844 0.0
H589 H 0.61174 0.13463 0.92053 0.0
H590 H 0.64465 0.07032 0.97633 0.0
H591 H 0.66839 0.05088 0.93411 0.0
Tb592 Tb 0.31538 0.27507 0.3016 0.0
Tb593 Tb 0.34342 0.34947 0.32235 0.0
C594 C 0.32456 0.3269 0.25156 0.0
C595 C 0.31449 0.19111 0.27341 0.0
C596 C 0.36386 0.1655 0.26555 0.0
C597 C 0.34022 0.14917 0.28227 0.0
C598 C 0.31553 0.16185 0.28608 0.0
C599 C 0.33581 0.20456 0.25323 0.0
C600 C 0.36041 0.1916 0.24912 0.0
C601 C 0.2992 0.21261 0.28907 0.0
O602 O 0.36588 0.28409 0.28985 0.0
O603 O 0.38506 0.34027 0.30112 0.0
O604 O 0.35349 0.32715 0.36343 0.0
O605 O 0.31531 0.27898 0.35122 0.0
O606 O 0.3805 0.39279 0.3366 0.0
O607 O 0.33352 0.3941 0.33368 0.0
O608 O 0.29446 0.33726 0.33874 0.0
O609 O 0.27091 0.28643 0.31335 0.0
O610 O 0.31614 0.29543 0.25764 0.0
O611 O 0.33238 0.35118 0.27365 0.0
C612 C 0.38952 0.31209 0.28895 0.0
O613 O 0.31533 0.22809 0.31375 0.0
O614 O 0.28823 0.23261 0.27363 0.0
C615 C 0.33431 0.30026 0.37204 0.0
C616 C 0.36871 0.43982 0.31835 0.0
C617 C 0.35498 0.47904 0.27485 0.0
C618 C 0.35074 0.4862 0.30481 0.0
C619 C 0.35772 0.46677 0.32651 0.0
C620 C 0.3768 0.43549 0.28914 0.0
C621 C 0.3703 0.45541 0.26745 0.0
C622 C 0.36236 0.41177 0.3369 0.0
C623 C 0.26828 0.31179 0.33189 0.0
H624 H 0.34239 0.12865 0.29474 0.0
H625 H 0.29942 0.15127 0.30184 0.0
H626 H 0.33533 0.22717 0.24326 0.0
H627 H 0.37833 0.2041 0.2358 0.0
H628 H 0.33932 0.50473 0.31091 0.0
H629 H 0.35121 0.47036 0.34885 0.0
H630 H 0.38519 0.41469 0.28239 0.0
H631 H 0.37402 0.44991 0.24444 0.0
Tb632 Tb 0.57187 0.58212 0.08391 0.0
Tb633 Tb 0.57785 0.53926 0.02549 0.0
C634 C 0.51538 0.52518 0.05437 0.0
C635 C 0.56476 0.60218 0.16397 0.0
C636 C 0.56574 0.57265 0.21769 0.0
C637 C 0.53923 0.56217 0.19734 0.0
C638 C 0.53868 0.57709 0.17058 0.0
C639 C 0.58986 0.61471 0.18584 0.0
C640 C 0.59039 0.59997 0.21246 0.0
C641 C 0.56856 0.61232 0.13352 0.0
O642 O 0.57718 0.53362 0.10175 0.0
O643 O 0.58288 0.50315 0.05965 0.0
O644 O 0.62536 0.57001 0.03655 0.0
O645 O 0.61741 0.6082 0.07153 0.0
O646 O 0.55369 0.51395 0.98536 0.0
O647 O 0.60135 0.51633 0.99629 0.0
O648 O 0.57075 0.58735 1.00805 0.0
O649 O 0.57085 0.62015 0.05089 0.0
O650 O 0.52442 0.55667 0.06524 0.0
O651 O 0.53479 0.51218 0.04195 0.0
C652 C 0.58044 0.5049 0.08912 0.0
O653 O 0.59412 0.61043 0.12353 0.0
O654 O 0.54525 0.60075 0.11311 0.0
C655 C 0.63485 0.59874 0.05307 0.0
C656 C 0.58438 0.52093 0.94631 0.0
C657 C 0.57848 0.55223 0.89439 0.0
C658 C 0.56357 0.51795 0.89485 0.0
C659 C 0.56647 0.50236 0.92077 0.0
C660 C 0.60206 0.55422 0.94466 0.0
C661 C 0.59913 0.56988 0.91874 0.0
C662 C 0.5782 0.50861 0.9755 0.0
C663 C 0.5708 0.61726 0.02121 0.0
H664 H 0.51988 0.54134 0.20136 0.0
H665 H 0.51855 0.56796 0.15464 0.0
H666 H 0.61002 0.63441 0.18148 0.0
H667 H 0.61088 0.60853 0.22822 0.0
H668 H 0.54744 0.50412 0.8762 0.0
H669 H 0.55247 0.47677 0.92176 0.0
H670 H 0.61591 0.56891 0.96421 0.0
H671 H 0.61062 0.59641 0.91872 0.0
Tb672 Tb 0.84403 0.34583 0.29944 0.0
Tb673 Tb 0.80937 0.2765 0.3216 0.0
C674 C 0.84021 0.27989 0.26157 0.0
C675 C 0.85197 0.43105 0.28762 0.0
C676 C 0.81671 0.47533 0.29367 0.0
C677 C 0.83433 0.47608 0.2693 0.0
C678 C 0.85165 0.45355 0.26607 0.0
C679 C 0.83591 0.43223 0.31285 0.0
C680 C 0.81837 0.45402 0.31576 0.0
C681 C 0.86496 0.40322 0.2825 0.0
O682 O 0.79311 0.33678 0.28094 0.0
O683 O 0.76756 0.28976 0.30153 0.0
O684 O 0.79736 0.31084 0.35283 0.0
O685 O 0.83396 0.35863 0.34418 0.0
O686 O 0.77913 0.22774 0.31374 0.0
O687 O 0.80457 0.24578 0.35685 0.0
O688 O 0.86082 0.28334 0.33665 0.0
O689 O 0.88578 0.33369 0.32083 0.0
O690 O 0.85693 0.31061 0.26982 0.0
O691 O 0.8174 0.26432 0.27608 0.0
C692 C 0.766 0.31441 0.28474 0.0
O693 O 0.8761 0.39367 0.30659 0.0
O694 O 0.84719 0.37777 0.26504 0.0
C695 C 0.81258 0.34226 0.35982 0.0
C696 C 0.80345 0.19212 0.33685 0.0
C697 C 0.84559 0.15603 0.32856 0.0
C698 C 0.84328 0.16956 0.35729 0.0
C699 C 0.82222 0.18753 0.36144 0.0
C700 C 0.80378 0.17541 0.30873 0.0
C701 C 0.82488 0.15767 0.30462 0.0
C702 C 0.78906 0.2194 0.33905 0.0
C703 C 0.88766 0.30714 0.33474 0.0
H704 H 0.83347 0.49285 0.25227 0.0
H705 H 0.86375 0.45281 0.24636 0.0
H706 H 0.83578 0.41536 0.32988 0.0
H707 H 0.8053 0.45362 0.33492 0.0
H708 H 0.85901 0.168 0.376 0.0
H709 H 0.82228 0.19994 0.38338 0.0
H710 H 0.78945 0.17807 0.28934 0.0
H711 H 0.82623 0.14683 0.2824 0.0
Tb712 Tb 0.07901 0.54616 0.58839 0.0
Tb713 Tb 0.09078 0.58322 0.52968 0.0
C714 C 0.14382 0.58076 0.57484 0.0
C715 C 0.06123 0.53746 0.66514 0.0
C716 C 0.04108 0.56483 0.71553 0.0
C717 C 0.06204 0.5857 0.6989 0.0
C718 C 0.07198 0.57214 0.67382 0.0
C719 C 0.04024 0.51662 0.68186 0.0
C720 C 0.03019 0.53026 0.70696 0.0
C721 C 0.07113 0.52336 0.63818 0.0
O722 O 0.08449 0.6006 0.60406 0.0
O723 O 0.0776 0.62166 0.55948 0.0
O724 O 0.04392 0.55074 0.52249 0.0
O725 O 0.0354 0.55184 0.57149 0.0
O726 O 0.12456 0.60707 0.50309 0.0
O727 O 0.07667 0.60233 0.49087 0.0
O728 O 0.09603 0.53223 0.51561 0.0
O729 O 0.0763 0.5026 0.55405 0.0
O730 O 0.12632 0.55214 0.58107 0.0
O731 O 0.13162 0.60107 0.56138 0.0
C732 C 0.07979 0.62559 0.58934 0.0
O733 O 0.05051 0.51355 0.6151 0.0
O734 O 0.09781 0.54056 0.63074 0.0
C735 C 1.0251 0.54638 0.54326 0.0
C736 C 0.10806 0.59637 0.45258 0.0
C737 C 0.12815 0.56919 0.40211 0.0
C738 C 0.13588 0.60403 0.40865 0.0
C739 C 0.12593 0.61755 0.4338 0.0
C740 C 0.09882 0.56152 0.44509 0.0
C741 C 0.10888 0.54796 0.41995 0.0
C742 C 0.1044 0.61022 0.48236 0.0
C743 C 0.08659 0.50272 0.52693 0.0
H744 H 0.07056 0.61242 0.7053 0.0
H745 H 0.08807 0.58888 0.66126 0.0
H746 H 0.03157 0.48991 0.67543 0.0
H747 H 1.01398 0.51391 0.71974 0.0
H748 H 0.15087 0.62067 0.39509 0.0
H749 H 0.13364 0.64442 0.43951 0.0
H750 H 0.08524 0.54478 0.45952 0.0
H751 H 0.1029 0.52102 0.41524 0.0
Tb752 Tb 0.85427 0.80691 0.30172 0.0
Tb753 Tb 0.7873 0.82375 0.2969 0.0
C754 C 0.79239 0.75418 0.31159 0.0
C755 C 0.931 0.80171 0.28564 0.0
C756 C 0.97977 0.81476 0.24916 0.0
C757 C 0.9802 0.79558 0.2734 0.0
C758 C 0.95595 0.78912 0.29155 0.0
C759 C 0.93048 0.82077 0.26129 0.0
C760 C 0.95474 0.82728 0.24316 0.0
C761 C 0.90556 0.79479 0.30477 0.0
O762 O 0.84385 0.80504 0.25314 0.0
O763 O 0.79365 0.80714 0.25027 0.0
O764 O 0.81942 0.8706 0.28941 0.0
O765 O 0.86497 0.85685 0.28758 0.0
O766 O 0.74031 0.80609 0.28144 0.0
O767 O 0.76015 0.85588 0.304 0.0
O768 O 0.80196 0.83384 0.34533 0.0
O769 O 0.84694 0.81893 0.34908 0.0
O770 O 0.81819 0.75946 0.29917 0.0
O771 O 0.78043 0.77817 0.31823 0.0
C772 C 0.81785 0.80347 0.23725 0.0
O773 O 0.9009 0.82096 0.31865 0.0
O774 O 0.8798 0.77345 0.29284 0.0
C775 C 0.84846 0.87758 0.28479 0.0
C776 C 0.71016 0.82672 0.31402 0.0
C777 C 0.66525 0.81827 0.35468 0.0
C778 C 0.67324 0.84727 0.33963 0.0
C779 C 0.69548 0.85141 0.31936 0.0
C780 C 0.70218 0.79766 0.32914 0.0
C781 C 0.67971 0.79338 0.3492 0.0
C782 C 0.73482 0.83256 0.29394 0.0
C783 C 0.82565 0.8296 0.36172 0.0
H784 H 0.99936 0.78574 0.27829 0.0
H785 H 0.95668 0.77433 0.3102 0.0
H786 H 0.91133 0.83063 0.25636 0.0
H787 H 0.95405 0.84206 0.2245 0.0
H788 H 0.66228 0.8667 0.34363 0.0
H789 H 0.7015 0.87408 0.30811 0.0
H790 H 0.71346 0.77841 0.32567 0.0
H791 H 0.67377 0.77085 0.36064 0.0
Tb792 Tb 0.80428 0.31363 0.83909 0.0
Tb793 Tb 0.8566 0.33433 0.79201 0.0
C794 C 0.78681 0.33272 0.7747 0.0
C795 C 0.77057 0.29282 0.90858 0.0
C796 C 0.78777 0.27443 0.96426 0.0
C797 C 0.76041 0.25521 0.94749 0.0
C798 C 0.75185 0.26437 0.91974 0.0
C799 C 0.79684 0.31333 0.92637 0.0
C800 C 0.80536 0.3042 0.95416 0.0
C801 C 0.7659 0.2971 0.87674 0.0
O802 O 0.79719 0.27209 0.80516 0.0
O803 O 0.8469 0.28123 0.79399 0.0
O804 O 0.883 0.32867 0.83331 0.0
O805 O 0.84379 0.301 0.86042 0.0
O806 O 0.87326 0.32392 0.75149 0.0
O807 O 0.89623 0.36925 0.78011 0.0
O808 O 0.84645 0.37861 0.81013 0.0
O809 O 0.83623 0.36183 0.85605 0.0
O810 O 0.78166 0.33323 0.80307 0.0
O811 O 0.81232 0.32822 0.76571 0.0
C812 C 0.81917 0.26136 0.79505 0.0
O813 O 0.77582 0.3275 0.86898 0.0
O814 O 0.77386 0.2757 0.85915 0.0
C815 C 0.87328 0.31213 0.85641 0.0
C816 C 0.88932 0.37291 0.72839 0.0
C817 C 0.87354 0.40072 0.67702 0.0
C818 C 0.89666 0.38469 0.67712 0.0
C819 C 0.90442 0.37066 0.70272 0.0
C820 C 0.867 0.39002 0.7285 0.0
C821 C 0.85909 0.40379 0.70295 0.0
C822 C 0.89322 0.35357 0.75344 0.0
C823 C 0.84642 0.38556 0.8388 0.0
H824 H 0.74666 0.23213 0.95511 0.0
H825 H 0.73172 0.24811 0.90619 0.0
H826 H 0.81172 0.33529 0.91809 0.0
H827 H 0.82655 0.31921 0.96695 0.0
H828 H 0.90793 0.38216 0.65714 0.0
H829 H 0.92135 0.35709 0.70214 0.0
H830 H 0.85492 0.39164 0.74804 0.0
H831 H 0.84119 0.41607 0.70313 0.0
Tb832 Tb 0.812 0.77854 0.78984 0.0
Tb833 Tb 0.83971 0.85297 0.81265 0.0
C834 C 0.82093 0.83166 0.74127 0.0
C835 C 0.78243 0.68844 0.79253 0.0
C836 C 0.80703 0.65378 0.83292 0.0
C837 C 0.80144 0.64186 0.80255 0.0
C838 C 0.78898 0.65918 0.78228 0.0
C839 C 0.78147 0.69558 0.82335 0.0
C840 C 0.79415 0.67838 0.8437 0.0
C841 C 0.7912 0.71659 0.77441 0.0
O842 O 0.86125 0.78963 0.77487 0.0
O843 O 0.88349 0.8409 0.79927 0.0
O844 O 0.84193 0.83196 0.85582 0.0
O845 O 0.82081 0.77664 0.83909 0.0
O846 O 0.87692 0.89572 0.82822 0.0
O847 O 0.83062 0.89868 0.82033 0.0
O848 O 0.78982 0.84247 0.82604 0.0
O849 O 0.76981 0.78723 0.81009 0.0
O850 O 0.80724 0.80088 0.74732 0.0
O851 O 0.83374 0.85495 0.76348 0.0
C852 C 0.88707 0.81545 0.78152 0.0
O853 O 0.77414 0.73674 0.77355 0.0
O854 O 0.82037 0.73297 0.7796 0.0
C855 C 0.83086 0.80059 0.86149 0.0
C856 C 0.86844 0.94157 0.80459 0.0
C857 C 0.8566 0.97498 0.75563 0.0
C858 C 0.85141 0.98579 0.78445 0.0
C859 C 0.85751 0.96932 0.80885 0.0
C860 C 0.87784 0.93391 0.77659 0.0
C861 C 0.87235 0.95097 0.7522 0.0
C862 C 0.85968 0.91547 0.82497 0.0
C863 C 0.76575 0.81452 0.8244 0.0
H864 H 0.81094 0.62254 0.79404 0.0
H865 H 0.7896 0.65317 0.7586 0.0
H866 H 0.776 0.71786 0.83165 0.0
H867 H 0.79812 0.68762 0.86716 0.0
H868 H 0.83973 1.00474 0.78764 0.0
H869 H 0.85 0.97552 0.83018 0.0
H870 H 0.88621 0.91248 0.77277 0.0
H871 H 0.87738 0.94301 0.73026 0.0
Tb872 Tb 0.61844 0.59898 0.57805 0.0
Tb873 Tb 0.55547 0.54564 0.54302 0.0
C874 C 0.557 0.58086 0.60877 0.0
C875 C 0.70012 0.63362 0.58942 0.0
C876 C 0.74177 0.60629 0.56203 0.0
C877 C 0.7316 0.5958 0.58928 0.0
C878 C 0.71096 0.60943 0.60298 0.0
C879 C 0.71336 0.64685 0.56398 0.0
C880 C 0.73384 0.63297 0.55015 0.0
C881 C 0.67048 0.63843 0.59661 0.0
O882 O 0.61899 0.5509 0.59448 0.0
O883 O 0.5832 0.51392 0.55982 0.0
O884 O 0.58742 0.55951 0.50975 0.0
O885 O 0.63187 0.57243 0.54102 0.0
O886 O 0.52029 0.50016 0.54225 0.0
O887 O 0.52303 0.53031 0.50519 0.0
O888 O 0.5458 0.59385 0.54063 0.0
O889 O 0.59463 0.62963 0.55343 0.0
O890 O 0.58562 0.59972 0.60978 0.0
O891 O 0.54249 0.55924 0.58614 0.0
C892 C 0.60481 0.52004 0.58258 0.0
O893 O 0.65351 0.64301 0.5737 0.0
O894 O 0.65407 0.61703 0.61309 0.0
C895 C 0.61713 0.56474 0.51432 0.0
C896 C 0.47482 0.51074 0.52296 0.0
C897 C 0.42788 0.5403 0.53182 0.0
C898 C 0.43269 0.52999 0.50274 0.0
C899 C 0.45622 0.51539 0.49833 0.0
C900 C 0.4676 0.51793 0.55203 0.0
C901 C 0.44438 0.53268 0.55638 0.0
C902 C 0.50534 0.50671 0.51875 0.0
C903 C 0.56554 0.62413 0.54303 0.0
H904 H 0.73797 0.57545 0.59884 0.0
H905 H 0.70155 0.59894 0.62273 0.0
H906 H 0.70572 0.66574 0.55318 0.0
H907 H 0.74188 0.64151 0.52925 0.0
H908 H 0.4199 0.53559 0.48357 0.0
H909 H 0.46149 0.51028 0.47576 0.0
H910 H 0.48146 0.51477 0.57156 0.0
H911 H 0.44074 0.54029 0.57896 0.0
Tb912 Tb 0.04125 0.56678 0.0889 0.0
Tb913 Tb 0.11729 0.57508 0.06611 0.0
C914 C 0.08684 0.55526 0.12597 0.0
C915 C 0.97073 0.59218 0.08788 0.0
C916 C 0.9403 0.63979 0.07471 0.0
C917 C 0.92676 0.61336 0.09147 0.0
C918 C 0.94191 0.58968 0.09803 0.0
C919 C 0.98436 0.61873 0.07122 0.0
C920 C 0.96922 0.6424 0.06465 0.0
C921 C 0.98708 0.56794 0.09562 0.0
O922 O 0.07021 0.61998 0.09769 0.0
O923 O 0.11776 0.62676 0.07778 0.0
O924 O 0.09362 0.58212 0.02536 0.0
O925 O 0.04773 0.58531 0.04482 0.0
O926 O 0.1573 0.57804 0.09362 0.0
O927 O 0.15628 0.57355 0.04496 0.0
O928 O 0.0915 0.52226 0.05437 0.0
O929 O 0.04188 0.51615 0.06965 0.0
O930 O 0.05948 0.55385 0.1319 0.0
O931 O 0.08858 0.56102 0.09864 0.0
C932 C 0.0976 0.63869 0.09114 0.0
O933 O 0.99422 0.55126 0.07317 0.0
O934 O 1.01013 0.57923 0.11625 0.0
C935 C 0.06601 0.58651 0.02307 0.0
C936 C 0.18659 0.5463 0.07187 0.0
C937 C 0.21524 0.49531 0.07289 0.0
C938 C 0.23293 0.52885 0.07296 0.0
C939 C 0.21869 0.55421 0.07254 0.0
C940 C 0.16884 0.51276 0.07193 0.0
C941 C 0.18312 0.48738 0.07268 0.0
C942 C 0.17189 0.57313 0.07053 0.0
C943 C 0.06274 0.50407 0.05714 0.0
H944 H 0.90442 0.61102 0.09934 0.0
H945 H 0.93119 0.56951 0.11107 0.0
H946 H 1.00671 0.62114 0.06339 0.0
H947 H 0.97994 0.66264 0.05167 0.0
H948 H 0.25776 0.53533 0.07318 0.0
H949 H 0.2327 0.57995 0.07246 0.0
H950 H 0.144 0.50621 0.07118 0.0
H951 H 0.16916 0.46161 0.07263 0.0
C952 C 0.06932 0.20793 1.00354 0.0
C953 C 0.04131 0.21358 0.01128 0.0
C954 C 0.02876 0.15928 0.03369 0.0
C955 C 0.05858 0.15612 0.02951 0.0
N956 N 0.10847 0.17984 0.01245 0.0
N957 N 0.99591 0.1958 0.03723 0.0
C958 C 0.07924 0.18134 0.01524 0.0
C959 C 1.02134 0.18938 0.02712 0.0
N960 N 0.08555 0.22646 0.98311 0.0
N961 N 1.00727 0.1334 0.0438 0.0
H962 H 0.98996 0.21745 0.03328 0.0
H963 H 0.98224 0.18123 0.05171 0.0
H964 H 1.01194 0.11165 0.04971 0.0
H965 H 0.98421 0.13239 0.04413 0.0
H966 H 0.1044 0.22155 0.97421 0.0
H967 H 0.07805 0.24423 0.97226 0.0
H968 H 0.12582 0.19954 1.00592 0.0
H969 H 0.11603 0.15975 0.01844 0.0
C970 C 0.21524 0.82396 0.22869 0.0
C971 C 0.21954 0.85085 0.21022 0.0
C972 C 0.27339 0.8737 0.23328 0.0
C973 C 0.26924 0.84636 0.25139 0.0
N974 N 0.23889 0.79052 0.25876 0.0
N975 N 0.25434 0.89797 0.19112 0.0
C976 C 0.24081 0.82022 0.24709 0.0
C977 C 0.24919 0.87454 0.21125 0.0
N978 N 0.18667 0.80148 0.22848 0.0
N979 N 0.29996 0.89975 0.2379 0.0
H980 H 0.23698 0.90066 0.17596 0.0
H981 H 0.27616 0.91322 0.18793 0.0
H982 H 0.31855 0.89994 0.25279 0.0
H983 H 0.30297 0.92228 0.22845 0.0
H984 H 0.18106 0.78433 0.24431 0.0
H985 H 0.16795 0.80095 0.21348 0.0
H986 H 0.22001 0.76921 0.25402 0.0
H987 H 0.25761 0.78579 0.27036 0.0
C988 C 0.56303 0.92324 0.50464 0.0
C989 C 0.54186 0.89647 0.51679 0.0
C990 C 0.53331 0.93862 0.5538 0.0
C991 C 0.55064 0.96531 0.53838 0.0
N992 N 0.57386 0.98055 0.49291 0.0
N993 N 0.50135 0.8808 0.54952 0.0
C994 C 0.56304 0.95685 0.51194 0.0
C995 C 0.52542 0.9047 0.54045 0.0
N996 N 0.58439 0.91706 0.48718 0.0
N997 N 0.52548 0.94503 0.58176 0.0
H998 H 0.49368 0.85622 0.53968 0.0
H999 H 0.48689 0.88639 0.56462 0.0
H1000 H 0.53189 0.96886 0.59317 0.0
H1001 H 0.51555 0.92608 0.59492 0.0
H1002 H 0.60176 0.93619 0.47987 0.0
H1003 H 0.58742 0.89344 0.48349 0.0
H1004 H 0.58085 0.97477 0.47222 0.0
H1005 H 0.57213 1.00481 0.49597 0.0
C1006 C 0.53371 0.30113 0.70088 0.0
C1007 C 0.55796 0.33185 0.70515 0.0
C1008 C 0.53389 0.35069 0.74725 0.0
C1009 C 0.50863 0.32114 0.74143 0.0
N1010 N 0.48132 0.27135 0.70923 0.0
N1011 N 0.57787 0.3886 0.72843 0.0
C1012 C 0.50756 0.29733 0.71712 0.0
C1013 C 0.55715 0.35742 0.72726 0.0
N1014 N 0.53636 0.27479 0.68269 0.0
N1015 N 0.53611 0.37188 0.77238 0.0
H1016 H 0.59498 0.3948 0.71394 0.0
H1017 H 0.57632 0.4092 0.74185 0.0
H1018 H 0.51933 0.36806 0.78735 0.0
H1019 H 0.55569 0.39175 0.77966 0.0
H1020 H 0.521 0.25077 0.68138 0.0
H1021 H 0.55542 0.27586 0.67103 0.0
H1022 H 0.4779 0.25535 0.68968 0.0
H1023 H 0.4618 0.26754 0.72082 0.0
C1024 C 0.0976 0.92199 0.61943 0.0
C1025 C 0.08011 0.91414 0.64472 0.0
C1026 C 0.06351 0.96621 0.63536 0.0
C1027 C 0.08331 0.9759 0.61195 0.0
N1028 N 0.12374 0.96321 0.58658 0.0
N1029 N 0.0495 0.93433 0.67844 0.0
C1030 C 0.10131 0.95351 0.60534 0.0
C1031 C 0.06433 0.93818 0.65314 0.0
N1032 N 0.11117 0.89918 0.60851 0.0
N1033 N 0.04187 0.98234 0.63954 0.0
H1034 H 0.04762 0.91384 0.69076 0.0
H1035 H 0.04103 0.95263 0.68834 0.0
H1036 H 0.0395 1.00149 0.62693 0.0
H1037 H 1.02426 0.97451 0.65325 0.0
H1038 H 0.1207 0.90039 0.58818 0.0
H1039 H 0.11101 0.87763 0.6188 0.0
H1040 H 0.14009 0.95078 0.58302 0.0
H1041 H 0.12816 0.98582 0.577 0.0
C1042 C 0.45571 0.7868 0.8832 0.0
C1043 C 0.48423 0.80142 0.87038 0.0
C1044 C 0.4486 0.81526 0.82935 0.0
C1045 C 0.42071 0.80451 0.84417 0.0
N1046 N 0.40299 0.78648 0.89106 0.0
N1047 N 0.50497 0.83657 0.83226 0.0
C1048 C 0.426 0.79203 0.87263 0.0
C1049 C 0.47958 0.81745 0.84373 0.0
N1050 N 0.45616 0.76601 0.90507 0.0
N1051 N 0.44581 0.82204 0.80032 0.0
H1052 H 0.52732 0.83997 0.84174 0.0
H1053 H 0.5037 0.85202 0.81539 0.0
H1054 H 0.42463 0.81951 0.78856 0.0
H1055 H 0.46398 0.82621 0.78695 0.0
H1056 H 0.43623 0.75163 0.91317 0.0
H1057 H 0.47586 0.75989 0.91246 0.0
H1058 H 0.40605 0.78122 0.91312 0.0
H1059 H 0.38208 0.79105 0.88564 0.0
C1060 C 0.55782 0.21139 0.10705 0.0
C1061 C 0.57251 0.22183 0.13706 0.0
C1062 C 0.58988 0.16906 0.13168 0.0
C1063 C 0.57682 0.1598 0.10102 0.0
N1064 N 0.55141 0.1771 0.05915 0.0
N1065 N 0.60812 0.21159 0.17466 0.0
C1066 C 0.56193 0.18266 0.08877 0.0
C1067 C 0.5898 0.20059 0.14836 0.0
N1068 N 0.53812 0.22787 0.0962 0.0
N1069 N 0.60304 0.14773 0.14522 0.0
H1070 H 0.60981 0.23426 0.18673 0.0
H1071 H 0.62409 0.20028 0.18307 0.0
H1072 H 0.6055 0.12623 0.13398 0.0
H1073 H 0.61016 0.15024 0.16795 0.0
H1074 H 0.52367 0.21987 0.07641 0.0
H1075 H 0.53396 0.24788 0.10843 0.0
H1076 H 0.54408 0.19435 0.04739 0.0
H1077 H 0.55203 0.1561 0.04568 0.0
C1078 C 0.20371 0.31174 0.39171 0.0
C1079 C 0.17481 0.30945 0.37441 0.0
C1080 C 0.20624 0.30564 0.32909 0.0
C1081 C 0.23571 0.31113 0.34647 0.0
N1082 N 0.26006 0.32315 0.39681 0.0
N1083 N 0.15327 0.3099 0.32409 0.0
C1084 C 0.23338 0.31552 0.37836 0.0
C1085 C 0.17766 0.30767 0.34243 0.0
N1086 N 0.20283 0.30791 0.42148 0.0
N1087 N 0.20518 0.2984 0.29898 0.0
H1088 H 0.13309 0.31226 0.33209 0.0
H1089 H 0.15411 0.31292 0.30142 0.0
H1090 H 0.22481 0.29904 0.28829 0.0
H1091 H 0.18472 0.28954 0.28496 0.0
H1092 H 0.22116 0.30502 0.43513 0.0
H1093 H 0.18267 0.30369 0.43198 0.0
H1094 H 0.26187 0.33161 0.41935 0.0
H1095 H 0.28093 0.32312 0.389 0.0
C1096 C 0.03379 0.07129 0.18266 0.0
C1097 C 1.01299 0.09062 0.1838 0.0
C1098 C 1.02809 0.11233 0.13661 0.0
C1099 C 0.04502 0.08888 0.1334 0.0
N1100 N 0.06058 0.04257 0.15128 0.0
N1101 N 0.98997 0.13004 0.16313 0.0
C1102 C 0.0472 0.06758 0.15595 0.0
C1103 C 1.01007 0.11147 0.16115 0.0
N1104 N 0.04114 0.05692 0.20734 0.0
N1105 N 0.03002 0.13581 0.11671 0.0
H1106 H 0.97737 0.13053 0.18147 0.0
H1107 H 0.98491 0.14403 0.14638 0.0
H1108 H 0.04385 0.13755 0.09915 0.0
H1109 H 1.02001 0.15513 0.11881 0.0
H1110 H 0.05851 0.04534 0.20867 0.0
H1111 H 0.03235 0.05984 0.22767 0.0
H1112 H 0.05946 0.02392 0.16563 0.0
H1113 H 0.07036 0.03839 0.13177 0.0
C1114 C 0.33685 0.77652 0.5401 0.0
C1115 C 0.33699 0.74377 0.52964 0.0
C1116 C 0.32204 0.75307 0.47853 0.0
C1117 C 0.32332 0.78631 0.48865 0.0
N1118 N 0.33726 0.83201 0.52762 0.0
N1119 N 0.33772 0.7041 0.48859 0.0
C1120 C 0.33259 0.79884 0.519 0.0
C1121 C 0.33204 0.73307 0.4987 0.0
N1122 N 0.33885 0.78562 0.57009 0.0
N1123 N 0.31045 0.74024 0.44989 0.0
H1124 H 0.34586 0.68931 0.50286 0.0
H1125 H 0.3375 0.69664 0.46602 0.0
H1126 H 0.30348 0.75426 0.43407 0.0
H1127 H 0.30571 0.71503 0.44237 0.0
H1128 H 0.33514 0.80761 0.5789 0.0
H1129 H 0.34203 0.77019 0.58638 0.0
H1130 H 0.34736 0.84341 0.54869 0.0
H1131 H 0.33308 0.84875 0.51298 0.0
C1132 C 0.63716 0.07014 0.68948 0.0
C1133 C 0.65538 0.04888 0.68254 0.0
C1134 C 0.62072 0.02403 0.6376 0.0
C1135 C 0.60476 0.04809 0.64263 0.0
N1136 N 0.60089 0.09782 0.67058 0.0
N1137 N 0.66761 1.00891 0.64823 0.0
C1138 C 0.61368 0.07211 0.6679 0.0
C1139 C 0.64801 0.02661 0.65614 0.0
N1140 N 0.64181 0.08781 0.71699 0.0
N1141 N 0.60924 0.99812 0.61576 0.0
H1142 H 0.68768 1.00992 0.66151 0.0
H1143 H 0.66526 0.99538 0.62746 0.0
H1144 H 0.58858 0.99478 0.6027 0.0
H1145 H 0.61839 0.9782 0.61267 0.0
H1146 H 0.62712 0.10099 0.72436 0.0
H1147 H 0.65864 0.08674 0.7336 0.0
H1148 H 0.60917 0.11817 0.68674 0.0
H1149 H 0.58383 0.10053 0.65507 0.0
C1150 C 0.35399 0.33356 0.95956 0.0
C1151 C 0.33206 0.34713 0.97266 0.0
C1152 C 0.31163 0.3528 0.92115 0.0
C1153 C 0.33101 0.33563 0.90789 0.0
N1154 N 0.36517 0.3019 0.91683 0.0
N1155 N 0.2839 0.35966 0.96383 0.0
C1156 C 0.35066 0.32383 0.9278 0.0
C1157 C 0.3091 0.35374 0.95277 0.0
N1158 N 0.37895 0.33118 0.97696 0.0
N1159 N 0.29668 0.36999 0.90401 0.0
H1160 H 0.27992 0.35799 0.98623 0.0
H1161 H 0.26518 0.36178 0.95018 0.0
H1162 H 0.29971 0.37262 0.88154 0.0
H1163 H 0.28444 0.38521 0.91304 0.0
H1164 H 0.39725 0.32491 0.9681 0.0
H1165 H 0.38294 0.33868 0.9998 0.0
H1166 H 0.37735 0.29011 0.93057 0.0
H1167 H 0.36204 0.29239 0.89446 0.0
C1168 C 0.06017 0.06769 0.32318 0.0
C1169 C 0.03243 0.04267 0.31212 0.0
C1170 C 0.04523 1.00418 0.34555 0.0
C1171 C 0.06875 0.03136 0.36081 0.0
N1172 N 0.10026 0.08873 0.36436 0.0
N1173 N 0.99701 0.98726 0.31447 0.0
C1174 C 0.0771 0.06298 0.34937 0.0
C1175 C 1.02483 1.01059 0.32315 0.0
N1176 N 0.07037 0.0956 0.30844 0.0
N1177 N 0.04179 0.97245 0.35325 0.0
H1178 H 0.98053 0.99078 0.29892 0.0
H1179 H 0.98892 0.96533 0.32473 0.0
H1180 H 0.05611 0.96716 0.37014 0.0
H1181 H 1.02692 0.95116 0.34096 0.0
H1182 H 0.09168 0.11348 0.31406 0.0
H1183 H 0.05872 0.09922 0.28872 0.0
H1184 H 0.10502 0.11348 0.35936 0.0
H1185 H 0.11396 0.08533 0.38279 0.0
C1186 C 0.36734 0.75168 0.68536 0.0
C1187 C 0.34627 0.71954 0.67703 0.0
C1188 C 0.3192 0.72425 0.72108 0.0
C1189 C 0.34103 0.75595 0.7303 0.0
N1190 N 0.3899 0.79626 0.72486 0.0
N1191 N 0.30724 0.6716 0.69019 0.0
C1192 C 0.36636 0.76863 0.71352 0.0
C1193 C 0.32408 0.70452 0.69615 0.0
N1194 N 0.3878 0.76627 0.66605 0.0
N1195 N 0.29259 0.71404 0.73458 0.0
H1196 H 0.30971 0.65658 0.67167 0.0
H1197 H 0.29309 0.65842 0.70511 0.0
H1198 H 0.2869 0.72858 0.75163 0.0
H1199 H 0.27456 0.69271 0.72679 0.0
H1200 H 0.40112 0.79128 0.66916 0.0
H1201 H 0.39025 0.75374 0.64597 0.0
H1202 H 0.41042 0.80461 0.7151 0.0
H1203 H 0.39016 0.8092 0.74552 0.0
C1204 C 0.71278 0.0708 0.85087 0.0
C1205 C 0.69297 0.05456 0.82508 0.0
C1206 C 0.64824 0.04866 0.85348 0.0
C1207 C 0.66772 0.07002 0.87747 0.0
N1208 N 0.71849 0.10362 0.89852 0.0
N1209 N 0.64172 0.0289 0.80078 0.0
C1210 C 0.70007 0.08138 0.87624 0.0
C1211 C 0.66064 0.04321 0.82618 0.0
N1212 N 0.74377 0.07568 0.85109 0.0
N1213 N 0.61802 0.03338 0.85698 0.0
H1214 H 0.65003 0.02378 0.78061 0.0
H1215 H 0.61787 0.02389 0.79922 0.0
H1216 H 0.6083 0.03685 0.87673 0.0
H1217 H 0.60335 1.01507 0.84141 0.0
H1218 H 0.75933 0.0848 0.87004 0.0
H1219 H 0.75347 0.06729 0.83296 0.0
H1220 H 0.74171 0.11573 0.89715 0.0
H1221 H 0.71011 0.11201 0.91752 0.0
C1222 C 0.35935 0.3543 0.1772 0.0
C1223 C 0.3329 0.34772 0.15609 0.0
C1224 C 0.30077 0.32525 0.19696 0.0
C1225 C 0.32704 0.33508 0.21871 0.0
N1226 N 0.38141 0.36422 0.22889 0.0
N1227 N 0.27746 0.33187 0.14815 0.0
C1228 C 0.35623 0.35128 0.20857 0.0
C1229 C 0.30336 0.33423 0.16658 0.0
N1230 N 0.38787 0.36181 0.16708 0.0
N1231 N 0.27299 0.30749 0.20531 0.0
H1232 H 0.27811 0.33868 0.12637 0.0
H1233 H 0.25546 0.32606 0.15523 0.0
H1234 H 0.26955 0.30267 0.22737 0.0
H1235 H 0.25384 0.29583 0.19012 0.0
H1236 H 0.40789 0.36311 0.1805 0.0
H1237 H 0.39121 0.36301 0.14451 0.0
H1238 H 0.40222 0.37996 0.22361 0.0
H1239 H 0.38089 0.36171 0.25157 0.0
C1240 C 0.26417 0.02224 0.05473 0.0
C1241 C 0.29269 0.034 0.04256 0.0
C1242 C 0.29327 0.09206 0.05467 0.0
C1243 C 0.26339 0.08018 0.06399 0.0
N1244 N 0.2179 0.03423 0.06846 0.0
N1245 N 0.33228 0.07951 0.02629 0.0
C1246 C 0.24809 0.04532 0.06281 0.0
C1247 C 0.30679 0.06879 0.04135 0.0
N1248 N 0.25308 0.98931 0.05981 0.0
N1249 N 0.30883 0.12548 0.059 0.0
H1250 H 0.34244 0.06319 0.01555 0.0
H1251 H 0.34171 0.10431 0.02205 0.0
H1252 H 0.29935 0.14319 0.06848 0.0
H1253 H 0.33193 0.13531 0.05557 0.0
H1254 H 0.23416 0.98014 0.0717 0.0
H1255 H 0.2644 0.97159 0.05463 0.0
H1256 H 0.20461 1.00925 0.06452 0.0
H1257 H 0.20519 0.05021 0.07474 0.0
C1258 C 0.71616 0.65848 0.07323 0.0
C1259 C 0.72218 0.67324 0.04598 0.0
C1260 C 0.67122 0.63861 0.023 0.0
C1261 C 0.66575 0.62266 0.04982 0.0
N1262 N 0.68476 0.61352 0.09874 0.0
N1263 N 0.70779 0.67407 0.99366 0.0
C1264 C 0.68872 0.63162 0.07449 0.0
C1265 C 0.70031 0.66243 0.02053 0.0
N1266 N 0.73634 0.67084 0.09823 0.0
N1267 N 0.64815 0.63205 1.00025 0.0
H1268 H 0.72855 0.692 0.99114 0.0
H1269 H 0.69457 0.66431 0.97344 0.0
H1270 H 0.62691 0.61436 1.00081 0.0
H1271 H 0.64906 0.64579 0.98181 0.0
H1272 H 0.73173 0.6642 0.11958 0.0
H1273 H 0.757 0.68977 0.09808 0.0
H1274 H 0.70185 0.61619 0.11619 0.0
H1275 H 0.66509 0.59361 0.10028 0.0
C1276 C 0.74049 0.49115 0.29461 0.0
C1277 C 0.74727 0.51722 0.31818 0.0
C1278 C 0.80214 0.52174 0.32005 0.0
C1279 C 0.7952 0.49544 0.29675 0.0
N1280 N 0.75995 0.46236 0.25587 0.0
N1281 N 0.78523 0.56404 0.347 0.0
C1282 C 0.76508 0.48267 0.28194 0.0
C1283 C 0.77833 0.53458 0.3291 0.0
N1284 N 0.7106 0.47309 0.28557 0.0
N1285 N 0.8314 0.53372 0.33404 0.0
H1286 H 0.76864 0.57491 0.35365 0.0
H1287 H 0.80764 0.57944 0.353 0.0
H1288 H 0.8498 0.52645 0.32645 0.0
H1289 H 0.8371 0.54959 0.35381 0.0
H1290 H 0.70448 0.45152 0.27069 0.0
H1291 H 0.69185 0.4778 0.29493 0.0
H1292 H 0.73936 0.4563 0.24205 0.0
H1293 H 0.77719 0.45451 0.24647 0.0
C1294 C 0.94447 0.53685 0.50774 0.0
C1295 C 0.92772 0.50754 0.51989 0.0
C1296 C 0.97531 0.50199 0.54469 0.0
C1297 C 0.99169 0.53302 0.53491 0.0
N1298 N 0.9917 0.5828 0.51109 0.0
N1299 N 0.92609 0.46491 0.55377 0.0
C1300 C 0.97628 0.55121 0.51736 0.0
C1301 C 0.94281 0.4907 0.53929 0.0
N1302 N 0.93013 0.55036 0.48641 0.0
N1303 N 0.99084 0.48272 0.55837 0.0
H1304 H 0.9022 0.45534 0.55046 0.0
H1305 H 0.93562 0.45479 0.57115 0.0
H1306 H 1.01466 0.49017 0.5633 0.0
H1307 H 0.98048 0.45805 0.56249 0.0
H1308 H 0.94179 0.56966 0.47444 0.0
H1309 H 0.90684 0.54028 0.47874 0.0
H1310 H 0.98091 0.59868 0.50116 0.0
H1311 H 1.01493 0.59437 0.51815 0.0
C1312 C 0.41883 0.11415 0.27129 0.0
C1313 C 0.44294 0.1358 0.29171 0.0
C1314 C 0.41812 0.18015 0.28969 0.0
C1315 C 0.3938 0.15835 0.2697 0.0
N1316 N 0.37537 0.10923 0.23478 0.0
N1317 N 0.47063 0.19205 0.31215 0.0
C1318 C 0.3958 0.12692 0.25812 0.0
C1319 C 0.44425 0.16974 0.29816 0.0
N1320 N 0.41644 0.08091 0.26608 0.0
N1321 N 0.41549 0.20979 0.30215 0.0
H1322 H 0.49037 0.18516 0.31807 0.0
H1323 H 0.474 0.21779 0.31494 0.0
H1324 H 0.39689 0.21871 0.29671 0.0
H1325 H 0.43081 0.22454 0.31957 0.0
H1326 H 0.39723 0.06341 0.25444 0.0
H1327 H 0.43235 0.06995 0.27521 0.0
H1328 H 0.37728 0.08753 0.2234 0.0
H1329 H 0.35826 0.11825 0.22492 0.0
C1330 C 0.38733 0.19607 0.60008 0.0
C1331 C 0.38491 0.21024 0.57275 0.0
C1332 C 0.42299 0.18541 0.55334 0.0
C1333 C 0.42191 0.16733 0.57891 0.0
N1334 N 0.40362 0.15491 0.62686 0.0
N1335 N 0.39984 0.21939 0.52325 0.0
C1336 C 0.40449 0.1728 0.60254 0.0
C1337 C 0.40298 0.20565 0.54949 0.0
N1338 N 0.37341 0.2053 0.62371 0.0
N1339 N 0.44308 0.1831 0.53282 0.0
H1340 H 0.38636 0.23546 0.52029 0.0
H1341 H 0.40941 0.2139 0.50401 0.0
H1342 H 0.45733 0.16767 0.53451 0.0
H1343 H 0.44731 0.19807 0.51524 0.0
H1344 H 0.37633 0.19831 0.64516 0.0
H1345 H 0.36088 0.22252 0.62247 0.0
H1346 H 0.38855 0.15456 0.64314 0.0
H1347 H 0.41708 0.13888 0.63012 0.0
C1348 C 0.76857 0.67163 0.34639 0.0
C1349 C 0.73703 0.65997 0.33495 0.0
C1350 C 0.74375 0.70693 0.30465 0.0
C1351 C 0.77487 0.71999 0.31721 0.0
N1352 N 0.81722 0.71586 0.35072 0.0
N1353 N 0.69429 0.66586 0.3029 0.0
C1354 C 0.78754 0.70243 0.33804 0.0
C1355 C 0.72452 0.67762 0.31436 0.0
N1356 N 0.78032 0.65295 0.36501 0.0
N1357 N 0.73184 0.7214 0.28248 0.0
H1358 H 0.67902 0.64404 0.30884 0.0
H1359 H 0.68444 0.6783 0.28758 0.0
H1360 H 0.74455 0.74194 0.27242 0.0
H1361 H 0.74455 0.74194 0.27242 0.0
H1362 H 0.80371 0.65734 0.37119 0.0
H1363 H 0.76654 0.63196 0.37371 0.0
H1364 H 0.82678 0.70676 0.36873 0.0
H1365 H 0.83237 0.73726 0.34404 0.0
C1366 C 0.86477 0.47949 0.84625 0.0
C1367 C 0.89305 0.48856 0.86475 0.0
C1368 C 0.88806 0.42985 0.87059 0.0
C1369 C 0.86006 0.4206 0.85154 0.0
N1370 N 0.81784 0.43572 0.82726 0.0
N1371 N 0.9278 0.47376 0.90067 0.0
C1372 C 0.84713 0.44524 0.84131 0.0
C1373 C 0.9032 0.4642 0.87926 0.0
N1374 N 0.8552 0.5036 0.83301 0.0
N1375 N 0.90162 0.40611 0.87833 0.0
H1376 H 0.94083 0.49856 0.90652 0.0
H1377 H 0.93383 0.45727 0.91446 0.0
H1378 H 0.89169 0.38071 0.87209 0.0
H1379 H 0.92387 0.41163 0.88889 0.0
H1380 H 0.83683 0.49842 0.81645 0.0
H1381 H 0.86652 0.52914 0.83783 0.0
H1382 H 0.80596 0.45245 0.8213 0.0
H1383 H 0.80429 0.41074 0.82384 0.0
C1384 C 0.10592 0.93154 0.09022 0.0
C1385 C 0.13065 0.93574 0.11296 0.0
C1386 C 0.13907 0.99729 0.11473 0.0
C1387 C 0.11627 0.99311 0.09007 0.0
N1388 N 0.08466 0.95535 0.04931 0.0
N1389 N 0.17552 0.97424 0.14122 0.0
C1390 C 0.10172 0.95996 0.07637 0.0
C1391 C 0.14861 0.96913 0.12351 0.0
N1392 N 0.08505 0.9007 0.08277 0.0
N1393 N 0.15062 0.02773 0.13103 0.0
H1394 H 0.18386 0.95467 0.14723 0.0
H1395 H 0.19116 0.99789 0.1471 0.0
H1396 H 0.14348 0.04849 0.1265 0.0
H1397 H 0.16485 0.03143 0.15095 0.0
H1398 H 0.06488 0.89699 0.06871 0.0
H1399 H 0.08589 0.87948 0.09306 0.0
H1400 H 0.07605 0.93206 0.03693 0.0
H1401 H 0.08227 0.97517 0.03761 0.0
C1402 C 0.93571 0.27734 0.8926 0.0
C1403 C 0.94338 0.29641 0.921 0.0
C1404 C 0.90125 0.32106 0.90894 0.0
C1405 C 0.89663 0.3057 0.87903 0.0
N1406 N 0.91093 0.27014 0.84193 0.0
N1407 N 0.93616 0.34079 0.95416 0.0
C1408 C 0.91438 0.28419 0.87076 0.0
C1409 C 0.92662 0.31913 0.92879 0.0
N1410 N 0.94782 0.25152 0.88695 0.0
N1411 N 0.88154 0.33778 0.91856 0.0
H1412 H 0.95495 0.34118 0.96898 0.0
H1413 H 0.92727 0.36058 0.95912 0.0
H1414 H 0.86381 0.34149 0.90462 0.0
H1415 H 0.88132 0.34576 0.94094 0.0
H1416 H 0.94095 0.23442 0.86801 0.0
H1417 H 0.96247 0.24496 0.9027 0.0
H1418 H 0.92578 0.25782 0.83347 0.0
H1419 H 0.89423 0.27246 0.82584 0.0
C1420 C 0.63649 0.22493 0.62264 0.0
C1421 C 0.61526 0.24288 0.61526 0.0
C1422 C 0.58015 0.19112 0.58774 0.0
C1423 C 0.59983 0.17235 0.59791 0.0
N1424 N 0.64422 0.17094 0.62991 0.0
N1425 N 0.56491 0.24199 0.59398 0.0
C1426 C 0.62746 0.18921 0.61652 0.0
C1427 C 0.58648 0.22558 0.59881 0.0
N1428 N 0.66536 0.24201 0.63567 0.0
N1429 N 0.55616 0.17653 0.56635 0.0
H1430 H 0.56921 0.26749 0.60024 0.0
H1431 H 0.54216 0.22987 0.58554 0.0
H1432 H 0.55132 0.1519 0.55693 0.0
H1433 H 0.54286 0.18969 0.55583 0.0
H1434 H 0.68298 0.231 0.63882 0.0
H1435 H 0.67256 0.26789 0.64101 0.0
H1436 H 0.66265 0.1813 0.6462 0.0
H1437 H 0.63788 0.14485 0.62706 0.0
C1438 C 0.58858 0.80994 0.38607 0.0
C1439 C 0.59636 0.80751 0.41676 0.0
C1440 C 0.65015 0.81546 0.40722 0.0
C1441 C 0.64152 0.81398 0.37612 0.0
N1442 N 0.60138 0.8031 0.33536 0.0
N1443 N 0.63342 0.80189 0.45573 0.0
C1444 C 0.61037 0.80921 0.36536 0.0
C1445 C 0.62687 0.80866 0.42719 0.0
N1446 N 0.56101 0.8147 0.37685 0.0
N1447 N 0.68061 0.82441 0.41782 0.0
H1448 H 0.61698 0.79622 0.47096 0.0
H1449 H 0.65446 0.7988 0.46344 0.0
H1450 H 0.69837 0.82981 0.40394 0.0
H1451 H 0.68833 0.8294 0.44049 0.0
H1452 H 0.55554 0.81998 0.35525 0.0
H1453 H 0.54494 0.81711 0.39146 0.0
H1454 H 0.57837 0.79595 0.32653 0.0
H1455 H 0.61661 0.80201 0.31943 0.0
C1456 C 0.05368 0.17841 0.4647 0.0
C1457 C 0.0765 0.21072 0.47228 0.0
C1458 C 0.09526 0.18292 0.51578 0.0
C1459 C 0.07422 0.15005 0.50665 0.0
N1460 N 0.03628 0.11753 0.46773 0.0
N1461 N 0.12397 0.23845 0.50298 0.0
C1462 C 0.05459 0.14834 0.47961 0.0
C1463 C 0.09837 0.21132 0.49744 0.0
N1464 N 0.02948 0.17641 0.44416 0.0
N1465 N 0.11303 0.18746 0.54237 0.0
H1466 H 0.12847 0.25843 0.48985 0.0
H1467 H 0.14259 0.23942 0.51827 0.0
H1468 H 0.11328 0.16791 0.5553 0.0
H1469 H 0.12571 0.21095 0.55267 0.0
H1470 H 1.01033 0.15533 0.43973 0.0
H1471 H 1.0268 0.19698 0.43387 0.0
H1472 H 1.02448 0.11313 0.44642 0.0
H1473 H 0.03474 0.09587 0.47833 0.0
C1474 C 0.67549 0.28882 0.24978 0.0
C1475 C 0.66925 0.31951 0.24256 0.0
C1476 C 0.72556 0.34752 0.2649 0.0
C1477 C 0.73265 0.31653 0.26957 0.0
N1478 N 0.71238 0.25684 0.25728 0.0
N1479 N 0.69342 0.37843 0.24103 0.0
C1480 C 0.7068 0.28716 0.25966 0.0
C1481 C 0.69596 0.34864 0.24935 0.0
N1482 N 0.65134 0.26019 0.247 0.0
N1483 N 0.7465 0.37682 0.27691 0.0
H1484 H 0.67265 0.38166 0.23268 0.0
H1485 H 0.71241 0.39927 0.24047 0.0
H1486 H 0.76763 0.37801 0.2881 0.0
H1487 H 0.74167 0.39965 0.27851 0.0
H1488 H 0.65274 0.23813 0.25545 0.0
H1489 H 0.62921 0.25911 0.23839 0.0
H1490 H 0.69631 0.23495 0.24726 0.0
H1491 H 0.73426 0.25417 0.26165 0.0
C1492 C 0.55998 0.90767 0.98188 0.0
C1493 C 0.58648 0.9046 0.96774 0.0
C1494 C 0.61038 0.96682 0.98445 0.0
C1495 C 0.58468 0.9693 1.00028 0.0
N1496 N 0.53567 0.93883 0.01537 0.0
N1497 N 0.63882 0.93261 0.95973 0.0
C1498 C 0.55992 0.93862 0.9994 0.0
C1499 C 0.61196 0.9348 0.97 0.0
N1500 N 0.53358 0.8814 0.97697 0.0
N1501 N 0.63397 0.99539 0.98341 0.0
H1502 H 0.64113 0.91039 0.94972 0.0
H1503 H 0.65953 0.95177 0.96324 0.0
H1504 H 0.63537 0.01779 0.99583 0.0
H1505 H 0.65132 0.99746 0.96929 0.0
H1506 H 0.51231 0.88254 0.98306 0.0
H1507 H 0.53214 0.85922 0.96414 0.0
H1508 H 0.51902 0.91722 0.01969 0.0
H1509 H 0.53305 0.96066 0.02587 0.0
C1510 C 0.97333 0.84614 0.74901 0.0
C1511 C 0.98133 0.81599 0.74044 0.0
C1512 C 0.92914 0.78593 0.75998 0.0
C1513 C 0.92037 0.81602 0.76784 0.0
N1514 N 0.9411 0.8765 0.77257 0.0
N1515 N 0.96115 0.75608 0.7347 0.0
C1516 C 0.94461 0.84633 0.763 0.0
C1517 C 0.95735 0.78587 0.74504 0.0
N1518 N 0.99232 0.87548 0.74141 0.0
N1519 N 0.91191 0.75672 0.76945 0.0
H1520 H 0.98133 0.75435 0.72619 0.0
H1521 H 0.94362 0.73345 0.7325 0.0
H1522 H 0.89353 0.75539 0.78214 0.0
H1523 H 0.91804 0.73464 0.76827 0.0
H1524 H 0.98684 0.89793 0.74199 0.0
H1525 H 1.01259 0.87684 0.73163 0.0
H1526 H 0.95902 0.8988 0.7755 0.0
H1527 H 0.92075 0.87945 0.77931 0.0
C1528 C 0.12361 0.0621 0.92736 0.0
C1529 C 0.15249 0.05559 0.92697 0.0
C1530 C 0.15618 0.05375 0.9813 0.0
C1531 C 0.12698 0.05944 0.98149 0.0
N1532 N 0.08083 0.06492 0.95522 0.0
N1533 N 0.19483 0.04116 0.95205 0.0
C1534 C 0.11002 0.06225 0.95463 0.0
C1535 C 0.16828 0.04997 0.9535 0.0
N1536 N 0.10952 0.06892 0.9017 0.0
N1537 N 0.17254 0.05274 1.00776 0.0
H1538 H 0.20506 0.03966 0.93228 0.0
H1539 H 0.20592 0.0334 0.96993 0.0
H1540 H 0.16386 0.05419 0.0284 0.0
H1541 H 0.19528 0.05223 1.00966 0.0
H1542 H 0.09068 0.07823 0.90105 0.0
H1543 H 0.11756 0.0669 0.88083 0.0
H1544 H 0.0657 0.06278 0.93621 0.0
H1545 H 0.07075 0.06736 0.97491 0.0
C1546 C 0.87054 0.45681 0.61504 0.0
C1547 C 0.84485 0.43604 0.59586 0.0
C1548 C 0.83879 0.39166 0.62949 0.0
C1549 C 0.86339 0.41308 0.64931 0.0
N1550 N 0.89915 0.46772 0.66411 0.0
N1551 N 0.80086 0.38676 0.58736 0.0
C1552 C 0.87813 0.44623 0.64307 0.0
C1553 C 0.82794 0.40427 0.60379 0.0
N1554 N 0.88882 0.48572 0.60584 0.0
N1555 N 0.82623 0.35907 0.63497 0.0
H1556 H 0.79192 0.39561 0.56874 0.0
H1557 H 0.7858 0.36506 0.59367 0.0
H1558 H 0.8329 0.3492 0.65407 0.0
H1559 H 0.81075 0.34114 0.61969 0.0
H1560 H 0.90991 0.49957 0.61723 0.0
H1561 H 0.88457 0.49459 0.58545 0.0
H1562 H 0.90797 0.4933 0.66238 0.0
H1563 H 0.90605 0.46051 0.68453 0.0
C1564 C 0.55563 0.12498 0.44555 0.0
C1565 C 0.52863 0.10102 0.43122 0.0
C1566 C 0.52546 0.06761 0.47367 0.0
C1567 C 0.5515 0.09229 0.48883 0.0
N1568 N 0.58765 0.14758 0.49218 0.0
N1569 N 0.4831 0.05519 0.43489 0.0
C1570 C 0.56552 0.12202 0.47569 0.0
C1571 C 0.51203 0.07416 0.4464 0.0
N1572 N 0.57256 0.14951 0.43002 0.0
N1573 N 0.51451 0.03712 0.48443 0.0
H1574 H 0.47216 0.05996 0.41526 0.0
H1575 H 0.46876 0.03724 0.44644 0.0
H1576 H 0.52425 0.03063 0.5039 0.0
H1577 H 0.49773 0.01703 0.47246 0.0
H1578 H 0.59426 0.16534 0.43819 0.0
H1579 H 0.56577 0.15267 0.40808 0.0
H1580 H 0.59655 0.17113 0.48481 0.0
H1581 H 0.59527 0.14613 0.51432 0.0
C1582 C 0.83944 0.80576 0.15476 0.0
C1583 C 0.81306 0.78227 0.13852 0.0
C1584 C 0.79063 0.77133 0.18685 0.0
C1585 C 0.81583 0.79676 0.20298 0.0
N1586 N 0.86169 0.84269 0.20004 0.0
N1587 N 0.76041 0.74894 0.13915 0.0
C1588 C 0.8395 0.81521 0.18623 0.0
C1589 C 0.78778 0.767 0.15467 0.0
N1590 N 0.86517 0.81809 0.1405 0.0
N1591 N 0.77019 0.74966 0.20217 0.0
H1592 H 0.75712 0.74633 0.11585 0.0
H1593 H 0.7402 0.73982 0.14925 0.0
H1594 H 0.77219 0.75055 0.2254 0.0
H1595 H 0.75332 0.72854 0.19185 0.0
H1596 H 0.88639 0.83194 0.15164 0.0
H1597 H 0.86596 0.81222 0.11776 0.0
H1598 H 0.87744 0.85931 0.18858 0.0
H1599 H 0.86257 0.85084 0.22254 0.0
C1600 C 0.11113 0.0225 0.75751 0.0
C1601 C 0.10661 0.03229 0.78712 0.0
C1602 C 0.06255 0.0502 0.76921 0.0
C1603 C 0.06975 0.04488 0.73961 0.0
N1604 N 0.09434 0.01738 0.70459 0.0
N1605 N 0.07298 0.04393 0.82188 0.0
C1606 C 0.09155 0.02759 0.73345 0.0
C1607 C 0.08036 0.04214 0.79316 0.0
N1608 N 0.13569 1.01106 0.75239 0.0
N1609 N 0.03978 0.06453 0.77422 0.0
H1610 H 0.08546 0.03666 0.83914 0.0
H1611 H 0.05334 0.04942 0.82815 0.0
H1612 H 1.02564 0.06913 0.75673 0.0
H1613 H 0.03527 0.07246 0.79533 0.0
H1614 H 0.14307 1.00786 0.73141 0.0
H1615 H 0.14948 1.00543 0.76952 0.0
H1616 H 0.1075 1.00183 0.69867 0.0
H1617 H 0.08164 0.02236 0.6863 0.0
C1618 C 0.78858 0.40373 0.41153 0.0
C1619 C 0.80546 0.40138 0.43857 0.0
C1620 C 0.82026 0.35448 0.41518 0.0
C1621 C 0.80683 0.35975 0.38731 0.0
N1622 N 0.77657 0.387 0.35815 0.0
N1623 N 0.83951 0.37673 0.46622 0.0
C1624 C 0.79029 0.3836 0.38529 0.0
C1625 C 0.8214 0.37693 0.44063 0.0
N1626 N 0.77085 0.42507 0.41127 0.0
N1627 N 0.83216 0.32817 0.41725 0.0
H1628 H 0.84098 0.3924 0.48562 0.0
H1629 H 0.85489 0.36264 0.46779 0.0
H1630 H 0.83299 0.31204 0.39885 0.0
H1631 H 0.83903 0.32062 0.43746 0.0
H1632 H 0.75638 0.42693 0.39294 0.0
H1633 H 0.76912 0.43975 0.43037 0.0
H1634 H 0.76624 0.40558 0.35413 0.0
H1635 H 0.77607 0.3712 0.33906 0.0
C1636 C 0.57872 0.12859 0.27497 0.0
C1637 C 0.57804 0.10798 0.29842 0.0
C1638 C 0.59897 0.07122 0.26772 0.0
C1639 C 0.58963 0.08537 0.2424 0.0
N1640 N 0.57316 0.12956 0.22131 0.0
N1641 N 0.59701 0.0671 0.32126 0.0
C1642 C 0.58117 0.11536 0.24581 0.0
C1643 C 0.59221 0.08217 0.29624 0.0
N1644 N 0.57624 0.16004 0.28058 0.0
N1645 N 0.61301 0.04671 0.26404 0.0
H1646 H 0.59286 0.07623 0.34222 0.0
H1647 H 0.6049 0.04619 0.32145 0.0
H1648 H 0.61808 0.03872 0.2431 0.0
H1649 H 0.62129 0.0358 0.28156 0.0
H1650 H 0.57828 0.17701 0.26449 0.0
H1651 H 0.57607 0.17033 0.30231 0.0
H1652 H 0.56368 0.14938 0.22255 0.0
H1653 H 0.57429 0.12017 0.19953 0.0
C1654 C 0.80388 0.79507 0.94223 0.0
C1655 C 0.82093 0.7754 0.95583 0.0
C1656 C 0.8429 0.77001 0.907 0.0
C1657 C 0.82803 0.79224 0.89429 0.0
N1658 N 0.79785 0.83031 0.90319 0.0
N1659 N 0.86201 0.75031 0.95196 0.0
C1660 C 0.80982 0.80619 0.91305 0.0
C1661 C 0.84172 0.76438 0.93827 0.0
N1662 N 0.7804 0.80155 0.95631 0.0
N1663 N 0.8587 0.75441 0.88935 0.0
H1664 H 0.86339 0.74783 0.97482 0.0
H1665 H 0.87975 0.74461 0.94155 0.0
H1666 H 0.86239 0.75985 0.86749 0.0
H1667 H 0.8665 0.73467 0.89579 0.0
H1668 H 0.76448 0.81188 0.94612 0.0
H1669 H 0.77477 0.79346 0.97705 0.0
H1670 H 0.7879 0.84439 0.91696 0.0
H1671 H 0.79973 0.8381 0.88188 0.0
C1672 C 0.9073 0.10838 0.08167 0.0
C1673 C 0.87528 0.1009 0.07326 0.0
C1674 C 0.87637 0.05316 0.03915 0.0
C1675 C 0.90799 0.05975 0.04872 0.0
N1676 N 0.95184 0.088 0.08417 0.0
N1677 N 0.82781 0.062 0.04964 0.0
C1678 C 0.92291 0.08558 0.07166 0.0
C1679 C 0.8593 0.07203 0.05361 0.0
N1680 N 0.9232 0.13809 0.09773 0.0
N1681 N 0.8629 0.02956 0.01579 0.0
H1682 H 0.81446 0.07463 0.06057 0.0
H1683 H 0.81483 0.03943 0.03786 0.0
H1684 H 0.87466 1.01474 1.00522 0.0
H1685 H 0.84082 0.02628 1.00558 0.0
H1686 H 0.94716 0.14651 0.10126 0.0
H1687 H 0.91278 0.15586 0.10519 0.0
H1688 H 0.96247 0.10417 0.103 0.0
H1689 H 0.9642 0.07179 0.07746 0.0
C1690 C 0.44189 0.47625 0.08757 0.0
C1691 C 0.42747 0.45215 0.06315 0.0
C1692 C 0.46682 0.48113 0.03173 0.0
C1693 C 0.48348 0.50272 0.05707 0.0
N1694 N 0.48827 0.51774 0.11037 0.0
N1695 N 0.42739 0.42962 0.01241 0.0
C1696 C 0.47121 0.49973 0.08527 0.0
C1697 C 0.4404 0.45391 0.0354 0.0
N1698 N 0.42763 0.47668 0.11317 0.0
N1699 N 0.47533 0.48781 1.00384 0.0
H1700 H 0.40724 0.41025 0.01365 0.0
H1701 H 0.43772 0.42727 0.99287 0.0
H1702 H 0.49337 0.5086 1.00019 0.0
H1703 H 0.46258 0.4751 0.98417 0.0
H1704 H 0.43476 0.49623 0.13019 0.0
H1705 H 0.4074 0.4585 0.1167 0.0
H1706 H 0.48242 0.51343 0.13193 0.0
H1707 H 0.50988 0.53482 0.11007 0.0
C1708 C 0.38405 0.6389 0.75505 0.0
C1709 C 0.385 0.60678 0.76171 0.0
C1710 C 0.33565 0.59631 0.78302 0.0
C1711 C 0.33766 0.63036 0.78126 0.0
N1712 N 0.36201 0.68436 0.7646 0.0
N1713 N 0.36192 0.55371 0.7806 0.0
C1714 C 0.36107 0.65165 0.76645 0.0
C1715 C 0.36052 0.58483 0.77475 0.0
N1716 N 0.40511 0.65695 0.73786 0.0
N1717 N 0.31004 0.57523 0.79274 0.0
H1718 H 0.37916 0.54398 0.77375 0.0
H1719 H 0.34688 0.53799 0.79329 0.0
H1720 H 0.29167 0.58333 0.79924 0.0
H1721 H 0.30573 0.54941 0.79211 0.0
H1722 H 0.40426 0.67941 0.72992 0.0
H1723 H 0.42218 0.6479 0.72938 0.0
H1724 H 0.3802 0.70223 0.75706 0.0
H1725 H 0.34492 0.69421 0.77182 0.0
C1726 C 0.22889 0.58658 0.58321 0.0
C1727 C 0.24089 0.61955 0.59742 0.0
C1728 C 0.18892 0.62192 0.6046 0.0
C1729 C 0.1769 0.59171 0.58561 0.0
N1730 N 0.18467 0.54432 0.55711 0.0
N1731 N 0.23363 0.66851 0.62335 0.0
C1732 C 0.1966 0.57332 0.57553 0.0
C1733 C 0.22125 0.63707 0.60891 0.0
N1734 N 0.24841 0.56826 0.57666 0.0
N1735 N 0.16939 0.63545 0.61914 0.0
H1736 H 0.25729 0.67921 0.62893 0.0
H1737 H 0.22071 0.68448 0.62886 0.0
H1738 H 0.14564 0.62418 0.61722 0.0
H1739 H 0.17673 0.6559 0.63524 0.0
H1740 H 0.241 0.54294 0.56901 0.0
H1741 H 0.27227 0.57762 0.58119 0.0
H1742 H 0.198 0.53212 0.54573 0.0
H1743 H 0.16114 0.5331 0.55182 0.0
C1744 C 0.7868 0.97842 0.71264 0.0
C1745 C 0.79368 1.01365 0.71539 0.0
C1746 C 0.84846 0.02001 0.7264 0.0
C1747 C 0.84052 0.98543 0.72994 0.0
N1748 N 0.80612 0.93023 0.71446 0.0
N1749 N 0.83085 0.0677 0.71479 0.0
C1750 C 0.81101 0.96403 0.71849 0.0
C1751 C 0.82466 0.03436 0.71825 0.0
N1752 N 0.75686 0.95914 0.70622 0.0
N1753 N 0.87841 0.03895 0.73328 0.0
H1754 H 0.8136 0.07849 0.70882 0.0
H1755 H 0.85293 0.0843 0.71591 0.0
H1756 H 0.89572 0.02792 0.73861 0.0
H1757 H 0.88618 0.06489 0.73374 0.0
H1758 H 0.74936 0.93331 0.70693 0.0
H1759 H 0.73922 0.96957 0.70053 0.0
H1760 H 0.78555 0.91322 0.70487 0.0
H1761 H 0.82373 0.91934 0.71818 0.0
C1762 C 0.75091 0.92697 0.58208 0.0
C1763 C 0.76863 0.9292 0.55729 0.0
C1764 C 0.74707 0.97196 0.5385 0.0
C1765 C 0.72909 0.96954 0.56309 0.0
N1766 N 0.70925 0.94116 0.60522 0.0
N1767 N 0.77953 0.94837 0.50906 0.0
C1768 C 0.72948 0.94576 0.58389 0.0
C1769 C 0.76539 0.95003 0.53459 0.0
N1770 N 0.75581 0.90836 0.60463 0.0
N1771 N 0.74752 0.99614 0.51952 0.0
H1772 H 0.79352 0.93294 0.50573 0.0
H1773 H 0.77551 0.96006 0.49021 0.0
H1774 H 0.7336 1.01193 0.52092 0.0
H1775 H 0.76299 1.00206 0.50347 0.0
H1776 H 0.74645 0.90881 0.62495 0.0
H1777 H 0.77089 0.89382 0.60382 0.0
H1778 H 0.70617 0.92205 0.61928 0.0
H1779 H 0.69371 0.955 0.60739 0.0
C1780 C 0.38192 0.4595 0.76328 0.0
C1781 C 0.40979 0.47634 0.78125 0.0
C1782 C 0.40025 0.43169 0.81463 0.0
C1783 C 0.37405 0.41342 0.79503 0.0
N1784 N 0.34184 0.40733 0.74875 0.0
N1785 N 0.44811 0.47694 0.82143 0.0
C1786 C 0.36532 0.42662 0.76884 0.0
C1787 C 0.41964 0.46213 0.80635 0.0
N1788 N 0.37068 0.47539 0.74163 0.0
N1789 N 0.40614 0.42025 0.84144 0.0
H1790 H 0.46317 0.4991 0.81581 0.0
H1791 H 0.45797 0.4659 0.83786 0.0
H1792 H 0.39243 0.39791 0.84816 0.0
H1793 H 0.42296 0.43416 0.8581 0.0
H1794 H 0.34874 0.46589 0.73027 0.0
H1795 H 0.38215 0.49948 0.73666 0.0
H1796 H 0.337 0.41392 0.72749 0.0
H1797 H 0.32847 0.3835 0.75246 0.0
C1798 C 0.25383 0.68336 0.30689 0.0
C1799 C 0.27307 0.66372 0.29857 0.0
C1800 C 0.31858 0.71159 0.31274 0.0
C1801 C 0.29922 0.73247 0.31515 0.0
N1802 N 0.24835 0.73901 0.31525 0.0
N1803 N 0.32377 0.65875 0.29233 0.0
C1804 C 0.26678 0.71855 0.31296 0.0
C1805 C 0.30552 0.67752 0.30163 0.0
N1806 N 0.22334 0.66819 0.3094 0.0
N1807 N 0.34935 0.72432 0.32163 0.0
H1808 H 0.31511 0.63358 0.28412 0.0
H1809 H 0.34728 0.66874 0.29075 0.0
H1810 H 0.35911 0.74889 0.33108 0.0
H1811 H 0.36434 0.70973 0.32286 0.0
H1812 H 0.20868 0.68069 0.31799 0.0
H1813 H 0.21334 0.64231 0.30555 0.0
H1814 H 0.22456 0.73076 0.31001 0.0
H1815 H 0.25704 0.76478 0.3209 0.0
C1816 C 0.56488 0.70136 0.50078 0.0
C1817 C 0.53999 0.71114 0.51208 0.0
C1818 C 0.53051 0.66288 0.54304 0.0
C1819 C 0.55541 0.65315 0.53157 0.0
N1820 N 0.59117 0.65878 0.49422 0.0
N1821 N 0.49734 0.69956 0.54203 0.0
C1822 C 0.5713 0.67142 0.50916 0.0
C1823 C 0.52217 0.69118 0.5325 0.0
N1824 N 0.58246 0.72062 0.48158 0.0
N1825 N 0.51538 0.64562 0.56475 0.0
H1826 H 0.49162 0.72074 0.53603 0.0
H1827 H 0.48151 0.6852 0.5549 0.0
H1828 H 0.5199 0.6244 0.57216 0.0
H1829 H 0.49917 0.65272 0.57651 0.0
H1830 H 0.60363 0.71834 0.4762 0.0
H1831 H 0.57664 0.74002 0.47181 0.0
H1832 H 0.60111 0.66842 0.47547 0.0
H1833 H 0.59553 0.63639 0.4986 0.0
C1834 C 0.74164 0.36974 0.7174 0.0
C1835 C 0.71432 0.34255 0.71001 0.0
C1836 C 0.73535 0.30838 0.74348 0.0
C1837 C 0.76223 0.33595 0.75176 0.0
N1838 N 0.78982 0.39392 0.74933 0.0
N1839 N 0.68737 0.28414 0.7114 0.0
C1840 C 0.76522 0.36681 0.73913 0.0
C1841 C 0.71177 0.3114 0.72193 0.0
N1842 N 0.74508 0.39829 0.70339 0.0
N1843 N 0.73201 0.27945 0.75691 0.0
H1844 H 0.66986 0.28525 0.69558 0.0
H1845 H 0.68534 0.2598 0.71634 0.0
H1846 H 0.74928 0.27564 0.77145 0.0
H1847 H 0.71174 0.25972 0.75505 0.0
H1848 H 0.76542 0.41793 0.70507 0.0
H1849 H 0.72792 0.40161 0.68835 0.0
H1850 H 0.79246 0.41808 0.74352 0.0
H1851 H 0.807 0.39276 0.76547 0.0
C1852 C 1.02775 0.40701 0.04669 0.0
C1853 C 0.04181 0.3986 0.02123 0.0
C1854 C 0.064 0.45901 0.01689 0.0
C1855 C 0.05378 0.46754 0.0446 0.0
N1856 N 0.03121 0.44742 0.08915 0.0
N1857 N 0.0819 0.41842 0.98881 0.0
C1858 C 0.03707 0.44091 0.06046 0.0
C1859 C 0.06243 0.42514 1.00831 0.0
N1860 N 1.00461 0.38323 0.05719 0.0
N1861 N 0.07417 0.48292 0.99787 0.0
H1862 H 0.08382 0.39448 0.98389 0.0
H1863 H 0.09903 0.43722 0.9808 0.0
H1864 H 0.07372 0.50756 1.00198 0.0
H1865 H 0.07934 0.47719 0.97636 0.0
H1866 H 0.99158 0.38885 0.07372 0.0
H1867 H 0.99629 0.35865 0.04737 0.0
H1868 H 1.02186 0.42856 0.10261 0.0
H1869 H 0.03864 0.47127 0.10059 0.0
C1870 C 0.05317 0.85988 0.21559 0.0
C1871 C 0.0573 0.83324 0.19672 0.0
C1872 C 1.00773 0.79649 0.20837 0.0
C1873 C 1.00574 0.82174 0.23012 0.0
N1874 N 1.02805 0.87633 0.25706 0.0
N1875 N 0.04053 0.77467 0.17804 0.0
C1876 C 0.02884 0.8532 0.23441 0.0
C1877 C 0.03499 0.80117 0.19364 0.0
N1878 N 0.07179 0.89183 0.21467 0.0
N1879 N 0.98332 0.76824 0.20146 0.0
H1880 H 0.06032 0.77671 0.16725 0.0
H1881 H 1.02677 0.75002 0.1779 0.0
H1882 H 0.96311 0.76384 0.21202 0.0
H1883 H 0.98198 0.75061 0.18352 0.0
H1884 H 0.06797 0.91277 0.22561 0.0
H1885 H 0.08931 0.89786 0.20056 0.0
H1886 H 0.04607 0.8981 0.2635 0.0
H1887 H 1.01035 0.87259 0.27103 0.0
C1888 C 0.56293 0.43602 0.15078 0.0
C1889 C 0.5789 0.41209 0.1426 0.0
C1890 C 0.59887 0.45091 0.10218 0.0
C1891 C 0.5805 0.47315 0.10835 0.0
N1892 N 0.53988 0.4797 0.1373 0.0
N1893 N 0.60934 0.3969 0.10591 0.0
C1894 C 0.56146 0.46368 0.13257 0.0
C1895 C 0.59574 0.41969 0.11682 0.0
N1896 N 0.54836 0.43227 0.17625 0.0
N1897 N 0.62135 0.4606 0.08348 0.0
H1898 H 0.6096 0.37564 0.11647 0.0
H1899 H 0.61835 0.39781 0.08532 0.0
H1900 H 0.62591 0.48325 0.07399 0.0
H1901 H 0.63785 0.4483 0.08019 0.0
H1902 H 0.53955 0.4503 0.18609 0.0
H1903 H 0.54689 0.41202 0.1888 0.0
H1904 H 0.5227 0.47217 0.1515 0.0
H1905 H 0.53704 0.49847 0.12463 0.0
C1906 C 0.98035 0.31983 0.34964 0.0
C1907 C 0.98479 0.30125 0.37466 0.0
C1908 C 0.92592 0.28869 0.37531 0.0
C1909 C 0.92116 0.30422 0.34838 0.0
N1910 N 0.94735 0.32665 0.30651 0.0
N1911 N 0.95625 0.26053 0.40524 0.0
C1912 C 0.94951 0.31753 0.33485 0.0
C1913 C 0.95588 0.28374 0.38561 0.0
N1914 N 1.00569 0.34146 0.34019 0.0
N1915 N 0.90206 0.27968 0.39255 0.0
H1916 H 0.97617 0.2546 0.4122 0.0
H1917 H 0.93626 0.24427 0.41164 0.0
H1918 H 0.88088 0.28373 0.38727 0.0
H1919 H 0.90445 0.27181 0.41377 0.0
H1920 H 1.00427 0.35843 0.32473 0.0
H1921 H 1.02792 0.34523 0.35017 0.0
H1922 H 0.96613 0.33308 0.29396 0.0
H1923 H 0.92632 0.32361 0.29413 0.0
C1924 C 0.09623 0.72244 0.62078 0.0
C1925 C 0.07272 0.72246 0.64049 0.0
C1926 C 0.05551 0.65889 0.6287 0.0
C1927 C 0.0773 0.6592 0.60704 0.0
N1928 N 0.11693 0.69442 0.5814 0.0
N1929 N 1.02665 0.68839 0.65841 0.0
C1930 C 0.09689 0.692 0.60275 0.0
C1931 C 0.05176 0.68989 0.64321 0.0
N1932 N 0.11974 0.75135 0.62068 0.0
N1933 N 0.03778 0.62858 0.63561 0.0
H1934 H 1.02239 0.70962 0.6683 0.0
H1935 H 1.00844 0.66669 0.65876 0.0
H1936 H 0.03739 0.60595 0.62417 0.0
H1937 H 1.02488 0.62568 0.65386 0.0
H1938 H 0.13955 0.75282 0.61011 0.0
H1939 H 0.1211 0.77331 0.63378 0.0
H1940 H 0.12865 0.71701 0.5737 0.0
H1941 H 0.12055 0.67359 0.57002 0.0
C1942 C 0.68333 0.82995 0.84405 0.0
C1943 C 0.67337 0.81065 0.86892 0.0
C1944 C 0.72254 0.79225 0.86324 0.0
C1945 C 0.7336 0.81332 0.83979 0.0
N1946 N 0.72305 0.85556 0.81121 0.0
N1947 N 0.68896 0.77618 0.90354 0.0
C1948 C 0.71337 0.83301 0.83144 0.0
C1949 C 0.69481 0.79285 0.87869 0.0
N1950 N 0.66369 0.84571 0.83182 0.0
N1951 N 0.73848 0.77055 0.87086 0.0
H1952 H 0.66887 0.7737 0.91395 0.0
H1953 H 0.70477 0.76672 0.91502 0.0
H1954 H 0.7588 0.7702 0.86185 0.0
H1955 H 0.73066 0.7514 0.88444 0.0
H1956 H 0.66638 0.85661 0.81179 0.0
H1957 H 0.64336 0.84597 0.84085 0.0
H1958 H 0.71267 0.87389 0.8063 0.0
H1959 H 0.74301 0.85736 0.80069 0.0
C1960 C 0.51262 0.60937 0.6679 0.0
C1961 C 0.50679 0.5816 0.68511 0.0
C1962 C 0.53242 0.55301 0.65138 0.0
C1963 C 0.54057 0.58183 0.63549 0.0
N1964 N 0.54392 0.64009 0.63217 0.0
N1965 N 0.52008 0.53243 0.69887 0.0
C1966 C 0.53259 0.61099 0.64497 0.0
C1967 C 0.51922 0.55492 0.6785 0.0
N1968 N 0.49797 0.63327 0.67238 0.0
N1969 N 0.53707 0.52367 0.64074 0.0
H1970 H 0.51254 0.53414 0.72004 0.0
H1971 H 0.53172 0.51452 0.69622 0.0
H1972 H 0.54781 0.52099 0.62153 0.0
H1973 H 0.52812 0.50114 0.6499 0.0
H1974 H 0.49885 0.65212 0.65831 0.0
H1975 H 0.48263 0.63253 0.68854 0.0
H1976 H 0.54128 0.66287 0.64034 0.0
H1977 H 0.55802 0.64213 0.61482 0.0
C1978 C 0.83124 0.22866 0.01224 0.0
C1979 C 0.81516 0.22717 0.03807 0.0
C1980 C 0.78653 0.26349 0.018 0.0
C1981 C 0.79951 0.26114 0.99067 0.0
N1982 N 0.83267 0.24016 0.96034 0.0
N1983 N 0.77764 0.24257 0.06638 0.0
C1984 C 0.82182 0.24378 0.9875 0.0
C1985 C 0.79295 0.24462 0.04128 0.0
N1986 N 0.8552 0.21523 0.01122 0.0
N1987 N 0.7685 0.2842 0.02171 0.0
H1988 H 0.78318 0.23087 0.08475 0.0
H1989 H 0.75859 0.25116 0.06863 0.0
H1990 H 0.76341 0.29825 1.00492 0.0
H1991 H 0.76058 0.28961 0.04195 0.0
H1992 H 0.87006 0.21881 0.9945 0.0
H1993 H 0.86182 0.20246 0.02828 0.0
H1994 H 0.846 0.22443 0.95552 0.0
H1995 H 0.82671 0.25119 0.9417 0.0
C1996 C 0.14576 0.58287 0.19347 0.0
C1997 C 0.16338 0.56035 0.18888 0.0
C1998 C 0.12852 0.53214 0.14494 0.0
C1999 C 0.11291 0.5568 0.14778 0.0
N2000 N 0.10973 0.60906 0.17146 0.0
N2001 N 0.1749 0.51694 0.15816 0.0
C2002 C 0.12236 0.58317 0.17111 0.0
C2003 C 0.15574 0.5359 0.16399 0.0
N2004 N 0.15031 0.60283 0.2198 0.0
N2005 N 0.1166 0.50446 0.12495 0.0
H2006 H 0.19516 0.51922 0.17166 0.0
H2007 H 0.17211 0.50104 0.13866 0.0
H2008 H 0.09634 0.5006 0.11104 0.0
H2009 H 0.12521 0.48399 0.12402 0.0
H2010 H 0.13576 0.61687 0.22559 0.0
H2011 H 0.1668 0.60305 0.2372 0.0
H2012 H 0.11832 0.63081 0.18602 0.0
H2013 H 0.09255 0.6104 0.1554 0.0
C2014 C 0.84304 0.82647 0.44827 0.0
C2015 C 0.83016 0.85094 0.461 0.0
C2016 C 0.81901 0.86444 0.40917 0.0
C2017 C 0.82804 0.83712 0.39614 0.0
N2018 N 0.84146 0.78682 0.4058 0.0
N2019 N 0.79674 0.88508 0.4508 0.0
C2020 C 0.83808 0.81668 0.41644 0.0
C2021 C 0.8155 0.8675 0.44058 0.0
N2022 N 0.86116 0.81328 0.46611 0.0
N2023 N 0.81514 0.88878 0.39204 0.0
H2024 H 0.79105 0.88528 0.47275 0.0
H2025 H 0.78358 0.89538 0.43659 0.0
H2026 H 0.81995 0.88944 0.36981 0.0
H2027 H 0.81111 0.91056 0.40104 0.0
H2028 H 0.87366 0.79808 0.4576 0.0
H2029 H 0.86628 0.82019 0.48898 0.0
H2030 H 0.84577 0.76949 0.41969 0.0
H2031 H 0.83626 0.77761 0.38342 0.0
C2032 C 0.5595 0.5781 0.81855 0.0
C2033 C 0.53365 0.58909 0.82443 0.0
C2034 C 0.54246 0.58366 0.87752 0.0
C2035 C 0.567 0.57044 0.8715 0.0
N2036 N 0.60408 0.56273 0.8387 0.0
N2037 N 0.50819 0.61445 0.86024 0.0
C2038 C 0.57742 0.57045 0.84273 0.0
C2039 C 0.52787 0.59622 0.85419 0.0
N2040 N 0.56606 0.574 0.78969 0.0
N2041 N 0.53144 0.58187 0.90494 0.0
H2042 H 0.49742 0.62467 0.84386 0.0
H2043 H 0.50539 0.62281 0.88187 0.0
H2044 H 0.54181 0.57385 0.92319 0.0
H2045 H 0.51047 0.5858 0.90884 0.0
H2046 H 0.58229 0.56255 0.78315 0.0
H2047 H 0.5545 0.58171 0.77198 0.0
H2048 H 0.61428 0.5644 0.81876 0.0
H2049 H 0.61732 0.55698 0.85629 0.0
C2050 C 0.86064 0.21649 0.20901 0.0
C2051 C 0.84856 0.22386 0.18133 0.0
C2052 C 0.83745 0.27242 0.20603 0.0
C2053 C 0.84594 0.26257 0.23405 0.0
N2054 N 0.86481 0.22521 0.26316 0.0
N2055 N 0.82156 0.2559 0.15346 0.0
C2056 C 0.85747 0.23465 0.23583 0.0
C2057 C 0.83638 0.25137 0.17969 0.0
N2058 N 0.87562 0.19255 0.20943 0.0
N2059 N 0.82977 0.30155 0.20458 0.0
H2060 H 0.81973 0.24103 0.1335 0.0
H2061 H 0.80873 0.27271 0.15185 0.0
H2062 H 0.82803 0.31659 0.22338 0.0
H2063 H 0.82724 0.31214 0.1847 0.0
H2064 H 0.88745 0.18787 0.22849 0.0
H2065 H 0.87836 0.17907 0.19 0.0
H2066 H 0.86981 0.20288 0.2661 0.0
H2067 H 0.86449 0.23905 0.28324 0.0
C2068 C 0.1922 0.55512 0.35999 0.0
C2069 C 0.17696 0.54585 0.33062 0.0
C2070 C 0.1277 0.54532 0.34928 0.0
C2071 C 0.14314 0.55551 0.37835 0.0
N2072 N 0.18715 0.5598 0.41316 0.0
N2073 N 0.12963 0.52254 0.29868 0.0
C2074 C 0.17443 0.55674 0.38427 0.0
C2075 C 0.1444 0.53768 0.32578 0.0
N2076 N 0.22367 0.56505 0.36457 0.0
N2077 N 0.09756 0.54451 0.34389 0.0
H2078 H 0.14144 0.51613 0.28133 0.0
H2079 H 0.10576 0.51344 0.29436 0.0
H2080 H 0.08448 0.54907 0.36083 0.0
H2081 H 0.08603 0.54113 0.32254 0.0
H2082 H 0.23588 0.57622 0.38496 0.0
H2083 H 0.23789 0.56442 0.34767 0.0
H2084 H 0.20898 0.55756 0.41894 0.0
H2085 H 0.17467 0.56125 0.43144 0.0
C2086 C 0.85651 0.86693 0.66909 0.0
C2087 C 0.83158 0.85432 0.64616 0.0
C2088 C 0.79854 0.82995 0.6859 0.0
C2089 C 0.82419 0.84005 0.70838 0.0
N2090 N 0.87946 0.8628 0.7184 0.0
N2091 N 0.779 0.82069 0.63301 0.0
C2092 C 0.85356 0.85734 0.69911 0.0
C2093 C 0.80275 0.83469 0.65472 0.0
N2094 N 0.88357 0.88822 0.66229 0.0
N2095 N 0.76963 0.81757 0.69453 0.0
H2096 H 0.78041 0.82509 0.61062 0.0
H2097 H 0.75864 0.80297 0.63679 0.0
H2098 H 0.76552 0.81491 0.71679 0.0
H2099 H 0.74954 0.81301 0.68023 0.0
H2100 H 0.90083 0.9024 0.67846 0.0
H2101 H 0.88817 0.89331 0.64053 0.0
H2102 H 0.90175 0.87129 0.71219 0.0
H2103 H 0.87893 0.85561 0.73993 0.0
C2104 C 0.80389 0.56798 0.54291 0.0
C2105 C 0.787 0.54103 0.52156 0.0
C2106 C 0.74104 0.55966 0.52382 0.0
C2107 C 0.75814 0.58677 0.54482 0.0
N2108 N 0.80693 0.62182 0.56863 0.0
N2109 N 0.74223 0.51517 0.4868 0.0
C2110 C 0.79002 0.59267 0.55233 0.0
C2111 C 0.75638 0.53816 0.51041 0.0
N2112 N 0.83224 0.56874 0.5559 0.0
N2113 N 0.70994 0.55364 0.51773 0.0
H2114 H 0.75307 0.49916 0.47656 0.0
H2115 H 0.72098 0.51392 0.47571 0.0
H2116 H 0.69803 0.56939 0.52645 0.0
H2117 H 0.6956 0.53205 0.50547 0.0
H2118 H 0.84384 0.58554 0.57408 0.0
H2119 H 0.84325 0.55088 0.55041 0.0
H2120 H 0.83089 0.62915 0.57227 0.0
H2121 H 0.79718 0.64021 0.57613 0.0
C2122 C 0.20796 0.15801 0.53046 0.0
C2123 C 0.2246 0.17796 0.55646 0.0
C2124 C 0.18788 0.14343 0.58747 0.0
C2125 C 0.16958 0.12551 0.5613 0.0
N2126 N 0.15948 0.1203 0.50751 0.0
N2127 N 0.22871 0.19236 0.60965 0.0
C2128 C 0.17899 0.13385 0.53266 0.0
C2129 C 0.21399 0.17147 0.58495 0.0
N2130 N 0.2199 0.162 0.50356 0.0
N2131 N 0.18092 0.1328 0.61479 0.0
H2132 H 0.24837 0.21238 0.60883 0.0
H2133 H 0.22021 0.19149 0.63047 0.0
H2134 H 0.16239 0.11202 0.61739 0.0
H2135 H 0.195 0.14247 0.63458 0.0
H2136 H 0.21082 0.14556 0.48446 0.0
H2137 H 0.24022 0.18048 0.5008 0.0
H2138 H 0.16334 0.12836 0.48643 0.0
H2139 H 0.13802 0.10299 0.50801 0.0
C2140 C 0.24606 0.97898 0.81689 0.0
C2141 C 0.24717 1.012 0.8108 0.0
C2142 C 0.29445 0.01784 0.7863 0.0
C2143 C 0.29272 0.98451 0.79155 0.0
N2144 N 0.26415 0.93086 0.80614 0.0
N2145 N 0.26865 0.0608 0.7849 0.0
C2146 C 0.26769 0.96431 0.80517 0.0
C2147 C 0.27014 0.03077 0.79389 0.0
N2148 N 0.22452 0.96174 0.83411 0.0
N2149 N 0.31982 0.03742 0.77495 0.0
H2150 H 0.25189 0.07185 0.79069 0.0
H2151 H 0.28271 0.07379 0.76984 0.0
H2152 H 0.33761 0.02836 0.76832 0.0
H2153 H 0.32434 0.0631 0.77395 0.0
H2154 H 0.22505 0.9394 0.84255 0.0
H2155 H 0.20687 0.9706 0.84137 0.0
H2156 H 0.24425 0.91399 0.81199 0.0
H2157 H 0.27998 0.91926 0.79864 0.0
C2158 C 0.44054 0.05268 0.02622 0.0
C2159 C 0.42719 0.02411 1.00554 0.0
C2160 C 0.47792 0.02019 0.99537 0.0
C2161 C 0.49126 0.04723 0.01762 0.0
N2162 N 0.48709 0.09442 0.04908 0.0
N2163 N 0.43175 0.98651 0.96462 0.0
C2164 C 0.47314 0.06548 0.03109 0.0
C2165 C 0.44556 1.00988 0.98808 0.0
N2166 N 0.42211 0.06589 0.04272 0.0
N2167 N 0.49617 1.0038 0.98204 0.0
H2168 H 0.40797 0.97904 0.95882 0.0
H2169 H 0.44375 0.97671 0.94944 0.0
H2170 H 0.52017 1.01205 0.98562 0.0
H2171 H 0.48768 0.98145 0.96832 0.0
H2172 H 0.43032 0.08391 0.06086 0.0
H2173 H 0.39813 0.05779 0.03903 0.0
H2174 H 0.47544 0.11068 0.05719 0.0
H2175 H 0.51087 0.10358 0.05432 0.0
C2176 C 0.85654 0.60865 0.87281 0.0
C2177 C 0.88612 0.62971 0.86813 0.0
C2178 C 0.86348 0.6704 0.84773 0.0
C2179 C 0.83369 0.6483 0.85013 0.0
N2180 N 0.80129 0.60085 0.87066 0.0
N2181 N 0.91807 0.68324 0.8559 0.0
C2182 C 0.83005 0.61886 0.86476 0.0
C2183 C 0.88969 0.66142 0.85768 0.0
N2184 N 0.85379 0.57814 0.88316 0.0
N2185 N 0.8671 0.69964 0.83477 0.0
H2186 H 0.93874 0.67883 0.86313 0.0
H2187 H 0.93874 0.67883 0.86313 0.0
H2188 H 0.84876 0.70775 0.82665 0.0
H2189 H 0.88872 0.71598 0.83224 0.0
H2190 H 0.83289 0.55984 0.88388 0.0
H2191 H 0.8728 0.57049 0.89018 0.0
H2192 H 0.79692 0.58037 0.88318 0.0
H2193 H 0.78174 0.60812 0.86477 0.0
C2194 C 0.88861 0.68207 0.03267 0.0
C2195 C 0.8846 0.70444 0.05609 0.0
C2196 C 0.9234 0.69022 0.08898 0.0
C2197 C 0.92354 0.66417 0.06716 0.0
N2198 N 0.90526 0.63365 0.0187 0.0
N2199 N 0.8963 0.72822 0.10757 0.0
C2200 C 0.90613 0.65987 0.03897 0.0
C2201 C 0.90187 0.70857 0.08443 0.0
N2202 N 0.87599 0.68251 1.00427 0.0
N2203 N 0.94397 0.69742 0.11398 0.0
H2204 H 0.88075 0.74207 0.10536 0.0
H2205 H 0.90544 0.72897 0.12957 0.0
H2206 H 0.9598 0.68417 0.11806 0.0
H2207 H 0.94724 0.71827 0.12926 0.0
H2208 H 0.88059 0.66931 0.98562 0.0
H2209 H 0.86317 0.69863 0.99891 0.0
H2210 H 0.89011 0.62674 0.99928 0.0
H2211 H 0.91827 0.61724 0.0222 0.0
C2212 C 0.27424 0.16129 0.82857 0.0
C2213 C 0.24483 0.15611 0.83904 0.0
C2214 C 0.25261 0.21649 0.84409 0.0
C2215 C 0.2797 0.22119 0.82918 0.0
N2216 N 0.31398 0.1973 0.80308 0.0
N2217 N 0.20457 0.17812 0.85505 0.0
C2218 C 0.2901 0.19342 0.82048 0.0
C2219 C 0.23353 0.18352 0.84622 0.0
N2220 N 0.28706 0.13562 0.82647 0.0
N2221 N 0.24591 0.2434 0.8576 0.0
H2222 H 0.19061 0.15453 0.85886 0.0
H2223 H 0.1937 0.19678 0.85689 0.0
H2224 H 0.25984 0.26791 0.85748 0.0
H2225 H 0.22825 0.24128 0.87142 0.0
H2226 H 0.30966 0.13878 0.82162 0.0
H2227 H 0.27616 0.11182 0.83246 0.0
H2228 H 0.32036 0.17727 0.79351 0.0
H2229 H 0.32556 0.22018 0.79573 0.0
C2230 C 0.44048 0.97197 0.34421 0.0
C2231 C 0.43163 0.99919 0.33367 0.0
C2232 C 0.38022 0.96179 0.31564 0.0
C2233 C 0.38909 0.93451 0.32633 0.0
N2234 N 0.42352 0.91603 0.35953 0.0
N2235 N 0.39159 0.02204 0.31548 0.0
C2236 C 0.4181 0.94027 0.3431 0.0
C2237 C 0.40095 0.99476 0.32142 0.0
N2238 N 0.47027 0.97637 0.35543 0.0
N2239 N 0.3526 0.95616 0.29898 0.0
H2240 H 0.40629 0.04648 0.31876 0.0
H2241 H 0.36875 0.02084 0.30954 0.0
H2242 H 0.33603 0.93289 0.29572 0.0
H2243 H 0.34665 0.97415 0.28708 0.0
H2244 H 0.47893 0.95656 0.35978 0.0
H2245 H 0.48694 0.9997 0.35883 0.0
H2246 H 0.44307 0.91973 0.37445 0.0
H2247 H 0.40682 0.89336 0.36095 0.0
C2248 C 0.61089 0.45143 0.63398 0.0
C2249 C 0.62577 0.43195 0.61684 0.0
C2250 C 0.62705 0.47026 0.57686 0.0
C2251 C 0.6139 0.49081 0.59496 0.0
N2252 N 0.60116 0.5048 0.64429 0.0
N2253 N 0.65233 0.4263 0.57352 0.0
C2254 C 0.60839 0.48262 0.6246 0.0
C2255 C 0.63484 0.44224 0.58857 0.0
N2256 N 0.59716 0.43914 0.65842 0.0
N2257 N 0.63282 0.47803 0.54854 0.0
H2258 H 0.65887 0.40639 0.58155 0.0
H2259 H 0.66252 0.43434 0.55441 0.0
H2260 H 0.63101 0.50023 0.54067 0.0
H2261 H 0.63846 0.46218 0.5326 0.0
H2262 H 0.5831 0.45027 0.66992 0.0
H2263 H 0.59672 0.41576 0.66516 0.0
H2264 H 0.60017 0.50185 0.66698 0.0
H2265 H 0.5992 0.52783 0.63877 0.0
C2266 C 0.41839 0.7839 0.41651 0.0
C2267 C 0.45006 0.80188 0.41662 0.0
C2268 C 0.43706 0.82968 0.37303 0.0
C2269 C 0.40517 0.81361 0.37421 0.0
N2270 N 0.36511 0.77841 0.39961 0.0
N2271 N 0.48813 0.84835 0.39971 0.0
C2272 C 0.39576 0.79177 0.39685 0.0
C2273 C 0.459 0.82644 0.39608 0.0
N2274 N 0.41003 0.75821 0.43418 0.0
N2275 N 0.4466 0.84822 0.34989 0.0
H2276 H 0.50449 0.84833 0.41714 0.0
H2277 H 0.49505 0.86901 0.38756 0.0
H2278 H 0.43148 0.85287 0.33342 0.0
H2279 H 0.46962 0.85701 0.34579 0.0
H2280 H 0.3879 0.74162 0.43292 0.0
H2281 H 0.42586 0.75168 0.4486 0.0
H2282 H 0.35683 0.76564 0.41762 0.0
H2283 H 0.34783 0.78193 0.38491 0.0
C2284 C 0.13731 0.72654 0.1323 0.0
C2285 C 0.12125 0.7465 0.11766 0.0
C2286 C 0.09005 0.69597 0.08522 0.0
C2287 C 0.10634 0.67608 0.09968 0.0
N2288 N 0.14802 0.67304 0.13449 0.0
N2289 N 0.0846 0.75127 0.07822 0.0
C2290 C 0.13077 0.69164 0.12244 0.0
C2291 C 0.09835 0.73146 0.09346 0.0
N2292 N 0.15866 0.74101 0.15607 0.0
N2293 N 0.06637 0.68073 0.06367 0.0
H2294 H 0.08911 0.77681 0.08435 0.0
H2295 H 0.06998 0.74315 0.05859 0.0
H2296 H 0.06127 0.65565 0.05546 0.0
H2297 H 0.05092 0.69226 0.05454 0.0
H2298 H 0.16835 0.72766 0.17049 0.0
H2299 H 0.16605 0.76674 0.1623 0.0
H2300 H 0.16826 0.68309 0.1486 0.0
H2301 H 0.14312 0.64732 0.12915 0.0
C2302 C 0.12624 0.31196 0.93182 0.0
C2303 C 0.09609 0.31067 0.91991 0.0
C2304 C 0.11284 0.3131 0.86946 0.0
C2305 C 0.1435 0.31773 0.88174 0.0
N2306 N 0.18063 0.32683 0.92489 0.0
N2307 N 0.06222 0.31697 0.8783 0.0
C2308 C 0.15058 0.31864 0.91303 0.0
C2309 C 0.08973 0.31299 0.88893 0.0
N2310 N 0.13145 0.30543 0.96072 0.0
N2311 N 0.1057 0.30822 0.83915 0.0
H2312 H 0.04508 0.31844 0.89193 0.0
H2313 H 0.0576 0.32228 0.85653 0.0
H2314 H 0.12211 0.30844 0.82416 0.0
H2315 H 0.08318 0.30105 0.82898 0.0
H2316 H 0.15208 0.30221 0.96952 0.0
H2317 H 0.11435 0.30021 0.97529 0.0
H2318 H 0.18743 0.33171 0.94774 0.0
H2319 H 0.19909 0.33144 0.91183 0.0
C2320 C 0.54871 0.67987 0.96388 0.0
C2321 C 0.57484 0.70986 0.96742 0.0
C2322 C 0.59676 0.6803 1.00767 0.0
C2323 C 0.57203 0.64923 1.00232 0.0
N2324 N 0.52495 0.62067 0.97194 0.0
N2325 N 0.6271 0.73254 0.98992 0.0
C2326 C 0.54845 0.64957 0.97919 0.0
C2327 C 0.59952 0.7082 0.98877 0.0
N2328 N 0.52288 0.68072 0.94692 0.0
N2329 N 0.61826 0.68376 0.03137 0.0
H2330 H 0.63092 0.75208 0.97626 0.0
H2331 H 0.6472 0.7313 1.00177 0.0
H2332 H 0.6186 0.66442 0.04453 0.0
H2333 H 0.63439 0.70651 0.03936 0.0
H2334 H 0.50182 0.66217 0.94547 0.0
H2335 H 0.52155 0.70164 0.93638 0.0
H2336 H 0.50825 0.61707 0.95399 0.0
H2337 H 0.52303 0.59933 0.98313 0.0
C2338 C 0.19464 0.82024 0.72311 0.0
C2339 C 0.17004 0.82214 0.74112 0.0
C2340 C 0.20777 0.8178 0.78509 0.0
C2341 C 0.23323 0.81925 0.76739 0.0
N2342 N 0.24932 0.82665 0.7181 0.0
N2343 N 0.15849 0.82887 0.79199 0.0
C2344 C 0.22601 0.82222 0.73615 0.0
C2345 C 0.17825 0.82233 0.77281 0.0
N2346 N 0.18772 0.81395 0.69287 0.0
N2347 N 0.21151 0.81202 0.81433 0.0
H2348 H 0.13793 0.83332 0.7847 0.0
H2349 H 0.16388 0.83347 0.81505 0.0
H2350 H 0.23229 0.81055 0.82456 0.0
H2351 H 0.19347 0.80623 0.82781 0.0
H2352 H 0.20272 0.80832 0.67846 0.0
H2353 H 0.16572 0.81032 0.68235 0.0
H2354 H 0.24755 0.83373 0.69651 0.0
H2355 H 0.27122 0.82556 0.72542 0.0
C2356 C 0.11043 0.43575 0.47149 0.0
C2357 C 0.08825 0.40396 0.47431 0.0
C2358 C 0.06318 0.43742 0.50828 0.0
C2359 C 0.08722 0.4686 0.5083 0.0
N2360 N 0.13684 0.49382 0.49101 0.0
N2361 N 0.04461 0.37628 0.49976 0.0
C2362 C 0.11144 0.46659 0.48992 0.0
C2363 C 0.06534 0.40552 0.49429 0.0
N2364 N 0.1312 0.43689 0.45099 0.0
N2365 N 0.03642 0.43838 0.51945 0.0
H2366 H 0.04288 0.35321 0.48839 0.0
H2367 H 0.03037 0.37466 0.51697 0.0
H2368 H 0.03259 0.4607 0.52699 0.0
H2369 H 1.01663 0.41796 0.51758 0.0
H2370 H 0.14476 0.45913 0.44408 0.0
H2371 H 0.13357 0.41553 0.4394 0.0
H2372 H 0.15697 0.49326 0.48177 0.0
H2373 H 0.13918 0.51634 0.50352 0.0
C2374 C 0.48023 0.33661 0.26831 0.0
C2375 C 0.4816 0.31336 0.24317 0.0
C2376 C 0.42235 0.29193 0.24611 0.0
C2377 C 0.42162 0.31221 0.27337 0.0
N2378 N 0.45554 0.35023 0.31233 0.0
N2379 N 0.44984 0.26298 0.21406 0.0
C2380 C 0.45227 0.33345 0.28467 0.0
C2381 C 0.45137 0.28957 0.23398 0.0
N2382 N 0.5055 0.36356 0.27629 0.0
N2383 N 0.39485 0.27586 0.22999 0.0
H2384 H 0.46922 0.25902 0.20552 0.0
H2385 H 0.42994 0.24286 0.20882 0.0
H2386 H 0.37402 0.27819 0.23641 0.0
H2387 H 0.39309 0.26376 0.20864 0.0
H2388 H 0.50546 0.38348 0.29146 0.0
H2389 H 0.52536 0.36801 0.26531 0.0
H2390 H 0.4769 0.36289 0.32387 0.0
H2391 H 0.43712 0.34831 0.32514 0.0
C2392 C 0.66637 0.59226 0.45156 0.0
C2393 C 0.66427 0.56077 0.43614 0.0
C2394 C 0.63147 0.53174 0.47237 0.0
C2395 C 0.63471 0.56306 0.48848 0.0
N2396 N 0.65998 0.62261 0.49705 0.0
N2397 N 0.65199 0.5009 0.43594 0.0
C2398 C 0.65405 0.59309 0.47946 0.0
C2399 C 0.64904 0.53058 0.44787 0.0
N2400 N 0.67766 0.62131 0.43858 0.0
N2401 N 0.61108 0.50325 0.47992 0.0
H2402 H 0.66542 0.49946 0.41842 0.0
H2403 H 0.64387 0.47838 0.44534 0.0
H2404 H 0.59805 0.50296 0.498 0.0
H2405 H 0.60537 0.48033 0.46696 0.0
H2406 H 0.67605 0.64439 0.44722 0.0
H2407 H 0.68617 0.62235 0.41779 0.0
H2408 H 0.67707 0.64427 0.49353 0.0
H2409 H 0.64937 0.62501 0.5164 0.0
C2410 C 0.38016 0.92509 0.10021 0.0
C2411 C 0.35051 0.91287 0.08406 0.0
C2412 C 0.33458 0.87057 0.11907 0.0
C2413 C 0.3651 0.88082 0.13336 0.0
N2414 N 0.41828 0.91382 0.13492 0.0
N2415 N 0.30083 0.87118 0.07501 0.0
C2416 C 0.38834 0.90683 0.12307 0.0
C2417 C 0.32799 0.88486 0.09265 0.0
N2418 N 0.3999 0.95513 0.09485 0.0
N2419 N 0.31178 0.84789 0.1312 0.0
H2420 H 0.29527 0.88094 0.05544 0.0
H2421 H 0.28489 0.84862 0.07841 0.0
H2422 H 0.31588 0.8363 0.15016 0.0
H2423 H 0.28849 0.84235 0.12381 0.0
H2424 H 0.42051 0.9669 0.10803 0.0
H2425 H 0.39435 0.97013 0.07918 0.0
H2426 H 0.4367 0.93003 0.12606 0.0
H2427 H 0.42507 0.90119 0.15205 0.0
C2428 C 1.00387 0.56873 0.96003 0.0
C2429 C 1.01643 0.59327 0.94077 0.0
C2430 C 0.0627 0.61537 0.97616 0.0
C2431 C 0.05137 0.58807 0.99323 0.0
N2432 N 1.01497 0.53381 0.99663 0.0
N2433 N 0.05929 0.63771 0.92816 0.0
C2434 C 1.02315 0.56318 0.98362 0.0
C2435 C 0.04632 0.61613 0.94814 0.0
N2436 N 0.97309 0.55179 0.95676 0.0
N2437 N 0.08826 0.64094 0.98712 0.0
H2438 H 0.04778 0.63887 0.90756 0.0
H2439 H 0.08216 0.65263 0.93109 0.0
H2440 H 0.10071 0.64093 1.00751 0.0
H2441 H 0.09575 0.66311 0.97707 0.0
H2442 H 0.96249 0.53576 0.97204 0.0
H2443 H 0.95752 0.55687 0.94101 0.0
H2444 H 0.99594 0.51365 0.98836 0.0
H2445 H 0.02903 0.52818 0.01349 0.0
C2446 C 0.34697 0.3029 0.66906 0.0
C2447 C 0.31806 0.28857 0.65161 0.0
C2448 C 0.29277 0.28421 0.69891 0.0
C2449 C 0.32138 0.30061 0.71628 0.0
N2450 N 0.37483 0.33192 0.71615 0.0
N2451 N 0.26285 0.27264 0.6502 0.0
C2452 C 0.34822 0.31169 0.70079 0.0
C2453 C 0.29085 0.28132 0.66673 0.0
N2454 N 0.37349 0.30692 0.6556 0.0
N2455 N 0.26747 0.26975 0.71311 0.0
H2456 H 0.26063 0.27144 0.62691 0.0
H2457 H 0.24216 0.27017 0.65951 0.0
H2458 H 0.2679 0.27047 0.73631 0.0
H2459 H 0.24689 0.25427 0.70194 0.0
H2460 H 0.39524 0.31331 0.66742 0.0
H2461 H 0.3736 0.30137 0.63269 0.0
H2462 H 0.39431 0.34367 0.70591 0.0
H2463 H 0.37645 0.33966 0.73885 0.0
C2464 C 0.5832 0.55704 0.29677 0.0
C2465 C 0.60542 0.54028 0.29138 0.0
C2466 C 0.5865 0.5296 0.2384 0.0
C2467 C 0.5703 0.55342 0.24293 0.0
N2468 N 0.54899 0.58647 0.27575 0.0
N2469 N 0.62642 0.5069 0.25793 0.0
C2470 C 0.56666 0.56542 0.27208 0.0
C2471 C 0.60582 0.52438 0.2626 0.0
N2472 N 0.57873 0.56543 0.32556 0.0
N2473 N 0.5843 0.51327 0.21062 0.0
H2474 H 0.64003 0.50126 0.27516 0.0
H2475 H 0.63084 0.49868 0.23688 0.0
H2476 H 0.5706 0.51728 0.19253 0.0
H2477 H 0.59376 0.49387 0.20598 0.0
H2478 H 0.56167 0.57599 0.33138 0.0
H2479 H 0.59069 0.55901 0.34376 0.0
H2480 H 0.54792 0.59926 0.29609 0.0
H2481 H 0.53582 0.5917 0.25781 0.0
C2482 C 0.33111 0.88249 0.93512 0.0
C2483 C 0.31222 0.90409 0.93534 0.0
C2484 C 0.29264 0.8845 0.88319 0.0
C2485 C 0.31405 0.86581 0.88214 0.0
N2486 N 0.35805 0.85236 0.90514 0.0
N2487 N 0.27714 0.92855 0.90955 0.0
C2488 C 0.33433 0.86599 0.90764 0.0
C2489 C 0.2935 0.90589 0.90936 0.0
N2490 N 0.34631 0.87802 0.96111 0.0
N2491 N 0.27098 0.88104 0.85957 0.0
H2492 H 0.27622 0.94346 0.92881 0.0
H2493 H 0.26596 0.9339 0.89037 0.0
H2494 H 0.27008 0.86608 0.83982 0.0
H2495 H 0.25249 0.89085 0.86042 0.0
H2496 H 0.35747 0.85967 0.96271 0.0
H2497 H 0.34569 0.89059 0.98172 0.0
H2498 H 0.3756 0.85507 0.92217 0.0
H2499 H 0.36217 0.84125 0.88508 0.0
C2500 C 0.03499 0.59094 0.79665 0.0
C2501 C 1.00552 0.59585 0.79392 0.0
C2502 C 1.00376 0.58949 0.73939 0.0
C2503 C 0.0307 0.57905 0.74231 0.0
N2504 N 0.07288 0.5703 0.77291 0.0
N2505 N 0.96145 0.60062 0.76361 0.0
C2506 C 0.04688 0.58039 0.77073 0.0
C2507 C 0.99005 0.5961 0.76552 0.0
N2508 N 0.05141 0.5965 0.82415 0.0
N2509 N 0.99132 0.59285 0.71165 0.0
H2510 H 0.9513 0.60673 0.78233 0.0
H2511 H 0.94717 0.59693 0.74377 0.0
H2512 H 1.0003 0.58716 0.69203 0.0
H2513 H 0.97356 0.60354 0.70806 0.0
H2514 H 0.07411 0.59606 0.82767 0.0
H2515 H 0.04305 0.60453 0.84336 0.0
H2516 H 0.08386 0.56702 0.79305 0.0
H2517 H 0.08283 0.56355 0.75428 0.0
C2518 C 0.31611 0.25355 0.44355 0.0
C2519 C 0.32233 0.27965 0.46744 0.0
C2520 C 0.33482 0.32024 0.42877 0.0
C2521 C 0.33228 0.29399 0.40553 0.0
N2522 N 0.32888 0.2357 0.39508 0.0
N2523 N 0.34432 0.33879 0.48204 0.0
C2524 C 0.3253 0.26071 0.41425 0.0
C2525 C 0.33356 0.31325 0.45978 0.0
N2526 N 0.29996 0.22165 0.44819 0.0
N2527 N 0.33681 0.35183 0.42152 0.0
H2528 H 0.34453 0.33501 0.50463 0.0
H2529 H 0.35593 0.3632 0.47807 0.0
H2530 H 0.33634 0.35826 0.39966 0.0
H2531 H 0.33529 0.37083 0.43698 0.0
H2532 H 0.29227 0.20234 0.43097 0.0
H2533 H 0.29086 0.2154 0.46827 0.0
H2534 H 0.32685 0.21168 0.40118 0.0
H2535 H 0.33783 0.24001 0.37463 0.0
C2536 C 0.36692 0.5736 0.56349 0.0
C2537 C 0.37681 0.60745 0.55678 0.0
C2538 C 0.41944 0.59685 0.53193 0.0
C2539 C 0.40846 0.56256 0.53716 0.0
N2540 N 0.36835 0.51675 0.55179 0.0
N2541 N 0.40769 0.64938 0.5287 0.0
C2542 C 0.381 0.55044 0.55093 0.0
C2543 C 0.40165 0.61853 0.53917 0.0
N2544 N 0.34537 0.56396 0.58323 0.0
N2545 N 0.4475 0.60906 0.52136 0.0
H2546 H 0.39479 0.66574 0.53313 0.0
H2547 H 0.4235 0.65747 0.51327 0.0
H2548 H 0.4617 0.59433 0.51628 0.0
H2549 H 0.45788 0.63439 0.51971 0.0
H2550 H 0.33974 0.54051 0.59134 0.0
H2551 H 0.33514 0.5803 0.59381 0.0
H2552 H 0.34673 0.50614 0.5589 0.0
H2553 H 0.3782 0.49918 0.54268 0.0
C2554 C 0.95221 0.94481 0.53758 0.0
C2555 C 0.93109 0.95234 0.55661 0.0
C2556 C 0.96566 1.00998 0.56687 0.0
C2557 C 0.98858 1.0012 0.55126 0.0
N2558 N 1.0056 0.9568 0.52789 0.0
N2559 N 0.92191 0.99041 0.59511 0.0
C2560 C 0.98241 0.96767 0.53821 0.0
C2561 C 0.93901 0.98449 0.57287 0.0
N2562 N 0.94329 0.91661 0.51793 0.0
N2563 N 0.96884 0.04286 0.57531 0.0
H2564 H 0.90334 0.97195 0.60153 0.0
H2565 H 0.92839 1.01241 0.60948 0.0
H2566 H 0.98729 0.06238 0.57014 0.0
H2567 H 0.9515 0.05088 0.58435 0.0
H2568 H 0.95688 0.91188 0.50156 0.0
H2569 H 0.92121 0.89975 0.51578 0.0
H2570 H 1.00288 0.93174 0.52105 0.0
H2571 H 1.02831 0.97191 0.5292 0.0
C2572 C 0.9201 0.15011 0.30095 0.0
C2573 C 0.915 0.11505 0.29938 0.0
C2574 C 0.86595 0.10723 0.32096 0.0
C2575 C 0.87107 0.14227 0.3225 0.0
N2576 N 0.90498 0.19797 0.32011 0.0
N2577 N 0.8864 0.06051 0.31232 0.0
C2578 C 0.89889 0.16404 0.31453 0.0
C2579 C 0.88904 0.09371 0.311 0.0
N2580 N 0.94472 0.16987 0.28868 0.0
N2581 N 0.83844 0.08688 0.32786 0.0
H2582 H 0.90201 0.04924 0.30395 0.0
H2583 H 0.86991 0.04442 0.32347 0.0
H2584 H 0.82164 0.09613 0.33662 0.0
H2585 H 0.83147 0.06093 0.32355 0.0
H2586 H 0.94779 0.19501 0.28582 0.0
H2587 H 0.96146 0.16062 0.27978 0.0
H2588 H 0.92607 0.21516 0.3176 0.0
H2589 H 0.88962 0.20905 0.32945 0.0
C2590 C 0.72094 0.07583 0.09164 0.0
C2591 C 0.7337 0.10775 0.10788 0.0
C2592 C 0.68358 0.11767 0.10508 0.0
C2593 C 0.67147 0.08808 0.08524 0.0
N2594 N 0.67688 0.0369 0.06149 0.0
N2595 N 0.72404 0.14818 0.1433 0.0
C2596 C 0.6896 0.06633 0.0792 0.0
C2597 C 0.71393 0.12519 0.11892 0.0
N2598 N 0.73801 0.05392 0.09018 0.0
N2599 N 0.66711 0.13997 0.10895 0.0
H2600 H 0.7456 0.1521 0.1551 0.0
H2601 H 0.70981 0.15982 0.15395 0.0
H2602 H 0.64546 0.13665 0.09774 0.0
H2603 H 0.67626 0.16346 0.12087 0.0
H2604 H 0.73003 0.02971 0.07962 0.0
H2605 H 0.75906 0.05842 0.103 0.0
H2606 H 0.68946 0.02174 0.05321 0.0
H2607 H 0.65346 0.02788 0.05414 0.0
C2608 C 0.32727 0.54318 0.23686 0.0
C2609 C 0.29578 0.52432 0.23181 0.0
C2610 C 0.30875 0.47279 0.23885 0.0
C2611 C 0.33852 0.49262 0.25167 0.0
N2612 N 0.37846 0.54527 0.25832 0.0
N2613 N 0.26036 0.47177 0.21147 0.0
C2614 C 0.34877 0.52738 0.24849 0.0
C2615 C 0.28783 0.48912 0.22716 0.0
N2616 N 0.33644 0.57544 0.22972 0.0
N2617 N 0.29953 0.43893 0.24038 0.0
H2618 H 0.24561 0.48407 0.20193 0.0
H2619 H 0.25386 0.44613 0.20516 0.0
H2620 H 0.31426 0.42576 0.24812 0.0
H2621 H 0.27691 0.42389 0.235 0.0
H2622 H 0.3593 0.59025 0.23169 0.0
H2623 H 0.32138 0.58591 0.21817 0.0
H2624 H 0.38672 0.57129 0.25999 0.0
H2625 H 0.39473 0.53364 0.2656 0.0
C2626 C 0.2545 0.43273 0.04362 0.0
C2627 C 0.26871 0.4262 0.07067 0.0
C2628 C 0.24482 0.46194 0.0996 0.0
C2629 C 0.23076 0.46865 0.07253 0.0
N2630 N 0.21668 0.45553 0.01947 0.0
N2631 N 0.27259 0.4281 0.12434 0.0
C2632 C 0.23368 0.45224 0.04475 0.0
C2633 C 0.2623 0.4388 0.09869 0.0
N2634 N 0.26239 0.42202 0.01684 0.0
N2635 N 0.2422 0.47853 0.12604 0.0
H2636 H 0.28525 0.41095 0.12423 0.0
H2637 H 0.26648 0.43383 0.1454 0.0
H2638 H 0.22832 0.49435 0.12771 0.0
H2639 H 0.25496 0.47808 0.14605 0.0
H2640 H 0.25582 0.42928 0.99639 0.0
H2641 H 0.27733 0.40745 0.01514 0.0
H2642 H 0.21517 0.44142 0.99915 0.0
H2643 H 0.20204 0.4706 0.01926 0.0
C2644 C 0.87766 0.95108 0.23966 0.0
C2645 C 0.89998 0.97289 0.2612 0.0
C2646 C 0.88645 0.93338 0.29888 0.0
C2647 C 0.86416 0.91142 0.27736 0.0
N2648 N 0.8338 0.90117 0.22949 0.0
N2649 N 0.92088 0.98921 0.31275 0.0
C2650 C 0.8581 0.92094 0.24845 0.0
C2651 C 0.90295 0.96536 0.29128 0.0
N2652 N 0.8762 0.95849 0.21064 0.0
N2653 N 0.89213 0.92341 0.32646 0.0
H2654 H 0.9336 1.01299 0.30813 0.0
H2655 H 0.92132 0.9866 0.33555 0.0
H2656 H 0.87887 0.9012 0.33378 0.0
H2657 H 0.91093 0.93628 0.34161 0.0
H2658 H 0.86295 0.94188 0.19306 0.0
H2659 H 0.88981 0.98078 0.20374 0.0
H2660 H 0.82631 0.90828 0.20931 0.0
H2661 H 0.81966 0.87832 0.23475 0.0
C2662 C 0.79508 0.18096 0.74373 0.0
C2663 C 0.78894 0.15751 0.76531 0.0
C2664 C 0.81146 0.20239 0.80531 0.0
C2665 C 0.81222 0.22596 0.78426 0.0
N2666 N 0.80424 0.23885 0.73356 0.0
N2667 N 0.78828 0.14604 0.81728 0.0
C2668 C 0.80422 0.21564 0.7534 0.0
C2669 C 0.79681 0.16807 0.7963 0.0
N2670 N 0.79257 0.16993 0.71411 0.0
N2671 N 0.82479 0.21285 0.83388 0.0
H2672 H 0.77709 0.12065 0.81204 0.0
H2673 H 0.79004 0.15343 0.84006 0.0
H2674 H 0.83574 0.23796 0.84114 0.0
H2675 H 0.82771 0.19646 0.8494 0.0
H2676 H 0.79928 0.18577 0.69747 0.0
H2677 H 0.78658 0.14455 0.70651 0.0
H2678 H 0.79512 0.23261 0.71131 0.0
H2679 H 0.81172 0.26458 0.7398 0.0
loop_
_geom_bond_atom_site_label_1
_geom_bond_atom_site_label_2
_geom_bond_distance
_geom_bond_site_symmetry_2
_ccdc_geom_bond_type
In0 O1 2.294 . S
In0 O2 2.326 . S
In0 O6 2.266 . S
In0 O7 2.326 . S
In0 O8 2.266 . S
In0 O9 2.326 . S
In0 O11 2.294 . S
In0 O12 2.326 . S
O1 In0 2.294 . S
O1 C10 1.240 . S
O2 In0 2.326 . S
O2 C10 1.252 . S
C3 O6 1.252 1_655 S
C3 O7 1.260 1_655 S
C4 O11 1.240 . S
C4 O12 1.252 . S
C5 O8 1.252 . S
C5 O9 1.260 . S
O6 In0 2.266 . S
O6 C3 1.252 1_455 S
O7 In0 2.326 . S
O7 C3 1.260 1_455 S
O8 In0 2.266 . S
O8 C5 1.252 . S
O9 In0 2.326 . S
O9 C5 1.260 . S
C10 O1 1.240 . S
C10 O2 1.252 . S
O11 In0 2.294 . S
O11 C4 1.240 . S
O12 In0 2.326 . S
O12 C4 1.252 . S
In13 O14 2.294 . S
In13 O15 2.326 . S
In13 O19 2.266 . S
In13 O20 2.326 . S
In13 O21 2.266 . S
In13 O22 2.326 . S
In13 O24 2.294 . S
In13 O25 2.326 . S
O14 In13 2.294 . S
O14 C23 1.240 . S
O15 In13 2.326 . S
O15 C23 1.252 . S
C16 O19 1.252 . S
C16 O20 1.260 . S
C17 O24 1.240 . S
C17 O25 1.252 . S
C18 O21 1.252 . S
C18 O22 1.260 . S
O19 In13 2.266 . S
O19 C16 1.252 . S
O20 In13 2.326 . S
O20 C16 1.260 . S
O21 In13 2.266 . S
O21 C18 1.252 . S
O22 In13 2.326 . S
O22 C18 1.260 . S
C23 O14 1.240 . S
C23 O15 1.252 . S
O24 In13 2.294 . S
O24 C17 1.240 . S
O25 In13 2.326 . S
O25 C17 1.252 . S
In26 O27 2.294 . S
In26 O28 2.326 . S
In26 O32 2.266 . S
In26 O33 2.326 . S
In26 O34 2.266 . S
In26 O35 2.326 . S
In26 O37 2.294 . S
In26 O38 2.326 . S
O27 In26 2.294 . S
O27 C36 1.240 . S
O28 In26 2.326 . S
O28 C36 1.252 . S
C29 O32 1.252 . S
C29 O33 1.260 . S
C30 O37 1.240 . S
C30 O38 1.252 . S
C31 O34 1.252 . S
C31 O35 1.260 . S
O32 In26 2.266 . S
O32 C29 1.252 . S
O33 In26 2.326 . S
O33 C29 1.260 . S
O34 In26 2.266 . S
O34 C31 1.252 . S
O35 In26 2.326 . S
O35 C31 1.260 . S
C36 O27 1.240 . S
C36 O28 1.252 . S
O37 In26 2.294 . S
O37 C30 1.240 . S
O38 In26 2.326 . S
O38 C30 1.252 . S
In39 O40 2.294 . S
In39 O41 2.326 . S
In39 O45 2.266 . S
In39 O46 2.326 . S
In39 O47 2.266 . S
In39 O48 2.326 . S
In39 O50 2.294 . S
In39 O51 2.326 . S
O40 In39 2.294 . S
O40 C49 1.240 . S
O41 In39 2.326 . S
O41 C49 1.252 . S
C42 O45 1.252 . S
C42 O46 1.260 . S
C43 O50 1.240 . S
C43 O51 1.252 . S
C44 O47 1.252 . S
C44 O48 1.260 . S
O45 In39 2.266 . S
O45 C42 1.252 . S
O46 In39 2.326 . S
O46 C42 1.260 . S
O47 In39 2.266 . S
O47 C44 1.252 . S
O48 In39 2.326 . S
O48 C44 1.260 . S
C49 O40 1.240 . S
C49 O41 1.252 . S
O50 In39 2.294 . S
O50 C43 1.240 . S
O51 In39 2.326 . S
O51 C43 1.252 . S
In52 O53 2.294 . S
In52 O54 2.326 . S
In52 O58 2.266 . S
In52 O59 2.326 . S
In52 O60 2.266 . S
In52 O61 2.326 . S
In52 O63 2.294 . S
In52 O64 2.326 . S
O53 In52 2.294 . S
O53 C62 1.240 . S
O54 In52 2.326 . S
O54 C62 1.252 . S
C55 O58 1.252 . S
C55 O59 1.260 . S
C56 O63 1.240 . S
C56 O64 1.252 . S
C57 O60 1.252 . S
C57 O61 1.260 . S
O58 In52 2.266 . S
O58 C55 1.252 . S
O59 In52 2.326 . S
O59 C55 1.260 . S
O60 In52 2.266 . S
O60 C57 1.252 . S
O61 In52 2.326 . S
O61 C57 1.260 . S
C62 O53 1.240 . S
C62 O54 1.252 . S
O63 In52 2.294 . S
O63 C56 1.240 . S
O64 In52 2.326 . S
O64 C56 1.252 . S
In65 O66 2.294 . S
In65 O67 2.326 . S
In65 O71 2.266 . S
In65 O72 2.326 . S
In65 O73 2.266 . S
In65 O74 2.326 . S
In65 O76 2.294 . S
In65 O77 2.326 . S
O66 In65 2.294 . S
O66 C75 1.240 . S
O67 In65 2.326 . S
O67 C75 1.252 . S
C68 O71 1.252 . S
C68 O72 1.260 . S
C69 O76 1.240 . S
C69 O77 1.252 . S
C70 O73 1.252 . S
C70 O74 1.260 . S
O71 In65 2.266 . S
O71 C68 1.252 . S
O72 In65 2.326 . S
O72 C68 1.260 . S
O73 In65 2.266 . S
O73 C70 1.252 . S
O74 In65 2.326 . S
O74 C70 1.260 . S
C75 O66 1.240 . S
C75 O67 1.252 . S
O76 In65 2.294 . S
O76 C69 1.240 . S
O77 In65 2.326 . S
O77 C69 1.252 . S
In78 O79 2.294 . S
In78 O80 2.326 . S
In78 O84 2.266 . S
In78 O85 2.326 . S
In78 O86 2.266 . S
In78 O87 2.326 . S
In78 O89 2.294 . S
In78 O90 2.326 . S
O79 In78 2.294 . S
O79 C88 1.240 . S
O80 In78 2.326 . S
O80 C88 1.252 . S
C81 O84 1.252 . S
C81 O85 1.260 . S
C82 O89 1.240 . S
C82 O90 1.252 . S
C83 O86 1.252 . S
C83 O87 1.260 . S
O84 In78 2.266 . S
O84 C81 1.252 . S
O85 In78 2.326 . S
O85 C81 1.260 . S
O86 In78 2.266 . S
O86 C83 1.252 . S
O87 In78 2.326 . S
O87 C83 1.260 . S
C88 O79 1.240 . S
C88 O80 1.252 . S
O89 In78 2.294 . S
O89 C82 1.240 . S
O90 In78 2.326 . S
O90 C82 1.252 . S
In91 O92 2.295 . S
In91 O93 2.327 1_455 S
In91 O97 2.265 . S
In91 O98 2.325 . S
In91 O99 2.264 1_455 S
In91 O100 2.323 1_455 S
In91 O102 2.296 . S
In91 O103 2.329 . S
O92 In91 2.295 . S
O92 C101 1.240 1_455 S
O93 In91 2.327 1_655 S
O93 C101 1.252 . S
C94 O97 1.252 . S
C94 O98 1.260 . S
C95 O102 1.240 . S
C95 O103 1.252 . S
C96 O99 1.252 . S
C96 O100 1.260 . S
O97 In91 2.265 . S
O97 C94 1.252 . S
O98 In91 2.325 . S
O98 C94 1.260 . S
O99 In91 2.264 1_655 S
O99 C96 1.252 . S
O100 In91 2.323 1_655 S
O100 C96 1.260 . S
C101 O92 1.240 1_655 S
C101 O93 1.252 . S
O102 In91 2.296 . S
O102 C95 1.240 . S
O103 In91 2.329 . S
O103 C95 1.252 . S
In104 O105 2.294 . S
In104 O106 2.326 . S
In104 O110 2.266 . S
In104 O111 2.326 . S
In104 O112 2.266 1_545 S
In104 O113 2.326 1_545 S
In104 O115 2.294 . S
In104 O116 2.326 . S
O105 In104 2.294 . S
O105 C114 1.240 . S
O106 In104 2.326 . S
O106 C114 1.252 . S
C107 O110 1.252 . S
C107 O111 1.260 . S
C108 O115 1.240 . S
C108 O116 1.252 . S
C109 O112 1.252 . S
C109 O113 1.260 . S
O110 In104 2.266 . S
O110 C107 1.252 . S
O111 In104 2.326 . S
O111 C107 1.260 . S
O112 In104 2.266 1_565 S
O112 C109 1.252 . S
O113 In104 2.326 1_565 S
O113 C109 1.260 . S
C114 O105 1.240 . S
C114 O106 1.252 . S
O115 In104 2.294 . S
O115 C108 1.240 . S
O116 In104 2.326 . S
O116 C108 1.252 . S
In117 O118 2.294 . S
In117 O119 2.326 . S
In117 O123 2.266 . S
In117 O124 2.326 . S
In117 O125 2.266 . S
In117 O126 2.326 . S
In117 O128 2.294 . S
In117 O129 2.326 . S
O118 In117 2.294 . S
O118 C127 1.240 . S
O119 In117 2.326 . S
O119 C127 1.252 . S
C120 O123 1.252 . S
C120 O124 1.260 . S
C121 O128 1.240 . S
C121 O129 1.252 . S
C122 O125 1.252 . S
C122 O126 1.260 . S
O123 In117 2.266 . S
O123 C120 1.252 . S
O124 In117 2.326 . S
O124 C120 1.260 . S
O125 In117 2.266 . S
O125 C122 1.252 . S
O126 In117 2.326 . S
O126 C122 1.260 . S
C127 O118 1.240 . S
C127 O119 1.252 . S
O128 In117 2.294 . S
O128 C121 1.240 . S
O129 In117 2.326 . S
O129 C121 1.252 . S
In130 O131 2.294 . S
In130 O132 2.326 . S
In130 O136 2.266 . S
In130 O137 2.326 . S
In130 O138 2.266 . S
In130 O139 2.326 . S
In130 O141 2.294 . S
In130 O142 2.326 . S
O131 In130 2.294 . S
O131 C140 1.240 . S
O132 In130 2.326 . S
O132 C140 1.252 . S
C133 O136 1.252 . S
C133 O137 1.260 . S
C134 O141 1.240 . S
C134 O142 1.252 . S
C135 O138 1.252 . S
C135 O139 1.260 . S
O136 In130 2.266 . S
O136 C133 1.252 . S
O137 In130 2.326 . S
O137 C133 1.260 . S
O138 In130 2.266 . S
O138 C135 1.252 . S
O139 In130 2.326 . S
O139 C135 1.260 . S
C140 O131 1.240 . S
C140 O132 1.252 . S
O141 In130 2.294 . S
O141 C134 1.240 . S
O142 In130 2.326 . S
O142 C134 1.252 . S
In143 O144 2.296 . S
In143 O145 2.329 . S
In143 O149 2.264 1_554 S
In143 O150 2.322 1_554 S
In143 O151 2.266 1_554 S
In143 O152 2.325 1_554 S
In143 O154 2.294 . S
In143 O155 2.327 . S
O144 In143 2.296 . S
O144 C153 1.240 . S
O145 In143 2.329 . S
O145 C153 1.252 . S
C146 O149 1.252 . S
C146 O150 1.260 . S
C147 O154 1.240 . S
C147 O155 1.252 . S
C148 O151 1.252 . S
C148 O152 1.260 . S
O149 In143 2.264 1_556 S
O149 C146 1.252 . S
O150 In143 2.322 1_556 S
O150 C146 1.260 . S
O151 In143 2.266 1_556 S
O151 C148 1.252 . S
O152 In143 2.325 1_556 S
O152 C148 1.260 . S
C153 O144 1.240 . S
C153 O145 1.252 . S
O154 In143 2.294 . S
O154 C147 1.240 . S
O155 In143 2.327 . S
O155 C147 1.252 . S
In156 O157 2.294 . S
In156 O158 2.326 . S
In156 O162 2.266 . S
In156 O163 2.326 1_554 S
In156 O164 2.266 . S
In156 O165 2.326 . S
In156 O167 2.294 . S
In156 O168 2.326 . S
O157 In156 2.294 . S
O157 C166 1.240 . S
O158 In156 2.326 . S
O158 C166 1.252 . S
C159 O162 1.252 1_556 S
C159 O163 1.260 . S
C160 O167 1.240 . S
C160 O168 1.252 . S
C161 O164 1.252 . S
C161 O165 1.260 . S
O162 In156 2.266 . S
O162 C159 1.252 1_554 S
O163 In156 2.326 1_556 S
O163 C159 1.260 . S
O164 In156 2.266 . S
O164 C161 1.252 . S
O165 In156 2.326 . S
O165 C161 1.260 . S
C166 O157 1.240 . S
C166 O158 1.252 . S
O167 In156 2.294 . S
O167 C160 1.240 . S
O168 In156 2.326 . S
O168 C160 1.252 . S
In169 O170 2.294 . S
In169 O171 2.326 . S
In169 O175 2.266 . S
In169 O176 2.326 . S
In169 O177 2.266 . S
In169 O178 2.326 . S
In169 O180 2.294 . S
In169 O181 2.326 . S
O170 In169 2.294 . S
O170 C179 1.240 . S
O171 In169 2.326 . S
O171 C179 1.252 . S
C172 O175 1.252 . S
C172 O176 1.260 . S
C173 O180 1.240 . S
C173 O181 1.252 . S
C174 O177 1.252 . S
C174 O178 1.260 . S
O175 In169 2.266 . S
O175 C172 1.252 . S
O176 In169 2.326 . S
O176 C172 1.260 . S
O177 In169 2.266 . S
O177 C174 1.252 . S
O178 In169 2.326 . S
O178 C174 1.260 . S
C179 O170 1.240 . S
C179 O171 1.252 . S
O180 In169 2.294 . S
O180 C173 1.240 . S
O181 In169 2.326 . S
O181 C173 1.252 . S
In182 O183 2.294 . S
In182 O184 2.326 . S
In182 O188 2.266 . S
In182 O189 2.326 . S
In182 O190 2.266 . S
In182 O191 2.326 . S
In182 O193 2.294 . S
In182 O194 2.326 . S
O183 In182 2.294 . S
O183 C192 1.240 . S
O184 In182 2.326 . S
O184 C192 1.252 . S
C185 O188 1.252 . S
C185 O189 1.260 . S
C186 O193 1.240 . S
C186 O194 1.252 . S
C187 O190 1.252 . S
C187 O191 1.260 . S
O188 In182 2.266 . S
O188 C185 1.252 . S
O189 In182 2.326 . S
O189 C185 1.260 . S
O190 In182 2.266 . S
O190 C187 1.252 . S
O191 In182 2.326 . S
O191 C187 1.260 . S
C192 O183 1.240 . S
C192 O184 1.252 . S
O193 In182 2.294 . S
O193 C186 1.240 . S
O194 In182 2.326 . S
O194 C186 1.252 . S
In195 O196 2.294 . S
In195 O197 2.326 . S
In195 O201 2.266 . S
In195 O202 2.326 . S
In195 O203 2.266 . S
In195 O204 2.326 . S
In195 O206 2.294 . S
In195 O207 2.326 . S
O196 In195 2.294 . S
O196 C205 1.240 . S
O197 In195 2.326 . S
O197 C205 1.252 . S
C198 O201 1.252 . S
C198 O202 1.260 . S
C199 O206 1.240 . S
C199 O207 1.252 . S
C200 O203 1.252 . S
C200 O204 1.260 . S
O201 In195 2.266 . S
O201 C198 1.252 . S
O202 In195 2.326 . S
O202 C198 1.260 . S
O203 In195 2.266 . S
O203 C200 1.252 . S
O204 In195 2.326 . S
O204 C200 1.260 . S
C205 O196 1.240 . S
C205 O197 1.252 . S
O206 In195 2.294 . S
O206 C199 1.240 . S
O207 In195 2.326 . S
O207 C199 1.252 . S
In208 O209 2.294 . S
In208 O210 2.326 . S
In208 O214 2.266 . S
In208 O215 2.326 1_545 S
In208 O216 2.266 1_545 S
In208 O217 2.326 1_545 S
In208 O219 2.294 . S
In208 O220 2.326 . S
O209 In208 2.294 . S
O209 C218 1.240 . S
O210 In208 2.326 . S
O210 C218 1.252 . S
C211 O214 1.252 . S
C211 O215 1.260 1_545 S
C212 O219 1.240 . S
C212 O220 1.252 . S
C213 O216 1.252 . S
C213 O217 1.260 . S
O214 In208 2.266 . S
O214 C211 1.252 . S
O215 In208 2.326 1_565 S
O215 C211 1.260 1_565 S
O216 In208 2.266 1_565 S
O216 C213 1.252 . S
O217 In208 2.326 1_565 S
O217 C213 1.260 . S
C218 O209 1.240 . S
C218 O210 1.252 . S
O219 In208 2.294 . S
O219 C212 1.240 . S
O220 In208 2.326 . S
O220 C212 1.252 . S
In221 O222 2.294 . S
In221 O223 2.326 . S
In221 O227 2.266 . S
In221 O228 2.326 . S
In221 O229 2.266 . S
In221 O230 2.326 . S
In221 O232 2.294 . S
In221 O233 2.326 . S
O222 In221 2.294 . S
O222 C231 1.240 . S
O223 In221 2.326 . S
O223 C231 1.252 . S
C224 O227 1.252 . S
C224 O228 1.260 . S
C225 O232 1.240 . S
C225 O233 1.252 . S
C226 O229 1.252 . S
C226 O230 1.260 . S
O227 In221 2.266 . S
O227 C224 1.252 . S
O228 In221 2.326 . S
O228 C224 1.260 . S
O229 In221 2.266 . S
O229 C226 1.252 . S
O230 In221 2.326 . S
O230 C226 1.260 . S
C231 O222 1.240 . S
C231 O223 1.252 . S
O232 In221 2.294 . S
O232 C225 1.240 . S
O233 In221 2.326 . S
O233 C225 1.252 . S
In234 O235 2.294 . S
In234 O236 2.326 . S
In234 O240 2.266 . S
In234 O241 2.326 . S
In234 O242 2.266 . S
In234 O243 2.326 . S
In234 O245 2.294 . S
In234 O246 2.326 . S
O235 In234 2.294 . S
O235 C244 1.240 . S
O236 In234 2.326 . S
O236 C244 1.252 . S
C237 O240 1.252 . S
C237 O241 1.260 . S
C238 O245 1.240 . S
C238 O246 1.252 . S
C239 O242 1.252 . S
C239 O243 1.260 . S
O240 In234 2.266 . S
O240 C237 1.252 . S
O241 In234 2.326 . S
O241 C237 1.260 . S
O242 In234 2.266 . S
O242 C239 1.252 . S
O243 In234 2.326 . S
O243 C239 1.260 . S
C244 O235 1.240 . S
C244 O236 1.252 . S
O245 In234 2.294 . S
O245 C238 1.240 . S
O246 In234 2.326 . S
O246 C238 1.252 . S
In247 O248 2.294 . S
In247 O249 2.326 . S
In247 O253 2.266 . S
In247 O254 2.326 . S
In247 O255 2.266 . S
In247 O256 2.326 . S
In247 O258 2.294 . S
In247 O259 2.326 . S
O248 In247 2.294 . S
O248 C257 1.240 . S
O249 In247 2.326 . S
O249 C257 1.252 . S
C250 O253 1.252 . S
C250 O254 1.260 . S
C251 O258 1.240 . S
C251 O259 1.252 . S
C252 O255 1.252 . S
C252 O256 1.260 . S
O253 In247 2.266 . S
O253 C250 1.252 . S
O254 In247 2.326 . S
O254 C250 1.260 . S
O255 In247 2.266 . S
O255 C252 1.252 . S
O256 In247 2.326 . S
O256 C252 1.260 . S
C257 O248 1.240 . S
C257 O249 1.252 . S
O258 In247 2.294 . S
O258 C251 1.240 . S
O259 In247 2.326 . S
O259 C251 1.252 . S
In260 O261 2.294 . S
In260 O262 2.326 . S
In260 O266 2.266 . S
In260 O267 2.326 . S
In260 O268 2.266 . S
In260 O269 2.326 1_554 S
In260 O271 2.294 . S
In260 O272 2.326 . S
O261 In260 2.294 . S
O261 C270 1.240 . S
O262 In260 2.326 . S
O262 C270 1.252 . S
C263 O266 1.252 . S
C263 O267 1.260 . S
C264 O271 1.240 . S
C264 O272 1.252 . S
C265 O268 1.252 1_556 S
C265 O269 1.260 . S
O266 In260 2.266 . S
O266 C263 1.252 . S
O267 In260 2.326 . S
O267 C263 1.260 . S
O268 In260 2.266 . S
O268 C265 1.252 1_554 S
O269 In260 2.326 1_556 S
O269 C265 1.260 . S
C270 O261 1.240 . S
C270 O262 1.252 . S
O271 In260 2.294 . S
O271 C264 1.240 . S
O272 In260 2.326 . S
O272 C264 1.252 . S
In273 O274 2.294 . S
In273 O275 2.326 . S
In273 O279 2.266 . S
In273 O280 2.326 . S
In273 O281 2.266 . S
In273 O282 2.326 . S
In273 O284 2.294 . S
In273 O285 2.326 . S
O274 In273 2.294 . S
O274 C283 1.240 . S
O275 In273 2.326 . S
O275 C283 1.252 . S
C276 O279 1.252 . S
C276 O280 1.260 . S
C277 O284 1.240 . S
C277 O285 1.252 . S
C278 O281 1.252 . S
C278 O282 1.260 . S
O279 In273 2.266 . S
O279 C276 1.252 . S
O280 In273 2.326 . S
O280 C276 1.260 . S
O281 In273 2.266 . S
O281 C278 1.252 . S
O282 In273 2.326 . S
O282 C278 1.260 . S
C283 O274 1.240 . S
C283 O275 1.252 . S
O284 In273 2.294 . S
O284 C277 1.240 . S
O285 In273 2.326 . S
O285 C277 1.252 . S
In286 O287 2.294 . S
In286 O288 2.326 . S
In286 O292 2.266 . S
In286 O293 2.326 . S
In286 O294 2.266 . S
In286 O295 2.326 . S
In286 O297 2.294 . S
In286 O298 2.326 . S
O287 In286 2.294 . S
O287 C296 1.240 . S
O288 In286 2.326 . S
O288 C296 1.252 . S
C289 O292 1.252 . S
C289 O293 1.260 . S
C290 O297 1.240 . S
C290 O298 1.252 . S
C291 O294 1.252 . S
C291 O295 1.260 . S
O292 In286 2.266 . S
O292 C289 1.252 . S
O293 In286 2.326 . S
O293 C289 1.260 . S
O294 In286 2.266 . S
O294 C291 1.252 . S
O295 In286 2.326 . S
O295 C291 1.260 . S
C296 O287 1.240 . S
C296 O288 1.252 . S
O297 In286 2.294 . S
O297 C290 1.240 . S
O298 In286 2.326 . S
O298 C290 1.252 . S
In299 O300 2.294 . S
In299 O301 2.326 . S
In299 O305 2.266 . S
In299 O306 2.326 . S
In299 O307 2.266 . S
In299 O308 2.326 . S
In299 O310 2.294 . S
In299 O311 2.326 . S
O300 In299 2.294 . S
O300 C309 1.240 . S
O301 In299 2.326 . S
O301 C309 1.252 . S
C302 O305 1.252 . S
C302 O306 1.260 . S
C303 O310 1.240 . S
C303 O311 1.252 . S
C304 O307 1.252 . S
C304 O308 1.260 . S
O305 In299 2.266 . S
O305 C302 1.252 . S
O306 In299 2.326 . S
O306 C302 1.260 . S
O307 In299 2.266 . S
O307 C304 1.252 . S
O308 In299 2.326 . S
O308 C304 1.260 . S
C309 O300 1.240 . S
C309 O301 1.252 . S
O310 In299 2.294 . S
O310 C303 1.240 . S
O311 In299 2.326 . S
O311 C303 1.252 . S
Tb312 C321 2.764 . S
Tb312 O322 2.325 . S
Tb312 O325 2.303 . S
Tb312 O329 2.322 . S
Tb312 O330 2.349 . S
Tb312 O333 2.415 . S
Tb312 O334 2.399 . S
Tb313 O323 2.322 . S
Tb313 O324 2.349 . S
Tb313 O326 2.415 1_455 S
Tb313 O327 2.399 1_455 S
Tb313 O328 2.325 . S
Tb313 O331 2.303 . S
Tb313 C342 2.764 1_455 S
C314 O330 1.261 . S
C314 O331 1.257 . S
C315 C318 1.358 . S
C315 C319 1.332 . S
C315 C321 1.504 . S
C316 C317 1.373 . S
C316 C320 1.308 . S
C317 C316 1.373 . S
C317 C318 1.429 . S
C317 H344 0.932 . S
C318 C315 1.358 . S
C318 C317 1.429 . S
C318 H345 0.930 . S
C319 C315 1.332 . S
C319 C320 1.394 . S
C319 H346 0.932 . S
C320 C316 1.308 . S
C320 C319 1.394 . S
C320 H347 0.929 . S
C321 Tb312 2.764 . S
C321 C315 1.504 . S
C321 O333 1.239 . S
C321 O334 1.263 . S
O322 Tb312 2.325 . S
O322 C332 1.236 . S
O323 Tb313 2.322 . S
O323 C332 1.257 . S
O324 Tb313 2.349 . S
O324 C335 1.261 . S
O325 Tb312 2.303 . S
O325 C335 1.257 . S
O326 Tb313 2.415 1_655 S
O326 C342 1.239 . S
O327 Tb313 2.399 1_655 S
O327 C342 1.263 . S
O328 Tb313 2.325 . S
O328 C343 1.236 . S
O329 Tb312 2.322 . S
O329 C343 1.257 . S
O330 Tb312 2.349 . S
O330 C314 1.261 . S
O331 Tb313 2.303 . S
O331 C314 1.257 . S
C332 O322 1.236 . S
C332 O323 1.257 . S
O333 Tb312 2.415 . S
O333 C321 1.239 . S
O334 Tb312 2.399 . S
O334 C321 1.263 . S
C335 O324 1.261 . S
C335 O325 1.257 . S
C336 C339 1.358 1_554 S
C336 C340 1.332 . S
C336 C342 1.504 . S
C337 C338 1.373 1_554 S
C337 C341 1.308 . S
C338 C337 1.373 1_556 S
C338 C339 1.429 . S
C338 H348 0.932 . S
C339 C336 1.358 1_556 S
C339 C338 1.429 . S
C339 H349 0.930 . S
C340 C336 1.332 . S
C340 C341 1.394 . S
C340 H350 0.932 . S
C341 C337 1.308 . S
C341 C340 1.394 . S
C341 H351 0.929 . S
C342 Tb313 2.764 1_655 S
C342 O326 1.239 . S
C342 O327 1.263 . S
C342 C336 1.504 . S
C343 O328 1.236 . S
C343 O329 1.257 . S
H344 C317 0.932 . S
H345 C318 0.930 . S
H346 C319 0.932 . S
H347 C320 0.929 . S
H348 C338 0.932 . S
H349 C339 0.930 . S
H350 C340 0.932 . S
H351 C341 0.929 . S
Tb352 C361 2.764 . S
Tb352 O362 2.325 . S
Tb352 O365 2.303 . S
Tb352 O369 2.322 . S
Tb352 O370 2.349 . S
Tb352 O373 2.415 . S
Tb352 O374 2.399 . S
Tb353 O363 2.322 . S
Tb353 O364 2.349 . S
Tb353 O366 2.415 . S
Tb353 O367 2.399 . S
Tb353 O368 2.325 . S
Tb353 O371 2.303 . S
Tb353 C382 2.764 . S
C354 O370 1.261 . S
C354 O371 1.257 . S
C355 C358 1.358 . S
C355 C359 1.332 . S
C355 C361 1.504 . S
C356 C357 1.373 . S
C356 C360 1.308 . S
C357 C356 1.373 . S
C357 C358 1.429 . S
C357 H384 0.932 . S
C358 C355 1.358 . S
C358 C357 1.429 . S
C358 H385 0.930 . S
C359 C355 1.332 . S
C359 C360 1.394 . S
C359 H386 0.932 . S
C360 C356 1.308 . S
C360 C359 1.394 . S
C360 H387 0.929 . S
C361 Tb352 2.764 . S
C361 C355 1.504 . S
C361 O373 1.239 . S
C361 O374 1.263 . S
O362 Tb352 2.325 . S
O362 C372 1.236 . S
O363 Tb353 2.322 . S
O363 C372 1.257 . S
O364 Tb353 2.349 . S
O364 C375 1.261 . S
O365 Tb352 2.303 . S
O365 C375 1.257 . S
O366 Tb353 2.415 . S
O366 C382 1.239 . S
O367 Tb353 2.399 . S
O367 C382 1.263 . S
O368 Tb353 2.325 . S
O368 C383 1.236 . S
O369 Tb352 2.322 . S
O369 C383 1.257 . S
O370 Tb352 2.349 . S
O370 C354 1.261 . S
O371 Tb353 2.303 . S
O371 C354 1.257 . S
C372 O362 1.236 . S
C372 O363 1.257 . S
O373 Tb352 2.415 . S
O373 C361 1.239 . S
O374 Tb352 2.399 . S
O374 C361 1.263 . S
C375 O364 1.261 . S
C375 O365 1.257 . S
C376 C379 1.358 . S
C376 C380 1.332 . S
C376 C382 1.504 . S
C377 C378 1.373 . S
C377 C381 1.308 . S
C378 C377 1.373 . S
C378 C379 1.429 . S
C378 H388 0.932 . S
C379 C376 1.358 . S
C379 C378 1.429 . S
C379 H389 0.930 . S
C380 C376 1.332 . S
C380 C381 1.394 . S
C380 H390 0.932 . S
C381 C377 1.308 . S
C381 C380 1.394 . S
C381 H391 0.929 . S
C382 Tb353 2.764 . S
C382 O366 1.239 . S
C382 O367 1.263 . S
C382 C376 1.504 . S
C383 O368 1.236 . S
C383 O369 1.257 . S
H384 C357 0.932 . S
H385 C358 0.930 . S
H386 C359 0.932 . S
H387 C360 0.929 . S
H388 C378 0.932 . S
H389 C379 0.930 . S
H390 C380 0.932 . S
H391 C381 0.929 . S
Tb392 C401 2.764 . S
Tb392 O402 2.325 . S
Tb392 O405 2.303 . S
Tb392 O409 2.322 1_545 S
Tb392 O410 2.349 . S
Tb392 O413 2.415 . S
Tb392 O414 2.399 . S
Tb393 O403 2.322 . S
Tb393 O404 2.349 . S
Tb393 O406 2.415 . S
Tb393 O407 2.399 . S
Tb393 O408 2.325 1_545 S
Tb393 O411 2.303 . S
Tb393 C422 2.764 . S
C394 O410 1.261 . S
C394 O411 1.257 . S
C395 C398 1.358 . S
C395 C399 1.332 . S
C395 C401 1.504 . S
C396 C397 1.373 . S
C396 C400 1.308 . S
C397 C396 1.373 . S
C397 C398 1.429 . S
C397 H424 0.932 . S
C398 C395 1.358 . S
C398 C397 1.429 . S
C398 H425 0.930 . S
C399 C395 1.332 . S
C399 C400 1.394 . S
C399 H426 0.932 . S
C400 C396 1.308 . S
C400 C399 1.394 . S
C400 H427 0.929 . S
C401 Tb392 2.764 . S
C401 C395 1.504 . S
C401 O413 1.239 . S
C401 O414 1.263 . S
O402 Tb392 2.325 . S
O402 C412 1.236 . S
O403 Tb393 2.322 . S
O403 C412 1.257 . S
O404 Tb393 2.349 . S
O404 C415 1.261 . S
O405 Tb392 2.303 . S
O405 C415 1.257 . S
O406 Tb393 2.415 . S
O406 C422 1.239 . S
O407 Tb393 2.399 . S
O407 C422 1.263 . S
O408 Tb393 2.325 1_565 S
O408 C423 1.236 . S
O409 Tb392 2.322 1_565 S
O409 C423 1.257 . S
O410 Tb392 2.349 . S
O410 C394 1.261 . S
O411 Tb393 2.303 . S
O411 C394 1.257 . S
C412 O402 1.236 . S
C412 O403 1.257 . S
O413 Tb392 2.415 . S
O413 C401 1.239 . S
O414 Tb392 2.399 . S
O414 C401 1.263 . S
C415 O404 1.261 . S
C415 O405 1.257 . S
C416 C419 1.358 . S
C416 C420 1.332 . S
C416 C422 1.504 1_565 S
C417 C418 1.373 . S
C417 C421 1.308 . S
C418 C417 1.373 . S
C418 C419 1.429 . S
C418 H428 0.932 . S
C419 C416 1.358 . S
C419 C418 1.429 . S
C419 H429 0.930 1_565 S
C420 C416 1.332 . S
C420 C421 1.394 . S
C420 H430 0.932 . S
C421 C417 1.308 . S
C421 C420 1.394 . S
C421 H431 0.929 . S
C422 Tb393 2.764 . S
C422 O406 1.239 . S
C422 O407 1.263 . S
C422 C416 1.504 1_545 S
C423 O408 1.236 . S
C423 O409 1.257 . S
H424 C397 0.932 . S
H425 C398 0.930 . S
H426 C399 0.932 . S
H427 C400 0.929 . S
H428 C418 0.932 . S
H429 C419 0.930 1_545 S
H430 C420 0.932 . S
H431 C421 0.929 . S
Tb432 C441 2.764 . S
Tb432 O442 2.325 . S
Tb432 O445 2.303 . S
Tb432 O449 2.322 . S
Tb432 O450 2.349 . S
Tb432 O453 2.415 . S
Tb432 O454 2.399 . S
Tb433 O443 2.322 . S
Tb433 O444 2.349 . S
Tb433 O446 2.415 . S
Tb433 O447 2.399 . S
Tb433 O448 2.325 . S
Tb433 O451 2.303 . S
Tb433 C462 2.764 . S
C434 O450 1.261 . S
C434 O451 1.257 . S
C435 C438 1.358 . S
C435 C439 1.332 . S
C435 C441 1.504 . S
C436 C437 1.373 . S
C436 C440 1.308 . S
C437 C436 1.373 . S
C437 C438 1.429 . S
C437 H464 0.932 . S
C438 C435 1.358 . S
C438 C437 1.429 . S
C438 H465 0.930 . S
C439 C435 1.332 . S
C439 C440 1.394 . S
C439 H466 0.932 . S
C440 C436 1.308 . S
C440 C439 1.394 . S
C440 H467 0.929 . S
C441 Tb432 2.764 . S
C441 C435 1.504 . S
C441 O453 1.239 . S
C441 O454 1.263 . S
O442 Tb432 2.325 . S
O442 C452 1.236 . S
O443 Tb433 2.322 . S
O443 C452 1.257 . S
O444 Tb433 2.349 . S
O444 C455 1.261 . S
O445 Tb432 2.303 . S
O445 C455 1.257 . S
O446 Tb433 2.415 . S
O446 C462 1.239 . S
O447 Tb433 2.399 . S
O447 C462 1.263 . S
O448 Tb433 2.325 . S
O448 C463 1.236 . S
O449 Tb432 2.322 . S
O449 C463 1.257 . S
O450 Tb432 2.349 . S
O450 C434 1.261 . S
O451 Tb433 2.303 . S
O451 C434 1.257 . S
C452 O442 1.236 . S
C452 O443 1.257 . S
O453 Tb432 2.415 . S
O453 C441 1.239 . S
O454 Tb432 2.399 . S
O454 C441 1.263 . S
C455 O444 1.261 . S
C455 O445 1.257 . S
C456 C459 1.358 . S
C456 C460 1.332 . S
C456 C462 1.504 . S
C457 C458 1.373 . S
C457 C461 1.308 . S
C458 C457 1.373 . S
C458 C459 1.429 . S
C458 H468 0.932 . S
C459 C456 1.358 . S
C459 C458 1.429 . S
C459 H469 0.930 . S
C460 C456 1.332 . S
C460 C461 1.394 . S
C460 H470 0.932 . S
C461 C457 1.308 . S
C461 C460 1.394 . S
C461 H471 0.929 . S
C462 Tb433 2.764 . S
C462 O446 1.239 . S
C462 O447 1.263 . S
C462 C456 1.504 . S
C463 O448 1.236 . S
C463 O449 1.257 . S
H464 C437 0.932 . S
H465 C438 0.930 . S
H466 C439 0.932 . S
H467 C440 0.929 . S
H468 C458 0.932 . S
H469 C459 0.930 . S
H470 C460 0.932 . S
H471 C461 0.929 . S
Tb472 C481 2.764 . S
Tb472 O482 2.325 . S
Tb472 O485 2.303 . S
Tb472 O489 2.322 . S
Tb472 O490 2.349 . S
Tb472 O493 2.415 . S
Tb472 O494 2.399 . S
Tb473 O483 2.322 1_545 S
Tb473 O484 2.349 . S
Tb473 O486 2.415 . S
Tb473 O487 2.399 . S
Tb473 O488 2.325 . S
Tb473 O491 2.303 . S
Tb473 C502 2.764 . S
C474 O490 1.261 . S
C474 O491 1.257 . S
C475 C478 1.358 . S
C475 C479 1.332 . S
C475 C481 1.504 . S
C476 C477 1.373 . S
C476 C480 1.308 . S
C477 C476 1.373 . S
C477 C478 1.429 . S
C477 H504 0.932 . S
C478 C475 1.358 . S
C478 C477 1.429 . S
C478 H505 0.930 . S
C479 C475 1.332 . S
C479 C480 1.394 . S
C479 H506 0.932 . S
C480 C476 1.308 . S
C480 C479 1.394 . S
C480 H507 0.929 . S
C481 Tb472 2.764 . S
C481 C475 1.504 . S
C481 O493 1.239 . S
C481 O494 1.263 . S
O482 Tb472 2.325 . S
O482 C492 1.236 1_545 S
O483 Tb473 2.322 1_565 S
O483 C492 1.257 . S
O484 Tb473 2.349 . S
O484 C495 1.261 . S
O485 Tb472 2.303 . S
O485 C495 1.257 . S
O486 Tb473 2.415 . S
O486 C502 1.239 . S
O487 Tb473 2.399 . S
O487 C502 1.263 . S
O488 Tb473 2.325 . S
O488 C503 1.236 . S
O489 Tb472 2.322 . S
O489 C503 1.257 . S
O490 Tb472 2.349 . S
O490 C474 1.261 . S
O491 Tb473 2.303 . S
O491 C474 1.257 . S
C492 O482 1.236 1_565 S
C492 O483 1.257 . S
O493 Tb472 2.415 . S
O493 C481 1.239 . S
O494 Tb472 2.399 . S
O494 C481 1.263 . S
C495 O484 1.261 . S
C495 O485 1.257 . S
C496 C499 1.358 . S
C496 C500 1.332 1_455 S
C496 C502 1.504 . S
C497 C498 1.373 . S
C497 C501 1.308 1_455 S
C498 C497 1.373 . S
C498 C499 1.429 . S
C498 H508 0.932 . S
C499 C496 1.358 . S
C499 C498 1.429 . S
C499 H509 0.930 . S
C500 C496 1.332 1_655 S
C500 C501 1.394 . S
C500 H510 0.932 . S
C501 C497 1.308 1_655 S
C501 C500 1.394 . S
C501 H511 0.929 . S
C502 Tb473 2.764 . S
C502 O486 1.239 . S
C502 O487 1.263 . S
C502 C496 1.504 . S
C503 O488 1.236 . S
C503 O489 1.257 . S
H504 C477 0.932 . S
H505 C478 0.930 . S
H506 C479 0.932 . S
H507 C480 0.929 . S
H508 C498 0.932 . S
H509 C499 0.930 . S
H510 C500 0.932 . S
H511 C501 0.929 . S
Tb512 C521 2.764 . S
Tb512 O522 2.325 . S
Tb512 O525 2.303 . S
Tb512 O529 2.322 . S
Tb512 O530 2.349 . S
Tb512 O533 2.415 . S
Tb512 O534 2.399 . S
Tb513 O523 2.322 . S
Tb513 O524 2.349 . S
Tb513 O526 2.415 . S
Tb513 O527 2.399 . S
Tb513 O528 2.325 . S
Tb513 O531 2.303 . S
Tb513 C542 2.764 . S
C514 O530 1.261 . S
C514 O531 1.257 . S
C515 C518 1.358 . S
C515 C519 1.332 . S
C515 C521 1.504 . S
C516 C517 1.373 . S
C516 C520 1.308 . S
C517 C516 1.373 . S
C517 C518 1.429 . S
C517 H544 0.932 . S
C518 C515 1.358 . S
C518 C517 1.429 . S
C518 H545 0.930 . S
C519 C515 1.332 . S
C519 C520 1.394 . S
C519 H546 0.932 . S
C520 C516 1.308 . S
C520 C519 1.394 . S
C520 H547 0.929 . S
C521 Tb512 2.764 . S
C521 C515 1.504 . S
C521 O533 1.239 . S
C521 O534 1.263 . S
O522 Tb512 2.325 . S
O522 C532 1.236 . S
O523 Tb513 2.322 . S
O523 C532 1.257 . S
O524 Tb513 2.349 . S
O524 C535 1.261 . S
O525 Tb512 2.303 . S
O525 C535 1.257 . S
O526 Tb513 2.415 . S
O526 C542 1.239 . S
O527 Tb513 2.399 . S
O527 C542 1.263 . S
O528 Tb513 2.325 . S
O528 C543 1.236 . S
O529 Tb512 2.322 . S
O529 C543 1.257 . S
O530 Tb512 2.349 . S
O530 C514 1.261 . S
O531 Tb513 2.303 . S
O531 C514 1.257 . S
C532 O522 1.236 . S
C532 O523 1.257 . S
O533 Tb512 2.415 . S
O533 C521 1.239 . S
O534 Tb512 2.399 . S
O534 C521 1.263 . S
C535 O524 1.261 . S
C535 O525 1.257 . S
C536 C539 1.358 . S
C536 C540 1.332 . S
C536 C542 1.504 . S
C537 C538 1.373 . S
C537 C541 1.308 . S
C538 C537 1.373 . S
C538 C539 1.429 . S
C538 H548 0.932 . S
C539 C536 1.358 . S
C539 C538 1.429 . S
C539 H549 0.930 . S
C540 C536 1.332 . S
C540 C541 1.394 . S
C540 H550 0.932 . S
C541 C537 1.308 . S
C541 C540 1.394 . S
C541 H551 0.929 . S
C542 Tb513 2.764 . S
C542 O526 1.239 . S
C542 O527 1.263 . S
C542 C536 1.504 . S
C543 O528 1.236 . S
C543 O529 1.257 . S
H544 C517 0.932 . S
H545 C518 0.930 . S
H546 C519 0.932 . S
H547 C520 0.929 . S
H548 C538 0.932 . S
H549 C539 0.930 . S
H550 C540 0.932 . S
H551 C541 0.929 . S
Tb552 C561 2.764 . S
Tb552 O562 2.325 . S
Tb552 O565 2.303 . S
Tb552 O569 2.322 . S
Tb552 O570 2.349 . S
Tb552 O573 2.415 . S
Tb552 O574 2.399 . S
Tb553 O563 2.321 . S
Tb553 O564 2.349 1_554 S
Tb553 O566 2.416 1_554 S
Tb553 O567 2.401 1_554 S
Tb553 O568 2.325 1_554 S
Tb553 O571 2.302 . S
Tb553 C582 2.766 1_554 S
C554 O570 1.261 . S
C554 O571 1.257 . S
C555 C558 1.358 . S
C555 C559 1.332 . S
C555 C561 1.504 . S
C556 C557 1.373 . S
C556 C560 1.308 . S
C557 C556 1.373 . S
C557 C558 1.429 . S
C557 H584 0.932 . S
C558 C555 1.358 . S
C558 C557 1.429 . S
C558 H585 0.930 . S
C559 C555 1.332 . S
C559 C560 1.394 . S
C559 H586 0.932 . S
C560 C556 1.308 . S
C560 C559 1.394 . S
C560 H587 0.929 . S
C561 Tb552 2.764 . S
C561 C555 1.504 . S
C561 O573 1.239 . S
C561 O574 1.263 . S
O562 Tb552 2.325 . S
O562 C572 1.236 . S
O563 Tb553 2.321 . S
O563 C572 1.257 . S
O564 Tb553 2.349 1_556 S
O564 C575 1.261 1_556 S
O565 Tb552 2.303 . S
O565 C575 1.257 . S
O566 Tb553 2.416 1_556 S
O566 C582 1.239 . S
O567 Tb553 2.401 1_556 S
O567 C582 1.263 . S
O568 Tb553 2.325 1_556 S
O568 C583 1.236 1_556 S
O569 Tb552 2.322 . S
O569 C583 1.257 . S
O570 Tb552 2.349 . S
O570 C554 1.261 . S
O571 Tb553 2.302 . S
O571 C554 1.257 . S
C572 O562 1.236 . S
C572 O563 1.257 . S
O573 Tb552 2.415 . S
O573 C561 1.239 . S
O574 Tb552 2.399 . S
O574 C561 1.263 . S
C575 O564 1.261 1_554 S
C575 O565 1.257 . S
C576 C579 1.358 . S
C576 C580 1.332 . S
C576 C582 1.504 . S
C577 C578 1.373 . S
C577 C581 1.308 . S
C578 C577 1.373 . S
C578 C579 1.429 . S
C578 H588 0.932 . S
C579 C576 1.358 . S
C579 C578 1.429 . S
C579 H589 0.930 . S
C580 C576 1.332 . S
C580 C581 1.394 . S
C580 H590 0.932 . S
C581 C577 1.308 . S
C581 C580 1.394 . S
C581 H591 0.929 . S
C582 Tb553 2.766 1_556 S
C582 O566 1.239 . S
C582 O567 1.263 . S
C582 C576 1.504 . S
C583 O568 1.236 1_554 S
C583 O569 1.257 . S
H584 C557 0.932 . S
H585 C558 0.930 . S
H586 C559 0.932 . S
H587 C560 0.929 . S
H588 C578 0.932 . S
H589 C579 0.930 . S
H590 C580 0.932 . S
H591 C581 0.929 . S
Tb592 C601 2.764 . S
Tb592 O602 2.325 . S
Tb592 O605 2.303 . S
Tb592 O609 2.322 . S
Tb592 O610 2.349 . S
Tb592 O613 2.415 . S
Tb592 O614 2.399 . S
Tb593 O603 2.322 . S
Tb593 O604 2.349 . S
Tb593 O606 2.415 . S
Tb593 O607 2.399 . S
Tb593 O608 2.325 . S
Tb593 O611 2.303 . S
Tb593 C622 2.764 . S
C594 O610 1.261 . S
C594 O611 1.257 . S
C595 C598 1.358 . S
C595 C599 1.332 . S
C595 C601 1.504 . S
C596 C597 1.373 . S
C596 C600 1.308 . S
C597 C596 1.373 . S
C597 C598 1.429 . S
C597 H624 0.932 . S
C598 C595 1.358 . S
C598 C597 1.429 . S
C598 H625 0.930 . S
C599 C595 1.332 . S
C599 C600 1.394 . S
C599 H626 0.932 . S
C600 C596 1.308 . S
C600 C599 1.394 . S
C600 H627 0.929 . S
C601 Tb592 2.764 . S
C601 C595 1.504 . S
C601 O613 1.239 . S
C601 O614 1.263 . S
O602 Tb592 2.325 . S
O602 C612 1.236 . S
O603 Tb593 2.322 . S
O603 C612 1.257 . S
O604 Tb593 2.349 . S
O604 C615 1.261 . S
O605 Tb592 2.303 . S
O605 C615 1.257 . S
O606 Tb593 2.415 . S
O606 C622 1.239 . S
O607 Tb593 2.399 . S
O607 C622 1.263 . S
O608 Tb593 2.325 . S
O608 C623 1.236 . S
O609 Tb592 2.322 . S
O609 C623 1.257 . S
O610 Tb592 2.349 . S
O610 C594 1.261 . S
O611 Tb593 2.303 . S
O611 C594 1.257 . S
C612 O602 1.236 . S
C612 O603 1.257 . S
O613 Tb592 2.415 . S
O613 C601 1.239 . S
O614 Tb592 2.399 . S
O614 C601 1.263 . S
C615 O604 1.261 . S
C615 O605 1.257 . S
C616 C619 1.358 . S
C616 C620 1.332 . S
C616 C622 1.504 . S
C617 C618 1.373 . S
C617 C621 1.308 . S
C618 C617 1.373 . S
C618 C619 1.429 . S
C618 H628 0.932 . S
C619 C616 1.358 . S
C619 C618 1.429 . S
C619 H629 0.930 . S
C620 C616 1.332 . S
C620 C621 1.394 . S
C620 H630 0.932 . S
C621 C617 1.308 . S
C621 C620 1.394 . S
C621 H631 0.929 . S
C622 Tb593 2.764 . S
C622 O606 1.239 . S
C622 O607 1.263 . S
C622 C616 1.504 . S
C623 O608 1.236 . S
C623 O609 1.257 . S
H624 C597 0.932 . S
H625 C598 0.930 . S
H626 C599 0.932 . S
H627 C600 0.929 . S
H628 C618 0.932 . S
H629 C619 0.930 . S
H630 C620 0.932 . S
H631 C621 0.929 . S
Tb632 C641 2.764 . S
Tb632 O642 2.325 . S
Tb632 O645 2.303 . S
Tb632 O649 2.322 . S
Tb632 O650 2.349 . S
Tb632 O653 2.415 . S
Tb632 O654 2.399 . S
Tb633 O643 2.322 1_556 S
Tb633 O644 2.349 1_556 S
Tb633 O646 2.415 . S
Tb633 O647 2.399 . S
Tb633 O648 2.325 . S
Tb633 O651 2.303 1_556 S
Tb633 C662 2.764 . S
C634 O650 1.261 . S
C634 O651 1.257 . S
C635 C638 1.358 . S
C635 C639 1.332 . S
C635 C641 1.504 . S
C636 C637 1.373 . S
C636 C640 1.308 . S
C637 C636 1.373 . S
C637 C638 1.429 . S
C637 H664 0.932 . S
C638 C635 1.358 . S
C638 C637 1.429 . S
C638 H665 0.930 . S
C639 C635 1.332 . S
C639 C640 1.394 . S
C639 H666 0.932 . S
C640 C636 1.308 . S
C640 C639 1.394 . S
C640 H667 0.929 . S
C641 Tb632 2.764 . S
C641 C635 1.504 . S
C641 O653 1.239 . S
C641 O654 1.263 . S
O642 Tb632 2.325 . S
O642 C652 1.236 . S
O643 Tb633 2.322 1_554 S
O643 C652 1.257 . S
O644 Tb633 2.349 1_554 S
O644 C655 1.261 . S
O645 Tb632 2.303 . S
O645 C655 1.257 . S
O646 Tb633 2.415 . S
O646 C662 1.239 . S
O647 Tb633 2.399 . S
O647 C662 1.263 . S
O648 Tb633 2.325 . S
O648 C663 1.236 1_556 S
O649 Tb632 2.322 . S
O649 C663 1.257 . S
O650 Tb632 2.349 . S
O650 C634 1.261 . S
O651 Tb633 2.303 1_554 S
O651 C634 1.257 . S
C652 O642 1.236 . S
C652 O643 1.257 . S
O653 Tb632 2.415 . S
O653 C641 1.239 . S
O654 Tb632 2.399 . S
O654 C641 1.263 . S
C655 O644 1.261 . S
C655 O645 1.257 . S
C656 C659 1.358 . S
C656 C660 1.332 . S
C656 C662 1.504 . S
C657 C658 1.373 . S
C657 C661 1.308 . S
C658 C657 1.373 . S
C658 C659 1.429 . S
C658 H668 0.932 . S
C659 C656 1.358 . S
C659 C658 1.429 . S
C659 H669 0.930 . S
C660 C656 1.332 . S
C660 C661 1.394 . S
C660 H670 0.932 . S
C661 C657 1.308 . S
C661 C660 1.394 . S
C661 H671 0.929 . S
C662 Tb633 2.764 . S
C662 O646 1.239 . S
C662 O647 1.263 . S
C662 C656 1.504 . S
C663 O648 1.236 1_554 S
C663 O649 1.257 . S
H664 C637 0.932 . S
H665 C638 0.930 . S
H666 C639 0.932 . S
H667 C640 0.929 . S
H668 C658 0.932 . S
H669 C659 0.930 . S
H670 C660 0.932 . S
H671 C661 0.929 . S
Tb672 C681 2.764 . S
Tb672 O682 2.325 . S
Tb672 O685 2.303 . S
Tb672 O689 2.322 . S
Tb672 O690 2.349 . S
Tb672 O693 2.415 . S
Tb672 O694 2.399 . S
Tb673 O683 2.322 . S
Tb673 O684 2.349 . S
Tb673 O686 2.415 . S
Tb673 O687 2.399 . S
Tb673 O688 2.325 . S
Tb673 O691 2.303 . S
Tb673 C702 2.764 . S
C674 O690 1.261 . S
C674 O691 1.257 . S
C675 C678 1.358 . S
C675 C679 1.332 . S
C675 C681 1.504 . S
C676 C677 1.373 . S
C676 C680 1.308 . S
C677 C676 1.373 . S
C677 C678 1.429 . S
C677 H704 0.932 . S
C678 C675 1.358 . S
C678 C677 1.429 . S
C678 H705 0.930 . S
C679 C675 1.332 . S
C679 C680 1.394 . S
C679 H706 0.932 . S
C680 C676 1.308 . S
C680 C679 1.394 . S
C680 H707 0.929 . S
C681 Tb672 2.764 . S
C681 C675 1.504 . S
C681 O693 1.239 . S
C681 O694 1.263 . S
O682 Tb672 2.325 . S
O682 C692 1.236 . S
O683 Tb673 2.322 . S
O683 C692 1.257 . S
O684 Tb673 2.349 . S
O684 C695 1.261 . S
O685 Tb672 2.303 . S
O685 C695 1.257 . S
O686 Tb673 2.415 . S
O686 C702 1.239 . S
O687 Tb673 2.399 . S
O687 C702 1.263 . S
O688 Tb673 2.325 . S
O688 C703 1.236 . S
O689 Tb672 2.322 . S
O689 C703 1.257 . S
O690 Tb672 2.349 . S
O690 C674 1.261 . S
O691 Tb673 2.303 . S
O691 C674 1.257 . S
C692 O682 1.236 . S
C692 O683 1.257 . S
O693 Tb672 2.415 . S
O693 C681 1.239 . S
O694 Tb672 2.399 . S
O694 C681 1.263 . S
C695 O684 1.261 . S
C695 O685 1.257 . S
C696 C699 1.358 . S
C696 C700 1.332 . S
C696 C702 1.504 . S
C697 C698 1.373 . S
C697 C701 1.308 . S
C698 C697 1.373 . S
C698 C699 1.429 . S
C698 H708 0.932 . S
C699 C696 1.358 . S
C699 C698 1.429 . S
C699 H709 0.930 . S
C700 C696 1.332 . S
C700 C701 1.394 . S
C700 H710 0.932 . S
C701 C697 1.308 . S
C701 C700 1.394 . S
C701 H711 0.929 . S
C702 Tb673 2.764 . S
C702 O686 1.239 . S
C702 O687 1.263 . S
C702 C696 1.504 . S
C703 O688 1.236 . S
C703 O689 1.257 . S
H704 C677 0.932 . S
H705 C678 0.930 . S
H706 C679 0.932 . S
H707 C680 0.929 . S
H708 C698 0.932 . S
H709 C699 0.930 . S
H710 C700 0.932 . S
H711 C701 0.929 . S
Tb712 C721 2.764 . S
Tb712 O722 2.325 . S
Tb712 O725 2.303 . S
Tb712 O729 2.322 . S
Tb712 O730 2.349 . S
Tb712 O733 2.415 . S
Tb712 O734 2.399 . S
Tb713 O723 2.322 . S
Tb713 O724 2.349 1_455 S
Tb713 O726 2.415 . S
Tb713 O727 2.399 . S
Tb713 O728 2.325 . S
Tb713 O731 2.303 . S
Tb713 C742 2.764 . S
C714 O730 1.261 . S
C714 O731 1.257 . S
C715 C718 1.358 . S
C715 C719 1.332 1_455 S
C715 C721 1.504 . S
C716 C717 1.373 1_655 S
C716 C720 1.308 . S
C717 C716 1.373 1_455 S
C717 C718 1.429 . S
C717 H744 0.932 . S
C718 C715 1.358 . S
C718 C717 1.429 . S
C718 H745 0.930 . S
C719 C715 1.332 1_655 S
C719 C720 1.394 . S
C719 H746 0.932 . S
C720 C716 1.308 . S
C720 C719 1.394 . S
C720 H747 0.929 . S
C721 Tb712 2.764 . S
C721 C715 1.504 . S
C721 O733 1.239 . S
C721 O734 1.263 . S
O722 Tb712 2.325 . S
O722 C732 1.236 . S
O723 Tb713 2.322 . S
O723 C732 1.257 . S
O724 Tb713 2.349 1_655 S
O724 C735 1.261 . S
O725 Tb712 2.303 . S
O725 C735 1.257 1_455 S
O726 Tb713 2.415 . S
O726 C742 1.239 . S
O727 Tb713 2.399 . S
O727 C742 1.263 . S
O728 Tb713 2.325 . S
O728 C743 1.236 . S
O729 Tb712 2.322 . S
O729 C743 1.257 . S
O730 Tb712 2.349 . S
O730 C714 1.261 . S
O731 Tb713 2.303 . S
O731 C714 1.257 . S
C732 O722 1.236 . S
C732 O723 1.257 . S
O733 Tb712 2.415 . S
O733 C721 1.239 . S
O734 Tb712 2.399 . S
O734 C721 1.263 . S
C735 O724 1.261 . S
C735 O725 1.257 1_655 S
C736 C739 1.358 . S
C736 C740 1.332 . S
C736 C742 1.504 . S
C737 C738 1.373 . S
C737 C741 1.308 . S
C738 C737 1.373 . S
C738 C739 1.429 . S
C738 H748 0.932 . S
C739 C736 1.358 . S
C739 C738 1.429 . S
C739 H749 0.930 . S
C740 C736 1.332 . S
C740 C741 1.394 . S
C740 H750 0.932 . S
C741 C737 1.308 . S
C741 C740 1.394 . S
C741 H751 0.929 . S
C742 Tb713 2.764 . S
C742 O726 1.239 . S
C742 O727 1.263 . S
C742 C736 1.504 . S
C743 O728 1.236 . S
C743 O729 1.257 . S
H744 C717 0.932 . S
H745 C718 0.930 . S
H746 C719 0.932 . S
H747 C720 0.929 . S
H748 C738 0.932 . S
H749 C739 0.930 . S
H750 C740 0.932 . S
H751 C741 0.929 . S
Tb752 C761 2.764 . S
Tb752 O762 2.325 . S
Tb752 O765 2.303 . S
Tb752 O769 2.322 . S
Tb752 O770 2.349 . S
Tb752 O773 2.415 . S
Tb752 O774 2.399 . S
Tb753 O763 2.322 . S
Tb753 O764 2.349 . S
Tb753 O766 2.415 . S
Tb753 O767 2.399 . S
Tb753 O768 2.325 . S
Tb753 O771 2.303 . S
Tb753 C782 2.764 . S
C754 O770 1.261 . S
C754 O771 1.257 . S
C755 C758 1.358 . S
C755 C759 1.332 . S
C755 C761 1.504 . S
C756 C757 1.373 . S
C756 C760 1.308 . S
C757 C756 1.373 . S
C757 C758 1.429 . S
C757 H784 0.932 . S
C758 C755 1.358 . S
C758 C757 1.429 . S
C758 H785 0.930 . S
C759 C755 1.332 . S
C759 C760 1.394 . S
C759 H786 0.932 . S
C760 C756 1.308 . S
C760 C759 1.394 . S
C760 H787 0.929 . S
C761 Tb752 2.764 . S
C761 C755 1.504 . S
C761 O773 1.239 . S
C761 O774 1.263 . S
O762 Tb752 2.325 . S
O762 C772 1.236 . S
O763 Tb753 2.322 . S
O763 C772 1.257 . S
O764 Tb753 2.349 . S
O764 C775 1.261 . S
O765 Tb752 2.303 . S
O765 C775 1.257 . S
O766 Tb753 2.415 . S
O766 C782 1.239 . S
O767 Tb753 2.399 . S
O767 C782 1.263 . S
O768 Tb753 2.325 . S
O768 C783 1.236 . S
O769 Tb752 2.322 . S
O769 C783 1.257 . S
O770 Tb752 2.349 . S
O770 C754 1.261 . S
O771 Tb753 2.303 . S
O771 C754 1.257 . S
C772 O762 1.236 . S
C772 O763 1.257 . S
O773 Tb752 2.415 . S
O773 C761 1.239 . S
O774 Tb752 2.399 . S
O774 C761 1.263 . S
C775 O764 1.261 . S
C775 O765 1.257 . S
C776 C779 1.358 . S
C776 C780 1.332 . S
C776 C782 1.504 . S
C777 C778 1.373 . S
C777 C781 1.308 . S
C778 C777 1.373 . S
C778 C779 1.429 . S
C778 H788 0.932 . S
C779 C776 1.358 . S
C779 C778 1.429 . S
C779 H789 0.930 . S
C780 C776 1.332 . S
C780 C781 1.394 . S
C780 H790 0.932 . S
C781 C777 1.308 . S
C781 C780 1.394 . S
C781 H791 0.929 . S
C782 Tb753 2.764 . S
C782 O766 1.239 . S
C782 O767 1.263 . S
C782 C776 1.504 . S
C783 O768 1.236 . S
C783 O769 1.257 . S
H784 C757 0.932 . S
H785 C758 0.930 . S
H786 C759 0.932 . S
H787 C760 0.929 . S
H788 C778 0.932 . S
H789 C779 0.930 . S
H790 C780 0.932 . S
H791 C781 0.929 . S
Tb792 C801 2.764 . S
Tb792 O802 2.325 . S
Tb792 O805 2.303 . S
Tb792 O809 2.322 . S
Tb792 O810 2.349 . S
Tb792 O813 2.415 . S
Tb792 O814 2.399 . S
Tb793 O803 2.322 . S
Tb793 O804 2.349 . S
Tb793 O806 2.415 . S
Tb793 O807 2.399 . S
Tb793 O808 2.325 . S
Tb793 O811 2.303 . S
Tb793 C822 2.764 . S
C794 O810 1.261 . S
C794 O811 1.257 . S
C795 C798 1.358 . S
C795 C799 1.332 . S
C795 C801 1.504 . S
C796 C797 1.373 . S
C796 C800 1.308 . S
C797 C796 1.373 . S
C797 C798 1.429 . S
C797 H824 0.932 . S
C798 C795 1.358 . S
C798 C797 1.429 . S
C798 H825 0.930 . S
C799 C795 1.332 . S
C799 C800 1.394 . S
C799 H826 0.932 . S
C800 C796 1.308 . S
C800 C799 1.394 . S
C800 H827 0.929 . S
C801 Tb792 2.764 . S
C801 C795 1.504 . S
C801 O813 1.239 . S
C801 O814 1.263 . S
O802 Tb792 2.325 . S
O802 C812 1.236 . S
O803 Tb793 2.322 . S
O803 C812 1.257 . S
O804 Tb793 2.349 . S
O804 C815 1.261 . S
O805 Tb792 2.303 . S
O805 C815 1.257 . S
O806 Tb793 2.415 . S
O806 C822 1.239 . S
O807 Tb793 2.399 . S
O807 C822 1.263 . S
O808 Tb793 2.325 . S
O808 C823 1.236 . S
O809 Tb792 2.322 . S
O809 C823 1.257 . S
O810 Tb792 2.349 . S
O810 C794 1.261 . S
O811 Tb793 2.303 . S
O811 C794 1.257 . S
C812 O802 1.236 . S
C812 O803 1.257 . S
O813 Tb792 2.415 . S
O813 C801 1.239 . S
O814 Tb792 2.399 . S
O814 C801 1.263 . S
C815 O804 1.261 . S
C815 O805 1.257 . S
C816 C819 1.358 . S
C816 C820 1.332 . S
C816 C822 1.504 . S
C817 C818 1.373 . S
C817 C821 1.308 . S
C818 C817 1.373 . S
C818 C819 1.429 . S
C818 H828 0.932 . S
C819 C816 1.358 . S
C819 C818 1.429 . S
C819 H829 0.930 . S
C820 C816 1.332 . S
C820 C821 1.394 . S
C820 H830 0.932 . S
C821 C817 1.308 . S
C821 C820 1.394 . S
C821 H831 0.929 . S
C822 Tb793 2.764 . S
C822 O806 1.239 . S
C822 O807 1.263 . S
C822 C816 1.504 . S
C823 O808 1.236 . S
C823 O809 1.257 . S
H824 C797 0.932 . S
H825 C798 0.930 . S
H826 C799 0.932 . S
H827 C800 0.929 . S
H828 C818 0.932 . S
H829 C819 0.930 . S
H830 C820 0.932 . S
H831 C821 0.929 . S
Tb832 C841 2.764 . S
Tb832 O842 2.325 . S
Tb832 O845 2.303 . S
Tb832 O849 2.322 . S
Tb832 O850 2.349 . S
Tb832 O853 2.415 . S
Tb832 O854 2.399 . S
Tb833 O843 2.322 . S
Tb833 O844 2.349 . S
Tb833 O846 2.415 . S
Tb833 O847 2.399 . S
Tb833 O848 2.325 . S
Tb833 O851 2.303 . S
Tb833 C862 2.764 . S
C834 O850 1.261 . S
C834 O851 1.257 . S
C835 C838 1.358 . S
C835 C839 1.332 . S
C835 C841 1.504 . S
C836 C837 1.373 . S
C836 C840 1.308 . S
C837 C836 1.373 . S
C837 C838 1.429 . S
C837 H864 0.932 . S
C838 C835 1.358 . S
C838 C837 1.429 . S
C838 H865 0.930 . S
C839 C835 1.332 . S
C839 C840 1.394 . S
C839 H866 0.932 . S
C840 C836 1.308 . S
C840 C839 1.394 . S
C840 H867 0.929 . S
C841 Tb832 2.764 . S
C841 C835 1.504 . S
C841 O853 1.239 . S
C841 O854 1.263 . S
O842 Tb832 2.325 . S
O842 C852 1.236 . S
O843 Tb833 2.322 . S
O843 C852 1.257 . S
O844 Tb833 2.349 . S
O844 C855 1.261 . S
O845 Tb832 2.303 . S
O845 C855 1.257 . S
O846 Tb833 2.415 . S
O846 C862 1.239 . S
O847 Tb833 2.399 . S
O847 C862 1.263 . S
O848 Tb833 2.325 . S
O848 C863 1.236 . S
O849 Tb832 2.322 . S
O849 C863 1.257 . S
O850 Tb832 2.349 . S
O850 C834 1.261 . S
O851 Tb833 2.303 . S
O851 C834 1.257 . S
C852 O842 1.236 . S
C852 O843 1.257 . S
O853 Tb832 2.415 . S
O853 C841 1.239 . S
O854 Tb832 2.399 . S
O854 C841 1.263 . S
C855 O844 1.261 . S
C855 O845 1.257 . S
C856 C859 1.358 . S
C856 C860 1.332 . S
C856 C862 1.504 . S
C857 C858 1.373 . S
C857 C861 1.308 . S
C858 C857 1.373 . S
C858 C859 1.429 . S
C858 H868 0.932 . S
C859 C856 1.358 . S
C859 C858 1.429 . S
C859 H869 0.930 . S
C860 C856 1.332 . S
C860 C861 1.394 . S
C860 H870 0.932 . S
C861 C857 1.308 . S
C861 C860 1.394 . S
C861 H871 0.929 . S
C862 Tb833 2.764 . S
C862 O846 1.239 . S
C862 O847 1.263 . S
C862 C856 1.504 . S
C863 O848 1.236 . S
C863 O849 1.257 . S
H864 C837 0.932 . S
H865 C838 0.930 . S
H866 C839 0.932 . S
H867 C840 0.929 . S
H868 C858 0.932 . S
H869 C859 0.930 . S
H870 C860 0.932 . S
H871 C861 0.929 . S
Tb872 C881 2.764 . S
Tb872 O882 2.325 . S
Tb872 O885 2.303 . S
Tb872 O889 2.322 . S
Tb872 O890 2.349 . S
Tb872 O893 2.415 . S
Tb872 O894 2.399 . S
Tb873 O883 2.322 . S
Tb873 O884 2.349 . S
Tb873 O886 2.415 . S
Tb873 O887 2.399 . S
Tb873 O888 2.325 . S
Tb873 O891 2.303 . S
Tb873 C902 2.764 . S
C874 O890 1.261 . S
C874 O891 1.257 . S
C875 C878 1.358 . S
C875 C879 1.332 . S
C875 C881 1.504 . S
C876 C877 1.373 . S
C876 C880 1.308 . S
C877 C876 1.373 . S
C877 C878 1.429 . S
C877 H904 0.932 . S
C878 C875 1.358 . S
C878 C877 1.429 . S
C878 H905 0.930 . S
C879 C875 1.332 . S
C879 C880 1.394 . S
C879 H906 0.932 . S
C880 C876 1.308 . S
C880 C879 1.394 . S
C880 H907 0.929 . S
C881 Tb872 2.764 . S
C881 C875 1.504 . S
C881 O893 1.239 . S
C881 O894 1.263 . S
O882 Tb872 2.325 . S
O882 C892 1.236 . S
O883 Tb873 2.322 . S
O883 C892 1.257 . S
O884 Tb873 2.349 . S
O884 C895 1.261 . S
O885 Tb872 2.303 . S
O885 C895 1.257 . S
O886 Tb873 2.415 . S
O886 C902 1.239 . S
O887 Tb873 2.399 . S
O887 C902 1.263 . S
O888 Tb873 2.325 . S
O888 C903 1.236 . S
O889 Tb872 2.322 . S
O889 C903 1.257 . S
O890 Tb872 2.349 . S
O890 C874 1.261 . S
O891 Tb873 2.303 . S
O891 C874 1.257 . S
C892 O882 1.236 . S
C892 O883 1.257 . S
O893 Tb872 2.415 . S
O893 C881 1.239 . S
O894 Tb872 2.399 . S
O894 C881 1.263 . S
C895 O884 1.261 . S
C895 O885 1.257 . S
C896 C899 1.358 . S
C896 C900 1.332 . S
C896 C902 1.504 . S
C897 C898 1.373 . S
C897 C901 1.308 . S
C898 C897 1.373 . S
C898 C899 1.429 . S
C898 H908 0.932 . S
C899 C896 1.358 . S
C899 C898 1.429 . S
C899 H909 0.930 . S
C900 C896 1.332 . S
C900 C901 1.394 . S
C900 H910 0.932 . S
C901 C897 1.308 . S
C901 C900 1.394 . S
C901 H911 0.929 . S
C902 Tb873 2.764 . S
C902 O886 1.239 . S
C902 O887 1.263 . S
C902 C896 1.504 . S
C903 O888 1.236 . S
C903 O889 1.257 . S
H904 C877 0.932 . S
H905 C878 0.930 . S
H906 C879 0.932 . S
H907 C880 0.929 . S
H908 C898 0.932 . S
H909 C899 0.930 . S
H910 C900 0.932 . S
H911 C901 0.929 . S
Tb912 C921 2.764 1_455 S
Tb912 O922 2.325 . S
Tb912 O925 2.303 . S
Tb912 O929 2.322 . S
Tb912 O930 2.349 . S
Tb912 O933 2.415 1_455 S
Tb912 O934 2.399 1_455 S
Tb913 O923 2.322 . S
Tb913 O924 2.349 . S
Tb913 O926 2.415 . S
Tb913 O927 2.399 . S
Tb913 O928 2.325 . S
Tb913 O931 2.303 . S
Tb913 C942 2.764 . S
C914 O930 1.261 . S
C914 O931 1.257 . S
C915 C918 1.358 . S
C915 C919 1.332 . S
C915 C921 1.504 . S
C916 C917 1.373 . S
C916 C920 1.308 . S
C917 C916 1.373 . S
C917 C918 1.429 . S
C917 H944 0.932 . S
C918 C915 1.358 . S
C918 C917 1.429 . S
C918 H945 0.930 . S
C919 C915 1.332 . S
C919 C920 1.394 . S
C919 H946 0.932 . S
C920 C916 1.308 . S
C920 C919 1.394 . S
C920 H947 0.929 . S
C921 Tb912 2.764 1_655 S
C921 C915 1.504 . S
C921 O933 1.239 . S
C921 O934 1.263 . S
O922 Tb912 2.325 . S
O922 C932 1.236 . S
O923 Tb913 2.322 . S
O923 C932 1.257 . S
O924 Tb913 2.349 . S
O924 C935 1.261 . S
O925 Tb912 2.303 . S
O925 C935 1.257 . S
O926 Tb913 2.415 . S
O926 C942 1.239 . S
O927 Tb913 2.399 . S
O927 C942 1.263 . S
O928 Tb913 2.325 . S
O928 C943 1.236 . S
O929 Tb912 2.322 . S
O929 C943 1.257 . S
O930 Tb912 2.349 . S
O930 C914 1.261 . S
O931 Tb913 2.303 . S
O931 C914 1.257 . S
C932 O922 1.236 . S
C932 O923 1.257 . S
O933 Tb912 2.415 1_655 S
O933 C921 1.239 . S
O934 Tb912 2.399 1_655 S
O934 C921 1.263 . S
C935 O924 1.261 . S
C935 O925 1.257 . S
C936 C939 1.358 . S
C936 C940 1.332 . S
C936 C942 1.504 . S
C937 C938 1.373 . S
C937 C941 1.308 . S
C938 C937 1.373 . S
C938 C939 1.429 . S
C938 H948 0.932 1_554 S
C939 C936 1.358 . S
C939 C938 1.429 . S
C939 H949 0.930 1_554 S
C940 C936 1.332 . S
C940 C941 1.394 . S
C940 H950 0.932 . S
C941 C937 1.308 . S
C941 C940 1.394 . S
C941 H951 0.929 . S
C942 Tb913 2.764 . S
C942 O926 1.239 . S
C942 O927 1.263 . S
C942 C936 1.504 . S
C943 O928 1.236 . S
C943 O929 1.257 . S
H944 C917 0.932 . S
H945 C918 0.930 . S
H946 C919 0.932 . S
H947 C920 0.929 . S
H948 C938 0.932 1_556 S
H949 C939 0.930 1_556 S
H950 C940 0.932 . S
H951 C941 0.929 . S
C952 C953 1.363 . S
C952 C958 1.379 1_556 S
C952 N960 1.356 . S
C953 C952 1.363 . S
C953 C959 1.364 1_556 S
C954 C955 1.363 . S
C954 C959 1.379 . S
C954 N961 1.356 . S
C955 C954 1.363 . S
C955 C958 1.363 . S
N956 C958 1.356 . S
N956 H968 0.984 1_554 S
N956 H969 0.985 . S
N957 C959 1.356 1_655 S
N957 H962 0.984 . S
N957 H963 0.985 . S
C958 C952 1.379 1_554 S
C958 C955 1.363 . S
C958 N956 1.356 . S
C959 C953 1.364 1_554 S
C959 C954 1.379 . S
C959 N957 1.356 1_455 S
N960 C952 1.356 . S
N960 H966 0.984 . S
N960 H967 0.984 . S
N961 C954 1.356 . S
N961 H964 0.984 . S
N961 H965 0.985 1_455 S
H962 N957 0.984 . S
H963 N957 0.985 . S
H964 N961 0.984 . S
H965 N961 0.985 1_655 S
H966 N960 0.984 . S
H967 N960 0.984 . S
H968 N956 0.984 1_556 S
H969 N956 0.985 . S
C970 C971 1.363 . S
C970 C976 1.379 . S
C970 N978 1.356 . S
C971 C970 1.363 . S
C971 C977 1.363 . S
C972 C973 1.363 . S
C972 C977 1.379 . S
C972 N979 1.356 . S
C973 C972 1.363 . S
C973 C976 1.363 . S
N974 C976 1.356 . S
N974 H986 0.984 . S
N974 H987 0.985 . S
N975 C977 1.356 . S
N975 H980 0.984 . S
N975 H981 0.985 . S
C976 C970 1.379 . S
C976 C973 1.363 . S
C976 N974 1.356 . S
C977 C971 1.363 . S
C977 C972 1.379 . S
C977 N975 1.356 . S
N978 C970 1.356 . S
N978 H984 0.984 . S
N978 H985 0.984 . S
N979 C972 1.356 . S
N979 H982 0.984 . S
N979 H983 0.985 . S
H980 N975 0.984 . S
H981 N975 0.985 . S
H982 N979 0.984 . S
H983 N979 0.985 . S
H984 N978 0.984 . S
H985 N978 0.984 . S
H986 N974 0.984 . S
H987 N974 0.985 . S
C988 C989 1.363 . S
C988 C994 1.379 . S
C988 N996 1.356 . S
C989 C988 1.363 . S
C989 C995 1.363 . S
C990 C991 1.363 . S
C990 C995 1.379 . S
C990 N997 1.356 . S
C991 C990 1.363 . S
C991 C994 1.363 . S
N992 C994 1.356 . S
N992 H1004 0.984 . S
N992 H1005 0.985 . S
N993 C995 1.356 . S
N993 H998 0.984 . S
N993 H999 0.985 . S
C994 C988 1.379 . S
C994 C991 1.363 . S
C994 N992 1.356 . S
C995 C989 1.363 . S
C995 C990 1.379 . S
C995 N993 1.356 . S
N996 C988 1.356 . S
N996 H1002 0.984 . S
N996 H1003 0.984 . S
N997 C990 1.356 . S
N997 H1000 0.984 . S
N997 H1001 0.985 . S
H998 N993 0.984 . S
H999 N993 0.985 . S
H1000 N997 0.984 . S
H1001 N997 0.985 . S
H1002 N996 0.984 . S
H1003 N996 0.984 . S
H1004 N992 0.984 . S
H1005 N992 0.985 . S
C1006 C1007 1.363 . S
C1006 C1012 1.379 . S
C1006 N1014 1.356 . S
C1007 C1006 1.363 . S
C1007 C1013 1.363 . S
C1008 C1009 1.363 . S
C1008 C1013 1.379 . S
C1008 N1015 1.356 . S
C1009 C1008 1.363 . S
C1009 C1012 1.363 . S
N1010 C1012 1.356 . S
N1010 H1022 0.984 . S
N1010 H1023 0.985 . S
N1011 C1013 1.356 . S
N1011 H1016 0.984 . S
N1011 H1017 0.985 . S
C1012 C1006 1.379 . S
C1012 C1009 1.363 . S
C1012 N1010 1.356 . S
C1013 C1007 1.363 . S
C1013 C1008 1.379 . S
C1013 N1011 1.356 . S
N1014 C1006 1.356 . S
N1014 H1020 0.984 . S
N1014 H1021 0.984 . S
N1015 C1008 1.356 . S
N1015 H1018 0.984 . S
N1015 H1019 0.985 . S
H1016 N1011 0.984 . S
H1017 N1011 0.985 . S
H1018 N1015 0.984 . S
H1019 N1015 0.985 . S
H1020 N1014 0.984 . S
H1021 N1014 0.984 . S
H1022 N1010 0.984 . S
H1023 N1010 0.985 . S
C1024 C1025 1.363 . S
C1024 C1030 1.379 . S
C1024 N1032 1.356 . S
C1025 C1024 1.363 . S
C1025 C1031 1.363 . S
C1026 C1027 1.363 . S
C1026 C1031 1.379 . S
C1026 N1033 1.356 . S
C1027 C1026 1.363 . S
C1027 C1030 1.363 . S
N1028 C1030 1.356 . S
N1028 H1040 0.984 . S
N1028 H1041 0.985 . S
N1029 C1031 1.356 . S
N1029 H1034 0.984 . S
N1029 H1035 0.985 . S
C1030 C1024 1.379 . S
C1030 C1027 1.363 . S
C1030 N1028 1.356 . S
C1031 C1025 1.363 . S
C1031 C1026 1.379 . S
C1031 N1029 1.356 . S
N1032 C1024 1.356 . S
N1032 H1038 0.984 . S
N1032 H1039 0.984 . S
N1033 C1026 1.356 . S
N1033 H1036 0.984 . S
N1033 H1037 0.985 . S
H1034 N1029 0.984 . S
H1035 N1029 0.985 . S
H1036 N1033 0.984 . S
H1037 N1033 0.985 . S
H1038 N1032 0.984 . S
H1039 N1032 0.984 . S
H1040 N1028 0.984 . S
H1041 N1028 0.985 . S
C1042 C1043 1.363 . S
C1042 C1048 1.379 . S
C1042 N1050 1.356 . S
C1043 C1042 1.363 . S
C1043 C1049 1.363 . S
C1044 C1045 1.363 . S
C1044 C1049 1.379 . S
C1044 N1051 1.356 . S
C1045 C1044 1.363 . S
C1045 C1048 1.363 . S
N1046 C1048 1.356 . S
N1046 H1058 0.984 . S
N1046 H1059 0.985 . S
N1047 C1049 1.356 . S
N1047 H1052 0.984 . S
N1047 H1053 0.985 . S
C1048 C1042 1.379 . S
C1048 C1045 1.363 . S
C1048 N1046 1.356 . S
C1049 C1043 1.363 . S
C1049 C1044 1.379 . S
C1049 N1047 1.356 . S
N1050 C1042 1.356 . S
N1050 H1056 0.984 . S
N1050 H1057 0.984 . S
N1051 C1044 1.356 . S
N1051 H1054 0.984 . S
N1051 H1055 0.985 . S
H1052 N1047 0.984 . S
H1053 N1047 0.985 . S
H1054 N1051 0.984 . S
H1055 N1051 0.985 . S
H1056 N1050 0.984 . S
H1057 N1050 0.984 . S
H1058 N1046 0.984 . S
H1059 N1046 0.985 . S
C1060 C1061 1.363 . S
C1060 C1066 1.379 . S
C1060 N1068 1.356 . S
C1061 C1060 1.363 . S
C1061 C1067 1.363 . S
C1062 C1063 1.363 . S
C1062 C1067 1.379 . S
C1062 N1069 1.356 . S
C1063 C1062 1.363 . S
C1063 C1066 1.363 . S
N1064 C1066 1.356 . S
N1064 H1076 0.984 . S
N1064 H1077 0.985 . S
N1065 C1067 1.356 . S
N1065 H1070 0.984 . S
N1065 H1071 0.985 . S
C1066 C1060 1.379 . S
C1066 C1063 1.363 . S
C1066 N1064 1.356 . S
C1067 C1061 1.363 . S
C1067 C1062 1.379 . S
C1067 N1065 1.356 . S
N1068 C1060 1.356 . S
N1068 H1074 0.984 . S
N1068 H1075 0.984 . S
N1069 C1062 1.356 . S
N1069 H1072 0.984 . S
N1069 H1073 0.985 . S
H1070 N1065 0.984 . S
H1071 N1065 0.985 . S
H1072 N1069 0.984 . S
H1073 N1069 0.985 . S
H1074 N1068 0.984 . S
H1075 N1068 0.984 . S
H1076 N1064 0.984 . S
H1077 N1064 0.985 . S
C1078 C1079 1.363 . S
C1078 C1084 1.379 . S
C1078 N1086 1.356 . S
C1079 C1078 1.363 . S
C1079 C1085 1.363 . S
C1080 C1081 1.363 . S
C1080 C1085 1.379 . S
C1080 N1087 1.356 . S
C1081 C1080 1.363 . S
C1081 C1084 1.363 . S
N1082 C1084 1.356 . S
N1082 H1094 0.984 . S
N1082 H1095 0.985 . S
N1083 C1085 1.356 . S
N1083 H1088 0.984 . S
N1083 H1089 0.985 . S
C1084 C1078 1.379 . S
C1084 C1081 1.363 . S
C1084 N1082 1.356 . S
C1085 C1079 1.363 . S
C1085 C1080 1.379 . S
C1085 N1083 1.356 . S
N1086 C1078 1.356 . S
N1086 H1092 0.984 . S
N1086 H1093 0.984 . S
N1087 C1080 1.356 . S
N1087 H1090 0.984 . S
N1087 H1091 0.985 . S
H1088 N1083 0.984 . S
H1089 N1083 0.985 . S
H1090 N1087 0.984 . S
H1091 N1087 0.985 . S
H1092 N1086 0.984 . S
H1093 N1086 0.984 . S
H1094 N1082 0.984 . S
H1095 N1082 0.985 . S
C1096 C1097 1.363 . S
C1096 C1102 1.379 1_655 S
C1096 N1104 1.356 1_545 S
C1097 C1096 1.363 . S
C1097 C1103 1.363 . S
C1098 C1099 1.380 . S
C1098 C1103 1.364 1_455 S
C1098 N1105 1.360 . S
C1099 C1098 1.380 . S
C1099 C1102 1.363 . S
N1100 C1102 1.356 . S
N1100 H1112 0.984 . S
N1100 H1113 0.985 . S
N1101 C1103 1.356 . S
N1101 H1106 0.984 . S
N1101 H1107 0.985 . S
C1102 C1096 1.379 1_455 S
C1102 C1099 1.363 . S
C1102 N1100 1.356 . S
C1103 C1097 1.363 . S
C1103 C1098 1.364 1_655 S
C1103 N1101 1.356 . S
N1104 C1096 1.356 1_565 S
N1104 H1110 0.984 . S
N1104 H1111 0.984 . S
N1105 C1098 1.360 . S
N1105 H1108 0.984 . S
N1105 H1109 0.989 . S
H1106 N1101 0.984 . S
H1107 N1101 0.985 . S
H1108 N1105 0.984 . S
H1109 N1105 0.989 . S
H1110 N1104 0.984 . S
H1111 N1104 0.984 . S
H1112 N1100 0.984 . S
H1113 N1100 0.985 . S
C1114 C1115 1.363 . S
C1114 C1120 1.379 . S
C1114 N1122 1.356 . S
C1115 C1114 1.363 . S
C1115 C1121 1.363 . S
C1116 C1117 1.363 . S
C1116 C1121 1.379 . S
C1116 N1123 1.356 . S
C1117 C1116 1.363 . S
C1117 C1120 1.363 . S
N1118 C1120 1.356 . S
N1118 H1130 0.984 . S
N1118 H1131 0.985 . S
N1119 C1121 1.356 . S
N1119 H1124 0.984 . S
N1119 H1125 0.985 . S
C1120 C1114 1.379 . S
C1120 C1117 1.363 . S
C1120 N1118 1.356 . S
C1121 C1115 1.363 . S
C1121 C1116 1.379 . S
C1121 N1119 1.356 . S
N1122 C1114 1.356 . S
N1122 H1128 0.984 . S
N1122 H1129 0.984 . S
N1123 C1116 1.356 . S
N1123 H1126 0.984 . S
N1123 H1127 0.985 . S
H1124 N1119 0.984 . S
H1125 N1119 0.985 . S
H1126 N1123 0.984 . S
H1127 N1123 0.985 . S
H1128 N1122 0.984 . S
H1129 N1122 0.984 . S
H1130 N1118 0.984 . S
H1131 N1118 0.985 . S
C1132 C1133 1.363 . S
C1132 C1138 1.379 . S
C1132 N1140 1.356 . S
C1133 C1132 1.363 . S
C1133 C1139 1.363 . S
C1134 C1135 1.363 . S
C1134 C1139 1.379 . S
C1134 N1141 1.356 1_545 S
C1135 C1134 1.363 . S
C1135 C1138 1.363 . S
N1136 C1138 1.356 . S
N1136 H1148 0.984 . S
N1136 H1149 0.985 . S
N1137 C1139 1.356 . S
N1137 H1142 0.984 . S
N1137 H1143 0.985 1_545 S
C1138 C1132 1.379 . S
C1138 C1135 1.363 . S
C1138 N1136 1.356 . S
C1139 C1133 1.363 . S
C1139 C1134 1.379 . S
C1139 N1137 1.356 . S
N1140 C1132 1.356 . S
N1140 H1146 0.984 . S
N1140 H1147 0.984 . S
N1141 C1134 1.356 1_565 S
N1141 H1144 0.984 . S
N1141 H1145 0.985 . S
H1142 N1137 0.984 . S
H1143 N1137 0.985 1_565 S
H1144 N1141 0.984 . S
H1145 N1141 0.985 . S
H1146 N1140 0.984 . S
H1147 N1140 0.984 . S
H1148 N1136 0.984 . S
H1149 N1136 0.985 . S
C1150 C1151 1.363 . S
C1150 C1156 1.379 . S
C1150 N1158 1.356 . S
C1151 C1150 1.363 . S
C1151 C1157 1.363 . S
C1152 C1153 1.363 . S
C1152 C1157 1.379 . S
C1152 N1159 1.356 . S
C1153 C1152 1.363 . S
C1153 C1156 1.363 . S
N1154 C1156 1.356 . S
N1154 H1166 0.984 . S
N1154 H1167 0.985 . S
N1155 C1157 1.356 . S
N1155 H1160 0.984 . S
N1155 H1161 0.985 . S
C1156 C1150 1.379 . S
C1156 C1153 1.363 . S
C1156 N1154 1.356 . S
C1157 C1151 1.363 . S
C1157 C1152 1.379 . S
C1157 N1155 1.356 . S
N1158 C1150 1.356 . S
N1158 H1164 0.984 . S
N1158 H1165 0.984 . S
N1159 C1152 1.356 . S
N1159 H1162 0.984 . S
N1159 H1163 0.985 . S
H1160 N1155 0.984 . S
H1161 N1155 0.985 . S
H1162 N1159 0.984 . S
H1163 N1159 0.985 . S
H1164 N1158 0.984 . S
H1165 N1158 0.984 . S
H1166 N1154 0.984 . S
H1167 N1154 0.985 . S
C1168 C1169 1.363 . S
C1168 C1174 1.379 . S
C1168 N1176 1.356 . S
C1169 C1168 1.363 . S
C1169 C1175 1.363 1_545 S
C1170 C1171 1.363 1_565 S
C1170 C1175 1.379 . S
C1170 N1177 1.356 . S
C1171 C1170 1.363 1_545 S
C1171 C1174 1.363 . S
N1172 C1174 1.356 1_455 S
N1172 H1184 0.984 . S
N1172 H1185 0.985 . S
N1173 C1175 1.356 . S
N1173 H1178 0.984 . S
N1173 H1179 0.985 . S
C1174 C1168 1.379 . S
C1174 C1171 1.363 . S
C1174 N1172 1.356 1_655 S
C1175 C1169 1.363 1_565 S
C1175 C1170 1.379 . S
C1175 N1173 1.356 . S
N1176 C1168 1.356 . S
N1176 H1182 0.984 . S
N1176 H1183 0.984 . S
N1177 C1170 1.356 . S
N1177 H1180 0.984 1_655 S
N1177 H1181 0.985 . S
H1178 N1173 0.984 . S
H1179 N1173 0.985 . S
H1180 N1177 0.984 1_455 S
H1181 N1177 0.985 . S
H1182 N1176 0.984 . S
H1183 N1176 0.984 . S
H1184 N1172 0.984 . S
H1185 N1172 0.985 . S
C1186 C1187 1.363 . S
C1186 C1192 1.379 . S
C1186 N1194 1.356 . S
C1187 C1186 1.363 . S
C1187 C1193 1.363 . S
C1188 C1189 1.363 . S
C1188 C1193 1.379 . S
C1188 N1195 1.356 . S
C1189 C1188 1.363 . S
C1189 C1192 1.363 . S
N1190 C1192 1.356 . S
N1190 H1202 0.984 . S
N1190 H1203 0.985 . S
N1191 C1193 1.356 . S
N1191 H1196 0.984 . S
N1191 H1197 0.985 . S
C1192 C1186 1.379 . S
C1192 C1189 1.363 . S
C1192 N1190 1.356 . S
C1193 C1187 1.363 . S
C1193 C1188 1.379 . S
C1193 N1191 1.356 . S
N1194 C1186 1.356 . S
N1194 H1200 0.984 . S
N1194 H1201 0.984 . S
N1195 C1188 1.356 . S
N1195 H1198 0.984 . S
N1195 H1199 0.985 . S
H1196 N1191 0.984 . S
H1197 N1191 0.985 . S
H1198 N1195 0.984 . S
H1199 N1195 0.985 . S
H1200 N1194 0.984 . S
H1201 N1194 0.984 . S
H1202 N1190 0.984 . S
H1203 N1190 0.985 . S
C1204 C1205 1.363 . S
C1204 C1210 1.379 . S
C1204 N1212 1.356 . S
C1205 C1204 1.363 . S
C1205 C1211 1.363 . S
C1206 C1207 1.363 . S
C1206 C1211 1.379 . S
C1206 N1213 1.356 . S
C1207 C1206 1.363 . S
C1207 C1210 1.363 . S
N1208 C1210 1.356 . S
N1208 H1220 0.984 . S
N1208 H1221 0.985 . S
N1209 C1211 1.356 . S
N1209 H1214 0.984 . S
N1209 H1215 0.985 . S
C1210 C1204 1.379 . S
C1210 C1207 1.363 . S
C1210 N1208 1.356 . S
C1211 C1205 1.363 . S
C1211 C1206 1.379 . S
C1211 N1209 1.356 . S
N1212 C1204 1.356 . S
N1212 H1218 0.984 . S
N1212 H1219 0.984 . S
N1213 C1206 1.356 . S
N1213 H1216 0.984 . S
N1213 H1217 0.985 . S
H1214 N1209 0.984 . S
H1215 N1209 0.985 . S
H1216 N1213 0.984 . S
H1217 N1213 0.985 . S
H1218 N1212 0.984 . S
H1219 N1212 0.984 . S
H1220 N1208 0.984 . S
H1221 N1208 0.985 . S
C1222 C1223 1.363 . S
C1222 C1228 1.379 . S
C1222 N1230 1.356 . S
C1223 C1222 1.363 . S
C1223 C1229 1.363 . S
C1224 C1225 1.363 . S
C1224 C1229 1.379 . S
C1224 N1231 1.356 . S
C1225 C1224 1.363 . S
C1225 C1228 1.363 . S
N1226 C1228 1.356 . S
N1226 H1238 0.984 . S
N1226 H1239 0.985 . S
N1227 C1229 1.356 . S
N1227 H1232 0.984 . S
N1227 H1233 0.985 . S
C1228 C1222 1.379 . S
C1228 C1225 1.363 . S
C1228 N1226 1.356 . S
C1229 C1223 1.363 . S
C1229 C1224 1.379 . S
C1229 N1227 1.356 . S
N1230 C1222 1.356 . S
N1230 H1236 0.984 . S
N1230 H1237 0.984 . S
N1231 C1224 1.356 . S
N1231 H1234 0.984 . S
N1231 H1235 0.985 . S
H1232 N1227 0.984 . S
H1233 N1227 0.985 . S
H1234 N1231 0.984 . S
H1235 N1231 0.985 . S
H1236 N1230 0.984 . S
H1237 N1230 0.984 . S
H1238 N1226 0.984 . S
H1239 N1226 0.985 . S
C1240 C1241 1.363 1_565 S
C1240 C1246 1.379 1_565 S
C1240 N1248 1.356 . S
C1241 C1240 1.363 1_545 S
C1241 C1247 1.363 . S
C1242 C1243 1.363 . S
C1242 C1247 1.379 . S
C1242 N1249 1.356 . S
C1243 C1242 1.363 . S
C1243 C1246 1.363 . S
N1244 C1246 1.357 1_565 S
N1244 H1256 1.008 . S
N1244 H1257 0.961 1_565 S
N1245 C1247 1.356 . S
N1245 H1250 0.984 . S
N1245 H1251 0.985 . S
C1246 C1240 1.379 1_545 S
C1246 C1243 1.363 . S
C1246 N1244 1.357 1_545 S
C1247 C1241 1.363 . S
C1247 C1242 1.379 . S
C1247 N1245 1.356 . S
N1248 C1240 1.356 . S
N1248 H1254 0.984 . S
N1248 H1255 0.984 . S
N1249 C1242 1.356 . S
N1249 H1252 0.984 . S
N1249 H1253 0.985 . S
H1250 N1245 0.984 . S
H1251 N1245 0.985 . S
H1252 N1249 0.984 . S
H1253 N1249 0.985 . S
H1254 N1248 0.984 . S
H1255 N1248 0.984 . S
H1256 N1244 1.008 . S
H1257 N1244 0.961 1_545 S
C1258 C1259 1.363 . S
C1258 C1264 1.379 . S
C1258 N1266 1.356 . S
C1259 C1258 1.363 . S
C1259 C1265 1.363 . S
C1260 C1261 1.363 . S
C1260 C1265 1.379 . S
C1260 N1267 1.356 . S
C1261 C1260 1.363 . S
C1261 C1264 1.363 . S
N1262 C1264 1.356 . S
N1262 H1274 0.984 . S
N1262 H1275 0.985 . S
N1263 C1265 1.356 1_556 S
N1263 H1268 0.985 1_556 S
N1263 H1269 0.985 . S
C1264 C1258 1.379 . S
C1264 C1261 1.363 . S
C1264 N1262 1.356 . S
C1265 C1259 1.363 . S
C1265 C1260 1.379 . S
C1265 N1263 1.356 1_554 S
N1266 C1258 1.356 . S
N1266 H1272 0.984 . S
N1266 H1273 0.984 . S
N1267 C1260 1.356 . S
N1267 H1270 0.984 . S
N1267 H1271 0.985 1_554 S
H1268 N1263 0.985 1_554 S
H1269 N1263 0.985 . S
H1270 N1267 0.984 . S
H1271 N1267 0.985 1_556 S
H1272 N1266 0.984 . S
H1273 N1266 0.984 . S
H1274 N1262 0.984 . S
H1275 N1262 0.985 . S
C1276 C1277 1.363 . S
C1276 C1282 1.379 . S
C1276 N1284 1.356 . S
C1277 C1276 1.363 . S
C1277 C1283 1.363 . S
C1278 C1279 1.363 . S
C1278 C1283 1.379 . S
C1278 N1285 1.356 . S
C1279 C1278 1.363 . S
C1279 C1282 1.363 . S
N1280 C1282 1.356 . S
N1280 H1292 0.984 . S
N1280 H1293 0.985 . S
N1281 C1283 1.356 . S
N1281 H1286 0.984 . S
N1281 H1287 0.985 . S
C1282 C1276 1.379 . S
C1282 C1279 1.363 . S
C1282 N1280 1.356 . S
C1283 C1277 1.363 . S
C1283 C1278 1.379 . S
C1283 N1281 1.356 . S
N1284 C1276 1.356 . S
N1284 H1290 0.984 . S
N1284 H1291 0.984 . S
N1285 C1278 1.356 . S
N1285 H1288 0.984 . S
N1285 H1289 0.985 . S
H1286 N1281 0.984 . S
H1287 N1281 0.985 . S
H1288 N1285 0.984 . S
H1289 N1285 0.985 . S
H1290 N1284 0.984 . S
H1291 N1284 0.984 . S
H1292 N1280 0.984 . S
H1293 N1280 0.985 . S
C1294 C1295 1.363 . S
C1294 C1300 1.379 . S
C1294 N1302 1.356 . S
C1295 C1294 1.363 . S
C1295 C1301 1.363 . S
C1296 C1297 1.363 . S
C1296 C1301 1.379 . S
C1296 N1303 1.356 . S
C1297 C1296 1.363 . S
C1297 C1300 1.363 . S
N1298 C1300 1.356 . S
N1298 H1310 0.984 . S
N1298 H1311 0.985 . S
N1299 C1301 1.356 . S
N1299 H1304 0.984 . S
N1299 H1305 0.985 . S
C1300 C1294 1.379 . S
C1300 C1297 1.363 . S
C1300 N1298 1.356 . S
C1301 C1295 1.363 . S
C1301 C1296 1.379 . S
C1301 N1299 1.356 . S
N1302 C1294 1.356 . S
N1302 H1308 0.984 . S
N1302 H1309 0.984 . S
N1303 C1296 1.356 . S
N1303 H1306 0.984 . S
N1303 H1307 0.985 . S
H1304 N1299 0.984 . S
H1305 N1299 0.985 . S
H1306 N1303 0.984 . S
H1307 N1303 0.985 . S
H1308 N1302 0.984 . S
H1309 N1302 0.984 . S
H1310 N1298 0.984 . S
H1311 N1298 0.985 . S
C1312 C1313 1.363 . S
C1312 C1318 1.379 . S
C1312 N1320 1.356 . S
C1313 C1312 1.363 . S
C1313 C1319 1.363 . S
C1314 C1315 1.363 . S
C1314 C1319 1.379 . S
C1314 N1321 1.356 . S
C1315 C1314 1.363 . S
C1315 C1318 1.363 . S
N1316 C1318 1.356 . S
N1316 H1328 0.984 . S
N1316 H1329 0.985 . S
N1317 C1319 1.356 . S
N1317 H1322 0.984 . S
N1317 H1323 0.985 . S
C1318 C1312 1.379 . S
C1318 C1315 1.363 . S
C1318 N1316 1.356 . S
C1319 C1313 1.363 . S
C1319 C1314 1.379 . S
C1319 N1317 1.356 . S
N1320 C1312 1.356 . S
N1320 H1326 0.984 . S
N1320 H1327 0.984 . S
N1321 C1314 1.356 . S
N1321 H1324 0.984 . S
N1321 H1325 0.985 . S
H1322 N1317 0.984 . S
H1323 N1317 0.985 . S
H1324 N1321 0.984 . S
H1325 N1321 0.985 . S
H1326 N1320 0.984 . S
H1327 N1320 0.984 . S
H1328 N1316 0.984 . S
H1329 N1316 0.985 . S
C1330 C1331 1.363 . S
C1330 C1336 1.379 . S
C1330 N1338 1.356 . S
C1331 C1330 1.363 . S
C1331 C1337 1.363 . S
C1332 C1333 1.363 . S
C1332 C1337 1.379 . S
C1332 N1339 1.356 . S
C1333 C1332 1.363 . S
C1333 C1336 1.363 . S
N1334 C1336 1.356 . S
N1334 H1346 0.984 . S
N1334 H1347 0.985 . S
N1335 C1337 1.356 . S
N1335 H1340 0.984 . S
N1335 H1341 0.985 . S
C1336 C1330 1.379 . S
C1336 C1333 1.363 . S
C1336 N1334 1.356 . S
C1337 C1331 1.363 . S
C1337 C1332 1.379 . S
C1337 N1335 1.356 . S
N1338 C1330 1.356 . S
N1338 H1344 0.984 . S
N1338 H1345 0.984 . S
N1339 C1332 1.356 . S
N1339 H1342 0.984 . S
N1339 H1343 0.985 . S
H1340 N1335 0.984 . S
H1341 N1335 0.985 . S
H1342 N1339 0.984 . S
H1343 N1339 0.985 . S
H1344 N1338 0.984 . S
H1345 N1338 0.984 . S
H1346 N1334 0.984 . S
H1347 N1334 0.985 . S
C1348 C1349 1.363 . S
C1348 C1354 1.379 . S
C1348 N1356 1.356 . S
C1349 C1348 1.363 . S
C1349 C1355 1.363 . S
C1350 C1351 1.363 . S
C1350 C1355 1.379 . S
C1350 N1357 1.356 . S
C1351 C1350 1.363 . S
C1351 C1354 1.363 . S
N1352 C1354 1.356 . S
N1352 H1364 0.984 . S
N1352 H1365 0.985 . S
N1353 C1355 1.356 . S
N1353 H1358 0.984 . S
N1353 H1359 0.985 . S
C1354 C1348 1.379 . S
C1354 C1351 1.363 . S
C1354 N1352 1.356 . S
C1355 C1349 1.363 . S
C1355 C1350 1.379 . S
C1355 N1353 1.356 . S
N1356 C1348 1.356 . S
N1356 H1362 0.984 . S
N1356 H1363 0.984 . S
N1357 C1350 1.356 . S
N1357 H1360 0.984 . S
N1357 H1361 0.985 . S
H1358 N1353 0.984 . S
H1359 N1353 0.985 . S
H1360 N1357 0.984 . S
H1361 N1357 0.985 . S
H1362 N1356 0.984 . S
H1363 N1356 0.984 . S
H1364 N1352 0.984 . S
H1365 N1352 0.985 . S
C1366 C1367 1.363 . S
C1366 C1372 1.379 . S
C1366 N1374 1.356 . S
C1367 C1366 1.363 . S
C1367 C1373 1.363 . S
C1368 C1369 1.363 . S
C1368 C1373 1.379 . S
C1368 N1375 1.356 . S
C1369 C1368 1.363 . S
C1369 C1372 1.363 . S
N1370 C1372 1.356 . S
N1370 H1382 0.984 . S
N1370 H1383 0.985 . S
N1371 C1373 1.356 . S
N1371 H1376 0.984 . S
N1371 H1377 0.985 . S
C1372 C1366 1.379 . S
C1372 C1369 1.363 . S
C1372 N1370 1.356 . S
C1373 C1367 1.363 . S
C1373 C1368 1.379 . S
C1373 N1371 1.356 . S
N1374 C1366 1.356 . S
N1374 H1380 0.984 . S
N1374 H1381 0.984 . S
N1375 C1368 1.356 . S
N1375 H1378 0.984 . S
N1375 H1379 0.985 . S
H1376 N1371 0.984 . S
H1377 N1371 0.985 . S
H1378 N1375 0.984 . S
H1379 N1375 0.985 . S
H1380 N1374 0.984 . S
H1381 N1374 0.984 . S
H1382 N1370 0.984 . S
H1383 N1370 0.985 . S
C1384 C1385 1.363 . S
C1384 C1390 1.379 . S
C1384 N1392 1.356 . S
C1385 C1384 1.363 . S
C1385 C1391 1.363 . S
C1386 C1387 1.363 . S
C1386 C1391 1.379 . S
C1386 N1393 1.356 1_565 S
C1387 C1386 1.363 . S
C1387 C1390 1.363 . S
N1388 C1390 1.356 . S
N1388 H1400 0.984 . S
N1388 H1401 0.985 . S
N1389 C1391 1.356 . S
N1389 H1394 0.984 . S
N1389 H1395 0.985 . S
C1390 C1384 1.379 . S
C1390 C1387 1.363 . S
C1390 N1388 1.356 . S
C1391 C1385 1.363 . S
C1391 C1386 1.379 . S
C1391 N1389 1.356 . S
N1392 C1384 1.356 . S
N1392 H1398 0.984 . S
N1392 H1399 0.984 . S
N1393 C1386 1.356 1_545 S
N1393 H1396 0.984 . S
N1393 H1397 0.985 . S
H1394 N1389 0.984 . S
H1395 N1389 0.985 . S
H1396 N1393 0.984 . S
H1397 N1393 0.985 . S
H1398 N1392 0.984 . S
H1399 N1392 0.984 . S
H1400 N1388 0.984 . S
H1401 N1388 0.985 . S
C1402 C1403 1.363 . S
C1402 C1408 1.379 . S
C1402 N1410 1.356 . S
C1403 C1402 1.363 . S
C1403 C1409 1.363 . S
C1404 C1405 1.363 . S
C1404 C1409 1.379 . S
C1404 N1411 1.356 . S
C1405 C1404 1.363 . S
C1405 C1408 1.363 . S
N1406 C1408 1.356 . S
N1406 H1418 0.984 . S
N1406 H1419 0.985 . S
N1407 C1409 1.356 . S
N1407 H1412 0.984 . S
N1407 H1413 0.985 . S
C1408 C1402 1.379 . S
C1408 C1405 1.363 . S
C1408 N1406 1.356 . S
C1409 C1403 1.363 . S
C1409 C1404 1.379 . S
C1409 N1407 1.356 . S
N1410 C1402 1.356 . S
N1410 H1416 0.984 . S
N1410 H1417 0.984 . S
N1411 C1404 1.356 . S
N1411 H1414 0.984 . S
N1411 H1415 0.985 . S
H1412 N1407 0.984 . S
H1413 N1407 0.985 . S
H1414 N1411 0.984 . S
H1415 N1411 0.985 . S
H1416 N1410 0.984 . S
H1417 N1410 0.984 . S
H1418 N1406 0.984 . S
H1419 N1406 0.985 . S
C1420 C1421 1.363 . S
C1420 C1426 1.379 . S
C1420 N1428 1.356 . S
C1421 C1420 1.363 . S
C1421 C1427 1.363 . S
C1422 C1423 1.363 . S
C1422 C1427 1.379 . S
C1422 N1429 1.356 . S
C1423 C1422 1.363 . S
C1423 C1426 1.363 . S
N1424 C1426 1.356 . S
N1424 H1436 0.984 . S
N1424 H1437 0.985 . S
N1425 C1427 1.356 . S
N1425 H1430 0.984 . S
N1425 H1431 0.985 . S
C1426 C1420 1.379 . S
C1426 C1423 1.363 . S
C1426 N1424 1.356 . S
C1427 C1421 1.363 . S
C1427 C1422 1.379 . S
C1427 N1425 1.356 . S
N1428 C1420 1.356 . S
N1428 H1434 0.984 . S
N1428 H1435 0.984 . S
N1429 C1422 1.356 . S
N1429 H1432 0.984 . S
N1429 H1433 0.985 . S
H1430 N1425 0.984 . S
H1431 N1425 0.985 . S
H1432 N1429 0.984 . S
H1433 N1429 0.985 . S
H1434 N1428 0.984 . S
H1435 N1428 0.984 . S
H1436 N1424 0.984 . S
H1437 N1424 0.985 . S
C1438 C1439 1.363 . S
C1438 C1444 1.379 . S
C1438 N1446 1.356 . S
C1439 C1438 1.363 . S
C1439 C1445 1.363 . S
C1440 C1441 1.363 . S
C1440 C1445 1.379 . S
C1440 N1447 1.356 . S
C1441 C1440 1.363 . S
C1441 C1444 1.363 . S
N1442 C1444 1.356 . S
N1442 H1454 0.984 . S
N1442 H1455 0.985 . S
N1443 C1445 1.356 . S
N1443 H1448 0.984 . S
N1443 H1449 0.985 . S
C1444 C1438 1.379 . S
C1444 C1441 1.363 . S
C1444 N1442 1.356 . S
C1445 C1439 1.363 . S
C1445 C1440 1.379 . S
C1445 N1443 1.356 . S
N1446 C1438 1.356 . S
N1446 H1452 0.984 . S
N1446 H1453 0.984 . S
N1447 C1440 1.356 . S
N1447 H1450 0.984 . S
N1447 H1451 0.985 . S
H1448 N1443 0.984 . S
H1449 N1443 0.985 . S
H1450 N1447 0.984 . S
H1451 N1447 0.985 . S
H1452 N1446 0.984 . S
H1453 N1446 0.984 . S
H1454 N1442 0.984 . S
H1455 N1442 0.985 . S
C1456 C1457 1.363 . S
C1456 C1462 1.379 . S
C1456 N1464 1.356 . S
C1457 C1456 1.363 . S
C1457 C1463 1.363 . S
C1458 C1459 1.363 . S
C1458 C1463 1.379 . S
C1458 N1465 1.356 . S
C1459 C1458 1.363 . S
C1459 C1462 1.363 . S
N1460 C1462 1.356 . S
N1460 H1472 0.984 1_455 S
N1460 H1473 0.985 . S
N1461 C1463 1.356 . S
N1461 H1466 0.984 . S
N1461 H1467 0.985 . S
C1462 C1456 1.379 . S
C1462 C1459 1.363 . S
C1462 N1460 1.356 . S
C1463 C1457 1.363 . S
C1463 C1458 1.379 . S
C1463 N1461 1.356 . S
N1464 C1456 1.356 . S
N1464 H1470 0.984 1_455 S
N1464 H1471 0.984 . S
N1465 C1458 1.356 . S
N1465 H1468 0.984 . S
N1465 H1469 0.985 . S
H1466 N1461 0.984 . S
H1467 N1461 0.985 . S
H1468 N1465 0.984 . S
H1469 N1465 0.985 . S
H1470 N1464 0.984 1_655 S
H1471 N1464 0.984 . S
H1472 N1460 0.984 1_655 S
H1473 N1460 0.985 . S
C1474 C1475 1.363 . S
C1474 C1480 1.379 . S
C1474 N1482 1.356 . S
C1475 C1474 1.363 . S
C1475 C1481 1.363 . S
C1476 C1477 1.363 . S
C1476 C1481 1.379 . S
C1476 N1483 1.356 . S
C1477 C1476 1.363 . S
C1477 C1480 1.363 . S
N1478 C1480 1.356 . S
N1478 H1490 0.984 . S
N1478 H1491 0.985 . S
N1479 C1481 1.356 . S
N1479 H1484 0.984 . S
N1479 H1485 0.985 . S
C1480 C1474 1.379 . S
C1480 C1477 1.363 . S
C1480 N1478 1.356 . S
C1481 C1475 1.363 . S
C1481 C1476 1.379 . S
C1481 N1479 1.356 . S
N1482 C1474 1.356 . S
N1482 H1488 0.984 . S
N1482 H1489 0.984 . S
N1483 C1476 1.356 . S
N1483 H1486 0.984 . S
N1483 H1487 0.985 . S
H1484 N1479 0.984 . S
H1485 N1479 0.985 . S
H1486 N1483 0.984 . S
H1487 N1483 0.985 . S
H1488 N1482 0.984 . S
H1489 N1482 0.984 . S
H1490 N1478 0.984 . S
H1491 N1478 0.985 . S
C1492 C1493 1.363 . S
C1492 C1498 1.379 . S
C1492 N1500 1.356 . S
C1493 C1492 1.363 . S
C1493 C1499 1.363 . S
C1494 C1495 1.363 . S
C1494 C1499 1.379 . S
C1494 N1501 1.356 . S
C1495 C1494 1.363 . S
C1495 C1498 1.363 . S
N1496 C1498 1.356 . S
N1496 H1508 0.984 . S
N1496 H1509 0.985 . S
N1497 C1499 1.356 . S
N1497 H1502 0.984 . S
N1497 H1503 0.985 . S
C1498 C1492 1.379 . S
C1498 C1495 1.363 . S
C1498 N1496 1.356 . S
C1499 C1493 1.363 . S
C1499 C1494 1.379 . S
C1499 N1497 1.356 . S
N1500 C1492 1.356 . S
N1500 H1506 0.984 . S
N1500 H1507 0.984 . S
N1501 C1494 1.356 . S
N1501 H1504 0.984 1_556 S
N1501 H1505 0.982 1_556 S
H1502 N1497 0.984 . S
H1503 N1497 0.985 . S
H1504 N1501 0.984 1_554 S
H1505 N1501 0.982 1_554 S
H1506 N1500 0.984 . S
H1507 N1500 0.984 . S
H1508 N1496 0.984 . S
H1509 N1496 0.985 . S
C1510 C1511 1.363 . S
C1510 C1516 1.379 . S
C1510 N1518 1.356 . S
C1511 C1510 1.363 . S
C1511 C1517 1.363 . S
C1512 C1513 1.363 . S
C1512 C1517 1.379 . S
C1512 N1519 1.356 . S
C1513 C1512 1.363 . S
C1513 C1516 1.363 . S
N1514 C1516 1.356 . S
N1514 H1526 0.984 . S
N1514 H1527 0.985 . S
N1515 C1517 1.356 . S
N1515 H1520 0.984 . S
N1515 H1521 0.985 . S
C1516 C1510 1.379 . S
C1516 C1513 1.363 . S
C1516 N1514 1.356 . S
C1517 C1511 1.363 . S
C1517 C1512 1.379 . S
C1517 N1515 1.356 . S
N1518 C1510 1.356 . S
N1518 H1524 0.984 . S
N1518 H1525 0.984 . S
N1519 C1512 1.356 . S
N1519 H1522 0.984 . S
N1519 H1523 0.985 . S
H1520 N1515 0.984 . S
H1521 N1515 0.985 . S
H1522 N1519 0.984 . S
H1523 N1519 0.985 . S
H1524 N1518 0.984 . S
H1525 N1518 0.984 . S
H1526 N1514 0.984 . S
H1527 N1514 0.985 . S
C1528 C1529 1.363 . S
C1528 C1534 1.379 . S
C1528 N1536 1.356 . S
C1529 C1528 1.363 . S
C1529 C1535 1.363 . S
C1530 C1531 1.363 . S
C1530 C1535 1.379 . S
C1530 N1537 1.356 . S
C1531 C1530 1.363 . S
C1531 C1534 1.363 . S
N1532 C1534 1.356 . S
N1532 H1544 0.984 . S
N1532 H1545 0.985 . S
N1533 C1535 1.356 . S
N1533 H1538 0.984 . S
N1533 H1539 0.985 . S
C1534 C1528 1.379 . S
C1534 C1531 1.363 . S
C1534 N1532 1.356 . S
C1535 C1529 1.363 . S
C1535 C1530 1.379 . S
C1535 N1533 1.356 . S
N1536 C1528 1.356 . S
N1536 H1542 0.984 . S
N1536 H1543 0.984 . S
N1537 C1530 1.356 . S
N1537 H1540 0.984 1_556 S
N1537 H1541 0.985 . S
H1538 N1533 0.984 . S
H1539 N1533 0.985 . S
H1540 N1537 0.984 1_554 S
H1541 N1537 0.985 . S
H1542 N1536 0.984 . S
H1543 N1536 0.984 . S
H1544 N1532 0.984 . S
H1545 N1532 0.985 . S
C1546 C1547 1.363 . S
C1546 C1552 1.379 . S
C1546 N1554 1.356 . S
C1547 C1546 1.363 . S
C1547 C1553 1.363 . S
C1548 C1549 1.363 . S
C1548 C1553 1.379 . S
C1548 N1555 1.356 . S
C1549 C1548 1.363 . S
C1549 C1552 1.363 . S
N1550 C1552 1.356 . S
N1550 H1562 0.984 . S
N1550 H1563 0.985 . S
N1551 C1553 1.356 . S
N1551 H1556 0.984 . S
N1551 H1557 0.985 . S
C1552 C1546 1.379 . S
C1552 C1549 1.363 . S
C1552 N1550 1.356 . S
C1553 C1547 1.363 . S
C1553 C1548 1.379 . S
C1553 N1551 1.356 . S
N1554 C1546 1.356 . S
N1554 H1560 0.984 . S
N1554 H1561 0.984 . S
N1555 C1548 1.356 . S
N1555 H1558 0.984 . S
N1555 H1559 0.985 . S
H1556 N1551 0.984 . S
H1557 N1551 0.985 . S
H1558 N1555 0.984 . S
H1559 N1555 0.985 . S
H1560 N1554 0.984 . S
H1561 N1554 0.984 . S
H1562 N1550 0.984 . S
H1563 N1550 0.985 . S
C1564 C1565 1.363 . S
C1564 C1570 1.379 . S
C1564 N1572 1.356 . S
C1565 C1564 1.363 . S
C1565 C1571 1.363 . S
C1566 C1567 1.363 . S
C1566 C1571 1.379 . S
C1566 N1573 1.356 . S
C1567 C1566 1.363 . S
C1567 C1570 1.363 . S
N1568 C1570 1.356 . S
N1568 H1580 0.984 . S
N1568 H1581 0.985 . S
N1569 C1571 1.356 1_565 S
N1569 H1574 0.984 . S
N1569 H1575 0.985 . S
C1570 C1564 1.379 . S
C1570 C1567 1.363 . S
C1570 N1568 1.356 . S
C1571 C1565 1.363 . S
C1571 C1566 1.379 . S
C1571 N1569 1.356 1_545 S
N1572 C1564 1.356 . S
N1572 H1578 0.984 . S
N1572 H1579 0.984 . S
N1573 C1566 1.356 . S
N1573 H1576 0.984 . S
N1573 H1577 0.985 1_545 S
H1574 N1569 0.984 . S
H1575 N1569 0.985 . S
H1576 N1573 0.984 . S
H1577 N1573 0.985 1_565 S
H1578 N1572 0.984 . S
H1579 N1572 0.984 . S
H1580 N1568 0.984 . S
H1581 N1568 0.985 . S
C1582 C1583 1.363 . S
C1582 C1588 1.379 . S
C1582 N1590 1.356 . S
C1583 C1582 1.363 . S
C1583 C1589 1.363 . S
C1584 C1585 1.363 . S
C1584 C1589 1.379 . S
C1584 N1591 1.356 . S
C1585 C1584 1.363 . S
C1585 C1588 1.363 . S
N1586 C1588 1.356 . S
N1586 H1598 0.984 . S
N1586 H1599 0.985 . S
N1587 C1589 1.356 . S
N1587 H1592 0.984 . S
N1587 H1593 0.985 . S
C1588 C1582 1.379 . S
C1588 C1585 1.363 . S
C1588 N1586 1.356 . S
C1589 C1583 1.363 . S
C1589 C1584 1.379 . S
C1589 N1587 1.356 . S
N1590 C1582 1.356 . S
N1590 H1596 0.984 . S
N1590 H1597 0.984 . S
N1591 C1584 1.356 . S
N1591 H1594 0.984 . S
N1591 H1595 0.985 . S
H1592 N1587 0.984 . S
H1593 N1587 0.985 . S
H1594 N1591 0.984 . S
H1595 N1591 0.985 . S
H1596 N1590 0.984 . S
H1597 N1590 0.984 . S
H1598 N1586 0.984 . S
H1599 N1586 0.985 . S
C1600 C1601 1.363 . S
C1600 C1606 1.379 . S
C1600 N1608 1.356 . S
C1601 C1600 1.363 . S
C1601 C1607 1.363 . S
C1602 C1603 1.363 . S
C1602 C1607 1.379 . S
C1602 N1609 1.356 . S
C1603 C1602 1.363 . S
C1603 C1606 1.363 . S
N1604 C1606 1.356 . S
N1604 H1616 0.984 . S
N1604 H1617 0.985 . S
N1605 C1607 1.356 . S
N1605 H1610 0.984 . S
N1605 H1611 0.985 . S
C1606 C1600 1.379 . S
C1606 C1603 1.363 . S
C1606 N1604 1.356 . S
C1607 C1601 1.363 . S
C1607 C1602 1.379 . S
C1607 N1605 1.356 . S
N1608 C1600 1.356 . S
N1608 H1614 0.984 . S
N1608 H1615 0.984 . S
N1609 C1602 1.356 . S
N1609 H1612 0.984 . S
N1609 H1613 0.985 . S
H1610 N1605 0.984 . S
H1611 N1605 0.985 . S
H1612 N1609 0.984 . S
H1613 N1609 0.985 . S
H1614 N1608 0.984 . S
H1615 N1608 0.984 . S
H1616 N1604 0.984 . S
H1617 N1604 0.985 . S
C1618 C1619 1.363 . S
C1618 C1624 1.379 . S
C1618 N1626 1.356 . S
C1619 C1618 1.363 . S
C1619 C1625 1.363 . S
C1620 C1621 1.363 . S
C1620 C1625 1.379 . S
C1620 N1627 1.356 . S
C1621 C1620 1.363 . S
C1621 C1624 1.363 . S
N1622 C1624 1.356 . S
N1622 H1634 0.984 . S
N1622 H1635 0.985 . S
N1623 C1625 1.356 . S
N1623 H1628 0.984 . S
N1623 H1629 0.985 . S
C1624 C1618 1.379 . S
C1624 C1621 1.363 . S
C1624 N1622 1.356 . S
C1625 C1619 1.363 . S
C1625 C1620 1.379 . S
C1625 N1623 1.356 . S
N1626 C1618 1.356 . S
N1626 H1632 0.984 . S
N1626 H1633 0.984 . S
N1627 C1620 1.356 . S
N1627 H1630 0.984 . S
N1627 H1631 0.985 . S
H1628 N1623 0.984 . S
H1629 N1623 0.985 . S
H1630 N1627 0.984 . S
H1631 N1627 0.985 . S
H1632 N1626 0.984 . S
H1633 N1626 0.984 . S
H1634 N1622 0.984 . S
H1635 N1622 0.985 . S
C1636 C1637 1.363 . S
C1636 C1642 1.379 . S
C1636 N1644 1.356 . S
C1637 C1636 1.363 . S
C1637 C1643 1.363 . S
C1638 C1639 1.363 . S
C1638 C1643 1.379 . S
C1638 N1645 1.356 . S
C1639 C1638 1.363 . S
C1639 C1642 1.363 . S
N1640 C1642 1.356 . S
N1640 H1652 0.984 . S
N1640 H1653 0.985 . S
N1641 C1643 1.356 1_565 S
N1641 H1646 0.984 . S
N1641 H1647 0.985 . S
C1642 C1636 1.379 . S
C1642 C1639 1.363 . S
C1642 N1640 1.356 . S
C1643 C1637 1.363 . S
C1643 C1638 1.379 . S
C1643 N1641 1.356 1_545 S
N1644 C1636 1.356 . S
N1644 H1650 0.984 . S
N1644 H1651 0.984 . S
N1645 C1638 1.356 . S
N1645 H1648 0.984 . S
N1645 H1649 0.985 1_545 S
H1646 N1641 0.984 . S
H1647 N1641 0.985 . S
H1648 N1645 0.984 . S
H1649 N1645 0.985 1_565 S
H1650 N1644 0.984 . S
H1651 N1644 0.984 . S
H1652 N1640 0.984 . S
H1653 N1640 0.985 . S
C1654 C1655 1.363 . S
C1654 C1660 1.379 . S
C1654 N1662 1.356 . S
C1655 C1654 1.363 . S
C1655 C1661 1.363 . S
C1656 C1657 1.363 . S
C1656 C1661 1.379 . S
C1656 N1663 1.356 . S
C1657 C1656 1.363 . S
C1657 C1660 1.363 . S
N1658 C1660 1.356 . S
N1658 H1670 0.984 . S
N1658 H1671 0.985 . S
N1659 C1661 1.356 . S
N1659 H1664 0.984 . S
N1659 H1665 0.985 . S
C1660 C1654 1.379 . S
C1660 C1657 1.363 . S
C1660 N1658 1.356 . S
C1661 C1655 1.363 . S
C1661 C1656 1.379 . S
C1661 N1659 1.356 . S
N1662 C1654 1.356 . S
N1662 H1668 0.984 . S
N1662 H1669 0.984 . S
N1663 C1656 1.356 . S
N1663 H1666 0.984 . S
N1663 H1667 0.985 . S
H1664 N1659 0.984 . S
H1665 N1659 0.985 . S
H1666 N1663 0.984 . S
H1667 N1663 0.985 . S
H1668 N1662 0.984 . S
H1669 N1662 0.984 . S
H1670 N1658 0.984 . S
H1671 N1658 0.985 . S
C1672 C1673 1.363 . S
C1672 C1678 1.379 . S
C1672 N1680 1.356 . S
C1673 C1672 1.363 . S
C1673 C1679 1.363 . S
C1674 C1675 1.363 . S
C1674 C1679 1.379 . S
C1674 N1681 1.319 1_554 S
C1675 C1674 1.363 . S
C1675 C1678 1.363 . S
N1676 C1678 1.356 . S
N1676 H1688 0.984 . S
N1676 H1689 0.985 . S
N1677 C1679 1.356 . S
N1677 H1682 0.984 . S
N1677 H1683 0.985 . S
C1678 C1672 1.379 . S
C1678 C1675 1.363 . S
C1678 N1676 1.356 . S
C1679 C1673 1.363 . S
C1679 C1674 1.379 . S
C1679 N1677 1.356 . S
N1680 C1672 1.356 . S
N1680 H1686 0.984 . S
N1680 H1687 0.984 . S
N1681 C1674 1.319 1_556 S
N1681 H1684 1.003 . S
N1681 H1685 1.004 . S
H1682 N1677 0.984 . S
H1683 N1677 0.985 . S
H1684 N1681 1.003 . S
H1685 N1681 1.004 . S
H1686 N1680 0.984 . S
H1687 N1680 0.984 . S
H1688 N1676 0.984 . S
H1689 N1676 0.985 . S
C1690 C1691 1.363 . S
C1690 C1696 1.379 . S
C1690 N1698 1.356 . S
C1691 C1690 1.363 . S
C1691 C1697 1.363 . S
C1692 C1693 1.363 . S
C1692 C1697 1.379 . S
C1692 N1699 1.356 . S
C1693 C1692 1.363 . S
C1693 C1696 1.363 . S
N1694 C1696 1.356 . S
N1694 H1706 0.984 . S
N1694 H1707 0.985 . S
N1695 C1697 1.356 . S
N1695 H1700 0.984 . S
N1695 H1701 0.985 1_554 S
C1696 C1690 1.379 . S
C1696 C1693 1.363 . S
C1696 N1694 1.356 . S
C1697 C1691 1.363 . S
C1697 C1692 1.379 . S
C1697 N1695 1.356 . S
N1698 C1690 1.356 . S
N1698 H1704 0.984 . S
N1698 H1705 0.984 . S
N1699 C1692 1.356 . S
N1699 H1702 0.984 . S
N1699 H1703 0.985 1_554 S
H1700 N1695 0.984 . S
H1701 N1695 0.985 1_556 S
H1702 N1699 0.984 . S
H1703 N1699 0.985 1_556 S
H1704 N1698 0.984 . S
H1705 N1698 0.984 . S
H1706 N1694 0.984 . S
H1707 N1694 0.985 . S
C1708 C1709 1.363 . S
C1708 C1714 1.379 . S
C1708 N1716 1.356 . S
C1709 C1708 1.363 . S
C1709 C1715 1.363 . S
C1710 C1711 1.363 . S
C1710 C1715 1.379 . S
C1710 N1717 1.356 . S
C1711 C1710 1.363 . S
C1711 C1714 1.363 . S
N1712 C1714 1.356 . S
N1712 H1724 0.984 . S
N1712 H1725 0.985 . S
N1713 C1715 1.356 . S
N1713 H1718 0.984 . S
N1713 H1719 0.985 . S
C1714 C1708 1.379 . S
C1714 C1711 1.363 . S
C1714 N1712 1.356 . S
C1715 C1709 1.363 . S
C1715 C1710 1.379 . S
C1715 N1713 1.356 . S
N1716 C1708 1.356 . S
N1716 H1722 0.984 . S
N1716 H1723 0.984 . S
N1717 C1710 1.356 . S
N1717 H1720 0.984 . S
N1717 H1721 0.985 . S
H1718 N1713 0.984 . S
H1719 N1713 0.985 . S
H1720 N1717 0.984 . S
H1721 N1717 0.985 . S
H1722 N1716 0.984 . S
H1723 N1716 0.984 . S
H1724 N1712 0.984 . S
H1725 N1712 0.985 . S
C1726 C1727 1.363 . S
C1726 C1732 1.379 . S
C1726 N1734 1.356 . S
C1727 C1726 1.363 . S
C1727 C1733 1.363 . S
C1728 C1729 1.363 . S
C1728 C1733 1.379 . S
C1728 N1735 1.356 . S
C1729 C1728 1.363 . S
C1729 C1732 1.363 . S
N1730 C1732 1.356 . S
N1730 H1742 0.984 . S
N1730 H1743 0.985 . S
N1731 C1733 1.356 . S
N1731 H1736 0.984 . S
N1731 H1737 0.985 . S
C1732 C1726 1.379 . S
C1732 C1729 1.363 . S
C1732 N1730 1.356 . S
C1733 C1727 1.363 . S
C1733 C1728 1.379 . S
C1733 N1731 1.356 . S
N1734 C1726 1.356 . S
N1734 H1740 0.984 . S
N1734 H1741 0.984 . S
N1735 C1728 1.356 . S
N1735 H1738 0.984 . S
N1735 H1739 0.985 . S
H1736 N1731 0.984 . S
H1737 N1731 0.985 . S
H1738 N1735 0.984 . S
H1739 N1735 0.985 . S
H1740 N1734 0.984 . S
H1741 N1734 0.984 . S
H1742 N1730 0.984 . S
H1743 N1730 0.985 . S
C1744 C1745 1.363 1_565 S
C1744 C1750 1.379 . S
C1744 N1752 1.356 1_565 S
C1745 C1744 1.363 1_545 S
C1745 C1751 1.370 . S
C1746 C1747 1.363 . S
C1746 C1751 1.370 1_565 S
C1746 N1753 1.356 . S
C1747 C1746 1.363 . S
C1747 C1750 1.363 . S
N1748 C1750 1.356 . S
N1748 H1760 0.984 . S
N1748 H1761 0.985 . S
N1749 C1751 1.362 . S
N1749 H1754 0.984 . S
N1749 H1755 0.985 . S
C1750 C1744 1.379 . S
C1750 C1747 1.363 . S
C1750 N1748 1.356 . S
C1751 C1745 1.370 . S
C1751 C1746 1.370 1_545 S
C1751 N1749 1.362 . S
N1752 C1744 1.356 1_545 S
N1752 H1758 0.985 1_545 S
N1752 H1759 0.984 . S
N1753 C1746 1.356 . S
N1753 H1756 0.984 . S
N1753 H1757 0.985 . S
H1754 N1749 0.984 . S
H1755 N1749 0.985 . S
H1756 N1753 0.984 . S
H1757 N1753 0.985 . S
H1758 N1752 0.985 1_565 S
H1759 N1752 0.984 . S
H1760 N1748 0.984 . S
H1761 N1748 0.985 . S
C1762 C1763 1.363 . S
C1762 C1768 1.379 . S
C1762 N1770 1.356 . S
C1763 C1762 1.363 . S
C1763 C1769 1.363 . S
C1764 C1765 1.363 . S
C1764 C1769 1.379 . S
C1764 N1771 1.356 . S
C1765 C1764 1.363 . S
C1765 C1768 1.363 . S
N1766 C1768 1.356 . S
N1766 H1778 0.984 . S
N1766 H1779 0.985 . S
N1767 C1769 1.356 . S
N1767 H1772 0.984 . S
N1767 H1773 0.985 . S
C1768 C1762 1.379 . S
C1768 C1765 1.363 . S
C1768 N1766 1.356 . S
C1769 C1763 1.363 . S
C1769 C1764 1.379 . S
C1769 N1767 1.356 . S
N1770 C1762 1.356 . S
N1770 H1776 0.984 . S
N1770 H1777 0.984 . S
N1771 C1764 1.356 . S
N1771 H1774 0.984 . S
N1771 H1775 0.985 . S
H1772 N1767 0.984 . S
H1773 N1767 0.985 . S
H1774 N1771 0.984 . S
H1775 N1771 0.985 . S
H1776 N1770 0.984 . S
H1777 N1770 0.984 . S
H1778 N1766 0.984 . S
H1779 N1766 0.985 . S
C1780 C1781 1.363 . S
C1780 C1786 1.379 . S
C1780 N1788 1.356 . S
C1781 C1780 1.363 . S
C1781 C1787 1.363 . S
C1782 C1783 1.363 . S
C1782 C1787 1.379 . S
C1782 N1789 1.356 . S
C1783 C1782 1.363 . S
C1783 C1786 1.363 . S
N1784 C1786 1.356 . S
N1784 H1796 0.984 . S
N1784 H1797 0.985 . S
N1785 C1787 1.356 . S
N1785 H1790 0.984 . S
N1785 H1791 0.985 . S
C1786 C1780 1.379 . S
C1786 C1783 1.363 . S
C1786 N1784 1.356 . S
C1787 C1781 1.363 . S
C1787 C1782 1.379 . S
C1787 N1785 1.356 . S
N1788 C1780 1.356 . S
N1788 H1794 0.984 . S
N1788 H1795 0.984 . S
N1789 C1782 1.356 . S
N1789 H1792 0.984 . S
N1789 H1793 0.985 . S
H1790 N1785 0.984 . S
H1791 N1785 0.985 . S
H1792 N1789 0.984 . S
H1793 N1789 0.985 . S
H1794 N1788 0.984 . S
H1795 N1788 0.984 . S
H1796 N1784 0.984 . S
H1797 N1784 0.985 . S
C1798 C1799 1.363 . S
C1798 C1804 1.379 . S
C1798 N1806 1.356 . S
C1799 C1798 1.363 . S
C1799 C1805 1.363 . S
C1800 C1801 1.363 . S
C1800 C1805 1.379 . S
C1800 N1807 1.356 . S
C1801 C1800 1.363 . S
C1801 C1804 1.363 . S
N1802 C1804 1.356 . S
N1802 H1814 0.984 . S
N1802 H1815 0.985 . S
N1803 C1805 1.356 . S
N1803 H1808 0.984 . S
N1803 H1809 0.985 . S
C1804 C1798 1.379 . S
C1804 C1801 1.363 . S
C1804 N1802 1.356 . S
C1805 C1799 1.363 . S
C1805 C1800 1.379 . S
C1805 N1803 1.356 . S
N1806 C1798 1.356 . S
N1806 H1812 0.984 . S
N1806 H1813 0.984 . S
N1807 C1800 1.356 . S
N1807 H1810 0.984 . S
N1807 H1811 0.985 . S
H1808 N1803 0.984 . S
H1809 N1803 0.985 . S
H1810 N1807 0.984 . S
H1811 N1807 0.985 . S
H1812 N1806 0.984 . S
H1813 N1806 0.984 . S
H1814 N1802 0.984 . S
H1815 N1802 0.985 . S
C1816 C1817 1.363 . S
C1816 C1822 1.379 . S
C1816 N1824 1.356 . S
C1817 C1816 1.363 . S
C1817 C1823 1.363 . S
C1818 C1819 1.363 . S
C1818 C1823 1.379 . S
C1818 N1825 1.356 . S
C1819 C1818 1.363 . S
C1819 C1822 1.363 . S
N1820 C1822 1.356 . S
N1820 H1832 0.984 . S
N1820 H1833 0.985 . S
N1821 C1823 1.356 . S
N1821 H1826 0.984 . S
N1821 H1827 0.985 . S
C1822 C1816 1.379 . S
C1822 C1819 1.363 . S
C1822 N1820 1.356 . S
C1823 C1817 1.363 . S
C1823 C1818 1.379 . S
C1823 N1821 1.356 . S
N1824 C1816 1.356 . S
N1824 H1830 0.984 . S
N1824 H1831 0.984 . S
N1825 C1818 1.356 . S
N1825 H1828 0.984 . S
N1825 H1829 0.985 . S
H1826 N1821 0.984 . S
H1827 N1821 0.985 . S
H1828 N1825 0.984 . S
H1829 N1825 0.985 . S
H1830 N1824 0.984 . S
H1831 N1824 0.984 . S
H1832 N1820 0.984 . S
H1833 N1820 0.985 . S
C1834 C1835 1.363 . S
C1834 C1840 1.379 . S
C1834 N1842 1.356 . S
C1835 C1834 1.363 . S
C1835 C1841 1.363 . S
C1836 C1837 1.363 . S
C1836 C1841 1.379 . S
C1836 N1843 1.356 . S
C1837 C1836 1.363 . S
C1837 C1840 1.363 . S
N1838 C1840 1.356 . S
N1838 H1850 0.984 . S
N1838 H1851 0.985 . S
N1839 C1841 1.356 . S
N1839 H1844 0.984 . S
N1839 H1845 0.985 . S
C1840 C1834 1.379 . S
C1840 C1837 1.363 . S
C1840 N1838 1.356 . S
C1841 C1835 1.363 . S
C1841 C1836 1.379 . S
C1841 N1839 1.356 . S
N1842 C1834 1.356 . S
N1842 H1848 0.984 . S
N1842 H1849 0.984 . S
N1843 C1836 1.356 . S
N1843 H1846 0.984 . S
N1843 H1847 0.985 . S
H1844 N1839 0.984 . S
H1845 N1839 0.985 . S
H1846 N1843 0.984 . S
H1847 N1843 0.985 . S
H1848 N1842 0.984 . S
H1849 N1842 0.984 . S
H1850 N1838 0.984 . S
H1851 N1838 0.985 . S
C1852 C1853 1.363 1_654 S
C1852 C1858 1.379 1_655 S
C1852 N1860 1.356 . S
C1853 C1852 1.363 1_456 S
C1853 C1859 1.363 . S
C1854 C1855 1.363 . S
C1854 C1859 1.379 1_554 S
C1854 N1861 1.356 . S
C1855 C1854 1.363 . S
C1855 C1858 1.363 . S
N1856 C1858 1.356 1_655 S
N1856 H1868 0.984 . S
N1856 H1869 0.985 1_655 S
N1857 C1859 1.356 . S
N1857 H1862 0.984 . S
N1857 H1863 0.985 . S
C1858 C1852 1.379 1_455 S
C1858 C1855 1.363 . S
C1858 N1856 1.356 1_455 S
C1859 C1853 1.363 . S
C1859 C1854 1.379 1_556 S
C1859 N1857 1.356 . S
N1860 C1852 1.356 . S
N1860 H1866 0.984 . S
N1860 H1867 0.984 . S
N1861 C1854 1.356 . S
N1861 H1864 0.984 . S
N1861 H1865 0.985 1_554 S
H1862 N1857 0.984 . S
H1863 N1857 0.985 . S
H1864 N1861 0.984 . S
H1865 N1861 0.985 1_556 S
H1866 N1860 0.984 . S
H1867 N1860 0.984 . S
H1868 N1856 0.984 . S
H1869 N1856 0.985 1_455 S
C1870 C1871 1.363 . S
C1870 C1876 1.379 . S
C1870 N1878 1.356 . S
C1871 C1870 1.363 . S
C1871 C1877 1.363 . S
C1872 C1873 1.363 . S
C1872 C1877 1.379 1_655 S
C1872 N1879 1.356 . S
C1873 C1872 1.363 . S
C1873 C1876 1.363 1_655 S
N1874 C1876 1.356 . S
N1874 H1886 0.984 . S
N1874 H1887 0.985 1_455 S
N1875 C1877 1.356 . S
N1875 H1880 0.984 . S
N1875 H1881 0.985 1_455 S
C1876 C1870 1.379 . S
C1876 C1873 1.363 1_455 S
C1876 N1874 1.356 . S
C1877 C1871 1.363 . S
C1877 C1872 1.379 1_455 S
C1877 N1875 1.356 . S
N1878 C1870 1.356 . S
N1878 H1884 0.984 . S
N1878 H1885 0.984 . S
N1879 C1872 1.356 . S
N1879 H1882 0.984 . S
N1879 H1883 0.985 . S
H1880 N1875 0.984 . S
H1881 N1875 0.985 1_655 S
H1882 N1879 0.984 . S
H1883 N1879 0.985 . S
H1884 N1878 0.984 . S
H1885 N1878 0.984 . S
H1886 N1874 0.984 . S
H1887 N1874 0.985 1_655 S
C1888 C1889 1.363 . S
C1888 C1894 1.379 . S
C1888 N1896 1.356 . S
C1889 C1888 1.363 . S
C1889 C1895 1.363 . S
C1890 C1891 1.363 . S
C1890 C1895 1.379 . S
C1890 N1897 1.356 . S
C1891 C1890 1.363 . S
C1891 C1894 1.363 . S
N1892 C1894 1.356 . S
N1892 H1904 0.984 . S
N1892 H1905 0.985 . S
N1893 C1895 1.356 . S
N1893 H1898 0.984 . S
N1893 H1899 0.985 . S
C1894 C1888 1.379 . S
C1894 C1891 1.363 . S
C1894 N1892 1.356 . S
C1895 C1889 1.363 . S
C1895 C1890 1.379 . S
C1895 N1893 1.356 . S
N1896 C1888 1.356 . S
N1896 H1902 0.984 . S
N1896 H1903 0.984 . S
N1897 C1890 1.356 . S
N1897 H1900 0.984 . S
N1897 H1901 0.985 . S
H1898 N1893 0.984 . S
H1899 N1893 0.985 . S
H1900 N1897 0.984 . S
H1901 N1897 0.985 . S
H1902 N1896 0.984 . S
H1903 N1896 0.984 . S
H1904 N1892 0.984 . S
H1905 N1892 0.985 . S
C1906 C1907 1.363 . S
C1906 C1912 1.379 . S
C1906 N1914 1.356 . S
C1907 C1906 1.363 . S
C1907 C1913 1.363 . S
C1908 C1909 1.363 . S
C1908 C1913 1.379 . S
C1908 N1915 1.356 . S
C1909 C1908 1.363 . S
C1909 C1912 1.363 . S
N1910 C1912 1.356 . S
N1910 H1922 0.984 . S
N1910 H1923 0.985 . S
N1911 C1913 1.356 . S
N1911 H1916 0.984 . S
N1911 H1917 0.985 . S
C1912 C1906 1.379 . S
C1912 C1909 1.363 . S
C1912 N1910 1.356 . S
C1913 C1907 1.363 . S
C1913 C1908 1.379 . S
C1913 N1911 1.356 . S
N1914 C1906 1.356 . S
N1914 H1920 0.980 1_655 S
N1914 H1921 0.973 1_655 S
N1915 C1908 1.356 . S
N1915 H1918 0.984 . S
N1915 H1919 0.985 . S
H1916 N1911 0.984 . S
H1917 N1911 0.985 . S
H1918 N1915 0.984 . S
H1919 N1915 0.985 . S
H1920 N1914 0.980 1_455 S
H1921 N1914 0.973 1_455 S
H1922 N1910 0.984 . S
H1923 N1910 0.985 . S
C1924 C1925 1.363 . S
C1924 C1930 1.379 . S
C1924 N1932 1.356 . S
C1925 C1924 1.363 . S
C1925 C1931 1.363 . S
C1926 C1927 1.363 . S
C1926 C1931 1.379 . S
C1926 N1933 1.356 1_455 S
C1927 C1926 1.363 . S
C1927 C1930 1.363 . S
N1928 C1930 1.356 . S
N1928 H1940 0.984 . S
N1928 H1941 0.985 . S
N1929 C1931 1.356 1_655 S
N1929 H1934 0.985 1_655 S
N1929 H1935 0.985 . S
C1930 C1924 1.379 . S
C1930 C1927 1.363 . S
C1930 N1928 1.356 . S
C1931 C1925 1.363 . S
C1931 C1926 1.379 . S
C1931 N1929 1.356 1_455 S
N1932 C1924 1.356 . S
N1932 H1938 0.984 . S
N1932 H1939 0.984 . S
N1933 C1926 1.356 1_655 S
N1933 H1936 0.985 1_655 S
N1933 H1937 0.985 . S
H1934 N1929 0.985 1_455 S
H1935 N1929 0.985 . S
H1936 N1933 0.985 1_455 S
H1937 N1933 0.985 . S
H1938 N1932 0.984 . S
H1939 N1932 0.984 . S
H1940 N1928 0.984 . S
H1941 N1928 0.985 . S
C1942 C1943 1.363 . S
C1942 C1948 1.379 . S
C1942 N1950 1.356 . S
C1943 C1942 1.363 . S
C1943 C1949 1.363 . S
C1944 C1945 1.363 . S
C1944 C1949 1.379 . S
C1944 N1951 1.356 . S
C1945 C1944 1.363 . S
C1945 C1948 1.363 . S
N1946 C1948 1.356 . S
N1946 H1958 0.984 . S
N1946 H1959 0.985 . S
N1947 C1949 1.356 . S
N1947 H1952 0.984 . S
N1947 H1953 0.985 . S
C1948 C1942 1.379 . S
C1948 C1945 1.363 . S
C1948 N1946 1.356 . S
C1949 C1943 1.363 . S
C1949 C1944 1.379 . S
C1949 N1947 1.356 . S
N1950 C1942 1.356 . S
N1950 H1956 0.984 . S
N1950 H1957 0.984 . S
N1951 C1944 1.356 . S
N1951 H1954 0.984 . S
N1951 H1955 0.985 . S
H1952 N1947 0.984 . S
H1953 N1947 0.985 . S
H1954 N1951 0.984 . S
H1955 N1951 0.985 . S
H1956 N1950 0.984 . S
H1957 N1950 0.984 . S
H1958 N1946 0.984 . S
H1959 N1946 0.985 . S
C1960 C1961 1.363 . S
C1960 C1966 1.379 . S
C1960 N1968 1.356 . S
C1961 C1960 1.363 . S
C1961 C1967 1.363 . S
C1962 C1963 1.363 . S
C1962 C1967 1.379 . S
C1962 N1969 1.356 . S
C1963 C1962 1.363 . S
C1963 C1966 1.363 . S
N1964 C1966 1.356 . S
N1964 H1976 0.984 . S
N1964 H1977 0.985 . S
N1965 C1967 1.356 . S
N1965 H1970 0.984 . S
N1965 H1971 0.985 . S
C1966 C1960 1.379 . S
C1966 C1963 1.363 . S
C1966 N1964 1.356 . S
C1967 C1961 1.363 . S
C1967 C1962 1.379 . S
C1967 N1965 1.356 . S
N1968 C1960 1.356 . S
N1968 H1974 0.984 . S
N1968 H1975 0.984 . S
N1969 C1962 1.356 . S
N1969 H1972 0.984 . S
N1969 H1973 0.985 . S
H1970 N1965 0.984 . S
H1971 N1965 0.985 . S
H1972 N1969 0.984 . S
H1973 N1969 0.985 . S
H1974 N1968 0.984 . S
H1975 N1968 0.984 . S
H1976 N1964 0.984 . S
H1977 N1964 0.985 . S
C1978 C1979 1.363 1_556 S
C1978 C1984 1.379 . S
C1978 N1986 1.356 . S
C1979 C1978 1.363 1_554 S
C1979 C1985 1.363 . S
C1980 C1981 1.363 1_554 S
C1980 C1985 1.379 . S
C1980 N1987 1.356 . S
C1981 C1980 1.363 1_556 S
C1981 C1984 1.363 . S
N1982 C1984 1.356 . S
N1982 H1994 0.984 . S
N1982 H1995 0.985 . S
N1983 C1985 1.356 . S
N1983 H1988 0.984 . S
N1983 H1989 0.985 . S
C1984 C1978 1.379 . S
C1984 C1981 1.363 . S
C1984 N1982 1.356 . S
C1985 C1979 1.363 . S
C1985 C1980 1.379 . S
C1985 N1983 1.356 . S
N1986 C1978 1.356 . S
N1986 H1992 0.984 . S
N1986 H1993 0.984 1_556 S
N1987 C1980 1.356 . S
N1987 H1990 0.984 1_554 S
N1987 H1991 0.985 . S
H1988 N1983 0.984 . S
H1989 N1983 0.985 . S
H1990 N1987 0.984 1_556 S
H1991 N1987 0.985 . S
H1992 N1986 0.984 . S
H1993 N1986 0.984 1_554 S
H1994 N1982 0.984 . S
H1995 N1982 0.985 . S
C1996 C1997 1.363 . S
C1996 C2002 1.379 . S
C1996 N2004 1.356 . S
C1997 C1996 1.363 . S
C1997 C2003 1.363 . S
C1998 C1999 1.363 . S
C1998 C2003 1.379 . S
C1998 N2005 1.356 . S
C1999 C1998 1.363 . S
C1999 C2002 1.363 . S
N2000 C2002 1.356 . S
N2000 H2012 0.984 . S
N2000 H2013 0.985 . S
N2001 C2003 1.356 . S
N2001 H2006 0.984 . S
N2001 H2007 0.985 . S
C2002 C1996 1.379 . S
C2002 C1999 1.363 . S
C2002 N2000 1.356 . S
C2003 C1997 1.363 . S
C2003 C1998 1.379 . S
C2003 N2001 1.356 . S
N2004 C1996 1.356 . S
N2004 H2010 0.984 . S
N2004 H2011 0.984 . S
N2005 C1998 1.356 . S
N2005 H2008 0.984 . S
N2005 H2009 0.985 . S
H2006 N2001 0.984 . S
H2007 N2001 0.985 . S
H2008 N2005 0.984 . S
H2009 N2005 0.985 . S
H2010 N2004 0.984 . S
H2011 N2004 0.984 . S
H2012 N2000 0.984 . S
H2013 N2000 0.985 . S
C2014 C2015 1.363 . S
C2014 C2020 1.379 . S
C2014 N2022 1.356 . S
C2015 C2014 1.363 . S
C2015 C2021 1.363 . S
C2016 C2017 1.363 . S
C2016 C2021 1.379 . S
C2016 N2023 1.356 . S
C2017 C2016 1.363 . S
C2017 C2020 1.363 . S
N2018 C2020 1.356 . S
N2018 H2030 0.984 . S
N2018 H2031 0.985 . S
N2019 C2021 1.356 . S
N2019 H2024 0.984 . S
N2019 H2025 0.985 . S
C2020 C2014 1.379 . S
C2020 C2017 1.363 . S
C2020 N2018 1.356 . S
C2021 C2015 1.363 . S
C2021 C2016 1.379 . S
C2021 N2019 1.356 . S
N2022 C2014 1.356 . S
N2022 H2028 0.984 . S
N2022 H2029 0.984 . S
N2023 C2016 1.356 . S
N2023 H2026 0.984 . S
N2023 H2027 0.985 . S
H2024 N2019 0.984 . S
H2025 N2019 0.985 . S
H2026 N2023 0.984 . S
H2027 N2023 0.985 . S
H2028 N2022 0.984 . S
H2029 N2022 0.984 . S
H2030 N2018 0.984 . S
H2031 N2018 0.985 . S
C2032 C2033 1.363 . S
C2032 C2038 1.379 . S
C2032 N2040 1.356 . S
C2033 C2032 1.363 . S
C2033 C2039 1.363 . S
C2034 C2035 1.363 . S
C2034 C2039 1.379 . S
C2034 N2041 1.356 . S
C2035 C2034 1.363 . S
C2035 C2038 1.363 . S
N2036 C2038 1.356 . S
N2036 H2048 0.984 . S
N2036 H2049 0.985 . S
N2037 C2039 1.356 . S
N2037 H2042 0.984 . S
N2037 H2043 0.985 . S
C2038 C2032 1.379 . S
C2038 C2035 1.363 . S
C2038 N2036 1.356 . S
C2039 C2033 1.363 . S
C2039 C2034 1.379 . S
C2039 N2037 1.356 . S
N2040 C2032 1.356 . S
N2040 H2046 0.984 . S
N2040 H2047 0.984 . S
N2041 C2034 1.356 . S
N2041 H2044 0.984 . S
N2041 H2045 0.985 . S
H2042 N2037 0.984 . S
H2043 N2037 0.985 . S
H2044 N2041 0.984 . S
H2045 N2041 0.985 . S
H2046 N2040 0.984 . S
H2047 N2040 0.984 . S
H2048 N2036 0.984 . S
H2049 N2036 0.985 . S
C2050 C2051 1.363 . S
C2050 C2056 1.379 . S
C2050 N2058 1.356 . S
C2051 C2050 1.363 . S
C2051 C2057 1.363 . S
C2052 C2053 1.363 . S
C2052 C2057 1.379 . S
C2052 N2059 1.356 . S
C2053 C2052 1.363 . S
C2053 C2056 1.363 . S
N2054 C2056 1.356 . S
N2054 H2066 0.984 . S
N2054 H2067 0.985 . S
N2055 C2057 1.356 . S
N2055 H2060 0.984 . S
N2055 H2061 0.985 . S
C2056 C2050 1.379 . S
C2056 C2053 1.363 . S
C2056 N2054 1.356 . S
C2057 C2051 1.363 . S
C2057 C2052 1.379 . S
C2057 N2055 1.356 . S
N2058 C2050 1.356 . S
N2058 H2064 0.984 . S
N2058 H2065 0.984 . S
N2059 C2052 1.356 . S
N2059 H2062 0.984 . S
N2059 H2063 0.985 . S
H2060 N2055 0.984 . S
H2061 N2055 0.985 . S
H2062 N2059 0.984 . S
H2063 N2059 0.985 . S
H2064 N2058 0.984 . S
H2065 N2058 0.984 . S
H2066 N2054 0.984 . S
H2067 N2054 0.985 . S
C2068 C2069 1.363 . S
C2068 C2074 1.379 . S
C2068 N2076 1.356 . S
C2069 C2068 1.363 . S
C2069 C2075 1.363 . S
C2070 C2071 1.363 . S
C2070 C2075 1.379 . S
C2070 N2077 1.356 . S
C2071 C2070 1.363 . S
C2071 C2074 1.363 . S
N2072 C2074 1.356 . S
N2072 H2084 0.984 . S
N2072 H2085 0.985 . S
N2073 C2075 1.356 . S
N2073 H2078 0.984 . S
N2073 H2079 0.985 . S
C2074 C2068 1.379 . S
C2074 C2071 1.363 . S
C2074 N2072 1.356 . S
C2075 C2069 1.363 . S
C2075 C2070 1.379 . S
C2075 N2073 1.356 . S
N2076 C2068 1.356 . S
N2076 H2082 0.984 . S
N2076 H2083 0.984 . S
N2077 C2070 1.356 . S
N2077 H2080 0.984 . S
N2077 H2081 0.985 . S
H2078 N2073 0.984 . S
H2079 N2073 0.985 . S
H2080 N2077 0.984 . S
H2081 N2077 0.985 . S
H2082 N2076 0.984 . S
H2083 N2076 0.984 . S
H2084 N2072 0.984 . S
H2085 N2072 0.985 . S
C2086 C2087 1.363 . S
C2086 C2092 1.379 . S
C2086 N2094 1.356 . S
C2087 C2086 1.363 . S
C2087 C2093 1.363 . S
C2088 C2089 1.363 . S
C2088 C2093 1.379 . S
C2088 N2095 1.356 . S
C2089 C2088 1.363 . S
C2089 C2092 1.363 . S
N2090 C2092 1.356 . S
N2090 H2102 0.984 . S
N2090 H2103 0.985 . S
N2091 C2093 1.356 . S
N2091 H2096 0.984 . S
N2091 H2097 0.985 . S
C2092 C2086 1.379 . S
C2092 C2089 1.363 . S
C2092 N2090 1.356 . S
C2093 C2087 1.363 . S
C2093 C2088 1.379 . S
C2093 N2091 1.356 . S
N2094 C2086 1.356 . S
N2094 H2100 0.984 . S
N2094 H2101 0.984 . S
N2095 C2088 1.356 . S
N2095 H2098 0.984 . S
N2095 H2099 0.985 . S
H2096 N2091 0.984 . S
H2097 N2091 0.985 . S
H2098 N2095 0.984 . S
H2099 N2095 0.985 . S
H2100 N2094 0.984 . S
H2101 N2094 0.984 . S
H2102 N2090 0.984 . S
H2103 N2090 0.985 . S
C2104 C2105 1.363 . S
C2104 C2110 1.379 . S
C2104 N2112 1.356 . S
C2105 C2104 1.363 . S
C2105 C2111 1.363 . S
C2106 C2107 1.363 . S
C2106 C2111 1.379 . S
C2106 N2113 1.356 . S
C2107 C2106 1.363 . S
C2107 C2110 1.363 . S
N2108 C2110 1.356 . S
N2108 H2120 0.984 . S
N2108 H2121 0.985 . S
N2109 C2111 1.356 . S
N2109 H2114 0.984 . S
N2109 H2115 0.985 . S
C2110 C2104 1.379 . S
C2110 C2107 1.363 . S
C2110 N2108 1.356 . S
C2111 C2105 1.363 . S
C2111 C2106 1.379 . S
C2111 N2109 1.356 . S
N2112 C2104 1.356 . S
N2112 H2118 0.984 . S
N2112 H2119 0.984 . S
N2113 C2106 1.356 . S
N2113 H2116 0.984 . S
N2113 H2117 0.985 . S
H2114 N2109 0.984 . S
H2115 N2109 0.985 . S
H2116 N2113 0.984 . S
H2117 N2113 0.985 . S
H2118 N2112 0.984 . S
H2119 N2112 0.984 . S
H2120 N2108 0.984 . S
H2121 N2108 0.985 . S
C2122 C2123 1.363 . S
C2122 C2128 1.379 . S
C2122 N2130 1.356 . S
C2123 C2122 1.363 . S
C2123 C2129 1.363 . S
C2124 C2125 1.363 . S
C2124 C2129 1.379 . S
C2124 N2131 1.356 . S
C2125 C2124 1.363 . S
C2125 C2128 1.363 . S
N2126 C2128 1.356 . S
N2126 H2138 0.984 . S
N2126 H2139 0.985 . S
N2127 C2129 1.356 . S
N2127 H2132 0.984 . S
N2127 H2133 0.985 . S
C2128 C2122 1.379 . S
C2128 C2125 1.363 . S
C2128 N2126 1.356 . S
C2129 C2123 1.363 . S
C2129 C2124 1.379 . S
C2129 N2127 1.356 . S
N2130 C2122 1.356 . S
N2130 H2136 0.984 . S
N2130 H2137 0.984 . S
N2131 C2124 1.356 . S
N2131 H2134 0.984 . S
N2131 H2135 0.985 . S
H2132 N2127 0.984 . S
H2133 N2127 0.985 . S
H2134 N2131 0.984 . S
H2135 N2131 0.985 . S
H2136 N2130 0.984 . S
H2137 N2130 0.984 . S
H2138 N2126 0.984 . S
H2139 N2126 0.985 . S
C2140 C2141 1.363 1_565 S
C2140 C2146 1.379 . S
C2140 N2148 1.356 . S
C2141 C2140 1.363 1_545 S
C2141 C2147 1.363 . S
C2142 C2143 1.363 . S
C2142 C2147 1.379 . S
C2142 N2149 1.356 . S
C2143 C2142 1.363 . S
C2143 C2146 1.363 1_545 S
N2144 C2146 1.356 . S
N2144 H2156 0.984 . S
N2144 H2157 0.985 . S
N2145 C2147 1.356 . S
N2145 H2150 0.984 . S
N2145 H2151 0.985 . S
C2146 C2140 1.379 . S
C2146 C2143 1.363 1_565 S
C2146 N2144 1.356 . S
C2147 C2141 1.363 . S
C2147 C2142 1.379 . S
C2147 N2145 1.356 . S
N2148 C2140 1.356 . S
N2148 H2154 0.984 . S
N2148 H2155 0.984 . S
N2149 C2142 1.356 . S
N2149 H2152 0.984 . S
N2149 H2153 0.985 . S
H2150 N2145 0.984 . S
H2151 N2145 0.985 . S
H2152 N2149 0.984 . S
H2153 N2149 0.985 . S
H2154 N2148 0.984 . S
H2155 N2148 0.984 . S
H2156 N2144 0.984 . S
H2157 N2144 0.985 . S
C2158 C2159 1.363 1_544 S
C2158 C2164 1.379 . S
C2158 N2166 1.356 1_545 S
C2159 C2158 1.363 1_566 S
C2159 C2165 1.363 . S
C2160 C2161 1.363 1_556 S
C2160 C2165 1.379 1_545 S
C2160 N2167 1.356 . S
C2161 C2160 1.363 1_554 S
C2161 C2164 1.363 . S
N2162 C2164 1.356 . S
N2162 H2174 0.984 . S
N2162 H2175 0.985 . S
N2163 C2165 1.356 . S
N2163 H2168 0.984 . S
N2163 H2169 0.985 . S
C2164 C2158 1.379 . S
C2164 C2161 1.363 . S
C2164 N2162 1.356 . S
C2165 C2159 1.363 . S
C2165 C2160 1.379 1_565 S
C2165 N2163 1.356 . S
N2166 C2158 1.356 1_565 S
N2166 H2172 0.984 1_565 S
N2166 H2173 0.984 . S
N2167 C2160 1.356 . S
N2167 H2170 0.984 1_556 S
N2167 H2171 0.985 . S
H2168 N2163 0.984 . S
H2169 N2163 0.985 . S
H2170 N2167 0.984 1_554 S
H2171 N2167 0.985 . S
H2172 N2166 0.984 1_545 S
H2173 N2166 0.984 . S
H2174 N2162 0.984 . S
H2175 N2162 0.985 . S
C2176 C2177 1.363 . S
C2176 C2182 1.379 . S
C2176 N2184 1.356 . S
C2177 C2176 1.363 . S
C2177 C2183 1.363 . S
C2178 C2179 1.363 . S
C2178 C2183 1.379 . S
C2178 N2185 1.356 . S
C2179 C2178 1.363 . S
C2179 C2182 1.363 . S
N2180 C2182 1.356 . S
N2180 H2192 0.984 . S
N2180 H2193 0.985 . S
N2181 C2183 1.356 . S
N2181 H2186 0.984 . S
N2181 H2187 0.985 . S
C2182 C2176 1.379 . S
C2182 C2179 1.363 . S
C2182 N2180 1.356 . S
C2183 C2177 1.363 . S
C2183 C2178 1.379 . S
C2183 N2181 1.356 . S
N2184 C2176 1.356 . S
N2184 H2190 0.984 . S
N2184 H2191 0.984 . S
N2185 C2178 1.356 . S
N2185 H2188 0.984 . S
N2185 H2189 0.985 . S
H2186 N2181 0.984 . S
H2187 N2181 0.985 . S
H2188 N2185 0.984 . S
H2189 N2185 0.985 . S
H2190 N2184 0.984 . S
H2191 N2184 0.984 . S
H2192 N2180 0.984 . S
H2193 N2180 0.985 . S
C2194 C2195 1.363 . S
C2194 C2200 1.379 . S
C2194 N2202 1.356 . S
C2195 C2194 1.363 . S
C2195 C2201 1.363 . S
C2196 C2197 1.363 . S
C2196 C2201 1.379 . S
C2196 N2203 1.356 . S
C2197 C2196 1.363 . S
C2197 C2200 1.363 . S
N2198 C2200 1.356 . S
N2198 H2210 0.984 . S
N2198 H2211 0.985 . S
N2199 C2201 1.356 . S
N2199 H2204 0.984 . S
N2199 H2205 0.985 . S
C2200 C2194 1.379 . S
C2200 C2197 1.363 . S
C2200 N2198 1.356 . S
C2201 C2195 1.363 . S
C2201 C2196 1.379 . S
C2201 N2199 1.356 . S
N2202 C2194 1.356 . S
N2202 H2208 0.984 . S
N2202 H2209 0.984 . S
N2203 C2196 1.356 . S
N2203 H2206 0.984 . S
N2203 H2207 0.985 . S
H2204 N2199 0.984 . S
H2205 N2199 0.985 . S
H2206 N2203 0.984 . S
H2207 N2203 0.985 . S
H2208 N2202 0.984 . S
H2209 N2202 0.984 . S
H2210 N2198 0.984 . S
H2211 N2198 0.985 . S
C2212 C2213 1.363 . S
C2212 C2218 1.379 . S
C2212 N2220 1.356 . S
C2213 C2212 1.363 . S
C2213 C2219 1.363 . S
C2214 C2215 1.363 . S
C2214 C2219 1.379 . S
C2214 N2221 1.356 . S
C2215 C2214 1.363 . S
C2215 C2218 1.363 . S
N2216 C2218 1.356 . S
N2216 H2228 0.984 . S
N2216 H2229 0.985 . S
N2217 C2219 1.356 . S
N2217 H2222 0.984 . S
N2217 H2223 0.985 . S
C2218 C2212 1.379 . S
C2218 C2215 1.363 . S
C2218 N2216 1.356 . S
C2219 C2213 1.363 . S
C2219 C2214 1.379 . S
C2219 N2217 1.356 . S
N2220 C2212 1.356 . S
N2220 H2226 0.984 . S
N2220 H2227 0.984 . S
N2221 C2214 1.356 . S
N2221 H2224 0.984 . S
N2221 H2225 0.985 . S
H2222 N2217 0.984 . S
H2223 N2217 0.985 . S
H2224 N2221 0.984 . S
H2225 N2221 0.985 . S
H2226 N2220 0.984 . S
H2227 N2220 0.984 . S
H2228 N2216 0.984 . S
H2229 N2216 0.985 . S
C2230 C2231 1.363 . S
C2230 C2236 1.379 . S
C2230 N2238 1.356 . S
C2231 C2230 1.363 . S
C2231 C2237 1.363 . S
C2232 C2233 1.363 . S
C2232 C2237 1.379 . S
C2232 N2239 1.356 . S
C2233 C2232 1.363 . S
C2233 C2236 1.363 . S
N2234 C2236 1.356 . S
N2234 H2246 0.984 . S
N2234 H2247 0.985 . S
N2235 C2237 1.356 . S
N2235 H2240 0.984 . S
N2235 H2241 0.985 1_565 S
C2236 C2230 1.379 . S
C2236 C2233 1.363 . S
C2236 N2234 1.356 . S
C2237 C2231 1.363 . S
C2237 C2232 1.379 . S
C2237 N2235 1.356 . S
N2238 C2230 1.356 . S
N2238 H2244 0.984 . S
N2238 H2245 0.984 . S
N2239 C2232 1.356 . S
N2239 H2242 0.984 . S
N2239 H2243 0.985 . S
H2240 N2235 0.984 . S
H2241 N2235 0.985 1_545 S
H2242 N2239 0.984 . S
H2243 N2239 0.985 . S
H2244 N2238 0.984 . S
H2245 N2238 0.984 . S
H2246 N2234 0.984 . S
H2247 N2234 0.985 . S
C2248 C2249 1.363 . S
C2248 C2254 1.379 . S
C2248 N2256 1.356 . S
C2249 C2248 1.363 . S
C2249 C2255 1.363 . S
C2250 C2251 1.363 . S
C2250 C2255 1.379 . S
C2250 N2257 1.356 . S
C2251 C2250 1.363 . S
C2251 C2254 1.363 . S
N2252 C2254 1.356 . S
N2252 H2264 0.984 . S
N2252 H2265 0.985 . S
N2253 C2255 1.356 . S
N2253 H2258 0.984 . S
N2253 H2259 0.985 . S
C2254 C2248 1.379 . S
C2254 C2251 1.363 . S
C2254 N2252 1.356 . S
C2255 C2249 1.363 . S
C2255 C2250 1.379 . S
C2255 N2253 1.356 . S
N2256 C2248 1.356 . S
N2256 H2262 0.984 . S
N2256 H2263 0.984 . S
N2257 C2250 1.356 . S
N2257 H2260 0.984 . S
N2257 H2261 0.985 . S
H2258 N2253 0.984 . S
H2259 N2253 0.985 . S
H2260 N2257 0.984 . S
H2261 N2257 0.985 . S
H2262 N2256 0.984 . S
H2263 N2256 0.984 . S
H2264 N2252 0.984 . S
H2265 N2252 0.985 . S
C2266 C2267 1.363 . S
C2266 C2272 1.379 . S
C2266 N2274 1.356 . S
C2267 C2266 1.363 . S
C2267 C2273 1.363 . S
C2268 C2269 1.363 . S
C2268 C2273 1.379 . S
C2268 N2275 1.356 . S
C2269 C2268 1.363 . S
C2269 C2272 1.363 . S
N2270 C2272 1.356 . S
N2270 H2282 0.984 . S
N2270 H2283 0.985 . S
N2271 C2273 1.356 . S
N2271 H2276 0.984 . S
N2271 H2277 0.985 . S
C2272 C2266 1.379 . S
C2272 C2269 1.363 . S
C2272 N2270 1.356 . S
C2273 C2267 1.363 . S
C2273 C2268 1.379 . S
C2273 N2271 1.356 . S
N2274 C2266 1.356 . S
N2274 H2280 0.984 . S
N2274 H2281 0.984 . S
N2275 C2268 1.356 . S
N2275 H2278 0.984 . S
N2275 H2279 0.985 . S
H2276 N2271 0.984 . S
H2277 N2271 0.985 . S
H2278 N2275 0.984 . S
H2279 N2275 0.985 . S
H2280 N2274 0.984 . S
H2281 N2274 0.984 . S
H2282 N2270 0.984 . S
H2283 N2270 0.985 . S
C2284 C2285 1.363 . S
C2284 C2290 1.379 . S
C2284 N2292 1.356 . S
C2285 C2284 1.363 . S
C2285 C2291 1.363 . S
C2286 C2287 1.363 . S
C2286 C2291 1.379 . S
C2286 N2293 1.356 . S
C2287 C2286 1.363 . S
C2287 C2290 1.363 . S
N2288 C2290 1.356 . S
N2288 H2300 0.984 . S
N2288 H2301 0.985 . S
N2289 C2291 1.356 . S
N2289 H2294 0.984 . S
N2289 H2295 0.985 . S
C2290 C2284 1.379 . S
C2290 C2287 1.363 . S
C2290 N2288 1.356 . S
C2291 C2285 1.363 . S
C2291 C2286 1.379 . S
C2291 N2289 1.356 . S
N2292 C2284 1.356 . S
N2292 H2298 0.984 . S
N2292 H2299 0.984 . S
N2293 C2286 1.356 . S
N2293 H2296 0.984 . S
N2293 H2297 0.985 . S
H2294 N2289 0.984 . S
H2295 N2289 0.985 . S
H2296 N2293 0.984 . S
H2297 N2293 0.985 . S
H2298 N2292 0.984 . S
H2299 N2292 0.984 . S
H2300 N2288 0.984 . S
H2301 N2288 0.985 . S
C2302 C2303 1.363 . S
C2302 C2308 1.379 . S
C2302 N2310 1.356 . S
C2303 C2302 1.363 . S
C2303 C2309 1.363 . S
C2304 C2305 1.363 . S
C2304 C2309 1.379 . S
C2304 N2311 1.356 . S
C2305 C2304 1.363 . S
C2305 C2308 1.363 . S
N2306 C2308 1.356 . S
N2306 H2318 0.984 . S
N2306 H2319 0.985 . S
N2307 C2309 1.356 . S
N2307 H2312 0.984 . S
N2307 H2313 0.985 . S
C2308 C2302 1.379 . S
C2308 C2305 1.363 . S
C2308 N2306 1.356 . S
C2309 C2303 1.363 . S
C2309 C2304 1.379 . S
C2309 N2307 1.356 . S
N2310 C2302 1.356 . S
N2310 H2316 0.984 . S
N2310 H2317 0.984 . S
N2311 C2304 1.356 . S
N2311 H2314 0.984 . S
N2311 H2315 0.985 . S
H2312 N2307 0.984 . S
H2313 N2307 0.985 . S
H2314 N2311 0.984 . S
H2315 N2311 0.985 . S
H2316 N2310 0.984 . S
H2317 N2310 0.984 . S
H2318 N2306 0.984 . S
H2319 N2306 0.985 . S
C2320 C2321 1.363 . S
C2320 C2326 1.379 . S
C2320 N2328 1.356 . S
C2321 C2320 1.363 . S
C2321 C2327 1.363 . S
C2322 C2323 1.363 . S
C2322 C2327 1.379 . S
C2322 N2329 1.356 1_556 S
C2323 C2322 1.363 . S
C2323 C2326 1.363 . S
N2324 C2326 1.356 . S
N2324 H2336 0.984 . S
N2324 H2337 0.985 . S
N2325 C2327 1.356 . S
N2325 H2330 0.984 . S
N2325 H2331 0.985 . S
C2326 C2320 1.379 . S
C2326 C2323 1.363 . S
C2326 N2324 1.356 . S
C2327 C2321 1.363 . S
C2327 C2322 1.379 . S
C2327 N2325 1.356 . S
N2328 C2320 1.356 . S
N2328 H2334 0.984 . S
N2328 H2335 0.984 . S
N2329 C2322 1.356 1_554 S
N2329 H2332 0.984 . S
N2329 H2333 0.985 . S
H2330 N2325 0.984 . S
H2331 N2325 0.985 . S
H2332 N2329 0.984 . S
H2333 N2329 0.985 . S
H2334 N2328 0.984 . S
H2335 N2328 0.984 . S
H2336 N2324 0.984 . S
H2337 N2324 0.985 . S
C2338 C2339 1.363 . S
C2338 C2344 1.379 . S
C2338 N2346 1.356 . S
C2339 C2338 1.363 . S
C2339 C2345 1.363 . S
C2340 C2341 1.363 . S
C2340 C2345 1.379 . S
C2340 N2347 1.356 . S
C2341 C2340 1.363 . S
C2341 C2344 1.363 . S
N2342 C2344 1.356 . S
N2342 H2354 0.984 . S
N2342 H2355 0.985 . S
N2343 C2345 1.356 . S
N2343 H2348 0.984 . S
N2343 H2349 0.985 . S
C2344 C2338 1.379 . S
C2344 C2341 1.363 . S
C2344 N2342 1.356 . S
C2345 C2339 1.363 . S
C2345 C2340 1.379 . S
C2345 N2343 1.356 . S
N2346 C2338 1.356 . S
N2346 H2352 0.984 . S
N2346 H2353 0.984 . S
N2347 C2340 1.356 . S
N2347 H2350 0.984 . S
N2347 H2351 0.985 . S
H2348 N2343 0.984 . S
H2349 N2343 0.985 . S
H2350 N2347 0.984 . S
H2351 N2347 0.985 . S
H2352 N2346 0.984 . S
H2353 N2346 0.984 . S
H2354 N2342 0.984 . S
H2355 N2342 0.985 . S
C2356 C2357 1.363 . S
C2356 C2362 1.379 . S
C2356 N2364 1.356 . S
C2357 C2356 1.363 . S
C2357 C2363 1.363 . S
C2358 C2359 1.363 . S
C2358 C2363 1.379 . S
C2358 N2365 1.356 . S
C2359 C2358 1.363 . S
C2359 C2362 1.363 . S
N2360 C2362 1.356 . S
N2360 H2372 0.984 . S
N2360 H2373 0.985 . S
N2361 C2363 1.356 . S
N2361 H2366 0.984 . S
N2361 H2367 0.985 . S
C2362 C2356 1.379 . S
C2362 C2359 1.363 . S
C2362 N2360 1.356 . S
C2363 C2357 1.363 . S
C2363 C2358 1.379 . S
C2363 N2361 1.356 . S
N2364 C2356 1.356 . S
N2364 H2370 0.984 . S
N2364 H2371 0.984 . S
N2365 C2358 1.356 . S
N2365 H2368 0.984 . S
N2365 H2369 0.985 . S
H2366 N2361 0.984 . S
H2367 N2361 0.985 . S
H2368 N2365 0.984 . S
H2369 N2365 0.985 . S
H2370 N2364 0.984 . S
H2371 N2364 0.984 . S
H2372 N2360 0.984 . S
H2373 N2360 0.985 . S
C2374 C2375 1.363 . S
C2374 C2380 1.379 . S
C2374 N2382 1.356 . S
C2375 C2374 1.363 . S
C2375 C2381 1.363 . S
C2376 C2377 1.363 . S
C2376 C2381 1.379 . S
C2376 N2383 1.356 . S
C2377 C2376 1.363 . S
C2377 C2380 1.363 . S
N2378 C2380 1.356 . S
N2378 H2390 0.984 . S
N2378 H2391 0.985 . S
N2379 C2381 1.356 . S
N2379 H2384 0.984 . S
N2379 H2385 0.985 . S
C2380 C2374 1.379 . S
C2380 C2377 1.363 . S
C2380 N2378 1.356 . S
C2381 C2375 1.363 . S
C2381 C2376 1.379 . S
C2381 N2379 1.356 . S
N2382 C2374 1.356 . S
N2382 H2388 0.984 . S
N2382 H2389 0.984 . S
N2383 C2376 1.356 . S
N2383 H2386 0.984 . S
N2383 H2387 0.985 . S
H2384 N2379 0.984 . S
H2385 N2379 0.985 . S
H2386 N2383 0.984 . S
H2387 N2383 0.985 . S
H2388 N2382 0.984 . S
H2389 N2382 0.984 . S
H2390 N2378 0.984 . S
H2391 N2378 0.985 . S
C2392 C2393 1.363 . S
C2392 C2398 1.379 . S
C2392 N2400 1.356 . S
C2393 C2392 1.363 . S
C2393 C2399 1.363 . S
C2394 C2395 1.363 . S
C2394 C2399 1.379 . S
C2394 N2401 1.356 . S
C2395 C2394 1.363 . S
C2395 C2398 1.363 . S
N2396 C2398 1.356 . S
N2396 H2408 0.984 . S
N2396 H2409 0.985 . S
N2397 C2399 1.356 . S
N2397 H2402 0.984 . S
N2397 H2403 0.985 . S
C2398 C2392 1.379 . S
C2398 C2395 1.363 . S
C2398 N2396 1.356 . S
C2399 C2393 1.363 . S
C2399 C2394 1.379 . S
C2399 N2397 1.356 . S
N2400 C2392 1.356 . S
N2400 H2406 0.984 . S
N2400 H2407 0.984 . S
N2401 C2394 1.356 . S
N2401 H2404 0.984 . S
N2401 H2405 0.985 . S
H2402 N2397 0.984 . S
H2403 N2397 0.985 . S
H2404 N2401 0.984 . S
H2405 N2401 0.985 . S
H2406 N2400 0.984 . S
H2407 N2400 0.984 . S
H2408 N2396 0.984 . S
H2409 N2396 0.985 . S
C2410 C2411 1.363 . S
C2410 C2416 1.379 . S
C2410 N2418 1.356 . S
C2411 C2410 1.363 . S
C2411 C2417 1.363 . S
C2412 C2413 1.363 . S
C2412 C2417 1.379 . S
C2412 N2419 1.356 . S
C2413 C2412 1.363 . S
C2413 C2416 1.363 . S
N2414 C2416 1.356 . S
N2414 H2426 0.984 . S
N2414 H2427 0.985 . S
N2415 C2417 1.356 . S
N2415 H2420 0.984 . S
N2415 H2421 0.985 . S
C2416 C2410 1.379 . S
C2416 C2413 1.363 . S
C2416 N2414 1.356 . S
C2417 C2411 1.363 . S
C2417 C2412 1.379 . S
C2417 N2415 1.356 . S
N2418 C2410 1.356 . S
N2418 H2424 0.984 . S
N2418 H2425 0.984 . S
N2419 C2412 1.356 . S
N2419 H2422 0.984 . S
N2419 H2423 0.985 . S
H2420 N2415 0.984 . S
H2421 N2415 0.985 . S
H2422 N2419 0.984 . S
H2423 N2419 0.985 . S
H2424 N2418 0.984 . S
H2425 N2418 0.984 . S
H2426 N2414 0.984 . S
H2427 N2414 0.985 . S
C2428 C2429 1.363 . S
C2428 C2434 1.379 . S
C2428 N2436 1.356 . S
C2429 C2428 1.363 . S
C2429 C2435 1.363 1_655 S
C2430 C2431 1.363 . S
C2430 C2435 1.379 . S
C2430 N2437 1.356 . S
C2431 C2430 1.363 . S
C2431 C2434 1.363 1_455 S
N2432 C2434 1.353 1_554 S
N2432 H2444 0.985 . S
N2432 H2445 0.987 1_655 S
N2433 C2435 1.356 . S
N2433 H2438 0.984 1_455 S
N2433 H2439 0.985 . S
C2434 C2428 1.379 . S
C2434 C2431 1.363 1_655 S
C2434 N2432 1.353 1_556 S
C2435 C2429 1.363 1_455 S
C2435 C2430 1.379 . S
C2435 N2433 1.356 . S
N2436 C2428 1.356 . S
N2436 H2442 0.984 . S
N2436 H2443 0.984 . S
N2437 C2430 1.356 . S
N2437 H2440 0.984 . S
N2437 H2441 0.985 . S
H2438 N2433 0.984 1_655 S
H2439 N2433 0.985 . S
H2440 N2437 0.984 . S
H2441 N2437 0.985 . S
H2442 N2436 0.984 . S
H2443 N2436 0.984 . S
H2444 N2432 0.985 . S
H2445 N2432 0.987 1_455 S
C2446 C2447 1.363 . S
C2446 C2452 1.379 . S
C2446 N2454 1.356 . S
C2447 C2446 1.363 . S
C2447 C2453 1.363 . S
C2448 C2449 1.363 . S
C2448 C2453 1.379 . S
C2448 N2455 1.356 . S
C2449 C2448 1.363 . S
C2449 C2452 1.363 . S
N2450 C2452 1.356 . S
N2450 H2462 0.984 . S
N2450 H2463 0.985 . S
N2451 C2453 1.356 . S
N2451 H2456 0.984 . S
N2451 H2457 0.985 . S
C2452 C2446 1.379 . S
C2452 C2449 1.363 . S
C2452 N2450 1.356 . S
C2453 C2447 1.363 . S
C2453 C2448 1.379 . S
C2453 N2451 1.356 . S
N2454 C2446 1.356 . S
N2454 H2460 0.984 . S
N2454 H2461 0.984 . S
N2455 C2448 1.356 . S
N2455 H2458 0.984 . S
N2455 H2459 0.985 . S
H2456 N2451 0.984 . S
H2457 N2451 0.985 . S
H2458 N2455 0.984 . S
H2459 N2455 0.985 . S
H2460 N2454 0.984 . S
H2461 N2454 0.984 . S
H2462 N2450 0.984 . S
H2463 N2450 0.985 . S
C2464 C2465 1.363 . S
C2464 C2470 1.379 . S
C2464 N2472 1.356 . S
C2465 C2464 1.363 . S
C2465 C2471 1.363 . S
C2466 C2467 1.363 . S
C2466 C2471 1.379 . S
C2466 N2473 1.356 . S
C2467 C2466 1.363 . S
C2467 C2470 1.363 . S
N2468 C2470 1.356 . S
N2468 H2480 0.984 . S
N2468 H2481 0.985 . S
N2469 C2471 1.356 . S
N2469 H2474 0.984 . S
N2469 H2475 0.985 . S
C2470 C2464 1.379 . S
C2470 C2467 1.363 . S
C2470 N2468 1.356 . S
C2471 C2465 1.363 . S
C2471 C2466 1.379 . S
C2471 N2469 1.356 . S
N2472 C2464 1.356 . S
N2472 H2478 0.984 . S
N2472 H2479 0.984 . S
N2473 C2466 1.356 . S
N2473 H2476 0.984 . S
N2473 H2477 0.985 . S
H2474 N2469 0.984 . S
H2475 N2469 0.985 . S
H2476 N2473 0.984 . S
H2477 N2473 0.985 . S
H2478 N2472 0.984 . S
H2479 N2472 0.984 . S
H2480 N2468 0.984 . S
H2481 N2468 0.985 . S
C2482 C2483 1.363 . S
C2482 C2488 1.379 . S
C2482 N2490 1.356 . S
C2483 C2482 1.363 . S
C2483 C2489 1.363 . S
C2484 C2485 1.363 . S
C2484 C2489 1.379 . S
C2484 N2491 1.356 . S
C2485 C2484 1.363 . S
C2485 C2488 1.363 . S
N2486 C2488 1.356 . S
N2486 H2498 0.984 . S
N2486 H2499 0.985 . S
N2487 C2489 1.356 . S
N2487 H2492 0.984 . S
N2487 H2493 0.985 . S
C2488 C2482 1.379 . S
C2488 C2485 1.363 . S
C2488 N2486 1.356 . S
C2489 C2483 1.363 . S
C2489 C2484 1.379 . S
C2489 N2487 1.356 . S
N2490 C2482 1.356 . S
N2490 H2496 0.984 . S
N2490 H2497 0.984 . S
N2491 C2484 1.356 . S
N2491 H2494 0.984 . S
N2491 H2495 0.985 . S
H2492 N2487 0.984 . S
H2493 N2487 0.985 . S
H2494 N2491 0.984 . S
H2495 N2491 0.985 . S
H2496 N2490 0.984 . S
H2497 N2490 0.984 . S
H2498 N2486 0.984 . S
H2499 N2486 0.985 . S
C2500 C2501 1.363 . S
C2500 C2506 1.379 1_655 S
C2500 N2508 1.356 . S
C2501 C2500 1.363 . S
C2501 C2507 1.363 . S
C2502 C2503 1.363 . S
C2502 C2507 1.379 . S
C2502 N2509 1.356 . S
C2503 C2502 1.363 . S
C2503 C2506 1.363 1_655 S
N2504 C2506 1.356 . S
N2504 H2516 0.984 . S
N2504 H2517 0.985 . S
N2505 C2507 1.356 . S
N2505 H2510 0.984 . S
N2505 H2511 0.985 . S
C2506 C2500 1.379 1_455 S
C2506 C2503 1.363 1_455 S
C2506 N2504 1.356 . S
C2507 C2501 1.363 . S
C2507 C2502 1.379 . S
C2507 N2505 1.356 . S
N2508 C2500 1.356 . S
N2508 H2514 0.984 1_655 S
N2508 H2515 0.984 . S
N2509 C2502 1.356 . S
N2509 H2512 0.984 . S
N2509 H2513 0.985 . S
H2510 N2505 0.984 . S
H2511 N2505 0.985 . S
H2512 N2509 0.984 . S
H2513 N2509 0.985 . S
H2514 N2508 0.984 1_455 S
H2515 N2508 0.984 . S
H2516 N2504 0.984 . S
H2517 N2504 0.985 . S
C2518 C2519 1.363 . S
C2518 C2524 1.379 . S
C2518 N2526 1.356 . S
C2519 C2518 1.363 . S
C2519 C2525 1.363 . S
C2520 C2521 1.363 . S
C2520 C2525 1.379 . S
C2520 N2527 1.356 . S
C2521 C2520 1.363 . S
C2521 C2524 1.363 . S
N2522 C2524 1.356 . S
N2522 H2534 0.984 . S
N2522 H2535 0.985 . S
N2523 C2525 1.356 . S
N2523 H2528 0.984 . S
N2523 H2529 0.985 . S
C2524 C2518 1.379 . S
C2524 C2521 1.363 . S
C2524 N2522 1.356 . S
C2525 C2519 1.363 . S
C2525 C2520 1.379 . S
C2525 N2523 1.356 . S
N2526 C2518 1.356 . S
N2526 H2532 0.984 . S
N2526 H2533 0.984 . S
N2527 C2520 1.356 . S
N2527 H2530 0.984 . S
N2527 H2531 0.985 . S
H2528 N2523 0.984 . S
H2529 N2523 0.985 . S
H2530 N2527 0.984 . S
H2531 N2527 0.985 . S
H2532 N2526 0.984 . S
H2533 N2526 0.984 . S
H2534 N2522 0.984 . S
H2535 N2522 0.985 . S
C2536 C2537 1.363 . S
C2536 C2542 1.379 . S
C2536 N2544 1.356 . S
C2537 C2536 1.363 . S
C2537 C2543 1.363 . S
C2538 C2539 1.363 . S
C2538 C2543 1.379 . S
C2538 N2545 1.356 . S
C2539 C2538 1.363 . S
C2539 C2542 1.363 . S
N2540 C2542 1.356 . S
N2540 H2552 0.984 . S
N2540 H2553 0.985 . S
N2541 C2543 1.356 . S
N2541 H2546 0.984 . S
N2541 H2547 0.985 . S
C2542 C2536 1.379 . S
C2542 C2539 1.363 . S
C2542 N2540 1.356 . S
C2543 C2537 1.363 . S
C2543 C2538 1.379 . S
C2543 N2541 1.356 . S
N2544 C2536 1.356 . S
N2544 H2550 0.984 . S
N2544 H2551 0.984 . S
N2545 C2538 1.356 . S
N2545 H2548 0.984 . S
N2545 H2549 0.985 . S
H2546 N2541 0.984 . S
H2547 N2541 0.985 . S
H2548 N2545 0.984 . S
H2549 N2545 0.985 . S
H2550 N2544 0.984 . S
H2551 N2544 0.984 . S
H2552 N2540 0.984 . S
H2553 N2540 0.985 . S
C2554 C2555 1.363 . S
C2554 C2560 1.379 . S
C2554 N2562 1.356 . S
C2555 C2554 1.363 . S
C2555 C2561 1.363 . S
C2556 C2557 1.363 . S
C2556 C2561 1.379 . S
C2556 N2563 1.356 1_565 S
C2557 C2556 1.363 . S
C2557 C2560 1.363 . S
N2558 C2560 1.356 . S
N2558 H2570 0.984 . S
N2558 H2571 0.985 . S
N2559 C2561 1.356 . S
N2559 H2564 0.984 . S
N2559 H2565 0.985 . S
C2560 C2554 1.379 . S
C2560 C2557 1.363 . S
C2560 N2558 1.356 . S
C2561 C2555 1.363 . S
C2561 C2556 1.379 . S
C2561 N2559 1.356 . S
N2562 C2554 1.356 . S
N2562 H2568 0.984 . S
N2562 H2569 0.984 . S
N2563 C2556 1.356 1_545 S
N2563 H2566 0.984 . S
N2563 H2567 0.985 . S
H2564 N2559 0.984 . S
H2565 N2559 0.985 . S
H2566 N2563 0.984 . S
H2567 N2563 0.985 . S
H2568 N2562 0.984 . S
H2569 N2562 0.984 . S
H2570 N2558 0.984 . S
H2571 N2558 0.985 . S
C2572 C2573 1.363 . S
C2572 C2578 1.379 . S
C2572 N2580 1.356 . S
C2573 C2572 1.363 . S
C2573 C2579 1.363 . S
C2574 C2575 1.363 . S
C2574 C2579 1.379 . S
C2574 N2581 1.356 . S
C2575 C2574 1.363 . S
C2575 C2578 1.363 . S
N2576 C2578 1.356 . S
N2576 H2588 0.984 . S
N2576 H2589 0.985 . S
N2577 C2579 1.356 . S
N2577 H2582 0.984 . S
N2577 H2583 0.985 . S
C2578 C2572 1.379 . S
C2578 C2575 1.363 . S
C2578 N2576 1.356 . S
C2579 C2573 1.363 . S
C2579 C2574 1.379 . S
C2579 N2577 1.356 . S
N2580 C2572 1.356 . S
N2580 H2586 0.984 . S
N2580 H2587 0.984 . S
N2581 C2574 1.356 . S
N2581 H2584 0.984 . S
N2581 H2585 0.985 . S
H2582 N2577 0.984 . S
H2583 N2577 0.985 . S
H2584 N2581 0.984 . S
H2585 N2581 0.985 . S
H2586 N2580 0.984 . S
H2587 N2580 0.984 . S
H2588 N2576 0.984 . S
H2589 N2576 0.985 . S
C2590 C2591 1.363 . S
C2590 C2596 1.379 . S
C2590 N2598 1.356 . S
C2591 C2590 1.363 . S
C2591 C2597 1.363 . S
C2592 C2593 1.363 . S
C2592 C2597 1.379 . S
C2592 N2599 1.356 . S
C2593 C2592 1.363 . S
C2593 C2596 1.363 . S
N2594 C2596 1.356 . S
N2594 H2606 0.984 . S
N2594 H2607 0.985 . S
N2595 C2597 1.356 . S
N2595 H2600 0.984 . S
N2595 H2601 0.985 . S
C2596 C2590 1.379 . S
C2596 C2593 1.363 . S
C2596 N2594 1.356 . S
C2597 C2591 1.363 . S
C2597 C2592 1.379 . S
C2597 N2595 1.356 . S
N2598 C2590 1.356 . S
N2598 H2604 0.984 . S
N2598 H2605 0.984 . S
N2599 C2592 1.356 . S
N2599 H2602 0.984 . S
N2599 H2603 0.985 . S
H2600 N2595 0.984 . S
H2601 N2595 0.985 . S
H2602 N2599 0.984 . S
H2603 N2599 0.985 . S
H2604 N2598 0.984 . S
H2605 N2598 0.984 . S
H2606 N2594 0.984 . S
H2607 N2594 0.985 . S
C2608 C2609 1.363 . S
C2608 C2614 1.379 . S
C2608 N2616 1.356 . S
C2609 C2608 1.363 . S
C2609 C2615 1.363 . S
C2610 C2611 1.363 . S
C2610 C2615 1.379 . S
C2610 N2617 1.356 . S
C2611 C2610 1.363 . S
C2611 C2614 1.363 . S
N2612 C2614 1.356 . S
N2612 H2624 0.984 . S
N2612 H2625 0.985 . S
N2613 C2615 1.356 . S
N2613 H2618 0.984 . S
N2613 H2619 0.985 . S
C2614 C2608 1.379 . S
C2614 C2611 1.363 . S
C2614 N2612 1.356 . S
C2615 C2609 1.363 . S
C2615 C2610 1.379 . S
C2615 N2613 1.356 . S
N2616 C2608 1.356 . S
N2616 H2622 0.984 . S
N2616 H2623 0.984 . S
N2617 C2610 1.356 . S
N2617 H2620 0.984 . S
N2617 H2621 0.985 . S
H2618 N2613 0.984 . S
H2619 N2613 0.985 . S
H2620 N2617 0.984 . S
H2621 N2617 0.985 . S
H2622 N2616 0.984 . S
H2623 N2616 0.984 . S
H2624 N2612 0.984 . S
H2625 N2612 0.985 . S
C2626 C2627 1.363 . S
C2626 C2632 1.379 . S
C2626 N2634 1.356 . S
C2627 C2626 1.363 . S
C2627 C2633 1.363 . S
C2628 C2629 1.363 . S
C2628 C2633 1.379 . S
C2628 N2635 1.356 . S
C2629 C2628 1.363 . S
C2629 C2632 1.363 . S
N2630 C2632 1.356 1_556 S
N2630 H2642 0.984 . S
N2630 H2643 0.985 . S
N2631 C2633 1.356 . S
N2631 H2636 0.984 . S
N2631 H2637 0.985 . S
C2632 C2626 1.379 . S
C2632 C2629 1.363 . S
C2632 N2630 1.356 1_554 S
C2633 C2627 1.363 . S
C2633 C2628 1.379 . S
C2633 N2631 1.356 . S
N2634 C2626 1.356 . S
N2634 H2640 0.984 1_554 S
N2634 H2641 0.984 . S
N2635 C2628 1.356 . S
N2635 H2638 0.984 . S
N2635 H2639 0.985 . S
H2636 N2631 0.984 . S
H2637 N2631 0.985 . S
H2638 N2635 0.984 . S
H2639 N2635 0.985 . S
H2640 N2634 0.984 1_556 S
H2641 N2634 0.984 . S
H2642 N2630 0.984 . S
H2643 N2630 0.985 . S
C2644 C2645 1.363 . S
C2644 C2650 1.379 . S
C2644 N2652 1.356 . S
C2645 C2644 1.363 . S
C2645 C2651 1.363 . S
C2646 C2647 1.363 . S
C2646 C2651 1.379 . S
C2646 N2653 1.356 . S
C2647 C2646 1.363 . S
C2647 C2650 1.363 . S
N2648 C2650 1.356 . S
N2648 H2660 0.984 . S
N2648 H2661 0.985 . S
N2649 C2651 1.356 . S
N2649 H2654 0.984 . S
N2649 H2655 0.985 . S
C2650 C2644 1.379 . S
C2650 C2647 1.363 . S
C2650 N2648 1.356 . S
C2651 C2645 1.363 . S
C2651 C2646 1.379 . S
C2651 N2649 1.356 . S
N2652 C2644 1.356 . S
N2652 H2658 0.984 . S
N2652 H2659 0.984 . S
N2653 C2646 1.356 . S
N2653 H2656 0.984 . S
N2653 H2657 0.985 . S
H2654 N2649 0.984 . S
H2655 N2649 0.985 . S
H2656 N2653 0.984 . S
H2657 N2653 0.985 . S
H2658 N2652 0.984 . S
H2659 N2652 0.984 . S
H2660 N2648 0.984 . S
H2661 N2648 0.985 . S
C2662 C2663 1.363 . S
C2662 C2668 1.379 . S
C2662 N2670 1.356 . S
C2663 C2662 1.363 . S
C2663 C2669 1.363 . S
C2664 C2665 1.363 . S
C2664 C2669 1.379 . S
C2664 N2671 1.356 . S
C2665 C2664 1.363 . S
C2665 C2668 1.363 . S
N2666 C2668 1.356 . S
N2666 H2678 0.984 . S
N2666 H2679 0.985 . S
N2667 C2669 1.356 . S
N2667 H2672 0.984 . S
N2667 H2673 0.985 . S
C2668 C2662 1.379 . S
C2668 C2665 1.363 . S
C2668 N2666 1.356 . S
C2669 C2663 1.363 . S
C2669 C2664 1.379 . S
C2669 N2667 1.356 . S
N2670 C2662 1.356 . S
N2670 H2676 0.984 . S
N2670 H2677 0.984 . S
N2671 C2664 1.356 . S
N2671 H2674 0.984 . S
N2671 H2675 0.985 . S
H2672 N2667 0.984 . S
H2673 N2667 0.985 . S
H2674 N2671 0.984 . S
H2675 N2671 0.985 . S
H2676 N2670 0.984 . S
H2677 N2670 0.984 . S
H2678 N2666 0.984 . S
H2679 N2666 0.985 . S
C953 C101 2.386 1_455 S
C955 C343 2.320 . S
C971 C57 1.880 . S
C973 C354 1.980 . S
C989 C70 1.770 . S
C991 C423 1.684 . S
C1009 C436 1.230 . S
C1007 C82 1.278 . S
C1025 C23 2.480 . S
C1027 C492 2.454 . S
C1045 C543 2.232 . S
C1043 C29 2.322 . S
C1063 C572 2.288 . S
C1061 C49 2.278 . S
C1079 C10 2.615 . S
C1081 C623 2.509 . S
C1099 C314 1.732 . S
C1097 C218 1.666 . S
C1115 C226 1.241 . S
C1117 C356 1.137 . S
C1135 C394 1.149 . S
C1133 C251 1.133 . S
C1153 C463 1.683 . S
C1151 C159 1.681 . S
C1169 C211 0.856 . S
C1171 C497 0.839 1_655 S
C1189 C514 1.597 . S
C1187 C225 1.543 . S
C1207 C577 0.604 . S
C1205 C252 0.583 . S
C1225 C594 2.074 . S
C1223 C166 2.119 . S
C1243 C316 2.214 . S
C1241 C147 2.434 1_545 S
C1259 C263 1.724 . S
C1261 C655 1.692 . S
C1279 C676 2.042 . S
C1277 C309 2.195 . S
C1297 C735 0.646 . S
C1295 C291 0.623 . S
C1313 C108 1.517 . S
C1315 C596 1.459 . S
C1331 C121 1.662 . S
C1333 C396 1.588 . S
C1349 C302 1.127 . S
C1351 C754 1.281 . S
C1369 C823 1.090 . S
C1367 C276 1.132 . S
C1387 C332 2.421 1_565 S
C1385 C55 2.416 . S
C1405 C815 2.148 . S
C1403 C96 2.104 . S
C1421 C88 1.978 . S
C1423 C412 1.937 . S
C1439 C75 1.328 . S
C1441 C777 1.297 . S
C1459 C503 2.705 . S
C1457 C4 2.744 . S
C1475 C44 2.404 . S
C1477 C692 2.392 . S
C1495 C583 2.568 1_566 S
C1493 C31 2.577 . S
C1513 C852 2.614 . S
C1511 C18 2.678 1_655 S
C1531 C335 1.642 1_556 S
C1529 C133 1.615 . S
C1549 C817 1.243 . S
C1547 C296 1.307 . S
C1565 C107 1.278 . S
C1567 C415 1.261 . S
C1583 C264 2.054 . S
C1585 C772 2.077 . S
C1601 C140 0.876 . S
C1603 C476 0.869 . S
C1621 C695 1.654 . S
C1619 C289 1.644 . S
C1637 C114 0.713 . S
C1639 C556 0.713 . S
C1655 C265 2.391 . S
C1657 C855 2.343 . S
C1673 C179 2.108 . S
C1675 C337 1.972 . S
C1691 C161 1.775 . S
C1693 C634 1.727 . S
C1709 C244 1.899 . S
C1711 C537 1.813 . S
C1727 C224 0.802 . S
C1729 C714 0.795 . S
C1747 C857 1.303 . S
C1745 C257 1.327 . S
C1763 C199 1.541 . S
C1765 C417 1.506 . S
C1783 C455 1.401 . S
C1781 C237 1.322 . S
C1801 C372 1.129 . S
C1799 C185 1.162 . S
C1817 C69 2.387 . S
C1819 C903 2.323 . S
C1837 C794 1.980 . S
C1835 C83 1.880 . S
C1853 C94 1.770 . S
C1855 C943 1.685 . S
C1871 C56 1.278 . S
C1873 C756 1.229 . S
C1889 C42 2.490 . S
C1891 C652 2.463 . S
C1909 C703 2.232 . S
C1907 C3 2.323 . S
C1927 C732 2.297 . S
C1925 C16 2.284 . S
C1945 C863 2.509 . S
C1943 C36 2.615 . S
C1963 C874 1.731 . S
C1961 C238 1.665 . S
C1979 C174 1.240 . S
C1981 C796 1.136 . S
C1999 C914 1.148 . S
C1997 C186 1.132 . S
C2017 C783 1.682 . S
C2015 C198 1.680 . S
C2035 C657 0.840 . S
C2033 C239 0.858 . S
C2051 C173 1.544 . S
C2053 C674 1.599 . S
C2071 C737 0.606 . S
C2069 C187 0.584 . S
C2087 C205 2.119 . S
C2089 C834 2.074 . S
C2107 C876 2.212 . S
C2105 C290 2.433 . S
C2123 C122 1.724 . S
C2125 C495 1.692 . S
C2143 C516 2.042 1_545 S
C2141 C134 2.194 . S
C2161 C575 0.646 . S
C2159 C148 0.623 . S
C2179 C836 1.459 . S
C2177 C283 1.517 . S
C2195 C270 1.660 . S
C2197 C916 1.587 . S
C2215 C434 1.280 . S
C2213 C135 1.127 . S
C2233 C383 1.089 . S
C2231 C109 1.131 . S
C2249 C81 2.417 . S
C2251 C892 2.422 . S
C2269 C375 2.147 . S
C2267 C68 2.099 . S
C2285 C62 1.978 . S
C2287 C932 1.937 . S
C2303 C95 1.327 . S
C2305 C457 1.291 . S
C2321 C30 2.744 . S
C2323 C663 2.706 1_556 S
C2341 C532 2.383 . S
C2339 C17 2.404 . S
C2357 C5 2.578 . S
C2359 C743 2.569 . S
C2375 C43 2.673 . S
C2377 C612 2.606 . S
C2395 C895 1.643 . S
C2393 C304 1.616 . S
C2411 C153 1.306 . S
C2413 C377 1.241 . S
C2431 C935 1.261 1_556 S
C2429 C278 1.278 . S
C2447 C127 2.053 . S
C2449 C452 2.077 . S
C2465 C303 0.873 . S
C2467 C636 0.866 . S
C2485 C535 1.653 . S
C2483 C146 1.644 . S
C2501 C277 0.711 . S
C2503 C716 0.711 . S
C2521 C615 2.343 . S
C2519 C120 2.390 . S
C2539 C897 1.972 . S
C2537 C231 2.109 . S
C2557 C474 1.727 1_665 S
C2555 C200 1.774 . S
C2573 C212 1.898 . S
C2575 C697 1.813 . S
C2593 C554 0.793 . S
C2591 C172 0.800 . S
C2609 C192 1.327 . S
C2611 C617 1.303 . S
C2627 C160 1.541 . S
C2629 C937 1.506 . S
C2647 C775 1.402 . S
C2645 C213 1.323 . S
C2665 C812 1.130 . S
C2663 C250 1.163 . S
