# Generated by pormake.
# Topology ocu, (6,8)-cn, num edge types: 1
# Building blocks:
#     Node 0, Type 0, BuildingBlock: KUMJIN_clean_sbu_1, # of connection points: 6
#     Node 1, Type 0, BuildingBlock: KUMJIN_clean_sbu_1, # of connection points: 6
#     Node 2, Type 0, BuildingBlock: KUMJIN_clean_sbu_1, # of connection points: 6
#     Node 3, Type 0, BuildingBlock: KUMJIN_clean_sbu_1, # of connection points: 6
#     Node 4, Type 0, BuildingBlock: KUMJIN_clean_sbu_1, # of connection points: 6
#     Node 5, Type 0, BuildingBlock: KUMJIN_clean_sbu_1, # of connection points: 6
#     Node 6, Type 0, BuildingBlock: KUMJIN_clean_sbu_1, # of connection points: 6
#     Node 7, Type 0, BuildingBlock: KUMJIN_clean_sbu_1, # of connection points: 6
#     Node 8, Type 1, BuildingBlock: GIZVER_clean_sbu_0, # of connection points: 8
#     Node 9, Type 1, BuildingBlock: GIZVER_clean_sbu_0, # of connection points: 8
#     Node 10, Type 1, BuildingBlock: GIZVER_clean_sbu_0, # of connection points: 8
#     Node 11, Type 1, BuildingBlock: GIZVER_clean_sbu_0, # of connection points: 8
#     Node 12, Type 1, BuildingBlock: GIZVER_clean_sbu_0, # of connection points: 8
#     Node 13, Type 1, BuildingBlock: GIZVER_clean_sbu_0, # of connection points: 8
#     Edge 14, Type (0, 1), BuildingBlock: OJICUG_clean_linker_0, # of connection points: 2
#     Edge 15, Type (0, 1), BuildingBlock: OJICUG_clean_linker_0, # of connection points: 2
#     Edge 16, Type (0, 1), BuildingBlock: OJICUG_clean_linker_0, # of connection points: 2
#     Edge 17, Type (0, 1), BuildingBlock: OJICUG_clean_linker_0, # of connection points: 2
#     Edge 18, Type (0, 1), BuildingBlock: OJICUG_clean_linker_0, # of connection points: 2
#     Edge 19, Type (0, 1), BuildingBlock: OJICUG_clean_linker_0, # of connection points: 2
#     Edge 20, Type (0, 1), BuildingBlock: OJICUG_clean_linker_0, # of connection points: 2
#     Edge 21, Type (0, 1), BuildingBlock: OJICUG_clean_linker_0, # of connection points: 2
#     Edge 22, Type (0, 1), BuildingBlock: OJICUG_clean_linker_0, # of connection points: 2
#     Edge 23, Type (0, 1), BuildingBlock: OJICUG_clean_linker_0, # of connection points: 2
#     Edge 24, Type (0, 1), BuildingBlock: OJICUG_clean_linker_0, # of connection points: 2
#     Edge 25, Type (0, 1), BuildingBlock: OJICUG_clean_linker_0, # of connection points: 2
#     Edge 26, Type (0, 1), BuildingBlock: OJICUG_clean_linker_0, # of connection points: 2
#     Edge 27, Type (0, 1), BuildingBlock: OJICUG_clean_linker_0, # of connection points: 2
#     Edge 28, Type (0, 1), BuildingBlock: OJICUG_clean_linker_0, # of connection points: 2
#     Edge 29, Type (0, 1), BuildingBlock: OJICUG_clean_linker_0, # of connection points: 2
#     Edge 30, Type (0, 1), BuildingBlock: OJICUG_clean_linker_0, # of connection points: 2
#     Edge 31, Type (0, 1), BuildingBlock: OJICUG_clean_linker_0, # of connection points: 2
#     Edge 32, Type (0, 1), BuildingBlock: OJICUG_clean_linker_0, # of connection points: 2
#     Edge 33, Type (0, 1), BuildingBlock: OJICUG_clean_linker_0, # of connection points: 2
#     Edge 34, Type (0, 1), BuildingBlock: OJICUG_clean_linker_0, # of connection points: 2
#     Edge 35, Type (0, 1), BuildingBlock: OJICUG_clean_linker_0, # of connection points: 2
#     Edge 36, Type (0, 1), BuildingBlock: OJICUG_clean_linker_0, # of connection points: 2
#     Edge 37, Type (0, 1), BuildingBlock: OJICUG_clean_linker_0, # of connection points: 2
#     Edge 38, Type (0, 1), BuildingBlock: OJICUG_clean_linker_0, # of connection points: 2
#     Edge 39, Type (0, 1), BuildingBlock: OJICUG_clean_linker_0, # of connection points: 2
#     Edge 40, Type (0, 1), BuildingBlock: OJICUG_clean_linker_0, # of connection points: 2
#     Edge 41, Type (0, 1), BuildingBlock: OJICUG_clean_linker_0, # of connection points: 2
#     Edge 42, Type (0, 1), BuildingBlock: OJICUG_clean_linker_0, # of connection points: 2
#     Edge 43, Type (0, 1), BuildingBlock: OJICUG_clean_linker_0, # of connection points: 2
#     Edge 44, Type (0, 1), BuildingBlock: OJICUG_clean_linker_0, # of connection points: 2
#     Edge 45, Type (0, 1), BuildingBlock: OJICUG_clean_linker_0, # of connection points: 2
#     Edge 46, Type (0, 1), BuildingBlock: OJICUG_clean_linker_0, # of connection points: 2
#     Edge 47, Type (0, 1), BuildingBlock: OJICUG_clean_linker_0, # of connection points: 2
#     Edge 48, Type (0, 1), BuildingBlock: OJICUG_clean_linker_0, # of connection points: 2
#     Edge 49, Type (0, 1), BuildingBlock: OJICUG_clean_linker_0, # of connection points: 2
#     Edge 50, Type (0, 1), BuildingBlock: OJICUG_clean_linker_0, # of connection points: 2
#     Edge 51, Type (0, 1), BuildingBlock: OJICUG_clean_linker_0, # of connection points: 2
#     Edge 52, Type (0, 1), BuildingBlock: OJICUG_clean_linker_0, # of connection points: 2
#     Edge 53, Type (0, 1), BuildingBlock: OJICUG_clean_linker_0, # of connection points: 2
#     Edge 54, Type (0, 1), BuildingBlock: OJICUG_clean_linker_0, # of connection points: 2
#     Edge 55, Type (0, 1), BuildingBlock: OJICUG_clean_linker_0, # of connection points: 2
#     Edge 56, Type (0, 1), BuildingBlock: OJICUG_clean_linker_0, # of connection points: 2
#     Edge 57, Type (0, 1), BuildingBlock: OJICUG_clean_linker_0, # of connection points: 2
#     Edge 58, Type (0, 1), BuildingBlock: OJICUG_clean_linker_0, # of connection points: 2
#     Edge 59, Type (0, 1), BuildingBlock: OJICUG_clean_linker_0, # of connection points: 2
#     Edge 60, Type (0, 1), BuildingBlock: OJICUG_clean_linker_0, # of connection points: 2
#     Edge 61, Type (0, 1), BuildingBlock: OJICUG_clean_linker_0, # of connection points: 2
# Relax obj value: 0.199
# Max RMSD: 0.206
# Mean RMSD: 0.175
data_MOF--net-ocu--node1-KUMJIN_clean_sbu_1--node2-GIZVER_clean_sbu_0--edge1-OJICUG_clean_linker_0
_symmetry_space_group_name_H-M    P1
_symmetry_Int_Tables_number       1
_symmetry_cell_setting            triclinic
loop_
_symmetry_equiv_pos_as_xyz
'x, y, z'
_cell_length_a     32.898977
_cell_length_b     34.331163
_cell_length_c     27.610104
_cell_angle_alpha  103.51103
_cell_angle_beta   76.89553
_cell_angle_gamma 117.39579
loop_
_atom_site_label
_atom_site_type_symbol
_atom_site_fract_x
_atom_site_fract_y
_atom_site_fract_z
_atom_type_partial_charge
Eu0 Eu 0.27566 0.27416 0.21135 0.0
C1 C 0.39575 0.40927 0.38103 0.0
N2 N 0.4074 0.39276 0.33305 0.0
C3 C 0.47283 0.46246 0.32211 0.0
C4 C 0.42242 0.45355 0.4013 0.0
C5 C 0.44601 0.41819 0.30411 0.0
C6 C 0.46084 0.48036 0.3709 0.0
C7 C 0.34645 0.39724 0.46106 0.0
C8 C 0.35757 0.38158 0.41043 0.0
C9 C 0.37302 0.44121 0.48126 0.0
C10 C 0.41058 0.46942 0.45143 0.0
Eu11 Eu 0.36273 0.31639 0.30925 0.0
N12 N 0.33119 0.33954 0.38954 0.0
C13 C 0.30914 0.36809 0.49004 0.0
C14 C 0.29297 0.31191 0.41692 0.0
C15 C 0.28169 0.32554 0.46778 0.0
H16 H 0.45787 0.40352 0.2686 0.0
H17 H 0.25212 0.30313 0.48989 0.0
H18 H 0.174 0.18706 0.238 0.0
H19 H 0.39462 0.30134 0.03483 0.0
H20 H 0.27145 0.27919 0.40015 0.0
H21 H 0.30122 0.37823 0.52955 0.0
H22 H 0.37017 0.31778 0.12449 0.0
H23 H 0.5035 0.48232 0.29889 0.0
H24 H 0.36469 0.45392 0.5198 0.0
H25 H 0.43065 0.50329 0.46771 0.0
H26 H 0.1235 0.11511 0.19439 0.0
H27 H 0.48215 0.5145 0.38517 0.0
H28 H 0.34449 0.23305 0.98469 0.0
N29 N 0.22667 0.20289 0.17492 0.0
C30 C 0.23892 0.19155 0.12515 0.0
C31 C 0.1561 0.13596 0.17462 0.0
C32 C 0.20947 0.1519 0.09798 0.0
C33 C 0.18546 0.17632 0.19957 0.0
C34 C 0.16808 0.12373 0.12354 0.0
N35 N 0.30806 0.25843 0.12754 0.0
C36 C 0.3486 0.28728 0.1043 0.0
C37 C 0.29246 0.21022 0.04851 0.0
C38 C 0.28028 0.2203 0.1007 0.0
C39 C 0.3341 0.23962 0.02474 0.0
C40 C 0.36247 0.27815 0.05289 0.0
H41 H 0.14465 0.09301 0.10393 0.0
H42 H 0.19867 0.11254 0.02426 0.0
H43 H 0.27013 0.16502 0.98117 0.0
O44 O 0.264 0.31105 0.16499 0.0
O45 O 0.31984 0.23462 0.19133 0.0
O46 O 0.38032 0.27379 0.23883 0.0
O47 O 0.20727 0.26999 0.21503 0.0
O48 O 0.33273 0.3452 0.21461 0.0
O49 O 0.39236 0.33709 0.23205 0.0
O50 O 0.37625 0.2808 0.35591 0.0
O51 O 0.32019 0.35652 0.31863 0.0
O52 O 0.25405 0.30127 0.29182 0.0
O53 O 0.43297 0.337 0.32219 0.0
O54 O 0.30313 0.24887 0.322 0.0
O55 O 0.24709 0.22887 0.27103 0.0
C56 C 0.35957 0.24152 0.20351 0.0
C57 C 0.18832 0.27963 0.14249 0.0
C58 C 0.15247 0.30006 0.09094 0.0
C59 C 0.11827 0.25618 0.08503 0.0
C60 C 0.15497 0.23551 0.13427 0.0
C61 C 0.12045 0.22382 0.10528 0.0
C62 C 0.1878 0.31147 0.11936 0.0
C63 C 0.37729 0.35814 0.21195 0.0
C64 C 0.21963 0.29455 0.18014 0.0
C65 C 0.22135 0.14227 0.04598 0.0
C66 C 0.26232 0.17175 0.02137 0.0
C67 C 0.27603 0.34164 0.31515 0.0
C68 C 0.45417 0.30275 0.37283 0.0
C69 C 0.48001 0.25702 0.40054 0.0
C70 C 0.52306 0.29332 0.406 0.0
C71 C 0.49693 0.33931 0.37959 0.0
C72 C 0.44552 0.2617 0.38412 0.0
C73 C 0.53121 0.33452 0.39613 0.0
C74 C 0.26271 0.22204 0.30675 0.0
C75 C 0.42046 0.30664 0.34998 0.0
H76 H 0.08971 0.24679 0.06482 0.0
H77 H 0.15391 0.21036 0.15194 0.0
H78 H 0.09438 0.1899 0.09996 0.0
H79 H 0.21397 0.34541 0.12505 0.0
H80 H 0.54983 0.28993 0.41898 0.0
H81 H 0.50408 0.3714 0.3714 0.0
H82 H 0.41256 0.23329 0.37924 0.0
H83 H 0.56416 0.36272 0.40115 0.0
Eu84 Eu 0.76412 0.31432 0.27958 0.0
C85 C 0.90959 0.2638 0.13115 0.0
N86 N 0.86825 0.23591 0.15383 0.0
C87 C 0.85422 0.18516 0.07685 0.0
C88 C 0.92378 0.254 0.07942 0.0
C89 C 0.84121 0.19645 0.12797 0.0
C90 C 0.89559 0.2141 0.05244 0.0
C91 C 0.98002 0.33253 0.13631 0.0
C92 C 0.9379 0.30245 0.15963 0.0
C93 C 0.9935 0.32323 0.08455 0.0
C94 C 0.96567 0.284 0.05629 0.0
Eu95 Eu 0.85092 0.25755 0.24042 0.0
N96 N 0.92365 0.31122 0.20969 0.0
C97 C 1.0073 0.37126 0.16565 0.0
C98 C 0.95111 0.34793 0.23882 0.0
C99 C 0.99295 0.37878 0.21717 0.0
H100 H 0.81011 0.17294 0.14678 0.0
H101 H 1.01428 0.40821 0.24033 0.0
H102 H 0.80951 0.40592 0.36426 0.0
H103 H 0.58679 0.18659 0.29802 0.0
H104 H 0.94137 0.35343 0.27875 0.0
H105 H 1.03974 0.39527 0.14901 0.0
H106 H 0.66159 0.23455 0.25272 0.0
H107 H 0.83264 0.15387 0.05645 0.0
H108 H 1.02554 0.3461 0.06602 0.0
H109 H 0.97686 0.27717 0.01647 0.0
H110 H 0.80084 0.42803 0.45628 0.0
H111 H 0.90599 0.20486 0.01305 0.0
H112 H 0.57581 0.19602 0.3913 0.0
N113 N 0.7554 0.34098 0.36671 0.0
C114 C 0.71753 0.31437 0.39498 0.0
C115 C 0.77773 0.39551 0.43972 0.0
C116 C 0.70966 0.32626 0.44752 0.0
C117 C 0.78338 0.38246 0.38771 0.0
C118 C 0.7412 0.36687 0.46993 0.0
N119 N 0.69123 0.26928 0.31974 0.0
C120 C 0.6561 0.23897 0.29337 0.0
C121 C 0.64232 0.25143 0.39799 0.0
C122 C 0.68409 0.27766 0.37067 0.0
C123 C 0.60776 0.21734 0.37138 0.0
C124 C 0.61402 0.21189 0.31883 0.0
H125 H 0.73613 0.37763 0.51002 0.0
H126 H 0.66288 0.30688 0.51589 0.0
H127 H 0.60392 0.24107 0.4724 0.0
O128 O 0.72854 0.31717 0.22442 0.0
O129 O 0.73937 0.24488 0.29692 0.0
O130 O 0.80383 0.24639 0.31564 0.0
O131 O 0.73978 0.36556 0.29207 0.0
O132 O 0.76575 0.27183 0.20353 0.0
O133 O 0.77968 0.21509 0.21434 0.0
O134 O 0.90702 0.24891 0.25922 0.0
O135 O 0.85309 0.30396 0.19079 0.0
O136 O 0.8359 0.35831 0.24362 0.0
O137 O 0.8466 0.1914 0.23482 0.0
O138 O 0.86015 0.30465 0.3146 0.0
O139 O 0.83507 0.3545 0.30432 0.0
C140 C 0.7587 0.23086 0.32105 0.0
C141 C 0.74133 0.38761 0.21729 0.0
C142 C 0.72316 0.4159 0.15701 0.0
C143 C 0.76851 0.45017 0.154 0.0
C144 C 0.7867 0.42115 0.21372 0.0
C145 C 0.8002 0.45242 0.18194 0.0
C146 C 0.71023 0.3845 0.18836 0.0
C147 C 0.757 0.22966 0.19485 0.0
C148 C 0.72584 0.35341 0.24826 0.0
C149 C 0.66931 0.29861 0.47542 0.0
C150 C 0.63569 0.26118 0.45067 0.0
C151 C 0.85836 0.34536 0.20235 0.0
C152 C 0.88094 0.18611 0.29797 0.0
C153 C 0.91602 0.16532 0.35019 0.0
C154 C 0.87372 0.14966 0.38201 0.0
C155 C 0.83859 0.16882 0.32919 0.0
C156 C 0.91985 0.18445 0.30869 0.0
C157 C 0.83521 0.15128 0.37139 0.0
C158 C 0.85864 0.34342 0.32673 0.0
C159 C 0.88448 0.2059 0.25447 0.0
H160 H 0.77928 0.47573 0.13096 0.0
H161 H 0.81144 0.42311 0.2353 0.0
H162 H 0.83501 0.47865 0.17934 0.0
H163 H 0.67583 0.35733 0.19028 0.0
H164 H 0.86987 0.13377 0.41346 0.0
H165 H 0.80801 0.1683 0.32034 0.0
H166 H 0.95216 0.19585 0.2835 0.0
H167 H 0.80238 0.13755 0.39499 0.0
Eu168 Eu 0.78475 0.74462 0.30371 0.0
C169 C 0.92737 0.8642 0.13716 0.0
N170 N 0.90981 0.87592 0.18468 0.0
C171 C 0.98138 0.94029 0.19587 0.0
C172 C 0.97314 0.89036 0.11716 0.0
C173 C 0.93548 0.91398 0.21361 0.0
C174 C 1.00044 0.92827 0.1475 0.0
C175 C 0.91508 0.81584 0.05706 0.0
C176 C 0.8989 0.82697 0.10759 0.0
C177 C 0.96034 0.84208 0.0372 0.0
C178 C 0.98962 0.87877 0.06711 0.0
Eu179 Eu 0.83217 0.82947 0.21069 0.0
N180 N 0.85491 0.80254 0.12773 0.0
C181 C 0.88485 0.77951 0.02751 0.0
C182 C 0.82465 0.76833 0.09868 0.0
C183 C 0.83927 0.75585 0.04836 0.0
H184 H 0.92021 0.92488 0.24976 0.0
H185 H 0.81523 0.72847 0.02552 0.0
H186 H 0.69171 0.65566 0.25872 0.0
H187 H 0.80478 0.84005 0.4894 0.0
H188 H 0.78905 0.75122 0.11375 0.0
H189 H 0.89603 0.77009 0.98839 0.0
H190 H 0.82846 0.82423 0.39849 0.0
H191 H 1.00171 0.97028 0.21911 0.0
H192 H 0.97243 0.83489 0.99839 0.0
H193 H 1.02447 0.89867 0.05073 0.0
H194 H 0.60945 0.61442 0.28824 0.0
H195 H 1.03579 0.94912 0.13347 0.0
H196 H 0.72508 0.79546 0.52667 0.0
N197 N 0.70465 0.70384 0.32482 0.0
C198 C 0.68769 0.71551 0.37283 0.0
C199 C 0.63086 0.64316 0.31212 0.0
C200 C 0.64121 0.69097 0.39228 0.0
C201 C 0.67745 0.66745 0.29495 0.0
C202 C 0.61254 0.65512 0.36088 0.0
N203 N 0.76198 0.77451 0.38426 0.0
C204 C 0.79296 0.8069 0.41392 0.0
C205 C 0.70222 0.75926 0.45525 0.0
C206 C 0.7175 0.75052 0.40378 0.0
C207 C 0.73451 0.7907 0.48636 0.0
C208 C 0.77974 0.81548 0.46551 0.0
H209 H 0.57665 0.63551 0.37449 0.0
H210 H 0.5897 0.68316 0.45852 0.0
H211 H 0.6436 0.74174 0.51372 0.0
O212 O 0.82509 0.737 0.35034 0.0
O213 O 0.75089 0.79363 0.31721 0.0
O214 O 0.81015 0.85611 0.29011 0.0
O215 O 0.76288 0.68081 0.32715 0.0
O216 O 0.86024 0.7947 0.30304 0.0
O217 O 0.86419 0.8577 0.28418 0.0
O218 O 0.7789 0.83451 0.18035 0.0
O219 O 0.86651 0.78027 0.1901 0.0
O220 O 0.81921 0.71914 0.23071 0.0
O221 O 0.84382 0.89211 0.19151 0.0
O222 O 0.75857 0.77403 0.21154 0.0
O223 O 0.76115 0.71336 0.2273 0.0
C224 C 0.76912 0.83673 0.31551 0.0
C225 C 0.82632 0.66762 0.33034 0.0
C226 C 0.88288 0.64669 0.34544 0.0
C227 C 0.87966 0.61971 0.29837 0.0
C228 C 0.82278 0.64016 0.28348 0.0
C229 C 0.8496 0.61649 0.26755 0.0
C230 C 0.85685 0.67118 0.36069 0.0
C231 C 0.87817 0.83805 0.30821 0.0
C232 C 0.80016 0.69427 0.34733 0.0
C233 C 0.62527 0.70167 0.4429 0.0
C234 C 0.65592 0.73512 0.47443 0.0
C235 C 0.85489 0.73952 0.19814 0.0
C236 C 0.80204 0.89229 0.13121 0.0
C237 C 0.75545 0.89859 0.07845 0.0
C238 C 0.79496 0.93296 0.05811 0.0
C239 C 0.84113 0.92696 0.11035 0.0
C240 C 0.75905 0.8784 0.11518 0.0
C241 C 0.8372 0.94765 0.07489 0.0
C242 C 0.74572 0.73102 0.20287 0.0
C243 C 0.80408 0.87621 0.17547 0.0
H244 H 0.8991 0.60003 0.2863 0.0
H245 H 0.79979 0.63734 0.25899 0.0
H246 H 0.8468 0.59535 0.23145 0.0
H247 H 0.86012 0.69269 0.39645 0.0
H248 H 0.79259 0.95004 0.03118 0.0
H249 H 0.87446 0.9393 0.12271 0.0
H250 H 0.72807 0.85353 0.13292 0.0
H251 H 0.86712 0.97535 0.06035 0.0
Eu252 Eu 0.26662 0.82227 0.26326 0.0
C253 C 0.34484 0.71151 0.341 0.0
N254 N 0.36805 0.7513 0.32411 0.0
C255 C 0.41558 0.77973 0.38985 0.0
C256 C 0.35583 0.70447 0.38378 0.0
C257 C 0.40349 0.78503 0.3472 0.0
C258 C 0.39147 0.73934 0.40843 0.0
C259 C 0.28476 0.63613 0.33235 0.0
C260 C 0.30937 0.67799 0.31595 0.0
C261 C 0.29559 0.62894 0.37489 0.0
C262 C 0.33085 0.66311 0.40072 0.0
Eu263 Eu 0.34293 0.75936 0.25498 0.0
N264 N 0.29851 0.68649 0.27602 0.0
C265 C 0.2496 0.60285 0.30588 0.0
C266 C 0.26565 0.65336 0.24878 0.0
C267 C 0.24029 0.61143 0.26368 0.0
H268 H 0.42271 0.8159 0.33241 0.0
H269 H 0.21385 0.58559 0.24226 0.0
H270 H 0.2175 0.77097 0.15755 0.0
H271 H 0.38824 0.99621 0.31212 0.0
H272 H 0.25923 0.6583 0.21481 0.0
H273 H 0.22983 0.57031 0.31732 0.0
H274 H 0.33227 0.92172 0.32952 0.0
H275 H 0.44352 0.80676 0.40829 0.0
H276 H 0.27664 0.59718 0.38835 0.0
H277 H 0.33861 0.65718 0.43368 0.0
H278 H 0.22249 0.78753 0.07349 0.0
H279 H 0.40083 0.73532 0.44154 0.0
H280 H 0.40064 1.01655 0.22805 0.0
N281 N 0.26722 0.83523 0.18258 0.0
C282 C 0.29434 0.87739 0.17255 0.0
C283 C 0.24308 0.81298 0.10086 0.0
C284 C 0.29827 0.88829 0.12494 0.0
C285 C 0.24062 0.80352 0.14828 0.0
C286 C 0.27238 0.85543 0.08896 0.0
N287 N 0.31701 0.89739 0.25431 0.0
C288 C 0.33903 0.92886 0.29185 0.0
C289 C 0.35102 0.95206 0.19799 0.0
C290 C 0.32052 0.90894 0.20892 0.0
C291 C 0.37659 0.98324 0.23514 0.0
C292 C 0.36997 0.97178 0.2825 0.0
H293 H 0.27488 0.86248 0.05188 0.0
H294 H 0.33274 0.93986 0.07758 0.0
H295 H 0.37894 0.9956 0.14136 0.0
O296 O 0.22993 0.85902 0.31263 0.0
O297 O 0.31671 0.81685 0.19253 0.0
O298 O 0.37679 0.82627 0.22706 0.0
O299 O 0.19725 0.80838 0.25254 0.0
O300 O 0.3087 0.84504 0.3288 0.0
O301 O 0.3715 0.83185 0.28863 0.0
O302 O 0.36226 0.71918 0.18974 0.0
O303 O 0.2952 0.75808 0.32878 0.0
O304 O 0.2343 0.76149 0.30597 0.0
O305 O 0.4148 0.76873 0.23477 0.0
O306 O 0.29177 0.73298 0.19678 0.0
O307 O 0.23401 0.74894 0.24457 0.0
C308 C 0.36123 0.83532 0.19363 0.0
C309 C 0.15679 0.8014 0.3327 0.0
C310 C 0.13985 0.77412 0.41262 0.0
C311 C 0.09677 0.74148 0.39872 0.0
C312 C 0.11307 0.7704 0.32075 0.0
C313 C 0.08392 0.73958 0.35289 0.0
C314 C 0.17108 0.79996 0.37601 0.0
C315 C 0.35191 0.85154 0.32641 0.0
C316 C 0.19092 0.82996 0.29664 0.0
C317 C 0.32886 0.93109 0.11414 0.0
C318 C 0.35527 0.96279 0.15045 0.0
C319 C 0.25082 0.74647 0.33333 0.0
C320 C 0.42845 0.76855 0.14662 0.0
C321 C 0.43574 0.76456 0.05603 0.0
C322 C 0.46234 0.81077 0.06074 0.0
C323 C 0.45771 0.81421 0.15049 0.0
C324 C 0.41584 0.74489 0.09996 0.0
C325 C 0.47383 0.83522 0.10773 0.0
C326 C 0.2483 0.72681 0.20541 0.0
C327 C 0.4061 0.74532 0.19068 0.0
H328 H 0.07183 0.71946 0.42454 0.0
H329 H 0.10223 0.76905 0.28591 0.0
H330 H 1.05065 0.71524 0.34294 0.0
H331 H 0.20621 0.8217 0.38285 0.0
H332 H 0.47884 0.82679 0.02751 0.0
H333 H 0.46731 0.83381 0.18644 0.0
H334 H 0.39435 0.70948 0.09765 0.0
H335 H 0.49675 0.87025 0.11066 0.0
Eu336 Eu 0.27564 0.79874 0.77192 0.0
C337 C 0.41903 0.74399 0.61459 0.0
N338 N 0.38025 0.71695 0.64153 0.0
C339 C 0.36351 0.66049 0.56939 0.0
C340 C 0.43086 0.73061 0.56316 0.0
C341 C 0.35346 0.67512 0.62036 0.0
C342 C 0.40211 0.68855 0.54049 0.0
C343 C 0.48744 0.81403 0.61166 0.0
C344 C 0.44722 0.78512 0.63858 0.0
C345 C 0.49913 0.80109 0.56031 0.0
C346 C 0.47094 0.75946 0.53613 0.0
Eu347 Eu 0.36423 0.74644 0.72578 0.0
N348 N 0.43427 0.79766 0.68785 0.0
C349 C 0.51398 0.85566 0.63685 0.0
C350 C 0.46209 0.83661 0.71368 0.0
C351 C 0.50206 0.86664 0.68838 0.0
H352 H 0.32488 0.6527 0.643 0.0
H353 H 0.52311 0.89844 0.70833 0.0
H354 H 0.31356 0.88864 0.86012 0.0
H355 H 0.11703 0.6448 0.77891 0.0
H356 H 0.45274 0.84504 0.7533 0.0
H357 H 0.54305 0.87964 0.61639 0.0
H358 H 0.18898 0.69954 0.73837 0.0
H359 H 0.34172 0.62749 0.55256 0.0
H360 H 0.52991 0.82304 0.53899 0.0
H361 H 0.48047 0.74984 0.49653 0.0
H362 H 0.29216 0.91051 0.9504 0.0
H363 H 0.40985 0.67715 0.50099 0.0
H364 H 0.09178 0.6605 0.86988 0.0
N365 N 0.25699 0.82456 0.85675 0.0
C366 C 0.21767 0.79595 0.88151 0.0
C367 C 0.27109 0.87813 0.93154 0.0
C368 C 0.20398 0.80731 0.93296 0.0
C369 C 0.28339 0.86545 0.88056 0.0
C370 C 0.23132 0.84888 0.95791 0.0
N371 N 0.20548 0.74456 0.80592 0.0
C372 C 0.17883 0.70633 0.77809 0.0
C373 C 0.14994 0.72493 0.88001 0.0
C374 C 0.1909 0.75512 0.8553 0.0
C375 C 0.1235 0.68457 0.85225 0.0
C376 C 0.13773 0.67549 0.80092 0.0
H377 H 0.22175 0.85888 0.99737 0.0
H378 H 0.15269 0.78495 0.99748 0.0
H379 H 0.10592 0.71295 0.95128 0.0
O380 O 0.23943 0.8018 0.7167 0.0
O381 O 0.27438 0.752 0.81923 0.0
O382 O 0.29402 0.70054 0.76353 0.0
O383 O 0.24497 0.84534 0.78809 0.0
O384 O 0.27068 0.75318 0.69564 0.0
O385 O 0.29379 0.70172 0.70385 0.0
O386 O 0.40904 0.75083 0.77587 0.0
O387 O 0.37078 0.79931 0.68136 0.0
O388 O 0.34482 0.84635 0.73835 0.0
O389 O 0.38652 0.69411 0.71748 0.0
O390 O 0.36419 0.78787 0.80292 0.0
O391 O 0.34643 0.84352 0.79764 0.0
C392 C 0.27264 0.71207 0.80665 0.0
C393 C 0.24581 0.87282 0.71765 0.0
C394 C 0.2275 0.90796 0.66415 0.0
C395 C 0.27001 0.9455 0.67043 0.0
C396 C 0.2883 0.91006 0.72263 0.0
C397 C 0.30027 0.94625 0.69906 0.0
C398 C 0.21568 0.87156 0.68804 0.0
C399 C 0.26963 0.71333 0.68329 0.0
C400 C 0.23248 0.83537 0.74368 0.0
C401 C 0.16357 0.77696 0.95783 0.0
C402 C 0.13676 0.73593 0.93146 0.0
C403 C 0.37 0.83849 0.69653 0.0
C404 C 0.3924 0.6822 0.79563 0.0
C405 C 0.41305 0.65654 0.85703 0.0
C406 C 0.36584 0.63102 0.87235 0.0
C407 C 0.3455 0.65546 0.81013 0.0
C408 C 0.42602 0.68276 0.81921 0.0
C409 C 0.33229 0.63048 0.84883 0.0
C410 C 0.37102 0.82942 0.81443 0.0
C411 C 0.40658 0.71131 0.75789 0.0
H412 H 0.27965 0.97482 0.65405 0.0
H413 H 0.31184 0.91138 0.74538 0.0
H414 H 0.33278 0.97521 0.70355 0.0
H415 H 0.18321 0.84238 0.68377 0.0
H416 H 0.35493 0.61111 0.9021 0.0
H417 H 0.31909 0.65363 0.79153 0.0
H418 H 0.46225 0.70274 0.80714 0.0
H419 H 0.29604 0.61034 0.86025 0.0
Eu420 Eu 0.29001 0.22909 0.79902 0.0
C421 C 0.43586 0.34144 0.63474 0.0
N422 N 0.42034 0.35267 0.68351 0.0
C423 C 0.49597 0.41021 0.69561 0.0
C424 C 0.4824 0.36477 0.61447 0.0
C425 C 0.44933 0.38711 0.71368 0.0
C426 C 0.51266 0.39891 0.64583 0.0
C427 C 0.41878 0.29891 0.55233 0.0
C428 C 0.40469 0.30786 0.60417 0.0
C429 C 0.46498 0.32224 0.53224 0.0
C430 C 0.4969 0.35448 0.56326 0.0
Eu431 Eu 0.3401 0.31419 0.70737 0.0
N432 N 0.3601 0.28551 0.62451 0.0
C433 C 0.38562 0.26787 0.52186 0.0
C434 C 0.32785 0.25514 0.59498 0.0
C435 C 0.34009 0.24547 0.54338 0.0
H436 H 0.4366 0.39814 0.7511 0.0
H437 H 0.31412 0.22182 0.52002 0.0
H438 H 0.2088 0.13133 0.75139 0.0
H439 H 0.28843 0.32689 0.98394 0.0
H440 H 0.29226 0.24019 0.61035 0.0
H441 H 0.3946 0.26131 0.48159 0.0
H442 H 0.32146 0.30891 0.89695 0.0
H443 H 0.51877 0.43747 0.71974 0.0
H444 H 0.47619 0.31602 0.49262 0.0
H445 H 0.53241 0.37224 0.54693 0.0
H446 H 0.12708 0.08187 0.77498 0.0
H447 H 0.54863 0.41755 0.63163 0.0
H448 H 0.20743 0.27995 0.01429 0.0
N449 N 0.21173 0.17983 0.81625 0.0
C450 C 0.18989 0.19 0.86195 0.0
C451 C 0.14412 0.11242 0.79949 0.0
C452 C 0.14393 0.16125 0.87821 0.0
C453 C 0.19013 0.14112 0.78561 0.0
C454 C 0.1208 0.12262 0.84591 0.0
N455 N 0.2588 0.25496 0.87756 0.0
C456 C 0.28557 0.28965 0.90927 0.0
C457 C 0.19412 0.23674 0.9433 0.0
C458 C 0.2144 0.22791 0.8939 0.0
C459 C 0.22112 0.27297 0.97571 0.0
C460 C 0.26704 0.29952 0.95869 0.0
H461 H 0.08544 0.09979 0.85711 0.0
H462 H 0.08792 0.14912 0.94011 0.0
H463 H 0.13212 0.21397 0.99689 0.0
O464 O 0.33858 0.22679 0.84084 0.0
O465 O 0.25499 0.27751 0.81295 0.0
O466 O 0.31139 0.34107 0.78365 0.0
O467 O 0.27356 0.16857 0.82695 0.0
O468 O 0.36368 0.28339 0.80356 0.0
O469 O 0.36398 0.34416 0.78372 0.0
O470 O 0.2951 0.32502 0.66983 0.0
O471 O 0.37462 0.26569 0.6929 0.0
O472 O 0.31896 0.20209 0.72309 0.0
O473 O 0.36277 0.37887 0.6856 0.0
O474 O 0.26524 0.26247 0.70658 0.0
O475 O 0.26455 0.20014 0.72234 0.0
C476 C 0.27124 0.32038 0.81022 0.0
C477 C 0.32045 0.16044 0.87651 0.0
C478 C 0.37071 0.15348 0.92349 0.0
C479 C 0.33373 0.115 0.9394 0.0
C480 C 0.28441 0.12087 0.89138 0.0
C481 C 0.29103 0.09852 0.92289 0.0
C482 C 0.36408 0.17631 0.89198 0.0
C483 C 0.37731 0.32644 0.81059 0.0
C484 C 0.31074 0.18615 0.84834 0.0
C485 C 0.1231 0.17095 0.92676 0.0
C486 C 0.14831 0.20819 0.95927 0.0
C487 C 0.35853 0.22288 0.69552 0.0
C488 C 0.31662 0.39581 0.644 0.0
C489 C 0.26447 0.41421 0.61424 0.0
C490 C 0.30055 0.45628 0.60776 0.0
C491 C 0.35248 0.43775 0.63662 0.0
C492 C 0.27248 0.38385 0.63234 0.0
C493 C 0.34426 0.46794 0.61903 0.0
C494 C 0.24951 0.21921 0.699 0.0
C495 C 0.32486 0.36612 0.6669 0.0
H496 H 0.33846 0.09672 0.96311 0.0
H497 H 0.25048 0.10804 0.8803 0.0
H498 H 0.26282 0.06857 0.93494 0.0
H499 H 0.39262 0.20608 0.87972 0.0
H500 H 0.29484 0.48007 0.59373 0.0
H501 H 0.38674 0.44753 0.64515 0.0
H502 H 0.24441 0.35167 0.63808 0.0
H503 H 0.37195 0.50032 0.61366 0.0
Eu504 Eu 0.78606 0.30257 0.7518 0.0
C505 C 0.84718 0.1926 0.83257 0.0
N506 N 0.87408 0.23281 0.81716 0.0
C507 C 0.90826 0.26042 0.8933 0.0
C508 C 0.84853 0.18546 0.88034 0.0
C509 C 0.90544 0.26604 0.84585 0.0
C510 C 0.87923 0.22015 0.91088 0.0
C511 C 0.78594 0.11826 0.81806 0.0
C512 C 0.81606 0.15946 0.80172 0.0
C513 C 0.78728 0.11104 0.86561 0.0
C514 C 0.81845 0.14454 0.89666 0.0
Eu515 Eu 0.86311 0.24132 0.73931 0.0
N516 N 0.8138 0.16816 0.75688 0.0
C517 C 0.75469 0.08578 0.78652 0.0
C518 C 0.78524 0.13565 0.72489 0.0
C519 C 0.7548 0.09432 0.73949 0.0
H520 H 0.92863 0.29669 0.83192 0.0
H521 H 0.73153 0.069 0.71432 0.0
H522 H 0.70739 0.24896 0.67278 0.0
H523 H 0.91176 0.47785 0.77543 0.0
H524 H 0.78604 0.14091 0.68777 0.0
H525 H 0.73074 0.05386 0.79788 0.0
H526 H 0.86503 0.40437 0.80042 0.0
H527 H 0.93268 0.28717 0.91631 0.0
H528 H 0.76399 0.07978 0.87893 0.0
H529 H 0.81869 0.13864 0.93345 0.0
H530 H 0.68741 0.26144 0.59853 0.0
H531 H 0.88078 0.21618 0.94801 0.0
H532 H 0.8995 0.49497 0.69929 0.0
N533 N 0.7618 0.31348 0.6841 0.0
C534 C 0.78528 0.35413 0.66932 0.0
C535 C 0.7152 0.2877 0.61788 0.0
C536 C 0.77507 0.36286 0.62717 0.0
C537 C 0.72684 0.28052 0.65956 0.0
C538 C 0.73965 0.32895 0.60138 0.0
N539 N 0.82934 0.37727 0.73629 0.0
C540 C 0.86044 0.40998 0.76582 0.0
C541 C 0.84508 0.42944 0.68139 0.0
C542 C 0.82 0.38692 0.6961 0.0
C543 C 0.87923 0.46204 0.7096 0.0
C544 C 0.88645 0.45242 0.75239 0.0
H545 H 0.73071 0.33427 0.56892 0.0
H546 H 0.79344 0.41211 0.57949 0.0
H547 H 0.85474 0.47041 0.62694 0.0
O548 O 0.76078 0.32743 0.8262 0.0
O549 O 0.83413 0.30572 0.6781 0.0
O550 O 0.89529 0.30505 0.70263 0.0
O551 O 0.71824 0.30268 0.76592 0.0
O552 O 0.83736 0.32889 0.80953 0.0
O553 O 0.89674 0.31422 0.76286 0.0
O554 O 0.89215 0.20273 0.68104 0.0
O555 O 0.81176 0.24277 0.8107 0.0
O556 O 0.75225 0.23424 0.77578 0.0
O557 O 0.93361 0.24998 0.73756 0.0
O558 O 0.81956 0.21819 0.67509 0.0
O559 O 0.75683 0.23094 0.71576 0.0
C560 C 0.87864 0.31931 0.67483 0.0
C561 C 0.68455 0.27315 0.8417 0.0
C562 C 0.64892 0.2581 0.92446 0.0
C563 C 0.61104 0.22105 0.90466 0.0
C564 C 0.64553 0.23906 0.82126 0.0
C565 C 0.61007 0.21072 0.85265 0.0
C566 C 0.68948 0.27329 0.89063 0.0
C567 C 0.88111 0.33607 0.80139 0.0
C568 C 0.71901 0.30922 0.81412 0.0
C569 C 0.80054 0.4049 0.612 0.0
C570 C 0.83544 0.43809 0.63904 0.0
C571 C 0.76715 0.22524 0.80983 0.0
C572 C 0.96254 0.25934 0.65296 0.0
C573 C 0.97053 0.27281 0.56729 0.0
C574 C 0.99754 0.31821 0.58212 0.0
C575 C 0.99137 0.30454 0.66639 0.0
C576 C 0.95254 0.24421 0.60376 0.0
C577 C 1.00855 0.33367 0.6311 0.0
C578 C 0.77643 0.21169 0.6776 0.0
C579 C 0.93383 0.23025 0.69123 0.0
H580 H 0.57998 0.20439 0.92869 0.0
H581 H 0.64203 0.23492 0.7821 0.0
H582 H 0.57986 0.1841 0.83756 0.0
H583 H 0.72192 0.29542 0.90466 0.0
H584 H 1.01259 0.34108 0.55495 0.0
H585 H 0.99892 0.31781 0.7046 0.0
H586 H 0.93101 0.2092 0.59413 0.0
H587 H 1.03045 0.36844 0.64178 0.0
Eu588 Eu 0.77584 0.75359 0.69486 0.0
C589 C 0.90418 0.88458 0.86418 0.0
N590 N 0.91255 0.86937 0.81474 0.0
C591 C 0.98119 0.93677 0.80435 0.0
C592 C 0.93507 0.92645 0.88592 0.0
C593 C 0.95103 0.89412 0.78513 0.0
C594 C 0.97321 0.95306 0.85506 0.0
C595 C 0.85866 0.87064 0.94602 0.0
C596 C 0.86575 0.85738 0.89378 0.0
C597 C 0.89132 0.91084 0.96798 0.0
C598 C 0.92845 0.93936 0.93802 0.0
Eu599 Eu 0.86433 0.79461 0.78936 0.0
N600 N 0.83628 0.81738 0.87178 0.0
C601 C 0.81988 0.84239 0.9748 0.0
C602 C 0.79804 0.79 0.89934 0.0
C603 C 0.78898 0.80224 0.95118 0.0
H604 H 0.96007 0.88014 0.74765 0.0
H605 H 0.75887 0.7802 0.97309 0.0
H606 H 0.69755 0.65163 0.71474 0.0
H607 H 0.88742 0.81202 0.52195 0.0
H608 H 0.7751 0.75836 0.88174 0.0
H609 H 0.81354 0.85116 0.01516 0.0
H610 H 0.85121 0.81957 0.60877 0.0
H611 H 1.0116 0.95627 0.78055 0.0
H612 H 0.88912 0.91967 0.00815 0.0
H613 H 0.95283 0.9706 0.95574 0.0
H614 H 0.66465 0.57636 0.66691 0.0
H615 H 0.99755 0.98552 0.87036 0.0
H616 H 0.8629 0.73835 0.47035 0.0
N617 N 0.7469 0.67985 0.65404 0.0
C618 C 0.76365 0.67354 0.6046 0.0
C619 C 0.69277 0.60324 0.64903 0.0
C620 C 0.74501 0.63133 0.57526 0.0
C621 C 0.71188 0.64571 0.67639 0.0
C622 C 0.70937 0.59599 0.59817 0.0
N623 N 0.8153 0.75035 0.61176 0.0
C624 C 0.84467 0.78692 0.58945 0.0
C625 C 0.8154 0.70402 0.53121 0.0
C626 C 0.79902 0.70956 0.58305 0.0
C627 C 0.84919 0.74107 0.50979 0.0
C628 C 0.86353 0.78277 0.53895 0.0
H629 H 0.694 0.56317 0.57678 0.0
H630 H 0.74688 0.59401 0.50047 0.0
H631 H 0.80631 0.65811 0.46177 0.0
O632 O 0.75586 0.79025 0.65721 0.0
O633 O 0.81603 0.71088 0.68451 0.0
O634 O 0.88397 0.76338 0.7107 0.0
O635 O 0.7042 0.7272 0.68165 0.0
O636 O 0.83048 0.82604 0.69944 0.0
O637 O 0.8914 0.81863 0.71437 0.0
O638 O 0.87613 0.75791 0.83631 0.0
O639 O 0.81957 0.83411 0.80602 0.0
O640 O 0.75307 0.78354 0.77314 0.0
O641 O 0.93355 0.80438 0.79207 0.0
O642 O 0.8075 0.72459 0.79052 0.0
O643 O 0.74392 0.72311 0.76706 0.0
C644 C 0.85987 0.72351 0.68776 0.0
C645 C 0.67783 0.76382 0.63904 0.0
C646 C 0.65057 0.80881 0.61187 0.0
C647 C 0.608 0.77186 0.60608 0.0
C648 C 0.6356 0.72669 0.63185 0.0
C649 C 0.60084 0.73079 0.61542 0.0
C650 C 0.68553 0.80475 0.62809 0.0
C651 C 0.87526 0.84036 0.69723 0.0
C652 C 0.71323 0.76016 0.65919 0.0
C653 C 0.76144 0.62595 0.52384 0.0
C654 C 0.79598 0.6623 0.50187 0.0
C655 C 0.77586 0.82146 0.80094 0.0
C656 C 0.95035 0.79307 0.86481 0.0
C657 C 0.98614 0.77225 0.91642 0.0
C658 C 1.02114 0.81588 0.92118 0.0
C659 C 0.98374 0.83723 0.87306 0.0
C660 C 0.9507 0.76116 0.88816 0.0
C661 C 1.01894 0.84845 0.90109 0.0
C662 C 0.7626 0.7085 0.79195 0.0
C663 C 0.92094 0.77806 0.82505 0.0
H664 H 0.58077 0.77462 0.59326 0.0
H665 H 0.62935 0.69462 0.63924 0.0
H666 H 0.56832 0.70213 0.60994 0.0
H667 H 0.71818 0.83359 0.63298 0.0
H668 H 1.04972 0.82503 0.94126 0.0
H669 H 0.9842 0.86265 0.85575 0.0
H670 H 0.92449 0.72726 0.88237 0.0
H671 H 1.04532 0.88225 0.90609 0.0
Co672 Co 0.08955 0.93853 0.4819 0.0
Co673 Co 0.09781 0.99712 0.56582 0.0
Co674 Co 0.06869 1.02883 0.49922 0.0
O675 O 0.10958 1.00166 0.49742 0.0
H676 H 0.14184 1.01964 0.4868 0.0
O677 O 1.02805 0.05552 0.49986 0.0
Co678 Co 1.04616 0.11751 0.51123 0.0
Co679 Co 1.04245 0.05905 0.43146 0.0
H680 H 0.99564 0.03701 0.50904 0.0
O681 O 0.14165 0.99872 0.59285 0.0
O682 O 0.08273 0.93808 0.55708 0.0
O683 O 1.04944 1.00759 0.613 0.0
O684 O 1.01581 0.98733 0.54605 0.0
O685 O 0.0956 0.07296 0.55706 0.0
O686 O 1.0586 0.17313 0.52081 0.0
O687 O 0.99035 0.11409 0.50868 0.0
O688 O 0.10916 0.13101 0.52272 0.0
O689 O 0.12193 0.07119 0.45375 0.0
O690 O 0.09099 0.04784 0.38498 0.0
O691 O 1.05628 0.11702 0.43379 0.0
O692 O 0.9983 0.05217 0.4031 0.0
C693 C 0.11774 0.89652 0.4757 0.0
C694 C 1.0183 0.94344 0.44423 0.0
C695 C 1.01294 0.98692 0.593 0.0
C696 C 0.11849 0.956 0.58224 0.0
C697 C 1.01613 0.15683 0.51268 0.0
C698 C 0.11689 0.11444 0.55522 0.0
C699 C 0.12628 0.07112 0.40659 0.0
C700 C 1.02198 0.09493 0.40597 0.0
O701 O 0.07499 0.88227 0.46996 0.0
O702 O 0.14524 0.93896 0.47913 0.0
O703 O 1.04115 0.98463 0.44116 0.0
O704 O 1.02618 0.92723 0.47675 0.0
Co705 Co 0.6167 0.95113 0.93495 0.0
Co706 Co 0.57393 0.94902 0.01535 0.0
Co707 Co 0.56515 1.02997 0.00273 0.0
O708 O 0.60972 1.00026 0.9881 0.0
H709 H 0.63709 1.01814 0.00432 0.0
O710 O 0.52038 0.05929 0.01743 0.0
Co711 Co 0.51355 0.10832 0.07018 0.0
Co712 Co 0.55511 0.11014 0.98966 0.0
H713 H 0.49275 0.04107 1.00175 0.0
O714 O 0.59701 0.94729 0.0663 0.0
O715 O 0.59731 0.91017 0.98609 0.0
O716 O 0.50858 0.92543 0.02439 0.0
O717 O 0.5218 0.99388 0.05997 0.0
O718 O 0.60459 0.07584 0.05364 0.0
O719 O 0.50466 0.15065 0.1175 0.0
O720 O 0.45153 0.09827 0.07105 0.0
O721 O 0.57622 0.12711 0.08051 0.0
O722 O 0.60836 0.06631 0.94547 0.0
O723 O 0.6205 0.13475 0.98039 0.0
O724 O 0.53102 0.14838 0.01852 0.0
O725 O 0.53082 0.11011 0.93886 0.0
C726 C 0.66731 0.92537 0.8996 0.0
C727 C 0.52328 0.94667 0.92721 0.0
C728 C 0.49582 0.95178 0.05635 0.0
C729 C 0.60835 0.91958 0.03179 0.0
C730 C 0.4633 0.1338 0.10563 0.0
C731 C 0.607 0.11337 0.07802 0.0
C732 C 0.63349 0.10859 0.94841 0.0
C733 C 0.51879 0.13748 0.97319 0.0
O734 O 0.62613 0.90874 0.8872 0.0
O735 O 0.67855 0.96055 0.93469 0.0
O736 O 0.52564 0.98409 0.95193 0.0
O737 O 0.55428 0.93304 0.92403 0.0
Co738 Co 0.11523 0.45277 0.93435 0.0
Co739 Co 0.07659 0.45436 0.01823 0.0
Co740 Co 1.06363 0.53107 0.00352 0.0
O741 O 0.10899 0.50233 0.98698 0.0
H742 H 0.13755 0.52145 1.00067 0.0
O743 O 1.01885 0.5605 0.01897 0.0
Co744 Co 1.01158 0.60873 0.07292 0.0
Co745 Co 1.05279 0.61019 0.99051 0.0
H746 H 0.99095 0.54213 0.0038 0.0
O747 O 0.10557 0.45302 0.06387 0.0
O748 O 0.09374 0.41295 0.98542 0.0
O749 O 1.01202 0.42951 0.02925 0.0
O750 O 1.02137 0.49704 0.06284 0.0
O751 O 0.10549 0.57794 0.05146 0.0
O752 O 1.0017 0.65055 0.12139 0.0
O753 O 0.95229 0.60205 0.06842 0.0
O754 O 0.07163 0.62372 0.08706 0.0
O755 O 0.10543 0.56445 0.94438 0.0
O756 O 0.1177 0.63279 0.97799 0.0
O757 O 1.03576 0.65192 0.02446 0.0
O758 O 1.02505 0.61387 0.94513 0.0
C759 C 0.16383 0.42462 0.90264 0.0
C760 C 1.02164 0.44855 0.92816 0.0
C761 C 0.99716 0.45476 0.06011 0.0
C762 C 0.10938 0.42192 0.02835 0.0
C763 C 0.96254 0.63609 0.10488 0.0
C764 C 0.10485 0.6126 0.08071 0.0
C765 C 0.13124 0.60635 0.94739 0.0
C766 C 1.0218 0.64502 0.98092 0.0
O767 O 0.12353 0.40867 0.8882 0.0
O768 O 0.17568 0.46086 0.93615 0.0
O769 O 1.02201 0.48419 0.95577 0.0
O770 O 1.05426 0.43662 0.9221 0.0
Co771 Co 0.56964 0.43748 0.98734 0.0
Co772 Co 0.592 0.50152 0.06464 0.0
Co773 Co 0.56143 0.53275 0.999 0.0
O774 O 0.59642 0.50024 0.99641 0.0
H775 H 0.62829 0.51434 0.98147 0.0
O776 O 0.52704 0.56525 0.99877 0.0
Co777 Co 0.51852 0.61285 0.04106 0.0
Co778 Co 0.57444 0.61239 0.9708 0.0
H779 H 0.50361 0.54911 0.97674 0.0
O780 O 0.63777 0.50139 0.08508 0.0
O781 O 0.57115 0.44217 0.06149 0.0
O782 O 0.55263 0.52166 0.11577 0.0
O783 O 0.51121 0.50154 0.05542 0.0
O784 O 0.60094 0.57997 0.0498 0.0
O785 O 0.50577 0.65561 0.0776 0.0
O786 O 0.46614 0.60059 0.01956 0.0
O787 O 0.57404 0.63162 0.06945 0.0
O788 O 0.60942 0.56077 0.93963 0.0
O789 O 0.63856 0.63029 0.97395 0.0
O790 O 0.55351 0.65247 0.98647 0.0
O791 O 0.56275 0.61104 0.91084 0.0
C792 C 0.59372 0.39227 0.97557 0.0
C793 C 0.4997 0.44522 0.95809 0.0
C794 C 0.51344 0.50239 0.1014 0.0
C795 C 0.61045 0.45915 0.07993 0.0
C796 C 0.47459 0.63894 0.04746 0.0
C797 C 0.60262 0.61741 0.07353 0.0
C798 C 0.64286 0.59984 0.94076 0.0
C799 C 0.54827 0.63943 0.93863 0.0
O800 O 0.54962 0.37997 0.97987 0.0
O801 O 0.62275 0.43392 0.97555 0.0
O802 O 0.52345 0.48513 0.94971 0.0
O803 O 0.50814 0.43228 0.99304 0.0
Co804 Co 0.13868 0.49037 0.50932 0.0
Co805 Co 0.14149 0.49796 0.42365 0.0
Co806 Co 1.06481 0.53095 0.50113 0.0
O807 O 0.09283 0.487 0.47471 0.0
H808 H 0.06924 0.45702 0.46845 0.0
O809 O 1.03663 0.57466 0.52655 0.0
Co810 Co 0.98501 0.56564 0.49705 0.0
Co811 Co 0.99306 0.56673 0.58296 0.0
H812 H 1.05994 0.60502 0.52862 0.0
O813 O 0.14444 0.45004 0.3769 0.0
O814 O 0.18183 0.48187 0.44484 0.0
O815 O 0.16521 0.55764 0.40669 0.0
O816 O 0.10709 0.57416 0.45104 0.0
O817 O 1.01943 0.49572 0.4525 0.0
O818 O 0.94114 0.56078 0.4677 0.0
O819 O 1.00511 0.62256 0.48786 0.0
O820 O 0.95885 0.50403 0.49918 0.0
O821 O 1.02238 0.48764 0.55124 0.0
O822 O 0.97123 0.50963 0.60419 0.0
O823 O 0.94742 0.57695 0.5648 0.0
O824 O 0.99179 0.61639 0.62632 0.0
C825 C 0.14756 0.44796 0.54072 0.0
C826 C 0.15301 0.57737 0.54236 0.0
C827 C 0.14488 0.58324 0.41995 0.0
C828 C 0.17383 0.45261 0.40346 0.0
C829 C 0.96702 0.60282 0.46751 0.0
C830 C 0.97583 0.48152 0.46488 0.0
C831 C 0.98805 0.4815 0.58696 0.0
C832 C 0.95849 0.60959 0.60279 0.0
O833 O 0.17597 0.48973 0.54446 0.0
O834 O 0.11397 0.4317 0.51367 0.0
O835 O 0.10974 0.56655 0.55052 0.0
O836 O 0.16936 0.55258 0.51145 0.0
Co837 Co 0.63728 0.99013 0.51212 0.0
Co838 Co 0.63214 0.98714 0.42443 0.0
Co839 Co 0.56423 1.03073 0.5027 0.0
O840 O 0.58801 0.98357 0.48016 0.0
H841 H 0.56295 0.95409 0.47896 0.0
O842 O 0.54112 0.07818 0.52463 0.0
Co843 Co 0.49064 0.07216 0.49573 0.0
Co844 Co 0.50235 0.07921 0.58348 0.0
H845 H 0.56662 0.10728 0.52359 0.0
O846 O 0.6329 0.93583 0.38304 0.0
O847 O 0.67504 0.97575 0.44646 0.0
O848 O 0.65915 0.04405 0.40187 0.0
O849 O 0.60971 0.07045 0.45085 0.0
O850 O 0.51811 0.99694 0.45392 0.0
O851 O 0.44815 0.0714 0.46516 0.0
O852 O 0.515 0.12832 0.48732 0.0
O853 O 0.46002 1.01064 0.49889 0.0
O854 O 0.5184 0.99126 0.55508 0.0
O855 O 0.47981 1.02577 0.6116 0.0
O856 O 0.45502 0.08573 0.56381 0.0
O857 O 0.50273 0.13275 0.6201 0.0
C858 C 0.64856 0.95084 0.54546 0.0
C859 C 0.6536 0.07524 0.54127 0.0
C860 C 0.6447 0.07407 0.41673 0.0
C861 C 0.66479 0.94289 0.40877 0.0
C862 C 0.4782 0.11254 0.46556 0.0
C863 C 0.4748 0.98681 0.46406 0.0
C864 C 0.48867 0.99224 0.59441 0.0
C865 C 0.46706 0.12133 0.59813 0.0
O866 O 0.67855 0.9919 0.5452 0.0
O867 O 0.61232 0.93431 0.5225 0.0
O868 O 0.61023 0.06469 0.55156 0.0
O869 O 0.66843 0.05105 0.50721 0.0
C870 C 0.23277 0.1802 0.38239 0.0
C871 C 0.23175 0.1817 0.33198 0.0
H872 H 0.20055 0.14456 0.44583 0.0
C873 C 0.19949 0.14403 0.30565 0.0
H874 H 0.25786 0.20776 0.40386 0.0
C875 C 0.16718 0.10764 0.32932 0.0
C876 C 0.16611 0.10707 0.38043 0.0
H877 H 0.1992 0.14233 0.2663 0.0
H878 H 0.14213 0.08021 0.30754 0.0
C879 C 0.2001 0.14357 0.40644 0.0
C880 C 0.99248 0.18015 0.37362 0.0
C881 C 0.95098 0.15122 0.35404 0.0
H882 H 1.05068 0.18495 0.40256 0.0
C883 C 0.93914 0.10589 0.34272 0.0
H884 H 1.00256 0.21555 0.38163 0.0
C885 C 0.96511 0.08882 0.35592 0.0
C886 C 1.0037 0.11661 0.38135 0.0
H887 H 0.90787 0.08315 0.32642 0.0
H888 H 0.9527 0.05308 0.34874 0.0
C889 C 1.01944 0.16276 0.38626 0.0
C890 C 0.92815 0.84413 0.3703 0.0
C891 C 0.9139 0.86496 0.34333 0.0
H892 H 0.97108 0.85185 0.42362 0.0
C893 C 0.93311 0.91157 0.3518 0.0
H894 H 0.91389 0.8083 0.36558 0.0
C895 C 0.96646 0.93642 0.3845 0.0
C896 C 0.98107 0.91578 0.41115 0.0
H897 H 0.92239 0.92915 0.33338 0.0
H898 H 0.98082 0.9721 0.38895 0.0
C899 C 0.96093 0.86912 0.40396 0.0
C900 C 0.10613 0.78874 0.49833 0.0
C901 C 0.14698 0.79089 0.46713 0.0
H902 H 1.06114 0.8211 0.51631 0.0
C903 C 0.18498 0.8327 0.47571 0.0
H904 H 0.07792 0.75712 0.50568 0.0
C905 C 0.17715 0.87001 0.47763 0.0
C906 C 0.13118 0.86438 0.48593 0.0
H907 H 0.21995 0.83576 0.46455 0.0
H908 H 0.20574 0.9011 0.4691 0.0
C909 C 0.09627 0.82503 0.50322 0.0
C910 C 0.21369 0.93065 0.59259 0.0
C911 C 0.19535 0.90848 0.6346 0.0
H912 H 0.20322 0.96404 0.54411 0.0
C913 C 0.14743 0.89258 0.65149 0.0
H914 H 0.24996 0.94192 0.57739 0.0
C915 C 0.11966 0.90318 0.63001 0.0
C916 C 0.13987 0.93005 0.59207 0.0
H917 H 0.13218 0.87527 0.68382 0.0
H918 H 0.08386 0.89416 0.64623 0.0
C919 C 0.18666 0.94256 0.57277 0.0
C920 C 0.19787 0.21284 0.63887 0.0
C921 C 0.21499 0.19222 0.66267 0.0
H922 H 0.15488 0.20526 0.58575 0.0
C923 C 0.20064 0.14621 0.64909 0.0
H924 H 0.20839 0.24828 0.64769 0.0
C925 C 0.16949 0.12156 0.61398 0.0
C926 C 0.15233 0.14211 0.59022 0.0
H927 H 0.21376 0.12909 0.66513 0.0
H928 H 0.15902 0.08613 0.60522 0.0
C929 C 0.16739 0.18825 0.60287 0.0
C930 C 0.94043 0.20873 0.50158 0.0
C931 C 0.97309 0.25304 0.51328 0.0
H932 H 0.9279 0.14126 0.50177 0.0
C933 C 1.01894 0.26203 0.49285 0.0
H934 H 0.90387 0.20059 0.50876 0.0
C935 C 1.03354 0.23005 0.49317 0.0
C936 C 1.00049 0.18714 0.50212 0.0
H937 H 1.045 0.29588 0.49187 0.0
H938 H 0.07031 0.23955 0.48902 0.0
C939 C 0.95387 0.17502 0.49982 0.0
C940 C 0.89611 0.90806 0.65646 0.0
C941 C 0.90859 0.87783 0.6692 0.0
H942 H 0.91897 0.96601 0.6209 0.0
C943 C 0.95422 0.88305 0.65418 0.0
H944 H 0.86103 0.90475 0.66701 0.0
C945 C 0.98715 0.91884 0.63079 0.0
C946 C 0.97536 0.94906 0.6175 0.0
H947 H 0.96514 0.85983 0.66137 0.0
H948 H 1.0222 0.92284 0.62393 0.0
C949 C 0.92915 0.94305 0.63004 0.0
C950 C 0.42498 0.2193 0.19282 0.0
C951 C 0.38408 0.2123 0.17671 0.0
H952 H 0.48009 0.20081 0.18463 0.0
C953 C 0.36794 0.17725 0.13661 0.0
H954 H 0.43917 0.24539 0.22338 0.0
C955 C 0.39211 0.15056 0.11382 0.0
C956 C 0.43324 0.15816 0.13033 0.0
H957 H 0.33678 0.17052 0.12264 0.0
H958 H 0.37908 0.12465 0.08271 0.0
C959 C 0.44876 0.19311 0.17034 0.0
C960 C 0.89373 0.36041 0.115 0.0
C961 C 0.88897 0.37692 0.16634 0.0
H962 H 0.92965 0.37268 0.0417 0.0
C963 C 0.91603 0.42232 0.18224 0.0
H964 H 0.87323 0.32586 0.10131 0.0
C965 C 0.94956 0.4497 0.14758 0.0
C966 C 0.95587 0.43208 0.09649 0.0
H967 H 0.91312 0.43594 0.22174 0.0
H968 H 0.97214 0.48357 0.16118 0.0
C969 C 0.92615 0.38755 0.08072 0.0
C970 C 0.6987 0.87751 0.01911 0.0
C971 C 0.71004 0.89093 0.0683 0.0
H972 H 0.65465 0.87292 0.96942 0.0
C973 C 0.68207 0.90573 0.10654 0.0
H974 H 0.71991 0.86585 0.98908 0.0
C975 C 0.6462 0.91137 0.09501 0.0
C976 C 0.63729 0.90192 0.04499 0.0
H977 H 0.69046 0.91661 0.14463 0.0
H978 H 0.62755 0.92603 0.12499 0.0
C979 C 0.66182 0.88209 0.00777 0.0
C980 C 0.16648 0.68756 0.18966 0.0
C981 C 0.21271 0.69407 0.17329 0.0
H982 H 0.09741 0.65806 0.17322 0.0
C983 C 0.22324 0.6717 0.12614 0.0
H984 H 0.15645 0.70367 0.22585 0.0
C985 C 0.1882 0.64432 0.09576 0.0
C986 C 0.14256 0.63978 0.11185 0.0
H987 H 0.25839 0.676 0.11245 0.0
H988 H 0.19696 0.62772 0.05929 0.0
C989 C 0.13226 0.66143 0.15926 0.0
C990 C 0.4305 0.8429 0.86677 0.0
C991 C 0.40706 0.85994 0.84711 0.0
H992 H 0.48537 0.85668 0.90674 0.0
C993 C 0.4207 0.90601 0.85644 0.0
H994 H 0.42074 0.80762 0.86119 0.0
C995 C 0.45769 0.93431 0.88368 0.0
C996 C 0.48222 0.91713 0.90129 0.0
H997 H 0.4036 0.9203 0.84174 0.0
H998 H 0.46803 0.96974 0.88955 0.0
C999 C 0.46777 0.87107 0.89299 0.0
C1000 C 0.26633 0.3941 0.84693 0.0
C1001 C 0.24446 0.34707 0.83801 0.0
H1002 H 0.25925 0.45532 0.87517 0.0
C1003 C 0.19645 0.32646 0.85326 0.0
H1004 H 0.30319 0.41156 0.8358 0.0
C1005 C 0.17111 0.3518 0.87439 0.0
C1006 C 0.19283 0.39878 0.88307 0.0
H1007 H 0.17803 0.29061 0.84721 0.0
H1008 H 0.134 0.33434 0.8837 0.0
C1009 C 0.24112 0.41946 0.86977 0.0
C1010 C 0.69259 0.1576 0.82817 0.0
C1011 C 0.73437 0.19186 0.84325 0.0
H1012 H 0.62843 0.10253 0.84895 0.0
C1013 C 0.74452 0.19407 0.89082 0.0
H1014 H 0.68364 0.15499 0.79175 0.0
C1015 C 0.71326 0.16376 0.92309 0.0
C1016 C 0.6712 0.12994 0.90855 0.0
H1017 H 0.776 0.2203 0.90387 0.0
H1018 H 0.72096 0.16808 0.96065 0.0
C1019 C 0.66142 0.12686 0.8604 0.0
C1020 C 0.98077 0.6962 0.90739 0.0
C1021 C 0.98911 0.73764 0.93696 0.0
H1022 H 0.98382 0.63438 0.89852 0.0
C1023 C 1.00351 0.74662 0.98425 0.0
H1024 H 0.97001 0.68829 0.87066 0.0
C1025 C 1.01206 0.71563 1.0002 0.0
C1026 C 1.00638 0.67533 0.96899 0.0
H1027 H 1.00935 0.77804 0.00826 0.0
H1028 H 1.02484 0.72396 0.03585 0.0
C1029 C 0.98915 0.66538 0.92328 0.0
C1030 C 0.15709 0.37562 0.09973 0.0
C1031 C 0.14921 0.33421 0.07029 0.0
H1032 H 0.15139 0.43623 0.10894 0.0
C1033 C 0.13389 0.32429 0.02342 0.0
H1034 H 0.16871 0.3842 0.13609 0.0
C1035 C 0.12282 0.3538 0.00834 0.0
C1036 C 0.12758 0.39378 0.0396 0.0
H1037 H 0.12862 0.29298 0.99942 0.0
H1038 H 0.10834 0.34429 0.97362 0.0
C1039 C 0.14662 0.40525 0.08437 0.0
C1040 C 0.21328 0.63559 0.82564 0.0
C1041 C 0.24305 0.67992 0.84201 0.0
H1042 H 0.15364 0.57648 0.84644 0.0
C1043 C 0.23996 0.69605 0.8936 0.0
H1044 H 0.21474 0.6225 0.78591 0.0
C1045 C 0.206 0.66997 0.92774 0.0
C1046 C 0.17348 0.62699 0.91147 0.0
H1047 H 0.26244 0.72994 0.90745 0.0
H1048 H 0.20343 0.68469 0.96693 0.0
C1049 C 0.17844 0.60925 0.86023 0.0
C1050 C 0.44596 0.15056 0.89643 0.0
C1051 C 0.41704 0.16453 0.93407 0.0
H1052 H 0.50098 0.13108 0.87939 0.0
C1053 C 0.42774 0.17841 0.98354 0.0
H1054 H 0.43814 0.1395 0.85812 0.0
C1055 C 0.46465 0.17443 0.99584 0.0
C1056 C 0.4896 0.15462 0.95934 0.0
H1057 H 0.40577 0.18948 0.01312 0.0
H1058 H 0.47139 0.18384 0.03435 0.0
C1059 C 0.4817 0.14537 0.90893 0.0
C1060 C 0.96279 0.38221 0.81522 0.0
C1061 C 0.91562 0.36977 0.83385 0.0
H1062 H 1.03235 0.41522 0.8309 0.0
C1063 C 0.90336 0.386 0.88388 0.0
H1064 H 0.97385 0.37091 0.77677 0.0
C1065 C 0.93782 0.41264 0.91504 0.0
C1066 C 0.98451 0.42232 0.89662 0.0
H1067 H 0.86739 0.37693 0.89926 0.0
H1068 H 0.92794 0.42433 0.95381 0.0
C1069 C 0.99655 0.40738 0.84634 0.0
C1070 C 0.76652 0.88639 0.86597 0.0
C1071 C 0.74995 0.84961 0.82767 0.0
H1072 H 0.75454 0.939 0.91898 0.0
C1073 C 0.70707 0.83957 0.81383 0.0
H1074 H 0.79912 0.89543 0.87831 0.0
C1075 C 0.68196 0.86467 0.83663 0.0
C1076 C 0.69796 0.90135 0.87489 0.0
H1077 H 0.69257 0.81206 0.78463 0.0
H1078 H 0.64928 0.85478 0.82397 0.0
C1079 C 0.74091 0.9117 0.88931 0.0
C1080 C 0.88594 0.69797 0.12005 0.0
C1081 C 0.88391 0.71493 0.17192 0.0
H1082 H 0.91085 0.6589 0.05812 0.0
C1083 C 0.90669 0.70438 0.20074 0.0
H1084 H 0.86855 0.70495 0.0966 0.0
C1085 C 0.93095 0.67832 0.17884 0.0
C1086 C 0.93246 0.66046 0.12732 0.0
H1087 H 0.90578 0.71644 0.24073 0.0
H1088 H 0.94845 0.67181 0.20268 0.0
C1089 C 0.90957 0.67084 0.09811 0.0
C1090 C 0.38573 0.8637 0.11101 0.0
C1091 C 0.39318 0.86926 0.16071 0.0
H1092 H 0.41185 0.88682 0.03962 0.0
C1093 C 0.43172 0.90701 0.17808 0.0
H1094 H 0.35658 0.83495 0.09647 0.0
C1095 C 0.46305 0.93755 0.14565 0.0
C1096 C 0.45668 0.93051 0.09508 0.0
H1097 H 0.43825 0.91226 0.21635 0.0
H1098 H 0.49394 0.9646 0.15902 0.0
C1099 C 0.4171 0.89376 0.07865 0.0
C1100 C 0.69739 0.21634 0.14276 0.0
C1101 C 0.72047 0.19908 0.16269 0.0
H1102 H 0.64385 0.20317 0.10115 0.0
C1103 C 0.70702 0.15303 0.15264 0.0
H1104 H 0.70681 0.25156 0.14897 0.0
C1105 C 0.67103 0.12507 0.12385 0.0
C1106 C 0.64721 0.14256 0.10545 0.0
H1107 H 0.72376 0.13849 0.16751 0.0
H1108 H 0.66096 0.08968 0.11724 0.0
C1109 C 0.66109 0.18852 0.11509 0.0
C1110 C 0.6854 0.64796 0.8211 0.0
C1111 C 0.73267 0.67379 0.82477 0.0
H1112 H 0.62139 0.59811 0.85006 0.0
C1113 C 0.75114 0.66756 0.86223 0.0
H1114 H 0.66926 0.65224 0.79405 0.0
C1115 C 0.72231 0.63974 0.89787 0.0
C1116 C 0.67493 0.6151 0.89492 0.0
H1117 H 0.78737 0.68668 0.86644 0.0
H1118 H 0.73661 0.63932 0.92934 0.0
C1119 C 0.65747 0.6174 0.85422 0.0
C1120 C 0.44248 0.61172 0.8847 0.0
C1121 C 0.44862 0.65342 0.87809 0.0
H1122 H 0.46975 0.57535 0.90955 0.0
C1123 C 0.48922 0.69123 0.89018 0.0
H1124 H 0.41244 0.58184 0.87402 0.0
C1125 C 0.52254 0.6873 0.90986 0.0
C1126 C 0.51493 0.64577 0.91838 0.0
H1127 H 0.49479 0.7238 0.88528 0.0
H1128 H 0.55364 0.71653 0.91917 0.0
C1129 C 0.47537 0.60796 0.90459 0.0
C1130 C 0.42308 0.33915 0.88012 0.0
C1131 C 0.40768 0.35606 0.84974 0.0
H1132 H 0.46328 0.35369 0.93904 0.0
C1133 C 0.42032 0.40198 0.85823 0.0
H1134 H 0.4135 0.30394 0.87536 0.0
C1135 C 0.4491 0.43037 0.89417 0.0
C1136 C 0.46539 0.41374 0.92376 0.0
H1137 H 0.40822 0.41635 0.83687 0.0
H1138 H 0.45884 0.46562 0.89856 0.0
C1139 C 0.45134 0.36763 0.91696 0.0
C1140 C 0.67233 0.33827 0.96102 0.0
C1141 C 0.64 0.29335 0.96266 0.0
H1142 H 0.68202 0.40261 0.95449 0.0
C1143 C 0.59432 0.28526 0.98462 0.0
H1144 H 0.70897 0.34836 0.94999 0.0
C1145 C 0.5793 0.31816 0.99045 0.0
C1146 C 0.61014 0.35963 0.97592 0.0
H1147 H 0.56882 0.25253 0.99187 0.0
H1148 H 0.54314 0.31027 0.00359 0.0
C1149 C 0.6571 0.37021 0.96378 0.0
C1150 C 0.70228 0.42806 0.08284 0.0
C1151 C 0.68849 0.41437 0.13011 0.0
H1152 H 0.68742 0.45447 0.03043 0.0
C1153 C 0.6427 0.40411 0.15384 0.0
H1154 H 0.73673 0.43492 0.063 0.0
C1155 C 0.61303 0.41221 0.13292 0.0
C1156 C 0.62944 0.43138 0.08896 0.0
H1157 H 0.63106 0.39368 0.1906 0.0
H1158 H 0.5797 0.40852 0.15402 0.0
C1159 C 0.67346 0.43779 0.06327 0.0
C1160 C 0.6848 0.7189 0.15219 0.0
C1161 C 0.70952 0.70169 0.1693 0.0
H1162 H 0.63221 0.7063 0.10919 0.0
C1163 C 0.6997 0.65652 0.1533 0.0
H1164 H 0.69163 0.75354 0.16305 0.0
C1165 C 0.66556 0.62925 0.1219 0.0
C1166 C 0.64008 0.64632 0.10577 0.0
H1167 H 0.71847 0.64215 0.16497 0.0
H1168 H 0.65877 0.59464 0.11077 0.0
C1169 C 0.65051 0.69164 0.12121 0.0
C1170 C 0.49273 0.74313 0.00845 0.0
C1171 C 0.44683 0.73594 0.01139 0.0
H1172 H 0.53501 0.72109 0.0317 0.0
C1173 C 0.41363 0.69136 0.00304 0.0
H1174 H 0.52075 0.77614 0.00773 0.0
C1175 C 0.42198 0.65815 0.01454 0.0
C1176 C 0.46421 0.67012 0.03069 0.0
H1177 H 0.37859 0.68395 0.99957 0.0
H1178 H 0.39476 0.62475 0.01482 0.0
C1179 C 0.50054 0.71209 0.02438 0.0
C1180 C 0.39687 0.42013 0.1621 0.0
C1181 C 0.41099 0.3949 0.18254 0.0
H1182 H 0.41762 0.47318 0.11917 0.0
C1183 C 0.45819 0.40474 0.17393 0.0
H1184 H 0.36065 0.41295 0.16679 0.0
C1185 C 0.4906 0.44089 0.15029 0.0
C1186 C 0.47699 0.46627 0.12977 0.0
H1187 H 0.47057 0.38473 0.18591 0.0
H1188 H 0.52666 0.44834 0.14738 0.0
C1189 C 0.42945 0.45481 0.135 0.0
C1190 C 0.86672 0.65627 0.62686 0.0
C1191 C 0.88386 0.6934 0.66445 0.0
H1192 H 0.8761 0.60094 0.57769 0.0
C1193 C 0.92524 0.70192 0.68061 0.0
H1194 H 0.83506 0.64825 0.61317 0.0
C1195 C 0.94852 0.67481 0.66049 0.0
C1196 C 0.93197 0.63788 0.62275 0.0
H1197 H 0.9397 0.72959 0.70965 0.0
H1198 H 0.97999 0.68312 0.67487 0.0
C1199 C 0.89052 0.62912 0.60617 0.0
C1200 C 0.42472 0.87194 0.62023 0.0
C1201 C 0.40176 0.87698 0.66934 0.0
H1202 H 0.47152 0.90428 0.55831 0.0
C1203 C 0.40938 0.9202 0.6935 0.0
H1204 H 0.41907 0.8392 0.60007 0.0
C1205 C 0.43814 0.95705 0.66935 0.0
C1206 C 0.46121 0.95233 0.62037 0.0
H1207 H 0.39305 0.92588 0.73148 0.0
H1208 H 0.44214 0.9895 0.68935 0.0
C1209 C 0.45468 0.90927 0.59624 0.0
C1210 C 0.20683 0.38376 0.55448 0.0
C1211 C 0.21876 0.40401 0.60286 0.0
H1212 H 0.17201 0.3812 0.49606 0.0
C1213 C 0.1941 0.42636 0.63482 0.0
H1214 H 0.2249 0.36591 0.52939 0.0
C1215 C 0.16328 0.43444 0.61606 0.0
C1216 C 0.15703 0.42027 0.56523 0.0
H1217 H 0.20291 0.44225 0.67221 0.0
H1218 H 0.14914 0.45667 0.63938 0.0
C1219 C 0.17599 0.39195 0.53556 0.0
C1220 C 0.76396 0.15777 0.59635 0.0
C1221 C 0.7461 0.17702 0.64148 0.0
H1222 H 0.74876 0.11049 0.52894 0.0
C1223 C 0.69789 0.16269 0.65266 0.0
H1224 H 0.80084 0.16786 0.5867 0.0
C1225 C 0.66834 0.13082 0.61944 0.0
C1226 C 0.6859 0.1113 0.57449 0.0
H1227 H 0.68252 0.17578 0.68758 0.0
H1228 H 0.63151 0.12081 0.6297 0.0
C1229 C 0.7341 0.12507 0.56324 0.0
C1230 C 0.90785 0.36779 0.39578 0.0
C1231 C 0.88927 0.37837 0.36225 0.0
H1232 H 0.95033 0.39275 0.45498 0.0
C1233 C 0.90054 0.42323 0.36243 0.0
H1234 H 0.9004 0.33365 0.39608 0.0
C1235 C 0.92778 0.45647 0.39675 0.0
C1236 C 0.94553 0.44579 0.43065 0.0
H1237 H 0.88861 0.4329 0.33574 0.0
H1238 H 0.9358 0.49069 0.39604 0.0
C1239 C 0.93613 0.40139 0.42954 0.0
C1240 C 0.75732 0.9071 0.32993 0.0
C1241 C 0.7434 0.86458 0.34221 0.0
H1242 H 0.74395 0.96468 0.34105 0.0
C1243 C 0.7044 0.84935 0.37909 0.0
H1244 H 0.78666 0.92016 0.30145 0.0
C1245 C 0.68006 0.87539 0.40221 0.0
C1246 C 0.69389 0.91757 0.38935 0.0
H1247 H 0.69229 0.81705 0.38984 0.0
H1248 H 0.6498 0.86216 0.42963 0.0
C1249 C 0.73289 0.93293 0.35285 0.0
C1250 C 0.17722 0.67578 0.34392 0.0
C1251 C 0.21896 0.70819 0.36107 0.0
H1252 H 0.12114 0.61058 0.34872 0.0
C1253 C 0.23323 0.70039 0.40083 0.0
H1254 H 0.1653 0.68037 0.3131 0.0
C1255 C 0.2082 0.66038 0.42076 0.0
C1256 C 0.16805 0.62709 0.40174 0.0
H1257 H 0.26502 0.72452 0.41514 0.0
H1258 H 0.2211 0.65486 0.45011 0.0
C1259 C 0.15206 0.63563 0.36403 0.0
C1260 C 0.48618 0.18549 0.37921 0.0
C1261 C 0.47104 0.21474 0.41371 0.0
H1262 H 0.49969 0.12837 0.36917 0.0
C1263 C 0.45213 0.20598 0.4629 0.0
H1264 H 0.50128 0.19221 0.34118 0.0
C1265 C 0.45071 0.16975 0.4785 0.0
C1266 C 0.46909 0.14258 0.4453 0.0
H1267 H 0.44132 0.22855 0.49024 0.0
H1268 H 0.4378 0.16445 0.5172 0.0
C1269 C 0.48506 0.14919 0.39502 0.0
C1270 C 0.68638 0.86716 0.55656 0.0
C1271 C 0.65804 0.8514 0.60053 0.0
H1272 H 0.70528 0.91193 0.50424 0.0
C1273 C 0.63294 0.87407 0.63082 0.0
H1274 H 0.70681 0.85112 0.53323 0.0
C1275 C 0.63352 0.91006 0.61506 0.0
C1276 C 0.65737 0.92193 0.56809 0.0
H1277 H 0.61159 0.86284 0.66544 0.0
H1278 H 0.61352 0.92712 0.63815 0.0
C1279 C 0.68569 0.90206 0.54005 0.0
C1280 C 0.68432 0.16282 0.33486 0.0
C1281 C 0.72839 0.1924 0.34849 0.0
H1282 H 0.62275 0.1028 0.34663 0.0
C1283 C 0.74287 0.18415 0.38762 0.0
H1284 H 0.6722 0.16766 0.30447 0.0
C1285 C 0.71506 0.14601 0.41051 0.0
C1286 C 0.67167 0.11614 0.3958 0.0
H1287 H 0.77614 0.20662 0.3997 0.0
H1288 H 0.72761 0.13954 0.43943 0.0
C1289 C 0.65605 0.12539 0.35863 0.0
C1290 C 0.95536 0.65467 0.3698 0.0
C1291 C 0.90818 0.64458 0.38149 0.0
H1292 H 1.0122 0.64987 0.38976 0.0
C1293 C 0.88329 0.6275 0.42591 0.0
H1294 H 0.97449 0.66691 0.33492 0.0
C1295 C 0.90462 0.61877 0.45727 0.0
C1296 C 0.95111 0.62651 0.44446 0.0
H1297 H 0.84643 0.61724 0.43416 0.0
H1298 H 0.88368 0.60232 0.48926 0.0
C1299 C 0.97692 0.64573 0.40137 0.0
C1300 C 0.36438 0.9045 0.40852 0.0
C1301 C 0.38228 0.88627 0.3626 0.0
H1302 H 0.37949 0.95065 0.47681 0.0
C1303 C 0.43057 0.90139 0.35091 0.0
H1304 H 0.32743 0.89376 0.41865 0.0
C1305 C 0.46012 0.93293 0.3844 0.0
C1306 C 0.44251 0.95134 0.43022 0.0
H1307 H 0.44594 0.88902 0.31546 0.0
H1308 H 0.497 0.94348 0.37374 0.0
C1309 C 0.39423 0.93693 0.44189 0.0
C1310 C 0.20967 0.36248 0.32194 0.0
C1311 C 0.24997 0.36992 0.33967 0.0
H1312 H 0.15543 0.38205 0.32687 0.0
C1313 C 0.26479 0.40493 0.3801 0.0
H1314 H 0.19689 0.33639 0.29091 0.0
C1315 C 0.24005 0.43108 0.40192 0.0
C1316 C 0.20021 0.42403 0.38322 0.0
H1317 H 0.29549 0.41215 0.39519 0.0
H1318 H 0.25264 0.45731 0.43293 0.0
C1319 C 0.18572 0.38909 0.3428 0.0
C1320 C 0.42973 0.21661 0.63954 0.0
C1321 C 0.38531 0.19645 0.66674 0.0
H1322 H 0.49009 0.20906 0.59703 0.0
C1323 C 0.3672 0.15038 0.66792 0.0
H1324 H 0.44516 0.25173 0.63727 0.0
C1325 C 0.39258 0.12567 0.64355 0.0
C1326 C 0.43739 0.14615 0.61774 0.0
H1327 H 0.33343 0.13326 0.68855 0.0
H1328 H 0.37778 0.09075 0.64666 0.0
C1329 C 0.45558 0.19204 0.61625 0.0
C1330 C 0.89729 0.3656 0.60715 0.0
C1331 C 0.90999 0.35847 0.64853 0.0
H1332 H 0.9122 0.41012 0.55544 0.0
C1333 C 0.9505 0.39146 0.6676 0.0
H1334 H 0.86604 0.34127 0.59192 0.0
C1335 C 0.97714 0.43078 0.6464 0.0
C1336 C 0.96368 0.43811 0.60586 0.0
H1337 H 0.9608 0.3876 0.70007 0.0
H1338 H 1.00742 0.45605 0.66271 0.0
C1339 C 0.92375 0.40497 0.58618 0.0
C1340 C 0.21666 0.68985 0.61782 0.0
C1341 C 0.23901 0.67921 0.64709 0.0
H1342 H 0.1712 0.66543 0.5615 0.0
C1343 C 0.23165 0.63476 0.64197 0.0
H1344 H 0.22108 0.7236 0.62127 0.0
C1345 C 0.2047 0.60226 0.60696 0.0
C1346 C 0.18284 0.61288 0.57749 0.0
H1347 H 0.24631 0.62468 0.6654 0.0
H1348 H 0.19998 0.56845 0.60391 0.0
C1349 C 0.1883 0.65674 0.58362 0.0
loop_
_geom_bond_atom_site_label_1
_geom_bond_atom_site_label_2
_geom_bond_distance
_geom_bond_site_symmetry_2
_ccdc_geom_bond_type
Eu0 N29 2.600 . S
Eu0 N35 2.562 . S
Eu0 O44 2.462 . S
Eu0 O45 2.373 . S
Eu0 O47 2.432 . S
Eu0 O48 2.291 . S
Eu0 O52 2.335 . S
Eu0 O55 2.372 . S
Eu0 C64 2.787 . S
C1 N2 1.365 . S
C1 C4 1.405 . S
C1 C8 1.448 . S
N2 C1 1.365 . S
N2 C5 1.319 . S
N2 Eu11 2.600 . S
C3 C5 1.397 . S
C3 C6 1.367 . S
C3 H23 0.931 . S
C4 C1 1.405 . S
C4 C6 1.403 . S
C4 C10 1.439 . S
C5 N2 1.319 . S
C5 C3 1.397 . S
C5 H16 0.930 . S
C6 C3 1.367 . S
C6 C4 1.403 . S
C6 H27 0.929 . S
C7 C8 1.430 . S
C7 C9 1.387 . S
C7 C13 1.404 . S
C8 C1 1.448 . S
C8 C7 1.430 . S
C8 N12 1.351 . S
C9 C7 1.387 . S
C9 C10 1.374 . S
C9 H24 0.931 . S
C10 C4 1.439 . S
C10 C9 1.374 . S
C10 H25 0.931 . S
Eu11 N2 2.600 . S
Eu11 N12 2.562 . S
Eu11 O46 2.335 . S
Eu11 O49 2.372 . S
Eu11 O50 2.462 . S
Eu11 O51 2.373 . S
Eu11 O53 2.432 . S
Eu11 O54 2.291 . S
Eu11 C75 2.787 . S
N12 C8 1.351 . S
N12 Eu11 2.562 . S
N12 C14 1.325 . S
C13 C7 1.404 . S
C13 C15 1.366 . S
C13 H21 0.930 . S
C14 N12 1.325 . S
C14 C15 1.416 . S
C14 H20 0.929 . S
C15 C13 1.366 . S
C15 C14 1.416 . S
C15 H17 0.930 . S
H16 C5 0.930 . S
H17 C15 0.930 . S
H18 C33 0.930 . S
H19 C40 0.930 . S
H20 C14 0.929 . S
H21 C13 0.930 . S
H22 C36 0.929 . S
H23 C3 0.931 . S
H24 C9 0.931 . S
H25 C10 0.931 . S
H26 C31 0.931 . S
H27 C6 0.929 . S
H28 C39 0.930 1_556 S
N29 Eu0 2.600 . S
N29 C30 1.365 . S
N29 C33 1.319 . S
C30 N29 1.365 . S
C30 C32 1.405 . S
C30 C38 1.448 . S
C31 H26 0.931 . S
C31 C33 1.397 . S
C31 C34 1.367 . S
C32 C30 1.405 . S
C32 C34 1.403 . S
C32 C65 1.439 . S
C33 H18 0.930 . S
C33 N29 1.319 . S
C33 C31 1.397 . S
C34 C31 1.367 . S
C34 C32 1.403 . S
C34 H41 0.929 . S
N35 Eu0 2.562 . S
N35 C36 1.325 . S
N35 C38 1.351 . S
C36 H22 0.929 . S
C36 N35 1.325 . S
C36 C40 1.416 . S
C37 C38 1.430 . S
C37 C39 1.404 . S
C37 C66 1.387 . S
C38 C30 1.448 . S
C38 N35 1.351 . S
C38 C37 1.430 . S
C39 H28 0.930 1_554 S
C39 C37 1.404 . S
C39 C40 1.366 . S
C40 H19 0.930 . S
C40 C36 1.416 . S
C40 C39 1.366 . S
H41 C34 0.929 . S
H42 C65 0.931 . S
H43 C66 0.931 1_556 S
O44 Eu0 2.462 . S
O44 C64 1.252 . S
O45 Eu0 2.373 . S
O45 C56 1.249 . S
O46 Eu11 2.335 . S
O46 C56 1.264 . S
O47 Eu0 2.432 . S
O47 C64 1.268 . S
O48 Eu0 2.291 . S
O48 C63 1.255 . S
O49 Eu11 2.372 . S
O49 C63 1.257 . S
O50 Eu11 2.462 . S
O50 C75 1.252 . S
O51 Eu11 2.373 . S
O51 C67 1.249 . S
O52 Eu0 2.335 . S
O52 C67 1.264 . S
O53 Eu11 2.432 . S
O53 C75 1.268 . S
O54 Eu11 2.291 . S
O54 C74 1.255 . S
O55 Eu0 2.372 . S
O55 C74 1.257 . S
C56 O45 1.249 . S
C56 O46 1.264 . S
C57 C60 1.382 . S
C57 C62 1.390 . S
C57 C64 1.506 . S
C58 C59 1.398 . S
C58 C62 1.392 . S
C59 C58 1.398 . S
C59 C61 1.372 . S
C59 H76 0.931 . S
C60 C57 1.382 . S
C60 C61 1.390 . S
C60 H77 0.931 . S
C61 C59 1.372 . S
C61 C60 1.390 . S
C61 H78 0.929 . S
C62 C57 1.390 . S
C62 C58 1.392 . S
C62 H79 0.930 . S
C63 O48 1.255 . S
C63 O49 1.257 . S
C64 Eu0 2.787 . S
C64 O44 1.252 . S
C64 O47 1.268 . S
C64 C57 1.506 . S
C65 C32 1.439 . S
C65 H42 0.931 . S
C65 C66 1.374 . S
C66 C37 1.387 . S
C66 H43 0.931 1_554 S
C66 C65 1.374 . S
C67 O51 1.249 . S
C67 O52 1.264 . S
C68 C71 1.382 . S
C68 C72 1.390 . S
C68 C75 1.506 . S
C69 C70 1.398 . S
C69 C72 1.392 . S
C70 C69 1.398 . S
C70 C73 1.372 . S
C70 H80 0.931 . S
C71 C68 1.382 . S
C71 C73 1.390 . S
C71 H81 0.931 . S
C72 C68 1.390 . S
C72 C69 1.392 . S
C72 H82 0.930 . S
C73 C70 1.372 . S
C73 C71 1.390 . S
C73 H83 0.929 . S
C74 O54 1.255 . S
C74 O55 1.257 . S
C75 Eu11 2.787 . S
C75 O50 1.252 . S
C75 O53 1.268 . S
C75 C68 1.506 . S
H76 C59 0.931 . S
H77 C60 0.931 . S
H78 C61 0.929 . S
H79 C62 0.930 . S
H80 C70 0.931 . S
H81 C71 0.931 . S
H82 C72 0.930 . S
H83 C73 0.929 . S
Eu84 N113 2.600 . S
Eu84 N119 2.562 . S
Eu84 O128 2.462 . S
Eu84 O129 2.373 . S
Eu84 O131 2.432 . S
Eu84 O132 2.291 . S
Eu84 O136 2.335 . S
Eu84 O139 2.372 . S
Eu84 C148 2.787 . S
C85 N86 1.365 . S
C85 C88 1.405 . S
C85 C92 1.448 . S
N86 C85 1.365 . S
N86 C89 1.319 . S
N86 Eu95 2.600 . S
C87 C89 1.397 . S
C87 C90 1.367 . S
C87 H107 0.931 . S
C88 C85 1.405 . S
C88 C90 1.403 . S
C88 C94 1.439 . S
C89 N86 1.319 . S
C89 C87 1.397 . S
C89 H100 0.930 . S
C90 C87 1.367 . S
C90 C88 1.403 . S
C90 H111 0.929 . S
C91 C92 1.430 . S
C91 C93 1.387 . S
C91 C97 1.404 . S
C92 C85 1.448 . S
C92 C91 1.430 . S
C92 N96 1.351 . S
C93 C91 1.387 . S
C93 C94 1.374 . S
C93 H108 0.931 . S
C94 C88 1.439 . S
C94 C93 1.374 . S
C94 H109 0.931 . S
Eu95 N86 2.600 . S
Eu95 N96 2.562 . S
Eu95 O130 2.335 . S
Eu95 O133 2.372 . S
Eu95 O134 2.462 . S
Eu95 O135 2.373 . S
Eu95 O137 2.432 . S
Eu95 O138 2.291 . S
Eu95 C159 2.787 . S
N96 C92 1.351 . S
N96 Eu95 2.562 . S
N96 C98 1.325 . S
C97 C91 1.404 . S
C97 C99 1.366 . S
C97 H105 0.930 . S
C98 N96 1.325 . S
C98 C99 1.416 . S
C98 H104 0.929 . S
C99 C97 1.366 . S
C99 C98 1.416 . S
C99 H101 0.930 . S
H100 C89 0.930 . S
H101 C99 0.930 . S
H102 C117 0.930 . S
H103 C124 0.930 . S
H104 C98 0.929 . S
H105 C97 0.930 . S
H106 C120 0.929 . S
H107 C87 0.931 . S
H108 C93 0.931 . S
H109 C94 0.931 . S
H110 C115 0.931 . S
H111 C90 0.929 . S
H112 C123 0.930 . S
N113 Eu84 2.600 . S
N113 C114 1.365 . S
N113 C117 1.319 . S
C114 N113 1.365 . S
C114 C116 1.405 . S
C114 C122 1.448 . S
C115 H110 0.931 . S
C115 C117 1.397 . S
C115 C118 1.367 . S
C116 C114 1.405 . S
C116 C118 1.403 . S
C116 C149 1.439 . S
C117 H102 0.930 . S
C117 N113 1.319 . S
C117 C115 1.397 . S
C118 C115 1.367 . S
C118 C116 1.403 . S
C118 H125 0.929 . S
N119 Eu84 2.562 . S
N119 C120 1.325 . S
N119 C122 1.351 . S
C120 H106 0.929 . S
C120 N119 1.325 . S
C120 C124 1.416 . S
C121 C122 1.430 . S
C121 C123 1.404 . S
C121 C150 1.387 . S
C122 C114 1.448 . S
C122 N119 1.351 . S
C122 C121 1.430 . S
C123 H112 0.930 . S
C123 C121 1.404 . S
C123 C124 1.366 . S
C124 H103 0.930 . S
C124 C120 1.416 . S
C124 C123 1.366 . S
H125 C118 0.929 . S
H126 C149 0.931 . S
H127 C150 0.931 . S
O128 Eu84 2.462 . S
O128 C148 1.252 . S
O129 Eu84 2.373 . S
O129 C140 1.249 . S
O130 Eu95 2.335 . S
O130 C140 1.264 . S
O131 Eu84 2.432 . S
O131 C148 1.268 . S
O132 Eu84 2.291 . S
O132 C147 1.255 . S
O133 Eu95 2.372 . S
O133 C147 1.257 . S
O134 Eu95 2.462 . S
O134 C159 1.252 . S
O135 Eu95 2.373 . S
O135 C151 1.249 . S
O136 Eu84 2.335 . S
O136 C151 1.264 . S
O137 Eu95 2.432 . S
O137 C159 1.268 . S
O138 Eu95 2.291 . S
O138 C158 1.255 . S
O139 Eu84 2.372 . S
O139 C158 1.257 . S
C140 O129 1.249 . S
C140 O130 1.264 . S
C141 C144 1.382 . S
C141 C146 1.390 . S
C141 C148 1.506 . S
C142 C143 1.398 . S
C142 C146 1.392 . S
C143 C142 1.398 . S
C143 C145 1.372 . S
C143 H160 0.931 . S
C144 C141 1.382 . S
C144 C145 1.390 . S
C144 H161 0.931 . S
C145 C143 1.372 . S
C145 C144 1.390 . S
C145 H162 0.929 . S
C146 C141 1.390 . S
C146 C142 1.392 . S
C146 H163 0.930 . S
C147 O132 1.255 . S
C147 O133 1.257 . S
C148 Eu84 2.787 . S
C148 O128 1.252 . S
C148 O131 1.268 . S
C148 C141 1.506 . S
C149 C116 1.439 . S
C149 H126 0.931 . S
C149 C150 1.374 . S
C150 C121 1.387 . S
C150 H127 0.931 . S
C150 C149 1.374 . S
C151 O135 1.249 . S
C151 O136 1.264 . S
C152 C155 1.382 . S
C152 C156 1.390 . S
C152 C159 1.506 . S
C153 C154 1.398 . S
C153 C156 1.392 . S
C154 C153 1.398 . S
C154 C157 1.372 . S
C154 H164 0.931 . S
C155 C152 1.382 . S
C155 C157 1.390 . S
C155 H165 0.931 . S
C156 C152 1.390 . S
C156 C153 1.392 . S
C156 H166 0.930 . S
C157 C154 1.372 . S
C157 C155 1.390 . S
C157 H167 0.929 . S
C158 O138 1.255 . S
C158 O139 1.257 . S
C159 Eu95 2.787 . S
C159 O134 1.252 . S
C159 O137 1.268 . S
C159 C152 1.506 . S
H160 C143 0.931 . S
H161 C144 0.931 . S
H162 C145 0.929 . S
H163 C146 0.930 . S
H164 C154 0.931 . S
H165 C155 0.931 . S
H166 C156 0.930 . S
H167 C157 0.929 . S
Eu168 N197 2.600 . S
Eu168 N203 2.562 . S
Eu168 O212 2.462 . S
Eu168 O213 2.373 . S
Eu168 O215 2.432 . S
Eu168 O216 2.291 . S
Eu168 O220 2.335 . S
Eu168 O223 2.372 . S
Eu168 C232 2.787 . S
C169 N170 1.365 . S
C169 C172 1.405 . S
C169 C176 1.448 . S
N170 C169 1.365 . S
N170 C173 1.319 . S
N170 Eu179 2.600 . S
C171 C173 1.397 . S
C171 C174 1.367 . S
C171 H191 0.931 . S
C172 C169 1.405 . S
C172 C174 1.403 . S
C172 C178 1.439 . S
C173 N170 1.319 . S
C173 C171 1.397 . S
C173 H184 0.930 . S
C174 C171 1.367 . S
C174 C172 1.403 . S
C174 H195 0.929 . S
C175 C176 1.430 . S
C175 C177 1.387 . S
C175 C181 1.404 . S
C176 C169 1.448 . S
C176 C175 1.430 . S
C176 N180 1.351 . S
C177 C175 1.387 . S
C177 C178 1.374 . S
C177 H192 0.931 1_554 S
C178 C172 1.439 . S
C178 C177 1.374 . S
C178 H193 0.931 . S
Eu179 N170 2.600 . S
Eu179 N180 2.562 . S
Eu179 O214 2.335 . S
Eu179 O217 2.372 . S
Eu179 O218 2.462 . S
Eu179 O219 2.373 . S
Eu179 O221 2.432 . S
Eu179 O222 2.291 . S
Eu179 C243 2.787 . S
N180 C176 1.351 . S
N180 Eu179 2.562 . S
N180 C182 1.325 . S
C181 C175 1.404 . S
C181 C183 1.366 . S
C181 H189 0.930 1_554 S
C182 N180 1.325 . S
C182 C183 1.416 . S
C182 H188 0.929 . S
C183 C181 1.366 . S
C183 C182 1.416 . S
C183 H185 0.930 . S
H184 C173 0.930 . S
H185 C183 0.930 . S
H186 C201 0.930 . S
H187 C208 0.930 . S
H188 C182 0.929 . S
H189 C181 0.930 1_556 S
H190 C204 0.929 . S
H191 C171 0.931 . S
H192 C177 0.931 1_556 S
H193 C178 0.931 . S
H194 C199 0.931 . S
H195 C174 0.929 . S
H196 C207 0.930 . S
N197 Eu168 2.600 . S
N197 C198 1.365 . S
N197 C201 1.319 . S
C198 N197 1.365 . S
C198 C200 1.405 . S
C198 C206 1.448 . S
C199 H194 0.931 . S
C199 C201 1.397 . S
C199 C202 1.367 . S
C200 C198 1.405 . S
C200 C202 1.403 . S
C200 C233 1.439 . S
C201 H186 0.930 . S
C201 N197 1.319 . S
C201 C199 1.397 . S
C202 C199 1.367 . S
C202 C200 1.403 . S
C202 H209 0.929 . S
N203 Eu168 2.562 . S
N203 C204 1.325 . S
N203 C206 1.351 . S
C204 H190 0.929 . S
C204 N203 1.325 . S
C204 C208 1.416 . S
C205 C206 1.430 . S
C205 C207 1.404 . S
C205 C234 1.387 . S
C206 C198 1.448 . S
C206 N203 1.351 . S
C206 C205 1.430 . S
C207 H196 0.930 . S
C207 C205 1.404 . S
C207 C208 1.366 . S
C208 H187 0.930 . S
C208 C204 1.416 . S
C208 C207 1.366 . S
H209 C202 0.929 . S
H210 C233 0.931 . S
H211 C234 0.931 . S
O212 Eu168 2.462 . S
O212 C232 1.252 . S
O213 Eu168 2.373 . S
O213 C224 1.249 . S
O214 Eu179 2.335 . S
O214 C224 1.264 . S
O215 Eu168 2.432 . S
O215 C232 1.268 . S
O216 Eu168 2.291 . S
O216 C231 1.255 . S
O217 Eu179 2.372 . S
O217 C231 1.257 . S
O218 Eu179 2.462 . S
O218 C243 1.252 . S
O219 Eu179 2.373 . S
O219 C235 1.249 . S
O220 Eu168 2.335 . S
O220 C235 1.264 . S
O221 Eu179 2.432 . S
O221 C243 1.268 . S
O222 Eu179 2.291 . S
O222 C242 1.255 . S
O223 Eu168 2.372 . S
O223 C242 1.257 . S
C224 O213 1.249 . S
C224 O214 1.264 . S
C225 C228 1.382 . S
C225 C230 1.390 . S
C225 C232 1.506 . S
C226 C227 1.398 . S
C226 C230 1.392 . S
C227 C226 1.398 . S
C227 C229 1.372 . S
C227 H244 0.931 . S
C228 C225 1.382 . S
C228 C229 1.390 . S
C228 H245 0.931 . S
C229 C227 1.372 . S
C229 C228 1.390 . S
C229 H246 0.929 . S
C230 C225 1.390 . S
C230 C226 1.392 . S
C230 H247 0.930 . S
C231 O216 1.255 . S
C231 O217 1.257 . S
C232 Eu168 2.787 . S
C232 O212 1.252 . S
C232 O215 1.268 . S
C232 C225 1.506 . S
C233 C200 1.439 . S
C233 H210 0.931 . S
C233 C234 1.374 . S
C234 C205 1.387 . S
C234 H211 0.931 . S
C234 C233 1.374 . S
C235 O219 1.249 . S
C235 O220 1.264 . S
C236 C239 1.382 . S
C236 C240 1.390 . S
C236 C243 1.506 . S
C237 C238 1.398 . S
C237 C240 1.392 . S
C238 C237 1.398 . S
C238 C241 1.372 . S
C238 H248 0.931 . S
C239 C236 1.382 . S
C239 C241 1.390 . S
C239 H249 0.931 . S
C240 C236 1.390 . S
C240 C237 1.392 . S
C240 H250 0.930 . S
C241 C238 1.372 . S
C241 C239 1.390 . S
C241 H251 0.929 . S
C242 O222 1.255 . S
C242 O223 1.257 . S
C243 Eu179 2.787 . S
C243 O218 1.252 . S
C243 O221 1.268 . S
C243 C236 1.506 . S
H244 C227 0.931 . S
H245 C228 0.931 . S
H246 C229 0.929 . S
H247 C230 0.930 . S
H248 C238 0.931 . S
H249 C239 0.931 . S
H250 C240 0.930 . S
H251 C241 0.929 . S
Eu252 N281 2.600 . S
Eu252 N287 2.562 . S
Eu252 O296 2.462 . S
Eu252 O297 2.373 . S
Eu252 O299 2.432 . S
Eu252 O300 2.291 . S
Eu252 O304 2.335 . S
Eu252 O307 2.372 . S
Eu252 C316 2.787 . S
C253 N254 1.365 . S
C253 C256 1.405 . S
C253 C260 1.448 . S
N254 C253 1.365 . S
N254 C257 1.319 . S
N254 Eu263 2.600 . S
C255 C257 1.397 . S
C255 C258 1.367 . S
C255 H275 0.931 . S
C256 C253 1.405 . S
C256 C258 1.403 . S
C256 C262 1.439 . S
C257 N254 1.319 . S
C257 C255 1.397 . S
C257 H268 0.930 . S
C258 C255 1.367 . S
C258 C256 1.403 . S
C258 H279 0.929 . S
C259 C260 1.430 . S
C259 C261 1.387 . S
C259 C265 1.404 . S
C260 C253 1.448 . S
C260 C259 1.430 . S
C260 N264 1.351 . S
C261 C259 1.387 . S
C261 C262 1.374 . S
C261 H276 0.931 . S
C262 C256 1.439 . S
C262 C261 1.374 . S
C262 H277 0.931 . S
Eu263 N254 2.600 . S
Eu263 N264 2.562 . S
Eu263 O298 2.335 . S
Eu263 O301 2.372 . S
Eu263 O302 2.462 . S
Eu263 O303 2.373 . S
Eu263 O305 2.432 . S
Eu263 O306 2.291 . S
Eu263 C327 2.787 . S
N264 C260 1.351 . S
N264 Eu263 2.562 . S
N264 C266 1.325 . S
C265 C259 1.404 . S
C265 C267 1.366 . S
C265 H273 0.930 . S
C266 N264 1.325 . S
C266 C267 1.416 . S
C266 H272 0.929 . S
C267 C265 1.366 . S
C267 C266 1.416 . S
C267 H269 0.930 . S
H268 C257 0.930 . S
H269 C267 0.930 . S
H270 C285 0.930 . S
H271 C292 0.930 . S
H272 C266 0.929 . S
H273 C265 0.930 . S
H274 C288 0.929 . S
H275 C255 0.931 . S
H276 C261 0.931 . S
H277 C262 0.931 . S
H278 C283 0.931 . S
H279 C258 0.929 . S
H280 C291 0.930 . S
N281 Eu252 2.600 . S
N281 C282 1.365 . S
N281 C285 1.319 . S
C282 N281 1.365 . S
C282 C284 1.405 . S
C282 C290 1.448 . S
C283 H278 0.931 . S
C283 C285 1.397 . S
C283 C286 1.367 . S
C284 C282 1.405 . S
C284 C286 1.403 . S
C284 C317 1.439 . S
C285 H270 0.930 . S
C285 N281 1.319 . S
C285 C283 1.397 . S
C286 C283 1.367 . S
C286 C284 1.403 . S
C286 H293 0.929 . S
N287 Eu252 2.562 . S
N287 C288 1.325 . S
N287 C290 1.351 . S
C288 H274 0.929 . S
C288 N287 1.325 . S
C288 C292 1.416 . S
C289 C290 1.430 . S
C289 C291 1.404 . S
C289 C318 1.387 . S
C290 C282 1.448 . S
C290 N287 1.351 . S
C290 C289 1.430 . S
C291 H280 0.930 . S
C291 C289 1.404 . S
C291 C292 1.366 . S
C292 H271 0.930 . S
C292 C288 1.416 . S
C292 C291 1.366 . S
H293 C286 0.929 . S
H294 C317 0.931 . S
H295 C318 0.931 . S
O296 Eu252 2.462 . S
O296 C316 1.252 . S
O297 Eu252 2.373 . S
O297 C308 1.249 . S
O298 Eu263 2.335 . S
O298 C308 1.264 . S
O299 Eu252 2.432 . S
O299 C316 1.268 . S
O300 Eu252 2.291 . S
O300 C315 1.255 . S
O301 Eu263 2.372 . S
O301 C315 1.257 . S
O302 Eu263 2.462 . S
O302 C327 1.252 . S
O303 Eu263 2.373 . S
O303 C319 1.249 . S
O304 Eu252 2.335 . S
O304 C319 1.264 . S
O305 Eu263 2.432 . S
O305 C327 1.268 . S
O306 Eu263 2.291 . S
O306 C326 1.255 . S
O307 Eu252 2.372 . S
O307 C326 1.257 . S
C308 O297 1.249 . S
C308 O298 1.264 . S
C309 C312 1.382 . S
C309 C314 1.390 . S
C309 C316 1.506 . S
C310 C311 1.398 . S
C310 C314 1.392 . S
C311 C310 1.398 . S
C311 C313 1.372 . S
C311 H328 0.931 . S
C312 C309 1.382 . S
C312 C313 1.390 . S
C312 H329 0.931 . S
C313 C311 1.372 . S
C313 C312 1.390 . S
C313 H330 0.929 . S
C314 C309 1.390 . S
C314 C310 1.392 . S
C314 H331 0.930 . S
C315 O300 1.255 . S
C315 O301 1.257 . S
C316 Eu252 2.787 . S
C316 O296 1.252 . S
C316 O299 1.268 . S
C316 C309 1.506 . S
C317 C284 1.439 . S
C317 H294 0.931 . S
C317 C318 1.374 . S
C318 C289 1.387 . S
C318 H295 0.931 . S
C318 C317 1.374 . S
C319 O303 1.249 . S
C319 O304 1.264 . S
C320 C323 1.382 . S
C320 C324 1.390 . S
C320 C327 1.506 . S
C321 C322 1.398 . S
C321 C324 1.392 . S
C322 C321 1.398 . S
C322 C325 1.372 . S
C322 H332 0.931 . S
C323 C320 1.382 . S
C323 C325 1.390 . S
C323 H333 0.931 . S
C324 C320 1.390 . S
C324 C321 1.392 . S
C324 H334 0.930 . S
C325 C322 1.372 . S
C325 C323 1.390 . S
C325 H335 0.929 . S
C326 O306 1.255 . S
C326 O307 1.257 . S
C327 Eu263 2.787 . S
C327 O302 1.252 . S
C327 O305 1.268 . S
C327 C320 1.506 . S
H328 C311 0.931 . S
H329 C312 0.931 . S
H330 C313 0.929 . S
H331 C314 0.930 . S
H332 C322 0.931 . S
H333 C323 0.931 . S
H334 C324 0.930 . S
H335 C325 0.929 . S
Eu336 N365 2.600 . S
Eu336 N371 2.562 . S
Eu336 O380 2.462 . S
Eu336 O381 2.373 . S
Eu336 O383 2.432 . S
Eu336 O384 2.291 . S
Eu336 O388 2.335 . S
Eu336 O391 2.372 . S
Eu336 C400 2.787 . S
C337 N338 1.365 . S
C337 C340 1.405 . S
C337 C344 1.448 . S
N338 C337 1.365 . S
N338 C341 1.319 . S
N338 Eu347 2.600 . S
C339 C341 1.397 . S
C339 C342 1.367 . S
C339 H359 0.931 . S
C340 C337 1.405 . S
C340 C342 1.403 . S
C340 C346 1.439 . S
C341 N338 1.319 . S
C341 C339 1.397 . S
C341 H352 0.930 . S
C342 C339 1.367 . S
C342 C340 1.403 . S
C342 H363 0.929 . S
C343 C344 1.430 . S
C343 C345 1.387 . S
C343 C349 1.404 . S
C344 C337 1.448 . S
C344 C343 1.430 . S
C344 N348 1.351 . S
C345 C343 1.387 . S
C345 C346 1.374 . S
C345 H360 0.931 . S
C346 C340 1.439 . S
C346 C345 1.374 . S
C346 H361 0.931 . S
Eu347 N338 2.600 . S
Eu347 N348 2.562 . S
Eu347 O382 2.335 . S
Eu347 O385 2.372 . S
Eu347 O386 2.462 . S
Eu347 O387 2.373 . S
Eu347 O389 2.432 . S
Eu347 O390 2.291 . S
Eu347 C411 2.787 . S
N348 C344 1.351 . S
N348 Eu347 2.562 . S
N348 C350 1.325 . S
C349 C343 1.404 . S
C349 C351 1.366 . S
C349 H357 0.930 . S
C350 N348 1.325 . S
C350 C351 1.416 . S
C350 H356 0.929 . S
C351 C349 1.366 . S
C351 C350 1.416 . S
C351 H353 0.930 . S
H352 C341 0.930 . S
H353 C351 0.930 . S
H354 C369 0.930 . S
H355 C376 0.930 . S
H356 C350 0.929 . S
H357 C349 0.930 . S
H358 C372 0.929 . S
H359 C339 0.931 . S
H360 C345 0.931 . S
H361 C346 0.931 . S
H362 C367 0.931 . S
H363 C342 0.929 . S
H364 C375 0.930 . S
N365 Eu336 2.600 . S
N365 C366 1.365 . S
N365 C369 1.319 . S
C366 N365 1.365 . S
C366 C368 1.405 . S
C366 C374 1.448 . S
C367 H362 0.931 . S
C367 C369 1.397 . S
C367 C370 1.367 . S
C368 C366 1.405 . S
C368 C370 1.403 . S
C368 C401 1.439 . S
C369 H354 0.930 . S
C369 N365 1.319 . S
C369 C367 1.397 . S
C370 C367 1.367 . S
C370 C368 1.403 . S
C370 H377 0.929 . S
N371 Eu336 2.562 . S
N371 C372 1.325 . S
N371 C374 1.351 . S
C372 H358 0.929 . S
C372 N371 1.325 . S
C372 C376 1.416 . S
C373 C374 1.430 . S
C373 C375 1.404 . S
C373 C402 1.387 . S
C374 C366 1.448 . S
C374 N371 1.351 . S
C374 C373 1.430 . S
C375 H364 0.930 . S
C375 C373 1.404 . S
C375 C376 1.366 . S
C376 H355 0.930 . S
C376 C372 1.416 . S
C376 C375 1.366 . S
H377 C370 0.929 . S
H378 C401 0.931 . S
H379 C402 0.931 . S
O380 Eu336 2.462 . S
O380 C400 1.252 . S
O381 Eu336 2.373 . S
O381 C392 1.249 . S
O382 Eu347 2.335 . S
O382 C392 1.264 . S
O383 Eu336 2.432 . S
O383 C400 1.268 . S
O384 Eu336 2.291 . S
O384 C399 1.255 . S
O385 Eu347 2.372 . S
O385 C399 1.257 . S
O386 Eu347 2.462 . S
O386 C411 1.252 . S
O387 Eu347 2.373 . S
O387 C403 1.249 . S
O388 Eu336 2.335 . S
O388 C403 1.264 . S
O389 Eu347 2.432 . S
O389 C411 1.268 . S
O390 Eu347 2.291 . S
O390 C410 1.255 . S
O391 Eu336 2.372 . S
O391 C410 1.257 . S
C392 O381 1.249 . S
C392 O382 1.264 . S
C393 C396 1.382 . S
C393 C398 1.390 . S
C393 C400 1.506 . S
C394 C395 1.398 . S
C394 C398 1.392 . S
C395 C394 1.398 . S
C395 C397 1.372 . S
C395 H412 0.931 . S
C396 C393 1.382 . S
C396 C397 1.390 . S
C396 H413 0.931 . S
C397 C395 1.372 . S
C397 C396 1.390 . S
C397 H414 0.929 . S
C398 C393 1.390 . S
C398 C394 1.392 . S
C398 H415 0.930 . S
C399 O384 1.255 . S
C399 O385 1.257 . S
C400 Eu336 2.787 . S
C400 O380 1.252 . S
C400 O383 1.268 . S
C400 C393 1.506 . S
C401 C368 1.439 . S
C401 H378 0.931 . S
C401 C402 1.374 . S
C402 C373 1.387 . S
C402 H379 0.931 . S
C402 C401 1.374 . S
C403 O387 1.249 . S
C403 O388 1.264 . S
C404 C407 1.382 . S
C404 C408 1.390 . S
C404 C411 1.506 . S
C405 C406 1.398 . S
C405 C408 1.392 . S
C406 C405 1.398 . S
C406 C409 1.372 . S
C406 H416 0.931 . S
C407 C404 1.382 . S
C407 C409 1.390 . S
C407 H417 0.931 . S
C408 C404 1.390 . S
C408 C405 1.392 . S
C408 H418 0.930 . S
C409 C406 1.372 . S
C409 C407 1.390 . S
C409 H419 0.929 . S
C410 O390 1.255 . S
C410 O391 1.257 . S
C411 Eu347 2.787 . S
C411 O386 1.252 . S
C411 O389 1.268 . S
C411 C404 1.506 . S
H412 C395 0.931 . S
H413 C396 0.931 . S
H414 C397 0.929 . S
H415 C398 0.930 . S
H416 C406 0.931 . S
H417 C407 0.931 . S
H418 C408 0.930 . S
H419 C409 0.929 . S
Eu420 N449 2.600 . S
Eu420 N455 2.562 . S
Eu420 O464 2.462 . S
Eu420 O465 2.373 . S
Eu420 O467 2.432 . S
Eu420 O468 2.291 . S
Eu420 O472 2.335 . S
Eu420 O475 2.372 . S
Eu420 C484 2.787 . S
C421 N422 1.365 . S
C421 C424 1.405 . S
C421 C428 1.448 . S
N422 C421 1.365 . S
N422 C425 1.319 . S
N422 Eu431 2.600 . S
C423 C425 1.397 . S
C423 C426 1.367 . S
C423 H443 0.931 . S
C424 C421 1.405 . S
C424 C426 1.403 . S
C424 C430 1.439 . S
C425 N422 1.319 . S
C425 C423 1.397 . S
C425 H436 0.930 . S
C426 C423 1.367 . S
C426 C424 1.403 . S
C426 H447 0.929 . S
C427 C428 1.430 . S
C427 C429 1.387 . S
C427 C433 1.404 . S
C428 C421 1.448 . S
C428 C427 1.430 . S
C428 N432 1.351 . S
C429 C427 1.387 . S
C429 C430 1.374 . S
C429 H444 0.931 . S
C430 C424 1.439 . S
C430 C429 1.374 . S
C430 H445 0.931 . S
Eu431 N422 2.600 . S
Eu431 N432 2.562 . S
Eu431 O466 2.335 . S
Eu431 O469 2.372 . S
Eu431 O470 2.462 . S
Eu431 O471 2.373 . S
Eu431 O473 2.432 . S
Eu431 O474 2.291 . S
Eu431 C495 2.787 . S
N432 C428 1.351 . S
N432 Eu431 2.562 . S
N432 C434 1.325 . S
C433 C427 1.404 . S
C433 C435 1.366 . S
C433 H441 0.930 . S
C434 N432 1.325 . S
C434 C435 1.416 . S
C434 H440 0.929 . S
C435 C433 1.366 . S
C435 C434 1.416 . S
C435 H437 0.930 . S
H436 C425 0.930 . S
H437 C435 0.930 . S
H438 C453 0.930 . S
H439 C460 0.930 . S
H440 C434 0.929 . S
H441 C433 0.930 . S
H442 C456 0.929 . S
H443 C423 0.931 . S
H444 C429 0.931 . S
H445 C430 0.931 . S
H446 C451 0.931 . S
H447 C426 0.929 . S
H448 C459 0.930 1_554 S
N449 Eu420 2.600 . S
N449 C450 1.365 . S
N449 C453 1.319 . S
C450 N449 1.365 . S
C450 C452 1.405 . S
C450 C458 1.448 . S
C451 H446 0.931 . S
C451 C453 1.397 . S
C451 C454 1.367 . S
C452 C450 1.405 . S
C452 C454 1.403 . S
C452 C485 1.439 . S
C453 H438 0.930 . S
C453 N449 1.319 . S
C453 C451 1.397 . S
C454 C451 1.367 . S
C454 C452 1.403 . S
C454 H461 0.929 . S
N455 Eu420 2.562 . S
N455 C456 1.325 . S
N455 C458 1.351 . S
C456 H442 0.929 . S
C456 N455 1.325 . S
C456 C460 1.416 . S
C457 C458 1.430 . S
C457 C459 1.404 . S
C457 C486 1.387 . S
C458 C450 1.448 . S
C458 N455 1.351 . S
C458 C457 1.430 . S
C459 H448 0.930 1_556 S
C459 C457 1.404 . S
C459 C460 1.366 . S
C460 H439 0.930 . S
C460 C456 1.416 . S
C460 C459 1.366 . S
H461 C454 0.929 . S
H462 C485 0.931 . S
H463 C486 0.931 1_554 S
O464 Eu420 2.462 . S
O464 C484 1.252 . S
O465 Eu420 2.373 . S
O465 C476 1.249 . S
O466 Eu431 2.335 . S
O466 C476 1.264 . S
O467 Eu420 2.432 . S
O467 C484 1.268 . S
O468 Eu420 2.291 . S
O468 C483 1.255 . S
O469 Eu431 2.372 . S
O469 C483 1.257 . S
O470 Eu431 2.462 . S
O470 C495 1.252 . S
O471 Eu431 2.373 . S
O471 C487 1.249 . S
O472 Eu420 2.335 . S
O472 C487 1.264 . S
O473 Eu431 2.432 . S
O473 C495 1.268 . S
O474 Eu431 2.291 . S
O474 C494 1.255 . S
O475 Eu420 2.372 . S
O475 C494 1.257 . S
C476 O465 1.249 . S
C476 O466 1.264 . S
C477 C480 1.382 . S
C477 C482 1.390 . S
C477 C484 1.506 . S
C478 C479 1.398 . S
C478 C482 1.392 . S
C479 C478 1.398 . S
C479 C481 1.372 . S
C479 H496 0.931 . S
C480 C477 1.382 . S
C480 C481 1.390 . S
C480 H497 0.931 . S
C481 C479 1.372 . S
C481 C480 1.390 . S
C481 H498 0.929 . S
C482 C477 1.390 . S
C482 C478 1.392 . S
C482 H499 0.930 . S
C483 O468 1.255 . S
C483 O469 1.257 . S
C484 Eu420 2.787 . S
C484 O464 1.252 . S
C484 O467 1.268 . S
C484 C477 1.506 . S
C485 C452 1.439 . S
C485 H462 0.931 . S
C485 C486 1.374 . S
C486 C457 1.387 . S
C486 H463 0.931 1_556 S
C486 C485 1.374 . S
C487 O471 1.249 . S
C487 O472 1.264 . S
C488 C491 1.382 . S
C488 C492 1.390 . S
C488 C495 1.506 . S
C489 C490 1.398 . S
C489 C492 1.392 . S
C490 C489 1.398 . S
C490 C493 1.372 . S
C490 H500 0.931 . S
C491 C488 1.382 . S
C491 C493 1.390 . S
C491 H501 0.931 . S
C492 C488 1.390 . S
C492 C489 1.392 . S
C492 H502 0.930 . S
C493 C490 1.372 . S
C493 C491 1.390 . S
C493 H503 0.929 . S
C494 O474 1.255 . S
C494 O475 1.257 . S
C495 Eu431 2.787 . S
C495 O470 1.252 . S
C495 O473 1.268 . S
C495 C488 1.506 . S
H496 C479 0.931 . S
H497 C480 0.931 . S
H498 C481 0.929 . S
H499 C482 0.930 . S
H500 C490 0.931 . S
H501 C491 0.931 . S
H502 C492 0.930 . S
H503 C493 0.929 . S
Eu504 N533 2.600 . S
Eu504 N539 2.562 . S
Eu504 O548 2.462 . S
Eu504 O549 2.373 . S
Eu504 O551 2.432 . S
Eu504 O552 2.291 . S
Eu504 O556 2.335 . S
Eu504 O559 2.372 . S
Eu504 C568 2.787 . S
C505 N506 1.365 . S
C505 C508 1.405 . S
C505 C512 1.448 . S
N506 C505 1.365 . S
N506 C509 1.319 . S
N506 Eu515 2.600 . S
C507 C509 1.397 . S
C507 C510 1.367 . S
C507 H527 0.931 . S
C508 C505 1.405 . S
C508 C510 1.403 . S
C508 C514 1.439 . S
C509 N506 1.319 . S
C509 C507 1.397 . S
C509 H520 0.930 . S
C510 C507 1.367 . S
C510 C508 1.403 . S
C510 H531 0.929 . S
C511 C512 1.430 . S
C511 C513 1.387 . S
C511 C517 1.404 . S
C512 C505 1.448 . S
C512 C511 1.430 . S
C512 N516 1.351 . S
C513 C511 1.387 . S
C513 C514 1.374 . S
C513 H528 0.931 . S
C514 C508 1.439 . S
C514 C513 1.374 . S
C514 H529 0.931 . S
Eu515 N506 2.600 . S
Eu515 N516 2.562 . S
Eu515 O550 2.335 . S
Eu515 O553 2.372 . S
Eu515 O554 2.462 . S
Eu515 O555 2.373 . S
Eu515 O557 2.432 . S
Eu515 O558 2.291 . S
Eu515 C579 2.787 . S
N516 C512 1.351 . S
N516 Eu515 2.562 . S
N516 C518 1.325 . S
C517 C511 1.404 . S
C517 C519 1.366 . S
C517 H525 0.930 . S
C518 N516 1.325 . S
C518 C519 1.416 . S
C518 H524 0.929 . S
C519 C517 1.366 . S
C519 C518 1.416 . S
C519 H521 0.930 . S
H520 C509 0.930 . S
H521 C519 0.930 . S
H522 C537 0.930 . S
H523 C544 0.930 . S
H524 C518 0.929 . S
H525 C517 0.930 . S
H526 C540 0.929 . S
H527 C507 0.931 . S
H528 C513 0.931 . S
H529 C514 0.931 . S
H530 C535 0.931 . S
H531 C510 0.929 . S
H532 C543 0.930 . S
N533 Eu504 2.600 . S
N533 C534 1.365 . S
N533 C537 1.319 . S
C534 N533 1.365 . S
C534 C536 1.405 . S
C534 C542 1.448 . S
C535 H530 0.931 . S
C535 C537 1.397 . S
C535 C538 1.367 . S
C536 C534 1.405 . S
C536 C538 1.403 . S
C536 C569 1.439 . S
C537 H522 0.930 . S
C537 N533 1.319 . S
C537 C535 1.397 . S
C538 C535 1.367 . S
C538 C536 1.403 . S
C538 H545 0.929 . S
N539 Eu504 2.562 . S
N539 C540 1.325 . S
N539 C542 1.351 . S
C540 H526 0.929 . S
C540 N539 1.325 . S
C540 C544 1.416 . S
C541 C542 1.430 . S
C541 C543 1.404 . S
C541 C570 1.387 . S
C542 C534 1.448 . S
C542 N539 1.351 . S
C542 C541 1.430 . S
C543 H532 0.930 . S
C543 C541 1.404 . S
C543 C544 1.366 . S
C544 H523 0.930 . S
C544 C540 1.416 . S
C544 C543 1.366 . S
H545 C538 0.929 . S
H546 C569 0.931 . S
H547 C570 0.931 . S
O548 Eu504 2.462 . S
O548 C568 1.252 . S
O549 Eu504 2.373 . S
O549 C560 1.249 . S
O550 Eu515 2.335 . S
O550 C560 1.264 . S
O551 Eu504 2.432 . S
O551 C568 1.268 . S
O552 Eu504 2.291 . S
O552 C567 1.255 . S
O553 Eu515 2.372 . S
O553 C567 1.257 . S
O554 Eu515 2.462 . S
O554 C579 1.252 . S
O555 Eu515 2.373 . S
O555 C571 1.249 . S
O556 Eu504 2.335 . S
O556 C571 1.264 . S
O557 Eu515 2.432 . S
O557 C579 1.268 . S
O558 Eu515 2.291 . S
O558 C578 1.255 . S
O559 Eu504 2.372 . S
O559 C578 1.257 . S
C560 O549 1.249 . S
C560 O550 1.264 . S
C561 C564 1.382 . S
C561 C566 1.390 . S
C561 C568 1.506 . S
C562 C563 1.398 . S
C562 C566 1.392 . S
C563 C562 1.398 . S
C563 C565 1.372 . S
C563 H580 0.931 . S
C564 C561 1.382 . S
C564 C565 1.390 . S
C564 H581 0.931 . S
C565 C563 1.372 . S
C565 C564 1.390 . S
C565 H582 0.929 . S
C566 C561 1.390 . S
C566 C562 1.392 . S
C566 H583 0.930 . S
C567 O552 1.255 . S
C567 O553 1.257 . S
C568 Eu504 2.787 . S
C568 O548 1.252 . S
C568 O551 1.268 . S
C568 C561 1.506 . S
C569 C536 1.439 . S
C569 H546 0.931 . S
C569 C570 1.374 . S
C570 C541 1.387 . S
C570 H547 0.931 . S
C570 C569 1.374 . S
C571 O555 1.249 . S
C571 O556 1.264 . S
C572 C575 1.382 . S
C572 C576 1.390 . S
C572 C579 1.506 . S
C573 C574 1.398 . S
C573 C576 1.392 . S
C574 C573 1.398 . S
C574 C577 1.372 . S
C574 H584 0.931 . S
C575 C572 1.382 . S
C575 C577 1.390 . S
C575 H585 0.931 . S
C576 C572 1.390 . S
C576 C573 1.392 . S
C576 H586 0.930 . S
C577 C574 1.372 . S
C577 C575 1.390 . S
C577 H587 0.929 . S
C578 O558 1.255 . S
C578 O559 1.257 . S
C579 Eu515 2.787 . S
C579 O554 1.252 . S
C579 O557 1.268 . S
C579 C572 1.506 . S
H580 C563 0.931 . S
H581 C564 0.931 . S
H582 C565 0.929 . S
H583 C566 0.930 . S
H584 C574 0.931 . S
H585 C575 0.931 . S
H586 C576 0.930 . S
H587 C577 0.929 . S
Eu588 N617 2.600 . S
Eu588 N623 2.562 . S
Eu588 O632 2.462 . S
Eu588 O633 2.373 . S
Eu588 O635 2.432 . S
Eu588 O636 2.291 . S
Eu588 O640 2.335 . S
Eu588 O643 2.372 . S
Eu588 C652 2.787 . S
C589 N590 1.365 . S
C589 C592 1.405 . S
C589 C596 1.448 . S
N590 C589 1.365 . S
N590 C593 1.319 . S
N590 Eu599 2.600 . S
C591 C593 1.397 . S
C591 C594 1.367 . S
C591 H611 0.931 . S
C592 C589 1.405 . S
C592 C594 1.403 . S
C592 C598 1.439 . S
C593 N590 1.319 . S
C593 C591 1.397 . S
C593 H604 0.930 . S
C594 C591 1.367 . S
C594 C592 1.403 . S
C594 H615 0.929 . S
C595 C596 1.430 . S
C595 C597 1.387 . S
C595 C601 1.404 . S
C596 C589 1.448 . S
C596 C595 1.430 . S
C596 N600 1.351 . S
C597 C595 1.387 . S
C597 C598 1.374 . S
C597 H612 0.931 1_556 S
C598 C592 1.439 . S
C598 C597 1.374 . S
C598 H613 0.931 . S
Eu599 N590 2.600 . S
Eu599 N600 2.562 . S
Eu599 O634 2.335 . S
Eu599 O637 2.372 . S
Eu599 O638 2.462 . S
Eu599 O639 2.373 . S
Eu599 O641 2.432 . S
Eu599 O642 2.291 . S
Eu599 C663 2.787 . S
N600 C596 1.351 . S
N600 Eu599 2.562 . S
N600 C602 1.325 . S
C601 C595 1.404 . S
C601 C603 1.366 . S
C601 H609 0.930 1_556 S
C602 N600 1.325 . S
C602 C603 1.416 . S
C602 H608 0.929 . S
C603 C601 1.366 . S
C603 C602 1.416 . S
C603 H605 0.930 . S
H604 C593 0.930 . S
H605 C603 0.930 . S
H606 C621 0.930 . S
H607 C628 0.930 . S
H608 C602 0.929 . S
H609 C601 0.930 1_554 S
H610 C624 0.929 . S
H611 C591 0.931 . S
H612 C597 0.931 1_554 S
H613 C598 0.931 . S
H614 C619 0.931 . S
H615 C594 0.929 . S
H616 C627 0.930 . S
N617 Eu588 2.600 . S
N617 C618 1.365 . S
N617 C621 1.319 . S
C618 N617 1.365 . S
C618 C620 1.405 . S
C618 C626 1.448 . S
C619 H614 0.931 . S
C619 C621 1.397 . S
C619 C622 1.367 . S
C620 C618 1.405 . S
C620 C622 1.403 . S
C620 C653 1.439 . S
C621 H606 0.930 . S
C621 N617 1.319 . S
C621 C619 1.397 . S
C622 C619 1.367 . S
C622 C620 1.403 . S
C622 H629 0.929 . S
N623 Eu588 2.562 . S
N623 C624 1.325 . S
N623 C626 1.351 . S
C624 H610 0.929 . S
C624 N623 1.325 . S
C624 C628 1.416 . S
C625 C626 1.430 . S
C625 C627 1.404 . S
C625 C654 1.387 . S
C626 C618 1.448 . S
C626 N623 1.351 . S
C626 C625 1.430 . S
C627 H616 0.930 . S
C627 C625 1.404 . S
C627 C628 1.366 . S
C628 H607 0.930 . S
C628 C624 1.416 . S
C628 C627 1.366 . S
H629 C622 0.929 . S
H630 C653 0.931 . S
H631 C654 0.931 . S
O632 Eu588 2.462 . S
O632 C652 1.252 . S
O633 Eu588 2.373 . S
O633 C644 1.249 . S
O634 Eu599 2.335 . S
O634 C644 1.264 . S
O635 Eu588 2.432 . S
O635 C652 1.268 . S
O636 Eu588 2.291 . S
O636 C651 1.255 . S
O637 Eu599 2.372 . S
O637 C651 1.257 . S
O638 Eu599 2.462 . S
O638 C663 1.252 . S
O639 Eu599 2.373 . S
O639 C655 1.249 . S
O640 Eu588 2.335 . S
O640 C655 1.264 . S
O641 Eu599 2.432 . S
O641 C663 1.268 . S
O642 Eu599 2.291 . S
O642 C662 1.255 . S
O643 Eu588 2.372 . S
O643 C662 1.257 . S
C644 O633 1.249 . S
C644 O634 1.264 . S
C645 C648 1.382 . S
C645 C650 1.390 . S
C645 C652 1.506 . S
C646 C647 1.398 . S
C646 C650 1.392 . S
C647 C646 1.398 . S
C647 C649 1.372 . S
C647 H664 0.931 . S
C648 C645 1.382 . S
C648 C649 1.390 . S
C648 H665 0.931 . S
C649 C647 1.372 . S
C649 C648 1.390 . S
C649 H666 0.929 . S
C650 C645 1.390 . S
C650 C646 1.392 . S
C650 H667 0.930 . S
C651 O636 1.255 . S
C651 O637 1.257 . S
C652 Eu588 2.787 . S
C652 O632 1.252 . S
C652 O635 1.268 . S
C652 C645 1.506 . S
C653 C620 1.439 . S
C653 H630 0.931 . S
C653 C654 1.374 . S
C654 C625 1.387 . S
C654 H631 0.931 . S
C654 C653 1.374 . S
C655 O639 1.249 . S
C655 O640 1.264 . S
C656 C659 1.382 . S
C656 C660 1.390 . S
C656 C663 1.506 . S
C657 C658 1.398 . S
C657 C660 1.392 . S
C658 C657 1.398 . S
C658 C661 1.372 . S
C658 H668 0.931 . S
C659 C656 1.382 . S
C659 C661 1.390 . S
C659 H669 0.931 . S
C660 C656 1.390 . S
C660 C657 1.392 . S
C660 H670 0.930 . S
C661 C658 1.372 . S
C661 C659 1.390 . S
C661 H671 0.929 . S
C662 O642 1.255 . S
C662 O643 1.257 . S
C663 Eu599 2.787 . S
C663 O638 1.252 . S
C663 O641 1.268 . S
C663 C656 1.506 . S
H664 C647 0.931 . S
H665 C648 0.931 . S
H666 C649 0.929 . S
H667 C650 0.930 . S
H668 C658 0.931 . S
H669 C659 0.931 . S
H670 C660 0.930 . S
H671 C661 0.929 . S
Co672 O675 2.042 . S
Co672 O682 2.264 . S
Co672 O701 2.286 . S
Co672 O702 2.069 . S
Co672 O704 2.015 1_455 S
Co673 O675 2.122 . S
Co673 O681 2.073 . S
Co673 O682 2.327 . S
Co673 O683 1.976 1_455 S
Co674 O675 2.087 1_545 S
Co674 O677 2.087 1_455 S
Co674 O684 2.111 1_445 S
Co674 O685 2.143 . S
Co674 O689 2.111 . S
Co674 O703 2.143 1_445 S
O675 Co672 2.042 . S
O675 Co673 2.122 . S
O675 Co674 2.087 1_565 S
O675 H676 0.980 . S
H676 O675 0.980 . S
O677 Co674 2.087 1_655 S
O677 Co678 2.042 . S
O677 Co679 2.122 . S
O677 H680 0.980 . S
Co678 O677 2.042 . S
Co678 O686 2.286 . S
Co678 O687 2.069 . S
Co678 O688 2.015 1_655 S
Co678 O691 2.264 . S
Co679 O677 2.122 . S
Co679 O690 1.976 1_655 S
Co679 O691 2.327 . S
Co679 O692 2.073 . S
H680 O677 0.980 . S
O681 Co673 2.073 . S
O681 C696 1.245 . S
O682 Co672 2.264 . S
O682 Co673 2.327 . S
O682 C696 1.257 . S
O683 Co673 1.976 1_655 S
O683 C695 1.251 . S
O684 Co674 2.111 1_665 S
O684 C695 1.274 . S
O685 Co674 2.143 . S
O685 C698 1.246 . S
O686 Co678 2.286 . S
O686 C697 1.259 . S
O687 Co678 2.069 . S
O687 C697 1.289 . S
O688 Co678 2.015 1_455 S
O688 C698 1.257 . S
O689 Co674 2.111 . S
O689 C699 1.274 . S
O690 Co679 1.976 1_455 S
O690 C699 1.251 . S
O691 Co678 2.264 . S
O691 Co679 2.327 . S
O691 C700 1.257 . S
O692 Co679 2.073 . S
O692 C700 1.245 . S
C693 O701 1.259 . S
C693 O702 1.289 . S
C694 O703 1.246 . S
C694 O704 1.257 . S
C695 O683 1.251 . S
C695 O684 1.274 . S
C696 O681 1.245 . S
C696 O682 1.257 . S
C697 O686 1.259 . S
C697 O687 1.289 . S
C698 O685 1.246 . S
C698 O688 1.257 . S
C699 O689 1.274 . S
C699 O690 1.251 . S
C700 O691 1.257 . S
C700 O692 1.245 . S
O701 Co672 2.286 . S
O701 C693 1.259 . S
O702 Co672 2.069 . S
O702 C693 1.289 . S
O703 Co674 2.143 1_665 S
O703 C694 1.246 . S
O704 Co672 2.015 1_655 S
O704 C694 1.257 . S
Co705 O708 2.042 1_556 S
Co705 O715 2.264 1_556 S
Co705 O734 2.286 . S
Co705 O735 2.069 . S
Co705 O737 2.015 . S
Co706 O708 2.122 . S
Co706 O714 2.073 . S
Co706 O715 2.327 . S
Co706 O716 1.976 . S
Co707 O708 2.087 1_545 S
Co707 O710 2.087 1_554 S
Co707 O717 2.111 1_545 S
Co707 O718 2.143 . S
Co707 O722 2.111 1_554 S
Co707 O736 2.143 1_544 S
O708 Co705 2.042 1_554 S
O708 Co706 2.122 . S
O708 Co707 2.087 1_565 S
O708 H709 0.980 . S
H709 O708 0.980 . S
O710 Co707 2.087 1_556 S
O710 Co711 2.042 1_556 S
O710 Co712 2.122 . S
O710 H713 0.980 . S
Co711 O710 2.042 1_554 S
Co711 O719 2.286 . S
Co711 O720 2.069 . S
Co711 O721 2.015 . S
Co711 O724 2.264 1_554 S
Co712 O710 2.122 . S
Co712 O723 1.976 . S
Co712 O724 2.327 . S
Co712 O725 2.073 . S
H713 O710 0.980 . S
O714 Co706 2.073 . S
O714 C729 1.245 . S
O715 Co705 2.264 1_554 S
O715 Co706 2.327 . S
O715 C729 1.257 . S
O716 Co706 1.976 . S
O716 C728 1.251 . S
O717 Co707 2.111 1_565 S
O717 C728 1.274 . S
O718 Co707 2.143 . S
O718 C731 1.246 . S
O719 Co711 2.286 . S
O719 C730 1.259 . S
O720 Co711 2.069 . S
O720 C730 1.289 . S
O721 Co711 2.015 . S
O721 C731 1.257 . S
O722 Co707 2.111 1_556 S
O722 C732 1.274 . S
O723 Co712 1.976 . S
O723 C732 1.251 . S
O724 Co711 2.264 1_556 S
O724 Co712 2.327 . S
O724 C733 1.257 . S
O725 Co712 2.073 . S
O725 C733 1.245 . S
C726 O734 1.259 . S
C726 O735 1.289 . S
C727 O736 1.246 . S
C727 O737 1.257 . S
C728 O716 1.251 . S
C728 O717 1.274 . S
C729 O714 1.245 . S
C729 O715 1.257 . S
C730 O719 1.259 . S
C730 O720 1.289 . S
C731 O718 1.246 . S
C731 O721 1.257 . S
C732 O722 1.274 . S
C732 O723 1.251 . S
C733 O724 1.257 . S
C733 O725 1.245 . S
O734 Co705 2.286 . S
O734 C726 1.259 . S
O735 Co705 2.069 . S
O735 C726 1.289 . S
O736 Co707 2.143 1_566 S
O736 C727 1.246 . S
O737 Co705 2.015 . S
O737 C727 1.257 . S
Co738 O741 2.042 1_556 S
Co738 O748 2.264 1_556 S
Co738 O767 2.286 . S
Co738 O768 2.069 . S
Co738 O770 2.015 1_455 S
Co739 O741 2.122 . S
Co739 O747 2.073 . S
Co739 O748 2.327 . S
Co739 O749 1.976 1_455 S
Co740 O741 2.087 . S
Co740 O743 2.087 1_454 S
Co740 O750 2.111 1_455 S
Co740 O751 2.143 . S
Co740 O755 2.111 1_554 S
Co740 O769 2.143 1_454 S
O741 Co738 2.042 1_554 S
O741 Co739 2.122 . S
O741 Co740 2.087 . S
O741 H742 0.980 . S
H742 O741 0.980 . S
O743 Co740 2.087 1_656 S
O743 Co744 2.042 1_556 S
O743 Co745 2.122 . S
O743 H746 0.980 . S
Co744 O743 2.042 1_554 S
Co744 O752 2.286 . S
Co744 O753 2.069 . S
Co744 O754 2.015 1_655 S
Co744 O757 2.264 1_554 S
Co745 O743 2.122 . S
Co745 O756 1.976 1_655 S
Co745 O757 2.327 . S
Co745 O758 2.073 . S
H746 O743 0.980 . S
O747 Co739 2.073 . S
O747 C762 1.245 . S
O748 Co738 2.264 1_554 S
O748 Co739 2.327 . S
O748 C762 1.257 . S
O749 Co739 1.976 1_655 S
O749 C761 1.251 . S
O750 Co740 2.111 1_655 S
O750 C761 1.274 . S
O751 Co740 2.143 . S
O751 C764 1.246 . S
O752 Co744 2.286 . S
O752 C763 1.259 . S
O753 Co744 2.069 . S
O753 C763 1.289 . S
O754 Co744 2.015 1_455 S
O754 C764 1.257 . S
O755 Co740 2.111 1_556 S
O755 C765 1.274 . S
O756 Co745 1.976 1_455 S
O756 C765 1.251 . S
O757 Co744 2.264 1_556 S
O757 Co745 2.327 . S
O757 C766 1.257 . S
O758 Co745 2.073 . S
O758 C766 1.245 . S
C759 O767 1.259 . S
C759 O768 1.289 . S
C760 O769 1.246 . S
C760 O770 1.257 . S
C761 O749 1.251 . S
C761 O750 1.274 . S
C762 O747 1.245 . S
C762 O748 1.257 . S
C763 O752 1.259 . S
C763 O753 1.289 . S
C764 O751 1.246 . S
C764 O754 1.257 . S
C765 O755 1.274 . S
C765 O756 1.251 . S
C766 O757 1.257 . S
C766 O758 1.245 . S
O767 Co738 2.286 . S
O767 C759 1.259 . S
O768 Co738 2.069 . S
O768 C759 1.289 . S
O769 Co740 2.143 1_656 S
O769 C760 1.246 . S
O770 Co738 2.015 1_655 S
O770 C760 1.257 . S
Co771 O774 2.042 1_556 S
Co771 O781 2.264 1_556 S
Co771 O800 2.286 . S
Co771 O801 2.069 . S
Co771 O803 2.015 . S
Co772 O774 2.122 . S
Co772 O780 2.073 . S
Co772 O781 2.327 . S
Co772 O782 1.976 . S
Co773 O774 2.087 . S
Co773 O776 2.087 1_554 S
Co773 O783 2.111 . S
Co773 O784 2.143 . S
Co773 O788 2.111 1_554 S
Co773 O802 2.143 1_554 S
O774 Co771 2.042 1_554 S
O774 Co772 2.122 . S
O774 Co773 2.087 . S
O774 H775 0.980 . S
H775 O774 0.980 . S
O776 Co773 2.087 1_556 S
O776 Co777 2.042 1_556 S
O776 Co778 2.122 . S
O776 H779 0.980 . S
Co777 O776 2.042 1_554 S
Co777 O785 2.286 . S
Co777 O786 2.069 . S
Co777 O787 2.015 . S
Co777 O790 2.264 1_554 S
Co778 O776 2.122 . S
Co778 O789 1.976 . S
Co778 O790 2.327 . S
Co778 O791 2.073 . S
H779 O776 0.980 . S
O780 Co772 2.073 . S
O780 C795 1.245 . S
O781 Co771 2.264 1_554 S
O781 Co772 2.327 . S
O781 C795 1.257 . S
O782 Co772 1.976 . S
O782 C794 1.251 . S
O783 Co773 2.111 . S
O783 C794 1.274 . S
O784 Co773 2.143 . S
O784 C797 1.246 . S
O785 Co777 2.286 . S
O785 C796 1.259 . S
O786 Co777 2.069 . S
O786 C796 1.289 . S
O787 Co777 2.015 . S
O787 C797 1.257 . S
O788 Co773 2.111 1_556 S
O788 C798 1.274 . S
O789 Co778 1.976 . S
O789 C798 1.251 . S
O790 Co777 2.264 1_556 S
O790 Co778 2.327 . S
O790 C799 1.257 . S
O791 Co778 2.073 . S
O791 C799 1.245 . S
C792 O800 1.259 . S
C792 O801 1.289 . S
C793 O802 1.246 . S
C793 O803 1.257 . S
C794 O782 1.251 . S
C794 O783 1.274 . S
C795 O780 1.245 . S
C795 O781 1.257 . S
C796 O785 1.259 . S
C796 O786 1.289 . S
C797 O784 1.246 . S
C797 O787 1.257 . S
C798 O788 1.274 . S
C798 O789 1.251 . S
C799 O790 1.257 . S
C799 O791 1.245 . S
O800 Co771 2.286 . S
O800 C792 1.259 . S
O801 Co771 2.069 . S
O801 C792 1.289 . S
O802 Co773 2.143 1_556 S
O802 C793 1.246 . S
O803 Co771 2.015 . S
O803 C793 1.257 . S
Co804 O807 2.042 . S
Co804 O814 2.264 . S
Co804 O833 2.286 . S
Co804 O834 2.069 . S
Co804 O836 2.015 . S
Co805 O807 2.122 . S
Co805 O813 2.073 . S
Co805 O814 2.327 . S
Co805 O815 1.976 . S
Co806 O807 2.087 . S
Co806 O809 2.087 1_455 S
Co806 O816 2.111 . S
Co806 O817 2.143 1_455 S
Co806 O821 2.111 1_455 S
Co806 O835 2.143 . S
O807 Co804 2.042 . S
O807 Co805 2.122 . S
O807 Co806 2.087 . S
O807 H808 0.980 . S
H808 O807 0.980 . S
O809 Co806 2.087 1_655 S
O809 Co810 2.042 . S
O809 Co811 2.122 . S
O809 H812 0.980 . S
Co810 O809 2.042 . S
Co810 O818 2.286 . S
Co810 O819 2.069 . S
Co810 O820 2.015 . S
Co810 O823 2.264 . S
Co811 O809 2.122 . S
Co811 O822 1.976 . S
Co811 O823 2.327 . S
Co811 O824 2.073 . S
H812 O809 0.980 . S
O813 Co805 2.073 . S
O813 C828 1.245 . S
O814 Co804 2.264 . S
O814 Co805 2.327 . S
O814 C828 1.257 . S
O815 Co805 1.976 . S
O815 C827 1.251 . S
O816 Co806 2.111 . S
O816 C827 1.274 . S
O817 Co806 2.143 1_655 S
O817 C830 1.246 . S
O818 Co810 2.286 . S
O818 C829 1.259 . S
O819 Co810 2.069 . S
O819 C829 1.289 . S
O820 Co810 2.015 . S
O820 C830 1.257 . S
O821 Co806 2.111 1_655 S
O821 C831 1.274 . S
O822 Co811 1.976 . S
O822 C831 1.251 . S
O823 Co810 2.264 . S
O823 Co811 2.327 . S
O823 C832 1.257 . S
O824 Co811 2.073 . S
O824 C832 1.245 . S
C825 O833 1.259 . S
C825 O834 1.289 . S
C826 O835 1.246 . S
C826 O836 1.257 . S
C827 O815 1.251 . S
C827 O816 1.274 . S
C828 O813 1.245 . S
C828 O814 1.257 . S
C829 O818 1.259 . S
C829 O819 1.289 . S
C830 O817 1.246 . S
C830 O820 1.257 . S
C831 O821 1.274 . S
C831 O822 1.251 . S
C832 O823 1.257 . S
C832 O824 1.245 . S
O833 Co804 2.286 . S
O833 C825 1.259 . S
O834 Co804 2.069 . S
O834 C825 1.289 . S
O835 Co806 2.143 . S
O835 C826 1.246 . S
O836 Co804 2.015 . S
O836 C826 1.257 . S
Co837 O840 2.042 . S
Co837 O847 2.264 . S
Co837 O866 2.286 . S
Co837 O867 2.069 . S
Co837 O869 2.015 1_565 S
Co838 O840 2.122 . S
Co838 O846 2.073 . S
Co838 O847 2.327 . S
Co838 O848 1.976 1_565 S
Co839 O840 2.087 1_545 S
Co839 O842 2.087 . S
Co839 O849 2.111 . S
Co839 O850 2.143 1_545 S
Co839 O854 2.111 1_545 S
Co839 O868 2.143 . S
O840 Co837 2.042 . S
O840 Co838 2.122 . S
O840 Co839 2.087 1_565 S
O840 H841 0.980 . S
H841 O840 0.980 . S
O842 Co839 2.087 . S
O842 Co843 2.042 . S
O842 Co844 2.122 . S
O842 H845 0.980 . S
Co843 O842 2.042 . S
Co843 O851 2.286 . S
Co843 O852 2.069 . S
Co843 O853 2.015 1_545 S
Co843 O856 2.264 . S
Co844 O842 2.122 . S
Co844 O855 1.976 1_545 S
Co844 O856 2.327 . S
Co844 O857 2.073 . S
H845 O842 0.980 . S
O846 Co838 2.073 . S
O846 C861 1.245 . S
O847 Co837 2.264 . S
O847 Co838 2.327 . S
O847 C861 1.257 . S
O848 Co838 1.976 1_545 S
O848 C860 1.251 . S
O849 Co839 2.111 . S
O849 C860 1.274 . S
O850 Co839 2.143 1_565 S
O850 C863 1.246 . S
O851 Co843 2.286 . S
O851 C862 1.259 . S
O852 Co843 2.069 . S
O852 C862 1.289 . S
O853 Co843 2.015 1_565 S
O853 C863 1.257 . S
O854 Co839 2.111 1_565 S
O854 C864 1.274 . S
O855 Co844 1.976 1_565 S
O855 C864 1.251 . S
O856 Co843 2.264 . S
O856 Co844 2.327 . S
O856 C865 1.257 . S
O857 Co844 2.073 . S
O857 C865 1.245 . S
C858 O866 1.259 . S
C858 O867 1.289 . S
C859 O868 1.246 . S
C859 O869 1.257 . S
C860 O848 1.251 . S
C860 O849 1.274 . S
C861 O846 1.245 . S
C861 O847 1.257 . S
C862 O851 1.259 . S
C862 O852 1.289 . S
C863 O850 1.246 . S
C863 O853 1.257 . S
C864 O854 1.274 . S
C864 O855 1.251 . S
C865 O856 1.257 . S
C865 O857 1.245 . S
O866 Co837 2.286 . S
O866 C858 1.259 . S
O867 Co837 2.069 . S
O867 C858 1.289 . S
O868 Co839 2.143 . S
O868 C859 1.246 . S
O869 Co837 2.015 1_545 S
O869 C859 1.257 . S
C870 C871 1.387 . S
C870 H874 0.950 . S
C870 C879 1.390 . S
C871 C870 1.387 . S
C871 C873 1.387 . S
H872 C879 0.950 . S
C873 C871 1.387 . S
C873 C875 1.390 . S
C873 H877 0.950 . S
H874 C870 0.950 . S
C875 C873 1.390 . S
C875 C876 1.387 . S
C875 H878 0.950 . S
C876 C875 1.387 . S
C876 C879 1.387 . S
H877 C873 0.950 . S
H878 C875 0.950 . S
C879 C870 1.390 . S
C879 H872 0.950 . S
C879 C876 1.387 . S
C880 C881 1.387 . S
C880 H884 0.950 . S
C880 C889 1.390 . S
C881 C880 1.387 . S
C881 C883 1.387 . S
H882 C889 0.950 . S
C883 C881 1.387 . S
C883 C885 1.390 . S
C883 H887 0.950 . S
H884 C880 0.950 . S
C885 C883 1.390 . S
C885 C886 1.387 . S
C885 H888 0.950 . S
C886 C885 1.387 . S
C886 C889 1.387 . S
H887 C883 0.950 . S
H888 C885 0.950 . S
C889 C880 1.390 . S
C889 H882 0.950 . S
C889 C886 1.387 . S
C890 C891 1.387 . S
C890 H894 0.950 . S
C890 C899 1.390 . S
C891 C890 1.387 . S
C891 C893 1.387 . S
H892 C899 0.950 . S
C893 C891 1.387 . S
C893 C895 1.390 . S
C893 H897 0.950 . S
H894 C890 0.950 . S
C895 C893 1.390 . S
C895 C896 1.387 . S
C895 H898 0.950 . S
C896 C895 1.387 . S
C896 C899 1.387 . S
H897 C893 0.950 . S
H898 C895 0.950 . S
C899 C890 1.390 . S
C899 H892 0.950 . S
C899 C896 1.387 . S
C900 C901 1.387 . S
C900 H904 0.950 . S
C900 C909 1.390 . S
C901 C900 1.387 . S
C901 C903 1.387 . S
H902 C909 0.950 . S
C903 C901 1.387 . S
C903 C905 1.390 . S
C903 H907 0.950 . S
H904 C900 0.950 . S
C905 C903 1.390 . S
C905 C906 1.387 . S
C905 H908 0.950 . S
C906 C905 1.387 . S
C906 C909 1.387 . S
H907 C903 0.950 . S
H908 C905 0.950 . S
C909 C900 1.390 . S
C909 H902 0.950 . S
C909 C906 1.387 . S
C910 C911 1.387 . S
C910 H914 0.950 . S
C910 C919 1.390 . S
C911 C910 1.387 . S
C911 C913 1.387 . S
H912 C919 0.950 . S
C913 C911 1.387 . S
C913 C915 1.390 . S
C913 H917 0.950 . S
H914 C910 0.950 . S
C915 C913 1.390 . S
C915 C916 1.387 . S
C915 H918 0.950 . S
C916 C915 1.387 . S
C916 C919 1.387 . S
H917 C913 0.950 . S
H918 C915 0.950 . S
C919 C910 1.390 . S
C919 H912 0.950 . S
C919 C916 1.387 . S
C920 C921 1.387 . S
C920 H924 0.950 . S
C920 C929 1.390 . S
C921 C920 1.387 . S
C921 C923 1.387 . S
H922 C929 0.950 . S
C923 C921 1.387 . S
C923 C925 1.390 . S
C923 H927 0.950 . S
H924 C920 0.950 . S
C925 C923 1.390 . S
C925 C926 1.387 . S
C925 H928 0.950 . S
C926 C925 1.387 . S
C926 C929 1.387 . S
H927 C923 0.950 . S
H928 C925 0.950 . S
C929 C920 1.390 . S
C929 H922 0.950 . S
C929 C926 1.387 . S
C930 C931 1.387 . S
C930 H934 0.950 . S
C930 C939 1.390 . S
C931 C930 1.387 . S
C931 C933 1.387 . S
H932 C939 0.950 . S
C933 C931 1.387 . S
C933 C935 1.390 . S
C933 H937 0.950 . S
H934 C930 0.950 . S
C935 C933 1.390 . S
C935 C936 1.387 . S
C935 H938 0.950 . S
C936 C935 1.387 . S
C936 C939 1.387 . S
H937 C933 0.950 . S
H938 C935 0.950 . S
C939 C930 1.390 . S
C939 H932 0.950 . S
C939 C936 1.387 . S
C940 C941 1.387 . S
C940 H944 0.950 . S
C940 C949 1.390 . S
C941 C940 1.387 . S
C941 C943 1.387 . S
H942 C949 0.950 . S
C943 C941 1.387 . S
C943 C945 1.390 . S
C943 H947 0.950 . S
H944 C940 0.950 . S
C945 C943 1.390 . S
C945 C946 1.387 . S
C945 H948 0.950 . S
C946 C945 1.387 . S
C946 C949 1.387 . S
H947 C943 0.950 . S
H948 C945 0.950 . S
C949 C940 1.390 . S
C949 H942 0.950 . S
C949 C946 1.387 . S
C950 C951 1.387 . S
C950 H954 0.950 . S
C950 C959 1.390 . S
C951 C950 1.387 . S
C951 C953 1.387 . S
H952 C959 0.950 . S
C953 C951 1.387 . S
C953 C955 1.390 . S
C953 H957 0.950 . S
H954 C950 0.950 . S
C955 C953 1.390 . S
C955 C956 1.387 . S
C955 H958 0.950 . S
C956 C955 1.387 . S
C956 C959 1.387 . S
H957 C953 0.950 . S
H958 C955 0.950 . S
C959 C950 1.390 . S
C959 H952 0.950 . S
C959 C956 1.387 . S
C960 C961 1.387 . S
C960 H964 0.950 . S
C960 C969 1.390 . S
C961 C960 1.387 . S
C961 C963 1.387 . S
H962 C969 0.950 . S
C963 C961 1.387 . S
C963 C965 1.390 . S
C963 H967 0.950 . S
H964 C960 0.950 . S
C965 C963 1.390 . S
C965 C966 1.387 . S
C965 H968 0.950 . S
C966 C965 1.387 . S
C966 C969 1.387 . S
H967 C963 0.950 . S
H968 C965 0.950 . S
C969 C960 1.390 . S
C969 H962 0.950 . S
C969 C966 1.387 . S
C970 C971 1.387 . S
C970 H974 0.940 1_554 S
C970 C979 1.390 . S
C971 C970 1.387 . S
C971 C973 1.387 . S
H972 C979 0.950 1_556 S
C973 C971 1.387 . S
C973 C975 1.390 . S
C973 H977 0.950 . S
H974 C970 0.940 1_556 S
C975 C973 1.390 . S
C975 C976 1.387 . S
C975 H978 0.950 . S
C976 C975 1.387 . S
C976 C979 1.387 . S
H977 C973 0.950 . S
H978 C975 0.950 . S
C979 C970 1.390 . S
C979 H972 0.950 1_554 S
C979 C976 1.387 . S
C980 C981 1.387 . S
C980 H984 0.950 . S
C980 C989 1.390 . S
C981 C980 1.387 . S
C981 C983 1.387 . S
H982 C989 0.950 . S
C983 C981 1.387 . S
C983 C985 1.390 . S
C983 H987 0.950 . S
H984 C980 0.950 . S
C985 C983 1.390 . S
C985 C986 1.387 . S
C985 H988 0.950 . S
C986 C985 1.387 . S
C986 C989 1.387 . S
H987 C983 0.950 . S
H988 C985 0.950 . S
C989 C980 1.390 . S
C989 H982 0.950 . S
C989 C986 1.387 . S
C990 C991 1.387 . S
C990 H994 0.950 . S
C990 C999 1.390 . S
C991 C990 1.387 . S
C991 C993 1.387 . S
H992 C999 0.950 . S
C993 C991 1.387 . S
C993 C995 1.390 . S
C993 H997 0.950 . S
H994 C990 0.950 . S
C995 C993 1.390 . S
C995 C996 1.387 . S
C995 H998 0.950 . S
C996 C995 1.387 . S
C996 C999 1.387 . S
H997 C993 0.950 . S
H998 C995 0.950 . S
C999 C990 1.390 . S
C999 H992 0.950 . S
C999 C996 1.387 . S
C1000 C1001 1.387 . S
C1000 H1004 0.950 . S
C1000 C1009 1.390 . S
C1001 C1000 1.387 . S
C1001 C1003 1.387 . S
H1002 C1009 0.950 . S
C1003 C1001 1.387 . S
C1003 C1005 1.390 . S
C1003 H1007 0.950 . S
H1004 C1000 0.950 . S
C1005 C1003 1.390 . S
C1005 C1006 1.387 . S
C1005 H1008 0.950 . S
C1006 C1005 1.387 . S
C1006 C1009 1.387 . S
H1007 C1003 0.950 . S
H1008 C1005 0.950 . S
C1009 C1000 1.390 . S
C1009 H1002 0.950 . S
C1009 C1006 1.387 . S
C1010 C1011 1.387 . S
C1010 H1014 0.950 . S
C1010 C1019 1.390 . S
C1011 C1010 1.387 . S
C1011 C1013 1.387 . S
H1012 C1019 0.950 . S
C1013 C1011 1.387 . S
C1013 C1015 1.390 . S
C1013 H1017 0.950 . S
H1014 C1010 0.950 . S
C1015 C1013 1.390 . S
C1015 C1016 1.387 . S
C1015 H1018 0.950 . S
C1016 C1015 1.387 . S
C1016 C1019 1.387 . S
H1017 C1013 0.950 . S
H1018 C1015 0.950 . S
C1019 C1010 1.390 . S
C1019 H1012 0.950 . S
C1019 C1016 1.387 . S
C1020 C1021 1.387 . S
C1020 H1024 0.950 . S
C1020 C1029 1.390 . S
C1021 C1020 1.387 . S
C1021 C1023 1.387 . S
H1022 C1029 0.950 . S
C1023 C1021 1.387 . S
C1023 C1025 1.390 . S
C1023 H1027 0.950 . S
H1024 C1020 0.950 . S
C1025 C1023 1.390 . S
C1025 C1026 1.387 . S
C1025 H1028 0.950 1_556 S
C1026 C1025 1.387 . S
C1026 C1029 1.387 . S
H1027 C1023 0.950 . S
H1028 C1025 0.950 1_554 S
C1029 C1020 1.390 . S
C1029 H1022 0.950 . S
C1029 C1026 1.387 . S
C1030 C1031 1.387 . S
C1030 H1034 0.950 . S
C1030 C1039 1.390 . S
C1031 C1030 1.387 . S
C1031 C1033 1.387 . S
H1032 C1039 0.950 . S
C1033 C1031 1.387 . S
C1033 C1035 1.390 . S
C1033 H1037 0.950 . S
H1034 C1030 0.950 . S
C1035 C1033 1.390 . S
C1035 C1036 1.387 . S
C1035 H1038 0.950 1_554 S
C1036 C1035 1.387 . S
C1036 C1039 1.387 . S
H1037 C1033 0.950 . S
H1038 C1035 0.950 1_556 S
C1039 C1030 1.390 . S
C1039 H1032 0.950 . S
C1039 C1036 1.387 . S
C1040 C1041 1.387 . S
C1040 H1044 0.950 . S
C1040 C1049 1.390 . S
C1041 C1040 1.387 . S
C1041 C1043 1.387 . S
H1042 C1049 0.950 . S
C1043 C1041 1.387 . S
C1043 C1045 1.390 . S
C1043 H1047 0.950 . S
H1044 C1040 0.950 . S
C1045 C1043 1.390 . S
C1045 C1046 1.387 . S
C1045 H1048 0.950 . S
C1046 C1045 1.387 . S
C1046 C1049 1.387 . S
H1047 C1043 0.950 . S
H1048 C1045 0.950 . S
C1049 C1040 1.390 . S
C1049 H1042 0.950 . S
C1049 C1046 1.387 . S
C1050 C1051 1.387 . S
C1050 H1054 0.950 . S
C1050 C1059 1.390 . S
C1051 C1050 1.387 . S
C1051 C1053 1.387 . S
H1052 C1059 0.950 . S
C1053 C1051 1.387 . S
C1053 C1055 1.390 . S
C1053 H1057 0.960 . S
H1054 C1050 0.950 . S
C1055 C1053 1.390 . S
C1055 C1056 1.387 . S
C1055 H1058 0.950 1_556 S
C1056 C1055 1.387 . S
C1056 C1059 1.387 . S
H1057 C1053 0.960 . S
H1058 C1055 0.950 1_554 S
C1059 C1050 1.390 . S
C1059 H1052 0.950 . S
C1059 C1056 1.387 . S
C1060 C1061 1.387 . S
C1060 H1064 0.950 . S
C1060 C1069 1.390 . S
C1061 C1060 1.387 . S
C1061 C1063 1.387 . S
H1062 C1069 0.950 . S
C1063 C1061 1.387 . S
C1063 C1065 1.390 . S
C1063 H1067 0.950 . S
H1064 C1060 0.950 . S
C1065 C1063 1.390 . S
C1065 C1066 1.387 . S
C1065 H1068 0.950 . S
C1066 C1065 1.387 . S
C1066 C1069 1.387 . S
H1067 C1063 0.950 . S
H1068 C1065 0.950 . S
C1069 C1060 1.390 . S
C1069 H1062 0.950 . S
C1069 C1066 1.387 . S
C1070 C1071 1.387 . S
C1070 H1074 0.950 . S
C1070 C1079 1.390 . S
C1071 C1070 1.387 . S
C1071 C1073 1.387 . S
H1072 C1079 0.950 . S
C1073 C1071 1.387 . S
C1073 C1075 1.390 . S
C1073 H1077 0.950 . S
H1074 C1070 0.950 . S
C1075 C1073 1.390 . S
C1075 C1076 1.387 . S
C1075 H1078 0.950 . S
C1076 C1075 1.387 . S
C1076 C1079 1.387 . S
H1077 C1073 0.950 . S
H1078 C1075 0.950 . S
C1079 C1070 1.390 . S
C1079 H1072 0.950 . S
C1079 C1076 1.387 . S
C1080 C1081 1.387 . S
C1080 H1084 0.950 . S
C1080 C1089 1.390 . S
C1081 C1080 1.387 . S
C1081 C1083 1.387 . S
H1082 C1089 0.950 . S
C1083 C1081 1.387 . S
C1083 C1085 1.390 . S
C1083 H1087 0.950 . S
H1084 C1080 0.950 . S
C1085 C1083 1.390 . S
C1085 C1086 1.387 . S
C1085 H1088 0.950 . S
C1086 C1085 1.387 . S
C1086 C1089 1.387 . S
H1087 C1083 0.950 . S
H1088 C1085 0.950 . S
C1089 C1080 1.390 . S
C1089 H1082 0.950 . S
C1089 C1086 1.387 . S
C1090 C1091 1.387 . S
C1090 H1094 0.950 . S
C1090 C1099 1.390 . S
C1091 C1090 1.387 . S
C1091 C1093 1.387 . S
H1092 C1099 0.950 . S
C1093 C1091 1.387 . S
C1093 C1095 1.390 . S
C1093 H1097 0.950 . S
H1094 C1090 0.950 . S
C1095 C1093 1.390 . S
C1095 C1096 1.387 . S
C1095 H1098 0.950 . S
C1096 C1095 1.387 . S
C1096 C1099 1.387 . S
H1097 C1093 0.950 . S
H1098 C1095 0.950 . S
C1099 C1090 1.390 . S
C1099 H1092 0.950 . S
C1099 C1096 1.387 . S
C1100 C1101 1.387 . S
C1100 H1104 0.950 . S
C1100 C1109 1.390 . S
C1101 C1100 1.387 . S
C1101 C1103 1.387 . S
H1102 C1109 0.950 . S
C1103 C1101 1.387 . S
C1103 C1105 1.390 . S
C1103 H1107 0.950 . S
H1104 C1100 0.950 . S
C1105 C1103 1.390 . S
C1105 C1106 1.387 . S
C1105 H1108 0.950 . S
C1106 C1105 1.387 . S
C1106 C1109 1.387 . S
H1107 C1103 0.950 . S
H1108 C1105 0.950 . S
C1109 C1100 1.390 . S
C1109 H1102 0.950 . S
C1109 C1106 1.387 . S
C1110 C1111 1.387 . S
C1110 H1114 0.950 . S
C1110 C1119 1.390 . S
C1111 C1110 1.387 . S
C1111 C1113 1.387 . S
H1112 C1119 0.950 . S
C1113 C1111 1.387 . S
C1113 C1115 1.390 . S
C1113 H1117 0.950 . S
H1114 C1110 0.950 . S
C1115 C1113 1.390 . S
C1115 C1116 1.387 . S
C1115 H1118 0.950 . S
C1116 C1115 1.387 . S
C1116 C1119 1.387 . S
H1117 C1113 0.950 . S
H1118 C1115 0.950 . S
C1119 C1110 1.390 . S
C1119 H1112 0.950 . S
C1119 C1116 1.387 . S
C1120 C1121 1.387 . S
C1120 H1124 0.950 . S
C1120 C1129 1.390 . S
C1121 C1120 1.387 . S
C1121 C1123 1.387 . S
H1122 C1129 0.950 . S
C1123 C1121 1.387 . S
C1123 C1125 1.390 . S
C1123 H1127 0.950 . S
H1124 C1120 0.950 . S
C1125 C1123 1.390 . S
C1125 C1126 1.387 . S
C1125 H1128 0.950 . S
C1126 C1125 1.387 . S
C1126 C1129 1.387 . S
H1127 C1123 0.950 . S
H1128 C1125 0.950 . S
C1129 C1120 1.390 . S
C1129 H1122 0.950 . S
C1129 C1126 1.387 . S
C1130 C1131 1.387 . S
C1130 H1134 0.950 . S
C1130 C1139 1.390 . S
C1131 C1130 1.387 . S
C1131 C1133 1.387 . S
H1132 C1139 0.950 . S
C1133 C1131 1.387 . S
C1133 C1135 1.390 . S
C1133 H1137 0.950 . S
H1134 C1130 0.950 . S
C1135 C1133 1.390 . S
C1135 C1136 1.387 . S
C1135 H1138 0.950 . S
C1136 C1135 1.387 . S
C1136 C1139 1.387 . S
H1137 C1133 0.950 . S
H1138 C1135 0.950 . S
C1139 C1130 1.390 . S
C1139 H1132 0.950 . S
C1139 C1136 1.387 . S
C1140 C1141 1.387 . S
C1140 H1144 0.950 . S
C1140 C1149 1.390 . S
C1141 C1140 1.387 . S
C1141 C1143 1.387 . S
H1142 C1149 0.950 . S
C1143 C1141 1.387 . S
C1143 C1145 1.390 . S
C1143 H1147 0.950 . S
H1144 C1140 0.950 . S
C1145 C1143 1.390 . S
C1145 C1146 1.387 . S
C1145 H1148 0.950 . S
C1146 C1145 1.387 . S
C1146 C1149 1.387 . S
H1147 C1143 0.950 . S
H1148 C1145 0.950 . S
C1149 C1140 1.390 . S
C1149 H1142 0.950 . S
C1149 C1146 1.387 . S
C1150 C1151 1.387 . S
C1150 H1154 0.950 . S
C1150 C1159 1.390 . S
C1151 C1150 1.387 . S
C1151 C1153 1.387 . S
H1152 C1159 0.950 . S
C1153 C1151 1.387 . S
C1153 C1155 1.390 . S
C1153 H1157 0.950 . S
H1154 C1150 0.950 . S
C1155 C1153 1.390 . S
C1155 C1156 1.387 . S
C1155 H1158 0.950 . S
C1156 C1155 1.387 . S
C1156 C1159 1.387 . S
H1157 C1153 0.950 . S
H1158 C1155 0.950 . S
C1159 C1150 1.390 . S
C1159 H1152 0.950 . S
C1159 C1156 1.387 . S
C1160 C1161 1.387 . S
C1160 H1164 0.950 . S
C1160 C1169 1.390 . S
C1161 C1160 1.387 . S
C1161 C1163 1.387 . S
H1162 C1169 0.950 . S
C1163 C1161 1.387 . S
C1163 C1165 1.390 . S
C1163 H1167 0.950 . S
H1164 C1160 0.950 . S
C1165 C1163 1.390 . S
C1165 C1166 1.387 . S
C1165 H1168 0.950 . S
C1166 C1165 1.387 . S
C1166 C1169 1.387 . S
H1167 C1163 0.950 . S
H1168 C1165 0.950 . S
C1169 C1160 1.390 . S
C1169 H1162 0.950 . S
C1169 C1166 1.387 . S
C1170 C1171 1.387 . S
C1170 H1174 0.950 . S
C1170 C1179 1.390 . S
C1171 C1170 1.387 . S
C1171 C1173 1.387 . S
H1172 C1179 0.950 . S
C1173 C1171 1.387 . S
C1173 C1175 1.390 . S
C1173 H1177 0.950 1_554 S
H1174 C1170 0.950 . S
C1175 C1173 1.390 . S
C1175 C1176 1.387 . S
C1175 H1178 0.950 . S
C1176 C1175 1.387 . S
C1176 C1179 1.387 . S
H1177 C1173 0.950 1_556 S
H1178 C1175 0.950 . S
C1179 C1170 1.390 . S
C1179 H1172 0.950 . S
C1179 C1176 1.387 . S
C1180 C1181 1.387 . S
C1180 H1184 0.950 . S
C1180 C1189 1.390 . S
C1181 C1180 1.387 . S
C1181 C1183 1.387 . S
H1182 C1189 0.950 . S
C1183 C1181 1.387 . S
C1183 C1185 1.390 . S
C1183 H1187 0.950 . S
H1184 C1180 0.950 . S
C1185 C1183 1.390 . S
C1185 C1186 1.387 . S
C1185 H1188 0.950 . S
C1186 C1185 1.387 . S
C1186 C1189 1.387 . S
H1187 C1183 0.950 . S
H1188 C1185 0.950 . S
C1189 C1180 1.390 . S
C1189 H1182 0.950 . S
C1189 C1186 1.387 . S
C1190 C1191 1.387 . S
C1190 H1194 0.950 . S
C1190 C1199 1.390 . S
C1191 C1190 1.387 . S
C1191 C1193 1.387 . S
H1192 C1199 0.950 . S
C1193 C1191 1.387 . S
C1193 C1195 1.390 . S
C1193 H1197 0.950 . S
H1194 C1190 0.950 . S
C1195 C1193 1.390 . S
C1195 C1196 1.387 . S
C1195 H1198 0.950 . S
C1196 C1195 1.387 . S
C1196 C1199 1.387 . S
H1197 C1193 0.950 . S
H1198 C1195 0.950 . S
C1199 C1190 1.390 . S
C1199 H1192 0.950 . S
C1199 C1196 1.387 . S
C1200 C1201 1.387 . S
C1200 H1204 0.950 . S
C1200 C1209 1.390 . S
C1201 C1200 1.387 . S
C1201 C1203 1.387 . S
H1202 C1209 0.950 . S
C1203 C1201 1.387 . S
C1203 C1205 1.390 . S
C1203 H1207 0.950 . S
H1204 C1200 0.950 . S
C1205 C1203 1.390 . S
C1205 C1206 1.387 . S
C1205 H1208 0.950 . S
C1206 C1205 1.387 . S
C1206 C1209 1.387 . S
H1207 C1203 0.950 . S
H1208 C1205 0.950 . S
C1209 C1200 1.390 . S
C1209 H1202 0.950 . S
C1209 C1206 1.387 . S
C1210 C1211 1.387 . S
C1210 H1214 0.950 . S
C1210 C1219 1.390 . S
C1211 C1210 1.387 . S
C1211 C1213 1.387 . S
H1212 C1219 0.950 . S
C1213 C1211 1.387 . S
C1213 C1215 1.390 . S
C1213 H1217 0.950 . S
H1214 C1210 0.950 . S
C1215 C1213 1.390 . S
C1215 C1216 1.387 . S
C1215 H1218 0.950 . S
C1216 C1215 1.387 . S
C1216 C1219 1.387 . S
H1217 C1213 0.950 . S
H1218 C1215 0.950 . S
C1219 C1210 1.390 . S
C1219 H1212 0.950 . S
C1219 C1216 1.387 . S
C1220 C1221 1.387 . S
C1220 H1224 0.950 . S
C1220 C1229 1.390 . S
C1221 C1220 1.387 . S
C1221 C1223 1.387 . S
H1222 C1229 0.950 . S
C1223 C1221 1.387 . S
C1223 C1225 1.390 . S
C1223 H1227 0.950 . S
H1224 C1220 0.950 . S
C1225 C1223 1.390 . S
C1225 C1226 1.387 . S
C1225 H1228 0.950 . S
C1226 C1225 1.387 . S
C1226 C1229 1.387 . S
H1227 C1223 0.950 . S
H1228 C1225 0.950 . S
C1229 C1220 1.390 . S
C1229 H1222 0.950 . S
C1229 C1226 1.387 . S
C1230 C1231 1.387 . S
C1230 H1234 0.950 . S
C1230 C1239 1.390 . S
C1231 C1230 1.387 . S
C1231 C1233 1.387 . S
H1232 C1239 0.950 . S
C1233 C1231 1.387 . S
C1233 C1235 1.390 . S
C1233 H1237 0.950 . S
H1234 C1230 0.950 . S
C1235 C1233 1.390 . S
C1235 C1236 1.387 . S
C1235 H1238 0.950 . S
C1236 C1235 1.387 . S
C1236 C1239 1.387 . S
H1237 C1233 0.950 . S
H1238 C1235 0.950 . S
C1239 C1230 1.390 . S
C1239 H1232 0.950 . S
C1239 C1236 1.387 . S
C1240 C1241 1.387 . S
C1240 H1244 0.950 . S
C1240 C1249 1.390 . S
C1241 C1240 1.387 . S
C1241 C1243 1.387 . S
H1242 C1249 0.950 . S
C1243 C1241 1.387 . S
C1243 C1245 1.390 . S
C1243 H1247 0.950 . S
H1244 C1240 0.950 . S
C1245 C1243 1.390 . S
C1245 C1246 1.387 . S
C1245 H1248 0.950 . S
C1246 C1245 1.387 . S
C1246 C1249 1.387 . S
H1247 C1243 0.950 . S
H1248 C1245 0.950 . S
C1249 C1240 1.390 . S
C1249 H1242 0.950 . S
C1249 C1246 1.387 . S
C1250 C1251 1.387 . S
C1250 H1254 0.950 . S
C1250 C1259 1.390 . S
C1251 C1250 1.387 . S
C1251 C1253 1.387 . S
H1252 C1259 0.950 . S
C1253 C1251 1.387 . S
C1253 C1255 1.390 . S
C1253 H1257 0.950 . S
H1254 C1250 0.950 . S
C1255 C1253 1.390 . S
C1255 C1256 1.387 . S
C1255 H1258 0.950 . S
C1256 C1255 1.387 . S
C1256 C1259 1.387 . S
H1257 C1253 0.950 . S
H1258 C1255 0.950 . S
C1259 C1250 1.390 . S
C1259 H1252 0.950 . S
C1259 C1256 1.387 . S
C1260 C1261 1.387 . S
C1260 H1264 0.950 . S
C1260 C1269 1.390 . S
C1261 C1260 1.387 . S
C1261 C1263 1.387 . S
H1262 C1269 0.950 . S
C1263 C1261 1.387 . S
C1263 C1265 1.390 . S
C1263 H1267 0.950 . S
H1264 C1260 0.950 . S
C1265 C1263 1.390 . S
C1265 C1266 1.387 . S
C1265 H1268 0.950 . S
C1266 C1265 1.387 . S
C1266 C1269 1.387 . S
H1267 C1263 0.950 . S
H1268 C1265 0.950 . S
C1269 C1260 1.390 . S
C1269 H1262 0.950 . S
C1269 C1266 1.387 . S
C1270 C1271 1.387 . S
C1270 H1274 0.950 . S
C1270 C1279 1.390 . S
C1271 C1270 1.387 . S
C1271 C1273 1.387 . S
H1272 C1279 0.950 . S
C1273 C1271 1.387 . S
C1273 C1275 1.390 . S
C1273 H1277 0.950 . S
H1274 C1270 0.950 . S
C1275 C1273 1.390 . S
C1275 C1276 1.387 . S
C1275 H1278 0.950 . S
C1276 C1275 1.387 . S
C1276 C1279 1.387 . S
H1277 C1273 0.950 . S
H1278 C1275 0.950 . S
C1279 C1270 1.390 . S
C1279 H1272 0.950 . S
C1279 C1276 1.387 . S
C1280 C1281 1.387 . S
C1280 H1284 0.950 . S
C1280 C1289 1.390 . S
C1281 C1280 1.387 . S
C1281 C1283 1.387 . S
H1282 C1289 0.950 . S
C1283 C1281 1.387 . S
C1283 C1285 1.390 . S
C1283 H1287 0.950 . S
H1284 C1280 0.950 . S
C1285 C1283 1.390 . S
C1285 C1286 1.387 . S
C1285 H1288 0.950 . S
C1286 C1285 1.387 . S
C1286 C1289 1.387 . S
H1287 C1283 0.950 . S
H1288 C1285 0.950 . S
C1289 C1280 1.390 . S
C1289 H1282 0.950 . S
C1289 C1286 1.387 . S
C1290 C1291 1.387 . S
C1290 H1294 0.950 . S
C1290 C1299 1.390 . S
C1291 C1290 1.387 . S
C1291 C1293 1.387 . S
H1292 C1299 0.950 . S
C1293 C1291 1.387 . S
C1293 C1295 1.390 . S
C1293 H1297 0.950 . S
H1294 C1290 0.950 . S
C1295 C1293 1.390 . S
C1295 C1296 1.387 . S
C1295 H1298 0.950 . S
C1296 C1295 1.387 . S
C1296 C1299 1.387 . S
H1297 C1293 0.950 . S
H1298 C1295 0.950 . S
C1299 C1290 1.390 . S
C1299 H1292 0.950 . S
C1299 C1296 1.387 . S
C1300 C1301 1.387 . S
C1300 H1304 0.950 . S
C1300 C1309 1.390 . S
C1301 C1300 1.387 . S
C1301 C1303 1.387 . S
H1302 C1309 0.950 . S
C1303 C1301 1.387 . S
C1303 C1305 1.390 . S
C1303 H1307 0.950 . S
H1304 C1300 0.950 . S
C1305 C1303 1.390 . S
C1305 C1306 1.387 . S
C1305 H1308 0.950 . S
C1306 C1305 1.387 . S
C1306 C1309 1.387 . S
H1307 C1303 0.950 . S
H1308 C1305 0.950 . S
C1309 C1300 1.390 . S
C1309 H1302 0.950 . S
C1309 C1306 1.387 . S
C1310 C1311 1.387 . S
C1310 H1314 0.950 . S
C1310 C1319 1.390 . S
C1311 C1310 1.387 . S
C1311 C1313 1.387 . S
H1312 C1319 0.950 . S
C1313 C1311 1.387 . S
C1313 C1315 1.390 . S
C1313 H1317 0.950 . S
H1314 C1310 0.950 . S
C1315 C1313 1.390 . S
C1315 C1316 1.387 . S
C1315 H1318 0.950 . S
C1316 C1315 1.387 . S
C1316 C1319 1.387 . S
H1317 C1313 0.950 . S
H1318 C1315 0.950 . S
C1319 C1310 1.390 . S
C1319 H1312 0.950 . S
C1319 C1316 1.387 . S
C1320 C1321 1.387 . S
C1320 H1324 0.950 . S
C1320 C1329 1.390 . S
C1321 C1320 1.387 . S
C1321 C1323 1.387 . S
H1322 C1329 0.950 . S
C1323 C1321 1.387 . S
C1323 C1325 1.390 . S
C1323 H1327 0.950 . S
H1324 C1320 0.950 . S
C1325 C1323 1.390 . S
C1325 C1326 1.387 . S
C1325 H1328 0.950 . S
C1326 C1325 1.387 . S
C1326 C1329 1.387 . S
H1327 C1323 0.950 . S
H1328 C1325 0.950 . S
C1329 C1320 1.390 . S
C1329 H1322 0.950 . S
C1329 C1326 1.387 . S
C1330 C1331 1.387 . S
C1330 H1334 0.950 . S
C1330 C1339 1.390 . S
C1331 C1330 1.387 . S
C1331 C1333 1.387 . S
H1332 C1339 0.950 . S
C1333 C1331 1.387 . S
C1333 C1335 1.390 . S
C1333 H1337 0.950 . S
H1334 C1330 0.950 . S
C1335 C1333 1.390 . S
C1335 C1336 1.387 . S
C1335 H1338 0.950 . S
C1336 C1335 1.387 . S
C1336 C1339 1.387 . S
H1337 C1333 0.950 . S
H1338 C1335 0.950 . S
C1339 C1330 1.390 . S
C1339 H1332 0.950 . S
C1339 C1336 1.387 . S
C1340 C1341 1.387 . S
C1340 H1344 0.950 . S
C1340 C1349 1.390 . S
C1341 C1340 1.387 . S
C1341 C1343 1.387 . S
H1342 C1349 0.950 . S
C1343 C1341 1.387 . S
C1343 C1345 1.390 . S
C1343 H1347 0.950 . S
H1344 C1340 0.950 . S
C1345 C1343 1.390 . S
C1345 C1346 1.387 . S
C1345 H1348 0.950 . S
C1346 C1345 1.387 . S
C1346 C1349 1.387 . S
H1347 C1343 0.950 . S
H1348 C1345 0.950 . S
C1349 C1340 1.390 . S
C1349 H1342 0.950 . S
C1349 C1346 1.387 . S
C876 C699 1.433 . S
C871 C74 1.610 . S
C886 C700 1.482 . S
C881 C153 1.441 . S
C896 C694 1.706 . S
C891 C231 1.746 . S
C901 C310 1.130 . S
C906 C693 0.561 . S
C911 C394 1.438 . S
C916 C696 1.481 . S
C926 C698 1.708 . S
C921 C494 1.745 . S
C931 C573 1.131 . S
C936 C697 0.562 . S
C941 C651 1.611 . S
C946 C695 1.434 . S
C956 C730 2.625 . S
C951 C56 2.603 . S
C961 C151 1.692 . S
C966 C761 1.550 . S
C976 C729 1.366 . S
C971 C237 1.266 . S
C986 C764 1.525 . S
C981 C326 1.459 . S
C991 C410 1.736 . S
C996 C727 1.725 . S
C1006 C759 2.610 . S
C1001 C476 2.606 . S
C1011 C571 1.464 . S
C1016 C732 1.330 . S
C1021 C657 1.233 . S
C1026 C766 1.320 . S
C1031 C58 1.228 . S
C1036 C762 1.318 . S
C1041 C392 1.692 . S
C1046 C765 1.548 . S
C1056 C733 1.366 . S
C1051 C478 1.267 . S
C1066 C760 1.526 . S
C1061 C567 1.463 . S
C1071 C655 2.606 . S
C1076 C726 2.626 . S
C1081 C235 2.607 . S
C1086 C763 2.612 . S
C1096 C728 1.331 . S
C1091 C308 1.464 . S
C1101 C147 1.736 . S
C1106 C731 1.723 . S
C1111 C662 1.626 . S
C1116 C798 1.489 . S
C1121 C405 1.280 . S
C1126 C799 1.241 . S
C1136 C793 1.527 . S
C1131 C483 1.555 . S
C1146 C792 0.599 . S
C1141 C562 0.838 . S
C1151 C142 1.280 . S
C1156 C795 1.239 . S
C1166 C797 1.530 . S
C1161 C242 1.554 . S
C1171 C321 0.832 . S
C1176 C796 0.599 . S
C1181 C63 1.627 . S
C1186 C794 1.485 . S
C1191 C644 2.798 . S
C1196 C832 2.724 . S
C1206 C864 1.439 . S
C1201 C403 1.518 . S
C1211 C489 1.116 . S
C1216 C825 1.293 . S
C1221 C578 1.716 . S
C1226 C859 1.684 . S
C1236 C830 1.457 . S
C1231 C158 1.450 . S
C1241 C224 2.843 . S
C1246 C861 2.776 . S
C1256 C827 1.758 . S
C1251 C319 1.819 . S
C1266 C862 1.324 . S
C1261 C69 1.230 . S
C1276 C858 1.324 . S
C1271 C646 1.233 . S
C1281 C140 1.517 . S
C1286 C860 1.433 . S
C1291 C226 1.115 . S
C1296 C829 1.296 . S
C1306 C863 1.688 . S
C1301 C315 1.719 . S
C1311 C67 2.798 . S
C1316 C828 2.721 . S
C1321 C487 2.843 . S
C1326 C865 2.773 . S
C1336 C831 1.758 . S
C1331 C560 1.820 . S
C1346 C826 1.456 . S
C1341 C399 1.447 . S
