# Generated by pormake.
# Topology apo, (3,6)-cn, num edge types: 1
# Building blocks:
#     Node 0, Type 0, BuildingBlock: OLANEW_clean_sbu_2, # of connection points: 3
#     Node 1, Type 0, BuildingBlock: OLANEW_clean_sbu_2, # of connection points: 3
#     Node 2, Type 0, BuildingBlock: OLANEW_clean_sbu_2, # of connection points: 3
#     Node 3, Type 0, BuildingBlock: OLANEW_clean_sbu_2, # of connection points: 3
#     Node 4, Type 0, BuildingBlock: OLANEW_clean_sbu_2, # of connection points: 3
#     Node 5, Type 0, BuildingBlock: OLANEW_clean_sbu_2, # of connection points: 3
#     Node 6, Type 0, BuildingBlock: OLANEW_clean_sbu_2, # of connection points: 3
#     Node 7, Type 0, BuildingBlock: OLANEW_clean_sbu_2, # of connection points: 3
#     Node 8, Type 1, BuildingBlock: KUMJIN_clean_sbu_1, # of connection points: 6
#     Node 9, Type 1, BuildingBlock: KUMJIN_clean_sbu_1, # of connection points: 6
#     Node 10, Type 1, BuildingBlock: KUMJIN_clean_sbu_1, # of connection points: 6
#     Node 11, Type 1, BuildingBlock: KUMJIN_clean_sbu_1, # of connection points: 6
#     Edge 12, Type (0, 1), BuildingBlock: MIFKUJ_clean_linker_0, # of connection points: 2
#     Edge 13, Type (0, 1), BuildingBlock: MIFKUJ_clean_linker_0, # of connection points: 2
#     Edge 14, Type (0, 1), BuildingBlock: MIFKUJ_clean_linker_0, # of connection points: 2
#     Edge 15, Type (0, 1), BuildingBlock: MIFKUJ_clean_linker_0, # of connection points: 2
#     Edge 16, Type (0, 1), BuildingBlock: MIFKUJ_clean_linker_0, # of connection points: 2
#     Edge 17, Type (0, 1), BuildingBlock: MIFKUJ_clean_linker_0, # of connection points: 2
#     Edge 18, Type (0, 1), BuildingBlock: MIFKUJ_clean_linker_0, # of connection points: 2
#     Edge 19, Type (0, 1), BuildingBlock: MIFKUJ_clean_linker_0, # of connection points: 2
#     Edge 20, Type (0, 1), BuildingBlock: MIFKUJ_clean_linker_0, # of connection points: 2
#     Edge 21, Type (0, 1), BuildingBlock: MIFKUJ_clean_linker_0, # of connection points: 2
#     Edge 22, Type (0, 1), BuildingBlock: MIFKUJ_clean_linker_0, # of connection points: 2
#     Edge 23, Type (0, 1), BuildingBlock: MIFKUJ_clean_linker_0, # of connection points: 2
#     Edge 24, Type (0, 1), BuildingBlock: MIFKUJ_clean_linker_0, # of connection points: 2
#     Edge 25, Type (0, 1), BuildingBlock: MIFKUJ_clean_linker_0, # of connection points: 2
#     Edge 26, Type (0, 1), BuildingBlock: MIFKUJ_clean_linker_0, # of connection points: 2
#     Edge 27, Type (0, 1), BuildingBlock: MIFKUJ_clean_linker_0, # of connection points: 2
#     Edge 28, Type (0, 1), BuildingBlock: MIFKUJ_clean_linker_0, # of connection points: 2
#     Edge 29, Type (0, 1), BuildingBlock: MIFKUJ_clean_linker_0, # of connection points: 2
#     Edge 30, Type (0, 1), BuildingBlock: MIFKUJ_clean_linker_0, # of connection points: 2
#     Edge 31, Type (0, 1), BuildingBlock: MIFKUJ_clean_linker_0, # of connection points: 2
#     Edge 32, Type (0, 1), BuildingBlock: MIFKUJ_clean_linker_0, # of connection points: 2
#     Edge 33, Type (0, 1), BuildingBlock: MIFKUJ_clean_linker_0, # of connection points: 2
#     Edge 34, Type (0, 1), BuildingBlock: MIFKUJ_clean_linker_0, # of connection points: 2
#     Edge 35, Type (0, 1), BuildingBlock: MIFKUJ_clean_linker_0, # of connection points: 2
# Relax obj value: 0.029
# Max RMSD: 0.211
# Mean RMSD: 0.128
data_MOF--net-apo--node1-OLANEW_clean_sbu_2--node2-KUMJIN_clean_sbu_1--edge1-MIFKUJ_clean_linker_0
_symmetry_space_group_name_H-M    P1
_symmetry_Int_Tables_number       1
_symmetry_cell_setting            triclinic
loop_
_symmetry_equiv_pos_as_xyz
'x, y, z'
_cell_length_a     36.092682
_cell_length_b     58.051657
_cell_length_c     69.221688
_cell_angle_alpha  89.105521
_cell_angle_beta   90.177011
_cell_angle_gamma 90.26359
loop_
_atom_site_label
_atom_site_type_symbol
_atom_site_fract_x
_atom_site_fract_y
_atom_site_fract_z
_atom_type_partial_charge
O0 O 0.30175 0.38136 0.37633 0.0
Cd1 Cd 0.27671 0.34995 0.39656 0.0
O2 O 0.34882 0.38838 0.39577 0.0
Cd3 Cd 0.33424 0.36461 0.4194 0.0
O4 O 0.33937 0.35587 0.45019 0.0
C5 C 0.37074 0.36028 0.45773 0.0
O6 O 0.39724 0.36846 0.44655 0.0
C7 C 0.33113 0.39261 0.38021 0.0
C8 C 0.23978 0.31635 0.37504 0.0
O9 O 0.22265 0.33405 0.38122 0.0
O10 O 0.27441 0.31457 0.37894 0.0
O11 O 0.22043 0.15034 0.93586 0.0
Cd12 Cd 0.22235 0.14831 0.9005 0.0
O13 O 0.24867 0.11712 0.94018 0.0
Cd14 Cd 0.24936 0.10833 0.90958 0.0
O15 O 0.23472 0.08659 0.88516 0.0
C16 C 0.20683 0.09158 0.87468 0.0
O17 O 0.18878 0.11072 0.87797 0.0
C18 C 0.23386 0.13499 0.94716 0.0
C19 C 0.26842 0.18105 0.88257 0.0
O20 O 0.23466 0.18573 0.88659 0.0
O21 O 0.28056 0.16101 0.88728 0.0
O22 O 0.81026 0.1224 0.62143 0.0
Cd23 Cd 0.79182 0.15435 0.59996 0.0
O24 O 0.86895 0.12471 0.61301 0.0
Cd25 Cd 0.85988 0.1474 0.58793 0.0
O26 O 0.86611 0.1529 0.55671 0.0
C27 C 0.87507 0.13491 0.54761 0.0
O28 O 0.8789 0.11549 0.5574 0.0
C29 C 0.84365 0.11589 0.62356 0.0
C30 C 0.75636 0.18933 0.62015 0.0
O31 O 0.73792 0.17262 0.6129 0.0
O32 O 0.79158 0.18954 0.61783 0.0
O33 O 0.73317 0.35229 0.06248 0.0
Cd34 Cd 0.74364 0.35842 0.09695 0.0
O35 O 0.7589 0.38501 0.0531 0.0
Cd36 Cd 0.7631 0.39798 0.08243 0.0
O37 O 0.74725 0.42066 0.10585 0.0
C38 C 0.71575 0.4177 0.11369 0.0
O39 O 0.69496 0.40033 0.10822 0.0
C40 C 0.74356 0.36594 0.04898 0.0
C41 C 0.78281 0.32202 0.11404 0.0
O42 O 0.7475 0.32114 0.11212 0.0
O43 O 0.7997 0.34015 0.10789 0.0
O44 O 0.7102 0.61143 0.62763 0.0
Cd45 Cd 0.73528 0.64154 0.60613 0.0
O46 O 0.72664 0.58411 0.60777 0.0
Cd47 Cd 0.73983 0.60719 0.5836 0.0
O48 O 0.7239 0.6144 0.55371 0.0
C49 C 0.68923 0.61389 0.55045 0.0
O50 O 0.66661 0.61078 0.56511 0.0
C51 C 0.71294 0.59014 0.6238 0.0
C52 C 0.77349 0.67595 0.62589 0.0
O53 O 0.73915 0.67826 0.62153 0.0
O54 O 0.78969 0.65733 0.62102 0.0
O55 O 0.81585 0.88053 0.12499 0.0
Cd56 Cd 0.79135 0.84919 0.10529 0.0
O57 O 0.78147 0.90681 0.11043 0.0
Cd58 Cd 0.76671 0.88453 0.08641 0.0
O59 O 0.77579 0.87737 0.05585 0.0
C60 C 0.80882 0.88067 0.05007 0.0
O61 O 0.83409 0.88668 0.06276 0.0
C62 C 0.8044 0.9012 0.12365 0.0
C63 C 0.75128 0.81668 0.12712 0.0
O64 O 0.78623 0.81451 0.12451 0.0
O65 O 0.73528 0.83427 0.11948 0.0
O66 O 0.23772 0.89338 0.37187 0.0
Cd67 Cd 0.27108 0.86823 0.39462 0.0
O68 O 0.20319 0.90905 0.39428 0.0
Cd69 Cd 0.22243 0.889 0.4193 0.0
O70 O 0.21561 0.87972 0.44984 0.0
C71 C 0.18227 0.87814 0.45561 0.0
O72 O 0.15544 0.88113 0.44295 0.0
C73 C 0.21292 0.90766 0.3767 0.0
C74 C 0.30581 0.83196 0.37585 0.0
O75 O 0.27417 0.82908 0.38392 0.0
O76 O 0.32102 0.85191 0.37668 0.0
O77 O 0.29536 0.60879 0.87002 0.0
Cd78 Cd 0.27084 0.63974 0.89001 0.0
O79 O 0.3325 0.59679 0.89338 0.0
Cd80 Cd 0.3147 0.61915 0.91659 0.0
O81 O 0.31748 0.62758 0.94722 0.0
C82 C 0.31672 0.61078 0.95923 0.0
O83 O 0.31256 0.5898 0.95268 0.0
C84 C 0.32061 0.59526 0.87613 0.0
C85 C 0.22709 0.67174 0.86973 0.0
O86 O 0.26253 0.67325 0.86966 0.0
O87 O 0.21224 0.65494 0.87918 0.0
Eu88 Eu 0.06221 0.12054 0.22184 0.0
C89 C 0.89033 0.11056 0.25057 0.0
N90 N 0.91425 0.12844 0.2529 0.0
C91 C 0.86491 0.15544 0.24836 0.0
C92 C 0.85248 0.11453 0.24677 0.0
C93 C 0.90222 0.15065 0.252 0.0
C94 C 0.83993 0.13729 0.24571 0.0
C95 C 0.87934 0.06927 0.25016 0.0
C96 C 0.90356 0.08819 0.25233 0.0
C97 C 0.84175 0.07317 0.24603 0.0
C98 C 0.82834 0.09573 0.24439 0.0
Eu99 Eu 0.97638 0.11884 0.25935 0.0
N100 N 0.94021 0.08495 0.25611 0.0
C101 C 0.8936 0.04699 0.25231 0.0
C102 C 0.95391 0.06327 0.25905 0.0
C103 C 0.93097 0.044 0.25692 0.0
H104 H 0.92131 0.16462 0.25468 0.0
H105 H 0.94211 0.02685 0.2589 0.0
H106 H 0.13049 0.09264 0.24476 0.0
H107 H 0.05028 0.21221 0.20214 0.0
H108 H 0.98254 0.06073 0.26283 0.0
H109 H 0.87591 0.03201 0.25067 0.0
H110 H 0.03406 0.17119 0.20089 0.0
H111 H 0.85544 0.17309 0.24784 0.0
H112 H 0.82276 0.05884 0.24424 0.0
H113 H 0.79919 0.09846 0.24138 0.0
H114 H 0.19041 0.10166 0.26047 0.0
H115 H 0.81095 0.14097 0.24311 0.0
H116 H 0.10545 0.22471 0.22052 0.0
N117 N 0.11872 0.12759 0.23776 0.0
C118 C 0.13054 0.14987 0.23795 0.0
C119 C 0.1737 0.11536 0.25434 0.0
C120 C 0.16428 0.1558 0.24696 0.0
C121 C 0.1398 0.11031 0.24551 0.0
C122 C 0.1859 0.1382 0.25517 0.0
N123 N 0.07586 0.16059 0.22084 0.0
C124 C 0.0564 0.17641 0.21017 0.0
C125 C 0.11957 0.19012 0.22998 0.0
C126 C 0.10819 0.16684 0.22961 0.0
C127 C 0.09766 0.20667 0.22057 0.0
C128 C 0.06633 0.1997 0.21031 0.0
H129 H 0.21203 0.14207 0.26218 0.0
H130 H 0.20073 0.18394 0.25478 0.0
H131 H 0.16171 0.21395 0.23987 0.0
O132 O 0.0742 0.1278 0.19127 0.0
O133 O 0.06823 0.13038 0.25351 0.0
O134 O 0.01444 0.1495 0.25747 0.0
O135 O 0.10351 0.10072 0.20632 0.0
O136 O 0.00632 0.13472 0.21185 0.0
O137 O 0.98323 0.15004 0.23972 0.0
O138 O 0.99262 0.11176 0.28931 0.0
O139 O 0.96634 0.09994 0.23138 0.0
O140 O 0.02285 0.09048 0.21746 0.0
O141 O 0.94472 0.13283 0.28332 0.0
O142 O 0.02479 0.0948 0.26572 0.0
O143 O 0.0594 0.08672 0.23823 0.0
C144 C 0.04943 0.14684 0.26165 0.0
C145 C 0.1358 0.12062 0.18139 0.0
C146 C 0.17204 0.12845 0.15225 0.0
C147 C 0.20308 0.13324 0.16384 0.0
C148 C 0.16718 0.12555 0.19268 0.0
C149 C 0.20051 0.13193 0.18392 0.0
C150 C 0.13827 0.12237 0.16114 0.0
C151 C 0.98326 0.14848 0.22079 0.0
C152 C 0.10083 0.11284 0.19043 0.0
C153 C 0.1751 0.17902 0.24773 0.0
C154 C 0.15278 0.19613 0.23931 0.0
C155 C 0.98691 0.0876 0.21983 0.0
C156 C 0.94338 0.10982 0.31159 0.0
C157 C 0.92493 0.10481 0.3453 0.0
C158 C 0.90372 0.08546 0.3401 0.0
C159 C 0.92206 0.09048 0.30677 0.0
C160 C 0.94463 0.11705 0.33087 0.0
C161 C 0.90233 0.0784 0.32096 0.0
C162 C 0.0487 0.08222 0.25609 0.0
C163 C 0.96433 0.12245 0.2966 0.0
H164 H 0.2293 0.13808 0.15733 0.0
H165 H 0.16625 0.12419 0.20822 0.0
H166 H 0.22456 0.13565 0.19275 0.0
H167 H 0.11428 0.11837 0.15232 0.0
H168 H 0.88783 0.07592 0.35082 0.0
H169 H 0.92058 0.08469 0.29209 0.0
H170 H 0.9613 0.13191 0.33464 0.0
H171 H 0.88585 0.06353 0.31709 0.0
Eu172 Eu 0.47735 0.37128 0.73824 0.0
C173 C 0.64898 0.37146 0.76367 0.0
N174 N 0.62045 0.35736 0.7687 0.0
C175 C 0.6588 0.32428 0.76421 0.0
C176 C 0.68331 0.36245 0.75784 0.0
C177 C 0.62551 0.33412 0.77019 0.0
C178 C 0.68759 0.33849 0.7576 0.0
C179 C 0.6751 0.40999 0.76322 0.0
C180 C 0.64492 0.39486 0.76623 0.0
C181 C 0.70863 0.40133 0.75616 0.0
C182 C 0.71271 0.37758 0.75343 0.0
Eu183 Eu 0.5641 0.37529 0.77698 0.0
N184 N 0.61234 0.40258 0.77327 0.0
C185 C 0.67109 0.43315 0.76821 0.0
C186 C 0.60912 0.42469 0.77948 0.0
C187 C 0.63821 0.44037 0.7768 0.0
H188 H 0.60342 0.32314 0.77556 0.0
H189 H 0.63531 0.4579 0.78156 0.0
H190 H 0.40045 0.38507 0.76145 0.0
H191 H 0.51431 0.28783 0.70731 0.0
H192 H 0.58366 0.43025 0.78614 0.0
H193 H 0.69364 0.44532 0.7662 0.0
H194 H 0.51457 0.33006 0.7094 0.0
H195 H 0.66227 0.30577 0.76477 0.0
H196 H 0.73198 0.41271 0.75346 0.0
H197 H 0.73917 0.37102 0.74869 0.0
H198 H 0.34754 0.36553 0.77776 0.0
H199 H 0.71348 0.33086 0.75317 0.0
H200 H 0.47135 0.26466 0.72751 0.0
N201 N 0.4258 0.35378 0.75334 0.0
C202 C 0.42344 0.33048 0.7528 0.0
C203 C 0.36877 0.35547 0.77086 0.0
C204 C 0.39414 0.31859 0.76205 0.0
C205 C 0.39857 0.36647 0.76163 0.0
C206 C 0.36677 0.3314 0.77128 0.0
N207 N 0.47649 0.33083 0.73287 0.0
C208 C 0.49751 0.32019 0.71929 0.0
C209 C 0.4476 0.29443 0.74118 0.0
C210 C 0.45001 0.31862 0.74259 0.0
C211 C 0.47228 0.2832 0.72901 0.0
C212 C 0.49667 0.29622 0.71763 0.0
H213 H 0.34383 0.32291 0.77856 0.0
H214 H 0.37089 0.28495 0.76882 0.0
H215 H 0.41769 0.26377 0.75052 0.0
O216 O 0.44966 0.3655 0.71051 0.0
O217 O 0.47414 0.36321 0.77052 0.0
O218 O 0.52768 0.34386 0.77504 0.0
O219 O 0.43937 0.3967 0.72588 0.0
O220 O 0.53509 0.36277 0.72755 0.0
O221 O 0.5568 0.3467 0.75546 0.0
O222 O 0.53987 0.37196 0.80591 0.0
O223 O 0.55895 0.40535 0.75575 0.0
O224 O 0.52517 0.39417 0.7285 0.0
O225 O 0.59917 0.37322 0.80259 0.0
O226 O 0.52006 0.40301 0.78044 0.0
O227 O 0.4721 0.40221 0.75734 0.0
C228 C 0.49244 0.34616 0.77863 0.0
C229 C 0.43941 0.39917 0.69158 0.0
C230 C 0.4393 0.40078 0.65627 0.0
C231 C 0.4507 0.42395 0.65691 0.0
C232 C 0.44977 0.42254 0.69183 0.0
C233 C 0.45569 0.43474 0.67459 0.0
C234 C 0.43368 0.38848 0.6737 0.0
C235 C 0.56003 0.35048 0.73686 0.0
C236 C 0.43464 0.38579 0.70979 0.0
C237 C 0.3929 0.29443 0.7616 0.0
C238 C 0.41963 0.28237 0.75123 0.0
C239 C 0.54846 0.40789 0.73759 0.0
C240 C 0.57664 0.34963 0.82739 0.0
C241 C 0.60098 0.33351 0.85757 0.0
C242 C 0.59423 0.31126 0.85059 0.0
C243 C 0.56975 0.3273 0.82076 0.0
C244 C 0.592 0.35268 0.8458 0.0
C245 C 0.5783 0.30822 0.83239 0.0
C246 C 0.48914 0.41104 0.77247 0.0
C247 C 0.57189 0.36963 0.81444 0.0
H248 H 0.45492 0.43387 0.64371 0.0
H249 H 0.45322 0.43145 0.70532 0.0
H250 H 0.46395 0.45268 0.67494 0.0
H251 H 0.42525 0.37054 0.67335 0.0
H252 H 0.60199 0.2962 0.85905 0.0
H253 H 0.55876 0.32464 0.80641 0.0
H254 H 0.5974 0.36998 0.85083 0.0
H255 H 0.57327 0.29101 0.82714 0.0
Eu256 Eu 0.03726 0.88545 0.73481 0.0
C257 C 0.86979 0.86357 0.74766 0.0
N258 N 0.88763 0.88381 0.75109 0.0
C259 C 0.83902 0.90489 0.7353 0.0
C260 C 0.8359 0.86329 0.73746 0.0
C261 C 0.87266 0.90434 0.74535 0.0
C262 C 0.82061 0.88429 0.73128 0.0
C263 C 0.8689 0.82176 0.74969 0.0
C264 C 0.88628 0.843 0.75367 0.0
C265 C 0.83513 0.82146 0.73956 0.0
C266 C 0.81869 0.84215 0.73348 0.0
Eu267 Eu 0.94486 0.88109 0.76742 0.0
N268 N 0.91974 0.84372 0.76286 0.0
C269 C 0.88607 0.8014 0.75591 0.0
C270 C 0.93543 0.82396 0.7699 0.0
C271 C 0.91923 0.80254 0.76627 0.0
H272 H 0.88643 0.92033 0.74871 0.0
H273 H 0.93217 0.78691 0.77163 0.0
H274 H 0.1018 0.85339 0.75673 0.0
H275 H 0.03893 0.97812 0.71758 0.0
H276 H 0.96 0.82447 0.77865 0.0
H277 H 0.87368 0.78475 0.75307 0.0
H278 H 0.01881 0.93796 0.71413 0.0
H279 H 0.82732 0.92118 0.73064 0.0
H280 H 0.82157 0.80529 0.73629 0.0
H281 H 0.79273 0.8416 0.72559 0.0
H282 H 0.16044 0.85871 0.77463 0.0
H283 H 0.79464 0.88478 0.72339 0.0
H284 H 0.09277 0.98732 0.7383 0.0
N285 N 0.09407 0.88907 0.75138 0.0
C286 C 0.10797 0.91074 0.75317 0.0
C287 C 0.14583 0.87351 0.76885 0.0
C288 C 0.14122 0.91465 0.76339 0.0
C289 C 0.11258 0.87051 0.75878 0.0
C290 C 0.16008 0.89569 0.77131 0.0
N291 N 0.05648 0.92468 0.73519 0.0
C292 C 0.04031 0.94178 0.7244 0.0
C293 C 0.10212 0.95175 0.74675 0.0
C294 C 0.08834 0.92906 0.7451 0.0
C295 C 0.08313 0.96967 0.73738 0.0
C296 C 0.05257 0.96457 0.72579 0.0
H297 H 0.18572 0.89797 0.77926 0.0
H298 H 0.17965 0.94067 0.77347 0.0
H299 H 0.14562 0.97311 0.75876 0.0
O300 O 0.04439 0.89114 0.70374 0.0
O301 O 0.04025 0.89528 0.76654 0.0
O302 O 0.98356 0.91131 0.77231 0.0
O303 O 0.08172 0.86852 0.71912 0.0
O304 O 0.98476 0.90412 0.72478 0.0
O305 O 0.95596 0.91548 0.7528 0.0
O306 O 0.93906 0.87248 0.79814 0.0
O307 O 0.94257 0.87003 0.73607 0.0
O308 O 0.9997 0.85452 0.73106 0.0
O309 O 0.90049 0.89591 0.78446 0.0
O310 O 0.99521 0.86048 0.7778 0.0
O311 O 0.02982 0.85141 0.75074 0.0
C312 C 0.01948 0.91045 0.77517 0.0
C313 C 0.06574 0.85884 0.68718 0.0
C314 C 0.07104 0.84772 0.65347 0.0
C315 C 0.05138 0.82733 0.65774 0.0
C316 C 0.04684 0.83814 0.69124 0.0
C317 C 0.03953 0.82255 0.67656 0.0
C318 C 0.07814 0.86347 0.66831 0.0
C319 C 0.96295 0.91817 0.73427 0.0
C320 C 0.07089 0.87615 0.70228 0.0
C321 C 0.15436 0.93728 0.76551 0.0
C322 C 0.13485 0.95577 0.75722 0.0
C323 C 0.96397 0.85495 0.72785 0.0
C324 C 0.91634 0.90278 0.81681 0.0
C325 C 0.91033 0.91089 0.85108 0.0
C326 C 0.92591 0.93279 0.84769 0.0
C327 C 0.93216 0.92467 0.81373 0.0
C328 C 0.90532 0.89595 0.83548 0.0
C329 C 0.93676 0.93962 0.82912 0.0
C330 C 0.02032 0.84795 0.76895 0.0
C331 C 0.91196 0.88685 0.80069 0.0
H332 H 0.04563 0.81494 0.64656 0.0
H333 H 0.03765 0.83406 0.70573 0.0
H334 H 0.02464 0.80673 0.67977 0.0
H335 H 0.09262 0.87947 0.6651 0.0
H336 H 0.92922 0.94468 0.85944 0.0
H337 H 0.94077 0.93024 0.79944 0.0
H338 H 0.89347 0.87896 0.83791 0.0
H339 H 0.94871 0.95653 0.82663 0.0
Eu340 Eu 0.4655 0.61769 0.23265 0.0
C341 C 0.63071 0.62659 0.26233 0.0
N342 N 0.60822 0.60785 0.26383 0.0
C343 C 0.6585 0.58325 0.25527 0.0
C344 C 0.66787 0.62445 0.25639 0.0
C345 C 0.62194 0.58626 0.26125 0.0
C346 C 0.68143 0.60246 0.25249 0.0
C347 C 0.6403 0.66742 0.26754 0.0
C348 C 0.61718 0.64779 0.26784 0.0
C349 C 0.67676 0.66561 0.26071 0.0
C350 C 0.69052 0.64417 0.25515 0.0
Eu351 Eu 0.54643 0.61469 0.27321 0.0
N352 N 0.58174 0.64903 0.27423 0.0
C353 C 0.62639 0.6881 0.27465 0.0
C354 C 0.56884 0.66867 0.28246 0.0
C355 C 0.5907 0.68863 0.28244 0.0
H356 H 0.60487 0.57131 0.26417 0.0
H357 H 0.58008 0.70435 0.28848 0.0
H358 H 0.39916 0.63901 0.26045 0.0
H359 H 0.46872 0.53696 0.19261 0.0
H360 H 0.54131 0.66899 0.28854 0.0
H361 H 0.64335 0.70354 0.27472 0.0
H362 H 0.48954 0.57582 0.20123 0.0
H363 H 0.66903 0.56607 0.25312 0.0
H364 H 0.69482 0.68056 0.26014 0.0
H365 H 0.71901 0.64291 0.2504 0.0
H366 H 0.33877 0.62677 0.27419 0.0
H367 H 0.70988 0.60006 0.24804 0.0
H368 H 0.4117 0.52058 0.20713 0.0
N369 N 0.40859 0.60709 0.24677 0.0
C370 C 0.39474 0.58612 0.24204 0.0
C371 C 0.35436 0.61512 0.2653 0.0
C372 C 0.36039 0.57847 0.24943 0.0
C373 C 0.38854 0.62196 0.25762 0.0
C374 C 0.34036 0.5932 0.26133 0.0
N375 N 0.44742 0.58058 0.22226 0.0
C376 C 0.46587 0.5685 0.20855 0.0
C377 C 0.40118 0.55053 0.22451 0.0
C378 C 0.41502 0.57234 0.22973 0.0
C379 C 0.42135 0.53745 0.21143 0.0
C380 C 0.45362 0.5466 0.20326 0.0
H381 H 0.31386 0.58794 0.26729 0.0
H382 H 0.32065 0.55038 0.2501 0.0
H383 H 0.35594 0.52624 0.22789 0.0
O384 O 0.43978 0.6196 0.20374 0.0
O385 O 0.45727 0.60039 0.26217 0.0
O386 O 0.51231 0.58268 0.26816 0.0
O387 O 0.43855 0.64929 0.22286 0.0
O388 O 0.5196 0.60119 0.22324 0.0
O389 O 0.54541 0.58563 0.2513 0.0
O390 O 0.5291 0.61759 0.30318 0.0
O391 O 0.54433 0.64495 0.25192 0.0
O392 O 0.52175 0.63104 0.22325 0.0
O393 O 0.58037 0.60043 0.29674 0.0
O394 O 0.49206 0.63183 0.28067 0.0
O395 O 0.47132 0.64843 0.25219 0.0
C396 C 0.47603 0.58238 0.26823 0.0
C397 C 0.40834 0.65431 0.1917 0.0
C398 C 0.38516 0.65992 0.15875 0.0
C399 C 0.36919 0.68084 0.16432 0.0
C400 C 0.39226 0.67532 0.19687 0.0
C401 C 0.37273 0.68843 0.18325 0.0
C402 C 0.40452 0.6466 0.17262 0.0
C403 C 0.54219 0.58676 0.23229 0.0
C404 C 0.42916 0.64075 0.20626 0.0
C405 C 0.34696 0.55659 0.24455 0.0
C406 C 0.36722 0.54273 0.23205 0.0
C407 C 0.54425 0.64439 0.233 0.0
C408 C 0.54839 0.58856 0.32491 0.0
C409 C 0.55226 0.57582 0.35855 0.0
C410 C 0.52912 0.557 0.35428 0.0
C411 C 0.52567 0.56961 0.32078 0.0
C412 C 0.56173 0.59153 0.34371 0.0
C413 C 0.51607 0.55389 0.33544 0.0
C414 C 0.47496 0.64834 0.27107 0.0
C415 C 0.5571 0.6061 0.31013 0.0
H416 H 0.35363 0.69128 0.15407 0.0
H417 H 0.39465 0.68162 0.21147 0.0
H418 H 0.36028 0.70454 0.18738 0.0
H419 H 0.41726 0.63055 0.16847 0.0
H420 H 0.52144 0.5446 0.36544 0.0
H421 H 0.51519 0.56714 0.30632 0.0
H422 H 0.5788 0.60644 0.34687 0.0
H423 H 0.49835 0.53934 0.33222 0.0
H424 H 0.15768 0.93877 0.38226 0.0
H425 H 0.1299 0.96496 0.3586 0.0
H426 H 0.20042 0.93801 0.31421 0.0
H427 H 0.22888 0.91172 0.33797 0.0
H428 H 0.19845 0.98503 0.31325 0.0
H429 H 0.10972 0.92379 0.31484 0.0
H430 H 0.06765 0.89524 0.32996 0.0
H431 H 0.00454 0.9497 0.35495 0.0
H432 H 0.04654 0.97858 0.34021 0.0
H433 H 0.09868 0.05095 0.24225 0.0
H434 H 0.12624 0.01827 0.25969 0.0
H435 H 0.06331 0.03503 0.3104 0.0
H436 H 0.0354 0.06746 0.29316 0.0
H437 H 0.06219 0.98945 0.30426 0.0
H438 H 0.15459 0.04982 0.30684 0.0
H439 H 0.19665 0.07914 0.29282 0.0
H440 H 0.25225 0.02694 0.26071 0.0
H441 H 0.2103 0.9973 0.27449 0.0
C442 C 0.16728 0.93827 0.36747 0.0
C443 C 0.1955 0.92307 0.36203 0.0
C444 C 0.15119 0.95321 0.35392 0.0
C445 C 0.16273 0.95323 0.33458 0.0
C446 C 0.191 0.93819 0.32905 0.0
C447 C 0.20715 0.92315 0.34264 0.0
C448 C 0.1458 0.96953 0.32042 0.0
C449 C 0.16872 0.98568 0.31095 0.0
C450 C 0.10695 0.97067 0.31771 0.0
C451 C 0.08145 0.95335 0.32651 0.0
C452 C 0.08702 0.92968 0.32367 0.0
C453 C 0.06316 0.91343 0.33215 0.0
C454 C 0.03348 0.92065 0.34343 0.0
C455 C 0.02755 0.94413 0.34621 0.0
C456 C 0.05135 0.96045 0.33777 0.0
C457 C 0.09064 0.04769 0.25711 0.0
C458 C 0.06497 0.06201 0.26631 0.0
C459 C 0.10649 0.02901 0.26706 0.0
C460 C 0.09708 0.02434 0.2864 0.0
C461 C 0.07096 0.0383 0.29548 0.0
C462 C 0.05515 0.05694 0.28558 0.0
C463 C 0.11476 0.00521 0.29744 0.0
C464 C 0.09197 0.98854 0.30632 0.0
C465 C 0.15367 0.00368 0.29969 0.0
C466 C 0.17908 0.0214 0.29152 0.0
C467 C 0.17564 0.04462 0.29669 0.0
C468 C 0.19948 0.06129 0.28881 0.0
C469 C 0.227 0.05493 0.27581 0.0
C470 C 0.23086 0.03185 0.27075 0.0
C471 C 0.20711 0.0151 0.27861 0.0
H472 H 0.2454 0.06787 0.2697 0.0
H473 H 0.01504 0.90805 0.34999 0.0
H474 H 0.29844 0.58303 0.83956 0.0
H475 H 0.32602 0.55358 0.81904 0.0
H476 H 0.40686 0.5385 0.86342 0.0
H477 H 0.37983 0.56768 0.88385 0.0
H478 H 0.4384 0.54255 0.82778 0.0
H479 H 0.33317 0.50368 0.85718 0.0
H480 H 0.2669 0.49856 0.8648 0.0
H481 H 0.24109 0.49578 0.80427 0.0
H482 H 0.3072 0.5012 0.7963 0.0
H483 H 0.51027 0.43338 0.8054 0.0
H484 H 0.48111 0.4667 0.81994 0.0
H485 H 0.40118 0.46943 0.7735 0.0
H486 H 0.42959 0.43582 0.75904 0.0
H487 H 0.3673 0.4741 0.80656 0.0
H488 H 0.47254 0.5096 0.77687 0.0
H489 H 0.5382 0.51622 0.76868 0.0
H490 H 0.56386 0.52642 0.82857 0.0
H491 H 0.49841 0.51963 0.83714 0.0
C492 C 0.32211 0.57345 0.84491 0.0
C493 C 0.33684 0.57769 0.86337 0.0
C494 C 0.33775 0.5566 0.83321 0.0
C495 C 0.36839 0.5438 0.83976 0.0
C496 C 0.38329 0.5482 0.85806 0.0
C497 C 0.36764 0.56486 0.86976 0.0
C498 C 0.3852 0.52566 0.82778 0.0
C499 C 0.42297 0.52748 0.82324 0.0
C500 C 0.36474 0.5064 0.82135 0.0
C501 C 0.32504 0.50312 0.82615 0.0
C502 C 0.31331 0.50218 0.8455 0.0
C503 C 0.2758 0.49918 0.84988 0.0
C504 C 0.24978 0.49692 0.83503 0.0
C505 C 0.26126 0.49759 0.81576 0.0
C506 C 0.29874 0.50061 0.8113 0.0
C507 C 0.48661 0.44109 0.79819 0.0
C508 C 0.47233 0.43181 0.78103 0.0
C509 C 0.47007 0.46028 0.80648 0.0
C510 C 0.43919 0.47079 0.7977 0.0
C511 C 0.42499 0.46165 0.78054 0.0
C512 C 0.44137 0.4424 0.77228 0.0
C513 C 0.42086 0.49071 0.80686 0.0
C514 C 0.38277 0.48925 0.81087 0.0
C515 C 0.44101 0.5104 0.81271 0.0
C516 C 0.48058 0.51394 0.80766 0.0
C517 C 0.49224 0.51303 0.78831 0.0
C518 C 0.52942 0.51687 0.7836 0.0
C519 C 0.55519 0.52172 0.79811 0.0
C520 C 0.54387 0.52267 0.81735 0.0
C521 C 0.50672 0.51885 0.82214 0.0
H522 H 0.58393 0.52485 0.79446 0.0
H523 H 0.22075 0.4946 0.83845 0.0
H524 H 0.71597 0.54343 0.62001 0.0
H525 H 0.68692 0.51401 0.64048 0.0
H526 H 0.64637 0.5666 0.67822 0.0
H527 H 0.67581 0.59631 0.65788 0.0
H528 H 0.67208 0.52998 0.69851 0.0
H529 H 0.58901 0.54273 0.64554 0.0
H530 H 0.57087 0.54639 0.61126 0.0
H531 H 0.6025 0.47623 0.60197 0.0
H532 H 0.62135 0.47225 0.63614 0.0
H533 H 0.5119 0.44036 0.71652 0.0
H534 H 0.53856 0.47306 0.6984 0.0
H535 H 0.6482 0.45146 0.71576 0.0
H536 H 0.62125 0.41878 0.73356 0.0
H537 H 0.58326 0.4754 0.66877 0.0
H538 H 0.70513 0.49883 0.72003 0.0
H539 H 0.72036 0.49822 0.75479 0.0
H540 H 0.60462 0.49926 0.7687 0.0
H541 H 0.58862 0.50062 0.73409 0.0
C542 C 0.70113 0.54881 0.63274 0.0
C543 C 0.69802 0.57228 0.63723 0.0
C544 C 0.68437 0.53193 0.64437 0.0
C545 C 0.66393 0.53814 0.66067 0.0
C546 C 0.66187 0.56146 0.66563 0.0
C547 C 0.67871 0.57841 0.65399 0.0
C548 C 0.64431 0.52026 0.67231 0.0
C549 C 0.65266 0.51802 0.69204 0.0
C550 C 0.61842 0.50497 0.66391 0.0
C551 C 0.60689 0.50726 0.64337 0.0
C552 C 0.59235 0.52813 0.63616 0.0
C553 C 0.5819 0.53026 0.61675 0.0
C554 C 0.58561 0.51157 0.60444 0.0
C555 C 0.59968 0.4907 0.61152 0.0
C556 C 0.61022 0.48849 0.63091 0.0
C557 C 0.54162 0.4426 0.71627 0.0
C558 C 0.56456 0.42731 0.72654 0.0
C559 C 0.55687 0.4613 0.70605 0.0
C560 C 0.59539 0.46497 0.70596 0.0
C561 C 0.61837 0.44937 0.716 0.0
C562 C 0.60302 0.43076 0.72625 0.0
C563 C 0.61159 0.48474 0.69497 0.0
C564 C 0.60264 0.48733 0.67531 0.0
C565 C 0.63652 0.50055 0.70353 0.0
C566 C 0.6457 0.49965 0.72443 0.0
C567 C 0.68291 0.49909 0.73051 0.0
C568 C 0.69168 0.49871 0.75019 0.0
C569 C 0.66346 0.49894 0.76394 0.0
C570 C 0.62642 0.4994 0.75804 0.0
C571 C 0.61748 0.4999 0.73839 0.0
H572 H 0.67028 0.49859 0.77918 0.0
H573 H 0.57751 0.51325 0.58941 0.0
H574 H 0.86773 0.89919 0.14537 0.0
H575 H 0.89706 0.93042 0.16308 0.0
H576 H 0.80531 0.975 0.14866 0.0
H577 H 0.77663 0.94407 0.13023 0.0
H578 H 0.86523 0.99714 0.14227 0.0
H579 H 0.82175 0.95218 0.19588 0.0
H580 H 0.81251 0.91736 0.21618 0.0
H581 H 0.93008 0.91167 0.22448 0.0
H582 H 0.94007 0.9463 0.20401 0.0
H583 H 0.91458 0.08525 0.20865 0.0
H584 H 0.88258 0.05286 0.19363 0.0
H585 H 0.98453 0.01441 0.19351 0.0
H586 H 0.01688 0.04687 0.20851 0.0
H587 H 0.91904 0.98967 0.2081 0.0
H588 H 0.96009 0.03561 0.15328 0.0
H589 H 0.96618 0.07172 0.1343 0.0
H590 H 0.84775 0.07665 0.13007 0.0
H591 H 0.84096 0.04072 0.14928 0.0
C592 C 0.85353 0.91554 0.1462 0.0
C593 C 0.81987 0.91916 0.13637 0.0
C594 C 0.87029 0.9334 0.15641 0.0
C595 C 0.85331 0.95509 0.1574 0.0
C596 C 0.81908 0.95848 0.14808 0.0
C597 C 0.80262 0.94074 0.1376 0.0
C598 C 0.87222 0.97463 0.16711 0.0
C599 C 0.87642 0.99552 0.15679 0.0
C600 C 0.88754 0.97255 0.18594 0.0
C601 C 0.88167 0.95171 0.19825 0.0
C602 C 0.84566 0.9434 0.20191 0.0
C603 C 0.84028 0.92371 0.21347 0.0
C604 C 0.8707 0.91227 0.22157 0.0
C605 C 0.90655 0.92053 0.21817 0.0
C606 C 0.91208 0.9402 0.20661 0.0
C607 C 0.93023 0.06994 0.20535 0.0
C608 C 0.96828 0.06861 0.20963 0.0
C609 C 0.91192 0.05148 0.19678 0.0
C610 C 0.93126 0.03131 0.19246 0.0
C611 C 0.96919 0.02987 0.19677 0.0
C612 C 0.98767 0.04847 0.20514 0.0
C613 C 0.91184 0.01185 0.1832 0.0
C614 C 0.90764 0.9911 0.19361 0.0
C615 C 0.89597 0.01413 0.1646 0.0
C616 C 0.90002 0.0356 0.15287 0.0
C617 C 0.93535 0.04449 0.14843 0.0
C618 C 0.93893 0.06491 0.13761 0.0
C619 C 0.90737 0.0765 0.13102 0.0
C620 C 0.87217 0.06766 0.1352 0.0
C621 C 0.86844 0.04726 0.14604 0.0
H622 H 0.9102 0.09231 0.12265 0.0
H623 H 0.86648 0.89704 0.23052 0.0
H624 H 0.91194 0.10448 0.63771 0.0
H625 H 0.92831 0.07123 0.65794 0.0
H626 H 0.81335 0.05065 0.66015 0.0
H627 H 0.79659 0.08445 0.6405 0.0
H628 H 0.84344 0.04179 0.69348 0.0
H629 H 0.87563 0.02563 0.62845 0.0
H630 H 0.90468 0.03236 0.59665 0.0
H631 H 0.01239 0.03214 0.62317 0.0
H632 H 0.98393 0.02573 0.65518 0.0
H633 H 0.94119 0.92013 0.69662 0.0
H634 H 0.91555 0.95321 0.6789 0.0
H635 H 0.92422 0.99414 0.73031 0.0
H636 H 0.94792 0.96068 0.74825 0.0
H637 H 0.9428 0.99127 0.66905 0.0
H638 H 0.86383 0.03777 0.73015 0.0
H639 H 0.8287 0.02786 0.75966 0.0
H640 H 0.80288 0.96128 0.73695 0.0
H641 H 0.83758 0.97083 0.70722 0.0
C642 C 0.89007 0.09301 0.64267 0.0
C643 C 0.853 0.09699 0.63735 0.0
C644 C 0.89949 0.07392 0.65416 0.0
C645 C 0.8722 0.05808 0.66021 0.0
C646 C 0.83495 0.06254 0.65561 0.0
C647 C 0.82541 0.08187 0.64434 0.0
C648 C 0.88276 0.03647 0.67065 0.0
C649 C 0.86515 0.03072 0.68815 0.0
C650 C 0.91035 0.02162 0.66346 0.0
C651 C 0.92762 0.02541 0.64423 0.0
C652 C 0.9055 0.02718 0.62752 0.0
C653 C 0.92186 0.03091 0.60945 0.0
C654 C 0.96035 0.03273 0.6079 0.0
C655 C 0.98257 0.03076 0.6244 0.0
C656 C 0.96635 0.02706 0.64251 0.0
C657 C 0.93717 0.93615 0.70414 0.0
C658 C 0.94627 0.93788 0.72379 0.0
C659 C 0.92264 0.95507 0.69402 0.0
C660 C 0.9175 0.97621 0.70326 0.0
C661 C 0.92689 0.97793 0.72292 0.0
C662 C 0.94061 0.95884 0.73316 0.0
C663 C 0.90387 0.99664 0.69209 0.0
C664 C 0.92099 0.00223 0.67443 0.0
C665 C 0.8749 0.01083 0.6988 0.0
C666 C 0.85359 0.00497 0.71653 0.0
C667 C 0.85054 0.02104 0.73142 0.0
C668 C 0.83076 0.01547 0.7482 0.0
C669 C 0.81371 0.99391 0.7502 0.0
C670 C 0.81629 0.97791 0.73541 0.0
C671 C 0.83605 0.98339 0.7186 0.0
H672 H 0.79841 0.98963 0.76321 0.0
H673 H 0.97297 0.03562 0.5939 0.0
H674 H 0.65072 0.41567 0.13378 0.0
H675 H 0.62441 0.44517 0.15437 0.0
H676 H 0.72072 0.48809 0.14477 0.0
H677 H 0.74761 0.45845 0.12448 0.0
H678 H 0.70036 0.49056 0.18107 0.0
H679 H 0.64009 0.49787 0.11996 0.0
H680 H 0.60515 0.48513 0.09135 0.0
H681 H 0.51295 0.46611 0.12736 0.0
H682 H 0.54756 0.47844 0.15623 0.0
H683 H 0.55957 0.591 0.19409 0.0
H684 H 0.59289 0.56357 0.17418 0.0
H685 H 0.60654 0.5184 0.22372 0.0
H686 H 0.57224 0.54542 0.24361 0.0
H687 H 0.57422 0.51955 0.16604 0.0
H688 H 0.69078 0.49237 0.21976 0.0
H689 H 0.73169 0.50974 0.24426 0.0
H690 H 0.71843 0.57619 0.21705 0.0
H691 H 0.67734 0.55925 0.19251 0.0
C692 C 0.66647 0.4313 0.13617 0.0
C693 C 0.70116 0.43477 0.12738 0.0
C694 C 0.6513 0.4482 0.14787 0.0
C695 C 0.6703 0.46901 0.15085 0.0
C696 C 0.7055 0.4722 0.14264 0.0
C697 C 0.72081 0.45524 0.13101 0.0
C698 C 0.65309 0.48765 0.16216 0.0
C699 C 0.67272 0.49682 0.17782 0.0
C700 C 0.61747 0.49635 0.15759 0.0
C701 C 0.59658 0.48886 0.14028 0.0
C702 C 0.61249 0.49079 0.12179 0.0
C703 C 0.59272 0.48367 0.10553 0.0
C704 C 0.55689 0.47475 0.10754 0.0
C705 C 0.54073 0.47298 0.12583 0.0
C706 C 0.5604 0.48005 0.14215 0.0
C707 C 0.56965 0.57522 0.20076 0.0
C708 C 0.56348 0.57046 0.22048 0.0
C709 C 0.58875 0.55961 0.18937 0.0
C710 C 0.60244 0.53906 0.19751 0.0
C711 C 0.59669 0.53434 0.21723 0.0
C712 C 0.57722 0.54984 0.22859 0.0
C713 C 0.62117 0.52204 0.18518 0.0
C714 C 0.60177 0.51317 0.16934 0.0
C715 C 0.65742 0.51415 0.18921 0.0
C716 C 0.68072 0.52457 0.20444 0.0
C717 C 0.69649 0.5107 0.21908 0.0
C718 C 0.71971 0.52047 0.23297 0.0
C719 C 0.72765 0.54405 0.23222 0.0
C720 C 0.71218 0.55794 0.21766 0.0
C721 C 0.68872 0.5483 0.20384 0.0
H722 H 0.74571 0.55158 0.24294 0.0
H723 H 0.54163 0.46927 0.09493 0.0
H724 H 0.39756 0.41527 0.38137 0.0
H725 H 0.41843 0.44726 0.36085 0.0
H726 H 0.31548 0.44487 0.32909 0.0
H727 H 0.29473 0.41233 0.34929 0.0
H728 H 0.37051 0.45161 0.30496 0.0
H729 H 0.33301 0.48587 0.36419 0.0
H730 H 0.33149 0.49168 0.39939 0.0
H731 H 0.44753 0.50834 0.39916 0.0
H732 H 0.44989 0.50228 0.364 0.0
H733 H 0.40836 0.58141 0.28597 0.0
H734 H 0.3789 0.54853 0.30259 0.0
H735 H 0.47262 0.5061 0.28887 0.0
H736 H 0.50139 0.53851 0.27155 0.0
H737 H 0.41654 0.52346 0.33488 0.0
H738 H 0.44792 0.47009 0.27589 0.0
H739 H 0.4439 0.46564 0.24051 0.0
H740 H 0.33094 0.48856 0.24126 0.0
H741 H 0.33497 0.49406 0.27651 0.0
C742 C 0.37933 0.42147 0.36998 0.0
C743 C 0.34434 0.41131 0.36705 0.0
C744 C 0.39126 0.43988 0.35832 0.0
C745 C 0.36825 0.44882 0.34366 0.0
C746 C 0.33367 0.43835 0.34037 0.0
C747 C 0.32182 0.41975 0.35194 0.0
C748 C 0.38037 0.46905 0.33181 0.0
C749 C 0.38041 0.46729 0.31159 0.0
C750 C 0.39303 0.48974 0.34032 0.0
C751 C 0.39169 0.49338 0.36148 0.0
C752 C 0.35827 0.49058 0.37167 0.0
C753 C 0.35725 0.49394 0.39161 0.0
C754 C 0.38941 0.50031 0.40151 0.0
C755 C 0.42265 0.50337 0.39148 0.0
C756 C 0.42384 0.49998 0.37154 0.0
C757 C 0.42211 0.56488 0.286 0.0
C758 C 0.45691 0.56242 0.27726 0.0
C759 C 0.4054 0.54618 0.29561 0.0
C760 C 0.42327 0.52478 0.29661 0.0
C761 C 0.45788 0.52227 0.28778 0.0
C762 C 0.47445 0.54087 0.27808 0.0
C763 C 0.40742 0.50561 0.30829 0.0
C764 C 0.40659 0.50768 0.32842 0.0
C765 C 0.39381 0.48532 0.2998 0.0
C766 C 0.39193 0.48281 0.27865 0.0
C767 C 0.42248 0.47452 0.26841 0.0
C768 C 0.42021 0.47185 0.2484 0.0
C769 C 0.38726 0.47697 0.23861 0.0
C770 C 0.35654 0.48478 0.24882 0.0
C771 C 0.3589 0.48788 0.26877 0.0
H772 H 0.38548 0.47481 0.22313 0.0
H773 H 0.38856 0.50292 0.41695 0.0
H774 H 0.23404 0.04882 0.8665 0.0
H775 H 0.20415 0.01896 0.84733 0.0
H776 H 0.11588 0.06593 0.83252 0.0
H777 H 0.14535 0.09579 0.85179 0.0
H778 H 0.08988 0.02647 0.84762 0.0
H779 H 0.17725 0.04785 0.79871 0.0
H780 H 0.2388 0.05575 0.78471 0.0
H781 H 0.27153 0.98598 0.79681 0.0
H782 H 0.21036 0.97773 0.81117 0.0
H783 H 0.99482 0.95401 0.78152 0.0
H784 H 0.02747 0.98499 0.79811 0.0
H785 H 0.11769 0.93877 0.81132 0.0
H786 H 0.08488 0.90765 0.7949 0.0
H787 H 0.14334 0.97809 0.79645 0.0
H788 H 0.05986 0.95754 0.8477 0.0
H789 H 1.00222 0.95055 0.86597 0.0
H790 H 0.96401 0.01842 0.8508 0.0
H791 H 0.02143 0.02582 0.83246 0.0
C792 C 0.20861 0.05294 0.85889 0.0
C793 C 0.19188 0.07463 0.86085 0.0
C794 C 0.19164 0.03587 0.84784 0.0
C795 C 0.15778 0.04021 0.83847 0.0
C796 C 0.14197 0.06219 0.83967 0.0
C797 C 0.15889 0.07926 0.85069 0.0
C798 C 0.1369 0.02126 0.82918 0.0
C799 C 0.10127 0.0162 0.83611 0.0
C800 C 0.15238 0.00729 0.81474 0.0
C801 C 0.18932 0.01226 0.80624 0.0
C802 C 0.19769 0.03425 0.79859 0.0
C803 C 0.2325 0.03878 0.79054 0.0
C804 C 0.2591 0.0214 0.78993 0.0
C805 C 0.25092 -0.00056 0.79733 0.0
C806 C 0.21618 0.99483 0.80542 0.0
C807 C 0.02132 0.95035 0.78826 0.0
C808 C 0.03753 0.92849 0.78676 0.0
C809 C 0.03996 0.96807 0.79774 0.0
C810 C 0.07502 0.96421 0.80602 0.0
C811 C 0.09074 0.94218 0.80499 0.0
C812 C 0.07205 0.92445 0.79557 0.0
C813 C 0.09612 0.98345 0.81478 0.0
C814 C 0.13181 0.98852 0.8078 0.0
C815 C 0.08081 0.99742 0.82926 0.0
C816 C 0.04478 0.99215 0.83857 0.0
C817 C 0.0389 0.97083 0.848 0.0
C818 C 0.00641 0.96687 0.85851 0.0
C819 C 0.97957 0.98409 0.85962 0.0
C820 C 0.98488 0.00514 0.84998 0.0
C821 C 0.01739 0.00923 0.83955 0.0
H822 H 0.95467 0.98117 0.86799 0.0
H823 H 0.28602 0.02494 0.78368 0.0
H824 H 0.19244 0.16609 0.96715 0.0
H825 H 0.18065 0.16638 0.0019 0.0
H826 H 0.25422 0.10864 0.01002 0.0
H827 H 0.26537 0.10786 0.97529 0.0
H828 H 0.19301 0.10088 0.02892 0.0
H829 H 0.27766 0.16448 0.02381 0.0
H830 H 0.30182 0.20159 0.01132 0.0
H831 H 0.20337 0.23565 0.0303 0.0
H832 H 0.17838 0.19866 0.04269 0.0
H833 H 0.22334 0.10688 0.13037 0.0
H834 H 0.231 0.10922 0.09524 0.0
H835 H 0.13705 0.15466 0.09092 0.0
H836 H 0.12887 0.15204 0.12618 0.0
H837 H 0.20457 0.16961 0.07024 0.0
H838 H 0.12212 0.10487 0.0767 0.0
H839 H 0.10092 0.06743 0.08993 0.0
H840 H 0.19945 0.03518 0.06896 0.0
H841 H 0.22154 0.07253 0.05585 0.0
C842 C 0.20648 0.15363 0.97636 0.0
C843 C 0.22981 0.13692 0.96841 0.0
C844 C 0.19977 0.15385 0.99626 0.0
C845 C 0.21667 0.13759 0.00865 0.0
C846 C 0.24071 0.12129 0.00078 0.0
C847 C 0.24719 0.12094 0.98089 0.0
C848 C 0.20814 0.13683 0.02967 0.0
C849 C 0.19601 0.11588 0.03795 0.0
C850 C 0.21107 0.1565 0.04146 0.0
C851 C 0.22597 0.17876 0.03398 0.0
C852 C 0.26102 0.17985 0.02517 0.0
C853 C 0.27489 0.20087 0.01814 0.0
C854 C 0.2541 0.22095 0.01996 0.0
C855 C 0.21941 0.22007 0.02887 0.0
C856 C 0.20539 0.19909 0.03591 0.0
C857 C 0.20427 0.1173 0.12191 0.0
C858 C 0.17553 0.12929 0.13093 0.0
C859 C 0.20861 0.11859 0.10188 0.0
C860 C 0.18458 0.1321 0.09054 0.0
C861 C 0.15587 0.14415 0.09948 0.0
C862 C 0.1511 0.14255 0.11953 0.0
C863 C 0.18995 0.13367 0.06934 0.0
C864 C 0.20145 0.15472 0.06109 0.0
C865 C 0.18686 0.11405 0.05761 0.0
C866 C 0.17365 0.09155 0.06546 0.0
C867 C 0.13945 0.08984 0.07507 0.0
C868 C 0.12723 0.06863 0.08252 0.0
C869 C 0.14887 0.04895 0.08034 0.0
C870 C 0.18274 0.05044 0.07066 0.0
C871 C 0.19511 0.07163 0.06321 0.0
H872 H 0.13935 0.03253 0.0861 0.0
H873 H 0.26489 0.23721 0.01451 0.0
H874 H 0.32128 0.34598 0.4856 0.0
H875 H 0.33059 0.34562 0.52068 0.0
H876 H 0.4427 0.36997 0.51268 0.0
H877 H 0.43392 0.36993 0.47777 0.0
H878 H 0.44028 0.33838 0.54095 0.0
H879 H 0.37103 0.40685 0.52325 0.0
H880 H 0.31845 0.42817 0.50894 0.0
H881 H 0.24329 0.39235 0.54699 0.0
H882 H 0.29542 0.37061 0.56136 0.0
H883 H 0.48407 0.40161 0.6246 0.0
H884 H 0.47007 0.38702 0.59241 0.0
H885 H 0.36497 0.36098 0.61294 0.0
H886 H 0.37884 0.37566 0.64523 0.0
H887 H 0.35823 0.38759 0.58002 0.0
H888 H 0.42981 0.32334 0.60101 0.0
H889 H 0.48294 0.30257 0.61526 0.0
H890 H 0.55447 0.33107 0.5715 0.0
H891 H 0.50184 0.35222 0.55708 0.0
C892 C 0.34803 0.35102 0.49132 0.0
C893 C 0.37676 0.35817 0.47887 0.0
C894 C 0.35327 0.35088 0.51137 0.0
C895 C 0.3872 0.35807 0.51933 0.0
C896 C 0.41628 0.36436 0.5069 0.0
C897 C 0.41113 0.36442 0.4869 0.0
C898 C 0.3922 0.36023 0.54055 0.0
C899 C 0.42244 0.34921 0.54949 0.0
C900 C 0.36834 0.37385 0.55182 0.0
C901 C 0.33703 0.38691 0.5432 0.0
C902 C 0.34324 0.40339 0.52845 0.0
C903 C 0.31354 0.41558 0.52035 0.0
C904 C 0.27754 0.41156 0.527 0.0
C905 C 0.27118 0.3954 0.54181 0.0
C906 C 0.30079 0.38315 0.54994 0.0
C907 C 0.45814 0.39257 0.62228 0.0
C908 C 0.43246 0.38984 0.63736 0.0
C909 C 0.45029 0.38409 0.60394 0.0
C910 C 0.41656 0.3728 0.60031 0.0
C911 C 0.39121 0.36957 0.61546 0.0
C912 C 0.39923 0.37784 0.6339 0.0
C913 C 0.40677 0.36614 0.58032 0.0
C914 C 0.37568 0.37638 0.57159 0.0
C915 C 0.42997 0.35191 0.56925 0.0
C916 C 0.46187 0.33948 0.57802 0.0
C917 C 0.45692 0.32534 0.59451 0.0
C918 C 0.48694 0.31344 0.60259 0.0
C919 C 0.52204 0.31549 0.59428 0.0
C920 C 0.52724 0.32948 0.5779 0.0
C921 C 0.49731 0.34139 0.56974 0.0
H922 H 0.54521 0.30619 0.60051 0.0
H923 H 0.25458 0.42101 0.52072 0.0
H924 H 0.69983 0.33118 0.03532 0.0
H925 H 0.68077 0.32487 0.00198 0.0
H926 H 0.74955 0.38182 0.98303 0.0
H927 H 0.76792 0.38868 0.01647 0.0
H928 H 0.684 0.38552 0.96748 0.0
H929 H 0.77177 0.32447 0.9736 0.0
H930 H 0.80121 0.29026 0.98845 0.0
H931 H 0.7003 0.25173 0.98163 0.0
H932 H 0.67007 0.28582 0.96698 0.0
H933 H 0.65657 0.36337 0.86746 0.0
H934 H 0.68505 0.36822 0.89927 0.0
H935 H 0.61311 0.31546 0.92298 0.0
H936 H 0.58437 0.31065 0.89126 0.0
H937 H 0.68413 0.30989 0.93512 0.0
H938 H 0.59605 0.37203 0.93051 0.0
H939 H 0.5673 0.40637 0.91548 0.0
H940 H 0.6707 0.44295 0.9192 0.0
H941 H 0.7002 0.40869 0.93402 0.0
C942 C 0.71133 0.34218 0.02405 0.0
C943 C 0.73534 0.36048 0.02858 0.0
C944 C 0.70051 0.33849 0.00495 0.0
C945 C 0.71397 0.35274 0.98994 0.0
C946 C 0.73876 0.37062 0.99437 0.0
C947 C 0.74932 0.37447 0.01349 0.0
C948 C 0.70035 0.34991 0.96984 0.0
C949 C 0.68469 0.36906 0.96029 0.0
C950 C 0.70045 0.32834 0.96057 0.0
C951 C 0.71857 0.30777 0.96933 0.0
C952 C 0.75577 0.30876 0.9754 0.0
C953 C 0.77261 0.28937 0.98376 0.0
C954 C 0.75261 0.26885 0.98602 0.0
C955 C 0.71575 0.26765 0.97988 0.0
C956 C 0.69876 0.28699 0.97153 0.0
C957 C 0.64659 0.35296 0.87949 0.0
C958 C 0.61816 0.33664 0.87686 0.0
C959 C 0.66296 0.35569 0.89764 0.0
C960 C 0.65102 0.3423 0.91352 0.0
C961 C 0.62285 0.3259 0.9109 0.0
C962 C 0.60651 0.32313 0.89277 0.0
C963 C 0.66768 0.34544 0.93291 0.0
C964 C 0.6838 0.32636 0.94231 0.0
C965 C 0.66818 0.36709 0.94201 0.0
C966 C 0.65042 0.38772 0.93319 0.0
C967 C 0.61272 0.38734 0.92799 0.0
C968 C 0.59628 0.40679 0.91953 0.0
C969 C 0.61719 0.42681 0.91634 0.0
C970 C 0.65456 0.42742 0.92165 0.0
C971 C 0.67114 0.408 0.93009 0.0
H972 H 0.60441 0.44186 0.90979 0.0
H973 H 0.7657 0.25386 0.99249 0.0
H974 H 0.89443 0.09911 0.52485 0.0
H975 H 0.90736 0.09983 0.49036 0.0
H976 H 0.88504 0.17275 0.48781 0.0
H977 H 0.87152 0.17215 0.52257 0.0
H978 H 0.85321 0.15021 0.45765 0.0
H979 H 0.97337 0.15452 0.48582 0.0
H980 H 0.02416 0.1438 0.50804 0.0
H981 H 0.02843 0.07645 0.48341 0.0
H982 H 0.97728 0.08664 0.46121 0.0
H983 H 0.91832 0.14838 0.35973 0.0
H984 H 0.91495 0.15923 0.39383 0.0
H985 H 0.93026 0.08815 0.41102 0.0
H986 H 0.93422 0.07732 0.37717 0.0
H987 H 0.97053 0.11716 0.43347 0.0
H988 H 0.84465 0.11134 0.409 0.0
H989 H 0.79318 0.12161 0.38704 0.0
H990 H 0.80011 0.19202 0.40487 0.0
H991 H 0.852 0.18221 0.42676 0.0
C992 C 0.89224 0.11536 0.51703 0.0
C993 C 0.88212 0.13561 0.52652 0.0
C994 C 0.89985 0.11575 0.49729 0.0
C995 C 0.89783 0.13642 0.48656 0.0
C996 C 0.88702 0.15664 0.49585 0.0
C997 C 0.87935 0.15627 0.5157 0.0
C998 C 0.90659 0.13652 0.46561 0.0
C999 C 0.8792 0.14348 0.45235 0.0
C1000 C 0.94035 0.12751 0.45868 0.0
C1001 C 0.97131 0.12132 0.47192 0.0
C1002 C 0.98496 0.13737 0.48522 0.0
C1003 C 0.01385 0.1314 0.4978 0.0
C1004 C 0.02948 0.10945 0.49715 0.0
C1005 C 0.0163 0.09344 0.48389 0.0
C1006 C 0.98739 0.09933 0.47129 0.0
C1007 C 0.9215 0.13516 0.37082 0.0
C1008 C 0.92612 0.11196 0.3658 0.0
C1009 C 0.91933 0.14135 0.39026 0.0
C1010 C 0.92191 0.12444 0.40495 0.0
C1011 C 0.92808 0.10146 0.39994 0.0
C1012 C 0.93005 0.09527 0.38058 0.0
C1013 C 0.91676 0.13021 0.42558 0.0
C1014 C 0.94486 0.12434 0.43877 0.0
C1015 C 0.8837 0.14023 0.43242 0.0
C1016 C 0.85248 0.14611 0.41932 0.0
C1017 C 0.8354 0.12905 0.40811 0.0
C1018 C 0.80612 0.13478 0.3957 0.0
C1019 C 0.79346 0.15747 0.39451 0.0
C1020 C 0.81 0.17447 0.40577 0.0
C1021 C 0.83933 0.16883 0.41819 0.0
H1022 H 0.77078 0.16187 0.3849 0.0
H1023 H 0.05184 0.10485 0.50691 0.0
H1024 H 0.76299 0.87105 0.01941 0.0
H1025 H 0.77847 0.87303 0.98496 0.0
H1026 H 0.89137 0.89058 0.99934 0.0
H1027 H 0.87622 0.88876 0.03362 0.0
H1028 H 0.86216 0.92004 0.97261 0.0
H1029 H 0.86944 0.83768 0.98276 0.0
H1030 H 0.84569 0.79939 0.99264 0.0
H1031 H 0.7576 0.80538 0.95105 0.0
H1032 H 0.78056 0.84386 0.9411 0.0
H1033 H 0.95187 0.91401 0.88377 0.0
H1034 H 0.9328 0.90552 0.91696 0.0
H1035 H 0.82507 0.88414 0.89656 0.0
H1036 H 0.84457 0.89202 0.86315 0.0
H1037 H 0.84693 0.85689 0.92571 0.0
H1038 H 0.83917 0.93821 0.91482 0.0
H1039 H 0.86178 0.97658 0.90444 0.0
H1040 H 0.94786 0.97333 0.94734 0.0
H1041 H 0.92612 0.93476 0.95778 0.0
C1042 C 0.7912 0.87509 0.01523 0.0
C1043 C 0.81833 0.87984 0.02928 0.0
C1044 C 0.80001 0.87615 0.99554 0.0
C1045 C 0.8361 0.88193 0.9896 0.0
C1046 C 0.86333 0.88617 0.00361 0.0
C1047 C 0.85461 0.88506 0.02322 0.0
C1048 C 0.84535 0.88475 0.96882 0.0
C1049 C 0.85923 0.90614 0.96241 0.0
C1050 C 0.84026 0.86688 0.95537 0.0
C1051 C 0.82648 0.84375 0.96134 0.0
C1052 C 0.84482 0.83092 0.97584 0.0
C1053 C 0.83153 0.80916 0.98143 0.0
C1054 C 0.80009 0.79999 0.97252 0.0
C1055 C 0.78192 0.81253 0.95796 0.0
C1056 C 0.79507 0.8343 0.95233 0.0
C1057 C 0.9242 0.90736 0.88638 0.0
C1058 C 0.89952 0.9039 0.87095 0.0
C1059 C 0.91328 0.90257 0.90533 0.0
C1060 C 0.87719 0.89471 0.9093 0.0
C1061 C 0.85298 0.8903 0.89385 0.0
C1062 C 0.86411 0.89481 0.8748 0.0
C1063 C 0.86451 0.89203 0.92962 0.0
C1064 C 0.84976 0.87079 0.93591 0.0
C1065 C 0.86843 0.91012 0.94298 0.0
C1066 C 0.88118 0.93351 0.93698 0.0
C1067 C 0.86304 0.94562 0.92197 0.0
C1068 C 0.8757 0.96741 0.91608 0.0
C1069 C 0.90628 0.97736 0.92519 0.0
C1070 C 0.92419 0.96559 0.94027 0.0
C1071 C 0.91169 0.94377 0.9462 0.0
H1072 H 0.91607 0.99422 0.9206 0.0
H1073 H 0.78985 0.78314 0.97686 0.0
H1074 H 0.61696 0.61099 0.53904 0.0
H1075 H 0.59314 0.60661 0.50627 0.0
H1076 H 0.70416 0.61214 0.48375 0.0
H1077 H 0.72835 0.61669 0.51658 0.0
H1078 H 0.65223 0.6358 0.46119 0.0
H1079 H 0.66704 0.56027 0.49018 0.0
H1080 H 0.65785 0.53053 0.51557 0.0
H1081 H 0.54007 0.53394 0.50714 0.0
H1082 H 0.54855 0.56396 0.48188 0.0
H1083 H 0.62263 0.58678 0.36969 0.0
H1084 H 0.64492 0.59488 0.40226 0.0
H1085 H 0.53541 0.58177 0.42488 0.0
H1086 H 0.51311 0.57328 0.39228 0.0
H1087 H 0.58559 0.56279 0.44765 0.0
H1088 H 0.5694 0.6373 0.41845 0.0
H1089 H 0.5771 0.6677 0.39349 0.0
H1090 H 0.69485 0.66718 0.40248 0.0
H1091 H 0.68791 0.63657 0.42735 0.0
C1092 C 0.63635 0.61154 0.52713 0.0
C1093 C 0.67463 0.61395 0.53044 0.0
C1094 C 0.62266 0.60898 0.50841 0.0
C1095 C 0.64696 0.60868 0.49264 0.0
C1096 C 0.68498 0.61223 0.49576 0.0
C1097 C 0.69875 0.61478 0.51452 0.0
C1098 C 0.63286 0.60346 0.47306 0.0
C1099 C 0.63803 0.61974 0.45813 0.0
C1100 C 0.61354 0.58274 0.46926 0.0
C1101 C 0.60842 0.56451 0.48428 0.0
C1102 C 0.63917 0.55479 0.49384 0.0
C1103 C 0.63409 0.53787 0.50819 0.0
C1104 C 0.59839 0.53039 0.513 0.0
C1105 C 0.5677 0.53977 0.50342 0.0
C1106 C 0.57263 0.55672 0.48908 0.0
C1107 C 0.60331 0.58566 0.38161 0.0
C1108 C 0.56609 0.57952 0.37845 0.0
C1109 C 0.61604 0.59037 0.4002 0.0
C1110 C 0.59168 0.58938 0.41597 0.0
C1111 C 0.55468 0.58272 0.41292 0.0
C1112 C 0.54199 0.57781 0.39432 0.0
C1113 C 0.60492 0.59512 0.43565 0.0
C1114 C 0.59965 0.57891 0.45064 0.0
C1115 C 0.62389 0.61599 0.43952 0.0
C1116 C 0.62816 0.63449 0.42464 0.0
C1117 C 0.59696 0.64355 0.41501 0.0
C1118 C 0.60118 0.66084 0.40089 0.0
C1119 C 0.63644 0.66932 0.39636 0.0
C1120 C 0.66755 0.66058 0.40599 0.0
C1121 C 0.66349 0.64328 0.42012 0.0
H1122 H 0.63965 0.6827 0.38542 0.0
H1123 H 0.59451 0.5173 0.52412 0.0
H1124 H 0.31367 0.57874 0.98855 0.0
H1125 H 0.32694 0.58443 0.02279 0.0
H1126 H 0.34728 0.65665 0.0115 0.0
H1127 H 0.33424 0.65112 0.97718 0.0
H1128 H 0.40165 0.63665 0.03408 0.0
H1129 H 0.26764 0.63913 0.03246 0.0
H1130 H 0.20531 0.62396 0.02514 0.0
H1131 H 0.22628 0.5645 0.06113 0.0
H1132 H 0.28895 0.57919 0.06847 0.0
H1133 H 0.39343 0.68603 0.12594 0.0
H1134 H 0.38412 0.67434 0.09258 0.0
H1135 H 0.36056 0.60485 0.11203 0.0
H1136 H 0.3689 0.61665 0.14565 0.0
H1137 H 0.31035 0.61929 0.0858 0.0
H1138 H 0.44144 0.61697 0.08964 0.0
H1139 H 0.50453 0.63067 0.09712 0.0
H1140 H 0.49104 0.68738 0.0572 0.0
H1141 H 0.42761 0.67423 0.04968 0.0
C1142 C 0.32077 0.59588 0.99334 0.0
C1143 C 0.32285 0.6145 0.98012 0.0
C1144 C 0.32827 0.59909 0.01294 0.0
C1145 C 0.33793 0.62098 0.0197 0.0
C1146 C 0.33991 0.63961 0.00656 0.0
C1147 C 0.33228 0.63644 0.98697 0.0
C1148 C 0.34652 0.62446 0.04041 0.0
C1149 C 0.38158 0.63311 0.04539 0.0
C1150 C 0.32082 0.61893 0.05519 0.0
C1151 C 0.28311 0.61014 0.05084 0.0
C1152 C 0.25907 0.62273 0.03869 0.0
C1153 C 0.22366 0.61423 0.03456 0.0
C1154 C 0.21188 0.59324 0.04262 0.0
C1155 C 0.23546 0.58074 0.05487 0.0
C1156 C 0.27091 0.58915 0.05903 0.0
C1157 C 0.38619 0.66826 0.12314 0.0
C1158 C 0.38171 0.65228 0.13844 0.0
C1159 C 0.38125 0.66154 0.10405 0.0
C1160 C 0.37198 0.63866 0.09979 0.0
C1161 C 0.36782 0.62257 0.115 0.0
C1162 C 0.37284 0.62929 0.13417 0.0
C1163 C 0.36524 0.63199 0.07947 0.0
C1164 C 0.33059 0.62268 0.07454 0.0
C1165 C 0.39146 0.63668 0.06474 0.0
C1166 C 0.42962 0.64471 0.06921 0.0
C1167 C 0.45179 0.63248 0.08257 0.0
C1168 C 0.48765 0.64012 0.0868 0.0
C1169 C 0.50176 0.65991 0.07767 0.0
C1170 C 0.48006 0.67207 0.06427 0.0
C1171 C 0.44416 0.66451 0.06 0.0
H1172 H 0.52954 0.6658 0.08096 0.0
H1173 H 0.18446 0.58669 0.03941 0.0
H1174 H 0.11394 0.8728 0.47178 0.0
H1175 H 0.09863 0.86877 0.50593 0.0
H1176 H 0.21476 0.87152 0.52068 0.0
H1177 H 0.23046 0.87522 0.48633 0.0
H1178 H 0.17974 0.83902 0.54181 0.0
H1179 H 0.16048 0.9183 0.52694 0.0
H1180 H 0.13669 0.95202 0.50881 0.0
H1181 H 0.02496 0.93072 0.52094 0.0
H1182 H 0.04808 0.89666 0.53891 0.0
H1183 H 0.14069 0.85993 0.64186 0.0
H1184 H 0.16267 0.86602 0.60861 0.0
H1185 H 0.05259 0.85245 0.58707 0.0
H1186 H 0.03062 0.84607 0.62021 0.0
H1187 H 0.08891 0.8925 0.57043 0.0
H1188 H 0.11054 0.81171 0.58403 0.0
H1189 H 0.13613 0.77898 0.60276 0.0
H1190 H 0.24636 0.80507 0.59379 0.0
H1191 H 0.22134 0.83818 0.57523 0.0
C1192 C 0.13632 0.87247 0.48224 0.0
C1193 C 0.17344 0.87448 0.47632 0.0
C1194 C 0.12748 0.87028 0.50179 0.0
C1195 C 0.1555 0.87028 0.51589 0.0
C1196 C 0.19268 0.87162 0.51004 0.0
C1197 C 0.20159 0.87375 0.49042 0.0
C1198 C 0.14569 0.86891 0.5367 0.0
C1199 C 0.16037 0.85096 0.54814 0.0
C1200 C 0.12012 0.88435 0.54494 0.0
C1201 C 0.10603 0.9048 0.53413 0.0
C1202 C 0.13083 0.92069 0.5256 0.0
C1203 C 0.11747 0.93989 0.51538 0.0
C1204 C 0.07934 0.94349 0.51369 0.0
C1205 C 0.05449 0.9279 0.52225 0.0
C1206 C 0.06771 0.90866 0.53247 0.0
C1207 C 0.12121 0.85842 0.63001 0.0
C1208 C 0.08402 0.85247 0.63353 0.0
C1209 C 0.13379 0.86179 0.61108 0.0
C1210 C 0.10925 0.85956 0.59544 0.0
C1211 C 0.07192 0.85421 0.59897 0.0
C1212 C 0.05947 0.85048 0.61785 0.0
C1213 C 0.12251 0.86245 0.57534 0.0
C1214 C 0.10849 0.88071 0.56408 0.0
C1215 C 0.14897 0.84748 0.56734 0.0
C1216 C 0.16404 0.82757 0.57845 0.0
C1217 C 0.14021 0.81059 0.58621 0.0
C1218 C 0.15461 0.79194 0.59676 0.0
C1219 C 0.19284 0.78998 0.59952 0.0
C1220 C 0.21675 0.80664 0.59168 0.0
C1221 C 0.20248 0.82534 0.58114 0.0
H1222 H 0.20394 0.77552 0.60768 0.0
H1223 H 0.06904 0.95837 0.50578 0.0
H1224 H 0.26732 0.27555 0.36213 0.0
H1225 H 0.23486 0.24607 0.34369 0.0
H1226 H 0.13564 0.28723 0.34378 0.0
H1227 H 0.16771 0.31657 0.3626 0.0
H1228 H 0.11873 0.24354 0.35093 0.0
H1229 H 0.19181 0.28401 0.30364 0.0
H1230 H 0.24855 0.30044 0.28912 0.0
H1231 H 0.29655 0.23299 0.28697 0.0
H1232 H 0.24027 0.21618 0.30174 0.0
H1233 H 0.02554 0.18927 0.2724 0.0
H1234 H 0.05805 0.21703 0.29271 0.0
H1235 H 0.1486 0.16945 0.30003 0.0
H1236 H 0.11558 0.14124 0.28037 0.0
H1237 H 0.17006 0.21549 0.28921 0.0
H1238 H 0.09505 0.1752 0.33588 0.0
H1239 H 0.03657 0.15924 0.34879 0.0
H1240 H 0.99064 0.22725 0.35077 0.0
H1241 H 0.04865 0.2436 0.33752 0.0
C1242 C 0.2386 0.27835 0.35822 0.0
C1243 C 0.22017 0.29848 0.36378 0.0
C1244 C 0.2201 0.2615 0.3476 0.0
C1245 C 0.1829 0.26453 0.34211 0.0
C1246 C 0.16433 0.2845 0.34783 0.0
C1247 C 0.18276 0.3013 0.35853 0.0
C1248 C 0.16337 0.2469 0.33043 0.0
C1249 C 0.12978 0.23763 0.33733 0.0
C1250 C 0.17805 0.23881 0.31283 0.0
C1251 C 0.21199 0.24888 0.30402 0.0
C1252 C 0.2146 0.27271 0.30024 0.0
C1253 C 0.24665 0.28208 0.29193 0.0
C1254 C 0.27618 0.26778 0.28719 0.0
C1255 C 0.27368 0.24406 0.2907 0.0
C1256 C 0.24171 0.23459 0.29903 0.0
C1257 C 0.05219 0.18462 0.2785 0.0
C1258 C 0.06828 0.1632 0.27458 0.0
C1259 C 0.07075 0.20051 0.29004 0.0
C1260 C 0.10572 0.19527 0.29781 0.0
C1261 C 0.12172 0.17384 0.29406 0.0
C1262 C 0.1029 0.15781 0.28277 0.0
C1263 C 0.12567 0.21228 0.30975 0.0
C1264 C 0.15922 0.22141 0.30286 0.0
C1265 C 0.11084 0.22034 0.32727 0.0
C1266 C 0.0761 0.21061 0.33553 0.0
C1267 C 0.07238 0.18675 0.33892 0.0
C1268 C 0.03933 0.17763 0.34632 0.0
C1269 C 0.00988 0.19222 0.35056 0.0
C1270 C 0.01347 0.21597 0.34746 0.0
C1271 C 0.04644 0.22517 0.34001 0.0
H1272 H 0.98431 0.18512 0.35628 0.0
H1273 H 0.30097 0.27507 0.28074 0.0
H1274 H 0.25312 0.2262 0.87398 0.0
H1275 H 0.29266 0.25422 0.85713 0.0
H1276 H 0.37711 0.2025 0.851 0.0
H1277 H 0.33812 0.17457 0.86831 0.0
H1278 H 0.40765 0.24096 0.86144 0.0
H1279 H 0.32017 0.22036 0.81271 0.0
H1280 H 0.2586 0.21434 0.79806 0.0
H1281 H 0.23398 0.28614 0.80423 0.0
H1282 H 0.29522 0.29254 0.81918 0.0
H1283 H 0.51009 0.30131 0.78669 0.0
H1284 H 0.47455 0.27356 0.80638 0.0
H1285 H 0.39581 0.32661 0.81977 0.0
H1286 H 0.43166 0.35446 0.80053 0.0
H1287 H 0.36292 0.28744 0.80547 0.0
H1288 H 0.45214 0.30719 0.8542 0.0
H1289 H 0.51214 0.31153 0.87095 0.0
H1290 H 0.53414 0.23955 0.86384 0.0
H1291 H 0.47457 0.23482 0.84681 0.0
C1292 C 0.28011 0.22078 0.86904 0.0
C1293 C 0.29245 0.19813 0.87247 0.0
C1294 C 0.30261 0.2368 0.85929 0.0
C1295 C 0.33769 0.23041 0.8525 0.0
C1296 C 0.35015 0.20784 0.85605 0.0
C1297 C 0.32779 0.19188 0.86594 0.0
C1298 C 0.36182 0.24738 0.84215 0.0
C1299 C 0.39807 0.25081 0.84896 0.0
C1300 C 0.34908 0.26068 0.82616 0.0
C1301 C 0.31213 0.25686 0.81728 0.0
C1302 C 0.30149 0.23482 0.81112 0.0
C1303 C 0.26667 0.23135 0.80272 0.0
C1304 C 0.24234 0.24983 0.80028 0.0
C1305 C 0.25282 0.27183 0.80618 0.0
C1306 C 0.28759 0.27539 0.8146 0.0
C1307 C 0.48562 0.30712 0.79418 0.0
C1308 C 0.47337 0.32995 0.79196 0.0
C1309 C 0.46534 0.29127 0.80539 0.0
C1310 C 0.43253 0.29803 0.81452 0.0
C1311 C 0.421 0.32102 0.81281 0.0
C1312 C 0.4414 0.33688 0.80176 0.0
C1313 C 0.40876 0.28087 0.82471 0.0
C1314 C 0.37255 0.27743 0.81784 0.0
C1315 C 0.42172 0.26735 0.84048 0.0
C1316 C 0.45897 0.27069 0.8491 0.0
C1317 C 0.47005 0.29237 0.85589 0.0
C1318 C 0.50387 0.29487 0.86556 0.0
C1319 C 0.52674 0.27577 0.86858 0.0
C1320 C 0.51629 0.25428 0.86157 0.0
C1321 C 0.48253 0.25169 0.8519 0.0
H1322 H 0.55249 0.27755 0.87643 0.0
H1323 H 0.21541 0.2471 0.79376 0.0
H1324 H 0.78781 0.22693 0.63723 0.0
H1325 H 0.75692 0.25639 0.65617 0.0
H1326 H 0.65179 0.22259 0.647 0.0
H1327 H 0.68237 0.19325 0.62782 0.0
H1328 H 0.64462 0.26857 0.64351 0.0
H1329 H 0.69908 0.21502 0.68914 0.0
H1330 H 0.74979 0.19254 0.70403 0.0
H1331 H 0.80821 0.25507 0.71694 0.0
H1332 H 0.75803 0.27792 0.70188 0.0
H1333 H 0.57853 0.30577 0.74414 0.0
H1334 H 0.61529 0.28051 0.72388 0.0
H1335 H 0.63282 0.33658 0.6832 0.0
H1336 H 0.59559 0.36189 0.70346 0.0
H1337 H 0.68494 0.28045 0.71127 0.0
H1338 H 0.63243 0.31584 0.63833 0.0
H1339 H 0.57836 0.33711 0.62552 0.0
H1340 H 0.50949 0.3066 0.66954 0.0
H1341 H 0.56311 0.28499 0.68245 0.0
C1342 C 0.75809 0.22581 0.63916 0.0
C1343 C 0.73759 0.20764 0.63111 0.0
C1344 C 0.74048 0.24265 0.65003 0.0
C1345 C 0.70208 0.24157 0.65317 0.0
C1346 C 0.68144 0.22378 0.64475 0.0
C1347 C 0.699 0.20696 0.63387 0.0
C1348 C 0.68353 0.2585 0.66575 0.0
C1349 C 0.65357 0.27123 0.65829 0.0
C1350 C 0.69487 0.26185 0.68512 0.0
C1351 C 0.72501 0.24815 0.6942 0.0
C1352 C 0.72288 0.22396 0.69502 0.0
C1353 C 0.7515 0.21116 0.70351 0.0
C1354 C 0.78226 0.22237 0.71137 0.0
C1355 C 0.7844 0.24641 0.71081 0.0
C1356 C 0.75588 0.25929 0.70231 0.0
C1357 C 0.59088 0.31282 0.73108 0.0
C1358 C 0.58466 0.33581 0.72543 0.0
C1359 C 0.61175 0.29836 0.71948 0.0
C1360 C 0.62659 0.30659 0.70195 0.0
C1361 C 0.62123 0.32977 0.69654 0.0
C1362 C 0.60011 0.34421 0.70811 0.0
C1363 C 0.64617 0.29053 0.68903 0.0
C1364 C 0.67629 0.27796 0.69642 0.0
C1365 C 0.63453 0.28701 0.66974 0.0
C1366 C 0.6018 0.299 0.66145 0.0
C1367 C 0.60568 0.31356 0.64517 0.0
C1368 C 0.57515 0.32572 0.63793 0.0
C1369 C 0.54055 0.32328 0.64676 0.0
C1370 C 0.53632 0.30854 0.66275 0.0
C1371 C 0.56676 0.29635 0.67005 0.0
H1372 H 0.517 0.3328 0.64118 0.0
H1373 H 0.80438 0.21243 0.71795 0.0
H1374 H 0.85446 0.32192 0.12705 0.0
H1375 H 0.8873 0.29045 0.14345 0.0
H1376 H 0.79078 0.24688 0.13773 0.0
H1377 H 0.75741 0.27855 0.122 0.0
H1378 H 0.81581 0.24198 0.17187 0.0
H1379 H 0.87153 0.24043 0.10956 0.0
H1380 H 0.90361 0.25601 0.08076 0.0
H1381 H 0.9976 0.27409 0.11565 0.0
H1382 H 0.96587 0.2589 0.14471 0.0
H1383 H 0.96445 0.14484 0.1827 0.0
H1384 H 0.92821 0.17194 0.16294 0.0
H1385 H 0.91393 0.21528 0.21237 0.0
H1386 H 0.95112 0.18875 0.232 0.0
H1387 H 0.94234 0.21701 0.15422 0.0
H1388 H 0.82771 0.23866 0.2099 0.0
H1389 H 0.78824 0.21937 0.23436 0.0
H1390 H 0.8046 0.15446 0.20678 0.0
H1391 H 0.84425 0.17333 0.18225 0.0
C1392 C 0.84031 0.30559 0.12921 0.0
C1393 C 0.80332 0.30273 0.12326 0.0
C1394 C 0.8592 0.28755 0.13849 0.0
C1395 C 0.84172 0.26614 0.14165 0.0
C1396 C 0.80489 0.26322 0.13551 0.0
C1397 C 0.78584 0.28134 0.12648 0.0
C1398 C 0.86118 0.2471 0.15207 0.0
C1399 C 0.84349 0.23657 0.16797 0.0
C1400 C 0.89698 0.23957 0.14678 0.0
C1401 C 0.91617 0.24871 0.12934 0.0
C1402 C 0.89892 0.24789 0.11111 0.0
C1403 C 0.91706 0.25662 0.09474 0.0
C1404 C 0.95258 0.26608 0.09638 0.0
C1405 C 0.97007 0.26678 0.1144 0.0
C1406 C 0.95203 0.25809 0.13083 0.0
C1407 C 0.9535 0.16012 0.18938 0.0
C1408 C 0.96013 0.16443 0.20903 0.0
C1409 C 0.93279 0.17557 0.17806 0.0
C1410 C 0.91802 0.19549 0.18623 0.0
C1411 C 0.92449 0.1998 0.20585 0.0
C1412 C 0.94554 0.18451 0.21711 0.0
C1413 C 0.89712 0.21231 0.17413 0.0
C1414 C 0.91465 0.22248 0.15804 0.0
C1415 C 0.86074 0.21908 0.17886 0.0
C1416 C 0.83918 0.20738 0.19436 0.0
C1417 C 0.82306 0.22024 0.20915 0.0
C1418 C 0.80062 0.20939 0.22301 0.0
C1419 C 0.79383 0.18572 0.2221 0.0
C1420 C 0.80991 0.17279 0.20749 0.0
C1421 C 0.83258 0.18353 0.19369 0.0
H1422 H 0.77619 0.1774 0.23274 0.0
H1423 H 0.96658 0.27283 0.08368 0.0
H1424 H 0.84195 0.67324 0.64277 0.0
H1425 H 0.87554 0.7036 0.65976 0.0
H1426 H 0.78525 0.75049 0.64896 0.0
H1427 H 0.75127 0.72018 0.63211 0.0
H1428 H 0.85639 0.76946 0.6409 0.0
H1429 H 0.79271 0.72811 0.69196 0.0
H1430 H 0.77476 0.6936 0.711 0.0
H1431 H 0.88883 0.68126 0.7254 0.0
H1432 H 0.90753 0.71553 0.7062 0.0
H1433 H 0.90015 0.85762 0.70696 0.0
H1434 H 0.86941 0.82672 0.68929 0.0
H1435 H 0.95777 0.78022 0.70511 0.0
H1436 H 0.98819 0.81097 0.7232 0.0
H1437 H 0.88949 0.76058 0.71026 0.0
H1438 H 0.95431 0.80155 0.66062 0.0
H1439 H 0.97415 0.83582 0.64183 0.0
H1440 H 0.86168 0.84813 0.62432 0.0
H1441 H 0.84098 0.81417 0.64332 0.0
C1442 C 0.82922 0.69 0.64401 0.0
C1443 C 0.79389 0.69429 0.63615 0.0
C1444 C 0.84842 0.7073 0.65375 0.0
C1445 C 0.83278 0.72923 0.65567 0.0
C1446 C 0.79777 0.73367 0.64762 0.0
C1447 C 0.77835 0.7163 0.63807 0.0
C1448 C 0.85286 0.74751 0.6662 0.0
C1449 C 0.86327 0.76766 0.65611 0.0
C1450 C 0.86274 0.74482 0.6859 0.0
C1451 C 0.85155 0.72423 0.69746 0.0
C1452 C 0.814 0.71791 0.69903 0.0
C1453 C 0.80368 0.69842 0.70988 0.0
C1454 C 0.83065 0.68521 0.71935 0.0
C1455 C 0.86798 0.69149 0.71803 0.0
C1456 C 0.87845 0.71095 0.70717 0.0
C1457 C 0.91303 0.84081 0.70661 0.0
C1458 C 0.94664 0.83669 0.7163 0.0
C1459 C 0.89556 0.82322 0.69646 0.0
C1460 C 0.91151 0.80125 0.69575 0.0
C1461 C 0.94507 0.79708 0.70545 0.0
C1462 C 0.9626 0.8147 0.71558 0.0
C1463 C 0.89291 0.78258 0.68498 0.0
C1464 C 0.88276 0.76236 0.69502 0.0
C1465 C 0.88366 0.78511 0.66518 0.0
C1466 C 0.89603 0.80541 0.65354 0.0
C1467 C 0.93374 0.81166 0.65289 0.0
C1468 C 0.94516 0.83101 0.64218 0.0
C1469 C 0.9192 0.84416 0.63191 0.0
C1470 C 0.88176 0.83794 0.6323 0.0
C1471 C 0.87016 0.81863 0.64303 0.0
H1472 H 0.92811 0.85914 0.62362 0.0
H1473 H 0.8226 0.67013 0.72775 0.0
H1474 H 0.7773 0.77739 0.14468 0.0
H1475 H 0.74202 0.74842 0.16294 0.0
H1476 H 0.64191 0.78731 0.15337 0.0
H1477 H 0.6771 0.81655 0.13527 0.0
H1478 H 0.64621 0.77199 0.19018 0.0
H1479 H 0.65938 0.73932 0.12743 0.0
H1480 H 0.69292 0.72634 0.09862 0.0
H1481 H 0.75443 0.67812 0.1336 0.0
H1482 H 0.72159 0.69104 0.16268 0.0
H1483 H 0.51792 0.68368 0.21666 0.0
H1484 H 0.55336 0.7134 0.19897 0.0
H1485 H 0.65344 0.67411 0.20789 0.0
H1486 H 0.61758 0.64407 0.22481 0.0
H1487 H 0.64914 0.68982 0.1716 0.0
H1488 H 0.63514 0.7229 0.23459 0.0
H1489 H 0.60047 0.73609 0.263 0.0
H1490 H 0.53878 0.78313 0.22707 0.0
H1491 H 0.57301 0.77027 0.19842 0.0
C1492 C 0.74779 0.77982 0.14647 0.0
C1493 C 0.73 0.79926 0.13844 0.0
C1494 C 0.72762 0.76318 0.15685 0.0
C1495 C 0.68922 0.76554 0.15933 0.0
C1496 C 0.67149 0.78511 0.15161 0.0
C1497 C 0.69164 0.80177 0.14122 0.0
C1498 C 0.66757 0.74759 0.16995 0.0
C1499 C 0.6465 0.75407 0.18598 0.0
C1500 C 0.66848 0.72412 0.16471 0.0
C1501 C 0.6883 0.71632 0.14726 0.0
C1502 C 0.68028 0.72609 0.129 0.0
C1503 C 0.69912 0.71871 0.11262 0.0
C1504 C 0.72586 0.70146 0.11429 0.0
C1505 C 0.73375 0.69151 0.13234 0.0
C1506 C 0.71501 0.69883 0.14877 0.0
C1507 C 0.54749 0.68153 0.21477 0.0
C1508 C 0.56539 0.66197 0.22228 0.0
C1509 C 0.56774 0.6985 0.20482 0.0
C1510 C 0.60621 0.69619 0.20239 0.0
C1511 C 0.62388 0.67636 0.2097 0.0
C1512 C 0.60355 0.65934 0.21952 0.0
C1513 C 0.6279 0.7142 0.19188 0.0
C1514 C 0.64895 0.70773 0.17585 0.0
C1515 C 0.62687 0.73767 0.19709 0.0
C1516 C 0.60644 0.74549 0.21433 0.0
C1517 C 0.61403 0.73596 0.23272 0.0
C1518 C 0.59449 0.74338 0.24887 0.0
C1519 C 0.56732 0.76031 0.24682 0.0
C1520 C 0.55978 0.76999 0.22863 0.0
C1521 C 0.57932 0.7627 0.21245 0.0
H1522 H 0.5522 0.76599 0.25935 0.0
H1523 H 0.74041 0.69577 0.10158 0.0
H1524 H 0.36025 0.8351 0.34865 0.0
H1525 H 0.38942 0.80354 0.33126 0.0
H1526 H 0.32278 0.75426 0.36303 0.0
H1527 H 0.2927 0.78576 0.38016 0.0
H1528 H 0.40665 0.74573 0.35944 0.0
H1529 H 0.29413 0.76173 0.32272 0.0
H1530 H 0.25108 0.78745 0.30511 0.0
H1531 H 0.33782 0.80703 0.26576 0.0
H1532 H 0.38154 0.78167 0.28333 0.0
H1533 H 0.44273 0.64544 0.30648 0.0
H1534 H 0.414 0.67647 0.3245 0.0
H1535 H 0.44223 0.72477 0.27871 0.0
H1536 H 0.4688 0.69336 0.26015 0.0
H1537 H 0.37833 0.73464 0.28999 0.0
H1538 H 0.49105 0.71983 0.32408 0.0
H1539 H 0.53792 0.69609 0.34093 0.0
H1540 H 0.45841 0.6775 0.38455 0.0
H1541 H 0.41086 0.70084 0.36778 0.0
C1542 C 0.35187 0.81754 0.35198 0.0
C1543 C 0.32412 0.81288 0.36572 0.0
C1544 C 0.36854 0.79958 0.34203 0.0
C1545 C 0.3582 0.77666 0.34591 0.0
C1546 C 0.33112 0.77188 0.3599 0.0
C1547 C 0.31388 0.78987 0.36958 0.0
C1548 C 0.37502 0.75773 0.33493 0.0
C1549 C 0.40024 0.74304 0.34431 0.0
C1550 C 0.3675 0.75488 0.31508 0.0
C1551 C 0.34118 0.77001 0.30447 0.0
C1552 C 0.30411 0.7717 0.31043 0.0
C1553 C 0.27957 0.78617 0.30043 0.0
C1554 C 0.29173 0.79892 0.28436 0.0
C1555 C 0.32845 0.79718 0.27822 0.0
C1556 C 0.35311 0.78274 0.28819 0.0
C1557 C 0.44276 0.66271 0.30031 0.0
C1558 C 0.458 0.6671 0.282 0.0
C1559 C 0.42657 0.68049 0.31067 0.0
C1560 C 0.4266 0.70317 0.30322 0.0
C1561 C 0.44181 0.70748 0.28483 0.0
C1562 C 0.45704 0.68957 0.27423 0.0
C1563 C 0.41027 0.7223 0.31442 0.0
C1564 C 0.38506 0.73717 0.3051 0.0
C1565 C 0.41856 0.72564 0.33424 0.0
C1566 C 0.44729 0.71194 0.34458 0.0
C1567 C 0.4835 0.71059 0.33721 0.0
C1568 C 0.51019 0.69721 0.34675 0.0
C1569 C 0.50112 0.68525 0.36377 0.0
C1570 C 0.46538 0.68675 0.37134 0.0
C1571 C 0.43855 0.70007 0.36184 0.0
H1572 H 0.52178 0.67484 0.3711 0.0
H1573 H 0.27269 0.81012 0.27664 0.0
H1574 H 0.15375 0.68106 0.87525 0.0
H1575 H 0.11646 0.71071 0.85912 0.0
H1576 H 0.21074 0.73075 0.82439 0.0
H1577 H 0.24856 0.70189 0.84118 0.0
H1578 H 0.17899 0.76728 0.83486 0.0
H1579 H 0.13375 0.6975 0.807 0.0
H1580 H 0.10753 0.6582 0.80667 0.0
H1581 H 0.0099 0.68189 0.83541 0.0
H1582 H 0.03575 0.72129 0.83612 0.0
H1583 H 0.06978 0.81636 0.75545 0.0
H1584 H 0.10253 0.78656 0.77394 0.0
H1585 H 0.04323 0.80514 0.82526 0.0
H1586 H 0.01147 0.83586 0.80718 0.0
H1587 H 0.05524 0.75015 0.80699 0.0
H1588 H 0.10732 0.82084 0.83585 0.0
H1589 H 0.13502 0.85962 0.83254 0.0
H1590 H 0.22215 0.83241 0.79763 0.0
H1591 H 0.19441 0.79353 0.80038 0.0
C1592 C 0.16647 0.69174 0.86412 0.0
C1593 C 0.20407 0.6891 0.85945 0.0
C1594 C 0.14506 0.70864 0.85482 0.0
C1595 C 0.16051 0.72282 0.84026 0.0
C1596 C 0.19808 0.7201 0.83556 0.0
C1597 C 0.21968 0.70352 0.84513 0.0
C1598 C 0.13787 0.74079 0.83018 0.0
C1599 C 0.15204 0.76335 0.82872 0.0
C1600 C 0.10245 0.73596 0.82219 0.0
C1601 C 0.08687 0.71229 0.8218 0.0
C1602 C 0.10682 0.69429 0.81338 0.0
C1603 C 0.092 0.672 0.8131 0.0
C1604 C 0.05712 0.66754 0.82106 0.0
C1605 C 0.03694 0.68537 0.82927 0.0
C1606 C 0.05165 0.70768 0.82961 0.0
C1607 C 0.06384 0.81434 0.77071 0.0
C1608 C 0.03845 0.82887 0.77989 0.0
C1609 C 0.08247 0.79719 0.7812 0.0
C1610 C 0.07548 0.79389 0.80094 0.0
C1611 C 0.04914 0.80763 0.81004 0.0
C1612 C 0.03104 0.82516 0.79966 0.0
C1613 C 0.09639 0.77627 0.81202 0.0
C1614 C 0.08202 0.75386 0.81343 0.0
C1615 C 0.13179 0.78108 0.8197 0.0
C1616 C 0.14853 0.80438 0.81811 0.0
C1617 C 0.1321 0.82319 0.82726 0.0
C1618 C 0.14788 0.84516 0.82554 0.0
C1619 C 0.18033 0.84847 0.81488 0.0
C1620 C 0.19704 0.82981 0.8059 0.0
C1621 C 0.18127 0.80782 0.80751 0.0
H1622 H 0.19249 0.8655 0.81355 0.0
H1623 H 0.04569 0.65027 0.82083 0.0
loop_
_geom_bond_atom_site_label_1
_geom_bond_atom_site_label_2
_geom_bond_distance
_geom_bond_site_symmetry_2
_ccdc_geom_bond_type
O0 Cd1 2.300 . S
O0 C7 1.275 . S
Cd1 O0 2.300 . S
Cd1 O9 2.381 . S
Cd1 O10 2.378 . S
O2 Cd3 2.385 . S
O2 C7 1.255 . S
Cd3 O2 2.385 . S
Cd3 O4 2.317 . S
O4 Cd3 2.317 . S
O4 C5 1.232 . S
C5 O4 1.232 . S
C5 O6 1.218 . S
O6 C5 1.218 . S
C7 O0 1.275 . S
C7 O2 1.255 . S
C8 O9 1.258 . S
C8 O10 1.256 . S
O9 Cd1 2.381 . S
O9 C8 1.258 . S
O10 Cd1 2.378 . S
O10 C8 1.256 . S
O11 Cd12 2.300 . S
O11 C18 1.275 . S
Cd12 O11 2.300 . S
Cd12 O20 2.381 . S
Cd12 O21 2.378 . S
O13 Cd14 2.385 . S
O13 C18 1.255 . S
Cd14 O13 2.385 . S
Cd14 O15 2.317 . S
O15 Cd14 2.317 . S
O15 C16 1.232 . S
C16 O15 1.232 . S
C16 O17 1.218 . S
O17 C16 1.218 . S
C18 O11 1.275 . S
C18 O13 1.255 . S
C19 O20 1.258 . S
C19 O21 1.256 . S
O20 Cd12 2.381 . S
O20 C19 1.258 . S
O21 Cd12 2.378 . S
O21 C19 1.256 . S
O22 Cd23 2.300 . S
O22 C29 1.275 . S
Cd23 O22 2.300 . S
Cd23 O31 2.381 . S
Cd23 O32 2.378 . S
O24 Cd25 2.385 . S
O24 C29 1.255 . S
Cd25 O24 2.385 . S
Cd25 O26 2.317 . S
O26 Cd25 2.317 . S
O26 C27 1.232 . S
C27 O26 1.232 . S
C27 O28 1.218 . S
O28 C27 1.218 . S
C29 O22 1.275 . S
C29 O24 1.255 . S
C30 O31 1.258 . S
C30 O32 1.256 . S
O31 Cd23 2.381 . S
O31 C30 1.258 . S
O32 Cd23 2.378 . S
O32 C30 1.256 . S
O33 Cd34 2.300 . S
O33 C40 1.275 . S
Cd34 O33 2.300 . S
Cd34 O42 2.381 . S
Cd34 O43 2.378 . S
O35 Cd36 2.385 . S
O35 C40 1.255 . S
Cd36 O35 2.385 . S
Cd36 O37 2.317 . S
O37 Cd36 2.317 . S
O37 C38 1.232 . S
C38 O37 1.232 . S
C38 O39 1.218 . S
O39 C38 1.218 . S
C40 O33 1.275 . S
C40 O35 1.255 . S
C41 O42 1.258 . S
C41 O43 1.256 . S
O42 Cd34 2.381 . S
O42 C41 1.258 . S
O43 Cd34 2.378 . S
O43 C41 1.256 . S
O44 Cd45 2.300 . S
O44 C51 1.275 . S
Cd45 O44 2.300 . S
Cd45 O53 2.381 . S
Cd45 O54 2.378 . S
O46 Cd47 2.385 . S
O46 C51 1.255 . S
Cd47 O46 2.385 . S
Cd47 O48 2.317 . S
O48 Cd47 2.317 . S
O48 C49 1.232 . S
C49 O48 1.232 . S
C49 O50 1.218 . S
O50 C49 1.218 . S
C51 O44 1.275 . S
C51 O46 1.255 . S
C52 O53 1.258 . S
C52 O54 1.256 . S
O53 Cd45 2.381 . S
O53 C52 1.258 . S
O54 Cd45 2.378 . S
O54 C52 1.256 . S
O55 Cd56 2.300 . S
O55 C62 1.275 . S
Cd56 O55 2.300 . S
Cd56 O64 2.381 . S
Cd56 O65 2.378 . S
O57 Cd58 2.385 . S
O57 C62 1.255 . S
Cd58 O57 2.385 . S
Cd58 O59 2.317 . S
O59 Cd58 2.317 . S
O59 C60 1.232 . S
C60 O59 1.232 . S
C60 O61 1.218 . S
O61 C60 1.218 . S
C62 O55 1.275 . S
C62 O57 1.255 . S
C63 O64 1.258 . S
C63 O65 1.256 . S
O64 Cd56 2.381 . S
O64 C63 1.258 . S
O65 Cd56 2.378 . S
O65 C63 1.256 . S
O66 Cd67 2.300 . S
O66 C73 1.275 . S
Cd67 O66 2.300 . S
Cd67 O75 2.381 . S
Cd67 O76 2.378 . S
O68 Cd69 2.385 . S
O68 C73 1.255 . S
Cd69 O68 2.385 . S
Cd69 O70 2.317 . S
O70 Cd69 2.317 . S
O70 C71 1.232 . S
C71 O70 1.232 . S
C71 O72 1.218 . S
O72 C71 1.218 . S
C73 O66 1.275 . S
C73 O68 1.255 . S
C74 O75 1.258 . S
C74 O76 1.256 . S
O75 Cd67 2.381 . S
O75 C74 1.258 . S
O76 Cd67 2.378 . S
O76 C74 1.256 . S
O77 Cd78 2.300 . S
O77 C84 1.275 . S
Cd78 O77 2.300 . S
Cd78 O86 2.381 . S
Cd78 O87 2.378 . S
O79 Cd80 2.385 . S
O79 C84 1.255 . S
Cd80 O79 2.385 . S
Cd80 O81 2.317 . S
O81 Cd80 2.317 . S
O81 C82 1.232 . S
C82 O81 1.232 . S
C82 O83 1.218 . S
O83 C82 1.218 . S
C84 O77 1.275 . S
C84 O79 1.255 . S
C85 O86 1.258 . S
C85 O87 1.256 . S
O86 Cd78 2.381 . S
O86 C85 1.258 . S
O87 Cd78 2.378 . S
O87 C85 1.256 . S
Eu88 N117 2.600 . S
Eu88 N123 2.562 . S
Eu88 O132 2.462 . S
Eu88 O133 2.373 . S
Eu88 O135 2.432 . S
Eu88 O136 2.291 . S
Eu88 O140 2.335 . S
Eu88 O143 2.372 . S
Eu88 C152 2.787 . S
C89 N90 1.365 . S
C89 C92 1.405 . S
C89 C96 1.448 . S
N90 C89 1.365 . S
N90 C93 1.319 . S
N90 Eu99 2.600 . S
C91 C93 1.397 . S
C91 C94 1.367 . S
C91 H111 0.931 . S
C92 C89 1.405 . S
C92 C94 1.403 . S
C92 C98 1.439 . S
C93 N90 1.319 . S
C93 C91 1.397 . S
C93 H104 0.930 . S
C94 C91 1.367 . S
C94 C92 1.403 . S
C94 H115 0.929 . S
C95 C96 1.430 . S
C95 C97 1.387 . S
C95 C101 1.404 . S
C96 C89 1.448 . S
C96 C95 1.430 . S
C96 N100 1.351 . S
C97 C95 1.387 . S
C97 C98 1.374 . S
C97 H112 0.931 . S
C98 C92 1.439 . S
C98 C97 1.374 . S
C98 H113 0.931 . S
Eu99 N90 2.600 . S
Eu99 N100 2.562 . S
Eu99 O134 2.335 1_655 S
Eu99 O137 2.372 . S
Eu99 O138 2.462 . S
Eu99 O139 2.373 . S
Eu99 O141 2.432 . S
Eu99 O142 2.291 1_655 S
Eu99 C163 2.787 . S
N100 C96 1.351 . S
N100 Eu99 2.562 . S
N100 C102 1.325 . S
C101 C95 1.404 . S
C101 C103 1.366 . S
C101 H109 0.930 . S
C102 N100 1.325 . S
C102 C103 1.416 . S
C102 H108 0.929 . S
C103 C101 1.366 . S
C103 C102 1.416 . S
C103 H105 0.930 . S
H104 C93 0.930 . S
H105 C103 0.930 . S
H106 C121 0.930 . S
H107 C128 0.930 . S
H108 C102 0.929 . S
H109 C101 0.930 . S
H110 C124 0.929 . S
H111 C91 0.931 . S
H112 C97 0.931 . S
H113 C98 0.931 . S
H114 C119 0.931 . S
H115 C94 0.929 . S
H116 C127 0.930 . S
N117 Eu88 2.600 . S
N117 C118 1.365 . S
N117 C121 1.319 . S
C118 N117 1.365 . S
C118 C120 1.405 . S
C118 C126 1.448 . S
C119 H114 0.931 . S
C119 C121 1.397 . S
C119 C122 1.367 . S
C120 C118 1.405 . S
C120 C122 1.403 . S
C120 C153 1.439 . S
C121 H106 0.930 . S
C121 N117 1.319 . S
C121 C119 1.397 . S
C122 C119 1.367 . S
C122 C120 1.403 . S
C122 H129 0.929 . S
N123 Eu88 2.562 . S
N123 C124 1.325 . S
N123 C126 1.351 . S
C124 H110 0.929 . S
C124 N123 1.325 . S
C124 C128 1.416 . S
C125 C126 1.430 . S
C125 C127 1.404 . S
C125 C154 1.387 . S
C126 C118 1.448 . S
C126 N123 1.351 . S
C126 C125 1.430 . S
C127 H116 0.930 . S
C127 C125 1.404 . S
C127 C128 1.366 . S
C128 H107 0.930 . S
C128 C124 1.416 . S
C128 C127 1.366 . S
H129 C122 0.929 . S
H130 C153 0.931 . S
H131 C154 0.931 . S
O132 Eu88 2.462 . S
O132 C152 1.252 . S
O133 Eu88 2.373 . S
O133 C144 1.249 . S
O134 Eu99 2.335 1_455 S
O134 C144 1.264 . S
O135 Eu88 2.432 . S
O135 C152 1.268 . S
O136 Eu88 2.291 . S
O136 C151 1.255 1_455 S
O137 Eu99 2.372 . S
O137 C151 1.257 . S
O138 Eu99 2.462 . S
O138 C163 1.252 . S
O139 Eu99 2.373 . S
O139 C155 1.249 . S
O140 Eu88 2.335 . S
O140 C155 1.264 1_455 S
O141 Eu99 2.432 . S
O141 C163 1.268 . S
O142 Eu99 2.291 1_455 S
O142 C162 1.255 . S
O143 Eu88 2.372 . S
O143 C162 1.257 . S
C144 O133 1.249 . S
C144 O134 1.264 . S
C145 C148 1.382 . S
C145 C150 1.390 . S
C145 C152 1.506 . S
C146 C147 1.398 . S
C146 C150 1.392 . S
C147 C146 1.398 . S
C147 C149 1.372 . S
C147 H164 0.931 . S
C148 C145 1.382 . S
C148 C149 1.390 . S
C148 H165 0.931 . S
C149 C147 1.372 . S
C149 C148 1.390 . S
C149 H166 0.929 . S
C150 C145 1.390 . S
C150 C146 1.392 . S
C150 H167 0.930 . S
C151 O136 1.255 1_655 S
C151 O137 1.257 . S
C152 Eu88 2.787 . S
C152 O132 1.252 . S
C152 O135 1.268 . S
C152 C145 1.506 . S
C153 C120 1.439 . S
C153 H130 0.931 . S
C153 C154 1.374 . S
C154 C125 1.387 . S
C154 H131 0.931 . S
C154 C153 1.374 . S
C155 O139 1.249 . S
C155 O140 1.264 1_655 S
C156 C159 1.382 . S
C156 C160 1.390 . S
C156 C163 1.506 . S
C157 C158 1.398 . S
C157 C160 1.392 . S
C158 C157 1.398 . S
C158 C161 1.372 . S
C158 H168 0.931 . S
C159 C156 1.382 . S
C159 C161 1.390 . S
C159 H169 0.931 . S
C160 C156 1.390 . S
C160 C157 1.392 . S
C160 H170 0.930 . S
C161 C158 1.372 . S
C161 C159 1.390 . S
C161 H171 0.929 . S
C162 O142 1.255 . S
C162 O143 1.257 . S
C163 Eu99 2.787 . S
C163 O138 1.252 . S
C163 O141 1.268 . S
C163 C156 1.506 . S
H164 C147 0.931 . S
H165 C148 0.931 . S
H166 C149 0.929 . S
H167 C150 0.930 . S
H168 C158 0.931 . S
H169 C159 0.931 . S
H170 C160 0.930 . S
H171 C161 0.929 . S
Eu172 N201 2.600 . S
Eu172 N207 2.562 . S
Eu172 O216 2.462 . S
Eu172 O217 2.373 . S
Eu172 O219 2.432 . S
Eu172 O220 2.291 . S
Eu172 O224 2.335 . S
Eu172 O227 2.372 . S
Eu172 C236 2.787 . S
C173 N174 1.365 . S
C173 C176 1.405 . S
C173 C180 1.448 . S
N174 C173 1.365 . S
N174 C177 1.319 . S
N174 Eu183 2.600 . S
C175 C177 1.397 . S
C175 C178 1.367 . S
C175 H195 0.931 . S
C176 C173 1.405 . S
C176 C178 1.403 . S
C176 C182 1.439 . S
C177 N174 1.319 . S
C177 C175 1.397 . S
C177 H188 0.930 . S
C178 C175 1.367 . S
C178 C176 1.403 . S
C178 H199 0.929 . S
C179 C180 1.430 . S
C179 C181 1.387 . S
C179 C185 1.404 . S
C180 C173 1.448 . S
C180 C179 1.430 . S
C180 N184 1.351 . S
C181 C179 1.387 . S
C181 C182 1.374 . S
C181 H196 0.931 . S
C182 C176 1.439 . S
C182 C181 1.374 . S
C182 H197 0.931 . S
Eu183 N174 2.600 . S
Eu183 N184 2.562 . S
Eu183 O218 2.335 . S
Eu183 O221 2.372 . S
Eu183 O222 2.462 . S
Eu183 O223 2.373 . S
Eu183 O225 2.432 . S
Eu183 O226 2.291 . S
Eu183 C247 2.787 . S
N184 C180 1.351 . S
N184 Eu183 2.562 . S
N184 C186 1.325 . S
C185 C179 1.404 . S
C185 C187 1.366 . S
C185 H193 0.930 . S
C186 N184 1.325 . S
C186 C187 1.416 . S
C186 H192 0.929 . S
C187 C185 1.366 . S
C187 C186 1.416 . S
C187 H189 0.930 . S
H188 C177 0.930 . S
H189 C187 0.930 . S
H190 C205 0.930 . S
H191 C212 0.930 . S
H192 C186 0.929 . S
H193 C185 0.930 . S
H194 C208 0.929 . S
H195 C175 0.931 . S
H196 C181 0.931 . S
H197 C182 0.931 . S
H198 C203 0.931 . S
H199 C178 0.929 . S
H200 C211 0.930 . S
N201 Eu172 2.600 . S
N201 C202 1.365 . S
N201 C205 1.319 . S
C202 N201 1.365 . S
C202 C204 1.405 . S
C202 C210 1.448 . S
C203 H198 0.931 . S
C203 C205 1.397 . S
C203 C206 1.367 . S
C204 C202 1.405 . S
C204 C206 1.403 . S
C204 C237 1.439 . S
C205 H190 0.930 . S
C205 N201 1.319 . S
C205 C203 1.397 . S
C206 C203 1.367 . S
C206 C204 1.403 . S
C206 H213 0.929 . S
N207 Eu172 2.562 . S
N207 C208 1.325 . S
N207 C210 1.351 . S
C208 H194 0.929 . S
C208 N207 1.325 . S
C208 C212 1.416 . S
C209 C210 1.430 . S
C209 C211 1.404 . S
C209 C238 1.387 . S
C210 C202 1.448 . S
C210 N207 1.351 . S
C210 C209 1.430 . S
C211 H200 0.930 . S
C211 C209 1.404 . S
C211 C212 1.366 . S
C212 H191 0.930 . S
C212 C208 1.416 . S
C212 C211 1.366 . S
H213 C206 0.929 . S
H214 C237 0.931 . S
H215 C238 0.931 . S
O216 Eu172 2.462 . S
O216 C236 1.252 . S
O217 Eu172 2.373 . S
O217 C228 1.249 . S
O218 Eu183 2.335 . S
O218 C228 1.264 . S
O219 Eu172 2.432 . S
O219 C236 1.268 . S
O220 Eu172 2.291 . S
O220 C235 1.255 . S
O221 Eu183 2.372 . S
O221 C235 1.257 . S
O222 Eu183 2.462 . S
O222 C247 1.252 . S
O223 Eu183 2.373 . S
O223 C239 1.249 . S
O224 Eu172 2.335 . S
O224 C239 1.264 . S
O225 Eu183 2.432 . S
O225 C247 1.268 . S
O226 Eu183 2.291 . S
O226 C246 1.255 . S
O227 Eu172 2.372 . S
O227 C246 1.257 . S
C228 O217 1.249 . S
C228 O218 1.264 . S
C229 C232 1.382 . S
C229 C234 1.390 . S
C229 C236 1.506 . S
C230 C231 1.398 . S
C230 C234 1.392 . S
C231 C230 1.398 . S
C231 C233 1.372 . S
C231 H248 0.931 . S
C232 C229 1.382 . S
C232 C233 1.390 . S
C232 H249 0.931 . S
C233 C231 1.372 . S
C233 C232 1.390 . S
C233 H250 0.929 . S
C234 C229 1.390 . S
C234 C230 1.392 . S
C234 H251 0.930 . S
C235 O220 1.255 . S
C235 O221 1.257 . S
C236 Eu172 2.787 . S
C236 O216 1.252 . S
C236 O219 1.268 . S
C236 C229 1.506 . S
C237 C204 1.439 . S
C237 H214 0.931 . S
C237 C238 1.374 . S
C238 C209 1.387 . S
C238 H215 0.931 . S
C238 C237 1.374 . S
C239 O223 1.249 . S
C239 O224 1.264 . S
C240 C243 1.382 . S
C240 C244 1.390 . S
C240 C247 1.506 . S
C241 C242 1.398 . S
C241 C244 1.392 . S
C242 C241 1.398 . S
C242 C245 1.372 . S
C242 H252 0.931 . S
C243 C240 1.382 . S
C243 C245 1.390 . S
C243 H253 0.931 . S
C244 C240 1.390 . S
C244 C241 1.392 . S
C244 H254 0.930 . S
C245 C242 1.372 . S
C245 C243 1.390 . S
C245 H255 0.929 . S
C246 O226 1.255 . S
C246 O227 1.257 . S
C247 Eu183 2.787 . S
C247 O222 1.252 . S
C247 O225 1.268 . S
C247 C240 1.506 . S
H248 C231 0.931 . S
H249 C232 0.931 . S
H250 C233 0.929 . S
H251 C234 0.930 . S
H252 C242 0.931 . S
H253 C243 0.931 . S
H254 C244 0.930 . S
H255 C245 0.929 . S
Eu256 N285 2.600 . S
Eu256 N291 2.562 . S
Eu256 O300 2.462 . S
Eu256 O301 2.373 . S
Eu256 O303 2.432 . S
Eu256 O304 2.291 . S
Eu256 O308 2.323 1_455 S
Eu256 O311 2.372 . S
Eu256 C320 2.787 . S
C257 N258 1.365 . S
C257 C260 1.405 . S
C257 C264 1.448 . S
N258 C257 1.365 . S
N258 C261 1.319 . S
N258 Eu267 2.600 . S
C259 C261 1.397 . S
C259 C262 1.367 . S
C259 H279 0.931 . S
C260 C257 1.405 . S
C260 C262 1.403 . S
C260 C266 1.439 . S
C261 N258 1.319 . S
C261 C259 1.397 . S
C261 H272 0.930 . S
C262 C259 1.367 . S
C262 C260 1.403 . S
C262 H283 0.929 . S
C263 C264 1.430 . S
C263 C265 1.387 . S
C263 C269 1.404 . S
C264 C257 1.448 . S
C264 C263 1.430 . S
C264 N268 1.351 . S
C265 C263 1.387 . S
C265 C266 1.374 . S
C265 H280 0.931 . S
C266 C260 1.439 . S
C266 C265 1.374 . S
C266 H281 0.931 . S
Eu267 N258 2.600 . S
Eu267 N268 2.562 . S
Eu267 O302 2.335 1_655 S
Eu267 O305 2.372 . S
Eu267 O306 2.462 . S
Eu267 O307 2.373 . S
Eu267 O309 2.432 . S
Eu267 O310 2.304 . S
Eu267 C331 2.787 . S
N268 C264 1.351 . S
N268 Eu267 2.562 . S
N268 C270 1.325 . S
C269 C263 1.404 . S
C269 C271 1.366 . S
C269 H277 0.930 . S
C270 N268 1.325 . S
C270 C271 1.416 . S
C270 H276 0.929 . S
C271 C269 1.366 . S
C271 C270 1.416 . S
C271 H273 0.930 . S
H272 C261 0.930 . S
H273 C271 0.930 . S
H274 C289 0.930 . S
H275 C296 0.930 . S
H276 C270 0.929 . S
H277 C269 0.930 . S
H278 C292 0.929 . S
H279 C259 0.931 . S
H280 C265 0.931 . S
H281 C266 0.931 . S
H282 C287 0.931 . S
H283 C262 0.929 . S
H284 C295 0.930 . S
N285 Eu256 2.600 . S
N285 C286 1.365 . S
N285 C289 1.319 . S
C286 N285 1.365 . S
C286 C288 1.405 . S
C286 C294 1.448 . S
C287 H282 0.931 . S
C287 C289 1.397 . S
C287 C290 1.367 . S
C288 C286 1.405 . S
C288 C290 1.403 . S
C288 C321 1.439 . S
C289 H274 0.930 . S
C289 N285 1.319 . S
C289 C287 1.397 . S
C290 C287 1.367 . S
C290 C288 1.403 . S
C290 H297 0.929 . S
N291 Eu256 2.562 . S
N291 C292 1.325 . S
N291 C294 1.351 . S
C292 H278 0.929 . S
C292 N291 1.325 . S
C292 C296 1.416 . S
C293 C294 1.430 . S
C293 C295 1.404 . S
C293 C322 1.387 . S
C294 C286 1.448 . S
C294 N291 1.351 . S
C294 C293 1.430 . S
C295 H284 0.930 . S
C295 C293 1.404 . S
C295 C296 1.366 . S
C296 H275 0.930 . S
C296 C292 1.416 . S
C296 C295 1.366 . S
H297 C290 0.929 . S
H298 C321 0.931 . S
H299 C322 0.931 . S
O300 Eu256 2.462 . S
O300 C320 1.252 . S
O301 Eu256 2.373 . S
O301 C312 1.249 . S
O302 Eu267 2.335 1_455 S
O302 C312 1.264 . S
O303 Eu256 2.432 . S
O303 C320 1.268 . S
O304 Eu256 2.291 . S
O304 C319 1.255 1_455 S
O305 Eu267 2.372 . S
O305 C319 1.257 . S
O306 Eu267 2.462 . S
O306 C331 1.252 . S
O307 Eu267 2.373 . S
O307 C323 1.249 . S
O308 Eu256 2.323 1_655 S
O308 C323 1.279 . S
O309 Eu267 2.432 . S
O309 C331 1.268 . S
O310 Eu267 2.304 . S
O310 C330 1.240 1_655 S
O311 Eu256 2.372 . S
O311 C330 1.257 . S
C312 O301 1.249 . S
C312 O302 1.264 . S
C313 C316 1.382 . S
C313 C318 1.390 . S
C313 C320 1.506 . S
C314 C315 1.398 . S
C314 C318 1.392 . S
C315 C314 1.398 . S
C315 C317 1.372 . S
C315 H332 0.931 . S
C316 C313 1.382 . S
C316 C317 1.390 . S
C316 H333 0.931 . S
C317 C315 1.372 . S
C317 C316 1.390 . S
C317 H334 0.929 . S
C318 C313 1.390 . S
C318 C314 1.392 . S
C318 H335 0.930 . S
C319 O304 1.255 1_655 S
C319 O305 1.257 . S
C320 Eu256 2.787 . S
C320 O300 1.252 . S
C320 O303 1.268 . S
C320 C313 1.506 . S
C321 C288 1.439 . S
C321 H298 0.931 . S
C321 C322 1.374 . S
C322 C293 1.387 . S
C322 H299 0.931 . S
C322 C321 1.374 . S
C323 O307 1.249 . S
C323 O308 1.279 . S
C324 C327 1.382 . S
C324 C328 1.390 . S
C324 C331 1.506 . S
C325 C326 1.398 . S
C325 C328 1.392 . S
C326 C325 1.398 . S
C326 C329 1.372 . S
C326 H336 0.931 . S
C327 C324 1.382 . S
C327 C329 1.390 . S
C327 H337 0.931 . S
C328 C324 1.390 . S
C328 C325 1.392 . S
C328 H338 0.930 . S
C329 C326 1.372 . S
C329 C327 1.390 . S
C329 H339 0.929 . S
C330 O310 1.240 1_455 S
C330 O311 1.257 . S
C331 Eu267 2.787 . S
C331 O306 1.252 . S
C331 O309 1.268 . S
C331 C324 1.506 . S
H332 C315 0.931 . S
H333 C316 0.931 . S
H334 C317 0.929 . S
H335 C318 0.930 . S
H336 C326 0.931 . S
H337 C327 0.931 . S
H338 C328 0.930 . S
H339 C329 0.929 . S
Eu340 N369 2.600 . S
Eu340 N375 2.562 . S
Eu340 O384 2.462 . S
Eu340 O385 2.373 . S
Eu340 O387 2.432 . S
Eu340 O388 2.291 . S
Eu340 O392 2.335 . S
Eu340 O395 2.372 . S
Eu340 C404 2.787 . S
C341 N342 1.365 . S
C341 C344 1.405 . S
C341 C348 1.448 . S
N342 C341 1.365 . S
N342 C345 1.319 . S
N342 Eu351 2.600 . S
C343 C345 1.397 . S
C343 C346 1.367 . S
C343 H363 0.931 . S
C344 C341 1.405 . S
C344 C346 1.403 . S
C344 C350 1.439 . S
C345 N342 1.319 . S
C345 C343 1.397 . S
C345 H356 0.930 . S
C346 C343 1.367 . S
C346 C344 1.403 . S
C346 H367 0.929 . S
C347 C348 1.430 . S
C347 C349 1.387 . S
C347 C353 1.404 . S
C348 C341 1.448 . S
C348 C347 1.430 . S
C348 N352 1.351 . S
C349 C347 1.387 . S
C349 C350 1.374 . S
C349 H364 0.931 . S
C350 C344 1.439 . S
C350 C349 1.374 . S
C350 H365 0.931 . S
Eu351 N342 2.600 . S
Eu351 N352 2.562 . S
Eu351 O386 2.335 . S
Eu351 O389 2.372 . S
Eu351 O390 2.462 . S
Eu351 O391 2.373 . S
Eu351 O393 2.432 . S
Eu351 O394 2.291 . S
Eu351 C415 2.787 . S
N352 C348 1.351 . S
N352 Eu351 2.562 . S
N352 C354 1.325 . S
C353 C347 1.404 . S
C353 C355 1.366 . S
C353 H361 0.930 . S
C354 N352 1.325 . S
C354 C355 1.416 . S
C354 H360 0.929 . S
C355 C353 1.366 . S
C355 C354 1.416 . S
C355 H357 0.930 . S
H356 C345 0.930 . S
H357 C355 0.930 . S
H358 C373 0.930 . S
H359 C380 0.930 . S
H360 C354 0.929 . S
H361 C353 0.930 . S
H362 C376 0.929 . S
H363 C343 0.931 . S
H364 C349 0.931 . S
H365 C350 0.931 . S
H366 C371 0.931 . S
H367 C346 0.929 . S
H368 C379 0.930 . S
N369 Eu340 2.600 . S
N369 C370 1.365 . S
N369 C373 1.319 . S
C370 N369 1.365 . S
C370 C372 1.405 . S
C370 C378 1.448 . S
C371 H366 0.931 . S
C371 C373 1.397 . S
C371 C374 1.367 . S
C372 C370 1.405 . S
C372 C374 1.403 . S
C372 C405 1.439 . S
C373 H358 0.930 . S
C373 N369 1.319 . S
C373 C371 1.397 . S
C374 C371 1.367 . S
C374 C372 1.403 . S
C374 H381 0.929 . S
N375 Eu340 2.562 . S
N375 C376 1.325 . S
N375 C378 1.351 . S
C376 H362 0.929 . S
C376 N375 1.325 . S
C376 C380 1.416 . S
C377 C378 1.430 . S
C377 C379 1.404 . S
C377 C406 1.387 . S
C378 C370 1.448 . S
C378 N375 1.351 . S
C378 C377 1.430 . S
C379 H368 0.930 . S
C379 C377 1.404 . S
C379 C380 1.366 . S
C380 H359 0.930 . S
C380 C376 1.416 . S
C380 C379 1.366 . S
H381 C374 0.929 . S
H382 C405 0.931 . S
H383 C406 0.931 . S
O384 Eu340 2.462 . S
O384 C404 1.252 . S
O385 Eu340 2.373 . S
O385 C396 1.249 . S
O386 Eu351 2.335 . S
O386 C396 1.264 . S
O387 Eu340 2.432 . S
O387 C404 1.268 . S
O388 Eu340 2.291 . S
O388 C403 1.255 . S
O389 Eu351 2.372 . S
O389 C403 1.257 . S
O390 Eu351 2.462 . S
O390 C415 1.252 . S
O391 Eu351 2.373 . S
O391 C407 1.249 . S
O392 Eu340 2.335 . S
O392 C407 1.264 . S
O393 Eu351 2.432 . S
O393 C415 1.268 . S
O394 Eu351 2.291 . S
O394 C414 1.255 . S
O395 Eu340 2.372 . S
O395 C414 1.257 . S
C396 O385 1.249 . S
C396 O386 1.264 . S
C397 C400 1.382 . S
C397 C402 1.390 . S
C397 C404 1.506 . S
C398 C399 1.398 . S
C398 C402 1.392 . S
C399 C398 1.398 . S
C399 C401 1.372 . S
C399 H416 0.931 . S
C400 C397 1.382 . S
C400 C401 1.390 . S
C400 H417 0.931 . S
C401 C399 1.372 . S
C401 C400 1.390 . S
C401 H418 0.929 . S
C402 C397 1.390 . S
C402 C398 1.392 . S
C402 H419 0.930 . S
C403 O388 1.255 . S
C403 O389 1.257 . S
C404 Eu340 2.787 . S
C404 O384 1.252 . S
C404 O387 1.268 . S
C404 C397 1.506 . S
C405 C372 1.439 . S
C405 H382 0.931 . S
C405 C406 1.374 . S
C406 C377 1.387 . S
C406 H383 0.931 . S
C406 C405 1.374 . S
C407 O391 1.249 . S
C407 O392 1.264 . S
C408 C411 1.382 . S
C408 C412 1.390 . S
C408 C415 1.506 . S
C409 C410 1.398 . S
C409 C412 1.392 . S
C410 C409 1.398 . S
C410 C413 1.372 . S
C410 H420 0.931 . S
C411 C408 1.382 . S
C411 C413 1.390 . S
C411 H421 0.931 . S
C412 C408 1.390 . S
C412 C409 1.392 . S
C412 H422 0.930 . S
C413 C410 1.372 . S
C413 C411 1.390 . S
C413 H423 0.929 . S
C414 O394 1.255 . S
C414 O395 1.257 . S
C415 Eu351 2.787 . S
C415 O390 1.252 . S
C415 O393 1.268 . S
C415 C408 1.506 . S
H416 C399 0.931 . S
H417 C400 0.931 . S
H418 C401 0.929 . S
H419 C402 0.930 . S
H420 C410 0.931 . S
H421 C411 0.931 . S
H422 C412 0.930 . S
H423 C413 0.929 . S
H424 C442 0.951 . S
H425 C444 0.951 . S
H426 C446 0.950 . S
H427 C447 0.950 . S
H428 C449 0.950 . S
H429 C452 0.950 . S
H430 C453 0.950 . S
H431 C455 0.950 . S
H432 C456 0.950 . S
H433 C457 0.951 . S
H434 C459 0.951 . S
H435 C461 0.950 . S
H436 C462 0.950 . S
H437 C464 0.950 . S
H438 C467 0.950 . S
H439 C468 0.950 . S
H440 C470 0.950 . S
H441 C471 0.950 1_565 S
C442 H424 0.951 . S
C442 C443 1.366 . S
C442 C444 1.388 . S
C443 C442 1.366 . S
C443 C447 1.385 . S
C444 H425 0.951 . S
C444 C442 1.388 . S
C444 C445 1.366 . S
C445 C444 1.366 . S
C445 C446 1.414 . S
C445 C448 1.499 . S
C446 H426 0.950 . S
C446 C445 1.414 . S
C446 C447 1.374 . S
C447 H427 0.950 . S
C447 C443 1.385 . S
C447 C446 1.374 . S
C448 C445 1.499 . S
C448 C449 1.373 . S
C448 C450 1.389 . S
C449 H428 0.950 . S
C449 C448 1.373 . S
C449 C465 1.377 . S
C450 C448 1.389 . S
C450 C451 1.524 . S
C450 C464 1.377 . S
C451 C450 1.524 . S
C451 C452 1.397 . S
C451 C456 1.363 . S
C452 H429 0.950 . S
C452 C451 1.397 . S
C452 C453 1.334 . S
C453 H430 0.950 . S
C453 C452 1.334 . S
C453 C454 1.287 . S
C454 C453 1.287 . S
C454 C455 1.524 . S
C454 H473 0.913 . S
C455 H431 0.950 . S
C455 C454 1.524 . S
C455 C456 1.415 . S
C456 H432 0.950 . S
C456 C451 1.363 . S
C456 C455 1.415 . S
C457 H433 0.951 . S
C457 C458 1.366 . S
C457 C459 1.388 . S
C458 C457 1.366 . S
C458 C462 1.385 . S
C459 H434 0.951 . S
C459 C457 1.388 . S
C459 C460 1.366 . S
C460 C459 1.366 . S
C460 C461 1.414 . S
C460 C463 1.489 1_545 S
C461 H435 0.950 . S
C461 C460 1.414 . S
C461 C462 1.374 . S
C462 H436 0.950 . S
C462 C458 1.385 . S
C462 C461 1.374 . S
C463 C460 1.489 1_565 S
C463 C464 1.382 . S
C463 C465 1.391 . S
C464 H437 0.950 . S
C464 C450 1.377 . S
C464 C463 1.382 . S
C465 C449 1.377 . S
C465 C463 1.391 . S
C465 C466 1.524 1_565 S
C466 C465 1.524 1_545 S
C466 C467 1.397 . S
C466 C471 1.363 . S
C467 H438 0.950 . S
C467 C466 1.397 . S
C467 C468 1.334 . S
C468 H439 0.950 . S
C468 C467 1.334 . S
C468 C469 1.287 . S
C469 C468 1.287 . S
C469 C470 1.524 . S
C469 H472 0.999 . S
C470 H440 0.950 . S
C470 C469 1.524 . S
C470 C471 1.415 . S
C471 H441 0.950 1_545 S
C471 C466 1.363 . S
C471 C470 1.415 . S
H472 C469 0.999 . S
H473 C454 0.913 . S
H474 C492 0.951 . S
H475 C494 0.951 . S
H476 C496 0.950 . S
H477 C497 0.950 . S
H478 C499 0.950 . S
H479 C502 0.950 . S
H480 C503 0.950 . S
H481 C505 0.950 . S
H482 C506 0.950 . S
H483 C507 0.951 . S
H484 C509 0.951 . S
H485 C511 0.950 . S
H486 C512 0.950 . S
H487 C514 0.950 . S
H488 C517 0.950 . S
H489 C518 0.950 . S
H490 C520 0.950 . S
H491 C521 0.950 . S
C492 H474 0.951 . S
C492 C493 1.366 . S
C492 C494 1.388 . S
C493 C492 1.366 . S
C493 C497 1.385 . S
C494 H475 0.951 . S
C494 C492 1.388 . S
C494 C495 1.366 . S
C495 C494 1.366 . S
C495 C496 1.414 . S
C495 C498 1.499 . S
C496 H476 0.950 . S
C496 C495 1.414 . S
C496 C497 1.374 . S
C497 H477 0.950 . S
C497 C493 1.385 . S
C497 C496 1.374 . S
C498 C495 1.499 . S
C498 C499 1.373 . S
C498 C500 1.389 . S
C499 H478 0.950 . S
C499 C498 1.373 . S
C499 C515 1.377 . S
C500 C498 1.389 . S
C500 C501 1.524 . S
C500 C514 1.377 . S
C501 C500 1.524 . S
C501 C502 1.397 . S
C501 C506 1.363 . S
C502 H479 0.950 . S
C502 C501 1.397 . S
C502 C503 1.334 . S
C503 H480 0.950 . S
C503 C502 1.334 . S
C503 C504 1.287 . S
C504 C503 1.287 . S
C504 C505 1.524 . S
C504 H523 0.913 . S
C505 H481 0.950 . S
C505 C504 1.524 . S
C505 C506 1.415 . S
C506 H482 0.950 . S
C506 C501 1.363 . S
C506 C505 1.415 . S
C507 H483 0.951 . S
C507 C508 1.366 . S
C507 C509 1.388 . S
C508 C507 1.366 . S
C508 C512 1.385 . S
C509 H484 0.951 . S
C509 C507 1.388 . S
C509 C510 1.366 . S
C510 C509 1.366 . S
C510 C511 1.414 . S
C510 C513 1.499 . S
C511 H485 0.950 . S
C511 C510 1.414 . S
C511 C512 1.374 . S
C512 H486 0.950 . S
C512 C508 1.385 . S
C512 C511 1.374 . S
C513 C510 1.499 . S
C513 C514 1.373 . S
C513 C515 1.389 . S
C514 H487 0.950 . S
C514 C500 1.377 . S
C514 C513 1.373 . S
C515 C499 1.377 . S
C515 C513 1.389 . S
C515 C516 1.524 . S
C516 C515 1.524 . S
C516 C517 1.397 . S
C516 C521 1.363 . S
C517 H488 0.950 . S
C517 C516 1.397 . S
C517 C518 1.334 . S
C518 H489 0.950 . S
C518 C517 1.334 . S
C518 C519 1.287 . S
C519 C518 1.287 . S
C519 C520 1.524 . S
C519 H522 0.999 . S
C520 H490 0.950 . S
C520 C519 1.524 . S
C520 C521 1.415 . S
C521 H491 0.950 . S
C521 C516 1.363 . S
C521 C520 1.415 . S
H522 C519 0.999 . S
H523 C504 0.913 . S
H524 C542 0.951 . S
H525 C544 0.951 . S
H526 C546 0.950 . S
H527 C547 0.950 . S
H528 C549 0.950 . S
H529 C552 0.950 . S
H530 C553 0.950 . S
H531 C555 0.950 . S
H532 C556 0.950 . S
H533 C557 0.951 . S
H534 C559 0.951 . S
H535 C561 0.950 . S
H536 C562 0.950 . S
H537 C564 0.950 . S
H538 C567 0.950 . S
H539 C568 0.950 . S
H540 C570 0.950 . S
H541 C571 0.950 . S
C542 H524 0.951 . S
C542 C543 1.366 . S
C542 C544 1.388 . S
C543 C542 1.366 . S
C543 C547 1.385 . S
C544 H525 0.951 . S
C544 C542 1.388 . S
C544 C545 1.366 . S
C545 C544 1.366 . S
C545 C546 1.414 . S
C545 C548 1.499 . S
C546 H526 0.950 . S
C546 C545 1.414 . S
C546 C547 1.374 . S
C547 H527 0.950 . S
C547 C543 1.385 . S
C547 C546 1.374 . S
C548 C545 1.499 . S
C548 C549 1.373 . S
C548 C550 1.389 . S
C549 H528 0.950 . S
C549 C548 1.373 . S
C549 C565 1.377 . S
C550 C548 1.389 . S
C550 C551 1.524 . S
C550 C564 1.377 . S
C551 C550 1.524 . S
C551 C552 1.397 . S
C551 C556 1.363 . S
C552 H529 0.950 . S
C552 C551 1.397 . S
C552 C553 1.334 . S
C553 H530 0.950 . S
C553 C552 1.334 . S
C553 C554 1.287 . S
C554 C553 1.287 . S
C554 C555 1.524 . S
C554 H573 0.913 . S
C555 H531 0.950 . S
C555 C554 1.524 . S
C555 C556 1.415 . S
C556 H532 0.950 . S
C556 C551 1.363 . S
C556 C555 1.415 . S
C557 H533 0.951 . S
C557 C558 1.366 . S
C557 C559 1.388 . S
C558 C557 1.366 . S
C558 C562 1.385 . S
C559 H534 0.951 . S
C559 C557 1.388 . S
C559 C560 1.366 . S
C560 C559 1.366 . S
C560 C561 1.414 . S
C560 C563 1.499 . S
C561 H535 0.950 . S
C561 C560 1.414 . S
C561 C562 1.374 . S
C562 H536 0.950 . S
C562 C558 1.385 . S
C562 C561 1.374 . S
C563 C560 1.499 . S
C563 C564 1.373 . S
C563 C565 1.389 . S
C564 H537 0.950 . S
C564 C550 1.377 . S
C564 C563 1.373 . S
C565 C549 1.377 . S
C565 C563 1.389 . S
C565 C566 1.524 . S
C566 C565 1.524 . S
C566 C567 1.397 . S
C566 C571 1.363 . S
C567 H538 0.950 . S
C567 C566 1.397 . S
C567 C568 1.334 . S
C568 H539 0.950 . S
C568 C567 1.334 . S
C568 C569 1.287 . S
C569 C568 1.287 . S
C569 C570 1.524 . S
C569 H572 0.999 . S
C570 H540 0.950 . S
C570 C569 1.524 . S
C570 C571 1.415 . S
C571 H541 0.950 . S
C571 C566 1.363 . S
C571 C570 1.415 . S
H572 C569 0.999 . S
H573 C554 0.913 . S
H574 C592 0.951 . S
H575 C594 0.951 . S
H576 C596 0.950 . S
H577 C597 0.950 . S
H578 C599 0.950 . S
H579 C602 0.950 . S
H580 C603 0.950 . S
H581 C605 0.950 . S
H582 C606 0.950 . S
H583 C607 0.951 . S
H584 C609 0.951 . S
H585 C611 0.950 . S
H586 C612 0.950 1_455 S
H587 C614 0.950 . S
H588 C617 0.950 . S
H589 C618 0.950 . S
H590 C620 0.950 . S
H591 C621 0.950 . S
C592 H574 0.951 . S
C592 C593 1.366 . S
C592 C594 1.388 . S
C593 C592 1.366 . S
C593 C597 1.385 . S
C594 H575 0.951 . S
C594 C592 1.388 . S
C594 C595 1.366 . S
C595 C594 1.366 . S
C595 C596 1.414 . S
C595 C598 1.499 . S
C596 H576 0.950 . S
C596 C595 1.414 . S
C596 C597 1.374 . S
C597 H577 0.950 . S
C597 C593 1.385 . S
C597 C596 1.374 . S
C598 C595 1.499 . S
C598 C599 1.373 . S
C598 C600 1.389 . S
C599 H578 0.950 . S
C599 C598 1.373 . S
C599 C615 1.377 1_565 S
C600 C598 1.389 . S
C600 C601 1.524 . S
C600 C614 1.377 . S
C601 C600 1.524 . S
C601 C602 1.397 . S
C601 C606 1.363 . S
C602 H579 0.950 . S
C602 C601 1.397 . S
C602 C603 1.334 . S
C603 H580 0.950 . S
C603 C602 1.334 . S
C603 C604 1.287 . S
C604 C603 1.287 . S
C604 C605 1.524 . S
C604 H623 0.913 . S
C605 H581 0.950 . S
C605 C604 1.524 . S
C605 C606 1.415 . S
C606 H582 0.950 . S
C606 C601 1.363 . S
C606 C605 1.415 . S
C607 H583 0.951 . S
C607 C608 1.366 . S
C607 C609 1.388 . S
C608 C607 1.366 . S
C608 C612 1.385 . S
C609 H584 0.951 . S
C609 C607 1.388 . S
C609 C610 1.366 . S
C610 C609 1.366 . S
C610 C611 1.414 . S
C610 C613 1.499 . S
C611 H585 0.950 . S
C611 C610 1.414 . S
C611 C612 1.374 . S
C612 H586 0.950 1_655 S
C612 C608 1.385 . S
C612 C611 1.374 . S
C613 C610 1.499 . S
C613 C614 1.373 1_545 S
C613 C615 1.389 . S
C614 H587 0.950 . S
C614 C600 1.377 . S
C614 C613 1.373 1_565 S
C615 C599 1.377 1_545 S
C615 C613 1.389 . S
C615 C616 1.524 . S
C616 C615 1.524 . S
C616 C617 1.397 . S
C616 C621 1.363 . S
C617 H588 0.950 . S
C617 C616 1.397 . S
C617 C618 1.334 . S
C618 H589 0.950 . S
C618 C617 1.334 . S
C618 C619 1.287 . S
C619 C618 1.287 . S
C619 C620 1.524 . S
C619 H622 0.999 . S
C620 H590 0.950 . S
C620 C619 1.524 . S
C620 C621 1.415 . S
C621 H591 0.950 . S
C621 C616 1.363 . S
C621 C620 1.415 . S
H622 C619 0.999 . S
H623 C604 0.913 . S
H624 C642 0.951 . S
H625 C644 0.951 . S
H626 C646 0.950 . S
H627 C647 0.950 . S
H628 C649 0.950 . S
H629 C652 0.950 . S
H630 C653 0.950 . S
H631 C655 0.950 1_455 S
H632 C656 0.950 . S
H633 C657 0.951 . S
H634 C659 0.951 . S
H635 C661 0.950 . S
H636 C662 0.976 . S
H637 C664 0.950 . S
H638 C667 0.950 . S
H639 C668 0.950 . S
H640 C670 0.950 . S
H641 C671 0.947 1_565 S
C642 H624 0.951 . S
C642 C643 1.366 . S
C642 C644 1.388 . S
C643 C642 1.366 . S
C643 C647 1.385 . S
C644 H625 0.951 . S
C644 C642 1.388 . S
C644 C645 1.366 . S
C645 C644 1.366 . S
C645 C646 1.414 . S
C645 C648 1.499 . S
C646 H626 0.950 . S
C646 C645 1.414 . S
C646 C647 1.374 . S
C647 H627 0.950 . S
C647 C643 1.385 . S
C647 C646 1.374 . S
C648 C645 1.499 . S
C648 C649 1.373 . S
C648 C650 1.389 . S
C649 H628 0.950 . S
C649 C648 1.373 . S
C649 C665 1.377 . S
C650 C648 1.389 . S
C650 C651 1.524 . S
C650 C664 1.377 . S
C651 C650 1.524 . S
C651 C652 1.397 . S
C651 C656 1.363 . S
C652 H629 0.950 . S
C652 C651 1.397 . S
C652 C653 1.334 . S
C653 H630 0.950 . S
C653 C652 1.334 . S
C653 C654 1.287 . S
C654 C653 1.287 . S
C654 C655 1.524 . S
C654 H673 0.913 . S
C655 H631 0.950 1_655 S
C655 C654 1.524 . S
C655 C656 1.415 . S
C656 H632 0.950 . S
C656 C651 1.363 . S
C656 C655 1.415 . S
C657 H633 0.951 . S
C657 C658 1.366 . S
C657 C659 1.388 . S
C658 C657 1.366 . S
C658 C662 1.385 . S
C659 H634 0.951 . S
C659 C657 1.388 . S
C659 C660 1.366 . S
C660 C659 1.366 . S
C660 C661 1.414 . S
C660 C663 1.473 1_565 S
C661 H635 0.950 . S
C661 C660 1.414 . S
C661 C662 1.374 . S
C662 H636 0.976 . S
C662 C658 1.385 . S
C662 C661 1.374 . S
C663 C660 1.473 1_545 S
C663 C664 1.384 . S
C663 C665 1.404 . S
C664 H637 0.950 . S
C664 C650 1.377 . S
C664 C663 1.384 . S
C665 C649 1.377 . S
C665 C663 1.404 . S
C665 C666 1.524 . S
C666 C665 1.524 . S
C666 C667 1.397 . S
C666 C671 1.365 . S
C667 H638 0.950 . S
C667 C666 1.397 . S
C667 C668 1.334 . S
C668 H639 0.950 . S
C668 C667 1.334 . S
C668 C669 1.294 . S
C669 C668 1.294 . S
C669 C670 1.518 1_545 S
C669 H672 0.994 1_545 S
C670 H640 0.950 . S
C670 C669 1.518 1_565 S
C670 C671 1.414 1_565 S
C671 H641 0.947 1_545 S
C671 C666 1.365 . S
C671 C670 1.414 1_545 S
H672 C669 0.994 1_565 S
H673 C654 0.913 . S
H674 C692 0.951 . S
H675 C694 0.951 . S
H676 C696 0.950 . S
H677 C697 0.950 . S
H678 C699 0.950 . S
H679 C702 0.950 . S
H680 C703 0.950 . S
H681 C705 0.950 . S
H682 C706 0.950 . S
H683 C707 0.951 . S
H684 C709 0.951 . S
H685 C711 0.950 . S
H686 C712 0.950 . S
H687 C714 0.950 . S
H688 C717 0.950 . S
H689 C718 0.950 . S
H690 C720 0.950 . S
H691 C721 0.950 . S
C692 H674 0.951 . S
C692 C693 1.366 . S
C692 C694 1.388 . S
C693 C692 1.366 . S
C693 C697 1.385 . S
C694 H675 0.951 . S
C694 C692 1.388 . S
C694 C695 1.366 . S
C695 C694 1.366 . S
C695 C696 1.414 . S
C695 C698 1.499 . S
C696 H676 0.950 . S
C696 C695 1.414 . S
C696 C697 1.374 . S
C697 H677 0.950 . S
C697 C693 1.385 . S
C697 C696 1.374 . S
C698 C695 1.499 . S
C698 C699 1.373 . S
C698 C700 1.389 . S
C699 H678 0.950 . S
C699 C698 1.373 . S
C699 C715 1.377 . S
C700 C698 1.389 . S
C700 C701 1.524 . S
C700 C714 1.377 . S
C701 C700 1.524 . S
C701 C702 1.397 . S
C701 C706 1.363 . S
C702 H679 0.950 . S
C702 C701 1.397 . S
C702 C703 1.334 . S
C703 H680 0.950 . S
C703 C702 1.334 . S
C703 C704 1.287 . S
C704 C703 1.287 . S
C704 C705 1.524 . S
C704 H723 0.913 . S
C705 H681 0.950 . S
C705 C704 1.524 . S
C705 C706 1.415 . S
C706 H682 0.950 . S
C706 C701 1.363 . S
C706 C705 1.415 . S
C707 H683 0.951 . S
C707 C708 1.366 . S
C707 C709 1.388 . S
C708 C707 1.366 . S
C708 C712 1.385 . S
C709 H684 0.951 . S
C709 C707 1.388 . S
C709 C710 1.366 . S
C710 C709 1.366 . S
C710 C711 1.414 . S
C710 C713 1.499 . S
C711 H685 0.950 . S
C711 C710 1.414 . S
C711 C712 1.374 . S
C712 H686 0.950 . S
C712 C708 1.385 . S
C712 C711 1.374 . S
C713 C710 1.499 . S
C713 C714 1.373 . S
C713 C715 1.389 . S
C714 H687 0.950 . S
C714 C700 1.377 . S
C714 C713 1.373 . S
C715 C699 1.377 . S
C715 C713 1.389 . S
C715 C716 1.524 . S
C716 C715 1.524 . S
C716 C717 1.397 . S
C716 C721 1.363 . S
C717 H688 0.950 . S
C717 C716 1.397 . S
C717 C718 1.334 . S
C718 H689 0.950 . S
C718 C717 1.334 . S
C718 C719 1.287 . S
C719 C718 1.287 . S
C719 C720 1.524 . S
C719 H722 0.999 . S
C720 H690 0.950 . S
C720 C719 1.524 . S
C720 C721 1.415 . S
C721 H691 0.950 . S
C721 C716 1.363 . S
C721 C720 1.415 . S
H722 C719 0.999 . S
H723 C704 0.913 . S
H724 C742 0.951 . S
H725 C744 0.951 . S
H726 C746 0.950 . S
H727 C747 0.950 . S
H728 C749 0.950 . S
H729 C752 0.950 . S
H730 C753 0.950 . S
H731 C755 0.950 . S
H732 C756 0.950 . S
H733 C757 0.951 . S
H734 C759 0.951 . S
H735 C761 0.950 . S
H736 C762 0.950 . S
H737 C764 0.950 . S
H738 C767 0.950 . S
H739 C768 0.950 . S
H740 C770 0.950 . S
H741 C771 0.950 . S
C742 H724 0.951 . S
C742 C743 1.366 . S
C742 C744 1.388 . S
C743 C742 1.366 . S
C743 C747 1.385 . S
C744 H725 0.951 . S
C744 C742 1.388 . S
C744 C745 1.366 . S
C745 C744 1.366 . S
C745 C746 1.414 . S
C745 C748 1.499 . S
C746 H726 0.950 . S
C746 C745 1.414 . S
C746 C747 1.374 . S
C747 H727 0.950 . S
C747 C743 1.385 . S
C747 C746 1.374 . S
C748 C745 1.499 . S
C748 C749 1.373 . S
C748 C750 1.389 . S
C749 H728 0.950 . S
C749 C748 1.373 . S
C749 C765 1.377 . S
C750 C748 1.389 . S
C750 C751 1.524 . S
C750 C764 1.377 . S
C751 C750 1.524 . S
C751 C752 1.397 . S
C751 C756 1.363 . S
C752 H729 0.950 . S
C752 C751 1.397 . S
C752 C753 1.334 . S
C753 H730 0.950 . S
C753 C752 1.334 . S
C753 C754 1.287 . S
C754 C753 1.287 . S
C754 C755 1.524 . S
C754 H773 0.913 . S
C755 H731 0.950 . S
C755 C754 1.524 . S
C755 C756 1.415 . S
C756 H732 0.950 . S
C756 C751 1.363 . S
C756 C755 1.415 . S
C757 H733 0.951 . S
C757 C758 1.366 . S
C757 C759 1.388 . S
C758 C757 1.366 . S
C758 C762 1.385 . S
C759 H734 0.951 . S
C759 C757 1.388 . S
C759 C760 1.366 . S
C760 C759 1.366 . S
C760 C761 1.414 . S
C760 C763 1.499 . S
C761 H735 0.950 . S
C761 C760 1.414 . S
C761 C762 1.374 . S
C762 H736 0.950 . S
C762 C758 1.385 . S
C762 C761 1.374 . S
C763 C760 1.499 . S
C763 C764 1.373 . S
C763 C765 1.389 . S
C764 H737 0.950 . S
C764 C750 1.377 . S
C764 C763 1.373 . S
C765 C749 1.377 . S
C765 C763 1.389 . S
C765 C766 1.524 . S
C766 C765 1.524 . S
C766 C767 1.397 . S
C766 C771 1.363 . S
C767 H738 0.950 . S
C767 C766 1.397 . S
C767 C768 1.334 . S
C768 H739 0.950 . S
C768 C767 1.334 . S
C768 C769 1.287 . S
C769 C768 1.287 . S
C769 C770 1.524 . S
C769 H772 0.999 . S
C770 H740 0.950 . S
C770 C769 1.524 . S
C770 C771 1.415 . S
C771 H741 0.950 . S
C771 C766 1.363 . S
C771 C770 1.415 . S
H772 C769 0.999 . S
H773 C754 0.913 . S
H774 C792 0.951 . S
H775 C794 0.951 . S
H776 C796 0.950 . S
H777 C797 0.950 . S
H778 C799 0.950 . S
H779 C802 0.950 . S
H780 C803 0.950 . S
H781 C805 0.950 . S
H782 C806 0.950 . S
H783 C807 0.951 . S
H784 C809 0.951 . S
H785 C811 0.950 . S
H786 C812 0.950 . S
H787 C814 0.950 . S
H788 C817 0.950 . S
H789 C818 0.950 1_655 S
H790 C820 0.950 . S
H791 C821 0.950 . S
C792 H774 0.951 . S
C792 C793 1.366 . S
C792 C794 1.388 . S
C793 C792 1.366 . S
C793 C797 1.385 . S
C794 H775 0.951 . S
C794 C792 1.388 . S
C794 C795 1.366 . S
C795 C794 1.366 . S
C795 C796 1.414 . S
C795 C798 1.499 . S
C796 H776 0.950 . S
C796 C795 1.414 . S
C796 C797 1.374 . S
C797 H777 0.950 . S
C797 C793 1.385 . S
C797 C796 1.374 . S
C798 C795 1.499 . S
C798 C799 1.373 . S
C798 C800 1.389 . S
C799 H778 0.950 . S
C799 C798 1.373 . S
C799 C815 1.387 . S
C800 C798 1.389 . S
C800 C801 1.524 . S
C800 C814 1.377 1_545 S
C801 C800 1.524 . S
C801 C802 1.397 . S
C801 C806 1.363 1_545 S
C802 H779 0.950 . S
C802 C801 1.397 . S
C802 C803 1.334 . S
C803 H780 0.950 . S
C803 C802 1.334 . S
C803 C804 1.287 . S
C804 C803 1.287 . S
C804 C805 1.524 1_545 S
C804 H823 0.913 . S
C805 H781 0.950 . S
C805 C804 1.524 1_565 S
C805 C806 1.415 . S
C806 H782 0.950 . S
C806 C801 1.363 1_565 S
C806 C805 1.415 . S
C807 H783 0.951 . S
C807 C808 1.366 . S
C807 C809 1.388 . S
C808 C807 1.366 . S
C808 C812 1.385 . S
C809 H784 0.951 . S
C809 C807 1.388 . S
C809 C810 1.366 . S
C810 C809 1.366 . S
C810 C811 1.414 . S
C810 C813 1.499 . S
C811 H785 0.950 . S
C811 C810 1.414 . S
C811 C812 1.374 . S
C812 H786 0.950 . S
C812 C808 1.385 . S
C812 C811 1.374 . S
C813 C810 1.499 . S
C813 C814 1.373 . S
C813 C815 1.381 1_565 S
C814 H787 0.950 . S
C814 C800 1.377 1_565 S
C814 C813 1.373 . S
C815 C799 1.387 . S
C815 C813 1.381 1_545 S
C815 C816 1.522 1_545 S
C816 C815 1.522 1_565 S
C816 C817 1.397 . S
C816 C821 1.363 1_565 S
C817 H788 0.950 . S
C817 C816 1.397 . S
C817 C818 1.334 . S
C818 H789 0.950 1_455 S
C818 C817 1.334 . S
C818 C819 1.287 1_455 S
C819 C818 1.287 1_655 S
C819 C820 1.524 1_565 S
C819 H822 0.999 . S
C820 H790 0.950 . S
C820 C819 1.524 1_545 S
C820 C821 1.415 1_655 S
C821 H791 0.950 . S
C821 C816 1.363 1_545 S
C821 C820 1.415 1_455 S
H822 C819 0.999 . S
H823 C804 0.913 . S
H824 C842 0.951 . S
H825 C844 0.951 . S
H826 C846 0.950 . S
H827 C847 0.950 . S
H828 C849 0.950 . S
H829 C852 0.950 . S
H830 C853 0.950 . S
H831 C855 0.950 . S
H832 C856 0.950 . S
H833 C857 0.951 . S
H834 C859 0.951 . S
H835 C861 0.950 . S
H836 C862 0.950 . S
H837 C864 0.950 . S
H838 C867 0.950 . S
H839 C868 0.950 . S
H840 C870 0.950 . S
H841 C871 0.950 . S
C842 H824 0.951 . S
C842 C843 1.366 . S
C842 C844 1.388 . S
C843 C842 1.366 . S
C843 C847 1.385 . S
C844 H825 0.951 . S
C844 C842 1.388 . S
C844 C845 1.359 1_556 S
C845 C844 1.359 1_554 S
C845 C846 1.409 1_554 S
C845 C848 1.510 . S
C846 H826 0.950 . S
C846 C845 1.409 1_556 S
C846 C847 1.374 . S
C847 H827 0.950 . S
C847 C843 1.385 . S
C847 C846 1.374 . S
C848 C845 1.510 . S
C848 C849 1.373 . S
C848 C850 1.389 . S
C849 H828 0.950 . S
C849 C848 1.373 . S
C849 C865 1.377 . S
C850 C848 1.389 . S
C850 C851 1.524 . S
C850 C864 1.377 . S
C851 C850 1.524 . S
C851 C852 1.397 . S
C851 C856 1.363 . S
C852 H829 0.950 . S
C852 C851 1.397 . S
C852 C853 1.334 . S
C853 H830 0.950 . S
C853 C852 1.334 . S
C853 C854 1.287 . S
C854 C853 1.287 . S
C854 C855 1.524 . S
C854 H873 0.913 . S
C855 H831 0.950 . S
C855 C854 1.524 . S
C855 C856 1.415 . S
C856 H832 0.950 . S
C856 C851 1.363 . S
C856 C855 1.415 . S
C857 H833 0.951 . S
C857 C858 1.366 . S
C857 C859 1.388 . S
C858 C857 1.366 . S
C858 C862 1.385 . S
C859 H834 0.951 . S
C859 C857 1.388 . S
C859 C860 1.366 . S
C860 C859 1.366 . S
C860 C861 1.414 . S
C860 C863 1.499 . S
C861 H835 0.950 . S
C861 C860 1.414 . S
C861 C862 1.374 . S
C862 H836 0.950 . S
C862 C858 1.385 . S
C862 C861 1.374 . S
C863 C860 1.499 . S
C863 C864 1.373 . S
C863 C865 1.389 . S
C864 H837 0.950 . S
C864 C850 1.377 . S
C864 C863 1.373 . S
C865 C849 1.377 . S
C865 C863 1.389 . S
C865 C866 1.524 . S
C866 C865 1.524 . S
C866 C867 1.397 . S
C866 C871 1.363 . S
C867 H838 0.950 . S
C867 C866 1.397 . S
C867 C868 1.334 . S
C868 H839 0.950 . S
C868 C867 1.334 . S
C868 C869 1.287 . S
C869 C868 1.287 . S
C869 C870 1.524 . S
C869 H872 0.999 . S
C870 H840 0.950 . S
C870 C869 1.524 . S
C870 C871 1.415 . S
C871 H841 0.950 . S
C871 C866 1.363 . S
C871 C870 1.415 . S
H872 C869 0.999 . S
H873 C854 0.913 . S
H874 C892 0.951 . S
H875 C894 0.951 . S
H876 C896 0.950 . S
H877 C897 0.950 . S
H878 C899 0.950 . S
H879 C902 0.950 . S
H880 C903 0.950 . S
H881 C905 0.950 . S
H882 C906 0.950 . S
H883 C907 0.951 . S
H884 C909 0.951 . S
H885 C911 0.950 . S
H886 C912 0.950 . S
H887 C914 0.950 . S
H888 C917 0.950 . S
H889 C918 0.950 . S
H890 C920 0.950 . S
H891 C921 0.950 . S
C892 H874 0.951 . S
C892 C893 1.366 . S
C892 C894 1.388 . S
C893 C892 1.366 . S
C893 C897 1.385 . S
C894 H875 0.951 . S
C894 C892 1.388 . S
C894 C895 1.366 . S
C895 C894 1.366 . S
C895 C896 1.414 . S
C895 C898 1.499 . S
C896 H876 0.950 . S
C896 C895 1.414 . S
C896 C897 1.374 . S
C897 H877 0.950 . S
C897 C893 1.385 . S
C897 C896 1.374 . S
C898 C895 1.499 . S
C898 C899 1.373 . S
C898 C900 1.389 . S
C899 H878 0.950 . S
C899 C898 1.373 . S
C899 C915 1.377 . S
C900 C898 1.389 . S
C900 C901 1.524 . S
C900 C914 1.377 . S
C901 C900 1.524 . S
C901 C902 1.397 . S
C901 C906 1.363 . S
C902 H879 0.950 . S
C902 C901 1.397 . S
C902 C903 1.334 . S
C903 H880 0.950 . S
C903 C902 1.334 . S
C903 C904 1.287 . S
C904 C903 1.287 . S
C904 C905 1.524 . S
C904 H923 0.913 . S
C905 H881 0.950 . S
C905 C904 1.524 . S
C905 C906 1.415 . S
C906 H882 0.950 . S
C906 C901 1.363 . S
C906 C905 1.415 . S
C907 H883 0.951 . S
C907 C908 1.366 . S
C907 C909 1.388 . S
C908 C907 1.366 . S
C908 C912 1.385 . S
C909 H884 0.951 . S
C909 C907 1.388 . S
C909 C910 1.366 . S
C910 C909 1.366 . S
C910 C911 1.414 . S
C910 C913 1.499 . S
C911 H885 0.950 . S
C911 C910 1.414 . S
C911 C912 1.374 . S
C912 H886 0.950 . S
C912 C908 1.385 . S
C912 C911 1.374 . S
C913 C910 1.499 . S
C913 C914 1.373 . S
C913 C915 1.389 . S
C914 H887 0.950 . S
C914 C900 1.377 . S
C914 C913 1.373 . S
C915 C899 1.377 . S
C915 C913 1.389 . S
C915 C916 1.524 . S
C916 C915 1.524 . S
C916 C917 1.397 . S
C916 C921 1.363 . S
C917 H888 0.950 . S
C917 C916 1.397 . S
C917 C918 1.334 . S
C918 H889 0.950 . S
C918 C917 1.334 . S
C918 C919 1.287 . S
C919 C918 1.287 . S
C919 C920 1.524 . S
C919 H922 0.999 . S
C920 H890 0.950 . S
C920 C919 1.524 . S
C920 C921 1.415 . S
C921 H891 0.950 . S
C921 C916 1.363 . S
C921 C920 1.415 . S
H922 C919 0.999 . S
H923 C904 0.913 . S
H924 C942 0.951 . S
H925 C944 0.951 . S
H926 C946 0.950 1_556 S
H927 C947 0.950 . S
H928 C949 0.950 . S
H929 C952 0.950 . S
H930 C953 0.950 1_554 S
H931 C955 0.950 . S
H932 C956 0.950 . S
H933 C957 0.951 . S
H934 C959 0.951 . S
H935 C961 0.950 . S
H936 C962 0.950 . S
H937 C964 0.950 . S
H938 C967 0.950 . S
H939 C968 0.950 . S
H940 C970 0.950 . S
H941 C971 0.950 . S
C942 H924 0.951 . S
C942 C943 1.366 . S
C942 C944 1.388 . S
C943 C942 1.366 . S
C943 C947 1.385 . S
C944 H925 0.951 . S
C944 C942 1.388 . S
C944 C945 1.366 . S
C945 C944 1.366 . S
C945 C946 1.414 . S
C945 C948 1.499 1_554 S
C946 H926 0.950 1_554 S
C946 C945 1.414 . S
C946 C947 1.374 . S
C947 H927 0.950 . S
C947 C943 1.385 . S
C947 C946 1.374 . S
C948 C945 1.499 1_556 S
C948 C949 1.373 . S
C948 C950 1.389 . S
C949 H928 0.950 . S
C949 C948 1.373 . S
C949 C965 1.377 . S
C950 C948 1.389 . S
C950 C951 1.524 . S
C950 C964 1.377 . S
C951 C950 1.524 . S
C951 C952 1.397 . S
C951 C956 1.363 . S
C952 H929 0.950 . S
C952 C951 1.397 . S
C952 C953 1.334 . S
C953 H930 0.950 1_556 S
C953 C952 1.334 . S
C953 C954 1.286 . S
C954 C953 1.286 . S
C954 C955 1.523 . S
C954 H973 0.915 1_556 S
C955 H931 0.950 . S
C955 C954 1.523 . S
C955 C956 1.415 . S
C956 H932 0.950 . S
C956 C951 1.363 . S
C956 C955 1.415 . S
C957 H933 0.951 . S
C957 C958 1.366 . S
C957 C959 1.388 . S
C958 C957 1.366 . S
C958 C962 1.385 . S
C959 H934 0.951 . S
C959 C957 1.388 . S
C959 C960 1.366 . S
C960 C959 1.366 . S
C960 C961 1.414 . S
C960 C963 1.499 . S
C961 H935 0.950 . S
C961 C960 1.414 . S
C961 C962 1.374 . S
C962 H936 0.950 . S
C962 C958 1.385 . S
C962 C961 1.374 . S
C963 C960 1.499 . S
C963 C964 1.373 . S
C963 C965 1.389 . S
C964 H937 0.950 . S
C964 C950 1.377 . S
C964 C963 1.373 . S
C965 C949 1.377 . S
C965 C963 1.389 . S
C965 C966 1.524 . S
C966 C965 1.524 . S
C966 C967 1.397 . S
C966 C971 1.363 . S
C967 H938 0.950 . S
C967 C966 1.397 . S
C967 C968 1.334 . S
C968 H939 0.950 . S
C968 C967 1.334 . S
C968 C969 1.287 . S
C969 C968 1.287 . S
C969 C970 1.524 . S
C969 H972 0.999 . S
C970 H940 0.950 . S
C970 C969 1.524 . S
C970 C971 1.415 . S
C971 H941 0.950 . S
C971 C966 1.363 . S
C971 C970 1.415 . S
H972 C969 0.999 . S
H973 C954 0.915 1_554 S
H974 C992 0.951 . S
H975 C994 0.951 . S
H976 C996 0.950 . S
H977 C997 0.950 . S
H978 C999 0.950 . S
H979 C1002 0.950 . S
H980 C1003 0.950 . S
H981 C1005 0.950 1_455 S
H982 C1006 0.950 . S
H983 C1007 0.951 . S
H984 C1009 0.951 . S
H985 C1011 0.950 . S
H986 C1012 0.950 . S
H987 C1014 0.950 . S
H988 C1017 0.950 . S
H989 C1018 0.950 . S
H990 C1020 0.950 . S
H991 C1021 0.950 . S
C992 H974 0.951 . S
C992 C993 1.366 . S
C992 C994 1.388 . S
C993 C992 1.366 . S
C993 C997 1.385 . S
C994 H975 0.951 . S
C994 C992 1.388 . S
C994 C995 1.366 . S
C995 C994 1.366 . S
C995 C996 1.414 . S
C995 C998 1.499 . S
C996 H976 0.950 . S
C996 C995 1.414 . S
C996 C997 1.374 . S
C997 H977 0.950 . S
C997 C993 1.385 . S
C997 C996 1.374 . S
C998 C995 1.499 . S
C998 C999 1.373 . S
C998 C1000 1.389 . S
C999 H978 0.950 . S
C999 C998 1.373 . S
C999 C1015 1.377 . S
C1000 C998 1.389 . S
C1000 C1001 1.524 . S
C1000 C1014 1.377 . S
C1001 C1000 1.524 . S
C1001 C1002 1.397 . S
C1001 C1006 1.363 . S
C1002 H979 0.950 . S
C1002 C1001 1.397 . S
C1002 C1003 1.334 . S
C1003 H980 0.950 . S
C1003 C1002 1.334 . S
C1003 C1004 1.287 . S
C1004 C1003 1.287 . S
C1004 C1005 1.524 . S
C1004 H1023 0.913 1_655 S
C1005 H981 0.950 1_655 S
C1005 C1004 1.524 . S
C1005 C1006 1.415 . S
C1006 H982 0.950 . S
C1006 C1001 1.363 . S
C1006 C1005 1.415 . S
C1007 H983 0.951 . S
C1007 C1008 1.366 . S
C1007 C1009 1.388 . S
C1008 C1007 1.366 . S
C1008 C1012 1.385 . S
C1009 H984 0.951 . S
C1009 C1007 1.388 . S
C1009 C1010 1.366 . S
C1010 C1009 1.366 . S
C1010 C1011 1.414 . S
C1010 C1013 1.499 . S
C1011 H985 0.950 . S
C1011 C1010 1.414 . S
C1011 C1012 1.374 . S
C1012 H986 0.950 . S
C1012 C1008 1.385 . S
C1012 C1011 1.374 . S
C1013 C1010 1.499 . S
C1013 C1014 1.373 . S
C1013 C1015 1.389 . S
C1014 H987 0.950 . S
C1014 C1000 1.377 . S
C1014 C1013 1.373 . S
C1015 C999 1.377 . S
C1015 C1013 1.389 . S
C1015 C1016 1.524 . S
C1016 C1015 1.524 . S
C1016 C1017 1.397 . S
C1016 C1021 1.363 . S
C1017 H988 0.950 . S
C1017 C1016 1.397 . S
C1017 C1018 1.334 . S
C1018 H989 0.950 . S
C1018 C1017 1.334 . S
C1018 C1019 1.287 . S
C1019 C1018 1.287 . S
C1019 C1020 1.524 . S
C1019 H1022 0.999 . S
C1020 H990 0.950 . S
C1020 C1019 1.524 . S
C1020 C1021 1.415 . S
C1021 H991 0.950 . S
C1021 C1016 1.363 . S
C1021 C1020 1.415 . S
H1022 C1019 0.999 . S
H1023 C1004 0.913 1_455 S
H1024 C1042 0.951 . S
H1025 C1044 0.951 . S
H1026 C1046 0.950 . S
H1027 C1047 0.950 . S
H1028 C1049 0.950 . S
H1029 C1052 0.950 . S
H1030 C1053 0.950 . S
H1031 C1055 0.950 . S
H1032 C1056 0.950 . S
H1033 C1057 0.951 . S
H1034 C1059 0.951 . S
H1035 C1061 0.950 . S
H1036 C1062 0.950 . S
H1037 C1064 0.950 . S
H1038 C1067 0.950 . S
H1039 C1068 0.950 . S
H1040 C1070 0.950 . S
H1041 C1071 0.950 . S
C1042 H1024 0.951 . S
C1042 C1043 1.366 . S
C1042 C1044 1.388 1_554 S
C1043 C1042 1.366 . S
C1043 C1047 1.385 . S
C1044 H1025 0.951 . S
C1044 C1042 1.388 1_556 S
C1044 C1045 1.366 . S
C1045 C1044 1.366 . S
C1045 C1046 1.414 1_556 S
C1045 C1048 1.499 . S
C1046 H1026 0.950 . S
C1046 C1045 1.414 1_554 S
C1046 C1047 1.374 . S
C1047 H1027 0.950 . S
C1047 C1043 1.385 . S
C1047 C1046 1.374 . S
C1048 C1045 1.499 . S
C1048 C1049 1.373 . S
C1048 C1050 1.389 . S
C1049 H1028 0.950 . S
C1049 C1048 1.373 . S
C1049 C1065 1.377 . S
C1050 C1048 1.389 . S
C1050 C1051 1.524 . S
C1050 C1064 1.377 . S
C1051 C1050 1.524 . S
C1051 C1052 1.397 . S
C1051 C1056 1.363 . S
C1052 H1029 0.950 . S
C1052 C1051 1.397 . S
C1052 C1053 1.334 . S
C1053 H1030 0.950 . S
C1053 C1052 1.334 . S
C1053 C1054 1.287 . S
C1054 C1053 1.287 . S
C1054 C1055 1.524 . S
C1054 H1073 0.913 . S
C1055 H1031 0.950 . S
C1055 C1054 1.524 . S
C1055 C1056 1.415 . S
C1056 H1032 0.950 . S
C1056 C1051 1.363 . S
C1056 C1055 1.415 . S
C1057 H1033 0.951 . S
C1057 C1058 1.366 . S
C1057 C1059 1.388 . S
C1058 C1057 1.366 . S
C1058 C1062 1.385 . S
C1059 H1034 0.951 . S
C1059 C1057 1.388 . S
C1059 C1060 1.366 . S
C1060 C1059 1.366 . S
C1060 C1061 1.414 . S
C1060 C1063 1.499 . S
C1061 H1035 0.950 . S
C1061 C1060 1.414 . S
C1061 C1062 1.374 . S
C1062 H1036 0.950 . S
C1062 C1058 1.385 . S
C1062 C1061 1.374 . S
C1063 C1060 1.499 . S
C1063 C1064 1.373 . S
C1063 C1065 1.389 . S
C1064 H1037 0.950 . S
C1064 C1050 1.377 . S
C1064 C1063 1.373 . S
C1065 C1049 1.377 . S
C1065 C1063 1.389 . S
C1065 C1066 1.524 . S
C1066 C1065 1.524 . S
C1066 C1067 1.397 . S
C1066 C1071 1.363 . S
C1067 H1038 0.950 . S
C1067 C1066 1.397 . S
C1067 C1068 1.334 . S
C1068 H1039 0.950 . S
C1068 C1067 1.334 . S
C1068 C1069 1.287 . S
C1069 C1068 1.287 . S
C1069 C1070 1.524 . S
C1069 H1072 0.999 . S
C1070 H1040 0.950 . S
C1070 C1069 1.524 . S
C1070 C1071 1.415 . S
C1071 H1041 0.950 . S
C1071 C1066 1.363 . S
C1071 C1070 1.415 . S
H1072 C1069 0.999 . S
H1073 C1054 0.913 . S
H1074 C1092 0.951 . S
H1075 C1094 0.951 . S
H1076 C1096 0.950 . S
H1077 C1097 0.950 . S
H1078 C1099 0.950 . S
H1079 C1102 0.950 . S
H1080 C1103 0.950 . S
H1081 C1105 0.950 . S
H1082 C1106 0.950 . S
H1083 C1107 0.951 . S
H1084 C1109 0.951 . S
H1085 C1111 0.950 . S
H1086 C1112 0.950 . S
H1087 C1114 0.950 . S
H1088 C1117 0.950 . S
H1089 C1118 0.950 . S
H1090 C1120 0.950 . S
H1091 C1121 0.950 . S
C1092 H1074 0.951 . S
C1092 C1093 1.366 . S
C1092 C1094 1.388 . S
C1093 C1092 1.366 . S
C1093 C1097 1.385 . S
C1094 H1075 0.951 . S
C1094 C1092 1.388 . S
C1094 C1095 1.366 . S
C1095 C1094 1.366 . S
C1095 C1096 1.414 . S
C1095 C1098 1.499 . S
C1096 H1076 0.950 . S
C1096 C1095 1.414 . S
C1096 C1097 1.374 . S
C1097 H1077 0.950 . S
C1097 C1093 1.385 . S
C1097 C1096 1.374 . S
C1098 C1095 1.499 . S
C1098 C1099 1.373 . S
C1098 C1100 1.389 . S
C1099 H1078 0.950 . S
C1099 C1098 1.373 . S
C1099 C1115 1.377 . S
C1100 C1098 1.389 . S
C1100 C1101 1.524 . S
C1100 C1114 1.377 . S
C1101 C1100 1.524 . S
C1101 C1102 1.397 . S
C1101 C1106 1.363 . S
C1102 H1079 0.950 . S
C1102 C1101 1.397 . S
C1102 C1103 1.334 . S
C1103 H1080 0.950 . S
C1103 C1102 1.334 . S
C1103 C1104 1.287 . S
C1104 C1103 1.287 . S
C1104 C1105 1.524 . S
C1104 H1123 0.913 . S
C1105 H1081 0.950 . S
C1105 C1104 1.524 . S
C1105 C1106 1.415 . S
C1106 H1082 0.950 . S
C1106 C1101 1.363 . S
C1106 C1105 1.415 . S
C1107 H1083 0.951 . S
C1107 C1108 1.366 . S
C1107 C1109 1.388 . S
C1108 C1107 1.366 . S
C1108 C1112 1.385 . S
C1109 H1084 0.951 . S
C1109 C1107 1.388 . S
C1109 C1110 1.366 . S
C1110 C1109 1.366 . S
C1110 C1111 1.414 . S
C1110 C1113 1.499 . S
C1111 H1085 0.950 . S
C1111 C1110 1.414 . S
C1111 C1112 1.374 . S
C1112 H1086 0.950 . S
C1112 C1108 1.385 . S
C1112 C1111 1.374 . S
C1113 C1110 1.499 . S
C1113 C1114 1.373 . S
C1113 C1115 1.389 . S
C1114 H1087 0.950 . S
C1114 C1100 1.377 . S
C1114 C1113 1.373 . S
C1115 C1099 1.377 . S
C1115 C1113 1.389 . S
C1115 C1116 1.524 . S
C1116 C1115 1.524 . S
C1116 C1117 1.397 . S
C1116 C1121 1.363 . S
C1117 H1088 0.950 . S
C1117 C1116 1.397 . S
C1117 C1118 1.334 . S
C1118 H1089 0.950 . S
C1118 C1117 1.334 . S
C1118 C1119 1.287 . S
C1119 C1118 1.287 . S
C1119 C1120 1.524 . S
C1119 H1122 0.999 . S
C1120 H1090 0.950 . S
C1120 C1119 1.524 . S
C1120 C1121 1.415 . S
C1121 H1091 0.950 . S
C1121 C1116 1.363 . S
C1121 C1120 1.415 . S
H1122 C1119 0.999 . S
H1123 C1104 0.913 . S
H1124 C1142 0.951 . S
H1125 C1144 0.979 . S
H1126 C1146 0.952 1_554 S
H1127 C1147 0.950 . S
H1128 C1149 0.950 . S
H1129 C1152 0.950 . S
H1130 C1153 0.950 . S
H1131 C1155 0.950 . S
H1132 C1156 0.950 . S
H1133 C1157 0.951 . S
H1134 C1159 0.951 . S
H1135 C1161 0.950 . S
H1136 C1162 0.950 . S
H1137 C1164 0.950 . S
H1138 C1167 0.950 . S
H1139 C1168 0.950 . S
H1140 C1170 0.950 . S
H1141 C1171 0.950 . S
C1142 H1124 0.951 . S
C1142 C1143 1.366 . S
C1142 C1144 1.343 1_556 S
C1143 C1142 1.366 . S
C1143 C1147 1.385 . S
C1144 H1125 0.979 . S
C1144 C1142 1.343 1_554 S
C1144 C1145 1.385 . S
C1145 C1144 1.385 . S
C1145 C1146 1.414 1_554 S
C1145 C1148 1.499 . S
C1146 H1126 0.952 1_556 S
C1146 C1145 1.414 1_556 S
C1146 C1147 1.374 . S
C1147 H1127 0.950 . S
C1147 C1143 1.385 . S
C1147 C1146 1.374 . S
C1148 C1145 1.499 . S
C1148 C1149 1.373 . S
C1148 C1150 1.389 . S
C1149 H1128 0.950 . S
C1149 C1148 1.373 . S
C1149 C1165 1.377 . S
C1150 C1148 1.389 . S
C1150 C1151 1.524 . S
C1150 C1164 1.377 . S
C1151 C1150 1.524 . S
C1151 C1152 1.397 . S
C1151 C1156 1.363 . S
C1152 H1129 0.950 . S
C1152 C1151 1.397 . S
C1152 C1153 1.334 . S
C1153 H1130 0.950 . S
C1153 C1152 1.334 . S
C1153 C1154 1.287 . S
C1154 C1153 1.287 . S
C1154 C1155 1.524 . S
C1154 H1173 0.913 . S
C1155 H1131 0.950 . S
C1155 C1154 1.524 . S
C1155 C1156 1.415 . S
C1156 H1132 0.950 . S
C1156 C1151 1.363 . S
C1156 C1155 1.415 . S
C1157 H1133 0.951 . S
C1157 C1158 1.366 . S
C1157 C1159 1.388 . S
C1158 C1157 1.366 . S
C1158 C1162 1.385 . S
C1159 H1134 0.951 . S
C1159 C1157 1.388 . S
C1159 C1160 1.366 . S
C1160 C1159 1.366 . S
C1160 C1161 1.414 . S
C1160 C1163 1.499 . S
C1161 H1135 0.950 . S
C1161 C1160 1.414 . S
C1161 C1162 1.374 . S
C1162 H1136 0.950 . S
C1162 C1158 1.385 . S
C1162 C1161 1.374 . S
C1163 C1160 1.499 . S
C1163 C1164 1.373 . S
C1163 C1165 1.389 . S
C1164 H1137 0.950 . S
C1164 C1150 1.377 . S
C1164 C1163 1.373 . S
C1165 C1149 1.377 . S
C1165 C1163 1.389 . S
C1165 C1166 1.524 . S
C1166 C1165 1.524 . S
C1166 C1167 1.397 . S
C1166 C1171 1.363 . S
C1167 H1138 0.950 . S
C1167 C1166 1.397 . S
C1167 C1168 1.334 . S
C1168 H1139 0.950 . S
C1168 C1167 1.334 . S
C1168 C1169 1.287 . S
C1169 C1168 1.287 . S
C1169 C1170 1.524 . S
C1169 H1172 0.999 . S
C1170 H1140 0.950 . S
C1170 C1169 1.524 . S
C1170 C1171 1.415 . S
C1171 H1141 0.950 . S
C1171 C1166 1.363 . S
C1171 C1170 1.415 . S
H1172 C1169 0.999 . S
H1173 C1154 0.913 . S
H1174 C1192 0.951 . S
H1175 C1194 0.951 . S
H1176 C1196 0.950 . S
H1177 C1197 0.950 . S
H1178 C1199 0.950 . S
H1179 C1202 0.950 . S
H1180 C1203 0.950 . S
H1181 C1205 0.950 . S
H1182 C1206 0.950 . S
H1183 C1207 0.951 . S
H1184 C1209 0.951 . S
H1185 C1211 0.950 . S
H1186 C1212 0.950 . S
H1187 C1214 0.950 . S
H1188 C1217 0.950 . S
H1189 C1218 0.950 . S
H1190 C1220 0.950 . S
H1191 C1221 0.950 . S
C1192 H1174 0.951 . S
C1192 C1193 1.366 . S
C1192 C1194 1.388 . S
C1193 C1192 1.366 . S
C1193 C1197 1.385 . S
C1194 H1175 0.951 . S
C1194 C1192 1.388 . S
C1194 C1195 1.366 . S
C1195 C1194 1.366 . S
C1195 C1196 1.414 . S
C1195 C1198 1.499 . S
C1196 H1176 0.950 . S
C1196 C1195 1.414 . S
C1196 C1197 1.374 . S
C1197 H1177 0.950 . S
C1197 C1193 1.385 . S
C1197 C1196 1.374 . S
C1198 C1195 1.499 . S
C1198 C1199 1.373 . S
C1198 C1200 1.389 . S
C1199 H1178 0.950 . S
C1199 C1198 1.373 . S
C1199 C1215 1.377 . S
C1200 C1198 1.389 . S
C1200 C1201 1.524 . S
C1200 C1214 1.377 . S
C1201 C1200 1.524 . S
C1201 C1202 1.397 . S
C1201 C1206 1.363 . S
C1202 H1179 0.950 . S
C1202 C1201 1.397 . S
C1202 C1203 1.334 . S
C1203 H1180 0.950 . S
C1203 C1202 1.334 . S
C1203 C1204 1.287 . S
C1204 C1203 1.287 . S
C1204 C1205 1.524 . S
C1204 H1223 0.913 . S
C1205 H1181 0.950 . S
C1205 C1204 1.524 . S
C1205 C1206 1.415 . S
C1206 H1182 0.950 . S
C1206 C1201 1.363 . S
C1206 C1205 1.415 . S
C1207 H1183 0.951 . S
C1207 C1208 1.366 . S
C1207 C1209 1.388 . S
C1208 C1207 1.366 . S
C1208 C1212 1.385 . S
C1209 H1184 0.951 . S
C1209 C1207 1.388 . S
C1209 C1210 1.366 . S
C1210 C1209 1.366 . S
C1210 C1211 1.414 . S
C1210 C1213 1.499 . S
C1211 H1185 0.950 . S
C1211 C1210 1.414 . S
C1211 C1212 1.374 . S
C1212 H1186 0.950 . S
C1212 C1208 1.385 . S
C1212 C1211 1.374 . S
C1213 C1210 1.499 . S
C1213 C1214 1.373 . S
C1213 C1215 1.389 . S
C1214 H1187 0.950 . S
C1214 C1200 1.377 . S
C1214 C1213 1.373 . S
C1215 C1199 1.377 . S
C1215 C1213 1.389 . S
C1215 C1216 1.524 . S
C1216 C1215 1.524 . S
C1216 C1217 1.397 . S
C1216 C1221 1.363 . S
C1217 H1188 0.950 . S
C1217 C1216 1.397 . S
C1217 C1218 1.334 . S
C1218 H1189 0.950 . S
C1218 C1217 1.334 . S
C1218 C1219 1.287 . S
C1219 C1218 1.287 . S
C1219 C1220 1.524 . S
C1219 H1222 0.999 . S
C1220 H1190 0.950 . S
C1220 C1219 1.524 . S
C1220 C1221 1.415 . S
C1221 H1191 0.950 . S
C1221 C1216 1.363 . S
C1221 C1220 1.415 . S
H1222 C1219 0.999 . S
H1223 C1204 0.913 . S
H1224 C1242 0.951 . S
H1225 C1244 0.951 . S
H1226 C1246 0.950 . S
H1227 C1247 0.950 . S
H1228 C1249 0.950 . S
H1229 C1252 0.950 . S
H1230 C1253 0.950 . S
H1231 C1255 0.950 . S
H1232 C1256 0.950 . S
H1233 C1257 0.951 . S
H1234 C1259 0.951 . S
H1235 C1261 0.950 . S
H1236 C1262 0.950 . S
H1237 C1264 0.950 . S
H1238 C1267 0.950 . S
H1239 C1268 0.950 . S
H1240 C1270 0.950 . S
H1241 C1271 0.950 . S
C1242 H1224 0.951 . S
C1242 C1243 1.366 . S
C1242 C1244 1.388 . S
C1243 C1242 1.366 . S
C1243 C1247 1.385 . S
C1244 H1225 0.951 . S
C1244 C1242 1.388 . S
C1244 C1245 1.366 . S
C1245 C1244 1.366 . S
C1245 C1246 1.414 . S
C1245 C1248 1.499 . S
C1246 H1226 0.950 . S
C1246 C1245 1.414 . S
C1246 C1247 1.374 . S
C1247 H1227 0.950 . S
C1247 C1243 1.385 . S
C1247 C1246 1.374 . S
C1248 C1245 1.499 . S
C1248 C1249 1.373 . S
C1248 C1250 1.389 . S
C1249 H1228 0.950 . S
C1249 C1248 1.373 . S
C1249 C1265 1.377 . S
C1250 C1248 1.389 . S
C1250 C1251 1.524 . S
C1250 C1264 1.377 . S
C1251 C1250 1.524 . S
C1251 C1252 1.397 . S
C1251 C1256 1.363 . S
C1252 H1229 0.950 . S
C1252 C1251 1.397 . S
C1252 C1253 1.334 . S
C1253 H1230 0.950 . S
C1253 C1252 1.334 . S
C1253 C1254 1.287 . S
C1254 C1253 1.287 . S
C1254 C1255 1.524 . S
C1254 H1273 0.913 . S
C1255 H1231 0.950 . S
C1255 C1254 1.524 . S
C1255 C1256 1.415 . S
C1256 H1232 0.950 . S
C1256 C1251 1.363 . S
C1256 C1255 1.415 . S
C1257 H1233 0.951 . S
C1257 C1258 1.366 . S
C1257 C1259 1.388 . S
C1258 C1257 1.366 . S
C1258 C1262 1.385 . S
C1259 H1234 0.951 . S
C1259 C1257 1.388 . S
C1259 C1260 1.366 . S
C1260 C1259 1.366 . S
C1260 C1261 1.414 . S
C1260 C1263 1.499 . S
C1261 H1235 0.950 . S
C1261 C1260 1.414 . S
C1261 C1262 1.374 . S
C1262 H1236 0.950 . S
C1262 C1258 1.385 . S
C1262 C1261 1.374 . S
C1263 C1260 1.499 . S
C1263 C1264 1.373 . S
C1263 C1265 1.389 . S
C1264 H1237 0.950 . S
C1264 C1250 1.377 . S
C1264 C1263 1.373 . S
C1265 C1249 1.377 . S
C1265 C1263 1.389 . S
C1265 C1266 1.524 . S
C1266 C1265 1.524 . S
C1266 C1267 1.397 . S
C1266 C1271 1.363 . S
C1267 H1238 0.950 . S
C1267 C1266 1.397 . S
C1267 C1268 1.334 . S
C1268 H1239 0.950 . S
C1268 C1267 1.334 . S
C1268 C1269 1.287 . S
C1269 C1268 1.287 . S
C1269 C1270 1.524 . S
C1269 H1272 0.999 . S
C1270 H1240 0.950 . S
C1270 C1269 1.524 . S
C1270 C1271 1.415 . S
C1271 H1241 0.950 . S
C1271 C1266 1.363 . S
C1271 C1270 1.415 . S
H1272 C1269 0.999 . S
H1273 C1254 0.913 . S
H1274 C1292 0.951 . S
H1275 C1294 0.951 . S
H1276 C1296 0.950 . S
H1277 C1297 0.950 . S
H1278 C1299 0.950 . S
H1279 C1302 0.950 . S
H1280 C1303 0.950 . S
H1281 C1305 0.950 . S
H1282 C1306 0.950 . S
H1283 C1307 0.951 . S
H1284 C1309 0.951 . S
H1285 C1311 0.950 . S
H1286 C1312 0.950 . S
H1287 C1314 0.950 . S
H1288 C1317 0.950 . S
H1289 C1318 0.950 . S
H1290 C1320 0.950 . S
H1291 C1321 0.950 . S
C1292 H1274 0.951 . S
C1292 C1293 1.366 . S
C1292 C1294 1.388 . S
C1293 C1292 1.366 . S
C1293 C1297 1.385 . S
C1294 H1275 0.951 . S
C1294 C1292 1.388 . S
C1294 C1295 1.366 . S
C1295 C1294 1.366 . S
C1295 C1296 1.414 . S
C1295 C1298 1.499 . S
C1296 H1276 0.950 . S
C1296 C1295 1.414 . S
C1296 C1297 1.374 . S
C1297 H1277 0.950 . S
C1297 C1293 1.385 . S
C1297 C1296 1.374 . S
C1298 C1295 1.499 . S
C1298 C1299 1.373 . S
C1298 C1300 1.389 . S
C1299 H1278 0.950 . S
C1299 C1298 1.373 . S
C1299 C1315 1.377 . S
C1300 C1298 1.389 . S
C1300 C1301 1.524 . S
C1300 C1314 1.377 . S
C1301 C1300 1.524 . S
C1301 C1302 1.397 . S
C1301 C1306 1.363 . S
C1302 H1279 0.950 . S
C1302 C1301 1.397 . S
C1302 C1303 1.334 . S
C1303 H1280 0.950 . S
C1303 C1302 1.334 . S
C1303 C1304 1.287 . S
C1304 C1303 1.287 . S
C1304 C1305 1.524 . S
C1304 H1323 0.913 . S
C1305 H1281 0.950 . S
C1305 C1304 1.524 . S
C1305 C1306 1.415 . S
C1306 H1282 0.950 . S
C1306 C1301 1.363 . S
C1306 C1305 1.415 . S
C1307 H1283 0.951 . S
C1307 C1308 1.366 . S
C1307 C1309 1.388 . S
C1308 C1307 1.366 . S
C1308 C1312 1.385 . S
C1309 H1284 0.951 . S
C1309 C1307 1.388 . S
C1309 C1310 1.366 . S
C1310 C1309 1.366 . S
C1310 C1311 1.414 . S
C1310 C1313 1.499 . S
C1311 H1285 0.950 . S
C1311 C1310 1.414 . S
C1311 C1312 1.374 . S
C1312 H1286 0.950 . S
C1312 C1308 1.385 . S
C1312 C1311 1.374 . S
C1313 C1310 1.499 . S
C1313 C1314 1.373 . S
C1313 C1315 1.389 . S
C1314 H1287 0.950 . S
C1314 C1300 1.377 . S
C1314 C1313 1.373 . S
C1315 C1299 1.377 . S
C1315 C1313 1.389 . S
C1315 C1316 1.524 . S
C1316 C1315 1.524 . S
C1316 C1317 1.397 . S
C1316 C1321 1.363 . S
C1317 H1288 0.950 . S
C1317 C1316 1.397 . S
C1317 C1318 1.334 . S
C1318 H1289 0.950 . S
C1318 C1317 1.334 . S
C1318 C1319 1.287 . S
C1319 C1318 1.287 . S
C1319 C1320 1.524 . S
C1319 H1322 0.999 . S
C1320 H1290 0.950 . S
C1320 C1319 1.524 . S
C1320 C1321 1.415 . S
C1321 H1291 0.950 . S
C1321 C1316 1.363 . S
C1321 C1320 1.415 . S
H1322 C1319 0.999 . S
H1323 C1304 0.913 . S
H1324 C1342 0.951 . S
H1325 C1344 0.951 . S
H1326 C1346 0.950 . S
H1327 C1347 0.950 . S
H1328 C1349 0.950 . S
H1329 C1352 0.950 . S
H1330 C1353 0.950 . S
H1331 C1355 0.950 . S
H1332 C1356 0.950 . S
H1333 C1357 0.951 . S
H1334 C1359 0.951 . S
H1335 C1361 0.950 . S
H1336 C1362 0.950 . S
H1337 C1364 0.950 . S
H1338 C1367 0.950 . S
H1339 C1368 0.950 . S
H1340 C1370 0.950 . S
H1341 C1371 0.950 . S
C1342 H1324 0.951 . S
C1342 C1343 1.366 . S
C1342 C1344 1.388 . S
C1343 C1342 1.366 . S
C1343 C1347 1.385 . S
C1344 H1325 0.951 . S
C1344 C1342 1.388 . S
C1344 C1345 1.366 . S
C1345 C1344 1.366 . S
C1345 C1346 1.414 . S
C1345 C1348 1.499 . S
C1346 H1326 0.950 . S
C1346 C1345 1.414 . S
C1346 C1347 1.374 . S
C1347 H1327 0.950 . S
C1347 C1343 1.385 . S
C1347 C1346 1.374 . S
C1348 C1345 1.499 . S
C1348 C1349 1.373 . S
C1348 C1350 1.389 . S
C1349 H1328 0.950 . S
C1349 C1348 1.373 . S
C1349 C1365 1.377 . S
C1350 C1348 1.389 . S
C1350 C1351 1.524 . S
C1350 C1364 1.377 . S
C1351 C1350 1.524 . S
C1351 C1352 1.397 . S
C1351 C1356 1.363 . S
C1352 H1329 0.950 . S
C1352 C1351 1.397 . S
C1352 C1353 1.334 . S
C1353 H1330 0.950 . S
C1353 C1352 1.334 . S
C1353 C1354 1.287 . S
C1354 C1353 1.287 . S
C1354 C1355 1.524 . S
C1354 H1373 0.913 . S
C1355 H1331 0.950 . S
C1355 C1354 1.524 . S
C1355 C1356 1.415 . S
C1356 H1332 0.950 . S
C1356 C1351 1.363 . S
C1356 C1355 1.415 . S
C1357 H1333 0.951 . S
C1357 C1358 1.366 . S
C1357 C1359 1.388 . S
C1358 C1357 1.366 . S
C1358 C1362 1.385 . S
C1359 H1334 0.951 . S
C1359 C1357 1.388 . S
C1359 C1360 1.366 . S
C1360 C1359 1.366 . S
C1360 C1361 1.414 . S
C1360 C1363 1.499 . S
C1361 H1335 0.950 . S
C1361 C1360 1.414 . S
C1361 C1362 1.374 . S
C1362 H1336 0.950 . S
C1362 C1358 1.385 . S
C1362 C1361 1.374 . S
C1363 C1360 1.499 . S
C1363 C1364 1.373 . S
C1363 C1365 1.389 . S
C1364 H1337 0.950 . S
C1364 C1350 1.377 . S
C1364 C1363 1.373 . S
C1365 C1349 1.377 . S
C1365 C1363 1.389 . S
C1365 C1366 1.524 . S
C1366 C1365 1.524 . S
C1366 C1367 1.397 . S
C1366 C1371 1.363 . S
C1367 H1338 0.950 . S
C1367 C1366 1.397 . S
C1367 C1368 1.334 . S
C1368 H1339 0.950 . S
C1368 C1367 1.334 . S
C1368 C1369 1.287 . S
C1369 C1368 1.287 . S
C1369 C1370 1.524 . S
C1369 H1372 0.999 . S
C1370 H1340 0.950 . S
C1370 C1369 1.524 . S
C1370 C1371 1.415 . S
C1371 H1341 0.950 . S
C1371 C1366 1.363 . S
C1371 C1370 1.415 . S
H1372 C1369 0.999 . S
H1373 C1354 0.913 . S
H1374 C1392 0.951 . S
H1375 C1394 0.951 . S
H1376 C1396 0.950 . S
H1377 C1397 0.950 . S
H1378 C1399 0.950 . S
H1379 C1402 0.950 . S
H1380 C1403 0.950 . S
H1381 C1405 0.950 . S
H1382 C1406 0.950 . S
H1383 C1407 0.951 . S
H1384 C1409 0.951 . S
H1385 C1411 0.950 . S
H1386 C1412 0.950 1_455 S
H1387 C1414 0.950 . S
H1388 C1417 0.950 . S
H1389 C1418 0.950 . S
H1390 C1420 0.950 . S
H1391 C1421 0.950 . S
C1392 H1374 0.951 . S
C1392 C1393 1.366 . S
C1392 C1394 1.388 . S
C1393 C1392 1.366 . S
C1393 C1397 1.385 . S
C1394 H1375 0.951 . S
C1394 C1392 1.388 . S
C1394 C1395 1.366 . S
C1395 C1394 1.366 . S
C1395 C1396 1.414 . S
C1395 C1398 1.499 . S
C1396 H1376 0.950 . S
C1396 C1395 1.414 . S
C1396 C1397 1.374 . S
C1397 H1377 0.950 . S
C1397 C1393 1.385 . S
C1397 C1396 1.374 . S
C1398 C1395 1.499 . S
C1398 C1399 1.373 . S
C1398 C1400 1.389 . S
C1399 H1378 0.950 . S
C1399 C1398 1.373 . S
C1399 C1415 1.377 . S
C1400 C1398 1.389 . S
C1400 C1401 1.524 . S
C1400 C1414 1.377 . S
C1401 C1400 1.524 . S
C1401 C1402 1.397 . S
C1401 C1406 1.363 . S
C1402 H1379 0.950 . S
C1402 C1401 1.397 . S
C1402 C1403 1.334 . S
C1403 H1380 0.950 . S
C1403 C1402 1.334 . S
C1403 C1404 1.287 . S
C1404 C1403 1.287 . S
C1404 C1405 1.524 1_655 S
C1404 H1423 0.913 1_655 S
C1405 H1381 0.950 . S
C1405 C1404 1.524 1_455 S
C1405 C1406 1.415 1_455 S
C1406 H1382 0.950 . S
C1406 C1401 1.363 . S
C1406 C1405 1.415 1_655 S
C1407 H1383 0.951 . S
C1407 C1408 1.366 . S
C1407 C1409 1.388 . S
C1408 C1407 1.366 . S
C1408 C1412 1.385 . S
C1409 H1384 0.951 . S
C1409 C1407 1.388 . S
C1409 C1410 1.366 . S
C1410 C1409 1.366 . S
C1410 C1411 1.414 . S
C1410 C1413 1.499 . S
C1411 H1385 0.950 . S
C1411 C1410 1.414 . S
C1411 C1412 1.374 . S
C1412 H1386 0.950 1_655 S
C1412 C1408 1.385 . S
C1412 C1411 1.374 . S
C1413 C1410 1.499 . S
C1413 C1414 1.373 . S
C1413 C1415 1.389 . S
C1414 H1387 0.950 . S
C1414 C1400 1.377 . S
C1414 C1413 1.373 . S
C1415 C1399 1.377 . S
C1415 C1413 1.389 . S
C1415 C1416 1.524 . S
C1416 C1415 1.524 . S
C1416 C1417 1.397 . S
C1416 C1421 1.363 . S
C1417 H1388 0.950 . S
C1417 C1416 1.397 . S
C1417 C1418 1.334 . S
C1418 H1389 0.950 . S
C1418 C1417 1.334 . S
C1418 C1419 1.287 . S
C1419 C1418 1.287 . S
C1419 C1420 1.524 . S
C1419 H1422 0.999 . S
C1420 H1390 0.950 . S
C1420 C1419 1.524 . S
C1420 C1421 1.415 . S
C1421 H1391 0.950 . S
C1421 C1416 1.363 . S
C1421 C1420 1.415 . S
H1422 C1419 0.999 . S
H1423 C1404 0.913 1_455 S
H1424 C1442 0.951 . S
H1425 C1444 0.951 . S
H1426 C1446 0.950 . S
H1427 C1447 0.950 . S
H1428 C1449 0.950 . S
H1429 C1452 0.950 . S
H1430 C1453 0.950 . S
H1431 C1455 0.950 . S
H1432 C1456 0.950 . S
H1433 C1457 0.951 . S
H1434 C1459 0.951 . S
H1435 C1461 0.950 . S
H1436 C1462 0.950 . S
H1437 C1464 0.950 . S
H1438 C1467 0.950 . S
H1439 C1468 0.950 . S
H1440 C1470 0.950 . S
H1441 C1471 0.950 . S
C1442 H1424 0.951 . S
C1442 C1443 1.366 . S
C1442 C1444 1.388 . S
C1443 C1442 1.366 . S
C1443 C1447 1.385 . S
C1444 H1425 0.951 . S
C1444 C1442 1.388 . S
C1444 C1445 1.366 . S
C1445 C1444 1.366 . S
C1445 C1446 1.414 . S
C1445 C1448 1.499 . S
C1446 H1426 0.950 . S
C1446 C1445 1.414 . S
C1446 C1447 1.374 . S
C1447 H1427 0.950 . S
C1447 C1443 1.385 . S
C1447 C1446 1.374 . S
C1448 C1445 1.499 . S
C1448 C1449 1.373 . S
C1448 C1450 1.389 . S
C1449 H1428 0.950 . S
C1449 C1448 1.373 . S
C1449 C1465 1.377 . S
C1450 C1448 1.389 . S
C1450 C1451 1.524 . S
C1450 C1464 1.377 . S
C1451 C1450 1.524 . S
C1451 C1452 1.397 . S
C1451 C1456 1.363 . S
C1452 H1429 0.950 . S
C1452 C1451 1.397 . S
C1452 C1453 1.334 . S
C1453 H1430 0.950 . S
C1453 C1452 1.334 . S
C1453 C1454 1.287 . S
C1454 C1453 1.287 . S
C1454 C1455 1.524 . S
C1454 H1473 0.913 . S
C1455 H1431 0.950 . S
C1455 C1454 1.524 . S
C1455 C1456 1.415 . S
C1456 H1432 0.950 . S
C1456 C1451 1.363 . S
C1456 C1455 1.415 . S
C1457 H1433 0.951 . S
C1457 C1458 1.366 . S
C1457 C1459 1.388 . S
C1458 C1457 1.366 . S
C1458 C1462 1.385 . S
C1459 H1434 0.951 . S
C1459 C1457 1.388 . S
C1459 C1460 1.366 . S
C1460 C1459 1.366 . S
C1460 C1461 1.414 . S
C1460 C1463 1.499 . S
C1461 H1435 0.950 . S
C1461 C1460 1.414 . S
C1461 C1462 1.374 . S
C1462 H1436 0.950 . S
C1462 C1458 1.385 . S
C1462 C1461 1.374 . S
C1463 C1460 1.499 . S
C1463 C1464 1.373 . S
C1463 C1465 1.389 . S
C1464 H1437 0.950 . S
C1464 C1450 1.377 . S
C1464 C1463 1.373 . S
C1465 C1449 1.377 . S
C1465 C1463 1.389 . S
C1465 C1466 1.524 . S
C1466 C1465 1.524 . S
C1466 C1467 1.397 . S
C1466 C1471 1.363 . S
C1467 H1438 0.950 . S
C1467 C1466 1.397 . S
C1467 C1468 1.334 . S
C1468 H1439 0.950 . S
C1468 C1467 1.334 . S
C1468 C1469 1.287 . S
C1469 C1468 1.287 . S
C1469 C1470 1.524 . S
C1469 H1472 0.999 . S
C1470 H1440 0.950 . S
C1470 C1469 1.524 . S
C1470 C1471 1.415 . S
C1471 H1441 0.950 . S
C1471 C1466 1.363 . S
C1471 C1470 1.415 . S
H1472 C1469 0.999 . S
H1473 C1454 0.913 . S
H1474 C1492 0.951 . S
H1475 C1494 0.951 . S
H1476 C1496 0.950 . S
H1477 C1497 0.950 . S
H1478 C1499 0.950 . S
H1479 C1502 0.950 . S
H1480 C1503 0.950 . S
H1481 C1505 0.950 . S
H1482 C1506 0.950 . S
H1483 C1507 0.951 . S
H1484 C1509 0.951 . S
H1485 C1511 0.950 . S
H1486 C1512 0.950 . S
H1487 C1514 0.950 . S
H1488 C1517 0.950 . S
H1489 C1518 0.950 . S
H1490 C1520 0.950 . S
H1491 C1521 0.950 . S
C1492 H1474 0.951 . S
C1492 C1493 1.366 . S
C1492 C1494 1.388 . S
C1493 C1492 1.366 . S
C1493 C1497 1.385 . S
C1494 H1475 0.951 . S
C1494 C1492 1.388 . S
C1494 C1495 1.366 . S
C1495 C1494 1.366 . S
C1495 C1496 1.414 . S
C1495 C1498 1.499 . S
C1496 H1476 0.950 . S
C1496 C1495 1.414 . S
C1496 C1497 1.374 . S
C1497 H1477 0.950 . S
C1497 C1493 1.385 . S
C1497 C1496 1.374 . S
C1498 C1495 1.499 . S
C1498 C1499 1.373 . S
C1498 C1500 1.389 . S
C1499 H1478 0.950 . S
C1499 C1498 1.373 . S
C1499 C1515 1.377 . S
C1500 C1498 1.389 . S
C1500 C1501 1.524 . S
C1500 C1514 1.377 . S
C1501 C1500 1.524 . S
C1501 C1502 1.397 . S
C1501 C1506 1.363 . S
C1502 H1479 0.950 . S
C1502 C1501 1.397 . S
C1502 C1503 1.334 . S
C1503 H1480 0.950 . S
C1503 C1502 1.334 . S
C1503 C1504 1.287 . S
C1504 C1503 1.287 . S
C1504 C1505 1.524 . S
C1504 H1523 0.913 . S
C1505 H1481 0.950 . S
C1505 C1504 1.524 . S
C1505 C1506 1.415 . S
C1506 H1482 0.950 . S
C1506 C1501 1.363 . S
C1506 C1505 1.415 . S
C1507 H1483 0.951 . S
C1507 C1508 1.366 . S
C1507 C1509 1.388 . S
C1508 C1507 1.366 . S
C1508 C1512 1.385 . S
C1509 H1484 0.951 . S
C1509 C1507 1.388 . S
C1509 C1510 1.366 . S
C1510 C1509 1.366 . S
C1510 C1511 1.414 . S
C1510 C1513 1.499 . S
C1511 H1485 0.950 . S
C1511 C1510 1.414 . S
C1511 C1512 1.374 . S
C1512 H1486 0.950 . S
C1512 C1508 1.385 . S
C1512 C1511 1.374 . S
C1513 C1510 1.499 . S
C1513 C1514 1.373 . S
C1513 C1515 1.389 . S
C1514 H1487 0.950 . S
C1514 C1500 1.377 . S
C1514 C1513 1.373 . S
C1515 C1499 1.377 . S
C1515 C1513 1.389 . S
C1515 C1516 1.524 . S
C1516 C1515 1.524 . S
C1516 C1517 1.397 . S
C1516 C1521 1.363 . S
C1517 H1488 0.950 . S
C1517 C1516 1.397 . S
C1517 C1518 1.334 . S
C1518 H1489 0.950 . S
C1518 C1517 1.334 . S
C1518 C1519 1.287 . S
C1519 C1518 1.287 . S
C1519 C1520 1.524 . S
C1519 H1522 0.999 . S
C1520 H1490 0.950 . S
C1520 C1519 1.524 . S
C1520 C1521 1.415 . S
C1521 H1491 0.950 . S
C1521 C1516 1.363 . S
C1521 C1520 1.415 . S
H1522 C1519 0.999 . S
H1523 C1504 0.913 . S
H1524 C1542 0.951 . S
H1525 C1544 0.951 . S
H1526 C1546 0.950 . S
H1527 C1547 0.950 . S
H1528 C1549 0.950 . S
H1529 C1552 0.950 . S
H1530 C1553 0.950 . S
H1531 C1555 0.950 . S
H1532 C1556 0.950 . S
H1533 C1557 0.951 . S
H1534 C1559 0.951 . S
H1535 C1561 0.950 . S
H1536 C1562 0.950 . S
H1537 C1564 0.950 . S
H1538 C1567 0.950 . S
H1539 C1568 0.950 . S
H1540 C1570 0.950 . S
H1541 C1571 0.950 . S
C1542 H1524 0.951 . S
C1542 C1543 1.366 . S
C1542 C1544 1.388 . S
C1543 C1542 1.366 . S
C1543 C1547 1.385 . S
C1544 H1525 0.951 . S
C1544 C1542 1.388 . S
C1544 C1545 1.366 . S
C1545 C1544 1.366 . S
C1545 C1546 1.414 . S
C1545 C1548 1.499 . S
C1546 H1526 0.950 . S
C1546 C1545 1.414 . S
C1546 C1547 1.374 . S
C1547 H1527 0.950 . S
C1547 C1543 1.385 . S
C1547 C1546 1.374 . S
C1548 C1545 1.499 . S
C1548 C1549 1.373 . S
C1548 C1550 1.389 . S
C1549 H1528 0.950 . S
C1549 C1548 1.373 . S
C1549 C1565 1.377 . S
C1550 C1548 1.389 . S
C1550 C1551 1.524 . S
C1550 C1564 1.377 . S
C1551 C1550 1.524 . S
C1551 C1552 1.397 . S
C1551 C1556 1.363 . S
C1552 H1529 0.950 . S
C1552 C1551 1.397 . S
C1552 C1553 1.334 . S
C1553 H1530 0.950 . S
C1553 C1552 1.334 . S
C1553 C1554 1.287 . S
C1554 C1553 1.287 . S
C1554 C1555 1.524 . S
C1554 H1573 0.913 . S
C1555 H1531 0.950 . S
C1555 C1554 1.524 . S
C1555 C1556 1.415 . S
C1556 H1532 0.950 . S
C1556 C1551 1.363 . S
C1556 C1555 1.415 . S
C1557 H1533 0.951 . S
C1557 C1558 1.366 . S
C1557 C1559 1.388 . S
C1558 C1557 1.366 . S
C1558 C1562 1.385 . S
C1559 H1534 0.951 . S
C1559 C1557 1.388 . S
C1559 C1560 1.366 . S
C1560 C1559 1.366 . S
C1560 C1561 1.414 . S
C1560 C1563 1.499 . S
C1561 H1535 0.950 . S
C1561 C1560 1.414 . S
C1561 C1562 1.374 . S
C1562 H1536 0.950 . S
C1562 C1558 1.385 . S
C1562 C1561 1.374 . S
C1563 C1560 1.499 . S
C1563 C1564 1.373 . S
C1563 C1565 1.389 . S
C1564 H1537 0.950 . S
C1564 C1550 1.377 . S
C1564 C1563 1.373 . S
C1565 C1549 1.377 . S
C1565 C1563 1.389 . S
C1565 C1566 1.524 . S
C1566 C1565 1.524 . S
C1566 C1567 1.397 . S
C1566 C1571 1.363 . S
C1567 H1538 0.950 . S
C1567 C1566 1.397 . S
C1567 C1568 1.334 . S
C1568 H1539 0.950 . S
C1568 C1567 1.334 . S
C1568 C1569 1.287 . S
C1569 C1568 1.287 . S
C1569 C1570 1.524 . S
C1569 H1572 0.999 . S
C1570 H1540 0.950 . S
C1570 C1569 1.524 . S
C1570 C1571 1.415 . S
C1571 H1541 0.950 . S
C1571 C1566 1.363 . S
C1571 C1570 1.415 . S
H1572 C1569 0.999 . S
H1573 C1554 0.913 . S
H1574 C1592 0.951 . S
H1575 C1594 0.951 . S
H1576 C1596 0.950 . S
H1577 C1597 0.950 . S
H1578 C1599 0.950 . S
H1579 C1602 0.950 . S
H1580 C1603 0.950 . S
H1581 C1605 0.950 1_655 S
H1582 C1606 0.950 . S
H1583 C1607 0.951 . S
H1584 C1609 0.951 . S
H1585 C1611 0.950 . S
H1586 C1612 0.950 . S
H1587 C1614 0.950 . S
H1588 C1617 0.950 . S
H1589 C1618 0.950 . S
H1590 C1620 0.950 . S
H1591 C1621 0.950 . S
C1592 H1574 0.951 . S
C1592 C1593 1.366 . S
C1592 C1594 1.388 . S
C1593 C1592 1.366 . S
C1593 C1597 1.385 . S
C1594 H1575 0.951 . S
C1594 C1592 1.388 . S
C1594 C1595 1.366 . S
C1595 C1594 1.366 . S
C1595 C1596 1.414 . S
C1595 C1598 1.499 . S
C1596 H1576 0.950 . S
C1596 C1595 1.414 . S
C1596 C1597 1.374 . S
C1597 H1577 0.950 . S
C1597 C1593 1.385 . S
C1597 C1596 1.374 . S
C1598 C1595 1.499 . S
C1598 C1599 1.373 . S
C1598 C1600 1.389 . S
C1599 H1578 0.950 . S
C1599 C1598 1.373 . S
C1599 C1615 1.377 . S
C1600 C1598 1.389 . S
C1600 C1601 1.524 . S
C1600 C1614 1.377 . S
C1601 C1600 1.524 . S
C1601 C1602 1.397 . S
C1601 C1606 1.363 . S
C1602 H1579 0.950 . S
C1602 C1601 1.397 . S
C1602 C1603 1.334 . S
C1603 H1580 0.950 . S
C1603 C1602 1.334 . S
C1603 C1604 1.287 . S
C1604 C1603 1.287 . S
C1604 C1605 1.524 . S
C1604 H1623 0.913 . S
C1605 H1581 0.950 1_455 S
C1605 C1604 1.524 . S
C1605 C1606 1.415 . S
C1606 H1582 0.950 . S
C1606 C1601 1.363 . S
C1606 C1605 1.415 . S
C1607 H1583 0.951 . S
C1607 C1608 1.366 . S
C1607 C1609 1.388 . S
C1608 C1607 1.366 . S
C1608 C1612 1.385 . S
C1609 H1584 0.951 . S
C1609 C1607 1.388 . S
C1609 C1610 1.366 . S
C1610 C1609 1.366 . S
C1610 C1611 1.414 . S
C1610 C1613 1.499 . S
C1611 H1585 0.950 . S
C1611 C1610 1.414 . S
C1611 C1612 1.374 . S
C1612 H1586 0.950 . S
C1612 C1608 1.385 . S
C1612 C1611 1.374 . S
C1613 C1610 1.499 . S
C1613 C1614 1.373 . S
C1613 C1615 1.389 . S
C1614 H1587 0.950 . S
C1614 C1600 1.377 . S
C1614 C1613 1.373 . S
C1615 C1599 1.377 . S
C1615 C1613 1.389 . S
C1615 C1616 1.524 . S
C1616 C1615 1.524 . S
C1616 C1617 1.397 . S
C1616 C1621 1.363 . S
C1617 H1588 0.950 . S
C1617 C1616 1.397 . S
C1617 C1618 1.334 . S
C1618 H1589 0.950 . S
C1618 C1617 1.334 . S
C1618 C1619 1.287 . S
C1619 C1618 1.287 . S
C1619 C1620 1.524 . S
C1619 H1622 0.999 . S
C1620 H1590 0.950 . S
C1620 C1619 1.524 . S
C1620 C1621 1.415 . S
C1621 H1591 0.950 . S
C1621 C1616 1.363 . S
C1621 C1620 1.415 . S
H1622 C1619 0.999 . S
H1623 C1604 0.913 . S
C443 C73 1.618 . S
C458 C162 1.652 . S
C508 C246 1.773 . S
C493 C84 1.757 . S
C558 C239 1.654 . S
C543 C51 1.607 . S
C593 C62 1.750 . S
C608 C155 1.785 . S
C658 C319 1.657 . S
C643 C29 1.603 . S
C708 C403 1.580 . S
C693 C38 1.459 . S
C743 C7 1.587 . S
C758 C396 1.662 . S
C793 C16 1.462 . S
C808 C312 1.581 . S
C858 C146 1.515 . S
C843 C18 1.665 . S
C908 C230 1.544 . S
C893 C5 1.454 . S
C958 C241 1.488 . S
C943 C40 1.676 . S
C1008 C157 1.515 . S
C993 C27 1.472 . S
C1058 C325 1.342 . S
C1043 C60 1.354 . S
C1093 C49 1.367 . S
C1108 C409 1.371 . S
C1158 C398 1.337 . S
C1143 C82 1.364 . S
C1193 C71 1.374 . S
C1208 C314 1.356 . S
C1258 C144 1.699 . S
C1243 C8 1.677 . S
C1308 C228 1.567 . S
C1293 C19 1.564 . S
C1343 C30 1.679 . S
C1358 C235 1.678 . S
C1408 C151 1.540 . S
C1393 C41 1.555 . S
C1458 C323 1.418 . S
C1443 C52 1.417 . S
C1493 C63 1.571 . S
C1508 C407 1.570 . S
C1543 C74 1.411 . S
C1558 C414 1.388 . S
C1593 C85 1.564 . S
C1608 C330 1.536 . S
