# Generated by pormake.
# Topology pyr, (3,6)-cn, num edge types: 1
# Building blocks:
#     Node 0, Type 0, BuildingBlock: OLANEW_clean_sbu_2, # of connection points: 3
#     Node 1, Type 0, BuildingBlock: OLANEW_clean_sbu_2, # of connection points: 3
#     Node 2, Type 0, BuildingBlock: OLANEW_clean_sbu_2, # of connection points: 3
#     Node 3, Type 0, BuildingBlock: OLANEW_clean_sbu_2, # of connection points: 3
#     Node 4, Type 0, BuildingBlock: OLANEW_clean_sbu_2, # of connection points: 3
#     Node 5, Type 0, BuildingBlock: OLANEW_clean_sbu_2, # of connection points: 3
#     Node 6, Type 0, BuildingBlock: OLANEW_clean_sbu_2, # of connection points: 3
#     Node 7, Type 0, BuildingBlock: OLANEW_clean_sbu_2, # of connection points: 3
#     Node 8, Type 1, BuildingBlock: MIDCAF_clean_sbu_0, # of connection points: 6
#     Node 9, Type 1, BuildingBlock: MIDCAF_clean_sbu_0, # of connection points: 6
#     Node 10, Type 1, BuildingBlock: MIDCAF_clean_sbu_0, # of connection points: 6
#     Node 11, Type 1, BuildingBlock: MIDCAF_clean_sbu_0, # of connection points: 6
#     Edge 12, Type (0, 1), BuildingBlock: XUDNAN_clean_linker_2, # of connection points: 2
#     Edge 13, Type (0, 1), BuildingBlock: XUDNAN_clean_linker_2, # of connection points: 2
#     Edge 14, Type (0, 1), BuildingBlock: XUDNAN_clean_linker_2, # of connection points: 2
#     Edge 15, Type (0, 1), BuildingBlock: XUDNAN_clean_linker_2, # of connection points: 2
#     Edge 16, Type (0, 1), BuildingBlock: XUDNAN_clean_linker_2, # of connection points: 2
#     Edge 17, Type (0, 1), BuildingBlock: XUDNAN_clean_linker_2, # of connection points: 2
#     Edge 18, Type (0, 1), BuildingBlock: XUDNAN_clean_linker_2, # of connection points: 2
#     Edge 19, Type (0, 1), BuildingBlock: XUDNAN_clean_linker_2, # of connection points: 2
#     Edge 20, Type (0, 1), BuildingBlock: XUDNAN_clean_linker_2, # of connection points: 2
#     Edge 21, Type (0, 1), BuildingBlock: XUDNAN_clean_linker_2, # of connection points: 2
#     Edge 22, Type (0, 1), BuildingBlock: XUDNAN_clean_linker_2, # of connection points: 2
#     Edge 23, Type (0, 1), BuildingBlock: XUDNAN_clean_linker_2, # of connection points: 2
#     Edge 24, Type (0, 1), BuildingBlock: XUDNAN_clean_linker_2, # of connection points: 2
#     Edge 25, Type (0, 1), BuildingBlock: XUDNAN_clean_linker_2, # of connection points: 2
#     Edge 26, Type (0, 1), BuildingBlock: XUDNAN_clean_linker_2, # of connection points: 2
#     Edge 27, Type (0, 1), BuildingBlock: XUDNAN_clean_linker_2, # of connection points: 2
#     Edge 28, Type (0, 1), BuildingBlock: XUDNAN_clean_linker_2, # of connection points: 2
#     Edge 29, Type (0, 1), BuildingBlock: XUDNAN_clean_linker_2, # of connection points: 2
#     Edge 30, Type (0, 1), BuildingBlock: XUDNAN_clean_linker_2, # of connection points: 2
#     Edge 31, Type (0, 1), BuildingBlock: XUDNAN_clean_linker_2, # of connection points: 2
#     Edge 32, Type (0, 1), BuildingBlock: XUDNAN_clean_linker_2, # of connection points: 2
#     Edge 33, Type (0, 1), BuildingBlock: XUDNAN_clean_linker_2, # of connection points: 2
#     Edge 34, Type (0, 1), BuildingBlock: XUDNAN_clean_linker_2, # of connection points: 2
#     Edge 35, Type (0, 1), BuildingBlock: XUDNAN_clean_linker_2, # of connection points: 2
# Relax obj value: 0.074
# Max RMSD: 0.157
# Mean RMSD: 0.119
data_MOF--net-pry--node1-OLANEW_clean_sbu_2--node2-MIDCAF_clean_sbu_0--edge1-XUDNAN_clean_linker_2
_symmetry_space_group_name_H-M    P1
_symmetry_Int_Tables_number       1
_symmetry_cell_setting            triclinic
loop_
_symmetry_equiv_pos_as_xyz
'x, y, z'
_cell_length_a     37.796486
_cell_length_b     37.893721
_cell_length_c     37.176513
_cell_angle_alpha  94.195393
_cell_angle_beta   89.174569
_cell_angle_gamma 95.347083
loop_
_atom_site_label
_atom_site_type_symbol
_atom_site_fract_x
_atom_site_fract_y
_atom_site_fract_z
_atom_type_partial_charge
O0 O 0.30732 0.23402 0.22159 0.0
Cd1 Cd 0.25143 0.26197 0.23297 0.0
O2 O 0.30672 0.21159 0.27477 0.0
Cd3 Cd 0.26095 0.23438 0.30084 0.0
O4 O 0.22449 0.22733 0.34671 0.0
C5 C 0.20023 0.20178 0.34322 0.0
O6 O 0.19669 0.18357 0.31181 0.0
C7 C 0.32072 0.21491 0.24372 0.0
C8 C 0.23556 0.316 0.18942 0.0
O9 O 0.24531 0.32331 0.2222 0.0
O10 O 0.23431 0.28355 0.17676 0.0
O11 O 0.33185 0.78694 0.83966 0.0
Cd12 Cd 0.29286 0.75802 0.79207 0.0
O13 O 0.29803 0.83001 0.85521 0.0
Cd14 Cd 0.25805 0.81814 0.81311 0.0
O15 O 0.21671 0.82721 0.77509 0.0
C16 C 0.20676 0.85834 0.77457 0.0
O17 O 0.22146 0.88377 0.79696 0.0
C18 C 0.32569 0.81421 0.85996 0.0
C19 C 0.33075 0.71834 0.74103 0.0
O20 O 0.32255 0.74939 0.73483 0.0
O21 O 0.32096 0.70602 0.77115 0.0
O22 O 0.77781 0.34202 0.85565 0.0
Cd23 Cd 0.72047 0.30998 0.83796 0.0
O24 O 0.80897 0.29784 0.83698 0.0
Cd25 Cd 0.76185 0.25967 0.83563 0.0
O26 O 0.7286 0.22082 0.86511 0.0
C27 C 0.74023 0.21561 0.89604 0.0
O28 O 0.77018 0.23324 0.90702 0.0
C29 C 0.80776 0.32985 0.84948 0.0
C30 C 0.68895 0.33984 0.781 0.0
O31 O 0.68233 0.34983 0.8139 0.0
O32 O 0.71047 0.31581 0.77503 0.0
O33 O 0.83165 0.76771 0.33246 0.0
Cd34 Cd 0.8106 0.71149 0.29891 0.0
O35 O 0.87782 0.74542 0.35454 0.0
Cd36 Cd 0.85199 0.69208 0.34384 0.0
O37 O 0.80626 0.65705 0.3595 0.0
C38 C 0.78976 0.66942 0.38695 0.0
O39 O 0.80165 0.70048 0.40241 0.0
C40 C 0.86058 0.77196 0.34998 0.0
C41 C 0.85444 0.69019 0.24127 0.0
O42 O 0.82857 0.70884 0.23626 0.0
O43 O 0.85996 0.68217 0.27344 0.0
O44 O 0.96982 0.90622 0.90756 0.0
Cd45 Cd 0.94145 0.89974 0.96669 0.0
O46 O 0.96763 0.96421 0.91052 0.0
Cd47 Cd 0.92912 0.96652 0.95471 0.0
O48 O 0.87494 0.97951 0.96748 0.0
C49 C 0.86528 0.99506 0.99694 0.0
O50 O 0.88855 0.00316 0.02285 0.0
C51 C 0.97781 0.93605 0.89451 0.0
C52 C 0.94955 0.83243 0.98974 0.0
O53 O 0.92206 0.83832 0.97212 0.0
O54 O 0.97303 0.85853 0.99698 0.0
O55 O 0.59168 0.06461 0.43881 0.0
Cd56 Cd 0.63002 0.08466 0.49014 0.0
O57 O 0.60313 0.1163 0.4157 0.0
Cd58 Cd 0.63273 0.14264 0.46162 0.0
O59 O 0.64744 0.19198 0.49388 0.0
C60 C 0.62771 0.20212 0.51987 0.0
O61 O 0.60051 0.18055 0.52944 0.0
C62 C 0.58802 0.08483 0.41352 0.0
C63 C 0.69579 0.05636 0.48691 0.0
O64 O 0.67039 0.04319 0.50647 0.0
O65 O 0.69001 0.08252 0.46852 0.0
O66 O 0.5628 0.67741 0.13503 0.0
Cd67 Cd 0.59096 0.62932 0.16046 0.0
O68 O 0.50859 0.65193 0.13864 0.0
Cd69 Cd 0.45104 0.64158 0.13199 0.0
O70 O 0.39639 0.61695 0.12838 0.0
C71 C 0.38557 0.60166 0.09846 0.0
O72 O 0.4073 0.60188 0.07055 0.0
C73 C 0.52972 0.67798 0.12958 0.0
C74 C 0.57629 0.6203 0.23318 0.0
O75 O 0.60068 0.64371 0.22377 0.0
O76 O 0.55836 0.60178 0.20826 0.0
O77 O 0.10452 0.5375 0.67326 0.0
Cd78 Cd 0.13104 0.5551 0.61631 0.0
O79 O 0.10623 0.48238 0.65205 0.0
Cd80 Cd 0.09824 0.42438 0.64839 0.0
O81 O 0.09198 0.36739 0.63333 0.0
C82 C 0.09473 0.35606 0.60044 0.0
O83 O 0.10152 0.37908 0.57591 0.0
C84 C 0.09867 0.50453 0.67777 0.0
C85 C 0.19784 0.53001 0.60684 0.0
O86 O 0.1947 0.56156 0.6207 0.0
O87 O 0.16949 0.51061 0.59723 0.0
Zn88 Zn 0.9771 0.05035 0.61358 0.0
Zn89 Zn 0.06006 0.98014 0.52575 0.0
Zn90 Zn 0.01671 0.01561 0.56698 0.0
C91 C 0.07903 0.05118 0.51613 0.0
C92 C 0.99047 0.95884 0.50183 0.0
O93 O 0.02181 0.99734 0.6226 0.0
O94 O 0.98725 0.02894 0.65818 0.0
C95 C 0.02387 0.10114 0.58316 0.0
O96 O 0.05461 0.05447 0.54043 0.0
O97 O 0.0866 0.02078 0.50411 0.0
O98 O 0.02252 0.95298 0.49646 0.0
O99 O 0.98246 0.98242 0.5267 0.0
O100 O 1.00029 0.09835 0.6074 0.0
O101 O 0.0332 0.07327 0.56478 0.0
O102 O 0.96153 0.00685 0.54662 0.0
O103 O 0.93143 0.0362 0.58873 0.0
C104 C 0.93212 0.01783 0.55904 0.0
O105 O 0.04526 0.98016 0.59972 0.0
O106 O 0.08241 0.95405 0.56209 0.0
C107 C 0.00868 0.00537 0.65408 0.0
C108 C 0.06969 0.9588 0.59342 0.0
Zn109 Zn 0.49877 0.03941 0.04071 0.0
Zn110 Zn 0.57672 0.97237 0.1218 0.0
Zn111 Zn 0.53533 0.00463 0.0846 0.0
C112 C 0.62304 0.00933 0.08097 0.0
C113 C 0.53511 0.91923 0.08339 0.0
O114 O 0.50394 0.04064 0.12018 0.0
O115 O 0.47686 0.06857 0.07983 0.0
C116 C 0.56873 0.05925 0.02539 0.0
O117 O 0.59262 0.01549 0.06856 0.0
O118 O 0.62444 0.99271 0.10898 0.0
O119 O 0.56298 0.92358 0.10202 0.0
O120 O 0.5197 0.94636 0.07475 0.0
O121 O 0.53845 0.06313 0.0132 0.0
O122 O 0.57179 0.0386 0.0511 0.0
O123 O 0.50011 0.96498 0.05166 0.0
O124 O 0.46996 0.99754 0.01817 0.0
C125 C 0.47644 0.96746 0.02758 0.0
O126 O 0.52406 0.02052 0.14205 0.0
O127 O 0.55725 0.98557 0.16943 0.0
C128 C 0.48291 0.06394 0.11239 0.0
C129 C 0.53487 0.00829 0.17102 0.0
Zn130 Zn 0.56558 0.5569 0.60245 0.0
Zn131 Zn 0.49796 0.46704 0.5053 0.0
Zn132 Zn 0.52799 0.51166 0.55385 0.0
C133 C 0.54732 0.43124 0.53711 0.0
C134 C 0.52414 0.52396 0.46816 0.0
O135 O 0.48863 0.54119 0.58501 0.0
O136 O 0.52324 0.58209 0.61713 0.0
C137 C 0.57689 0.4886 0.61882 0.0
O138 O 0.54738 0.45911 0.55917 0.0
O139 O 0.52997 0.42894 0.50821 0.0
O140 O 0.50248 0.49665 0.46324 0.0
O141 O 0.53839 0.53174 0.49943 0.0
O142 O 0.58013 0.51987 0.6334 0.0
O143 O 0.56049 0.48166 0.58852 0.0
O144 O 0.56507 0.54557 0.52321 0.0
O145 O 0.59994 0.57537 0.56464 0.0
C146 C 0.59292 0.56654 0.53185 0.0
O147 O 0.47002 0.51095 0.56576 0.0
O148 O 0.45207 0.46259 0.53157 0.0
C149 C 0.49268 0.56918 0.607 0.0
C150 C 0.44537 0.48662 0.55537 0.0
Zn151 Zn 0.09606 0.56952 0.9802 0.0
Zn152 Zn 0.01958 0.482 0.06258 0.0
Zn153 Zn 0.05679 0.52326 0.01706 0.0
C154 C 0.09053 0.4718 0.07226 0.0
C155 C 0.99949 0.46184 0.98892 0.0
O156 O 0.03671 0.57676 0.02476 0.0
O157 O 0.07501 0.61374 0.99707 0.0
C158 C 0.14295 0.54033 0.02298 0.0
O159 O 0.09387 0.49653 0.04999 0.0
O160 O 0.06003 0.45918 0.08183 0.0
O161 O 0.99 0.45828 0.02134 0.0
O162 O 0.02657 0.48329 0.98143 0.0
O163 O 0.14319 0.56125 0.99807 0.0
O164 O 0.11339 0.52437 0.03357 0.0
O165 O 0.04981 0.50409 0.95952 0.0
O166 O 0.08093 0.54713 0.93242 0.0
C167 C 0.06135 0.51819 0.93059 0.0
O168 O 0.01903 0.55442 0.05004 0.0
O169 O 0.9993 0.52029 0.09335 0.0
C170 C 0.0469 0.60827 0.01531 0.0
C171 C 1.00078 0.54965 0.0792 0.0
H172 H 0.14813 0.14697 0.34392 0.0
H173 H 0.20663 0.22765 0.41432 0.0
H174 H 0.17759 0.20123 0.46745 0.0
H175 H 0.06551 0.13913 0.3989 0.0
H176 H 0.05898 0.09183 0.38821 0.0
H177 H 0.08068 0.12024 0.35615 0.0
H178 H 0.13481 0.0828 0.35413 0.0
H179 H 0.11348 0.05454 0.38635 0.0
H180 H 0.15705 0.07669 0.3955 0.0
H181 H 0.14667 0.16105 0.51336 0.0
H182 H 0.11615 0.11193 0.54643 0.0
H183 H 0.07927 0.05875 0.445 0.0
C184 C 0.15432 0.15965 0.37042 0.0
C185 C 0.17962 0.18943 0.37491 0.0
C186 C 0.18718 0.20492 0.41017 0.0
C187 C 0.17081 0.19009 0.44052 0.0
C188 C 0.14676 0.15998 0.43512 0.0
C189 C 0.13833 0.14523 0.40082 0.0
C190 C 0.11377 0.11151 0.40198 0.0
C191 C 0.07759 0.11596 0.38533 0.0
C192 C 0.13082 0.07952 0.3834 0.0
C193 C 0.11058 0.10882 0.44223 0.0
C194 C 0.12932 0.13716 0.46114 0.0
C195 C 0.13152 0.13905 0.49877 0.0
C196 C 0.11421 0.11118 0.51734 0.0
C197 C 0.09518 0.08206 0.4981 0.0
C198 C 0.09336 0.08106 0.46024 0.0
H199 H 0.32111 0.87314 0.90615 0.0
H200 H 0.38803 0.78795 0.87835 0.0
H201 H 0.43165 0.81431 0.92402 0.0
H202 H 0.38907 0.94112 0.91491 0.0
H203 H 0.36889 0.96543 0.95203 0.0
H204 H 0.34143 0.93741 0.92045 0.0
H205 H 0.31275 0.9031 0.97299 0.0
H206 H 0.34028 0.93104 0.00479 0.0
H207 H 0.34073 0.88343 0.00332 0.0
H208 H 0.47057 0.85361 0.96918 0.0
H209 H 0.50155 0.90322 0.00709 0.0
H210 H 0.40831 0.96136 0.00493 0.0
C211 C 0.34463 0.8596 0.90997 0.0
C212 C 0.35105 0.8284 0.88869 0.0
C213 C 0.38244 0.81184 0.8944 0.0
C214 C 0.40731 0.82654 0.92038 0.0
C215 C 0.40028 0.85763 0.94057 0.0
C216 C 0.36961 0.87386 0.93562 0.0
C217 C 0.3693 0.90841 0.95861 0.0
C218 C 0.36706 0.93994 0.93509 0.0
C219 C 0.33897 0.90635 0.98659 0.0
C220 C 0.4051 0.90976 0.97645 0.0
C221 C 0.42246 0.88003 0.96629 0.0
C222 C 0.4569 0.87665 0.97784 0.0
C223 C 0.47419 0.90474 0.99969 0.0
C224 C 0.45699 0.93565 0.00953 0.0
C225 C 0.42188 0.93778 0.99816 0.0
H226 H 0.64083 0.39009 0.78511 0.0
H227 H 0.70038 0.32622 0.70854 0.0
H228 H 0.67519 0.35477 0.65832 0.0
H229 H 0.56138 0.38933 0.72928 0.0
H230 H 0.55406 0.43448 0.74394 0.0
H231 H 0.57499 0.40736 0.77369 0.0
H232 H 0.62881 0.45496 0.78048 0.0
H233 H 0.6081 0.48215 0.75075 0.0
H234 H 0.6521 0.46931 0.74068 0.0
H235 H 0.64819 0.39447 0.61694 0.0
H236 H 0.6195 0.44101 0.58785 0.0
H237 H 0.57453 0.47612 0.69031 0.0
C238 C 0.64836 0.38185 0.75778 0.0
C239 C 0.67266 0.35592 0.7508 0.0
C240 C 0.68184 0.346 0.7146 0.0
C241 C 0.66763 0.36203 0.68587 0.0
C242 C 0.64408 0.38778 0.69374 0.0
C243 C 0.63431 0.39746 0.72879 0.0
C244 C 0.6094 0.42664 0.73001 0.0
C245 C 0.57278 0.41366 0.74512 0.0
C246 C 0.62558 0.46025 0.75176 0.0
C247 C 0.60739 0.4325 0.69026 0.0
C248 C 0.62742 0.40966 0.66975 0.0
C249 C 0.63151 0.41166 0.6326 0.0
C250 C 0.61458 0.43758 0.61608 0.0
C251 C 0.59322 0.4605 0.63638 0.0
C252 C 0.58992 0.45814 0.67401 0.0
H253 H 0.91558 0.65696 0.24453 0.0
H254 H 0.84218 0.69225 0.16899 0.0
H255 H 0.87532 0.66457 0.11831 0.0
H256 H 0.99595 0.66882 0.18648 0.0
H257 H 0.01362 0.62989 0.20152 0.0
H258 H 0.98626 0.65557 0.23144 0.0
H259 H 0.94386 0.59903 0.24036 0.0
H260 H 0.97095 0.57326 0.21043 0.0
H261 H 0.92427 0.57381 0.20145 0.0
H262 H 0.91103 0.62568 0.07696 0.0
H263 H 0.94913 0.58183 0.04812 0.0
H264 H 0.00224 0.57592 0.14935 0.0
C265 C 0.90681 0.65941 0.2173 0.0
C266 C 0.87626 0.67676 0.21072 0.0
C267 C 0.86558 0.67923 0.17469 0.0
C268 C 0.88425 0.66359 0.14572 0.0
C269 C 0.91383 0.64606 0.1532 0.0
C270 C 0.92534 0.6443 0.18809 0.0
C271 C 0.95688 0.62246 0.18902 0.0
C272 C 0.99015 0.64558 0.20294 0.0
C273 C 0.94846 0.59024 0.21164 0.0
C274 C 0.96053 0.61113 0.14935 0.0
C275 C 0.93559 0.62519 0.12907 0.0
C276 C 0.93162 0.61574 0.09229 0.0
C277 C 0.95377 0.59141 0.0759 0.0
C278 C 0.98007 0.57761 0.09593 0.0
C279 C 0.98325 0.58736 0.13317 0.0
H280 H 0.35812 0.21362 0.17935 0.0
H281 H 0.35075 0.16716 0.28287 0.0
H282 H 0.39544 0.12658 0.26262 0.0
H283 H 0.36439 0.13506 0.12635 0.0
H284 H 0.39597 0.15345 0.09437 0.0
H285 H 0.3663 0.18153 0.11824 0.0
H286 H 0.41999 0.22405 0.14182 0.0
H287 H 0.44988 0.19613 0.11781 0.0
H288 H 0.45497 0.20662 0.16564 0.0
H289 H 0.43484 0.08538 0.22815 0.0
H290 H 0.46805 0.04998 0.18309 0.0
H291 H 0.45361 0.1259 0.10418 0.0
C292 C 0.36642 0.19545 0.19805 0.0
C293 C 0.3508 0.19372 0.23273 0.0
C294 C 0.36228 0.16921 0.25619 0.0
C295 C 0.38772 0.14596 0.24495 0.0
C296 C 0.40193 0.14775 0.21032 0.0
C297 C 0.39206 0.17221 0.18739 0.0
C298 C 0.41008 0.16753 0.15094 0.0
C299 C 0.38254 0.15887 0.12071 0.0
C300 C 0.43523 0.20055 0.14364 0.0
C301 C 0.43063 0.13593 0.1566 0.0
C302 C 0.42578 0.12495 0.19106 0.0
C303 C 0.43977 0.09444 0.20145 0.0
C304 C 0.45913 0.07468 0.17587 0.0
C305 C 0.46482 0.08574 0.14058 0.0
C306 C 0.45042 0.11696 0.13114 0.0
H307 H 0.18419 0.92334 0.76254 0.0
H308 H 0.16925 0.81133 0.72662 0.0
H309 H 0.1272 0.82483 0.68052 0.0
H310 H 0.09321 0.9426 0.74861 0.0
H311 H 0.10443 0.98561 0.73147 0.0
H312 H 0.13271 0.96923 0.76392 0.0
H313 H 0.18742 0.9753 0.72247 0.0
H314 H 0.16115 0.99421 0.69014 0.0
H315 H 0.18473 0.95611 0.67665 0.0
H316 H 0.09242 0.85066 0.6345 0.0
H317 H 0.06636 0.88744 0.59143 0.0
H318 H 0.10162 0.98271 0.65765 0.0
C319 C 0.17169 0.90156 0.74534 0.0
C320 C 0.18 0.86622 0.74826 0.0
C321 C 0.16331 0.83857 0.72496 0.0
C322 C 0.13928 0.84596 0.69877 0.0
C323 C 0.13203 0.88109 0.69632 0.0
C324 C 0.14764 0.90847 0.719 0.0
C325 C 0.13684 0.94414 0.70925 0.0
C326 C 0.11551 0.96145 0.74013 0.0
C327 C 0.16948 0.96888 0.69901 0.0
C328 C 0.11362 0.93261 0.67679 0.0
C329 C 0.11102 0.89606 0.67007 0.0
C330 C 0.09364 0.8792 0.63986 0.0
C331 C 0.07904 0.90023 0.61555 0.0
C332 C 0.08162 0.93762 0.62173 0.0
C333 C 0.09864 0.95404 0.65296 0.0
H334 H 0.81568 0.38371 0.9023 0.0
H335 H 0.87499 0.32342 0.82259 0.0
H336 H 0.93119 0.35513 0.84594 0.0
H337 H 0.87438 0.46772 0.90558 0.0
H338 H 0.86892 0.47498 0.95372 0.0
H339 H 0.83351 0.45167 0.927 0.0
H340 H 0.833 0.39848 0.96712 0.0
H341 H 0.86851 0.42144 0.99374 0.0
H342 H 0.87345 0.37779 0.97265 0.0
H343 H 0.98137 0.39067 0.88139 0.0
H344 H 0.02043 0.42394 0.92792 0.0
H345 H 0.9278 0.45765 0.98577 0.0
C346 C 0.84041 0.37792 0.88905 0.0
C347 C 0.84099 0.35154 0.86028 0.0
C348 C 0.87398 0.34381 0.84448 0.0
C349 C 0.90599 0.36174 0.8575 0.0
C350 C 0.90454 0.38705 0.88654 0.0
C351 C 0.87253 0.39501 0.90217 0.0
C352 C 0.87817 0.42035 0.93538 0.0
C353 C 0.86284 0.45578 0.93009 0.0
C354 C 0.86235 0.40349 0.9692 0.0
C355 C 0.91831 0.42488 0.93649 0.0
C356 C 0.93318 0.40611 0.90774 0.0
C357 C 0.96996 0.40575 0.90377 0.0
C358 C 0.99197 0.42485 0.93007 0.0
C359 C 0.97703 0.44347 0.95998 0.0
C360 C 0.93981 0.44355 0.96305 0.0
H361 H 0.7538 0.68619 0.44921 0.0
H362 H 0.75415 0.6074 0.35836 0.0
H363 H 0.70155 0.57401 0.38406 0.0
H364 H 0.7313 0.62575 0.5159 0.0
H365 H 0.70364 0.6547 0.54172 0.0
H366 H 0.73988 0.67329 0.51506 0.0
H367 H 0.69633 0.7083 0.48159 0.0
H368 H 0.65992 0.68978 0.50818 0.0
H369 H 0.65799 0.6847 0.45964 0.0
H370 H 0.65044 0.54814 0.42108 0.0
H371 H 0.60576 0.53092 0.46718 0.0
H372 H 0.63893 0.62692 0.53355 0.0
C373 C 0.74271 0.66206 0.4345 0.0
C374 C 0.75802 0.64943 0.40171 0.0
C375 C 0.74285 0.61757 0.38352 0.0
C376 C 0.71293 0.5985 0.39785 0.0
C377 C 0.6986 0.61167 0.43034 0.0
C378 C 0.71304 0.64269 0.44845 0.0
C379 C 0.69358 0.65047 0.48359 0.0
C380 C 0.71859 0.65107 0.51597 0.0
C381 C 0.67591 0.68538 0.48321 0.0
C382 C 0.66616 0.61871 0.48272 0.0
C383 C 0.66928 0.5968 0.45164 0.0
C384 C 0.64751 0.5653 0.44531 0.0
C385 C 0.62207 0.55585 0.47155 0.0
C386 C 0.61841 0.57798 0.50356 0.0
C387 C 0.64085 0.60974 0.50912 0.0
H388 H 0.18915 0.36452 0.20971 0.0
H389 H 0.25316 0.3279 0.11947 0.0
H390 H 0.22902 0.37121 0.08163 0.0
H391 H 0.11336 0.36804 0.15867 0.0
H392 H 0.09795 0.40616 0.18393 0.0
H393 H 0.12517 0.37755 0.20543 0.0
H394 H 0.17026 0.43157 0.22344 0.0
H395 H 0.14309 0.46037 0.20184 0.0
H396 H 0.18915 0.45899 0.18907 0.0
H397 H 0.19522 0.41682 0.05288 0.0
H398 H 0.1485 0.45287 0.0332 0.0
H399 H 0.10217 0.45409 0.14047 0.0
C400 C 0.1988 0.36644 0.18228 0.0
C401 C 0.22362 0.34366 0.16762 0.0
C402 C 0.23454 0.34563 0.13121 0.0
C403 C 0.2211 0.37024 0.10966 0.0
C404 C 0.19623 0.39214 0.12476 0.0
C405 C 0.18479 0.39002 0.16013 0.0
C406 C 0.15427 0.41262 0.16848 0.0
C407 C 0.12071 0.38972 0.17977 0.0
C408 C 0.16484 0.44267 0.19743 0.0
C409 C 0.14973 0.42717 0.13212 0.0
C410 C 0.17489 0.41604 0.10754 0.0
C411 C 0.17547 0.42572 0.07198 0.0
C412 C 0.14898 0.4463 0.06104 0.0
C413 C 0.12189 0.45616 0.08536 0.0
C414 C 0.12273 0.44695 0.12143 0.0
H415 H 0.67744 0.17406 0.88208 0.0
H416 H 0.75797 0.20141 0.96415 0.0
H417 H 0.72443 0.16194 0.00499 0.0
H418 H 0.60308 0.17196 0.94115 0.0
H419 H 0.57871 0.13466 0.91698 0.0
H420 H 0.61 0.16354 0.89332 0.0
H421 H 0.64325 0.10946 0.86995 0.0
H422 H 0.61199 0.0804 0.89354 0.0
H423 H 0.65892 0.08088 0.90177 0.0
H424 H 0.68028 0.12276 0.03854 0.0
H425 H 0.62886 0.08579 0.06174 0.0
H426 H 0.57823 0.08185 0.95742 0.0
C427 C 0.68817 0.17155 0.90853 0.0
C428 C 0.72037 0.19088 0.91986 0.0
C429 C 0.73339 0.1869 0.95477 0.0
C430 C 0.71456 0.16448 0.97821 0.0
C431 C 0.68282 0.14602 0.96631 0.0
C432 C 0.66977 0.14916 0.93226 0.0
C433 C 0.63449 0.12712 0.92654 0.0
C434 C 0.60483 0.15074 0.91907 0.0
C435 C 0.63735 0.09772 0.89614 0.0
C436 C 0.62946 0.11169 0.96292 0.0
C437 C 0.65773 0.12278 0.98542 0.0
C438 C 0.65831 0.11336 0.02094 0.0
C439 C 0.62916 0.0921 0.03381 0.0
C440 C 0.60017 0.08001 0.01105 0.0
C441 C 0.60037 0.09015 0.97522 0.0
H442 H 0.92785 0.80448 0.35512 0.0
H443 H 0.81906 0.81603 0.38867 0.0
H444 H 0.8394 0.86867 0.42912 0.0
H445 H 0.96819 0.82616 0.4371 0.0
H446 H 0.00692 0.85124 0.42006 0.0
H447 H 0.98341 0.81675 0.39152 0.0
H448 H 0.97523 0.86165 0.34358 0.0
H449 H 0.99911 0.89628 0.37186 0.0
H450 H 0.95513 0.90205 0.35652 0.0
H451 H 0.87361 0.91256 0.47413 0.0
H452 H 0.91763 0.94983 0.51222 0.0
H453 H 0.00228 0.91556 0.44209 0.0
C454 C 0.90832 0.81872 0.37032 0.0
C455 C 0.872 0.8065 0.36889 0.0
C456 C 0.84702 0.82543 0.38922 0.0
C457 C 0.85834 0.85518 0.41234 0.0
C458 C 0.89457 0.86613 0.41388 0.0
C459 C 0.91903 0.84906 0.39258 0.0
C460 C 0.95645 0.8656 0.3996 0.0
C461 C 0.98011 0.83831 0.41286 0.0
C462 C 0.97241 0.8824 0.36589 0.0
C463 C 0.9494 0.89367 0.42919 0.0
C464 C 0.91365 0.8935 0.43737 0.0
C465 C 0.90151 0.91415 0.46683 0.0
C466 C 0.92661 0.93576 0.48809 0.0
C467 C 0.9632 0.93743 0.47915 0.0
C468 C 0.97443 0.91596 0.44919 0.0
H469 H 0.37463 0.66749 0.75429 0.0
H470 H 0.33351 0.72253 0.6679 0.0
H471 H 0.36798 0.68752 0.62341 0.0
H472 H 0.46308 0.66682 0.71705 0.0
H473 H 0.46987 0.62407 0.73271 0.0
H474 H 0.4406 0.65226 0.75719 0.0
H475 H 0.39029 0.6014 0.75183 0.0
H476 H 0.41862 0.57296 0.7263 0.0
H477 H 0.37673 0.58187 0.70804 0.0
H478 H 0.40706 0.64625 0.58846 0.0
H479 H 0.45102 0.60486 0.56625 0.0
H480 H 0.46883 0.57952 0.67584 0.0
C481 C 0.37266 0.67194 0.72597 0.0
C482 C 0.3512 0.69744 0.7144 0.0
C483 C 0.34981 0.70306 0.67724 0.0
C484 C 0.36919 0.68325 0.65182 0.0
C485 C 0.39024 0.65839 0.66413 0.0
C486 C 0.39239 0.65297 0.70038 0.0
C487 C 0.41845 0.62611 0.70684 0.0
C488 C 0.44986 0.64336 0.7298 0.0
C489 C 0.39991 0.59366 0.72425 0.0
C490 C 0.4301 0.61668 0.66849 0.0
C491 C 0.41355 0.63559 0.64422 0.0
C492 C 0.42019 0.63136 0.60722 0.0
C493 C 0.44481 0.6076 0.5948 0.0
C494 C 0.46239 0.58858 0.61935 0.0
C495 C 0.45496 0.59321 0.65657 0.0
H496 H 0.00376 0.99575 0.86269 0.0
H497 H 0.98967 0.88094 0.84469 0.0
H498 H 0.00751 0.88582 0.78087 0.0
H499 H 0.96446 0.01418 0.78733 0.0
H500 H 0.99344 0.05303 0.77806 0.0
H501 H 0.98809 0.04022 0.82346 0.0
H502 H 0.05606 0.03826 0.82845 0.0
H503 H 0.06198 0.05093 0.78278 0.0
H504 H 0.07919 0.01103 0.79592 0.0
H505 H 0.01545 0.90406 0.71675 0.0
H506 H 0.01263 0.93401 0.65985 0.0
H507 H 0.02188 0.03629 0.72062 0.0
C508 C 0.00556 0.97152 0.84568 0.0
C509 C 0.9953 0.93799 0.85869 0.0
C510 C 0.99765 0.90695 0.83541 0.0
C511 C 0.00781 0.90946 0.79909 0.0
C512 C 0.01607 0.94314 0.78669 0.0
C513 C 0.01562 0.9736 0.80956 0.0
C514 C 0.02133 0.00674 0.78915 0.0
C515 C 0.98996 0.02985 0.79484 0.0
C516 C 0.05675 0.02799 0.79969 0.0
C517 C 0.02277 0.99028 0.75098 0.0
C518 C 0.0205 0.95359 0.74995 0.0
C519 C 0.01799 0.93277 0.7173 0.0
C520 C 0.01664 0.94992 0.68511 0.0
C521 C 0.01764 0.98736 0.68605 0.0
C522 C 0.02168 0.00762 0.71928 0.0
H523 H 0.58512 0.11694 0.35022 0.0
H524 H 0.54428 0.02302 0.40313 0.0
H525 H 0.51325 0.99957 0.34723 0.0
H526 H 0.50625 0.1206 0.28874 0.0
H527 H 0.53507 0.13437 0.25232 0.0
H528 H 0.54728 0.14765 0.2984 0.0
H529 H 0.60733 0.12019 0.28829 0.0
H530 H 0.59541 0.1073 0.24235 0.0
H531 H 0.60719 0.07431 0.27149 0.0
H532 H 0.49577 0.98175 0.28428 0.0
H533 H 0.49787 0.96861 0.21834 0.0
H534 H 0.54964 0.07362 0.20529 0.0
C535 C 0.5688 0.0919 0.3504 0.0
C536 C 0.56696 0.07188 0.38113 0.0
C537 C 0.54602 0.03886 0.37997 0.0
C538 C 0.528 0.02551 0.34843 0.0
C539 C 0.53095 0.04559 0.31835 0.0
C540 C 0.55084 0.07814 0.31908 0.0
C541 C 0.55406 0.09204 0.28184 0.0
C542 C 0.5345 0.12566 0.28025 0.0
C543 C 0.59331 0.09881 0.27033 0.0
C544 C 0.53507 0.06109 0.25961 0.0
C545 C 0.52082 0.03513 0.28141 0.0
C546 C 0.50584 0.00224 0.26701 0.0
C547 C 0.50701 0.99502 0.22957 0.0
C548 C 0.52302 0.02054 0.20707 0.0
C549 C 0.53597 0.0544 0.22205 0.0
H550 H 0.5416 0.56151 0.26044 0.0
H551 H 0.59754 0.66391 0.29262 0.0
H552 H 0.58869 0.65162 0.3568 0.0
H553 H 0.47674 0.55917 0.33281 0.0
H554 H 0.47817 0.51229 0.33733 0.0
H555 H 0.48727 0.53022 0.29426 0.0
H556 H 0.54808 0.50352 0.29117 0.0
H557 H 0.53915 0.48554 0.33422 0.0
H558 H 0.57909 0.51431 0.32761 0.0
H559 H 0.57279 0.62779 0.41787 0.0
H560 H 0.55456 0.59309 0.46998 0.0
H561 H 0.51351 0.50494 0.39664 0.0
C562 C 0.55161 0.58157 0.28097 0.0
C563 C 0.56994 0.61382 0.27159 0.0
C564 C 0.58328 0.63907 0.29925 0.0
C565 C 0.57833 0.63235 0.33574 0.0
C566 C 0.56031 0.60013 0.34404 0.0
C567 C 0.5474 0.57508 0.31738 0.0
C568 C 0.53052 0.54184 0.3332 0.0
C569 C 0.49082 0.53553 0.32384 0.0
C570 C 0.55041 0.5094 0.32081 0.0
C571 C 0.53585 0.55207 0.37296 0.0
C572 C 0.55277 0.58587 0.3788 0.0
C573 C 0.55991 0.60113 0.41353 0.0
C574 C 0.54976 0.58109 0.44295 0.0
C575 C 0.53358 0.5459 0.43742 0.0
C576 C 0.52618 0.53159 0.40187 0.0
H577 H 0.05885 0.54174 0.72557 0.0
H578 H 0.10843 0.44309 0.7103 0.0
H579 H 0.09108 0.42903 0.77225 0.0
H580 H 0.09105 0.56525 0.80853 0.0
H581 H 0.05256 0.58538 0.82654 0.0
H582 H 0.06102 0.58315 0.77888 0.0
H583 H 0.99844 0.55025 0.76759 0.0
H584 H 0.98987 0.55227 0.81551 0.0
H585 H 0.98563 0.51006 0.7895 0.0
H586 H 0.07882 0.43153 0.83918 0.0
H587 H 0.07549 0.45189 0.90391 0.0
H588 H 0.03409 0.54864 0.87548 0.0
C589 C 0.06503 0.5166 0.73486 0.0
C590 C 0.08421 0.4931 0.71273 0.0
C591 C 0.09257 0.46088 0.72615 0.0
C592 C 0.08296 0.45277 0.76149 0.0
C593 C 0.06474 0.477 0.78295 0.0
C594 C 0.05567 0.5082 0.76994 0.0
C595 C 0.04063 0.5322 0.79947 0.0
C596 C 0.06264 0.5686 0.80359 0.0
C597 C 0.0013 0.53643 0.7926 0.0
C598 C 0.0447 0.51072 0.83163 0.0
C599 C 0.05772 0.47848 0.82157 0.0
C600 C 0.06754 0.45613 0.84725 0.0
C601 C 0.06526 0.46767 0.88397 0.0
C602 C 0.0534 0.5012 0.89444 0.0
C603 C 0.04204 0.52234 0.868 0.0
H604 H 0.83133 0.01438 0.06006 0.0
H605 H 0.81479 0.99441 0.94483 0.0
H606 H 0.75178 0.00546 0.95312 0.0
H607 H 0.75292 0.96893 0.0862 0.0
H608 H 0.74458 0.99884 0.1247 0.0
H609 H 0.78935 0.99503 0.10903 0.0
H610 H 0.79783 0.06303 0.10275 0.0
H611 H 0.75287 0.06696 0.11831 0.0
H612 H 0.76727 0.08334 0.07569 0.0
H613 H 0.68935 0.01213 0.9745 0.0
H614 H 0.63222 0.00956 0.00789 0.0
H615 H 0.68922 0.02494 0.10899 0.0
C616 C 0.81464 0.01309 0.03648 0.0
C617 C 0.82803 0.0037 0.0018 0.0
C618 C 0.80513 0.00158 0.9717 0.0
C619 C 0.76934 0.00808 0.97608 0.0
C620 C 0.75683 0.01678 0.01072 0.0
C621 C 0.77879 0.01924 0.04043 0.0
C622 C 0.75802 0.02529 0.07509 0.0
C623 C 0.76141 0.99523 0.10021 0.0
C624 C 0.7697 0.06184 0.09407 0.0
C625 C 0.72078 0.02428 0.06037 0.0
C626 C 0.7207 0.02023 0.02312 0.0
C627 C 0.68912 0.01597 0.00363 0.0
C628 C 0.6568 0.01473 0.02277 0.0
C629 C 0.6564 0.01769 0.06093 0.0
C630 C 0.68882 0.02326 0.07979 0.0
H631 H 0.72571 0.02528 0.54137 0.0
H632 H 0.74664 0.05955 0.4338 0.0
H633 H 0.80824 0.04287 0.43689 0.0
H634 H 0.80464 0.06314 0.57696 0.0
H635 H 0.81058 0.02904 0.60711 0.0
H636 H 0.76666 0.03654 0.59352 0.0
H637 H 0.7554 0.97037 0.56997 0.0
H638 H 0.7995 0.96271 0.58349 0.0
H639 H 0.78568 0.95172 0.53752 0.0
H640 H 0.86924 0.02836 0.45427 0.0
H641 H 0.92528 0.02385 0.48676 0.0
H642 H 0.86499 0.00295 0.5841 0.0
C643 C 0.74295 0.0282 0.51804 0.0
C644 C 0.73136 0.04315 0.48712 0.0
C645 C 0.75501 0.04784 0.45762 0.0
C646 C 0.78993 0.03822 0.45906 0.0
C647 C 0.80084 0.02421 0.4903 0.0
C648 C 0.77805 0.01945 0.51937 0.0
C649 C 0.79745 0.0088 0.55164 0.0
C650 C 0.79467 0.03601 0.5842 0.0
C651 C 0.78368 0.97116 0.56121 0.0
C652 C 0.83495 0.00964 0.5367 0.0
C653 C 0.83627 0.01749 0.50094 0.0
C654 C 0.86844 0.02172 0.48211 0.0
C655 C 0.9001 0.01902 0.50066 0.0
C656 C 0.89923 0.01275 0.53772 0.0
C657 C 0.86622 0.00725 0.5556 0.0
H658 H 0.35007 0.58058 0.03601 0.0
H659 H 0.33766 0.58535 0.15239 0.0
H660 H 0.27519 0.56004 0.14549 0.0
H661 H 0.26921 0.61034 0.01867 0.0
H662 H 0.26102 0.58274 0.97751 0.0
H663 H 0.30585 0.59542 0.99191 0.0
H664 H 0.31789 0.529 0.98976 0.0
H665 H 0.27283 0.51613 0.97555 0.0
H666 H 0.28963 0.49863 0.01506 0.0
H667 H 0.21225 0.53963 0.12555 0.0
H668 H 0.15413 0.53237 0.09459 0.0
H669 H 0.20819 0.54255 0.99179 0.0
C670 C 0.33449 0.57557 0.06009 0.0
C671 C 0.34879 0.58469 0.09473 0.0
C672 C 0.32725 0.57847 0.12555 0.0
C673 C 0.29183 0.56384 0.1219 0.0
C674 C 0.27838 0.55556 0.08726 0.0
C675 C 0.2991 0.56137 0.05691 0.0
C676 C 0.27752 0.5542 0.02281 0.0
C677 C 0.27845 0.58766 0.0015 0.0
C678 C 0.29023 0.5226 0.99942 0.0
C679 C 0.24111 0.54486 0.0387 0.0
C680 C 0.24216 0.54478 0.07585 0.0
C681 C 0.21121 0.53912 0.09644 0.0
C682 C 0.17834 0.5348 0.07867 0.0
C683 C 0.17685 0.53666 0.04086 0.0
C684 C 0.20868 0.54069 0.02072 0.0
H685 H 0.26346 0.56788 0.61141 0.0
H686 H 0.21185 0.46118 0.59093 0.0
H687 H 0.27046 0.43809 0.5816 0.0
H688 H 0.32942 0.56134 0.54452 0.0
H689 H 0.36456 0.58637 0.5701 0.0
H690 H 0.31912 0.59489 0.57901 0.0
H691 H 0.32724 0.58477 0.64525 0.0
H692 H 0.37192 0.57237 0.63865 0.0
H693 H 0.33882 0.54232 0.65809 0.0
H694 H 0.33386 0.42696 0.57171 0.0
H695 H 0.39778 0.42871 0.55778 0.0
H696 H 0.40883 0.54266 0.58279 0.0
C697 C 0.26451 0.53961 0.60531 0.0
C698 C 0.23309 0.51628 0.60202 0.0
C699 C 0.23556 0.47953 0.59358 0.0
C700 C 0.26873 0.46614 0.58841 0.0
C701 C 0.29916 0.48985 0.59168 0.0
C702 C 0.2974 0.5258 0.5997 0.0
C703 C 0.33408 0.5457 0.59977 0.0
C704 C 0.33695 0.57373 0.57169 0.0
C705 C 0.34348 0.56235 0.6377 0.0
C706 C 0.35667 0.51552 0.58928 0.0
C707 C 0.33596 0.48346 0.58548 0.0
C708 C 0.35037 0.45188 0.57481 0.0
C709 C 0.38675 0.45322 0.56691 0.0
C710 C 0.40845 0.48593 0.56943 0.0
C711 C 0.39322 0.51733 0.58148 0.0
H712 H 0.00835 0.80995 0.0205 0.0
H713 H 0.90303 0.77274 0.98069 0.0
H714 H 0.91397 0.71127 0.99155 0.0
H715 H 0.05171 0.74191 0.97929 0.0
H716 H 0.08216 0.73834 0.01543 0.0
H717 H 0.06418 0.7799 0.01007 0.0
H718 H 0.04035 0.7809 0.07584 0.0
H719 H 0.05837 0.73924 0.08141 0.0
H720 H 0.01188 0.74355 0.0901 0.0
H721 H 0.93942 0.65375 0.9972 0.0
H722 H 0.97746 0.60431 0.99849 0.0
H723 H 0.06527 0.67785 0.03746 0.0
C724 C 0.98725 0.78899 0.01491 0.0
C725 C 0.95477 0.79619 0.99985 0.0
C726 C 0.92808 0.76792 0.99233 0.0
C727 C 0.93399 0.73291 0.99856 0.0
C728 C 0.9666 0.72661 0.01263 0.0
C729 C 0.99271 0.75387 0.021 0.0
C730 C 0.02655 0.73959 0.03275 0.0
C731 C 0.05798 0.75058 0.00789 0.0
C732 C 0.03476 0.75153 0.07238 0.0
C733 C 0.01589 0.69999 0.02813 0.0
C734 C 0.98099 0.6931 0.01704 0.0
C735 C 0.96627 0.65871 0.00729 0.0
C736 C 0.98784 0.63071 0.0086 0.0
C737 C 0.0234 0.63709 0.02029 0.0
C738 C 0.03758 0.67218 0.03012 0.0
H739 H 0.56823 0.72216 0.08688 0.0
H740 H 0.46434 0.70543 0.13681 0.0
H741 H 0.44865 0.76243 0.11591 0.0
H742 H 0.58401 0.80756 0.11621 0.0
H743 H 0.60783 0.82211 0.07679 0.0
H744 H 0.60684 0.77663 0.08728 0.0
H745 H 0.58138 0.75641 0.02388 0.0
H746 H 0.5821 0.80217 0.01332 0.0
H747 H 0.54134 0.77345 0.00946 0.0
H748 H 0.44884 0.82646 0.09934 0.0
H749 H 0.46683 0.89054 0.09398 0.0
H750 H 0.57097 0.86505 0.05675 0.0
C751 C 0.54172 0.7299 0.09246 0.0
C752 C 0.51731 0.70899 0.11295 0.0
C753 C 0.48313 0.72038 0.12024 0.0
C754 C 0.47405 0.75287 0.10851 0.0
C755 C 0.49928 0.77343 0.08923 0.0
C756 C 0.53242 0.7621 0.08112 0.0
C757 C 0.55688 0.79079 0.06507 0.0
C758 C 0.59084 0.7998 0.08771 0.0
C759 C 0.56595 0.78005 0.02558 0.0
C760 C 0.53328 0.82095 0.06758 0.0
C761 C 0.49969 0.81031 0.08039 0.0
C762 C 0.47475 0.83482 0.0885 0.0
C763 C 0.48504 0.87114 0.0852 0.0
C764 C 0.52011 0.88238 0.07461 0.0
C765 C 0.54378 0.85685 0.06417 0.0
H766 H 0.08283 0.30175 0.64494 0.0
H767 H 0.09354 0.32324 0.53202 0.0
H768 H 0.08106 0.25907 0.51467 0.0
H769 H 0.12258 0.21701 0.63729 0.0
H770 H 0.09216 0.19775 0.66982 0.0
H771 H 0.10463 0.24494 0.67307 0.0
H772 H 0.03817 0.25673 0.67179 0.0
H773 H 0.02554 0.20967 0.66854 0.0
H774 H 0.01076 0.23694 0.63502 0.0
H775 H 0.06223 0.19255 0.50985 0.0
H776 H 0.03939 0.13015 0.51861 0.0
H777 H 0.04312 0.15326 0.6344 0.0
C778 C 0.08296 0.29301 0.61655 0.0
C779 C 0.08915 0.31754 0.58986 0.0
C780 C 0.08892 0.30493 0.55299 0.0
C781 C 0.08192 0.26852 0.54286 0.0
C782 C 0.0755 0.2451 0.56992 0.0
C783 C 0.07618 0.2569 0.60602 0.0
C784 C 0.06692 0.22677 0.62993 0.0
C785 C 0.09846 0.2213 0.65394 0.0
C786 C 0.03336 0.2329 0.65264 0.0
C787 C 0.06008 0.19624 0.60169 0.0
C788 C 0.06538 0.20712 0.56718 0.0
C789 C 0.05864 0.18366 0.53678 0.0
C790 C 0.04596 0.14828 0.54193 0.0
C791 C 0.04051 0.1369 0.57712 0.0
C792 C 0.04776 0.16122 0.6072 0.0
H793 H 0.58276 0.23582 0.56651 0.0
H794 H 0.6778 0.25453 0.50118 0.0
H795 H 0.67344 0.31889 0.50979 0.0
H796 H 0.53494 0.29184 0.53221 0.0
H797 H 0.51362 0.30935 0.57248 0.0
H798 H 0.52938 0.26607 0.57116 0.0
H799 H 0.568 0.28482 0.62765 0.0
H800 H 0.5518 0.32823 0.6296 0.0
H801 H 0.5989 0.32408 0.62795 0.0
H802 H 0.65007 0.3771 0.51004 0.0
H803 H 0.61245 0.42688 0.50816 0.0
H804 H 0.53379 0.37298 0.5757 0.0
C805 C 0.60356 0.25354 0.55542 0.0
C806 C 0.63047 0.24011 0.53299 0.0
C807 C 0.65689 0.26413 0.51843 0.0
C808 C 0.65473 0.30083 0.52332 0.0
C809 C 0.6265 0.31318 0.54352 0.0
C810 C 0.60188 0.29037 0.56028 0.0
C811 C 0.57158 0.31006 0.57646 0.0
C812 C 0.53527 0.29333 0.56219 0.0
C813 C 0.57265 0.3119 0.61787 0.0
C814 C 0.58108 0.34644 0.5628 0.0
C815 C 0.61342 0.34792 0.54474 0.0
C816 C 0.6255 0.37685 0.52535 0.0
C817 C 0.60393 0.40481 0.52416 0.0
C818 C 0.57101 0.40379 0.54264 0.0
C819 C 0.55958 0.37461 0.56256 0.0
loop_
_geom_bond_atom_site_label_1
_geom_bond_atom_site_label_2
_geom_bond_distance
_geom_bond_site_symmetry_2
_ccdc_geom_bond_type
O0 Cd1 2.300 . S
O0 C7 1.275 . S
Cd1 O0 2.300 . S
Cd1 O9 2.381 . S
Cd1 O10 2.378 . S
O2 Cd3 2.385 . S
O2 C7 1.255 . S
Cd3 O2 2.385 . S
Cd3 O4 2.317 . S
O4 Cd3 2.317 . S
O4 C5 1.232 . S
C5 O4 1.232 . S
C5 O6 1.218 . S
O6 C5 1.218 . S
C7 O0 1.275 . S
C7 O2 1.255 . S
C8 O9 1.258 . S
C8 O10 1.256 . S
O9 Cd1 2.381 . S
O9 C8 1.258 . S
O10 Cd1 2.378 . S
O10 C8 1.256 . S
O11 Cd12 2.300 . S
O11 C18 1.275 . S
Cd12 O11 2.300 . S
Cd12 O20 2.381 . S
Cd12 O21 2.378 . S
O13 Cd14 2.385 . S
O13 C18 1.255 . S
Cd14 O13 2.385 . S
Cd14 O15 2.317 . S
O15 Cd14 2.317 . S
O15 C16 1.232 . S
C16 O15 1.232 . S
C16 O17 1.218 . S
O17 C16 1.218 . S
C18 O11 1.275 . S
C18 O13 1.255 . S
C19 O20 1.258 . S
C19 O21 1.256 . S
O20 Cd12 2.381 . S
O20 C19 1.258 . S
O21 Cd12 2.378 . S
O21 C19 1.256 . S
O22 Cd23 2.300 . S
O22 C29 1.275 . S
Cd23 O22 2.300 . S
Cd23 O31 2.381 . S
Cd23 O32 2.378 . S
O24 Cd25 2.385 . S
O24 C29 1.255 . S
Cd25 O24 2.385 . S
Cd25 O26 2.317 . S
O26 Cd25 2.317 . S
O26 C27 1.232 . S
C27 O26 1.232 . S
C27 O28 1.218 . S
O28 C27 1.218 . S
C29 O22 1.275 . S
C29 O24 1.255 . S
C30 O31 1.258 . S
C30 O32 1.256 . S
O31 Cd23 2.381 . S
O31 C30 1.258 . S
O32 Cd23 2.378 . S
O32 C30 1.256 . S
O33 Cd34 2.300 . S
O33 C40 1.275 . S
Cd34 O33 2.300 . S
Cd34 O42 2.381 . S
Cd34 O43 2.378 . S
O35 Cd36 2.385 . S
O35 C40 1.255 . S
Cd36 O35 2.385 . S
Cd36 O37 2.317 . S
O37 Cd36 2.317 . S
O37 C38 1.232 . S
C38 O37 1.232 . S
C38 O39 1.218 . S
O39 C38 1.218 . S
C40 O33 1.275 . S
C40 O35 1.255 . S
C41 O42 1.258 . S
C41 O43 1.256 . S
O42 Cd34 2.381 . S
O42 C41 1.258 . S
O43 Cd34 2.378 . S
O43 C41 1.256 . S
O44 Cd45 2.300 . S
O44 C51 1.275 . S
Cd45 O44 2.300 . S
Cd45 O53 2.381 . S
Cd45 O54 2.378 1_556 S
O46 Cd47 2.385 1_566 S
O46 C51 1.255 . S
Cd47 O46 2.385 1_544 S
Cd47 O48 2.317 1_545 S
O48 Cd47 2.317 1_565 S
O48 C49 1.232 . S
C49 O48 1.232 . S
C49 O50 1.218 1_565 S
O50 C49 1.218 1_545 S
C51 O44 1.275 . S
C51 O46 1.255 . S
C52 O53 1.258 1_554 S
C52 O54 1.256 . S
O53 Cd45 2.381 . S
O53 C52 1.258 1_556 S
O54 Cd45 2.378 1_554 S
O54 C52 1.256 . S
O55 Cd56 2.300 . S
O55 C62 1.275 . S
Cd56 O55 2.300 . S
Cd56 O64 2.381 . S
Cd56 O65 2.378 . S
O57 Cd58 2.385 . S
O57 C62 1.255 . S
Cd58 O57 2.385 . S
Cd58 O59 2.317 . S
O59 Cd58 2.317 . S
O59 C60 1.232 . S
C60 O59 1.232 . S
C60 O61 1.218 . S
O61 C60 1.218 . S
C62 O55 1.275 . S
C62 O57 1.255 . S
C63 O64 1.258 . S
C63 O65 1.256 . S
O64 Cd56 2.381 . S
O64 C63 1.258 . S
O65 Cd56 2.378 . S
O65 C63 1.256 . S
O66 Cd67 2.300 . S
O66 C73 1.275 . S
Cd67 O66 2.300 . S
Cd67 O75 2.381 . S
Cd67 O76 2.378 . S
O68 Cd69 2.385 . S
O68 C73 1.255 . S
Cd69 O68 2.385 . S
Cd69 O70 2.317 . S
O70 Cd69 2.317 . S
O70 C71 1.232 . S
C71 O70 1.232 . S
C71 O72 1.218 . S
O72 C71 1.218 . S
C73 O66 1.275 . S
C73 O68 1.255 . S
C74 O75 1.258 . S
C74 O76 1.256 . S
O75 Cd67 2.381 . S
O75 C74 1.258 . S
O76 Cd67 2.378 . S
O76 C74 1.256 . S
O77 Cd78 2.300 . S
O77 C84 1.275 . S
Cd78 O77 2.300 . S
Cd78 O86 2.381 . S
Cd78 O87 2.378 . S
O79 Cd80 2.385 . S
O79 C84 1.255 . S
Cd80 O79 2.385 . S
Cd80 O81 2.317 . S
O81 Cd80 2.317 . S
O81 C82 1.232 . S
C82 O81 1.232 . S
C82 O83 1.218 . S
O83 C82 1.218 . S
C84 O77 1.275 . S
C84 O79 1.255 . S
C85 O86 1.258 . S
C85 O87 1.256 . S
O86 Cd78 2.381 . S
O86 C85 1.258 . S
O87 Cd78 2.378 . S
O87 C85 1.256 . S
Zn88 O94 1.920 . S
Zn88 O100 1.898 . S
Zn88 O103 1.905 . S
Zn89 O97 1.905 1_565 S
Zn89 O98 1.898 . S
Zn89 O106 1.920 . S
Zn90 O93 2.080 1_455 S
Zn90 O96 2.114 . S
Zn90 O99 2.120 1_445 S
Zn90 O101 2.120 . S
Zn90 O102 2.114 1_455 S
Zn90 O105 2.080 . S
C91 O96 1.166 . S
C91 O97 1.182 . S
C92 O98 1.167 1_655 S
C92 O99 1.299 . S
O93 Zn90 2.080 1_655 S
O93 C107 1.305 . S
O94 Zn88 1.920 . S
O94 C107 1.234 . S
C95 O100 1.167 1_455 S
C95 O101 1.299 . S
O96 Zn90 2.114 . S
O96 C91 1.166 . S
O97 Zn89 1.905 1_545 S
O97 C91 1.182 . S
O98 Zn89 1.898 . S
O98 C92 1.167 1_455 S
O99 Zn90 2.120 1_665 S
O99 C92 1.299 . S
O100 Zn88 1.898 . S
O100 C95 1.167 1_655 S
O101 Zn90 2.120 . S
O101 C95 1.299 . S
O102 Zn90 2.114 1_655 S
O102 C104 1.166 . S
O103 Zn88 1.905 . S
O103 C104 1.182 . S
C104 O102 1.166 . S
C104 O103 1.182 . S
O105 Zn90 2.080 . S
O105 C108 1.305 1_545 S
O106 Zn89 1.920 . S
O106 C108 1.234 . S
C107 O93 1.305 . S
C107 O94 1.234 . S
C108 O105 1.305 1_565 S
C108 O106 1.234 . S
Zn109 O115 1.920 . S
Zn109 O121 1.898 . S
Zn109 O124 1.905 . S
Zn110 O118 1.905 . S
Zn110 O119 1.898 . S
Zn110 O127 1.920 . S
Zn111 O114 2.080 . S
Zn111 O117 2.114 1_545 S
Zn111 O120 2.120 1_545 S
Zn111 O122 2.120 . S
Zn111 O123 2.110 1_545 S
Zn111 O126 2.080 . S
C112 O117 1.166 . S
C112 O118 1.182 . S
C113 O119 1.167 . S
C113 O120 1.299 . S
O114 Zn111 2.080 . S
O114 C128 1.305 . S
O115 Zn109 1.920 . S
O115 C128 1.234 . S
C116 O121 1.167 . S
C116 O122 1.299 . S
O117 Zn111 2.114 1_565 S
O117 C112 1.166 . S
O118 Zn110 1.905 . S
O118 C112 1.182 . S
O119 Zn110 1.898 . S
O119 C113 1.167 . S
O120 Zn111 2.120 1_565 S
O120 C113 1.299 . S
O121 Zn109 1.898 . S
O121 C116 1.167 . S
O122 Zn111 2.120 . S
O122 C116 1.299 . S
O123 Zn111 2.110 1_565 S
O123 C125 1.165 . S
O124 Zn109 1.905 . S
O124 C125 1.182 1_545 S
C125 O123 1.165 . S
C125 O124 1.182 1_565 S
O126 Zn111 2.080 . S
O126 C129 1.305 . S
O127 Zn110 1.920 . S
O127 C129 1.234 1_565 S
C128 O114 1.305 . S
C128 O115 1.234 . S
C129 O126 1.305 . S
C129 O127 1.234 1_545 S
Zn130 O136 1.920 . S
Zn130 O142 1.898 . S
Zn130 O145 1.905 . S
Zn131 O139 1.905 . S
Zn131 O140 1.898 . S
Zn131 O148 1.920 . S
Zn132 O135 2.080 . S
Zn132 O138 2.114 . S
Zn132 O141 2.120 . S
Zn132 O143 2.120 . S
Zn132 O144 2.114 . S
Zn132 O147 2.080 . S
C133 O138 1.166 . S
C133 O139 1.182 . S
C134 O140 1.167 . S
C134 O141 1.299 . S
O135 Zn132 2.080 . S
O135 C149 1.305 . S
O136 Zn130 1.920 . S
O136 C149 1.234 . S
C137 O142 1.167 . S
C137 O143 1.299 . S
O138 Zn132 2.114 . S
O138 C133 1.166 . S
O139 Zn131 1.905 . S
O139 C133 1.182 . S
O140 Zn131 1.898 . S
O140 C134 1.167 . S
O141 Zn132 2.120 . S
O141 C134 1.299 . S
O142 Zn130 1.898 . S
O142 C137 1.167 . S
O143 Zn132 2.120 . S
O143 C137 1.299 . S
O144 Zn132 2.114 . S
O144 C146 1.166 . S
O145 Zn130 1.905 . S
O145 C146 1.182 . S
C146 O144 1.166 . S
C146 O145 1.182 . S
O147 Zn132 2.080 . S
O147 C150 1.305 . S
O148 Zn131 1.920 . S
O148 C150 1.234 . S
C149 O135 1.305 . S
C149 O136 1.234 . S
C150 O147 1.305 . S
C150 O148 1.234 . S
Zn151 O157 1.920 . S
Zn151 O163 1.898 . S
Zn151 O166 1.905 . S
Zn152 O160 1.905 1_655 S
Zn152 O161 1.898 . S
Zn152 O169 1.920 . S
Zn153 O156 2.080 1_554 S
Zn153 O159 2.114 . S
Zn153 O162 2.120 1_554 S
Zn153 O164 2.120 . S
Zn153 O165 2.114 1_554 S
Zn153 O168 2.080 . S
C154 O159 1.166 . S
C154 O160 1.182 . S
C155 O161 1.167 1_556 S
C155 O162 1.299 1_655 S
O156 Zn153 2.080 1_556 S
O156 C170 1.305 . S
O157 Zn151 1.920 . S
O157 C170 1.234 . S
C158 O163 1.167 1_554 S
C158 O164 1.299 . S
O159 Zn153 2.114 . S
O159 C154 1.166 . S
O160 Zn152 1.905 1_455 S
O160 C154 1.182 . S
O161 Zn152 1.898 . S
O161 C155 1.167 1_554 S
O162 Zn153 2.120 1_556 S
O162 C155 1.299 1_455 S
O163 Zn151 1.898 . S
O163 C158 1.167 1_556 S
O164 Zn153 2.120 . S
O164 C158 1.299 . S
O165 Zn153 2.114 1_556 S
O165 C167 1.166 . S
O166 Zn151 1.905 . S
O166 C167 1.182 . S
C167 O165 1.166 . S
C167 O166 1.182 . S
O168 Zn153 2.080 . S
O168 C171 1.305 . S
O169 Zn152 1.920 . S
O169 C171 1.234 1_655 S
C170 O156 1.305 . S
C170 O157 1.234 . S
C171 O168 1.305 . S
C171 O169 1.234 1_455 S
H172 C184 0.930 . S
H173 C186 0.930 . S
H174 C187 0.930 . S
H175 C191 0.959 . S
H176 C191 0.959 . S
H177 C191 0.961 . S
H178 C192 0.960 . S
H179 C192 0.961 . S
H180 C192 0.959 . S
H181 C195 0.929 . S
H182 C196 0.931 . S
H183 C198 0.930 . S
C184 H172 0.930 . S
C184 C185 1.399 . S
C184 C189 1.399 . S
C185 C184 1.399 . S
C185 C186 1.376 . S
C186 H173 0.930 . S
C186 C185 1.376 . S
C186 C187 1.388 . S
C187 H174 0.930 . S
C187 C186 1.388 . S
C187 C188 1.390 . S
C188 C187 1.390 . S
C188 C189 1.394 . S
C188 C194 1.465 . S
C189 C184 1.399 . S
C189 C188 1.394 . S
C189 C190 1.516 . S
C190 C189 1.516 . S
C190 C191 1.502 . S
C190 C192 1.561 . S
C190 C193 1.526 . S
C191 H175 0.959 . S
C191 H176 0.959 . S
C191 H177 0.961 . S
C191 C190 1.502 . S
C192 H178 0.960 . S
C192 H179 0.961 . S
C192 H180 0.959 . S
C192 C190 1.561 . S
C193 C190 1.526 . S
C193 C194 1.396 . S
C193 C198 1.390 . S
C194 C188 1.465 . S
C194 C193 1.396 . S
C194 C195 1.399 . S
C195 H181 0.929 . S
C195 C194 1.399 . S
C195 C196 1.385 . S
C196 H182 0.931 . S
C196 C195 1.385 . S
C196 C197 1.389 . S
C197 C196 1.389 . S
C197 C198 1.387 . S
C198 H183 0.930 . S
C198 C193 1.390 . S
C198 C197 1.387 . S
H199 C211 0.930 . S
H200 C213 0.930 . S
H201 C214 0.930 . S
H202 C218 0.959 . S
H203 C218 0.959 . S
H204 C218 0.961 . S
H205 C219 0.960 . S
H206 C219 0.961 . S
H207 C219 0.959 . S
H208 C222 0.929 . S
H209 C223 0.931 1_545 S
H210 C225 0.930 . S
C211 H199 0.930 . S
C211 C212 1.399 . S
C211 C216 1.399 . S
C212 C211 1.399 . S
C212 C213 1.376 . S
C213 H200 0.930 . S
C213 C212 1.376 . S
C213 C214 1.388 . S
C214 H201 0.930 . S
C214 C213 1.388 . S
C214 C215 1.390 . S
C215 C214 1.390 . S
C215 C216 1.394 . S
C215 C221 1.465 . S
C216 C211 1.399 . S
C216 C215 1.394 . S
C216 C217 1.516 . S
C217 C216 1.516 . S
C217 C218 1.502 . S
C217 C219 1.561 . S
C217 C220 1.526 . S
C218 H202 0.959 . S
C218 H203 0.959 . S
C218 H204 0.961 . S
C218 C217 1.502 . S
C219 H205 0.960 . S
C219 H206 0.961 . S
C219 H207 0.959 . S
C219 C217 1.561 . S
C220 C217 1.526 . S
C220 C221 1.396 . S
C220 C225 1.390 . S
C221 C215 1.465 . S
C221 C220 1.396 . S
C221 C222 1.399 . S
C222 H208 0.929 . S
C222 C221 1.399 . S
C222 C223 1.385 . S
C223 H209 0.931 1_565 S
C223 C222 1.385 . S
C223 C224 1.389 . S
C224 C223 1.389 . S
C224 C225 1.387 . S
C225 H210 0.930 . S
C225 C220 1.390 . S
C225 C224 1.387 . S
H226 C238 0.930 . S
H227 C240 0.930 . S
H228 C241 0.930 . S
H229 C245 0.959 . S
H230 C245 0.959 . S
H231 C245 0.961 . S
H232 C246 0.960 . S
H233 C246 0.961 . S
H234 C246 0.959 . S
H235 C249 0.929 . S
H236 C250 0.931 . S
H237 C252 0.930 . S
C238 H226 0.930 . S
C238 C239 1.399 . S
C238 C243 1.399 . S
C239 C238 1.399 . S
C239 C240 1.376 . S
C240 H227 0.930 . S
C240 C239 1.376 . S
C240 C241 1.388 . S
C241 H228 0.930 . S
C241 C240 1.388 . S
C241 C242 1.390 . S
C242 C241 1.390 . S
C242 C243 1.394 . S
C242 C248 1.465 . S
C243 C238 1.399 . S
C243 C242 1.394 . S
C243 C244 1.516 . S
C244 C243 1.516 . S
C244 C245 1.502 . S
C244 C246 1.561 . S
C244 C247 1.526 . S
C245 H229 0.959 . S
C245 H230 0.959 . S
C245 H231 0.961 . S
C245 C244 1.502 . S
C246 H232 0.960 . S
C246 H233 0.961 . S
C246 H234 0.959 . S
C246 C244 1.561 . S
C247 C244 1.526 . S
C247 C248 1.396 . S
C247 C252 1.390 . S
C248 C242 1.465 . S
C248 C247 1.396 . S
C248 C249 1.399 . S
C249 H235 0.929 . S
C249 C248 1.399 . S
C249 C250 1.385 . S
C250 H236 0.931 . S
C250 C249 1.385 . S
C250 C251 1.389 . S
C251 C250 1.389 . S
C251 C252 1.387 . S
C252 H237 0.930 . S
C252 C247 1.390 . S
C252 C251 1.387 . S
H253 C265 0.930 . S
H254 C267 0.930 . S
H255 C268 0.930 . S
H256 C272 0.959 . S
H257 C272 0.959 . S
H258 C272 0.961 . S
H259 C273 0.960 . S
H260 C273 0.950 1_455 S
H261 C273 0.959 . S
H262 C276 0.929 . S
H263 C277 0.931 . S
H264 C279 0.930 . S
C265 H253 0.930 . S
C265 C266 1.399 . S
C265 C270 1.399 . S
C266 C265 1.399 . S
C266 C267 1.376 . S
C267 H254 0.930 . S
C267 C266 1.376 . S
C267 C268 1.388 . S
C268 H255 0.930 . S
C268 C267 1.388 . S
C268 C269 1.390 . S
C269 C268 1.390 . S
C269 C270 1.394 . S
C269 C275 1.465 . S
C270 C265 1.399 . S
C270 C269 1.394 . S
C270 C271 1.516 . S
C271 C270 1.516 . S
C271 C272 1.502 1_655 S
C271 C273 1.561 . S
C271 C274 1.526 . S
C272 H256 0.959 . S
C272 H257 0.959 . S
C272 H258 0.961 . S
C272 C271 1.502 1_455 S
C273 H259 0.960 . S
C273 H260 0.950 1_655 S
C273 H261 0.959 . S
C273 C271 1.561 . S
C274 C271 1.526 . S
C274 C275 1.396 . S
C274 C279 1.390 1_655 S
C275 C269 1.465 . S
C275 C274 1.396 . S
C275 C276 1.399 . S
C276 H262 0.929 . S
C276 C275 1.399 . S
C276 C277 1.385 . S
C277 H263 0.931 . S
C277 C276 1.385 . S
C277 C278 1.389 1_655 S
C278 C277 1.389 1_455 S
C278 C279 1.387 . S
C279 H264 0.930 . S
C279 C274 1.390 1_455 S
C279 C278 1.387 . S
H280 C292 0.930 . S
H281 C294 0.930 . S
H282 C295 0.930 . S
H283 C299 0.959 . S
H284 C299 0.959 . S
H285 C299 0.961 . S
H286 C300 0.960 . S
H287 C300 0.961 . S
H288 C300 0.959 . S
H289 C303 0.929 . S
H290 C304 0.931 . S
H291 C306 0.930 . S
C292 H280 0.930 . S
C292 C293 1.399 . S
C292 C297 1.399 . S
C293 C292 1.399 . S
C293 C294 1.376 . S
C294 H281 0.930 . S
C294 C293 1.376 . S
C294 C295 1.388 . S
C295 H282 0.930 . S
C295 C294 1.388 . S
C295 C296 1.390 . S
C296 C295 1.390 . S
C296 C297 1.394 . S
C296 C302 1.465 . S
C297 C292 1.399 . S
C297 C296 1.394 . S
C297 C298 1.516 . S
C298 C297 1.516 . S
C298 C299 1.502 . S
C298 C300 1.561 . S
C298 C301 1.526 . S
C299 H283 0.959 . S
C299 H284 0.959 . S
C299 H285 0.961 . S
C299 C298 1.502 . S
C300 H286 0.960 . S
C300 H287 0.961 . S
C300 H288 0.959 . S
C300 C298 1.561 . S
C301 C298 1.526 . S
C301 C302 1.396 . S
C301 C306 1.390 . S
C302 C296 1.465 . S
C302 C301 1.396 . S
C302 C303 1.399 . S
C303 H289 0.929 . S
C303 C302 1.399 . S
C303 C304 1.385 . S
C304 H290 0.931 . S
C304 C303 1.385 . S
C304 C305 1.389 . S
C305 C304 1.389 . S
C305 C306 1.387 . S
C306 H291 0.930 . S
C306 C301 1.390 . S
C306 C305 1.387 . S
H307 C319 0.930 . S
H308 C321 0.930 . S
H309 C322 0.930 . S
H310 C326 0.959 . S
H311 C326 0.959 . S
H312 C326 0.961 . S
H313 C327 0.960 . S
H314 C327 0.961 . S
H315 C327 0.959 . S
H316 C330 0.929 . S
H317 C331 0.931 . S
H318 C333 0.930 . S
C319 H307 0.930 . S
C319 C320 1.399 . S
C319 C324 1.399 . S
C320 C319 1.399 . S
C320 C321 1.376 . S
C321 H308 0.930 . S
C321 C320 1.376 . S
C321 C322 1.388 . S
C322 H309 0.930 . S
C322 C321 1.388 . S
C322 C323 1.390 . S
C323 C322 1.390 . S
C323 C324 1.394 . S
C323 C329 1.465 . S
C324 C319 1.399 . S
C324 C323 1.394 . S
C324 C325 1.516 . S
C325 C324 1.516 . S
C325 C326 1.502 . S
C325 C327 1.561 1_565 S
C325 C328 1.526 . S
C326 H310 0.959 . S
C326 H311 0.959 . S
C326 H312 0.961 . S
C326 C325 1.502 . S
C327 H313 0.960 . S
C327 H314 0.961 . S
C327 H315 0.959 . S
C327 C325 1.561 1_545 S
C328 C325 1.526 . S
C328 C329 1.396 . S
C328 C333 1.390 . S
C329 C323 1.465 . S
C329 C328 1.396 . S
C329 C330 1.399 . S
C330 H316 0.929 . S
C330 C329 1.399 . S
C330 C331 1.385 . S
C331 H317 0.931 . S
C331 C330 1.385 . S
C331 C332 1.389 . S
C332 C331 1.389 . S
C332 C333 1.387 . S
C333 H318 0.930 . S
C333 C328 1.390 . S
C333 C332 1.387 . S
H334 C346 0.930 . S
H335 C348 0.930 . S
H336 C349 0.930 . S
H337 C353 0.959 . S
H338 C353 0.959 . S
H339 C353 0.961 . S
H340 C354 0.960 . S
H341 C354 0.961 1_554 S
H342 C354 0.959 . S
H343 C357 0.929 . S
H344 C358 0.931 . S
H345 C360 0.930 1_554 S
C346 H334 0.930 . S
C346 C347 1.399 . S
C346 C351 1.399 . S
C347 C346 1.399 . S
C347 C348 1.376 . S
C348 H335 0.930 . S
C348 C347 1.376 . S
C348 C349 1.388 . S
C349 H336 0.930 . S
C349 C348 1.388 . S
C349 C350 1.390 . S
C350 C349 1.390 . S
C350 C351 1.394 . S
C350 C356 1.465 . S
C351 C346 1.399 . S
C351 C350 1.394 . S
C351 C352 1.516 . S
C352 C351 1.516 . S
C352 C353 1.502 1_556 S
C352 C354 1.561 . S
C352 C355 1.526 . S
C353 H337 0.959 . S
C353 H338 0.959 . S
C353 H339 0.961 . S
C353 C352 1.502 1_554 S
C354 H340 0.960 . S
C354 H341 0.961 1_556 S
C354 H342 0.959 . S
C354 C352 1.561 . S
C355 C352 1.526 . S
C355 C356 1.396 . S
C355 C360 1.390 . S
C356 C350 1.465 . S
C356 C355 1.396 . S
C356 C357 1.399 . S
C357 H343 0.929 . S
C357 C356 1.399 . S
C357 C358 1.385 . S
C358 H344 0.931 . S
C358 C357 1.385 . S
C358 C359 1.389 . S
C359 C358 1.389 . S
C359 C360 1.387 . S
C360 H345 0.930 1_556 S
C360 C355 1.390 . S
C360 C359 1.387 . S
H361 C373 0.930 . S
H362 C375 0.930 . S
H363 C376 0.930 . S
H364 C380 0.959 . S
H365 C380 0.959 . S
H366 C380 0.961 . S
H367 C381 0.960 . S
H368 C381 0.961 . S
H369 C381 0.959 . S
H370 C384 0.929 . S
H371 C385 0.931 . S
H372 C387 0.930 . S
C373 H361 0.930 . S
C373 C374 1.399 . S
C373 C378 1.399 . S
C374 C373 1.399 . S
C374 C375 1.376 . S
C375 H362 0.930 . S
C375 C374 1.376 . S
C375 C376 1.388 . S
C376 H363 0.930 . S
C376 C375 1.388 . S
C376 C377 1.390 . S
C377 C376 1.390 . S
C377 C378 1.394 . S
C377 C383 1.465 . S
C378 C373 1.399 . S
C378 C377 1.394 . S
C378 C379 1.516 . S
C379 C378 1.516 . S
C379 C380 1.502 . S
C379 C381 1.561 . S
C379 C382 1.526 . S
C380 H364 0.959 . S
C380 H365 0.959 . S
C380 H366 0.961 . S
C380 C379 1.502 . S
C381 H367 0.960 . S
C381 H368 0.961 . S
C381 H369 0.959 . S
C381 C379 1.561 . S
C382 C379 1.526 . S
C382 C383 1.396 . S
C382 C387 1.390 . S
C383 C377 1.465 . S
C383 C382 1.396 . S
C383 C384 1.399 . S
C384 H370 0.929 . S
C384 C383 1.399 . S
C384 C385 1.385 . S
C385 H371 0.931 . S
C385 C384 1.385 . S
C385 C386 1.389 . S
C386 C385 1.389 . S
C386 C387 1.387 . S
C387 H372 0.930 . S
C387 C382 1.390 . S
C387 C386 1.387 . S
H388 C400 0.930 . S
H389 C402 0.930 . S
H390 C403 0.930 . S
H391 C407 0.959 . S
H392 C407 0.959 . S
H393 C407 0.961 . S
H394 C408 0.960 . S
H395 C408 0.961 . S
H396 C408 0.959 . S
H397 C411 0.929 . S
H398 C412 0.931 . S
H399 C414 0.930 . S
C400 H388 0.930 . S
C400 C401 1.399 . S
C400 C405 1.399 . S
C401 C400 1.399 . S
C401 C402 1.376 . S
C402 H389 0.930 . S
C402 C401 1.376 . S
C402 C403 1.388 . S
C403 H390 0.930 . S
C403 C402 1.388 . S
C403 C404 1.390 . S
C404 C403 1.390 . S
C404 C405 1.394 . S
C404 C410 1.465 . S
C405 C400 1.399 . S
C405 C404 1.394 . S
C405 C406 1.516 . S
C406 C405 1.516 . S
C406 C407 1.502 . S
C406 C408 1.561 . S
C406 C409 1.526 . S
C407 H391 0.959 . S
C407 H392 0.959 . S
C407 H393 0.961 . S
C407 C406 1.502 . S
C408 H394 0.960 . S
C408 H395 0.961 . S
C408 H396 0.959 . S
C408 C406 1.561 . S
C409 C406 1.526 . S
C409 C410 1.396 . S
C409 C414 1.390 . S
C410 C404 1.465 . S
C410 C409 1.396 . S
C410 C411 1.399 . S
C411 H397 0.929 . S
C411 C410 1.399 . S
C411 C412 1.385 . S
C412 H398 0.931 . S
C412 C411 1.385 . S
C412 C413 1.389 . S
C413 C412 1.389 . S
C413 C414 1.387 . S
C414 H399 0.930 . S
C414 C409 1.390 . S
C414 C413 1.387 . S
H415 C427 0.930 . S
H416 C429 0.930 . S
H417 C430 0.930 . S
H418 C434 0.959 1_554 S
H419 C434 0.959 . S
H420 C434 0.961 . S
H421 C435 0.960 . S
H422 C435 0.961 . S
H423 C435 0.959 . S
H424 C438 0.929 . S
H425 C439 0.931 . S
H426 C441 0.926 1_556 S
C427 H415 0.930 . S
C427 C428 1.399 . S
C427 C432 1.399 . S
C428 C427 1.399 . S
C428 C429 1.376 . S
C429 H416 0.930 . S
C429 C428 1.376 . S
C429 C430 1.388 . S
C430 H417 0.930 . S
C430 C429 1.388 . S
C430 C431 1.390 . S
C431 C430 1.390 . S
C431 C432 1.394 . S
C431 C437 1.465 . S
C432 C427 1.399 . S
C432 C431 1.394 . S
C432 C433 1.516 . S
C433 C432 1.516 . S
C433 C434 1.502 . S
C433 C435 1.561 . S
C433 C436 1.526 . S
C434 H418 0.959 1_556 S
C434 H419 0.959 . S
C434 H420 0.961 . S
C434 C433 1.502 . S
C435 H421 0.960 . S
C435 H422 0.961 . S
C435 H423 0.959 . S
C435 C433 1.561 . S
C436 C433 1.526 . S
C436 C437 1.396 . S
C436 C441 1.390 1_556 S
C437 C431 1.465 . S
C437 C436 1.396 . S
C437 C438 1.399 1_556 S
C438 H424 0.929 . S
C438 C437 1.399 1_554 S
C438 C439 1.385 . S
C439 H425 0.931 . S
C439 C438 1.385 . S
C439 C440 1.389 . S
C440 C439 1.389 . S
C440 C441 1.387 . S
C441 H426 0.926 1_554 S
C441 C436 1.390 1_554 S
C441 C440 1.387 . S
H442 C454 0.930 . S
H443 C456 0.930 . S
H444 C457 0.930 . S
H445 C461 0.959 1_655 S
H446 C461 0.959 . S
H447 C461 0.961 . S
H448 C462 0.960 . S
H449 C462 0.961 1_455 S
H450 C462 0.959 . S
H451 C465 0.929 . S
H452 C466 0.931 . S
H453 C468 0.930 1_455 S
C454 H442 0.930 . S
C454 C455 1.399 . S
C454 C459 1.399 . S
C455 C454 1.399 . S
C455 C456 1.376 . S
C456 H443 0.930 . S
C456 C455 1.376 . S
C456 C457 1.388 . S
C457 H444 0.930 . S
C457 C456 1.388 . S
C457 C458 1.390 . S
C458 C457 1.390 . S
C458 C459 1.394 . S
C458 C464 1.465 . S
C459 C454 1.399 . S
C459 C458 1.394 . S
C459 C460 1.516 . S
C460 C459 1.516 . S
C460 C461 1.502 1_655 S
C460 C462 1.561 . S
C460 C463 1.526 . S
C461 H445 0.959 1_455 S
C461 H446 0.959 . S
C461 H447 0.961 . S
C461 C460 1.502 1_455 S
C462 H448 0.960 . S
C462 H449 0.961 1_655 S
C462 H450 0.959 . S
C462 C460 1.561 . S
C463 C460 1.526 . S
C463 C464 1.396 . S
C463 C468 1.390 . S
C464 C458 1.465 . S
C464 C463 1.396 . S
C464 C465 1.399 . S
C465 H451 0.929 . S
C465 C464 1.399 . S
C465 C466 1.385 . S
C466 H452 0.931 . S
C466 C465 1.385 . S
C466 C467 1.389 . S
C467 C466 1.389 . S
C467 C468 1.387 . S
C468 H453 0.930 1_655 S
C468 C463 1.390 . S
C468 C467 1.387 . S
H469 C481 0.930 . S
H470 C483 0.930 . S
H471 C484 0.930 . S
H472 C488 0.959 . S
H473 C488 0.959 . S
H474 C488 0.961 . S
H475 C489 0.960 . S
H476 C489 0.961 . S
H477 C489 0.959 . S
H478 C492 0.929 . S
H479 C493 0.931 . S
H480 C495 0.930 . S
C481 H469 0.930 . S
C481 C482 1.399 . S
C481 C486 1.399 . S
C482 C481 1.399 . S
C482 C483 1.376 . S
C483 H470 0.930 . S
C483 C482 1.376 . S
C483 C484 1.388 . S
C484 H471 0.930 . S
C484 C483 1.388 . S
C484 C485 1.390 . S
C485 C484 1.390 . S
C485 C486 1.394 . S
C485 C491 1.465 . S
C486 C481 1.399 . S
C486 C485 1.394 . S
C486 C487 1.516 . S
C487 C486 1.516 . S
C487 C488 1.502 . S
C487 C489 1.561 . S
C487 C490 1.526 . S
C488 H472 0.959 . S
C488 H473 0.959 . S
C488 H474 0.961 . S
C488 C487 1.502 . S
C489 H475 0.960 . S
C489 H476 0.961 . S
C489 H477 0.959 . S
C489 C487 1.561 . S
C490 C487 1.526 . S
C490 C491 1.396 . S
C490 C495 1.390 . S
C491 C485 1.465 . S
C491 C490 1.396 . S
C491 C492 1.399 . S
C492 H478 0.929 . S
C492 C491 1.399 . S
C492 C493 1.385 . S
C493 H479 0.931 . S
C493 C492 1.385 . S
C493 C494 1.389 . S
C494 C493 1.389 . S
C494 C495 1.387 . S
C495 H480 0.930 . S
C495 C490 1.390 . S
C495 C494 1.387 . S
H496 C508 0.930 1_545 S
H497 C510 0.930 . S
H498 C511 0.930 1_455 S
H499 C515 0.959 . S
H500 C515 0.959 . S
H501 C515 0.961 . S
H502 C516 0.960 . S
H503 C516 0.961 . S
H504 C516 0.959 1_455 S
H505 C519 0.929 . S
H506 C520 0.931 . S
H507 C522 0.930 . S
C508 H496 0.930 1_565 S
C508 C509 1.399 . S
C508 C513 1.399 . S
C509 C508 1.399 . S
C509 C510 1.376 . S
C510 H497 0.930 . S
C510 C509 1.376 . S
C510 C511 1.388 . S
C511 H498 0.930 1_655 S
C511 C510 1.388 . S
C511 C512 1.390 . S
C512 C511 1.390 . S
C512 C513 1.394 . S
C512 C518 1.465 . S
C513 C508 1.399 . S
C513 C512 1.394 . S
C513 C514 1.516 1_565 S
C514 C513 1.516 1_545 S
C514 C515 1.502 . S
C514 C516 1.561 . S
C514 C517 1.526 . S
C515 H499 0.959 . S
C515 H500 0.959 . S
C515 H501 0.961 . S
C515 C514 1.502 . S
C516 H502 0.960 . S
C516 H503 0.961 . S
C516 H504 0.959 1_655 S
C516 C514 1.561 . S
C517 C514 1.526 . S
C517 C518 1.396 1_545 S
C517 C522 1.390 . S
C518 C512 1.465 . S
C518 C517 1.396 1_565 S
C518 C519 1.399 1_655 S
C519 H505 0.929 . S
C519 C518 1.399 1_455 S
C519 C520 1.385 . S
C520 H506 0.931 . S
C520 C519 1.385 . S
C520 C521 1.389 1_455 S
C521 C520 1.389 1_655 S
C521 C522 1.387 1_565 S
C522 H507 0.930 . S
C522 C517 1.390 . S
C522 C521 1.387 1_545 S
H523 C535 0.930 . S
H524 C537 0.930 . S
H525 C538 0.930 . S
H526 C542 0.959 . S
H527 C542 0.959 . S
H528 C542 0.961 . S
H529 C543 0.960 . S
H530 C543 0.961 . S
H531 C543 0.959 . S
H532 C546 0.929 1_565 S
H533 C547 0.931 1_565 S
H534 C549 0.930 . S
C535 H523 0.930 . S
C535 C536 1.399 . S
C535 C540 1.399 . S
C536 C535 1.399 . S
C536 C537 1.376 . S
C537 H524 0.930 . S
C537 C536 1.376 . S
C537 C538 1.388 . S
C538 H525 0.930 . S
C538 C537 1.388 . S
C538 C539 1.390 . S
C539 C538 1.390 . S
C539 C540 1.394 . S
C539 C545 1.465 . S
C540 C535 1.399 . S
C540 C539 1.394 . S
C540 C541 1.516 . S
C541 C540 1.516 . S
C541 C542 1.502 . S
C541 C543 1.561 . S
C541 C544 1.526 . S
C542 H526 0.959 . S
C542 H527 0.959 . S
C542 H528 0.961 . S
C542 C541 1.502 . S
C543 H529 0.960 . S
C543 H530 0.961 . S
C543 H531 0.959 . S
C543 C541 1.561 . S
C544 C541 1.526 . S
C544 C545 1.396 . S
C544 C549 1.390 . S
C545 C539 1.465 . S
C545 C544 1.396 . S
C545 C546 1.399 . S
C546 H532 0.929 1_545 S
C546 C545 1.399 . S
C546 C547 1.385 . S
C547 H533 0.931 1_545 S
C547 C546 1.385 . S
C547 C548 1.389 . S
C548 C547 1.389 . S
C548 C549 1.387 . S
C549 H534 0.930 . S
C549 C544 1.390 . S
C549 C548 1.387 . S
H550 C562 0.930 . S
H551 C564 0.930 . S
H552 C565 0.930 . S
H553 C569 0.959 . S
H554 C569 0.959 . S
H555 C569 0.961 . S
H556 C570 0.960 . S
H557 C570 0.961 . S
H558 C570 0.959 . S
H559 C573 0.929 . S
H560 C574 0.931 . S
H561 C576 0.930 . S
C562 H550 0.930 . S
C562 C563 1.399 . S
C562 C567 1.399 . S
C563 C562 1.399 . S
C563 C564 1.376 . S
C564 H551 0.930 . S
C564 C563 1.376 . S
C564 C565 1.388 . S
C565 H552 0.930 . S
C565 C564 1.388 . S
C565 C566 1.390 . S
C566 C565 1.390 . S
C566 C567 1.394 . S
C566 C572 1.465 . S
C567 C562 1.399 . S
C567 C566 1.394 . S
C567 C568 1.516 . S
C568 C567 1.516 . S
C568 C569 1.502 . S
C568 C570 1.561 . S
C568 C571 1.526 . S
C569 H553 0.959 . S
C569 H554 0.959 . S
C569 H555 0.961 . S
C569 C568 1.502 . S
C570 H556 0.960 . S
C570 H557 0.961 . S
C570 H558 0.959 . S
C570 C568 1.561 . S
C571 C568 1.526 . S
C571 C572 1.396 . S
C571 C576 1.390 . S
C572 C566 1.465 . S
C572 C571 1.396 . S
C572 C573 1.399 . S
C573 H559 0.929 . S
C573 C572 1.399 . S
C573 C574 1.385 . S
C574 H560 0.931 . S
C574 C573 1.385 . S
C574 C575 1.389 . S
C575 C574 1.389 . S
C575 C576 1.387 . S
C576 H561 0.930 . S
C576 C571 1.390 . S
C576 C575 1.387 . S
H577 C589 0.930 . S
H578 C591 0.930 . S
H579 C592 0.930 . S
H580 C596 0.959 . S
H581 C596 0.959 . S
H582 C596 0.961 . S
H583 C597 0.960 . S
H584 C597 0.961 . S
H585 C597 0.959 . S
H586 C600 0.929 . S
H587 C601 0.931 . S
H588 C603 0.930 . S
C589 H577 0.930 . S
C589 C590 1.399 . S
C589 C594 1.399 . S
C590 C589 1.399 . S
C590 C591 1.376 . S
C591 H578 0.930 . S
C591 C590 1.376 . S
C591 C592 1.388 . S
C592 H579 0.930 . S
C592 C591 1.388 . S
C592 C593 1.390 . S
C593 C592 1.390 . S
C593 C594 1.394 . S
C593 C599 1.465 . S
C594 C589 1.399 . S
C594 C593 1.394 . S
C594 C595 1.516 . S
C595 C594 1.516 . S
C595 C596 1.502 . S
C595 C597 1.561 . S
C595 C598 1.526 . S
C596 H580 0.959 . S
C596 H581 0.959 . S
C596 H582 0.961 . S
C596 C595 1.502 . S
C597 H583 0.960 . S
C597 H584 0.961 . S
C597 H585 0.959 . S
C597 C595 1.561 . S
C598 C595 1.526 . S
C598 C599 1.396 . S
C598 C603 1.390 . S
C599 C593 1.465 . S
C599 C598 1.396 . S
C599 C600 1.399 . S
C600 H586 0.929 . S
C600 C599 1.399 . S
C600 C601 1.385 . S
C601 H587 0.931 . S
C601 C600 1.385 . S
C601 C602 1.389 . S
C602 C601 1.389 . S
C602 C603 1.387 . S
C603 H588 0.930 . S
C603 C598 1.390 . S
C603 C602 1.387 . S
H604 C616 0.930 . S
H605 C618 0.930 . S
H606 C619 0.930 . S
H607 C623 0.959 . S
H608 C623 0.959 . S
H609 C623 0.961 . S
H610 C624 0.960 . S
H611 C624 0.961 . S
H612 C624 0.959 . S
H613 C627 0.929 1_556 S
H614 C628 0.931 . S
H615 C630 0.930 . S
C616 H604 0.930 . S
C616 C617 1.399 1_545 S
C616 C621 1.399 . S
C617 C616 1.399 1_565 S
C617 C618 1.376 1_554 S
C618 H605 0.930 . S
C618 C617 1.376 1_556 S
C618 C619 1.388 . S
C619 H606 0.930 . S
C619 C618 1.388 . S
C619 C620 1.390 1_556 S
C620 C619 1.390 1_554 S
C620 C621 1.394 1_565 S
C620 C626 1.465 . S
C621 C616 1.399 . S
C621 C620 1.394 1_545 S
C621 C622 1.516 . S
C622 C621 1.516 . S
C622 C623 1.502 . S
C622 C624 1.561 . S
C622 C625 1.526 . S
C623 H607 0.959 . S
C623 H608 0.959 . S
C623 H609 0.961 . S
C623 C622 1.502 . S
C624 H610 0.960 . S
C624 H611 0.961 . S
C624 H612 0.959 . S
C624 C622 1.561 . S
C625 C622 1.526 . S
C625 C626 1.396 1_545 S
C625 C630 1.390 . S
C626 C620 1.465 . S
C626 C625 1.396 1_565 S
C626 C627 1.399 . S
C627 H613 0.929 1_554 S
C627 C626 1.399 . S
C627 C628 1.385 . S
C628 H614 0.931 . S
C628 C627 1.385 . S
C628 C629 1.389 . S
C629 C628 1.389 . S
C629 C630 1.387 1_565 S
C630 H615 0.930 . S
C630 C625 1.390 . S
C630 C629 1.387 1_545 S
H631 C643 0.930 . S
H632 C645 0.930 . S
H633 C646 0.930 . S
H634 C650 0.959 . S
H635 C650 0.959 . S
H636 C650 0.961 . S
H637 C651 0.960 . S
H638 C651 0.961 . S
H639 C651 0.959 1_545 S
H640 C654 0.929 . S
H641 C655 0.931 . S
H642 C657 0.930 1_565 S
C643 H631 0.930 . S
C643 C644 1.399 . S
C643 C648 1.399 . S
C644 C643 1.399 . S
C644 C645 1.376 . S
C645 H632 0.930 . S
C645 C644 1.376 . S
C645 C646 1.388 . S
C646 H633 0.930 . S
C646 C645 1.388 . S
C646 C647 1.390 . S
C647 C646 1.390 . S
C647 C648 1.394 . S
C647 C653 1.465 . S
C648 C643 1.399 . S
C648 C647 1.394 . S
C648 C649 1.518 1_545 S
C649 C648 1.518 1_565 S
C649 C650 1.499 . S
C649 C651 1.560 . S
C649 C652 1.527 1_565 S
C650 H634 0.959 . S
C650 H635 0.959 . S
C650 H636 0.961 . S
C650 C649 1.499 . S
C651 H637 0.960 . S
C651 H638 0.961 . S
C651 H639 0.959 1_565 S
C651 C649 1.560 . S
C652 C649 1.527 1_545 S
C652 C653 1.396 . S
C652 C657 1.390 . S
C653 C647 1.465 . S
C653 C652 1.396 . S
C653 C654 1.399 . S
C654 H640 0.929 . S
C654 C653 1.399 . S
C654 C655 1.385 . S
C655 H641 0.931 . S
C655 C654 1.385 . S
C655 C656 1.389 . S
C656 C655 1.389 . S
C656 C657 1.387 . S
C657 H642 0.930 1_545 S
C657 C652 1.390 . S
C657 C656 1.387 . S
H658 C670 0.930 . S
H659 C672 0.930 . S
H660 C673 0.930 . S
H661 C677 0.959 1_554 S
H662 C677 0.959 . S
H663 C677 0.961 . S
H664 C678 0.960 . S
H665 C678 0.961 . S
H666 C678 0.959 . S
H667 C681 0.929 . S
H668 C682 0.931 . S
H669 C684 0.930 1_556 S
C670 H658 0.930 . S
C670 C671 1.399 . S
C670 C675 1.399 . S
C671 C670 1.399 . S
C671 C672 1.376 . S
C672 H659 0.930 . S
C672 C671 1.376 . S
C672 C673 1.388 . S
C673 H660 0.930 . S
C673 C672 1.388 . S
C673 C674 1.390 . S
C674 C673 1.390 . S
C674 C675 1.394 . S
C674 C680 1.465 . S
C675 C670 1.399 . S
C675 C674 1.394 . S
C675 C676 1.516 . S
C676 C675 1.516 . S
C676 C677 1.502 1_554 S
C676 C678 1.561 1_554 S
C676 C679 1.526 . S
C677 H661 0.959 1_556 S
C677 H662 0.959 . S
C677 H663 0.961 . S
C677 C676 1.502 1_556 S
C678 H664 0.960 . S
C678 H665 0.961 . S
C678 H666 0.959 . S
C678 C676 1.561 1_556 S
C679 C676 1.526 . S
C679 C680 1.396 . S
C679 C684 1.390 . S
C680 C674 1.465 . S
C680 C679 1.396 . S
C680 C681 1.399 . S
C681 H667 0.929 . S
C681 C680 1.399 . S
C681 C682 1.385 . S
C682 H668 0.931 . S
C682 C681 1.385 . S
C682 C683 1.389 . S
C683 C682 1.389 . S
C683 C684 1.387 . S
C684 H669 0.930 1_554 S
C684 C679 1.390 . S
C684 C683 1.387 . S
H685 C697 0.930 . S
H686 C699 0.930 . S
H687 C700 0.930 . S
H688 C704 0.959 . S
H689 C704 0.959 . S
H690 C704 0.961 . S
H691 C705 0.960 . S
H692 C705 0.961 . S
H693 C705 0.959 . S
H694 C708 0.929 . S
H695 C709 0.931 . S
H696 C711 0.930 . S
C697 H685 0.930 . S
C697 C698 1.399 . S
C697 C702 1.399 . S
C698 C697 1.399 . S
C698 C699 1.376 . S
C699 H686 0.930 . S
C699 C698 1.376 . S
C699 C700 1.388 . S
C700 H687 0.930 . S
C700 C699 1.388 . S
C700 C701 1.390 . S
C701 C700 1.390 . S
C701 C702 1.394 . S
C701 C707 1.465 . S
C702 C697 1.399 . S
C702 C701 1.394 . S
C702 C703 1.516 . S
C703 C702 1.516 . S
C703 C704 1.502 . S
C703 C705 1.561 . S
C703 C706 1.526 . S
C704 H688 0.959 . S
C704 H689 0.959 . S
C704 H690 0.961 . S
C704 C703 1.502 . S
C705 H691 0.960 . S
C705 H692 0.961 . S
C705 H693 0.959 . S
C705 C703 1.561 . S
C706 C703 1.526 . S
C706 C707 1.396 . S
C706 C711 1.390 . S
C707 C701 1.465 . S
C707 C706 1.396 . S
C707 C708 1.399 . S
C708 H694 0.929 . S
C708 C707 1.399 . S
C708 C709 1.385 . S
C709 H695 0.931 . S
C709 C708 1.385 . S
C709 C710 1.389 . S
C710 C709 1.389 . S
C710 C711 1.387 . S
C711 H696 0.930 . S
C711 C706 1.390 . S
C711 C710 1.387 . S
H712 C724 0.930 . S
H713 C726 0.930 . S
H714 C727 0.930 . S
H715 C731 0.959 . S
H716 C731 0.959 . S
H717 C731 0.961 . S
H718 C732 0.957 1_655 S
H719 C732 0.968 . S
H720 C732 0.943 1_655 S
H721 C735 0.929 . S
H722 C736 0.931 . S
H723 C738 0.930 . S
C724 H712 0.930 . S
C724 C725 1.411 . S
C724 C729 1.399 . S
C725 C724 1.411 . S
C725 C726 1.370 1_454 S
C726 H713 0.930 . S
C726 C725 1.370 1_656 S
C726 C727 1.388 . S
C727 H714 0.930 . S
C727 C726 1.388 . S
C727 C728 1.390 1_655 S
C728 C727 1.390 1_455 S
C728 C729 1.394 1_556 S
C728 C734 1.465 . S
C729 C724 1.399 . S
C729 C728 1.394 1_554 S
C729 C730 1.516 . S
C730 C729 1.516 . S
C730 C731 1.502 . S
C730 C732 1.573 . S
C730 C733 1.526 . S
C731 H715 0.959 . S
C731 H716 0.959 . S
C731 H717 0.961 . S
C731 C730 1.502 . S
C732 H718 0.957 1_455 S
C732 H719 0.968 . S
C732 H720 0.943 1_455 S
C732 C730 1.573 . S
C733 C730 1.526 . S
C733 C734 1.396 1_554 S
C733 C738 1.390 . S
C734 C728 1.465 . S
C734 C733 1.396 1_556 S
C734 C735 1.399 . S
C735 H721 0.929 . S
C735 C734 1.399 . S
C735 C736 1.385 . S
C736 H722 0.931 . S
C736 C735 1.385 . S
C736 C737 1.389 . S
C737 C736 1.389 . S
C737 C738 1.387 1_556 S
C738 H723 0.930 . S
C738 C733 1.390 . S
C738 C737 1.387 1_554 S
H739 C751 0.930 . S
H740 C753 0.930 . S
H741 C754 0.930 . S
H742 C758 0.959 . S
H743 C758 0.959 . S
H744 C758 0.961 . S
H745 C759 0.960 . S
H746 C759 0.961 . S
H747 C759 0.959 . S
H748 C762 0.929 . S
H749 C763 0.931 . S
H750 C765 0.930 . S
C751 H739 0.930 . S
C751 C752 1.399 . S
C751 C756 1.399 . S
C752 C751 1.399 . S
C752 C753 1.376 . S
C753 H740 0.930 . S
C753 C752 1.376 . S
C753 C754 1.388 . S
C754 H741 0.930 . S
C754 C753 1.388 . S
C754 C755 1.390 . S
C755 C754 1.390 . S
C755 C756 1.394 . S
C755 C761 1.465 . S
C756 C751 1.399 . S
C756 C755 1.394 . S
C756 C757 1.516 . S
C757 C756 1.516 . S
C757 C758 1.502 . S
C757 C759 1.561 . S
C757 C760 1.526 . S
C758 H742 0.959 . S
C758 H743 0.959 . S
C758 H744 0.961 . S
C758 C757 1.502 . S
C759 H745 0.960 . S
C759 H746 0.961 . S
C759 H747 0.959 . S
C759 C757 1.561 . S
C760 C757 1.526 . S
C760 C761 1.396 . S
C760 C765 1.390 . S
C761 C755 1.465 . S
C761 C760 1.396 . S
C761 C762 1.399 . S
C762 H748 0.929 . S
C762 C761 1.399 . S
C762 C763 1.385 . S
C763 H749 0.931 . S
C763 C762 1.385 . S
C763 C764 1.389 . S
C764 C763 1.389 . S
C764 C765 1.387 . S
C765 H750 0.930 . S
C765 C760 1.390 . S
C765 C764 1.387 . S
H766 C778 0.930 . S
H767 C780 0.930 . S
H768 C781 0.930 . S
H769 C785 0.959 . S
H770 C785 0.959 . S
H771 C785 0.961 . S
H772 C786 0.960 . S
H773 C786 0.961 . S
H774 C786 0.959 . S
H775 C789 0.929 . S
H776 C790 0.931 . S
H777 C792 0.930 . S
C778 H766 0.930 . S
C778 C779 1.399 . S
C778 C783 1.399 . S
C779 C778 1.399 . S
C779 C780 1.376 . S
C780 H767 0.930 . S
C780 C779 1.376 . S
C780 C781 1.388 . S
C781 H768 0.930 . S
C781 C780 1.388 . S
C781 C782 1.390 . S
C782 C781 1.390 . S
C782 C783 1.394 . S
C782 C788 1.465 . S
C783 C778 1.399 . S
C783 C782 1.394 . S
C783 C784 1.516 . S
C784 C783 1.516 . S
C784 C785 1.502 . S
C784 C786 1.561 . S
C784 C787 1.526 . S
C785 H769 0.959 . S
C785 H770 0.959 . S
C785 H771 0.961 . S
C785 C784 1.502 . S
C786 H772 0.960 . S
C786 H773 0.961 . S
C786 H774 0.959 . S
C786 C784 1.561 . S
C787 C784 1.526 . S
C787 C788 1.396 . S
C787 C792 1.390 . S
C788 C782 1.465 . S
C788 C787 1.396 . S
C788 C789 1.399 . S
C789 H775 0.929 . S
C789 C788 1.399 . S
C789 C790 1.385 . S
C790 H776 0.931 . S
C790 C789 1.385 . S
C790 C791 1.389 . S
C791 C790 1.389 . S
C791 C792 1.387 . S
C792 H777 0.930 . S
C792 C787 1.390 . S
C792 C791 1.387 . S
H793 C805 0.930 . S
H794 C807 0.930 . S
H795 C808 0.930 . S
H796 C812 0.959 . S
H797 C812 0.959 . S
H798 C812 0.961 . S
H799 C813 0.960 . S
H800 C813 0.961 . S
H801 C813 0.959 . S
H802 C816 0.929 . S
H803 C817 0.931 . S
H804 C819 0.930 . S
C805 H793 0.930 . S
C805 C806 1.399 . S
C805 C810 1.399 . S
C806 C805 1.399 . S
C806 C807 1.376 . S
C807 H794 0.930 . S
C807 C806 1.376 . S
C807 C808 1.388 . S
C808 H795 0.930 . S
C808 C807 1.388 . S
C808 C809 1.390 . S
C809 C808 1.390 . S
C809 C810 1.394 . S
C809 C815 1.465 . S
C810 C805 1.399 . S
C810 C809 1.394 . S
C810 C811 1.516 . S
C811 C810 1.516 . S
C811 C812 1.502 . S
C811 C813 1.561 . S
C811 C814 1.526 . S
C812 H796 0.959 . S
C812 H797 0.959 . S
C812 H798 0.961 . S
C812 C811 1.502 . S
C813 H799 0.960 . S
C813 H800 0.961 . S
C813 H801 0.959 . S
C813 C811 1.561 . S
C814 C811 1.526 . S
C814 C815 1.396 . S
C814 C819 1.390 . S
C815 C809 1.465 . S
C815 C814 1.396 . S
C815 C816 1.399 . S
C816 H802 0.929 . S
C816 C815 1.399 . S
C816 C817 1.385 . S
C817 H803 0.931 . S
C817 C816 1.385 . S
C817 C818 1.389 . S
C818 C817 1.389 . S
C818 C819 1.387 . S
C819 H804 0.930 . S
C819 C814 1.390 . S
C819 C818 1.387 . S
C185 C5 1.708 . S
C197 C91 1.759 . S
C212 C18 1.549 . S
C224 C125 1.466 1_556 S
C251 C137 1.266 . S
C239 C30 1.287 . S
C266 C41 1.260 . S
C278 C171 1.210 . S
C305 C128 1.694 . S
C293 C7 1.747 . S
C332 C108 1.604 . S
C320 C16 1.586 . S
C359 C155 1.456 . S
C347 C29 1.434 . S
C386 C146 1.117 . S
C374 C38 1.097 . S
C401 C8 1.670 . S
C413 C154 1.589 . S
C440 C116 1.612 . S
C428 C27 1.444 . S
C455 C40 1.507 . S
C467 C92 1.432 . S
C482 C19 1.243 . S
C494 C149 1.241 . S
C521 C107 1.623 1_565 S
C509 C51 1.634 . S
C536 C62 1.602 . S
C548 C129 1.574 . S
C563 C74 1.483 . S
C575 C134 1.499 . S
C590 C84 1.398 . S
C602 C167 1.454 . S
C617 C49 1.925 . S
C629 C112 1.852 . S
C656 C104 1.484 . S
C644 C63 1.523 . S
C683 C158 1.469 . S
C671 C71 1.186 . S
C710 C150 1.234 . S
C698 C85 1.213 . S
C725 C52 1.673 1_455 S
C737 C170 1.600 . S
C764 C113 1.790 . S
C752 C73 1.740 . S
C791 C95 1.395 . S
C779 C82 1.227 . S
C806 C60 1.289 . S
C818 C133 1.637 . S
