# Generated by pormake.
# Topology the, (3,8)-cn, num edge types: 1
# Building blocks:
#     Node 0, Type 0, BuildingBlock: OLANEW_clean_sbu_2, # of connection points: 3
#     Node 1, Type 0, BuildingBlock: OLANEW_clean_sbu_2, # of connection points: 3
#     Node 2, Type 0, BuildingBlock: OLANEW_clean_sbu_2, # of connection points: 3
#     Node 3, Type 0, BuildingBlock: OLANEW_clean_sbu_2, # of connection points: 3
#     Node 4, Type 0, BuildingBlock: OLANEW_clean_sbu_2, # of connection points: 3
#     Node 5, Type 0, BuildingBlock: OLANEW_clean_sbu_2, # of connection points: 3
#     Node 6, Type 0, BuildingBlock: OLANEW_clean_sbu_2, # of connection points: 3
#     Node 7, Type 0, BuildingBlock: OLANEW_clean_sbu_2, # of connection points: 3
#     Node 8, Type 1, BuildingBlock: GIZVER_clean_sbu_0, # of connection points: 8
#     Node 9, Type 1, BuildingBlock: GIZVER_clean_sbu_0, # of connection points: 8
#     Node 10, Type 1, BuildingBlock: GIZVER_clean_sbu_0, # of connection points: 8
#     Edge 11, Type (0, 1), BuildingBlock: UVAHIK_clean_linker_0, # of connection points: 2
#     Edge 12, Type (0, 1), BuildingBlock: UVAHIK_clean_linker_0, # of connection points: 2
#     Edge 13, Type (0, 1), BuildingBlock: UVAHIK_clean_linker_0, # of connection points: 2
#     Edge 14, Type (0, 1), BuildingBlock: UVAHIK_clean_linker_0, # of connection points: 2
#     Edge 15, Type (0, 1), BuildingBlock: UVAHIK_clean_linker_0, # of connection points: 2
#     Edge 16, Type (0, 1), BuildingBlock: UVAHIK_clean_linker_0, # of connection points: 2
#     Edge 17, Type (0, 1), BuildingBlock: UVAHIK_clean_linker_0, # of connection points: 2
#     Edge 18, Type (0, 1), BuildingBlock: UVAHIK_clean_linker_0, # of connection points: 2
#     Edge 19, Type (0, 1), BuildingBlock: UVAHIK_clean_linker_0, # of connection points: 2
#     Edge 20, Type (0, 1), BuildingBlock: UVAHIK_clean_linker_0, # of connection points: 2
#     Edge 21, Type (0, 1), BuildingBlock: UVAHIK_clean_linker_0, # of connection points: 2
#     Edge 22, Type (0, 1), BuildingBlock: UVAHIK_clean_linker_0, # of connection points: 2
#     Edge 23, Type (0, 1), BuildingBlock: UVAHIK_clean_linker_0, # of connection points: 2
#     Edge 24, Type (0, 1), BuildingBlock: UVAHIK_clean_linker_0, # of connection points: 2
#     Edge 25, Type (0, 1), BuildingBlock: UVAHIK_clean_linker_0, # of connection points: 2
#     Edge 26, Type (0, 1), BuildingBlock: UVAHIK_clean_linker_0, # of connection points: 2
#     Edge 27, Type (0, 1), BuildingBlock: UVAHIK_clean_linker_0, # of connection points: 2
#     Edge 28, Type (0, 1), BuildingBlock: UVAHIK_clean_linker_0, # of connection points: 2
#     Edge 29, Type (0, 1), BuildingBlock: UVAHIK_clean_linker_0, # of connection points: 2
#     Edge 30, Type (0, 1), BuildingBlock: UVAHIK_clean_linker_0, # of connection points: 2
#     Edge 31, Type (0, 1), BuildingBlock: UVAHIK_clean_linker_0, # of connection points: 2
#     Edge 32, Type (0, 1), BuildingBlock: UVAHIK_clean_linker_0, # of connection points: 2
#     Edge 33, Type (0, 1), BuildingBlock: UVAHIK_clean_linker_0, # of connection points: 2
#     Edge 34, Type (0, 1), BuildingBlock: UVAHIK_clean_linker_0, # of connection points: 2
# Relax obj value: 0.073
# Max RMSD: 0.200
# Mean RMSD: 0.136
data_MOF--net-the--node1-OLANEW_clean_sbu_2--node2-GIZVER_clean_sbu_0--edge1-UVAHIK_clean_linker_0
_symmetry_space_group_name_H-M    P1
_symmetry_Int_Tables_number       1
_symmetry_cell_setting            triclinic
loop_
_symmetry_equiv_pos_as_xyz
'x, y, z'
_cell_length_a     55.904305
_cell_length_b     53.054687
_cell_length_c     47.456279
_cell_angle_alpha  91.437318
_cell_angle_beta   92.148759
_cell_angle_gamma 104.9016
loop_
_atom_site_label
_atom_site_type_symbol
_atom_site_fract_x
_atom_site_fract_y
_atom_site_fract_z
_atom_type_partial_charge
O0 O 0.32329 0.3317 0.33498 0.0
Cd1 Cd 0.30416 0.31163 0.37747 0.0
O2 O 0.32291 0.37116 0.35017 0.0
Cd3 Cd 0.29874 0.35899 0.38523 0.0
O4 O 0.26649 0.36418 0.40723 0.0
C5 C 0.25563 0.37957 0.39514 0.0
O6 O 0.26438 0.39 0.37158 0.0
C7 C 0.32899 0.35626 0.3319 0.0
C8 C 0.3253 0.27274 0.39784 0.0
O9 O 0.30647 0.26714 0.38039 0.0
O10 O 0.33428 0.29676 0.40554 0.0
O11 O 0.72759 0.36589 0.29704 0.0
Cd12 Cd 0.68486 0.34374 0.28089 0.0
O13 O 0.73237 0.33226 0.3209 0.0
Cd14 Cd 0.69644 0.30471 0.31055 0.0
O15 O 0.66824 0.26829 0.31689 0.0
C16 C 0.65167 0.26801 0.3346 0.0
O17 O 0.65099 0.29004 0.34744 0.0
C18 C 0.74083 0.35555 0.31317 0.0
C19 C 0.66456 0.3669 0.23662 0.0
O20 O 0.66559 0.37584 0.2621 0.0
O21 O 0.6736 0.34739 0.23187 0.0
O22 O 0.71613 0.71436 0.27041 0.0
Cd23 Cd 0.74006 0.74386 0.30799 0.0
O24 O 0.68113 0.7119 0.29135 0.0
Cd25 Cd 0.69519 0.74363 0.32294 0.0
O26 O 0.68854 0.77712 0.34649 0.0
C27 C 0.66767 0.78142 0.34019 0.0
O28 O 0.65304 0.76606 0.32099 0.0
C29 C 0.69289 0.70466 0.27156 0.0
C30 C 0.77347 0.72196 0.3379 0.0
O31 O 0.75082 0.71776 0.34463 0.0
O32 O 0.78036 0.73645 0.31694 0.0
O33 O 0.32379 0.78084 0.27244 0.0
Cd34 Cd 0.296 0.74755 0.24127 0.0
O35 O 0.30372 0.75741 0.30529 0.0
Cd36 Cd 0.28943 0.74579 0.34647 0.0
O37 O 0.2595 0.71976 0.36798 0.0
C38 C 0.24191 0.72776 0.37804 0.0
O39 O 0.24278 0.75273 0.37744 0.0
C40 C 0.32018 0.77742 0.2985 0.0
C41 C 0.3175 0.71076 0.21698 0.0
O42 O 0.3153 0.73074 0.20348 0.0
O43 O 0.30996 0.70841 0.24218 0.0
O44 O 0.35515 0.76682 0.74959 0.0
Cd45 Cd 0.33149 0.72962 0.77561 0.0
O46 O 0.32237 0.76939 0.72356 0.0
Cd47 Cd 0.29443 0.73507 0.73628 0.0
O48 O 0.25855 0.70922 0.72181 0.0
C49 C 0.25669 0.70307 0.6956 0.0
O50 O 0.2762 0.71132 0.68045 0.0
C51 C 0.34523 0.77811 0.73077 0.0
C52 C 0.35952 0.70477 0.81044 0.0
O53 O 0.35211 0.6958 0.7854 0.0
O54 O 0.35419 0.72575 0.81883 0.0
O55 O 0.32143 0.32642 0.73134 0.0
Cd56 Cd 0.29592 0.30394 0.69042 0.0
O57 O 0.2914 0.33873 0.75207 0.0
Cd58 Cd 0.26321 0.32754 0.71736 0.0
O59 O 0.2327 0.33534 0.69127 0.0
C60 C 0.23178 0.35906 0.692 0.0
O61 O 0.24887 0.37613 0.70725 0.0
C62 C 0.31381 0.33736 0.75212 0.0
C63 C 0.31561 0.2655 0.66564 0.0
O64 O 0.32235 0.28932 0.65843 0.0
O65 O 0.29956 0.25976 0.68462 0.0
O66 O 0.68981 0.36922 0.73132 0.0
Cd67 Cd 0.70139 0.33881 0.69831 0.0
O68 O 0.70079 0.35158 0.76955 0.0
Cd69 Cd 0.70614 0.31868 0.74415 0.0
O70 O 0.69444 0.28697 0.71226 0.0
C71 C 0.69048 0.26304 0.71807 0.0
O72 O 0.69495 0.25686 0.74403 0.0
C73 C 0.6927 0.36938 0.75806 0.0
C74 C 0.74821 0.3607 0.67856 0.0
O75 O 0.72858 0.36315 0.6653 0.0
O76 O 0.74568 0.3476 0.70108 0.0
O77 O 0.75193 0.73279 0.60935 0.0
Cd78 Cd 0.72329 0.74964 0.63778 0.0
O79 O 0.73027 0.69215 0.61344 0.0
Cd80 Cd 0.70505 0.70034 0.64442 0.0
O81 O 0.68624 0.69244 0.6841 0.0
C82 C 0.66834 0.67213 0.68507 0.0
O83 O 0.66097 0.65772 0.66188 0.0
C84 C 0.74845 0.70856 0.60343 0.0
C85 C 0.6993 0.78285 0.61003 0.0
O86 O 0.7203 0.79183 0.62331 0.0
O87 O 0.68988 0.7581 0.60936 0.0
Co88 Co 0.04066 0.50053 0.53117 0.0
Co89 Co 0.01996 0.48896 0.48046 0.0
Co90 Co -0.0055 0.52859 0.51247 0.0
O91 O 0.00794 0.49706 0.51485 0.0
H92 H -0.00407 0.48206 0.52143 0.0
O93 O 0.98129 0.56017 0.51 0.0
Co94 Co 0.94839 0.55737 0.49474 0.0
Co95 Co 0.97064 0.56869 0.54512 0.0
H96 H -0.00673 0.57501 0.50313 0.0
O97 O 0.02642 0.45657 0.47214 0.0
O98 O 0.05209 0.4915 0.49435 0.0
O99 O 0.0235 0.51504 0.45235 0.0
O100 O 0.01767 0.54544 0.48261 0.0
O101 O 0.96945 0.50933 0.48276 0.0
O102 O 0.91888 0.55785 0.47984 0.0
O103 O 0.95348 0.59093 0.48452 0.0
O104 O 0.93914 0.52167 0.50243 0.0
O105 O 0.97144 0.51182 0.54246 0.0
O106 O 0.96816 0.54284 0.57348 0.0
O107 O 0.93829 0.56615 0.53237 0.0
O108 O 0.96442 0.60129 0.55355 0.0
C109 C 0.05873 0.47672 0.55171 0.0
C110 C 0.04252 0.55157 0.53897 0.0
C111 C 0.02578 0.53879 0.45948 0.0
C112 C 0.04822 0.46815 0.48308 0.0
C113 C 0.93021 0.58216 0.47617 0.0
C114 C 0.94629 0.50679 0.48513 0.0
C115 C 0.96501 0.51893 0.56638 0.0
C116 C 0.94245 0.58971 0.54309 0.0
O117 O 0.0697 0.50099 0.5475 0.0
O118 O 0.0359 0.46704 0.54208 0.0
O119 O 0.01939 0.54806 0.54215 0.0
O120 O 0.05002 0.53612 0.52277 0.0
Co121 Co 0.52498 0.9715 0.49913 0.0
Co122 Co 0.53738 0.99358 0.54908 0.0
Co123 Co 0.49669 0.01825 0.5203 0.0
O124 O 0.52692 0.00535 0.51561 0.0
H125 H 0.54036 0.01861 0.50842 0.0
O126 O 0.46671 0.03166 0.52466 0.0
Co127 Co 0.46927 0.0673 0.53667 0.0
Co128 Co 0.45676 0.04029 0.48888 0.0
H129 H 0.45337 0.01926 0.5331 0.0
O130 O 0.56935 0.99 0.55527 0.0
O131 O 0.53646 0.96011 0.53566 0.0
O132 O 0.51526 0.99028 0.57939 0.0
O133 O 0.48327 0.99364 0.55164 0.0
O134 O 0.51601 0.045 0.54836 0.0
O135 O 0.46863 0.09905 0.54861 0.0
O136 O 0.43739 0.06241 0.54671 0.0
O137 O 0.50361 0.07731 0.52921 0.0
O138 O 0.51009 0.04271 0.48913 0.0
O139 O 0.47853 0.0395 0.45842 0.0
O140 O 0.45988 0.07538 0.49767 0.0
O141 O 0.42574 0.04567 0.48058 0.0
C142 C 0.54842 0.95476 0.47771 0.0
C143 C 0.47535 0.96722 0.49396 0.0
C144 C 0.49213 0.98674 0.57466 0.0
C145 C 0.55942 0.96643 0.54537 0.0
C146 C 0.44561 0.0874 0.55275 0.0
C147 C 0.51904 0.06932 0.54474 0.0
C148 C 0.5016 0.04626 0.46457 0.0
C149 C 0.43723 0.06979 0.487 0.0
O150 O 0.52597 0.94154 0.48241 0.0
O151 O 0.55633 0.97893 0.48714 0.0
O152 O 0.4773 0.99157 0.49205 0.0
O153 O 0.49137 0.95939 0.50862 0.0
Co154 Co 0.46968 0.52526 0.06877 0.0
Co155 Co 0.46436 0.47865 0.04763 0.0
Co156 Co 0.50469 0.51923 0.01318 0.0
O157 O 0.47266 0.51128 0.03225 0.0
H158 H 0.4593 0.51278 0.01943 0.0
O159 O 0.53654 0.52701 0.99368 0.0
Co160 Co 0.53812 0.51674 0.95507 0.0
Co161 Co 0.54511 0.56166 0.98281 0.0
H162 H 0.54986 0.52369 0.00537 0.0
O163 O 0.43221 0.4611 0.05588 0.0
O164 O 0.46015 0.4897 0.0842 0.0
O165 O 0.48998 0.46044 0.04906 0.0
O166 O 0.51947 0.49469 0.03626 0.0
O167 O 0.48889 0.49051 0.98506 0.0
O168 O 0.54295 0.50719 0.92012 0.0
O169 O 0.57068 0.51796 0.95701 0.0
O170 O 0.50378 0.51274 0.94811 0.0
O171 O 0.49026 0.54411 0.9901 0.0
O172 O 0.52034 0.58069 0.98791 0.0
O173 O 0.54488 0.55363 0.94436 0.0
O174 O 0.5764 0.57944 0.97043 0.0
C175 C 0.44238 0.5369 0.08859 0.0
C176 C 0.5209 0.54416 0.06803 0.0
C177 C 0.51263 0.47209 0.04675 0.0
C178 C 0.43909 0.47215 0.08063 0.0
C179 C 0.56527 0.50979 0.93081 0.0
C180 C 0.48812 0.49399 0.95861 0.0
C181 C 0.4976 0.56852 0.98544 0.0
C182 C 0.56648 0.57026 0.9459 0.0
O183 O 0.46377 0.53894 0.10155 0.0
O184 O 0.43785 0.52587 0.06339 0.0
O185 O 0.52065 0.54777 0.04155 0.0
O186 O 0.50326 0.52759 0.07872 0.0
C187 C 0.22384 0.37521 0.43223 0.0
C188 C 0.23403 0.38643 0.40739 0.0
C189 C 0.20377 0.38248 0.4438 0.0
C190 C 0.17336 0.43643 0.44423 0.0
H191 H 0.11614 0.38545 0.46988 0.0
C192 C 0.09294 0.46909 0.49151 0.0
C193 C 0.06914 0.45592 0.48067 0.0
C194 C 0.1132 0.4589 0.48693 0.0
C195 C 0.13201 0.3999 0.46281 0.0
H196 H 0.23084 0.41375 0.37504 0.0
H197 H 0.19608 0.42626 0.3951 0.0
H198 H 0.15134 0.37102 0.45253 0.0
H199 H 0.04779 0.42102 0.45771 0.0
H200 H 0.08328 0.40348 0.44925 0.0
H201 H 0.15398 0.46522 0.45357 0.0
C202 C 0.20371 0.41211 0.40586 0.0
C203 C 0.15223 0.39166 0.45311 0.0
C204 C 0.22358 0.4048 0.39426 0.0
C205 C 0.06589 0.43173 0.46624 0.0
C206 C 0.08622 0.42157 0.46155 0.0
C207 C 0.15328 0.44465 0.45399 0.0
C208 C 0.19369 0.40123 0.43087 0.0
C209 C 0.17294 0.40983 0.44326 0.0
C210 C 0.11021 0.43538 0.47125 0.0
C211 C 0.13222 0.42648 0.46307 0.0
H212 H 0.23144 0.36097 0.44282 0.0
H213 H 0.19649 0.37382 0.46315 0.0
H214 H 0.18918 0.45095 0.43714 0.0
H215 H 0.09613 0.48766 0.50292 0.0
H216 H 0.13136 0.46979 0.49515 0.0
C217 C 0.61599 0.24295 0.36141 0.0
C218 C 0.63478 0.24302 0.34253 0.0
C219 C 0.60113 0.21944 0.37054 0.0
C220 C 0.6012 0.15103 0.38066 0.0
H221 H 0.53107 0.1422 0.39088 0.0
C222 C 0.54316 0.07479 0.45317 0.0
C223 C 0.51822 0.06316 0.44502 0.0
C224 C 0.55772 0.09403 0.43694 0.0
C225 C 0.55056 0.14416 0.38783 0.0
H226 H 0.65233 0.21833 0.31796 0.0
H227 H 0.62633 0.17726 0.33393 0.0
H228 H 0.55496 0.18126 0.36907 0.0
H229 H 0.48958 0.06153 0.41232 0.0
H230 H 0.51504 0.09489 0.38398 0.0
H231 H 0.5968 0.11399 0.39972 0.0
C232 C 0.62325 0.19545 0.34181 0.0
C233 C 0.5643 0.16671 0.37561 0.0
C234 C 0.63803 0.21899 0.33253 0.0
C235 C 0.50864 0.07017 0.41939 0.0
C236 C 0.52318 0.08944 0.40321 0.0
C237 C 0.58746 0.12851 0.39304 0.0
C238 C 0.60477 0.19542 0.36111 0.0
C239 C 0.58984 0.17057 0.3722 0.0
C240 C 0.54767 0.10211 0.41219 0.0
C241 C 0.56202 0.12494 0.39704 0.0
H242 H 0.61298 0.26108 0.36956 0.0
H243 H 0.58725 0.22013 0.38565 0.0
H244 H 0.62088 0.15351 0.37853 0.0
H245 H 0.55118 0.0699 0.47277 0.0
H246 H 0.57646 0.1035 0.44456 0.0
C247 C 0.81666 0.71854 0.34972 0.0
C248 C 0.79109 0.71037 0.35383 0.0
C249 C 0.83324 0.70753 0.36476 0.0
C250 C 0.83793 0.66729 0.42731 0.0
H251 H 0.89361 0.65363 0.38898 0.0
C252 C 0.89003 0.59232 0.46349 0.0
C253 C 0.91608 0.59977 0.4642 0.0
C254 C 0.87635 0.60858 0.45224 0.0
C255 C 0.87834 0.65765 0.40007 0.0
H256 H 0.76288 0.6841 0.37685 0.0
H257 H 0.79155 0.66431 0.40232 0.0
H258 H 0.86649 0.67629 0.3647 0.0
H259 H 0.9482 0.63026 0.4538 0.0
H260 H 0.92409 0.65844 0.43311 0.0
H261 H 0.84932 0.64756 0.46224 0.0
C262 C 0.799 0.67974 0.3881 0.0
C263 C 0.86278 0.6707 0.3862 0.0
C264 C 0.78248 0.69095 0.3733 0.0
C265 C 0.92816 0.62397 0.45348 0.0
C266 C 0.91439 0.64005 0.44162 0.0
C267 C 0.8533 0.65396 0.44101 0.0
C268 C 0.82464 0.68786 0.38408 0.0
C269 C 0.84214 0.67541 0.39948 0.0
C270 C 0.88834 0.63247 0.4409 0.0
C271 C 0.87347 0.64873 0.4274 0.0
H272 H 0.82392 0.73361 0.33501 0.0
H273 H 0.85284 0.71462 0.36137 0.0
H274 H 0.82263 0.67108 0.43852 0.0
H275 H 0.88013 0.5739 0.47178 0.0
H276 H 0.8563 0.60215 0.45177 0.0
C277 C 0.34247 0.82318 0.31312 0.0
C278 C 0.33417 0.79687 0.31995 0.0
C279 C 0.35605 0.84173 0.33301 0.0
C280 C 0.3737 0.85236 0.40999 0.0
H281 H 0.42544 0.90912 0.38316 0.0
C282 C 0.45127 0.92123 0.48161 0.0
C283 C 0.45623 0.94805 0.47653 0.0
C284 C 0.43467 0.90295 0.46376 0.0
C285 C 0.4109 0.89351 0.39093 0.0
H286 H 0.33412 0.76918 0.35271 0.0
H287 H 0.35849 0.80133 0.38724 0.0
H288 H 0.40053 0.87663 0.34955 0.0
H289 H 0.44719 0.97672 0.44911 0.0
H290 H 0.41853 0.9447 0.41769 0.0
H291 H 0.385 0.86901 0.45159 0.0
C292 C 0.35379 0.80792 0.36686 0.0
C293 C 0.39649 0.87489 0.37166 0.0
C294 C 0.33983 0.78942 0.34706 0.0
C295 C 0.44378 0.95622 0.45362 0.0
C296 C 0.42748 0.9379 0.43554 0.0
C297 C 0.38841 0.87081 0.42932 0.0
C298 C 0.36217 0.83436 0.36009 0.0
C299 C 0.37758 0.8541 0.38085 0.0
C300 C 0.42298 0.91108 0.44025 0.0
C301 C 0.40707 0.89162 0.41994 0.0
H302 H 0.33821 0.82951 0.29243 0.0
H303 H 0.3616 0.86191 0.32711 0.0
H304 H 0.35911 0.83694 0.41791 0.0
H305 H 0.46051 0.91432 0.49913 0.0
H306 H 0.43162 0.88238 0.46779 0.0
C307 C 0.23168 0.68111 0.65294 0.0
C308 C 0.23276 0.6885 0.68169 0.0
C309 C 0.20912 0.66875 0.63904 0.0
C310 C 0.14497 0.63116 0.65031 0.0
H311 H 0.13454 0.64952 0.57304 0.0
C312 C 0.05597 0.58195 0.58148 0.0
C313 C 0.06115 0.57215 0.55525 0.0
C314 C 0.07485 0.59909 0.59808 0.0
C315 C 0.13715 0.64421 0.59461 0.0
H316 H 0.2109 0.68826 0.71854 0.0
H317 H 0.17129 0.66674 0.6941 0.0
H318 H 0.17158 0.67325 0.60038 0.0
H319 H 0.08973 0.57354 0.52523 0.0
H320 H 0.12233 0.60357 0.55378 0.0
H321 H 0.11054 0.60183 0.6442 0.0
C322 C 0.18803 0.6704 0.68239 0.0
C323 C 0.15844 0.6577 0.61026 0.0
C324 C 0.21072 0.68277 0.69638 0.0
C325 C 0.08518 0.58068 0.5454 0.0
C326 C 0.10385 0.59801 0.5617 0.0
C327 C 0.12354 0.61771 0.63464 0.0
C328 C 0.18694 0.66353 0.65344 0.0
C329 C 0.16297 0.65089 0.63805 0.0
C330 C 0.09904 0.60707 0.58842 0.0
C331 C 0.11975 0.62368 0.60639 0.0
H332 H 0.24829 0.68502 0.641 0.0
H333 H 0.2091 0.66318 0.61692 0.0
H334 H 0.14791 0.62533 0.6716 0.0
H335 H 0.03762 0.57561 0.58963 0.0
H336 H 0.07061 0.60589 0.61854 0.0
C337 C 0.3168 0.21876 0.65809 0.0
C338 C 0.32614 0.2453 0.65247 0.0
C339 C 0.32687 0.19979 0.64568 0.0
C340 C 0.36654 0.18947 0.58717 0.0
H341 H 0.37599 0.13224 0.63179 0.0
C342 C 0.43618 0.13046 0.56057 0.0
C343 C 0.42891 0.10316 0.56245 0.0
C344 C 0.42088 0.14581 0.56957 0.0
C345 C 0.37313 0.14789 0.61893 0.0
H346 H 0.35348 0.27269 0.62948 0.0
H347 H 0.3714 0.23987 0.60848 0.0
H348 H 0.35486 0.16309 0.65162 0.0
H349 H 0.39969 0.07054 0.5751 0.0
H350 H 0.37306 0.09765 0.59171 0.0
H351 H 0.38566 0.17473 0.5549 0.0
C352 C 0.35591 0.23351 0.62192 0.0
C353 C 0.36099 0.1656 0.63026 0.0
C354 C 0.34574 0.25242 0.63416 0.0
C355 C 0.40583 0.09152 0.57346 0.0
C356 C 0.39064 0.10701 0.583 0.0
C357 C 0.37885 0.17192 0.57598 0.0
C358 C 0.34661 0.20691 0.62746 0.0
C359 C 0.3579 0.1869 0.61471 0.0
C360 C 0.39804 0.13433 0.58111 0.0
C361 C 0.38264 0.1512 0.5919 0.0
H362 H 0.30162 0.21258 0.672 0.0
H363 H 0.319 0.1795 0.65019 0.0
H364 H 0.36398 0.20519 0.57426 0.0
H365 H 0.45374 0.14009 0.55198 0.0
H366 H 0.42722 0.1668 0.56807 0.0
C367 C 0.79461 0.37229 0.68426 0.0
C368 C 0.77306 0.37309 0.66842 0.0
C369 C 0.81803 0.38487 0.67509 0.0
C370 C 0.86294 0.42808 0.65959 0.0
H371 H 0.87592 0.42671 0.57995 0.0
C372 C 0.93798 0.5062 0.60742 0.0
C373 C 0.9495 0.49884 0.58386 0.0
C374 C 0.91969 0.48783 0.62061 0.0
C375 C 0.87282 0.42699 0.60234 0.0
H376 H 0.75923 0.38744 0.63037 0.0
H377 H 0.79997 0.40941 0.61447 0.0
H378 H 0.83725 0.39981 0.59646 0.0
H379 H 0.9523 0.4659 0.55727 0.0
H380 H 0.92064 0.43388 0.58053 0.0
H381 H 0.89848 0.45553 0.66537 0.0
C382 C 0.79882 0.39886 0.63383 0.0
C383 C 0.8505 0.41182 0.61174 0.0
C384 C 0.77544 0.3864 0.64304 0.0
C385 C 0.94362 0.47234 0.57516 0.0
C386 C 0.92536 0.45398 0.58837 0.0
C387 C 0.8853 0.44334 0.65017 0.0
C388 C 0.82038 0.39836 0.64981 0.0
C389 C 0.84509 0.41257 0.64037 0.0
C390 C 0.91257 0.46169 0.61059 0.0
C391 C 0.89031 0.4433 0.62135 0.0
H392 H 0.7934 0.36217 0.70391 0.0
H393 H 0.83431 0.38397 0.68773 0.0
H394 H 0.85927 0.42919 0.68177 0.0
H395 H 0.94208 0.52641 0.61478 0.0
H396 H 0.91013 0.49447 0.63757 0.0
C397 C 0.6959 0.82782 0.59889 0.0
C398 C 0.68586 0.80064 0.59692 0.0
C399 C 0.68249 0.84469 0.58828 0.0
C400 C 0.61833 0.84735 0.57153 0.0
H401 H 0.65023 0.91224 0.53714 0.0
C402 C 0.56324 0.92066 0.53715 0.0
C403 C 0.57415 0.94683 0.54555 0.0
C404 C 0.57694 0.90201 0.53876 0.0
C405 C 0.64107 0.89423 0.54681 0.0
H406 H 0.65414 0.76987 0.5814 0.0
H407 H 0.63085 0.79931 0.56268 0.0
H408 H 0.6742 0.88101 0.54849 0.0
H409 H 0.6083 0.97407 0.56123 0.0
H410 H 0.63199 0.94159 0.56439 0.0
H411 H 0.58535 0.86077 0.57042 0.0
C412 C 0.64896 0.80759 0.57279 0.0
C413 C 0.6548 0.87634 0.55334 0.0
C414 C 0.66238 0.79071 0.58339 0.0
C415 C 0.59925 0.95406 0.55475 0.0
C416 C 0.61293 0.93546 0.55632 0.0
C417 C 0.6046 0.86522 0.565 0.0
C418 C 0.65871 0.83481 0.57544 0.0
C419 C 0.6437 0.85287 0.56621 0.0
C420 C 0.60186 0.90913 0.54877 0.0
C421 C 0.6159 0.88908 0.553 0.0
H422 H 0.71393 0.83614 0.6092 0.0
H423 H 0.69047 0.86553 0.59101 0.0
H424 H 0.60924 0.82965 0.58178 0.0
H425 H 0.544 0.91445 0.52974 0.0
H426 H 0.56795 0.88196 0.53241 0.0
C427 C 0.32485 0.22563 0.4023 0.0
C428 C 0.33629 0.25207 0.4088 0.0
C429 C 0.3352 0.20609 0.41248 0.0
C430 C 0.38035 0.19331 0.4664 0.0
H431 H 0.37838 0.13374 0.41651 0.0
C432 C 0.43702 0.11717 0.48741 0.0
C433 C 0.4248 0.09082 0.48128 0.0
C434 C 0.4256 0.13697 0.48063 0.0
C435 C 0.37885 0.15011 0.43083 0.0
H436 H 0.36758 0.27871 0.43121 0.0
H437 H 0.38595 0.24467 0.44846 0.0
H438 H 0.35999 0.168 0.40043 0.0
H439 H 0.39069 0.06466 0.46384 0.0
H440 H 0.37098 0.09914 0.45178 0.0
H441 H 0.3997 0.17539 0.49661 0.0
C442 C 0.36871 0.23897 0.43591 0.0
C443 C 0.36825 0.16976 0.42163 0.0
C444 C 0.35827 0.25852 0.42585 0.0
C445 C 0.40073 0.08473 0.46872 0.0
C446 C 0.38944 0.1045 0.46171 0.0
C447 C 0.39112 0.17367 0.47555 0.0
C448 C 0.35737 0.21248 0.42927 0.0
C449 C 0.36877 0.19161 0.43929 0.0
C450 C 0.40185 0.13085 0.46723 0.0
C451 C 0.39041 0.1518 0.45787 0.0
H452 H 0.3078 0.21995 0.38941 0.0
H453 H 0.32568 0.18592 0.40732 0.0
H454 H 0.38082 0.20966 0.48073 0.0
H455 H 0.45558 0.12256 0.49706 0.0
H456 H 0.43568 0.15711 0.48505 0.0
C457 C 0.77968 0.35934 0.34294 0.0
C458 C 0.7655 0.37091 0.3247 0.0
C459 C 0.80172 0.37417 0.35621 0.0
C460 C 0.83193 0.4419 0.37946 0.0
H461 H 0.88769 0.41343 0.39797 0.0
C462 C 0.90222 0.48667 0.46942 0.0
C463 C 0.92756 0.48942 0.46548 0.0
C464 C 0.88425 0.47233 0.44995 0.0
C465 C 0.87241 0.4218 0.39273 0.0
H466 H 0.76411 0.40705 0.30516 0.0
H467 H 0.80278 0.43293 0.32811 0.0
H468 H 0.85394 0.38874 0.36615 0.0
H469 H 0.95381 0.4785 0.43825 0.0
H470 H 0.92221 0.45329 0.404 0.0
H471 H 0.85031 0.47492 0.40593 0.0
C472 C 0.79658 0.41239 0.33249 0.0
C473 C 0.85293 0.40754 0.37471 0.0
C474 C 0.77447 0.39752 0.31918 0.0
C475 C 0.93445 0.47674 0.44193 0.0
C476 C 0.91636 0.4623 0.42232 0.0
C477 C 0.85134 0.45611 0.39744 0.0
C478 C 0.81024 0.401 0.3516 0.0
C479 C 0.83223 0.41721 0.36825 0.0
C480 C 0.89105 0.46032 0.4259 0.0
C481 C 0.87158 0.44602 0.40478 0.0
H482 H 0.77342 0.33889 0.34768 0.0
H483 H 0.81153 0.36476 0.37101 0.0
H484 H 0.81624 0.4499 0.37522 0.0
H485 H 0.89616 0.49593 0.48744 0.0
H486 H 0.86494 0.47068 0.45377 0.0
C487 C 0.63591 0.80628 0.3472 0.0
C488 C 0.65954 0.80296 0.3541 0.0
C489 C 0.62773 0.82623 0.36014 0.0
C490 C 0.6377 0.87029 0.42329 0.0
H491 H 0.59539 0.90358 0.37923 0.0
C492 C 0.59058 0.94863 0.46836 0.0
C493 C 0.56481 0.94168 0.4627 0.0
C494 C 0.60555 0.9348 0.45505 0.0
C495 C 0.60727 0.89453 0.39177 0.0
H496 H 0.69319 0.81817 0.38005 0.0
H497 H 0.6789 0.85339 0.40259 0.0
H498 H 0.61587 0.87403 0.35583 0.0
H499 H 0.53453 0.91519 0.43862 0.0
H500 H 0.56061 0.89173 0.41488 0.0
H501 H 0.6287 0.89086 0.45932 0.0
C502 C 0.66664 0.84029 0.38728 0.0
C503 C 0.6189 0.87749 0.37843 0.0
C504 C 0.67487 0.82019 0.37429 0.0
C505 C 0.55434 0.92103 0.44331 0.0
C506 C 0.56927 0.90766 0.42964 0.0
C507 C 0.62619 0.88762 0.43665 0.0
C508 C 0.64296 0.84358 0.38027 0.0
C509 C 0.6336 0.86446 0.39411 0.0
C510 C 0.59499 0.9143 0.43542 0.0
C511 C 0.61028 0.89926 0.42108 0.0
H512 H 0.62352 0.79332 0.33189 0.0
H513 H 0.60918 0.82774 0.35466 0.0
H514 H 0.6488 0.86053 0.43604 0.0
H515 H 0.59904 0.96426 0.48354 0.0
H516 H 0.62533 0.94022 0.45992 0.0
C517 C 0.21612 0.68192 0.38164 0.0
C518 C 0.2195 0.70876 0.38726 0.0
C519 C 0.19411 0.66405 0.3881 0.0
C520 C 0.12848 0.65985 0.40315 0.0
H521 H 0.12978 0.59124 0.42834 0.0
C522 C 0.04636 0.5858 0.4517 0.0
C523 C 0.04287 0.55927 0.44393 0.0
C524 C 0.06623 0.60473 0.44175 0.0
C525 C 0.12911 0.61022 0.42097 0.0
H526 H 0.20271 0.73783 0.40494 0.0
H527 H 0.16459 0.70656 0.41712 0.0
H528 H 0.1685 0.62291 0.41952 0.0
H529 H 0.0565 0.53219 0.41788 0.0
H530 H 0.09111 0.56526 0.40066 0.0
H531 H 0.08896 0.64713 0.40555 0.0
C532 C 0.17868 0.69936 0.40696 0.0
C533 C 0.1513 0.62841 0.4159 0.0
C534 C 0.20063 0.71728 0.40022 0.0
C535 C 0.05862 0.55239 0.42439 0.0
C536 C 0.0786 0.57129 0.41469 0.0
C537 C 0.10626 0.6417 0.40856 0.0
C538 C 0.17501 0.67253 0.40067 0.0
C539 C 0.15131 0.65343 0.40678 0.0
C540 C 0.08307 0.59748 0.42403 0.0
C541 C 0.10637 0.61666 0.41736 0.0
H542 H 0.2302 0.67469 0.37149 0.0
H543 H 0.19187 0.64364 0.38253 0.0
H544 H 0.12771 0.67876 0.39572 0.0
H545 H 0.03454 0.59181 0.46665 0.0
H546 H 0.06925 0.62479 0.44929 0.0
C547 C 0.34882 0.81279 0.69516 0.0
C548 C 0.36 0.8014 0.71673 0.0
C549 C 0.3624 0.83446 0.68143 0.0
C550 C 0.4188 0.88913 0.68809 0.0
H551 H 0.40989 0.8898 0.6067 0.0
C552 C 0.48486 0.96191 0.61919 0.0
C553 C 0.47519 0.97046 0.59444 0.0
C554 C 0.46977 0.94342 0.63572 0.0
C555 C 0.4123 0.89022 0.62947 0.0
H556 H 0.39434 0.80422 0.74091 0.0
H557 H 0.41817 0.84217 0.71674 0.0
H558 H 0.38632 0.853 0.63212 0.0
H559 H 0.44159 0.96724 0.56868 0.0
H560 H 0.41513 0.93533 0.59788 0.0
H561 H 0.44489 0.92636 0.6854 0.0
C562 C 0.39875 0.83431 0.71066 0.0
C563 C 0.39884 0.86901 0.64406 0.0
C564 C 0.38514 0.81247 0.7244 0.0
C565 C 0.44971 0.96106 0.58751 0.0
C566 C 0.43458 0.94255 0.60412 0.0
C567 C 0.43223 0.91043 0.6735 0.0
C568 C 0.38755 0.84544 0.68887 0.0
C569 C 0.40197 0.86815 0.67353 0.0
C570 C 0.44456 0.93301 0.62805 0.0
C571 C 0.42924 0.91119 0.64396 0.0
H572 H 0.32948 0.80493 0.68871 0.0
H573 H 0.35308 0.84276 0.66505 0.0
H574 H 0.42139 0.88924 0.71083 0.0
H575 H 0.50438 0.96872 0.62529 0.0
H576 H 0.4782 0.93644 0.65383 0.0
C577 C 0.2112 0.39391 0.67864 0.0
C578 C 0.21157 0.36753 0.67694 0.0
C579 C 0.192 0.40223 0.66547 0.0
C580 C 0.14269 0.38562 0.60923 0.0
H581 H 0.11887 0.4382 0.64951 0.0
C582 C 0.0659 0.43319 0.56431 0.0
C583 C 0.07283 0.46061 0.56672 0.0
C584 C 0.08026 0.4186 0.57808 0.0
C585 C 0.1253 0.42351 0.63798 0.0
H586 H 0.19211 0.32924 0.65956 0.0
H587 H 0.15833 0.34389 0.63645 0.0
H588 H 0.14877 0.41854 0.67284 0.0
H589 H 0.1001 0.49417 0.58548 0.0
H590 H 0.12467 0.46894 0.60953 0.0
H591 H 0.1193 0.39109 0.57415 0.0
C592 C 0.17306 0.3581 0.648 0.0
C593 C 0.14251 0.4123 0.65131 0.0
C594 C 0.19236 0.3497 0.66131 0.0
C595 C 0.09418 0.47308 0.58322 0.0
C596 C 0.10823 0.45861 0.59717 0.0
C597 C 0.12531 0.39684 0.59586 0.0
C598 C 0.17254 0.38445 0.65021 0.0
C599 C 0.15199 0.39379 0.63686 0.0
C600 C 0.10148 0.43123 0.59484 0.0
C601 C 0.117 0.41644 0.60988 0.0
H602 H 0.22573 0.40825 0.69031 0.0
H603 H 0.19251 0.42277 0.66711 0.0
H604 H 0.14965 0.37145 0.59749 0.0
H605 H 0.04967 0.42307 0.55151 0.0
H606 H 0.07466 0.39751 0.5759 0.0
C607 C 0.67256 0.21603 0.70309 0.0
C608 C 0.67817 0.24257 0.69664 0.0
C609 C 0.65853 0.19698 0.68391 0.0
C610 C 0.61093 0.18987 0.62731 0.0
H611 H 0.62352 0.12238 0.61224 0.0
C612 C 0.54659 0.11464 0.5508 0.0
C613 C 0.54045 0.0885 0.55874 0.0
C614 C 0.56574 0.13318 0.56518 0.0
C615 C 0.61962 0.14104 0.61643 0.0
H616 H 0.67449 0.26978 0.66435 0.0
H617 H 0.65001 0.23658 0.63102 0.0
H618 H 0.65315 0.15517 0.64195 0.0
H619 H 0.55004 0.06119 0.58757 0.0
H620 H 0.58299 0.09367 0.61323 0.0
H621 H 0.57712 0.17573 0.60277 0.0
C622 C 0.65623 0.23054 0.65104 0.0
C623 C 0.63664 0.15983 0.63337 0.0
C624 C 0.67036 0.24953 0.67011 0.0
C625 C 0.55434 0.08117 0.58091 0.0
C626 C 0.57335 0.0998 0.59552 0.0
C627 C 0.59386 0.17107 0.61062 0.0
C628 C 0.64972 0.20413 0.65796 0.0
C629 C 0.63242 0.18442 0.63903 0.0
C630 C 0.57905 0.12613 0.5881 0.0
C631 C 0.5979 0.14637 0.60501 0.0
H632 H 0.67836 0.20999 0.72331 0.0
H633 H 0.65369 0.17679 0.68989 0.0
H634 H 0.60693 0.20846 0.63172 0.0
H635 H 0.53645 0.12087 0.53358 0.0
H636 H 0.56996 0.15313 0.55845 0.0
C637 C 0.79119 0.71417 0.58566 0.0
C638 C 0.76674 0.69886 0.58745 0.0
C639 C 0.80946 0.70326 0.57496 0.0
C640 C 0.82213 0.63866 0.56738 0.0
H641 H 0.87948 0.67599 0.52814 0.0
C642 C 0.89767 0.58899 0.53637 0.0
C643 C 0.92222 0.60307 0.54327 0.0
C644 C 0.87837 0.60124 0.53719 0.0
C645 C 0.86359 0.66539 0.53919 0.0
H646 H 0.74183 0.66083 0.57719 0.0
H647 H 0.77338 0.64212 0.55781 0.0
H648 H 0.84582 0.69666 0.53661 0.0
H649 H 0.94584 0.64127 0.55563 0.0
H650 H 0.912 0.66262 0.55747 0.0
H651 H 0.83989 0.6076 0.57035 0.0
C652 C 0.77872 0.66226 0.56554 0.0
C653 C 0.84432 0.67721 0.54405 0.0
C654 C 0.76057 0.67304 0.57648 0.0
C655 C 0.9271 0.62984 0.55039 0.0
C656 C 0.90776 0.64213 0.55116 0.0
C657 C 0.84125 0.62687 0.56242 0.0
C658 C 0.80357 0.67691 0.56562 0.0
C659 C 0.82343 0.66404 0.55843 0.0
C660 C 0.88314 0.62785 0.54499 0.0
C661 C 0.86231 0.64014 0.54852 0.0
H662 H 0.79654 0.73412 0.59398 0.0
H663 H 0.8284 0.71511 0.57549 0.0
H664 H 0.80667 0.62812 0.5791 0.0
H665 H 0.89325 0.56837 0.53062 0.0
H666 H 0.85964 0.58978 0.53193 0.0
C667 C 0.35315 0.39455 0.30625 0.0
C668 C 0.34159 0.36767 0.30651 0.0
C669 C 0.3637 0.4058 0.28183 0.0
C670 C 0.35871 0.39793 0.20518 0.0
H671 H 0.42477 0.44455 0.20788 0.0
C672 C 0.40807 0.43725 0.10415 0.0
C673 C 0.42501 0.46197 0.10557 0.0
C674 C 0.39704 0.42622 0.12847 0.0
C675 C 0.40611 0.43199 0.20675 0.0
H676 H 0.33222 0.33152 0.28133 0.0
H677 H 0.35036 0.35138 0.23841 0.0
H678 H 0.40795 0.42402 0.25073 0.0
H679 H 0.44264 0.4951 0.13339 0.0
H680 H 0.4226 0.47648 0.17549 0.0
H681 H 0.35644 0.40634 0.16148 0.0
C682 C 0.35128 0.36362 0.25724 0.0
C683 C 0.39658 0.42007 0.23132 0.0
C684 C 0.34108 0.35225 0.28185 0.0
C685 C 0.42981 0.47593 0.1316 0.0
C686 C 0.41849 0.46508 0.15584 0.0
C687 C 0.36809 0.41015 0.18066 0.0
C688 C 0.36259 0.39054 0.25698 0.0
C689 C 0.37283 0.40285 0.23077 0.0
C690 C 0.40238 0.43981 0.15477 0.0
C691 C 0.39197 0.42731 0.18106 0.0
H692 H 0.35389 0.40697 0.3249 0.0
H693 H 0.37218 0.42662 0.28217 0.0
H694 H 0.34019 0.385 0.20426 0.0
H695 H 0.40407 0.42589 0.08446 0.0
H696 H 0.38502 0.40662 0.12674 0.0
C697 C 0.37265 0.66467 0.8238 0.0
C698 C 0.37327 0.691 0.82937 0.0
C699 C 0.38486 0.65138 0.84224 0.0
C700 C 0.43654 0.66118 0.89398 0.0
H701 H 0.40182 0.59425 0.92201 0.0
C702 C 0.48506 0.60941 0.97468 0.0
C703 C 0.48014 0.5821 0.97233 0.0
C704 C 0.47053 0.62266 0.95937 0.0
C705 C 0.41198 0.61273 0.91413 0.0
H706 H 0.38749 0.7241 0.85846 0.0
H707 H 0.40942 0.70105 0.8902 0.0
H708 H 0.38009 0.61715 0.89009 0.0
H709 H 0.45574 0.54719 0.95251 0.0
H710 H 0.431 0.57021 0.92496 0.0
H711 H 0.46869 0.65657 0.91676 0.0
C712 C 0.39925 0.69068 0.87171 0.0
C713 C 0.39943 0.62589 0.89591 0.0
C714 C 0.38665 0.70383 0.85358 0.0
C715 C 0.45985 0.56824 0.955 0.0
C716 C 0.4456 0.58153 0.93922 0.0
C717 C 0.44922 0.64785 0.91175 0.0
C718 C 0.39834 0.66427 0.86634 0.0
C719 C 0.41157 0.65027 0.88571 0.0
C720 C 0.45101 0.60901 0.94075 0.0
C721 C 0.43715 0.62342 0.92221 0.0
H722 H 0.36242 0.65419 0.8054 0.0
H723 H 0.384 0.63108 0.83747 0.0
H724 H 0.44644 0.67982 0.88616 0.0
H725 H 0.50046 0.62062 0.98805 0.0
H726 H 0.47491 0.64371 0.96191 0.0
C727 C 0.32241 0.35564 0.80186 0.0
C728 C 0.33127 0.34977 0.77582 0.0
C729 C 0.33881 0.36874 0.82368 0.0
C730 C 0.40641 0.38982 0.84579 0.0
H731 H 0.38529 0.43963 0.89367 0.0
C732 C 0.47378 0.47367 0.91082 0.0
C733 C 0.46935 0.47598 0.93962 0.0
C734 C 0.45653 0.45646 0.89268 0.0
C735 C 0.39132 0.42559 0.88063 0.0
H736 H 0.36435 0.35298 0.75233 0.0
H737 H 0.39281 0.3767 0.78969 0.0
H738 H 0.35615 0.41309 0.85832 0.0
H739 H 0.44314 0.46228 0.9719 0.0
H740 H 0.41243 0.43266 0.93975 0.0
H741 H 0.44201 0.40355 0.86733 0.0
C742 C 0.3733 0.37052 0.79382 0.0
C743 C 0.37461 0.41021 0.86041 0.0
C744 C 0.35693 0.357 0.77222 0.0
C745 C 0.44709 0.46086 0.94983 0.0
C746 C 0.42953 0.44401 0.93147 0.0
C747 C 0.42321 0.40556 0.86563 0.0
C748 C 0.3645 0.37676 0.81986 0.0
C749 C 0.38195 0.39222 0.84248 0.0
C750 C 0.43421 0.44153 0.90277 0.0
C751 C 0.41589 0.42371 0.88309 0.0
H752 H 0.30275 0.35014 0.8054 0.0
H753 H 0.33125 0.37257 0.84352 0.0
H754 H 0.41271 0.37582 0.83301 0.0
H755 H 0.49078 0.48495 0.90229 0.0
H756 H 0.46049 0.45507 0.8706 0.0
C757 C 0.67343 0.40684 0.76289 0.0
C758 C 0.6852 0.3893 0.77561 0.0
C759 C 0.66411 0.42397 0.77937 0.0
C760 C 0.66625 0.4549 0.8501 0.0
H761 H 0.59776 0.45279 0.8308 0.0
C762 C 0.60326 0.49377 0.9252 0.0
C763 C 0.58399 0.50302 0.91311 0.0
C764 C 0.61861 0.4836 0.90803 0.0
C765 C 0.61705 0.45416 0.83623 0.0
H766 H 0.6975 0.37694 0.81564 0.0
H767 H 0.68121 0.40703 0.84446 0.0
H768 H 0.61938 0.4285 0.8016 0.0
H769 H 0.56695 0.51105 0.87374 0.0
H770 H 0.5943 0.49453 0.84383 0.0
H771 H 0.66388 0.48066 0.8848 0.0
C772 C 0.67924 0.40744 0.8217 0.0
C773 C 0.62941 0.44009 0.81949 0.0
C774 C 0.68843 0.39012 0.80519 0.0
C775 C 0.58141 0.50362 0.88363 0.0
C776 C 0.59699 0.49396 0.8665 0.0
C777 C 0.65393 0.46928 0.86676 0.0
C778 C 0.66648 0.4241 0.80894 0.0
C779 C 0.65407 0.44017 0.82631 0.0
C780 C 0.6152 0.4829 0.87843 0.0
C781 C 0.62909 0.46897 0.8601 0.0
H782 H 0.67074 0.40688 0.74017 0.0
H783 H 0.65463 0.43684 0.76898 0.0
H784 H 0.68533 0.45541 0.85573 0.0
H785 H 0.6056 0.49305 0.94791 0.0
H786 H 0.6323 0.47515 0.91801 0.0
C787 C 0.66785 0.67615 0.73789 0.0
C788 C 0.65729 0.66357 0.71224 0.0
C789 C 0.65835 0.66683 0.7636 0.0
C790 C 0.60261 0.62624 0.79491 0.0
H791 H 0.64828 0.61876 0.85577 0.0
C792 C 0.56791 0.56952 0.89325 0.0
C793 C 0.57869 0.57993 0.91966 0.0
C794 C 0.57829 0.5797 0.86834 0.0
C795 C 0.63528 0.62101 0.83913 0.0
H796 H 0.62813 0.63168 0.69351 0.0
H797 H 0.61156 0.61555 0.73827 0.0
H798 H 0.66438 0.63764 0.81173 0.0
H799 H 0.60919 0.60892 0.94054 0.0
H800 H 0.62705 0.62709 0.89698 0.0
H801 H 0.57352 0.60983 0.8222 0.0
C802 C 0.62712 0.63266 0.73852 0.0
C803 C 0.64451 0.63183 0.8139 0.0
C804 C 0.6367 0.64185 0.71286 0.0
C805 C 0.60044 0.60042 0.92055 0.0
C806 C 0.61075 0.61076 0.89556 0.0
C807 C 0.5934 0.61555 0.82014 0.0
C808 C 0.63798 0.64488 0.7642 0.0
C809 C 0.62827 0.63439 0.79144 0.0
C810 C 0.59958 0.60075 0.86914 0.0
C811 C 0.60959 0.61258 0.8425 0.0
H812 H 0.68373 0.69293 0.73817 0.0
H813 H 0.66694 0.67683 0.78303 0.0
H814 H 0.58962 0.62832 0.77817 0.0
H815 H 0.5512 0.55368 0.89173 0.0
H816 H 0.5695 0.57111 0.8484 0.0
C817 C 0.65545 0.66974 0.25479 0.0
C818 C 0.67906 0.68559 0.24953 0.0
C819 C 0.64159 0.65274 0.23374 0.0
C820 C 0.63117 0.64413 0.15773 0.0
H821 H 0.59682 0.5733 0.17484 0.0
C822 C 0.56349 0.5748 0.07609 0.0
C823 C 0.54176 0.55914 0.08689 0.0
C824 C 0.58287 0.58893 0.09439 0.0
C825 C 0.60607 0.5931 0.16972 0.0
H826 H 0.7067 0.69588 0.21801 0.0
H827 H 0.68208 0.66638 0.18086 0.0
H828 H 0.62587 0.60028 0.20987 0.0
H829 H 0.52334 0.5463 0.12543 0.0
H830 H 0.55649 0.57122 0.15698 0.0
H831 H 0.61057 0.63742 0.11807 0.0
C832 C 0.6745 0.66709 0.20146 0.0
C833 C 0.62283 0.60848 0.18978 0.0
C834 C 0.68861 0.68383 0.22275 0.0
C835 C 0.53987 0.55795 0.11631 0.0
C836 C 0.55905 0.57216 0.13449 0.0
C837 C 0.61413 0.62882 0.13772 0.0
C838 C 0.65082 0.65143 0.20676 0.0
C839 C 0.6352 0.63431 0.18422 0.0
C840 C 0.58087 0.5878 0.12386 0.0
C841 C 0.60095 0.60327 0.14372 0.0
H842 H 0.64756 0.67059 0.27518 0.0
H843 H 0.6233 0.64109 0.23835 0.0
H844 H 0.64035 0.66406 0.15296 0.0
H845 H 0.56559 0.57605 0.05353 0.0
H846 H 0.59948 0.60058 0.08543 0.0
C847 C 0.32867 0.68866 0.17413 0.0
C848 C 0.32799 0.69075 0.20362 0.0
C849 C 0.33813 0.66948 0.16137 0.0
C850 C 0.35659 0.60788 0.17602 0.0
H851 H 0.39269 0.62492 0.10791 0.0
C852 C 0.42562 0.55361 0.13128 0.0
C853 C 0.42398 0.54832 0.102 0.0
C854 C 0.41058 0.56782 0.14352 0.0
C855 C 0.38238 0.61978 0.12673 0.0
H856 H 0.33685 0.67456 0.24293 0.0
H857 H 0.35449 0.64191 0.22085 0.0
H858 H 0.37413 0.6568 0.12977 0.0
H859 H 0.4046 0.55272 0.06274 0.0
H860 H 0.37866 0.57809 0.08412 0.0
H861 H 0.36619 0.57125 0.17346 0.0
C862 C 0.34696 0.65444 0.20739 0.0
C863 C 0.37163 0.63802 0.13927 0.0
C864 C 0.33705 0.67333 0.22012 0.0
C865 C 0.40624 0.55647 0.08537 0.0
C866 C 0.39151 0.57109 0.09754 0.0
C867 C 0.36776 0.58981 0.1637 0.0
C868 C 0.34763 0.65221 0.1778 0.0
C869 C 0.3586 0.63239 0.16415 0.0
C870 C 0.39393 0.57736 0.12663 0.0
C871 C 0.38077 0.59563 0.13895 0.0
H872 H 0.32152 0.70161 0.16084 0.0
H873 H 0.33775 0.66809 0.13856 0.0
H874 H 0.34634 0.60256 0.19481 0.0
H875 H 0.43906 0.54745 0.14463 0.0
H876 H 0.41285 0.57247 0.16598 0.0
C877 C 0.64971 0.40367 0.2163 0.0
C878 C 0.65232 0.37807 0.21362 0.0
C879 C 0.63698 0.41372 0.19521 0.0
C880 C 0.58601 0.39489 0.14467 0.0
H881 H 0.61491 0.45833 0.1061 0.0
C882 C 0.5274 0.43359 0.06208 0.0
C883 C 0.53156 0.46073 0.06027 0.0
C884 C 0.54397 0.42299 0.07767 0.0
C885 C 0.60632 0.44081 0.11692 0.0
H886 H 0.64373 0.34298 0.18673 0.0
H887 H 0.62066 0.36031 0.15037 0.0
H888 H 0.64028 0.44152 0.14009 0.0
H889 H 0.55642 0.49808 0.07313 0.0
H890 H 0.58456 0.47988 0.10145 0.0
H891 H 0.55175 0.3947 0.12326 0.0
C892 C 0.62887 0.37265 0.16858 0.0
C893 C 0.621 0.43111 0.13623 0.0
C894 C 0.64213 0.36282 0.18932 0.0
C895 C 0.55291 0.47705 0.07383 0.0
C896 C 0.56915 0.4665 0.09004 0.0
C897 C 0.57116 0.40489 0.12592 0.0
C898 C 0.62612 0.39815 0.1714 0.0
C899 C 0.61095 0.40808 0.15026 0.0
C900 C 0.56477 0.43928 0.09259 0.0
C901 C 0.58103 0.42806 0.11173 0.0
H902 H 0.6574 0.4159 0.23477 0.0
H903 H 0.63497 0.4334 0.1979 0.0
H904 H 0.57778 0.37723 0.15549 0.0
H905 H 0.51116 0.42054 0.05167 0.0
H906 H 0.5402 0.40196 0.07825 0.0
loop_
_geom_bond_atom_site_label_1
_geom_bond_atom_site_label_2
_geom_bond_distance
_geom_bond_site_symmetry_2
_ccdc_geom_bond_type
O0 Cd1 2.300 . S
O0 C7 1.275 . S
Cd1 O0 2.300 . S
Cd1 O9 2.381 . S
Cd1 O10 2.378 . S
O2 Cd3 2.385 . S
O2 C7 1.255 . S
Cd3 O2 2.385 . S
Cd3 O4 2.317 . S
O4 Cd3 2.317 . S
O4 C5 1.232 . S
C5 O4 1.232 . S
C5 O6 1.218 . S
O6 C5 1.218 . S
C7 O0 1.275 . S
C7 O2 1.255 . S
C8 O9 1.258 . S
C8 O10 1.256 . S
O9 Cd1 2.381 . S
O9 C8 1.258 . S
O10 Cd1 2.378 . S
O10 C8 1.256 . S
O11 Cd12 2.300 . S
O11 C18 1.275 . S
Cd12 O11 2.300 . S
Cd12 O20 2.381 . S
Cd12 O21 2.378 . S
O13 Cd14 2.385 . S
O13 C18 1.255 . S
Cd14 O13 2.385 . S
Cd14 O15 2.317 . S
O15 Cd14 2.317 . S
O15 C16 1.232 . S
C16 O15 1.232 . S
C16 O17 1.218 . S
O17 C16 1.218 . S
C18 O11 1.275 . S
C18 O13 1.255 . S
C19 O20 1.258 . S
C19 O21 1.256 . S
O20 Cd12 2.381 . S
O20 C19 1.258 . S
O21 Cd12 2.378 . S
O21 C19 1.256 . S
O22 Cd23 2.300 . S
O22 C29 1.275 . S
Cd23 O22 2.300 . S
Cd23 O31 2.381 . S
Cd23 O32 2.378 . S
O24 Cd25 2.385 . S
O24 C29 1.255 . S
Cd25 O24 2.385 . S
Cd25 O26 2.317 . S
O26 Cd25 2.317 . S
O26 C27 1.232 . S
C27 O26 1.232 . S
C27 O28 1.218 . S
O28 C27 1.218 . S
C29 O22 1.275 . S
C29 O24 1.255 . S
C30 O31 1.258 . S
C30 O32 1.256 . S
O31 Cd23 2.381 . S
O31 C30 1.258 . S
O32 Cd23 2.378 . S
O32 C30 1.256 . S
O33 Cd34 2.300 . S
O33 C40 1.275 . S
Cd34 O33 2.300 . S
Cd34 O42 2.381 . S
Cd34 O43 2.378 . S
O35 Cd36 2.385 . S
O35 C40 1.255 . S
Cd36 O35 2.385 . S
Cd36 O37 2.317 . S
O37 Cd36 2.317 . S
O37 C38 1.232 . S
C38 O37 1.232 . S
C38 O39 1.218 . S
O39 C38 1.218 . S
C40 O33 1.275 . S
C40 O35 1.255 . S
C41 O42 1.258 . S
C41 O43 1.256 . S
O42 Cd34 2.381 . S
O42 C41 1.258 . S
O43 Cd34 2.378 . S
O43 C41 1.256 . S
O44 Cd45 2.300 . S
O44 C51 1.275 . S
Cd45 O44 2.300 . S
Cd45 O53 2.381 . S
Cd45 O54 2.378 . S
O46 Cd47 2.385 . S
O46 C51 1.255 . S
Cd47 O46 2.385 . S
Cd47 O48 2.317 . S
O48 Cd47 2.317 . S
O48 C49 1.232 . S
C49 O48 1.232 . S
C49 O50 1.218 . S
O50 C49 1.218 . S
C51 O44 1.275 . S
C51 O46 1.255 . S
C52 O53 1.258 . S
C52 O54 1.256 . S
O53 Cd45 2.381 . S
O53 C52 1.258 . S
O54 Cd45 2.378 . S
O54 C52 1.256 . S
O55 Cd56 2.300 . S
O55 C62 1.275 . S
Cd56 O55 2.300 . S
Cd56 O64 2.381 . S
Cd56 O65 2.378 . S
O57 Cd58 2.385 . S
O57 C62 1.255 . S
Cd58 O57 2.385 . S
Cd58 O59 2.317 . S
O59 Cd58 2.317 . S
O59 C60 1.232 . S
C60 O59 1.232 . S
C60 O61 1.218 . S
O61 C60 1.218 . S
C62 O55 1.275 . S
C62 O57 1.255 . S
C63 O64 1.258 . S
C63 O65 1.256 . S
O64 Cd56 2.381 . S
O64 C63 1.258 . S
O65 Cd56 2.378 . S
O65 C63 1.256 . S
O66 Cd67 2.300 . S
O66 C73 1.275 . S
Cd67 O66 2.300 . S
Cd67 O75 2.381 . S
Cd67 O76 2.378 . S
O68 Cd69 2.385 . S
O68 C73 1.255 . S
Cd69 O68 2.385 . S
Cd69 O70 2.317 . S
O70 Cd69 2.317 . S
O70 C71 1.232 . S
C71 O70 1.232 . S
C71 O72 1.218 . S
O72 C71 1.218 . S
C73 O66 1.275 . S
C73 O68 1.255 . S
C74 O75 1.258 . S
C74 O76 1.256 . S
O75 Cd67 2.381 . S
O75 C74 1.258 . S
O76 Cd67 2.378 . S
O76 C74 1.256 . S
O77 Cd78 2.300 . S
O77 C84 1.275 . S
Cd78 O77 2.300 . S
Cd78 O86 2.381 . S
Cd78 O87 2.378 . S
O79 Cd80 2.385 . S
O79 C84 1.255 . S
Cd80 O79 2.385 . S
Cd80 O81 2.317 . S
O81 Cd80 2.317 . S
O81 C82 1.232 . S
C82 O81 1.232 . S
C82 O83 1.218 . S
O83 C82 1.218 . S
C84 O77 1.275 . S
C84 O79 1.255 . S
C85 O86 1.258 . S
C85 O87 1.256 . S
O86 Cd78 2.381 . S
O86 C85 1.258 . S
O87 Cd78 2.378 . S
O87 C85 1.256 . S
Co88 O91 2.042 . S
Co88 O98 2.264 . S
Co88 O117 2.286 . S
Co88 O118 2.069 . S
Co88 O120 2.015 . S
Co89 O91 2.122 . S
Co89 O97 2.073 . S
Co89 O98 2.327 . S
Co89 O99 1.976 . S
Co90 O91 2.087 . S
Co90 O93 2.087 1_455 S
Co90 O100 2.111 . S
Co90 O101 2.143 1_455 S
Co90 O105 2.111 1_455 S
Co90 O119 2.143 . S
O91 Co88 2.042 . S
O91 Co89 2.122 . S
O91 Co90 2.087 . S
O91 H92 0.980 . S
H92 O91 0.980 . S
O93 Co90 2.087 1_655 S
O93 Co94 2.042 . S
O93 Co95 2.122 . S
O93 H96 0.980 1_655 S
Co94 O93 2.042 . S
Co94 O102 2.286 . S
Co94 O103 2.069 . S
Co94 O104 2.015 . S
Co94 O107 2.264 . S
Co95 O93 2.122 . S
Co95 O106 1.976 . S
Co95 O107 2.327 . S
Co95 O108 2.073 . S
H96 O93 0.980 1_455 S
O97 Co89 2.073 . S
O97 C112 1.245 . S
O98 Co88 2.264 . S
O98 Co89 2.327 . S
O98 C112 1.257 . S
O99 Co89 1.976 . S
O99 C111 1.251 . S
O100 Co90 2.111 . S
O100 C111 1.274 . S
O101 Co90 2.143 1_655 S
O101 C114 1.246 . S
O102 Co94 2.286 . S
O102 C113 1.259 . S
O103 Co94 2.069 . S
O103 C113 1.289 . S
O104 Co94 2.015 . S
O104 C114 1.257 . S
O105 Co90 2.111 1_655 S
O105 C115 1.274 . S
O106 Co95 1.976 . S
O106 C115 1.251 . S
O107 Co94 2.264 . S
O107 Co95 2.327 . S
O107 C116 1.257 . S
O108 Co95 2.073 . S
O108 C116 1.245 . S
C109 O117 1.259 . S
C109 O118 1.289 . S
C110 O119 1.246 . S
C110 O120 1.257 . S
C111 O99 1.251 . S
C111 O100 1.274 . S
C112 O97 1.245 . S
C112 O98 1.257 . S
C113 O102 1.259 . S
C113 O103 1.289 . S
C114 O101 1.246 . S
C114 O104 1.257 . S
C115 O105 1.274 . S
C115 O106 1.251 . S
C116 O107 1.257 . S
C116 O108 1.245 . S
O117 Co88 2.286 . S
O117 C109 1.259 . S
O118 Co88 2.069 . S
O118 C109 1.289 . S
O119 Co90 2.143 . S
O119 C110 1.246 . S
O120 Co88 2.015 . S
O120 C110 1.257 . S
Co121 O124 2.042 . S
Co121 O131 2.264 . S
Co121 O150 2.286 . S
Co121 O151 2.069 . S
Co121 O153 2.015 . S
Co122 O124 2.122 . S
Co122 O130 2.073 . S
Co122 O131 2.327 . S
Co122 O132 1.976 . S
Co123 O124 2.087 1_545 S
Co123 O126 2.087 . S
Co123 O133 2.117 . S
Co123 O134 2.143 . S
Co123 O138 2.111 . S
Co123 O152 2.143 1_545 S
O124 Co121 2.042 . S
O124 Co122 2.122 . S
O124 Co123 2.087 1_565 S
O124 H125 0.980 1_565 S
H125 O124 0.980 1_545 S
O126 Co123 2.087 . S
O126 Co127 2.042 . S
O126 Co128 2.122 . S
O126 H129 0.980 . S
Co127 O126 2.042 . S
Co127 O135 2.286 . S
Co127 O136 2.069 . S
Co127 O137 2.015 . S
Co127 O140 2.264 . S
Co128 O126 2.122 . S
Co128 O139 1.976 . S
Co128 O140 2.327 . S
Co128 O141 2.073 . S
H129 O126 0.980 . S
O130 Co122 2.073 . S
O130 C145 1.245 . S
O131 Co121 2.264 . S
O131 Co122 2.327 . S
O131 C145 1.257 . S
O132 Co122 1.976 . S
O132 C144 1.251 . S
O133 Co123 2.117 . S
O133 C144 1.256 1_545 S
O134 Co123 2.143 . S
O134 C147 1.246 . S
O135 Co127 2.286 . S
O135 C146 1.259 . S
O136 Co127 2.069 . S
O136 C146 1.289 . S
O137 Co127 2.015 . S
O137 C147 1.257 . S
O138 Co123 2.111 . S
O138 C148 1.274 . S
O139 Co128 1.976 . S
O139 C148 1.251 . S
O140 Co127 2.264 . S
O140 Co128 2.327 . S
O140 C149 1.257 . S
O141 Co128 2.073 . S
O141 C149 1.245 . S
C142 O150 1.259 . S
C142 O151 1.289 . S
C143 O152 1.246 . S
C143 O153 1.257 . S
C144 O132 1.251 . S
C144 O133 1.256 1_565 S
C145 O130 1.245 . S
C145 O131 1.257 . S
C146 O135 1.259 . S
C146 O136 1.289 . S
C147 O134 1.246 . S
C147 O137 1.257 . S
C148 O138 1.274 . S
C148 O139 1.251 . S
C149 O140 1.257 . S
C149 O141 1.245 . S
O150 Co121 2.286 . S
O150 C142 1.259 . S
O151 Co121 2.069 . S
O151 C142 1.289 . S
O152 Co123 2.143 1_565 S
O152 C143 1.246 . S
O153 Co121 2.015 . S
O153 C143 1.257 . S
Co154 O157 2.042 . S
Co154 O164 2.264 . S
Co154 O183 2.286 . S
Co154 O184 2.069 . S
Co154 O186 2.015 . S
Co155 O157 2.122 . S
Co155 O163 2.073 . S
Co155 O164 2.327 . S
Co155 O165 1.976 . S
Co156 O157 2.087 . S
Co156 O159 2.087 1_554 S
Co156 O166 2.111 . S
Co156 O167 2.143 1_554 S
Co156 O171 2.111 1_554 S
Co156 O185 2.143 . S
O157 Co154 2.042 . S
O157 Co155 2.122 . S
O157 Co156 2.087 . S
O157 H158 0.980 . S
H158 O157 0.980 . S
O159 Co156 2.087 1_556 S
O159 Co160 2.042 . S
O159 Co161 2.122 . S
O159 H162 0.980 . S
Co160 O159 2.042 . S
Co160 O168 2.286 . S
Co160 O169 2.069 . S
Co160 O170 2.015 . S
Co160 O173 2.264 . S
Co161 O159 2.122 . S
Co161 O172 1.976 . S
Co161 O173 2.327 . S
Co161 O174 2.073 . S
H162 O159 0.980 . S
O163 Co155 2.073 . S
O163 C178 1.245 . S
O164 Co154 2.264 . S
O164 Co155 2.327 . S
O164 C178 1.257 . S
O165 Co155 1.976 . S
O165 C177 1.251 . S
O166 Co156 2.111 . S
O166 C177 1.274 . S
O167 Co156 2.143 1_556 S
O167 C180 1.246 . S
O168 Co160 2.286 . S
O168 C179 1.259 . S
O169 Co160 2.069 . S
O169 C179 1.289 . S
O170 Co160 2.015 . S
O170 C180 1.257 . S
O171 Co156 2.111 1_556 S
O171 C181 1.274 . S
O172 Co161 1.976 . S
O172 C181 1.251 . S
O173 Co160 2.264 . S
O173 Co161 2.327 . S
O173 C182 1.257 . S
O174 Co161 2.073 . S
O174 C182 1.245 . S
C175 O183 1.259 . S
C175 O184 1.289 . S
C176 O185 1.246 . S
C176 O186 1.257 . S
C177 O165 1.251 . S
C177 O166 1.274 . S
C178 O163 1.245 . S
C178 O164 1.257 . S
C179 O168 1.259 . S
C179 O169 1.289 . S
C180 O167 1.246 . S
C180 O170 1.257 . S
C181 O171 1.274 . S
C181 O172 1.251 . S
C182 O173 1.257 . S
C182 O174 1.245 . S
O183 Co154 2.286 . S
O183 C175 1.259 . S
O184 Co154 2.069 . S
O184 C175 1.289 . S
O185 Co156 2.143 . S
O185 C176 1.246 . S
O186 Co154 2.015 . S
O186 C176 1.257 . S
C187 C188 1.349 . S
C187 C189 1.327 . S
C187 H212 0.950 . S
C188 C187 1.349 . S
C188 C204 1.349 . S
C189 C187 1.327 . S
C189 C208 1.429 . S
C189 H213 0.950 . S
C190 C207 1.574 . S
C190 C209 1.368 . S
C190 H214 0.949 . S
H191 C195 0.949 . S
C192 C193 1.349 . S
C192 C194 1.327 . S
C192 H215 0.950 . S
C193 C192 1.349 . S
C193 C205 1.349 . S
C194 C192 1.327 . S
C194 C210 1.429 . S
C194 H216 0.950 . S
C195 H191 0.949 . S
C195 C203 1.574 . S
C195 C211 1.368 . S
H196 C204 0.950 . S
H197 C202 0.950 . S
H198 C203 0.949 . S
H199 C205 0.950 . S
H200 C206 0.950 . S
H201 C207 0.949 . S
C202 H197 0.950 . S
C202 C204 1.327 . S
C202 C208 1.429 . S
C203 C195 1.574 . S
C203 H198 0.949 . S
C203 C209 1.368 . S
C204 C188 1.349 . S
C204 H196 0.950 . S
C204 C202 1.327 . S
C205 C193 1.349 . S
C205 H199 0.950 . S
C205 C206 1.327 . S
C206 H200 0.950 . S
C206 C205 1.327 . S
C206 C210 1.429 . S
C207 C190 1.574 . S
C207 H201 0.949 . S
C207 C211 1.368 . S
C208 C189 1.429 . S
C208 C202 1.429 . S
C208 C209 1.523 . S
C209 C190 1.368 . S
C209 C203 1.368 . S
C209 C208 1.523 . S
C210 C194 1.429 . S
C210 C206 1.429 . S
C210 C211 1.523 . S
C211 C195 1.368 . S
C211 C207 1.368 . S
C211 C210 1.523 . S
H212 C187 0.950 . S
H213 C189 0.950 . S
H214 C190 0.949 . S
H215 C192 0.950 . S
H216 C194 0.950 . S
C217 C218 1.349 . S
C217 C219 1.327 . S
C217 H242 0.950 . S
C218 C217 1.349 . S
C218 C234 1.349 . S
C219 C217 1.327 . S
C219 C238 1.429 . S
C219 H243 0.950 . S
C220 C237 1.574 . S
C220 C239 1.368 . S
C220 H244 0.949 . S
H221 C225 0.949 . S
C222 C223 1.349 . S
C222 C224 1.327 . S
C222 H245 0.950 . S
C223 C222 1.349 . S
C223 C235 1.349 . S
C224 C222 1.327 . S
C224 C240 1.429 . S
C224 H246 0.950 . S
C225 H221 0.949 . S
C225 C233 1.574 . S
C225 C241 1.368 . S
H226 C234 0.950 . S
H227 C232 0.950 . S
H228 C233 0.949 . S
H229 C235 0.950 . S
H230 C236 0.950 . S
H231 C237 0.949 . S
C232 H227 0.950 . S
C232 C234 1.327 . S
C232 C238 1.429 . S
C233 C225 1.574 . S
C233 H228 0.949 . S
C233 C239 1.368 . S
C234 C218 1.349 . S
C234 H226 0.950 . S
C234 C232 1.327 . S
C235 C223 1.349 . S
C235 H229 0.950 . S
C235 C236 1.327 . S
C236 H230 0.950 . S
C236 C235 1.327 . S
C236 C240 1.429 . S
C237 C220 1.574 . S
C237 H231 0.949 . S
C237 C241 1.368 . S
C238 C219 1.429 . S
C238 C232 1.429 . S
C238 C239 1.523 . S
C239 C220 1.368 . S
C239 C233 1.368 . S
C239 C238 1.523 . S
C240 C224 1.429 . S
C240 C236 1.429 . S
C240 C241 1.523 . S
C241 C225 1.368 . S
C241 C237 1.368 . S
C241 C240 1.523 . S
H242 C217 0.950 . S
H243 C219 0.950 . S
H244 C220 0.949 . S
H245 C222 0.950 . S
H246 C224 0.950 . S
C247 C248 1.349 . S
C247 C249 1.327 . S
C247 H272 0.950 . S
C248 C247 1.349 . S
C248 C264 1.349 . S
C249 C247 1.327 . S
C249 C268 1.429 . S
C249 H273 0.950 . S
C250 C267 1.574 . S
C250 C269 1.368 . S
C250 H274 0.949 . S
H251 C255 0.949 . S
C252 C253 1.349 . S
C252 C254 1.327 . S
C252 H275 0.950 . S
C253 C252 1.349 . S
C253 C265 1.349 . S
C254 C252 1.327 . S
C254 C270 1.429 . S
C254 H276 0.950 . S
C255 H251 0.949 . S
C255 C263 1.574 . S
C255 C271 1.368 . S
H256 C264 0.950 . S
H257 C262 0.950 . S
H258 C263 0.949 . S
H259 C265 0.950 . S
H260 C266 0.950 . S
H261 C267 0.949 . S
C262 H257 0.950 . S
C262 C264 1.327 . S
C262 C268 1.429 . S
C263 C255 1.574 . S
C263 H258 0.949 . S
C263 C269 1.368 . S
C264 C248 1.349 . S
C264 H256 0.950 . S
C264 C262 1.327 . S
C265 C253 1.349 . S
C265 H259 0.950 . S
C265 C266 1.327 . S
C266 H260 0.950 . S
C266 C265 1.327 . S
C266 C270 1.429 . S
C267 C250 1.574 . S
C267 H261 0.949 . S
C267 C271 1.368 . S
C268 C249 1.429 . S
C268 C262 1.429 . S
C268 C269 1.523 . S
C269 C250 1.368 . S
C269 C263 1.368 . S
C269 C268 1.523 . S
C270 C254 1.429 . S
C270 C266 1.429 . S
C270 C271 1.523 . S
C271 C255 1.368 . S
C271 C267 1.368 . S
C271 C270 1.523 . S
H272 C247 0.950 . S
H273 C249 0.950 . S
H274 C250 0.949 . S
H275 C252 0.950 . S
H276 C254 0.950 . S
C277 C278 1.349 . S
C277 C279 1.327 . S
C277 H302 0.950 . S
C278 C277 1.349 . S
C278 C294 1.349 . S
C279 C277 1.327 . S
C279 C298 1.429 . S
C279 H303 0.950 . S
C280 C297 1.574 . S
C280 C299 1.368 . S
C280 H304 0.949 . S
H281 C285 0.949 . S
C282 C283 1.349 . S
C282 C284 1.327 . S
C282 H305 0.950 . S
C283 C282 1.349 . S
C283 C295 1.349 . S
C284 C282 1.327 . S
C284 C300 1.429 . S
C284 H306 0.950 . S
C285 H281 0.949 . S
C285 C293 1.574 . S
C285 C301 1.368 . S
H286 C294 0.950 . S
H287 C292 0.950 . S
H288 C293 0.949 . S
H289 C295 0.950 . S
H290 C296 0.950 . S
H291 C297 0.949 . S
C292 H287 0.950 . S
C292 C294 1.327 . S
C292 C298 1.429 . S
C293 C285 1.574 . S
C293 H288 0.949 . S
C293 C299 1.368 . S
C294 C278 1.349 . S
C294 H286 0.950 . S
C294 C292 1.327 . S
C295 C283 1.349 . S
C295 H289 0.950 . S
C295 C296 1.327 . S
C296 H290 0.950 . S
C296 C295 1.327 . S
C296 C300 1.429 . S
C297 C280 1.574 . S
C297 H291 0.949 . S
C297 C301 1.368 . S
C298 C279 1.429 . S
C298 C292 1.429 . S
C298 C299 1.523 . S
C299 C280 1.368 . S
C299 C293 1.368 . S
C299 C298 1.523 . S
C300 C284 1.429 . S
C300 C296 1.429 . S
C300 C301 1.523 . S
C301 C285 1.368 . S
C301 C297 1.368 . S
C301 C300 1.523 . S
H302 C277 0.950 . S
H303 C279 0.950 . S
H304 C280 0.949 . S
H305 C282 0.950 . S
H306 C284 0.950 . S
C307 C308 1.349 . S
C307 C309 1.327 . S
C307 H332 0.950 . S
C308 C307 1.349 . S
C308 C324 1.349 . S
C309 C307 1.327 . S
C309 C328 1.429 . S
C309 H333 0.950 . S
C310 C327 1.574 . S
C310 C329 1.368 . S
C310 H334 0.949 . S
H311 C315 0.949 . S
C312 C313 1.349 . S
C312 C314 1.327 . S
C312 H335 0.950 . S
C313 C312 1.349 . S
C313 C325 1.349 . S
C314 C312 1.327 . S
C314 C330 1.429 . S
C314 H336 0.950 . S
C315 H311 0.949 . S
C315 C323 1.574 . S
C315 C331 1.368 . S
H316 C324 0.950 . S
H317 C322 0.950 . S
H318 C323 0.949 . S
H319 C325 0.950 . S
H320 C326 0.950 . S
H321 C327 0.949 . S
C322 H317 0.950 . S
C322 C324 1.327 . S
C322 C328 1.429 . S
C323 C315 1.574 . S
C323 H318 0.949 . S
C323 C329 1.368 . S
C324 C308 1.349 . S
C324 H316 0.950 . S
C324 C322 1.327 . S
C325 C313 1.349 . S
C325 H319 0.950 . S
C325 C326 1.327 . S
C326 H320 0.950 . S
C326 C325 1.327 . S
C326 C330 1.429 . S
C327 C310 1.574 . S
C327 H321 0.949 . S
C327 C331 1.368 . S
C328 C309 1.429 . S
C328 C322 1.429 . S
C328 C329 1.523 . S
C329 C310 1.368 . S
C329 C323 1.368 . S
C329 C328 1.523 . S
C330 C314 1.429 . S
C330 C326 1.429 . S
C330 C331 1.523 . S
C331 C315 1.368 . S
C331 C327 1.368 . S
C331 C330 1.523 . S
H332 C307 0.950 . S
H333 C309 0.950 . S
H334 C310 0.949 . S
H335 C312 0.950 . S
H336 C314 0.950 . S
C337 C338 1.349 . S
C337 C339 1.327 . S
C337 H362 0.950 . S
C338 C337 1.349 . S
C338 C354 1.349 . S
C339 C337 1.327 . S
C339 C358 1.429 . S
C339 H363 0.950 . S
C340 C357 1.574 . S
C340 C359 1.368 . S
C340 H364 0.949 . S
H341 C345 0.949 . S
C342 C343 1.349 . S
C342 C344 1.327 . S
C342 H365 0.950 . S
C343 C342 1.349 . S
C343 C355 1.349 . S
C344 C342 1.327 . S
C344 C360 1.429 . S
C344 H366 0.950 . S
C345 H341 0.949 . S
C345 C353 1.574 . S
C345 C361 1.368 . S
H346 C354 0.950 . S
H347 C352 0.950 . S
H348 C353 0.949 . S
H349 C355 0.950 . S
H350 C356 0.950 . S
H351 C357 0.949 . S
C352 H347 0.950 . S
C352 C354 1.327 . S
C352 C358 1.429 . S
C353 C345 1.574 . S
C353 H348 0.949 . S
C353 C359 1.368 . S
C354 C338 1.349 . S
C354 H346 0.950 . S
C354 C352 1.327 . S
C355 C343 1.349 . S
C355 H349 0.950 . S
C355 C356 1.327 . S
C356 H350 0.950 . S
C356 C355 1.327 . S
C356 C360 1.429 . S
C357 C340 1.574 . S
C357 H351 0.949 . S
C357 C361 1.368 . S
C358 C339 1.429 . S
C358 C352 1.429 . S
C358 C359 1.523 . S
C359 C340 1.368 . S
C359 C353 1.368 . S
C359 C358 1.523 . S
C360 C344 1.429 . S
C360 C356 1.429 . S
C360 C361 1.523 . S
C361 C345 1.368 . S
C361 C357 1.368 . S
C361 C360 1.523 . S
H362 C337 0.950 . S
H363 C339 0.950 . S
H364 C340 0.949 . S
H365 C342 0.950 . S
H366 C344 0.950 . S
C367 C368 1.349 . S
C367 C369 1.327 . S
C367 H392 0.950 . S
C368 C367 1.349 . S
C368 C384 1.349 . S
C369 C367 1.327 . S
C369 C388 1.429 . S
C369 H393 0.950 . S
C370 C387 1.574 . S
C370 C389 1.368 . S
C370 H394 0.949 . S
H371 C375 0.949 . S
C372 C373 1.349 . S
C372 C374 1.327 . S
C372 H395 0.950 . S
C373 C372 1.349 . S
C373 C385 1.349 . S
C374 C372 1.327 . S
C374 C390 1.429 . S
C374 H396 0.950 . S
C375 H371 0.949 . S
C375 C383 1.574 . S
C375 C391 1.368 . S
H376 C384 0.950 . S
H377 C382 0.950 . S
H378 C383 0.949 . S
H379 C385 0.950 . S
H380 C386 0.950 . S
H381 C387 0.949 . S
C382 H377 0.950 . S
C382 C384 1.327 . S
C382 C388 1.429 . S
C383 C375 1.574 . S
C383 H378 0.949 . S
C383 C389 1.368 . S
C384 C368 1.349 . S
C384 H376 0.950 . S
C384 C382 1.327 . S
C385 C373 1.349 . S
C385 H379 0.950 . S
C385 C386 1.327 . S
C386 H380 0.950 . S
C386 C385 1.327 . S
C386 C390 1.429 . S
C387 C370 1.574 . S
C387 H381 0.949 . S
C387 C391 1.368 . S
C388 C369 1.429 . S
C388 C382 1.429 . S
C388 C389 1.523 . S
C389 C370 1.368 . S
C389 C383 1.368 . S
C389 C388 1.523 . S
C390 C374 1.429 . S
C390 C386 1.429 . S
C390 C391 1.523 . S
C391 C375 1.368 . S
C391 C387 1.368 . S
C391 C390 1.523 . S
H392 C367 0.950 . S
H393 C369 0.950 . S
H394 C370 0.949 . S
H395 C372 0.950 . S
H396 C374 0.950 . S
C397 C398 1.349 . S
C397 C399 1.327 . S
C397 H422 0.950 . S
C398 C397 1.349 . S
C398 C414 1.349 . S
C399 C397 1.327 . S
C399 C418 1.429 . S
C399 H423 0.950 . S
C400 C417 1.574 . S
C400 C419 1.368 . S
C400 H424 0.949 . S
H401 C405 0.949 . S
C402 C403 1.349 . S
C402 C404 1.327 . S
C402 H425 0.950 . S
C403 C402 1.349 . S
C403 C415 1.349 . S
C404 C402 1.327 . S
C404 C420 1.429 . S
C404 H426 0.950 . S
C405 H401 0.949 . S
C405 C413 1.574 . S
C405 C421 1.368 . S
H406 C414 0.950 . S
H407 C412 0.950 . S
H408 C413 0.949 . S
H409 C415 0.950 . S
H410 C416 0.950 . S
H411 C417 0.949 . S
C412 H407 0.950 . S
C412 C414 1.327 . S
C412 C418 1.429 . S
C413 C405 1.574 . S
C413 H408 0.949 . S
C413 C419 1.368 . S
C414 C398 1.349 . S
C414 H406 0.950 . S
C414 C412 1.327 . S
C415 C403 1.349 . S
C415 H409 0.950 . S
C415 C416 1.327 . S
C416 H410 0.950 . S
C416 C415 1.327 . S
C416 C420 1.429 . S
C417 C400 1.574 . S
C417 H411 0.949 . S
C417 C421 1.368 . S
C418 C399 1.429 . S
C418 C412 1.429 . S
C418 C419 1.523 . S
C419 C400 1.368 . S
C419 C413 1.368 . S
C419 C418 1.523 . S
C420 C404 1.429 . S
C420 C416 1.429 . S
C420 C421 1.523 . S
C421 C405 1.368 . S
C421 C417 1.368 . S
C421 C420 1.523 . S
H422 C397 0.950 . S
H423 C399 0.950 . S
H424 C400 0.949 . S
H425 C402 0.950 . S
H426 C404 0.950 . S
C427 C428 1.349 . S
C427 C429 1.327 . S
C427 H452 0.950 . S
C428 C427 1.349 . S
C428 C444 1.349 . S
C429 C427 1.327 . S
C429 C448 1.429 . S
C429 H453 0.950 . S
C430 C447 1.574 . S
C430 C449 1.368 . S
C430 H454 0.949 . S
H431 C435 0.949 . S
C432 C433 1.349 . S
C432 C434 1.327 . S
C432 H455 0.950 . S
C433 C432 1.349 . S
C433 C445 1.349 . S
C434 C432 1.327 . S
C434 C450 1.429 . S
C434 H456 0.950 . S
C435 H431 0.949 . S
C435 C443 1.574 . S
C435 C451 1.368 . S
H436 C444 0.950 . S
H437 C442 0.950 . S
H438 C443 0.949 . S
H439 C445 0.950 . S
H440 C446 0.950 . S
H441 C447 0.949 . S
C442 H437 0.950 . S
C442 C444 1.327 . S
C442 C448 1.429 . S
C443 C435 1.574 . S
C443 H438 0.949 . S
C443 C449 1.368 . S
C444 C428 1.349 . S
C444 H436 0.950 . S
C444 C442 1.327 . S
C445 C433 1.349 . S
C445 H439 0.950 . S
C445 C446 1.327 . S
C446 H440 0.950 . S
C446 C445 1.327 . S
C446 C450 1.429 . S
C447 C430 1.574 . S
C447 H441 0.949 . S
C447 C451 1.368 . S
C448 C429 1.429 . S
C448 C442 1.429 . S
C448 C449 1.523 . S
C449 C430 1.368 . S
C449 C443 1.368 . S
C449 C448 1.523 . S
C450 C434 1.429 . S
C450 C446 1.429 . S
C450 C451 1.523 . S
C451 C435 1.368 . S
C451 C447 1.368 . S
C451 C450 1.523 . S
H452 C427 0.950 . S
H453 C429 0.950 . S
H454 C430 0.949 . S
H455 C432 0.950 . S
H456 C434 0.950 . S
C457 C458 1.349 . S
C457 C459 1.327 . S
C457 H482 0.950 . S
C458 C457 1.349 . S
C458 C474 1.349 . S
C459 C457 1.327 . S
C459 C478 1.429 . S
C459 H483 0.950 . S
C460 C477 1.574 . S
C460 C479 1.368 . S
C460 H484 0.949 . S
H461 C465 0.949 . S
C462 C463 1.349 . S
C462 C464 1.327 . S
C462 H485 0.950 . S
C463 C462 1.349 . S
C463 C475 1.349 . S
C464 C462 1.327 . S
C464 C480 1.429 . S
C464 H486 0.950 . S
C465 H461 0.949 . S
C465 C473 1.574 . S
C465 C481 1.368 . S
H466 C474 0.950 . S
H467 C472 0.950 . S
H468 C473 0.949 . S
H469 C475 0.950 . S
H470 C476 0.950 . S
H471 C477 0.949 . S
C472 H467 0.950 . S
C472 C474 1.327 . S
C472 C478 1.429 . S
C473 C465 1.574 . S
C473 H468 0.949 . S
C473 C479 1.368 . S
C474 C458 1.349 . S
C474 H466 0.950 . S
C474 C472 1.327 . S
C475 C463 1.349 . S
C475 H469 0.950 . S
C475 C476 1.327 . S
C476 H470 0.950 . S
C476 C475 1.327 . S
C476 C480 1.429 . S
C477 C460 1.574 . S
C477 H471 0.949 . S
C477 C481 1.368 . S
C478 C459 1.429 . S
C478 C472 1.429 . S
C478 C479 1.523 . S
C479 C460 1.368 . S
C479 C473 1.368 . S
C479 C478 1.523 . S
C480 C464 1.429 . S
C480 C476 1.429 . S
C480 C481 1.523 . S
C481 C465 1.368 . S
C481 C477 1.368 . S
C481 C480 1.523 . S
H482 C457 0.950 . S
H483 C459 0.950 . S
H484 C460 0.949 . S
H485 C462 0.950 . S
H486 C464 0.950 . S
C487 C488 1.349 . S
C487 C489 1.327 . S
C487 H512 0.950 . S
C488 C487 1.349 . S
C488 C504 1.349 . S
C489 C487 1.327 . S
C489 C508 1.429 . S
C489 H513 0.950 . S
C490 C507 1.574 . S
C490 C509 1.368 . S
C490 H514 0.949 . S
H491 C495 0.949 . S
C492 C493 1.349 . S
C492 C494 1.327 . S
C492 H515 0.950 . S
C493 C492 1.349 . S
C493 C505 1.349 . S
C494 C492 1.327 . S
C494 C510 1.429 . S
C494 H516 0.950 . S
C495 H491 0.949 . S
C495 C503 1.574 . S
C495 C511 1.368 . S
H496 C504 0.950 . S
H497 C502 0.950 . S
H498 C503 0.949 . S
H499 C505 0.950 . S
H500 C506 0.950 . S
H501 C507 0.949 . S
C502 H497 0.950 . S
C502 C504 1.327 . S
C502 C508 1.429 . S
C503 C495 1.574 . S
C503 H498 0.949 . S
C503 C509 1.368 . S
C504 C488 1.349 . S
C504 H496 0.950 . S
C504 C502 1.327 . S
C505 C493 1.349 . S
C505 H499 0.950 . S
C505 C506 1.327 . S
C506 H500 0.950 . S
C506 C505 1.327 . S
C506 C510 1.429 . S
C507 C490 1.574 . S
C507 H501 0.949 . S
C507 C511 1.368 . S
C508 C489 1.429 . S
C508 C502 1.429 . S
C508 C509 1.523 . S
C509 C490 1.368 . S
C509 C503 1.368 . S
C509 C508 1.523 . S
C510 C494 1.429 . S
C510 C506 1.429 . S
C510 C511 1.523 . S
C511 C495 1.368 . S
C511 C507 1.368 . S
C511 C510 1.523 . S
H512 C487 0.950 . S
H513 C489 0.950 . S
H514 C490 0.949 . S
H515 C492 0.950 . S
H516 C494 0.950 . S
C517 C518 1.349 . S
C517 C519 1.327 . S
C517 H542 0.950 . S
C518 C517 1.349 . S
C518 C534 1.349 . S
C519 C517 1.327 . S
C519 C538 1.429 . S
C519 H543 0.950 . S
C520 C537 1.574 . S
C520 C539 1.368 . S
C520 H544 0.949 . S
H521 C525 0.949 . S
C522 C523 1.349 . S
C522 C524 1.327 . S
C522 H545 0.950 . S
C523 C522 1.349 . S
C523 C535 1.349 . S
C524 C522 1.327 . S
C524 C540 1.429 . S
C524 H546 0.950 . S
C525 H521 0.949 . S
C525 C533 1.574 . S
C525 C541 1.368 . S
H526 C534 0.950 . S
H527 C532 0.950 . S
H528 C533 0.949 . S
H529 C535 0.950 . S
H530 C536 0.950 . S
H531 C537 0.949 . S
C532 H527 0.950 . S
C532 C534 1.327 . S
C532 C538 1.429 . S
C533 C525 1.574 . S
C533 H528 0.949 . S
C533 C539 1.368 . S
C534 C518 1.349 . S
C534 H526 0.950 . S
C534 C532 1.327 . S
C535 C523 1.349 . S
C535 H529 0.950 . S
C535 C536 1.327 . S
C536 H530 0.950 . S
C536 C535 1.327 . S
C536 C540 1.429 . S
C537 C520 1.574 . S
C537 H531 0.949 . S
C537 C541 1.368 . S
C538 C519 1.429 . S
C538 C532 1.429 . S
C538 C539 1.523 . S
C539 C520 1.368 . S
C539 C533 1.368 . S
C539 C538 1.523 . S
C540 C524 1.429 . S
C540 C536 1.429 . S
C540 C541 1.523 . S
C541 C525 1.368 . S
C541 C537 1.368 . S
C541 C540 1.523 . S
H542 C517 0.950 . S
H543 C519 0.950 . S
H544 C520 0.949 . S
H545 C522 0.950 . S
H546 C524 0.950 . S
C547 C548 1.349 . S
C547 C549 1.327 . S
C547 H572 0.950 . S
C548 C547 1.349 . S
C548 C564 1.349 . S
C549 C547 1.327 . S
C549 C568 1.429 . S
C549 H573 0.950 . S
C550 C567 1.574 . S
C550 C569 1.368 . S
C550 H574 0.949 . S
H551 C555 0.949 . S
C552 C553 1.349 . S
C552 C554 1.327 . S
C552 H575 0.950 . S
C553 C552 1.349 . S
C553 C565 1.349 . S
C554 C552 1.327 . S
C554 C570 1.429 . S
C554 H576 0.950 . S
C555 H551 0.949 . S
C555 C563 1.574 . S
C555 C571 1.368 . S
H556 C564 0.950 . S
H557 C562 0.950 . S
H558 C563 0.949 . S
H559 C565 0.950 . S
H560 C566 0.950 . S
H561 C567 0.949 . S
C562 H557 0.950 . S
C562 C564 1.327 . S
C562 C568 1.429 . S
C563 C555 1.574 . S
C563 H558 0.949 . S
C563 C569 1.368 . S
C564 C548 1.349 . S
C564 H556 0.950 . S
C564 C562 1.327 . S
C565 C553 1.349 . S
C565 H559 0.950 . S
C565 C566 1.327 . S
C566 H560 0.950 . S
C566 C565 1.327 . S
C566 C570 1.429 . S
C567 C550 1.574 . S
C567 H561 0.949 . S
C567 C571 1.368 . S
C568 C549 1.429 . S
C568 C562 1.429 . S
C568 C569 1.523 . S
C569 C550 1.368 . S
C569 C563 1.368 . S
C569 C568 1.523 . S
C570 C554 1.429 . S
C570 C566 1.429 . S
C570 C571 1.523 . S
C571 C555 1.368 . S
C571 C567 1.368 . S
C571 C570 1.523 . S
H572 C547 0.950 . S
H573 C549 0.950 . S
H574 C550 0.949 . S
H575 C552 0.950 . S
H576 C554 0.950 . S
C577 C578 1.349 . S
C577 C579 1.327 . S
C577 H602 0.950 . S
C578 C577 1.349 . S
C578 C594 1.349 . S
C579 C577 1.327 . S
C579 C598 1.429 . S
C579 H603 0.950 . S
C580 C597 1.574 . S
C580 C599 1.368 . S
C580 H604 0.949 . S
H581 C585 0.949 . S
C582 C583 1.349 . S
C582 C584 1.327 . S
C582 H605 0.950 . S
C583 C582 1.349 . S
C583 C595 1.349 . S
C584 C582 1.327 . S
C584 C600 1.429 . S
C584 H606 0.950 . S
C585 H581 0.949 . S
C585 C593 1.574 . S
C585 C601 1.368 . S
H586 C594 0.950 . S
H587 C592 0.950 . S
H588 C593 0.949 . S
H589 C595 0.950 . S
H590 C596 0.950 . S
H591 C597 0.949 . S
C592 H587 0.950 . S
C592 C594 1.327 . S
C592 C598 1.429 . S
C593 C585 1.574 . S
C593 H588 0.949 . S
C593 C599 1.368 . S
C594 C578 1.349 . S
C594 H586 0.950 . S
C594 C592 1.327 . S
C595 C583 1.349 . S
C595 H589 0.950 . S
C595 C596 1.327 . S
C596 H590 0.950 . S
C596 C595 1.327 . S
C596 C600 1.429 . S
C597 C580 1.574 . S
C597 H591 0.949 . S
C597 C601 1.368 . S
C598 C579 1.429 . S
C598 C592 1.429 . S
C598 C599 1.523 . S
C599 C580 1.368 . S
C599 C593 1.368 . S
C599 C598 1.523 . S
C600 C584 1.429 . S
C600 C596 1.429 . S
C600 C601 1.523 . S
C601 C585 1.368 . S
C601 C597 1.368 . S
C601 C600 1.523 . S
H602 C577 0.950 . S
H603 C579 0.950 . S
H604 C580 0.949 . S
H605 C582 0.950 . S
H606 C584 0.950 . S
C607 C608 1.349 . S
C607 C609 1.327 . S
C607 H632 0.950 . S
C608 C607 1.349 . S
C608 C624 1.349 . S
C609 C607 1.327 . S
C609 C628 1.429 . S
C609 H633 0.950 . S
C610 C627 1.574 . S
C610 C629 1.368 . S
C610 H634 0.949 . S
H611 C615 0.949 . S
C612 C613 1.349 . S
C612 C614 1.327 . S
C612 H635 0.950 . S
C613 C612 1.349 . S
C613 C625 1.349 . S
C614 C612 1.327 . S
C614 C630 1.429 . S
C614 H636 0.950 . S
C615 H611 0.949 . S
C615 C623 1.574 . S
C615 C631 1.368 . S
H616 C624 0.950 . S
H617 C622 0.950 . S
H618 C623 0.949 . S
H619 C625 0.950 . S
H620 C626 0.950 . S
H621 C627 0.949 . S
C622 H617 0.950 . S
C622 C624 1.327 . S
C622 C628 1.429 . S
C623 C615 1.574 . S
C623 H618 0.949 . S
C623 C629 1.368 . S
C624 C608 1.349 . S
C624 H616 0.950 . S
C624 C622 1.327 . S
C625 C613 1.349 . S
C625 H619 0.950 . S
C625 C626 1.327 . S
C626 H620 0.950 . S
C626 C625 1.327 . S
C626 C630 1.429 . S
C627 C610 1.574 . S
C627 H621 0.949 . S
C627 C631 1.368 . S
C628 C609 1.429 . S
C628 C622 1.429 . S
C628 C629 1.523 . S
C629 C610 1.368 . S
C629 C623 1.368 . S
C629 C628 1.523 . S
C630 C614 1.429 . S
C630 C626 1.429 . S
C630 C631 1.523 . S
C631 C615 1.368 . S
C631 C627 1.368 . S
C631 C630 1.523 . S
H632 C607 0.950 . S
H633 C609 0.950 . S
H634 C610 0.949 . S
H635 C612 0.950 . S
H636 C614 0.950 . S
C637 C638 1.349 . S
C637 C639 1.327 . S
C637 H662 0.950 . S
C638 C637 1.349 . S
C638 C654 1.349 . S
C639 C637 1.327 . S
C639 C658 1.429 . S
C639 H663 0.950 . S
C640 C657 1.574 . S
C640 C659 1.368 . S
C640 H664 0.949 . S
H641 C645 0.949 . S
C642 C643 1.349 . S
C642 C644 1.327 . S
C642 H665 0.950 . S
C643 C642 1.349 . S
C643 C655 1.349 . S
C644 C642 1.327 . S
C644 C660 1.429 . S
C644 H666 0.950 . S
C645 H641 0.949 . S
C645 C653 1.574 . S
C645 C661 1.368 . S
H646 C654 0.950 . S
H647 C652 0.950 . S
H648 C653 0.949 . S
H649 C655 0.950 . S
H650 C656 0.950 . S
H651 C657 0.949 . S
C652 H647 0.950 . S
C652 C654 1.327 . S
C652 C658 1.429 . S
C653 C645 1.574 . S
C653 H648 0.949 . S
C653 C659 1.368 . S
C654 C638 1.349 . S
C654 H646 0.950 . S
C654 C652 1.327 . S
C655 C643 1.349 . S
C655 H649 0.950 . S
C655 C656 1.327 . S
C656 H650 0.950 . S
C656 C655 1.327 . S
C656 C660 1.429 . S
C657 C640 1.574 . S
C657 H651 0.949 . S
C657 C661 1.368 . S
C658 C639 1.429 . S
C658 C652 1.429 . S
C658 C659 1.523 . S
C659 C640 1.368 . S
C659 C653 1.368 . S
C659 C658 1.523 . S
C660 C644 1.429 . S
C660 C656 1.429 . S
C660 C661 1.523 . S
C661 C645 1.368 . S
C661 C657 1.368 . S
C661 C660 1.523 . S
H662 C637 0.950 . S
H663 C639 0.950 . S
H664 C640 0.949 . S
H665 C642 0.950 . S
H666 C644 0.950 . S
C667 C668 1.349 . S
C667 C669 1.327 . S
C667 H692 0.950 . S
C668 C667 1.349 . S
C668 C684 1.349 . S
C669 C667 1.327 . S
C669 C688 1.429 . S
C669 H693 0.950 . S
C670 C687 1.574 . S
C670 C689 1.368 . S
C670 H694 0.949 . S
H671 C675 0.949 . S
C672 C673 1.349 . S
C672 C674 1.327 . S
C672 H695 0.950 . S
C673 C672 1.349 . S
C673 C685 1.349 . S
C674 C672 1.327 . S
C674 C690 1.429 . S
C674 H696 0.950 . S
C675 H671 0.949 . S
C675 C683 1.574 . S
C675 C691 1.368 . S
H676 C684 0.950 . S
H677 C682 0.950 . S
H678 C683 0.949 . S
H679 C685 0.950 . S
H680 C686 0.950 . S
H681 C687 0.949 . S
C682 H677 0.950 . S
C682 C684 1.327 . S
C682 C688 1.429 . S
C683 C675 1.574 . S
C683 H678 0.949 . S
C683 C689 1.368 . S
C684 C668 1.349 . S
C684 H676 0.950 . S
C684 C682 1.327 . S
C685 C673 1.349 . S
C685 H679 0.950 . S
C685 C686 1.327 . S
C686 H680 0.950 . S
C686 C685 1.327 . S
C686 C690 1.429 . S
C687 C670 1.574 . S
C687 H681 0.949 . S
C687 C691 1.368 . S
C688 C669 1.429 . S
C688 C682 1.429 . S
C688 C689 1.523 . S
C689 C670 1.368 . S
C689 C683 1.368 . S
C689 C688 1.523 . S
C690 C674 1.429 . S
C690 C686 1.429 . S
C690 C691 1.523 . S
C691 C675 1.368 . S
C691 C687 1.368 . S
C691 C690 1.523 . S
H692 C667 0.950 . S
H693 C669 0.950 . S
H694 C670 0.949 . S
H695 C672 0.950 . S
H696 C674 0.950 . S
C697 C698 1.349 . S
C697 C699 1.327 . S
C697 H722 0.950 . S
C698 C697 1.349 . S
C698 C714 1.349 . S
C699 C697 1.327 . S
C699 C718 1.429 . S
C699 H723 0.950 . S
C700 C717 1.574 . S
C700 C719 1.368 . S
C700 H724 0.949 . S
H701 C705 0.949 . S
C702 C703 1.349 . S
C702 C704 1.327 . S
C702 H725 0.950 . S
C703 C702 1.349 . S
C703 C715 1.349 . S
C704 C702 1.327 . S
C704 C720 1.429 . S
C704 H726 0.950 . S
C705 H701 0.949 . S
C705 C713 1.574 . S
C705 C721 1.368 . S
H706 C714 0.950 . S
H707 C712 0.950 . S
H708 C713 0.949 . S
H709 C715 0.950 . S
H710 C716 0.950 . S
H711 C717 0.949 . S
C712 H707 0.950 . S
C712 C714 1.327 . S
C712 C718 1.429 . S
C713 C705 1.574 . S
C713 H708 0.949 . S
C713 C719 1.368 . S
C714 C698 1.349 . S
C714 H706 0.950 . S
C714 C712 1.327 . S
C715 C703 1.349 . S
C715 H709 0.950 . S
C715 C716 1.327 . S
C716 H710 0.950 . S
C716 C715 1.327 . S
C716 C720 1.429 . S
C717 C700 1.574 . S
C717 H711 0.949 . S
C717 C721 1.368 . S
C718 C699 1.429 . S
C718 C712 1.429 . S
C718 C719 1.523 . S
C719 C700 1.368 . S
C719 C713 1.368 . S
C719 C718 1.523 . S
C720 C704 1.429 . S
C720 C716 1.429 . S
C720 C721 1.523 . S
C721 C705 1.368 . S
C721 C717 1.368 . S
C721 C720 1.523 . S
H722 C697 0.950 . S
H723 C699 0.950 . S
H724 C700 0.949 . S
H725 C702 0.950 . S
H726 C704 0.950 . S
C727 C728 1.349 . S
C727 C729 1.327 . S
C727 H752 0.950 . S
C728 C727 1.349 . S
C728 C744 1.349 . S
C729 C727 1.327 . S
C729 C748 1.429 . S
C729 H753 0.950 . S
C730 C747 1.574 . S
C730 C749 1.368 . S
C730 H754 0.949 . S
H731 C735 0.949 . S
C732 C733 1.349 . S
C732 C734 1.327 . S
C732 H755 0.950 . S
C733 C732 1.349 . S
C733 C745 1.349 . S
C734 C732 1.327 . S
C734 C750 1.429 . S
C734 H756 0.950 . S
C735 H731 0.949 . S
C735 C743 1.574 . S
C735 C751 1.368 . S
H736 C744 0.950 . S
H737 C742 0.950 . S
H738 C743 0.949 . S
H739 C745 0.950 . S
H740 C746 0.950 . S
H741 C747 0.949 . S
C742 H737 0.950 . S
C742 C744 1.327 . S
C742 C748 1.429 . S
C743 C735 1.574 . S
C743 H738 0.949 . S
C743 C749 1.368 . S
C744 C728 1.349 . S
C744 H736 0.950 . S
C744 C742 1.327 . S
C745 C733 1.349 . S
C745 H739 0.950 . S
C745 C746 1.327 . S
C746 H740 0.950 . S
C746 C745 1.327 . S
C746 C750 1.429 . S
C747 C730 1.574 . S
C747 H741 0.949 . S
C747 C751 1.368 . S
C748 C729 1.429 . S
C748 C742 1.429 . S
C748 C749 1.523 . S
C749 C730 1.368 . S
C749 C743 1.368 . S
C749 C748 1.523 . S
C750 C734 1.429 . S
C750 C746 1.429 . S
C750 C751 1.523 . S
C751 C735 1.368 . S
C751 C747 1.368 . S
C751 C750 1.523 . S
H752 C727 0.950 . S
H753 C729 0.950 . S
H754 C730 0.949 . S
H755 C732 0.950 . S
H756 C734 0.950 . S
C757 C758 1.349 . S
C757 C759 1.327 . S
C757 H782 0.950 . S
C758 C757 1.349 . S
C758 C774 1.349 . S
C759 C757 1.327 . S
C759 C778 1.429 . S
C759 H783 0.950 . S
C760 C777 1.574 . S
C760 C779 1.368 . S
C760 H784 0.949 . S
H761 C765 0.949 . S
C762 C763 1.349 . S
C762 C764 1.327 . S
C762 H785 0.950 . S
C763 C762 1.349 . S
C763 C775 1.349 . S
C764 C762 1.327 . S
C764 C780 1.429 . S
C764 H786 0.950 . S
C765 H761 0.949 . S
C765 C773 1.574 . S
C765 C781 1.368 . S
H766 C774 0.950 . S
H767 C772 0.950 . S
H768 C773 0.949 . S
H769 C775 0.950 . S
H770 C776 0.950 . S
H771 C777 0.949 . S
C772 H767 0.950 . S
C772 C774 1.327 . S
C772 C778 1.429 . S
C773 C765 1.574 . S
C773 H768 0.949 . S
C773 C779 1.368 . S
C774 C758 1.349 . S
C774 H766 0.950 . S
C774 C772 1.327 . S
C775 C763 1.349 . S
C775 H769 0.950 . S
C775 C776 1.327 . S
C776 H770 0.950 . S
C776 C775 1.327 . S
C776 C780 1.429 . S
C777 C760 1.574 . S
C777 H771 0.949 . S
C777 C781 1.368 . S
C778 C759 1.429 . S
C778 C772 1.429 . S
C778 C779 1.523 . S
C779 C760 1.368 . S
C779 C773 1.368 . S
C779 C778 1.523 . S
C780 C764 1.429 . S
C780 C776 1.429 . S
C780 C781 1.523 . S
C781 C765 1.368 . S
C781 C777 1.368 . S
C781 C780 1.523 . S
H782 C757 0.950 . S
H783 C759 0.950 . S
H784 C760 0.949 . S
H785 C762 0.950 . S
H786 C764 0.950 . S
C787 C788 1.349 . S
C787 C789 1.327 . S
C787 H812 0.950 . S
C788 C787 1.349 . S
C788 C804 1.349 . S
C789 C787 1.327 . S
C789 C808 1.429 . S
C789 H813 0.950 . S
C790 C807 1.574 . S
C790 C809 1.368 . S
C790 H814 0.949 . S
H791 C795 0.949 . S
C792 C793 1.349 . S
C792 C794 1.327 . S
C792 H815 0.950 . S
C793 C792 1.349 . S
C793 C805 1.349 . S
C794 C792 1.327 . S
C794 C810 1.429 . S
C794 H816 0.950 . S
C795 H791 0.949 . S
C795 C803 1.574 . S
C795 C811 1.368 . S
H796 C804 0.950 . S
H797 C802 0.950 . S
H798 C803 0.949 . S
H799 C805 0.950 . S
H800 C806 0.950 . S
H801 C807 0.949 . S
C802 H797 0.950 . S
C802 C804 1.327 . S
C802 C808 1.429 . S
C803 C795 1.574 . S
C803 H798 0.949 . S
C803 C809 1.368 . S
C804 C788 1.349 . S
C804 H796 0.950 . S
C804 C802 1.327 . S
C805 C793 1.349 . S
C805 H799 0.950 . S
C805 C806 1.327 . S
C806 H800 0.950 . S
C806 C805 1.327 . S
C806 C810 1.429 . S
C807 C790 1.574 . S
C807 H801 0.949 . S
C807 C811 1.368 . S
C808 C789 1.429 . S
C808 C802 1.429 . S
C808 C809 1.523 . S
C809 C790 1.368 . S
C809 C803 1.368 . S
C809 C808 1.523 . S
C810 C794 1.429 . S
C810 C806 1.429 . S
C810 C811 1.523 . S
C811 C795 1.368 . S
C811 C807 1.368 . S
C811 C810 1.523 . S
H812 C787 0.950 . S
H813 C789 0.950 . S
H814 C790 0.949 . S
H815 C792 0.950 . S
H816 C794 0.950 . S
C817 C818 1.349 . S
C817 C819 1.327 . S
C817 H842 0.950 . S
C818 C817 1.349 . S
C818 C834 1.349 . S
C819 C817 1.327 . S
C819 C838 1.429 . S
C819 H843 0.950 . S
C820 C837 1.574 . S
C820 C839 1.368 . S
C820 H844 0.949 . S
H821 C825 0.949 . S
C822 C823 1.349 . S
C822 C824 1.327 . S
C822 H845 0.950 . S
C823 C822 1.349 . S
C823 C835 1.349 . S
C824 C822 1.327 . S
C824 C840 1.429 . S
C824 H846 0.950 . S
C825 H821 0.949 . S
C825 C833 1.574 . S
C825 C841 1.368 . S
H826 C834 0.950 . S
H827 C832 0.950 . S
H828 C833 0.949 . S
H829 C835 0.950 . S
H830 C836 0.950 . S
H831 C837 0.949 . S
C832 H827 0.950 . S
C832 C834 1.327 . S
C832 C838 1.429 . S
C833 C825 1.574 . S
C833 H828 0.949 . S
C833 C839 1.368 . S
C834 C818 1.349 . S
C834 H826 0.950 . S
C834 C832 1.327 . S
C835 C823 1.349 . S
C835 H829 0.950 . S
C835 C836 1.327 . S
C836 H830 0.950 . S
C836 C835 1.327 . S
C836 C840 1.429 . S
C837 C820 1.574 . S
C837 H831 0.949 . S
C837 C841 1.368 . S
C838 C819 1.429 . S
C838 C832 1.429 . S
C838 C839 1.523 . S
C839 C820 1.368 . S
C839 C833 1.368 . S
C839 C838 1.523 . S
C840 C824 1.429 . S
C840 C836 1.429 . S
C840 C841 1.523 . S
C841 C825 1.368 . S
C841 C837 1.368 . S
C841 C840 1.523 . S
H842 C817 0.950 . S
H843 C819 0.950 . S
H844 C820 0.949 . S
H845 C822 0.950 . S
H846 C824 0.950 . S
C847 C848 1.349 . S
C847 C849 1.327 . S
C847 H872 0.950 . S
C848 C847 1.349 . S
C848 C864 1.349 . S
C849 C847 1.327 . S
C849 C868 1.429 . S
C849 H873 0.950 . S
C850 C867 1.574 . S
C850 C869 1.368 . S
C850 H874 0.949 . S
H851 C855 0.949 . S
C852 C853 1.349 . S
C852 C854 1.327 . S
C852 H875 0.950 . S
C853 C852 1.349 . S
C853 C865 1.349 . S
C854 C852 1.327 . S
C854 C870 1.429 . S
C854 H876 0.950 . S
C855 H851 0.949 . S
C855 C863 1.574 . S
C855 C871 1.368 . S
H856 C864 0.950 . S
H857 C862 0.950 . S
H858 C863 0.949 . S
H859 C865 0.950 . S
H860 C866 0.950 . S
H861 C867 0.949 . S
C862 H857 0.950 . S
C862 C864 1.327 . S
C862 C868 1.429 . S
C863 C855 1.574 . S
C863 H858 0.949 . S
C863 C869 1.368 . S
C864 C848 1.349 . S
C864 H856 0.950 . S
C864 C862 1.327 . S
C865 C853 1.349 . S
C865 H859 0.950 . S
C865 C866 1.327 . S
C866 H860 0.950 . S
C866 C865 1.327 . S
C866 C870 1.429 . S
C867 C850 1.574 . S
C867 H861 0.949 . S
C867 C871 1.368 . S
C868 C849 1.429 . S
C868 C862 1.429 . S
C868 C869 1.523 . S
C869 C850 1.368 . S
C869 C863 1.368 . S
C869 C868 1.523 . S
C870 C854 1.429 . S
C870 C866 1.429 . S
C870 C871 1.523 . S
C871 C855 1.368 . S
C871 C867 1.368 . S
C871 C870 1.523 . S
H872 C847 0.950 . S
H873 C849 0.950 . S
H874 C850 0.949 . S
H875 C852 0.950 . S
H876 C854 0.950 . S
C877 C878 1.349 . S
C877 C879 1.327 . S
C877 H902 0.950 . S
C878 C877 1.349 . S
C878 C894 1.349 . S
C879 C877 1.327 . S
C879 C898 1.429 . S
C879 H903 0.950 . S
C880 C897 1.574 . S
C880 C899 1.368 . S
C880 H904 0.949 . S
H881 C885 0.949 . S
C882 C883 1.349 . S
C882 C884 1.327 . S
C882 H905 0.950 . S
C883 C882 1.349 . S
C883 C895 1.349 . S
C884 C882 1.327 . S
C884 C900 1.429 . S
C884 H906 0.950 . S
C885 H881 0.949 . S
C885 C893 1.574 . S
C885 C901 1.368 . S
H886 C894 0.950 . S
H887 C892 0.950 . S
H888 C893 0.949 . S
H889 C895 0.950 . S
H890 C896 0.950 . S
H891 C897 0.949 . S
C892 H887 0.950 . S
C892 C894 1.327 . S
C892 C898 1.429 . S
C893 C885 1.574 . S
C893 H888 0.949 . S
C893 C899 1.368 . S
C894 C878 1.349 . S
C894 H886 0.950 . S
C894 C892 1.327 . S
C895 C883 1.349 . S
C895 H889 0.950 . S
C895 C896 1.327 . S
C896 H890 0.950 . S
C896 C895 1.327 . S
C896 C900 1.429 . S
C897 C880 1.574 . S
C897 H891 0.949 . S
C897 C901 1.368 . S
C898 C879 1.429 . S
C898 C892 1.429 . S
C898 C899 1.523 . S
C899 C880 1.368 . S
C899 C893 1.368 . S
C899 C898 1.523 . S
C900 C884 1.429 . S
C900 C896 1.429 . S
C900 C901 1.523 . S
C901 C885 1.368 . S
C901 C897 1.368 . S
C901 C900 1.523 . S
H902 C877 0.950 . S
H903 C879 0.950 . S
H904 C880 0.949 . S
H905 C882 0.950 . S
H906 C884 0.950 . S
C193 C112 1.496 . S
C188 C5 1.329 . S
C223 C148 1.855 . S
C218 C16 1.843 . S
C253 C113 1.117 . S
C248 C30 1.140 . S
C283 C143 1.100 . S
C278 C40 1.073 . S
C313 C110 1.061 . S
C308 C49 1.045 . S
C338 C63 1.462 . S
C343 C146 1.453 . S
C368 C74 0.373 . S
C373 C115 0.579 . S
C403 C145 1.577 . S
C398 C85 1.574 . S
C433 C149 1.527 . S
C428 C8 1.564 . S
C463 C114 1.869 . S
C458 C18 1.908 . S
C493 C142 1.668 . S
C488 C27 1.563 . S
C523 C111 0.639 . S
C518 C38 0.683 . S
C553 C144 1.811 . S
C548 C51 1.930 . S
C578 C60 1.550 . S
C583 C109 1.654 . S
C608 C71 1.087 . S
C613 C147 1.128 . S
C643 C116 1.430 . S
C638 C84 1.457 . S
C673 C178 2.335 . S
C668 C7 2.345 . S
C698 C52 1.872 . S
C703 C181 1.711 . S
C733 C180 1.949 . S
C728 C62 1.965 . S
C758 C73 2.017 . S
C763 C179 2.045 . S
C793 C182 1.835 . S
C788 C82 1.665 . S
C818 C29 1.955 . S
C823 C176 1.910 . S
C853 C175 1.404 . S
C848 C41 1.397 . S
C878 C19 1.935 . S
C883 C177 1.805 . S
