# Generated by pormake.
# Topology pth, (4,4)-cn, num edge types: 1
# Building blocks:
#     Node 0, Type 0, BuildingBlock: TATPOV_clean_sbu_0, # of connection points: 4
#     Node 1, Type 0, BuildingBlock: TATPOV_clean_sbu_0, # of connection points: 4
#     Node 2, Type 0, BuildingBlock: TATPOV_clean_sbu_0, # of connection points: 4
#     Node 3, Type 1, BuildingBlock: KOZSID_clean_sbu_0, # of connection points: 4
#     Node 4, Type 1, BuildingBlock: KOZSID_clean_sbu_0, # of connection points: 4
#     Node 5, Type 1, BuildingBlock: KOZSID_clean_sbu_0, # of connection points: 4
#     Edge 6, Type (0, 1), BuildingBlock: XIVTED_clean_linker_0, # of connection points: 2
#     Edge 7, Type (0, 1), BuildingBlock: XIVTED_clean_linker_0, # of connection points: 2
#     Edge 8, Type (0, 1), BuildingBlock: XIVTED_clean_linker_0, # of connection points: 2
#     Edge 9, Type (0, 1), BuildingBlock: XIVTED_clean_linker_0, # of connection points: 2
#     Edge 10, Type (0, 1), BuildingBlock: XIVTED_clean_linker_0, # of connection points: 2
#     Edge 11, Type (0, 1), BuildingBlock: XIVTED_clean_linker_0, # of connection points: 2
#     Edge 12, Type (0, 1), BuildingBlock: XIVTED_clean_linker_0, # of connection points: 2
#     Edge 13, Type (0, 1), BuildingBlock: XIVTED_clean_linker_0, # of connection points: 2
#     Edge 14, Type (0, 1), BuildingBlock: XIVTED_clean_linker_0, # of connection points: 2
#     Edge 15, Type (0, 1), BuildingBlock: XIVTED_clean_linker_0, # of connection points: 2
#     Edge 16, Type (0, 1), BuildingBlock: XIVTED_clean_linker_0, # of connection points: 2
#     Edge 17, Type (0, 1), BuildingBlock: XIVTED_clean_linker_0, # of connection points: 2
# Relax obj value: 0.036
# Max RMSD: 0.165
# Mean RMSD: 0.080
data_MOF--net-pth--node1-TATPOV_clean_sbu_0--node2-KOZSID_clean_sbu_0--edge1-XIVTED_clean_linker_0
_symmetry_space_group_name_H-M    P1
_symmetry_Int_Tables_number       1
_symmetry_cell_setting            triclinic
loop_
_symmetry_equiv_pos_as_xyz
'x, y, z'
_cell_length_a     26.91457
_cell_length_b     26.598903
_cell_length_c     59.259947
_cell_angle_alpha  89.831288
_cell_angle_beta   89.535995
_cell_angle_gamma 121.12976
loop_
_atom_site_label
_atom_site_type_symbol
_atom_site_fract_x
_atom_site_fract_y
_atom_site_fract_z
_atom_type_partial_charge
Zn0 Zn 0.19199 0.03725 0.00787 0.0
Zn1 Zn 0.12864 0.07078 0.03211 0.0
O2 O 0.1411 0.01886 0.05429 0.0
O3 O 0.19329 0.99153 0.03499 0.0
O4 O 0.09064 0.10456 0.05115 0.0
O5 O 0.2554 0.12195 0.00195 0.0
O6 O 0.19901 0.14652 0.01962 0.0
C7 C 0.16647 0.98968 0.05294 0.0
C8 C 0.07419 0.99295 0.99143 0.0
O9 O 0.06973 0.0201 0.00828 0.0
O10 O 0.12177 0.99545 0.9873 0.0
C11 C 0.11625 0.12844 0.06943 0.0
O12 O 0.16247 0.12662 0.07498 0.0
C13 C 0.24538 0.16111 0.00858 0.0
Zn14 Zn 0.18296 0.18813 0.33783 0.0
Zn15 Zn 0.08756 0.12306 0.36364 0.0
O16 O 0.15538 0.13836 0.38419 0.0
O17 O 0.23389 0.1944 0.36376 0.0
O18 O 0.01759 0.08795 0.38439 0.0
O19 O 0.16341 0.2511 0.33251 0.0
O20 O 0.08272 0.19266 0.35128 0.0
C21 C 0.21047 0.16694 0.38197 0.0
C22 C 0.10428 0.06659 0.32255 0.0
O23 O 0.07381 0.06157 0.33995 0.0
O24 O 0.15009 0.11529 0.31797 0.0
C25 C 0.02396 0.11402 0.40306 0.0
O26 O 0.07582 0.15736 0.40848 0.0
C27 C 0.11448 0.23964 0.34003 0.0
Zn28 Zn 0.14546 0.98915 0.73298 0.0
Zn29 Zn 0.0859 0.00455 0.70028 0.0
O30 O 0.14481 0.99273 0.68241 0.0
O31 O 0.19577 0.98252 0.70895 0.0
O32 O 0.03233 0.0048 0.67691 0.0
O33 O 0.07423 0.91908 0.74634 0.0
O34 O 0.02671 0.93932 0.72151 0.0
C35 C 0.18654 0.98604 0.68824 0.0
C36 C 0.1528 0.10268 0.73298 0.0
O37 O 0.12423 0.0856 0.71476 0.0
O38 O 0.16498 0.06944 0.74388 0.0
C39 C 0.04466 0.04679 0.66333 0.0
O40 O 0.09674 0.09413 0.66366 0.0
C41 C 0.02665 0.90961 0.73842 0.0
C42 C 0.11177 0.65185 0.16651 0.0
C43 C 0.16727 0.68417 0.15721 0.0
C44 C 0.1989 0.66239 0.16652 0.0
C45 C 0.16117 0.61843 0.18097 0.0
N46 N 0.10798 0.61136 0.18134 0.0
Co47 Co 0.04082 0.55418 0.20002 0.0
N48 N 0.0922 0.5453 0.22134 0.0
C49 C 0.14719 0.55945 0.21684 0.0
C50 C 0.17142 0.54508 0.234 0.0
C51 C 0.12891 0.51952 0.2502 0.0
C52 C 0.0806 0.51985 0.24206 0.0
N53 N 0.97339 0.49679 0.21864 0.0
C54 C 0.97156 0.47685 0.23989 0.0
C55 C 0.91461 0.43772 0.24664 0.0
C56 C 0.8801 0.43158 0.22871 0.0
C57 C 0.91753 0.46763 0.2121 0.0
N58 N 0.99018 0.56336 0.17845 0.0
C59 C 0.93301 0.52601 0.17567 0.0
C60 C 0.90988 0.54519 0.1596 0.0
C61 C 0.95551 0.59785 0.15186 0.0
C62 C 0.00392 0.6078 0.16375 0.0
N63 N 0.035 0.48981 0.18203 0.0
C64 C 0.036 0.40126 0.15697 0.0
C65 C 0.02679 0.3955 0.18036 0.0
C66 C 0.02642 0.44003 0.19252 0.0
C67 C 0.04219 0.45127 0.14624 0.0
C68 C 0.04149 0.49497 0.15907 0.0
N69 N 0.04654 0.6184 0.21792 0.0
C70 C 0.0012 0.66786 0.23409 0.0
C71 C 0.05527 0.71449 0.2408 0.0
C72 C 0.10475 0.71124 0.23628 0.0
C73 C 0.09942 0.66276 0.22493 0.0
C74 C 0.99781 0.62039 0.22268 0.0
H75 H 0.1382 0.66159 0.22149 0.0
H76 H 0.95576 0.58587 0.21728 0.0
H77 H 0.02039 0.43449 0.21051 0.0
H78 H 0.04765 0.53363 0.15047 0.0
C79 C 0.17666 0.5917 0.19749 0.0
C80 C 0.06278 0.6581 0.16012 0.0
C81 C 0.02266 0.48811 0.25294 0.0
C82 C 0.90139 0.48129 0.19158 0.0
H83 H 0.18336 0.71983 0.14508 0.0
H84 H 0.24465 0.67876 0.16393 0.0
H85 H 0.21491 0.55257 0.23473 0.0
H86 H 0.13299 0.50084 0.26578 0.0
H87 H 0.89966 0.41484 0.26266 0.0
H88 H 0.83322 0.40507 0.22807 0.0
H89 H 0.86477 0.52504 0.15493 0.0
H90 H 0.95337 0.6259 0.13912 0.0
H91 H 0.02059 0.35707 0.18932 0.0
H92 H 0.04962 0.4577 0.1282 0.0
H93 H 0.96188 0.66872 0.23704 0.0
H94 H 0.14734 0.74589 0.24147 0.0
C95 C 0.48924 0.99742 0.5651 0.0
C96 C 0.44595 0.94035 0.57056 0.0
C97 C 0.45071 0.90462 0.55538 0.0
C98 C 0.49658 0.9417 0.54168 0.0
N99 N 0.52179 0.99898 0.54726 0.0
Co100 Co 0.5901 0.06747 0.53196 0.0
N101 N 0.59409 0.01517 0.50859 0.0
C102 C 0.55697 0.95676 0.50625 0.0
C103 C 0.57168 0.93244 0.48907 0.0
C104 C 0.62166 0.97779 0.48006 0.0
C105 C 0.63454 0.02751 0.4923 0.0
N106 N 0.65982 0.13562 0.5171 0.0
C107 C 0.69506 0.13607 0.50052 0.0
C108 C 0.74106 0.19244 0.496 0.0
C109 C 0.73555 0.22882 0.51065 0.0
C110 C 0.68668 0.19274 0.52319 0.0
N111 N 0.58485 0.12004 0.5549 0.0
C112 C 0.61898 0.17922 0.55611 0.0
C113 C 0.60302 0.20343 0.57296 0.0
C114 C 0.55535 0.15711 0.58293 0.0
C115 C 0.54509 0.10711 0.57157 0.0
N116 N 0.64339 0.05664 0.55153 0.0
C117 C 0.72914 0.0471 0.57472 0.0
C118 C 0.72916 0.09955 0.57457 0.0
C119 C 0.68624 0.10326 0.56308 0.0
C120 C 0.68358 0.99841 0.56405 0.0
C121 C 0.64129 0.00407 0.55267 0.0
N122 N 0.5372 0.07886 0.51226 0.0
C123 C 0.51263 0.14408 0.49369 0.0
C124 C 0.46172 0.09672 0.48527 0.0
C125 C 0.449 0.04001 0.49062 0.0
C126 C 0.48718 0.03214 0.50397 0.0
C127 C 0.54929 0.13428 0.50696 0.0
H128 H 0.4753 0.98791 0.50737 0.0
H129 H 0.58695 0.1725 0.51282 0.0
H130 H 0.6895 0.14479 0.56343 0.0
H131 H 0.60808 0.9658 0.5445 0.0
C132 C 0.51358 0.9247 0.52229 0.0
C133 C 0.49596 0.04865 0.57675 0.0
C134 C 0.68799 0.08418 0.48919 0.0
C135 C 0.66587 0.21074 0.54123 0.0
H136 H 0.41345 0.92616 0.58383 0.0
H137 H 0.42293 0.85743 0.55406 0.0
H138 H 0.55036 0.88661 0.48444 0.0
H139 H 0.64682 0.97383 0.46663 0.0
H140 H 0.77563 0.20563 0.48368 0.0
H141 H 0.7645 0.27576 0.51232 0.0
H142 H 0.62327 0.24935 0.57732 0.0
H143 H 0.53046 0.15985 0.5968 0.0
H144 H 0.76248 0.13801 0.58319 0.0
H145 H 0.68145 0.95663 0.56386 0.0
H146 H 0.52402 0.18888 0.49033 0.0
H147 H 0.41024 0.00186 0.48428 0.0
C148 C 0.64767 0.6128 0.82985 0.0
C149 C 0.67388 0.58963 0.81668 0.0
C150 C 0.64691 0.53105 0.82209 0.0
C151 C 0.60587 0.52187 0.83813 0.0
N152 N 0.60557 0.57099 0.84311 0.0
Co153 Co 0.55252 0.57736 0.86455 0.0
N154 N 0.53595 0.50465 0.88049 0.0
C155 C 0.54398 0.46248 0.87187 0.0
C156 C 0.52531 0.4152 0.88606 0.0
C157 C 0.50359 0.42804 0.90466 0.0
C158 C 0.51049 0.48303 0.90086 0.0
N159 N 0.49858 0.58305 0.88589 0.0
C160 C 0.47734 0.55598 0.90609 0.0
C161 C 0.44221 0.57424 0.91583 0.0
C162 C 0.44007 0.61242 0.90082 0.0
C163 C 0.47441 0.61605 0.88289 0.0
N164 N 0.56964 0.65005 0.84839 0.0
C165 C 0.53762 0.67552 0.84907 0.0
C166 C 0.56209 0.72674 0.83666 0.0
C167 C 0.61244 0.73354 0.82761 0.0
C168 C 0.61566 0.68577 0.83498 0.0
N169 N 0.488 0.53105 0.84426 0.0
C170 C 0.39737 0.46115 0.81486 0.0
C171 C 0.4493 0.50955 0.80675 0.0
C172 C 0.49411 0.5435 0.82165 0.0
C173 C 0.39139 0.44993 0.83818 0.0
C174 C 0.43677 0.48563 0.85254 0.0
N175 N 0.61707 0.62431 0.88469 0.0
C176 C 0.67107 0.7118 0.90662 0.0
C177 C 0.71434 0.69859 0.91044 0.0
C178 C 0.70717 0.64647 0.90151 0.0
C179 C 0.65799 0.60973 0.88877 0.0
C180 C 0.62302 0.67425 0.89378 0.0
H181 H 0.65355 0.57015 0.88185 0.0
H182 H 0.5914 0.68663 0.89071 0.0
H183 H 0.53409 0.57936 0.81479 0.0
H184 H 0.43074 0.47551 0.87033 0.0
C185 C 0.57496 0.47171 0.85167 0.0
C186 C 0.66101 0.67345 0.82844 0.0
C187 C 0.48547 0.50932 0.91546 0.0
C188 C 0.49268 0.6569 0.86506 0.0
H189 H 0.70862 0.61256 0.80441 0.0
H190 H 0.65765 0.49963 0.81579 0.0
H191 H 0.5277 0.37627 0.88335 0.0
H192 H 0.48319 0.39894 0.91897 0.0
H193 H 0.41998 0.56103 0.93199 0.0
H194 H 0.41791 0.63635 0.90313 0.0
H195 H 0.54694 0.75722 0.83533 0.0
H196 H 0.6433 0.76971 0.81704 0.0
H197 H 0.45584 0.52089 0.78897 0.0
H198 H 0.3528 0.41259 0.84539 0.0
H199 H 0.67506 0.75193 0.91289 0.0
H200 H 0.73927 0.63422 0.90427 0.0
H201 H 0.15307 0.17187 0.11156 0.0
H202 H 0.99329 0.35518 0.11507 0.0
H203 H 0.03842 0.16251 0.05905 0.0
H204 H 0.09383 0.34662 0.16971 0.0
H205 H 0.00769 0.28409 0.09421 0.0
H206 H 0.12932 0.23435 0.13329 0.0
C207 C 0.12258 0.18269 0.10464 0.0
C208 C 0.09792 0.16215 0.0834 0.0
C209 C 0.02622 0.29754 0.11083 0.0
C210 C 0.07078 0.23435 0.10818 0.0
C211 C 0.01832 0.33835 0.12268 0.0
C212 C 0.04228 0.35683 0.1442 0.0
C213 C 0.05871 0.27547 0.12051 0.0
C214 C 0.07382 0.3331 0.15333 0.0
C215 C 0.109 0.21843 0.11708 0.0
C216 C 0.05844 0.1774 0.07536 0.0
N217 N 0.08128 0.29396 0.14142 0.0
N218 N 0.04641 0.21301 0.08769 0.0
H219 H 0.02307 0.14543 0.44678 0.0
H220 H 0.69662 0.07301 0.44369 0.0
H221 H 0.90959 0.05757 0.39079 0.0
H222 H 0.79067 0.10414 0.50559 0.0
H223 H 0.77718 0.07494 0.42308 0.0
H224 H 0.94074 0.13662 0.46808 0.0
C225 C 0.98068 0.12374 0.43905 0.0
C226 C 0.97317 0.10225 0.41697 0.0
C227 C 0.78013 0.08115 0.44117 0.0
C228 C 0.87904 0.093 0.44111 0.0
C229 C 0.73443 0.08028 0.45285 0.0
C230 C 0.73725 0.0879 0.47627 0.0
C231 C 0.82929 0.09078 0.45302 0.0
C232 C 0.78713 0.09791 0.48749 0.0
C233 C 0.93375 0.11878 0.45122 0.0
C234 C 0.91727 0.07452 0.4078 0.0
N235 N 0.83136 0.09918 0.47575 0.0
N236 N 0.87243 0.07126 0.41983 0.0
H237 H 0.01177 0.85081 0.77826 0.0
H238 H 0.66939 0.71883 0.78618 0.0
H239 H 0.91627 0.87948 0.72673 0.0
H240 H 0.77212 0.72027 0.8418 0.0
H241 H 0.75831 0.77535 0.76345 0.0
H242 H 0.92264 0.79678 0.80061 0.0
C243 C 0.97195 0.84517 0.77149 0.0
C244 C 0.97162 0.86994 0.75059 0.0
C245 C 0.76156 0.76417 0.78074 0.0
C246 C 0.86943 0.80869 0.77629 0.0
C247 C 0.711 0.73271 0.79376 0.0
C248 C 0.71408 0.71656 0.81598 0.0
C249 C 0.81522 0.77844 0.78996 0.0
C250 C 0.76848 0.73314 0.82483 0.0
C251 C 0.92112 0.81471 0.78437 0.0
C252 C 0.91863 0.86126 0.74276 0.0
N253 N 0.81698 0.76297 0.81175 0.0
N254 N 0.86968 0.8315 0.75565 0.0
H255 H 0.11721 0.97653 0.09508 0.0
H256 H 0.08197 0.66346 0.11498 0.0
H257 H 0.1938 0.90418 0.05154 0.0
H258 H 0.06869 0.76114 0.17011 0.0
H259 H 0.11065 0.74759 0.0898 0.0
H260 H 0.09024 0.89576 0.12196 0.0
C261 C 0.12903 0.9442 0.0913 0.0
C262 C 0.15765 0.94707 0.07096 0.0
C263 C 0.10131 0.75069 0.10738 0.0
C264 C 0.12575 0.85422 0.1013 0.0
C265 C 0.08451 0.70265 0.12161 0.0
C266 C 0.07323 0.70602 0.14446 0.0
C267 C 0.10617 0.80213 0.11605 0.0
C268 C 0.0771 0.75738 0.15248 0.0
C269 C 0.11346 0.89811 0.1066 0.0
C270 C 0.17179 0.9039 0.06695 0.0
N271 N 0.0933 0.80373 0.13825 0.0
N272 N 0.1551 0.85897 0.08184 0.0
H273 H 0.32878 0.22989 0.3844 0.0
H274 H 0.34243 0.03891 0.48615 0.0
H275 H 0.17607 0.09467 0.41932 0.0
H276 H 0.4928 0.17851 0.45165 0.0
H277 H 0.28024 0.05948 0.4627 0.0
H278 H 0.38922 0.21448 0.41045 0.0
C279 C 0.30791 0.19732 0.3977 0.0
C280 C 0.24719 0.16326 0.39956 0.0
C281 C 0.32686 0.08568 0.46034 0.0
C282 C 0.31638 0.14477 0.42939 0.0
C283 C 0.36233 0.07365 0.47358 0.0
C284 C 0.42292 0.10712 0.47089 0.0
C285 C 0.35221 0.13132 0.44424 0.0
C286 C 0.44639 0.1521 0.45454 0.0
C287 C 0.34251 0.18839 0.41256 0.0
C288 C 0.2227 0.12188 0.41723 0.0
N289 N 0.41104 0.16276 0.44185 0.0
N290 N 0.25738 0.11341 0.43135 0.0
H291 H 0.21414 0.20671 0.71009 0.0
H292 H 0.27873 0.39681 0.82168 0.0
H293 H 0.14086 0.13231 0.7754 0.0
H294 H 0.41105 0.43036 0.77192 0.0
H295 H 0.20764 0.31552 0.7987 0.0
H296 H 0.26577 0.30509 0.72714 0.0
C297 C 0.20765 0.21146 0.72784 0.0
C298 C 0.17392 0.16193 0.74152 0.0
C299 C 0.25212 0.34174 0.79271 0.0
C300 C 0.23132 0.27291 0.76079 0.0
C301 C 0.29293 0.38776 0.80587 0.0
C302 C 0.35164 0.41976 0.79914 0.0
C303 C 0.26979 0.32838 0.77246 0.0
C304 C 0.36658 0.40722 0.77796 0.0
C305 C 0.23712 0.26722 0.73752 0.0
C306 C 0.16701 0.16975 0.76444 0.0
N307 N 0.32602 0.36205 0.76549 0.0
N308 N 0.19574 0.22431 0.77342 0.0
H309 H 0.93237 0.95593 0.65927 0.0
H310 H 0.84523 0.12901 0.57309 0.0
H311 H 0.05317 0.12974 0.63331 0.0
H312 H 0.72235 0.95867 0.60126 0.0
H313 H 0.92307 0.12697 0.59304 0.0
H314 H 0.85643 0.95306 0.6361 0.0
C315 C 0.94308 0.99344 0.64861 0.0
C316 C 0.99928 0.04335 0.64834 0.0
C317 C 0.87915 0.08992 0.59483 0.0
C318 C 0.91223 0.04028 0.62177 0.0
C319 C 0.83458 0.09117 0.58354 0.0
C320 C 0.777 0.04422 0.58573 0.0
C321 C 0.86626 0.04135 0.60848 0.0
C322 C 0.76607 0.99573 0.59904 0.0
C323 C 0.89959 0.99173 0.63539 0.0
C324 C 0.01049 0.09045 0.63413 0.0
N325 N 0.81025 0.99572 0.61003 0.0
N326 N 0.96729 0.08785 0.62149 0.0
H327 H 0.0682 0.9299 0.95398 0.0
H328 H 0.72164 0.76026 0.94847 0.0
H329 H 0.96201 0.96582 0.99816 0.0
H330 H 0.82758 0.73279 0.90094 0.0
H331 H 0.80942 0.83464 0.9672 0.0
H332 H 0.98096 0.85792 0.93423 0.0
C333 C 0.02662 0.92308 0.95943 0.0
C334 C 0.02249 0.95393 0.97784 0.0
C335 C 0.81355 0.81234 0.95269 0.0
C336 C 0.92227 0.87096 0.9554 0.0
C337 C 0.76342 0.76989 0.94196 0.0
C338 C 0.76723 0.74038 0.92303 0.0
C339 C 0.86811 0.82551 0.9445 0.0
C340 C 0.82253 0.75398 0.91561 0.0
C341 C 0.97677 0.88178 0.94816 0.0
C342 C 0.96737 0.94315 0.98408 0.0
N343 N 0.87081 0.79569 0.92632 0.0
N344 N 0.91944 0.90234 0.97297 0.0
H345 H 0.01597 0.95198 0.32902 0.0
H346 H 0.13636 0.83019 0.23289 0.0
H347 H 0.1603 0.06239 0.28455 0.0
H348 H 0.98482 0.71803 0.27378 0.0
H349 H 0.14398 0.91584 0.25127 0.0
H350 H 0.00069 0.86586 0.30815 0.0
C351 C 0.04403 0.95825 0.31474 0.0
C352 C 0.08975 0.01458 0.30865 0.0
C353 C 0.10894 0.87254 0.25622 0.0
C354 C 0.07287 0.91616 0.28486 0.0
C355 C 0.10487 0.82357 0.24585 0.0
C356 C 0.06013 0.76681 0.25191 0.0
C357 C 0.06814 0.8649 0.2729 0.0
C358 C 0.01982 0.761 0.26849 0.0
C359 C 0.0354 0.90902 0.30288 0.0
C360 C 0.12471 0.01991 0.28999 0.0
N361 N 0.02494 0.8094 0.27849 0.0
N362 N 0.11579 0.97138 0.27889 0.0
H363 H 0.18361 0.99671 0.64219 0.0
H364 H 0.49973 0.04313 0.62253 0.0
H365 H 0.28505 0.98236 0.69513 0.0
H366 H 0.39044 0.03478 0.56824 0.0
H367 H 0.4222 0.0238 0.64962 0.0
H368 H 0.25856 0.01146 0.61479 0.0
C369 C 0.22128 0.99603 0.64804 0.0
C370 C 0.22801 0.98841 0.67104 0.0
C371 C 0.41508 0.02629 0.6318 0.0
C372 C 0.31435 0.00608 0.63979 0.0
C373 C 0.45937 0.03764 0.61645 0.0
C374 C 0.45106 0.04087 0.59335 0.0
C375 C 0.36228 0.01821 0.6239 0.0
C376 C 0.39814 0.03293 0.58605 0.0
C377 C 0.26418 0.00468 0.63239 0.0
C378 C 0.2779 0.98811 0.6776 0.0
N379 N 0.35563 0.02201 0.6013 0.0
N380 N 0.31925 0.99721 0.6621 0.0
H381 H 0.22069 0.24867 0.00671 0.0
H382 H 0.3678 0.44994 0.92082 0.0
H383 H 0.35863 0.21436 0.99407 0.0
H384 H 0.52417 0.48475 0.95409 0.0
H385 H 0.31037 0.3754 0.94942 0.0
H386 H 0.28034 0.34595 0.98925 0.0
C387 C 0.26388 0.26193 0.00064 0.0
C388 C 0.28438 0.22296 0.00147 0.0
C389 C 0.35716 0.40074 0.95094 0.0
C390 C 0.35249 0.33392 0.98164 0.0
C391 C 0.38993 0.44352 0.9347 0.0
C392 C 0.45074 0.47434 0.93543 0.0
C393 C 0.38544 0.38727 0.96755 0.0
C394 C 0.47732 0.46239 0.95323 0.0
C395 C 0.29763 0.31725 0.9906 0.0
C396 C 0.34081 0.24267 0.99343 0.0
N397 N 0.44451 0.41855 0.96829 0.0
N398 N 0.37287 0.29678 0.98373 0.0
H399 H 0.17651 0.3585 0.33333 0.0
H400 H 0.96783 0.36878 0.25308 0.0
H401 H 0.00213 0.20824 0.33285 0.0
H402 H 0.06437 0.51898 0.29588 0.0
H403 H 0.97866 0.3075 0.28103 0.0
H404 H 0.13976 0.41939 0.31858 0.0
C405 C 0.13042 0.33861 0.33043 0.0
C406 C 0.09228 0.27832 0.33412 0.0
C407 C 0.99587 0.35349 0.28464 0.0
C408 C 0.05049 0.3471 0.31699 0.0
C409 C 0.98932 0.38837 0.2688 0.0
C410 C 0.01501 0.44891 0.27231 0.0
C411 C 0.03031 0.37982 0.30361 0.0
C412 C 0.04384 0.47238 0.29269 0.0
C413 C 0.10949 0.37335 0.32222 0.0
C414 C 0.0329 0.25461 0.33019 0.0
N415 N 0.05248 0.43813 0.30731 0.0
N416 N 0.01394 0.28878 0.32125 0.0
loop_
_geom_bond_atom_site_label_1
_geom_bond_atom_site_label_2
_geom_bond_distance
_geom_bond_site_symmetry_2
_ccdc_geom_bond_type
Zn0 O3 2.031 1_545 S
Zn0 O5 2.049 1_554 S
Zn0 O10 2.067 1_554 S
Zn1 O2 1.962 . S
Zn1 O4 1.986 . S
Zn1 O6 1.996 . S
Zn1 O9 1.943 . S
O2 Zn1 1.962 . S
O2 C7 1.254 . S
O3 Zn0 2.031 1_565 S
O3 C7 1.269 1_565 S
O4 Zn1 1.986 . S
O4 C11 1.262 . S
O5 Zn0 2.049 1_556 S
O5 C13 1.260 1_556 S
O6 Zn1 1.996 . S
O6 C13 1.257 . S
C7 O2 1.254 . S
C7 O3 1.269 1_545 S
C8 O9 1.249 . S
C8 O10 1.270 1_554 S
O9 Zn1 1.943 . S
O9 C8 1.249 . S
O10 Zn0 2.067 1_556 S
O10 C8 1.270 1_556 S
C11 O4 1.262 . S
C11 O12 1.232 . S
O12 C11 1.232 . S
C13 O5 1.260 1_554 S
C13 O6 1.257 . S
Zn14 O17 2.031 . S
Zn14 O19 2.049 . S
Zn14 O24 2.067 . S
Zn15 O16 1.962 . S
Zn15 O18 1.986 1_455 S
Zn15 O20 1.996 . S
Zn15 O23 1.943 . S
O16 Zn15 1.962 . S
O16 C21 1.254 . S
O17 Zn14 2.031 . S
O17 C21 1.269 . S
O18 Zn15 1.986 1_655 S
O18 C25 1.262 . S
O19 Zn14 2.049 . S
O19 C27 1.260 . S
O20 Zn15 1.996 . S
O20 C27 1.257 . S
C21 O16 1.254 . S
C21 O17 1.269 . S
C22 O23 1.249 . S
C22 O24 1.270 . S
O23 Zn15 1.943 . S
O23 C22 1.249 . S
O24 Zn14 2.067 . S
O24 C22 1.270 . S
C25 O18 1.262 . S
C25 O26 1.232 . S
O26 C25 1.232 . S
C27 O19 1.260 . S
C27 O20 1.257 . S
Zn28 O31 2.031 1_565 S
Zn28 O33 2.049 . S
Zn28 O38 2.067 1_565 S
Zn29 O30 1.962 . S
Zn29 O32 1.986 1_455 S
Zn29 O34 1.996 1_545 S
Zn29 O37 1.943 . S
O30 Zn29 1.962 . S
O30 C35 1.254 . S
O31 Zn28 2.031 1_545 S
O31 C35 1.269 . S
O32 Zn29 1.986 1_655 S
O32 C39 1.262 . S
O33 Zn28 2.049 . S
O33 C41 1.260 . S
O34 Zn29 1.996 1_565 S
O34 C41 1.257 . S
C35 O30 1.254 . S
C35 O31 1.269 . S
C36 O37 1.249 . S
C36 O38 1.270 . S
O37 Zn29 1.943 . S
O37 C36 1.249 . S
O38 Zn28 2.067 1_545 S
O38 C36 1.270 . S
C39 O32 1.262 . S
C39 O40 1.232 1_655 S
O40 C39 1.232 1_455 S
C41 O33 1.260 . S
C41 O34 1.257 . S
C42 C43 1.443 . S
C42 N46 1.376 . S
C42 C80 1.389 . S
C43 C42 1.443 . S
C43 C44 1.340 . S
C43 H83 0.951 . S
C44 C43 1.340 . S
C44 C45 1.439 . S
C44 H84 0.950 . S
C45 C44 1.439 . S
C45 N46 1.374 . S
C45 C79 1.395 . S
N46 C42 1.376 . S
N46 C45 1.374 . S
N46 Co47 2.008 . S
Co47 N46 2.008 . S
Co47 N48 1.995 . S
Co47 N53 2.008 1_455 S
Co47 N58 1.995 . S
Co47 N63 2.282 . S
Co47 N69 2.282 . S
N48 Co47 1.995 . S
N48 C49 1.376 . S
N48 C52 1.383 . S
C49 N48 1.376 . S
C49 C50 1.446 . S
C49 C79 1.391 . S
C50 C49 1.446 . S
C50 C51 1.339 . S
C50 H85 0.949 . S
C51 C50 1.339 . S
C51 C52 1.439 . S
C51 H86 0.950 . S
C52 N48 1.383 . S
C52 C51 1.439 . S
C52 C81 1.392 . S
N53 Co47 2.008 1_655 S
N53 C54 1.376 1_655 S
N53 C57 1.374 . S
C54 N53 1.376 1_455 S
C54 C55 1.443 1_455 S
C54 C81 1.389 . S
C55 C54 1.443 1_655 S
C55 C56 1.340 . S
C55 H87 0.951 . S
C56 C55 1.340 . S
C56 C57 1.439 . S
C56 H88 0.950 . S
C57 N53 1.374 . S
C57 C56 1.439 . S
C57 C82 1.395 . S
N58 Co47 1.995 . S
N58 C59 1.376 1_455 S
N58 C62 1.383 . S
C59 N58 1.376 1_655 S
C59 C60 1.446 . S
C59 C82 1.391 . S
C60 C59 1.446 . S
C60 C61 1.339 . S
C60 H89 0.949 . S
C61 C60 1.339 . S
C61 C62 1.439 1_655 S
C61 H90 0.950 . S
C62 N58 1.383 . S
C62 C61 1.439 1_455 S
C62 C80 1.392 . S
N63 Co47 2.282 . S
N63 C66 1.332 . S
N63 C68 1.332 . S
C64 C65 1.386 . S
C64 C67 1.388 . S
C65 C64 1.386 . S
C65 C66 1.382 . S
C65 H91 0.950 1_455 S
C66 N63 1.332 . S
C66 C65 1.382 . S
C66 H77 0.952 1_455 S
C67 C64 1.388 . S
C67 C68 1.382 . S
C67 H92 0.950 . S
C68 N63 1.332 . S
C68 C67 1.382 . S
C68 H78 0.948 . S
N69 Co47 2.282 . S
N69 C73 1.332 . S
N69 C74 1.332 . S
C70 C71 1.388 . S
C70 C74 1.382 . S
C70 H93 0.950 1_455 S
C71 C70 1.388 . S
C71 C72 1.386 . S
C72 C71 1.386 . S
C72 C73 1.382 . S
C72 H94 0.950 . S
C73 N69 1.332 . S
C73 C72 1.382 . S
C73 H75 0.952 . S
C74 N69 1.332 . S
C74 C70 1.382 . S
C74 H76 0.948 1_455 S
H75 C73 0.952 . S
H76 C74 0.948 1_655 S
H77 C66 0.952 1_655 S
H78 C68 0.948 . S
C79 C45 1.395 . S
C79 C49 1.391 . S
C80 C42 1.389 . S
C80 C62 1.392 . S
C81 C52 1.392 . S
C81 C54 1.389 . S
C82 C57 1.395 . S
C82 C59 1.391 . S
H83 C43 0.951 . S
H84 C44 0.950 . S
H85 C50 0.949 . S
H86 C51 0.950 . S
H87 C55 0.951 . S
H88 C56 0.950 . S
H89 C60 0.949 . S
H90 C61 0.950 . S
H91 C65 0.950 1_655 S
H92 C67 0.950 . S
H93 C70 0.950 1_655 S
H94 C72 0.950 . S
C95 C96 1.443 1_545 S
C95 N99 1.376 . S
C95 C133 1.389 . S
C96 C95 1.443 1_565 S
C96 C97 1.340 . S
C96 H136 0.951 . S
C97 C96 1.340 . S
C97 C98 1.439 . S
C97 H137 0.950 . S
C98 C97 1.439 . S
C98 N99 1.374 1_565 S
C98 C132 1.395 . S
N99 C95 1.376 . S
N99 C98 1.374 1_545 S
N99 Co100 2.008 . S
Co100 N99 2.008 . S
Co100 N101 1.995 . S
Co100 N106 2.008 . S
Co100 N111 1.995 . S
Co100 N116 2.282 . S
Co100 N122 2.282 . S
N101 Co100 1.995 . S
N101 C102 1.376 1_545 S
N101 C105 1.383 . S
C102 N101 1.376 1_565 S
C102 C103 1.446 . S
C102 C132 1.391 . S
C103 C102 1.446 . S
C103 C104 1.339 . S
C103 H138 0.949 . S
C104 C103 1.339 . S
C104 C105 1.439 1_565 S
C104 H139 0.950 . S
C105 N101 1.383 . S
C105 C104 1.439 1_545 S
C105 C134 1.392 . S
N106 Co100 2.008 . S
N106 C107 1.376 . S
N106 C110 1.374 . S
C107 N106 1.376 . S
C107 C108 1.443 . S
C107 C134 1.389 . S
C108 C107 1.443 . S
C108 C109 1.340 . S
C108 H140 0.951 . S
C109 C108 1.340 . S
C109 C110 1.439 . S
C109 H141 0.950 . S
C110 N106 1.374 . S
C110 C109 1.439 . S
C110 C135 1.395 . S
N111 Co100 1.995 . S
N111 C112 1.376 . S
N111 C115 1.383 . S
C112 N111 1.376 . S
C112 C113 1.446 . S
C112 C135 1.391 . S
C113 C112 1.446 . S
C113 C114 1.339 . S
C113 H142 0.949 . S
C114 C113 1.339 . S
C114 C115 1.439 . S
C114 H143 0.950 . S
C115 N111 1.383 . S
C115 C114 1.439 . S
C115 C133 1.392 . S
N116 Co100 2.282 . S
N116 C119 1.332 . S
N116 C121 1.332 . S
C117 C118 1.386 . S
C117 C120 1.388 . S
C118 C117 1.386 . S
C118 C119 1.382 . S
C118 H144 0.950 . S
C119 N116 1.332 . S
C119 C118 1.382 . S
C119 H130 0.952 . S
C120 C117 1.388 . S
C120 C121 1.382 . S
C120 H145 0.950 1_545 S
C121 N116 1.332 . S
C121 C120 1.382 . S
C121 H131 0.953 . S
N122 Co100 2.282 . S
N122 C126 1.332 . S
N122 C127 1.332 . S
C123 C124 1.388 . S
C123 C127 1.382 . S
C123 H146 0.950 . S
C124 C123 1.388 . S
C124 C125 1.386 . S
C125 C124 1.386 . S
C125 C126 1.382 . S
C125 H147 0.950 . S
C126 N122 1.332 . S
C126 C125 1.382 . S
C126 H128 0.952 . S
C127 N122 1.332 . S
C127 C123 1.382 . S
C127 H129 0.948 . S
H128 C126 0.952 . S
H129 C127 0.948 . S
H130 C119 0.952 . S
H131 C121 0.953 . S
C132 C98 1.395 . S
C132 C102 1.391 . S
C133 C95 1.389 . S
C133 C115 1.392 . S
C134 C105 1.392 . S
C134 C107 1.389 . S
C135 C110 1.395 . S
C135 C112 1.391 . S
H136 C96 0.951 . S
H137 C97 0.950 . S
H138 C103 0.949 . S
H139 C104 0.950 . S
H140 C108 0.951 . S
H141 C109 0.950 . S
H142 C113 0.949 . S
H143 C114 0.950 . S
H144 C118 0.950 . S
H145 C120 0.950 1_565 S
H146 C123 0.950 . S
H147 C125 0.950 . S
C148 C149 1.443 . S
C148 N152 1.376 . S
C148 C186 1.389 . S
C149 C148 1.443 . S
C149 C150 1.340 . S
C149 H189 0.951 . S
C150 C149 1.340 . S
C150 C151 1.439 . S
C150 H190 0.950 . S
C151 C150 1.439 . S
C151 N152 1.374 . S
C151 C185 1.395 . S
N152 C148 1.376 . S
N152 C151 1.374 . S
N152 Co153 2.008 . S
Co153 N152 2.008 . S
Co153 N154 1.995 . S
Co153 N159 2.008 . S
Co153 N164 1.995 . S
Co153 N169 2.282 . S
Co153 N175 2.282 . S
N154 Co153 1.995 . S
N154 C155 1.376 . S
N154 C158 1.383 . S
C155 N154 1.376 . S
C155 C156 1.446 . S
C155 C185 1.391 . S
C156 C155 1.446 . S
C156 C157 1.339 . S
C156 H191 0.949 . S
C157 C156 1.339 . S
C157 C158 1.439 . S
C157 H192 0.950 . S
C158 N154 1.383 . S
C158 C157 1.439 . S
C158 C187 1.392 . S
N159 Co153 2.008 . S
N159 C160 1.376 . S
N159 C163 1.374 . S
C160 N159 1.376 . S
C160 C161 1.443 . S
C160 C187 1.389 . S
C161 C160 1.443 . S
C161 C162 1.340 . S
C161 H193 0.951 . S
C162 C161 1.340 . S
C162 C163 1.439 . S
C162 H194 0.950 . S
C163 N159 1.374 . S
C163 C162 1.439 . S
C163 C188 1.395 . S
N164 Co153 1.995 . S
N164 C165 1.376 . S
N164 C168 1.383 . S
C165 N164 1.376 . S
C165 C166 1.446 . S
C165 C188 1.391 . S
C166 C165 1.446 . S
C166 C167 1.339 . S
C166 H195 0.949 . S
C167 C166 1.339 . S
C167 C168 1.439 . S
C167 H196 0.950 . S
C168 N164 1.383 . S
C168 C167 1.439 . S
C168 C186 1.392 . S
N169 Co153 2.282 . S
N169 C172 1.332 . S
N169 C174 1.332 . S
C170 C171 1.386 . S
C170 C173 1.388 . S
C171 C170 1.386 . S
C171 C172 1.382 . S
C171 H197 0.950 . S
C172 N169 1.332 . S
C172 C171 1.382 . S
C172 H183 0.952 . S
C173 C170 1.388 . S
C173 C174 1.382 . S
C173 H198 0.950 . S
C174 N169 1.332 . S
C174 C173 1.382 . S
C174 H184 0.948 . S
N175 Co153 2.282 . S
N175 C179 1.332 . S
N175 C180 1.332 . S
C176 C177 1.388 . S
C176 C180 1.382 . S
C176 H199 0.950 . S
C177 C176 1.388 . S
C177 C178 1.386 . S
C178 C177 1.386 . S
C178 C179 1.382 . S
C178 H200 0.950 . S
C179 N175 1.332 . S
C179 C178 1.382 . S
C179 H181 0.952 . S
C180 N175 1.332 . S
C180 C176 1.382 . S
C180 H182 0.948 . S
H181 C179 0.952 . S
H182 C180 0.948 . S
H183 C172 0.952 . S
H184 C174 0.948 . S
C185 C151 1.395 . S
C185 C155 1.391 . S
C186 C148 1.389 . S
C186 C168 1.392 . S
C187 C158 1.392 . S
C187 C160 1.389 . S
C188 C163 1.395 . S
C188 C165 1.391 . S
H189 C149 0.951 . S
H190 C150 0.950 . S
H191 C156 0.949 . S
H192 C157 0.950 . S
H193 C161 0.951 . S
H194 C162 0.950 . S
H195 C166 0.949 . S
H196 C167 0.950 . S
H197 C171 0.950 . S
H198 C173 0.950 . S
H199 C176 0.950 . S
H200 C178 0.950 . S
H201 C207 0.930 . S
H202 C211 0.930 . S
H203 C216 0.929 . S
H204 C214 0.929 . S
H205 C209 0.929 . S
H206 C215 0.929 . S
C207 H201 0.930 . S
C207 C208 1.367 . S
C207 C215 1.378 . S
C208 C207 1.367 . S
C208 C216 1.433 . S
C209 H205 0.929 . S
C209 C211 1.378 . S
C209 C213 1.350 . S
C210 C213 1.463 . S
C210 C215 1.350 . S
C210 N218 1.427 . S
C211 H202 0.930 . S
C211 C209 1.378 . S
C211 C212 1.367 . S
C212 C211 1.367 . S
C212 C214 1.433 . S
C213 C209 1.350 . S
C213 C210 1.463 . S
C213 N217 1.427 . S
C214 H204 0.929 . S
C214 C212 1.433 . S
C214 N217 1.384 . S
C215 H206 0.929 . S
C215 C207 1.378 . S
C215 C210 1.350 . S
C216 H203 0.929 . S
C216 C208 1.433 . S
C216 N218 1.384 . S
N217 C213 1.427 . S
N217 C214 1.384 . S
N218 C210 1.427 . S
N218 C216 1.384 . S
H219 C225 0.930 . S
H220 C229 0.930 . S
H221 C234 0.929 . S
H222 C232 0.929 . S
H223 C227 0.929 . S
H224 C233 0.929 . S
C225 H219 0.930 . S
C225 C226 1.367 . S
C225 C233 1.378 . S
C226 C225 1.367 . S
C226 C234 1.433 . S
C227 H223 0.929 . S
C227 C229 1.378 . S
C227 C231 1.350 . S
C228 C231 1.463 . S
C228 C233 1.350 . S
C228 N236 1.427 . S
C229 H220 0.930 . S
C229 C227 1.378 . S
C229 C230 1.367 . S
C230 C229 1.367 . S
C230 C232 1.433 . S
C231 C227 1.350 . S
C231 C228 1.463 . S
C231 N235 1.427 . S
C232 H222 0.929 . S
C232 C230 1.433 . S
C232 N235 1.384 . S
C233 H224 0.929 . S
C233 C225 1.378 . S
C233 C228 1.350 . S
C234 H221 0.929 . S
C234 C226 1.433 . S
C234 N236 1.384 . S
N235 C231 1.427 . S
N235 C232 1.384 . S
N236 C228 1.427 . S
N236 C234 1.384 . S
H237 C243 0.930 1_455 S
H238 C247 0.930 . S
H239 C252 0.929 . S
H240 C250 0.929 . S
H241 C245 0.929 . S
H242 C251 0.929 . S
C243 H237 0.930 1_655 S
C243 C244 1.367 . S
C243 C251 1.378 . S
C244 C243 1.367 . S
C244 C252 1.433 . S
C245 H241 0.929 . S
C245 C247 1.378 . S
C245 C249 1.350 . S
C246 C249 1.463 . S
C246 C251 1.350 . S
C246 N254 1.427 . S
C247 H238 0.930 . S
C247 C245 1.378 . S
C247 C248 1.367 . S
C248 C247 1.367 . S
C248 C250 1.433 . S
C249 C245 1.350 . S
C249 C246 1.463 . S
C249 N253 1.427 . S
C250 H240 0.929 . S
C250 C248 1.433 . S
C250 N253 1.384 . S
C251 H242 0.929 . S
C251 C243 1.378 . S
C251 C246 1.350 . S
C252 H239 0.929 . S
C252 C244 1.433 . S
C252 N254 1.384 . S
N253 C249 1.427 . S
N253 C250 1.384 . S
N254 C246 1.427 . S
N254 C252 1.384 . S
H255 C261 0.930 1_545 S
H256 C265 0.930 . S
H257 C270 0.929 . S
H258 C268 0.929 . S
H259 C263 0.929 . S
H260 C269 0.929 . S
C261 H255 0.930 1_565 S
C261 C262 1.367 . S
C261 C269 1.378 . S
C262 C261 1.367 . S
C262 C270 1.433 . S
C263 H259 0.929 . S
C263 C265 1.378 . S
C263 C267 1.350 . S
C264 C267 1.463 . S
C264 C269 1.350 . S
C264 N272 1.427 . S
C265 H256 0.930 . S
C265 C263 1.378 . S
C265 C266 1.367 . S
C266 C265 1.367 . S
C266 C268 1.433 . S
C267 C263 1.350 . S
C267 C264 1.463 . S
C267 N271 1.427 . S
C268 H258 0.929 . S
C268 C266 1.433 . S
C268 N271 1.384 . S
C269 H260 0.929 . S
C269 C261 1.378 . S
C269 C264 1.350 . S
C270 H257 0.929 . S
C270 C262 1.433 . S
C270 N272 1.384 . S
N271 C267 1.427 . S
N271 C268 1.384 . S
N272 C264 1.427 . S
N272 C270 1.384 . S
H273 C279 0.930 . S
H274 C283 0.930 . S
H275 C288 0.929 . S
H276 C286 0.929 . S
H277 C281 0.929 . S
H278 C287 0.929 . S
C279 H273 0.930 . S
C279 C280 1.367 . S
C279 C287 1.378 . S
C280 C279 1.367 . S
C280 C288 1.433 . S
C281 H277 0.929 . S
C281 C283 1.378 . S
C281 C285 1.350 . S
C282 C285 1.463 . S
C282 C287 1.350 . S
C282 N290 1.427 . S
C283 H274 0.930 . S
C283 C281 1.378 . S
C283 C284 1.367 . S
C284 C283 1.367 . S
C284 C286 1.433 . S
C285 C281 1.350 . S
C285 C282 1.463 . S
C285 N289 1.427 . S
C286 H276 0.929 . S
C286 C284 1.433 . S
C286 N289 1.384 . S
C287 H278 0.929 . S
C287 C279 1.378 . S
C287 C282 1.350 . S
C288 H275 0.929 . S
C288 C280 1.433 . S
C288 N290 1.384 . S
N289 C285 1.427 . S
N289 C286 1.384 . S
N290 C282 1.427 . S
N290 C288 1.384 . S
H291 C297 0.930 . S
H292 C301 0.930 . S
H293 C306 0.929 . S
H294 C304 0.929 . S
H295 C299 0.929 . S
H296 C305 0.929 . S
C297 H291 0.930 . S
C297 C298 1.367 . S
C297 C305 1.378 . S
C298 C297 1.367 . S
C298 C306 1.433 . S
C299 H295 0.929 . S
C299 C301 1.378 . S
C299 C303 1.350 . S
C300 C303 1.463 . S
C300 C305 1.350 . S
C300 N308 1.427 . S
C301 H292 0.930 . S
C301 C299 1.378 . S
C301 C302 1.367 . S
C302 C301 1.367 . S
C302 C304 1.433 . S
C303 C299 1.350 . S
C303 C300 1.463 . S
C303 N307 1.427 . S
C304 H294 0.929 . S
C304 C302 1.433 . S
C304 N307 1.384 . S
C305 H296 0.929 . S
C305 C297 1.378 . S
C305 C300 1.350 . S
C306 H293 0.929 . S
C306 C298 1.433 . S
C306 N308 1.384 . S
N307 C303 1.427 . S
N307 C304 1.384 . S
N308 C300 1.427 . S
N308 C306 1.384 . S
H309 C315 0.930 1_565 S
H310 C319 0.930 . S
H311 C324 0.929 1_455 S
H312 C322 0.929 1_565 S
H313 C317 0.929 . S
H314 C323 0.929 1_565 S
C315 H309 0.930 1_545 S
C315 C316 1.367 . S
C315 C323 1.378 . S
C316 C315 1.367 . S
C316 C324 1.433 . S
C317 H313 0.929 . S
C317 C319 1.378 . S
C317 C321 1.350 . S
C318 C321 1.463 . S
C318 C323 1.350 . S
C318 N326 1.427 . S
C319 H310 0.930 . S
C319 C317 1.378 . S
C319 C320 1.367 . S
C320 C319 1.367 . S
C320 C322 1.433 . S
C321 C317 1.350 . S
C321 C318 1.463 . S
C321 N325 1.427 . S
C322 H312 0.929 1_545 S
C322 C320 1.433 . S
C322 N325 1.384 . S
C323 H314 0.929 1_545 S
C323 C315 1.378 . S
C323 C318 1.350 . S
C324 H311 0.929 1_655 S
C324 C316 1.433 . S
C324 N326 1.384 . S
N325 C321 1.427 . S
N325 C322 1.384 . S
N326 C318 1.427 . S
N326 C324 1.384 . S
H327 C333 0.930 . S
H328 C337 0.930 . S
H329 C342 0.929 . S
H330 C340 0.929 . S
H331 C335 0.929 . S
H332 C341 0.929 1_455 S
C333 H327 0.930 . S
C333 C334 1.367 . S
C333 C341 1.378 1_455 S
C334 C333 1.367 . S
C334 C342 1.433 1_456 S
C335 H331 0.929 . S
C335 C337 1.378 . S
C335 C339 1.350 . S
C336 C339 1.463 . S
C336 C341 1.350 . S
C336 N344 1.427 . S
C337 H328 0.930 . S
C337 C335 1.378 . S
C337 C338 1.367 . S
C338 C337 1.367 . S
C338 C340 1.433 . S
C339 C335 1.350 . S
C339 C336 1.463 . S
C339 N343 1.427 . S
C340 H330 0.929 . S
C340 C338 1.433 . S
C340 N343 1.384 . S
C341 H332 0.929 1_655 S
C341 C333 1.378 1_655 S
C341 C336 1.350 . S
C342 H329 0.929 . S
C342 C334 1.433 1_654 S
C342 N344 1.384 1_554 S
N343 C339 1.427 . S
N343 C340 1.384 . S
N344 C336 1.427 . S
N344 C342 1.384 1_556 S
H345 C351 0.930 1_655 S
H346 C355 0.930 . S
H347 C360 0.929 . S
H348 C358 0.929 . S
H349 C353 0.929 . S
H350 C359 0.929 1_655 S
C351 H345 0.930 1_455 S
C351 C352 1.367 . S
C351 C359 1.378 . S
C352 C351 1.367 . S
C352 C360 1.433 1_565 S
C353 H349 0.929 . S
C353 C355 1.378 . S
C353 C357 1.350 . S
C354 C357 1.463 . S
C354 C359 1.350 . S
C354 N362 1.427 . S
C355 H346 0.930 . S
C355 C353 1.378 . S
C355 C356 1.367 . S
C356 C355 1.367 . S
C356 C358 1.433 . S
C357 C353 1.350 . S
C357 C354 1.463 . S
C357 N361 1.427 . S
C358 H348 0.929 . S
C358 C356 1.433 . S
C358 N361 1.384 . S
C359 H350 0.929 1_455 S
C359 C351 1.378 . S
C359 C354 1.350 . S
C360 H347 0.929 . S
C360 C352 1.433 1_545 S
C360 N362 1.384 1_545 S
N361 C357 1.427 . S
N361 C358 1.384 . S
N362 C354 1.427 . S
N362 C360 1.384 1_565 S
H363 C369 0.930 . S
H364 C373 0.930 . S
H365 C378 0.929 . S
H366 C376 0.929 . S
H367 C371 0.929 . S
H368 C377 0.929 . S
C369 H363 0.930 . S
C369 C370 1.367 1_565 S
C369 C377 1.378 . S
C370 C369 1.367 1_545 S
C370 C378 1.433 . S
C371 H367 0.929 . S
C371 C373 1.378 . S
C371 C375 1.350 . S
C372 C375 1.463 . S
C372 C377 1.350 1_545 S
C372 N380 1.427 . S
C373 H364 0.930 . S
C373 C371 1.378 . S
C373 C374 1.367 . S
C374 C373 1.367 . S
C374 C376 1.433 . S
C375 C371 1.350 . S
C375 C372 1.463 . S
C375 N379 1.427 . S
C376 H366 0.929 . S
C376 C374 1.433 . S
C376 N379 1.384 . S
C377 H368 0.929 . S
C377 C369 1.378 . S
C377 C372 1.350 1_565 S
C378 H365 0.929 . S
C378 C370 1.433 . S
C378 N380 1.384 . S
N379 C375 1.427 . S
N379 C376 1.384 . S
N380 C372 1.427 . S
N380 C378 1.384 . S
H381 C387 0.930 . S
H382 C391 0.930 . S
H383 C396 0.929 . S
H384 C394 0.929 . S
H385 C389 0.929 . S
H386 C395 0.929 . S
C387 H381 0.930 . S
C387 C388 1.367 . S
C387 C395 1.378 . S
C388 C387 1.367 . S
C388 C396 1.433 . S
C389 H385 0.929 . S
C389 C391 1.378 . S
C389 C393 1.350 . S
C390 C393 1.463 . S
C390 C395 1.350 . S
C390 N398 1.427 . S
C391 H382 0.930 . S
C391 C389 1.378 . S
C391 C392 1.367 . S
C392 C391 1.367 . S
C392 C394 1.433 . S
C393 C389 1.350 . S
C393 C390 1.463 . S
C393 N397 1.427 . S
C394 H384 0.929 . S
C394 C392 1.433 . S
C394 N397 1.384 . S
C395 H386 0.929 . S
C395 C387 1.378 . S
C395 C390 1.350 . S
C396 H383 0.929 . S
C396 C388 1.433 . S
C396 N398 1.384 . S
N397 C393 1.427 . S
N397 C394 1.384 . S
N398 C390 1.427 . S
N398 C396 1.384 . S
H399 C405 0.930 . S
H400 C409 0.930 1_655 S
H401 C414 0.930 . S
H402 C412 0.929 . S
H403 C407 0.929 1_655 S
H404 C413 0.929 . S
C405 H399 0.930 . S
C405 C406 1.367 . S
C405 C413 1.378 . S
C406 C405 1.367 . S
C406 C414 1.433 . S
C407 H403 0.929 1_455 S
C407 C409 1.378 . S
C407 C411 1.350 . S
C408 C411 1.463 . S
C408 C413 1.350 . S
C408 N416 1.427 . S
C409 H400 0.930 1_455 S
C409 C407 1.378 . S
C409 C410 1.367 . S
C410 C409 1.367 . S
C410 C412 1.433 . S
C411 C407 1.350 . S
C411 C408 1.463 . S
C411 N415 1.427 . S
C412 H402 0.929 . S
C412 C410 1.433 . S
C412 N415 1.384 . S
C413 H404 0.929 . S
C413 C405 1.378 . S
C413 C408 1.350 . S
C414 H401 0.930 . S
C414 C406 1.433 . S
C414 N416 1.384 . S
N415 C411 1.427 . S
N415 C412 1.384 . S
N416 C408 1.427 . S
N416 C414 1.384 . S
C212 C64 1.348 . S
C208 C11 1.335 . S
C226 C25 1.396 . S
C230 C134 1.412 . S
C244 C41 1.380 1_655 S
C248 C186 1.439 . S
C262 C7 1.374 1_565 S
C266 C80 1.371 . S
C284 C124 1.433 . S
C280 C21 1.428 . S
C298 C36 1.401 . S
C302 C170 1.459 . S
C320 C117 1.405 . S
C316 C39 1.390 . S
C334 C8 1.391 1_566 S
C338 C177 1.451 . S
C356 C71 1.508 . S
C352 C22 1.458 1_565 S
C374 C133 1.432 . S
C370 C35 1.432 . S
C392 C187 1.436 . S
C388 C13 1.385 1_556 S
C406 C27 1.440 . S
C410 C81 1.489 . S
