# Generated by pormake.
# Topology cml, (3,6)-cn, num edge types: 1
# Building blocks:
#     Node 0, Type 0, BuildingBlock: WUSLED_clean_sbu_0, # of connection points: 3
#     Node 1, Type 0, BuildingBlock: WUSLED_clean_sbu_0, # of connection points: 3
#     Node 2, Type 0, BuildingBlock: WUSLED_clean_sbu_0, # of connection points: 3
#     Node 3, Type 0, BuildingBlock: WUSLED_clean_sbu_0, # of connection points: 3
#     Node 4, Type 0, BuildingBlock: WUSLED_clean_sbu_0, # of connection points: 3
#     Node 5, Type 0, BuildingBlock: WUSLED_clean_sbu_0, # of connection points: 3
#     Node 6, Type 0, BuildingBlock: WUSLED_clean_sbu_0, # of connection points: 3
#     Node 7, Type 0, BuildingBlock: WUSLED_clean_sbu_0, # of connection points: 3
#     Node 8, Type 1, BuildingBlock: OJICUG_clean_sbu_0, # of connection points: 6
#     Node 9, Type 1, BuildingBlock: OJICUG_clean_sbu_0, # of connection points: 6
#     Node 10, Type 1, BuildingBlock: OJICUG_clean_sbu_0, # of connection points: 6
#     Node 11, Type 1, BuildingBlock: OJICUG_clean_sbu_0, # of connection points: 6
#     Edge 12, Type (0, 1), BuildingBlock: MIFKUJ_clean_linker_0, # of connection points: 2
#     Edge 13, Type (0, 1), BuildingBlock: MIFKUJ_clean_linker_0, # of connection points: 2
#     Edge 14, Type (0, 1), BuildingBlock: MIFKUJ_clean_linker_0, # of connection points: 2
#     Edge 15, Type (0, 1), BuildingBlock: MIFKUJ_clean_linker_0, # of connection points: 2
#     Edge 16, Type (0, 1), BuildingBlock: MIFKUJ_clean_linker_0, # of connection points: 2
#     Edge 17, Type (0, 1), BuildingBlock: MIFKUJ_clean_linker_0, # of connection points: 2
#     Edge 18, Type (0, 1), BuildingBlock: MIFKUJ_clean_linker_0, # of connection points: 2
#     Edge 19, Type (0, 1), BuildingBlock: MIFKUJ_clean_linker_0, # of connection points: 2
#     Edge 20, Type (0, 1), BuildingBlock: MIFKUJ_clean_linker_0, # of connection points: 2
#     Edge 21, Type (0, 1), BuildingBlock: MIFKUJ_clean_linker_0, # of connection points: 2
#     Edge 22, Type (0, 1), BuildingBlock: MIFKUJ_clean_linker_0, # of connection points: 2
#     Edge 23, Type (0, 1), BuildingBlock: MIFKUJ_clean_linker_0, # of connection points: 2
#     Edge 24, Type (0, 1), BuildingBlock: MIFKUJ_clean_linker_0, # of connection points: 2
#     Edge 25, Type (0, 1), BuildingBlock: MIFKUJ_clean_linker_0, # of connection points: 2
#     Edge 26, Type (0, 1), BuildingBlock: MIFKUJ_clean_linker_0, # of connection points: 2
#     Edge 27, Type (0, 1), BuildingBlock: MIFKUJ_clean_linker_0, # of connection points: 2
#     Edge 28, Type (0, 1), BuildingBlock: MIFKUJ_clean_linker_0, # of connection points: 2
#     Edge 29, Type (0, 1), BuildingBlock: MIFKUJ_clean_linker_0, # of connection points: 2
#     Edge 30, Type (0, 1), BuildingBlock: MIFKUJ_clean_linker_0, # of connection points: 2
#     Edge 31, Type (0, 1), BuildingBlock: MIFKUJ_clean_linker_0, # of connection points: 2
#     Edge 32, Type (0, 1), BuildingBlock: MIFKUJ_clean_linker_0, # of connection points: 2
#     Edge 33, Type (0, 1), BuildingBlock: MIFKUJ_clean_linker_0, # of connection points: 2
#     Edge 34, Type (0, 1), BuildingBlock: MIFKUJ_clean_linker_0, # of connection points: 2
#     Edge 35, Type (0, 1), BuildingBlock: MIFKUJ_clean_linker_0, # of connection points: 2
# Relax obj value: 0.069
# Max RMSD: 0.081
# Mean RMSD: 0.077
data_MOF--net-cml--node1-WUSLED_clean_sbu_0--node2-OJICUG_clean_sbu_0--edge1-MIFKUJ_clean_linker_0
_symmetry_space_group_name_H-M    P1
_symmetry_Int_Tables_number       1
_symmetry_cell_setting            triclinic
loop_
_symmetry_equiv_pos_as_xyz
'x, y, z'
_cell_length_a     61.718335
_cell_length_b     62.428321
_cell_length_c     58.725198
_cell_angle_alpha  90.324583
_cell_angle_beta   90.043831
_cell_angle_gamma 89.96965
loop_
_atom_site_label
_atom_site_type_symbol
_atom_site_fract_x
_atom_site_fract_y
_atom_site_fract_z
_atom_type_partial_charge
C0 C 0.29842 0.42516 0.95407 0.0
C1 C 0.30664 0.44058 0.96928 0.0
C2 C 0.32334 0.45988 0.93785 0.0
C3 C 0.31884 0.45782 0.96124 0.0
C4 C 0.315 0.44436 0.92269 0.0
C5 C 0.30264 0.42721 0.93074 0.0
U6 U 0.28836 0.3837 0.99973 0.0
O7 O 0.25817 0.37076 0.01399 0.0
O8 O 0.2814 0.34918 0.99729 0.0
C9 C 0.26209 0.35126 0.00648 0.0
C10 C 0.28616 0.40651 0.96243 0.0
C11 C 0.24422 0.34089 0.99402 0.0
C12 C 0.21877 0.33958 0.96239 0.0
C13 C 0.23596 0.34963 0.97382 0.0
C14 C 0.21809 0.31194 0.99117 0.0
C15 C 0.20955 0.32063 0.97098 0.0
C16 C 0.23522 0.32199 1.00255 0.0
C17 C 0.32606 0.38773 0.05241 0.0
C18 C 0.32706 0.36336 0.08457 0.0
C19 C 0.3506 0.3944 0.08395 0.0
C20 C 0.3421 0.40022 0.06284 0.0
C21 C 0.34318 0.37594 0.09514 0.0
C22 C 0.31852 0.36924 0.06335 0.0
C23 C 0.31788 0.39435 0.03002 0.0
O24 O 0.2973 0.38862 0.96382 0.0
O25 O 0.27376 0.41001 0.98027 0.0
O26 O 0.29833 0.40269 0.02965 0.0
O27 O 0.32158 0.38108 0.01301 0.0
H28 H 0.30373 0.43926 0.98741 0.0
H29 H 0.32466 0.46958 0.9734 0.0
H30 H 0.3184 0.44518 0.90463 0.0
H31 H 0.29661 0.41536 0.91877 0.0
H32 H 0.2125 0.34682 0.94702 0.0
H33 H 0.24274 0.36425 0.96699 0.0
H34 H 0.21169 0.29719 0.99807 0.0
H35 H 0.24147 0.31498 0.01807 0.0
H36 H 0.32092 0.34912 0.09279 0.0
H37 H 0.36328 0.40423 0.09132 0.0
H38 H 0.3482 0.41446 0.05456 0.0
H39 H 0.30611 0.35941 0.05548 0.0
C40 C 0.70779 0.65453 0.56317 0.0
C41 C 0.69265 0.63863 0.56864 0.0
C42 C 0.68265 0.65805 0.60317 0.0
C43 C 0.68022 0.64035 0.58844 0.0
C44 C 0.69786 0.67399 0.59757 0.0
C45 C 0.71034 0.67221 0.57773 0.0
U46 U 0.71981 0.62445 0.50893 0.0
O47 O 0.72617 0.63538 0.47404 0.0
O48 O 0.75048 0.61607 0.49193 0.0
C49 C 0.74585 0.62731 0.4737 0.0
C50 C 0.72063 0.65271 0.54216 0.0
C51 C 0.76305 0.64174 0.46571 0.0
C52 C 0.78307 0.67523 0.46797 0.0
C53 C 0.76675 0.66169 0.47613 0.0
C54 C 0.79222 0.64889 0.43908 0.0
C55 C 0.79597 0.66902 0.44927 0.0
C56 C 0.77591 0.63543 0.44722 0.0
C57 C 0.68479 0.5741 0.49861 0.0
C58 C 0.68173 0.55426 0.46302 0.0
C59 C 0.66414 0.54105 0.49703 0.0
C60 C 0.67214 0.55854 0.50935 0.0
C61 C 0.66866 0.53877 0.47367 0.0
C62 C 0.68978 0.57179 0.47542 0.0
C63 C 0.69181 0.59291 0.51184 0.0
O64 O 0.7337 0.63609 0.54123 0.0
O65 O 0.7096 0.6555 0.52325 0.0
O66 O 0.68714 0.61165 0.50299 0.0
O67 O 0.71141 0.59201 0.52054 0.0
H68 H 0.69038 0.62491 0.5575 0.0
H69 H 0.66844 0.62796 0.59201 0.0
H70 H 0.70028 0.68771 0.60865 0.0
H71 H 0.72196 0.68464 0.57375 0.0
H72 H 0.78536 0.69067 0.4761 0.0
H73 H 0.75696 0.66682 0.49046 0.0
H74 H 0.80205 0.6434 0.42494 0.0
H75 H 0.77335 0.62003 0.43905 0.0
H76 H 0.6857 0.55287 0.44511 0.0
H77 H 0.65387 0.52965 0.50571 0.0
H78 H 0.66808 0.56013 0.52723 0.0
H79 H 0.69961 0.58365 0.46687 0.0
C80 C 0.71126 0.43066 0.95937 0.0
C81 C 0.69716 0.44092 0.97467 0.0
C82 C 0.68589 0.46577 0.94506 0.0
C83 C 0.68467 0.45835 0.96762 0.0
C84 C 0.70027 0.45554 0.92988 0.0
C85 C 0.71284 0.43814 0.93699 0.0
U86 U 0.71911 0.38529 1.00078 0.0
O87 O 0.72612 0.35113 0.99517 0.0
O88 O 0.74847 0.37084 0.01545 0.0
C89 C 0.74488 0.35214 0.00575 0.0
C90 C 0.72351 0.41157 0.96639 0.0
C91 C 0.76331 0.34268 0.99342 0.0
C92 C 0.7883 0.34206 0.96143 0.0
C93 C 0.77093 0.35157 0.97305 0.0
C94 C 0.7906 0.31476 0.9905 0.0
C95 C 0.79836 0.32351 0.97003 0.0
C96 C 0.77326 0.32427 1.00206 0.0
C97 C 0.67793 0.38353 0.05045 0.0
C98 C 0.68062 0.36472 0.08652 0.0
C99 C 0.64607 0.37896 0.07415 0.0
C100 C 0.65576 0.38664 0.05434 0.0
C101 C 0.65837 0.368 0.09055 0.0
C102 C 0.69032 0.37236 0.06657 0.0
C103 C 0.68757 0.3927 0.02977 0.0
O104 O 0.73449 0.41356 0.98549 0.0
O105 O 0.71269 0.39349 0.965 0.0
O106 O 0.685 0.38151 0.01095 0.0
O107 O 0.70702 0.40107 0.03183 0.0
H108 H 0.69566 0.4353 0.99202 0.0
H109 H 0.67401 0.466 0.97985 0.0
H110 H 0.70141 0.4606 0.91231 0.0
H111 H 0.72351 0.43029 0.9249 0.0
H112 H 0.79399 0.34934 0.94585 0.0
H113 H 0.76342 0.36582 0.96615 0.0
H114 H 0.79768 0.30033 0.99743 0.0
H115 H 0.76751 0.31714 0.01771 0.0
H116 H 0.69049 0.35618 0.09874 0.0
H117 H 0.629 0.38209 0.07685 0.0
H118 H 0.64596 0.3953 0.04215 0.0
H119 H 0.70747 0.36971 0.06382 0.0
C120 C 0.29453 0.65022 0.56576 0.0
C121 C 0.30171 0.63174 0.57702 0.0
C122 C 0.31978 0.65362 0.60585 0.0
C123 C 0.31406 0.63342 0.59692 0.0
C124 C 0.31244 0.6721 0.59454 0.0
C125 C 0.29991 0.67039 0.57471 0.0
U126 U 0.28385 0.62115 0.51025 0.0
O127 O 0.2536 0.61318 0.49224 0.0
O128 O 0.27821 0.63299 0.47554 0.0
C129 C 0.25857 0.62489 0.47447 0.0
C130 C 0.28239 0.6486 0.54418 0.0
C131 C 0.24147 0.63947 0.46648 0.0
C132 C 0.22108 0.6727 0.46937 0.0
C133 C 0.23738 0.65908 0.47745 0.0
C134 C 0.21275 0.64715 0.43943 0.0
C135 C 0.20859 0.66693 0.4502 0.0
C136 C 0.22904 0.63359 0.44749 0.0
C137 C 0.31894 0.571 0.49921 0.0
C138 C 0.32416 0.55292 0.46284 0.0
C139 C 0.33822 0.53714 0.49744 0.0
C140 C 0.32997 0.55432 0.51006 0.0
C141 C 0.33561 0.53631 0.47365 0.0
C142 C 0.31583 0.57012 0.47554 0.0
C143 C 0.31174 0.58947 0.51288 0.0
O144 O 0.29393 0.65181 0.52572 0.0
O145 O 0.26915 0.63217 0.54234 0.0
O146 O 0.292 0.5884 0.52117 0.0
O147 O 0.31662 0.60844 0.50476 0.0
H148 H 0.29791 0.61596 0.57035 0.0
H149 H 0.31909 0.61883 0.6053 0.0
H150 H 0.31678 0.68791 0.60066 0.0
H151 H 0.29472 0.68484 0.56615 0.0
H152 H 0.21847 0.68789 0.47795 0.0
H153 H 0.24684 0.66386 0.49218 0.0
H154 H 0.20324 0.64198 0.4249 0.0
H155 H 0.23191 0.61845 0.43889 0.0
H156 H 0.3217 0.55265 0.44458 0.0
H157 H 0.34723 0.52482 0.50628 0.0
H158 H 0.33259 0.55478 0.52831 0.0
H159 H 0.30727 0.58285 0.46687 0.0
C160 C 0.79531 0.9277 0.95592 0.0
C161 C 0.80049 0.94462 0.97085 0.0
C162 C 0.82027 0.96286 0.9407 0.0
C163 C 0.8127 0.96205 0.96329 0.0
C164 C 0.81492 0.94592 0.92578 0.0
C165 C 0.80252 0.92859 0.93331 0.0
U166 U 0.78687 0.88411 0.99972 0.0
O167 O 0.75729 0.8703 0.01449 0.0
O168 O 0.78004 0.8497 0.99579 0.0
C169 C 0.76108 0.85119 0.00586 0.0
C170 C 0.78329 0.90868 0.96385 0.0
C171 C 0.74285 0.84121 0.99363 0.0
C172 C 0.71803 0.83955 0.96147 0.0
C173 C 0.7354 0.84938 0.97283 0.0
C174 C 0.71547 0.81335 0.99162 0.0
C175 C 0.70782 0.82142 0.97077 0.0
C176 C 0.73279 0.82317 0.00292 0.0
C177 C 0.82688 0.88587 0.0507 0.0
C178 C 0.82537 0.86485 0.08542 0.0
C179 C 0.85619 0.88784 0.07816 0.0
C180 C 0.84698 0.89403 0.05752 0.0
C181 C 0.84542 0.87337 0.09251 0.0
C182 C 0.81612 0.8711 0.06464 0.0
C183 C 0.81759 0.89344 0.02914 0.0
O184 O 0.79436 0.89069 0.96375 0.0
O185 O 0.77149 0.91126 0.98231 0.0
O186 O 0.79799 0.90163 0.03015 0.0
O187 O 0.82066 0.88104 0.01128 0.0
H188 H 0.79526 0.94434 0.98845 0.0
H189 H 0.81617 0.9749 0.97519 0.0
H190 H 0.82071 0.94576 0.90838 0.0
H191 H 0.79887 0.91565 0.92154 0.0
H192 H 0.71244 0.8463 0.94557 0.0
H193 H 0.74298 0.86335 0.96543 0.0
H194 H 0.70826 0.79922 0.9991 0.0
H195 H 0.7384 0.8166 0.01892 0.0
H196 H 0.81665 0.85372 0.09612 0.0
H197 H 0.87184 0.89436 0.08283 0.0
H198 H 0.85557 0.90534 0.04688 0.0
H199 H 0.80056 0.86461 0.05957 0.0
C200 C 0.21261 0.15062 0.56827 0.0
C201 C 0.2051 0.13209 0.5792 0.0
C202 C 0.18618 0.15387 0.6075 0.0
C203 C 0.19217 0.1337 0.59868 0.0
C204 C 0.19394 0.17239 0.5966 0.0
C205 C 0.20705 0.17075 0.57721 0.0
U206 U 0.22209 0.12367 0.51138 0.0
O207 O 0.2289 0.1369 0.47747 0.0
O208 O 0.25183 0.11448 0.49313 0.0
C209 C 0.24787 0.12742 0.47603 0.0
C210 C 0.2251 0.14913 0.54689 0.0
C211 C 0.26599 0.14112 0.46889 0.0
C212 C 0.29278 0.16878 0.47659 0.0
C213 C 0.27557 0.1559 0.48391 0.0
C214 C 0.2909 0.15224 0.43923 0.0
C215 C 0.30068 0.16709 0.45414 0.0
C216 C 0.27375 0.1394 0.44656 0.0
C217 C 0.18257 0.07734 0.49676 0.0
C218 C 0.18598 0.04415 0.47506 0.0
C219 C 0.15074 0.06061 0.47999 0.0
C220 C 0.16018 0.07711 0.49268 0.0
C221 C 0.16347 0.04383 0.47117 0.0
C222 C 0.19547 0.06079 0.48769 0.0
C223 C 0.19158 0.09437 0.51154 0.0
O224 O 0.23707 0.13184 0.54429 0.0
O225 O 0.21426 0.15423 0.52842 0.0
O226 O 0.18834 0.11412 0.50472 0.0
O227 O 0.21102 0.09125 0.52011 0.0
H228 H 0.20899 0.11633 0.57255 0.0
H229 H 0.18684 0.11909 0.60677 0.0
H230 H 0.18944 0.18818 0.60266 0.0
H231 H 0.21249 0.18524 0.56892 0.0
H232 H 0.30005 0.17988 0.4886 0.0
H233 H 0.26976 0.15744 0.50124 0.0
H234 H 0.29626 0.15075 0.42174 0.0
H235 H 0.26647 0.12814 0.43471 0.0
H236 H 0.19623 0.03154 0.46832 0.0
H237 H 0.13333 0.06069 0.47763 0.0
H238 H 0.14988 0.08958 0.49968 0.0
H239 H 0.2128 0.06056 0.49055 0.0
C240 C 0.2067 0.92613 0.95612 0.0
C241 C 0.18957 0.93393 0.96949 0.0
C242 C 0.18145 0.96097 0.94095 0.0
C243 C 0.17706 0.95118 0.96198 0.0
C244 C 0.1987 0.95306 0.92764 0.0
C245 C 0.21122 0.93579 0.93519 0.0
U246 U 0.21886 0.88506 1.00134 0.0
O247 O 0.22684 0.8508 0.99895 0.0
O248 O 0.24986 0.8731 0.0149 0.0
C249 C 0.24636 0.85349 0.00751 0.0
C250 C 0.21979 0.90794 0.96401 0.0
C251 C 0.26423 0.84361 0.99458 0.0
C252 C 0.28287 0.83611 0.95892 0.0
C253 C 0.26597 0.84605 0.9709 0.0
C254 C 0.29667 0.82155 0.99423 0.0
C255 C 0.29842 0.82371 0.97046 0.0
C256 C 0.27973 0.83139 0.00614 0.0
C257 C 0.1823 0.88787 0.05487 0.0
C258 C 0.17875 0.86106 0.08451 0.0
C259 C 0.16153 0.89571 0.08899 0.0
C260 C 0.16968 0.90198 0.06789 0.0
C261 C 0.16585 0.87514 0.09755 0.0
C262 C 0.18696 0.8674 0.06333 0.0
C263 C 0.18971 0.89483 0.03229 0.0
O264 O 0.23214 0.91197 0.98176 0.0
O265 O 0.2093 0.88969 0.96561 0.0
O266 O 0.18603 0.88155 0.01528 0.0
O267 O 0.20896 0.90378 0.0315 0.0
H268 H 0.18583 0.92661 0.9857 0.0
H269 H 0.16373 0.95663 0.9725 0.0
H270 H 0.20268 0.96037 0.91149 0.0
H271 H 0.22443 0.92999 0.92469 0.0
H272 H 0.28388 0.83828 0.94067 0.0
H273 H 0.25422 0.85556 0.96168 0.0
H274 H 0.30818 0.81189 0.0036 0.0
H275 H 0.27864 0.82931 0.02441 0.0
H276 H 0.18253 0.84518 0.0907 0.0
H277 H 0.15138 0.90685 0.09835 0.0
H278 H 0.16585 0.91781 0.06156 0.0
H279 H 0.19675 0.8563 0.0535 0.0
C280 C 0.79791 0.15489 0.56326 0.0
C281 C 0.81741 0.14351 0.56545 0.0
C282 C 0.82379 0.15991 0.60258 0.0
C283 C 0.83025 0.14604 0.58488 0.0
C284 C 0.80409 0.17111 0.60042 0.0
C285 C 0.79129 0.16864 0.58087 0.0
U286 U 0.78651 0.12436 0.50914 0.0
O287 O 0.75618 0.11427 0.4926 0.0
O288 O 0.77885 0.1352 0.47442 0.0
C289 C 0.75966 0.12608 0.47448 0.0
C290 C 0.78457 0.15225 0.54266 0.0
C291 C 0.7415 0.13968 0.46696 0.0
C292 C 0.71061 0.16278 0.47492 0.0
C293 C 0.72797 0.15027 0.4826 0.0
C294 C 0.72036 0.15455 0.43589 0.0
C295 C 0.70653 0.16503 0.45144 0.0
C296 C 0.7376 0.14199 0.4436 0.0
C297 C 0.82519 0.07641 0.49833 0.0
C298 C 0.83083 0.05691 0.46286 0.0
C299 C 0.84789 0.04467 0.49762 0.0
C300 C 0.83832 0.06156 0.5096 0.0
C301 C 0.84454 0.0423 0.47404 0.0
C302 C 0.82124 0.07389 0.47493 0.0
C303 C 0.81671 0.09477 0.51135 0.0
O304 O 0.79474 0.15595 0.52341 0.0
O305 O 0.77273 0.13477 0.54199 0.0
O306 O 0.79735 0.09245 0.52028 0.0
O307 O 0.81986 0.11377 0.50241 0.0
H308 H 0.82269 0.13266 0.5521 0.0
H309 H 0.84512 0.13691 0.58617 0.0
H310 H 0.79874 0.18199 0.6137 0.0
H311 H 0.77625 0.17751 0.57947 0.0
H312 H 0.70022 0.17041 0.48739 0.0
H313 H 0.73074 0.14876 0.50074 0.0
H314 H 0.71802 0.15623 0.41771 0.0
H315 H 0.74794 0.13406 0.43125 0.0
H316 H 0.82801 0.05559 0.44471 0.0
H317 H 0.858 0.03348 0.50683 0.0
H318 H 0.84146 0.06322 0.52769 0.0
H319 H 0.8111 0.08523 0.46596 0.0
Sc320 Sc 1.00324 0.81125 0.32413 0.0
Sc321 Sc 1.00342 0.86771 0.32588 0.0
Sc322 Sc 1.00315 0.83863 0.37703 0.0
O323 O 1.00328 0.83917 0.34234 0.0
C324 C 0.97056 0.80043 0.36491 0.0
C325 C 0.97203 0.83992 0.29368 0.0
C326 C 0.97027 0.87712 0.36621 0.0
C327 C 0.03633 0.84038 0.29565 0.0
C328 C 0.03567 0.80022 0.36507 0.0
C329 C 0.03453 0.87816 0.3682 0.0
O330 O 0.97818 0.79711 0.34505 0.0
O331 O 0.98011 0.8574 0.30088 0.0
O332 O 0.97842 0.86312 0.37939 0.0
O333 O 0.02801 0.8224 0.30091 0.0
O334 O 0.02782 0.81421 0.37858 0.0
O335 O 0.02663 0.88212 0.34869 0.0
O336 O 0.02869 0.79749 0.34485 0.0
O337 O 0.02978 0.85807 0.30406 0.0
O338 O 0.02849 0.86233 0.38015 0.0
O339 O 0.97802 0.82175 0.3011 0.0
O340 O 0.97783 0.81492 0.37815 0.0
O341 O 0.97708 0.88013 0.34603 0.0
Sc342 Sc 1.00318 0.1923 0.82495 0.0
Sc343 Sc 1.00122 0.13588 0.82301 0.0
Sc344 Sc 1.0021 0.16257 0.87607 0.0
O345 O 1.00217 0.1636 0.84135 0.0
C346 C 0.03538 0.20084 0.86685 0.0
C347 C 0.03463 0.16389 0.79392 0.0
C348 C 0.03365 0.1236 0.86347 0.0
C349 C 0.96993 0.16572 0.79374 0.0
C350 C 0.97044 0.20207 0.86605 0.0
C351 C 0.96888 0.12493 0.86382 0.0
O352 O 0.02839 0.20488 0.84694 0.0
O353 O 0.02617 0.1462 0.79985 0.0
O354 O 0.02666 0.13791 0.87713 0.0
O355 O 0.97825 0.18323 0.80073 0.0
O356 O 0.97761 0.18716 0.8787 0.0
O357 O 0.97597 0.12227 0.84369 0.0
O358 O 0.9779 0.20574 0.84623 0.0
O359 O 0.97629 0.14752 0.80066 0.0
O360 O 0.97668 0.1388 0.87749 0.0
O361 O 0.02843 0.18188 0.80188 0.0
O362 O 0.02748 0.18609 0.87917 0.0
O363 O 0.02611 0.12111 0.84345 0.0
Sc364 Sc 0.50297 0.31175 0.32476 0.0
Sc365 Sc 0.50413 0.36833 0.32617 0.0
Sc366 Sc 0.50388 0.3395 0.37744 0.0
O367 O 0.50366 0.33983 0.34277 0.0
C368 C 0.47062 0.30166 0.36594 0.0
C369 C 0.47114 0.3412 0.29535 0.0
C370 C 0.47216 0.3789 0.3675 0.0
C371 C 0.53554 0.33995 0.2949 0.0
C372 C 0.53556 0.30038 0.36543 0.0
C373 C 0.53681 0.3778 0.36726 0.0
O374 O 0.47795 0.29809 0.34601 0.0
O375 O 0.47902 0.35867 0.30289 0.0
O376 O 0.47931 0.364 0.38016 0.0
O377 O 0.52786 0.32203 0.30128 0.0
O378 O 0.52844 0.31493 0.37871 0.0
O379 O 0.52932 0.3814 0.34747 0.0
O380 O 0.52804 0.29737 0.34546 0.0
O381 O 0.52877 0.35778 0.30272 0.0
O382 O 0.52945 0.36307 0.37998 0.0
O383 O 0.47789 0.32292 0.3018 0.0
O384 O 0.47824 0.31613 0.379 0.0
O385 O 0.47948 0.3823 0.34761 0.0
Sc386 Sc 0.50227 0.69209 0.82448 0.0
Sc387 Sc 0.50336 0.63574 0.82156 0.0
Sc388 Sc 0.50241 0.66152 0.87497 0.0
O389 O 0.50269 0.66314 0.84034 0.0
C390 C 0.53426 0.70125 0.86608 0.0
C391 C 0.53554 0.66521 0.79338 0.0
C392 C 0.53537 0.62401 0.86279 0.0
C393 C 0.47097 0.66494 0.79236 0.0
C394 C 0.46931 0.69982 0.8661 0.0
C395 C 0.47064 0.62298 0.86101 0.0
O396 O 0.52809 0.70452 0.8457 0.0
O397 O 0.52954 0.64701 0.80066 0.0
O398 O 0.52878 0.63882 0.87603 0.0
O399 O 0.47647 0.68264 0.80154 0.0
O400 O 0.47602 0.68399 0.87769 0.0
O401 O 0.47705 0.62177 0.84046 0.0
O402 O 0.47769 0.70501 0.84709 0.0
O403 O 0.47982 0.64721 0.79745 0.0
O404 O 0.47888 0.63585 0.8755 0.0
O405 O 0.5267 0.68267 0.79982 0.0
O406 O 0.52593 0.68692 0.87867 0.0
O407 O 0.5272 0.62076 0.84318 0.0
H408 H 0.17379 0.30192 0.98999 0.0
H409 H 0.14466 0.28255 0.9707 0.0
H410 H 0.17405 0.2958 0.90571 0.0
H411 H 0.20352 0.31502 0.92493 0.0
H412 H 0.12933 0.3012 0.90514 0.0
H413 H 0.18049 0.24751 0.92876 0.0
H414 H 0.20383 0.22878 0.95634 0.0
H415 H 0.14811 0.21305 0.99665 0.0
H416 H 0.12446 0.23195 0.96947 0.0
H417 H 0.06504 0.22525 0.84376 0.0
H418 H 0.0949 0.24627 0.85979 0.0
H419 H 0.07559 0.22779 0.92751 0.0
H420 H 0.04637 0.20612 0.91157 0.0
H421 H 0.11674 0.22508 0.92498 0.0
H422 H 0.06552 0.27945 0.90353 0.0
H423 H 0.04138 0.29905 0.87742 0.0
H424 H 0.09562 0.31441 0.83478 0.0
H425 H 0.12005 0.29466 0.8605 0.0
C426 C 0.17419 0.30062 0.9716 0.0
C427 C 0.19117 0.30985 0.95905 0.0
C428 C 0.15745 0.2896 0.96059 0.0
C429 C 0.15732 0.28748 0.93678 0.0
C430 C 0.17384 0.29723 0.9241 0.0
C431 C 0.19064 0.30826 0.93512 0.0
C432 C 0.14023 0.27458 0.92527 0.0
C433 C 0.12673 0.28447 0.90921 0.0
C434 C 0.13656 0.25289 0.93095 0.0
C435 C 0.15073 0.24129 0.94717 0.0
C436 C 0.17323 0.24017 0.94358 0.0
C437 C 0.18652 0.22951 0.95913 0.0
C438 C 0.17747 0.21977 0.97826 0.0
C439 C 0.1551 0.22061 0.98184 0.0
C440 C 0.14175 0.23128 0.96635 0.0
C441 C 0.06714 0.22572 0.86207 0.0
C442 C 0.05331 0.21399 0.87637 0.0
C443 C 0.08417 0.23785 0.87124 0.0
C444 C 0.0874 0.23892 0.89494 0.0
C445 C 0.07353 0.22723 0.90919 0.0
C446 C 0.05678 0.21485 0.90003 0.0
C447 C 0.10545 0.25174 0.90502 0.0
C448 C 0.11926 0.2418 0.9208 0.0
C449 C 0.10921 0.27345 0.89925 0.0
C450 C 0.09457 0.28539 0.88381 0.0
C451 C 0.07227 0.28687 0.8885 0.0
C452 C 0.05854 0.29803 0.87379 0.0
C453 C 0.06695 0.30791 0.85442 0.0
C454 C 0.08912 0.30672 0.84977 0.0
C455 C 0.10292 0.29556 0.86442 0.0
H456 H 0.0563 0.31654 0.84305 0.0
H457 H 0.18778 0.21153 0.99029 0.0
H458 H 0.80679 0.67646 0.40473 0.0
H459 H 0.83599 0.69891 0.39014 0.0
H460 H 0.85339 0.71687 0.45876 0.0
H461 H 0.82436 0.69419 0.47356 0.0
H462 H 0.85307 0.75134 0.43018 0.0
H463 H 0.88299 0.68007 0.43006 0.0
H464 H 0.88376 0.64155 0.42052 0.0
H465 H 0.88343 0.65643 0.34922 0.0
H466 H 0.88235 0.69505 0.35834 0.0
H467 H 0.95593 0.79617 0.40861 0.0
H468 H 0.92604 0.77419 0.42221 0.0
H469 H 0.91368 0.75236 0.35359 0.0
H470 H 0.94409 0.77387 0.33989 0.0
H471 H 0.91077 0.72002 0.3815 0.0
H472 H 0.88131 0.79093 0.3808 0.0
H473 H 0.88011 0.82958 0.38958 0.0
H474 H 0.87865 0.81589 0.46113 0.0
H475 H 0.88016 0.77713 0.45279 0.0
C476 C 0.81693 0.68502 0.41677 0.0
C477 C 0.81329 0.68335 0.44036 0.0
C478 C 0.83359 0.69791 0.40838 0.0
C479 C 0.84706 0.70938 0.42336 0.0
C480 C 0.8432 0.70816 0.44688 0.0
C481 C 0.82653 0.69524 0.45531 0.0
C482 C 0.86526 0.72251 0.41451 0.0
C483 C 0.86584 0.74446 0.41977 0.0
C484 C 0.8816 0.71365 0.40039 0.0
C485 C 0.88238 0.69044 0.39489 0.0
C486 C 0.88292 0.67512 0.41235 0.0
C487 C 0.88343 0.65327 0.40702 0.0
C488 C 0.88358 0.64655 0.38428 0.0
C489 C 0.88328 0.66167 0.36683 0.0
C490 C 0.88274 0.68354 0.37206 0.0
C491 C 0.94686 0.78674 0.39635 0.0
C492 C 0.95239 0.7869 0.3731 0.0
C493 C 0.92966 0.77423 0.40417 0.0
C494 C 0.91729 0.76189 0.3889 0.0
C495 C 0.92292 0.76179 0.36571 0.0
C496 C 0.94031 0.77413 0.35789 0.0
C497 C 0.89867 0.74892 0.3972 0.0
C498 C 0.89799 0.72698 0.39184 0.0
C499 C 0.88215 0.75783 0.41109 0.0
C500 C 0.88104 0.78112 0.41616 0.0
C501 C 0.88088 0.79616 0.39841 0.0
C502 C 0.88012 0.81809 0.40331 0.0
C503 C 0.87935 0.82519 0.4259 0.0
C504 C 0.87927 0.81036 0.44364 0.0
C505 C 0.88005 0.78841 0.43884 0.0
H506 H 0.87878 0.84217 0.42966 0.0
H507 H 0.88398 0.62963 0.38019 0.0
H508 H 0.80308 0.31735 0.92394 0.0
H509 H 0.83264 0.29907 0.90402 0.0
H510 H 0.86432 0.28724 0.96823 0.0
H511 H 0.83528 0.30616 0.98816 0.0
H512 H 0.89326 0.29879 0.93726 0.0
H513 H 0.83471 0.24823 0.94076 0.0
H514 H 0.79742 0.23517 0.93482 0.0
H515 H 0.80446 0.24301 0.86261 0.0
H516 H 0.84172 0.2564 0.86815 0.0
H517 H 0.95953 0.20913 0.91052 0.0
H518 H 0.93071 0.23211 0.92544 0.0
H519 H 0.9123 0.24905 0.85704 0.0
H520 H 0.94142 0.22631 0.84188 0.0
H521 H 0.87687 0.23671 0.88698 0.0
H522 H 0.9371 0.28486 0.88423 0.0
H523 H 0.97471 0.29645 0.8912 0.0
H524 H 0.96467 0.29167 0.96334 0.0
H525 H 0.92707 0.27971 0.95678 0.0
C526 C 0.81648 0.31113 0.93381 0.0
C527 C 0.8167 0.31312 0.95769 0.0
C528 C 0.83328 0.30048 0.9224 0.0
C529 C 0.85058 0.29149 0.93464 0.0
C530 C 0.85112 0.29395 0.95841 0.0
C531 C 0.83438 0.30461 0.96981 0.0
C532 C 0.86796 0.27917 0.92284 0.0
C533 C 0.88965 0.28512 0.92642 0.0
C534 C 0.8633 0.26158 0.90827 0.0
C535 C 0.8409 0.25356 0.90489 0.0
C536 C 0.82824 0.24735 0.92363 0.0
C537 C 0.80712 0.23985 0.92033 0.0
C538 C 0.79855 0.23833 0.89836 0.0
C539 C 0.8111 0.24424 0.87962 0.0
C540 C 0.83222 0.25178 0.88283 0.0
C541 C 0.94937 0.21771 0.89861 0.0
C542 C 0.95281 0.2159 0.87499 0.0
C543 C 0.93295 0.2309 0.90718 0.0
C544 C 0.91946 0.24234 0.89235 0.0
C545 C 0.92259 0.24037 0.86876 0.0
C546 C 0.93927 0.22744 0.86015 0.0
C547 C 0.90204 0.25622 0.90166 0.0
C548 C 0.8804 0.25053 0.89763 0.0
C549 C 0.90674 0.27392 0.91597 0.0
C550 C 0.92932 0.28119 0.92 0.0
C551 C 0.94296 0.28609 0.90158 0.0
C552 C 0.96427 0.29276 0.90545 0.0
C553 C 0.97209 0.29474 0.9277 0.0
C554 C 0.9586 0.2901 0.94611 0.0
C555 C 0.93727 0.28339 0.94233 0.0
H556 H 0.9886 0.29992 0.93066 0.0
H557 H 0.7822 0.23251 0.89584 0.0
H558 H 0.19837 0.67546 0.40571 0.0
H559 H 0.16924 0.6981 0.39127 0.0
H560 H 0.15084 0.71436 0.46007 0.0
H561 H 0.17944 0.69102 0.4747 0.0
H562 H 0.11593 0.70568 0.43531 0.0
H563 H 0.17858 0.74986 0.42608 0.0
H564 H 0.2155 0.75897 0.41339 0.0
H565 H 0.19652 0.74941 0.34372 0.0
H566 H 0.15954 0.73995 0.35601 0.0
H567 H 0.04963 0.79531 0.409 0.0
H568 H 0.07904 0.77267 0.42285 0.0
H569 H 0.09208 0.75142 0.35423 0.0
H570 H 0.06256 0.77402 0.34013 0.0
H571 H 0.12956 0.76268 0.37855 0.0
H572 H 0.06655 0.71873 0.38848 0.0
H573 H 0.02963 0.71039 0.40175 0.0
H574 H 0.04955 0.72053 0.47105 0.0
H575 H 0.08654 0.72925 0.45815 0.0
C576 C 0.18804 0.68371 0.41781 0.0
C577 C 0.19128 0.68137 0.4414 0.0
C578 C 0.17152 0.69685 0.4095 0.0
C579 C 0.15797 0.70816 0.42456 0.0
C580 C 0.16112 0.70586 0.44811 0.0
C581 C 0.17763 0.69265 0.45645 0.0
C582 C 0.14028 0.72205 0.41573 0.0
C583 C 0.11899 0.71834 0.42315 0.0
C584 C 0.14413 0.73829 0.39945 0.0
C585 C 0.16635 0.74399 0.39199 0.0
C586 C 0.18233 0.74953 0.40806 0.0
C587 C 0.20326 0.75479 0.40094 0.0
C588 C 0.20837 0.75471 0.37777 0.0
C589 C 0.19254 0.74943 0.36166 0.0
C590 C 0.17159 0.74414 0.3687 0.0
C591 C 0.05872 0.78585 0.39679 0.0
C592 C 0.05364 0.78647 0.37342 0.0
C593 C 0.0755 0.77285 0.40478 0.0
C594 C 0.08764 0.76024 0.3896 0.0
C595 C 0.08287 0.76101 0.36624 0.0
C596 C 0.06593 0.77387 0.35823 0.0
C597 C 0.10533 0.7463 0.39819 0.0
C598 C 0.12657 0.75001 0.39071 0.0
C599 C 0.10147 0.73016 0.41451 0.0
C600 C 0.07926 0.72486 0.42233 0.0
C601 C 0.06301 0.71937 0.40653 0.0
C602 C 0.04208 0.71454 0.41399 0.0
C603 C 0.03723 0.71499 0.43722 0.0
C604 C 0.05332 0.72022 0.45305 0.0
C605 C 0.07428 0.72509 0.44568 0.0
H606 H 0.02102 0.71124 0.44296 0.0
H607 H 0.22458 0.7588 0.37229 0.0
H608 H 0.67072 0.80516 0.98951 0.0
H609 H 0.6415 0.78583 0.97031 0.0
H610 H 0.67355 0.7944 0.90579 0.0
H611 H 0.70305 0.81361 0.92493 0.0
H612 H 0.62935 0.80118 0.90288 0.0
H613 H 0.67731 0.74723 0.93247 0.0
H614 H 0.6987 0.7293 0.9623 0.0
H615 H 0.64075 0.71803 1.00083 0.0
H616 H 0.61905 0.73616 0.97137 0.0
H617 H 0.56547 0.72381 0.84317 0.0
H618 H 0.59506 0.74499 0.85947 0.0
H619 H 0.57197 0.73087 0.9271 0.0
H620 H 0.54302 0.70898 0.91094 0.0
H621 H 0.61301 0.72691 0.92704 0.0
H622 H 0.56486 0.78149 0.89927 0.0
H623 H 0.54274 0.80023 0.8706 0.0
H624 H 0.5995 0.81125 0.83009 0.0
H625 H 0.62192 0.79234 0.85839 0.0
C626 C 0.67166 0.80285 0.97125 0.0
C627 C 0.68939 0.81076 0.95882 0.0
C628 C 0.65488 0.79185 0.96028 0.0
C629 C 0.65548 0.7884 0.93665 0.0
C630 C 0.67276 0.79686 0.92404 0.0
C631 C 0.68959 0.80788 0.93502 0.0
C632 C 0.63833 0.77548 0.92527 0.0
C633 C 0.62592 0.78484 0.90793 0.0
C634 C 0.63357 0.75432 0.93218 0.0
C635 C 0.64658 0.74321 0.9498 0.0
C636 C 0.66915 0.74105 0.94738 0.0
C637 C 0.68133 0.73083 0.96421 0.0
C638 C 0.6711 0.72257 0.98347 0.0
C639 C 0.64866 0.72445 0.98591 0.0
C640 C 0.63641 0.73468 0.96914 0.0
C641 C 0.56666 0.7253 0.86152 0.0
C642 C 0.55187 0.71469 0.87575 0.0
C643 C 0.58354 0.73753 0.87084 0.0
C644 C 0.58566 0.73985 0.89458 0.0
C645 C 0.57079 0.72934 0.90876 0.0
C646 C 0.55419 0.71683 0.89948 0.0
C647 C 0.60363 0.75268 0.90481 0.0
C648 C 0.61632 0.74325 0.92191 0.0
C649 C 0.60846 0.77385 0.89782 0.0
C650 C 0.59502 0.78531 0.88084 0.0
C651 C 0.57259 0.78778 0.88417 0.0
C652 C 0.56001 0.79845 0.868 0.0
C653 C 0.5697 0.80687 0.84851 0.0
C654 C 0.59201 0.80469 0.84518 0.0
C655 C 0.60466 0.79402 0.86129 0.0
H656 H 0.55993 0.81512 0.836 0.0
H657 H 0.68056 0.71467 0.99649 0.0
H658 H 0.30804 0.20958 0.46367 0.0
H659 H 0.33721 0.23229 0.44939 0.0
H660 H 0.36321 0.17878 0.41148 0.0
H661 H 0.33461 0.15576 0.42642 0.0
H662 H 0.39518 0.20083 0.43043 0.0
H663 H 0.33296 0.21784 0.38543 0.0
H664 H 0.29515 0.2286 0.37812 0.0
H665 H 0.30642 0.28881 0.41179 0.0
H666 H 0.34424 0.27828 0.41958 0.0
H667 H 0.45901 0.26135 0.3519 0.0
H668 H 0.43034 0.2386 0.36753 0.0
H669 H 0.41288 0.2887 0.41489 0.0
H670 H 0.44172 0.31142 0.39969 0.0
H671 H 0.3769 0.26863 0.39106 0.0
H672 H 0.43998 0.25073 0.43534 0.0
H673 H 0.47799 0.23962 0.44066 0.0
H674 H 0.46501 0.18029 0.40592 0.0
H675 H 0.42698 0.19121 0.40006 0.0
C676 C 0.32012 0.20255 0.45255 0.0
C677 C 0.31886 0.18084 0.4461 0.0
C678 C 0.33668 0.21563 0.44419 0.0
C679 C 0.35224 0.20735 0.42905 0.0
C680 C 0.35134 0.18558 0.42304 0.0
C681 C 0.33484 0.17248 0.43144 0.0
C682 C 0.36927 0.22143 0.41924 0.0
C683 C 0.39113 0.21551 0.42159 0.0
C684 C 0.36409 0.24078 0.40795 0.0
C685 C 0.34136 0.24717 0.4033 0.0
C686 C 0.32732 0.2333 0.39144 0.0
C687 C 0.3059 0.23938 0.38718 0.0
C688 C 0.29837 0.25935 0.39454 0.0
C689 C 0.31227 0.27333 0.40613 0.0
C690 C 0.3337 0.26732 0.41046 0.0
C691 C 0.449 0.26757 0.36556 0.0
C692 C 0.45269 0.28817 0.3746 0.0
C693 C 0.4327 0.25453 0.37452 0.0
C694 C 0.41959 0.26196 0.39242 0.0
C695 C 0.42285 0.28268 0.40109 0.0
C696 C 0.43939 0.29559 0.39243 0.0
C697 C 0.40265 0.24799 0.40232 0.0
C698 C 0.38086 0.25394 0.39994 0.0
C699 C 0.40788 0.22859 0.41337 0.0
C700 C 0.43069 0.2219 0.41703 0.0
C701 C 0.44528 0.2354 0.42864 0.0
C702 C 0.46682 0.22912 0.43179 0.0
C703 C 0.47393 0.20929 0.42357 0.0
C704 C 0.45949 0.19567 0.41224 0.0
C705 C 0.43794 0.20189 0.40901 0.0
H706 H 0.49061 0.20446 0.42603 0.0
H707 H 0.28178 0.26403 0.39122 0.0
H708 H 0.29586 0.80188 0.92989 0.0
H709 H 0.32473 0.78221 0.91028 0.0
H710 H 0.36984 0.80051 0.96301 0.0
H711 H 0.3412 0.82059 0.98244 0.0
H712 H 0.3884 0.80309 0.92127 0.0
H713 H 0.34695 0.7517 0.96362 0.0
H714 H 0.31371 0.7329 0.97544 0.0
H715 H 0.30332 0.71149 0.90668 0.0
H716 H 0.33637 0.73042 0.89439 0.0
H717 H 0.4471 0.6939 0.90596 0.0
H718 H 0.41813 0.71592 0.92185 0.0
H719 H 0.42096 0.75728 0.86336 0.0
H720 H 0.45025 0.73548 0.84738 0.0
H721 H 0.37836 0.72522 0.90756 0.0
H722 H 0.40913 0.80866 0.88085 0.0
H723 H 0.44364 0.8268 0.87212 0.0
H724 H 0.47778 0.78283 0.91519 0.0
H725 H 0.44346 0.76463 0.92441 0.0
C726 C 0.312 0.80198 0.93715 0.0
C727 C 0.31618 0.8127 0.95783 0.0
C728 C 0.32845 0.7906 0.92599 0.0
C729 C 0.3494 0.78969 0.9353 0.0
C730 C 0.35379 0.80094 0.95554 0.0
C731 C 0.33735 0.81225 0.96673 0.0
C732 C 0.36657 0.77637 0.92446 0.0
C733 C 0.38616 0.78609 0.91815 0.0
C734 C 0.36381 0.75412 0.92069 0.0
C735 C 0.34399 0.74266 0.92805 0.0
C736 C 0.33748 0.74312 0.95099 0.0
C737 C 0.3187 0.73242 0.95778 0.0
C738 C 0.30638 0.72106 0.94181 0.0
C739 C 0.31286 0.72033 0.91902 0.0
C740 C 0.33162 0.73103 0.91214 0.0
C741 C 0.44162 0.70766 0.89639 0.0
C742 C 0.45118 0.71293 0.87539 0.0
C743 C 0.42495 0.7202 0.9055 0.0
C744 C 0.41746 0.73837 0.89392 0.0
C745 C 0.42666 0.74351 0.87277 0.0
C746 C 0.44338 0.73096 0.86362 0.0
C747 C 0.40017 0.75194 0.9042 0.0
C748 C 0.38054 0.74226 0.91042 0.0
C749 C 0.40306 0.77415 0.90825 0.0
C750 C 0.42376 0.78515 0.9031 0.0
C751 C 0.424 0.80292 0.88851 0.0
C752 C 0.44352 0.8132 0.88347 0.0
C753 C 0.4629 0.80592 0.89303 0.0
C754 C 0.46278 0.7884 0.90773 0.0
C755 C 0.4433 0.77808 0.91284 0.0
H756 H 0.478 0.81389 0.88909 0.0
H757 H 0.29184 0.71278 0.9471 0.0
H758 H 0.67952 0.15676 0.41528 0.0
H759 H 0.65018 0.1791 0.40067 0.0
H760 H 0.66166 0.22525 0.45421 0.0
H761 H 0.69141 0.20326 0.46868 0.0
H762 H 0.61774 0.21644 0.44765 0.0
H763 H 0.68 0.23503 0.40203 0.0
H764 H 0.71098 0.22722 0.37682 0.0
H765 H 0.66796 0.19971 0.32717 0.0
H766 H 0.63674 0.20709 0.35224 0.0
H767 H 0.55935 0.30456 0.40462 0.0
H768 H 0.58758 0.28082 0.41887 0.0
H769 H 0.5797 0.23989 0.36003 0.0
H770 H 0.55169 0.26386 0.34532 0.0
H771 H 0.62118 0.24482 0.36897 0.0
H772 H 0.55907 0.22593 0.41256 0.0
H773 H 0.52722 0.23207 0.43708 0.0
H774 H 0.56831 0.25767 0.48962 0.0
H775 H 0.60039 0.25195 0.46528 0.0
C776 C 0.67599 0.17176 0.42386 0.0
C777 C 0.68802 0.17825 0.44309 0.0
C778 C 0.65912 0.18446 0.41553 0.0
C779 C 0.65386 0.20394 0.42622 0.0
C780 C 0.66543 0.21025 0.44572 0.0
C781 C 0.68239 0.1976 0.45401 0.0
C782 C 0.63653 0.21789 0.41684 0.0
C783 C 0.6186 0.22288 0.43055 0.0
C784 C 0.63732 0.22571 0.39427 0.0
C785 C 0.65607 0.22143 0.37911 0.0
C786 C 0.67717 0.22717 0.38581 0.0
C787 C 0.69477 0.22285 0.37153 0.0
C788 C 0.69145 0.21293 0.35043 0.0
C789 C 0.67051 0.20737 0.34353 0.0
C790 C 0.65286 0.21163 0.35776 0.0
C791 C 0.56356 0.29052 0.39465 0.0
C792 C 0.5531 0.28611 0.37383 0.0
C793 C 0.57968 0.27688 0.40291 0.0
C794 C 0.58555 0.25833 0.39074 0.0
C795 C 0.57542 0.25405 0.36978 0.0
C796 C 0.55937 0.26778 0.3614 0.0
C797 C 0.60238 0.24356 0.39983 0.0
C798 C 0.62023 0.23837 0.38606 0.0
C799 C 0.60136 0.23532 0.42225 0.0
C800 C 0.58212 0.23869 0.43701 0.0
C801 C 0.5613 0.23301 0.42928 0.0
C802 C 0.54321 0.23639 0.44316 0.0
C803 C 0.54574 0.2453 0.46487 0.0
C804 C 0.56638 0.25079 0.47278 0.0
C805 C 0.58452 0.24746 0.45896 0.0
H806 H 0.53172 0.24791 0.47559 0.0
H807 H 0.7051 0.20958 0.3394 0.0
H808 H 0.35908 0.47785 0.95819 0.0
H809 H 0.38135 0.50734 0.94443 0.0
H810 H 0.34157 0.51186 0.88427 0.0
H811 H 0.31871 0.48274 0.8982 0.0
H812 H 0.38592 0.51199 0.87487 0.0
H813 H 0.33617 0.5488 0.92419 0.0
H814 H 0.3165 0.5555 0.96006 0.0
H815 H 0.37679 0.56537 0.99509 0.0
H816 H 0.39685 0.55843 0.95948 0.0
H817 H 0.43768 0.60597 0.8356 0.0
H818 H 0.41006 0.58045 0.84785 0.0
H819 H 0.43783 0.58015 0.91536 0.0
H820 H 0.46463 0.6066 0.90349 0.0
H821 H 0.39698 0.57873 0.91964 0.0
H822 H 0.44707 0.53885 0.87255 0.0
H823 H 0.46783 0.53123 0.83754 0.0
H824 H 0.4086 0.52591 0.79951 0.0
H825 H 0.3875 0.53369 0.83427 0.0
C826 C 0.35478 0.48529 0.9422 0.0
C827 C 0.33696 0.4779 0.92939 0.0
C828 C 0.36763 0.50211 0.93431 0.0
C829 C 0.36301 0.51191 0.91341 0.0
C830 C 0.34542 0.5045 0.90044 0.0
C831 C 0.33244 0.48776 0.9084 0.0
C832 C 0.37685 0.52962 0.90499 0.0
C833 C 0.38811 0.52674 0.88446 0.0
C834 C 0.38006 0.54863 0.91778 0.0
C835 C 0.36802 0.55291 0.9392 0.0
C836 C 0.34525 0.55223 0.93957 0.0
C837 C 0.33402 0.5561 0.95985 0.0
C838 C 0.34539 0.56081 0.97985 0.0
C839 C 0.36801 0.56171 0.97959 0.0
C840 C 0.37931 0.55783 0.95936 0.0
C841 C 0.43779 0.60052 0.85309 0.0
C842 C 0.45339 0.60818 0.86856 0.0
C843 C 0.42207 0.58581 0.86005 0.0
C844 C 0.4221 0.57788 0.88243 0.0
C845 C 0.43742 0.58592 0.898 0.0
C846 C 0.45278 0.60103 0.8912 0.0
C847 C 0.40646 0.56103 0.88963 0.0
C848 C 0.39479 0.56405 0.90994 0.0
C849 C 0.40309 0.542 0.87678 0.0
C850 C 0.41573 0.53703 0.85595 0.0
C851 C 0.43849 0.53614 0.8567 0.0
C852 C 0.45031 0.53178 0.83691 0.0
C853 C 0.43954 0.52813 0.81631 0.0
C854 C 0.41692 0.52875 0.81547 0.0
C855 C 0.40502 0.5331 0.83522 0.0
H856 H 0.44872 0.52478 0.801 0.0
H857 H 0.33667 0.5638 0.99553 0.0
H858 H 0.66413 0.49684 0.48648 0.0
H859 H 0.64478 0.46833 0.46635 0.0
H860 H 0.63203 0.51127 0.41062 0.0
H861 H 0.65071 0.5401 0.43102 0.0
H862 H 0.59611 0.49132 0.42297 0.0
H863 H 0.6686 0.46975 0.40565 0.0
H864 H 0.70659 0.46019 0.41375 0.0
H865 H 0.68544 0.40732 0.45455 0.0
H866 H 0.6473 0.41674 0.44696 0.0
H867 H 0.55284 0.4142 0.34771 0.0
H868 H 0.57825 0.43989 0.36415 0.0
H869 H 0.58498 0.40037 0.42369 0.0
H870 H 0.55948 0.37442 0.40741 0.0
H871 H 0.62463 0.41816 0.40849 0.0
H872 H 0.55226 0.44088 0.4269 0.0
H873 H 0.51431 0.45026 0.41836 0.0
H874 H 0.53572 0.50121 0.37503 0.0
H875 H 0.57383 0.4919 0.38304 0.0
C876 C 0.65725 0.50022 0.46991 0.0
C877 C 0.6589 0.52081 0.46042 0.0
C878 C 0.64638 0.48383 0.45831 0.0
C879 C 0.63707 0.48759 0.43688 0.0
C880 C 0.63912 0.50797 0.42711 0.0
C881 C 0.64998 0.5244 0.43872 0.0
C882 C 0.62404 0.4707 0.42533 0.0
C883 C 0.60251 0.47545 0.41946 0.0
C884 C 0.63216 0.44979 0.42129 0.0
C885 C 0.65508 0.44409 0.42591 0.0
C886 C 0.67204 0.4562 0.41651 0.0
C887 C 0.69361 0.45078 0.42098 0.0
C888 C 0.69843 0.4332 0.4347 0.0
C889 C 0.68168 0.42096 0.44394 0.0
C890 C 0.66009 0.42632 0.43955 0.0
C891 C 0.55986 0.41076 0.3642 0.0
C892 C 0.5539 0.39228 0.37631 0.0
C893 C 0.57437 0.42553 0.37358 0.0
C894 C 0.58329 0.42214 0.39524 0.0
C895 C 0.57823 0.40328 0.40696 0.0
C896 C 0.56358 0.38852 0.39765 0.0
C897 C 0.59688 0.43891 0.40611 0.0
C898 C 0.61839 0.43411 0.41192 0.0
C899 C 0.5888 0.45981 0.41009 0.0
C900 C 0.5659 0.46555 0.40538 0.0
C901 C 0.54888 0.45397 0.4154 0.0
C902 C 0.52734 0.45929 0.41068 0.0
C903 C 0.52261 0.47628 0.39611 0.0
C904 C 0.53941 0.48803 0.38628 0.0
C905 C 0.56099 0.48275 0.39091 0.0
H906 H 0.50592 0.48038 0.39248 0.0
H907 H 0.71513 0.42903 0.43813 0.0
H908 H 0.64339 0.47316 0.95608 0.0
H909 H 0.61975 0.50163 0.94233 0.0
H910 H 0.67204 0.52673 0.90178 0.0
H911 H 0.69613 0.49876 0.91621 0.0
H912 H 0.64949 0.55878 0.9212 0.0
H913 H 0.63292 0.49576 0.87755 0.0
H914 H 0.62303 0.45785 0.87169 0.0
H915 H 0.56304 0.46817 0.9071 0.0
H916 H 0.57272 0.50608 0.91344 0.0
H917 H 0.55551 0.59205 0.83866 0.0
H918 H 0.58296 0.567 0.85207 0.0
H919 H 0.58208 0.59732 0.91825 0.0
H920 H 0.55482 0.62274 0.90488 0.0
H921 H 0.58043 0.53782 0.88397 0.0
H922 H 0.63204 0.5922 0.94308 0.0
H923 H 0.64331 0.63004 0.94598 0.0
H924 H 0.63581 0.63709 0.87371 0.0
H925 H 0.6248 0.59924 0.87034 0.0
C926 C 0.65003 0.48492 0.94454 0.0
C927 C 0.67169 0.48358 0.9372 0.0
C928 C 0.6364 0.50109 0.93651 0.0
C929 C 0.64402 0.51615 0.92077 0.0
C930 C 0.66577 0.51523 0.91385 0.0
C931 C 0.67946 0.49909 0.92194 0.0
C932 C 0.6291 0.53241 0.91103 0.0
C933 C 0.63438 0.55422 0.91307 0.0
C934 C 0.60956 0.52646 0.90005 0.0
C935 C 0.60363 0.50371 0.89613 0.0
C936 C 0.61768 0.4899 0.88422 0.0
C937 C 0.61211 0.46842 0.88079 0.0
C938 C 0.59244 0.4606 0.88906 0.0
C939 C 0.57828 0.47425 0.90072 0.0
C940 C 0.58379 0.49574 0.90422 0.0
C941 C 0.56122 0.59354 0.85604 0.0
C942 C 0.55286 0.60945 0.87068 0.0
C943 C 0.57691 0.57914 0.86369 0.0
C944 C 0.58468 0.58031 0.88613 0.0
C945 C 0.57657 0.59628 0.90076 0.0
C946 C 0.5609 0.61077 0.89309 0.0
C947 C 0.60063 0.56426 0.89439 0.0
C948 C 0.59552 0.54244 0.89211 0.0
C949 C 0.62049 0.57022 0.90473 0.0
C950 C 0.62738 0.59293 0.90652 0.0
C951 C 0.63288 0.6018 0.9278 0.0
C952 C 0.63921 0.62326 0.92953 0.0
C953 C 0.6402 0.63598 0.91005 0.0
C954 C 0.63495 0.62724 0.8888 0.0
C955 C 0.62864 0.6058 0.88698 0.0
H956 H 0.64508 0.65258 0.91143 0.0
H957 H 0.58815 0.44396 0.8864 0.0
H958 H 0.33683 0.49358 0.48396 0.0
H959 H 0.35685 0.46527 0.46417 0.0
H960 H 0.37726 0.51054 0.41333 0.0
H961 H 0.3574 0.53902 0.43312 0.0
H962 H 0.36668 0.47124 0.39454 0.0
H963 H 0.41057 0.49841 0.45633 0.0
H964 H 0.41808 0.50803 0.49635 0.0
H965 H 0.4077 0.44276 0.51626 0.0
H966 H 0.39981 0.43281 0.47638 0.0
H967 H 0.45934 0.41775 0.35077 0.0
H968 H 0.43312 0.44263 0.36723 0.0
H969 H 0.41995 0.39781 0.42114 0.0
H970 H 0.44667 0.37307 0.40515 0.0
H971 H 0.42521 0.4358 0.4384 0.0
H972 H 0.38322 0.40776 0.37663 0.0
H973 H 0.37541 0.39779 0.33677 0.0
H974 H 0.38154 0.46357 0.31682 0.0
H975 H 0.38969 0.4739 0.35652 0.0
C976 C 0.34553 0.49751 0.46853 0.0
C977 C 0.34571 0.51862 0.46027 0.0
C978 C 0.3569 0.4813 0.45721 0.0
C979 C 0.36881 0.48587 0.43746 0.0
C980 C 0.36819 0.50667 0.42854 0.0
C981 C 0.35678 0.52292 0.43985 0.0
C982 C 0.38291 0.46929 0.42691 0.0
C983 C 0.37961 0.46359 0.40402 0.0
C984 C 0.39945 0.45899 0.43947 0.0
C985 C 0.40439 0.46492 0.46341 0.0
C986 C 0.40973 0.48614 0.46927 0.0
C987 C 0.41408 0.49165 0.49192 0.0
C988 C 0.41332 0.47603 0.50885 0.0
C989 C 0.40826 0.45485 0.50314 0.0
C990 C 0.40386 0.44926 0.48052 0.0
C991 C 0.45073 0.41306 0.36601 0.0
C992 C 0.45516 0.39339 0.37664 0.0
C993 C 0.43563 0.4273 0.37535 0.0
C994 C 0.42431 0.42203 0.3953 0.0
C995 C 0.42846 0.40226 0.40575 0.0
C996 C 0.44373 0.38811 0.39656 0.0
C997 C 0.40903 0.43759 0.40592 0.0
C998 C 0.41217 0.44321 0.42887 0.0
C999 C 0.39229 0.44771 0.39341 0.0
C1000 C 0.38725 0.44157 0.36953 0.0
C1001 C 0.38305 0.42008 0.36372 0.0
C1002 C 0.37854 0.41437 0.34116 0.0
C1003 C 0.37803 0.43003 0.32427 0.0
C1004 C 0.38196 0.45145 0.32992 0.0
C1005 C 0.3865 0.45725 0.35245 0.0
H1006 H 0.37454 0.42558 0.30681 0.0
H1007 H 0.41669 0.48032 0.52638 0.0
H1008 H 0.8518 0.98437 0.96469 0.0
H1009 H 0.87473 0.0137 0.95168 0.0
H1010 H 0.84385 0.01141 0.88585 0.0
H1011 H 0.82026 0.98253 0.8989 0.0
H1012 H 0.88926 0.01182 0.8838 0.0
H1013 H 0.83193 0.05126 0.92065 0.0
H1014 H 0.80762 0.06057 0.95251 0.0
H1015 H 0.86252 0.0766 0.99419 0.0
H1016 H 0.88719 0.06709 0.96267 0.0
H1017 H 0.93888 0.10347 0.83819 0.0
H1018 H 0.91171 0.07791 0.85124 0.0
H1019 H 0.93292 0.08746 0.92061 0.0
H1020 H 0.95947 0.11381 0.90772 0.0
H1021 H 0.89146 0.08349 0.92067 0.0
H1022 H 0.94898 0.04295 0.88669 0.0
H1023 H 0.97481 0.03244 0.85661 0.0
H1024 H 0.92196 0.01677 0.81194 0.0
H1025 H 0.8958 0.02746 0.84167 0.0
C1026 C 0.84954 0.99031 0.94757 0.0
C1027 C 0.83407 0.98102 0.93289 0.0
C1028 C 0.86277 0.00704 0.94013 0.0
C1029 C 0.86091 0.01481 0.91785 0.0
C1030 C 0.84557 0.00561 0.90311 0.0
C1031 C 0.83219 0.989 0.91059 0.0
C1032 C 0.87541 0.03211 0.90972 0.0
C1033 C 0.88953 0.02761 0.89161 0.0
C1034 C 0.87623 0.05245 0.92043 0.0
C1035 C 0.86141 0.05827 0.93936 0.0
C1036 C 0.83883 0.0566 0.93666 0.0
C1037 C 0.82498 0.06195 0.95465 0.0
C1038 C 0.83352 0.06912 0.97538 0.0
C1039 C 0.85593 0.07102 0.97813 0.0
C1040 C 0.86985 0.06567 0.9602 0.0
C1041 C 0.93766 0.10023 0.85625 0.0
C1042 C 0.95145 0.11054 0.8719 0.0
C1043 C 0.92219 0.08551 0.86369 0.0
C1044 C 0.92057 0.0803 0.88688 0.0
C1045 C 0.93387 0.09111 0.90263 0.0
C1046 C 0.94907 0.10616 0.89523 0.0
C1047 C 0.90541 0.06327 0.89466 0.0
C1048 C 0.89119 0.06776 0.91275 0.0
C1049 C 0.90475 0.04275 0.8842 0.0
C1050 C 0.92044 0.03621 0.86633 0.0
C1051 C 0.94287 0.0374 0.8704 0.0
C1052 C 0.95757 0.03139 0.85342 0.0
C1053 C 0.95003 0.024 0.83236 0.0
C1054 C 0.92777 0.02253 0.82825 0.0
C1055 C 0.913 0.02855 0.84516 0.0
H1056 H 0.96143 0.01935 0.81924 0.0
H1057 H 0.82278 0.07325 0.98928 0.0
H1058 H 0.17145 1.00083 0.47537 0.0
H1059 H 0.15193 0.97121 0.45715 0.0
H1060 H 0.11223 0.01647 0.42073 0.0
H1061 H 0.13164 0.04609 0.43888 0.0
H1062 H 0.08781 0.98707 0.4404 0.0
H1063 H 0.1518 0.98655 0.39394 0.0
H1064 H 0.19104 0.98508 0.38619 0.0
H1065 H 0.19476 0.9232 0.4175 0.0
H1066 H 0.15557 0.92443 0.42572 0.0
H1067 H 0.03977 0.92012 0.35697 0.0
H1068 H 0.06364 0.94646 0.37491 0.0
H1069 H 0.0889 0.89779 0.41945 0.0
H1070 H 0.06461 0.87124 0.40187 0.0
H1071 H 0.12117 0.9269 0.39739 0.0
H1072 H 0.05698 0.92735 0.44309 0.0
H1073 H 0.01789 0.92927 0.45142 0.0
H1074 H 0.01473 0.99172 0.42136 0.0
H1075 H 0.05377 0.99003 0.41248 0.0
C1076 C 0.15882 0.00446 0.46317 0.0
C1077 C 0.15303 0.02582 0.45864 0.0
C1078 C 0.14766 0.98751 0.45278 0.0
C1079 C 0.13063 0.9916 0.43751 0.0
C1080 C 0.12522 0.01291 0.43255 0.0
C1081 C 0.1363 0.02983 0.44297 0.0
C1082 C 0.11767 0.97379 0.42756 0.0
C1083 C 0.09512 0.97408 0.43074 0.0
C1084 C 0.12724 0.95645 0.41557 0.0
C1085 C 0.1508 0.95569 0.41067 0.0
C1086 C 0.16102 0.97271 0.39936 0.0
C1087 C 0.18324 0.97191 0.39484 0.0
C1088 C 0.19539 0.95409 0.40141 0.0
C1089 C 0.18533 0.93701 0.41246 0.0
C1090 C 0.16311 0.93774 0.41704 0.0
C1091 C 0.05054 0.9149 0.37042 0.0
C1092 C 0.0503 0.89356 0.378 0.0
C1093 C 0.0641 0.93001 0.3807 0.0
C1094 C 0.07793 0.92405 0.39853 0.0
C1095 C 0.07831 0.90265 0.40569 0.0
C1096 C 0.06441 0.88755 0.39569 0.0
C1097 C 0.09142 0.94048 0.40999 0.0
C1098 C 0.11398 0.9399 0.40712 0.0
C1099 C 0.0819 0.95762 0.42222 0.0
C1100 C 0.05828 0.95846 0.42691 0.0
C1101 C 0.04791 0.94138 0.43798 0.0
C1102 C 0.02578 0.94246 0.4429 0.0
C1103 C 0.01386 0.96064 0.437 0.0
C1104 C 0.02401 0.9777 0.42602 0.0
C1105 C 0.04614 0.97667 0.42101 0.0
H1106 H 0.99673 0.96147 0.44088 0.0
H1107 H 0.2126 0.95349 0.39789 0.0
H1108 H 0.16588 0.99488 0.96587 0.0
H1109 H 0.1424 0.02392 0.95294 0.0
H1110 H 0.14303 0.99754 0.88491 0.0
H1111 H 0.1664 0.96833 0.89774 0.0
H1112 H 0.14749 0.04074 0.88437 0.0
H1113 H 0.09996 0.98974 0.91958 0.0
H1114 H 0.08699 0.96641 0.95044 0.0
H1115 H 0.079 0.0212 0.99417 0.0
H1116 H 0.09222 0.04484 0.96365 0.0
H1117 H 0.05454 0.09233 0.83891 0.0
H1118 H 0.0814 0.06671 0.85249 0.0
H1119 H 0.07871 0.09526 0.91947 0.0
H1120 H 0.05164 0.12089 0.90613 0.0
H1121 H 0.07614 0.05213 0.92141 0.0
H1122 H 0.12218 0.10341 0.88554 0.0
H1123 H 0.13485 0.12669 0.85451 0.0
H1124 H 0.14544 0.07156 0.8119 0.0
H1125 H 0.13253 0.04795 0.84258 0.0
C1126 C 0.16093 0.99517 0.94818 0.0
C1127 C 0.16791 0.97917 0.93288 0.0
C1128 C 0.14755 0.01183 0.9408 0.0
C1129 C 0.14075 0.01277 0.91801 0.0
C1130 C 0.1481 0.99714 0.90257 0.0
C1131 C 0.16151 0.98048 0.90993 0.0
C1132 C 0.1256 0.0298 0.91036 0.0
C1133 C 0.13179 0.04309 0.8923 0.0
C1134 C 0.10532 0.0332 0.92106 0.0
C1135 C 0.0973 0.01902 0.93941 0.0
C1136 C 0.0956 0.99679 0.93584 0.0
C1137 C 0.08818 0.98352 0.95326 0.0
C1138 C 0.08223 0.99231 0.97428 0.0
C1139 C 0.08364 0.01441 0.97789 0.0
C1140 C 0.09109 0.02775 0.96054 0.0
C1141 C 0.05971 0.0933 0.85651 0.0
C1142 C 0.05084 0.10872 0.87141 0.0
C1143 C 0.07518 0.07867 0.86422 0.0
C1144 C 0.0822 0.07916 0.88696 0.0
C1145 C 0.07353 0.0946 0.90185 0.0
C1146 C 0.05809 0.10929 0.89415 0.0
C1147 C 0.09799 0.06305 0.89536 0.0
C1148 C 0.0919 0.04989 0.91356 0.0
C1149 C 0.11833 0.05978 0.88477 0.0
C1150 C 0.12619 0.07392 0.8663 0.0
C1151 C 0.12705 0.09626 0.86949 0.0
C1152 C 0.1343 0.10951 0.85198 0.0
C1153 C 0.1409 0.10061 0.83122 0.0
C1154 C 0.1403 0.07843 0.82797 0.0
C1155 C 0.13304 0.0651 0.84543 0.0
H1156 H 0.14651 0.1109 0.81768 0.0
H1157 H 0.07648 0.982 0.98774 0.0
H1158 H 0.82834 0.01606 0.44035 0.0
H1159 H 0.84731 0.98719 0.42005 0.0
H1160 H 0.90519 1.0004 0.45886 0.0
H1161 H 0.8866 0.02952 0.47868 0.0
H1162 H 0.91478 0.99429 0.41506 0.0
H1163 H 0.87239 0.95841 0.47215 0.0
H1164 H 0.83886 0.94876 0.49246 0.0
H1165 H 0.8122 0.9227 0.43069 0.0
H1166 H 0.84548 0.93247 0.40994 0.0
H1167 H 0.95255 0.87767 0.40907 0.0
H1168 H 0.92813 0.90453 0.42523 0.0
H1169 H 0.92464 0.93617 0.36025 0.0
H1170 H 0.94923 0.90957 0.34393 0.0
H1171 H 0.88721 0.91964 0.41645 0.0
H1172 H 0.92772 0.99174 0.37195 0.0
H1173 H 0.96226 1.00044 0.35305 0.0
H1174 H 0.99492 0.95278 0.39275 0.0
H1175 H 0.96088 0.94459 0.4128 0.0
C1176 C 0.84516 0.01292 0.44439 0.0
C1177 C 0.85591 0.02499 0.46126 0.0
C1178 C 0.85593 0.99631 0.43291 0.0
C1179 C 0.87762 0.99149 0.4381 0.0
C1180 C 0.88846 0.00379 0.45461 0.0
C1181 C 0.87773 0.02031 0.46608 0.0
C1182 C 0.88915 0.97359 0.42653 0.0
C1183 C 0.90868 0.97799 0.41526 0.0
C1184 C 0.88132 0.95227 0.42699 0.0
C1185 C 0.86133 0.94638 0.43945 0.0
C1186 C 0.85931 0.95078 0.46286 0.0
C1187 C 0.84036 0.94526 0.47446 0.0
C1188 C 0.82338 0.93518 0.46286 0.0
C1189 C 0.82534 0.93055 0.43965 0.0
C1190 C 0.84425 0.93606 0.42796 0.0
C1191 C 0.94639 0.89015 0.39808 0.0
C1192 C 0.95318 0.89161 0.37526 0.0
C1193 C 0.93233 0.90545 0.40735 0.0
C1194 C 0.92484 0.92251 0.39403 0.0
C1195 C 0.93048 0.92328 0.37091 0.0
C1196 C 0.94456 0.90803 0.36162 0.0
C1197 C 0.91271 0.9404 0.40483 0.0
C1198 C 0.89315 0.93599 0.41601 0.0
C1199 C 0.92067 0.96169 0.40456 0.0
C1200 C 0.94161 0.96732 0.39363 0.0
C1201 C 0.94232 0.9833 0.37687 0.0
C1202 C 0.96185 0.98821 0.36602 0.0
C1203 C 0.98078 0.9772 0.37174 0.0
C1204 C 0.98027 0.9614 0.38847 0.0
C1205 C 0.96087 0.95667 0.39964 0.0
H1206 H 0.99585 0.9809 0.36321 0.0
H1207 H 0.80873 0.93091 0.47187 0.0
H1208 H 0.35309 0.4024 0.13088 0.0
H1209 H 0.37241 0.3934 0.16581 0.0
H1210 H 0.37386 0.32693 0.14556 0.0
H1211 H 0.35474 0.33587 0.1102 0.0
H1212 H 0.36547 0.33312 0.19273 0.0
H1213 H 0.41718 0.35477 0.13673 0.0
H1214 H 0.43261 0.37816 0.10721 0.0
H1215 H 0.43832 0.4294 0.15592 0.0
H1216 H 0.42259 0.40641 0.18567 0.0
H1217 H 0.45343 0.30835 0.26991 0.0
H1218 H 0.42894 0.31149 0.23723 0.0
H1219 H 0.42664 0.37999 0.24686 0.0
H1220 H 0.45107 0.3771 0.27924 0.0
H1221 H 0.43611 0.36969 0.20365 0.0
H1222 H 0.38333 0.34845 0.25942 0.0
H1223 H 0.36776 0.32514 0.28895 0.0
H1224 H 0.36436 0.27308 0.24098 0.0
H1225 H 0.38021 0.29601 0.21123 0.0
C1226 C 0.35749 0.38585 0.13381 0.0
C1227 C 0.35267 0.36991 0.11754 0.0
C1228 C 0.36844 0.38072 0.15385 0.0
C1229 C 0.37485 0.35955 0.15812 0.0
C1230 C 0.36908 0.34337 0.14256 0.0
C1231 C 0.35812 0.34851 0.1224 0.0
C1232 C 0.38871 0.35478 0.17814 0.0
C1233 C 0.38106 0.34085 0.19501 0.0
C1234 C 0.40894 0.36506 0.1812 0.0
C1235 C 0.41851 0.37892 0.16338 0.0
C1236 C 0.42156 0.37108 0.14111 0.0
C1237 C 0.43038 0.38426 0.12434 0.0
C1238 C 0.43639 0.40527 0.12967 0.0
C1239 C 0.43363 0.41313 0.15181 0.0
C1240 C 0.42477 0.40003 0.16864 0.0
C1241 C 0.44748 0.32405 0.26528 0.0
C1242 C 0.4544 0.34247 0.27718 0.0
C1243 C 0.43344 0.32581 0.2466 0.0
C1244 C 0.42598 0.34599 0.23957 0.0
C1245 C 0.43229 0.36427 0.25188 0.0
C1246 C 0.44626 0.36255 0.27047 0.0
C1247 C 0.41269 0.34843 0.21861 0.0
C1248 C 0.42055 0.36187 0.20142 0.0
C1249 C 0.39273 0.33767 0.21533 0.0
C1250 C 0.38319 0.32387 0.23317 0.0
C1251 C 0.37945 0.33197 0.25522 0.0
C1252 C 0.37053 0.31884 0.27199 0.0
C1253 C 0.36514 0.29762 0.26686 0.0
C1254 C 0.36859 0.28951 0.24494 0.0
C1255 C 0.37752 0.30257 0.22811 0.0
H1256 H 0.35823 0.28749 0.27986 0.0
H1257 H 0.44323 0.41545 0.11667 0.0
H1258 H 0.66277 0.69385 0.62069 0.0
H1259 H 0.63945 0.69631 0.65429 0.0
H1260 H 0.64854 0.62883 0.66652 0.0
H1261 H 0.67193 0.62628 0.63307 0.0
H1262 H 0.60668 0.63943 0.66922 0.0
H1263 H 0.67345 0.66697 0.6997 0.0
H1264 H 0.70527 0.69081 0.70114 0.0
H1265 H 0.66352 0.74559 0.70724 0.0
H1266 H 0.63142 0.72208 0.70553 0.0
H1267 H 0.56091 0.63207 0.77828 0.0
H1268 H 0.58724 0.63235 0.74738 0.0
H1269 H 0.57573 0.69978 0.7373 0.0
H1270 H 0.5495 0.69977 0.76855 0.0
H1271 H 0.61844 0.69028 0.73328 0.0
H1272 H 0.55181 0.66302 0.70284 0.0
H1273 H 0.51982 0.6394 0.70133 0.0
H1274 H 0.56118 0.58439 0.69469 0.0
H1275 H 0.59344 0.60767 0.69649 0.0
C1276 C 0.66006 0.6796 0.63072 0.0
C1277 C 0.6692 0.65985 0.62414 0.0
C1278 C 0.64669 0.68102 0.64991 0.0
C1279 C 0.64234 0.66278 0.66303 0.0
C1280 C 0.6516 0.64311 0.65663 0.0
C1281 C 0.66492 0.64166 0.63744 0.0
C1282 C 0.62754 0.66394 0.68298 0.0
C1283 C 0.60944 0.65035 0.68337 0.0
C1284 C 0.63075 0.67863 0.70115 0.0
C1285 C 0.65003 0.69278 0.70225 0.0
C1286 C 0.67104 0.68411 0.70116 0.0
C1287 C 0.68913 0.69756 0.70206 0.0
C1288 C 0.68641 0.7197 0.70422 0.0
C1289 C 0.6656 0.72844 0.70554 0.0
C1290 C 0.64745 0.71506 0.70463 0.0
C1291 C 0.56402 0.64703 0.76964 0.0
C1292 C 0.55286 0.66586 0.77581 0.0
C1293 C 0.57907 0.64714 0.7519 0.0
C1294 C 0.58317 0.66599 0.73973 0.0
C1295 C 0.57275 0.68502 0.74639 0.0
C1296 C 0.55772 0.68496 0.76425 0.0
C1297 C 0.59776 0.66559 0.7196 0.0
C1298 C 0.61573 0.67937 0.71913 0.0
C1299 C 0.59442 0.65111 0.70128 0.0
C1300 C 0.57505 0.63708 0.70001 0.0
C1301 C 0.55409 0.64587 0.70122 0.0
C1302 C 0.53591 0.63255 0.70029 0.0
C1303 C 0.53847 0.61041 0.69797 0.0
C1304 C 0.55922 0.60155 0.69651 0.0
C1305 C 0.57746 0.6148 0.69747 0.0
H1306 H 0.52438 0.60012 0.69726 0.0
H1307 H 0.70044 0.73009 0.70491 0.0
H1308 H 0.67422 0.3708 0.13412 0.0
H1309 H 0.65538 0.36204 0.16954 0.0
H1310 H 0.60003 0.34033 0.13092 0.0
H1311 H 0.61877 0.34895 0.09552 0.0
H1312 H 0.58777 0.36724 0.16325 0.0
H1313 H 0.63254 0.30496 0.15904 0.0
H1314 H 0.66663 0.28466 0.15529 0.0
H1315 H 0.69088 0.31406 0.21648 0.0
H1316 H 0.65703 0.33478 0.22042 0.0
H1317 H 0.5517 0.30599 0.27014 0.0
H1318 H 0.57489 0.30755 0.23638 0.0
H1319 H 0.57955 0.37614 0.24376 0.0
H1320 H 0.55637 0.37485 0.27731 0.0
H1321 H 0.61616 0.3227 0.22635 0.0
H1322 H 0.5732 0.39805 0.19145 0.0
H1323 H 0.53761 0.41594 0.19409 0.0
H1324 H 0.50719 0.35566 0.20843 0.0
H1325 H 0.54253 0.33738 0.20554 0.0
C1326 C 0.65821 0.36376 0.13316 0.0
C1327 C 0.64794 0.36071 0.11199 0.0
C1328 C 0.64744 0.35878 0.15343 0.0
C1329 C 0.62628 0.3505 0.15291 0.0
C1330 C 0.61629 0.34683 0.13177 0.0
C1331 C 0.627 0.35182 0.11154 0.0
C1332 C 0.61398 0.34698 0.17432 0.0
C1333 C 0.59402 0.35747 0.177 0.0
C1334 C 0.62194 0.33402 0.1922 0.0
C1335 C 0.64232 0.32157 0.1899 0.0
C1336 C 0.64521 0.30723 0.17159 0.0
C1337 C 0.66448 0.29562 0.16945 0.0
C1338 C 0.68093 0.2981 0.18561 0.0
C1339 C 0.67813 0.31217 0.20396 0.0
C1340 C 0.65889 0.32384 0.20617 0.0
C1341 C 0.55789 0.32139 0.2648 0.0
C1342 C 0.55188 0.34032 0.27633 0.0
C1343 C 0.57121 0.32222 0.24552 0.0
C1344 C 0.57866 0.34198 0.23738 0.0
C1345 C 0.5737 0.36074 0.24957 0.0
C1346 C 0.56044 0.35995 0.26879 0.0
C1347 C 0.59026 0.34329 0.2153 0.0
C1348 C 0.61002 0.33245 0.21254 0.0
C1349 C 0.58196 0.35562 0.19711 0.0
C1350 C 0.56055 0.3664 0.19849 0.0
C1351 C 0.5589 0.38861 0.19506 0.0
C1352 C 0.53877 0.39881 0.19662 0.0
C1353 C 0.52016 0.38695 0.20149 0.0
C1354 C 0.52163 0.36484 0.20473 0.0
C1355 C 0.54171 0.35456 0.20316 0.0
H1356 H 0.50461 0.39488 0.20271 0.0
H1357 H 0.69584 0.28909 0.18392 0.0
H1358 H 0.31723 0.68299 0.64089 0.0
H1359 H 0.34088 0.68611 0.67421 0.0
H1360 H 0.3773 0.63111 0.65135 0.0
H1361 H 0.35423 0.62821 0.61772 0.0
H1362 H 0.36717 0.62971 0.69762 0.0
H1363 H 0.39732 0.67971 0.64344 0.0
H1364 H 0.39581 0.71056 0.61743 0.0
H1365 H 0.37715 0.75166 0.67293 0.0
H1366 H 0.37826 0.72097 0.69922 0.0
H1367 H 0.46356 0.63405 0.76032 0.0
H1368 H 0.43596 0.63351 0.73073 0.0
H1369 H 0.41165 0.69448 0.7545 0.0
H1370 H 0.43996 0.69552 0.78381 0.0
H1371 H 0.41242 0.69437 0.71025 0.0
H1372 H 0.38483 0.64584 0.76535 0.0
H1373 H 0.38593 0.61547 0.792 0.0
H1374 H 0.39805 0.57215 0.73641 0.0
H1375 H 0.39736 0.6023 0.70945 0.0
C1376 C 0.33039 0.67166 0.6428 0.0
C1377 C 0.33378 0.65535 0.62652 0.0
C1378 C 0.34382 0.67341 0.66194 0.0
C1379 C 0.36089 0.65888 0.66521 0.0
C1380 C 0.36414 0.64242 0.64922 0.0
C1381 C 0.35084 0.64074 0.63003 0.0
C1382 C 0.37565 0.66092 0.68508 0.0
C1383 C 0.3772 0.64376 0.70033 0.0
C1384 C 0.38818 0.67955 0.689 0.0
C1385 C 0.38764 0.69801 0.67323 0.0
C1386 C 0.39272 0.69529 0.65005 0.0
C1387 C 0.39197 0.71275 0.63527 0.0
C1388 C 0.38632 0.73304 0.64351 0.0
C1389 C 0.38148 0.73592 0.66656 0.0
C1390 C 0.38218 0.71851 0.68141 0.0
C1391 C 0.4523 0.64734 0.75938 0.0
C1392 C 0.45388 0.66477 0.77457 0.0
C1393 C 0.43641 0.64695 0.74247 0.0
C1394 C 0.42134 0.66372 0.74064 0.0
C1395 C 0.423 0.68129 0.75563 0.0
C1396 C 0.43917 0.68185 0.77239 0.0
C1397 C 0.40427 0.66298 0.72272 0.0
C1398 C 0.40224 0.68038 0.7078 0.0
C1399 C 0.3911 0.64464 0.71926 0.0
C1400 C 0.39119 0.62638 0.73539 0.0
C1401 C 0.38785 0.62986 0.75882 0.0
C1402 C 0.38839 0.61268 0.77398 0.0
C1403 C 0.3921 0.5919 0.76591 0.0
C1404 C 0.39519 0.58826 0.74264 0.0
C1405 C 0.3947 0.60538 0.7274 0.0
H1406 H 0.39254 0.57863 0.77768 0.0
H1407 H 0.38575 0.74654 0.63203 0.0
H1408 H 0.86515 0.89998 0.1231 0.0
H1409 H 0.88444 0.89032 0.15779 0.0
H1410 H 0.86712 0.82405 0.14757 0.0
H1411 H 0.84784 0.83361 0.11243 0.0
H1412 H 0.86435 0.83728 0.19356 0.0
H1413 H 0.91582 0.83823 0.13317 0.0
H1414 H 0.93462 0.8527 0.09959 0.0
H1415 H 0.95618 0.90677 0.13902 0.0
H1416 H 0.93721 0.89279 0.17277 0.0
H1417 H 0.94939 0.80683 0.27336 0.0
H1418 H 0.92539 0.80895 0.2401 0.0
H1419 H 0.93464 0.87736 0.23796 0.0
H1420 H 0.95839 0.87552 0.27095 0.0
H1421 H 0.94204 0.85757 0.19657 0.0
H1422 H 0.88798 0.85748 0.25617 0.0
H1423 H 0.86919 0.84266 0.2896 0.0
H1424 H 0.85317 0.78595 0.25146 0.0
H1425 H 0.87215 0.80032 0.21787 0.0
C1426 C 0.86544 0.88333 0.12815 0.0
C1427 C 0.85526 0.86751 0.11477 0.0
C1428 C 0.8764 0.87784 0.14806 0.0
C1429 C 0.87752 0.85642 0.15505 0.0
C1430 C 0.8665 0.84067 0.14241 0.0
C1431 C 0.85548 0.84617 0.12238 0.0
C1432 C 0.89114 0.85067 0.17496 0.0
C1433 C 0.88143 0.84135 0.19411 0.0
C1434 C 0.91339 0.85609 0.1757 0.0
C1435 C 0.92493 0.86453 0.15547 0.0
C1436 C 0.92442 0.85329 0.13465 0.0
C1437 C 0.93513 0.86139 0.11558 0.0
C1438 C 0.94655 0.88066 0.11716 0.0
C1439 C 0.94732 0.89185 0.13782 0.0
C1440 C 0.9366 0.88383 0.15693 0.0
C1441 C 0.94614 0.82236 0.26595 0.0
C1442 C 0.95596 0.84098 0.27484 0.0
C1443 C 0.93239 0.82353 0.24698 0.0
C1444 C 0.92829 0.84331 0.23655 0.0
C1445 C 0.93766 0.86192 0.24569 0.0
C1446 C 0.95122 0.86081 0.26465 0.0
C1447 C 0.91514 0.84482 0.21545 0.0
C1448 C 0.92502 0.85327 0.19597 0.0
C1449 C 0.89314 0.83848 0.21445 0.0
C1450 C 0.88172 0.82985 0.23461 0.0
C1451 C 0.88064 0.84176 0.25498 0.0
C1452 C 0.86991 0.83346 0.27394 0.0
C1453 C 0.86006 0.81334 0.27268 0.0
C1454 C 0.86085 0.80151 0.25243 0.0
C1455 C 0.87158 0.80973 0.23342 0.0
H1456 H 0.85176 0.80695 0.28738 0.0
H1457 H 0.95484 0.88691 0.10238 0.0
H1458 H 0.18733 0.18317 0.64272 0.0
H1459 H 0.16245 0.18621 0.6749 0.0
H1460 H 0.12734 0.13088 0.65059 0.0
H1461 H 0.1513 0.12848 0.61773 0.0
H1462 H 0.09987 0.15969 0.66341 0.0
H1463 H 0.16344 0.1291 0.69689 0.0
H1464 H 0.2022 0.12649 0.7067 0.0
H1465 H 0.19854 0.18647 0.74263 0.0
H1466 H 0.15979 0.18958 0.73277 0.0
H1467 H 0.04409 0.1314 0.7642 0.0
H1468 H 0.07082 0.13131 0.73356 0.0
H1469 H 0.09092 0.19502 0.75272 0.0
H1470 H 0.06391 0.19544 0.78337 0.0
H1471 H 0.12599 0.16402 0.74324 0.0
H1472 H 0.06079 0.19269 0.71 0.0
H1473 H 0.02174 0.19274 0.7011 0.0
H1474 H 0.02862 0.13294 0.66533 0.0
H1475 H 0.06768 0.13238 0.67433 0.0
C1476 C 0.17419 0.17176 0.64407 0.0
C1477 C 0.17144 0.15552 0.62758 0.0
C1478 C 0.16011 0.17336 0.66268 0.0
C1479 C 0.14315 0.15859 0.66541 0.0
C1480 C 0.14033 0.14244 0.64895 0.0
C1481 C 0.15425 0.14094 0.63026 0.0
C1482 C 0.12805 0.16013 0.68513 0.0
C1483 C 0.10565 0.1604 0.68085 0.0
C1484 C 0.13548 0.16148 0.70795 0.0
C1485 C 0.15878 0.15969 0.71387 0.0
C1486 C 0.17094 0.14182 0.70671 0.0
C1487 C 0.1929 0.14023 0.71232 0.0
C1488 C 0.20284 0.15633 0.72522 0.0
C1489 C 0.19083 0.17403 0.7326 0.0
C1490 C 0.16886 0.17571 0.72702 0.0
C1491 C 0.05428 0.14537 0.76207 0.0
C1492 C 0.05178 0.16347 0.77622 0.0
C1493 C 0.06951 0.14529 0.74449 0.0
C1494 C 0.08273 0.16319 0.74083 0.0
C1495 C 0.08082 0.18106 0.7553 0.0
C1496 C 0.06534 0.18129 0.77272 0.0
C1497 C 0.09802 0.16337 0.72137 0.0
C1498 C 0.12036 0.16343 0.72574 0.0
C1499 C 0.09057 0.16199 0.69864 0.0
C1500 C 0.06712 0.1624 0.69302 0.0
C1501 C 0.05395 0.17946 0.7004 0.0
C1502 C 0.03182 0.1796 0.69531 0.0
C1503 C 0.02269 0.16283 0.68271 0.0
C1504 C 0.0357 0.14591 0.67511 0.0
C1505 C 0.05784 0.14569 0.68018 0.0
H1506 H 0.00556 0.16296 0.67878 0.0
H1507 H 0.21984 0.15507 0.72955 0.0
H1508 H 0.16222 0.89875 0.13681 0.0
H1509 H 0.14349 0.88905 0.17182 0.0
H1510 H 0.1295 0.82652 0.14384 0.0
H1511 H 0.14758 0.83644 0.10833 0.0
H1512 H 0.09419 0.84345 0.16215 0.0
H1513 H 0.167 0.83337 0.18696 0.0
H1514 H 0.2054 0.84268 0.19299 0.0
H1515 H 0.18669 0.8961 0.23496 0.0
H1516 H 0.14814 0.8873 0.22892 0.0
H1517 H 0.04889 0.80808 0.26662 0.0
H1518 H 0.07421 0.81045 0.23472 0.0
H1519 H 0.08758 0.87632 0.25214 0.0
H1520 H 0.06235 0.87415 0.28408 0.0
H1521 H 0.12467 0.85382 0.23965 0.0
H1522 H 0.05217 0.86574 0.21149 0.0
H1523 H 0.01372 0.85659 0.20542 0.0
H1524 H 0.03233 0.79932 0.16962 0.0
H1525 H 0.07092 0.80799 0.17577 0.0
C1526 C 0.15519 0.88291 0.13808 0.0
C1527 C 0.15632 0.86842 0.11968 0.0
C1528 C 0.14468 0.87729 0.15824 0.0
C1529 C 0.13524 0.85696 0.1606 0.0
C1530 C 0.13672 0.84227 0.14246 0.0
C1531 C 0.14722 0.84791 0.12223 0.0
C1532 C 0.12275 0.85162 0.18148 0.0
C1533 C 0.10103 0.84528 0.17908 0.0
C1534 C 0.13148 0.85443 0.20362 0.0
C1535 C 0.15466 0.85976 0.20734 0.0
C1536 C 0.17106 0.84721 0.19734 0.0
C1537 C 0.19285 0.85237 0.20078 0.0
C1538 C 0.19848 0.87 0.21431 0.0
C1539 C 0.18231 0.88246 0.22447 0.0
C1540 C 0.16048 0.87737 0.22107 0.0
C1541 C 0.05741 0.823 0.26389 0.0
C1542 C 0.05341 0.84099 0.27785 0.0
C1543 C 0.07183 0.82434 0.24558 0.0
C1544 C 0.08258 0.84363 0.24091 0.0
C1545 C 0.07942 0.86129 0.25542 0.0
C1546 C 0.0649 0.86003 0.27362 0.0
C1547 C 0.09618 0.84587 0.22022 0.0
C1548 C 0.11802 0.85169 0.22268 0.0
C1549 C 0.0876 0.84257 0.19812 0.0
C1550 C 0.06442 0.83738 0.19433 0.0
C1551 C 0.04806 0.8511 0.20249 0.0
C1552 C 0.02624 0.84602 0.19901 0.0
C1553 C 0.02058 0.82735 0.18721 0.0
C1554 C 0.03674 0.81375 0.1788 0.0
C1555 C 0.05858 0.81874 0.18228 0.0
H1556 H 1.00368 0.82345 0.18452 0.0
H1557 H 0.21536 0.87397 0.21695 0.0
H1558 H 0.8678 0.16453 0.60447 0.0
H1559 H 0.89077 0.16673 0.63831 0.0
H1560 H 0.83416 0.16327 0.68117 0.0
H1561 H 0.81103 0.1612 0.6473 0.0
H1562 H 0.86233 0.19165 0.69814 0.0
H1563 H 0.86542 0.11911 0.67184 0.0
H1564 H 0.87076 0.08994 0.64392 0.0
H1565 H 0.93683 0.10944 0.63437 0.0
H1566 H 0.93178 0.13893 0.66201 0.0
H1567 H 0.94363 0.1329 0.77988 0.0
H1568 H 0.91671 0.13311 0.74949 0.0
H1569 H 0.9304 0.19973 0.73673 0.0
H1570 H 0.95709 0.19981 0.76755 0.0
H1571 H 0.92168 0.13859 0.70617 0.0
H1572 H 0.88568 0.22415 0.71453 0.0
H1573 H 0.87799 0.25091 0.74454 0.0
H1574 H 0.87345 0.20086 0.79416 0.0
H1575 H 0.88081 0.17379 0.7644 0.0
C1576 C 0.86023 0.1642 0.6211 0.0
C1577 C 0.8376 0.16247 0.6232 0.0
C1578 C 0.87338 0.16549 0.64043 0.0
C1579 C 0.86423 0.16483 0.66231 0.0
C1580 C 0.84159 0.1638 0.66448 0.0
C1581 C 0.82839 0.16263 0.64511 0.0
C1582 C 0.87836 0.16452 0.68283 0.0
C1583 C 0.87532 0.18007 0.69991 0.0
C1584 C 0.89503 0.14912 0.68541 0.0
C1585 C 0.89816 0.13135 0.66884 0.0
C1586 C 0.88104 0.11728 0.66366 0.0
C1587 C 0.88402 0.10067 0.6479 0.0
C1588 C 0.90411 0.09787 0.63733 0.0
C1589 C 0.92127 0.11164 0.64255 0.0
C1590 C 0.91836 0.1283 0.65827 0.0
C1591 C 0.94083 0.14768 0.77077 0.0
C1592 C 0.9526 0.16634 0.77618 0.0
C1593 C 0.92543 0.14775 0.75333 0.0
C1594 C 0.92142 0.16644 0.74083 0.0
C1595 C 0.93293 0.18519 0.74634 0.0
C1596 C 0.94826 0.18519 0.76395 0.0
C1597 C 0.90591 0.16594 0.7214 0.0
C1598 C 0.90872 0.15021 0.70446 0.0
C1599 C 0.88873 0.18085 0.71928 0.0
C1600 C 0.88402 0.19698 0.73726 0.0
C1601 C 0.88296 0.21886 0.73182 0.0
C1602 C 0.87867 0.23407 0.74879 0.0
C1603 C 0.87531 0.22759 0.77125 0.0
C1604 C 0.87614 0.20587 0.77677 0.0
C1605 C 0.8804 0.19058 0.75987 0.0
H1606 H 0.87201 0.2394 0.78437 0.0
H1607 H 0.90639 0.085 0.62514 0.0
loop_
_geom_bond_atom_site_label_1
_geom_bond_atom_site_label_2
_geom_bond_distance
_geom_bond_site_symmetry_2
_ccdc_geom_bond_type
C0 C1 1.264 . S
C0 C5 1.479 . S
C0 C10 1.465 . S
C1 C0 1.264 . S
C1 C3 1.339 . S
C1 H28 0.931 1_556 S
C2 C3 1.395 . S
C2 C4 1.320 . S
C3 C1 1.339 . S
C3 C2 1.395 . S
C3 H29 0.929 . S
C4 C2 1.320 . S
C4 C5 1.405 . S
C4 H30 0.930 . S
C5 C0 1.479 . S
C5 C4 1.405 . S
C5 H31 0.931 . S
U6 O7 2.454 1_554 S
U6 O8 2.458 . S
U6 C9 2.984 1_554 S
U6 C10 2.847 1_554 S
U6 C23 2.882 . S
U6 O24 2.441 1_554 S
U6 O25 2.420 . S
U6 O26 2.455 . S
U6 O27 2.449 . S
O7 U6 2.454 1_556 S
O7 C9 1.353 . S
O8 U6 2.458 . S
O8 C9 1.286 1_554 S
C9 U6 2.984 1_556 S
C9 O7 1.353 . S
C9 O8 1.286 1_556 S
C9 C11 1.363 . S
C10 C0 1.465 . S
C10 U6 2.847 1_556 S
C10 O24 1.249 . S
C10 O25 1.202 1_556 S
C11 C9 1.363 . S
C11 C13 1.408 . S
C11 C16 1.342 . S
C12 C13 1.310 . S
C12 C15 1.461 . S
C12 H32 0.932 . S
C13 C11 1.408 . S
C13 C12 1.310 . S
C13 H33 0.930 . S
C14 C15 1.474 . S
C14 C16 1.285 . S
C14 H34 0.929 . S
C15 C12 1.461 . S
C15 C14 1.474 . S
C16 C11 1.342 . S
C16 C14 1.285 . S
C16 H35 0.930 1_556 S
C17 C20 1.424 . S
C17 C22 1.245 . S
C17 C23 1.428 . S
C18 C21 1.260 . S
C18 C22 1.477 . S
C18 H36 0.932 . S
C19 C20 1.384 . S
C19 C21 1.479 . S
C19 H37 0.929 . S
C20 C17 1.424 . S
C20 C19 1.384 . S
C20 H38 0.928 . S
C21 C18 1.260 . S
C21 C19 1.479 . S
C22 C17 1.245 . S
C22 C18 1.477 . S
C22 H39 0.932 . S
C23 U6 2.882 . S
C23 C17 1.428 . S
C23 O26 1.301 . S
C23 O27 1.282 . S
O24 U6 2.441 1_556 S
O24 C10 1.249 . S
O25 U6 2.420 . S
O25 C10 1.202 1_554 S
O26 U6 2.455 . S
O26 C23 1.301 . S
O27 U6 2.449 . S
O27 C23 1.282 . S
H28 C1 0.931 1_554 S
H29 C3 0.929 . S
H30 C4 0.930 . S
H31 C5 0.931 . S
H32 C12 0.932 . S
H33 C13 0.930 . S
H34 C14 0.929 . S
H35 C16 0.930 1_554 S
H36 C18 0.932 . S
H37 C19 0.929 . S
H38 C20 0.928 . S
H39 C22 0.932 . S
C40 C41 1.264 . S
C40 C45 1.479 . S
C40 C50 1.465 . S
C41 C40 1.264 . S
C41 C43 1.339 . S
C41 H68 0.931 . S
C42 C43 1.395 . S
C42 C44 1.320 . S
C43 C41 1.339 . S
C43 C42 1.395 . S
C43 H69 0.929 . S
C44 C42 1.320 . S
C44 C45 1.405 . S
C44 H70 0.930 . S
C45 C40 1.479 . S
C45 C44 1.405 . S
C45 H71 0.931 . S
U46 O47 2.454 . S
U46 O48 2.458 . S
U46 C49 2.984 . S
U46 C50 2.847 . S
U46 C63 2.882 . S
U46 O64 2.441 . S
U46 O65 2.420 . S
U46 O66 2.455 . S
U46 O67 2.449 . S
O47 U46 2.454 . S
O47 C49 1.353 . S
O48 U46 2.458 . S
O48 C49 1.286 . S
C49 U46 2.984 . S
C49 O47 1.353 . S
C49 O48 1.286 . S
C49 C51 1.363 . S
C50 C40 1.465 . S
C50 U46 2.847 . S
C50 O64 1.249 . S
C50 O65 1.202 . S
C51 C49 1.363 . S
C51 C53 1.408 . S
C51 C56 1.342 . S
C52 C53 1.310 . S
C52 C55 1.461 . S
C52 H72 0.932 . S
C53 C51 1.408 . S
C53 C52 1.310 . S
C53 H73 0.930 . S
C54 C55 1.474 . S
C54 C56 1.285 . S
C54 H74 0.929 . S
C55 C52 1.461 . S
C55 C54 1.474 . S
C56 C51 1.342 . S
C56 C54 1.285 . S
C56 H75 0.930 . S
C57 C60 1.424 . S
C57 C62 1.245 . S
C57 C63 1.428 . S
C58 C61 1.260 . S
C58 C62 1.477 . S
C58 H76 0.932 . S
C59 C60 1.384 . S
C59 C61 1.479 . S
C59 H77 0.929 . S
C60 C57 1.424 . S
C60 C59 1.384 . S
C60 H78 0.928 . S
C61 C58 1.260 . S
C61 C59 1.479 . S
C62 C57 1.245 . S
C62 C58 1.477 . S
C62 H79 0.932 . S
C63 U46 2.882 . S
C63 C57 1.428 . S
C63 O66 1.301 . S
C63 O67 1.282 . S
O64 U46 2.441 . S
O64 C50 1.249 . S
O65 U46 2.420 . S
O65 C50 1.202 . S
O66 U46 2.455 . S
O66 C63 1.301 . S
O67 U46 2.449 . S
O67 C63 1.282 . S
H68 C41 0.931 . S
H69 C43 0.929 . S
H70 C44 0.930 . S
H71 C45 0.931 . S
H72 C52 0.932 . S
H73 C53 0.930 . S
H74 C54 0.929 . S
H75 C56 0.930 . S
H76 C58 0.932 . S
H77 C59 0.929 . S
H78 C60 0.928 . S
H79 C62 0.932 . S
C80 C81 1.264 . S
C80 C85 1.479 . S
C80 C90 1.465 . S
C81 C80 1.264 . S
C81 C83 1.339 . S
C81 H108 0.931 . S
C82 C83 1.395 . S
C82 C84 1.320 . S
C83 C81 1.339 . S
C83 C82 1.395 . S
C83 H109 0.929 . S
C84 C82 1.320 . S
C84 C85 1.405 . S
C84 H110 0.930 . S
C85 C80 1.479 . S
C85 C84 1.405 . S
C85 H111 0.931 . S
U86 O87 2.454 1_554 S
U86 O88 2.458 . S
U86 C89 2.984 1_554 S
U86 C90 2.847 1_554 S
U86 C103 2.882 . S
U86 O104 2.441 1_554 S
U86 O105 2.420 1_554 S
U86 O106 2.455 . S
U86 O107 2.449 . S
O87 U86 2.454 1_556 S
O87 C89 1.353 . S
O88 U86 2.458 . S
O88 C89 1.286 1_554 S
C89 U86 2.984 1_556 S
C89 O87 1.353 . S
C89 O88 1.286 1_556 S
C89 C91 1.363 . S
C90 C80 1.465 . S
C90 U86 2.847 1_556 S
C90 O104 1.249 . S
C90 O105 1.202 . S
C91 C89 1.363 . S
C91 C93 1.408 . S
C91 C96 1.342 . S
C92 C93 1.310 . S
C92 C95 1.461 . S
C92 H112 0.932 . S
C93 C91 1.408 . S
C93 C92 1.310 . S
C93 H113 0.930 . S
C94 C95 1.474 . S
C94 C96 1.285 . S
C94 H114 0.935 . S
C95 C92 1.461 . S
C95 C94 1.474 . S
C96 C91 1.342 . S
C96 C94 1.285 . S
C96 H115 0.930 1_556 S
C97 C100 1.424 . S
C97 C102 1.245 . S
C97 C103 1.428 . S
C98 C101 1.260 . S
C98 C102 1.477 . S
C98 H116 0.932 . S
C99 C100 1.384 . S
C99 C101 1.479 . S
C99 H117 0.929 . S
C100 C97 1.424 . S
C100 C99 1.384 . S
C100 H118 0.928 . S
C101 C98 1.260 . S
C101 C99 1.479 . S
C102 C97 1.245 . S
C102 C98 1.477 . S
C102 H119 0.932 . S
C103 U86 2.882 . S
C103 C97 1.428 . S
C103 O106 1.301 . S
C103 O107 1.282 . S
O104 U86 2.441 1_556 S
O104 C90 1.249 . S
O105 U86 2.420 1_556 S
O105 C90 1.202 . S
O106 U86 2.455 . S
O106 C103 1.301 . S
O107 U86 2.449 . S
O107 C103 1.282 . S
H108 C81 0.931 . S
H109 C83 0.929 . S
H110 C84 0.930 . S
H111 C85 0.931 . S
H112 C92 0.932 . S
H113 C93 0.930 . S
H114 C94 0.935 . S
H115 C96 0.930 1_554 S
H116 C98 0.932 . S
H117 C99 0.929 . S
H118 C100 0.928 . S
H119 C102 0.932 . S
C120 C121 1.264 . S
C120 C125 1.479 . S
C120 C130 1.465 . S
C121 C120 1.264 . S
C121 C123 1.339 . S
C121 H148 0.931 . S
C122 C123 1.395 . S
C122 C124 1.320 . S
C123 C121 1.339 . S
C123 C122 1.395 . S
C123 H149 0.929 . S
C124 C122 1.320 . S
C124 C125 1.405 . S
C124 H150 0.930 . S
C125 C120 1.479 . S
C125 C124 1.405 . S
C125 H151 0.931 . S
U126 O127 2.454 . S
U126 O128 2.458 . S
U126 C129 2.984 . S
U126 C130 2.847 . S
U126 C143 2.882 . S
U126 O144 2.441 . S
U126 O145 2.420 . S
U126 O146 2.455 . S
U126 O147 2.449 . S
O127 U126 2.454 . S
O127 C129 1.353 . S
O128 U126 2.458 . S
O128 C129 1.286 . S
C129 U126 2.984 . S
C129 O127 1.353 . S
C129 O128 1.286 . S
C129 C131 1.363 . S
C130 C120 1.465 . S
C130 U126 2.847 . S
C130 O144 1.249 . S
C130 O145 1.202 . S
C131 C129 1.363 . S
C131 C133 1.408 . S
C131 C136 1.342 . S
C132 C133 1.310 . S
C132 C135 1.461 . S
C132 H152 0.932 . S
C133 C131 1.408 . S
C133 C132 1.310 . S
C133 H153 0.930 . S
C134 C135 1.474 . S
C134 C136 1.285 . S
C134 H154 0.929 . S
C135 C132 1.461 . S
C135 C134 1.474 . S
C136 C131 1.342 . S
C136 C134 1.285 . S
C136 H155 0.930 . S
C137 C140 1.424 . S
C137 C142 1.245 . S
C137 C143 1.428 . S
C138 C141 1.260 . S
C138 C142 1.477 . S
C138 H156 0.932 . S
C139 C140 1.384 . S
C139 C141 1.479 . S
C139 H157 0.929 . S
C140 C137 1.424 . S
C140 C139 1.384 . S
C140 H158 0.928 . S
C141 C138 1.260 . S
C141 C139 1.479 . S
C142 C137 1.245 . S
C142 C138 1.477 . S
C142 H159 0.932 . S
C143 U126 2.882 . S
C143 C137 1.428 . S
C143 O146 1.301 . S
C143 O147 1.282 . S
O144 U126 2.441 . S
O144 C130 1.249 . S
O145 U126 2.420 . S
O145 C130 1.202 . S
O146 U126 2.455 . S
O146 C143 1.301 . S
O147 U126 2.449 . S
O147 C143 1.282 . S
H148 C121 0.931 . S
H149 C123 0.929 . S
H150 C124 0.930 . S
H151 C125 0.931 . S
H152 C132 0.932 . S
H153 C133 0.930 . S
H154 C134 0.929 . S
H155 C136 0.930 . S
H156 C138 0.932 . S
H157 C139 0.929 . S
H158 C140 0.928 . S
H159 C142 0.932 . S
C160 C161 1.264 . S
C160 C165 1.479 . S
C160 C170 1.465 . S
C161 C160 1.264 . S
C161 C163 1.339 . S
C161 H188 0.931 1_556 S
C162 C163 1.395 . S
C162 C164 1.320 . S
C163 C161 1.339 . S
C163 C162 1.395 . S
C163 H189 0.929 . S
C164 C162 1.320 . S
C164 C165 1.405 . S
C164 H190 0.930 . S
C165 C160 1.479 . S
C165 C164 1.405 . S
C165 H191 0.931 . S
U166 O167 2.454 1_554 S
U166 O168 2.458 . S
U166 C169 2.984 1_554 S
U166 C170 2.847 1_554 S
U166 C183 2.882 . S
U166 O184 2.441 1_554 S
U166 O185 2.420 . S
U166 O186 2.455 . S
U166 O187 2.449 . S
O167 U166 2.454 1_556 S
O167 C169 1.353 . S
O168 U166 2.458 . S
O168 C169 1.286 1_554 S
C169 U166 2.984 1_556 S
C169 O167 1.353 . S
C169 O168 1.286 1_556 S
C169 C171 1.363 . S
C170 C160 1.465 . S
C170 U166 2.847 1_556 S
C170 O184 1.249 . S
C170 O185 1.202 1_556 S
C171 C169 1.363 . S
C171 C173 1.408 . S
C171 C176 1.342 . S
C172 C173 1.310 . S
C172 C175 1.461 . S
C172 H192 0.932 . S
C173 C171 1.408 . S
C173 C172 1.310 . S
C173 H193 0.930 . S
C174 C175 1.474 . S
C174 C176 1.285 . S
C174 H194 0.929 . S
C175 C172 1.461 . S
C175 C174 1.474 . S
C176 C171 1.342 . S
C176 C174 1.285 . S
C176 H195 0.930 1_556 S
C177 C180 1.424 . S
C177 C182 1.245 . S
C177 C183 1.428 . S
C178 C181 1.260 . S
C178 C182 1.477 . S
C178 H196 0.932 . S
C179 C180 1.384 . S
C179 C181 1.479 . S
C179 H197 0.929 . S
C180 C177 1.424 . S
C180 C179 1.384 . S
C180 H198 0.928 . S
C181 C178 1.260 . S
C181 C179 1.479 . S
C182 C177 1.245 . S
C182 C178 1.477 . S
C182 H199 0.932 . S
C183 U166 2.882 . S
C183 C177 1.428 . S
C183 O186 1.301 . S
C183 O187 1.282 . S
O184 U166 2.441 1_556 S
O184 C170 1.249 . S
O185 U166 2.420 . S
O185 C170 1.202 1_554 S
O186 U166 2.455 . S
O186 C183 1.301 . S
O187 U166 2.449 . S
O187 C183 1.282 . S
H188 C161 0.931 1_554 S
H189 C163 0.929 . S
H190 C164 0.930 . S
H191 C165 0.931 . S
H192 C172 0.932 . S
H193 C173 0.930 . S
H194 C174 0.929 . S
H195 C176 0.930 1_554 S
H196 C178 0.932 . S
H197 C179 0.929 . S
H198 C180 0.928 . S
H199 C182 0.932 . S
C200 C201 1.264 . S
C200 C205 1.479 . S
C200 C210 1.465 . S
C201 C200 1.264 . S
C201 C203 1.339 . S
C201 H228 0.931 . S
C202 C203 1.395 . S
C202 C204 1.320 . S
C203 C201 1.339 . S
C203 C202 1.395 . S
C203 H229 0.929 . S
C204 C202 1.320 . S
C204 C205 1.405 . S
C204 H230 0.930 . S
C205 C200 1.479 . S
C205 C204 1.405 . S
C205 H231 0.931 . S
U206 O207 2.454 . S
U206 O208 2.458 . S
U206 C209 2.984 . S
U206 C210 2.847 . S
U206 C223 2.882 . S
U206 O224 2.441 . S
U206 O225 2.420 . S
U206 O226 2.455 . S
U206 O227 2.449 . S
O207 U206 2.454 . S
O207 C209 1.353 . S
O208 U206 2.458 . S
O208 C209 1.286 . S
C209 U206 2.984 . S
C209 O207 1.353 . S
C209 O208 1.286 . S
C209 C211 1.363 . S
C210 C200 1.465 . S
C210 U206 2.847 . S
C210 O224 1.249 . S
C210 O225 1.202 . S
C211 C209 1.363 . S
C211 C213 1.408 . S
C211 C216 1.342 . S
C212 C213 1.310 . S
C212 C215 1.461 . S
C212 H232 0.932 . S
C213 C211 1.408 . S
C213 C212 1.310 . S
C213 H233 0.930 . S
C214 C215 1.474 . S
C214 C216 1.285 . S
C214 H234 0.929 . S
C215 C212 1.461 . S
C215 C214 1.474 . S
C216 C211 1.342 . S
C216 C214 1.285 . S
C216 H235 0.930 . S
C217 C220 1.424 . S
C217 C222 1.245 . S
C217 C223 1.428 . S
C218 C221 1.260 . S
C218 C222 1.477 . S
C218 H236 0.932 . S
C219 C220 1.384 . S
C219 C221 1.479 . S
C219 H237 0.929 . S
C220 C217 1.424 . S
C220 C219 1.384 . S
C220 H238 0.928 . S
C221 C218 1.260 . S
C221 C219 1.479 . S
C222 C217 1.245 . S
C222 C218 1.477 . S
C222 H239 0.932 . S
C223 U206 2.882 . S
C223 C217 1.428 . S
C223 O226 1.301 . S
C223 O227 1.282 . S
O224 U206 2.441 . S
O224 C210 1.249 . S
O225 U206 2.420 . S
O225 C210 1.202 . S
O226 U206 2.455 . S
O226 C223 1.301 . S
O227 U206 2.449 . S
O227 C223 1.282 . S
H228 C201 0.931 . S
H229 C203 0.929 . S
H230 C204 0.930 . S
H231 C205 0.931 . S
H232 C212 0.932 . S
H233 C213 0.930 . S
H234 C214 0.929 . S
H235 C216 0.930 . S
H236 C218 0.932 . S
H237 C219 0.929 . S
H238 C220 0.928 . S
H239 C222 0.932 . S
C240 C241 1.264 . S
C240 C245 1.479 . S
C240 C250 1.465 . S
C241 C240 1.264 . S
C241 C243 1.339 . S
C241 H268 0.931 . S
C242 C243 1.395 . S
C242 C244 1.320 . S
C243 C241 1.339 . S
C243 C242 1.395 . S
C243 H269 0.929 . S
C244 C242 1.320 . S
C244 C245 1.405 . S
C244 H270 0.930 . S
C245 C240 1.479 . S
C245 C244 1.405 . S
C245 H271 0.931 . S
U246 O247 2.454 1_554 S
U246 O248 2.458 . S
U246 C249 2.984 1_554 S
U246 C250 2.847 1_554 S
U246 C263 2.882 . S
U246 O264 2.441 1_554 S
U246 O265 2.420 1_554 S
U246 O266 2.455 . S
U246 O267 2.449 . S
O247 U246 2.454 1_556 S
O247 C249 1.353 . S
O248 U246 2.458 . S
O248 C249 1.286 1_554 S
C249 U246 2.984 1_556 S
C249 O247 1.353 . S
C249 O248 1.286 1_556 S
C249 C251 1.363 . S
C250 C240 1.465 . S
C250 U246 2.847 1_556 S
C250 O264 1.249 . S
C250 O265 1.202 . S
C251 C249 1.363 . S
C251 C253 1.408 . S
C251 C256 1.342 . S
C252 C253 1.310 . S
C252 C255 1.461 . S
C252 H272 0.932 . S
C253 C251 1.408 . S
C253 C252 1.310 . S
C253 H273 0.930 . S
C254 C255 1.474 . S
C254 C256 1.285 . S
C254 H274 0.935 . S
C255 C252 1.461 . S
C255 C254 1.474 . S
C256 C251 1.342 . S
C256 C254 1.285 . S
C256 H275 0.930 1_556 S
C257 C260 1.424 . S
C257 C262 1.245 . S
C257 C263 1.428 . S
C258 C261 1.260 . S
C258 C262 1.477 . S
C258 H276 0.932 . S
C259 C260 1.384 . S
C259 C261 1.479 . S
C259 H277 0.929 . S
C260 C257 1.424 . S
C260 C259 1.384 . S
C260 H278 0.928 . S
C261 C258 1.260 . S
C261 C259 1.479 . S
C262 C257 1.245 . S
C262 C258 1.477 . S
C262 H279 0.932 . S
C263 U246 2.882 . S
C263 C257 1.428 . S
C263 O266 1.301 . S
C263 O267 1.282 . S
O264 U246 2.441 1_556 S
O264 C250 1.249 . S
O265 U246 2.420 1_556 S
O265 C250 1.202 . S
O266 U246 2.455 . S
O266 C263 1.301 . S
O267 U246 2.449 . S
O267 C263 1.282 . S
H268 C241 0.931 . S
H269 C243 0.929 . S
H270 C244 0.930 . S
H271 C245 0.931 . S
H272 C252 0.932 . S
H273 C253 0.930 . S
H274 C254 0.935 . S
H275 C256 0.930 1_554 S
H276 C258 0.932 . S
H277 C259 0.929 . S
H278 C260 0.928 . S
H279 C262 0.932 . S
C280 C281 1.264 . S
C280 C285 1.479 . S
C280 C290 1.465 . S
C281 C280 1.264 . S
C281 C283 1.339 . S
C281 H308 0.931 . S
C282 C283 1.395 . S
C282 C284 1.320 . S
C283 C281 1.339 . S
C283 C282 1.395 . S
C283 H309 0.929 . S
C284 C282 1.320 . S
C284 C285 1.405 . S
C284 H310 0.930 . S
C285 C280 1.479 . S
C285 C284 1.405 . S
C285 H311 0.931 . S
U286 O287 2.454 . S
U286 O288 2.458 . S
U286 C289 2.984 . S
U286 C290 2.847 . S
U286 C303 2.882 . S
U286 O304 2.441 . S
U286 O305 2.420 . S
U286 O306 2.455 . S
U286 O307 2.449 . S
O287 U286 2.454 . S
O287 C289 1.353 . S
O288 U286 2.458 . S
O288 C289 1.286 . S
C289 U286 2.984 . S
C289 O287 1.353 . S
C289 O288 1.286 . S
C289 C291 1.363 . S
C290 C280 1.465 . S
C290 U286 2.847 . S
C290 O304 1.249 . S
C290 O305 1.202 . S
C291 C289 1.363 . S
C291 C293 1.408 . S
C291 C296 1.342 . S
C292 C293 1.310 . S
C292 C295 1.461 . S
C292 H312 0.932 . S
C293 C291 1.408 . S
C293 C292 1.310 . S
C293 H313 0.930 . S
C294 C295 1.474 . S
C294 C296 1.285 . S
C294 H314 0.929 . S
C295 C292 1.461 . S
C295 C294 1.474 . S
C296 C291 1.342 . S
C296 C294 1.285 . S
C296 H315 0.930 . S
C297 C300 1.424 . S
C297 C302 1.245 . S
C297 C303 1.428 . S
C298 C301 1.260 . S
C298 C302 1.477 . S
C298 H316 0.932 . S
C299 C300 1.384 . S
C299 C301 1.479 . S
C299 H317 0.929 . S
C300 C297 1.424 . S
C300 C299 1.384 . S
C300 H318 0.928 . S
C301 C298 1.260 . S
C301 C299 1.479 . S
C302 C297 1.245 . S
C302 C298 1.477 . S
C302 H319 0.932 . S
C303 U286 2.882 . S
C303 C297 1.428 . S
C303 O306 1.301 . S
C303 O307 1.282 . S
O304 U286 2.441 . S
O304 C290 1.249 . S
O305 U286 2.420 . S
O305 C290 1.202 . S
O306 U286 2.455 . S
O306 C303 1.301 . S
O307 U286 2.449 . S
O307 C303 1.282 . S
H308 C281 0.931 . S
H309 C283 0.929 . S
H310 C284 0.930 . S
H311 C285 0.931 . S
H312 C292 0.932 . S
H313 C293 0.930 . S
H314 C294 0.929 . S
H315 C296 0.930 . S
H316 C298 0.932 . S
H317 C299 0.929 . S
H318 C300 0.928 . S
H319 C302 0.932 . S
Sc320 O323 2.025 . S
Sc320 O330 2.105 1_455 S
Sc320 O333 2.105 . S
Sc320 O336 2.105 . S
Sc320 O339 2.105 1_455 S
Sc321 O323 2.025 . S
Sc321 O331 2.105 1_455 S
Sc321 O335 2.105 . S
Sc321 O337 2.105 . S
Sc321 O341 2.105 1_455 S
Sc322 O323 2.025 . S
Sc322 O332 2.105 1_455 S
Sc322 O334 2.105 . S
Sc322 O338 2.105 . S
Sc322 O340 2.105 1_455 S
O323 Sc320 2.025 . S
O323 Sc321 2.025 . S
O323 Sc322 2.025 . S
C324 O330 1.268 . S
C324 O340 1.268 . S
C325 O331 1.268 . S
C325 O339 1.268 . S
C326 O332 1.268 . S
C326 O341 1.268 . S
C327 O333 1.268 . S
C327 O337 1.268 . S
C328 O334 1.268 . S
C328 O336 1.268 . S
C329 O335 1.268 . S
C329 O338 1.268 . S
O330 Sc320 2.105 1_655 S
O330 C324 1.268 . S
O331 Sc321 2.105 1_655 S
O331 C325 1.268 . S
O332 Sc322 2.105 1_655 S
O332 C326 1.268 . S
O333 Sc320 2.105 . S
O333 C327 1.268 . S
O334 Sc322 2.105 . S
O334 C328 1.268 . S
O335 Sc321 2.105 . S
O335 C329 1.268 . S
O336 Sc320 2.105 . S
O336 C328 1.268 . S
O337 Sc321 2.105 . S
O337 C327 1.268 . S
O338 Sc322 2.105 . S
O338 C329 1.268 . S
O339 Sc320 2.105 1_655 S
O339 C325 1.268 . S
O340 Sc322 2.105 1_655 S
O340 C324 1.268 . S
O341 Sc321 2.105 1_655 S
O341 C326 1.268 . S
Sc342 O345 2.025 . S
Sc342 O352 2.105 . S
Sc342 O355 2.105 1_455 S
Sc342 O358 2.105 1_455 S
Sc342 O361 2.105 . S
Sc343 O345 2.025 . S
Sc343 O353 2.105 . S
Sc343 O357 2.105 1_455 S
Sc343 O359 2.105 1_455 S
Sc343 O363 2.105 . S
Sc344 O345 2.025 . S
Sc344 O354 2.105 . S
Sc344 O356 2.105 1_455 S
Sc344 O360 2.105 1_455 S
Sc344 O362 2.105 . S
O345 Sc342 2.025 . S
O345 Sc343 2.025 . S
O345 Sc344 2.025 . S
C346 O352 1.268 . S
C346 O362 1.268 . S
C347 O353 1.268 . S
C347 O361 1.268 . S
C348 O354 1.268 . S
C348 O363 1.268 . S
C349 O355 1.268 . S
C349 O359 1.268 . S
C350 O356 1.268 . S
C350 O358 1.268 . S
C351 O357 1.268 . S
C351 O360 1.268 . S
O352 Sc342 2.105 . S
O352 C346 1.268 . S
O353 Sc343 2.105 . S
O353 C347 1.268 . S
O354 Sc344 2.105 . S
O354 C348 1.268 . S
O355 Sc342 2.105 1_655 S
O355 C349 1.268 . S
O356 Sc344 2.105 1_655 S
O356 C350 1.268 . S
O357 Sc343 2.105 1_655 S
O357 C351 1.268 . S
O358 Sc342 2.105 1_655 S
O358 C350 1.268 . S
O359 Sc343 2.105 1_655 S
O359 C349 1.268 . S
O360 Sc344 2.105 1_655 S
O360 C351 1.268 . S
O361 Sc342 2.105 . S
O361 C347 1.268 . S
O362 Sc344 2.105 . S
O362 C346 1.268 . S
O363 Sc343 2.105 . S
O363 C348 1.268 . S
Sc364 O367 2.025 . S
Sc364 O374 2.105 . S
Sc364 O377 2.105 . S
Sc364 O380 2.105 . S
Sc364 O383 2.105 . S
Sc365 O367 2.025 . S
Sc365 O375 2.105 . S
Sc365 O379 2.105 . S
Sc365 O381 2.105 . S
Sc365 O385 2.105 . S
Sc366 O367 2.025 . S
Sc366 O376 2.105 . S
Sc366 O378 2.105 . S
Sc366 O382 2.105 . S
Sc366 O384 2.105 . S
O367 Sc364 2.025 . S
O367 Sc365 2.025 . S
O367 Sc366 2.025 . S
C368 O374 1.268 . S
C368 O384 1.268 . S
C369 O375 1.268 . S
C369 O383 1.268 . S
C370 O376 1.268 . S
C370 O385 1.268 . S
C371 O377 1.268 . S
C371 O381 1.268 . S
C372 O378 1.268 . S
C372 O380 1.268 . S
C373 O379 1.268 . S
C373 O382 1.268 . S
O374 Sc364 2.105 . S
O374 C368 1.268 . S
O375 Sc365 2.105 . S
O375 C369 1.268 . S
O376 Sc366 2.105 . S
O376 C370 1.268 . S
O377 Sc364 2.105 . S
O377 C371 1.268 . S
O378 Sc366 2.105 . S
O378 C372 1.268 . S
O379 Sc365 2.105 . S
O379 C373 1.268 . S
O380 Sc364 2.105 . S
O380 C372 1.268 . S
O381 Sc365 2.105 . S
O381 C371 1.268 . S
O382 Sc366 2.105 . S
O382 C373 1.268 . S
O383 Sc364 2.105 . S
O383 C369 1.268 . S
O384 Sc366 2.105 . S
O384 C368 1.268 . S
O385 Sc365 2.105 . S
O385 C370 1.268 . S
Sc386 O389 2.025 . S
Sc386 O396 2.105 . S
Sc386 O399 2.105 . S
Sc386 O402 2.105 . S
Sc386 O405 2.105 . S
Sc387 O389 2.025 . S
Sc387 O397 2.105 . S
Sc387 O401 2.105 . S
Sc387 O403 2.105 . S
Sc387 O407 2.105 . S
Sc388 O389 2.025 . S
Sc388 O398 2.105 . S
Sc388 O400 2.105 . S
Sc388 O404 2.105 . S
Sc388 O406 2.105 . S
O389 Sc386 2.025 . S
O389 Sc387 2.025 . S
O389 Sc388 2.025 . S
C390 O396 1.268 . S
C390 O406 1.268 . S
C391 O397 1.268 . S
C391 O405 1.268 . S
C392 O398 1.268 . S
C392 O407 1.268 . S
C393 O399 1.268 . S
C393 O403 1.268 . S
C394 O400 1.268 . S
C394 O402 1.268 . S
C395 O401 1.268 . S
C395 O404 1.268 . S
O396 Sc386 2.105 . S
O396 C390 1.268 . S
O397 Sc387 2.105 . S
O397 C391 1.268 . S
O398 Sc388 2.105 . S
O398 C392 1.268 . S
O399 Sc386 2.105 . S
O399 C393 1.268 . S
O400 Sc388 2.105 . S
O400 C394 1.268 . S
O401 Sc387 2.105 . S
O401 C395 1.268 . S
O402 Sc386 2.105 . S
O402 C394 1.268 . S
O403 Sc387 2.105 . S
O403 C393 1.268 . S
O404 Sc388 2.105 . S
O404 C395 1.268 . S
O405 Sc386 2.105 . S
O405 C391 1.268 . S
O406 Sc388 2.105 . S
O406 C390 1.268 . S
O407 Sc387 2.105 . S
O407 C392 1.268 . S
H408 C426 0.951 . S
H409 C428 0.951 . S
H410 C430 0.950 . S
H411 C431 0.950 . S
H412 C433 0.950 . S
H413 C436 0.950 . S
H414 C437 0.950 . S
H415 C439 0.950 1_554 S
H416 C440 0.950 . S
H417 C441 0.951 . S
H418 C443 0.951 . S
H419 C445 0.950 . S
H420 C446 0.950 . S
H421 C448 0.950 . S
H422 C451 0.950 . S
H423 C452 0.950 . S
H424 C454 0.950 . S
H425 C455 0.950 . S
C426 H408 0.951 . S
C426 C427 1.366 . S
C426 C428 1.388 . S
C427 C426 1.366 . S
C427 C431 1.385 . S
C428 H409 0.951 . S
C428 C426 1.388 . S
C428 C429 1.366 . S
C429 C428 1.366 . S
C429 C430 1.414 . S
C429 C432 1.499 . S
C430 H410 0.950 . S
C430 C429 1.414 . S
C430 C431 1.374 . S
C431 H411 0.950 . S
C431 C427 1.385 . S
C431 C430 1.374 . S
C432 C429 1.499 . S
C432 C433 1.373 . S
C432 C434 1.389 . S
C433 H412 0.950 . S
C433 C432 1.373 . S
C433 C449 1.377 . S
C434 C432 1.389 . S
C434 C435 1.524 . S
C434 C448 1.377 . S
C435 C434 1.524 . S
C435 C436 1.397 . S
C435 C440 1.363 . S
C436 H413 0.950 . S
C436 C435 1.397 . S
C436 C437 1.334 . S
C437 H414 0.950 . S
C437 C436 1.334 . S
C437 C438 1.314 . S
C438 C437 1.314 . S
C438 C439 1.536 . S
C438 H457 0.869 1_556 S
C439 H415 0.950 1_556 S
C439 C438 1.536 . S
C439 C440 1.415 . S
C440 H416 0.950 . S
C440 C435 1.363 . S
C440 C439 1.415 . S
C441 H417 0.951 . S
C441 C442 1.366 . S
C441 C443 1.388 . S
C442 C441 1.366 . S
C442 C446 1.385 . S
C443 H418 0.951 . S
C443 C441 1.388 . S
C443 C444 1.366 . S
C444 C443 1.366 . S
C444 C445 1.414 . S
C444 C447 1.499 . S
C445 H419 0.950 . S
C445 C444 1.414 . S
C445 C446 1.374 . S
C446 H420 0.950 . S
C446 C442 1.385 . S
C446 C445 1.374 . S
C447 C444 1.499 . S
C447 C448 1.373 . S
C447 C449 1.389 . S
C448 H421 0.950 . S
C448 C434 1.377 . S
C448 C447 1.373 . S
C449 C433 1.377 . S
C449 C447 1.389 . S
C449 C450 1.524 . S
C450 C449 1.524 . S
C450 C451 1.397 . S
C450 C455 1.363 . S
C451 H422 0.950 . S
C451 C450 1.397 . S
C451 C452 1.334 . S
C452 H423 0.950 . S
C452 C451 1.334 . S
C452 C453 1.287 . S
C453 C452 1.287 . S
C453 C454 1.524 . S
C453 H456 0.999 . S
C454 H424 0.950 . S
C454 C453 1.524 . S
C454 C455 1.415 . S
C455 H425 0.950 . S
C455 C450 1.363 . S
C455 C454 1.415 . S
H456 C453 0.999 . S
H457 C438 0.869 1_554 S
H458 C476 0.951 . S
H459 C478 0.951 . S
H460 C480 0.950 . S
H461 C481 0.950 . S
H462 C483 0.950 . S
H463 C486 0.950 . S
H464 C487 0.950 . S
H465 C489 0.950 . S
H466 C490 0.950 . S
H467 C491 0.951 . S
H468 C493 0.951 . S
H469 C495 0.950 . S
H470 C496 0.950 . S
H471 C498 0.950 . S
H472 C501 0.950 . S
H473 C502 0.950 . S
H474 C504 0.950 . S
H475 C505 0.950 . S
C476 H458 0.951 . S
C476 C477 1.366 . S
C476 C478 1.388 . S
C477 C476 1.366 . S
C477 C481 1.385 . S
C478 H459 0.951 . S
C478 C476 1.388 . S
C478 C479 1.366 . S
C479 C478 1.366 . S
C479 C480 1.414 . S
C479 C482 1.499 . S
C480 H460 0.950 . S
C480 C479 1.414 . S
C480 C481 1.374 . S
C481 H461 0.950 . S
C481 C477 1.385 . S
C481 C480 1.374 . S
C482 C479 1.499 . S
C482 C483 1.373 . S
C482 C484 1.389 . S
C483 H462 0.950 . S
C483 C482 1.373 . S
C483 C499 1.377 . S
C484 C482 1.389 . S
C484 C485 1.524 . S
C484 C498 1.377 . S
C485 C484 1.524 . S
C485 C486 1.397 . S
C485 C490 1.363 . S
C486 H463 0.950 . S
C486 C485 1.397 . S
C486 C487 1.334 . S
C487 H464 0.950 . S
C487 C486 1.334 . S
C487 C488 1.287 . S
C488 C487 1.287 . S
C488 C489 1.524 . S
C488 H507 0.913 . S
C489 H465 0.950 . S
C489 C488 1.524 . S
C489 C490 1.415 . S
C490 H466 0.950 . S
C490 C485 1.363 . S
C490 C489 1.415 . S
C491 H467 0.951 . S
C491 C492 1.366 . S
C491 C493 1.388 . S
C492 C491 1.366 . S
C492 C496 1.385 . S
C493 H468 0.951 . S
C493 C491 1.388 . S
C493 C494 1.366 . S
C494 C493 1.366 . S
C494 C495 1.414 . S
C494 C497 1.499 . S
C495 H469 0.950 . S
C495 C494 1.414 . S
C495 C496 1.374 . S
C496 H470 0.950 . S
C496 C492 1.385 . S
C496 C495 1.374 . S
C497 C494 1.499 . S
C497 C498 1.373 . S
C497 C499 1.389 . S
C498 H471 0.950 . S
C498 C484 1.377 . S
C498 C497 1.373 . S
C499 C483 1.377 . S
C499 C497 1.389 . S
C499 C500 1.524 . S
C500 C499 1.524 . S
C500 C501 1.397 . S
C500 C505 1.363 . S
C501 H472 0.950 . S
C501 C500 1.397 . S
C501 C502 1.334 . S
C502 H473 0.950 . S
C502 C501 1.334 . S
C502 C503 1.287 . S
C503 C502 1.287 . S
C503 C504 1.524 . S
C503 H506 0.999 . S
C504 H474 0.950 . S
C504 C503 1.524 . S
C504 C505 1.415 . S
C505 H475 0.950 . S
C505 C500 1.363 . S
C505 C504 1.415 . S
H506 C503 0.999 . S
H507 C488 0.913 . S
H508 C526 0.951 . S
H509 C528 0.951 . S
H510 C530 0.950 . S
H511 C531 0.950 . S
H512 C533 0.950 . S
H513 C536 0.950 . S
H514 C537 0.950 . S
H515 C539 0.950 . S
H516 C540 0.950 . S
H517 C541 0.951 . S
H518 C543 0.951 . S
H519 C545 0.950 . S
H520 C546 0.950 . S
H521 C548 0.950 . S
H522 C551 0.950 . S
H523 C552 0.950 . S
H524 C554 0.950 . S
H525 C555 0.950 . S
C526 H508 0.951 . S
C526 C527 1.366 . S
C526 C528 1.388 . S
C527 C526 1.366 . S
C527 C531 1.385 . S
C528 H509 0.951 . S
C528 C526 1.388 . S
C528 C529 1.366 . S
C529 C528 1.366 . S
C529 C530 1.414 . S
C529 C532 1.499 . S
C530 H510 0.950 . S
C530 C529 1.414 . S
C530 C531 1.374 . S
C531 H511 0.950 . S
C531 C527 1.385 . S
C531 C530 1.374 . S
C532 C529 1.499 . S
C532 C533 1.373 . S
C532 C534 1.389 . S
C533 H512 0.950 . S
C533 C532 1.373 . S
C533 C549 1.377 . S
C534 C532 1.389 . S
C534 C535 1.524 . S
C534 C548 1.377 . S
C535 C534 1.524 . S
C535 C536 1.397 . S
C535 C540 1.363 . S
C536 H513 0.950 . S
C536 C535 1.397 . S
C536 C537 1.334 . S
C537 H514 0.950 . S
C537 C536 1.334 . S
C537 C538 1.287 . S
C538 C537 1.287 . S
C538 C539 1.524 . S
C538 H557 0.913 . S
C539 H515 0.950 . S
C539 C538 1.524 . S
C539 C540 1.415 . S
C540 H516 0.950 . S
C540 C535 1.363 . S
C540 C539 1.415 . S
C541 H517 0.951 . S
C541 C542 1.366 . S
C541 C543 1.388 . S
C542 C541 1.366 . S
C542 C546 1.385 . S
C543 H518 0.951 . S
C543 C541 1.388 . S
C543 C544 1.366 . S
C544 C543 1.366 . S
C544 C545 1.414 . S
C544 C547 1.499 . S
C545 H519 0.950 . S
C545 C544 1.414 . S
C545 C546 1.374 . S
C546 H520 0.950 . S
C546 C542 1.385 . S
C546 C545 1.374 . S
C547 C544 1.499 . S
C547 C548 1.373 . S
C547 C549 1.389 . S
C548 H521 0.950 . S
C548 C534 1.377 . S
C548 C547 1.373 . S
C549 C533 1.377 . S
C549 C547 1.389 . S
C549 C550 1.524 . S
C550 C549 1.524 . S
C550 C551 1.397 . S
C550 C555 1.363 . S
C551 H522 0.950 . S
C551 C550 1.397 . S
C551 C552 1.334 . S
C552 H523 0.950 . S
C552 C551 1.334 . S
C552 C553 1.287 . S
C553 C552 1.287 . S
C553 C554 1.524 . S
C553 H556 0.999 . S
C554 H524 0.950 . S
C554 C553 1.524 . S
C554 C555 1.415 . S
C555 H525 0.950 . S
C555 C550 1.363 . S
C555 C554 1.415 . S
H556 C553 0.999 . S
H557 C538 0.913 . S
H558 C576 0.951 . S
H559 C578 0.951 . S
H560 C580 0.950 . S
H561 C581 0.950 . S
H562 C583 0.950 . S
H563 C586 0.950 . S
H564 C587 0.950 . S
H565 C589 0.950 . S
H566 C590 0.950 . S
H567 C591 0.951 . S
H568 C593 0.951 . S
H569 C595 0.950 . S
H570 C596 0.950 . S
H571 C598 0.950 . S
H572 C601 0.950 . S
H573 C602 0.950 . S
H574 C604 0.950 . S
H575 C605 0.950 . S
C576 H558 0.951 . S
C576 C577 1.366 . S
C576 C578 1.388 . S
C577 C576 1.366 . S
C577 C581 1.385 . S
C578 H559 0.951 . S
C578 C576 1.388 . S
C578 C579 1.366 . S
C579 C578 1.366 . S
C579 C580 1.414 . S
C579 C582 1.499 . S
C580 H560 0.950 . S
C580 C579 1.414 . S
C580 C581 1.374 . S
C581 H561 0.950 . S
C581 C577 1.385 . S
C581 C580 1.374 . S
C582 C579 1.499 . S
C582 C583 1.373 . S
C582 C584 1.389 . S
C583 H562 0.950 . S
C583 C582 1.373 . S
C583 C599 1.377 . S
C584 C582 1.389 . S
C584 C585 1.524 . S
C584 C598 1.377 . S
C585 C584 1.524 . S
C585 C586 1.397 . S
C585 C590 1.363 . S
C586 H563 0.950 . S
C586 C585 1.397 . S
C586 C587 1.334 . S
C587 H564 0.950 . S
C587 C586 1.334 . S
C587 C588 1.287 . S
C588 C587 1.287 . S
C588 C589 1.524 . S
C588 H607 0.913 . S
C589 H565 0.950 . S
C589 C588 1.524 . S
C589 C590 1.415 . S
C590 H566 0.950 . S
C590 C585 1.363 . S
C590 C589 1.415 . S
C591 H567 0.951 . S
C591 C592 1.366 . S
C591 C593 1.388 . S
C592 C591 1.366 . S
C592 C596 1.385 . S
C593 H568 0.951 . S
C593 C591 1.388 . S
C593 C594 1.366 . S
C594 C593 1.366 . S
C594 C595 1.414 . S
C594 C597 1.499 . S
C595 H569 0.950 . S
C595 C594 1.414 . S
C595 C596 1.374 . S
C596 H570 0.950 . S
C596 C592 1.385 . S
C596 C595 1.374 . S
C597 C594 1.499 . S
C597 C598 1.373 . S
C597 C599 1.389 . S
C598 H571 0.950 . S
C598 C584 1.377 . S
C598 C597 1.373 . S
C599 C583 1.377 . S
C599 C597 1.389 . S
C599 C600 1.524 . S
C600 C599 1.524 . S
C600 C601 1.397 . S
C600 C605 1.363 . S
C601 H572 0.950 . S
C601 C600 1.397 . S
C601 C602 1.334 . S
C602 H573 0.950 . S
C602 C601 1.334 . S
C602 C603 1.287 . S
C603 C602 1.287 . S
C603 C604 1.524 . S
C603 H606 0.999 . S
C604 H574 0.950 . S
C604 C603 1.524 . S
C604 C605 1.415 . S
C605 H575 0.950 . S
C605 C600 1.363 . S
C605 C604 1.415 . S
H606 C603 0.999 . S
H607 C588 0.913 . S
H608 C626 0.951 . S
H609 C628 0.951 . S
H610 C630 0.950 . S
H611 C631 0.950 . S
H612 C633 0.950 . S
H613 C636 0.950 . S
H614 C637 0.950 . S
H615 C639 0.937 1_554 S
H616 C640 0.950 . S
H617 C641 0.951 . S
H618 C643 0.951 . S
H619 C645 0.950 . S
H620 C646 0.950 . S
H621 C648 0.950 . S
H622 C651 0.950 . S
H623 C652 0.950 . S
H624 C654 0.950 . S
H625 C655 0.950 . S
C626 H608 0.951 . S
C626 C627 1.366 . S
C626 C628 1.388 . S
C627 C626 1.366 . S
C627 C631 1.385 . S
C628 H609 0.951 . S
C628 C626 1.388 . S
C628 C629 1.366 . S
C629 C628 1.366 . S
C629 C630 1.414 . S
C629 C632 1.499 . S
C630 H610 0.950 . S
C630 C629 1.414 . S
C630 C631 1.374 . S
C631 H611 0.950 . S
C631 C627 1.385 . S
C631 C630 1.374 . S
C632 C629 1.499 . S
C632 C633 1.373 . S
C632 C634 1.389 . S
C633 H612 0.950 . S
C633 C632 1.373 . S
C633 C649 1.377 . S
C634 C632 1.389 . S
C634 C635 1.524 . S
C634 C648 1.377 . S
C635 C634 1.524 . S
C635 C636 1.397 . S
C635 C640 1.363 . S
C636 H613 0.950 . S
C636 C635 1.397 . S
C636 C637 1.334 . S
C637 H614 0.950 . S
C637 C636 1.334 . S
C637 C638 1.287 1_556 S
C638 C637 1.287 1_554 S
C638 C639 1.524 1_554 S
C638 H657 0.913 . S
C639 H615 0.937 1_556 S
C639 C638 1.524 1_556 S
C639 C640 1.415 . S
C640 H616 0.950 . S
C640 C635 1.363 . S
C640 C639 1.415 . S
C641 H617 0.951 . S
C641 C642 1.366 . S
C641 C643 1.388 . S
C642 C641 1.366 . S
C642 C646 1.385 . S
C643 H618 0.951 . S
C643 C641 1.388 . S
C643 C644 1.366 . S
C644 C643 1.366 . S
C644 C645 1.414 . S
C644 C647 1.499 . S
C645 H619 0.950 . S
C645 C644 1.414 . S
C645 C646 1.374 . S
C646 H620 0.950 . S
C646 C642 1.385 . S
C646 C645 1.374 . S
C647 C644 1.499 . S
C647 C648 1.373 . S
C647 C649 1.389 . S
C648 H621 0.950 . S
C648 C634 1.377 . S
C648 C647 1.373 . S
C649 C633 1.377 . S
C649 C647 1.389 . S
C649 C650 1.524 . S
C650 C649 1.524 . S
C650 C651 1.397 . S
C650 C655 1.363 . S
C651 H622 0.950 . S
C651 C650 1.397 . S
C651 C652 1.334 . S
C652 H623 0.950 . S
C652 C651 1.334 . S
C652 C653 1.287 . S
C653 C652 1.287 . S
C653 C654 1.524 . S
C653 H656 0.999 . S
C654 H624 0.950 . S
C654 C653 1.524 . S
C654 C655 1.415 . S
C655 H625 0.950 . S
C655 C650 1.363 . S
C655 C654 1.415 . S
H656 C653 0.999 . S
H657 C638 0.913 . S
H658 C676 0.951 . S
H659 C678 0.951 . S
H660 C680 0.950 . S
H661 C681 0.950 . S
H662 C683 0.950 . S
H663 C686 0.950 . S
H664 C687 0.950 . S
H665 C689 0.950 . S
H666 C690 0.950 . S
H667 C691 0.951 . S
H668 C693 0.951 . S
H669 C695 0.950 . S
H670 C696 0.950 . S
H671 C698 0.950 . S
H672 C701 0.950 . S
H673 C702 0.950 . S
H674 C704 0.950 . S
H675 C705 0.950 . S
C676 H658 0.951 . S
C676 C677 1.366 . S
C676 C678 1.388 . S
C677 C676 1.366 . S
C677 C681 1.385 . S
C678 H659 0.951 . S
C678 C676 1.388 . S
C678 C679 1.366 . S
C679 C678 1.366 . S
C679 C680 1.414 . S
C679 C682 1.499 . S
C680 H660 0.950 . S
C680 C679 1.414 . S
C680 C681 1.374 . S
C681 H661 0.950 . S
C681 C677 1.385 . S
C681 C680 1.374 . S
C682 C679 1.499 . S
C682 C683 1.373 . S
C682 C684 1.389 . S
C683 H662 0.950 . S
C683 C682 1.373 . S
C683 C699 1.377 . S
C684 C682 1.389 . S
C684 C685 1.524 . S
C684 C698 1.377 . S
C685 C684 1.524 . S
C685 C686 1.397 . S
C685 C690 1.363 . S
C686 H663 0.950 . S
C686 C685 1.397 . S
C686 C687 1.334 . S
C687 H664 0.950 . S
C687 C686 1.334 . S
C687 C688 1.287 . S
C688 C687 1.287 . S
C688 C689 1.524 . S
C688 H707 0.913 . S
C689 H665 0.950 . S
C689 C688 1.524 . S
C689 C690 1.415 . S
C690 H666 0.950 . S
C690 C685 1.363 . S
C690 C689 1.415 . S
C691 H667 0.951 . S
C691 C692 1.366 . S
C691 C693 1.388 . S
C692 C691 1.366 . S
C692 C696 1.385 . S
C693 H668 0.951 . S
C693 C691 1.388 . S
C693 C694 1.366 . S
C694 C693 1.366 . S
C694 C695 1.414 . S
C694 C697 1.499 . S
C695 H669 0.950 . S
C695 C694 1.414 . S
C695 C696 1.374 . S
C696 H670 0.950 . S
C696 C692 1.385 . S
C696 C695 1.374 . S
C697 C694 1.499 . S
C697 C698 1.373 . S
C697 C699 1.389 . S
C698 H671 0.950 . S
C698 C684 1.377 . S
C698 C697 1.373 . S
C699 C683 1.377 . S
C699 C697 1.389 . S
C699 C700 1.524 . S
C700 C699 1.524 . S
C700 C701 1.397 . S
C700 C705 1.363 . S
C701 H672 0.950 . S
C701 C700 1.397 . S
C701 C702 1.334 . S
C702 H673 0.950 . S
C702 C701 1.334 . S
C702 C703 1.287 . S
C703 C702 1.287 . S
C703 C704 1.524 . S
C703 H706 0.999 . S
C704 H674 0.950 . S
C704 C703 1.524 . S
C704 C705 1.415 . S
C705 H675 0.950 . S
C705 C700 1.363 . S
C705 C704 1.415 . S
H706 C703 0.999 . S
H707 C688 0.913 . S
H708 C726 0.951 . S
H709 C728 0.951 . S
H710 C730 0.950 . S
H711 C731 0.950 . S
H712 C733 0.950 . S
H713 C736 0.950 . S
H714 C737 0.950 . S
H715 C739 0.950 . S
H716 C740 0.950 . S
H717 C741 0.951 . S
H718 C743 0.951 . S
H719 C745 0.950 . S
H720 C746 0.950 . S
H721 C748 0.950 . S
H722 C751 0.950 . S
H723 C752 0.950 . S
H724 C754 0.950 . S
H725 C755 0.950 . S
C726 H708 0.951 . S
C726 C727 1.366 . S
C726 C728 1.388 . S
C727 C726 1.366 . S
C727 C731 1.385 . S
C728 H709 0.951 . S
C728 C726 1.388 . S
C728 C729 1.366 . S
C729 C728 1.366 . S
C729 C730 1.414 . S
C729 C732 1.499 . S
C730 H710 0.950 . S
C730 C729 1.414 . S
C730 C731 1.374 . S
C731 H711 0.950 . S
C731 C727 1.385 . S
C731 C730 1.374 . S
C732 C729 1.499 . S
C732 C733 1.373 . S
C732 C734 1.389 . S
C733 H712 0.950 . S
C733 C732 1.373 . S
C733 C749 1.377 . S
C734 C732 1.389 . S
C734 C735 1.524 . S
C734 C748 1.377 . S
C735 C734 1.524 . S
C735 C736 1.397 . S
C735 C740 1.363 . S
C736 H713 0.950 . S
C736 C735 1.397 . S
C736 C737 1.334 . S
C737 H714 0.950 . S
C737 C736 1.334 . S
C737 C738 1.287 . S
C738 C737 1.287 . S
C738 C739 1.524 . S
C738 H757 0.913 . S
C739 H715 0.950 . S
C739 C738 1.524 . S
C739 C740 1.415 . S
C740 H716 0.950 . S
C740 C735 1.363 . S
C740 C739 1.415 . S
C741 H717 0.951 . S
C741 C742 1.366 . S
C741 C743 1.388 . S
C742 C741 1.366 . S
C742 C746 1.385 . S
C743 H718 0.951 . S
C743 C741 1.388 . S
C743 C744 1.366 . S
C744 C743 1.366 . S
C744 C745 1.414 . S
C744 C747 1.499 . S
C745 H719 0.950 . S
C745 C744 1.414 . S
C745 C746 1.374 . S
C746 H720 0.950 . S
C746 C742 1.385 . S
C746 C745 1.374 . S
C747 C744 1.499 . S
C747 C748 1.373 . S
C747 C749 1.389 . S
C748 H721 0.950 . S
C748 C734 1.377 . S
C748 C747 1.373 . S
C749 C733 1.377 . S
C749 C747 1.389 . S
C749 C750 1.524 . S
C750 C749 1.524 . S
C750 C751 1.397 . S
C750 C755 1.363 . S
C751 H722 0.950 . S
C751 C750 1.397 . S
C751 C752 1.334 . S
C752 H723 0.950 . S
C752 C751 1.334 . S
C752 C753 1.287 . S
C753 C752 1.287 . S
C753 C754 1.524 . S
C753 H756 0.999 . S
C754 H724 0.950 . S
C754 C753 1.524 . S
C754 C755 1.415 . S
C755 H725 0.950 . S
C755 C750 1.363 . S
C755 C754 1.415 . S
H756 C753 0.999 . S
H757 C738 0.913 . S
H758 C776 0.951 . S
H759 C778 0.951 . S
H760 C780 0.950 . S
H761 C781 0.950 . S
H762 C783 0.950 . S
H763 C786 0.950 . S
H764 C787 0.950 . S
H765 C789 0.950 . S
H766 C790 0.950 . S
H767 C791 0.951 . S
H768 C793 0.951 . S
H769 C795 0.950 . S
H770 C796 0.950 . S
H771 C798 0.950 . S
H772 C801 0.950 . S
H773 C802 0.950 . S
H774 C804 0.950 . S
H775 C805 0.950 . S
C776 H758 0.951 . S
C776 C777 1.366 . S
C776 C778 1.388 . S
C777 C776 1.366 . S
C777 C781 1.385 . S
C778 H759 0.951 . S
C778 C776 1.388 . S
C778 C779 1.366 . S
C779 C778 1.366 . S
C779 C780 1.414 . S
C779 C782 1.499 . S
C780 H760 0.950 . S
C780 C779 1.414 . S
C780 C781 1.374 . S
C781 H761 0.950 . S
C781 C777 1.385 . S
C781 C780 1.374 . S
C782 C779 1.499 . S
C782 C783 1.373 . S
C782 C784 1.389 . S
C783 H762 0.950 . S
C783 C782 1.373 . S
C783 C799 1.377 . S
C784 C782 1.389 . S
C784 C785 1.524 . S
C784 C798 1.377 . S
C785 C784 1.524 . S
C785 C786 1.397 . S
C785 C790 1.363 . S
C786 H763 0.950 . S
C786 C785 1.397 . S
C786 C787 1.334 . S
C787 H764 0.950 . S
C787 C786 1.334 . S
C787 C788 1.287 . S
C788 C787 1.287 . S
C788 C789 1.524 . S
C788 H807 0.913 . S
C789 H765 0.950 . S
C789 C788 1.524 . S
C789 C790 1.415 . S
C790 H766 0.950 . S
C790 C785 1.363 . S
C790 C789 1.415 . S
C791 H767 0.951 . S
C791 C792 1.366 . S
C791 C793 1.388 . S
C792 C791 1.366 . S
C792 C796 1.385 . S
C793 H768 0.951 . S
C793 C791 1.388 . S
C793 C794 1.366 . S
C794 C793 1.366 . S
C794 C795 1.414 . S
C794 C797 1.499 . S
C795 H769 0.950 . S
C795 C794 1.414 . S
C795 C796 1.374 . S
C796 H770 0.950 . S
C796 C792 1.385 . S
C796 C795 1.374 . S
C797 C794 1.499 . S
C797 C798 1.373 . S
C797 C799 1.389 . S
C798 H771 0.950 . S
C798 C784 1.377 . S
C798 C797 1.373 . S
C799 C783 1.377 . S
C799 C797 1.389 . S
C799 C800 1.524 . S
C800 C799 1.524 . S
C800 C801 1.397 . S
C800 C805 1.363 . S
C801 H772 0.950 . S
C801 C800 1.397 . S
C801 C802 1.334 . S
C802 H773 0.950 . S
C802 C801 1.334 . S
C802 C803 1.287 . S
C803 C802 1.287 . S
C803 C804 1.524 . S
C803 H806 0.999 . S
C804 H774 0.950 . S
C804 C803 1.524 . S
C804 C805 1.415 . S
C805 H775 0.950 . S
C805 C800 1.363 . S
C805 C804 1.415 . S
H806 C803 0.999 . S
H807 C788 0.913 . S
H808 C826 0.951 . S
H809 C828 0.951 . S
H810 C830 0.950 . S
H811 C831 0.950 . S
H812 C833 0.950 . S
H813 C836 0.950 . S
H814 C837 0.950 . S
H815 C839 0.984 . S
H816 C840 0.950 . S
H817 C841 0.951 . S
H818 C843 0.951 . S
H819 C845 0.950 . S
H820 C846 0.950 . S
H821 C848 0.950 . S
H822 C851 0.950 . S
H823 C852 0.950 . S
H824 C854 0.950 . S
H825 C855 0.950 . S
C826 H808 0.951 . S
C826 C827 1.366 . S
C826 C828 1.388 . S
C827 C826 1.366 . S
C827 C831 1.385 . S
C828 H809 0.951 . S
C828 C826 1.388 . S
C828 C829 1.366 . S
C829 C828 1.366 . S
C829 C830 1.414 . S
C829 C832 1.499 . S
C830 H810 0.950 . S
C830 C829 1.414 . S
C830 C831 1.374 . S
C831 H811 0.950 . S
C831 C827 1.385 . S
C831 C830 1.374 . S
C832 C829 1.499 . S
C832 C833 1.373 . S
C832 C834 1.389 . S
C833 H812 0.950 . S
C833 C832 1.373 . S
C833 C849 1.377 . S
C834 C832 1.389 . S
C834 C835 1.524 . S
C834 C848 1.377 . S
C835 C834 1.524 . S
C835 C836 1.397 . S
C835 C840 1.363 . S
C836 H813 0.950 . S
C836 C835 1.397 . S
C836 C837 1.334 . S
C837 H814 0.950 . S
C837 C836 1.334 . S
C837 C838 1.287 . S
C838 C837 1.287 . S
C838 C839 1.524 . S
C838 H857 0.887 1_556 S
C839 H815 0.984 . S
C839 C838 1.524 . S
C839 C840 1.415 . S
C840 H816 0.950 . S
C840 C835 1.363 . S
C840 C839 1.415 . S
C841 H817 0.951 . S
C841 C842 1.366 . S
C841 C843 1.388 . S
C842 C841 1.366 . S
C842 C846 1.385 . S
C843 H818 0.951 . S
C843 C841 1.388 . S
C843 C844 1.366 . S
C844 C843 1.366 . S
C844 C845 1.414 . S
C844 C847 1.499 . S
C845 H819 0.950 . S
C845 C844 1.414 . S
C845 C846 1.374 . S
C846 H820 0.950 . S
C846 C842 1.385 . S
C846 C845 1.374 . S
C847 C844 1.499 . S
C847 C848 1.373 . S
C847 C849 1.389 . S
C848 H821 0.950 . S
C848 C834 1.377 . S
C848 C847 1.373 . S
C849 C833 1.377 . S
C849 C847 1.389 . S
C849 C850 1.524 . S
C850 C849 1.524 . S
C850 C851 1.397 . S
C850 C855 1.363 . S
C851 H822 0.950 . S
C851 C850 1.397 . S
C851 C852 1.334 . S
C852 H823 0.950 . S
C852 C851 1.334 . S
C852 C853 1.287 . S
C853 C852 1.287 . S
C853 C854 1.524 . S
C853 H856 0.999 . S
C854 H824 0.950 . S
C854 C853 1.524 . S
C854 C855 1.415 . S
C855 H825 0.950 . S
C855 C850 1.363 . S
C855 C854 1.415 . S
H856 C853 0.999 . S
H857 C838 0.887 1_554 S
H858 C876 0.951 . S
H859 C878 0.951 . S
H860 C880 0.950 . S
H861 C881 0.950 . S
H862 C883 0.950 . S
H863 C886 0.950 . S
H864 C887 0.950 . S
H865 C889 0.950 . S
H866 C890 0.950 . S
H867 C891 0.951 . S
H868 C893 0.951 . S
H869 C895 0.950 . S
H870 C896 0.950 . S
H871 C898 0.950 . S
H872 C901 0.950 . S
H873 C902 0.950 . S
H874 C904 0.950 . S
H875 C905 0.950 . S
C876 H858 0.951 . S
C876 C877 1.366 . S
C876 C878 1.388 . S
C877 C876 1.366 . S
C877 C881 1.385 . S
C878 H859 0.951 . S
C878 C876 1.388 . S
C878 C879 1.366 . S
C879 C878 1.366 . S
C879 C880 1.414 . S
C879 C882 1.499 . S
C880 H860 0.950 . S
C880 C879 1.414 . S
C880 C881 1.374 . S
C881 H861 0.950 . S
C881 C877 1.385 . S
C881 C880 1.374 . S
C882 C879 1.499 . S
C882 C883 1.373 . S
C882 C884 1.389 . S
C883 H862 0.950 . S
C883 C882 1.373 . S
C883 C899 1.377 . S
C884 C882 1.389 . S
C884 C885 1.524 . S
C884 C898 1.377 . S
C885 C884 1.524 . S
C885 C886 1.397 . S
C885 C890 1.363 . S
C886 H863 0.950 . S
C886 C885 1.397 . S
C886 C887 1.334 . S
C887 H864 0.950 . S
C887 C886 1.334 . S
C887 C888 1.287 . S
C888 C887 1.287 . S
C888 C889 1.524 . S
C888 H907 0.913 . S
C889 H865 0.950 . S
C889 C888 1.524 . S
C889 C890 1.415 . S
C890 H866 0.950 . S
C890 C885 1.363 . S
C890 C889 1.415 . S
C891 H867 0.951 . S
C891 C892 1.366 . S
C891 C893 1.388 . S
C892 C891 1.366 . S
C892 C896 1.385 . S
C893 H868 0.951 . S
C893 C891 1.388 . S
C893 C894 1.366 . S
C894 C893 1.366 . S
C894 C895 1.414 . S
C894 C897 1.499 . S
C895 H869 0.950 . S
C895 C894 1.414 . S
C895 C896 1.374 . S
C896 H870 0.950 . S
C896 C892 1.385 . S
C896 C895 1.374 . S
C897 C894 1.499 . S
C897 C898 1.373 . S
C897 C899 1.389 . S
C898 H871 0.950 . S
C898 C884 1.377 . S
C898 C897 1.373 . S
C899 C883 1.377 . S
C899 C897 1.389 . S
C899 C900 1.524 . S
C900 C899 1.524 . S
C900 C901 1.397 . S
C900 C905 1.363 . S
C901 H872 0.950 . S
C901 C900 1.397 . S
C901 C902 1.334 . S
C902 H873 0.950 . S
C902 C901 1.334 . S
C902 C903 1.287 . S
C903 C902 1.287 . S
C903 C904 1.524 . S
C903 H906 0.999 . S
C904 H874 0.950 . S
C904 C903 1.524 . S
C904 C905 1.415 . S
C905 H875 0.950 . S
C905 C900 1.363 . S
C905 C904 1.415 . S
H906 C903 0.999 . S
H907 C888 0.913 . S
H908 C926 0.951 . S
H909 C928 0.951 . S
H910 C930 0.950 . S
H911 C931 0.950 . S
H912 C933 0.950 . S
H913 C936 0.950 . S
H914 C937 0.950 . S
H915 C939 0.950 . S
H916 C940 0.950 . S
H917 C941 0.951 . S
H918 C943 0.951 . S
H919 C945 0.950 . S
H920 C946 0.950 . S
H921 C948 0.950 . S
H922 C951 0.950 . S
H923 C952 0.950 . S
H924 C954 0.950 . S
H925 C955 0.950 . S
C926 H908 0.951 . S
C926 C927 1.366 . S
C926 C928 1.388 . S
C927 C926 1.366 . S
C927 C931 1.385 . S
C928 H909 0.951 . S
C928 C926 1.388 . S
C928 C929 1.366 . S
C929 C928 1.366 . S
C929 C930 1.414 . S
C929 C932 1.499 . S
C930 H910 0.950 . S
C930 C929 1.414 . S
C930 C931 1.374 . S
C931 H911 0.950 . S
C931 C927 1.385 . S
C931 C930 1.374 . S
C932 C929 1.499 . S
C932 C933 1.373 . S
C932 C934 1.389 . S
C933 H912 0.950 . S
C933 C932 1.373 . S
C933 C949 1.377 . S
C934 C932 1.389 . S
C934 C935 1.524 . S
C934 C948 1.377 . S
C935 C934 1.524 . S
C935 C936 1.397 . S
C935 C940 1.363 . S
C936 H913 0.950 . S
C936 C935 1.397 . S
C936 C937 1.334 . S
C937 H914 0.950 . S
C937 C936 1.334 . S
C937 C938 1.287 . S
C938 C937 1.287 . S
C938 C939 1.524 . S
C938 H957 0.913 . S
C939 H915 0.950 . S
C939 C938 1.524 . S
C939 C940 1.415 . S
C940 H916 0.950 . S
C940 C935 1.363 . S
C940 C939 1.415 . S
C941 H917 0.951 . S
C941 C942 1.366 . S
C941 C943 1.388 . S
C942 C941 1.366 . S
C942 C946 1.385 . S
C943 H918 0.951 . S
C943 C941 1.388 . S
C943 C944 1.366 . S
C944 C943 1.366 . S
C944 C945 1.414 . S
C944 C947 1.499 . S
C945 H919 0.950 . S
C945 C944 1.414 . S
C945 C946 1.374 . S
C946 H920 0.950 . S
C946 C942 1.385 . S
C946 C945 1.374 . S
C947 C944 1.499 . S
C947 C948 1.373 . S
C947 C949 1.389 . S
C948 H921 0.950 . S
C948 C934 1.377 . S
C948 C947 1.373 . S
C949 C933 1.377 . S
C949 C947 1.389 . S
C949 C950 1.524 . S
C950 C949 1.524 . S
C950 C951 1.397 . S
C950 C955 1.363 . S
C951 H922 0.950 . S
C951 C950 1.397 . S
C951 C952 1.334 . S
C952 H923 0.950 . S
C952 C951 1.334 . S
C952 C953 1.287 . S
C953 C952 1.287 . S
C953 C954 1.524 . S
C953 H956 0.999 . S
C954 H924 0.950 . S
C954 C953 1.524 . S
C954 C955 1.415 . S
C955 H925 0.950 . S
C955 C950 1.363 . S
C955 C954 1.415 . S
H956 C953 0.999 . S
H957 C938 0.913 . S
H958 C976 0.951 . S
H959 C978 0.951 . S
H960 C980 0.950 . S
H961 C981 0.950 . S
H962 C983 0.950 . S
H963 C986 0.950 . S
H964 C987 0.950 . S
H965 C989 0.950 . S
H966 C990 0.950 . S
H967 C991 0.951 . S
H968 C993 0.951 . S
H969 C995 0.950 . S
H970 C996 0.950 . S
H971 C998 0.950 . S
H972 C1001 0.950 . S
H973 C1002 0.950 . S
H974 C1004 0.950 . S
H975 C1005 0.950 . S
C976 H958 0.951 . S
C976 C977 1.366 . S
C976 C978 1.388 . S
C977 C976 1.366 . S
C977 C981 1.385 . S
C978 H959 0.951 . S
C978 C976 1.388 . S
C978 C979 1.366 . S
C979 C978 1.366 . S
C979 C980 1.414 . S
C979 C982 1.499 . S
C980 H960 0.950 . S
C980 C979 1.414 . S
C980 C981 1.374 . S
C981 H961 0.950 . S
C981 C977 1.385 . S
C981 C980 1.374 . S
C982 C979 1.499 . S
C982 C983 1.373 . S
C982 C984 1.389 . S
C983 H962 0.950 . S
C983 C982 1.373 . S
C983 C999 1.377 . S
C984 C982 1.389 . S
C984 C985 1.524 . S
C984 C998 1.377 . S
C985 C984 1.524 . S
C985 C986 1.397 . S
C985 C990 1.363 . S
C986 H963 0.950 . S
C986 C985 1.397 . S
C986 C987 1.334 . S
C987 H964 0.950 . S
C987 C986 1.334 . S
C987 C988 1.287 . S
C988 C987 1.287 . S
C988 C989 1.524 . S
C988 H1007 0.913 . S
C989 H965 0.950 . S
C989 C988 1.524 . S
C989 C990 1.415 . S
C990 H966 0.950 . S
C990 C985 1.363 . S
C990 C989 1.415 . S
C991 H967 0.951 . S
C991 C992 1.366 . S
C991 C993 1.388 . S
C992 C991 1.366 . S
C992 C996 1.385 . S
C993 H968 0.951 . S
C993 C991 1.388 . S
C993 C994 1.366 . S
C994 C993 1.366 . S
C994 C995 1.414 . S
C994 C997 1.499 . S
C995 H969 0.950 . S
C995 C994 1.414 . S
C995 C996 1.374 . S
C996 H970 0.950 . S
C996 C992 1.385 . S
C996 C995 1.374 . S
C997 C994 1.499 . S
C997 C998 1.373 . S
C997 C999 1.389 . S
C998 H971 0.950 . S
C998 C984 1.377 . S
C998 C997 1.373 . S
C999 C983 1.377 . S
C999 C997 1.389 . S
C999 C1000 1.524 . S
C1000 C999 1.524 . S
C1000 C1001 1.397 . S
C1000 C1005 1.363 . S
C1001 H972 0.950 . S
C1001 C1000 1.397 . S
C1001 C1002 1.334 . S
C1002 H973 0.950 . S
C1002 C1001 1.334 . S
C1002 C1003 1.287 . S
C1003 C1002 1.287 . S
C1003 C1004 1.524 . S
C1003 H1006 0.999 . S
C1004 H974 0.950 . S
C1004 C1003 1.524 . S
C1004 C1005 1.415 . S
C1005 H975 0.950 . S
C1005 C1000 1.363 . S
C1005 C1004 1.415 . S
H1006 C1003 0.999 . S
H1007 C988 0.913 . S
H1008 C1026 0.951 . S
H1009 C1028 0.951 . S
H1010 C1030 0.950 . S
H1011 C1031 0.950 . S
H1012 C1033 0.950 . S
H1013 C1036 0.950 . S
H1014 C1037 0.950 . S
H1015 C1039 0.951 . S
H1016 C1040 0.950 . S
H1017 C1041 0.951 . S
H1018 C1043 0.951 . S
H1019 C1045 0.950 . S
H1020 C1046 0.950 . S
H1021 C1048 0.950 . S
H1022 C1051 0.950 . S
H1023 C1052 0.950 . S
H1024 C1054 0.950 . S
H1025 C1055 0.950 . S
C1026 H1008 0.951 . S
C1026 C1027 1.366 . S
C1026 C1028 1.388 . S
C1027 C1026 1.366 . S
C1027 C1031 1.385 . S
C1028 H1009 0.951 . S
C1028 C1026 1.388 . S
C1028 C1029 1.366 . S
C1029 C1028 1.366 . S
C1029 C1030 1.414 . S
C1029 C1032 1.499 . S
C1030 H1010 0.950 . S
C1030 C1029 1.414 . S
C1030 C1031 1.374 . S
C1031 H1011 0.950 . S
C1031 C1027 1.385 . S
C1031 C1030 1.374 . S
C1032 C1029 1.499 . S
C1032 C1033 1.373 . S
C1032 C1034 1.389 . S
C1033 H1012 0.950 . S
C1033 C1032 1.373 . S
C1033 C1049 1.377 . S
C1034 C1032 1.389 . S
C1034 C1035 1.524 . S
C1034 C1048 1.377 . S
C1035 C1034 1.524 . S
C1035 C1036 1.397 . S
C1035 C1040 1.363 . S
C1036 H1013 0.950 . S
C1036 C1035 1.397 . S
C1036 C1037 1.334 . S
C1037 H1014 0.950 . S
C1037 C1036 1.334 . S
C1037 C1038 1.287 . S
C1038 C1037 1.287 . S
C1038 C1039 1.524 . S
C1038 H1057 0.913 1_556 S
C1039 H1015 0.951 . S
C1039 C1038 1.524 . S
C1039 C1040 1.415 . S
C1040 H1016 0.950 . S
C1040 C1035 1.363 . S
C1040 C1039 1.415 . S
C1041 H1017 0.951 . S
C1041 C1042 1.366 . S
C1041 C1043 1.388 . S
C1042 C1041 1.366 . S
C1042 C1046 1.385 . S
C1043 H1018 0.951 . S
C1043 C1041 1.388 . S
C1043 C1044 1.366 . S
C1044 C1043 1.366 . S
C1044 C1045 1.414 . S
C1044 C1047 1.499 . S
C1045 H1019 0.950 . S
C1045 C1044 1.414 . S
C1045 C1046 1.374 . S
C1046 H1020 0.950 . S
C1046 C1042 1.385 . S
C1046 C1045 1.374 . S
C1047 C1044 1.499 . S
C1047 C1048 1.373 . S
C1047 C1049 1.389 . S
C1048 H1021 0.950 . S
C1048 C1034 1.377 . S
C1048 C1047 1.373 . S
C1049 C1033 1.377 . S
C1049 C1047 1.389 . S
C1049 C1050 1.524 . S
C1050 C1049 1.524 . S
C1050 C1051 1.397 . S
C1050 C1055 1.363 . S
C1051 H1022 0.950 . S
C1051 C1050 1.397 . S
C1051 C1052 1.334 . S
C1052 H1023 0.950 . S
C1052 C1051 1.334 . S
C1052 C1053 1.287 . S
C1053 C1052 1.287 . S
C1053 C1054 1.524 . S
C1053 H1056 0.999 . S
C1054 H1024 0.950 . S
C1054 C1053 1.524 . S
C1054 C1055 1.415 . S
C1055 H1025 0.950 . S
C1055 C1050 1.363 . S
C1055 C1054 1.415 . S
H1056 C1053 0.999 . S
H1057 C1038 0.913 1_554 S
H1058 C1076 0.951 . S
H1059 C1078 0.951 . S
H1060 C1080 0.950 . S
H1061 C1081 0.924 1_545 S
H1062 C1083 0.950 . S
H1063 C1086 0.950 . S
H1064 C1087 0.950 . S
H1065 C1089 0.950 . S
H1066 C1090 0.950 . S
H1067 C1091 0.951 . S
H1068 C1093 0.951 . S
H1069 C1095 0.950 . S
H1070 C1096 0.950 . S
H1071 C1098 0.950 . S
H1072 C1101 0.950 . S
H1073 C1102 0.950 . S
H1074 C1104 0.950 . S
H1075 C1105 0.950 . S
C1076 H1058 0.951 . S
C1076 C1077 1.366 . S
C1076 C1078 1.388 . S
C1077 C1076 1.366 . S
C1077 C1081 1.394 . S
C1078 H1059 0.951 . S
C1078 C1076 1.388 . S
C1078 C1079 1.366 . S
C1079 C1078 1.366 . S
C1079 C1080 1.414 . S
C1079 C1082 1.499 . S
C1080 H1060 0.950 . S
C1080 C1079 1.414 . S
C1080 C1081 1.390 . S
C1081 H1061 0.924 1_565 S
C1081 C1077 1.394 . S
C1081 C1080 1.390 . S
C1082 C1079 1.499 . S
C1082 C1083 1.373 . S
C1082 C1084 1.389 . S
C1083 H1062 0.950 . S
C1083 C1082 1.373 . S
C1083 C1099 1.377 . S
C1084 C1082 1.389 . S
C1084 C1085 1.524 . S
C1084 C1098 1.377 . S
C1085 C1084 1.524 . S
C1085 C1086 1.397 . S
C1085 C1090 1.363 . S
C1086 H1063 0.950 . S
C1086 C1085 1.397 . S
C1086 C1087 1.334 . S
C1087 H1064 0.950 . S
C1087 C1086 1.334 . S
C1087 C1088 1.287 . S
C1088 C1087 1.287 . S
C1088 C1089 1.524 . S
C1088 H1107 0.913 . S
C1089 H1065 0.950 . S
C1089 C1088 1.524 . S
C1089 C1090 1.415 . S
C1090 H1066 0.950 . S
C1090 C1085 1.363 . S
C1090 C1089 1.415 . S
C1091 H1067 0.951 . S
C1091 C1092 1.366 . S
C1091 C1093 1.388 . S
C1092 C1091 1.366 . S
C1092 C1096 1.385 . S
C1093 H1068 0.951 . S
C1093 C1091 1.388 . S
C1093 C1094 1.366 . S
C1094 C1093 1.366 . S
C1094 C1095 1.414 . S
C1094 C1097 1.499 . S
C1095 H1069 0.950 . S
C1095 C1094 1.414 . S
C1095 C1096 1.374 . S
C1096 H1070 0.950 . S
C1096 C1092 1.385 . S
C1096 C1095 1.374 . S
C1097 C1094 1.499 . S
C1097 C1098 1.373 . S
C1097 C1099 1.389 . S
C1098 H1071 0.950 . S
C1098 C1084 1.377 . S
C1098 C1097 1.373 . S
C1099 C1083 1.377 . S
C1099 C1097 1.389 . S
C1099 C1100 1.524 . S
C1100 C1099 1.524 . S
C1100 C1101 1.397 . S
C1100 C1105 1.363 . S
C1101 H1072 0.950 . S
C1101 C1100 1.397 . S
C1101 C1102 1.334 . S
C1102 H1073 0.950 . S
C1102 C1101 1.334 . S
C1102 C1103 1.287 . S
C1103 C1102 1.287 . S
C1103 C1104 1.524 . S
C1103 H1106 0.999 . S
C1104 H1074 0.950 . S
C1104 C1103 1.524 . S
C1104 C1105 1.415 . S
C1105 H1075 0.950 . S
C1105 C1100 1.363 . S
C1105 C1104 1.415 . S
H1106 C1103 0.999 . S
H1107 C1088 0.913 . S
H1108 C1126 0.951 . S
H1109 C1128 0.951 . S
H1110 C1130 0.950 . S
H1111 C1131 0.950 . S
H1112 C1133 0.950 . S
H1113 C1136 0.950 . S
H1114 C1137 0.950 . S
H1115 C1139 0.950 . S
H1116 C1140 0.950 . S
H1117 C1141 0.951 . S
H1118 C1143 0.951 . S
H1119 C1145 0.950 . S
H1120 C1146 0.950 . S
H1121 C1148 0.950 . S
H1122 C1151 0.950 . S
H1123 C1152 0.950 . S
H1124 C1154 0.950 . S
H1125 C1155 0.950 . S
C1126 H1108 0.951 . S
C1126 C1127 1.366 . S
C1126 C1128 1.388 . S
C1127 C1126 1.366 . S
C1127 C1131 1.385 . S
C1128 H1109 0.951 . S
C1128 C1126 1.388 . S
C1128 C1129 1.366 . S
C1129 C1128 1.366 . S
C1129 C1130 1.414 . S
C1129 C1132 1.499 . S
C1130 H1110 0.950 . S
C1130 C1129 1.414 . S
C1130 C1131 1.374 . S
C1131 H1111 0.950 . S
C1131 C1127 1.385 . S
C1131 C1130 1.374 . S
C1132 C1129 1.499 . S
C1132 C1133 1.373 . S
C1132 C1134 1.389 . S
C1133 H1112 0.950 . S
C1133 C1132 1.373 . S
C1133 C1149 1.377 . S
C1134 C1132 1.389 . S
C1134 C1135 1.524 . S
C1134 C1148 1.377 . S
C1135 C1134 1.524 . S
C1135 C1136 1.397 . S
C1135 C1140 1.363 . S
C1136 H1113 0.950 . S
C1136 C1135 1.397 . S
C1136 C1137 1.334 1_545 S
C1137 H1114 0.950 . S
C1137 C1136 1.334 1_565 S
C1137 C1138 1.287 . S
C1138 C1137 1.287 . S
C1138 C1139 1.524 1_565 S
C1138 H1157 0.913 . S
C1139 H1115 0.950 . S
C1139 C1138 1.524 1_545 S
C1139 C1140 1.415 . S
C1140 H1116 0.950 . S
C1140 C1135 1.363 . S
C1140 C1139 1.415 . S
C1141 H1117 0.951 . S
C1141 C1142 1.366 . S
C1141 C1143 1.388 . S
C1142 C1141 1.366 . S
C1142 C1146 1.385 . S
C1143 H1118 0.951 . S
C1143 C1141 1.388 . S
C1143 C1144 1.366 . S
C1144 C1143 1.366 . S
C1144 C1145 1.414 . S
C1144 C1147 1.499 . S
C1145 H1119 0.950 . S
C1145 C1144 1.414 . S
C1145 C1146 1.374 . S
C1146 H1120 0.950 . S
C1146 C1142 1.385 . S
C1146 C1145 1.374 . S
C1147 C1144 1.499 . S
C1147 C1148 1.373 . S
C1147 C1149 1.389 . S
C1148 H1121 0.950 . S
C1148 C1134 1.377 . S
C1148 C1147 1.373 . S
C1149 C1133 1.377 . S
C1149 C1147 1.389 . S
C1149 C1150 1.524 . S
C1150 C1149 1.524 . S
C1150 C1151 1.397 . S
C1150 C1155 1.363 . S
C1151 H1122 0.950 . S
C1151 C1150 1.397 . S
C1151 C1152 1.334 . S
C1152 H1123 0.950 . S
C1152 C1151 1.334 . S
C1152 C1153 1.287 . S
C1153 C1152 1.287 . S
C1153 C1154 1.524 . S
C1153 H1156 0.999 . S
C1154 H1124 0.950 . S
C1154 C1153 1.524 . S
C1154 C1155 1.415 . S
C1155 H1125 0.950 . S
C1155 C1150 1.363 . S
C1155 C1154 1.415 . S
H1156 C1153 0.999 . S
H1157 C1138 0.913 . S
H1158 C1176 0.951 . S
H1159 C1178 0.951 . S
H1160 C1180 0.950 . S
H1161 C1181 0.950 1_545 S
H1162 C1183 0.950 . S
H1163 C1186 0.950 . S
H1164 C1187 0.950 . S
H1165 C1189 0.950 . S
H1166 C1190 0.950 . S
H1167 C1191 0.951 . S
H1168 C1193 0.951 . S
H1169 C1195 0.950 . S
H1170 C1196 0.950 . S
H1171 C1198 0.950 . S
H1172 C1201 0.950 . S
H1173 C1202 0.950 . S
H1174 C1204 0.950 . S
H1175 C1205 0.950 . S
C1176 H1158 0.951 . S
C1176 C1177 1.366 . S
C1176 C1178 1.388 . S
C1177 C1176 1.366 . S
C1177 C1181 1.385 . S
C1178 H1159 0.951 . S
C1178 C1176 1.388 . S
C1178 C1179 1.366 . S
C1179 C1178 1.366 . S
C1179 C1180 1.414 . S
C1179 C1182 1.499 . S
C1180 H1160 0.950 . S
C1180 C1179 1.414 . S
C1180 C1181 1.374 . S
C1181 H1161 0.950 1_565 S
C1181 C1177 1.385 . S
C1181 C1180 1.374 . S
C1182 C1179 1.499 . S
C1182 C1183 1.373 . S
C1182 C1184 1.389 . S
C1183 H1162 0.950 . S
C1183 C1182 1.373 . S
C1183 C1199 1.377 . S
C1184 C1182 1.389 . S
C1184 C1185 1.524 . S
C1184 C1198 1.377 . S
C1185 C1184 1.524 . S
C1185 C1186 1.397 . S
C1185 C1190 1.363 . S
C1186 H1163 0.950 . S
C1186 C1185 1.397 . S
C1186 C1187 1.334 . S
C1187 H1164 0.950 . S
C1187 C1186 1.334 . S
C1187 C1188 1.287 . S
C1188 C1187 1.287 . S
C1188 C1189 1.524 . S
C1188 H1207 0.913 . S
C1189 H1165 0.950 . S
C1189 C1188 1.524 . S
C1189 C1190 1.415 . S
C1190 H1166 0.950 . S
C1190 C1185 1.363 . S
C1190 C1189 1.415 . S
C1191 H1167 0.951 . S
C1191 C1192 1.366 . S
C1191 C1193 1.388 . S
C1192 C1191 1.366 . S
C1192 C1196 1.385 . S
C1193 H1168 0.951 . S
C1193 C1191 1.388 . S
C1193 C1194 1.366 . S
C1194 C1193 1.366 . S
C1194 C1195 1.414 . S
C1194 C1197 1.499 . S
C1195 H1169 0.950 . S
C1195 C1194 1.414 . S
C1195 C1196 1.374 . S
C1196 H1170 0.950 . S
C1196 C1192 1.385 . S
C1196 C1195 1.374 . S
C1197 C1194 1.499 . S
C1197 C1198 1.373 . S
C1197 C1199 1.389 . S
C1198 H1171 0.950 . S
C1198 C1184 1.377 . S
C1198 C1197 1.373 . S
C1199 C1183 1.377 . S
C1199 C1197 1.389 . S
C1199 C1200 1.524 . S
C1200 C1199 1.524 . S
C1200 C1201 1.397 . S
C1200 C1205 1.363 . S
C1201 H1172 0.950 . S
C1201 C1200 1.397 . S
C1201 C1202 1.334 . S
C1202 H1173 0.950 . S
C1202 C1201 1.334 . S
C1202 C1203 1.287 . S
C1203 C1202 1.287 . S
C1203 C1204 1.524 . S
C1203 H1206 0.999 . S
C1204 H1174 0.950 . S
C1204 C1203 1.524 . S
C1204 C1205 1.415 . S
C1205 H1175 0.950 . S
C1205 C1200 1.363 . S
C1205 C1204 1.415 . S
H1206 C1203 0.999 . S
H1207 C1188 0.913 . S
H1208 C1226 0.951 . S
H1209 C1228 0.951 . S
H1210 C1230 0.950 . S
H1211 C1231 0.950 . S
H1212 C1233 0.950 . S
H1213 C1236 0.950 . S
H1214 C1237 0.950 . S
H1215 C1239 0.950 . S
H1216 C1240 0.950 . S
H1217 C1241 0.951 . S
H1218 C1243 0.951 . S
H1219 C1245 0.950 . S
H1220 C1246 0.950 . S
H1221 C1248 0.950 . S
H1222 C1251 0.950 . S
H1223 C1252 0.950 . S
H1224 C1254 0.950 . S
H1225 C1255 0.950 . S
C1226 H1208 0.951 . S
C1226 C1227 1.366 . S
C1226 C1228 1.388 . S
C1227 C1226 1.366 . S
C1227 C1231 1.385 . S
C1228 H1209 0.951 . S
C1228 C1226 1.388 . S
C1228 C1229 1.366 . S
C1229 C1228 1.366 . S
C1229 C1230 1.414 . S
C1229 C1232 1.499 . S
C1230 H1210 0.950 . S
C1230 C1229 1.414 . S
C1230 C1231 1.374 . S
C1231 H1211 0.950 . S
C1231 C1227 1.385 . S
C1231 C1230 1.374 . S
C1232 C1229 1.499 . S
C1232 C1233 1.373 . S
C1232 C1234 1.389 . S
C1233 H1212 0.950 . S
C1233 C1232 1.373 . S
C1233 C1249 1.377 . S
C1234 C1232 1.389 . S
C1234 C1235 1.524 . S
C1234 C1248 1.377 . S
C1235 C1234 1.524 . S
C1235 C1236 1.397 . S
C1235 C1240 1.363 . S
C1236 H1213 0.950 . S
C1236 C1235 1.397 . S
C1236 C1237 1.334 . S
C1237 H1214 0.950 . S
C1237 C1236 1.334 . S
C1237 C1238 1.287 . S
C1238 C1237 1.287 . S
C1238 C1239 1.524 . S
C1238 H1257 0.913 . S
C1239 H1215 0.950 . S
C1239 C1238 1.524 . S
C1239 C1240 1.415 . S
C1240 H1216 0.950 . S
C1240 C1235 1.363 . S
C1240 C1239 1.415 . S
C1241 H1217 0.951 . S
C1241 C1242 1.366 . S
C1241 C1243 1.388 . S
C1242 C1241 1.366 . S
C1242 C1246 1.385 . S
C1243 H1218 0.951 . S
C1243 C1241 1.388 . S
C1243 C1244 1.366 . S
C1244 C1243 1.366 . S
C1244 C1245 1.414 . S
C1244 C1247 1.499 . S
C1245 H1219 0.950 . S
C1245 C1244 1.414 . S
C1245 C1246 1.374 . S
C1246 H1220 0.950 . S
C1246 C1242 1.385 . S
C1246 C1245 1.374 . S
C1247 C1244 1.499 . S
C1247 C1248 1.373 . S
C1247 C1249 1.389 . S
C1248 H1221 0.950 . S
C1248 C1234 1.377 . S
C1248 C1247 1.373 . S
C1249 C1233 1.377 . S
C1249 C1247 1.389 . S
C1249 C1250 1.524 . S
C1250 C1249 1.524 . S
C1250 C1251 1.397 . S
C1250 C1255 1.363 . S
C1251 H1222 0.950 . S
C1251 C1250 1.397 . S
C1251 C1252 1.334 . S
C1252 H1223 0.950 . S
C1252 C1251 1.334 . S
C1252 C1253 1.287 . S
C1253 C1252 1.287 . S
C1253 C1254 1.524 . S
C1253 H1256 0.999 . S
C1254 H1224 0.950 . S
C1254 C1253 1.524 . S
C1254 C1255 1.415 . S
C1255 H1225 0.950 . S
C1255 C1250 1.363 . S
C1255 C1254 1.415 . S
H1256 C1253 0.999 . S
H1257 C1238 0.913 . S
H1258 C1276 0.951 . S
H1259 C1278 0.951 . S
H1260 C1280 0.950 . S
H1261 C1281 0.950 . S
H1262 C1283 0.950 . S
H1263 C1286 0.950 . S
H1264 C1287 0.950 . S
H1265 C1289 0.950 . S
H1266 C1290 0.950 . S
H1267 C1291 0.951 . S
H1268 C1293 0.951 . S
H1269 C1295 0.950 . S
H1270 C1296 0.950 . S
H1271 C1298 0.950 . S
H1272 C1301 0.950 . S
H1273 C1302 0.950 . S
H1274 C1304 0.950 . S
H1275 C1305 0.950 . S
C1276 H1258 0.951 . S
C1276 C1277 1.366 . S
C1276 C1278 1.388 . S
C1277 C1276 1.366 . S
C1277 C1281 1.385 . S
C1278 H1259 0.951 . S
C1278 C1276 1.388 . S
C1278 C1279 1.366 . S
C1279 C1278 1.366 . S
C1279 C1280 1.414 . S
C1279 C1282 1.499 . S
C1280 H1260 0.950 . S
C1280 C1279 1.414 . S
C1280 C1281 1.374 . S
C1281 H1261 0.950 . S
C1281 C1277 1.385 . S
C1281 C1280 1.374 . S
C1282 C1279 1.499 . S
C1282 C1283 1.373 . S
C1282 C1284 1.389 . S
C1283 H1262 0.950 . S
C1283 C1282 1.373 . S
C1283 C1299 1.377 . S
C1284 C1282 1.389 . S
C1284 C1285 1.524 . S
C1284 C1298 1.377 . S
C1285 C1284 1.524 . S
C1285 C1286 1.397 . S
C1285 C1290 1.363 . S
C1286 H1263 0.950 . S
C1286 C1285 1.397 . S
C1286 C1287 1.334 . S
C1287 H1264 0.950 . S
C1287 C1286 1.334 . S
C1287 C1288 1.287 . S
C1288 C1287 1.287 . S
C1288 C1289 1.524 . S
C1288 H1307 0.913 . S
C1289 H1265 0.950 . S
C1289 C1288 1.524 . S
C1289 C1290 1.415 . S
C1290 H1266 0.950 . S
C1290 C1285 1.363 . S
C1290 C1289 1.415 . S
C1291 H1267 0.951 . S
C1291 C1292 1.366 . S
C1291 C1293 1.388 . S
C1292 C1291 1.366 . S
C1292 C1296 1.385 . S
C1293 H1268 0.951 . S
C1293 C1291 1.388 . S
C1293 C1294 1.366 . S
C1294 C1293 1.366 . S
C1294 C1295 1.414 . S
C1294 C1297 1.499 . S
C1295 H1269 0.950 . S
C1295 C1294 1.414 . S
C1295 C1296 1.374 . S
C1296 H1270 0.950 . S
C1296 C1292 1.385 . S
C1296 C1295 1.374 . S
C1297 C1294 1.499 . S
C1297 C1298 1.373 . S
C1297 C1299 1.389 . S
C1298 H1271 0.950 . S
C1298 C1284 1.377 . S
C1298 C1297 1.373 . S
C1299 C1283 1.377 . S
C1299 C1297 1.389 . S
C1299 C1300 1.524 . S
C1300 C1299 1.524 . S
C1300 C1301 1.397 . S
C1300 C1305 1.363 . S
C1301 H1272 0.950 . S
C1301 C1300 1.397 . S
C1301 C1302 1.334 . S
C1302 H1273 0.950 . S
C1302 C1301 1.334 . S
C1302 C1303 1.287 . S
C1303 C1302 1.287 . S
C1303 C1304 1.524 . S
C1303 H1306 0.999 . S
C1304 H1274 0.950 . S
C1304 C1303 1.524 . S
C1304 C1305 1.415 . S
C1305 H1275 0.950 . S
C1305 C1300 1.363 . S
C1305 C1304 1.415 . S
H1306 C1303 0.999 . S
H1307 C1288 0.913 . S
H1308 C1326 0.951 . S
H1309 C1328 0.951 . S
H1310 C1330 0.950 . S
H1311 C1331 0.950 . S
H1312 C1333 0.950 . S
H1313 C1336 0.950 . S
H1314 C1337 0.950 . S
H1315 C1339 0.950 . S
H1316 C1340 0.950 . S
H1317 C1341 0.951 . S
H1318 C1343 0.951 . S
H1319 C1345 0.950 . S
H1320 C1346 0.950 . S
H1321 C1348 0.950 . S
H1322 C1351 0.950 . S
H1323 C1352 0.950 . S
H1324 C1354 0.950 . S
H1325 C1355 0.950 . S
C1326 H1308 0.951 . S
C1326 C1327 1.366 . S
C1326 C1328 1.388 . S
C1327 C1326 1.366 . S
C1327 C1331 1.385 . S
C1328 H1309 0.951 . S
C1328 C1326 1.388 . S
C1328 C1329 1.366 . S
C1329 C1328 1.366 . S
C1329 C1330 1.414 . S
C1329 C1332 1.499 . S
C1330 H1310 0.950 . S
C1330 C1329 1.414 . S
C1330 C1331 1.374 . S
C1331 H1311 0.950 . S
C1331 C1327 1.385 . S
C1331 C1330 1.374 . S
C1332 C1329 1.499 . S
C1332 C1333 1.373 . S
C1332 C1334 1.389 . S
C1333 H1312 0.950 . S
C1333 C1332 1.373 . S
C1333 C1349 1.377 . S
C1334 C1332 1.389 . S
C1334 C1335 1.524 . S
C1334 C1348 1.377 . S
C1335 C1334 1.524 . S
C1335 C1336 1.397 . S
C1335 C1340 1.363 . S
C1336 H1313 0.950 . S
C1336 C1335 1.397 . S
C1336 C1337 1.334 . S
C1337 H1314 0.950 . S
C1337 C1336 1.334 . S
C1337 C1338 1.287 . S
C1338 C1337 1.287 . S
C1338 C1339 1.524 . S
C1338 H1357 0.913 . S
C1339 H1315 0.950 . S
C1339 C1338 1.524 . S
C1339 C1340 1.415 . S
C1340 H1316 0.950 . S
C1340 C1335 1.363 . S
C1340 C1339 1.415 . S
C1341 H1317 0.951 . S
C1341 C1342 1.366 . S
C1341 C1343 1.388 . S
C1342 C1341 1.366 . S
C1342 C1346 1.385 . S
C1343 H1318 0.951 . S
C1343 C1341 1.388 . S
C1343 C1344 1.366 . S
C1344 C1343 1.366 . S
C1344 C1345 1.414 . S
C1344 C1347 1.499 . S
C1345 H1319 0.950 . S
C1345 C1344 1.414 . S
C1345 C1346 1.374 . S
C1346 H1320 0.950 . S
C1346 C1342 1.385 . S
C1346 C1345 1.374 . S
C1347 C1344 1.499 . S
C1347 C1348 1.373 . S
C1347 C1349 1.389 . S
C1348 H1321 0.950 . S
C1348 C1334 1.377 . S
C1348 C1347 1.373 . S
C1349 C1333 1.377 . S
C1349 C1347 1.389 . S
C1349 C1350 1.524 . S
C1350 C1349 1.524 . S
C1350 C1351 1.397 . S
C1350 C1355 1.363 . S
C1351 H1322 0.950 . S
C1351 C1350 1.397 . S
C1351 C1352 1.334 . S
C1352 H1323 0.950 . S
C1352 C1351 1.334 . S
C1352 C1353 1.287 . S
C1353 C1352 1.287 . S
C1353 C1354 1.524 . S
C1353 H1356 0.999 . S
C1354 H1324 0.950 . S
C1354 C1353 1.524 . S
C1354 C1355 1.415 . S
C1355 H1325 0.950 . S
C1355 C1350 1.363 . S
C1355 C1354 1.415 . S
H1356 C1353 0.999 . S
H1357 C1338 0.913 . S
H1358 C1376 0.951 . S
H1359 C1378 0.951 . S
H1360 C1380 0.950 . S
H1361 C1381 0.950 . S
H1362 C1383 0.950 . S
H1363 C1386 0.950 . S
H1364 C1387 0.950 . S
H1365 C1389 0.950 . S
H1366 C1390 0.950 . S
H1367 C1391 0.951 . S
H1368 C1393 0.951 . S
H1369 C1395 0.950 . S
H1370 C1396 0.950 . S
H1371 C1398 0.950 . S
H1372 C1401 0.950 . S
H1373 C1402 0.950 . S
H1374 C1404 0.950 . S
H1375 C1405 0.950 . S
C1376 H1358 0.951 . S
C1376 C1377 1.366 . S
C1376 C1378 1.388 . S
C1377 C1376 1.366 . S
C1377 C1381 1.385 . S
C1378 H1359 0.951 . S
C1378 C1376 1.388 . S
C1378 C1379 1.366 . S
C1379 C1378 1.366 . S
C1379 C1380 1.414 . S
C1379 C1382 1.499 . S
C1380 H1360 0.950 . S
C1380 C1379 1.414 . S
C1380 C1381 1.374 . S
C1381 H1361 0.950 . S
C1381 C1377 1.385 . S
C1381 C1380 1.374 . S
C1382 C1379 1.499 . S
C1382 C1383 1.373 . S
C1382 C1384 1.389 . S
C1383 H1362 0.950 . S
C1383 C1382 1.373 . S
C1383 C1399 1.377 . S
C1384 C1382 1.389 . S
C1384 C1385 1.524 . S
C1384 C1398 1.377 . S
C1385 C1384 1.524 . S
C1385 C1386 1.397 . S
C1385 C1390 1.363 . S
C1386 H1363 0.950 . S
C1386 C1385 1.397 . S
C1386 C1387 1.334 . S
C1387 H1364 0.950 . S
C1387 C1386 1.334 . S
C1387 C1388 1.287 . S
C1388 C1387 1.287 . S
C1388 C1389 1.524 . S
C1388 H1407 0.913 . S
C1389 H1365 0.950 . S
C1389 C1388 1.524 . S
C1389 C1390 1.415 . S
C1390 H1366 0.950 . S
C1390 C1385 1.363 . S
C1390 C1389 1.415 . S
C1391 H1367 0.951 . S
C1391 C1392 1.366 . S
C1391 C1393 1.388 . S
C1392 C1391 1.366 . S
C1392 C1396 1.385 . S
C1393 H1368 0.951 . S
C1393 C1391 1.388 . S
C1393 C1394 1.366 . S
C1394 C1393 1.366 . S
C1394 C1395 1.414 . S
C1394 C1397 1.499 . S
C1395 H1369 0.950 . S
C1395 C1394 1.414 . S
C1395 C1396 1.374 . S
C1396 H1370 0.950 . S
C1396 C1392 1.385 . S
C1396 C1395 1.374 . S
C1397 C1394 1.499 . S
C1397 C1398 1.373 . S
C1397 C1399 1.389 . S
C1398 H1371 0.950 . S
C1398 C1384 1.377 . S
C1398 C1397 1.373 . S
C1399 C1383 1.377 . S
C1399 C1397 1.389 . S
C1399 C1400 1.524 . S
C1400 C1399 1.524 . S
C1400 C1401 1.397 . S
C1400 C1405 1.363 . S
C1401 H1372 0.950 . S
C1401 C1400 1.397 . S
C1401 C1402 1.334 . S
C1402 H1373 0.950 . S
C1402 C1401 1.334 . S
C1402 C1403 1.287 . S
C1403 C1402 1.287 . S
C1403 C1404 1.524 . S
C1403 H1406 0.999 . S
C1404 H1374 0.950 . S
C1404 C1403 1.524 . S
C1404 C1405 1.415 . S
C1405 H1375 0.950 . S
C1405 C1400 1.363 . S
C1405 C1404 1.415 . S
H1406 C1403 0.999 . S
H1407 C1388 0.913 . S
H1408 C1426 0.951 . S
H1409 C1428 0.951 . S
H1410 C1430 0.950 . S
H1411 C1431 0.950 . S
H1412 C1433 0.950 . S
H1413 C1436 0.950 . S
H1414 C1437 0.950 . S
H1415 C1439 0.950 . S
H1416 C1440 0.950 . S
H1417 C1441 0.951 . S
H1418 C1443 0.951 . S
H1419 C1445 0.950 . S
H1420 C1446 0.950 . S
H1421 C1448 0.950 . S
H1422 C1451 0.950 . S
H1423 C1452 0.950 . S
H1424 C1454 0.950 . S
H1425 C1455 0.950 . S
C1426 H1408 0.951 . S
C1426 C1427 1.366 . S
C1426 C1428 1.388 . S
C1427 C1426 1.366 . S
C1427 C1431 1.385 . S
C1428 H1409 0.951 . S
C1428 C1426 1.388 . S
C1428 C1429 1.366 . S
C1429 C1428 1.366 . S
C1429 C1430 1.414 . S
C1429 C1432 1.499 . S
C1430 H1410 0.950 . S
C1430 C1429 1.414 . S
C1430 C1431 1.374 . S
C1431 H1411 0.950 . S
C1431 C1427 1.385 . S
C1431 C1430 1.374 . S
C1432 C1429 1.499 . S
C1432 C1433 1.373 . S
C1432 C1434 1.389 . S
C1433 H1412 0.950 . S
C1433 C1432 1.373 . S
C1433 C1449 1.377 . S
C1434 C1432 1.389 . S
C1434 C1435 1.524 . S
C1434 C1448 1.377 . S
C1435 C1434 1.524 . S
C1435 C1436 1.397 . S
C1435 C1440 1.363 . S
C1436 H1413 0.950 . S
C1436 C1435 1.397 . S
C1436 C1437 1.334 . S
C1437 H1414 0.950 . S
C1437 C1436 1.334 . S
C1437 C1438 1.287 . S
C1438 C1437 1.287 . S
C1438 C1439 1.524 . S
C1438 H1457 0.913 . S
C1439 H1415 0.950 . S
C1439 C1438 1.524 . S
C1439 C1440 1.415 . S
C1440 H1416 0.950 . S
C1440 C1435 1.363 . S
C1440 C1439 1.415 . S
C1441 H1417 0.951 . S
C1441 C1442 1.366 . S
C1441 C1443 1.388 . S
C1442 C1441 1.366 . S
C1442 C1446 1.385 . S
C1443 H1418 0.951 . S
C1443 C1441 1.388 . S
C1443 C1444 1.366 . S
C1444 C1443 1.366 . S
C1444 C1445 1.414 . S
C1444 C1447 1.499 . S
C1445 H1419 0.950 . S
C1445 C1444 1.414 . S
C1445 C1446 1.374 . S
C1446 H1420 0.950 . S
C1446 C1442 1.385 . S
C1446 C1445 1.374 . S
C1447 C1444 1.499 . S
C1447 C1448 1.373 . S
C1447 C1449 1.389 . S
C1448 H1421 0.950 . S
C1448 C1434 1.377 . S
C1448 C1447 1.373 . S
C1449 C1433 1.377 . S
C1449 C1447 1.389 . S
C1449 C1450 1.524 . S
C1450 C1449 1.524 . S
C1450 C1451 1.397 . S
C1450 C1455 1.363 . S
C1451 H1422 0.950 . S
C1451 C1450 1.397 . S
C1451 C1452 1.334 . S
C1452 H1423 0.950 . S
C1452 C1451 1.334 . S
C1452 C1453 1.287 . S
C1453 C1452 1.287 . S
C1453 C1454 1.524 . S
C1453 H1456 0.999 . S
C1454 H1424 0.950 . S
C1454 C1453 1.524 . S
C1454 C1455 1.415 . S
C1455 H1425 0.950 . S
C1455 C1450 1.363 . S
C1455 C1454 1.415 . S
H1456 C1453 0.999 . S
H1457 C1438 0.913 . S
H1458 C1476 0.951 . S
H1459 C1478 0.951 . S
H1460 C1480 0.950 . S
H1461 C1481 0.950 . S
H1462 C1483 0.950 . S
H1463 C1486 0.950 . S
H1464 C1487 0.950 . S
H1465 C1489 0.950 . S
H1466 C1490 0.950 . S
H1467 C1491 0.951 . S
H1468 C1493 0.951 . S
H1469 C1495 0.950 . S
H1470 C1496 0.950 . S
H1471 C1498 0.950 . S
H1472 C1501 0.950 . S
H1473 C1502 0.950 . S
H1474 C1504 0.950 . S
H1475 C1505 0.950 . S
C1476 H1458 0.951 . S
C1476 C1477 1.366 . S
C1476 C1478 1.388 . S
C1477 C1476 1.366 . S
C1477 C1481 1.385 . S
C1478 H1459 0.951 . S
C1478 C1476 1.388 . S
C1478 C1479 1.366 . S
C1479 C1478 1.366 . S
C1479 C1480 1.414 . S
C1479 C1482 1.499 . S
C1480 H1460 0.950 . S
C1480 C1479 1.414 . S
C1480 C1481 1.374 . S
C1481 H1461 0.950 . S
C1481 C1477 1.385 . S
C1481 C1480 1.374 . S
C1482 C1479 1.499 . S
C1482 C1483 1.373 . S
C1482 C1484 1.389 . S
C1483 H1462 0.950 . S
C1483 C1482 1.373 . S
C1483 C1499 1.377 . S
C1484 C1482 1.389 . S
C1484 C1485 1.524 . S
C1484 C1498 1.377 . S
C1485 C1484 1.524 . S
C1485 C1486 1.397 . S
C1485 C1490 1.363 . S
C1486 H1463 0.950 . S
C1486 C1485 1.397 . S
C1486 C1487 1.334 . S
C1487 H1464 0.950 . S
C1487 C1486 1.334 . S
C1487 C1488 1.287 . S
C1488 C1487 1.287 . S
C1488 C1489 1.524 . S
C1488 H1507 0.913 . S
C1489 H1465 0.950 . S
C1489 C1488 1.524 . S
C1489 C1490 1.415 . S
C1490 H1466 0.950 . S
C1490 C1485 1.363 . S
C1490 C1489 1.415 . S
C1491 H1467 0.951 . S
C1491 C1492 1.366 . S
C1491 C1493 1.388 . S
C1492 C1491 1.366 . S
C1492 C1496 1.385 . S
C1493 H1468 0.951 . S
C1493 C1491 1.388 . S
C1493 C1494 1.366 . S
C1494 C1493 1.366 . S
C1494 C1495 1.414 . S
C1494 C1497 1.499 . S
C1495 H1469 0.950 . S
C1495 C1494 1.414 . S
C1495 C1496 1.374 . S
C1496 H1470 0.950 . S
C1496 C1492 1.385 . S
C1496 C1495 1.374 . S
C1497 C1494 1.499 . S
C1497 C1498 1.373 . S
C1497 C1499 1.389 . S
C1498 H1471 0.950 . S
C1498 C1484 1.377 . S
C1498 C1497 1.373 . S
C1499 C1483 1.377 . S
C1499 C1497 1.389 . S
C1499 C1500 1.524 . S
C1500 C1499 1.524 . S
C1500 C1501 1.397 . S
C1500 C1505 1.363 . S
C1501 H1472 0.950 . S
C1501 C1500 1.397 . S
C1501 C1502 1.334 . S
C1502 H1473 0.950 . S
C1502 C1501 1.334 . S
C1502 C1503 1.287 . S
C1503 C1502 1.287 . S
C1503 C1504 1.524 . S
C1503 H1506 0.999 . S
C1504 H1474 0.950 . S
C1504 C1503 1.524 . S
C1504 C1505 1.415 . S
C1505 H1475 0.950 . S
C1505 C1500 1.363 . S
C1505 C1504 1.415 . S
H1506 C1503 0.999 . S
H1507 C1488 0.913 . S
H1508 C1526 0.951 . S
H1509 C1528 0.951 . S
H1510 C1530 0.950 . S
H1511 C1531 0.950 . S
H1512 C1533 0.950 . S
H1513 C1536 0.950 . S
H1514 C1537 0.950 . S
H1515 C1539 0.950 . S
H1516 C1540 0.950 . S
H1517 C1541 0.951 . S
H1518 C1543 0.951 . S
H1519 C1545 0.950 . S
H1520 C1546 0.950 . S
H1521 C1548 0.950 . S
H1522 C1551 0.950 . S
H1523 C1552 0.950 . S
H1524 C1554 0.950 . S
H1525 C1555 0.950 . S
C1526 H1508 0.951 . S
C1526 C1527 1.366 . S
C1526 C1528 1.388 . S
C1527 C1526 1.366 . S
C1527 C1531 1.385 . S
C1528 H1509 0.951 . S
C1528 C1526 1.388 . S
C1528 C1529 1.366 . S
C1529 C1528 1.366 . S
C1529 C1530 1.414 . S
C1529 C1532 1.499 . S
C1530 H1510 0.950 . S
C1530 C1529 1.414 . S
C1530 C1531 1.374 . S
C1531 H1511 0.950 . S
C1531 C1527 1.385 . S
C1531 C1530 1.374 . S
C1532 C1529 1.499 . S
C1532 C1533 1.373 . S
C1532 C1534 1.389 . S
C1533 H1512 0.950 . S
C1533 C1532 1.373 . S
C1533 C1549 1.377 . S
C1534 C1532 1.389 . S
C1534 C1535 1.524 . S
C1534 C1548 1.377 . S
C1535 C1534 1.524 . S
C1535 C1536 1.397 . S
C1535 C1540 1.363 . S
C1536 H1513 0.950 . S
C1536 C1535 1.397 . S
C1536 C1537 1.334 . S
C1537 H1514 0.950 . S
C1537 C1536 1.334 . S
C1537 C1538 1.287 . S
C1538 C1537 1.287 . S
C1538 C1539 1.524 . S
C1538 H1557 0.913 . S
C1539 H1515 0.950 . S
C1539 C1538 1.524 . S
C1539 C1540 1.415 . S
C1540 H1516 0.950 . S
C1540 C1535 1.363 . S
C1540 C1539 1.415 . S
C1541 H1517 0.951 . S
C1541 C1542 1.366 . S
C1541 C1543 1.388 . S
C1542 C1541 1.366 . S
C1542 C1546 1.385 . S
C1543 H1518 0.951 . S
C1543 C1541 1.388 . S
C1543 C1544 1.366 . S
C1544 C1543 1.366 . S
C1544 C1545 1.414 . S
C1544 C1547 1.499 . S
C1545 H1519 0.950 . S
C1545 C1544 1.414 . S
C1545 C1546 1.374 . S
C1546 H1520 0.950 . S
C1546 C1542 1.385 . S
C1546 C1545 1.374 . S
C1547 C1544 1.499 . S
C1547 C1548 1.373 . S
C1547 C1549 1.389 . S
C1548 H1521 0.950 . S
C1548 C1534 1.377 . S
C1548 C1547 1.373 . S
C1549 C1533 1.377 . S
C1549 C1547 1.389 . S
C1549 C1550 1.524 . S
C1550 C1549 1.524 . S
C1550 C1551 1.397 . S
C1550 C1555 1.363 . S
C1551 H1522 0.950 . S
C1551 C1550 1.397 . S
C1551 C1552 1.334 . S
C1552 H1523 0.950 . S
C1552 C1551 1.334 . S
C1552 C1553 1.287 . S
C1553 C1552 1.287 . S
C1553 C1554 1.524 . S
C1553 H1556 0.999 . S
C1554 H1524 0.950 . S
C1554 C1553 1.524 . S
C1554 C1555 1.415 . S
C1555 H1525 0.950 . S
C1555 C1550 1.363 . S
C1555 C1554 1.415 . S
H1556 C1553 0.999 . S
H1557 C1538 0.913 . S
H1558 C1576 0.951 . S
H1559 C1578 0.951 . S
H1560 C1580 0.950 . S
H1561 C1581 0.950 . S
H1562 C1583 0.950 . S
H1563 C1586 0.950 . S
H1564 C1587 0.950 . S
H1565 C1589 0.950 . S
H1566 C1590 0.950 . S
H1567 C1591 0.951 . S
H1568 C1593 0.951 . S
H1569 C1595 0.950 . S
H1570 C1596 0.950 . S
H1571 C1598 0.950 . S
H1572 C1601 0.950 . S
H1573 C1602 0.950 . S
H1574 C1604 0.950 . S
H1575 C1605 0.950 . S
C1576 H1558 0.951 . S
C1576 C1577 1.366 . S
C1576 C1578 1.388 . S
C1577 C1576 1.366 . S
C1577 C1581 1.385 . S
C1578 H1559 0.951 . S
C1578 C1576 1.388 . S
C1578 C1579 1.366 . S
C1579 C1578 1.366 . S
C1579 C1580 1.414 . S
C1579 C1582 1.499 . S
C1580 H1560 0.950 . S
C1580 C1579 1.414 . S
C1580 C1581 1.374 . S
C1581 H1561 0.950 . S
C1581 C1577 1.385 . S
C1581 C1580 1.374 . S
C1582 C1579 1.499 . S
C1582 C1583 1.373 . S
C1582 C1584 1.389 . S
C1583 H1562 0.950 . S
C1583 C1582 1.373 . S
C1583 C1599 1.377 . S
C1584 C1582 1.389 . S
C1584 C1585 1.524 . S
C1584 C1598 1.377 . S
C1585 C1584 1.524 . S
C1585 C1586 1.397 . S
C1585 C1590 1.363 . S
C1586 H1563 0.950 . S
C1586 C1585 1.397 . S
C1586 C1587 1.334 . S
C1587 H1564 0.950 . S
C1587 C1586 1.334 . S
C1587 C1588 1.287 . S
C1588 C1587 1.287 . S
C1588 C1589 1.524 . S
C1588 H1607 0.913 . S
C1589 H1565 0.950 . S
C1589 C1588 1.524 . S
C1589 C1590 1.415 . S
C1590 H1566 0.950 . S
C1590 C1585 1.363 . S
C1590 C1589 1.415 . S
C1591 H1567 0.951 . S
C1591 C1592 1.366 . S
C1591 C1593 1.388 . S
C1592 C1591 1.366 . S
C1592 C1596 1.385 . S
C1593 H1568 0.951 . S
C1593 C1591 1.388 . S
C1593 C1594 1.366 . S
C1594 C1593 1.366 . S
C1594 C1595 1.414 . S
C1594 C1597 1.499 . S
C1595 H1569 0.950 . S
C1595 C1594 1.414 . S
C1595 C1596 1.374 . S
C1596 H1570 0.950 . S
C1596 C1592 1.385 . S
C1596 C1595 1.374 . S
C1597 C1594 1.499 . S
C1597 C1598 1.373 . S
C1597 C1599 1.389 . S
C1598 H1571 0.950 . S
C1598 C1584 1.377 . S
C1598 C1597 1.373 . S
C1599 C1583 1.377 . S
C1599 C1597 1.389 . S
C1599 C1600 1.524 . S
C1600 C1599 1.524 . S
C1600 C1601 1.397 . S
C1600 C1605 1.363 . S
C1601 H1572 0.950 . S
C1601 C1600 1.397 . S
C1601 C1602 1.334 . S
C1602 H1573 0.950 . S
C1602 C1601 1.334 . S
C1602 C1603 1.287 . S
C1603 C1602 1.287 . S
C1603 C1604 1.524 . S
C1603 H1606 0.999 . S
C1604 H1574 0.950 . S
C1604 C1603 1.524 . S
C1604 C1605 1.415 . S
C1605 H1575 0.950 . S
C1605 C1600 1.363 . S
C1605 C1604 1.415 . S
H1606 C1603 0.999 . S
H1607 C1588 0.913 . S
C427 C15 1.525 . S
C442 C346 1.495 . S
C492 C324 1.549 . S
C477 C55 1.577 . S
C542 C350 1.499 . S
C527 C95 1.525 . S
C592 C328 1.549 . S
C577 C135 1.574 . S
C642 C390 1.498 . S
C627 C175 1.525 . S
C692 C368 1.549 . S
C677 C215 1.573 . S
C727 C255 1.521 . S
C742 C394 1.499 . S
C792 C372 1.549 . S
C777 C295 1.578 . S
C827 C2 1.535 . S
C842 C395 1.521 . S
C892 C373 1.602 . S
C877 C61 1.554 . S
C927 C82 1.495 . S
C942 C392 1.521 . S
C977 C141 1.600 . S
C992 C370 1.601 . S
C1042 C351 1.521 . S
C1027 C162 1.538 1_545 S
C1077 C221 1.554 1_565 S
C1092 C329 1.597 . S
C1142 C348 1.521 . S
C1127 C242 1.492 1_545 S
C1192 C326 1.602 . S
C1177 C301 1.604 1_565 S
C1242 C369 1.519 . S
C1227 C21 1.524 . S
C1292 C391 1.517 . S
C1277 C42 1.489 . S
C1327 C101 1.473 . S
C1342 C371 1.520 . S
C1392 C393 1.517 . S
C1377 C122 1.534 . S
C1442 C325 1.519 . S
C1427 C181 1.527 . S
C1477 C202 1.488 . S
C1492 C347 1.513 . S
C1527 C261 1.473 . S
C1542 C327 1.516 . S
C1577 C282 1.534 . S
C1592 C349 1.521 . S
