# Generated by pormake.
# Topology tsx, (6,3)-cn, num edge types: 1
# Building blocks:
#     Node 0, Type 0, BuildingBlock: FUNLAD_clean_sbu_0, # of connection points: 6
#     Node 1, Type 0, BuildingBlock: FUNLAD_clean_sbu_0, # of connection points: 6
#     Node 2, Type 1, BuildingBlock: WUSLED_clean_sbu_0, # of connection points: 3
#     Node 3, Type 1, BuildingBlock: WUSLED_clean_sbu_0, # of connection points: 3
#     Node 4, Type 1, BuildingBlock: WUSLED_clean_sbu_0, # of connection points: 3
#     Node 5, Type 1, BuildingBlock: WUSLED_clean_sbu_0, # of connection points: 3
#     Edge 6, Type (0, 1), BuildingBlock: FUNLAD_clean_linker_0, # of connection points: 2
#     Edge 7, Type (0, 1), BuildingBlock: FUNLAD_clean_linker_0, # of connection points: 2
#     Edge 8, Type (0, 1), BuildingBlock: FUNLAD_clean_linker_0, # of connection points: 2
#     Edge 9, Type (0, 1), BuildingBlock: FUNLAD_clean_linker_0, # of connection points: 2
#     Edge 10, Type (0, 1), BuildingBlock: FUNLAD_clean_linker_0, # of connection points: 2
#     Edge 11, Type (0, 1), BuildingBlock: FUNLAD_clean_linker_0, # of connection points: 2
#     Edge 12, Type (0, 1), BuildingBlock: FUNLAD_clean_linker_0, # of connection points: 2
#     Edge 13, Type (0, 1), BuildingBlock: FUNLAD_clean_linker_0, # of connection points: 2
#     Edge 14, Type (0, 1), BuildingBlock: FUNLAD_clean_linker_0, # of connection points: 2
#     Edge 15, Type (0, 1), BuildingBlock: FUNLAD_clean_linker_0, # of connection points: 2
#     Edge 16, Type (0, 1), BuildingBlock: FUNLAD_clean_linker_0, # of connection points: 2
#     Edge 17, Type (0, 1), BuildingBlock: FUNLAD_clean_linker_0, # of connection points: 2
# Relax obj value: 0.157
# Max RMSD: 0.152
# Mean RMSD: 0.089
data_MOF--net-tsx--node1-FUNLAD_clean_sbu_0--node2-WUSLED_clean_sbu_0--edge1-FUNLAD_clean_linker_0
_symmetry_space_group_name_H-M    P1
_symmetry_Int_Tables_number       1
_symmetry_cell_setting            triclinic
loop_
_symmetry_equiv_pos_as_xyz
'x, y, z'
_cell_length_a     27.978417
_cell_length_b     30.754269
_cell_length_c     58.263279
_cell_angle_alpha  91.310976
_cell_angle_beta   92.002815
_cell_angle_gamma 90.133795
loop_
_atom_site_label
_atom_site_type_symbol
_atom_site_fract_x
_atom_site_fract_y
_atom_site_fract_z
_atom_type_partial_charge
C0 C 0.94829 0.94818 0.00867 0.0
N1 N 0.02266 0.01755 0.06086 0.0
C2 C 0.97965 0.02017 0.071 0.0
C3 C 0.97712 0.02021 0.09485 0.0
C4 C 0.01924 0.0175 0.10856 0.0
C5 C 0.06331 0.01586 0.0977 0.0
C6 C 0.0642 0.0158 0.07368 0.0
Zn7 Zn 0.02237 0.01316 0.02569 0.0
C8 C 0.08703 0.94305 0.0086 0.0
N9 N 0.01696 1.001 0.95236 0.0
C10 C 0.97386 1.0006 0.9408 0.0
C11 C 0.05855 0.99981 0.94092 0.0
C12 C 0.05777 0.99874 0.91691 0.0
C13 C 0.01376 0.99885 0.90451 0.0
C14 C 0.97143 0.99945 0.91682 0.0
Zn15 Zn 0.0187 1.00559 0.98751 0.0
O16 O 0.96749 0.96665 0.02639 0.0
C17 C 0.95411 0.07567 0.00389 0.0
O18 O 0.96246 0.95812 0.98894 0.0
H19 H 0.09244 1.00026 0.95044 0.0
H20 H 0.94702 0.02157 0.06054 0.0
H21 H 0.94122 1.00155 0.9502 0.0
O22 O 0.97047 0.06421 0.02348 0.0
O23 O 0.96832 0.05615 0.98596 0.0
H24 H 0.09801 0.01359 0.06528 0.0
O25 O 0.07505 0.053 0.98695 0.0
O26 O 0.0774 0.05966 0.02458 0.0
O27 O 0.06914 0.95524 0.98947 0.0
O28 O 0.07434 0.96197 0.02707 0.0
C29 C 0.09297 0.07062 0.0053 0.0
H30 H 0.94242 0.02231 0.10247 0.0
H31 H 0.09664 0.01347 0.10761 0.0
H32 H 0.09131 0.99875 0.90818 0.0
H33 H 0.93668 0.99884 0.90803 0.0
C34 C 0.44874 0.44741 0.50703 0.0
N35 N 0.52085 0.51566 0.56089 0.0
C36 C 0.47793 0.5187 0.57109 0.0
C37 C 0.47581 0.52202 0.59495 0.0
C38 C 0.51825 0.52222 0.60857 0.0
C39 C 0.56208 0.51869 0.5976 0.0
C40 C 0.56256 0.51549 0.57362 0.0
Zn41 Zn 0.52142 0.51154 0.52576 0.0
C42 C 0.58773 0.44219 0.50885 0.0
N43 N 0.52081 0.5022 0.45238 0.0
C44 C 0.47788 0.50308 0.4407 0.0
C45 C 0.56255 0.50064 0.44107 0.0
C46 C 0.56207 0.50056 0.41705 0.0
C47 C 0.51822 0.50221 0.40457 0.0
C48 C 0.47576 0.50307 0.41674 0.0
Zn49 Zn 0.52143 0.50571 0.48755 0.0
O50 O 0.46613 0.46447 0.52557 0.0
C51 C 0.45523 0.57508 0.50375 0.0
O52 O 0.46497 0.45885 0.48795 0.0
H53 H 0.59631 0.50008 0.45068 0.0
H54 H 0.44516 0.51858 0.56068 0.0
H55 H 0.44511 0.50427 0.45 0.0
O56 O 0.46941 0.56235 0.52344 0.0
O57 O 0.47151 0.55677 0.48592 0.0
H58 H 0.5963 0.51311 0.56517 0.0
O59 O 0.57813 0.55233 0.48786 0.0
O60 O 0.57655 0.55887 0.52542 0.0
O61 O 0.57121 0.45504 0.48959 0.0
O62 O 0.57373 0.46046 0.52726 0.0
C63 C 0.59411 0.56992 0.50658 0.0
H64 H 0.4412 0.52403 0.60266 0.0
H65 H 0.59569 0.51916 0.6074 0.0
H66 H 0.59569 0.50023 0.40839 0.0
H67 H 0.44112 0.50359 0.40785 0.0
C68 C 0.95239 0.08018 0.47585 0.0
C69 C 0.94184 0.11046 0.45878 0.0
C70 C 0.88409 0.14602 0.48317 0.0
C71 C 0.90839 0.14316 0.46245 0.0
C72 C 0.89528 0.11598 0.50043 0.0
C73 C 0.92921 0.08324 0.49677 0.0
U74 U 0.0159 0.0151 0.43158 0.0
O75 O 0.0906 0.99405 0.42888 0.0
O76 O 0.03261 0.94555 0.42771 0.0
C77 C 0.07903 0.95259 0.42811 0.0
C78 C 0.98605 0.0447 0.47109 0.0
C79 C 0.10902 0.92415 0.44252 0.0
C80 C 0.123 0.87956 0.47605 0.0
C81 C 0.09383 0.90816 0.46347 0.0
C82 C 0.18281 0.88357 0.44707 0.0
C83 C 0.16782 0.86689 0.46792 0.0
C84 C 0.15373 0.91185 0.43455 0.0
C85 C 0.98937 0.04573 0.36927 0.0
C86 C 0.02937 0.01119 0.33733 0.0
C87 C 0.9705 0.06743 0.33023 0.0
C88 C 0.96352 0.07162 0.3538 0.0
C89 C 0.00353 0.03719 0.32168 0.0
C90 C 0.02231 0.01541 0.36095 0.0
C91 C 0.98201 0.05117 0.394 0.0
O92 O 0.96686 0.01063 0.46024 0.0
O93 O 0.02648 0.05712 0.46238 0.0
O94 O 0.01885 0.06671 0.40618 0.0
O95 O 0.96094 0.01847 0.40373 0.0
H96 H 0.95928 0.10861 0.44247 0.0
H97 H 0.90154 0.16622 0.44896 0.0
H98 H 0.87702 0.1171 0.51652 0.0
H99 H 0.93683 0.06002 0.5101 0.0
H100 H 0.11058 0.86746 0.49211 0.0
H101 H 0.05942 0.91744 0.46996 0.0
H102 H 0.21664 0.87389 0.44007 0.0
H103 H 0.16594 0.9237 0.41837 0.0
H104 H 0.05468 0.98729 0.33131 0.0
H105 H 0.95055 0.08841 0.31872 0.0
H106 H 0.93811 0.09531 0.35998 0.0
H107 H 0.04254 0.99511 0.37271 0.0
C108 C 0.95297 0.94137 0.53447 0.0
C109 C 0.95879 0.90014 0.54413 0.0
C110 C 0.88561 0.87442 0.5244 0.0
C111 C 0.92564 0.86695 0.53901 0.0
C112 C 0.88035 0.9154 0.51438 0.0
C113 C 0.91387 0.94849 0.5193 0.0
U114 U 0.0182 1.00422 0.58221 0.0
O115 O 0.0899 0.03347 0.58553 0.0
O116 O 0.02632 0.07453 0.58941 0.0
C117 C 0.07315 0.07308 0.58838 0.0
C118 C 0.98485 0.97795 0.54164 0.0
C119 C 0.09572 0.10776 0.57544 0.0
C120 C 0.14098 0.13306 0.54338 0.0
C121 C 0.11628 0.09983 0.55409 0.0
C122 C 0.12355 0.18255 0.57492 0.0
C123 C 0.14529 0.17474 0.55381 0.0
C124 C 0.09909 0.14943 0.58557 0.0
C125 C 1.00204 0.9639 0.64307 0.0
C126 C 0.03814 1.00026 0.67688 0.0
C127 C 0.98509 0.93876 0.68111 0.0
C128 C 0.97894 0.93499 0.65725 0.0
C129 C 0.0145 0.97161 0.69123 0.0
C130 C 0.03185 0.99649 0.65296 0.0
C131 C 0.99348 0.96032 0.61809 0.0
O132 O 0.96447 0.00879 0.55382 0.0
O133 O 0.02759 0.96742 0.54986 0.0
O134 O 0.03092 0.95054 0.606 0.0
O135 O 0.96723 0.9914 0.60913 0.0
H136 H 0.98822 0.89383 0.55616 0.0
H137 H 0.93034 0.83593 0.54723 0.0
H138 H 0.85 0.92198 0.50294 0.0
H139 H 0.90854 0.98004 0.51173 0.0
H140 H 0.15694 0.12608 0.52704 0.0
H141 H 0.11398 0.06788 0.54591 0.0
H142 H 0.1268 0.21392 0.58366 0.0
H143 H 0.08374 0.15614 0.6021 0.0
H144 H 0.06068 0.02613 0.68413 0.0
H145 H 0.96698 0.91577 0.69164 0.0
H146 H 0.95585 0.90962 0.64987 0.0
H147 H 0.04979 0.01923 0.64221 0.0
C148 C 0.44862 0.5784 0.97532 0.0
C149 C 0.43848 0.60874 0.95824 0.0
C150 C 0.38074 0.64468 0.98248 0.0
C151 C 0.40521 0.64164 0.96182 0.0
C152 C 0.39143 0.61451 0.99975 0.0
C153 C 0.42511 0.58152 0.99616 0.0
U154 U 0.51149 0.5118 0.93139 0.0
O155 O 0.58627 0.49103 0.9286 0.0
O156 O 0.52863 0.44222 0.92826 0.0
C157 C 0.575 0.44952 0.92839 0.0
C158 C 0.48223 0.5428 0.97072 0.0
C159 C 0.60548 0.4219 0.94304 0.0
C160 C 0.6202 0.37829 0.97687 0.0
C161 C 0.59056 0.40621 0.9641 0.0
C162 C 0.67995 0.38244 0.94787 0.0
C163 C 0.66522 0.36601 0.96882 0.0
C164 C 0.65041 0.41005 0.93516 0.0
C165 C 0.4839 0.53982 0.86882 0.0
C166 C 0.52252 0.50309 0.83712 0.0
C167 C 0.46617 0.56122 0.82962 0.0
C168 C 0.4592 0.56619 0.85317 0.0
C169 C 0.49805 0.52973 0.8213 0.0
C170 C 0.51555 0.50815 0.86071 0.0
C171 C 0.4768 0.54622 0.89351 0.0
O172 O 0.46293 0.50834 0.96029 0.0
O173 O 0.52246 0.55496 0.96172 0.0
O174 O 0.51368 0.56242 0.90541 0.0
O175 O 0.45611 0.51382 0.90368 0.0
H176 H 0.45611 0.6068 0.94198 0.0
H177 H 0.39867 0.66475 0.94832 0.0
H178 H 0.37298 0.61575 0.01578 0.0
H179 H 0.43228 0.55815 0.00947 0.0
H180 H 0.60797 0.36637 0.99301 0.0
H181 H 0.55599 0.41516 0.97053 0.0
H182 H 0.71392 0.37304 0.94092 0.0
H183 H 0.66242 0.42168 0.91891 0.0
H184 H 0.54767 0.47885 0.83131 0.0
H185 H 0.44623 0.58181 0.8179 0.0
H186 H 0.43456 0.59073 0.85917 0.0
H187 H 0.53505 0.4876 0.87263 0.0
C188 C 0.45234 0.44087 0.03593 0.0
C189 C 0.42809 0.42242 0.054 0.0
C190 C 0.38172 0.37655 0.0269 0.0
C191 C 0.39316 0.39068 0.04955 0.0
C192 C 0.40658 0.39464 0.00877 0.0
C193 C 0.44161 0.42676 0.01328 0.0
U194 U 0.52262 0.50204 0.08147 0.0
O195 O 0.59804 0.52198 0.08535 0.0
O196 O 0.54124 0.57117 0.08658 0.0
C197 C 0.58746 0.56355 0.08687 0.0
C198 C 0.48884 0.4744 0.04123 0.0
C199 C 0.61643 0.59285 0.07346 0.0
C200 C 0.64267 0.62108 0.03731 0.0
C201 C 0.6138 0.59269 0.04935 0.0
C202 C 0.67645 0.64975 0.07345 0.0
C203 C 0.67465 0.64965 0.0493 0.0
C204 C 0.64768 0.62163 0.08537 0.0
C205 C 0.49716 0.47075 0.14305 0.0
C206 C 0.53749 0.50475 0.17646 0.0
C207 C 0.47758 0.44899 0.18137 0.0
C208 C 0.47081 0.44493 0.15755 0.0
C209 C 0.51089 0.47903 0.19113 0.0
C210 C 0.53062 0.50067 0.15259 0.0
C211 C 0.4892 0.46598 0.11808 0.0
O212 O 0.47276 0.50938 0.05179 0.0
O213 O 0.52878 0.45973 0.05072 0.0
O214 O 0.52531 0.45008 0.1068 0.0
O215 O 0.4687 0.49921 0.10799 0.0
H216 H 0.43624 0.43263 0.07163 0.0
H217 H 0.37541 0.37684 0.06392 0.0
H218 H 0.39844 0.38446 0.99115 0.0
H219 H 0.46017 0.44059 0.99914 0.0
H220 H 0.64058 0.62022 0.01871 0.0
H221 H 0.58969 0.5706 0.03991 0.0
H222 H 0.69988 0.67195 0.08322 0.0
H223 H 0.64988 0.62236 0.10398 0.0
H224 H 0.56309 0.52845 0.18343 0.0
H225 H 0.45707 0.42821 0.19213 0.0
H226 H 0.44498 0.42154 0.15043 0.0
H227 H 0.55124 0.52091 0.14157 0.0
C228 C 0.14959 0.124 0.02473 0.0
C229 C 0.13068 0.10441 0.00435 0.0
C230 C 0.18381 0.15703 0.02403 0.0
C231 C 0.19979 0.17156 1.00287 0.0
C232 C 0.18202 0.15109 0.98252 0.0
C233 C 0.14761 0.11802 0.98321 0.0
C234 C 0.23552 0.20734 1.00165 0.0
C235 C 0.23913 0.23966 0.01766 0.0
C236 C 0.27482 0.2757 0.01781 0.0
C237 C 0.26753 0.31182 0.03243 0.0
C238 C 0.30149 0.34505 0.03475 0.0
C239 C 0.34392 0.34299 0.02258 0.0
H240 H 0.32439 0.24654 0.99397 0.0
C241 C 0.35085 0.30755 0.0074 0.0
C242 C 0.31676 0.27409 0.00509 0.0
H243 H 0.38345 0.30483 0.99799 0.0
H244 H 0.13785 0.11398 0.04133 0.0
H245 H 0.19796 0.17072 0.04014 0.0
H246 H 0.19415 0.16123 0.96601 0.0
H247 H 0.13402 0.10341 0.96719 0.0
H248 H 0.25755 0.20785 0.9867 0.0
H249 H 0.21372 0.24056 0.03134 0.0
H250 H 0.23564 0.31409 0.04243 0.0
H251 H 0.29473 0.37222 0.04634 0.0
C252 C 0.12798 0.88124 0.98905 0.0
C253 C 0.12161 0.90665 0.00904 0.0
C254 C 0.16032 0.8468 0.98901 0.0
C255 C 0.18803 0.83728 0.00891 0.0
C256 C 0.18103 0.86221 0.02904 0.0
C257 C 0.14816 0.89657 0.02914 0.0
C258 C 0.22344 0.80103 0.00936 0.0
C259 C 0.24262 0.78415 0.99019 0.0
C260 C 0.27648 0.74696 0.98966 0.0
C261 C 0.28007 0.72329 0.96893 0.0
C262 C 0.31289 0.68951 0.9669 0.0
C263 C 0.34368 0.67882 0.98549 0.0
H264 H 0.30546 0.75379 0.02468 0.0
C265 C 0.33965 0.70194 0.00646 0.0
C266 C 0.3064 0.73576 0.00854 0.0
H267 H 0.36319 0.69484 0.02103 0.0
H268 H 0.10749 0.88757 0.97336 0.0
H269 H 0.16256 0.82749 0.97336 0.0
H270 H 0.20134 0.85535 0.04471 0.0
H271 H 0.14386 0.91539 0.04486 0.0
H272 H 0.23387 0.78818 0.02598 0.0
H273 H 0.23272 0.79753 0.97364 0.0
H274 H 0.2574 0.73104 0.95413 0.0
H275 H 0.31422 0.67185 0.95064 0.0
C276 C 0.89526 0.88686 0.99327 0.0
C277 C 0.91152 0.9142 0.01162 0.0
C278 C 0.86386 0.85228 0.99711 0.0
C279 C 0.84818 0.84469 0.0194 0.0
C280 C 0.86335 0.87295 0.03744 0.0
C281 C 0.89439 0.90726 0.03363 0.0
C282 C 0.81913 0.80625 0.02526 0.0
C283 C 0.79163 0.78226 0.01032 0.0
C284 C 0.76363 0.74467 0.0183 0.0
C285 C 0.71723 0.73649 0.00922 0.0
C286 C 0.68862 0.70435 0.0186 0.0
C287 C 0.70622 0.67967 0.03708 0.0
H288 H 0.81853 0.72211 0.04243 0.0
C289 C 0.75384 0.68588 0.04496 0.0
C290 C 0.78222 0.71788 0.03568 0.0
H291 H 0.76894 0.6665 0.0587 0.0
H292 H 0.90795 0.89131 0.97612 0.0
H293 H 0.85353 0.83079 0.98283 0.0
H294 H 0.85184 0.868 0.05476 0.0
H295 H 0.90581 0.9278 0.04816 0.0
H296 H 0.81929 0.79816 0.04334 0.0
H297 H 0.78688 0.79186 0.99257 0.0
H298 H 0.70235 0.7563 0.99561 0.0
H299 H 0.65212 0.7002 0.01209 0.0
C300 C 0.89646 0.12954 0.02064 0.0
C301 C 0.9204 0.11247 1.00162 0.0
C302 C 0.86547 0.16504 0.01813 0.0
C303 C 0.85847 0.18431 0.99659 0.0
C304 C 0.88261 0.16729 0.97773 0.0
C305 C 0.91279 0.13158 0.98013 0.0
C306 C 0.82809 0.22323 0.9931 0.0
C307 C 0.78884 0.2323 0.00505 0.0
C308 C 0.75731 0.26934 0.99885 0.0
C309 C 0.70745 0.26456 0.9994 0.0
C310 C 0.67718 0.29689 0.99064 0.0
C311 C 0.69637 0.33476 0.98141 0.0
H312 H 0.81464 0.31388 0.9913 0.0
C313 C 0.74622 0.34083 0.98254 0.0
C314 C 0.77635 0.30852 0.99115 0.0
H315 H 0.76209 0.37018 0.9762 0.0
H316 H 0.90173 0.11555 0.03743 0.0
H317 H 0.84807 0.17794 0.03312 0.0
H318 H 0.87803 0.18166 0.96098 0.0
H319 H 0.93086 0.11945 0.96514 0.0
H320 H 0.83646 0.2435 0.97872 0.0
H321 H 0.77704 0.2099 0.01786 0.0
H322 H 0.69193 0.23484 0.0055 0.0
H323 H 0.63894 0.29119 0.99002 0.0
C324 C 0.64213 0.62988 0.52608 0.0
C325 C 0.63211 0.60356 0.50644 0.0
C326 C 0.67721 0.66231 0.52587 0.0
C327 C 0.70332 0.66897 0.50604 0.0
C328 C 0.69408 0.64206 0.4866 0.0
C329 C 0.65848 0.61 0.48668 0.0
C330 C 0.74142 0.70269 0.50548 0.0
C331 C 0.73907 0.74082 0.51725 0.0
C332 C 0.77708 0.77471 0.51729 0.0
C333 C 0.76462 0.81831 0.52143 0.0
C334 C 0.79969 0.85082 0.52296 0.0
C335 C 0.8482 0.84031 0.5208 0.0
H336 H 0.83671 0.73087 0.51204 0.0
C337 C 0.86075 0.7967 0.51653 0.0
C338 C 0.82558 0.76423 0.51471 0.0
H339 H 0.89787 0.78765 0.5148 0.0
H340 H 0.62261 0.62565 0.54161 0.0
H341 H 0.68431 0.68163 0.54139 0.0
H342 H 0.71404 0.6462 0.47119 0.0
H343 H 0.65185 0.59008 0.47132 0.0
H344 H 0.77093 0.6967 0.49421 0.0
H345 H 0.70713 0.74839 0.52664 0.0
H346 H 0.72761 0.82724 0.52369 0.0
H347 H 0.78896 0.88402 0.52661 0.0
C348 C 0.6294 0.38067 0.48946 0.0
C349 C 0.62232 0.40581 0.50947 0.0
C350 C 0.66193 0.34639 0.48952 0.0
C351 C 0.68917 0.33678 0.50955 0.0
C352 C 0.68139 0.36138 0.52972 0.0
C353 C 0.64829 0.39556 0.52971 0.0
C354 C 0.72491 0.30079 0.51007 0.0
C355 C 0.74472 0.2844 0.49095 0.0
C356 C 0.77882 0.24742 0.49043 0.0
C357 C 0.78268 0.22388 0.46968 0.0
C358 C 0.81579 0.19036 0.46763 0.0
C359 C 0.84667 0.17983 0.48622 0.0
H360 H 0.80755 0.25428 0.52548 0.0
C361 C 0.84235 0.2028 0.50722 0.0
C362 C 0.80875 0.23633 0.50933 0.0
H363 H 0.86591 0.19582 0.5218 0.0
H364 H 0.60934 0.38711 0.47366 0.0
H365 H 0.66472 0.32729 0.47383 0.0
H366 H 0.7013 0.35442 0.54549 0.0
H367 H 0.64342 0.41419 0.54545 0.0
H368 H 0.73503 0.28771 0.52668 0.0
H369 H 0.73516 0.29801 0.47442 0.0
H370 H 0.75999 0.23154 0.45487 0.0
H371 H 0.81729 0.17278 0.45135 0.0
C372 C 0.38671 0.40782 0.52839 0.0
C373 C 0.41068 0.41398 0.50791 0.0
C374 C 0.35197 0.37539 0.52971 0.0
C375 C 0.34042 0.34816 0.51057 0.0
C376 C 0.36451 0.35412 0.49013 0.0
C377 C 0.39894 0.38702 0.48871 0.0
C378 C 0.3055 0.31187 0.51207 0.0
C379 C 0.26761 0.31427 0.5257 0.0
C380 C 0.23463 0.27739 0.52966 0.0
C381 C 0.1893 0.28661 0.53809 0.0
C382 C 0.15937 0.25317 0.54483 0.0
C383 C 0.1743 0.20957 0.54359 0.0
H384 H 0.28393 0.22519 0.5215 0.0
C385 C 0.21893 0.20012 0.53429 0.0
C386 C 0.24886 0.23365 0.52742 0.0
H387 H 0.23184 0.16697 0.53338 0.0
H388 H 0.39504 0.42789 0.54354 0.0
H389 H 0.33522 0.37097 0.54597 0.0
H390 H 0.35667 0.33328 0.47522 0.0
H391 H 0.41702 0.39075 0.47273 0.0
H392 H 0.31088 0.28298 0.50141 0.0
H393 H 0.26013 0.34493 0.53449 0.0
H394 H 0.17739 0.31996 0.54 0.0
H395 H 0.1249 0.26159 0.55154 0.0
C396 C 0.39632 0.62831 0.52004 0.0
C397 C 0.42156 0.61187 0.50127 0.0
C398 C 0.36541 0.66383 0.51737 0.0
C399 C 0.35972 0.68371 0.49593 0.0
C400 C 0.3851 0.6673 0.47732 0.0
C401 C 0.41526 0.6316 0.47987 0.0
C402 C 0.32947 0.72268 0.4923 0.0
C403 C 0.2898 0.73171 0.50395 0.0
C404 C 0.25868 0.76901 0.4977 0.0
C405 C 0.20876 0.76459 0.49809 0.0
C406 C 0.17889 0.79726 0.48938 0.0
C407 C 0.19854 0.83512 0.48036 0.0
H408 H 0.3165 0.81327 0.49048 0.0
C409 C 0.24845 0.84079 0.48162 0.0
C410 C 0.27818 0.80815 0.49019 0.0
H411 H 0.26466 0.87012 0.47543 0.0
H412 H 0.40056 0.61385 0.53676 0.0
H413 H 0.34706 0.67624 0.53219 0.0
H414 H 0.38154 0.68213 0.46065 0.0
H415 H 0.43431 0.61996 0.46508 0.0
H416 H 0.33844 0.74314 0.47809 0.0
H417 H 0.27746 0.70919 0.51658 0.0
H418 H 0.19288 0.73491 0.50404 0.0
H419 H 0.1406 0.79187 0.48866 0.0
C420 C 0.04896 0.03944 0.14847 0.0
C421 C 0.01673 0.01566 0.13398 0.0
C422 C 0.04506 0.03892 0.17237 0.0
C423 C 0.00901 0.01419 0.18229 0.0
C424 C 0.97726 0.99011 0.16775 0.0
C425 C 0.98112 0.99069 0.14393 0.0
C426 C 1.0014 0.01429 0.20747 0.0
C427 C 0.03463 0.02665 0.22365 0.0
C428 C 0.02547 0.02789 0.2487 0.0
C429 C 0.06442 0.02602 0.26452 0.0
C430 C 0.05735 0.02841 0.28817 0.0
C431 C 0.01109 0.03317 0.29656 0.0
H432 H 0.9482 0.03566 0.24561 0.0
C433 C 0.9721 0.03513 0.28074 0.0
C434 C 0.97915 0.03272 0.25712 0.0
H435 H 0.93596 0.03853 0.2866 0.0
H436 H 0.07637 0.05947 0.14132 0.0
H437 H 0.06949 0.05893 0.18282 0.0
H438 H 0.94909 0.97084 0.17483 0.0
H439 H 0.95614 0.97147 0.1333 0.0
H440 H 0.96705 1.00237 0.21279 0.0
H441 H 0.07047 0.03484 0.21863 0.0
H442 H 0.10053 0.02281 0.25856 0.0
H443 H 0.08825 0.02746 0.29987 0.0
C444 C 0.04395 0.97353 0.86624 0.0
C445 C 0.01188 0.99879 0.87893 0.0
C446 C 0.04148 0.97295 0.8422 0.0
C447 C 0.00694 0.99786 0.83029 0.0
C448 C 0.97499 0.02306 0.84298 0.0
C449 C 0.97754 0.02374 0.86698 0.0
C450 C 1.00132 0.99669 0.80479 0.0
C451 C 0.03656 0.98553 0.7906 0.0
C452 C 0.02977 0.9832 0.76513 0.0
C453 C 0.06968 0.98778 0.75141 0.0
C454 C 0.06477 0.98458 0.72744 0.0
C455 C 0.01984 0.97614 0.71667 0.0
H456 H 0.95336 0.96963 0.76424 0.0
C457 C 0.97994 0.97135 0.73042 0.0
C458 C 0.98481 0.97469 0.75434 0.0
H459 H 0.94477 0.9651 0.72267 0.0
H460 H 0.07028 0.95332 0.87488 0.0
H461 H 0.06582 0.95202 0.83312 0.0
H462 H 0.94789 0.04242 0.8343 0.0
H463 H 0.9527 0.04407 0.87616 0.0
H464 H 0.96703 0.00693 0.79751 0.0
H465 H 0.07222 0.97933 0.79769 0.0
H466 H 0.10481 0.99387 0.75925 0.0
H467 H 0.09632 0.98788 0.71736 0.0
C468 C 0.54691 0.50186 0.64834 0.0
C469 C 0.51658 0.5266 0.63401 0.0
C470 C 0.54476 0.50577 0.67227 0.0
C471 C 0.51206 0.53452 0.68239 0.0
C472 C 0.48239 0.55968 0.66804 0.0
C473 C 0.48445 0.55568 0.64417 0.0
C474 C 0.50855 0.54031 0.70772 0.0
C475 C 0.52295 0.51043 0.72306 0.0
C476 C 0.51751 0.51632 0.74828 0.0
C477 C 0.51517 0.4794 0.76195 0.0
C478 C 0.50918 0.48363 0.78564 0.0
C479 C 0.50572 0.52499 0.79623 0.0
H480 H 0.51891 0.58708 0.74928 0.0
C481 C 0.50931 0.56197 0.78264 0.0
C482 C 0.51533 0.55775 0.75898 0.0
H483 H 0.50802 0.59432 0.79034 0.0
H484 H 0.572 0.47908 0.64105 0.0
H485 H 0.56924 0.48667 0.68265 0.0
H486 H 0.45726 0.58245 0.67532 0.0
H487 H 0.46118 0.57581 0.63367 0.0
H488 H 0.49083 0.56956 0.71376 0.0
H489 H 0.53661 0.47938 0.71701 0.0
H490 H 0.51718 0.4471 0.75423 0.0
H491 H 0.50632 0.45447 0.79558 0.0
C492 C 0.54725 0.47755 0.36598 0.0
C493 C 0.51653 0.50354 0.37904 0.0
C494 C 0.54443 0.47792 0.34194 0.0
C495 C 0.51097 0.50462 0.33044 0.0
C496 C 0.4806 0.53075 0.34353 0.0
C497 C 0.48343 0.53038 0.3675 0.0
C498 C 0.50458 0.50447 0.30496 0.0
C499 C 0.53806 0.49089 0.29034 0.0
C500 C 0.53005 0.4894 0.26493 0.0
C501 C 0.56969 0.49043 0.2508 0.0
C502 C 0.56356 0.48772 0.22687 0.0
C503 C 0.51758 0.48339 0.21653 0.0
H504 H 0.45257 0.48276 0.26474 0.0
C505 C 0.47792 0.48227 0.23067 0.0
C506 C 0.48402 0.48504 0.25455 0.0
H507 H 0.44199 0.47923 0.22326 0.0
H508 H 0.57264 0.45599 0.37432 0.0
H509 H 0.56757 0.45631 0.33258 0.0
H510 H 0.45438 0.55152 0.33518 0.0
H511 H 0.45969 0.5513 0.37701 0.0
H512 H 0.47111 0.51738 0.29806 0.0
H513 H 0.57324 0.4818 0.29702 0.0
H514 H 0.60558 0.49326 0.25831 0.0
H515 H 0.59492 0.48807 0.21649 0.0
loop_
_geom_bond_atom_site_label_1
_geom_bond_atom_site_label_2
_geom_bond_distance
_geom_bond_site_symmetry_2
_ccdc_geom_bond_type
C0 O16 1.251 . S
C0 O18 1.254 1_554 S
N1 C2 1.333 1_445 S
N1 C6 1.307 . S
N1 Zn7 2.020 . S
C2 N1 1.333 1_665 S
C2 C3 1.379 . S
C2 H20 0.952 . S
C3 C2 1.379 . S
C3 C4 1.390 1_665 S
C3 H30 0.949 . S
C4 C3 1.390 1_445 S
C4 C5 1.357 . S
C5 C4 1.357 . S
C5 C6 1.370 . S
C5 H31 0.950 . S
C6 N1 1.307 . S
C6 C5 1.370 . S
C6 H24 0.948 . S
Zn7 N1 2.020 . S
Zn7 O16 2.039 1_445 S
Zn7 O22 2.034 1_455 S
Zn7 O26 2.025 . S
Zn7 O28 2.024 1_545 S
C8 O27 1.246 1_554 S
C8 O28 1.249 . S
N9 C10 1.307 1_445 S
N9 C11 1.333 . S
N9 Zn15 2.020 . S
C10 N9 1.307 1_665 S
C10 C14 1.370 . S
C10 H21 0.948 . S
C11 N9 1.333 . S
C11 C12 1.379 . S
C11 H19 0.952 . S
C12 C11 1.379 . S
C12 C13 1.390 . S
C12 H32 0.949 . S
C13 C12 1.390 . S
C13 C14 1.357 1_445 S
C14 C10 1.370 . S
C14 C13 1.357 1_665 S
C14 H33 0.950 . S
Zn15 N9 2.020 . S
Zn15 O18 2.025 1_445 S
Zn15 O23 2.024 1_455 S
Zn15 O25 2.039 . S
Zn15 O27 2.034 1_545 S
O16 C0 1.251 . S
O16 Zn7 2.039 1_665 S
C17 O22 1.246 . S
C17 O23 1.249 1_554 S
O18 C0 1.254 1_556 S
O18 Zn15 2.025 1_665 S
H19 C11 0.952 . S
H20 C2 0.952 . S
H21 C10 0.948 . S
O22 Zn7 2.034 1_655 S
O22 C17 1.246 . S
O23 Zn15 2.024 1_655 S
O23 C17 1.249 1_556 S
H24 C6 0.948 . S
O25 Zn15 2.039 . S
O25 C29 1.251 1_556 S
O26 Zn7 2.025 . S
O26 C29 1.254 . S
O27 C8 1.246 1_556 S
O27 Zn15 2.034 1_565 S
O28 Zn7 2.024 1_565 S
O28 C8 1.249 . S
C29 O25 1.251 1_554 S
C29 O26 1.254 . S
H30 C3 0.949 . S
H31 C5 0.950 . S
H32 C12 0.949 . S
H33 C14 0.950 . S
C34 O50 1.251 . S
C34 O52 1.254 . S
N35 C36 1.333 . S
N35 C40 1.307 . S
N35 Zn41 2.020 . S
C36 N35 1.333 . S
C36 C37 1.379 . S
C36 H54 0.952 . S
C37 C36 1.379 . S
C37 C38 1.390 . S
C37 H64 0.949 . S
C38 C37 1.390 . S
C38 C39 1.357 . S
C39 C38 1.357 . S
C39 C40 1.370 . S
C39 H65 0.950 . S
C40 N35 1.307 . S
C40 C39 1.370 . S
C40 H58 0.948 . S
Zn41 N35 2.020 . S
Zn41 O50 2.039 . S
Zn41 O56 2.034 . S
Zn41 O60 2.025 . S
Zn41 O62 2.024 . S
C42 O61 1.246 . S
C42 O62 1.249 . S
N43 C44 1.307 . S
N43 C45 1.333 . S
N43 Zn49 2.020 . S
C44 N43 1.307 . S
C44 C48 1.370 . S
C44 H55 0.948 . S
C45 N43 1.333 . S
C45 C46 1.379 . S
C45 H53 0.952 . S
C46 C45 1.379 . S
C46 C47 1.390 . S
C46 H66 0.949 . S
C47 C46 1.390 . S
C47 C48 1.357 . S
C48 C44 1.370 . S
C48 C47 1.357 . S
C48 H67 0.950 . S
Zn49 N43 2.020 . S
Zn49 O52 2.025 . S
Zn49 O57 2.024 . S
Zn49 O59 2.039 . S
Zn49 O61 2.034 . S
O50 C34 1.251 . S
O50 Zn41 2.039 . S
C51 O56 1.246 . S
C51 O57 1.249 . S
O52 C34 1.254 . S
O52 Zn49 2.025 . S
H53 C45 0.952 . S
H54 C36 0.952 . S
H55 C44 0.948 . S
O56 Zn41 2.034 . S
O56 C51 1.246 . S
O57 Zn49 2.024 . S
O57 C51 1.249 . S
H58 C40 0.948 . S
O59 Zn49 2.039 . S
O59 C63 1.251 . S
O60 Zn41 2.025 . S
O60 C63 1.254 . S
O61 C42 1.246 . S
O61 Zn49 2.034 . S
O62 Zn41 2.024 . S
O62 C42 1.249 . S
C63 O59 1.251 . S
C63 O60 1.254 . S
H64 C37 0.949 . S
H65 C39 0.950 . S
H66 C46 0.949 . S
H67 C48 0.950 . S
C68 C69 1.264 . S
C68 C73 1.479 . S
C68 C78 1.465 . S
C69 C68 1.264 . S
C69 C71 1.339 . S
C69 H96 0.931 . S
C70 C71 1.395 . S
C70 C72 1.320 . S
C71 C69 1.339 . S
C71 C70 1.395 . S
C71 H97 0.929 . S
C72 C70 1.320 . S
C72 C73 1.405 . S
C72 H98 0.930 . S
C73 C68 1.479 . S
C73 C72 1.405 . S
C73 H99 0.931 . S
U74 O75 2.454 1_545 S
U74 O76 2.458 1_545 S
U74 C77 2.984 1_545 S
U74 C78 2.847 1_455 S
U74 C91 2.882 . S
U74 O92 2.441 1_455 S
U74 O93 2.420 1_455 S
U74 O94 2.455 1_545 S
U74 O95 2.449 . S
O75 U74 2.454 1_565 S
O75 C77 1.353 . S
O76 U74 2.458 1_565 S
O76 C77 1.286 . S
C77 U74 2.984 1_565 S
C77 O75 1.353 . S
C77 O76 1.286 . S
C77 C79 1.363 . S
C78 C68 1.465 . S
C78 U74 2.847 1_655 S
C78 O92 1.249 . S
C78 O93 1.202 . S
C79 C77 1.363 . S
C79 C81 1.408 . S
C79 C84 1.342 . S
C80 C81 1.310 . S
C80 C83 1.461 . S
C80 H100 0.932 . S
C81 C79 1.408 . S
C81 C80 1.310 . S
C81 H101 0.930 . S
C82 C83 1.474 . S
C82 C84 1.285 . S
C82 H102 0.929 . S
C83 C80 1.461 . S
C83 C82 1.474 . S
C84 C79 1.342 . S
C84 C82 1.285 . S
C84 H103 0.930 . S
C85 C88 1.424 1_455 S
C85 C90 1.245 1_545 S
C85 C91 1.428 . S
C86 C89 1.260 1_565 S
C86 C90 1.477 . S
C86 H104 0.932 . S
C87 C88 1.384 . S
C87 C89 1.479 1_655 S
C87 H105 0.929 . S
C88 C85 1.424 1_655 S
C88 C87 1.384 . S
C88 H106 0.928 . S
C89 C86 1.260 1_545 S
C89 C87 1.479 1_455 S
C90 C85 1.245 1_565 S
C90 C86 1.477 . S
C90 H107 0.932 . S
C91 U74 2.882 . S
C91 C85 1.428 . S
C91 O94 1.301 1_545 S
C91 O95 1.282 . S
O92 U74 2.441 1_655 S
O92 C78 1.249 . S
O93 U74 2.420 1_655 S
O93 C78 1.202 . S
O94 U74 2.455 1_565 S
O94 C91 1.301 1_565 S
O95 U74 2.449 . S
O95 C91 1.282 . S
H96 C69 0.931 . S
H97 C71 0.929 . S
H98 C72 0.930 . S
H99 C73 0.931 . S
H100 C80 0.932 . S
H101 C81 0.930 . S
H102 C82 0.929 . S
H103 C84 0.930 . S
H104 C86 0.932 . S
H105 C87 0.929 . S
H106 C88 0.928 . S
H107 C90 0.932 . S
C108 C109 1.264 . S
C108 C113 1.479 . S
C108 C118 1.465 . S
C109 C108 1.264 . S
C109 C111 1.339 . S
C109 H136 0.931 . S
C110 C111 1.395 . S
C110 C112 1.320 . S
C111 C109 1.339 . S
C111 C110 1.395 . S
C111 H137 0.929 . S
C112 C110 1.320 . S
C112 C113 1.405 . S
C112 H138 0.930 . S
C113 C108 1.479 . S
C113 C112 1.405 . S
C113 H139 0.931 . S
U114 O115 2.454 1_565 S
U114 O116 2.458 1_565 S
U114 C117 2.984 1_565 S
U114 C118 2.847 1_455 S
U114 C131 2.882 . S
U114 O132 2.441 . S
U114 O133 2.420 1_455 S
U114 O134 2.455 1_565 S
U114 O135 2.449 . S
O115 U114 2.454 1_545 S
O115 C117 1.353 . S
O116 U114 2.458 1_545 S
O116 C117 1.286 . S
C117 U114 2.984 1_545 S
C117 O115 1.353 . S
C117 O116 1.286 . S
C117 C119 1.363 . S
C118 C108 1.465 . S
C118 U114 2.847 1_655 S
C118 O132 1.249 1_655 S
C118 O133 1.202 . S
C119 C117 1.363 . S
C119 C121 1.408 . S
C119 C124 1.342 . S
C120 C121 1.310 . S
C120 C123 1.461 . S
C120 H140 0.932 . S
C121 C119 1.408 . S
C121 C120 1.310 . S
C121 H141 0.930 . S
C122 C123 1.474 . S
C122 C124 1.285 . S
C122 H142 0.929 . S
C123 C120 1.461 . S
C123 C122 1.474 . S
C124 C119 1.342 . S
C124 C122 1.285 . S
C124 H143 0.930 . S
C125 C128 1.424 . S
C125 C130 1.245 1_565 S
C125 C131 1.428 . S
C126 C129 1.260 . S
C126 C130 1.477 . S
C126 H144 0.932 . S
C127 C128 1.384 . S
C127 C129 1.479 1_565 S
C127 H145 0.928 1_455 S
C128 C125 1.424 . S
C128 C127 1.384 . S
C128 H146 0.928 1_455 S
C129 C126 1.260 . S
C129 C127 1.479 1_545 S
C130 C125 1.245 1_545 S
C130 C126 1.477 . S
C130 H147 0.932 . S
C131 U114 2.882 . S
C131 C125 1.428 . S
C131 O134 1.301 1_565 S
C131 O135 1.282 . S
O132 U114 2.441 . S
O132 C118 1.249 1_455 S
O133 U114 2.420 1_655 S
O133 C118 1.202 . S
O134 U114 2.455 1_545 S
O134 C131 1.301 1_545 S
O135 U114 2.449 . S
O135 C131 1.282 . S
H136 C109 0.931 . S
H137 C111 0.929 . S
H138 C112 0.930 . S
H139 C113 0.931 . S
H140 C120 0.932 . S
H141 C121 0.930 . S
H142 C122 0.929 . S
H143 C124 0.930 . S
H144 C126 0.932 . S
H145 C127 0.928 1_655 S
H146 C128 0.928 1_655 S
H147 C130 0.932 . S
C148 C149 1.264 . S
C148 C153 1.479 . S
C148 C158 1.465 . S
C149 C148 1.264 . S
C149 C151 1.339 . S
C149 H176 0.931 . S
C150 C151 1.395 . S
C150 C152 1.320 1_556 S
C151 C149 1.339 . S
C151 C150 1.395 . S
C151 H177 0.929 . S
C152 C150 1.320 1_554 S
C152 C153 1.405 1_554 S
C152 H178 0.930 . S
C153 C148 1.479 . S
C153 C152 1.405 1_556 S
C153 H179 0.931 1_556 S
U154 O155 2.454 . S
U154 O156 2.458 . S
U154 C157 2.984 . S
U154 C158 2.847 . S
U154 C171 2.882 . S
U154 O172 2.441 . S
U154 O173 2.420 . S
U154 O174 2.455 . S
U154 O175 2.449 . S
O155 U154 2.454 . S
O155 C157 1.353 . S
O156 U154 2.458 . S
O156 C157 1.286 . S
C157 U154 2.984 . S
C157 O155 1.353 . S
C157 O156 1.286 . S
C157 C159 1.363 . S
C158 C148 1.465 . S
C158 U154 2.847 . S
C158 O172 1.249 . S
C158 O173 1.202 . S
C159 C157 1.363 . S
C159 C161 1.408 . S
C159 C164 1.342 . S
C160 C161 1.310 1_554 S
C160 C163 1.461 1_554 S
C160 H180 0.932 . S
C161 C159 1.408 . S
C161 C160 1.310 1_556 S
C161 H181 0.930 1_556 S
C162 C163 1.474 . S
C162 C164 1.285 . S
C162 H182 0.929 . S
C163 C160 1.461 1_556 S
C163 C162 1.474 . S
C164 C159 1.342 . S
C164 C162 1.285 . S
C164 H183 0.930 . S
C165 C168 1.424 . S
C165 C170 1.245 . S
C165 C171 1.428 . S
C166 C169 1.260 . S
C166 C170 1.477 . S
C166 H184 0.932 . S
C167 C168 1.384 . S
C167 C169 1.479 . S
C167 H185 0.929 . S
C168 C165 1.424 . S
C168 C167 1.384 . S
C168 H186 0.928 . S
C169 C166 1.260 . S
C169 C167 1.479 . S
C170 C165 1.245 . S
C170 C166 1.477 . S
C170 H187 0.932 . S
C171 U154 2.882 . S
C171 C165 1.428 . S
C171 O174 1.301 . S
C171 O175 1.282 . S
O172 U154 2.441 . S
O172 C158 1.249 . S
O173 U154 2.420 . S
O173 C158 1.202 . S
O174 U154 2.455 . S
O174 C171 1.301 . S
O175 U154 2.449 . S
O175 C171 1.282 . S
H176 C149 0.931 . S
H177 C151 0.929 . S
H178 C152 0.930 . S
H179 C153 0.931 1_554 S
H180 C160 0.932 . S
H181 C161 0.930 1_554 S
H182 C162 0.929 . S
H183 C164 0.930 . S
H184 C166 0.932 . S
H185 C167 0.929 . S
H186 C168 0.928 . S
H187 C170 0.932 . S
C188 C189 1.264 . S
C188 C193 1.479 . S
C188 C198 1.465 . S
C189 C188 1.264 . S
C189 C191 1.339 . S
C189 H216 0.931 . S
C190 C191 1.395 . S
C190 C192 1.320 1_554 S
C191 C189 1.339 . S
C191 C190 1.395 . S
C191 H217 0.929 . S
C192 C190 1.320 1_556 S
C192 C193 1.405 1_556 S
C192 H218 0.930 . S
C193 C188 1.479 . S
C193 C192 1.405 1_554 S
C193 H219 0.931 1_554 S
U194 O195 2.454 . S
U194 O196 2.458 . S
U194 C197 2.984 . S
U194 C198 2.847 . S
U194 C211 2.882 . S
U194 O212 2.441 . S
U194 O213 2.420 . S
U194 O214 2.455 . S
U194 O215 2.449 . S
O195 U194 2.454 . S
O195 C197 1.353 . S
O196 U194 2.458 . S
O196 C197 1.286 . S
C197 U194 2.984 . S
C197 O195 1.353 . S
C197 O196 1.286 . S
C197 C199 1.363 . S
C198 C188 1.465 . S
C198 U194 2.847 . S
C198 O212 1.249 . S
C198 O213 1.202 . S
C199 C197 1.363 . S
C199 C201 1.408 . S
C199 C204 1.342 . S
C200 C201 1.292 1_556 S
C200 C203 1.442 1_556 S
C200 H220 0.970 . S
C201 C199 1.408 . S
C201 C200 1.292 1_554 S
C201 H221 0.955 . S
C202 C203 1.474 . S
C202 C204 1.285 . S
C202 H222 0.929 . S
C203 C200 1.442 1_554 S
C203 C202 1.474 . S
C204 C199 1.342 . S
C204 C202 1.285 . S
C204 H223 0.930 . S
C205 C208 1.424 . S
C205 C210 1.245 . S
C205 C211 1.428 . S
C206 C209 1.260 . S
C206 C210 1.477 . S
C206 H224 0.932 . S
C207 C208 1.384 . S
C207 C209 1.479 . S
C207 H225 0.929 . S
C208 C205 1.424 . S
C208 C207 1.384 . S
C208 H226 0.928 . S
C209 C206 1.260 . S
C209 C207 1.479 . S
C210 C205 1.245 . S
C210 C206 1.477 . S
C210 H227 0.932 . S
C211 U194 2.882 . S
C211 C205 1.428 . S
C211 O214 1.301 . S
C211 O215 1.282 . S
O212 U194 2.441 . S
O212 C198 1.249 . S
O213 U194 2.420 . S
O213 C198 1.202 . S
O214 U194 2.455 . S
O214 C211 1.301 . S
O215 U194 2.449 . S
O215 C211 1.282 . S
H216 C189 0.931 . S
H217 C191 0.929 . S
H218 C192 0.930 . S
H219 C193 0.931 1_556 S
H220 C200 0.970 . S
H221 C201 0.955 . S
H222 C202 0.929 . S
H223 C204 0.930 . S
H224 C206 0.932 . S
H225 C207 0.929 . S
H226 C208 0.928 . S
H227 C210 0.932 . S
C228 C229 1.386 . S
C228 C230 1.383 . S
C228 H244 0.951 . S
C229 C228 1.386 . S
C229 C233 1.383 1_554 S
C230 C228 1.383 . S
C230 C231 1.402 . S
C230 H245 0.951 . S
C231 C230 1.402 . S
C231 C232 1.375 1_554 S
C231 C234 1.481 . S
C232 C231 1.375 1_556 S
C232 C233 1.367 . S
C232 H246 0.951 . S
C233 C229 1.383 1_556 S
C233 C232 1.367 . S
C233 H247 0.950 . S
C234 C231 1.481 . S
C234 C235 1.297 . S
C234 H248 0.950 1_554 S
C235 C234 1.297 . S
C235 C236 1.479 . S
C235 H249 0.950 . S
C236 C235 1.479 . S
C236 C237 1.375 . S
C236 C242 1.404 . S
C237 C236 1.375 . S
C237 C238 1.369 . S
C237 H250 0.950 . S
C238 C237 1.369 . S
C238 C239 1.392 . S
C238 H251 0.951 . S
C239 C238 1.392 . S
C239 C241 1.384 1_554 S
H240 C242 0.949 1_556 S
C241 C239 1.384 1_556 S
C241 C242 1.385 1_556 S
C241 H243 0.950 . S
C242 C236 1.404 . S
C242 H240 0.949 1_554 S
C242 C241 1.385 1_554 S
H243 C241 0.950 . S
H244 C228 0.951 . S
H245 C230 0.951 . S
H246 C232 0.951 . S
H247 C233 0.950 . S
H248 C234 0.950 1_556 S
H249 C235 0.950 . S
H250 C237 0.950 . S
H251 C238 0.951 . S
C252 C253 1.386 1_556 S
C252 C254 1.383 . S
C252 H268 0.951 . S
C253 C252 1.386 1_554 S
C253 C257 1.383 . S
C254 C252 1.383 . S
C254 C255 1.402 1_556 S
C254 H269 0.951 . S
C255 C254 1.402 1_554 S
C255 C256 1.375 . S
C255 C258 1.481 . S
C256 C255 1.375 . S
C256 C257 1.367 . S
C256 H270 0.951 . S
C257 C253 1.383 . S
C257 C256 1.367 . S
C257 H271 0.950 . S
C258 C255 1.481 . S
C258 C259 1.297 1_554 S
C258 H272 0.950 . S
C259 C258 1.297 1_556 S
C259 C260 1.479 . S
C259 H273 0.950 . S
C260 C259 1.479 . S
C260 C261 1.375 . S
C260 C266 1.404 1_556 S
C261 C260 1.375 . S
C261 C262 1.369 . S
C261 H274 0.950 . S
C262 C261 1.369 . S
C262 C263 1.392 . S
C262 H275 0.951 . S
C263 C262 1.392 . S
C263 C265 1.384 1_556 S
H264 C266 0.949 . S
C265 C263 1.384 1_554 S
C265 C266 1.385 . S
C265 H267 0.950 . S
C266 C260 1.404 1_554 S
C266 H264 0.949 . S
C266 C265 1.385 . S
H267 C265 0.950 . S
H268 C252 0.951 . S
H269 C254 0.951 . S
H270 C256 0.951 . S
H271 C257 0.950 . S
H272 C258 0.950 . S
H273 C259 0.950 . S
H274 C261 0.950 . S
H275 C262 0.951 . S
C276 C277 1.386 1_556 S
C276 C278 1.383 . S
C276 H292 0.951 . S
C277 C276 1.386 1_554 S
C277 C281 1.383 . S
C278 C276 1.383 . S
C278 C279 1.402 1_556 S
C278 H293 0.951 . S
C279 C278 1.402 1_554 S
C279 C280 1.375 . S
C279 C282 1.481 . S
C280 C279 1.375 . S
C280 C281 1.367 . S
C280 H294 0.951 . S
C281 C277 1.383 . S
C281 C280 1.367 . S
C281 H295 0.950 . S
C282 C279 1.481 . S
C282 C283 1.303 . S
C282 H296 0.950 . S
C283 C282 1.303 . S
C283 C284 1.481 . S
C283 H297 0.941 1_554 S
C284 C283 1.481 . S
C284 C285 1.375 1_554 S
C284 C290 1.404 . S
C285 C284 1.375 1_556 S
C285 C286 1.369 . S
C285 H298 0.950 . S
C286 C285 1.369 . S
C286 C287 1.392 1_556 S
C286 H299 0.951 . S
C287 C286 1.392 1_554 S
C287 C289 1.384 . S
H288 C290 0.949 . S
C289 C287 1.384 . S
C289 C290 1.385 . S
C289 H291 0.950 . S
C290 C284 1.404 . S
C290 H288 0.949 . S
C290 C289 1.385 . S
H291 C289 0.950 . S
H292 C276 0.951 . S
H293 C278 0.951 . S
H294 C280 0.951 . S
H295 C281 0.950 . S
H296 C282 0.950 . S
H297 C283 0.941 1_556 S
H298 C285 0.950 . S
H299 C286 0.951 . S
C300 C301 1.386 . S
C300 C302 1.383 . S
C300 H316 0.951 . S
C301 C300 1.386 . S
C301 C305 1.383 1_554 S
C302 C300 1.383 . S
C302 C303 1.402 . S
C302 H317 0.951 . S
C303 C302 1.402 . S
C303 C304 1.375 1_554 S
C303 C306 1.481 . S
C304 C303 1.375 1_556 S
C304 C305 1.367 . S
C304 H318 0.951 . S
C305 C301 1.383 1_556 S
C305 C304 1.367 . S
C305 H319 0.950 . S
C306 C303 1.481 . S
C306 C307 1.297 . S
C306 H320 0.946 1_554 S
C307 C306 1.297 . S
C307 C308 1.479 . S
C307 H321 0.950 . S
C308 C307 1.479 . S
C308 C309 1.375 . S
C308 C314 1.404 . S
C309 C308 1.375 . S
C309 C310 1.369 . S
C309 H322 0.950 . S
C310 C309 1.369 . S
C310 C311 1.392 . S
C310 H323 0.951 . S
C311 C310 1.392 . S
C311 C313 1.384 . S
H312 C314 0.949 . S
C313 C311 1.384 . S
C313 C314 1.385 . S
C313 H315 0.950 1_554 S
C314 C308 1.404 . S
C314 H312 0.949 . S
C314 C313 1.385 . S
H315 C313 0.950 1_556 S
H316 C300 0.951 . S
H317 C302 0.951 . S
H318 C304 0.951 . S
H319 C305 0.950 . S
H320 C306 0.946 1_556 S
H321 C307 0.950 . S
H322 C309 0.950 . S
H323 C310 0.951 . S
C324 C325 1.386 . S
C324 C326 1.383 . S
C324 H340 0.951 . S
C325 C324 1.386 . S
C325 C329 1.383 . S
C326 C324 1.383 . S
C326 C327 1.402 . S
C326 H341 0.951 . S
C327 C326 1.402 . S
C327 C328 1.375 . S
C327 C330 1.481 . S
C328 C327 1.375 . S
C328 C329 1.367 . S
C328 H342 0.951 . S
C329 C325 1.383 . S
C329 C328 1.367 . S
C329 H343 0.950 . S
C330 C327 1.481 . S
C330 C331 1.297 . S
C330 H344 0.950 . S
C331 C330 1.297 . S
C331 C332 1.479 . S
C331 H345 0.950 . S
C332 C331 1.479 . S
C332 C333 1.375 . S
C332 C338 1.404 . S
C333 C332 1.375 . S
C333 C334 1.369 . S
C333 H346 0.950 . S
C334 C333 1.369 . S
C334 C335 1.392 . S
C334 H347 0.951 . S
C335 C334 1.392 . S
C335 C337 1.384 . S
H336 C338 0.949 . S
C337 C335 1.384 . S
C337 C338 1.385 . S
C337 H339 0.950 . S
C338 C332 1.404 . S
C338 H336 0.949 . S
C338 C337 1.385 . S
H339 C337 0.950 . S
H340 C324 0.951 . S
H341 C326 0.951 . S
H342 C328 0.951 . S
H343 C329 0.950 . S
H344 C330 0.950 . S
H345 C331 0.950 . S
H346 C333 0.950 . S
H347 C334 0.951 . S
C348 C349 1.386 . S
C348 C350 1.383 . S
C348 H364 0.951 . S
C349 C348 1.386 . S
C349 C353 1.383 . S
C350 C348 1.383 . S
C350 C351 1.402 . S
C350 H365 0.951 . S
C351 C350 1.402 . S
C351 C352 1.375 . S
C351 C354 1.481 . S
C352 C351 1.375 . S
C352 C353 1.367 . S
C352 H366 0.951 . S
C353 C349 1.383 . S
C353 C352 1.367 . S
C353 H367 0.950 . S
C354 C351 1.481 . S
C354 C355 1.297 . S
C354 H368 0.950 . S
C355 C354 1.297 . S
C355 C356 1.479 . S
C355 H369 0.950 . S
C356 C355 1.479 . S
C356 C357 1.375 . S
C356 C362 1.404 . S
C357 C356 1.375 . S
C357 C358 1.369 . S
C357 H370 0.950 . S
C358 C357 1.369 . S
C358 C359 1.392 . S
C358 H371 0.951 . S
C359 C358 1.392 . S
C359 C361 1.384 . S
H360 C362 0.949 . S
C361 C359 1.384 . S
C361 C362 1.385 . S
C361 H363 0.950 . S
C362 C356 1.404 . S
C362 H360 0.949 . S
C362 C361 1.385 . S
H363 C361 0.950 . S
H364 C348 0.951 . S
H365 C350 0.951 . S
H366 C352 0.951 . S
H367 C353 0.950 . S
H368 C354 0.950 . S
H369 C355 0.950 . S
H370 C357 0.950 . S
H371 C358 0.951 . S
C372 C373 1.386 . S
C372 C374 1.383 . S
C372 H388 0.951 . S
C373 C372 1.386 . S
C373 C377 1.383 . S
C374 C372 1.383 . S
C374 C375 1.402 . S
C374 H389 0.951 . S
C375 C374 1.402 . S
C375 C376 1.375 . S
C375 C378 1.481 . S
C376 C375 1.375 . S
C376 C377 1.367 . S
C376 H390 0.951 . S
C377 C373 1.383 . S
C377 C376 1.367 . S
C377 H391 0.950 . S
C378 C375 1.481 . S
C378 C379 1.297 . S
C378 H392 0.950 . S
C379 C378 1.297 . S
C379 C380 1.479 . S
C379 H393 0.950 . S
C380 C379 1.479 . S
C380 C381 1.375 . S
C380 C386 1.404 . S
C381 C380 1.375 . S
C381 C382 1.369 . S
C381 H394 0.950 . S
C382 C381 1.369 . S
C382 C383 1.392 . S
C382 H395 0.951 . S
C383 C382 1.392 . S
C383 C385 1.384 . S
H384 C386 0.949 . S
C385 C383 1.384 . S
C385 C386 1.385 . S
C385 H387 0.950 . S
C386 C380 1.404 . S
C386 H384 0.949 . S
C386 C385 1.385 . S
H387 C385 0.950 . S
H388 C372 0.951 . S
H389 C374 0.951 . S
H390 C376 0.951 . S
H391 C377 0.950 . S
H392 C378 0.950 . S
H393 C379 0.950 . S
H394 C381 0.950 . S
H395 C382 0.951 . S
C396 C397 1.386 . S
C396 C398 1.383 . S
C396 H412 0.951 . S
C397 C396 1.386 . S
C397 C401 1.383 . S
C398 C396 1.383 . S
C398 C399 1.402 . S
C398 H413 0.951 . S
C399 C398 1.402 . S
C399 C400 1.375 . S
C399 C402 1.481 . S
C400 C399 1.375 . S
C400 C401 1.367 . S
C400 H414 0.951 . S
C401 C397 1.383 . S
C401 C400 1.367 . S
C401 H415 0.950 . S
C402 C399 1.481 . S
C402 C403 1.297 . S
C402 H416 0.950 . S
C403 C402 1.297 . S
C403 C404 1.479 . S
C403 H417 0.950 . S
C404 C403 1.479 . S
C404 C405 1.375 . S
C404 C410 1.404 . S
C405 C404 1.375 . S
C405 C406 1.369 . S
C405 H418 0.950 . S
C406 C405 1.369 . S
C406 C407 1.392 . S
C406 H419 0.951 . S
C407 C406 1.392 . S
C407 C409 1.384 . S
H408 C410 0.949 . S
C409 C407 1.384 . S
C409 C410 1.385 . S
C409 H411 0.950 . S
C410 C404 1.404 . S
C410 H408 0.949 . S
C410 C409 1.385 . S
H411 C409 0.950 . S
H412 C396 0.951 . S
H413 C398 0.951 . S
H414 C400 0.951 . S
H415 C401 0.950 . S
H416 C402 0.950 . S
H417 C403 0.950 . S
H418 C405 0.950 . S
H419 C406 0.951 . S
C420 C421 1.386 . S
C420 C422 1.383 . S
C420 H436 0.951 . S
C421 C420 1.386 . S
C421 C425 1.383 1_445 S
C422 C420 1.383 . S
C422 C423 1.402 1_455 S
C422 H437 0.951 . S
C423 C422 1.402 1_655 S
C423 C424 1.375 1_545 S
C423 C426 1.481 . S
C424 C423 1.375 1_565 S
C424 C425 1.367 . S
C424 H438 0.951 . S
C425 C421 1.383 1_665 S
C425 C424 1.367 . S
C425 H439 0.950 . S
C426 C423 1.481 . S
C426 C427 1.297 1_655 S
C426 H440 0.950 1_545 S
C427 C426 1.297 1_455 S
C427 C428 1.479 1_455 S
C427 H441 0.950 . S
C428 C427 1.479 1_655 S
C428 C429 1.375 1_655 S
C428 C434 1.404 . S
C429 C428 1.375 1_455 S
C429 C430 1.369 . S
C429 H442 0.950 . S
C430 C429 1.369 . S
C430 C431 1.392 1_455 S
C430 H443 0.951 . S
C431 C430 1.392 1_655 S
C431 C433 1.384 . S
H432 C434 0.949 . S
C433 C431 1.384 . S
C433 C434 1.385 . S
C433 H435 0.950 1_545 S
C434 C428 1.404 . S
C434 H432 0.949 . S
C434 C433 1.385 . S
H435 C433 0.950 1_565 S
H436 C420 0.951 . S
H437 C422 0.951 . S
H438 C424 0.951 . S
H439 C425 0.950 . S
H440 C426 0.950 1_565 S
H441 C427 0.950 . S
H442 C429 0.950 . S
H443 C430 0.951 . S
C444 C445 1.386 . S
C444 C446 1.383 . S
C444 H460 0.951 . S
C445 C444 1.386 . S
C445 C449 1.383 1_445 S
C446 C444 1.383 . S
C446 C447 1.402 1_545 S
C446 H461 0.951 . S
C447 C446 1.402 1_565 S
C447 C448 1.375 1_455 S
C447 C450 1.481 . S
C448 C447 1.375 1_655 S
C448 C449 1.367 . S
C448 H462 0.951 . S
C449 C445 1.383 1_665 S
C449 C448 1.367 . S
C449 H463 0.950 . S
C450 C447 1.481 . S
C450 C451 1.303 . S
C450 H464 0.944 1_455 S
C451 C450 1.303 . S
C451 C452 1.479 . S
C451 H465 0.950 . S
C452 C451 1.479 . S
C452 C453 1.375 1_565 S
C452 C458 1.404 1_455 S
C453 C452 1.375 1_545 S
C453 C454 1.369 . S
C453 H466 0.950 . S
C454 C453 1.369 . S
C454 C455 1.392 . S
C454 H467 0.951 . S
C455 C454 1.392 . S
C455 C457 1.384 1_445 S
H456 C458 0.949 . S
C457 C455 1.384 1_665 S
C457 C458 1.385 . S
C457 H459 0.950 . S
C458 C452 1.404 1_655 S
C458 H456 0.949 . S
C458 C457 1.385 . S
H459 C457 0.950 . S
H460 C444 0.951 . S
H461 C446 0.951 . S
H462 C448 0.951 . S
H463 C449 0.950 . S
H464 C450 0.944 1_655 S
H465 C451 0.950 . S
H466 C453 0.950 . S
H467 C454 0.951 . S
C468 C469 1.386 . S
C468 C470 1.383 . S
C468 H484 0.951 . S
C469 C468 1.386 . S
C469 C473 1.383 . S
C470 C468 1.383 . S
C470 C471 1.402 . S
C470 H485 0.951 . S
C471 C470 1.402 . S
C471 C472 1.375 . S
C471 C474 1.481 . S
C472 C471 1.375 . S
C472 C473 1.367 . S
C472 H486 0.951 . S
C473 C469 1.383 . S
C473 C472 1.367 . S
C473 H487 0.950 . S
C474 C471 1.481 . S
C474 C475 1.297 . S
C474 H488 0.950 . S
C475 C474 1.297 . S
C475 C476 1.479 . S
C475 H489 0.950 . S
C476 C475 1.479 . S
C476 C477 1.375 . S
C476 C482 1.404 . S
C477 C476 1.375 . S
C477 C478 1.369 . S
C477 H490 0.950 . S
C478 C477 1.369 . S
C478 C479 1.392 . S
C478 H491 0.951 . S
C479 C478 1.392 . S
C479 C481 1.384 . S
H480 C482 0.949 . S
C481 C479 1.384 . S
C481 C482 1.385 . S
C481 H483 0.950 . S
C482 C476 1.404 . S
C482 H480 0.949 . S
C482 C481 1.385 . S
H483 C481 0.950 . S
H484 C468 0.951 . S
H485 C470 0.951 . S
H486 C472 0.951 . S
H487 C473 0.950 . S
H488 C474 0.950 . S
H489 C475 0.950 . S
H490 C477 0.950 . S
H491 C478 0.951 . S
C492 C493 1.386 . S
C492 C494 1.383 . S
C492 H508 0.951 . S
C493 C492 1.386 . S
C493 C497 1.383 . S
C494 C492 1.383 . S
C494 C495 1.402 . S
C494 H509 0.951 . S
C495 C494 1.402 . S
C495 C496 1.375 . S
C495 C498 1.481 . S
C496 C495 1.375 . S
C496 C497 1.367 . S
C496 H510 0.951 . S
C497 C493 1.383 . S
C497 C496 1.367 . S
C497 H511 0.950 . S
C498 C495 1.481 . S
C498 C499 1.297 . S
C498 H512 0.950 . S
C499 C498 1.297 . S
C499 C500 1.479 . S
C499 H513 0.950 . S
C500 C499 1.479 . S
C500 C501 1.375 . S
C500 C506 1.404 . S
C501 C500 1.375 . S
C501 C502 1.369 . S
C501 H514 0.950 . S
C502 C501 1.369 . S
C502 C503 1.392 . S
C502 H515 0.951 . S
C503 C502 1.392 . S
C503 C505 1.384 . S
H504 C506 0.949 . S
C505 C503 1.384 . S
C505 C506 1.385 . S
C505 H507 0.950 . S
C506 C500 1.404 . S
C506 H504 0.949 . S
C506 C505 1.385 . S
H507 C505 0.950 . S
H508 C492 0.951 . S
H509 C494 0.951 . S
H510 C496 0.951 . S
H511 C497 0.950 . S
H512 C498 0.950 . S
H513 C499 0.950 . S
H514 C501 0.950 . S
H515 C502 0.951 . S
C239 C190 1.421 . S
C229 C29 1.500 . S
C253 C8 1.476 . S
C263 C150 1.407 . S
C277 C0 1.475 . S
C287 C203 1.430 . S
C301 C17 1.504 . S
C311 C163 1.488 1_554 S
C325 C63 1.499 . S
C335 C110 1.424 . S
C349 C42 1.476 . S
C359 C70 1.409 . S
C383 C123 1.467 . S
C373 C34 1.475 . S
C407 C83 1.479 . S
C397 C51 1.505 . S
C421 C4 1.481 . S
C431 C89 1.448 1_655 S
C445 C13 1.470 . S
C455 C129 1.438 . S
C479 C169 1.438 . S
C469 C38 1.474 . S
C493 C47 1.470 . S
C503 C209 1.440 . S
