# Generated by pormake.
# Topology iac, (4,6)-cn, num edge types: 1
# Building blocks:
#     Node 0, Type 0, BuildingBlock: QUQFOY_clean_sbu_3, # of connection points: 4
#     Node 1, Type 0, BuildingBlock: QUQFOY_clean_sbu_3, # of connection points: 4
#     Node 2, Type 0, BuildingBlock: QUQFOY_clean_sbu_3, # of connection points: 4
#     Node 3, Type 0, BuildingBlock: QUQFOY_clean_sbu_3, # of connection points: 4
#     Node 4, Type 0, BuildingBlock: QUQFOY_clean_sbu_3, # of connection points: 4
#     Node 5, Type 0, BuildingBlock: QUQFOY_clean_sbu_3, # of connection points: 4
#     Node 6, Type 0, BuildingBlock: QUQFOY_clean_sbu_3, # of connection points: 4
#     Node 7, Type 0, BuildingBlock: QUQFOY_clean_sbu_3, # of connection points: 4
#     Node 8, Type 0, BuildingBlock: QUQFOY_clean_sbu_3, # of connection points: 4
#     Node 9, Type 0, BuildingBlock: QUQFOY_clean_sbu_3, # of connection points: 4
#     Node 10, Type 0, BuildingBlock: QUQFOY_clean_sbu_3, # of connection points: 4
#     Node 11, Type 0, BuildingBlock: QUQFOY_clean_sbu_3, # of connection points: 4
#     Node 12, Type 0, BuildingBlock: QUQFOY_clean_sbu_3, # of connection points: 4
#     Node 13, Type 0, BuildingBlock: QUQFOY_clean_sbu_3, # of connection points: 4
#     Node 14, Type 0, BuildingBlock: QUQFOY_clean_sbu_3, # of connection points: 4
#     Node 15, Type 0, BuildingBlock: QUQFOY_clean_sbu_3, # of connection points: 4
#     Node 16, Type 0, BuildingBlock: QUQFOY_clean_sbu_3, # of connection points: 4
#     Node 17, Type 0, BuildingBlock: QUQFOY_clean_sbu_3, # of connection points: 4
#     Node 18, Type 0, BuildingBlock: QUQFOY_clean_sbu_3, # of connection points: 4
#     Node 19, Type 0, BuildingBlock: QUQFOY_clean_sbu_3, # of connection points: 4
#     Node 20, Type 0, BuildingBlock: QUQFOY_clean_sbu_3, # of connection points: 4
#     Node 21, Type 0, BuildingBlock: QUQFOY_clean_sbu_3, # of connection points: 4
#     Node 22, Type 0, BuildingBlock: QUQFOY_clean_sbu_3, # of connection points: 4
#     Node 23, Type 0, BuildingBlock: QUQFOY_clean_sbu_3, # of connection points: 4
#     Node 24, Type 1, BuildingBlock: FUNLAD_clean_sbu_0, # of connection points: 6
#     Node 25, Type 1, BuildingBlock: FUNLAD_clean_sbu_0, # of connection points: 6
#     Node 26, Type 1, BuildingBlock: FUNLAD_clean_sbu_0, # of connection points: 6
#     Node 27, Type 1, BuildingBlock: FUNLAD_clean_sbu_0, # of connection points: 6
#     Node 28, Type 1, BuildingBlock: FUNLAD_clean_sbu_0, # of connection points: 6
#     Node 29, Type 1, BuildingBlock: FUNLAD_clean_sbu_0, # of connection points: 6
#     Node 30, Type 1, BuildingBlock: FUNLAD_clean_sbu_0, # of connection points: 6
#     Node 31, Type 1, BuildingBlock: FUNLAD_clean_sbu_0, # of connection points: 6
#     Node 32, Type 1, BuildingBlock: FUNLAD_clean_sbu_0, # of connection points: 6
#     Node 33, Type 1, BuildingBlock: FUNLAD_clean_sbu_0, # of connection points: 6
#     Node 34, Type 1, BuildingBlock: FUNLAD_clean_sbu_0, # of connection points: 6
#     Node 35, Type 1, BuildingBlock: FUNLAD_clean_sbu_0, # of connection points: 6
#     Node 36, Type 1, BuildingBlock: FUNLAD_clean_sbu_0, # of connection points: 6
#     Node 37, Type 1, BuildingBlock: FUNLAD_clean_sbu_0, # of connection points: 6
#     Node 38, Type 1, BuildingBlock: FUNLAD_clean_sbu_0, # of connection points: 6
#     Node 39, Type 1, BuildingBlock: FUNLAD_clean_sbu_0, # of connection points: 6
#     Edge 40, Type (0, 1), BuildingBlock: MIFKUJ_clean_linker_0, # of connection points: 2
#     Edge 41, Type (0, 1), BuildingBlock: MIFKUJ_clean_linker_0, # of connection points: 2
#     Edge 42, Type (0, 1), BuildingBlock: MIFKUJ_clean_linker_0, # of connection points: 2
#     Edge 43, Type (0, 1), BuildingBlock: MIFKUJ_clean_linker_0, # of connection points: 2
#     Edge 44, Type (0, 1), BuildingBlock: MIFKUJ_clean_linker_0, # of connection points: 2
#     Edge 45, Type (0, 1), BuildingBlock: MIFKUJ_clean_linker_0, # of connection points: 2
#     Edge 46, Type (0, 1), BuildingBlock: MIFKUJ_clean_linker_0, # of connection points: 2
#     Edge 47, Type (0, 1), BuildingBlock: MIFKUJ_clean_linker_0, # of connection points: 2
#     Edge 48, Type (0, 1), BuildingBlock: MIFKUJ_clean_linker_0, # of connection points: 2
#     Edge 49, Type (0, 1), BuildingBlock: MIFKUJ_clean_linker_0, # of connection points: 2
#     Edge 50, Type (0, 1), BuildingBlock: MIFKUJ_clean_linker_0, # of connection points: 2
#     Edge 51, Type (0, 1), BuildingBlock: MIFKUJ_clean_linker_0, # of connection points: 2
#     Edge 52, Type (0, 1), BuildingBlock: MIFKUJ_clean_linker_0, # of connection points: 2
#     Edge 53, Type (0, 1), BuildingBlock: MIFKUJ_clean_linker_0, # of connection points: 2
#     Edge 54, Type (0, 1), BuildingBlock: MIFKUJ_clean_linker_0, # of connection points: 2
#     Edge 55, Type (0, 1), BuildingBlock: MIFKUJ_clean_linker_0, # of connection points: 2
#     Edge 56, Type (0, 1), BuildingBlock: MIFKUJ_clean_linker_0, # of connection points: 2
#     Edge 57, Type (0, 1), BuildingBlock: MIFKUJ_clean_linker_0, # of connection points: 2
#     Edge 58, Type (0, 1), BuildingBlock: MIFKUJ_clean_linker_0, # of connection points: 2
#     Edge 59, Type (0, 1), BuildingBlock: MIFKUJ_clean_linker_0, # of connection points: 2
#     Edge 60, Type (0, 1), BuildingBlock: MIFKUJ_clean_linker_0, # of connection points: 2
#     Edge 61, Type (0, 1), BuildingBlock: MIFKUJ_clean_linker_0, # of connection points: 2
#     Edge 62, Type (0, 1), BuildingBlock: MIFKUJ_clean_linker_0, # of connection points: 2
#     Edge 63, Type (0, 1), BuildingBlock: MIFKUJ_clean_linker_0, # of connection points: 2
#     Edge 64, Type (0, 1), BuildingBlock: MIFKUJ_clean_linker_0, # of connection points: 2
#     Edge 65, Type (0, 1), BuildingBlock: MIFKUJ_clean_linker_0, # of connection points: 2
#     Edge 66, Type (0, 1), BuildingBlock: MIFKUJ_clean_linker_0, # of connection points: 2
#     Edge 67, Type (0, 1), BuildingBlock: MIFKUJ_clean_linker_0, # of connection points: 2
#     Edge 68, Type (0, 1), BuildingBlock: MIFKUJ_clean_linker_0, # of connection points: 2
#     Edge 69, Type (0, 1), BuildingBlock: MIFKUJ_clean_linker_0, # of connection points: 2
#     Edge 70, Type (0, 1), BuildingBlock: MIFKUJ_clean_linker_0, # of connection points: 2
#     Edge 71, Type (0, 1), BuildingBlock: MIFKUJ_clean_linker_0, # of connection points: 2
#     Edge 72, Type (0, 1), BuildingBlock: MIFKUJ_clean_linker_0, # of connection points: 2
#     Edge 73, Type (0, 1), BuildingBlock: MIFKUJ_clean_linker_0, # of connection points: 2
#     Edge 74, Type (0, 1), BuildingBlock: MIFKUJ_clean_linker_0, # of connection points: 2
#     Edge 75, Type (0, 1), BuildingBlock: MIFKUJ_clean_linker_0, # of connection points: 2
#     Edge 76, Type (0, 1), BuildingBlock: MIFKUJ_clean_linker_0, # of connection points: 2
#     Edge 77, Type (0, 1), BuildingBlock: MIFKUJ_clean_linker_0, # of connection points: 2
#     Edge 78, Type (0, 1), BuildingBlock: MIFKUJ_clean_linker_0, # of connection points: 2
#     Edge 79, Type (0, 1), BuildingBlock: MIFKUJ_clean_linker_0, # of connection points: 2
#     Edge 80, Type (0, 1), BuildingBlock: MIFKUJ_clean_linker_0, # of connection points: 2
#     Edge 81, Type (0, 1), BuildingBlock: MIFKUJ_clean_linker_0, # of connection points: 2
#     Edge 82, Type (0, 1), BuildingBlock: MIFKUJ_clean_linker_0, # of connection points: 2
#     Edge 83, Type (0, 1), BuildingBlock: MIFKUJ_clean_linker_0, # of connection points: 2
#     Edge 84, Type (0, 1), BuildingBlock: MIFKUJ_clean_linker_0, # of connection points: 2
#     Edge 85, Type (0, 1), BuildingBlock: MIFKUJ_clean_linker_0, # of connection points: 2
#     Edge 86, Type (0, 1), BuildingBlock: MIFKUJ_clean_linker_0, # of connection points: 2
#     Edge 87, Type (0, 1), BuildingBlock: MIFKUJ_clean_linker_0, # of connection points: 2
#     Edge 88, Type (0, 1), BuildingBlock: MIFKUJ_clean_linker_0, # of connection points: 2
#     Edge 89, Type (0, 1), BuildingBlock: MIFKUJ_clean_linker_0, # of connection points: 2
#     Edge 90, Type (0, 1), BuildingBlock: MIFKUJ_clean_linker_0, # of connection points: 2
#     Edge 91, Type (0, 1), BuildingBlock: MIFKUJ_clean_linker_0, # of connection points: 2
#     Edge 92, Type (0, 1), BuildingBlock: MIFKUJ_clean_linker_0, # of connection points: 2
#     Edge 93, Type (0, 1), BuildingBlock: MIFKUJ_clean_linker_0, # of connection points: 2
#     Edge 94, Type (0, 1), BuildingBlock: MIFKUJ_clean_linker_0, # of connection points: 2
#     Edge 95, Type (0, 1), BuildingBlock: MIFKUJ_clean_linker_0, # of connection points: 2
#     Edge 96, Type (0, 1), BuildingBlock: MIFKUJ_clean_linker_0, # of connection points: 2
#     Edge 97, Type (0, 1), BuildingBlock: MIFKUJ_clean_linker_0, # of connection points: 2
#     Edge 98, Type (0, 1), BuildingBlock: MIFKUJ_clean_linker_0, # of connection points: 2
#     Edge 99, Type (0, 1), BuildingBlock: MIFKUJ_clean_linker_0, # of connection points: 2
#     Edge 100, Type (0, 1), BuildingBlock: MIFKUJ_clean_linker_0, # of connection points: 2
#     Edge 101, Type (0, 1), BuildingBlock: MIFKUJ_clean_linker_0, # of connection points: 2
#     Edge 102, Type (0, 1), BuildingBlock: MIFKUJ_clean_linker_0, # of connection points: 2
#     Edge 103, Type (0, 1), BuildingBlock: MIFKUJ_clean_linker_0, # of connection points: 2
#     Edge 104, Type (0, 1), BuildingBlock: MIFKUJ_clean_linker_0, # of connection points: 2
#     Edge 105, Type (0, 1), BuildingBlock: MIFKUJ_clean_linker_0, # of connection points: 2
#     Edge 106, Type (0, 1), BuildingBlock: MIFKUJ_clean_linker_0, # of connection points: 2
#     Edge 107, Type (0, 1), BuildingBlock: MIFKUJ_clean_linker_0, # of connection points: 2
#     Edge 108, Type (0, 1), BuildingBlock: MIFKUJ_clean_linker_0, # of connection points: 2
#     Edge 109, Type (0, 1), BuildingBlock: MIFKUJ_clean_linker_0, # of connection points: 2
#     Edge 110, Type (0, 1), BuildingBlock: MIFKUJ_clean_linker_0, # of connection points: 2
#     Edge 111, Type (0, 1), BuildingBlock: MIFKUJ_clean_linker_0, # of connection points: 2
#     Edge 112, Type (0, 1), BuildingBlock: MIFKUJ_clean_linker_0, # of connection points: 2
#     Edge 113, Type (0, 1), BuildingBlock: MIFKUJ_clean_linker_0, # of connection points: 2
#     Edge 114, Type (0, 1), BuildingBlock: MIFKUJ_clean_linker_0, # of connection points: 2
#     Edge 115, Type (0, 1), BuildingBlock: MIFKUJ_clean_linker_0, # of connection points: 2
#     Edge 116, Type (0, 1), BuildingBlock: MIFKUJ_clean_linker_0, # of connection points: 2
#     Edge 117, Type (0, 1), BuildingBlock: MIFKUJ_clean_linker_0, # of connection points: 2
#     Edge 118, Type (0, 1), BuildingBlock: MIFKUJ_clean_linker_0, # of connection points: 2
#     Edge 119, Type (0, 1), BuildingBlock: MIFKUJ_clean_linker_0, # of connection points: 2
#     Edge 120, Type (0, 1), BuildingBlock: MIFKUJ_clean_linker_0, # of connection points: 2
#     Edge 121, Type (0, 1), BuildingBlock: MIFKUJ_clean_linker_0, # of connection points: 2
#     Edge 122, Type (0, 1), BuildingBlock: MIFKUJ_clean_linker_0, # of connection points: 2
#     Edge 123, Type (0, 1), BuildingBlock: MIFKUJ_clean_linker_0, # of connection points: 2
#     Edge 124, Type (0, 1), BuildingBlock: MIFKUJ_clean_linker_0, # of connection points: 2
#     Edge 125, Type (0, 1), BuildingBlock: MIFKUJ_clean_linker_0, # of connection points: 2
#     Edge 126, Type (0, 1), BuildingBlock: MIFKUJ_clean_linker_0, # of connection points: 2
#     Edge 127, Type (0, 1), BuildingBlock: MIFKUJ_clean_linker_0, # of connection points: 2
#     Edge 128, Type (0, 1), BuildingBlock: MIFKUJ_clean_linker_0, # of connection points: 2
#     Edge 129, Type (0, 1), BuildingBlock: MIFKUJ_clean_linker_0, # of connection points: 2
#     Edge 130, Type (0, 1), BuildingBlock: MIFKUJ_clean_linker_0, # of connection points: 2
#     Edge 131, Type (0, 1), BuildingBlock: MIFKUJ_clean_linker_0, # of connection points: 2
#     Edge 132, Type (0, 1), BuildingBlock: MIFKUJ_clean_linker_0, # of connection points: 2
#     Edge 133, Type (0, 1), BuildingBlock: MIFKUJ_clean_linker_0, # of connection points: 2
#     Edge 134, Type (0, 1), BuildingBlock: MIFKUJ_clean_linker_0, # of connection points: 2
#     Edge 135, Type (0, 1), BuildingBlock: MIFKUJ_clean_linker_0, # of connection points: 2
# Relax obj value: 0.300
# Max RMSD: 0.260
# Mean RMSD: 0.125
data_MOF--net-iac--node1-QUQFOY_clean_sbu_3--node2-FUNLAD_clean_sbu_0--edge1-MIFKUJ_clean_linker_0
_symmetry_space_group_name_H-M    P1
_symmetry_Int_Tables_number       1
_symmetry_cell_setting            triclinic
loop_
_symmetry_equiv_pos_as_xyz
'x, y, z'
_cell_length_a     70.705733
_cell_length_b     69.894551
_cell_length_c     75.354087
_cell_angle_alpha  90.893591
_cell_angle_beta   91.891297
_cell_angle_gamma 90.722562
loop_
_atom_site_label
_atom_site_type_symbol
_atom_site_fract_x
_atom_site_fract_y
_atom_site_fract_z
_atom_type_partial_charge
C0 C 0.02857 0.22531 0.20481 0.0
O1 O 0.04285 0.21711 0.21175 0.0
Cd2 Cd 0.0719 0.21486 0.1962 0.0
O3 O 0.0298 0.23375 0.19005 0.0
Cd4 Cd 0.05337 0.24067 0.1679 0.0
C5 C 0.05534 0.19378 0.15784 0.0
O6 O 0.08143 0.24641 0.18662 0.0
O7 O 0.08576 0.24167 0.15857 0.0
O8 O 0.0443 0.27375 0.16379 0.0
C9 C 0.09245 0.24706 0.17366 0.0
O10 O 0.06475 0.19134 0.17229 0.0
C11 C 0.03963 0.27151 0.14746 0.0
O12 O 0.04922 0.21016 0.15371 0.0
O13 O 0.04056 0.25472 0.14092 0.0
C14 C 0.98982 0.76892 0.35798 0.0
O15 O 0.00136 0.77754 0.3482 0.0
Cd16 Cd 0.03434 0.7812 0.35594 0.0
O17 O -0.00434 0.76067 0.37204 0.0
Cd18 Cd 0.02557 0.75413 0.38841 0.0
C19 C 0.03041 0.80127 0.39765 0.0
O20 O 0.04551 0.74997 0.36307 0.0
O21 O 0.05999 0.75258 0.38868 0.0
O22 O 0.01393 0.72168 0.39184 0.0
C23 C 0.06092 0.74943 0.37212 0.0
O24 O 0.03498 0.80317 0.38155 0.0
C25 C 0.01708 0.72126 0.40851 0.0
O26 O 0.02554 0.78501 0.40348 0.0
O27 O 0.02386 0.7364 0.41595 0.0
C28 C 0.5217 0.72069 0.68944 0.0
O29 O 0.53641 0.71406 0.69707 0.0
Cd30 Cd 0.5664 0.71564 0.68339 0.0
O31 O 0.52289 0.7297 0.67495 0.0
Cd32 Cd 0.54761 0.74048 0.65491 0.0
C33 C 0.55483 0.69495 0.64321 0.0
O34 O 0.57312 0.74863 0.67614 0.0
O35 O 0.58079 0.74509 0.64874 0.0
O36 O 0.53324 0.77183 0.65189 0.0
C37 C 0.58531 0.75089 0.66433 0.0
O38 O 0.56296 0.69282 0.65836 0.0
C39 C 0.53301 0.7714 0.63503 0.0
O40 O 0.54755 0.71076 0.63887 0.0
O41 O 0.53859 0.75616 0.62759 0.0
C42 C 0.49239 0.26487 0.85743 0.0
O43 O 0.50305 0.27463 0.84768 0.0
Cd44 Cd 0.53578 0.28083 0.85442 0.0
O45 O 0.49906 0.25693 0.87135 0.0
Cd46 Cd 0.52971 0.25352 0.88755 0.0
C47 C 0.53096 0.3013 0.89572 0.0
O48 O 0.5491 0.25072 0.86198 0.0
O49 O 0.56439 0.25538 0.88696 0.0
O50 O 0.52485 0.21956 0.89147 0.0
C51 C 0.56487 0.25185 0.8704 0.0
O52 O 0.53511 0.30323 0.87952 0.0
C53 C 0.52478 0.22028 0.90829 0.0
O54 O 0.52764 0.28481 0.90196 0.0
O55 O 0.5267 0.23667 0.91571 0.0
C56 C 0.10198 0.02027 0.26867 0.0
O57 O 0.09484 0.02803 0.2549 0.0
Cd58 Cd 0.1061 0.02467 0.2254 0.0
O59 O 0.11632 0.00948 0.26764 0.0
Cd60 Cd 0.13749 -0.00148 0.24413 0.0
C61 C 0.14904 0.04481 0.23528 0.0
O62 O 0.11259 0.99127 0.2222 0.0
O63 O 0.14091 0.9897 0.21265 0.0
O64 O 0.1435 0.96826 0.25916 0.0
C65 C 0.12334 0.98695 0.2097 0.0
O66 O 0.13374 0.04614 0.22602 0.0
C67 C 0.1614 0.96973 0.25827 0.0
O68 O 0.15284 0.02963 0.24368 0.0
O69 O 0.16791 0.98487 0.25153 0.0
C70 C 0.2994 0.92243 0.53316 0.0
O71 O 0.28717 0.93362 0.52649 0.0
Cd72 Cd 0.25441 0.92589 0.52233 0.0
O73 O 0.29445 0.90635 0.53939 0.0
Cd74 Cd 0.26526 0.88744 0.54388 0.0
C75 C 0.26147 0.88386 0.49907 0.0
O76 O 0.2449 0.91392 0.55013 0.0
O77 O 0.23054 0.88712 0.54451 0.0
O78 O 0.27915 0.87819 0.5725 0.0
C79 C 0.22942 0.90464 0.54885 0.0
O80 O 0.2556 0.90103 0.49908 0.0
C81 C 0.27442 0.86066 0.57066 0.0
O82 O 0.26652 0.87585 0.5135 0.0
O83 O 0.26572 0.85564 0.55629 0.0
C84 C 0.41851 0.98268 0.76338 0.0
O85 O 0.42996 0.97839 0.75136 0.0
Cd86 Cd 0.42026 0.98077 0.72065 0.0
O87 O 0.40255 0.98994 0.75935 0.0
Cd88 Cd 0.38307 0.00123 0.73419 0.0
C89 C 0.37868 0.95463 0.72318 0.0
O90 O 0.40862 0.01263 0.71653 0.0
O91 O 0.38152 0.00892 0.70274 0.0
O92 O 0.37759 0.02823 0.75369 0.0
C93 C 0.39858 0.01469 0.70246 0.0
O94 O 0.39561 0.95568 0.71793 0.0
C95 C 0.35995 0.02906 0.75019 0.0
O96 O 0.37087 0.96909 0.73013 0.0
O97 O 0.35289 0.01674 0.7392 0.0
C98 C 0.30834 0.07255 0.03602 0.0
O99 O 0.29147 0.06635 0.03703 0.0
Cd100 Cd 0.26505 0.08366 0.02489 0.0
O101 O 0.3123 0.08726 0.02703 0.0
Cd102 Cd 0.29638 0.1107 0.00802 0.0
C103 C 0.27503 0.1274 0.04447 0.0
O104 O 0.27214 0.09002 0.99455 0.0
O105 O 0.26764 0.12034 0.99217 0.0
O106 O 0.31818 0.11171 0.98357 0.0
C107 C 0.26256 0.10343 0.98777 0.0
O108 O 0.26433 0.11257 0.04391 0.0
C109 C 0.32187 0.12947 0.98562 0.0
O110 O 0.28789 0.12956 0.03326 0.0
O111 O 0.31507 0.13777 -0.00096 0.0
C112 C 0.80228 0.42531 0.03723 0.0
O113 O 0.78934 0.43403 0.02865 0.0
Cd114 Cd 0.75803 0.42216 0.02267 0.0
O115 O 0.79887 0.40931 0.04447 0.0
Cd116 Cd 0.77141 0.38742 0.04785 0.0
C117 C 0.77087 0.3797 0.00331 0.0
O118 O 0.74768 0.41155 0.05063 0.0
O119 O 0.73672 0.383 0.04613 0.0
O120 O 0.7803 0.38044 0.07862 0.0
C121 C 0.73341 0.4005 0.0492 0.0
O122 O 0.76309 0.39592 0.00143 0.0
C123 C 0.78019 0.36239 0.07624 0.0
O124 O 0.77589 0.37382 0.01863 0.0
O125 O 0.77652 0.35617 0.06057 0.0
C126 C 0.91615 0.48672 0.26842 0.0
O127 O 0.92816 0.48115 0.25731 0.0
Cd128 Cd 0.92502 0.4846 0.22572 0.0
O129 O 0.90145 0.4958 0.26338 0.0
Cd130 Cd 0.88573 0.50848 0.23641 0.0
C131 C 0.88133 0.46224 0.2214 0.0
O132 O 0.91459 0.51658 0.22282 0.0
O133 O 0.88967 0.52116 0.2064 0.0
O134 O 0.87701 0.53612 0.25404 0.0
C135 C 0.90756 0.5217 0.20803 0.0
O136 O 0.89904 0.462 0.21875 0.0
C137 C 0.85962 0.53547 0.24918 0.0
O138 O 0.87356 0.47699 0.22793 0.0
O139 O 0.85436 0.52201 0.23852 0.0
C140 C 0.80555 0.57712 0.5383 0.0
O141 O 0.7891 0.57143 0.54217 0.0
Cd142 Cd 0.76155 0.58651 0.52937 0.0
O143 O 0.80773 0.59013 0.5269 0.0
Cd144 Cd 0.7893 0.61085 0.50751 0.0
C145 C 0.77089 0.63263 0.54286 0.0
O146 O 0.76456 0.58844 0.49763 0.0
O147 O 0.75925 0.61843 0.49318 0.0
O148 O 0.8081 0.60722 0.48123 0.0
C149 C 0.75458 0.6011 0.49007 0.0
O150 O 0.76061 0.6177 0.54443 0.0
C151 C 0.81226 0.6249 0.4804 0.0
O152 O 0.78315 0.63348 0.53094 0.0
O153 O 0.80716 0.63557 0.49311 0.0
C154 C 0.61239 0.51259 0.77426 0.0
O155 O 0.60152 0.51552 0.76086 0.0
Cd156 Cd 0.61261 0.51655 0.7312 0.0
O157 O 0.62959 0.50798 0.77235 0.0
Cd158 Cd 0.65152 0.50045 0.74843 0.0
C159 C 0.65058 0.54745 0.73909 0.0
O160 O 0.62918 0.48747 0.72628 0.0
O161 O 0.65671 0.49497 0.71691 0.0
O162 O 0.66037 0.4714 0.76345 0.0
C163 C 0.64042 0.48777 0.71354 0.0
O164 O 0.63406 0.54441 0.73225 0.0
C165 C 0.67809 0.47443 0.7631 0.0
O166 O 0.65985 0.53403 0.74641 0.0
O167 O 0.68354 0.49013 0.75654 0.0
C168 C 0.95993 0.79207 0.84989 0.0
O169 O 0.96461 0.80241 0.83696 0.0
Cd170 Cd -0.00223 0.80868 0.83094 0.0
O171 O 0.97248 0.78388 0.85936 0.0
Cd172 Cd 0.00582 0.77843 0.8642 0.0
C173 C 0.01275 0.82616 0.87198 0.0
O174 O 0.01353 0.77849 0.83329 0.0
O175 O 0.03654 0.77355 0.85214 0.0
O176 O -0.0048 0.74676 0.87189 0.0
C177 C 0.03117 0.77641 0.83619 0.0
O178 O 0.00868 0.8294 0.85571 0.0
C179 C 0.00326 0.7472 0.88722 0.0
O180 O 0.01219 0.80929 0.87807 0.0
O181 O 0.01326 0.76192 0.89145 0.0
C182 C -0.00503 0.25066 0.6788 0.0
O183 O 0.0076 0.24163 0.68749 0.0
Cd184 Cd 0.03959 0.23786 0.6789 0.0
O185 O -0.00117 0.25904 0.66442 0.0
Cd186 Cd 0.02687 0.26459 0.64614 0.0
C187 C 0.03195 0.21731 0.63747 0.0
O188 O 0.04913 0.26915 0.67074 0.0
O189 O 0.06173 0.26648 0.64528 0.0
O190 O 0.01698 0.2973 0.64136 0.0
C191 C 0.06398 0.26939 0.66186 0.0
O192 O 0.03872 0.21591 0.65328 0.0
C193 C 0.01777 0.29644 0.62456 0.0
O194 O 0.02539 0.23308 0.63189 0.0
O195 O 0.0223 0.28048 0.61772 0.0
C196 C 0.46756 0.30763 0.35489 0.0
O197 O 0.47336 0.31551 0.34101 0.0
Cd198 Cd 0.50731 0.30958 0.34436 0.0
O199 O 0.4795 0.30634 0.36764 0.0
Cd200 Cd 0.4937 0.27642 0.37545 0.0
C201 C 0.51989 0.31365 0.39042 0.0
O202 O 0.50571 0.27502 0.34653 0.0
O203 O 0.52175 0.25918 0.36604 0.0
O204 O 0.46634 0.25456 0.37532 0.0
C205 C 0.52035 0.26546 0.35031 0.0
O206 O 0.51929 0.31977 0.37449 0.0
C207 C 0.46972 0.24924 0.39117 0.0
O208 O 0.51196 0.29789 0.39446 0.0
O209 O 0.48391 0.25688 0.39947 0.0
C210 C 0.48587 0.74913 0.17191 0.0
O211 O 0.49827 0.74113 0.18174 0.0
Cd212 Cd 0.53013 0.73552 0.17415 0.0
O213 O 0.49007 0.75573 0.15682 0.0
Cd214 Cd 0.51876 0.75959 0.13872 0.0
C215 C 0.52275 0.71155 0.13395 0.0
O216 O 0.54047 0.76559 0.16362 0.0
O217 O 0.55367 0.76145 0.13861 0.0
O218 O 0.50798 0.79172 0.13218 0.0
C219 C 0.55555 0.76514 0.1551 0.0
O220 O 0.52821 0.71153 0.15024 0.0
C221 C 0.51031 0.7905 0.11558 0.0
O222 O 0.51763 0.72697 0.12649 0.0
O223 O 0.51603 0.77458 0.10956 0.0
C224 C 0.92323 0.01585 0.81042 0.0
O225 O 0.93511 0.00862 0.80006 0.0
Cd226 Cd 0.92671 -0.00303 0.77083 0.0
O227 O 0.90604 0.01793 0.80534 0.0
Cd228 Cd 0.88468 0.01296 0.77924 0.0
C229 C 0.89131 0.96557 0.7826 0.0
O230 O 0.90746 0.02078 0.75739 0.0
O231 O 0.88176 0.0073 0.7471 0.0
O232 O 0.87254 0.04368 0.78774 0.0
C233 C 0.89774 0.0147 0.74401 0.0
O234 O 0.90752 0.96846 0.77614 0.0
C235 C 0.8552 0.03925 0.7852 0.0
O236 O 0.88048 0.97944 0.78618 0.0
O237 O 0.85133 0.02221 0.78002 0.0
C238 C 0.7889 0.08361 0.50047 0.0
O239 O 0.77534 0.07545 0.50818 0.0
Cd240 Cd 0.74386 0.08787 0.51023 0.0
O241 O 0.78666 0.09979 0.49319 0.0
Cd242 Cd 0.76184 0.12375 0.48859 0.0
C243 C 0.75394 0.13012 0.53254 0.0
O244 O 0.73636 0.10129 0.48209 0.0
O245 O 0.72814 0.13074 0.48444 0.0
O246 O 0.77195 0.1309 0.45898 0.0
C247 C 0.72323 0.11344 0.4816 0.0
O248 O 0.74559 0.11385 0.53223 0.0
C249 C 0.77528 0.14853 0.46218 0.0
O250 O 0.76223 0.13631 0.51897 0.0
O251 O 0.77297 0.15454 0.47795 0.0
C252 C 0.61242 0.00022 0.30623 0.0
O253 O 0.6028 0.00721 0.2934 0.0
Cd254 Cd 0.61378 0.01405 0.26448 0.0
O255 O 0.62965 -0.00442 0.30442 0.0
Cd256 Cd 0.65361 -0.00459 0.28116 0.0
C257 C 0.65102 0.04374 0.27791 0.0
O258 O 0.63197 0.98701 0.25697 0.0
O259 O 0.66026 0.99375 0.24936 0.0
O260 O 0.66508 0.96553 0.29308 0.0
C261 C 0.64347 0.98906 0.24461 0.0
O262 O 0.63497 0.04149 0.2699 0.0
C263 C 0.68247 0.97028 0.29282 0.0
O264 O 0.6601 0.02952 0.28402 0.0
O265 O 0.68638 0.98708 0.28777 0.0
C266 C 0.74453 0.92571 0.05196 0.0
O267 O 0.73027 0.93382 0.04483 0.0
Cd268 Cd 0.7038 0.9165 0.03117 0.0
O269 O 0.74559 0.90756 0.05218 0.0
Cd270 Cd 0.72902 0.87783 0.04332 0.0
C271 C 0.72864 0.89105 0.0002 0.0
O272 O 0.69819 0.88895 0.04836 0.0
O273 O 0.69894 0.86179 0.03471 0.0
O274 O 0.74137 0.86357 0.0701 0.0
C275 C 0.68922 0.87595 0.03958 0.0
O276 O 0.71598 0.90333 0.00351 0.0
C277 C 0.74971 0.85004 0.06219 0.0
O278 O 0.73655 0.88144 0.01254 0.0
O279 O 0.74755 0.84887 0.04539 0.0
C280 C 0.2955 0.59558 0.00532 0.0
O281 O 0.28264 0.58434 0.0106 0.0
Cd282 Cd 0.24907 0.58907 0.00869 0.0
O283 O 0.29134 0.61139 -0.00199 0.0
Cd284 Cd 0.26331 0.63029 0.98929 0.0
C285 C 0.24725 0.63208 0.03168 0.0
O286 O 0.24439 0.60305 0.98052 0.0
O287 O 0.23027 0.62989 0.97821 0.0
O288 O 0.27927 0.64054 0.96305 0.0
C289 C 0.22913 0.6118 0.97737 0.0
O290 O 0.24352 0.6142 0.03065 0.0
C291 C 0.27658 0.65829 0.96571 0.0
O292 O 0.2551 0.64082 0.01907 0.0
O293 O 0.26817 0.66304 0.97972 0.0
C294 C 0.10213 0.4995 0.80259 0.0
O295 O 0.09174 0.50628 0.79017 0.0
Cd296 Cd 0.10049 0.51028 0.75981 0.0
O297 O 0.11885 0.49391 0.79973 0.0
Cd298 Cd 0.14112 0.4912 0.77544 0.0
C299 C 0.13971 0.53929 0.76762 0.0
O300 O 0.11779 0.48237 0.75274 0.0
O301 O 0.14632 0.48536 0.74413 0.0
O302 O 0.15142 0.46161 0.78854 0.0
C303 C 0.12903 0.48239 0.73998 0.0
O304 O 0.12282 0.53714 0.76141 0.0
C305 C 0.16899 0.46534 0.7876 0.0
O306 O 0.1489 0.5253 0.77413 0.0
O307 O 0.17362 0.48163 0.78174 0.0
C308 C 0.25671 0.4197 0.52996 0.0
O309 O 0.24296 0.42906 0.52338 0.0
Cd310 Cd 0.21159 0.41483 0.52288 0.0
O311 O 0.25449 0.40266 0.53522 0.0
Cd312 Cd 0.23342 0.37541 0.539 0.0
C313 C 0.2169 0.37524 0.49577 0.0
O314 O 0.21155 0.39706 0.55003 0.0
O315 O 0.20202 0.36779 0.55097 0.0
O316 O 0.25693 0.36868 0.56194 0.0
C317 C 0.1983 0.38538 0.5531 0.0
O318 O 0.21019 0.39194 0.4978 0.0
C319 C 0.25859 0.35117 0.55766 0.0
O320 O 0.22614 0.36707 0.50823 0.0
O321 O 0.24786 0.34468 0.54504 0.0
C322 C 0.42376 0.50358 0.31242 0.0
O323 O 0.43671 0.49828 0.30218 0.0
Cd324 Cd 0.43276 0.49305 0.27084 0.0
O325 O 0.40753 0.5083 0.30622 0.0
Cd326 Cd 0.38972 0.51252 0.27789 0.0
C327 C 0.39246 0.46423 0.27313 0.0
O328 O 0.41645 0.52027 0.26075 0.0
O329 O 0.39038 0.51612 0.24565 0.0
O330 O 0.37984 0.54289 0.28979 0.0
C331 C 0.40809 0.51917 0.24565 0.0
O332 O 0.41006 0.46641 0.27042 0.0
C333 C 0.36235 0.54033 0.28598 0.0
O334 O 0.38191 0.47845 0.27643 0.0
O335 O 0.35742 0.52443 0.27867 0.0
C336 C 0.98648 0.02778 0.98889 0.0
N337 N 0.96937 -0.00059 0.0335 0.0
C338 C 0.95587 0.01302 0.03466 0.0
C339 C 0.93797 0.00838 0.04038 0.0
C340 C 0.93354 0.98938 0.04447 0.0
C341 C 0.94785 0.97562 0.0437 0.0
C342 C 0.96585 0.98101 0.03818 0.0
Zn343 Zn -0.0059 0.00806 0.02284 0.0
C344 C 0.01047 0.97956 -0.00131 0.0
N345 N 0.04428 0.02879 -0.00017 0.0
C346 C 0.0436 0.04598 0.99163 0.0
C347 C 0.06037 0.01834 0.00039 0.0
C348 C 0.07676 0.02535 0.99284 0.0
C349 C 0.0765 0.04315 0.98436 0.0
C350 C 0.0595 0.05332 0.98359 0.0
Zn351 Zn 0.02044 0.01897 0.01112 0.0
O352 O 0.97817 0.01925 0.0012 0.0
C353 C 0.00436 0.04762 0.03496 0.0
O354 O 0.00434 0.02953 0.98972 0.0
H355 H 0.06055 0.00467 0.00691 0.0
H356 H 0.95873 0.0275 0.03063 0.0
H357 H 0.03071 0.05413 0.99138 0.0
O358 O 0.99243 0.03421 0.03684 0.0
O359 O 0.018 0.04516 0.02468 0.0
H360 H 0.97678 0.97041 0.03709 0.0
O361 O 0.03632 0.00807 0.03272 0.0
O362 O 0.01035 -0.00299 0.04446 0.0
O363 O 0.02278 0.99283 -0.00237 0.0
O364 O -0.00367 0.98189 0.00846 0.0
C365 C 0.02826 -0.00073 0.04508 0.0
H366 H 0.92754 0.01955 0.04113 0.0
H367 H 0.945 0.96076 0.04662 0.0
H368 H 0.08959 0.01712 0.99407 0.0
H369 H 0.05846 0.06691 0.97695 0.0
C370 C 0.30379 0.76147 0.24876 0.0
N371 N 0.24978 0.74461 0.22945 0.0
C372 C 0.25438 0.75344 0.21421 0.0
C373 C 0.24771 0.74618 0.19781 0.0
C374 C 0.23611 0.72969 0.19709 0.0
C375 C 0.23093 0.72135 0.21309 0.0
C376 C 0.23801 0.72905 0.2292 0.0
Zn377 Zn 0.26221 0.75375 0.25283 0.0
C378 C 0.27799 0.72075 0.27324 0.0
N379 N 0.28945 0.77179 0.30144 0.0
C380 C 0.29948 0.78853 0.30212 0.0
C381 C 0.28457 0.76273 0.31649 0.0
C382 C 0.28848 0.77128 0.33306 0.0
C383 C 0.29742 0.78933 0.3341 0.0
C384 C 0.30362 0.79763 0.31843 0.0
Zn385 Zn 0.27751 0.76246 0.2779 0.0
O386 O 0.28858 0.75649 0.24036 0.0
C387 C 0.26143 0.79544 0.25781 0.0
O388 O 0.30344 0.7651 0.26531 0.0
H389 H 0.27647 0.74951 0.31562 0.0
H390 H 0.26379 0.76578 0.21473 0.0
H391 H 0.30322 0.79546 0.28997 0.0
O392 O 0.25572 0.78241 0.2469 0.0
O393 O 0.27094 0.79092 0.27165 0.0
H394 H 0.23452 0.72226 0.24149 0.0
O395 O 0.25122 0.75967 0.29034 0.0
O396 O 0.23624 0.75119 0.26548 0.0
O397 O 0.28393 0.73394 0.28386 0.0
O398 O 0.26858 0.72505 0.25924 0.0
C399 C 0.23597 0.75475 0.28203 0.0
H400 H 0.25231 0.75292 0.18583 0.0
H401 H 0.22184 0.70877 0.21316 0.0
H402 H 0.28328 0.76447 0.34479 0.0
H403 H 0.31075 0.81144 0.31871 0.0
C404 C 0.4972 0.02047 0.54081 0.0
N405 N 0.53498 0.97894 0.52499 0.0
C406 C 0.54263 0.98117 0.5417 0.0
C407 C 0.54836 0.96523 0.55127 0.0
C408 C 0.54618 0.94692 0.54351 0.0
C409 C 0.53975 0.94523 0.52573 0.0
C410 C 0.53415 0.96154 0.51666 0.0
Zn411 Zn 0.52074 0.00099 0.51387 0.0
C412 C 0.48249 0.98843 0.50076 0.0
N413 N 0.48925 0.04677 0.49194 0.0
C414 C 0.48885 0.06377 0.50092 0.0
C415 C 0.48059 0.04443 0.47565 0.0
C416 C 0.47171 0.05982 0.46743 0.0
C417 C 0.47168 0.07774 0.47613 0.0
C418 C 0.48001 0.07948 0.49328 0.0
Zn419 Zn 0.50399 0.02485 0.50282 0.0
O420 O 0.50869 0.00692 0.53856 0.0
C421 C 0.54248 0.03723 0.51565 0.0
O422 O 0.49279 0.03109 0.52786 0.0
H423 H 0.48104 0.03075 0.46878 0.0
H424 H 0.54317 -0.00483 0.54803 0.0
H425 H 0.49578 0.06529 0.51389 0.0
O426 O 0.54344 0.01976 0.51994 0.0
O427 O 0.52732 0.04342 0.50842 0.0
H428 H 0.52793 0.96012 0.50339 0.0
O429 O 0.51532 0.01826 0.47793 0.0
O430 O 0.53253 -0.00481 0.48912 0.0
O431 O 0.48103 0.00606 0.49722 0.0
O432 O 0.49784 0.98235 0.50763 0.0
C433 C 0.52734 0.00512 0.4759 0.0
H434 H 0.55346 0.96711 0.56491 0.0
H435 H 0.53766 0.93135 0.51932 0.0
H436 H 0.46567 0.0579 0.45412 0.0
H437 H 0.48007 0.09296 0.50056 0.0
C438 C 0.28042 0.21141 0.77789 0.0
N439 N 0.24923 0.24242 0.81407 0.0
C440 C 0.24425 0.22452 0.81914 0.0
C441 C 0.24459 0.22003 0.83711 0.0
C442 C 0.2497 0.23428 0.84984 0.0
C443 C 0.25139 0.25327 0.84425 0.0
C444 C 0.25149 0.257 0.82616 0.0
Zn445 Zn 0.26091 0.24593 0.78995 0.0
C446 C 0.30113 0.25943 0.79539 0.0
N447 N 0.28849 0.25453 0.74112 0.0
C448 C 0.28923 0.23922 0.7298 0.0
C449 C 0.29582 0.27183 0.73671 0.0
C450 C 0.30328 0.27448 0.72 0.0
C451 C 0.30381 0.259 0.70782 0.0
C452 C 0.29729 0.24102 0.7133 0.0
Zn453 Zn 0.27573 0.2512 0.76486 0.0
O454 O 0.27055 0.21746 0.79046 0.0
C455 C 0.2356 0.23769 0.7593 0.0
O456 O 0.28452 0.22251 0.76542 0.0
H457 H 0.29539 0.28379 0.74595 0.0
H458 H 0.24217 0.21319 0.80931 0.0
H459 H 0.28321 0.22558 0.73332 0.0
O460 O 0.23576 0.23729 0.77618 0.0
O461 O 0.25044 0.24276 0.75144 0.0
H462 H 0.25551 0.27115 0.82196 0.0
O463 O 0.26661 0.28003 0.7648 0.0
O464 O 0.25156 0.27431 0.78918 0.0
O465 O 0.30079 0.25959 0.77854 0.0
O466 O 0.28635 0.25458 0.8034 0.0
C467 C 0.25611 0.28578 0.77711 0.0
H468 H 0.24302 0.20518 0.8407 0.0
H469 H 0.25469 0.26482 0.85364 0.0
H470 H 0.30777 0.28874 0.71652 0.0
H471 H 0.29783 0.22845 0.70478 0.0
C472 C 0.05502 0.00189 0.52011 0.0
N473 N 0.02583 0.02815 0.47811 0.0
C474 C 0.04201 0.03824 0.47529 0.0
C475 C 0.04673 0.04306 0.45804 0.0
C476 C 0.03464 0.03742 0.44368 0.0
C477 C 0.01753 0.02804 0.44715 0.0
C478 C 0.01345 0.02342 0.4645 0.0
Zn479 Zn 0.02058 0.01711 0.50228 0.0
C480 C 0.01236 0.9748 0.49842 0.0
N481 N 0.00859 0.99145 0.55143 0.0
C482 C 0.0208 -0.00487 0.56542 0.0
C483 C 0.99188 0.98208 0.5536 0.0
C484 C 0.98608 0.97768 0.57056 0.0
C485 C -0.00219 0.98255 0.58543 0.0
C486 C 0.01582 0.99044 0.58256 0.0
Zn487 Zn 0.01415 0.00276 0.52744 0.0
O488 O 0.04962 0.01021 0.506 0.0
C489 C 0.0225 0.04498 0.53157 0.0
O490 O 0.043 -0.0025 0.53154 0.0
H491 H 0.9825 0.97901 0.54226 0.0
H492 H 0.05164 0.04181 0.48632 0.0
H493 H 0.03403 0.00259 0.56346 0.0
O494 O 0.02534 0.04403 0.515 0.0
O495 O 0.01763 0.02996 0.53963 0.0
H496 H 0.00071 0.01531 0.467 0.0
O497 O 0.98523 0.00819 0.52296 0.0
O498 O 0.9915 0.02375 0.49881 0.0
O499 O 0.01078 0.97573 0.51514 0.0
O500 O 0.01587 0.98996 0.48998 0.0
C501 C 0.97955 0.01773 0.50969 0.0
H502 H 0.06012 0.05021 0.45592 0.0
H503 H 0.00766 0.02373 0.43648 0.0
H504 H 0.97202 0.97173 0.57196 0.0
H505 H 0.02563 0.99393 0.59351 0.0
C506 C 0.26637 0.75201 0.72668 0.0
N507 N 0.30331 0.71951 0.75722 0.0
C508 C 0.30286 0.70623 0.74382 0.0
C509 C 0.31917 0.69625 0.7398 0.0
C510 C 0.33602 0.70005 0.74967 0.0
C511 C 0.33571 0.71294 0.76414 0.0
C512 C 0.31911 0.72258 0.76768 0.0
Zn513 Zn 0.28084 0.73678 0.76046 0.0
C514 C 0.29263 0.77753 0.76514 0.0
N515 N 0.23408 0.77326 0.76773 0.0
C516 C 0.21913 0.7709 0.75605 0.0
C517 C 0.23406 0.78686 0.78085 0.0
C518 C 0.21827 0.7984 0.78289 0.0
C519 C 0.20249 0.79595 0.77123 0.0
C520 C 0.20316 0.78217 0.75753 0.0
Zn521 Zn 0.25658 0.75579 0.76494 0.0
O522 O 0.27874 0.74075 0.73292 0.0
C523 C 0.24466 0.7151 0.75982 0.0
O524 O 0.25495 0.75986 0.73713 0.0
H525 H 0.24618 0.78855 0.7899 0.0
H526 H 0.29008 0.704 0.73573 0.0
H527 H 0.21943 0.75998 0.74575 0.0
O528 O 0.26236 0.71306 0.75835 0.0
O529 O 0.23814 0.73171 0.76254 0.0
H530 H 0.31913 0.73323 0.77825 0.0
O531 O 0.25894 0.75184 0.79281 0.0
O532 O 0.283 0.73313 0.78804 0.0
O533 O 0.27502 0.77947 0.76722 0.0
O534 O 0.29918 0.76096 0.76236 0.0
C535 C 0.27199 0.74112 0.79878 0.0
H536 H 0.31883 0.68635 0.72859 0.0
H537 H 0.34847 0.71656 0.77188 0.0
H538 H 0.21824 0.80886 0.79365 0.0
H539 H 0.19112 0.7795 0.74852 0.0
C540 C 0.51841 0.96723 0.02253 0.0
N541 N 0.54244 0.01816 0.043 0.0
C542 C 0.53523 0.0124 0.05856 0.0
C543 C 0.54487 0.01644 0.07456 0.0
C544 C 0.56217 0.02651 0.07464 0.0
C545 C 0.5691 0.03278 0.05844 0.0
C546 C 0.5589 0.02845 0.04264 0.0
Zn547 Zn 0.52834 0.00926 0.0204 0.0
C548 C 0.55367 0.99438 0.99343 0.0
N549 N 0.49788 0.98844 0.97457 0.0
C550 C 0.48237 0.97675 0.97506 0.0
C551 C 0.50499 0.99407 0.95891 0.0
C552 C 0.49659 0.98778 0.9429 0.0
C553 C 0.48063 0.97568 0.94296 0.0
C554 C 0.47338 0.97024 0.95927 0.0
Zn555 Zn 0.51184 -0.00232 -0.00291 0.0
O556 O 0.52652 0.98119 0.03083 0.0
C557 C 0.48661 0.01159 0.02441 0.0
O558 O 0.511 0.96987 0.00722 0.0
H559 H 0.51725 0.00347 0.95882 0.0
H560 H 0.52224 0.00408 0.05855 0.0
H561 H 0.47703 0.97243 0.9877 0.0
O562 O 0.5024 0.01619 0.03186 0.0
O563 O 0.4862 0.00344 0.00923 0.0
H564 H 0.56435 0.03286 0.03008 0.0
O565 O 0.51231 0.02594 0.9873 0.0
O566 O 0.52995 0.03697 0.00982 0.0
O567 O 0.53788 0.9914 0.9853 0.0
O568 O 0.55396 0.00209 0.00881 0.0
C569 C 0.52098 0.03979 -0.00476 0.0
H570 H 0.5392 0.01092 0.08667 0.0
H571 H 0.58238 0.04061 0.05796 0.0
H572 H 0.50236 0.99262 0.93058 0.0
H573 H 0.46105 0.96093 0.95979 0.0
C574 C 0.26139 0.21345 0.27282 0.0
N575 N 0.30833 0.22996 0.24484 0.0
C576 C 0.31128 0.21079 0.24397 0.0
C577 C 0.31555 0.20209 0.22786 0.0
C578 C 0.31661 0.21327 0.21259 0.0
C579 C 0.31579 0.23326 0.21439 0.0
C580 C 0.31161 0.24138 0.23079 0.0
Zn581 Zn 0.29315 0.24055 0.26508 0.0
C582 C 0.26139 0.26321 0.25141 0.0
N583 N 0.25924 0.26126 0.30665 0.0
C584 C 0.25622 0.25124 0.32164 0.0
C585 C 0.25202 0.27905 0.30445 0.0
C586 C 0.24141 0.28749 0.31762 0.0
C587 C 0.23862 0.27783 0.33355 0.0
C588 C 0.24606 0.25935 0.33538 0.0
Zn589 Zn 0.27531 0.25029 0.28704 0.0
O590 O 0.27482 0.21673 0.2625 0.0
C591 C 0.30767 0.22785 0.30041 0.0
O592 O 0.25834 0.22505 0.28552 0.0
H593 H 0.25469 0.2869 0.29253 0.0
H594 H 0.30863 0.20201 0.25534 0.0
H595 H 0.26205 0.2371 0.32312 0.0
O596 O 0.31029 0.22633 0.28385 0.0
O597 O 0.29385 0.23754 0.30584 0.0
H598 H 0.3092 0.2566 0.23181 0.0
O599 O 0.29248 0.27541 0.28832 0.0
O600 O 0.31076 0.26478 0.26739 0.0
O601 O 0.25719 0.26304 0.26766 0.0
O602 O 0.27614 0.2548 0.24658 0.0
C603 C 0.30654 0.27777 0.27847 0.0
H604 H 0.31643 0.18664 0.22704 0.0
H605 H 0.31645 0.24241 0.20296 0.0
H606 H 0.2357 0.30157 0.31538 0.0
H607 H 0.24462 0.25143 0.3475 0.0
C608 C 0.55189 0.48589 0.02161 0.0
N609 N 0.52964 0.52193 0.98213 0.0
C610 C 0.54816 0.52618 0.97957 0.0
C611 C 0.55412 0.53116 0.96276 0.0
C612 C 0.54081 0.53223 0.94852 0.0
C613 C 0.5216 0.52914 0.95195 0.0
C614 C 0.51636 0.52366 0.9688 0.0
Zn615 Zn 0.52178 0.51012 0.00538 0.0
C616 C 0.50478 0.47118 -0.00183 0.0
N617 N 0.50461 0.48347 0.05246 0.0
C618 C 0.51558 0.4867 0.06737 0.0
C619 C 0.48808 0.47336 0.05292 0.0
C620 C 0.48156 0.46683 0.06904 0.0
C621 C 0.49199 0.47109 0.08485 0.0
C622 C 0.50946 0.48076 0.08378 0.0
Zn623 Zn 0.51258 0.49557 0.02955 0.0
O624 O 0.54847 0.49624 0.00819 0.0
C625 C 0.52957 0.53482 0.03642 0.0
O626 O 0.53928 0.48375 0.03301 0.0
H627 H 0.47961 0.47091 0.04087 0.0
H628 H 0.55851 0.52488 0.99035 0.0
H629 H 0.52876 0.49462 0.06667 0.0
O630 O 0.53227 0.53409 0.01984 0.0
O631 O 0.52164 0.52073 0.04377 0.0
H632 H 0.50173 0.52006 0.971 0.0
O633 O 0.48564 0.50738 0.02617 0.0
O634 O 0.49507 0.52365 0.00336 0.0
O635 O 0.50379 0.47087 0.01495 0.0
O636 O 0.51112 0.48609 0.99087 0.0
C637 C 0.48225 0.51947 0.01413 0.0
H638 H 0.56911 0.53316 0.96087 0.0
H639 H 0.51071 0.53028 0.9416 0.0
H640 H 0.46818 0.45915 0.06917 0.0
H641 H 0.51788 0.48471 0.09556 0.0
C642 C 0.76605 0.25803 0.23419 0.0
N643 N 0.80717 0.23342 0.26702 0.0
C644 C 0.80769 0.21842 0.25533 0.0
C645 C 0.82462 0.20891 0.2527 0.0
C646 C 0.84106 0.21489 0.26228 0.0
C647 C 0.83989 0.22985 0.27482 0.0
C648 C 0.82272 0.23899 0.27696 0.0
Zn649 Zn 0.78309 0.24852 0.26917 0.0
C650 C 0.79025 0.29031 0.26936 0.0
N651 N 0.73262 0.27984 0.27425 0.0
C652 C 0.71735 0.27463 0.26376 0.0
C653 C 0.73151 0.29381 0.28693 0.0
C654 C 0.7142 0.30232 0.29018 0.0
C655 C 0.69799 0.29639 0.28023 0.0
C656 C 0.69981 0.28279 0.2665 0.0
Zn657 Zn 0.75681 0.26489 0.27202 0.0
O658 O 0.77947 0.24866 0.24131 0.0
C659 C 0.74943 0.22316 0.27149 0.0
O660 O 0.75423 0.2662 0.24403 0.0
H661 H 0.74389 0.29778 0.29503 0.0
H662 H 0.7951 0.21419 0.24764 0.0
H663 H 0.71857 0.26345 0.25379 0.0
O664 O 0.76732 0.22278 0.27056 0.0
O665 O 0.74113 0.23914 0.27183 0.0
H666 H 0.82197 0.25097 0.28615 0.0
O667 O 0.7598 0.26342 0.30013 0.0
O668 O 0.7868 0.24886 0.29685 0.0
O669 O 0.77261 0.29049 0.27202 0.0
O670 O 0.79855 0.27441 0.26773 0.0
C671 C 0.77455 0.25589 0.30691 0.0
H672 H 0.82499 0.19741 0.24292 0.0
H673 H 0.85232 0.23516 0.2822 0.0
H674 H 0.71333 0.31281 0.30084 0.0
H675 H 0.68759 0.27756 0.25874 0.0
C676 C 0.01354 0.47052 0.52739 0.0
N677 N 0.0361 0.52337 0.54427 0.0
C678 C 0.02943 0.51905 0.56045 0.0
C679 C 0.03927 0.52508 0.57583 0.0
C680 C 0.05619 0.53563 0.57459 0.0
C681 C 0.0625 0.54041 0.55775 0.0
C682 C 0.0521 0.53415 0.54263 0.0
Zn683 Zn 0.02233 0.51193 0.52251 0.0
C684 C 0.04921 0.49468 0.4976 0.0
N685 N -0.00577 0.48691 0.47713 0.0
C686 C 0.978 0.47647 0.47864 0.0
C687 C 0.00157 0.49039 0.46104 0.0
C688 C 0.99239 0.48351 0.44558 0.0
C689 C 0.9754 0.47306 0.44667 0.0
C690 C 0.96822 0.46945 0.46345 0.0
Zn691 Zn 0.00786 0.49839 0.49896 0.0
O692 O 0.02131 0.4851 0.53494 0.0
C693 C 0.9811 0.51401 0.52492 0.0
O694 O 0.00641 0.47186 0.51178 0.0
H695 H 0.01441 0.49884 0.46016 0.0
H696 H 0.01679 0.51032 0.56144 0.0
H697 H 0.97248 0.47384 0.4916 0.0
O698 O -0.00363 0.51855 0.53331 0.0
O699 O 0.9817 0.50607 0.50967 0.0
H700 H 0.05711 0.5374 0.5296 0.0
O701 O 0.00944 0.5253 0.4863 0.0
O702 O 0.02306 0.53851 0.5101 0.0
O703 O 0.0341 0.49013 0.48893 0.0
O704 O 0.04827 0.50465 0.51176 0.0
C705 C 0.01644 0.54001 0.49434 0.0
H706 H 0.03418 0.52065 0.58856 0.0
H707 H 0.07554 0.54844 0.5563 0.0
H708 H -0.00181 0.48692 0.43287 0.0
H709 H 0.95515 0.46142 0.46478 0.0
C710 C 0.77268 0.71434 0.26726 0.0
N711 N 0.74643 0.74599 0.30642 0.0
C712 C 0.73893 0.72838 0.30939 0.0
C713 C 0.73857 0.72148 0.32663 0.0
C714 C 0.74548 0.73313 0.34087 0.0
C715 C 0.74963 0.75244 0.33754 0.0
C716 C 0.75047 0.7585 0.32007 0.0
Zn717 Zn 0.75877 0.75058 0.28281 0.0
C718 C 0.80025 0.75726 0.28874 0.0
N719 N 0.78726 0.75922 0.23481 0.0
C720 C 0.78257 0.74778 0.22055 0.0
C721 C 0.80107 0.77288 0.23405 0.0
C722 C 0.81051 0.77571 0.21833 0.0
C723 C 0.80561 0.76444 0.20324 0.0
C724 C 0.79158 0.75017 0.20456 0.0
Zn725 Zn 0.77377 0.75515 0.25782 0.0
O726 O 0.76455 0.72118 0.28061 0.0
C727 C 0.73227 0.74878 0.2518 0.0
O728 O 0.77792 0.72531 0.25508 0.0
H729 H 0.80465 0.78172 0.24561 0.0
H730 H 0.73535 0.71881 0.29835 0.0
H731 H 0.77162 0.73694 0.22149 0.0
O732 O 0.7327 0.74672 0.26856 0.0
O733 O 0.7475 0.7525 0.24397 0.0
H734 H 0.75635 0.77249 0.3175 0.0
O735 O 0.76968 0.78518 0.26089 0.0
O736 O 0.75363 0.77987 0.28479 0.0
O737 O 0.79968 0.75781 0.27193 0.0
O738 O 0.78504 0.75461 0.29689 0.0
C739 C 0.76034 0.79152 0.27382 0.0
H740 H 0.73496 0.70656 0.32834 0.0
H741 H 0.75416 0.76225 0.34815 0.0
H742 H 0.82131 0.78681 0.21791 0.0
H743 H 0.78706 0.74142 0.19317 0.0
C744 C 0.81152 0.26131 0.75375 0.0
N745 N 0.75853 0.25139 0.72881 0.0
C746 C 0.76427 0.26268 0.71542 0.0
C747 C 0.75997 0.25751 0.69778 0.0
C748 C 0.75002 0.24035 0.69385 0.0
C749 C 0.74335 0.22957 0.70802 0.0
C750 C 0.74768 0.23545 0.72546 0.0
Zn751 Zn 0.76893 0.25667 0.75394 0.0
C752 C 0.78001 0.22041 0.77184 0.0
N753 N 0.79291 0.26681 0.8057 0.0
C754 C 0.80424 0.28231 0.80952 0.0
C755 C 0.78565 0.25604 0.81879 0.0
C756 C 0.78855 0.26153 0.83651 0.0
C757 C 0.79895 0.27828 0.84079 0.0
C758 C 0.8075 0.28833 0.82713 0.0
Zn759 Zn 0.78288 0.26162 0.78045 0.0
O760 O 0.79664 0.25872 0.74403 0.0
C761 C 0.77139 0.29789 0.76305 0.0
O762 O 0.81016 0.2631 0.77046 0.0
H763 H 0.77663 0.24382 0.81547 0.0
H764 H 0.77291 0.27527 0.71837 0.0
H765 H 0.8098 0.29069 0.79888 0.0
O766 O 0.76529 0.28645 0.75082 0.0
O767 O 0.7796 0.29123 0.7768 0.0
H768 H 0.74318 0.22673 0.73631 0.0
O769 O 0.7553 0.26004 0.79018 0.0
O770 O 0.74157 0.25468 0.76404 0.0
O771 O 0.78601 0.23204 0.7839 0.0
O772 O 0.77243 0.22684 0.75767 0.0
C773 C 0.74037 0.25695 0.78071 0.0
H774 H 0.76503 0.26653 0.68734 0.0
H775 H 0.73582 0.21613 0.70575 0.0
H776 H 0.78195 0.25326 0.84672 0.0
H777 H 0.81554 0.30139 0.8299 0.0
C778 C 0.74453 0.72643 0.76983 0.0
N779 N 0.79116 0.74218 0.74092 0.0
C780 C 0.79159 0.72309 0.73726 0.0
C781 C 0.79355 0.71661 0.71984 0.0
C782 C 0.79505 0.72994 0.70617 0.0
C783 C 0.7966 0.74946 0.71064 0.0
C784 C 0.79461 0.75531 0.72823 0.0
Zn785 Zn 0.77861 0.75146 0.76326 0.0
C786 C 0.74754 0.77842 0.7528 0.0
N787 N 0.7481 0.7711 0.80713 0.0
C788 C 0.74462 0.75941 0.82095 0.0
C789 C 0.74453 0.79015 0.80803 0.0
C790 C 0.73783 0.7983 0.82351 0.0
C791 C 0.73493 0.78676 0.83825 0.0
C792 C 0.73806 0.76702 0.8368 0.0
Zn793 Zn 0.76125 0.76111 0.78549 0.0
O794 O 0.75857 0.72908 0.76006 0.0
C795 C 0.79286 0.73494 0.79631 0.0
O796 O 0.74187 0.73794 0.78269 0.0
H797 H 0.74765 0.79922 0.79699 0.0
H798 H 0.7888 0.71293 0.74756 0.0
H799 H 0.7476 0.7443 0.81991 0.0
O800 O 0.79597 0.73441 0.77978 0.0
O801 O 0.77922 0.74476 0.80189 0.0
H802 H 0.79404 0.77043 0.73141 0.0
O803 O 0.78085 0.78439 0.78795 0.0
O804 O 0.79827 0.77373 0.76648 0.0
O805 O 0.74355 0.77747 0.76903 0.0
O806 O 0.76134 0.76895 0.74714 0.0
C807 C 0.79523 0.7862 0.7784 0.0
H808 H 0.79267 0.70139 0.71694 0.0
H809 H 0.79768 0.7602 0.70051 0.0
H810 H 0.73596 0.81365 0.82424 0.0
H811 H 0.73596 0.7577 0.84793 0.0
C812 C 0.49388 0.50446 0.48945 0.0
N813 N 0.48266 0.48921 0.5408 0.0
C814 C 0.46694 0.50021 0.53987 0.0
C815 C 0.45003 0.49362 0.54657 0.0
C816 C 0.44919 0.47539 0.554 0.0
C817 C 0.46579 0.46468 0.55564 0.0
C818 C 0.48258 0.47201 0.54902 0.0
Zn819 Zn 0.50508 0.49792 0.52669 0.0
C820 C 0.5252 0.46552 0.51042 0.0
N821 N 0.5511 0.51649 0.49638 0.0
C822 C 0.54714 0.52906 0.48319 0.0
C823 C 0.56884 0.50965 0.49912 0.0
C824 C 0.58353 0.5158 0.4886 0.0
C825 C 0.57985 0.52877 0.47482 0.0
C826 C 0.56125 0.53513 0.47205 0.0
Zn827 Zn 0.52956 0.50756 0.51152 0.0
O828 O 0.48663 0.50051 0.50413 0.0
C829 C 0.51008 0.54008 0.52795 0.0
O830 O 0.51151 0.50771 0.48899 0.0
H831 H 0.57165 0.49959 0.5096 0.0
H832 H 0.46715 0.51364 0.53297 0.0
H833 H 0.53299 0.53449 0.48129 0.0
O834 O 0.50033 0.52655 0.53418 0.0
O835 O 0.52316 0.5362 0.51739 0.0
H836 H 0.49526 0.46353 0.54961 0.0
O837 O 0.5474 0.50681 0.53443 0.0
O838 O 0.52355 0.49519 0.54904 0.0
O839 O 0.53604 0.47905 0.50583 0.0
O840 O 0.51052 0.46934 0.519 0.0
C841 C 0.54088 0.50024 0.54866 0.0
H842 H 0.43742 0.50211 0.54472 0.0
H843 H 0.46557 0.45051 0.56125 0.0
H844 H 0.59767 0.5108 0.49164 0.0
H845 H 0.55757 0.54487 0.4615 0.0
C846 C 0.00856 0.5135 0.0473 0.0
N847 N 0.03919 0.46954 0.02427 0.0
C848 C 0.04715 0.46771 0.0408 0.0
C849 C 0.0512 0.44965 0.04735 0.0
C850 C 0.04724 0.4333 0.03668 0.0
C851 C 0.04049 0.43579 0.01913 0.0
C852 C 0.03637 0.45412 0.01322 0.0
Zn853 Zn 0.02821 0.49513 0.01734 0.0
C854 C 0.98804 0.49035 0.0045 0.0
N855 N 0.00338 0.54798 0.00325 0.0
C856 C 0.00422 0.56259 0.01539 0.0
C857 C -0.00449 0.55034 0.98674 0.0
C858 C 0.989 0.56822 0.9816 0.0
C859 C 0.99018 0.58377 0.99369 0.0
C860 C -0.0026 0.58057 0.01098 0.0
Zn861 Zn 0.01483 0.52242 0.00981 0.0
O862 O 0.0185 0.49907 0.04358 0.0
C863 C 0.05503 0.52714 0.0227 0.0
O864 O 0.00501 0.52569 0.03544 0.0
H865 H -0.00519 0.53848 0.97734 0.0
H866 H 0.04934 0.48019 0.04932 0.0
H867 H 0.01057 0.56047 0.02845 0.0
O868 O 0.0538 0.50912 0.02431 0.0
O869 O 0.04063 0.53636 0.01727 0.0
H870 H 0.03 0.45592 0.00012 0.0
O871 O 0.02463 0.51877 0.984 0.0
O872 O 0.03773 0.49154 0.99113 0.0
O873 O 0.98932 0.50831 0.00245 0.0
O874 O 0.00236 0.4813 0.0103 0.0
C875 C 0.03411 0.50423 0.97966 0.0
H876 H 0.05617 0.44854 0.06103 0.0
H877 H 0.03761 0.42366 0.0103 0.0
H878 H 0.9839 0.56992 0.96802 0.0
H879 H -0.00173 0.59193 0.02091 0.0
H880 H 0.04671 0.19514 0.12264 0.0
H881 H 0.03438 0.16926 0.10345 0.0
H882 H 0.03973 0.12988 0.14684 0.0
H883 H 0.05262 0.15585 0.16617 0.0
H884 H 0.04964 0.11343 0.11592 0.0
H885 H -0.00306 0.14789 0.13637 0.0
H886 H 0.97812 0.17634 0.14331 0.0
H887 H 0.97487 0.19048 0.08806 0.0
H888 H 0.99392 0.16227 0.0808 0.0
H889 H 0.98012 0.05521 0.06159 0.0
H890 H 0.98333 0.08117 0.08369 0.0
H891 H 0.02949 0.10542 0.05516 0.0
H892 H 0.02658 0.07956 0.03311 0.0
H893 H 0.98876 0.1257 0.08337 0.0
H894 H 0.0639 0.10001 0.08194 0.0
H895 H 0.07919 0.07049 0.07161 0.0
H896 H 0.0334 0.03671 0.0911 0.0
H897 H 0.01787 0.06607 0.10151 0.0
C898 C 0.04545 0.18093 0.12808 0.0
C899 C 0.05038 0.1775 0.14593 0.0
C900 C 0.03831 0.1662 0.11713 0.0
C901 C 0.03564 0.14784 0.12391 0.0
C902 C 0.04151 0.14406 0.14146 0.0
C903 C 0.0489 0.15883 0.15244 0.0
C904 C 0.02635 0.13289 0.11254 0.0
C905 C 0.03619 0.11601 0.10909 0.0
C906 C 0.00861 0.13609 0.10381 0.0
C907 C -0.00306 0.15299 0.10806 0.0
C908 C 0.9923 0.15712 0.12571 0.0
C909 C 0.98159 0.1732 0.1297 0.0
C910 C 0.97532 0.18522 0.11614 0.0
C911 C 0.97973 0.18115 0.09855 0.0
C912 C 0.99046 0.1651 0.09448 0.0
C913 C 0.9906 0.06637 0.05974 0.0
C914 C 0.00343 0.06515 0.0459 0.0
C915 C 0.99227 0.08124 0.07229 0.0
C916 C 0.00672 0.09495 0.07101 0.0
C917 C 0.01827 0.09484 0.05626 0.0
C918 C 0.01669 0.07999 0.04378 0.0
C919 C 0.0124 0.10691 0.0865 0.0
C920 C 0.00193 0.12307 0.09066 0.0
C921 C 0.0292 0.10284 0.09629 0.0
C922 C 0.03982 0.08518 0.09256 0.0
C923 C 0.05733 0.08625 0.08435 0.0
C924 C 0.06595 0.06956 0.07836 0.0
C925 C 0.05723 0.05174 0.08066 0.0
C926 C 0.04011 0.05052 0.08931 0.0
C927 C 0.03142 0.06717 0.09527 0.0
H928 H 0.06363 0.03886 0.07562 0.0
H929 H 0.96704 0.19767 0.11926 0.0
H930 H 0.06699 0.74302 0.33698 0.0
H931 H 0.0974 0.74169 0.32254 0.0
H932 H 0.12658 0.74987 0.37334 0.0
H933 H 0.09621 0.75132 0.38789 0.0
H934 H 0.13897 0.77444 0.34834 0.0
H935 H 0.12716 0.707 0.35282 0.0
H936 H 0.1086 0.67702 0.34905 0.0
H937 H 0.10669 0.68392 0.2925 0.0
H938 H 0.12501 0.71409 0.29594 0.0
H939 H 0.23112 0.75955 0.31759 0.0
H940 H 0.20164 0.75726 0.3334 0.0
H941 H 0.171 0.74487 0.28399 0.0
H942 H 0.20053 0.74674 0.26808 0.0
H943 H 0.15975 0.7216 0.30913 0.0
H944 H 0.16809 0.78965 0.30409 0.0
H945 H 0.18428 0.82106 0.30691 0.0
H946 H 0.19154 0.81376 0.3632 0.0
H947 H 0.17525 0.78233 0.3607 0.0
C948 C 0.07988 0.74436 0.3451 0.0
C949 C 0.07924 0.74736 0.36355 0.0
C950 C 0.09723 0.74351 0.33684 0.0
C951 C 0.11419 0.74556 0.34691 0.0
C952 C 0.11361 0.74823 0.36537 0.0
C953 C 0.09626 0.74903 0.37365 0.0
C954 C 0.1325 0.74612 0.33804 0.0
C955 C 0.14371 0.76275 0.34002 0.0
C956 C 0.13829 0.73109 0.32676 0.0
C957 C 0.12732 0.7129 0.32465 0.0
C958 C 0.12265 0.70221 0.33959 0.0
C959 C 0.1122 0.68516 0.33751 0.0
C960 C 0.10643 0.67859 0.32055 0.0
C961 C 0.11115 0.68903 0.30563 0.0
C962 C 0.12159 0.7061 0.30764 0.0
C963 C 0.21812 0.75635 0.31007 0.0
C964 C 0.21814 0.75336 0.29158 0.0
C965 C 0.20126 0.75514 0.31912 0.0
C966 C 0.18411 0.75114 0.30984 0.0
C967 C 0.1841 0.748 0.2914 0.0
C968 C 0.20097 0.74911 0.28233 0.0
C969 C 0.1662 0.74997 0.3194 0.0
C970 C 0.15508 0.73324 0.31755 0.0
C971 C 0.16036 0.76498 0.33068 0.0
C972 C 0.17063 0.78358 0.33218 0.0
C973 C 0.17329 0.79468 0.31704 0.0
C974 C 0.1824 0.81252 0.3186 0.0
C975 C 0.18899 0.81938 0.33522 0.0
C976 C 0.18644 0.80842 0.35033 0.0
C977 C 0.17721 0.79063 0.34886 0.0
H978 H 0.19601 0.83321 0.33641 0.0
H979 H 0.09834 0.66539 0.31898 0.0
H980 H 0.53965 0.77676 0.60011 0.0
H981 H 0.54019 0.80723 0.58474 0.0
H982 H 0.51858 0.83567 0.63088 0.0
H983 H 0.51834 0.80523 0.64661 0.0
H984 H 0.50393 0.84798 0.59409 0.0
H985 H 0.56035 0.83895 0.63085 0.0
H986 H 0.58737 0.82024 0.64217 0.0
H987 H 0.60872 0.81605 0.58958 0.0
H988 H 0.58155 0.83439 0.57788 0.0
H989 H 0.53248 0.94194 0.57641 0.0
H990 H 0.52992 0.91206 0.59249 0.0
H991 H 0.55967 0.88269 0.55132 0.0
H992 H 0.56256 0.91274 0.53518 0.0
H993 H 0.56986 0.8709 0.58601 0.0
H994 H 0.51431 0.88018 0.54912 0.0
H995 H 0.48711 0.89817 0.53713 0.0
H996 H 0.46404 0.90154 0.58906 0.0
H997 H 0.49131 0.88382 0.60144 0.0
C998 C 0.53454 0.78938 0.60686 0.0
C999 C 0.52917 0.78869 0.62464 0.0
C1000 C 0.53489 0.80675 0.59806 0.0
C1001 C 0.52963 0.82359 0.60681 0.0
C1002 C 0.52271 0.82274 0.62399 0.0
C1003 C 0.52262 0.80538 0.63294 0.0
C1004 C 0.53349 0.84222 0.59874 0.0
C1005 C 0.5183 0.85317 0.59252 0.0
C1006 C 0.55229 0.84863 0.59645 0.0
C1007 C 0.56879 0.83783 0.60346 0.0
C1008 C 0.57069 0.83386 0.62167 0.0
C1009 C 0.58605 0.82335 0.62816 0.0
C1010 C 0.59973 0.81692 0.6166 0.0
C1011 C 0.59809 0.82102 0.59852 0.0
C1012 C 0.58271 0.83146 0.59195 0.0
C1013 C 0.53899 0.92927 0.57102 0.0
C1014 C 0.5477 0.92964 0.55452 0.0
C1015 C 0.53735 0.91219 0.58014 0.0
C1016 C 0.54435 0.89521 0.57292 0.0
C1017 C 0.55411 0.8957 0.55702 0.0
C1018 C 0.55568 0.9128 0.54781 0.0
C1019 C 0.5403 0.87677 0.58135 0.0
C1020 C 0.55548 0.8658 0.58762 0.0
C1021 C 0.52147 0.87033 0.58363 0.0
C1022 C 0.50495 0.88084 0.57624 0.0
C1023 C 0.50353 0.8849 0.55802 0.0
C1024 C 0.48809 0.89502 0.55114 0.0
C1025 C 0.47388 0.90102 0.56233 0.0
C1026 C 0.47508 0.89689 0.58042 0.0
C1027 C 0.49051 0.8868 0.58737 0.0
H1028 H 0.46192 0.9088 0.55696 0.0
H1029 H 0.61163 0.80881 0.62166 0.0
H1030 H 0.47315 0.28161 0.82992 0.0
H1031 H 0.43908 0.2814 0.82394 0.0
H1032 H 0.43096 0.24557 0.86923 0.0
H1033 H 0.46518 0.24554 0.87531 0.0
H1034 H 0.40953 0.23365 0.84018 0.0
H1035 H 0.42062 0.29131 0.87301 0.0
H1036 H 0.4364 0.32195 0.88133 0.0
H1037 H 0.42037 0.34488 0.83056 0.0
H1038 H 0.40473 0.31426 0.82182 0.0
H1039 H 0.3101 0.24879 0.82926 0.0
H1040 H 0.34127 0.25095 0.84438 0.0
H1041 H 0.36349 0.2803 0.79949 0.0
H1042 H 0.33249 0.27803 0.78418 0.0
H1043 H 0.37603 0.29531 0.83389 0.0
H1044 H 0.36777 0.2355 0.80068 0.0
H1045 H 0.3521 0.20461 0.79312 0.0
H1046 H 0.36304 0.18534 0.84625 0.0
H1047 H 0.37824 0.21639 0.85431 0.0
C1048 C 0.46418 0.27359 0.83859 0.0
C1049 C 0.47188 0.26367 0.85315 0.0
C1050 C 0.4447 0.27359 0.83521 0.0
C1051 C 0.43254 0.26375 0.84634 0.0
C1052 C 0.44015 0.25335 0.86058 0.0
C1053 C 0.45968 0.25337 0.86401 0.0
C1054 C 0.41189 0.26433 0.84288 0.0
C1055 C 0.40208 0.24709 0.83919 0.0
C1056 C 0.40228 0.28191 0.84153 0.0
C1057 C 0.41161 0.30042 0.84672 0.0
C1058 C 0.42058 0.30283 0.86356 0.0
C1059 C 0.42948 0.32021 0.86836 0.0
C1060 C 0.42942 0.33534 0.85647 0.0
C1061 C 0.42042 0.33314 0.83976 0.0
C1062 C 0.41151 0.31578 0.83488 0.0
C1063 C 0.32155 0.25602 0.82276 0.0
C1064 C 0.31898 0.26313 0.80549 0.0
C1065 C 0.3393 0.25718 0.83139 0.0
C1066 C 0.35458 0.26562 0.82293 0.0
C1067 C 0.35178 0.27373 0.80617 0.0
C1068 C 0.33413 0.27235 0.79743 0.0
C1069 C 0.37389 0.26469 0.83077 0.0
C1070 C 0.38342 0.28187 0.83527 0.0
C1071 C 0.38317 0.24703 0.83302 0.0
C1072 C 0.37388 0.22841 0.82818 0.0
C1073 C 0.36659 0.2248 0.81084 0.0
C1074 C 0.35783 0.20724 0.80644 0.0
C1075 C 0.35655 0.19303 0.8192 0.0
C1076 C 0.36405 0.19636 0.83637 0.0
C1077 C 0.37266 0.21397 0.84089 0.0
H1078 H 0.34977 0.17944 0.81577 0.0
H1079 H 0.43632 0.34878 0.86021 0.0
H1080 H 0.02418 0.80252 0.43332 0.0
H1081 H 0.02153 0.83095 0.45232 0.0
H1082 H 0.03235 0.86695 0.40769 0.0
H1083 H 0.03544 0.83867 0.38869 0.0
H1084 H 0.05108 0.87993 0.43684 0.0
H1085 H 0.98715 0.85856 0.42166 0.0
H1086 H 0.96071 0.83518 0.41981 0.0
H1087 H 0.96312 0.82993 0.47654 0.0
H1088 H 0.98975 0.85311 0.4787 0.0
H1089 H 0.01526 0.96823 0.46289 0.0
H1090 H 0.01801 0.9374 0.44767 0.0
H1091 H 0.0111 0.90832 0.49716 0.0
H1092 H 0.00821 0.9392 0.51258 0.0
H1093 H 0.99141 0.89064 0.46827 0.0
H1094 H 0.0539 0.91377 0.48361 0.0
H1095 H 0.07961 0.93796 0.48544 0.0
H1096 H 0.07973 0.94017 0.42853 0.0
H1097 H 0.05379 0.91621 0.42636 0.0
C1098 C 0.02611 0.81648 0.42756 0.0
C1099 C 0.0299 0.81834 0.40945 0.0
C1100 C 0.02453 0.83271 0.43843 0.0
C1101 C 0.02646 0.85105 0.43134 0.0
C1102 C 0.03078 0.85292 0.41341 0.0
C1103 C 0.0325 0.83673 0.40257 0.0
C1104 C 0.02355 0.86837 0.44241 0.0
C1105 C 0.03798 0.88233 0.44359 0.0
C1106 C 0.00663 0.87125 0.4516 0.0
C1107 C 0.99056 0.85741 0.45032 0.0
C1108 C 0.98213 0.85231 0.43373 0.0
C1109 C 0.9671 0.83911 0.43263 0.0
C1110 C 0.96028 0.83103 0.44805 0.0
C1111 C 0.96844 0.83617 0.46461 0.0
C1112 C 0.98349 0.84935 0.46578 0.0
C1113 C 0.0141 0.9553 0.47054 0.0
C1114 C 0.0117 0.95615 0.48897 0.0
C1115 C 0.01573 0.93771 0.46182 0.0
C1116 C 0.01507 0.92067 0.47138 0.0
C1117 C 0.01172 0.92137 0.48961 0.0
C1118 C 0.0101 0.93901 0.49838 0.0
C1119 C 0.01879 0.90226 0.46237 0.0
C1120 C 0.00456 0.88812 0.46163 0.0
C1121 C 0.03589 0.89919 0.45359 0.0
C1122 C 0.0518 0.91329 0.45482 0.0
C1123 C 0.05933 0.91949 0.47148 0.0
C1124 C 0.07395 0.93315 0.47258 0.0
C1125 C 0.08128 0.94062 0.45711 0.0
C1126 C 0.07404 0.93438 0.4405 0.0
C1127 C 0.05939 0.92074 0.43933 0.0
H1128 H 0.09258 0.95121 0.45799 0.0
H1129 H 0.94864 0.82081 0.44717 0.0
H1130 H 0.51363 0.70312 0.7206 0.0
H1131 H 0.48236 0.69565 0.73178 0.0
H1132 H 0.45615 0.7219 0.68589 0.0
H1133 H 0.48724 0.72979 0.67482 0.0
H1134 H 0.43917 0.7325 0.71492 0.0
H1135 H 0.45932 0.67303 0.68933 0.0
H1136 H 0.48066 0.64582 0.68513 0.0
H1137 H 0.47529 0.63068 0.73976 0.0
H1138 H 0.45411 0.65798 0.74435 0.0
H1139 H 0.34758 0.69943 0.71565 0.0
H1140 H 0.38004 0.69715 0.70612 0.0
H1141 H 0.39884 0.68436 0.75957 0.0
H1142 H 0.36615 0.68637 0.7693 0.0
H1143 H 0.41991 0.66593 0.72875 0.0
H1144 H 0.39949 0.72656 0.75362 0.0
H1145 H 0.37653 0.75265 0.75619 0.0
H1146 H 0.38184 0.76493 0.7009 0.0
H1147 H 0.40452 0.7386 0.69793 0.0
C1148 C 0.50121 0.7074 0.71294 0.0
C1149 C 0.50292 0.71702 0.69681 0.0
C1150 C 0.48336 0.703 0.71929 0.0
C1151 C 0.46696 0.70798 0.70953 0.0
C1152 C 0.46864 0.7179 0.69361 0.0
C1153 C 0.48644 0.72239 0.68731 0.0
C1154 C 0.44796 0.70309 0.71588 0.0
C1155 C 0.43497 0.71792 0.7178 0.0
C1156 C 0.44258 0.68409 0.71996 0.0
C1157 C 0.45531 0.66768 0.71723 0.0
C1158 C 0.46282 0.664 0.70049 0.0
C1159 C 0.47486 0.64854 0.69802 0.0
C1160 C 0.47937 0.63656 0.71218 0.0
C1161 C 0.47181 0.63999 0.72881 0.0
C1162 C 0.45978 0.65545 0.73135 0.0
C1163 C 0.35843 0.69527 0.72526 0.0
C1164 C 0.35438 0.69333 0.74329 0.0
C1165 C 0.37698 0.69405 0.71978 0.0
C1166 C 0.39172 0.69086 0.73222 0.0
C1167 C 0.38756 0.68685 0.74984 0.0
C1168 C 0.36895 0.68816 0.75538 0.0
C1169 C 0.41131 0.69529 0.7275 0.0
C1170 C 0.42431 0.68047 0.72596 0.0
C1171 C 0.41674 0.71427 0.72363 0.0
C1172 C 0.40356 0.7305 0.72552 0.0
C1173 C 0.39565 0.73473 0.74198 0.0
C1174 C 0.38269 0.74956 0.74351 0.0
C1175 C 0.3777 0.76042 0.72871 0.0
C1176 C 0.3857 0.75649 0.71235 0.0
C1177 C 0.39861 0.74162 0.71074 0.0
H1178 H 0.36765 0.77189 0.72992 0.0
H1179 H 0.48869 0.62459 0.71025 0.0
H1180 H 0.53622 0.18486 0.89889 0.0
H1181 H 0.53352 0.15547 0.91562 0.0
H1182 H 0.50579 0.18633 0.95729 0.0
H1183 H 0.50969 0.21615 0.94098 0.0
H1184 H 0.52706 0.16253 0.97205 0.0
H1185 H 0.48093 0.15599 0.9256 0.0
H1186 H 0.46735 0.15638 0.89505 0.0
H1187 H 0.50487 0.11171 0.87963 0.0
H1188 H 0.51887 0.11123 0.91004 0.0
H1189 H 0.49165 0.05468 0.97625 0.0
H1190 H 0.48921 0.08681 0.96425 0.0
H1191 H 0.54576 0.10014 0.98464 0.0
H1192 H 0.54762 0.06838 -0.00223 0.0
H1193 H 0.50508 0.10315 0.94045 0.0
H1194 H 0.55351 0.14679 0.9914 0.0
H1195 H 0.56101 0.14749 0.0236 0.0
H1196 H 0.50789 0.11977 0.03328 0.0
H1197 H 0.49995 0.11913 0.00117 0.0
C1198 C 0.52955 0.18536 0.91163 0.0
C1199 C 0.52301 0.20268 0.91861 0.0
C1200 C 0.52789 0.16853 0.92114 0.0
C1201 C 0.51897 0.16852 0.93753 0.0
C1202 C 0.51264 0.18592 0.94465 0.0
C1203 C 0.51481 0.20293 0.93533 0.0
C1204 C 0.51649 0.15031 0.94716 0.0
C1205 C 0.52214 0.14956 0.96518 0.0
C1206 C 0.50941 0.13348 0.93843 0.0
C1207 C 0.50104 0.13367 0.92009 0.0
C1208 C 0.48637 0.14633 0.91567 0.0
C1209 C 0.47859 0.14656 0.89838 0.0
C1210 C 0.48527 0.1341 0.8854 0.0
C1211 C 0.49972 0.12136 0.8897 0.0
C1212 C 0.50757 0.12108 0.90697 0.0
C1213 C 0.50349 0.06456 0.97826 0.0
C1214 C 0.51983 0.05913 0.98789 0.0
C1215 C 0.5021 0.08292 0.97139 0.0
C1216 C 0.51721 0.09608 0.97365 0.0
C1217 C 0.53367 0.09052 0.98312 0.0
C1218 C 0.53483 0.07232 0.99047 0.0
C1219 C 0.51607 0.11519 0.96529 0.0
C1220 C 0.50978 0.11612 0.94745 0.0
C1221 C 0.52159 0.13231 0.97448 0.0
C1222 C 0.52622 0.13276 0.99384 0.0
C1223 C 0.5434 0.14091 0.0004 0.0
C1224 C 0.54773 0.14129 0.01864 0.0
C1225 C 0.53496 0.13363 0.03047 0.0
C1226 C 0.5178 0.12563 0.0241 0.0
C1227 C 0.51339 0.12524 0.00587 0.0
H1228 H 0.53836 0.13392 0.04459 0.0
H1229 H 0.47922 0.13429 0.87202 0.0
H1230 H 0.11936 0.24925 0.1485 0.0
H1231 H 0.15194 0.2613 0.15257 0.0
H1232 H 0.142 0.27349 0.20778 0.0
H1233 H 0.10955 0.26165 0.20384 0.0
H1234 H 0.16248 0.30235 0.19197 0.0
H1235 H 0.16135 0.23178 0.19467 0.0
H1236 H 0.15623 0.19931 0.18195 0.0
H1237 H 0.19412 0.21207 0.14022 0.0
H1238 H 0.19926 0.24471 0.15259 0.0
H1239 H 0.22742 0.27994 0.2568 0.0
H1240 H 0.2037 0.28805 0.2342 0.0
H1241 H 0.24264 0.2742 0.1931 0.0
H1242 H 0.26641 0.26563 0.21574 0.0
H1243 H 0.2125 0.25343 0.18924 0.0
H1244 H 0.22232 0.31941 0.19473 0.0
H1245 H 0.22884 0.35083 0.20906 0.0
H1246 H 0.17632 0.34724 0.2359 0.0
H1247 H 0.16958 0.31567 0.22198 0.0
C1248 C 0.12413 0.25459 0.16148 0.0
C1249 C 0.11201 0.25435 0.17592 0.0
C1250 C 0.14267 0.26154 0.16373 0.0
C1251 C 0.14928 0.2683 0.18044 0.0
C1252 C 0.13706 0.26849 0.19473 0.0
C1253 C 0.1186 0.26153 0.19251 0.0
C1254 C 0.16931 0.27369 0.1838 0.0
C1255 C 0.17357 0.2918 0.19128 0.0
C1256 C 0.18387 0.2602 0.18197 0.0
C1257 C 0.18039 0.24077 0.17434 0.0
C1258 C 0.16839 0.22773 0.18265 0.0
C1259 C 0.16553 0.20928 0.17554 0.0
C1260 C 0.17476 0.20367 0.16022 0.0
C1261 C 0.18688 0.21648 0.15201 0.0
C1262 C 0.18976 0.23495 0.15905 0.0
C1263 C 0.23113 0.27909 0.24297 0.0
C1264 C 0.24858 0.27175 0.23802 0.0
C1265 C 0.21763 0.284 0.23002 0.0
C1266 C 0.22144 0.28184 0.21192 0.0
C1267 C 0.23945 0.27603 0.20698 0.0
C1268 C 0.25296 0.27104 0.21994 0.0
C1269 C 0.20545 0.28164 0.19878 0.0
C1270 C 0.20187 0.26449 0.18926 0.0
C1271 C 0.19158 0.29602 0.19879 0.0
C1272 C 0.19543 0.31511 0.20724 0.0
C1273 C 0.21218 0.32525 0.20375 0.0
C1274 C 0.21592 0.34312 0.21181 0.0
C1275 C 0.20299 0.35104 0.22337 0.0
C1276 C 0.1863 0.34111 0.2269 0.0
C1277 C 0.18249 0.32324 0.21888 0.0
H1278 H 0.20592 0.36486 0.2296 0.0
H1279 H 0.17258 0.18936 0.15477 0.0
H1280 H 0.08649 0.98751 0.19833 0.0
H1281 H 0.07365 0.98114 0.16848 0.0
H1282 H 0.12939 0.96689 0.15106 0.0
H1283 H 0.1425 0.97398 0.181 0.0
H1284 H 0.1144 0.99002 0.12911 0.0
H1285 H 0.09292 0.93225 0.15257 0.0
H1286 H 0.07868 0.91028 0.1738 0.0
H1287 H 0.0251 0.9378 0.16657 0.0
H1288 H 0.03905 0.96015 0.1455 0.0
H1289 H 0.06444 0.98639 0.04507 0.0
H1290 H 0.08374 0.97595 0.07058 0.0
H1291 H 0.03746 0.98776 0.10499 0.0
H1292 H 0.0178 -0.00316 0.07932 0.0
H1293 H 0.05312 0.95697 0.11519 0.0
H1294 H 0.08216 0.02115 0.09988 0.0
H1295 H 0.09901 0.04241 0.0795 0.0
H1296 H 0.14011 -0.00107 0.07077 0.0
H1297 H 0.12374 0.9776 0.09129 0.0
C1298 C 0.096 0.98278 0.18822 0.0
C1299 C 0.11552 0.98136 0.19196 0.0
C1300 C 0.08861 0.97894 0.17117 0.0
C1301 C 0.10049 0.9732 0.15755 0.0
C1302 C 0.11994 0.97121 0.16138 0.0
C1303 C 0.12741 0.97529 0.17845 0.0
C1304 C 0.09273 0.97145 0.13905 0.0
C1305 C 0.10121 0.9824 0.12598 0.0
C1306 C 0.07564 0.9614 0.13483 0.0
C1307 C 0.06708 0.94794 0.14746 0.0
C1308 C 0.07812 0.93371 0.15558 0.0
C1309 C 0.0701 0.92117 0.16758 0.0
C1310 C 0.051 0.92265 0.17154 0.0
C1311 C 0.03988 0.93666 0.16348 0.0
C1312 C 0.04784 0.94924 0.15147 0.0
C1313 C 0.05841 0.98659 0.0581 0.0
C1314 C 0.03967 0.99239 0.0603 0.0
C1315 C 0.0695 0.98081 0.07271 0.0
C1316 C 0.06226 0.98145 0.08984 0.0
C1317 C 0.04341 0.98705 0.09193 0.0
C1318 C 0.03217 0.99228 0.07728 0.0
C1319 C 0.0741 0.97666 0.10579 0.0
C1320 C 0.06648 0.96427 0.1183 0.0
C1321 C 0.09216 0.9851 0.10942 0.0
C1322 C 0.1016 -0.00224 0.09683 0.0
C1323 C 0.0947 0.01613 0.09346 0.0
C1324 C 0.10418 0.02818 0.08196 0.0
C1325 C 0.12046 0.02196 0.07372 0.0
C1326 C 0.12744 0.00371 0.07709 0.0
C1327 C 0.11813 0.99167 0.0887 0.0
H1328 H 0.12774 0.03131 0.0648 0.0
H1329 H 0.04482 0.91293 0.18084 0.0
H1330 H 0.25519 0.89739 0.46553 0.0
H1331 H 0.2622 0.88151 0.43747 0.0
H1332 H 0.28043 0.83145 0.46576 0.0
H1333 H 0.27374 0.8473 0.49393 0.0
H1334 H 0.30562 0.84177 0.44167 0.0
H1335 H 0.23845 0.83159 0.44253 0.0
H1336 H 0.20504 0.84072 0.44482 0.0
H1337 H 0.20967 0.87642 0.39926 0.0
H1338 H 0.2432 0.86772 0.39686 0.0
H1339 H 0.30646 0.7767 0.36753 0.0
H1340 H 0.3019 0.79375 0.39565 0.0
H1341 H 0.28442 0.84384 0.36698 0.0
H1342 H 0.28845 0.82677 0.3389 0.0
H1343 H 0.25923 0.83386 0.39119 0.0
H1344 H 0.32636 0.84358 0.39006 0.0
H1345 H 0.35966 0.83411 0.38766 0.0
H1346 H 0.35501 0.7989 0.43354 0.0
H1347 H 0.32159 0.80795 0.43608 0.0
C1348 C 0.26049 0.88292 0.4658 0.0
C1349 C 0.26391 0.87362 0.48199 0.0
C1350 C 0.26446 0.87386 0.44974 0.0
C1351 C 0.27176 0.85528 0.44955 0.0
C1352 C 0.27485 0.84582 0.46564 0.0
C1353 C 0.27093 0.85488 0.48172 0.0
C1354 C 0.27676 0.84595 0.43261 0.0
C1355 C 0.29542 0.83979 0.4307 0.0
C1356 C 0.26356 0.84385 0.41818 0.0
C1357 C 0.2434 0.84916 0.41964 0.0
C1358 C 0.2324 0.84153 0.4331 0.0
C1359 C 0.21342 0.8466 0.4344 0.0
C1360 C 0.20525 0.85919 0.42223 0.0
C1361 C 0.21603 0.8667 0.4087 0.0
C1362 C 0.23501 0.86169 0.40736 0.0
C1363 C 0.3019 0.79144 0.36725 0.0
C1364 C 0.29785 0.8004 0.35102 0.0
C1365 C 0.29941 0.80119 0.3833 0.0
C1366 C 0.29287 0.82007 0.38337 0.0
C1367 C 0.28951 0.82929 0.3672 0.0
C1368 C 0.29202 0.81957 0.35116 0.0
C1369 C 0.28809 0.82969 0.40024 0.0
C1370 C 0.26945 0.83588 0.40214 0.0
C1371 C 0.3013 0.83178 0.41465 0.0
C1372 C 0.32141 0.8263 0.41315 0.0
C1373 C 0.33238 0.83368 0.39955 0.0
C1374 C 0.3513 0.82842 0.39818 0.0
C1375 C 0.35944 0.81587 0.41041 0.0
C1376 C 0.34869 0.8086 0.42406 0.0
C1377 C 0.32976 0.81381 0.42548 0.0
H1378 H 0.37408 0.81182 0.40933 0.0
H1379 H 0.19056 0.86309 0.42325 0.0
H1380 H 0.3869 0.00443 0.66887 0.0
H1381 H 0.40384 0.0096 0.64162 0.0
H1382 H 0.44625 0.0432 0.67109 0.0
H1383 H 0.42989 0.03703 0.69858 0.0
H1384 H 0.41408 0.03655 0.62192 0.0
H1385 H 0.48921 0.03622 0.65497 0.0
H1386 H 0.50553 0.02371 0.68174 0.0
H1387 H 0.46389 0.97867 0.68433 0.0
H1388 H 0.44749 0.99076 0.65746 0.0
H1389 H 0.47797 0.05154 0.55283 0.0
H1390 H 0.46164 0.05468 0.58084 0.0
H1391 H 0.47892 -0.00227 0.59503 0.0
H1392 H 0.49585 0.99486 0.56753 0.0
H1393 H 0.48179 0.01865 0.62268 0.0
H1394 H 0.43237 0.00733 0.57855 0.0
H1395 H 0.41445 0.01296 0.55047 0.0
H1396 H 0.40171 0.06985 0.56838 0.0
H1397 H 0.41979 0.06457 0.59645 0.0
C1398 C 0.39974 0.01308 0.66948 0.0
C1399 C 0.40728 0.02011 0.6858 0.0
C1400 C 0.40938 0.01609 0.6539 0.0
C1401 C 0.42654 0.02646 0.65435 0.0
C1402 C 0.43332 0.0347 0.67049 0.0
C1403 C 0.42395 0.03125 0.68615 0.0
C1404 C 0.43787 0.02744 0.63817 0.0
C1405 C 0.42892 0.03276 0.62212 0.0
C1406 C 0.45713 0.02207 0.6383 0.0
C1407 C 0.46701 0.01455 0.65435 0.0
C1408 C 0.48358 0.02362 0.66124 0.0
C1409 C 0.49284 0.0166 0.67642 0.0
C1410 C 0.48571 0.00045 0.68477 0.0
C1411 C 0.46936 0.99122 0.6779 0.0
C1412 C 0.46007 -0.00184 0.6627 0.0
C1413 C 0.47839 0.03978 0.56202 0.0
C1414 C 0.48817 0.02296 0.55802 0.0
C1415 C 0.46896 0.04153 0.57796 0.0
C1416 C 0.4688 0.02632 0.58993 0.0
C1417 C 0.47888 0.00969 0.58605 0.0
C1418 C 0.48855 0.00805 0.5703 0.0
C1419 C 0.45793 0.02746 0.60639 0.0
C1420 C 0.46701 0.02267 0.62252 0.0
C1421 C 0.43856 0.03236 0.60618 0.0
C1422 C 0.42765 0.03565 0.58941 0.0
C1423 C 0.4259 0.02109 0.57637 0.0
C1424 C 0.41569 0.0242 0.5605 0.0
C1425 C 0.40702 0.04179 0.55761 0.0
C1426 C 0.40848 0.05626 0.57062 0.0
C1427 C 0.4187 0.0532 0.58651 0.0
H1428 H 0.39912 0.04418 0.54532 0.0
H1429 H 0.49289 0.99506 0.69654 0.0
H1430 H 0.33629 0.16589 0.98721 0.0
H1431 H 0.33234 0.18865 0.96316 0.0
H1432 H 0.31692 0.14227 0.92689 0.0
H1433 H 0.32168 0.11945 0.95059 0.0
H1434 H 0.32847 0.17229 0.90859 0.0
H1435 H 0.28398 0.16007 0.95494 0.0
H1436 H 0.27426 0.15834 0.98603 0.0
H1437 H 0.28728 0.21811 0.99376 0.0
H1438 H 0.29727 0.22014 0.96274 0.0
H1439 H 0.23773 0.20521 0.87131 0.0
H1440 H 0.25614 0.19121 0.89584 0.0
H1441 H 0.29754 0.23673 0.89315 0.0
H1442 H 0.28009 0.25023 0.86819 0.0
H1443 H 0.27517 0.21048 0.93101 0.0
H1444 H 0.32544 0.21734 0.88212 0.0
H1445 H 0.3294 0.21625 0.84967 0.0
H1446 H 0.29905 0.16266 0.84603 0.0
H1447 H 0.29451 0.16372 0.87843 0.0
C1448 C 0.33314 0.16046 0.97388 0.0
C1449 C 0.32864 0.14101 0.97086 0.0
C1450 C 0.33077 0.17349 0.96016 0.0
C1451 C 0.32346 0.16719 0.9435 0.0
C1452 C 0.32224 0.14748 0.93974 0.0
C1453 C 0.325 0.1344 0.95336 0.0
C1454 C 0.31311 0.18053 0.93173 0.0
C1455 C 0.31709 0.18089 0.91361 0.0
C1456 C 0.29777 0.19135 0.93807 0.0
C1457 C 0.29157 0.19021 0.95663 0.0
C1458 C 0.28484 0.17282 0.96331 0.0
C1459 C 0.27929 0.17178 0.98091 0.0
C1460 C 0.28022 0.18808 0.99188 0.0
C1461 C 0.28662 0.20548 0.98526 0.0
C1462 C 0.29223 0.20659 0.96768 0.0
C1463 C 0.25059 0.21242 0.8761 0.0
C1464 C 0.25746 0.22874 0.86756 0.0
C1465 C 0.26101 0.20446 0.89015 0.0
C1466 C 0.27827 0.21285 0.89597 0.0
C1467 C 0.2843 0.23003 0.88865 0.0
C1468 C 0.27408 0.23786 0.87449 0.0
C1469 C 0.29097 0.20256 0.90823 0.0
C1470 C 0.2871 0.20247 0.92627 0.0
C1471 C 0.3061 0.19175 0.9018 0.0
C1472 C 0.30969 0.1906 0.88259 0.0
C1473 C 0.31966 0.20532 0.87437 0.0
C1474 C 0.32193 0.20475 0.85601 0.0
C1475 C 0.31453 0.18936 0.84582 0.0
C1476 C 0.3048 0.17454 0.85396 0.0
C1477 C 0.30234 0.17514 0.8723 0.0
H1478 H 0.31635 0.18893 0.83162 0.0
H1479 H 0.27593 0.18724 0.00551 0.0
H1480 H 0.0742 0.0457 0.27628 0.0
H1481 H 0.06244 0.0542 0.30542 0.0
H1482 H 0.10001 0.01333 0.32978 0.0
H1483 H 0.11215 0.00502 0.30076 0.0
H1484 H 0.04436 0.03427 0.32868 0.0
H1485 H 0.11509 0.02888 0.37024 0.0
H1486 H 0.14916 0.03485 0.36644 0.0
H1487 H 0.13631 0.07484 0.32522 0.0
H1488 H 0.10217 0.06934 0.32894 0.0
H1489 H 0.03094 0.01119 0.41676 0.0
H1490 H 0.04109 0.01405 0.3864 0.0
H1491 H 0.06239 0.07113 0.39814 0.0
H1492 H 0.05207 0.06841 0.42881 0.0
H1493 H 0.08751 0.05028 0.38021 0.0
H1494 H 0.0228 0.06563 0.37258 0.0
H1495 H 0.98838 0.06227 0.37607 0.0
H1496 H 0.98847 0.00797 0.34863 0.0
H1497 H 0.02295 0.01085 0.3452 0.0
C1498 C 0.07996 0.03849 0.28783 0.0
C1499 C 0.09416 0.0247 0.2862 0.0
C1500 C 0.07323 0.0434 0.30447 0.0
C1501 C 0.08057 0.03463 0.31978 0.0
C1502 C 0.09446 0.02059 0.31817 0.0
C1503 C 0.10128 0.01575 0.30155 0.0
C1504 C 0.07328 0.03966 0.33742 0.0
C1505 C 0.05377 0.03791 0.33992 0.0
C1506 C 0.08552 0.04499 0.35196 0.0
C1507 C 0.10606 0.04858 0.3498 0.0
C1508 C 0.11953 0.03903 0.36043 0.0
C1509 C 0.13886 0.04231 0.35827 0.0
C1510 C 0.1449 0.05518 0.34556 0.0
C1511 C 0.13162 0.06484 0.33502 0.0
C1512 C 0.11227 0.06162 0.33713 0.0
C1513 C 0.03745 0.02452 0.41284 0.0
C1514 C 0.04047 0.03969 0.42512 0.0
C1515 C 0.04329 0.02611 0.39548 0.0
C1516 C 0.05219 0.04292 0.38995 0.0
C1517 C 0.05543 0.05808 0.40216 0.0
C1518 C 0.04958 0.05649 0.41964 0.0
C1519 C 0.05872 0.04406 0.37155 0.0
C1520 C 0.07808 0.04696 0.36891 0.0
C1521 C 0.04629 0.04022 0.3568 0.0
C1522 C 0.0255 0.03843 0.35871 0.0
C1523 C 0.01551 0.05291 0.36738 0.0
C1524 C -0.00402 0.0511 0.36934 0.0
C1525 C 0.98625 0.03491 0.36259 0.0
C1526 C -0.00397 0.02051 0.35385 0.0
C1527 C 0.01556 0.02224 0.35187 0.0
H1528 H 0.97113 0.03353 0.36412 0.0
H1529 H 0.15987 0.05769 0.34391 0.0
H1530 H 0.30126 0.86291 0.59754 0.0
H1531 H 0.30553 0.84089 0.62227 0.0
H1532 H 0.25846 0.80647 0.6014 0.0
H1533 H 0.25504 0.82768 0.57624 0.0
H1534 H 0.28559 0.83381 0.64758 0.0
H1535 H 0.25882 0.76178 0.61335 0.0
H1536 H 0.26216 0.74471 0.58477 0.0
H1537 H 0.31339 0.77621 0.57578 0.0
H1538 H 0.31053 0.79327 0.60442 0.0
H1539 H 0.24364 0.77777 0.70985 0.0
H1540 H 0.24931 0.79313 0.68164 0.0
H1541 H 0.29701 0.75651 0.6735 0.0
H1542 H 0.29139 0.7409 0.7017 0.0
H1543 H 0.27814 0.76321 0.64257 0.0
H1544 H 0.30476 0.79793 0.6905 0.0
H1545 H 0.30675 0.81358 0.71995 0.0
H1546 H 0.26737 0.85606 0.7023 0.0
H1547 H 0.26422 0.83998 0.67298 0.0
C1548 C 0.29209 0.85042 0.59813 0.0
C1549 C 0.27788 0.84692 0.58498 0.0
C1550 C 0.29449 0.83787 0.61227 0.0
C1551 C 0.28249 0.82181 0.61365 0.0
C1552 C 0.26833 0.81835 0.60042 0.0
C1553 C 0.26626 0.83059 0.58608 0.0
C1554 C 0.28361 0.80952 0.62956 0.0
C1555 C 0.2841 0.81838 0.64644 0.0
C1556 C 0.28248 0.78927 0.62821 0.0
C1557 C 0.28438 0.7789 0.61102 0.0
C1558 C 0.27087 0.76499 0.60534 0.0
C1559 C 0.27266 0.75533 0.58911 0.0
C1560 C 0.28795 0.7594 0.57845 0.0
C1561 C 0.30152 0.77311 0.58402 0.0
C1562 C 0.2998 0.7828 0.60024 0.0
C1563 C 0.25508 0.77266 0.7019 0.0
C1564 C 0.26722 0.7583 0.70812 0.0
C1565 C 0.25836 0.78152 0.68583 0.0
C1566 C 0.27383 0.77622 0.67574 0.0
C1567 C 0.28508 0.76087 0.68119 0.0
C1568 C 0.28183 0.75199 0.6973 0.0
C1569 C 0.27896 0.78768 0.66026 0.0
C1570 C 0.2798 0.77864 0.64359 0.0
C1571 C 0.28225 0.80767 0.66187 0.0
C1572 C 0.28409 0.81757 0.67951 0.0
C1573 C 0.29629 0.81045 0.69293 0.0
C1574 C 0.29764 0.81941 0.70963 0.0
C1575 C 0.28729 0.83588 0.71299 0.0
C1576 C 0.27541 0.8433 0.69968 0.0
C1577 C 0.27374 0.83419 0.68303 0.0
H1578 H 0.28848 0.84288 0.7259 0.0
H1579 H 0.2893 0.75192 0.56588 0.0
H1580 H 0.39542 0.98589 0.79148 0.0
H1581 H 0.40315 0.97991 0.82261 0.0
H1582 H 0.46005 0.96508 0.80925 0.0
H1583 H 0.45232 0.97065 0.77785 0.0
H1584 H 0.44583 0.94085 0.83355 0.0
H1585 H 0.4507 0.00903 0.82586 0.0
H1586 H 0.43946 0.04079 0.81677 0.0
H1587 H 0.39359 0.03649 0.85252 0.0
H1588 H 0.40442 0.00457 0.86164 0.0
H1589 H 0.4975 0.96168 0.91364 0.0
H1590 H 0.4832 0.95734 0.88392 0.0
H1591 H 0.4286 0.97164 0.904 0.0
H1592 H 0.44299 0.9764 0.9338 0.0
H1593 H 0.43824 0.99401 0.87703 0.0
H1594 H 0.43638 0.92703 0.88747 0.0
H1595 H 0.44871 0.89577 0.89673 0.0
H1596 H 0.49002 0.89809 0.85628 0.0
H1597 H 0.47812 0.9295 0.84693 0.0
C1598 C 0.4096 0.98135 0.79511 0.0
C1599 C 0.42334 0.97893 0.7822 0.0
C1600 C 0.41397 0.97793 0.81292 0.0
C1601 C 0.43222 0.97228 0.81823 0.0
C1602 C 0.44587 0.96944 0.80538 0.0
C1603 C 0.44147 0.97273 0.78749 0.0
C1604 C 0.43722 0.97005 0.83727 0.0
C1605 C 0.44433 0.95249 0.84307 0.0
C1606 C 0.43473 0.98511 0.84971 0.0
C1607 C 0.42824 0.00433 0.84428 0.0
C1608 C 0.43813 0.01479 0.83168 0.0
C1609 C 0.43185 0.03283 0.82654 0.0
C1610 C 0.41579 0.04062 0.83402 0.0
C1611 C 0.40601 0.03042 0.84671 0.0
C1612 C 0.41222 0.01236 0.85187 0.0
C1613 C 0.48239 0.96356 0.91176 0.0
C1614 C 0.47136 0.96958 0.92592 0.0
C1615 C 0.4742 0.9609 0.89482 0.0
C1616 C 0.45483 0.96412 0.89179 0.0
C1617 C 0.44357 0.96904 0.90612 0.0
C1618 C 0.45177 0.97166 0.92312 0.0
C1619 C 0.44705 0.96485 0.87337 0.0
C1620 C 0.43946 0.98221 0.86762 0.0
C1621 C 0.44924 0.94965 0.86103 0.0
C1622 C 0.45642 0.93071 0.86657 0.0
C1623 C 0.44819 0.92095 0.88063 0.0
C1624 C 0.45508 0.90319 0.88588 0.0
C1625 C 0.47016 0.89496 0.87712 0.0
C1626 C 0.47834 0.90448 0.86306 0.0
C1627 C 0.47151 0.92225 0.85776 0.0
H1628 H 0.47548 0.88121 0.88121 0.0
H1629 H 0.41095 0.05459 0.83003 0.0
H1630 H 0.29385 0.16156 0.04831 0.0
H1631 H 0.29913 0.18001 0.07577 0.0
H1632 H 0.26066 0.14267 0.10243 0.0
H1633 H 0.25522 0.12401 0.07495 0.0
H1634 H 0.25988 0.18177 0.11426 0.0
H1635 H 0.30415 0.13098 0.10433 0.0
H1636 H 0.32694 0.113 0.08672 0.0
H1637 H 0.3625 0.16308 0.0843 0.0
H1638 H 0.33975 0.18144 0.10174 0.0
H1639 H 0.29317 0.18378 0.20241 0.0
H1640 H 0.28558 0.17235 0.17233 0.0
H1641 H 0.32688 0.2115 0.15194 0.0
H1642 H 0.33489 0.22292 0.18229 0.0
H1643 H 0.32657 0.17465 0.13578 0.0
H1644 H 0.28312 0.22423 0.1497 0.0
H1645 H 0.25995 0.24098 0.16789 0.0
H1646 H 0.22241 0.19226 0.16347 0.0
H1647 H 0.24549 0.17508 0.14549 0.0
C1648 C 0.28613 0.1575 0.05987 0.0
C1649 C 0.27445 0.14105 0.05958 0.0
C1650 C 0.28916 0.1681 0.07553 0.0
C1651 C 0.28058 0.16241 0.09112 0.0
C1652 C 0.26746 0.14718 0.09049 0.0
C1653 C 0.26441 0.13652 0.07479 0.0
C1654 C 0.28724 0.17061 0.1084 0.0
C1655 C 0.2744 0.18018 0.11905 0.0
C1656 C 0.3063 0.16869 0.11441 0.0
C1657 C 0.32015 0.15764 0.10415 0.0
C1658 C 0.31676 0.13819 0.09993 0.0
C1659 C 0.32967 0.12793 0.08999 0.0
C1660 C 0.34613 0.13691 0.08432 0.0
C1661 C 0.34973 0.15616 0.08866 0.0
C1662 C 0.33684 0.1665 0.09858 0.0
C1663 C 0.30109 0.1896 0.19163 0.0
C1664 C 0.3147 0.20422 0.19473 0.0
C1665 C 0.29652 0.18323 0.17442 0.0
C1666 C 0.30541 0.19138 0.15998 0.0
C1667 C 0.31977 0.2052 0.16299 0.0
C1668 C 0.32431 0.21168 0.18027 0.0
C1669 C 0.29918 0.18574 0.14175 0.0
C1670 C 0.3121 0.17655 0.13092 0.0
C1671 C 0.28017 0.18791 0.13567 0.0
C1672 C 0.26614 0.19829 0.14635 0.0
C1673 C 0.27 0.21702 0.15272 0.0
C1674 C 0.25686 0.22661 0.16297 0.0
C1675 C 0.23973 0.21768 0.16686 0.0
C1676 C 0.23568 0.19916 0.16045 0.0
C1677 C 0.24878 0.1895 0.15021 0.0
H1678 H 0.2296 0.2251 0.17482 0.0
H1679 H 0.35611 0.12893 0.07662 0.0
H1680 H 0.23586 0.12922 0.97755 0.0
H1681 H 0.20326 0.12198 0.96763 0.0
H1682 H 0.21557 0.0617 0.96664 0.0
H1683 H 0.24818 0.06876 0.97663 0.0
H1684 H 0.18704 0.07425 0.93981 0.0
H1685 H 0.20331 0.07701 0.00336 0.0
H1686 H 0.21762 0.09308 0.03001 0.0
H1687 H 0.18059 0.14072 0.02249 0.0
H1688 H 0.16633 0.12506 -0.00444 0.0
H1689 H 0.10568 0.02465 0.96835 0.0
H1690 H 0.13629 0.03823 0.96097 0.0
H1691 H 0.11734 0.09448 0.97599 0.0
H1692 H 0.08737 0.08089 0.98476 0.0
H1693 H 0.14852 0.08775 0.99234 0.0
H1694 H 0.12745 0.08143 0.93181 0.0
H1695 H 0.11368 0.06531 0.90498 0.0
H1696 H 0.15877 0.02472 0.90611 0.0
H1697 H 0.17267 0.04042 0.93311 0.0
C1698 C 0.23177 0.11446 0.97476 0.0
C1699 C 0.24436 0.09949 0.97831 0.0
C1700 C 0.21321 0.11038 0.96896 0.0
C1701 C 0.20709 0.09132 0.96662 0.0
C1702 C 0.22013 0.0765 0.96836 0.0
C1703 C 0.23867 0.08055 0.97426 0.0
C1704 C 0.18672 0.08666 0.9661 0.0
C1705 C 0.17848 0.07716 0.95121 0.0
C1706 C 0.1757 0.09078 0.98094 0.0
C1707 C 0.18393 0.09999 -0.00265 0.0
C1708 C 0.19833 0.09098 0.00732 0.0
C1709 C 0.20642 0.1 0.02247 0.0
C1710 C 0.20005 0.11794 0.02791 0.0
C1711 C 0.18554 0.12685 0.01824 0.0
C1712 C 0.17745 0.11791 0.00303 0.0
C1713 C 0.108 0.03992 0.97009 0.0
C1714 C 0.09408 0.0516 0.97738 0.0
C1715 C 0.12541 0.04773 0.96552 0.0
C1716 C 0.12906 0.06742 0.96779 0.0
C1717 C 0.11481 0.07925 0.97409 0.0
C1718 C 0.09757 0.07143 0.97897 0.0
C1719 C 0.14843 0.07525 0.96594 0.0
C1720 C 0.15668 0.0852 0.98061 0.0
C1721 C 0.15933 0.07152 0.95086 0.0
C1722 C 0.15104 0.06204 0.93458 0.0
C1723 C 0.13436 0.06898 0.92643 0.0
C1724 C 0.12654 0.05993 0.91116 0.0
C1725 C 0.13533 0.04398 0.90386 0.0
C1726 C 0.15198 0.03707 0.91178 0.0
C1727 C 0.15985 0.04606 0.92705 0.0
H1728 H 0.12925 0.037 0.89205 0.0
H1729 H 0.20634 0.12491 0.03964 0.0
H1730 H 0.72326 0.4379 0.05053 0.0
H1731 H 0.69168 0.45095 0.04614 0.0
H1732 H 0.66833 0.39377 0.04026 0.0
H1733 H 0.70007 0.38056 0.0443 0.0
H1734 H 0.65421 0.41643 0.01506 0.0
H1735 H 0.66259 0.41958 0.07824 0.0
H1736 H 0.67887 0.4277 0.10686 0.0
H1737 H 0.67653 0.48745 0.09467 0.0
H1738 H 0.66045 0.47966 0.06586 0.0
H1739 H 0.56317 0.46422 0.04955 0.0
H1740 H 0.59309 0.44789 0.054 0.0
H1741 H 0.61196 0.46889 0.00393 0.0
H1742 H 0.58173 0.48517 -0.0008 0.0
H1743 H 0.62742 0.4626 0.05783 0.0
H1744 H 0.64133 0.43662 0.98633 0.0
H1745 H 0.6237 0.42474 0.95946 0.0
H1746 H 0.57854 0.40503 0.99153 0.0
H1747 H 0.59584 0.4169 0.01854 0.0
C1748 C 0.7114 0.42808 0.04843 0.0
C1749 C 0.71412 0.4082 0.04778 0.0
C1750 C 0.69336 0.43557 0.04596 0.0
C1751 C 0.67767 0.42332 0.04301 0.0
C1752 C 0.68029 0.40345 0.0425 0.0
C1753 C 0.69839 0.39593 0.0449 0.0
C1754 C 0.65858 0.43135 0.04014 0.0
C1755 C 0.64832 0.42651 0.02442 0.0
C1756 C 0.65083 0.44427 0.05248 0.0
C1757 C 0.66046 0.44902 0.06982 0.0
C1758 C 0.66567 0.43444 0.0816 0.0
C1759 C 0.67484 0.43899 0.09787 0.0
C1760 C 0.67877 0.45808 0.10256 0.0
C1761 C 0.6735 0.47267 0.09101 0.0
C1762 C 0.66434 0.4682 0.07472 0.0
C1763 C 0.57363 0.46536 0.03942 0.0
C1764 C 0.57013 0.47608 0.02405 0.0
C1765 C 0.59073 0.45601 0.04201 0.0
C1766 C 0.60469 0.45712 0.02929 0.0
C1767 C 0.60125 0.46769 0.01383 0.0
C1768 C 0.58406 0.47709 0.0112 0.0
C1769 C 0.62309 0.44781 0.03267 0.0
C1770 C 0.63329 0.45251 0.04847 0.0
C1771 C 0.63055 0.43441 0.02062 0.0
C1772 C 0.61981 0.42777 0.00441 0.0
C1773 C 0.62762 0.42979 0.98762 0.0
C1774 C 0.61768 0.42307 0.97237 0.0
C1775 C 0.60003 0.41412 0.97379 0.0
C1776 C 0.59221 0.41199 0.99045 0.0
C1777 C 0.60201 0.41882 0.00571 0.0
H1778 H 0.59238 0.40887 0.96198 0.0
H1779 H 0.68588 0.46157 0.11516 0.0
H1780 H 0.8944 0.42614 0.21525 0.0
H1781 H 0.87738 0.39622 0.22009 0.0
H1782 H 0.82617 0.42754 0.2285 0.0
H1783 H 0.84312 0.45757 0.22397 0.0
H1784 H 0.83565 0.40668 0.25646 0.0
H1785 H 0.83001 0.39617 0.19383 0.0
H1786 H 0.83995 0.39261 0.16294 0.0
H1787 H 0.87467 0.34507 0.17762 0.0
H1788 H 0.86524 0.34855 0.20869 0.0
H1789 H 0.77576 0.32623 0.26885 0.0
H1790 H 0.79131 0.35535 0.25912 0.0
H1791 H 0.84319 0.32454 0.25263 0.0
H1792 H 0.82762 0.29512 0.26205 0.0
H1793 H 0.83304 0.34489 0.2233 0.0
H1794 H 0.83984 0.35654 0.28605 0.0
H1795 H 0.82899 0.35934 0.31674 0.0
H1796 H 0.7913 0.40423 0.30122 0.0
H1797 H 0.80173 0.40152 0.27037 0.0
C1798 C 0.87938 0.42666 0.2176 0.0
C1799 C 0.87019 0.44426 0.21959 0.0
C1800 C 0.86966 0.4095 0.2203 0.0
C1801 C 0.85057 0.4097 0.22481 0.0
C1802 C 0.84095 0.42713 0.22518 0.0
C1803 C 0.85067 0.44427 0.22256 0.0
C1804 C 0.84152 0.3923 0.23174 0.0
C1805 C 0.83476 0.39325 0.24905 0.0
C1806 C 0.84102 0.37464 0.22232 0.0
C1807 C 0.84711 0.37282 0.20369 0.0
C1808 C 0.83998 0.38513 0.19055 0.0
C1809 C 0.84548 0.38308 0.17298 0.0
C1810 C 0.858 0.36867 0.16833 0.0
C1811 C 0.86503 0.35626 0.18124 0.0
C1812 C 0.85961 0.35828 0.19884 0.0
C1813 C 0.79057 0.32568 0.26565 0.0
C1814 C 0.80046 0.30837 0.26617 0.0
C1815 C 0.79944 0.34235 0.26011 0.0
C1816 C 0.81838 0.34205 0.2552 0.0
C1817 C 0.82853 0.32499 0.25636 0.0
C1818 C 0.81965 0.30825 0.26182 0.0
C1819 C 0.82718 0.35934 0.24789 0.0
C1820 C 0.83392 0.35835 0.2306 0.0
C1821 C 0.82769 0.37698 0.25729 0.0
C1822 C 0.82146 0.37871 0.27586 0.0
C1823 C 0.82913 0.36691 0.28915 0.0
C1824 C 0.82308 0.3685 0.30658 0.0
C1825 C 0.80943 0.38192 0.31092 0.0
C1826 C 0.80185 0.39382 0.29784 0.0
C1827 C 0.80785 0.39228 0.28039 0.0
H1828 H 0.80476 0.38313 0.32442 0.0
H1829 H 0.8622 0.36708 0.15471 0.0
H1830 H 0.84183 0.5892 0.53533 0.0
H1831 H 0.87026 0.57384 0.54614 0.0
H1832 H 0.83673 0.53114 0.57204 0.0
H1833 H 0.80773 0.54638 0.5607 0.0
H1834 H 0.88733 0.56444 0.57625 0.0
H1835 H 0.86009 0.48937 0.56676 0.0
H1836 H 0.83321 0.47088 0.55311 0.0
H1837 H 0.82852 0.51156 0.51111 0.0
H1838 H 0.85544 0.53017 0.52448 0.0
H1839 H 0.9749 0.51864 0.56021 0.0
H1840 H 0.94447 0.52284 0.57423 0.0
H1841 H 0.91607 0.52023 0.5226 0.0
H1842 H 0.94626 0.51521 0.50865 0.0
H1843 H 0.89566 0.50206 0.54541 0.0
H1844 H 0.93003 0.56387 0.54462 0.0
H1845 H 0.95694 0.58534 0.55304 0.0
H1846 H 0.94744 0.57575 0.60822 0.0
H1847 H 0.92057 0.55408 0.60007 0.0
C1848 C 0.84037 0.57665 0.54346 0.0
C1849 C 0.82252 0.56874 0.54681 0.0
C1850 C 0.85671 0.56801 0.54987 0.0
C1851 C 0.85563 0.55128 0.55983 0.0
C1852 C 0.83783 0.54398 0.56427 0.0
C1853 C 0.82133 0.55265 0.55773 0.0
C1854 C 0.87324 0.5405 0.56291 0.0
C1855 C 0.88915 0.5505 0.57003 0.0
C1856 C 0.87559 0.5223 0.55489 0.0
C1857 C 0.85955 0.51121 0.54671 0.0
C1858 C 0.85329 0.49432 0.55461 0.0
C1859 C 0.83808 0.48384 0.54693 0.0
C1860 C 0.82912 0.49008 0.53129 0.0
C1861 C 0.83542 0.50677 0.52325 0.0
C1862 C 0.85065 0.51728 0.53086 0.0
C1863 C 0.96212 0.51894 0.55188 0.0
C1864 C 0.96288 0.51688 0.53332 0.0
C1865 C 0.94478 0.52123 0.55992 0.0
C1866 C 0.92804 0.52195 0.54946 0.0
C1867 C 0.9288 0.51953 0.53095 0.0
C1868 C 0.94606 0.51688 0.52296 0.0
C1869 C 0.90979 0.52685 0.55727 0.0
C1870 C 0.89386 0.51549 0.55254 0.0
C1871 C 0.90744 0.54418 0.56687 0.0
C1872 C 0.92351 0.55719 0.57175 0.0
C1873 C 0.93377 0.56627 0.55854 0.0
C1874 C 0.94899 0.57848 0.56326 0.0
C1875 C 0.95394 0.58185 0.58116 0.0
C1876 C 0.94363 0.57308 0.59437 0.0
C1877 C 0.92841 0.56083 0.58971 0.0
H1878 H 0.96572 0.59131 0.58479 0.0
H1879 H 0.81733 0.48195 0.52537 0.0
H1880 H 0.15169 0.07618 0.21408 0.0
H1881 H 0.17119 0.10508 0.21985 0.0
H1882 H 0.19363 0.08065 0.26819 0.0
H1883 H 0.17469 0.05162 0.26237 0.0
H1884 H 0.17592 0.12091 0.2691 0.0
H1885 H 0.22218 0.08046 0.24043 0.0
H1886 H 0.23306 0.0603 0.21573 0.0
H1887 H 0.22603 0.10713 0.17999 0.0
H1888 H 0.21482 0.12748 0.20445 0.0
H1889 H 0.24651 0.18892 0.29666 0.0
H1890 H 0.22739 0.16007 0.28988 0.0
H1891 H 0.22822 0.17282 0.23396 0.0
H1892 H 0.24851 0.20064 0.2407 0.0
H1893 H 0.23318 0.13815 0.23625 0.0
H1894 H 0.18777 0.1793 0.26205 0.0
H1895 H 0.17453 0.20085 0.28454 0.0
H1896 H 0.17616 0.15574 0.32257 0.0
H1897 H 0.18965 0.13397 0.30037 0.0
C1898 C 0.16094 0.0769 0.22582 0.0
C1899 C 0.16171 0.06164 0.23775 0.0
C1900 C 0.17201 0.09337 0.22909 0.0
C1901 C 0.1837 0.09488 0.24446 0.0
C1902 C 0.18463 0.07966 0.25628 0.0
C1903 C 0.17389 0.06307 0.25286 0.0
C1904 C 0.19465 0.11256 0.24852 0.0
C1905 C 0.18856 0.12471 0.26208 0.0
C1906 C 0.21066 0.11763 0.23888 0.0
C1907 C 0.21744 0.1054 0.22422 0.0
C1908 C 0.22276 0.08639 0.22727 0.0
C1909 C 0.22903 0.07494 0.21332 0.0
C1910 C 0.23017 0.08241 0.19628 0.0
C1911 C 0.2251 0.10135 0.19318 0.0
C1912 C 0.2188 0.11284 0.20708 0.0
C1913 C 0.2425 0.18548 0.28297 0.0
C1914 C 0.24892 0.19683 0.26918 0.0
C1915 C 0.23147 0.16911 0.27908 0.0
C1916 C 0.22606 0.16435 0.26138 0.0
C1917 C 0.23225 0.17604 0.24769 0.0
C1918 C 0.24377 0.19197 0.25153 0.0
C1919 C 0.21455 0.14688 0.25697 0.0
C1920 C 0.2205 0.13463 0.24332 0.0
C1921 C 0.19806 0.14203 0.26621 0.0
C1922 C 0.18989 0.15506 0.27959 0.0
C1923 C 0.18543 0.17401 0.27525 0.0
C1924 C 0.17786 0.18626 0.28794 0.0
C1925 C 0.17455 0.17968 0.30499 0.0
C1926 C 0.17875 0.16082 0.30937 0.0
C1927 C 0.18634 0.14851 0.29673 0.0
H1928 H 0.16869 0.18919 0.3148 0.0
H1929 H 0.23504 0.07353 0.1855 0.0
H1930 H 0.31493 0.95312 0.51684 0.0
H1931 H 0.34815 0.95844 0.5106 0.0
H1932 H 0.3632 0.90791 0.53968 0.0
H1933 H 0.32981 0.9023 0.546 0.0
H1934 H 0.3881 0.94075 0.5458 0.0
H1935 H 0.36136 0.9023 0.49818 0.0
H1936 H 0.33747 0.89306 0.47494 0.0
H1937 H 0.34733 0.94589 0.44823 0.0
H1938 H 0.37106 0.95561 0.47147 0.0
H1939 H 0.4791 0.95185 0.51261 0.0
H1940 H 0.44962 0.93386 0.51597 0.0
H1941 H 0.41871 0.9782 0.4889 0.0
H1942 H 0.44805 -0.00373 0.48543 0.0
H1943 H 0.40363 0.9415 0.482 0.0
H1944 H 0.42639 0.98175 0.53143 0.0
H1945 H 0.45061 0.99175 0.55405 0.0
H1946 H 0.44756 0.93639 0.57778 0.0
H1947 H 0.4239 0.92575 0.55475 0.0
C1948 C 0.32527 0.94325 0.52216 0.0
C1949 C 0.3197 0.92717 0.53177 0.0
C1950 C 0.34423 0.94628 0.5185 0.0
C1951 C 0.35796 0.93335 0.52443 0.0
C1952 C 0.35269 0.91792 0.53491 0.0
C1953 C 0.33365 0.91477 0.53849 0.0
C1954 C 0.37764 0.93578 0.51894 0.0
C1955 C 0.39166 0.94046 0.5319 0.0
C1956 C 0.38207 0.93557 0.50077 0.0
C1957 C 0.36791 0.92973 0.48665 0.0
C1958 C 0.35834 0.91202 0.48743 0.0
C1959 C 0.34483 0.90668 0.47424 0.0
C1960 C 0.34086 0.91889 0.46013 0.0
C1961 C 0.35042 0.93645 0.45917 0.0
C1962 C 0.36391 0.94187 0.47234 0.0
C1963 C 0.4661 0.95753 0.50692 0.0
C1964 C 0.46578 0.97567 0.4991 0.0
C1965 C 0.44931 0.9472 0.50884 0.0
C1966 C 0.43205 0.95492 0.50295 0.0
C1967 C 0.43194 0.97208 0.49357 0.0
C1968 C 0.44869 0.98244 0.4917 0.0
C1969 C 0.41398 0.94688 0.50881 0.0
C1970 C 0.40022 0.94124 0.49592 0.0
C1971 C 0.40976 0.9463 0.52705 0.0
C1972 C 0.42357 0.95286 0.54121 0.0
C1973 C 0.43102 0.97163 0.54135 0.0
C1974 C 0.44468 0.97741 0.55423 0.0
C1975 C 0.45063 0.96471 0.56735 0.0
C1976 C 0.44296 0.94619 0.56758 0.0
C1977 C 0.42949 0.94025 0.55456 0.0
H1978 H 0.46116 0.96922 0.57735 0.0
H1979 H 0.33041 0.91474 0.44994 0.0
H1980 H 0.82251 0.53937 0.23875 0.0
H1981 H 0.80216 0.56661 0.24473 0.0
H1982 H 0.84664 0.59276 0.27772 0.0
H1983 H 0.867 0.56554 0.27197 0.0
H1984 H 0.81097 0.5987 0.29104 0.0
H1985 H 0.84294 0.60387 0.23508 0.0
H1986 H 0.85127 0.59263 0.20518 0.0
H1987 H 0.79249 0.59129 0.18885 0.0
H1988 H 0.78381 0.60228 0.21876 0.0
H1989 H 0.80007 0.69805 0.28705 0.0
H1990 H 0.80979 0.66462 0.28621 0.0
H1991 H 0.76559 0.65187 0.24664 0.0
H1992 H 0.75673 0.68577 0.24676 0.0
H1993 H 0.79574 0.63615 0.23713 0.0
H1994 H 0.76416 0.63631 0.29232 0.0
H1995 H 0.75656 0.64857 0.32209 0.0
H1996 H 0.81415 0.64071 0.34005 0.0
H1997 H 0.82211 0.62843 0.31042 0.0
C1998 C 0.82783 0.55076 0.24754 0.0
C1999 C 0.84644 0.55047 0.25469 0.0
C2000 C 0.81619 0.56629 0.25094 0.0
C2001 C 0.82302 0.58176 0.26147 0.0
C2002 C 0.84113 0.58093 0.26955 0.0
C2003 C 0.85278 0.56543 0.26615 0.0
C2004 C 0.81224 0.5997 0.26257 0.0
C2005 C 0.80757 0.60694 0.2793 0.0
C2006 C 0.80748 0.61016 0.24718 0.0
C2007 C 0.81271 0.60366 0.22919 0.0
C2008 C 0.83179 0.60103 0.22514 0.0
C2009 C 0.83658 0.59473 0.2082 0.0
C2010 C 0.82242 0.59119 0.19514 0.0
C2011 C 0.80344 0.594 0.19899 0.0
C2012 C 0.79858 0.60026 0.21593 0.0
C2013 C 0.79246 0.68799 0.27826 0.0
C2014 C 0.77776 0.69419 0.26696 0.0
C2015 C 0.79782 0.66889 0.27793 0.0
C2016 C 0.7881 0.65556 0.2667 0.0
C2017 C 0.7732 0.66184 0.2555 0.0
C2018 C 0.76815 0.68111 0.25554 0.0
C2019 C 0.79455 0.63547 0.26569 0.0
C2020 C 0.79855 0.6278 0.24892 0.0
C2021 C 0.79862 0.62465 0.28108 0.0
C2022 C 0.79373 0.63149 0.2991 0.0
C2023 C 0.7752 0.6372 0.30262 0.0
C2024 C 0.77083 0.64413 0.31949 0.0
C2025 C 0.78485 0.64538 0.33298 0.0
C2026 C 0.80327 0.63963 0.32964 0.0
C2027 C 0.80771 0.63262 0.31282 0.0
H2028 H 0.78146 0.65082 0.346 0.0
H2029 H 0.82615 0.58632 0.18202 0.0
H2030 H 0.71663 0.47519 0.76061 0.0
H2031 H 0.73792 0.448 0.76362 0.0
H2032 H 0.69123 0.4124 0.77928 0.0
H2033 H 0.67002 0.43949 0.77665 0.0
H2034 H 0.72286 0.40251 0.79671 0.0
H2035 H 0.7029 0.41466 0.73607 0.0
H2036 H 0.69918 0.43424 0.70926 0.0
H2037 H 0.75951 0.44115 0.7074 0.0
H2038 H 0.76356 0.4218 0.73437 0.0
H2039 H 0.74776 0.31592 0.73952 0.0
H2040 H 0.73717 0.34898 0.74132 0.0
H2041 H 0.77551 0.35966 0.78622 0.0
H2042 H 0.78582 0.32645 0.78482 0.0
H2043 H 0.75162 0.38396 0.73984 0.0
H2044 H 0.75324 0.38737 0.81633 0.0
H2045 H 0.75293 0.36535 0.84164 0.0
H2046 H 0.72246 0.32334 0.80939 0.0
H2047 H 0.72238 0.34519 0.784 0.0
C2048 C 0.71101 0.46169 0.76512 0.0
C2049 C 0.69161 0.45938 0.76815 0.0
C2050 C 0.72317 0.44616 0.76677 0.0
C2051 C 0.71607 0.42812 0.77135 0.0
C2052 C 0.69701 0.42619 0.77569 0.0
C2053 C 0.68487 0.44168 0.7741 0.0
C2054 C 0.72776 0.41078 0.76981 0.0
C2055 C 0.72939 0.39858 0.78437 0.0
C2056 C 0.73591 0.40546 0.75357 0.0
C2057 C 0.73352 0.41701 0.73734 0.0
C2058 C 0.71536 0.42048 0.73002 0.0
C2059 C 0.71319 0.43151 0.71479 0.0
C2060 C 0.7291 0.43899 0.70667 0.0
C2061 C 0.74721 0.43539 0.71373 0.0
C2062 C 0.74945 0.42439 0.72898 0.0
C2063 C 0.75417 0.32538 0.74959 0.0
C2064 C 0.7674 0.31852 0.76219 0.0
C2065 C 0.74814 0.34429 0.75058 0.0
C2066 C 0.75531 0.35666 0.76411 0.0
C2067 C 0.76954 0.35024 0.77589 0.0
C2068 C 0.77544 0.33127 0.77504 0.0
C2069 C 0.74667 0.37564 0.76671 0.0
C2070 C 0.74556 0.38812 0.75234 0.0
C2071 C 0.73844 0.38092 0.78294 0.0
C2072 C 0.73802 0.36783 0.79823 0.0
C2073 C 0.74642 0.37346 0.81468 0.0
C2074 C 0.74632 0.36101 0.82903 0.0
C2075 C 0.73775 0.34293 0.8271 0.0
C2076 C 0.72916 0.33731 0.81085 0.0
C2077 C 0.72919 0.34972 0.79648 0.0
H2078 H 0.73772 0.3333 0.83821 0.0
H2079 H 0.72739 0.44752 0.69487 0.0
H2080 H 0.03033 0.82495 0.90468 0.0
H2081 H 0.0333 0.8509 0.92672 0.0
H2082 H 0.00667 0.88942 0.88961 0.0
H2083 H 0.00427 0.86374 0.86729 0.0
H2084 H 0.033 0.90777 0.90826 0.0
H2085 H 0.98105 0.86578 0.92105 0.0
H2086 H 0.96584 0.83468 0.92698 0.0
H2087 H 0.00179 0.82847 0.97353 0.0
H2088 H 0.01739 0.85944 0.96773 0.0
H2089 H 0.98251 0.95438 0.98766 0.0
H2090 H 0.98529 0.92764 0.96659 0.0
H2091 H 0.04542 0.93843 0.96451 0.0
H2092 H 0.04261 0.96552 0.98502 0.0
H2093 H 0.00272 0.8953 0.96553 0.0
H2094 H 0.06094 0.93058 0.92467 0.0
H2095 H 0.07208 0.96291 0.91688 0.0
H2096 H 0.01617 0.98471 0.92324 0.0
H2097 H 0.0047 0.95242 0.93088 0.0
C2098 C 0.02536 0.83903 0.90114 0.0
C2099 C 0.01682 0.84229 0.88437 0.0
C2100 C 0.02702 0.8538 0.91375 0.0
C2101 C 0.01978 0.87193 0.90993 0.0
C2102 C 0.01226 0.8755 0.89285 0.0
C2103 C 0.01087 0.8608 0.88013 0.0
C2104 C 0.01889 0.88682 0.924 0.0
C2105 C 0.02648 0.90502 0.92082 0.0
C2106 C 0.00999 0.88333 0.94022 0.0
C2107 C 0.0005 0.86482 0.94386 0.0
C2108 C 0.98578 0.85772 0.93249 0.0
C2109 C 0.97709 0.84013 0.93583 0.0
C2110 C 0.98288 0.82958 0.9506 0.0
C2111 C -0.00266 0.83664 0.96208 0.0
C2112 C 0.0061 0.85422 0.95878 0.0
C2113 C -0.00367 0.95089 0.98284 0.0
C2114 C 0.01231 0.96209 0.9878 0.0
C2115 C -0.00209 0.93565 0.9708 0.0
C2116 C 0.01549 0.93133 0.96368 0.0
C2117 C 0.03163 0.94185 0.96945 0.0
C2118 C 0.03002 0.95724 0.98124 0.0
C2119 C 0.01685 0.91626 0.94981 0.0
C2120 C 0.00939 0.89801 0.95304 0.0
C2121 C 0.02528 0.91987 0.93338 0.0
C2122 C 0.03204 0.93921 0.92857 0.0
C2123 C 0.05104 0.94228 0.92436 0.0
C2124 C 0.05741 0.96058 0.91999 0.0
C2125 C 0.04486 0.97587 0.91965 0.0
C2126 C 0.02589 0.97288 0.92361 0.0
C2127 C 0.01946 0.95461 0.928 0.0
H2128 H 0.04982 0.99002 0.91627 0.0
H2129 H 0.97614 0.81596 0.95316 0.0
H2130 H 0.98416 0.24365 0.71246 0.0
H2131 H 0.95253 0.24586 0.72413 0.0
H2132 H 0.93044 0.26183 0.67244 0.0
H2133 H 0.96232 0.26037 0.66081 0.0
H2134 H 0.91538 0.28314 0.69646 0.0
H2135 H 0.92373 0.21596 0.68935 0.0
H2136 H 0.93966 0.18494 0.69236 0.0
H2137 H 0.93696 0.1894 0.74912 0.0
H2138 H 0.92124 0.22058 0.74646 0.0
H2139 H 0.81909 0.26377 0.71857 0.0
H2140 H 0.85007 0.26265 0.70508 0.0
H2141 H 0.87707 0.25793 0.75696 0.0
H2142 H 0.84618 0.25918 0.77062 0.0
H2143 H 0.88853 0.23036 0.73147 0.0
H2144 H 0.88005 0.29871 0.73722 0.0
H2145 H 0.8628 0.32879 0.73275 0.0
H2146 H 0.86409 0.32045 0.67622 0.0
H2147 H 0.88112 0.29017 0.68037 0.0
C2148 C 0.97257 0.24756 0.70354 0.0
C2149 C 0.9757 0.25173 0.68569 0.0
C2150 C 0.95446 0.24874 0.71022 0.0
C2151 C 0.93903 0.25365 0.69908 0.0
C2152 C 0.94213 0.25796 0.68126 0.0
C2153 C 0.96033 0.25708 0.67463 0.0
C2154 C 0.91976 0.25462 0.70619 0.0
C2155 C 0.9094 0.27146 0.70387 0.0
C2156 C 0.91202 0.23948 0.71604 0.0
C2157 C 0.92145 0.2207 0.7177 0.0
C2158 C 0.92666 0.2104 0.70248 0.0
C2159 C 0.93563 0.19277 0.70412 0.0
C2160 C 0.93936 0.18523 0.72092 0.0
C2161 C 0.93408 0.19527 0.73611 0.0
C2162 C 0.92512 0.21291 0.73455 0.0
C2163 C 0.83163 0.26261 0.72713 0.0
C2164 C 0.83023 0.26156 0.74566 0.0
C2165 C 0.84929 0.26202 0.7194 0.0
C2166 C 0.86577 0.26026 0.73006 0.0
C2167 C 0.86445 0.25929 0.74855 0.0
C2168 C 0.84682 0.26008 0.75632 0.0
C2169 C 0.88441 0.2589 0.7219 0.0
C2170 C 0.89457 0.24196 0.724 0.0
C2171 C 0.8918 0.27379 0.71161 0.0
C2172 C 0.88169 0.29207 0.70911 0.0
C2173 C 0.87652 0.30321 0.72384 0.0
C2174 C 0.8668 0.32031 0.72136 0.0
C2175 C 0.8623 0.3265 0.70421 0.0
C2176 C 0.86756 0.31563 0.6895 0.0
C2177 C 0.87726 0.2985 0.69191 0.0
H2178 H 0.85478 0.33975 0.70232 0.0
H2179 H 0.9463 0.17158 0.72217 0.0
H2180 H 0.44449 0.224 0.37466 0.0
H2181 H 0.43378 0.1933 0.38656 0.0
H2182 H 0.46097 0.20784 0.43709 0.0
H2183 H 0.47155 0.2383 0.42552 0.0
H2184 H 0.47255 0.17293 0.40702 0.0
H2185 H 0.4264 0.20569 0.44551 0.0
H2186 H 0.39652 0.22254 0.45005 0.0
H2187 H 0.36548 0.17616 0.4243 0.0
H2188 H 0.39527 0.15948 0.41884 0.0
H2189 H 0.48769 0.11335 0.47662 0.0
H2190 H 0.47805 0.14087 0.45938 0.0
H2191 H 0.43074 0.10857 0.43639 0.0
H2192 H 0.43997 0.08083 0.45419 0.0
H2193 H 0.42237 0.14775 0.44518 0.0
H2194 H 0.46627 0.11226 0.41183 0.0
H2195 H 0.49528 0.09384 0.40728 0.0
H2196 H 0.52933 0.14322 0.42196 0.0
H2197 H 0.50054 0.16187 0.42689 0.0
C2198 C 0.44756 0.22092 0.38849 0.0
C2199 C 0.45916 0.23335 0.39909 0.0
C2200 C 0.44136 0.20345 0.39527 0.0
C2201 C 0.44645 0.19849 0.41273 0.0
C2202 C 0.45662 0.21162 0.42368 0.0
C2203 C 0.46281 0.22895 0.41698 0.0
C2204 C 0.44558 0.17845 0.41839 0.0
C2205 C 0.46149 0.16731 0.41521 0.0
C2206 C 0.43086 0.17103 0.42859 0.0
C2207 C 0.41313 0.18156 0.43134 0.0
C2208 C 0.41328 0.19933 0.44035 0.0
C2209 C 0.39633 0.20884 0.44316 0.0
C2210 C 0.37911 0.20053 0.43731 0.0
C2211 C 0.37882 0.18271 0.42865 0.0
C2212 C 0.39574 0.17327 0.42561 0.0
C2213 C 0.47495 0.11215 0.46827 0.0
C2214 C 0.46461 0.09487 0.46677 0.0
C2215 C 0.46957 0.12786 0.45829 0.0
C2216 C 0.45387 0.12661 0.44646 0.0
C2217 C 0.44296 0.10972 0.44541 0.0
C2218 C 0.44835 0.09389 0.45546 0.0
C2219 C 0.44986 0.14278 0.4346 0.0
C2220 C 0.43314 0.15311 0.43654 0.0
C2221 C 0.4638 0.14949 0.42311 0.0
C2222 C 0.48121 0.13846 0.41978 0.0
C2223 C 0.47994 0.11918 0.41417 0.0
C2224 C 0.49635 0.10869 0.41152 0.0
C2225 C 0.51413 0.11735 0.41434 0.0
C2226 C 0.51554 0.13654 0.41977 0.0
C2227 C 0.49918 0.14709 0.42246 0.0
H2228 H 0.52682 0.1092 0.41232 0.0
H2229 H 0.36599 0.20785 0.43958 0.0
H2230 H 0.59033 0.76174 0.14058 0.0
H2231 H 0.62093 0.75911 0.15646 0.0
H2232 H 0.59343 0.76548 0.20645 0.0
H2233 H 0.56292 0.76848 0.19071 0.0
H2234 H 0.62581 0.78558 0.20666 0.0
H2235 H 0.60539 0.72147 0.19051 0.0
H2236 H 0.59451 0.69558 0.16987 0.0
H2237 H 0.64579 0.70093 0.14127 0.0
H2238 H 0.65686 0.72705 0.1616 0.0
H2239 H 0.69654 0.74886 0.26459 0.0
H2240 H 0.66671 0.75121 0.2474 0.0
H2241 H 0.69716 0.74979 0.19874 0.0
H2242 H 0.72704 0.74746 0.21578 0.0
H2243 H 0.66396 0.72738 0.19723 0.0
H2244 H 0.68446 0.79118 0.21377 0.0
H2245 H 0.69538 0.81681 0.23466 0.0
H2246 H 0.64375 0.81175 0.26277 0.0
H2247 H 0.63265 0.78585 0.2422 0.0
C2248 C 0.59085 0.76276 0.15494 0.0
C2249 C 0.57423 0.76517 0.16441 0.0
C2250 C 0.6083 0.76116 0.16399 0.0
C2251 C 0.60937 0.76178 0.18263 0.0
C2252 C 0.5929 0.7649 0.19206 0.0
C2253 C 0.57547 0.76657 0.18304 0.0
C2254 C 0.62755 0.75873 0.19241 0.0
C2255 C 0.63404 0.77276 0.20474 0.0
C2256 C 0.63845 0.74215 0.18963 0.0
C2257 C 0.63187 0.72635 0.17747 0.0
C2258 C 0.61428 0.71723 0.17974 0.0
C2259 C 0.60809 0.7025 0.16811 0.0
C2260 C 0.61943 0.69666 0.15424 0.0
C2261 C 0.63701 0.70549 0.152 0.0
C2262 C 0.64326 0.72025 0.16358 0.0
C2263 C 0.69687 0.7488 0.25023 0.0
C2264 C 0.71413 0.74813 0.24154 0.0
C2265 C 0.67984 0.75022 0.24045 0.0
C2266 C 0.67983 0.7509 0.22184 0.0
C2267 C 0.69694 0.74934 0.2131 0.0
C2268 C 0.71397 0.74808 0.22286 0.0
C2269 C 0.66206 0.75415 0.21154 0.0
C2270 C 0.6557 0.74019 0.19911 0.0
C2271 C 0.65124 0.77076 0.21425 0.0
C2272 C 0.65781 0.78644 0.22655 0.0
C2273 C 0.6755 0.79542 0.22449 0.0
C2274 C 0.68172 0.81001 0.23626 0.0
C2275 C 0.67029 0.81587 0.25006 0.0
C2276 C 0.6526 0.80718 0.25209 0.0
C2277 C 0.64634 0.79255 0.24037 0.0
H2278 H 0.67512 0.82717 0.25916 0.0
H2279 H 0.61462 0.68526 0.14524 0.0
H2280 H 0.012 0.21217 0.606 0.0
H2281 H 0.0111 0.18369 0.58665 0.0
H2282 H 0.05055 0.15585 0.62233 0.0
H2283 H 0.05147 0.18416 0.64181 0.0
H2284 H 0.05908 0.15129 0.58627 0.0
H2285 H 0.00642 0.14449 0.62487 0.0
H2286 H 0.97709 0.1546 0.63893 0.0
H2287 H 0.94903 0.15792 0.58768 0.0
H2288 H 0.97831 0.14809 0.57329 0.0
H2289 H 0.01462 0.05162 0.56621 0.0
H2290 H 0.01695 0.08182 0.58274 0.0
H2291 H 0.03659 0.11019 0.53624 0.0
H2292 H 0.03436 0.07984 0.51946 0.0
H2293 H -0.00141 0.11519 0.57687 0.0
H2294 H 0.06874 0.14549 0.55168 0.0
H2295 H 0.09854 0.13396 0.5394 0.0
H2296 H 0.09242 0.08106 0.56699 0.0
H2297 H 0.06275 0.09237 0.57962 0.0
C2298 C 0.02055 0.20002 0.60969 0.0
C2299 C 0.03172 0.20036 0.62549 0.0
C2300 C 0.02 0.18378 0.59864 0.0
C2301 C 0.03072 0.16771 0.60313 0.0
C2302 C 0.04221 0.16816 0.61865 0.0
C2303 C 0.04262 0.18429 0.62981 0.0
C2304 C 0.02945 0.15012 0.592 0.0
C2305 C 0.04585 0.14344 0.5841 0.0
C2306 C 0.01221 0.13984 0.58938 0.0
C2307 C -0.00539 0.14578 0.598 0.0
C2308 C 0.99405 0.14756 0.61659 0.0
C2309 C 0.97743 0.1532 0.62462 0.0
C2310 C 0.96123 0.15696 0.6142 0.0
C2311 C 0.96161 0.15504 0.59573 0.0
C2312 C 0.9782 0.14943 0.58763 0.0
C2313 C 0.01949 0.06424 0.55945 0.0
C2314 C 0.02433 0.06333 0.5415 0.0
C2315 C 0.02072 0.08151 0.56892 0.0
C2316 C 0.02696 0.09819 0.56072 0.0
C2317 C 0.03186 0.0974 0.54282 0.0
C2318 C 0.03055 0.08009 0.53327 0.0
C2319 C 0.02822 0.11634 0.57106 0.0
C2320 C 0.01179 0.12316 0.57882 0.0
C2321 C 0.04548 0.12658 0.57374 0.0
C2322 C 0.06342 0.1197 0.56641 0.0
C2323 C 0.07379 0.13142 0.55516 0.0
C2324 C 0.09065 0.12492 0.54814 0.0
C2325 C 0.09733 0.10676 0.55236 0.0
C2326 C 0.0872 0.09509 0.56367 0.0
C2327 C 0.07034 0.10153 0.57074 0.0
H2328 H 0.11038 0.10175 0.5469 0.0
H2329 H 0.94837 0.16132 0.62044 0.0
H2330 H 0.55689 0.25741 0.35974 0.0
H2331 H 0.58503 0.26666 0.34383 0.0
H2332 H 0.54987 0.28632 0.30015 0.0
H2333 H 0.52151 0.27738 0.31609 0.0
H2334 H 0.5859 0.26461 0.29196 0.0
H2335 H 0.56193 0.31887 0.32427 0.0
H2336 H 0.54931 0.33428 0.35098 0.0
H2337 H 0.6008 0.32233 0.3803 0.0
H2338 H 0.61359 0.30651 0.35385 0.0
H2339 H 0.6676 0.30686 0.25921 0.0
H2340 H 0.63453 0.3075 0.26794 0.0
H2341 H 0.65237 0.29774 0.32233 0.0
H2342 H 0.68523 0.29737 0.31379 0.0
H2343 H 0.62141 0.31878 0.32137 0.0
H2344 H 0.64306 0.26047 0.29334 0.0
H2345 H 0.65658 0.24169 0.26896 0.0
H2346 H 0.61076 0.25818 0.23385 0.0
H2347 H 0.59714 0.27732 0.25799 0.0
C2348 C 0.55512 0.26326 0.34658 0.0
C2349 C 0.53703 0.2669 0.33923 0.0
C2350 C 0.57118 0.26859 0.33756 0.0
C2351 C 0.56937 0.2774 0.32102 0.0
C2352 C 0.55142 0.27961 0.31297 0.0
C2353 C 0.53531 0.2745 0.32208 0.0
C2354 C 0.58621 0.28574 0.31302 0.0
C2355 C 0.59348 0.27675 0.29806 0.0
C2356 C 0.59609 0.30134 0.32131 0.0
C2357 C 0.58867 0.31139 0.33709 0.0
C2358 C 0.57052 0.31942 0.33644 0.0
C2359 C 0.56333 0.32823 0.35154 0.0
C2360 C 0.57423 0.32924 0.36734 0.0
C2361 C 0.59237 0.32152 0.36805 0.0
C2362 C 0.5996 0.31265 0.353 0.0
C2363 C 0.66444 0.30541 0.27309 0.0
C2364 C 0.67891 0.30181 0.28579 0.0
C2365 C 0.64559 0.30577 0.27805 0.0
C2366 C 0.64102 0.3022 0.2957 0.0
C2367 C 0.65559 0.30049 0.30864 0.0
C2368 C 0.6744 0.30031 0.30373 0.0
C2369 C 0.6214 0.29745 0.3004 0.0
C2370 C 0.61359 0.30705 0.31485 0.0
C2371 C 0.61117 0.28216 0.29183 0.0
C2372 C 0.61922 0.2705 0.27738 0.0
C2373 C 0.63594 0.26018 0.28039 0.0
C2374 C 0.64362 0.24947 0.26662 0.0
C2375 C 0.63457 0.24879 0.24985 0.0
C2376 C 0.61779 0.25877 0.24684 0.0
C2377 C 0.61009 0.26955 0.26055 0.0
H2378 H 0.64053 0.24048 0.23921 0.0
H2379 H 0.56865 0.33605 0.37901 0.0
H2380 H 0.51935 0.79384 0.08073 0.0
H2381 H 0.51889 0.82293 0.06305 0.0
H2382 H 0.49562 0.85422 0.10684 0.0
H2383 H 0.49597 0.82524 0.12457 0.0
H2384 H 0.47948 0.86457 0.07472 0.0
H2385 H 0.54176 0.85606 0.10131 0.0
H2386 H 0.57118 0.83856 0.10785 0.0
H2387 H 0.58224 0.83532 0.0522 0.0
H2388 H 0.55271 0.85257 0.04532 0.0
H2389 H 0.53579 0.95592 0.05343 0.0
H2390 H 0.53319 0.9248 0.06756 0.0
H2391 H 0.49589 0.90456 0.02466 0.0
H2392 H 0.4984 0.93566 0.01039 0.0
H2393 H 0.54195 0.88844 0.05572 0.0
H2394 H 0.46174 0.87632 0.04396 0.0
H2395 H 0.43294 0.89536 0.03902 0.0
H2396 H 0.45864 0.94249 0.06848 0.0
H2397 H 0.48748 0.92364 0.0738 0.0
C2398 C 0.51386 0.80684 0.0865 0.0
C2399 C 0.50785 0.8073 0.1041 0.0
C2400 C 0.51366 0.82345 0.0764 0.0
C2401 C 0.50742 0.84075 0.08373 0.0
C2402 C 0.5005 0.84101 0.10095 0.0
C2403 C 0.50078 0.82445 0.11108 0.0
C2404 C 0.50932 0.85888 0.07398 0.0
C2405 C 0.4931 0.86973 0.07045 0.0
C2406 C 0.52716 0.86573 0.06867 0.0
C2407 C 0.54493 0.8554 0.07279 0.0
C2408 C 0.55038 0.85147 0.09046 0.0
C2409 C 0.56709 0.84162 0.09423 0.0
C2410 C 0.57854 0.83578 0.08044 0.0
C2411 C 0.57333 0.83982 0.06286 0.0
C2412 C 0.55662 0.84963 0.05902 0.0
C2413 C 0.52705 0.94485 0.04698 0.0
C2414 C 0.51719 0.94829 0.03086 0.0
C2415 C 0.52566 0.92707 0.05502 0.0
C2416 C 0.51425 0.91248 0.04721 0.0
C2417 C 0.50463 0.91573 0.03097 0.0
C2418 C 0.50609 0.93349 0.02285 0.0
C2419 C 0.5121 0.89403 0.05632 0.0
C2420 C 0.52828 0.88315 0.05977 0.0
C2421 C 0.49429 0.88732 0.06179 0.0
C2422 C 0.47684 0.89862 0.05909 0.0
C2423 C 0.46121 0.89071 0.04945 0.0
C2424 C 0.44488 0.90148 0.04657 0.0
C2425 C 0.444 0.92015 0.05336 0.0
C2426 C 0.45938 0.92806 0.06316 0.0
C2427 C 0.47572 0.91734 0.06609 0.0
H2428 H 0.43138 0.92848 0.05105 0.0
H2429 H 0.59148 0.82816 0.08339 0.0
H2430 H 0.94603 0.77383 0.87846 0.0
H2431 H 0.91422 0.76066 0.88133 0.0
H2432 H 0.89665 0.78705 0.83223 0.0
H2433 H 0.92854 0.80034 0.82917 0.0
H2434 H 0.86776 0.78509 0.8589 0.0
H2435 H 0.91533 0.74301 0.82929 0.0
H2436 H 0.94622 0.72695 0.83163 0.0
H2437 H 0.92962 0.6999 0.8796 0.0
H2438 H 0.89866 0.71587 0.87751 0.0
H2439 H 0.82893 0.72399 0.79004 0.0
H2440 H 0.85513 0.7268 0.81163 0.0
H2441 H 0.8159 0.73372 0.85383 0.0
H2442 H 0.78949 0.73139 0.83216 0.0
H2443 H 0.87095 0.71591 0.84335 0.0
H2444 H 0.83103 0.77319 0.87746 0.0
H2445 H 0.80071 0.79031 0.87533 0.0
H2446 H 0.80228 0.78816 0.81848 0.0
H2447 H 0.83273 0.77132 0.82025 0.0
C2448 C 0.93532 0.77723 0.86843 0.0
C2449 C 0.9399 0.78775 0.85332 0.0
C2450 C 0.91713 0.76976 0.8702 0.0
C2451 C 0.90326 0.77268 0.85688 0.0
C2452 C 0.90726 0.78466 0.84265 0.0
C2453 C 0.92549 0.79216 0.84085 0.0
C2454 C 0.88585 0.76084 0.85595 0.0
C2455 C 0.86833 0.76991 0.85581 0.0
C2456 C 0.88664 0.74092 0.85255 0.0
C2457 C 0.90477 0.73058 0.85325 0.0
C2458 C 0.91828 0.73355 0.84027 0.0
C2459 C 0.93579 0.72451 0.84157 0.0
C2460 C 0.93987 0.7124 0.85575 0.0
C2461 C 0.92642 0.70924 0.8686 0.0
C2462 C 0.90888 0.71824 0.86735 0.0
C2463 C 0.82579 0.72523 0.80398 0.0
C2464 C 0.80722 0.72822 0.80934 0.0
C2465 C 0.84083 0.72679 0.81637 0.0
C2466 C 0.83743 0.73118 0.83423 0.0
C2467 C 0.8188 0.73079 0.84003 0.0
C2468 C 0.80372 0.72943 0.82761 0.0
C2469 C 0.85286 0.74042 0.84513 0.0
C2470 C 0.87012 0.73089 0.84719 0.0
C2471 C 0.8518 0.75997 0.85036 0.0
C2472 C 0.83398 0.77083 0.84901 0.0
C2473 C 0.82493 0.77651 0.86451 0.0
C2474 C 0.80776 0.78618 0.86335 0.0
C2475 C 0.79959 0.79038 0.84675 0.0
C2476 C 0.80867 0.78501 0.83129 0.0
C2477 C 0.82588 0.77541 0.83236 0.0
H2478 H 0.78623 0.79777 0.84587 0.0
H2479 H 0.95346 0.70548 0.85678 0.0
H2480 H 0.90293 0.03542 0.83484 0.0
H2481 H 0.91175 0.04188 0.86601 0.0
H2482 H 0.96532 0.01441 0.85892 0.0
H2483 H 0.95667 0.00784 0.82774 0.0
H2484 H 0.94641 0.0012 0.88784 0.0
H2485 H 0.96459 0.06125 0.86273 0.0
H2486 H 0.95967 0.09043 0.84529 0.0
H2487 H 0.91565 0.10772 0.87978 0.0
H2488 H 0.92013 0.07849 0.8973 0.0
H2489 H -0.00063 0.04999 0.96241 0.0
H2490 H 0.98471 0.05351 0.93292 0.0
H2491 H 0.93525 0.02262 0.94936 0.0
H2492 H 0.94985 0.01892 0.97897 0.0
H2493 H 0.95086 0.06584 0.91608 0.0
H2494 H 0.92844 0.98653 0.9165 0.0
H2495 H 0.93464 0.95777 0.93426 0.0
H2496 H 0.99021 0.97937 0.94878 0.0
H2497 H 0.9847 0.00777 0.93041 0.0
C2498 C 0.91666 0.03088 0.83987 0.0
C2499 C 0.9291 0.02106 0.82885 0.0
C2500 C 0.92167 0.03464 0.85765 0.0
C2501 C 0.93916 0.02862 0.86467 0.0
C2502 C 0.95173 0.01911 0.85367 0.0
C2503 C 0.9468 0.01545 0.83587 0.0
C2504 C 0.94406 0.03153 0.8837 0.0
C2505 C 0.94732 0.01532 0.89403 0.0
C2506 C 0.94524 0.04997 0.89167 0.0
C2507 C 0.94256 0.06758 0.88121 0.0
C2508 C 0.95375 0.07119 0.8665 0.0
C2509 C 0.95106 0.08776 0.85662 0.0
C2510 C 0.93732 0.10089 0.86139 0.0
C2511 C 0.92627 0.09752 0.87609 0.0
C2512 C 0.92889 0.08096 0.886 0.0
C2513 C 0.98516 0.04438 0.95991 0.0
C2514 C 0.97592 0.03377 0.97281 0.0
C2515 C 0.97675 0.04657 0.9431 0.0
C2516 C 0.95909 0.03804 0.93897 0.0
C2517 C 0.94898 0.02915 0.95235 0.0
C2518 C 0.95736 0.02702 0.96922 0.0
C2519 C 0.95303 0.03552 0.92019 0.0
C2520 C 0.94965 0.05173 0.90991 0.0
C2521 C 0.95198 0.01707 0.91216 0.0
C2522 C 0.95601 -0.00056 0.9223 0.0
C2523 C 0.94206 0.98503 0.92331 0.0
C2524 C 0.94548 0.96876 0.93343 0.0
C2525 C 0.9628 0.96675 0.94264 0.0
C2526 C 0.97682 0.98091 0.94159 0.0
C2527 C 0.97358 -0.00294 0.93126 0.0
H2528 H 0.96535 0.95422 0.95057 0.0
H2529 H 0.93526 0.11372 0.85373 0.0
H2530 H 0.7764 0.16113 0.5415 0.0
H2531 H 0.77476 0.18166 0.56802 0.0
H2532 H 0.72822 0.14757 0.58625 0.0
H2533 H 0.72988 0.12681 0.55993 0.0
H2534 H 0.72293 0.18865 0.58776 0.0
H2535 H 0.76786 0.14038 0.60519 0.0
H2536 H 0.79651 0.12105 0.60191 0.0
H2537 H 0.83092 0.17216 0.60348 0.0
H2538 H 0.80242 0.19181 0.60651 0.0
H2539 H 0.72065 0.2194 0.67802 0.0
H2540 H 0.7205 0.20268 0.64939 0.0
H2541 H 0.77488 0.22788 0.63865 0.0
H2542 H 0.77586 0.2434 0.66773 0.0
H2543 H 0.77613 0.19196 0.63234 0.0
H2544 H 0.73225 0.24065 0.61608 0.0
H2545 H 0.704 0.26071 0.61863 0.0
H2546 H 0.66817 0.21072 0.61386 0.0
H2547 H 0.69622 0.19031 0.61152 0.0
C2548 C 0.76584 0.15798 0.55117 0.0
C2549 C 0.75332 0.14231 0.54868 0.0
C2550 C 0.76493 0.16971 0.56627 0.0
C2551 C 0.75137 0.16606 0.579 0.0
C2552 C 0.73874 0.15058 0.5765 0.0
C2553 C 0.73981 0.13868 0.56153 0.0
C2554 C 0.75057 0.17825 0.59511 0.0
C2555 C 0.73444 0.18931 0.59764 0.0
C2556 C 0.76584 0.17937 0.60765 0.0
C2557 C 0.78299 0.16757 0.60587 0.0
C2558 C 0.78152 0.1475 0.60466 0.0
C2559 C 0.79773 0.13649 0.60288 0.0
C2560 C 0.81552 0.14538 0.60243 0.0
C2561 C 0.81713 0.1653 0.6038 0.0
C2562 C 0.80095 0.17638 0.60556 0.0
C2563 C 0.73259 0.22141 0.66958 0.0
C2564 C 0.74832 0.23269 0.67533 0.0
C2565 C 0.73235 0.21204 0.65307 0.0
C2566 C 0.74764 0.21411 0.64178 0.0
C2567 C 0.76293 0.22605 0.64713 0.0
C2568 C 0.76333 0.23515 0.66373 0.0
C2569 C 0.74846 0.20264 0.62511 0.0
C2570 C 0.76461 0.19157 0.62246 0.0
C2571 C 0.73326 0.2017 0.61239 0.0
C2572 C 0.71636 0.21393 0.61379 0.0
C2573 C 0.71835 0.23391 0.61572 0.0
C2574 C 0.70237 0.24535 0.6171 0.0
C2575 C 0.68431 0.23699 0.61645 0.0
C2576 C 0.68217 0.21717 0.61438 0.0
C2577 C 0.69811 0.20567 0.613 0.0
H2578 H 0.67195 0.24588 0.61752 0.0
H2579 H 0.82806 0.13682 0.60106 0.0
H2580 H 0.62769 0.98425 0.33637 0.0
H2581 H 0.61379 0.98309 0.36566 0.0
H2582 H 0.56381 0.01085 0.34491 0.0
H2583 H 0.5775 0.01213 0.31567 0.0
H2584 H 0.57858 0.02782 0.37587 0.0
H2585 H 0.56225 0.96432 0.35321 0.0
H2586 H 0.56923 0.93252 0.34059 0.0
H2587 H 0.60523 0.92064 0.38599 0.0
H2588 H 0.59866 0.9525 0.39878 0.0
H2589 H 0.51482 0.01864 0.444 0.0
H2590 H 0.53009 0.01572 0.41555 0.0
H2591 H 0.57465 0.98263 0.44009 0.0
H2592 H 0.5591 0.98498 0.46857 0.0
H2593 H 0.5651 0.96817 0.40829 0.0
H2594 H 0.58159 0.03028 0.43166 0.0
H2595 H 0.57569 0.06203 0.44495 0.0
H2596 H 0.54148 0.0768 0.39916 0.0
H2597 H 0.54703 0.04506 0.38568 0.0
C2598 C 0.61368 0.98998 0.338 0.0
C2599 C 0.60372 -0.00167 0.32369 0.0
C2600 C 0.60576 0.98926 0.35473 0.0
C2601 C 0.58779 -0.00314 0.35737 0.0
C2602 C 0.57773 0.00495 0.34309 0.0
C2603 C 0.58556 0.0056 0.32638 0.0
C2604 C 0.57963 -0.00297 0.37515 0.0
C2605 C 0.57544 0.01478 0.3829 0.0
C2606 C 0.57621 0.98003 0.38452 0.0
C2607 C 0.58012 0.96087 0.37686 0.0
C2608 C 0.57178 0.95499 0.36043 0.0
C2609 C 0.57564 0.93695 0.35326 0.0
C2610 C 0.58771 0.92459 0.36246 0.0
C2611 C 0.59591 0.93024 0.37887 0.0
C2612 C 0.59211 0.94828 0.38609 0.0
C2613 C 0.5278 0.01063 0.44332 0.0
C2614 C 0.53586 0.00216 0.45852 0.0
C2615 C 0.53656 0.00905 0.42708 0.0
C2616 C 0.55372 -0.00068 0.42582 0.0
C2617 C 0.56146 0.99028 0.44083 0.0
C2618 C 0.55258 0.99166 0.45706 0.0
C2619 C 0.56368 -0.00104 0.40887 0.0
C2620 C 0.56832 0.98122 0.40132 0.0
C2621 C 0.56776 0.016 0.39976 0.0
C2622 C 0.56461 0.03523 0.40772 0.0
C2623 C 0.57273 0.04027 0.42446 0.0
C2624 C 0.56946 0.05827 0.43203 0.0
C2625 C 0.55818 0.07141 0.42293 0.0
C2626 C 0.55021 0.06661 0.40621 0.0
C2627 C 0.55344 0.04862 0.39858 0.0
H2628 H 0.55563 0.08533 0.42881 0.0
H2629 H 0.59068 0.91062 0.35689 0.0
H2630 H 0.76507 0.81652 0.05041 0.0
H2631 H 0.78684 0.7957 0.06705 0.0
H2632 H 0.78509 0.83412 0.11231 0.0
H2633 H 0.76333 0.85469 0.09603 0.0
H2634 H 0.82252 0.82082 0.10412 0.0
H2635 H 0.75638 0.79715 0.1112 0.0
H2636 H 0.72642 0.78344 0.09861 0.0
H2637 H 0.7567 0.73697 0.07536 0.0
H2638 H 0.78686 0.75056 0.08769 0.0
H2639 H 0.81162 0.79971 0.18968 0.0
H2640 H 0.81645 0.80736 0.159 0.0
H2641 H 0.82115 0.7473 0.14586 0.0
H2642 H 0.81623 0.73947 0.17696 0.0
H2643 H 0.79381 0.76163 0.12744 0.0
H2644 H 0.8572 0.77991 0.13432 0.0
H2645 H 0.88642 0.79373 0.14823 0.0
H2646 H 0.86286 0.84996 0.14541 0.0
H2647 H 0.83339 0.83651 0.13177 0.0
C2648 C 0.76938 0.82048 0.06391 0.0
C2649 C 0.76239 0.83711 0.07202 0.0
C2650 C 0.78188 0.80868 0.0733 0.0
C2651 C 0.78768 0.81357 0.09077 0.0
C2652 C 0.78094 0.8303 0.09873 0.0
C2653 C 0.76832 0.84189 0.08949 0.0
C2654 C 0.79932 0.80067 0.10175 0.0
C2655 C 0.81654 0.80769 0.10914 0.0
C2656 C 0.79191 0.78308 0.10751 0.0
C2657 C 0.77383 0.77497 0.10014 0.0
C2658 C 0.75663 0.78408 0.10329 0.0
C2659 C 0.73963 0.77633 0.09623 0.0
C2660 C 0.73966 0.75938 0.08614 0.0
C2661 C 0.7567 0.75013 0.08313 0.0
C2662 C 0.77375 0.75785 0.09015 0.0
C2663 C 0.81451 0.78812 0.1805 0.0
C2664 C 0.81326 0.76896 0.18571 0.0
C2665 C 0.8174 0.79253 0.16285 0.0
C2666 C 0.81928 0.77791 0.15005 0.0
C2667 C 0.81976 0.75881 0.15551 0.0
C2668 C 0.8168 0.75436 0.17323 0.0
C2669 C 0.81634 0.78264 0.13107 0.0
C2670 C 0.80068 0.77408 0.12197 0.0
C2671 C 0.82529 0.79879 0.12376 0.0
C2672 C 0.84305 0.80715 0.13191 0.0
C2673 C 0.8582 0.79522 0.13672 0.0
C2674 C 0.87482 0.803 0.14457 0.0
C2675 C 0.8765 0.82271 0.14767 0.0
C2676 C 0.86156 0.83469 0.14294 0.0
C2677 C 0.84491 0.827 0.13509 0.0
H2678 H 0.88938 0.8287 0.15376 0.0
H2679 H 0.72648 0.75339 0.08069 0.0
H2680 H 0.93014 0.03134 0.73291 0.0
H2681 H 0.94649 0.02436 0.7055 0.0
H2682 H 0.90186 0.9847 0.68896 0.0
H2683 H 0.88528 0.99174 0.71629 0.0
H2684 H 0.93944 0.96993 0.68729 0.0
H2685 H 0.90343 0.02426 0.66833 0.0
H2686 H 0.89156 0.0572 0.67054 0.0
H2687 H 0.94842 0.07938 0.66951 0.0
H2688 H 0.96066 0.04654 0.66755 0.0
H2689 H 0.97228 0.95686 0.599 0.0
H2690 H 0.95507 0.96067 0.62631 0.0
H2691 H 0.98972 0.01006 0.64094 0.0
H2692 H 0.0057 0.00751 0.61314 0.0
H2693 H 0.95503 0.01894 0.643 0.0
H2694 H 0.99182 0.96571 0.66323 0.0
H2695 H 0.00477 0.93314 0.66204 0.0
H2696 H 0.94853 0.90922 0.66193 0.0
H2697 H 0.93522 0.94166 0.66289 0.0
C2698 C 0.92369 0.02133 0.72333 0.0
C2699 C 0.90646 0.01208 0.7267 0.0
C2700 C 0.93303 0.01735 0.70772 0.0
C2701 C 0.92533 0.00402 0.69532 0.0
C2702 C 0.90798 0.99501 0.69846 0.0
C2703 C 0.8985 -0.00086 0.71399 0.0
C2704 C 0.9358 -0.00086 0.67932 0.0
C2705 C 0.94267 0.9805 0.67741 0.0
C2706 C 0.94031 0.01315 0.66681 0.0
C2707 C 0.93297 0.03292 0.66796 0.0
C2708 C 0.91342 0.03615 0.66873 0.0
C2709 C 0.90662 0.05481 0.6699 0.0
C2710 C 0.91923 0.07037 0.6702 0.0
C2711 C 0.93867 0.06731 0.66929 0.0
C2712 C 0.94554 0.04868 0.66813 0.0
C2713 C 0.97629 0.96852 0.60803 0.0
C2714 C 0.99026 0.98201 0.60361 0.0
C2715 C 0.9666 0.97051 0.62379 0.0
C2716 C 0.97108 0.98569 0.63566 0.0
C2717 C 0.98594 -0.0017 0.63191 0.0
C2718 C -0.00469 -0.00339 0.61603 0.0
C2719 C 0.9592 0.98974 0.65106 0.0
C2720 C 0.9519 0.00825 0.65282 0.0
C2721 C 0.95454 0.97565 0.66353 0.0
C2722 C 0.96252 0.95613 0.66294 0.0
C2723 C 0.98221 0.95351 0.6628 0.0
C2724 C 0.98961 0.93507 0.6622 0.0
C2725 C 0.97748 0.91912 0.66186 0.0
C2726 C 0.95791 0.92158 0.66217 0.0
C2727 C 0.95043 0.94 0.66275 0.0
H2728 H 0.98325 0.90486 0.66139 0.0
H2729 H 0.91394 0.08481 0.67111 0.0
H2730 H 0.78851 0.18543 0.46537 0.0
H2731 H 0.79286 0.20815 0.44138 0.0
H2732 H 0.77586 0.16431 0.4029 0.0
H2733 H 0.77236 0.14145 0.42665 0.0
H2734 H 0.80209 0.18416 0.38984 0.0
H2735 H 0.74457 0.19895 0.41939 0.0
H2736 H 0.72523 0.20755 0.4449 0.0
H2737 H 0.7573 0.25975 0.45282 0.0
H2738 H 0.77699 0.25133 0.42747 0.0
H2739 H 0.74661 0.251 0.33047 0.0
H2740 H 0.75046 0.23805 0.36032 0.0
H2741 H 0.81118 0.24211 0.35667 0.0
H2742 H 0.80737 0.25416 0.3265 0.0
H2743 H 0.76595 0.24454 0.39224 0.0
H2744 H 0.83052 0.20139 0.37042 0.0
H2745 H 0.84486 0.19048 0.34265 0.0
H2746 H 0.79026 0.19017 0.31593 0.0
H2747 H 0.77559 0.20078 0.34359 0.0
C2748 C 0.786 0.18061 0.45176 0.0
C2749 C 0.77998 0.16172 0.44786 0.0
C2750 C 0.78838 0.19362 0.43808 0.0
C2751 C 0.78433 0.18805 0.42036 0.0
C2752 C 0.77908 0.16896 0.41646 0.0
C2753 C 0.77704 0.1559 0.43006 0.0
C2754 C 0.78458 0.20211 0.40583 0.0
C2755 C 0.79435 0.19745 0.39047 0.0
C2756 C 0.7742 0.21931 0.40648 0.0
C2757 C 0.76238 0.22441 0.42169 0.0
C2758 C 0.74758 0.2122 0.42666 0.0
C2759 C 0.73655 0.21704 0.44107 0.0
C2760 C 0.74008 0.23415 0.45052 0.0
C2761 C 0.75461 0.24648 0.44552 0.0
C2762 C 0.76571 0.24168 0.43113 0.0
C2763 C 0.76075 0.24963 0.33626 0.0
C2764 C 0.7767 0.25317 0.32615 0.0
C2765 C 0.76295 0.24228 0.35332 0.0
C2766 C 0.78112 0.23866 0.3605 0.0
C2767 C 0.79704 0.24437 0.35119 0.0
C2768 C 0.79485 0.25127 0.334 0.0
C2769 C 0.7833 0.22645 0.37629 0.0
C2770 C 0.77403 0.23145 0.39182 0.0
C2771 C 0.79342 0.2091 0.37555 0.0
C2772 C 0.80202 0.20209 0.35901 0.0
C2773 C 0.82158 0.19889 0.35863 0.0
C2774 C 0.82976 0.19277 0.34291 0.0
C2775 C 0.81849 0.18971 0.32752 0.0
C2776 C 0.79899 0.1926 0.32784 0.0
C2777 C 0.79074 0.19866 0.34354 0.0
H2778 H 0.82487 0.18506 0.31535 0.0
H2779 H 0.73152 0.23789 0.46167 0.0
H2780 H 0.60701 0.99058 0.23206 0.0
H2781 H 0.59601 -0.00228 0.20196 0.0
H2782 H 0.6537 -0.00137 0.18488 0.0
H2783 H 0.66488 0.99212 0.21526 0.0
H2784 H 0.63599 0.02843 0.17252 0.0
H2785 H 0.6225 0.96167 0.1726 0.0
H2786 H 0.61008 0.93111 0.18363 0.0
H2787 H 0.55357 0.95289 0.18066 0.0
H2788 H 0.56567 0.98368 0.16985 0.0
H2789 H 0.60028 0.02158 0.0799 0.0
H2790 H 0.61724 0.01785 0.10847 0.0
H2791 H 0.56641 0.03127 0.13589 0.0
H2792 H 0.54952 0.03574 0.10749 0.0
H2793 H 0.58327 0.99298 0.14123 0.0
H2794 H 0.59852 0.06068 0.14196 0.0
H2795 H 0.61206 0.09025 0.12991 0.0
H2796 H 0.66695 0.06469 0.12961 0.0
H2797 H 0.65368 0.03484 0.14142 0.0
C2798 C 0.61735 0.99201 0.22185 0.0
C2799 C 0.6368 0.9908 0.22599 0.0
C2800 C 0.61104 -0.00396 0.20462 0.0
C2801 C 0.62403 -0.00148 0.19112 0.0
C2802 C 0.64345 -0.00321 0.19511 0.0
C2803 C 0.6498 0.99298 0.21243 0.0
C2804 C 0.61724 0.00385 0.17309 0.0
C2805 C 0.6247 0.02047 0.16553 0.0
C2806 C 0.60239 0.99357 0.16404 0.0
C2807 C 0.59502 0.97505 0.17053 0.0
C2808 C 0.60744 0.96 0.17442 0.0
C2809 C 0.60045 0.94262 0.18062 0.0
C2810 C 0.58105 0.94007 0.18288 0.0
C2811 C 0.56859 0.95489 0.17891 0.0
C2812 C 0.57551 0.9723 0.17273 0.0
C2813 C 0.59291 0.02447 0.092 0.0
C2814 C 0.57348 0.02864 0.09147 0.0
C2815 C 0.6026 0.02224 0.10829 0.0
C2816 C 0.59295 0.0241 0.12416 0.0
C2817 C 0.57399 0.02968 0.1237 0.0
C2818 C 0.56438 0.03213 0.10749 0.0
C2819 C 0.60171 0.01771 0.141 0.0
C2820 C 0.59466 0.0008 0.14823 0.0
C2821 C 0.61709 0.02753 0.14953 0.0
C2822 C 0.62506 0.04544 0.14236 0.0
C2823 C 0.61344 0.06128 0.13913 0.0
C2824 C 0.62107 0.07811 0.1324 0.0
C2825 C 0.64034 0.07933 0.12894 0.0
C2826 C 0.65202 0.06372 0.13226 0.0
C2827 C 0.64445 0.04684 0.13899 0.0
H2828 H 0.64623 0.09238 0.12374 0.0
H2829 H 0.57567 0.92661 0.18767 0.0
H2830 H 0.70898 0.90181 0.97019 0.0
H2831 H 0.71063 0.88724 0.94067 0.0
H2832 H 0.75718 0.85253 0.95892 0.0
H2833 H 0.75616 0.86757 0.98824 0.0
H2834 H 0.76079 0.86141 0.92472 0.0
H2835 H 0.71189 0.83653 0.96166 0.0
H2836 H 0.68405 0.83962 0.98033 0.0
H2837 H 0.65173 0.86159 0.9361 0.0
H2838 H 0.67949 0.85888 0.91722 0.0
H2839 H 0.75225 0.78015 0.87027 0.0
H2840 H 0.74992 0.79941 0.89743 0.0
H2841 H 0.70689 0.83373 0.87204 0.0
H2842 H 0.70885 0.81422 0.84489 0.0
H2843 H 0.70073 0.8269 0.9083 0.0
H2844 H 0.75029 0.84877 0.87075 0.0
H2845 H 0.77833 0.84352 0.85276 0.0
H2846 H 0.80983 0.82544 0.89906 0.0
H2847 H 0.78186 0.83023 0.91729 0.0
C2848 C 0.72003 0.89162 0.96777 0.0
C2849 C 0.73228 0.88567 0.98162 0.0
C2850 C 0.72085 0.88318 0.95092 0.0
C2851 C 0.7337 0.86847 0.9478 0.0
C2852 C 0.74706 0.86376 0.96112 0.0
C2853 C 0.74638 0.87232 0.9779 0.0
C2854 C 0.73182 0.85636 0.93157 0.0
C2855 C 0.74769 0.85383 0.92115 0.0
C2856 C 0.71466 0.84656 0.92691 0.0
C2857 C 0.69781 0.84768 0.93808 0.0
C2858 C 0.69887 0.84209 0.95594 0.0
C2859 C 0.68311 0.84378 0.96656 0.0
C2860 C 0.66615 0.85084 0.95942 0.0
C2861 C 0.66489 0.85615 0.94162 0.0
C2862 C 0.68062 0.85453 0.93095 0.0
C2863 C 0.74184 0.79138 0.87067 0.0
C2864 C 0.73081 0.79582 0.85548 0.0
C2865 C 0.74064 0.80245 0.88612 0.0
C2866 C 0.72849 0.81815 0.88654 0.0
C2867 C 0.71642 0.82172 0.87187 0.0
C2868 C 0.71763 0.81066 0.8564 0.0
C2869 C 0.72972 0.83188 0.90158 0.0
C2870 C 0.71375 0.83467 0.91177 0.0
C2871 C 0.74683 0.84177 0.90613 0.0
C2872 C 0.76393 0.83974 0.89536 0.0
C2873 C 0.76318 0.84363 0.87709 0.0
C2874 C 0.77906 0.84073 0.86685 0.0
C2875 C 0.79583 0.83415 0.87477 0.0
C2876 C 0.79682 0.83057 0.89296 0.0
C2877 C 0.78096 0.83337 0.90326 0.0
H2878 H 0.80803 0.83173 0.86679 0.0
H2879 H 0.65398 0.85217 0.96767 0.0
H2880 H 0.77256 0.91533 0.07535 0.0
H2881 H 0.80388 0.93029 0.07909 0.0
H2882 H 0.78623 0.97613 0.04493 0.0
H2883 H 0.75474 0.96138 0.04127 0.0
H2884 H 0.81646 0.95316 0.0328 0.0
H2885 H 0.7987 0.98773 0.08503 0.0
H2886 H 0.78567 0.99141 0.11481 0.0
H2887 H 0.82814 0.95409 0.13625 0.0
H2888 H 0.84127 0.94996 0.10653 0.0
H2889 H 0.90147 0.00276 0.02829 0.0
H2890 H 0.86888 0.99454 0.03418 0.0
H2891 H 0.88767 0.95474 0.07404 0.0
H2892 H 0.9207 0.96377 0.0689 0.0
H2893 H 0.85687 0.97467 0.08459 0.0
H2894 H 0.87384 0.93835 0.03364 0.0
H2895 H 0.88705 0.93264 0.00418 0.0
H2896 H 0.84602 0.97016 0.98065 0.0
H2897 H 0.83273 0.97633 0.01003 0.0
C2898 C 0.77516 0.92892 0.0691 0.0
C2899 C 0.76133 0.93708 0.05783 0.0
C2900 C 0.79302 0.93748 0.07133 0.0
C2901 C 0.79731 0.95421 0.06221 0.0
C2902 C 0.78308 0.96321 0.05209 0.0
C2903 C 0.76512 0.9548 0.05005 0.0
C2904 C 0.81723 0.96028 0.06072 0.0
C2905 C 0.82522 0.95825 0.04404 0.0
C2906 C 0.82874 0.96594 0.07562 0.0
C2907 C 0.82086 0.96839 0.09351 0.0
C2908 C 0.80516 0.98015 0.09606 0.0
C2909 C 0.79777 0.98236 0.11294 0.0
C2910 C 0.80604 0.97295 0.12741 0.0
C2911 C 0.82174 0.96136 0.12503 0.0
C2912 C 0.82917 0.95909 0.10817 0.0
C2913 C 0.89878 0.99254 0.03859 0.0
C2914 C 0.91373 0.98401 0.04822 0.0
C2915 C 0.88009 0.9877 0.04179 0.0
C2916 C 0.87589 0.97387 0.05437 0.0
C2917 C 0.89068 0.96544 0.06423 0.0
C2918 C 0.9095 0.97044 0.06115 0.0
C2919 C 0.85599 0.96789 0.05657 0.0
C2920 C 0.84806 0.96971 0.07334 0.0
C2921 C 0.84451 0.96167 0.04181 0.0
C2922 C 0.8524 0.95793 0.02408 0.0
C2923 C 0.86772 0.9455 0.02221 0.0
C2924 C 0.87521 0.94216 0.00552 0.0
C2925 C 0.8674 0.95107 0.99056 0.0
C2926 C 0.85206 0.96329 0.99226 0.0
C2927 C 0.84453 0.9667 0.00892 0.0
H2928 H 0.87322 0.94846 0.97765 0.0
H2929 H 0.8003 0.97468 0.14047 0.0
H2930 H 0.32659 0.61413 0.99287 0.0
H2931 H 0.35954 0.604 -0.00486 0.0
H2932 H 0.34271 0.55435 0.02433 0.0
H2933 H 0.30978 0.56437 0.02226 0.0
H2934 H 0.3747 0.57186 0.03888 0.0
H2935 H 0.35084 0.55006 0.98116 0.0
H2936 H 0.33589 0.55395 0.95142 0.0
H2937 H 0.38007 0.59329 0.93788 0.0
H2938 H 0.39515 0.58982 0.96765 0.0
H2939 H 0.4499 0.50841 0.02982 0.0
H2940 H 0.41951 0.52449 0.02905 0.0
H2941 H 0.44261 0.56858 -0.0037 0.0
H2942 H 0.47302 0.55217 -0.00344 0.0
H2943 H 0.40886 0.55748 0.98385 0.0
H2944 H 0.43405 0.5775 0.04117 0.0
H2945 H 0.44879 0.57334 0.07101 0.0
H2946 H 0.40241 0.53715 0.08529 0.0
H2947 H 0.3874 0.54105 0.05557 0.0
C2948 C 0.3299 0.60111 -0.00013 0.0
C2949 C 0.31554 0.58999 0.0073 0.0
C2950 C 0.34872 0.59533 0.0011 0.0
C2951 C 0.35348 0.57836 0.00976 0.0
C2952 C 0.33928 0.5675 0.01759 0.0
C2953 C 0.32047 0.57322 0.01632 0.0
C2954 C 0.37318 0.57154 0.01029 0.0
C2955 C 0.38216 0.5686 0.02687 0.0
C2956 C 0.38302 0.56779 0.9946 0.0
C2957 C 0.37399 0.56986 0.97669 0.0
C2958 C 0.35727 0.55967 0.97189 0.0
C2959 C 0.3488 0.56177 0.95502 0.0
C2960 C 0.35699 0.5739 0.94279 0.0
C2961 C 0.37372 0.58392 0.94738 0.0
C2962 C 0.38224 0.58189 0.96425 0.0
C2963 C 0.44852 0.52153 0.02245 0.0
C2964 C 0.4638 0.52903 0.01322 0.0
C2965 C 0.43119 0.53079 0.02214 0.0
C2966 C 0.42891 0.54794 0.01291 0.0
C2967 C 0.44411 0.55541 0.00357 0.0
C2968 C 0.46143 0.546 0.00369 0.0
C2969 C 0.41037 0.55754 0.01247 0.0
C2970 C 0.40156 0.56101 -0.0041 0.0
C2971 C 0.4007 0.56178 0.02819 0.0
C2972 C 0.40967 0.55947 0.0461 0.0
C2973 C 0.42706 0.56856 0.05064 0.0
C2974 C 0.43545 0.56627 0.06753 0.0
C2975 C 0.42659 0.55492 0.07998 0.0
C2976 C 0.40927 0.54592 0.07562 0.0
C2977 C 0.40078 0.54822 0.05878 0.0
H2978 H 0.43313 0.55314 0.09303 0.0
H2979 H 0.35042 0.57551 0.92973 0.0
H2980 H 0.12274 0.5741 0.76561 0.0
H2981 H 0.13816 0.60552 0.76441 0.0
H2982 H 0.19281 0.57859 0.76557 0.0
H2983 H 0.17749 0.54728 0.76767 0.0
H2984 H 0.19406 0.6074 0.78693 0.0
H2985 H 0.17021 0.59885 0.72545 0.0
H2986 H 0.14559 0.59373 0.70175 0.0
H2987 H 0.11509 0.64203 0.72107 0.0
H2988 H 0.13964 0.64766 0.74469 0.0
H2989 H 0.2545 0.67781 0.75553 0.0
H2990 H 0.234 0.6496 0.75683 0.0
H2991 H 0.18571 0.68561 0.76421 0.0
H2992 H 0.20615 0.7141 0.76283 0.0
H2993 H 0.17839 0.6548 0.74054 0.0
H2994 H 0.20407 0.66577 0.79922 0.0
H2995 H 0.22938 0.67239 0.82186 0.0
H2996 H 0.25614 0.61961 0.80818 0.0
H2997 H 0.23114 0.61281 0.78525 0.0
C2998 C 0.13805 0.57492 0.76561 0.0
C2999 C 0.14894 0.55827 0.76681 0.0
C3000 C 0.14684 0.59287 0.76477 0.0
C3001 C 0.16665 0.59444 0.76461 0.0
C3002 C 0.1775 0.57777 0.76571 0.0
C3003 C 0.16874 0.55988 0.76692 0.0
C3004 C 0.17628 0.61337 0.76392 0.0
C3005 C 0.19075 0.61763 0.77664 0.0
C3006 C 0.17147 0.62713 0.75097 0.0
C3007 C 0.15663 0.62355 0.73692 0.0
C3008 C 0.15818 0.60829 0.7247 0.0
C3009 C 0.14427 0.60531 0.71128 0.0
C3010 C 0.12872 0.61741 0.71002 0.0
C3011 C 0.12711 0.63263 0.72209 0.0
C3012 C 0.14106 0.63578 0.73544 0.0
C3013 C 0.2395 0.67979 0.7573 0.0
C3014 C 0.23196 0.69818 0.75924 0.0
C3015 C 0.22783 0.66365 0.75808 0.0
C3016 C 0.20844 0.66558 0.76088 0.0
C3017 C 0.20068 0.68389 0.76212 0.0
C3018 C 0.21238 0.70011 0.76138 0.0
C3019 C 0.19653 0.64833 0.76309 0.0
C3020 C 0.18159 0.64452 0.75082 0.0
C3021 C 0.20087 0.63496 0.77645 0.0
C3022 C 0.21579 0.63885 0.79043 0.0
C3023 C 0.21541 0.65563 0.80096 0.0
C3024 C 0.2297 0.65941 0.81385 0.0
C3025 C 0.24437 0.64644 0.81643 0.0
C3026 C 0.24476 0.62964 0.80616 0.0
C3027 C 0.23053 0.62581 0.79323 0.0
H3028 H 0.25543 0.6494 0.82642 0.0
H3029 H 0.11796 0.61504 0.69964 0.0
H3030 H 0.18648 0.4203 0.56337 0.0
H3031 H 0.15694 0.4351 0.55398 0.0
H3032 H 0.13657 0.38104 0.53189 0.0
H3033 H 0.16633 0.3661 0.54125 0.0
H3034 H 0.13781 0.40779 0.50717 0.0
H3035 H 0.1117 0.40353 0.56355 0.0
H3036 H 0.10878 0.40543 0.59602 0.0
H3037 H 0.11814 0.46621 0.59515 0.0
H3038 H 0.12137 0.46468 0.56271 0.0
H3039 H 0.05278 0.4598 0.48159 0.0
H3040 H 0.07817 0.43762 0.48877 0.0
H3041 H 0.11052 0.48361 0.51435 0.0
H3042 H 0.08501 0.50577 0.50758 0.0
H3043 H 0.09875 0.45604 0.53721 0.0
H3044 H 0.12762 0.45864 0.4801 0.0
H3045 H 0.12919 0.45557 0.44756 0.0
H3046 H 0.11291 0.3963 0.44999 0.0
H3047 H 0.11086 0.39911 0.48255 0.0
C3048 C 0.17541 0.4114 0.55714 0.0
C3049 C 0.17873 0.39217 0.55281 0.0
C3050 C 0.15849 0.41985 0.55183 0.0
C3051 C 0.14463 0.40918 0.54212 0.0
C3052 C 0.14715 0.38949 0.53933 0.0
C3053 C 0.16409 0.38096 0.54478 0.0
C3054 C 0.12951 0.41942 0.53239 0.0
C3055 C 0.12887 0.41802 0.51374 0.0
C3056 C 0.1182 0.43298 0.54099 0.0
C3057 C 0.11694 0.43395 0.56065 0.0
C3058 C 0.11339 0.41728 0.57029 0.0
C3059 C 0.11159 0.4183 0.5887 0.0
C3060 C 0.11329 0.43593 0.59765 0.0
C3061 C 0.11681 0.45257 0.5882 0.0
C3062 C 0.1186 0.45163 0.56979 0.0
C3063 C 0.06572 0.46542 0.48791 0.0
C3064 C 0.06681 0.48439 0.49442 0.0
C3065 C 0.0802 0.45267 0.49206 0.0
C3066 C 0.09598 0.45895 0.5024 0.0
C3067 C 0.09829 0.4785 0.50653 0.0
C3068 C 0.08377 0.49117 0.50257 0.0
C3069 C 0.10778 0.44502 0.51204 0.0
C3070 C 0.10758 0.44568 0.53067 0.0
C3071 C 0.11812 0.43068 0.50341 0.0
C3072 C 0.11883 0.42916 0.48377 0.0
C3073 C 0.12409 0.44502 0.47369 0.0
C3074 C 0.12513 0.44331 0.45524 0.0
C3075 C 0.12108 0.42577 0.44671 0.0
C3076 C 0.11598 0.4099 0.45661 0.0
C3077 C 0.11487 0.41155 0.47507 0.0
H3078 H 0.12196 0.42446 0.43243 0.0
H3079 H 0.11185 0.43671 0.6119 0.0
H3080 H 0.90678 0.9327 0.76996 0.0
H3081 H 0.89408 0.90016 0.77193 0.0
H3082 H 0.84845 0.92092 0.80324 0.0
H3083 H 0.86093 0.95361 0.80125 0.0
H3084 H 0.86535 0.88447 0.81463 0.0
H3085 H 0.8389 0.91633 0.76256 0.0
H3086 H 0.8413 0.93417 0.73473 0.0
H3087 H 0.87351 0.8887 0.71219 0.0
H3088 H 0.87153 0.87071 0.74002 0.0
H3089 H 0.79091 0.81716 0.80035 0.0
H3090 H 0.81132 0.84552 0.80324 0.0
H3091 H 0.84855 0.82162 0.76469 0.0
H3092 H 0.8282 0.79315 0.76168 0.0
H3093 H 0.83931 0.85796 0.75725 0.0
H3094 H 0.86238 0.82377 0.80666 0.0
H3095 H 0.86009 0.80475 0.83365 0.0
H3096 H 0.83658 0.85272 0.86114 0.0
H3097 H 0.83811 0.87189 0.83402 0.0
C3098 C 0.89419 0.93034 0.77749 0.0
C3099 C 0.88471 0.94575 0.78528 0.0
C3100 C 0.88701 0.91176 0.77862 0.0
C3101 C 0.87034 0.90828 0.78766 0.0
C3102 C 0.86138 0.92342 0.79626 0.0
C3103 C 0.86844 0.94206 0.79498 0.0
C3104 C 0.86121 0.88923 0.78661 0.0
C3105 C 0.85951 0.87866 0.80216 0.0
C3106 C 0.85419 0.88155 0.77019 0.0
C3107 C 0.85527 0.89229 0.75343 0.0
C3108 C 0.84664 0.91022 0.75173 0.0
C3109 C 0.8479 0.92034 0.73594 0.0
C3110 C 0.85761 0.9126 0.72172 0.0
C3111 C 0.86603 0.89469 0.72323 0.0
C3112 C 0.86484 0.88453 0.739 0.0
C3113 C 0.80354 0.81783 0.79262 0.0
C3114 C 0.80797 0.80293 0.7808 0.0
C3115 C 0.8152 0.83401 0.79433 0.0
C3116 C 0.83148 0.83554 0.78427 0.0
C3117 C 0.83604 0.82064 0.77257 0.0
C3118 C 0.82441 0.80442 0.77089 0.0
C3119 C 0.84315 0.85318 0.78532 0.0
C3120 C 0.84532 0.86356 0.76974 0.0
C3121 C 0.85078 0.86051 0.80168 0.0
C3122 C 0.85018 0.84923 0.81821 0.0
C3123 C 0.85654 0.83023 0.8184 0.0
C3124 C 0.85535 0.81939 0.83374 0.0
C3125 C 0.84809 0.82745 0.84912 0.0
C3126 C 0.8421 0.84644 0.84919 0.0
C3127 C 0.8431 0.85731 0.83381 0.0
H3128 H 0.84715 0.81901 0.86099 0.0
H3129 H 0.85856 0.92046 0.70951 0.0
H3130 H 0.70925 0.07738 0.48553 0.0
H3131 H 0.67654 0.068 0.49006 0.0
H3132 H 0.6591 0.12641 0.48274 0.0
H3133 H 0.6921 0.13605 0.47882 0.0
H3134 H 0.64379 0.11307 0.51081 0.0
H3135 H 0.64748 0.09041 0.45148 0.0
H3136 H 0.66048 0.0737 0.42562 0.0
H3137 H 0.6559 0.02003 0.4522 0.0
H3138 H 0.64313 0.03644 0.47833 0.0
H3139 H 0.54613 0.07477 0.50627 0.0
H3140 H 0.57582 0.09185 0.50086 0.0
H3141 H 0.60742 0.0438 0.52048 0.0
H3142 H 0.57802 0.02673 0.52616 0.0
H3143 H 0.6127 0.05543 0.48323 0.0
H3144 H 0.6112 0.08051 0.54375 0.0
H3145 H 0.59683 0.09828 0.56829 0.0
H3146 H 0.59528 0.149 0.53687 0.0
H3147 H 0.60941 0.13144 0.51203 0.0
C3148 C 0.69843 0.08819 0.48459 0.0
C3149 C 0.70321 0.10745 0.48187 0.0
C3150 C 0.6797 0.08279 0.4871 0.0
C3151 C 0.66532 0.09647 0.48654 0.0
C3152 C 0.66997 0.11563 0.48322 0.0
C3153 C 0.68879 0.12109 0.48093 0.0
C3154 C 0.64574 0.09084 0.49074 0.0
C3155 C 0.63684 0.10069 0.5045 0.0
C3156 C 0.63668 0.07465 0.4826 0.0
C3157 C 0.64446 0.0647 0.46693 0.0
C3158 C 0.64939 0.07506 0.45188 0.0
C3159 C 0.65669 0.06564 0.43715 0.0
C3160 C 0.65905 0.04583 0.43728 0.0
C3161 C 0.65408 0.03539 0.45212 0.0
C3162 C 0.64678 0.04474 0.46689 0.0
C3163 C 0.5594 0.06807 0.50992 0.0
C3164 C 0.55975 0.0493 0.51639 0.0
C3165 C 0.5763 0.07784 0.50681 0.0
C3166 C 0.59366 0.06892 0.51012 0.0
C3167 C 0.59406 0.0508 0.51779 0.0
C3168 C 0.57725 0.04112 0.52106 0.0
C3169 C 0.61128 0.07724 0.5036 0.0
C3170 C 0.61966 0.06794 0.48931 0.0
C3171 C 0.61964 0.09407 0.51103 0.0
C3172 C 0.61113 0.10459 0.52595 0.0
C3173 C 0.6076 0.09539 0.542 0.0
C3174 C 0.59955 0.10545 0.55598 0.0
C3175 C 0.59508 0.12474 0.55412 0.0
C3176 C 0.59871 0.13404 0.53828 0.0
C3177 C 0.60675 0.12405 0.52426 0.0
H3178 H 0.58886 0.1325 0.56497 0.0
H3179 H 0.66469 0.03856 0.42587 0.0
H3180 H 0.16429 0.43233 0.8057 0.0
H3181 H 0.1853 0.40488 0.80606 0.0
H3182 H 0.22624 0.43673 0.7768 0.0
H3183 H 0.20533 0.46442 0.77654 0.0
H3184 H 0.21445 0.40211 0.76053 0.0
H3185 H 0.23877 0.42413 0.81697 0.0
H3186 H 0.23725 0.43647 0.84771 0.0
H3187 H 0.20772 0.38547 0.86269 0.0
H3188 H 0.20881 0.37292 0.83198 0.0
H3189 H 0.26967 0.31666 0.7593 0.0
H3190 H 0.25978 0.34999 0.76232 0.0
H3191 H 0.21754 0.33287 0.79921 0.0
H3192 H 0.22767 0.2998 0.79665 0.0
H3193 H 0.2361 0.36327 0.81165 0.0
H3194 H 0.20577 0.34446 0.75535 0.0
H3195 H 0.20464 0.33201 0.72449 0.0
H3196 H 0.24312 0.37645 0.70946 0.0
H3197 H 0.24451 0.38912 0.74025 0.0
C3198 C 0.17798 0.43367 0.79975 0.0
C3199 C 0.18314 0.45043 0.79099 0.0
C3200 C 0.18999 0.41801 0.80002 0.0
C3201 C 0.20728 0.41883 0.79144 0.0
C3202 C 0.21295 0.43589 0.78351 0.0
C3203 C 0.20103 0.45168 0.78345 0.0
C3204 C 0.21814 0.40113 0.789 0.0
C3205 C 0.21965 0.3938 0.77167 0.0
C3206 C 0.22443 0.39018 0.80358 0.0
C3207 C 0.22379 0.39763 0.82212 0.0
C3208 C 0.23183 0.4156 0.82678 0.0
C3209 C 0.23107 0.42262 0.84422 0.0
C3210 C 0.22238 0.41177 0.85714 0.0
C3211 C 0.21446 0.39386 0.85266 0.0
C3212 C 0.21517 0.38677 0.83525 0.0
C3213 C 0.25821 0.32003 0.76796 0.0
C3214 C 0.2495 0.30567 0.77781 0.0
C3215 C 0.25256 0.33905 0.76966 0.0
C3216 C 0.23792 0.3439 0.78099 0.0
C3217 C 0.229 0.32948 0.79053 0.0
C3218 C 0.23476 0.31057 0.789 0.0
C3219 C 0.23187 0.36397 0.78321 0.0
C3220 C 0.23128 0.37174 0.80048 0.0
C3221 C 0.22617 0.37523 0.76859 0.0
C3222 C 0.22544 0.36756 0.75013 0.0
C3223 C 0.21412 0.35146 0.74549 0.0
C3224 C 0.2134 0.34439 0.72802 0.0
C3225 C 0.22389 0.35336 0.71506 0.0
C3226 C 0.23505 0.36948 0.71953 0.0
C3227 C 0.23578 0.37663 0.73697 0.0
H3228 H 0.22332 0.34786 0.70154 0.0
H3229 H 0.2218 0.41723 0.87063 0.0
H3230 H 0.36839 0.5737 0.30449 0.0
H3231 H 0.3477 0.6013 0.30537 0.0
H3232 H 0.30497 0.56993 0.27431 0.0
H3233 H 0.32572 0.54214 0.2733 0.0
H3234 H 0.31402 0.60407 0.25983 0.0
H3235 H 0.29637 0.58238 0.31656 0.0
H3236 H 0.30141 0.57036 0.34691 0.0
H3237 H 0.332 0.62185 0.36197 0.0
H3238 H 0.32739 0.63408 0.33164 0.0
H3239 H 0.2603 0.68885 0.25906 0.0
H3240 H 0.26857 0.65546 0.26414 0.0
H3241 H 0.31416 0.67389 0.30019 0.0
H3242 H 0.30545 0.70721 0.29575 0.0
H3243 H 0.29784 0.64324 0.31253 0.0
H3244 H 0.32059 0.6621 0.25515 0.0
H3245 H 0.3169 0.67423 0.22466 0.0
H3246 H 0.27842 0.62799 0.21084 0.0
H3247 H 0.2816 0.61575 0.24132 0.0
C3248 C 0.35445 0.57253 0.29812 0.0
C3249 C 0.34872 0.55582 0.28871 0.0
C3250 C 0.34259 0.58828 0.29874 0.0
C3251 C 0.32477 0.58761 0.28998 0.0
C3252 C 0.31866 0.57068 0.2812 0.0
C3253 C 0.33051 0.55483 0.28066 0.0
C3254 C 0.31363 0.6053 0.2884 0.0
C3255 C 0.31004 0.61244 0.27135 0.0
C3256 C 0.30888 0.61636 0.30345 0.0
C3257 C 0.31161 0.60911 0.32176 0.0
C3258 C 0.30429 0.59109 0.3263 0.0
C3259 C 0.30705 0.58425 0.34351 0.0
C3260 C 0.31704 0.59532 0.35635 0.0
C3261 C 0.32426 0.61329 0.35201 0.0
C3262 C 0.32154 0.6202 0.33481 0.0
C3263 C 0.272 0.68574 0.26816 0.0
C3264 C 0.28236 0.7006 0.27689 0.0
C3265 C 0.27673 0.66668 0.27103 0.0
C3266 C 0.2922 0.66219 0.2823 0.0
C3267 C 0.30217 0.67701 0.29144 0.0
C3268 C 0.29723 0.69605 0.28883 0.0
C3269 C 0.29871 0.64221 0.28397 0.0
C3270 C 0.30146 0.63469 0.30102 0.0
C3271 C 0.3029 0.63085 0.26892 0.0
C3272 C 0.30116 0.63814 0.25056 0.0
C3273 C 0.31124 0.65459 0.24564 0.0
C3274 C 0.30926 0.66148 0.22837 0.0
C3275 C 0.29742 0.65192 0.21585 0.0
C3276 C 0.28756 0.63541 0.22056 0.0
C3277 C 0.28944 0.62849 0.23783 0.0
H3278 H 0.2959 0.65728 0.20248 0.0
H3279 H 0.31917 0.59 0.36967 0.0
H3280 H 0.56118 0.69477 0.60804 0.0
H3281 H 0.55264 0.66939 0.58644 0.0
H3282 H 0.53273 0.63421 0.6288 0.0
H3283 H 0.54264 0.65909 0.6505 0.0
H3284 H 0.54686 0.61235 0.60628 0.0
H3285 H 0.50254 0.66319 0.60129 0.0
H3286 H 0.49199 0.69641 0.59743 0.0
H3287 H 0.51545 0.69729 0.5456 0.0
H3288 H 0.52637 0.66415 0.54925 0.0
H3289 H 0.48845 0.55187 0.55522 0.0
H3290 H 0.49291 0.58149 0.57247 0.0
H3291 H 0.53231 0.60215 0.53451 0.0
H3292 H 0.52812 0.57247 0.51716 0.0
H3293 H 0.50706 0.63139 0.55408 0.0
H3294 H 0.55193 0.57829 0.56235 0.0
H3295 H 0.55688 0.54383 0.56697 0.0
H3296 H 0.52647 0.5469 0.61529 0.0
H3297 H 0.52091 0.5813 0.6107 0.0
C3298 C 0.55537 0.6814 0.61269 0.0
C3299 C 0.55249 0.67874 0.6308 0.0
C3300 C 0.55029 0.66703 0.60037 0.0
C3301 C 0.54143 0.65015 0.60592 0.0
C3302 C 0.53942 0.64715 0.62417 0.0
C3303 C 0.5451 0.6613 0.63656 0.0
C3304 C 0.53369 0.63596 0.59271 0.0
C3305 C 0.53804 0.6166 0.59501 0.0
C3306 C 0.5221 0.64137 0.57792 0.0
C3307 C 0.51542 0.66125 0.57562 0.0
C3308 C 0.50554 0.67051 0.58911 0.0
C3309 C 0.49949 0.68932 0.58696 0.0
C3310 C 0.50309 0.69897 0.5713 0.0
C3311 C 0.5127 0.68981 0.55774 0.0
C3312 C 0.51881 0.67101 0.55983 0.0
C3313 C 0.49755 0.56296 0.55017 0.0
C3314 C 0.50834 0.55967 0.53511 0.0
C3315 C 0.5 0.57989 0.56001 0.0
C3316 C 0.51313 0.59372 0.55482 0.0
C3317 C 0.52214 0.59154 0.53866 0.0
C3318 C 0.51982 0.57453 0.52885 0.0
C3319 C 0.52032 0.60816 0.56783 0.0
C3320 C 0.51592 0.62739 0.56543 0.0
C3321 C 0.5314 0.60264 0.58279 0.0
C3322 C 0.53585 0.58229 0.58609 0.0
C3323 C 0.5462 0.57158 0.5739 0.0
C3324 C 0.54904 0.55205 0.57646 0.0
C3325 C 0.54183 0.54317 0.59133 0.0
C3326 C 0.53192 0.5538 0.60373 0.0
C3327 C 0.52893 0.5733 0.60115 0.0
H3328 H 0.54413 0.52811 0.59341 0.0
H3329 H 0.4984 0.71354 0.56966 0.0
H3330 H 0.60076 0.25696 0.8844 0.0
H3331 H 0.63025 0.25726 0.86829 0.0
H3332 H 0.59887 0.24579 0.81912 0.0
H3333 H 0.56938 0.24528 0.8351 0.0
H3334 H 0.63065 0.22435 0.82191 0.0
H3335 H 0.61389 0.29023 0.82873 0.0
H3336 H 0.60486 0.31932 0.84515 0.0
H3337 H 0.65695 0.31791 0.87601 0.0
H3338 H 0.66618 0.28862 0.85995 0.0
H3339 H 0.70543 0.24992 0.76495 0.0
H3340 H 0.67498 0.24861 0.77951 0.0
H3341 H 0.70329 0.26053 0.83015 0.0
H3342 H 0.73362 0.26209 0.81579 0.0
H3343 H 0.67226 0.28209 0.82546 0.0
H3344 H 0.68861 0.21565 0.81899 0.0
H3345 H 0.69754 0.18659 0.80245 0.0
H3346 H 0.64614 0.18921 0.77066 0.0
H3347 H 0.63703 0.21846 0.78685 0.0
C3348 C 0.60016 0.25442 0.87017 0.0
C3349 C 0.58278 0.25123 0.86098 0.0
C3350 C 0.61699 0.25466 0.861 0.0
C3351 C 0.61666 0.25178 0.84251 0.0
C3352 C 0.59938 0.24808 0.83338 0.0
C3353 C 0.58257 0.24786 0.84253 0.0
C3354 C 0.63431 0.25296 0.83263 0.0
C3355 C 0.63965 0.23705 0.82248 0.0
C3356 C 0.64611 0.26946 0.83361 0.0
C3357 C 0.64063 0.28712 0.84325 0.0
C3358 C 0.62335 0.29603 0.83912 0.0
C3359 C 0.61821 0.31257 0.84834 0.0
C3360 C 0.6303 0.32043 0.86165 0.0
C3361 C 0.64759 0.31179 0.86572 0.0
C3362 C 0.65279 0.29523 0.85655 0.0
C3363 C 0.70514 0.25226 0.77918 0.0
C3364 C 0.72191 0.25607 0.78922 0.0
C3365 C 0.68777 0.25144 0.78747 0.0
C3366 C 0.68696 0.25433 0.80591 0.0
C3367 C 0.70365 0.25828 0.81591 0.0
C3368 C 0.72097 0.2591 0.80766 0.0
C3369 C 0.66874 0.25339 0.8149 0.0
C3370 C 0.66325 0.26939 0.82485 0.0
C3371 C 0.65682 0.23698 0.8137 0.0
C3372 C 0.66224 0.21936 0.804 0.0
C3373 C 0.67929 0.21012 0.80837 0.0
C3374 C 0.68437 0.1936 0.79908 0.0
C3375 C 0.67244 0.18609 0.78548 0.0
C3376 C 0.65538 0.19506 0.78118 0.0
C3377 C 0.65024 0.2116 0.79041 0.0
H3378 H 0.67639 0.1733 0.7783 0.0
H3379 H 0.62629 0.33324 0.86877 0.0
H3380 H 0.04832 0.30885 0.15452 0.0
H3381 H 0.04686 0.33518 0.13381 0.0
H3382 H 0.02004 0.29785 0.09401 0.0
H3383 H 0.02242 0.27111 0.1145 0.0
H3384 H 0.04664 0.31588 0.07963 0.0
H3385 H -0.00379 0.33613 0.11489 0.0
H3386 H 0.97914 0.34388 0.14203 0.0
H3387 H 0.01976 0.38838 0.15549 0.0
H3388 H 0.03725 0.38073 0.12856 0.0
H3389 H 0.02293 0.40301 0.02992 0.0
H3390 H 0.02073 0.37343 0.04646 0.0
H3391 H 0.06946 0.39065 0.07894 0.0
H3392 H 0.07263 0.41986 0.0618 0.0
H3393 H 0.02856 0.38232 0.0949 0.0
H3394 H 0.0797 0.35816 0.05883 0.0
H3395 H 0.09382 0.35027 0.03018 0.0
H3396 H 0.04676 0.31287 0.01651 0.0
H3397 H 0.03222 0.32078 0.045 0.0
C3398 C 0.04174 0.30634 0.14149 0.0
C3399 C 0.03551 0.28796 0.13609 0.0
C3400 C 0.04083 0.32145 0.12965 0.0
C3401 C 0.03316 0.31858 0.11237 0.0
C3402 C 0.02607 0.30039 0.10725 0.0
C3403 C 0.02734 0.28517 0.11898 0.0
C3404 C 0.0341 0.33416 0.09929 0.0
C3405 C 0.04233 0.33032 0.0829 0.0
C3406 C 0.02859 0.35307 0.1035 0.0
C3407 C 0.01812 0.35775 0.11974 0.0
C3408 C 0.00159 0.34748 0.1237 0.0
C3409 C 0.99182 0.35187 0.13904 0.0
C3410 C -0.00162 0.36659 0.15049 0.0
C3411 C 0.0147 0.37697 0.14661 0.0
C3412 C 0.02453 0.37264 0.13129 0.0
C3413 C 0.03368 0.40028 0.04009 0.0
C3414 C 0.0479 0.41398 0.0446 0.0
C3415 C 0.03225 0.3834 0.04962 0.0
C3416 C 0.04485 0.38007 0.0639 0.0
C3417 C 0.05959 0.39315 0.06794 0.0
C3418 C 0.06127 0.40986 0.05821 0.0
C3419 C 0.04148 0.36396 0.07573 0.0
C3420 C 0.03267 0.36778 0.09176 0.0
C3421 C 0.046 0.34502 0.07101 0.0
C3422 C 0.05476 0.34026 0.05393 0.0
C3423 C 0.07226 0.34844 0.04963 0.0
C3424 C 0.08037 0.34391 0.03345 0.0
C3425 C 0.07116 0.33113 0.02151 0.0
C3426 C 0.05385 0.3228 0.02575 0.0
C3427 C 0.04568 0.32729 0.04192 0.0
H3428 H 0.07746 0.32764 0.00899 0.0
H3429 H 0.9908 0.36996 0.16236 0.0
H3430 H 0.96065 0.75716 0.37828 0.0
H3431 H 0.92689 0.7568 0.37029 0.0
H3432 H 0.93907 0.77924 0.31881 0.0
H3433 H 0.9728 0.78012 0.32685 0.0
H3434 H 0.90967 0.79688 0.33233 0.0
H3435 H 0.92941 0.73105 0.32539 0.0
H3436 H 0.9433 0.70075 0.3355 0.0
H3437 H 0.90193 0.69664 0.37578 0.0
H3438 H 0.88795 0.72706 0.36605 0.0
H3439 H 0.83384 0.76869 0.2756 0.0
H3440 H 0.86421 0.77238 0.2916 0.0
H3441 H 0.83853 0.75512 0.34006 0.0
H3442 H 0.80786 0.75139 0.3241 0.0
H3443 H 0.87238 0.73628 0.33308 0.0
H3444 H 0.84991 0.8 0.33685 0.0
H3445 H 0.83557 0.82963 0.32567 0.0
H3446 H 0.8817 0.83742 0.29073 0.0
H3447 H 0.89618 0.80765 0.30148 0.0
C3448 C 0.95615 0.76201 0.36525 0.0
C3449 C 0.96941 0.76859 0.35315 0.0
C3450 C 0.93685 0.76177 0.3607 0.0
C3451 C 0.9305 0.7678 0.34389 0.0
C3452 C 0.94368 0.77455 0.33187 0.0
C3453 C 0.96296 0.77497 0.33646 0.0
C3454 C 0.91017 0.76691 0.33861 0.0
C3455 C 0.90154 0.78361 0.3324 0.0
C3456 C 0.8994 0.74973 0.3393 0.0
C3457 C 0.90779 0.73144 0.34514 0.0
C3458 C 0.92338 0.72376 0.3365 0.0
C3459 C 0.93125 0.70655 0.34214 0.0
C3460 C 0.92354 0.69681 0.35632 0.0
C3461 C 0.90792 0.70422 0.36484 0.0
C3462 C 0.90001 0.72144 0.35926 0.0
C3463 C 0.83459 0.76572 0.28967 0.0
C3464 C 0.81848 0.75974 0.29861 0.0
C3465 C 0.85193 0.76793 0.2988 0.0
C3466 C 0.8535 0.76421 0.31701 0.0
C3467 C 0.8375 0.75814 0.32601 0.0
C3468 C 0.82004 0.75606 0.31689 0.0
C3469 C 0.87214 0.76609 0.32631 0.0
C3470 C 0.88042 0.74961 0.33331 0.0
C3471 C 0.88261 0.78345 0.32629 0.0
C3472 C 0.87408 0.80151 0.31991 0.0
C3473 C 0.85694 0.80795 0.32669 0.0
C3474 C 0.84879 0.82479 0.32044 0.0
C3475 C 0.85771 0.83538 0.30748 0.0
C3476 C 0.87481 0.82919 0.30077 0.0
C3477 C 0.88301 0.81235 0.30696 0.0
H3478 H 0.85138 0.84841 0.30265 0.0
H3479 H 0.92965 0.68348 0.36066 0.0
H3480 H 0.5222 0.30305 0.93086 0.0
H3481 H 0.51598 0.33168 0.94866 0.0
H3482 H 0.52785 0.36712 0.90389 0.0
H3483 H 0.53444 0.33868 0.88611 0.0
H3484 H 0.54305 0.38243 0.9336 0.0
H3485 H 0.48245 0.35669 0.9145 0.0
H3486 H 0.45753 0.33184 0.91057 0.0
H3487 H 0.45481 0.32667 0.96714 0.0
H3488 H 0.47991 0.35133 0.9714 0.0
H3489 H 0.50369 0.4678 0.96206 0.0
H3490 H 0.50486 0.43817 0.94459 0.0
H3491 H 0.4994 0.40533 0.99217 0.0
H3492 H 0.49801 0.43493 0.00981 0.0
H3493 H 0.48081 0.38854 0.96168 0.0
H3494 H 0.541 0.41738 0.97966 0.0
H3495 H 0.56373 0.44442 0.98169 0.0
H3496 H 0.56661 0.44467 0.92488 0.0
H3497 H 0.54322 0.41825 0.92244 0.0
C3498 C 0.52365 0.31694 0.92484 0.0
C3499 C 0.5287 0.31856 0.90702 0.0
C3500 C 0.52 0.33328 0.93501 0.0
C3501 C 0.52115 0.35149 0.9275 0.0
C3502 C 0.52682 0.35319 0.90992 0.0
C3503 C 0.53055 0.33689 0.89978 0.0
C3504 C 0.51609 0.3688 0.93778 0.0
C3505 C 0.52938 0.38384 0.93959 0.0
C3506 C 0.49832 0.37051 0.94577 0.0
C3507 C 0.4832 0.35571 0.94326 0.0
C3508 C 0.47664 0.35015 0.9261 0.0
C3509 C 0.46247 0.33612 0.92381 0.0
C3510 C 0.45463 0.32764 0.9386 0.0
C3511 C 0.46092 0.33323 0.9557 0.0
C3512 C 0.47511 0.34724 0.95806 0.0
C3513 C 0.50226 0.45429 0.96878 0.0
C3514 C 0.50113 0.45367 0.98736 0.0
C3515 C 0.50293 0.4374 0.95877 0.0
C3516 C 0.50265 0.41965 0.96719 0.0
C3517 C 0.49976 0.41894 0.98549 0.0
C3518 C 0.49901 0.43586 -0.00446 0.0
C3519 C 0.5077 0.40213 0.95734 0.0
C3520 C 0.49448 0.38706 0.9557 0.0
C3521 C 0.52546 0.40049 0.94931 0.0
C3522 C 0.54013 0.41594 0.95085 0.0
C3523 C 0.54629 0.42334 0.96757 0.0
C3524 C 0.55924 0.43863 0.9688 0.0
C3525 C 0.56658 0.4463 0.95343 0.0
C3526 C 0.5609 0.43875 0.93679 0.0
C3527 C 0.54772 0.42367 0.93547 0.0
H3528 H 0.57671 0.45804 0.95441 0.0
H3529 H 0.44365 0.31679 0.9368 0.0
H3530 H 0.02043 0.21155 0.23766 0.0
H3531 H 0.98902 0.20657 0.24969 0.0
H3532 H 0.96333 0.22935 0.20188 0.0
H3533 H -0.00555 0.23497 0.19011 0.0
H3534 H 0.94605 0.24256 0.22868 0.0
H3535 H 0.966 0.18025 0.20988 0.0
H3536 H 0.98696 0.15235 0.2088 0.0
H3537 H 0.98054 0.14393 0.26462 0.0
H3538 H 0.95973 0.17196 0.26607 0.0
H3539 H 0.85418 0.20944 0.22915 0.0
H3540 H 0.88715 0.20592 0.22133 0.0
H3541 H 0.90354 0.20147 0.27671 0.0
H3542 H 0.87039 0.20481 0.28472 0.0
H3543 H 0.92581 0.17838 0.24883 0.0
H3544 H 0.90427 0.24232 0.26555 0.0
H3545 H 0.88091 0.26816 0.26345 0.0
H3546 H 0.889 0.27168 0.20736 0.0
H3547 H 0.91213 0.24556 0.20909 0.0
C3548 C 0.00807 0.21567 0.22982 0.0
C3549 C 0.00992 0.22363 0.21293 0.0
C3550 C 0.99014 0.21268 0.23664 0.0
C3551 C 0.97382 0.21731 0.22656 0.0
C3552 C 0.97571 0.22567 0.2099 0.0
C3553 C 0.99355 0.22888 0.20319 0.0
C3554 C 0.95467 0.21346 0.23313 0.0
C3555 C 0.94169 0.22849 0.233 0.0
C3556 C 0.94895 0.19514 0.23894 0.0
C3557 C 0.9615 0.17834 0.23812 0.0
C3558 C 0.96919 0.17255 0.22195 0.0
C3559 C 0.98102 0.1567 0.22127 0.0
C3560 C 0.98513 0.14641 0.23664 0.0
C3561 C 0.97738 0.15194 0.25273 0.0
C3562 C 0.96556 0.1678 0.25349 0.0
C3563 C 0.86465 0.20688 0.23964 0.0
C3564 C 0.8598 0.20766 0.25756 0.0
C3565 C 0.88347 0.20492 0.23514 0.0
C3566 C 0.89765 0.20368 0.24849 0.0
C3567 C 0.89269 0.20241 0.26628 0.0
C3568 C 0.87383 0.20448 0.27082 0.0
C3569 C 0.91746 0.20738 0.24408 0.0
C3570 C 0.93043 0.19243 0.24468 0.0
C3571 C 0.92315 0.22566 0.23833 0.0
C3572 C 0.90981 0.24189 0.23743 0.0
C3573 C 0.90099 0.24853 0.25276 0.0
C3574 C 0.88779 0.26323 0.25163 0.0
C3575 C 0.88345 0.27154 0.23528 0.0
C3576 C 0.89236 0.26522 0.22002 0.0
C3577 C 0.90553 0.25048 0.22107 0.0
H3578 H 0.8732 0.2829 0.23443 0.0
H3579 H -0.00572 0.13413 0.23609 0.0
H3580 H 0.02541 0.7152 0.44362 0.0
H3581 H 0.02348 0.68488 0.45928 0.0
H3582 H 0.00044 0.65707 0.41169 0.0
H3583 H 0.00214 0.68732 0.39597 0.0
H3584 H 0.98286 0.64508 0.44168 0.0
H3585 H 0.04642 0.65376 0.42159 0.0
H3586 H 0.0767 0.67113 0.41871 0.0
H3587 H 0.0856 0.6714 0.47536 0.0
H3588 H 0.05521 0.65425 0.47859 0.0
H3589 H 0.00328 0.54843 0.46086 0.0
H3590 H 0.00206 0.57991 0.44718 0.0
H3591 H 0.02762 0.60556 0.49474 0.0
H3592 H 0.02919 0.57417 0.50841 0.0
H3593 H 0.04338 0.61918 0.46565 0.0
H3594 H 0.9805 0.60932 0.48584 0.0
H3595 H 0.95027 0.59188 0.48881 0.0
H3596 H 0.94 0.5938 0.43238 0.0
H3597 H 0.97032 0.61103 0.42905 0.0
C3598 C 0.01971 0.70268 0.43655 0.0
C3599 C 0.01409 0.70358 0.41853 0.0
C3600 C 0.01867 0.68538 0.4455 0.0
C3601 C 0.01207 0.66873 0.43654 0.0
C3602 C 0.00561 0.66978 0.4188 0.0
C3603 C 0.00666 0.68706 0.40984 0.0
C3604 C 0.01288 0.64999 0.44533 0.0
C3605 C -0.0039 0.63931 0.44679 0.0
C3606 C 0.03012 0.6427 0.45227 0.0
C3607 C 0.04845 0.6529 0.45034 0.0
C3608 C 0.05476 0.65765 0.43344 0.0
C3609 C 0.07196 0.66744 0.43174 0.0
C3610 C 0.08304 0.67241 0.44684 0.0
C3611 C 0.07698 0.66756 0.46367 0.0
C3612 C 0.05978 0.6578 0.46545 0.0
C3613 C 0.0087 0.56077 0.46838 0.0
C3614 C 0.01628 0.55883 0.48573 0.0
C3615 C 0.00789 0.57874 0.46059 0.0
C3616 C 0.0145 0.59507 0.47006 0.0
C3617 C 0.02239 0.59313 0.48725 0.0
C3618 C 0.02325 0.57518 0.49503 0.0
C3619 C 0.01336 0.6142 0.46202 0.0
C3620 C 0.03011 0.62497 0.46066 0.0
C3621 C -0.00392 0.62155 0.45521 0.0
C3622 C 0.97777 0.61131 0.45718 0.0
C3623 C 0.97187 0.6059 0.47405 0.0
C3624 C 0.9547 0.59607 0.4758 0.0
C3625 C 0.94324 0.59169 0.46079 0.0
C3626 C 0.9489 0.59718 0.444 0.0
C3627 C 0.96607 0.607 0.44217 0.0
H3628 H 0.92996 0.58408 0.46217 0.0
H3629 H 0.09635 0.67999 0.4455 0.0
H3630 H 0.59612 0.77081 0.69431 0.0
H3631 H 0.62713 0.78518 0.70153 0.0
H3632 H 0.64744 0.76562 0.65111 0.0
H3633 H 0.61628 0.75134 0.64365 0.0
H3634 H 0.66972 0.75497 0.68092 0.0
H3635 H 0.64484 0.81159 0.65597 0.0
H3636 H 0.62123 0.83659 0.65027 0.0
H3637 H 0.62375 0.85296 0.70545 0.0
H3638 H 0.64732 0.828 0.71154 0.0
H3639 H 0.75414 0.78639 0.71823 0.0
H3640 H 0.73011 0.79408 0.69554 0.0
H3641 H 0.68871 0.80014 0.73592 0.0
H3642 H 0.71266 0.79291 0.75875 0.0
H3643 H 0.68132 0.82185 0.70225 0.0
H3644 H 0.68963 0.75323 0.72444 0.0
H3645 H 0.71253 0.72838 0.73304 0.0
H3646 H 0.74131 0.73622 0.68431 0.0
H3647 H 0.71866 0.76144 0.67572 0.0
C3648 C 0.60714 0.76968 0.68471 0.0
C3649 C 0.60388 0.75984 0.6685 0.0
C3650 C 0.62475 0.77806 0.68876 0.0
C3651 C 0.6394 0.77664 0.67672 0.0
C3652 C 0.63618 0.76699 0.66045 0.0
C3653 C 0.61845 0.7588 0.65627 0.0
C3654 C 0.65851 0.78351 0.68221 0.0
C3655 C 0.67251 0.76975 0.68492 0.0
C3656 C 0.66195 0.80271 0.68776 0.0
C3657 C 0.64783 0.81786 0.68422 0.0
C3658 C 0.64029 0.82044 0.66692 0.0
C3659 C 0.62691 0.83462 0.66361 0.0
C3660 C 0.62094 0.84631 0.67749 0.0
C3661 C 0.62839 0.8439 0.69471 0.0
C3662 C 0.64182 0.82978 0.69808 0.0
C3663 C 0.7401 0.79011 0.72235 0.0
C3664 C 0.73504 0.78841 0.74015 0.0
C3665 C 0.72647 0.79469 0.70939 0.0
C3666 C 0.70766 0.79727 0.71411 0.0
C3667 C 0.7032 0.79818 0.73208 0.0
C3668 C 0.71686 0.79381 0.74509 0.0
C3669 C 0.69223 0.79329 0.70098 0.0
C3670 C 0.67884 0.80737 0.69724 0.0
C3671 C 0.68923 0.7744 0.69444 0.0
C3672 C 0.70234 0.75882 0.69927 0.0
C3673 C 0.70077 0.7495 0.71553 0.0
C3674 C 0.71378 0.73548 0.72048 0.0
C3675 C 0.72833 0.73063 0.7092 0.0
C3676 C 0.72995 0.73987 0.69298 0.0
C3677 C 0.71702 0.75397 0.68805 0.0
H3678 H 0.73839 0.71978 0.71304 0.0
H3679 H 0.61056 0.85726 0.6749 0.0
H3680 H 0.60539 0.47518 0.70225 0.0
H3681 H 0.59296 0.47299 0.67172 0.0
H3682 H 0.64778 0.48889 0.65266 0.0
H3683 H 0.66035 0.49132 0.6833 0.0
H3684 H 0.62062 0.51152 0.63977 0.0
H3685 H 0.62956 0.44452 0.64354 0.0
H3686 H 0.6279 0.41245 0.6566 0.0
H3687 H 0.5672 0.4141 0.65398 0.0
H3688 H 0.56847 0.44631 0.64115 0.0
H3689 H 0.57881 0.5082 0.55209 0.0
H3690 H 0.59967 0.503 0.578 0.0
H3691 H 0.55214 0.48209 0.60691 0.0
H3692 H 0.53136 0.48659 0.58091 0.0
H3693 H 0.58089 0.45959 0.61191 0.0
H3694 H 0.57362 0.52999 0.61806 0.0
H3695 H 0.57531 0.56328 0.6075 0.0
H3696 H 0.63237 0.55463 0.59168 0.0
H3697 H 0.6312 0.52152 0.60264 0.0
C3698 C 0.61489 0.47785 0.69157 0.0
C3699 C 0.63375 0.48363 0.69514 0.0
C3700 C 0.6078 0.47647 0.67411 0.0
C3701 C 0.61948 0.48069 0.65994 0.0
C3702 C 0.63856 0.48555 0.66345 0.0
C3703 C 0.64566 0.48692 0.68092 0.0
C3704 C 0.6111 0.48223 0.6418 0.0
C3705 C 0.6123 0.5 0.63347 0.0
C3706 C 0.59999 0.46732 0.63376 0.0
C3707 C 0.59913 0.44791 0.64146 0.0
C3708 C 0.61585 0.43811 0.64586 0.0
C3709 C 0.61498 0.41989 0.65321 0.0
C3710 C 0.59746 0.41125 0.65614 0.0
C3711 C 0.58076 0.42081 0.6517 0.0
C3712 C 0.58155 0.43904 0.64436 0.0
C3713 C 0.5728 0.50255 0.56399 0.0
C3714 C 0.55343 0.49786 0.56448 0.0
C3715 C 0.58472 0.49971 0.57883 0.0
C3716 C 0.57742 0.49238 0.59448 0.0
C3717 C 0.55808 0.48773 0.59497 0.0
C3718 C 0.54621 0.49037 0.5801 0.0
C3719 C 0.58987 0.48908 0.61028 0.0
C3720 C 0.58949 0.47097 0.61809 0.0
C3721 C 0.60169 0.50366 0.61793 0.0
C3722 C 0.60222 0.52329 0.6109 0.0
C3723 C 0.58646 0.53519 0.6122 0.0
C3724 C 0.58735 0.55402 0.60623 0.0
C3725 C 0.60383 0.56097 0.59872 0.0
C3726 C 0.61957 0.5492 0.5974 0.0
C3727 C 0.61885 0.53046 0.6036 0.0
H3728 H 0.60444 0.57552 0.59404 0.0
H3729 H 0.59681 0.39714 0.66183 0.0
H3730 H 0.78975 0.34584 0.00231 0.0
H3731 H 0.79817 0.32725 0.97613 0.0
H3732 H 0.7697 0.36792 0.94242 0.0
H3733 H 0.76152 0.38685 0.96851 0.0
H3734 H 0.77768 0.30922 0.95125 0.0
H3735 H 0.79284 0.37247 0.90424 0.0
H3736 H 0.80504 0.40568 0.90632 0.0
H3737 H 0.83535 0.39292 0.95493 0.0
H3738 H 0.82355 0.35958 0.95301 0.0
H3739 H 0.76875 0.28172 0.8618 0.0
H3740 H 0.76765 0.29692 0.89101 0.0
H3741 H 0.82764 0.30892 0.89019 0.0
H3742 H 0.82876 0.29384 0.86059 0.0
H3743 H 0.80954 0.33938 0.90086 0.0
H3744 H 0.80989 0.27405 0.91728 0.0
H3745 H 0.80017 0.24004 0.91614 0.0
H3746 H 0.74407 0.25521 0.93079 0.0
H3747 H 0.75337 0.28934 0.93178 0.0
C3748 C 0.78523 0.35085 0.98933 0.0
C3749 C 0.77502 0.36789 0.9875 0.0
C3750 C 0.79006 0.34018 0.97439 0.0
C3751 C 0.7848 0.34635 0.95734 0.0
C3752 C 0.77423 0.36311 0.95546 0.0
C3753 C 0.76946 0.37385 0.97039 0.0
C3754 C 0.79014 0.33513 0.9415 0.0
C3755 C 0.78472 0.31577 0.94026 0.0
C3756 C 0.79981 0.34358 0.9274 0.0
C3757 C 0.80717 0.36356 0.92854 0.0
C3758 C 0.80217 0.37673 0.91532 0.0
C3759 C 0.80901 0.39558 0.91649 0.0
C3760 C 0.82092 0.40142 0.93078 0.0
C3761 C 0.82607 0.3884 0.94391 0.0
C3762 C 0.81929 0.36953 0.9428 0.0
C3763 C 0.7818 0.28724 0.86797 0.0
C3764 C 0.7989 0.28638 0.85904 0.0
C3765 C 0.78114 0.29595 0.88467 0.0
C3766 C 0.79762 0.30376 0.89292 0.0
C3767 C 0.81478 0.30289 0.88408 0.0
C3768 C 0.81541 0.29429 0.86722 0.0
C3769 C 0.79653 0.31362 0.91038 0.0
C3770 C 0.80271 0.33275 0.91193 0.0
C3771 C 0.78796 0.30483 0.92494 0.0
C3772 C 0.78232 0.28428 0.92451 0.0
C3773 C 0.79545 0.27015 0.92015 0.0
C3774 C 0.79002 0.25084 0.91955 0.0
C3775 C 0.77151 0.24547 0.92336 0.0
C3776 C 0.75841 0.25939 0.92784 0.0
C3777 C 0.76376 0.27872 0.92845 0.0
H3778 H 0.76733 0.23051 0.92288 0.0
H3779 H 0.82618 0.41603 0.93166 0.0
H3780 H 0.94388 0.51025 0.20462 0.0
H3781 H 0.96228 0.51051 0.17787 0.0
H3782 H 0.91675 0.53906 0.14983 0.0
H3783 H 0.89785 0.53791 0.17642 0.0
H3784 H 0.92786 0.51151 0.13049 0.0
H3785 H 0.96025 0.56193 0.16269 0.0
H3786 H 0.97698 0.57787 0.18817 0.0
H3787 H 0.02101 0.53621 0.18625 0.0
H3788 H 0.00441 0.51985 0.16089 0.0
H3789 H 0.98089 0.53803 0.05641 0.0
H3790 H 0.96503 0.5402 0.0846 0.0
H3791 H 0.00092 0.49615 0.10599 0.0
H3792 H 0.01681 0.4936 0.07757 0.0
H3793 H -0.00466 0.53149 0.12839 0.0
H3794 H 0.9607 0.4819 0.0945 0.0
H3795 H 0.94339 0.46913 0.06783 0.0
H3796 H 0.90258 0.51379 0.07198 0.0
H3797 H 0.91978 0.527 0.09852 0.0
C3798 C 0.93788 0.5168 0.19282 0.0
C3799 C 0.91943 0.52402 0.19253 0.0
C3800 C 0.94847 0.51704 0.17755 0.0
C3801 C 0.941 0.525 0.16187 0.0
C3802 C 0.92278 0.5328 0.16176 0.0
C3803 C 0.91203 0.53221 0.17695 0.0
C3804 C 0.95168 0.52402 0.14532 0.0
C3805 C 0.94253 0.51617 0.13002 0.0
C3806 C 0.97094 0.52975 0.14474 0.0
C3807 C 0.98099 0.53956 0.15999 0.0
C3808 C 0.97343 0.55608 0.16778 0.0
C3809 C 0.9829 0.56521 0.18219 0.0
C3810 C 2e-05 0.55803 0.18885 0.0
C3811 C 0.00773 0.54174 0.18109 0.0
C3812 C -0.00169 0.53255 0.16668 0.0
C3813 C 0.98555 0.52888 0.06712 0.0
C3814 C 6e-05 0.51559 0.06479 0.0
C3815 C 0.97643 0.53012 0.08317 0.0
C3816 C 0.98178 0.51824 0.0972 0.0
C3817 C -0.00336 0.50538 0.09519 0.0
C3818 C 0.00564 0.50393 0.079 0.0
C3819 C 0.97144 0.51909 0.1138 0.0
C3820 C 0.98067 0.52688 0.12903 0.0
C3821 C 0.95214 0.51372 0.11422 0.0
C3822 C 0.94167 0.50558 0.09838 0.0
C3823 C 0.94813 0.4891 0.08964 0.0
C3824 C 0.93832 0.48176 0.07456 0.0
C3825 C 0.92197 0.49073 0.06816 0.0
C3826 C 0.91529 0.50692 0.07692 0.0
C3827 C 0.92505 0.51432 0.09199 0.0
H3828 H 0.91447 0.48518 0.05642 0.0
H3829 H 0.00734 0.56512 0.20001 0.0
H3830 H 0.80476 0.61062 0.44732 0.0
H3831 H 0.79973 0.63009 0.42137 0.0
H3832 H 0.82673 0.67827 0.44896 0.0
H3833 H 0.83039 0.65903 0.47561 0.0
H3834 H 0.79398 0.68774 0.44076 0.0
H3835 H 0.84098 0.65868 0.40604 0.0
H3836 H 0.85952 0.63286 0.3927 0.0
H3837 H 0.80945 0.61058 0.36553 0.0
H3838 H 0.79056 0.63615 0.37882 0.0
H3839 H 0.77635 0.74381 0.36187 0.0
H3840 H 0.79134 0.72581 0.38552 0.0
H3841 H 0.747 0.68304 0.38084 0.0
H3842 H 0.7308 0.70169 0.35786 0.0
H3843 H 0.79083 0.67289 0.37619 0.0
H3844 H 0.74424 0.70114 0.41454 0.0
H3845 H 0.72705 0.72834 0.42722 0.0
H3846 H 0.77955 0.75353 0.44675 0.0
H3847 H 0.79708 0.72659 0.43394 0.0
C3848 C 0.81045 0.6251 0.44762 0.0
C3849 C 0.81757 0.63348 0.46356 0.0
C3850 C 0.80762 0.63629 0.43264 0.0
C3851 C 0.81257 0.65583 0.4332 0.0
C3852 C 0.82246 0.66333 0.4483 0.0
C3853 C 0.82472 0.6523 0.46348 0.0
C3854 C 0.80386 0.66894 0.42003 0.0
C3855 C 0.7938 0.68465 0.42661 0.0
C3856 C 0.80301 0.66476 0.40156 0.0
C3857 C 0.81432 0.6493 0.39354 0.0
C3858 C 0.83389 0.6482 0.39732 0.0
C3859 C 0.84447 0.63362 0.38974 0.0
C3860 C 0.83567 0.62007 0.37831 0.0
C3861 C 0.81625 0.62107 0.37441 0.0
C3862 C 0.80561 0.63565 0.38192 0.0
C3863 C 0.76914 0.73107 0.36625 0.0
C3864 C 0.75224 0.72426 0.35773 0.0
C3865 C 0.77801 0.72064 0.37964 0.0
C3866 C 0.77037 0.70308 0.38461 0.0
C3867 C 0.75313 0.69655 0.37692 0.0
C3868 C 0.74396 0.70722 0.36377 0.0
C3869 C 0.78111 0.69113 0.39715 0.0
C3870 C 0.79144 0.67585 0.39037 0.0
C3871 C 0.78249 0.6958 0.41538 0.0
C3872 C 0.77198 0.71199 0.42308 0.0
C3873 C 0.75213 0.71259 0.42136 0.0
C3874 C 0.74233 0.72793 0.42862 0.0
C3875 C 0.75221 0.74269 0.43773 0.0
C3876 C 0.77192 0.74211 0.43966 0.0
C3877 C 0.78179 0.7268 0.43241 0.0
H3878 H 0.74459 0.75454 0.44335 0.0
H3879 H 0.84389 0.60879 0.37244 0.0
H3880 H 0.57573 0.51147 0.78448 0.0
H3881 H 0.56403 0.51775 0.81412 0.0
H3882 H 0.62129 0.52789 0.83408 0.0
H3883 H 0.6331 0.52069 0.80465 0.0
H3884 H 0.60403 0.50871 0.85694 0.0
H3885 H 0.58898 0.56521 0.82541 0.0
H3886 H 0.57591 0.58475 0.80109 0.0
H3887 H 0.51994 0.564 0.81121 0.0
H3888 H 0.53271 0.54411 0.83545 0.0
H3889 H 0.57138 0.55305 0.93701 0.0
H3890 H 0.58398 0.55284 0.90717 0.0
H3891 H 0.53676 0.51792 0.88802 0.0
H3892 H 0.52475 0.5167 0.91781 0.0
H3893 H 0.55056 0.55285 0.86573 0.0
H3894 H 0.56877 0.49354 0.8958 0.0
H3895 H 0.58316 0.4767 0.92128 0.0
H3896 H 0.63569 0.50674 0.91442 0.0
H3897 H 0.62144 0.52411 0.88913 0.0
C3898 C 0.58581 0.51496 0.79522 0.0
C3899 C 0.60531 0.51561 0.79227 0.0
C3900 C 0.57911 0.51871 0.81212 0.0
C3901 C 0.59174 0.52373 0.82627 0.0
C3902 C 0.61126 0.52411 0.82338 0.0
C3903 C 0.61799 0.51998 0.80656 0.0
C3904 C 0.58463 0.52818 0.84415 0.0
C3905 C 0.59255 0.51862 0.85882 0.0
C3906 C 0.5696 0.54109 0.84672 0.0
C3907 C 0.56184 0.55304 0.83216 0.0
C3908 C 0.5739 0.5647 0.82237 0.0
C3909 C 0.56654 0.57586 0.80861 0.0
C3910 C 0.54711 0.57559 0.80458 0.0
C3911 C 0.53499 0.56418 0.81434 0.0
C3912 C 0.54228 0.55298 0.8281 0.0
C3913 C 0.56365 0.54526 0.92652 0.0
C3914 C 0.54708 0.53474 0.93001 0.0
C3915 C 0.57078 0.54537 0.90945 0.0
C3916 C 0.56123 0.53537 0.89554 0.0
C3917 C 0.54418 0.52585 0.89865 0.0
C3918 C 0.53728 0.52532 0.91574 0.0
C3919 C 0.56984 0.53321 0.87813 0.0
C3920 C 0.56218 0.54316 0.86367 0.0
C3921 C 0.58533 0.521 0.87577 0.0
C3922 C 0.59397 0.5103 0.89074 0.0
C3923 C 0.58332 0.4967 0.89984 0.0
C3924 C 0.59146 0.48703 0.91423 0.0
C3925 C 0.61031 0.49067 0.91949 0.0
C3926 C 0.62108 0.50396 0.91035 0.0
C3927 C 0.61297 0.51373 0.896 0.0
H3928 H 0.61659 0.48316 0.93063 0.0
H3929 H 0.54144 0.58423 0.79392 0.0
H3930 H 0.78131 0.32338 0.07475 0.0
H3931 H 0.78127 0.30146 0.09971 0.0
H3932 H 0.78408 0.3495 0.13639 0.0
H3933 H 0.78448 0.37151 0.11153 0.0
H3934 H 0.80517 0.32077 0.14865 0.0
H3935 H 0.74189 0.32875 0.1244 0.0
H3936 H 0.71693 0.3282 0.10073 0.0
H3937 H 0.72528 0.26805 0.09221 0.0
H3938 H 0.75048 0.26831 0.11568 0.0
H3939 H 0.7397 0.27776 0.21481 0.0
H3940 H 0.74347 0.29075 0.18524 0.0
H3941 H 0.79604 0.26071 0.18062 0.0
H3942 H 0.79248 0.24773 0.21027 0.0
H3943 H 0.74857 0.27824 0.15126 0.0
H3944 H 0.82824 0.29382 0.16454 0.0
H3945 H 0.85093 0.2971 0.19007 0.0
H3946 H 0.80612 0.31506 0.22338 0.0
H3947 H 0.78335 0.31232 0.19804 0.0
C3948 C 0.78221 0.32927 0.08814 0.0
C3949 C 0.78268 0.34917 0.0912 0.0
C3950 C 0.78214 0.31672 0.10237 0.0
C3951 C 0.78234 0.32388 0.11987 0.0
C3952 C 0.78387 0.3437 0.12297 0.0
C3953 C 0.78404 0.35625 0.10875 0.0
C3954 C 0.77958 0.31089 0.13493 0.0
C3955 C 0.79292 0.31131 0.14913 0.0
C3956 C 0.7634 0.29881 0.13569 0.0
C3957 C 0.74821 0.2986 0.12164 0.0
C3958 C 0.7385 0.31544 0.11738 0.0
C3959 C 0.72429 0.31518 0.10402 0.0
C3960 C 0.71956 0.29811 0.09494 0.0
C3961 C 0.72899 0.28126 0.09923 0.0
C3962 C 0.74323 0.28146 0.11256 0.0
C3963 C 0.75183 0.27351 0.20734 0.0
C3964 C 0.76595 0.26199 0.21499 0.0
C3965 C 0.75393 0.28091 0.19042 0.0
C3966 C 0.77021 0.27696 0.18094 0.0
C3967 C 0.78351 0.26411 0.18787 0.0
C3968 C 0.7814 0.25667 0.20479 0.0
C3969 C 0.7742 0.28803 0.1649 0.0
C3970 C 0.76106 0.28734 0.15057 0.0
C3971 C 0.7903 0.30025 0.16423 0.0
C3972 C 0.80404 0.30254 0.17945 0.0
C3973 C 0.82327 0.29854 0.17731 0.0
C3974 C 0.83615 0.30032 0.19175 0.0
C3975 C 0.82997 0.30614 0.20838 0.0
C3976 C 0.81092 0.31042 0.21056 0.0
C3977 C 0.79802 0.30878 0.19615 0.0
H3978 H 0.83994 0.30742 0.21955 0.0
H3979 H 0.70856 0.29793 0.0846 0.0
H3980 H 0.89169 0.49282 0.29522 0.0
H3981 H 0.8965 0.48549 0.32661 0.0
H3982 H 0.95176 0.46334 0.31603 0.0
H3983 H 0.94695 0.47026 0.28455 0.0
H3984 H 0.9333 0.44089 0.33884 0.0
H3985 H 0.94655 0.50852 0.33243 0.0
H3986 H 0.93918 0.54154 0.32375 0.0
H3987 H 0.89199 0.54177 0.35819 0.0
H3988 H 0.89895 0.50863 0.3669 0.0
H3989 H 0.98916 0.45639 0.41692 0.0
H3990 H 0.97301 0.453 0.3879 0.0
H3991 H 0.92144 0.47354 0.41016 0.0
H3992 H 0.93771 0.47736 0.43921 0.0
H3993 H 0.93198 0.49447 0.38271 0.0
H3994 H 0.92316 0.42824 0.39319 0.0
H3995 H 0.93199 0.3957 0.40219 0.0
H3996 H 0.97206 0.39295 0.36066 0.0
H3997 H 0.96369 0.42558 0.35156 0.0
C3998 C 0.90487 0.48636 0.29955 0.0
C3999 C 0.91903 0.48227 0.28741 0.0
C4000 C 0.90757 0.48217 0.31749 0.0
C4001 C 0.92454 0.47403 0.32363 0.0
C4002 C 0.93853 0.46958 0.31152 0.0
C4003 C 0.93581 0.47366 0.29356 0.0
C4004 C 0.92817 0.47094 0.34279 0.0
C4005 C 0.9331 0.45258 0.34847 0.0
C4006 C 0.92731 0.48611 0.35537 0.0
C4007 C 0.92312 0.50602 0.35013 0.0
C4008 C 0.93451 0.51556 0.33803 0.0
C4009 C 0.93042 0.5343 0.33313 0.0
C4010 C 0.91509 0.54373 0.34036 0.0
C4011 C 0.90384 0.53444 0.35256 0.0
C4012 C 0.90784 0.51568 0.35749 0.0
C4013 C 0.97428 0.45982 0.41568 0.0
C4014 C 0.96472 0.46733 0.43022 0.0
C4015 C 0.96501 0.45769 0.39915 0.0
C4016 C 0.94601 0.46296 0.39691 0.0
C4017 C 0.9361 0.46933 0.41166 0.0
C4018 C 0.94537 0.47142 0.42824 0.0
C4019 C 0.93756 0.46447 0.37879 0.0
C4020 C 0.93176 0.48261 0.37324 0.0
C4021 C 0.93778 0.44911 0.36636 0.0
C4022 C 0.94285 0.42943 0.37175 0.0
C4023 C 0.93396 0.42076 0.38605 0.0
C4024 C 0.93886 0.40228 0.39115 0.0
C4025 C 0.95259 0.39227 0.38202 0.0
C4026 C 0.96142 0.40071 0.36773 0.0
C4027 C 0.95657 0.41919 0.36257 0.0
H4028 H 0.95637 0.37797 0.38599 0.0
H4029 H 0.91195 0.55824 0.33655 0.0
H4030 H 0.78998 0.66692 0.54316 0.0
H4031 H 0.79237 0.69042 0.56749 0.0
H4032 H 0.75259 0.65723 0.59691 0.0
H4033 H 0.74983 0.63387 0.57258 0.0
H4034 H 0.74767 0.6953 0.60191 0.0
H4035 H 0.80011 0.65069 0.60235 0.0
H4036 H 0.82757 0.63502 0.58927 0.0
H4037 H 0.85512 0.68968 0.58417 0.0
H4038 H 0.82768 0.70568 0.59702 0.0
H4039 H 0.76927 0.70415 0.69242 0.0
H4040 H 0.76382 0.69463 0.66147 0.0
H4041 H 0.80831 0.73323 0.64616 0.0
H4042 H 0.81434 0.74237 0.67741 0.0
H4043 H 0.81178 0.6994 0.63068 0.0
H4044 H 0.76103 0.74359 0.63428 0.0
H4045 H 0.73295 0.75943 0.64592 0.0
H4046 H 0.70235 0.70593 0.64385 0.0
H4047 H 0.7302 0.68982 0.63195 0.0
C4048 C 0.78147 0.6648 0.55466 0.0
C4049 C 0.76996 0.64835 0.55609 0.0
C4050 C 0.78288 0.67824 0.56855 0.0
C4051 C 0.77295 0.67532 0.5841 0.0
C4052 C 0.76043 0.65968 0.58502 0.0
C4053 C 0.75892 0.64629 0.57112 0.0
C4054 C 0.77685 0.68736 0.6001 0.0
C4055 C 0.76167 0.69623 0.60824 0.0
C4056 C 0.79525 0.68902 0.60802 0.0
C4057 C 0.81178 0.67939 0.60043 0.0
C4058 C 0.81197 0.65936 0.59832 0.0
C4059 C 0.82753 0.65043 0.59097 0.0
C4060 C 0.84305 0.66135 0.58584 0.0
C4061 C 0.84307 0.68124 0.58811 0.0
C4062 C 0.82752 0.69025 0.59542 0.0
C4063 C 0.7781 0.71043 0.68252 0.0
C4064 C 0.79244 0.72379 0.68736 0.0
C4065 C 0.77469 0.70528 0.66477 0.0
C4066 C 0.7854 0.71352 0.65147 0.0
C4067 C 0.79976 0.72686 0.65623 0.0
C4068 C 0.80321 0.73203 0.67404 0.0
C4069 C 0.78246 0.70691 0.63284 0.0
C4070 C 0.79785 0.69898 0.62419 0.0
C4071 C 0.76424 0.70608 0.62448 0.0
C4072 C 0.74771 0.71551 0.63228 0.0
C4073 C 0.74835 0.73519 0.63642 0.0
C4074 C 0.73244 0.74423 0.64297 0.0
C4075 C 0.71586 0.73369 0.6456 0.0
C4076 C 0.71517 0.71408 0.64173 0.0
C4077 C 0.73098 0.70502 0.635 0.0
H4078 H 0.70352 0.74071 0.65063 0.0
H4079 H 0.85509 0.65441 0.58015 0.0
H4080 H 0.7416 0.56532 0.48085 0.0
H4081 H 0.71157 0.55685 0.4657 0.0
H4082 H 0.6992 0.6167 0.45937 0.0
H4083 H 0.72923 0.62533 0.4746 0.0
H4084 H 0.67298 0.59767 0.47766 0.0
H4085 H 0.70291 0.589 0.42283 0.0
H4086 H 0.72721 0.57761 0.40261 0.0
H4087 H 0.71213 0.51935 0.41343 0.0
H4088 H 0.68794 0.53036 0.43393 0.0
H4089 H 0.58307 0.56495 0.46129 0.0
H4090 H 0.61133 0.58006 0.45038 0.0
H4091 H 0.6413 0.52697 0.45549 0.0
H4092 H 0.61251 0.5111 0.46483 0.0
H4093 H 0.65717 0.54884 0.43081 0.0
H4094 H 0.637 0.55671 0.49153 0.0
H4095 H 0.61441 0.56576 0.51437 0.0
H4096 H 0.61358 0.62325 0.49507 0.0
H4097 H 0.63599 0.61443 0.47195 0.0
C4098 C 0.73264 0.57668 0.47596 0.0
C4099 C 0.73755 0.59597 0.47919 0.0
C4100 C 0.71561 0.57181 0.46709 0.0
C4101 C 0.70327 0.58616 0.46129 0.0
C4102 C 0.70863 0.60544 0.46364 0.0
C4103 C 0.7257 0.61033 0.47246 0.0
C4104 C 0.6836 0.58099 0.45595 0.0
C4105 C 0.66941 0.5875 0.467 0.0
C4106 C 0.67915 0.56728 0.4424 0.0
C4107 C 0.69362 0.56053 0.42998 0.0
C4108 C 0.70485 0.57375 0.421 0.0
C4109 C 0.7186 0.56736 0.40946 0.0
C4110 C 0.72122 0.54777 0.40674 0.0
C4111 C 0.71007 0.53452 0.41553 0.0
C4112 C 0.69631 0.54084 0.42709 0.0
C4113 C 0.5953 0.55611 0.45933 0.0
C4114 C 0.59561 0.53686 0.46458 0.0
C4115 C 0.61155 0.56489 0.45314 0.0
C4116 C 0.62853 0.5548 0.45275 0.0
C4117 C 0.62837 0.53509 0.45595 0.0
C4118 C 0.61197 0.52614 0.46167 0.0
C4119 C 0.64683 0.56524 0.4528 0.0
C4120 C 0.66069 0.55961 0.44094 0.0
C4121 C 0.65125 0.57949 0.46591 0.0
C4122 C 0.63794 0.58487 0.47989 0.0
C4123 C 0.63191 0.57125 0.49211 0.0
C4124 C 0.61915 0.57634 0.5051 0.0
C4125 C 0.61252 0.59506 0.50613 0.0
C4126 C 0.61869 0.60875 0.49422 0.0
C4127 C 0.63141 0.60371 0.48117 0.0
H4128 H 0.60264 0.59897 0.5162 0.0
H4129 H 0.73188 0.54285 0.39782 0.0
H4130 H 0.19486 0.89002 0.53812 0.0
H4131 H 0.16567 0.90773 0.53302 0.0
H4132 H 0.19355 0.95946 0.55274 0.0
H4133 H 0.22294 0.94195 0.55741 0.0
H4134 H 0.14268 0.92693 0.5526 0.0
H4135 H 0.17807 -0.00269 0.52897 0.0
H4136 H 0.20709 0.00744 0.51419 0.0
H4137 H 0.21138 0.9516 0.4902 0.0
H4138 H 0.18224 0.94124 0.50459 0.0
H4139 H 0.07371 -0.00348 0.55157 0.0
H4140 H 0.10456 0.98182 0.55631 0.0
H4141 H 0.11117 0.97796 0.49963 0.0
H4142 H 0.08051 0.9934 0.49483 0.0
H4143 H 0.14438 0.98537 0.51602 0.0
H4144 H 0.09426 0.93991 0.52174 0.0
H4145 H 0.06417 0.92751 0.5329 0.0
H4146 H 0.08783 0.92869 0.58615 0.0
H4147 H 0.11799 0.94138 0.57532 0.0
C4148 C 0.19472 0.90513 0.54153 0.0
C4149 C 0.21121 0.91466 0.54799 0.0
C4150 C 0.17803 0.91522 0.53862 0.0
C4151 C 0.17756 0.93497 0.54217 0.0
C4152 C 0.19374 0.94431 0.54952 0.0
C4153 C 0.21048 0.93427 0.55229 0.0
C4154 C 0.16027 0.94588 0.53779 0.0
C4155 C 0.14308 0.93972 0.54464 0.0
C4156 C 0.16069 0.96225 0.52695 0.0
C4157 C 0.17808 0.96845 0.51803 0.0
C4158 C 0.18517 0.98722 0.52048 0.0
C4159 C 0.20164 0.993 0.51217 0.0
C4160 C 0.21111 0.98015 0.50131 0.0
C4161 C 0.20407 0.96152 0.49867 0.0
C4162 C 0.18759 0.95568 0.50691 0.0
C4163 C 0.08192 0.99286 0.54014 0.0
C4164 C 0.07473 -0.00411 0.52284 0.0
C4165 C 0.09948 0.98442 0.54285 0.0
C4166 C 0.1099 0.97839 0.52831 0.0
C4167 C 0.10328 0.98245 0.51102 0.0
C4168 C 0.08581 0.99125 0.5083 0.0
C4169 C 0.12695 0.96666 0.53121 0.0
C4170 C 0.14405 0.97262 0.52404 0.0
C4171 C 0.12634 0.94968 0.5412 0.0
C4172 C 0.10833 0.94174 0.54774 0.0
C4173 C 0.09301 0.93762 0.53584 0.0
C4174 C 0.07595 0.93054 0.54211 0.0
C4175 C 0.07408 0.92735 0.56023 0.0
C4176 C 0.08929 0.93119 0.57212 0.0
C4177 C 0.10639 0.9383 0.56592 0.0
H4178 H 0.06085 0.92188 0.56506 0.0
H4179 H 0.22387 0.98464 0.49492 0.0
H4180 H 0.39161 0.91997 0.71153 0.0
H4181 H 0.37814 0.88844 0.71756 0.0
H4182 H 0.33055 0.91509 0.74187 0.0
H4183 H 0.34382 0.94661 0.73593 0.0
H4184 H 0.34888 0.89026 0.76391 0.0
H4185 H 0.32362 0.89064 0.70425 0.0
H4186 H 0.32348 0.89299 0.67164 0.0
H4187 H 0.36153 0.84574 0.66872 0.0
H4188 H 0.36211 0.84327 0.70136 0.0
H4189 H 0.28396 0.81428 0.7737 0.0
H4190 H 0.30189 0.84309 0.76692 0.0
H4191 H 0.34659 0.80856 0.74636 0.0
H4192 H 0.32865 0.7795 0.75306 0.0
H4193 H 0.33379 0.83568 0.72287 0.0
H4194 H 0.35547 0.83379 0.78313 0.0
H4195 H 0.35302 0.83083 0.81552 0.0
H4196 H 0.31874 0.88106 0.81715 0.0
H4197 H 0.32074 0.88417 0.7847 0.0
C4198 C 0.37806 0.91914 0.71779 0.0
C4199 C 0.36892 0.93581 0.72347 0.0
C4200 C 0.37038 0.90111 0.7212 0.0
C4201 C 0.35346 0.8995 0.73029 0.0
C4202 C 0.34372 0.91608 0.73495 0.0
C4203 C 0.35131 0.93408 0.73149 0.0
C4204 C 0.34688 0.88073 0.73656 0.0
C4205 C 0.34528 0.87839 0.75493 0.0
C4206 C 0.34293 0.8651 0.72485 0.0
C4207 C 0.34316 0.86698 0.70528 0.0
C4208 C 0.33219 0.88094 0.69668 0.0
C4209 C 0.33196 0.88223 0.67818 0.0
C4210 C 0.34255 0.86957 0.66812 0.0
C4211 C 0.35338 0.85557 0.67654 0.0
C4212 C 0.35367 0.85422 0.69504 0.0
C4213 C 0.29777 0.81277 0.76808 0.0
C4214 C 0.30487 0.79464 0.76386 0.0
C4215 C 0.30803 0.82925 0.76427 0.0
C4216 C 0.32557 0.8279 0.75622 0.0
C4217 C 0.33309 0.80983 0.75263 0.0
C4218 C 0.32286 0.79328 0.75654 0.0
C4219 C 0.33503 0.84544 0.75014 0.0
C4220 C 0.33737 0.84753 0.73185 0.0
C4221 C 0.3394 0.86092 0.76189 0.0
C4222 C 0.33816 0.85913 0.78144 0.0
C4223 C 0.34728 0.84412 0.79036 0.0
C4224 C 0.34599 0.84243 0.80874 0.0
C4225 C 0.3357 0.85573 0.81838 0.0
C4226 C 0.3267 0.87077 0.80966 0.0
C4227 C 0.32793 0.87251 0.79127 0.0
H4228 H 0.33472 0.8544 0.83262 0.0
H4229 H 0.34231 0.87057 0.65379 0.0
H4230 H 0.33121 0.08722 0.06225 0.0
H4231 H 0.36127 0.07396 0.07303 0.0
H4232 H 0.35094 0.02367 0.03991 0.0
H4233 H 0.32029 0.03644 0.03011 0.0
H4234 H 0.3731 0.01485 0.06787 0.0
H4235 H 0.37159 0.06491 0.02317 0.0
H4236 H 0.36338 0.09712 0.01263 0.0
H4237 H 0.39608 0.1226 0.05607 0.0
H4238 H 0.40432 0.0905 0.06693 0.0
H4239 H 0.45169 -0.00363 0.01644 0.0
H4240 H 0.42198 0.00426 0.03024 0.0
H4241 H 0.45166 0.04355 0.06639 0.0
H4242 H 0.4816 0.03558 0.05276 0.0
H4243 H 0.42218 0.05961 0.04661 0.0
H4244 H 0.43162 0.00666 0.08397 0.0
H4245 H 0.43966 0.97357 0.09182 0.0
H4246 H 0.39251 0.9523 0.05965 0.0
H4247 H 0.38434 0.98523 0.05134 0.0
C4248 C 0.33512 0.07301 0.05789 0.0
C4249 C 0.32379 0.06283 0.04529 0.0
C4250 C 0.35223 0.06546 0.064 0.0
C4251 C 0.35856 0.0481 0.05686 0.0
C4252 C 0.34635 0.03712 0.04554 0.0
C4253 C 0.32894 0.04443 0.03985 0.0
C4254 C 0.37881 0.04315 0.05828 0.0
C4255 C 0.3839 0.02462 0.06334 0.0
C4256 C 0.39293 0.05609 0.05271 0.0
C4257 C 0.3884 0.07536 0.04595 0.0
C4258 C 0.37699 0.0774 0.03047 0.0
C4259 C 0.37232 0.09562 0.02445 0.0
C4260 C 0.37917 0.11189 0.0337 0.0
C4261 C 0.39077 0.10998 0.04894 0.0
C4262 C 0.39545 0.09178 0.05503 0.0
C4263 C 0.45194 0.00654 0.02745 0.0
C4264 C 0.46889 0.01555 0.0334 0.0
C4265 C 0.435 0.01085 0.03546 0.0
C4266 C 0.43473 0.02431 0.04944 0.0
C4267 C 0.45169 0.03298 0.05572 0.0
C4268 C 0.46871 0.02849 0.04787 0.0
C4269 C 0.4164 0.0311 0.05561 0.0
C4270 C 0.41162 0.05001 0.05184 0.0
C4271 C 0.40261 0.01838 0.06203 0.0
C4272 C 0.40739 -0.00153 0.067 0.0
C4273 C 0.42303 0.99493 0.07846 0.0
C4274 C 0.4276 0.97619 0.08301 0.0
C4275 C 0.41658 0.96085 0.07626 0.0
C4276 C 0.401 0.96421 0.06491 0.0
C4277 C 0.39637 0.98292 0.06029 0.0
H4278 H 0.42011 0.94636 0.07985 0.0
H4279 H 0.37552 0.12599 0.02904 0.0
H4280 H 0.68686 0.55851 0.74803 0.0
H4281 H 0.69926 0.5911 0.75177 0.0
H4282 H 0.64492 0.61344 0.7355 0.0
H4283 H 0.63245 0.58082 0.73131 0.0
H4284 H 0.67338 0.63452 0.72233 0.0
H4285 H 0.65655 0.61095 0.77905 0.0
H4286 H 0.65618 0.58768 0.80331 0.0
H4287 H 0.71649 0.59349 0.81052 0.0
H4288 H 0.71725 0.61659 0.78613 0.0
H4289 H 0.71333 0.71547 0.78804 0.0
H4290 H 0.69262 0.68762 0.78163 0.0
H4291 H 0.72606 0.6727 0.73671 0.0
H4292 H 0.74658 0.70034 0.74285 0.0
H4293 H 0.70209 0.65064 0.7818 0.0
H4294 H 0.70022 0.6528 0.70481 0.0
H4295 H 0.69937 0.67713 0.6814 0.0
H4296 H 0.67204 0.71627 0.71644 0.0
H4297 H 0.67286 0.69225 0.74007 0.0
C4298 C 0.67757 0.57033 0.74507 0.0
C4299 C 0.6586 0.56708 0.73958 0.0
C4300 C 0.68468 0.58895 0.74725 0.0
C4301 C 0.67288 0.60465 0.74427 0.0
C4302 C 0.65421 0.6015 0.73795 0.0
C4303 C 0.64712 0.58285 0.73561 0.0
C4304 C 0.67984 0.62426 0.74865 0.0
C4305 C 0.67957 0.63809 0.73534 0.0
C4306 C 0.6874 0.62907 0.7658 0.0
C4307 C 0.68696 0.61542 0.78069 0.0
C4308 C 0.66974 0.60719 0.78575 0.0
C4309 C 0.66947 0.59404 0.79953 0.0
C4310 C 0.6863 0.58909 0.80843 0.0
C4311 C 0.70346 0.59733 0.80361 0.0
C4312 C 0.70382 0.61048 0.78982 0.0
C4313 C 0.71615 0.70631 0.77673 0.0
C4314 C 0.7316 0.71006 0.76599 0.0
C4315 C 0.70432 0.69046 0.77308 0.0
C4316 C 0.70769 0.67828 0.75857 0.0
C4317 C 0.72299 0.68213 0.74776 0.0
C4318 C 0.73481 0.69786 0.7514 0.0
C4319 C 0.6962 0.66069 0.75534 0.0
C4320 C 0.69564 0.64718 0.76887 0.0
C4321 C 0.68754 0.65636 0.73854 0.0
C4322 C 0.68666 0.67073 0.72422 0.0
C4323 C 0.69395 0.66656 0.70748 0.0
C4324 C 0.69355 0.68033 0.69421 0.0
C4325 C 0.68571 0.69826 0.69745 0.0
C4326 C 0.67819 0.70242 0.71396 0.0
C4327 C 0.6787 0.68877 0.72733 0.0
H4328 H 0.68546 0.70892 0.68718 0.0
H4329 H 0.68606 0.57889 0.81909 0.0
H4330 H 0.83477 0.40744 0.04819 0.0
H4331 H 0.8672 0.41734 0.04232 0.0
H4332 H 0.84664 0.4696 0.01935 0.0
H4333 H 0.81422 0.45977 0.02496 0.0
H4334 H 0.8689 0.45119 -0.00282 0.0
H4335 H 0.87168 0.47025 0.05828 0.0
H4336 H 0.86963 0.4678 0.09075 0.0
H4337 H 0.91136 0.4237 0.09117 0.0
H4338 H 0.91348 0.4257 0.05864 0.0
H4339 H 0.9543 0.50558 0.99365 0.0
H4340 H 0.92294 0.49148 -0.0028 0.0
H4341 H 0.94829 0.43919 0.01541 0.0
H4342 H 0.97974 0.45317 0.01196 0.0
H4343 H 0.92435 0.45475 0.03915 0.0
H4344 H 0.92283 0.43868 0.97734 0.0
H4345 H 0.926 0.44437 0.94537 0.0
H4346 H 0.88227 0.48637 0.94694 0.0
H4347 H 0.87902 0.48114 0.979 0.0
C4348 C 0.83717 0.42123 0.04224 0.0
C4349 C 0.8219 0.43272 0.03685 0.0
C4350 C 0.85572 0.42686 0.0389 0.0
C4351 C 0.85927 0.44413 0.03029 0.0
C4352 C 0.84415 0.45613 0.02587 0.0
C4353 C 0.82564 0.45051 0.02914 0.0
C4354 C 0.87849 0.44899 0.02454 0.0
C4355 C 0.88099 0.45224 0.0064 0.0
C4356 C 0.89432 0.44972 0.0365 0.0
C4357 C 0.89249 0.44789 0.05596 0.0
C4358 C 0.88018 0.45979 0.06525 0.0
C4359 C 0.87909 0.45856 0.08368 0.0
C4360 C 0.89029 0.44554 0.09301 0.0
C4361 C 0.90264 0.43373 0.08392 0.0
C4362 C 0.90379 0.43491 0.06548 0.0
C4363 C 0.95322 0.4909 -0.00205 0.0
C4364 C 0.96948 0.48057 0.00274 0.0
C4365 C 0.93529 0.48285 -8e-05 0.0
C4366 C 0.93336 0.46434 0.00662 0.0
C4367 C 0.94955 0.45352 0.01025 0.0
C4368 C 0.96749 0.46153 0.00823 0.0
C4369 C 0.91465 0.45733 0.01192 0.0
C4370 C 0.91225 0.45357 0.02995 0.0
C4371 C 0.89889 0.45645 -7e-05 0.0
C4372 C 0.90079 0.45961 0.98062 0.0
C4373 C 0.914 0.44924 0.97091 0.0
C4374 C 0.91579 0.45236 0.95276 0.0
C4375 C 0.90437 0.46575 0.94414 0.0
C4376 C 0.89111 0.47601 0.95364 0.0
C4377 C 0.88927 0.47295 0.9718 0.0
H4378 H 0.90578 0.46814 0.93008 0.0
H4379 H 0.88946 0.44464 0.10729 0.0
H4380 H 0.32638 0.04242 0.73705 0.0
H4381 H 0.31074 0.0719 0.74611 0.0
H4382 H 0.35215 0.08025 0.78889 0.0
H4383 H 0.3682 0.05104 0.77967 0.0
H4384 H 0.30739 0.09008 0.79359 0.0
H4385 H 0.36583 0.10288 0.7615 0.0
H4386 H 0.38687 0.09643 0.73668 0.0
H4387 H 0.34156 0.10823 0.69925 0.0
H4388 H 0.32018 0.11444 0.72389 0.0
H4389 H 0.29382 0.19064 0.80567 0.0
H4390 H 0.30665 0.15825 0.80445 0.0
H4391 H 0.29295 0.1551 0.74812 0.0
H4392 H 0.28176 0.18796 0.74919 0.0
H4393 H 0.325 0.14177 0.75258 0.0
H4394 H 0.2666 0.13087 0.78287 0.0
H4395 H 0.24399 0.13665 0.80657 0.0
H4396 H 0.28598 0.12074 0.8459 0.0
H4397 H 0.30888 0.11502 0.82244 0.0
C4398 C 0.33188 0.05027 0.74865 0.0
C4399 C 0.34861 0.04463 0.75754 0.0
C4400 C 0.32291 0.06703 0.75383 0.0
C4401 C 0.33036 0.0781 0.76814 0.0
C4402 C 0.34619 0.07173 0.7779 0.0
C4403 C 0.35538 0.05517 0.77252 0.0
C4404 C 0.32351 0.09767 0.77097 0.0
C4405 C 0.3113 0.10151 0.7848 0.0
C4406 C 0.32848 0.11232 0.75928 0.0
C4407 C 0.34139 0.1089 0.7445 0.0
C4408 C 0.36033 0.10392 0.74797 0.0
C4409 C 0.37232 0.10035 0.73394 0.0
C4410 C 0.36554 0.10186 0.71639 0.0
C4411 C 0.34678 0.10703 0.71284 0.0
C4412 C 0.33473 0.11059 0.72683 0.0
C4413 C 0.2936 0.1829 0.7931 0.0
C4414 C 0.28693 0.19162 0.77752 0.0
C4415 C 0.30075 0.16437 0.79241 0.0
C4416 C 0.3005 0.15403 0.77623 0.0
C4417 C 0.2934 0.16275 0.76075 0.0
C4418 C 0.28695 0.18147 0.76134 0.0
C4419 C 0.30828 0.13445 0.77504 0.0
C4420 C 0.3209 0.13052 0.76149 0.0
C4421 C 0.30338 0.11972 0.78686 0.0
C4422 C 0.28948 0.12264 0.80092 0.0
C4423 C 0.27101 0.12865 0.79658 0.0
C4424 C 0.25815 0.13191 0.80997 0.0
C4425 C 0.26356 0.12909 0.82773 0.0
C4426 C 0.28181 0.1229 0.83214 0.0
C4427 C 0.29472 0.11962 0.8188 0.0
H4428 H 0.2536 0.13168 0.83808 0.0
H4429 H 0.37485 0.09909 0.70555 0.0
H4430 H 0.19963 0.96841 0.25516 0.0
H4431 H 0.21952 0.94019 0.25721 0.0
H4432 H 0.17176 0.90658 0.2735 0.0
H4433 H 0.15163 0.93479 0.27144 0.0
H4434 H 0.20741 0.89694 0.29079 0.0
H4435 H 0.17901 0.90597 0.23226 0.0
H4436 H 0.17136 0.92469 0.20555 0.0
H4437 H 0.23058 0.93241 0.19645 0.0
H4438 H 0.23858 0.91399 0.22329 0.0
H4439 H 0.23299 0.80857 0.23608 0.0
H4440 H 0.21902 0.84035 0.23702 0.0
H4441 H 0.26226 0.85918 0.27536 0.0
H4442 H 0.27597 0.82727 0.27491 0.0
H4443 H 0.22934 0.87669 0.2315 0.0
H4444 H 0.2404 0.88731 0.30718 0.0
H4445 H 0.24836 0.86776 0.3333 0.0
H4446 H 0.22233 0.81848 0.30749 0.0
H4447 H 0.2134 0.83792 0.28159 0.0
C4448 C 0.19341 0.95513 0.25957 0.0
C4449 C 0.17399 0.95374 0.26289 0.0
C4450 C 0.20482 0.93904 0.26073 0.0
C4451 C 0.197 0.92132 0.26528 0.0
C4452 C 0.17799 0.92018 0.26996 0.0
C4453 C 0.16652 0.93628 0.26871 0.0
C4454 C 0.20803 0.90369 0.26304 0.0
C4455 C 0.2123 0.89251 0.27788 0.0
C4456 C 0.21417 0.8979 0.24612 0.0
C4457 C 0.20939 0.90878 0.22987 0.0
C4458 C 0.1904 0.91179 0.22464 0.0
C4459 C 0.186 0.92233 0.20947 0.0
C4460 C 0.20048 0.92978 0.19933 0.0
C4461 C 0.21938 0.92666 0.20433 0.0
C4462 C 0.22386 0.91617 0.21951 0.0
C4463 C 0.23974 0.81958 0.24444 0.0
C4464 C 0.25536 0.81538 0.25564 0.0
C4465 C 0.23177 0.83774 0.24495 0.0
C4466 C 0.23937 0.85195 0.25657 0.0
C4467 C 0.25595 0.84826 0.2666 0.0
C4468 C 0.26378 0.83005 0.26628 0.0
C4469 C 0.22894 0.86992 0.25928 0.0
C4470 C 0.22467 0.88116 0.24448 0.0
C4471 C 0.22262 0.87559 0.27622 0.0
C4472 C 0.22647 0.86405 0.29232 0.0
C4473 C 0.23613 0.87237 0.30718 0.0
C4474 C 0.24078 0.86131 0.32197 0.0
C4475 C 0.23587 0.84189 0.32204 0.0
C4476 C 0.22608 0.83354 0.30743 0.0
C4477 C 0.22112 0.8446 0.29274 0.0
H4478 H 0.23964 0.83331 0.33343 0.0
H4479 H 0.19704 0.93793 0.18759 0.0
H4480 H 0.52434 0.30521 0.42559 0.0
H4481 H 0.531 0.32791 0.45 0.0
H4482 H 0.54066 0.37262 0.41244 0.0
H4483 H 0.5339 0.35012 0.38789 0.0
H4484 H 0.55941 0.35576 0.46154 0.0
H4485 H 0.51157 0.40894 0.42487 0.0
H4486 H 0.48681 0.4092 0.40101 0.0
H4487 H 0.47035 0.35176 0.41355 0.0
H4488 H 0.49475 0.35131 0.43769 0.0
H4489 H 0.55694 0.45218 0.4951 0.0
H4490 H 0.56047 0.42137 0.47998 0.0
H4491 H 0.50525 0.40365 0.49665 0.0
H4492 H 0.50156 0.43445 0.51186 0.0
H4493 H 0.50862 0.40416 0.46049 0.0
H4494 H 0.54223 0.37945 0.51084 0.0
H4495 H 0.56659 0.37923 0.535 0.0
H4496 H 0.61031 0.37937 0.49679 0.0
H4497 H 0.58622 0.37988 0.47238 0.0
C4498 C 0.52833 0.31976 0.42248 0.0
C4499 C 0.52809 0.32601 0.40482 0.0
C4500 C 0.53228 0.33264 0.43646 0.0
C4501 C 0.53597 0.35191 0.43294 0.0
C4502 C 0.53764 0.35778 0.41534 0.0
C4503 C 0.53371 0.34491 0.40134 0.0
C4504 C 0.53487 0.3663 0.44733 0.0
C4505 C 0.54839 0.36641 0.46137 0.0
C4506 C 0.52015 0.37981 0.44719 0.0
C4507 C 0.50513 0.38003 0.43295 0.0
C4508 C 0.50261 0.3964 0.42258 0.0
C4509 C 0.48864 0.39658 0.40901 0.0
C4510 C 0.47707 0.38048 0.40572 0.0
C4511 C 0.47937 0.3642 0.41606 0.0
C4512 C 0.49327 0.36397 0.42969 0.0
C4513 C 0.54573 0.44156 0.49592 0.0
C4514 C 0.52882 0.44582 0.50436 0.0
C4515 C 0.54785 0.42391 0.48739 0.0
C4516 C 0.5331 0.41033 0.48721 0.0
C4517 C 0.51678 0.41401 0.49671 0.0
C4518 C 0.51469 0.43161 0.50535 0.0
C4519 C 0.53337 0.39396 0.47468 0.0
C4520 C 0.51965 0.39349 0.46083 0.0
C4521 C 0.54785 0.38018 0.47512 0.0
C4522 C 0.5624 0.37985 0.48977 0.0
C4523 C 0.55704 0.3796 0.50758 0.0
C4524 C 0.5708 0.37939 0.52132 0.0
C4525 C 0.58998 0.37933 0.51743 0.0
C4526 C 0.59544 0.37943 0.49978 0.0
C4527 C 0.58174 0.37965 0.48598 0.0
H4528 H 0.60062 0.37916 0.52809 0.0
H4529 H 0.46629 0.38064 0.39518 0.0
H4530 H 0.45322 0.75577 0.15246 0.0
H4531 H 0.42114 0.75827 0.16352 0.0
H4532 H 0.44298 0.75017 0.21702 0.0
H4533 H 0.47477 0.74689 0.20601 0.0
H4534 H 0.41299 0.72958 0.21213 0.0
H4535 H 0.42935 0.79516 0.20006 0.0
H4536 H 0.4396 0.822 0.18164 0.0
H4537 H 0.39164 0.81231 0.14604 0.0
H4538 H 0.38124 0.78525 0.16414 0.0
H4539 H 0.33942 0.76478 0.26357 0.0
H4540 H 0.36936 0.76344 0.24833 0.0
H4541 H 0.33904 0.75845 0.19784 0.0
H4542 H 0.30892 0.75963 0.21297 0.0
H4543 H 0.37141 0.78458 0.19889 0.0
H4544 H 0.35441 0.71991 0.21345 0.0
H4545 H 0.34434 0.69455 0.2336 0.0
H4546 H 0.3945 0.70407 0.26636 0.0
H4547 H 0.4047 0.72978 0.2466 0.0
C4548 C 0.45114 0.75455 0.16657 0.0
C4549 C 0.46649 0.7511 0.17836 0.0
C4550 C 0.43283 0.75607 0.17289 0.0
C4551 C 0.42966 0.7546 0.19114 0.0
C4552 C 0.44504 0.75126 0.20289 0.0
C4553 C 0.46323 0.74943 0.19657 0.0
C4554 C 0.41038 0.75618 0.19817 0.0
C4555 C 0.40402 0.74173 0.20934 0.0
C4556 C 0.39842 0.77177 0.19421 0.0
C4557 C 0.40464 0.78805 0.18334 0.0
C4558 C 0.42108 0.79867 0.18822 0.0
C4559 C 0.4269 0.81393 0.17786 0.0
C4560 C 0.41631 0.81882 0.16265 0.0
C4561 C 0.39985 0.80848 0.1578 0.0
C4562 C 0.39397 0.79319 0.16812 0.0
C4563 C 0.33909 0.76358 0.24921 0.0
C4564 C 0.32183 0.76217 0.23947 0.0
C4565 C 0.3562 0.76279 0.24055 0.0
C4566 C 0.35632 0.7607 0.22201 0.0
C4567 C 0.33915 0.76005 0.21216 0.0
C4568 C 0.32201 0.76064 0.22084 0.0
C4569 C 0.37441 0.75826 0.21309 0.0
C4570 C 0.38044 0.77245 0.20153 0.0
C4571 C 0.3862 0.74257 0.21687 0.0
C4572 C 0.38024 0.72689 0.22862 0.0
C4573 C 0.36322 0.71671 0.22502 0.0
C4574 C 0.3575 0.70225 0.23636 0.0
C4575 C 0.36875 0.69772 0.25126 0.0
C4576 C 0.38578 0.70761 0.25482 0.0
C4577 C 0.39155 0.72212 0.24355 0.0
H4578 H 0.36428 0.68652 0.26002 0.0
H4579 H 0.42084 0.83064 0.15464 0.0
H4580 H 0.97951 0.71627 0.88317 0.0
H4581 H 0.97393 0.69116 0.90465 0.0
H4582 H 0.01432 0.71827 0.94147 0.0
H4583 H 0.02011 0.74338 0.92001 0.0
H4584 H 0.02007 0.67994 0.93703 0.0
H4585 H 0.96773 0.72126 0.94889 0.0
H4586 H 0.9398 0.74016 0.94018 0.0
H4587 H 0.91149 0.68928 0.9199 0.0
H4588 H 0.93934 0.6701 0.92834 0.0
H4589 H 0.00769 0.6174 0.00463 0.0
H4590 H 0.00516 0.64834 0.99078 0.0
H4591 H 0.96198 0.62586 0.95416 0.0
H4592 H 0.96311 0.5951 0.969 0.0
H4593 H 0.95696 0.66339 0.95989 0.0
H4594 H 0.00845 0.62276 0.94436 0.0
H4595 H 0.03626 0.60265 0.95047 0.0
H4596 H 0.06604 0.65089 0.97443 0.0
H4597 H 0.03828 0.67123 0.96869 0.0
C4598 C 0.98725 0.71686 0.89582 0.0
C4599 C 0.00033 0.73171 0.8999 0.0
C4600 C 0.9839 0.70262 0.90813 0.0
C4601 C 0.99354 0.70306 0.9247 0.0
C4602 C 0.00669 0.71779 0.92876 0.0
C4603 C 0.01001 0.73207 0.91649 0.0
C4604 C 0.99068 0.68757 0.93743 0.0
C4605 C 0.00636 0.67656 0.94232 0.0
C4606 C 0.97263 0.68284 0.94378 0.0
C4607 C 0.95567 0.69426 0.93915 0.0
C4608 C 0.95557 0.71411 0.94251 0.0
C4609 C 0.93975 0.72487 0.93764 0.0
C4610 C 0.92389 0.71593 0.92946 0.0
C4611 C 0.92378 0.69619 0.92624 0.0
C4612 C 0.93957 0.68536 0.9311 0.0
C4613 C -0.00298 0.61908 0.99417 0.0
C4614 C 0.98593 0.60346 0.98767 0.0
C4615 C -0.00425 0.63684 0.98613 0.0
C4616 C 0.98388 0.63915 0.97107 0.0
C4617 C 0.97146 0.62426 0.96561 0.0
C4618 C 0.97236 0.60658 0.97394 0.0
C4619 C 0.98643 0.6559 0.95962 0.0
C4620 C 0.97072 0.667 0.95483 0.0
C4621 C 0.00442 0.66058 0.95304 0.0
C4622 C 0.02123 0.64846 0.95626 0.0
C4623 C 0.0209 0.62905 0.95102 0.0
C4624 C 0.03665 0.61761 0.95441 0.0
C4625 C 0.05289 0.62548 0.96287 0.0
C4626 C 0.05344 0.64481 0.96791 0.0
C4627 C 0.03771 0.6563 0.96458 0.0
H4628 H 0.06507 0.6166 0.96549 0.0
H4629 H 0.91168 0.72429 0.92564 0.0
H4630 H 0.09819 0.26371 0.64677 0.0
H4631 H 0.12851 0.25801 0.6623 0.0
H4632 H 0.10237 0.267 0.71264 0.0
H4633 H 0.07218 0.27298 0.69728 0.0
H4634 H 0.13761 0.28263 0.71268 0.0
H4635 H 0.10715 0.22242 0.69601 0.0
H4636 H 0.0923 0.19904 0.67484 0.0
H4637 H 0.14367 0.19657 0.64609 0.0
H4638 H 0.15874 0.22018 0.66695 0.0
H4639 H 0.19964 0.23718 0.77143 0.0
H4640 H 0.17048 0.24054 0.75347 0.0
H4641 H 0.20211 0.23607 0.70565 0.0
H4642 H 0.23134 0.23269 0.72345 0.0
H4643 H 0.16533 0.21849 0.70313 0.0
H4644 H 0.19623 0.27783 0.72093 0.0
H4645 H 0.21118 0.30005 0.7431 0.0
H4646 H 0.15878 0.30403 0.77003 0.0
H4647 H 0.14364 0.28138 0.74832 0.0
C4648 C 0.09899 0.26477 0.66113 0.0
C4649 C 0.08278 0.26855 0.67084 0.0
C4650 C 0.11628 0.26145 0.66997 0.0
C4651 C 0.11755 0.26176 0.68861 0.0
C4652 C 0.10165 0.26662 0.69825 0.0
C4653 C 0.0844 0.26997 0.68945 0.0
C4654 C 0.13503 0.25585 0.69818 0.0
C4655 C 0.14359 0.26857 0.71068 0.0
C4656 C 0.14296 0.23759 0.69534 0.0
C4657 C 0.134 0.22321 0.68293 0.0
C4658 C 0.11524 0.21699 0.6851 0.0
C4659 C 0.10678 0.20369 0.67317 0.0
C4660 C 0.11702 0.19637 0.6591 0.0
C4661 C 0.13575 0.20228 0.65698 0.0
C4662 C 0.14426 0.21562 0.66885 0.0
C4663 C 0.20033 0.23633 0.7571 0.0
C4664 C 0.21779 0.23501 0.74883 0.0
C4665 C 0.18368 0.23832 0.74688 0.0
C4666 C 0.18431 0.23891 0.72831 0.0
C4667 C 0.20143 0.23575 0.71999 0.0
C4668 C 0.2181 0.23389 0.73018 0.0
C4669 C 0.16767 0.24516 0.71774 0.0
C4670 C 0.15936 0.23257 0.70503 0.0
C4671 C 0.15995 0.26353 0.72039 0.0
C4672 C 0.16885 0.27773 0.73309 0.0
C4673 C 0.18792 0.28333 0.73165 0.0
C4674 C 0.19644 0.29599 0.74415 0.0
C4675 C 0.18595 0.30341 0.75799 0.0
C4676 C 0.1669 0.29824 0.75932 0.0
C4677 C 0.15834 0.28547 0.74693 0.0
H4678 H 0.19257 0.31318 0.76767 0.0
H4679 H 0.11045 0.18607 0.64987 0.0
H4680 H 0.5257 0.67535 0.14666 0.0
H4681 H 0.52804 0.64556 0.12966 0.0
H4682 H 0.52329 0.67679 0.08081 0.0
H4683 H 0.52036 0.70671 0.09777 0.0
H4684 H 0.50346 0.64439 0.07795 0.0
H4685 H 0.5665 0.66186 0.09751 0.0
H4686 H 0.5918 0.67152 0.11924 0.0
H4687 H 0.58387 0.61917 0.14731 0.0
H4688 H 0.55832 0.60932 0.12588 0.0
H4689 H 0.53751 0.57017 0.0235 0.0
H4690 H 0.53862 0.60052 0.04009 0.0
H4691 H 0.53153 0.57032 0.08895 0.0
H4692 H 0.53019 0.53986 0.07246 0.0
H4693 H 0.55825 0.60249 0.09089 0.0
H4694 H 0.49501 0.58527 0.06996 0.0
H4695 H 0.47171 0.57545 0.04643 0.0
H4696 H 0.48083 0.62839 0.01972 0.0
H4697 H 0.50493 0.63815 0.04262 0.0
C4698 C 0.52506 0.67591 0.13229 0.0
C4699 C 0.52302 0.69343 0.12356 0.0
C4700 C 0.52648 0.65886 0.12259 0.0
C4701 C 0.52625 0.659 0.10397 0.0
C4702 C 0.52359 0.67637 0.09518 0.0
C4703 C 0.52195 0.69345 0.10489 0.0
C4704 C 0.52916 0.64103 0.09374 0.0
C4705 C 0.51558 0.63538 0.08061 0.0
C4706 C 0.54487 0.62914 0.09736 0.0
C4707 C 0.56038 0.63493 0.11017 0.0
C4708 C 0.57006 0.65246 0.10838 0.0
C4709 C 0.58446 0.65797 0.12064 0.0
C4710 C 0.58941 0.64599 0.13468 0.0
C4711 C 0.58001 0.62845 0.13645 0.0
C4712 C 0.56558 0.62289 0.12424 0.0
C4713 C 0.53659 0.56993 0.03781 0.0
C4714 C 0.53357 0.55265 0.04667 0.0
C4715 C 0.53719 0.58728 0.04725 0.0
C4716 C 0.53494 0.58759 0.06566 0.0
C4717 C 0.53326 0.57031 0.07471 0.0
C4718 C 0.53243 0.55295 0.06527 0.0
C4719 C 0.53257 0.60594 0.07524 0.0
C4720 C 0.54621 0.6116 0.08822 0.0
C4721 C 0.51702 0.61791 0.07136 0.0
C4722 C 0.50199 0.61235 0.05792 0.0
C4723 C 0.49222 0.59475 0.05898 0.0
C4724 C 0.47884 0.58919 0.04576 0.0
C4725 C 0.47473 0.60131 0.03163 0.0
C4726 C 0.48403 0.61901 0.03067 0.0
C4727 C 0.49762 0.62453 0.04373 0.0
H4728 H 0.46433 0.59699 0.02143 0.0
H4729 H 0.60055 0.65027 0.14416 0.0
H4730 H 0.06857 0.76903 0.8384 0.0
H4731 H 0.09307 0.78161 0.81972 0.0
H4732 H 0.05062 0.80671 0.78527 0.0
H4733 H 0.02568 0.79424 0.8042 0.0
H4734 H 0.08836 0.78357 0.77109 0.0
H4735 H 0.06576 0.83835 0.80346 0.0
H4736 H 0.05308 0.8535 0.83028 0.0
H4737 H 0.10363 0.83931 0.8601 0.0
H4738 H 0.11645 0.82376 0.83355 0.0
H4739 H 0.17854 0.81275 0.74692 0.0
H4740 H 0.14538 0.8208 0.75135 0.0
H4741 H 0.15264 0.80857 0.8071 0.0
H4742 H 0.1856 0.80078 0.80282 0.0
H4743 H 0.12603 0.83513 0.8022 0.0
H4744 H 0.14213 0.77259 0.77651 0.0
H4745 H 0.15598 0.75239 0.75327 0.0
H4746 H 0.11894 0.77722 0.71386 0.0
H4747 H 0.10508 0.79777 0.73689 0.0
C4748 C 0.06435 0.77694 0.8267 0.0
C4749 C 0.04525 0.78086 0.82285 0.0
C4750 C 0.07836 0.7841 0.81606 0.0
C4751 C 0.07355 0.79525 0.80136 0.0
C4752 C 0.05447 0.79816 0.79666 0.0
C4753 C 0.04032 0.791 0.80742 0.0
C4754 C 0.08897 0.80476 0.7921 0.0
C4755 C 0.09626 0.79542 0.77732 0.0
C4756 C 0.09935 0.81987 0.80064 0.0
C4757 C 0.09205 0.82988 0.8165 0.0
C4758 C 0.07414 0.83841 0.81575 0.0
C4759 C 0.06692 0.84705 0.83091 0.0
C4760 C 0.07754 0.84736 0.84689 0.0
C4761 C 0.09543 0.83908 0.84771 0.0
C4762 C 0.10269 0.83038 0.8326 0.0
C4763 C 0.17315 0.81237 0.76021 0.0
C4764 C 0.1845 0.80579 0.77447 0.0
C4765 C 0.15426 0.81703 0.76272 0.0
C4766 C 0.14647 0.81486 0.77946 0.0
C4767 C 0.15835 0.81034 0.79405 0.0
C4768 C 0.17723 0.80585 0.79159 0.0
C4769 C 0.12574 0.81356 0.78146 0.0
C4770 C 0.11761 0.82422 0.7951 0.0
C4771 C 0.1147 0.79939 0.77208 0.0
C4772 C 0.12275 0.78684 0.75833 0.0
C4773 C 0.13701 0.77377 0.76287 0.0
C4774 C 0.14486 0.76228 0.74975 0.0
C4775 C 0.13838 0.76356 0.73209 0.0
C4776 C 0.12398 0.77629 0.72754 0.0
C4777 C 0.11613 0.78787 0.74061 0.0
H4778 H 0.14447 0.75466 0.72194 0.0
H4779 H 0.07191 0.85402 0.85862 0.0
H4780 H 0.01075 0.33272 0.63608 0.0
H4781 H 0.00811 0.36146 0.61829 0.0
H4782 H 0.01504 0.32768 0.57057 0.0
H4783 H 0.0181 0.29882 0.58838 0.0
H4784 H 0.03724 0.35886 0.57083 0.0
H4785 H 0.97184 0.34594 0.5807 0.0
H4786 H 0.94385 0.33881 0.59824 0.0
H4787 H 0.95202 0.39178 0.62727 0.0
H4788 H 0.98023 0.39911 0.61007 0.0
H4789 H 0.0089 0.43469 0.51293 0.0
H4790 H 0.00806 0.40431 0.52875 0.0
H4791 H 0.01491 0.43484 0.57878 0.0
H4792 H 0.01625 0.46522 0.56309 0.0
H4793 H 0.98458 0.40474 0.57578 0.0
H4794 H 0.05047 0.41692 0.56676 0.0
H4795 H 0.07741 0.42505 0.54844 0.0
H4796 H 0.06835 0.37331 0.51771 0.0
H4797 H 0.04068 0.36525 0.53544 0.0
C4798 C 0.01152 0.33136 0.62179 0.0
C4799 C 0.01461 0.31351 0.61362 0.0
C4800 C 0.00995 0.3478 0.61163 0.0
C4801 C 0.01119 0.34668 0.59309 0.0
C4802 C 0.01402 0.32884 0.58486 0.0
C4803 C 0.01569 0.31237 0.59504 0.0
C4804 C 0.0103 0.36429 0.58244 0.0
C4805 C 0.02555 0.3687 0.57166 0.0
C4806 C -0.00476 0.37734 0.58384 0.0
C4807 C 0.97825 0.373 0.59419 0.0
C4808 C 0.96776 0.356 0.59092 0.0
C4809 C 0.95184 0.35194 0.60078 0.0
C4810 C 0.94619 0.36482 0.61388 0.0
C4811 C 0.95642 0.38181 0.61712 0.0
C4812 C 0.97237 0.38594 0.6073 0.0
C4813 C 0.01018 0.43491 0.5273 0.0
C4814 C 0.01269 0.45226 0.5368 0.0
C4815 C 0.0097 0.4176 0.53628 0.0
C4816 C 0.0114 0.41746 0.55486 0.0
C4817 C 0.01352 0.43476 0.56441 0.0
C4818 C 0.01439 0.45204 0.55544 0.0
C4819 C 0.01148 0.39919 0.56435 0.0
C4820 C -0.00387 0.39473 0.57487 0.0
C4821 C 0.02641 0.3861 0.5627 0.0
C4822 C 0.0433 0.39062 0.55227 0.0
C4823 C 0.05404 0.40737 0.55596 0.0
C4824 C 0.0695 0.41196 0.54569 0.0
C4825 C 0.07466 0.3997 0.53191 0.0
C4826 C 0.06433 0.38281 0.52837 0.0
C4827 C 0.0487 0.37826 0.5385 0.0
H4828 H 0.08667 0.40327 0.52399 0.0
H4829 H 0.93385 0.36164 0.62151 0.0
H4830 H 0.46892 0.27687 0.33277 0.0
H4831 H 0.44566 0.25073 0.32943 0.0
H4832 H 0.41117 0.27814 0.36844 0.0
H4833 H 0.43529 0.3035 0.37275 0.0
H4834 H 0.40681 0.2411 0.37073 0.0
H4835 H 0.40638 0.28639 0.32289 0.0
H4836 H 0.42103 0.30437 0.2989 0.0
H4837 H 0.43248 0.25172 0.2714 0.0
H4838 H 0.41838 0.23339 0.29552 0.0
H4839 H 0.31437 0.24046 0.33446 0.0
H4840 H 0.34509 0.24041 0.34987 0.0
H4841 H 0.36594 0.2014 0.31033 0.0
H4842 H 0.33529 0.20187 0.2945 0.0
H4843 H 0.38176 0.23561 0.30859 0.0
H4844 H 0.37146 0.19219 0.35559 0.0
H4845 H 0.35296 0.17833 0.37952 0.0
H4846 H 0.3567 0.23164 0.40856 0.0
H4847 H 0.37498 0.24594 0.38473 0.0
C4848 C 0.45639 0.27716 0.34066 0.0
C4849 C 0.45343 0.29231 0.35262 0.0
C4850 C 0.4432 0.26222 0.33885 0.0
C4851 C 0.42646 0.26272 0.34838 0.0
C4852 C 0.42396 0.27747 0.36093 0.0
C4853 C 0.43751 0.29208 0.36318 0.0
C4854 C 0.41055 0.24944 0.34364 0.0
C4855 C 0.40129 0.23979 0.35716 0.0
C4856 C 0.40359 0.2475 0.32587 0.0
C4857 C 0.4116 0.25852 0.31113 0.0
C4858 C 0.41216 0.27865 0.31179 0.0
C4859 C 0.42045 0.28889 0.29823 0.0
C4860 C 0.42779 0.27918 0.28369 0.0
C4861 C 0.42686 0.25921 0.2827 0.0
C4862 C 0.41879 0.24888 0.29635 0.0
C4863 C 0.32519 0.23114 0.32949 0.0
C4864 C 0.3227 0.22168 0.31298 0.0
C4865 C 0.34278 0.23101 0.33842 0.0
C4866 C 0.35792 0.22113 0.33109 0.0
C4867 C 0.35448 0.20924 0.31612 0.0
C4868 C 0.33698 0.20959 0.30705 0.0
C4869 C 0.37751 0.22758 0.33572 0.0
C4870 C 0.38753 0.23617 0.32212 0.0
C4871 C 0.38466 0.22902 0.35345 0.0
C4872 C 0.37452 0.22018 0.36827 0.0
C4873 C 0.36831 0.20099 0.36706 0.0
C4874 C 0.35783 0.19306 0.3806 0.0
C4875 C 0.35351 0.20417 0.39546 0.0
C4876 C 0.35997 0.2231 0.39699 0.0
C4877 C 0.37045 0.23111 0.38349 0.0
H4878 H 0.34519 0.19809 0.40582 0.0
H4879 H 0.43408 0.28715 0.27313 0.0
H4880 H 0.45729 0.49755 0.33027 0.0
H4881 H 0.46282 0.49545 0.36223 0.0
H4882 H 0.40381 0.50634 0.37056 0.0
H4883 H 0.39816 0.50887 0.33848 0.0
H4884 H 0.42548 0.52642 0.39359 0.0
H4885 H 0.42085 0.46143 0.37575 0.0
H4886 H 0.42646 0.43209 0.35824 0.0
H4887 H 0.48543 0.43466 0.3737 0.0
H4888 H 0.48027 0.4642 0.39107 0.0
H4889 H 0.45513 0.50285 0.48519 0.0
H4890 H 0.4367 0.50097 0.45691 0.0
H4891 H 0.48845 0.50313 0.42823 0.0
H4892 H 0.50681 0.5053 0.45604 0.0
H4893 H 0.46175 0.47212 0.41839 0.0
H4894 H 0.46562 0.54151 0.43043 0.0
H4895 H 0.45916 0.5702 0.4486 0.0
H4896 H 0.39959 0.55736 0.44484 0.0
H4897 H 0.40576 0.52843 0.42682 0.0
C4898 C 0.44547 0.49953 0.33886 0.0
C4899 C 0.42728 0.50329 0.33182 0.0
C4900 C 0.44862 0.49818 0.35713 0.0
C4901 C 0.43362 0.50029 0.36871 0.0
C4902 C 0.41552 0.50449 0.36181 0.0
C4903 C 0.41236 0.50596 0.34349 0.0
C4904 C 0.43723 0.49869 0.38806 0.0
C4905 C 0.43299 0.51432 0.3991 0.0
C4906 C 0.4469 0.48283 0.39527 0.0
C4907 C 0.45016 0.46513 0.38467 0.0
C4908 C 0.43505 0.45585 0.37531 0.0
C4909 C 0.43815 0.43915 0.36542 0.0
C4910 C 0.45629 0.43152 0.36485 0.0
C4911 C 0.47138 0.44058 0.37416 0.0
C4912 C 0.46837 0.45729 0.38405 0.0
C4913 C 0.46251 0.50303 0.47282 0.0
C4914 C 0.48239 0.50421 0.4728 0.0
C4915 C 0.452 0.50194 0.45676 0.0
C4916 C 0.46132 0.50179 0.44063 0.0
C4917 C 0.48109 0.50311 0.44062 0.0
C4918 C 0.49153 0.50444 0.45653 0.0
C4919 C 0.45087 0.5002 0.42346 0.0
C4920 C 0.45374 0.48391 0.4129 0.0
C4921 C 0.43982 0.5153 0.41676 0.0
C4922 C 0.43616 0.5327 0.42751 0.0
C4923 C 0.45117 0.54471 0.43363 0.0
C4924 C 0.44756 0.56104 0.44386 0.0
C4925 C 0.42898 0.56557 0.44793 0.0
C4926 C 0.41398 0.55381 0.44172 0.0
C4927 C 0.41752 0.53745 0.4315 0.0
H4928 H 0.42621 0.57821 0.45585 0.0
H4929 H 0.45865 0.41858 0.35721 0.0
H4930 H 0.24144 0.67046 0.03499 0.0
H4931 H 0.23372 0.68838 0.06183 0.0
H4932 H 0.23449 0.63609 0.09159 0.0
H4933 H 0.24132 0.61801 0.06461 0.0
H4934 H 0.20734 0.65721 0.1026 0.0
H4935 H 0.27321 0.66846 0.09139 0.0
H4936 H 0.30038 0.67832 0.07379 0.0
H4937 H 0.27788 0.7349 0.06948 0.0
H4938 H 0.25045 0.7253 0.08689 0.0
H4939 H 0.23532 0.69146 0.18894 0.0
H4940 H 0.23089 0.6764 0.15969 0.0
H4941 H 0.22153 0.73166 0.13652 0.0
H4942 H 0.22556 0.74689 0.16589 0.0
H4943 H 0.24975 0.71159 0.1209 0.0
H4944 H 0.18573 0.69977 0.13695 0.0
H4945 H 0.16042 0.6886 0.15616 0.0
H4946 H 0.18165 0.63138 0.15334 0.0
H4947 H 0.20725 0.64225 0.13431 0.0
C4948 C 0.23992 0.6628 0.04726 0.0
C4949 C 0.24225 0.64289 0.04779 0.0
C4950 C 0.23552 0.67305 0.06259 0.0
C4951 C 0.23392 0.66364 0.07881 0.0
C4952 C 0.2357 0.64367 0.07923 0.0
C4953 C 0.23971 0.63337 0.06383 0.0
C4954 C 0.23123 0.67463 0.09552 0.0
C4955 C 0.21669 0.66903 0.10666 0.0
C4956 C 0.24319 0.69029 0.10067 0.0
C4957 C 0.25969 0.6961 0.09026 0.0
C4958 C 0.274 0.68296 0.08658 0.0
C4959 C 0.28945 0.68851 0.07666 0.0
C4960 C 0.29082 0.7072 0.07048 0.0
C4961 C 0.27678 0.72041 0.07425 0.0
C4962 C 0.26128 0.71493 0.08415 0.0
C4963 C 0.23174 0.70039 0.17774 0.0
C4964 C 0.23087 0.72041 0.17975 0.0
C4965 C 0.22925 0.69175 0.16101 0.0
C4966 C 0.22581 0.70292 0.14598 0.0
C4967 C 0.22418 0.72281 0.14799 0.0
C4968 C 0.22659 0.73148 0.16475 0.0
C4969 C 0.22603 0.69403 0.12806 0.0
C4970 C 0.24019 0.69998 0.1167 0.0
C4971 C 0.21397 0.67848 0.12293 0.0
C4972 C 0.1985 0.67187 0.13429 0.0
C4973 C 0.18509 0.68483 0.14053 0.0
C4974 C 0.17067 0.67854 0.15137 0.0
C4975 C 0.16945 0.6593 0.15599 0.0
C4976 C 0.18261 0.64629 0.14975 0.0
C4977 C 0.19707 0.6525 0.13891 0.0
H4978 H 0.15828 0.65446 0.16439 0.0
H4979 H 0.30279 0.71147 0.0628 0.0
H4980 H 0.07151 0.51767 0.81581 0.0
H4981 H 0.06068 0.51719 0.8463 0.0
H4982 H 0.10556 0.47867 0.86084 0.0
H4983 H 0.11663 0.47916 0.83042 0.0
H4984 H 0.0691 0.46844 0.87368 0.0
H4985 H 0.11204 0.52229 0.87227 0.0
H4986 H 0.12468 0.55245 0.86059 0.0
H4987 H 0.0719 0.57999 0.86991 0.0
H4988 H 0.05884 0.5499 0.88141 0.0
H4989 H 0.05978 0.47876 0.96722 0.0
H4990 H 0.07198 0.47675 0.93726 0.0
H4991 H 0.03613 0.52335 0.92118 0.0
H4992 H 0.02431 0.5258 0.95113 0.0
H4993 H 0.06979 0.52875 0.90935 0.0
H4994 H 0.02599 0.47551 0.90951 0.0
H4995 H 0.01233 0.44555 0.92066 0.0
H4996 H 0.06499 0.41707 0.9131 0.0
H4997 H 0.07904 0.44695 0.90212 0.0
C4998 C 0.07901 0.509 0.82546 0.0
C4999 C 0.09497 0.49852 0.82074 0.0
C5000 C 0.07285 0.5088 0.84285 0.0
C5001 C 0.08244 0.49801 0.85575 0.0
C5002 C 0.09803 0.4871 0.85102 0.0
C5003 C 0.10436 0.48747 0.83367 0.0
C5004 C 0.07638 0.49845 0.8743 0.0
C5005 C 0.06945 0.48154 0.88161 0.0
C5006 C 0.07656 0.51565 0.88439 0.0
C5007 C 0.0844 0.53378 0.87753 0.0
C5008 C 0.10307 0.53473 0.87168 0.0
C5009 C 0.11032 0.55182 0.86512 0.0
C5010 C 0.09909 0.56811 0.86446 0.0
C5011 C 0.08058 0.56735 0.87041 0.0
C5012 C 0.07325 0.55029 0.87695 0.0
C5013 C 0.05443 0.48849 0.95725 0.0
C5014 C 0.04106 0.5024 0.96149 0.0
C5015 C 0.06136 0.48729 0.94013 0.0
C5016 C 0.05481 0.49977 0.92693 0.0
C5017 C 0.04142 0.5136 0.93116 0.0
C5018 C 0.03463 0.51494 0.94828 0.0
C5019 C 0.06212 0.49878 0.90876 0.0
C5020 C 0.06941 0.5156 0.90149 0.0
C5021 C 0.06207 0.48152 0.89866 0.0
C5022 C 0.05361 0.46352 0.90517 0.0
C5023 C 0.03469 0.4629 0.91035 0.0
C5024 C 0.02687 0.44592 0.91662 0.0
C5025 C 0.0378 0.42943 0.91764 0.0
C5026 C 0.05655 0.42987 0.91233 0.0
C5027 C 0.06444 0.44681 0.90607 0.0
H5028 H 0.03172 0.4163 0.9225 0.0
H5029 H 0.10473 0.58134 0.85939 0.0
H5030 H 0.26172 0.3124 0.55469 0.0
H5031 H 0.27952 0.29161 0.57475 0.0
H5032 H 0.30328 0.34109 0.60264 0.0
H5033 H 0.28552 0.36203 0.58267 0.0
H5034 H 0.32775 0.30626 0.60207 0.0
H5035 H 0.26505 0.32898 0.61728 0.0
H5036 H 0.23129 0.33463 0.61017 0.0
H5037 H 0.22241 0.27459 0.59948 0.0
H5038 H 0.25624 0.26867 0.60627 0.0
H5039 H 0.32849 0.28588 0.69446 0.0
H5040 H 0.32953 0.29603 0.66378 0.0
H5041 H 0.29356 0.24823 0.64741 0.0
H5042 H 0.2906 0.23924 0.67792 0.0
H5043 H 0.2775 0.27902 0.63895 0.0
H5044 H 0.3399 0.25576 0.63172 0.0
H5045 H 0.37373 0.25111 0.63915 0.0
H5046 H 0.38401 0.31157 0.63559 0.0
H5047 H 0.35019 0.31665 0.62839 0.0
C5048 C 0.27111 0.31886 0.56479 0.0
C5049 C 0.27181 0.33878 0.5675 0.0
C5050 C 0.28142 0.30698 0.57609 0.0
C5051 C 0.29254 0.31488 0.5902 0.0
C5052 C 0.29481 0.33478 0.59177 0.0
C5053 C 0.28442 0.34668 0.58053 0.0
C5054 C 0.2978 0.30292 0.60544 0.0
C5055 C 0.3169 0.30017 0.6102 0.0
C5056 C 0.28353 0.29496 0.61582 0.0
C5057 C 0.26316 0.29843 0.61205 0.0
C5058 C 0.25591 0.31702 0.61328 0.0
C5059 C 0.23678 0.32027 0.60932 0.0
C5060 C 0.22473 0.30499 0.60432 0.0
C5061 C 0.23178 0.28642 0.60332 0.0
C5062 C 0.25092 0.28311 0.60722 0.0
C5063 C 0.3208 0.27745 0.68439 0.0
C5064 C 0.30891 0.26209 0.689 0.0
C5065 C 0.32181 0.28304 0.66671 0.0
C5066 C 0.31148 0.27298 0.65328 0.0
C5067 C 0.30154 0.2563 0.65758 0.0
C5068 C 0.30002 0.25107 0.67522 0.0
C5069 C 0.30768 0.28182 0.6358 0.0
C5070 C 0.28862 0.28439 0.63069 0.0
C5071 C 0.32208 0.28956 0.62529 0.0
C5072 C 0.34245 0.28659 0.62963 0.0
C5073 C 0.34934 0.26809 0.63266 0.0
C5074 C 0.36852 0.26537 0.6368 0.0
C5075 C 0.381 0.28104 0.63787 0.0
C5076 C 0.37433 0.29945 0.63476 0.0
C5077 C 0.35515 0.30225 0.63062 0.0
H5078 H 0.39585 0.2789 0.64108 0.0
H5079 H 0.20991 0.30752 0.60126 0.0
H5080 H 0.3937 0.51351 0.212 0.0
H5081 H 0.41056 0.50171 0.18639 0.0
H5082 H 0.46313 0.50405 0.21714 0.0
H5083 H 0.44638 0.5161 0.24285 0.0
H5084 H 0.46738 0.51567 0.18293 0.0
H5085 H 0.44113 0.46258 0.21245 0.0
H5086 H 0.41628 0.44401 0.22695 0.0
H5087 H 0.38362 0.44095 0.1779 0.0
H5088 H 0.4081 0.45983 0.16318 0.0
H5089 H 0.51035 0.46132 0.11612 0.0
H5090 H 0.49799 0.46469 0.14592 0.0
H5091 H 0.44263 0.47634 0.12329 0.0
H5092 H 0.45489 0.47409 0.09362 0.0
H5093 H 0.44364 0.45402 0.15645 0.0
H5094 H 0.46791 0.5125 0.12957 0.0
H5095 H 0.49303 0.53088 0.11523 0.0
H5096 H 0.53037 0.52261 0.16049 0.0
H5097 H 0.50553 0.50386 0.17496 0.0
C5098 C 0.40889 0.51182 0.21324 0.0
C5099 C 0.41869 0.51547 0.22948 0.0
C5100 C 0.41848 0.50497 0.19864 0.0
C5101 C 0.43797 0.50156 0.20008 0.0
C5102 C 0.44803 0.50642 0.21588 0.0
C5103 C 0.43845 0.51332 0.23051 0.0
C5104 C 0.44756 0.49223 0.18523 0.0
C5105 C 0.46246 0.50201 0.17738 0.0
C5106 C 0.44108 0.47439 0.17802 0.0
C5107 C 0.42641 0.46275 0.18673 0.0
C5108 C 0.42859 0.45806 0.20477 0.0
C5109 C 0.41457 0.44747 0.21304 0.0
C5110 C 0.39837 0.44133 0.20336 0.0
C5111 C 0.39618 0.44572 0.18538 0.0
C5112 C 0.41013 0.45636 0.17707 0.0
C5113 C 0.49548 0.46434 0.11746 0.0
C5114 C 0.48374 0.46788 0.10244 0.0
C5115 C 0.48843 0.46603 0.13448 0.0
C5116 C 0.4695 0.47095 0.13667 0.0
C5117 C 0.45728 0.47246 0.12178 0.0
C5118 C 0.46436 0.47109 0.10478 0.0
C5119 C 0.46309 0.47768 0.15404 0.0
C5120 C 0.44879 0.46745 0.16231 0.0
C5121 C 0.4702 0.49501 0.16175 0.0
C5122 C 0.48497 0.5066 0.15324 0.0
C5123 C 0.48153 0.51447 0.1364 0.0
C5124 C 0.4957 0.52497 0.12825 0.0
C5125 C 0.5133 0.52786 0.13692 0.0
C5126 C 0.51674 0.52032 0.15378 0.0
C5127 C 0.50263 0.50975 0.16195 0.0
H5128 H 0.52426 0.53599 0.1306 0.0
H5129 H 0.38753 0.43313 0.20978 0.0
H5130 H 0.26744 0.69618 0.96516 0.0
H5131 H 0.27044 0.71793 0.94022 0.0
H5132 H 0.29899 0.6741 0.91081 0.0
H5133 H 0.29617 0.65236 0.93563 0.0
H5134 H 0.31348 0.71056 0.90496 0.0
H5135 H 0.252 0.67767 0.90647 0.0
H5136 H 0.22207 0.66938 0.92063 0.0
H5137 H 0.20825 0.72893 0.92438 0.0
H5138 H 0.23824 0.73756 0.91043 0.0
H5139 H 0.29319 0.71361 0.81446 0.0
H5140 H 0.29695 0.70704 0.84593 0.0
H5141 H 0.26063 0.75429 0.85821 0.0
H5142 H 0.25624 0.76059 0.8264 0.0
H5143 H 0.25107 0.72451 0.87629 0.0
H5144 H 0.30949 0.75647 0.86784 0.0
H5145 H 0.33919 0.76426 0.85312 0.0
H5146 H 0.35914 0.70737 0.86225 0.0
H5147 H 0.32946 0.69914 0.87679 0.0
C5148 C 0.27474 0.69133 0.95353 0.0
C5149 C 0.28133 0.67248 0.95222 0.0
C5150 C 0.27642 0.70377 0.93932 0.0
C5151 C 0.2847 0.69749 0.92363 0.0
C5152 C 0.29254 0.67919 0.92282 0.0
C5153 C 0.29083 0.66675 0.93698 0.0
C5154 C 0.28327 0.70888 0.90729 0.0
C5155 C 0.29988 0.71372 0.89866 0.0
C5156 C 0.26549 0.71347 0.89941 0.0
C5157 C 0.24743 0.70826 0.90763 0.0
C5158 C 0.24263 0.68899 0.91043 0.0
C5159 C 0.22565 0.68423 0.9184 0.0
C5160 C 0.2133 0.69862 0.92345 0.0
C5161 C 0.21786 0.7178 0.92049 0.0
C5162 C 0.23483 0.72263 0.91256 0.0
C5163 C 0.28609 0.72273 0.82383 0.0
C5164 C 0.27444 0.73765 0.81797 0.0
C5165 C 0.2884 0.71905 0.84186 0.0
C5166 C 0.27946 0.73047 0.85448 0.0
C5167 C 0.26781 0.74542 0.8487 0.0
C5168 C 0.26528 0.74898 0.83056 0.0
C5169 C 0.28132 0.72568 0.87355 0.0
C5170 C 0.26475 0.72201 0.88273 0.0
C5171 C 0.29916 0.72223 0.88192 0.0
C5172 C 0.31719 0.72718 0.87338 0.0
C5173 C 0.32017 0.74559 0.86664 0.0
C5174 C 0.33701 0.75008 0.85833 0.0
C5175 C 0.35103 0.73632 0.85674 0.0
C5176 C 0.34827 0.71803 0.8635 0.0
C5177 C 0.33145 0.71345 0.87182 0.0
H5178 H 0.36405 0.73982 0.85029 0.0
H5179 H 0.20016 0.69491 0.92962 0.0
H5180 H 0.15038 0.48465 0.71073 0.0
H5181 H 0.14004 0.49544 0.68138 0.0
H5182 H 0.08226 0.49649 0.69799 0.0
H5183 H 0.09247 0.48571 0.72752 0.0
H5184 H 0.08695 0.48339 0.66206 0.0
H5185 H 0.10516 0.53604 0.70177 0.0
H5186 H 0.12742 0.55168 0.72351 0.0
H5187 H 0.16979 0.55441 0.68407 0.0
H5188 H 0.14784 0.53854 0.66215 0.0
H5189 H 0.04504 0.54895 0.60675 0.0
H5190 H 0.06188 0.54411 0.63512 0.0
H5191 H 0.11088 0.52521 0.60755 0.0
H5192 H 0.09403 0.52959 0.57909 0.0
H5193 H 0.11196 0.54822 0.64859 0.0
H5194 H 0.09609 0.48861 0.61216 0.0
H5195 H 0.07418 0.47258 0.59029 0.0
H5196 H 0.02748 0.48434 0.62366 0.0
H5197 H 0.0492 0.50049 0.64566 0.0
C5198 C 0.13541 0.48677 0.70804 0.0
C5199 C 0.12224 0.48466 0.72148 0.0
C5200 C 0.12956 0.49294 0.6913 0.0
C5201 C 0.11049 0.49707 0.68776 0.0
C5202 C 0.09707 0.49344 0.70061 0.0
C5203 C 0.10292 0.4873 0.71743 0.0
C5204 C 0.10489 0.50689 0.6713 0.0
C5205 C 0.09238 0.49755 0.65917 0.0
C5206 C 0.11211 0.52535 0.66755 0.0
C5207 C 0.12493 0.53594 0.68037 0.0
C5208 C 0.11924 0.53994 0.69774 0.0
C5209 C 0.13181 0.5488 0.71011 0.0
C5210 C 0.15006 0.55386 0.70522 0.0
C5211 C 0.15568 0.55036 0.68787 0.0
C5212 C 0.14317 0.54147 0.67545 0.0
C5213 C 0.05966 0.54447 0.60673 0.0
C5214 C 0.06811 0.53923 0.59079 0.0
C5215 C 0.0693 0.54191 0.62292 0.0
C5216 C 0.0875 0.53423 0.62329 0.0
C5217 C 0.09688 0.53134 0.60741 0.0
C5218 C 0.0872 0.53381 0.59117 0.0
C5219 C 0.09423 0.52457 0.63943 0.0
C5220 C 0.10676 0.53398 0.6515 0.0
C5221 C 0.08714 0.50615 0.64319 0.0
C5222 C 0.0742 0.4957 0.63048 0.0
C5223 C 0.08115 0.48769 0.61482 0.0
C5224 C 0.06878 0.47863 0.6024 0.0
C5225 C 0.04943 0.47746 0.60557 0.0
C5226 C 0.04246 0.48525 0.62122 0.0
C5227 C 0.05479 0.49431 0.63369 0.0
H5228 H 0.03986 0.4705 0.59592 0.0
H5229 H 0.1598 0.56064 0.71484 0.0
H5230 H 0.21364 0.38983 0.46242 0.0
H5231 H 0.21029 0.37181 0.43438 0.0
H5232 H 0.20782 0.319 0.46331 0.0
H5233 H 0.21236 0.33691 0.4912 0.0
H5234 H 0.23051 0.31439 0.43922 0.0
H5235 H 0.16832 0.33881 0.43924 0.0
H5236 H 0.14344 0.363 0.44186 0.0
H5237 H 0.16437 0.39214 0.39662 0.0
H5238 H 0.18959 0.36831 0.39389 0.0
H5239 H 0.21602 0.26175 0.3586 0.0
H5240 H 0.20482 0.27713 0.3856 0.0
H5241 H 0.2278 0.33118 0.36921 0.0
H5242 H 0.24004 0.31595 0.34284 0.0
H5243 H 0.18991 0.33186 0.38714 0.0
H5244 H 0.25553 0.30897 0.39269 0.0
H5245 H 0.27914 0.28344 0.39041 0.0
H5246 H 0.24803 0.24913 0.42648 0.0
H5247 H 0.22407 0.27438 0.42873 0.0
C5248 C 0.21224 0.37439 0.46272 0.0
C5249 C 0.21345 0.36472 0.47889 0.0
C5250 C 0.21012 0.36409 0.44672 0.0
C5251 C 0.20856 0.344 0.44669 0.0
C5252 C 0.20907 0.33445 0.46295 0.0
C5253 C 0.2117 0.34469 0.47887 0.0
C5254 C 0.20818 0.33284 0.42976 0.0
C5255 C 0.22123 0.31799 0.42805 0.0
C5256 C 0.19625 0.33753 0.415 0.0
C5257 C 0.18096 0.35181 0.41644 0.0
C5258 C 0.16771 0.35044 0.42991 0.0
C5259 C 0.15353 0.36408 0.43141 0.0
C5260 C 0.15235 0.37911 0.41944 0.0
C5261 C 0.16531 0.38049 0.4059 0.0
C5262 C 0.17954 0.3669 0.40435 0.0
C5263 C 0.21867 0.27692 0.36067 0.0
C5264 C 0.2292 0.28749 0.34857 0.0
C5265 C 0.21199 0.28571 0.37597 0.0
C5266 C 0.21547 0.30525 0.37927 0.0
C5267 C 0.22478 0.31612 0.36671 0.0
C5268 C 0.23176 0.30732 0.3516 0.0
C5269 C 0.21221 0.31378 0.3969 0.0
C5270 C 0.19868 0.32813 0.39862 0.0
C5271 C 0.22337 0.30843 0.41184 0.0
C5272 C 0.23793 0.29343 0.41071 0.0
C5273 C 0.25366 0.29592 0.40002 0.0
C5274 C 0.26711 0.28151 0.39875 0.0
C5275 C 0.26506 0.26464 0.40825 0.0
C5276 C 0.24958 0.26218 0.4191 0.0
C5277 C 0.23607 0.27653 0.42038 0.0
H5278 H 0.27548 0.25351 0.40725 0.0
H5279 H 0.14138 0.38968 0.42064 0.0
H5280 H 0.27883 0.43839 0.50646 0.0
H5281 H 0.31221 0.44802 0.5117 0.0
H5282 H 0.30892 0.43134 0.56647 0.0
H5283 H 0.27618 0.42091 0.56101 0.0
H5284 H 0.33242 0.47189 0.53226 0.0
H5285 H 0.34725 0.40867 0.58009 0.0
H5286 H 0.33502 0.37598 0.58489 0.0
H5287 H 0.31591 0.37183 0.53028 0.0
H5288 H 0.32823 0.40435 0.52509 0.0
H5289 H 0.42043 0.49079 0.57253 0.0
H5290 H 0.3872 0.48045 0.5706 0.0
H5291 H 0.40247 0.43098 0.53947 0.0
H5292 H 0.43568 0.44104 0.54171 0.0
H5293 H 0.37364 0.42239 0.55925 0.0
H5294 H 0.38962 0.47153 0.51921 0.0
H5295 H 0.40281 0.50264 0.51036 0.0
H5296 H 0.36213 0.53188 0.54161 0.0
H5297 H 0.34891 0.50091 0.55091 0.0
C5298 C 0.28528 0.43712 0.51963 0.0
C5299 C 0.27524 0.42878 0.53331 0.0
C5300 C 0.30425 0.44257 0.52262 0.0
C5301 C 0.31313 0.43989 0.53936 0.0
C5302 C 0.30251 0.43299 0.55333 0.0
C5303 C 0.28382 0.42717 0.55025 0.0
C5304 C 0.33371 0.44318 0.54216 0.0
C5305 C 0.34143 0.46109 0.53817 0.0
C5306 C 0.34556 0.42883 0.54935 0.0
C5307 C 0.33855 0.40902 0.55225 0.0
C5308 C 0.34055 0.40073 0.56908 0.0
C5309 C 0.33357 0.38224 0.57188 0.0
C5310 C 0.32467 0.37186 0.55791 0.0
C5311 C 0.32277 0.37991 0.5411 0.0
C5312 C 0.32974 0.39837 0.53823 0.0
C5313 C 0.41671 0.4774 0.56578 0.0
C5314 C 0.4305 0.46676 0.55716 0.0
C5315 C 0.39777 0.47158 0.56458 0.0
C5316 C 0.39238 0.45525 0.55447 0.0
C5317 C 0.40635 0.44369 0.54724 0.0
C5318 C 0.42532 0.44939 0.54861 0.0
C5319 C 0.37221 0.45131 0.54991 0.0
C5320 C 0.3646 0.43322 0.55344 0.0
C5321 C 0.36065 0.46523 0.54162 0.0
C5322 C 0.3684 0.4839 0.53589 0.0
C5323 C 0.38357 0.48459 0.52429 0.0
C5324 C 0.39105 0.5022 0.51919 0.0
C5325 C 0.38334 0.51923 0.52545 0.0
C5326 C 0.36811 0.51868 0.53679 0.0
C5327 C 0.36061 0.5011 0.54198 0.0
H5328 H 0.38915 0.53285 0.52148 0.0
H5329 H 0.31929 0.35755 0.56009 0.0
H5330 H 0.81993 0.0953 0.48269 0.0
H5331 H 0.85121 0.08097 0.48313 0.0
H5332 H 0.83176 0.03705 0.51799 0.0
H5333 H 0.80034 0.05134 0.51773 0.0
H5334 H 0.86539 0.0537 0.52963 0.0
H5335 H 0.83916 0.02585 0.47566 0.0
H5336 H 0.82303 0.02588 0.44615 0.0
H5337 H 0.86739 0.06128 0.42626 0.0
H5338 H 0.88366 0.06169 0.45573 0.0
H5339 H 0.94997 0.00151 0.52652 0.0
H5340 H 0.91659 0.00978 0.52361 0.0
H5341 H 0.93001 0.0524 0.48497 0.0
H5342 H 0.96339 0.04374 0.48737 0.0
H5343 H 0.89836 0.03402 0.47528 0.0
H5344 H 0.92326 0.06425 0.52913 0.0
H5345 H 0.93961 0.06523 0.55856 0.0
H5346 H 0.89793 0.02671 0.57862 0.0
H5347 H 0.88147 0.02531 0.54923 0.0
C5348 C 0.82223 0.08253 0.49039 0.0
C5349 C 0.80763 0.07447 0.5002 0.0
C5350 C 0.8401 0.07431 0.49054 0.0
C5351 C 0.84371 0.05787 0.50046 0.0
C5352 C 0.82919 0.04972 0.51021 0.0
C5353 C 0.81126 0.05788 0.51001 0.0
C5354 C 0.86291 0.04976 0.50124 0.0
C5355 C 0.8725 0.04905 0.5178 0.0
C5356 C 0.87227 0.0442 0.48572 0.0
C5357 C 0.86255 0.04392 0.46796 0.0
C5358 C 0.8454 0.03376 0.46503 0.0
C5359 C 0.83625 0.03368 0.4483 0.0
C5360 C 0.84416 0.04361 0.43435 0.0
C5361 C 0.86127 0.05361 0.43709 0.0
C5362 C 0.87048 0.05375 0.4538 0.0
C5363 C 0.9458 0.01258 0.51733 0.0
C5364 C 0.9593 0.02211 0.50728 0.0
C5365 C 0.92673 0.01732 0.51573 0.0
C5366 C 0.92088 0.03195 0.50433 0.0
C5367 C 0.93424 0.0411 0.49389 0.0
C5368 C 0.9533 0.03618 0.49531 0.0
C5369 C 0.90092 0.03813 0.50366 0.0
C5370 C 0.8912 0.0385 0.48714 0.0
C5371 C 0.89147 0.04355 0.5192 0.0
C5372 C 0.90124 0.04453 0.53694 0.0
C5373 C 0.91765 0.05589 0.53979 0.0
C5374 C 0.92693 0.05653 0.55647 0.0
C5375 C 0.91984 0.04599 0.57044 0.0
C5376 C 0.90342 0.03484 0.56778 0.0
C5377 C 0.8941 0.03413 0.55112 0.0
H5378 H 0.92705 0.0465 0.58334 0.0
H5379 H 0.83705 0.04353 0.42141 0.0
H5380 H 0.68712 0.05339 0.28894 0.0
H5381 H 0.70181 0.08513 0.28966 0.0
H5382 H 0.64902 0.10967 0.27159 0.0
H5383 H 0.6343 0.07786 0.27039 0.0
H5384 H 0.67678 0.12286 0.25304 0.0
H5385 H 0.66618 0.11639 0.31464 0.0
H5386 H 0.66682 0.10098 0.34386 0.0
H5387 H 0.72757 0.1012 0.34467 0.0
H5388 H 0.72731 0.11637 0.31533 0.0
H5389 H 0.71111 0.21854 0.26804 0.0
H5390 H 0.69278 0.18885 0.27058 0.0
H5391 H 0.7443 0.15779 0.28042 0.0
H5392 H 0.76279 0.18738 0.27785 0.0
H5393 H 0.71507 0.14952 0.30421 0.0
H5394 H 0.72445 0.15441 0.24105 0.0
H5395 H 0.72281 0.17066 0.21224 0.0
H5396 H 0.66244 0.17455 0.21537 0.0
H5397 H 0.66376 0.15854 0.24434 0.0
C5398 C 0.67856 0.06555 0.28528 0.0
C5399 C 0.65955 0.0631 0.27956 0.0
C5400 C 0.68696 0.0837 0.28579 0.0
C5401 C 0.67645 0.09978 0.28086 0.0
C5402 C 0.65738 0.09744 0.27546 0.0
C5403 C 0.64899 0.07925 0.2748 0.0
C5404 C 0.68571 0.11885 0.28036 0.0
C5405 C 0.68485 0.12885 0.26435 0.0
C5406 C 0.69648 0.12651 0.29504 0.0
C5407 C 0.69672 0.11738 0.3127 0.0
C5408 C 0.67968 0.11301 0.32098 0.0
C5409 C 0.67997 0.10435 0.33758 0.0
C5410 C 0.69722 0.10007 0.3461 0.0
C5411 C 0.71422 0.1045 0.33805 0.0
C5412 C 0.71401 0.11315 0.32144 0.0
C5413 C 0.71854 0.20539 0.27072 0.0
C5414 C 0.73838 0.20524 0.27267 0.0
C5415 C 0.70806 0.18848 0.27215 0.0
C5416 C 0.71725 0.17122 0.27563 0.0
C5417 C 0.73702 0.17104 0.27775 0.0
C5418 C 0.74753 0.1879 0.27616 0.0
C5419 C 0.70626 0.15325 0.27688 0.0
C5420 C 0.70682 0.14353 0.29301 0.0
C5421 C 0.69504 0.14595 0.26241 0.0
C5422 C 0.69423 0.15547 0.24495 0.0
C5423 C 0.71084 0.15888 0.23567 0.0
C5424 C 0.70997 0.16802 0.2193 0.0
C5425 C 0.69254 0.17369 0.212 0.0
C5426 C 0.67594 0.17018 0.22105 0.0
C5427 C 0.67674 0.16106 0.23743 0.0
H5428 H 0.69189 0.18076 0.19933 0.0
H5429 H 0.69741 0.09336 0.35895 0.0
H5430 H 0.68321 0.8694 0.00411 0.0
H5431 H 0.66131 0.88692 0.98458 0.0
H5432 H 0.63731 0.91388 0.03034 0.0
H5433 H 0.65955 0.89694 0.04991 0.0
H5434 H 0.61118 0.89768 -0.00257 0.0
H5435 H 0.66249 0.94577 0.01879 0.0
H5436 H 0.69627 0.95495 0.02254 0.0
H5437 H 0.70551 0.93799 0.96853 0.0
H5438 H 0.67177 0.92863 0.96455 0.0
H5439 H 0.58943 -0.00275 0.00792 0.0
H5440 H 0.61487 0.97499 0.00281 0.0
H5441 H 0.58288 0.94955 0.95856 0.0
H5442 H 0.55705 0.97164 0.9638 0.0
H5443 H 0.63837 0.95983 0.97899 0.0
H5444 H 0.58268 0.90302 0.96446 0.0
H5445 H 0.54815 0.89763 0.96605 0.0
H5446 H 0.54704 0.93416 0.01233 0.0
H5447 H 0.58139 0.93972 0.01099 0.0
C5448 C 0.67275 0.87849 0.01003 0.0
C5449 C 0.67282 0.88168 0.02854 0.0
C5450 C 0.66043 0.88859 -0.00116 0.0
C5451 C 0.64783 0.9016 0.00611 0.0
C5452 C 0.64696 0.90377 0.02459 0.0
C5453 C 0.65951 0.89402 0.03574 0.0
C5454 C 0.63662 0.91442 0.99475 0.0
C5455 C 0.61714 0.91097 0.99271 0.0
C5456 C 0.64444 0.93179 0.9889 0.0
C5457 C 0.66479 0.9364 0.99144 0.0
C5458 C 0.67181 0.94388 0.00779 0.0
C5459 C 0.69089 0.94917 0.00993 0.0
C5460 C 0.70304 0.94699 -0.0042 0.0
C5461 C 0.6961 0.93958 0.97948 0.0
C5462 C 0.67702 0.93426 0.97728 0.0
C5463 C 0.58803 0.98738 -0.00329 0.0
C5464 C 0.571 0.98577 0.98664 0.0
C5465 C 0.60268 0.97472 0.99371 0.0
C5466 C 0.60053 0.9603 0.98059 0.0
C5467 C 0.58465 0.96039 0.96893 0.0
C5468 C 0.56991 0.97304 0.97197 0.0
C5469 C 0.61275 0.94333 0.98196 0.0
C5470 C 0.63244 0.94601 0.98236 0.0
C5471 C 0.60507 0.92531 0.98657 0.0
C5472 C 0.58447 0.9219 0.98752 0.0
C5473 C 0.57499 0.90987 0.97496 0.0
C5474 C 0.55546 0.90682 0.97581 0.0
C5475 C 0.54534 0.91562 0.98925 0.0
C5476 C 0.55478 0.92743 0.00189 0.0
C5477 C 0.57427 0.93054 0.00109 0.0
H5478 H 0.53022 0.91325 0.98991 0.0
H5479 H 0.71782 0.95105 -0.00251 0.0
H5480 H 0.35616 0.45271 0.26489 0.0
H5481 H 0.34295 0.42029 0.26639 0.0
H5482 H 0.39739 0.39965 0.28473 0.0
H5483 H 0.41085 0.43176 0.28218 0.0
H5484 H 0.38336 0.37479 0.26392 0.0
H5485 H 0.35926 0.40838 0.31343 0.0
H5486 H 0.34343 0.43442 0.32939 0.0
H5487 H 0.29172 0.42218 0.29966 0.0
H5488 H 0.30731 0.39622 0.28335 0.0
H5489 H 0.31348 0.30136 0.30709 0.0
H5490 H 0.33007 0.33235 0.30756 0.0
H5491 H 0.33788 0.32695 0.25109 0.0
H5492 H 0.32252 0.29548 0.25089 0.0
H5493 H 0.32289 0.36413 0.29405 0.0
H5494 H 0.37769 0.3508 0.23858 0.0
H5495 H 0.395 0.32359 0.22613 0.0
H5496 H 0.38897 0.293 0.2746 0.0
H5497 H 0.37279 0.32046 0.28781 0.0
C5498 C 0.36528 0.4412 0.26914 0.0
C5499 C 0.38448 0.4447 0.27347 0.0
C5500 C 0.35772 0.42271 0.27012 0.0
C5501 C 0.36907 0.40756 0.27607 0.0
C5502 C 0.38833 0.41106 0.28012 0.0
C5503 C 0.396 0.42942 0.27868 0.0
C5504 C 0.36089 0.38809 0.2781 0.0
C5505 C 0.37017 0.37244 0.27056 0.0
C5506 C 0.34398 0.38492 0.28724 0.0
C5507 C 0.33451 0.40046 0.29707 0.0
C5508 C 0.34454 0.41132 0.31022 0.0
C5509 C 0.33561 0.42605 0.31933 0.0
C5510 C 0.31659 0.42998 0.31551 0.0
C5511 C 0.30646 0.41914 0.30259 0.0
C5512 C 0.31533 0.4044 0.29342 0.0
C5513 C 0.31901 0.30675 0.29487 0.0
C5514 C 0.31702 0.29603 0.27901 0.0
C5515 C 0.32837 0.32446 0.29511 0.0
C5516 C 0.33549 0.33189 0.27941 0.0
C5517 C 0.33304 0.32131 0.26347 0.0
C5518 C 0.32423 0.30336 0.26335 0.0
C5519 C 0.34515 0.35086 0.27959 0.0
C5520 C 0.33616 0.36642 0.28753 0.0
C5521 C 0.36275 0.35379 0.27149 0.0
C5522 C 0.37377 0.33768 0.26412 0.0
C5523 C 0.38035 0.33842 0.24672 0.0
C5524 C 0.39007 0.32297 0.23956 0.0
C5525 C 0.3932 0.30661 0.24961 0.0
C5526 C 0.38679 0.30577 0.26692 0.0
C5527 C 0.37742 0.32132 0.27428 0.0
H5528 H 0.40054 0.29458 0.24398 0.0
H5529 H 0.3097 0.44139 0.32258 0.0
H5530 H 0.19433 0.62813 0.97807 0.0
H5531 H 0.16503 0.61301 0.98733 0.0
H5532 H 0.1929 0.55855 0.99026 0.0
H5533 H 0.22235 0.57355 0.98099 0.0
H5534 H 0.1559 0.55581 0.97652 0.0
H5535 H 0.18983 0.58261 0.02703 0.0
H5536 H 0.20725 0.60775 0.04435 0.0
H5537 H 0.15805 0.64313 0.04284 0.0
H5538 H 0.14035 0.61824 0.02535 0.0
H5539 H 0.08942 0.51068 0.02848 0.0
H5540 H 0.12025 0.52534 0.02346 0.0
H5541 H 0.0938 0.57988 0.01518 0.0
H5542 H 0.06282 0.56537 0.02013 0.0
H5543 H 0.13107 0.58162 0.03287 0.0
H5544 H 0.09792 0.55392 0.98075 0.0
H5545 H 0.08136 0.52768 0.96406 0.0
H5546 H 0.13065 0.49273 0.96956 0.0
H5547 H 0.14739 0.51864 0.98653 0.0
C5548 C 0.19415 0.61286 0.98032 0.0
C5549 C 0.2107 0.60206 0.97906 0.0
C5550 C 0.17744 0.60429 0.9857 0.0
C5551 C 0.17702 0.58481 0.98983 0.0
C5552 C 0.19307 0.57366 0.98725 0.0
C5553 C 0.20984 0.58224 0.98194 0.0
C5554 C 0.16019 0.57639 -0.00211 0.0
C5555 C 0.1506 0.56127 0.98894 0.0
C5556 C 0.15331 0.58367 0.01405 0.0
C5557 C 0.16382 0.59863 0.02472 0.0
C5558 C 0.18276 0.59581 0.03027 0.0
C5559 C 0.19269 0.61001 0.04013 0.0
C5560 C 0.18381 0.62707 0.04462 0.0
C5561 C 0.16493 0.62992 0.03932 0.0
C5562 C 0.15493 0.61576 0.02946 0.0
C5563 C 0.09018 0.52591 0.02612 0.0
C5564 C 0.07366 0.53681 0.02433 0.0
C5565 C 0.1078 0.53424 0.02324 0.0
C5566 C 0.10913 0.55354 0.01864 0.0
C5567 C 0.09295 0.56491 0.01865 0.0
C5568 C 0.07528 0.55658 0.02142 0.0
C5569 C 0.12675 0.56116 0.01142 0.0
C5570 C 0.13645 0.57613 0.02049 0.0
C5571 C 0.13385 0.55363 -0.00455 0.0
C5572 C 0.12384 0.53814 0.98507 0.0
C5573 C 0.10517 0.54058 0.97853 0.0
C5574 C 0.09576 0.52578 0.969 0.0
C5575 C 0.10494 0.50854 0.9658 0.0
C5576 C 0.12355 0.50608 0.97208 0.0
C5577 C 0.13301 0.52082 0.98164 0.0
H5578 H 0.09769 0.4971 0.95841 0.0
H5579 H 0.19154 0.63805 0.05224 0.0
H5580 H 0.71901 0.97177 0.28236 0.0
H5581 H 0.74126 0.9452 0.28198 0.0
H5582 H 0.7018 0.91031 0.31009 0.0
H5583 H 0.67936 0.93663 0.31026 0.0
H5584 H 0.74215 0.90467 0.31953 0.0
H5585 H 0.69732 0.90847 0.26811 0.0
H5586 H 0.68331 0.92561 0.2426 0.0
H5587 H 0.7383 0.93221 0.22075 0.0
H5588 H 0.75266 0.91533 0.24631 0.0
H5589 H 0.73798 0.80861 0.29785 0.0
H5590 H 0.73362 0.84261 0.30305 0.0
H5591 H 0.77246 0.85559 0.26177 0.0
H5592 H 0.77663 0.82124 0.25616 0.0
H5593 H 0.74203 0.87668 0.25855 0.0
H5594 H 0.78541 0.86451 0.30547 0.0
H5595 H 0.79993 0.8474 0.33071 0.0
H5596 H 0.75052 0.85708 0.36107 0.0
H5597 H 0.73556 0.874 0.33592 0.0
C5598 C 0.71531 0.95862 0.28892 0.0
C5599 C 0.69737 0.95612 0.29614 0.0
C5600 C 0.72804 0.9435 0.28869 0.0
C5601 C 0.72305 0.92584 0.2959 0.0
C5602 C 0.70587 0.9239 0.30452 0.0
C5603 C 0.69304 0.93888 0.30451 0.0
C5604 C 0.73403 0.90855 0.29208 0.0
C5605 C 0.74229 0.89852 0.30623 0.0
C5606 C 0.73473 0.90098 0.27461 0.0
C5607 C 0.72607 0.91089 0.25919 0.0
C5608 C 0.70643 0.91372 0.25792 0.0
C5609 C 0.69842 0.92336 0.24346 0.0
C5610 C 0.70992 0.93006 0.23009 0.0
C5611 C 0.72943 0.92706 0.23114 0.0
C5612 C 0.7375 0.91746 0.2456 0.0
C5613 C 0.74568 0.81864 0.28988 0.0
C5614 C 0.75767 0.81224 0.27659 0.0
C5615 C 0.74331 0.83812 0.293 0.0
C5616 C 0.75308 0.85165 0.2831 0.0
C5617 C 0.76496 0.84536 0.26969 0.0
C5618 C 0.76727 0.82577 0.26646 0.0
C5619 C 0.7496 0.87227 0.28613 0.0
C5620 C 0.74264 0.88298 0.27182 0.0
C5621 C 0.75036 0.88052 0.30344 0.0
C5622 C 0.75933 0.87051 0.31875 0.0
C5623 C 0.77758 0.86291 0.31749 0.0
C5624 C 0.7859 0.85324 0.33179 0.0
C5625 C 0.77615 0.85115 0.34748 0.0
C5626 C 0.75807 0.85874 0.34891 0.0
C5627 C 0.74967 0.86841 0.33464 0.0
H5628 H 0.78261 0.84365 0.35853 0.0
H5629 H 0.7037 0.93752 0.2189 0.0
H5630 H 0.8579 0.07228 0.80449 0.0
H5631 H 0.83578 0.09875 0.8041 0.0
H5632 H 0.79747 0.06606 0.76933 0.0
H5633 H 0.8196 0.03924 0.76983 0.0
H5634 H 0.80805 0.10168 0.7562 0.0
H5635 H 0.78232 0.07744 0.80875 0.0
H5636 H 0.78284 0.06379 0.83872 0.0
H5637 H 0.81109 0.11434 0.85979 0.0
H5638 H 0.81101 0.1282 0.82991 0.0
H5639 H 0.76178 0.19146 0.75307 0.0
H5640 H 0.76564 0.157 0.75693 0.0
H5641 H 0.80666 0.16816 0.79966 0.0
H5642 H 0.80231 0.20247 0.79635 0.0
H5643 H 0.7854 0.13894 0.80769 0.0
H5644 H 0.81909 0.15843 0.75542 0.0
H5645 H 0.8214 0.17233 0.72566 0.0
H5646 H 0.78097 0.13089 0.70452 0.0
H5647 H 0.77827 0.11689 0.73423 0.0
C5648 C 0.84459 0.07056 0.79706 0.0
C5649 C 0.84049 0.0538 0.78709 0.0
C5650 C 0.8319 0.08564 0.79695 0.0
C5651 C 0.81496 0.08429 0.78677 0.0
C5652 C 0.81044 0.06727 0.77736 0.0
C5653 C 0.82304 0.052 0.77768 0.0
C5654 C 0.80349 0.10163 0.78431 0.0
C5655 C 0.80254 0.1096 0.76735 0.0
C5656 C 0.79671 0.11205 0.79896 0.0
C5657 C 0.79669 0.10385 0.81703 0.0
C5658 C 0.78875 0.08561 0.81975 0.0
C5659 C 0.78896 0.07784 0.83673 0.0
C5660 C 0.79701 0.08819 0.85115 0.0
C5661 C 0.80484 0.10635 0.84861 0.0
C5662 C 0.80469 0.11419 0.83165 0.0
C5663 C 0.77154 0.18653 0.76334 0.0
C5664 C 0.7819 0.19963 0.7743 0.0
C5665 C 0.77373 0.16685 0.76553 0.0
C5666 C 0.78662 0.16 0.77843 0.0
C5667 C 0.79658 0.1731 0.78966 0.0
C5668 C 0.79418 0.19272 0.78768 0.0
C5669 C 0.79078 0.13932 0.77972 0.0
C5670 C 0.79033 0.13076 0.79644 0.0
C5671 C 0.7966 0.12844 0.76491 0.0
C5672 C 0.79829 0.13679 0.74706 0.0
C5673 C 0.8106 0.15237 0.74444 0.0
C5674 C 0.812 0.16026 0.72759 0.0
C5675 C 0.80129 0.15254 0.71322 0.0
C5676 C 0.78922 0.13688 0.71567 0.0
C5677 C 0.78775 0.12897 0.73251 0.0
H5678 H 0.80238 0.15866 0.70019 0.0
H5679 H 0.79716 0.08214 0.86429 0.0
loop_
_geom_bond_atom_site_label_1
_geom_bond_atom_site_label_2
_geom_bond_distance
_geom_bond_site_symmetry_2
_ccdc_geom_bond_type
C0 O1 1.306 . S
C0 O3 1.160 . S
O1 C0 1.306 . S
O1 Cd2 2.228 . S
Cd2 O1 2.228 . S
Cd2 O6 2.273 . S
Cd2 O10 2.277 . S
O3 C0 1.160 . S
O3 Cd4 2.203 . S
Cd4 O3 2.203 . S
Cd4 O6 2.411 . S
Cd4 O7 2.333 . S
Cd4 O8 2.352 . S
Cd4 O12 2.277 . S
Cd4 O13 2.356 . S
C5 O10 1.209 . S
C5 O12 1.226 . S
O6 Cd2 2.273 . S
O6 Cd4 2.411 . S
O6 C9 1.320 . S
O7 Cd4 2.333 . S
O7 C9 1.214 . S
O8 Cd4 2.352 . S
O8 C11 1.258 . S
C9 O6 1.320 . S
C9 O7 1.214 . S
O10 Cd2 2.277 . S
O10 C5 1.209 . S
C11 O8 1.258 . S
C11 O13 1.282 . S
O12 Cd4 2.277 . S
O12 C5 1.226 . S
O13 Cd4 2.356 . S
O13 C11 1.282 . S
C14 O15 1.309 1_655 S
C14 O17 1.160 . S
O15 C14 1.309 1_455 S
O15 Cd16 2.224 . S
Cd16 O15 2.224 . S
Cd16 O20 2.273 . S
Cd16 O24 2.277 . S
O17 C14 1.160 . S
O17 Cd18 2.203 1_655 S
Cd18 O17 2.203 1_455 S
Cd18 O20 2.411 . S
Cd18 O21 2.333 . S
Cd18 O22 2.352 . S
Cd18 O26 2.277 . S
Cd18 O27 2.356 . S
C19 O24 1.209 . S
C19 O26 1.226 . S
O20 Cd16 2.273 . S
O20 Cd18 2.411 . S
O20 C23 1.320 . S
O21 Cd18 2.333 . S
O21 C23 1.214 . S
O22 Cd18 2.352 . S
O22 C25 1.258 . S
C23 O20 1.320 . S
C23 O21 1.214 . S
O24 Cd16 2.277 . S
O24 C19 1.209 . S
C25 O22 1.258 . S
C25 O27 1.282 . S
O26 Cd18 2.277 . S
O26 C19 1.226 . S
O27 Cd18 2.356 . S
O27 C25 1.282 . S
C28 O29 1.306 . S
C28 O31 1.160 . S
O29 C28 1.306 . S
O29 Cd30 2.228 . S
Cd30 O29 2.228 . S
Cd30 O34 2.273 . S
Cd30 O38 2.277 . S
O31 C28 1.160 . S
O31 Cd32 2.203 . S
Cd32 O31 2.203 . S
Cd32 O34 2.411 . S
Cd32 O35 2.333 . S
Cd32 O36 2.352 . S
Cd32 O40 2.277 . S
Cd32 O41 2.356 . S
C33 O38 1.209 . S
C33 O40 1.226 . S
O34 Cd30 2.273 . S
O34 Cd32 2.411 . S
O34 C37 1.320 . S
O35 Cd32 2.333 . S
O35 C37 1.214 . S
O36 Cd32 2.352 . S
O36 C39 1.258 . S
C37 O34 1.320 . S
C37 O35 1.214 . S
O38 Cd30 2.277 . S
O38 C33 1.209 . S
C39 O36 1.258 . S
C39 O41 1.282 . S
O40 Cd32 2.277 . S
O40 C33 1.226 . S
O41 Cd32 2.356 . S
O41 C39 1.282 . S
C42 O43 1.306 . S
C42 O45 1.160 . S
O43 C42 1.306 . S
O43 Cd44 2.228 . S
Cd44 O43 2.228 . S
Cd44 O48 2.273 . S
Cd44 O52 2.277 . S
O45 C42 1.160 . S
O45 Cd46 2.203 . S
Cd46 O45 2.203 . S
Cd46 O48 2.411 . S
Cd46 O49 2.333 . S
Cd46 O50 2.352 . S
Cd46 O54 2.277 . S
Cd46 O55 2.356 . S
C47 O52 1.209 . S
C47 O54 1.226 . S
O48 Cd44 2.273 . S
O48 Cd46 2.411 . S
O48 C51 1.320 . S
O49 Cd46 2.333 . S
O49 C51 1.214 . S
O50 Cd46 2.352 . S
O50 C53 1.258 . S
C51 O48 1.320 . S
C51 O49 1.214 . S
O52 Cd44 2.277 . S
O52 C47 1.209 . S
C53 O50 1.258 . S
C53 O55 1.282 . S
O54 Cd46 2.277 . S
O54 C47 1.226 . S
O55 Cd46 2.356 . S
O55 C53 1.282 . S
C56 O57 1.306 . S
C56 O59 1.160 . S
O57 C56 1.306 . S
O57 Cd58 2.228 . S
Cd58 O57 2.228 . S
Cd58 O62 2.273 . S
Cd58 O66 2.277 . S
O59 C56 1.160 . S
O59 Cd60 2.203 . S
Cd60 O59 2.203 . S
Cd60 O62 2.411 . S
Cd60 O63 2.333 . S
Cd60 O64 2.352 1_545 S
Cd60 O68 2.277 . S
Cd60 O69 2.356 1_545 S
C61 O66 1.209 . S
C61 O68 1.226 . S
O62 Cd58 2.273 . S
O62 Cd60 2.411 . S
O62 C65 1.320 . S
O63 Cd60 2.333 . S
O63 C65 1.214 . S
O64 Cd60 2.352 1_565 S
O64 C67 1.258 . S
C65 O62 1.320 . S
C65 O63 1.214 . S
O66 Cd58 2.277 . S
O66 C61 1.209 . S
C67 O64 1.258 . S
C67 O69 1.282 . S
O68 Cd60 2.277 . S
O68 C61 1.226 . S
O69 Cd60 2.356 1_565 S
O69 C67 1.282 . S
C70 O71 1.306 . S
C70 O73 1.160 . S
O71 C70 1.306 . S
O71 Cd72 2.228 . S
Cd72 O71 2.228 . S
Cd72 O76 2.273 . S
Cd72 O80 2.277 . S
O73 C70 1.160 . S
O73 Cd74 2.203 . S
Cd74 O73 2.203 . S
Cd74 O76 2.411 . S
Cd74 O77 2.333 . S
Cd74 O78 2.352 . S
Cd74 O82 2.277 . S
Cd74 O83 2.356 . S
C75 O80 1.209 . S
C75 O82 1.226 . S
O76 Cd72 2.273 . S
O76 Cd74 2.411 . S
O76 C79 1.320 . S
O77 Cd74 2.333 . S
O77 C79 1.214 . S
O78 Cd74 2.352 . S
O78 C81 1.258 . S
C79 O76 1.320 . S
C79 O77 1.214 . S
O80 Cd72 2.277 . S
O80 C75 1.209 . S
C81 O78 1.258 . S
C81 O83 1.282 . S
O82 Cd74 2.277 . S
O82 C75 1.226 . S
O83 Cd74 2.356 . S
O83 C81 1.282 . S
C84 O85 1.306 1_545 S
C84 O87 1.160 . S
O85 C84 1.306 1_565 S
O85 Cd86 2.228 . S
Cd86 O85 2.228 . S
Cd86 O90 2.273 1_565 S
Cd86 O94 2.277 . S
O87 C84 1.160 . S
O87 Cd88 2.203 . S
Cd88 O87 2.203 . S
Cd88 O90 2.411 . S
Cd88 O91 2.333 . S
Cd88 O92 2.352 . S
Cd88 O96 2.277 1_545 S
Cd88 O97 2.356 . S
C89 O94 1.209 . S
C89 O96 1.226 . S
O90 Cd86 2.273 1_545 S
O90 Cd88 2.411 . S
O90 C93 1.320 . S
O91 Cd88 2.333 . S
O91 C93 1.214 . S
O92 Cd88 2.352 . S
O92 C95 1.258 . S
C93 O90 1.320 . S
C93 O91 1.214 . S
O94 Cd86 2.277 . S
O94 C89 1.209 . S
C95 O92 1.258 . S
C95 O97 1.282 . S
O96 Cd88 2.277 1_565 S
O96 C89 1.226 . S
O97 Cd88 2.356 . S
O97 C95 1.282 . S
C98 O99 1.306 . S
C98 O101 1.160 . S
O99 C98 1.306 . S
O99 Cd100 2.228 . S
Cd100 O99 2.228 . S
Cd100 O104 2.273 . S
Cd100 O108 2.277 . S
O101 C98 1.160 . S
O101 Cd102 2.203 . S
Cd102 O101 2.203 . S
Cd102 O104 2.411 . S
Cd102 O105 2.333 . S
Cd102 O106 2.352 1_554 S
Cd102 O110 2.277 . S
Cd102 O111 2.356 1_554 S
C103 O108 1.209 . S
C103 O110 1.226 . S
O104 Cd100 2.273 . S
O104 Cd102 2.411 . S
O104 C107 1.320 . S
O105 Cd102 2.333 . S
O105 C107 1.214 . S
O106 Cd102 2.352 1_556 S
O106 C109 1.258 . S
C107 O104 1.320 . S
C107 O105 1.214 . S
O108 Cd100 2.277 . S
O108 C103 1.209 . S
C109 O106 1.258 . S
C109 O111 1.282 . S
O110 Cd102 2.277 . S
O110 C103 1.226 . S
O111 Cd102 2.356 1_556 S
O111 C109 1.282 . S
C112 O113 1.306 . S
C112 O115 1.160 . S
O113 C112 1.306 . S
O113 Cd114 2.228 . S
Cd114 O113 2.228 . S
Cd114 O118 2.273 . S
Cd114 O122 2.277 . S
O115 C112 1.160 . S
O115 Cd116 2.203 . S
Cd116 O115 2.203 . S
Cd116 O118 2.411 . S
Cd116 O119 2.333 . S
Cd116 O120 2.352 . S
Cd116 O124 2.277 . S
Cd116 O125 2.356 . S
C117 O122 1.209 . S
C117 O124 1.226 . S
O118 Cd114 2.273 . S
O118 Cd116 2.411 . S
O118 C121 1.320 . S
O119 Cd116 2.333 . S
O119 C121 1.214 . S
O120 Cd116 2.352 . S
O120 C123 1.258 . S
C121 O118 1.320 . S
C121 O119 1.214 . S
O122 Cd114 2.277 . S
O122 C117 1.209 . S
C123 O120 1.258 . S
C123 O125 1.282 . S
O124 Cd116 2.277 . S
O124 C117 1.226 . S
O125 Cd116 2.356 . S
O125 C123 1.282 . S
C126 O127 1.306 . S
C126 O129 1.160 . S
O127 C126 1.306 . S
O127 Cd128 2.228 . S
Cd128 O127 2.228 . S
Cd128 O132 2.273 . S
Cd128 O136 2.277 . S
O129 C126 1.160 . S
O129 Cd130 2.203 . S
Cd130 O129 2.203 . S
Cd130 O132 2.411 . S
Cd130 O133 2.333 . S
Cd130 O134 2.352 . S
Cd130 O138 2.277 . S
Cd130 O139 2.356 . S
C131 O136 1.209 . S
C131 O138 1.226 . S
O132 Cd128 2.273 . S
O132 Cd130 2.411 . S
O132 C135 1.320 . S
O133 Cd130 2.333 . S
O133 C135 1.214 . S
O134 Cd130 2.352 . S
O134 C137 1.258 . S
C135 O132 1.320 . S
C135 O133 1.214 . S
O136 Cd128 2.277 . S
O136 C131 1.209 . S
C137 O134 1.258 . S
C137 O139 1.282 . S
O138 Cd130 2.277 . S
O138 C131 1.226 . S
O139 Cd130 2.356 . S
O139 C137 1.282 . S
C140 O141 1.306 . S
C140 O143 1.160 . S
O141 C140 1.306 . S
O141 Cd142 2.228 . S
Cd142 O141 2.228 . S
Cd142 O146 2.273 . S
Cd142 O150 2.277 . S
O143 C140 1.160 . S
O143 Cd144 2.203 . S
Cd144 O143 2.203 . S
Cd144 O146 2.411 . S
Cd144 O147 2.333 . S
Cd144 O148 2.352 . S
Cd144 O152 2.277 . S
Cd144 O153 2.356 . S
C145 O150 1.209 . S
C145 O152 1.226 . S
O146 Cd142 2.273 . S
O146 Cd144 2.411 . S
O146 C149 1.320 . S
O147 Cd144 2.333 . S
O147 C149 1.214 . S
O148 Cd144 2.352 . S
O148 C151 1.258 . S
C149 O146 1.320 . S
C149 O147 1.214 . S
O150 Cd142 2.277 . S
O150 C145 1.209 . S
C151 O148 1.258 . S
C151 O153 1.282 . S
O152 Cd144 2.277 . S
O152 C145 1.226 . S
O153 Cd144 2.356 . S
O153 C151 1.282 . S
C154 O155 1.306 . S
C154 O157 1.160 . S
O155 C154 1.306 . S
O155 Cd156 2.228 . S
Cd156 O155 2.228 . S
Cd156 O160 2.273 . S
Cd156 O164 2.277 . S
O157 C154 1.160 . S
O157 Cd158 2.203 . S
Cd158 O157 2.203 . S
Cd158 O160 2.411 . S
Cd158 O161 2.333 . S
Cd158 O162 2.352 . S
Cd158 O166 2.277 . S
Cd158 O167 2.356 . S
C159 O164 1.209 . S
C159 O166 1.226 . S
O160 Cd156 2.273 . S
O160 Cd158 2.411 . S
O160 C163 1.320 . S
O161 Cd158 2.333 . S
O161 C163 1.214 . S
O162 Cd158 2.352 . S
O162 C165 1.258 . S
C163 O160 1.320 . S
C163 O161 1.214 . S
O164 Cd156 2.277 . S
O164 C159 1.209 . S
C165 O162 1.258 . S
C165 O167 1.282 . S
O166 Cd158 2.277 . S
O166 C159 1.226 . S
O167 Cd158 2.356 . S
O167 C165 1.282 . S
C168 O169 1.306 . S
C168 O171 1.160 . S
O169 C168 1.306 . S
O169 Cd170 2.228 1_655 S
Cd170 O169 2.228 1_455 S
Cd170 O174 2.273 . S
Cd170 O178 2.277 . S
O171 C168 1.160 . S
O171 Cd172 2.203 1_655 S
Cd172 O171 2.203 1_455 S
Cd172 O174 2.411 . S
Cd172 O175 2.333 . S
Cd172 O176 2.350 1_455 S
Cd172 O180 2.277 1_455 S
Cd172 O181 2.356 . S
C173 O178 1.215 . S
C173 O180 1.224 1_455 S
O174 Cd170 2.273 . S
O174 Cd172 2.411 . S
O174 C177 1.320 . S
O175 Cd172 2.333 . S
O175 C177 1.214 . S
O176 Cd172 2.350 1_655 S
O176 C179 1.255 1_655 S
C177 O174 1.320 . S
C177 O175 1.214 . S
O178 Cd170 2.277 . S
O178 C173 1.215 . S
C179 O176 1.255 1_455 S
C179 O181 1.282 . S
O180 Cd172 2.277 1_655 S
O180 C173 1.224 1_655 S
O181 Cd172 2.356 . S
O181 C179 1.282 . S
C182 O183 1.306 1_655 S
C182 O185 1.160 . S
O183 C182 1.306 1_455 S
O183 Cd184 2.228 . S
Cd184 O183 2.228 . S
Cd184 O188 2.273 . S
Cd184 O192 2.277 . S
O185 C182 1.160 . S
O185 Cd186 2.203 1_655 S
Cd186 O185 2.203 1_455 S
Cd186 O188 2.411 . S
Cd186 O189 2.333 . S
Cd186 O190 2.352 . S
Cd186 O194 2.277 . S
Cd186 O195 2.356 . S
C187 O192 1.209 . S
C187 O194 1.226 . S
O188 Cd184 2.273 . S
O188 Cd186 2.411 . S
O188 C191 1.320 . S
O189 Cd186 2.333 . S
O189 C191 1.214 . S
O190 Cd186 2.352 . S
O190 C193 1.258 . S
C191 O188 1.320 . S
C191 O189 1.214 . S
O192 Cd184 2.277 . S
O192 C187 1.209 . S
C193 O190 1.258 . S
C193 O195 1.282 . S
O194 Cd186 2.277 . S
O194 C187 1.226 . S
O195 Cd186 2.356 . S
O195 C193 1.282 . S
C196 O197 1.306 . S
C196 O199 1.160 . S
O197 C196 1.306 . S
O197 Cd198 2.228 . S
Cd198 O197 2.228 . S
Cd198 O202 2.273 . S
Cd198 O206 2.277 . S
O199 C196 1.160 . S
O199 Cd200 2.203 . S
Cd200 O199 2.203 . S
Cd200 O202 2.411 . S
Cd200 O203 2.333 . S
Cd200 O204 2.352 . S
Cd200 O208 2.277 . S
Cd200 O209 2.356 . S
C201 O206 1.209 . S
C201 O208 1.226 . S
O202 Cd198 2.273 . S
O202 Cd200 2.411 . S
O202 C205 1.320 . S
O203 Cd200 2.333 . S
O203 C205 1.214 . S
O204 Cd200 2.352 . S
O204 C207 1.258 . S
C205 O202 1.320 . S
C205 O203 1.214 . S
O206 Cd198 2.277 . S
O206 C201 1.209 . S
C207 O204 1.258 . S
C207 O209 1.282 . S
O208 Cd200 2.277 . S
O208 C201 1.226 . S
O209 Cd200 2.356 . S
O209 C207 1.282 . S
C210 O211 1.306 . S
C210 O213 1.160 . S
O211 C210 1.306 . S
O211 Cd212 2.228 . S
Cd212 O211 2.228 . S
Cd212 O216 2.273 . S
Cd212 O220 2.277 . S
O213 C210 1.160 . S
O213 Cd214 2.203 . S
Cd214 O213 2.203 . S
Cd214 O216 2.411 . S
Cd214 O217 2.333 . S
Cd214 O218 2.352 . S
Cd214 O222 2.277 . S
Cd214 O223 2.356 . S
C215 O220 1.209 . S
C215 O222 1.226 . S
O216 Cd212 2.273 . S
O216 Cd214 2.411 . S
O216 C219 1.320 . S
O217 Cd214 2.333 . S
O217 C219 1.214 . S
O218 Cd214 2.352 . S
O218 C221 1.258 . S
C219 O216 1.320 . S
C219 O217 1.214 . S
O220 Cd212 2.277 . S
O220 C215 1.209 . S
C221 O218 1.258 . S
C221 O223 1.282 . S
O222 Cd214 2.277 . S
O222 C215 1.226 . S
O223 Cd214 2.356 . S
O223 C221 1.282 . S
C224 O225 1.306 1_545 S
C224 O227 1.160 . S
O225 C224 1.306 1_565 S
O225 Cd226 2.228 . S
Cd226 O225 2.228 . S
Cd226 O230 2.273 1_565 S
Cd226 O234 2.277 . S
O227 C224 1.160 . S
O227 Cd228 2.203 . S
Cd228 O227 2.203 . S
Cd228 O230 2.411 . S
Cd228 O231 2.333 . S
Cd228 O232 2.352 . S
Cd228 O236 2.277 1_545 S
Cd228 O237 2.356 . S
C229 O234 1.209 . S
C229 O236 1.226 . S
O230 Cd226 2.273 1_545 S
O230 Cd228 2.411 . S
O230 C233 1.320 . S
O231 Cd228 2.333 . S
O231 C233 1.214 . S
O232 Cd228 2.352 . S
O232 C235 1.258 . S
C233 O230 1.320 . S
C233 O231 1.214 . S
O234 Cd226 2.277 . S
O234 C229 1.209 . S
C235 O232 1.258 . S
C235 O237 1.282 . S
O236 Cd228 2.277 1_565 S
O236 C229 1.226 . S
O237 Cd228 2.356 . S
O237 C235 1.282 . S
C238 O239 1.306 . S
C238 O241 1.160 . S
O239 C238 1.306 . S
O239 Cd240 2.228 . S
Cd240 O239 2.228 . S
Cd240 O244 2.273 . S
Cd240 O248 2.277 . S
O241 C238 1.160 . S
O241 Cd242 2.203 . S
Cd242 O241 2.203 . S
Cd242 O244 2.411 . S
Cd242 O245 2.333 . S
Cd242 O246 2.352 . S
Cd242 O250 2.277 . S
Cd242 O251 2.356 . S
C243 O248 1.209 . S
C243 O250 1.226 . S
O244 Cd240 2.273 . S
O244 Cd242 2.411 . S
O244 C247 1.320 . S
O245 Cd242 2.333 . S
O245 C247 1.214 . S
O246 Cd242 2.352 . S
O246 C249 1.258 . S
C247 O244 1.320 . S
C247 O245 1.214 . S
O248 Cd240 2.277 . S
O248 C243 1.209 . S
C249 O246 1.258 . S
C249 O251 1.282 . S
O250 Cd242 2.277 . S
O250 C243 1.226 . S
O251 Cd242 2.356 . S
O251 C249 1.282 . S
C252 O253 1.306 . S
C252 O255 1.160 . S
O253 C252 1.306 . S
O253 Cd254 2.228 . S
Cd254 O253 2.228 . S
Cd254 O258 2.273 . S
Cd254 O262 2.277 . S
O255 C252 1.160 . S
O255 Cd256 2.203 . S
Cd256 O255 2.203 . S
Cd256 O258 2.411 . S
Cd256 O259 2.333 . S
Cd256 O260 2.352 1_545 S
Cd256 O264 2.277 . S
Cd256 O265 2.356 1_545 S
C257 O262 1.209 . S
C257 O264 1.226 . S
O258 Cd254 2.273 . S
O258 Cd256 2.411 . S
O258 C261 1.320 . S
O259 Cd256 2.333 . S
O259 C261 1.214 . S
O260 Cd256 2.352 1_565 S
O260 C263 1.258 . S
C261 O258 1.320 . S
C261 O259 1.214 . S
O262 Cd254 2.277 . S
O262 C257 1.209 . S
C263 O260 1.258 . S
C263 O265 1.282 . S
O264 Cd256 2.277 . S
O264 C257 1.226 . S
O265 Cd256 2.356 1_565 S
O265 C263 1.282 . S
C266 O267 1.306 . S
C266 O269 1.160 . S
O267 C266 1.306 . S
O267 Cd268 2.228 1_554 S
Cd268 O267 2.228 1_556 S
Cd268 O272 2.273 1_556 S
Cd268 O276 2.277 . S
O269 C266 1.160 . S
O269 Cd270 2.203 . S
Cd270 O269 2.203 . S
Cd270 O272 2.411 . S
Cd270 O273 2.333 . S
Cd270 O274 2.352 . S
Cd270 O278 2.293 . S
Cd270 O279 2.356 . S
C271 O276 1.209 . S
C271 O278 1.210 1_556 S
O272 Cd268 2.273 1_554 S
O272 Cd270 2.411 . S
O272 C275 1.320 . S
O273 Cd270 2.333 . S
O273 C275 1.214 . S
O274 Cd270 2.352 . S
O274 C277 1.258 . S
C275 O272 1.320 . S
C275 O273 1.214 . S
O276 Cd268 2.277 . S
O276 C271 1.209 . S
C277 O274 1.258 . S
C277 O279 1.282 . S
O278 Cd270 2.293 . S
O278 C271 1.210 1_554 S
O279 Cd270 2.356 . S
O279 C277 1.282 . S
C280 O281 1.306 . S
C280 O283 1.160 1_554 S
O281 C280 1.306 . S
O281 Cd282 2.228 . S
Cd282 O281 2.228 . S
Cd282 O286 2.329 . S
Cd282 O290 2.277 . S
O283 C280 1.160 1_556 S
O283 Cd284 2.203 . S
Cd284 O283 2.203 . S
Cd284 O286 2.403 1_556 S
Cd284 O287 2.333 . S
Cd284 O288 2.352 . S
Cd284 O292 2.277 1_556 S
Cd284 O293 2.356 . S
C285 O290 1.209 . S
C285 O292 1.226 . S
O286 Cd282 2.329 . S
O286 Cd284 2.403 1_554 S
O286 C289 1.316 1_554 S
O287 Cd284 2.333 . S
O287 C289 1.222 . S
O288 Cd284 2.352 . S
O288 C291 1.258 . S
C289 O286 1.316 1_556 S
C289 O287 1.222 . S
O290 Cd282 2.277 . S
O290 C285 1.209 . S
C291 O288 1.258 . S
C291 O293 1.282 . S
O292 Cd284 2.277 1_554 S
O292 C285 1.226 . S
O293 Cd284 2.356 . S
O293 C291 1.282 . S
C294 O295 1.306 . S
C294 O297 1.160 . S
O295 C294 1.306 . S
O295 Cd296 2.228 . S
Cd296 O295 2.228 . S
Cd296 O300 2.273 . S
Cd296 O304 2.277 . S
O297 C294 1.160 . S
O297 Cd298 2.203 . S
Cd298 O297 2.203 . S
Cd298 O300 2.411 . S
Cd298 O301 2.333 . S
Cd298 O302 2.352 . S
Cd298 O306 2.277 . S
Cd298 O307 2.356 . S
C299 O304 1.209 . S
C299 O306 1.226 . S
O300 Cd296 2.273 . S
O300 Cd298 2.411 . S
O300 C303 1.320 . S
O301 Cd298 2.333 . S
O301 C303 1.214 . S
O302 Cd298 2.352 . S
O302 C305 1.258 . S
C303 O300 1.320 . S
C303 O301 1.214 . S
O304 Cd296 2.277 . S
O304 C299 1.209 . S
C305 O302 1.258 . S
C305 O307 1.282 . S
O306 Cd298 2.277 . S
O306 C299 1.226 . S
O307 Cd298 2.356 . S
O307 C305 1.282 . S
C308 O309 1.306 . S
C308 O311 1.160 . S
O309 C308 1.306 . S
O309 Cd310 2.228 . S
Cd310 O309 2.228 . S
Cd310 O314 2.273 . S
Cd310 O318 2.277 . S
O311 C308 1.160 . S
O311 Cd312 2.203 . S
Cd312 O311 2.203 . S
Cd312 O314 2.411 . S
Cd312 O315 2.333 . S
Cd312 O316 2.352 . S
Cd312 O320 2.277 . S
Cd312 O321 2.356 . S
C313 O318 1.209 . S
C313 O320 1.226 . S
O314 Cd310 2.273 . S
O314 Cd312 2.411 . S
O314 C317 1.320 . S
O315 Cd312 2.333 . S
O315 C317 1.214 . S
O316 Cd312 2.352 . S
O316 C319 1.258 . S
C317 O314 1.320 . S
C317 O315 1.214 . S
O318 Cd310 2.277 . S
O318 C313 1.209 . S
C319 O316 1.258 . S
C319 O321 1.282 . S
O320 Cd312 2.277 . S
O320 C313 1.226 . S
O321 Cd312 2.356 . S
O321 C319 1.282 . S
C322 O323 1.306 . S
C322 O325 1.160 . S
O323 C322 1.306 . S
O323 Cd324 2.228 . S
Cd324 O323 2.228 . S
Cd324 O328 2.273 . S
Cd324 O332 2.277 . S
O325 C322 1.160 . S
O325 Cd326 2.203 . S
Cd326 O325 2.203 . S
Cd326 O328 2.411 . S
Cd326 O329 2.333 . S
Cd326 O330 2.352 . S
Cd326 O334 2.277 . S
Cd326 O335 2.356 . S
C327 O332 1.209 . S
C327 O334 1.226 . S
O328 Cd324 2.273 . S
O328 Cd326 2.411 . S
O328 C331 1.320 . S
O329 Cd326 2.333 . S
O329 C331 1.214 . S
O330 Cd326 2.352 . S
O330 C333 1.258 . S
C331 O328 1.320 . S
C331 O329 1.214 . S
O332 Cd324 2.277 . S
O332 C327 1.209 . S
C333 O330 1.258 . S
C333 O335 1.282 . S
O334 Cd326 2.277 . S
O334 C327 1.226 . S
O335 Cd326 2.356 . S
O335 C333 1.282 . S
C336 O352 1.232 1_556 S
C336 O354 1.254 . S
N337 C338 1.333 1_565 S
N337 C342 1.307 . S
N337 Zn343 2.020 1_665 S
C338 N337 1.333 1_545 S
C338 C339 1.370 1_545 S
C338 H356 0.952 . S
C339 C338 1.370 1_565 S
C339 C340 1.426 . S
C339 H366 0.925 1_565 S
C340 C339 1.426 . S
C340 C341 1.357 . S
C341 C340 1.357 . S
C341 C342 1.370 . S
C341 H367 0.950 . S
C342 N337 1.307 . S
C342 C341 1.370 . S
C342 H360 0.948 . S
Zn343 N337 2.020 1_445 S
Zn343 O352 2.067 . S
Zn343 O358 2.034 . S
Zn343 O362 2.025 1_545 S
Zn343 O364 2.024 1_545 S
C344 O363 1.246 . S
C344 O364 1.249 . S
N345 C346 1.307 1_554 S
N345 C347 1.333 . S
N345 Zn351 2.020 . S
C346 N345 1.307 1_556 S
C346 C350 1.370 . S
C346 H357 0.948 . S
C347 N345 1.333 . S
C347 C348 1.379 . S
C347 H355 0.952 . S
C348 C347 1.379 . S
C348 C349 1.390 . S
C348 H368 0.949 . S
C349 C348 1.390 . S
C349 C350 1.357 1_554 S
C350 C346 1.370 . S
C350 C349 1.357 1_556 S
C350 H369 0.950 . S
Zn351 N345 2.020 . S
Zn351 O354 2.025 1_554 S
Zn351 O359 2.024 . S
Zn351 O361 2.039 . S
Zn351 O363 2.034 1_545 S
O352 C336 1.232 1_554 S
O352 Zn343 2.067 . S
C353 O358 1.246 . S
C353 O359 1.249 . S
O354 C336 1.254 . S
O354 Zn351 2.025 1_556 S
H355 C347 0.952 . S
H356 C338 0.952 . S
H357 C346 0.948 . S
O358 Zn343 2.034 . S
O358 C353 1.246 . S
O359 Zn351 2.024 . S
O359 C353 1.249 . S
H360 C342 0.948 . S
O361 Zn351 2.039 . S
O361 C365 1.265 . S
O362 Zn343 2.025 1_565 S
O362 C365 1.248 1_565 S
O363 C344 1.246 . S
O363 Zn351 2.034 1_565 S
O364 Zn343 2.024 1_565 S
O364 C344 1.249 . S
C365 O361 1.265 . S
C365 O362 1.248 1_545 S
H366 C339 0.925 1_545 S
H367 C341 0.950 . S
H368 C348 0.949 . S
H369 C350 0.950 . S
C370 O386 1.251 . S
C370 O388 1.254 . S
N371 C372 1.333 . S
N371 C376 1.307 . S
N371 Zn377 2.020 . S
C372 N371 1.333 . S
C372 C373 1.379 . S
C372 H390 0.952 . S
C373 C372 1.379 . S
C373 C374 1.390 . S
C373 H400 0.949 . S
C374 C373 1.390 . S
C374 C375 1.357 . S
C375 C374 1.357 . S
C375 C376 1.370 . S
C375 H401 0.950 . S
C376 N371 1.307 . S
C376 C375 1.370 . S
C376 H394 0.948 . S
Zn377 N371 2.020 . S
Zn377 O386 2.039 . S
Zn377 O392 2.034 . S
Zn377 O396 2.025 . S
Zn377 O398 2.024 . S
C378 O397 1.246 . S
C378 O398 1.249 . S
N379 C380 1.307 . S
N379 C381 1.333 . S
N379 Zn385 2.020 . S
C380 N379 1.307 . S
C380 C384 1.370 . S
C380 H391 0.948 . S
C381 N379 1.333 . S
C381 C382 1.379 . S
C381 H389 0.952 . S
C382 C381 1.379 . S
C382 C383 1.390 . S
C382 H402 0.949 . S
C383 C382 1.390 . S
C383 C384 1.357 . S
C384 C380 1.370 . S
C384 C383 1.357 . S
C384 H403 0.950 . S
Zn385 N379 2.020 . S
Zn385 O388 2.025 . S
Zn385 O393 2.024 . S
Zn385 O395 2.039 . S
Zn385 O397 2.034 . S
O386 C370 1.251 . S
O386 Zn377 2.039 . S
C387 O392 1.246 . S
C387 O393 1.249 . S
O388 C370 1.254 . S
O388 Zn385 2.025 . S
H389 C381 0.952 . S
H390 C372 0.952 . S
H391 C380 0.948 . S
O392 Zn377 2.034 . S
O392 C387 1.246 . S
O393 Zn385 2.024 . S
O393 C387 1.249 . S
H394 C376 0.948 . S
O395 Zn385 2.039 . S
O395 C399 1.251 . S
O396 Zn377 2.025 . S
O396 C399 1.254 . S
O397 C378 1.246 . S
O397 Zn385 2.034 . S
O398 Zn377 2.024 . S
O398 C378 1.249 . S
C399 O395 1.251 . S
C399 O396 1.254 . S
H400 C373 0.949 . S
H401 C375 0.950 . S
H402 C382 0.949 . S
H403 C384 0.950 . S
C404 O420 1.251 . S
C404 O422 1.254 . S
N405 C406 1.333 . S
N405 C410 1.307 . S
N405 Zn411 2.020 . S
C406 N405 1.333 . S
C406 C407 1.379 . S
C406 H424 0.952 . S
C407 C406 1.379 . S
C407 C408 1.390 . S
C407 H434 0.949 . S
C408 C407 1.390 . S
C408 C409 1.357 . S
C409 C408 1.357 . S
C409 C410 1.370 . S
C409 H435 0.950 . S
C410 N405 1.307 . S
C410 C409 1.370 . S
C410 H428 0.948 . S
Zn411 N405 2.020 . S
Zn411 O420 2.039 1_565 S
Zn411 O426 2.034 1_565 S
Zn411 O430 2.025 . S
Zn411 O432 2.024 . S
C412 O431 1.246 1_565 S
C412 O432 1.249 . S
N413 C414 1.307 . S
N413 C415 1.333 . S
N413 Zn419 2.020 . S
C414 N413 1.307 . S
C414 C418 1.370 . S
C414 H425 0.948 . S
C415 N413 1.333 . S
C415 C416 1.379 . S
C415 H423 0.952 . S
C416 C415 1.379 . S
C416 C417 1.390 . S
C416 H436 0.949 . S
C417 C416 1.390 . S
C417 C418 1.357 . S
C418 C414 1.370 . S
C418 C417 1.357 . S
C418 H437 0.950 . S
Zn419 N413 2.020 . S
Zn419 O422 2.025 . S
Zn419 O427 2.024 . S
Zn419 O429 2.039 . S
Zn419 O431 2.034 . S
O420 C404 1.251 . S
O420 Zn411 2.039 1_545 S
C421 O426 1.246 . S
C421 O427 1.249 . S
O422 C404 1.254 . S
O422 Zn419 2.025 . S
H423 C415 0.952 . S
H424 C406 0.952 . S
H425 C414 0.948 . S
O426 Zn411 2.034 1_545 S
O426 C421 1.246 . S
O427 Zn419 2.024 . S
O427 C421 1.249 . S
H428 C410 0.948 . S
O429 Zn419 2.039 . S
O429 C433 1.251 . S
O430 Zn411 2.025 . S
O430 C433 1.254 1_565 S
O431 C412 1.246 1_545 S
O431 Zn419 2.034 . S
O432 Zn411 2.024 . S
O432 C412 1.249 . S
C433 O429 1.251 . S
C433 O430 1.254 1_545 S
H434 C407 0.949 . S
H435 C409 0.950 . S
H436 C416 0.949 . S
H437 C418 0.950 . S
C438 O454 1.251 . S
C438 O456 1.254 . S
N439 C440 1.333 . S
N439 C444 1.307 . S
N439 Zn445 2.020 . S
C440 N439 1.333 . S
C440 C441 1.379 . S
C440 H458 0.952 . S
C441 C440 1.379 . S
C441 C442 1.390 . S
C441 H468 0.949 . S
C442 C441 1.390 . S
C442 C443 1.357 . S
C443 C442 1.357 . S
C443 C444 1.370 . S
C443 H469 0.950 . S
C444 N439 1.307 . S
C444 C443 1.370 . S
C444 H462 0.948 . S
Zn445 N439 2.020 . S
Zn445 O454 2.039 . S
Zn445 O460 2.034 . S
Zn445 O464 2.025 . S
Zn445 O466 2.024 . S
C446 O465 1.246 . S
C446 O466 1.249 . S
N447 C448 1.307 . S
N447 C449 1.333 . S
N447 Zn453 2.020 . S
C448 N447 1.307 . S
C448 C452 1.370 . S
C448 H459 0.948 . S
C449 N447 1.333 . S
C449 C450 1.379 . S
C449 H457 0.952 . S
C450 C449 1.379 . S
C450 C451 1.390 . S
C450 H470 0.949 . S
C451 C450 1.390 . S
C451 C452 1.357 . S
C452 C448 1.370 . S
C452 C451 1.357 . S
C452 H471 0.950 . S
Zn453 N447 2.020 . S
Zn453 O456 2.025 . S
Zn453 O461 2.024 . S
Zn453 O463 2.039 . S
Zn453 O465 2.034 . S
O454 C438 1.251 . S
O454 Zn445 2.039 . S
C455 O460 1.246 . S
C455 O461 1.249 . S
O456 C438 1.254 . S
O456 Zn453 2.025 . S
H457 C449 0.952 . S
H458 C440 0.952 . S
H459 C448 0.948 . S
O460 Zn445 2.034 . S
O460 C455 1.246 . S
O461 Zn453 2.024 . S
O461 C455 1.249 . S
H462 C444 0.948 . S
O463 Zn453 2.039 . S
O463 C467 1.251 . S
O464 Zn445 2.025 . S
O464 C467 1.254 . S
O465 C446 1.246 . S
O465 Zn453 2.034 . S
O466 Zn445 2.024 . S
O466 C446 1.249 . S
C467 O463 1.251 . S
C467 O464 1.254 . S
H468 C441 0.949 . S
H469 C443 0.950 . S
H470 C450 0.949 . S
H471 C452 0.950 . S
C472 O488 1.251 1_565 S
C472 O490 1.254 . S
N473 C474 1.333 . S
N473 C478 1.307 . S
N473 Zn479 2.020 . S
C474 N473 1.333 . S
C474 C475 1.379 . S
C474 H492 0.952 . S
C475 C474 1.379 . S
C475 C476 1.390 . S
C475 H502 0.949 . S
C476 C475 1.390 . S
C476 C477 1.357 . S
C477 C476 1.357 . S
C477 C478 1.370 . S
C477 H503 0.950 . S
C478 N473 1.307 . S
C478 C477 1.370 . S
C478 H496 0.948 . S
Zn479 N473 2.020 . S
Zn479 O488 2.039 . S
Zn479 O494 2.034 . S
Zn479 O498 2.025 . S
Zn479 O500 2.024 1_545 S
C480 O499 1.246 . S
C480 O500 1.249 . S
N481 C482 1.307 . S
N481 C483 1.333 1_455 S
N481 Zn487 2.020 1_565 S
C482 N481 1.307 . S
C482 C486 1.370 . S
C482 H493 0.934 1_565 S
C483 N481 1.333 1_655 S
C483 C484 1.379 . S
C483 H491 0.952 . S
C484 C483 1.379 . S
C484 C485 1.390 . S
C484 H504 0.949 . S
C485 C484 1.390 . S
C485 C486 1.357 1_655 S
C486 C482 1.370 . S
C486 C485 1.357 1_455 S
C486 H505 0.950 . S
Zn487 N481 2.020 1_545 S
Zn487 O490 2.025 1_545 S
Zn487 O495 2.024 . S
Zn487 O497 2.039 1_455 S
Zn487 O499 2.034 1_545 S
O488 C472 1.251 1_545 S
O488 Zn479 2.039 . S
C489 O494 1.246 . S
C489 O495 1.249 . S
O490 C472 1.254 . S
O490 Zn487 2.025 1_565 S
H491 C483 0.952 . S
H492 C474 0.952 . S
H493 C482 0.934 1_545 S
O494 Zn479 2.034 . S
O494 C489 1.246 . S
O495 Zn487 2.024 . S
O495 C489 1.249 . S
H496 C478 0.948 . S
O497 Zn487 2.039 1_655 S
O497 C501 1.251 . S
O498 Zn479 2.025 . S
O498 C501 1.254 1_455 S
O499 C480 1.246 . S
O499 Zn487 2.034 1_565 S
O500 Zn479 2.024 1_565 S
O500 C480 1.249 . S
C501 O497 1.251 . S
C501 O498 1.254 1_655 S
H502 C475 0.949 . S
H503 C477 0.950 . S
H504 C484 0.949 . S
H505 C486 0.950 . S
C506 O522 1.251 . S
C506 O524 1.254 . S
N507 C508 1.333 . S
N507 C512 1.307 . S
N507 Zn513 2.020 . S
C508 N507 1.333 . S
C508 C509 1.379 . S
C508 H526 0.952 . S
C509 C508 1.379 . S
C509 C510 1.390 . S
C509 H536 0.949 . S
C510 C509 1.390 . S
C510 C511 1.357 . S
C511 C510 1.357 . S
C511 C512 1.370 . S
C511 H537 0.950 . S
C512 N507 1.307 . S
C512 C511 1.370 . S
C512 H530 0.948 . S
Zn513 N507 2.020 . S
Zn513 O522 2.039 . S
Zn513 O528 2.034 . S
Zn513 O532 2.025 . S
Zn513 O534 2.024 . S
C514 O533 1.246 . S
C514 O534 1.249 . S
N515 C516 1.307 . S
N515 C517 1.333 . S
N515 Zn521 2.020 . S
C516 N515 1.307 . S
C516 C520 1.370 . S
C516 H527 0.948 . S
C517 N515 1.333 . S
C517 C518 1.379 . S
C517 H525 0.952 . S
C518 C517 1.379 . S
C518 C519 1.390 . S
C518 H538 0.949 . S
C519 C518 1.390 . S
C519 C520 1.357 . S
C520 C516 1.370 . S
C520 C519 1.357 . S
C520 H539 0.950 . S
Zn521 N515 2.020 . S
Zn521 O524 2.025 . S
Zn521 O529 2.024 . S
Zn521 O531 2.039 . S
Zn521 O533 2.034 . S
O522 C506 1.251 . S
O522 Zn513 2.039 . S
C523 O528 1.246 . S
C523 O529 1.249 . S
O524 C506 1.254 . S
O524 Zn521 2.025 . S
H525 C517 0.952 . S
H526 C508 0.952 . S
H527 C516 0.948 . S
O528 Zn513 2.034 . S
O528 C523 1.246 . S
O529 Zn521 2.024 . S
O529 C523 1.249 . S
H530 C512 0.948 . S
O531 Zn521 2.039 . S
O531 C535 1.251 . S
O532 Zn513 2.025 . S
O532 C535 1.254 . S
O533 C514 1.246 . S
O533 Zn521 2.034 . S
O534 Zn513 2.024 . S
O534 C514 1.249 . S
C535 O531 1.251 . S
C535 O532 1.254 . S
H536 C509 0.949 . S
H537 C511 0.950 . S
H538 C518 0.949 . S
H539 C520 0.950 . S
C540 O556 1.251 . S
C540 O558 1.254 . S
N541 C542 1.333 . S
N541 C546 1.307 . S
N541 Zn547 2.020 . S
C542 N541 1.333 . S
C542 C543 1.379 . S
C542 H560 0.952 . S
C543 C542 1.379 . S
C543 C544 1.390 . S
C543 H570 0.949 . S
C544 C543 1.390 . S
C544 C545 1.357 . S
C545 C544 1.357 . S
C545 C546 1.370 . S
C545 H571 0.950 . S
C546 N541 1.307 . S
C546 C545 1.370 . S
C546 H564 0.948 . S
Zn547 N541 2.020 . S
Zn547 O556 2.039 1_545 S
Zn547 O562 2.034 . S
Zn547 O566 2.025 . S
Zn547 O568 2.024 . S
C548 O567 1.246 . S
C548 O568 1.249 1_565 S
N549 C550 1.307 . S
N549 C551 1.333 1_565 S
N549 Zn555 2.020 1_566 S
C550 N549 1.307 . S
C550 C554 1.370 . S
C550 H561 0.948 . S
C551 N549 1.333 1_545 S
C551 C552 1.383 . S
C551 H559 0.952 . S
C552 C551 1.383 . S
C552 C553 1.377 1_545 S
C552 H572 0.959 . S
C553 C552 1.377 1_565 S
C553 C554 1.357 . S
C554 C550 1.370 . S
C554 C553 1.357 . S
C554 H573 0.950 . S
Zn555 N549 2.020 1_544 S
Zn555 O558 2.025 1_545 S
Zn555 O563 2.024 . S
Zn555 O565 2.039 1_554 S
Zn555 O567 2.034 1_545 S
O556 C540 1.251 . S
O556 Zn547 2.039 1_565 S
C557 O562 1.246 . S
C557 O563 1.249 . S
O558 C540 1.254 . S
O558 Zn555 2.025 1_565 S
H559 C551 0.952 . S
H560 C542 0.952 . S
H561 C550 0.948 . S
O562 Zn547 2.034 . S
O562 C557 1.246 . S
O563 Zn555 2.024 . S
O563 C557 1.249 . S
H564 C546 0.948 . S
O565 Zn555 2.039 1_556 S
O565 C569 1.251 1_556 S
O566 Zn547 2.025 . S
O566 C569 1.254 . S
O567 C548 1.246 . S
O567 Zn555 2.034 1_565 S
O568 Zn547 2.024 . S
O568 C548 1.249 1_545 S
C569 O565 1.251 1_554 S
C569 O566 1.254 . S
H570 C543 0.949 . S
H571 C545 0.950 . S
H572 C552 0.959 . S
H573 C554 0.950 . S
C574 O590 1.251 . S
C574 O592 1.254 . S
N575 C576 1.333 . S
N575 C580 1.307 . S
N575 Zn581 2.020 . S
C576 N575 1.333 . S
C576 C577 1.379 . S
C576 H594 0.952 . S
C577 C576 1.379 . S
C577 C578 1.390 . S
C577 H604 0.949 . S
C578 C577 1.390 . S
C578 C579 1.357 . S
C579 C578 1.357 . S
C579 C580 1.370 . S
C579 H605 0.950 . S
C580 N575 1.307 . S
C580 C579 1.370 . S
C580 H598 0.948 . S
Zn581 N575 2.020 . S
Zn581 O590 2.039 . S
Zn581 O596 2.034 . S
Zn581 O600 2.025 . S
Zn581 O602 2.024 . S
C582 O601 1.246 . S
C582 O602 1.249 . S
N583 C584 1.307 . S
N583 C585 1.333 . S
N583 Zn589 2.020 . S
C584 N583 1.307 . S
C584 C588 1.370 . S
C584 H595 0.948 . S
C585 N583 1.333 . S
C585 C586 1.379 . S
C585 H593 0.952 . S
C586 C585 1.379 . S
C586 C587 1.390 . S
C586 H606 0.949 . S
C587 C586 1.390 . S
C587 C588 1.357 . S
C588 C584 1.370 . S
C588 C587 1.357 . S
C588 H607 0.950 . S
Zn589 N583 2.020 . S
Zn589 O592 2.025 . S
Zn589 O597 2.024 . S
Zn589 O599 2.039 . S
Zn589 O601 2.034 . S
O590 C574 1.251 . S
O590 Zn581 2.039 . S
C591 O596 1.246 . S
C591 O597 1.249 . S
O592 C574 1.254 . S
O592 Zn589 2.025 . S
H593 C585 0.952 . S
H594 C576 0.952 . S
H595 C584 0.948 . S
O596 Zn581 2.034 . S
O596 C591 1.246 . S
O597 Zn589 2.024 . S
O597 C591 1.249 . S
H598 C580 0.948 . S
O599 Zn589 2.039 . S
O599 C603 1.251 . S
O600 Zn581 2.025 . S
O600 C603 1.254 . S
O601 C582 1.246 . S
O601 Zn589 2.034 . S
O602 Zn581 2.024 . S
O602 C582 1.249 . S
C603 O599 1.251 . S
C603 O600 1.254 . S
H604 C577 0.949 . S
H605 C579 0.950 . S
H606 C586 0.949 . S
H607 C588 0.950 . S
C608 O624 1.251 . S
C608 O626 1.254 . S
N609 C610 1.333 . S
N609 C614 1.307 . S
N609 Zn615 2.020 1_556 S
C610 N609 1.333 . S
C610 C611 1.379 . S
C610 H628 0.952 . S
C611 C610 1.379 . S
C611 C612 1.390 . S
C611 H638 0.949 . S
C612 C611 1.390 . S
C612 C613 1.357 . S
C613 C612 1.357 . S
C613 C614 1.370 . S
C613 H639 0.950 . S
C614 N609 1.307 . S
C614 C613 1.370 . S
C614 H632 0.948 . S
Zn615 N609 2.020 1_554 S
Zn615 O624 2.039 . S
Zn615 O630 2.034 . S
Zn615 O634 2.025 . S
Zn615 O636 2.024 1_554 S
C616 O635 1.246 . S
C616 O636 1.249 1_554 S
N617 C618 1.307 . S
N617 C619 1.333 . S
N617 Zn623 2.020 . S
C618 N617 1.307 . S
C618 C622 1.370 . S
C618 H629 0.948 . S
C619 N617 1.333 . S
C619 C620 1.379 . S
C619 H627 0.952 . S
C620 C619 1.379 . S
C620 C621 1.390 . S
C620 H640 0.949 . S
C621 C620 1.390 . S
C621 C622 1.357 . S
C622 C618 1.370 . S
C622 C621 1.357 . S
C622 H641 0.950 . S
Zn623 N617 2.020 . S
Zn623 O626 2.025 . S
Zn623 O631 2.024 . S
Zn623 O633 2.039 . S
Zn623 O635 2.034 . S
O624 C608 1.251 . S
O624 Zn615 2.039 . S
C625 O630 1.246 . S
C625 O631 1.249 . S
O626 C608 1.254 . S
O626 Zn623 2.025 . S
H627 C619 0.952 . S
H628 C610 0.952 . S
H629 C618 0.948 . S
O630 Zn615 2.034 . S
O630 C625 1.246 . S
O631 Zn623 2.024 . S
O631 C625 1.249 . S
H632 C614 0.948 . S
O633 Zn623 2.039 . S
O633 C637 1.251 . S
O634 Zn615 2.025 . S
O634 C637 1.254 . S
O635 C616 1.246 . S
O635 Zn623 2.034 . S
O636 Zn615 2.024 1_556 S
O636 C616 1.249 1_556 S
C637 O633 1.251 . S
C637 O634 1.254 . S
H638 C611 0.949 . S
H639 C613 0.950 . S
H640 C620 0.949 . S
H641 C622 0.950 . S
C642 O658 1.251 . S
C642 O660 1.254 . S
N643 C644 1.333 . S
N643 C648 1.307 . S
N643 Zn649 2.020 . S
C644 N643 1.333 . S
C644 C645 1.379 . S
C644 H662 0.952 . S
C645 C644 1.379 . S
C645 C646 1.390 . S
C645 H672 0.949 . S
C646 C645 1.390 . S
C646 C647 1.357 . S
C647 C646 1.357 . S
C647 C648 1.370 . S
C647 H673 0.950 . S
C648 N643 1.307 . S
C648 C647 1.370 . S
C648 H666 0.948 . S
Zn649 N643 2.020 . S
Zn649 O658 2.039 . S
Zn649 O664 2.034 . S
Zn649 O668 2.025 . S
Zn649 O670 2.024 . S
C650 O669 1.246 . S
C650 O670 1.249 . S
N651 C652 1.307 . S
N651 C653 1.333 . S
N651 Zn657 2.020 . S
C652 N651 1.307 . S
C652 C656 1.370 . S
C652 H663 0.948 . S
C653 N651 1.333 . S
C653 C654 1.379 . S
C653 H661 0.952 . S
C654 C653 1.379 . S
C654 C655 1.390 . S
C654 H674 0.949 . S
C655 C654 1.390 . S
C655 C656 1.357 . S
C656 C652 1.370 . S
C656 C655 1.357 . S
C656 H675 0.950 . S
Zn657 N651 2.020 . S
Zn657 O660 2.025 . S
Zn657 O665 2.024 . S
Zn657 O667 2.039 . S
Zn657 O669 2.034 . S
O658 C642 1.251 . S
O658 Zn649 2.039 . S
C659 O664 1.246 . S
C659 O665 1.249 . S
O660 C642 1.254 . S
O660 Zn657 2.025 . S
H661 C653 0.952 . S
H662 C644 0.952 . S
H663 C652 0.948 . S
O664 Zn649 2.034 . S
O664 C659 1.246 . S
O665 Zn657 2.024 . S
O665 C659 1.249 . S
H666 C648 0.948 . S
O667 Zn657 2.039 . S
O667 C671 1.251 . S
O668 Zn649 2.025 . S
O668 C671 1.254 . S
O669 C650 1.246 . S
O669 Zn657 2.034 . S
O670 Zn649 2.024 . S
O670 C650 1.249 . S
C671 O667 1.251 . S
C671 O668 1.254 . S
H672 C645 0.949 . S
H673 C647 0.950 . S
H674 C654 0.949 . S
H675 C656 0.950 . S
C676 O692 1.251 . S
C676 O694 1.254 . S
N677 C678 1.333 . S
N677 C682 1.307 . S
N677 Zn683 2.020 . S
C678 N677 1.333 . S
C678 C679 1.379 . S
C678 H696 0.952 . S
C679 C678 1.379 . S
C679 C680 1.390 . S
C679 H706 0.949 . S
C680 C679 1.390 . S
C680 C681 1.357 . S
C681 C680 1.357 . S
C681 C682 1.370 . S
C681 H707 0.950 . S
C682 N677 1.307 . S
C682 C681 1.370 . S
C682 H700 0.948 . S
Zn683 N677 2.020 . S
Zn683 O692 2.039 . S
Zn683 O698 2.034 . S
Zn683 O702 2.025 . S
Zn683 O704 2.024 . S
C684 O703 1.246 . S
C684 O704 1.249 . S
N685 C686 1.307 1_455 S
N685 C687 1.333 . S
N685 Zn691 2.020 . S
C686 N685 1.307 1_655 S
C686 C690 1.370 . S
C686 H697 0.948 . S
C687 N685 1.333 . S
C687 C688 1.379 . S
C687 H695 0.952 . S
C688 C687 1.379 . S
C688 C689 1.390 1_455 S
C688 H708 0.949 . S
C689 C688 1.390 1_655 S
C689 C690 1.357 . S
C690 C686 1.370 . S
C690 C689 1.357 . S
C690 H709 0.950 . S
Zn691 N685 2.020 . S
Zn691 O694 2.025 . S
Zn691 O699 2.024 1_455 S
Zn691 O701 2.039 . S
Zn691 O703 2.034 . S
O692 C676 1.251 . S
O692 Zn683 2.039 . S
C693 O698 1.246 1_655 S
C693 O699 1.249 . S
O694 C676 1.254 . S
O694 Zn691 2.025 . S
H695 C687 0.952 . S
H696 C678 0.952 . S
H697 C686 0.948 . S
O698 Zn683 2.034 . S
O698 C693 1.246 1_455 S
O699 Zn691 2.024 1_655 S
O699 C693 1.249 . S
H700 C682 0.948 . S
O701 Zn691 2.039 . S
O701 C705 1.251 . S
O702 Zn683 2.025 . S
O702 C705 1.254 . S
O703 C684 1.246 . S
O703 Zn691 2.034 . S
O704 Zn683 2.024 . S
O704 C684 1.249 . S
C705 O701 1.251 . S
C705 O702 1.254 . S
H706 C679 0.949 . S
H707 C681 0.950 . S
H708 C688 0.949 . S
H709 C690 0.950 . S
C710 O726 1.251 . S
C710 O728 1.254 . S
N711 C712 1.333 . S
N711 C716 1.307 . S
N711 Zn717 2.020 . S
C712 N711 1.333 . S
C712 C713 1.379 . S
C712 H730 0.952 . S
C713 C712 1.379 . S
C713 C714 1.390 . S
C713 H740 0.949 . S
C714 C713 1.390 . S
C714 C715 1.357 . S
C715 C714 1.357 . S
C715 C716 1.370 . S
C715 H741 0.950 . S
C716 N711 1.307 . S
C716 C715 1.370 . S
C716 H734 0.948 . S
Zn717 N711 2.020 . S
Zn717 O726 2.039 . S
Zn717 O732 2.034 . S
Zn717 O736 2.025 . S
Zn717 O738 2.024 . S
C718 O737 1.246 . S
C718 O738 1.249 . S
N719 C720 1.307 . S
N719 C721 1.333 . S
N719 Zn725 2.020 . S
C720 N719 1.307 . S
C720 C724 1.370 . S
C720 H731 0.948 . S
C721 N719 1.333 . S
C721 C722 1.379 . S
C721 H729 0.952 . S
C722 C721 1.379 . S
C722 C723 1.390 . S
C722 H742 0.949 . S
C723 C722 1.390 . S
C723 C724 1.357 . S
C724 C720 1.370 . S
C724 C723 1.357 . S
C724 H743 0.950 . S
Zn725 N719 2.020 . S
Zn725 O728 2.025 . S
Zn725 O733 2.024 . S
Zn725 O735 2.039 . S
Zn725 O737 2.034 . S
O726 C710 1.251 . S
O726 Zn717 2.039 . S
C727 O732 1.246 . S
C727 O733 1.249 . S
O728 C710 1.254 . S
O728 Zn725 2.025 . S
H729 C721 0.952 . S
H730 C712 0.952 . S
H731 C720 0.948 . S
O732 Zn717 2.034 . S
O732 C727 1.246 . S
O733 Zn725 2.024 . S
O733 C727 1.249 . S
H734 C716 0.948 . S
O735 Zn725 2.039 . S
O735 C739 1.251 . S
O736 Zn717 2.025 . S
O736 C739 1.254 . S
O737 C718 1.246 . S
O737 Zn725 2.034 . S
O738 Zn717 2.024 . S
O738 C718 1.249 . S
C739 O735 1.251 . S
C739 O736 1.254 . S
H740 C713 0.949 . S
H741 C715 0.950 . S
H742 C722 0.949 . S
H743 C724 0.950 . S
C744 O760 1.251 . S
C744 O762 1.254 . S
N745 C746 1.333 . S
N745 C750 1.307 . S
N745 Zn751 2.020 . S
C746 N745 1.333 . S
C746 C747 1.379 . S
C746 H764 0.952 . S
C747 C746 1.379 . S
C747 C748 1.390 . S
C747 H774 0.949 . S
C748 C747 1.390 . S
C748 C749 1.357 . S
C749 C748 1.357 . S
C749 C750 1.370 . S
C749 H775 0.950 . S
C750 N745 1.307 . S
C750 C749 1.370 . S
C750 H768 0.948 . S
Zn751 N745 2.020 . S
Zn751 O760 2.039 . S
Zn751 O766 2.034 . S
Zn751 O770 2.025 . S
Zn751 O772 2.024 . S
C752 O771 1.246 . S
C752 O772 1.249 . S
N753 C754 1.307 . S
N753 C755 1.333 . S
N753 Zn759 2.020 . S
C754 N753 1.307 . S
C754 C758 1.370 . S
C754 H765 0.948 . S
C755 N753 1.333 . S
C755 C756 1.379 . S
C755 H763 0.952 . S
C756 C755 1.379 . S
C756 C757 1.390 . S
C756 H776 0.949 . S
C757 C756 1.390 . S
C757 C758 1.357 . S
C758 C754 1.370 . S
C758 C757 1.357 . S
C758 H777 0.950 . S
Zn759 N753 2.020 . S
Zn759 O762 2.025 . S
Zn759 O767 2.024 . S
Zn759 O769 2.039 . S
Zn759 O771 2.034 . S
O760 C744 1.251 . S
O760 Zn751 2.039 . S
C761 O766 1.246 . S
C761 O767 1.249 . S
O762 C744 1.254 . S
O762 Zn759 2.025 . S
H763 C755 0.952 . S
H764 C746 0.952 . S
H765 C754 0.948 . S
O766 Zn751 2.034 . S
O766 C761 1.246 . S
O767 Zn759 2.024 . S
O767 C761 1.249 . S
H768 C750 0.948 . S
O769 Zn759 2.039 . S
O769 C773 1.251 . S
O770 Zn751 2.025 . S
O770 C773 1.254 . S
O771 C752 1.246 . S
O771 Zn759 2.034 . S
O772 Zn751 2.024 . S
O772 C752 1.249 . S
C773 O769 1.251 . S
C773 O770 1.254 . S
H774 C747 0.949 . S
H775 C749 0.950 . S
H776 C756 0.949 . S
H777 C758 0.950 . S
C778 O794 1.251 . S
C778 O796 1.254 . S
N779 C780 1.333 . S
N779 C784 1.307 . S
N779 Zn785 2.020 . S
C780 N779 1.333 . S
C780 C781 1.379 . S
C780 H798 0.952 . S
C781 C780 1.379 . S
C781 C782 1.390 . S
C781 H808 0.949 . S
C782 C781 1.390 . S
C782 C783 1.357 . S
C783 C782 1.357 . S
C783 C784 1.370 . S
C783 H809 0.950 . S
C784 N779 1.307 . S
C784 C783 1.370 . S
C784 H802 0.948 . S
Zn785 N779 2.020 . S
Zn785 O794 2.039 . S
Zn785 O800 2.034 . S
Zn785 O804 2.025 . S
Zn785 O806 2.024 . S
C786 O805 1.246 . S
C786 O806 1.249 . S
N787 C788 1.307 . S
N787 C789 1.333 . S
N787 Zn793 2.020 . S
C788 N787 1.307 . S
C788 C792 1.370 . S
C788 H799 0.948 . S
C789 N787 1.333 . S
C789 C790 1.379 . S
C789 H797 0.952 . S
C790 C789 1.379 . S
C790 C791 1.390 . S
C790 H810 0.949 . S
C791 C790 1.390 . S
C791 C792 1.357 . S
C792 C788 1.370 . S
C792 C791 1.357 . S
C792 H811 0.950 . S
Zn793 N787 2.020 . S
Zn793 O796 2.025 . S
Zn793 O801 2.024 . S
Zn793 O803 2.039 . S
Zn793 O805 2.034 . S
O794 C778 1.251 . S
O794 Zn785 2.039 . S
C795 O800 1.246 . S
C795 O801 1.249 . S
O796 C778 1.254 . S
O796 Zn793 2.025 . S
H797 C789 0.952 . S
H798 C780 0.952 . S
H799 C788 0.948 . S
O800 Zn785 2.034 . S
O800 C795 1.246 . S
O801 Zn793 2.024 . S
O801 C795 1.249 . S
H802 C784 0.948 . S
O803 Zn793 2.039 . S
O803 C807 1.251 . S
O804 Zn785 2.025 . S
O804 C807 1.254 . S
O805 C786 1.246 . S
O805 Zn793 2.034 . S
O806 Zn785 2.024 . S
O806 C786 1.249 . S
C807 O803 1.251 . S
C807 O804 1.254 . S
H808 C781 0.949 . S
H809 C783 0.950 . S
H810 C790 0.949 . S
H811 C792 0.950 . S
C812 O828 1.251 . S
C812 O830 1.254 . S
N813 C814 1.333 . S
N813 C818 1.307 . S
N813 Zn819 2.020 . S
C814 N813 1.333 . S
C814 C815 1.379 . S
C814 H832 0.952 . S
C815 C814 1.379 . S
C815 C816 1.390 . S
C815 H842 0.949 . S
C816 C815 1.390 . S
C816 C817 1.357 . S
C817 C816 1.357 . S
C817 C818 1.370 . S
C817 H843 0.950 . S
C818 N813 1.307 . S
C818 C817 1.370 . S
C818 H836 0.948 . S
Zn819 N813 2.020 . S
Zn819 O828 2.039 . S
Zn819 O834 2.034 . S
Zn819 O838 2.025 . S
Zn819 O840 2.024 . S
C820 O839 1.246 . S
C820 O840 1.249 . S
N821 C822 1.307 . S
N821 C823 1.333 . S
N821 Zn827 2.020 . S
C822 N821 1.307 . S
C822 C826 1.370 . S
C822 H833 0.948 . S
C823 N821 1.333 . S
C823 C824 1.379 . S
C823 H831 0.952 . S
C824 C823 1.379 . S
C824 C825 1.390 . S
C824 H844 0.949 . S
C825 C824 1.390 . S
C825 C826 1.357 . S
C826 C822 1.370 . S
C826 C825 1.357 . S
C826 H845 0.950 . S
Zn827 N821 2.020 . S
Zn827 O830 2.025 . S
Zn827 O835 2.024 . S
Zn827 O837 2.039 . S
Zn827 O839 2.034 . S
O828 C812 1.251 . S
O828 Zn819 2.039 . S
C829 O834 1.246 . S
C829 O835 1.249 . S
O830 C812 1.254 . S
O830 Zn827 2.025 . S
H831 C823 0.952 . S
H832 C814 0.952 . S
H833 C822 0.948 . S
O834 Zn819 2.034 . S
O834 C829 1.246 . S
O835 Zn827 2.024 . S
O835 C829 1.249 . S
H836 C818 0.948 . S
O837 Zn827 2.039 . S
O837 C841 1.251 . S
O838 Zn819 2.025 . S
O838 C841 1.254 . S
O839 C820 1.246 . S
O839 Zn827 2.034 . S
O840 Zn819 2.024 . S
O840 C820 1.249 . S
C841 O837 1.251 . S
C841 O838 1.254 . S
H842 C815 0.949 . S
H843 C817 0.950 . S
H844 C824 0.949 . S
H845 C826 0.950 . S
C846 O862 1.251 . S
C846 O864 1.254 . S
N847 C848 1.333 . S
N847 C852 1.307 . S
N847 Zn853 2.020 . S
C848 N847 1.333 . S
C848 C849 1.379 . S
C848 H866 0.952 . S
C849 C848 1.379 . S
C849 C850 1.390 . S
C849 H876 0.949 . S
C850 C849 1.390 . S
C850 C851 1.357 . S
C851 C850 1.357 . S
C851 C852 1.370 . S
C851 H877 0.950 . S
C852 N847 1.307 . S
C852 C851 1.370 . S
C852 H870 0.948 . S
Zn853 N847 2.020 . S
Zn853 O862 2.039 . S
Zn853 O868 2.034 . S
Zn853 O872 2.025 . S
Zn853 O874 2.024 . S
C854 O873 1.246 . S
C854 O874 1.249 1_655 S
N855 C856 1.307 . S
N855 C857 1.333 1_554 S
N855 Zn861 2.020 . S
C856 N855 1.307 . S
C856 C860 1.370 . S
C856 H867 0.948 . S
C857 N855 1.333 1_556 S
C857 C858 1.379 . S
C857 H865 0.952 . S
C858 C857 1.379 . S
C858 C859 1.388 1_455 S
C858 H878 0.949 1_455 S
C859 C858 1.388 1_655 S
C859 C860 1.352 1_656 S
C860 C856 1.370 . S
C860 C859 1.352 1_454 S
C860 H879 0.950 . S
Zn861 N855 2.020 . S
Zn861 O864 2.025 . S
Zn861 O869 2.024 . S
Zn861 O871 2.039 1_554 S
Zn861 O873 2.034 1_455 S
O862 C846 1.251 . S
O862 Zn853 2.039 . S
C863 O868 1.246 . S
C863 O869 1.249 . S
O864 C846 1.254 . S
O864 Zn861 2.025 . S
H865 C857 0.952 . S
H866 C848 0.952 . S
H867 C856 0.948 . S
O868 Zn853 2.034 . S
O868 C863 1.246 . S
O869 Zn861 2.024 . S
O869 C863 1.249 . S
H870 C852 0.948 . S
O871 Zn861 2.039 1_556 S
O871 C875 1.251 . S
O872 Zn853 2.025 . S
O872 C875 1.254 1_554 S
O873 C854 1.246 . S
O873 Zn861 2.034 1_655 S
O874 Zn853 2.024 . S
O874 C854 1.249 1_455 S
C875 O871 1.251 . S
C875 O872 1.254 1_556 S
H876 C849 0.949 . S
H877 C851 0.950 . S
H878 C858 0.949 1_655 S
H879 C860 0.950 . S
H880 C898 0.951 . S
H881 C900 0.951 . S
H882 C902 0.950 . S
H883 C903 0.950 . S
H884 C905 0.950 . S
H885 C908 0.950 . S
H886 C909 0.950 . S
H887 C911 0.950 . S
H888 C912 0.950 . S
H889 C913 0.951 . S
H890 C915 0.951 . S
H891 C917 0.950 . S
H892 C918 0.950 . S
H893 C920 0.950 . S
H894 C923 0.950 . S
H895 C924 0.950 . S
H896 C926 0.950 . S
H897 C927 0.950 . S
C898 H880 0.951 . S
C898 C899 1.366 . S
C898 C900 1.388 . S
C899 C898 1.366 . S
C899 C903 1.385 . S
C900 H881 0.951 . S
C900 C898 1.388 . S
C900 C901 1.366 . S
C901 C900 1.366 . S
C901 C902 1.414 . S
C901 C904 1.499 . S
C902 H882 0.950 . S
C902 C901 1.414 . S
C902 C903 1.374 . S
C903 H883 0.950 . S
C903 C899 1.385 . S
C903 C902 1.374 . S
C904 C901 1.499 . S
C904 C905 1.373 . S
C904 C906 1.389 . S
C905 H884 0.950 . S
C905 C904 1.373 . S
C905 C921 1.377 . S
C906 C904 1.389 . S
C906 C907 1.524 . S
C906 C920 1.377 . S
C907 C906 1.524 . S
C907 C908 1.397 1_455 S
C907 C912 1.363 . S
C908 H885 0.950 . S
C908 C907 1.397 1_655 S
C908 C909 1.334 . S
C909 H886 0.950 . S
C909 C908 1.334 . S
C909 C910 1.287 . S
C910 C909 1.287 . S
C910 C911 1.524 . S
C910 H929 0.913 . S
C911 H887 0.950 . S
C911 C910 1.524 . S
C911 C912 1.415 1_655 S
C912 H888 0.950 . S
C912 C907 1.363 . S
C912 C911 1.415 1_455 S
C913 H889 0.951 . S
C913 C914 1.366 . S
C913 C915 1.388 . S
C914 C913 1.366 . S
C914 C918 1.385 . S
C915 H890 0.951 . S
C915 C913 1.388 . S
C915 C916 1.366 . S
C916 C915 1.366 . S
C916 C917 1.414 . S
C916 C919 1.499 . S
C917 H891 0.950 . S
C917 C916 1.414 . S
C917 C918 1.374 . S
C918 H892 0.950 . S
C918 C914 1.385 . S
C918 C917 1.374 . S
C919 C916 1.499 . S
C919 C920 1.373 . S
C919 C921 1.389 . S
C920 H893 0.950 . S
C920 C906 1.377 . S
C920 C919 1.373 . S
C921 C905 1.377 . S
C921 C919 1.389 . S
C921 C922 1.524 . S
C922 C921 1.524 . S
C922 C923 1.397 . S
C922 C927 1.363 . S
C923 H894 0.950 . S
C923 C922 1.397 . S
C923 C924 1.334 . S
C924 H895 0.950 . S
C924 C923 1.334 . S
C924 C925 1.287 . S
C925 C924 1.287 . S
C925 C926 1.524 . S
C925 H928 0.999 . S
C926 H896 0.950 . S
C926 C925 1.524 . S
C926 C927 1.415 . S
C927 H897 0.950 . S
C927 C922 1.363 . S
C927 C926 1.415 . S
H928 C925 0.999 . S
H929 C910 0.913 . S
H930 C948 0.951 . S
H931 C950 0.951 . S
H932 C952 0.950 . S
H933 C953 0.950 . S
H934 C955 0.950 . S
H935 C958 0.950 . S
H936 C959 0.950 . S
H937 C961 0.950 . S
H938 C962 0.950 . S
H939 C963 0.951 . S
H940 C965 0.951 . S
H941 C967 0.950 . S
H942 C968 0.950 . S
H943 C970 0.950 . S
H944 C973 0.950 . S
H945 C974 0.950 . S
H946 C976 0.950 . S
H947 C977 0.950 . S
C948 H930 0.951 . S
C948 C949 1.366 . S
C948 C950 1.388 . S
C949 C948 1.366 . S
C949 C953 1.385 . S
C950 H931 0.951 . S
C950 C948 1.388 . S
C950 C951 1.366 . S
C951 C950 1.366 . S
C951 C952 1.414 . S
C951 C954 1.499 . S
C952 H932 0.950 . S
C952 C951 1.414 . S
C952 C953 1.374 . S
C953 H933 0.950 . S
C953 C949 1.385 . S
C953 C952 1.374 . S
C954 C951 1.499 . S
C954 C955 1.373 . S
C954 C956 1.389 . S
C955 H934 0.950 . S
C955 C954 1.373 . S
C955 C971 1.377 . S
C956 C954 1.389 . S
C956 C957 1.524 . S
C956 C970 1.377 . S
C957 C956 1.524 . S
C957 C958 1.397 . S
C957 C962 1.363 . S
C958 H935 0.950 . S
C958 C957 1.397 . S
C958 C959 1.334 . S
C959 H936 0.950 . S
C959 C958 1.334 . S
C959 C960 1.287 . S
C960 C959 1.287 . S
C960 C961 1.524 . S
C960 H979 0.913 . S
C961 H937 0.950 . S
C961 C960 1.524 . S
C961 C962 1.415 . S
C962 H938 0.950 . S
C962 C957 1.363 . S
C962 C961 1.415 . S
C963 H939 0.951 . S
C963 C964 1.366 . S
C963 C965 1.388 . S
C964 C963 1.366 . S
C964 C968 1.385 . S
C965 H940 0.951 . S
C965 C963 1.388 . S
C965 C966 1.366 . S
C966 C965 1.366 . S
C966 C967 1.414 . S
C966 C969 1.499 . S
C967 H941 0.950 . S
C967 C966 1.414 . S
C967 C968 1.374 . S
C968 H942 0.950 . S
C968 C964 1.385 . S
C968 C967 1.374 . S
C969 C966 1.499 . S
C969 C970 1.373 . S
C969 C971 1.389 . S
C970 H943 0.950 . S
C970 C956 1.377 . S
C970 C969 1.373 . S
C971 C955 1.377 . S
C971 C969 1.389 . S
C971 C972 1.524 . S
C972 C971 1.524 . S
C972 C973 1.397 . S
C972 C977 1.363 . S
C973 H944 0.950 . S
C973 C972 1.397 . S
C973 C974 1.334 . S
C974 H945 0.950 . S
C974 C973 1.334 . S
C974 C975 1.287 . S
C975 C974 1.287 . S
C975 C976 1.524 . S
C975 H978 0.999 . S
C976 H946 0.950 . S
C976 C975 1.524 . S
C976 C977 1.415 . S
C977 H947 0.950 . S
C977 C972 1.363 . S
C977 C976 1.415 . S
H978 C975 0.999 . S
H979 C960 0.913 . S
H980 C998 0.951 . S
H981 C1000 0.951 . S
H982 C1002 0.950 . S
H983 C1003 0.950 . S
H984 C1005 0.950 . S
H985 C1008 0.950 . S
H986 C1009 0.950 . S
H987 C1011 0.950 . S
H988 C1012 0.950 . S
H989 C1013 0.951 . S
H990 C1015 0.951 . S
H991 C1017 0.950 . S
H992 C1018 0.950 . S
H993 C1020 0.950 . S
H994 C1023 0.950 . S
H995 C1024 0.950 . S
H996 C1026 0.950 . S
H997 C1027 0.950 . S
C998 H980 0.951 . S
C998 C999 1.366 . S
C998 C1000 1.388 . S
C999 C998 1.366 . S
C999 C1003 1.385 . S
C1000 H981 0.951 . S
C1000 C998 1.388 . S
C1000 C1001 1.366 . S
C1001 C1000 1.366 . S
C1001 C1002 1.414 . S
C1001 C1004 1.499 . S
C1002 H982 0.950 . S
C1002 C1001 1.414 . S
C1002 C1003 1.374 . S
C1003 H983 0.950 . S
C1003 C999 1.385 . S
C1003 C1002 1.374 . S
C1004 C1001 1.499 . S
C1004 C1005 1.373 . S
C1004 C1006 1.389 . S
C1005 H984 0.950 . S
C1005 C1004 1.373 . S
C1005 C1021 1.377 . S
C1006 C1004 1.389 . S
C1006 C1007 1.524 . S
C1006 C1020 1.377 . S
C1007 C1006 1.524 . S
C1007 C1008 1.397 . S
C1007 C1012 1.363 . S
C1008 H985 0.950 . S
C1008 C1007 1.397 . S
C1008 C1009 1.334 . S
C1009 H986 0.950 . S
C1009 C1008 1.334 . S
C1009 C1010 1.287 . S
C1010 C1009 1.287 . S
C1010 C1011 1.524 . S
C1010 H1029 0.913 . S
C1011 H987 0.950 . S
C1011 C1010 1.524 . S
C1011 C1012 1.415 . S
C1012 H988 0.950 . S
C1012 C1007 1.363 . S
C1012 C1011 1.415 . S
C1013 H989 0.951 . S
C1013 C1014 1.366 . S
C1013 C1015 1.388 . S
C1014 C1013 1.366 . S
C1014 C1018 1.385 . S
C1015 H990 0.951 . S
C1015 C1013 1.388 . S
C1015 C1016 1.366 . S
C1016 C1015 1.366 . S
C1016 C1017 1.414 . S
C1016 C1019 1.499 . S
C1017 H991 0.950 . S
C1017 C1016 1.414 . S
C1017 C1018 1.374 . S
C1018 H992 0.950 . S
C1018 C1014 1.385 . S
C1018 C1017 1.374 . S
C1019 C1016 1.499 . S
C1019 C1020 1.373 . S
C1019 C1021 1.389 . S
C1020 H993 0.950 . S
C1020 C1006 1.377 . S
C1020 C1019 1.373 . S
C1021 C1005 1.377 . S
C1021 C1019 1.389 . S
C1021 C1022 1.524 . S
C1022 C1021 1.524 . S
C1022 C1023 1.397 . S
C1022 C1027 1.363 . S
C1023 H994 0.950 . S
C1023 C1022 1.397 . S
C1023 C1024 1.334 . S
C1024 H995 0.950 . S
C1024 C1023 1.334 . S
C1024 C1025 1.287 . S
C1025 C1024 1.287 . S
C1025 C1026 1.524 . S
C1025 H1028 0.999 . S
C1026 H996 0.950 . S
C1026 C1025 1.524 . S
C1026 C1027 1.415 . S
C1027 H997 0.950 . S
C1027 C1022 1.363 . S
C1027 C1026 1.415 . S
H1028 C1025 0.999 . S
H1029 C1010 0.913 . S
H1030 C1048 0.951 . S
H1031 C1050 0.951 . S
H1032 C1052 0.950 . S
H1033 C1053 0.950 . S
H1034 C1055 0.950 . S
H1035 C1058 0.950 . S
H1036 C1059 0.950 . S
H1037 C1061 0.950 . S
H1038 C1062 0.950 . S
H1039 C1063 0.951 . S
H1040 C1065 0.951 . S
H1041 C1067 0.950 . S
H1042 C1068 0.950 . S
H1043 C1070 0.950 . S
H1044 C1073 0.950 . S
H1045 C1074 0.950 . S
H1046 C1076 0.950 . S
H1047 C1077 0.950 . S
C1048 H1030 0.951 . S
C1048 C1049 1.366 . S
C1048 C1050 1.388 . S
C1049 C1048 1.366 . S
C1049 C1053 1.385 . S
C1050 H1031 0.951 . S
C1050 C1048 1.388 . S
C1050 C1051 1.366 . S
C1051 C1050 1.366 . S
C1051 C1052 1.414 . S
C1051 C1054 1.499 . S
C1052 H1032 0.950 . S
C1052 C1051 1.414 . S
C1052 C1053 1.374 . S
C1053 H1033 0.950 . S
C1053 C1049 1.385 . S
C1053 C1052 1.374 . S
C1054 C1051 1.499 . S
C1054 C1055 1.373 . S
C1054 C1056 1.389 . S
C1055 H1034 0.950 . S
C1055 C1054 1.373 . S
C1055 C1071 1.377 . S
C1056 C1054 1.389 . S
C1056 C1057 1.524 . S
C1056 C1070 1.377 . S
C1057 C1056 1.524 . S
C1057 C1058 1.397 . S
C1057 C1062 1.363 . S
C1058 H1035 0.950 . S
C1058 C1057 1.397 . S
C1058 C1059 1.334 . S
C1059 H1036 0.950 . S
C1059 C1058 1.334 . S
C1059 C1060 1.287 . S
C1060 C1059 1.287 . S
C1060 C1061 1.524 . S
C1060 H1079 0.913 . S
C1061 H1037 0.950 . S
C1061 C1060 1.524 . S
C1061 C1062 1.415 . S
C1062 H1038 0.950 . S
C1062 C1057 1.363 . S
C1062 C1061 1.415 . S
C1063 H1039 0.951 . S
C1063 C1064 1.366 . S
C1063 C1065 1.388 . S
C1064 C1063 1.366 . S
C1064 C1068 1.385 . S
C1065 H1040 0.951 . S
C1065 C1063 1.388 . S
C1065 C1066 1.366 . S
C1066 C1065 1.366 . S
C1066 C1067 1.414 . S
C1066 C1069 1.499 . S
C1067 H1041 0.950 . S
C1067 C1066 1.414 . S
C1067 C1068 1.374 . S
C1068 H1042 0.950 . S
C1068 C1064 1.385 . S
C1068 C1067 1.374 . S
C1069 C1066 1.499 . S
C1069 C1070 1.373 . S
C1069 C1071 1.389 . S
C1070 H1043 0.950 . S
C1070 C1056 1.377 . S
C1070 C1069 1.373 . S
C1071 C1055 1.377 . S
C1071 C1069 1.389 . S
C1071 C1072 1.524 . S
C1072 C1071 1.524 . S
C1072 C1073 1.397 . S
C1072 C1077 1.363 . S
C1073 H1044 0.950 . S
C1073 C1072 1.397 . S
C1073 C1074 1.334 . S
C1074 H1045 0.950 . S
C1074 C1073 1.334 . S
C1074 C1075 1.287 . S
C1075 C1074 1.287 . S
C1075 C1076 1.524 . S
C1075 H1078 0.999 . S
C1076 H1046 0.950 . S
C1076 C1075 1.524 . S
C1076 C1077 1.415 . S
C1077 H1047 0.950 . S
C1077 C1072 1.363 . S
C1077 C1076 1.415 . S
H1078 C1075 0.999 . S
H1079 C1060 0.913 . S
H1080 C1098 0.951 . S
H1081 C1100 0.951 . S
H1082 C1102 0.950 1_655 S
H1083 C1103 0.924 1_655 S
H1084 C1105 0.950 . S
H1085 C1108 0.950 1_655 S
H1086 C1109 0.950 1_655 S
H1087 C1111 0.950 . S
H1088 C1112 0.950 . S
H1089 C1113 0.951 1_655 S
H1090 C1115 0.951 1_655 S
H1091 C1117 0.950 . S
H1092 C1118 0.950 . S
H1093 C1120 0.950 . S
H1094 C1123 0.950 . S
H1095 C1124 0.950 . S
H1096 C1126 0.950 1_655 S
H1097 C1127 0.950 1_655 S
C1098 H1080 0.951 . S
C1098 C1099 1.366 . S
C1098 C1100 1.388 . S
C1099 C1098 1.366 . S
C1099 C1103 1.385 . S
C1100 H1081 0.951 . S
C1100 C1098 1.388 . S
C1100 C1101 1.366 . S
C1101 C1100 1.366 . S
C1101 C1102 1.414 . S
C1101 C1104 1.499 . S
C1102 H1082 0.950 1_455 S
C1102 C1101 1.414 . S
C1102 C1103 1.374 . S
C1103 H1083 0.924 1_455 S
C1103 C1099 1.385 . S
C1103 C1102 1.374 . S
C1104 C1101 1.499 . S
C1104 C1105 1.373 . S
C1104 C1106 1.389 . S
C1105 H1084 0.950 . S
C1105 C1104 1.373 . S
C1105 C1121 1.377 . S
C1106 C1104 1.389 . S
C1106 C1107 1.524 . S
C1106 C1120 1.377 . S
C1107 C1106 1.524 . S
C1107 C1108 1.397 . S
C1107 C1112 1.363 . S
C1108 H1085 0.950 1_455 S
C1108 C1107 1.397 . S
C1108 C1109 1.334 . S
C1109 H1086 0.950 1_455 S
C1109 C1108 1.334 . S
C1109 C1110 1.287 . S
C1110 C1109 1.287 . S
C1110 C1111 1.524 . S
C1110 H1129 0.913 . S
C1111 H1087 0.950 . S
C1111 C1110 1.524 . S
C1111 C1112 1.415 . S
C1112 H1088 0.950 . S
C1112 C1107 1.363 . S
C1112 C1111 1.415 . S
C1113 H1089 0.951 1_455 S
C1113 C1114 1.366 . S
C1113 C1115 1.388 . S
C1114 C1113 1.366 . S
C1114 C1118 1.385 . S
C1115 H1090 0.951 1_455 S
C1115 C1113 1.388 . S
C1115 C1116 1.366 . S
C1116 C1115 1.366 . S
C1116 C1117 1.414 . S
C1116 C1119 1.499 . S
C1117 H1091 0.950 . S
C1117 C1116 1.414 . S
C1117 C1118 1.374 . S
C1118 H1092 0.950 . S
C1118 C1114 1.385 . S
C1118 C1117 1.374 . S
C1119 C1116 1.499 . S
C1119 C1120 1.373 . S
C1119 C1121 1.389 . S
C1120 H1093 0.950 . S
C1120 C1106 1.377 . S
C1120 C1119 1.373 . S
C1121 C1105 1.377 . S
C1121 C1119 1.389 . S
C1121 C1122 1.524 . S
C1122 C1121 1.524 . S
C1122 C1123 1.397 . S
C1122 C1127 1.363 . S
C1123 H1094 0.950 . S
C1123 C1122 1.397 . S
C1123 C1124 1.334 . S
C1124 H1095 0.950 . S
C1124 C1123 1.334 . S
C1124 C1125 1.287 . S
C1125 C1124 1.287 . S
C1125 C1126 1.524 . S
C1125 H1128 0.999 . S
C1126 H1096 0.950 1_455 S
C1126 C1125 1.524 . S
C1126 C1127 1.415 . S
C1127 H1097 0.950 1_455 S
C1127 C1122 1.363 . S
C1127 C1126 1.415 . S
H1128 C1125 0.999 . S
H1129 C1110 0.913 . S
H1130 C1148 0.951 . S
H1131 C1150 0.951 . S
H1132 C1152 0.950 . S
H1133 C1153 0.950 . S
H1134 C1155 0.950 . S
H1135 C1158 0.950 . S
H1136 C1159 0.950 . S
H1137 C1161 0.950 . S
H1138 C1162 0.950 . S
H1139 C1163 0.951 . S
H1140 C1165 0.951 . S
H1141 C1167 0.950 . S
H1142 C1168 0.950 . S
H1143 C1170 0.950 . S
H1144 C1173 0.950 . S
H1145 C1174 0.950 . S
H1146 C1176 0.950 . S
H1147 C1177 0.950 . S
C1148 H1130 0.951 . S
C1148 C1149 1.366 . S
C1148 C1150 1.388 . S
C1149 C1148 1.366 . S
C1149 C1153 1.385 . S
C1150 H1131 0.951 . S
C1150 C1148 1.388 . S
C1150 C1151 1.366 . S
C1151 C1150 1.366 . S
C1151 C1152 1.414 . S
C1151 C1154 1.499 . S
C1152 H1132 0.950 . S
C1152 C1151 1.414 . S
C1152 C1153 1.374 . S
C1153 H1133 0.950 . S
C1153 C1149 1.385 . S
C1153 C1152 1.374 . S
C1154 C1151 1.499 . S
C1154 C1155 1.373 . S
C1154 C1156 1.389 . S
C1155 H1134 0.950 . S
C1155 C1154 1.373 . S
C1155 C1171 1.377 . S
C1156 C1154 1.389 . S
C1156 C1157 1.524 . S
C1156 C1170 1.377 . S
C1157 C1156 1.524 . S
C1157 C1158 1.397 . S
C1157 C1162 1.363 . S
C1158 H1135 0.950 . S
C1158 C1157 1.397 . S
C1158 C1159 1.334 . S
C1159 H1136 0.950 . S
C1159 C1158 1.334 . S
C1159 C1160 1.287 . S
C1160 C1159 1.287 . S
C1160 C1161 1.524 . S
C1160 H1179 0.913 . S
C1161 H1137 0.950 . S
C1161 C1160 1.524 . S
C1161 C1162 1.415 . S
C1162 H1138 0.950 . S
C1162 C1157 1.363 . S
C1162 C1161 1.415 . S
C1163 H1139 0.951 . S
C1163 C1164 1.366 . S
C1163 C1165 1.388 . S
C1164 C1163 1.366 . S
C1164 C1168 1.385 . S
C1165 H1140 0.951 . S
C1165 C1163 1.388 . S
C1165 C1166 1.366 . S
C1166 C1165 1.366 . S
C1166 C1167 1.414 . S
C1166 C1169 1.499 . S
C1167 H1141 0.950 . S
C1167 C1166 1.414 . S
C1167 C1168 1.374 . S
C1168 H1142 0.950 . S
C1168 C1164 1.385 . S
C1168 C1167 1.374 . S
C1169 C1166 1.499 . S
C1169 C1170 1.373 . S
C1169 C1171 1.389 . S
C1170 H1143 0.950 . S
C1170 C1156 1.377 . S
C1170 C1169 1.373 . S
C1171 C1155 1.377 . S
C1171 C1169 1.389 . S
C1171 C1172 1.524 . S
C1172 C1171 1.524 . S
C1172 C1173 1.397 . S
C1172 C1177 1.363 . S
C1173 H1144 0.950 . S
C1173 C1172 1.397 . S
C1173 C1174 1.334 . S
C1174 H1145 0.950 . S
C1174 C1173 1.334 . S
C1174 C1175 1.287 . S
C1175 C1174 1.287 . S
C1175 C1176 1.524 . S
C1175 H1178 0.999 . S
C1176 H1146 0.950 . S
C1176 C1175 1.524 . S
C1176 C1177 1.415 . S
C1177 H1147 0.950 . S
C1177 C1172 1.363 . S
C1177 C1176 1.415 . S
H1178 C1175 0.999 . S
H1179 C1160 0.913 . S
H1180 C1198 0.951 . S
H1181 C1200 0.951 . S
H1182 C1202 0.950 . S
H1183 C1203 0.950 . S
H1184 C1205 0.950 . S
H1185 C1208 0.950 . S
H1186 C1209 0.950 . S
H1187 C1211 0.950 . S
H1188 C1212 0.950 . S
H1189 C1213 0.951 . S
H1190 C1215 0.951 . S
H1191 C1217 0.950 . S
H1192 C1218 0.950 . S
H1193 C1220 0.950 . S
H1194 C1223 0.950 . S
H1195 C1224 0.950 . S
H1196 C1226 0.950 . S
H1197 C1227 0.950 1_556 S
C1198 H1180 0.951 . S
C1198 C1199 1.366 . S
C1198 C1200 1.388 . S
C1199 C1198 1.366 . S
C1199 C1203 1.385 . S
C1200 H1181 0.951 . S
C1200 C1198 1.388 . S
C1200 C1201 1.366 . S
C1201 C1200 1.366 . S
C1201 C1202 1.414 . S
C1201 C1204 1.499 . S
C1202 H1182 0.950 . S
C1202 C1201 1.414 . S
C1202 C1203 1.374 . S
C1203 H1183 0.950 . S
C1203 C1199 1.385 . S
C1203 C1202 1.374 . S
C1204 C1201 1.499 . S
C1204 C1205 1.373 . S
C1204 C1206 1.389 . S
C1205 H1184 0.950 . S
C1205 C1204 1.373 . S
C1205 C1221 1.377 . S
C1206 C1204 1.389 . S
C1206 C1207 1.524 . S
C1206 C1220 1.377 . S
C1207 C1206 1.524 . S
C1207 C1208 1.397 . S
C1207 C1212 1.363 . S
C1208 H1185 0.950 . S
C1208 C1207 1.397 . S
C1208 C1209 1.334 . S
C1209 H1186 0.950 . S
C1209 C1208 1.334 . S
C1209 C1210 1.287 . S
C1210 C1209 1.287 . S
C1210 C1211 1.524 . S
C1210 H1229 0.913 . S
C1211 H1187 0.950 . S
C1211 C1210 1.524 . S
C1211 C1212 1.415 . S
C1212 H1188 0.950 . S
C1212 C1207 1.363 . S
C1212 C1211 1.415 . S
C1213 H1189 0.951 . S
C1213 C1214 1.368 . S
C1213 C1215 1.388 1_554 S
C1214 C1213 1.368 . S
C1214 C1218 1.367 1_554 S
C1215 H1190 0.951 . S
C1215 C1213 1.388 1_556 S
C1215 C1216 1.366 . S
C1216 C1215 1.366 . S
C1216 C1217 1.414 . S
C1216 C1219 1.499 . S
C1217 H1191 0.950 . S
C1217 C1216 1.414 . S
C1217 C1218 1.374 . S
C1218 H1192 0.950 . S
C1218 C1214 1.367 1_556 S
C1218 C1217 1.374 . S
C1219 C1216 1.499 . S
C1219 C1220 1.373 . S
C1219 C1221 1.389 . S
C1220 H1193 0.950 . S
C1220 C1206 1.377 . S
C1220 C1219 1.373 . S
C1221 C1205 1.377 . S
C1221 C1219 1.389 . S
C1221 C1222 1.524 . S
C1222 C1221 1.524 . S
C1222 C1223 1.397 1_556 S
C1222 C1227 1.363 1_556 S
C1223 H1194 0.950 . S
C1223 C1222 1.397 1_554 S
C1223 C1224 1.334 . S
C1224 H1195 0.950 . S
C1224 C1223 1.334 . S
C1224 C1225 1.287 . S
C1225 C1224 1.287 . S
C1225 C1226 1.524 . S
C1225 H1228 0.999 . S
C1226 H1196 0.950 . S
C1226 C1225 1.524 . S
C1226 C1227 1.415 . S
C1227 H1197 0.950 1_554 S
C1227 C1222 1.363 1_554 S
C1227 C1226 1.415 . S
H1228 C1225 0.999 . S
H1229 C1210 0.913 . S
H1230 C1248 0.951 . S
H1231 C1250 0.951 . S
H1232 C1252 0.950 . S
H1233 C1253 0.950 . S
H1234 C1255 0.950 . S
H1235 C1258 0.950 . S
H1236 C1259 0.950 . S
H1237 C1261 0.950 . S
H1238 C1262 0.950 . S
H1239 C1263 0.951 . S
H1240 C1265 0.951 . S
H1241 C1267 0.950 . S
H1242 C1268 0.950 . S
H1243 C1270 0.950 . S
H1244 C1273 0.950 . S
H1245 C1274 0.950 . S
H1246 C1276 0.950 . S
H1247 C1277 0.950 . S
C1248 H1230 0.951 . S
C1248 C1249 1.366 . S
C1248 C1250 1.388 . S
C1249 C1248 1.366 . S
C1249 C1253 1.385 . S
C1250 H1231 0.951 . S
C1250 C1248 1.388 . S
C1250 C1251 1.366 . S
C1251 C1250 1.366 . S
C1251 C1252 1.414 . S
C1251 C1254 1.499 . S
C1252 H1232 0.950 . S
C1252 C1251 1.414 . S
C1252 C1253 1.374 . S
C1253 H1233 0.950 . S
C1253 C1249 1.385 . S
C1253 C1252 1.374 . S
C1254 C1251 1.499 . S
C1254 C1255 1.373 . S
C1254 C1256 1.389 . S
C1255 H1234 0.950 . S
C1255 C1254 1.373 . S
C1255 C1271 1.377 . S
C1256 C1254 1.389 . S
C1256 C1257 1.524 . S
C1256 C1270 1.377 . S
C1257 C1256 1.524 . S
C1257 C1258 1.397 . S
C1257 C1262 1.363 . S
C1258 H1235 0.950 . S
C1258 C1257 1.397 . S
C1258 C1259 1.334 . S
C1259 H1236 0.950 . S
C1259 C1258 1.334 . S
C1259 C1260 1.287 . S
C1260 C1259 1.287 . S
C1260 C1261 1.524 . S
C1260 H1279 0.913 . S
C1261 H1237 0.950 . S
C1261 C1260 1.524 . S
C1261 C1262 1.415 . S
C1262 H1238 0.950 . S
C1262 C1257 1.363 . S
C1262 C1261 1.415 . S
C1263 H1239 0.951 . S
C1263 C1264 1.366 . S
C1263 C1265 1.388 . S
C1264 C1263 1.366 . S
C1264 C1268 1.385 . S
C1265 H1240 0.951 . S
C1265 C1263 1.388 . S
C1265 C1266 1.366 . S
C1266 C1265 1.366 . S
C1266 C1267 1.414 . S
C1266 C1269 1.499 . S
C1267 H1241 0.950 . S
C1267 C1266 1.414 . S
C1267 C1268 1.374 . S
C1268 H1242 0.950 . S
C1268 C1264 1.385 . S
C1268 C1267 1.374 . S
C1269 C1266 1.499 . S
C1269 C1270 1.373 . S
C1269 C1271 1.389 . S
C1270 H1243 0.950 . S
C1270 C1256 1.377 . S
C1270 C1269 1.373 . S
C1271 C1255 1.377 . S
C1271 C1269 1.389 . S
C1271 C1272 1.524 . S
C1272 C1271 1.524 . S
C1272 C1273 1.397 . S
C1272 C1277 1.363 . S
C1273 H1244 0.950 . S
C1273 C1272 1.397 . S
C1273 C1274 1.334 . S
C1274 H1245 0.950 . S
C1274 C1273 1.334 . S
C1274 C1275 1.287 . S
C1275 C1274 1.287 . S
C1275 C1276 1.524 . S
C1275 H1278 0.999 . S
C1276 H1246 0.950 . S
C1276 C1275 1.524 . S
C1276 C1277 1.415 . S
C1277 H1247 0.950 . S
C1277 C1272 1.363 . S
C1277 C1276 1.415 . S
H1278 C1275 0.999 . S
H1279 C1260 0.913 . S
H1280 C1298 0.951 . S
H1281 C1300 0.951 . S
H1282 C1302 0.943 1_565 S
H1283 C1303 0.950 . S
H1284 C1305 0.950 . S
H1285 C1308 0.950 . S
H1286 C1309 0.950 . S
H1287 C1311 0.950 . S
H1288 C1312 0.975 . S
H1289 C1313 0.951 . S
H1290 C1315 0.951 . S
H1291 C1317 0.950 . S
H1292 C1318 0.950 . S
H1293 C1320 0.950 . S
H1294 C1323 0.950 . S
H1295 C1324 0.950 . S
H1296 C1326 0.950 . S
H1297 C1327 0.950 . S
C1298 H1280 0.951 . S
C1298 C1299 1.366 . S
C1298 C1300 1.388 . S
C1299 C1298 1.366 . S
C1299 C1303 1.385 . S
C1300 H1281 0.951 . S
C1300 C1298 1.388 . S
C1300 C1301 1.366 . S
C1301 C1300 1.366 . S
C1301 C1302 1.414 . S
C1301 C1304 1.499 . S
C1302 H1282 0.943 1_545 S
C1302 C1301 1.414 . S
C1302 C1303 1.374 . S
C1303 H1283 0.950 . S
C1303 C1299 1.385 . S
C1303 C1302 1.374 . S
C1304 C1301 1.499 . S
C1304 C1305 1.373 . S
C1304 C1306 1.389 1_545 S
C1305 H1284 0.950 . S
C1305 C1304 1.373 . S
C1305 C1321 1.377 . S
C1306 C1304 1.389 1_565 S
C1306 C1307 1.524 . S
C1306 C1320 1.377 . S
C1307 C1306 1.524 . S
C1307 C1308 1.397 . S
C1307 C1312 1.363 . S
C1308 H1285 0.950 . S
C1308 C1307 1.397 . S
C1308 C1309 1.334 . S
C1309 H1286 0.950 . S
C1309 C1308 1.334 . S
C1309 C1310 1.287 . S
C1310 C1309 1.287 . S
C1310 C1311 1.524 . S
C1310 H1329 0.913 . S
C1311 H1287 0.950 . S
C1311 C1310 1.524 . S
C1311 C1312 1.415 . S
C1312 H1288 0.975 . S
C1312 C1307 1.363 . S
C1312 C1311 1.415 . S
C1313 H1289 0.951 . S
C1313 C1314 1.382 . S
C1313 C1315 1.388 . S
C1314 C1313 1.382 . S
C1314 C1318 1.366 1_565 S
C1315 H1290 0.951 . S
C1315 C1313 1.388 . S
C1315 C1316 1.366 1_565 S
C1316 C1315 1.366 1_545 S
C1316 C1317 1.414 . S
C1316 C1319 1.499 . S
C1317 H1291 0.950 . S
C1317 C1316 1.414 . S
C1317 C1318 1.374 . S
C1318 H1292 0.950 . S
C1318 C1314 1.366 1_545 S
C1318 C1317 1.374 . S
C1319 C1316 1.499 . S
C1319 C1320 1.373 1_545 S
C1319 C1321 1.389 . S
C1320 H1293 0.950 . S
C1320 C1306 1.377 . S
C1320 C1319 1.373 1_565 S
C1321 C1305 1.377 . S
C1321 C1319 1.389 . S
C1321 C1322 1.524 . S
C1322 C1321 1.524 . S
C1322 C1323 1.397 . S
C1322 C1327 1.363 . S
C1323 H1294 0.950 . S
C1323 C1322 1.397 . S
C1323 C1324 1.334 . S
C1324 H1295 0.950 . S
C1324 C1323 1.334 . S
C1324 C1325 1.287 . S
C1325 C1324 1.287 . S
C1325 C1326 1.524 . S
C1325 H1328 0.999 . S
C1326 H1296 0.950 . S
C1326 C1325 1.524 . S
C1326 C1327 1.415 . S
C1327 H1297 0.950 . S
C1327 C1322 1.363 . S
C1327 C1326 1.415 . S
H1328 C1325 0.999 . S
H1329 C1310 0.913 . S
H1330 C1348 0.951 . S
H1331 C1350 0.951 . S
H1332 C1352 0.950 . S
H1333 C1353 0.950 . S
H1334 C1355 0.950 . S
H1335 C1358 0.950 . S
H1336 C1359 0.950 . S
H1337 C1361 0.950 . S
H1338 C1362 0.950 . S
H1339 C1363 0.951 . S
H1340 C1365 0.951 . S
H1341 C1367 0.950 . S
H1342 C1368 0.950 . S
H1343 C1370 0.950 . S
H1344 C1373 0.950 . S
H1345 C1374 0.950 . S
H1346 C1376 0.950 . S
H1347 C1377 0.950 . S
C1348 H1330 0.951 . S
C1348 C1349 1.366 . S
C1348 C1350 1.388 . S
C1349 C1348 1.366 . S
C1349 C1353 1.385 . S
C1350 H1331 0.951 . S
C1350 C1348 1.388 . S
C1350 C1351 1.366 . S
C1351 C1350 1.366 . S
C1351 C1352 1.414 . S
C1351 C1354 1.499 . S
C1352 H1332 0.950 . S
C1352 C1351 1.414 . S
C1352 C1353 1.374 . S
C1353 H1333 0.950 . S
C1353 C1349 1.385 . S
C1353 C1352 1.374 . S
C1354 C1351 1.499 . S
C1354 C1355 1.373 . S
C1354 C1356 1.389 . S
C1355 H1334 0.950 . S
C1355 C1354 1.373 . S
C1355 C1371 1.377 . S
C1356 C1354 1.389 . S
C1356 C1357 1.524 . S
C1356 C1370 1.377 . S
C1357 C1356 1.524 . S
C1357 C1358 1.397 . S
C1357 C1362 1.363 . S
C1358 H1335 0.950 . S
C1358 C1357 1.397 . S
C1358 C1359 1.334 . S
C1359 H1336 0.950 . S
C1359 C1358 1.334 . S
C1359 C1360 1.287 . S
C1360 C1359 1.287 . S
C1360 C1361 1.524 . S
C1360 H1379 0.913 . S
C1361 H1337 0.950 . S
C1361 C1360 1.524 . S
C1361 C1362 1.415 . S
C1362 H1338 0.950 . S
C1362 C1357 1.363 . S
C1362 C1361 1.415 . S
C1363 H1339 0.951 . S
C1363 C1364 1.366 . S
C1363 C1365 1.388 . S
C1364 C1363 1.366 . S
C1364 C1368 1.385 . S
C1365 H1340 0.951 . S
C1365 C1363 1.388 . S
C1365 C1366 1.366 . S
C1366 C1365 1.366 . S
C1366 C1367 1.414 . S
C1366 C1369 1.499 . S
C1367 H1341 0.950 . S
C1367 C1366 1.414 . S
C1367 C1368 1.374 . S
C1368 H1342 0.950 . S
C1368 C1364 1.385 . S
C1368 C1367 1.374 . S
C1369 C1366 1.499 . S
C1369 C1370 1.373 . S
C1369 C1371 1.389 . S
C1370 H1343 0.950 . S
C1370 C1356 1.377 . S
C1370 C1369 1.373 . S
C1371 C1355 1.377 . S
C1371 C1369 1.389 . S
C1371 C1372 1.524 . S
C1372 C1371 1.524 . S
C1372 C1373 1.397 . S
C1372 C1377 1.363 . S
C1373 H1344 0.950 . S
C1373 C1372 1.397 . S
C1373 C1374 1.334 . S
C1374 H1345 0.950 . S
C1374 C1373 1.334 . S
C1374 C1375 1.287 . S
C1375 C1374 1.287 . S
C1375 C1376 1.524 . S
C1375 H1378 0.999 . S
C1376 H1346 0.950 . S
C1376 C1375 1.524 . S
C1376 C1377 1.415 . S
C1377 H1347 0.950 . S
C1377 C1372 1.363 . S
C1377 C1376 1.415 . S
H1378 C1375 0.999 . S
H1379 C1360 0.913 . S
H1380 C1398 0.951 . S
H1381 C1400 0.951 . S
H1382 C1402 0.950 . S
H1383 C1403 0.950 . S
H1384 C1405 0.950 . S
H1385 C1408 0.950 . S
H1386 C1409 0.950 . S
H1387 C1411 0.950 . S
H1388 C1412 0.950 . S
H1389 C1413 0.951 . S
H1390 C1415 0.951 . S
H1391 C1417 0.904 1_565 S
H1392 C1418 0.950 1_565 S
H1393 C1420 0.950 . S
H1394 C1423 0.937 1_565 S
H1395 C1424 0.950 . S
H1396 C1426 0.950 . S
H1397 C1427 0.950 . S
C1398 H1380 0.951 . S
C1398 C1399 1.366 1_565 S
C1398 C1400 1.388 . S
C1399 C1398 1.366 1_545 S
C1399 C1403 1.385 . S
C1400 H1381 0.951 . S
C1400 C1398 1.388 . S
C1400 C1401 1.366 1_565 S
C1401 C1400 1.366 1_545 S
C1401 C1402 1.414 . S
C1401 C1404 1.499 . S
C1402 H1382 0.950 . S
C1402 C1401 1.414 . S
C1402 C1403 1.374 . S
C1403 H1383 0.950 . S
C1403 C1399 1.385 . S
C1403 C1402 1.374 . S
C1404 C1401 1.499 . S
C1404 C1405 1.373 . S
C1404 C1406 1.389 . S
C1405 H1384 0.950 . S
C1405 C1404 1.373 . S
C1405 C1421 1.377 . S
C1406 C1404 1.389 . S
C1406 C1407 1.524 . S
C1406 C1420 1.377 . S
C1407 C1406 1.524 . S
C1407 C1408 1.397 . S
C1407 C1412 1.363 1_545 S
C1408 H1385 0.950 . S
C1408 C1407 1.397 . S
C1408 C1409 1.334 . S
C1409 H1386 0.950 . S
C1409 C1408 1.334 . S
C1409 C1410 1.287 1_545 S
C1410 C1409 1.287 1_565 S
C1410 C1411 1.524 . S
C1410 H1429 0.913 . S
C1411 H1387 0.950 . S
C1411 C1410 1.524 . S
C1411 C1412 1.415 . S
C1412 H1388 0.950 . S
C1412 C1407 1.363 1_565 S
C1412 C1411 1.415 . S
C1413 H1389 0.951 . S
C1413 C1414 1.366 . S
C1413 C1415 1.388 . S
C1414 C1413 1.366 . S
C1414 C1418 1.385 . S
C1415 H1390 0.951 . S
C1415 C1413 1.388 . S
C1415 C1416 1.366 . S
C1416 C1415 1.366 . S
C1416 C1417 1.456 . S
C1416 C1419 1.499 . S
C1417 H1391 0.904 1_545 S
C1417 C1416 1.456 . S
C1417 C1418 1.380 . S
C1418 H1392 0.950 1_545 S
C1418 C1414 1.385 . S
C1418 C1417 1.380 . S
C1419 C1416 1.499 . S
C1419 C1420 1.373 . S
C1419 C1421 1.389 . S
C1420 H1393 0.950 . S
C1420 C1406 1.377 . S
C1420 C1419 1.373 . S
C1421 C1405 1.377 . S
C1421 C1419 1.389 . S
C1421 C1422 1.524 . S
C1422 C1421 1.524 . S
C1422 C1423 1.397 . S
C1422 C1427 1.363 . S
C1423 H1394 0.937 1_545 S
C1423 C1422 1.397 . S
C1423 C1424 1.334 . S
C1424 H1395 0.950 . S
C1424 C1423 1.334 . S
C1424 C1425 1.287 . S
C1425 C1424 1.287 . S
C1425 C1426 1.524 . S
C1425 H1428 0.999 . S
C1426 H1396 0.950 . S
C1426 C1425 1.524 . S
C1426 C1427 1.415 . S
C1427 H1397 0.950 . S
C1427 C1422 1.363 . S
C1427 C1426 1.415 . S
H1428 C1425 0.999 . S
H1429 C1410 0.913 . S
H1430 C1448 0.951 . S
H1431 C1450 0.951 . S
H1432 C1452 0.950 . S
H1433 C1453 0.950 . S
H1434 C1455 0.950 . S
H1435 C1458 0.950 . S
H1436 C1459 0.950 . S
H1437 C1461 0.950 . S
H1438 C1462 0.950 . S
H1439 C1463 0.951 . S
H1440 C1465 0.951 . S
H1441 C1467 0.950 . S
H1442 C1468 0.950 . S
H1443 C1470 0.950 . S
H1444 C1473 0.950 . S
H1445 C1474 0.950 . S
H1446 C1476 0.950 . S
H1447 C1477 0.950 . S
C1448 H1430 0.951 . S
C1448 C1449 1.366 . S
C1448 C1450 1.388 . S
C1449 C1448 1.366 . S
C1449 C1453 1.385 . S
C1450 H1431 0.951 . S
C1450 C1448 1.388 . S
C1450 C1451 1.366 . S
C1451 C1450 1.366 . S
C1451 C1452 1.414 . S
C1451 C1454 1.499 . S
C1452 H1432 0.950 . S
C1452 C1451 1.414 . S
C1452 C1453 1.374 . S
C1453 H1433 0.950 . S
C1453 C1449 1.385 . S
C1453 C1452 1.374 . S
C1454 C1451 1.499 . S
C1454 C1455 1.373 . S
C1454 C1456 1.389 . S
C1455 H1434 0.950 . S
C1455 C1454 1.373 . S
C1455 C1471 1.377 . S
C1456 C1454 1.389 . S
C1456 C1457 1.524 . S
C1456 C1470 1.377 . S
C1457 C1456 1.524 . S
C1457 C1458 1.397 . S
C1457 C1462 1.363 . S
C1458 H1435 0.950 . S
C1458 C1457 1.397 . S
C1458 C1459 1.334 . S
C1459 H1436 0.950 . S
C1459 C1458 1.334 . S
C1459 C1460 1.287 . S
C1460 C1459 1.287 . S
C1460 C1461 1.524 . S
C1460 H1479 0.913 . S
C1461 H1437 0.950 . S
C1461 C1460 1.524 . S
C1461 C1462 1.415 . S
C1462 H1438 0.950 . S
C1462 C1457 1.363 . S
C1462 C1461 1.415 . S
C1463 H1439 0.951 . S
C1463 C1464 1.366 . S
C1463 C1465 1.388 . S
C1464 C1463 1.366 . S
C1464 C1468 1.385 . S
C1465 H1440 0.951 . S
C1465 C1463 1.388 . S
C1465 C1466 1.366 . S
C1466 C1465 1.366 . S
C1466 C1467 1.414 . S
C1466 C1469 1.499 . S
C1467 H1441 0.950 . S
C1467 C1466 1.414 . S
C1467 C1468 1.374 . S
C1468 H1442 0.950 . S
C1468 C1464 1.385 . S
C1468 C1467 1.374 . S
C1469 C1466 1.499 . S
C1469 C1470 1.373 . S
C1469 C1471 1.389 . S
C1470 H1443 0.950 . S
C1470 C1456 1.377 . S
C1470 C1469 1.373 . S
C1471 C1455 1.377 . S
C1471 C1469 1.389 . S
C1471 C1472 1.524 . S
C1472 C1471 1.524 . S
C1472 C1473 1.397 . S
C1472 C1477 1.363 . S
C1473 H1444 0.950 . S
C1473 C1472 1.397 . S
C1473 C1474 1.334 . S
C1474 H1445 0.950 . S
C1474 C1473 1.334 . S
C1474 C1475 1.287 . S
C1475 C1474 1.287 . S
C1475 C1476 1.524 . S
C1475 H1478 0.999 . S
C1476 H1446 0.950 . S
C1476 C1475 1.524 . S
C1476 C1477 1.415 . S
C1477 H1447 0.950 . S
C1477 C1472 1.363 . S
C1477 C1476 1.415 . S
H1478 C1475 0.999 . S
H1479 C1460 0.913 . S
H1480 C1498 0.951 . S
H1481 C1500 0.951 . S
H1482 C1502 0.950 1_565 S
H1483 C1503 0.950 1_565 S
H1484 C1505 0.950 . S
H1485 C1508 0.950 1_565 S
H1486 C1509 0.950 1_565 S
H1487 C1511 0.950 . S
H1488 C1512 0.950 . S
H1489 C1513 0.951 . S
H1490 C1515 0.951 . S
H1491 C1517 0.950 . S
H1492 C1518 0.950 . S
H1493 C1520 0.950 . S
H1494 C1523 0.950 . S
H1495 C1524 0.950 . S
H1496 C1526 0.950 . S
H1497 C1527 0.950 . S
C1498 H1480 0.951 . S
C1498 C1499 1.366 . S
C1498 C1500 1.388 . S
C1499 C1498 1.366 . S
C1499 C1503 1.385 . S
C1500 H1481 0.951 . S
C1500 C1498 1.388 . S
C1500 C1501 1.366 . S
C1501 C1500 1.366 . S
C1501 C1502 1.414 . S
C1501 C1504 1.499 . S
C1502 H1482 0.950 1_545 S
C1502 C1501 1.414 . S
C1502 C1503 1.374 . S
C1503 H1483 0.950 1_545 S
C1503 C1499 1.385 . S
C1503 C1502 1.374 . S
C1504 C1501 1.499 . S
C1504 C1505 1.373 . S
C1504 C1506 1.389 . S
C1505 H1484 0.950 . S
C1505 C1504 1.373 . S
C1505 C1521 1.377 . S
C1506 C1504 1.389 . S
C1506 C1507 1.524 . S
C1506 C1520 1.377 . S
C1507 C1506 1.524 . S
C1507 C1508 1.397 . S
C1507 C1512 1.363 . S
C1508 H1485 0.950 1_545 S
C1508 C1507 1.397 . S
C1508 C1509 1.334 . S
C1509 H1486 0.950 1_545 S
C1509 C1508 1.334 . S
C1509 C1510 1.287 . S
C1510 C1509 1.287 . S
C1510 C1511 1.524 . S
C1510 H1529 0.913 . S
C1511 H1487 0.950 . S
C1511 C1510 1.524 . S
C1511 C1512 1.415 . S
C1512 H1488 0.950 . S
C1512 C1507 1.363 . S
C1512 C1511 1.415 . S
C1513 H1489 0.951 . S
C1513 C1514 1.366 . S
C1513 C1515 1.388 . S
C1514 C1513 1.366 . S
C1514 C1518 1.385 . S
C1515 H1490 0.951 . S
C1515 C1513 1.388 . S
C1515 C1516 1.366 . S
C1516 C1515 1.366 . S
C1516 C1517 1.414 . S
C1516 C1519 1.499 . S
C1517 H1491 0.950 . S
C1517 C1516 1.414 . S
C1517 C1518 1.374 . S
C1518 H1492 0.950 . S
C1518 C1514 1.385 . S
C1518 C1517 1.374 . S
C1519 C1516 1.499 . S
C1519 C1520 1.373 . S
C1519 C1521 1.389 . S
C1520 H1493 0.950 . S
C1520 C1506 1.377 . S
C1520 C1519 1.373 . S
C1521 C1505 1.377 . S
C1521 C1519 1.389 . S
C1521 C1522 1.524 . S
C1522 C1521 1.524 . S
C1522 C1523 1.397 . S
C1522 C1527 1.363 . S
C1523 H1494 0.950 . S
C1523 C1522 1.397 . S
C1523 C1524 1.334 . S
C1524 H1495 0.950 . S
C1524 C1523 1.334 . S
C1524 C1525 1.287 . S
C1525 C1524 1.287 . S
C1525 C1526 1.524 . S
C1525 H1528 0.999 . S
C1526 H1496 0.950 . S
C1526 C1525 1.524 . S
C1526 C1527 1.415 . S
C1527 H1497 0.950 . S
C1527 C1522 1.363 . S
C1527 C1526 1.415 . S
H1528 C1525 0.999 . S
H1529 C1510 0.913 . S
H1530 C1548 0.951 . S
H1531 C1550 0.951 . S
H1532 C1552 0.950 . S
H1533 C1553 0.950 . S
H1534 C1555 0.950 . S
H1535 C1558 0.950 . S
H1536 C1559 0.950 . S
H1537 C1561 0.950 . S
H1538 C1562 0.950 . S
H1539 C1563 0.951 . S
H1540 C1565 0.951 . S
H1541 C1567 0.950 . S
H1542 C1568 0.950 . S
H1543 C1570 0.950 . S
H1544 C1573 0.950 . S
H1545 C1574 0.950 . S
H1546 C1576 0.950 . S
H1547 C1577 0.950 . S
C1548 H1530 0.951 . S
C1548 C1549 1.366 . S
C1548 C1550 1.388 . S
C1549 C1548 1.366 . S
C1549 C1553 1.385 . S
C1550 H1531 0.951 . S
C1550 C1548 1.388 . S
C1550 C1551 1.366 . S
C1551 C1550 1.366 . S
C1551 C1552 1.414 . S
C1551 C1554 1.499 . S
C1552 H1532 0.950 . S
C1552 C1551 1.414 . S
C1552 C1553 1.374 . S
C1553 H1533 0.950 . S
C1553 C1549 1.385 . S
C1553 C1552 1.374 . S
C1554 C1551 1.499 . S
C1554 C1555 1.373 . S
C1554 C1556 1.389 . S
C1555 H1534 0.950 . S
C1555 C1554 1.373 . S
C1555 C1571 1.377 . S
C1556 C1554 1.389 . S
C1556 C1557 1.524 . S
C1556 C1570 1.377 . S
C1557 C1556 1.524 . S
C1557 C1558 1.397 . S
C1557 C1562 1.363 . S
C1558 H1535 0.950 . S
C1558 C1557 1.397 . S
C1558 C1559 1.334 . S
C1559 H1536 0.950 . S
C1559 C1558 1.334 . S
C1559 C1560 1.287 . S
C1560 C1559 1.287 . S
C1560 C1561 1.524 . S
C1560 H1579 0.913 . S
C1561 H1537 0.950 . S
C1561 C1560 1.524 . S
C1561 C1562 1.415 . S
C1562 H1538 0.950 . S
C1562 C1557 1.363 . S
C1562 C1561 1.415 . S
C1563 H1539 0.951 . S
C1563 C1564 1.366 . S
C1563 C1565 1.388 . S
C1564 C1563 1.366 . S
C1564 C1568 1.385 . S
C1565 H1540 0.951 . S
C1565 C1563 1.388 . S
C1565 C1566 1.366 . S
C1566 C1565 1.366 . S
C1566 C1567 1.414 . S
C1566 C1569 1.499 . S
C1567 H1541 0.950 . S
C1567 C1566 1.414 . S
C1567 C1568 1.374 . S
C1568 H1542 0.950 . S
C1568 C1564 1.385 . S
C1568 C1567 1.374 . S
C1569 C1566 1.499 . S
C1569 C1570 1.373 . S
C1569 C1571 1.389 . S
C1570 H1543 0.950 . S
C1570 C1556 1.377 . S
C1570 C1569 1.373 . S
C1571 C1555 1.377 . S
C1571 C1569 1.389 . S
C1571 C1572 1.524 . S
C1572 C1571 1.524 . S
C1572 C1573 1.397 . S
C1572 C1577 1.363 . S
C1573 H1544 0.950 . S
C1573 C1572 1.397 . S
C1573 C1574 1.334 . S
C1574 H1545 0.950 . S
C1574 C1573 1.334 . S
C1574 C1575 1.287 . S
C1575 C1574 1.287 . S
C1575 C1576 1.524 . S
C1575 H1578 0.999 . S
C1576 H1546 0.950 . S
C1576 C1575 1.524 . S
C1576 C1577 1.415 . S
C1577 H1547 0.950 . S
C1577 C1572 1.363 . S
C1577 C1576 1.415 . S
H1578 C1575 0.999 . S
H1579 C1560 0.913 . S
H1580 C1598 0.951 . S
H1581 C1600 0.951 . S
H1582 C1602 0.950 . S
H1583 C1603 0.950 . S
H1584 C1605 0.950 . S
H1585 C1608 0.950 . S
H1586 C1609 0.950 . S
H1587 C1611 0.950 . S
H1588 C1612 0.950 . S
H1589 C1613 0.951 . S
H1590 C1615 0.951 . S
H1591 C1617 0.950 1_545 S
H1592 C1618 0.954 . S
H1593 C1620 0.950 . S
H1594 C1623 0.950 . S
H1595 C1624 0.950 . S
H1596 C1626 0.950 . S
H1597 C1627 0.950 . S
C1598 H1580 0.951 . S
C1598 C1599 1.366 . S
C1598 C1600 1.388 . S
C1599 C1598 1.366 . S
C1599 C1603 1.385 1_545 S
C1600 H1581 0.951 . S
C1600 C1598 1.388 . S
C1600 C1601 1.366 . S
C1601 C1600 1.366 . S
C1601 C1602 1.414 1_545 S
C1601 C1604 1.499 1_545 S
C1602 H1582 0.950 . S
C1602 C1601 1.414 1_565 S
C1602 C1603 1.374 . S
C1603 H1583 0.950 . S
C1603 C1599 1.385 1_565 S
C1603 C1602 1.374 . S
C1604 C1601 1.499 1_565 S
C1604 C1605 1.373 . S
C1604 C1606 1.389 1_565 S
C1605 H1584 0.950 . S
C1605 C1604 1.373 . S
C1605 C1621 1.377 . S
C1606 C1604 1.389 1_545 S
C1606 C1607 1.524 . S
C1606 C1620 1.377 . S
C1607 C1606 1.524 . S
C1607 C1608 1.397 . S
C1607 C1612 1.363 . S
C1608 H1585 0.950 . S
C1608 C1607 1.397 . S
C1608 C1609 1.334 . S
C1609 H1586 0.950 . S
C1609 C1608 1.334 . S
C1609 C1610 1.287 . S
C1610 C1609 1.287 . S
C1610 C1611 1.524 . S
C1610 H1629 0.913 . S
C1611 H1587 0.950 . S
C1611 C1610 1.524 . S
C1611 C1612 1.415 . S
C1612 H1588 0.950 . S
C1612 C1607 1.363 . S
C1612 C1611 1.415 . S
C1613 H1589 0.951 . S
C1613 C1614 1.366 . S
C1613 C1615 1.388 . S
C1614 C1613 1.366 . S
C1614 C1618 1.385 . S
C1615 H1590 0.951 . S
C1615 C1613 1.388 . S
C1615 C1616 1.366 . S
C1616 C1615 1.366 . S
C1616 C1617 1.414 . S
C1616 C1619 1.499 . S
C1617 H1591 0.950 1_565 S
C1617 C1616 1.414 . S
C1617 C1618 1.374 . S
C1618 H1592 0.954 . S
C1618 C1614 1.385 . S
C1618 C1617 1.374 . S
C1619 C1616 1.499 . S
C1619 C1620 1.373 1_565 S
C1619 C1621 1.389 . S
C1620 H1593 0.950 . S
C1620 C1606 1.377 . S
C1620 C1619 1.373 1_545 S
C1621 C1605 1.377 . S
C1621 C1619 1.389 . S
C1621 C1622 1.524 . S
C1622 C1621 1.524 . S
C1622 C1623 1.397 . S
C1622 C1627 1.363 . S
C1623 H1594 0.950 . S
C1623 C1622 1.397 . S
C1623 C1624 1.334 . S
C1624 H1595 0.950 . S
C1624 C1623 1.334 . S
C1624 C1625 1.287 . S
C1625 C1624 1.287 . S
C1625 C1626 1.524 . S
C1625 H1628 0.999 . S
C1626 H1596 0.950 . S
C1626 C1625 1.524 . S
C1626 C1627 1.415 . S
C1627 H1597 0.950 . S
C1627 C1622 1.363 . S
C1627 C1626 1.415 . S
H1628 C1625 0.999 . S
H1629 C1610 0.913 . S
H1630 C1648 0.951 . S
H1631 C1650 0.951 . S
H1632 C1652 0.950 . S
H1633 C1653 0.950 . S
H1634 C1655 0.950 . S
H1635 C1658 0.950 . S
H1636 C1659 0.950 . S
H1637 C1661 0.950 . S
H1638 C1662 0.950 . S
H1639 C1663 0.951 . S
H1640 C1665 0.951 . S
H1641 C1667 0.950 . S
H1642 C1668 0.950 . S
H1643 C1670 0.950 . S
H1644 C1673 0.950 . S
H1645 C1674 0.950 . S
H1646 C1676 0.950 . S
H1647 C1677 0.950 . S
C1648 H1630 0.951 . S
C1648 C1649 1.366 . S
C1648 C1650 1.388 . S
C1649 C1648 1.366 . S
C1649 C1653 1.385 . S
C1650 H1631 0.951 . S
C1650 C1648 1.388 . S
C1650 C1651 1.366 . S
C1651 C1650 1.366 . S
C1651 C1652 1.414 . S
C1651 C1654 1.499 . S
C1652 H1632 0.950 . S
C1652 C1651 1.414 . S
C1652 C1653 1.374 . S
C1653 H1633 0.950 . S
C1653 C1649 1.385 . S
C1653 C1652 1.374 . S
C1654 C1651 1.499 . S
C1654 C1655 1.373 . S
C1654 C1656 1.389 . S
C1655 H1634 0.950 . S
C1655 C1654 1.373 . S
C1655 C1671 1.377 . S
C1656 C1654 1.389 . S
C1656 C1657 1.524 . S
C1656 C1670 1.377 . S
C1657 C1656 1.524 . S
C1657 C1658 1.397 . S
C1657 C1662 1.363 . S
C1658 H1635 0.950 . S
C1658 C1657 1.397 . S
C1658 C1659 1.334 . S
C1659 H1636 0.950 . S
C1659 C1658 1.334 . S
C1659 C1660 1.287 . S
C1660 C1659 1.287 . S
C1660 C1661 1.524 . S
C1660 H1679 0.913 . S
C1661 H1637 0.950 . S
C1661 C1660 1.524 . S
C1661 C1662 1.415 . S
C1662 H1638 0.950 . S
C1662 C1657 1.363 . S
C1662 C1661 1.415 . S
C1663 H1639 0.951 . S
C1663 C1664 1.366 . S
C1663 C1665 1.388 . S
C1664 C1663 1.366 . S
C1664 C1668 1.385 . S
C1665 H1640 0.951 . S
C1665 C1663 1.388 . S
C1665 C1666 1.366 . S
C1666 C1665 1.366 . S
C1666 C1667 1.414 . S
C1666 C1669 1.499 . S
C1667 H1641 0.950 . S
C1667 C1666 1.414 . S
C1667 C1668 1.374 . S
C1668 H1642 0.950 . S
C1668 C1664 1.385 . S
C1668 C1667 1.374 . S
C1669 C1666 1.499 . S
C1669 C1670 1.373 . S
C1669 C1671 1.389 . S
C1670 H1643 0.950 . S
C1670 C1656 1.377 . S
C1670 C1669 1.373 . S
C1671 C1655 1.377 . S
C1671 C1669 1.389 . S
C1671 C1672 1.524 . S
C1672 C1671 1.524 . S
C1672 C1673 1.397 . S
C1672 C1677 1.363 . S
C1673 H1644 0.950 . S
C1673 C1672 1.397 . S
C1673 C1674 1.334 . S
C1674 H1645 0.950 . S
C1674 C1673 1.334 . S
C1674 C1675 1.287 . S
C1675 C1674 1.287 . S
C1675 C1676 1.524 . S
C1675 H1678 0.999 . S
C1676 H1646 0.950 . S
C1676 C1675 1.524 . S
C1676 C1677 1.415 . S
C1677 H1647 0.950 . S
C1677 C1672 1.363 . S
C1677 C1676 1.415 . S
H1678 C1675 0.999 . S
H1679 C1660 0.913 . S
H1680 C1698 0.951 . S
H1681 C1700 0.951 . S
H1682 C1702 0.950 1_556 S
H1683 C1703 0.967 . S
H1684 C1705 0.950 . S
H1685 C1708 0.950 . S
H1686 C1709 0.950 . S
H1687 C1711 0.950 . S
H1688 C1712 0.950 . S
H1689 C1713 0.951 . S
H1690 C1715 0.951 . S
H1691 C1717 0.950 . S
H1692 C1718 0.950 . S
H1693 C1720 0.950 . S
H1694 C1723 0.950 . S
H1695 C1724 0.950 . S
H1696 C1726 0.950 . S
H1697 C1727 0.950 . S
C1698 H1680 0.951 . S
C1698 C1699 1.366 . S
C1698 C1700 1.388 . S
C1699 C1698 1.366 . S
C1699 C1703 1.385 . S
C1700 H1681 0.951 . S
C1700 C1698 1.388 . S
C1700 C1701 1.366 . S
C1701 C1700 1.366 . S
C1701 C1702 1.414 . S
C1701 C1704 1.499 . S
C1702 H1682 0.950 1_554 S
C1702 C1701 1.414 . S
C1702 C1703 1.374 . S
C1703 H1683 0.967 . S
C1703 C1699 1.385 . S
C1703 C1702 1.374 . S
C1704 C1701 1.499 . S
C1704 C1705 1.373 1_554 S
C1704 C1706 1.389 . S
C1705 H1684 0.950 . S
C1705 C1704 1.373 1_556 S
C1705 C1721 1.377 . S
C1706 C1704 1.389 . S
C1706 C1707 1.524 . S
C1706 C1720 1.377 . S
C1707 C1706 1.524 . S
C1707 C1708 1.397 . S
C1707 C1712 1.363 . S
C1708 H1685 0.950 . S
C1708 C1707 1.397 . S
C1708 C1709 1.334 . S
C1709 H1686 0.950 . S
C1709 C1708 1.334 . S
C1709 C1710 1.287 . S
C1710 C1709 1.287 . S
C1710 C1711 1.524 . S
C1710 H1729 0.913 . S
C1711 H1687 0.950 . S
C1711 C1710 1.524 . S
C1711 C1712 1.415 . S
C1712 H1688 0.950 . S
C1712 C1707 1.363 . S
C1712 C1711 1.415 . S
C1713 H1689 0.951 . S
C1713 C1714 1.381 . S
C1713 C1715 1.388 . S
C1714 C1713 1.381 . S
C1714 C1718 1.367 1_556 S
C1715 H1690 0.951 . S
C1715 C1713 1.388 . S
C1715 C1716 1.366 1_556 S
C1716 C1715 1.366 1_554 S
C1716 C1717 1.414 . S
C1716 C1719 1.499 . S
C1717 H1691 0.950 . S
C1717 C1716 1.414 . S
C1717 C1718 1.374 . S
C1718 H1692 0.950 . S
C1718 C1714 1.367 1_554 S
C1718 C1717 1.374 . S
C1719 C1716 1.499 . S
C1719 C1720 1.373 . S
C1719 C1721 1.389 1_554 S
C1720 H1693 0.950 . S
C1720 C1706 1.377 . S
C1720 C1719 1.373 . S
C1721 C1705 1.377 . S
C1721 C1719 1.389 1_556 S
C1721 C1722 1.524 . S
C1722 C1721 1.524 . S
C1722 C1723 1.397 . S
C1722 C1727 1.363 . S
C1723 H1694 0.950 . S
C1723 C1722 1.397 . S
C1723 C1724 1.334 . S
C1724 H1695 0.950 . S
C1724 C1723 1.334 . S
C1724 C1725 1.287 . S
C1725 C1724 1.287 . S
C1725 C1726 1.524 . S
C1725 H1728 0.999 . S
C1726 H1696 0.950 . S
C1726 C1725 1.524 . S
C1726 C1727 1.415 . S
C1727 H1697 0.950 . S
C1727 C1722 1.363 . S
C1727 C1726 1.415 . S
H1728 C1725 0.999 . S
H1729 C1710 0.913 . S
H1730 C1748 0.951 . S
H1731 C1750 0.951 . S
H1732 C1752 0.950 . S
H1733 C1753 0.950 . S
H1734 C1755 0.950 . S
H1735 C1758 0.950 . S
H1736 C1759 0.950 . S
H1737 C1761 0.950 . S
H1738 C1762 0.950 . S
H1739 C1763 0.951 . S
H1740 C1765 0.951 . S
H1741 C1767 0.950 . S
H1742 C1768 0.950 . S
H1743 C1770 0.950 . S
H1744 C1773 0.950 . S
H1745 C1774 0.950 . S
H1746 C1776 0.950 . S
H1747 C1777 0.950 1_554 S
C1748 H1730 0.951 . S
C1748 C1749 1.366 . S
C1748 C1750 1.388 . S
C1749 C1748 1.366 . S
C1749 C1753 1.385 . S
C1750 H1731 0.951 . S
C1750 C1748 1.388 . S
C1750 C1751 1.366 . S
C1751 C1750 1.366 . S
C1751 C1752 1.414 . S
C1751 C1754 1.499 . S
C1752 H1732 0.950 . S
C1752 C1751 1.414 . S
C1752 C1753 1.374 . S
C1753 H1733 0.950 . S
C1753 C1749 1.385 . S
C1753 C1752 1.374 . S
C1754 C1751 1.499 . S
C1754 C1755 1.373 . S
C1754 C1756 1.389 . S
C1755 H1734 0.950 . S
C1755 C1754 1.373 . S
C1755 C1771 1.377 . S
C1756 C1754 1.389 . S
C1756 C1757 1.524 . S
C1756 C1770 1.377 . S
C1757 C1756 1.524 . S
C1757 C1758 1.397 . S
C1757 C1762 1.363 . S
C1758 H1735 0.950 . S
C1758 C1757 1.397 . S
C1758 C1759 1.334 . S
C1759 H1736 0.950 . S
C1759 C1758 1.334 . S
C1759 C1760 1.287 . S
C1760 C1759 1.287 . S
C1760 C1761 1.524 . S
C1760 H1779 0.913 . S
C1761 H1737 0.950 . S
C1761 C1760 1.524 . S
C1761 C1762 1.415 . S
C1762 H1738 0.950 . S
C1762 C1757 1.363 . S
C1762 C1761 1.415 . S
C1763 H1739 0.951 . S
C1763 C1764 1.366 . S
C1763 C1765 1.388 . S
C1764 C1763 1.366 . S
C1764 C1768 1.385 . S
C1765 H1740 0.951 . S
C1765 C1763 1.388 . S
C1765 C1766 1.366 . S
C1766 C1765 1.366 . S
C1766 C1767 1.414 . S
C1766 C1769 1.499 . S
C1767 H1741 0.950 . S
C1767 C1766 1.414 . S
C1767 C1768 1.374 . S
C1768 H1742 0.950 . S
C1768 C1764 1.385 . S
C1768 C1767 1.374 . S
C1769 C1766 1.499 . S
C1769 C1770 1.373 . S
C1769 C1771 1.389 . S
C1770 H1743 0.950 . S
C1770 C1756 1.377 . S
C1770 C1769 1.373 . S
C1771 C1755 1.377 . S
C1771 C1769 1.389 . S
C1771 C1772 1.524 . S
C1772 C1771 1.524 . S
C1772 C1773 1.397 1_554 S
C1772 C1777 1.363 1_554 S
C1773 H1744 0.950 . S
C1773 C1772 1.397 1_556 S
C1773 C1774 1.334 . S
C1774 H1745 0.950 . S
C1774 C1773 1.334 . S
C1774 C1775 1.287 . S
C1775 C1774 1.287 . S
C1775 C1776 1.524 . S
C1775 H1778 0.999 . S
C1776 H1746 0.950 . S
C1776 C1775 1.524 . S
C1776 C1777 1.415 . S
C1777 H1747 0.950 1_556 S
C1777 C1772 1.363 1_556 S
C1777 C1776 1.415 . S
H1778 C1775 0.999 . S
H1779 C1760 0.913 . S
H1780 C1798 0.951 . S
H1781 C1800 0.951 . S
H1782 C1802 0.950 . S
H1783 C1803 0.950 . S
H1784 C1805 0.950 . S
H1785 C1808 0.950 . S
H1786 C1809 0.950 . S
H1787 C1811 0.950 . S
H1788 C1812 0.950 . S
H1789 C1813 0.951 . S
H1790 C1815 0.951 . S
H1791 C1817 0.950 . S
H1792 C1818 0.950 . S
H1793 C1820 0.950 . S
H1794 C1823 0.950 . S
H1795 C1824 0.950 . S
H1796 C1826 0.950 . S
H1797 C1827 0.950 . S
C1798 H1780 0.951 . S
C1798 C1799 1.366 . S
C1798 C1800 1.388 . S
C1799 C1798 1.366 . S
C1799 C1803 1.385 . S
C1800 H1781 0.951 . S
C1800 C1798 1.388 . S
C1800 C1801 1.366 . S
C1801 C1800 1.366 . S
C1801 C1802 1.414 . S
C1801 C1804 1.499 . S
C1802 H1782 0.950 . S
C1802 C1801 1.414 . S
C1802 C1803 1.374 . S
C1803 H1783 0.950 . S
C1803 C1799 1.385 . S
C1803 C1802 1.374 . S
C1804 C1801 1.499 . S
C1804 C1805 1.373 . S
C1804 C1806 1.389 . S
C1805 H1784 0.950 . S
C1805 C1804 1.373 . S
C1805 C1821 1.377 . S
C1806 C1804 1.389 . S
C1806 C1807 1.524 . S
C1806 C1820 1.377 . S
C1807 C1806 1.524 . S
C1807 C1808 1.397 . S
C1807 C1812 1.363 . S
C1808 H1785 0.950 . S
C1808 C1807 1.397 . S
C1808 C1809 1.334 . S
C1809 H1786 0.950 . S
C1809 C1808 1.334 . S
C1809 C1810 1.287 . S
C1810 C1809 1.287 . S
C1810 C1811 1.524 . S
C1810 H1829 0.913 . S
C1811 H1787 0.950 . S
C1811 C1810 1.524 . S
C1811 C1812 1.415 . S
C1812 H1788 0.950 . S
C1812 C1807 1.363 . S
C1812 C1811 1.415 . S
C1813 H1789 0.951 . S
C1813 C1814 1.366 . S
C1813 C1815 1.388 . S
C1814 C1813 1.366 . S
C1814 C1818 1.385 . S
C1815 H1790 0.951 . S
C1815 C1813 1.388 . S
C1815 C1816 1.366 . S
C1816 C1815 1.366 . S
C1816 C1817 1.414 . S
C1816 C1819 1.499 . S
C1817 H1791 0.950 . S
C1817 C1816 1.414 . S
C1817 C1818 1.374 . S
C1818 H1792 0.950 . S
C1818 C1814 1.385 . S
C1818 C1817 1.374 . S
C1819 C1816 1.499 . S
C1819 C1820 1.373 . S
C1819 C1821 1.389 . S
C1820 H1793 0.950 . S
C1820 C1806 1.377 . S
C1820 C1819 1.373 . S
C1821 C1805 1.377 . S
C1821 C1819 1.389 . S
C1821 C1822 1.524 . S
C1822 C1821 1.524 . S
C1822 C1823 1.397 . S
C1822 C1827 1.363 . S
C1823 H1794 0.950 . S
C1823 C1822 1.397 . S
C1823 C1824 1.334 . S
C1824 H1795 0.950 . S
C1824 C1823 1.334 . S
C1824 C1825 1.287 . S
C1825 C1824 1.287 . S
C1825 C1826 1.524 . S
C1825 H1828 0.999 . S
C1826 H1796 0.950 . S
C1826 C1825 1.524 . S
C1826 C1827 1.415 . S
C1827 H1797 0.950 . S
C1827 C1822 1.363 . S
C1827 C1826 1.415 . S
H1828 C1825 0.999 . S
H1829 C1810 0.913 . S
H1830 C1848 0.951 . S
H1831 C1850 0.951 . S
H1832 C1852 0.950 . S
H1833 C1853 0.950 . S
H1834 C1855 0.950 . S
H1835 C1858 0.950 . S
H1836 C1859 0.950 . S
H1837 C1861 0.950 . S
H1838 C1862 0.950 . S
H1839 C1863 0.951 . S
H1840 C1865 0.951 . S
H1841 C1867 0.950 . S
H1842 C1868 0.950 . S
H1843 C1870 0.950 . S
H1844 C1873 0.950 . S
H1845 C1874 0.950 . S
H1846 C1876 0.950 . S
H1847 C1877 0.950 . S
C1848 H1830 0.951 . S
C1848 C1849 1.366 . S
C1848 C1850 1.388 . S
C1849 C1848 1.366 . S
C1849 C1853 1.385 . S
C1850 H1831 0.951 . S
C1850 C1848 1.388 . S
C1850 C1851 1.366 . S
C1851 C1850 1.366 . S
C1851 C1852 1.414 . S
C1851 C1854 1.499 . S
C1852 H1832 0.950 . S
C1852 C1851 1.414 . S
C1852 C1853 1.374 . S
C1853 H1833 0.950 . S
C1853 C1849 1.385 . S
C1853 C1852 1.374 . S
C1854 C1851 1.499 . S
C1854 C1855 1.373 . S
C1854 C1856 1.389 . S
C1855 H1834 0.950 . S
C1855 C1854 1.373 . S
C1855 C1871 1.377 . S
C1856 C1854 1.389 . S
C1856 C1857 1.524 . S
C1856 C1870 1.377 . S
C1857 C1856 1.524 . S
C1857 C1858 1.397 . S
C1857 C1862 1.363 . S
C1858 H1835 0.950 . S
C1858 C1857 1.397 . S
C1858 C1859 1.334 . S
C1859 H1836 0.950 . S
C1859 C1858 1.334 . S
C1859 C1860 1.287 . S
C1860 C1859 1.287 . S
C1860 C1861 1.524 . S
C1860 H1879 0.913 . S
C1861 H1837 0.950 . S
C1861 C1860 1.524 . S
C1861 C1862 1.415 . S
C1862 H1838 0.950 . S
C1862 C1857 1.363 . S
C1862 C1861 1.415 . S
C1863 H1839 0.951 . S
C1863 C1864 1.366 . S
C1863 C1865 1.388 . S
C1864 C1863 1.366 . S
C1864 C1868 1.385 . S
C1865 H1840 0.951 . S
C1865 C1863 1.388 . S
C1865 C1866 1.366 . S
C1866 C1865 1.366 . S
C1866 C1867 1.414 . S
C1866 C1869 1.499 . S
C1867 H1841 0.950 . S
C1867 C1866 1.414 . S
C1867 C1868 1.374 . S
C1868 H1842 0.950 . S
C1868 C1864 1.385 . S
C1868 C1867 1.374 . S
C1869 C1866 1.499 . S
C1869 C1870 1.373 . S
C1869 C1871 1.389 . S
C1870 H1843 0.950 . S
C1870 C1856 1.377 . S
C1870 C1869 1.373 . S
C1871 C1855 1.377 . S
C1871 C1869 1.389 . S
C1871 C1872 1.524 . S
C1872 C1871 1.524 . S
C1872 C1873 1.397 . S
C1872 C1877 1.363 . S
C1873 H1844 0.950 . S
C1873 C1872 1.397 . S
C1873 C1874 1.334 . S
C1874 H1845 0.950 . S
C1874 C1873 1.334 . S
C1874 C1875 1.287 . S
C1875 C1874 1.287 . S
C1875 C1876 1.524 . S
C1875 H1878 0.999 . S
C1876 H1846 0.950 . S
C1876 C1875 1.524 . S
C1876 C1877 1.415 . S
C1877 H1847 0.950 . S
C1877 C1872 1.363 . S
C1877 C1876 1.415 . S
H1878 C1875 0.999 . S
H1879 C1860 0.913 . S
H1880 C1898 0.951 . S
H1881 C1900 0.951 . S
H1882 C1902 0.950 . S
H1883 C1903 0.950 . S
H1884 C1905 0.950 . S
H1885 C1908 0.950 . S
H1886 C1909 0.950 . S
H1887 C1911 0.950 . S
H1888 C1912 0.950 . S
H1889 C1913 0.951 . S
H1890 C1915 0.951 . S
H1891 C1917 0.950 . S
H1892 C1918 0.950 . S
H1893 C1920 0.950 . S
H1894 C1923 0.950 . S
H1895 C1924 0.950 . S
H1896 C1926 0.950 . S
H1897 C1927 0.950 . S
C1898 H1880 0.951 . S
C1898 C1899 1.366 . S
C1898 C1900 1.388 . S
C1899 C1898 1.366 . S
C1899 C1903 1.385 . S
C1900 H1881 0.951 . S
C1900 C1898 1.388 . S
C1900 C1901 1.366 . S
C1901 C1900 1.366 . S
C1901 C1902 1.414 . S
C1901 C1904 1.499 . S
C1902 H1882 0.950 . S
C1902 C1901 1.414 . S
C1902 C1903 1.374 . S
C1903 H1883 0.950 . S
C1903 C1899 1.385 . S
C1903 C1902 1.374 . S
C1904 C1901 1.499 . S
C1904 C1905 1.373 . S
C1904 C1906 1.389 . S
C1905 H1884 0.950 . S
C1905 C1904 1.373 . S
C1905 C1921 1.377 . S
C1906 C1904 1.389 . S
C1906 C1907 1.524 . S
C1906 C1920 1.377 . S
C1907 C1906 1.524 . S
C1907 C1908 1.397 . S
C1907 C1912 1.363 . S
C1908 H1885 0.950 . S
C1908 C1907 1.397 . S
C1908 C1909 1.334 . S
C1909 H1886 0.950 . S
C1909 C1908 1.334 . S
C1909 C1910 1.287 . S
C1910 C1909 1.287 . S
C1910 C1911 1.524 . S
C1910 H1929 0.913 . S
C1911 H1887 0.950 . S
C1911 C1910 1.524 . S
C1911 C1912 1.415 . S
C1912 H1888 0.950 . S
C1912 C1907 1.363 . S
C1912 C1911 1.415 . S
C1913 H1889 0.951 . S
C1913 C1914 1.366 . S
C1913 C1915 1.388 . S
C1914 C1913 1.366 . S
C1914 C1918 1.385 . S
C1915 H1890 0.951 . S
C1915 C1913 1.388 . S
C1915 C1916 1.366 . S
C1916 C1915 1.366 . S
C1916 C1917 1.414 . S
C1916 C1919 1.499 . S
C1917 H1891 0.950 . S
C1917 C1916 1.414 . S
C1917 C1918 1.374 . S
C1918 H1892 0.950 . S
C1918 C1914 1.385 . S
C1918 C1917 1.374 . S
C1919 C1916 1.499 . S
C1919 C1920 1.373 . S
C1919 C1921 1.389 . S
C1920 H1893 0.950 . S
C1920 C1906 1.377 . S
C1920 C1919 1.373 . S
C1921 C1905 1.377 . S
C1921 C1919 1.389 . S
C1921 C1922 1.524 . S
C1922 C1921 1.524 . S
C1922 C1923 1.397 . S
C1922 C1927 1.363 . S
C1923 H1894 0.950 . S
C1923 C1922 1.397 . S
C1923 C1924 1.334 . S
C1924 H1895 0.950 . S
C1924 C1923 1.334 . S
C1924 C1925 1.287 . S
C1925 C1924 1.287 . S
C1925 C1926 1.524 . S
C1925 H1928 0.999 . S
C1926 H1896 0.950 . S
C1926 C1925 1.524 . S
C1926 C1927 1.415 . S
C1927 H1897 0.950 . S
C1927 C1922 1.363 . S
C1927 C1926 1.415 . S
H1928 C1925 0.999 . S
H1929 C1910 0.913 . S
H1930 C1948 0.951 . S
H1931 C1950 0.951 . S
H1932 C1952 0.950 . S
H1933 C1953 0.950 . S
H1934 C1955 0.950 . S
H1935 C1958 0.950 . S
H1936 C1959 0.950 . S
H1937 C1961 0.950 . S
H1938 C1962 0.950 . S
H1939 C1963 0.951 . S
H1940 C1965 0.951 . S
H1941 C1967 0.950 . S
H1942 C1968 0.950 1_545 S
H1943 C1970 0.950 . S
H1944 C1973 0.950 . S
H1945 C1974 0.950 1_545 S
H1946 C1976 0.950 . S
H1947 C1977 0.950 . S
C1948 H1930 0.951 . S
C1948 C1949 1.366 . S
C1948 C1950 1.388 . S
C1949 C1948 1.366 . S
C1949 C1953 1.385 . S
C1950 H1931 0.951 . S
C1950 C1948 1.388 . S
C1950 C1951 1.366 . S
C1951 C1950 1.366 . S
C1951 C1952 1.414 . S
C1951 C1954 1.499 . S
C1952 H1932 0.950 . S
C1952 C1951 1.414 . S
C1952 C1953 1.374 . S
C1953 H1933 0.950 . S
C1953 C1949 1.385 . S
C1953 C1952 1.374 . S
C1954 C1951 1.499 . S
C1954 C1955 1.373 . S
C1954 C1956 1.389 . S
C1955 H1934 0.950 . S
C1955 C1954 1.373 . S
C1955 C1971 1.377 . S
C1956 C1954 1.389 . S
C1956 C1957 1.524 . S
C1956 C1970 1.377 . S
C1957 C1956 1.524 . S
C1957 C1958 1.397 . S
C1957 C1962 1.363 . S
C1958 H1935 0.950 . S
C1958 C1957 1.397 . S
C1958 C1959 1.334 . S
C1959 H1936 0.950 . S
C1959 C1958 1.334 . S
C1959 C1960 1.287 . S
C1960 C1959 1.287 . S
C1960 C1961 1.524 . S
C1960 H1979 0.913 . S
C1961 H1937 0.950 . S
C1961 C1960 1.524 . S
C1961 C1962 1.415 . S
C1962 H1938 0.950 . S
C1962 C1957 1.363 . S
C1962 C1961 1.415 . S
C1963 H1939 0.951 . S
C1963 C1964 1.366 . S
C1963 C1965 1.388 . S
C1964 C1963 1.366 . S
C1964 C1968 1.385 . S
C1965 H1940 0.951 . S
C1965 C1963 1.388 . S
C1965 C1966 1.366 . S
C1966 C1965 1.366 . S
C1966 C1967 1.414 . S
C1966 C1969 1.499 . S
C1967 H1941 0.950 . S
C1967 C1966 1.414 . S
C1967 C1968 1.374 . S
C1968 H1942 0.950 1_565 S
C1968 C1964 1.385 . S
C1968 C1967 1.374 . S
C1969 C1966 1.499 . S
C1969 C1970 1.373 . S
C1969 C1971 1.389 . S
C1970 H1943 0.950 . S
C1970 C1956 1.377 . S
C1970 C1969 1.373 . S
C1971 C1955 1.377 . S
C1971 C1969 1.389 . S
C1971 C1972 1.524 . S
C1972 C1971 1.524 . S
C1972 C1973 1.397 . S
C1972 C1977 1.363 . S
C1973 H1944 0.950 . S
C1973 C1972 1.397 . S
C1973 C1974 1.334 . S
C1974 H1945 0.950 1_565 S
C1974 C1973 1.334 . S
C1974 C1975 1.287 . S
C1975 C1974 1.287 . S
C1975 C1976 1.524 . S
C1975 H1978 0.999 . S
C1976 H1946 0.950 . S
C1976 C1975 1.524 . S
C1976 C1977 1.415 . S
C1977 H1947 0.950 . S
C1977 C1972 1.363 . S
C1977 C1976 1.415 . S
H1978 C1975 0.999 . S
H1979 C1960 0.913 . S
H1980 C1998 0.951 . S
H1981 C2000 0.951 . S
H1982 C2002 0.950 . S
H1983 C2003 0.950 . S
H1984 C2005 0.950 . S
H1985 C2008 0.950 . S
H1986 C2009 0.950 . S
H1987 C2011 0.950 . S
H1988 C2012 0.950 . S
H1989 C2013 0.951 . S
H1990 C2015 0.951 . S
H1991 C2017 0.950 . S
H1992 C2018 0.950 . S
H1993 C2020 0.950 . S
H1994 C2023 0.950 . S
H1995 C2024 0.950 . S
H1996 C2026 0.950 . S
H1997 C2027 0.950 . S
C1998 H1980 0.951 . S
C1998 C1999 1.366 . S
C1998 C2000 1.388 . S
C1999 C1998 1.366 . S
C1999 C2003 1.385 . S
C2000 H1981 0.951 . S
C2000 C1998 1.388 . S
C2000 C2001 1.366 . S
C2001 C2000 1.366 . S
C2001 C2002 1.414 . S
C2001 C2004 1.499 . S
C2002 H1982 0.950 . S
C2002 C2001 1.414 . S
C2002 C2003 1.374 . S
C2003 H1983 0.950 . S
C2003 C1999 1.385 . S
C2003 C2002 1.374 . S
C2004 C2001 1.499 . S
C2004 C2005 1.373 . S
C2004 C2006 1.389 . S
C2005 H1984 0.950 . S
C2005 C2004 1.373 . S
C2005 C2021 1.377 . S
C2006 C2004 1.389 . S
C2006 C2007 1.524 . S
C2006 C2020 1.377 . S
C2007 C2006 1.524 . S
C2007 C2008 1.397 . S
C2007 C2012 1.363 . S
C2008 H1985 0.950 . S
C2008 C2007 1.397 . S
C2008 C2009 1.334 . S
C2009 H1986 0.950 . S
C2009 C2008 1.334 . S
C2009 C2010 1.287 . S
C2010 C2009 1.287 . S
C2010 C2011 1.524 . S
C2010 H2029 0.913 . S
C2011 H1987 0.950 . S
C2011 C2010 1.524 . S
C2011 C2012 1.415 . S
C2012 H1988 0.950 . S
C2012 C2007 1.363 . S
C2012 C2011 1.415 . S
C2013 H1989 0.951 . S
C2013 C2014 1.366 . S
C2013 C2015 1.388 . S
C2014 C2013 1.366 . S
C2014 C2018 1.385 . S
C2015 H1990 0.951 . S
C2015 C2013 1.388 . S
C2015 C2016 1.366 . S
C2016 C2015 1.366 . S
C2016 C2017 1.414 . S
C2016 C2019 1.499 . S
C2017 H1991 0.950 . S
C2017 C2016 1.414 . S
C2017 C2018 1.374 . S
C2018 H1992 0.950 . S
C2018 C2014 1.385 . S
C2018 C2017 1.374 . S
C2019 C2016 1.499 . S
C2019 C2020 1.373 . S
C2019 C2021 1.389 . S
C2020 H1993 0.950 . S
C2020 C2006 1.377 . S
C2020 C2019 1.373 . S
C2021 C2005 1.377 . S
C2021 C2019 1.389 . S
C2021 C2022 1.524 . S
C2022 C2021 1.524 . S
C2022 C2023 1.397 . S
C2022 C2027 1.363 . S
C2023 H1994 0.950 . S
C2023 C2022 1.397 . S
C2023 C2024 1.334 . S
C2024 H1995 0.950 . S
C2024 C2023 1.334 . S
C2024 C2025 1.287 . S
C2025 C2024 1.287 . S
C2025 C2026 1.524 . S
C2025 H2028 0.999 . S
C2026 H1996 0.950 . S
C2026 C2025 1.524 . S
C2026 C2027 1.415 . S
C2027 H1997 0.950 . S
C2027 C2022 1.363 . S
C2027 C2026 1.415 . S
H2028 C2025 0.999 . S
H2029 C2010 0.913 . S
H2030 C2048 0.951 . S
H2031 C2050 0.951 . S
H2032 C2052 0.950 . S
H2033 C2053 0.950 . S
H2034 C2055 0.950 . S
H2035 C2058 0.950 . S
H2036 C2059 0.950 . S
H2037 C2061 0.950 . S
H2038 C2062 0.950 . S
H2039 C2063 0.951 . S
H2040 C2065 0.951 . S
H2041 C2067 0.950 . S
H2042 C2068 0.950 . S
H2043 C2070 0.950 . S
H2044 C2073 0.950 . S
H2045 C2074 0.950 . S
H2046 C2076 0.950 . S
H2047 C2077 0.950 . S
C2048 H2030 0.951 . S
C2048 C2049 1.366 . S
C2048 C2050 1.388 . S
C2049 C2048 1.366 . S
C2049 C2053 1.385 . S
C2050 H2031 0.951 . S
C2050 C2048 1.388 . S
C2050 C2051 1.366 . S
C2051 C2050 1.366 . S
C2051 C2052 1.414 . S
C2051 C2054 1.499 . S
C2052 H2032 0.950 . S
C2052 C2051 1.414 . S
C2052 C2053 1.374 . S
C2053 H2033 0.950 . S
C2053 C2049 1.385 . S
C2053 C2052 1.374 . S
C2054 C2051 1.499 . S
C2054 C2055 1.373 . S
C2054 C2056 1.389 . S
C2055 H2034 0.950 . S
C2055 C2054 1.373 . S
C2055 C2071 1.377 . S
C2056 C2054 1.389 . S
C2056 C2057 1.524 . S
C2056 C2070 1.377 . S
C2057 C2056 1.524 . S
C2057 C2058 1.397 . S
C2057 C2062 1.363 . S
C2058 H2035 0.950 . S
C2058 C2057 1.397 . S
C2058 C2059 1.334 . S
C2059 H2036 0.950 . S
C2059 C2058 1.334 . S
C2059 C2060 1.287 . S
C2060 C2059 1.287 . S
C2060 C2061 1.524 . S
C2060 H2079 0.913 . S
C2061 H2037 0.950 . S
C2061 C2060 1.524 . S
C2061 C2062 1.415 . S
C2062 H2038 0.950 . S
C2062 C2057 1.363 . S
C2062 C2061 1.415 . S
C2063 H2039 0.951 . S
C2063 C2064 1.366 . S
C2063 C2065 1.388 . S
C2064 C2063 1.366 . S
C2064 C2068 1.385 . S
C2065 H2040 0.951 . S
C2065 C2063 1.388 . S
C2065 C2066 1.366 . S
C2066 C2065 1.366 . S
C2066 C2067 1.414 . S
C2066 C2069 1.499 . S
C2067 H2041 0.950 . S
C2067 C2066 1.414 . S
C2067 C2068 1.374 . S
C2068 H2042 0.950 . S
C2068 C2064 1.385 . S
C2068 C2067 1.374 . S
C2069 C2066 1.499 . S
C2069 C2070 1.373 . S
C2069 C2071 1.389 . S
C2070 H2043 0.950 . S
C2070 C2056 1.377 . S
C2070 C2069 1.373 . S
C2071 C2055 1.377 . S
C2071 C2069 1.389 . S
C2071 C2072 1.524 . S
C2072 C2071 1.524 . S
C2072 C2073 1.397 . S
C2072 C2077 1.363 . S
C2073 H2044 0.950 . S
C2073 C2072 1.397 . S
C2073 C2074 1.334 . S
C2074 H2045 0.950 . S
C2074 C2073 1.334 . S
C2074 C2075 1.287 . S
C2075 C2074 1.287 . S
C2075 C2076 1.524 . S
C2075 H2078 0.999 . S
C2076 H2046 0.950 . S
C2076 C2075 1.524 . S
C2076 C2077 1.415 . S
C2077 H2047 0.950 . S
C2077 C2072 1.363 . S
C2077 C2076 1.415 . S
H2078 C2075 0.999 . S
H2079 C2060 0.913 . S
H2080 C2098 0.951 . S
H2081 C2100 0.951 . S
H2082 C2102 0.950 . S
H2083 C2103 0.950 . S
H2084 C2105 0.950 . S
H2085 C2108 0.950 1_655 S
H2086 C2109 0.950 1_655 S
H2087 C2111 0.950 . S
H2088 C2112 0.950 . S
H2089 C2113 0.951 . S
H2090 C2115 0.956 . S
H2091 C2117 0.950 . S
H2092 C2118 0.944 1_554 S
H2093 C2120 0.950 . S
H2094 C2123 0.950 . S
H2095 C2124 0.950 . S
H2096 C2126 0.950 . S
H2097 C2127 0.950 . S
C2098 H2080 0.951 . S
C2098 C2099 1.366 . S
C2098 C2100 1.388 . S
C2099 C2098 1.366 . S
C2099 C2103 1.385 1_455 S
C2100 H2081 0.951 . S
C2100 C2098 1.388 . S
C2100 C2101 1.366 . S
C2101 C2100 1.366 . S
C2101 C2102 1.414 1_455 S
C2101 C2104 1.499 . S
C2102 H2082 0.950 . S
C2102 C2101 1.414 1_655 S
C2102 C2103 1.374 . S
C2103 H2083 0.950 . S
C2103 C2099 1.385 1_655 S
C2103 C2102 1.374 . S
C2104 C2101 1.499 . S
C2104 C2105 1.373 . S
C2104 C2106 1.389 . S
C2105 H2084 0.950 . S
C2105 C2104 1.373 . S
C2105 C2121 1.377 . S
C2106 C2104 1.389 . S
C2106 C2107 1.524 . S
C2106 C2120 1.377 . S
C2107 C2106 1.524 . S
C2107 C2108 1.397 . S
C2107 C2112 1.363 . S
C2108 H2085 0.950 1_455 S
C2108 C2107 1.397 . S
C2108 C2109 1.334 . S
C2109 H2086 0.950 1_455 S
C2109 C2108 1.334 . S
C2109 C2110 1.287 . S
C2110 C2109 1.287 . S
C2110 C2111 1.524 . S
C2110 H2129 0.913 . S
C2111 H2087 0.950 . S
C2111 C2110 1.524 . S
C2111 C2112 1.415 . S
C2112 H2088 0.950 . S
C2112 C2107 1.363 . S
C2112 C2111 1.415 . S
C2113 H2089 0.951 . S
C2113 C2114 1.366 1_556 S
C2113 C2115 1.388 . S
C2114 C2113 1.366 1_554 S
C2114 C2118 1.384 1_554 S
C2115 H2090 0.956 . S
C2115 C2113 1.388 . S
C2115 C2116 1.366 . S
C2116 C2115 1.366 . S
C2116 C2117 1.414 . S
C2116 C2119 1.499 . S
C2117 H2091 0.950 . S
C2117 C2116 1.414 . S
C2117 C2118 1.380 . S
C2118 H2092 0.944 1_556 S
C2118 C2114 1.384 1_556 S
C2118 C2117 1.380 . S
C2119 C2116 1.499 . S
C2119 C2120 1.373 . S
C2119 C2121 1.389 . S
C2120 H2093 0.950 . S
C2120 C2106 1.377 . S
C2120 C2119 1.373 . S
C2121 C2105 1.377 . S
C2121 C2119 1.389 . S
C2121 C2122 1.524 . S
C2122 C2121 1.524 . S
C2122 C2123 1.397 . S
C2122 C2127 1.363 1_455 S
C2123 H2094 0.950 . S
C2123 C2122 1.397 . S
C2123 C2124 1.334 . S
C2124 H2095 0.950 . S
C2124 C2123 1.334 . S
C2124 C2125 1.287 . S
C2125 C2124 1.287 . S
C2125 C2126 1.524 1_455 S
C2125 H2128 0.999 . S
C2126 H2096 0.950 . S
C2126 C2125 1.524 1_655 S
C2126 C2127 1.415 . S
C2127 H2097 0.950 . S
C2127 C2122 1.363 1_655 S
C2127 C2126 1.415 . S
H2128 C2125 0.999 . S
H2129 C2110 0.913 . S
H2130 C2148 0.951 . S
H2131 C2150 0.951 . S
H2132 C2152 0.950 . S
H2133 C2153 0.950 . S
H2134 C2155 0.950 . S
H2135 C2158 0.950 . S
H2136 C2159 0.950 . S
H2137 C2161 0.950 . S
H2138 C2162 0.950 . S
H2139 C2163 0.951 . S
H2140 C2165 0.951 . S
H2141 C2167 0.950 . S
H2142 C2168 0.950 . S
H2143 C2170 0.950 . S
H2144 C2173 0.950 . S
H2145 C2174 0.950 . S
H2146 C2176 0.950 . S
H2147 C2177 0.950 . S
C2148 H2130 0.951 . S
C2148 C2149 1.366 . S
C2148 C2150 1.388 . S
C2149 C2148 1.366 . S
C2149 C2153 1.385 . S
C2150 H2131 0.951 . S
C2150 C2148 1.388 . S
C2150 C2151 1.366 . S
C2151 C2150 1.366 . S
C2151 C2152 1.414 . S
C2151 C2154 1.499 . S
C2152 H2132 0.950 . S
C2152 C2151 1.414 . S
C2152 C2153 1.374 . S
C2153 H2133 0.950 . S
C2153 C2149 1.385 . S
C2153 C2152 1.374 . S
C2154 C2151 1.499 . S
C2154 C2155 1.373 . S
C2154 C2156 1.389 . S
C2155 H2134 0.950 . S
C2155 C2154 1.373 . S
C2155 C2171 1.377 . S
C2156 C2154 1.389 . S
C2156 C2157 1.524 . S
C2156 C2170 1.377 . S
C2157 C2156 1.524 . S
C2157 C2158 1.397 . S
C2157 C2162 1.363 . S
C2158 H2135 0.950 . S
C2158 C2157 1.397 . S
C2158 C2159 1.334 . S
C2159 H2136 0.950 . S
C2159 C2158 1.334 . S
C2159 C2160 1.287 . S
C2160 C2159 1.287 . S
C2160 C2161 1.524 . S
C2160 H2179 0.913 . S
C2161 H2137 0.950 . S
C2161 C2160 1.524 . S
C2161 C2162 1.415 . S
C2162 H2138 0.950 . S
C2162 C2157 1.363 . S
C2162 C2161 1.415 . S
C2163 H2139 0.951 . S
C2163 C2164 1.366 . S
C2163 C2165 1.388 . S
C2164 C2163 1.366 . S
C2164 C2168 1.385 . S
C2165 H2140 0.951 . S
C2165 C2163 1.388 . S
C2165 C2166 1.366 . S
C2166 C2165 1.366 . S
C2166 C2167 1.414 . S
C2166 C2169 1.499 . S
C2167 H2141 0.950 . S
C2167 C2166 1.414 . S
C2167 C2168 1.374 . S
C2168 H2142 0.950 . S
C2168 C2164 1.385 . S
C2168 C2167 1.374 . S
C2169 C2166 1.499 . S
C2169 C2170 1.373 . S
C2169 C2171 1.389 . S
C2170 H2143 0.950 . S
C2170 C2156 1.377 . S
C2170 C2169 1.373 . S
C2171 C2155 1.377 . S
C2171 C2169 1.389 . S
C2171 C2172 1.524 . S
C2172 C2171 1.524 . S
C2172 C2173 1.397 . S
C2172 C2177 1.363 . S
C2173 H2144 0.950 . S
C2173 C2172 1.397 . S
C2173 C2174 1.334 . S
C2174 H2145 0.950 . S
C2174 C2173 1.334 . S
C2174 C2175 1.287 . S
C2175 C2174 1.287 . S
C2175 C2176 1.524 . S
C2175 H2178 0.999 . S
C2176 H2146 0.950 . S
C2176 C2175 1.524 . S
C2176 C2177 1.415 . S
C2177 H2147 0.950 . S
C2177 C2172 1.363 . S
C2177 C2176 1.415 . S
H2178 C2175 0.999 . S
H2179 C2160 0.913 . S
H2180 C2198 0.951 . S
H2181 C2200 0.951 . S
H2182 C2202 0.950 . S
H2183 C2203 0.950 . S
H2184 C2205 0.950 . S
H2185 C2208 0.950 . S
H2186 C2209 0.950 . S
H2187 C2211 0.950 . S
H2188 C2212 0.950 . S
H2189 C2213 0.951 . S
H2190 C2215 0.951 . S
H2191 C2217 0.950 . S
H2192 C2218 0.950 . S
H2193 C2220 0.950 . S
H2194 C2223 0.950 . S
H2195 C2224 0.950 . S
H2196 C2226 0.950 . S
H2197 C2227 0.950 . S
C2198 H2180 0.951 . S
C2198 C2199 1.366 . S
C2198 C2200 1.388 . S
C2199 C2198 1.366 . S
C2199 C2203 1.385 . S
C2200 H2181 0.951 . S
C2200 C2198 1.388 . S
C2200 C2201 1.366 . S
C2201 C2200 1.366 . S
C2201 C2202 1.414 . S
C2201 C2204 1.499 . S
C2202 H2182 0.950 . S
C2202 C2201 1.414 . S
C2202 C2203 1.374 . S
C2203 H2183 0.950 . S
C2203 C2199 1.385 . S
C2203 C2202 1.374 . S
C2204 C2201 1.499 . S
C2204 C2205 1.373 . S
C2204 C2206 1.389 . S
C2205 H2184 0.950 . S
C2205 C2204 1.373 . S
C2205 C2221 1.377 . S
C2206 C2204 1.389 . S
C2206 C2207 1.524 . S
C2206 C2220 1.377 . S
C2207 C2206 1.524 . S
C2207 C2208 1.397 . S
C2207 C2212 1.363 . S
C2208 H2185 0.950 . S
C2208 C2207 1.397 . S
C2208 C2209 1.334 . S
C2209 H2186 0.950 . S
C2209 C2208 1.334 . S
C2209 C2210 1.287 . S
C2210 C2209 1.287 . S
C2210 C2211 1.524 . S
C2210 H2229 0.913 . S
C2211 H2187 0.950 . S
C2211 C2210 1.524 . S
C2211 C2212 1.415 . S
C2212 H2188 0.950 . S
C2212 C2207 1.363 . S
C2212 C2211 1.415 . S
C2213 H2189 0.951 . S
C2213 C2214 1.366 . S
C2213 C2215 1.388 . S
C2214 C2213 1.366 . S
C2214 C2218 1.385 . S
C2215 H2190 0.951 . S
C2215 C2213 1.388 . S
C2215 C2216 1.366 . S
C2216 C2215 1.366 . S
C2216 C2217 1.414 . S
C2216 C2219 1.499 . S
C2217 H2191 0.950 . S
C2217 C2216 1.414 . S
C2217 C2218 1.374 . S
C2218 H2192 0.950 . S
C2218 C2214 1.385 . S
C2218 C2217 1.374 . S
C2219 C2216 1.499 . S
C2219 C2220 1.373 . S
C2219 C2221 1.389 . S
C2220 H2193 0.950 . S
C2220 C2206 1.377 . S
C2220 C2219 1.373 . S
C2221 C2205 1.377 . S
C2221 C2219 1.389 . S
C2221 C2222 1.524 . S
C2222 C2221 1.524 . S
C2222 C2223 1.397 . S
C2222 C2227 1.363 . S
C2223 H2194 0.950 . S
C2223 C2222 1.397 . S
C2223 C2224 1.334 . S
C2224 H2195 0.950 . S
C2224 C2223 1.334 . S
C2224 C2225 1.287 . S
C2225 C2224 1.287 . S
C2225 C2226 1.524 . S
C2225 H2228 0.999 . S
C2226 H2196 0.950 . S
C2226 C2225 1.524 . S
C2226 C2227 1.415 . S
C2227 H2197 0.950 . S
C2227 C2222 1.363 . S
C2227 C2226 1.415 . S
H2228 C2225 0.999 . S
H2229 C2210 0.913 . S
H2230 C2248 0.951 . S
H2231 C2250 0.951 . S
H2232 C2252 0.950 . S
H2233 C2253 0.950 . S
H2234 C2255 0.950 . S
H2235 C2258 0.950 . S
H2236 C2259 0.950 . S
H2237 C2261 0.950 . S
H2238 C2262 0.950 . S
H2239 C2263 0.951 . S
H2240 C2265 0.951 . S
H2241 C2267 0.950 . S
H2242 C2268 0.950 . S
H2243 C2270 0.950 . S
H2244 C2273 0.950 . S
H2245 C2274 0.950 . S
H2246 C2276 0.950 . S
H2247 C2277 0.950 . S
C2248 H2230 0.951 . S
C2248 C2249 1.366 . S
C2248 C2250 1.388 . S
C2249 C2248 1.366 . S
C2249 C2253 1.385 . S
C2250 H2231 0.951 . S
C2250 C2248 1.388 . S
C2250 C2251 1.366 . S
C2251 C2250 1.366 . S
C2251 C2252 1.414 . S
C2251 C2254 1.499 . S
C2252 H2232 0.950 . S
C2252 C2251 1.414 . S
C2252 C2253 1.374 . S
C2253 H2233 0.950 . S
C2253 C2249 1.385 . S
C2253 C2252 1.374 . S
C2254 C2251 1.499 . S
C2254 C2255 1.373 . S
C2254 C2256 1.389 . S
C2255 H2234 0.950 . S
C2255 C2254 1.373 . S
C2255 C2271 1.377 . S
C2256 C2254 1.389 . S
C2256 C2257 1.524 . S
C2256 C2270 1.377 . S
C2257 C2256 1.524 . S
C2257 C2258 1.397 . S
C2257 C2262 1.363 . S
C2258 H2235 0.950 . S
C2258 C2257 1.397 . S
C2258 C2259 1.334 . S
C2259 H2236 0.950 . S
C2259 C2258 1.334 . S
C2259 C2260 1.287 . S
C2260 C2259 1.287 . S
C2260 C2261 1.524 . S
C2260 H2279 0.913 . S
C2261 H2237 0.950 . S
C2261 C2260 1.524 . S
C2261 C2262 1.415 . S
C2262 H2238 0.950 . S
C2262 C2257 1.363 . S
C2262 C2261 1.415 . S
C2263 H2239 0.951 . S
C2263 C2264 1.366 . S
C2263 C2265 1.388 . S
C2264 C2263 1.366 . S
C2264 C2268 1.385 . S
C2265 H2240 0.951 . S
C2265 C2263 1.388 . S
C2265 C2266 1.366 . S
C2266 C2265 1.366 . S
C2266 C2267 1.414 . S
C2266 C2269 1.499 . S
C2267 H2241 0.950 . S
C2267 C2266 1.414 . S
C2267 C2268 1.374 . S
C2268 H2242 0.950 . S
C2268 C2264 1.385 . S
C2268 C2267 1.374 . S
C2269 C2266 1.499 . S
C2269 C2270 1.373 . S
C2269 C2271 1.389 . S
C2270 H2243 0.950 . S
C2270 C2256 1.377 . S
C2270 C2269 1.373 . S
C2271 C2255 1.377 . S
C2271 C2269 1.389 . S
C2271 C2272 1.524 . S
C2272 C2271 1.524 . S
C2272 C2273 1.397 . S
C2272 C2277 1.363 . S
C2273 H2244 0.950 . S
C2273 C2272 1.397 . S
C2273 C2274 1.334 . S
C2274 H2245 0.950 . S
C2274 C2273 1.334 . S
C2274 C2275 1.287 . S
C2275 C2274 1.287 . S
C2275 C2276 1.524 . S
C2275 H2278 0.999 . S
C2276 H2246 0.950 . S
C2276 C2275 1.524 . S
C2276 C2277 1.415 . S
C2277 H2247 0.950 . S
C2277 C2272 1.363 . S
C2277 C2276 1.415 . S
H2278 C2275 0.999 . S
H2279 C2260 0.913 . S
H2280 C2298 0.951 1_655 S
H2281 C2300 0.951 1_655 S
H2282 C2302 0.950 . S
H2283 C2303 0.950 . S
H2284 C2305 0.950 . S
H2285 C2308 0.950 . S
H2286 C2309 0.950 . S
H2287 C2311 0.950 . S
H2288 C2312 0.950 . S
H2289 C2313 0.951 . S
H2290 C2315 0.951 . S
H2291 C2317 0.950 . S
H2292 C2318 0.950 . S
H2293 C2320 0.950 . S
H2294 C2323 0.950 . S
H2295 C2324 0.950 . S
H2296 C2326 0.950 . S
H2297 C2327 0.950 . S
C2298 H2280 0.951 1_455 S
C2298 C2299 1.366 . S
C2298 C2300 1.388 . S
C2299 C2298 1.366 . S
C2299 C2303 1.385 . S
C2300 H2281 0.951 1_455 S
C2300 C2298 1.388 . S
C2300 C2301 1.366 . S
C2301 C2300 1.366 . S
C2301 C2302 1.414 . S
C2301 C2304 1.499 . S
C2302 H2282 0.950 . S
C2302 C2301 1.414 . S
C2302 C2303 1.374 . S
C2303 H2283 0.950 . S
C2303 C2299 1.385 . S
C2303 C2302 1.374 . S
C2304 C2301 1.499 . S
C2304 C2305 1.373 . S
C2304 C2306 1.389 . S
C2305 H2284 0.950 . S
C2305 C2304 1.373 . S
C2305 C2321 1.377 . S
C2306 C2304 1.389 . S
C2306 C2307 1.524 1_455 S
C2306 C2320 1.377 . S
C2307 C2306 1.524 1_655 S
C2307 C2308 1.397 1_655 S
C2307 C2312 1.363 . S
C2308 H2285 0.950 . S
C2308 C2307 1.397 1_455 S
C2308 C2309 1.334 1_455 S
C2309 H2286 0.950 . S
C2309 C2308 1.334 1_655 S
C2309 C2310 1.287 . S
C2310 C2309 1.287 . S
C2310 C2311 1.524 . S
C2310 H2329 0.913 . S
C2311 H2287 0.950 . S
C2311 C2310 1.524 . S
C2311 C2312 1.415 . S
C2312 H2288 0.950 . S
C2312 C2307 1.363 . S
C2312 C2311 1.415 . S
C2313 H2289 0.951 . S
C2313 C2314 1.366 . S
C2313 C2315 1.388 . S
C2314 C2313 1.366 . S
C2314 C2318 1.385 . S
C2315 H2290 0.951 . S
C2315 C2313 1.388 . S
C2315 C2316 1.366 . S
C2316 C2315 1.366 . S
C2316 C2317 1.414 . S
C2316 C2319 1.499 . S
C2317 H2291 0.950 . S
C2317 C2316 1.414 . S
C2317 C2318 1.374 . S
C2318 H2292 0.950 . S
C2318 C2314 1.385 . S
C2318 C2317 1.374 . S
C2319 C2316 1.499 . S
C2319 C2320 1.373 . S
C2319 C2321 1.389 . S
C2320 H2293 0.950 . S
C2320 C2306 1.377 . S
C2320 C2319 1.373 . S
C2321 C2305 1.377 . S
C2321 C2319 1.389 . S
C2321 C2322 1.524 . S
C2322 C2321 1.524 . S
C2322 C2323 1.397 . S
C2322 C2327 1.363 . S
C2323 H2294 0.950 . S
C2323 C2322 1.397 . S
C2323 C2324 1.334 . S
C2324 H2295 0.950 . S
C2324 C2323 1.334 . S
C2324 C2325 1.287 . S
C2325 C2324 1.287 . S
C2325 C2326 1.524 . S
C2325 H2328 0.999 . S
C2326 H2296 0.950 . S
C2326 C2325 1.524 . S
C2326 C2327 1.415 . S
C2327 H2297 0.950 . S
C2327 C2322 1.363 . S
C2327 C2326 1.415 . S
H2328 C2325 0.999 . S
H2329 C2310 0.913 . S
H2330 C2348 0.951 . S
H2331 C2350 0.951 . S
H2332 C2352 0.950 . S
H2333 C2353 0.950 . S
H2334 C2355 0.950 . S
H2335 C2358 0.950 . S
H2336 C2359 0.950 . S
H2337 C2361 0.950 . S
H2338 C2362 0.950 . S
H2339 C2363 0.951 . S
H2340 C2365 0.951 . S
H2341 C2367 0.950 . S
H2342 C2368 0.950 . S
H2343 C2370 0.950 . S
H2344 C2373 0.950 . S
H2345 C2374 0.950 . S
H2346 C2376 0.950 . S
H2347 C2377 0.950 . S
C2348 H2330 0.951 . S
C2348 C2349 1.366 . S
C2348 C2350 1.388 . S
C2349 C2348 1.366 . S
C2349 C2353 1.385 . S
C2350 H2331 0.951 . S
C2350 C2348 1.388 . S
C2350 C2351 1.366 . S
C2351 C2350 1.366 . S
C2351 C2352 1.414 . S
C2351 C2354 1.499 . S
C2352 H2332 0.950 . S
C2352 C2351 1.414 . S
C2352 C2353 1.374 . S
C2353 H2333 0.950 . S
C2353 C2349 1.385 . S
C2353 C2352 1.374 . S
C2354 C2351 1.499 . S
C2354 C2355 1.373 . S
C2354 C2356 1.389 . S
C2355 H2334 0.950 . S
C2355 C2354 1.373 . S
C2355 C2371 1.377 . S
C2356 C2354 1.389 . S
C2356 C2357 1.524 . S
C2356 C2370 1.377 . S
C2357 C2356 1.524 . S
C2357 C2358 1.397 . S
C2357 C2362 1.363 . S
C2358 H2335 0.950 . S
C2358 C2357 1.397 . S
C2358 C2359 1.334 . S
C2359 H2336 0.950 . S
C2359 C2358 1.334 . S
C2359 C2360 1.287 . S
C2360 C2359 1.287 . S
C2360 C2361 1.524 . S
C2360 H2379 0.913 . S
C2361 H2337 0.950 . S
C2361 C2360 1.524 . S
C2361 C2362 1.415 . S
C2362 H2338 0.950 . S
C2362 C2357 1.363 . S
C2362 C2361 1.415 . S
C2363 H2339 0.951 . S
C2363 C2364 1.366 . S
C2363 C2365 1.388 . S
C2364 C2363 1.366 . S
C2364 C2368 1.385 . S
C2365 H2340 0.951 . S
C2365 C2363 1.388 . S
C2365 C2366 1.366 . S
C2366 C2365 1.366 . S
C2366 C2367 1.414 . S
C2366 C2369 1.499 . S
C2367 H2341 0.950 . S
C2367 C2366 1.414 . S
C2367 C2368 1.374 . S
C2368 H2342 0.950 . S
C2368 C2364 1.385 . S
C2368 C2367 1.374 . S
C2369 C2366 1.499 . S
C2369 C2370 1.373 . S
C2369 C2371 1.389 . S
C2370 H2343 0.950 . S
C2370 C2356 1.377 . S
C2370 C2369 1.373 . S
C2371 C2355 1.377 . S
C2371 C2369 1.389 . S
C2371 C2372 1.524 . S
C2372 C2371 1.524 . S
C2372 C2373 1.397 . S
C2372 C2377 1.363 . S
C2373 H2344 0.950 . S
C2373 C2372 1.397 . S
C2373 C2374 1.334 . S
C2374 H2345 0.950 . S
C2374 C2373 1.334 . S
C2374 C2375 1.287 . S
C2375 C2374 1.287 . S
C2375 C2376 1.524 . S
C2375 H2378 0.999 . S
C2376 H2346 0.950 . S
C2376 C2375 1.524 . S
C2376 C2377 1.415 . S
C2377 H2347 0.950 . S
C2377 C2372 1.363 . S
C2377 C2376 1.415 . S
H2378 C2375 0.999 . S
H2379 C2360 0.913 . S
H2380 C2398 0.951 . S
H2381 C2400 0.951 . S
H2382 C2402 0.950 . S
H2383 C2403 0.950 . S
H2384 C2405 0.950 . S
H2385 C2408 0.950 . S
H2386 C2409 0.950 . S
H2387 C2411 0.950 . S
H2388 C2412 0.950 . S
H2389 C2413 0.951 . S
H2390 C2415 0.951 . S
H2391 C2417 0.950 . S
H2392 C2418 0.950 . S
H2393 C2420 0.950 . S
H2394 C2423 0.950 . S
H2395 C2424 0.950 . S
H2396 C2426 0.950 . S
H2397 C2427 0.950 . S
C2398 H2380 0.951 . S
C2398 C2399 1.366 . S
C2398 C2400 1.388 . S
C2399 C2398 1.366 . S
C2399 C2403 1.385 . S
C2400 H2381 0.951 . S
C2400 C2398 1.388 . S
C2400 C2401 1.366 . S
C2401 C2400 1.366 . S
C2401 C2402 1.414 . S
C2401 C2404 1.499 . S
C2402 H2382 0.950 . S
C2402 C2401 1.414 . S
C2402 C2403 1.374 . S
C2403 H2383 0.950 . S
C2403 C2399 1.385 . S
C2403 C2402 1.374 . S
C2404 C2401 1.499 . S
C2404 C2405 1.373 . S
C2404 C2406 1.389 . S
C2405 H2384 0.950 . S
C2405 C2404 1.373 . S
C2405 C2421 1.377 . S
C2406 C2404 1.389 . S
C2406 C2407 1.524 . S
C2406 C2420 1.377 . S
C2407 C2406 1.524 . S
C2407 C2408 1.397 . S
C2407 C2412 1.363 . S
C2408 H2385 0.950 . S
C2408 C2407 1.397 . S
C2408 C2409 1.334 . S
C2409 H2386 0.950 . S
C2409 C2408 1.334 . S
C2409 C2410 1.287 . S
C2410 C2409 1.287 . S
C2410 C2411 1.524 . S
C2410 H2429 0.913 . S
C2411 H2387 0.950 . S
C2411 C2410 1.524 . S
C2411 C2412 1.415 . S
C2412 H2388 0.950 . S
C2412 C2407 1.363 . S
C2412 C2411 1.415 . S
C2413 H2389 0.951 . S
C2413 C2414 1.366 . S
C2413 C2415 1.388 . S
C2414 C2413 1.366 . S
C2414 C2418 1.385 . S
C2415 H2390 0.951 . S
C2415 C2413 1.388 . S
C2415 C2416 1.366 . S
C2416 C2415 1.366 . S
C2416 C2417 1.414 . S
C2416 C2419 1.499 . S
C2417 H2391 0.950 . S
C2417 C2416 1.414 . S
C2417 C2418 1.374 . S
C2418 H2392 0.950 . S
C2418 C2414 1.385 . S
C2418 C2417 1.374 . S
C2419 C2416 1.499 . S
C2419 C2420 1.373 . S
C2419 C2421 1.389 . S
C2420 H2393 0.950 . S
C2420 C2406 1.377 . S
C2420 C2419 1.373 . S
C2421 C2405 1.377 . S
C2421 C2419 1.389 . S
C2421 C2422 1.524 . S
C2422 C2421 1.524 . S
C2422 C2423 1.397 . S
C2422 C2427 1.363 . S
C2423 H2394 0.950 . S
C2423 C2422 1.397 . S
C2423 C2424 1.334 . S
C2424 H2395 0.950 . S
C2424 C2423 1.334 . S
C2424 C2425 1.287 . S
C2425 C2424 1.287 . S
C2425 C2426 1.524 . S
C2425 H2428 0.999 . S
C2426 H2396 0.950 . S
C2426 C2425 1.524 . S
C2426 C2427 1.415 . S
C2427 H2397 0.950 . S
C2427 C2422 1.363 . S
C2427 C2426 1.415 . S
H2428 C2425 0.999 . S
H2429 C2410 0.913 . S
H2430 C2448 0.951 . S
H2431 C2450 0.951 . S
H2432 C2452 0.950 . S
H2433 C2453 0.950 . S
H2434 C2455 0.950 . S
H2435 C2458 0.950 . S
H2436 C2459 0.950 . S
H2437 C2461 0.950 . S
H2438 C2462 0.950 . S
H2439 C2463 0.951 . S
H2440 C2465 0.951 . S
H2441 C2467 0.950 . S
H2442 C2468 0.950 . S
H2443 C2470 0.950 . S
H2444 C2473 0.950 . S
H2445 C2474 0.950 . S
H2446 C2476 0.950 . S
H2447 C2477 0.950 . S
C2448 H2430 0.951 . S
C2448 C2449 1.366 . S
C2448 C2450 1.388 . S
C2449 C2448 1.366 . S
C2449 C2453 1.385 . S
C2450 H2431 0.951 . S
C2450 C2448 1.388 . S
C2450 C2451 1.366 . S
C2451 C2450 1.366 . S
C2451 C2452 1.414 . S
C2451 C2454 1.499 . S
C2452 H2432 0.950 . S
C2452 C2451 1.414 . S
C2452 C2453 1.374 . S
C2453 H2433 0.950 . S
C2453 C2449 1.385 . S
C2453 C2452 1.374 . S
C2454 C2451 1.499 . S
C2454 C2455 1.373 . S
C2454 C2456 1.389 . S
C2455 H2434 0.950 . S
C2455 C2454 1.373 . S
C2455 C2471 1.377 . S
C2456 C2454 1.389 . S
C2456 C2457 1.524 . S
C2456 C2470 1.377 . S
C2457 C2456 1.524 . S
C2457 C2458 1.397 . S
C2457 C2462 1.363 . S
C2458 H2435 0.950 . S
C2458 C2457 1.397 . S
C2458 C2459 1.334 . S
C2459 H2436 0.950 . S
C2459 C2458 1.334 . S
C2459 C2460 1.287 . S
C2460 C2459 1.287 . S
C2460 C2461 1.524 . S
C2460 H2479 0.913 . S
C2461 H2437 0.950 . S
C2461 C2460 1.524 . S
C2461 C2462 1.415 . S
C2462 H2438 0.950 . S
C2462 C2457 1.363 . S
C2462 C2461 1.415 . S
C2463 H2439 0.951 . S
C2463 C2464 1.366 . S
C2463 C2465 1.388 . S
C2464 C2463 1.366 . S
C2464 C2468 1.385 . S
C2465 H2440 0.951 . S
C2465 C2463 1.388 . S
C2465 C2466 1.366 . S
C2466 C2465 1.366 . S
C2466 C2467 1.414 . S
C2466 C2469 1.499 . S
C2467 H2441 0.950 . S
C2467 C2466 1.414 . S
C2467 C2468 1.374 . S
C2468 H2442 0.950 . S
C2468 C2464 1.385 . S
C2468 C2467 1.374 . S
C2469 C2466 1.499 . S
C2469 C2470 1.373 . S
C2469 C2471 1.389 . S
C2470 H2443 0.950 . S
C2470 C2456 1.377 . S
C2470 C2469 1.373 . S
C2471 C2455 1.377 . S
C2471 C2469 1.389 . S
C2471 C2472 1.524 . S
C2472 C2471 1.524 . S
C2472 C2473 1.397 . S
C2472 C2477 1.363 . S
C2473 H2444 0.950 . S
C2473 C2472 1.397 . S
C2473 C2474 1.334 . S
C2474 H2445 0.950 . S
C2474 C2473 1.334 . S
C2474 C2475 1.287 . S
C2475 C2474 1.287 . S
C2475 C2476 1.524 . S
C2475 H2478 0.999 . S
C2476 H2446 0.950 . S
C2476 C2475 1.524 . S
C2476 C2477 1.415 . S
C2477 H2447 0.950 . S
C2477 C2472 1.363 . S
C2477 C2476 1.415 . S
H2478 C2475 0.999 . S
H2479 C2460 0.913 . S
H2480 C2498 0.951 . S
H2481 C2500 0.951 . S
H2482 C2502 0.950 . S
H2483 C2503 0.950 . S
H2484 C2505 0.950 . S
H2485 C2508 0.950 . S
H2486 C2509 0.950 . S
H2487 C2511 0.950 . S
H2488 C2512 0.950 . S
H2489 C2513 0.951 1_565 S
H2490 C2515 0.916 1_565 S
H2491 C2517 0.950 . S
H2492 C2518 0.950 . S
H2493 C2520 0.950 . S
H2494 C2523 0.950 1_545 S
H2495 C2524 0.950 . S
H2496 C2526 0.950 . S
H2497 C2527 0.950 . S
C2498 H2480 0.951 . S
C2498 C2499 1.366 . S
C2498 C2500 1.388 . S
C2499 C2498 1.366 . S
C2499 C2503 1.385 1_545 S
C2500 H2481 0.951 . S
C2500 C2498 1.388 . S
C2500 C2501 1.366 . S
C2501 C2500 1.366 . S
C2501 C2502 1.414 1_545 S
C2501 C2504 1.499 . S
C2502 H2482 0.950 . S
C2502 C2501 1.414 1_565 S
C2502 C2503 1.374 . S
C2503 H2483 0.950 . S
C2503 C2499 1.385 1_565 S
C2503 C2502 1.374 . S
C2504 C2501 1.499 . S
C2504 C2505 1.373 1_545 S
C2504 C2506 1.389 . S
C2505 H2484 0.950 . S
C2505 C2504 1.373 1_565 S
C2505 C2521 1.375 1_565 S
C2506 C2504 1.389 . S
C2506 C2507 1.524 . S
C2506 C2520 1.377 . S
C2507 C2506 1.524 . S
C2507 C2508 1.397 . S
C2507 C2512 1.363 . S
C2508 H2485 0.950 . S
C2508 C2507 1.397 . S
C2508 C2509 1.334 . S
C2509 H2486 0.950 . S
C2509 C2508 1.334 . S
C2509 C2510 1.287 . S
C2510 C2509 1.287 . S
C2510 C2511 1.524 . S
C2510 H2529 0.913 . S
C2511 H2487 0.950 . S
C2511 C2510 1.524 . S
C2511 C2512 1.415 . S
C2512 H2488 0.950 . S
C2512 C2507 1.363 . S
C2512 C2511 1.415 . S
C2513 H2489 0.951 1_545 S
C2513 C2514 1.366 . S
C2513 C2515 1.391 1_455 S
C2514 C2513 1.366 . S
C2514 C2518 1.385 1_455 S
C2515 H2490 0.916 1_545 S
C2515 C2513 1.391 1_655 S
C2515 C2516 1.397 . S
C2516 C2515 1.397 . S
C2516 C2517 1.414 . S
C2516 C2519 1.499 . S
C2517 H2491 0.950 . S
C2517 C2516 1.414 . S
C2517 C2518 1.374 . S
C2518 H2492 0.950 . S
C2518 C2514 1.385 1_655 S
C2518 C2517 1.374 . S
C2519 C2516 1.499 . S
C2519 C2520 1.373 . S
C2519 C2521 1.405 . S
C2520 H2493 0.950 . S
C2520 C2506 1.377 . S
C2520 C2519 1.373 . S
C2521 C2505 1.375 1_545 S
C2521 C2519 1.405 . S
C2521 C2522 1.511 1_545 S
C2522 C2521 1.511 1_565 S
C2522 C2523 1.397 . S
C2522 C2527 1.363 . S
C2523 H2494 0.950 1_565 S
C2523 C2522 1.397 . S
C2523 C2524 1.334 . S
C2524 H2495 0.950 . S
C2524 C2523 1.334 . S
C2524 C2525 1.287 . S
C2525 C2524 1.287 . S
C2525 C2526 1.524 . S
C2525 H2528 0.999 . S
C2526 H2496 0.950 . S
C2526 C2525 1.524 . S
C2526 C2527 1.415 . S
C2527 H2497 0.950 . S
C2527 C2522 1.363 . S
C2527 C2526 1.415 . S
H2528 C2525 0.999 . S
H2529 C2510 0.913 . S
H2530 C2548 0.951 . S
H2531 C2550 0.951 . S
H2532 C2552 0.950 . S
H2533 C2553 0.950 . S
H2534 C2555 0.950 . S
H2535 C2558 0.950 . S
H2536 C2559 0.950 . S
H2537 C2561 0.950 . S
H2538 C2562 0.950 . S
H2539 C2563 0.951 . S
H2540 C2565 0.951 . S
H2541 C2567 0.950 . S
H2542 C2568 0.950 . S
H2543 C2570 0.950 . S
H2544 C2573 0.950 . S
H2545 C2574 0.950 . S
H2546 C2576 0.950 . S
H2547 C2577 0.950 . S
C2548 H2530 0.951 . S
C2548 C2549 1.366 . S
C2548 C2550 1.388 . S
C2549 C2548 1.366 . S
C2549 C2553 1.385 . S
C2550 H2531 0.951 . S
C2550 C2548 1.388 . S
C2550 C2551 1.366 . S
C2551 C2550 1.366 . S
C2551 C2552 1.414 . S
C2551 C2554 1.499 . S
C2552 H2532 0.950 . S
C2552 C2551 1.414 . S
C2552 C2553 1.374 . S
C2553 H2533 0.950 . S
C2553 C2549 1.385 . S
C2553 C2552 1.374 . S
C2554 C2551 1.499 . S
C2554 C2555 1.373 . S
C2554 C2556 1.389 . S
C2555 H2534 0.950 . S
C2555 C2554 1.373 . S
C2555 C2571 1.377 . S
C2556 C2554 1.389 . S
C2556 C2557 1.524 . S
C2556 C2570 1.377 . S
C2557 C2556 1.524 . S
C2557 C2558 1.397 . S
C2557 C2562 1.363 . S
C2558 H2535 0.950 . S
C2558 C2557 1.397 . S
C2558 C2559 1.334 . S
C2559 H2536 0.950 . S
C2559 C2558 1.334 . S
C2559 C2560 1.287 . S
C2560 C2559 1.287 . S
C2560 C2561 1.524 . S
C2560 H2579 0.913 . S
C2561 H2537 0.950 . S
C2561 C2560 1.524 . S
C2561 C2562 1.415 . S
C2562 H2538 0.950 . S
C2562 C2557 1.363 . S
C2562 C2561 1.415 . S
C2563 H2539 0.951 . S
C2563 C2564 1.366 . S
C2563 C2565 1.388 . S
C2564 C2563 1.366 . S
C2564 C2568 1.385 . S
C2565 H2540 0.951 . S
C2565 C2563 1.388 . S
C2565 C2566 1.366 . S
C2566 C2565 1.366 . S
C2566 C2567 1.414 . S
C2566 C2569 1.499 . S
C2567 H2541 0.950 . S
C2567 C2566 1.414 . S
C2567 C2568 1.374 . S
C2568 H2542 0.950 . S
C2568 C2564 1.385 . S
C2568 C2567 1.374 . S
C2569 C2566 1.499 . S
C2569 C2570 1.373 . S
C2569 C2571 1.389 . S
C2570 H2543 0.950 . S
C2570 C2556 1.377 . S
C2570 C2569 1.373 . S
C2571 C2555 1.377 . S
C2571 C2569 1.389 . S
C2571 C2572 1.524 . S
C2572 C2571 1.524 . S
C2572 C2573 1.397 . S
C2572 C2577 1.363 . S
C2573 H2544 0.950 . S
C2573 C2572 1.397 . S
C2573 C2574 1.334 . S
C2574 H2545 0.950 . S
C2574 C2573 1.334 . S
C2574 C2575 1.287 . S
C2575 C2574 1.287 . S
C2575 C2576 1.524 . S
C2575 H2578 0.999 . S
C2576 H2546 0.950 . S
C2576 C2575 1.524 . S
C2576 C2577 1.415 . S
C2577 H2547 0.950 . S
C2577 C2572 1.363 . S
C2577 C2576 1.415 . S
H2578 C2575 0.999 . S
H2579 C2560 0.913 . S
H2580 C2598 0.951 . S
H2581 C2600 0.951 . S
H2582 C2602 0.960 . S
H2583 C2603 0.950 . S
H2584 C2605 0.950 . S
H2585 C2608 0.950 . S
H2586 C2609 0.950 . S
H2587 C2611 0.950 . S
H2588 C2612 0.950 . S
H2589 C2613 0.951 . S
H2590 C2615 0.951 . S
H2591 C2617 0.950 . S
H2592 C2618 0.950 . S
H2593 C2620 0.950 . S
H2594 C2623 0.950 . S
H2595 C2624 0.950 . S
H2596 C2626 0.950 . S
H2597 C2627 0.950 . S
C2598 H2580 0.951 . S
C2598 C2599 1.366 . S
C2598 C2600 1.388 . S
C2599 C2598 1.366 . S
C2599 C2603 1.385 . S
C2600 H2581 0.951 . S
C2600 C2598 1.388 . S
C2600 C2601 1.366 . S
C2601 C2600 1.366 . S
C2601 C2602 1.414 . S
C2601 C2604 1.499 . S
C2602 H2582 0.960 . S
C2602 C2601 1.414 . S
C2602 C2603 1.374 . S
C2603 H2583 0.950 . S
C2603 C2599 1.385 . S
C2603 C2602 1.374 . S
C2604 C2601 1.499 . S
C2604 C2605 1.373 . S
C2604 C2606 1.389 1_545 S
C2605 H2584 0.950 . S
C2605 C2604 1.373 . S
C2605 C2621 1.377 . S
C2606 C2604 1.389 1_565 S
C2606 C2607 1.524 . S
C2606 C2620 1.377 . S
C2607 C2606 1.524 . S
C2607 C2608 1.397 . S
C2607 C2612 1.363 . S
C2608 H2585 0.950 . S
C2608 C2607 1.397 . S
C2608 C2609 1.334 . S
C2609 H2586 0.950 . S
C2609 C2608 1.334 . S
C2609 C2610 1.287 . S
C2610 C2609 1.287 . S
C2610 C2611 1.524 . S
C2610 H2629 0.913 . S
C2611 H2587 0.950 . S
C2611 C2610 1.524 . S
C2611 C2612 1.415 . S
C2612 H2588 0.950 . S
C2612 C2607 1.363 . S
C2612 C2611 1.415 . S
C2613 H2589 0.951 . S
C2613 C2614 1.366 1_565 S
C2613 C2615 1.388 . S
C2614 C2613 1.366 1_545 S
C2614 C2618 1.385 . S
C2615 H2590 0.951 . S
C2615 C2613 1.388 . S
C2615 C2616 1.366 1_565 S
C2616 C2615 1.366 1_545 S
C2616 C2617 1.414 . S
C2616 C2619 1.499 . S
C2617 H2591 0.950 . S
C2617 C2616 1.414 . S
C2617 C2618 1.374 . S
C2618 H2592 0.950 . S
C2618 C2614 1.385 . S
C2618 C2617 1.374 . S
C2619 C2616 1.499 . S
C2619 C2620 1.373 1_545 S
C2619 C2621 1.389 . S
C2620 H2593 0.950 . S
C2620 C2606 1.377 . S
C2620 C2619 1.373 1_565 S
C2621 C2605 1.377 . S
C2621 C2619 1.389 . S
C2621 C2622 1.524 . S
C2622 C2621 1.524 . S
C2622 C2623 1.397 . S
C2622 C2627 1.363 . S
C2623 H2594 0.950 . S
C2623 C2622 1.397 . S
C2623 C2624 1.334 . S
C2624 H2595 0.950 . S
C2624 C2623 1.334 . S
C2624 C2625 1.287 . S
C2625 C2624 1.287 . S
C2625 C2626 1.524 . S
C2625 H2628 0.999 . S
C2626 H2596 0.950 . S
C2626 C2625 1.524 . S
C2626 C2627 1.415 . S
C2627 H2597 0.950 . S
C2627 C2622 1.363 . S
C2627 C2626 1.415 . S
H2628 C2625 0.999 . S
H2629 C2610 0.913 . S
H2630 C2648 0.951 . S
H2631 C2650 0.951 . S
H2632 C2652 0.950 . S
H2633 C2653 0.950 . S
H2634 C2655 0.950 . S
H2635 C2658 0.950 . S
H2636 C2659 0.950 . S
H2637 C2661 0.950 . S
H2638 C2662 0.950 . S
H2639 C2663 0.951 . S
H2640 C2665 0.951 . S
H2641 C2667 0.950 . S
H2642 C2668 0.950 . S
H2643 C2670 0.950 . S
H2644 C2673 0.950 . S
H2645 C2674 0.950 . S
H2646 C2676 0.950 . S
H2647 C2677 0.950 . S
C2648 H2630 0.951 . S
C2648 C2649 1.366 . S
C2648 C2650 1.388 . S
C2649 C2648 1.366 . S
C2649 C2653 1.385 . S
C2650 H2631 0.951 . S
C2650 C2648 1.388 . S
C2650 C2651 1.366 . S
C2651 C2650 1.366 . S
C2651 C2652 1.414 . S
C2651 C2654 1.499 . S
C2652 H2632 0.950 . S
C2652 C2651 1.414 . S
C2652 C2653 1.374 . S
C2653 H2633 0.950 . S
C2653 C2649 1.385 . S
C2653 C2652 1.374 . S
C2654 C2651 1.499 . S
C2654 C2655 1.373 . S
C2654 C2656 1.389 . S
C2655 H2634 0.950 . S
C2655 C2654 1.373 . S
C2655 C2671 1.377 . S
C2656 C2654 1.389 . S
C2656 C2657 1.524 . S
C2656 C2670 1.377 . S
C2657 C2656 1.524 . S
C2657 C2658 1.397 . S
C2657 C2662 1.363 . S
C2658 H2635 0.950 . S
C2658 C2657 1.397 . S
C2658 C2659 1.334 . S
C2659 H2636 0.950 . S
C2659 C2658 1.334 . S
C2659 C2660 1.287 . S
C2660 C2659 1.287 . S
C2660 C2661 1.524 . S
C2660 H2679 0.913 . S
C2661 H2637 0.950 . S
C2661 C2660 1.524 . S
C2661 C2662 1.415 . S
C2662 H2638 0.950 . S
C2662 C2657 1.363 . S
C2662 C2661 1.415 . S
C2663 H2639 0.951 . S
C2663 C2664 1.366 . S
C2663 C2665 1.388 . S
C2664 C2663 1.366 . S
C2664 C2668 1.385 . S
C2665 H2640 0.951 . S
C2665 C2663 1.388 . S
C2665 C2666 1.366 . S
C2666 C2665 1.366 . S
C2666 C2667 1.414 . S
C2666 C2669 1.499 . S
C2667 H2641 0.950 . S
C2667 C2666 1.414 . S
C2667 C2668 1.374 . S
C2668 H2642 0.950 . S
C2668 C2664 1.385 . S
C2668 C2667 1.374 . S
C2669 C2666 1.499 . S
C2669 C2670 1.373 . S
C2669 C2671 1.389 . S
C2670 H2643 0.950 . S
C2670 C2656 1.377 . S
C2670 C2669 1.373 . S
C2671 C2655 1.377 . S
C2671 C2669 1.389 . S
C2671 C2672 1.524 . S
C2672 C2671 1.524 . S
C2672 C2673 1.397 . S
C2672 C2677 1.363 . S
C2673 H2644 0.950 . S
C2673 C2672 1.397 . S
C2673 C2674 1.334 . S
C2674 H2645 0.950 . S
C2674 C2673 1.334 . S
C2674 C2675 1.287 . S
C2675 C2674 1.287 . S
C2675 C2676 1.524 . S
C2675 H2678 0.999 . S
C2676 H2646 0.950 . S
C2676 C2675 1.524 . S
C2676 C2677 1.415 . S
C2677 H2647 0.950 . S
C2677 C2672 1.363 . S
C2677 C2676 1.415 . S
H2678 C2675 0.999 . S
H2679 C2660 0.913 . S
H2680 C2698 0.951 . S
H2681 C2700 0.951 . S
H2682 C2702 0.950 . S
H2683 C2703 0.959 . S
H2684 C2705 0.950 . S
H2685 C2708 0.950 . S
H2686 C2709 0.950 . S
H2687 C2711 0.950 . S
H2688 C2712 0.950 . S
H2689 C2713 0.951 . S
H2690 C2715 0.951 . S
H2691 C2717 0.950 . S
H2692 C2718 0.950 1_455 S
H2693 C2720 0.950 . S
H2694 C2723 0.950 . S
H2695 C2724 0.950 . S
H2696 C2726 0.950 . S
H2697 C2727 0.950 . S
C2698 H2680 0.951 . S
C2698 C2699 1.366 . S
C2698 C2700 1.388 . S
C2699 C2698 1.366 . S
C2699 C2703 1.373 1_545 S
C2700 H2681 0.951 . S
C2700 C2698 1.388 . S
C2700 C2701 1.375 . S
C2701 C2700 1.375 . S
C2701 C2702 1.408 1_545 S
C2701 C2704 1.495 1_545 S
C2702 H2682 0.950 . S
C2702 C2701 1.408 1_565 S
C2702 C2703 1.380 . S
C2703 H2683 0.959 . S
C2703 C2699 1.373 1_565 S
C2703 C2702 1.380 . S
C2704 C2701 1.495 1_565 S
C2704 C2705 1.373 . S
C2704 C2706 1.389 1_565 S
C2705 H2684 0.950 . S
C2705 C2704 1.373 . S
C2705 C2721 1.377 . S
C2706 C2704 1.389 1_545 S
C2706 C2707 1.524 . S
C2706 C2720 1.377 . S
C2707 C2706 1.524 . S
C2707 C2708 1.397 . S
C2707 C2712 1.363 . S
C2708 H2685 0.950 . S
C2708 C2707 1.397 . S
C2708 C2709 1.334 . S
C2709 H2686 0.950 . S
C2709 C2708 1.334 . S
C2709 C2710 1.287 . S
C2710 C2709 1.287 . S
C2710 C2711 1.524 . S
C2710 H2729 0.913 . S
C2711 H2687 0.950 . S
C2711 C2710 1.524 . S
C2711 C2712 1.415 . S
C2712 H2688 0.950 . S
C2712 C2707 1.363 . S
C2712 C2711 1.415 . S
C2713 H2689 0.951 . S
C2713 C2714 1.366 . S
C2713 C2715 1.388 . S
C2714 C2713 1.366 . S
C2714 C2718 1.385 . S
C2715 H2690 0.951 . S
C2715 C2713 1.388 . S
C2715 C2716 1.366 . S
C2716 C2715 1.366 . S
C2716 C2717 1.414 . S
C2716 C2719 1.499 . S
C2717 H2691 0.950 . S
C2717 C2716 1.414 . S
C2717 C2718 1.374 . S
C2718 H2692 0.950 1_655 S
C2718 C2714 1.385 . S
C2718 C2717 1.374 . S
C2719 C2716 1.499 . S
C2719 C2720 1.373 1_565 S
C2719 C2721 1.389 . S
C2720 H2693 0.950 . S
C2720 C2706 1.377 . S
C2720 C2719 1.373 1_545 S
C2721 C2705 1.377 . S
C2721 C2719 1.389 . S
C2721 C2722 1.524 . S
C2722 C2721 1.524 . S
C2722 C2723 1.397 . S
C2722 C2727 1.363 . S
C2723 H2694 0.950 . S
C2723 C2722 1.397 . S
C2723 C2724 1.334 . S
C2724 H2695 0.950 . S
C2724 C2723 1.334 . S
C2724 C2725 1.287 . S
C2725 C2724 1.287 . S
C2725 C2726 1.524 . S
C2725 H2728 0.999 . S
C2726 H2696 0.950 . S
C2726 C2725 1.524 . S
C2726 C2727 1.415 . S
C2727 H2697 0.950 . S
C2727 C2722 1.363 . S
C2727 C2726 1.415 . S
H2728 C2725 0.999 . S
H2729 C2710 0.913 . S
H2730 C2748 0.951 . S
H2731 C2750 0.951 . S
H2732 C2752 0.950 . S
H2733 C2753 0.950 . S
H2734 C2755 0.950 . S
H2735 C2758 0.950 . S
H2736 C2759 0.950 . S
H2737 C2761 0.950 . S
H2738 C2762 0.950 . S
H2739 C2763 0.951 . S
H2740 C2765 0.951 . S
H2741 C2767 0.950 . S
H2742 C2768 0.950 . S
H2743 C2770 0.950 . S
H2744 C2773 0.950 . S
H2745 C2774 0.950 . S
H2746 C2776 0.950 . S
H2747 C2777 0.950 . S
C2748 H2730 0.951 . S
C2748 C2749 1.366 . S
C2748 C2750 1.388 . S
C2749 C2748 1.366 . S
C2749 C2753 1.385 . S
C2750 H2731 0.951 . S
C2750 C2748 1.388 . S
C2750 C2751 1.366 . S
C2751 C2750 1.366 . S
C2751 C2752 1.414 . S
C2751 C2754 1.499 . S
C2752 H2732 0.950 . S
C2752 C2751 1.414 . S
C2752 C2753 1.374 . S
C2753 H2733 0.950 . S
C2753 C2749 1.385 . S
C2753 C2752 1.374 . S
C2754 C2751 1.499 . S
C2754 C2755 1.373 . S
C2754 C2756 1.389 . S
C2755 H2734 0.950 . S
C2755 C2754 1.373 . S
C2755 C2771 1.377 . S
C2756 C2754 1.389 . S
C2756 C2757 1.524 . S
C2756 C2770 1.377 . S
C2757 C2756 1.524 . S
C2757 C2758 1.397 . S
C2757 C2762 1.363 . S
C2758 H2735 0.950 . S
C2758 C2757 1.397 . S
C2758 C2759 1.334 . S
C2759 H2736 0.950 . S
C2759 C2758 1.334 . S
C2759 C2760 1.287 . S
C2760 C2759 1.287 . S
C2760 C2761 1.524 . S
C2760 H2779 0.913 . S
C2761 H2737 0.950 . S
C2761 C2760 1.524 . S
C2761 C2762 1.415 . S
C2762 H2738 0.950 . S
C2762 C2757 1.363 . S
C2762 C2761 1.415 . S
C2763 H2739 0.951 . S
C2763 C2764 1.366 . S
C2763 C2765 1.388 . S
C2764 C2763 1.366 . S
C2764 C2768 1.385 . S
C2765 H2740 0.951 . S
C2765 C2763 1.388 . S
C2765 C2766 1.366 . S
C2766 C2765 1.366 . S
C2766 C2767 1.414 . S
C2766 C2769 1.499 . S
C2767 H2741 0.950 . S
C2767 C2766 1.414 . S
C2767 C2768 1.374 . S
C2768 H2742 0.950 . S
C2768 C2764 1.385 . S
C2768 C2767 1.374 . S
C2769 C2766 1.499 . S
C2769 C2770 1.373 . S
C2769 C2771 1.389 . S
C2770 H2743 0.950 . S
C2770 C2756 1.377 . S
C2770 C2769 1.373 . S
C2771 C2755 1.377 . S
C2771 C2769 1.389 . S
C2771 C2772 1.524 . S
C2772 C2771 1.524 . S
C2772 C2773 1.397 . S
C2772 C2777 1.363 . S
C2773 H2744 0.950 . S
C2773 C2772 1.397 . S
C2773 C2774 1.334 . S
C2774 H2745 0.950 . S
C2774 C2773 1.334 . S
C2774 C2775 1.287 . S
C2775 C2774 1.287 . S
C2775 C2776 1.524 . S
C2775 H2778 0.999 . S
C2776 H2746 0.950 . S
C2776 C2775 1.524 . S
C2776 C2777 1.415 . S
C2777 H2747 0.950 . S
C2777 C2772 1.363 . S
C2777 C2776 1.415 . S
H2778 C2775 0.999 . S
H2779 C2760 0.913 . S
H2780 C2798 0.950 1_565 S
H2781 C2800 0.951 . S
H2782 C2802 0.950 . S
H2783 C2803 0.950 . S
H2784 C2805 0.950 . S
H2785 C2808 0.950 . S
H2786 C2809 0.950 . S
H2787 C2811 0.950 . S
H2788 C2812 0.950 . S
H2789 C2813 0.951 . S
H2790 C2815 0.951 . S
H2791 C2817 0.950 . S
H2792 C2818 0.950 . S
H2793 C2820 0.950 1_565 S
H2794 C2823 0.950 . S
H2795 C2824 0.950 . S
H2796 C2826 0.950 . S
H2797 C2827 0.950 . S
C2798 H2780 0.950 1_545 S
C2798 C2799 1.366 . S
C2798 C2800 1.388 . S
C2799 C2798 1.366 . S
C2799 C2803 1.385 . S
C2800 H2781 0.951 . S
C2800 C2798 1.388 . S
C2800 C2801 1.366 . S
C2801 C2800 1.366 . S
C2801 C2802 1.414 . S
C2801 C2804 1.499 . S
C2802 H2782 0.950 . S
C2802 C2801 1.414 . S
C2802 C2803 1.374 . S
C2803 H2783 0.950 . S
C2803 C2799 1.385 . S
C2803 C2802 1.374 . S
C2804 C2801 1.499 . S
C2804 C2805 1.373 . S
C2804 C2806 1.389 . S
C2805 H2784 0.950 . S
C2805 C2804 1.373 . S
C2805 C2821 1.377 . S
C2806 C2804 1.389 . S
C2806 C2807 1.524 1_545 S
C2806 C2820 1.377 . S
C2807 C2806 1.524 1_565 S
C2807 C2808 1.397 . S
C2807 C2812 1.363 . S
C2808 H2785 0.950 . S
C2808 C2807 1.397 . S
C2808 C2809 1.334 . S
C2809 H2786 0.950 . S
C2809 C2808 1.334 . S
C2809 C2810 1.287 . S
C2810 C2809 1.287 . S
C2810 C2811 1.524 . S
C2810 H2829 0.913 . S
C2811 H2787 0.950 . S
C2811 C2810 1.524 . S
C2811 C2812 1.415 . S
C2812 H2788 0.950 . S
C2812 C2807 1.363 . S
C2812 C2811 1.415 . S
C2813 H2789 0.951 . S
C2813 C2814 1.366 . S
C2813 C2815 1.388 . S
C2814 C2813 1.366 . S
C2814 C2818 1.385 . S
C2815 H2790 0.951 . S
C2815 C2813 1.388 . S
C2815 C2816 1.366 . S
C2816 C2815 1.366 . S
C2816 C2817 1.414 . S
C2816 C2819 1.499 . S
C2817 H2791 0.950 . S
C2817 C2816 1.414 . S
C2817 C2818 1.374 . S
C2818 H2792 0.950 . S
C2818 C2814 1.385 . S
C2818 C2817 1.374 . S
C2819 C2816 1.499 . S
C2819 C2820 1.373 . S
C2819 C2821 1.389 . S
C2820 H2793 0.950 1_545 S
C2820 C2806 1.377 . S
C2820 C2819 1.373 . S
C2821 C2805 1.377 . S
C2821 C2819 1.389 . S
C2821 C2822 1.524 . S
C2822 C2821 1.524 . S
C2822 C2823 1.397 . S
C2822 C2827 1.363 . S
C2823 H2794 0.950 . S
C2823 C2822 1.397 . S
C2823 C2824 1.334 . S
C2824 H2795 0.950 . S
C2824 C2823 1.334 . S
C2824 C2825 1.287 . S
C2825 C2824 1.287 . S
C2825 C2826 1.524 . S
C2825 H2828 0.999 . S
C2826 H2796 0.950 . S
C2826 C2825 1.524 . S
C2826 C2827 1.415 . S
C2827 H2797 0.950 . S
C2827 C2822 1.363 . S
C2827 C2826 1.415 . S
H2828 C2825 0.999 . S
H2829 C2810 0.913 . S
H2830 C2848 0.951 . S
H2831 C2850 0.951 . S
H2832 C2852 0.950 . S
H2833 C2853 0.950 . S
H2834 C2855 0.950 . S
H2835 C2858 0.950 . S
H2836 C2859 0.950 . S
H2837 C2861 0.950 . S
H2838 C2862 0.950 . S
H2839 C2863 0.951 . S
H2840 C2865 0.951 . S
H2841 C2867 0.950 . S
H2842 C2868 0.950 . S
H2843 C2870 0.950 . S
H2844 C2873 0.950 . S
H2845 C2874 0.950 . S
H2846 C2876 0.950 . S
H2847 C2877 0.950 . S
C2848 H2830 0.951 . S
C2848 C2849 1.366 . S
C2848 C2850 1.388 . S
C2849 C2848 1.366 . S
C2849 C2853 1.385 . S
C2850 H2831 0.951 . S
C2850 C2848 1.388 . S
C2850 C2851 1.366 . S
C2851 C2850 1.366 . S
C2851 C2852 1.414 . S
C2851 C2854 1.499 . S
C2852 H2832 0.950 . S
C2852 C2851 1.414 . S
C2852 C2853 1.374 . S
C2853 H2833 0.950 . S
C2853 C2849 1.385 . S
C2853 C2852 1.374 . S
C2854 C2851 1.499 . S
C2854 C2855 1.373 . S
C2854 C2856 1.389 . S
C2855 H2834 0.950 . S
C2855 C2854 1.373 . S
C2855 C2871 1.377 . S
C2856 C2854 1.389 . S
C2856 C2857 1.524 . S
C2856 C2870 1.377 . S
C2857 C2856 1.524 . S
C2857 C2858 1.397 . S
C2857 C2862 1.363 . S
C2858 H2835 0.950 . S
C2858 C2857 1.397 . S
C2858 C2859 1.334 . S
C2859 H2836 0.950 . S
C2859 C2858 1.334 . S
C2859 C2860 1.287 . S
C2860 C2859 1.287 . S
C2860 C2861 1.524 . S
C2860 H2879 0.913 . S
C2861 H2837 0.950 . S
C2861 C2860 1.524 . S
C2861 C2862 1.415 . S
C2862 H2838 0.950 . S
C2862 C2857 1.363 . S
C2862 C2861 1.415 . S
C2863 H2839 0.951 . S
C2863 C2864 1.366 . S
C2863 C2865 1.388 . S
C2864 C2863 1.366 . S
C2864 C2868 1.385 . S
C2865 H2840 0.951 . S
C2865 C2863 1.388 . S
C2865 C2866 1.366 . S
C2866 C2865 1.366 . S
C2866 C2867 1.414 . S
C2866 C2869 1.499 . S
C2867 H2841 0.950 . S
C2867 C2866 1.414 . S
C2867 C2868 1.374 . S
C2868 H2842 0.950 . S
C2868 C2864 1.385 . S
C2868 C2867 1.374 . S
C2869 C2866 1.499 . S
C2869 C2870 1.373 . S
C2869 C2871 1.389 . S
C2870 H2843 0.950 . S
C2870 C2856 1.377 . S
C2870 C2869 1.373 . S
C2871 C2855 1.377 . S
C2871 C2869 1.389 . S
C2871 C2872 1.524 . S
C2872 C2871 1.524 . S
C2872 C2873 1.397 . S
C2872 C2877 1.363 . S
C2873 H2844 0.950 . S
C2873 C2872 1.397 . S
C2873 C2874 1.334 . S
C2874 H2845 0.950 . S
C2874 C2873 1.334 . S
C2874 C2875 1.287 . S
C2875 C2874 1.287 . S
C2875 C2876 1.524 . S
C2875 H2878 0.999 . S
C2876 H2846 0.950 . S
C2876 C2875 1.524 . S
C2876 C2877 1.415 . S
C2877 H2847 0.950 . S
C2877 C2872 1.363 . S
C2877 C2876 1.415 . S
H2878 C2875 0.999 . S
H2879 C2860 0.913 . S
H2880 C2898 0.951 . S
H2881 C2900 0.951 . S
H2882 C2902 0.950 . S
H2883 C2903 0.950 1_556 S
H2884 C2905 0.950 . S
H2885 C2908 0.950 . S
H2886 C2909 0.950 . S
H2887 C2911 0.950 . S
H2888 C2912 0.950 . S
H2889 C2913 0.951 . S
H2890 C2915 0.951 . S
H2891 C2917 0.950 . S
H2892 C2918 0.950 . S
H2893 C2920 0.950 . S
H2894 C2923 0.950 . S
H2895 C2924 0.950 . S
H2896 C2926 0.950 . S
H2897 C2927 0.950 . S
C2898 H2880 0.951 . S
C2898 C2899 1.366 . S
C2898 C2900 1.388 . S
C2899 C2898 1.366 . S
C2899 C2903 1.385 . S
C2900 H2881 0.951 . S
C2900 C2898 1.388 . S
C2900 C2901 1.366 . S
C2901 C2900 1.366 . S
C2901 C2902 1.414 . S
C2901 C2904 1.499 . S
C2902 H2882 0.950 . S
C2902 C2901 1.414 . S
C2902 C2903 1.374 . S
C2903 H2883 0.950 1_554 S
C2903 C2899 1.385 . S
C2903 C2902 1.374 . S
C2904 C2901 1.499 . S
C2904 C2905 1.373 . S
C2904 C2906 1.389 . S
C2905 H2884 0.950 . S
C2905 C2904 1.373 . S
C2905 C2921 1.377 . S
C2906 C2904 1.389 . S
C2906 C2907 1.524 . S
C2906 C2920 1.377 . S
C2907 C2906 1.524 . S
C2907 C2908 1.397 . S
C2907 C2912 1.363 . S
C2908 H2885 0.950 . S
C2908 C2907 1.397 . S
C2908 C2909 1.334 . S
C2909 H2886 0.950 . S
C2909 C2908 1.334 . S
C2909 C2910 1.287 . S
C2910 C2909 1.287 . S
C2910 C2911 1.524 . S
C2910 H2929 0.913 . S
C2911 H2887 0.950 . S
C2911 C2910 1.524 . S
C2911 C2912 1.415 . S
C2912 H2888 0.950 . S
C2912 C2907 1.363 . S
C2912 C2911 1.415 . S
C2913 H2889 0.951 . S
C2913 C2914 1.366 . S
C2913 C2915 1.388 . S
C2914 C2913 1.366 . S
C2914 C2918 1.385 . S
C2915 H2890 0.951 . S
C2915 C2913 1.388 . S
C2915 C2916 1.366 . S
C2916 C2915 1.366 . S
C2916 C2917 1.414 . S
C2916 C2919 1.499 . S
C2917 H2891 0.950 . S
C2917 C2916 1.414 . S
C2917 C2918 1.374 . S
C2918 H2892 0.950 . S
C2918 C2914 1.385 . S
C2918 C2917 1.374 . S
C2919 C2916 1.499 . S
C2919 C2920 1.373 . S
C2919 C2921 1.389 . S
C2920 H2893 0.950 . S
C2920 C2906 1.377 . S
C2920 C2919 1.373 . S
C2921 C2905 1.377 . S
C2921 C2919 1.389 . S
C2921 C2922 1.524 . S
C2922 C2921 1.524 . S
C2922 C2923 1.397 . S
C2922 C2927 1.363 1_554 S
C2923 H2894 0.950 . S
C2923 C2922 1.397 . S
C2923 C2924 1.334 1_554 S
C2924 H2895 0.950 . S
C2924 C2923 1.334 1_556 S
C2924 C2925 1.287 . S
C2925 C2924 1.287 . S
C2925 C2926 1.524 . S
C2925 H2928 0.999 . S
C2926 H2896 0.950 . S
C2926 C2925 1.524 . S
C2926 C2927 1.415 . S
C2927 H2897 0.950 . S
C2927 C2922 1.363 1_556 S
C2927 C2926 1.415 . S
H2928 C2925 0.999 . S
H2929 C2910 0.913 . S
H2930 C2948 0.951 . S
H2931 C2950 0.951 . S
H2932 C2952 0.950 . S
H2933 C2953 0.950 . S
H2934 C2955 0.950 . S
H2935 C2958 0.950 . S
H2936 C2959 0.950 . S
H2937 C2961 0.950 . S
H2938 C2962 0.950 . S
H2939 C2963 0.951 . S
H2940 C2965 0.951 . S
H2941 C2967 0.917 1_556 S
H2942 C2968 0.950 1_556 S
H2943 C2970 0.950 . S
H2944 C2973 0.950 . S
H2945 C2974 0.950 . S
H2946 C2976 0.950 . S
H2947 C2977 0.950 . S
C2948 H2930 0.951 . S
C2948 C2949 1.366 1_556 S
C2948 C2950 1.388 . S
C2949 C2948 1.366 1_554 S
C2949 C2953 1.385 . S
C2950 H2931 0.951 . S
C2950 C2948 1.388 . S
C2950 C2951 1.366 1_556 S
C2951 C2950 1.366 1_554 S
C2951 C2952 1.414 . S
C2951 C2954 1.499 . S
C2952 H2932 0.950 . S
C2952 C2951 1.414 . S
C2952 C2953 1.374 . S
C2953 H2933 0.950 . S
C2953 C2949 1.385 . S
C2953 C2952 1.374 . S
C2954 C2951 1.499 . S
C2954 C2955 1.373 . S
C2954 C2956 1.389 1_554 S
C2955 H2934 0.950 . S
C2955 C2954 1.373 . S
C2955 C2971 1.377 . S
C2956 C2954 1.389 1_556 S
C2956 C2957 1.524 . S
C2956 C2970 1.377 . S
C2957 C2956 1.524 . S
C2957 C2958 1.397 . S
C2957 C2962 1.363 . S
C2958 H2935 0.950 . S
C2958 C2957 1.397 . S
C2958 C2959 1.334 . S
C2959 H2936 0.950 . S
C2959 C2958 1.334 . S
C2959 C2960 1.287 . S
C2960 C2959 1.287 . S
C2960 C2961 1.524 . S
C2960 H2979 0.913 . S
C2961 H2937 0.950 . S
C2961 C2960 1.524 . S
C2961 C2962 1.415 . S
C2962 H2938 0.950 . S
C2962 C2957 1.363 . S
C2962 C2961 1.415 . S
C2963 H2939 0.951 . S
C2963 C2964 1.366 . S
C2963 C2965 1.388 . S
C2964 C2963 1.366 . S
C2964 C2968 1.385 . S
C2965 H2940 0.951 . S
C2965 C2963 1.388 . S
C2965 C2966 1.366 . S
C2966 C2965 1.366 . S
C2966 C2967 1.448 . S
C2966 C2969 1.499 . S
C2967 H2941 0.917 1_554 S
C2967 C2966 1.448 . S
C2967 C2968 1.377 . S
C2968 H2942 0.950 1_554 S
C2968 C2964 1.385 . S
C2968 C2967 1.377 . S
C2969 C2966 1.499 . S
C2969 C2970 1.373 1_554 S
C2969 C2971 1.389 . S
C2970 H2943 0.950 . S
C2970 C2956 1.377 . S
C2970 C2969 1.373 1_556 S
C2971 C2955 1.377 . S
C2971 C2969 1.389 . S
C2971 C2972 1.524 . S
C2972 C2971 1.524 . S
C2972 C2973 1.397 . S
C2972 C2977 1.363 . S
C2973 H2944 0.950 . S
C2973 C2972 1.397 . S
C2973 C2974 1.334 . S
C2974 H2945 0.950 . S
C2974 C2973 1.334 . S
C2974 C2975 1.287 . S
C2975 C2974 1.287 . S
C2975 C2976 1.524 . S
C2975 H2978 0.999 . S
C2976 H2946 0.950 . S
C2976 C2975 1.524 . S
C2976 C2977 1.415 . S
C2977 H2947 0.950 . S
C2977 C2972 1.363 . S
C2977 C2976 1.415 . S
H2978 C2975 0.999 . S
H2979 C2960 0.913 . S
H2980 C2998 0.951 . S
H2981 C3000 0.951 . S
H2982 C3002 0.950 . S
H2983 C3003 0.950 . S
H2984 C3005 0.950 . S
H2985 C3008 0.950 . S
H2986 C3009 0.950 . S
H2987 C3011 0.950 . S
H2988 C3012 0.950 . S
H2989 C3013 0.951 . S
H2990 C3015 0.951 . S
H2991 C3017 0.950 . S
H2992 C3018 0.950 . S
H2993 C3020 0.950 . S
H2994 C3023 0.950 . S
H2995 C3024 0.950 . S
H2996 C3026 0.950 . S
H2997 C3027 0.950 . S
C2998 H2980 0.951 . S
C2998 C2999 1.366 . S
C2998 C3000 1.388 . S
C2999 C2998 1.366 . S
C2999 C3003 1.385 . S
C3000 H2981 0.951 . S
C3000 C2998 1.388 . S
C3000 C3001 1.366 . S
C3001 C3000 1.366 . S
C3001 C3002 1.414 . S
C3001 C3004 1.499 . S
C3002 H2982 0.950 . S
C3002 C3001 1.414 . S
C3002 C3003 1.374 . S
C3003 H2983 0.950 . S
C3003 C2999 1.385 . S
C3003 C3002 1.374 . S
C3004 C3001 1.499 . S
C3004 C3005 1.373 . S
C3004 C3006 1.389 . S
C3005 H2984 0.950 . S
C3005 C3004 1.373 . S
C3005 C3021 1.377 . S
C3006 C3004 1.389 . S
C3006 C3007 1.524 . S
C3006 C3020 1.377 . S
C3007 C3006 1.524 . S
C3007 C3008 1.397 . S
C3007 C3012 1.363 . S
C3008 H2985 0.950 . S
C3008 C3007 1.397 . S
C3008 C3009 1.334 . S
C3009 H2986 0.950 . S
C3009 C3008 1.334 . S
C3009 C3010 1.287 . S
C3010 C3009 1.287 . S
C3010 C3011 1.524 . S
C3010 H3029 0.913 . S
C3011 H2987 0.950 . S
C3011 C3010 1.524 . S
C3011 C3012 1.415 . S
C3012 H2988 0.950 . S
C3012 C3007 1.363 . S
C3012 C3011 1.415 . S
C3013 H2989 0.951 . S
C3013 C3014 1.366 . S
C3013 C3015 1.388 . S
C3014 C3013 1.366 . S
C3014 C3018 1.385 . S
C3015 H2990 0.951 . S
C3015 C3013 1.388 . S
C3015 C3016 1.366 . S
C3016 C3015 1.366 . S
C3016 C3017 1.414 . S
C3016 C3019 1.499 . S
C3017 H2991 0.950 . S
C3017 C3016 1.414 . S
C3017 C3018 1.374 . S
C3018 H2992 0.950 . S
C3018 C3014 1.385 . S
C3018 C3017 1.374 . S
C3019 C3016 1.499 . S
C3019 C3020 1.373 . S
C3019 C3021 1.389 . S
C3020 H2993 0.950 . S
C3020 C3006 1.377 . S
C3020 C3019 1.373 . S
C3021 C3005 1.377 . S
C3021 C3019 1.389 . S
C3021 C3022 1.524 . S
C3022 C3021 1.524 . S
C3022 C3023 1.397 . S
C3022 C3027 1.363 . S
C3023 H2994 0.950 . S
C3023 C3022 1.397 . S
C3023 C3024 1.334 . S
C3024 H2995 0.950 . S
C3024 C3023 1.334 . S
C3024 C3025 1.287 . S
C3025 C3024 1.287 . S
C3025 C3026 1.524 . S
C3025 H3028 0.999 . S
C3026 H2996 0.950 . S
C3026 C3025 1.524 . S
C3026 C3027 1.415 . S
C3027 H2997 0.950 . S
C3027 C3022 1.363 . S
C3027 C3026 1.415 . S
H3028 C3025 0.999 . S
H3029 C3010 0.913 . S
H3030 C3048 0.951 . S
H3031 C3050 0.951 . S
H3032 C3052 0.950 . S
H3033 C3053 0.950 . S
H3034 C3055 0.950 . S
H3035 C3058 0.950 . S
H3036 C3059 0.950 . S
H3037 C3061 0.950 . S
H3038 C3062 0.950 . S
H3039 C3063 0.951 . S
H3040 C3065 0.951 . S
H3041 C3067 0.950 . S
H3042 C3068 0.950 . S
H3043 C3070 0.950 . S
H3044 C3073 0.950 . S
H3045 C3074 0.950 . S
H3046 C3076 0.950 . S
H3047 C3077 0.950 . S
C3048 H3030 0.951 . S
C3048 C3049 1.366 . S
C3048 C3050 1.388 . S
C3049 C3048 1.366 . S
C3049 C3053 1.385 . S
C3050 H3031 0.951 . S
C3050 C3048 1.388 . S
C3050 C3051 1.366 . S
C3051 C3050 1.366 . S
C3051 C3052 1.414 . S
C3051 C3054 1.499 . S
C3052 H3032 0.950 . S
C3052 C3051 1.414 . S
C3052 C3053 1.374 . S
C3053 H3033 0.950 . S
C3053 C3049 1.385 . S
C3053 C3052 1.374 . S
C3054 C3051 1.499 . S
C3054 C3055 1.373 . S
C3054 C3056 1.389 . S
C3055 H3034 0.950 . S
C3055 C3054 1.373 . S
C3055 C3071 1.377 . S
C3056 C3054 1.389 . S
C3056 C3057 1.524 . S
C3056 C3070 1.377 . S
C3057 C3056 1.524 . S
C3057 C3058 1.397 . S
C3057 C3062 1.363 . S
C3058 H3035 0.950 . S
C3058 C3057 1.397 . S
C3058 C3059 1.334 . S
C3059 H3036 0.950 . S
C3059 C3058 1.334 . S
C3059 C3060 1.287 . S
C3060 C3059 1.287 . S
C3060 C3061 1.524 . S
C3060 H3079 0.913 . S
C3061 H3037 0.950 . S
C3061 C3060 1.524 . S
C3061 C3062 1.415 . S
C3062 H3038 0.950 . S
C3062 C3057 1.363 . S
C3062 C3061 1.415 . S
C3063 H3039 0.951 . S
C3063 C3064 1.366 . S
C3063 C3065 1.388 . S
C3064 C3063 1.366 . S
C3064 C3068 1.385 . S
C3065 H3040 0.951 . S
C3065 C3063 1.388 . S
C3065 C3066 1.366 . S
C3066 C3065 1.366 . S
C3066 C3067 1.414 . S
C3066 C3069 1.499 . S
C3067 H3041 0.950 . S
C3067 C3066 1.414 . S
C3067 C3068 1.374 . S
C3068 H3042 0.950 . S
C3068 C3064 1.385 . S
C3068 C3067 1.374 . S
C3069 C3066 1.499 . S
C3069 C3070 1.373 . S
C3069 C3071 1.389 . S
C3070 H3043 0.950 . S
C3070 C3056 1.377 . S
C3070 C3069 1.373 . S
C3071 C3055 1.377 . S
C3071 C3069 1.389 . S
C3071 C3072 1.524 . S
C3072 C3071 1.524 . S
C3072 C3073 1.397 . S
C3072 C3077 1.363 . S
C3073 H3044 0.950 . S
C3073 C3072 1.397 . S
C3073 C3074 1.334 . S
C3074 H3045 0.950 . S
C3074 C3073 1.334 . S
C3074 C3075 1.287 . S
C3075 C3074 1.287 . S
C3075 C3076 1.524 . S
C3075 H3078 0.999 . S
C3076 H3046 0.950 . S
C3076 C3075 1.524 . S
C3076 C3077 1.415 . S
C3077 H3047 0.950 . S
C3077 C3072 1.363 . S
C3077 C3076 1.415 . S
H3078 C3075 0.999 . S
H3079 C3060 0.913 . S
H3080 C3098 0.951 . S
H3081 C3100 0.951 . S
H3082 C3102 0.950 . S
H3083 C3103 0.950 . S
H3084 C3105 0.950 . S
H3085 C3108 0.950 . S
H3086 C3109 0.950 . S
H3087 C3111 0.950 . S
H3088 C3112 0.950 . S
H3089 C3113 0.951 . S
H3090 C3115 0.951 . S
H3091 C3117 0.950 . S
H3092 C3118 0.950 . S
H3093 C3120 0.950 . S
H3094 C3123 0.950 . S
H3095 C3124 0.950 . S
H3096 C3126 0.950 . S
H3097 C3127 0.950 . S
C3098 H3080 0.951 . S
C3098 C3099 1.366 . S
C3098 C3100 1.388 . S
C3099 C3098 1.366 . S
C3099 C3103 1.385 . S
C3100 H3081 0.951 . S
C3100 C3098 1.388 . S
C3100 C3101 1.366 . S
C3101 C3100 1.366 . S
C3101 C3102 1.414 . S
C3101 C3104 1.499 . S
C3102 H3082 0.950 . S
C3102 C3101 1.414 . S
C3102 C3103 1.374 . S
C3103 H3083 0.950 . S
C3103 C3099 1.385 . S
C3103 C3102 1.374 . S
C3104 C3101 1.499 . S
C3104 C3105 1.373 . S
C3104 C3106 1.389 . S
C3105 H3084 0.950 . S
C3105 C3104 1.373 . S
C3105 C3121 1.377 . S
C3106 C3104 1.389 . S
C3106 C3107 1.524 . S
C3106 C3120 1.377 . S
C3107 C3106 1.524 . S
C3107 C3108 1.397 . S
C3107 C3112 1.363 . S
C3108 H3085 0.950 . S
C3108 C3107 1.397 . S
C3108 C3109 1.334 . S
C3109 H3086 0.950 . S
C3109 C3108 1.334 . S
C3109 C3110 1.287 . S
C3110 C3109 1.287 . S
C3110 C3111 1.524 . S
C3110 H3129 0.913 . S
C3111 H3087 0.950 . S
C3111 C3110 1.524 . S
C3111 C3112 1.415 . S
C3112 H3088 0.950 . S
C3112 C3107 1.363 . S
C3112 C3111 1.415 . S
C3113 H3089 0.951 . S
C3113 C3114 1.366 . S
C3113 C3115 1.388 . S
C3114 C3113 1.366 . S
C3114 C3118 1.385 . S
C3115 H3090 0.951 . S
C3115 C3113 1.388 . S
C3115 C3116 1.366 . S
C3116 C3115 1.366 . S
C3116 C3117 1.414 . S
C3116 C3119 1.499 . S
C3117 H3091 0.950 . S
C3117 C3116 1.414 . S
C3117 C3118 1.374 . S
C3118 H3092 0.950 . S
C3118 C3114 1.385 . S
C3118 C3117 1.374 . S
C3119 C3116 1.499 . S
C3119 C3120 1.373 . S
C3119 C3121 1.389 . S
C3120 H3093 0.950 . S
C3120 C3106 1.377 . S
C3120 C3119 1.373 . S
C3121 C3105 1.377 . S
C3121 C3119 1.389 . S
C3121 C3122 1.524 . S
C3122 C3121 1.524 . S
C3122 C3123 1.397 . S
C3122 C3127 1.363 . S
C3123 H3094 0.950 . S
C3123 C3122 1.397 . S
C3123 C3124 1.334 . S
C3124 H3095 0.950 . S
C3124 C3123 1.334 . S
C3124 C3125 1.287 . S
C3125 C3124 1.287 . S
C3125 C3126 1.524 . S
C3125 H3128 0.999 . S
C3126 H3096 0.950 . S
C3126 C3125 1.524 . S
C3126 C3127 1.415 . S
C3127 H3097 0.950 . S
C3127 C3122 1.363 . S
C3127 C3126 1.415 . S
H3128 C3125 0.999 . S
H3129 C3110 0.913 . S
H3130 C3148 0.951 . S
H3131 C3150 0.951 . S
H3132 C3152 0.950 . S
H3133 C3153 0.950 . S
H3134 C3155 0.950 . S
H3135 C3158 0.950 . S
H3136 C3159 0.950 . S
H3137 C3161 0.950 . S
H3138 C3162 0.950 . S
H3139 C3163 0.951 . S
H3140 C3165 0.951 . S
H3141 C3167 0.950 . S
H3142 C3168 0.950 . S
H3143 C3170 0.950 . S
H3144 C3173 0.950 . S
H3145 C3174 0.950 . S
H3146 C3176 0.950 . S
H3147 C3177 0.950 . S
C3148 H3130 0.951 . S
C3148 C3149 1.366 . S
C3148 C3150 1.388 . S
C3149 C3148 1.366 . S
C3149 C3153 1.385 . S
C3150 H3131 0.951 . S
C3150 C3148 1.388 . S
C3150 C3151 1.366 . S
C3151 C3150 1.366 . S
C3151 C3152 1.414 . S
C3151 C3154 1.499 . S
C3152 H3132 0.950 . S
C3152 C3151 1.414 . S
C3152 C3153 1.374 . S
C3153 H3133 0.950 . S
C3153 C3149 1.385 . S
C3153 C3152 1.374 . S
C3154 C3151 1.499 . S
C3154 C3155 1.373 . S
C3154 C3156 1.389 . S
C3155 H3134 0.950 . S
C3155 C3154 1.373 . S
C3155 C3171 1.377 . S
C3156 C3154 1.389 . S
C3156 C3157 1.524 . S
C3156 C3170 1.377 . S
C3157 C3156 1.524 . S
C3157 C3158 1.397 . S
C3157 C3162 1.363 . S
C3158 H3135 0.950 . S
C3158 C3157 1.397 . S
C3158 C3159 1.334 . S
C3159 H3136 0.950 . S
C3159 C3158 1.334 . S
C3159 C3160 1.287 . S
C3160 C3159 1.287 . S
C3160 C3161 1.524 . S
C3160 H3179 0.913 . S
C3161 H3137 0.950 . S
C3161 C3160 1.524 . S
C3161 C3162 1.415 . S
C3162 H3138 0.950 . S
C3162 C3157 1.363 . S
C3162 C3161 1.415 . S
C3163 H3139 0.951 . S
C3163 C3164 1.366 . S
C3163 C3165 1.388 . S
C3164 C3163 1.366 . S
C3164 C3168 1.385 . S
C3165 H3140 0.951 . S
C3165 C3163 1.388 . S
C3165 C3166 1.366 . S
C3166 C3165 1.366 . S
C3166 C3167 1.414 . S
C3166 C3169 1.499 . S
C3167 H3141 0.950 . S
C3167 C3166 1.414 . S
C3167 C3168 1.374 . S
C3168 H3142 0.950 . S
C3168 C3164 1.385 . S
C3168 C3167 1.374 . S
C3169 C3166 1.499 . S
C3169 C3170 1.373 . S
C3169 C3171 1.389 . S
C3170 H3143 0.950 . S
C3170 C3156 1.377 . S
C3170 C3169 1.373 . S
C3171 C3155 1.377 . S
C3171 C3169 1.389 . S
C3171 C3172 1.524 . S
C3172 C3171 1.524 . S
C3172 C3173 1.397 . S
C3172 C3177 1.363 . S
C3173 H3144 0.950 . S
C3173 C3172 1.397 . S
C3173 C3174 1.334 . S
C3174 H3145 0.950 . S
C3174 C3173 1.334 . S
C3174 C3175 1.287 . S
C3175 C3174 1.287 . S
C3175 C3176 1.524 . S
C3175 H3178 0.999 . S
C3176 H3146 0.950 . S
C3176 C3175 1.524 . S
C3176 C3177 1.415 . S
C3177 H3147 0.950 . S
C3177 C3172 1.363 . S
C3177 C3176 1.415 . S
H3178 C3175 0.999 . S
H3179 C3160 0.913 . S
H3180 C3198 0.951 . S
H3181 C3200 0.951 . S
H3182 C3202 0.950 . S
H3183 C3203 0.950 . S
H3184 C3205 0.950 . S
H3185 C3208 0.950 . S
H3186 C3209 0.950 . S
H3187 C3211 0.950 . S
H3188 C3212 0.950 . S
H3189 C3213 0.951 . S
H3190 C3215 0.951 . S
H3191 C3217 0.950 . S
H3192 C3218 0.950 . S
H3193 C3220 0.950 . S
H3194 C3223 0.950 . S
H3195 C3224 0.950 . S
H3196 C3226 0.950 . S
H3197 C3227 0.950 . S
C3198 H3180 0.951 . S
C3198 C3199 1.366 . S
C3198 C3200 1.388 . S
C3199 C3198 1.366 . S
C3199 C3203 1.385 . S
C3200 H3181 0.951 . S
C3200 C3198 1.388 . S
C3200 C3201 1.366 . S
C3201 C3200 1.366 . S
C3201 C3202 1.414 . S
C3201 C3204 1.499 . S
C3202 H3182 0.950 . S
C3202 C3201 1.414 . S
C3202 C3203 1.374 . S
C3203 H3183 0.950 . S
C3203 C3199 1.385 . S
C3203 C3202 1.374 . S
C3204 C3201 1.499 . S
C3204 C3205 1.373 . S
C3204 C3206 1.389 . S
C3205 H3184 0.950 . S
C3205 C3204 1.373 . S
C3205 C3221 1.377 . S
C3206 C3204 1.389 . S
C3206 C3207 1.524 . S
C3206 C3220 1.377 . S
C3207 C3206 1.524 . S
C3207 C3208 1.397 . S
C3207 C3212 1.363 . S
C3208 H3185 0.950 . S
C3208 C3207 1.397 . S
C3208 C3209 1.334 . S
C3209 H3186 0.950 . S
C3209 C3208 1.334 . S
C3209 C3210 1.287 . S
C3210 C3209 1.287 . S
C3210 C3211 1.524 . S
C3210 H3229 0.913 . S
C3211 H3187 0.950 . S
C3211 C3210 1.524 . S
C3211 C3212 1.415 . S
C3212 H3188 0.950 . S
C3212 C3207 1.363 . S
C3212 C3211 1.415 . S
C3213 H3189 0.951 . S
C3213 C3214 1.366 . S
C3213 C3215 1.388 . S
C3214 C3213 1.366 . S
C3214 C3218 1.385 . S
C3215 H3190 0.951 . S
C3215 C3213 1.388 . S
C3215 C3216 1.366 . S
C3216 C3215 1.366 . S
C3216 C3217 1.414 . S
C3216 C3219 1.499 . S
C3217 H3191 0.950 . S
C3217 C3216 1.414 . S
C3217 C3218 1.374 . S
C3218 H3192 0.950 . S
C3218 C3214 1.385 . S
C3218 C3217 1.374 . S
C3219 C3216 1.499 . S
C3219 C3220 1.373 . S
C3219 C3221 1.389 . S
C3220 H3193 0.950 . S
C3220 C3206 1.377 . S
C3220 C3219 1.373 . S
C3221 C3205 1.377 . S
C3221 C3219 1.389 . S
C3221 C3222 1.524 . S
C3222 C3221 1.524 . S
C3222 C3223 1.397 . S
C3222 C3227 1.363 . S
C3223 H3194 0.950 . S
C3223 C3222 1.397 . S
C3223 C3224 1.334 . S
C3224 H3195 0.950 . S
C3224 C3223 1.334 . S
C3224 C3225 1.287 . S
C3225 C3224 1.287 . S
C3225 C3226 1.524 . S
C3225 H3228 0.999 . S
C3226 H3196 0.950 . S
C3226 C3225 1.524 . S
C3226 C3227 1.415 . S
C3227 H3197 0.950 . S
C3227 C3222 1.363 . S
C3227 C3226 1.415 . S
H3228 C3225 0.999 . S
H3229 C3210 0.913 . S
H3230 C3248 0.951 . S
H3231 C3250 0.951 . S
H3232 C3252 0.950 . S
H3233 C3253 0.950 . S
H3234 C3255 0.950 . S
H3235 C3258 0.950 . S
H3236 C3259 0.950 . S
H3237 C3261 0.950 . S
H3238 C3262 0.950 . S
H3239 C3263 0.951 . S
H3240 C3265 0.951 . S
H3241 C3267 0.950 . S
H3242 C3268 0.950 . S
H3243 C3270 0.950 . S
H3244 C3273 0.950 . S
H3245 C3274 0.950 . S
H3246 C3276 0.950 . S
H3247 C3277 0.950 . S
C3248 H3230 0.951 . S
C3248 C3249 1.366 . S
C3248 C3250 1.388 . S
C3249 C3248 1.366 . S
C3249 C3253 1.385 . S
C3250 H3231 0.951 . S
C3250 C3248 1.388 . S
C3250 C3251 1.366 . S
C3251 C3250 1.366 . S
C3251 C3252 1.414 . S
C3251 C3254 1.499 . S
C3252 H3232 0.950 . S
C3252 C3251 1.414 . S
C3252 C3253 1.374 . S
C3253 H3233 0.950 . S
C3253 C3249 1.385 . S
C3253 C3252 1.374 . S
C3254 C3251 1.499 . S
C3254 C3255 1.373 . S
C3254 C3256 1.389 . S
C3255 H3234 0.950 . S
C3255 C3254 1.373 . S
C3255 C3271 1.377 . S
C3256 C3254 1.389 . S
C3256 C3257 1.524 . S
C3256 C3270 1.377 . S
C3257 C3256 1.524 . S
C3257 C3258 1.397 . S
C3257 C3262 1.363 . S
C3258 H3235 0.950 . S
C3258 C3257 1.397 . S
C3258 C3259 1.334 . S
C3259 H3236 0.950 . S
C3259 C3258 1.334 . S
C3259 C3260 1.287 . S
C3260 C3259 1.287 . S
C3260 C3261 1.524 . S
C3260 H3279 0.913 . S
C3261 H3237 0.950 . S
C3261 C3260 1.524 . S
C3261 C3262 1.415 . S
C3262 H3238 0.950 . S
C3262 C3257 1.363 . S
C3262 C3261 1.415 . S
C3263 H3239 0.951 . S
C3263 C3264 1.366 . S
C3263 C3265 1.388 . S
C3264 C3263 1.366 . S
C3264 C3268 1.385 . S
C3265 H3240 0.951 . S
C3265 C3263 1.388 . S
C3265 C3266 1.366 . S
C3266 C3265 1.366 . S
C3266 C3267 1.414 . S
C3266 C3269 1.499 . S
C3267 H3241 0.950 . S
C3267 C3266 1.414 . S
C3267 C3268 1.374 . S
C3268 H3242 0.950 . S
C3268 C3264 1.385 . S
C3268 C3267 1.374 . S
C3269 C3266 1.499 . S
C3269 C3270 1.373 . S
C3269 C3271 1.389 . S
C3270 H3243 0.950 . S
C3270 C3256 1.377 . S
C3270 C3269 1.373 . S
C3271 C3255 1.377 . S
C3271 C3269 1.389 . S
C3271 C3272 1.524 . S
C3272 C3271 1.524 . S
C3272 C3273 1.397 . S
C3272 C3277 1.363 . S
C3273 H3244 0.950 . S
C3273 C3272 1.397 . S
C3273 C3274 1.334 . S
C3274 H3245 0.950 . S
C3274 C3273 1.334 . S
C3274 C3275 1.287 . S
C3275 C3274 1.287 . S
C3275 C3276 1.524 . S
C3275 H3278 0.999 . S
C3276 H3246 0.950 . S
C3276 C3275 1.524 . S
C3276 C3277 1.415 . S
C3277 H3247 0.950 . S
C3277 C3272 1.363 . S
C3277 C3276 1.415 . S
H3278 C3275 0.999 . S
H3279 C3260 0.913 . S
H3280 C3298 0.951 . S
H3281 C3300 0.951 . S
H3282 C3302 0.950 . S
H3283 C3303 0.950 . S
H3284 C3305 0.950 . S
H3285 C3308 0.950 . S
H3286 C3309 0.950 . S
H3287 C3311 0.950 . S
H3288 C3312 0.950 . S
H3289 C3313 0.951 . S
H3290 C3315 0.951 . S
H3291 C3317 0.950 . S
H3292 C3318 0.950 . S
H3293 C3320 0.950 . S
H3294 C3323 0.950 . S
H3295 C3324 0.950 . S
H3296 C3326 0.950 . S
H3297 C3327 0.950 . S
C3298 H3280 0.951 . S
C3298 C3299 1.366 . S
C3298 C3300 1.388 . S
C3299 C3298 1.366 . S
C3299 C3303 1.385 . S
C3300 H3281 0.951 . S
C3300 C3298 1.388 . S
C3300 C3301 1.366 . S
C3301 C3300 1.366 . S
C3301 C3302 1.414 . S
C3301 C3304 1.499 . S
C3302 H3282 0.950 . S
C3302 C3301 1.414 . S
C3302 C3303 1.374 . S
C3303 H3283 0.950 . S
C3303 C3299 1.385 . S
C3303 C3302 1.374 . S
C3304 C3301 1.499 . S
C3304 C3305 1.373 . S
C3304 C3306 1.389 . S
C3305 H3284 0.950 . S
C3305 C3304 1.373 . S
C3305 C3321 1.377 . S
C3306 C3304 1.389 . S
C3306 C3307 1.524 . S
C3306 C3320 1.377 . S
C3307 C3306 1.524 . S
C3307 C3308 1.397 . S
C3307 C3312 1.363 . S
C3308 H3285 0.950 . S
C3308 C3307 1.397 . S
C3308 C3309 1.334 . S
C3309 H3286 0.950 . S
C3309 C3308 1.334 . S
C3309 C3310 1.287 . S
C3310 C3309 1.287 . S
C3310 C3311 1.524 . S
C3310 H3329 0.913 . S
C3311 H3287 0.950 . S
C3311 C3310 1.524 . S
C3311 C3312 1.415 . S
C3312 H3288 0.950 . S
C3312 C3307 1.363 . S
C3312 C3311 1.415 . S
C3313 H3289 0.951 . S
C3313 C3314 1.366 . S
C3313 C3315 1.388 . S
C3314 C3313 1.366 . S
C3314 C3318 1.385 . S
C3315 H3290 0.951 . S
C3315 C3313 1.388 . S
C3315 C3316 1.366 . S
C3316 C3315 1.366 . S
C3316 C3317 1.414 . S
C3316 C3319 1.499 . S
C3317 H3291 0.950 . S
C3317 C3316 1.414 . S
C3317 C3318 1.374 . S
C3318 H3292 0.950 . S
C3318 C3314 1.385 . S
C3318 C3317 1.374 . S
C3319 C3316 1.499 . S
C3319 C3320 1.373 . S
C3319 C3321 1.389 . S
C3320 H3293 0.950 . S
C3320 C3306 1.377 . S
C3320 C3319 1.373 . S
C3321 C3305 1.377 . S
C3321 C3319 1.389 . S
C3321 C3322 1.524 . S
C3322 C3321 1.524 . S
C3322 C3323 1.397 . S
C3322 C3327 1.363 . S
C3323 H3294 0.950 . S
C3323 C3322 1.397 . S
C3323 C3324 1.334 . S
C3324 H3295 0.950 . S
C3324 C3323 1.334 . S
C3324 C3325 1.287 . S
C3325 C3324 1.287 . S
C3325 C3326 1.524 . S
C3325 H3328 0.999 . S
C3326 H3296 0.950 . S
C3326 C3325 1.524 . S
C3326 C3327 1.415 . S
C3327 H3297 0.950 . S
C3327 C3322 1.363 . S
C3327 C3326 1.415 . S
H3328 C3325 0.999 . S
H3329 C3310 0.913 . S
H3330 C3348 0.951 . S
H3331 C3350 0.951 . S
H3332 C3352 0.950 . S
H3333 C3353 0.950 . S
H3334 C3355 0.950 . S
H3335 C3358 0.950 . S
H3336 C3359 0.950 . S
H3337 C3361 0.950 . S
H3338 C3362 0.950 . S
H3339 C3363 0.951 . S
H3340 C3365 0.951 . S
H3341 C3367 0.950 . S
H3342 C3368 0.950 . S
H3343 C3370 0.950 . S
H3344 C3373 0.950 . S
H3345 C3374 0.950 . S
H3346 C3376 0.950 . S
H3347 C3377 0.950 . S
C3348 H3330 0.951 . S
C3348 C3349 1.366 . S
C3348 C3350 1.388 . S
C3349 C3348 1.366 . S
C3349 C3353 1.385 . S
C3350 H3331 0.951 . S
C3350 C3348 1.388 . S
C3350 C3351 1.366 . S
C3351 C3350 1.366 . S
C3351 C3352 1.414 . S
C3351 C3354 1.499 . S
C3352 H3332 0.950 . S
C3352 C3351 1.414 . S
C3352 C3353 1.374 . S
C3353 H3333 0.950 . S
C3353 C3349 1.385 . S
C3353 C3352 1.374 . S
C3354 C3351 1.499 . S
C3354 C3355 1.373 . S
C3354 C3356 1.389 . S
C3355 H3334 0.950 . S
C3355 C3354 1.373 . S
C3355 C3371 1.377 . S
C3356 C3354 1.389 . S
C3356 C3357 1.524 . S
C3356 C3370 1.377 . S
C3357 C3356 1.524 . S
C3357 C3358 1.397 . S
C3357 C3362 1.363 . S
C3358 H3335 0.950 . S
C3358 C3357 1.397 . S
C3358 C3359 1.334 . S
C3359 H3336 0.950 . S
C3359 C3358 1.334 . S
C3359 C3360 1.287 . S
C3360 C3359 1.287 . S
C3360 C3361 1.524 . S
C3360 H3379 0.913 . S
C3361 H3337 0.950 . S
C3361 C3360 1.524 . S
C3361 C3362 1.415 . S
C3362 H3338 0.950 . S
C3362 C3357 1.363 . S
C3362 C3361 1.415 . S
C3363 H3339 0.951 . S
C3363 C3364 1.366 . S
C3363 C3365 1.388 . S
C3364 C3363 1.366 . S
C3364 C3368 1.385 . S
C3365 H3340 0.951 . S
C3365 C3363 1.388 . S
C3365 C3366 1.366 . S
C3366 C3365 1.366 . S
C3366 C3367 1.414 . S
C3366 C3369 1.499 . S
C3367 H3341 0.950 . S
C3367 C3366 1.414 . S
C3367 C3368 1.374 . S
C3368 H3342 0.950 . S
C3368 C3364 1.385 . S
C3368 C3367 1.374 . S
C3369 C3366 1.499 . S
C3369 C3370 1.373 . S
C3369 C3371 1.389 . S
C3370 H3343 0.950 . S
C3370 C3356 1.377 . S
C3370 C3369 1.373 . S
C3371 C3355 1.377 . S
C3371 C3369 1.389 . S
C3371 C3372 1.524 . S
C3372 C3371 1.524 . S
C3372 C3373 1.397 . S
C3372 C3377 1.363 . S
C3373 H3344 0.950 . S
C3373 C3372 1.397 . S
C3373 C3374 1.334 . S
C3374 H3345 0.950 . S
C3374 C3373 1.334 . S
C3374 C3375 1.287 . S
C3375 C3374 1.287 . S
C3375 C3376 1.524 . S
C3375 H3378 0.999 . S
C3376 H3346 0.950 . S
C3376 C3375 1.524 . S
C3376 C3377 1.415 . S
C3377 H3347 0.950 . S
C3377 C3372 1.363 . S
C3377 C3376 1.415 . S
H3378 C3375 0.999 . S
H3379 C3360 0.913 . S
H3380 C3398 0.951 . S
H3381 C3400 0.951 . S
H3382 C3402 0.950 . S
H3383 C3403 0.950 . S
H3384 C3405 0.950 . S
H3385 C3408 0.950 . S
H3386 C3409 0.950 . S
H3387 C3411 0.950 . S
H3388 C3412 0.950 . S
H3389 C3413 0.951 . S
H3390 C3415 0.951 . S
H3391 C3417 0.950 . S
H3392 C3418 0.950 . S
H3393 C3420 0.950 . S
H3394 C3423 0.950 . S
H3395 C3424 0.950 . S
H3396 C3426 0.950 . S
H3397 C3427 0.950 . S
C3398 H3380 0.951 . S
C3398 C3399 1.366 . S
C3398 C3400 1.388 . S
C3399 C3398 1.366 . S
C3399 C3403 1.385 . S
C3400 H3381 0.951 . S
C3400 C3398 1.388 . S
C3400 C3401 1.366 . S
C3401 C3400 1.366 . S
C3401 C3402 1.414 . S
C3401 C3404 1.499 . S
C3402 H3382 0.950 . S
C3402 C3401 1.414 . S
C3402 C3403 1.374 . S
C3403 H3383 0.950 . S
C3403 C3399 1.385 . S
C3403 C3402 1.374 . S
C3404 C3401 1.499 . S
C3404 C3405 1.373 . S
C3404 C3406 1.389 . S
C3405 H3384 0.950 . S
C3405 C3404 1.373 . S
C3405 C3421 1.377 . S
C3406 C3404 1.389 . S
C3406 C3407 1.524 . S
C3406 C3420 1.377 . S
C3407 C3406 1.524 . S
C3407 C3408 1.397 . S
C3407 C3412 1.363 . S
C3408 H3385 0.950 . S
C3408 C3407 1.397 . S
C3408 C3409 1.334 . S
C3409 H3386 0.950 . S
C3409 C3408 1.334 . S
C3409 C3410 1.287 . S
C3410 C3409 1.287 . S
C3410 C3411 1.524 . S
C3410 H3429 0.913 . S
C3411 H3387 0.950 . S
C3411 C3410 1.524 . S
C3411 C3412 1.415 . S
C3412 H3388 0.950 . S
C3412 C3407 1.363 . S
C3412 C3411 1.415 . S
C3413 H3389 0.951 . S
C3413 C3414 1.366 . S
C3413 C3415 1.388 . S
C3414 C3413 1.366 . S
C3414 C3418 1.385 . S
C3415 H3390 0.951 . S
C3415 C3413 1.388 . S
C3415 C3416 1.366 . S
C3416 C3415 1.366 . S
C3416 C3417 1.414 . S
C3416 C3419 1.499 . S
C3417 H3391 0.950 . S
C3417 C3416 1.414 . S
C3417 C3418 1.374 . S
C3418 H3392 0.950 . S
C3418 C3414 1.385 . S
C3418 C3417 1.374 . S
C3419 C3416 1.499 . S
C3419 C3420 1.373 . S
C3419 C3421 1.389 . S
C3420 H3393 0.950 . S
C3420 C3406 1.377 . S
C3420 C3419 1.373 . S
C3421 C3405 1.377 . S
C3421 C3419 1.389 . S
C3421 C3422 1.524 . S
C3422 C3421 1.524 . S
C3422 C3423 1.397 . S
C3422 C3427 1.363 . S
C3423 H3394 0.950 . S
C3423 C3422 1.397 . S
C3423 C3424 1.334 . S
C3424 H3395 0.950 . S
C3424 C3423 1.334 . S
C3424 C3425 1.287 . S
C3425 C3424 1.287 . S
C3425 C3426 1.524 . S
C3425 H3428 0.999 . S
C3426 H3396 0.950 . S
C3426 C3425 1.524 . S
C3426 C3427 1.415 . S
C3427 H3397 0.950 . S
C3427 C3422 1.363 . S
C3427 C3426 1.415 . S
H3428 C3425 0.999 . S
H3429 C3410 0.913 . S
H3430 C3448 0.951 . S
H3431 C3450 0.951 . S
H3432 C3452 0.950 . S
H3433 C3453 0.950 . S
H3434 C3455 0.950 . S
H3435 C3458 0.950 . S
H3436 C3459 0.950 . S
H3437 C3461 0.950 . S
H3438 C3462 0.950 . S
H3439 C3463 0.951 . S
H3440 C3465 0.951 . S
H3441 C3467 0.950 . S
H3442 C3468 0.950 . S
H3443 C3470 0.950 . S
H3444 C3473 0.950 . S
H3445 C3474 0.950 . S
H3446 C3476 0.950 . S
H3447 C3477 0.950 . S
C3448 H3430 0.951 . S
C3448 C3449 1.366 . S
C3448 C3450 1.388 . S
C3449 C3448 1.366 . S
C3449 C3453 1.385 . S
C3450 H3431 0.951 . S
C3450 C3448 1.388 . S
C3450 C3451 1.366 . S
C3451 C3450 1.366 . S
C3451 C3452 1.414 . S
C3451 C3454 1.499 . S
C3452 H3432 0.950 . S
C3452 C3451 1.414 . S
C3452 C3453 1.374 . S
C3453 H3433 0.950 . S
C3453 C3449 1.385 . S
C3453 C3452 1.374 . S
C3454 C3451 1.499 . S
C3454 C3455 1.373 . S
C3454 C3456 1.389 . S
C3455 H3434 0.950 . S
C3455 C3454 1.373 . S
C3455 C3471 1.377 . S
C3456 C3454 1.389 . S
C3456 C3457 1.524 . S
C3456 C3470 1.377 . S
C3457 C3456 1.524 . S
C3457 C3458 1.397 . S
C3457 C3462 1.363 . S
C3458 H3435 0.950 . S
C3458 C3457 1.397 . S
C3458 C3459 1.334 . S
C3459 H3436 0.950 . S
C3459 C3458 1.334 . S
C3459 C3460 1.287 . S
C3460 C3459 1.287 . S
C3460 C3461 1.524 . S
C3460 H3479 0.913 . S
C3461 H3437 0.950 . S
C3461 C3460 1.524 . S
C3461 C3462 1.415 . S
C3462 H3438 0.950 . S
C3462 C3457 1.363 . S
C3462 C3461 1.415 . S
C3463 H3439 0.951 . S
C3463 C3464 1.366 . S
C3463 C3465 1.388 . S
C3464 C3463 1.366 . S
C3464 C3468 1.385 . S
C3465 H3440 0.951 . S
C3465 C3463 1.388 . S
C3465 C3466 1.366 . S
C3466 C3465 1.366 . S
C3466 C3467 1.414 . S
C3466 C3469 1.499 . S
C3467 H3441 0.950 . S
C3467 C3466 1.414 . S
C3467 C3468 1.374 . S
C3468 H3442 0.950 . S
C3468 C3464 1.385 . S
C3468 C3467 1.374 . S
C3469 C3466 1.499 . S
C3469 C3470 1.373 . S
C3469 C3471 1.389 . S
C3470 H3443 0.950 . S
C3470 C3456 1.377 . S
C3470 C3469 1.373 . S
C3471 C3455 1.377 . S
C3471 C3469 1.389 . S
C3471 C3472 1.524 . S
C3472 C3471 1.524 . S
C3472 C3473 1.397 . S
C3472 C3477 1.363 . S
C3473 H3444 0.950 . S
C3473 C3472 1.397 . S
C3473 C3474 1.334 . S
C3474 H3445 0.950 . S
C3474 C3473 1.334 . S
C3474 C3475 1.287 . S
C3475 C3474 1.287 . S
C3475 C3476 1.524 . S
C3475 H3478 0.999 . S
C3476 H3446 0.950 . S
C3476 C3475 1.524 . S
C3476 C3477 1.415 . S
C3477 H3447 0.950 . S
C3477 C3472 1.363 . S
C3477 C3476 1.415 . S
H3478 C3475 0.999 . S
H3479 C3460 0.913 . S
H3480 C3498 0.951 . S
H3481 C3500 0.951 . S
H3482 C3502 0.950 . S
H3483 C3503 0.950 . S
H3484 C3505 0.950 . S
H3485 C3508 0.950 . S
H3486 C3509 0.950 . S
H3487 C3511 0.950 1_554 S
H3488 C3512 0.950 . S
H3489 C3513 0.951 . S
H3490 C3515 0.951 . S
H3491 C3517 0.952 1_554 S
H3492 C3518 0.950 . S
H3493 C3520 0.950 . S
H3494 C3523 0.950 . S
H3495 C3524 0.950 . S
H3496 C3526 0.950 . S
H3497 C3527 0.950 . S
C3498 H3480 0.951 . S
C3498 C3499 1.366 . S
C3498 C3500 1.388 . S
C3499 C3498 1.366 . S
C3499 C3503 1.385 . S
C3500 H3481 0.951 . S
C3500 C3498 1.388 . S
C3500 C3501 1.366 . S
C3501 C3500 1.366 . S
C3501 C3502 1.414 . S
C3501 C3504 1.499 . S
C3502 H3482 0.950 . S
C3502 C3501 1.414 . S
C3502 C3503 1.374 . S
C3503 H3483 0.950 . S
C3503 C3499 1.385 . S
C3503 C3502 1.374 . S
C3504 C3501 1.499 . S
C3504 C3505 1.373 . S
C3504 C3506 1.389 . S
C3505 H3484 0.950 . S
C3505 C3504 1.373 . S
C3505 C3521 1.377 . S
C3506 C3504 1.389 . S
C3506 C3507 1.524 . S
C3506 C3520 1.377 . S
C3507 C3506 1.524 . S
C3507 C3508 1.397 . S
C3507 C3512 1.363 . S
C3508 H3485 0.950 . S
C3508 C3507 1.397 . S
C3508 C3509 1.334 . S
C3509 H3486 0.950 . S
C3509 C3508 1.334 . S
C3509 C3510 1.287 . S
C3510 C3509 1.287 . S
C3510 C3511 1.524 . S
C3510 H3529 0.913 . S
C3511 H3487 0.950 1_556 S
C3511 C3510 1.524 . S
C3511 C3512 1.415 . S
C3512 H3488 0.950 . S
C3512 C3507 1.363 . S
C3512 C3511 1.415 . S
C3513 H3489 0.951 . S
C3513 C3514 1.366 1_556 S
C3513 C3515 1.388 . S
C3514 C3513 1.366 1_554 S
C3514 C3518 1.385 . S
C3515 H3490 0.951 . S
C3515 C3513 1.388 . S
C3515 C3516 1.366 . S
C3516 C3515 1.366 . S
C3516 C3517 1.411 . S
C3516 C3519 1.499 . S
C3517 H3491 0.952 1_556 S
C3517 C3516 1.411 . S
C3517 C3518 1.375 1_556 S
C3518 H3492 0.950 . S
C3518 C3514 1.385 . S
C3518 C3517 1.375 1_554 S
C3519 C3516 1.499 . S
C3519 C3520 1.373 . S
C3519 C3521 1.389 . S
C3520 H3493 0.950 . S
C3520 C3506 1.377 . S
C3520 C3519 1.373 . S
C3521 C3505 1.377 . S
C3521 C3519 1.389 . S
C3521 C3522 1.524 . S
C3522 C3521 1.524 . S
C3522 C3523 1.397 . S
C3522 C3527 1.363 . S
C3523 H3494 0.950 . S
C3523 C3522 1.397 . S
C3523 C3524 1.334 . S
C3524 H3495 0.950 . S
C3524 C3523 1.334 . S
C3524 C3525 1.287 . S
C3525 C3524 1.287 . S
C3525 C3526 1.524 . S
C3525 H3528 0.999 . S
C3526 H3496 0.950 . S
C3526 C3525 1.524 . S
C3526 C3527 1.415 . S
C3527 H3497 0.950 . S
C3527 C3522 1.363 . S
C3527 C3526 1.415 . S
H3528 C3525 0.999 . S
H3529 C3510 0.913 . S
H3530 C3548 0.951 . S
H3531 C3550 0.951 . S
H3532 C3552 0.950 . S
H3533 C3553 0.950 . S
H3534 C3555 0.950 . S
H3535 C3558 0.950 . S
H3536 C3559 0.950 . S
H3537 C3561 0.950 . S
H3538 C3562 0.950 . S
H3539 C3563 0.951 . S
H3540 C3565 0.951 . S
H3541 C3567 0.950 . S
H3542 C3568 0.950 . S
H3543 C3570 0.950 . S
H3544 C3573 0.950 . S
H3545 C3574 0.950 . S
H3546 C3576 0.950 . S
H3547 C3577 0.950 . S
C3548 H3530 0.951 . S
C3548 C3549 1.366 . S
C3548 C3550 1.388 1_455 S
C3549 C3548 1.366 . S
C3549 C3553 1.385 1_455 S
C3550 H3531 0.951 . S
C3550 C3548 1.388 1_655 S
C3550 C3551 1.366 . S
C3551 C3550 1.366 . S
C3551 C3552 1.414 . S
C3551 C3554 1.499 . S
C3552 H3532 0.950 . S
C3552 C3551 1.414 . S
C3552 C3553 1.374 . S
C3553 H3533 0.950 . S
C3553 C3549 1.385 1_655 S
C3553 C3552 1.374 . S
C3554 C3551 1.499 . S
C3554 C3555 1.373 . S
C3554 C3556 1.389 . S
C3555 H3534 0.950 . S
C3555 C3554 1.373 . S
C3555 C3571 1.377 . S
C3556 C3554 1.389 . S
C3556 C3557 1.524 . S
C3556 C3570 1.377 . S
C3557 C3556 1.524 . S
C3557 C3558 1.397 . S
C3557 C3562 1.363 . S
C3558 H3535 0.950 . S
C3558 C3557 1.397 . S
C3558 C3559 1.334 . S
C3559 H3536 0.950 . S
C3559 C3558 1.334 . S
C3559 C3560 1.287 . S
C3560 C3559 1.287 . S
C3560 C3561 1.524 . S
C3560 H3579 0.913 . S
C3561 H3537 0.950 . S
C3561 C3560 1.524 . S
C3561 C3562 1.415 . S
C3562 H3538 0.950 . S
C3562 C3557 1.363 . S
C3562 C3561 1.415 . S
C3563 H3539 0.951 . S
C3563 C3564 1.366 . S
C3563 C3565 1.388 . S
C3564 C3563 1.366 . S
C3564 C3568 1.385 . S
C3565 H3540 0.951 . S
C3565 C3563 1.388 . S
C3565 C3566 1.366 . S
C3566 C3565 1.366 . S
C3566 C3567 1.414 . S
C3566 C3569 1.499 . S
C3567 H3541 0.950 . S
C3567 C3566 1.414 . S
C3567 C3568 1.374 . S
C3568 H3542 0.950 . S
C3568 C3564 1.385 . S
C3568 C3567 1.374 . S
C3569 C3566 1.499 . S
C3569 C3570 1.373 . S
C3569 C3571 1.389 . S
C3570 H3543 0.950 . S
C3570 C3556 1.377 . S
C3570 C3569 1.373 . S
C3571 C3555 1.377 . S
C3571 C3569 1.389 . S
C3571 C3572 1.524 . S
C3572 C3571 1.524 . S
C3572 C3573 1.397 . S
C3572 C3577 1.363 . S
C3573 H3544 0.950 . S
C3573 C3572 1.397 . S
C3573 C3574 1.334 . S
C3574 H3545 0.950 . S
C3574 C3573 1.334 . S
C3574 C3575 1.287 . S
C3575 C3574 1.287 . S
C3575 C3576 1.524 . S
C3575 H3578 0.999 . S
C3576 H3546 0.950 . S
C3576 C3575 1.524 . S
C3576 C3577 1.415 . S
C3577 H3547 0.950 . S
C3577 C3572 1.363 . S
C3577 C3576 1.415 . S
H3578 C3575 0.999 . S
H3579 C3560 0.913 . S
H3580 C3598 0.951 . S
H3581 C3600 0.951 . S
H3582 C3602 0.950 . S
H3583 C3603 0.950 . S
H3584 C3605 0.950 . S
H3585 C3608 0.950 . S
H3586 C3609 0.950 . S
H3587 C3611 0.950 . S
H3588 C3612 0.950 . S
H3589 C3613 0.951 . S
H3590 C3615 0.951 . S
H3591 C3617 0.950 . S
H3592 C3618 0.950 . S
H3593 C3620 0.950 . S
H3594 C3623 0.950 . S
H3595 C3624 0.950 . S
H3596 C3626 0.950 . S
H3597 C3627 0.940 1_455 S
C3598 H3580 0.951 . S
C3598 C3599 1.366 . S
C3598 C3600 1.388 . S
C3599 C3598 1.366 . S
C3599 C3603 1.385 . S
C3600 H3581 0.951 . S
C3600 C3598 1.388 . S
C3600 C3601 1.366 . S
C3601 C3600 1.366 . S
C3601 C3602 1.414 . S
C3601 C3604 1.499 . S
C3602 H3582 0.950 . S
C3602 C3601 1.414 . S
C3602 C3603 1.374 . S
C3603 H3583 0.950 . S
C3603 C3599 1.385 . S
C3603 C3602 1.374 . S
C3604 C3601 1.499 . S
C3604 C3605 1.373 . S
C3604 C3606 1.389 . S
C3605 H3584 0.950 . S
C3605 C3604 1.373 . S
C3605 C3621 1.377 . S
C3606 C3604 1.389 . S
C3606 C3607 1.524 . S
C3606 C3620 1.377 . S
C3607 C3606 1.524 . S
C3607 C3608 1.397 . S
C3607 C3612 1.363 . S
C3608 H3585 0.950 . S
C3608 C3607 1.397 . S
C3608 C3609 1.334 . S
C3609 H3586 0.950 . S
C3609 C3608 1.334 . S
C3609 C3610 1.287 . S
C3610 C3609 1.287 . S
C3610 C3611 1.524 . S
C3610 H3629 0.913 . S
C3611 H3587 0.950 . S
C3611 C3610 1.524 . S
C3611 C3612 1.415 . S
C3612 H3588 0.950 . S
C3612 C3607 1.363 . S
C3612 C3611 1.415 . S
C3613 H3589 0.951 . S
C3613 C3614 1.366 . S
C3613 C3615 1.388 . S
C3614 C3613 1.366 . S
C3614 C3618 1.385 . S
C3615 H3590 0.951 . S
C3615 C3613 1.388 . S
C3615 C3616 1.366 . S
C3616 C3615 1.366 . S
C3616 C3617 1.414 . S
C3616 C3619 1.499 . S
C3617 H3591 0.950 . S
C3617 C3616 1.414 . S
C3617 C3618 1.374 . S
C3618 H3592 0.950 . S
C3618 C3614 1.385 . S
C3618 C3617 1.374 . S
C3619 C3616 1.499 . S
C3619 C3620 1.373 . S
C3619 C3621 1.389 . S
C3620 H3593 0.950 . S
C3620 C3606 1.377 . S
C3620 C3619 1.373 . S
C3621 C3605 1.377 . S
C3621 C3619 1.389 . S
C3621 C3622 1.524 1_455 S
C3622 C3621 1.524 1_655 S
C3622 C3623 1.397 . S
C3622 C3627 1.363 . S
C3623 H3594 0.950 . S
C3623 C3622 1.397 . S
C3623 C3624 1.334 . S
C3624 H3595 0.950 . S
C3624 C3623 1.334 . S
C3624 C3625 1.287 . S
C3625 C3624 1.287 . S
C3625 C3626 1.524 . S
C3625 H3628 0.999 . S
C3626 H3596 0.950 . S
C3626 C3625 1.524 . S
C3626 C3627 1.415 . S
C3627 H3597 0.940 1_655 S
C3627 C3622 1.363 . S
C3627 C3626 1.415 . S
H3628 C3625 0.999 . S
H3629 C3610 0.913 . S
H3630 C3648 0.951 . S
H3631 C3650 0.951 . S
H3632 C3652 0.950 . S
H3633 C3653 0.950 . S
H3634 C3655 0.950 . S
H3635 C3658 0.950 . S
H3636 C3659 0.950 . S
H3637 C3661 0.950 . S
H3638 C3662 0.950 . S
H3639 C3663 0.951 . S
H3640 C3665 0.951 . S
H3641 C3667 0.950 . S
H3642 C3668 0.950 . S
H3643 C3670 0.950 . S
H3644 C3673 0.950 . S
H3645 C3674 0.950 . S
H3646 C3676 0.950 . S
H3647 C3677 0.950 . S
C3648 H3630 0.951 . S
C3648 C3649 1.366 . S
C3648 C3650 1.388 . S
C3649 C3648 1.366 . S
C3649 C3653 1.385 . S
C3650 H3631 0.951 . S
C3650 C3648 1.388 . S
C3650 C3651 1.366 . S
C3651 C3650 1.366 . S
C3651 C3652 1.414 . S
C3651 C3654 1.499 . S
C3652 H3632 0.950 . S
C3652 C3651 1.414 . S
C3652 C3653 1.374 . S
C3653 H3633 0.950 . S
C3653 C3649 1.385 . S
C3653 C3652 1.374 . S
C3654 C3651 1.499 . S
C3654 C3655 1.373 . S
C3654 C3656 1.389 . S
C3655 H3634 0.950 . S
C3655 C3654 1.373 . S
C3655 C3671 1.377 . S
C3656 C3654 1.389 . S
C3656 C3657 1.524 . S
C3656 C3670 1.377 . S
C3657 C3656 1.524 . S
C3657 C3658 1.397 . S
C3657 C3662 1.363 . S
C3658 H3635 0.950 . S
C3658 C3657 1.397 . S
C3658 C3659 1.334 . S
C3659 H3636 0.950 . S
C3659 C3658 1.334 . S
C3659 C3660 1.287 . S
C3660 C3659 1.287 . S
C3660 C3661 1.524 . S
C3660 H3679 0.913 . S
C3661 H3637 0.950 . S
C3661 C3660 1.524 . S
C3661 C3662 1.415 . S
C3662 H3638 0.950 . S
C3662 C3657 1.363 . S
C3662 C3661 1.415 . S
C3663 H3639 0.951 . S
C3663 C3664 1.366 . S
C3663 C3665 1.388 . S
C3664 C3663 1.366 . S
C3664 C3668 1.385 . S
C3665 H3640 0.951 . S
C3665 C3663 1.388 . S
C3665 C3666 1.366 . S
C3666 C3665 1.366 . S
C3666 C3667 1.414 . S
C3666 C3669 1.499 . S
C3667 H3641 0.950 . S
C3667 C3666 1.414 . S
C3667 C3668 1.374 . S
C3668 H3642 0.950 . S
C3668 C3664 1.385 . S
C3668 C3667 1.374 . S
C3669 C3666 1.499 . S
C3669 C3670 1.373 . S
C3669 C3671 1.389 . S
C3670 H3643 0.950 . S
C3670 C3656 1.377 . S
C3670 C3669 1.373 . S
C3671 C3655 1.377 . S
C3671 C3669 1.389 . S
C3671 C3672 1.524 . S
C3672 C3671 1.524 . S
C3672 C3673 1.397 . S
C3672 C3677 1.363 . S
C3673 H3644 0.950 . S
C3673 C3672 1.397 . S
C3673 C3674 1.334 . S
C3674 H3645 0.950 . S
C3674 C3673 1.334 . S
C3674 C3675 1.287 . S
C3675 C3674 1.287 . S
C3675 C3676 1.524 . S
C3675 H3678 0.999 . S
C3676 H3646 0.950 . S
C3676 C3675 1.524 . S
C3676 C3677 1.415 . S
C3677 H3647 0.950 . S
C3677 C3672 1.363 . S
C3677 C3676 1.415 . S
H3678 C3675 0.999 . S
H3679 C3660 0.913 . S
H3680 C3698 0.951 . S
H3681 C3700 0.951 . S
H3682 C3702 0.950 . S
H3683 C3703 0.950 . S
H3684 C3705 0.950 . S
H3685 C3708 0.950 . S
H3686 C3709 0.950 . S
H3687 C3711 0.950 . S
H3688 C3712 0.950 . S
H3689 C3713 0.951 . S
H3690 C3715 0.951 . S
H3691 C3717 0.950 . S
H3692 C3718 0.950 . S
H3693 C3720 0.950 . S
H3694 C3723 0.950 . S
H3695 C3724 0.950 . S
H3696 C3726 0.950 . S
H3697 C3727 0.950 . S
C3698 H3680 0.951 . S
C3698 C3699 1.366 . S
C3698 C3700 1.388 . S
C3699 C3698 1.366 . S
C3699 C3703 1.385 . S
C3700 H3681 0.951 . S
C3700 C3698 1.388 . S
C3700 C3701 1.366 . S
C3701 C3700 1.366 . S
C3701 C3702 1.414 . S
C3701 C3704 1.499 . S
C3702 H3682 0.950 . S
C3702 C3701 1.414 . S
C3702 C3703 1.374 . S
C3703 H3683 0.950 . S
C3703 C3699 1.385 . S
C3703 C3702 1.374 . S
C3704 C3701 1.499 . S
C3704 C3705 1.373 . S
C3704 C3706 1.389 . S
C3705 H3684 0.950 . S
C3705 C3704 1.373 . S
C3705 C3721 1.377 . S
C3706 C3704 1.389 . S
C3706 C3707 1.524 . S
C3706 C3720 1.377 . S
C3707 C3706 1.524 . S
C3707 C3708 1.397 . S
C3707 C3712 1.363 . S
C3708 H3685 0.950 . S
C3708 C3707 1.397 . S
C3708 C3709 1.334 . S
C3709 H3686 0.950 . S
C3709 C3708 1.334 . S
C3709 C3710 1.287 . S
C3710 C3709 1.287 . S
C3710 C3711 1.524 . S
C3710 H3729 0.913 . S
C3711 H3687 0.950 . S
C3711 C3710 1.524 . S
C3711 C3712 1.415 . S
C3712 H3688 0.950 . S
C3712 C3707 1.363 . S
C3712 C3711 1.415 . S
C3713 H3689 0.951 . S
C3713 C3714 1.366 . S
C3713 C3715 1.388 . S
C3714 C3713 1.366 . S
C3714 C3718 1.385 . S
C3715 H3690 0.951 . S
C3715 C3713 1.388 . S
C3715 C3716 1.366 . S
C3716 C3715 1.366 . S
C3716 C3717 1.414 . S
C3716 C3719 1.499 . S
C3717 H3691 0.950 . S
C3717 C3716 1.414 . S
C3717 C3718 1.374 . S
C3718 H3692 0.950 . S
C3718 C3714 1.385 . S
C3718 C3717 1.374 . S
C3719 C3716 1.499 . S
C3719 C3720 1.373 . S
C3719 C3721 1.389 . S
C3720 H3693 0.950 . S
C3720 C3706 1.377 . S
C3720 C3719 1.373 . S
C3721 C3705 1.377 . S
C3721 C3719 1.389 . S
C3721 C3722 1.524 . S
C3722 C3721 1.524 . S
C3722 C3723 1.397 . S
C3722 C3727 1.363 . S
C3723 H3694 0.950 . S
C3723 C3722 1.397 . S
C3723 C3724 1.334 . S
C3724 H3695 0.950 . S
C3724 C3723 1.334 . S
C3724 C3725 1.287 . S
C3725 C3724 1.287 . S
C3725 C3726 1.524 . S
C3725 H3728 0.999 . S
C3726 H3696 0.950 . S
C3726 C3725 1.524 . S
C3726 C3727 1.415 . S
C3727 H3697 0.950 . S
C3727 C3722 1.363 . S
C3727 C3726 1.415 . S
H3728 C3725 0.999 . S
H3729 C3710 0.913 . S
H3730 C3748 0.951 . S
H3731 C3750 0.951 . S
H3732 C3752 0.950 . S
H3733 C3753 0.950 . S
H3734 C3755 0.950 . S
H3735 C3758 0.950 . S
H3736 C3759 0.950 . S
H3737 C3761 0.950 . S
H3738 C3762 0.950 . S
H3739 C3763 0.951 . S
H3740 C3765 0.951 . S
H3741 C3767 0.950 . S
H3742 C3768 0.950 . S
H3743 C3770 0.950 . S
H3744 C3773 0.950 . S
H3745 C3774 0.950 . S
H3746 C3776 0.950 . S
H3747 C3777 0.950 . S
C3748 H3730 0.951 . S
C3748 C3749 1.366 . S
C3748 C3750 1.388 . S
C3749 C3748 1.366 . S
C3749 C3753 1.385 . S
C3750 H3731 0.951 . S
C3750 C3748 1.388 . S
C3750 C3751 1.366 . S
C3751 C3750 1.366 . S
C3751 C3752 1.414 . S
C3751 C3754 1.499 . S
C3752 H3732 0.950 . S
C3752 C3751 1.414 . S
C3752 C3753 1.374 . S
C3753 H3733 0.950 . S
C3753 C3749 1.385 . S
C3753 C3752 1.374 . S
C3754 C3751 1.499 . S
C3754 C3755 1.373 . S
C3754 C3756 1.389 . S
C3755 H3734 0.950 . S
C3755 C3754 1.373 . S
C3755 C3771 1.377 . S
C3756 C3754 1.389 . S
C3756 C3757 1.524 . S
C3756 C3770 1.377 . S
C3757 C3756 1.524 . S
C3757 C3758 1.397 . S
C3757 C3762 1.363 . S
C3758 H3735 0.950 . S
C3758 C3757 1.397 . S
C3758 C3759 1.334 . S
C3759 H3736 0.950 . S
C3759 C3758 1.334 . S
C3759 C3760 1.287 . S
C3760 C3759 1.287 . S
C3760 C3761 1.524 . S
C3760 H3779 0.913 . S
C3761 H3737 0.950 . S
C3761 C3760 1.524 . S
C3761 C3762 1.415 . S
C3762 H3738 0.950 . S
C3762 C3757 1.363 . S
C3762 C3761 1.415 . S
C3763 H3739 0.951 . S
C3763 C3764 1.366 . S
C3763 C3765 1.388 . S
C3764 C3763 1.366 . S
C3764 C3768 1.385 . S
C3765 H3740 0.951 . S
C3765 C3763 1.388 . S
C3765 C3766 1.366 . S
C3766 C3765 1.366 . S
C3766 C3767 1.414 . S
C3766 C3769 1.499 . S
C3767 H3741 0.950 . S
C3767 C3766 1.414 . S
C3767 C3768 1.374 . S
C3768 H3742 0.950 . S
C3768 C3764 1.385 . S
C3768 C3767 1.374 . S
C3769 C3766 1.499 . S
C3769 C3770 1.373 . S
C3769 C3771 1.389 . S
C3770 H3743 0.950 . S
C3770 C3756 1.377 . S
C3770 C3769 1.373 . S
C3771 C3755 1.377 . S
C3771 C3769 1.389 . S
C3771 C3772 1.524 . S
C3772 C3771 1.524 . S
C3772 C3773 1.397 . S
C3772 C3777 1.363 . S
C3773 H3744 0.950 . S
C3773 C3772 1.397 . S
C3773 C3774 1.334 . S
C3774 H3745 0.950 . S
C3774 C3773 1.334 . S
C3774 C3775 1.287 . S
C3775 C3774 1.287 . S
C3775 C3776 1.524 . S
C3775 H3778 0.999 . S
C3776 H3746 0.950 . S
C3776 C3775 1.524 . S
C3776 C3777 1.415 . S
C3777 H3747 0.950 . S
C3777 C3772 1.363 . S
C3777 C3776 1.415 . S
H3778 C3775 0.999 . S
H3779 C3760 0.913 . S
H3780 C3798 0.951 . S
H3781 C3800 0.951 . S
H3782 C3802 0.950 . S
H3783 C3803 0.950 . S
H3784 C3805 0.950 . S
H3785 C3808 0.950 . S
H3786 C3809 0.950 . S
H3787 C3811 0.950 . S
H3788 C3812 0.938 1_455 S
H3789 C3813 0.951 . S
H3790 C3815 0.951 . S
H3791 C3817 0.950 1_455 S
H3792 C3818 0.950 . S
H3793 C3820 0.950 . S
H3794 C3823 0.950 . S
H3795 C3824 0.950 . S
H3796 C3826 0.950 . S
H3797 C3827 0.950 . S
C3798 H3780 0.951 . S
C3798 C3799 1.366 . S
C3798 C3800 1.388 . S
C3799 C3798 1.366 . S
C3799 C3803 1.385 . S
C3800 H3781 0.951 . S
C3800 C3798 1.388 . S
C3800 C3801 1.366 . S
C3801 C3800 1.366 . S
C3801 C3802 1.414 . S
C3801 C3804 1.499 . S
C3802 H3782 0.950 . S
C3802 C3801 1.414 . S
C3802 C3803 1.374 . S
C3803 H3783 0.950 . S
C3803 C3799 1.385 . S
C3803 C3802 1.374 . S
C3804 C3801 1.499 . S
C3804 C3805 1.373 . S
C3804 C3806 1.389 . S
C3805 H3784 0.950 . S
C3805 C3804 1.373 . S
C3805 C3821 1.377 . S
C3806 C3804 1.389 . S
C3806 C3807 1.524 . S
C3806 C3820 1.377 . S
C3807 C3806 1.524 . S
C3807 C3808 1.397 . S
C3807 C3812 1.363 . S
C3808 H3785 0.950 . S
C3808 C3807 1.397 . S
C3808 C3809 1.334 . S
C3809 H3786 0.950 . S
C3809 C3808 1.334 . S
C3809 C3810 1.303 . S
C3810 C3809 1.303 . S
C3810 C3811 1.516 1_655 S
C3810 H3829 0.905 1_655 S
C3811 H3787 0.950 . S
C3811 C3810 1.516 1_455 S
C3811 C3812 1.415 1_455 S
C3812 H3788 0.938 1_655 S
C3812 C3807 1.363 . S
C3812 C3811 1.415 1_655 S
C3813 H3789 0.951 . S
C3813 C3814 1.366 1_655 S
C3813 C3815 1.388 . S
C3814 C3813 1.366 1_455 S
C3814 C3818 1.385 . S
C3815 H3790 0.951 . S
C3815 C3813 1.388 . S
C3815 C3816 1.366 . S
C3816 C3815 1.366 . S
C3816 C3817 1.414 . S
C3816 C3819 1.499 . S
C3817 H3791 0.950 1_655 S
C3817 C3816 1.414 . S
C3817 C3818 1.374 1_655 S
C3818 H3792 0.950 . S
C3818 C3814 1.385 . S
C3818 C3817 1.374 1_455 S
C3819 C3816 1.499 . S
C3819 C3820 1.373 . S
C3819 C3821 1.389 . S
C3820 H3793 0.950 . S
C3820 C3806 1.377 . S
C3820 C3819 1.373 . S
C3821 C3805 1.377 . S
C3821 C3819 1.389 . S
C3821 C3822 1.524 . S
C3822 C3821 1.524 . S
C3822 C3823 1.397 . S
C3822 C3827 1.363 . S
C3823 H3794 0.950 . S
C3823 C3822 1.397 . S
C3823 C3824 1.334 . S
C3824 H3795 0.950 . S
C3824 C3823 1.334 . S
C3824 C3825 1.287 . S
C3825 C3824 1.287 . S
C3825 C3826 1.524 . S
C3825 H3828 0.999 . S
C3826 H3796 0.950 . S
C3826 C3825 1.524 . S
C3826 C3827 1.415 . S
C3827 H3797 0.950 . S
C3827 C3822 1.363 . S
C3827 C3826 1.415 . S
H3828 C3825 0.999 . S
H3829 C3810 0.905 1_455 S
H3830 C3848 0.951 . S
H3831 C3850 0.951 . S
H3832 C3852 0.950 . S
H3833 C3853 0.950 . S
H3834 C3855 0.950 . S
H3835 C3858 0.950 . S
H3836 C3859 0.950 . S
H3837 C3861 0.950 . S
H3838 C3862 0.950 . S
H3839 C3863 0.951 . S
H3840 C3865 0.951 . S
H3841 C3867 0.950 . S
H3842 C3868 0.950 . S
H3843 C3870 0.950 . S
H3844 C3873 0.950 . S
H3845 C3874 0.950 . S
H3846 C3876 0.950 . S
H3847 C3877 0.950 . S
C3848 H3830 0.951 . S
C3848 C3849 1.366 . S
C3848 C3850 1.388 . S
C3849 C3848 1.366 . S
C3849 C3853 1.385 . S
C3850 H3831 0.951 . S
C3850 C3848 1.388 . S
C3850 C3851 1.366 . S
C3851 C3850 1.366 . S
C3851 C3852 1.414 . S
C3851 C3854 1.499 . S
C3852 H3832 0.950 . S
C3852 C3851 1.414 . S
C3852 C3853 1.374 . S
C3853 H3833 0.950 . S
C3853 C3849 1.385 . S
C3853 C3852 1.374 . S
C3854 C3851 1.499 . S
C3854 C3855 1.373 . S
C3854 C3856 1.389 . S
C3855 H3834 0.950 . S
C3855 C3854 1.373 . S
C3855 C3871 1.377 . S
C3856 C3854 1.389 . S
C3856 C3857 1.524 . S
C3856 C3870 1.377 . S
C3857 C3856 1.524 . S
C3857 C3858 1.397 . S
C3857 C3862 1.363 . S
C3858 H3835 0.950 . S
C3858 C3857 1.397 . S
C3858 C3859 1.334 . S
C3859 H3836 0.950 . S
C3859 C3858 1.334 . S
C3859 C3860 1.287 . S
C3860 C3859 1.287 . S
C3860 C3861 1.524 . S
C3860 H3879 0.913 . S
C3861 H3837 0.950 . S
C3861 C3860 1.524 . S
C3861 C3862 1.415 . S
C3862 H3838 0.950 . S
C3862 C3857 1.363 . S
C3862 C3861 1.415 . S
C3863 H3839 0.951 . S
C3863 C3864 1.366 . S
C3863 C3865 1.388 . S
C3864 C3863 1.366 . S
C3864 C3868 1.385 . S
C3865 H3840 0.951 . S
C3865 C3863 1.388 . S
C3865 C3866 1.366 . S
C3866 C3865 1.366 . S
C3866 C3867 1.414 . S
C3866 C3869 1.499 . S
C3867 H3841 0.950 . S
C3867 C3866 1.414 . S
C3867 C3868 1.374 . S
C3868 H3842 0.950 . S
C3868 C3864 1.385 . S
C3868 C3867 1.374 . S
C3869 C3866 1.499 . S
C3869 C3870 1.373 . S
C3869 C3871 1.389 . S
C3870 H3843 0.950 . S
C3870 C3856 1.377 . S
C3870 C3869 1.373 . S
C3871 C3855 1.377 . S
C3871 C3869 1.389 . S
C3871 C3872 1.524 . S
C3872 C3871 1.524 . S
C3872 C3873 1.397 . S
C3872 C3877 1.363 . S
C3873 H3844 0.950 . S
C3873 C3872 1.397 . S
C3873 C3874 1.334 . S
C3874 H3845 0.950 . S
C3874 C3873 1.334 . S
C3874 C3875 1.287 . S
C3875 C3874 1.287 . S
C3875 C3876 1.524 . S
C3875 H3878 0.999 . S
C3876 H3846 0.950 . S
C3876 C3875 1.524 . S
C3876 C3877 1.415 . S
C3877 H3847 0.950 . S
C3877 C3872 1.363 . S
C3877 C3876 1.415 . S
H3878 C3875 0.999 . S
H3879 C3860 0.913 . S
H3880 C3898 0.951 . S
H3881 C3900 0.951 . S
H3882 C3902 0.950 . S
H3883 C3903 0.950 . S
H3884 C3905 0.950 . S
H3885 C3908 0.950 . S
H3886 C3909 0.950 . S
H3887 C3911 0.950 . S
H3888 C3912 0.950 . S
H3889 C3913 0.951 . S
H3890 C3915 0.951 . S
H3891 C3917 0.950 . S
H3892 C3918 0.950 . S
H3893 C3920 0.950 . S
H3894 C3923 0.950 . S
H3895 C3924 0.950 . S
H3896 C3926 0.950 . S
H3897 C3927 0.950 . S
C3898 H3880 0.951 . S
C3898 C3899 1.366 . S
C3898 C3900 1.388 . S
C3899 C3898 1.366 . S
C3899 C3903 1.385 . S
C3900 H3881 0.951 . S
C3900 C3898 1.388 . S
C3900 C3901 1.366 . S
C3901 C3900 1.366 . S
C3901 C3902 1.414 . S
C3901 C3904 1.499 . S
C3902 H3882 0.950 . S
C3902 C3901 1.414 . S
C3902 C3903 1.374 . S
C3903 H3883 0.950 . S
C3903 C3899 1.385 . S
C3903 C3902 1.374 . S
C3904 C3901 1.499 . S
C3904 C3905 1.373 . S
C3904 C3906 1.389 . S
C3905 H3884 0.950 . S
C3905 C3904 1.373 . S
C3905 C3921 1.377 . S
C3906 C3904 1.389 . S
C3906 C3907 1.524 . S
C3906 C3920 1.377 . S
C3907 C3906 1.524 . S
C3907 C3908 1.397 . S
C3907 C3912 1.363 . S
C3908 H3885 0.950 . S
C3908 C3907 1.397 . S
C3908 C3909 1.334 . S
C3909 H3886 0.950 . S
C3909 C3908 1.334 . S
C3909 C3910 1.287 . S
C3910 C3909 1.287 . S
C3910 C3911 1.524 . S
C3910 H3929 0.913 . S
C3911 H3887 0.950 . S
C3911 C3910 1.524 . S
C3911 C3912 1.415 . S
C3912 H3888 0.950 . S
C3912 C3907 1.363 . S
C3912 C3911 1.415 . S
C3913 H3889 0.951 . S
C3913 C3914 1.366 . S
C3913 C3915 1.388 . S
C3914 C3913 1.366 . S
C3914 C3918 1.385 . S
C3915 H3890 0.951 . S
C3915 C3913 1.388 . S
C3915 C3916 1.366 . S
C3916 C3915 1.366 . S
C3916 C3917 1.414 . S
C3916 C3919 1.499 . S
C3917 H3891 0.950 . S
C3917 C3916 1.414 . S
C3917 C3918 1.374 . S
C3918 H3892 0.950 . S
C3918 C3914 1.385 . S
C3918 C3917 1.374 . S
C3919 C3916 1.499 . S
C3919 C3920 1.373 . S
C3919 C3921 1.389 . S
C3920 H3893 0.950 . S
C3920 C3906 1.377 . S
C3920 C3919 1.373 . S
C3921 C3905 1.377 . S
C3921 C3919 1.389 . S
C3921 C3922 1.524 . S
C3922 C3921 1.524 . S
C3922 C3923 1.397 . S
C3922 C3927 1.363 . S
C3923 H3894 0.950 . S
C3923 C3922 1.397 . S
C3923 C3924 1.334 . S
C3924 H3895 0.950 . S
C3924 C3923 1.334 . S
C3924 C3925 1.287 . S
C3925 C3924 1.287 . S
C3925 C3926 1.524 . S
C3925 H3928 0.999 . S
C3926 H3896 0.950 . S
C3926 C3925 1.524 . S
C3926 C3927 1.415 . S
C3927 H3897 0.950 . S
C3927 C3922 1.363 . S
C3927 C3926 1.415 . S
H3928 C3925 0.999 . S
H3929 C3910 0.913 . S
H3930 C3948 0.951 . S
H3931 C3950 0.951 . S
H3932 C3952 0.950 . S
H3933 C3953 0.950 . S
H3934 C3955 0.950 . S
H3935 C3958 0.950 . S
H3936 C3959 0.950 . S
H3937 C3961 0.950 . S
H3938 C3962 0.950 . S
H3939 C3963 0.951 . S
H3940 C3965 0.951 . S
H3941 C3967 0.950 . S
H3942 C3968 0.950 . S
H3943 C3970 0.950 . S
H3944 C3973 0.950 . S
H3945 C3974 0.950 . S
H3946 C3976 0.950 . S
H3947 C3977 0.950 . S
C3948 H3930 0.951 . S
C3948 C3949 1.366 . S
C3948 C3950 1.388 . S
C3949 C3948 1.366 . S
C3949 C3953 1.385 . S
C3950 H3931 0.951 . S
C3950 C3948 1.388 . S
C3950 C3951 1.366 . S
C3951 C3950 1.366 . S
C3951 C3952 1.414 . S
C3951 C3954 1.499 . S
C3952 H3932 0.950 . S
C3952 C3951 1.414 . S
C3952 C3953 1.374 . S
C3953 H3933 0.950 . S
C3953 C3949 1.385 . S
C3953 C3952 1.374 . S
C3954 C3951 1.499 . S
C3954 C3955 1.373 . S
C3954 C3956 1.389 . S
C3955 H3934 0.950 . S
C3955 C3954 1.373 . S
C3955 C3971 1.377 . S
C3956 C3954 1.389 . S
C3956 C3957 1.524 . S
C3956 C3970 1.377 . S
C3957 C3956 1.524 . S
C3957 C3958 1.397 . S
C3957 C3962 1.363 . S
C3958 H3935 0.950 . S
C3958 C3957 1.397 . S
C3958 C3959 1.334 . S
C3959 H3936 0.950 . S
C3959 C3958 1.334 . S
C3959 C3960 1.287 . S
C3960 C3959 1.287 . S
C3960 C3961 1.524 . S
C3960 H3979 0.913 . S
C3961 H3937 0.950 . S
C3961 C3960 1.524 . S
C3961 C3962 1.415 . S
C3962 H3938 0.950 . S
C3962 C3957 1.363 . S
C3962 C3961 1.415 . S
C3963 H3939 0.951 . S
C3963 C3964 1.366 . S
C3963 C3965 1.388 . S
C3964 C3963 1.366 . S
C3964 C3968 1.385 . S
C3965 H3940 0.951 . S
C3965 C3963 1.388 . S
C3965 C3966 1.366 . S
C3966 C3965 1.366 . S
C3966 C3967 1.414 . S
C3966 C3969 1.499 . S
C3967 H3941 0.950 . S
C3967 C3966 1.414 . S
C3967 C3968 1.374 . S
C3968 H3942 0.950 . S
C3968 C3964 1.385 . S
C3968 C3967 1.374 . S
C3969 C3966 1.499 . S
C3969 C3970 1.373 . S
C3969 C3971 1.389 . S
C3970 H3943 0.950 . S
C3970 C3956 1.377 . S
C3970 C3969 1.373 . S
C3971 C3955 1.377 . S
C3971 C3969 1.389 . S
C3971 C3972 1.524 . S
C3972 C3971 1.524 . S
C3972 C3973 1.397 . S
C3972 C3977 1.363 . S
C3973 H3944 0.950 . S
C3973 C3972 1.397 . S
C3973 C3974 1.334 . S
C3974 H3945 0.950 . S
C3974 C3973 1.334 . S
C3974 C3975 1.287 . S
C3975 C3974 1.287 . S
C3975 C3976 1.524 . S
C3975 H3978 0.999 . S
C3976 H3946 0.950 . S
C3976 C3975 1.524 . S
C3976 C3977 1.415 . S
C3977 H3947 0.950 . S
C3977 C3972 1.363 . S
C3977 C3976 1.415 . S
H3978 C3975 0.999 . S
H3979 C3960 0.913 . S
H3980 C3998 0.951 . S
H3981 C4000 0.951 . S
H3982 C4002 0.950 . S
H3983 C4003 0.950 . S
H3984 C4005 0.950 . S
H3985 C4008 0.950 . S
H3986 C4009 0.950 . S
H3987 C4011 0.950 . S
H3988 C4012 0.950 . S
H3989 C4013 0.951 1_455 S
H3990 C4015 0.951 . S
H3991 C4017 0.950 . S
H3992 C4018 0.950 . S
H3993 C4020 0.950 . S
H3994 C4023 0.950 . S
H3995 C4024 0.950 . S
H3996 C4026 0.950 . S
H3997 C4027 0.950 . S
C3998 H3980 0.951 . S
C3998 C3999 1.366 . S
C3998 C4000 1.388 . S
C3999 C3998 1.366 . S
C3999 C4003 1.385 . S
C4000 H3981 0.951 . S
C4000 C3998 1.388 . S
C4000 C4001 1.366 . S
C4001 C4000 1.366 . S
C4001 C4002 1.414 . S
C4001 C4004 1.499 . S
C4002 H3982 0.950 . S
C4002 C4001 1.414 . S
C4002 C4003 1.374 . S
C4003 H3983 0.950 . S
C4003 C3999 1.385 . S
C4003 C4002 1.374 . S
C4004 C4001 1.499 . S
C4004 C4005 1.373 . S
C4004 C4006 1.389 . S
C4005 H3984 0.950 . S
C4005 C4004 1.373 . S
C4005 C4021 1.377 . S
C4006 C4004 1.389 . S
C4006 C4007 1.524 . S
C4006 C4020 1.377 . S
C4007 C4006 1.524 . S
C4007 C4008 1.397 . S
C4007 C4012 1.363 . S
C4008 H3985 0.950 . S
C4008 C4007 1.397 . S
C4008 C4009 1.334 . S
C4009 H3986 0.950 . S
C4009 C4008 1.334 . S
C4009 C4010 1.287 . S
C4010 C4009 1.287 . S
C4010 C4011 1.524 . S
C4010 H4029 0.913 . S
C4011 H3987 0.950 . S
C4011 C4010 1.524 . S
C4011 C4012 1.415 . S
C4012 H3988 0.950 . S
C4012 C4007 1.363 . S
C4012 C4011 1.415 . S
C4013 H3989 0.951 1_655 S
C4013 C4014 1.366 . S
C4013 C4015 1.388 . S
C4014 C4013 1.366 . S
C4014 C4018 1.385 . S
C4015 H3990 0.951 . S
C4015 C4013 1.388 . S
C4015 C4016 1.366 . S
C4016 C4015 1.366 . S
C4016 C4017 1.414 . S
C4016 C4019 1.499 . S
C4017 H3991 0.950 . S
C4017 C4016 1.414 . S
C4017 C4018 1.374 . S
C4018 H3992 0.950 . S
C4018 C4014 1.385 . S
C4018 C4017 1.374 . S
C4019 C4016 1.499 . S
C4019 C4020 1.373 . S
C4019 C4021 1.389 . S
C4020 H3993 0.950 . S
C4020 C4006 1.377 . S
C4020 C4019 1.373 . S
C4021 C4005 1.377 . S
C4021 C4019 1.389 . S
C4021 C4022 1.524 . S
C4022 C4021 1.524 . S
C4022 C4023 1.397 . S
C4022 C4027 1.363 . S
C4023 H3994 0.950 . S
C4023 C4022 1.397 . S
C4023 C4024 1.334 . S
C4024 H3995 0.950 . S
C4024 C4023 1.334 . S
C4024 C4025 1.287 . S
C4025 C4024 1.287 . S
C4025 C4026 1.524 . S
C4025 H4028 0.999 . S
C4026 H3996 0.950 . S
C4026 C4025 1.524 . S
C4026 C4027 1.415 . S
C4027 H3997 0.950 . S
C4027 C4022 1.363 . S
C4027 C4026 1.415 . S
H4028 C4025 0.999 . S
H4029 C4010 0.913 . S
H4030 C4048 0.951 . S
H4031 C4050 0.951 . S
H4032 C4052 0.950 . S
H4033 C4053 0.950 . S
H4034 C4055 0.950 . S
H4035 C4058 0.950 . S
H4036 C4059 0.950 . S
H4037 C4061 0.950 . S
H4038 C4062 0.950 . S
H4039 C4063 0.951 . S
H4040 C4065 0.951 . S
H4041 C4067 0.950 . S
H4042 C4068 0.950 . S
H4043 C4070 0.950 . S
H4044 C4073 0.950 . S
H4045 C4074 0.950 . S
H4046 C4076 0.950 . S
H4047 C4077 0.950 . S
C4048 H4030 0.951 . S
C4048 C4049 1.366 . S
C4048 C4050 1.388 . S
C4049 C4048 1.366 . S
C4049 C4053 1.385 . S
C4050 H4031 0.951 . S
C4050 C4048 1.388 . S
C4050 C4051 1.366 . S
C4051 C4050 1.366 . S
C4051 C4052 1.414 . S
C4051 C4054 1.499 . S
C4052 H4032 0.950 . S
C4052 C4051 1.414 . S
C4052 C4053 1.374 . S
C4053 H4033 0.950 . S
C4053 C4049 1.385 . S
C4053 C4052 1.374 . S
C4054 C4051 1.499 . S
C4054 C4055 1.373 . S
C4054 C4056 1.389 . S
C4055 H4034 0.950 . S
C4055 C4054 1.373 . S
C4055 C4071 1.377 . S
C4056 C4054 1.389 . S
C4056 C4057 1.524 . S
C4056 C4070 1.377 . S
C4057 C4056 1.524 . S
C4057 C4058 1.397 . S
C4057 C4062 1.363 . S
C4058 H4035 0.950 . S
C4058 C4057 1.397 . S
C4058 C4059 1.334 . S
C4059 H4036 0.950 . S
C4059 C4058 1.334 . S
C4059 C4060 1.287 . S
C4060 C4059 1.287 . S
C4060 C4061 1.524 . S
C4060 H4079 0.913 . S
C4061 H4037 0.950 . S
C4061 C4060 1.524 . S
C4061 C4062 1.415 . S
C4062 H4038 0.950 . S
C4062 C4057 1.363 . S
C4062 C4061 1.415 . S
C4063 H4039 0.951 . S
C4063 C4064 1.366 . S
C4063 C4065 1.388 . S
C4064 C4063 1.366 . S
C4064 C4068 1.385 . S
C4065 H4040 0.951 . S
C4065 C4063 1.388 . S
C4065 C4066 1.366 . S
C4066 C4065 1.366 . S
C4066 C4067 1.414 . S
C4066 C4069 1.499 . S
C4067 H4041 0.950 . S
C4067 C4066 1.414 . S
C4067 C4068 1.374 . S
C4068 H4042 0.950 . S
C4068 C4064 1.385 . S
C4068 C4067 1.374 . S
C4069 C4066 1.499 . S
C4069 C4070 1.373 . S
C4069 C4071 1.389 . S
C4070 H4043 0.950 . S
C4070 C4056 1.377 . S
C4070 C4069 1.373 . S
C4071 C4055 1.377 . S
C4071 C4069 1.389 . S
C4071 C4072 1.524 . S
C4072 C4071 1.524 . S
C4072 C4073 1.397 . S
C4072 C4077 1.363 . S
C4073 H4044 0.950 . S
C4073 C4072 1.397 . S
C4073 C4074 1.334 . S
C4074 H4045 0.950 . S
C4074 C4073 1.334 . S
C4074 C4075 1.287 . S
C4075 C4074 1.287 . S
C4075 C4076 1.524 . S
C4075 H4078 0.999 . S
C4076 H4046 0.950 . S
C4076 C4075 1.524 . S
C4076 C4077 1.415 . S
C4077 H4047 0.950 . S
C4077 C4072 1.363 . S
C4077 C4076 1.415 . S
H4078 C4075 0.999 . S
H4079 C4060 0.913 . S
H4080 C4098 0.951 . S
H4081 C4100 0.951 . S
H4082 C4102 0.950 . S
H4083 C4103 0.950 . S
H4084 C4105 0.950 . S
H4085 C4108 0.950 . S
H4086 C4109 0.950 . S
H4087 C4111 0.950 . S
H4088 C4112 0.950 . S
H4089 C4113 0.951 . S
H4090 C4115 0.951 . S
H4091 C4117 0.950 . S
H4092 C4118 0.950 . S
H4093 C4120 0.950 . S
H4094 C4123 0.950 . S
H4095 C4124 0.950 . S
H4096 C4126 0.950 . S
H4097 C4127 0.950 . S
C4098 H4080 0.951 . S
C4098 C4099 1.366 . S
C4098 C4100 1.388 . S
C4099 C4098 1.366 . S
C4099 C4103 1.385 . S
C4100 H4081 0.951 . S
C4100 C4098 1.388 . S
C4100 C4101 1.366 . S
C4101 C4100 1.366 . S
C4101 C4102 1.414 . S
C4101 C4104 1.499 . S
C4102 H4082 0.950 . S
C4102 C4101 1.414 . S
C4102 C4103 1.374 . S
C4103 H4083 0.950 . S
C4103 C4099 1.385 . S
C4103 C4102 1.374 . S
C4104 C4101 1.499 . S
C4104 C4105 1.373 . S
C4104 C4106 1.389 . S
C4105 H4084 0.950 . S
C4105 C4104 1.373 . S
C4105 C4121 1.377 . S
C4106 C4104 1.389 . S
C4106 C4107 1.524 . S
C4106 C4120 1.377 . S
C4107 C4106 1.524 . S
C4107 C4108 1.397 . S
C4107 C4112 1.363 . S
C4108 H4085 0.950 . S
C4108 C4107 1.397 . S
C4108 C4109 1.334 . S
C4109 H4086 0.950 . S
C4109 C4108 1.334 . S
C4109 C4110 1.287 . S
C4110 C4109 1.287 . S
C4110 C4111 1.524 . S
C4110 H4129 0.913 . S
C4111 H4087 0.950 . S
C4111 C4110 1.524 . S
C4111 C4112 1.415 . S
C4112 H4088 0.950 . S
C4112 C4107 1.363 . S
C4112 C4111 1.415 . S
C4113 H4089 0.951 . S
C4113 C4114 1.366 . S
C4113 C4115 1.388 . S
C4114 C4113 1.366 . S
C4114 C4118 1.385 . S
C4115 H4090 0.951 . S
C4115 C4113 1.388 . S
C4115 C4116 1.366 . S
C4116 C4115 1.366 . S
C4116 C4117 1.414 . S
C4116 C4119 1.499 . S
C4117 H4091 0.950 . S
C4117 C4116 1.414 . S
C4117 C4118 1.374 . S
C4118 H4092 0.950 . S
C4118 C4114 1.385 . S
C4118 C4117 1.374 . S
C4119 C4116 1.499 . S
C4119 C4120 1.373 . S
C4119 C4121 1.389 . S
C4120 H4093 0.950 . S
C4120 C4106 1.377 . S
C4120 C4119 1.373 . S
C4121 C4105 1.377 . S
C4121 C4119 1.389 . S
C4121 C4122 1.524 . S
C4122 C4121 1.524 . S
C4122 C4123 1.397 . S
C4122 C4127 1.363 . S
C4123 H4094 0.950 . S
C4123 C4122 1.397 . S
C4123 C4124 1.334 . S
C4124 H4095 0.950 . S
C4124 C4123 1.334 . S
C4124 C4125 1.287 . S
C4125 C4124 1.287 . S
C4125 C4126 1.524 . S
C4125 H4128 0.999 . S
C4126 H4096 0.950 . S
C4126 C4125 1.524 . S
C4126 C4127 1.415 . S
C4127 H4097 0.950 . S
C4127 C4122 1.363 . S
C4127 C4126 1.415 . S
H4128 C4125 0.999 . S
H4129 C4110 0.913 . S
H4130 C4148 0.951 . S
H4131 C4150 0.951 . S
H4132 C4152 0.950 . S
H4133 C4153 0.950 . S
H4134 C4155 0.950 . S
H4135 C4158 0.950 . S
H4136 C4159 0.950 . S
H4137 C4161 0.950 . S
H4138 C4162 0.950 . S
H4139 C4163 0.951 1_545 S
H4140 C4165 0.951 . S
H4141 C4167 0.950 . S
H4142 C4168 0.950 . S
H4143 C4170 0.950 . S
H4144 C4173 0.950 . S
H4145 C4174 0.950 . S
H4146 C4176 0.950 . S
H4147 C4177 0.950 . S
C4148 H4130 0.951 . S
C4148 C4149 1.366 . S
C4148 C4150 1.388 . S
C4149 C4148 1.366 . S
C4149 C4153 1.385 . S
C4150 H4131 0.951 . S
C4150 C4148 1.388 . S
C4150 C4151 1.366 . S
C4151 C4150 1.366 . S
C4151 C4152 1.414 . S
C4151 C4154 1.499 . S
C4152 H4132 0.950 . S
C4152 C4151 1.414 . S
C4152 C4153 1.374 . S
C4153 H4133 0.950 . S
C4153 C4149 1.385 . S
C4153 C4152 1.374 . S
C4154 C4151 1.499 . S
C4154 C4155 1.373 . S
C4154 C4156 1.389 . S
C4155 H4134 0.950 . S
C4155 C4154 1.373 . S
C4155 C4171 1.377 . S
C4156 C4154 1.389 . S
C4156 C4157 1.524 . S
C4156 C4170 1.377 . S
C4157 C4156 1.524 . S
C4157 C4158 1.397 . S
C4157 C4162 1.363 . S
C4158 H4135 0.950 . S
C4158 C4157 1.397 . S
C4158 C4159 1.334 . S
C4159 H4136 0.950 . S
C4159 C4158 1.334 . S
C4159 C4160 1.287 . S
C4160 C4159 1.287 . S
C4160 C4161 1.524 . S
C4160 H4179 0.913 . S
C4161 H4137 0.950 . S
C4161 C4160 1.524 . S
C4161 C4162 1.415 . S
C4162 H4138 0.950 . S
C4162 C4157 1.363 . S
C4162 C4161 1.415 . S
C4163 H4139 0.951 1_565 S
C4163 C4164 1.366 . S
C4163 C4165 1.388 . S
C4164 C4163 1.366 . S
C4164 C4168 1.385 . S
C4165 H4140 0.951 . S
C4165 C4163 1.388 . S
C4165 C4166 1.366 . S
C4166 C4165 1.366 . S
C4166 C4167 1.414 . S
C4166 C4169 1.499 . S
C4167 H4141 0.950 . S
C4167 C4166 1.414 . S
C4167 C4168 1.374 . S
C4168 H4142 0.950 . S
C4168 C4164 1.385 . S
C4168 C4167 1.374 . S
C4169 C4166 1.499 . S
C4169 C4170 1.373 . S
C4169 C4171 1.389 . S
C4170 H4143 0.950 . S
C4170 C4156 1.377 . S
C4170 C4169 1.373 . S
C4171 C4155 1.377 . S
C4171 C4169 1.389 . S
C4171 C4172 1.524 . S
C4172 C4171 1.524 . S
C4172 C4173 1.397 . S
C4172 C4177 1.363 . S
C4173 H4144 0.950 . S
C4173 C4172 1.397 . S
C4173 C4174 1.334 . S
C4174 H4145 0.950 . S
C4174 C4173 1.334 . S
C4174 C4175 1.287 . S
C4175 C4174 1.287 . S
C4175 C4176 1.524 . S
C4175 H4178 0.999 . S
C4176 H4146 0.950 . S
C4176 C4175 1.524 . S
C4176 C4177 1.415 . S
C4177 H4147 0.950 . S
C4177 C4172 1.363 . S
C4177 C4176 1.415 . S
H4178 C4175 0.999 . S
H4179 C4160 0.913 . S
H4180 C4198 0.951 . S
H4181 C4200 0.951 . S
H4182 C4202 0.950 . S
H4183 C4203 0.950 . S
H4184 C4205 0.950 . S
H4185 C4208 0.950 . S
H4186 C4209 0.950 . S
H4187 C4211 0.950 . S
H4188 C4212 0.950 . S
H4189 C4213 0.951 . S
H4190 C4215 0.951 . S
H4191 C4217 0.950 . S
H4192 C4218 0.950 . S
H4193 C4220 0.950 . S
H4194 C4223 0.950 . S
H4195 C4224 0.950 . S
H4196 C4226 0.950 . S
H4197 C4227 0.950 . S
C4198 H4180 0.951 . S
C4198 C4199 1.366 . S
C4198 C4200 1.388 . S
C4199 C4198 1.366 . S
C4199 C4203 1.385 . S
C4200 H4181 0.951 . S
C4200 C4198 1.388 . S
C4200 C4201 1.366 . S
C4201 C4200 1.366 . S
C4201 C4202 1.414 . S
C4201 C4204 1.499 . S
C4202 H4182 0.950 . S
C4202 C4201 1.414 . S
C4202 C4203 1.374 . S
C4203 H4183 0.950 . S
C4203 C4199 1.385 . S
C4203 C4202 1.374 . S
C4204 C4201 1.499 . S
C4204 C4205 1.373 . S
C4204 C4206 1.389 . S
C4205 H4184 0.950 . S
C4205 C4204 1.373 . S
C4205 C4221 1.377 . S
C4206 C4204 1.389 . S
C4206 C4207 1.524 . S
C4206 C4220 1.377 . S
C4207 C4206 1.524 . S
C4207 C4208 1.397 . S
C4207 C4212 1.363 . S
C4208 H4185 0.950 . S
C4208 C4207 1.397 . S
C4208 C4209 1.334 . S
C4209 H4186 0.950 . S
C4209 C4208 1.334 . S
C4209 C4210 1.287 . S
C4210 C4209 1.287 . S
C4210 C4211 1.524 . S
C4210 H4229 0.913 . S
C4211 H4187 0.950 . S
C4211 C4210 1.524 . S
C4211 C4212 1.415 . S
C4212 H4188 0.950 . S
C4212 C4207 1.363 . S
C4212 C4211 1.415 . S
C4213 H4189 0.951 . S
C4213 C4214 1.366 . S
C4213 C4215 1.388 . S
C4214 C4213 1.366 . S
C4214 C4218 1.385 . S
C4215 H4190 0.951 . S
C4215 C4213 1.388 . S
C4215 C4216 1.366 . S
C4216 C4215 1.366 . S
C4216 C4217 1.414 . S
C4216 C4219 1.499 . S
C4217 H4191 0.950 . S
C4217 C4216 1.414 . S
C4217 C4218 1.374 . S
C4218 H4192 0.950 . S
C4218 C4214 1.385 . S
C4218 C4217 1.374 . S
C4219 C4216 1.499 . S
C4219 C4220 1.373 . S
C4219 C4221 1.389 . S
C4220 H4193 0.950 . S
C4220 C4206 1.377 . S
C4220 C4219 1.373 . S
C4221 C4205 1.377 . S
C4221 C4219 1.389 . S
C4221 C4222 1.524 . S
C4222 C4221 1.524 . S
C4222 C4223 1.397 . S
C4222 C4227 1.363 . S
C4223 H4194 0.950 . S
C4223 C4222 1.397 . S
C4223 C4224 1.334 . S
C4224 H4195 0.950 . S
C4224 C4223 1.334 . S
C4224 C4225 1.287 . S
C4225 C4224 1.287 . S
C4225 C4226 1.524 . S
C4225 H4228 0.999 . S
C4226 H4196 0.950 . S
C4226 C4225 1.524 . S
C4226 C4227 1.415 . S
C4227 H4197 0.950 . S
C4227 C4222 1.363 . S
C4227 C4226 1.415 . S
H4228 C4225 0.999 . S
H4229 C4210 0.913 . S
H4230 C4248 0.951 . S
H4231 C4250 0.951 . S
H4232 C4252 0.950 . S
H4233 C4253 0.950 . S
H4234 C4255 0.950 . S
H4235 C4258 0.950 . S
H4236 C4259 0.950 . S
H4237 C4261 0.950 . S
H4238 C4262 0.950 1_554 S
H4239 C4263 0.951 . S
H4240 C4265 0.951 . S
H4241 C4267 0.950 . S
H4242 C4268 0.950 . S
H4243 C4270 0.950 . S
H4244 C4273 0.950 . S
H4245 C4274 0.950 . S
H4246 C4276 0.950 1_565 S
H4247 C4277 0.950 . S
C4248 H4230 0.951 . S
C4248 C4249 1.366 . S
C4248 C4250 1.388 . S
C4249 C4248 1.366 . S
C4249 C4253 1.385 . S
C4250 H4231 0.951 . S
C4250 C4248 1.388 . S
C4250 C4251 1.366 . S
C4251 C4250 1.366 . S
C4251 C4252 1.414 . S
C4251 C4254 1.499 . S
C4252 H4232 0.950 . S
C4252 C4251 1.414 . S
C4252 C4253 1.374 . S
C4253 H4233 0.950 . S
C4253 C4249 1.385 . S
C4253 C4252 1.374 . S
C4254 C4251 1.499 . S
C4254 C4255 1.373 . S
C4254 C4256 1.389 . S
C4255 H4234 0.950 . S
C4255 C4254 1.373 . S
C4255 C4271 1.377 . S
C4256 C4254 1.389 . S
C4256 C4257 1.514 1_554 S
C4256 C4270 1.377 . S
C4257 C4256 1.514 1_556 S
C4257 C4258 1.406 . S
C4257 C4262 1.364 . S
C4258 H4235 0.950 . S
C4258 C4257 1.406 . S
C4258 C4259 1.334 . S
C4259 H4236 0.950 . S
C4259 C4258 1.334 . S
C4259 C4260 1.287 . S
C4260 C4259 1.287 . S
C4260 C4261 1.524 . S
C4260 H4279 0.913 . S
C4261 H4237 0.950 . S
C4261 C4260 1.524 . S
C4261 C4262 1.415 . S
C4262 H4238 0.950 1_556 S
C4262 C4257 1.364 . S
C4262 C4261 1.415 . S
C4263 H4239 0.951 . S
C4263 C4264 1.366 . S
C4263 C4265 1.388 . S
C4264 C4263 1.366 . S
C4264 C4268 1.385 . S
C4265 H4240 0.951 . S
C4265 C4263 1.388 . S
C4265 C4266 1.366 . S
C4266 C4265 1.366 . S
C4266 C4267 1.414 . S
C4266 C4269 1.499 . S
C4267 H4241 0.950 . S
C4267 C4266 1.414 . S
C4267 C4268 1.374 . S
C4268 H4242 0.950 . S
C4268 C4264 1.385 . S
C4268 C4267 1.374 . S
C4269 C4266 1.499 . S
C4269 C4270 1.373 . S
C4269 C4271 1.389 . S
C4270 H4243 0.950 . S
C4270 C4256 1.377 . S
C4270 C4269 1.373 . S
C4271 C4255 1.377 . S
C4271 C4269 1.389 . S
C4271 C4272 1.524 . S
C4272 C4271 1.524 . S
C4272 C4273 1.397 . S
C4272 C4277 1.363 . S
C4273 H4244 0.950 . S
C4273 C4272 1.397 . S
C4273 C4274 1.334 . S
C4274 H4245 0.950 . S
C4274 C4273 1.334 . S
C4274 C4275 1.287 . S
C4275 C4274 1.287 . S
C4275 C4276 1.524 . S
C4275 H4278 0.999 . S
C4276 H4246 0.950 1_545 S
C4276 C4275 1.524 . S
C4276 C4277 1.415 . S
C4277 H4247 0.950 . S
C4277 C4272 1.363 . S
C4277 C4276 1.415 . S
H4278 C4275 0.999 . S
H4279 C4260 0.913 . S
H4280 C4298 0.951 . S
H4281 C4300 0.951 . S
H4282 C4302 0.950 . S
H4283 C4303 0.950 . S
H4284 C4305 0.950 . S
H4285 C4308 0.950 . S
H4286 C4309 0.950 . S
H4287 C4311 0.950 . S
H4288 C4312 0.950 . S
H4289 C4313 0.951 . S
H4290 C4315 0.951 . S
H4291 C4317 0.950 . S
H4292 C4318 0.950 . S
H4293 C4320 0.950 . S
H4294 C4323 0.950 . S
H4295 C4324 0.950 . S
H4296 C4326 0.950 . S
H4297 C4327 0.950 . S
C4298 H4280 0.951 . S
C4298 C4299 1.366 . S
C4298 C4300 1.388 . S
C4299 C4298 1.366 . S
C4299 C4303 1.385 . S
C4300 H4281 0.951 . S
C4300 C4298 1.388 . S
C4300 C4301 1.366 . S
C4301 C4300 1.366 . S
C4301 C4302 1.414 . S
C4301 C4304 1.499 . S
C4302 H4282 0.950 . S
C4302 C4301 1.414 . S
C4302 C4303 1.374 . S
C4303 H4283 0.950 . S
C4303 C4299 1.385 . S
C4303 C4302 1.374 . S
C4304 C4301 1.499 . S
C4304 C4305 1.373 . S
C4304 C4306 1.389 . S
C4305 H4284 0.950 . S
C4305 C4304 1.373 . S
C4305 C4321 1.377 . S
C4306 C4304 1.389 . S
C4306 C4307 1.524 . S
C4306 C4320 1.377 . S
C4307 C4306 1.524 . S
C4307 C4308 1.397 . S
C4307 C4312 1.363 . S
C4308 H4285 0.950 . S
C4308 C4307 1.397 . S
C4308 C4309 1.334 . S
C4309 H4286 0.950 . S
C4309 C4308 1.334 . S
C4309 C4310 1.287 . S
C4310 C4309 1.287 . S
C4310 C4311 1.524 . S
C4310 H4329 0.913 . S
C4311 H4287 0.950 . S
C4311 C4310 1.524 . S
C4311 C4312 1.415 . S
C4312 H4288 0.950 . S
C4312 C4307 1.363 . S
C4312 C4311 1.415 . S
C4313 H4289 0.951 . S
C4313 C4314 1.366 . S
C4313 C4315 1.388 . S
C4314 C4313 1.366 . S
C4314 C4318 1.385 . S
C4315 H4290 0.951 . S
C4315 C4313 1.388 . S
C4315 C4316 1.366 . S
C4316 C4315 1.366 . S
C4316 C4317 1.414 . S
C4316 C4319 1.499 . S
C4317 H4291 0.950 . S
C4317 C4316 1.414 . S
C4317 C4318 1.374 . S
C4318 H4292 0.950 . S
C4318 C4314 1.385 . S
C4318 C4317 1.374 . S
C4319 C4316 1.499 . S
C4319 C4320 1.373 . S
C4319 C4321 1.389 . S
C4320 H4293 0.950 . S
C4320 C4306 1.377 . S
C4320 C4319 1.373 . S
C4321 C4305 1.377 . S
C4321 C4319 1.389 . S
C4321 C4322 1.524 . S
C4322 C4321 1.524 . S
C4322 C4323 1.397 . S
C4322 C4327 1.363 . S
C4323 H4294 0.950 . S
C4323 C4322 1.397 . S
C4323 C4324 1.334 . S
C4324 H4295 0.950 . S
C4324 C4323 1.334 . S
C4324 C4325 1.287 . S
C4325 C4324 1.287 . S
C4325 C4326 1.524 . S
C4325 H4328 0.999 . S
C4326 H4296 0.950 . S
C4326 C4325 1.524 . S
C4326 C4327 1.415 . S
C4327 H4297 0.950 . S
C4327 C4322 1.363 . S
C4327 C4326 1.415 . S
H4328 C4325 0.999 . S
H4329 C4310 0.913 . S
H4330 C4348 0.951 . S
H4331 C4350 0.951 . S
H4332 C4352 0.950 . S
H4333 C4353 0.950 . S
H4334 C4355 0.950 . S
H4335 C4358 0.950 . S
H4336 C4359 0.950 . S
H4337 C4361 0.950 . S
H4338 C4362 0.950 . S
H4339 C4363 0.951 . S
H4340 C4365 0.951 . S
H4341 C4367 0.950 . S
H4342 C4368 0.951 . S
H4343 C4370 0.950 . S
H4344 C4373 0.950 . S
H4345 C4374 0.950 . S
H4346 C4376 0.950 . S
H4347 C4377 0.950 . S
C4348 H4330 0.951 . S
C4348 C4349 1.366 . S
C4348 C4350 1.388 . S
C4349 C4348 1.366 . S
C4349 C4353 1.385 . S
C4350 H4331 0.951 . S
C4350 C4348 1.388 . S
C4350 C4351 1.366 . S
C4351 C4350 1.366 . S
C4351 C4352 1.414 . S
C4351 C4354 1.499 . S
C4352 H4332 0.950 . S
C4352 C4351 1.414 . S
C4352 C4353 1.374 . S
C4353 H4333 0.950 . S
C4353 C4349 1.385 . S
C4353 C4352 1.374 . S
C4354 C4351 1.499 . S
C4354 C4355 1.373 . S
C4354 C4356 1.389 . S
C4355 H4334 0.950 . S
C4355 C4354 1.373 . S
C4355 C4371 1.377 . S
C4356 C4354 1.389 . S
C4356 C4357 1.524 . S
C4356 C4370 1.377 . S
C4357 C4356 1.524 . S
C4357 C4358 1.397 . S
C4357 C4362 1.363 . S
C4358 H4335 0.950 . S
C4358 C4357 1.397 . S
C4358 C4359 1.334 . S
C4359 H4336 0.950 . S
C4359 C4358 1.334 . S
C4359 C4360 1.287 . S
C4360 C4359 1.287 . S
C4360 C4361 1.524 . S
C4360 H4379 0.913 . S
C4361 H4337 0.950 . S
C4361 C4360 1.524 . S
C4361 C4362 1.415 . S
C4362 H4338 0.950 . S
C4362 C4357 1.363 . S
C4362 C4361 1.415 . S
C4363 H4339 0.951 . S
C4363 C4364 1.366 . S
C4363 C4365 1.388 . S
C4364 C4363 1.366 . S
C4364 C4368 1.385 . S
C4365 H4340 0.951 . S
C4365 C4363 1.388 . S
C4365 C4366 1.366 . S
C4366 C4365 1.366 . S
C4366 C4367 1.414 . S
C4366 C4369 1.499 . S
C4367 H4341 0.950 . S
C4367 C4366 1.414 . S
C4367 C4368 1.374 . S
C4368 H4342 0.951 . S
C4368 C4364 1.385 . S
C4368 C4367 1.374 . S
C4369 C4366 1.499 . S
C4369 C4370 1.373 . S
C4369 C4371 1.389 . S
C4370 H4343 0.950 . S
C4370 C4356 1.377 . S
C4370 C4369 1.373 . S
C4371 C4355 1.377 . S
C4371 C4369 1.389 . S
C4371 C4372 1.524 . S
C4372 C4371 1.524 . S
C4372 C4373 1.397 1_554 S
C4372 C4377 1.363 . S
C4373 H4344 0.950 . S
C4373 C4372 1.397 1_556 S
C4373 C4374 1.334 . S
C4374 H4345 0.950 . S
C4374 C4373 1.334 . S
C4374 C4375 1.287 . S
C4375 C4374 1.287 . S
C4375 C4376 1.524 1_556 S
C4375 H4378 0.999 . S
C4376 H4346 0.950 . S
C4376 C4375 1.524 1_554 S
C4376 C4377 1.415 . S
C4377 H4347 0.950 . S
C4377 C4372 1.363 . S
C4377 C4376 1.415 . S
H4378 C4375 0.999 . S
H4379 C4360 0.913 . S
H4380 C4398 0.951 . S
H4381 C4400 0.951 . S
H4382 C4402 0.950 . S
H4383 C4403 0.950 . S
H4384 C4405 0.950 . S
H4385 C4408 0.950 . S
H4386 C4409 0.950 . S
H4387 C4411 0.950 . S
H4388 C4412 0.950 . S
H4389 C4413 0.951 . S
H4390 C4415 0.951 . S
H4391 C4417 0.950 . S
H4392 C4418 0.950 . S
H4393 C4420 0.950 . S
H4394 C4423 0.950 . S
H4395 C4424 0.950 . S
H4396 C4426 0.950 . S
H4397 C4427 0.950 . S
C4398 H4380 0.951 . S
C4398 C4399 1.366 . S
C4398 C4400 1.388 . S
C4399 C4398 1.366 . S
C4399 C4403 1.385 . S
C4400 H4381 0.951 . S
C4400 C4398 1.388 . S
C4400 C4401 1.366 . S
C4401 C4400 1.366 . S
C4401 C4402 1.414 . S
C4401 C4404 1.499 . S
C4402 H4382 0.950 . S
C4402 C4401 1.414 . S
C4402 C4403 1.374 . S
C4403 H4383 0.950 . S
C4403 C4399 1.385 . S
C4403 C4402 1.374 . S
C4404 C4401 1.499 . S
C4404 C4405 1.373 . S
C4404 C4406 1.389 . S
C4405 H4384 0.950 . S
C4405 C4404 1.373 . S
C4405 C4421 1.377 . S
C4406 C4404 1.389 . S
C4406 C4407 1.524 . S
C4406 C4420 1.377 . S
C4407 C4406 1.524 . S
C4407 C4408 1.397 . S
C4407 C4412 1.363 . S
C4408 H4385 0.950 . S
C4408 C4407 1.397 . S
C4408 C4409 1.334 . S
C4409 H4386 0.950 . S
C4409 C4408 1.334 . S
C4409 C4410 1.287 . S
C4410 C4409 1.287 . S
C4410 C4411 1.524 . S
C4410 H4429 0.913 . S
C4411 H4387 0.950 . S
C4411 C4410 1.524 . S
C4411 C4412 1.415 . S
C4412 H4388 0.950 . S
C4412 C4407 1.363 . S
C4412 C4411 1.415 . S
C4413 H4389 0.951 . S
C4413 C4414 1.366 . S
C4413 C4415 1.388 . S
C4414 C4413 1.366 . S
C4414 C4418 1.385 . S
C4415 H4390 0.951 . S
C4415 C4413 1.388 . S
C4415 C4416 1.366 . S
C4416 C4415 1.366 . S
C4416 C4417 1.414 . S
C4416 C4419 1.499 . S
C4417 H4391 0.950 . S
C4417 C4416 1.414 . S
C4417 C4418 1.374 . S
C4418 H4392 0.950 . S
C4418 C4414 1.385 . S
C4418 C4417 1.374 . S
C4419 C4416 1.499 . S
C4419 C4420 1.373 . S
C4419 C4421 1.389 . S
C4420 H4393 0.950 . S
C4420 C4406 1.377 . S
C4420 C4419 1.373 . S
C4421 C4405 1.377 . S
C4421 C4419 1.389 . S
C4421 C4422 1.524 . S
C4422 C4421 1.524 . S
C4422 C4423 1.397 . S
C4422 C4427 1.363 . S
C4423 H4394 0.950 . S
C4423 C4422 1.397 . S
C4423 C4424 1.334 . S
C4424 H4395 0.950 . S
C4424 C4423 1.334 . S
C4424 C4425 1.287 . S
C4425 C4424 1.287 . S
C4425 C4426 1.524 . S
C4425 H4428 0.999 . S
C4426 H4396 0.950 . S
C4426 C4425 1.524 . S
C4426 C4427 1.415 . S
C4427 H4397 0.950 . S
C4427 C4422 1.363 . S
C4427 C4426 1.415 . S
H4428 C4425 0.999 . S
H4429 C4410 0.913 . S
H4430 C4448 0.951 . S
H4431 C4450 0.951 . S
H4432 C4452 0.950 . S
H4433 C4453 0.950 . S
H4434 C4455 0.950 . S
H4435 C4458 0.950 . S
H4436 C4459 0.950 . S
H4437 C4461 0.950 . S
H4438 C4462 0.950 . S
H4439 C4463 0.951 . S
H4440 C4465 0.951 . S
H4441 C4467 0.950 . S
H4442 C4468 0.950 . S
H4443 C4470 0.950 . S
H4444 C4473 0.950 . S
H4445 C4474 0.950 . S
H4446 C4476 0.950 . S
H4447 C4477 0.950 . S
C4448 H4430 0.951 . S
C4448 C4449 1.366 . S
C4448 C4450 1.388 . S
C4449 C4448 1.366 . S
C4449 C4453 1.385 . S
C4450 H4431 0.951 . S
C4450 C4448 1.388 . S
C4450 C4451 1.366 . S
C4451 C4450 1.366 . S
C4451 C4452 1.414 . S
C4451 C4454 1.499 . S
C4452 H4432 0.950 . S
C4452 C4451 1.414 . S
C4452 C4453 1.374 . S
C4453 H4433 0.950 . S
C4453 C4449 1.385 . S
C4453 C4452 1.374 . S
C4454 C4451 1.499 . S
C4454 C4455 1.373 . S
C4454 C4456 1.389 . S
C4455 H4434 0.950 . S
C4455 C4454 1.373 . S
C4455 C4471 1.377 . S
C4456 C4454 1.389 . S
C4456 C4457 1.524 . S
C4456 C4470 1.377 . S
C4457 C4456 1.524 . S
C4457 C4458 1.397 . S
C4457 C4462 1.363 . S
C4458 H4435 0.950 . S
C4458 C4457 1.397 . S
C4458 C4459 1.334 . S
C4459 H4436 0.950 . S
C4459 C4458 1.334 . S
C4459 C4460 1.287 . S
C4460 C4459 1.287 . S
C4460 C4461 1.524 . S
C4460 H4479 0.913 . S
C4461 H4437 0.950 . S
C4461 C4460 1.524 . S
C4461 C4462 1.415 . S
C4462 H4438 0.950 . S
C4462 C4457 1.363 . S
C4462 C4461 1.415 . S
C4463 H4439 0.951 . S
C4463 C4464 1.366 . S
C4463 C4465 1.388 . S
C4464 C4463 1.366 . S
C4464 C4468 1.385 . S
C4465 H4440 0.951 . S
C4465 C4463 1.388 . S
C4465 C4466 1.366 . S
C4466 C4465 1.366 . S
C4466 C4467 1.414 . S
C4466 C4469 1.499 . S
C4467 H4441 0.950 . S
C4467 C4466 1.414 . S
C4467 C4468 1.374 . S
C4468 H4442 0.950 . S
C4468 C4464 1.385 . S
C4468 C4467 1.374 . S
C4469 C4466 1.499 . S
C4469 C4470 1.373 . S
C4469 C4471 1.389 . S
C4470 H4443 0.950 . S
C4470 C4456 1.377 . S
C4470 C4469 1.373 . S
C4471 C4455 1.377 . S
C4471 C4469 1.389 . S
C4471 C4472 1.524 . S
C4472 C4471 1.524 . S
C4472 C4473 1.397 . S
C4472 C4477 1.363 . S
C4473 H4444 0.950 . S
C4473 C4472 1.397 . S
C4473 C4474 1.334 . S
C4474 H4445 0.950 . S
C4474 C4473 1.334 . S
C4474 C4475 1.287 . S
C4475 C4474 1.287 . S
C4475 C4476 1.524 . S
C4475 H4478 0.999 . S
C4476 H4446 0.950 . S
C4476 C4475 1.524 . S
C4476 C4477 1.415 . S
C4477 H4447 0.950 . S
C4477 C4472 1.363 . S
C4477 C4476 1.415 . S
H4478 C4475 0.999 . S
H4479 C4460 0.913 . S
H4480 C4498 0.951 . S
H4481 C4500 0.951 . S
H4482 C4502 0.950 . S
H4483 C4503 0.950 . S
H4484 C4505 0.950 . S
H4485 C4508 0.950 . S
H4486 C4509 0.950 . S
H4487 C4511 0.950 . S
H4488 C4512 0.950 . S
H4489 C4513 0.951 . S
H4490 C4515 0.951 . S
H4491 C4517 0.950 . S
H4492 C4518 0.950 . S
H4493 C4520 0.950 . S
H4494 C4523 0.950 . S
H4495 C4524 0.950 . S
H4496 C4526 0.950 . S
H4497 C4527 0.950 . S
C4498 H4480 0.951 . S
C4498 C4499 1.366 . S
C4498 C4500 1.388 . S
C4499 C4498 1.366 . S
C4499 C4503 1.385 . S
C4500 H4481 0.951 . S
C4500 C4498 1.388 . S
C4500 C4501 1.366 . S
C4501 C4500 1.366 . S
C4501 C4502 1.414 . S
C4501 C4504 1.499 . S
C4502 H4482 0.950 . S
C4502 C4501 1.414 . S
C4502 C4503 1.374 . S
C4503 H4483 0.950 . S
C4503 C4499 1.385 . S
C4503 C4502 1.374 . S
C4504 C4501 1.499 . S
C4504 C4505 1.373 . S
C4504 C4506 1.389 . S
C4505 H4484 0.950 . S
C4505 C4504 1.373 . S
C4505 C4521 1.377 . S
C4506 C4504 1.389 . S
C4506 C4507 1.524 . S
C4506 C4520 1.377 . S
C4507 C4506 1.524 . S
C4507 C4508 1.397 . S
C4507 C4512 1.363 . S
C4508 H4485 0.950 . S
C4508 C4507 1.397 . S
C4508 C4509 1.334 . S
C4509 H4486 0.950 . S
C4509 C4508 1.334 . S
C4509 C4510 1.287 . S
C4510 C4509 1.287 . S
C4510 C4511 1.524 . S
C4510 H4529 0.913 . S
C4511 H4487 0.950 . S
C4511 C4510 1.524 . S
C4511 C4512 1.415 . S
C4512 H4488 0.950 . S
C4512 C4507 1.363 . S
C4512 C4511 1.415 . S
C4513 H4489 0.951 . S
C4513 C4514 1.366 . S
C4513 C4515 1.388 . S
C4514 C4513 1.366 . S
C4514 C4518 1.385 . S
C4515 H4490 0.951 . S
C4515 C4513 1.388 . S
C4515 C4516 1.366 . S
C4516 C4515 1.366 . S
C4516 C4517 1.414 . S
C4516 C4519 1.499 . S
C4517 H4491 0.950 . S
C4517 C4516 1.414 . S
C4517 C4518 1.374 . S
C4518 H4492 0.950 . S
C4518 C4514 1.385 . S
C4518 C4517 1.374 . S
C4519 C4516 1.499 . S
C4519 C4520 1.373 . S
C4519 C4521 1.389 . S
C4520 H4493 0.950 . S
C4520 C4506 1.377 . S
C4520 C4519 1.373 . S
C4521 C4505 1.377 . S
C4521 C4519 1.389 . S
C4521 C4522 1.524 . S
C4522 C4521 1.524 . S
C4522 C4523 1.397 . S
C4522 C4527 1.363 . S
C4523 H4494 0.950 . S
C4523 C4522 1.397 . S
C4523 C4524 1.334 . S
C4524 H4495 0.950 . S
C4524 C4523 1.334 . S
C4524 C4525 1.287 . S
C4525 C4524 1.287 . S
C4525 C4526 1.524 . S
C4525 H4528 0.999 . S
C4526 H4496 0.950 . S
C4526 C4525 1.524 . S
C4526 C4527 1.415 . S
C4527 H4497 0.950 . S
C4527 C4522 1.363 . S
C4527 C4526 1.415 . S
H4528 C4525 0.999 . S
H4529 C4510 0.913 . S
H4530 C4548 0.951 . S
H4531 C4550 0.951 . S
H4532 C4552 0.950 . S
H4533 C4553 0.950 . S
H4534 C4555 0.950 . S
H4535 C4558 0.950 . S
H4536 C4559 0.950 . S
H4537 C4561 0.950 . S
H4538 C4562 0.950 . S
H4539 C4563 0.951 . S
H4540 C4565 0.951 . S
H4541 C4567 0.950 . S
H4542 C4568 0.950 . S
H4543 C4570 0.950 . S
H4544 C4573 0.950 . S
H4545 C4574 0.950 . S
H4546 C4576 0.950 . S
H4547 C4577 0.950 . S
C4548 H4530 0.951 . S
C4548 C4549 1.366 . S
C4548 C4550 1.388 . S
C4549 C4548 1.366 . S
C4549 C4553 1.385 . S
C4550 H4531 0.951 . S
C4550 C4548 1.388 . S
C4550 C4551 1.366 . S
C4551 C4550 1.366 . S
C4551 C4552 1.414 . S
C4551 C4554 1.499 . S
C4552 H4532 0.950 . S
C4552 C4551 1.414 . S
C4552 C4553 1.374 . S
C4553 H4533 0.950 . S
C4553 C4549 1.385 . S
C4553 C4552 1.374 . S
C4554 C4551 1.499 . S
C4554 C4555 1.373 . S
C4554 C4556 1.389 . S
C4555 H4534 0.950 . S
C4555 C4554 1.373 . S
C4555 C4571 1.377 . S
C4556 C4554 1.389 . S
C4556 C4557 1.524 . S
C4556 C4570 1.377 . S
C4557 C4556 1.524 . S
C4557 C4558 1.397 . S
C4557 C4562 1.363 . S
C4558 H4535 0.950 . S
C4558 C4557 1.397 . S
C4558 C4559 1.334 . S
C4559 H4536 0.950 . S
C4559 C4558 1.334 . S
C4559 C4560 1.287 . S
C4560 C4559 1.287 . S
C4560 C4561 1.524 . S
C4560 H4579 0.913 . S
C4561 H4537 0.950 . S
C4561 C4560 1.524 . S
C4561 C4562 1.415 . S
C4562 H4538 0.950 . S
C4562 C4557 1.363 . S
C4562 C4561 1.415 . S
C4563 H4539 0.951 . S
C4563 C4564 1.366 . S
C4563 C4565 1.388 . S
C4564 C4563 1.366 . S
C4564 C4568 1.385 . S
C4565 H4540 0.951 . S
C4565 C4563 1.388 . S
C4565 C4566 1.366 . S
C4566 C4565 1.366 . S
C4566 C4567 1.414 . S
C4566 C4569 1.499 . S
C4567 H4541 0.950 . S
C4567 C4566 1.414 . S
C4567 C4568 1.374 . S
C4568 H4542 0.950 . S
C4568 C4564 1.385 . S
C4568 C4567 1.374 . S
C4569 C4566 1.499 . S
C4569 C4570 1.373 . S
C4569 C4571 1.389 . S
C4570 H4543 0.950 . S
C4570 C4556 1.377 . S
C4570 C4569 1.373 . S
C4571 C4555 1.377 . S
C4571 C4569 1.389 . S
C4571 C4572 1.524 . S
C4572 C4571 1.524 . S
C4572 C4573 1.397 . S
C4572 C4577 1.363 . S
C4573 H4544 0.950 . S
C4573 C4572 1.397 . S
C4573 C4574 1.334 . S
C4574 H4545 0.950 . S
C4574 C4573 1.334 . S
C4574 C4575 1.287 . S
C4575 C4574 1.287 . S
C4575 C4576 1.524 . S
C4575 H4578 0.999 . S
C4576 H4546 0.950 . S
C4576 C4575 1.524 . S
C4576 C4577 1.415 . S
C4577 H4547 0.950 . S
C4577 C4572 1.363 . S
C4577 C4576 1.415 . S
H4578 C4575 0.999 . S
H4579 C4560 0.913 . S
H4580 C4598 0.951 . S
H4581 C4600 0.951 . S
H4582 C4602 0.950 . S
H4583 C4603 0.950 . S
H4584 C4605 0.950 . S
H4585 C4608 0.950 . S
H4586 C4609 0.950 . S
H4587 C4611 0.950 . S
H4588 C4612 0.950 . S
H4589 C4613 0.973 . S
H4590 C4615 0.951 . S
H4591 C4617 0.950 . S
H4592 C4618 0.950 . S
H4593 C4620 0.950 . S
H4594 C4623 0.950 . S
H4595 C4624 0.950 . S
H4596 C4626 0.950 . S
H4597 C4627 0.950 . S
C4598 H4580 0.951 . S
C4598 C4599 1.366 1_655 S
C4598 C4600 1.388 . S
C4599 C4598 1.366 1_455 S
C4599 C4603 1.385 . S
C4600 H4581 0.951 . S
C4600 C4598 1.388 . S
C4600 C4601 1.383 . S
C4601 C4600 1.383 . S
C4601 C4602 1.395 1_655 S
C4601 C4604 1.499 . S
C4602 H4582 0.950 . S
C4602 C4601 1.395 1_455 S
C4602 C4603 1.374 . S
C4603 H4583 0.950 . S
C4603 C4599 1.385 . S
C4603 C4602 1.374 . S
C4604 C4601 1.499 . S
C4604 C4605 1.347 1_655 S
C4604 C4606 1.416 . S
C4605 H4584 0.950 . S
C4605 C4604 1.347 1_455 S
C4605 C4621 1.377 . S
C4606 C4604 1.416 . S
C4606 C4607 1.524 . S
C4606 C4620 1.377 . S
C4607 C4606 1.524 . S
C4607 C4608 1.397 . S
C4607 C4612 1.363 . S
C4608 H4585 0.950 . S
C4608 C4607 1.397 . S
C4608 C4609 1.334 . S
C4609 H4586 0.950 . S
C4609 C4608 1.334 . S
C4609 C4610 1.287 . S
C4610 C4609 1.287 . S
C4610 C4611 1.524 . S
C4610 H4629 0.913 . S
C4611 H4587 0.950 . S
C4611 C4610 1.524 . S
C4611 C4612 1.415 . S
C4612 H4588 0.950 . S
C4612 C4607 1.363 . S
C4612 C4611 1.415 . S
C4613 H4589 0.973 . S
C4613 C4614 1.366 1_455 S
C4613 C4615 1.388 . S
C4614 C4613 1.366 1_655 S
C4614 C4618 1.385 . S
C4615 H4590 0.951 . S
C4615 C4613 1.388 . S
C4615 C4616 1.366 1_455 S
C4616 C4615 1.366 1_655 S
C4616 C4617 1.414 . S
C4616 C4619 1.499 . S
C4617 H4591 0.950 . S
C4617 C4616 1.414 . S
C4617 C4618 1.374 . S
C4618 H4592 0.950 . S
C4618 C4614 1.385 . S
C4618 C4617 1.374 . S
C4619 C4616 1.499 . S
C4619 C4620 1.373 . S
C4619 C4621 1.389 1_655 S
C4620 H4593 0.950 . S
C4620 C4606 1.377 . S
C4620 C4619 1.373 . S
C4621 C4605 1.377 . S
C4621 C4619 1.389 1_455 S
C4621 C4622 1.524 . S
C4622 C4621 1.524 . S
C4622 C4623 1.397 . S
C4622 C4627 1.363 . S
C4623 H4594 0.950 . S
C4623 C4622 1.397 . S
C4623 C4624 1.334 . S
C4624 H4595 0.950 . S
C4624 C4623 1.334 . S
C4624 C4625 1.287 . S
C4625 C4624 1.287 . S
C4625 C4626 1.524 . S
C4625 H4628 0.999 . S
C4626 H4596 0.950 . S
C4626 C4625 1.524 . S
C4626 C4627 1.415 . S
C4627 H4597 0.950 . S
C4627 C4622 1.363 . S
C4627 C4626 1.415 . S
H4628 C4625 0.999 . S
H4629 C4610 0.913 . S
H4630 C4648 0.951 . S
H4631 C4650 0.951 . S
H4632 C4652 0.950 . S
H4633 C4653 0.950 . S
H4634 C4655 0.950 . S
H4635 C4658 0.950 . S
H4636 C4659 0.950 . S
H4637 C4661 0.950 . S
H4638 C4662 0.950 . S
H4639 C4663 0.951 . S
H4640 C4665 0.951 . S
H4641 C4667 0.950 . S
H4642 C4668 0.950 . S
H4643 C4670 0.950 . S
H4644 C4673 0.950 . S
H4645 C4674 0.950 . S
H4646 C4676 0.950 . S
H4647 C4677 0.950 . S
C4648 H4630 0.951 . S
C4648 C4649 1.366 . S
C4648 C4650 1.388 . S
C4649 C4648 1.366 . S
C4649 C4653 1.385 . S
C4650 H4631 0.951 . S
C4650 C4648 1.388 . S
C4650 C4651 1.366 . S
C4651 C4650 1.366 . S
C4651 C4652 1.414 . S
C4651 C4654 1.499 . S
C4652 H4632 0.950 . S
C4652 C4651 1.414 . S
C4652 C4653 1.374 . S
C4653 H4633 0.950 . S
C4653 C4649 1.385 . S
C4653 C4652 1.374 . S
C4654 C4651 1.499 . S
C4654 C4655 1.373 . S
C4654 C4656 1.389 . S
C4655 H4634 0.950 . S
C4655 C4654 1.373 . S
C4655 C4671 1.377 . S
C4656 C4654 1.389 . S
C4656 C4657 1.524 . S
C4656 C4670 1.377 . S
C4657 C4656 1.524 . S
C4657 C4658 1.397 . S
C4657 C4662 1.363 . S
C4658 H4635 0.950 . S
C4658 C4657 1.397 . S
C4658 C4659 1.334 . S
C4659 H4636 0.950 . S
C4659 C4658 1.334 . S
C4659 C4660 1.287 . S
C4660 C4659 1.287 . S
C4660 C4661 1.524 . S
C4660 H4679 0.913 . S
C4661 H4637 0.950 . S
C4661 C4660 1.524 . S
C4661 C4662 1.415 . S
C4662 H4638 0.950 . S
C4662 C4657 1.363 . S
C4662 C4661 1.415 . S
C4663 H4639 0.951 . S
C4663 C4664 1.366 . S
C4663 C4665 1.388 . S
C4664 C4663 1.366 . S
C4664 C4668 1.385 . S
C4665 H4640 0.951 . S
C4665 C4663 1.388 . S
C4665 C4666 1.366 . S
C4666 C4665 1.366 . S
C4666 C4667 1.414 . S
C4666 C4669 1.499 . S
C4667 H4641 0.950 . S
C4667 C4666 1.414 . S
C4667 C4668 1.374 . S
C4668 H4642 0.950 . S
C4668 C4664 1.385 . S
C4668 C4667 1.374 . S
C4669 C4666 1.499 . S
C4669 C4670 1.373 . S
C4669 C4671 1.389 . S
C4670 H4643 0.950 . S
C4670 C4656 1.377 . S
C4670 C4669 1.373 . S
C4671 C4655 1.377 . S
C4671 C4669 1.389 . S
C4671 C4672 1.524 . S
C4672 C4671 1.524 . S
C4672 C4673 1.397 . S
C4672 C4677 1.363 . S
C4673 H4644 0.950 . S
C4673 C4672 1.397 . S
C4673 C4674 1.334 . S
C4674 H4645 0.950 . S
C4674 C4673 1.334 . S
C4674 C4675 1.287 . S
C4675 C4674 1.287 . S
C4675 C4676 1.524 . S
C4675 H4678 0.999 . S
C4676 H4646 0.950 . S
C4676 C4675 1.524 . S
C4676 C4677 1.415 . S
C4677 H4647 0.950 . S
C4677 C4672 1.363 . S
C4677 C4676 1.415 . S
H4678 C4675 0.999 . S
H4679 C4660 0.913 . S
H4680 C4698 0.951 . S
H4681 C4700 0.951 . S
H4682 C4702 0.950 . S
H4683 C4703 0.950 . S
H4684 C4705 0.950 . S
H4685 C4708 0.950 . S
H4686 C4709 0.950 . S
H4687 C4711 0.950 . S
H4688 C4712 0.950 . S
H4689 C4713 0.951 . S
H4690 C4715 0.951 . S
H4691 C4717 0.950 . S
H4692 C4718 0.950 . S
H4693 C4720 0.950 . S
H4694 C4723 0.950 . S
H4695 C4724 0.950 . S
H4696 C4726 0.950 . S
H4697 C4727 0.950 . S
C4698 H4680 0.951 . S
C4698 C4699 1.366 . S
C4698 C4700 1.388 . S
C4699 C4698 1.366 . S
C4699 C4703 1.385 . S
C4700 H4681 0.951 . S
C4700 C4698 1.388 . S
C4700 C4701 1.366 . S
C4701 C4700 1.366 . S
C4701 C4702 1.414 . S
C4701 C4704 1.499 . S
C4702 H4682 0.950 . S
C4702 C4701 1.414 . S
C4702 C4703 1.374 . S
C4703 H4683 0.950 . S
C4703 C4699 1.385 . S
C4703 C4702 1.374 . S
C4704 C4701 1.499 . S
C4704 C4705 1.373 . S
C4704 C4706 1.389 . S
C4705 H4684 0.950 . S
C4705 C4704 1.373 . S
C4705 C4721 1.377 . S
C4706 C4704 1.389 . S
C4706 C4707 1.524 . S
C4706 C4720 1.377 . S
C4707 C4706 1.524 . S
C4707 C4708 1.397 . S
C4707 C4712 1.363 . S
C4708 H4685 0.950 . S
C4708 C4707 1.397 . S
C4708 C4709 1.334 . S
C4709 H4686 0.950 . S
C4709 C4708 1.334 . S
C4709 C4710 1.287 . S
C4710 C4709 1.287 . S
C4710 C4711 1.524 . S
C4710 H4729 0.913 . S
C4711 H4687 0.950 . S
C4711 C4710 1.524 . S
C4711 C4712 1.415 . S
C4712 H4688 0.950 . S
C4712 C4707 1.363 . S
C4712 C4711 1.415 . S
C4713 H4689 0.951 . S
C4713 C4714 1.366 . S
C4713 C4715 1.388 . S
C4714 C4713 1.366 . S
C4714 C4718 1.385 . S
C4715 H4690 0.951 . S
C4715 C4713 1.388 . S
C4715 C4716 1.366 . S
C4716 C4715 1.366 . S
C4716 C4717 1.414 . S
C4716 C4719 1.499 . S
C4717 H4691 0.950 . S
C4717 C4716 1.414 . S
C4717 C4718 1.374 . S
C4718 H4692 0.950 . S
C4718 C4714 1.385 . S
C4718 C4717 1.374 . S
C4719 C4716 1.499 . S
C4719 C4720 1.373 . S
C4719 C4721 1.389 . S
C4720 H4693 0.950 . S
C4720 C4706 1.377 . S
C4720 C4719 1.373 . S
C4721 C4705 1.377 . S
C4721 C4719 1.389 . S
C4721 C4722 1.524 . S
C4722 C4721 1.524 . S
C4722 C4723 1.397 . S
C4722 C4727 1.363 . S
C4723 H4694 0.950 . S
C4723 C4722 1.397 . S
C4723 C4724 1.334 . S
C4724 H4695 0.950 . S
C4724 C4723 1.334 . S
C4724 C4725 1.287 . S
C4725 C4724 1.287 . S
C4725 C4726 1.524 . S
C4725 H4728 0.999 . S
C4726 H4696 0.950 . S
C4726 C4725 1.524 . S
C4726 C4727 1.415 . S
C4727 H4697 0.950 . S
C4727 C4722 1.363 . S
C4727 C4726 1.415 . S
H4728 C4725 0.999 . S
H4729 C4710 0.913 . S
H4730 C4748 0.951 . S
H4731 C4750 0.951 . S
H4732 C4752 0.950 . S
H4733 C4753 0.950 . S
H4734 C4755 0.950 . S
H4735 C4758 0.950 . S
H4736 C4759 0.950 . S
H4737 C4761 0.950 . S
H4738 C4762 0.950 . S
H4739 C4763 0.951 . S
H4740 C4765 0.951 . S
H4741 C4767 0.950 . S
H4742 C4768 0.950 . S
H4743 C4770 0.950 . S
H4744 C4773 0.950 . S
H4745 C4774 0.950 . S
H4746 C4776 0.950 . S
H4747 C4777 0.950 . S
C4748 H4730 0.951 . S
C4748 C4749 1.366 . S
C4748 C4750 1.388 . S
C4749 C4748 1.366 . S
C4749 C4753 1.385 . S
C4750 H4731 0.951 . S
C4750 C4748 1.388 . S
C4750 C4751 1.366 . S
C4751 C4750 1.366 . S
C4751 C4752 1.414 . S
C4751 C4754 1.499 . S
C4752 H4732 0.950 . S
C4752 C4751 1.414 . S
C4752 C4753 1.374 . S
C4753 H4733 0.950 . S
C4753 C4749 1.385 . S
C4753 C4752 1.374 . S
C4754 C4751 1.499 . S
C4754 C4755 1.373 . S
C4754 C4756 1.389 . S
C4755 H4734 0.950 . S
C4755 C4754 1.373 . S
C4755 C4771 1.377 . S
C4756 C4754 1.389 . S
C4756 C4757 1.524 . S
C4756 C4770 1.377 . S
C4757 C4756 1.524 . S
C4757 C4758 1.397 . S
C4757 C4762 1.363 . S
C4758 H4735 0.950 . S
C4758 C4757 1.397 . S
C4758 C4759 1.334 . S
C4759 H4736 0.950 . S
C4759 C4758 1.334 . S
C4759 C4760 1.287 . S
C4760 C4759 1.287 . S
C4760 C4761 1.524 . S
C4760 H4779 0.913 . S
C4761 H4737 0.950 . S
C4761 C4760 1.524 . S
C4761 C4762 1.415 . S
C4762 H4738 0.950 . S
C4762 C4757 1.363 . S
C4762 C4761 1.415 . S
C4763 H4739 0.951 . S
C4763 C4764 1.366 . S
C4763 C4765 1.388 . S
C4764 C4763 1.366 . S
C4764 C4768 1.385 . S
C4765 H4740 0.951 . S
C4765 C4763 1.388 . S
C4765 C4766 1.366 . S
C4766 C4765 1.366 . S
C4766 C4767 1.414 . S
C4766 C4769 1.499 . S
C4767 H4741 0.950 . S
C4767 C4766 1.414 . S
C4767 C4768 1.374 . S
C4768 H4742 0.950 . S
C4768 C4764 1.385 . S
C4768 C4767 1.374 . S
C4769 C4766 1.499 . S
C4769 C4770 1.373 . S
C4769 C4771 1.389 . S
C4770 H4743 0.950 . S
C4770 C4756 1.377 . S
C4770 C4769 1.373 . S
C4771 C4755 1.377 . S
C4771 C4769 1.389 . S
C4771 C4772 1.524 . S
C4772 C4771 1.524 . S
C4772 C4773 1.397 . S
C4772 C4777 1.363 . S
C4773 H4744 0.950 . S
C4773 C4772 1.397 . S
C4773 C4774 1.334 . S
C4774 H4745 0.950 . S
C4774 C4773 1.334 . S
C4774 C4775 1.287 . S
C4775 C4774 1.287 . S
C4775 C4776 1.524 . S
C4775 H4778 0.999 . S
C4776 H4746 0.950 . S
C4776 C4775 1.524 . S
C4776 C4777 1.415 . S
C4777 H4747 0.950 . S
C4777 C4772 1.363 . S
C4777 C4776 1.415 . S
H4778 C4775 0.999 . S
H4779 C4760 0.913 . S
H4780 C4798 0.951 . S
H4781 C4800 0.951 . S
H4782 C4802 0.950 . S
H4783 C4803 0.950 . S
H4784 C4805 0.950 . S
H4785 C4808 0.950 . S
H4786 C4809 0.950 . S
H4787 C4811 0.950 . S
H4788 C4812 0.950 . S
H4789 C4813 0.940 1_655 S
H4790 C4815 0.951 . S
H4791 C4817 0.950 . S
H4792 C4818 0.950 . S
H4793 C4820 0.950 . S
H4794 C4823 0.950 . S
H4795 C4824 0.950 . S
H4796 C4826 0.950 . S
H4797 C4827 0.950 . S
C4798 H4780 0.951 . S
C4798 C4799 1.366 . S
C4798 C4800 1.388 . S
C4799 C4798 1.366 . S
C4799 C4803 1.385 . S
C4800 H4781 0.951 . S
C4800 C4798 1.388 . S
C4800 C4801 1.366 . S
C4801 C4800 1.366 . S
C4801 C4802 1.414 . S
C4801 C4804 1.499 . S
C4802 H4782 0.950 . S
C4802 C4801 1.414 . S
C4802 C4803 1.374 . S
C4803 H4783 0.950 . S
C4803 C4799 1.385 . S
C4803 C4802 1.374 . S
C4804 C4801 1.499 . S
C4804 C4805 1.373 . S
C4804 C4806 1.389 . S
C4805 H4784 0.950 . S
C4805 C4804 1.373 . S
C4805 C4821 1.377 . S
C4806 C4804 1.389 . S
C4806 C4807 1.524 . S
C4806 C4820 1.377 . S
C4807 C4806 1.524 . S
C4807 C4808 1.397 1_455 S
C4807 C4812 1.363 . S
C4808 H4785 0.950 . S
C4808 C4807 1.397 1_655 S
C4808 C4809 1.334 . S
C4809 H4786 0.950 . S
C4809 C4808 1.334 . S
C4809 C4810 1.287 . S
C4810 C4809 1.287 . S
C4810 C4811 1.524 1_655 S
C4810 H4829 0.913 . S
C4811 H4787 0.950 . S
C4811 C4810 1.524 1_455 S
C4811 C4812 1.415 . S
C4812 H4788 0.950 . S
C4812 C4807 1.363 . S
C4812 C4811 1.415 . S
C4813 H4789 0.940 1_455 S
C4813 C4814 1.366 . S
C4813 C4815 1.388 . S
C4814 C4813 1.366 . S
C4814 C4818 1.385 . S
C4815 H4790 0.951 . S
C4815 C4813 1.388 . S
C4815 C4816 1.366 . S
C4816 C4815 1.366 . S
C4816 C4817 1.414 . S
C4816 C4819 1.499 . S
C4817 H4791 0.950 . S
C4817 C4816 1.414 . S
C4817 C4818 1.374 . S
C4818 H4792 0.950 . S
C4818 C4814 1.385 . S
C4818 C4817 1.374 . S
C4819 C4816 1.499 . S
C4819 C4820 1.373 . S
C4819 C4821 1.389 . S
C4820 H4793 0.950 . S
C4820 C4806 1.377 . S
C4820 C4819 1.373 . S
C4821 C4805 1.377 . S
C4821 C4819 1.389 . S
C4821 C4822 1.524 . S
C4822 C4821 1.524 . S
C4822 C4823 1.397 . S
C4822 C4827 1.363 . S
C4823 H4794 0.950 . S
C4823 C4822 1.397 . S
C4823 C4824 1.334 . S
C4824 H4795 0.950 . S
C4824 C4823 1.334 . S
C4824 C4825 1.287 . S
C4825 C4824 1.287 . S
C4825 C4826 1.524 . S
C4825 H4828 0.999 . S
C4826 H4796 0.950 . S
C4826 C4825 1.524 . S
C4826 C4827 1.415 . S
C4827 H4797 0.950 . S
C4827 C4822 1.363 . S
C4827 C4826 1.415 . S
H4828 C4825 0.999 . S
H4829 C4810 0.913 . S
H4830 C4848 0.951 . S
H4831 C4850 0.951 . S
H4832 C4852 0.950 . S
H4833 C4853 0.950 . S
H4834 C4855 0.950 . S
H4835 C4858 0.950 . S
H4836 C4859 0.950 . S
H4837 C4861 0.950 . S
H4838 C4862 0.950 . S
H4839 C4863 0.951 . S
H4840 C4865 0.951 . S
H4841 C4867 0.950 . S
H4842 C4868 0.950 . S
H4843 C4870 0.950 . S
H4844 C4873 0.950 . S
H4845 C4874 0.950 . S
H4846 C4876 0.950 . S
H4847 C4877 0.950 . S
C4848 H4830 0.951 . S
C4848 C4849 1.366 . S
C4848 C4850 1.388 . S
C4849 C4848 1.366 . S
C4849 C4853 1.385 . S
C4850 H4831 0.951 . S
C4850 C4848 1.388 . S
C4850 C4851 1.366 . S
C4851 C4850 1.366 . S
C4851 C4852 1.414 . S
C4851 C4854 1.499 . S
C4852 H4832 0.950 . S
C4852 C4851 1.414 . S
C4852 C4853 1.374 . S
C4853 H4833 0.950 . S
C4853 C4849 1.385 . S
C4853 C4852 1.374 . S
C4854 C4851 1.499 . S
C4854 C4855 1.373 . S
C4854 C4856 1.389 . S
C4855 H4834 0.950 . S
C4855 C4854 1.373 . S
C4855 C4871 1.377 . S
C4856 C4854 1.389 . S
C4856 C4857 1.524 . S
C4856 C4870 1.377 . S
C4857 C4856 1.524 . S
C4857 C4858 1.397 . S
C4857 C4862 1.363 . S
C4858 H4835 0.950 . S
C4858 C4857 1.397 . S
C4858 C4859 1.334 . S
C4859 H4836 0.950 . S
C4859 C4858 1.334 . S
C4859 C4860 1.287 . S
C4860 C4859 1.287 . S
C4860 C4861 1.524 . S
C4860 H4879 0.913 . S
C4861 H4837 0.950 . S
C4861 C4860 1.524 . S
C4861 C4862 1.415 . S
C4862 H4838 0.950 . S
C4862 C4857 1.363 . S
C4862 C4861 1.415 . S
C4863 H4839 0.951 . S
C4863 C4864 1.366 . S
C4863 C4865 1.388 . S
C4864 C4863 1.366 . S
C4864 C4868 1.385 . S
C4865 H4840 0.951 . S
C4865 C4863 1.388 . S
C4865 C4866 1.366 . S
C4866 C4865 1.366 . S
C4866 C4867 1.414 . S
C4866 C4869 1.499 . S
C4867 H4841 0.950 . S
C4867 C4866 1.414 . S
C4867 C4868 1.374 . S
C4868 H4842 0.950 . S
C4868 C4864 1.385 . S
C4868 C4867 1.374 . S
C4869 C4866 1.499 . S
C4869 C4870 1.373 . S
C4869 C4871 1.389 . S
C4870 H4843 0.950 . S
C4870 C4856 1.377 . S
C4870 C4869 1.373 . S
C4871 C4855 1.377 . S
C4871 C4869 1.389 . S
C4871 C4872 1.524 . S
C4872 C4871 1.524 . S
C4872 C4873 1.397 . S
C4872 C4877 1.363 . S
C4873 H4844 0.950 . S
C4873 C4872 1.397 . S
C4873 C4874 1.334 . S
C4874 H4845 0.950 . S
C4874 C4873 1.334 . S
C4874 C4875 1.287 . S
C4875 C4874 1.287 . S
C4875 C4876 1.524 . S
C4875 H4878 0.999 . S
C4876 H4846 0.950 . S
C4876 C4875 1.524 . S
C4876 C4877 1.415 . S
C4877 H4847 0.950 . S
C4877 C4872 1.363 . S
C4877 C4876 1.415 . S
H4878 C4875 0.999 . S
H4879 C4860 0.913 . S
H4880 C4898 0.951 . S
H4881 C4900 0.951 . S
H4882 C4902 0.950 . S
H4883 C4903 0.950 . S
H4884 C4905 0.950 . S
H4885 C4908 0.950 . S
H4886 C4909 0.950 . S
H4887 C4911 0.950 . S
H4888 C4912 0.950 . S
H4889 C4913 0.951 . S
H4890 C4915 0.951 . S
H4891 C4917 0.950 . S
H4892 C4918 0.950 . S
H4893 C4920 0.950 . S
H4894 C4923 0.950 . S
H4895 C4924 0.950 . S
H4896 C4926 0.950 . S
H4897 C4927 0.950 . S
C4898 H4880 0.951 . S
C4898 C4899 1.366 . S
C4898 C4900 1.388 . S
C4899 C4898 1.366 . S
C4899 C4903 1.385 . S
C4900 H4881 0.951 . S
C4900 C4898 1.388 . S
C4900 C4901 1.366 . S
C4901 C4900 1.366 . S
C4901 C4902 1.414 . S
C4901 C4904 1.499 . S
C4902 H4882 0.950 . S
C4902 C4901 1.414 . S
C4902 C4903 1.374 . S
C4903 H4883 0.950 . S
C4903 C4899 1.385 . S
C4903 C4902 1.374 . S
C4904 C4901 1.499 . S
C4904 C4905 1.373 . S
C4904 C4906 1.389 . S
C4905 H4884 0.950 . S
C4905 C4904 1.373 . S
C4905 C4921 1.377 . S
C4906 C4904 1.389 . S
C4906 C4907 1.524 . S
C4906 C4920 1.377 . S
C4907 C4906 1.524 . S
C4907 C4908 1.397 . S
C4907 C4912 1.363 . S
C4908 H4885 0.950 . S
C4908 C4907 1.397 . S
C4908 C4909 1.334 . S
C4909 H4886 0.950 . S
C4909 C4908 1.334 . S
C4909 C4910 1.287 . S
C4910 C4909 1.287 . S
C4910 C4911 1.524 . S
C4910 H4929 0.913 . S
C4911 H4887 0.950 . S
C4911 C4910 1.524 . S
C4911 C4912 1.415 . S
C4912 H4888 0.950 . S
C4912 C4907 1.363 . S
C4912 C4911 1.415 . S
C4913 H4889 0.951 . S
C4913 C4914 1.366 . S
C4913 C4915 1.388 . S
C4914 C4913 1.366 . S
C4914 C4918 1.385 . S
C4915 H4890 0.951 . S
C4915 C4913 1.388 . S
C4915 C4916 1.366 . S
C4916 C4915 1.366 . S
C4916 C4917 1.414 . S
C4916 C4919 1.499 . S
C4917 H4891 0.950 . S
C4917 C4916 1.414 . S
C4917 C4918 1.374 . S
C4918 H4892 0.950 . S
C4918 C4914 1.385 . S
C4918 C4917 1.374 . S
C4919 C4916 1.499 . S
C4919 C4920 1.373 . S
C4919 C4921 1.389 . S
C4920 H4893 0.950 . S
C4920 C4906 1.377 . S
C4920 C4919 1.373 . S
C4921 C4905 1.377 . S
C4921 C4919 1.389 . S
C4921 C4922 1.524 . S
C4922 C4921 1.524 . S
C4922 C4923 1.397 . S
C4922 C4927 1.363 . S
C4923 H4894 0.950 . S
C4923 C4922 1.397 . S
C4923 C4924 1.334 . S
C4924 H4895 0.950 . S
C4924 C4923 1.334 . S
C4924 C4925 1.287 . S
C4925 C4924 1.287 . S
C4925 C4926 1.524 . S
C4925 H4928 0.999 . S
C4926 H4896 0.950 . S
C4926 C4925 1.524 . S
C4926 C4927 1.415 . S
C4927 H4897 0.950 . S
C4927 C4922 1.363 . S
C4927 C4926 1.415 . S
H4928 C4925 0.999 . S
H4929 C4910 0.913 . S
H4930 C4948 0.951 . S
H4931 C4950 0.951 . S
H4932 C4952 0.950 . S
H4933 C4953 0.950 . S
H4934 C4955 0.950 . S
H4935 C4958 0.950 . S
H4936 C4959 0.950 . S
H4937 C4961 0.950 . S
H4938 C4962 0.950 . S
H4939 C4963 0.951 . S
H4940 C4965 0.951 . S
H4941 C4967 0.950 . S
H4942 C4968 0.950 . S
H4943 C4970 0.950 . S
H4944 C4973 0.950 . S
H4945 C4974 0.950 . S
H4946 C4976 0.950 . S
H4947 C4977 0.950 . S
C4948 H4930 0.951 . S
C4948 C4949 1.366 . S
C4948 C4950 1.388 . S
C4949 C4948 1.366 . S
C4949 C4953 1.385 . S
C4950 H4931 0.951 . S
C4950 C4948 1.388 . S
C4950 C4951 1.366 . S
C4951 C4950 1.366 . S
C4951 C4952 1.414 . S
C4951 C4954 1.499 . S
C4952 H4932 0.950 . S
C4952 C4951 1.414 . S
C4952 C4953 1.374 . S
C4953 H4933 0.950 . S
C4953 C4949 1.385 . S
C4953 C4952 1.374 . S
C4954 C4951 1.499 . S
C4954 C4955 1.373 . S
C4954 C4956 1.389 . S
C4955 H4934 0.950 . S
C4955 C4954 1.373 . S
C4955 C4971 1.377 . S
C4956 C4954 1.389 . S
C4956 C4957 1.524 . S
C4956 C4970 1.377 . S
C4957 C4956 1.524 . S
C4957 C4958 1.397 . S
C4957 C4962 1.363 . S
C4958 H4935 0.950 . S
C4958 C4957 1.397 . S
C4958 C4959 1.334 . S
C4959 H4936 0.950 . S
C4959 C4958 1.334 . S
C4959 C4960 1.287 . S
C4960 C4959 1.287 . S
C4960 C4961 1.524 . S
C4960 H4979 0.913 . S
C4961 H4937 0.950 . S
C4961 C4960 1.524 . S
C4961 C4962 1.415 . S
C4962 H4938 0.950 . S
C4962 C4957 1.363 . S
C4962 C4961 1.415 . S
C4963 H4939 0.951 . S
C4963 C4964 1.366 . S
C4963 C4965 1.388 . S
C4964 C4963 1.366 . S
C4964 C4968 1.385 . S
C4965 H4940 0.951 . S
C4965 C4963 1.388 . S
C4965 C4966 1.366 . S
C4966 C4965 1.366 . S
C4966 C4967 1.414 . S
C4966 C4969 1.499 . S
C4967 H4941 0.950 . S
C4967 C4966 1.414 . S
C4967 C4968 1.374 . S
C4968 H4942 0.950 . S
C4968 C4964 1.385 . S
C4968 C4967 1.374 . S
C4969 C4966 1.499 . S
C4969 C4970 1.373 . S
C4969 C4971 1.389 . S
C4970 H4943 0.950 . S
C4970 C4956 1.377 . S
C4970 C4969 1.373 . S
C4971 C4955 1.377 . S
C4971 C4969 1.389 . S
C4971 C4972 1.524 . S
C4972 C4971 1.524 . S
C4972 C4973 1.397 . S
C4972 C4977 1.363 . S
C4973 H4944 0.950 . S
C4973 C4972 1.397 . S
C4973 C4974 1.334 . S
C4974 H4945 0.950 . S
C4974 C4973 1.334 . S
C4974 C4975 1.287 . S
C4975 C4974 1.287 . S
C4975 C4976 1.524 . S
C4975 H4978 0.999 . S
C4976 H4946 0.950 . S
C4976 C4975 1.524 . S
C4976 C4977 1.415 . S
C4977 H4947 0.950 . S
C4977 C4972 1.363 . S
C4977 C4976 1.415 . S
H4978 C4975 0.999 . S
H4979 C4960 0.913 . S
H4980 C4998 0.951 . S
H4981 C5000 0.951 . S
H4982 C5002 0.950 . S
H4983 C5003 0.950 . S
H4984 C5005 0.950 . S
H4985 C5008 0.950 . S
H4986 C5009 0.950 . S
H4987 C5011 0.950 . S
H4988 C5012 0.950 . S
H4989 C5013 0.951 . S
H4990 C5015 0.951 . S
H4991 C5017 0.950 . S
H4992 C5018 0.950 . S
H4993 C5020 0.950 . S
H4994 C5023 0.950 . S
H4995 C5024 0.950 . S
H4996 C5026 0.950 . S
H4997 C5027 0.950 . S
C4998 H4980 0.951 . S
C4998 C4999 1.366 . S
C4998 C5000 1.388 . S
C4999 C4998 1.366 . S
C4999 C5003 1.385 . S
C5000 H4981 0.951 . S
C5000 C4998 1.388 . S
C5000 C5001 1.366 . S
C5001 C5000 1.366 . S
C5001 C5002 1.414 . S
C5001 C5004 1.499 . S
C5002 H4982 0.950 . S
C5002 C5001 1.414 . S
C5002 C5003 1.374 . S
C5003 H4983 0.950 . S
C5003 C4999 1.385 . S
C5003 C5002 1.374 . S
C5004 C5001 1.499 . S
C5004 C5005 1.373 . S
C5004 C5006 1.389 . S
C5005 H4984 0.950 . S
C5005 C5004 1.373 . S
C5005 C5021 1.377 . S
C5006 C5004 1.389 . S
C5006 C5007 1.524 . S
C5006 C5020 1.377 . S
C5007 C5006 1.524 . S
C5007 C5008 1.397 . S
C5007 C5012 1.363 . S
C5008 H4985 0.950 . S
C5008 C5007 1.397 . S
C5008 C5009 1.334 . S
C5009 H4986 0.950 . S
C5009 C5008 1.334 . S
C5009 C5010 1.287 . S
C5010 C5009 1.287 . S
C5010 C5011 1.524 . S
C5010 H5029 0.913 . S
C5011 H4987 0.950 . S
C5011 C5010 1.524 . S
C5011 C5012 1.415 . S
C5012 H4988 0.950 . S
C5012 C5007 1.363 . S
C5012 C5011 1.415 . S
C5013 H4989 0.951 . S
C5013 C5014 1.366 . S
C5013 C5015 1.388 . S
C5014 C5013 1.366 . S
C5014 C5018 1.385 . S
C5015 H4990 0.951 . S
C5015 C5013 1.388 . S
C5015 C5016 1.366 . S
C5016 C5015 1.366 . S
C5016 C5017 1.414 . S
C5016 C5019 1.499 . S
C5017 H4991 0.950 . S
C5017 C5016 1.414 . S
C5017 C5018 1.374 . S
C5018 H4992 0.950 . S
C5018 C5014 1.385 . S
C5018 C5017 1.374 . S
C5019 C5016 1.499 . S
C5019 C5020 1.373 . S
C5019 C5021 1.389 . S
C5020 H4993 0.950 . S
C5020 C5006 1.377 . S
C5020 C5019 1.373 . S
C5021 C5005 1.377 . S
C5021 C5019 1.389 . S
C5021 C5022 1.524 . S
C5022 C5021 1.524 . S
C5022 C5023 1.397 . S
C5022 C5027 1.363 . S
C5023 H4994 0.950 . S
C5023 C5022 1.397 . S
C5023 C5024 1.334 . S
C5024 H4995 0.950 . S
C5024 C5023 1.334 . S
C5024 C5025 1.287 . S
C5025 C5024 1.287 . S
C5025 C5026 1.524 . S
C5025 H5028 0.999 . S
C5026 H4996 0.950 . S
C5026 C5025 1.524 . S
C5026 C5027 1.415 . S
C5027 H4997 0.950 . S
C5027 C5022 1.363 . S
C5027 C5026 1.415 . S
H5028 C5025 0.999 . S
H5029 C5010 0.913 . S
H5030 C5048 0.951 . S
H5031 C5050 0.951 . S
H5032 C5052 0.950 . S
H5033 C5053 0.950 . S
H5034 C5055 0.950 . S
H5035 C5058 0.950 . S
H5036 C5059 0.950 . S
H5037 C5061 0.950 . S
H5038 C5062 0.950 . S
H5039 C5063 0.951 . S
H5040 C5065 0.951 . S
H5041 C5067 0.950 . S
H5042 C5068 0.950 . S
H5043 C5070 0.950 . S
H5044 C5073 0.950 . S
H5045 C5074 0.950 . S
H5046 C5076 0.950 . S
H5047 C5077 0.950 . S
C5048 H5030 0.951 . S
C5048 C5049 1.366 . S
C5048 C5050 1.388 . S
C5049 C5048 1.366 . S
C5049 C5053 1.385 . S
C5050 H5031 0.951 . S
C5050 C5048 1.388 . S
C5050 C5051 1.366 . S
C5051 C5050 1.366 . S
C5051 C5052 1.414 . S
C5051 C5054 1.499 . S
C5052 H5032 0.950 . S
C5052 C5051 1.414 . S
C5052 C5053 1.374 . S
C5053 H5033 0.950 . S
C5053 C5049 1.385 . S
C5053 C5052 1.374 . S
C5054 C5051 1.499 . S
C5054 C5055 1.373 . S
C5054 C5056 1.389 . S
C5055 H5034 0.950 . S
C5055 C5054 1.373 . S
C5055 C5071 1.377 . S
C5056 C5054 1.389 . S
C5056 C5057 1.524 . S
C5056 C5070 1.377 . S
C5057 C5056 1.524 . S
C5057 C5058 1.397 . S
C5057 C5062 1.363 . S
C5058 H5035 0.950 . S
C5058 C5057 1.397 . S
C5058 C5059 1.334 . S
C5059 H5036 0.950 . S
C5059 C5058 1.334 . S
C5059 C5060 1.287 . S
C5060 C5059 1.287 . S
C5060 C5061 1.524 . S
C5060 H5079 0.913 . S
C5061 H5037 0.950 . S
C5061 C5060 1.524 . S
C5061 C5062 1.415 . S
C5062 H5038 0.950 . S
C5062 C5057 1.363 . S
C5062 C5061 1.415 . S
C5063 H5039 0.951 . S
C5063 C5064 1.366 . S
C5063 C5065 1.388 . S
C5064 C5063 1.366 . S
C5064 C5068 1.385 . S
C5065 H5040 0.951 . S
C5065 C5063 1.388 . S
C5065 C5066 1.366 . S
C5066 C5065 1.366 . S
C5066 C5067 1.414 . S
C5066 C5069 1.499 . S
C5067 H5041 0.950 . S
C5067 C5066 1.414 . S
C5067 C5068 1.374 . S
C5068 H5042 0.950 . S
C5068 C5064 1.385 . S
C5068 C5067 1.374 . S
C5069 C5066 1.499 . S
C5069 C5070 1.373 . S
C5069 C5071 1.389 . S
C5070 H5043 0.950 . S
C5070 C5056 1.377 . S
C5070 C5069 1.373 . S
C5071 C5055 1.377 . S
C5071 C5069 1.389 . S
C5071 C5072 1.524 . S
C5072 C5071 1.524 . S
C5072 C5073 1.397 . S
C5072 C5077 1.363 . S
C5073 H5044 0.950 . S
C5073 C5072 1.397 . S
C5073 C5074 1.334 . S
C5074 H5045 0.950 . S
C5074 C5073 1.334 . S
C5074 C5075 1.287 . S
C5075 C5074 1.287 . S
C5075 C5076 1.524 . S
C5075 H5078 0.999 . S
C5076 H5046 0.950 . S
C5076 C5075 1.524 . S
C5076 C5077 1.415 . S
C5077 H5047 0.950 . S
C5077 C5072 1.363 . S
C5077 C5076 1.415 . S
H5078 C5075 0.999 . S
H5079 C5060 0.913 . S
H5080 C5098 0.951 . S
H5081 C5100 0.951 . S
H5082 C5102 0.950 . S
H5083 C5103 0.950 . S
H5084 C5105 0.950 . S
H5085 C5108 0.950 . S
H5086 C5109 0.950 . S
H5087 C5111 0.950 . S
H5088 C5112 0.950 . S
H5089 C5113 0.951 . S
H5090 C5115 0.951 . S
H5091 C5117 0.950 . S
H5092 C5118 0.950 . S
H5093 C5120 0.950 . S
H5094 C5123 0.950 . S
H5095 C5124 0.950 . S
H5096 C5126 0.950 . S
H5097 C5127 0.950 . S
C5098 H5080 0.951 . S
C5098 C5099 1.366 . S
C5098 C5100 1.388 . S
C5099 C5098 1.366 . S
C5099 C5103 1.385 . S
C5100 H5081 0.951 . S
C5100 C5098 1.388 . S
C5100 C5101 1.366 . S
C5101 C5100 1.366 . S
C5101 C5102 1.414 . S
C5101 C5104 1.499 . S
C5102 H5082 0.950 . S
C5102 C5101 1.414 . S
C5102 C5103 1.374 . S
C5103 H5083 0.950 . S
C5103 C5099 1.385 . S
C5103 C5102 1.374 . S
C5104 C5101 1.499 . S
C5104 C5105 1.373 . S
C5104 C5106 1.389 . S
C5105 H5084 0.950 . S
C5105 C5104 1.373 . S
C5105 C5121 1.377 . S
C5106 C5104 1.389 . S
C5106 C5107 1.524 . S
C5106 C5120 1.377 . S
C5107 C5106 1.524 . S
C5107 C5108 1.397 . S
C5107 C5112 1.363 . S
C5108 H5085 0.950 . S
C5108 C5107 1.397 . S
C5108 C5109 1.334 . S
C5109 H5086 0.950 . S
C5109 C5108 1.334 . S
C5109 C5110 1.287 . S
C5110 C5109 1.287 . S
C5110 C5111 1.524 . S
C5110 H5129 0.913 . S
C5111 H5087 0.950 . S
C5111 C5110 1.524 . S
C5111 C5112 1.415 . S
C5112 H5088 0.950 . S
C5112 C5107 1.363 . S
C5112 C5111 1.415 . S
C5113 H5089 0.951 . S
C5113 C5114 1.366 . S
C5113 C5115 1.388 . S
C5114 C5113 1.366 . S
C5114 C5118 1.385 . S
C5115 H5090 0.951 . S
C5115 C5113 1.388 . S
C5115 C5116 1.366 . S
C5116 C5115 1.366 . S
C5116 C5117 1.414 . S
C5116 C5119 1.499 . S
C5117 H5091 0.950 . S
C5117 C5116 1.414 . S
C5117 C5118 1.374 . S
C5118 H5092 0.950 . S
C5118 C5114 1.385 . S
C5118 C5117 1.374 . S
C5119 C5116 1.499 . S
C5119 C5120 1.373 . S
C5119 C5121 1.389 . S
C5120 H5093 0.950 . S
C5120 C5106 1.377 . S
C5120 C5119 1.373 . S
C5121 C5105 1.377 . S
C5121 C5119 1.389 . S
C5121 C5122 1.524 . S
C5122 C5121 1.524 . S
C5122 C5123 1.397 . S
C5122 C5127 1.363 . S
C5123 H5094 0.950 . S
C5123 C5122 1.397 . S
C5123 C5124 1.334 . S
C5124 H5095 0.950 . S
C5124 C5123 1.334 . S
C5124 C5125 1.287 . S
C5125 C5124 1.287 . S
C5125 C5126 1.524 . S
C5125 H5128 0.999 . S
C5126 H5096 0.950 . S
C5126 C5125 1.524 . S
C5126 C5127 1.415 . S
C5127 H5097 0.950 . S
C5127 C5122 1.363 . S
C5127 C5126 1.415 . S
H5128 C5125 0.999 . S
H5129 C5110 0.913 . S
H5130 C5148 0.951 . S
H5131 C5150 0.951 . S
H5132 C5152 0.950 . S
H5133 C5153 0.950 . S
H5134 C5155 0.950 . S
H5135 C5158 0.950 . S
H5136 C5159 0.950 . S
H5137 C5161 0.950 . S
H5138 C5162 0.950 . S
H5139 C5163 0.951 . S
H5140 C5165 0.951 . S
H5141 C5167 0.950 . S
H5142 C5168 0.950 . S
H5143 C5170 0.950 . S
H5144 C5173 0.950 . S
H5145 C5174 0.950 . S
H5146 C5176 0.950 . S
H5147 C5177 0.950 . S
C5148 H5130 0.951 . S
C5148 C5149 1.366 . S
C5148 C5150 1.388 . S
C5149 C5148 1.366 . S
C5149 C5153 1.385 . S
C5150 H5131 0.951 . S
C5150 C5148 1.388 . S
C5150 C5151 1.366 . S
C5151 C5150 1.366 . S
C5151 C5152 1.414 . S
C5151 C5154 1.499 . S
C5152 H5132 0.950 . S
C5152 C5151 1.414 . S
C5152 C5153 1.374 . S
C5153 H5133 0.950 . S
C5153 C5149 1.385 . S
C5153 C5152 1.374 . S
C5154 C5151 1.499 . S
C5154 C5155 1.373 . S
C5154 C5156 1.389 . S
C5155 H5134 0.950 . S
C5155 C5154 1.373 . S
C5155 C5171 1.377 . S
C5156 C5154 1.389 . S
C5156 C5157 1.524 . S
C5156 C5170 1.377 . S
C5157 C5156 1.524 . S
C5157 C5158 1.397 . S
C5157 C5162 1.363 . S
C5158 H5135 0.950 . S
C5158 C5157 1.397 . S
C5158 C5159 1.334 . S
C5159 H5136 0.950 . S
C5159 C5158 1.334 . S
C5159 C5160 1.287 . S
C5160 C5159 1.287 . S
C5160 C5161 1.524 . S
C5160 H5179 0.913 . S
C5161 H5137 0.950 . S
C5161 C5160 1.524 . S
C5161 C5162 1.415 . S
C5162 H5138 0.950 . S
C5162 C5157 1.363 . S
C5162 C5161 1.415 . S
C5163 H5139 0.951 . S
C5163 C5164 1.366 . S
C5163 C5165 1.388 . S
C5164 C5163 1.366 . S
C5164 C5168 1.385 . S
C5165 H5140 0.951 . S
C5165 C5163 1.388 . S
C5165 C5166 1.366 . S
C5166 C5165 1.366 . S
C5166 C5167 1.414 . S
C5166 C5169 1.499 . S
C5167 H5141 0.950 . S
C5167 C5166 1.414 . S
C5167 C5168 1.374 . S
C5168 H5142 0.950 . S
C5168 C5164 1.385 . S
C5168 C5167 1.374 . S
C5169 C5166 1.499 . S
C5169 C5170 1.373 . S
C5169 C5171 1.389 . S
C5170 H5143 0.950 . S
C5170 C5156 1.377 . S
C5170 C5169 1.373 . S
C5171 C5155 1.377 . S
C5171 C5169 1.389 . S
C5171 C5172 1.524 . S
C5172 C5171 1.524 . S
C5172 C5173 1.397 . S
C5172 C5177 1.363 . S
C5173 H5144 0.950 . S
C5173 C5172 1.397 . S
C5173 C5174 1.334 . S
C5174 H5145 0.950 . S
C5174 C5173 1.334 . S
C5174 C5175 1.287 . S
C5175 C5174 1.287 . S
C5175 C5176 1.524 . S
C5175 H5178 0.999 . S
C5176 H5146 0.950 . S
C5176 C5175 1.524 . S
C5176 C5177 1.415 . S
C5177 H5147 0.950 . S
C5177 C5172 1.363 . S
C5177 C5176 1.415 . S
H5178 C5175 0.999 . S
H5179 C5160 0.913 . S
H5180 C5198 0.951 . S
H5181 C5200 0.951 . S
H5182 C5202 0.950 . S
H5183 C5203 0.950 . S
H5184 C5205 0.950 . S
H5185 C5208 0.950 . S
H5186 C5209 0.950 . S
H5187 C5211 0.950 . S
H5188 C5212 0.950 . S
H5189 C5213 0.951 . S
H5190 C5215 0.951 . S
H5191 C5217 0.950 . S
H5192 C5218 0.950 . S
H5193 C5220 0.950 . S
H5194 C5223 0.950 . S
H5195 C5224 0.950 . S
H5196 C5226 0.950 . S
H5197 C5227 0.950 . S
C5198 H5180 0.951 . S
C5198 C5199 1.366 . S
C5198 C5200 1.388 . S
C5199 C5198 1.366 . S
C5199 C5203 1.385 . S
C5200 H5181 0.951 . S
C5200 C5198 1.388 . S
C5200 C5201 1.366 . S
C5201 C5200 1.366 . S
C5201 C5202 1.414 . S
C5201 C5204 1.499 . S
C5202 H5182 0.950 . S
C5202 C5201 1.414 . S
C5202 C5203 1.374 . S
C5203 H5183 0.950 . S
C5203 C5199 1.385 . S
C5203 C5202 1.374 . S
C5204 C5201 1.499 . S
C5204 C5205 1.373 . S
C5204 C5206 1.389 . S
C5205 H5184 0.950 . S
C5205 C5204 1.373 . S
C5205 C5221 1.377 . S
C5206 C5204 1.389 . S
C5206 C5207 1.524 . S
C5206 C5220 1.377 . S
C5207 C5206 1.524 . S
C5207 C5208 1.397 . S
C5207 C5212 1.363 . S
C5208 H5185 0.950 . S
C5208 C5207 1.397 . S
C5208 C5209 1.334 . S
C5209 H5186 0.950 . S
C5209 C5208 1.334 . S
C5209 C5210 1.287 . S
C5210 C5209 1.287 . S
C5210 C5211 1.524 . S
C5210 H5229 0.913 . S
C5211 H5187 0.950 . S
C5211 C5210 1.524 . S
C5211 C5212 1.415 . S
C5212 H5188 0.950 . S
C5212 C5207 1.363 . S
C5212 C5211 1.415 . S
C5213 H5189 0.951 . S
C5213 C5214 1.366 . S
C5213 C5215 1.388 . S
C5214 C5213 1.366 . S
C5214 C5218 1.385 . S
C5215 H5190 0.951 . S
C5215 C5213 1.388 . S
C5215 C5216 1.366 . S
C5216 C5215 1.366 . S
C5216 C5217 1.414 . S
C5216 C5219 1.499 . S
C5217 H5191 0.950 . S
C5217 C5216 1.414 . S
C5217 C5218 1.374 . S
C5218 H5192 0.950 . S
C5218 C5214 1.385 . S
C5218 C5217 1.374 . S
C5219 C5216 1.499 . S
C5219 C5220 1.373 . S
C5219 C5221 1.389 . S
C5220 H5193 0.950 . S
C5220 C5206 1.377 . S
C5220 C5219 1.373 . S
C5221 C5205 1.377 . S
C5221 C5219 1.389 . S
C5221 C5222 1.524 . S
C5222 C5221 1.524 . S
C5222 C5223 1.397 . S
C5222 C5227 1.363 . S
C5223 H5194 0.950 . S
C5223 C5222 1.397 . S
C5223 C5224 1.334 . S
C5224 H5195 0.950 . S
C5224 C5223 1.334 . S
C5224 C5225 1.287 . S
C5225 C5224 1.287 . S
C5225 C5226 1.524 . S
C5225 H5228 0.999 . S
C5226 H5196 0.950 . S
C5226 C5225 1.524 . S
C5226 C5227 1.415 . S
C5227 H5197 0.950 . S
C5227 C5222 1.363 . S
C5227 C5226 1.415 . S
H5228 C5225 0.999 . S
H5229 C5210 0.913 . S
H5230 C5248 0.951 . S
H5231 C5250 0.951 . S
H5232 C5252 0.950 . S
H5233 C5253 0.950 . S
H5234 C5255 0.950 . S
H5235 C5258 0.950 . S
H5236 C5259 0.950 . S
H5237 C5261 0.950 . S
H5238 C5262 0.950 . S
H5239 C5263 0.951 . S
H5240 C5265 0.951 . S
H5241 C5267 0.950 . S
H5242 C5268 0.950 . S
H5243 C5270 0.950 . S
H5244 C5273 0.950 . S
H5245 C5274 0.950 . S
H5246 C5276 0.950 . S
H5247 C5277 0.950 . S
C5248 H5230 0.951 . S
C5248 C5249 1.366 . S
C5248 C5250 1.388 . S
C5249 C5248 1.366 . S
C5249 C5253 1.385 . S
C5250 H5231 0.951 . S
C5250 C5248 1.388 . S
C5250 C5251 1.366 . S
C5251 C5250 1.366 . S
C5251 C5252 1.414 . S
C5251 C5254 1.499 . S
C5252 H5232 0.950 . S
C5252 C5251 1.414 . S
C5252 C5253 1.374 . S
C5253 H5233 0.950 . S
C5253 C5249 1.385 . S
C5253 C5252 1.374 . S
C5254 C5251 1.499 . S
C5254 C5255 1.373 . S
C5254 C5256 1.389 . S
C5255 H5234 0.950 . S
C5255 C5254 1.373 . S
C5255 C5271 1.377 . S
C5256 C5254 1.389 . S
C5256 C5257 1.524 . S
C5256 C5270 1.377 . S
C5257 C5256 1.524 . S
C5257 C5258 1.397 . S
C5257 C5262 1.363 . S
C5258 H5235 0.950 . S
C5258 C5257 1.397 . S
C5258 C5259 1.334 . S
C5259 H5236 0.950 . S
C5259 C5258 1.334 . S
C5259 C5260 1.287 . S
C5260 C5259 1.287 . S
C5260 C5261 1.524 . S
C5260 H5279 0.913 . S
C5261 H5237 0.950 . S
C5261 C5260 1.524 . S
C5261 C5262 1.415 . S
C5262 H5238 0.950 . S
C5262 C5257 1.363 . S
C5262 C5261 1.415 . S
C5263 H5239 0.951 . S
C5263 C5264 1.366 . S
C5263 C5265 1.388 . S
C5264 C5263 1.366 . S
C5264 C5268 1.385 . S
C5265 H5240 0.951 . S
C5265 C5263 1.388 . S
C5265 C5266 1.366 . S
C5266 C5265 1.366 . S
C5266 C5267 1.414 . S
C5266 C5269 1.499 . S
C5267 H5241 0.950 . S
C5267 C5266 1.414 . S
C5267 C5268 1.374 . S
C5268 H5242 0.950 . S
C5268 C5264 1.385 . S
C5268 C5267 1.374 . S
C5269 C5266 1.499 . S
C5269 C5270 1.373 . S
C5269 C5271 1.389 . S
C5270 H5243 0.950 . S
C5270 C5256 1.377 . S
C5270 C5269 1.373 . S
C5271 C5255 1.377 . S
C5271 C5269 1.389 . S
C5271 C5272 1.524 . S
C5272 C5271 1.524 . S
C5272 C5273 1.397 . S
C5272 C5277 1.363 . S
C5273 H5244 0.950 . S
C5273 C5272 1.397 . S
C5273 C5274 1.334 . S
C5274 H5245 0.950 . S
C5274 C5273 1.334 . S
C5274 C5275 1.287 . S
C5275 C5274 1.287 . S
C5275 C5276 1.524 . S
C5275 H5278 0.999 . S
C5276 H5246 0.950 . S
C5276 C5275 1.524 . S
C5276 C5277 1.415 . S
C5277 H5247 0.950 . S
C5277 C5272 1.363 . S
C5277 C5276 1.415 . S
H5278 C5275 0.999 . S
H5279 C5260 0.913 . S
H5280 C5298 0.951 . S
H5281 C5300 0.951 . S
H5282 C5302 0.950 . S
H5283 C5303 0.950 . S
H5284 C5305 0.950 . S
H5285 C5308 0.950 . S
H5286 C5309 0.950 . S
H5287 C5311 0.950 . S
H5288 C5312 0.950 . S
H5289 C5313 0.951 . S
H5290 C5315 0.951 . S
H5291 C5317 0.950 . S
H5292 C5318 0.950 . S
H5293 C5320 0.950 . S
H5294 C5323 0.950 . S
H5295 C5324 0.950 . S
H5296 C5326 0.950 . S
H5297 C5327 0.950 . S
C5298 H5280 0.951 . S
C5298 C5299 1.366 . S
C5298 C5300 1.388 . S
C5299 C5298 1.366 . S
C5299 C5303 1.385 . S
C5300 H5281 0.951 . S
C5300 C5298 1.388 . S
C5300 C5301 1.366 . S
C5301 C5300 1.366 . S
C5301 C5302 1.414 . S
C5301 C5304 1.499 . S
C5302 H5282 0.950 . S
C5302 C5301 1.414 . S
C5302 C5303 1.374 . S
C5303 H5283 0.950 . S
C5303 C5299 1.385 . S
C5303 C5302 1.374 . S
C5304 C5301 1.499 . S
C5304 C5305 1.373 . S
C5304 C5306 1.389 . S
C5305 H5284 0.950 . S
C5305 C5304 1.373 . S
C5305 C5321 1.377 . S
C5306 C5304 1.389 . S
C5306 C5307 1.524 . S
C5306 C5320 1.377 . S
C5307 C5306 1.524 . S
C5307 C5308 1.397 . S
C5307 C5312 1.363 . S
C5308 H5285 0.950 . S
C5308 C5307 1.397 . S
C5308 C5309 1.334 . S
C5309 H5286 0.950 . S
C5309 C5308 1.334 . S
C5309 C5310 1.287 . S
C5310 C5309 1.287 . S
C5310 C5311 1.524 . S
C5310 H5329 0.913 . S
C5311 H5287 0.950 . S
C5311 C5310 1.524 . S
C5311 C5312 1.415 . S
C5312 H5288 0.950 . S
C5312 C5307 1.363 . S
C5312 C5311 1.415 . S
C5313 H5289 0.951 . S
C5313 C5314 1.366 . S
C5313 C5315 1.388 . S
C5314 C5313 1.366 . S
C5314 C5318 1.385 . S
C5315 H5290 0.951 . S
C5315 C5313 1.388 . S
C5315 C5316 1.366 . S
C5316 C5315 1.366 . S
C5316 C5317 1.414 . S
C5316 C5319 1.499 . S
C5317 H5291 0.950 . S
C5317 C5316 1.414 . S
C5317 C5318 1.374 . S
C5318 H5292 0.950 . S
C5318 C5314 1.385 . S
C5318 C5317 1.374 . S
C5319 C5316 1.499 . S
C5319 C5320 1.373 . S
C5319 C5321 1.389 . S
C5320 H5293 0.950 . S
C5320 C5306 1.377 . S
C5320 C5319 1.373 . S
C5321 C5305 1.377 . S
C5321 C5319 1.389 . S
C5321 C5322 1.524 . S
C5322 C5321 1.524 . S
C5322 C5323 1.397 . S
C5322 C5327 1.363 . S
C5323 H5294 0.950 . S
C5323 C5322 1.397 . S
C5323 C5324 1.334 . S
C5324 H5295 0.950 . S
C5324 C5323 1.334 . S
C5324 C5325 1.287 . S
C5325 C5324 1.287 . S
C5325 C5326 1.524 . S
C5325 H5328 0.999 . S
C5326 H5296 0.950 . S
C5326 C5325 1.524 . S
C5326 C5327 1.415 . S
C5327 H5297 0.950 . S
C5327 C5322 1.363 . S
C5327 C5326 1.415 . S
H5328 C5325 0.999 . S
H5329 C5310 0.913 . S
H5330 C5348 0.951 . S
H5331 C5350 0.951 . S
H5332 C5352 0.950 . S
H5333 C5353 0.950 . S
H5334 C5355 0.950 . S
H5335 C5358 0.950 . S
H5336 C5359 0.950 . S
H5337 C5361 0.950 . S
H5338 C5362 0.950 . S
H5339 C5363 0.951 . S
H5340 C5365 0.951 . S
H5341 C5367 0.950 . S
H5342 C5368 0.950 . S
H5343 C5370 0.950 . S
H5344 C5373 0.950 . S
H5345 C5374 0.950 . S
H5346 C5376 0.950 1_565 S
H5347 C5377 0.950 . S
C5348 H5330 0.951 . S
C5348 C5349 1.366 . S
C5348 C5350 1.388 . S
C5349 C5348 1.366 . S
C5349 C5353 1.385 . S
C5350 H5331 0.951 . S
C5350 C5348 1.388 . S
C5350 C5351 1.366 . S
C5351 C5350 1.366 . S
C5351 C5352 1.414 . S
C5351 C5354 1.499 . S
C5352 H5332 0.950 . S
C5352 C5351 1.414 . S
C5352 C5353 1.374 . S
C5353 H5333 0.950 . S
C5353 C5349 1.385 . S
C5353 C5352 1.374 . S
C5354 C5351 1.499 . S
C5354 C5355 1.373 . S
C5354 C5356 1.389 . S
C5355 H5334 0.950 . S
C5355 C5354 1.373 . S
C5355 C5371 1.377 . S
C5356 C5354 1.389 . S
C5356 C5357 1.524 . S
C5356 C5370 1.377 . S
C5357 C5356 1.524 . S
C5357 C5358 1.397 . S
C5357 C5362 1.363 . S
C5358 H5335 0.950 . S
C5358 C5357 1.397 . S
C5358 C5359 1.334 . S
C5359 H5336 0.950 . S
C5359 C5358 1.334 . S
C5359 C5360 1.287 . S
C5360 C5359 1.287 . S
C5360 C5361 1.524 . S
C5360 H5379 0.913 . S
C5361 H5337 0.950 . S
C5361 C5360 1.524 . S
C5361 C5362 1.415 . S
C5362 H5338 0.950 . S
C5362 C5357 1.363 . S
C5362 C5361 1.415 . S
C5363 H5339 0.951 . S
C5363 C5364 1.366 . S
C5363 C5365 1.388 . S
C5364 C5363 1.366 . S
C5364 C5368 1.385 . S
C5365 H5340 0.951 . S
C5365 C5363 1.388 . S
C5365 C5366 1.366 . S
C5366 C5365 1.366 . S
C5366 C5367 1.414 . S
C5366 C5369 1.499 . S
C5367 H5341 0.950 . S
C5367 C5366 1.414 . S
C5367 C5368 1.374 . S
C5368 H5342 0.950 . S
C5368 C5364 1.385 . S
C5368 C5367 1.374 . S
C5369 C5366 1.499 . S
C5369 C5370 1.373 . S
C5369 C5371 1.389 . S
C5370 H5343 0.950 . S
C5370 C5356 1.377 . S
C5370 C5369 1.373 . S
C5371 C5355 1.377 . S
C5371 C5369 1.389 . S
C5371 C5372 1.524 . S
C5372 C5371 1.524 . S
C5372 C5373 1.397 . S
C5372 C5377 1.363 . S
C5373 H5344 0.950 . S
C5373 C5372 1.397 . S
C5373 C5374 1.334 . S
C5374 H5345 0.950 . S
C5374 C5373 1.334 . S
C5374 C5375 1.287 . S
C5375 C5374 1.287 . S
C5375 C5376 1.524 . S
C5375 H5378 0.999 . S
C5376 H5346 0.950 1_545 S
C5376 C5375 1.524 . S
C5376 C5377 1.415 . S
C5377 H5347 0.950 . S
C5377 C5372 1.363 . S
C5377 C5376 1.415 . S
H5378 C5375 0.999 . S
H5379 C5360 0.913 . S
H5380 C5398 0.951 . S
H5381 C5400 0.951 . S
H5382 C5402 0.950 . S
H5383 C5403 0.950 . S
H5384 C5405 0.950 . S
H5385 C5408 0.950 . S
H5386 C5409 0.950 . S
H5387 C5411 0.950 . S
H5388 C5412 0.950 . S
H5389 C5413 0.951 . S
H5390 C5415 0.951 . S
H5391 C5417 0.950 . S
H5392 C5418 0.950 . S
H5393 C5420 0.950 . S
H5394 C5423 0.950 . S
H5395 C5424 0.950 . S
H5396 C5426 0.950 . S
H5397 C5427 0.950 . S
C5398 H5380 0.951 . S
C5398 C5399 1.366 . S
C5398 C5400 1.388 . S
C5399 C5398 1.366 . S
C5399 C5403 1.385 . S
C5400 H5381 0.951 . S
C5400 C5398 1.388 . S
C5400 C5401 1.366 . S
C5401 C5400 1.366 . S
C5401 C5402 1.414 . S
C5401 C5404 1.499 . S
C5402 H5382 0.950 . S
C5402 C5401 1.414 . S
C5402 C5403 1.374 . S
C5403 H5383 0.950 . S
C5403 C5399 1.385 . S
C5403 C5402 1.374 . S
C5404 C5401 1.499 . S
C5404 C5405 1.373 . S
C5404 C5406 1.389 . S
C5405 H5384 0.950 . S
C5405 C5404 1.373 . S
C5405 C5421 1.377 . S
C5406 C5404 1.389 . S
C5406 C5407 1.524 . S
C5406 C5420 1.377 . S
C5407 C5406 1.524 . S
C5407 C5408 1.397 . S
C5407 C5412 1.363 . S
C5408 H5385 0.950 . S
C5408 C5407 1.397 . S
C5408 C5409 1.334 . S
C5409 H5386 0.950 . S
C5409 C5408 1.334 . S
C5409 C5410 1.287 . S
C5410 C5409 1.287 . S
C5410 C5411 1.524 . S
C5410 H5429 0.913 . S
C5411 H5387 0.950 . S
C5411 C5410 1.524 . S
C5411 C5412 1.415 . S
C5412 H5388 0.950 . S
C5412 C5407 1.363 . S
C5412 C5411 1.415 . S
C5413 H5389 0.951 . S
C5413 C5414 1.366 . S
C5413 C5415 1.388 . S
C5414 C5413 1.366 . S
C5414 C5418 1.385 . S
C5415 H5390 0.951 . S
C5415 C5413 1.388 . S
C5415 C5416 1.366 . S
C5416 C5415 1.366 . S
C5416 C5417 1.414 . S
C5416 C5419 1.499 . S
C5417 H5391 0.950 . S
C5417 C5416 1.414 . S
C5417 C5418 1.374 . S
C5418 H5392 0.950 . S
C5418 C5414 1.385 . S
C5418 C5417 1.374 . S
C5419 C5416 1.499 . S
C5419 C5420 1.373 . S
C5419 C5421 1.389 . S
C5420 H5393 0.950 . S
C5420 C5406 1.377 . S
C5420 C5419 1.373 . S
C5421 C5405 1.377 . S
C5421 C5419 1.389 . S
C5421 C5422 1.524 . S
C5422 C5421 1.524 . S
C5422 C5423 1.397 . S
C5422 C5427 1.363 . S
C5423 H5394 0.950 . S
C5423 C5422 1.397 . S
C5423 C5424 1.334 . S
C5424 H5395 0.950 . S
C5424 C5423 1.334 . S
C5424 C5425 1.287 . S
C5425 C5424 1.287 . S
C5425 C5426 1.524 . S
C5425 H5428 0.999 . S
C5426 H5396 0.950 . S
C5426 C5425 1.524 . S
C5426 C5427 1.415 . S
C5427 H5397 0.950 . S
C5427 C5422 1.363 . S
C5427 C5426 1.415 . S
H5428 C5425 0.999 . S
H5429 C5410 0.913 . S
H5430 C5448 0.968 . S
H5431 C5450 0.912 1_556 S
H5432 C5452 0.950 . S
H5433 C5453 0.950 . S
H5434 C5455 0.950 . S
H5435 C5458 0.950 . S
H5436 C5459 0.950 . S
H5437 C5461 0.950 . S
H5438 C5462 0.950 1_556 S
H5439 C5463 0.951 . S
H5440 C5465 0.951 . S
H5441 C5467 0.950 1_556 S
H5442 C5468 0.937 1_546 S
H5443 C5470 0.950 . S
H5444 C5473 0.950 . S
H5445 C5474 0.950 . S
H5446 C5476 0.950 . S
H5447 C5477 0.950 . S
C5448 H5430 0.968 . S
C5448 C5449 1.366 . S
C5448 C5450 1.388 . S
C5449 C5448 1.366 . S
C5449 C5453 1.385 . S
C5450 H5431 0.912 1_554 S
C5450 C5448 1.388 . S
C5450 C5451 1.366 . S
C5451 C5450 1.366 . S
C5451 C5452 1.414 . S
C5451 C5454 1.499 . S
C5452 H5432 0.950 . S
C5452 C5451 1.414 . S
C5452 C5453 1.374 . S
C5453 H5433 0.950 . S
C5453 C5449 1.385 . S
C5453 C5452 1.374 . S
C5454 C5451 1.499 . S
C5454 C5455 1.373 . S
C5454 C5456 1.389 . S
C5455 H5434 0.950 . S
C5455 C5454 1.373 . S
C5455 C5471 1.377 . S
C5456 C5454 1.389 . S
C5456 C5457 1.524 . S
C5456 C5470 1.377 . S
C5457 C5456 1.524 . S
C5457 C5458 1.397 . S
C5457 C5462 1.363 . S
C5458 H5435 0.950 . S
C5458 C5457 1.397 . S
C5458 C5459 1.334 . S
C5459 H5436 0.950 . S
C5459 C5458 1.334 . S
C5459 C5460 1.287 1_565 S
C5460 C5459 1.287 1_545 S
C5460 C5461 1.524 . S
C5460 H5479 0.913 . S
C5461 H5437 0.950 . S
C5461 C5460 1.524 . S
C5461 C5462 1.415 1_545 S
C5462 H5438 0.950 1_554 S
C5462 C5457 1.363 . S
C5462 C5461 1.415 1_565 S
C5463 H5439 0.951 . S
C5463 C5464 1.366 . S
C5463 C5465 1.388 . S
C5464 C5463 1.366 . S
C5464 C5468 1.397 . S
C5465 H5440 0.951 . S
C5465 C5463 1.388 . S
C5465 C5466 1.366 . S
C5466 C5465 1.366 . S
C5466 C5467 1.414 . S
C5466 C5469 1.499 . S
C5467 H5441 0.950 1_554 S
C5467 C5466 1.414 . S
C5467 C5468 1.374 . S
C5468 H5442 0.937 1_564 S
C5468 C5464 1.397 . S
C5468 C5467 1.374 . S
C5469 C5466 1.499 . S
C5469 C5470 1.373 . S
C5469 C5471 1.389 . S
C5470 H5443 0.950 . S
C5470 C5456 1.377 . S
C5470 C5469 1.373 . S
C5471 C5455 1.377 . S
C5471 C5469 1.389 . S
C5471 C5472 1.524 . S
C5472 C5471 1.524 . S
C5472 C5473 1.397 1_554 S
C5472 C5477 1.363 . S
C5473 H5444 0.950 . S
C5473 C5472 1.397 1_556 S
C5473 C5474 1.334 . S
C5474 H5445 0.950 . S
C5474 C5473 1.334 . S
C5474 C5475 1.287 1_556 S
C5475 C5474 1.287 1_554 S
C5475 C5476 1.524 . S
C5475 H5478 0.999 . S
C5476 H5446 0.950 . S
C5476 C5475 1.524 . S
C5476 C5477 1.415 . S
C5477 H5447 0.950 . S
C5477 C5472 1.363 . S
C5477 C5476 1.415 . S
H5478 C5475 0.999 . S
H5479 C5460 0.913 . S
H5480 C5498 0.951 . S
H5481 C5500 0.951 . S
H5482 C5502 0.950 . S
H5483 C5503 0.950 . S
H5484 C5505 0.950 . S
H5485 C5508 0.950 . S
H5486 C5509 0.950 . S
H5487 C5511 0.950 . S
H5488 C5512 0.950 . S
H5489 C5513 0.951 . S
H5490 C5515 0.951 . S
H5491 C5517 0.950 . S
H5492 C5518 0.950 . S
H5493 C5520 0.950 . S
H5494 C5523 0.950 . S
H5495 C5524 0.950 . S
H5496 C5526 0.950 . S
H5497 C5527 0.950 . S
C5498 H5480 0.951 . S
C5498 C5499 1.366 . S
C5498 C5500 1.388 . S
C5499 C5498 1.366 . S
C5499 C5503 1.385 . S
C5500 H5481 0.951 . S
C5500 C5498 1.388 . S
C5500 C5501 1.366 . S
C5501 C5500 1.366 . S
C5501 C5502 1.414 . S
C5501 C5504 1.499 . S
C5502 H5482 0.950 . S
C5502 C5501 1.414 . S
C5502 C5503 1.374 . S
C5503 H5483 0.950 . S
C5503 C5499 1.385 . S
C5503 C5502 1.374 . S
C5504 C5501 1.499 . S
C5504 C5505 1.373 . S
C5504 C5506 1.389 . S
C5505 H5484 0.950 . S
C5505 C5504 1.373 . S
C5505 C5521 1.377 . S
C5506 C5504 1.389 . S
C5506 C5507 1.524 . S
C5506 C5520 1.377 . S
C5507 C5506 1.524 . S
C5507 C5508 1.397 . S
C5507 C5512 1.363 . S
C5508 H5485 0.950 . S
C5508 C5507 1.397 . S
C5508 C5509 1.334 . S
C5509 H5486 0.950 . S
C5509 C5508 1.334 . S
C5509 C5510 1.287 . S
C5510 C5509 1.287 . S
C5510 C5511 1.524 . S
C5510 H5529 0.913 . S
C5511 H5487 0.950 . S
C5511 C5510 1.524 . S
C5511 C5512 1.415 . S
C5512 H5488 0.950 . S
C5512 C5507 1.363 . S
C5512 C5511 1.415 . S
C5513 H5489 0.951 . S
C5513 C5514 1.366 . S
C5513 C5515 1.388 . S
C5514 C5513 1.366 . S
C5514 C5518 1.385 . S
C5515 H5490 0.951 . S
C5515 C5513 1.388 . S
C5515 C5516 1.366 . S
C5516 C5515 1.366 . S
C5516 C5517 1.414 . S
C5516 C5519 1.499 . S
C5517 H5491 0.950 . S
C5517 C5516 1.414 . S
C5517 C5518 1.374 . S
C5518 H5492 0.950 . S
C5518 C5514 1.385 . S
C5518 C5517 1.374 . S
C5519 C5516 1.499 . S
C5519 C5520 1.373 . S
C5519 C5521 1.389 . S
C5520 H5493 0.950 . S
C5520 C5506 1.377 . S
C5520 C5519 1.373 . S
C5521 C5505 1.377 . S
C5521 C5519 1.389 . S
C5521 C5522 1.524 . S
C5522 C5521 1.524 . S
C5522 C5523 1.397 . S
C5522 C5527 1.363 . S
C5523 H5494 0.950 . S
C5523 C5522 1.397 . S
C5523 C5524 1.334 . S
C5524 H5495 0.950 . S
C5524 C5523 1.334 . S
C5524 C5525 1.287 . S
C5525 C5524 1.287 . S
C5525 C5526 1.524 . S
C5525 H5528 0.999 . S
C5526 H5496 0.950 . S
C5526 C5525 1.524 . S
C5526 C5527 1.415 . S
C5527 H5497 0.950 . S
C5527 C5522 1.363 . S
C5527 C5526 1.415 . S
H5528 C5525 0.999 . S
H5529 C5510 0.913 . S
H5530 C5548 0.951 . S
H5531 C5550 0.951 . S
H5532 C5552 0.950 . S
H5533 C5553 0.950 . S
H5534 C5555 0.950 . S
H5535 C5558 0.950 . S
H5536 C5559 0.950 . S
H5537 C5561 0.950 . S
H5538 C5562 0.950 . S
H5539 C5563 0.951 . S
H5540 C5565 0.951 . S
H5541 C5567 0.950 . S
H5542 C5568 0.950 . S
H5543 C5570 0.950 . S
H5544 C5573 0.950 . S
H5545 C5574 0.950 . S
H5546 C5576 0.950 . S
H5547 C5577 0.950 . S
C5548 H5530 0.951 . S
C5548 C5549 1.366 1_556 S
C5548 C5550 1.388 . S
C5549 C5548 1.366 1_554 S
C5549 C5553 1.385 . S
C5550 H5531 0.951 . S
C5550 C5548 1.388 . S
C5550 C5551 1.366 1_556 S
C5551 C5550 1.366 1_554 S
C5551 C5552 1.414 . S
C5551 C5554 1.499 . S
C5552 H5532 0.950 . S
C5552 C5551 1.414 . S
C5552 C5553 1.374 . S
C5553 H5533 0.950 . S
C5553 C5549 1.385 . S
C5553 C5552 1.374 . S
C5554 C5551 1.499 . S
C5554 C5555 1.373 . S
C5554 C5556 1.389 . S
C5555 H5534 0.950 . S
C5555 C5554 1.373 . S
C5555 C5571 1.377 . S
C5556 C5554 1.389 . S
C5556 C5557 1.524 . S
C5556 C5570 1.377 . S
C5557 C5556 1.524 . S
C5557 C5558 1.397 . S
C5557 C5562 1.363 . S
C5558 H5535 0.950 . S
C5558 C5557 1.397 . S
C5558 C5559 1.334 . S
C5559 H5536 0.950 . S
C5559 C5558 1.334 . S
C5559 C5560 1.287 . S
C5560 C5559 1.287 . S
C5560 C5561 1.524 . S
C5560 H5579 0.913 . S
C5561 H5537 0.950 . S
C5561 C5560 1.524 . S
C5561 C5562 1.415 . S
C5562 H5538 0.950 . S
C5562 C5557 1.363 . S
C5562 C5561 1.415 . S
C5563 H5539 0.951 . S
C5563 C5564 1.366 . S
C5563 C5565 1.388 . S
C5564 C5563 1.366 . S
C5564 C5568 1.385 . S
C5565 H5540 0.951 . S
C5565 C5563 1.388 . S
C5565 C5566 1.366 . S
C5566 C5565 1.366 . S
C5566 C5567 1.414 . S
C5566 C5569 1.499 . S
C5567 H5541 0.950 . S
C5567 C5566 1.414 . S
C5567 C5568 1.374 . S
C5568 H5542 0.950 . S
C5568 C5564 1.385 . S
C5568 C5567 1.374 . S
C5569 C5566 1.499 . S
C5569 C5570 1.373 . S
C5569 C5571 1.389 . S
C5570 H5543 0.950 . S
C5570 C5556 1.377 . S
C5570 C5569 1.373 . S
C5571 C5555 1.377 . S
C5571 C5569 1.389 . S
C5571 C5572 1.524 . S
C5572 C5571 1.524 . S
C5572 C5573 1.397 1_554 S
C5572 C5577 1.363 . S
C5573 H5544 0.950 . S
C5573 C5572 1.397 1_556 S
C5573 C5574 1.334 . S
C5574 H5545 0.950 . S
C5574 C5573 1.334 . S
C5574 C5575 1.272 1_556 S
C5575 C5574 1.272 1_554 S
C5575 C5576 1.548 . S
C5575 H5578 0.994 1_554 S
C5576 H5546 0.950 . S
C5576 C5575 1.548 . S
C5576 C5577 1.415 . S
C5577 H5547 0.950 . S
C5577 C5572 1.363 . S
C5577 C5576 1.415 . S
H5578 C5575 0.994 1_556 S
H5579 C5560 0.913 . S
H5580 C5598 0.951 . S
H5581 C5600 0.951 . S
H5582 C5602 0.950 . S
H5583 C5603 0.950 . S
H5584 C5605 0.950 . S
H5585 C5608 0.950 . S
H5586 C5609 0.950 . S
H5587 C5611 0.950 . S
H5588 C5612 0.950 . S
H5589 C5613 0.951 . S
H5590 C5615 0.951 . S
H5591 C5617 0.950 . S
H5592 C5618 0.950 . S
H5593 C5620 0.950 . S
H5594 C5623 0.950 . S
H5595 C5624 0.950 . S
H5596 C5626 0.950 . S
H5597 C5627 0.950 . S
C5598 H5580 0.951 . S
C5598 C5599 1.366 . S
C5598 C5600 1.388 . S
C5599 C5598 1.366 . S
C5599 C5603 1.385 . S
C5600 H5581 0.951 . S
C5600 C5598 1.388 . S
C5600 C5601 1.366 . S
C5601 C5600 1.366 . S
C5601 C5602 1.414 . S
C5601 C5604 1.499 . S
C5602 H5582 0.950 . S
C5602 C5601 1.414 . S
C5602 C5603 1.374 . S
C5603 H5583 0.950 . S
C5603 C5599 1.385 . S
C5603 C5602 1.374 . S
C5604 C5601 1.499 . S
C5604 C5605 1.373 . S
C5604 C5606 1.389 . S
C5605 H5584 0.950 . S
C5605 C5604 1.373 . S
C5605 C5621 1.377 . S
C5606 C5604 1.389 . S
C5606 C5607 1.524 . S
C5606 C5620 1.377 . S
C5607 C5606 1.524 . S
C5607 C5608 1.397 . S
C5607 C5612 1.363 . S
C5608 H5585 0.950 . S
C5608 C5607 1.397 . S
C5608 C5609 1.334 . S
C5609 H5586 0.950 . S
C5609 C5608 1.334 . S
C5609 C5610 1.287 . S
C5610 C5609 1.287 . S
C5610 C5611 1.524 . S
C5610 H5629 0.913 . S
C5611 H5587 0.950 . S
C5611 C5610 1.524 . S
C5611 C5612 1.415 . S
C5612 H5588 0.950 . S
C5612 C5607 1.363 . S
C5612 C5611 1.415 . S
C5613 H5589 0.951 . S
C5613 C5614 1.366 . S
C5613 C5615 1.388 . S
C5614 C5613 1.366 . S
C5614 C5618 1.385 . S
C5615 H5590 0.951 . S
C5615 C5613 1.388 . S
C5615 C5616 1.366 . S
C5616 C5615 1.366 . S
C5616 C5617 1.414 . S
C5616 C5619 1.499 . S
C5617 H5591 0.950 . S
C5617 C5616 1.414 . S
C5617 C5618 1.374 . S
C5618 H5592 0.950 . S
C5618 C5614 1.385 . S
C5618 C5617 1.374 . S
C5619 C5616 1.499 . S
C5619 C5620 1.373 . S
C5619 C5621 1.389 . S
C5620 H5593 0.950 . S
C5620 C5606 1.377 . S
C5620 C5619 1.373 . S
C5621 C5605 1.377 . S
C5621 C5619 1.389 . S
C5621 C5622 1.524 . S
C5622 C5621 1.524 . S
C5622 C5623 1.397 . S
C5622 C5627 1.363 . S
C5623 H5594 0.950 . S
C5623 C5622 1.397 . S
C5623 C5624 1.334 . S
C5624 H5595 0.950 . S
C5624 C5623 1.334 . S
C5624 C5625 1.287 . S
C5625 C5624 1.287 . S
C5625 C5626 1.524 . S
C5625 H5628 0.999 . S
C5626 H5596 0.950 . S
C5626 C5625 1.524 . S
C5626 C5627 1.415 . S
C5627 H5597 0.950 . S
C5627 C5622 1.363 . S
C5627 C5626 1.415 . S
H5628 C5625 0.999 . S
H5629 C5610 0.913 . S
H5630 C5648 0.951 . S
H5631 C5650 0.951 . S
H5632 C5652 0.950 . S
H5633 C5653 0.950 . S
H5634 C5655 0.950 . S
H5635 C5658 0.950 . S
H5636 C5659 0.950 . S
H5637 C5661 0.950 . S
H5638 C5662 0.950 . S
H5639 C5663 0.951 . S
H5640 C5665 0.951 . S
H5641 C5667 0.950 . S
H5642 C5668 0.950 . S
H5643 C5670 0.950 . S
H5644 C5673 0.950 . S
H5645 C5674 0.950 . S
H5646 C5676 0.950 . S
H5647 C5677 0.950 . S
C5648 H5630 0.951 . S
C5648 C5649 1.366 . S
C5648 C5650 1.388 . S
C5649 C5648 1.366 . S
C5649 C5653 1.385 . S
C5650 H5631 0.951 . S
C5650 C5648 1.388 . S
C5650 C5651 1.366 . S
C5651 C5650 1.366 . S
C5651 C5652 1.414 . S
C5651 C5654 1.499 . S
C5652 H5632 0.950 . S
C5652 C5651 1.414 . S
C5652 C5653 1.374 . S
C5653 H5633 0.950 . S
C5653 C5649 1.385 . S
C5653 C5652 1.374 . S
C5654 C5651 1.499 . S
C5654 C5655 1.373 . S
C5654 C5656 1.389 . S
C5655 H5634 0.950 . S
C5655 C5654 1.373 . S
C5655 C5671 1.377 . S
C5656 C5654 1.389 . S
C5656 C5657 1.524 . S
C5656 C5670 1.377 . S
C5657 C5656 1.524 . S
C5657 C5658 1.397 . S
C5657 C5662 1.363 . S
C5658 H5635 0.950 . S
C5658 C5657 1.397 . S
C5658 C5659 1.334 . S
C5659 H5636 0.950 . S
C5659 C5658 1.334 . S
C5659 C5660 1.287 . S
C5660 C5659 1.287 . S
C5660 C5661 1.524 . S
C5660 H5679 0.913 . S
C5661 H5637 0.950 . S
C5661 C5660 1.524 . S
C5661 C5662 1.415 . S
C5662 H5638 0.950 . S
C5662 C5657 1.363 . S
C5662 C5661 1.415 . S
C5663 H5639 0.951 . S
C5663 C5664 1.366 . S
C5663 C5665 1.388 . S
C5664 C5663 1.366 . S
C5664 C5668 1.385 . S
C5665 H5640 0.951 . S
C5665 C5663 1.388 . S
C5665 C5666 1.366 . S
C5666 C5665 1.366 . S
C5666 C5667 1.414 . S
C5666 C5669 1.499 . S
C5667 H5641 0.950 . S
C5667 C5666 1.414 . S
C5667 C5668 1.374 . S
C5668 H5642 0.950 . S
C5668 C5664 1.385 . S
C5668 C5667 1.374 . S
C5669 C5666 1.499 . S
C5669 C5670 1.373 . S
C5669 C5671 1.389 . S
C5670 H5643 0.950 . S
C5670 C5656 1.377 . S
C5670 C5669 1.373 . S
C5671 C5655 1.377 . S
C5671 C5669 1.389 . S
C5671 C5672 1.524 . S
C5672 C5671 1.524 . S
C5672 C5673 1.397 . S
C5672 C5677 1.363 . S
C5673 H5644 0.950 . S
C5673 C5672 1.397 . S
C5673 C5674 1.334 . S
C5674 H5645 0.950 . S
C5674 C5673 1.334 . S
C5674 C5675 1.287 . S
C5675 C5674 1.287 . S
C5675 C5676 1.524 . S
C5675 H5678 0.999 . S
C5676 H5646 0.950 . S
C5676 C5675 1.524 . S
C5676 C5677 1.415 . S
C5677 H5647 0.950 . S
C5677 C5672 1.363 . S
C5677 C5676 1.415 . S
H5678 C5675 0.999 . S
H5679 C5660 0.913 . S
C914 C353 0.905 . S
C899 C5 0.908 . S
C949 C23 1.812 . S
C964 C399 1.803 . S
C999 C39 0.758 . S
C1014 C408 0.758 . S
C1064 C446 1.562 . S
C1049 C42 1.575 . S
C1099 C19 1.566 . S
C1114 C480 1.546 . S
C1164 C510 0.707 . S
C1149 C28 0.706 . S
C1214 C569 1.526 . S
C1199 C53 1.515 . S
C1249 C9 0.817 . S
C1264 C582 0.817 . S
C1299 C65 1.320 . S
C1314 C365 1.305 1_565 S
C1349 C75 1.088 . S
C1364 C383 1.079 . S
C1414 C404 1.627 . S
C1399 C93 1.641 . S
C1464 C442 0.589 . S
C1449 C109 0.582 . S
C1499 C56 1.186 . S
C1514 C476 1.179 . S
C1564 C506 1.434 . S
C1549 C81 1.440 . S
C1614 C553 1.144 . S
C1599 C84 1.148 . S
C1664 C578 0.538 . S
C1649 C103 0.525 . S
C1714 C349 0.500 1_556 S
C1699 C107 0.502 . S
C1764 C608 1.535 . S
C1749 C121 1.535 . S
C1799 C131 1.349 . S
C1814 C650 1.336 . S
C1864 C693 0.519 . S
C1849 C140 0.515 . S
C1899 C61 1.294 . S
C1914 C574 1.282 . S
C1964 C412 1.312 . S
C1949 C70 1.312 . S
C1999 C137 1.243 . S
C2014 C710 1.241 . S
C2064 C761 1.438 . S
C2049 C165 1.442 . S
C2099 C173 0.872 . S
C2114 C344 0.868 . S
C2164 C744 1.742 . S
C2149 C182 1.749 . S
C2199 C207 0.745 . S
C2214 C417 0.745 . S
C2249 C219 1.541 . S
C2264 C727 1.517 . S
C2314 C489 1.499 . S
C2299 C187 1.518 . S
C2364 C655 0.695 . S
C2349 C205 0.694 . S
C2414 C540 1.472 . S
C2399 C221 1.477 . S
C2464 C795 0.776 . S
C2449 C168 0.784 . S
C2514 C336 1.257 . S
C2499 C224 1.269 . S
C2549 C243 1.049 . S
C2564 C748 1.041 . S
C2614 C433 1.558 . S
C2599 C252 1.569 . S
C2649 C277 0.535 . S
C2664 C723 0.551 . S
C2699 C233 1.188 . S
C2714 C485 1.175 . S
C2749 C249 1.411 . S
C2764 C671 1.402 . S
C2814 C544 1.123 . S
C2799 C261 1.135 . S
C2849 C271 0.501 . S
C2864 C791 0.517 . S
C2899 C266 0.455 . S
C2914 C340 0.478 . S
C2949 C280 1.478 . S
C2964 C637 1.480 . S
C2999 C299 1.287 . S
C3014 C523 1.276 . S
C3049 C317 0.467 . S
C3064 C684 0.480 . S
C3114 C807 1.238 . S
C3099 C229 1.250 . S
C3164 C421 1.285 . S
C3149 C247 1.298 . S
C3214 C467 1.215 . S
C3199 C305 1.215 . S
C3264 C378 1.421 . S
C3249 C333 1.424 . S
C3299 C33 0.908 . S
C3314 C829 0.905 . S
C3364 C773 1.803 . S
C3349 C51 1.812 . S
C3414 C850 0.758 . S
C3399 C11 0.758 . S
C3449 C14 1.575 . S
C3464 C718 1.562 . S
C3499 C47 1.566 . S
C3514 C616 1.546 . S
C3564 C646 0.707 . S
C3549 C0 0.706 . S
C3614 C705 1.511 . S
C3599 C25 1.515 . S
C3664 C786 0.817 . S
C3649 C37 0.818 . S
C3714 C841 1.311 . S
C3699 C163 1.320 . S
C3749 C117 1.089 1_556 S
C3764 C757 1.080 . S
C3799 C135 1.641 . S
C3814 C846 1.627 . S
C3864 C714 0.587 . S
C3849 C151 0.580 . S
C3914 C612 1.179 . S
C3899 C154 1.186 . S
C3949 C123 1.440 . S
C3964 C642 1.434 . S
C4014 C689 1.144 . S
C3999 C126 1.148 . S
C4049 C145 0.525 . S
C4064 C782 0.538 . S
C4114 C825 0.508 . S
C4099 C149 0.503 . S
C4164 C472 1.535 . S
C4149 C79 1.535 . S
C4214 C514 1.336 . S
C4199 C89 1.348 . S
C4249 C98 0.514 . S
C4264 C557 0.519 . S
C4314 C778 1.282 . S
C4299 C159 1.295 . S
C4349 C112 1.312 . S
C4364 C854 1.312 . S
C4414 C438 1.241 . S
C4399 C95 1.243 . S
C4464 C387 1.438 . S
C4449 C67 1.443 . S
C4499 C201 0.869 . S
C4514 C820 0.867 . S
C4564 C370 1.742 . S
C4549 C210 1.749 . S
C4614 C859 0.750 . S
C4599 C179 0.745 . S
C4649 C191 1.541 . S
C4664 C455 1.517 . S
C4699 C215 1.518 . S
C4714 C625 1.499 . S
C4749 C177 0.694 . S
C4764 C519 0.689 . S
C4799 C193 1.476 . S
C4814 C676 1.472 . S
C4849 C196 0.777 . S
C4864 C591 0.775 . S
C4914 C812 1.257 . S
C4899 C322 1.269 . S
C4949 C285 1.049 . S
C4964 C374 1.041 . S
C5014 C875 1.558 . S
C4999 C294 1.569 . S
C5049 C319 0.535 . S
C5064 C451 0.551 . S
C5099 C331 1.189 . S
C5114 C621 1.176 . S
C5164 C535 1.402 . S
C5149 C291 1.411 . S
C5199 C303 1.135 . S
C5214 C680 1.123 . S
C5264 C587 0.517 . S
C5249 C313 0.501 . S
C5314 C816 0.477 . S
C5299 C308 0.454 . S
C5364 C501 1.480 . S
C5349 C238 1.478 . S
C5399 C257 1.287 . S
C5414 C659 1.276 . S
C5464 C548 0.481 . S
C5449 C275 0.467 . S
C5514 C603 1.238 . S
C5499 C327 1.250 . S
C5549 C289 1.292 1_554 S
C5564 C863 1.285 . S
C5614 C739 1.215 . S
C5599 C263 1.215 . S
C5664 C752 1.421 . S
C5649 C235 1.424 . S
