# Generated by pormake.
# Topology bcu-b, (8,8)-cn, num edge types: 1
# Building blocks:
#     Node 0, Type 0, BuildingBlock: VETTIZ_charged_sbu_0, # of connection points: 8
#     Node 1, Type 1, BuildingBlock: TAGTUT_clean_sbu_1, # of connection points: 8
#     Edge 2, Type (0, 1), BuildingBlock: UVAHIK_clean_linker_0, # of connection points: 2
#     Edge 3, Type (0, 1), BuildingBlock: UVAHIK_clean_linker_0, # of connection points: 2
#     Edge 4, Type (0, 1), BuildingBlock: UVAHIK_clean_linker_0, # of connection points: 2
#     Edge 5, Type (0, 1), BuildingBlock: UVAHIK_clean_linker_0, # of connection points: 2
#     Edge 6, Type (0, 1), BuildingBlock: UVAHIK_clean_linker_0, # of connection points: 2
#     Edge 7, Type (0, 1), BuildingBlock: UVAHIK_clean_linker_0, # of connection points: 2
#     Edge 8, Type (0, 1), BuildingBlock: UVAHIK_clean_linker_0, # of connection points: 2
#     Edge 9, Type (0, 1), BuildingBlock: UVAHIK_clean_linker_0, # of connection points: 2
# Relax obj value: 0.028
# Max RMSD: 0.123
# Mean RMSD: 0.086
data_MOF--net-bcu-b--node1-VETTIZ_charged_sbu_0--node2-TAGTUT_clean_sbu_1--edge1-UVAHIK_clean_linker_0
_symmetry_space_group_name_H-M    P1
_symmetry_Int_Tables_number       1
_symmetry_cell_setting            triclinic
loop_
_symmetry_equiv_pos_as_xyz
'x, y, z'
_cell_length_a     24.702104
_cell_length_b     23.726621
_cell_length_c     26.379257
_cell_angle_alpha  89.590693
_cell_angle_beta   91.387638
_cell_angle_gamma 98.145611
loop_
_atom_site_label
_atom_site_type_symbol
_atom_site_fract_x
_atom_site_fract_y
_atom_site_fract_z
_atom_type_partial_charge
Fe0 Fe 0.04333 0.88812 -0.00649 0.0
O1 O 0.0429 0.97076 -0.01078 0.0
Fe2 Fe 0.99533 1.00177 0.93095 0.0
Fe3 Fe 0.02043 0.01603 0.04669 0.0
O4 O 0.04142 0.96988 0.9842 0.0
O5 O 0.97267 0.04677 -0.01152 0.0
O6 O 0.97418 0.04766 -0.00651 0.0
Fe7 Fe 0.97163 0.12927 0.98469 0.0
C8 C 0.95771 0.90261 0.07271 0.0
O9 O 0.10865 0.91408 0.04134 0.0
O10 O 0.07418 0.97648 0.09472 0.0
O11 O 0.01916 0.14104 0.92078 0.0
O12 O 0.05996 0.06349 0.91587 0.0
O13 O 0.027 0.94983 0.87762 0.0
O14 O 0.08297 0.89888 0.92559 0.0
O15 O 0.08517 0.07876 0.03431 0.0
O16 O 0.04057 0.15389 0.02884 0.0
C17 C 0.06503 0.91694 0.88254 0.0
O18 O 0.90672 0.10329 0.93639 0.0
O19 O 0.94173 0.04145 0.88284 0.0
O20 O 0.99648 0.87711 0.05783 0.0
O21 O 0.95568 0.95456 0.06214 0.0
C22 C 0.11047 0.94418 0.08237 0.0
C23 C 0.08362 0.13184 0.03902 0.0
C24 C 0.94925 0.09853 0.09511 0.0
O25 O 0.98887 0.06774 0.10013 0.0
O26 O 0.93139 0.11729 0.0523 0.0
C27 C 0.05822 0.11574 0.90617 0.0
O28 O 0.93042 0.93923 0.94307 0.0
O29 O 0.97416 0.86361 0.94965 0.0
C30 C 0.90526 0.07355 0.89518 0.0
C31 C 0.93169 0.88614 0.9383 0.0
C32 C 0.35838 0.64897 0.52753 0.0
C33 C 0.44165 0.64499 0.38998 0.0
C34 C 0.42592 0.41603 0.42137 0.0
Mg35 Mg 0.47927 0.64274 0.50141 0.0
O36 O 0.45457 0.56505 0.50651 0.0
Mg37 Mg 0.38878 0.53397 0.46414 0.0
Mg38 Mg 0.50511 0.50974 0.48987 0.0
O39 O 0.55534 0.45428 0.47352 0.0
Mg40 Mg 0.53048 0.37663 0.47848 0.0
Mg41 Mg 0.62173 0.48477 0.51512 0.0
C42 C 0.58435 0.60301 0.55829 0.0
C43 C 0.60554 0.57345 0.42269 0.0
O44 O 0.34381 0.60175 0.50382 0.0
O45 O 0.40863 0.67115 0.53294 0.0
O46 O 0.40901 0.59932 0.39915 0.0
O47 O 0.47704 0.66674 0.42296 0.0
O48 O 0.55649 0.64236 0.5436 0.0
O49 O 0.56894 0.55007 0.54813 0.0
C50 C 0.40485 0.44585 0.5571 0.0
O51 O 0.45656 0.45125 0.54945 0.0
O52 O 0.37276 0.47225 0.52991 0.0
O53 O 0.66621 0.4175 0.47341 0.0
O54 O 0.59977 0.35004 0.44383 0.0
O55 O 0.60268 0.4189 0.57992 0.0
C56 C 0.65025 0.37161 0.44811 0.0
O57 O 0.53508 0.35091 0.55637 0.0
O58 O 0.45329 0.37654 0.43657 0.0
C59 C 0.57077 0.37273 0.58906 0.0
O60 O 0.44156 0.46888 0.43169 0.0
O61 O 0.55379 0.56856 0.43004 0.0
O62 O 0.63713 0.54667 0.44999 0.0
C63 C 0.13299 0.22738 0.06336 0.0
C64 C 0.12919 0.16772 0.06565 0.0
C65 C 0.16852 0.26157 0.09621 0.0
C66 C 0.28262 0.25822 0.19095 0.0
H67 H 0.21964 0.38046 0.25412 0.0
C68 C 0.35576 0.34133 0.38472 0.0
C69 C 0.37919 0.39887 0.38614 0.0
C70 C 0.32297 0.32011 0.34362 0.0
C71 C 0.23784 0.34689 0.23634 0.0
H72 H 0.16194 0.09726 0.10219 0.0
H73 H 0.223 0.15652 0.16007 0.0
H74 H 0.17192 0.32931 0.18213 0.0
H75 H 0.38202 0.48056 0.34812 0.0
H76 H 0.32299 0.44309 0.27608 0.0
H77 H 0.34702 0.27406 0.24696 0.0
C78 C 0.19928 0.17726 0.13245 0.0
C79 C 0.21084 0.31773 0.19495 0.0
C80 C 0.16417 0.1431 0.09921 0.0
C81 C 0.3645 0.43604 0.34804 0.0
C82 C 0.3311 0.41464 0.30676 0.0
C83 C 0.30906 0.28677 0.23261 0.0
C84 C 0.2007 0.23684 0.1324 0.0
C85 C 0.2324 0.27222 0.17238 0.0
C86 C 0.31236 0.35601 0.3033 0.0
C87 C 0.28636 0.3305 0.25626 0.0
H88 H 0.1069 0.24763 0.03749 0.0
H89 H 0.16953 0.30731 0.09423 0.0
H90 H 0.30111 0.22443 0.17389 0.0
H91 H 0.36559 0.31177 0.41388 0.0
H92 H 0.30798 0.27494 0.34217 0.0
C93 C 0.869 0.12579 0.13853 0.0
C94 C 0.92406 0.11732 0.14098 0.0
C95 C 0.84656 0.1529 0.17784 0.0
C96 C 0.86322 0.2003 0.31063 0.0
H97 H 0.77034 0.30895 0.2616 0.0
C98 C 0.74723 0.35831 0.42826 0.0
C99 C 0.69042 0.34341 0.42041 0.0
C100 C 0.78407 0.33257 0.39956 0.0
C101 C 0.79669 0.27923 0.27576 0.0
H102 H 0.99815 0.12749 0.18767 0.0
H103 H 0.95873 0.176 0.25688 0.0
H104 H 0.81875 0.25846 0.20124 0.0
H105 H 0.62805 0.28901 0.37682 0.0
H106 H 0.69202 0.24577 0.32669 0.0
H107 H 0.83977 0.22129 0.3855 0.0
C108 C 0.933 0.16123 0.22447 0.0
C109 C 0.82394 0.24988 0.24132 0.0
C110 C 0.95548 0.13338 0.18502 0.0
C111 C 0.6714 0.30168 0.38408 0.0
C112 C 0.70793 0.2768 0.35523 0.0
C113 C 0.83602 0.23023 0.34535 0.0
C114 C 0.87881 0.17298 0.22033 0.0
C115 C 0.85593 0.2086 0.25816 0.0
C116 C 0.7644 0.29239 0.3623 0.0
C117 C 0.80138 0.26863 0.32786 0.0
H118 H 0.84362 0.11301 0.10535 0.0
H119 H 0.80417 0.15964 0.17424 0.0
H120 H 0.88773 0.16888 0.32467 0.0
H121 H 0.76316 0.39013 0.45608 0.0
H122 H 0.82765 0.34521 0.40532 0.0
C123 C 0.87034 0.8972 0.12104 0.0
C124 C 0.91538 0.87167 0.10567 0.0
C125 C 0.83169 0.86843 0.15365 0.0
C126 C 0.81985 0.75727 0.2514 0.0
H127 H 0.66284 0.7446 0.22843 0.0
C128 C 0.67805 0.59287 0.35911 0.0
C129 C 0.63112 0.60874 0.38082 0.0
C130 C 0.70756 0.62791 0.32398 0.0
C131 C 0.70655 0.74849 0.23567 0.0
H132 H 0.95406 0.79518 0.11171 0.0
H133 H 0.8871 0.7455 0.16851 0.0
H134 H 0.72497 0.80105 0.16984 0.0
H135 H 0.57659 0.67261 0.38058 0.0
H136 H 0.62919 0.73514 0.31881 0.0
H137 H 0.80222 0.70518 0.31684 0.0
C138 C 0.88191 0.78793 0.15568 0.0
C139 C 0.74206 0.78066 0.20215 0.0
C140 C 0.92022 0.81637 0.12291 0.0
C141 C 0.61263 0.65939 0.3645 0.0
C142 C 0.64275 0.69509 0.32923 0.0
C143 C 0.78463 0.72561 0.28481 0.0
C144 C 0.8376 0.81382 0.1719 0.0
C145 C 0.79912 0.78412 0.20909 0.0
C146 C 0.69149 0.68032 0.30981 0.0
C147 C 0.72761 0.71947 0.27667 0.0
H148 H 0.86519 0.93968 0.10833 0.0
H149 H 0.79804 0.88948 0.16565 0.0
H150 H 0.86355 0.76035 0.25851 0.0
H151 H 0.69275 0.55349 0.37002 0.0
H152 H 0.74383 0.6143 0.30856 0.0
C153 C 0.14879 0.925 0.1688 0.0
C154 C 0.15679 0.93774 0.11725 0.0
C155 C 0.1898 0.90348 0.19775 0.0
C156 C 0.29844 0.81734 0.17625 0.0
H157 H 0.33873 0.8461 0.31753 0.0
C158 C 0.44763 0.73919 0.34565 0.0
C159 C 0.42889 0.6803 0.34582 0.0
C160 C 0.42304 0.7758 0.31353 0.0
C161 C 0.32837 0.8381 0.27785 0.0
H162 H 0.21522 0.94369 0.05682 0.0
H163 H 0.28665 0.90743 0.10726 0.0
H164 H 0.27863 0.90535 0.27365 0.0
H165 H 0.3737 0.61325 0.30839 0.0
H166 H 0.33194 0.67702 0.25148 0.0
H167 H 0.3468 0.74922 0.18069 0.0
C168 C 0.24862 0.91248 0.12517 0.0
C169 C 0.29359 0.87166 0.25296 0.0
C170 C 0.20789 0.93363 0.09643 0.0
C171 C 0.389 0.65834 0.30945 0.0
C172 C 0.36494 0.69493 0.27688 0.0
C173 C 0.3326 0.78346 0.20124 0.0
C174 C 0.23915 0.89464 0.17539 0.0
C175 C 0.2781 0.86146 0.20192 0.0
C176 C 0.38 0.75421 0.28024 0.0
C177 C 0.34766 0.7932 0.25238 0.0
H178 H 0.10957 0.92736 0.18555 0.0
H179 H 0.18139 0.8901 0.23645 0.0
H180 H 0.28665 0.80787 0.13707 0.0
H181 H 0.47837 0.75771 0.37298 0.0
H182 H 0.43612 0.82125 0.31622 0.0
C183 C 0.07172 0.91064 0.78721 0.0
C184 C 0.08725 0.89427 0.83627 0.0
C185 C 0.09069 0.88546 0.74432 0.0
C186 C 0.14362 0.7553 0.70584 0.0
H187 H 0.22086 0.84661 0.60075 0.0
C188 C 0.3306 0.73465 0.56886 0.0
C189 C 0.31619 0.67905 0.55012 0.0
C190 C 0.29233 0.76222 0.59319 0.0
C191 C 0.19896 0.82053 0.6296 0.0
H192 H 0.13599 0.83915 0.87817 0.0
H193 H 0.16822 0.79596 0.8042 0.0
H194 H 0.1726 0.89274 0.66515 0.0
H195 H 0.24936 0.6098 0.54043 0.0
H196 H 0.18239 0.65807 0.58346 0.0
H197 H 0.17213 0.68356 0.67239 0.0
C198 C 0.141 0.82764 0.79877 0.0
C199 C 0.17101 0.84689 0.66612 0.0
C200 C 0.12274 0.85297 0.84126 0.0
C201 C 0.26191 0.65248 0.55468 0.0
C202 C 0.22358 0.68006 0.57938 0.0
C203 C 0.17124 0.72897 0.66932 0.0
C204 C 0.12476 0.84299 0.74992 0.0
C205 C 0.14489 0.81471 0.70567 0.0
C206 C 0.23867 0.73491 0.59962 0.0
C207 C 0.20089 0.76152 0.63187 0.0
H208 H 0.04453 0.94232 0.78193 0.0
H209 H 0.07789 0.89825 0.70693 0.0
H210 H 0.12321 0.72944 0.73566 0.0
H211 H 0.37188 0.75668 0.56568 0.0
H212 H 0.30557 0.80408 0.60895 0.0
C213 C 0.09988 0.2048 0.86195 0.0
C214 C 0.10218 0.14782 0.87566 0.0
C215 C 0.1409 0.23508 0.83297 0.0
C216 C 0.25011 0.21583 0.74393 0.0
H217 H 0.29107 0.37761 0.76716 0.0
C218 C 0.40354 0.36362 0.61868 0.0
C219 C 0.38059 0.41068 0.59965 0.0
C220 C 0.37767 0.32964 0.65735 0.0
C221 C 0.28027 0.33238 0.76041 0.0
H222 H 0.1501 0.07824 0.8699 0.0
H223 H 0.22205 0.13147 0.81979 0.0
H224 H 0.23041 0.32131 0.82581 0.0
H225 H 0.31379 0.46016 0.60748 0.0
H226 H 0.26972 0.40196 0.67492 0.0
H227 H 0.29974 0.22761 0.67793 0.0
C228 C 0.18804 0.15245 0.83096 0.0
C229 C 0.24521 0.30016 0.79377 0.0
C230 C 0.14684 0.12202 0.85989 0.0
C231 C 0.33237 0.42397 0.62097 0.0
C232 C 0.30728 0.39089 0.65994 0.0
C233 C 0.28565 0.24812 0.71069 0.0
C234 C 0.18556 0.20939 0.8171 0.0
C235 C 0.22828 0.24183 0.78511 0.0
C236 C 0.32928 0.34314 0.67831 0.0
C237 C 0.29971 0.30703 0.71782 0.0
H238 H 0.06611 0.22607 0.87321 0.0
H239 H 0.13696 0.27847 0.8222 0.0
H240 H 0.23774 0.17111 0.7359 0.0
H241 H 0.44052 0.35229 0.60291 0.0
H242 H 0.39544 0.29298 0.67092 0.0
C243 C 0.86742 0.09335 0.80865 0.0
C244 C 0.85913 0.08021 0.86009 0.0
C245 C 0.82656 0.11507 0.77964 0.0
C246 C 0.72281 0.14697 0.72419 0.0
H247 H 0.66872 0.26861 0.79685 0.0
C248 C 0.56683 0.27813 0.63252 0.0
C249 C 0.58469 0.33721 0.63271 0.0
C250 C 0.59224 0.24171 0.66418 0.0
C251 C 0.6832 0.23461 0.77617 0.0
H252 H 0.80033 0.07381 0.92023 0.0
H253 H 0.72919 0.11044 0.86969 0.0
H254 H 0.72925 0.21021 0.84029 0.0
H255 H 0.63936 0.40463 0.6702 0.0
H256 H 0.68253 0.34116 0.72633 0.0
H257 H 0.67747 0.17245 0.6597 0.0
C258 C 0.76732 0.10554 0.85192 0.0
C259 C 0.71756 0.20087 0.80107 0.0
C260 C 0.8079 0.08417 0.88071 0.0
C261 C 0.62469 0.3594 0.66889 0.0
C262 C 0.64957 0.32299 0.70101 0.0
C263 C 0.68781 0.18037 0.69939 0.0
C264 C 0.77707 0.12374 0.80183 0.0
C265 C 0.73817 0.15699 0.77529 0.0
C266 C 0.63526 0.26364 0.69737 0.0
C267 C 0.66817 0.22497 0.72501 0.0
H268 H 0.90674 0.09112 0.79205 0.0
H269 H 0.83518 0.12871 0.74104 0.0
H270 H 0.73797 0.11346 0.70341 0.0
H271 H 0.53607 0.25942 0.60529 0.0
H272 H 0.57972 0.19619 0.66127 0.0
C273 C 0.85756 0.87707 0.87164 0.0
C274 C 0.88763 0.85137 0.90889 0.0
C275 C 0.82614 0.84374 0.83524 0.0
C276 C 0.75767 0.70238 0.80139 0.0
H277 H 0.79862 0.74779 0.66444 0.0
C278 C 0.65084 0.58381 0.62772 0.0
C279 C 0.63326 0.62059 0.59078 0.0
C280 C 0.68917 0.60513 0.66542 0.0
C281 C 0.78644 0.73463 0.70237 0.0
H282 H 0.90456 0.77063 0.94002 0.0
H283 H 0.84809 0.71237 0.87709 0.0
H284 H 0.84356 0.80075 0.73621 0.0
H285 H 0.64539 0.70703 0.56156 0.0
H286 H 0.71095 0.74396 0.62674 0.0
H287 H 0.69873 0.63784 0.76761 0.0
C288 C 0.84972 0.75822 0.87568 0.0
C289 C 0.81213 0.76506 0.7434 0.0
C290 C 0.88192 0.79157 0.91162 0.0
C291 C 0.65775 0.6777 0.58981 0.0
C292 C 0.69582 0.69884 0.62713 0.0
C293 C 0.73122 0.67236 0.76019 0.0
C294 C 0.82344 0.78419 0.83603 0.0
C295 C 0.79722 0.74995 0.79318 0.0
C296 C 0.71073 0.66338 0.66642 0.0
C297 C 0.74448 0.68898 0.71013 0.0
H298 H 0.8613 0.923 0.86834 0.0
H299 H 0.80558 0.86461 0.80528 0.0
H300 H 0.74582 0.68978 0.83955 0.0
H301 H 0.63263 0.53955 0.62936 0.0
H302 H 0.70049 0.57648 0.6947 0.0
loop_
_geom_bond_atom_site_label_1
_geom_bond_atom_site_label_2
_geom_bond_distance
_geom_bond_site_symmetry_2
_ccdc_geom_bond_type
Fe0 O1 1.892 . S
Fe0 O4 1.708 1_554 S
Fe0 O9 2.083 1_655 S
Fe0 O14 1.930 1_654 S
Fe0 O20 2.083 . S
Fe0 O29 1.930 1_554 S
O1 Fe0 1.892 . S
O1 Fe3 1.715 1_665 S
Fe2 O4 1.886 . S
Fe2 O5 1.715 1_665 S
Fe2 O12 1.935 1_665 S
Fe2 O13 2.077 1_655 S
Fe2 O19 1.935 1_565 S
Fe2 O28 2.077 . S
Fe3 O1 1.715 1_445 S
Fe3 O6 1.886 . S
Fe3 O10 1.935 1_545 S
Fe3 O15 2.077 . S
Fe3 O21 1.935 1_445 S
Fe3 O25 2.077 1_455 S
O4 Fe0 1.708 1_556 S
O4 Fe2 1.886 . S
O5 Fe2 1.715 1_445 S
O5 Fe7 1.888 . S
O6 Fe3 1.886 . S
O6 Fe7 1.712 1_554 S
Fe7 O5 1.888 . S
Fe7 O6 1.712 1_556 S
Fe7 O11 2.080 . S
Fe7 O16 1.933 1_556 S
Fe7 O18 2.080 1_455 S
Fe7 O26 1.933 1_456 S
C8 O20 1.381 . S
C8 O21 1.421 . S
O9 Fe0 2.083 1_455 S
O9 C22 1.381 . S
O10 Fe3 1.935 1_565 S
O10 C22 1.421 . S
O11 Fe7 2.080 . S
O11 C27 1.381 . S
O12 Fe2 1.935 1_445 S
O12 C27 1.421 . S
O13 Fe2 2.077 1_455 S
O13 C17 1.381 . S
O14 Fe0 1.930 1_456 S
O14 C17 1.421 . S
O15 Fe3 2.077 . S
O15 C23 1.381 . S
O16 Fe7 1.933 1_554 S
O16 C23 1.421 . S
C17 O13 1.381 . S
C17 O14 1.421 . S
O18 Fe7 2.080 1_655 S
O18 C30 1.381 . S
O19 Fe2 1.935 1_545 S
O19 C30 1.421 . S
O20 Fe0 2.083 . S
O20 C8 1.381 . S
O21 Fe3 1.935 1_665 S
O21 C8 1.421 . S
C22 O9 1.381 . S
C22 O10 1.421 . S
C23 O15 1.381 . S
C23 O16 1.421 . S
C24 O25 1.381 . S
C24 O26 1.421 . S
O25 Fe3 2.077 1_655 S
O25 C24 1.381 . S
O26 Fe7 1.933 1_654 S
O26 C24 1.421 . S
C27 O11 1.381 . S
C27 O12 1.421 . S
O28 Fe2 2.077 . S
O28 C31 1.381 . S
O29 Fe0 1.930 1_556 S
O29 C31 1.421 . S
C30 O18 1.381 . S
C30 O19 1.421 . S
C31 O28 1.381 . S
C31 O29 1.421 . S
C32 O44 1.241 . S
C32 O45 1.280 . S
C33 O46 1.277 . S
C33 O47 1.245 . S
C34 O58 1.247 . S
C34 O60 1.289 . S
Mg35 O36 1.926 . S
Mg35 O45 1.984 . S
Mg35 O47 1.988 . S
Mg35 O48 2.061 . S
O36 Mg35 1.926 . S
O36 Mg37 1.986 . S
O36 Mg38 1.917 . S
Mg37 O36 1.986 . S
Mg37 O44 2.042 . S
Mg37 O46 2.041 . S
Mg37 O52 2.038 . S
Mg37 O60 2.238 . S
Mg38 O36 1.917 . S
Mg38 O39 1.917 . S
Mg38 O49 2.106 . S
Mg38 O51 2.079 . S
Mg38 O60 2.106 . S
Mg38 O61 2.079 . S
O39 Mg38 1.917 . S
O39 Mg40 1.926 . S
O39 Mg41 1.986 . S
Mg40 O39 1.926 . S
Mg40 O54 1.984 . S
Mg40 O57 1.988 . S
Mg40 O58 2.061 . S
Mg41 O39 1.986 . S
Mg41 O49 2.238 . S
Mg41 O53 2.042 . S
Mg41 O55 2.041 . S
Mg41 O62 2.038 . S
C42 O48 1.247 . S
C42 O49 1.289 . S
C43 O61 1.245 . S
C43 O62 1.274 . S
O44 C32 1.241 . S
O44 Mg37 2.042 . S
O45 C32 1.280 . S
O45 Mg35 1.984 . S
O46 C33 1.277 . S
O46 Mg37 2.041 . S
O47 C33 1.245 . S
O47 Mg35 1.988 . S
O48 Mg35 2.061 . S
O48 C42 1.247 . S
O49 Mg38 2.106 . S
O49 Mg41 2.238 . S
O49 C42 1.289 . S
C50 O51 1.245 . S
C50 O52 1.274 . S
O51 Mg38 2.079 . S
O51 C50 1.245 . S
O52 Mg37 2.038 . S
O52 C50 1.274 . S
O53 Mg41 2.042 . S
O53 C56 1.241 . S
O54 Mg40 1.984 . S
O54 C56 1.280 . S
O55 Mg41 2.041 . S
O55 C59 1.277 . S
C56 O53 1.241 . S
C56 O54 1.280 . S
O57 Mg40 1.988 . S
O57 C59 1.245 . S
O58 C34 1.247 . S
O58 Mg40 2.061 . S
C59 O55 1.277 . S
C59 O57 1.245 . S
O60 C34 1.289 . S
O60 Mg37 2.238 . S
O60 Mg38 2.106 . S
O61 Mg38 2.079 . S
O61 C43 1.245 . S
O62 Mg41 2.038 . S
O62 C43 1.274 . S
C63 C64 1.349 . S
C63 C65 1.327 . S
C63 H88 0.950 . S
C64 C63 1.349 . S
C64 C80 1.349 . S
C65 C63 1.327 . S
C65 C84 1.429 . S
C65 H89 0.950 . S
C66 C83 1.574 . S
C66 C85 1.368 . S
C66 H90 0.949 . S
H67 C71 0.949 . S
C68 C69 1.349 . S
C68 C70 1.327 . S
C68 H91 0.950 . S
C69 C68 1.349 . S
C69 C81 1.349 . S
C70 C68 1.327 . S
C70 C86 1.429 . S
C70 H92 0.950 . S
C71 H67 0.949 . S
C71 C79 1.574 . S
C71 C87 1.368 . S
H72 C80 0.950 . S
H73 C78 0.950 . S
H74 C79 0.949 . S
H75 C81 0.950 . S
H76 C82 0.950 . S
H77 C83 0.949 . S
C78 H73 0.950 . S
C78 C80 1.327 . S
C78 C84 1.429 . S
C79 C71 1.574 . S
C79 H74 0.949 . S
C79 C85 1.368 . S
C80 C64 1.349 . S
C80 H72 0.950 . S
C80 C78 1.327 . S
C81 C69 1.349 . S
C81 H75 0.950 . S
C81 C82 1.327 . S
C82 H76 0.950 . S
C82 C81 1.327 . S
C82 C86 1.429 . S
C83 C66 1.574 . S
C83 H77 0.949 . S
C83 C87 1.368 . S
C84 C65 1.429 . S
C84 C78 1.429 . S
C84 C85 1.523 . S
C85 C66 1.368 . S
C85 C79 1.368 . S
C85 C84 1.523 . S
C86 C70 1.429 . S
C86 C82 1.429 . S
C86 C87 1.523 . S
C87 C71 1.368 . S
C87 C83 1.368 . S
C87 C86 1.523 . S
H88 C63 0.950 . S
H89 C65 0.950 . S
H90 C66 0.949 . S
H91 C68 0.950 . S
H92 C70 0.950 . S
C93 C94 1.349 . S
C93 C95 1.327 . S
C93 H118 0.950 . S
C94 C93 1.349 . S
C94 C110 1.349 . S
C95 C93 1.327 . S
C95 C114 1.429 . S
C95 H119 0.950 . S
C96 C113 1.574 . S
C96 C115 1.368 . S
C96 H120 0.949 . S
H97 C101 0.949 . S
C98 C99 1.349 . S
C98 C100 1.327 . S
C98 H121 0.950 . S
C99 C98 1.349 . S
C99 C111 1.349 . S
C100 C98 1.327 . S
C100 C116 1.429 . S
C100 H122 0.950 . S
C101 H97 0.949 . S
C101 C109 1.574 . S
C101 C117 1.368 . S
H102 C110 0.950 . S
H103 C108 0.950 . S
H104 C109 0.949 . S
H105 C111 0.950 . S
H106 C112 0.950 . S
H107 C113 0.949 . S
C108 H103 0.950 . S
C108 C110 1.327 . S
C108 C114 1.429 . S
C109 C101 1.574 . S
C109 H104 0.949 . S
C109 C115 1.368 . S
C110 C94 1.349 . S
C110 H102 0.950 . S
C110 C108 1.327 . S
C111 C99 1.349 . S
C111 H105 0.950 . S
C111 C112 1.327 . S
C112 H106 0.950 . S
C112 C111 1.327 . S
C112 C116 1.429 . S
C113 C96 1.574 . S
C113 H107 0.949 . S
C113 C117 1.368 . S
C114 C95 1.429 . S
C114 C108 1.429 . S
C114 C115 1.523 . S
C115 C96 1.368 . S
C115 C109 1.368 . S
C115 C114 1.523 . S
C116 C100 1.429 . S
C116 C112 1.429 . S
C116 C117 1.523 . S
C117 C101 1.368 . S
C117 C113 1.368 . S
C117 C116 1.523 . S
H118 C93 0.950 . S
H119 C95 0.950 . S
H120 C96 0.949 . S
H121 C98 0.950 . S
H122 C100 0.950 . S
C123 C124 1.349 . S
C123 C125 1.327 . S
C123 H148 0.950 . S
C124 C123 1.349 . S
C124 C140 1.349 . S
C125 C123 1.327 . S
C125 C144 1.429 . S
C125 H149 0.950 . S
C126 C143 1.574 . S
C126 C145 1.368 . S
C126 H150 0.949 . S
H127 C131 0.949 . S
C128 C129 1.349 . S
C128 C130 1.327 . S
C128 H151 0.950 . S
C129 C128 1.349 . S
C129 C141 1.349 . S
C130 C128 1.327 . S
C130 C146 1.429 . S
C130 H152 0.950 . S
C131 H127 0.949 . S
C131 C139 1.574 . S
C131 C147 1.368 . S
H132 C140 0.950 . S
H133 C138 0.950 . S
H134 C139 0.949 . S
H135 C141 0.950 . S
H136 C142 0.950 . S
H137 C143 0.949 . S
C138 H133 0.950 . S
C138 C140 1.327 . S
C138 C144 1.429 . S
C139 C131 1.574 . S
C139 H134 0.949 . S
C139 C145 1.368 . S
C140 C124 1.349 . S
C140 H132 0.950 . S
C140 C138 1.327 . S
C141 C129 1.349 . S
C141 H135 0.950 . S
C141 C142 1.327 . S
C142 H136 0.950 . S
C142 C141 1.327 . S
C142 C146 1.429 . S
C143 C126 1.574 . S
C143 H137 0.949 . S
C143 C147 1.368 . S
C144 C125 1.429 . S
C144 C138 1.429 . S
C144 C145 1.523 . S
C145 C126 1.368 . S
C145 C139 1.368 . S
C145 C144 1.523 . S
C146 C130 1.429 . S
C146 C142 1.429 . S
C146 C147 1.523 . S
C147 C131 1.368 . S
C147 C143 1.368 . S
C147 C146 1.523 . S
H148 C123 0.950 . S
H149 C125 0.950 . S
H150 C126 0.949 . S
H151 C128 0.950 . S
H152 C130 0.950 . S
C153 C154 1.349 . S
C153 C155 1.327 . S
C153 H178 0.950 . S
C154 C153 1.349 . S
C154 C170 1.349 . S
C155 C153 1.327 . S
C155 C174 1.429 . S
C155 H179 0.950 . S
C156 C173 1.574 . S
C156 C175 1.368 . S
C156 H180 0.949 . S
H157 C161 0.949 . S
C158 C159 1.349 . S
C158 C160 1.327 . S
C158 H181 0.950 . S
C159 C158 1.349 . S
C159 C171 1.349 . S
C160 C158 1.327 . S
C160 C176 1.429 . S
C160 H182 0.950 . S
C161 H157 0.949 . S
C161 C169 1.574 . S
C161 C177 1.368 . S
H162 C170 0.950 . S
H163 C168 0.950 . S
H164 C169 0.949 . S
H165 C171 0.950 . S
H166 C172 0.950 . S
H167 C173 0.949 . S
C168 H163 0.950 . S
C168 C170 1.327 . S
C168 C174 1.429 . S
C169 C161 1.574 . S
C169 H164 0.949 . S
C169 C175 1.368 . S
C170 C154 1.349 . S
C170 H162 0.950 . S
C170 C168 1.327 . S
C171 C159 1.349 . S
C171 H165 0.950 . S
C171 C172 1.327 . S
C172 H166 0.950 . S
C172 C171 1.327 . S
C172 C176 1.429 . S
C173 C156 1.574 . S
C173 H167 0.949 . S
C173 C177 1.368 . S
C174 C155 1.429 . S
C174 C168 1.429 . S
C174 C175 1.523 . S
C175 C156 1.368 . S
C175 C169 1.368 . S
C175 C174 1.523 . S
C176 C160 1.429 . S
C176 C172 1.429 . S
C176 C177 1.523 . S
C177 C161 1.368 . S
C177 C173 1.368 . S
C177 C176 1.523 . S
H178 C153 0.950 . S
H179 C155 0.950 . S
H180 C156 0.949 . S
H181 C158 0.950 . S
H182 C160 0.950 . S
C183 C184 1.349 . S
C183 C185 1.327 . S
C183 H208 0.950 . S
C184 C183 1.349 . S
C184 C200 1.349 . S
C185 C183 1.327 . S
C185 C204 1.429 . S
C185 H209 0.950 . S
C186 C203 1.574 . S
C186 C205 1.368 . S
C186 H210 0.949 . S
H187 C191 0.949 . S
C188 C189 1.349 . S
C188 C190 1.327 . S
C188 H211 0.950 . S
C189 C188 1.349 . S
C189 C201 1.349 . S
C190 C188 1.327 . S
C190 C206 1.429 . S
C190 H212 0.950 . S
C191 H187 0.949 . S
C191 C199 1.574 . S
C191 C207 1.368 . S
H192 C200 0.950 . S
H193 C198 0.950 . S
H194 C199 0.949 . S
H195 C201 0.950 . S
H196 C202 0.950 . S
H197 C203 0.949 . S
C198 H193 0.950 . S
C198 C200 1.327 . S
C198 C204 1.429 . S
C199 C191 1.574 . S
C199 H194 0.949 . S
C199 C205 1.368 . S
C200 C184 1.349 . S
C200 H192 0.950 . S
C200 C198 1.327 . S
C201 C189 1.349 . S
C201 H195 0.950 . S
C201 C202 1.327 . S
C202 H196 0.950 . S
C202 C201 1.327 . S
C202 C206 1.429 . S
C203 C186 1.574 . S
C203 H197 0.949 . S
C203 C207 1.368 . S
C204 C185 1.429 . S
C204 C198 1.429 . S
C204 C205 1.523 . S
C205 C186 1.368 . S
C205 C199 1.368 . S
C205 C204 1.523 . S
C206 C190 1.429 . S
C206 C202 1.429 . S
C206 C207 1.523 . S
C207 C191 1.368 . S
C207 C203 1.368 . S
C207 C206 1.523 . S
H208 C183 0.950 . S
H209 C185 0.950 . S
H210 C186 0.949 . S
H211 C188 0.950 . S
H212 C190 0.950 . S
C213 C214 1.349 . S
C213 C215 1.327 . S
C213 H238 0.950 . S
C214 C213 1.349 . S
C214 C230 1.349 . S
C215 C213 1.327 . S
C215 C234 1.429 . S
C215 H239 0.950 . S
C216 C233 1.574 . S
C216 C235 1.368 . S
C216 H240 0.949 . S
H217 C221 0.949 . S
C218 C219 1.349 . S
C218 C220 1.327 . S
C218 H241 0.950 . S
C219 C218 1.349 . S
C219 C231 1.349 . S
C220 C218 1.327 . S
C220 C236 1.429 . S
C220 H242 0.950 . S
C221 H217 0.949 . S
C221 C229 1.574 . S
C221 C237 1.368 . S
H222 C230 0.950 . S
H223 C228 0.950 . S
H224 C229 0.949 . S
H225 C231 0.950 . S
H226 C232 0.950 . S
H227 C233 0.949 . S
C228 H223 0.950 . S
C228 C230 1.327 . S
C228 C234 1.429 . S
C229 C221 1.574 . S
C229 H224 0.949 . S
C229 C235 1.368 . S
C230 C214 1.349 . S
C230 H222 0.950 . S
C230 C228 1.327 . S
C231 C219 1.349 . S
C231 H225 0.950 . S
C231 C232 1.327 . S
C232 H226 0.950 . S
C232 C231 1.327 . S
C232 C236 1.429 . S
C233 C216 1.574 . S
C233 H227 0.949 . S
C233 C237 1.368 . S
C234 C215 1.429 . S
C234 C228 1.429 . S
C234 C235 1.523 . S
C235 C216 1.368 . S
C235 C229 1.368 . S
C235 C234 1.523 . S
C236 C220 1.429 . S
C236 C232 1.429 . S
C236 C237 1.523 . S
C237 C221 1.368 . S
C237 C233 1.368 . S
C237 C236 1.523 . S
H238 C213 0.950 . S
H239 C215 0.950 . S
H240 C216 0.949 . S
H241 C218 0.950 . S
H242 C220 0.950 . S
C243 C244 1.349 . S
C243 C245 1.327 . S
C243 H268 0.950 . S
C244 C243 1.349 . S
C244 C260 1.349 . S
C245 C243 1.327 . S
C245 C264 1.429 . S
C245 H269 0.950 . S
C246 C263 1.574 . S
C246 C265 1.368 . S
C246 H270 0.949 . S
H247 C251 0.949 . S
C248 C249 1.349 . S
C248 C250 1.327 . S
C248 H271 0.950 . S
C249 C248 1.349 . S
C249 C261 1.349 . S
C250 C248 1.327 . S
C250 C266 1.429 . S
C250 H272 0.950 . S
C251 H247 0.949 . S
C251 C259 1.574 . S
C251 C267 1.368 . S
H252 C260 0.950 . S
H253 C258 0.950 . S
H254 C259 0.949 . S
H255 C261 0.950 . S
H256 C262 0.950 . S
H257 C263 0.949 . S
C258 H253 0.950 . S
C258 C260 1.327 . S
C258 C264 1.429 . S
C259 C251 1.574 . S
C259 H254 0.949 . S
C259 C265 1.368 . S
C260 C244 1.349 . S
C260 H252 0.950 . S
C260 C258 1.327 . S
C261 C249 1.349 . S
C261 H255 0.950 . S
C261 C262 1.327 . S
C262 H256 0.950 . S
C262 C261 1.327 . S
C262 C266 1.429 . S
C263 C246 1.574 . S
C263 H257 0.949 . S
C263 C267 1.368 . S
C264 C245 1.429 . S
C264 C258 1.429 . S
C264 C265 1.523 . S
C265 C246 1.368 . S
C265 C259 1.368 . S
C265 C264 1.523 . S
C266 C250 1.429 . S
C266 C262 1.429 . S
C266 C267 1.523 . S
C267 C251 1.368 . S
C267 C263 1.368 . S
C267 C266 1.523 . S
H268 C243 0.950 . S
H269 C245 0.950 . S
H270 C246 0.949 . S
H271 C248 0.950 . S
H272 C250 0.950 . S
C273 C274 1.349 . S
C273 C275 1.327 . S
C273 H298 0.950 . S
C274 C273 1.349 . S
C274 C290 1.349 . S
C275 C273 1.327 . S
C275 C294 1.429 . S
C275 H299 0.950 . S
C276 C293 1.574 . S
C276 C295 1.368 . S
C276 H300 0.949 . S
H277 C281 0.949 . S
C278 C279 1.349 . S
C278 C280 1.327 . S
C278 H301 0.950 . S
C279 C278 1.349 . S
C279 C291 1.349 . S
C280 C278 1.327 . S
C280 C296 1.429 . S
C280 H302 0.950 . S
C281 H277 0.949 . S
C281 C289 1.574 . S
C281 C297 1.368 . S
H282 C290 0.950 . S
H283 C288 0.950 . S
H284 C289 0.949 . S
H285 C291 0.950 . S
H286 C292 0.950 . S
H287 C293 0.949 . S
C288 H283 0.950 . S
C288 C290 1.327 . S
C288 C294 1.429 . S
C289 C281 1.574 . S
C289 H284 0.949 . S
C289 C295 1.368 . S
C290 C274 1.349 . S
C290 H282 0.950 . S
C290 C288 1.327 . S
C291 C279 1.349 . S
C291 H285 0.950 . S
C291 C292 1.327 . S
C292 H286 0.950 . S
C292 C291 1.327 . S
C292 C296 1.429 . S
C293 C276 1.574 . S
C293 H287 0.949 . S
C293 C297 1.368 . S
C294 C275 1.429 . S
C294 C288 1.429 . S
C294 C295 1.523 . S
C295 C276 1.368 . S
C295 C289 1.368 . S
C295 C294 1.523 . S
C296 C280 1.429 . S
C296 C292 1.429 . S
C296 C297 1.523 . S
C297 C281 1.368 . S
C297 C293 1.368 . S
C297 C296 1.523 . S
H298 C273 0.950 . S
H299 C275 0.950 . S
H300 C276 0.949 . S
H301 C278 0.950 . S
H302 C280 0.950 . S
C64 C23 1.087 . S
C69 C34 1.080 . S
C94 C24 1.562 . S
C99 C56 1.564 . S
C124 C8 1.484 . S
C129 C43 1.470 . S
C154 C22 1.639 . S
C159 C33 1.643 . S
C184 C17 1.562 . S
C189 C32 1.567 . S
C219 C50 1.471 . S
C214 C27 1.483 . S
C244 C30 1.639 . S
C249 C59 1.646 . S
C279 C42 1.083 . S
C274 C31 1.091 . S
