# Generated by pormake.
# Topology gar, (4,6)-cn, num edge types: 1
# Building blocks:
#     Node 0, Type 0, BuildingBlock: NAHDIM_clean_sbu_0, # of connection points: 4
#     Node 1, Type 0, BuildingBlock: NAHDIM_clean_sbu_0, # of connection points: 4
#     Node 2, Type 0, BuildingBlock: NAHDIM_clean_sbu_0, # of connection points: 4
#     Node 3, Type 0, BuildingBlock: NAHDIM_clean_sbu_0, # of connection points: 4
#     Node 4, Type 0, BuildingBlock: NAHDIM_clean_sbu_0, # of connection points: 4
#     Node 5, Type 0, BuildingBlock: NAHDIM_clean_sbu_0, # of connection points: 4
#     Node 6, Type 0, BuildingBlock: NAHDIM_clean_sbu_0, # of connection points: 4
#     Node 7, Type 0, BuildingBlock: NAHDIM_clean_sbu_0, # of connection points: 4
#     Node 8, Type 0, BuildingBlock: NAHDIM_clean_sbu_0, # of connection points: 4
#     Node 9, Type 0, BuildingBlock: NAHDIM_clean_sbu_0, # of connection points: 4
#     Node 10, Type 0, BuildingBlock: NAHDIM_clean_sbu_0, # of connection points: 4
#     Node 11, Type 0, BuildingBlock: NAHDIM_clean_sbu_0, # of connection points: 4
#     Node 12, Type 0, BuildingBlock: NAHDIM_clean_sbu_0, # of connection points: 4
#     Node 13, Type 0, BuildingBlock: NAHDIM_clean_sbu_0, # of connection points: 4
#     Node 14, Type 0, BuildingBlock: NAHDIM_clean_sbu_0, # of connection points: 4
#     Node 15, Type 0, BuildingBlock: NAHDIM_clean_sbu_0, # of connection points: 4
#     Node 16, Type 0, BuildingBlock: NAHDIM_clean_sbu_0, # of connection points: 4
#     Node 17, Type 0, BuildingBlock: NAHDIM_clean_sbu_0, # of connection points: 4
#     Node 18, Type 0, BuildingBlock: NAHDIM_clean_sbu_0, # of connection points: 4
#     Node 19, Type 0, BuildingBlock: NAHDIM_clean_sbu_0, # of connection points: 4
#     Node 20, Type 0, BuildingBlock: NAHDIM_clean_sbu_0, # of connection points: 4
#     Node 21, Type 0, BuildingBlock: NAHDIM_clean_sbu_0, # of connection points: 4
#     Node 22, Type 0, BuildingBlock: NAHDIM_clean_sbu_0, # of connection points: 4
#     Node 23, Type 0, BuildingBlock: NAHDIM_clean_sbu_0, # of connection points: 4
#     Node 24, Type 1, BuildingBlock: KUMBUR_clean_sbu_1, # of connection points: 6
#     Node 25, Type 1, BuildingBlock: KUMBUR_clean_sbu_1, # of connection points: 6
#     Node 26, Type 1, BuildingBlock: KUMBUR_clean_sbu_1, # of connection points: 6
#     Node 27, Type 1, BuildingBlock: KUMBUR_clean_sbu_1, # of connection points: 6
#     Node 28, Type 1, BuildingBlock: KUMBUR_clean_sbu_1, # of connection points: 6
#     Node 29, Type 1, BuildingBlock: KUMBUR_clean_sbu_1, # of connection points: 6
#     Node 30, Type 1, BuildingBlock: KUMBUR_clean_sbu_1, # of connection points: 6
#     Node 31, Type 1, BuildingBlock: KUMBUR_clean_sbu_1, # of connection points: 6
#     Node 32, Type 1, BuildingBlock: KUMBUR_clean_sbu_1, # of connection points: 6
#     Node 33, Type 1, BuildingBlock: KUMBUR_clean_sbu_1, # of connection points: 6
#     Node 34, Type 1, BuildingBlock: KUMBUR_clean_sbu_1, # of connection points: 6
#     Node 35, Type 1, BuildingBlock: KUMBUR_clean_sbu_1, # of connection points: 6
#     Node 36, Type 1, BuildingBlock: KUMBUR_clean_sbu_1, # of connection points: 6
#     Node 37, Type 1, BuildingBlock: KUMBUR_clean_sbu_1, # of connection points: 6
#     Node 38, Type 1, BuildingBlock: KUMBUR_clean_sbu_1, # of connection points: 6
#     Node 39, Type 1, BuildingBlock: KUMBUR_clean_sbu_1, # of connection points: 6
#     Edge 40, Type (0, 1), BuildingBlock: ZUJKAS_clean_linker_0, # of connection points: 2
#     Edge 41, Type (0, 1), BuildingBlock: ZUJKAS_clean_linker_0, # of connection points: 2
#     Edge 42, Type (0, 1), BuildingBlock: ZUJKAS_clean_linker_0, # of connection points: 2
#     Edge 43, Type (0, 1), BuildingBlock: ZUJKAS_clean_linker_0, # of connection points: 2
#     Edge 44, Type (0, 1), BuildingBlock: ZUJKAS_clean_linker_0, # of connection points: 2
#     Edge 45, Type (0, 1), BuildingBlock: ZUJKAS_clean_linker_0, # of connection points: 2
#     Edge 46, Type (0, 1), BuildingBlock: ZUJKAS_clean_linker_0, # of connection points: 2
#     Edge 47, Type (0, 1), BuildingBlock: ZUJKAS_clean_linker_0, # of connection points: 2
#     Edge 48, Type (0, 1), BuildingBlock: ZUJKAS_clean_linker_0, # of connection points: 2
#     Edge 49, Type (0, 1), BuildingBlock: ZUJKAS_clean_linker_0, # of connection points: 2
#     Edge 50, Type (0, 1), BuildingBlock: ZUJKAS_clean_linker_0, # of connection points: 2
#     Edge 51, Type (0, 1), BuildingBlock: ZUJKAS_clean_linker_0, # of connection points: 2
#     Edge 52, Type (0, 1), BuildingBlock: ZUJKAS_clean_linker_0, # of connection points: 2
#     Edge 53, Type (0, 1), BuildingBlock: ZUJKAS_clean_linker_0, # of connection points: 2
#     Edge 54, Type (0, 1), BuildingBlock: ZUJKAS_clean_linker_0, # of connection points: 2
#     Edge 55, Type (0, 1), BuildingBlock: ZUJKAS_clean_linker_0, # of connection points: 2
#     Edge 56, Type (0, 1), BuildingBlock: ZUJKAS_clean_linker_0, # of connection points: 2
#     Edge 57, Type (0, 1), BuildingBlock: ZUJKAS_clean_linker_0, # of connection points: 2
#     Edge 58, Type (0, 1), BuildingBlock: ZUJKAS_clean_linker_0, # of connection points: 2
#     Edge 59, Type (0, 1), BuildingBlock: ZUJKAS_clean_linker_0, # of connection points: 2
#     Edge 60, Type (0, 1), BuildingBlock: ZUJKAS_clean_linker_0, # of connection points: 2
#     Edge 61, Type (0, 1), BuildingBlock: ZUJKAS_clean_linker_0, # of connection points: 2
#     Edge 62, Type (0, 1), BuildingBlock: ZUJKAS_clean_linker_0, # of connection points: 2
#     Edge 63, Type (0, 1), BuildingBlock: ZUJKAS_clean_linker_0, # of connection points: 2
#     Edge 64, Type (0, 1), BuildingBlock: ZUJKAS_clean_linker_0, # of connection points: 2
#     Edge 65, Type (0, 1), BuildingBlock: ZUJKAS_clean_linker_0, # of connection points: 2
#     Edge 66, Type (0, 1), BuildingBlock: ZUJKAS_clean_linker_0, # of connection points: 2
#     Edge 67, Type (0, 1), BuildingBlock: ZUJKAS_clean_linker_0, # of connection points: 2
#     Edge 68, Type (0, 1), BuildingBlock: ZUJKAS_clean_linker_0, # of connection points: 2
#     Edge 69, Type (0, 1), BuildingBlock: ZUJKAS_clean_linker_0, # of connection points: 2
#     Edge 70, Type (0, 1), BuildingBlock: ZUJKAS_clean_linker_0, # of connection points: 2
#     Edge 71, Type (0, 1), BuildingBlock: ZUJKAS_clean_linker_0, # of connection points: 2
#     Edge 72, Type (0, 1), BuildingBlock: ZUJKAS_clean_linker_0, # of connection points: 2
#     Edge 73, Type (0, 1), BuildingBlock: ZUJKAS_clean_linker_0, # of connection points: 2
#     Edge 74, Type (0, 1), BuildingBlock: ZUJKAS_clean_linker_0, # of connection points: 2
#     Edge 75, Type (0, 1), BuildingBlock: ZUJKAS_clean_linker_0, # of connection points: 2
#     Edge 76, Type (0, 1), BuildingBlock: ZUJKAS_clean_linker_0, # of connection points: 2
#     Edge 77, Type (0, 1), BuildingBlock: ZUJKAS_clean_linker_0, # of connection points: 2
#     Edge 78, Type (0, 1), BuildingBlock: ZUJKAS_clean_linker_0, # of connection points: 2
#     Edge 79, Type (0, 1), BuildingBlock: ZUJKAS_clean_linker_0, # of connection points: 2
#     Edge 80, Type (0, 1), BuildingBlock: ZUJKAS_clean_linker_0, # of connection points: 2
#     Edge 81, Type (0, 1), BuildingBlock: ZUJKAS_clean_linker_0, # of connection points: 2
#     Edge 82, Type (0, 1), BuildingBlock: ZUJKAS_clean_linker_0, # of connection points: 2
#     Edge 83, Type (0, 1), BuildingBlock: ZUJKAS_clean_linker_0, # of connection points: 2
#     Edge 84, Type (0, 1), BuildingBlock: ZUJKAS_clean_linker_0, # of connection points: 2
#     Edge 85, Type (0, 1), BuildingBlock: ZUJKAS_clean_linker_0, # of connection points: 2
#     Edge 86, Type (0, 1), BuildingBlock: ZUJKAS_clean_linker_0, # of connection points: 2
#     Edge 87, Type (0, 1), BuildingBlock: ZUJKAS_clean_linker_0, # of connection points: 2
#     Edge 88, Type (0, 1), BuildingBlock: ZUJKAS_clean_linker_0, # of connection points: 2
#     Edge 89, Type (0, 1), BuildingBlock: ZUJKAS_clean_linker_0, # of connection points: 2
#     Edge 90, Type (0, 1), BuildingBlock: ZUJKAS_clean_linker_0, # of connection points: 2
#     Edge 91, Type (0, 1), BuildingBlock: ZUJKAS_clean_linker_0, # of connection points: 2
#     Edge 92, Type (0, 1), BuildingBlock: ZUJKAS_clean_linker_0, # of connection points: 2
#     Edge 93, Type (0, 1), BuildingBlock: ZUJKAS_clean_linker_0, # of connection points: 2
#     Edge 94, Type (0, 1), BuildingBlock: ZUJKAS_clean_linker_0, # of connection points: 2
#     Edge 95, Type (0, 1), BuildingBlock: ZUJKAS_clean_linker_0, # of connection points: 2
#     Edge 96, Type (0, 1), BuildingBlock: ZUJKAS_clean_linker_0, # of connection points: 2
#     Edge 97, Type (0, 1), BuildingBlock: ZUJKAS_clean_linker_0, # of connection points: 2
#     Edge 98, Type (0, 1), BuildingBlock: ZUJKAS_clean_linker_0, # of connection points: 2
#     Edge 99, Type (0, 1), BuildingBlock: ZUJKAS_clean_linker_0, # of connection points: 2
#     Edge 100, Type (0, 1), BuildingBlock: ZUJKAS_clean_linker_0, # of connection points: 2
#     Edge 101, Type (0, 1), BuildingBlock: ZUJKAS_clean_linker_0, # of connection points: 2
#     Edge 102, Type (0, 1), BuildingBlock: ZUJKAS_clean_linker_0, # of connection points: 2
#     Edge 103, Type (0, 1), BuildingBlock: ZUJKAS_clean_linker_0, # of connection points: 2
#     Edge 104, Type (0, 1), BuildingBlock: ZUJKAS_clean_linker_0, # of connection points: 2
#     Edge 105, Type (0, 1), BuildingBlock: ZUJKAS_clean_linker_0, # of connection points: 2
#     Edge 106, Type (0, 1), BuildingBlock: ZUJKAS_clean_linker_0, # of connection points: 2
#     Edge 107, Type (0, 1), BuildingBlock: ZUJKAS_clean_linker_0, # of connection points: 2
#     Edge 108, Type (0, 1), BuildingBlock: ZUJKAS_clean_linker_0, # of connection points: 2
#     Edge 109, Type (0, 1), BuildingBlock: ZUJKAS_clean_linker_0, # of connection points: 2
#     Edge 110, Type (0, 1), BuildingBlock: ZUJKAS_clean_linker_0, # of connection points: 2
#     Edge 111, Type (0, 1), BuildingBlock: ZUJKAS_clean_linker_0, # of connection points: 2
#     Edge 112, Type (0, 1), BuildingBlock: ZUJKAS_clean_linker_0, # of connection points: 2
#     Edge 113, Type (0, 1), BuildingBlock: ZUJKAS_clean_linker_0, # of connection points: 2
#     Edge 114, Type (0, 1), BuildingBlock: ZUJKAS_clean_linker_0, # of connection points: 2
#     Edge 115, Type (0, 1), BuildingBlock: ZUJKAS_clean_linker_0, # of connection points: 2
#     Edge 116, Type (0, 1), BuildingBlock: ZUJKAS_clean_linker_0, # of connection points: 2
#     Edge 117, Type (0, 1), BuildingBlock: ZUJKAS_clean_linker_0, # of connection points: 2
#     Edge 118, Type (0, 1), BuildingBlock: ZUJKAS_clean_linker_0, # of connection points: 2
#     Edge 119, Type (0, 1), BuildingBlock: ZUJKAS_clean_linker_0, # of connection points: 2
#     Edge 120, Type (0, 1), BuildingBlock: ZUJKAS_clean_linker_0, # of connection points: 2
#     Edge 121, Type (0, 1), BuildingBlock: ZUJKAS_clean_linker_0, # of connection points: 2
#     Edge 122, Type (0, 1), BuildingBlock: ZUJKAS_clean_linker_0, # of connection points: 2
#     Edge 123, Type (0, 1), BuildingBlock: ZUJKAS_clean_linker_0, # of connection points: 2
#     Edge 124, Type (0, 1), BuildingBlock: ZUJKAS_clean_linker_0, # of connection points: 2
#     Edge 125, Type (0, 1), BuildingBlock: ZUJKAS_clean_linker_0, # of connection points: 2
#     Edge 126, Type (0, 1), BuildingBlock: ZUJKAS_clean_linker_0, # of connection points: 2
#     Edge 127, Type (0, 1), BuildingBlock: ZUJKAS_clean_linker_0, # of connection points: 2
#     Edge 128, Type (0, 1), BuildingBlock: ZUJKAS_clean_linker_0, # of connection points: 2
#     Edge 129, Type (0, 1), BuildingBlock: ZUJKAS_clean_linker_0, # of connection points: 2
#     Edge 130, Type (0, 1), BuildingBlock: ZUJKAS_clean_linker_0, # of connection points: 2
#     Edge 131, Type (0, 1), BuildingBlock: ZUJKAS_clean_linker_0, # of connection points: 2
#     Edge 132, Type (0, 1), BuildingBlock: ZUJKAS_clean_linker_0, # of connection points: 2
#     Edge 133, Type (0, 1), BuildingBlock: ZUJKAS_clean_linker_0, # of connection points: 2
#     Edge 134, Type (0, 1), BuildingBlock: ZUJKAS_clean_linker_0, # of connection points: 2
#     Edge 135, Type (0, 1), BuildingBlock: ZUJKAS_clean_linker_0, # of connection points: 2
# Relax obj value: 0.069
# Max RMSD: 0.187
# Mean RMSD: 0.132
data_MOF--net-gar--node1-NAHDIM_clean_sbu_0--node2-KUMBUR_clean_sbu_1--edge1-ZUJKAS_clean_linker_0
_symmetry_space_group_name_H-M    P1
_symmetry_Int_Tables_number       1
_symmetry_cell_setting            triclinic
loop_
_symmetry_equiv_pos_as_xyz
'x, y, z'
_cell_length_a     77.415256
_cell_length_b     76.217657
_cell_length_c     70.439934
_cell_angle_alpha  95.731713
_cell_angle_beta   95.968843
_cell_angle_gamma 100.90094
loop_
_atom_site_label
_atom_site_type_symbol
_atom_site_fract_x
_atom_site_fract_y
_atom_site_fract_z
_atom_type_partial_charge
C0 C 0.07711 0.29997 0.348 0.0
O1 O 0.07844 0.30216 0.36687 0.0
O2 O 0.03852 0.27529 0.36886 0.0
Zn3 Zn 0.03896 0.29783 0.35445 0.0
O4 O 0.04274 0.32092 0.37473 0.0
C5 C 1.0001 0.29819 0.34707 0.0
O6 O 1.00351 0.3038 0.36556 0.0
O7 O 0.06156 0.29834 0.33866 0.0
C8 C 0.03757 0.33525 0.37068 0.0
O9 O 0.03035 0.33562 0.35303 0.0
C10 C 0.02988 0.27172 0.38295 0.0
O11 O 0.02054 0.28318 0.38946 0.0
O12 O 0.01308 0.29481 0.33825 0.0
C13 C 0.98003 0.75446 0.69615 0.0
O14 O 0.97927 0.75616 0.67771 0.0
O15 O 0.01336 0.72395 0.67186 0.0
Zn16 Zn 0.01683 0.74962 0.68831 0.0
O17 O 0.01676 0.76948 0.66985 0.0
C18 C 0.05567 0.74915 0.69731 0.0
O19 O 0.05239 0.74161 0.67938 0.0
O20 O 0.99457 0.75132 0.70451 0.0
C21 C 0.02786 0.78448 0.67253 0.0
O22 O 0.04043 0.78733 0.68718 0.0
C23 C 0.01787 0.72172 0.6549 0.0
O24 O 0.02392 0.73611 0.64688 0.0
O25 O 0.04272 0.75408 0.70504 0.0
C26 C 0.57848 0.80523 0.84619 0.0
O27 O 0.58142 0.81377 0.86371 0.0
O28 O 0.53986 0.77805 0.87096 0.0
Zn29 Zn 0.54016 0.79983 0.85557 0.0
O30 O 0.54489 0.82327 0.87566 0.0
C31 C 0.5011 0.78432 0.83637 0.0
O32 O 0.50449 0.76846 0.83917 0.0
O33 O 0.56223 0.79886 0.83895 0.0
C34 C 0.53555 0.83534 0.87386 0.0
O35 O 0.52368 0.83321 0.85863 0.0
C36 C 0.52779 0.77183 0.88093 0.0
O37 O 0.51417 0.77972 0.88197 0.0
O38 O 0.51382 0.79816 0.84072 0.0
C39 C 0.47869 0.25107 0.19685 0.0
O40 O 0.47662 0.24794 0.17798 0.0
O41 O 0.51235 0.22462 0.17296 0.0
Zn42 Zn 0.51634 0.25015 0.18941 0.0
O43 O 0.51648 0.2698 0.17094 0.0
C44 C 0.55476 0.24805 0.19898 0.0
O45 O 0.55098 0.23822 0.18214 0.0
O46 O 0.49438 0.25226 0.20565 0.0
C47 C 0.52686 0.28519 0.17483 0.0
O48 O 0.53807 0.28835 0.19069 0.0
C49 C 0.51728 0.22251 0.1562 0.0
O50 O 0.52416 0.23693 0.14867 0.0
O51 O 0.54228 0.2547 0.20581 0.0
C52 C 0.01928 0.7746 0.13097 0.0
O53 O 0.01966 0.75913 0.12115 0.0
O54 O 0.05073 0.76318 0.09737 0.0
Zn55 Zn 0.05263 0.78901 0.11352 0.0
O56 O 0.05092 0.81249 0.09936 0.0
C57 C 0.08466 0.78034 0.135 0.0
O58 O 0.07653 0.76407 0.12738 0.0
O59 O 0.03176 0.78807 0.13035 0.0
C60 C 0.05314 0.81744 0.08274 0.0
O61 O 0.05787 0.80624 0.0698 0.0
C62 C 0.03893 0.75282 0.08495 0.0
O63 O 0.02478 0.75876 0.07872 0.0
O64 O 0.07714 0.79352 0.13161 0.0
C65 C 0.54014 0.77311 0.41948 0.0
O66 O 0.54307 0.78397 0.43568 0.0
O67 O 0.50202 0.73865 0.44444 0.0
Zn68 Zn 0.50431 0.7633 0.43146 0.0
O69 O 0.51002 0.78866 0.44932 0.0
C70 C 0.46776 0.75095 0.40738 0.0
O71 O 0.46761 0.73509 0.41323 0.0
O72 O 0.52476 0.76319 0.41462 0.0
C73 C 0.49904 0.79937 0.44873 0.0
O74 O 0.48342 0.79344 0.4386 0.0
C75 C 0.51292 0.73466 0.4576 0.0
O76 O 0.52643 0.7473 0.46559 0.0
O77 O 0.4813 0.76355 0.41293 0.0
C78 C 0.51746 0.29069 0.62609 0.0
O79 O 0.51521 0.29677 0.6094 0.0
O80 O 0.54691 0.26088 0.59743 0.0
Zn81 Zn 0.55165 0.28736 0.61278 0.0
O82 O 0.54847 0.31013 0.59768 0.0
C83 C 0.58856 0.28306 0.62672 0.0
O84 O 0.58619 0.27233 0.61049 0.0
O85 O 0.53203 0.2858 0.63098 0.0
C86 C 0.55907 0.32071 0.58898 0.0
O87 O 0.57487 0.31726 0.58731 0.0
C88 C 0.55304 0.25431 0.58267 0.0
O89 O 0.56341 0.26535 0.57354 0.0
O90 O 0.57624 0.29145 0.63055 0.0
C91 C 0.03937 0.26072 0.91685 0.0
O92 O 0.04038 0.25114 0.93129 0.0
O93 O 0.00525 0.23887 0.94182 0.0
Zn94 Zn 1.00464 0.26375 0.92991 0.0
O95 O 0.00736 0.28831 0.94842 0.0
C96 C 0.96573 0.25877 0.91539 0.0
O97 O 0.96356 0.25652 0.93331 0.0
O98 O 0.02561 0.26747 0.91356 0.0
C99 C 1.00309 0.30164 0.9405 0.0
O100 O 0.99713 0.29882 0.92208 0.0
C101 C 1.00453 0.23417 0.95878 0.0
O102 O 1.00262 0.24619 0.97272 0.0
O103 O 0.98147 0.26137 0.91076 0.0
C104 C 0.36706 0.05021 0.30105 0.0
O105 O 0.38418 0.05201 0.3062 0.0
O106 O 0.38824 0.02297 0.26779 0.0
Zn107 Zn 0.37257 0.01741 0.28795 0.0
O108 O 0.38701 0.01788 0.31284 0.0
C109 C 0.36283 0.98112 0.2733 0.0
O110 O 0.37846 0.98438 0.26724 0.0
O111 O 0.35842 0.03564 0.29163 0.0
C112 C 0.39062 0.0043 0.32015 0.0
O113 O 0.38453 0.98805 0.3111 0.0
C114 C 0.40365 0.01943 0.26973 0.0
O115 O 0.40899 0.01238 0.28499 0.0
O116 O 0.35699 0.99384 0.28165 0.0
C117 C 0.29971 0.15253 0.50513 0.0
O118 O 0.30278 0.16909 0.5007 0.0
O119 O 0.27035 0.17629 0.53661 0.0
Zn120 Zn 0.2661 0.16154 0.51019 0.0
O121 O 0.26957 0.17757 0.48883 0.0
C122 C 0.22881 0.14963 0.51438 0.0
O123 O 0.23163 0.16514 0.52529 0.0
O124 O 0.28457 0.14599 0.50974 0.0
C125 C 0.25728 0.17983 0.47642 0.0
O126 O 0.24083 0.17201 0.47753 0.0
C127 C 0.26596 0.19146 0.54005 0.0
O128 O 0.2585 0.19847 0.52583 0.0
O129 O 0.24149 0.14521 0.50612 0.0
C130 C 0.15029 1.00184 0.77695 0.0
O131 O 0.13434 0.99799 0.76725 0.0
O132 O 0.12545 0.03172 0.75822 0.0
Zn133 Zn 0.14031 0.03596 0.78467 0.0
O134 O 0.12575 0.03189 0.80683 0.0
C135 C 0.15364 0.07257 0.77709 0.0
O136 O 0.14099 0.06798 0.76253 0.0
O137 O 0.15618 0.0177 0.78544 0.0
C138 C 0.11678 0.04243 0.81444 0.0
O139 O 0.11577 0.05755 0.80734 0.0
C140 C 0.10989 0.03473 0.75472 0.0
O141 O 0.10193 0.04034 0.76905 0.0
O142 O 0.15577 0.06122 0.78878 0.0
C143 C 0.25579 0.94057 0.99066 0.0
O144 O 0.25475 0.92333 0.9854 0.0
O145 O 0.28219 0.91861 0.02051 0.0
Zn146 Zn 0.28862 0.93601 0.0017 0.0
O147 O 0.2889 0.92299 0.97616 0.0
C148 C 0.32303 0.94614 0.02116 0.0
O149 O 0.31772 0.93183 0.02957 0.0
O150 O 0.27033 0.9501 0.99889 0.0
C151 C 0.3025 0.91778 0.9711 0.0
O152 O 0.31726 0.92106 0.98301 0.0
C153 C 0.28619 0.90317 0.01917 0.0
O154 O 0.29437 0.89811 0.0048 0.0
O155 O 0.31213 0.95151 0.00955 0.0
C156 C 0.25388 0.39798 0.03517 0.0
O157 O 0.25005 0.38092 0.03782 0.0
O158 O 0.28681 0.37849 0.05991 0.0
Zn159 Zn 0.28879 0.39019 0.03522 0.0
O160 O 0.28436 0.37204 0.01088 0.0
C161 C 0.32712 0.405 0.04508 0.0
O162 O 0.32685 0.39124 0.05496 0.0
O163 O 0.26981 0.40506 0.03345 0.0
C164 C 0.29689 0.37015 0.00096 0.0
O165 O 0.31301 0.37908 0.00734 0.0
C166 C 0.29084 0.36355 0.06314 0.0
O167 O 0.29722 0.35433 0.04973 0.0
O168 O 0.3127 0.40721 0.03611 0.0
C169 C 0.80597 0.11784 0.04911 0.0
O170 O 0.80776 0.13514 0.04773 0.0
O171 O 0.77464 0.13883 0.06668 0.0
Zn172 Zn 0.77213 0.1218 0.04374 0.0
O173 O 0.77521 0.13609 0.02206 0.0
C174 C 0.74094 0.10183 0.05469 0.0
O175 O 0.74976 0.10496 0.07205 0.0
O176 O 0.79063 0.108 0.0472 0.0
C177 C 0.76207 0.13648 0.00993 0.0
O178 O 0.74636 0.12686 0.01111 0.0
C179 C 0.76328 0.14862 0.06836 0.0
O180 O 0.74986 0.14691 0.0548 0.0
O181 O 0.7485 0.10671 0.04046 0.0
C182 C 0.18579 0.49775 0.23949 0.0
O183 O 0.16837 0.49448 0.23692 0.0
O184 O 0.16326 0.52934 0.22678 0.0
Zn185 Zn 0.17989 0.53125 0.25004 0.0
O186 O 0.16741 0.52789 0.27271 0.0
C187 C 0.19168 0.56723 0.24373 0.0
O188 O 0.17883 0.56337 0.22935 0.0
O189 O 0.19428 0.51342 0.24596 0.0
C190 C 0.15893 0.53992 0.27764 0.0
O191 O 0.15881 0.55354 0.2676 0.0
C192 C 0.14653 0.52628 0.2255 0.0
O193 O 0.13848 0.5225 0.24053 0.0
O194 O 0.19481 0.55524 0.25406 0.0
C195 C 0.75314 0.89813 0.525 0.0
O196 O 0.74951 0.88155 0.51633 0.0
O197 O 0.78585 0.87795 0.55889 0.0
Zn198 Zn 0.78762 0.88943 0.53412 0.0
O199 O 0.78375 0.87099 0.50987 0.0
C200 C 0.82474 0.90732 0.54829 0.0
O201 O 0.82257 0.89833 0.56312 0.0
O202 O 0.76878 0.90469 0.53319 0.0
C203 C 0.79148 0.87574 0.49552 0.0
O204 O 0.80137 0.89196 0.49704 0.0
C205 C 0.78822 0.86235 0.56192 0.0
O206 O 0.79246 0.85184 0.54796 0.0
O207 O 0.81185 0.90576 0.53506 0.0
C208 C 0.90824 0.05025 0.26793 0.0
O209 O 0.92298 0.05317 0.27986 0.0
O210 O 0.92916 0.0147 0.23347 0.0
Zn211 Zn 0.91775 0.01553 0.25804 0.0
O212 O 0.93572 0.01971 0.28241 0.0
C213 C 0.89695 0.97929 0.24392 0.0
O214 O 0.90331 0.98193 0.22764 0.0
O215 O 0.90333 0.03516 0.25747 0.0
C216 C 0.93101 0.01193 0.29678 0.0
O217 O 0.91509 1.00177 0.29522 0.0
C218 C 0.94501 0.02171 0.23145 0.0
O219 O 0.95586 0.03014 0.24656 0.0
O220 O 0.90105 0.99167 0.25805 0.0
C221 C 0.29884 0.60752 0.55804 0.0
O222 O 0.29813 0.61783 0.57392 0.0
O223 O 0.2724 0.63783 0.56632 0.0
Zn224 Zn 0.2692 0.62089 0.54273 0.0
O225 O 0.2721 0.63487 0.52083 0.0
C226 C 0.23785 0.60086 0.55345 0.0
O227 O 0.24576 0.60627 0.57105 0.0
O228 O 0.28729 0.60644 0.54365 0.0
C229 C 0.25904 0.63895 0.51111 0.0
O230 O 0.24292 0.63345 0.51531 0.0
C231 C 0.26162 0.6482 0.56869 0.0
O232 O 0.24822 0.64746 0.55538 0.0
O233 O 0.24575 0.60523 0.53925 0.0
C234 C 0.40279 0.54588 0.74782 0.0
O235 O 0.40697 0.54155 0.73061 0.0
O236 O 0.43141 0.5145 0.73571 0.0
Zn237 Zn 0.41908 0.51585 0.7599 0.0
O238 O 0.43598 0.51982 0.7848 0.0
C239 C 0.40344 0.47765 0.75234 0.0
O240 O 0.41821 0.47695 0.74491 0.0
O241 O 0.40648 0.5368 0.76134 0.0
C242 C 0.44154 0.50731 0.79273 0.0
O243 O 0.4374 0.49082 0.78382 0.0
C244 C 0.44354 0.52696 0.73195 0.0
O245 O 0.44899 0.54144 0.74448 0.0
O246 O 0.40083 0.49281 0.75943 0.0
C247 C 0.68613 0.99836 0.74823 0.0
O248 O 0.66944 0.99673 0.75113 0.0
O249 O 0.66528 0.02986 0.72403 0.0
Zn250 Zn 0.68125 0.03241 0.74782 0.0
O251 O 0.66708 0.03101 0.76963 0.0
C252 C 0.68695 0.06835 0.74944 0.0
O253 O 0.6696 0.06406 0.74861 0.0
O254 O 0.69508 0.01368 0.74651 0.0
C255 C 0.67203 0.0402 0.78594 0.0
O256 O 0.68768 0.05101 0.78928 0.0
C257 C 0.64897 0.0229 0.72281 0.0
O258 O 0.64247 0.01563 0.73735 0.0
O259 O 0.69599 0.05615 0.74968 0.0
C260 C 0.80083 0.65164 0.01797 0.0
O261 O 0.80339 0.6659 0.03082 0.0
O262 O 0.77076 0.67629 0.03516 0.0
Zn263 Zn 0.76758 0.66226 0.00851 0.0
O264 O 0.77098 0.67875 0.98781 0.0
C265 C 0.72998 0.65076 0.00977 0.0
O266 O 0.73175 0.66737 0.01791 0.0
O267 O 0.78626 0.64719 0.00691 0.0
C268 C 0.75861 0.68172 0.97598 0.0
O269 O 0.7421 0.67438 0.97739 0.0
C270 C 0.76698 0.69175 0.03843 0.0
O271 O 0.76104 0.69948 0.02393 0.0
O272 O 0.74346 0.64556 0.00409 0.0
C273 C 0.86733 0.5521 0.80251 0.0
O274 O 0.88421 0.55355 0.80864 0.0
O275 O 0.88616 0.52302 0.7666 0.0
Zn276 Zn 0.87233 0.51894 0.7882 0.0
O277 O 0.88871 0.51959 0.81157 0.0
C278 C 0.86362 0.48294 0.7747 0.0
O279 O 0.8791 0.48701 0.76844 0.0
O280 O 0.85879 0.53775 0.79251 0.0
C281 C 0.89029 0.50691 0.8215 0.0
O282 O 0.88013 0.4909 0.81659 0.0
C283 C 0.90267 0.52948 0.76932 0.0
O284 O 0.91064 0.53532 0.78681 0.0
O285 O 0.85713 0.49517 0.78316 0.0
C286 C 0.75147 0.44076 0.49578 0.0
O287 O 0.75026 0.42327 0.49518 0.0
O288 O 0.78238 0.4222 0.52246 0.0
Zn289 Zn 0.78564 0.43769 0.5013 0.0
O290 O 0.78408 0.42245 0.47665 0.0
C291 C 0.81925 0.45411 0.52106 0.0
O292 O 0.81342 0.44546 0.53507 0.0
O293 O 0.7666 0.45107 0.49886 0.0
C294 C 0.79749 0.41773 0.47041 0.0
O295 O 0.81326 0.42347 0.48028 0.0
C296 C 0.784 0.40589 0.52029 0.0
O297 O 0.78733 0.39879 0.50365 0.0
O298 O 0.80896 0.45376 0.50577 0.0
C299 C 0.65152 0.50212 0.28832 0.0
O300 O 0.63685 0.49937 0.29639 0.0
O301 O 0.6256 0.53436 0.25795 0.0
Zn302 Zn 0.64104 0.536 0.28354 0.0
O303 O 0.6271 0.53206 0.30617 0.0
C304 C 0.65456 0.57283 0.27761 0.0
O305 O 0.64135 0.56892 0.26362 0.0
O306 O 0.65614 0.51693 0.28152 0.0
C307 C 0.61507 0.54015 0.31122 0.0
O308 O 0.61027 0.55224 0.30088 0.0
C309 C 0.6105 0.52462 0.25158 0.0
O310 O 0.60257 0.5133 0.26237 0.0
O311 O 0.6571 0.56093 0.28847 0.0
Tb312 Tb 0.04689 0.0336 0.03403 0.0
C313 C 0.98946 0.97282 0.98288 0.0
N314 N 0.9986 0.98877 0.97882 0.0
C315 C 1.00028 0.97539 0.94689 0.0
C316 C 0.98524 0.9575 0.96899 0.0
C317 C 1.00411 0.99022 0.96111 0.0
C318 C 0.99071 0.95898 0.9508 0.0
C319 C 0.97599 0.9552 0.00631 0.0
C320 C 0.98479 0.97172 0.00128 0.0
C321 C 0.97125 0.94006 0.99234 0.0
C322 C 0.97585 0.94121 0.97372 0.0
Tb323 Tb 1.00123 0.01247 0.00224 0.0
N324 N 0.98979 0.9866 0.01451 0.0
C325 C 0.97254 0.95429 0.02532 0.0
C326 C 0.98692 0.98556 0.03319 0.0
C327 C 0.97825 0.96948 0.03886 0.0
H328 H 0.01058 0.00303 0.95754 0.0
H329 H 0.97607 0.96881 0.05373 0.0
H330 H 0.04717 0.04269 0.08137 0.0
H331 H 0.07853 0.07383 0.98316 0.0
H332 H 0.99172 0.99678 0.04394 0.0
H333 H 0.96585 0.94184 0.02977 0.0
H334 H 0.06531 0.04606 0.99505 0.0
H335 H 1.00443 0.97671 0.93281 0.0
H336 H 0.9643 0.92731 0.99589 0.0
H337 H 0.97232 0.92935 0.96317 0.0
H338 H 0.05547 0.0692 0.10593 0.0
H339 H 0.98766 0.94754 0.9397 0.0
H340 H 0.08472 0.10259 0.00464 0.0
N341 N 0.05447 0.05728 0.05821 0.0
C342 C 0.06222 0.07335 0.05314 0.0
C343 C 0.05728 0.07063 0.09109 0.0
C344 C 0.06739 0.08884 0.06677 0.0
C345 C 0.05238 0.05568 0.07705 0.0
C346 C 0.06466 0.08734 0.0859 0.0
N347 N 0.06089 0.05868 0.02185 0.0
C348 C 0.06636 0.0584 0.00403 0.0
C349 C 0.0741 0.09038 0.02853 0.0
C350 C 0.06556 0.07409 0.03433 0.0
C351 C 0.07816 0.09038 0.00966 0.0
C352 C 0.07457 0.07422 0.99747 0.0
H353 H 0.06852 0.0989 0.09682 0.0
H354 H 0.07943 0.11726 0.07121 0.0
H355 H 0.08526 0.11862 0.03766 0.0
O356 O 0.07066 0.02549 0.02846 0.0
O357 O 0.03131 0.05397 0.02614 0.0
O358 O 0.01268 0.04074 0.99845 0.0
O359 O 0.06376 0.02925 0.05762 0.0
O360 O 0.04667 0.01906 0.00499 0.0
O361 O 0.02236 0.0249 0.9874 0.0
O362 O 0.97547 0.01668 0.00514 0.0
O363 O 0.01896 0.99376 0.01007 0.0
O364 O 0.03177 0.00755 0.03966 0.0
O365 O 0.98433 0.01254 0.97687 0.0
O366 O 0.99871 0.02653 0.0304 0.0
O367 O 0.02469 0.02787 0.05087 0.0
C368 C 0.02084 0.05511 0.01046 0.0
C369 C 0.0917 0.02051 0.05459 0.0
C370 C 0.11933 0.01168 0.0491 0.0
C371 C 0.12338 0.01118 0.06892 0.0
C372 C 0.09567 0.01987 0.07441 0.0
C373 C 0.11152 0.01525 0.08152 0.0
C374 C 0.10358 0.01646 0.04208 0.0
C375 C 0.03802 0.02085 0.9884 0.0
C376 C 0.07525 0.0253 0.04677 0.0
C377 C 0.07544 0.10521 0.06097 0.0
C378 C 0.07875 0.10599 0.04187 0.0
C379 C 0.02741 0.99301 0.02712 0.0
C380 C 0.95437 0.0172 0.97716 0.0
C381 C 0.9269 0.02758 0.97958 0.0
C382 C 0.92269 0.02426 0.95951 0.0
C383 C 0.95006 0.01369 0.95709 0.0
C384 C 0.94266 0.02392 0.98828 0.0
C385 C 0.93422 0.01717 0.94833 0.0
C386 C 0.00801 0.0296 0.04762 0.0
C387 C 0.97163 0.01549 0.98652 0.0
H388 H 0.13549 0.00731 0.07455 0.0
H389 H 0.08658 0.02291 0.08436 0.0
H390 H 0.11454 0.01469 0.09677 0.0
H391 H 0.10059 0.01699 0.02677 0.0
H392 H 0.91055 0.02711 0.95256 0.0
H393 H 0.95904 0.00858 0.94817 0.0
H394 H 0.94616 0.0271 0.00373 0.0
H395 H 0.93098 0.0146 0.93286 0.0
Tb396 Tb 0.26564 0.7715 0.29391 0.0
C397 C 0.30541 0.74532 0.22052 0.0
N398 N 0.31185 0.75778 0.23602 0.0
C399 C 0.33829 0.74579 0.2403 0.0
C400 C 0.31497 0.73219 0.21461 0.0
C401 C 0.32814 0.75833 0.24585 0.0
C402 C 0.33165 0.73261 0.22467 0.0
C403 C 0.2811 0.73198 0.19577 0.0
C404 C 0.28868 0.74521 0.21138 0.0
C405 C 0.29053 0.71881 0.18978 0.0
C406 C 0.30744 0.71893 0.19915 0.0
Tb407 Tb 0.2943 0.7774 0.24451 0.0
N408 N 0.2798 0.75793 0.21799 0.0
C409 C 0.26431 0.7324 0.18664 0.0
C410 C 0.26387 0.75901 0.20819 0.0
C411 C 0.25579 0.74612 0.19271 0.0
H412 H 0.33336 0.76847 0.25795 0.0
H413 H 0.24304 0.74693 0.18531 0.0
H414 H 0.22554 0.77885 0.28055 0.0
H415 H 0.31417 0.7996 0.35619 0.0
H416 H 0.2573 0.76988 0.21165 0.0
H417 H 0.25799 0.72245 0.17464 0.0
H418 H 0.30177 0.77841 0.32765 0.0
H419 H 0.35118 0.74624 0.24816 0.0
H420 H 0.28487 0.70848 0.17789 0.0
H421 H 0.31453 0.70865 0.19443 0.0
H422 H 0.20636 0.7991 0.29162 0.0
H423 H 0.33945 0.72277 0.22055 0.0
H424 H 0.29738 0.82187 0.36856 0.0
N425 N 0.24647 0.78906 0.30331 0.0
C426 C 0.25198 0.80048 0.31984 0.0
C427 C 0.21921 0.7997 0.29963 0.0
C428 C 0.24149 0.81241 0.3266 0.0
C429 C 0.23021 0.78832 0.29331 0.0
C430 C 0.22491 0.81188 0.31628 0.0
N431 N 0.27848 0.78931 0.32209 0.0
C432 C 0.29439 0.78839 0.332 0.0
C433 C 0.27511 0.81288 0.34625 0.0
C434 C 0.26858 0.80071 0.32948 0.0
C435 C 0.29186 0.81269 0.35568 0.0
C436 C 0.30142 0.80023 0.34866 0.0
H437 H 0.21643 0.82079 0.32102 0.0
H438 H 0.24014 0.83395 0.34861 0.0
H439 H 0.26959 0.83438 0.3658 0.0
O440 O 0.26668 0.75122 0.31183 0.0
O441 O 0.27298 0.80011 0.29124 0.0
O442 O 0.28553 0.78712 0.27008 0.0
O443 O 0.2419 0.75422 0.29707 0.0
O444 O 0.29363 0.76667 0.29581 0.0
O445 O 0.31015 0.78195 0.2736 0.0
O446 O 0.29406 0.79747 0.22624 0.0
O447 O 0.28952 0.75015 0.25195 0.0
O448 O 0.26733 0.75699 0.2664 0.0
O449 O 0.31862 0.79361 0.24085 0.0
O450 O 0.26728 0.78442 0.24215 0.0
O451 O 0.25015 0.77082 0.26496 0.0
C452 C 0.28262 0.80222 0.27763 0.0
C453 C 0.24091 0.74371 0.32731 0.0
C454 C 0.24253 0.73775 0.36075 0.0
C455 C 0.22395 0.7356 0.35953 0.0
C456 C 0.2224 0.7415 0.3264 0.0
C457 C 0.21403 0.73766 0.34251 0.0
C458 C 0.2509 0.74218 0.34463 0.0
C459 C 0.30886 0.77313 0.28908 0.0
C460 C 0.24951 0.74605 0.30981 0.0
C461 C 0.24797 0.8246 0.34324 0.0
C462 C 0.26475 0.82486 0.35302 0.0
C463 C 0.27789 0.74596 0.26352 0.0
C464 C 0.31865 0.80165 0.20927 0.0
C465 C 0.319 0.81267 0.17811 0.0
C466 C 0.33104 0.8018 0.17328 0.0
C467 C 0.3305 0.79059 0.20424 0.0
C468 C 0.313 0.81263 0.19616 0.0
C469 C 0.33671 0.79077 0.18631 0.0
C470 C 0.25197 0.77944 0.24936 0.0
C471 C 0.31126 0.8015 0.22762 0.0
H472 H 0.21696 0.73168 0.37146 0.0
H473 H 0.21436 0.7424 0.31314 0.0
H474 H 0.19974 0.73576 0.34164 0.0
H475 H 0.26519 0.744 0.34541 0.0
H476 H 0.33573 0.80156 0.15931 0.0
H477 H 0.33489 0.78178 0.21402 0.0
H478 H 0.30378 0.82111 0.19999 0.0
H479 H 0.34579 0.78222 0.18244 0.0
Tb480 Tb 0.50314 0.02254 0.52595 0.0
C481 C 0.57093 0.06126 0.49246 0.0
N482 N 0.5588 0.04589 0.48594 0.0
C483 C 0.55735 0.05436 0.45398 0.0
C484 C 0.57614 0.07418 0.48008 0.0
C485 C 0.55262 0.04192 0.46678 0.0
C486 C 0.56897 0.07066 0.46068 0.0
C487 C 0.59061 0.07993 0.51904 0.0
C488 C 0.57819 0.06407 0.51171 0.0
C489 C 0.59558 0.09297 0.5068 0.0
C490 C 0.58838 0.0901 0.48738 0.0
Tb491 Tb 0.55218 0.02719 0.50871 0.0
N492 N 0.57268 0.05144 0.52334 0.0
C493 C 0.59759 0.08223 0.53848 0.0
C494 C 0.57992 0.05327 0.54208 0.0
C495 C 0.59234 0.06876 0.54999 0.0
H496 H 0.5443 0.02908 0.4611 0.0
H497 H 0.59797 0.07023 0.56493 0.0
H498 H 0.5127 0.02086 0.57396 0.0
H499 H 0.45556 0.97815 0.47295 0.0
H500 H 0.57647 0.04264 0.55081 0.0
H501 H 0.60718 0.09423 0.54467 0.0
H502 H 0.47707 0.00635 0.48581 0.0
H503 H 0.55218 0.05127 0.43889 0.0
H504 H 0.60504 0.10529 0.5122 0.0
H505 H 0.59243 0.10023 0.4781 0.0
H506 H 0.50937 0.99774 0.59566 0.0
H507 H 0.57262 0.08026 0.45071 0.0
H508 H 0.4508 0.95294 0.4927 0.0
N509 N 0.5007 0.00288 0.5487 0.0
C510 C 0.4902 0.98645 0.54228 0.0
C511 C 0.50424 0.99425 0.58058 0.0
C512 C 0.487 0.97305 0.55465 0.0
C513 C 0.50662 0.00726 0.56793 0.0
C514 C 0.49467 0.97696 0.57385 0.0
N515 N 0.48465 0.9967 0.51206 0.0
C516 C 0.47508 0.99528 0.49435 0.0
C517 C 0.46947 0.96718 0.51688 0.0
C518 C 0.4815 0.98346 0.5236 0.0
C519 C 0.46022 0.96523 0.49835 0.0
C520 C 0.46289 0.97942 0.48713 0.0
H521 H 0.49255 0.96703 0.5838 0.0
H522 H 0.47315 0.94599 0.55702 0.0
H523 H 0.45779 0.94088 0.52398 0.0
O524 O 0.48293 0.03516 0.51479 0.0
O525 O 0.50992 0.99945 0.50815 0.0
O526 O 0.53901 1.00248 0.5192 0.0
O527 O 0.48287 0.02605 0.54262 0.0
O528 O 0.50991 0.03494 0.50057 0.0
O529 O 0.52915 0.01933 0.48704 0.0
O530 O 0.57701 0.02028 0.51512 0.0
O531 O 0.54333 0.05331 0.51581 0.0
O532 O 0.52022 0.04944 0.53505 0.0
O533 O 0.56076 0.01016 0.48793 0.0
O534 O 0.54699 0.01887 0.53651 0.0
O535 O 0.52547 0.0324 0.5483 0.0
C536 C 0.52405 0.99228 0.51088 0.0
C537 C 0.47066 0.05151 0.53829 0.0
C538 C 0.45019 0.07208 0.5383 0.0
C539 C 0.46113 0.08313 0.55376 0.0
C540 C 0.48137 0.06254 0.55395 0.0
C541 C 0.47666 0.07834 0.56156 0.0
C542 C 0.45501 0.0563 0.53053 0.0
C543 C 0.51563 0.0274 0.48563 0.0
C544 C 0.47527 0.03469 0.53035 0.0
C545 C 0.47565 0.95646 0.54774 0.0
C546 C 0.46685 0.95357 0.52894 0.0
C547 C 0.53296 0.05978 0.52755 0.0
C548 C 0.59169 0.00988 0.48962 0.0
C549 C 0.6189 0.99816 0.48866 0.0
C550 C 0.62103 0.00497 0.47103 0.0
C551 C 0.59411 0.01677 0.47214 0.0
C552 C 0.60423 1.00084 0.49794 0.0
C553 C 0.60879 0.01433 0.46295 0.0
C554 C 0.54092 0.02769 0.55035 0.0
C555 C 0.57552 0.01023 0.49876 0.0
H556 H 0.45752 0.09534 0.55991 0.0
H557 H 0.49325 0.05881 0.56042 0.0
H558 H 0.48497 0.0868 0.57361 0.0
H559 H 0.44655 0.04774 0.51858 0.0
H560 H 0.63222 0.00311 0.46356 0.0
H561 H 0.58455 0.02369 0.46546 0.0
H562 H 0.60218 0.99524 0.51129 0.0
H563 H 0.61057 0.01952 0.44937 0.0
Tb564 Tb 0.30233 0.27198 0.77465 0.0
C565 C 0.23463 0.29052 0.73016 0.0
N566 N 0.24609 0.29984 0.74531 0.0
C567 C 0.24654 0.32719 0.73104 0.0
C568 C 0.22921 0.29911 0.71441 0.0
C569 C 0.25156 0.31807 0.7463 0.0
C570 C 0.23545 0.31765 0.71493 0.0
C571 C 0.2168 0.26203 0.71474 0.0
C572 C 0.22846 0.2722 0.73038 0.0
C573 C 0.21156 0.27048 0.69889 0.0
C574 C 0.21772 0.28898 0.69874 0.0
Tb575 Tb 0.25278 0.28355 0.76945 0.0
N576 N 0.23392 0.2644 0.7459 0.0
C577 C 0.21063 0.24368 0.71557 0.0
C578 C 0.22726 0.2467 0.74715 0.0
C579 C 0.21576 0.23604 0.73192 0.0
H580 H 0.2595 0.32578 0.75895 0.0
H581 H 0.21066 0.22197 0.73292 0.0
H582 H 0.29547 0.22817 0.78197 0.0
H583 H 0.34716 0.32932 0.81486 0.0
H584 H 0.23027 0.24076 0.75997 0.0
H585 H 0.20166 0.23539 0.70385 0.0
H586 H 0.32746 0.3122 0.78633 0.0
H587 H 0.25107 0.34161 0.73181 0.0
H588 H 0.20265 0.26286 0.68672 0.0
H589 H 0.21347 0.29533 0.68648 0.0
H590 H 0.29892 0.21114 0.80941 0.0
H591 H 0.23157 0.32477 0.70314 0.0
H592 H 0.35107 0.31508 0.84472 0.0
N593 N 0.30582 0.25386 0.79835 0.0
C594 C 0.31519 0.26248 0.81521 0.0
C595 C 0.30327 0.22563 0.81135 0.0
C596 C 0.31827 0.25309 0.83109 0.0
C597 C 0.30091 0.23548 0.79589 0.0
C598 C 0.31168 0.23452 0.82915 0.0
N599 N 0.31992 0.28904 0.80036 0.0
C600 C 0.32906 0.30605 0.7994 0.0
C601 C 0.33388 0.28972 0.83267 0.0
C602 C 0.32289 0.28055 0.81609 0.0
C603 C 0.34245 0.30758 0.83228 0.0
C604 C 0.34025 0.31568 0.81546 0.0
H605 H 0.31374 0.22681 0.84101 0.0
H606 H 0.33078 0.25543 0.86049 0.0
H607 H 0.34447 0.28751 0.86186 0.0
O608 O 0.32073 0.28098 0.75564 0.0
O609 O 0.29433 0.28978 0.79741 0.0
O610 O 0.26518 0.27712 0.79639 0.0
O611 O 0.32406 0.25943 0.77193 0.0
O612 O 0.29763 0.29518 0.76045 0.0
O613 O 0.27568 0.3063 0.77491 0.0
O614 O 0.22618 0.27919 0.77649 0.0
O615 O 0.26552 0.27891 0.74301 0.0
O616 O 0.2833 0.25861 0.75001 0.0
O617 O 0.2449 0.30459 0.78561 0.0
O618 O 0.2556 0.25844 0.78126 0.0
O619 O 0.27965 0.2487 0.76918 0.0
C620 C 0.27987 0.28671 0.80582 0.0
C621 C 0.33771 0.2603 0.74337 0.0
C622 C 0.36206 0.25875 0.72393 0.0
C623 C 0.35324 0.24143 0.71567 0.0
C624 C 0.32924 0.24295 0.73488 0.0
C625 C 0.3369 0.23368 0.721 0.0
C626 C 0.35411 0.26828 0.73768 0.0
C627 C 0.29034 0.30859 0.76659 0.0
C628 C 0.33055 0.26941 0.75947 0.0
C629 C 0.32842 0.26239 0.84808 0.0
C630 C 0.33626 0.28065 0.84885 0.0
C631 C 0.27425 0.26631 0.73757 0.0
C632 C 0.21538 0.30334 0.79506 0.0
C633 C 0.18791 0.3013 0.8102 0.0
C634 C 0.19026 0.32015 0.81169 0.0
C635 C 0.21725 0.32215 0.79696 0.0
C636 C 0.20064 0.29284 0.80189 0.0
C637 C 0.2048 0.33044 0.80519 0.0
C638 C 0.26451 0.24576 0.77671 0.0
C639 C 0.22893 0.29533 0.7857 0.0
H640 H 0.35907 0.23385 0.7051 0.0
H641 H 0.31693 0.23639 0.73937 0.0
H642 H 0.3303 0.22027 0.7146 0.0
H643 H 0.36095 0.28153 0.74439 0.0
H644 H 0.18082 0.32699 0.81809 0.0
H645 H 0.22832 0.33053 0.79186 0.0
H646 H 0.199 0.27832 0.8006 0.0
H647 H 0.20641 0.34494 0.80649 0.0
Tb648 Tb 0.03436 1.00083 0.52033 0.0
C649 C 0.00725 0.06867 0.55961 0.0
N650 N 0.99956 0.05667 0.54411 0.0
C651 C 0.97117 0.05503 0.55537 0.0
C652 C 0.99719 0.07424 0.57378 0.0
C653 C 0.98172 0.04995 0.54166 0.0
C654 C 0.97894 0.06719 0.57153 0.0
C655 C 0.03394 0.08769 0.57718 0.0
C656 C 0.02536 0.07522 0.56134 0.0
C657 C 0.024 0.09332 0.59137 0.0
C658 C 0.00567 0.08658 0.58969 0.0
Tb659 Tb 0.01814 0.04902 0.52306 0.0
N660 N 0.0346 0.06897 0.54765 0.0
C661 C 0.05223 0.09409 0.57825 0.0
C662 C 0.05229 0.07573 0.54821 0.0
C663 C 0.06141 0.0882 0.5636 0.0
H664 H 0.97553 0.04089 0.529 0.0
H665 H 0.07548 0.09339 0.56406 0.0
H666 H 0.07577 0.0093 0.50997 0.0
H667 H 0.97356 0.96059 0.48114 0.0
H668 H 0.05942 0.07187 0.53673 0.0
H669 H 0.05933 0.10372 0.59016 0.0
H670 H 0.99191 0.97963 0.50885 0.0
H671 H 0.95705 0.04962 0.55341 0.0
H672 H 0.03035 0.10286 0.6037 0.0
H673 H 0.99818 0.09102 0.60076 0.0
H674 H 0.09188 1.00103 0.4831 0.0
H675 H 0.97074 0.07109 0.58212 0.0
H676 H 0.98733 0.95122 0.45265 0.0
N677 N 0.05078 0.99403 0.49661 0.0
C678 C 0.0418 0.98262 0.48117 0.0
C679 C 0.07778 0.99581 0.48235 0.0
C680 C 0.05047 0.97754 0.46551 0.0
C681 C 0.06857 1.00061 0.49747 0.0
C682 C 0.0687 0.98424 0.46629 0.0
N683 N 0.01564 0.98274 0.49577 0.0
C684 C 0.998 0.97651 0.49631 0.0
C685 C 0.01371 0.96549 0.46465 0.0
C686 C 0.02363 0.97678 0.48072 0.0
C687 C 0.99544 0.9599 0.46471 0.0
C688 C 0.9876 0.96528 0.4807 0.0
H689 H 0.07586 0.98064 0.45455 0.0
H690 H 0.04707 0.96215 0.43732 0.0
H691 H 0.01491 0.95156 0.43659 0.0
O692 O 0.02663 0.97788 0.53535 0.0
O693 O 0.02963 0.01267 0.49325 0.0
O694 O 0.00754 0.02685 0.50054 0.0
O695 O 0.05353 0.98635 0.52893 0.0
O696 O 0.01041 0.00291 0.53427 0.0
O697 O 0.99824 0.02392 0.51885 0.0
O698 O 0.02707 0.06954 0.50605 0.0
O699 O 0.02537 0.03958 0.55108 0.0
O700 O 0.04526 0.02139 0.54462 0.0
O701 O 0.99971 0.06275 0.51042 0.0
O702 O 0.04319 0.04723 0.51131 0.0
O703 O 0.05504 0.02541 0.52608 0.0
C704 C 0.01695 0.02103 0.4879 0.0
C705 C 0.04889 0.95977 0.54554 0.0
C706 C 0.04526 0.93384 0.56408 0.0
C707 C 0.06279 0.93239 0.56206 0.0
C708 C 0.06638 0.95772 0.54384 0.0
C709 C 0.0732 0.94418 0.552 0.0
C710 C 0.03818 0.94758 0.55568 0.0
C711 C 0.99707 0.01092 0.52997 0.0
C712 C 0.04266 0.97477 0.53653 0.0
C713 C 0.04065 0.96622 0.44951 0.0
C714 C 0.02232 0.96022 0.44908 0.0
C715 C 0.03707 0.03002 0.55678 0.0
C716 C 0.01028 0.09277 0.50453 0.0
C717 C 0.01168 0.12099 0.49015 0.0
C718 C 1.00427 0.1281 0.50581 0.0
C719 C 1.00316 0.1004 0.52016 0.0
C720 C 0.01478 0.10327 0.4896 0.0
C721 C 1.00019 0.11793 0.52075 0.0
C722 C 0.05657 0.03958 0.51654 0.0
C723 C 0.01146 0.07348 0.50282 0.0
H724 H 0.06845 0.92198 0.56827 0.0
H725 H 0.07495 0.96663 0.53614 0.0
H726 H 0.08669 0.94283 0.55052 0.0
H727 H 0.02467 0.94884 0.55717 0.0
H728 H 1.0017 0.14163 0.50651 0.0
H729 H 0.9995 0.09269 0.53174 0.0
H730 H 0.02015 0.09751 0.47737 0.0
H731 H 0.99449 0.12359 0.53275 0.0
Tb732 Tb 0.27879 0.79918 0.76588 0.0
C733 C 0.24323 0.73275 0.80451 0.0
N734 N 0.25857 0.7449 0.8104 0.0
C735 C 0.25147 0.74645 0.84285 0.0
C736 C 0.23102 0.72753 0.81742 0.0
C737 C 0.26324 0.75096 0.8295 0.0
C738 C 0.23513 0.73492 0.83672 0.0
C739 C 0.22524 0.71107 0.77918 0.0
C740 C 0.24041 0.72453 0.78577 0.0
C741 C 0.21259 0.70641 0.7917 0.0
C742 C 0.21548 0.71462 0.8108 0.0
Tb743 Tb 0.27669 0.75138 0.78722 0.0
N744 N 0.25289 0.7295 0.77409 0.0
C745 C 0.22348 0.70247 0.76036 0.0
C746 C 0.25179 0.72044 0.75614 0.0
C747 C 0.23693 0.70702 0.74887 0.0
H748 H 0.27628 0.75878 0.83463 0.0
H749 H 0.23593 0.70013 0.73448 0.0
H750 H 0.28356 0.78703 0.71994 0.0
H751 H 0.31928 0.84768 0.82185 0.0
H752 H 0.26235 0.72359 0.74746 0.0
H753 H 0.21201 0.69204 0.75473 0.0
H754 H 0.29376 0.82351 0.80857 0.0
H755 H 0.25518 0.75155 0.85791 0.0
H756 H 0.20076 0.69619 0.78689 0.0
H757 H 0.20587 0.71054 0.82046 0.0
H758 H 0.30546 0.79549 0.69798 0.0
H759 H 0.22614 0.73124 0.84713 0.0
H760 H 0.34194 0.85879 0.80121 0.0
N761 N 0.29834 0.80453 0.7441 0.0
C762 C 0.31251 0.81817 0.75029 0.0
C763 C 0.30773 0.8018 0.71273 0.0
C764 C 0.32516 0.82379 0.73797 0.0
C765 C 0.29549 0.79674 0.72542 0.0
C766 C 0.32269 0.8153 0.71905 0.0
N767 N 0.30225 0.82032 0.78089 0.0
C768 C 0.30374 0.82785 0.79953 0.0
C769 C 0.32913 0.84037 0.77614 0.0
C770 C 0.31446 0.82641 0.76919 0.0
C771 C 0.33083 0.84805 0.79531 0.0
C772 C 0.3181 0.84174 0.80705 0.0
H773 H 0.3321 0.81926 0.70913 0.0
H774 H 0.34962 0.84223 0.7356 0.0
H775 H 0.35313 0.85668 0.76898 0.0
O776 O 0.27246 0.82507 0.769 0.0
O777 O 0.3045 0.79013 0.7725 0.0
O778 O 0.30031 0.77265 0.79718 0.0
O779 O 0.26454 0.80697 0.7421 0.0
O780 O 0.26966 0.79776 0.79401 0.0
O781 O 0.28196 0.77577 0.80771 0.0
O782 O 0.29063 0.73182 0.77662 0.0
O783 O 0.25165 0.75572 0.77092 0.0
O784 O 0.25326 0.78648 0.77471 0.0
O785 O 0.2885 0.73697 0.80674 0.0
O786 O 0.28699 0.75722 0.76056 0.0
O787 O 0.26984 0.77464 0.74617 0.0
C788 C 0.31086 0.78193 0.7866 0.0
C789 C 0.25616 0.83619 0.74279 0.0
C790 C 0.23974 0.8605 0.74536 0.0
C791 C 0.23872 0.86059 0.72533 0.0
C792 C 0.25498 0.83652 0.72282 0.0
C793 C 0.24642 0.84876 0.71419 0.0
C794 C 0.24877 0.84845 0.75412 0.0
C795 C 0.27369 0.7893 0.80874 0.0
C796 C 0.2645 0.82257 0.75147 0.0
C797 C 0.33976 0.83773 0.74487 0.0
C798 C 0.34174 0.846 0.76387 0.0
C799 C 0.24399 0.76987 0.77067 0.0
C800 C 0.29144 0.70775 0.79565 0.0
C801 C 0.30357 0.68045 0.7947 0.0
C802 C 0.29002 0.6726 0.80485 0.0
C803 C 0.27773 0.69953 0.80539 0.0
C804 C 0.30414 0.69802 0.79 0.0
C805 C 0.27708 0.68204 0.80997 0.0
C806 C 0.27749 0.76072 0.74553 0.0
C807 C 0.29409 0.72706 0.79361 0.0
H808 H 0.23201 0.8699 0.71831 0.0
H809 H 0.26069 0.82728 0.71387 0.0
H810 H 0.24561 0.84898 0.69878 0.0
H811 H 0.24947 0.8482 0.76954 0.0
H812 H 0.28937 0.65908 0.80864 0.0
H813 H 0.26785 0.70679 0.81001 0.0
H814 H 0.31486 0.70436 0.78266 0.0
H815 H 0.26666 0.67588 0.81775 0.0
Tb816 Tb 0.53166 0.04022 0.99806 0.0
C817 C 0.55777 0.99738 0.07227 0.0
N818 N 0.54498 0.99106 0.05721 0.0
C819 C 0.55425 0.96268 0.05451 0.0
C820 C 0.56961 0.9867 0.07885 0.0
C821 C 0.54293 0.97386 0.04841 0.0
C822 C 0.56772 0.96915 0.06974 0.0
C823 C 0.57224 0.02193 0.09653 0.0
C824 C 0.55902 0.01472 0.08092 0.0
C825 C 0.58426 0.01148 0.10304 0.0
C826 C 0.58293 0.99388 0.09423 0.0
Tb827 Tb 0.52768 0.01045 0.04751 0.0
N828 N 0.54725 0.02444 0.07403 0.0
C829 C 0.57291 0.03938 0.10524 0.0
C830 C 0.54741 0.04118 0.08318 0.0
C831 C 0.56031 0.04895 0.09865 0.0
H832 H 0.53253 0.96863 0.03666 0.0
H833 H 0.56041 0.0623 0.10561 0.0
H834 H 0.52219 0.0798 0.01382 0.0
H835 H 0.51013 0.99709 0.93068 0.0
H836 H 0.53759 0.04871 0.07911 0.0
H837 H 0.58287 0.04544 0.11724 0.0
H838 H 0.52971 0.00876 0.96077 0.0
H839 H 0.55259 0.94909 0.04743 0.0
H840 H 0.59455 0.01684 0.11494 0.0
H841 H 0.59222 0.98593 0.09944 0.0
H842 H 0.50009 0.09774 0.00503 0.0
H843 H 0.57653 0.9605 0.07438 0.0
H844 H 0.48556 0.01201 0.92048 0.0
N845 N 0.51263 0.05892 0.99066 0.0
C846 C 0.50145 0.05372 0.974 0.0
C847 C 0.50016 0.08524 0.9963 0.0
C848 C 0.48867 0.06371 0.96824 0.0
C849 C 0.51253 0.07481 0.00146 0.0
C850 C 0.48801 0.07956 0.97975 0.0
N851 N 0.51534 0.029 0.96888 0.0
C852 C 0.51859 0.01495 0.95711 0.0
C853 C 0.49159 0.03232 0.9453 0.0
C854 C 0.50286 0.03824 0.96271 0.0
C855 C 0.49395 0.01703 0.93395 0.0
C856 C 0.50774 0.00851 0.93971 0.0
H857 H 0.47842 0.08766 0.97581 0.0
H858 H 0.46706 0.06504 0.94658 0.0
H859 H 0.46962 0.03752 0.92648 0.0
O860 O 0.55339 0.03935 0.98272 0.0
O861 O 0.50392 0.02821 0.99877 0.0
O862 O 0.51807 0.01963 0.02236 0.0
O863 O 0.54596 0.06451 0.99129 0.0
O864 O 0.53576 0.01161 0.99456 0.0
O865 O 0.52667 0.99397 0.01939 0.0
O866 O 0.50796 0.01087 0.06555 0.0
O867 O 0.55444 0.01676 0.03992 0.0
O868 O 0.54677 0.03926 0.02552 0.0
O869 O 0.50954 0.98631 0.04855 0.0
O870 O 0.51999 0.03752 0.05011 0.0
O871 O 0.53227 0.05552 0.02722 0.0
C872 C 0.50277 0.01916 0.01307 0.0
C873 C 0.55476 0.06044 0.9604 0.0
C874 C 0.56092 0.0531 0.9277 0.0
C875 C 0.55251 0.06682 0.92182 0.0
C876 C 0.54646 0.07417 0.95429 0.0
C877 C 0.54536 0.07729 0.93508 0.0
C878 C 0.56203 0.05003 0.94703 0.0
C879 C 0.53223 0.9961 0.00225 0.0
C880 C 0.55526 0.05632 0.98038 0.0
C881 C 0.47708 0.05763 0.95116 0.0
C882 C 0.47853 0.04195 0.93972 0.0
C883 C 0.55816 0.029 0.02847 0.0
C884 C 0.5004 0.98417 0.0795 0.0
C885 C 0.49269 0.98463 0.11216 0.0
C886 C 0.49554 0.96699 0.11252 0.0
C887 C 0.50308 0.96648 0.07994 0.0
C888 C 0.49537 0.99312 0.09569 0.0
C889 C 0.50075 0.95801 0.09647 0.0
C890 C 0.52437 0.05331 0.04317 0.0
C891 C 0.50225 0.99352 0.06232 0.0
H892 H 0.55187 0.06977 0.90706 0.0
H893 H 0.54069 0.08243 0.96427 0.0
H894 H 0.53902 0.08792 0.93047 0.0
H895 H 0.56843 0.03941 0.95163 0.0
H896 H 0.49331 0.95998 0.12496 0.0
H897 H 0.50689 0.95919 0.06758 0.0
H898 H 0.49342 0.00682 0.09542 0.0
H899 H 0.50274 0.94435 0.09674 0.0
Tb900 Tb 0.2687 0.25631 0.26053 0.0
C901 C 0.33188 0.31124 0.30654 0.0
N902 N 0.31619 0.30288 0.31162 0.0
C903 C 0.33093 0.29872 0.34204 0.0
C904 C 0.34781 0.31338 0.319 0.0
C905 C 0.31547 0.29684 0.32922 0.0
C906 C 0.34718 0.307 0.33692 0.0
C907 C 0.34809 0.3256 0.28264 0.0
C908 C 0.33199 0.31723 0.28852 0.0
C909 C 0.36398 0.32774 0.29501 0.0
C910 C 0.36384 0.3217 0.31315 0.0
Tb911 Tb 0.29187 0.30265 0.29025 0.0
N912 N 0.31635 0.31485 0.2768 0.0
C913 C 0.34771 0.33182 0.26462 0.0
C914 C 0.31584 0.3222 0.25989 0.0
C915 C 0.33148 0.33031 0.25331 0.0
H916 H 0.30294 0.2913 0.33379 0.0
H917 H 0.33095 0.33585 0.23975 0.0
H918 H 0.25866 0.26611 0.21614 0.0
H919 H 0.2289 0.22201 0.30957 0.0
H920 H 0.3035 0.32276 0.2518 0.0
H921 H 0.35979 0.33831 0.25958 0.0
H922 H 0.25653 0.23586 0.29824 0.0
H923 H 0.33027 0.29402 0.356 0.0
H924 H 0.37646 0.33415 0.29073 0.0
H925 H 0.37621 0.3235 0.32254 0.0
H926 H 0.23186 0.2625 0.1929 0.0
H927 H 0.35912 0.30848 0.34693 0.0
H928 H 0.20037 0.21877 0.28888 0.0
N929 N 0.24484 0.25501 0.23814 0.0
C930 C 0.22903 0.24656 0.24282 0.0
C931 C 0.23085 0.25816 0.20698 0.0
C932 C 0.21341 0.24379 0.22977 0.0
C933 C 0.246 0.26056 0.22038 0.0
C934 C 0.21447 0.24977 0.2117 0.0
N935 N 0.24391 0.24363 0.2731 0.0
C936 C 0.24423 0.2362 0.28994 0.0
C937 C 0.21239 0.23191 0.26624 0.0
C938 C 0.22853 0.24078 0.2609 0.0
C939 C 0.21249 0.22567 0.28425 0.0
C940 C 0.22853 0.22762 0.29604 0.0
H941 H 0.20278 0.24781 0.20122 0.0
H942 H 0.18516 0.23279 0.22525 0.0
H943 H 0.18427 0.22237 0.25714 0.0
O944 O 0.27205 0.23026 0.26437 0.0
O945 O 0.25063 0.27506 0.26709 0.0
O946 O 0.26379 0.29343 0.2949 0.0
O947 O 0.2667 0.23764 0.23596 0.0
O948 O 0.28245 0.25651 0.28977 0.0
O949 O 0.2786 0.28266 0.30651 0.0
O950 O 0.28887 0.32916 0.28789 0.0
O951 O 0.30939 0.2832 0.28364 0.0
O952 O 0.29637 0.26616 0.25518 0.0
O953 O 0.29537 0.32068 0.31548 0.0
O954 O 0.27792 0.30308 0.26126 0.0
O955 O 0.28135 0.27682 0.24443 0.0
C956 C 0.2495 0.28536 0.28296 0.0
C957 C 0.28568 0.2172 0.24019 0.0
C958 C 0.30483 0.19634 0.24692 0.0
C959 C 0.31516 0.2025 0.23276 0.0
C960 C 0.29588 0.22324 0.22584 0.0
C961 C 0.31055 0.21582 0.22213 0.0
C962 C 0.29006 0.20357 0.25036 0.0
C963 C 0.28072 0.26602 0.30588 0.0
C964 C 0.27116 0.22545 0.24597 0.0
C965 C 0.19729 0.23509 0.23511 0.0
C966 C 0.19678 0.22919 0.2533 0.0
C967 C 0.31065 0.27357 0.26736 0.0
C968 C 0.27733 0.34222 0.31419 0.0
C969 C 0.25955 0.36506 0.31156 0.0
C970 C 0.25168 0.36002 0.32781 0.0
C971 C 0.26952 0.33727 0.33054 0.0
C972 C 0.27229 0.35607 0.30487 0.0
C973 C 0.25673 0.34618 0.33727 0.0
C974 C 0.27878 0.29334 0.24496 0.0
C975 C 0.29084 0.33342 0.30647 0.0
H976 H 0.32665 0.19695 0.22988 0.0
H977 H 0.29274 0.23384 0.21777 0.0
H978 H 0.31848 0.22055 0.21119 0.0
H979 H 0.28231 0.19906 0.26159 0.0
H980 H 0.24183 0.36687 0.33325 0.0
H981 H 0.27323 0.32657 0.33808 0.0
H982 H 0.27815 0.35968 0.29211 0.0
H983 H 0.25073 0.34236 0.34985 0.0
Tb984 Tb 0.53381 0.50159 0.02326 0.0
C985 C 0.50538 0.5704 0.0588 0.0
N986 N 0.49913 0.5591 0.04232 0.0
C987 C 0.46927 0.55799 0.04932 0.0
C988 C 0.49379 0.57541 0.07157 0.0
C989 C 0.48128 0.55346 0.03708 0.0
C990 C 0.47555 0.56885 0.06674 0.0
C991 C 0.5305 0.58874 0.07985 0.0
C992 C 0.5235 0.57711 0.06283 0.0
C993 C 0.51903 0.59355 0.09274 0.0
C994 C 0.50072 0.5869 0.08861 0.0
Tb995 Tb 0.5202 0.55253 0.02386 0.0
N996 N 0.53427 0.57181 0.05027 0.0
C997 C 0.54885 0.59514 0.08344 0.0
C998 C 0.55217 0.57822 0.05361 0.0
C999 C 0.5597 0.58993 0.07021 0.0
H1000 H 0.47614 0.54578 0.02328 0.0
H1001 H 0.5739 0.59484 0.07284 0.0
H1002 H 0.57634 0.50117 0.02114 0.0
H1003 H 0.47638 0.45429 0.98635 0.0
H1004 H 0.56083 0.57432 0.04374 0.0
H1005 H 0.55475 0.6041 0.09635 0.0
H1006 H 0.49339 0.47655 0.01283 0.0
H1007 H 0.45516 0.55328 0.04519 0.0
H1008 H 0.52417 0.60242 0.10592 0.0
H1009 H 0.49202 0.59082 0.09863 0.0
H1010 H 0.59472 0.49047 0.99754 0.0
H1011 H 0.46621 0.57238 0.07617 0.0
H1012 H 0.49128 0.44432 0.95894 0.0
N1013 N 0.552 0.49101 0.00314 0.0
C1014 C 0.5439 0.47979 0.98724 0.0
C1015 C 0.58042 0.48763 0.99426 0.0
C1016 C 0.55374 0.47278 0.97363 0.0
C1017 C 0.57 0.49396 0.00744 0.0
C1018 C 0.57226 0.47732 0.97704 0.0
N1019 N 0.51723 0.48003 -0.0 0.0
C1020 C 0.49986 0.47253 0.00081 0.0
C1021 C 0.51683 0.46098 0.97043 0.0
C1022 C 0.52584 0.47386 0.98573 0.0
C1023 C 0.49871 0.45423 0.97044 0.0
C1024 C 0.49026 0.45982 0.98588 0.0
H1025 H 0.58033 0.47221 0.96698 0.0
H1026 H 0.55208 0.45539 0.94691 0.0
H1027 H 0.51966 0.44512 0.94403 0.0
O1028 O 0.52275 0.48179 0.04022 0.0
O1029 O 0.51726 0.5064 0.99759 0.0
O1030 O 0.52725 0.53648 -0.00049 0.0
O1031 O 0.55067 0.48933 0.04057 0.0
O1032 O 0.5109 0.50901 0.03579 0.0
O1033 O 0.49859 0.52863 0.01831 0.0
O1034 O 0.52891 0.57787 0.01474 0.0
O1035 O 0.52547 0.54216 0.05162 0.0
O1036 O 0.5457 0.52511 0.04402 0.0
O1037 O 0.50299 0.56225 0.00411 0.0
O1038 O 0.54735 0.55152 0.01813 0.0
O1039 O 0.55611 0.52346 0.01837 0.0
C1040 C 0.51773 0.52158 0.99015 0.0
C1041 C 0.53962 0.459 0.04441 0.0
C1042 C 0.53656 0.42965 0.05675 0.0
C1043 C 0.54454 0.42324 0.04117 0.0
C1044 C 0.54745 0.45202 0.02899 0.0
C1045 C 0.54998 0.43435 0.02748 0.0
C1046 C 0.53427 0.44773 0.05847 0.0
C1047 C 0.49707 0.51388 0.02689 0.0
C1048 C 0.53797 0.47819 0.04621 0.0
C1049 C 0.54479 0.46075 0.95767 0.0
C1050 C 0.52634 0.45486 0.95606 0.0
C1051 C 0.53743 0.53275 0.05672 0.0
C1052 C 0.50744 0.59406 0.00355 0.0
C1053 C 0.50645 0.62232 0.98984 0.0
C1054 C 0.49356 0.62541 0.00176 0.0
C1055 C 0.49471 0.59762 0.01536 0.0
C1056 C 0.51348 0.60659 0.99097 0.0
C1057 C 0.48785 0.61322 0.01445 0.0
C1058 C 0.55916 0.54106 0.01654 0.0
C1059 C 0.51426 0.57722 0.00366 0.0
H1060 H 0.54674 0.40957 0.0397 0.0
H1061 H 0.55191 0.46027 0.01818 0.0
H1062 H 0.55625 0.42926 0.01564 0.0
H1063 H 0.52833 0.45293 0.07054 0.0
H1064 H 0.48799 0.63741 0.00137 0.0
H1065 H 0.48996 0.58832 0.02517 0.0
H1066 H 0.52328 0.60388 0.98174 0.0
H1067 H 0.47797 0.61584 0.02357 0.0
Tb1068 Tb 0.78017 0.29921 0.26483 0.0
C1069 C 0.73913 0.23685 0.30189 0.0
N1070 N 0.75464 0.24868 0.30819 0.0
C1071 C 0.74544 0.25289 0.33957 0.0
C1072 C 0.72584 0.23316 0.31401 0.0
C1073 C 0.75832 0.25582 0.3271 0.0
C1074 C 0.729 0.24173 0.33292 0.0
C1075 C 0.72155 0.21453 0.27676 0.0
C1076 C 0.73701 0.22754 0.28358 0.0
C1077 C 0.70801 0.21127 0.28854 0.0
C1078 C 0.71015 0.22057 0.30712 0.0
Tb1079 Tb 0.77475 0.25161 0.28648 0.0
N1080 N 0.75029 0.2312 0.27248 0.0
C1081 C 0.72033 0.20502 0.25843 0.0
C1082 C 0.74959 0.2214 0.25501 0.0
C1083 C 0.73449 0.20836 0.24759 0.0
H1084 H 0.77142 0.26317 0.33286 0.0
H1085 H 0.73382 0.20081 0.23359 0.0
H1086 H 0.78666 0.28745 0.21981 0.0
H1087 H 0.82118 0.34389 0.32402 0.0
H1088 H 0.76068 0.22365 0.24683 0.0
H1089 H 0.70867 0.19489 0.25267 0.0
H1090 H 0.79405 0.32336 0.3083 0.0
H1091 H 0.74837 0.25885 0.35444 0.0
H1092 H 0.69598 0.20137 0.28355 0.0
H1093 H 0.69976 0.21761 0.3162 0.0
H1094 H 0.81026 0.29474 0.19934 0.0
H1095 H 0.71915 0.23923 0.34271 0.0
H1096 H 0.84651 0.35219 0.30577 0.0
N1097 N 0.8014 0.30352 0.24484 0.0
C1098 C 0.81627 0.3159 0.25217 0.0
C1099 C 0.81222 0.3006 0.21424 0.0
C1100 C 0.83003 0.32064 0.24088 0.0
C1101 C 0.79898 0.29622 0.22601 0.0
C1102 C 0.82786 0.31279 0.22172 0.0
N1103 N 0.80431 0.31839 0.28183 0.0
C1104 C 0.80519 0.326 0.30037 0.0
C1105 C 0.83347 0.3356 0.27959 0.0
C1106 C 0.81789 0.32336 0.27131 0.0
C1107 C 0.83473 0.34277 0.29886 0.0
C1108 C 0.82049 0.33804 0.30924 0.0
H1109 H 0.8381 0.31615 0.21255 0.0
H1110 H 0.85624 0.33674 0.24065 0.0
H1111 H 0.85932 0.34973 0.27452 0.0
O1112 O 0.7764 0.32605 0.2658 0.0
O1113 O 0.80379 0.28636 0.2691 0.0
O1114 O 0.79999 0.27116 0.29545 0.0
O1115 O 0.76813 0.3073 0.24011 0.0
O1116 O 0.77046 0.29873 0.2928 0.0
O1117 O 0.78308 0.27673 0.30551 0.0
O1118 O 0.78902 0.23073 0.27936 0.0
O1119 O 0.75118 0.2575 0.26901 0.0
O1120 O 0.7536 0.28839 0.27271 0.0
O1121 O 0.77975 0.23509 0.30723 0.0
O1122 O 0.78477 0.25376 0.25899 0.0
O1123 O 0.77032 0.27441 0.24558 0.0
C1124 C 0.81046 0.27968 0.28419 0.0
C1125 C 0.75286 0.3315 0.24357 0.0
C1126 C 0.73678 0.35601 0.24818 0.0
C1127 C 0.72556 0.34893 0.23112 0.0
C1128 C 0.74133 0.32468 0.22654 0.0
C1129 C 0.72778 0.33332 0.22045 0.0
C1130 C 0.75043 0.34728 0.25447 0.0
C1131 C 0.77451 0.28993 0.30721 0.0
C1132 C 0.76863 0.32354 0.24817 0.0
C1133 C 0.8455 0.33293 0.24909 0.0
C1134 C 0.84725 0.34032 0.26839 0.0
C1135 C 0.74391 0.27189 0.26931 0.0
C1136 C 0.79481 0.21035 0.30365 0.0
C1137 C 0.81131 0.18606 0.30071 0.0
C1138 C 0.80788 0.18225 0.31924 0.0
C1139 C 0.79164 0.20618 0.32217 0.0
C1140 C 0.80456 0.20007 0.29279 0.0
C1141 C 0.7981 0.19222 0.32983 0.0
C1142 C 0.77781 0.26032 0.24416 0.0
C1143 C 0.78781 0.2255 0.29632 0.0
H1144 H 0.71507 0.35558 0.22603 0.0
H1145 H 0.74304 0.31288 0.21758 0.0
H1146 H 0.71913 0.32803 0.20722 0.0
H1147 H 0.75938 0.35303 0.26739 0.0
H1148 H 0.81271 0.1714 0.32552 0.0
H1149 H 0.78413 0.21373 0.33085 0.0
H1150 H 0.80716 0.20313 0.27853 0.0
H1151 H 0.79553 0.18915 0.34407 0.0
Tb1152 Tb 0.03207 0.53724 0.49911 0.0
C1153 C 0.06077 0.4951 0.57375 0.0
N1154 N 0.04877 0.48935 0.55781 0.0
C1155 C 0.05813 0.46098 0.55487 0.0
C1156 C 0.07237 0.48423 0.5805 0.0
C1157 C 0.04699 0.47229 0.54869 0.0
C1158 C 0.07101 0.46703 0.57073 0.0
C1159 C 0.07373 0.51858 0.59989 0.0
C1160 C 0.06131 0.51191 0.58346 0.0
C1161 C 0.08553 0.50796 0.60648 0.0
C1162 C 0.08481 0.49079 0.59684 0.0
Tb1163 Tb 0.03102 0.50894 0.54919 0.0
N1164 N 0.04994 0.52194 0.57635 0.0
C1165 C 0.07393 0.53574 0.60916 0.0
C1166 C 0.04963 0.5384 0.58586 0.0
C1167 C 0.06173 0.54562 0.60219 0.0
H1168 H 0.03662 0.46706 0.537 0.0
H1169 H 0.06157 0.55879 0.60943 0.0
H1170 H 0.0279 0.57907 0.51138 0.0
H1171 H 0.99573 0.48549 0.44274 0.0
H1172 H 0.04013 0.54608 0.58109 0.0
H1173 H 0.0833 0.54138 0.62179 0.0
H1174 H 0.01888 0.49804 0.46923 0.0
H1175 H 0.05664 0.44752 0.54752 0.0
H1176 H 0.0952 0.51286 0.61904 0.0
H1177 H 0.09389 0.48267 0.60217 0.0
H1178 H 0.00832 0.59934 0.50151 0.0
H1179 H 0.07961 0.45823 0.5755 0.0
H1180 H 0.97455 0.50369 0.43103 0.0
N1181 N 0.01455 0.55695 0.49102 0.0
C1182 C 1.00161 0.5511 0.47602 0.0
C1183 C 0.00617 0.58575 0.49431 0.0
C1184 C 0.99011 0.56226 0.46977 0.0
C1185 C 0.01715 0.57412 0.50003 0.0
C1186 C 0.99252 0.57977 0.47916 0.0
N1187 N 0.01116 0.52349 0.47366 0.0
C1188 C 0.00988 0.50638 0.46484 0.0
C1189 C 0.98628 0.52701 0.4516 0.0
C1190 C 0.99981 0.53377 0.46704 0.0
C1191 C 0.98477 0.5094 0.4429 0.0
C1192 C 0.99668 0.49909 0.4495 0.0
H1193 H 0.98402 0.5888 0.47476 0.0
H1194 H 0.96765 0.56396 0.44943 0.0
H1195 H 0.96423 0.53302 0.43355 0.0
O1196 O 0.04976 0.53593 0.47899 0.0
O1197 O 0.00564 0.52914 0.50672 0.0
O1198 O 0.01439 0.50735 0.52186 0.0
O1199 O 0.05002 0.56107 0.49617 0.0
O1200 O 0.03962 0.51023 0.49546 0.0
O1201 O 0.03314 0.4929 0.52116 0.0
O1202 O 0.01254 0.51051 0.56883 0.0
O1203 O 0.05805 0.52351 0.54871 0.0
O1204 O 0.04311 0.5276 0.52321 0.0
O1205 O 0.01479 0.48503 0.55426 0.0
O1206 O 0.02303 0.53599 0.5504 0.0
O1207 O 0.03553 0.55386 0.52756 0.0
C1208 C 1.00239 0.51686 0.51823 0.0
C1209 C 0.05595 0.56174 0.46376 0.0
C1210 C 0.06244 0.56003 0.43069 0.0
C1211 C 0.05652 0.57617 0.42873 0.0
C1212 C 0.05014 0.57791 0.46179 0.0
C1213 C 0.05039 0.58504 0.44425 0.0
C1214 C 0.06193 0.55292 0.44819 0.0
C1215 C 0.03781 0.49487 0.50352 0.0
C1216 C 0.05576 0.55324 0.48151 0.0
C1217 C 0.97664 0.55561 0.45441 0.0
C1218 C 0.97471 0.538 0.44537 0.0
C1219 C 0.05848 0.53091 0.53322 0.0
C1220 C 0.00763 0.48534 0.58592 0.0
C1221 C 0.99717 0.48484 0.61712 0.0
C1222 C 0.00501 0.47008 0.62035 0.0
C1223 C 0.01574 0.47071 0.58933 0.0
C1224 C 0.99849 0.4924 0.59995 0.0
C1225 C 0.0144 0.46314 0.60651 0.0
C1226 C 0.0284 0.55183 0.5439 0.0
C1227 C 0.00784 0.49308 0.5677 0.0
H1228 H 0.05702 0.58213 0.41542 0.0
H1229 H 0.04539 0.58498 0.47365 0.0
H1230 H 0.04597 0.59753 0.44272 0.0
H1231 H 0.06615 0.54029 0.44971 0.0
H1232 H 1.00403 0.4641 0.63362 0.0
H1233 H 0.02293 0.46499 0.57873 0.0
H1234 H 0.99212 0.50361 0.59737 0.0
H1235 H 0.02057 0.45184 0.60906 0.0
Tb1236 Tb 0.7995 0.76877 0.27052 0.0
C1237 C 0.73409 0.79443 0.22902 0.0
N1238 N 0.74582 0.80304 0.24433 0.0
C1239 C 0.74774 0.8309 0.23082 0.0
C1240 C 0.72888 0.80374 0.21381 0.0
C1241 C 0.7526 0.82107 0.24552 0.0
C1242 C 0.73584 0.82221 0.21489 0.0
C1243 C 0.7164 0.76642 0.21219 0.0
C1244 C 0.72797 0.77597 0.22821 0.0
C1245 C 0.71097 0.77569 0.19711 0.0
C1246 C 0.71719 0.7943 0.19792 0.0
Tb1247 Tb 0.75219 0.78561 0.26753 0.0
N1248 N 0.73412 0.7673 0.24272 0.0
C1249 C 0.71078 0.74781 0.21173 0.0
C1250 C 0.7281 0.74928 0.24267 0.0
C1251 C 0.71655 0.73924 0.2271 0.0
H1252 H 0.76143 0.82803 0.25799 0.0
H1253 H 0.71198 0.72491 0.22706 0.0
H1254 H 0.79263 0.72578 0.27728 0.0
H1255 H 0.84184 0.82817 0.31102 0.0
H1256 H 0.73179 0.74257 0.25467 0.0
H1257 H 0.70188 0.73997 0.19967 0.0
H1258 H 0.82197 0.81092 0.28317 0.0
H1259 H 0.75311 0.84519 0.23183 0.0
H1260 H 0.70208 0.76858 0.18467 0.0
H1261 H 0.71302 0.80123 0.18608 0.0
H1262 H 0.80097 0.70769 0.30265 0.0
H1263 H 0.73216 0.82986 0.2035 0.0
H1264 H 0.85121 0.81268 0.3384 0.0
N1265 N 0.80738 0.75054 0.29224 0.0
C1266 C 0.81868 0.75882 0.30798 0.0
C1267 C 0.806 0.72208 0.30436 0.0
C1268 C 0.82392 0.74906 0.32277 0.0
C1269 C 0.80117 0.73238 0.29009 0.0
C1270 C 0.81738 0.73046 0.32082 0.0
N1271 N 0.81876 0.78618 0.29508 0.0
C1272 C 0.82529 0.80411 0.29521 0.0
C1273 C 0.83631 0.78648 0.32555 0.0
C1274 C 0.82471 0.77726 0.3094 0.0
C1275 C 0.84226 0.80507 0.32626 0.0
C1276 C 0.8369 0.81388 0.31089 0.0
H1277 H 0.82105 0.72246 0.33187 0.0
H1278 H 0.8395 0.75094 0.35058 0.0
H1279 H 0.8504 0.7837 0.35298 0.0
O1280 O 0.82015 0.77772 0.25401 0.0
O1281 O 0.78961 0.77549 0.29829 0.0
O1282 O 0.77228 0.79637 0.2922 0.0
O1283 O 0.81274 0.74988 0.25787 0.0
O1284 O 0.7973 0.79377 0.25807 0.0
O1285 O 0.77657 0.80621 0.27346 0.0
O1286 O 0.72922 0.77755 0.28201 0.0
O1287 O 0.76317 0.77982 0.24028 0.0
O1288 O 0.7777 0.75777 0.24798 0.0
O1289 O 0.73814 0.80503 0.2762 0.0
O1290 O 0.75392 0.76117 0.28134 0.0
O1291 O 0.77486 0.74841 0.26673 0.0
C1292 C 0.78069 0.78772 0.30416 0.0
C1293 C 0.84253 0.75998 0.25212 0.0
C1294 C 0.87086 0.76258 0.23862 0.0
C1295 C 0.87719 0.75343 0.25333 0.0
C1296 C 0.84942 0.75105 0.26677 0.0
C1297 C 0.86657 0.74775 0.26727 0.0
C1298 C 0.8534 0.76581 0.238 0.0
C1299 C 0.79021 0.80755 0.26358 0.0
C1300 C 0.82364 0.76174 0.25054 0.0
C1301 C 0.83536 0.75818 0.33901 0.0
C1302 C 0.84156 0.77685 0.34039 0.0
C1303 C 0.77159 0.76702 0.23515 0.0
C1304 C 0.71117 0.80035 0.29096 0.0
C1305 C 0.68608 0.7978 0.30996 0.0
C1306 C 0.68324 0.81449 0.30495 0.0
C1307 C 0.70774 0.81697 0.28621 0.0
C1308 C 0.70006 0.79056 0.30277 0.0
C1309 C 0.69392 0.82392 0.29312 0.0
C1310 C 0.76173 0.7475 0.2774 0.0
C1311 C 0.72633 0.79389 0.28316 0.0
H1312 H 0.89045 0.75065 0.25399 0.0
H1313 H 0.84143 0.74628 0.27766 0.0
H1314 H 0.87162 0.74063 0.27846 0.0
H1315 H 0.84825 0.77258 0.22651 0.0
H1316 H 0.67258 0.82024 0.31015 0.0
H1317 H 0.71576 0.82471 0.27702 0.0
H1318 H 0.70241 0.77772 0.30657 0.0
H1319 H 0.69149 0.83673 0.28931 0.0
Tb1320 Tb 0.76417 0.27054 0.79362 0.0
C1321 C 0.80644 0.2447 0.71968 0.0
N1322 N 0.81177 0.25602 0.73631 0.0
C1323 C 0.83813 0.24393 0.74127 0.0
C1324 C 0.8165 0.2321 0.71353 0.0
C1325 C 0.8276 0.25608 0.74688 0.0
C1326 C 0.83249 0.23177 0.72462 0.0
C1327 C 0.78449 0.23398 0.69181 0.0
C1328 C 0.79061 0.24558 0.70906 0.0
C1329 C 0.79429 0.22117 0.68576 0.0
C1330 C 0.81027 0.22024 0.69659 0.0
Tb1331 Tb 0.79334 0.27503 0.74432 0.0
N1332 N 0.7813 0.25791 0.7156 0.0
C1333 C 0.76884 0.23577 0.68103 0.0
C1334 C 0.76683 0.26063 0.70427 0.0
C1335 C 0.76016 0.24937 0.68712 0.0
H1336 H 0.83239 0.26565 0.75946 0.0
H1337 H 0.74845 0.25137 0.67848 0.0
H1338 H 0.72447 0.2785 0.78131 0.0
H1339 H 0.81339 0.29863 0.85546 0.0
H1340 H 0.76048 0.27169 0.70795 0.0
H1341 H 0.76367 0.2271 0.66772 0.0
H1342 H 0.79903 0.27594 0.82886 0.0
H1343 H 0.85063 0.24401 0.74977 0.0
H1344 H 0.78972 0.21205 0.67263 0.0
H1345 H 0.81775 0.21038 0.69169 0.0
H1346 H 0.70679 0.30093 0.79073 0.0
H1347 H 0.84063 0.22233 0.72037 0.0
H1348 H 0.7995 0.32431 0.86485 0.0
N1349 N 0.74651 0.28999 0.80235 0.0
C1350 C 0.75313 0.3028 0.81744 0.0
C1351 C 0.71986 0.30168 0.79832 0.0
C1352 C 0.74358 0.31598 0.82327 0.0
C1353 C 0.72996 0.28903 0.79296 0.0
C1354 C 0.72675 0.31532 0.81344 0.0
N1355 N 0.77813 0.28948 0.82079 0.0
C1356 C 0.79322 0.28748 0.83161 0.0
C1357 C 0.77707 0.31572 0.84268 0.0
C1358 C 0.76964 0.30269 0.82684 0.0
C1359 C 0.79332 0.31457 0.85262 0.0
C1360 C 0.80124 0.30017 0.84729 0.0
H1361 H 0.71895 0.32516 0.8175 0.0
H1362 H 0.74407 0.33964 0.84329 0.0
H1363 H 0.77343 0.3394 0.86036 0.0
O1364 O 0.76467 0.24908 0.80981 0.0
O1365 O 0.76866 0.29714 0.78487 0.0
O1366 O 0.79187 0.29147 0.77099 0.0
O1367 O 0.73986 0.2545 0.79785 0.0
O1368 O 0.79163 0.26485 0.79689 0.0
O1369 O 0.80889 0.27686 0.77341 0.0
O1370 O 0.79268 0.29541 0.72642 0.0
O1371 O 0.7851 0.24661 0.7476 0.0
O1372 O 0.77367 0.26096 0.7687 0.0
O1373 O 0.81745 0.29072 0.73952 0.0
O1374 O 0.76505 0.27893 0.7412 0.0
O1375 O 0.74794 0.26687 0.76493 0.0
C1376 C 0.78052 0.30183 0.77357 0.0
C1377 C 0.74199 0.24632 0.82942 0.0
C1378 C 0.74815 0.24115 0.86273 0.0
C1379 C 0.73362 0.24869 0.86722 0.0
C1380 C 0.72744 0.25376 0.83403 0.0
C1381 C 0.72332 0.25492 0.85289 0.0
C1382 C 0.75217 0.24003 0.84382 0.0
C1383 C 0.80703 0.26954 0.78981 0.0
C1384 C 0.74761 0.24597 0.81013 0.0
C1385 C 0.75112 0.3293 0.83866 0.0
C1386 C 0.76786 0.32919 0.84834 0.0
C1387 C 0.77569 0.24542 0.76146 0.0
C1388 C 0.81644 0.29854 0.70792 0.0
C1389 C 0.81441 0.3068 0.67541 0.0
C1390 C 0.828 0.29757 0.67151 0.0
C1391 C 0.82999 0.28933 0.7038 0.0
C1392 C 0.80877 0.30727 0.69369 0.0
C1393 C 0.83573 0.28891 0.68567 0.0
C1394 C 0.74975 0.27388 0.7484 0.0
C1395 C 0.80982 0.29888 0.72676 0.0
H1396 H 0.72996 0.24938 0.88167 0.0
H1397 H 0.7194 0.25884 0.82318 0.0
H1398 H 0.7121 0.26063 0.85641 0.0
H1399 H 0.76352 0.23447 0.84033 0.0
H1400 H 0.83284 0.29728 0.65762 0.0
H1401 H 0.83615 0.2824 0.71449 0.0
H1402 H 0.79819 0.31423 0.69678 0.0
H1403 H 0.84622 0.28188 0.68259 0.0
Tb1404 Tb 0.77139 0.75724 0.76141 0.0
C1405 C 0.83307 0.81284 0.80486 0.0
N1406 N 0.81786 0.80372 0.81026 0.0
C1407 C 0.83394 0.79872 0.83955 0.0
C1408 C 0.84951 0.81448 0.81626 0.0
C1409 C 0.81799 0.79727 0.82766 0.0
C1410 C 0.8498 0.80722 0.83375 0.0
C1411 C 0.84769 0.82941 0.78136 0.0
C1412 C 0.83209 0.82035 0.78767 0.0
C1413 C 0.86415 0.83072 0.79247 0.0
C1414 C 0.86504 0.8234 0.80993 0.0
Tb1415 Tb 0.79251 0.80446 0.79112 0.0
N1416 N 0.81585 0.81909 0.77739 0.0
C1417 C 0.84626 0.83719 0.76427 0.0
C1418 C 0.81439 0.82783 0.76146 0.0
C1419 C 0.82953 0.83656 0.7544 0.0
H1420 H 0.80578 0.79155 0.83278 0.0
H1421 H 0.82824 0.84319 0.74159 0.0
H1422 H 0.75795 0.77007 0.71877 0.0
H1423 H 0.73789 0.71244 0.80632 0.0
H1424 H 0.80168 0.82885 0.7545 0.0
H1425 H 0.85793 0.8442 0.7589 0.0
H1426 H 0.76331 0.73254 0.79672 0.0
H1427 H 0.83396 0.79353 0.8533 0.0
H1428 H 0.87626 0.83763 0.78783 0.0
H1429 H 0.87781 0.82476 0.81847 0.0
H1430 H 0.73025 0.76601 0.6973 0.0
H1431 H 0.86214 0.80836 0.84302 0.0
H1432 H 0.70871 0.70678 0.78634 0.0
N1433 N 0.74634 0.75613 0.74055 0.0
C1434 C 0.73156 0.74514 0.74478 0.0
C1435 C 0.73035 0.76035 0.7108 0.0
C1436 C 0.7155 0.74164 0.7323 0.0
C1437 C 0.74605 0.76313 0.72342 0.0
C1438 C 0.71497 0.74967 0.71531 0.0
N1439 N 0.74836 0.74027 0.77302 0.0
C1440 C 0.75047 0.73128 0.78865 0.0
C1441 C 0.71792 0.72463 0.7658 0.0
C1442 C 0.73271 0.73666 0.76131 0.0
C1443 C 0.71975 0.71615 0.78242 0.0
C1444 C 0.73614 0.71941 0.79382 0.0
H1445 H 0.70291 0.74726 0.7053 0.0
H1446 H 0.68826 0.72694 0.72735 0.0
H1447 H 0.69038 0.7121 0.7567 0.0
O1448 O 0.7804 0.73352 0.76476 0.0
O1449 O 0.75314 0.76972 0.7783 0.0
O1450 O 0.76343 0.80059 0.78174 0.0
O1451 O 0.76763 0.73763 0.73723 0.0
O1452 O 0.78615 0.75819 0.78998 0.0
O1453 O 0.77976 0.78323 0.80634 0.0
O1454 O 0.79727 0.83247 0.7982 0.0
O1455 O 0.80999 0.78497 0.78426 0.0
O1456 O 0.79786 0.76988 0.75479 0.0
O1457 O 0.78743 0.81477 0.81832 0.0
O1458 O 0.77894 0.80606 0.76245 0.0
O1459 O 0.78084 0.7792 0.74495 0.0
C1460 C 0.75052 0.78635 0.78176 0.0
C1461 C 0.78499 0.71484 0.73766 0.0
C1462 C 0.79914 0.68926 0.7405 0.0
C1463 C 0.79959 0.68715 0.72054 0.0
C1464 C 0.78557 0.71286 0.71771 0.0
C1465 C 0.79295 0.69906 0.70922 0.0
C1466 C 0.79182 0.70304 0.74883 0.0
C1467 C 0.783 0.767 0.80582 0.0
C1468 C 0.77471 0.72665 0.74702 0.0
C1469 C 0.70067 0.72982 0.73683 0.0
C1470 C 0.70188 0.72133 0.75352 0.0
C1471 C 0.81193 0.77716 0.76722 0.0
C1472 C 0.77878 0.8426 0.81967 0.0
C1473 C 0.7587 0.86199 0.81032 0.0
C1474 C 0.7558 0.86532 0.8296 0.0
C1475 C 0.77592 0.84609 0.8389 0.0
C1476 C 0.76989 0.85031 0.80541 0.0
C1477 C 0.76433 0.85729 0.8438 0.0
C1478 C 0.7789 0.79606 0.74602 0.0
C1479 C 0.79143 0.83134 0.8148 0.0
H1480 H 0.8051 0.67642 0.71379 0.0
H1481 H 0.77992 0.72155 0.70866 0.0
H1482 H 0.79323 0.6974 0.69383 0.0
H1483 H 0.79063 0.70402 0.7641 0.0
H1484 H 0.7474 0.87453 0.83378 0.0
H1485 H 0.78275 0.84024 0.85011 0.0
H1486 H 0.7719 0.8475 0.79049 0.0
H1487 H 0.76224 0.86005 0.85867 0.0
Tb1488 Tb 0.54966 0.53381 0.53405 0.0
C1489 C 0.49359 0.47265 0.48827 0.0
N1490 N 0.50297 0.48827 0.48356 0.0
C1491 C 0.50801 0.47248 0.45402 0.0
C1492 C 0.49167 0.45622 0.47635 0.0
C1493 C 0.50938 0.48846 0.46619 0.0
C1494 C 0.49934 0.45624 0.45923 0.0
C1495 C 0.47466 0.45759 0.50966 0.0
C1496 C 0.485 0.4733 0.50457 0.0
C1497 C 0.47321 0.44111 0.49817 0.0
C1498 C 0.48165 0.44043 0.48153 0.0
Tb1499 Tb 0.50299 0.5135 0.50429 0.0
N1500 N 0.48668 0.48947 0.51538 0.0
C1501 C 0.46588 0.459 0.52598 0.0
C1502 C 0.47739 0.49109 0.53068 0.0
C1503 C 0.46714 0.47586 0.53644 0.0
H1504 H 0.51476 0.50091 0.46106 0.0
H1505 H 0.46002 0.47716 0.54877 0.0
H1506 H 0.53826 0.5476 0.57615 0.0
H1507 H 0.58854 0.56898 0.48429 0.0
H1508 H 0.47762 0.50412 0.53831 0.0
H1509 H 0.45781 0.44724 0.53038 0.0
H1510 H 0.57378 0.54234 0.49726 0.0
H1511 H 0.51324 0.47277 0.44036 0.0
H1512 H 0.46533 0.42887 0.50183 0.0
H1513 H 0.48007 0.42769 0.47256 0.0
H1514 H 0.5421 0.57618 0.59721 0.0
H1515 H 0.49807 0.44392 0.44962 0.0
H1516 H 0.59107 0.59923 0.50198 0.0
N1517 N 0.5508 0.55959 0.55377 0.0
C1518 C 0.56038 0.57475 0.54845 0.0
C1519 C 0.54707 0.57602 0.5834 0.0
C1520 C 0.56301 0.5914 0.56013 0.0
C1521 C 0.54464 0.55986 0.57125 0.0
C1522 C 0.55616 0.59189 0.57776 0.0
N1523 N 0.56507 0.55711 0.52049 0.0
C1524 C 0.57333 0.55533 0.50438 0.0
C1525 C 0.57668 0.5892 0.52472 0.0
C1526 C 0.56726 0.57358 0.531 0.0
C1527 C 0.58384 0.58754 0.50736 0.0
C1528 C 0.58234 0.5705 0.49728 0.0
H1529 H 0.558 0.6044 0.58721 0.0
H1530 H 0.57435 0.61991 0.56254 0.0
H1531 H 0.58616 0.61802 0.53147 0.0
O1532 O 0.57711 0.53802 0.54184 0.0
O1533 O 0.53117 0.55243 0.52793 0.0
O1534 O 0.51651 0.5402 0.49841 0.0
O1535 O 0.55905 0.52581 0.56025 0.0
O1536 O 0.55084 0.52009 0.50527 0.0
O1537 O 0.52473 0.52329 0.48816 0.0
O1538 O 0.48056 0.52508 0.50612 0.0
O1539 O 0.51474 0.49591 0.52303 0.0
O1540 O 0.54471 0.50478 0.52282 0.0
O1541 O 0.48403 0.50915 0.47971 0.0
O1542 O 0.50318 0.52792 0.53306 0.0
O1543 O 0.52838 0.52241 0.54982 0.0
C1544 C 0.5229 0.55439 0.51114 0.0
C1545 C 0.58576 0.5157 0.5594 0.0
C1546 C 0.60515 0.49689 0.54704 0.0
C1547 C 0.60632 0.48962 0.56459 0.0
C1548 C 0.58713 0.50847 0.57691 0.0
C1549 C 0.59726 0.49534 0.5794 0.0
C1550 C 0.59453 0.50961 0.54441 0.0
C1551 C 0.54105 0.52058 0.48893 0.0
C1552 C 0.57548 0.52982 0.55708 0.0
C1553 C 0.57228 0.60697 0.55382 0.0
C1554 C 0.57897 0.6059 0.5361 0.0
C1555 C 0.53083 0.49242 0.525 0.0
C1556 C 0.45759 0.5218 0.47898 0.0
C1557 C 0.43223 0.53603 0.48072 0.0
C1558 C 0.42523 0.52786 0.46203 0.0
C1559 C 0.45053 0.51358 0.46034 0.0
C1560 C 0.4486 0.53327 0.48882 0.0
C1561 C 0.43445 0.51675 0.45186 0.0
C1562 C 0.51219 0.52535 0.54912 0.0
C1563 C 0.47435 0.51874 0.48834 0.0
H1564 H 0.61471 0.47999 0.5671 0.0
H1565 H 0.58047 0.51305 0.58867 0.0
H1566 H 0.59839 0.48989 0.59298 0.0
H1567 H 0.59345 0.51501 0.53076 0.0
H1568 H 0.41248 0.52966 0.4555 0.0
H1569 H 0.45738 0.50472 0.45237 0.0
H1570 H 0.4543 0.53996 0.50302 0.0
H1571 H 0.42898 0.51035 0.43753 0.0
Tb1572 Tb 1.00359 0.52282 0.02645 0.0
C1573 C 0.06804 0.5638 0.98966 0.0
N1574 N 0.0559 0.54818 0.98403 0.0
C1575 C 0.05243 0.55607 0.95183 0.0
C1576 C 0.07217 0.57648 0.97667 0.0
C1577 C 0.04901 0.54375 0.96505 0.0
C1578 C 0.06385 0.57262 0.95772 0.0
C1579 C 0.08995 0.58263 0.01434 0.0
C1580 C 0.07693 0.56687 0.00832 0.0
C1581 C 0.09373 0.5954 0.00154 0.0
C1582 C 0.08484 0.59236 0.98279 0.0
Tb1583 Tb 0.05256 0.52939 0.00746 0.0
N1584 N 0.07264 0.55452 0.02066 0.0
C1585 C 0.09878 0.5851 0.0331 0.0
C1586 C 0.08133 0.55677 0.03886 0.0
C1587 C 0.09448 0.57208 0.04538 0.0
H1588 H 0.04123 0.53057 0.95967 0.0
H1589 H 0.1013 0.57381 0.05986 0.0
H1590 H 0.01141 0.52169 0.07436 0.0
H1591 H 0.95759 0.47675 0.97301 0.0
H1592 H 0.07836 0.54666 0.04818 0.0
H1593 H 0.1089 0.597 0.03823 0.0
H1594 H 0.97686 0.5061 0.98658 0.0
H1595 H 0.04659 0.5526 0.93697 0.0
H1596 H 0.10361 0.60764 0.00595 0.0
H1597 H 0.0881 0.60226 0.97302 0.0
H1598 H 0.0086 0.49865 0.0964 0.0
H1599 H 0.06666 0.58203 0.94734 0.0
H1600 H 0.95524 0.45096 0.99203 0.0
N1601 N 1.00145 0.50313 0.04911 0.0
C1602 C 0.99205 0.48626 0.04245 0.0
C1603 C 1.0043 0.49486 0.08117 0.0
C1604 C 0.98936 0.47276 0.05478 0.0
C1605 C 0.00639 0.50784 0.06846 0.0
C1606 C 0.99611 0.47714 0.07424 0.0
N1607 N 0.98585 0.49648 0.01236 0.0
C1608 C 0.97592 0.49479 0.9948 0.0
C1609 C 0.97285 0.46605 0.01658 0.0
C1610 C 0.98371 0.48293 0.02363 0.0
C1611 C 0.96371 0.46374 0.99797 0.0
C1612 C 0.96501 0.47827 0.98717 0.0
H1613 H 0.99424 0.46718 0.08419 0.0
H1614 H 0.97724 0.44504 0.05676 0.0
H1615 H 0.96292 0.43913 0.02327 0.0
O1616 O 0.98265 0.53463 0.01551 0.0
O1617 O 0.01056 0.50074 0.00723 0.0
O1618 O 0.04047 0.50253 0.01496 0.0
O1619 O 0.98352 0.52597 0.04354 0.0
O1620 O 0.01044 0.53662 0.00184 0.0
O1621 O 0.02902 0.52131 0.98686 0.0
O1622 O 0.07805 0.52323 0.01404 0.0
O1623 O 0.04501 0.55488 0.01976 0.0
O1624 O 0.01908 0.5504 0.03498 0.0
O1625 O 0.06301 0.51607 0.98532 0.0
O1626 O 0.04643 0.51828 0.03353 0.0
O1627 O 0.02648 0.53116 0.04861 0.0
C1628 C 0.02437 0.49294 0.00914 0.0
C1629 C 0.97106 0.55129 0.03939 0.0
C1630 C 0.95005 0.57134 0.04076 0.0
C1631 C 0.96142 0.58245 0.05593 0.0
C1632 C 0.98225 0.56252 0.0546 0.0
C1633 C 0.97748 0.5781 0.06269 0.0
C1634 C 0.95506 0.55585 0.03237 0.0
C1635 C 0.01538 0.52912 0.9864 0.0
C1636 C 0.97549 0.53438 0.03138 0.0
C1637 C 0.97927 0.45562 0.04754 0.0
C1638 C 0.97106 0.45227 0.02848 0.0
C1639 C 0.03311 0.56087 0.02974 0.0
C1640 C 0.09194 0.50829 0.98896 0.0
C1641 C 0.11785 0.4946 0.99361 0.0
C1642 C 0.11948 0.49452 0.97394 0.0
C1643 C 0.09373 0.50793 0.96929 0.0
C1644 C 0.10403 0.5015 0.00116 0.0
C1645 C 0.10744 0.5011 0.96186 0.0
C1646 C 0.04212 0.52687 0.04863 0.0
C1647 C 0.07753 0.51596 0.9964 0.0
H1648 H 0.9579 0.59454 0.06251 0.0
H1649 H 0.99465 0.55924 0.06023 0.0
H1650 H 0.98619 0.58675 0.07435 0.0
H1651 H 0.94628 0.54707 0.02081 0.0
H1652 H 0.13003 0.48922 0.96791 0.0
H1653 H 0.08462 0.51313 0.95965 0.0
H1654 H 0.10275 0.50162 0.01635 0.0
H1655 H 0.10876 0.50093 0.9467 0.0
H1656 H 1.00229 0.22015 0.99321 0.0
H1657 H 0.00553 0.19035 0.0011 0.0
H1658 H 0.01341 0.17515 0.94256 0.0
H1659 H 0.01049 0.20521 0.93463 0.0
H1660 H 0.98738 0.15722 0.98986 0.0
H1661 H 0.05489 0.15943 0.96967 0.0
H1662 H 0.04501 0.17905 0.97122 0.0
H1663 H 0.0394 0.16263 0.95018 0.0
C1664 C 0.00478 0.21057 0.98192 0.0
C1665 C 0.0062 0.21542 0.96321 0.0
C1666 C 0.00662 0.19335 0.9865 0.0
C1667 C 0.01008 0.18024 0.97264 0.0
C1668 C 0.01123 0.18493 0.95382 0.0
H1669 H 0.007 0.06412 0.97582 0.0
H1670 H 0.00475 0.094 0.96692 0.0
C1671 C 0.00938 0.20221 0.94921 0.0
C1672 C 0.01213 0.16177 0.97793 0.0
H1673 H 0.03978 0.13128 0.97725 0.0
C1674 C 0.9989 0.15168 0.98708 0.0
C1675 C 0.02719 0.15421 0.97464 0.0
C1676 C 0.04252 0.16444 0.96608 0.0
C1677 C 1.00015 0.1345 0.99257 0.0
C1678 C 0.01501 0.1269 0.98897 0.0
C1679 C 0.0283 0.13693 0.97997 0.0
C1680 C 0.01682 0.10857 0.99445 0.0
C1681 C 0.98552 0.12441 0.00222 0.0
C1682 C 0.02443 0.10652 0.01294 0.0
C1683 C 0.02577 0.08934 0.01813 0.0
C1684 C 0.01948 0.07359 0.00501 0.0
C1685 C 0.01192 0.07575 0.98646 0.0
C1686 C 0.01067 0.09293 0.98127 0.0
H1687 H 0.97456 0.13181 0.00368 0.0
H1688 H 0.98005 0.11103 0.99382 0.0
H1689 H 0.99097 0.12206 0.01674 0.0
H1690 H 0.02929 0.11825 0.02347 0.0
H1691 H 0.0316 0.08841 0.03256 0.0
H1692 H 0.10632 0.81141 0.15546 0.0
H1693 H 0.13545 0.81401 0.17462 0.0
H1694 H 0.1321 0.75699 0.1611 0.0
H1695 H 0.10352 0.75433 0.142 0.0
H1696 H 0.14622 0.7982 0.20676 0.0
H1697 H 0.18031 0.77638 0.14614 0.0
H1698 H 0.15893 0.78256 0.1425 0.0
H1699 H 0.16061 0.76036 0.14816 0.0
C1700 C 0.11183 0.79945 0.1565 0.0
C1701 C 0.10243 0.78268 0.14697 0.0
C1702 C 0.12852 0.80094 0.16752 0.0
C1703 C 0.13632 0.78575 0.16911 0.0
C1704 C 0.12677 0.76904 0.15983 0.0
H1705 H 0.22086 0.75476 0.2406 0.0
H1706 H 0.19342 0.7577 0.22137 0.0
C1707 C 0.11022 0.76754 0.14894 0.0
C1708 C 0.15419 0.787 0.18056 0.0
H1709 H 0.19472 0.77545 0.17776 0.0
C1710 C 0.15687 0.79343 0.20032 0.0
C1711 C 0.16832 0.78089 0.17233 0.0
C1712 C 0.167 0.77483 0.15108 0.0
C1713 C 0.17283 0.79321 0.21201 0.0
C1714 C 0.18658 0.78645 0.20387 0.0
C1715 C 0.18416 0.78051 0.18408 0.0
C1716 C 0.20334 0.78492 0.21579 0.0
C1717 C 0.17489 0.79988 0.23316 0.0
C1718 C 0.21823 0.79916 0.21895 0.0
C1719 C 0.23408 0.79739 0.2297 0.0
C1720 C 0.23529 0.78144 0.23779 0.0
C1721 C 0.22032 0.76728 0.23474 0.0
C1722 C 0.20462 0.76894 0.22372 0.0
H1723 H 0.16295 0.80452 0.23749 0.0
H1724 H 0.1775 0.78897 0.24172 0.0
H1725 H 0.18652 0.8112 0.23672 0.0
H1726 H 0.2176 0.81164 0.21302 0.0
H1727 H 0.24532 0.80858 0.23192 0.0
H1728 H 0.5318 0.82069 0.46498 0.0
H1729 H 0.53821 0.85301 0.47744 0.0
H1730 H 0.48289 0.85443 0.46468 0.0
H1731 H 0.47643 0.82257 0.45273 0.0
H1732 H 0.53408 0.88309 0.46029 0.0
H1733 H 0.49195 0.8787 0.51886 0.0
H1734 H 0.4975 0.85903 0.50647 0.0
H1735 H 0.47949 0.86848 0.49631 0.0
C1736 C 0.52097 0.82783 0.46514 0.0
C1737 C 0.50354 0.81874 0.45793 0.0
C1738 C 0.52466 0.84642 0.47218 0.0
C1739 C 0.51101 0.85639 0.47243 0.0
C1740 C 0.49369 0.84724 0.46525 0.0
H1741 H 0.49618 0.96707 0.4906 0.0
H1742 H 0.49405 0.9347 0.48248 0.0
C1743 C 0.49002 0.82884 0.45823 0.0
C1744 C 0.51462 0.87636 0.47949 0.0
H1745 H 0.50009 0.90797 0.50868 0.0
C1746 C 0.52681 0.88845 0.47108 0.0
C1747 C 0.50526 0.88369 0.49365 0.0
C1748 C 0.49297 0.87178 0.50449 0.0
C1749 C 0.52929 0.90738 0.47579 0.0
C1750 C 0.51942 0.91465 0.48939 0.0
C1751 C 0.50756 0.90258 0.49811 0.0
C1752 C 0.52091 0.93466 0.49449 0.0
C1753 C 0.54203 0.91954 0.46567 0.0
C1754 C 0.53664 0.94575 0.50416 0.0
C1755 C 0.53768 0.96434 0.50936 0.0
C1756 C 0.52305 0.97247 0.50497 0.0
C1757 C 0.5075 0.96138 0.49489 0.0
C1758 C 0.50634 0.94277 0.49 0.0
H1759 H 0.54614 0.91212 0.45307 0.0
H1760 H 0.53599 0.93067 0.46076 0.0
H1761 H 0.55409 0.92562 0.47586 0.0
H1762 H 0.54809 0.93998 0.50797 0.0
H1763 H 0.54999 0.97231 0.51695 0.0
H1764 H 0.51402 0.27366 0.65886 0.0
H1765 H 0.48878 0.27032 0.67766 0.0
H1766 H 0.46298 0.30196 0.6407 0.0
H1767 H 0.48769 0.30491 0.6217 0.0
H1768 H 0.47303 0.29388 0.69839 0.0
H1769 H 0.42477 0.25772 0.63695 0.0
H1770 H 0.44836 0.26186 0.63603 0.0
H1771 H 0.43603 0.27924 0.63193 0.0
C1772 C 0.50297 0.2799 0.65475 0.0
C1773 C 0.50285 0.28934 0.63855 0.0
C1774 C 0.48853 0.278 0.66554 0.0
C1775 C 0.47367 0.2855 0.66038 0.0
C1776 C 0.47393 0.29554 0.6447 0.0
H1777 H 0.37064 0.28566 0.70153 0.0
H1778 H 0.39854 0.29389 0.68763 0.0
C1779 C 0.48821 0.2973 0.63387 0.0
C1780 C 0.45778 0.28273 0.67108 0.0
H1781 H 0.41274 0.26768 0.6648 0.0
C1782 C 0.45988 0.28805 0.69104 0.0
C1783 C 0.44051 0.2751 0.66161 0.0
C1784 C 0.43727 0.26798 0.6405 0.0
C1785 C 0.44522 0.28628 0.7016 0.0
C1786 C 0.42798 0.27888 0.69203 0.0
C1787 C 0.4259 0.27355 0.67213 0.0
C1788 C 0.41196 0.27572 0.70239 0.0
C1789 C 0.44824 0.29261 0.72287 0.0
C1790 C 0.41022 0.26294 0.7155 0.0
C1791 C 0.39427 0.25816 0.72328 0.0
C1792 C 0.37976 0.26618 0.71832 0.0
C1793 C 0.38171 0.27949 0.70582 0.0
C1794 C 0.39761 0.28411 0.69782 0.0
H1795 H 0.46133 0.30178 0.7272 0.0
H1796 H 0.43767 0.29967 0.72713 0.0
H1797 H 0.44782 0.28077 0.73093 0.0
H1798 H 0.42092 0.25604 0.71904 0.0
H1799 H 0.39302 0.24769 0.73269 0.0
H1800 H 0.05207 0.81552 0.67197 0.0
H1801 H 0.05004 0.83993 0.65246 0.0
H1802 H 0.99882 0.81127 0.62474 0.0
H1803 H 1.00073 0.78661 0.64441 0.0
H1804 H 0.04672 0.83919 0.61264 0.0
H1805 H 0.9894 0.86163 0.64182 0.0
H1806 H 1.0016 0.84692 0.65362 0.0
H1807 H 0.98596 0.8382 0.63262 0.0
C1808 C 0.04032 0.81432 0.66176 0.0
C1809 C 0.02655 0.799 0.65988 0.0
C1810 C 0.03919 0.82836 0.65056 0.0
C1811 C 0.02419 0.82768 0.63723 0.0
C1812 C 0.01043 0.81234 0.63512 0.0
H1813 H 0.02111 0.90304 0.55006 0.0
H1814 H 0.01304 0.87672 0.56732 0.0
C1815 C 0.0116 0.79815 0.64629 0.0
C1816 C 0.02341 0.84293 0.62542 0.0
H1817 H 1.00162 0.87729 0.61742 0.0
C1818 C 0.03675 0.84738 0.61359 0.0
C1819 C 0.01047 0.8538 0.62665 0.0
C1820 C 0.99609 0.85006 0.63945 0.0
C1821 C 0.03759 0.86234 0.60321 0.0
C1822 C 0.02483 0.87331 0.60463 0.0
C1823 C 0.01134 0.86882 0.61623 0.0
C1824 C 0.02625 0.89007 0.59499 0.0
C1825 C 0.05243 0.86667 0.59108 0.0
C1826 C 0.03573 0.90654 0.60491 0.0
C1827 C 0.04024 0.92158 0.59509 0.0
C1828 C 0.03524 0.92054 0.57515 0.0
C1829 C 0.0247 0.90441 0.56549 0.0
C1830 C 0.02025 0.88931 0.57532 0.0
H1831 H 0.06142 0.85692 0.59154 0.0
H1832 H 0.04681 0.86662 0.57591 0.0
H1833 H 0.06032 0.88039 0.59616 0.0
H1834 H 0.04066 0.90744 0.62001 0.0
H1835 H 0.04878 0.93365 0.6028 0.0
H1836 H 0.47286 0.75686 0.82239 0.0
H1837 H 0.44182 0.75799 0.81353 0.0
H1838 H 0.45431 0.81572 0.82689 0.0
H1839 H 0.48571 0.81468 0.83546 0.0
H1840 H 0.41794 0.76796 0.83406 0.0
H1841 H 0.4241 0.81242 0.77653 0.0
H1842 H 0.44237 0.80302 0.78619 0.0
H1843 H 0.43677 0.82233 0.79911 0.0
C1844 C 0.46918 0.76991 0.82327 0.0
C1845 C 0.48215 0.78569 0.8296 0.0
C1846 C 0.45121 0.77052 0.8182 0.0
C1847 C 0.44531 0.78693 0.81918 0.0
C1848 C 0.45824 0.80281 0.82542 0.0
H1849 H 0.33818 0.81188 0.79392 0.0
H1850 H 0.37001 0.81321 0.802 0.0
C1851 C 0.47635 0.80221 0.83044 0.0
C1852 C 0.42563 0.78705 0.81445 0.0
H1853 H 0.39559 0.80436 0.78617 0.0
C1854 C 0.41314 0.77593 0.82352 0.0
C1855 C 0.41895 0.79748 0.80084 0.0
C1856 C 0.4312 0.80937 0.78996 0.0
C1857 C 0.39461 0.77508 0.81968 0.0
C1858 C 0.38785 0.78518 0.80573 0.0
C1859 C 0.40037 0.79646 0.79679 0.0
C1860 C 0.36803 0.78434 0.80031 0.0
C1861 C 0.38261 0.76371 0.83129 0.0
C1862 C 0.35574 0.76777 0.79612 0.0
C1863 C 0.33736 0.7671 0.79184 0.0
C1864 C 0.33058 0.78292 0.79079 0.0
C1865 C 0.34282 0.79944 0.79425 0.0
C1866 C 0.36118 0.80016 0.799 0.0
H1867 H 0.38975 0.7622 0.84537 0.0
H1868 H 0.37091 0.76958 0.83404 0.0
H1869 H 0.37797 0.75002 0.82334 0.0
H1870 H 0.3603 0.75521 0.79606 0.0
H1871 H 0.32843 0.75409 0.78905 0.0
H1872 H 0.53206 0.21459 0.12358 0.0
H1873 H 0.53225 0.18523 0.10636 0.0
H1874 H 0.50189 0.15915 0.14725 0.0
H1875 H 0.50171 0.18873 0.1648 0.0
H1876 H 0.54589 0.1561 0.12034 0.0
H1877 H 0.47387 0.13569 0.09441 0.0
H1878 H 0.48438 0.15873 0.10313 0.0
H1879 H 0.47972 0.14263 0.1198 0.0
C1880 C 0.52529 0.20268 0.12897 0.0
C1881 C 0.51677 0.2042 0.14565 0.0
C1882 C 0.52547 0.1858 0.11905 0.0
C1883 C 0.51694 0.16982 0.12526 0.0
C1884 C 0.50837 0.17121 0.1419 0.0
H1885 H 0.50348 0.05685 0.07235 0.0
H1886 H 0.50196 0.08429 0.09305 0.0
C1887 C 0.50833 0.18818 0.15201 0.0
C1888 C 0.5175 0.15189 0.11445 0.0
H1889 H 0.49171 0.11482 0.08659 0.0
C1890 C 0.53402 0.14707 0.11301 0.0
C1891 C 0.50207 0.13993 0.1049 0.0
C1892 C 0.48398 0.14446 0.10544 0.0
C1893 C 0.53554 0.13077 0.10247 0.0
C1894 C 0.52014 0.11901 0.09241 0.0
C1895 C 0.50358 0.1237 0.09414 0.0
C1896 C 0.52101 0.10209 0.0797 0.0
C1897 C 0.55369 0.12622 0.10262 0.0
C1898 C 0.53201 0.10269 0.06498 0.0
C1899 C 0.53309 0.08697 0.0533 0.0
C1900 C 0.52283 0.0701 0.05555 0.0
C1901 C 0.51157 0.06952 0.07008 0.0
C1902 C 0.51065 0.08528 0.08194 0.0
H1903 H 0.56266 0.13299 0.11572 0.0
H1904 H 0.55299 0.11149 0.10198 0.0
H1905 H 0.55972 0.13101 0.08998 0.0
H1906 H 0.53983 0.11539 0.06244 0.0
H1907 H 0.54218 0.08809 0.0426 0.0
H1908 H 0.11146 0.30905 0.36511 0.0
H1909 H 0.13878 0.30636 0.35198 0.0
H1910 H 0.10901 0.2852 0.29667 0.0
H1911 H 0.0813 0.2884 0.30981 0.0
H1912 H 0.15121 0.27912 0.33918 0.0
H1913 H 0.1471 0.31943 0.27825 0.0
H1914 H 0.13205 0.31921 0.29616 0.0
H1915 H 0.12868 0.30093 0.27701 0.0
C1916 C 0.11055 0.30398 0.35005 0.0
C1917 C 0.09384 0.29905 0.33864 0.0
C1918 C 0.12641 0.30237 0.34249 0.0
C1919 C 0.12645 0.29573 0.32312 0.0
C1920 C 0.10977 0.29082 0.31153 0.0
H1921 H 0.21657 0.27519 0.26068 0.0
H1922 H 0.1872 0.2767 0.26992 0.0
C1923 C 0.09376 0.29256 0.31912 0.0
C1924 C 0.14393 0.29348 0.31577 0.0
H1925 H 0.17106 0.30423 0.28107 0.0
C1926 C 0.15545 0.28472 0.32648 0.0
C1927 C 0.14985 0.30051 0.29906 0.0
C1928 C 0.13888 0.31069 0.28703 0.0
C1929 C 0.17227 0.28288 0.32118 0.0
C1930 C 0.17835 0.29024 0.30474 0.0
C1931 C 0.16672 0.29863 0.29373 0.0
C1932 C 0.19667 0.28946 0.29894 0.0
C1933 C 0.18324 0.27262 0.33315 0.0
C1934 C 0.21227 0.29631 0.31183 0.0
C1935 C 0.22922 0.29519 0.30661 0.0
C1936 C 0.23131 0.28726 0.28821 0.0
C1937 C 0.21573 0.28093 0.27512 0.0
C1938 C 0.19876 0.28198 0.28038 0.0
H1939 H 0.1749 0.26339 0.34137 0.0
H1940 H 0.19055 0.2646 0.32404 0.0
H1941 H 0.19304 0.2823 0.34366 0.0
H1942 H 0.21139 0.30266 0.32605 0.0
H1943 H 0.24071 0.30044 0.31716 0.0
H1944 H 0.92528 0.00659 0.1972 0.0
H1945 H 0.93423 0.00699 0.16495 0.0
H1946 H 0.98642 0.03622 0.18912 0.0
H1947 H 0.97765 0.03574 0.22148 0.0
H1948 H 0.94587 0.03707 0.1468 0.0
H1949 H 0.99709 0.9953 0.153 0.0
H1950 H 0.98116 0.99599 0.16991 0.0
H1951 H 1.00042 0.01375 0.17182 0.0
C1952 C 0.93873 0.01298 0.19571 0.0
C1953 C 0.95076 0.02115 0.21197 0.0
C1954 C 0.9438 0.01321 0.17724 0.0
C1955 C 0.96103 0.02147 0.17462 0.0
C1956 C 0.97314 0.02949 0.19081 0.0
H1957 H 0.02036 0.0489 0.08279 0.0
H1958 H 0.00767 0.04622 0.11265 0.0
C1959 C 0.96807 0.02928 0.20931 0.0
C1960 C 0.96611 0.02239 0.15492 0.0
H1961 H 0.99627 0.01172 0.12594 0.0
C1962 C 0.95677 0.03137 0.14214 0.0
C1963 C 0.98028 0.01488 0.14885 0.0
C1964 C 0.99022 0.00428 0.16153 0.0
C1965 C 0.96166 0.03362 0.12372 0.0
C1966 C 0.97611 0.02652 0.11788 0.0
C1967 C 0.98519 0.01719 0.13049 0.0
C1968 C 0.98284 0.02949 0.09925 0.0
C1969 C 0.95178 0.04412 0.1109 0.0
C1970 C 0.97289 0.02166 0.08159 0.0
C1971 C 0.98048 0.02296 0.06438 0.0
C1972 C 0.99831 0.03161 0.06469 0.0
C1973 C 0.00741 0.0408 0.08219 0.0
C1974 C 0.99994 0.03957 0.09929 0.0
H1975 H 0.94298 0.05135 0.11877 0.0
H1976 H 0.96123 0.05406 0.10456 0.0
H1977 H 0.94348 0.03474 0.0989 0.0
H1978 H 0.95956 0.01394 0.08118 0.0
H1979 H 0.9727 0.01632 0.05106 0.0
H1980 H 0.23575 0.65618 0.49253 0.0
H1981 H 0.24182 0.67644 0.46808 0.0
H1982 H 0.29561 0.66831 0.47118 0.0
H1983 H 0.28979 0.64807 0.49564 0.0
H1984 H 0.27952 0.70951 0.47364 0.0
H1985 H 0.26387 0.65504 0.41169 0.0
H1986 H 0.25217 0.65257 0.43244 0.0
H1987 H 0.2753 0.65198 0.43444 0.0
C1988 C 0.24884 0.65865 0.48796 0.0
C1989 C 0.2623 0.65058 0.49594 0.0
C1990 C 0.2523 0.67027 0.47415 0.0
C1991 C 0.26916 0.67382 0.46813 0.0
C1992 C 0.28259 0.66573 0.4759 0.0
H1993 H 0.2712 0.72131 0.36241 0.0
H1994 H 0.28486 0.71014 0.39009 0.0
C1995 C 0.27919 0.65418 0.48977 0.0
C1996 C 0.27241 0.68559 0.45317 0.0
H1997 H 0.26606 0.6848 0.40469 0.0
C1998 C 0.27695 0.70423 0.45851 0.0
C1999 C 0.26942 0.67846 0.43364 0.0
C2000 C 0.26496 0.65841 0.42753 0.0
C2001 C 0.27747 0.71611 0.44455 0.0
C2002 C 0.27282 0.70901 0.42496 0.0
C2003 C 0.2696 0.69028 0.41971 0.0
C2004 C 0.26846 0.7202 0.40995 0.0
C2005 C 0.2825 0.73607 0.45098 0.0
C2006 C 0.25525 0.73032 0.41212 0.0
C2007 C 0.24772 0.73721 0.39641 0.0
C2008 C 0.25288 0.73366 0.37811 0.0
C2009 C 0.26695 0.72453 0.37627 0.0
C2010 C 0.27475 0.71801 0.39209 0.0
H2011 H 0.2925 0.73898 0.46399 0.0
H2012 H 0.28794 0.74363 0.43952 0.0
H2013 H 0.2706 0.74102 0.4549 0.0
H2014 H 0.24985 0.73184 0.42563 0.0
H2015 H 0.23721 0.74453 0.39844 0.0
H2016 H 0.61629 1.00271 0.70925 0.0
H2017 H 0.59726 0.0064 0.68045 0.0
H2018 H 0.63619 0.05206 0.67053 0.0
H2019 H 0.65543 0.04813 0.69872 0.0
H2020 H 0.58298 0.03566 0.67154 0.0
H2021 H 0.6292 0.01933 0.62016 0.0
H2022 H 0.63201 0.01536 0.64499 0.0
H2023 H 0.63878 0.03764 0.63852 0.0
C2024 C 0.62074 0.01346 0.70084 0.0
C2025 C 0.63733 0.02495 0.7059 0.0
C2026 C 0.60991 0.01558 0.68453 0.0
C2027 C 0.61558 0.02932 0.67338 0.0
C2028 C 0.63188 0.04115 0.67879 0.0
H2029 H 0.54707 0.05603 0.57819 0.0
H2030 H 0.56538 0.05867 0.60944 0.0
C2031 C 0.6428 0.03886 0.69485 0.0
C2032 C 0.60451 0.03111 0.65588 0.0
H2033 H 0.60365 0.02895 0.60735 0.0
C2034 C 0.58742 0.03422 0.65746 0.0
C2035 C 0.61057 0.02921 0.6377 0.0
C2036 C 0.62858 0.02504 0.63516 0.0
C2037 C 0.57589 0.035 0.64109 0.0
C2038 C 0.58194 0.03302 0.62296 0.0
C2039 C 0.59924 0.03053 0.62144 0.0
C2040 C 0.57006 0.0315 0.60513 0.0
C2041 C 0.55719 0.03717 0.64321 0.0
C2042 C 0.56686 0.01541 0.59269 0.0
C2043 C 0.55686 0.01404 0.57496 0.0
C2044 C 0.54977 0.02868 0.56967 0.0
C2045 C 0.55235 0.04458 0.58234 0.0
C2046 C 0.5627 0.04608 0.60003 0.0
H2047 H 0.55374 0.03525 0.65789 0.0
H2048 H 0.55578 0.05093 0.6404 0.0
H2049 H 0.54752 0.0274 0.63262 0.0
H2050 H 0.57245 0.00405 0.59655 0.0
H2051 H 0.55484 1.00164 0.56529 0.0
H2052 H 0.32059 0.36611 0.97563 0.0
H2053 H 0.31489 0.35015 0.94319 0.0
H2054 H 0.25972 0.33324 0.95001 0.0
H2055 H 0.26525 0.3497 0.98253 0.0
H2056 H 0.3031 0.31523 0.92994 0.0
H2057 H 0.25579 0.35507 0.90022 0.0
H2058 H 0.26885 0.36174 0.92345 0.0
H2059 H 0.24935 0.34415 0.92055 0.0
C2060 C 0.30721 0.359 0.97032 0.0
C2061 C 0.29336 0.35931 0.9817 0.0
C2062 C 0.30398 0.34984 0.9517 0.0
C2063 C 0.28682 0.34072 0.94396 0.0
C2064 C 0.273 0.34054 0.95546 0.0
H2065 H 0.25376 0.27953 0.82904 0.0
H2066 H 0.25427 0.29181 0.86267 0.0
C2067 C 0.27621 0.34983 0.97412 0.0
C2068 C 0.28371 0.33147 0.92387 0.0
H2069 H 0.26155 0.33132 0.87918 0.0
C2070 C 0.29395 0.31872 0.91889 0.0
C2071 C 0.27176 0.33599 0.90938 0.0
C2072 C 0.2609 0.35009 0.91356 0.0
C2073 C 0.29279 0.31063 0.89986 0.0
C2074 C 0.28114 0.31542 0.88539 0.0
C2075 C 0.27048 0.32771 0.89036 0.0
C2076 C 0.28052 0.30839 0.86486 0.0
C2077 C 0.30414 0.29708 0.89529 0.0
C2078 C 0.29494 0.31397 0.85486 0.0
C2079 C 0.29459 0.30718 0.8356 0.0
C2080 C 0.27996 0.29444 0.82604 0.0
C2081 C 0.26535 0.28917 0.83601 0.0
C2082 C 0.2656 0.29616 0.85523 0.0
H2083 H 0.30966 0.29212 0.90845 0.0
H2084 H 0.29637 0.2854 0.88529 0.0
H2085 H 0.31537 0.30347 0.88808 0.0
H2086 H 0.30645 0.32365 0.86194 0.0
H2087 H 0.30573 0.31205 0.82821 0.0
H2088 H 0.96408 0.03386 0.30708 0.0
H2089 H 0.98316 0.0371 0.33795 0.0
H2090 H 0.94374 0.9984 0.35885 0.0
H2091 H 0.92482 0.99499 0.32836 0.0
H2092 H 0.97552 0.04753 0.37594 0.0
H2093 H 0.98924 0.97862 0.36873 0.0
H2094 H 0.98056 0.98857 0.34851 0.0
H2095 H 0.96601 0.97887 0.36471 0.0
C2096 C 0.95955 0.02598 0.31823 0.0
C2097 C 0.94294 0.0141 0.31517 0.0
C2098 C 0.97044 0.02787 0.33586 0.0
C2099 C 0.965 0.01775 0.35058 0.0
C2100 C 0.94839 0.00606 0.34758 0.0
H2101 H 0.98554 0.02737 0.47187 0.0
H2102 H 0.97567 0.02796 0.438 0.0
C2103 C 0.93753 0.00421 0.3301 0.0
C2104 C 0.97628 0.0195 0.36936 0.0
H2105 H 0.99442 0.99448 0.40067 0.0
C2106 C 0.97992 0.03602 0.38124 0.0
C2107 C 0.98222 0.00455 0.37621 0.0
C2108 C 0.97947 0.98669 0.3638 0.0
C2109 C 0.98843 0.03767 0.40017 0.0
C2110 C 0.99329 0.02238 0.4074 0.0
C2111 C 0.99057 0.00616 0.39516 0.0
C2112 C 0.99985 0.02252 0.42801 0.0
C2113 C 0.9919 0.05568 0.41241 0.0
C2114 C 0.01656 0.01867 0.43366 0.0
C2115 C 0.02221 0.0181 0.45313 0.0
C2116 C 0.01121 0.02133 0.46722 0.0
C2117 C 0.99446 0.02504 0.46144 0.0
C2118 C 0.98881 0.0255 0.44206 0.0
H2119 H 0.99161 0.06688 0.4035 0.0
H2120 H 0.98148 0.05582 0.42209 0.0
H2121 H 0.00495 0.05815 0.42147 0.0
H2122 H 0.02521 0.01616 0.42301 0.0
H2123 H 0.0352 0.01526 0.45715 0.0
H2124 H 0.28856 0.65326 0.59796 0.0
H2125 H 0.29194 0.67272 0.62834 0.0
H2126 H 0.2436 0.69014 0.61038 0.0
H2127 H 0.23998 0.67065 0.57984 0.0
H2128 H 0.29258 0.71199 0.63311 0.0
H2129 H 0.23803 0.66974 0.66376 0.0
H2130 H 0.24888 0.66104 0.64445 0.0
H2131 H 0.23283 0.67472 0.63963 0.0
C2132 C 0.27864 0.66125 0.60043 0.0
C2133 C 0.26393 0.6604 0.58661 0.0
C2134 C 0.28064 0.67233 0.61774 0.0
C2135 C 0.26791 0.68257 0.62146 0.0
C2136 C 0.25339 0.68206 0.60765 0.0
H2137 H 0.25293 0.75725 0.71423 0.0
H2138 H 0.25137 0.73815 0.68375 0.0
C2139 C 0.25139 0.67101 0.59027 0.0
C2140 C 0.26981 0.69381 0.63991 0.0
H2141 H 0.2511 0.69812 0.68131 0.0
C2142 C 0.28359 0.709 0.64373 0.0
C2143 C 0.2581 0.68955 0.65359 0.0
C2144 C 0.24368 0.6728 0.65032 0.0
C2145 C 0.28565 0.72049 0.6609 0.0
C2146 C 0.27368 0.71645 0.67437 0.0
C2147 C 0.2601 0.7011 0.6707 0.0
C2148 C 0.27495 0.72812 0.6924 0.0
C2149 C 0.30033 0.73702 0.66445 0.0
C2150 C 0.2887 0.72852 0.70707 0.0
C2151 C 0.28963 0.73932 0.72439 0.0
C2152 C 0.2768 0.74981 0.72711 0.0
C2153 C 0.26306 0.7494 0.71233 0.0
C2154 C 0.2621 0.73851 0.69504 0.0
H2155 H 0.30681 0.73959 0.65137 0.0
H2156 H 0.29509 0.74904 0.66945 0.0
H2157 H 0.31055 0.73521 0.67595 0.0
H2158 H 0.29858 0.72036 0.70516 0.0
H2159 H 0.30034 0.73943 0.73562 0.0
H2160 H 0.63794 0.02166 0.78172 0.0
H2161 H 0.61762 0.01936 0.80597 0.0
H2162 H 0.65819 0.05307 0.84765 0.0
H2163 H 0.67865 0.05574 0.82334 0.0
H2164 H 0.62158 0.00607 0.84186 0.0
H2165 H 0.61549 0.07787 0.84872 0.0
H2166 H 0.62481 0.06766 0.82901 0.0
H2167 H 0.63792 0.0746 0.85208 0.0
C2168 C 0.64259 0.02859 0.79605 0.0
C2169 C 0.65991 0.03886 0.80069 0.0
C2170 C 0.63096 0.02721 0.80985 0.0
C2171 C 0.63645 0.0361 0.82846 0.0
C2172 C 0.65374 0.04629 0.83322 0.0
H2173 H 0.59368 0.0449 0.93355 0.0
H2174 H 0.61063 0.03464 0.90881 0.0
C2175 C 0.66539 0.04775 0.81938 0.0
C2176 C 0.62399 0.03482 0.84284 0.0
H2177 H 0.60288 0.06014 0.8715 0.0
C2178 C 0.6174 0.01784 0.84833 0.0
C2179 C 0.61847 0.05022 0.85094 0.0
C2180 C 0.62439 0.0686 0.84478 0.0
C2181 C 0.6057 0.016 0.86225 0.0
C2182 C 0.60067 0.03148 0.87066 0.0
C2183 C 0.60698 0.04835 0.86494 0.0
C2184 C 0.58905 0.03098 0.88578 0.0
C2185 C 0.59885 0.99771 0.86803 0.0
C2186 C 0.57117 0.03148 0.88093 0.0
C2187 C 0.56145 0.03737 0.89498 0.0
C2188 C 0.56963 0.04295 0.91393 0.0
C2189 C 0.58704 0.04067 0.91905 0.0
C2190 C 0.59672 0.03475 0.90499 0.0
H2191 H 0.60349 0.98684 0.8595 0.0
H2192 H 0.60332 0.99763 0.88351 0.0
H2193 H 0.58412 0.99483 0.86611 0.0
H2194 H 0.56519 0.02875 0.86606 0.0
H2195 H 0.54792 0.03864 0.89079 0.0
H2196 H 0.27455 0.3772 0.0924 0.0
H2197 H 0.27129 0.36626 0.12365 0.0
H2198 H 0.29836 0.32356 0.1078 0.0
H2199 H 0.30169 0.33436 0.07654 0.0
H2200 H 0.25489 0.33067 0.13233 0.0
H2201 H 0.32667 0.35001 0.15954 0.0
H2202 H 0.31687 0.359 0.13921 0.0
H2203 H 0.32151 0.33673 0.13636 0.0
C2204 C 0.27983 0.36548 0.09555 0.0
C2205 C 0.28851 0.35674 0.08198 0.0
C2206 C 0.2779 0.35922 0.1134 0.0
C2207 C 0.28476 0.34423 0.11815 0.0
C2208 C 0.29317 0.3353 0.10454 0.0
H2209 H 0.29298 0.28287 0.21304 0.0
H2210 H 0.29324 0.2959 0.18282 0.0
C2211 C 0.29502 0.34147 0.08664 0.0
C2212 C 0.28337 0.33802 0.1374 0.0
H2213 H 0.30841 0.33204 0.17823 0.0
C2214 C 0.26656 0.33111 0.14246 0.0
C2215 C 0.29861 0.33865 0.15061 0.0
C2216 C 0.31695 0.34663 0.1463 0.0
C2217 C 0.26465 0.32423 0.16013 0.0
C2218 C 0.27994 0.32457 0.17317 0.0
C2219 C 0.2967 0.3318 0.16823 0.0
C2220 C 0.27902 0.31657 0.19155 0.0
C2221 C 0.24638 0.31604 0.16445 0.0
C2222 C 0.27101 0.32393 0.20663 0.0
C2223 C 0.27087 0.3165 0.22409 0.0
C2224 C 0.27867 0.30152 0.22667 0.0
C2225 C 0.28668 0.29427 0.2115 0.0
C2226 C 0.28689 0.30174 0.1942 0.0
H2227 H 0.23633 0.31392 0.15155 0.0
H2228 H 0.24641 0.30292 0.17005 0.0
H2229 H 0.24235 0.32514 0.17571 0.0
H2230 H 0.26508 0.33556 0.205 0.0
H2231 H 0.26465 0.3224 0.23553 0.0
H2232 H 0.25292 0.97435 0.00426 0.0
H2233 H 0.22584 0.9862 0.0041 0.0
H2234 H 0.19605 0.93662 0.97197 0.0
H2235 H 0.22309 0.9244 0.9724 0.0
H2236 H 0.19985 0.99098 0.97486 0.0
H2237 H 0.17467 0.94064 0.02294 0.0
H2238 H 0.19735 0.94486 0.01798 0.0
H2239 H 0.18019 0.9317 0.00029 0.0
C2240 C 0.24066 0.96605 0.99692 0.0
C2241 C 0.23998 0.94839 0.98854 0.0
C2242 C 0.22527 0.97287 0.99675 0.0
C2243 C 0.20909 0.96217 0.98812 0.0
C2244 C 0.2085 0.94493 0.97881 0.0
H2245 H 0.10989 0.98783 0.01684 0.0
H2246 H 0.12962 0.97711 0.99543 0.0
C2247 C 0.22389 0.93801 0.97909 0.0
C2248 C 0.19276 0.96854 0.99082 0.0
H2249 H 0.15816 0.96256 0.01712 0.0
C2250 C 0.19047 0.98462 0.98375 0.0
C2251 C 0.18082 0.96019 0.00264 0.0
C2252 C 0.18336 0.94347 0.01156 0.0
C2253 C 0.17685 0.99308 0.98899 0.0
C2254 C 0.16538 0.98503 0.00133 0.0
C2255 C 0.16701 0.96844 0.00743 0.0
C2256 C 0.15332 0.99461 0.01064 0.0
C2257 C 0.17523 0.01086 0.98211 0.0
C2258 C 0.16033 0.00804 0.02603 0.0
C2259 C 0.1492 0.01394 0.03845 0.0
C2260 C 0.13101 0.00649 0.03543 0.0
C2261 C 0.12392 0.99376 0.01936 0.0
C2262 C 0.13507 0.98776 0.00707 0.0
H2263 H 0.18272 0.01347 0.96971 0.0
H2264 H 0.16109 0.01125 0.9779 0.0
H2265 H 0.1806 0.02185 0.99401 0.0
H2266 H 0.1745 0.01313 0.02911 0.0
H2267 H 0.15481 0.02395 0.05064 0.0
H2268 H 0.72227 0.61453 0.99741 0.0
H2269 H 0.69358 0.59378 0.99548 0.0
H2270 H 0.66989 0.63774 0.01595 0.0
H2271 H 0.6984 0.65854 0.018 0.0
H2272 H 0.67209 0.58929 0.02873 0.0
H2273 H 0.63757 0.61157 0.96501 0.0
H2274 H 0.66147 0.61533 0.96985 0.0
H2275 H 0.64943 0.62907 0.98334 0.0
C2276 C 0.71093 0.6198 0.00137 0.0
C2277 C 0.71261 0.6382 0.00782 0.0
C2278 C 0.69459 0.60793 0.00029 0.0
C2279 C 0.67966 0.61431 0.0054 0.0
C2280 C 0.68125 0.63264 0.01172 0.0
H2281 H 0.56998 0.57671 0.0126 0.0
H2282 H 0.5994 0.59277 0.00935 0.0
C2283 C 0.69757 0.64448 0.01293 0.0
C2284 C 0.66247 0.60179 0.00484 0.0
H2285 H 0.6199 0.59196 0.98267 0.0
C2286 C 0.66067 0.58967 0.01856 0.0
C2287 C 0.64768 0.60251 0.99163 0.0
C2288 C 0.64906 0.61522 0.9765 0.0
C2289 C 0.6442 0.57872 0.01998 0.0
C2290 C 0.62929 0.57951 0.00682 0.0
C2291 C 0.6313 0.59131 0.99273 0.0
C2292 C 0.61124 0.5692 0.00821 0.0
C2293 C 0.64283 0.56717 0.03618 0.0
C2294 C 0.60785 0.55045 0.00828 0.0
C2295 C 0.59099 0.54119 0.01083 0.0
C2296 C 0.57703 0.55035 0.01287 0.0
C2297 C 0.58034 0.56903 0.01165 0.0
C2298 C 0.59723 0.57833 0.00958 0.0
H2299 H 0.65404 0.57186 0.04787 0.0
H2300 H 0.63024 0.56712 0.04244 0.0
H2301 H 0.6432 0.55313 0.03058 0.0
H2302 H 0.61826 0.54296 0.00652 0.0
H2303 H 0.5891 0.52694 0.01128 0.0
H2304 H 0.6802 0.50106 0.26863 0.0
H2305 H 0.69711 0.477 0.26586 0.0
H2306 H 0.66465 0.44763 0.30304 0.0
H2307 H 0.64743 0.4713 0.30547 0.0
H2308 H 0.71689 0.4626 0.2927 0.0
H2309 H 0.65969 0.41052 0.25674 0.0
H2310 H 0.65892 0.43412 0.25993 0.0
H2311 H 0.65591 0.42086 0.27953 0.0
C2312 C 0.67665 0.48947 0.2762 0.0
C2313 C 0.66233 0.48801 0.2871 0.0
C2314 C 0.68636 0.47575 0.27464 0.0
C2315 C 0.68194 0.46034 0.28395 0.0
C2316 C 0.66802 0.45916 0.29533 0.0
H2317 H 0.71916 0.35912 0.2793 0.0
H2318 H 0.70785 0.38558 0.2914 0.0
C2319 C 0.65823 0.47276 0.29677 0.0
C2320 C 0.69172 0.44541 0.28156 0.0
H2321 H 0.68615 0.40061 0.26581 0.0
C2322 C 0.71018 0.44905 0.28682 0.0
C2323 C 0.68295 0.4277 0.27389 0.0
C2324 C 0.66331 0.42306 0.26702 0.0
C2325 C 0.72007 0.43543 0.28469 0.0
C2326 C 0.71129 0.41778 0.27695 0.0
C2327 C 0.69283 0.41412 0.27193 0.0
C2328 C 0.72095 0.40308 0.27259 0.0
C2329 C 0.73981 0.44001 0.29081 0.0
C2330 C 0.73243 0.40428 0.25838 0.0
C2331 C 0.73884 0.3892 0.25149 0.0
C2332 C 0.73397 0.37274 0.25879 0.0
C2333 C 0.72334 0.37179 0.27376 0.0
C2334 C 0.71682 0.38684 0.28057 0.0
H2335 H 0.74369 0.45243 0.30125 0.0
H2336 H 0.74441 0.42879 0.2974 0.0
H2337 H 0.74673 0.44234 0.27799 0.0
H2338 H 0.7355 0.41652 0.25173 0.0
H2339 H 0.74674 0.39008 0.23967 0.0
H2340 H 0.84579 0.4548 0.54997 0.0
H2341 H 0.87768 0.46377 0.54867 0.0
H2342 H 0.8673 0.47712 0.49106 0.0
H2343 H 0.83554 0.46856 0.49222 0.0
H2344 H 0.89773 0.4494 0.51971 0.0
H2345 H 0.89925 0.52298 0.52217 0.0
H2346 H 0.88093 0.50752 0.52904 0.0
H2347 H 0.88324 0.50872 0.50407 0.0
C2348 C 0.8503 0.45989 0.53715 0.0
C2349 C 0.83822 0.46116 0.52129 0.0
C2350 C 0.86844 0.46483 0.53638 0.0
C2351 C 0.87458 0.4711 0.51981 0.0
C2352 C 0.86262 0.47245 0.50401 0.0
H2353 H 0.97942 0.5005 0.48757 0.0
H2354 H 0.94816 0.48646 0.48751 0.0
C2355 C 0.84453 0.46763 0.50477 0.0
C2356 C 0.89357 0.47654 0.5191 0.0
H2357 H 0.92581 0.5132 0.51727 0.0
C2358 C 0.90395 0.46332 0.51921 0.0
C2359 C 0.90137 0.49471 0.51837 0.0
C2360 C 0.89068 0.50936 0.51854 0.0
C2361 C 0.92222 0.46796 0.51865 0.0
C2362 C 0.92992 0.48613 0.51806 0.0
C2363 C 0.91957 0.49928 0.51776 0.0
C2364 C 0.94891 0.4921 0.51834 0.0
C2365 C 0.93328 0.45366 0.51884 0.0
C2366 C 0.95922 0.49988 0.5357 0.0
C2367 C 0.97684 0.50806 0.53571 0.0
C2368 C 0.9841 0.50838 0.51838 0.0
C2369 C 0.97384 0.50034 0.50104 0.0
C2370 C 0.95621 0.49221 0.50101 0.0
H2371 H 0.92518 0.44006 0.51934 0.0
H2372 H 0.94017 0.45337 0.50578 0.0
H2373 H 0.94364 0.45699 0.53151 0.0
H2374 H 0.95346 0.50012 0.54909 0.0
H2375 H 0.98456 0.5146 0.54907 0.0
H2376 H 0.33181 0.05 0.29417 0.0
H2377 H 0.31824 0.0764 0.29371 0.0
H2378 H 0.36887 0.11082 0.31502 0.0
H2379 H 0.38266 0.08459 0.31547 0.0
H2380 H 0.32135 0.11308 0.32259 0.0
H2381 H 0.35164 0.11399 0.25414 0.0
H2382 H 0.34704 0.09399 0.26597 0.0
H2383 H 0.36575 0.11158 0.27529 0.0
C2384 C 0.33996 0.06316 0.29925 0.0
C2385 C 0.35834 0.0654 0.30443 0.0
C2386 C 0.33214 0.07813 0.2992 0.0
C2387 C 0.34267 0.09531 0.30435 0.0
C2388 C 0.36065 0.09749 0.31121 0.0
H2389 H 0.33689 0.19642 0.26653 0.0
H2390 H 0.34477 0.17319 0.28549 0.0
C2391 C 0.3685 0.08255 0.31127 0.0
C2392 C 0.33601 0.11078 0.29842 0.0
H2393 H 0.33833 0.13817 0.26322 0.0
C2394 C 0.325 0.11871 0.30968 0.0
C2395 C 0.34067 0.11756 0.28134 0.0
C2396 C 0.35181 0.10881 0.26835 0.0
C2397 C 0.31889 0.13392 0.30443 0.0
C2398 C 0.3241 0.14102 0.28769 0.0
C2399 C 0.33476 0.13276 0.27629 0.0
C2400 C 0.31832 0.15668 0.28087 0.0
C2401 C 0.30716 0.14239 0.31677 0.0
C2402 C 0.30086 0.15492 0.2723 0.0
C2403 C 0.29644 0.16797 0.26132 0.0
C2404 C 0.30949 0.18276 0.25872 0.0
C2405 C 0.32678 0.18487 0.26803 0.0
C2406 C 0.33116 0.17188 0.2791 0.0
H2407 H 0.30673 0.13698 0.33083 0.0
H2408 H 0.31186 0.15722 0.31935 0.0
H2409 H 0.29347 0.13963 0.30913 0.0
H2410 H 0.29096 0.14299 0.27316 0.0
H2411 H 0.28298 0.16619 0.25429 0.0
H2412 H 0.33204 0.16156 0.49267 0.0
H2413 H 0.35624 0.14518 0.49452 0.0
H2414 H 0.32427 0.10374 0.52055 0.0
H2415 H 0.29977 0.11986 0.51833 0.0
H2416 H 0.37349 0.13789 0.52692 0.0
H2417 H 0.34396 0.07393 0.48045 0.0
H2418 H 0.33405 0.09355 0.48047 0.0
H2419 H 0.33096 0.07916 0.49911 0.0
C2420 C 0.33004 0.14885 0.49859 0.0
C2421 C 0.31396 0.14202 0.50537 0.0
C2422 C 0.3439 0.13949 0.49961 0.0
C2423 C 0.342 0.12311 0.50743 0.0
C2424 C 0.3259 0.11613 0.51403 0.0
H2425 H 0.41706 0.05951 0.54672 0.0
H2426 H 0.39011 0.0709 0.53735 0.0
C2427 C 0.31195 0.12544 0.51289 0.0
C2428 C 0.35739 0.1142 0.51004 0.0
H2429 H 0.3714 0.07477 0.49983 0.0
C2430 C 0.37306 0.12414 0.52084 0.0
C2431 C 0.35678 0.09622 0.50218 0.0
C2432 C 0.34059 0.08513 0.48975 0.0
C2433 C 0.38805 0.11656 0.52425 0.0
C2434 C 0.38743 0.09859 0.51648 0.0
C2435 C 0.37179 0.08857 0.5057 0.0
C2436 C 0.4029 0.09002 0.51988 0.0
C2437 C 0.40434 0.12772 0.53652 0.0
C2438 C 0.41878 0.09665 0.51267 0.0
C2439 C 0.4341 0.09028 0.51811 0.0
C2440 C 0.43364 0.07705 0.5306 0.0
C2441 C 0.41757 0.0697 0.53701 0.0
C2442 C 0.40225 0.07616 0.53165 0.0
H2443 H 0.40142 0.13985 0.54465 0.0
H2444 H 0.41003 0.11964 0.54689 0.0
H2445 H 0.41454 0.13227 0.52714 0.0
H2446 H 0.41945 0.10719 0.50337 0.0
H2447 H 0.44642 0.09602 0.51303 0.0
H2448 H 0.6784 0.5891 0.30898 0.0
H2449 H 0.69723 0.61935 0.31293 0.0
H2450 H 0.67678 0.62687 0.25562 0.0
H2451 H 0.65765 0.59714 0.25184 0.0
H2452 H 0.72342 0.63405 0.29326 0.0
H2453 H 0.66901 0.67159 0.2858 0.0
H2454 H 0.66512 0.64807 0.28914 0.0
H2455 H 0.66754 0.65485 0.26562 0.0
C2456 C 0.67789 0.59726 0.29728 0.0
C2457 C 0.66639 0.59081 0.28019 0.0
C2458 C 0.68864 0.61452 0.29955 0.0
C2459 C 0.6881 0.62555 0.28474 0.0
C2460 C 0.67701 0.61887 0.26749 0.0
H2461 H 0.76283 0.71481 0.25831 0.0
H2462 H 0.74591 0.68541 0.2627 0.0
C2463 C 0.66614 0.60179 0.26531 0.0
C2464 C 0.69938 0.64387 0.28697 0.0
H2465 H 0.69795 0.68768 0.28186 0.0
C2466 C 0.71784 0.64581 0.29102 0.0
C2467 C 0.69209 0.65929 0.28433 0.0
C2468 C 0.67234 0.65839 0.28119 0.0
C2469 C 0.72924 0.66262 0.29167 0.0
C2470 C 0.72197 0.67779 0.28785 0.0
C2471 C 0.7035 0.676 0.2846 0.0
C2472 C 0.73326 0.69548 0.28632 0.0
C2473 C 0.74894 0.664 0.29639 0.0
C2474 C 0.73157 0.71098 0.29795 0.0
C2475 C 0.7412 0.72787 0.29542 0.0
C2476 C 0.75266 0.72954 0.28119 0.0
C2477 C 0.75445 0.71396 0.26971 0.0
C2478 C 0.74479 0.69711 0.27221 0.0
H2479 H 0.75192 0.65279 0.30429 0.0
H2480 H 0.75505 0.66326 0.28283 0.0
H2481 H 0.75524 0.67698 0.30519 0.0
H2482 H 0.72262 0.71002 0.30881 0.0
H2483 H 0.7395 0.73964 0.30443 0.0
H2484 H 0.84221 0.46983 0.80008 0.0
H2485 H 0.82883 0.43844 0.80134 0.0
H2486 H 0.85284 0.42261 0.75139 0.0
H2487 H 0.86689 0.45409 0.75044 0.0
H2488 H 0.8053 0.41763 0.77282 0.0
H2489 H 0.86456 0.38772 0.78874 0.0
H2490 H 0.86551 0.41171 0.79179 0.0
H2491 H 0.86529 0.4 0.76827 0.0
C2492 C 0.84462 0.45965 0.78935 0.0
C2493 C 0.85534 0.46422 0.77499 0.0
C2494 C 0.83711 0.4418 0.7902 0.0
C2495 C 0.84007 0.42841 0.77657 0.0
C2496 C 0.8508 0.43288 0.76223 0.0
H2497 H 0.77971 0.32125 0.74361 0.0
H2498 H 0.7936 0.3532 0.74452 0.0
C2499 C 0.8586 0.45076 0.76158 0.0
C2500 C 0.83076 0.40994 0.77656 0.0
H2501 H 0.83693 0.36727 0.7795 0.0
C2502 C 0.81217 0.4066 0.77436 0.0
C2503 C 0.83995 0.39581 0.77879 0.0
C2504 C 0.85993 0.39897 0.78222 0.0
C2505 C 0.80241 0.38923 0.77404 0.0
C2506 C 0.8116 0.37511 0.77561 0.0
C2507 C 0.83014 0.37839 0.77807 0.0
C2508 C 0.80217 0.35674 0.77517 0.0
C2509 C 0.78244 0.38603 0.77227 0.0
C2510 C 0.80253 0.34871 0.79215 0.0
C2511 C 0.79482 0.33073 0.7916 0.0
C2512 C 0.78684 0.32082 0.77405 0.0
C2513 C 0.78605 0.3289 0.75714 0.0
C2514 C 0.79378 0.34696 0.75769 0.0
H2515 H 0.77751 0.39882 0.77376 0.0
H2516 H 0.77678 0.37846 0.75801 0.0
H2517 H 0.77749 0.37773 0.78343 0.0
H2518 H 0.80908 0.35627 0.80566 0.0
H2519 H 0.79557 0.32441 0.80469 0.0
H2520 H 0.04406 0.84551 0.10558 0.0
H2521 H 0.03933 0.87482 0.09664 0.0
H2522 H 0.05106 0.86032 0.03944 0.0
H2523 H 0.05577 0.83118 0.04818 0.0
H2524 H 0.06275 0.90309 0.08228 0.0
H2525 H 1.00369 0.87642 0.02852 0.0
H2526 H 0.01167 0.86302 0.04595 0.0
H2527 H 0.02262 0.86658 0.02497 0.0
C2528 C 0.04561 0.84849 0.09107 0.0
C2529 C 0.05025 0.83566 0.07765 0.0
C2530 C 0.0429 0.86537 0.08594 0.0
C2531 C 0.04451 0.86995 0.06718 0.0
C2532 C 0.04931 0.85723 0.05387 0.0
H2533 H 0.0273 0.9613 0.00427 0.0
H2534 H 0.03181 0.93239 0.01418 0.0
C2535 C 0.05212 0.84045 0.05899 0.0
C2536 C 0.0415 0.88798 0.06155 0.0
H2537 H 0.01598 0.90746 0.0303 0.0
C2538 C 0.05244 0.90402 0.07098 0.0
C2539 C 0.02824 0.88948 0.04661 0.0
C2540 C 0.01576 0.873 0.03599 0.0
C2541 C 0.05085 0.9212 0.06567 0.0
C2542 C 0.03734 0.92279 0.05093 0.0
C2543 C 0.02635 0.90666 0.04158 0.0
C2544 C 0.03447 0.94083 0.04484 0.0
C2545 C 0.06435 0.93734 0.07549 0.0
C2546 C 0.03399 0.95561 0.05844 0.0
C2547 C 0.03191 0.97241 0.05273 0.0
C2548 C 0.02957 0.97497 0.03316 0.0
C2549 C 0.02923 0.96003 0.01948 0.0
C2550 C 0.03176 0.94333 0.02521 0.0
H2551 H 0.07693 0.93346 0.08089 0.0
H2552 H 0.06744 0.94768 0.06564 0.0
H2553 H 0.0591 0.94339 0.0881 0.0
H2554 H 0.0351 0.95421 0.07362 0.0
H2555 H 0.03185 0.98337 0.06375 0.0
H2556 H 0.93056 0.24992 0.92003 0.0
H2557 H 0.90468 0.25127 0.89768 0.0
H2558 H 0.93886 0.27041 0.85638 0.0
H2559 H 0.9649 0.26859 0.87857 0.0
H2560 H 0.89396 0.27852 0.88346 0.0
H2561 H 0.90414 0.23208 0.82183 0.0
H2562 H 0.91688 0.23416 0.84517 0.0
H2563 H 0.92258 0.25052 0.82892 0.0
C2564 C 0.93265 0.25426 0.90612 0.0
C2565 C 0.94995 0.25903 0.90116 0.0
C2566 C 0.91774 0.25507 0.8933 0.0
C2567 C 0.91957 0.26069 0.87506 0.0
C2568 C 0.93686 0.26555 0.87006 0.0
H2569 H 0.84136 0.28718 0.78842 0.0
H2570 H 0.86848 0.28479 0.8084 0.0
C2571 C 0.95183 0.26461 0.88287 0.0
C2572 C 0.9034 0.26203 0.86178 0.0
H2573 H 0.8812 0.24848 0.81633 0.0
C2574 C 0.89121 0.27185 0.86883 0.0
C2575 C 0.89957 0.25338 0.84256 0.0
C2576 C 0.91138 0.2418 0.8342 0.0
C2577 C 0.8756 0.27332 0.85733 0.0
C2578 C 0.87188 0.26476 0.83818 0.0
C2579 C 0.88404 0.25508 0.831 0.0
C2580 C 0.85532 0.26566 0.82554 0.0
C2581 C 0.86318 0.28419 0.86564 0.0
C2582 C 0.83879 0.25554 0.82827 0.0
C2583 C 0.82322 0.25659 0.81659 0.0
C2584 C 0.8237 0.26801 0.80199 0.0
C2585 C 0.84035 0.27808 0.7993 0.0
C2586 C 0.85593 0.27681 0.8108 0.0
H2587 H 0.86897 0.29188 0.87983 0.0
H2588 H 0.85978 0.29374 0.85562 0.0
H2589 H 0.85067 0.27501 0.86746 0.0
H2590 H 0.83794 0.24676 0.83947 0.0
H2591 H 0.81077 0.24846 0.81904 0.0
H2592 H 0.53268 0.22624 0.59795 0.0
H2593 H 0.52925 0.19364 0.58867 0.0
H2594 H 0.56295 0.20407 0.54444 0.0
H2595 H 0.56649 0.23642 0.55361 0.0
H2596 H 0.51611 0.17108 0.55422 0.0
H2597 H 0.58703 0.16958 0.57279 0.0
H2598 H 0.57769 0.18869 0.58042 0.0
H2599 H 0.58341 0.18547 0.55638 0.0
C2600 C 0.53935 0.22163 0.58621 0.0
C2601 C 0.54995 0.23422 0.57666 0.0
C2602 C 0.53737 0.20288 0.58089 0.0
C2603 C 0.5461 0.1961 0.56602 0.0
C2604 C 0.55636 0.20868 0.55624 0.0
H2605 H 0.55268 0.08796 0.51171 0.0
H2606 H 0.55589 0.12051 0.52083 0.0
C2607 C 0.55827 0.22734 0.56146 0.0
C2608 C 0.54451 0.17604 0.5606 0.0
H2609 H 0.56896 0.143 0.55532 0.0
C2610 C 0.52769 0.16498 0.55461 0.0
C2611 C 0.55952 0.16778 0.56093 0.0
C2612 C 0.57792 0.17843 0.56815 0.0
C2613 C 0.52554 0.14628 0.54864 0.0
C2614 C 0.54057 0.13805 0.5489 0.0
C2615 C 0.55738 0.1491 0.55492 0.0
C2616 C 0.53906 0.11801 0.5435 0.0
C2617 C 0.50712 0.13557 0.54159 0.0
C2618 C 0.52899 0.10543 0.55342 0.0
C2619 C 0.5274 0.0868 0.54842 0.0
C2620 C 0.53569 0.0799 0.53321 0.0
C2621 C 0.54611 0.09252 0.52352 0.0
C2622 C 0.54787 0.11126 0.52869 0.0
H2623 H 0.49796 0.14437 0.53698 0.0
H2624 H 0.5073 0.12526 0.52934 0.0
H2625 H 0.50174 0.12856 0.55343 0.0
H2626 H 0.52242 0.11002 0.56525 0.0
H2627 H 0.5197 0.07776 0.55669 0.0
H2628 H 0.57306 0.79489 0.42463 0.0
H2629 H 0.59739 0.79402 0.40541 0.0
H2630 H 0.56543 0.74881 0.36787 0.0
H2631 H 0.54072 0.74985 0.38691 0.0
H2632 H 0.61596 0.7678 0.39829 0.0
H2633 H 0.58273 0.78148 0.32909 0.0
H2634 H 0.57351 0.7844 0.35142 0.0
H2635 H 0.57151 0.76224 0.33886 0.0
C2636 C 0.57109 0.78478 0.41224 0.0
C2637 C 0.55481 0.77248 0.40733 0.0
C2638 C 0.5851 0.78429 0.40123 0.0
C2639 C 0.5833 0.7715 0.38497 0.0
C2640 C 0.5671 0.75908 0.38006 0.0
H2641 H 0.66071 0.76673 0.30146 0.0
H2642 H 0.63606 0.75697 0.31998 0.0
C2643 C 0.55299 0.75962 0.39105 0.0
C2644 C 0.5986 0.7712 0.37359 0.0
H2645 H 0.61196 0.77686 0.32937 0.0
C2646 C 0.61502 0.76969 0.38318 0.0
C2647 C 0.59747 0.77347 0.35379 0.0
C2648 C 0.58042 0.77564 0.34267 0.0
C2649 C 0.6303 0.77074 0.37374 0.0
C2650 C 0.62934 0.77374 0.35416 0.0
C2651 C 0.61278 0.77456 0.34435 0.0
C2652 C 0.64553 0.77771 0.3441 0.0
C2653 C 0.64733 0.76862 0.38493 0.0
C2654 C 0.65934 0.79233 0.35157 0.0
C2655 C 0.67343 0.79775 0.34112 0.0
C2656 C 0.6741 0.78876 0.32286 0.0
C2657 C 0.66076 0.77363 0.31569 0.0
C2658 C 0.64657 0.7682 0.32618 0.0
H2659 H 0.64467 0.76021 0.39672 0.0
H2660 H 0.65576 0.76243 0.37551 0.0
H2661 H 0.65485 0.78208 0.39159 0.0
H2662 H 0.65875 0.80024 0.36505 0.0
H2663 H 0.6833 0.8097 0.3468 0.0
H2664 H 0.00906 0.25822 0.40926 0.0
H2665 H 0.00929 0.23085 0.42453 0.0
H2666 H 0.05112 0.21915 0.39257 0.0
H2667 H 0.051 0.24669 0.37707 0.0
H2668 H 0.01889 0.18853 0.39411 0.0
H2669 H 0.05154 0.22394 0.46531 0.0
H2670 H 0.03415 0.2333 0.45371 0.0
H2671 H 0.0543 0.23362 0.44314 0.0
C2672 C 0.01839 0.24992 0.40546 0.0
C2673 C 0.03008 0.25479 0.39196 0.0
C2674 C 0.01849 0.23423 0.41424 0.0
C2675 C 0.03031 0.22299 0.40984 0.0
C2676 C 0.04188 0.22761 0.3962 0.0
H2677 H 0.04421 0.13696 0.48167 0.0
H2678 H 0.05055 0.16032 0.46016 0.0
C2679 C 0.04179 0.24337 0.38736 0.0
C2680 C 0.03041 0.20652 0.41968 0.0
H2681 H 0.03849 0.19305 0.46407 0.0
C2682 C 0.02337 0.18948 0.40935 0.0
C2683 C 0.0364 0.2077 0.43952 0.0
C2684 C 0.04466 0.22558 0.45114 0.0
C2685 C 0.02145 0.17372 0.41855 0.0
C2686 C 0.02661 0.17502 0.43863 0.0
C2687 C 0.03442 0.19199 0.44873 0.0
C2688 C 0.02303 0.15924 0.44971 0.0
C2689 C 0.01377 0.15581 0.40673 0.0
C2690 C 0.00549 0.15067 0.45088 0.0
C2691 C 1.00188 0.13747 0.46325 0.0
C2692 C 0.01574 0.13238 0.47456 0.0
C2693 C 0.03332 0.14041 0.47285 0.0
C2694 C 0.03692 0.15381 0.46066 0.0
H2695 H 0.01533 0.15633 0.39128 0.0
H2696 H 0.02016 0.14503 0.41198 0.0
H2697 H 0.99938 0.15219 0.40793 0.0
H2698 H 0.99451 0.15478 0.44292 0.0
H2699 H 0.98821 0.13169 0.46452 0.0
H2700 H 0.58079 0.23032 0.18967 0.0
H2701 H 0.61159 0.23517 0.20363 0.0
H2702 H 0.6034 0.27785 0.24452 0.0
H2703 H 0.57199 0.27265 0.23073 0.0
H2704 H 0.6379 0.26173 0.20486 0.0
H2705 H 0.63004 0.25246 0.28069 0.0
H2706 H 0.61155 0.24694 0.26185 0.0
H2707 H 0.61974 0.26994 0.2723 0.0
C2708 C 0.58533 0.24069 0.20177 0.0
C2709 C 0.57357 0.25103 0.209 0.0
C2710 C 0.60319 0.24349 0.20978 0.0
C2711 C 0.61021 0.25678 0.22541 0.0
C2712 C 0.59851 0.26717 0.23282 0.0
H2713 H 0.72234 0.29612 0.27683 0.0
H2714 H 0.69035 0.29274 0.26705 0.0
C2715 C 0.58044 0.26426 0.22482 0.0
C2716 C 0.62982 0.2599 0.23307 0.0
H2717 H 0.65943 0.26249 0.27376 0.0
C2718 C 0.64246 0.26183 0.21996 0.0
C2719 C 0.63622 0.26007 0.25279 0.0
C2720 C 0.6237 0.25707 0.26772 0.0
C2721 C 0.66087 0.2639 0.22584 0.0
C2722 C 0.66722 0.26407 0.24548 0.0
C2723 C 0.65472 0.26241 0.2587 0.0
C2724 C 0.68674 0.26578 0.25232 0.0
C2725 C 0.67354 0.26605 0.21096 0.0
C2726 C 0.69564 0.25176 0.24757 0.0
C2727 C 0.71399 0.25362 0.25327 0.0
C2728 C 0.72412 0.2696 0.26386 0.0
C2729 C 0.71513 0.28359 0.26871 0.0
C2730 C 0.69673 0.28165 0.26316 0.0
H2731 H 0.66703 0.26865 0.197 0.0
H2732 H 0.68497 0.27729 0.21611 0.0
H2733 H 0.67879 0.25354 0.20851 0.0
H2734 H 0.6884 0.23934 0.23927 0.0
H2735 H 0.72032 0.24265 0.24891 0.0
H2736 H 0.5577 0.84515 0.90867 0.0
H2737 H 0.55866 0.87121 0.93284 0.0
H2738 H 0.51791 0.88792 0.89669 0.0
H2739 H 0.51678 0.86222 0.87286 0.0
H2740 H 0.56556 0.90884 0.93064 0.0
H2741 H 0.49725 0.88683 0.94748 0.0
H2742 H 0.50872 0.87186 0.93459 0.0
H2743 H 0.49808 0.88726 0.92218 0.0
C2744 C 0.54895 0.85438 0.90589 0.0
C2745 C 0.53709 0.85137 0.88873 0.0
C2746 C 0.54951 0.86932 0.91974 0.0
C2747 C 0.5381 0.88148 0.91688 0.0
C2748 C 0.52657 0.87863 0.89961 0.0
H2749 H 0.51244 0.97997 0.96836 0.0
H2750 H 0.5151 0.9523 0.94887 0.0
C2751 C 0.52604 0.86386 0.88584 0.0
C2752 C 0.53812 0.89729 0.93156 0.0
H2753 H 0.51055 0.91784 0.95716 0.0
C2754 C 0.55359 0.91069 0.93664 0.0
C2755 C 0.52256 0.89984 0.93957 0.0
C2756 C 0.50576 0.8856 0.93585 0.0
C2757 C 0.55367 0.9268 0.94859 0.0
C2758 C 0.5379 0.92963 0.956 0.0
C2759 C 0.52262 0.91594 0.95141 0.0
C2760 C 0.53672 0.94684 0.96795 0.0
C2761 C 0.5705 0.94099 0.95249 0.0
C2762 C 0.54779 0.95314 0.98542 0.0
C2763 C 0.54641 0.96918 0.99645 0.0
C2764 C 0.53393 0.97932 0.99032 0.0
C2765 C 0.52263 0.97285 0.97311 0.0
C2766 C 0.52401 0.95686 0.96208 0.0
H2767 H 0.5799 0.93884 0.94199 0.0
H2768 H 0.56761 0.95467 0.95198 0.0
H2769 H 0.57718 0.9404 0.96707 0.0
H2770 H 0.55739 0.94556 0.99069 0.0
H2771 H 0.55517 0.9737 0.00976 0.0
H2772 H 0.97466 0.75415 0.73522 0.0
H2773 H 0.94763 0.75768 0.74989 0.0
H2774 H 0.92155 0.76313 0.69441 0.0
H2775 H 0.94798 0.75957 0.67986 0.0
H2776 H 0.92744 0.78586 0.75137 0.0
H2777 H 0.88543 0.72378 0.71139 0.0
H2778 H 0.90929 0.72822 0.7128 0.0
H2779 H 0.89636 0.73831 0.69587 0.0
C2780 C 0.96316 0.75601 0.72612 0.0
C2781 C 0.96379 0.75639 0.70616 0.0
C2782 C 0.94761 0.7581 0.73457 0.0
C2783 C 0.93211 0.76042 0.72334 0.0
C2784 C 0.93292 0.761 0.70355 0.0
H2785 H 0.8222 0.77112 0.73128 0.0
H2786 H 0.85125 0.76785 0.72245 0.0
C2787 C 0.94831 0.75901 0.69519 0.0
C2788 C 0.91507 0.7623 0.73183 0.0
H2789 H 0.87028 0.74469 0.72631 0.0
C2790 C 0.91498 0.77673 0.74601 0.0
C2791 C 0.89854 0.75055 0.72503 0.0
C2792 C 0.89736 0.73424 0.71058 0.0
C2793 C 0.89905 0.78014 0.75277 0.0
C2794 C 0.88241 0.76855 0.74563 0.0
C2795 C 0.88268 0.75385 0.73185 0.0
C2796 C 0.86457 0.77149 0.75159 0.0
C2797 C 0.90025 0.79669 0.76689 0.0
C2798 C 0.86169 0.77469 0.77104 0.0
C2799 C 0.84489 0.77684 0.77614 0.0
C2800 C 0.83019 0.77553 0.76204 0.0
C2801 C 0.83302 0.77219 0.74266 0.0
C2802 C 0.84982 0.77028 0.73756 0.0
H2803 H 0.91244 0.80688 0.76626 0.0
H2804 H 0.88859 0.80303 0.76416 0.0
H2805 H 0.90081 0.79285 0.78169 0.0
H2806 H 0.87231 0.77512 0.78244 0.0
H2807 H 0.84333 0.77902 0.79123 0.0
H2808 H 0.12462 0.01892 0.83934 0.0
H2809 H 0.1117 0.01279 0.8689 0.0
H2810 H 0.07711 0.04991 0.85858 0.0
H2811 H 0.09004 0.05624 0.82901 0.0
H2812 H 0.10067 0.05336 0.89842 0.0
H2813 H 0.05755 0.98613 0.87265 0.0
H2814 H 0.0793 0.99151 0.86509 0.0
H2815 H 0.06242 0.00303 0.85664 0.0
C2816 C 0.11413 0.02565 0.84323 0.0
C2817 C 0.10836 0.03809 0.83183 0.0
C2818 C 0.10679 0.02213 0.86013 0.0
C2819 C 0.09342 0.03084 0.86584 0.0
C2820 C 0.08745 0.04308 0.8544 0.0
H2821 H 0.0287 0.03485 0.95572 0.0
H2822 H 0.04303 0.03557 0.92656 0.0
C2823 C 0.09486 0.0467 0.83755 0.0
C2824 C 0.08617 0.02772 0.88415 0.0
H2825 H 0.0576 0.99778 0.90497 0.0
C2826 C 0.09137 0.04116 0.89992 0.0
C2827 C 0.07406 0.01178 0.886 0.0
C2828 C 0.06787 0.99722 0.86925 0.0
C2829 C 0.08461 0.03911 0.91749 0.0
C2830 C 0.07232 0.0233 0.91927 0.0
C2831 C 0.06724 0.00976 0.90359 0.0
C2832 C 0.06331 0.02159 0.93672 0.0
C2833 C 0.09028 0.05398 0.93402 0.0
C2834 C 0.06997 0.01336 0.95209 0.0
C2835 C 0.06172 0.01282 0.96893 0.0
C2836 C 0.04667 0.02046 0.97052 0.0
C2837 C 0.04009 0.02858 0.95494 0.0
C2838 C 0.04827 0.02906 0.93823 0.0
H2839 H 0.10102 0.06479 0.93089 0.0
H2840 H 0.07874 0.06 0.93715 0.0
H2841 H 0.09493 0.04842 0.94716 0.0
H2842 H 0.08167 0.00762 0.95116 0.0
H2843 H 0.06716 0.00659 0.9807 0.0
H2844 H 0.78724 0.37094 0.52055 0.0
H2845 H 0.78826 0.35419 0.54829 0.0
H2846 H 0.78092 0.40037 0.58488 0.0
H2847 H 0.77971 0.41725 0.55719 0.0
H2848 H 0.814 0.36625 0.58145 0.0
H2849 H 0.74466 0.35751 0.59919 0.0
H2850 H 0.75047 0.36257 0.57586 0.0
H2851 H 0.75542 0.3799 0.59595 0.0
C2852 C 0.7856 0.37747 0.53443 0.0
C2853 C 0.78337 0.39539 0.53671 0.0
C2854 C 0.78616 0.36788 0.55023 0.0
C2855 C 0.78443 0.37603 0.56847 0.0
C2856 C 0.78192 0.3938 0.57079 0.0
H2857 H 0.80657 0.34034 0.67988 0.0
H2858 H 0.79658 0.35721 0.65448 0.0
C2859 C 0.78133 0.40342 0.55499 0.0
C2860 C 0.78678 0.36635 0.58527 0.0
H2861 H 0.76535 0.34705 0.62027 0.0
C2862 C 0.80338 0.36204 0.58994 0.0
C2863 C 0.77288 0.36113 0.59633 0.0
C2864 C 0.75479 0.36537 0.59159 0.0
C2865 C 0.80645 0.3524 0.60536 0.0
C2866 C 0.79245 0.34673 0.61611 0.0
C2867 C 0.77594 0.35137 0.61179 0.0
C2868 C 0.79497 0.33561 0.6316 0.0
C2869 C 0.82462 0.34827 0.61007 0.0
C2870 C 0.79674 0.31778 0.62701 0.0
C2871 C 0.80245 0.30815 0.64139 0.0
C2872 C 0.80644 0.31625 0.66054 0.0
C2873 C 0.80356 0.33376 0.66523 0.0
C2874 C 0.79785 0.3434 0.6508 0.0
H2875 H 0.83477 0.35647 0.60278 0.0
H2876 H 0.82882 0.35075 0.62583 0.0
H2877 H 0.82417 0.33384 0.60533 0.0
H2878 H 0.79447 0.31163 0.61218 0.0
H2879 H 0.80418 0.29454 0.63746 0.0
H2880 H 0.4003 0.03473 0.34536 0.0
H2881 H 0.42365 0.04092 0.37265 0.0
H2882 H 0.43339 0.98723 0.36116 0.0
H2883 H 0.40995 0.98079 0.33375 0.0
H2884 H 0.4253 0.01725 0.40508 0.0
H2885 H 0.48246 0.02591 0.36254 0.0
H2886 H 0.46076 0.02919 0.35334 0.0
H2887 H 0.46461 0.00685 0.35471 0.0
C2888 C 0.40734 0.0242 0.34871 0.0
C2889 C 0.40341 0.00728 0.3375 0.0
C2890 C 0.42064 0.02779 0.3642 0.0
C2891 C 0.43021 0.01458 0.3685 0.0
C2892 C 0.42612 0.99756 0.3577 0.0
H2893 H 0.51133 1.00249 0.45428 0.0
H2894 H 0.49156 1.0013 0.42445 0.0
C2895 C 0.4127 0.99388 0.34225 0.0
C2896 C 0.44423 0.01846 0.38471 0.0
H2897 H 0.48901 0.02578 0.39612 0.0
C2898 C 0.43925 0.01923 0.40324 0.0
C2899 C 0.46226 0.02107 0.38191 0.0
C2900 C 0.46796 0.02085 0.36207 0.0
C2901 C 0.45201 0.02198 0.41932 0.0
C2902 C 0.47009 0.02439 0.41655 0.0
C2903 C 0.47508 0.02394 0.398 0.0
C2904 C 0.4839 0.02656 0.43287 0.0
C2905 C 0.44602 0.02169 0.43905 0.0
C2906 C 0.48643 0.04148 0.44686 0.0
C2907 C 0.49743 0.04206 0.46386 0.0
C2908 C 0.5062 0.02787 0.4668 0.0
C2909 C 0.50466 0.01356 0.45219 0.0
C2910 C 0.49345 0.01288 0.43526 0.0
H2911 H 0.43165 0.01585 0.43831 0.0
H2912 H 0.4536 0.01382 0.448 0.0
H2913 H 0.44843 0.03567 0.44639 0.0
H2914 H 0.47932 0.05226 0.44496 0.0
H2915 H 0.49869 0.05335 0.47491 0.0
H2916 H 0.75425 0.7214 0.05093 0.0
H2917 H 0.75552 0.73519 0.08409 0.0
H2918 H 0.78362 0.69562 0.10445 0.0
H2919 H 0.7824 0.68168 0.07133 0.0
H2920 H 0.74188 0.71734 0.11582 0.0
H2921 H 0.81439 0.74529 0.12932 0.0
H2922 H 0.80262 0.73878 0.10538 0.0
H2923 H 0.80806 0.72191 0.1197 0.0
C2924 C 0.76082 0.71569 0.06243 0.0
C2925 C 0.76828 0.70047 0.05846 0.0
C2926 C 0.76147 0.72356 0.08137 0.0
C2927 C 0.7698 0.71653 0.09669 0.0
C2928 C 0.77732 0.70139 0.09281 0.0
H2929 H 0.78686 0.74025 0.22015 0.0
H2930 H 0.78602 0.72873 0.18646 0.0
C2931 C 0.77655 0.69341 0.07388 0.0
C2932 C 0.77023 0.72479 0.11676 0.0
H2933 H 0.79827 0.74709 0.15601 0.0
C2934 C 0.75418 0.72397 0.12459 0.0
C2935 C 0.78631 0.73335 0.12815 0.0
C2936 C 0.80385 0.73506 0.12024 0.0
C2937 C 0.75383 0.73115 0.14369 0.0
C2938 C 0.76992 0.73971 0.15509 0.0
C2939 C 0.78595 0.7406 0.14721 0.0
C2940 C 0.77048 0.74715 0.17549 0.0
C2941 C 0.73633 0.72904 0.15173 0.0
C2942 C 0.76227 0.76158 0.18053 0.0
C2943 C 0.7628 0.76833 0.19988 0.0
C2944 C 0.77144 0.76064 0.21452 0.0
C2945 C 0.77992 0.74641 0.20931 0.0
C2946 C 0.77949 0.73979 0.19003 0.0
H2947 H 0.72583 0.71884 0.14254 0.0
H2948 H 0.73768 0.72505 0.16646 0.0
H2949 H 0.73195 0.74211 0.15261 0.0
H2950 H 0.75552 0.76769 0.1695 0.0
H2951 H 0.75642 0.7795 0.20332 0.0
H2952 H 0.12176 0.02209 0.72161 0.0
H2953 H 0.10839 0.02151 0.68836 0.0
H2954 H 0.06577 0.04408 0.70887 0.0
H2955 H 0.07893 0.04466 0.7421 0.0
H2956 H 0.07152 0.00408 0.67101 0.0
H2957 H 0.08736 0.07824 0.66996 0.0
H2958 H 0.09906 0.06703 0.687 0.0
H2959 H 0.07717 0.07039 0.6902 0.0
C2960 C 0.1095 0.02688 0.71906 0.0
C2961 C 0.10145 0.03347 0.73455 0.0
C2962 C 0.10189 0.02653 0.70005 0.0
C2963 C 0.08621 0.03296 0.69616 0.0
C2964 C 0.078 0.03928 0.71156 0.0
H2965 H 0.02514 0.04669 0.58819 0.0
H2966 H 0.03623 0.04742 0.62231 0.0
C2967 C 0.08551 0.03951 0.73055 0.0
C2968 C 0.07835 0.03299 0.67601 0.0
H2969 H 0.06991 0.06084 0.64256 0.0
C2970 C 0.07116 0.01647 0.66477 0.0
C2971 C 0.07782 0.04919 0.66796 0.0
C2972 C 0.08586 0.06727 0.67929 0.0
C2973 C 0.06331 0.0157 0.64571 0.0
C2974 C 0.063 0.03191 0.63751 0.0
C2975 C 0.07006 0.04844 0.64885 0.0
C2976 C 0.0563 0.03189 0.61691 0.0
C2977 C 0.0552 0.99751 0.63463 0.0
C2978 C 0.06414 0.02334 0.60255 0.0
C2979 C 0.05788 0.02289 0.58319 0.0
C2980 C 0.04369 0.03121 0.57756 0.0
C2981 C 0.03607 0.04018 0.59195 0.0
C2982 C 0.04238 0.04057 0.61146 0.0
H2983 H 0.05154 0.98723 0.64442 0.0
H2984 H 0.04318 0.99811 0.62482 0.0
H2985 H 0.065 0.99299 0.62585 0.0
H2986 H 0.07519 0.01697 0.60632 0.0
H2987 H 0.06423 0.01593 0.57262 0.0
H2988 H 0.82185 0.39989 0.45621 0.0
H2989 H 0.81607 0.3752 0.42975 0.0
H2990 H 0.76112 0.37949 0.42118 0.0
H2991 H 0.76666 0.40411 0.44723 0.0
H2992 H 0.78822 0.34123 0.42695 0.0
H2993 H 0.78019 0.38362 0.36795 0.0
H2994 H 0.79159 0.39281 0.39156 0.0
H2995 H 0.76779 0.38717 0.3877 0.0
C2996 C 0.80859 0.39568 0.44854 0.0
C2997 C 0.79472 0.40393 0.45371 0.0
C2998 C 0.80532 0.38155 0.4336 0.0
C2999 C 0.78821 0.37572 0.4237 0.0
C3000 C 0.77441 0.384 0.4287 0.0
H3001 H 0.7479 0.30468 0.31943 0.0
H3002 H 0.74834 0.32216 0.35072 0.0
C3003 C 0.77764 0.39805 0.44355 0.0
C3004 C 0.7846 0.36104 0.40791 0.0
H3005 H 0.7731 0.35223 0.35956 0.0
C3006 C 0.78492 0.34352 0.41217 0.0
C3007 C 0.78016 0.36427 0.38884 0.0
C3008 C 0.78002 0.38299 0.38363 0.0
C3009 C 0.78077 0.32894 0.39761 0.0
C3010 C 0.77654 0.33223 0.37847 0.0
C3011 C 0.77611 0.34977 0.37433 0.0
C3012 C 0.77425 0.31821 0.36205 0.0
C3013 C 0.78085 0.31023 0.40284 0.0
C3014 C 0.78845 0.3099 0.35846 0.0
C3015 C 0.78812 0.29987 0.3408 0.0
C3016 C 0.77374 0.29838 0.32648 0.0
C3017 C 0.75915 0.30592 0.33035 0.0
C3018 C 0.75935 0.3157 0.34816 0.0
H3019 H 0.77822 0.30921 0.41794 0.0
H3020 H 0.77081 0.29997 0.39316 0.0
H3021 H 0.79412 0.30707 0.40151 0.0
H3022 H 0.80027 0.31213 0.36878 0.0
H3023 H 0.79955 0.2942 0.33795 0.0
H3024 H 0.40041 0.03948 0.24013 0.0
H3025 H 0.41714 0.04032 0.21241 0.0
H3026 H 0.44761 0.00384 0.23581 0.0
H3027 H 0.43112 0.00297 0.26357 0.0
H3028 H 0.46626 0.03903 0.21896 0.0
H3029 H 0.41065 0.99118 0.17276 0.0
H3030 H 0.40611 0.00912 0.18898 0.0
H3031 H 0.41396 0.9907 0.19844 0.0
C3032 C 0.41081 0.0318 0.23944 0.0
C3033 C 0.41453 0.02118 0.25394 0.0
C3034 C 0.42032 0.03235 0.22369 0.0
C3035 C 0.43351 0.02218 0.2223 0.0
C3036 C 0.43754 0.01189 0.23691 0.0
H3037 H 0.50244 0.98504 0.15078 0.0
H3038 H 0.48935 0.99873 0.17723 0.0
C3039 C 0.42813 0.01142 0.2527 0.0
C3040 C 0.4424 0.02118 0.205 0.0
H3041 H 0.43765 0.99807 0.16032 0.0
C3042 C 0.46001 0.03033 0.20597 0.0
C3043 C 0.434 0.00985 0.18823 0.0
C3044 C 0.41514 0.99958 0.18687 0.0
C3045 C 0.46976 0.02792 0.19058 0.0
C3046 C 0.46165 0.01583 0.1742 0.0
C3047 C 0.44377 0.00735 0.17296 0.0
C3048 C 0.47164 0.01043 0.15876 0.0
C3049 C 0.48866 0.03805 0.19206 0.0
C3050 C 0.46587 0.01242 0.13976 0.0
C3051 C 0.47294 0.00426 0.1247 0.0
C3052 C 0.48601 0.99404 0.12839 0.0
C3053 C 0.49225 0.99264 0.14751 0.0
C3054 C 0.48504 1.00073 0.16261 0.0
H3055 H 0.4912 0.05026 0.20278 0.0
H3056 H 0.49774 0.02921 0.19672 0.0
H3057 H 0.49185 0.04211 0.17791 0.0
H3058 H 0.45535 0.01966 0.13658 0.0
H3059 H 0.46763 0.00539 0.11013 0.0
H3060 H 0.79136 0.69408 0.96538 0.0
H3061 H 0.79819 0.71017 0.9378 0.0
H3062 H 0.74263 0.70944 0.92279 0.0
H3063 H 0.7356 0.69324 0.95021 0.0
H3064 H 0.7816 0.69637 0.89696 0.0
H3065 H 0.77004 0.76362 0.92428 0.0
H3066 H 0.77512 0.74748 0.94006 0.0
H3067 H 0.75331 0.74453 0.92719 0.0
C3068 C 0.78059 0.69747 0.95632 0.0
C3069 C 0.76291 0.69238 0.96 0.0
C3070 C 0.78453 0.70663 0.94057 0.0
C3071 C 0.77092 0.71107 0.92841 0.0
C3072 C 0.75332 0.70627 0.93217 0.0
H3073 H 0.75681 0.76443 0.82838 0.0
H3074 H 0.75539 0.75067 0.85823 0.0
C3075 C 0.74933 0.69697 0.94781 0.0
C3076 C 0.77493 0.72001 0.91122 0.0
H3077 H 0.77372 0.7588 0.89136 0.0
C3078 C 0.78004 0.71007 0.89569 0.0
C3079 C 0.77283 0.73783 0.90975 0.0
C3080 C 0.76765 0.74911 0.92623 0.0
C3081 C 0.78229 0.7172 0.87827 0.0
C3082 C 0.77997 0.73503 0.87662 0.0
C3083 C 0.77545 0.74514 0.89251 0.0
C3084 C 0.78103 0.74312 0.85829 0.0
C3085 C 0.78627 0.70518 0.86159 0.0
C3086 C 0.7959 0.74353 0.84829 0.0
C3087 C 0.79636 0.75077 0.8308 0.0
C3088 C 0.78232 0.75838 0.82354 0.0
C3089 C 0.76775 0.75854 0.83378 0.0
C3090 C 0.767 0.75076 0.85085 0.0
H3091 H 0.78253 0.69071 0.8635 0.0
H3092 H 0.77913 0.70733 0.84779 0.0
H3093 H 0.80072 0.70822 0.86064 0.0
H3094 H 0.80721 0.7384 0.85404 0.0
H3095 H 0.8079 0.75094 0.82328 0.0
H3096 H 0.80864 0.08753 0.06525 0.0
H3097 H 0.83313 0.07146 0.0646 0.0
H3098 H 0.86171 0.113 0.03563 0.0
H3099 H 0.83775 0.12946 0.03715 0.0
H3100 H 0.84081 0.05814 0.03207 0.0
H3101 H 0.90174 0.10266 0.06972 0.0
H3102 H 0.87995 0.10666 0.07318 0.0
H3103 H 0.89076 0.11471 0.05332 0.0
C3104 C 0.82044 0.09342 0.05929 0.0
C3105 C 0.82146 0.10961 0.05119 0.0
C3106 C 0.83439 0.08433 0.05903 0.0
C3107 C 0.84933 0.09122 0.05041 0.0
C3108 C 0.85061 0.10779 0.04301 0.0
H3109 H 0.9136 0.05755 0.97467 0.0
H3110 H 0.89613 0.07207 0.99622 0.0
C3111 C 0.83684 0.11708 0.04366 0.0
C3112 C 0.86194 0.07976 0.0458 0.0
H3113 H 0.90576 0.08182 0.04209 0.0
C3114 C 0.85505 0.06302 0.03484 0.0
C3115 C 0.88047 0.0862 0.04943 0.0
C3116 C 0.88861 0.10347 0.06225 0.0
C3117 C 0.86616 0.05324 0.02602 0.0
C3118 C 0.88449 0.06048 0.02829 0.0
C3119 C 0.89158 0.07653 0.04033 0.0
C3120 C 0.89604 0.05248 0.01646 0.0
C3121 C 0.8582 0.03588 0.01322 0.0
C3122 C 0.90148 0.03675 0.02091 0.0
C3123 C 0.91121 0.02839 0.00859 0.0
C3124 C 0.91551 0.03569 0.99173 0.0
C3125 C 0.91009 0.05153 0.9874 0.0
C3126 C 0.90042 0.05993 -0.00023 0.0
H3127 H 0.84351 0.0325 0.01238 0.0
H3128 H 0.86184 0.03687 0.99847 0.0
H3129 H 0.86365 0.02468 0.0188 0.0
H3130 H 0.89801 0.03088 0.03373 0.0
H3131 H 0.91535 0.01619 0.01219 0.0
H3132 H 0.3602 0.40414 0.06253 0.0
H3133 H 0.3884 0.42363 0.05917 0.0
H3134 H 0.36113 0.45248 0.02017 0.0
H3135 H 0.33282 0.43325 0.02368 0.0
H3136 H 0.40458 0.42839 0.02658 0.0
H3137 H 0.39095 0.49326 0.05829 0.0
H3138 H 0.37737 0.4718 0.06083 0.0
H3139 H 0.37463 0.4817 0.03887 0.0
C3140 C 0.36015 0.41472 0.05335 0.0
C3141 C 0.34419 0.41718 0.04347 0.0
C3142 C 0.37631 0.42584 0.05142 0.0
C3143 C 0.37688 0.4397 0.03964 0.0
C3144 C 0.361 0.44215 0.02968 0.0
H3145 H 0.46529 0.51518 0.00625 0.0
H3146 H 0.4359 0.49747 0.009 0.0
C3147 C 0.34481 0.43106 0.03164 0.0
C3148 C 0.39418 0.45119 0.03736 0.0
H3149 H 0.41729 0.49472 0.04351 0.0
C3150 C 0.40736 0.44288 0.03033 0.0
C3151 C 0.39781 0.47013 0.04221 0.0
C3152 C 0.38452 0.47977 0.05064 0.0
C3153 C 0.42398 0.45297 0.02792 0.0
C3154 C 0.42762 0.47187 0.03285 0.0
C3155 C 0.41442 0.48023 0.03969 0.0
C3156 C 0.44527 0.48306 0.0316 0.0
C3157 C 0.43752 0.44338 0.01994 0.0
C3158 C 0.46018 0.48107 0.04366 0.0
C3159 C 0.47691 0.49131 0.04233 0.0
C3160 C 0.4791 0.50374 0.02883 0.0
C3161 C 0.46406 0.50589 0.01694 0.0
C3162 C 0.44727 0.49572 0.01841 0.0
H3163 H 0.43136 0.42966 0.01271 0.0
H3164 H 0.44451 0.45116 0.0095 0.0
H3165 H 0.44755 0.44207 0.03188 0.0
H3166 H 0.45888 0.47155 0.05412 0.0
H3167 H 0.48815 0.48935 0.05179 0.0
H3168 H 0.3938 0.55913 0.78215 0.0
H3169 H 0.37913 0.58447 0.78849 0.0
H3170 H 0.3772 0.59303 0.72883 0.0
H3171 H 0.39198 0.56772 0.72225 0.0
H3172 H 0.39134 0.62358 0.77682 0.0
H3173 H 0.32396 0.58513 0.74599 0.0
H3174 H 0.34097 0.57414 0.7559 0.0
H3175 H 0.34253 0.58265 0.7332 0.0
C3176 C 0.39031 0.5664 0.77034 0.0
C3177 C 0.39401 0.56133 0.75165 0.0
C3178 C 0.38199 0.5809 0.77404 0.0
C3179 C 0.37711 0.59053 0.75912 0.0
C3180 C 0.38087 0.58568 0.74049 0.0
H3181 H 0.312 0.6723 0.75876 0.0
H3182 H 0.33177 0.65218 0.74921 0.0
C3183 C 0.38928 0.57121 0.73678 0.0
C3184 C 0.36765 0.60536 0.76302 0.0
H3185 H 0.32638 0.61533 0.75864 0.0
C3186 C 0.37716 0.62187 0.77277 0.0
C3187 C 0.34918 0.60299 0.75769 0.0
C3188 C 0.33842 0.58528 0.74767 0.0
C3189 C 0.36858 0.63612 0.77742 0.0
C3190 C 0.35005 0.63362 0.77238 0.0
C3191 C 0.34062 0.6172 0.76236 0.0
C3192 C 0.33993 0.64745 0.77826 0.0
C3193 C 0.37935 0.65373 0.78763 0.0
C3194 C 0.33815 0.65151 0.79774 0.0
C3195 C 0.32673 0.66274 0.80315 0.0
C3196 C 0.31705 0.6702 0.78918 0.0
C3197 C 0.31942 0.66676 0.76977 0.0
C3198 C 0.33064 0.65529 0.76432 0.0
H3199 H 0.3937 0.65498 0.78634 0.0
H3200 H 0.37472 0.66529 0.78179 0.0
H3201 H 0.37768 0.65456 0.80313 0.0
H3202 H 0.34505 0.64542 0.80867 0.0
H3203 H 0.32515 0.66531 0.81822 0.0
H3204 H 0.21344 0.59924 0.5789 0.0
H3205 H 0.18122 0.58933 0.57096 0.0
H3206 H 0.18782 0.57432 0.51186 0.0
H3207 H 0.21983 0.58392 0.51958 0.0
H3208 H 0.16064 0.60431 0.53989 0.0
H3209 H 0.15523 0.52993 0.52913 0.0
H3210 H 0.1741 0.54495 0.54313 0.0
H3211 H 0.17171 0.54316 0.51736 0.0
C3212 C 0.20802 0.59346 0.56433 0.0
C3213 C 0.21904 0.59238 0.54982 0.0
C3214 C 0.18971 0.58799 0.55982 0.0
C3215 C 0.1824 0.58125 0.54086 0.0
C3216 C 0.19339 0.57947 0.52657 0.0
H3217 H 0.07521 0.52889 0.50171 0.0
H3218 H 0.10411 0.54664 0.49779 0.0
C3219 C 0.21161 0.58494 0.53102 0.0
C3220 C 0.16321 0.57656 0.53574 0.0
H3221 H 0.12924 0.54082 0.5223 0.0
C3222 C 0.15367 0.59047 0.53595 0.0
C3223 C 0.15447 0.55854 0.53029 0.0
C3224 C 0.16433 0.54322 0.53004 0.0
C3225 C 0.13525 0.58668 0.53115 0.0
C3226 C 0.12639 0.56855 0.52646 0.0
C3227 C 0.13612 0.55476 0.52565 0.0
C3228 C 0.10709 0.56303 0.52534 0.0
C3229 C 0.1255 0.60205 0.53137 0.0
C3230 C 0.09893 0.56707 0.54166 0.0
C3231 C 0.08227 0.55731 0.54357 0.0
C3232 C 0.07378 0.54344 0.52926 0.0
C3233 C 0.08136 0.54008 0.51247 0.0
C3234 C 0.09785 0.55011 0.51032 0.0
H3235 H 0.13391 0.61433 0.52744 0.0
H3236 H 0.11298 0.5986 0.52134 0.0
H3237 H 0.12228 0.60534 0.54613 0.0
H3238 H 0.10603 0.57656 0.55367 0.0
H3239 H 0.07653 0.5598 0.55674 0.0
H3240 H 0.67388 0.96619 0.76027 0.0
H3241 H 0.68888 0.94085 0.76117 0.0
H3242 H 0.73188 0.9698 0.73505 0.0
H3243 H 0.71719 0.99551 0.73461 0.0
H3244 H 0.70056 0.91982 0.73221 0.0
H3245 H 0.75596 0.95917 0.78584 0.0
H3246 H 0.73582 0.96715 0.77991 0.0
H3247 H 0.75214 0.96815 0.76349 0.0
C3248 C 0.68645 0.96709 0.75458 0.0
C3249 C 0.69451 0.98276 0.74754 0.0
C3250 C 0.69494 0.95263 0.75502 0.0
C3251 C 0.71146 0.95364 0.74828 0.0
C3252 C 0.71922 0.96899 0.74052 0.0
H3253 H 0.77602 0.87834 0.78315 0.0
H3254 H 0.76521 0.89795 0.76138 0.0
C3255 C 0.71084 0.98358 0.7403 0.0
C3256 C 0.72091 0.93898 0.75078 0.0
H3257 H 0.75466 0.92831 0.77926 0.0
C3258 C 0.71262 0.92164 0.74216 0.0
C3259 C 0.73661 0.94161 0.76378 0.0
C3260 C 0.74565 0.95997 0.77392 0.0
C3261 C 0.71904 0.90658 0.7472 0.0
C3262 C 0.73406 0.90914 0.76107 0.0
C3263 C 0.74315 0.92656 0.76853 0.0
C3264 C 0.73906 0.89421 0.77042 0.0
C3265 C 0.70925 0.88807 0.73842 0.0
C3266 C 0.72772 0.8855 0.78238 0.0
C3267 C 0.73383 0.87433 0.79487 0.0
C3268 C 0.75136 0.87184 0.79553 0.0
C3269 C 0.76237 0.87987 0.78277 0.0
C3270 C 0.75625 0.89103 0.77033 0.0
H3271 H 0.70156 0.88851 0.72431 0.0
H3272 H 0.71856 0.8788 0.73645 0.0
H3273 H 0.69978 0.88254 0.74816 0.0
H3274 H 0.71451 0.8882 0.7829 0.0
H3275 H 0.72508 0.86815 0.80444 0.0
H3276 H 0.75213 0.92779 0.55012 0.0
H3277 H 0.72819 0.94473 0.55113 0.0
H3278 H 0.69886 0.90997 0.5015 0.0
H3279 H 0.72223 0.89261 0.501 0.0
H3280 H 0.71568 0.96414 0.52706 0.0
H3281 H 0.66036 0.90919 0.53438 0.0
H3282 H 0.68312 0.90658 0.53764 0.0
H3283 H 0.67076 0.90292 0.51392 0.0
C3284 C 0.74049 0.92371 0.53952 0.0
C3285 C 0.73901 0.90879 0.52553 0.0
C3286 C 0.7268 0.93337 0.54015 0.0
C3287 C 0.71143 0.92837 0.52671 0.0
C3288 C 0.71019 0.91371 0.51251 0.0
H3289 H 0.63093 0.97043 0.47049 0.0
H3290 H 0.65272 0.95397 0.48371 0.0
C3291 C 0.72369 0.90389 0.51209 0.0
C3292 C 0.69718 0.93906 0.52652 0.0
H3293 H 0.65211 0.93449 0.5194 0.0
C3294 C 0.7018 0.95771 0.52583 0.0
C3295 C 0.67901 0.93081 0.52533 0.0
C3296 C 0.67307 0.91131 0.5281 0.0
C3297 C 0.68876 0.96798 0.52239 0.0
C3298 C 0.67069 0.95935 0.5194 0.0
C3299 C 0.66602 0.94099 0.52135 0.0
C3300 C 0.65668 0.96873 0.5122 0.0
C3301 C 0.69437 0.98782 0.52095 0.0
C3302 C 0.65147 0.98226 0.52397 0.0
C3303 C 0.63895 0.99166 0.51645 0.0
C3304 C 0.63161 0.98777 0.49699 0.0
C3305 C 0.63659 0.97393 0.48542 0.0
C3306 C 0.64892 0.96444 0.49299 0.0
H3307 H 0.709 0.99216 0.52194 0.0
H3308 H 0.68824 0.99115 0.50716 0.0
H3309 H 0.68967 0.99566 0.5328 0.0
H3310 H 0.65723 0.98567 0.53888 0.0
H3311 H 0.63531 1.00224 0.5257 0.0
H3312 H 0.36953 0.4743 0.7616 0.0
H3313 H 0.34843 0.44641 0.76387 0.0
H3314 H 0.38677 0.41527 0.7477 0.0
H3315 H 0.40788 0.44298 0.74517 0.0
H3316 H 0.33793 0.41257 0.73105 0.0
H3317 H 0.36922 0.40204 0.80281 0.0
H3318 H 0.37123 0.42411 0.79493 0.0
H3319 H 0.38349 0.40848 0.78496 0.0
C3320 C 0.37346 0.46152 0.75847 0.0
C3321 C 0.39041 0.46087 0.75324 0.0
C3322 C 0.36138 0.44563 0.75974 0.0
C3323 C 0.36612 0.42887 0.75604 0.0
C3324 C 0.38293 0.42813 0.75066 0.0
H3325 H 0.31399 0.31804 0.74156 0.0
H3326 H 0.33088 0.348 0.73899 0.0
C3327 C 0.39495 0.44398 0.7492 0.0
C3328 C 0.35361 0.41208 0.75801 0.0
H3329 H 0.34578 0.37899 0.78716 0.0
C3330 C 0.33954 0.40526 0.74335 0.0
C3331 C 0.35579 0.40268 0.7741 0.0
C3332 C 0.37068 0.40965 0.79022 0.0
C3333 C 0.32776 0.38897 0.74422 0.0
C3334 C 0.33014 0.37941 0.76016 0.0
C3335 C 0.34398 0.38644 0.77501 0.0
C3336 C 0.31904 0.36153 0.76114 0.0
C3337 C 0.31293 0.38195 0.72806 0.0
C3338 C 0.30678 0.35926 0.77449 0.0
C3339 C 0.29698 0.34211 0.77595 0.0
C3340 C 0.29952 0.32698 0.76426 0.0
C3341 C 0.31173 0.32941 0.75081 0.0
C3342 C 0.32135 0.34652 0.74925 0.0
H3343 H 0.31101 0.39234 0.71848 0.0
H3344 H 0.31607 0.37029 0.7193 0.0
H3345 H 0.30031 0.3772 0.73389 0.0
H3346 H 0.30492 0.37073 0.78387 0.0
H3347 H 0.28778 0.34064 0.78655 0.0
H3348 H 0.21595 0.57966 0.27504 0.0
H3349 H 0.23133 0.61063 0.28509 0.0
H3350 H 0.20479 0.62742 0.23516 0.0
H3351 H 0.18906 0.59638 0.22495 0.0
H3352 H 0.2534 0.63132 0.26184 0.0
H3353 H 0.19721 0.6621 0.28196 0.0
H3354 H 0.19641 0.63812 0.28017 0.0
H3355 H 0.19315 0.64879 0.25882 0.0
C3356 C 0.21335 0.58992 0.26617 0.0
C3357 C 0.20134 0.5857 0.24921 0.0
C3358 C 0.22205 0.60753 0.27201 0.0
C3359 C 0.21882 0.62106 0.261 0.0
C3360 C 0.20702 0.61699 0.24397 0.0
H3361 H 0.25702 0.72184 0.2371 0.0
H3362 H 0.24376 0.69085 0.24112 0.0
C3363 C 0.19822 0.59933 0.2381 0.0
C3364 C 0.22879 0.63932 0.26662 0.0
H3365 H 0.22372 0.68235 0.27719 0.0
C3366 C 0.24708 0.64249 0.26569 0.0
C3367 C 0.22027 0.65358 0.27166 0.0
C3368 C 0.20069 0.65051 0.2734 0.0
C3369 C 0.257 0.66 0.26836 0.0
C3370 C 0.24825 0.6743 0.27221 0.0
C3371 C 0.23021 0.67109 0.27439 0.0
C3372 C 0.25672 0.69253 0.27021 0.0
C3373 C 0.27637 0.66328 0.26562 0.0
C3374 C 0.26847 0.70317 0.28523 0.0
C3375 C 0.27611 0.72072 0.28287 0.0
C3376 C 0.27184 0.72738 0.26557 0.0
C3377 C 0.26039 0.7166 0.25046 0.0
C3378 C 0.25281 0.69915 0.25279 0.0
H3379 H 0.28126 0.65055 0.26316 0.0
H3380 H 0.27848 0.67086 0.25311 0.0
H3381 H 0.2844 0.67165 0.27849 0.0
H3382 H 0.27152 0.69798 0.29868 0.0
H3383 H 0.28501 0.72911 0.29454 0.0
H3384 H 0.52987 0.72416 0.48947 0.0
H3385 H 0.52987 0.69384 0.498 0.0
H3386 H 0.49307 0.67147 0.44745 0.0
H3387 H 0.49299 0.70199 0.4388 0.0
H3388 H 0.50343 0.6663 0.50593 0.0
H3389 H 0.53223 0.6428 0.44153 0.0
H3390 H 0.53196 0.66623 0.44814 0.0
H3391 H 0.51219 0.65105 0.43655 0.0
C3392 C 0.52167 0.71286 0.48011 0.0
C3393 C 0.51148 0.71579 0.46331 0.0
C3394 C 0.52169 0.69537 0.48507 0.0
C3395 C 0.51175 0.68001 0.4733 0.0
C3396 C 0.5012 0.68287 0.45671 0.0
H3397 H 0.50783 0.5634 0.47708 0.0
H3398 H 0.50439 0.59301 0.46862 0.0
C3399 C 0.50102 0.70045 0.45183 0.0
C3400 C 0.5126 0.66125 0.47852 0.0
H3401 H 0.52442 0.62153 0.46284 0.0
C3402 C 0.50802 0.65653 0.49645 0.0
C3403 C 0.5185 0.6482 0.46632 0.0
C3404 C 0.52415 0.65229 0.44712 0.0
C3405 C 0.50883 0.63936 0.5023 0.0
C3406 C 0.51513 0.62639 0.49028 0.0
C3407 C 0.51963 0.63115 0.47228 0.0
C3408 C 0.51704 0.60791 0.49589 0.0
C3409 C 0.50227 0.63524 0.52111 0.0
C3410 C 0.52537 0.60577 0.5141 0.0
C3411 C 0.52684 0.58859 0.5192 0.0
C3412 C 0.52084 0.57286 0.50606 0.0
C3413 C 0.51278 0.57502 0.48773 0.0
C3414 C 0.51086 0.59214 0.48279 0.0
H3415 H 0.49243 0.64345 0.52496 0.0
H3416 H 0.49602 0.62081 0.52059 0.0
H3417 H 0.5136 0.63865 0.53276 0.0
H3418 H 0.53089 0.61742 0.52451 0.0
H3419 H 0.53263 0.58771 0.53357 0.0
H3420 H 0.617 0.26771 0.62074 0.0
H3421 H 0.64346 0.26795 0.64275 0.0
H3422 H 0.62505 0.30159 0.6859 0.0
H3423 H 0.59807 0.30111 0.66384 0.0
H3424 H 0.67014 0.29395 0.6592 0.0
H3425 H 0.63662 0.26287 0.7171 0.0
H3426 H 0.62493 0.26365 0.69376 0.0
H3427 H 0.62998 0.28325 0.7114 0.0
C3428 C 0.61844 0.27519 0.6349 0.0
C3429 C 0.60517 0.28432 0.64041 0.0
C3430 C 0.63373 0.27532 0.64755 0.0
C3431 C 0.63635 0.28451 0.66626 0.0
C3432 C 0.62331 0.29399 0.67177 0.0
H3433 H 0.72997 0.29953 0.75436 0.0
H3434 H 0.70238 0.3026 0.73535 0.0
C3435 C 0.60789 0.29386 0.65904 0.0
C3436 C 0.65287 0.28416 0.67957 0.0
H3437 H 0.66786 0.27209 0.72305 0.0
C3438 C 0.66955 0.28917 0.67316 0.0
C3439 C 0.65236 0.2779 0.69788 0.0
C3440 C 0.63503 0.27145 0.70543 0.0
C3441 C 0.68546 0.28806 0.68433 0.0
C3442 C 0.68491 0.28169 0.70249 0.0
C3443 C 0.66834 0.27698 0.70914 0.0
C3444 C 0.70141 0.2795 0.71448 0.0
C3445 C 0.70289 0.29375 0.67669 0.0
C3446 C 0.71005 0.26538 0.70931 0.0
C3447 C 0.72565 0.26345 0.72037 0.0
C3448 C 0.73313 0.27573 0.73671 0.0
C3449 C 0.72446 0.2898 0.74193 0.0
C3450 C 0.70872 0.2916 0.73102 0.0
H3451 H 0.7014 0.30075 0.6637 0.0
H3452 H 0.71255 0.30281 0.68791 0.0
H3453 H 0.70849 0.28168 0.67289 0.0
H3454 H 0.70466 0.25579 0.69673 0.0
H3455 H 0.73182 0.25228 0.7162 0.0
H3456 H 0.98845 0.32899 0.92823 0.0
H3457 H 0.99225 0.35999 0.94289 0.0
H3458 H 0.02546 0.34864 0.9912 0.0
H3459 H 0.02174 0.31718 0.97637 0.0
H3460 H 0.98396 0.37499 0.97738 0.0
H3461 H 0.05666 0.39312 0.97541 0.0
H3462 H 0.04321 0.37263 0.96244 0.0
H3463 H 0.04911 0.3743 0.98799 0.0
C3464 C 0.99658 0.33292 0.94201 0.0
C3465 C 0.00486 0.32034 0.95095 0.0
C3466 C 0.99872 0.35083 0.95045 0.0
C3467 C 0.00938 0.35704 0.9681 0.0
C3468 C 0.01742 0.34446 0.9774 0.0
H3469 H 0.04321 0.46955 0.02485 0.0
H3470 H 0.03903 0.43685 0.01658 0.0
C3471 C 0.01515 0.32635 0.96897 0.0
C3472 C 0.01188 0.37664 0.97634 0.0
H3473 H 0.04286 0.41599 0.98764 0.0
C3474 C 0.99688 0.38391 0.9797 0.0
C3475 C 0.02869 0.3885 0.9796 0.0
C3476 C 0.04537 0.38187 0.97607 0.0
C3477 C 0.99816 0.40238 0.98613 0.0
C3478 C 0.01491 0.41445 0.98865 0.0
C3479 C 0.02996 0.40707 0.98568 0.0
C3480 C 0.01712 0.43464 0.99409 0.0
C3481 C 0.98147 0.40857 0.99062 0.0
C3482 C 0.00647 0.44482 0.98425 0.0
C3483 C 0.00868 0.46357 0.98925 0.0
C3484 C 0.0219 0.4729 0.00395 0.0
C3485 C 0.03286 0.46287 0.01348 0.0
C3486 C 0.03046 0.44407 0.0087 0.0
H3487 H 0.97169 0.39742 0.99479 0.0
H3488 H 0.98428 0.41988 0.00246 0.0
H3489 H 0.9752 0.41309 0.97759 0.0
H3490 H 0.99655 0.43837 0.9724 0.0
H3491 H 1.00029 0.47084 0.98123 0.0
H3492 H 0.99298 0.74753 0.13813 0.0
H3493 H 0.96738 0.74977 0.15515 0.0
H3494 H 0.98449 0.8074 0.16552 0.0
H3495 H 0.01043 0.80532 0.14852 0.0
H3496 H 0.97149 0.77365 0.1983 0.0
H3497 H 0.92709 0.78873 0.13725 0.0
H3498 H 0.94351 0.7753 0.1329 0.0
H3499 H 0.95044 0.79886 0.14104 0.0
C3500 C 0.99142 0.76074 0.14402 0.0
C3501 C 1.00393 0.77624 0.14194 0.0
C3502 C 0.97669 0.76197 0.15375 0.0
C3503 C 0.97391 0.77873 0.16155 0.0
C3504 C 0.98631 0.7943 0.15957 0.0
H3505 H 0.89623 0.79314 0.24191 0.0
H3506 H 0.92075 0.79936 0.22241 0.0
C3507 C 1.00119 0.79308 0.14991 0.0
C3508 C 0.95823 0.77961 0.1721 0.0
H3509 H 0.91461 0.7833 0.16583 0.0
C3510 C 0.95913 0.776 0.19129 0.0
C3511 C 0.94205 0.78255 0.16292 0.0
C3512 C 0.94051 0.7866 0.14238 0.0
C3513 C 0.94424 0.77492 0.20141 0.0
C3514 C 0.92791 0.77749 0.19214 0.0
C3515 C 0.92707 0.78134 0.17298 0.0
C3516 C 0.91154 0.77538 0.20204 0.0
C3517 C 0.9459 0.77042 0.22181 0.0
C3518 C 0.89773 0.76024 0.19666 0.0
C3519 C 0.88363 0.75675 0.20775 0.0
C3520 C 0.88296 0.76844 0.2243 0.0
C3521 C 0.89626 0.78407 0.22905 0.0
C3522 C 0.91035 0.78755 0.218 0.0
H3523 H 0.95858 0.76616 0.22594 0.0
H3524 H 0.94531 0.78246 0.23178 0.0
H3525 H 0.93473 0.7595 0.22373 0.0
H3526 H 0.89834 0.75061 0.18448 0.0
H3527 H 0.87378 0.74441 0.20399 0.0
H3528 H 0.54925 0.31796 0.1781 0.0
H3529 H 0.54803 0.3424 0.15847 0.0
H3530 H 0.50196 0.31027 0.123 0.0
H3531 H 0.50297 0.28564 0.14286 0.0
H3532 H 0.55079 0.34349 0.12042 0.0
H3533 H 0.48537 0.35722 0.13582 0.0
H3534 H 0.49693 0.34325 0.14957 0.0
H3535 H 0.48503 0.3344 0.12625 0.0
C3536 C 0.53878 0.31602 0.16618 0.0
C3537 C 0.52616 0.29976 0.16219 0.0
C3538 C 0.53812 0.33007 0.15491 0.0
C3539 C 0.52474 0.32841 0.13938 0.0
C3540 C 0.5122 0.31211 0.13514 0.0
H3541 H 0.51316 0.39766 0.04963 0.0
H3542 H 0.50892 0.3737 0.0705 0.0
C3543 C 0.51289 0.29795 0.14642 0.0
C3544 C 0.52443 0.34365 0.12752 0.0
H3545 H 0.49951 0.37373 0.11291 0.0
C3546 C 0.53958 0.3501 0.11888 0.0
C3547 C 0.50981 0.35237 0.12539 0.0
C3548 C 0.49341 0.3466 0.13486 0.0
C3549 C 0.54048 0.36484 0.1082 0.0
C3550 C 0.52597 0.37362 0.10621 0.0
C3551 C 0.51071 0.3671 0.1146 0.0
C3552 C 0.52639 0.38917 0.09484 0.0
C3553 C 0.55691 0.37085 0.09883 0.0
C3554 C 0.53712 0.40612 0.1018 0.0
C3555 C 0.53937 0.41997 0.08994 0.0
C3556 C 0.53106 0.41701 0.07086 0.0
C3557 C 0.51962 0.40035 0.06431 0.0
C3558 C 0.51723 0.38663 0.07621 0.0
H3559 H 0.566 0.3612 0.09952 0.0
H3560 H 0.55323 0.37244 0.08352 0.0
H3561 H 0.56414 0.38416 0.1062 0.0
H3562 H 0.54431 0.40839 0.11615 0.0
H3563 H 0.54844 0.43256 0.09527 0.0
H3564 H 0.97192 0.30697 0.36342 0.0
H3565 H 0.94118 0.30348 0.34974 0.0
H3566 H 0.95353 0.28129 0.29532 0.0
H3567 H 0.98479 0.2846 0.30918 0.0
H3568 H 0.92555 0.31816 0.32111 0.0
H3569 H 0.91046 0.2439 0.30219 0.0
H3570 H 0.93047 0.25555 0.31721 0.0
H3571 H 0.92864 0.25577 0.2916 0.0
C3572 C 0.96829 0.30128 0.3485 0.0
C3573 C 0.98118 0.29604 0.33754 0.0
C3574 C 0.95049 0.29932 0.34063 0.0
C3575 C 0.9446 0.29191 0.32145 0.0
C3576 C 0.9574 0.28674 0.31027 0.0
H3577 H 0.83676 0.28978 0.26124 0.0
H3578 H 0.869 0.29319 0.26897 0.0
C3579 C 0.97542 0.28877 0.31819 0.0
C3580 C 0.92519 0.28998 0.3136 0.0
H3581 H 0.88723 0.25917 0.29494 0.0
C3582 C 0.91729 0.30523 0.31525 0.0
C3583 C 0.91403 0.27317 0.30599 0.0
C3584 C 0.92122 0.2561 0.30424 0.0
C3585 C 0.89894 0.30413 0.30973 0.0
C3586 C 0.88783 0.28733 0.30242 0.0
C3587 C 0.89564 0.2721 0.3005 0.0
C3588 C 0.86801 0.28531 0.29755 0.0
C3589 C 0.89132 0.3209 0.31212 0.0
C3590 C 0.85644 0.27983 0.31095 0.0
C3591 C 0.83794 0.27808 0.30664 0.0
C3592 C 0.83032 0.28173 0.28873 0.0
C3593 C 0.84197 0.28716 0.27529 0.0
C3594 C 0.8605 0.28898 0.27965 0.0
H3595 H 0.90162 0.33304 0.31787 0.0
H3596 H 0.88474 0.32314 0.29805 0.0
H3597 H 0.88106 0.31914 0.32206 0.0
H3598 H 0.86177 0.27698 0.32489 0.0
H3599 H 0.82958 0.27392 0.31746 0.0
H3600 H 0.03049 0.71387 0.62082 0.0
H3601 H 0.03134 0.68461 0.60384 0.0
H3602 H 0.00603 0.6582 0.64791 0.0
H3603 H 0.00515 0.6877 0.66519 0.0
H3604 H 0.04821 0.65751 0.61672 0.0
H3605 H 0.97582 0.6313 0.59792 0.0
H3606 H 0.98502 0.65484 0.60563 0.0
H3607 H 0.98331 0.639 0.62291 0.0
C3608 C 0.02496 0.70191 0.62698 0.0
C3609 C 0.01766 0.70336 0.64449 0.0
C3610 C 0.02551 0.68506 0.61717 0.0
C3611 C 0.0186 0.66898 0.62433 0.0
C3612 C 0.01121 0.67029 0.64179 0.0
H3613 H 0.00885 0.55558 0.57434 0.0
H3614 H 0.007 0.58321 0.59441 0.0
C3615 C 0.01078 0.68724 0.65176 0.0
C3616 C 0.01972 0.65109 0.61367 0.0
H3617 H 0.99473 0.61192 0.58885 0.0
C3618 C 0.03648 0.64754 0.61067 0.0
C3619 C 1.00452 0.63787 0.60578 0.0
C3620 C 0.98611 0.64089 0.60803 0.0
C3621 C 0.03849 0.63133 0.60029 0.0
C3622 C 0.02327 0.61828 0.59185 0.0
C3623 C 0.00648 0.62175 0.5951 0.0
C3624 C 0.02446 0.60118 0.57949 0.0
C3625 C 0.05706 0.62827 0.599 0.0
C3626 C 0.03469 0.60168 0.56406 0.0
C3627 C 0.03609 0.58579 0.55282 0.0
C3628 C 0.02683 0.56879 0.55611 0.0
C3629 C 0.01625 0.5683 0.57127 0.0
C3630 C 0.01511 0.58421 0.58277 0.0
H3631 H 0.06648 0.63591 0.61136 0.0
H3632 H 0.05761 0.6138 0.59864 0.0
H3633 H 0.06167 0.63315 0.5857 0.0
H3634 H 0.04165 0.61442 0.56059 0.0
H3635 H 0.04464 0.58692 0.5416 0.0
H3636 H 0.61022 0.82874 0.84935 0.0
H3637 H 0.63751 0.82511 0.83647 0.0
H3638 H 0.61164 0.77237 0.80859 0.0
H3639 H 0.5838 0.77658 0.82065 0.0
H3640 H 0.65938 0.8061 0.84269 0.0
H3641 H 0.63623 0.78562 0.76526 0.0
H3642 H 0.62204 0.79349 0.78148 0.0
H3643 H 0.62511 0.77054 0.78009 0.0
C3644 C 0.61013 0.81648 0.8401 0.0
C3645 C 0.59446 0.80313 0.83591 0.0
C3646 C 0.62598 0.81432 0.83277 0.0
C3647 C 0.62717 0.79851 0.82113 0.0
C3648 C 0.61144 0.78505 0.81687 0.0
H3649 H 0.7201 0.76052 0.78157 0.0
H3650 H 0.69111 0.76364 0.78998 0.0
C3651 C 0.59533 0.78741 0.8239 0.0
C3652 C 0.64504 0.79621 0.8146 0.0
H3653 H 0.66578 0.78343 0.77595 0.0
C3654 C 0.6606 0.80133 0.82797 0.0
C3655 C 0.64725 0.78974 0.79546 0.0
C3656 C 0.63181 0.7847 0.77971 0.0
C3657 C 0.67773 0.80027 0.82297 0.0
C3658 C 0.6799 0.79397 0.80389 0.0
C3659 C 0.66442 0.78846 0.79056 0.0
C3660 C 0.69797 0.79245 0.79778 0.0
C3661 C 0.69342 0.80554 0.83842 0.0
C3662 C 0.71201 0.80756 0.79886 0.0
C3663 C 0.72885 0.80579 0.79346 0.0
C3664 C 0.73236 0.78881 0.78694 0.0
C3665 C 0.71823 0.77384 0.78598 0.0
C3666 C 0.7014 0.77562 0.791 0.0
H3667 H 0.68928 0.80604 0.85307 0.0
H3668 H 0.70252 0.79595 0.83718 0.0
H3669 H 0.70089 0.81911 0.83672 0.0
H3670 H 0.70996 0.82082 0.80383 0.0
H3671 H 0.73917 0.81774 0.79463 0.0
H3672 H 0.4352 0.49898 0.70265 0.0
H3673 H 0.44664 0.49729 0.67152 0.0
H3674 H 0.47916 0.55033 0.68741 0.0
H3675 H 0.4681 0.55199 0.71863 0.0
H3676 H 0.44431 0.51793 0.64268 0.0
H3677 H 0.51497 0.5224 0.66932 0.0
H3678 H 0.49764 0.51827 0.68453 0.0
H3679 H 0.50642 0.54084 0.67993 0.0
C3680 C 0.44491 0.51023 0.6996 0.0
C3681 C 0.45079 0.5256 0.71323 0.0
C3682 C 0.4514 0.50926 0.68175 0.0
C3683 C 0.46398 0.52356 0.67718 0.0
C3684 C 0.46979 0.53893 0.69073 0.0
H3685 H 0.48792 0.54431 0.56177 0.0
H3686 H 0.47574 0.54359 0.5926 0.0
C3687 C 0.46336 0.5399 0.70857 0.0
C3688 C 0.47063 0.5227 0.65805 0.0
H3689 H 0.50853 0.52713 0.63656 0.0
C3690 C 0.45835 0.51983 0.64133 0.0
C3691 C 0.48892 0.52483 0.65622 0.0
C3692 C 0.50274 0.52656 0.67344 0.0
C3693 C 0.46388 0.51947 0.6229 0.0
C3694 C 0.48223 0.52258 0.62112 0.0
C3695 C 0.49447 0.52503 0.63785 0.0
C3696 C 0.48911 0.52288 0.60211 0.0
C3697 C 0.44995 0.51537 0.60555 0.0
C3698 C 0.50103 0.51186 0.59731 0.0
C3699 C 0.50828 0.5126 0.57999 0.0
C3700 C 0.50364 0.52423 0.56693 0.0
C3701 C 0.49152 0.53507 0.57149 0.0
C3702 C 0.4845 0.53457 0.58905 0.0
H3703 H 0.43708 0.50803 0.60905 0.0
H3704 H 0.44774 0.52819 0.60049 0.0
H3705 H 0.45416 0.50718 0.5936 0.0
H3706 H 0.50482 0.50271 0.60705 0.0
H3707 H 0.51752 0.50399 0.57679 0.0
H3708 H 0.77324 0.17251 0.01413 0.0
H3709 H 0.77709 0.19174 0.98826 0.0
H3710 H 0.76162 0.14462 0.94609 0.0
H3711 H 0.75681 0.12558 0.9719 0.0
H3712 H 0.79822 0.19241 0.95856 0.0
H3713 H 0.72639 0.17527 0.93095 0.0
H3714 H 0.73496 0.16985 0.95395 0.0
H3715 H 0.73644 0.156 0.93218 0.0
C3716 C 0.77066 0.1664 -0.00072 0.0
C3717 C 0.76456 0.1478 0.99469 0.0
C3718 C 0.77296 0.17728 0.98463 0.0
C3719 C 0.76946 0.16953 0.96538 0.0
C3720 C 0.76402 0.15081 0.9609 0.0
H3721 H 0.7601 0.2098 0.85802 0.0
H3722 H 0.77236 0.19431 0.88308 0.0
C3723 C 0.76127 0.14 0.97552 0.0
C3724 C 0.77046 0.18108 0.94994 0.0
H3725 H 0.74523 0.19239 0.91244 0.0
C3726 C 0.78668 0.19247 0.94844 0.0
C3727 C 0.75527 0.18114 0.93699 0.0
C3728 C 0.73724 0.17005 0.93867 0.0
C3729 C 0.7881 0.20387 0.93399 0.0
C3730 C 0.77296 0.20361 0.92096 0.0
C3731 C 0.75683 0.19224 0.92247 0.0
C3732 C 0.77279 0.21554 0.90598 0.0
C3733 C 0.80556 0.21603 0.93259 0.0
C3734 C 0.76972 0.23289 0.91066 0.0
C3735 C 0.76263 0.24183 0.89636 0.0
C3736 C 0.7585 0.2334 0.87733 0.0
C3737 C 0.76319 0.21671 0.87253 0.0
C3738 C 0.77034 0.20786 0.88678 0.0
H3739 H 0.81645 0.21356 0.94292 0.0
H3740 H 0.80911 0.21402 0.91776 0.0
H3741 H 0.8043 0.23028 0.93556 0.0
H3742 H 0.77133 0.23881 0.92553 0.0
H3743 H 0.75951 0.25486 0.90035 0.0
H3744 H 0.15995 0.53273 0.19224 0.0
H3745 H 0.14372 0.53632 0.16184 0.0
H3746 H 0.09492 0.52882 0.18723 0.0
H3747 H 0.11101 0.52515 0.21797 0.0
H3748 H 0.1075 0.50441 0.14742 0.0
H3749 H 0.10513 0.57739 0.15277 0.0
H3750 H 0.12368 0.56944 0.16428 0.0
H3751 H 0.10285 0.56566 0.17369 0.0
C3752 C 0.14577 0.53194 0.19146 0.0
C3753 C 0.13663 0.52845 0.20737 0.0
C3754 C 0.13664 0.53416 0.17417 0.0
C3755 C 0.11836 0.53303 0.17269 0.0
C3756 C 0.10917 0.52992 0.1885 0.0
H3757 H 0.0381 0.54253 0.0842 0.0
H3758 H 0.05714 0.54308 0.11423 0.0
C3759 C 0.11829 0.52765 0.20586 0.0
C3760 C 0.10851 0.53277 0.15396 0.0
H3761 H 0.08926 0.55876 0.12534 0.0
C3762 C 0.10343 0.5162 0.14244 0.0
C3763 C 0.10358 0.54833 0.14791 0.0
C3764 C 0.10908 0.5663 0.1602 0.0
C3765 C 0.09261 0.51453 0.12502 0.0
C3766 C 0.08742 0.53011 0.11888 0.0
C3767 C 0.09314 0.54685 0.13023 0.0
C3768 C 0.07573 0.52931 0.10095 0.0
C3769 C 0.0864 0.49596 0.11395 0.0
C3770 C 0.07992 0.52138 0.08373 0.0
C3771 C 0.06844 0.51985 0.06699 0.0
C3772 C 0.05328 0.52752 0.06685 0.0
C3773 C 0.04946 0.53617 0.08396 0.0
C3774 C 0.06047 0.53675 0.10101 0.0
H3775 H 0.08683 0.48525 0.12349 0.0
H3776 H 0.07267 0.49412 0.10663 0.0
H3777 H 0.09537 0.49397 0.10296 0.0
H3778 H 0.09205 0.51634 0.0832 0.0
H3779 H 0.07191 0.51327 0.05397 0.0
H3780 H 0.77003 0.84204 0.48516 0.0
H3781 H 0.76723 0.82255 0.45448 0.0
H3782 H 0.8056 0.86256 0.43389 0.0
H3783 H 0.80855 0.88188 0.4642 0.0
H3784 H 0.75721 0.82987 0.41642 0.0
H3785 H 0.82526 0.81657 0.4243 0.0
H3786 H 0.81534 0.82535 0.44435 0.0
H3787 H 0.82493 0.84013 0.42815 0.0
C3788 C 0.77793 0.84661 0.47412 0.0
C3789 C 0.78958 0.86351 0.47723 0.0
C3790 C 0.7763 0.83548 0.45659 0.0
C3791 C 0.78645 0.84095 0.44199 0.0
C3792 C 0.79792 0.85785 0.44506 0.0
H3793 H 0.77575 0.81999 0.32058 0.0
H3794 H 0.77628 0.83013 0.35456 0.0
C3795 C 0.7995 0.86895 0.46243 0.0
C3796 C 0.78489 0.82946 0.42323 0.0
H3797 H 0.80984 0.8114 0.39216 0.0
C3798 C 0.76864 0.82557 0.41123 0.0
C3799 C 0.79971 0.82359 0.41651 0.0
C3800 C 0.81725 0.82645 0.42908 0.0
C3801 C 0.76714 0.81695 0.39233 0.0
C3802 C 0.78231 0.81226 0.38517 0.0
C3803 C 0.79826 0.81516 0.39755 0.0
C3804 C 0.78223 0.80573 0.3645 0.0
C3805 C 0.74937 0.81317 0.38004 0.0
C3806 C 0.78616 0.78887 0.35871 0.0
C3807 C 0.78609 0.78304 0.33912 0.0
C3808 C 0.78207 0.794 0.32503 0.0
C3809 C 0.77861 0.81104 0.33098 0.0
C3810 C 0.77879 0.81685 0.35045 0.0
H3811 H 0.73832 0.81304 0.38894 0.0
H3812 H 0.74896 0.82387 0.37051 0.0
H3813 H 0.7472 0.80005 0.37083 0.0
H3814 H 0.78905 0.78013 0.36933 0.0
H3815 H 0.7888 0.76984 0.335 0.0
H3816 H 0.44741 0.53844 0.81784 0.0
H3817 H 0.46137 0.5434 0.85133 0.0
H3818 H 0.47083 0.48928 0.84616 0.0
H3819 H 0.45701 0.48421 0.81276 0.0
H3820 H 0.45072 0.52388 0.88174 0.0
H3821 H 0.51945 0.51987 0.86926 0.0
H3822 H 0.50313 0.52345 0.85056 0.0
H3823 H 0.50313 0.50117 0.85691 0.0
C3824 C 0.45266 0.52766 0.82375 0.0
C3825 C 0.45114 0.51093 0.81256 0.0
C3826 C 0.46058 0.53051 0.84292 0.0
C3827 C 0.46732 0.51678 0.8512 0.0
C3828 C 0.466 0.50017 0.84 0.0
H3829 H 0.49964 0.49271 0.96467 0.0
H3830 H 0.48726 0.4928 0.93124 0.0
C3831 C 0.45802 0.49727 0.8209 0.0
C3832 C 0.47509 0.51943 0.87175 0.0
H3833 H 0.51244 0.51739 0.90129 0.0
C3834 C 0.46427 0.52265 0.88602 0.0
C3835 C 0.49282 0.51798 0.87734 0.0
C3836 C 0.50539 0.51561 0.86273 0.0
C3837 C 0.47052 0.52372 0.90567 0.0
C3838 C 0.48797 0.52151 0.91115 0.0
C3839 C 0.49897 0.51886 0.89698 0.0
C3840 C 0.49495 0.52162 0.93158 0.0
C3841 C 0.45842 0.52689 0.92054 0.0
C3842 C 0.50334 0.5378 0.94281 0.0
C3843 C 0.51059 0.53778 0.96186 0.0
C3844 C 0.50953 0.52156 0.97009 0.0
C3845 C 0.50083 0.5054 0.95883 0.0
C3846 C 0.49369 0.50543 0.93972 0.0
H3847 H 0.44516 0.52834 0.91397 0.0
H3848 H 0.45671 0.51549 0.9293 0.0
H3849 H 0.46453 0.53928 0.93045 0.0
H3850 H 0.50443 0.55043 0.93675 0.0
H3851 H 0.51716 0.55049 0.97006 0.0
H3852 H 0.79192 0.15826 0.09551 0.0
H3853 H 0.79493 0.17852 0.12521 0.0
H3854 H 0.74229 0.18797 0.11029 0.0
H3855 H 0.73903 0.16763 0.0803 0.0
H3856 H 0.78828 0.21744 0.12731 0.0
H3857 H 0.7469 0.16842 0.16633 0.0
H3858 H 0.7583 0.1614 0.14669 0.0
H3859 H 0.73872 0.17038 0.14188 0.0
C3860 C 0.78096 0.16466 0.09848 0.0
C3861 C 0.76518 0.16138 0.0857 0.0
C3862 C 0.78276 0.17621 0.11538 0.0
C3863 C 0.76879 0.18447 0.1197 0.0
C3864 C 0.75311 0.18149 0.10696 0.0
H3865 H 0.75298 0.25736 0.21336 0.0
H3866 H 0.75183 0.23959 0.18211 0.0
C3867 C 0.75131 0.16999 0.08993 0.0
C3868 C 0.77065 0.19615 0.13773 0.0
H3869 H 0.75753 0.19781 0.18234 0.0
C3870 C 0.78158 0.21325 0.13938 0.0
C3871 C 0.76204 0.19026 0.1533 0.0
C3872 C 0.75088 0.17157 0.15215 0.0
C3873 C 0.78381 0.22496 0.15639 0.0
C3874 C 0.77487 0.2192 0.17177 0.0
C3875 C 0.76416 0.20202 0.17023 0.0
C3876 C 0.77639 0.23089 0.1897 0.0
C3877 C 0.79552 0.24339 0.15794 0.0
C3878 C 0.79064 0.23166 0.20387 0.0
C3879 C 0.79126 0.24158 0.22165 0.0
C3880 C 0.77766 0.25082 0.2252 0.0
C3881 C 0.76364 0.25039 0.21076 0.0
C3882 C 0.76295 0.24032 0.19305 0.0
H3883 H 0.80086 0.24611 0.14425 0.0
H3884 H 0.78793 0.25386 0.1621 0.0
H3885 H 0.8068 0.24458 0.16941 0.0
H3886 H 0.80102 0.2243 0.20129 0.0
H3887 H 0.80225 0.24192 0.23263 0.0
H3888 H 0.13098 0.5555 0.28442 0.0
H3889 H 0.1133 0.55178 0.31117 0.0
H3890 H 0.14537 0.51611 0.33339 0.0
H3891 H 0.16307 0.5196 0.30664 0.0
H3892 H 0.0989 0.50963 0.32729 0.0
H3893 H 0.14384 0.56846 0.37221 0.0
H3894 H 0.13941 0.56862 0.34658 0.0
H3895 H 0.1523 0.55342 0.35577 0.0
C3896 C 0.13423 0.54685 0.29499 0.0
C3897 C 0.14837 0.53787 0.2936 0.0
C3898 C 0.12406 0.54462 0.31007 0.0
C3899 C 0.12807 0.53354 0.32389 0.0
C3900 C 0.14207 0.52449 0.32255 0.0
H3901 H 0.09136 0.54453 0.43421 0.0
H3902 H 0.10546 0.53144 0.40864 0.0
C3903 C 0.15215 0.52658 0.30739 0.0
C3904 C 0.11848 0.53271 0.34063 0.0
H3905 H 0.11763 0.55605 0.38404 0.0
C3906 C 0.103 0.51958 0.33987 0.0
C3907 C 0.12417 0.54565 0.35687 0.0
C3908 C 0.14086 0.55988 0.3581 0.0
C3909 C 0.09255 0.51954 0.35495 0.0
C3910 C 0.09781 0.53308 0.37077 0.0
C3911 C 0.11373 0.54567 0.37181 0.0
C3912 C 0.08647 0.53581 0.38575 0.0
C3913 C 0.07594 0.50529 0.35382 0.0
C3914 C 0.07085 0.54214 0.38121 0.0
C3915 C 0.06262 0.54957 0.39583 0.0
C3916 C 0.07003 0.55084 0.4151 0.0
C3917 C 0.08517 0.54358 0.41953 0.0
C3918 C 0.09324 0.53603 0.40497 0.0
H3919 H 0.07614 0.49345 0.34333 0.0
H3920 H 0.07425 0.50076 0.36813 0.0
H3921 H 0.06428 0.51102 0.3491 0.0
H3922 H 0.06569 0.54238 0.36636 0.0
H3923 H 0.0508 0.55477 0.39206 0.0
H3924 H 0.77838 0.88036 0.59339 0.0
H3925 H 0.77589 0.87059 0.62524 0.0
H3926 H 0.7911 0.82089 0.60595 0.0
H3927 H 0.79368 0.83052 0.57406 0.0
H3928 H 0.75446 0.83813 0.6359 0.0
H3929 H 0.82679 0.84275 0.65464 0.0
H3930 H 0.81782 0.85356 0.63529 0.0
H3931 H 0.81736 0.82979 0.63197 0.0
C3932 C 0.78119 0.86733 0.59588 0.0
C3933 C 0.78635 0.85627 0.58115 0.0
C3934 C 0.77971 0.86176 0.6141 0.0
C3935 C 0.78349 0.84511 0.61804 0.0
C3936 C 0.78835 0.83391 0.60331 0.0
H3937 H 0.79082 0.78432 0.71302 0.0
H3938 H 0.79068 0.79721 0.68285 0.0
C3939 C 0.78978 0.83943 0.58506 0.0
C3940 C 0.78261 0.83953 0.6376 0.0
H3941 H 0.80802 0.82917 0.67582 0.0
C3942 C 0.76616 0.83627 0.64473 0.0
C3943 C 0.7979 0.83721 0.6491 0.0
C3944 C 0.81602 0.84115 0.64249 0.0
C3945 C 0.7645 0.83003 0.66275 0.0
C3946 C 0.77979 0.8274 0.67412 0.0
C3947 C 0.79629 0.83115 0.66713 0.0
C3948 C 0.77899 0.81956 0.69265 0.0
C3949 C 0.74631 0.82562 0.66908 0.0
C3950 C 0.77247 0.82783 0.70842 0.0
C3951 C 0.77232 0.8203 0.72583 0.0
C3952 C 0.77883 0.80445 0.72781 0.0
C3953 C 0.78551 0.79641 0.71203 0.0
C3954 C 0.78552 0.80382 0.69471 0.0
H3955 H 0.73563 0.8243 0.65689 0.0
H3956 H 0.7445 0.8129 0.67574 0.0
H3957 H 0.74476 0.8366 0.67995 0.0
H3958 H 0.76771 0.84022 0.70735 0.0
H3959 H 0.76716 0.82686 0.73773 0.0
H3960 H 0.7491 0.47433 0.48739 0.0
H3961 H 0.7228 0.48787 0.48703 0.0
H3962 H 0.69191 0.43804 0.49961 0.0
H3963 H 0.71803 0.42433 0.4999 0.0
H3964 H 0.6768 0.46109 0.468 0.0
H3965 H 0.70254 0.49419 0.54262 0.0
H3966 H 0.71737 0.49336 0.52458 0.0
H3967 H 0.70805 0.47312 0.53388 0.0
C3968 C 0.73664 0.46622 0.48984 0.0
C3969 C 0.73551 0.44836 0.49381 0.0
C3970 C 0.7217 0.47391 0.48948 0.0
C3971 C 0.70562 0.46383 0.4932 0.0
C3972 C 0.70429 0.44584 0.49647 0.0
H3973 H 0.61104 0.46393 0.5337 0.0
H3974 H 0.63414 0.45811 0.51407 0.0
C3975 C 0.71917 0.43809 0.49671 0.0
C3976 C 0.69063 0.47245 0.49593 0.0
H3977 H 0.67316 0.49464 0.53108 0.0
C3978 C 0.67603 0.46879 0.48159 0.0
C3979 C 0.68993 0.48239 0.51373 0.0
C3980 C 0.70525 0.48606 0.52968 0.0
C3981 C 0.66021 0.47416 0.48505 0.0
C3982 C 0.65923 0.48322 0.50321 0.0
C3983 C 0.67418 0.48778 0.5171 0.0
C3984 C 0.6424 0.48593 0.50942 0.0
C3985 C 0.64444 0.46959 0.46972 0.0
C3986 C 0.63932 0.50339 0.51273 0.0
C3987 C 0.6263 0.50676 0.52401 0.0
C3988 C 0.61639 0.49269 0.53225 0.0
C3989 C 0.61867 0.47499 0.52769 0.0
C3990 C 0.63162 0.47163 0.51629 0.0
H3991 H 0.64815 0.46511 0.45547 0.0
H3992 H 0.63444 0.45861 0.47381 0.0
H3993 H 0.63816 0.48145 0.46851 0.0
H3994 H 0.64781 0.51456 0.50776 0.0
H3995 H 0.62491 0.52056 0.52741 0.0
H3996 H 0.2002 0.15469 0.53215 0.0
H3997 H 0.17144 0.13448 0.52982 0.0
H3998 H 0.18827 0.09682 0.48938 0.0
H3999 H 0.21741 0.1169 0.49197 0.0
H4000 H 0.1463 0.12217 0.4997 0.0
H4001 H 0.17034 0.06487 0.52879 0.0
H4002 H 0.18428 0.0869 0.53014 0.0
H4003 H 0.18015 0.07187 0.50807 0.0
C4004 C 0.19786 0.14211 0.52276 0.0
C4005 C 0.21119 0.13739 0.51233 0.0
C4006 C 0.18136 0.13056 0.52143 0.0
C4007 C 0.17774 0.114 0.50965 0.0
C4008 C 0.19087 0.10935 0.4989 0.0
H4009 H 0.06713 0.05443 0.48504 0.0
H4010 H 0.09668 0.07126 0.48147 0.0
C4011 C 0.20749 0.12089 0.5003 0.0
C4012 C 0.16012 0.10184 0.5087 0.0
H4013 H 0.13977 0.06025 0.51776 0.0
C4014 C 0.14485 0.10861 0.50361 0.0
C4015 C 0.15825 0.08423 0.51404 0.0
C4016 C 0.1741 0.07655 0.52075 0.0
C4017 C 0.12778 0.09841 0.50399 0.0
C4018 C 0.12587 0.08064 0.50898 0.0
C4019 C 0.14118 0.07379 0.5138 0.0
C4020 C 0.10823 0.06928 0.51036 0.0
C4021 C 0.11208 0.10717 0.49985 0.0
C4022 C 0.10508 0.0616 0.52734 0.0
C4023 C 0.08843 0.0514 0.52908 0.0
C4024 C 0.0745 0.04898 0.51402 0.0
C4025 C 0.07766 0.05633 0.49692 0.0
C4026 C 0.09447 0.06609 0.49496 0.0
H4027 H 0.11602 0.1221 0.50194 0.0
H4028 H 0.10622 0.10304 0.48464 0.0
H4029 H 0.10173 0.1031 0.50924 0.0
H4030 H 0.11542 0.0638 0.53943 0.0
H4031 H 0.08625 0.04596 0.54247 0.0
H4032 H 0.18046 1.00269 0.80152 0.0
H4033 H 0.19759 0.97879 0.80393 0.0
H4034 H 0.16121 0.94515 0.75831 0.0
H4035 H 0.14401 0.9688 0.75581 0.0
H4036 H 0.17204 0.92912 0.79585 0.0
H4037 H 0.22699 0.96291 0.7586 0.0
H4038 H 0.21806 0.9759 0.77658 0.0
H4039 H 0.20481 0.96705 0.75405 0.0
C4040 C 0.17615 0.99022 0.79196 0.0
C4041 C 0.16091 0.98766 0.77841 0.0
C4042 C 0.1859 0.97659 0.79343 0.0
C4043 C 0.18061 0.96027 0.7813 0.0
C4044 C 0.1654 0.95764 0.76787 0.0
H4045 H 0.20523 0.86319 0.74001 0.0
H4046 H 0.19177 0.88703 0.75434 0.0
C4047 C 0.15563 0.9712 0.76643 0.0
C4048 C 0.19117 0.94602 0.78199 0.0
H4049 H 0.22727 0.93339 0.76512 0.0
C4050 C 0.18428 0.93011 0.78944 0.0
C4051 C 0.20715 0.94747 0.77372 0.0
C4052 C 0.21479 0.96419 0.76521 0.0
C4053 C 0.19267 0.9153 0.78812 0.0
C4054 C 0.20812 0.9164 0.77886 0.0
C4055 C 0.21548 0.93264 0.77233 0.0
C4056 C 0.21544 0.90029 0.77329 0.0
C4057 C 0.18475 0.89844 0.79621 0.0
C4058 C 0.23315 0.89967 0.77943 0.0
C4059 C 0.24085 0.88593 0.7713 0.0
C4060 C 0.23101 0.87293 0.75666 0.0
C4061 C 0.21307 0.87311 0.75125 0.0
C4062 C 0.20535 0.88664 0.75953 0.0
H4063 H 0.17623 0.90133 0.80741 0.0
H4064 H 0.1764 0.88877 0.78446 0.0
H4065 H 0.1953 0.89191 0.80251 0.0
H4066 H 0.24119 0.91019 0.78992 0.0
H4067 H 0.25473 0.88609 0.77562 0.0
H4068 H 0.3502 0.93061 0.03359 0.0
H4069 H 0.38172 0.94155 0.03203 0.0
H4070 H 0.36999 0.98826 0.00756 0.0
H4071 H 0.33832 0.97746 0.00893 0.0
H4072 H 0.39712 0.96094 0.99116 0.0
H4073 H 0.40712 0.99595 0.06617 0.0
H4074 H 0.39151 0.97483 0.05981 0.0
H4075 H 0.38685 0.99465 0.05041 0.0
C4076 C 0.35433 0.94331 0.02807 0.0
C4077 C 0.34194 0.95339 0.02169 0.0
C4078 C 0.37222 0.94935 0.02697 0.0
C4079 C 0.37784 0.96554 0.01963 0.0
C4080 C 0.36561 0.97563 0.01313 0.0
H4081 H 0.47682 0.03575 0.02198 0.0
H4082 H 0.44631 0.02125 0.02478 0.0
C4083 C 0.34767 0.96956 0.01412 0.0
C4084 C 0.39669 0.97259 0.02018 0.0
H4085 H 0.43218 0.9975 0.04974 0.0
C4086 C 0.40491 0.96887 0.00391 0.0
C4087 C 0.40642 0.98296 0.03689 0.0
C4088 C 0.39763 0.98744 0.05439 0.0
C4089 C 0.42299 0.97557 0.0039 0.0
C4090 C 0.43281 0.98579 0.02077 0.0
C4091 C 0.4245 0.9894 0.03702 0.0
C4092 C 0.45142 0.99421 0.02127 0.0
C4093 C 0.43131 0.9722 0.98576 0.0
C4094 C 0.46422 0.98367 0.01899 0.0
C4095 C 0.48151 0.99192 0.0173 0.0
C4096 C 0.48601 0.01067 0.01836 0.0
C4097 C 0.47342 0.02123 0.02148 0.0
C4098 C 0.45615 0.01301 0.02304 0.0
H4099 H 0.42118 0.96733 0.97303 0.0
H4100 H 0.44018 0.98465 0.98288 0.0
H4101 H 0.43944 0.9618 0.98754 0.0
H4102 H 0.46066 0.96912 0.01778 0.0
H4103 H 0.49105 0.98365 0.01418 0.0
H4104 H 0.88067 0.58364 0.82559 0.0
H4105 H 0.86753 0.61041 0.82797 0.0
H4106 H 0.82198 0.58179 0.78888 0.0
H4107 H 0.83465 0.55503 0.78689 0.0
H4108 H 0.86252 0.62635 0.79702 0.0
H4109 H 0.79835 0.6104 0.82501 0.0
H4110 H 0.81524 0.59722 0.82874 0.0
H4111 H 0.79986 0.59269 0.80693 0.0
C4112 C 0.86763 0.58296 0.81795 0.0
C4113 C 0.85869 0.56738 0.80596 0.0
C4114 C 0.86011 0.59817 0.81945 0.0
C4115 C 0.84364 0.5979 0.80896 0.0
C4116 C 0.83439 0.58207 0.79767 0.0
H4117 H 0.79199 0.65253 0.73513 0.0
H4118 H 0.8021 0.63245 0.75713 0.0
C4119 C 0.84179 0.56686 0.79631 0.0
C4120 C 0.83769 0.61476 0.8064 0.0
H4121 H 0.79974 0.63101 0.79979 0.0
C4122 C 0.84899 0.62778 0.7983 0.0
C4123 C 0.82005 0.61648 0.80807 0.0
C4124 C 0.80779 0.60349 0.81787 0.0
C4125 C 0.84258 0.64149 0.78995 0.0
C4126 C 0.8245 0.64221 0.79006 0.0
C4127 C 0.81356 0.63016 0.79961 0.0
C4128 C 0.81656 0.65415 0.77841 0.0
C4129 C 0.85477 0.65418 0.7797 0.0
C4130 C 0.8214 0.67278 0.78333 0.0
C4131 C 0.81608 0.68414 0.77067 0.0
C4132 C 0.80565 0.677 0.75306 0.0
C4133 C 0.80039 0.65829 0.74841 0.0
C4134 C 0.80582 0.64689 0.76107 0.0
H4135 H 0.86778 0.65022 0.77882 0.0
H4136 H 0.84854 0.65468 0.76488 0.0
H4137 H 0.8572 0.66797 0.78753 0.0
H4138 H 0.82971 0.67848 0.79668 0.0
H4139 H 0.82022 0.69856 0.77459 0.0
H4140 H 0.829 0.6518 0.04454 0.0
H4141 H 0.85252 0.63467 0.04183 0.0
H4142 H 0.82818 0.6106 0.98505 0.0
H4143 H 0.8044 0.62768 0.98762 0.0
H4144 H 0.84068 0.58768 0.02062 0.0
H4145 H 0.88964 0.6418 0.99662 0.0
H4146 H 0.87541 0.64812 0.0137 0.0
H4147 H 0.86603 0.63893 0.98961 0.0
C4148 C 0.82864 0.64291 0.03144 0.0
C4149 C 0.81486 0.64107 0.0163 0.0
C4150 C 0.84207 0.63314 0.02994 0.0
C4151 C 0.84203 0.6215 0.01323 0.0
C4152 C 0.82833 0.61954 0.99805 0.0
H4153 H 0.93625 0.57362 0.00392 0.0
H4154 H 0.90842 0.58305 0.99358 0.0
C4155 C 0.81479 0.62925 -0.00042 0.0
C4156 C 0.85636 0.61133 0.01204 0.0
H4157 H 0.90044 0.61706 0.00759 0.0
C4158 C 0.85368 0.5939 0.0174 0.0
C4159 C 0.87317 0.61952 0.00769 0.0
C4160 C 0.87637 0.63811 0.00148 0.0
C4161 C 0.86777 0.5848 0.0196 0.0
C4162 C 0.8849 0.5935 0.01655 0.0
C4163 C 0.88729 0.61047 0.00998 0.0
C4164 C 0.9008 0.58621 0.02222 0.0
C4165 C 0.86436 0.56619 0.02576 0.0
C4166 C 0.90566 0.58494 0.0417 0.0
C4167 C 0.92152 0.57979 0.04762 0.0
C4168 C 0.93279 0.57577 0.03415 0.0
C4169 C 0.92772 0.57658 0.01456 0.0
C4170 C 0.91189 0.58196 0.00865 0.0
H4171 H 0.85023 0.55939 0.02189 0.0
H4172 H 0.87283 0.5577 0.01909 0.0
H4173 H 0.86752 0.56725 0.04162 0.0
H4174 H 0.89741 0.58845 0.05242 0.0
H4175 H 0.92508 0.57912 0.06278 0.0
H4176 H 0.17982 0.08805 0.80671 0.0
H4177 H 0.19965 0.11765 0.80946 0.0
H4178 H 0.1747 0.12687 0.75472 0.0
H4179 H 0.15469 0.0977 0.75207 0.0
H4180 H 0.22393 0.13072 0.78603 0.0
H4181 H 0.17278 0.17251 0.78811 0.0
H4182 H 0.16816 0.14896 0.79132 0.0
H4183 H 0.16825 0.15572 0.76755 0.0
C4184 C 0.17848 0.09645 0.79534 0.0
C4185 C 0.16559 0.09053 0.77923 0.0
C4186 C 0.18984 0.11335 0.79692 0.0
C4187 C 0.18846 0.12462 0.78245 0.0
C4188 C 0.17572 0.11863 0.7663 0.0
H4189 H 0.26336 0.21461 0.75328 0.0
H4190 H 0.24586 0.18467 0.75591 0.0
C4191 C 0.16434 0.10186 0.76477 0.0
C4192 C 0.20065 0.1424 0.78379 0.0
H4193 H 0.20134 0.18708 0.78157 0.0
C4194 C 0.21901 0.14307 0.78521 0.0
C4195 C 0.19425 0.15856 0.78298 0.0
C4196 C 0.17479 0.15897 0.78261 0.0
C4197 C 0.23107 0.15937 0.7852 0.0
C4198 C 0.22457 0.17534 0.78347 0.0
C4199 C 0.20628 0.17476 0.78264 0.0
C4200 C 0.23647 0.19288 0.78265 0.0
C4201 C 0.25068 0.15947 0.78724 0.0
C4202 C 0.23693 0.20737 0.79674 0.0
C4203 C 0.24671 0.22441 0.79515 0.0
C4204 C 0.25629 0.22725 0.77948 0.0
C4205 C 0.25634 0.21265 0.76567 0.0
C4206 C 0.24636 0.19559 0.76717 0.0
H4207 H 0.25369 0.14694 0.79241 0.0
H4208 H 0.25553 0.16061 0.77305 0.0
H4209 H 0.2581 0.1712 0.79739 0.0
H4210 H 0.22939 0.20558 0.80878 0.0
H4211 H 0.2465 0.23548 0.80599 0.0
H4212 H 0.33125 0.97034 0.28648 0.0
H4213 H 0.31615 0.93947 0.28802 0.0
H4214 H 0.35865 0.91956 0.2637 0.0
H4215 H 0.37399 0.95038 0.26204 0.0
H4216 H 0.30855 0.91369 0.25087 0.0
H4217 H 0.3468 0.8922 0.3128 0.0
H4218 H 0.34556 0.91546 0.31116 0.0
H4219 H 0.35944 0.90485 0.29683 0.0
C4220 C 0.3374 0.9594 0.28145 0.0
C4221 C 0.35361 0.96266 0.27378 0.0
C4222 C 0.32885 0.9419 0.28253 0.0
C4223 C 0.3365 0.92759 0.27609 0.0
C4224 C 0.35282 0.9307 0.26889 0.0
H4225 H 0.31433 0.81541 0.26737 0.0
H4226 H 0.32512 0.84593 0.26072 0.0
C4227 C 0.36138 0.9482 0.26773 0.0
C4228 C 0.32647 0.90933 0.27465 0.0
H4229 H 0.3265 0.86953 0.29213 0.0
C4230 C 0.31229 0.90394 0.25989 0.0
C4231 C 0.33163 0.89704 0.2866 0.0
C4232 C 0.34662 0.90262 0.30286 0.0
C4233 C 0.30346 0.88601 0.25613 0.0
C4234 C 0.30892 0.87358 0.26776 0.0
C4235 C 0.32268 0.8792 0.28303 0.0
C4236 C 0.30055 0.85458 0.26485 0.0
C4237 C 0.28884 0.88045 0.2395 0.0
C4238 C 0.2829 0.84931 0.26815 0.0
C4239 C 0.27649 0.83159 0.2709 0.0
C4240 C 0.28785 0.81931 0.27061 0.0
C4241 C 0.30514 0.8244 0.26635 0.0
C4242 C 0.31136 0.84188 0.26295 0.0
H4243 H 0.28953 0.89053 0.22911 0.0
H4244 H 0.28944 0.86718 0.23178 0.0
H4245 H 0.27583 0.87925 0.24507 0.0
H4246 H 0.27457 0.85911 0.27013 0.0
H4247 H 0.26311 0.82776 0.27446 0.0
H4248 H 0.53074 0.3375 0.5956 0.0
H4249 H 0.52459 0.36559 0.58439 0.0
H4250 H 0.57073 0.37038 0.55453 0.0
H4251 H 0.57684 0.34254 0.5655 0.0
H4252 H 0.54336 0.40041 0.59024 0.0
H4253 H 0.53485 0.37815 0.51225 0.0
H4254 H 0.53525 0.36258 0.52989 0.0
H4255 H 0.55566 0.37506 0.52374 0.0
C4256 C 0.53948 0.3444 0.58646 0.0
C4257 C 0.55429 0.33743 0.58146 0.0
C4258 C 0.53598 0.36062 0.58008 0.0
C4259 C 0.54697 0.37029 0.56822 0.0
C4260 C 0.56169 0.36326 0.56322 0.0
H4261 H 0.56035 0.47651 0.52509 0.0
H4262 H 0.56377 0.44728 0.5354 0.0
C4263 C 0.56526 0.34721 0.56968 0.0
C4264 C 0.54357 0.38789 0.56152 0.0
H4265 H 0.5395 0.40996 0.52143 0.0
C4266 C 0.54237 0.40235 0.57515 0.0
C4267 C 0.54212 0.3908 0.54181 0.0
C4268 C 0.54184 0.37577 0.52606 0.0
C4269 C 0.5404 0.41942 0.56978 0.0
C4270 C 0.53952 0.42244 0.55016 0.0
C4271 C 0.54042 0.40795 0.53649 0.0
C4272 C 0.5374 0.4404 0.54363 0.0
C4273 C 0.53967 0.43436 0.58521 0.0
C4274 C 0.52143 0.44655 0.54458 0.0
C4275 C 0.51939 0.46323 0.53852 0.0
C4276 C 0.53326 0.47448 0.53131 0.0
C4277 C 0.5493 0.46835 0.53045 0.0
C4278 C 0.55127 0.45153 0.53635 0.0
H4279 H 0.54321 0.4309 0.59987 0.0
H4280 H 0.54881 0.44694 0.58312 0.0
H4281 H 0.52604 0.43709 0.5842 0.0
H4282 H 0.51043 0.43838 0.54999 0.0
H4283 H 0.50692 0.4674 0.53978 0.0
H4284 H 0.46162 0.78273 0.39475 0.0
H4285 H 0.43529 0.7876 0.37493 0.0
H4286 H 0.41194 0.73119 0.37136 0.0
H4287 H 0.43795 0.72629 0.39128 0.0
H4288 H 0.41974 0.77308 0.3378 0.0
H4289 H 0.37234 0.75391 0.38947 0.0
H4290 H 0.39604 0.7582 0.39611 0.0
H4291 H 0.38461 0.73689 0.38326 0.0
C4292 C 0.45088 0.77135 0.38977 0.0
C4293 C 0.45199 0.75411 0.39481 0.0
C4294 C 0.43578 0.77416 0.37839 0.0
C4295 C 0.42133 0.75985 0.37185 0.0
C4296 C 0.4226 0.7426 0.37655 0.0
H4297 H 0.31588 0.74478 0.30739 0.0
H4298 H 0.3434 0.74218 0.32639 0.0
C4299 C 0.43763 0.73978 0.38791 0.0
C4300 C 0.40503 0.76281 0.35996 0.0
H4301 H 0.35992 0.75727 0.35816 0.0
C4302 C 0.40666 0.76971 0.3423 0.0
C4303 C 0.38787 0.75842 0.36568 0.0
C4304 C 0.38507 0.7516 0.38474 0.0
C4305 C 0.39169 0.7717 0.32998 0.0
C4306 C 0.37444 0.76724 0.33565 0.0
C4307 C 0.37294 0.76064 0.35353 0.0
C4308 C 0.35774 0.76886 0.32332 0.0
C4309 C 0.39463 0.77789 0.31066 0.0
C4310 C 0.35621 0.78471 0.31507 0.0
C4311 C 0.34056 0.78596 0.30363 0.0
C4312 C 0.32572 0.77168 0.30072 0.0
C4313 C 0.32703 0.75604 0.30934 0.0
C4314 C 0.34283 0.75458 0.32029 0.0
H4315 H 0.40718 0.77497 0.30602 0.0
H4316 H 0.38356 0.77133 0.29939 0.0
H4317 H 0.39566 0.79269 0.31174 0.0
H4318 H 0.36702 0.79629 0.31767 0.0
H4319 H 0.3399 0.79832 0.29748 0.0
H4320 H 0.06423 0.73357 0.09748 0.0
H4321 H 0.06507 0.70184 0.08795 0.0
H4322 H 0.01694 0.69622 0.04924 0.0
H4323 H 0.01619 0.72778 0.05839 0.0
H4324 H 0.04304 0.67061 0.09112 0.0
H4325 H 0.04603 0.67422 0.01355 0.0
H4326 H 0.04922 0.69414 0.03069 0.0
H4327 H 0.02718 0.68202 0.02135 0.0
C4328 C 0.05392 0.72567 0.08676 0.0
C4329 C 0.04023 0.73355 0.07865 0.0
C4330 C 0.05437 0.70738 0.08134 0.0
C4331 C 0.04125 0.69638 0.0675 0.0
C4332 C 0.02755 0.70425 0.05951 0.0
H4333 H 0.00701 0.58026 0.03391 0.0
H4334 H 0.0098 0.61256 0.04373 0.0
C4335 C 0.02709 0.72246 0.06491 0.0
C4336 C 0.04148 0.67665 0.06184 0.0
H4337 H 0.03862 0.64464 0.02294 0.0
C4338 C 0.04223 0.66507 0.07619 0.0
C4339 C 0.04055 0.66904 0.04237 0.0
C4340 C 0.04089 0.68053 0.02613 0.0
C4341 C 0.04151 0.64636 0.07162 0.0
C4342 C 0.04 0.63876 0.05219 0.0
C4343 C 0.03962 0.65031 0.03785 0.0
C4344 C 0.03843 0.61882 0.04652 0.0
C4345 C 0.04214 0.63465 0.08759 0.0
C4346 C 0.05353 0.61127 0.04474 0.0
C4347 C 0.05192 0.59261 0.03932 0.0
C4348 C 0.0352 0.5809 0.03549 0.0
C4349 C 0.02014 0.58861 0.0372 0.0
C4350 C 0.02171 0.60721 0.04263 0.0
H4351 H 0.04359 0.64248 0.10204 0.0
H4352 H 0.02981 0.62415 0.08577 0.0
H4353 H 0.05343 0.62764 0.0868 0.0
H4354 H 0.06662 0.61981 0.04764 0.0
H4355 H 0.06378 0.58733 0.03849 0.0
H4356 H 0.0437 0.28187 0.88735 0.0
H4357 H 0.06833 0.286 0.86778 0.0
H4358 H 0.09323 0.24985 0.89927 0.0
H4359 H 0.06881 0.24562 0.91876 0.0
H4360 H 0.10505 0.29908 0.88013 0.0
H4361 H 0.09321 0.22938 0.84297 0.0
H4362 H 0.07659 0.23809 0.85507 0.0
H4363 H 0.09436 0.23091 0.8687 0.0
C4364 C 0.05437 0.27472 0.89006 0.0
C4365 C 0.05415 0.26335 0.90465 0.0
C4366 C 0.06847 0.27711 0.87885 0.0
C4367 C 0.08257 0.26802 0.88179 0.0
C4368 C 0.0824 0.25674 0.89639 0.0
H4369 H 0.18666 0.27986 0.83945 0.0
H4370 H 0.16088 0.27007 0.85647 0.0
C4371 C 0.0684 0.25443 0.90765 0.0
C4372 C 0.09776 0.27075 0.87011 0.0
H4373 H 0.12019 0.24876 0.83906 0.0
C4374 C 0.10828 0.28807 0.8711 0.0
C4375 C 0.1021 0.25641 0.85832 0.0
C4376 C 0.09091 0.23766 0.856 0.0
C4377 C 0.12305 0.29137 0.86089 0.0
C4378 C 0.12742 0.27704 0.84919 0.0
C4379 C 0.11694 0.25971 0.84814 0.0
C4380 C 0.14242 0.28024 0.83739 0.0
C4381 C 0.13407 0.31017 0.86274 0.0
C4382 C 0.14047 0.28857 0.82063 0.0
C4383 C 0.15508 0.29404 0.8109 0.0
C4384 C 0.17201 0.29128 0.81763 0.0
C4385 C 0.17375 0.28191 0.83373 0.0
C4386 C 0.15906 0.27644 0.84354 0.0
H4387 H 0.13024 0.31937 0.87408 0.0
H4388 H 0.14834 0.30988 0.86613 0.0
H4389 H 0.13238 0.3157 0.84883 0.0
H4390 H 0.12779 0.29158 0.81556 0.0
H4391 H 0.15335 0.30132 0.79861 0.0
H4392 H 0.55617 0.75511 0.88731 0.0
H4393 H 0.55739 0.72853 0.9042 0.0
H4394 H 0.50294 0.72522 0.914 0.0
H4395 H 0.50161 0.75174 0.89743 0.0
H4396 H 0.54155 0.72467 0.94759 0.0
H4397 H 0.51507 0.67338 0.88428 0.0
H4398 H 0.5285 0.69506 0.88212 0.0
H4399 H 0.50592 0.69346 0.88659 0.0
C4400 C 0.54445 0.74873 0.89305 0.0
C4401 C 0.52879 0.75564 0.89101 0.0
C4402 C 0.54519 0.73355 0.90273 0.0
C4403 C 0.53024 0.72489 0.91035 0.0
C4404 C 0.51463 0.7317 0.90825 0.0
H4405 H 0.48525 0.63643 0.96471 0.0
H4406 H 0.49391 0.66035 0.94482 0.0
C4407 C 0.51392 0.7469 0.89877 0.0
C4408 C 0.53065 0.70876 0.92059 0.0
H4409 H 0.51606 0.66309 0.91492 0.0
C4410 C 0.5363 0.71115 0.94044 0.0
C4411 C 0.52381 0.69117 0.91122 0.0
C4412 C 0.51802 0.68793 0.88984 0.0
C4413 C 0.53446 0.69649 0.95131 0.0
C4414 C 0.52683 0.67893 0.94207 0.0
C4415 C 0.52188 0.6765 0.92205 0.0
C4416 C 0.5221 0.66334 0.95316 0.0
C4417 C 0.53979 0.70002 0.97278 0.0
C4418 C 0.53507 0.65661 0.96414 0.0
C4419 C 0.5301 0.64276 0.97551 0.0
C4420 C 0.51208 0.63551 0.97622 0.0
C4421 C 0.49922 0.64187 0.96468 0.0
C4422 C 0.50417 0.65551 0.95323 0.0
H4423 H 0.5428 0.71462 0.97809 0.0
H4424 H 0.52911 0.69317 0.98043 0.0
H4425 H 0.55183 0.69452 0.9765 0.0
H4426 H 0.549 0.66223 0.96414 0.0
H4427 H 0.54032 0.63817 0.98425 0.0
H4428 H 0.07141 0.7681 0.73327 0.0
H4429 H 0.10268 0.77231 0.74766 0.0
H4430 H 0.1136 0.7394 0.6988 0.0
H4431 H 0.08301 0.73541 0.68444 0.0
H4432 H 0.12514 0.74895 0.75875 0.0
H4433 H 0.15166 0.78363 0.6995 0.0
H4434 H 0.12843 0.77985 0.70244 0.0
H4435 H 0.13763 0.76216 0.69094 0.0
C4436 C 0.08047 0.76176 0.7256 0.0
C4437 C 0.07442 0.75156 0.70746 0.0
C4438 C 0.09845 0.76417 0.73387 0.0
C4439 C 0.11094 0.75655 0.72422 0.0
C4440 C 0.10467 0.74594 0.70647 0.0
H4441 H 0.21975 0.73948 0.75291 0.0
H4442 H 0.18775 0.7363 0.74314 0.0
C4443 C 0.08691 0.74358 0.69826 0.0
C4444 C 0.13044 0.75952 0.73225 0.0
H4445 H 0.17259 0.77301 0.7205 0.0
C4446 C 0.13545 0.75434 0.75038 0.0
C4447 C 0.14425 0.76667 0.72163 0.0
C4448 C 0.14026 0.77357 0.70265 0.0
C4449 C 0.15353 0.75555 0.75767 0.0
C4450 C 0.1672 0.76211 0.74672 0.0
C4451 C 0.16225 0.76771 0.72888 0.0
C4452 C 0.18668 0.76365 0.75369 0.0
C4453 C 0.15805 0.74977 0.7771 0.0
C4454 C 0.19703 0.78004 0.76299 0.0
C4455 C 0.21537 0.78186 0.7687 0.0
C4456 C 0.22411 0.76736 0.76532 0.0
C4457 C 0.21365 0.75089 0.75614 0.0
C4458 C 0.19525 0.74907 0.75042 0.0
H4459 H 0.14607 0.7452 0.78412 0.0
H4460 H 0.16541 0.73864 0.77555 0.0
H4461 H 0.1669 0.76115 0.78659 0.0
H4462 H 0.19091 0.79155 0.76572 0.0
H4463 H 0.22276 0.79479 0.77571 0.0
H4464 H 0.0523 0.34075 0.40905 0.0
H4465 H 0.05325 0.36699 0.43288 0.0
H4466 H 0.02651 0.39214 0.38971 0.0
H4467 H 0.02543 0.36621 0.36606 0.0
H4468 H 0.06832 0.40402 0.43355 0.0
H4469 H 0.99559 0.39446 0.43306 0.0
H4470 H 0.00609 0.37713 0.42288 0.0
H4471 H 1.00237 0.39528 0.40951 0.0
C4472 C 0.04662 0.35187 0.40463 0.0
C4473 C 0.03873 0.35119 0.38553 0.0
C4474 C 0.04719 0.36692 0.41829 0.0
C4475 C 0.03971 0.38157 0.41328 0.0
C4476 C 0.03208 0.38097 0.39418 0.0
H4477 H 0.05568 0.49195 0.47175 0.0
H4478 H 0.05681 0.46463 0.45069 0.0
C4479 C 0.03157 0.36606 0.38056 0.0
C4480 C 0.03985 0.39755 0.42778 0.0
H4481 H 0.01264 0.42271 0.44803 0.0
C4482 C 0.05613 0.40804 0.43678 0.0
C4483 C 0.02399 0.40282 0.43232 0.0
C4484 C 0.00601 0.39176 0.4241 0.0
C4485 C 0.05697 0.42377 0.44965 0.0
C4486 C 0.04112 0.42944 0.45356 0.0
C4487 C 0.02485 0.41865 0.44496 0.0
C4488 C 0.04102 0.44626 0.46674 0.0
C4489 C 0.07487 0.43403 0.45919 0.0
C4490 C 0.03142 0.44537 0.48262 0.0
C4491 C 0.03061 0.46102 0.49459 0.0
C4492 C 0.03945 0.47813 0.49115 0.0
C4493 C 0.04894 0.47905 0.47512 0.0
C4494 C 0.0497 0.46335 0.46309 0.0
H4495 H 0.0851 0.4256 0.45874 0.0
H4496 H 0.07913 0.44583 0.45153 0.0
H4497 H 0.07426 0.439 0.47442 0.0
H4498 H 0.02436 0.43249 0.48571 0.0
H4499 H 0.02254 0.45969 0.5062 0.0
H4500 H 0.47627 0.26371 0.23528 0.0
H4501 H 0.44931 0.26775 0.24981 0.0
H4502 H 0.41752 0.24781 0.19537 0.0
H4503 H 0.44393 0.24372 0.181 0.0
H4504 H 0.42307 0.28849 0.24107 0.0
H4505 H 0.3911 0.21645 0.2306 0.0
H4506 H 0.41428 0.22405 0.22851 0.0
H4507 H 0.39764 0.22423 0.20871 0.0
C4508 C 0.46352 0.26003 0.22644 0.0
C4509 C 0.46255 0.25322 0.20686 0.0
C4510 C 0.44802 0.26244 0.23477 0.0
C4511 C 0.43102 0.25785 0.22389 0.0
C4512 C 0.43017 0.25116 0.2044 0.0
H4513 H 0.31924 0.25979 0.23259 0.0
H4514 H 0.34826 0.25641 0.22364 0.0
C4515 C 0.44552 0.2489 0.1961 0.0
C4516 C 0.41411 0.26006 0.23243 0.0
H4517 H 0.37222 0.23718 0.23692 0.0
C4518 C 0.41206 0.27719 0.24036 0.0
C4519 C 0.39946 0.24548 0.23168 0.0
C4520 C 0.40074 0.22649 0.2246 0.0
C4521 C 0.39585 0.28018 0.24667 0.0
C4522 C 0.38104 0.26564 0.24539 0.0
C4523 C 0.38327 0.24848 0.23787 0.0
C4524 C 0.36308 0.26788 0.25125 0.0
C4525 C 0.39452 0.29911 0.25397 0.0
C4526 C 0.36117 0.27511 0.26998 0.0
C4527 C 0.34433 0.27673 0.27529 0.0
C4528 C 0.32875 0.27142 0.26203 0.0
C4529 C 0.33071 0.26404 0.24336 0.0
C4530 C 0.34748 0.26217 0.23814 0.0
H4531 H 0.40502 0.30928 0.24936 0.0
H4532 H 0.38138 0.30194 0.24884 0.0
H4533 H 0.39612 0.30074 0.26992 0.0
H4534 H 0.37267 0.27922 0.28073 0.0
H4535 H 0.34356 0.28193 0.28994 0.0
H4536 H 0.62435 0.51834 0.33751 0.0
H4537 H 0.6118 0.51272 0.36733 0.0
H4538 H 0.57536 0.5477 0.35535 0.0
H4539 H 0.58783 0.55344 0.32546 0.0
H4540 H 0.60996 0.53954 0.3988 0.0
H4541 H 0.54356 0.50036 0.36683 0.0
H4542 H 0.56236 0.5035 0.35344 0.0
H4543 H 0.55051 0.52134 0.35755 0.0
C4544 C 0.61359 0.52478 0.34112 0.0
C4545 C 0.60707 0.53633 0.32903 0.0
C4546 C 0.60646 0.52156 0.35821 0.0
C4547 C 0.59253 0.52964 0.36346 0.0
C4548 C 0.58593 0.54111 0.35142 0.0
H4549 H 0.53126 0.53593 0.45738 0.0
H4550 H 0.54426 0.5366 0.42737 0.0
C4551 C 0.59313 0.54444 0.33438 0.0
C4552 C 0.5853 0.52653 0.38183 0.0
H4553 H 0.54754 0.50948 0.40048 0.0
C4554 C 0.59636 0.53283 0.39921 0.0
C4555 C 0.56757 0.51777 0.38229 0.0
C4556 C 0.5553 0.51019 0.36406 0.0
C4557 C 0.58998 0.5312 0.41706 0.0
C4558 C 0.57215 0.52263 0.41754 0.0
C4559 C 0.56121 0.516 0.40013 0.0
C4560 C 0.56423 0.52156 0.43587 0.0
C4561 C 0.60215 0.53935 0.43521 0.0
C4562 C 0.57102 0.5127 0.45068 0.0
C4563 C 0.56362 0.51236 0.46804 0.0
C4564 C 0.54919 0.52069 0.47075 0.0
C4565 C 0.54232 0.52929 0.45576 0.0
C4566 C 0.54973 0.52969 0.43855 0.0
H4567 H 0.61393 0.549 0.4322 0.0
H4568 H 0.59506 0.54647 0.44546 0.0
H4569 H 0.60692 0.52848 0.44228 0.0
H4570 H 0.58198 0.50602 0.4488 0.0
H4571 H 0.56907 0.5055 0.47926 0.0
H4572 H 0.30569 0.87864 0.02919 0.0
H4573 H 0.3054 0.86372 0.05829 0.0
H4574 H 0.26327 0.88928 0.07526 0.0
H4575 H 0.26363 0.90453 0.04619 0.0
H4576 H 0.29412 0.89284 0.10394 0.0
H4577 H 0.26708 0.82222 0.07164 0.0
H4578 H 0.28439 0.834 0.05976 0.0
H4579 H 0.26365 0.84136 0.05957 0.0
C4580 C 0.2961 0.88079 0.03889 0.0
C4581 C 0.28458 0.89262 0.03544 0.0
C4582 C 0.29597 0.87229 0.05549 0.0
C4583 C 0.28416 0.8753 0.06868 0.0
C4584 C 0.27241 0.88682 0.06512 0.0
H4585 H 0.28454 0.81351 0.1669 0.0
H4586 H 0.27309 0.8308 0.14265 0.0
C4587 C 0.27262 0.89544 0.04857 0.0
C4588 C 0.28495 0.86711 0.08667 0.0
H4589 H 0.28273 0.82648 0.10343 0.0
C4590 C 0.2913 0.87835 0.10397 0.0
C4591 C 0.28104 0.84825 0.08656 0.0
C4592 C 0.2735 0.83572 0.06842 0.0
C4593 C 0.29503 0.87106 0.12105 0.0
C4594 C 0.29236 0.85218 0.12059 0.0
C4595 C 0.28485 0.84099 0.10359 0.0
C4596 C 0.29906 0.8437 0.13687 0.0
C4597 C 0.30235 0.8835 0.1393 0.0
C4598 C 0.3174 0.8453 0.14144 0.0
C4599 C 0.32394 0.83528 0.15499 0.0
C4600 C 0.31219 0.82367 0.16421 0.0
C4601 C 0.29383 0.82247 0.15999 0.0
C4602 C 0.28729 0.83233 0.14626 0.0
H4603 H 0.29952 0.89717 0.13844 0.0
H4604 H 0.29671 0.87802 0.15186 0.0
H4605 H 0.31695 0.88474 0.14175 0.0
H4606 H 0.32662 0.85383 0.13404 0.0
H4607 H 0.33814 0.8365 0.15818 0.0
H4608 H 0.91088 0.53923 0.83617 0.0
H4609 H 0.93474 0.54536 0.86272 0.0
H4610 H 0.92501 0.48915 0.87082 0.0
H4611 H 0.90091 0.48269 0.84402 0.0
H4612 H 0.93026 0.53543 0.90204 0.0
H4613 H 0.97998 0.50569 0.86494 0.0
H4614 H 0.96156 0.51278 0.85205 0.0
H4615 H 0.95794 0.49219 0.86272 0.0
C4616 C 0.91377 0.5281 0.84354 0.0
C4617 C 0.90411 0.51043 0.83801 0.0
C4618 C 0.9274 0.53168 0.85864 0.0
C4619 C 0.9316 0.51765 0.86832 0.0
C4620 C 0.92193 0.50002 0.86313 0.0
H4621 H 1.00186 0.50046 0.96027 0.0
H4622 H 0.98275 0.50008 0.93027 0.0
C4623 C 0.90818 0.4964 0.84799 0.0
C4624 C 0.94578 0.52164 0.88436 0.0
H4625 H 0.98707 0.51486 0.89841 0.0
C4626 C 0.94277 0.53108 0.90136 0.0
C4627 C 0.96196 0.51602 0.88298 0.0
C4628 C 0.96571 0.50621 0.86466 0.0
C4629 C 0.9553 0.5342 0.91768 0.0
C4630 C 0.9714 0.52817 0.91651 0.0
C4631 C 0.97468 0.51944 0.89915 0.0
C4632 C 0.98412 0.52894 0.93362 0.0
C4633 C 0.95073 0.54304 0.93616 0.0
C4634 C 0.99139 0.54532 0.94507 0.0
C4635 C 1.00163 0.5454 0.96252 0.0
C4636 C 0.00522 0.52921 0.96806 0.0
C4637 C 0.99901 0.51302 0.95606 0.0
C4638 C 0.98826 0.51284 0.939 0.0
H4639 H 0.93631 0.54291 0.93555 0.0
H4640 H 0.95476 0.5362 0.9486 0.0
H4641 H 0.95783 0.5573 0.93872 0.0
H4642 H 0.9888 0.55791 0.94077 0.0
H4643 H 0.00679 0.55802 0.97161 0.0
H4644 H 0.28633 0.18478 0.57172 0.0
H4645 H 0.2884 0.19875 0.60505 0.0
H4646 H 0.25184 0.23186 0.58714 0.0
H4647 H 0.24985 0.2182 0.5538 0.0
H4648 H 0.29602 0.24177 0.61869 0.0
H4649 H 0.23259 0.19948 0.63239 0.0
H4650 H 0.24601 0.19181 0.61504 0.0
H4651 H 0.23333 0.20848 0.60969 0.0
C4652 C 0.2788 0.1951 0.57486 0.0
C4653 C 0.26791 0.20037 0.5601 0.0
C4654 C 0.28004 0.20309 0.59388 0.0
C4655 C 0.27023 0.21628 0.59851 0.0
C4656 C 0.2595 0.2217 0.58382 0.0
H4657 H 0.25664 0.27725 0.70599 0.0
H4658 H 0.25552 0.26567 0.67204 0.0
C4659 C 0.25842 0.2139 0.56478 0.0
C4660 C 0.2708 0.22412 0.61875 0.0
H4661 H 0.24721 0.22219 0.65715 0.0
C4662 C 0.28537 0.23753 0.62712 0.0
C4663 C 0.25691 0.21847 0.62967 0.0
C4664 C 0.2413 0.20371 0.62139 0.0
C4665 C 0.28629 0.24555 0.64618 0.0
C4666 C 0.27232 0.23999 0.65704 0.0
C4667 C 0.25778 0.22656 0.64867 0.0
C4668 C 0.27305 0.24727 0.67749 0.0
C4669 C 0.30213 0.25994 0.65468 0.0
C4670 C 0.28311 0.24063 0.69174 0.0
C4671 C 0.28336 0.24683 0.71112 0.0
C4672 C 0.27377 0.26003 0.71676 0.0
C4673 C 0.26393 0.2669 0.70234 0.0
C4674 C 0.26339 0.2604 0.68288 0.0
H4675 H 0.31088 0.26422 0.64374 0.0
H4676 H 0.2977 0.27188 0.66137 0.0
H4677 H 0.30996 0.25475 0.66617 0.0
H4678 H 0.29062 0.23045 0.68787 0.0
H4679 H 0.29104 0.24114 0.7217 0.0
H4680 H 0.6227 0.54803 0.22665 0.0
H4681 H 0.60934 0.55016 0.1942 0.0
H4682 H 0.56637 0.50643 0.19922 0.0
H4683 H 0.57948 0.5044 0.2319 0.0
H4684 H 0.60246 0.52452 0.16268 0.0
H4685 H 0.53992 0.54391 0.18037 0.0
H4686 H 0.55853 0.5448 0.1984 0.0
H4687 H 0.54382 0.52368 0.18956 0.0
C4688 C 0.61033 0.53891 0.22095 0.0
C4689 C 0.60214 0.52605 0.23196 0.0
C4690 C 0.60272 0.54016 0.20235 0.0
C4691 C 0.58671 0.52864 0.19433 0.0
C4692 C 0.57851 0.51574 0.20524 0.0
H4693 H 0.52223 0.51274 0.08256 0.0
H4694 H 0.53442 0.51177 0.11603 0.0
C4695 C 0.58609 0.51452 0.22389 0.0
C4696 C 0.57903 0.52971 0.1743 0.0
H4697 H 0.5421 0.5365 0.14729 0.0
C4698 C 0.58929 0.52722 0.15932 0.0
C4699 C 0.56183 0.53319 0.1699 0.0
C4700 C 0.55042 0.53672 0.18541 0.0
C4701 C 0.58272 0.52774 0.14006 0.0
C4702 C 0.56552 0.53127 0.13564 0.0
C4703 C 0.55527 0.53378 0.15064 0.0
C4704 C 0.55788 0.5323 0.11556 0.0
C4705 C 0.59415 0.524 0.12462 0.0
C4706 C 0.56678 0.54437 0.10425 0.0
C4707 C 0.55998 0.54467 0.08512 0.0
C4708 C 0.54386 0.53336 0.07718 0.0
C4709 C 0.5346 0.52172 0.08856 0.0
C4710 C 0.54157 0.52116 0.10761 0.0
H4711 H 0.60431 0.5164 0.12965 0.0
H4712 H 0.58603 0.51621 0.11147 0.0
H4713 H 0.60123 0.53696 0.12074 0.0
H4714 H 0.57911 0.55345 0.11015 0.0
H4715 H 0.56739 0.55361 0.07648 0.0
H4716 H 0.31682 0.88814 0.96664 0.0
H4717 H 0.30886 0.86385 0.93986 0.0
H4718 H 0.27444 0.89375 0.91063 0.0
H4719 H 0.28202 0.91793 0.93763 0.0
H4720 H 0.25936 0.85565 0.91424 0.0
H4721 H 0.32419 0.86686 0.88502 0.0
H4722 H 0.32519 0.8665 0.91058 0.0
H4723 H 0.31709 0.88424 0.89982 0.0
C4724 C 0.30791 0.88968 0.95428 0.0
C4725 C 0.30017 0.90486 0.9539 0.0
C4726 C 0.30327 0.87581 0.93916 0.0
C4727 C 0.29114 0.8772 0.92345 0.0
C4728 C 0.28375 0.89255 0.92279 0.0
H4729 H 0.25084 0.81109 0.8171 0.0
H4730 H 0.25195 0.83021 0.8473 0.0
C4731 C 0.28819 0.90632 0.93803 0.0
C4732 C 0.28622 0.86254 0.90767 0.0
H4733 H 0.30323 0.84092 0.87181 0.0
C4734 C 0.26887 0.85231 0.9049 0.0
C4735 C 0.29874 0.85852 0.89566 0.0
C4736 C 0.31732 0.86965 0.89774 0.0
C4737 C 0.26381 0.83766 0.89045 0.0
C4738 C 0.27646 0.83352 0.87859 0.0
C4739 C 0.2937 0.84398 0.88127 0.0
C4740 C 0.27226 0.81902 0.86254 0.0
C4741 C 0.24518 0.82667 0.88815 0.0
C4742 C 0.28312 0.80629 0.86132 0.0
C4743 C 0.28306 0.79595 0.84394 0.0
C4744 C 0.27174 0.79784 0.82773 0.0
C4745 C 0.25976 0.80947 0.82943 0.0
C4746 C 0.26014 0.82016 0.84672 0.0
H4747 H 0.23886 0.82835 0.90149 0.0
H4748 H 0.23704 0.83123 0.87642 0.0
H4749 H 0.24502 0.81215 0.88427 0.0
H4750 H 0.29268 0.80544 0.8734 0.0
H4751 H 0.29276 0.78747 0.84294 0.0
H4752 H 0.93599 0.54805 0.76681 0.0
H4753 H 0.95299 0.54547 0.7395 0.0
H4754 H 0.9099 0.50477 0.70897 0.0
H4755 H 0.89271 0.50774 0.73564 0.0
H4756 H 0.96412 0.51668 0.72433 0.0
H4757 H 0.91914 0.5377 0.66866 0.0
H4758 H 0.91693 0.5412 0.69395 0.0
H4759 H 0.90767 0.51972 0.68 0.0
C4760 C 0.93011 0.53878 0.75411 0.0
C4761 C 0.91295 0.5284 0.75309 0.0
C4762 C 0.93978 0.53732 0.7386 0.0
C4763 C 0.93241 0.52536 0.72204 0.0
C4764 C 0.91549 0.51462 0.72129 0.0
H4765 H 0.96809 0.46786 0.6311 0.0
H4766 H 0.95218 0.48062 0.65574 0.0
C4767 C 0.90574 0.51627 0.73659 0.0
C4768 C 0.94274 0.52311 0.70594 0.0
H4769 H 0.93985 0.52021 0.65705 0.0
C4770 C 0.95902 0.51783 0.70966 0.0
C4771 C 0.93598 0.52467 0.68686 0.0
C4772 C 0.91905 0.53132 0.68217 0.0
C4773 C 0.96832 0.51313 0.69462 0.0
C4774 C 0.96107 0.51375 0.67556 0.0
C4775 C 0.94519 0.51971 0.6718 0.0
C4776 C 0.96935 0.50697 0.6594 0.0
C4777 C 0.9855 0.50684 0.69901 0.0
C4778 C 0.98395 0.51781 0.65336 0.0
C4779 C 0.99294 0.5106 0.63936 0.0
C4780 C 0.98748 0.49247 0.63155 0.0
C4781 C 0.9726 0.48178 0.63729 0.0
C4782 C 0.96348 0.48906 0.65111 0.0
H4783 H 0.98891 0.50632 0.71464 0.0
H4784 H 0.98459 0.49323 0.69121 0.0
H4785 H 0.99643 0.5161 0.6939 0.0
H4786 H 0.98858 0.53164 0.6598 0.0
H4787 H 1.00437 0.51901 0.63494 0.0
H4788 H 0.23415 0.1889 0.44877 0.0
H4789 H 0.24119 0.20521 0.42144 0.0
H4790 H 0.29702 0.21092 0.43995 0.0
H4791 H 0.29015 0.19465 0.46743 0.0
H4792 H 0.26531 0.24226 0.42307 0.0
H4793 H 0.28742 0.186 0.3819 0.0
H4794 H 0.27332 0.18213 0.4006 0.0
H4795 H 0.2963 0.19242 0.40682 0.0
C4796 C 0.24794 0.19367 0.44712 0.0
C4797 C 0.26157 0.19041 0.4603 0.0
C4798 C 0.25193 0.203 0.43149 0.0
C4799 C 0.26961 0.20913 0.4286 0.0
C4800 C 0.28328 0.20616 0.44184 0.0
H4801 H 0.30546 0.24988 0.32386 0.0
H4802 H 0.30475 0.23805 0.35505 0.0
C4803 C 0.27931 0.19691 0.45757 0.0
C4804 C 0.2736 0.21844 0.41156 0.0
H4805 H 0.28648 0.21197 0.36695 0.0
C4806 C 0.27005 0.23574 0.41081 0.0
C4807 C 0.28013 0.21003 0.39581 0.0
C4808 C 0.28449 0.19159 0.39613 0.0
C4809 C 0.27265 0.24481 0.39459 0.0
C4810 C 0.2781 0.23594 0.3782 0.0
C4811 C 0.28215 0.2188 0.37929 0.0
C4812 C 0.27897 0.24377 0.35958 0.0
C4813 C 0.26985 0.26393 0.39553 0.0
C4814 C 0.26474 0.25079 0.35149 0.0
C4815 C 0.26552 0.25816 0.33415 0.0
C4816 C 0.28005 0.25771 0.3239 0.0
C4817 C 0.29403 0.25013 0.33145 0.0
C4818 C 0.2936 0.24343 0.34928 0.0
H4819 H 0.27284 0.27077 0.41053 0.0
H4820 H 0.2783 0.27196 0.38639 0.0
H4821 H 0.25572 0.26382 0.39067 0.0
H4822 H 0.25291 0.25049 0.35848 0.0
H4823 H 0.25453 0.26385 0.32848 0.0
H4824 H 0.3046 0.5883 0.52574 0.0
H4825 H 0.33161 0.57836 0.51945 0.0
H4826 H 0.35549 0.599 0.5774 0.0
H4827 H 0.32827 0.60941 0.58399 0.0
H4828 H 0.37483 0.60942 0.54148 0.0
H4829 H 0.35099 0.53642 0.54535 0.0
H4830 H 0.33549 0.54764 0.53313 0.0
H4831 H 0.3423 0.55374 0.55847 0.0
C4832 C 0.31545 0.59058 0.53731 0.0
C4833 C 0.31436 0.59964 0.5554 0.0
C4834 C 0.33085 0.58493 0.53363 0.0
C4835 C 0.3453 0.58801 0.54801 0.0
C4836 C 0.34429 0.59663 0.56623 0.0
H4837 H 0.42875 0.53458 0.5185 0.0
H4838 H 0.41152 0.5508 0.53816 0.0
C4839 C 0.32879 0.60242 0.56996 0.0
C4840 C 0.36143 0.58229 0.54336 0.0
H4841 H 0.37559 0.54443 0.52807 0.0
C4842 C 0.37538 0.59527 0.53903 0.0
C4843 C 0.36172 0.56383 0.54007 0.0
C4844 C 0.34689 0.54956 0.54461 0.0
C4845 C 0.38942 0.59007 0.53044 0.0
C4846 C 0.38918 0.57154 0.52615 0.0
C4847 C 0.37565 0.55866 0.53145 0.0
C4848 C 0.40218 0.56487 0.51525 0.0
C4849 C 0.40407 0.60431 0.52554 0.0
C4850 C 0.40269 0.56768 0.49592 0.0
C4851 C 0.41275 0.55858 0.48461 0.0
C4852 C 0.42219 0.54648 0.49254 0.0
C4853 C 0.42188 0.54407 0.51205 0.0
C4854 C 0.41205 0.55329 0.52332 0.0
H4855 H 0.4048 0.6175 0.53421 0.0
H4856 H 0.4171 0.60028 0.52791 0.0
H4857 H 0.40146 0.60609 0.51013 0.0
H4858 H 0.39475 0.57629 0.48939 0.0
H4859 H 0.41291 0.56077 0.46966 0.0
H4860 H 0.85422 0.91582 0.5751 0.0
H4861 H 0.88316 0.93413 0.57211 0.0
H4862 H 0.86404 0.94238 0.51464 0.0
H4863 H 0.83496 0.92433 0.51759 0.0
H4864 H 0.90623 0.92837 0.54504 0.0
H4865 H 0.88513 0.99364 0.53981 0.0
H4866 H 0.87128 0.97466 0.5478 0.0
H4867 H 0.87305 0.97531 0.52263 0.0
C4868 C 0.85612 0.92161 0.56186 0.0
C4869 C 0.84221 0.9187 0.54664 0.0
C4870 C 0.87268 0.93206 0.56017 0.0
C4871 C 0.87569 0.93985 0.54327 0.0
C4872 C 0.8619 0.93684 0.52798 0.0
H4873 H 0.96602 0.00825 0.50681 0.0
H4874 H 0.93692 0.99072 0.51023 0.0
C4875 C 0.8453 0.92645 0.52967 0.0
C4876 C 0.8934 0.95074 0.54154 0.0
H4877 H 0.91477 0.99281 0.53516 0.0
C4878 C 0.90814 0.94249 0.54296 0.0
C4879 C 0.89581 0.9691 0.53862 0.0
C4880 C 0.88052 0.97879 0.53727 0.0
C4881 C 0.92522 0.95199 0.54124 0.0
C4882 C 0.92773 0.97048 0.5387 0.0
C4883 C 0.91292 0.9787 0.53723 0.0
C4884 C 0.94547 0.98147 0.53706 0.0
C4885 C 0.94024 0.9419 0.54154 0.0
C4886 C 0.95999 0.98249 0.5512 0.0
C4887 C 0.97676 0.99227 0.54907 0.0
C4888 C 0.97918 1.00168 0.5331 0.0
C4889 C 0.96452 1.00128 0.51939 0.0
C4890 C 0.94787 0.9912 0.5213 0.0
H4891 H 0.93528 0.92721 0.53746 0.0
H4892 H 0.9498 0.9468 0.5316 0.0
H4893 H 0.94738 0.94386 0.55633 0.0
H4894 H 0.95839 0.97564 0.56384 0.0
H4895 H 0.98783 0.99248 0.55991 0.0
H4896 H 0.88005 0.05105 0.2411 0.0
H4897 H 0.86311 0.07507 0.23876 0.0
H4898 H 0.89521 0.10527 0.28951 0.0
H4899 H 0.91238 0.08166 0.29169 0.0
H4900 H 0.84314 0.08853 0.26401 0.0
H4901 H 0.89796 0.14285 0.25288 0.0
H4902 H 0.89968 0.11945 0.25035 0.0
H4903 H 0.90362 0.13246 0.27375 0.0
C4904 C 0.88354 0.06286 0.2517 0.0
C4905 C 0.89767 0.0645 0.26651 0.0
C4906 C 0.87387 0.07657 0.25032 0.0
C4907 C 0.87817 0.09218 0.26368 0.0
C4908 C 0.89201 0.09363 0.27866 0.0
H4909 H 0.84338 0.17971 0.31383 0.0
H4910 H 0.85865 0.1573 0.29996 0.0
C4911 C 0.90174 0.08004 0.27998 0.0
C4912 C 0.86781 0.10668 0.26269 0.0
H4913 H 0.8729 0.15238 0.26558 0.0
C4914 C 0.84953 0.10246 0.26392 0.0
C4915 C 0.87611 0.12482 0.26227 0.0
C4916 C 0.89539 0.13014 0.25952 0.0
C4917 C 0.83967 0.11606 0.26642 0.0
C4918 C 0.84832 0.13431 0.26748 0.0
C4919 C 0.86631 0.1384 0.26488 0.0
C4920 C 0.83981 0.14929 0.2742 0.0
C4921 C 0.82037 0.11085 0.26918 0.0
C4922 C 0.82447 0.15277 0.26397 0.0
C4923 C 0.81566 0.16567 0.27196 0.0
C4924 C 0.8221 0.17518 0.29025 0.0
C4925 C 0.83805 0.17244 0.29979 0.0
C4926 C 0.8468 0.15966 0.29186 0.0
H4927 H 0.81637 0.09631 0.27066 0.0
H4928 H 0.81756 0.11883 0.28216 0.0
H4929 H 0.81203 0.11376 0.25656 0.0
H4930 H 0.81904 0.14516 0.25014 0.0
H4931 H 0.80336 0.16752 0.26434 0.0
H4932 H 0.7212 0.08034 0.07662 0.0
H4933 H 0.6893 0.06744 0.06969 0.0
H4934 H 0.68608 0.09577 0.01977 0.0
H4935 H 0.71772 0.1082 0.0262 0.0
H4936 H 0.66015 0.08434 0.06526 0.0
H4937 H 0.66703 0.04324 0.99771 0.0
H4938 H 0.68581 0.05385 0.01513 0.0
H4939 H 0.67608 0.06683 0.99858 0.0
C4940 C 0.71362 0.08373 0.06419 0.0
C4941 C 0.72187 0.09479 0.05164 0.0
C4942 C 0.69552 0.07643 0.06028 0.0
C4943 C 0.68568 0.08034 0.04394 0.0
C4944 C 0.69371 0.09221 0.03207 0.0
H4945 H 0.57297 0.06158 0.01906 0.0
H4946 H 0.60446 0.07347 0.01934 0.0
C4947 C 0.71173 0.09926 0.03578 0.0
C4948 C 0.66698 0.07187 0.03903 0.0
H4949 H 0.63766 0.04444 0.00404 0.0
C4950 C 0.6552 0.07554 0.05196 0.0
C4951 C 0.66078 0.06044 0.02161 0.0
C4952 C 0.6731 0.05571 0.00753 0.0
C4953 C 0.63715 0.06809 0.04781 0.0
C4954 C 0.63097 0.05694 0.03026 0.0
C4955 C 0.64269 0.05315 0.01738 0.0
C4956 C 0.61229 0.04866 0.02552 0.0
C4957 C 0.6248 0.07204 0.06222 0.0
C4958 C 0.60658 0.03056 0.02789 0.0
C4959 C 0.58858 0.02363 0.0275 0.0
C4960 C 0.57636 0.03485 0.02475 0.0
C4961 C 0.58212 0.05258 0.02091 0.0
C4962 C 0.60006 0.05944 0.02119 0.0
H4963 H 0.63214 0.07855 0.07634 0.0
H4964 H 0.61651 0.08123 0.0566 0.0
H4965 H 0.61576 0.05946 0.06446 0.0
H4966 H 0.61607 0.02219 0.03126 0.0
H4967 H 0.58434 0.00989 0.03043 0.0
H4968 H 0.22077 0.50096 0.23628 0.0
H4969 H 0.23807 0.47756 0.2395 0.0
H4970 H 0.19009 0.43874 0.24177 0.0
H4971 H 0.17267 0.46195 0.23819 0.0
H4972 H 0.23694 0.46287 0.27311 0.0
H4973 H 0.21882 0.40901 0.2116 0.0
H4974 H 0.21539 0.43166 0.21 0.0
H4975 H 0.1997 0.41576 0.22005 0.0
C4976 C 0.21388 0.48729 0.23684 0.0
C4977 C 0.19547 0.48319 0.23726 0.0
C4978 C 0.22375 0.47398 0.23853 0.0
C4979 C 0.21529 0.45649 0.24064 0.0
C4980 C 0.19676 0.45209 0.23962 0.0
H4981 H 0.22618 0.37016 0.30099 0.0
H4982 H 0.21789 0.39288 0.28148 0.0
C4983 C 0.18685 0.46538 0.23777 0.0
C4984 C 0.22574 0.44398 0.248 0.0
H4985 H 0.22895 0.39992 0.24236 0.0
C4986 C 0.23568 0.44924 0.26616 0.0
C4987 C 0.22386 0.42629 0.23886 0.0
C4988 C 0.214 0.4204 0.21895 0.0
C4989 C 0.24276 0.4368 0.27613 0.0
C4990 C 0.23991 0.41883 0.26749 0.0
C4991 C 0.2309 0.41378 0.24886 0.0
C4992 C 0.24496 0.40486 0.27835 0.0
C4993 C 0.25221 0.44262 0.29628 0.0
C4994 C 0.26285 0.40447 0.28302 0.0
C4995 C 0.26759 0.39187 0.29441 0.0
C4996 C 0.25446 0.37937 0.30103 0.0
C4997 C 0.23652 0.37983 0.2963 0.0
C4998 C 0.23179 0.39254 0.28497 0.0
H4999 H 0.25133 0.45658 0.30172 0.0
H5000 H 0.24654 0.43339 0.30631 0.0
H5001 H 0.26643 0.442 0.29644 0.0
H5002 H 0.27309 0.41399 0.27797 0.0
H5003 H 0.28154 0.39184 0.29799 0.0
H5004 H 0.21837 0.38644 0.03641 0.0
H5005 H 0.19503 0.40399 0.03348 0.0
H5006 H 0.23413 0.45137 0.02902 0.0
H5007 H 0.25752 0.43389 0.03159 0.0
H5008 H 0.18985 0.4349 0.05547 0.0
H5009 H 0.19912 0.4474 0.98056 0.0
H5010 H 0.20883 0.43095 0.9923 0.0
H5011 H 0.21899 0.45446 0.99724 0.0
C5012 C 0.22202 0.4006 0.0348 0.0
C5013 C 0.2398 0.40872 0.03403 0.0
C5014 C 0.20866 0.41061 0.03321 0.0
C5015 C 0.21281 0.4289 0.03076 0.0
C5016 C 0.23059 0.43718 0.03053 0.0
H5017 H 0.15255 0.50927 0.00409 0.0
H5018 H 0.17553 0.49398 0.0169 0.0
C5019 C 0.24395 0.42717 0.03205 0.0
C5020 C 0.19851 0.43923 0.02792 0.0
H5021 H 0.17984 0.46313 0.9959 0.0
C5022 C 0.18761 0.44108 0.04245 0.0
C5023 C 0.19554 0.44712 0.01085 0.0
C5024 C 0.20611 0.44477 0.99426 0.0
C5025 C 0.17408 0.45101 0.04054 0.0
C5026 C 0.17133 0.45912 0.02358 0.0
C5027 C 0.18213 0.4571 0.00901 0.0
C5028 C 0.1572 0.46957 0.02017 0.0
C5029 C 0.16307 0.45302 0.05677 0.0
C5030 C 0.13921 0.46118 0.01847 0.0
C5031 C 0.12605 0.47003 0.01137 0.0
C5032 C 0.13078 0.48727 0.00574 0.0
C5033 C 0.14865 0.49604 0.00854 0.0
C5034 C 0.16174 0.48729 0.01577 0.0
H5035 H 0.16964 0.44997 0.07049 0.0
H5036 H 0.16044 0.46686 0.05891 0.0
H5037 H 0.15013 0.44348 0.05317 0.0
H5038 H 0.1354 0.44738 0.02139 0.0
H5039 H 0.11235 0.46293 0.00898 0.0
H5040 H 0.88393 0.95065 0.21624 0.0
H5041 H 0.86536 0.92175 0.22005 0.0
H5042 H 0.86612 0.93931 0.2803 0.0
H5043 H 0.88446 0.96831 0.27662 0.0
H5044 H 0.87309 0.89646 0.24518 0.0
H5045 H 0.81302 0.92236 0.26115 0.0
H5046 H 0.83087 0.93551 0.25092 0.0
H5047 H 0.83321 0.93309 0.27611 0.0
C5048 C 0.88007 0.94841 0.23028 0.0
C5049 C 0.88556 0.96185 0.24609 0.0
C5050 C 0.86949 0.93189 0.23243 0.0
C5051 C 0.86416 0.92852 0.25038 0.0
C5052 C 0.86978 0.94179 0.26624 0.0
H5053 H 0.79605 0.83807 0.28884 0.0
H5054 H 0.81455 0.86726 0.28587 0.0
C5055 C 0.88032 0.95834 0.2641 0.0
C5056 C 0.85296 0.91097 0.25255 0.0
H5057 H 0.81228 0.89153 0.26328 0.0
C5058 C 0.85977 0.89533 0.24909 0.0
C5059 C 0.8357 0.90963 0.25788 0.0
C5060 C 0.82766 0.92601 0.2616 0.0
C5061 C 0.84985 0.87831 0.25103 0.0
C5062 C 0.83235 0.87687 0.25588 0.0
C5063 C 0.82562 0.89259 0.25946 0.0
C5064 C 0.82082 0.85924 0.25741 0.0
C5065 C 0.8585 0.86221 0.24842 0.0
C5066 C 0.8178 0.84513 0.24226 0.0
C5067 C 0.80761 0.82834 0.24415 0.0
C5068 C 0.7997 0.82561 0.26093 0.0
C5069 C 0.80192 0.83994 0.27569 0.0
C5070 C 0.81253 0.85658 0.27402 0.0
H5071 H 0.87318 0.86621 0.25122 0.0
H5072 H 0.85399 0.85213 0.25813 0.0
H5073 H 0.85504 0.85574 0.23333 0.0
H5074 H 0.82343 0.84703 0.229 0.0
H5075 H 0.8059 0.8175 0.23251 0.0
H5076 H 0.67479 0.0974 0.76386 0.0
H5077 H 0.69149 0.12855 0.77021 0.0
H5078 H 0.7359 0.11232 0.74622 0.0
H5079 H 0.71944 0.08118 0.73989 0.0
H5080 H 0.73712 0.13583 0.79036 0.0
H5081 H 0.71193 0.15899 0.72189 0.0
H5082 H 0.69751 0.14312 0.7335 0.0
H5083 H 0.71534 0.13624 0.72241 0.0
C5084 C 0.68804 0.10056 0.75979 0.0
C5085 C 0.696 0.08707 0.75159 0.0
C5086 C 0.69752 0.11818 0.76354 0.0
C5087 C 0.71483 0.1223 0.75888 0.0
C5088 C 0.72258 0.10904 0.75009 0.0
H5089 H 0.79329 0.21879 0.76809 0.0
H5090 H 0.77964 0.18812 0.77334 0.0
C5091 C 0.7132 0.09142 0.74648 0.0
C5092 C 0.72484 0.14061 0.76298 0.0
H5093 H 0.73226 0.17997 0.74388 0.0
C5094 C 0.73611 0.14564 0.78036 0.0
C5095 C 0.72334 0.15291 0.74963 0.0
C5096 C 0.71141 0.14768 0.73075 0.0
C5097 C 0.74591 0.16321 0.78492 0.0
C5098 C 0.74425 0.17557 0.77161 0.0
C5099 C 0.7332 0.17033 0.75409 0.0
C5100 C 0.75361 0.19424 0.77514 0.0
C5101 C 0.7577 0.16856 0.80383 0.0
C5102 C 0.74343 0.20755 0.77475 0.0
C5103 C 0.75092 0.22453 0.77082 0.0
C5104 C 0.76883 0.22862 0.7684 0.0
C5105 C 0.77943 0.21576 0.77027 0.0
C5106 C 0.77179 0.19847 0.77359 0.0
H5107 H 0.75534 0.15815 0.81375 0.0
H5108 H 0.77178 0.17054 0.80118 0.0
H5109 H 0.75555 0.18151 0.81093 0.0
H5110 H 0.72928 0.20426 0.77546 0.0
H5111 H 0.74237 0.23393 0.76829 0.0
loop_
_geom_bond_atom_site_label_1
_geom_bond_atom_site_label_2
_geom_bond_distance
_geom_bond_site_symmetry_2
_ccdc_geom_bond_type
C0 O1 1.160 . S
C0 O7 1.185 . S
O1 C0 1.160 . S
O2 Zn3 1.899 . S
O2 C10 1.284 . S
Zn3 O2 1.899 . S
Zn3 O4 2.032 . S
Zn3 O7 2.086 . S
Zn3 O12 1.977 . S
O4 Zn3 2.032 . S
O4 C8 1.278 . S
C5 O6 1.203 . S
C5 O12 1.267 1_655 S
O6 C5 1.203 . S
O7 C0 1.185 . S
O7 Zn3 2.086 . S
C8 O4 1.278 . S
C8 O9 1.211 . S
O9 C8 1.211 . S
C10 O2 1.284 . S
C10 O11 1.273 . S
O11 C10 1.273 . S
O12 Zn3 1.977 . S
O12 C5 1.267 1_455 S
C13 O14 1.160 . S
C13 O20 1.185 . S
O14 C13 1.160 . S
O15 Zn16 1.899 . S
O15 C23 1.284 . S
Zn16 O15 1.899 . S
Zn16 O17 2.032 . S
Zn16 O20 2.086 1_455 S
Zn16 O25 1.977 . S
O17 Zn16 2.032 . S
O17 C21 1.278 . S
C18 O19 1.203 . S
C18 O25 1.267 . S
O19 C18 1.203 . S
O20 C13 1.185 . S
O20 Zn16 2.086 1_655 S
C21 O17 1.278 . S
C21 O22 1.211 . S
O22 C21 1.211 . S
C23 O15 1.284 . S
C23 O24 1.273 . S
O24 C23 1.273 . S
O25 Zn16 1.977 . S
O25 C18 1.267 . S
C26 O27 1.160 . S
C26 O33 1.185 . S
O27 C26 1.160 . S
O28 Zn29 1.899 . S
O28 C36 1.284 . S
Zn29 O28 1.899 . S
Zn29 O30 2.032 . S
Zn29 O33 2.086 . S
Zn29 O38 1.977 . S
O30 Zn29 2.032 . S
O30 C34 1.278 . S
C31 O32 1.203 . S
C31 O38 1.267 . S
O32 C31 1.203 . S
O33 C26 1.185 . S
O33 Zn29 2.086 . S
C34 O30 1.278 . S
C34 O35 1.211 . S
O35 C34 1.211 . S
C36 O28 1.284 . S
C36 O37 1.273 . S
O37 C36 1.273 . S
O38 Zn29 1.977 . S
O38 C31 1.267 . S
C39 O40 1.160 . S
C39 O46 1.185 . S
O40 C39 1.160 . S
O41 Zn42 1.899 . S
O41 C49 1.284 . S
Zn42 O41 1.899 . S
Zn42 O43 2.032 . S
Zn42 O46 2.086 . S
Zn42 O51 1.977 . S
O43 Zn42 2.032 . S
O43 C47 1.278 . S
C44 O45 1.203 . S
C44 O51 1.267 . S
O45 C44 1.203 . S
O46 C39 1.185 . S
O46 Zn42 2.086 . S
C47 O43 1.278 . S
C47 O48 1.211 . S
O48 C47 1.211 . S
C49 O41 1.284 . S
C49 O50 1.273 . S
O50 C49 1.273 . S
O51 Zn42 1.977 . S
O51 C44 1.267 . S
C52 O53 1.160 . S
C52 O59 1.185 . S
O53 C52 1.160 . S
O54 Zn55 1.899 . S
O54 C62 1.284 . S
Zn55 O54 1.899 . S
Zn55 O56 2.032 . S
Zn55 O59 2.086 . S
Zn55 O64 1.977 . S
O56 Zn55 2.032 . S
O56 C60 1.278 . S
C57 O58 1.203 . S
C57 O64 1.267 . S
O58 C57 1.203 . S
O59 C52 1.185 . S
O59 Zn55 2.086 . S
C60 O56 1.278 . S
C60 O61 1.211 . S
O61 C60 1.211 . S
C62 O54 1.284 . S
C62 O63 1.273 . S
O63 C62 1.273 . S
O64 Zn55 1.977 . S
O64 C57 1.267 . S
C65 O66 1.160 . S
C65 O72 1.185 . S
O66 C65 1.160 . S
O67 Zn68 1.899 . S
O67 C75 1.284 . S
Zn68 O67 1.899 . S
Zn68 O69 2.032 . S
Zn68 O72 2.086 . S
Zn68 O77 1.977 . S
O69 Zn68 2.032 . S
O69 C73 1.278 . S
C70 O71 1.203 . S
C70 O77 1.267 . S
O71 C70 1.203 . S
O72 C65 1.185 . S
O72 Zn68 2.086 . S
C73 O69 1.278 . S
C73 O74 1.211 . S
O74 C73 1.211 . S
C75 O67 1.284 . S
C75 O76 1.273 . S
O76 C75 1.273 . S
O77 Zn68 1.977 . S
O77 C70 1.267 . S
C78 O79 1.160 . S
C78 O85 1.185 . S
O79 C78 1.160 . S
O80 Zn81 1.899 . S
O80 C88 1.284 . S
Zn81 O80 1.899 . S
Zn81 O82 2.032 . S
Zn81 O85 2.086 . S
Zn81 O90 1.977 . S
O82 Zn81 2.032 . S
O82 C86 1.278 . S
C83 O84 1.203 . S
C83 O90 1.267 . S
O84 C83 1.203 . S
O85 C78 1.185 . S
O85 Zn81 2.086 . S
C86 O82 1.278 . S
C86 O87 1.211 . S
O87 C86 1.211 . S
C88 O80 1.284 . S
C88 O89 1.273 . S
O89 C88 1.273 . S
O90 Zn81 1.977 . S
O90 C83 1.267 . S
C91 O92 1.160 . S
C91 O98 1.185 . S
O92 C91 1.160 . S
O93 Zn94 1.900 . S
O93 C101 1.285 1_455 S
Zn94 O93 1.900 . S
Zn94 O95 2.032 . S
Zn94 O98 2.086 . S
Zn94 O103 1.977 1_455 S
O95 Zn94 2.032 . S
O95 C99 1.278 . S
C96 O97 1.203 . S
C96 O103 1.267 . S
O97 C96 1.203 . S
O98 C91 1.185 . S
O98 Zn94 2.086 . S
C99 O95 1.278 . S
C99 O100 1.211 1_455 S
O100 C99 1.211 1_655 S
C101 O93 1.285 1_655 S
C101 O102 1.273 . S
O102 C101 1.273 . S
O103 Zn94 1.977 1_655 S
O103 C96 1.267 . S
C104 O105 1.160 . S
C104 O111 1.185 . S
O105 C104 1.160 . S
O106 Zn107 1.899 . S
O106 C114 1.284 . S
Zn107 O106 1.899 . S
Zn107 O108 2.032 . S
Zn107 O111 2.086 . S
Zn107 O116 1.977 1_545 S
O108 Zn107 2.032 . S
O108 C112 1.278 . S
C109 O110 1.203 . S
C109 O116 1.267 . S
O110 C109 1.203 . S
O111 C104 1.185 . S
O111 Zn107 2.086 . S
C112 O108 1.278 . S
C112 O113 1.211 1_545 S
O113 C112 1.211 1_565 S
C114 O106 1.284 . S
C114 O115 1.273 . S
O115 C114 1.273 . S
O116 Zn107 1.977 1_565 S
O116 C109 1.267 . S
C117 O118 1.160 . S
C117 O124 1.185 . S
O118 C117 1.160 . S
O119 Zn120 1.899 . S
O119 C127 1.284 . S
Zn120 O119 1.899 . S
Zn120 O121 2.032 . S
Zn120 O124 2.086 . S
Zn120 O129 1.977 . S
O121 Zn120 2.032 . S
O121 C125 1.278 . S
C122 O123 1.203 . S
C122 O129 1.267 . S
O123 C122 1.203 . S
O124 C117 1.185 . S
O124 Zn120 2.086 . S
C125 O121 1.278 . S
C125 O126 1.211 . S
O126 C125 1.211 . S
C127 O119 1.284 . S
C127 O128 1.273 . S
O128 C127 1.273 . S
O129 Zn120 1.977 . S
O129 C122 1.267 . S
C130 O131 1.169 . S
C130 O137 1.144 1_565 S
O131 C130 1.169 . S
O132 Zn133 1.899 . S
O132 C140 1.284 . S
Zn133 O132 1.899 . S
Zn133 O134 2.032 . S
Zn133 O137 2.086 . S
Zn133 O142 1.977 . S
O134 Zn133 2.032 . S
O134 C138 1.278 . S
C135 O136 1.203 . S
C135 O142 1.267 . S
O136 C135 1.203 . S
O137 C130 1.144 1_545 S
O137 Zn133 2.086 . S
C138 O134 1.278 . S
C138 O139 1.211 . S
O139 C138 1.211 . S
C140 O132 1.284 . S
C140 O141 1.273 . S
O141 C140 1.273 . S
O142 Zn133 1.977 . S
O142 C135 1.267 . S
C143 O144 1.160 . S
C143 O150 1.185 1_554 S
O144 C143 1.160 . S
O145 Zn146 1.899 . S
O145 C153 1.284 . S
Zn146 O145 1.899 . S
Zn146 O147 2.032 1_554 S
Zn146 O150 2.086 1_554 S
Zn146 O155 1.981 . S
O147 Zn146 2.032 1_556 S
O147 C151 1.278 . S
C148 O149 1.203 . S
C148 O155 1.270 . S
O149 C148 1.203 . S
O150 C143 1.185 1_556 S
O150 Zn146 2.086 1_556 S
C151 O147 1.278 . S
C151 O152 1.211 . S
O152 C151 1.211 . S
C153 O145 1.284 . S
C153 O154 1.273 . S
O154 C153 1.273 . S
O155 Zn146 1.981 . S
O155 C148 1.270 . S
C156 O157 1.160 . S
C156 O163 1.185 . S
O157 C156 1.160 . S
O158 Zn159 1.899 . S
O158 C166 1.284 . S
Zn159 O158 1.899 . S
Zn159 O160 2.032 . S
Zn159 O163 2.086 . S
Zn159 O168 1.977 . S
O160 Zn159 2.032 . S
O160 C164 1.278 . S
C161 O162 1.203 . S
C161 O168 1.267 . S
O162 C161 1.203 . S
O163 C156 1.185 . S
O163 Zn159 2.086 . S
C164 O160 1.278 . S
C164 O165 1.211 . S
O165 C164 1.211 . S
C166 O158 1.284 . S
C166 O167 1.273 . S
O167 C166 1.273 . S
O168 Zn159 1.977 . S
O168 C161 1.267 . S
C169 O170 1.160 . S
C169 O176 1.185 . S
O170 C169 1.160 . S
O171 Zn172 1.899 . S
O171 C179 1.284 . S
Zn172 O171 1.899 . S
Zn172 O173 2.032 . S
Zn172 O176 2.086 . S
Zn172 O181 1.977 . S
O173 Zn172 2.032 . S
O173 C177 1.278 . S
C174 O175 1.203 . S
C174 O181 1.267 . S
O175 C174 1.203 . S
O176 C169 1.185 . S
O176 Zn172 2.086 . S
C177 O173 1.278 . S
C177 O178 1.211 . S
O178 C177 1.211 . S
C179 O171 1.284 . S
C179 O180 1.273 . S
O180 C179 1.273 . S
O181 Zn172 1.977 . S
O181 C174 1.267 . S
C182 O183 1.160 . S
C182 O189 1.185 . S
O183 C182 1.160 . S
O184 Zn185 1.899 . S
O184 C192 1.284 . S
Zn185 O184 1.899 . S
Zn185 O186 2.032 . S
Zn185 O189 2.086 . S
Zn185 O194 1.977 . S
O186 Zn185 2.032 . S
O186 C190 1.278 . S
C187 O188 1.203 . S
C187 O194 1.267 . S
O188 C187 1.203 . S
O189 C182 1.185 . S
O189 Zn185 2.086 . S
C190 O186 1.278 . S
C190 O191 1.211 . S
O191 C190 1.211 . S
C192 O184 1.284 . S
C192 O193 1.273 . S
O193 C192 1.273 . S
O194 Zn185 1.977 . S
O194 C187 1.267 . S
C195 O196 1.160 . S
C195 O202 1.185 . S
O196 C195 1.160 . S
O197 Zn198 1.899 . S
O197 C205 1.284 . S
Zn198 O197 1.899 . S
Zn198 O199 2.032 . S
Zn198 O202 2.086 . S
Zn198 O207 1.977 . S
O199 Zn198 2.032 . S
O199 C203 1.278 . S
C200 O201 1.203 . S
C200 O207 1.267 . S
O201 C200 1.203 . S
O202 C195 1.185 . S
O202 Zn198 2.086 . S
C203 O199 1.278 . S
C203 O204 1.211 . S
O204 C203 1.211 . S
C205 O197 1.284 . S
C205 O206 1.273 . S
O206 C205 1.273 . S
O207 Zn198 1.977 . S
O207 C200 1.267 . S
C208 O209 1.160 . S
C208 O215 1.185 . S
O209 C208 1.160 . S
O210 Zn211 1.899 . S
O210 C218 1.284 . S
Zn211 O210 1.899 . S
Zn211 O212 2.032 . S
Zn211 O215 2.086 . S
Zn211 O220 1.977 1_545 S
O212 Zn211 2.032 . S
O212 C216 1.278 . S
C213 O214 1.203 . S
C213 O220 1.267 . S
O214 C213 1.203 . S
O215 C208 1.185 . S
O215 Zn211 2.086 . S
C216 O212 1.278 . S
C216 O217 1.211 1_545 S
O217 C216 1.211 1_565 S
C218 O210 1.284 . S
C218 O219 1.273 . S
O219 C218 1.273 . S
O220 Zn211 1.977 1_565 S
O220 C213 1.267 . S
C221 O222 1.160 . S
C221 O228 1.185 . S
O222 C221 1.160 . S
O223 Zn224 1.899 . S
O223 C231 1.284 . S
Zn224 O223 1.899 . S
Zn224 O225 2.032 . S
Zn224 O228 2.086 . S
Zn224 O233 1.977 . S
O225 Zn224 2.032 . S
O225 C229 1.278 . S
C226 O227 1.203 . S
C226 O233 1.267 . S
O227 C226 1.203 . S
O228 C221 1.185 . S
O228 Zn224 2.086 . S
C229 O225 1.278 . S
C229 O230 1.211 . S
O230 C229 1.211 . S
C231 O223 1.284 . S
C231 O232 1.273 . S
O232 C231 1.273 . S
O233 Zn224 1.977 . S
O233 C226 1.267 . S
C234 O235 1.160 . S
C234 O241 1.185 . S
O235 C234 1.160 . S
O236 Zn237 1.899 . S
O236 C244 1.284 . S
Zn237 O236 1.899 . S
Zn237 O238 2.032 . S
Zn237 O241 2.086 . S
Zn237 O246 1.977 . S
O238 Zn237 2.032 . S
O238 C242 1.278 . S
C239 O240 1.203 . S
C239 O246 1.267 . S
O240 C239 1.203 . S
O241 C234 1.185 . S
O241 Zn237 2.086 . S
C242 O238 1.278 . S
C242 O243 1.211 . S
O243 C242 1.211 . S
C244 O236 1.284 . S
C244 O245 1.273 . S
O245 C244 1.273 . S
O246 Zn237 1.977 . S
O246 C239 1.267 . S
C247 O248 1.155 1_545 S
C247 O254 1.185 . S
O248 C247 1.155 1_565 S
O249 Zn250 1.899 . S
O249 C257 1.284 . S
Zn250 O249 1.899 . S
Zn250 O251 2.032 . S
Zn250 O254 2.086 . S
Zn250 O259 1.977 . S
O251 Zn250 2.032 . S
O251 C255 1.278 . S
C252 O253 1.203 . S
C252 O259 1.267 . S
O253 C252 1.203 . S
O254 C247 1.185 . S
O254 Zn250 2.086 . S
C255 O251 1.278 . S
C255 O256 1.211 . S
O256 C255 1.211 . S
C257 O249 1.284 . S
C257 O258 1.273 . S
O258 C257 1.273 . S
O259 Zn250 1.977 . S
O259 C252 1.267 . S
C260 O261 1.160 . S
C260 O267 1.185 . S
O261 C260 1.160 . S
O262 Zn263 1.899 . S
O262 C270 1.284 . S
Zn263 O262 1.899 . S
Zn263 O264 2.032 1_554 S
Zn263 O267 2.086 . S
Zn263 O272 1.977 . S
O264 Zn263 2.032 1_556 S
O264 C268 1.278 . S
C265 O266 1.203 . S
C265 O272 1.267 . S
O266 C265 1.203 . S
O267 C260 1.185 . S
O267 Zn263 2.086 . S
C268 O264 1.278 . S
C268 O269 1.211 . S
O269 C268 1.211 . S
C270 O262 1.284 . S
C270 O271 1.273 . S
O271 C270 1.273 . S
O272 Zn263 1.977 . S
O272 C265 1.267 . S
C273 O274 1.160 . S
C273 O280 1.185 . S
O274 C273 1.160 . S
O275 Zn276 1.899 . S
O275 C283 1.284 . S
Zn276 O275 1.899 . S
Zn276 O277 2.032 . S
Zn276 O280 2.086 . S
Zn276 O285 1.977 . S
O277 Zn276 2.032 . S
O277 C281 1.278 . S
C278 O279 1.203 . S
C278 O285 1.267 . S
O279 C278 1.203 . S
O280 C273 1.185 . S
O280 Zn276 2.086 . S
C281 O277 1.278 . S
C281 O282 1.211 . S
O282 C281 1.211 . S
C283 O275 1.284 . S
C283 O284 1.273 . S
O284 C283 1.273 . S
O285 Zn276 1.977 . S
O285 C278 1.267 . S
C286 O287 1.160 . S
C286 O293 1.185 . S
O287 C286 1.160 . S
O288 Zn289 1.899 . S
O288 C296 1.284 . S
Zn289 O288 1.899 . S
Zn289 O290 2.032 . S
Zn289 O293 2.086 . S
Zn289 O298 1.977 . S
O290 Zn289 2.032 . S
O290 C294 1.278 . S
C291 O292 1.203 . S
C291 O298 1.267 . S
O292 C291 1.203 . S
O293 C286 1.185 . S
O293 Zn289 2.086 . S
C294 O290 1.278 . S
C294 O295 1.211 . S
O295 C294 1.211 . S
C296 O288 1.284 . S
C296 O297 1.273 . S
O297 C296 1.273 . S
O298 Zn289 1.977 . S
O298 C291 1.267 . S
C299 O300 1.160 . S
C299 O306 1.185 . S
O300 C299 1.160 . S
O301 Zn302 1.899 . S
O301 C309 1.284 . S
Zn302 O301 1.899 . S
Zn302 O303 2.032 . S
Zn302 O306 2.086 . S
Zn302 O311 1.977 . S
O303 Zn302 2.032 . S
O303 C307 1.278 . S
C304 O305 1.203 . S
C304 O311 1.267 . S
O305 C304 1.203 . S
O306 C299 1.185 . S
O306 Zn302 2.086 . S
C307 O303 1.278 . S
C307 O308 1.211 . S
O308 C307 1.211 . S
C309 O301 1.284 . S
C309 O310 1.273 . S
O310 C309 1.273 . S
O311 Zn302 1.977 . S
O311 C304 1.267 . S
Tb312 N341 2.617 . S
Tb312 N347 2.572 . S
Tb312 O356 2.465 . S
Tb312 O357 2.387 . S
Tb312 O359 2.428 . S
Tb312 O360 2.289 1_554 S
Tb312 O364 2.349 1_545 S
Tb312 O367 2.393 . S
Tb312 C376 2.802 . S
C313 N314 1.379 . S
C313 C316 1.416 . S
C313 C320 1.433 . S
N314 C313 1.379 . S
N314 C317 1.334 . S
N314 Tb323 2.617 1_566 S
C315 C317 1.390 . S
C315 C318 1.339 . S
C315 H335 0.930 . S
C316 C313 1.416 . S
C316 C318 1.416 . S
C316 C322 1.448 . S
C317 N314 1.334 . S
C317 C315 1.390 . S
C317 H328 0.930 . S
C318 C315 1.339 . S
C318 C316 1.416 . S
C318 H339 0.930 . S
C319 C320 1.408 1_554 S
C319 C321 1.427 1_554 S
C319 C325 1.416 . S
C320 C313 1.433 . S
C320 C319 1.408 1_556 S
C320 N324 1.356 1_556 S
C321 C319 1.427 1_556 S
C321 C322 1.328 . S
C321 H336 0.929 . S
C322 C316 1.448 . S
C322 C321 1.328 . S
C322 H337 0.930 . S
Tb323 N314 2.617 1_544 S
Tb323 N324 2.572 1_545 S
Tb323 O358 2.349 1_655 S
Tb323 O361 2.393 1_654 S
Tb323 O362 2.465 . S
Tb323 O363 2.387 1_645 S
Tb323 O365 2.428 1_554 S
Tb323 O366 2.308 1_655 S
Tb323 C387 2.802 1_554 S
N324 C320 1.356 1_554 S
N324 Tb323 2.572 1_565 S
N324 C326 1.340 . S
C325 C319 1.416 . S
C325 C327 1.332 . S
C325 H333 0.931 . S
C326 N324 1.340 . S
C326 C327 1.407 . S
C326 H332 0.930 . S
C327 C325 1.332 . S
C327 C326 1.407 . S
C327 H329 0.929 . S
H328 C317 0.930 . S
H329 C327 0.929 . S
H330 C345 0.930 . S
H331 C352 0.929 . S
H332 C326 0.930 . S
H333 C325 0.931 . S
H334 C348 0.930 1_556 S
H335 C315 0.930 . S
H336 C321 0.929 . S
H337 C322 0.930 . S
H338 C343 0.930 . S
H339 C318 0.930 . S
H340 C351 0.931 . S
N341 Tb312 2.617 . S
N341 C342 1.379 . S
N341 C345 1.334 . S
C342 N341 1.379 . S
C342 C344 1.416 . S
C342 C350 1.424 . S
C343 H338 0.930 . S
C343 C345 1.390 . S
C343 C346 1.339 . S
C344 C342 1.416 . S
C344 C346 1.416 . S
C344 C377 1.448 . S
C345 H330 0.930 . S
C345 N341 1.334 . S
C345 C343 1.390 . S
C346 C343 1.339 . S
C346 C344 1.416 . S
C346 H353 0.930 . S
N347 Tb312 2.572 . S
N347 C348 1.340 . S
N347 C350 1.361 . S
C348 H334 0.930 1_554 S
C348 N347 1.340 . S
C348 C352 1.407 1_554 S
C349 C350 1.413 . S
C349 C351 1.416 . S
C349 C378 1.427 . S
C350 C342 1.424 . S
C350 N347 1.361 . S
C350 C349 1.413 . S
C351 H340 0.931 . S
C351 C349 1.416 . S
C351 C352 1.332 1_554 S
C352 H331 0.929 . S
C352 C348 1.407 1_556 S
C352 C351 1.332 1_556 S
H353 C346 0.930 . S
H354 C377 0.930 . S
H355 C378 0.929 . S
O356 Tb312 2.465 . S
O356 C376 1.264 . S
O357 Tb312 2.387 . S
O357 C368 1.264 . S
O358 Tb323 2.349 1_455 S
O358 C368 1.243 . S
O359 Tb312 2.428 . S
O359 C376 1.256 . S
O360 Tb312 2.289 1_556 S
O360 C375 1.283 . S
O361 Tb323 2.393 1_456 S
O361 C375 1.248 . S
O362 Tb323 2.465 . S
O362 C387 1.264 1_554 S
O363 Tb323 2.387 1_465 S
O363 C379 1.264 . S
O364 Tb312 2.349 1_565 S
O364 C379 1.243 . S
O365 Tb323 2.428 1_556 S
O365 C387 1.256 . S
O366 Tb323 2.308 1_455 S
O366 C386 1.266 . S
O367 Tb312 2.393 . S
O367 C386 1.248 . S
C368 O357 1.264 . S
C368 O358 1.243 . S
C369 C372 1.399 . S
C369 C374 1.383 . S
C369 C376 1.496 . S
C370 C371 1.399 . S
C370 C374 1.389 1_565 S
C371 C370 1.399 . S
C371 C373 1.380 1_565 S
C371 H388 0.929 . S
C372 C369 1.399 . S
C372 C373 1.392 . S
C372 H389 0.929 . S
C373 C371 1.380 1_545 S
C373 C372 1.392 . S
C373 H390 0.929 . S
C374 C369 1.383 . S
C374 C370 1.389 1_545 S
C374 H391 0.931 . S
C375 O360 1.283 . S
C375 O361 1.248 . S
C376 Tb312 2.802 . S
C376 O356 1.264 . S
C376 O359 1.256 . S
C376 C369 1.496 . S
C377 C344 1.448 . S
C377 H354 0.930 . S
C377 C378 1.328 . S
C378 C349 1.427 . S
C378 H355 0.929 . S
C378 C377 1.328 . S
C379 O363 1.264 . S
C379 O364 1.243 . S
C380 C383 1.399 . S
C380 C384 1.383 1_556 S
C380 C387 1.496 . S
C381 C382 1.399 1_554 S
C381 C384 1.389 . S
C382 C381 1.399 1_556 S
C382 C385 1.380 . S
C382 H392 0.929 . S
C383 C380 1.399 . S
C383 C385 1.392 . S
C383 H393 0.929 . S
C384 C380 1.383 1_554 S
C384 C381 1.389 . S
C384 H394 0.931 . S
C385 C382 1.380 . S
C385 C383 1.392 . S
C385 H395 0.929 . S
C386 O366 1.266 . S
C386 O367 1.248 . S
C387 Tb323 2.802 1_556 S
C387 O362 1.264 1_556 S
C387 O365 1.256 . S
C387 C380 1.496 . S
H388 C371 0.929 . S
H389 C372 0.929 . S
H390 C373 0.929 . S
H391 C374 0.931 . S
H392 C382 0.929 . S
H393 C383 0.929 . S
H394 C384 0.931 . S
H395 C385 0.929 . S
Tb396 N425 2.617 . S
Tb396 N431 2.572 . S
Tb396 O440 2.465 . S
Tb396 O441 2.387 . S
Tb396 O443 2.428 . S
Tb396 O444 2.308 . S
Tb396 O448 2.349 . S
Tb396 O451 2.393 . S
Tb396 C460 2.802 . S
C397 N398 1.379 . S
C397 C400 1.416 . S
C397 C404 1.424 . S
N398 C397 1.379 . S
N398 C401 1.334 . S
N398 Tb407 2.617 . S
C399 C401 1.390 . S
C399 C402 1.339 . S
C399 H419 0.930 . S
C400 C397 1.416 . S
C400 C402 1.416 . S
C400 C406 1.448 . S
C401 N398 1.334 . S
C401 C399 1.390 . S
C401 H412 0.930 . S
C402 C399 1.339 . S
C402 C400 1.416 . S
C402 H423 0.930 . S
C403 C404 1.413 . S
C403 C405 1.427 . S
C403 C409 1.416 . S
C404 C397 1.424 . S
C404 C403 1.413 . S
C404 N408 1.361 . S
C405 C403 1.427 . S
C405 C406 1.328 . S
C405 H420 0.929 . S
C406 C400 1.448 . S
C406 C405 1.328 . S
C406 H421 0.930 . S
Tb407 N398 2.617 . S
Tb407 N408 2.572 . S
Tb407 O442 2.349 . S
Tb407 O445 2.393 . S
Tb407 O446 2.465 . S
Tb407 O447 2.387 . S
Tb407 O449 2.428 . S
Tb407 O450 2.308 . S
Tb407 C471 2.802 . S
N408 C404 1.361 . S
N408 Tb407 2.572 . S
N408 C410 1.340 . S
C409 C403 1.416 . S
C409 C411 1.332 . S
C409 H417 0.931 . S
C410 N408 1.340 . S
C410 C411 1.407 . S
C410 H416 0.930 . S
C411 C409 1.332 . S
C411 C410 1.407 . S
C411 H413 0.929 . S
H412 C401 0.930 . S
H413 C411 0.929 . S
H414 C429 0.930 . S
H415 C436 0.929 . S
H416 C410 0.930 . S
H417 C409 0.931 . S
H418 C432 0.930 . S
H419 C399 0.930 . S
H420 C405 0.929 . S
H421 C406 0.930 . S
H422 C427 0.930 . S
H423 C402 0.930 . S
H424 C435 0.931 . S
N425 Tb396 2.617 . S
N425 C426 1.379 . S
N425 C429 1.334 . S
C426 N425 1.379 . S
C426 C428 1.416 . S
C426 C434 1.424 . S
C427 H422 0.930 . S
C427 C429 1.390 . S
C427 C430 1.339 . S
C428 C426 1.416 . S
C428 C430 1.416 . S
C428 C461 1.448 . S
C429 H414 0.930 . S
C429 N425 1.334 . S
C429 C427 1.390 . S
C430 C427 1.339 . S
C430 C428 1.416 . S
C430 H437 0.930 . S
N431 Tb396 2.572 . S
N431 C432 1.340 . S
N431 C434 1.361 . S
C432 H418 0.930 . S
C432 N431 1.340 . S
C432 C436 1.407 . S
C433 C434 1.413 . S
C433 C435 1.416 . S
C433 C462 1.427 . S
C434 C426 1.424 . S
C434 N431 1.361 . S
C434 C433 1.413 . S
C435 H424 0.931 . S
C435 C433 1.416 . S
C435 C436 1.332 . S
C436 H415 0.929 . S
C436 C432 1.407 . S
C436 C435 1.332 . S
H437 C430 0.930 . S
H438 C461 0.930 . S
H439 C462 0.929 . S
O440 Tb396 2.465 . S
O440 C460 1.264 . S
O441 Tb396 2.387 . S
O441 C452 1.264 . S
O442 Tb407 2.349 . S
O442 C452 1.243 . S
O443 Tb396 2.428 . S
O443 C460 1.256 . S
O444 Tb396 2.308 . S
O444 C459 1.266 . S
O445 Tb407 2.393 . S
O445 C459 1.248 . S
O446 Tb407 2.465 . S
O446 C471 1.264 . S
O447 Tb407 2.387 . S
O447 C463 1.264 . S
O448 Tb396 2.349 . S
O448 C463 1.243 . S
O449 Tb407 2.428 . S
O449 C471 1.256 . S
O450 Tb407 2.308 . S
O450 C470 1.266 . S
O451 Tb396 2.393 . S
O451 C470 1.248 . S
C452 O441 1.264 . S
C452 O442 1.243 . S
C453 C456 1.399 . S
C453 C458 1.383 . S
C453 C460 1.496 . S
C454 C455 1.399 . S
C454 C458 1.389 . S
C455 C454 1.399 . S
C455 C457 1.380 . S
C455 H472 0.929 . S
C456 C453 1.399 . S
C456 C457 1.392 . S
C456 H473 0.929 . S
C457 C455 1.380 . S
C457 C456 1.392 . S
C457 H474 0.929 . S
C458 C453 1.383 . S
C458 C454 1.389 . S
C458 H475 0.931 . S
C459 O444 1.266 . S
C459 O445 1.248 . S
C460 Tb396 2.802 . S
C460 O440 1.264 . S
C460 O443 1.256 . S
C460 C453 1.496 . S
C461 C428 1.448 . S
C461 H438 0.930 . S
C461 C462 1.328 . S
C462 C433 1.427 . S
C462 H439 0.929 . S
C462 C461 1.328 . S
C463 O447 1.264 . S
C463 O448 1.243 . S
C464 C467 1.399 . S
C464 C468 1.383 . S
C464 C471 1.496 . S
C465 C466 1.399 . S
C465 C468 1.389 . S
C466 C465 1.399 . S
C466 C469 1.380 . S
C466 H476 0.929 . S
C467 C464 1.399 . S
C467 C469 1.392 . S
C467 H477 0.929 . S
C468 C464 1.383 . S
C468 C465 1.389 . S
C468 H478 0.931 . S
C469 C466 1.380 . S
C469 C467 1.392 . S
C469 H479 0.929 . S
C470 O450 1.266 . S
C470 O451 1.248 . S
C471 Tb407 2.802 . S
C471 O446 1.264 . S
C471 O449 1.256 . S
C471 C464 1.496 . S
H472 C455 0.929 . S
H473 C456 0.929 . S
H474 C457 0.929 . S
H475 C458 0.931 . S
H476 C466 0.929 . S
H477 C467 0.929 . S
H478 C468 0.931 . S
H479 C469 0.929 . S
Tb480 N509 2.643 . S
Tb480 N515 2.572 1_545 S
Tb480 O524 2.465 . S
Tb480 O525 2.387 1_545 S
Tb480 O527 2.428 . S
Tb480 O528 2.308 . S
Tb480 O532 2.349 . S
Tb480 O535 2.393 . S
Tb480 C544 2.802 . S
C481 N482 1.379 . S
C481 C484 1.416 . S
C481 C488 1.424 . S
N482 C481 1.379 . S
N482 C485 1.334 . S
N482 Tb491 2.617 . S
C483 C485 1.390 . S
C483 C486 1.339 . S
C483 H503 0.930 . S
C484 C481 1.416 . S
C484 C486 1.416 . S
C484 C490 1.448 . S
C485 N482 1.334 . S
C485 C483 1.390 . S
C485 H496 0.930 . S
C486 C483 1.339 . S
C486 C484 1.416 . S
C486 H507 0.930 . S
C487 C488 1.413 . S
C487 C489 1.427 . S
C487 C493 1.416 . S
C488 C481 1.424 . S
C488 C487 1.413 . S
C488 N492 1.361 . S
C489 C487 1.427 . S
C489 C490 1.328 . S
C489 H504 0.929 . S
C490 C484 1.448 . S
C490 C489 1.328 . S
C490 H505 0.930 . S
Tb491 N482 2.617 . S
Tb491 N492 2.572 . S
Tb491 O526 2.349 1_545 S
Tb491 O529 2.393 . S
Tb491 O530 2.465 . S
Tb491 O531 2.387 . S
Tb491 O533 2.428 . S
Tb491 O534 2.308 . S
Tb491 C555 2.802 . S
N492 C488 1.361 . S
N492 Tb491 2.572 . S
N492 C494 1.340 . S
C493 C487 1.416 . S
C493 C495 1.332 . S
C493 H501 0.931 . S
C494 N492 1.340 . S
C494 C495 1.407 . S
C494 H500 0.930 . S
C495 C493 1.332 . S
C495 C494 1.407 . S
C495 H497 0.929 . S
H496 C485 0.930 . S
H497 C495 0.929 . S
H498 C513 0.930 . S
H499 C520 0.929 . S
H500 C494 0.930 . S
H501 C493 0.931 . S
H502 C516 0.930 1_545 S
H503 C483 0.930 . S
H504 C489 0.929 . S
H505 C490 0.930 . S
H506 C511 0.930 . S
H507 C486 0.930 . S
H508 C519 0.931 . S
N509 Tb480 2.643 . S
N509 C510 1.352 1_545 S
N509 C513 1.333 . S
C510 N509 1.352 1_565 S
C510 C512 1.416 . S
C510 C518 1.424 . S
C511 H506 0.930 . S
C511 C513 1.390 1_565 S
C511 C514 1.339 . S
C512 C510 1.416 . S
C512 C514 1.416 . S
C512 C545 1.448 . S
C513 H498 0.930 . S
C513 N509 1.333 . S
C513 C511 1.390 1_545 S
C514 C511 1.339 . S
C514 C512 1.416 . S
C514 H521 0.930 . S
N515 Tb480 2.572 1_565 S
N515 C516 1.340 . S
N515 C518 1.361 . S
C516 H502 0.930 1_565 S
C516 N515 1.340 . S
C516 C520 1.407 . S
C517 C518 1.413 . S
C517 C519 1.416 . S
C517 C546 1.427 . S
C518 C510 1.424 . S
C518 N515 1.361 . S
C518 C517 1.413 . S
C519 H508 0.931 . S
C519 C517 1.416 . S
C519 C520 1.332 . S
C520 H499 0.929 . S
C520 C516 1.407 . S
C520 C519 1.332 . S
H521 C514 0.930 . S
H522 C545 0.930 . S
H523 C546 0.929 . S
O524 Tb480 2.465 . S
O524 C544 1.264 . S
O525 Tb480 2.387 1_565 S
O525 C536 1.264 . S
O526 Tb491 2.349 1_565 S
O526 C536 1.243 . S
O527 Tb480 2.428 . S
O527 C544 1.256 . S
O528 Tb480 2.308 . S
O528 C543 1.266 . S
O529 Tb491 2.393 . S
O529 C543 1.248 . S
O530 Tb491 2.465 . S
O530 C555 1.264 . S
O531 Tb491 2.387 . S
O531 C547 1.264 . S
O532 Tb480 2.349 . S
O532 C547 1.243 . S
O533 Tb491 2.428 . S
O533 C555 1.256 . S
O534 Tb491 2.308 . S
O534 C554 1.266 . S
O535 Tb480 2.393 . S
O535 C554 1.248 . S
C536 O525 1.264 . S
C536 O526 1.243 . S
C537 C540 1.399 . S
C537 C542 1.383 . S
C537 C544 1.496 . S
C538 C539 1.399 . S
C538 C542 1.389 . S
C539 C538 1.399 . S
C539 C541 1.380 . S
C539 H556 0.929 . S
C540 C537 1.399 . S
C540 C541 1.392 . S
C540 H557 0.929 . S
C541 C539 1.380 . S
C541 C540 1.392 . S
C541 H558 0.929 . S
C542 C537 1.383 . S
C542 C538 1.389 . S
C542 H559 0.931 . S
C543 O528 1.266 . S
C543 O529 1.248 . S
C544 Tb480 2.802 . S
C544 O524 1.264 . S
C544 O527 1.256 . S
C544 C537 1.496 . S
C545 C512 1.448 . S
C545 H522 0.930 . S
C545 C546 1.328 . S
C546 C517 1.427 . S
C546 H523 0.929 . S
C546 C545 1.328 . S
C547 O531 1.264 . S
C547 O532 1.243 . S
C548 C551 1.400 1_545 S
C548 C552 1.386 1_545 S
C548 C555 1.492 . S
C549 C550 1.399 . S
C549 C552 1.389 . S
C550 C549 1.399 . S
C550 C553 1.380 . S
C550 H560 0.929 . S
C551 C548 1.400 1_565 S
C551 C553 1.392 . S
C551 H561 0.948 . S
C552 C548 1.386 1_565 S
C552 C549 1.389 . S
C552 H562 0.931 . S
C553 C550 1.380 . S
C553 C551 1.392 . S
C553 H563 0.929 . S
C554 O534 1.266 . S
C554 O535 1.248 . S
C555 Tb491 2.802 . S
C555 O530 1.264 . S
C555 O533 1.256 . S
C555 C548 1.492 . S
H556 C539 0.929 . S
H557 C540 0.929 . S
H558 C541 0.929 . S
H559 C542 0.931 . S
H560 C550 0.929 . S
H561 C551 0.948 . S
H562 C552 0.931 . S
H563 C553 0.929 . S
Tb564 N593 2.617 . S
Tb564 N599 2.572 . S
Tb564 O608 2.465 . S
Tb564 O609 2.387 . S
Tb564 O611 2.428 . S
Tb564 O612 2.308 . S
Tb564 O616 2.349 . S
Tb564 O619 2.393 . S
Tb564 C628 2.802 . S
C565 N566 1.379 . S
C565 C568 1.416 . S
C565 C572 1.424 . S
N566 C565 1.379 . S
N566 C569 1.334 . S
N566 Tb575 2.617 . S
C567 C569 1.390 . S
C567 C570 1.339 . S
C567 H587 0.930 . S
C568 C565 1.416 . S
C568 C570 1.416 . S
C568 C574 1.448 . S
C569 N566 1.334 . S
C569 C567 1.390 . S
C569 H580 0.930 . S
C570 C567 1.339 . S
C570 C568 1.416 . S
C570 H591 0.930 . S
C571 C572 1.413 . S
C571 C573 1.427 . S
C571 C577 1.416 . S
C572 C565 1.424 . S
C572 C571 1.413 . S
C572 N576 1.361 . S
C573 C571 1.427 . S
C573 C574 1.328 . S
C573 H588 0.929 . S
C574 C568 1.448 . S
C574 C573 1.328 . S
C574 H589 0.930 . S
Tb575 N566 2.617 . S
Tb575 N576 2.572 . S
Tb575 O610 2.349 . S
Tb575 O613 2.393 . S
Tb575 O614 2.465 . S
Tb575 O615 2.387 . S
Tb575 O617 2.428 . S
Tb575 O618 2.308 . S
Tb575 C639 2.802 . S
N576 C572 1.361 . S
N576 Tb575 2.572 . S
N576 C578 1.340 . S
C577 C571 1.416 . S
C577 C579 1.332 . S
C577 H585 0.931 . S
C578 N576 1.340 . S
C578 C579 1.407 . S
C578 H584 0.930 . S
C579 C577 1.332 . S
C579 C578 1.407 . S
C579 H581 0.929 . S
H580 C569 0.930 . S
H581 C579 0.929 . S
H582 C597 0.930 . S
H583 C604 0.929 . S
H584 C578 0.930 . S
H585 C577 0.931 . S
H586 C600 0.930 . S
H587 C567 0.930 . S
H588 C573 0.929 . S
H589 C574 0.930 . S
H590 C595 0.930 . S
H591 C570 0.930 . S
H592 C603 0.931 . S
N593 Tb564 2.617 . S
N593 C594 1.379 . S
N593 C597 1.334 . S
C594 N593 1.379 . S
C594 C596 1.416 . S
C594 C602 1.424 . S
C595 H590 0.930 . S
C595 C597 1.390 . S
C595 C598 1.339 . S
C596 C594 1.416 . S
C596 C598 1.416 . S
C596 C629 1.448 . S
C597 H582 0.930 . S
C597 N593 1.334 . S
C597 C595 1.390 . S
C598 C595 1.339 . S
C598 C596 1.416 . S
C598 H605 0.930 . S
N599 Tb564 2.572 . S
N599 C600 1.340 . S
N599 C602 1.361 . S
C600 H586 0.930 . S
C600 N599 1.340 . S
C600 C604 1.407 . S
C601 C602 1.413 . S
C601 C603 1.416 . S
C601 C630 1.427 . S
C602 C594 1.424 . S
C602 N599 1.361 . S
C602 C601 1.413 . S
C603 H592 0.931 . S
C603 C601 1.416 . S
C603 C604 1.332 . S
C604 H583 0.929 . S
C604 C600 1.407 . S
C604 C603 1.332 . S
H605 C598 0.930 . S
H606 C629 0.930 . S
H607 C630 0.929 . S
O608 Tb564 2.465 . S
O608 C628 1.264 . S
O609 Tb564 2.387 . S
O609 C620 1.264 . S
O610 Tb575 2.349 . S
O610 C620 1.243 . S
O611 Tb564 2.428 . S
O611 C628 1.256 . S
O612 Tb564 2.308 . S
O612 C627 1.266 . S
O613 Tb575 2.393 . S
O613 C627 1.248 . S
O614 Tb575 2.465 . S
O614 C639 1.264 . S
O615 Tb575 2.387 . S
O615 C631 1.264 . S
O616 Tb564 2.349 . S
O616 C631 1.243 . S
O617 Tb575 2.428 . S
O617 C639 1.256 . S
O618 Tb575 2.308 . S
O618 C638 1.266 . S
O619 Tb564 2.393 . S
O619 C638 1.248 . S
C620 O609 1.264 . S
C620 O610 1.243 . S
C621 C624 1.399 . S
C621 C626 1.383 . S
C621 C628 1.496 . S
C622 C623 1.399 . S
C622 C626 1.389 . S
C623 C622 1.399 . S
C623 C625 1.380 . S
C623 H640 0.929 . S
C624 C621 1.399 . S
C624 C625 1.392 . S
C624 H641 0.929 . S
C625 C623 1.380 . S
C625 C624 1.392 . S
C625 H642 0.929 . S
C626 C621 1.383 . S
C626 C622 1.389 . S
C626 H643 0.931 . S
C627 O612 1.266 . S
C627 O613 1.248 . S
C628 Tb564 2.802 . S
C628 O608 1.264 . S
C628 O611 1.256 . S
C628 C621 1.496 . S
C629 C596 1.448 . S
C629 H606 0.930 . S
C629 C630 1.328 . S
C630 C601 1.427 . S
C630 H607 0.929 . S
C630 C629 1.328 . S
C631 O615 1.264 . S
C631 O616 1.243 . S
C632 C635 1.399 . S
C632 C636 1.383 . S
C632 C639 1.496 . S
C633 C634 1.399 . S
C633 C636 1.389 . S
C634 C633 1.399 . S
C634 C637 1.380 . S
C634 H644 0.929 . S
C635 C632 1.399 . S
C635 C637 1.392 . S
C635 H645 0.929 . S
C636 C632 1.383 . S
C636 C633 1.389 . S
C636 H646 0.931 . S
C637 C634 1.380 . S
C637 C635 1.392 . S
C637 H647 0.929 . S
C638 O618 1.266 . S
C638 O619 1.248 . S
C639 Tb575 2.802 . S
C639 O614 1.264 . S
C639 O617 1.256 . S
C639 C632 1.496 . S
H640 C623 0.929 . S
H641 C624 0.929 . S
H642 C625 0.929 . S
H643 C626 0.931 . S
H644 C634 0.929 . S
H645 C635 0.929 . S
H646 C636 0.931 . S
H647 C637 0.929 . S
Tb648 N677 2.619 . S
Tb648 N683 2.574 . S
Tb648 O692 2.468 . S
Tb648 O693 2.384 1_565 S
Tb648 O695 2.431 . S
Tb648 O696 2.307 1_565 S
Tb648 O700 2.348 1_565 S
Tb648 O703 2.390 1_565 S
Tb648 C712 2.806 . S
C649 N650 1.379 1_455 S
C649 C652 1.416 1_455 S
C649 C656 1.424 . S
N650 C649 1.379 1_655 S
N650 C653 1.334 . S
N650 Tb659 2.617 1_655 S
C651 C653 1.390 . S
C651 C654 1.339 . S
C651 H671 0.930 . S
C652 C649 1.416 1_655 S
C652 C654 1.416 . S
C652 C658 1.448 1_655 S
C653 N650 1.334 . S
C653 C651 1.390 . S
C653 H664 0.930 . S
C654 C651 1.339 . S
C654 C652 1.416 . S
C654 H675 0.930 . S
C655 C656 1.413 . S
C655 C657 1.427 . S
C655 C661 1.416 . S
C656 C649 1.424 . S
C656 C655 1.413 . S
C656 N660 1.361 . S
C657 C655 1.427 . S
C657 C658 1.328 . S
C657 H672 0.929 . S
C658 C652 1.448 1_455 S
C658 C657 1.328 . S
C658 H673 0.930 1_455 S
Tb659 N650 2.617 1_455 S
Tb659 N660 2.572 . S
Tb659 O694 2.349 . S
Tb659 O697 2.393 1_455 S
Tb659 O698 2.465 . S
Tb659 O699 2.387 . S
Tb659 O701 2.428 1_455 S
Tb659 O702 2.308 . S
Tb659 C723 2.802 . S
N660 C656 1.361 . S
N660 Tb659 2.572 . S
N660 C662 1.340 . S
C661 C655 1.416 . S
C661 C663 1.332 . S
C661 H669 0.931 . S
C662 N660 1.340 . S
C662 C663 1.407 . S
C662 H668 0.930 . S
C663 C661 1.332 . S
C663 C662 1.407 . S
C663 H665 0.929 . S
H664 C653 0.930 . S
H665 C663 0.929 . S
H666 C681 0.930 1_545 S
H667 C688 0.929 . S
H668 C662 0.930 . S
H669 C661 0.931 . S
H670 C684 0.930 . S
H671 C651 0.930 . S
H672 C657 0.929 . S
H673 C658 0.930 1_655 S
H674 C679 0.930 . S
H675 C654 0.930 . S
H676 C687 0.931 . S
N677 Tb648 2.619 . S
N677 C678 1.379 . S
N677 C681 1.334 . S
C678 N677 1.379 . S
C678 C680 1.416 . S
C678 C686 1.424 . S
C679 H674 0.930 . S
C679 C681 1.390 . S
C679 C682 1.339 . S
C680 C678 1.416 . S
C680 C682 1.416 . S
C680 C713 1.448 . S
C681 H666 0.930 1_565 S
C681 N677 1.334 . S
C681 C679 1.390 . S
C682 C679 1.339 . S
C682 C680 1.416 . S
C682 H689 0.930 . S
N683 Tb648 2.574 . S
N683 C684 1.340 1_455 S
N683 C686 1.361 . S
C684 H670 0.930 . S
C684 N683 1.340 1_655 S
C684 C688 1.407 . S
C685 C686 1.413 . S
C685 C687 1.416 1_455 S
C685 C714 1.427 . S
C686 C678 1.424 . S
C686 N683 1.361 . S
C686 C685 1.413 . S
C687 H676 0.931 . S
C687 C685 1.416 1_655 S
C687 C688 1.332 . S
C688 H667 0.929 . S
C688 C684 1.407 . S
C688 C687 1.332 . S
H689 C682 0.930 . S
H690 C713 0.930 . S
H691 C714 0.929 . S
O692 Tb648 2.468 . S
O692 C712 1.264 . S
O693 Tb648 2.384 1_545 S
O693 C704 1.264 . S
O694 Tb659 2.349 . S
O694 C704 1.243 . S
O695 Tb648 2.431 . S
O695 C712 1.256 . S
O696 Tb648 2.307 1_545 S
O696 C711 1.266 1_455 S
O697 Tb659 2.393 1_655 S
O697 C711 1.248 . S
O698 Tb659 2.465 . S
O698 C723 1.264 . S
O699 Tb659 2.387 . S
O699 C715 1.264 . S
O700 Tb648 2.348 1_545 S
O700 C715 1.243 . S
O701 Tb659 2.428 1_655 S
O701 C723 1.256 1_655 S
O702 Tb659 2.308 . S
O702 C722 1.266 . S
O703 Tb648 2.390 1_545 S
O703 C722 1.248 . S
C704 O693 1.264 . S
C704 O694 1.243 . S
C705 C708 1.399 . S
C705 C710 1.383 . S
C705 C712 1.496 . S
C706 C707 1.399 . S
C706 C710 1.389 . S
C707 C706 1.399 . S
C707 C709 1.380 . S
C707 H724 0.929 . S
C708 C705 1.399 . S
C708 C709 1.392 . S
C708 H725 0.929 . S
C709 C707 1.380 . S
C709 C708 1.392 . S
C709 H726 0.929 . S
C710 C705 1.383 . S
C710 C706 1.389 . S
C710 H727 0.931 . S
C711 O696 1.266 1_655 S
C711 O697 1.248 . S
C712 Tb648 2.806 . S
C712 O692 1.264 . S
C712 O695 1.256 . S
C712 C705 1.496 . S
C713 C680 1.448 . S
C713 H690 0.930 . S
C713 C714 1.328 . S
C714 C685 1.427 . S
C714 H691 0.929 . S
C714 C713 1.328 . S
C715 O699 1.264 . S
C715 O700 1.243 . S
C716 C719 1.399 1_455 S
C716 C720 1.383 . S
C716 C723 1.496 . S
C717 C718 1.399 1_455 S
C717 C720 1.389 . S
C718 C717 1.399 1_655 S
C718 C721 1.380 . S
C718 H728 0.929 . S
C719 C716 1.399 1_655 S
C719 C721 1.392 . S
C719 H729 0.929 . S
C720 C716 1.383 . S
C720 C717 1.389 . S
C720 H730 0.931 . S
C721 C718 1.380 . S
C721 C719 1.392 . S
C721 H731 0.929 . S
C722 O702 1.266 . S
C722 O703 1.248 . S
C723 Tb659 2.802 . S
C723 O698 1.264 . S
C723 O701 1.256 1_455 S
C723 C716 1.496 . S
H724 C707 0.929 . S
H725 C708 0.929 . S
H726 C709 0.929 . S
H727 C710 0.931 . S
H728 C718 0.929 . S
H729 C719 0.929 . S
H730 C720 0.931 . S
H731 C721 0.929 . S
Tb732 N761 2.617 . S
Tb732 N767 2.572 . S
Tb732 O776 2.465 . S
Tb732 O777 2.387 . S
Tb732 O779 2.428 . S
Tb732 O780 2.308 . S
Tb732 O784 2.349 . S
Tb732 O787 2.393 . S
Tb732 C796 2.802 . S
C733 N734 1.379 . S
C733 C736 1.416 . S
C733 C740 1.424 . S
N734 C733 1.379 . S
N734 C737 1.334 . S
N734 Tb743 2.617 . S
C735 C737 1.390 . S
C735 C738 1.339 . S
C735 H755 0.930 . S
C736 C733 1.416 . S
C736 C738 1.416 . S
C736 C742 1.448 . S
C737 N734 1.334 . S
C737 C735 1.390 . S
C737 H748 0.930 . S
C738 C735 1.339 . S
C738 C736 1.416 . S
C738 H759 0.930 . S
C739 C740 1.413 . S
C739 C741 1.427 . S
C739 C745 1.416 . S
C740 C733 1.424 . S
C740 C739 1.413 . S
C740 N744 1.361 . S
C741 C739 1.427 . S
C741 C742 1.328 . S
C741 H756 0.929 . S
C742 C736 1.448 . S
C742 C741 1.328 . S
C742 H757 0.930 . S
Tb743 N734 2.617 . S
Tb743 N744 2.572 . S
Tb743 O778 2.349 . S
Tb743 O781 2.393 . S
Tb743 O782 2.465 . S
Tb743 O783 2.387 . S
Tb743 O785 2.428 . S
Tb743 O786 2.308 . S
Tb743 C807 2.802 . S
N744 C740 1.361 . S
N744 Tb743 2.572 . S
N744 C746 1.340 . S
C745 C739 1.416 . S
C745 C747 1.332 . S
C745 H753 0.931 . S
C746 N744 1.340 . S
C746 C747 1.407 . S
C746 H752 0.930 . S
C747 C745 1.332 . S
C747 C746 1.407 . S
C747 H749 0.929 . S
H748 C737 0.930 . S
H749 C747 0.929 . S
H750 C765 0.930 . S
H751 C772 0.929 . S
H752 C746 0.930 . S
H753 C745 0.931 . S
H754 C768 0.930 . S
H755 C735 0.930 . S
H756 C741 0.929 . S
H757 C742 0.930 . S
H758 C763 0.930 . S
H759 C738 0.930 . S
H760 C771 0.931 . S
N761 Tb732 2.617 . S
N761 C762 1.379 . S
N761 C765 1.334 . S
C762 N761 1.379 . S
C762 C764 1.416 . S
C762 C770 1.424 . S
C763 H758 0.930 . S
C763 C765 1.390 . S
C763 C766 1.339 . S
C764 C762 1.416 . S
C764 C766 1.416 . S
C764 C797 1.448 . S
C765 H750 0.930 . S
C765 N761 1.334 . S
C765 C763 1.390 . S
C766 C763 1.339 . S
C766 C764 1.416 . S
C766 H773 0.930 . S
N767 Tb732 2.572 . S
N767 C768 1.340 . S
N767 C770 1.361 . S
C768 H754 0.930 . S
C768 N767 1.340 . S
C768 C772 1.407 . S
C769 C770 1.413 . S
C769 C771 1.416 . S
C769 C798 1.427 . S
C770 C762 1.424 . S
C770 N767 1.361 . S
C770 C769 1.413 . S
C771 H760 0.931 . S
C771 C769 1.416 . S
C771 C772 1.332 . S
C772 H751 0.929 . S
C772 C768 1.407 . S
C772 C771 1.332 . S
H773 C766 0.930 . S
H774 C797 0.930 . S
H775 C798 0.929 . S
O776 Tb732 2.465 . S
O776 C796 1.264 . S
O777 Tb732 2.387 . S
O777 C788 1.264 . S
O778 Tb743 2.349 . S
O778 C788 1.243 . S
O779 Tb732 2.428 . S
O779 C796 1.256 . S
O780 Tb732 2.308 . S
O780 C795 1.266 . S
O781 Tb743 2.393 . S
O781 C795 1.248 . S
O782 Tb743 2.465 . S
O782 C807 1.264 . S
O783 Tb743 2.387 . S
O783 C799 1.264 . S
O784 Tb732 2.349 . S
O784 C799 1.243 . S
O785 Tb743 2.428 . S
O785 C807 1.256 . S
O786 Tb743 2.308 . S
O786 C806 1.266 . S
O787 Tb732 2.393 . S
O787 C806 1.248 . S
C788 O777 1.264 . S
C788 O778 1.243 . S
C789 C792 1.399 . S
C789 C794 1.383 . S
C789 C796 1.496 . S
C790 C791 1.399 . S
C790 C794 1.389 . S
C791 C790 1.399 . S
C791 C793 1.380 . S
C791 H808 0.929 . S
C792 C789 1.399 . S
C792 C793 1.392 . S
C792 H809 0.929 . S
C793 C791 1.380 . S
C793 C792 1.392 . S
C793 H810 0.929 . S
C794 C789 1.383 . S
C794 C790 1.389 . S
C794 H811 0.931 . S
C795 O780 1.266 . S
C795 O781 1.248 . S
C796 Tb732 2.802 . S
C796 O776 1.264 . S
C796 O779 1.256 . S
C796 C789 1.496 . S
C797 C764 1.448 . S
C797 H774 0.930 . S
C797 C798 1.328 . S
C798 C769 1.427 . S
C798 H775 0.929 . S
C798 C797 1.328 . S
C799 O783 1.264 . S
C799 O784 1.243 . S
C800 C803 1.399 . S
C800 C804 1.383 . S
C800 C807 1.496 . S
C801 C802 1.399 . S
C801 C804 1.389 . S
C802 C801 1.399 . S
C802 C805 1.380 . S
C802 H812 0.929 . S
C803 C800 1.399 . S
C803 C805 1.392 . S
C803 H813 0.929 . S
C804 C800 1.383 . S
C804 C801 1.389 . S
C804 H814 0.931 . S
C805 C802 1.380 . S
C805 C803 1.392 . S
C805 H815 0.929 . S
C806 O786 1.266 . S
C806 O787 1.248 . S
C807 Tb743 2.802 . S
C807 O782 1.264 . S
C807 O785 1.256 . S
C807 C800 1.496 . S
H808 C791 0.929 . S
H809 C792 0.929 . S
H810 C793 0.929 . S
H811 C794 0.931 . S
H812 C802 0.929 . S
H813 C803 0.929 . S
H814 C804 0.931 . S
H815 C805 0.929 . S
Tb816 N845 2.617 . S
Tb816 N851 2.572 . S
Tb816 O860 2.465 . S
Tb816 O861 2.387 1_556 S
Tb816 O863 2.428 . S
Tb816 O864 2.308 1_556 S
Tb816 O868 2.349 1_556 S
Tb816 O871 2.393 1_556 S
Tb816 C880 2.802 . S
C817 N818 1.379 . S
C817 C820 1.416 . S
C817 C824 1.424 1_565 S
N818 C817 1.379 . S
N818 C821 1.334 . S
N818 Tb827 2.617 1_565 S
C819 C821 1.390 . S
C819 C822 1.339 . S
C819 H839 0.930 . S
C820 C817 1.416 . S
C820 C822 1.416 . S
C820 C826 1.448 . S
C821 N818 1.334 . S
C821 C819 1.390 . S
C821 H832 0.930 . S
C822 C819 1.339 . S
C822 C820 1.416 . S
C822 H843 0.930 . S
C823 C824 1.413 . S
C823 C825 1.427 . S
C823 C829 1.416 . S
C824 C817 1.424 1_545 S
C824 C823 1.413 . S
C824 N828 1.361 . S
C825 C823 1.427 . S
C825 C826 1.328 1_545 S
C825 H840 0.929 . S
C826 C820 1.448 . S
C826 C825 1.328 1_565 S
C826 H841 0.930 . S
Tb827 N818 2.617 1_545 S
Tb827 N828 2.572 . S
Tb827 O862 2.349 . S
Tb827 O865 2.393 1_545 S
Tb827 O866 2.465 . S
Tb827 O867 2.387 . S
Tb827 O869 2.428 1_545 S
Tb827 O870 2.308 . S
Tb827 C891 2.802 1_545 S
N828 C824 1.361 . S
N828 Tb827 2.572 . S
N828 C830 1.340 . S
C829 C823 1.416 . S
C829 C831 1.332 . S
C829 H837 0.931 . S
C830 N828 1.340 . S
C830 C831 1.407 . S
C830 H836 0.930 . S
C831 C829 1.332 . S
C831 C830 1.407 . S
C831 H833 0.929 . S
H832 C821 0.930 . S
H833 C831 0.929 . S
H834 C849 0.930 1_554 S
H835 C856 0.929 . S
H836 C830 0.930 . S
H837 C829 0.931 . S
H838 C852 0.930 1_565 S
H839 C819 0.930 . S
H840 C825 0.929 . S
H841 C826 0.930 . S
H842 C847 0.930 . S
H843 C822 0.930 . S
H844 C855 0.931 1_565 S
N845 Tb816 2.617 . S
N845 C846 1.379 . S
N845 C849 1.334 . S
C846 N845 1.379 . S
C846 C848 1.416 . S
C846 C854 1.424 . S
C847 H842 0.930 . S
C847 C849 1.390 . S
C847 C850 1.339 . S
C848 C846 1.416 . S
C848 C850 1.416 . S
C848 C881 1.448 . S
C849 H834 0.930 1_556 S
C849 N845 1.334 . S
C849 C847 1.390 . S
C850 C847 1.339 . S
C850 C848 1.416 . S
C850 H857 0.930 . S
N851 Tb816 2.572 . S
N851 C852 1.340 . S
N851 C854 1.361 . S
C852 H838 0.930 1_545 S
C852 N851 1.340 . S
C852 C856 1.407 1_545 S
C853 C854 1.413 . S
C853 C855 1.416 . S
C853 C882 1.427 . S
C854 C846 1.424 . S
C854 N851 1.361 . S
C854 C853 1.413 . S
C855 H844 0.931 1_545 S
C855 C853 1.416 . S
C855 C856 1.332 1_545 S
C856 H835 0.929 . S
C856 C852 1.407 1_565 S
C856 C855 1.332 1_565 S
H857 C850 0.930 . S
H858 C881 0.930 . S
H859 C882 0.929 . S
O860 Tb816 2.465 . S
O860 C880 1.264 . S
O861 Tb816 2.387 1_554 S
O861 C872 1.264 . S
O862 Tb827 2.349 . S
O862 C872 1.243 . S
O863 Tb816 2.428 . S
O863 C880 1.256 . S
O864 Tb816 2.308 1_554 S
O864 C879 1.266 1_545 S
O865 Tb827 2.393 1_565 S
O865 C879 1.248 . S
O866 Tb827 2.465 . S
O866 C891 1.264 1_545 S
O867 Tb827 2.387 . S
O867 C883 1.264 . S
O868 Tb816 2.349 1_554 S
O868 C883 1.243 . S
O869 Tb827 2.428 1_565 S
O869 C891 1.256 . S
O870 Tb827 2.308 . S
O870 C890 1.266 . S
O871 Tb816 2.393 1_554 S
O871 C890 1.248 . S
C872 O861 1.264 . S
C872 O862 1.243 . S
C873 C876 1.399 . S
C873 C878 1.383 . S
C873 C880 1.496 . S
C874 C875 1.399 . S
C874 C878 1.389 . S
C875 C874 1.399 . S
C875 C877 1.380 . S
C875 H892 0.929 . S
C876 C873 1.399 . S
C876 C877 1.392 . S
C876 H893 0.929 . S
C877 C875 1.380 . S
C877 C876 1.392 . S
C877 H894 0.929 . S
C878 C873 1.383 . S
C878 C874 1.389 . S
C878 H895 0.931 . S
C879 O864 1.266 1_565 S
C879 O865 1.248 . S
C880 Tb816 2.802 . S
C880 O860 1.264 . S
C880 O863 1.256 . S
C880 C873 1.496 . S
C881 C848 1.448 . S
C881 H858 0.930 . S
C881 C882 1.328 . S
C882 C853 1.427 . S
C882 H859 0.929 . S
C882 C881 1.328 . S
C883 O867 1.264 . S
C883 O868 1.243 . S
C884 C887 1.399 . S
C884 C888 1.383 1_565 S
C884 C891 1.496 . S
C885 C886 1.341 1_545 S
C885 C888 1.405 . S
C886 C885 1.341 1_565 S
C886 C889 1.380 . S
C886 H896 0.929 . S
C887 C884 1.399 . S
C887 C889 1.392 . S
C887 H897 0.929 . S
C888 C884 1.383 1_545 S
C888 C885 1.405 . S
C888 H898 0.931 . S
C889 C886 1.380 . S
C889 C887 1.392 . S
C889 H899 0.929 . S
C890 O870 1.266 . S
C890 O871 1.248 . S
C891 Tb827 2.802 1_565 S
C891 O866 1.264 1_565 S
C891 O869 1.256 . S
C891 C884 1.496 . S
H892 C875 0.929 . S
H893 C876 0.929 . S
H894 C877 0.929 . S
H895 C878 0.931 . S
H896 C886 0.929 . S
H897 C887 0.929 . S
H898 C888 0.931 . S
H899 C889 0.929 . S
Tb900 N929 2.617 . S
Tb900 N935 2.572 . S
Tb900 O944 2.465 . S
Tb900 O945 2.387 . S
Tb900 O947 2.428 . S
Tb900 O948 2.308 . S
Tb900 O952 2.349 . S
Tb900 O955 2.393 . S
Tb900 C964 2.802 . S
C901 N902 1.379 . S
C901 C904 1.416 . S
C901 C908 1.424 . S
N902 C901 1.379 . S
N902 C905 1.334 . S
N902 Tb911 2.617 . S
C903 C905 1.390 . S
C903 C906 1.339 . S
C903 H923 0.930 . S
C904 C901 1.416 . S
C904 C906 1.416 . S
C904 C910 1.448 . S
C905 N902 1.334 . S
C905 C903 1.390 . S
C905 H916 0.930 . S
C906 C903 1.339 . S
C906 C904 1.416 . S
C906 H927 0.930 . S
C907 C908 1.413 . S
C907 C909 1.427 . S
C907 C913 1.416 . S
C908 C901 1.424 . S
C908 C907 1.413 . S
C908 N912 1.361 . S
C909 C907 1.427 . S
C909 C910 1.328 . S
C909 H924 0.929 . S
C910 C904 1.448 . S
C910 C909 1.328 . S
C910 H925 0.930 . S
Tb911 N902 2.617 . S
Tb911 N912 2.572 . S
Tb911 O946 2.349 . S
Tb911 O949 2.393 . S
Tb911 O950 2.465 . S
Tb911 O951 2.387 . S
Tb911 O953 2.428 . S
Tb911 O954 2.308 . S
Tb911 C975 2.802 . S
N912 C908 1.361 . S
N912 Tb911 2.572 . S
N912 C914 1.340 . S
C913 C907 1.416 . S
C913 C915 1.332 . S
C913 H921 0.931 . S
C914 N912 1.340 . S
C914 C915 1.407 . S
C914 H920 0.930 . S
C915 C913 1.332 . S
C915 C914 1.407 . S
C915 H917 0.929 . S
H916 C905 0.930 . S
H917 C915 0.929 . S
H918 C933 0.930 . S
H919 C940 0.929 . S
H920 C914 0.930 . S
H921 C913 0.931 . S
H922 C936 0.930 . S
H923 C903 0.930 . S
H924 C909 0.929 . S
H925 C910 0.930 . S
H926 C931 0.930 . S
H927 C906 0.930 . S
H928 C939 0.931 . S
N929 Tb900 2.617 . S
N929 C930 1.379 . S
N929 C933 1.334 . S
C930 N929 1.379 . S
C930 C932 1.416 . S
C930 C938 1.424 . S
C931 H926 0.930 . S
C931 C933 1.390 . S
C931 C934 1.339 . S
C932 C930 1.416 . S
C932 C934 1.416 . S
C932 C965 1.448 . S
C933 H918 0.930 . S
C933 N929 1.334 . S
C933 C931 1.390 . S
C934 C931 1.339 . S
C934 C932 1.416 . S
C934 H941 0.930 . S
N935 Tb900 2.572 . S
N935 C936 1.340 . S
N935 C938 1.361 . S
C936 H922 0.930 . S
C936 N935 1.340 . S
C936 C940 1.407 . S
C937 C938 1.413 . S
C937 C939 1.416 . S
C937 C966 1.427 . S
C938 C930 1.424 . S
C938 N935 1.361 . S
C938 C937 1.413 . S
C939 H928 0.931 . S
C939 C937 1.416 . S
C939 C940 1.332 . S
C940 H919 0.929 . S
C940 C936 1.407 . S
C940 C939 1.332 . S
H941 C934 0.930 . S
H942 C965 0.930 . S
H943 C966 0.929 . S
O944 Tb900 2.465 . S
O944 C964 1.264 . S
O945 Tb900 2.387 . S
O945 C956 1.264 . S
O946 Tb911 2.349 . S
O946 C956 1.243 . S
O947 Tb900 2.428 . S
O947 C964 1.256 . S
O948 Tb900 2.308 . S
O948 C963 1.266 . S
O949 Tb911 2.393 . S
O949 C963 1.248 . S
O950 Tb911 2.465 . S
O950 C975 1.264 . S
O951 Tb911 2.387 . S
O951 C967 1.264 . S
O952 Tb900 2.349 . S
O952 C967 1.243 . S
O953 Tb911 2.428 . S
O953 C975 1.256 . S
O954 Tb911 2.308 . S
O954 C974 1.266 . S
O955 Tb900 2.393 . S
O955 C974 1.248 . S
C956 O945 1.264 . S
C956 O946 1.243 . S
C957 C960 1.399 . S
C957 C962 1.383 . S
C957 C964 1.496 . S
C958 C959 1.399 . S
C958 C962 1.389 . S
C959 C958 1.399 . S
C959 C961 1.380 . S
C959 H976 0.929 . S
C960 C957 1.399 . S
C960 C961 1.392 . S
C960 H977 0.929 . S
C961 C959 1.380 . S
C961 C960 1.392 . S
C961 H978 0.929 . S
C962 C957 1.383 . S
C962 C958 1.389 . S
C962 H979 0.931 . S
C963 O948 1.266 . S
C963 O949 1.248 . S
C964 Tb900 2.802 . S
C964 O944 1.264 . S
C964 O947 1.256 . S
C964 C957 1.496 . S
C965 C932 1.448 . S
C965 H942 0.930 . S
C965 C966 1.328 . S
C966 C937 1.427 . S
C966 H943 0.929 . S
C966 C965 1.328 . S
C967 O951 1.264 . S
C967 O952 1.243 . S
C968 C971 1.399 . S
C968 C972 1.383 . S
C968 C975 1.496 . S
C969 C970 1.399 . S
C969 C972 1.389 . S
C970 C969 1.399 . S
C970 C973 1.380 . S
C970 H980 0.929 . S
C971 C968 1.399 . S
C971 C973 1.392 . S
C971 H981 0.929 . S
C972 C968 1.383 . S
C972 C969 1.389 . S
C972 H982 0.931 . S
C973 C970 1.380 . S
C973 C971 1.392 . S
C973 H983 0.929 . S
C974 O954 1.266 . S
C974 O955 1.248 . S
C975 Tb911 2.802 . S
C975 O950 1.264 . S
C975 O953 1.256 . S
C975 C968 1.496 . S
H976 C959 0.929 . S
H977 C960 0.929 . S
H978 C961 0.929 . S
H979 C962 0.931 . S
H980 C970 0.929 . S
H981 C971 0.929 . S
H982 C972 0.931 . S
H983 C973 0.929 . S
Tb984 N1013 2.617 1_554 S
Tb984 N1019 2.572 1_554 S
Tb984 O1028 2.465 . S
Tb984 O1029 2.387 1_554 S
Tb984 O1031 2.428 . S
Tb984 O1032 2.308 . S
Tb984 O1036 2.349 . S
Tb984 O1039 2.393 . S
Tb984 C1048 2.802 . S
C985 N986 1.379 . S
C985 C988 1.416 . S
C985 C992 1.424 . S
N986 C985 1.379 . S
N986 C989 1.334 . S
N986 Tb995 2.617 . S
C987 C989 1.390 . S
C987 C990 1.339 . S
C987 H1007 0.930 . S
C988 C985 1.416 . S
C988 C990 1.416 . S
C988 C994 1.448 . S
C989 N986 1.334 . S
C989 C987 1.390 . S
C989 H1000 0.930 . S
C990 C987 1.339 . S
C990 C988 1.416 . S
C990 H1011 0.930 . S
C991 C992 1.413 . S
C991 C993 1.427 . S
C991 C997 1.416 . S
C992 C985 1.424 . S
C992 C991 1.413 . S
C992 N996 1.361 . S
C993 C991 1.427 . S
C993 C994 1.328 . S
C993 H1008 0.929 . S
C994 C988 1.448 . S
C994 C993 1.328 . S
C994 H1009 0.930 . S
Tb995 N986 2.617 . S
Tb995 N996 2.572 . S
Tb995 O1030 2.349 1_554 S
Tb995 O1033 2.393 . S
Tb995 O1034 2.465 . S
Tb995 O1035 2.387 . S
Tb995 O1037 2.428 . S
Tb995 O1038 2.308 . S
Tb995 C1059 2.802 . S
N996 C992 1.361 . S
N996 Tb995 2.572 . S
N996 C998 1.340 . S
C997 C991 1.416 . S
C997 C999 1.332 . S
C997 H1005 0.931 . S
C998 N996 1.340 . S
C998 C999 1.407 . S
C998 H1004 0.930 . S
C999 C997 1.332 . S
C999 C998 1.407 . S
C999 H1001 0.929 . S
H1000 C989 0.930 . S
H1001 C999 0.929 . S
H1002 C1017 0.930 1_554 S
H1003 C1024 0.929 . S
H1004 C998 0.930 . S
H1005 C997 0.931 . S
H1006 C1020 0.930 1_554 S
H1007 C987 0.930 . S
H1008 C993 0.929 . S
H1009 C994 0.930 . S
H1010 C1015 0.930 . S
H1011 C990 0.930 . S
H1012 C1023 0.931 . S
N1013 Tb984 2.617 1_556 S
N1013 C1014 1.379 . S
N1013 C1017 1.334 . S
C1014 N1013 1.379 . S
C1014 C1016 1.416 . S
C1014 C1022 1.424 . S
C1015 H1010 0.930 . S
C1015 C1017 1.390 . S
C1015 C1018 1.339 . S
C1016 C1014 1.416 . S
C1016 C1018 1.416 . S
C1016 C1049 1.448 . S
C1017 H1002 0.930 1_556 S
C1017 N1013 1.334 . S
C1017 C1015 1.390 . S
C1018 C1015 1.339 . S
C1018 C1016 1.416 . S
C1018 H1025 0.930 . S
N1019 Tb984 2.572 1_556 S
N1019 C1020 1.340 . S
N1019 C1022 1.361 . S
C1020 H1006 0.930 1_556 S
C1020 N1019 1.340 . S
C1020 C1024 1.407 . S
C1021 C1022 1.413 . S
C1021 C1023 1.416 . S
C1021 C1050 1.427 . S
C1022 C1014 1.424 . S
C1022 N1019 1.361 . S
C1022 C1021 1.413 . S
C1023 H1012 0.931 . S
C1023 C1021 1.416 . S
C1023 C1024 1.332 . S
C1024 H1003 0.929 . S
C1024 C1020 1.407 . S
C1024 C1023 1.332 . S
H1025 C1018 0.930 . S
H1026 C1049 0.930 . S
H1027 C1050 0.929 . S
O1028 Tb984 2.465 . S
O1028 C1048 1.264 . S
O1029 Tb984 2.387 1_556 S
O1029 C1040 1.264 . S
O1030 Tb995 2.349 1_556 S
O1030 C1040 1.243 . S
O1031 Tb984 2.428 . S
O1031 C1048 1.256 . S
O1032 Tb984 2.308 . S
O1032 C1047 1.266 . S
O1033 Tb995 2.393 . S
O1033 C1047 1.248 . S
O1034 Tb995 2.465 . S
O1034 C1059 1.264 . S
O1035 Tb995 2.387 . S
O1035 C1051 1.264 . S
O1036 Tb984 2.349 . S
O1036 C1051 1.243 . S
O1037 Tb995 2.428 . S
O1037 C1059 1.256 . S
O1038 Tb995 2.308 . S
O1038 C1058 1.266 . S
O1039 Tb984 2.393 . S
O1039 C1058 1.248 . S
C1040 O1029 1.264 . S
C1040 O1030 1.243 . S
C1041 C1044 1.399 . S
C1041 C1046 1.383 . S
C1041 C1048 1.496 . S
C1042 C1043 1.399 . S
C1042 C1046 1.389 . S
C1043 C1042 1.399 . S
C1043 C1045 1.380 . S
C1043 H1060 0.929 . S
C1044 C1041 1.399 . S
C1044 C1045 1.392 . S
C1044 H1061 0.929 . S
C1045 C1043 1.380 . S
C1045 C1044 1.392 . S
C1045 H1062 0.929 . S
C1046 C1041 1.383 . S
C1046 C1042 1.389 . S
C1046 H1063 0.931 . S
C1047 O1032 1.266 . S
C1047 O1033 1.248 . S
C1048 Tb984 2.802 . S
C1048 O1028 1.264 . S
C1048 O1031 1.256 . S
C1048 C1041 1.496 . S
C1049 C1016 1.448 . S
C1049 H1026 0.930 . S
C1049 C1050 1.328 . S
C1050 C1021 1.427 . S
C1050 H1027 0.929 . S
C1050 C1049 1.328 . S
C1051 O1035 1.264 . S
C1051 O1036 1.243 . S
C1052 C1055 1.399 . S
C1052 C1056 1.383 . S
C1052 C1059 1.496 1_556 S
C1053 C1054 1.399 . S
C1053 C1056 1.389 . S
C1054 C1053 1.399 . S
C1054 C1057 1.380 . S
C1054 H1064 0.929 . S
C1055 C1052 1.399 . S
C1055 C1057 1.392 . S
C1055 H1065 0.929 1_556 S
C1056 C1052 1.383 . S
C1056 C1053 1.389 . S
C1056 H1066 0.931 . S
C1057 C1054 1.380 . S
C1057 C1055 1.392 . S
C1057 H1067 0.929 . S
C1058 O1038 1.266 . S
C1058 O1039 1.248 . S
C1059 Tb995 2.802 . S
C1059 O1034 1.264 . S
C1059 O1037 1.256 . S
C1059 C1052 1.496 1_554 S
H1060 C1043 0.929 . S
H1061 C1044 0.929 . S
H1062 C1045 0.929 . S
H1063 C1046 0.931 . S
H1064 C1054 0.929 . S
H1065 C1055 0.929 1_554 S
H1066 C1056 0.931 . S
H1067 C1057 0.929 . S
Tb1068 N1097 2.617 . S
Tb1068 N1103 2.572 . S
Tb1068 O1112 2.465 . S
Tb1068 O1113 2.387 . S
Tb1068 O1115 2.428 . S
Tb1068 O1116 2.308 . S
Tb1068 O1120 2.349 . S
Tb1068 O1123 2.393 . S
Tb1068 C1132 2.802 . S
C1069 N1070 1.379 . S
C1069 C1072 1.416 . S
C1069 C1076 1.424 . S
N1070 C1069 1.379 . S
N1070 C1073 1.334 . S
N1070 Tb1079 2.617 . S
C1071 C1073 1.390 . S
C1071 C1074 1.339 . S
C1071 H1091 0.930 . S
C1072 C1069 1.416 . S
C1072 C1074 1.416 . S
C1072 C1078 1.448 . S
C1073 N1070 1.334 . S
C1073 C1071 1.390 . S
C1073 H1084 0.930 . S
C1074 C1071 1.339 . S
C1074 C1072 1.416 . S
C1074 H1095 0.930 . S
C1075 C1076 1.413 . S
C1075 C1077 1.427 . S
C1075 C1081 1.416 . S
C1076 C1069 1.424 . S
C1076 C1075 1.413 . S
C1076 N1080 1.361 . S
C1077 C1075 1.427 . S
C1077 C1078 1.328 . S
C1077 H1092 0.929 . S
C1078 C1072 1.448 . S
C1078 C1077 1.328 . S
C1078 H1093 0.930 . S
Tb1079 N1070 2.617 . S
Tb1079 N1080 2.572 . S
Tb1079 O1114 2.349 . S
Tb1079 O1117 2.393 . S
Tb1079 O1118 2.465 . S
Tb1079 O1119 2.387 . S
Tb1079 O1121 2.428 . S
Tb1079 O1122 2.308 . S
Tb1079 C1143 2.802 . S
N1080 C1076 1.361 . S
N1080 Tb1079 2.572 . S
N1080 C1082 1.340 . S
C1081 C1075 1.416 . S
C1081 C1083 1.332 . S
C1081 H1089 0.931 . S
C1082 N1080 1.340 . S
C1082 C1083 1.407 . S
C1082 H1088 0.930 . S
C1083 C1081 1.332 . S
C1083 C1082 1.407 . S
C1083 H1085 0.929 . S
H1084 C1073 0.930 . S
H1085 C1083 0.929 . S
H1086 C1101 0.930 . S
H1087 C1108 0.929 . S
H1088 C1082 0.930 . S
H1089 C1081 0.931 . S
H1090 C1104 0.930 . S
H1091 C1071 0.930 . S
H1092 C1077 0.929 . S
H1093 C1078 0.930 . S
H1094 C1099 0.930 . S
H1095 C1074 0.930 . S
H1096 C1107 0.931 . S
N1097 Tb1068 2.617 . S
N1097 C1098 1.379 . S
N1097 C1101 1.334 . S
C1098 N1097 1.379 . S
C1098 C1100 1.416 . S
C1098 C1106 1.424 . S
C1099 H1094 0.930 . S
C1099 C1101 1.390 . S
C1099 C1102 1.339 . S
C1100 C1098 1.416 . S
C1100 C1102 1.416 . S
C1100 C1133 1.448 . S
C1101 H1086 0.930 . S
C1101 N1097 1.334 . S
C1101 C1099 1.390 . S
C1102 C1099 1.339 . S
C1102 C1100 1.416 . S
C1102 H1109 0.930 . S
N1103 Tb1068 2.572 . S
N1103 C1104 1.340 . S
N1103 C1106 1.361 . S
C1104 H1090 0.930 . S
C1104 N1103 1.340 . S
C1104 C1108 1.407 . S
C1105 C1106 1.413 . S
C1105 C1107 1.416 . S
C1105 C1134 1.427 . S
C1106 C1098 1.424 . S
C1106 N1103 1.361 . S
C1106 C1105 1.413 . S
C1107 H1096 0.931 . S
C1107 C1105 1.416 . S
C1107 C1108 1.332 . S
C1108 H1087 0.929 . S
C1108 C1104 1.407 . S
C1108 C1107 1.332 . S
H1109 C1102 0.930 . S
H1110 C1133 0.930 . S
H1111 C1134 0.929 . S
O1112 Tb1068 2.465 . S
O1112 C1132 1.264 . S
O1113 Tb1068 2.387 . S
O1113 C1124 1.264 . S
O1114 Tb1079 2.349 . S
O1114 C1124 1.243 . S
O1115 Tb1068 2.428 . S
O1115 C1132 1.256 . S
O1116 Tb1068 2.308 . S
O1116 C1131 1.266 . S
O1117 Tb1079 2.393 . S
O1117 C1131 1.248 . S
O1118 Tb1079 2.465 . S
O1118 C1143 1.264 . S
O1119 Tb1079 2.387 . S
O1119 C1135 1.264 . S
O1120 Tb1068 2.349 . S
O1120 C1135 1.243 . S
O1121 Tb1079 2.428 . S
O1121 C1143 1.256 . S
O1122 Tb1079 2.308 . S
O1122 C1142 1.266 . S
O1123 Tb1068 2.393 . S
O1123 C1142 1.248 . S
C1124 O1113 1.264 . S
C1124 O1114 1.243 . S
C1125 C1128 1.399 . S
C1125 C1130 1.383 . S
C1125 C1132 1.496 . S
C1126 C1127 1.399 . S
C1126 C1130 1.389 . S
C1127 C1126 1.399 . S
C1127 C1129 1.380 . S
C1127 H1144 0.929 . S
C1128 C1125 1.399 . S
C1128 C1129 1.392 . S
C1128 H1145 0.929 . S
C1129 C1127 1.380 . S
C1129 C1128 1.392 . S
C1129 H1146 0.929 . S
C1130 C1125 1.383 . S
C1130 C1126 1.389 . S
C1130 H1147 0.931 . S
C1131 O1116 1.266 . S
C1131 O1117 1.248 . S
C1132 Tb1068 2.802 . S
C1132 O1112 1.264 . S
C1132 O1115 1.256 . S
C1132 C1125 1.496 . S
C1133 C1100 1.448 . S
C1133 H1110 0.930 . S
C1133 C1134 1.328 . S
C1134 C1105 1.427 . S
C1134 H1111 0.929 . S
C1134 C1133 1.328 . S
C1135 O1119 1.264 . S
C1135 O1120 1.243 . S
C1136 C1139 1.399 . S
C1136 C1140 1.383 . S
C1136 C1143 1.496 . S
C1137 C1138 1.399 . S
C1137 C1140 1.389 . S
C1138 C1137 1.399 . S
C1138 C1141 1.380 . S
C1138 H1148 0.929 . S
C1139 C1136 1.399 . S
C1139 C1141 1.392 . S
C1139 H1149 0.929 . S
C1140 C1136 1.383 . S
C1140 C1137 1.389 . S
C1140 H1150 0.931 . S
C1141 C1138 1.380 . S
C1141 C1139 1.392 . S
C1141 H1151 0.929 . S
C1142 O1122 1.266 . S
C1142 O1123 1.248 . S
C1143 Tb1079 2.802 . S
C1143 O1118 1.264 . S
C1143 O1121 1.256 . S
C1143 C1136 1.496 . S
H1144 C1127 0.929 . S
H1145 C1128 0.929 . S
H1146 C1129 0.929 . S
H1147 C1130 0.931 . S
H1148 C1138 0.929 . S
H1149 C1139 0.929 . S
H1150 C1140 0.931 . S
H1151 C1141 0.929 . S
Tb1152 N1181 2.617 . S
Tb1152 N1187 2.549 1_455 S
Tb1152 O1196 2.465 . S
Tb1152 O1197 2.387 1_455 S
Tb1152 O1199 2.428 . S
Tb1152 O1200 2.308 . S
Tb1152 O1204 2.349 . S
Tb1152 O1207 2.393 . S
Tb1152 C1216 2.802 . S
C1153 N1154 1.379 . S
C1153 C1156 1.416 . S
C1153 C1160 1.424 . S
N1154 C1153 1.379 . S
N1154 C1157 1.334 . S
N1154 Tb1163 2.617 . S
C1155 C1157 1.390 . S
C1155 C1158 1.339 . S
C1155 H1175 0.930 . S
C1156 C1153 1.416 . S
C1156 C1158 1.416 . S
C1156 C1162 1.448 . S
C1157 N1154 1.334 . S
C1157 C1155 1.390 . S
C1157 H1168 0.930 . S
C1158 C1155 1.339 . S
C1158 C1156 1.416 . S
C1158 H1179 0.930 . S
C1159 C1160 1.413 . S
C1159 C1161 1.427 . S
C1159 C1165 1.416 . S
C1160 C1153 1.424 . S
C1160 C1159 1.413 . S
C1160 N1164 1.361 . S
C1161 C1159 1.427 . S
C1161 C1162 1.328 . S
C1161 H1176 0.929 . S
C1162 C1156 1.448 . S
C1162 C1161 1.328 . S
C1162 H1177 0.930 . S
Tb1163 N1154 2.617 . S
Tb1163 N1164 2.572 . S
Tb1163 O1198 2.287 1_455 S
Tb1163 O1201 2.393 . S
Tb1163 O1202 2.465 . S
Tb1163 O1203 2.387 . S
Tb1163 O1205 2.428 . S
Tb1163 O1206 2.308 . S
Tb1163 C1227 2.802 . S
N1164 C1160 1.361 . S
N1164 Tb1163 2.572 . S
N1164 C1166 1.340 . S
C1165 C1159 1.416 . S
C1165 C1167 1.332 . S
C1165 H1173 0.931 . S
C1166 N1164 1.340 . S
C1166 C1167 1.407 . S
C1166 H1172 0.930 . S
C1167 C1165 1.332 . S
C1167 C1166 1.407 . S
C1167 H1169 0.929 . S
H1168 C1157 0.930 . S
H1169 C1167 0.929 . S
H1170 C1185 0.930 . S
H1171 C1192 0.929 . S
H1172 C1166 0.930 . S
H1173 C1165 0.931 . S
H1174 C1188 0.930 1_455 S
H1175 C1155 0.930 . S
H1176 C1161 0.929 . S
H1177 C1162 0.930 . S
H1178 C1183 0.930 . S
H1179 C1158 0.930 . S
H1180 C1191 0.931 . S
N1181 Tb1152 2.617 . S
N1181 C1182 1.379 1_455 S
N1181 C1185 1.334 . S
C1182 N1181 1.379 1_655 S
C1182 C1184 1.416 . S
C1182 C1190 1.424 . S
C1183 H1178 0.930 . S
C1183 C1185 1.390 1_655 S
C1183 C1186 1.339 . S
C1184 C1182 1.416 . S
C1184 C1186 1.416 . S
C1184 C1217 1.448 . S
C1185 H1170 0.930 . S
C1185 N1181 1.334 . S
C1185 C1183 1.390 1_455 S
C1186 C1183 1.339 . S
C1186 C1184 1.416 . S
C1186 H1193 0.930 . S
N1187 Tb1152 2.549 1_655 S
N1187 C1188 1.335 . S
N1187 C1190 1.395 . S
C1188 H1174 0.930 1_655 S
C1188 N1187 1.335 . S
C1188 C1192 1.407 . S
C1189 C1190 1.413 . S
C1189 C1191 1.416 . S
C1189 C1218 1.427 . S
C1190 C1182 1.424 . S
C1190 N1187 1.395 . S
C1190 C1189 1.413 . S
C1191 H1180 0.931 . S
C1191 C1189 1.416 . S
C1191 C1192 1.332 . S
C1192 H1171 0.929 . S
C1192 C1188 1.407 . S
C1192 C1191 1.332 . S
H1193 C1186 0.930 . S
H1194 C1217 0.930 . S
H1195 C1218 0.929 . S
O1196 Tb1152 2.465 . S
O1196 C1216 1.264 . S
O1197 Tb1152 2.387 1_655 S
O1197 C1208 1.264 . S
O1198 Tb1163 2.287 1_655 S
O1198 C1208 1.281 . S
O1199 Tb1152 2.428 . S
O1199 C1216 1.256 . S
O1200 Tb1152 2.308 . S
O1200 C1215 1.266 . S
O1201 Tb1163 2.393 . S
O1201 C1215 1.248 . S
O1202 Tb1163 2.465 . S
O1202 C1227 1.264 . S
O1203 Tb1163 2.387 . S
O1203 C1219 1.264 . S
O1204 Tb1152 2.349 . S
O1204 C1219 1.243 . S
O1205 Tb1163 2.428 . S
O1205 C1227 1.256 . S
O1206 Tb1163 2.308 . S
O1206 C1226 1.266 . S
O1207 Tb1152 2.393 . S
O1207 C1226 1.248 . S
C1208 O1197 1.264 . S
C1208 O1198 1.281 . S
C1209 C1212 1.399 . S
C1209 C1214 1.383 . S
C1209 C1216 1.496 . S
C1210 C1211 1.399 . S
C1210 C1214 1.389 . S
C1211 C1210 1.399 . S
C1211 C1213 1.380 . S
C1211 H1228 0.929 . S
C1212 C1209 1.399 . S
C1212 C1213 1.392 . S
C1212 H1229 0.929 . S
C1213 C1211 1.380 . S
C1213 C1212 1.392 . S
C1213 H1230 0.929 . S
C1214 C1209 1.383 . S
C1214 C1210 1.389 . S
C1214 H1231 0.931 . S
C1215 O1200 1.266 . S
C1215 O1201 1.248 . S
C1216 Tb1152 2.802 . S
C1216 O1196 1.264 . S
C1216 O1199 1.256 . S
C1216 C1209 1.496 . S
C1217 C1184 1.448 . S
C1217 H1194 0.930 . S
C1217 C1218 1.328 . S
C1218 C1189 1.427 . S
C1218 H1195 0.929 . S
C1218 C1217 1.328 . S
C1219 O1203 1.264 . S
C1219 O1204 1.243 . S
C1220 C1223 1.399 . S
C1220 C1224 1.383 . S
C1220 C1227 1.496 1_655 S
C1221 C1222 1.399 . S
C1221 C1224 1.389 . S
C1222 C1221 1.399 . S
C1222 C1225 1.380 . S
C1222 H1232 0.929 . S
C1223 C1220 1.399 . S
C1223 C1225 1.392 . S
C1223 H1233 0.929 . S
C1224 C1220 1.383 . S
C1224 C1221 1.389 . S
C1224 H1234 0.931 . S
C1225 C1222 1.380 . S
C1225 C1223 1.392 . S
C1225 H1235 0.929 . S
C1226 O1206 1.266 . S
C1226 O1207 1.248 . S
C1227 Tb1163 2.802 . S
C1227 O1202 1.264 . S
C1227 O1205 1.256 . S
C1227 C1220 1.496 1_455 S
H1228 C1211 0.929 . S
H1229 C1212 0.929 . S
H1230 C1213 0.929 . S
H1231 C1214 0.931 . S
H1232 C1222 0.929 . S
H1233 C1223 0.929 . S
H1234 C1224 0.931 . S
H1235 C1225 0.929 . S
Tb1236 N1265 2.617 . S
Tb1236 N1271 2.572 . S
Tb1236 O1280 2.465 . S
Tb1236 O1281 2.387 . S
Tb1236 O1283 2.428 . S
Tb1236 O1284 2.308 . S
Tb1236 O1288 2.349 . S
Tb1236 O1291 2.393 . S
Tb1236 C1300 2.802 . S
C1237 N1238 1.379 . S
C1237 C1240 1.416 . S
C1237 C1244 1.424 . S
N1238 C1237 1.379 . S
N1238 C1241 1.334 . S
N1238 Tb1247 2.617 . S
C1239 C1241 1.390 . S
C1239 C1242 1.339 . S
C1239 H1259 0.930 . S
C1240 C1237 1.416 . S
C1240 C1242 1.416 . S
C1240 C1246 1.448 . S
C1241 N1238 1.334 . S
C1241 C1239 1.390 . S
C1241 H1252 0.930 . S
C1242 C1239 1.339 . S
C1242 C1240 1.416 . S
C1242 H1263 0.930 . S
C1243 C1244 1.413 . S
C1243 C1245 1.427 . S
C1243 C1249 1.416 . S
C1244 C1237 1.424 . S
C1244 C1243 1.413 . S
C1244 N1248 1.361 . S
C1245 C1243 1.427 . S
C1245 C1246 1.328 . S
C1245 H1260 0.929 . S
C1246 C1240 1.448 . S
C1246 C1245 1.328 . S
C1246 H1261 0.930 . S
Tb1247 N1238 2.617 . S
Tb1247 N1248 2.572 . S
Tb1247 O1282 2.349 . S
Tb1247 O1285 2.393 . S
Tb1247 O1286 2.465 . S
Tb1247 O1287 2.387 . S
Tb1247 O1289 2.428 . S
Tb1247 O1290 2.308 . S
Tb1247 C1311 2.802 . S
N1248 C1244 1.361 . S
N1248 Tb1247 2.572 . S
N1248 C1250 1.340 . S
C1249 C1243 1.416 . S
C1249 C1251 1.332 . S
C1249 H1257 0.931 . S
C1250 N1248 1.340 . S
C1250 C1251 1.407 . S
C1250 H1256 0.930 . S
C1251 C1249 1.332 . S
C1251 C1250 1.407 . S
C1251 H1253 0.929 . S
H1252 C1241 0.930 . S
H1253 C1251 0.929 . S
H1254 C1269 0.930 . S
H1255 C1276 0.929 . S
H1256 C1250 0.930 . S
H1257 C1249 0.931 . S
H1258 C1272 0.930 . S
H1259 C1239 0.930 . S
H1260 C1245 0.929 . S
H1261 C1246 0.930 . S
H1262 C1267 0.930 . S
H1263 C1242 0.930 . S
H1264 C1275 0.931 . S
N1265 Tb1236 2.617 . S
N1265 C1266 1.379 . S
N1265 C1269 1.334 . S
C1266 N1265 1.379 . S
C1266 C1268 1.416 . S
C1266 C1274 1.424 . S
C1267 H1262 0.930 . S
C1267 C1269 1.390 . S
C1267 C1270 1.339 . S
C1268 C1266 1.416 . S
C1268 C1270 1.416 . S
C1268 C1301 1.448 . S
C1269 H1254 0.930 . S
C1269 N1265 1.334 . S
C1269 C1267 1.390 . S
C1270 C1267 1.339 . S
C1270 C1268 1.416 . S
C1270 H1277 0.930 . S
N1271 Tb1236 2.572 . S
N1271 C1272 1.340 . S
N1271 C1274 1.361 . S
C1272 H1258 0.930 . S
C1272 N1271 1.340 . S
C1272 C1276 1.407 . S
C1273 C1274 1.413 . S
C1273 C1275 1.416 . S
C1273 C1302 1.427 . S
C1274 C1266 1.424 . S
C1274 N1271 1.361 . S
C1274 C1273 1.413 . S
C1275 H1264 0.931 . S
C1275 C1273 1.416 . S
C1275 C1276 1.332 . S
C1276 H1255 0.929 . S
C1276 C1272 1.407 . S
C1276 C1275 1.332 . S
H1277 C1270 0.930 . S
H1278 C1301 0.930 . S
H1279 C1302 0.929 . S
O1280 Tb1236 2.465 . S
O1280 C1300 1.264 . S
O1281 Tb1236 2.387 . S
O1281 C1292 1.264 . S
O1282 Tb1247 2.349 . S
O1282 C1292 1.243 . S
O1283 Tb1236 2.428 . S
O1283 C1300 1.256 . S
O1284 Tb1236 2.308 . S
O1284 C1299 1.266 . S
O1285 Tb1247 2.393 . S
O1285 C1299 1.248 . S
O1286 Tb1247 2.465 . S
O1286 C1311 1.264 . S
O1287 Tb1247 2.387 . S
O1287 C1303 1.264 . S
O1288 Tb1236 2.349 . S
O1288 C1303 1.243 . S
O1289 Tb1247 2.428 . S
O1289 C1311 1.256 . S
O1290 Tb1247 2.308 . S
O1290 C1310 1.266 . S
O1291 Tb1236 2.393 . S
O1291 C1310 1.248 . S
C1292 O1281 1.264 . S
C1292 O1282 1.243 . S
C1293 C1296 1.399 . S
C1293 C1298 1.383 . S
C1293 C1300 1.496 . S
C1294 C1295 1.399 . S
C1294 C1298 1.389 . S
C1295 C1294 1.399 . S
C1295 C1297 1.380 . S
C1295 H1312 0.929 . S
C1296 C1293 1.399 . S
C1296 C1297 1.392 . S
C1296 H1313 0.929 . S
C1297 C1295 1.380 . S
C1297 C1296 1.392 . S
C1297 H1314 0.929 . S
C1298 C1293 1.383 . S
C1298 C1294 1.389 . S
C1298 H1315 0.931 . S
C1299 O1284 1.266 . S
C1299 O1285 1.248 . S
C1300 Tb1236 2.802 . S
C1300 O1280 1.264 . S
C1300 O1283 1.256 . S
C1300 C1293 1.496 . S
C1301 C1268 1.448 . S
C1301 H1278 0.930 . S
C1301 C1302 1.328 . S
C1302 C1273 1.427 . S
C1302 H1279 0.929 . S
C1302 C1301 1.328 . S
C1303 O1287 1.264 . S
C1303 O1288 1.243 . S
C1304 C1307 1.399 . S
C1304 C1308 1.383 . S
C1304 C1311 1.496 . S
C1305 C1306 1.399 . S
C1305 C1308 1.389 . S
C1306 C1305 1.399 . S
C1306 C1309 1.380 . S
C1306 H1316 0.929 . S
C1307 C1304 1.399 . S
C1307 C1309 1.392 . S
C1307 H1317 0.929 . S
C1308 C1304 1.383 . S
C1308 C1305 1.389 . S
C1308 H1318 0.931 . S
C1309 C1306 1.380 . S
C1309 C1307 1.392 . S
C1309 H1319 0.929 . S
C1310 O1290 1.266 . S
C1310 O1291 1.248 . S
C1311 Tb1247 2.802 . S
C1311 O1286 1.264 . S
C1311 O1289 1.256 . S
C1311 C1304 1.496 . S
H1312 C1295 0.929 . S
H1313 C1296 0.929 . S
H1314 C1297 0.929 . S
H1315 C1298 0.931 . S
H1316 C1306 0.929 . S
H1317 C1307 0.929 . S
H1318 C1308 0.931 . S
H1319 C1309 0.929 . S
Tb1320 N1349 2.617 . S
Tb1320 N1355 2.572 . S
Tb1320 O1364 2.465 . S
Tb1320 O1365 2.387 . S
Tb1320 O1367 2.428 . S
Tb1320 O1368 2.308 . S
Tb1320 O1372 2.349 . S
Tb1320 O1375 2.393 . S
Tb1320 C1384 2.802 . S
C1321 N1322 1.379 . S
C1321 C1324 1.416 . S
C1321 C1328 1.424 . S
N1322 C1321 1.379 . S
N1322 C1325 1.334 . S
N1322 Tb1331 2.617 . S
C1323 C1325 1.390 . S
C1323 C1326 1.339 . S
C1323 H1343 0.930 . S
C1324 C1321 1.416 . S
C1324 C1326 1.416 . S
C1324 C1330 1.448 . S
C1325 N1322 1.334 . S
C1325 C1323 1.390 . S
C1325 H1336 0.930 . S
C1326 C1323 1.339 . S
C1326 C1324 1.416 . S
C1326 H1347 0.930 . S
C1327 C1328 1.413 . S
C1327 C1329 1.427 . S
C1327 C1333 1.416 . S
C1328 C1321 1.424 . S
C1328 C1327 1.413 . S
C1328 N1332 1.361 . S
C1329 C1327 1.427 . S
C1329 C1330 1.328 . S
C1329 H1344 0.929 . S
C1330 C1324 1.448 . S
C1330 C1329 1.328 . S
C1330 H1345 0.930 . S
Tb1331 N1322 2.617 . S
Tb1331 N1332 2.572 . S
Tb1331 O1366 2.349 . S
Tb1331 O1369 2.393 . S
Tb1331 O1370 2.465 . S
Tb1331 O1371 2.387 . S
Tb1331 O1373 2.428 . S
Tb1331 O1374 2.308 . S
Tb1331 C1395 2.802 . S
N1332 C1328 1.361 . S
N1332 Tb1331 2.572 . S
N1332 C1334 1.340 . S
C1333 C1327 1.416 . S
C1333 C1335 1.332 . S
C1333 H1341 0.931 . S
C1334 N1332 1.340 . S
C1334 C1335 1.407 . S
C1334 H1340 0.930 . S
C1335 C1333 1.332 . S
C1335 C1334 1.407 . S
C1335 H1337 0.929 . S
H1336 C1325 0.930 . S
H1337 C1335 0.929 . S
H1338 C1353 0.930 . S
H1339 C1360 0.929 . S
H1340 C1334 0.930 . S
H1341 C1333 0.931 . S
H1342 C1356 0.930 . S
H1343 C1323 0.930 . S
H1344 C1329 0.929 . S
H1345 C1330 0.930 . S
H1346 C1351 0.930 . S
H1347 C1326 0.930 . S
H1348 C1359 0.931 . S
N1349 Tb1320 2.617 . S
N1349 C1350 1.379 . S
N1349 C1353 1.334 . S
C1350 N1349 1.379 . S
C1350 C1352 1.416 . S
C1350 C1358 1.424 . S
C1351 H1346 0.930 . S
C1351 C1353 1.390 . S
C1351 C1354 1.339 . S
C1352 C1350 1.416 . S
C1352 C1354 1.416 . S
C1352 C1385 1.448 . S
C1353 H1338 0.930 . S
C1353 N1349 1.334 . S
C1353 C1351 1.390 . S
C1354 C1351 1.339 . S
C1354 C1352 1.416 . S
C1354 H1361 0.930 . S
N1355 Tb1320 2.572 . S
N1355 C1356 1.340 . S
N1355 C1358 1.361 . S
C1356 H1342 0.930 . S
C1356 N1355 1.340 . S
C1356 C1360 1.407 . S
C1357 C1358 1.413 . S
C1357 C1359 1.416 . S
C1357 C1386 1.427 . S
C1358 C1350 1.424 . S
C1358 N1355 1.361 . S
C1358 C1357 1.413 . S
C1359 H1348 0.931 . S
C1359 C1357 1.416 . S
C1359 C1360 1.332 . S
C1360 H1339 0.929 . S
C1360 C1356 1.407 . S
C1360 C1359 1.332 . S
H1361 C1354 0.930 . S
H1362 C1385 0.930 . S
H1363 C1386 0.929 . S
O1364 Tb1320 2.465 . S
O1364 C1384 1.264 . S
O1365 Tb1320 2.387 . S
O1365 C1376 1.264 . S
O1366 Tb1331 2.349 . S
O1366 C1376 1.243 . S
O1367 Tb1320 2.428 . S
O1367 C1384 1.256 . S
O1368 Tb1320 2.308 . S
O1368 C1383 1.266 . S
O1369 Tb1331 2.393 . S
O1369 C1383 1.248 . S
O1370 Tb1331 2.465 . S
O1370 C1395 1.264 . S
O1371 Tb1331 2.387 . S
O1371 C1387 1.264 . S
O1372 Tb1320 2.349 . S
O1372 C1387 1.243 . S
O1373 Tb1331 2.428 . S
O1373 C1395 1.256 . S
O1374 Tb1331 2.308 . S
O1374 C1394 1.266 . S
O1375 Tb1320 2.393 . S
O1375 C1394 1.248 . S
C1376 O1365 1.264 . S
C1376 O1366 1.243 . S
C1377 C1380 1.399 . S
C1377 C1382 1.383 . S
C1377 C1384 1.496 . S
C1378 C1379 1.399 . S
C1378 C1382 1.389 . S
C1379 C1378 1.399 . S
C1379 C1381 1.380 . S
C1379 H1396 0.929 . S
C1380 C1377 1.399 . S
C1380 C1381 1.392 . S
C1380 H1397 0.929 . S
C1381 C1379 1.380 . S
C1381 C1380 1.392 . S
C1381 H1398 0.929 . S
C1382 C1377 1.383 . S
C1382 C1378 1.389 . S
C1382 H1399 0.931 . S
C1383 O1368 1.266 . S
C1383 O1369 1.248 . S
C1384 Tb1320 2.802 . S
C1384 O1364 1.264 . S
C1384 O1367 1.256 . S
C1384 C1377 1.496 . S
C1385 C1352 1.448 . S
C1385 H1362 0.930 . S
C1385 C1386 1.328 . S
C1386 C1357 1.427 . S
C1386 H1363 0.929 . S
C1386 C1385 1.328 . S
C1387 O1371 1.264 . S
C1387 O1372 1.243 . S
C1388 C1391 1.399 . S
C1388 C1392 1.383 . S
C1388 C1395 1.496 . S
C1389 C1390 1.399 . S
C1389 C1392 1.389 . S
C1390 C1389 1.399 . S
C1390 C1393 1.380 . S
C1390 H1400 0.929 . S
C1391 C1388 1.399 . S
C1391 C1393 1.392 . S
C1391 H1401 0.929 . S
C1392 C1388 1.383 . S
C1392 C1389 1.389 . S
C1392 H1402 0.931 . S
C1393 C1390 1.380 . S
C1393 C1391 1.392 . S
C1393 H1403 0.929 . S
C1394 O1374 1.266 . S
C1394 O1375 1.248 . S
C1395 Tb1331 2.802 . S
C1395 O1370 1.264 . S
C1395 O1373 1.256 . S
C1395 C1388 1.496 . S
H1396 C1379 0.929 . S
H1397 C1380 0.929 . S
H1398 C1381 0.929 . S
H1399 C1382 0.931 . S
H1400 C1390 0.929 . S
H1401 C1391 0.929 . S
H1402 C1392 0.931 . S
H1403 C1393 0.929 . S
Tb1404 N1433 2.617 . S
Tb1404 N1439 2.572 . S
Tb1404 O1448 2.465 . S
Tb1404 O1449 2.387 . S
Tb1404 O1451 2.428 . S
Tb1404 O1452 2.308 . S
Tb1404 O1456 2.349 . S
Tb1404 O1459 2.393 . S
Tb1404 C1468 2.802 . S
C1405 N1406 1.379 . S
C1405 C1408 1.416 . S
C1405 C1412 1.424 . S
N1406 C1405 1.379 . S
N1406 C1409 1.334 . S
N1406 Tb1415 2.617 . S
C1407 C1409 1.390 . S
C1407 C1410 1.339 . S
C1407 H1427 0.930 . S
C1408 C1405 1.416 . S
C1408 C1410 1.416 . S
C1408 C1414 1.448 . S
C1409 N1406 1.334 . S
C1409 C1407 1.390 . S
C1409 H1420 0.930 . S
C1410 C1407 1.339 . S
C1410 C1408 1.416 . S
C1410 H1431 0.930 . S
C1411 C1412 1.413 . S
C1411 C1413 1.427 . S
C1411 C1417 1.416 . S
C1412 C1405 1.424 . S
C1412 C1411 1.413 . S
C1412 N1416 1.361 . S
C1413 C1411 1.427 . S
C1413 C1414 1.328 . S
C1413 H1428 0.929 . S
C1414 C1408 1.448 . S
C1414 C1413 1.328 . S
C1414 H1429 0.930 . S
Tb1415 N1406 2.617 . S
Tb1415 N1416 2.572 . S
Tb1415 O1450 2.349 . S
Tb1415 O1453 2.393 . S
Tb1415 O1454 2.465 . S
Tb1415 O1455 2.387 . S
Tb1415 O1457 2.428 . S
Tb1415 O1458 2.308 . S
Tb1415 C1479 2.802 . S
N1416 C1412 1.361 . S
N1416 Tb1415 2.572 . S
N1416 C1418 1.340 . S
C1417 C1411 1.416 . S
C1417 C1419 1.332 . S
C1417 H1425 0.931 . S
C1418 N1416 1.340 . S
C1418 C1419 1.407 . S
C1418 H1424 0.930 . S
C1419 C1417 1.332 . S
C1419 C1418 1.407 . S
C1419 H1421 0.929 . S
H1420 C1409 0.930 . S
H1421 C1419 0.929 . S
H1422 C1437 0.930 . S
H1423 C1444 0.929 . S
H1424 C1418 0.930 . S
H1425 C1417 0.931 . S
H1426 C1440 0.930 . S
H1427 C1407 0.930 . S
H1428 C1413 0.929 . S
H1429 C1414 0.930 . S
H1430 C1435 0.930 . S
H1431 C1410 0.930 . S
H1432 C1443 0.931 . S
N1433 Tb1404 2.617 . S
N1433 C1434 1.379 . S
N1433 C1437 1.334 . S
C1434 N1433 1.379 . S
C1434 C1436 1.416 . S
C1434 C1442 1.424 . S
C1435 H1430 0.930 . S
C1435 C1437 1.390 . S
C1435 C1438 1.339 . S
C1436 C1434 1.416 . S
C1436 C1438 1.416 . S
C1436 C1469 1.448 . S
C1437 H1422 0.930 . S
C1437 N1433 1.334 . S
C1437 C1435 1.390 . S
C1438 C1435 1.339 . S
C1438 C1436 1.416 . S
C1438 H1445 0.930 . S
N1439 Tb1404 2.572 . S
N1439 C1440 1.340 . S
N1439 C1442 1.361 . S
C1440 H1426 0.930 . S
C1440 N1439 1.340 . S
C1440 C1444 1.407 . S
C1441 C1442 1.413 . S
C1441 C1443 1.416 . S
C1441 C1470 1.427 . S
C1442 C1434 1.424 . S
C1442 N1439 1.361 . S
C1442 C1441 1.413 . S
C1443 H1432 0.931 . S
C1443 C1441 1.416 . S
C1443 C1444 1.332 . S
C1444 H1423 0.929 . S
C1444 C1440 1.407 . S
C1444 C1443 1.332 . S
H1445 C1438 0.930 . S
H1446 C1469 0.930 . S
H1447 C1470 0.929 . S
O1448 Tb1404 2.465 . S
O1448 C1468 1.264 . S
O1449 Tb1404 2.387 . S
O1449 C1460 1.264 . S
O1450 Tb1415 2.349 . S
O1450 C1460 1.243 . S
O1451 Tb1404 2.428 . S
O1451 C1468 1.256 . S
O1452 Tb1404 2.308 . S
O1452 C1467 1.266 . S
O1453 Tb1415 2.393 . S
O1453 C1467 1.248 . S
O1454 Tb1415 2.465 . S
O1454 C1479 1.264 . S
O1455 Tb1415 2.387 . S
O1455 C1471 1.264 . S
O1456 Tb1404 2.349 . S
O1456 C1471 1.243 . S
O1457 Tb1415 2.428 . S
O1457 C1479 1.256 . S
O1458 Tb1415 2.308 . S
O1458 C1478 1.266 . S
O1459 Tb1404 2.393 . S
O1459 C1478 1.248 . S
C1460 O1449 1.264 . S
C1460 O1450 1.243 . S
C1461 C1464 1.399 . S
C1461 C1466 1.383 . S
C1461 C1468 1.496 . S
C1462 C1463 1.399 . S
C1462 C1466 1.389 . S
C1463 C1462 1.399 . S
C1463 C1465 1.380 . S
C1463 H1480 0.929 . S
C1464 C1461 1.399 . S
C1464 C1465 1.392 . S
C1464 H1481 0.929 . S
C1465 C1463 1.380 . S
C1465 C1464 1.392 . S
C1465 H1482 0.929 . S
C1466 C1461 1.383 . S
C1466 C1462 1.389 . S
C1466 H1483 0.931 . S
C1467 O1452 1.266 . S
C1467 O1453 1.248 . S
C1468 Tb1404 2.802 . S
C1468 O1448 1.264 . S
C1468 O1451 1.256 . S
C1468 C1461 1.496 . S
C1469 C1436 1.448 . S
C1469 H1446 0.930 . S
C1469 C1470 1.328 . S
C1470 C1441 1.427 . S
C1470 H1447 0.929 . S
C1470 C1469 1.328 . S
C1471 O1455 1.264 . S
C1471 O1456 1.243 . S
C1472 C1475 1.399 . S
C1472 C1476 1.383 . S
C1472 C1479 1.496 . S
C1473 C1474 1.399 . S
C1473 C1476 1.389 . S
C1474 C1473 1.399 . S
C1474 C1477 1.380 . S
C1474 H1484 0.929 . S
C1475 C1472 1.399 . S
C1475 C1477 1.392 . S
C1475 H1485 0.929 . S
C1476 C1472 1.383 . S
C1476 C1473 1.389 . S
C1476 H1486 0.931 . S
C1477 C1474 1.380 . S
C1477 C1475 1.392 . S
C1477 H1487 0.929 . S
C1478 O1458 1.266 . S
C1478 O1459 1.248 . S
C1479 Tb1415 2.802 . S
C1479 O1454 1.264 . S
C1479 O1457 1.256 . S
C1479 C1472 1.496 . S
H1480 C1463 0.929 . S
H1481 C1464 0.929 . S
H1482 C1465 0.929 . S
H1483 C1466 0.931 . S
H1484 C1474 0.929 . S
H1485 C1475 0.929 . S
H1486 C1476 0.931 . S
H1487 C1477 0.929 . S
Tb1488 N1517 2.617 . S
Tb1488 N1523 2.572 . S
Tb1488 O1532 2.465 . S
Tb1488 O1533 2.387 . S
Tb1488 O1535 2.428 . S
Tb1488 O1536 2.308 . S
Tb1488 O1540 2.349 . S
Tb1488 O1543 2.393 . S
Tb1488 C1552 2.802 . S
C1489 N1490 1.379 . S
C1489 C1492 1.416 . S
C1489 C1496 1.424 . S
N1490 C1489 1.379 . S
N1490 C1493 1.334 . S
N1490 Tb1499 2.617 . S
C1491 C1493 1.390 . S
C1491 C1494 1.339 . S
C1491 H1511 0.930 . S
C1492 C1489 1.416 . S
C1492 C1494 1.416 . S
C1492 C1498 1.448 . S
C1493 N1490 1.334 . S
C1493 C1491 1.390 . S
C1493 H1504 0.930 . S
C1494 C1491 1.339 . S
C1494 C1492 1.416 . S
C1494 H1515 0.930 . S
C1495 C1496 1.413 . S
C1495 C1497 1.427 . S
C1495 C1501 1.416 . S
C1496 C1489 1.424 . S
C1496 C1495 1.413 . S
C1496 N1500 1.361 . S
C1497 C1495 1.427 . S
C1497 C1498 1.328 . S
C1497 H1512 0.929 . S
C1498 C1492 1.448 . S
C1498 C1497 1.328 . S
C1498 H1513 0.930 . S
Tb1499 N1490 2.617 . S
Tb1499 N1500 2.572 . S
Tb1499 O1534 2.349 . S
Tb1499 O1537 2.393 . S
Tb1499 O1538 2.465 . S
Tb1499 O1539 2.387 . S
Tb1499 O1541 2.428 . S
Tb1499 O1542 2.308 . S
Tb1499 C1563 2.802 . S
N1500 C1496 1.361 . S
N1500 Tb1499 2.572 . S
N1500 C1502 1.340 . S
C1501 C1495 1.416 . S
C1501 C1503 1.332 . S
C1501 H1509 0.931 . S
C1502 N1500 1.340 . S
C1502 C1503 1.407 . S
C1502 H1508 0.930 . S
C1503 C1501 1.332 . S
C1503 C1502 1.407 . S
C1503 H1505 0.929 . S
H1504 C1493 0.930 . S
H1505 C1503 0.929 . S
H1506 C1521 0.930 . S
H1507 C1528 0.929 . S
H1508 C1502 0.930 . S
H1509 C1501 0.931 . S
H1510 C1524 0.930 . S
H1511 C1491 0.930 . S
H1512 C1497 0.929 . S
H1513 C1498 0.930 . S
H1514 C1519 0.930 . S
H1515 C1494 0.930 . S
H1516 C1527 0.931 . S
N1517 Tb1488 2.617 . S
N1517 C1518 1.379 . S
N1517 C1521 1.334 . S
C1518 N1517 1.379 . S
C1518 C1520 1.416 . S
C1518 C1526 1.424 . S
C1519 H1514 0.930 . S
C1519 C1521 1.390 . S
C1519 C1522 1.339 . S
C1520 C1518 1.416 . S
C1520 C1522 1.416 . S
C1520 C1553 1.448 . S
C1521 H1506 0.930 . S
C1521 N1517 1.334 . S
C1521 C1519 1.390 . S
C1522 C1519 1.339 . S
C1522 C1520 1.416 . S
C1522 H1529 0.930 . S
N1523 Tb1488 2.572 . S
N1523 C1524 1.340 . S
N1523 C1526 1.361 . S
C1524 H1510 0.930 . S
C1524 N1523 1.340 . S
C1524 C1528 1.407 . S
C1525 C1526 1.413 . S
C1525 C1527 1.416 . S
C1525 C1554 1.427 . S
C1526 C1518 1.424 . S
C1526 N1523 1.361 . S
C1526 C1525 1.413 . S
C1527 H1516 0.931 . S
C1527 C1525 1.416 . S
C1527 C1528 1.332 . S
C1528 H1507 0.929 . S
C1528 C1524 1.407 . S
C1528 C1527 1.332 . S
H1529 C1522 0.930 . S
H1530 C1553 0.930 . S
H1531 C1554 0.929 . S
O1532 Tb1488 2.465 . S
O1532 C1552 1.264 . S
O1533 Tb1488 2.387 . S
O1533 C1544 1.264 . S
O1534 Tb1499 2.349 . S
O1534 C1544 1.243 . S
O1535 Tb1488 2.428 . S
O1535 C1552 1.256 . S
O1536 Tb1488 2.308 . S
O1536 C1551 1.266 . S
O1537 Tb1499 2.393 . S
O1537 C1551 1.248 . S
O1538 Tb1499 2.465 . S
O1538 C1563 1.264 . S
O1539 Tb1499 2.387 . S
O1539 C1555 1.264 . S
O1540 Tb1488 2.349 . S
O1540 C1555 1.243 . S
O1541 Tb1499 2.428 . S
O1541 C1563 1.256 . S
O1542 Tb1499 2.308 . S
O1542 C1562 1.266 . S
O1543 Tb1488 2.393 . S
O1543 C1562 1.248 . S
C1544 O1533 1.264 . S
C1544 O1534 1.243 . S
C1545 C1548 1.399 . S
C1545 C1550 1.383 . S
C1545 C1552 1.496 . S
C1546 C1547 1.399 . S
C1546 C1550 1.389 . S
C1547 C1546 1.399 . S
C1547 C1549 1.380 . S
C1547 H1564 0.929 . S
C1548 C1545 1.399 . S
C1548 C1549 1.392 . S
C1548 H1565 0.929 . S
C1549 C1547 1.380 . S
C1549 C1548 1.392 . S
C1549 H1566 0.929 . S
C1550 C1545 1.383 . S
C1550 C1546 1.389 . S
C1550 H1567 0.931 . S
C1551 O1536 1.266 . S
C1551 O1537 1.248 . S
C1552 Tb1488 2.802 . S
C1552 O1532 1.264 . S
C1552 O1535 1.256 . S
C1552 C1545 1.496 . S
C1553 C1520 1.448 . S
C1553 H1530 0.930 . S
C1553 C1554 1.328 . S
C1554 C1525 1.427 . S
C1554 H1531 0.929 . S
C1554 C1553 1.328 . S
C1555 O1539 1.264 . S
C1555 O1540 1.243 . S
C1556 C1559 1.399 . S
C1556 C1560 1.383 . S
C1556 C1563 1.496 . S
C1557 C1558 1.399 . S
C1557 C1560 1.389 . S
C1558 C1557 1.399 . S
C1558 C1561 1.380 . S
C1558 H1568 0.929 . S
C1559 C1556 1.399 . S
C1559 C1561 1.392 . S
C1559 H1569 0.929 . S
C1560 C1556 1.383 . S
C1560 C1557 1.389 . S
C1560 H1570 0.931 . S
C1561 C1558 1.380 . S
C1561 C1559 1.392 . S
C1561 H1571 0.929 . S
C1562 O1542 1.266 . S
C1562 O1543 1.248 . S
C1563 Tb1499 2.802 . S
C1563 O1538 1.264 . S
C1563 O1541 1.256 . S
C1563 C1556 1.496 . S
H1564 C1547 0.929 . S
H1565 C1548 0.929 . S
H1566 C1549 0.929 . S
H1567 C1550 0.931 . S
H1568 C1558 0.929 . S
H1569 C1559 0.929 . S
H1570 C1560 0.931 . S
H1571 C1561 0.929 . S
Tb1572 N1601 2.617 1_455 S
Tb1572 N1607 2.572 1_455 S
Tb1572 O1616 2.465 1_455 S
Tb1572 O1617 2.387 . S
Tb1572 O1619 2.428 1_455 S
Tb1572 O1620 2.266 1_554 S
Tb1572 O1624 2.349 . S
Tb1572 O1627 2.393 . S
Tb1572 C1636 2.802 1_455 S
C1573 N1574 1.379 . S
C1573 C1576 1.416 . S
C1573 C1580 1.424 1_556 S
N1574 C1573 1.379 . S
N1574 C1577 1.334 . S
N1574 Tb1583 2.617 1_556 S
C1575 C1577 1.390 . S
C1575 C1578 1.339 . S
C1575 H1595 0.930 . S
C1576 C1573 1.416 . S
C1576 C1578 1.416 . S
C1576 C1582 1.448 . S
C1577 N1574 1.334 . S
C1577 C1575 1.390 . S
C1577 H1588 0.930 . S
C1578 C1575 1.339 . S
C1578 C1576 1.416 . S
C1578 H1599 0.930 . S
C1579 C1580 1.413 . S
C1579 C1581 1.427 1_554 S
C1579 C1585 1.416 . S
C1580 C1573 1.424 1_554 S
C1580 C1579 1.413 . S
C1580 N1584 1.361 . S
C1581 C1579 1.427 1_556 S
C1581 C1582 1.328 . S
C1581 H1596 0.929 1_556 S
C1582 C1576 1.448 . S
C1582 C1581 1.328 . S
C1582 H1597 0.930 . S
Tb1583 N1574 2.617 1_554 S
Tb1583 N1584 2.572 . S
Tb1583 O1618 2.349 . S
Tb1583 O1621 2.393 1_554 S
Tb1583 O1622 2.465 . S
Tb1583 O1623 2.387 . S
Tb1583 O1625 2.428 1_554 S
Tb1583 O1626 2.308 . S
Tb1583 C1647 2.802 1_554 S
N1584 C1580 1.361 . S
N1584 Tb1583 2.572 . S
N1584 C1586 1.340 . S
C1585 C1579 1.416 . S
C1585 C1587 1.332 . S
C1585 H1593 0.931 . S
C1586 N1584 1.340 . S
C1586 C1587 1.407 . S
C1586 H1592 0.930 . S
C1587 C1585 1.332 . S
C1587 C1586 1.407 . S
C1587 H1589 0.929 . S
H1588 C1577 0.930 . S
H1589 C1587 0.929 . S
H1590 C1605 0.917 1_455 S
H1591 C1612 0.929 . S
H1592 C1586 0.930 . S
H1593 C1585 0.931 . S
H1594 C1608 0.930 1_556 S
H1595 C1575 0.930 . S
H1596 C1581 0.929 1_554 S
H1597 C1582 0.930 . S
H1598 C1603 0.930 1_455 S
H1599 C1578 0.930 . S
H1600 C1611 0.931 . S
N1601 Tb1572 2.617 1_655 S
N1601 C1602 1.379 . S
N1601 C1605 1.343 . S
C1602 N1601 1.379 . S
C1602 C1604 1.416 . S
C1602 C1610 1.424 . S
C1603 H1598 0.930 1_655 S
C1603 C1605 1.394 . S
C1603 C1606 1.339 . S
C1604 C1602 1.416 . S
C1604 C1606 1.416 . S
C1604 C1637 1.448 . S
C1605 H1590 0.917 1_655 S
C1605 N1601 1.343 . S
C1605 C1603 1.394 . S
C1606 C1603 1.339 . S
C1606 C1604 1.416 . S
C1606 H1613 0.930 . S
N1607 Tb1572 2.572 1_655 S
N1607 C1608 1.340 . S
N1607 C1610 1.361 . S
C1608 H1594 0.930 1_554 S
C1608 N1607 1.340 . S
C1608 C1612 1.407 1_554 S
C1609 C1610 1.413 . S
C1609 C1611 1.416 . S
C1609 C1638 1.427 . S
C1610 C1602 1.424 . S
C1610 N1607 1.361 . S
C1610 C1609 1.413 . S
C1611 H1600 0.931 . S
C1611 C1609 1.416 . S
C1611 C1612 1.332 1_554 S
C1612 H1591 0.929 . S
C1612 C1608 1.407 1_556 S
C1612 C1611 1.332 1_556 S
H1613 C1606 0.930 . S
H1614 C1637 0.930 . S
H1615 C1638 0.929 . S
O1616 Tb1572 2.465 1_655 S
O1616 C1636 1.264 . S
O1617 Tb1572 2.387 . S
O1617 C1628 1.264 . S
O1618 Tb1583 2.349 . S
O1618 C1628 1.243 . S
O1619 Tb1572 2.428 1_655 S
O1619 C1636 1.256 . S
O1620 Tb1572 2.266 1_556 S
O1620 C1635 1.306 . S
O1621 Tb1583 2.393 1_556 S
O1621 C1635 1.248 . S
O1622 Tb1583 2.465 . S
O1622 C1647 1.264 1_554 S
O1623 Tb1583 2.387 . S
O1623 C1639 1.264 . S
O1624 Tb1572 2.349 . S
O1624 C1639 1.243 . S
O1625 Tb1583 2.428 1_556 S
O1625 C1647 1.256 . S
O1626 Tb1583 2.308 . S
O1626 C1646 1.266 . S
O1627 Tb1572 2.393 . S
O1627 C1646 1.248 . S
C1628 O1617 1.264 . S
C1628 O1618 1.243 . S
C1629 C1632 1.399 . S
C1629 C1634 1.383 . S
C1629 C1636 1.496 . S
C1630 C1631 1.399 . S
C1630 C1634 1.389 . S
C1631 C1630 1.399 . S
C1631 C1633 1.380 . S
C1631 H1648 0.929 . S
C1632 C1629 1.399 . S
C1632 C1633 1.392 . S
C1632 H1649 0.929 . S
C1633 C1631 1.380 . S
C1633 C1632 1.392 . S
C1633 H1650 0.929 . S
C1634 C1629 1.383 . S
C1634 C1630 1.389 . S
C1634 H1651 0.931 . S
C1635 O1620 1.306 . S
C1635 O1621 1.248 . S
C1636 Tb1572 2.802 1_655 S
C1636 O1616 1.264 . S
C1636 O1619 1.256 . S
C1636 C1629 1.496 . S
C1637 C1604 1.448 . S
C1637 H1614 0.930 . S
C1637 C1638 1.328 . S
C1638 C1609 1.427 . S
C1638 H1615 0.929 . S
C1638 C1637 1.328 . S
C1639 O1623 1.264 . S
C1639 O1624 1.243 . S
C1640 C1643 1.399 . S
C1640 C1644 1.383 1_556 S
C1640 C1647 1.496 . S
C1641 C1642 1.399 1_554 S
C1641 C1644 1.389 . S
C1642 C1641 1.399 1_556 S
C1642 C1645 1.380 . S
C1642 H1652 0.929 . S
C1643 C1640 1.399 . S
C1643 C1645 1.392 . S
C1643 H1653 0.929 . S
C1644 C1640 1.383 1_554 S
C1644 C1641 1.389 . S
C1644 H1654 0.931 . S
C1645 C1642 1.380 . S
C1645 C1643 1.392 . S
C1645 H1655 0.929 . S
C1646 O1626 1.266 . S
C1646 O1627 1.248 . S
C1647 Tb1583 2.802 1_556 S
C1647 O1622 1.264 1_556 S
C1647 O1625 1.256 . S
C1647 C1640 1.496 . S
H1648 C1631 0.929 . S
H1649 C1632 0.929 . S
H1650 C1633 0.929 . S
H1651 C1634 0.931 . S
H1652 C1642 0.929 . S
H1653 C1643 0.929 . S
H1654 C1644 0.931 . S
H1655 C1645 0.929 . S
H1656 C1664 0.929 . S
H1657 C1666 0.925 1_554 S
H1658 C1668 0.930 . S
H1659 C1671 0.929 . S
H1660 C1674 0.930 . S
H1661 C1676 0.960 . S
H1662 C1676 0.960 . S
H1663 C1676 0.960 . S
C1664 H1656 0.929 . S
C1664 C1665 1.377 . S
C1664 C1666 1.386 . S
C1665 C1664 1.377 . S
C1665 C1671 1.390 1_655 S
C1666 H1657 0.925 1_556 S
C1666 C1664 1.386 . S
C1666 C1667 1.369 1_655 S
C1667 C1666 1.369 1_455 S
C1667 C1668 1.400 . S
C1667 C1672 1.490 . S
C1668 H1658 0.930 . S
C1668 C1667 1.400 . S
C1668 C1671 1.386 . S
H1669 C1685 0.930 . S
H1670 C1686 0.931 . S
C1671 H1659 0.929 . S
C1671 C1665 1.390 1_455 S
C1671 C1668 1.386 . S
C1672 C1667 1.490 . S
C1672 C1674 1.395 1_455 S
C1672 C1675 1.403 . S
H1673 C1679 0.930 . S
C1674 H1660 0.930 . S
C1674 C1672 1.395 1_655 S
C1674 C1677 1.403 . S
C1675 C1672 1.403 . S
C1675 C1676 1.524 . S
C1675 C1679 1.400 . S
C1676 H1661 0.960 . S
C1676 H1662 0.960 . S
C1676 H1663 0.960 . S
C1676 C1675 1.524 . S
C1677 C1674 1.403 . S
C1677 C1678 1.392 1_655 S
C1677 C1681 1.495 1_556 S
C1678 C1677 1.392 1_455 S
C1678 C1679 1.385 . S
C1678 C1680 1.478 . S
C1679 H1673 0.930 . S
C1679 C1675 1.400 . S
C1679 C1678 1.385 . S
C1680 C1678 1.478 . S
C1680 C1682 1.381 1_556 S
C1680 C1686 1.383 . S
C1681 C1677 1.495 1_554 S
C1681 H1687 0.959 . S
C1681 H1688 0.961 1_554 S
C1681 H1689 0.960 . S
C1682 C1680 1.381 1_554 S
C1682 C1683 1.394 . S
C1682 H1690 0.930 . S
C1683 C1682 1.394 . S
C1683 C1684 1.383 . S
C1683 H1691 0.929 . S
C1684 C1683 1.383 . S
C1684 C1685 1.377 1_554 S
C1685 H1669 0.930 . S
C1685 C1684 1.377 1_556 S
C1685 C1686 1.379 . S
C1686 H1670 0.931 . S
C1686 C1680 1.383 . S
C1686 C1685 1.379 . S
H1687 C1681 0.959 . S
H1688 C1681 0.961 1_556 S
H1689 C1681 0.960 . S
H1690 C1682 0.930 . S
H1691 C1683 0.929 . S
H1692 C1700 0.929 . S
H1693 C1702 0.930 . S
H1694 C1704 0.930 . S
H1695 C1707 0.929 . S
H1696 C1710 0.930 . S
H1697 C1712 0.960 . S
H1698 C1712 0.960 . S
H1699 C1712 0.960 . S
C1700 H1692 0.929 . S
C1700 C1701 1.377 . S
C1700 C1702 1.384 . S
C1701 C1700 1.377 . S
C1701 C1707 1.390 . S
C1702 H1693 0.930 . S
C1702 C1700 1.384 . S
C1702 C1703 1.372 . S
C1703 C1702 1.372 . S
C1703 C1704 1.400 . S
C1703 C1708 1.490 . S
C1704 H1694 0.930 . S
C1704 C1703 1.400 . S
C1704 C1707 1.386 . S
H1705 C1721 0.930 . S
H1706 C1722 0.931 . S
C1707 H1695 0.929 . S
C1707 C1701 1.390 . S
C1707 C1704 1.386 . S
C1708 C1703 1.490 . S
C1708 C1710 1.395 . S
C1708 C1711 1.403 . S
H1709 C1715 0.930 . S
C1710 H1696 0.930 . S
C1710 C1708 1.395 . S
C1710 C1713 1.403 . S
C1711 C1708 1.403 . S
C1711 C1712 1.524 . S
C1711 C1715 1.400 . S
C1712 H1697 0.960 . S
C1712 H1698 0.960 . S
C1712 H1699 0.960 . S
C1712 C1711 1.524 . S
C1713 C1710 1.403 . S
C1713 C1714 1.392 . S
C1713 C1717 1.495 . S
C1714 C1713 1.392 . S
C1714 C1715 1.385 . S
C1714 C1716 1.478 . S
C1715 H1709 0.930 . S
C1715 C1711 1.400 . S
C1715 C1714 1.385 . S
C1716 C1714 1.478 . S
C1716 C1718 1.381 . S
C1716 C1722 1.383 . S
C1717 C1713 1.495 . S
C1717 H1723 0.959 . S
C1717 H1724 0.961 . S
C1717 H1725 0.960 . S
C1718 C1716 1.381 . S
C1718 C1719 1.394 . S
C1718 H1726 0.930 . S
C1719 C1718 1.394 . S
C1719 C1720 1.383 . S
C1719 H1727 0.929 . S
C1720 C1719 1.383 . S
C1720 C1721 1.377 . S
C1721 H1705 0.930 . S
C1721 C1720 1.377 . S
C1721 C1722 1.379 . S
C1722 H1706 0.931 . S
C1722 C1716 1.383 . S
C1722 C1721 1.379 . S
H1723 C1717 0.959 . S
H1724 C1717 0.961 . S
H1725 C1717 0.960 . S
H1726 C1718 0.930 . S
H1727 C1719 0.929 . S
H1728 C1736 0.929 . S
H1729 C1738 0.930 . S
H1730 C1740 0.930 . S
H1731 C1743 0.929 . S
H1732 C1746 0.930 . S
H1733 C1748 0.960 . S
H1734 C1748 0.960 . S
H1735 C1748 0.960 . S
C1736 H1728 0.929 . S
C1736 C1737 1.377 . S
C1736 C1738 1.384 . S
C1737 C1736 1.377 . S
C1737 C1743 1.390 . S
C1738 H1729 0.930 . S
C1738 C1736 1.384 . S
C1738 C1739 1.372 . S
C1739 C1738 1.372 . S
C1739 C1740 1.400 . S
C1739 C1744 1.490 . S
C1740 H1730 0.930 . S
C1740 C1739 1.400 . S
C1740 C1743 1.386 . S
H1741 C1757 0.930 . S
H1742 C1758 0.931 . S
C1743 H1731 0.929 . S
C1743 C1737 1.390 . S
C1743 C1740 1.386 . S
C1744 C1739 1.490 . S
C1744 C1746 1.395 . S
C1744 C1747 1.403 . S
H1745 C1751 0.930 . S
C1746 H1732 0.930 . S
C1746 C1744 1.395 . S
C1746 C1749 1.403 . S
C1747 C1744 1.403 . S
C1747 C1748 1.524 . S
C1747 C1751 1.400 . S
C1748 H1733 0.960 . S
C1748 H1734 0.960 . S
C1748 H1735 0.960 . S
C1748 C1747 1.524 . S
C1749 C1746 1.403 . S
C1749 C1750 1.392 . S
C1749 C1753 1.495 . S
C1750 C1749 1.392 . S
C1750 C1751 1.385 . S
C1750 C1752 1.478 . S
C1751 H1745 0.930 . S
C1751 C1747 1.400 . S
C1751 C1750 1.385 . S
C1752 C1750 1.478 . S
C1752 C1754 1.381 . S
C1752 C1758 1.383 . S
C1753 C1749 1.495 . S
C1753 H1759 0.959 . S
C1753 H1760 0.961 . S
C1753 H1761 0.960 . S
C1754 C1752 1.381 . S
C1754 C1755 1.394 . S
C1754 H1762 0.930 . S
C1755 C1754 1.394 . S
C1755 C1756 1.383 . S
C1755 H1763 0.929 . S
C1756 C1755 1.383 . S
C1756 C1757 1.377 . S
C1757 H1741 0.930 . S
C1757 C1756 1.377 . S
C1757 C1758 1.379 . S
C1758 H1742 0.931 . S
C1758 C1752 1.383 . S
C1758 C1757 1.379 . S
H1759 C1753 0.959 . S
H1760 C1753 0.961 . S
H1761 C1753 0.960 . S
H1762 C1754 0.930 . S
H1763 C1755 0.929 . S
H1764 C1772 0.929 . S
H1765 C1774 0.930 . S
H1766 C1776 0.930 . S
H1767 C1779 0.929 . S
H1768 C1782 0.930 . S
H1769 C1784 0.960 . S
H1770 C1784 0.960 . S
H1771 C1784 0.960 . S
C1772 H1764 0.929 . S
C1772 C1773 1.377 . S
C1772 C1774 1.384 . S
C1773 C1772 1.377 . S
C1773 C1779 1.390 . S
C1774 H1765 0.930 . S
C1774 C1772 1.384 . S
C1774 C1775 1.372 . S
C1775 C1774 1.372 . S
C1775 C1776 1.400 . S
C1775 C1780 1.490 . S
C1776 H1766 0.930 . S
C1776 C1775 1.400 . S
C1776 C1779 1.386 . S
H1777 C1793 0.930 . S
H1778 C1794 0.931 . S
C1779 H1767 0.929 . S
C1779 C1773 1.390 . S
C1779 C1776 1.386 . S
C1780 C1775 1.490 . S
C1780 C1782 1.395 . S
C1780 C1783 1.403 . S
H1781 C1787 0.930 . S
C1782 H1768 0.930 . S
C1782 C1780 1.395 . S
C1782 C1785 1.403 . S
C1783 C1780 1.403 . S
C1783 C1784 1.524 . S
C1783 C1787 1.400 . S
C1784 H1769 0.960 . S
C1784 H1770 0.960 . S
C1784 H1771 0.960 . S
C1784 C1783 1.524 . S
C1785 C1782 1.403 . S
C1785 C1786 1.392 . S
C1785 C1789 1.495 . S
C1786 C1785 1.392 . S
C1786 C1787 1.385 . S
C1786 C1788 1.478 . S
C1787 H1781 0.930 . S
C1787 C1783 1.400 . S
C1787 C1786 1.385 . S
C1788 C1786 1.478 . S
C1788 C1790 1.381 . S
C1788 C1794 1.383 . S
C1789 C1785 1.495 . S
C1789 H1795 0.959 . S
C1789 H1796 0.961 . S
C1789 H1797 0.960 . S
C1790 C1788 1.381 . S
C1790 C1791 1.394 . S
C1790 H1798 0.930 . S
C1791 C1790 1.394 . S
C1791 C1792 1.383 . S
C1791 H1799 0.929 . S
C1792 C1791 1.383 . S
C1792 C1793 1.377 . S
C1793 H1777 0.930 . S
C1793 C1792 1.377 . S
C1793 C1794 1.379 . S
C1794 H1778 0.931 . S
C1794 C1788 1.383 . S
C1794 C1793 1.379 . S
H1795 C1789 0.959 . S
H1796 C1789 0.961 . S
H1797 C1789 0.960 . S
H1798 C1790 0.930 . S
H1799 C1791 0.929 . S
H1800 C1808 0.929 . S
H1801 C1810 0.930 . S
H1802 C1812 0.930 1_655 S
H1803 C1815 0.929 1_655 S
H1804 C1818 0.930 . S
H1805 C1820 0.960 . S
H1806 C1820 0.960 . S
H1807 C1820 0.960 . S
C1808 H1800 0.929 . S
C1808 C1809 1.377 . S
C1808 C1810 1.384 . S
C1809 C1808 1.377 . S
C1809 C1815 1.390 . S
C1810 H1801 0.930 . S
C1810 C1808 1.384 . S
C1810 C1811 1.372 . S
C1811 C1810 1.372 . S
C1811 C1812 1.400 . S
C1811 C1816 1.490 . S
C1812 H1802 0.930 1_455 S
C1812 C1811 1.400 . S
C1812 C1815 1.386 . S
H1813 C1829 0.930 1_655 S
H1814 C1830 0.923 1_655 S
C1815 H1803 0.929 1_455 S
C1815 C1809 1.390 . S
C1815 C1812 1.386 . S
C1816 C1811 1.490 . S
C1816 C1818 1.395 . S
C1816 C1819 1.403 . S
H1817 C1823 0.905 1_655 S
C1818 H1804 0.930 . S
C1818 C1816 1.395 . S
C1818 C1821 1.403 . S
C1819 C1816 1.403 . S
C1819 C1820 1.524 1_455 S
C1819 C1823 1.400 . S
C1820 H1805 0.960 . S
C1820 H1806 0.960 . S
C1820 H1807 0.960 . S
C1820 C1819 1.524 1_655 S
C1821 C1818 1.403 . S
C1821 C1822 1.392 . S
C1821 C1825 1.495 . S
C1822 C1821 1.392 . S
C1822 C1823 1.385 . S
C1822 C1824 1.478 . S
C1823 H1817 0.905 1_455 S
C1823 C1819 1.400 . S
C1823 C1822 1.385 . S
C1824 C1822 1.478 . S
C1824 C1826 1.381 . S
C1824 C1830 1.383 . S
C1825 C1821 1.495 . S
C1825 H1831 0.959 . S
C1825 H1832 0.961 . S
C1825 H1833 0.960 . S
C1826 C1824 1.381 . S
C1826 C1827 1.394 . S
C1826 H1834 0.930 . S
C1827 C1826 1.394 . S
C1827 C1828 1.383 . S
C1827 H1835 0.929 . S
C1828 C1827 1.383 . S
C1828 C1829 1.377 . S
C1829 H1813 0.930 1_455 S
C1829 C1828 1.377 . S
C1829 C1830 1.379 . S
C1830 H1814 0.923 1_455 S
C1830 C1824 1.383 . S
C1830 C1829 1.379 . S
H1831 C1825 0.959 . S
H1832 C1825 0.961 . S
H1833 C1825 0.960 . S
H1834 C1826 0.930 . S
H1835 C1827 0.929 . S
H1836 C1844 0.929 . S
H1837 C1846 0.930 . S
H1838 C1848 0.930 . S
H1839 C1851 0.929 . S
H1840 C1854 0.930 . S
H1841 C1856 0.960 . S
H1842 C1856 0.960 . S
H1843 C1856 0.960 . S
C1844 H1836 0.929 . S
C1844 C1845 1.377 . S
C1844 C1846 1.384 . S
C1845 C1844 1.377 . S
C1845 C1851 1.390 . S
C1846 H1837 0.930 . S
C1846 C1844 1.384 . S
C1846 C1847 1.372 . S
C1847 C1846 1.372 . S
C1847 C1848 1.400 . S
C1847 C1852 1.490 . S
C1848 H1838 0.930 . S
C1848 C1847 1.400 . S
C1848 C1851 1.386 . S
H1849 C1865 0.930 . S
H1850 C1866 0.931 . S
C1851 H1839 0.929 . S
C1851 C1845 1.390 . S
C1851 C1848 1.386 . S
C1852 C1847 1.490 . S
C1852 C1854 1.395 . S
C1852 C1855 1.403 . S
H1853 C1859 0.930 . S
C1854 H1840 0.930 . S
C1854 C1852 1.395 . S
C1854 C1857 1.403 . S
C1855 C1852 1.403 . S
C1855 C1856 1.524 . S
C1855 C1859 1.400 . S
C1856 H1841 0.960 . S
C1856 H1842 0.960 . S
C1856 H1843 0.960 . S
C1856 C1855 1.524 . S
C1857 C1854 1.403 . S
C1857 C1858 1.392 . S
C1857 C1861 1.495 . S
C1858 C1857 1.392 . S
C1858 C1859 1.385 . S
C1858 C1860 1.478 . S
C1859 H1853 0.930 . S
C1859 C1855 1.400 . S
C1859 C1858 1.385 . S
C1860 C1858 1.478 . S
C1860 C1862 1.381 . S
C1860 C1866 1.383 . S
C1861 C1857 1.495 . S
C1861 H1867 0.959 . S
C1861 H1868 0.961 . S
C1861 H1869 0.960 . S
C1862 C1860 1.381 . S
C1862 C1863 1.394 . S
C1862 H1870 0.930 . S
C1863 C1862 1.394 . S
C1863 C1864 1.383 . S
C1863 H1871 0.929 . S
C1864 C1863 1.383 . S
C1864 C1865 1.377 . S
C1865 H1849 0.930 . S
C1865 C1864 1.377 . S
C1865 C1866 1.379 . S
C1866 H1850 0.931 . S
C1866 C1860 1.383 . S
C1866 C1865 1.379 . S
H1867 C1861 0.959 . S
H1868 C1861 0.961 . S
H1869 C1861 0.960 . S
H1870 C1862 0.930 . S
H1871 C1863 0.929 . S
H1872 C1880 0.929 . S
H1873 C1882 0.930 . S
H1874 C1884 0.930 . S
H1875 C1887 0.929 . S
H1876 C1890 0.930 . S
H1877 C1892 0.960 . S
H1878 C1892 0.960 . S
H1879 C1892 0.960 . S
C1880 H1872 0.929 . S
C1880 C1881 1.377 . S
C1880 C1882 1.384 . S
C1881 C1880 1.377 . S
C1881 C1887 1.390 . S
C1882 H1873 0.930 . S
C1882 C1880 1.384 . S
C1882 C1883 1.372 . S
C1883 C1882 1.372 . S
C1883 C1884 1.400 . S
C1883 C1888 1.490 . S
C1884 H1874 0.930 . S
C1884 C1883 1.400 . S
C1884 C1887 1.386 . S
H1885 C1901 0.930 . S
H1886 C1902 0.931 . S
C1887 H1875 0.929 . S
C1887 C1881 1.390 . S
C1887 C1884 1.386 . S
C1888 C1883 1.490 . S
C1888 C1890 1.395 . S
C1888 C1891 1.403 . S
H1889 C1895 0.930 . S
C1890 H1876 0.930 . S
C1890 C1888 1.395 . S
C1890 C1893 1.403 . S
C1891 C1888 1.403 . S
C1891 C1892 1.524 . S
C1891 C1895 1.400 . S
C1892 H1877 0.960 . S
C1892 H1878 0.960 . S
C1892 H1879 0.960 . S
C1892 C1891 1.524 . S
C1893 C1890 1.403 . S
C1893 C1894 1.392 . S
C1893 C1897 1.495 . S
C1894 C1893 1.392 . S
C1894 C1895 1.385 . S
C1894 C1896 1.478 . S
C1895 H1889 0.930 . S
C1895 C1891 1.400 . S
C1895 C1894 1.385 . S
C1896 C1894 1.478 . S
C1896 C1898 1.381 . S
C1896 C1902 1.383 . S
C1897 C1893 1.495 . S
C1897 H1903 0.959 . S
C1897 H1904 0.961 . S
C1897 H1905 0.960 . S
C1898 C1896 1.381 . S
C1898 C1899 1.394 . S
C1898 H1906 0.930 . S
C1899 C1898 1.394 . S
C1899 C1900 1.383 . S
C1899 H1907 0.929 . S
C1900 C1899 1.383 . S
C1900 C1901 1.377 . S
C1901 H1885 0.930 . S
C1901 C1900 1.377 . S
C1901 C1902 1.379 . S
C1902 H1886 0.931 . S
C1902 C1896 1.383 . S
C1902 C1901 1.379 . S
H1903 C1897 0.959 . S
H1904 C1897 0.961 . S
H1905 C1897 0.960 . S
H1906 C1898 0.930 . S
H1907 C1899 0.929 . S
H1908 C1916 0.929 . S
H1909 C1918 0.930 . S
H1910 C1920 0.930 . S
H1911 C1923 0.929 . S
H1912 C1926 0.930 . S
H1913 C1928 0.960 . S
H1914 C1928 0.960 . S
H1915 C1928 0.960 . S
C1916 H1908 0.929 . S
C1916 C1917 1.377 . S
C1916 C1918 1.384 . S
C1917 C1916 1.377 . S
C1917 C1923 1.390 . S
C1918 H1909 0.930 . S
C1918 C1916 1.384 . S
C1918 C1919 1.372 . S
C1919 C1918 1.372 . S
C1919 C1920 1.400 . S
C1919 C1924 1.490 . S
C1920 H1910 0.930 . S
C1920 C1919 1.400 . S
C1920 C1923 1.386 . S
H1921 C1937 0.930 . S
H1922 C1938 0.931 . S
C1923 H1911 0.929 . S
C1923 C1917 1.390 . S
C1923 C1920 1.386 . S
C1924 C1919 1.490 . S
C1924 C1926 1.395 . S
C1924 C1927 1.403 . S
H1925 C1931 0.930 . S
C1926 H1912 0.930 . S
C1926 C1924 1.395 . S
C1926 C1929 1.403 . S
C1927 C1924 1.403 . S
C1927 C1928 1.524 . S
C1927 C1931 1.400 . S
C1928 H1913 0.960 . S
C1928 H1914 0.960 . S
C1928 H1915 0.960 . S
C1928 C1927 1.524 . S
C1929 C1926 1.403 . S
C1929 C1930 1.392 . S
C1929 C1933 1.495 . S
C1930 C1929 1.392 . S
C1930 C1931 1.385 . S
C1930 C1932 1.478 . S
C1931 H1925 0.930 . S
C1931 C1927 1.400 . S
C1931 C1930 1.385 . S
C1932 C1930 1.478 . S
C1932 C1934 1.381 . S
C1932 C1938 1.383 . S
C1933 C1929 1.495 . S
C1933 H1939 0.959 . S
C1933 H1940 0.961 . S
C1933 H1941 0.960 . S
C1934 C1932 1.381 . S
C1934 C1935 1.394 . S
C1934 H1942 0.930 . S
C1935 C1934 1.394 . S
C1935 C1936 1.383 . S
C1935 H1943 0.929 . S
C1936 C1935 1.383 . S
C1936 C1937 1.377 . S
C1937 H1921 0.930 . S
C1937 C1936 1.377 . S
C1937 C1938 1.379 . S
C1938 H1922 0.931 . S
C1938 C1932 1.383 . S
C1938 C1937 1.379 . S
H1939 C1933 0.959 . S
H1940 C1933 0.961 . S
H1941 C1933 0.960 . S
H1942 C1934 0.930 . S
H1943 C1935 0.929 . S
H1944 C1952 0.910 1_565 S
H1945 C1954 0.930 . S
H1946 C1956 0.930 . S
H1947 C1959 0.929 . S
H1948 C1962 0.930 . S
H1949 C1964 0.942 1_565 S
H1950 C1964 0.923 1_565 S
H1951 C1964 0.984 . S
C1952 H1944 0.910 1_545 S
C1952 C1953 1.377 . S
C1952 C1954 1.384 . S
C1953 C1952 1.377 . S
C1953 C1959 1.390 . S
C1954 H1945 0.930 . S
C1954 C1952 1.384 . S
C1954 C1955 1.372 . S
C1955 C1954 1.372 . S
C1955 C1956 1.400 . S
C1955 C1960 1.490 . S
C1956 H1946 0.930 . S
C1956 C1955 1.400 . S
C1956 C1959 1.386 . S
H1957 C1973 0.930 . S
H1958 C1974 0.945 . S
C1959 H1947 0.929 . S
C1959 C1953 1.390 . S
C1959 C1956 1.386 . S
C1960 C1955 1.490 . S
C1960 C1962 1.395 . S
C1960 C1963 1.403 . S
H1961 C1967 0.930 . S
C1962 H1948 0.930 . S
C1962 C1960 1.395 . S
C1962 C1965 1.403 . S
C1963 C1960 1.403 . S
C1963 C1964 1.558 . S
C1963 C1967 1.400 . S
C1964 H1949 0.942 1_545 S
C1964 H1950 0.923 1_545 S
C1964 H1951 0.984 . S
C1964 C1963 1.558 . S
C1965 C1962 1.403 . S
C1965 C1966 1.392 . S
C1965 C1969 1.495 . S
C1966 C1965 1.392 . S
C1966 C1967 1.385 . S
C1966 C1968 1.478 . S
C1967 H1961 0.930 . S
C1967 C1963 1.400 . S
C1967 C1966 1.385 . S
C1968 C1966 1.478 . S
C1968 C1970 1.381 . S
C1968 C1974 1.346 1_655 S
C1969 C1965 1.495 . S
C1969 H1975 0.959 . S
C1969 H1976 0.961 . S
C1969 H1977 0.960 . S
C1970 C1968 1.381 . S
C1970 C1971 1.394 . S
C1970 H1978 0.930 . S
C1971 C1970 1.394 . S
C1971 C1972 1.372 1_655 S
C1971 H1979 0.929 . S
C1972 C1971 1.372 1_455 S
C1972 C1973 1.381 . S
C1973 H1957 0.930 . S
C1973 C1972 1.381 . S
C1973 C1974 1.404 . S
C1974 H1958 0.945 . S
C1974 C1968 1.346 1_455 S
C1974 C1973 1.404 . S
H1975 C1969 0.959 . S
H1976 C1969 0.961 . S
H1977 C1969 0.960 . S
H1978 C1970 0.930 . S
H1979 C1971 0.929 . S
H1980 C1988 0.929 . S
H1981 C1990 0.930 . S
H1982 C1992 0.930 . S
H1983 C1995 0.929 . S
H1984 C1998 0.930 . S
H1985 C2000 0.960 . S
H1986 C2000 0.960 . S
H1987 C2000 0.960 . S
C1988 H1980 0.929 . S
C1988 C1989 1.377 . S
C1988 C1990 1.384 . S
C1989 C1988 1.377 . S
C1989 C1995 1.390 . S
C1990 H1981 0.930 . S
C1990 C1988 1.384 . S
C1990 C1991 1.372 . S
C1991 C1990 1.372 . S
C1991 C1992 1.400 . S
C1991 C1996 1.490 . S
C1992 H1982 0.930 . S
C1992 C1991 1.400 . S
C1992 C1995 1.386 . S
H1993 C2009 0.930 . S
H1994 C2010 0.931 . S
C1995 H1983 0.929 . S
C1995 C1989 1.390 . S
C1995 C1992 1.386 . S
C1996 C1991 1.490 . S
C1996 C1998 1.395 . S
C1996 C1999 1.403 . S
H1997 C2003 0.930 . S
C1998 H1984 0.930 . S
C1998 C1996 1.395 . S
C1998 C2001 1.403 . S
C1999 C1996 1.403 . S
C1999 C2000 1.524 . S
C1999 C2003 1.400 . S
C2000 H1985 0.960 . S
C2000 H1986 0.960 . S
C2000 H1987 0.960 . S
C2000 C1999 1.524 . S
C2001 C1998 1.403 . S
C2001 C2002 1.392 . S
C2001 C2005 1.495 . S
C2002 C2001 1.392 . S
C2002 C2003 1.385 . S
C2002 C2004 1.478 . S
C2003 H1997 0.930 . S
C2003 C1999 1.400 . S
C2003 C2002 1.385 . S
C2004 C2002 1.478 . S
C2004 C2006 1.381 . S
C2004 C2010 1.383 . S
C2005 C2001 1.495 . S
C2005 H2011 0.959 . S
C2005 H2012 0.961 . S
C2005 H2013 0.960 . S
C2006 C2004 1.381 . S
C2006 C2007 1.394 . S
C2006 H2014 0.930 . S
C2007 C2006 1.394 . S
C2007 C2008 1.383 . S
C2007 H2015 0.929 . S
C2008 C2007 1.383 . S
C2008 C2009 1.377 . S
C2009 H1993 0.930 . S
C2009 C2008 1.377 . S
C2009 C2010 1.379 . S
C2010 H1994 0.931 . S
C2010 C2004 1.383 . S
C2010 C2009 1.379 . S
H2011 C2005 0.959 . S
H2012 C2005 0.961 . S
H2013 C2005 0.960 . S
H2014 C2006 0.930 . S
H2015 C2007 0.929 . S
H2016 C2024 0.929 . S
H2017 C2026 0.930 . S
H2018 C2028 0.930 . S
H2019 C2031 0.929 . S
H2020 C2034 0.930 . S
H2021 C2036 0.960 . S
H2022 C2036 0.960 . S
H2023 C2036 0.960 . S
C2024 H2016 0.929 . S
C2024 C2025 1.377 . S
C2024 C2026 1.384 . S
C2025 C2024 1.377 . S
C2025 C2031 1.390 . S
C2026 H2017 0.930 . S
C2026 C2024 1.384 . S
C2026 C2027 1.372 . S
C2027 C2026 1.372 . S
C2027 C2028 1.400 . S
C2027 C2032 1.490 . S
C2028 H2018 0.930 . S
C2028 C2027 1.400 . S
C2028 C2031 1.386 . S
H2029 C2045 0.930 . S
H2030 C2046 0.931 . S
C2031 H2019 0.929 . S
C2031 C2025 1.390 . S
C2031 C2028 1.386 . S
C2032 C2027 1.490 . S
C2032 C2034 1.395 . S
C2032 C2035 1.403 . S
H2033 C2039 0.930 . S
C2034 H2020 0.930 . S
C2034 C2032 1.395 . S
C2034 C2037 1.403 . S
C2035 C2032 1.403 . S
C2035 C2036 1.524 . S
C2035 C2039 1.400 . S
C2036 H2021 0.960 . S
C2036 H2022 0.960 . S
C2036 H2023 0.960 . S
C2036 C2035 1.524 . S
C2037 C2034 1.403 . S
C2037 C2038 1.392 . S
C2037 C2041 1.495 . S
C2038 C2037 1.392 . S
C2038 C2039 1.385 . S
C2038 C2040 1.478 . S
C2039 H2033 0.930 . S
C2039 C2035 1.400 . S
C2039 C2038 1.385 . S
C2040 C2038 1.478 . S
C2040 C2042 1.381 . S
C2040 C2046 1.383 . S
C2041 C2037 1.495 . S
C2041 H2047 0.959 . S
C2041 H2048 0.961 . S
C2041 H2049 0.960 . S
C2042 C2040 1.381 . S
C2042 C2043 1.394 . S
C2042 H2050 0.930 . S
C2043 C2042 1.394 . S
C2043 C2044 1.383 . S
C2043 H2051 0.959 . S
C2044 C2043 1.383 . S
C2044 C2045 1.377 . S
C2045 H2029 0.930 . S
C2045 C2044 1.377 . S
C2045 C2046 1.379 . S
C2046 H2030 0.931 . S
C2046 C2040 1.383 . S
C2046 C2045 1.379 . S
H2047 C2041 0.959 . S
H2048 C2041 0.961 . S
H2049 C2041 0.960 . S
H2050 C2042 0.930 . S
H2051 C2043 0.959 . S
H2052 C2060 0.929 . S
H2053 C2062 0.930 . S
H2054 C2064 0.930 . S
H2055 C2067 0.929 . S
H2056 C2070 0.930 . S
H2057 C2072 0.960 . S
H2058 C2072 0.960 . S
H2059 C2072 0.960 . S
C2060 H2052 0.929 . S
C2060 C2061 1.377 . S
C2060 C2062 1.384 . S
C2061 C2060 1.377 . S
C2061 C2067 1.390 . S
C2062 H2053 0.930 . S
C2062 C2060 1.384 . S
C2062 C2063 1.372 . S
C2063 C2062 1.372 . S
C2063 C2064 1.400 . S
C2063 C2068 1.490 . S
C2064 H2054 0.930 . S
C2064 C2063 1.400 . S
C2064 C2067 1.386 . S
H2065 C2081 0.930 . S
H2066 C2082 0.931 . S
C2067 H2055 0.929 . S
C2067 C2061 1.390 . S
C2067 C2064 1.386 . S
C2068 C2063 1.490 . S
C2068 C2070 1.395 . S
C2068 C2071 1.403 . S
H2069 C2075 0.930 . S
C2070 H2056 0.930 . S
C2070 C2068 1.395 . S
C2070 C2073 1.403 . S
C2071 C2068 1.403 . S
C2071 C2072 1.524 . S
C2071 C2075 1.400 . S
C2072 H2057 0.960 . S
C2072 H2058 0.960 . S
C2072 H2059 0.960 . S
C2072 C2071 1.524 . S
C2073 C2070 1.403 . S
C2073 C2074 1.392 . S
C2073 C2077 1.495 . S
C2074 C2073 1.392 . S
C2074 C2075 1.385 . S
C2074 C2076 1.478 . S
C2075 H2069 0.930 . S
C2075 C2071 1.400 . S
C2075 C2074 1.385 . S
C2076 C2074 1.478 . S
C2076 C2078 1.381 . S
C2076 C2082 1.383 . S
C2077 C2073 1.495 . S
C2077 H2083 0.959 . S
C2077 H2084 0.961 . S
C2077 H2085 0.960 . S
C2078 C2076 1.381 . S
C2078 C2079 1.394 . S
C2078 H2086 0.930 . S
C2079 C2078 1.394 . S
C2079 C2080 1.383 . S
C2079 H2087 0.929 . S
C2080 C2079 1.383 . S
C2080 C2081 1.377 . S
C2081 H2065 0.930 . S
C2081 C2080 1.377 . S
C2081 C2082 1.379 . S
C2082 H2066 0.931 . S
C2082 C2076 1.383 . S
C2082 C2081 1.379 . S
H2083 C2077 0.959 . S
H2084 C2077 0.961 . S
H2085 C2077 0.960 . S
H2086 C2078 0.930 . S
H2087 C2079 0.929 . S
H2088 C2096 0.929 . S
H2089 C2098 0.930 . S
H2090 C2100 0.930 . S
H2091 C2103 0.929 . S
H2092 C2106 0.930 . S
H2093 C2108 0.960 . S
H2094 C2108 0.960 . S
H2095 C2108 0.960 . S
C2096 H2088 0.929 . S
C2096 C2097 1.377 . S
C2096 C2098 1.384 . S
C2097 C2096 1.377 . S
C2097 C2103 1.390 . S
C2098 H2089 0.930 . S
C2098 C2096 1.384 . S
C2098 C2099 1.372 . S
C2099 C2098 1.372 . S
C2099 C2100 1.400 . S
C2099 C2104 1.490 . S
C2100 H2090 0.930 . S
C2100 C2099 1.400 . S
C2100 C2103 1.386 . S
H2101 C2117 0.930 . S
H2102 C2118 0.931 . S
C2103 H2091 0.929 . S
C2103 C2097 1.390 . S
C2103 C2100 1.386 . S
C2104 C2099 1.490 . S
C2104 C2106 1.395 . S
C2104 C2107 1.403 . S
H2105 C2111 0.930 1_565 S
C2106 H2092 0.930 . S
C2106 C2104 1.395 . S
C2106 C2109 1.403 . S
C2107 C2104 1.403 . S
C2107 C2108 1.524 1_545 S
C2107 C2111 1.400 . S
C2108 H2093 0.960 . S
C2108 H2094 0.960 . S
C2108 H2095 0.960 . S
C2108 C2107 1.524 1_565 S
C2109 C2106 1.403 . S
C2109 C2110 1.392 . S
C2109 C2113 1.495 . S
C2110 C2109 1.392 . S
C2110 C2111 1.385 . S
C2110 C2112 1.478 . S
C2111 H2105 0.930 1_545 S
C2111 C2107 1.400 . S
C2111 C2110 1.385 . S
C2112 C2110 1.478 . S
C2112 C2114 1.381 1_655 S
C2112 C2118 1.383 . S
C2113 C2109 1.495 . S
C2113 H2119 0.959 . S
C2113 H2120 0.961 . S
C2113 H2121 0.960 . S
C2114 C2112 1.381 1_455 S
C2114 C2115 1.394 . S
C2114 H2122 0.930 . S
C2115 C2114 1.394 . S
C2115 C2116 1.383 . S
C2115 H2123 0.929 . S
C2116 C2115 1.383 . S
C2116 C2117 1.377 1_455 S
C2117 H2101 0.930 . S
C2117 C2116 1.377 1_655 S
C2117 C2118 1.379 . S
C2118 H2102 0.931 . S
C2118 C2112 1.383 . S
C2118 C2117 1.379 . S
H2119 C2113 0.959 . S
H2120 C2113 0.961 . S
H2121 C2113 0.960 . S
H2122 C2114 0.930 . S
H2123 C2115 0.929 . S
H2124 C2132 0.929 . S
H2125 C2134 0.930 . S
H2126 C2136 0.930 . S
H2127 C2139 0.929 . S
H2128 C2142 0.930 . S
H2129 C2144 0.960 . S
H2130 C2144 0.960 . S
H2131 C2144 0.960 . S
C2132 H2124 0.929 . S
C2132 C2133 1.377 . S
C2132 C2134 1.384 . S
C2133 C2132 1.377 . S
C2133 C2139 1.390 . S
C2134 H2125 0.930 . S
C2134 C2132 1.384 . S
C2134 C2135 1.372 . S
C2135 C2134 1.372 . S
C2135 C2136 1.400 . S
C2135 C2140 1.490 . S
C2136 H2126 0.930 . S
C2136 C2135 1.400 . S
C2136 C2139 1.386 . S
H2137 C2153 0.930 . S
H2138 C2154 0.931 . S
C2139 H2127 0.929 . S
C2139 C2133 1.390 . S
C2139 C2136 1.386 . S
C2140 C2135 1.490 . S
C2140 C2142 1.395 . S
C2140 C2143 1.403 . S
H2141 C2147 0.930 . S
C2142 H2128 0.930 . S
C2142 C2140 1.395 . S
C2142 C2145 1.403 . S
C2143 C2140 1.403 . S
C2143 C2144 1.524 . S
C2143 C2147 1.400 . S
C2144 H2129 0.960 . S
C2144 H2130 0.960 . S
C2144 H2131 0.960 . S
C2144 C2143 1.524 . S
C2145 C2142 1.403 . S
C2145 C2146 1.392 . S
C2145 C2149 1.495 . S
C2146 C2145 1.392 . S
C2146 C2147 1.385 . S
C2146 C2148 1.478 . S
C2147 H2141 0.930 . S
C2147 C2143 1.400 . S
C2147 C2146 1.385 . S
C2148 C2146 1.478 . S
C2148 C2150 1.381 . S
C2148 C2154 1.383 . S
C2149 C2145 1.495 . S
C2149 H2155 0.959 . S
C2149 H2156 0.961 . S
C2149 H2157 0.960 . S
C2150 C2148 1.381 . S
C2150 C2151 1.394 . S
C2150 H2158 0.930 . S
C2151 C2150 1.394 . S
C2151 C2152 1.383 . S
C2151 H2159 0.929 . S
C2152 C2151 1.383 . S
C2152 C2153 1.377 . S
C2153 H2137 0.930 . S
C2153 C2152 1.377 . S
C2153 C2154 1.379 . S
C2154 H2138 0.931 . S
C2154 C2148 1.383 . S
C2154 C2153 1.379 . S
H2155 C2149 0.959 . S
H2156 C2149 0.961 . S
H2157 C2149 0.960 . S
H2158 C2150 0.930 . S
H2159 C2151 0.929 . S
H2160 C2168 0.929 . S
H2161 C2170 0.930 . S
H2162 C2172 0.930 . S
H2163 C2175 0.929 . S
H2164 C2178 0.930 . S
H2165 C2180 0.960 . S
H2166 C2180 0.960 . S
H2167 C2180 0.960 . S
C2168 H2160 0.929 . S
C2168 C2169 1.377 . S
C2168 C2170 1.384 . S
C2169 C2168 1.377 . S
C2169 C2175 1.390 . S
C2170 H2161 0.930 . S
C2170 C2168 1.384 . S
C2170 C2171 1.372 . S
C2171 C2170 1.372 . S
C2171 C2172 1.400 . S
C2171 C2176 1.490 . S
C2172 H2162 0.930 . S
C2172 C2171 1.400 . S
C2172 C2175 1.386 . S
H2173 C2189 0.930 . S
H2174 C2190 0.931 . S
C2175 H2163 0.929 . S
C2175 C2169 1.390 . S
C2175 C2172 1.386 . S
C2176 C2171 1.490 . S
C2176 C2178 1.395 . S
C2176 C2179 1.403 . S
H2177 C2183 0.930 . S
C2178 H2164 0.930 . S
C2178 C2176 1.395 . S
C2178 C2181 1.403 . S
C2179 C2176 1.403 . S
C2179 C2180 1.524 . S
C2179 C2183 1.400 . S
C2180 H2165 0.960 . S
C2180 H2166 0.960 . S
C2180 H2167 0.960 . S
C2180 C2179 1.524 . S
C2181 C2178 1.403 . S
C2181 C2182 1.392 . S
C2181 C2185 1.495 1_545 S
C2182 C2181 1.392 . S
C2182 C2183 1.385 . S
C2182 C2184 1.478 . S
C2183 H2177 0.930 . S
C2183 C2179 1.400 . S
C2183 C2182 1.385 . S
C2184 C2182 1.478 . S
C2184 C2186 1.381 . S
C2184 C2190 1.383 . S
C2185 C2181 1.495 1_565 S
C2185 H2191 0.959 . S
C2185 H2192 0.961 . S
C2185 H2193 0.960 . S
C2186 C2184 1.381 . S
C2186 C2187 1.394 . S
C2186 H2194 0.930 . S
C2187 C2186 1.394 . S
C2187 C2188 1.383 . S
C2187 H2195 0.929 . S
C2188 C2187 1.383 . S
C2188 C2189 1.377 . S
C2189 H2173 0.930 . S
C2189 C2188 1.377 . S
C2189 C2190 1.379 . S
C2190 H2174 0.931 . S
C2190 C2184 1.383 . S
C2190 C2189 1.379 . S
H2191 C2185 0.959 . S
H2192 C2185 0.961 . S
H2193 C2185 0.960 . S
H2194 C2186 0.930 . S
H2195 C2187 0.929 . S
H2196 C2204 0.929 . S
H2197 C2206 0.930 . S
H2198 C2208 0.930 . S
H2199 C2211 0.929 . S
H2200 C2214 0.930 . S
H2201 C2216 0.960 . S
H2202 C2216 0.960 . S
H2203 C2216 0.960 . S
C2204 H2196 0.929 . S
C2204 C2205 1.377 . S
C2204 C2206 1.384 . S
C2205 C2204 1.377 . S
C2205 C2211 1.390 . S
C2206 H2197 0.930 . S
C2206 C2204 1.384 . S
C2206 C2207 1.372 . S
C2207 C2206 1.372 . S
C2207 C2208 1.400 . S
C2207 C2212 1.490 . S
C2208 H2198 0.930 . S
C2208 C2207 1.400 . S
C2208 C2211 1.386 . S
H2209 C2225 0.930 . S
H2210 C2226 0.931 . S
C2211 H2199 0.929 . S
C2211 C2205 1.390 . S
C2211 C2208 1.386 . S
C2212 C2207 1.490 . S
C2212 C2214 1.395 . S
C2212 C2215 1.403 . S
H2213 C2219 0.930 . S
C2214 H2200 0.930 . S
C2214 C2212 1.395 . S
C2214 C2217 1.403 . S
C2215 C2212 1.403 . S
C2215 C2216 1.524 . S
C2215 C2219 1.400 . S
C2216 H2201 0.960 . S
C2216 H2202 0.960 . S
C2216 H2203 0.960 . S
C2216 C2215 1.524 . S
C2217 C2214 1.403 . S
C2217 C2218 1.392 . S
C2217 C2221 1.495 . S
C2218 C2217 1.392 . S
C2218 C2219 1.385 . S
C2218 C2220 1.478 . S
C2219 H2213 0.930 . S
C2219 C2215 1.400 . S
C2219 C2218 1.385 . S
C2220 C2218 1.478 . S
C2220 C2222 1.381 . S
C2220 C2226 1.383 . S
C2221 C2217 1.495 . S
C2221 H2227 0.959 . S
C2221 H2228 0.961 . S
C2221 H2229 0.960 . S
C2222 C2220 1.381 . S
C2222 C2223 1.394 . S
C2222 H2230 0.930 . S
C2223 C2222 1.394 . S
C2223 C2224 1.383 . S
C2223 H2231 0.929 . S
C2224 C2223 1.383 . S
C2224 C2225 1.377 . S
C2225 H2209 0.930 . S
C2225 C2224 1.377 . S
C2225 C2226 1.379 . S
C2226 H2210 0.931 . S
C2226 C2220 1.383 . S
C2226 C2225 1.379 . S
H2227 C2221 0.959 . S
H2228 C2221 0.961 . S
H2229 C2221 0.960 . S
H2230 C2222 0.930 . S
H2231 C2223 0.929 . S
H2232 C2240 0.929 . S
H2233 C2242 0.930 . S
H2234 C2244 0.930 . S
H2235 C2247 0.929 . S
H2236 C2250 0.919 1_556 S
H2237 C2252 0.960 . S
H2238 C2252 0.960 . S
H2239 C2252 0.960 . S
C2240 H2232 0.929 . S
C2240 C2241 1.377 1_554 S
C2240 C2242 1.384 . S
C2241 C2240 1.377 1_556 S
C2241 C2247 1.390 . S
C2242 H2233 0.930 . S
C2242 C2240 1.384 . S
C2242 C2243 1.372 . S
C2243 C2242 1.372 . S
C2243 C2244 1.400 1_554 S
C2243 C2248 1.490 . S
C2244 H2234 0.930 . S
C2244 C2243 1.400 1_556 S
C2244 C2247 1.386 . S
H2245 C2261 0.930 . S
H2246 C2262 0.931 1_556 S
C2247 H2235 0.929 . S
C2247 C2241 1.390 . S
C2247 C2244 1.386 . S
C2248 C2243 1.490 . S
C2248 C2250 1.402 . S
C2248 C2251 1.403 . S
H2249 C2255 0.930 . S
C2250 H2236 0.919 1_554 S
C2250 C2248 1.402 . S
C2250 C2253 1.406 . S
C2251 C2248 1.403 . S
C2251 C2252 1.524 . S
C2251 C2255 1.400 . S
C2252 H2237 0.960 . S
C2252 H2238 0.960 . S
C2252 H2239 0.960 . S
C2252 C2251 1.524 . S
C2253 C2250 1.406 . S
C2253 C2254 1.392 . S
C2253 C2257 1.495 1_564 S
C2254 C2253 1.392 . S
C2254 C2255 1.385 . S
C2254 C2256 1.478 . S
C2255 H2249 0.930 . S
C2255 C2251 1.400 . S
C2255 C2254 1.385 . S
C2256 C2254 1.478 . S
C2256 C2258 1.382 1_565 S
C2256 C2262 1.383 . S
C2257 C2253 1.495 1_546 S
C2257 H2263 0.959 . S
C2257 H2264 0.961 . S
C2257 H2265 0.960 1_556 S
C2258 C2256 1.382 1_545 S
C2258 C2259 1.394 . S
C2258 H2266 0.930 . S
C2259 C2258 1.394 . S
C2259 C2260 1.383 1_545 S
C2259 H2267 0.929 . S
C2260 C2259 1.383 1_565 S
C2260 C2261 1.377 . S
C2261 H2245 0.930 . S
C2261 C2260 1.377 . S
C2261 C2262 1.379 . S
C2262 H2246 0.931 1_554 S
C2262 C2256 1.383 . S
C2262 C2261 1.379 . S
H2263 C2257 0.959 . S
H2264 C2257 0.961 . S
H2265 C2257 0.960 1_554 S
H2266 C2258 0.930 . S
H2267 C2259 0.929 . S
H2268 C2276 0.935 . S
H2269 C2278 0.923 1_556 S
H2270 C2280 0.930 . S
H2271 C2283 0.929 . S
H2272 C2286 0.930 . S
H2273 C2288 0.960 . S
H2274 C2288 0.960 . S
H2275 C2288 0.960 . S
C2276 H2268 0.935 . S
C2276 C2277 1.375 1_556 S
C2276 C2278 1.370 1_556 S
C2277 C2276 1.375 1_554 S
C2277 C2283 1.390 . S
C2278 H2269 0.923 1_554 S
C2278 C2276 1.370 1_554 S
C2278 C2279 1.393 . S
C2279 C2278 1.393 . S
C2279 C2280 1.400 . S
C2279 C2284 1.490 . S
C2280 H2270 0.930 . S
C2280 C2279 1.400 . S
C2280 C2283 1.386 . S
H2281 C2297 0.930 . S
H2282 C2298 0.931 . S
C2283 H2271 0.929 . S
C2283 C2277 1.390 . S
C2283 C2280 1.386 . S
C2284 C2279 1.490 . S
C2284 C2286 1.395 . S
C2284 C2287 1.403 1_554 S
H2285 C2291 0.930 1_556 S
C2286 H2272 0.930 . S
C2286 C2284 1.395 . S
C2286 C2289 1.403 . S
C2287 C2284 1.403 1_556 S
C2287 C2288 1.524 . S
C2287 C2291 1.400 1_556 S
C2288 H2273 0.960 . S
C2288 H2274 0.960 . S
C2288 H2275 0.960 . S
C2288 C2287 1.524 . S
C2289 C2286 1.403 . S
C2289 C2290 1.392 . S
C2289 C2293 1.495 . S
C2290 C2289 1.392 . S
C2290 C2291 1.385 . S
C2290 C2292 1.478 . S
C2291 H2285 0.930 1_554 S
C2291 C2287 1.400 1_554 S
C2291 C2290 1.385 . S
C2292 C2290 1.478 . S
C2292 C2294 1.381 . S
C2292 C2298 1.383 . S
C2293 C2289 1.495 . S
C2293 H2299 0.959 . S
C2293 H2300 0.961 . S
C2293 H2301 0.960 . S
C2294 C2292 1.381 . S
C2294 C2295 1.394 . S
C2294 H2302 0.930 . S
C2295 C2294 1.394 . S
C2295 C2296 1.383 . S
C2295 H2303 0.929 . S
C2296 C2295 1.383 . S
C2296 C2297 1.377 . S
C2297 H2281 0.930 . S
C2297 C2296 1.377 . S
C2297 C2298 1.379 . S
C2298 H2282 0.931 . S
C2298 C2292 1.383 . S
C2298 C2297 1.379 . S
H2299 C2293 0.959 . S
H2300 C2293 0.961 . S
H2301 C2293 0.960 . S
H2302 C2294 0.930 . S
H2303 C2295 0.929 . S
H2304 C2312 0.929 . S
H2305 C2314 0.930 . S
H2306 C2316 0.930 . S
H2307 C2319 0.929 . S
H2308 C2322 0.930 . S
H2309 C2324 0.960 . S
H2310 C2324 0.960 . S
H2311 C2324 0.960 . S
C2312 H2304 0.929 . S
C2312 C2313 1.377 . S
C2312 C2314 1.384 . S
C2313 C2312 1.377 . S
C2313 C2319 1.390 . S
C2314 H2305 0.930 . S
C2314 C2312 1.384 . S
C2314 C2315 1.372 . S
C2315 C2314 1.372 . S
C2315 C2316 1.400 . S
C2315 C2320 1.490 . S
C2316 H2306 0.930 . S
C2316 C2315 1.400 . S
C2316 C2319 1.386 . S
H2317 C2333 0.930 . S
H2318 C2334 0.931 . S
C2319 H2307 0.929 . S
C2319 C2313 1.390 . S
C2319 C2316 1.386 . S
C2320 C2315 1.490 . S
C2320 C2322 1.395 . S
C2320 C2323 1.403 . S
H2321 C2327 0.930 . S
C2322 H2308 0.930 . S
C2322 C2320 1.395 . S
C2322 C2325 1.403 . S
C2323 C2320 1.403 . S
C2323 C2324 1.524 . S
C2323 C2327 1.400 . S
C2324 H2309 0.960 . S
C2324 H2310 0.960 . S
C2324 H2311 0.960 . S
C2324 C2323 1.524 . S
C2325 C2322 1.403 . S
C2325 C2326 1.392 . S
C2325 C2329 1.495 . S
C2326 C2325 1.392 . S
C2326 C2327 1.385 . S
C2326 C2328 1.478 . S
C2327 H2321 0.930 . S
C2327 C2323 1.400 . S
C2327 C2326 1.385 . S
C2328 C2326 1.478 . S
C2328 C2330 1.381 . S
C2328 C2334 1.383 . S
C2329 C2325 1.495 . S
C2329 H2335 0.959 . S
C2329 H2336 0.961 . S
C2329 H2337 0.960 . S
C2330 C2328 1.381 . S
C2330 C2331 1.394 . S
C2330 H2338 0.930 . S
C2331 C2330 1.394 . S
C2331 C2332 1.383 . S
C2331 H2339 0.929 . S
C2332 C2331 1.383 . S
C2332 C2333 1.377 . S
C2333 H2317 0.930 . S
C2333 C2332 1.377 . S
C2333 C2334 1.379 . S
C2334 H2318 0.931 . S
C2334 C2328 1.383 . S
C2334 C2333 1.379 . S
H2335 C2329 0.959 . S
H2336 C2329 0.961 . S
H2337 C2329 0.960 . S
H2338 C2330 0.930 . S
H2339 C2331 0.929 . S
H2340 C2348 0.929 . S
H2341 C2350 0.930 . S
H2342 C2352 0.930 . S
H2343 C2355 0.929 . S
H2344 C2358 0.930 . S
H2345 C2360 0.960 . S
H2346 C2360 0.960 . S
H2347 C2360 0.960 . S
C2348 H2340 0.929 . S
C2348 C2349 1.377 . S
C2348 C2350 1.384 . S
C2349 C2348 1.377 . S
C2349 C2355 1.390 . S
C2350 H2341 0.930 . S
C2350 C2348 1.384 . S
C2350 C2351 1.372 . S
C2351 C2350 1.372 . S
C2351 C2352 1.400 . S
C2351 C2356 1.490 . S
C2352 H2342 0.930 . S
C2352 C2351 1.400 . S
C2352 C2355 1.386 . S
H2353 C2369 0.930 . S
H2354 C2370 0.931 . S
C2355 H2343 0.929 . S
C2355 C2349 1.390 . S
C2355 C2352 1.386 . S
C2356 C2351 1.490 . S
C2356 C2358 1.395 . S
C2356 C2359 1.403 . S
H2357 C2363 0.930 . S
C2358 H2344 0.930 . S
C2358 C2356 1.395 . S
C2358 C2361 1.403 . S
C2359 C2356 1.403 . S
C2359 C2360 1.524 . S
C2359 C2363 1.400 . S
C2360 H2345 0.960 . S
C2360 H2346 0.960 . S
C2360 H2347 0.960 . S
C2360 C2359 1.524 . S
C2361 C2358 1.403 . S
C2361 C2362 1.392 . S
C2361 C2365 1.495 . S
C2362 C2361 1.392 . S
C2362 C2363 1.385 . S
C2362 C2364 1.478 . S
C2363 H2357 0.930 . S
C2363 C2359 1.400 . S
C2363 C2362 1.385 . S
C2364 C2362 1.478 . S
C2364 C2366 1.381 . S
C2364 C2370 1.383 . S
C2365 C2361 1.495 . S
C2365 H2371 0.959 . S
C2365 H2372 0.961 . S
C2365 H2373 0.960 . S
C2366 C2364 1.381 . S
C2366 C2367 1.394 . S
C2366 H2374 0.930 . S
C2367 C2366 1.394 . S
C2367 C2368 1.383 . S
C2367 H2375 0.929 . S
C2368 C2367 1.383 . S
C2368 C2369 1.377 . S
C2369 H2353 0.930 . S
C2369 C2368 1.377 . S
C2369 C2370 1.379 . S
C2370 H2354 0.931 . S
C2370 C2364 1.383 . S
C2370 C2369 1.379 . S
H2371 C2365 0.959 . S
H2372 C2365 0.961 . S
H2373 C2365 0.960 . S
H2374 C2366 0.930 . S
H2375 C2367 0.929 . S
H2376 C2384 0.929 . S
H2377 C2386 0.930 . S
H2378 C2388 0.930 . S
H2379 C2391 0.929 . S
H2380 C2394 0.930 . S
H2381 C2396 0.960 . S
H2382 C2396 0.960 . S
H2383 C2396 0.960 . S
C2384 H2376 0.929 . S
C2384 C2385 1.377 . S
C2384 C2386 1.384 . S
C2385 C2384 1.377 . S
C2385 C2391 1.390 . S
C2386 H2377 0.930 . S
C2386 C2384 1.384 . S
C2386 C2387 1.372 . S
C2387 C2386 1.372 . S
C2387 C2388 1.400 . S
C2387 C2392 1.490 . S
C2388 H2378 0.930 . S
C2388 C2387 1.400 . S
C2388 C2391 1.386 . S
H2389 C2405 0.930 . S
H2390 C2406 0.931 . S
C2391 H2379 0.929 . S
C2391 C2385 1.390 . S
C2391 C2388 1.386 . S
C2392 C2387 1.490 . S
C2392 C2394 1.395 . S
C2392 C2395 1.403 . S
H2393 C2399 0.930 . S
C2394 H2380 0.930 . S
C2394 C2392 1.395 . S
C2394 C2397 1.403 . S
C2395 C2392 1.403 . S
C2395 C2396 1.524 . S
C2395 C2399 1.400 . S
C2396 H2381 0.960 . S
C2396 H2382 0.960 . S
C2396 H2383 0.960 . S
C2396 C2395 1.524 . S
C2397 C2394 1.403 . S
C2397 C2398 1.392 . S
C2397 C2401 1.495 . S
C2398 C2397 1.392 . S
C2398 C2399 1.385 . S
C2398 C2400 1.478 . S
C2399 H2393 0.930 . S
C2399 C2395 1.400 . S
C2399 C2398 1.385 . S
C2400 C2398 1.478 . S
C2400 C2402 1.381 . S
C2400 C2406 1.383 . S
C2401 C2397 1.495 . S
C2401 H2407 0.959 . S
C2401 H2408 0.961 . S
C2401 H2409 0.960 . S
C2402 C2400 1.381 . S
C2402 C2403 1.394 . S
C2402 H2410 0.930 . S
C2403 C2402 1.394 . S
C2403 C2404 1.383 . S
C2403 H2411 0.929 . S
C2404 C2403 1.383 . S
C2404 C2405 1.377 . S
C2405 H2389 0.930 . S
C2405 C2404 1.377 . S
C2405 C2406 1.379 . S
C2406 H2390 0.931 . S
C2406 C2400 1.383 . S
C2406 C2405 1.379 . S
H2407 C2401 0.959 . S
H2408 C2401 0.961 . S
H2409 C2401 0.960 . S
H2410 C2402 0.930 . S
H2411 C2403 0.929 . S
H2412 C2420 0.929 . S
H2413 C2422 0.930 . S
H2414 C2424 0.930 . S
H2415 C2427 0.929 . S
H2416 C2430 0.930 . S
H2417 C2432 0.960 . S
H2418 C2432 0.960 . S
H2419 C2432 0.960 . S
C2420 H2412 0.929 . S
C2420 C2421 1.377 . S
C2420 C2422 1.384 . S
C2421 C2420 1.377 . S
C2421 C2427 1.390 . S
C2422 H2413 0.930 . S
C2422 C2420 1.384 . S
C2422 C2423 1.372 . S
C2423 C2422 1.372 . S
C2423 C2424 1.400 . S
C2423 C2428 1.490 . S
C2424 H2414 0.930 . S
C2424 C2423 1.400 . S
C2424 C2427 1.386 . S
H2425 C2441 0.930 . S
H2426 C2442 0.931 . S
C2427 H2415 0.929 . S
C2427 C2421 1.390 . S
C2427 C2424 1.386 . S
C2428 C2423 1.490 . S
C2428 C2430 1.395 . S
C2428 C2431 1.403 . S
H2429 C2435 0.930 . S
C2430 H2416 0.930 . S
C2430 C2428 1.395 . S
C2430 C2433 1.403 . S
C2431 C2428 1.403 . S
C2431 C2432 1.524 . S
C2431 C2435 1.400 . S
C2432 H2417 0.960 . S
C2432 H2418 0.960 . S
C2432 H2419 0.960 . S
C2432 C2431 1.524 . S
C2433 C2430 1.403 . S
C2433 C2434 1.392 . S
C2433 C2437 1.495 . S
C2434 C2433 1.392 . S
C2434 C2435 1.385 . S
C2434 C2436 1.478 . S
C2435 H2429 0.930 . S
C2435 C2431 1.400 . S
C2435 C2434 1.385 . S
C2436 C2434 1.478 . S
C2436 C2438 1.381 . S
C2436 C2442 1.383 . S
C2437 C2433 1.495 . S
C2437 H2443 0.959 . S
C2437 H2444 0.961 . S
C2437 H2445 0.960 . S
C2438 C2436 1.381 . S
C2438 C2439 1.394 . S
C2438 H2446 0.930 . S
C2439 C2438 1.394 . S
C2439 C2440 1.383 . S
C2439 H2447 0.929 . S
C2440 C2439 1.383 . S
C2440 C2441 1.377 . S
C2441 H2425 0.930 . S
C2441 C2440 1.377 . S
C2441 C2442 1.379 . S
C2442 H2426 0.931 . S
C2442 C2436 1.383 . S
C2442 C2441 1.379 . S
H2443 C2437 0.959 . S
H2444 C2437 0.961 . S
H2445 C2437 0.960 . S
H2446 C2438 0.930 . S
H2447 C2439 0.929 . S
H2448 C2456 0.929 . S
H2449 C2458 0.930 . S
H2450 C2460 0.930 . S
H2451 C2463 0.929 . S
H2452 C2466 0.930 . S
H2453 C2468 0.960 . S
H2454 C2468 0.960 . S
H2455 C2468 0.960 . S
C2456 H2448 0.929 . S
C2456 C2457 1.377 . S
C2456 C2458 1.384 . S
C2457 C2456 1.377 . S
C2457 C2463 1.390 . S
C2458 H2449 0.930 . S
C2458 C2456 1.384 . S
C2458 C2459 1.372 . S
C2459 C2458 1.372 . S
C2459 C2460 1.400 . S
C2459 C2464 1.490 . S
C2460 H2450 0.930 . S
C2460 C2459 1.400 . S
C2460 C2463 1.386 . S
H2461 C2477 0.930 . S
H2462 C2478 0.931 . S
C2463 H2451 0.929 . S
C2463 C2457 1.390 . S
C2463 C2460 1.386 . S
C2464 C2459 1.490 . S
C2464 C2466 1.395 . S
C2464 C2467 1.403 . S
H2465 C2471 0.930 . S
C2466 H2452 0.930 . S
C2466 C2464 1.395 . S
C2466 C2469 1.403 . S
C2467 C2464 1.403 . S
C2467 C2468 1.524 . S
C2467 C2471 1.400 . S
C2468 H2453 0.960 . S
C2468 H2454 0.960 . S
C2468 H2455 0.960 . S
C2468 C2467 1.524 . S
C2469 C2466 1.403 . S
C2469 C2470 1.392 . S
C2469 C2473 1.495 . S
C2470 C2469 1.392 . S
C2470 C2471 1.385 . S
C2470 C2472 1.478 . S
C2471 H2465 0.930 . S
C2471 C2467 1.400 . S
C2471 C2470 1.385 . S
C2472 C2470 1.478 . S
C2472 C2474 1.381 . S
C2472 C2478 1.383 . S
C2473 C2469 1.495 . S
C2473 H2479 0.959 . S
C2473 H2480 0.961 . S
C2473 H2481 0.960 . S
C2474 C2472 1.381 . S
C2474 C2475 1.394 . S
C2474 H2482 0.930 . S
C2475 C2474 1.394 . S
C2475 C2476 1.383 . S
C2475 H2483 0.929 . S
C2476 C2475 1.383 . S
C2476 C2477 1.377 . S
C2477 H2461 0.930 . S
C2477 C2476 1.377 . S
C2477 C2478 1.379 . S
C2478 H2462 0.931 . S
C2478 C2472 1.383 . S
C2478 C2477 1.379 . S
H2479 C2473 0.959 . S
H2480 C2473 0.961 . S
H2481 C2473 0.960 . S
H2482 C2474 0.930 . S
H2483 C2475 0.929 . S
H2484 C2492 0.929 . S
H2485 C2494 0.930 . S
H2486 C2496 0.930 . S
H2487 C2499 0.929 . S
H2488 C2502 0.930 . S
H2489 C2504 0.960 . S
H2490 C2504 0.960 . S
H2491 C2504 0.960 . S
C2492 H2484 0.929 . S
C2492 C2493 1.377 . S
C2492 C2494 1.384 . S
C2493 C2492 1.377 . S
C2493 C2499 1.390 . S
C2494 H2485 0.930 . S
C2494 C2492 1.384 . S
C2494 C2495 1.372 . S
C2495 C2494 1.372 . S
C2495 C2496 1.400 . S
C2495 C2500 1.490 . S
C2496 H2486 0.930 . S
C2496 C2495 1.400 . S
C2496 C2499 1.386 . S
H2497 C2513 0.930 . S
H2498 C2514 0.931 . S
C2499 H2487 0.929 . S
C2499 C2493 1.390 . S
C2499 C2496 1.386 . S
C2500 C2495 1.490 . S
C2500 C2502 1.395 . S
C2500 C2503 1.403 . S
H2501 C2507 0.930 . S
C2502 H2488 0.930 . S
C2502 C2500 1.395 . S
C2502 C2505 1.403 . S
C2503 C2500 1.403 . S
C2503 C2504 1.524 . S
C2503 C2507 1.400 . S
C2504 H2489 0.960 . S
C2504 H2490 0.960 . S
C2504 H2491 0.960 . S
C2504 C2503 1.524 . S
C2505 C2502 1.403 . S
C2505 C2506 1.392 . S
C2505 C2509 1.495 . S
C2506 C2505 1.392 . S
C2506 C2507 1.385 . S
C2506 C2508 1.478 . S
C2507 H2501 0.930 . S
C2507 C2503 1.400 . S
C2507 C2506 1.385 . S
C2508 C2506 1.478 . S
C2508 C2510 1.381 . S
C2508 C2514 1.383 . S
C2509 C2505 1.495 . S
C2509 H2515 0.959 . S
C2509 H2516 0.961 . S
C2509 H2517 0.960 . S
C2510 C2508 1.381 . S
C2510 C2511 1.394 . S
C2510 H2518 0.930 . S
C2511 C2510 1.394 . S
C2511 C2512 1.383 . S
C2511 H2519 0.929 . S
C2512 C2511 1.383 . S
C2512 C2513 1.377 . S
C2513 H2497 0.930 . S
C2513 C2512 1.377 . S
C2513 C2514 1.379 . S
C2514 H2498 0.931 . S
C2514 C2508 1.383 . S
C2514 C2513 1.379 . S
H2515 C2509 0.959 . S
H2516 C2509 0.961 . S
H2517 C2509 0.960 . S
H2518 C2510 0.930 . S
H2519 C2511 0.929 . S
H2520 C2528 0.929 . S
H2521 C2530 0.930 . S
H2522 C2532 0.930 . S
H2523 C2535 0.929 . S
H2524 C2538 0.930 . S
H2525 C2540 0.960 . S
H2526 C2540 0.960 . S
H2527 C2540 0.960 . S
C2528 H2520 0.929 . S
C2528 C2529 1.377 . S
C2528 C2530 1.384 . S
C2529 C2528 1.377 . S
C2529 C2535 1.390 . S
C2530 H2521 0.930 . S
C2530 C2528 1.384 . S
C2530 C2531 1.372 . S
C2531 C2530 1.372 . S
C2531 C2532 1.400 . S
C2531 C2536 1.490 . S
C2532 H2522 0.930 . S
C2532 C2531 1.400 . S
C2532 C2535 1.386 . S
H2533 C2549 0.930 . S
H2534 C2550 0.931 . S
C2535 H2523 0.929 . S
C2535 C2529 1.390 . S
C2535 C2532 1.386 . S
C2536 C2531 1.490 . S
C2536 C2538 1.395 . S
C2536 C2539 1.403 . S
H2537 C2543 0.930 . S
C2538 H2524 0.930 . S
C2538 C2536 1.395 . S
C2538 C2541 1.403 . S
C2539 C2536 1.403 . S
C2539 C2540 1.524 . S
C2539 C2543 1.400 . S
C2540 H2525 0.960 . S
C2540 H2526 0.960 . S
C2540 H2527 0.960 . S
C2540 C2539 1.524 . S
C2541 C2538 1.403 . S
C2541 C2542 1.392 . S
C2541 C2545 1.495 . S
C2542 C2541 1.392 . S
C2542 C2543 1.385 . S
C2542 C2544 1.478 . S
C2543 H2537 0.930 . S
C2543 C2539 1.400 . S
C2543 C2542 1.385 . S
C2544 C2542 1.478 . S
C2544 C2546 1.381 . S
C2544 C2550 1.383 . S
C2545 C2541 1.495 . S
C2545 H2551 0.959 . S
C2545 H2552 0.961 . S
C2545 H2553 0.960 . S
C2546 C2544 1.381 . S
C2546 C2547 1.394 . S
C2546 H2554 0.930 . S
C2547 C2546 1.394 . S
C2547 C2548 1.383 . S
C2547 H2555 0.929 . S
C2548 C2547 1.383 . S
C2548 C2549 1.377 . S
C2549 H2533 0.930 . S
C2549 C2548 1.377 . S
C2549 C2550 1.379 . S
C2550 H2534 0.931 . S
C2550 C2544 1.383 . S
C2550 C2549 1.379 . S
H2551 C2545 0.959 . S
H2552 C2545 0.961 . S
H2553 C2545 0.960 . S
H2554 C2546 0.930 . S
H2555 C2547 0.929 . S
H2556 C2564 0.929 . S
H2557 C2566 0.930 . S
H2558 C2568 0.930 . S
H2559 C2571 0.929 . S
H2560 C2574 0.930 . S
H2561 C2576 0.960 . S
H2562 C2576 0.960 . S
H2563 C2576 0.960 . S
C2564 H2556 0.929 . S
C2564 C2565 1.377 . S
C2564 C2566 1.384 . S
C2565 C2564 1.377 . S
C2565 C2571 1.390 . S
C2566 H2557 0.930 . S
C2566 C2564 1.384 . S
C2566 C2567 1.372 . S
C2567 C2566 1.372 . S
C2567 C2568 1.400 . S
C2567 C2572 1.490 . S
C2568 H2558 0.930 . S
C2568 C2567 1.400 . S
C2568 C2571 1.386 . S
H2569 C2585 0.930 . S
H2570 C2586 0.931 . S
C2571 H2559 0.929 . S
C2571 C2565 1.390 . S
C2571 C2568 1.386 . S
C2572 C2567 1.490 . S
C2572 C2574 1.395 . S
C2572 C2575 1.403 . S
H2573 C2579 0.930 . S
C2574 H2560 0.930 . S
C2574 C2572 1.395 . S
C2574 C2577 1.403 . S
C2575 C2572 1.403 . S
C2575 C2576 1.524 . S
C2575 C2579 1.400 . S
C2576 H2561 0.960 . S
C2576 H2562 0.960 . S
C2576 H2563 0.960 . S
C2576 C2575 1.524 . S
C2577 C2574 1.403 . S
C2577 C2578 1.392 . S
C2577 C2581 1.495 . S
C2578 C2577 1.392 . S
C2578 C2579 1.385 . S
C2578 C2580 1.478 . S
C2579 H2573 0.930 . S
C2579 C2575 1.400 . S
C2579 C2578 1.385 . S
C2580 C2578 1.478 . S
C2580 C2582 1.381 . S
C2580 C2586 1.383 . S
C2581 C2577 1.495 . S
C2581 H2587 0.959 . S
C2581 H2588 0.961 . S
C2581 H2589 0.960 . S
C2582 C2580 1.381 . S
C2582 C2583 1.394 . S
C2582 H2590 0.930 . S
C2583 C2582 1.394 . S
C2583 C2584 1.383 . S
C2583 H2591 0.929 . S
C2584 C2583 1.383 . S
C2584 C2585 1.377 . S
C2585 H2569 0.930 . S
C2585 C2584 1.377 . S
C2585 C2586 1.379 . S
C2586 H2570 0.931 . S
C2586 C2580 1.383 . S
C2586 C2585 1.379 . S
H2587 C2581 0.959 . S
H2588 C2581 0.961 . S
H2589 C2581 0.960 . S
H2590 C2582 0.930 . S
H2591 C2583 0.929 . S
H2592 C2600 0.929 . S
H2593 C2602 0.930 . S
H2594 C2604 0.930 . S
H2595 C2607 0.929 . S
H2596 C2610 0.930 . S
H2597 C2612 0.960 . S
H2598 C2612 0.960 . S
H2599 C2612 0.960 . S
C2600 H2592 0.929 . S
C2600 C2601 1.377 . S
C2600 C2602 1.384 . S
C2601 C2600 1.377 . S
C2601 C2607 1.390 . S
C2602 H2593 0.930 . S
C2602 C2600 1.384 . S
C2602 C2603 1.372 . S
C2603 C2602 1.372 . S
C2603 C2604 1.400 . S
C2603 C2608 1.490 . S
C2604 H2594 0.930 . S
C2604 C2603 1.400 . S
C2604 C2607 1.386 . S
H2605 C2621 0.930 . S
H2606 C2622 0.931 . S
C2607 H2595 0.929 . S
C2607 C2601 1.390 . S
C2607 C2604 1.386 . S
C2608 C2603 1.490 . S
C2608 C2610 1.395 . S
C2608 C2611 1.403 . S
H2609 C2615 0.930 . S
C2610 H2596 0.930 . S
C2610 C2608 1.395 . S
C2610 C2613 1.403 . S
C2611 C2608 1.403 . S
C2611 C2612 1.524 . S
C2611 C2615 1.400 . S
C2612 H2597 0.960 . S
C2612 H2598 0.960 . S
C2612 H2599 0.960 . S
C2612 C2611 1.524 . S
C2613 C2610 1.403 . S
C2613 C2614 1.392 . S
C2613 C2617 1.495 . S
C2614 C2613 1.392 . S
C2614 C2615 1.385 . S
C2614 C2616 1.478 . S
C2615 H2609 0.930 . S
C2615 C2611 1.400 . S
C2615 C2614 1.385 . S
C2616 C2614 1.478 . S
C2616 C2618 1.381 . S
C2616 C2622 1.383 . S
C2617 C2613 1.495 . S
C2617 H2623 0.959 . S
C2617 H2624 0.961 . S
C2617 H2625 0.960 . S
C2618 C2616 1.381 . S
C2618 C2619 1.394 . S
C2618 H2626 0.930 . S
C2619 C2618 1.394 . S
C2619 C2620 1.383 . S
C2619 H2627 0.929 . S
C2620 C2619 1.383 . S
C2620 C2621 1.377 . S
C2621 H2605 0.930 . S
C2621 C2620 1.377 . S
C2621 C2622 1.379 . S
C2622 H2606 0.931 . S
C2622 C2616 1.383 . S
C2622 C2621 1.379 . S
H2623 C2617 0.959 . S
H2624 C2617 0.961 . S
H2625 C2617 0.960 . S
H2626 C2618 0.930 . S
H2627 C2619 0.929 . S
H2628 C2636 0.929 . S
H2629 C2638 0.930 . S
H2630 C2640 0.930 . S
H2631 C2643 0.929 . S
H2632 C2646 0.930 . S
H2633 C2648 0.960 . S
H2634 C2648 0.960 . S
H2635 C2648 0.960 . S
C2636 H2628 0.929 . S
C2636 C2637 1.377 . S
C2636 C2638 1.384 . S
C2637 C2636 1.377 . S
C2637 C2643 1.390 . S
C2638 H2629 0.930 . S
C2638 C2636 1.384 . S
C2638 C2639 1.372 . S
C2639 C2638 1.372 . S
C2639 C2640 1.400 . S
C2639 C2644 1.490 . S
C2640 H2630 0.930 . S
C2640 C2639 1.400 . S
C2640 C2643 1.386 . S
H2641 C2657 0.930 . S
H2642 C2658 0.931 . S
C2643 H2631 0.929 . S
C2643 C2637 1.390 . S
C2643 C2640 1.386 . S
C2644 C2639 1.490 . S
C2644 C2646 1.395 . S
C2644 C2647 1.403 . S
H2645 C2651 0.930 . S
C2646 H2632 0.930 . S
C2646 C2644 1.395 . S
C2646 C2649 1.403 . S
C2647 C2644 1.403 . S
C2647 C2648 1.524 . S
C2647 C2651 1.400 . S
C2648 H2633 0.960 . S
C2648 H2634 0.960 . S
C2648 H2635 0.960 . S
C2648 C2647 1.524 . S
C2649 C2646 1.403 . S
C2649 C2650 1.392 . S
C2649 C2653 1.495 . S
C2650 C2649 1.392 . S
C2650 C2651 1.385 . S
C2650 C2652 1.478 . S
C2651 H2645 0.930 . S
C2651 C2647 1.400 . S
C2651 C2650 1.385 . S
C2652 C2650 1.478 . S
C2652 C2654 1.381 . S
C2652 C2658 1.383 . S
C2653 C2649 1.495 . S
C2653 H2659 0.959 . S
C2653 H2660 0.961 . S
C2653 H2661 0.960 . S
C2654 C2652 1.381 . S
C2654 C2655 1.394 . S
C2654 H2662 0.930 . S
C2655 C2654 1.394 . S
C2655 C2656 1.383 . S
C2655 H2663 0.929 . S
C2656 C2655 1.383 . S
C2656 C2657 1.377 . S
C2657 H2641 0.930 . S
C2657 C2656 1.377 . S
C2657 C2658 1.379 . S
C2658 H2642 0.931 . S
C2658 C2652 1.383 . S
C2658 C2657 1.379 . S
H2659 C2653 0.959 . S
H2660 C2653 0.961 . S
H2661 C2653 0.960 . S
H2662 C2654 0.930 . S
H2663 C2655 0.929 . S
H2664 C2672 0.929 . S
H2665 C2674 0.946 . S
H2666 C2676 0.930 . S
H2667 C2679 0.929 . S
H2668 C2682 0.930 . S
H2669 C2684 0.960 . S
H2670 C2684 0.960 . S
H2671 C2684 0.960 . S
C2672 H2664 0.929 . S
C2672 C2673 1.377 . S
C2672 C2674 1.384 . S
C2673 C2672 1.377 . S
C2673 C2679 1.390 . S
C2674 H2665 0.946 . S
C2674 C2672 1.384 . S
C2674 C2675 1.372 . S
C2675 C2674 1.372 . S
C2675 C2676 1.400 . S
C2675 C2680 1.490 . S
C2676 H2666 0.930 . S
C2676 C2675 1.400 . S
C2676 C2679 1.386 . S
H2677 C2693 0.930 . S
H2678 C2694 0.931 . S
C2679 H2667 0.929 . S
C2679 C2673 1.390 . S
C2679 C2676 1.386 . S
C2680 C2675 1.490 . S
C2680 C2682 1.395 . S
C2680 C2683 1.403 . S
H2681 C2687 0.930 . S
C2682 H2668 0.930 . S
C2682 C2680 1.395 . S
C2682 C2685 1.403 . S
C2683 C2680 1.403 . S
C2683 C2684 1.524 . S
C2683 C2687 1.400 . S
C2684 H2669 0.960 . S
C2684 H2670 0.960 . S
C2684 H2671 0.960 . S
C2684 C2683 1.524 . S
C2685 C2682 1.403 . S
C2685 C2686 1.392 . S
C2685 C2689 1.495 . S
C2686 C2685 1.392 . S
C2686 C2687 1.385 . S
C2686 C2688 1.478 . S
C2687 H2681 0.930 . S
C2687 C2683 1.400 . S
C2687 C2686 1.385 . S
C2688 C2686 1.478 . S
C2688 C2690 1.381 . S
C2688 C2694 1.383 . S
C2689 C2685 1.495 . S
C2689 H2695 0.959 . S
C2689 H2696 0.961 . S
C2689 H2697 0.960 1_455 S
C2690 C2688 1.381 . S
C2690 C2691 1.394 . S
C2690 H2698 0.930 1_455 S
C2691 C2690 1.394 . S
C2691 C2692 1.383 . S
C2691 H2699 0.929 1_455 S
C2692 C2691 1.383 . S
C2692 C2693 1.377 . S
C2693 H2677 0.930 . S
C2693 C2692 1.377 . S
C2693 C2694 1.379 . S
C2694 H2678 0.931 . S
C2694 C2688 1.383 . S
C2694 C2693 1.379 . S
H2695 C2689 0.959 . S
H2696 C2689 0.961 . S
H2697 C2689 0.960 1_655 S
H2698 C2690 0.930 1_655 S
H2699 C2691 0.929 1_655 S
H2700 C2708 0.929 . S
H2701 C2710 0.930 . S
H2702 C2712 0.930 . S
H2703 C2715 0.929 . S
H2704 C2718 0.930 . S
H2705 C2720 0.960 . S
H2706 C2720 0.960 . S
H2707 C2720 0.960 . S
C2708 H2700 0.929 . S
C2708 C2709 1.377 . S
C2708 C2710 1.384 . S
C2709 C2708 1.377 . S
C2709 C2715 1.390 . S
C2710 H2701 0.930 . S
C2710 C2708 1.384 . S
C2710 C2711 1.372 . S
C2711 C2710 1.372 . S
C2711 C2712 1.400 . S
C2711 C2716 1.490 . S
C2712 H2702 0.930 . S
C2712 C2711 1.400 . S
C2712 C2715 1.386 . S
H2713 C2729 0.930 . S
H2714 C2730 0.931 . S
C2715 H2703 0.929 . S
C2715 C2709 1.390 . S
C2715 C2712 1.386 . S
C2716 C2711 1.490 . S
C2716 C2718 1.395 . S
C2716 C2719 1.403 . S
H2717 C2723 0.930 . S
C2718 H2704 0.930 . S
C2718 C2716 1.395 . S
C2718 C2721 1.403 . S
C2719 C2716 1.403 . S
C2719 C2720 1.524 . S
C2719 C2723 1.400 . S
C2720 H2705 0.960 . S
C2720 H2706 0.960 . S
C2720 H2707 0.960 . S
C2720 C2719 1.524 . S
C2721 C2718 1.403 . S
C2721 C2722 1.392 . S
C2721 C2725 1.495 . S
C2722 C2721 1.392 . S
C2722 C2723 1.385 . S
C2722 C2724 1.478 . S
C2723 H2717 0.930 . S
C2723 C2719 1.400 . S
C2723 C2722 1.385 . S
C2724 C2722 1.478 . S
C2724 C2726 1.381 . S
C2724 C2730 1.383 . S
C2725 C2721 1.495 . S
C2725 H2731 0.959 . S
C2725 H2732 0.961 . S
C2725 H2733 0.960 . S
C2726 C2724 1.381 . S
C2726 C2727 1.394 . S
C2726 H2734 0.930 . S
C2727 C2726 1.394 . S
C2727 C2728 1.383 . S
C2727 H2735 0.929 . S
C2728 C2727 1.383 . S
C2728 C2729 1.377 . S
C2729 H2713 0.930 . S
C2729 C2728 1.377 . S
C2729 C2730 1.379 . S
C2730 H2714 0.931 . S
C2730 C2724 1.383 . S
C2730 C2729 1.379 . S
H2731 C2725 0.959 . S
H2732 C2725 0.961 . S
H2733 C2725 0.960 . S
H2734 C2726 0.930 . S
H2735 C2727 0.929 . S
H2736 C2744 0.929 . S
H2737 C2746 0.930 . S
H2738 C2748 0.930 . S
H2739 C2751 0.929 . S
H2740 C2754 0.930 . S
H2741 C2756 0.960 . S
H2742 C2756 0.960 . S
H2743 C2756 0.960 . S
C2744 H2736 0.929 . S
C2744 C2745 1.377 . S
C2744 C2746 1.384 . S
C2745 C2744 1.377 . S
C2745 C2751 1.390 . S
C2746 H2737 0.930 . S
C2746 C2744 1.384 . S
C2746 C2747 1.372 . S
C2747 C2746 1.372 . S
C2747 C2748 1.400 . S
C2747 C2752 1.490 . S
C2748 H2738 0.930 . S
C2748 C2747 1.400 . S
C2748 C2751 1.386 . S
H2749 C2765 0.930 . S
H2750 C2766 0.931 . S
C2751 H2739 0.929 . S
C2751 C2745 1.390 . S
C2751 C2748 1.386 . S
C2752 C2747 1.490 . S
C2752 C2754 1.395 . S
C2752 C2755 1.403 . S
H2753 C2759 0.930 . S
C2754 H2740 0.930 . S
C2754 C2752 1.395 . S
C2754 C2757 1.403 . S
C2755 C2752 1.403 . S
C2755 C2756 1.524 . S
C2755 C2759 1.400 . S
C2756 H2741 0.960 . S
C2756 H2742 0.960 . S
C2756 H2743 0.960 . S
C2756 C2755 1.524 . S
C2757 C2754 1.403 . S
C2757 C2758 1.392 . S
C2757 C2761 1.495 . S
C2758 C2757 1.392 . S
C2758 C2759 1.385 . S
C2758 C2760 1.478 . S
C2759 H2753 0.930 . S
C2759 C2755 1.400 . S
C2759 C2758 1.385 . S
C2760 C2758 1.478 . S
C2760 C2762 1.381 . S
C2760 C2766 1.383 . S
C2761 C2757 1.495 . S
C2761 H2767 0.959 . S
C2761 H2768 0.961 . S
C2761 H2769 0.960 . S
C2762 C2760 1.381 . S
C2762 C2763 1.394 . S
C2762 H2770 0.930 . S
C2763 C2762 1.394 . S
C2763 C2764 1.383 . S
C2763 H2771 0.929 1_556 S
C2764 C2763 1.383 . S
C2764 C2765 1.377 . S
C2765 H2749 0.930 . S
C2765 C2764 1.377 . S
C2765 C2766 1.379 . S
C2766 H2750 0.931 . S
C2766 C2760 1.383 . S
C2766 C2765 1.379 . S
H2767 C2761 0.959 . S
H2768 C2761 0.961 . S
H2769 C2761 0.960 . S
H2770 C2762 0.930 . S
H2771 C2763 0.929 1_554 S
H2772 C2780 0.929 . S
H2773 C2782 0.930 . S
H2774 C2784 0.930 . S
H2775 C2787 0.929 . S
H2776 C2790 0.930 . S
H2777 C2792 0.960 . S
H2778 C2792 0.960 . S
H2779 C2792 0.960 . S
C2780 H2772 0.929 . S
C2780 C2781 1.377 . S
C2780 C2782 1.384 . S
C2781 C2780 1.377 . S
C2781 C2787 1.390 . S
C2782 H2773 0.930 . S
C2782 C2780 1.384 . S
C2782 C2783 1.372 . S
C2783 C2782 1.372 . S
C2783 C2784 1.400 . S
C2783 C2788 1.490 . S
C2784 H2774 0.930 . S
C2784 C2783 1.400 . S
C2784 C2787 1.386 . S
H2785 C2801 0.930 . S
H2786 C2802 0.931 . S
C2787 H2775 0.929 . S
C2787 C2781 1.390 . S
C2787 C2784 1.386 . S
C2788 C2783 1.490 . S
C2788 C2790 1.395 . S
C2788 C2791 1.403 . S
H2789 C2795 0.930 . S
C2790 H2776 0.930 . S
C2790 C2788 1.395 . S
C2790 C2793 1.403 . S
C2791 C2788 1.403 . S
C2791 C2792 1.524 . S
C2791 C2795 1.400 . S
C2792 H2777 0.960 . S
C2792 H2778 0.960 . S
C2792 H2779 0.960 . S
C2792 C2791 1.524 . S
C2793 C2790 1.403 . S
C2793 C2794 1.392 . S
C2793 C2797 1.495 . S
C2794 C2793 1.392 . S
C2794 C2795 1.385 . S
C2794 C2796 1.478 . S
C2795 H2789 0.930 . S
C2795 C2791 1.400 . S
C2795 C2794 1.385 . S
C2796 C2794 1.478 . S
C2796 C2798 1.381 . S
C2796 C2802 1.383 . S
C2797 C2793 1.495 . S
C2797 H2803 0.959 . S
C2797 H2804 0.961 . S
C2797 H2805 0.960 . S
C2798 C2796 1.381 . S
C2798 C2799 1.394 . S
C2798 H2806 0.930 . S
C2799 C2798 1.394 . S
C2799 C2800 1.383 . S
C2799 H2807 0.929 . S
C2800 C2799 1.383 . S
C2800 C2801 1.377 . S
C2801 H2785 0.930 . S
C2801 C2800 1.377 . S
C2801 C2802 1.379 . S
C2802 H2786 0.931 . S
C2802 C2796 1.383 . S
C2802 C2801 1.379 . S
H2803 C2797 0.959 . S
H2804 C2797 0.961 . S
H2805 C2797 0.960 . S
H2806 C2798 0.930 . S
H2807 C2799 0.929 . S
H2808 C2816 0.929 . S
H2809 C2818 0.930 . S
H2810 C2820 0.930 . S
H2811 C2823 0.929 . S
H2812 C2826 0.930 . S
H2813 C2828 0.960 . S
H2814 C2828 0.960 . S
H2815 C2828 0.960 . S
C2816 H2808 0.929 . S
C2816 C2817 1.377 . S
C2816 C2818 1.384 . S
C2817 C2816 1.377 . S
C2817 C2823 1.390 . S
C2818 H2809 0.930 . S
C2818 C2816 1.384 . S
C2818 C2819 1.372 . S
C2819 C2818 1.372 . S
C2819 C2820 1.400 . S
C2819 C2824 1.490 . S
C2820 H2810 0.930 . S
C2820 C2819 1.400 . S
C2820 C2823 1.386 . S
H2821 C2837 0.930 . S
H2822 C2838 0.931 . S
C2823 H2811 0.929 . S
C2823 C2817 1.390 . S
C2823 C2820 1.386 . S
C2824 C2819 1.490 . S
C2824 C2826 1.395 . S
C2824 C2827 1.403 . S
H2825 C2831 0.914 1_565 S
C2826 H2812 0.930 . S
C2826 C2824 1.395 . S
C2826 C2829 1.403 . S
C2827 C2824 1.403 . S
C2827 C2828 1.524 1_545 S
C2827 C2831 1.400 . S
C2828 H2813 0.960 . S
C2828 H2814 0.960 . S
C2828 H2815 0.960 . S
C2828 C2827 1.524 1_565 S
C2829 C2826 1.403 . S
C2829 C2830 1.392 . S
C2829 C2833 1.495 . S
C2830 C2829 1.392 . S
C2830 C2831 1.385 . S
C2830 C2832 1.478 . S
C2831 H2825 0.914 1_545 S
C2831 C2827 1.400 . S
C2831 C2830 1.385 . S
C2832 C2830 1.478 . S
C2832 C2834 1.381 . S
C2832 C2838 1.383 . S
C2833 C2829 1.495 . S
C2833 H2839 0.959 . S
C2833 H2840 0.961 . S
C2833 H2841 0.960 . S
C2834 C2832 1.381 . S
C2834 C2835 1.394 . S
C2834 H2842 0.930 . S
C2835 C2834 1.394 . S
C2835 C2836 1.383 . S
C2835 H2843 0.929 . S
C2836 C2835 1.383 . S
C2836 C2837 1.377 . S
C2837 H2821 0.930 . S
C2837 C2836 1.377 . S
C2837 C2838 1.379 . S
C2838 H2822 0.931 . S
C2838 C2832 1.383 . S
C2838 C2837 1.379 . S
H2839 C2833 0.959 . S
H2840 C2833 0.961 . S
H2841 C2833 0.960 . S
H2842 C2834 0.930 . S
H2843 C2835 0.929 . S
H2844 C2852 0.929 . S
H2845 C2854 0.930 . S
H2846 C2856 0.930 . S
H2847 C2859 0.929 . S
H2848 C2862 0.930 . S
H2849 C2864 0.960 . S
H2850 C2864 0.960 . S
H2851 C2864 0.960 . S
C2852 H2844 0.929 . S
C2852 C2853 1.377 . S
C2852 C2854 1.384 . S
C2853 C2852 1.377 . S
C2853 C2859 1.390 . S
C2854 H2845 0.930 . S
C2854 C2852 1.384 . S
C2854 C2855 1.372 . S
C2855 C2854 1.372 . S
C2855 C2856 1.400 . S
C2855 C2860 1.490 . S
C2856 H2846 0.930 . S
C2856 C2855 1.400 . S
C2856 C2859 1.386 . S
H2857 C2873 0.930 . S
H2858 C2874 0.931 . S
C2859 H2847 0.929 . S
C2859 C2853 1.390 . S
C2859 C2856 1.386 . S
C2860 C2855 1.490 . S
C2860 C2862 1.395 . S
C2860 C2863 1.403 . S
H2861 C2867 0.930 . S
C2862 H2848 0.930 . S
C2862 C2860 1.395 . S
C2862 C2865 1.403 . S
C2863 C2860 1.403 . S
C2863 C2864 1.524 . S
C2863 C2867 1.400 . S
C2864 H2849 0.960 . S
C2864 H2850 0.960 . S
C2864 H2851 0.960 . S
C2864 C2863 1.524 . S
C2865 C2862 1.403 . S
C2865 C2866 1.392 . S
C2865 C2869 1.495 . S
C2866 C2865 1.392 . S
C2866 C2867 1.385 . S
C2866 C2868 1.478 . S
C2867 H2861 0.930 . S
C2867 C2863 1.400 . S
C2867 C2866 1.385 . S
C2868 C2866 1.478 . S
C2868 C2870 1.381 . S
C2868 C2874 1.383 . S
C2869 C2865 1.495 . S
C2869 H2875 0.959 . S
C2869 H2876 0.961 . S
C2869 H2877 0.960 . S
C2870 C2868 1.381 . S
C2870 C2871 1.394 . S
C2870 H2878 0.930 . S
C2871 C2870 1.394 . S
C2871 C2872 1.383 . S
C2871 H2879 0.929 . S
C2872 C2871 1.383 . S
C2872 C2873 1.377 . S
C2873 H2857 0.930 . S
C2873 C2872 1.377 . S
C2873 C2874 1.379 . S
C2874 H2858 0.931 . S
C2874 C2868 1.383 . S
C2874 C2873 1.379 . S
H2875 C2869 0.959 . S
H2876 C2869 0.961 . S
H2877 C2869 0.960 . S
H2878 C2870 0.930 . S
H2879 C2871 0.929 . S
H2880 C2888 0.929 . S
H2881 C2890 0.930 . S
H2882 C2892 0.930 1_565 S
H2883 C2895 0.935 . S
H2884 C2898 0.930 . S
H2885 C2900 0.960 . S
H2886 C2900 0.960 . S
H2887 C2900 0.960 . S
C2888 H2880 0.929 . S
C2888 C2889 1.377 . S
C2888 C2890 1.384 . S
C2889 C2888 1.377 . S
C2889 C2895 1.383 1_545 S
C2890 H2881 0.930 . S
C2890 C2888 1.384 . S
C2890 C2891 1.372 . S
C2891 C2890 1.372 . S
C2891 C2892 1.400 . S
C2891 C2896 1.490 . S
C2892 H2882 0.930 1_545 S
C2892 C2891 1.400 . S
C2892 C2895 1.386 1_545 S
H2893 C2909 0.930 . S
H2894 C2910 0.931 1_565 S
C2895 H2883 0.935 . S
C2895 C2889 1.383 1_565 S
C2895 C2892 1.386 1_565 S
C2896 C2891 1.490 . S
C2896 C2898 1.395 . S
C2896 C2899 1.403 . S
H2897 C2903 0.930 . S
C2898 H2884 0.930 . S
C2898 C2896 1.395 . S
C2898 C2901 1.403 . S
C2899 C2896 1.403 . S
C2899 C2900 1.524 . S
C2899 C2903 1.400 . S
C2900 H2885 0.960 . S
C2900 H2886 0.960 . S
C2900 H2887 0.960 . S
C2900 C2899 1.524 . S
C2901 C2898 1.403 . S
C2901 C2902 1.392 . S
C2901 C2905 1.495 . S
C2902 C2901 1.392 . S
C2902 C2903 1.385 . S
C2902 C2904 1.478 . S
C2903 H2897 0.930 . S
C2903 C2899 1.400 . S
C2903 C2902 1.385 . S
C2904 C2902 1.478 . S
C2904 C2906 1.381 . S
C2904 C2910 1.383 . S
C2905 C2901 1.495 . S
C2905 H2911 0.959 . S
C2905 H2912 0.961 . S
C2905 H2913 0.960 . S
C2906 C2904 1.381 . S
C2906 C2907 1.394 . S
C2906 H2914 0.930 . S
C2907 C2906 1.394 . S
C2907 C2908 1.383 . S
C2907 H2915 0.929 . S
C2908 C2907 1.383 . S
C2908 C2909 1.377 . S
C2909 H2893 0.930 . S
C2909 C2908 1.377 . S
C2909 C2910 1.379 . S
C2910 H2894 0.931 1_545 S
C2910 C2904 1.383 . S
C2910 C2909 1.379 . S
H2911 C2905 0.959 . S
H2912 C2905 0.961 . S
H2913 C2905 0.960 . S
H2914 C2906 0.930 . S
H2915 C2907 0.929 . S
H2916 C2924 0.929 . S
H2917 C2926 0.930 . S
H2918 C2928 0.930 . S
H2919 C2931 0.929 . S
H2920 C2934 0.930 . S
H2921 C2936 0.960 . S
H2922 C2936 0.960 . S
H2923 C2936 0.960 . S
C2924 H2916 0.929 . S
C2924 C2925 1.377 . S
C2924 C2926 1.384 . S
C2925 C2924 1.377 . S
C2925 C2931 1.390 . S
C2926 H2917 0.930 . S
C2926 C2924 1.384 . S
C2926 C2927 1.372 . S
C2927 C2926 1.372 . S
C2927 C2928 1.400 . S
C2927 C2932 1.490 . S
C2928 H2918 0.930 . S
C2928 C2927 1.400 . S
C2928 C2931 1.386 . S
H2929 C2945 0.930 . S
H2930 C2946 0.931 . S
C2931 H2919 0.929 . S
C2931 C2925 1.390 . S
C2931 C2928 1.386 . S
C2932 C2927 1.490 . S
C2932 C2934 1.395 . S
C2932 C2935 1.403 . S
H2933 C2939 0.930 . S
C2934 H2920 0.930 . S
C2934 C2932 1.395 . S
C2934 C2937 1.403 . S
C2935 C2932 1.403 . S
C2935 C2936 1.524 . S
C2935 C2939 1.400 . S
C2936 H2921 0.960 . S
C2936 H2922 0.960 . S
C2936 H2923 0.960 . S
C2936 C2935 1.524 . S
C2937 C2934 1.403 . S
C2937 C2938 1.392 . S
C2937 C2941 1.495 . S
C2938 C2937 1.392 . S
C2938 C2939 1.385 . S
C2938 C2940 1.478 . S
C2939 H2933 0.930 . S
C2939 C2935 1.400 . S
C2939 C2938 1.385 . S
C2940 C2938 1.478 . S
C2940 C2942 1.381 . S
C2940 C2946 1.383 . S
C2941 C2937 1.495 . S
C2941 H2947 0.959 . S
C2941 H2948 0.961 . S
C2941 H2949 0.960 . S
C2942 C2940 1.381 . S
C2942 C2943 1.394 . S
C2942 H2950 0.930 . S
C2943 C2942 1.394 . S
C2943 C2944 1.383 . S
C2943 H2951 0.929 . S
C2944 C2943 1.383 . S
C2944 C2945 1.377 . S
C2945 H2929 0.930 . S
C2945 C2944 1.377 . S
C2945 C2946 1.379 . S
C2946 H2930 0.931 . S
C2946 C2940 1.383 . S
C2946 C2945 1.379 . S
H2947 C2941 0.959 . S
H2948 C2941 0.961 . S
H2949 C2941 0.960 . S
H2950 C2942 0.930 . S
H2951 C2943 0.929 . S
H2952 C2960 0.929 . S
H2953 C2962 0.930 . S
H2954 C2964 0.930 . S
H2955 C2967 0.929 . S
H2956 C2970 0.953 . S
H2957 C2972 0.960 . S
H2958 C2972 0.960 . S
H2959 C2972 0.960 . S
C2960 H2952 0.929 . S
C2960 C2961 1.377 . S
C2960 C2962 1.384 . S
C2961 C2960 1.377 . S
C2961 C2967 1.390 . S
C2962 H2953 0.930 . S
C2962 C2960 1.384 . S
C2962 C2963 1.372 . S
C2963 C2962 1.372 . S
C2963 C2964 1.400 . S
C2963 C2968 1.490 . S
C2964 H2954 0.930 . S
C2964 C2963 1.400 . S
C2964 C2967 1.386 . S
H2965 C2981 0.930 . S
H2966 C2982 0.931 . S
C2967 H2955 0.929 . S
C2967 C2961 1.390 . S
C2967 C2964 1.386 . S
C2968 C2963 1.490 . S
C2968 C2970 1.395 . S
C2968 C2971 1.403 . S
H2969 C2975 0.930 . S
C2970 H2956 0.953 . S
C2970 C2968 1.395 . S
C2970 C2973 1.403 . S
C2971 C2968 1.403 . S
C2971 C2972 1.524 . S
C2971 C2975 1.400 . S
C2972 H2957 0.960 . S
C2972 H2958 0.960 . S
C2972 H2959 0.960 . S
C2972 C2971 1.524 . S
C2973 C2970 1.403 . S
C2973 C2974 1.392 . S
C2973 C2977 1.495 1_545 S
C2974 C2973 1.392 . S
C2974 C2975 1.385 . S
C2974 C2976 1.478 . S
C2975 H2969 0.930 . S
C2975 C2971 1.400 . S
C2975 C2974 1.385 . S
C2976 C2974 1.478 . S
C2976 C2978 1.381 . S
C2976 C2982 1.383 . S
C2977 C2973 1.495 1_565 S
C2977 H2983 0.959 . S
C2977 H2984 0.961 . S
C2977 H2985 0.960 . S
C2978 C2976 1.381 . S
C2978 C2979 1.394 . S
C2978 H2986 0.930 . S
C2979 C2978 1.394 . S
C2979 C2980 1.383 . S
C2979 H2987 0.929 . S
C2980 C2979 1.383 . S
C2980 C2981 1.377 . S
C2981 H2965 0.930 . S
C2981 C2980 1.377 . S
C2981 C2982 1.379 . S
C2982 H2966 0.931 . S
C2982 C2976 1.383 . S
C2982 C2981 1.379 . S
H2983 C2977 0.959 . S
H2984 C2977 0.961 . S
H2985 C2977 0.960 . S
H2986 C2978 0.930 . S
H2987 C2979 0.929 . S
H2988 C2996 0.929 . S
H2989 C2998 0.930 . S
H2990 C3000 0.930 . S
H2991 C3003 0.929 . S
H2992 C3006 0.930 . S
H2993 C3008 0.960 . S
H2994 C3008 0.960 . S
H2995 C3008 0.960 . S
C2996 H2988 0.929 . S
C2996 C2997 1.377 . S
C2996 C2998 1.384 . S
C2997 C2996 1.377 . S
C2997 C3003 1.390 . S
C2998 H2989 0.930 . S
C2998 C2996 1.384 . S
C2998 C2999 1.372 . S
C2999 C2998 1.372 . S
C2999 C3000 1.400 . S
C2999 C3004 1.490 . S
C3000 H2990 0.930 . S
C3000 C2999 1.400 . S
C3000 C3003 1.386 . S
H3001 C3017 0.930 . S
H3002 C3018 0.931 . S
C3003 H2991 0.929 . S
C3003 C2997 1.390 . S
C3003 C3000 1.386 . S
C3004 C2999 1.490 . S
C3004 C3006 1.395 . S
C3004 C3007 1.403 . S
H3005 C3011 0.930 . S
C3006 H2992 0.930 . S
C3006 C3004 1.395 . S
C3006 C3009 1.403 . S
C3007 C3004 1.403 . S
C3007 C3008 1.524 . S
C3007 C3011 1.400 . S
C3008 H2993 0.960 . S
C3008 H2994 0.960 . S
C3008 H2995 0.960 . S
C3008 C3007 1.524 . S
C3009 C3006 1.403 . S
C3009 C3010 1.392 . S
C3009 C3013 1.495 . S
C3010 C3009 1.392 . S
C3010 C3011 1.385 . S
C3010 C3012 1.478 . S
C3011 H3005 0.930 . S
C3011 C3007 1.400 . S
C3011 C3010 1.385 . S
C3012 C3010 1.478 . S
C3012 C3014 1.381 . S
C3012 C3018 1.383 . S
C3013 C3009 1.495 . S
C3013 H3019 0.959 . S
C3013 H3020 0.961 . S
C3013 H3021 0.960 . S
C3014 C3012 1.381 . S
C3014 C3015 1.394 . S
C3014 H3022 0.930 . S
C3015 C3014 1.394 . S
C3015 C3016 1.383 . S
C3015 H3023 0.929 . S
C3016 C3015 1.383 . S
C3016 C3017 1.377 . S
C3017 H3001 0.930 . S
C3017 C3016 1.377 . S
C3017 C3018 1.379 . S
C3018 H3002 0.931 . S
C3018 C3012 1.383 . S
C3018 C3017 1.379 . S
H3019 C3013 0.959 . S
H3020 C3013 0.961 . S
H3021 C3013 0.960 . S
H3022 C3014 0.930 . S
H3023 C3015 0.929 . S
H3024 C3032 0.929 . S
H3025 C3034 0.930 . S
H3026 C3036 0.930 . S
H3027 C3039 0.929 . S
H3028 C3042 0.930 . S
H3029 C3044 0.960 . S
H3030 C3044 0.960 . S
H3031 C3044 0.960 . S
C3032 H3024 0.929 . S
C3032 C3033 1.377 . S
C3032 C3034 1.384 . S
C3033 C3032 1.377 . S
C3033 C3039 1.390 1_545 S
C3034 H3025 0.930 . S
C3034 C3032 1.384 . S
C3034 C3035 1.372 . S
C3035 C3034 1.372 . S
C3035 C3036 1.400 1_545 S
C3035 C3040 1.490 . S
C3036 H3026 0.930 . S
C3036 C3035 1.400 1_565 S
C3036 C3039 1.386 . S
H3037 C3053 0.930 . S
H3038 C3054 0.931 . S
C3039 H3027 0.929 . S
C3039 C3033 1.390 1_565 S
C3039 C3036 1.386 . S
C3040 C3035 1.490 . S
C3040 C3042 1.395 . S
C3040 C3043 1.403 1_545 S
H3041 C3047 0.930 . S
C3042 H3028 0.930 . S
C3042 C3040 1.395 . S
C3042 C3045 1.403 . S
C3043 C3040 1.403 1_565 S
C3043 C3044 1.524 . S
C3043 C3047 1.400 . S
C3044 H3029 0.960 . S
C3044 H3030 0.960 . S
C3044 H3031 0.960 . S
C3044 C3043 1.524 . S
C3045 C3042 1.403 . S
C3045 C3046 1.392 . S
C3045 C3049 1.495 . S
C3046 C3045 1.392 . S
C3046 C3047 1.385 1_545 S
C3046 C3048 1.478 . S
C3047 H3041 0.930 . S
C3047 C3043 1.400 . S
C3047 C3046 1.385 1_565 S
C3048 C3046 1.478 . S
C3048 C3050 1.381 . S
C3048 C3054 1.383 1_545 S
C3049 C3045 1.495 . S
C3049 H3055 0.959 . S
C3049 H3056 0.961 . S
C3049 H3057 0.960 . S
C3050 C3048 1.381 . S
C3050 C3051 1.394 . S
C3050 H3058 0.930 . S
C3051 C3050 1.394 . S
C3051 C3052 1.383 . S
C3051 H3059 0.929 . S
C3052 C3051 1.383 . S
C3052 C3053 1.377 1_545 S
C3053 H3037 0.930 . S
C3053 C3052 1.377 1_565 S
C3053 C3054 1.379 . S
C3054 H3038 0.931 . S
C3054 C3048 1.383 1_565 S
C3054 C3053 1.379 . S
H3055 C3049 0.959 . S
H3056 C3049 0.961 . S
H3057 C3049 0.960 . S
H3058 C3050 0.930 . S
H3059 C3051 0.929 . S
H3060 C3068 0.929 . S
H3061 C3070 0.930 . S
H3062 C3072 0.930 . S
H3063 C3075 0.929 . S
H3064 C3078 0.930 . S
H3065 C3080 0.960 . S
H3066 C3080 0.960 . S
H3067 C3080 0.960 . S
C3068 H3060 0.929 . S
C3068 C3069 1.377 . S
C3068 C3070 1.384 . S
C3069 C3068 1.377 . S
C3069 C3075 1.390 . S
C3070 H3061 0.930 . S
C3070 C3068 1.384 . S
C3070 C3071 1.372 . S
C3071 C3070 1.372 . S
C3071 C3072 1.400 . S
C3071 C3076 1.490 . S
C3072 H3062 0.930 . S
C3072 C3071 1.400 . S
C3072 C3075 1.386 . S
H3073 C3089 0.930 . S
H3074 C3090 0.931 . S
C3075 H3063 0.929 . S
C3075 C3069 1.390 . S
C3075 C3072 1.386 . S
C3076 C3071 1.490 . S
C3076 C3078 1.395 . S
C3076 C3079 1.403 . S
H3077 C3083 0.930 . S
C3078 H3064 0.930 . S
C3078 C3076 1.395 . S
C3078 C3081 1.403 . S
C3079 C3076 1.403 . S
C3079 C3080 1.524 . S
C3079 C3083 1.400 . S
C3080 H3065 0.960 . S
C3080 H3066 0.960 . S
C3080 H3067 0.960 . S
C3080 C3079 1.524 . S
C3081 C3078 1.403 . S
C3081 C3082 1.392 . S
C3081 C3085 1.495 . S
C3082 C3081 1.392 . S
C3082 C3083 1.385 . S
C3082 C3084 1.478 . S
C3083 H3077 0.930 . S
C3083 C3079 1.400 . S
C3083 C3082 1.385 . S
C3084 C3082 1.478 . S
C3084 C3086 1.381 . S
C3084 C3090 1.383 . S
C3085 C3081 1.495 . S
C3085 H3091 0.959 . S
C3085 H3092 0.961 . S
C3085 H3093 0.960 . S
C3086 C3084 1.381 . S
C3086 C3087 1.394 . S
C3086 H3094 0.930 . S
C3087 C3086 1.394 . S
C3087 C3088 1.383 . S
C3087 H3095 0.929 . S
C3088 C3087 1.383 . S
C3088 C3089 1.377 . S
C3089 H3073 0.930 . S
C3089 C3088 1.377 . S
C3089 C3090 1.379 . S
C3090 H3074 0.931 . S
C3090 C3084 1.383 . S
C3090 C3089 1.379 . S
H3091 C3085 0.959 . S
H3092 C3085 0.961 . S
H3093 C3085 0.960 . S
H3094 C3086 0.930 . S
H3095 C3087 0.929 . S
H3096 C3104 0.929 . S
H3097 C3106 0.930 . S
H3098 C3108 0.930 . S
H3099 C3111 0.929 . S
H3100 C3114 0.930 . S
H3101 C3116 0.960 . S
H3102 C3116 0.960 . S
H3103 C3116 0.960 . S
C3104 H3096 0.929 . S
C3104 C3105 1.377 . S
C3104 C3106 1.384 . S
C3105 C3104 1.377 . S
C3105 C3111 1.390 . S
C3106 H3097 0.930 . S
C3106 C3104 1.384 . S
C3106 C3107 1.372 . S
C3107 C3106 1.372 . S
C3107 C3108 1.400 . S
C3107 C3112 1.490 . S
C3108 H3098 0.930 . S
C3108 C3107 1.400 . S
C3108 C3111 1.386 . S
H3109 C3125 0.930 1_556 S
H3110 C3126 0.902 1_556 S
C3111 H3099 0.929 . S
C3111 C3105 1.390 . S
C3111 C3108 1.386 . S
C3112 C3107 1.490 . S
C3112 C3114 1.395 . S
C3112 C3115 1.403 . S
H3113 C3119 0.930 . S
C3114 H3100 0.930 . S
C3114 C3112 1.395 . S
C3114 C3117 1.403 . S
C3115 C3112 1.403 . S
C3115 C3116 1.524 . S
C3115 C3119 1.400 . S
C3116 H3101 0.960 . S
C3116 H3102 0.960 . S
C3116 H3103 0.960 . S
C3116 C3115 1.524 . S
C3117 C3114 1.403 . S
C3117 C3118 1.392 . S
C3117 C3121 1.495 . S
C3118 C3117 1.392 . S
C3118 C3119 1.385 . S
C3118 C3120 1.478 . S
C3119 H3113 0.930 . S
C3119 C3115 1.400 . S
C3119 C3118 1.385 . S
C3120 C3118 1.478 . S
C3120 C3122 1.381 . S
C3120 C3126 1.383 . S
C3121 C3117 1.495 . S
C3121 H3127 0.959 . S
C3121 H3128 0.961 1_554 S
C3121 H3129 0.960 . S
C3122 C3120 1.381 . S
C3122 C3123 1.394 . S
C3122 H3130 0.930 . S
C3123 C3122 1.394 . S
C3123 C3124 1.383 . S
C3123 H3131 0.929 . S
C3124 C3123 1.383 . S
C3124 C3125 1.377 . S
C3125 H3109 0.930 1_554 S
C3125 C3124 1.377 . S
C3125 C3126 1.379 . S
C3126 H3110 0.902 1_554 S
C3126 C3120 1.383 . S
C3126 C3125 1.379 . S
H3127 C3121 0.959 . S
H3128 C3121 0.961 1_556 S
H3129 C3121 0.960 . S
H3130 C3122 0.930 . S
H3131 C3123 0.929 . S
H3132 C3140 0.929 . S
H3133 C3142 0.930 . S
H3134 C3144 0.930 . S
H3135 C3147 0.929 . S
H3136 C3150 0.930 . S
H3137 C3152 0.960 . S
H3138 C3152 0.960 . S
H3139 C3152 0.960 . S
C3140 H3132 0.929 . S
C3140 C3141 1.377 . S
C3140 C3142 1.384 . S
C3141 C3140 1.377 . S
C3141 C3147 1.390 . S
C3142 H3133 0.930 . S
C3142 C3140 1.384 . S
C3142 C3143 1.372 . S
C3143 C3142 1.372 . S
C3143 C3144 1.400 . S
C3143 C3148 1.490 . S
C3144 H3134 0.930 . S
C3144 C3143 1.400 . S
C3144 C3147 1.386 . S
H3145 C3161 0.930 . S
H3146 C3162 0.931 . S
C3147 H3135 0.929 . S
C3147 C3141 1.390 . S
C3147 C3144 1.386 . S
C3148 C3143 1.490 . S
C3148 C3150 1.395 . S
C3148 C3151 1.403 . S
H3149 C3155 0.930 . S
C3150 H3136 0.930 . S
C3150 C3148 1.395 . S
C3150 C3153 1.403 . S
C3151 C3148 1.403 . S
C3151 C3152 1.524 . S
C3151 C3155 1.400 . S
C3152 H3137 0.960 . S
C3152 H3138 0.960 . S
C3152 H3139 0.960 . S
C3152 C3151 1.524 . S
C3153 C3150 1.403 . S
C3153 C3154 1.392 . S
C3153 C3157 1.495 . S
C3154 C3153 1.392 . S
C3154 C3155 1.385 . S
C3154 C3156 1.478 . S
C3155 H3149 0.930 . S
C3155 C3151 1.400 . S
C3155 C3154 1.385 . S
C3156 C3154 1.478 . S
C3156 C3158 1.381 . S
C3156 C3162 1.383 . S
C3157 C3153 1.495 . S
C3157 H3163 0.959 . S
C3157 H3164 0.961 . S
C3157 H3165 0.960 . S
C3158 C3156 1.381 . S
C3158 C3159 1.394 . S
C3158 H3166 0.930 . S
C3159 C3158 1.394 . S
C3159 C3160 1.383 . S
C3159 H3167 0.929 . S
C3160 C3159 1.383 . S
C3160 C3161 1.377 . S
C3161 H3145 0.930 . S
C3161 C3160 1.377 . S
C3161 C3162 1.379 . S
C3162 H3146 0.931 . S
C3162 C3156 1.383 . S
C3162 C3161 1.379 . S
H3163 C3157 0.959 . S
H3164 C3157 0.961 . S
H3165 C3157 0.960 . S
H3166 C3158 0.930 . S
H3167 C3159 0.929 . S
H3168 C3176 0.929 . S
H3169 C3178 0.930 . S
H3170 C3180 0.930 . S
H3171 C3183 0.929 . S
H3172 C3186 0.930 . S
H3173 C3188 0.960 . S
H3174 C3188 0.960 . S
H3175 C3188 0.960 . S
C3176 H3168 0.929 . S
C3176 C3177 1.377 . S
C3176 C3178 1.384 . S
C3177 C3176 1.377 . S
C3177 C3183 1.390 . S
C3178 H3169 0.930 . S
C3178 C3176 1.384 . S
C3178 C3179 1.372 . S
C3179 C3178 1.372 . S
C3179 C3180 1.400 . S
C3179 C3184 1.490 . S
C3180 H3170 0.930 . S
C3180 C3179 1.400 . S
C3180 C3183 1.386 . S
H3181 C3197 0.930 . S
H3182 C3198 0.931 . S
C3183 H3171 0.929 . S
C3183 C3177 1.390 . S
C3183 C3180 1.386 . S
C3184 C3179 1.490 . S
C3184 C3186 1.395 . S
C3184 C3187 1.403 . S
H3185 C3191 0.930 . S
C3186 H3172 0.930 . S
C3186 C3184 1.395 . S
C3186 C3189 1.403 . S
C3187 C3184 1.403 . S
C3187 C3188 1.524 . S
C3187 C3191 1.400 . S
C3188 H3173 0.960 . S
C3188 H3174 0.960 . S
C3188 H3175 0.960 . S
C3188 C3187 1.524 . S
C3189 C3186 1.403 . S
C3189 C3190 1.392 . S
C3189 C3193 1.495 . S
C3190 C3189 1.392 . S
C3190 C3191 1.385 . S
C3190 C3192 1.478 . S
C3191 H3185 0.930 . S
C3191 C3187 1.400 . S
C3191 C3190 1.385 . S
C3192 C3190 1.478 . S
C3192 C3194 1.381 . S
C3192 C3198 1.383 . S
C3193 C3189 1.495 . S
C3193 H3199 0.959 . S
C3193 H3200 0.961 . S
C3193 H3201 0.960 . S
C3194 C3192 1.381 . S
C3194 C3195 1.394 . S
C3194 H3202 0.930 . S
C3195 C3194 1.394 . S
C3195 C3196 1.383 . S
C3195 H3203 0.929 . S
C3196 C3195 1.383 . S
C3196 C3197 1.377 . S
C3197 H3181 0.930 . S
C3197 C3196 1.377 . S
C3197 C3198 1.379 . S
C3198 H3182 0.931 . S
C3198 C3192 1.383 . S
C3198 C3197 1.379 . S
H3199 C3193 0.959 . S
H3200 C3193 0.961 . S
H3201 C3193 0.960 . S
H3202 C3194 0.930 . S
H3203 C3195 0.929 . S
H3204 C3212 0.929 . S
H3205 C3214 0.930 . S
H3206 C3216 0.930 . S
H3207 C3219 0.929 . S
H3208 C3222 0.930 . S
H3209 C3224 0.960 . S
H3210 C3224 0.960 . S
H3211 C3224 0.960 . S
C3212 H3204 0.929 . S
C3212 C3213 1.377 . S
C3212 C3214 1.384 . S
C3213 C3212 1.377 . S
C3213 C3219 1.390 . S
C3214 H3205 0.930 . S
C3214 C3212 1.384 . S
C3214 C3215 1.372 . S
C3215 C3214 1.372 . S
C3215 C3216 1.400 . S
C3215 C3220 1.490 . S
C3216 H3206 0.930 . S
C3216 C3215 1.400 . S
C3216 C3219 1.386 . S
H3217 C3233 0.930 . S
H3218 C3234 0.931 . S
C3219 H3207 0.929 . S
C3219 C3213 1.390 . S
C3219 C3216 1.386 . S
C3220 C3215 1.490 . S
C3220 C3222 1.395 . S
C3220 C3223 1.403 . S
H3221 C3227 0.930 . S
C3222 H3208 0.930 . S
C3222 C3220 1.395 . S
C3222 C3225 1.403 . S
C3223 C3220 1.403 . S
C3223 C3224 1.524 . S
C3223 C3227 1.400 . S
C3224 H3209 0.960 . S
C3224 H3210 0.960 . S
C3224 H3211 0.960 . S
C3224 C3223 1.524 . S
C3225 C3222 1.403 . S
C3225 C3226 1.392 . S
C3225 C3229 1.495 . S
C3226 C3225 1.392 . S
C3226 C3227 1.385 . S
C3226 C3228 1.478 . S
C3227 H3221 0.930 . S
C3227 C3223 1.400 . S
C3227 C3226 1.385 . S
C3228 C3226 1.478 . S
C3228 C3230 1.381 . S
C3228 C3234 1.383 . S
C3229 C3225 1.495 . S
C3229 H3235 0.959 . S
C3229 H3236 0.961 . S
C3229 H3237 0.960 . S
C3230 C3228 1.381 . S
C3230 C3231 1.394 . S
C3230 H3238 0.930 . S
C3231 C3230 1.394 . S
C3231 C3232 1.383 . S
C3231 H3239 0.929 . S
C3232 C3231 1.383 . S
C3232 C3233 1.377 . S
C3233 H3217 0.930 . S
C3233 C3232 1.377 . S
C3233 C3234 1.379 . S
C3234 H3218 0.931 . S
C3234 C3228 1.383 . S
C3234 C3233 1.379 . S
H3235 C3229 0.959 . S
H3236 C3229 0.961 . S
H3237 C3229 0.960 . S
H3238 C3230 0.930 . S
H3239 C3231 0.929 . S
H3240 C3248 0.929 . S
H3241 C3250 0.930 . S
H3242 C3252 0.930 . S
H3243 C3255 0.929 1_545 S
H3244 C3258 0.930 . S
H3245 C3260 0.960 . S
H3246 C3260 0.960 . S
H3247 C3260 0.960 . S
C3248 H3240 0.929 . S
C3248 C3249 1.371 1_565 S
C3248 C3250 1.384 . S
C3249 C3248 1.371 1_545 S
C3249 C3255 1.387 1_545 S
C3250 H3241 0.930 . S
C3250 C3248 1.384 . S
C3250 C3251 1.372 . S
C3251 C3250 1.372 . S
C3251 C3252 1.400 . S
C3251 C3256 1.490 . S
C3252 H3242 0.930 . S
C3252 C3251 1.400 . S
C3252 C3255 1.386 . S
H3253 C3269 0.930 . S
H3254 C3270 0.931 . S
C3255 H3243 0.929 1_565 S
C3255 C3249 1.387 1_565 S
C3255 C3252 1.386 . S
C3256 C3251 1.490 . S
C3256 C3258 1.395 . S
C3256 C3259 1.403 . S
H3257 C3263 0.930 . S
C3258 H3244 0.930 . S
C3258 C3256 1.395 . S
C3258 C3261 1.403 . S
C3259 C3256 1.403 . S
C3259 C3260 1.524 . S
C3259 C3263 1.400 . S
C3260 H3245 0.960 . S
C3260 H3246 0.960 . S
C3260 H3247 0.960 . S
C3260 C3259 1.524 . S
C3261 C3258 1.403 . S
C3261 C3262 1.392 . S
C3261 C3265 1.495 . S
C3262 C3261 1.392 . S
C3262 C3263 1.385 . S
C3262 C3264 1.478 . S
C3263 H3257 0.930 . S
C3263 C3259 1.400 . S
C3263 C3262 1.385 . S
C3264 C3262 1.478 . S
C3264 C3266 1.381 . S
C3264 C3270 1.383 . S
C3265 C3261 1.495 . S
C3265 H3271 0.959 . S
C3265 H3272 0.961 . S
C3265 H3273 0.960 . S
C3266 C3264 1.381 . S
C3266 C3267 1.394 . S
C3266 H3274 0.930 . S
C3267 C3266 1.394 . S
C3267 C3268 1.383 . S
C3267 H3275 0.929 . S
C3268 C3267 1.383 . S
C3268 C3269 1.377 . S
C3269 H3253 0.930 . S
C3269 C3268 1.377 . S
C3269 C3270 1.379 . S
C3270 H3254 0.931 . S
C3270 C3264 1.383 . S
C3270 C3269 1.379 . S
H3271 C3265 0.959 . S
H3272 C3265 0.961 . S
H3273 C3265 0.960 . S
H3274 C3266 0.930 . S
H3275 C3267 0.929 . S
H3276 C3284 0.929 . S
H3277 C3286 0.930 . S
H3278 C3288 0.930 . S
H3279 C3291 0.929 . S
H3280 C3294 0.930 . S
H3281 C3296 0.960 . S
H3282 C3296 0.960 . S
H3283 C3296 0.960 . S
C3284 H3276 0.929 . S
C3284 C3285 1.377 . S
C3284 C3286 1.384 . S
C3285 C3284 1.377 . S
C3285 C3291 1.390 . S
C3286 H3277 0.930 . S
C3286 C3284 1.384 . S
C3286 C3287 1.372 . S
C3287 C3286 1.372 . S
C3287 C3288 1.400 . S
C3287 C3292 1.490 . S
C3288 H3278 0.930 . S
C3288 C3287 1.400 . S
C3288 C3291 1.386 . S
H3289 C3305 0.930 . S
H3290 C3306 0.931 . S
C3291 H3279 0.929 . S
C3291 C3285 1.390 . S
C3291 C3288 1.386 . S
C3292 C3287 1.490 . S
C3292 C3294 1.395 . S
C3292 C3295 1.403 . S
H3293 C3299 0.930 . S
C3294 H3280 0.930 . S
C3294 C3292 1.395 . S
C3294 C3297 1.403 . S
C3295 C3292 1.403 . S
C3295 C3296 1.524 . S
C3295 C3299 1.400 . S
C3296 H3281 0.960 . S
C3296 H3282 0.960 . S
C3296 H3283 0.960 . S
C3296 C3295 1.524 . S
C3297 C3294 1.403 . S
C3297 C3298 1.392 . S
C3297 C3301 1.495 . S
C3298 C3297 1.392 . S
C3298 C3299 1.385 . S
C3298 C3300 1.478 . S
C3299 H3293 0.930 . S
C3299 C3295 1.400 . S
C3299 C3298 1.385 . S
C3300 C3298 1.478 . S
C3300 C3302 1.381 . S
C3300 C3306 1.383 . S
C3301 C3297 1.495 . S
C3301 H3307 0.959 . S
C3301 H3308 0.961 . S
C3301 H3309 0.960 . S
C3302 C3300 1.381 . S
C3302 C3303 1.394 . S
C3302 H3310 0.930 . S
C3303 C3302 1.394 . S
C3303 C3304 1.383 . S
C3303 H3311 0.929 . S
C3304 C3303 1.383 . S
C3304 C3305 1.377 . S
C3305 H3289 0.930 . S
C3305 C3304 1.377 . S
C3305 C3306 1.379 . S
C3306 H3290 0.931 . S
C3306 C3300 1.383 . S
C3306 C3305 1.379 . S
H3307 C3301 0.959 . S
H3308 C3301 0.961 . S
H3309 C3301 0.960 . S
H3310 C3302 0.930 . S
H3311 C3303 0.929 . S
H3312 C3320 0.929 . S
H3313 C3322 0.930 . S
H3314 C3324 0.930 . S
H3315 C3327 0.929 . S
H3316 C3330 0.930 . S
H3317 C3332 0.960 . S
H3318 C3332 0.960 . S
H3319 C3332 0.960 . S
C3320 H3312 0.929 . S
C3320 C3321 1.377 . S
C3320 C3322 1.384 . S
C3321 C3320 1.377 . S
C3321 C3327 1.390 . S
C3322 H3313 0.930 . S
C3322 C3320 1.384 . S
C3322 C3323 1.372 . S
C3323 C3322 1.372 . S
C3323 C3324 1.400 . S
C3323 C3328 1.490 . S
C3324 H3314 0.930 . S
C3324 C3323 1.400 . S
C3324 C3327 1.386 . S
H3325 C3341 0.930 . S
H3326 C3342 0.931 . S
C3327 H3315 0.929 . S
C3327 C3321 1.390 . S
C3327 C3324 1.386 . S
C3328 C3323 1.490 . S
C3328 C3330 1.395 . S
C3328 C3331 1.403 . S
H3329 C3335 0.930 . S
C3330 H3316 0.930 . S
C3330 C3328 1.395 . S
C3330 C3333 1.403 . S
C3331 C3328 1.403 . S
C3331 C3332 1.524 . S
C3331 C3335 1.400 . S
C3332 H3317 0.960 . S
C3332 H3318 0.960 . S
C3332 H3319 0.960 . S
C3332 C3331 1.524 . S
C3333 C3330 1.403 . S
C3333 C3334 1.392 . S
C3333 C3337 1.495 . S
C3334 C3333 1.392 . S
C3334 C3335 1.385 . S
C3334 C3336 1.478 . S
C3335 H3329 0.930 . S
C3335 C3331 1.400 . S
C3335 C3334 1.385 . S
C3336 C3334 1.478 . S
C3336 C3338 1.381 . S
C3336 C3342 1.383 . S
C3337 C3333 1.495 . S
C3337 H3343 0.959 . S
C3337 H3344 0.961 . S
C3337 H3345 0.960 . S
C3338 C3336 1.381 . S
C3338 C3339 1.394 . S
C3338 H3346 0.930 . S
C3339 C3338 1.394 . S
C3339 C3340 1.383 . S
C3339 H3347 0.929 . S
C3340 C3339 1.383 . S
C3340 C3341 1.377 . S
C3341 H3325 0.930 . S
C3341 C3340 1.377 . S
C3341 C3342 1.379 . S
C3342 H3326 0.931 . S
C3342 C3336 1.383 . S
C3342 C3341 1.379 . S
H3343 C3337 0.959 . S
H3344 C3337 0.961 . S
H3345 C3337 0.960 . S
H3346 C3338 0.930 . S
H3347 C3339 0.929 . S
H3348 C3356 0.929 . S
H3349 C3358 0.930 . S
H3350 C3360 0.930 . S
H3351 C3363 0.929 . S
H3352 C3366 0.930 . S
H3353 C3368 0.960 . S
H3354 C3368 0.960 . S
H3355 C3368 0.960 . S
C3356 H3348 0.929 . S
C3356 C3357 1.377 . S
C3356 C3358 1.384 . S
C3357 C3356 1.377 . S
C3357 C3363 1.390 . S
C3358 H3349 0.930 . S
C3358 C3356 1.384 . S
C3358 C3359 1.372 . S
C3359 C3358 1.372 . S
C3359 C3360 1.400 . S
C3359 C3364 1.490 . S
C3360 H3350 0.930 . S
C3360 C3359 1.400 . S
C3360 C3363 1.386 . S
H3361 C3377 0.930 . S
H3362 C3378 0.931 . S
C3363 H3351 0.929 . S
C3363 C3357 1.390 . S
C3363 C3360 1.386 . S
C3364 C3359 1.490 . S
C3364 C3366 1.395 . S
C3364 C3367 1.403 . S
H3365 C3371 0.930 . S
C3366 H3352 0.930 . S
C3366 C3364 1.395 . S
C3366 C3369 1.403 . S
C3367 C3364 1.403 . S
C3367 C3368 1.524 . S
C3367 C3371 1.400 . S
C3368 H3353 0.960 . S
C3368 H3354 0.960 . S
C3368 H3355 0.960 . S
C3368 C3367 1.524 . S
C3369 C3366 1.403 . S
C3369 C3370 1.392 . S
C3369 C3373 1.495 . S
C3370 C3369 1.392 . S
C3370 C3371 1.385 . S
C3370 C3372 1.478 . S
C3371 H3365 0.930 . S
C3371 C3367 1.400 . S
C3371 C3370 1.385 . S
C3372 C3370 1.478 . S
C3372 C3374 1.381 . S
C3372 C3378 1.383 . S
C3373 C3369 1.495 . S
C3373 H3379 0.959 . S
C3373 H3380 0.961 . S
C3373 H3381 0.960 . S
C3374 C3372 1.381 . S
C3374 C3375 1.394 . S
C3374 H3382 0.930 . S
C3375 C3374 1.394 . S
C3375 C3376 1.383 . S
C3375 H3383 0.929 . S
C3376 C3375 1.383 . S
C3376 C3377 1.377 . S
C3377 H3361 0.930 . S
C3377 C3376 1.377 . S
C3377 C3378 1.379 . S
C3378 H3362 0.931 . S
C3378 C3372 1.383 . S
C3378 C3377 1.379 . S
H3379 C3373 0.959 . S
H3380 C3373 0.961 . S
H3381 C3373 0.960 . S
H3382 C3374 0.930 . S
H3383 C3375 0.929 . S
H3384 C3392 0.929 . S
H3385 C3394 0.930 . S
H3386 C3396 0.930 . S
H3387 C3399 0.929 . S
H3388 C3402 0.930 . S
H3389 C3404 0.960 . S
H3390 C3404 0.960 . S
H3391 C3404 0.960 . S
C3392 H3384 0.929 . S
C3392 C3393 1.377 . S
C3392 C3394 1.384 . S
C3393 C3392 1.377 . S
C3393 C3399 1.390 . S
C3394 H3385 0.930 . S
C3394 C3392 1.384 . S
C3394 C3395 1.372 . S
C3395 C3394 1.372 . S
C3395 C3396 1.400 . S
C3395 C3400 1.490 . S
C3396 H3386 0.930 . S
C3396 C3395 1.400 . S
C3396 C3399 1.386 . S
H3397 C3413 0.930 . S
H3398 C3414 0.931 . S
C3399 H3387 0.929 . S
C3399 C3393 1.390 . S
C3399 C3396 1.386 . S
C3400 C3395 1.490 . S
C3400 C3402 1.395 . S
C3400 C3403 1.403 . S
H3401 C3407 0.930 . S
C3402 H3388 0.930 . S
C3402 C3400 1.395 . S
C3402 C3405 1.403 . S
C3403 C3400 1.403 . S
C3403 C3404 1.524 . S
C3403 C3407 1.400 . S
C3404 H3389 0.960 . S
C3404 H3390 0.960 . S
C3404 H3391 0.960 . S
C3404 C3403 1.524 . S
C3405 C3402 1.403 . S
C3405 C3406 1.392 . S
C3405 C3409 1.495 . S
C3406 C3405 1.392 . S
C3406 C3407 1.385 . S
C3406 C3408 1.478 . S
C3407 H3401 0.930 . S
C3407 C3403 1.400 . S
C3407 C3406 1.385 . S
C3408 C3406 1.478 . S
C3408 C3410 1.381 . S
C3408 C3414 1.383 . S
C3409 C3405 1.495 . S
C3409 H3415 0.959 . S
C3409 H3416 0.961 . S
C3409 H3417 0.960 . S
C3410 C3408 1.381 . S
C3410 C3411 1.394 . S
C3410 H3418 0.930 . S
C3411 C3410 1.394 . S
C3411 C3412 1.383 . S
C3411 H3419 0.929 . S
C3412 C3411 1.383 . S
C3412 C3413 1.377 . S
C3413 H3397 0.930 . S
C3413 C3412 1.377 . S
C3413 C3414 1.379 . S
C3414 H3398 0.931 . S
C3414 C3408 1.383 . S
C3414 C3413 1.379 . S
H3415 C3409 0.959 . S
H3416 C3409 0.961 . S
H3417 C3409 0.960 . S
H3418 C3410 0.930 . S
H3419 C3411 0.929 . S
H3420 C3428 0.929 . S
H3421 C3430 0.930 . S
H3422 C3432 0.930 . S
H3423 C3435 0.929 . S
H3424 C3438 0.930 . S
H3425 C3440 0.960 . S
H3426 C3440 0.960 . S
H3427 C3440 0.960 . S
C3428 H3420 0.929 . S
C3428 C3429 1.377 . S
C3428 C3430 1.384 . S
C3429 C3428 1.377 . S
C3429 C3435 1.390 . S
C3430 H3421 0.930 . S
C3430 C3428 1.384 . S
C3430 C3431 1.372 . S
C3431 C3430 1.372 . S
C3431 C3432 1.400 . S
C3431 C3436 1.490 . S
C3432 H3422 0.930 . S
C3432 C3431 1.400 . S
C3432 C3435 1.386 . S
H3433 C3449 0.930 . S
H3434 C3450 0.931 . S
C3435 H3423 0.929 . S
C3435 C3429 1.390 . S
C3435 C3432 1.386 . S
C3436 C3431 1.490 . S
C3436 C3438 1.395 . S
C3436 C3439 1.403 . S
H3437 C3443 0.930 . S
C3438 H3424 0.930 . S
C3438 C3436 1.395 . S
C3438 C3441 1.403 . S
C3439 C3436 1.403 . S
C3439 C3440 1.524 . S
C3439 C3443 1.400 . S
C3440 H3425 0.960 . S
C3440 H3426 0.960 . S
C3440 H3427 0.960 . S
C3440 C3439 1.524 . S
C3441 C3438 1.403 . S
C3441 C3442 1.392 . S
C3441 C3445 1.495 . S
C3442 C3441 1.392 . S
C3442 C3443 1.385 . S
C3442 C3444 1.478 . S
C3443 H3437 0.930 . S
C3443 C3439 1.400 . S
C3443 C3442 1.385 . S
C3444 C3442 1.478 . S
C3444 C3446 1.381 . S
C3444 C3450 1.383 . S
C3445 C3441 1.495 . S
C3445 H3451 0.959 . S
C3445 H3452 0.961 . S
C3445 H3453 0.960 . S
C3446 C3444 1.381 . S
C3446 C3447 1.394 . S
C3446 H3454 0.930 . S
C3447 C3446 1.394 . S
C3447 C3448 1.383 . S
C3447 H3455 0.929 . S
C3448 C3447 1.383 . S
C3448 C3449 1.377 . S
C3449 H3433 0.930 . S
C3449 C3448 1.377 . S
C3449 C3450 1.379 . S
C3450 H3434 0.931 . S
C3450 C3444 1.383 . S
C3450 C3449 1.379 . S
H3451 C3445 0.959 . S
H3452 C3445 0.961 . S
H3453 C3445 0.960 . S
H3454 C3446 0.930 . S
H3455 C3447 0.929 . S
H3456 C3464 0.930 . S
H3457 C3466 0.900 1_655 S
H3458 C3468 0.930 . S
H3459 C3471 0.929 . S
H3460 C3474 0.930 . S
H3461 C3476 0.960 . S
H3462 C3476 0.960 . S
H3463 C3476 0.960 . S
C3464 H3456 0.930 . S
C3464 C3465 1.376 1_655 S
C3464 C3466 1.397 1_655 S
C3465 C3464 1.376 1_455 S
C3465 C3471 1.390 . S
C3466 H3457 0.900 1_455 S
C3466 C3464 1.397 1_455 S
C3466 C3467 1.394 . S
C3467 C3466 1.394 . S
C3467 C3468 1.400 . S
C3467 C3472 1.490 . S
C3468 H3458 0.930 . S
C3468 C3467 1.400 . S
C3468 C3471 1.386 . S
H3469 C3485 0.930 . S
H3470 C3486 0.931 . S
C3471 H3459 0.929 . S
C3471 C3465 1.390 . S
C3471 C3468 1.386 . S
C3472 C3467 1.490 . S
C3472 C3474 1.395 1_455 S
C3472 C3475 1.403 . S
H3473 C3479 0.930 . S
C3474 H3460 0.930 . S
C3474 C3472 1.395 1_655 S
C3474 C3477 1.403 . S
C3475 C3472 1.403 . S
C3475 C3476 1.524 . S
C3475 C3479 1.400 . S
C3476 H3461 0.960 . S
C3476 H3462 0.960 . S
C3476 H3463 0.960 . S
C3476 C3475 1.524 . S
C3477 C3474 1.403 . S
C3477 C3478 1.392 1_655 S
C3477 C3481 1.495 . S
C3478 C3477 1.392 1_455 S
C3478 C3479 1.385 . S
C3478 C3480 1.478 . S
C3479 H3473 0.930 . S
C3479 C3475 1.400 . S
C3479 C3478 1.385 . S
C3480 C3478 1.478 . S
C3480 C3482 1.381 . S
C3480 C3486 1.383 1_556 S
C3481 C3477 1.495 . S
C3481 H3487 0.959 . S
C3481 H3488 1.002 . S
C3481 H3489 0.960 . S
C3482 C3480 1.381 . S
C3482 C3483 1.394 . S
C3482 H3490 0.930 . S
C3483 C3482 1.394 . S
C3483 C3484 1.383 1_556 S
C3483 H3491 0.929 . S
C3484 C3483 1.383 1_554 S
C3484 C3485 1.377 . S
C3485 H3469 0.930 . S
C3485 C3484 1.377 . S
C3485 C3486 1.379 . S
C3486 H3470 0.931 . S
C3486 C3480 1.383 1_554 S
C3486 C3485 1.379 . S
H3487 C3481 0.959 . S
H3488 C3481 1.002 . S
H3489 C3481 0.960 . S
H3490 C3482 0.930 . S
H3491 C3483 0.929 . S
H3492 C3500 0.929 . S
H3493 C3502 0.930 . S
H3494 C3504 0.930 . S
H3495 C3507 0.929 . S
H3496 C3510 0.930 . S
H3497 C3512 0.960 . S
H3498 C3512 0.960 . S
H3499 C3512 0.960 . S
C3500 H3492 0.929 . S
C3500 C3501 1.377 . S
C3500 C3502 1.384 . S
C3501 C3500 1.377 . S
C3501 C3507 1.390 . S
C3502 H3493 0.930 . S
C3502 C3500 1.384 . S
C3502 C3503 1.372 . S
C3503 C3502 1.372 . S
C3503 C3504 1.400 . S
C3503 C3508 1.490 . S
C3504 H3494 0.930 . S
C3504 C3503 1.400 . S
C3504 C3507 1.386 . S
H3505 C3521 0.930 . S
H3506 C3522 0.931 . S
C3507 H3495 0.929 . S
C3507 C3501 1.390 . S
C3507 C3504 1.386 . S
C3508 C3503 1.490 . S
C3508 C3510 1.395 . S
C3508 C3511 1.403 . S
H3509 C3515 0.930 . S
C3510 H3496 0.930 . S
C3510 C3508 1.395 . S
C3510 C3513 1.403 . S
C3511 C3508 1.403 . S
C3511 C3512 1.524 . S
C3511 C3515 1.400 . S
C3512 H3497 0.960 . S
C3512 H3498 0.960 . S
C3512 H3499 0.960 . S
C3512 C3511 1.524 . S
C3513 C3510 1.403 . S
C3513 C3514 1.392 . S
C3513 C3517 1.495 . S
C3514 C3513 1.392 . S
C3514 C3515 1.385 . S
C3514 C3516 1.478 . S
C3515 H3509 0.930 . S
C3515 C3511 1.400 . S
C3515 C3514 1.385 . S
C3516 C3514 1.478 . S
C3516 C3518 1.381 . S
C3516 C3522 1.383 . S
C3517 C3513 1.495 . S
C3517 H3523 0.959 . S
C3517 H3524 0.961 . S
C3517 H3525 0.960 . S
C3518 C3516 1.381 . S
C3518 C3519 1.394 . S
C3518 H3526 0.930 . S
C3519 C3518 1.394 . S
C3519 C3520 1.383 . S
C3519 H3527 0.929 . S
C3520 C3519 1.383 . S
C3520 C3521 1.377 . S
C3521 H3505 0.930 . S
C3521 C3520 1.377 . S
C3521 C3522 1.379 . S
C3522 H3506 0.931 . S
C3522 C3516 1.383 . S
C3522 C3521 1.379 . S
H3523 C3517 0.959 . S
H3524 C3517 0.961 . S
H3525 C3517 0.960 . S
H3526 C3518 0.930 . S
H3527 C3519 0.929 . S
H3528 C3536 0.929 . S
H3529 C3538 0.930 . S
H3530 C3540 0.930 . S
H3531 C3543 0.929 . S
H3532 C3546 0.930 . S
H3533 C3548 0.960 . S
H3534 C3548 0.960 . S
H3535 C3548 0.960 . S
C3536 H3528 0.929 . S
C3536 C3537 1.377 . S
C3536 C3538 1.384 . S
C3537 C3536 1.377 . S
C3537 C3543 1.390 . S
C3538 H3529 0.930 . S
C3538 C3536 1.384 . S
C3538 C3539 1.372 . S
C3539 C3538 1.372 . S
C3539 C3540 1.400 . S
C3539 C3544 1.490 . S
C3540 H3530 0.930 . S
C3540 C3539 1.400 . S
C3540 C3543 1.386 . S
H3541 C3557 0.930 . S
H3542 C3558 0.931 . S
C3543 H3531 0.929 . S
C3543 C3537 1.390 . S
C3543 C3540 1.386 . S
C3544 C3539 1.490 . S
C3544 C3546 1.395 . S
C3544 C3547 1.403 . S
H3545 C3551 0.930 . S
C3546 H3532 0.930 . S
C3546 C3544 1.395 . S
C3546 C3549 1.403 . S
C3547 C3544 1.403 . S
C3547 C3548 1.524 . S
C3547 C3551 1.400 . S
C3548 H3533 0.960 . S
C3548 H3534 0.960 . S
C3548 H3535 0.960 . S
C3548 C3547 1.524 . S
C3549 C3546 1.403 . S
C3549 C3550 1.392 . S
C3549 C3553 1.495 . S
C3550 C3549 1.392 . S
C3550 C3551 1.385 . S
C3550 C3552 1.478 . S
C3551 H3545 0.930 . S
C3551 C3547 1.400 . S
C3551 C3550 1.385 . S
C3552 C3550 1.478 . S
C3552 C3554 1.381 . S
C3552 C3558 1.383 . S
C3553 C3549 1.495 . S
C3553 H3559 0.959 . S
C3553 H3560 0.961 . S
C3553 H3561 0.960 . S
C3554 C3552 1.381 . S
C3554 C3555 1.394 . S
C3554 H3562 0.930 . S
C3555 C3554 1.394 . S
C3555 C3556 1.383 . S
C3555 H3563 0.929 . S
C3556 C3555 1.383 . S
C3556 C3557 1.377 . S
C3557 H3541 0.930 . S
C3557 C3556 1.377 . S
C3557 C3558 1.379 . S
C3558 H3542 0.931 . S
C3558 C3552 1.383 . S
C3558 C3557 1.379 . S
H3559 C3553 0.959 . S
H3560 C3553 0.961 . S
H3561 C3553 0.960 . S
H3562 C3554 0.930 . S
H3563 C3555 0.929 . S
H3564 C3572 0.929 . S
H3565 C3574 0.930 . S
H3566 C3576 0.930 . S
H3567 C3579 0.929 . S
H3568 C3582 0.930 . S
H3569 C3584 0.960 . S
H3570 C3584 0.960 . S
H3571 C3584 0.960 . S
C3572 H3564 0.929 . S
C3572 C3573 1.377 . S
C3572 C3574 1.384 . S
C3573 C3572 1.377 . S
C3573 C3579 1.390 . S
C3574 H3565 0.930 . S
C3574 C3572 1.384 . S
C3574 C3575 1.372 . S
C3575 C3574 1.372 . S
C3575 C3576 1.400 . S
C3575 C3580 1.490 . S
C3576 H3566 0.930 . S
C3576 C3575 1.400 . S
C3576 C3579 1.386 . S
H3577 C3593 0.930 . S
H3578 C3594 0.931 . S
C3579 H3567 0.929 . S
C3579 C3573 1.390 . S
C3579 C3576 1.386 . S
C3580 C3575 1.490 . S
C3580 C3582 1.395 . S
C3580 C3583 1.403 . S
H3581 C3587 0.930 . S
C3582 H3568 0.930 . S
C3582 C3580 1.395 . S
C3582 C3585 1.403 . S
C3583 C3580 1.403 . S
C3583 C3584 1.524 . S
C3583 C3587 1.400 . S
C3584 H3569 0.960 . S
C3584 H3570 0.960 . S
C3584 H3571 0.960 . S
C3584 C3583 1.524 . S
C3585 C3582 1.403 . S
C3585 C3586 1.392 . S
C3585 C3589 1.495 . S
C3586 C3585 1.392 . S
C3586 C3587 1.385 . S
C3586 C3588 1.478 . S
C3587 H3581 0.930 . S
C3587 C3583 1.400 . S
C3587 C3586 1.385 . S
C3588 C3586 1.478 . S
C3588 C3590 1.381 . S
C3588 C3594 1.383 . S
C3589 C3585 1.495 . S
C3589 H3595 0.959 . S
C3589 H3596 0.961 . S
C3589 H3597 0.960 . S
C3590 C3588 1.381 . S
C3590 C3591 1.394 . S
C3590 H3598 0.930 . S
C3591 C3590 1.394 . S
C3591 C3592 1.383 . S
C3591 H3599 0.929 . S
C3592 C3591 1.383 . S
C3592 C3593 1.377 . S
C3593 H3577 0.930 . S
C3593 C3592 1.377 . S
C3593 C3594 1.379 . S
C3594 H3578 0.931 . S
C3594 C3588 1.383 . S
C3594 C3593 1.379 . S
H3595 C3589 0.959 . S
H3596 C3589 0.961 . S
H3597 C3589 0.960 . S
H3598 C3590 0.930 . S
H3599 C3591 0.929 . S
H3600 C3608 0.929 . S
H3601 C3610 0.930 . S
H3602 C3612 0.935 . S
H3603 C3615 0.929 1_655 S
H3604 C3618 0.930 . S
H3605 C3620 0.960 . S
H3606 C3620 0.960 . S
H3607 C3620 0.960 . S
C3608 H3600 0.929 . S
C3608 C3609 1.377 . S
C3608 C3610 1.384 . S
C3609 C3608 1.377 . S
C3609 C3615 1.390 . S
C3610 H3601 0.930 . S
C3610 C3608 1.384 . S
C3610 C3611 1.372 . S
C3611 C3610 1.372 . S
C3611 C3612 1.400 . S
C3611 C3616 1.490 . S
C3612 H3602 0.935 . S
C3612 C3611 1.400 . S
C3612 C3615 1.386 . S
H3613 C3629 0.930 . S
H3614 C3630 0.931 . S
C3615 H3603 0.929 1_455 S
C3615 C3609 1.390 . S
C3615 C3612 1.386 . S
C3616 C3611 1.490 . S
C3616 C3618 1.395 . S
C3616 C3619 1.399 . S
H3617 C3623 0.930 1_655 S
C3618 H3604 0.930 . S
C3618 C3616 1.395 . S
C3618 C3621 1.403 . S
C3619 C3616 1.399 . S
C3619 C3620 1.529 1_455 S
C3619 C3623 1.398 . S
C3620 H3605 0.960 . S
C3620 H3606 0.960 . S
C3620 H3607 0.960 . S
C3620 C3619 1.529 1_655 S
C3621 C3618 1.403 . S
C3621 C3622 1.392 . S
C3621 C3625 1.495 . S
C3622 C3621 1.392 . S
C3622 C3623 1.385 . S
C3622 C3624 1.478 . S
C3623 H3617 0.930 1_455 S
C3623 C3619 1.398 . S
C3623 C3622 1.385 . S
C3624 C3622 1.478 . S
C3624 C3626 1.381 . S
C3624 C3630 1.383 . S
C3625 C3621 1.495 . S
C3625 H3631 0.959 . S
C3625 H3632 0.961 . S
C3625 H3633 0.960 . S
C3626 C3624 1.381 . S
C3626 C3627 1.394 . S
C3626 H3634 0.930 . S
C3627 C3626 1.394 . S
C3627 C3628 1.383 . S
C3627 H3635 0.929 . S
C3628 C3627 1.383 . S
C3628 C3629 1.377 . S
C3629 H3613 0.930 . S
C3629 C3628 1.377 . S
C3629 C3630 1.379 . S
C3630 H3614 0.931 . S
C3630 C3624 1.383 . S
C3630 C3629 1.379 . S
H3631 C3625 0.959 . S
H3632 C3625 0.961 . S
H3633 C3625 0.960 . S
H3634 C3626 0.930 . S
H3635 C3627 0.929 . S
H3636 C3644 0.929 . S
H3637 C3646 0.930 . S
H3638 C3648 0.930 . S
H3639 C3651 0.929 . S
H3640 C3654 0.930 . S
H3641 C3656 0.960 . S
H3642 C3656 0.960 . S
H3643 C3656 0.960 . S
C3644 H3636 0.929 . S
C3644 C3645 1.377 . S
C3644 C3646 1.384 . S
C3645 C3644 1.377 . S
C3645 C3651 1.390 . S
C3646 H3637 0.930 . S
C3646 C3644 1.384 . S
C3646 C3647 1.372 . S
C3647 C3646 1.372 . S
C3647 C3648 1.400 . S
C3647 C3652 1.490 . S
C3648 H3638 0.930 . S
C3648 C3647 1.400 . S
C3648 C3651 1.386 . S
H3649 C3665 0.930 . S
H3650 C3666 0.931 . S
C3651 H3639 0.929 . S
C3651 C3645 1.390 . S
C3651 C3648 1.386 . S
C3652 C3647 1.490 . S
C3652 C3654 1.395 . S
C3652 C3655 1.403 . S
H3653 C3659 0.930 . S
C3654 H3640 0.930 . S
C3654 C3652 1.395 . S
C3654 C3657 1.403 . S
C3655 C3652 1.403 . S
C3655 C3656 1.524 . S
C3655 C3659 1.400 . S
C3656 H3641 0.960 . S
C3656 H3642 0.960 . S
C3656 H3643 0.960 . S
C3656 C3655 1.524 . S
C3657 C3654 1.403 . S
C3657 C3658 1.392 . S
C3657 C3661 1.495 . S
C3658 C3657 1.392 . S
C3658 C3659 1.385 . S
C3658 C3660 1.478 . S
C3659 H3653 0.930 . S
C3659 C3655 1.400 . S
C3659 C3658 1.385 . S
C3660 C3658 1.478 . S
C3660 C3662 1.381 . S
C3660 C3666 1.383 . S
C3661 C3657 1.495 . S
C3661 H3667 0.959 . S
C3661 H3668 0.961 . S
C3661 H3669 0.960 . S
C3662 C3660 1.381 . S
C3662 C3663 1.394 . S
C3662 H3670 0.930 . S
C3663 C3662 1.394 . S
C3663 C3664 1.383 . S
C3663 H3671 0.929 . S
C3664 C3663 1.383 . S
C3664 C3665 1.377 . S
C3665 H3649 0.930 . S
C3665 C3664 1.377 . S
C3665 C3666 1.379 . S
C3666 H3650 0.931 . S
C3666 C3660 1.383 . S
C3666 C3665 1.379 . S
H3667 C3661 0.959 . S
H3668 C3661 0.961 . S
H3669 C3661 0.960 . S
H3670 C3662 0.930 . S
H3671 C3663 0.929 . S
H3672 C3680 0.929 . S
H3673 C3682 0.930 . S
H3674 C3684 0.930 . S
H3675 C3687 0.929 . S
H3676 C3690 0.930 . S
H3677 C3692 0.960 . S
H3678 C3692 0.960 . S
H3679 C3692 0.960 . S
C3680 H3672 0.929 . S
C3680 C3681 1.377 . S
C3680 C3682 1.384 . S
C3681 C3680 1.377 . S
C3681 C3687 1.390 . S
C3682 H3673 0.930 . S
C3682 C3680 1.384 . S
C3682 C3683 1.372 . S
C3683 C3682 1.372 . S
C3683 C3684 1.400 . S
C3683 C3688 1.490 . S
C3684 H3674 0.930 . S
C3684 C3683 1.400 . S
C3684 C3687 1.386 . S
H3685 C3701 0.930 . S
H3686 C3702 0.931 . S
C3687 H3675 0.929 . S
C3687 C3681 1.390 . S
C3687 C3684 1.386 . S
C3688 C3683 1.490 . S
C3688 C3690 1.395 . S
C3688 C3691 1.403 . S
H3689 C3695 0.930 . S
C3690 H3676 0.930 . S
C3690 C3688 1.395 . S
C3690 C3693 1.403 . S
C3691 C3688 1.403 . S
C3691 C3692 1.524 . S
C3691 C3695 1.400 . S
C3692 H3677 0.960 . S
C3692 H3678 0.960 . S
C3692 H3679 0.960 . S
C3692 C3691 1.524 . S
C3693 C3690 1.403 . S
C3693 C3694 1.392 . S
C3693 C3697 1.495 . S
C3694 C3693 1.392 . S
C3694 C3695 1.385 . S
C3694 C3696 1.478 . S
C3695 H3689 0.930 . S
C3695 C3691 1.400 . S
C3695 C3694 1.385 . S
C3696 C3694 1.478 . S
C3696 C3698 1.381 . S
C3696 C3702 1.383 . S
C3697 C3693 1.495 . S
C3697 H3703 0.959 . S
C3697 H3704 0.961 . S
C3697 H3705 0.960 . S
C3698 C3696 1.381 . S
C3698 C3699 1.394 . S
C3698 H3706 0.930 . S
C3699 C3698 1.394 . S
C3699 C3700 1.383 . S
C3699 H3707 0.929 . S
C3700 C3699 1.383 . S
C3700 C3701 1.377 . S
C3701 H3685 0.930 . S
C3701 C3700 1.377 . S
C3701 C3702 1.379 . S
C3702 H3686 0.931 . S
C3702 C3696 1.383 . S
C3702 C3701 1.379 . S
H3703 C3697 0.959 . S
H3704 C3697 0.961 . S
H3705 C3697 0.960 . S
H3706 C3698 0.930 . S
H3707 C3699 0.929 . S
H3708 C3716 0.929 . S
H3709 C3718 0.930 . S
H3710 C3720 0.930 . S
H3711 C3723 0.929 . S
H3712 C3726 0.930 . S
H3713 C3728 0.960 . S
H3714 C3728 0.960 . S
H3715 C3728 0.960 . S
C3716 H3708 0.929 . S
C3716 C3717 1.377 . S
C3716 C3718 1.384 1_554 S
C3717 C3716 1.377 . S
C3717 C3723 1.390 1_554 S
C3718 H3709 0.930 . S
C3718 C3716 1.384 1_556 S
C3718 C3719 1.372 . S
C3719 C3718 1.372 . S
C3719 C3720 1.400 . S
C3719 C3724 1.490 . S
C3720 H3710 0.930 . S
C3720 C3719 1.400 . S
C3720 C3723 1.386 . S
H3721 C3737 0.930 . S
H3722 C3738 0.931 . S
C3723 H3711 0.929 . S
C3723 C3717 1.390 1_556 S
C3723 C3720 1.386 . S
C3724 C3719 1.490 . S
C3724 C3726 1.395 . S
C3724 C3727 1.403 . S
H3725 C3731 0.930 . S
C3726 H3712 0.930 . S
C3726 C3724 1.395 . S
C3726 C3729 1.403 . S
C3727 C3724 1.403 . S
C3727 C3728 1.524 . S
C3727 C3731 1.400 . S
C3728 H3713 0.960 . S
C3728 H3714 0.960 . S
C3728 H3715 0.960 . S
C3728 C3727 1.524 . S
C3729 C3726 1.403 . S
C3729 C3730 1.392 . S
C3729 C3733 1.495 . S
C3730 C3729 1.392 . S
C3730 C3731 1.385 . S
C3730 C3732 1.478 . S
C3731 H3725 0.930 . S
C3731 C3727 1.400 . S
C3731 C3730 1.385 . S
C3732 C3730 1.478 . S
C3732 C3734 1.381 . S
C3732 C3738 1.383 . S
C3733 C3729 1.495 . S
C3733 H3739 0.959 . S
C3733 H3740 0.961 . S
C3733 H3741 0.960 . S
C3734 C3732 1.381 . S
C3734 C3735 1.394 . S
C3734 H3742 0.930 . S
C3735 C3734 1.394 . S
C3735 C3736 1.383 . S
C3735 H3743 0.929 . S
C3736 C3735 1.383 . S
C3736 C3737 1.377 . S
C3737 H3721 0.930 . S
C3737 C3736 1.377 . S
C3737 C3738 1.379 . S
C3738 H3722 0.931 . S
C3738 C3732 1.383 . S
C3738 C3737 1.379 . S
H3739 C3733 0.959 . S
H3740 C3733 0.961 . S
H3741 C3733 0.960 . S
H3742 C3734 0.930 . S
H3743 C3735 0.929 . S
H3744 C3752 0.929 . S
H3745 C3754 0.930 . S
H3746 C3756 0.930 . S
H3747 C3759 0.929 . S
H3748 C3762 0.930 . S
H3749 C3764 0.960 . S
H3750 C3764 0.960 . S
H3751 C3764 0.960 . S
C3752 H3744 0.929 . S
C3752 C3753 1.377 . S
C3752 C3754 1.384 . S
C3753 C3752 1.377 . S
C3753 C3759 1.390 . S
C3754 H3745 0.930 . S
C3754 C3752 1.384 . S
C3754 C3755 1.372 . S
C3755 C3754 1.372 . S
C3755 C3756 1.400 . S
C3755 C3760 1.490 . S
C3756 H3746 0.930 . S
C3756 C3755 1.400 . S
C3756 C3759 1.386 . S
H3757 C3773 0.930 . S
H3758 C3774 0.931 . S
C3759 H3747 0.929 . S
C3759 C3753 1.390 . S
C3759 C3756 1.386 . S
C3760 C3755 1.490 . S
C3760 C3762 1.395 . S
C3760 C3763 1.403 . S
H3761 C3767 0.930 . S
C3762 H3748 0.930 . S
C3762 C3760 1.395 . S
C3762 C3765 1.403 . S
C3763 C3760 1.403 . S
C3763 C3764 1.524 . S
C3763 C3767 1.400 . S
C3764 H3749 0.960 . S
C3764 H3750 0.960 . S
C3764 H3751 0.960 . S
C3764 C3763 1.524 . S
C3765 C3762 1.403 . S
C3765 C3766 1.392 . S
C3765 C3769 1.495 . S
C3766 C3765 1.392 . S
C3766 C3767 1.385 . S
C3766 C3768 1.478 . S
C3767 H3761 0.930 . S
C3767 C3763 1.400 . S
C3767 C3766 1.385 . S
C3768 C3766 1.478 . S
C3768 C3770 1.381 . S
C3768 C3774 1.383 . S
C3769 C3765 1.495 . S
C3769 H3775 0.959 . S
C3769 H3776 0.961 . S
C3769 H3777 0.960 . S
C3770 C3768 1.381 . S
C3770 C3771 1.394 . S
C3770 H3778 0.930 . S
C3771 C3770 1.394 . S
C3771 C3772 1.383 . S
C3771 H3779 0.929 . S
C3772 C3771 1.383 . S
C3772 C3773 1.377 . S
C3773 H3757 0.930 . S
C3773 C3772 1.377 . S
C3773 C3774 1.379 . S
C3774 H3758 0.931 . S
C3774 C3768 1.383 . S
C3774 C3773 1.379 . S
H3775 C3769 0.959 . S
H3776 C3769 0.961 . S
H3777 C3769 0.960 . S
H3778 C3770 0.930 . S
H3779 C3771 0.929 . S
H3780 C3788 0.929 . S
H3781 C3790 0.930 . S
H3782 C3792 0.930 . S
H3783 C3795 0.929 . S
H3784 C3798 0.930 . S
H3785 C3800 0.960 . S
H3786 C3800 0.960 . S
H3787 C3800 0.960 . S
C3788 H3780 0.929 . S
C3788 C3789 1.377 . S
C3788 C3790 1.384 . S
C3789 C3788 1.377 . S
C3789 C3795 1.390 . S
C3790 H3781 0.930 . S
C3790 C3788 1.384 . S
C3790 C3791 1.372 . S
C3791 C3790 1.372 . S
C3791 C3792 1.400 . S
C3791 C3796 1.490 . S
C3792 H3782 0.930 . S
C3792 C3791 1.400 . S
C3792 C3795 1.386 . S
H3793 C3809 0.930 . S
H3794 C3810 0.931 . S
C3795 H3783 0.929 . S
C3795 C3789 1.390 . S
C3795 C3792 1.386 . S
C3796 C3791 1.490 . S
C3796 C3798 1.395 . S
C3796 C3799 1.403 . S
H3797 C3803 0.930 . S
C3798 H3784 0.930 . S
C3798 C3796 1.395 . S
C3798 C3801 1.403 . S
C3799 C3796 1.403 . S
C3799 C3800 1.524 . S
C3799 C3803 1.400 . S
C3800 H3785 0.960 . S
C3800 H3786 0.960 . S
C3800 H3787 0.960 . S
C3800 C3799 1.524 . S
C3801 C3798 1.403 . S
C3801 C3802 1.392 . S
C3801 C3805 1.495 . S
C3802 C3801 1.392 . S
C3802 C3803 1.385 . S
C3802 C3804 1.478 . S
C3803 H3797 0.930 . S
C3803 C3799 1.400 . S
C3803 C3802 1.385 . S
C3804 C3802 1.478 . S
C3804 C3806 1.381 . S
C3804 C3810 1.383 . S
C3805 C3801 1.495 . S
C3805 H3811 0.959 . S
C3805 H3812 0.961 . S
C3805 H3813 0.960 . S
C3806 C3804 1.381 . S
C3806 C3807 1.394 . S
C3806 H3814 0.930 . S
C3807 C3806 1.394 . S
C3807 C3808 1.383 . S
C3807 H3815 0.929 . S
C3808 C3807 1.383 . S
C3808 C3809 1.377 . S
C3809 H3793 0.930 . S
C3809 C3808 1.377 . S
C3809 C3810 1.379 . S
C3810 H3794 0.931 . S
C3810 C3804 1.383 . S
C3810 C3809 1.379 . S
H3811 C3805 0.959 . S
H3812 C3805 0.961 . S
H3813 C3805 0.960 . S
H3814 C3806 0.930 . S
H3815 C3807 0.929 . S
H3816 C3824 0.929 . S
H3817 C3826 0.930 . S
H3818 C3828 0.930 . S
H3819 C3831 0.929 . S
H3820 C3834 0.930 . S
H3821 C3836 0.960 . S
H3822 C3836 0.960 . S
H3823 C3836 0.960 . S
C3824 H3816 0.929 . S
C3824 C3825 1.377 . S
C3824 C3826 1.384 . S
C3825 C3824 1.377 . S
C3825 C3831 1.390 . S
C3826 H3817 0.930 . S
C3826 C3824 1.384 . S
C3826 C3827 1.372 . S
C3827 C3826 1.372 . S
C3827 C3828 1.400 . S
C3827 C3832 1.490 . S
C3828 H3818 0.930 . S
C3828 C3827 1.400 . S
C3828 C3831 1.386 . S
H3829 C3845 0.930 . S
H3830 C3846 0.931 . S
C3831 H3819 0.929 . S
C3831 C3825 1.390 . S
C3831 C3828 1.386 . S
C3832 C3827 1.490 . S
C3832 C3834 1.395 . S
C3832 C3835 1.403 . S
H3833 C3839 0.930 . S
C3834 H3820 0.930 . S
C3834 C3832 1.395 . S
C3834 C3837 1.403 . S
C3835 C3832 1.403 . S
C3835 C3836 1.524 . S
C3835 C3839 1.400 . S
C3836 H3821 0.960 . S
C3836 H3822 0.960 . S
C3836 H3823 0.960 . S
C3836 C3835 1.524 . S
C3837 C3834 1.403 . S
C3837 C3838 1.392 . S
C3837 C3841 1.495 . S
C3838 C3837 1.392 . S
C3838 C3839 1.385 . S
C3838 C3840 1.478 . S
C3839 H3833 0.930 . S
C3839 C3835 1.400 . S
C3839 C3838 1.385 . S
C3840 C3838 1.478 . S
C3840 C3842 1.381 . S
C3840 C3846 1.383 . S
C3841 C3837 1.495 . S
C3841 H3847 0.959 . S
C3841 H3848 0.961 . S
C3841 H3849 0.960 . S
C3842 C3840 1.381 . S
C3842 C3843 1.394 . S
C3842 H3850 0.930 . S
C3843 C3842 1.394 . S
C3843 C3844 1.383 . S
C3843 H3851 0.929 . S
C3844 C3843 1.383 . S
C3844 C3845 1.377 . S
C3845 H3829 0.930 . S
C3845 C3844 1.377 . S
C3845 C3846 1.379 . S
C3846 H3830 0.931 . S
C3846 C3840 1.383 . S
C3846 C3845 1.379 . S
H3847 C3841 0.959 . S
H3848 C3841 0.961 . S
H3849 C3841 0.960 . S
H3850 C3842 0.930 . S
H3851 C3843 0.929 . S
H3852 C3860 0.929 . S
H3853 C3862 0.930 . S
H3854 C3864 0.930 . S
H3855 C3867 0.929 . S
H3856 C3870 0.930 . S
H3857 C3872 0.960 . S
H3858 C3872 0.960 . S
H3859 C3872 0.960 . S
C3860 H3852 0.929 . S
C3860 C3861 1.377 . S
C3860 C3862 1.384 . S
C3861 C3860 1.377 . S
C3861 C3867 1.390 . S
C3862 H3853 0.930 . S
C3862 C3860 1.384 . S
C3862 C3863 1.372 . S
C3863 C3862 1.372 . S
C3863 C3864 1.400 . S
C3863 C3868 1.490 . S
C3864 H3854 0.930 . S
C3864 C3863 1.400 . S
C3864 C3867 1.386 . S
H3865 C3881 0.930 . S
H3866 C3882 0.931 . S
C3867 H3855 0.929 . S
C3867 C3861 1.390 . S
C3867 C3864 1.386 . S
C3868 C3863 1.490 . S
C3868 C3870 1.395 . S
C3868 C3871 1.403 . S
H3869 C3875 0.930 . S
C3870 H3856 0.930 . S
C3870 C3868 1.395 . S
C3870 C3873 1.403 . S
C3871 C3868 1.403 . S
C3871 C3872 1.524 . S
C3871 C3875 1.400 . S
C3872 H3857 0.960 . S
C3872 H3858 0.960 . S
C3872 H3859 0.960 . S
C3872 C3871 1.524 . S
C3873 C3870 1.403 . S
C3873 C3874 1.392 . S
C3873 C3877 1.495 . S
C3874 C3873 1.392 . S
C3874 C3875 1.385 . S
C3874 C3876 1.478 . S
C3875 H3869 0.930 . S
C3875 C3871 1.400 . S
C3875 C3874 1.385 . S
C3876 C3874 1.478 . S
C3876 C3878 1.381 . S
C3876 C3882 1.383 . S
C3877 C3873 1.495 . S
C3877 H3883 0.959 . S
C3877 H3884 0.961 . S
C3877 H3885 0.960 . S
C3878 C3876 1.381 . S
C3878 C3879 1.394 . S
C3878 H3886 0.930 . S
C3879 C3878 1.394 . S
C3879 C3880 1.383 . S
C3879 H3887 0.929 . S
C3880 C3879 1.383 . S
C3880 C3881 1.377 . S
C3881 H3865 0.930 . S
C3881 C3880 1.377 . S
C3881 C3882 1.379 . S
C3882 H3866 0.931 . S
C3882 C3876 1.383 . S
C3882 C3881 1.379 . S
H3883 C3877 0.959 . S
H3884 C3877 0.961 . S
H3885 C3877 0.960 . S
H3886 C3878 0.930 . S
H3887 C3879 0.929 . S
H3888 C3896 0.929 . S
H3889 C3898 0.930 . S
H3890 C3900 0.930 . S
H3891 C3903 0.929 . S
H3892 C3906 0.930 . S
H3893 C3908 0.960 . S
H3894 C3908 0.960 . S
H3895 C3908 0.960 . S
C3896 H3888 0.929 . S
C3896 C3897 1.377 . S
C3896 C3898 1.384 . S
C3897 C3896 1.377 . S
C3897 C3903 1.390 . S
C3898 H3889 0.930 . S
C3898 C3896 1.384 . S
C3898 C3899 1.372 . S
C3899 C3898 1.372 . S
C3899 C3900 1.400 . S
C3899 C3904 1.490 . S
C3900 H3890 0.930 . S
C3900 C3899 1.400 . S
C3900 C3903 1.386 . S
H3901 C3917 0.930 . S
H3902 C3918 0.931 . S
C3903 H3891 0.929 . S
C3903 C3897 1.390 . S
C3903 C3900 1.386 . S
C3904 C3899 1.490 . S
C3904 C3906 1.395 . S
C3904 C3907 1.403 . S
H3905 C3911 0.930 . S
C3906 H3892 0.930 . S
C3906 C3904 1.395 . S
C3906 C3909 1.403 . S
C3907 C3904 1.403 . S
C3907 C3908 1.524 . S
C3907 C3911 1.400 . S
C3908 H3893 0.960 . S
C3908 H3894 0.960 . S
C3908 H3895 0.960 . S
C3908 C3907 1.524 . S
C3909 C3906 1.403 . S
C3909 C3910 1.392 . S
C3909 C3913 1.495 . S
C3910 C3909 1.392 . S
C3910 C3911 1.385 . S
C3910 C3912 1.478 . S
C3911 H3905 0.930 . S
C3911 C3907 1.400 . S
C3911 C3910 1.385 . S
C3912 C3910 1.478 . S
C3912 C3914 1.381 . S
C3912 C3918 1.383 . S
C3913 C3909 1.495 . S
C3913 H3919 0.959 . S
C3913 H3920 0.961 . S
C3913 H3921 0.960 . S
C3914 C3912 1.381 . S
C3914 C3915 1.394 . S
C3914 H3922 0.930 . S
C3915 C3914 1.394 . S
C3915 C3916 1.383 . S
C3915 H3923 0.929 . S
C3916 C3915 1.383 . S
C3916 C3917 1.377 . S
C3917 H3901 0.930 . S
C3917 C3916 1.377 . S
C3917 C3918 1.379 . S
C3918 H3902 0.931 . S
C3918 C3912 1.383 . S
C3918 C3917 1.379 . S
H3919 C3913 0.959 . S
H3920 C3913 0.961 . S
H3921 C3913 0.960 . S
H3922 C3914 0.930 . S
H3923 C3915 0.929 . S
H3924 C3932 0.929 . S
H3925 C3934 0.930 . S
H3926 C3936 0.930 . S
H3927 C3939 0.929 . S
H3928 C3942 0.930 . S
H3929 C3944 0.960 . S
H3930 C3944 0.960 . S
H3931 C3944 0.960 . S
C3932 H3924 0.929 . S
C3932 C3933 1.377 . S
C3932 C3934 1.384 . S
C3933 C3932 1.377 . S
C3933 C3939 1.390 . S
C3934 H3925 0.930 . S
C3934 C3932 1.384 . S
C3934 C3935 1.372 . S
C3935 C3934 1.372 . S
C3935 C3936 1.400 . S
C3935 C3940 1.490 . S
C3936 H3926 0.930 . S
C3936 C3935 1.400 . S
C3936 C3939 1.386 . S
H3937 C3953 0.930 . S
H3938 C3954 0.931 . S
C3939 H3927 0.929 . S
C3939 C3933 1.390 . S
C3939 C3936 1.386 . S
C3940 C3935 1.490 . S
C3940 C3942 1.395 . S
C3940 C3943 1.403 . S
H3941 C3947 0.930 . S
C3942 H3928 0.930 . S
C3942 C3940 1.395 . S
C3942 C3945 1.403 . S
C3943 C3940 1.403 . S
C3943 C3944 1.524 . S
C3943 C3947 1.400 . S
C3944 H3929 0.960 . S
C3944 H3930 0.960 . S
C3944 H3931 0.960 . S
C3944 C3943 1.524 . S
C3945 C3942 1.403 . S
C3945 C3946 1.392 . S
C3945 C3949 1.495 . S
C3946 C3945 1.392 . S
C3946 C3947 1.385 . S
C3946 C3948 1.478 . S
C3947 H3941 0.930 . S
C3947 C3943 1.400 . S
C3947 C3946 1.385 . S
C3948 C3946 1.478 . S
C3948 C3950 1.381 . S
C3948 C3954 1.383 . S
C3949 C3945 1.495 . S
C3949 H3955 0.959 . S
C3949 H3956 0.961 . S
C3949 H3957 0.960 . S
C3950 C3948 1.381 . S
C3950 C3951 1.394 . S
C3950 H3958 0.930 . S
C3951 C3950 1.394 . S
C3951 C3952 1.383 . S
C3951 H3959 0.929 . S
C3952 C3951 1.383 . S
C3952 C3953 1.377 . S
C3953 H3937 0.930 . S
C3953 C3952 1.377 . S
C3953 C3954 1.379 . S
C3954 H3938 0.931 . S
C3954 C3948 1.383 . S
C3954 C3953 1.379 . S
H3955 C3949 0.959 . S
H3956 C3949 0.961 . S
H3957 C3949 0.960 . S
H3958 C3950 0.930 . S
H3959 C3951 0.929 . S
H3960 C3968 0.929 . S
H3961 C3970 0.930 . S
H3962 C3972 0.930 . S
H3963 C3975 0.929 . S
H3964 C3978 0.930 . S
H3965 C3980 0.960 . S
H3966 C3980 0.960 . S
H3967 C3980 0.960 . S
C3968 H3960 0.929 . S
C3968 C3969 1.377 . S
C3968 C3970 1.384 . S
C3969 C3968 1.377 . S
C3969 C3975 1.390 . S
C3970 H3961 0.930 . S
C3970 C3968 1.384 . S
C3970 C3971 1.372 . S
C3971 C3970 1.372 . S
C3971 C3972 1.400 . S
C3971 C3976 1.490 . S
C3972 H3962 0.930 . S
C3972 C3971 1.400 . S
C3972 C3975 1.386 . S
H3973 C3989 0.930 . S
H3974 C3990 0.931 . S
C3975 H3963 0.929 . S
C3975 C3969 1.390 . S
C3975 C3972 1.386 . S
C3976 C3971 1.490 . S
C3976 C3978 1.395 . S
C3976 C3979 1.403 . S
H3977 C3983 0.930 . S
C3978 H3964 0.930 . S
C3978 C3976 1.395 . S
C3978 C3981 1.403 . S
C3979 C3976 1.403 . S
C3979 C3980 1.524 . S
C3979 C3983 1.400 . S
C3980 H3965 0.960 . S
C3980 H3966 0.960 . S
C3980 H3967 0.960 . S
C3980 C3979 1.524 . S
C3981 C3978 1.403 . S
C3981 C3982 1.392 . S
C3981 C3985 1.495 . S
C3982 C3981 1.392 . S
C3982 C3983 1.385 . S
C3982 C3984 1.478 . S
C3983 H3977 0.930 . S
C3983 C3979 1.400 . S
C3983 C3982 1.385 . S
C3984 C3982 1.478 . S
C3984 C3986 1.381 . S
C3984 C3990 1.383 . S
C3985 C3981 1.495 . S
C3985 H3991 0.959 . S
C3985 H3992 0.961 . S
C3985 H3993 0.960 . S
C3986 C3984 1.381 . S
C3986 C3987 1.394 . S
C3986 H3994 0.930 . S
C3987 C3986 1.394 . S
C3987 C3988 1.383 . S
C3987 H3995 0.929 . S
C3988 C3987 1.383 . S
C3988 C3989 1.377 . S
C3989 H3973 0.930 . S
C3989 C3988 1.377 . S
C3989 C3990 1.379 . S
C3990 H3974 0.931 . S
C3990 C3984 1.383 . S
C3990 C3989 1.379 . S
H3991 C3985 0.959 . S
H3992 C3985 0.961 . S
H3993 C3985 0.960 . S
H3994 C3986 0.930 . S
H3995 C3987 0.929 . S
H3996 C4004 0.929 . S
H3997 C4006 0.930 . S
H3998 C4008 0.930 . S
H3999 C4011 0.929 . S
H4000 C4014 0.930 . S
H4001 C4016 0.960 . S
H4002 C4016 0.960 . S
H4003 C4016 0.960 . S
C4004 H3996 0.929 . S
C4004 C4005 1.377 . S
C4004 C4006 1.384 . S
C4005 C4004 1.377 . S
C4005 C4011 1.390 . S
C4006 H3997 0.930 . S
C4006 C4004 1.384 . S
C4006 C4007 1.372 . S
C4007 C4006 1.372 . S
C4007 C4008 1.400 . S
C4007 C4012 1.490 . S
C4008 H3998 0.930 . S
C4008 C4007 1.400 . S
C4008 C4011 1.386 . S
H4009 C4025 0.930 . S
H4010 C4026 0.931 . S
C4011 H3999 0.929 . S
C4011 C4005 1.390 . S
C4011 C4008 1.386 . S
C4012 C4007 1.490 . S
C4012 C4014 1.395 . S
C4012 C4015 1.403 . S
H4013 C4019 0.930 . S
C4014 H4000 0.930 . S
C4014 C4012 1.395 . S
C4014 C4017 1.403 . S
C4015 C4012 1.403 . S
C4015 C4016 1.524 . S
C4015 C4019 1.400 . S
C4016 H4001 0.960 . S
C4016 H4002 0.960 . S
C4016 H4003 0.960 . S
C4016 C4015 1.524 . S
C4017 C4014 1.403 . S
C4017 C4018 1.392 . S
C4017 C4021 1.495 . S
C4018 C4017 1.392 . S
C4018 C4019 1.385 . S
C4018 C4020 1.478 . S
C4019 H4013 0.930 . S
C4019 C4015 1.400 . S
C4019 C4018 1.385 . S
C4020 C4018 1.478 . S
C4020 C4022 1.381 . S
C4020 C4026 1.383 . S
C4021 C4017 1.495 . S
C4021 H4027 0.959 . S
C4021 H4028 0.961 . S
C4021 H4029 0.960 . S
C4022 C4020 1.381 . S
C4022 C4023 1.394 . S
C4022 H4030 0.930 . S
C4023 C4022 1.394 . S
C4023 C4024 1.383 . S
C4023 H4031 0.929 . S
C4024 C4023 1.383 . S
C4024 C4025 1.377 . S
C4025 H4009 0.930 . S
C4025 C4024 1.377 . S
C4025 C4026 1.379 . S
C4026 H4010 0.931 . S
C4026 C4020 1.383 . S
C4026 C4025 1.379 . S
H4027 C4021 0.959 . S
H4028 C4021 0.961 . S
H4029 C4021 0.960 . S
H4030 C4022 0.930 . S
H4031 C4023 0.929 . S
H4032 C4040 0.929 . S
H4033 C4042 0.930 . S
H4034 C4044 0.930 . S
H4035 C4047 0.929 . S
H4036 C4050 0.930 . S
H4037 C4052 0.960 . S
H4038 C4052 0.960 . S
H4039 C4052 0.960 . S
C4040 H4032 0.929 . S
C4040 C4041 1.377 . S
C4040 C4042 1.384 . S
C4041 C4040 1.377 . S
C4041 C4047 1.390 . S
C4042 H4033 0.930 . S
C4042 C4040 1.384 . S
C4042 C4043 1.372 . S
C4043 C4042 1.372 . S
C4043 C4044 1.400 . S
C4043 C4048 1.490 . S
C4044 H4034 0.930 . S
C4044 C4043 1.400 . S
C4044 C4047 1.386 . S
H4045 C4061 0.930 . S
H4046 C4062 0.931 . S
C4047 H4035 0.929 . S
C4047 C4041 1.390 . S
C4047 C4044 1.386 . S
C4048 C4043 1.490 . S
C4048 C4050 1.395 . S
C4048 C4051 1.403 . S
H4049 C4055 0.930 . S
C4050 H4036 0.930 . S
C4050 C4048 1.395 . S
C4050 C4053 1.403 . S
C4051 C4048 1.403 . S
C4051 C4052 1.524 . S
C4051 C4055 1.400 . S
C4052 H4037 0.960 . S
C4052 H4038 0.960 . S
C4052 H4039 0.960 . S
C4052 C4051 1.524 . S
C4053 C4050 1.403 . S
C4053 C4054 1.392 . S
C4053 C4057 1.495 . S
C4054 C4053 1.392 . S
C4054 C4055 1.385 . S
C4054 C4056 1.478 . S
C4055 H4049 0.930 . S
C4055 C4051 1.400 . S
C4055 C4054 1.385 . S
C4056 C4054 1.478 . S
C4056 C4058 1.381 . S
C4056 C4062 1.383 . S
C4057 C4053 1.495 . S
C4057 H4063 0.959 . S
C4057 H4064 0.961 . S
C4057 H4065 0.960 . S
C4058 C4056 1.381 . S
C4058 C4059 1.394 . S
C4058 H4066 0.930 . S
C4059 C4058 1.394 . S
C4059 C4060 1.383 . S
C4059 H4067 0.929 . S
C4060 C4059 1.383 . S
C4060 C4061 1.377 . S
C4061 H4045 0.930 . S
C4061 C4060 1.377 . S
C4061 C4062 1.379 . S
C4062 H4046 0.931 . S
C4062 C4056 1.383 . S
C4062 C4061 1.379 . S
H4063 C4057 0.959 . S
H4064 C4057 0.961 . S
H4065 C4057 0.960 . S
H4066 C4058 0.930 . S
H4067 C4059 0.929 . S
H4068 C4076 0.929 . S
H4069 C4078 0.930 . S
H4070 C4080 0.930 . S
H4071 C4083 0.929 . S
H4072 C4086 0.930 . S
H4073 C4088 0.960 . S
H4074 C4088 0.960 . S
H4075 C4088 0.960 . S
C4076 H4068 0.929 . S
C4076 C4077 1.377 . S
C4076 C4078 1.384 . S
C4077 C4076 1.377 . S
C4077 C4083 1.390 . S
C4078 H4069 0.930 . S
C4078 C4076 1.384 . S
C4078 C4079 1.372 . S
C4079 C4078 1.372 . S
C4079 C4080 1.400 . S
C4079 C4084 1.490 . S
C4080 H4070 0.930 . S
C4080 C4079 1.400 . S
C4080 C4083 1.386 . S
H4081 C4097 0.930 . S
H4082 C4098 0.931 . S
C4083 H4071 0.929 . S
C4083 C4077 1.390 . S
C4083 C4080 1.386 . S
C4084 C4079 1.490 . S
C4084 C4086 1.395 1_554 S
C4084 C4087 1.403 . S
H4085 C4091 0.930 . S
C4086 H4072 0.930 . S
C4086 C4084 1.395 1_556 S
C4086 C4089 1.403 . S
C4087 C4084 1.403 . S
C4087 C4088 1.524 . S
C4087 C4091 1.400 . S
C4088 H4073 0.960 . S
C4088 H4074 0.960 . S
C4088 H4075 0.960 . S
C4088 C4087 1.524 . S
C4089 C4086 1.403 . S
C4089 C4090 1.392 1_556 S
C4089 C4093 1.495 . S
C4090 C4089 1.392 1_554 S
C4090 C4091 1.385 . S
C4090 C4092 1.478 . S
C4091 H4085 0.930 . S
C4091 C4087 1.400 . S
C4091 C4090 1.385 . S
C4092 C4090 1.478 . S
C4092 C4094 1.381 . S
C4092 C4098 1.383 1_565 S
C4093 C4089 1.495 . S
C4093 H4099 0.959 . S
C4093 H4100 0.961 . S
C4093 H4101 0.960 . S
C4094 C4092 1.381 . S
C4094 C4095 1.394 . S
C4094 H4102 0.930 . S
C4095 C4094 1.394 . S
C4095 C4096 1.383 1_565 S
C4095 H4103 0.929 . S
C4096 C4095 1.383 1_545 S
C4096 C4097 1.377 . S
C4097 H4081 0.930 . S
C4097 C4096 1.377 . S
C4097 C4098 1.379 . S
C4098 H4082 0.931 . S
C4098 C4092 1.383 1_545 S
C4098 C4097 1.379 . S
H4099 C4093 0.959 . S
H4100 C4093 0.961 . S
H4101 C4093 0.960 . S
H4102 C4094 0.930 . S
H4103 C4095 0.929 . S
H4104 C4112 0.929 . S
H4105 C4114 0.930 . S
H4106 C4116 0.930 . S
H4107 C4119 0.929 . S
H4108 C4122 0.930 . S
H4109 C4124 0.960 . S
H4110 C4124 0.960 . S
H4111 C4124 0.960 . S
C4112 H4104 0.929 . S
C4112 C4113 1.377 . S
C4112 C4114 1.384 . S
C4113 C4112 1.377 . S
C4113 C4119 1.390 . S
C4114 H4105 0.930 . S
C4114 C4112 1.384 . S
C4114 C4115 1.372 . S
C4115 C4114 1.372 . S
C4115 C4116 1.400 . S
C4115 C4120 1.490 . S
C4116 H4106 0.930 . S
C4116 C4115 1.400 . S
C4116 C4119 1.386 . S
H4117 C4133 0.930 . S
H4118 C4134 0.931 . S
C4119 H4107 0.929 . S
C4119 C4113 1.390 . S
C4119 C4116 1.386 . S
C4120 C4115 1.490 . S
C4120 C4122 1.395 . S
C4120 C4123 1.403 . S
H4121 C4127 0.930 . S
C4122 H4108 0.930 . S
C4122 C4120 1.395 . S
C4122 C4125 1.403 . S
C4123 C4120 1.403 . S
C4123 C4124 1.524 . S
C4123 C4127 1.400 . S
C4124 H4109 0.960 . S
C4124 H4110 0.960 . S
C4124 H4111 0.960 . S
C4124 C4123 1.524 . S
C4125 C4122 1.403 . S
C4125 C4126 1.392 . S
C4125 C4129 1.495 . S
C4126 C4125 1.392 . S
C4126 C4127 1.385 . S
C4126 C4128 1.478 . S
C4127 H4121 0.930 . S
C4127 C4123 1.400 . S
C4127 C4126 1.385 . S
C4128 C4126 1.478 . S
C4128 C4130 1.381 . S
C4128 C4134 1.383 . S
C4129 C4125 1.495 . S
C4129 H4135 0.959 . S
C4129 H4136 0.961 . S
C4129 H4137 0.960 . S
C4130 C4128 1.381 . S
C4130 C4131 1.394 . S
C4130 H4138 0.930 . S
C4131 C4130 1.394 . S
C4131 C4132 1.383 . S
C4131 H4139 0.929 . S
C4132 C4131 1.383 . S
C4132 C4133 1.377 . S
C4133 H4117 0.930 . S
C4133 C4132 1.377 . S
C4133 C4134 1.379 . S
C4134 H4118 0.931 . S
C4134 C4128 1.383 . S
C4134 C4133 1.379 . S
H4135 C4129 0.959 . S
H4136 C4129 0.961 . S
H4137 C4129 0.960 . S
H4138 C4130 0.930 . S
H4139 C4131 0.929 . S
H4140 C4148 0.929 . S
H4141 C4150 0.930 . S
H4142 C4152 0.930 . S
H4143 C4155 0.929 . S
H4144 C4158 0.930 . S
H4145 C4160 0.960 . S
H4146 C4160 0.960 . S
H4147 C4160 0.960 1_556 S
C4148 H4140 0.929 . S
C4148 C4149 1.377 . S
C4148 C4150 1.384 . S
C4149 C4148 1.377 . S
C4149 C4155 1.390 1_554 S
C4150 H4141 0.930 . S
C4150 C4148 1.384 . S
C4150 C4151 1.372 . S
C4151 C4150 1.372 . S
C4151 C4152 1.400 1_554 S
C4151 C4156 1.490 . S
C4152 H4142 0.930 . S
C4152 C4151 1.400 1_556 S
C4152 C4155 1.386 . S
H4153 C4169 0.930 1_556 S
H4154 C4170 0.931 1_556 S
C4155 H4143 0.929 . S
C4155 C4149 1.390 1_556 S
C4155 C4152 1.386 . S
C4156 C4151 1.490 . S
C4156 C4158 1.395 . S
C4156 C4159 1.403 . S
H4157 C4163 0.930 . S
C4158 H4144 0.930 . S
C4158 C4156 1.395 . S
C4158 C4161 1.403 . S
C4159 C4156 1.403 . S
C4159 C4160 1.524 . S
C4159 C4163 1.400 . S
C4160 H4145 0.960 . S
C4160 H4146 0.960 . S
C4160 H4147 0.960 1_554 S
C4160 C4159 1.524 . S
C4161 C4158 1.403 . S
C4161 C4162 1.392 . S
C4161 C4165 1.495 . S
C4162 C4161 1.392 . S
C4162 C4163 1.385 . S
C4162 C4164 1.478 . S
C4163 H4157 0.930 . S
C4163 C4159 1.400 . S
C4163 C4162 1.385 . S
C4164 C4162 1.478 . S
C4164 C4166 1.381 . S
C4164 C4170 1.383 . S
C4165 C4161 1.495 . S
C4165 H4171 0.959 . S
C4165 H4172 0.961 . S
C4165 H4173 0.960 . S
C4166 C4164 1.381 . S
C4166 C4167 1.394 . S
C4166 H4174 0.930 . S
C4167 C4166 1.394 . S
C4167 C4168 1.383 . S
C4167 H4175 0.929 . S
C4168 C4167 1.383 . S
C4168 C4169 1.377 . S
C4169 H4153 0.930 1_554 S
C4169 C4168 1.377 . S
C4169 C4170 1.379 . S
C4170 H4154 0.931 1_554 S
C4170 C4164 1.383 . S
C4170 C4169 1.379 . S
H4171 C4165 0.959 . S
H4172 C4165 0.961 . S
H4173 C4165 0.960 . S
H4174 C4166 0.930 . S
H4175 C4167 0.929 . S
H4176 C4184 0.929 . S
H4177 C4186 0.930 . S
H4178 C4188 0.930 . S
H4179 C4191 0.929 . S
H4180 C4194 0.930 . S
H4181 C4196 0.960 . S
H4182 C4196 0.960 . S
H4183 C4196 0.960 . S
C4184 H4176 0.929 . S
C4184 C4185 1.377 . S
C4184 C4186 1.384 . S
C4185 C4184 1.377 . S
C4185 C4191 1.390 . S
C4186 H4177 0.930 . S
C4186 C4184 1.384 . S
C4186 C4187 1.372 . S
C4187 C4186 1.372 . S
C4187 C4188 1.400 . S
C4187 C4192 1.490 . S
C4188 H4178 0.930 . S
C4188 C4187 1.400 . S
C4188 C4191 1.386 . S
H4189 C4205 0.930 . S
H4190 C4206 0.931 . S
C4191 H4179 0.929 . S
C4191 C4185 1.390 . S
C4191 C4188 1.386 . S
C4192 C4187 1.490 . S
C4192 C4194 1.395 . S
C4192 C4195 1.403 . S
H4193 C4199 0.930 . S
C4194 H4180 0.930 . S
C4194 C4192 1.395 . S
C4194 C4197 1.403 . S
C4195 C4192 1.403 . S
C4195 C4196 1.524 . S
C4195 C4199 1.400 . S
C4196 H4181 0.960 . S
C4196 H4182 0.960 . S
C4196 H4183 0.960 . S
C4196 C4195 1.524 . S
C4197 C4194 1.403 . S
C4197 C4198 1.392 . S
C4197 C4201 1.495 . S
C4198 C4197 1.392 . S
C4198 C4199 1.385 . S
C4198 C4200 1.478 . S
C4199 H4193 0.930 . S
C4199 C4195 1.400 . S
C4199 C4198 1.385 . S
C4200 C4198 1.478 . S
C4200 C4202 1.381 . S
C4200 C4206 1.383 . S
C4201 C4197 1.495 . S
C4201 H4207 0.959 . S
C4201 H4208 0.961 . S
C4201 H4209 0.960 . S
C4202 C4200 1.381 . S
C4202 C4203 1.394 . S
C4202 H4210 0.930 . S
C4203 C4202 1.394 . S
C4203 C4204 1.383 . S
C4203 H4211 0.929 . S
C4204 C4203 1.383 . S
C4204 C4205 1.377 . S
C4205 H4189 0.930 . S
C4205 C4204 1.377 . S
C4205 C4206 1.379 . S
C4206 H4190 0.931 . S
C4206 C4200 1.383 . S
C4206 C4205 1.379 . S
H4207 C4201 0.959 . S
H4208 C4201 0.961 . S
H4209 C4201 0.960 . S
H4210 C4202 0.930 . S
H4211 C4203 0.929 . S
H4212 C4220 0.929 . S
H4213 C4222 0.930 . S
H4214 C4224 0.930 . S
H4215 C4227 0.929 . S
H4216 C4230 0.930 . S
H4217 C4232 0.960 . S
H4218 C4232 0.960 . S
H4219 C4232 0.960 . S
C4220 H4212 0.929 . S
C4220 C4221 1.377 . S
C4220 C4222 1.384 . S
C4221 C4220 1.377 . S
C4221 C4227 1.390 . S
C4222 H4213 0.930 . S
C4222 C4220 1.384 . S
C4222 C4223 1.372 . S
C4223 C4222 1.372 . S
C4223 C4224 1.400 . S
C4223 C4228 1.490 . S
C4224 H4214 0.930 . S
C4224 C4223 1.400 . S
C4224 C4227 1.386 . S
H4225 C4241 0.930 . S
H4226 C4242 0.931 . S
C4227 H4215 0.929 . S
C4227 C4221 1.390 . S
C4227 C4224 1.386 . S
C4228 C4223 1.490 . S
C4228 C4230 1.395 . S
C4228 C4231 1.403 . S
H4229 C4235 0.930 . S
C4230 H4216 0.930 . S
C4230 C4228 1.395 . S
C4230 C4233 1.403 . S
C4231 C4228 1.403 . S
C4231 C4232 1.524 . S
C4231 C4235 1.400 . S
C4232 H4217 0.960 . S
C4232 H4218 0.960 . S
C4232 H4219 0.960 . S
C4232 C4231 1.524 . S
C4233 C4230 1.403 . S
C4233 C4234 1.392 . S
C4233 C4237 1.495 . S
C4234 C4233 1.392 . S
C4234 C4235 1.385 . S
C4234 C4236 1.478 . S
C4235 H4229 0.930 . S
C4235 C4231 1.400 . S
C4235 C4234 1.385 . S
C4236 C4234 1.478 . S
C4236 C4238 1.381 . S
C4236 C4242 1.383 . S
C4237 C4233 1.495 . S
C4237 H4243 0.959 . S
C4237 H4244 0.961 . S
C4237 H4245 0.960 . S
C4238 C4236 1.381 . S
C4238 C4239 1.394 . S
C4238 H4246 0.930 . S
C4239 C4238 1.394 . S
C4239 C4240 1.383 . S
C4239 H4247 0.929 . S
C4240 C4239 1.383 . S
C4240 C4241 1.377 . S
C4241 H4225 0.930 . S
C4241 C4240 1.377 . S
C4241 C4242 1.379 . S
C4242 H4226 0.931 . S
C4242 C4236 1.383 . S
C4242 C4241 1.379 . S
H4243 C4237 0.959 . S
H4244 C4237 0.961 . S
H4245 C4237 0.960 . S
H4246 C4238 0.930 . S
H4247 C4239 0.929 . S
H4248 C4256 0.929 . S
H4249 C4258 0.930 . S
H4250 C4260 0.930 . S
H4251 C4263 0.929 . S
H4252 C4266 0.930 . S
H4253 C4268 0.960 . S
H4254 C4268 0.960 . S
H4255 C4268 0.960 . S
C4256 H4248 0.929 . S
C4256 C4257 1.377 . S
C4256 C4258 1.384 . S
C4257 C4256 1.377 . S
C4257 C4263 1.390 . S
C4258 H4249 0.930 . S
C4258 C4256 1.384 . S
C4258 C4259 1.372 . S
C4259 C4258 1.372 . S
C4259 C4260 1.400 . S
C4259 C4264 1.490 . S
C4260 H4250 0.930 . S
C4260 C4259 1.400 . S
C4260 C4263 1.386 . S
H4261 C4277 0.930 . S
H4262 C4278 0.931 . S
C4263 H4251 0.929 . S
C4263 C4257 1.390 . S
C4263 C4260 1.386 . S
C4264 C4259 1.490 . S
C4264 C4266 1.395 . S
C4264 C4267 1.403 . S
H4265 C4271 0.930 . S
C4266 H4252 0.930 . S
C4266 C4264 1.395 . S
C4266 C4269 1.403 . S
C4267 C4264 1.403 . S
C4267 C4268 1.524 . S
C4267 C4271 1.400 . S
C4268 H4253 0.960 . S
C4268 H4254 0.960 . S
C4268 H4255 0.960 . S
C4268 C4267 1.524 . S
C4269 C4266 1.403 . S
C4269 C4270 1.392 . S
C4269 C4273 1.495 . S
C4270 C4269 1.392 . S
C4270 C4271 1.385 . S
C4270 C4272 1.478 . S
C4271 H4265 0.930 . S
C4271 C4267 1.400 . S
C4271 C4270 1.385 . S
C4272 C4270 1.478 . S
C4272 C4274 1.381 . S
C4272 C4278 1.383 . S
C4273 C4269 1.495 . S
C4273 H4279 0.959 . S
C4273 H4280 0.961 . S
C4273 H4281 0.960 . S
C4274 C4272 1.381 . S
C4274 C4275 1.394 . S
C4274 H4282 0.930 . S
C4275 C4274 1.394 . S
C4275 C4276 1.383 . S
C4275 H4283 0.929 . S
C4276 C4275 1.383 . S
C4276 C4277 1.377 . S
C4277 H4261 0.930 . S
C4277 C4276 1.377 . S
C4277 C4278 1.379 . S
C4278 H4262 0.931 . S
C4278 C4272 1.383 . S
C4278 C4277 1.379 . S
H4279 C4273 0.959 . S
H4280 C4273 0.961 . S
H4281 C4273 0.960 . S
H4282 C4274 0.930 . S
H4283 C4275 0.929 . S
H4284 C4292 0.929 . S
H4285 C4294 0.930 . S
H4286 C4296 0.930 . S
H4287 C4299 0.929 . S
H4288 C4302 0.930 . S
H4289 C4304 0.960 . S
H4290 C4304 0.960 . S
H4291 C4304 0.960 . S
C4292 H4284 0.929 . S
C4292 C4293 1.377 . S
C4292 C4294 1.384 . S
C4293 C4292 1.377 . S
C4293 C4299 1.390 . S
C4294 H4285 0.930 . S
C4294 C4292 1.384 . S
C4294 C4295 1.372 . S
C4295 C4294 1.372 . S
C4295 C4296 1.400 . S
C4295 C4300 1.490 . S
C4296 H4286 0.930 . S
C4296 C4295 1.400 . S
C4296 C4299 1.386 . S
H4297 C4313 0.930 . S
H4298 C4314 0.931 . S
C4299 H4287 0.929 . S
C4299 C4293 1.390 . S
C4299 C4296 1.386 . S
C4300 C4295 1.490 . S
C4300 C4302 1.395 . S
C4300 C4303 1.403 . S
H4301 C4307 0.930 . S
C4302 H4288 0.930 . S
C4302 C4300 1.395 . S
C4302 C4305 1.403 . S
C4303 C4300 1.403 . S
C4303 C4304 1.524 . S
C4303 C4307 1.400 . S
C4304 H4289 0.960 . S
C4304 H4290 0.960 . S
C4304 H4291 0.960 . S
C4304 C4303 1.524 . S
C4305 C4302 1.403 . S
C4305 C4306 1.392 . S
C4305 C4309 1.495 . S
C4306 C4305 1.392 . S
C4306 C4307 1.385 . S
C4306 C4308 1.478 . S
C4307 H4301 0.930 . S
C4307 C4303 1.400 . S
C4307 C4306 1.385 . S
C4308 C4306 1.478 . S
C4308 C4310 1.381 . S
C4308 C4314 1.383 . S
C4309 C4305 1.495 . S
C4309 H4315 0.959 . S
C4309 H4316 0.961 . S
C4309 H4317 0.960 . S
C4310 C4308 1.381 . S
C4310 C4311 1.394 . S
C4310 H4318 0.930 . S
C4311 C4310 1.394 . S
C4311 C4312 1.383 . S
C4311 H4319 0.929 . S
C4312 C4311 1.383 . S
C4312 C4313 1.377 . S
C4313 H4297 0.930 . S
C4313 C4312 1.377 . S
C4313 C4314 1.379 . S
C4314 H4298 0.931 . S
C4314 C4308 1.383 . S
C4314 C4313 1.379 . S
H4315 C4309 0.959 . S
H4316 C4309 0.961 . S
H4317 C4309 0.960 . S
H4318 C4310 0.930 . S
H4319 C4311 0.929 . S
H4320 C4328 0.929 . S
H4321 C4330 0.930 . S
H4322 C4332 0.930 . S
H4323 C4335 0.929 . S
H4324 C4338 0.930 . S
H4325 C4340 0.960 . S
H4326 C4340 0.960 . S
H4327 C4340 0.960 . S
C4328 H4320 0.929 . S
C4328 C4329 1.377 . S
C4328 C4330 1.384 . S
C4329 C4328 1.377 . S
C4329 C4335 1.390 . S
C4330 H4321 0.930 . S
C4330 C4328 1.384 . S
C4330 C4331 1.372 . S
C4331 C4330 1.372 . S
C4331 C4332 1.400 . S
C4331 C4336 1.490 . S
C4332 H4322 0.930 . S
C4332 C4331 1.400 . S
C4332 C4335 1.386 . S
H4333 C4349 0.930 . S
H4334 C4350 0.931 . S
C4335 H4323 0.929 . S
C4335 C4329 1.390 . S
C4335 C4332 1.386 . S
C4336 C4331 1.490 . S
C4336 C4338 1.395 . S
C4336 C4339 1.403 . S
H4337 C4343 0.930 . S
C4338 H4324 0.930 . S
C4338 C4336 1.395 . S
C4338 C4341 1.403 . S
C4339 C4336 1.403 . S
C4339 C4340 1.524 . S
C4339 C4343 1.400 . S
C4340 H4325 0.960 . S
C4340 H4326 0.960 . S
C4340 H4327 0.960 . S
C4340 C4339 1.524 . S
C4341 C4338 1.403 . S
C4341 C4342 1.392 . S
C4341 C4345 1.495 . S
C4342 C4341 1.392 . S
C4342 C4343 1.385 . S
C4342 C4344 1.478 . S
C4343 H4337 0.930 . S
C4343 C4339 1.400 . S
C4343 C4342 1.385 . S
C4344 C4342 1.478 . S
C4344 C4346 1.381 . S
C4344 C4350 1.383 . S
C4345 C4341 1.495 . S
C4345 H4351 0.959 . S
C4345 H4352 0.961 . S
C4345 H4353 0.960 . S
C4346 C4344 1.381 . S
C4346 C4347 1.394 . S
C4346 H4354 0.930 . S
C4347 C4346 1.394 . S
C4347 C4348 1.383 . S
C4347 H4355 0.929 . S
C4348 C4347 1.383 . S
C4348 C4349 1.377 . S
C4349 H4333 0.930 . S
C4349 C4348 1.377 . S
C4349 C4350 1.379 . S
C4350 H4334 0.931 . S
C4350 C4344 1.383 . S
C4350 C4349 1.379 . S
H4351 C4345 0.959 . S
H4352 C4345 0.961 . S
H4353 C4345 0.960 . S
H4354 C4346 0.930 . S
H4355 C4347 0.929 . S
H4356 C4364 0.929 . S
H4357 C4366 0.930 . S
H4358 C4368 0.930 . S
H4359 C4371 0.929 . S
H4360 C4374 0.930 . S
H4361 C4376 0.960 . S
H4362 C4376 0.960 . S
H4363 C4376 0.960 . S
C4364 H4356 0.929 . S
C4364 C4365 1.377 . S
C4364 C4366 1.384 . S
C4365 C4364 1.377 . S
C4365 C4371 1.390 . S
C4366 H4357 0.930 . S
C4366 C4364 1.384 . S
C4366 C4367 1.372 . S
C4367 C4366 1.372 . S
C4367 C4368 1.400 . S
C4367 C4372 1.490 . S
C4368 H4358 0.930 . S
C4368 C4367 1.400 . S
C4368 C4371 1.386 . S
H4369 C4385 0.930 . S
H4370 C4386 0.931 . S
C4371 H4359 0.929 . S
C4371 C4365 1.390 . S
C4371 C4368 1.386 . S
C4372 C4367 1.490 . S
C4372 C4374 1.395 . S
C4372 C4375 1.403 . S
H4373 C4379 0.930 . S
C4374 H4360 0.930 . S
C4374 C4372 1.395 . S
C4374 C4377 1.403 . S
C4375 C4372 1.403 . S
C4375 C4376 1.524 . S
C4375 C4379 1.400 . S
C4376 H4361 0.960 . S
C4376 H4362 0.960 . S
C4376 H4363 0.960 . S
C4376 C4375 1.524 . S
C4377 C4374 1.403 . S
C4377 C4378 1.392 . S
C4377 C4381 1.495 . S
C4378 C4377 1.392 . S
C4378 C4379 1.385 . S
C4378 C4380 1.478 . S
C4379 H4373 0.930 . S
C4379 C4375 1.400 . S
C4379 C4378 1.385 . S
C4380 C4378 1.478 . S
C4380 C4382 1.381 . S
C4380 C4386 1.383 . S
C4381 C4377 1.495 . S
C4381 H4387 0.959 . S
C4381 H4388 0.961 . S
C4381 H4389 0.960 . S
C4382 C4380 1.381 . S
C4382 C4383 1.394 . S
C4382 H4390 0.930 . S
C4383 C4382 1.394 . S
C4383 C4384 1.383 . S
C4383 H4391 0.929 . S
C4384 C4383 1.383 . S
C4384 C4385 1.377 . S
C4385 H4369 0.930 . S
C4385 C4384 1.377 . S
C4385 C4386 1.379 . S
C4386 H4370 0.931 . S
C4386 C4380 1.383 . S
C4386 C4385 1.379 . S
H4387 C4381 0.959 . S
H4388 C4381 0.961 . S
H4389 C4381 0.960 . S
H4390 C4382 0.930 . S
H4391 C4383 0.929 . S
H4392 C4400 0.929 . S
H4393 C4402 0.930 . S
H4394 C4404 0.930 . S
H4395 C4407 0.929 . S
H4396 C4410 0.930 . S
H4397 C4412 0.960 . S
H4398 C4412 0.960 . S
H4399 C4412 0.960 . S
C4400 H4392 0.929 . S
C4400 C4401 1.377 . S
C4400 C4402 1.384 . S
C4401 C4400 1.377 . S
C4401 C4407 1.390 . S
C4402 H4393 0.930 . S
C4402 C4400 1.384 . S
C4402 C4403 1.372 . S
C4403 C4402 1.372 . S
C4403 C4404 1.400 . S
C4403 C4408 1.490 . S
C4404 H4394 0.930 . S
C4404 C4403 1.400 . S
C4404 C4407 1.386 . S
H4405 C4421 0.930 . S
H4406 C4422 0.931 . S
C4407 H4395 0.929 . S
C4407 C4401 1.390 . S
C4407 C4404 1.386 . S
C4408 C4403 1.490 . S
C4408 C4410 1.395 . S
C4408 C4411 1.403 . S
H4409 C4415 0.930 . S
C4410 H4396 0.930 . S
C4410 C4408 1.395 . S
C4410 C4413 1.403 . S
C4411 C4408 1.403 . S
C4411 C4412 1.524 . S
C4411 C4415 1.400 . S
C4412 H4397 0.960 . S
C4412 H4398 0.960 . S
C4412 H4399 0.960 . S
C4412 C4411 1.524 . S
C4413 C4410 1.403 . S
C4413 C4414 1.392 . S
C4413 C4417 1.495 . S
C4414 C4413 1.392 . S
C4414 C4415 1.385 . S
C4414 C4416 1.478 . S
C4415 H4409 0.930 . S
C4415 C4411 1.400 . S
C4415 C4414 1.385 . S
C4416 C4414 1.478 . S
C4416 C4418 1.381 . S
C4416 C4422 1.383 . S
C4417 C4413 1.495 . S
C4417 H4423 0.959 . S
C4417 H4424 0.961 . S
C4417 H4425 0.960 . S
C4418 C4416 1.381 . S
C4418 C4419 1.394 . S
C4418 H4426 0.930 . S
C4419 C4418 1.394 . S
C4419 C4420 1.383 . S
C4419 H4427 0.929 . S
C4420 C4419 1.383 . S
C4420 C4421 1.377 . S
C4421 H4405 0.930 . S
C4421 C4420 1.377 . S
C4421 C4422 1.379 . S
C4422 H4406 0.931 . S
C4422 C4416 1.383 . S
C4422 C4421 1.379 . S
H4423 C4417 0.959 . S
H4424 C4417 0.961 . S
H4425 C4417 0.960 . S
H4426 C4418 0.930 . S
H4427 C4419 0.929 . S
H4428 C4436 0.929 . S
H4429 C4438 0.930 . S
H4430 C4440 0.930 . S
H4431 C4443 0.929 . S
H4432 C4446 0.930 . S
H4433 C4448 0.960 . S
H4434 C4448 0.960 . S
H4435 C4448 0.960 . S
C4436 H4428 0.929 . S
C4436 C4437 1.377 . S
C4436 C4438 1.384 . S
C4437 C4436 1.377 . S
C4437 C4443 1.390 . S
C4438 H4429 0.930 . S
C4438 C4436 1.384 . S
C4438 C4439 1.372 . S
C4439 C4438 1.372 . S
C4439 C4440 1.400 . S
C4439 C4444 1.490 . S
C4440 H4430 0.930 . S
C4440 C4439 1.400 . S
C4440 C4443 1.386 . S
H4441 C4457 0.930 . S
H4442 C4458 0.931 . S
C4443 H4431 0.929 . S
C4443 C4437 1.390 . S
C4443 C4440 1.386 . S
C4444 C4439 1.490 . S
C4444 C4446 1.395 . S
C4444 C4447 1.403 . S
H4445 C4451 0.930 . S
C4446 H4432 0.930 . S
C4446 C4444 1.395 . S
C4446 C4449 1.403 . S
C4447 C4444 1.403 . S
C4447 C4448 1.524 . S
C4447 C4451 1.400 . S
C4448 H4433 0.960 . S
C4448 H4434 0.960 . S
C4448 H4435 0.960 . S
C4448 C4447 1.524 . S
C4449 C4446 1.403 . S
C4449 C4450 1.392 . S
C4449 C4453 1.495 . S
C4450 C4449 1.392 . S
C4450 C4451 1.385 . S
C4450 C4452 1.478 . S
C4451 H4445 0.930 . S
C4451 C4447 1.400 . S
C4451 C4450 1.385 . S
C4452 C4450 1.478 . S
C4452 C4454 1.381 . S
C4452 C4458 1.383 . S
C4453 C4449 1.495 . S
C4453 H4459 0.959 . S
C4453 H4460 0.961 . S
C4453 H4461 0.960 . S
C4454 C4452 1.381 . S
C4454 C4455 1.394 . S
C4454 H4462 0.930 . S
C4455 C4454 1.394 . S
C4455 C4456 1.383 . S
C4455 H4463 0.929 . S
C4456 C4455 1.383 . S
C4456 C4457 1.377 . S
C4457 H4441 0.930 . S
C4457 C4456 1.377 . S
C4457 C4458 1.379 . S
C4458 H4442 0.931 . S
C4458 C4452 1.383 . S
C4458 C4457 1.379 . S
H4459 C4453 0.959 . S
H4460 C4453 0.961 . S
H4461 C4453 0.960 . S
H4462 C4454 0.930 . S
H4463 C4455 0.929 . S
H4464 C4472 0.929 . S
H4465 C4474 0.930 . S
H4466 C4476 0.930 . S
H4467 C4479 0.929 . S
H4468 C4482 0.930 . S
H4469 C4484 0.960 1_655 S
H4470 C4484 0.961 . S
H4471 C4484 0.960 . S
C4472 H4464 0.929 . S
C4472 C4473 1.377 . S
C4472 C4474 1.384 . S
C4473 C4472 1.377 . S
C4473 C4479 1.390 . S
C4474 H4465 0.930 . S
C4474 C4472 1.384 . S
C4474 C4475 1.372 . S
C4475 C4474 1.372 . S
C4475 C4476 1.400 . S
C4475 C4480 1.490 . S
C4476 H4466 0.930 . S
C4476 C4475 1.400 . S
C4476 C4479 1.386 . S
H4477 C4493 0.930 . S
H4478 C4494 0.931 . S
C4479 H4467 0.929 . S
C4479 C4473 1.390 . S
C4479 C4476 1.386 . S
C4480 C4475 1.490 . S
C4480 C4482 1.395 . S
C4480 C4483 1.403 . S
H4481 C4487 0.930 . S
C4482 H4468 0.930 . S
C4482 C4480 1.395 . S
C4482 C4485 1.403 . S
C4483 C4480 1.403 . S
C4483 C4484 1.524 . S
C4483 C4487 1.400 . S
C4484 H4469 0.960 1_455 S
C4484 H4470 0.961 . S
C4484 H4471 0.960 . S
C4484 C4483 1.524 . S
C4485 C4482 1.403 . S
C4485 C4486 1.392 . S
C4485 C4489 1.495 . S
C4486 C4485 1.392 . S
C4486 C4487 1.385 . S
C4486 C4488 1.478 . S
C4487 H4481 0.930 . S
C4487 C4483 1.400 . S
C4487 C4486 1.385 . S
C4488 C4486 1.478 . S
C4488 C4490 1.381 . S
C4488 C4494 1.383 . S
C4489 C4485 1.495 . S
C4489 H4495 0.959 . S
C4489 H4496 0.961 . S
C4489 H4497 0.960 . S
C4490 C4488 1.381 . S
C4490 C4491 1.394 . S
C4490 H4498 0.930 . S
C4491 C4490 1.394 . S
C4491 C4492 1.383 . S
C4491 H4499 0.929 . S
C4492 C4491 1.383 . S
C4492 C4493 1.377 . S
C4493 H4477 0.930 . S
C4493 C4492 1.377 . S
C4493 C4494 1.379 . S
C4494 H4478 0.931 . S
C4494 C4488 1.383 . S
C4494 C4493 1.379 . S
H4495 C4489 0.959 . S
H4496 C4489 0.961 . S
H4497 C4489 0.960 . S
H4498 C4490 0.930 . S
H4499 C4491 0.929 . S
H4500 C4508 0.929 . S
H4501 C4510 0.930 . S
H4502 C4512 0.930 . S
H4503 C4515 0.929 . S
H4504 C4518 0.930 . S
H4505 C4520 0.960 . S
H4506 C4520 0.960 . S
H4507 C4520 0.960 . S
C4508 H4500 0.929 . S
C4508 C4509 1.377 . S
C4508 C4510 1.384 . S
C4509 C4508 1.377 . S
C4509 C4515 1.390 . S
C4510 H4501 0.930 . S
C4510 C4508 1.384 . S
C4510 C4511 1.372 . S
C4511 C4510 1.372 . S
C4511 C4512 1.400 . S
C4511 C4516 1.490 . S
C4512 H4502 0.930 . S
C4512 C4511 1.400 . S
C4512 C4515 1.386 . S
H4513 C4529 0.930 . S
H4514 C4530 0.931 . S
C4515 H4503 0.929 . S
C4515 C4509 1.390 . S
C4515 C4512 1.386 . S
C4516 C4511 1.490 . S
C4516 C4518 1.395 . S
C4516 C4519 1.403 . S
H4517 C4523 0.930 . S
C4518 H4504 0.930 . S
C4518 C4516 1.395 . S
C4518 C4521 1.403 . S
C4519 C4516 1.403 . S
C4519 C4520 1.524 . S
C4519 C4523 1.400 . S
C4520 H4505 0.960 . S
C4520 H4506 0.960 . S
C4520 H4507 0.960 . S
C4520 C4519 1.524 . S
C4521 C4518 1.403 . S
C4521 C4522 1.392 . S
C4521 C4525 1.495 . S
C4522 C4521 1.392 . S
C4522 C4523 1.385 . S
C4522 C4524 1.478 . S
C4523 H4517 0.930 . S
C4523 C4519 1.400 . S
C4523 C4522 1.385 . S
C4524 C4522 1.478 . S
C4524 C4526 1.381 . S
C4524 C4530 1.383 . S
C4525 C4521 1.495 . S
C4525 H4531 0.959 . S
C4525 H4532 0.961 . S
C4525 H4533 0.960 . S
C4526 C4524 1.381 . S
C4526 C4527 1.394 . S
C4526 H4534 0.930 . S
C4527 C4526 1.394 . S
C4527 C4528 1.383 . S
C4527 H4535 0.929 . S
C4528 C4527 1.383 . S
C4528 C4529 1.377 . S
C4529 H4513 0.930 . S
C4529 C4528 1.377 . S
C4529 C4530 1.379 . S
C4530 H4514 0.931 . S
C4530 C4524 1.383 . S
C4530 C4529 1.379 . S
H4531 C4525 0.959 . S
H4532 C4525 0.961 . S
H4533 C4525 0.960 . S
H4534 C4526 0.930 . S
H4535 C4527 0.929 . S
H4536 C4544 0.929 . S
H4537 C4546 0.930 . S
H4538 C4548 0.930 . S
H4539 C4551 0.929 . S
H4540 C4554 0.930 . S
H4541 C4556 0.960 . S
H4542 C4556 0.960 . S
H4543 C4556 0.960 . S
C4544 H4536 0.929 . S
C4544 C4545 1.377 . S
C4544 C4546 1.384 . S
C4545 C4544 1.377 . S
C4545 C4551 1.390 . S
C4546 H4537 0.930 . S
C4546 C4544 1.384 . S
C4546 C4547 1.372 . S
C4547 C4546 1.372 . S
C4547 C4548 1.400 . S
C4547 C4552 1.490 . S
C4548 H4538 0.930 . S
C4548 C4547 1.400 . S
C4548 C4551 1.386 . S
H4549 C4565 0.930 . S
H4550 C4566 0.931 . S
C4551 H4539 0.929 . S
C4551 C4545 1.390 . S
C4551 C4548 1.386 . S
C4552 C4547 1.490 . S
C4552 C4554 1.395 . S
C4552 C4555 1.403 . S
H4553 C4559 0.930 . S
C4554 H4540 0.930 . S
C4554 C4552 1.395 . S
C4554 C4557 1.403 . S
C4555 C4552 1.403 . S
C4555 C4556 1.524 . S
C4555 C4559 1.400 . S
C4556 H4541 0.960 . S
C4556 H4542 0.960 . S
C4556 H4543 0.960 . S
C4556 C4555 1.524 . S
C4557 C4554 1.403 . S
C4557 C4558 1.392 . S
C4557 C4561 1.495 . S
C4558 C4557 1.392 . S
C4558 C4559 1.385 . S
C4558 C4560 1.478 . S
C4559 H4553 0.930 . S
C4559 C4555 1.400 . S
C4559 C4558 1.385 . S
C4560 C4558 1.478 . S
C4560 C4562 1.381 . S
C4560 C4566 1.383 . S
C4561 C4557 1.495 . S
C4561 H4567 0.959 . S
C4561 H4568 0.961 . S
C4561 H4569 0.960 . S
C4562 C4560 1.381 . S
C4562 C4563 1.394 . S
C4562 H4570 0.930 . S
C4563 C4562 1.394 . S
C4563 C4564 1.383 . S
C4563 H4571 0.929 . S
C4564 C4563 1.383 . S
C4564 C4565 1.377 . S
C4565 H4549 0.930 . S
C4565 C4564 1.377 . S
C4565 C4566 1.379 . S
C4566 H4550 0.931 . S
C4566 C4560 1.383 . S
C4566 C4565 1.379 . S
H4567 C4561 0.959 . S
H4568 C4561 0.961 . S
H4569 C4561 0.960 . S
H4570 C4562 0.930 . S
H4571 C4563 0.929 . S
H4572 C4580 0.929 . S
H4573 C4582 0.930 . S
H4574 C4584 0.930 . S
H4575 C4587 0.929 . S
H4576 C4590 0.930 . S
H4577 C4592 0.960 . S
H4578 C4592 0.960 . S
H4579 C4592 0.960 . S
C4580 H4572 0.929 . S
C4580 C4581 1.377 . S
C4580 C4582 1.384 . S
C4581 C4580 1.377 . S
C4581 C4587 1.390 . S
C4582 H4573 0.930 . S
C4582 C4580 1.384 . S
C4582 C4583 1.372 . S
C4583 C4582 1.372 . S
C4583 C4584 1.400 . S
C4583 C4588 1.490 . S
C4584 H4574 0.930 . S
C4584 C4583 1.400 . S
C4584 C4587 1.386 . S
H4585 C4601 0.930 . S
H4586 C4602 0.931 . S
C4587 H4575 0.929 . S
C4587 C4581 1.390 . S
C4587 C4584 1.386 . S
C4588 C4583 1.490 . S
C4588 C4590 1.395 . S
C4588 C4591 1.403 . S
H4589 C4595 0.930 . S
C4590 H4576 0.930 . S
C4590 C4588 1.395 . S
C4590 C4593 1.403 . S
C4591 C4588 1.403 . S
C4591 C4592 1.524 . S
C4591 C4595 1.400 . S
C4592 H4577 0.960 . S
C4592 H4578 0.960 . S
C4592 H4579 0.960 . S
C4592 C4591 1.524 . S
C4593 C4590 1.403 . S
C4593 C4594 1.392 . S
C4593 C4597 1.495 . S
C4594 C4593 1.392 . S
C4594 C4595 1.385 . S
C4594 C4596 1.478 . S
C4595 H4589 0.930 . S
C4595 C4591 1.400 . S
C4595 C4594 1.385 . S
C4596 C4594 1.478 . S
C4596 C4598 1.381 . S
C4596 C4602 1.383 . S
C4597 C4593 1.495 . S
C4597 H4603 0.959 . S
C4597 H4604 0.961 . S
C4597 H4605 0.960 . S
C4598 C4596 1.381 . S
C4598 C4599 1.394 . S
C4598 H4606 0.930 . S
C4599 C4598 1.394 . S
C4599 C4600 1.383 . S
C4599 H4607 0.929 . S
C4600 C4599 1.383 . S
C4600 C4601 1.377 . S
C4601 H4585 0.930 . S
C4601 C4600 1.377 . S
C4601 C4602 1.379 . S
C4602 H4586 0.931 . S
C4602 C4596 1.383 . S
C4602 C4601 1.379 . S
H4603 C4597 0.959 . S
H4604 C4597 0.961 . S
H4605 C4597 0.960 . S
H4606 C4598 0.930 . S
H4607 C4599 0.929 . S
H4608 C4616 0.929 . S
H4609 C4618 0.930 . S
H4610 C4620 0.930 . S
H4611 C4623 0.929 . S
H4612 C4626 0.930 . S
H4613 C4628 0.960 . S
H4614 C4628 0.960 . S
H4615 C4628 0.960 . S
C4616 H4608 0.929 . S
C4616 C4617 1.377 . S
C4616 C4618 1.384 . S
C4617 C4616 1.377 . S
C4617 C4623 1.390 . S
C4618 H4609 0.930 . S
C4618 C4616 1.384 . S
C4618 C4619 1.372 . S
C4619 C4618 1.372 . S
C4619 C4620 1.400 . S
C4619 C4624 1.490 . S
C4620 H4610 0.930 . S
C4620 C4619 1.400 . S
C4620 C4623 1.386 . S
H4621 C4637 0.930 . S
H4622 C4638 0.931 . S
C4623 H4611 0.929 . S
C4623 C4617 1.390 . S
C4623 C4620 1.386 . S
C4624 C4619 1.490 . S
C4624 C4626 1.395 . S
C4624 C4627 1.403 . S
H4625 C4631 0.930 . S
C4626 H4612 0.930 . S
C4626 C4624 1.395 . S
C4626 C4629 1.403 . S
C4627 C4624 1.403 . S
C4627 C4628 1.524 . S
C4627 C4631 1.400 . S
C4628 H4613 0.960 . S
C4628 H4614 0.960 . S
C4628 H4615 0.960 . S
C4628 C4627 1.524 . S
C4629 C4626 1.403 . S
C4629 C4630 1.392 . S
C4629 C4633 1.495 . S
C4630 C4629 1.392 . S
C4630 C4631 1.385 . S
C4630 C4632 1.478 . S
C4631 H4625 0.930 . S
C4631 C4627 1.400 . S
C4631 C4630 1.385 . S
C4632 C4630 1.478 . S
C4632 C4634 1.381 . S
C4632 C4638 1.383 . S
C4633 C4629 1.495 . S
C4633 H4639 0.959 . S
C4633 H4640 0.961 . S
C4633 H4641 0.960 . S
C4634 C4632 1.381 . S
C4634 C4635 1.394 1_655 S
C4634 H4642 0.930 . S
C4635 C4634 1.394 1_455 S
C4635 C4636 1.383 . S
C4635 H4643 0.929 . S
C4636 C4635 1.383 . S
C4636 C4637 1.374 1_455 S
C4637 H4621 0.930 . S
C4637 C4636 1.374 1_655 S
C4637 C4638 1.379 . S
C4638 H4622 0.931 . S
C4638 C4632 1.383 . S
C4638 C4637 1.379 . S
H4639 C4633 0.959 . S
H4640 C4633 0.961 . S
H4641 C4633 0.960 . S
H4642 C4634 0.930 . S
H4643 C4635 0.929 . S
H4644 C4652 0.929 . S
H4645 C4654 0.930 . S
H4646 C4656 0.930 . S
H4647 C4659 0.929 . S
H4648 C4662 0.930 . S
H4649 C4664 0.960 . S
H4650 C4664 0.960 . S
H4651 C4664 0.960 . S
C4652 H4644 0.929 . S
C4652 C4653 1.377 . S
C4652 C4654 1.384 . S
C4653 C4652 1.377 . S
C4653 C4659 1.390 . S
C4654 H4645 0.930 . S
C4654 C4652 1.384 . S
C4654 C4655 1.372 . S
C4655 C4654 1.372 . S
C4655 C4656 1.400 . S
C4655 C4660 1.490 . S
C4656 H4646 0.930 . S
C4656 C4655 1.400 . S
C4656 C4659 1.386 . S
H4657 C4673 0.930 . S
H4658 C4674 0.931 . S
C4659 H4647 0.929 . S
C4659 C4653 1.390 . S
C4659 C4656 1.386 . S
C4660 C4655 1.490 . S
C4660 C4662 1.395 . S
C4660 C4663 1.403 . S
H4661 C4667 0.930 . S
C4662 H4648 0.930 . S
C4662 C4660 1.395 . S
C4662 C4665 1.403 . S
C4663 C4660 1.403 . S
C4663 C4664 1.524 . S
C4663 C4667 1.400 . S
C4664 H4649 0.960 . S
C4664 H4650 0.960 . S
C4664 H4651 0.960 . S
C4664 C4663 1.524 . S
C4665 C4662 1.403 . S
C4665 C4666 1.392 . S
C4665 C4669 1.495 . S
C4666 C4665 1.392 . S
C4666 C4667 1.385 . S
C4666 C4668 1.478 . S
C4667 H4661 0.930 . S
C4667 C4663 1.400 . S
C4667 C4666 1.385 . S
C4668 C4666 1.478 . S
C4668 C4670 1.381 . S
C4668 C4674 1.383 . S
C4669 C4665 1.495 . S
C4669 H4675 0.959 . S
C4669 H4676 0.961 . S
C4669 H4677 0.960 . S
C4670 C4668 1.381 . S
C4670 C4671 1.394 . S
C4670 H4678 0.930 . S
C4671 C4670 1.394 . S
C4671 C4672 1.383 . S
C4671 H4679 0.929 . S
C4672 C4671 1.383 . S
C4672 C4673 1.377 . S
C4673 H4657 0.930 . S
C4673 C4672 1.377 . S
C4673 C4674 1.379 . S
C4674 H4658 0.931 . S
C4674 C4668 1.383 . S
C4674 C4673 1.379 . S
H4675 C4669 0.959 . S
H4676 C4669 0.961 . S
H4677 C4669 0.960 . S
H4678 C4670 0.930 . S
H4679 C4671 0.929 . S
H4680 C4688 0.929 . S
H4681 C4690 0.930 . S
H4682 C4692 0.930 . S
H4683 C4695 0.929 . S
H4684 C4698 0.930 . S
H4685 C4700 0.960 . S
H4686 C4700 0.960 . S
H4687 C4700 0.960 . S
C4688 H4680 0.929 . S
C4688 C4689 1.377 . S
C4688 C4690 1.384 . S
C4689 C4688 1.377 . S
C4689 C4695 1.390 . S
C4690 H4681 0.930 . S
C4690 C4688 1.384 . S
C4690 C4691 1.372 . S
C4691 C4690 1.372 . S
C4691 C4692 1.400 . S
C4691 C4696 1.490 . S
C4692 H4682 0.930 . S
C4692 C4691 1.400 . S
C4692 C4695 1.386 . S
H4693 C4709 0.930 . S
H4694 C4710 0.931 . S
C4695 H4683 0.929 . S
C4695 C4689 1.390 . S
C4695 C4692 1.386 . S
C4696 C4691 1.490 . S
C4696 C4698 1.395 . S
C4696 C4699 1.403 . S
H4697 C4703 0.930 . S
C4698 H4684 0.930 . S
C4698 C4696 1.395 . S
C4698 C4701 1.403 . S
C4699 C4696 1.403 . S
C4699 C4700 1.524 . S
C4699 C4703 1.400 . S
C4700 H4685 0.960 . S
C4700 H4686 0.960 . S
C4700 H4687 0.960 . S
C4700 C4699 1.524 . S
C4701 C4698 1.403 . S
C4701 C4702 1.392 . S
C4701 C4705 1.495 . S
C4702 C4701 1.392 . S
C4702 C4703 1.385 . S
C4702 C4704 1.478 . S
C4703 H4697 0.930 . S
C4703 C4699 1.400 . S
C4703 C4702 1.385 . S
C4704 C4702 1.478 . S
C4704 C4706 1.381 . S
C4704 C4710 1.383 . S
C4705 C4701 1.495 . S
C4705 H4711 0.959 . S
C4705 H4712 0.961 . S
C4705 H4713 0.960 . S
C4706 C4704 1.381 . S
C4706 C4707 1.394 . S
C4706 H4714 0.930 . S
C4707 C4706 1.394 . S
C4707 C4708 1.383 . S
C4707 H4715 0.929 . S
C4708 C4707 1.383 . S
C4708 C4709 1.377 . S
C4709 H4693 0.930 . S
C4709 C4708 1.377 . S
C4709 C4710 1.379 . S
C4710 H4694 0.931 . S
C4710 C4704 1.383 . S
C4710 C4709 1.379 . S
H4711 C4705 0.959 . S
H4712 C4705 0.961 . S
H4713 C4705 0.960 . S
H4714 C4706 0.930 . S
H4715 C4707 0.929 . S
H4716 C4724 0.929 . S
H4717 C4726 0.930 . S
H4718 C4728 0.930 . S
H4719 C4731 0.929 . S
H4720 C4734 0.930 . S
H4721 C4736 0.960 . S
H4722 C4736 0.960 . S
H4723 C4736 0.960 . S
C4724 H4716 0.929 . S
C4724 C4725 1.377 . S
C4724 C4726 1.384 . S
C4725 C4724 1.377 . S
C4725 C4731 1.390 . S
C4726 H4717 0.930 . S
C4726 C4724 1.384 . S
C4726 C4727 1.372 . S
C4727 C4726 1.372 . S
C4727 C4728 1.400 . S
C4727 C4732 1.490 . S
C4728 H4718 0.930 . S
C4728 C4727 1.400 . S
C4728 C4731 1.386 . S
H4729 C4745 0.930 . S
H4730 C4746 0.931 . S
C4731 H4719 0.929 . S
C4731 C4725 1.390 . S
C4731 C4728 1.386 . S
C4732 C4727 1.490 . S
C4732 C4734 1.395 . S
C4732 C4735 1.403 . S
H4733 C4739 0.930 . S
C4734 H4720 0.930 . S
C4734 C4732 1.395 . S
C4734 C4737 1.403 . S
C4735 C4732 1.403 . S
C4735 C4736 1.524 . S
C4735 C4739 1.400 . S
C4736 H4721 0.960 . S
C4736 H4722 0.960 . S
C4736 H4723 0.960 . S
C4736 C4735 1.524 . S
C4737 C4734 1.403 . S
C4737 C4738 1.392 . S
C4737 C4741 1.495 . S
C4738 C4737 1.392 . S
C4738 C4739 1.385 . S
C4738 C4740 1.478 . S
C4739 H4733 0.930 . S
C4739 C4735 1.400 . S
C4739 C4738 1.385 . S
C4740 C4738 1.478 . S
C4740 C4742 1.381 . S
C4740 C4746 1.383 . S
C4741 C4737 1.495 . S
C4741 H4747 0.959 . S
C4741 H4748 0.961 . S
C4741 H4749 0.960 . S
C4742 C4740 1.381 . S
C4742 C4743 1.394 . S
C4742 H4750 0.930 . S
C4743 C4742 1.394 . S
C4743 C4744 1.383 . S
C4743 H4751 0.929 . S
C4744 C4743 1.383 . S
C4744 C4745 1.377 . S
C4745 H4729 0.930 . S
C4745 C4744 1.377 . S
C4745 C4746 1.379 . S
C4746 H4730 0.931 . S
C4746 C4740 1.383 . S
C4746 C4745 1.379 . S
H4747 C4741 0.959 . S
H4748 C4741 0.961 . S
H4749 C4741 0.960 . S
H4750 C4742 0.930 . S
H4751 C4743 0.929 . S
H4752 C4760 0.929 . S
H4753 C4762 0.930 . S
H4754 C4764 0.930 . S
H4755 C4767 0.929 . S
H4756 C4770 0.930 . S
H4757 C4772 0.960 . S
H4758 C4772 0.960 . S
H4759 C4772 0.960 . S
C4760 H4752 0.929 . S
C4760 C4761 1.377 . S
C4760 C4762 1.384 . S
C4761 C4760 1.377 . S
C4761 C4767 1.390 . S
C4762 H4753 0.930 . S
C4762 C4760 1.384 . S
C4762 C4763 1.372 . S
C4763 C4762 1.372 . S
C4763 C4764 1.400 . S
C4763 C4768 1.490 . S
C4764 H4754 0.930 . S
C4764 C4763 1.400 . S
C4764 C4767 1.386 . S
H4765 C4781 0.930 . S
H4766 C4782 0.931 . S
C4767 H4755 0.929 . S
C4767 C4761 1.390 . S
C4767 C4764 1.386 . S
C4768 C4763 1.490 . S
C4768 C4770 1.395 . S
C4768 C4771 1.403 . S
H4769 C4775 0.930 . S
C4770 H4756 0.930 . S
C4770 C4768 1.395 . S
C4770 C4773 1.403 . S
C4771 C4768 1.403 . S
C4771 C4772 1.524 . S
C4771 C4775 1.400 . S
C4772 H4757 0.960 . S
C4772 H4758 0.960 . S
C4772 H4759 0.960 . S
C4772 C4771 1.524 . S
C4773 C4770 1.403 . S
C4773 C4774 1.392 . S
C4773 C4777 1.495 . S
C4774 C4773 1.392 . S
C4774 C4775 1.385 . S
C4774 C4776 1.478 . S
C4775 H4769 0.930 . S
C4775 C4771 1.400 . S
C4775 C4774 1.385 . S
C4776 C4774 1.478 . S
C4776 C4778 1.381 . S
C4776 C4782 1.383 . S
C4777 C4773 1.495 . S
C4777 H4783 0.959 . S
C4777 H4784 0.961 . S
C4777 H4785 0.960 . S
C4778 C4776 1.381 . S
C4778 C4779 1.394 . S
C4778 H4786 0.930 . S
C4779 C4778 1.394 . S
C4779 C4780 1.383 . S
C4779 H4787 0.929 . S
C4780 C4779 1.383 . S
C4780 C4781 1.377 . S
C4781 H4765 0.930 . S
C4781 C4780 1.377 . S
C4781 C4782 1.379 . S
C4782 H4766 0.931 . S
C4782 C4776 1.383 . S
C4782 C4781 1.379 . S
H4783 C4777 0.959 . S
H4784 C4777 0.961 . S
H4785 C4777 0.960 . S
H4786 C4778 0.930 . S
H4787 C4779 0.929 . S
H4788 C4796 0.929 . S
H4789 C4798 0.930 . S
H4790 C4800 0.930 . S
H4791 C4803 0.929 . S
H4792 C4806 0.930 . S
H4793 C4808 0.960 . S
H4794 C4808 0.960 . S
H4795 C4808 0.960 . S
C4796 H4788 0.929 . S
C4796 C4797 1.377 . S
C4796 C4798 1.384 . S
C4797 C4796 1.377 . S
C4797 C4803 1.390 . S
C4798 H4789 0.930 . S
C4798 C4796 1.384 . S
C4798 C4799 1.372 . S
C4799 C4798 1.372 . S
C4799 C4800 1.400 . S
C4799 C4804 1.490 . S
C4800 H4790 0.930 . S
C4800 C4799 1.400 . S
C4800 C4803 1.386 . S
H4801 C4817 0.930 . S
H4802 C4818 0.931 . S
C4803 H4791 0.929 . S
C4803 C4797 1.390 . S
C4803 C4800 1.386 . S
C4804 C4799 1.490 . S
C4804 C4806 1.395 . S
C4804 C4807 1.403 . S
H4805 C4811 0.930 . S
C4806 H4792 0.930 . S
C4806 C4804 1.395 . S
C4806 C4809 1.403 . S
C4807 C4804 1.403 . S
C4807 C4808 1.524 . S
C4807 C4811 1.400 . S
C4808 H4793 0.960 . S
C4808 H4794 0.960 . S
C4808 H4795 0.960 . S
C4808 C4807 1.524 . S
C4809 C4806 1.403 . S
C4809 C4810 1.392 . S
C4809 C4813 1.495 . S
C4810 C4809 1.392 . S
C4810 C4811 1.385 . S
C4810 C4812 1.478 . S
C4811 H4805 0.930 . S
C4811 C4807 1.400 . S
C4811 C4810 1.385 . S
C4812 C4810 1.478 . S
C4812 C4814 1.381 . S
C4812 C4818 1.383 . S
C4813 C4809 1.495 . S
C4813 H4819 0.959 . S
C4813 H4820 0.961 . S
C4813 H4821 0.960 . S
C4814 C4812 1.381 . S
C4814 C4815 1.394 . S
C4814 H4822 0.930 . S
C4815 C4814 1.394 . S
C4815 C4816 1.383 . S
C4815 H4823 0.929 . S
C4816 C4815 1.383 . S
C4816 C4817 1.377 . S
C4817 H4801 0.930 . S
C4817 C4816 1.377 . S
C4817 C4818 1.379 . S
C4818 H4802 0.931 . S
C4818 C4812 1.383 . S
C4818 C4817 1.379 . S
H4819 C4813 0.959 . S
H4820 C4813 0.961 . S
H4821 C4813 0.960 . S
H4822 C4814 0.930 . S
H4823 C4815 0.929 . S
H4824 C4832 0.929 . S
H4825 C4834 0.930 . S
H4826 C4836 0.930 . S
H4827 C4839 0.929 . S
H4828 C4842 0.930 . S
H4829 C4844 0.960 . S
H4830 C4844 0.960 . S
H4831 C4844 0.960 . S
C4832 H4824 0.929 . S
C4832 C4833 1.377 . S
C4832 C4834 1.384 . S
C4833 C4832 1.377 . S
C4833 C4839 1.390 . S
C4834 H4825 0.930 . S
C4834 C4832 1.384 . S
C4834 C4835 1.372 . S
C4835 C4834 1.372 . S
C4835 C4836 1.400 . S
C4835 C4840 1.490 . S
C4836 H4826 0.930 . S
C4836 C4835 1.400 . S
C4836 C4839 1.386 . S
H4837 C4853 0.930 . S
H4838 C4854 0.931 . S
C4839 H4827 0.929 . S
C4839 C4833 1.390 . S
C4839 C4836 1.386 . S
C4840 C4835 1.490 . S
C4840 C4842 1.395 . S
C4840 C4843 1.403 . S
H4841 C4847 0.930 . S
C4842 H4828 0.930 . S
C4842 C4840 1.395 . S
C4842 C4845 1.403 . S
C4843 C4840 1.403 . S
C4843 C4844 1.524 . S
C4843 C4847 1.400 . S
C4844 H4829 0.960 . S
C4844 H4830 0.960 . S
C4844 H4831 0.960 . S
C4844 C4843 1.524 . S
C4845 C4842 1.403 . S
C4845 C4846 1.392 . S
C4845 C4849 1.495 . S
C4846 C4845 1.392 . S
C4846 C4847 1.385 . S
C4846 C4848 1.478 . S
C4847 H4841 0.930 . S
C4847 C4843 1.400 . S
C4847 C4846 1.385 . S
C4848 C4846 1.478 . S
C4848 C4850 1.381 . S
C4848 C4854 1.383 . S
C4849 C4845 1.495 . S
C4849 H4855 0.959 . S
C4849 H4856 0.961 . S
C4849 H4857 0.960 . S
C4850 C4848 1.381 . S
C4850 C4851 1.394 . S
C4850 H4858 0.930 . S
C4851 C4850 1.394 . S
C4851 C4852 1.383 . S
C4851 H4859 0.929 . S
C4852 C4851 1.383 . S
C4852 C4853 1.377 . S
C4853 H4837 0.930 . S
C4853 C4852 1.377 . S
C4853 C4854 1.379 . S
C4854 H4838 0.931 . S
C4854 C4848 1.383 . S
C4854 C4853 1.379 . S
H4855 C4849 0.959 . S
H4856 C4849 0.961 . S
H4857 C4849 0.960 . S
H4858 C4850 0.930 . S
H4859 C4851 0.929 . S
H4860 C4868 0.929 . S
H4861 C4870 0.930 . S
H4862 C4872 0.930 . S
H4863 C4875 0.929 . S
H4864 C4878 0.930 . S
H4865 C4880 0.960 . S
H4866 C4880 0.960 . S
H4867 C4880 0.960 . S
C4868 H4860 0.929 . S
C4868 C4869 1.377 . S
C4868 C4870 1.384 . S
C4869 C4868 1.377 . S
C4869 C4875 1.390 . S
C4870 H4861 0.930 . S
C4870 C4868 1.384 . S
C4870 C4871 1.372 . S
C4871 C4870 1.372 . S
C4871 C4872 1.400 . S
C4871 C4876 1.490 . S
C4872 H4862 0.930 . S
C4872 C4871 1.400 . S
C4872 C4875 1.386 . S
H4873 C4889 0.930 . S
H4874 C4890 0.931 . S
C4875 H4863 0.929 . S
C4875 C4869 1.390 . S
C4875 C4872 1.386 . S
C4876 C4871 1.490 . S
C4876 C4878 1.395 . S
C4876 C4879 1.403 . S
H4877 C4883 0.930 . S
C4878 H4864 0.930 . S
C4878 C4876 1.395 . S
C4878 C4881 1.403 . S
C4879 C4876 1.403 . S
C4879 C4880 1.524 . S
C4879 C4883 1.400 . S
C4880 H4865 0.960 . S
C4880 H4866 0.960 . S
C4880 H4867 0.960 . S
C4880 C4879 1.524 . S
C4881 C4878 1.403 . S
C4881 C4882 1.392 . S
C4881 C4885 1.495 . S
C4882 C4881 1.392 . S
C4882 C4883 1.385 . S
C4882 C4884 1.478 . S
C4883 H4877 0.930 . S
C4883 C4879 1.400 . S
C4883 C4882 1.385 . S
C4884 C4882 1.478 . S
C4884 C4886 1.381 . S
C4884 C4890 1.383 . S
C4885 C4881 1.495 . S
C4885 H4891 0.959 . S
C4885 H4892 0.961 . S
C4885 H4893 0.960 . S
C4886 C4884 1.381 . S
C4886 C4887 1.394 . S
C4886 H4894 0.930 . S
C4887 C4886 1.394 . S
C4887 C4888 1.383 . S
C4887 H4895 0.929 . S
C4888 C4887 1.383 . S
C4888 C4889 1.377 . S
C4889 H4873 0.930 . S
C4889 C4888 1.377 . S
C4889 C4890 1.379 . S
C4890 H4874 0.931 . S
C4890 C4884 1.383 . S
C4890 C4889 1.379 . S
H4891 C4885 0.959 . S
H4892 C4885 0.961 . S
H4893 C4885 0.960 . S
H4894 C4886 0.930 . S
H4895 C4887 0.929 . S
H4896 C4904 0.929 . S
H4897 C4906 0.930 . S
H4898 C4908 0.930 . S
H4899 C4911 0.929 . S
H4900 C4914 0.930 . S
H4901 C4916 0.960 . S
H4902 C4916 0.960 . S
H4903 C4916 0.960 . S
C4904 H4896 0.929 . S
C4904 C4905 1.377 . S
C4904 C4906 1.384 . S
C4905 C4904 1.377 . S
C4905 C4911 1.390 . S
C4906 H4897 0.930 . S
C4906 C4904 1.384 . S
C4906 C4907 1.372 . S
C4907 C4906 1.372 . S
C4907 C4908 1.400 . S
C4907 C4912 1.490 . S
C4908 H4898 0.930 . S
C4908 C4907 1.400 . S
C4908 C4911 1.386 . S
H4909 C4925 0.930 . S
H4910 C4926 0.931 . S
C4911 H4899 0.929 . S
C4911 C4905 1.390 . S
C4911 C4908 1.386 . S
C4912 C4907 1.490 . S
C4912 C4914 1.395 . S
C4912 C4915 1.403 . S
H4913 C4919 0.930 . S
C4914 H4900 0.930 . S
C4914 C4912 1.395 . S
C4914 C4917 1.403 . S
C4915 C4912 1.403 . S
C4915 C4916 1.524 . S
C4915 C4919 1.400 . S
C4916 H4901 0.960 . S
C4916 H4902 0.960 . S
C4916 H4903 0.960 . S
C4916 C4915 1.524 . S
C4917 C4914 1.403 . S
C4917 C4918 1.392 . S
C4917 C4921 1.495 . S
C4918 C4917 1.392 . S
C4918 C4919 1.385 . S
C4918 C4920 1.478 . S
C4919 H4913 0.930 . S
C4919 C4915 1.400 . S
C4919 C4918 1.385 . S
C4920 C4918 1.478 . S
C4920 C4922 1.381 . S
C4920 C4926 1.383 . S
C4921 C4917 1.495 . S
C4921 H4927 0.959 . S
C4921 H4928 0.961 . S
C4921 H4929 0.960 . S
C4922 C4920 1.381 . S
C4922 C4923 1.394 . S
C4922 H4930 0.930 . S
C4923 C4922 1.394 . S
C4923 C4924 1.383 . S
C4923 H4931 0.929 . S
C4924 C4923 1.383 . S
C4924 C4925 1.377 . S
C4925 H4909 0.930 . S
C4925 C4924 1.377 . S
C4925 C4926 1.379 . S
C4926 H4910 0.931 . S
C4926 C4920 1.383 . S
C4926 C4925 1.379 . S
H4927 C4921 0.959 . S
H4928 C4921 0.961 . S
H4929 C4921 0.960 . S
H4930 C4922 0.930 . S
H4931 C4923 0.929 . S
H4932 C4940 0.929 . S
H4933 C4942 0.930 . S
H4934 C4944 0.930 . S
H4935 C4947 0.929 . S
H4936 C4950 0.930 . S
H4937 C4952 0.960 1_556 S
H4938 C4952 0.960 . S
H4939 C4952 0.962 1_556 S
C4940 H4932 0.929 . S
C4940 C4941 1.377 . S
C4940 C4942 1.384 . S
C4941 C4940 1.377 . S
C4941 C4947 1.390 . S
C4942 H4933 0.930 . S
C4942 C4940 1.384 . S
C4942 C4943 1.372 . S
C4943 C4942 1.372 . S
C4943 C4944 1.400 . S
C4943 C4948 1.490 . S
C4944 H4934 0.930 . S
C4944 C4943 1.400 . S
C4944 C4947 1.386 . S
H4945 C4961 0.930 . S
H4946 C4962 0.931 . S
C4947 H4935 0.929 . S
C4947 C4941 1.390 . S
C4947 C4944 1.386 . S
C4948 C4943 1.490 . S
C4948 C4950 1.395 . S
C4948 C4951 1.403 . S
H4949 C4955 0.930 . S
C4950 H4936 0.930 . S
C4950 C4948 1.395 . S
C4950 C4953 1.403 . S
C4951 C4948 1.403 . S
C4951 C4952 1.524 . S
C4951 C4955 1.400 . S
C4952 H4937 0.960 1_554 S
C4952 H4938 0.960 . S
C4952 H4939 0.962 1_554 S
C4952 C4951 1.524 . S
C4953 C4950 1.403 . S
C4953 C4954 1.392 . S
C4953 C4957 1.495 . S
C4954 C4953 1.392 . S
C4954 C4955 1.385 . S
C4954 C4956 1.478 . S
C4955 H4949 0.930 . S
C4955 C4951 1.400 . S
C4955 C4954 1.385 . S
C4956 C4954 1.478 . S
C4956 C4958 1.381 . S
C4956 C4962 1.383 . S
C4957 C4953 1.495 . S
C4957 H4963 0.959 . S
C4957 H4964 0.961 . S
C4957 H4965 0.960 . S
C4958 C4956 1.381 . S
C4958 C4959 1.394 . S
C4958 H4966 0.930 . S
C4959 C4958 1.394 . S
C4959 C4960 1.383 . S
C4959 H4967 0.929 . S
C4960 C4959 1.383 . S
C4960 C4961 1.377 . S
C4961 H4945 0.930 . S
C4961 C4960 1.377 . S
C4961 C4962 1.379 . S
C4962 H4946 0.931 . S
C4962 C4956 1.383 . S
C4962 C4961 1.379 . S
H4963 C4957 0.959 . S
H4964 C4957 0.961 . S
H4965 C4957 0.960 . S
H4966 C4958 0.930 . S
H4967 C4959 0.929 . S
H4968 C4976 0.929 . S
H4969 C4978 0.930 . S
H4970 C4980 0.930 . S
H4971 C4983 0.929 . S
H4972 C4986 0.930 . S
H4973 C4988 0.960 . S
H4974 C4988 0.960 . S
H4975 C4988 0.960 . S
C4976 H4968 0.929 . S
C4976 C4977 1.377 . S
C4976 C4978 1.384 . S
C4977 C4976 1.377 . S
C4977 C4983 1.390 . S
C4978 H4969 0.930 . S
C4978 C4976 1.384 . S
C4978 C4979 1.372 . S
C4979 C4978 1.372 . S
C4979 C4980 1.400 . S
C4979 C4984 1.490 . S
C4980 H4970 0.930 . S
C4980 C4979 1.400 . S
C4980 C4983 1.386 . S
H4981 C4997 0.930 . S
H4982 C4998 0.931 . S
C4983 H4971 0.929 . S
C4983 C4977 1.390 . S
C4983 C4980 1.386 . S
C4984 C4979 1.490 . S
C4984 C4986 1.395 . S
C4984 C4987 1.403 . S
H4985 C4991 0.930 . S
C4986 H4972 0.930 . S
C4986 C4984 1.395 . S
C4986 C4989 1.403 . S
C4987 C4984 1.403 . S
C4987 C4988 1.524 . S
C4987 C4991 1.400 . S
C4988 H4973 0.960 . S
C4988 H4974 0.960 . S
C4988 H4975 0.960 . S
C4988 C4987 1.524 . S
C4989 C4986 1.403 . S
C4989 C4990 1.392 . S
C4989 C4993 1.495 . S
C4990 C4989 1.392 . S
C4990 C4991 1.385 . S
C4990 C4992 1.478 . S
C4991 H4985 0.930 . S
C4991 C4987 1.400 . S
C4991 C4990 1.385 . S
C4992 C4990 1.478 . S
C4992 C4994 1.381 . S
C4992 C4998 1.383 . S
C4993 C4989 1.495 . S
C4993 H4999 0.959 . S
C4993 H5000 0.961 . S
C4993 H5001 0.960 . S
C4994 C4992 1.381 . S
C4994 C4995 1.394 . S
C4994 H5002 0.930 . S
C4995 C4994 1.394 . S
C4995 C4996 1.383 . S
C4995 H5003 0.929 . S
C4996 C4995 1.383 . S
C4996 C4997 1.377 . S
C4997 H4981 0.930 . S
C4997 C4996 1.377 . S
C4997 C4998 1.379 . S
C4998 H4982 0.931 . S
C4998 C4992 1.383 . S
C4998 C4997 1.379 . S
H4999 C4993 0.959 . S
H5000 C4993 0.961 . S
H5001 C4993 0.960 . S
H5002 C4994 0.930 . S
H5003 C4995 0.929 . S
H5004 C5012 0.929 . S
H5005 C5014 0.930 . S
H5006 C5016 0.930 . S
H5007 C5019 0.929 . S
H5008 C5022 0.930 . S
H5009 C5024 0.960 . S
H5010 C5024 0.960 . S
H5011 C5024 0.960 . S
C5012 H5004 0.929 . S
C5012 C5013 1.377 . S
C5012 C5014 1.384 . S
C5013 C5012 1.377 . S
C5013 C5019 1.390 . S
C5014 H5005 0.930 . S
C5014 C5012 1.384 . S
C5014 C5015 1.372 . S
C5015 C5014 1.372 . S
C5015 C5016 1.400 . S
C5015 C5020 1.490 . S
C5016 H5006 0.930 . S
C5016 C5015 1.400 . S
C5016 C5019 1.386 . S
H5017 C5033 0.930 . S
H5018 C5034 0.931 . S
C5019 H5007 0.929 . S
C5019 C5013 1.390 . S
C5019 C5016 1.386 . S
C5020 C5015 1.490 . S
C5020 C5022 1.395 . S
C5020 C5023 1.403 . S
H5021 C5027 0.930 1_556 S
C5022 H5008 0.930 . S
C5022 C5020 1.395 . S
C5022 C5025 1.403 . S
C5023 C5020 1.403 . S
C5023 C5024 1.524 1_554 S
C5023 C5027 1.400 . S
C5024 H5009 0.960 . S
C5024 H5010 0.960 . S
C5024 H5011 0.960 . S
C5024 C5023 1.524 1_556 S
C5025 C5022 1.403 . S
C5025 C5026 1.392 . S
C5025 C5029 1.495 . S
C5026 C5025 1.392 . S
C5026 C5027 1.385 . S
C5026 C5028 1.478 . S
C5027 H5021 0.930 1_554 S
C5027 C5023 1.400 . S
C5027 C5026 1.385 . S
C5028 C5026 1.478 . S
C5028 C5030 1.381 . S
C5028 C5034 1.383 . S
C5029 C5025 1.495 . S
C5029 H5035 0.959 . S
C5029 H5036 0.961 . S
C5029 H5037 0.960 . S
C5030 C5028 1.381 . S
C5030 C5031 1.394 . S
C5030 H5038 0.930 . S
C5031 C5030 1.394 . S
C5031 C5032 1.383 . S
C5031 H5039 0.929 . S
C5032 C5031 1.383 . S
C5032 C5033 1.377 . S
C5033 H5017 0.930 . S
C5033 C5032 1.377 . S
C5033 C5034 1.379 . S
C5034 H5018 0.931 . S
C5034 C5028 1.383 . S
C5034 C5033 1.379 . S
H5035 C5029 0.959 . S
H5036 C5029 0.961 . S
H5037 C5029 0.960 . S
H5038 C5030 0.930 . S
H5039 C5031 0.929 . S
H5040 C5048 0.929 . S
H5041 C5050 0.930 . S
H5042 C5052 0.930 . S
H5043 C5055 0.929 . S
H5044 C5058 0.930 . S
H5045 C5060 0.960 . S
H5046 C5060 0.960 . S
H5047 C5060 0.960 . S
C5048 H5040 0.929 . S
C5048 C5049 1.377 . S
C5048 C5050 1.384 . S
C5049 C5048 1.377 . S
C5049 C5055 1.390 . S
C5050 H5041 0.930 . S
C5050 C5048 1.384 . S
C5050 C5051 1.372 . S
C5051 C5050 1.372 . S
C5051 C5052 1.400 . S
C5051 C5056 1.490 . S
C5052 H5042 0.930 . S
C5052 C5051 1.400 . S
C5052 C5055 1.386 . S
H5053 C5069 0.930 . S
H5054 C5070 0.931 . S
C5055 H5043 0.929 . S
C5055 C5049 1.390 . S
C5055 C5052 1.386 . S
C5056 C5051 1.490 . S
C5056 C5058 1.395 . S
C5056 C5059 1.403 . S
H5057 C5063 0.930 . S
C5058 H5044 0.930 . S
C5058 C5056 1.395 . S
C5058 C5061 1.403 . S
C5059 C5056 1.403 . S
C5059 C5060 1.524 . S
C5059 C5063 1.400 . S
C5060 H5045 0.960 . S
C5060 H5046 0.960 . S
C5060 H5047 0.960 . S
C5060 C5059 1.524 . S
C5061 C5058 1.403 . S
C5061 C5062 1.392 . S
C5061 C5065 1.495 . S
C5062 C5061 1.392 . S
C5062 C5063 1.385 . S
C5062 C5064 1.478 . S
C5063 H5057 0.930 . S
C5063 C5059 1.400 . S
C5063 C5062 1.385 . S
C5064 C5062 1.478 . S
C5064 C5066 1.381 . S
C5064 C5070 1.383 . S
C5065 C5061 1.495 . S
C5065 H5071 0.959 . S
C5065 H5072 0.961 . S
C5065 H5073 0.960 . S
C5066 C5064 1.381 . S
C5066 C5067 1.394 . S
C5066 H5074 0.930 . S
C5067 C5066 1.394 . S
C5067 C5068 1.383 . S
C5067 H5075 0.929 . S
C5068 C5067 1.383 . S
C5068 C5069 1.377 . S
C5069 H5053 0.930 . S
C5069 C5068 1.377 . S
C5069 C5070 1.379 . S
C5070 H5054 0.931 . S
C5070 C5064 1.383 . S
C5070 C5069 1.379 . S
H5071 C5065 0.959 . S
H5072 C5065 0.961 . S
H5073 C5065 0.960 . S
H5074 C5066 0.930 . S
H5075 C5067 0.929 . S
H5076 C5084 0.929 . S
H5077 C5086 0.930 . S
H5078 C5088 0.930 . S
H5079 C5091 0.929 . S
H5080 C5094 0.930 . S
H5081 C5096 0.960 . S
H5082 C5096 0.960 . S
H5083 C5096 0.960 . S
C5084 H5076 0.929 . S
C5084 C5085 1.377 . S
C5084 C5086 1.384 . S
C5085 C5084 1.377 . S
C5085 C5091 1.390 . S
C5086 H5077 0.930 . S
C5086 C5084 1.384 . S
C5086 C5087 1.372 . S
C5087 C5086 1.372 . S
C5087 C5088 1.400 . S
C5087 C5092 1.490 . S
C5088 H5078 0.930 . S
C5088 C5087 1.400 . S
C5088 C5091 1.386 . S
H5089 C5105 0.930 . S
H5090 C5106 0.931 . S
C5091 H5079 0.929 . S
C5091 C5085 1.390 . S
C5091 C5088 1.386 . S
C5092 C5087 1.490 . S
C5092 C5094 1.395 . S
C5092 C5095 1.403 . S
H5093 C5099 0.930 . S
C5094 H5080 0.930 . S
C5094 C5092 1.395 . S
C5094 C5097 1.403 . S
C5095 C5092 1.403 . S
C5095 C5096 1.524 . S
C5095 C5099 1.400 . S
C5096 H5081 0.960 . S
C5096 H5082 0.960 . S
C5096 H5083 0.960 . S
C5096 C5095 1.524 . S
C5097 C5094 1.403 . S
C5097 C5098 1.392 . S
C5097 C5101 1.495 . S
C5098 C5097 1.392 . S
C5098 C5099 1.385 . S
C5098 C5100 1.478 . S
C5099 H5093 0.930 . S
C5099 C5095 1.400 . S
C5099 C5098 1.385 . S
C5100 C5098 1.478 . S
C5100 C5102 1.381 . S
C5100 C5106 1.383 . S
C5101 C5097 1.495 . S
C5101 H5107 0.959 . S
C5101 H5108 0.961 . S
C5101 H5109 0.960 . S
C5102 C5100 1.381 . S
C5102 C5103 1.394 . S
C5102 H5110 0.930 . S
C5103 C5102 1.394 . S
C5103 C5104 1.383 . S
C5103 H5111 0.929 . S
C5104 C5103 1.383 . S
C5104 C5105 1.377 . S
C5105 H5089 0.930 . S
C5105 C5104 1.377 . S
C5105 C5106 1.379 . S
C5106 H5090 0.931 . S
C5106 C5100 1.383 . S
C5106 C5105 1.379 . S
H5107 C5101 0.959 . S
H5108 C5101 0.961 . S
H5109 C5101 0.960 . S
H5110 C5102 0.930 . S
H5111 C5103 0.929 . S
C1665 C101 2.043 . S
C1684 C368 2.043 . S
C1701 C57 1.819 . S
C1720 C470 1.831 . S
C1737 C73 1.806 . S
C1756 C536 1.886 . S
C1792 C622 1.434 . S
C1773 C78 1.513 . S
C1809 C21 1.631 . S
C1828 C706 1.492 . S
C1864 C788 1.838 . S
C1845 C31 1.756 . S
C1900 C890 1.858 . S
C1881 C49 1.873 . S
C1917 C0 1.860 . S
C1936 C956 1.966 . S
C1972 C386 1.549 . S
C1953 C218 1.559 . S
C1989 C229 0.873 . S
C2008 C454 0.848 . S
C2044 C554 1.043 . S
C2025 C257 1.068 . S
C2080 C620 1.593 . S
C2061 C164 1.527 1_556 S
C2097 C216 1.519 . S
C2116 C704 1.570 . S
C2152 C806 1.077 . S
C2133 C231 1.080 . S
C2188 C874 0.912 . S
C2169 C255 0.876 . S
C2224 C974 1.515 . S
C2205 C166 1.540 . S
C2260 C370 0.888 . S
C2241 C143 0.853 1_556 S
C2277 C265 1.668 . S
C2296 C1058 1.661 . S
C2332 C1126 1.235 . S
C2313 C299 1.259 . S
C2368 C1208 0.826 . S
C2349 C291 0.811 . S
C2385 C104 0.791 . S
C2404 C958 0.845 . S
C2421 C117 1.311 . S
C2440 C538 1.236 . S
C2457 C304 1.595 . S
C2476 C1310 1.599 . S
C2512 C1376 0.696 . S
C2493 C278 0.708 . S
C2548 C379 1.967 . S
C2529 C60 1.948 . S
C2584 C1383 1.716 . S
C2565 C96 1.732 . S
C2601 C88 1.770 . S
C2620 C547 1.759 . S
C2637 C65 1.445 . S
C2656 C1305 1.366 . S
C2692 C717 1.433 . S
C2673 C10 1.558 . S
C2709 C44 1.653 . S
C2728 C1135 1.733 . S
C2764 C879 1.773 1_556 S
C2745 C34 1.718 . S
C2800 C1471 1.878 . S
C2781 C13 1.844 . S
C2836 C375 1.401 . S
C2817 C138 1.433 . S
C2872 C1389 0.711 . S
C2853 C296 0.784 . S
C2889 C112 0.968 . S
C2908 C543 0.973 . S
C2925 C270 1.493 . S
C2944 C1303 1.495 . S
C2961 C140 1.469 . S
C2980 C715 1.457 . S
C3016 C1131 0.962 . S
C2997 C294 0.964 . S
C3033 C114 0.797 . S
C3052 C885 0.859 . S
C3069 C268 1.420 . S
C3088 C1467 1.418 . S
C3105 C169 0.827 . S
C3124 C381 0.795 . S
C3141 C161 1.595 . S
C3160 C1047 1.591 . S
C3177 C234 1.252 . S
C3196 C801 1.169 . S
C3213 C226 0.721 . S
C3232 C1219 0.719 . S
C3268 C1473 0.785 . S
C3249 C247 0.763 . S
C3285 C195 1.275 . S
C3304 C549 1.221 . S
C3340 C627 1.518 . S
C3321 C239 1.521 . S
C3376 C463 0.602 . S
C3357 C187 0.621 . S
C3393 C75 2.042 . S
C3412 C1544 2.045 . S
C3448 C1394 1.847 . S
C3429 C83 1.816 . S
C3465 C99 1.799 . S
C3484 C1628 1.891 . S
C3501 C52 1.513 1_655 S
C3520 C1294 1.413 . S
C3537 C47 1.632 . S
C3556 C1042 1.490 . S
C3592 C1124 1.845 . S
C3573 C5 1.746 . S
C3628 C1226 1.856 . S
C3609 C23 1.874 . S
C3664 C1460 1.961 . S
C3645 C26 1.862 . S
C3700 C1562 1.530 . S
C3681 C244 1.558 . S
C3717 C177 0.877 . S
C3736 C1378 0.910 . S
C3772 C1646 1.083 . S
C3753 C192 1.068 . S
C3808 C1292 1.585 . S
C3789 C203 1.533 . S
C3844 C1040 1.578 . S
C3825 C242 1.523 . S
C3861 C179 1.080 . S
C3880 C1142 1.070 . S
C3916 C1210 0.899 . S
C3897 C190 0.872 . S
C3933 C205 1.540 . S
C3952 C1478 1.520 . S
C3988 C1546 0.908 . S
C3969 C286 0.864 . S
C4005 C122 1.662 . S
C4024 C722 1.693 . S
C4060 C790 1.242 . S
C4041 C130 1.307 . S
C4096 C872 0.830 . S
C4077 C148 0.802 . S
C4132 C1462 0.770 . S
C4113 C273 0.806 . S
C4149 C260 1.301 . S
C4168 C1630 1.248 . S
C4204 C638 1.596 . S
C4185 C135 1.596 . S
C4240 C452 0.691 . S
C4221 C109 0.715 . S
C4257 C86 1.950 . S
C4276 C1555 1.969 . S
C4312 C459 1.709 . S
C4293 C70 1.731 . S
C4329 C62 1.771 . S
C4348 C1639 1.766 . S
C4365 C91 1.443 . S
C4384 C633 1.321 . S
C4401 C36 1.561 . S
C4420 C1053 1.447 . S
C4456 C799 1.736 . S
C4437 C18 1.656 . S
C4473 C8 1.716 . S
C4492 C1215 1.772 . S
C4509 C39 1.846 . S
C4528 C967 1.878 . S
C4564 C1551 1.415 . S
C4545 C307 1.435 . S
C4581 C153 0.785 . S
C4600 C465 0.764 . S
C4636 C1635 0.992 . S
C4617 C281 0.965 . S
C4653 C127 1.494 . S
C4672 C631 1.482 . S
C4689 C309 1.468 . S
C4708 C1051 1.463 . S
C4744 C795 0.995 . S
C4725 C151 0.971 . S
C4761 C283 0.793 . S
C4780 C1221 0.759 . S
C4816 C963 1.379 . S
C4797 C125 1.413 . S
C4852 C1557 0.806 . S
C4833 C221 0.836 . S
C4888 C711 1.601 1_565 S
C4869 C200 1.598 . S
C4905 C208 1.246 . S
C4924 C1137 1.193 . S
C4960 C883 0.724 . S
C4941 C174 0.727 . S
C4977 C182 0.753 . S
C4996 C969 0.697 . S
C5013 C156 1.279 . S
C5032 C1641 1.253 . S
C5068 C1299 1.524 . S
C5049 C213 1.521 . S
C5104 C1387 0.589 . S
C5085 C252 0.610 . S
