# Generated by pormake.
# Topology gar, (4,6)-cn, num edge types: 1
# Building blocks:
#     Node 0, Type 0, BuildingBlock: CEKHIL_clean_sbu_0, # of connection points: 4
#     Node 1, Type 0, BuildingBlock: CEKHIL_clean_sbu_0, # of connection points: 4
#     Node 2, Type 0, BuildingBlock: CEKHIL_clean_sbu_0, # of connection points: 4
#     Node 3, Type 0, BuildingBlock: CEKHIL_clean_sbu_0, # of connection points: 4
#     Node 4, Type 0, BuildingBlock: CEKHIL_clean_sbu_0, # of connection points: 4
#     Node 5, Type 0, BuildingBlock: CEKHIL_clean_sbu_0, # of connection points: 4
#     Node 6, Type 0, BuildingBlock: CEKHIL_clean_sbu_0, # of connection points: 4
#     Node 7, Type 0, BuildingBlock: CEKHIL_clean_sbu_0, # of connection points: 4
#     Node 8, Type 0, BuildingBlock: CEKHIL_clean_sbu_0, # of connection points: 4
#     Node 9, Type 0, BuildingBlock: CEKHIL_clean_sbu_0, # of connection points: 4
#     Node 10, Type 0, BuildingBlock: CEKHIL_clean_sbu_0, # of connection points: 4
#     Node 11, Type 0, BuildingBlock: CEKHIL_clean_sbu_0, # of connection points: 4
#     Node 12, Type 0, BuildingBlock: CEKHIL_clean_sbu_0, # of connection points: 4
#     Node 13, Type 0, BuildingBlock: CEKHIL_clean_sbu_0, # of connection points: 4
#     Node 14, Type 0, BuildingBlock: CEKHIL_clean_sbu_0, # of connection points: 4
#     Node 15, Type 0, BuildingBlock: CEKHIL_clean_sbu_0, # of connection points: 4
#     Node 16, Type 0, BuildingBlock: CEKHIL_clean_sbu_0, # of connection points: 4
#     Node 17, Type 0, BuildingBlock: CEKHIL_clean_sbu_0, # of connection points: 4
#     Node 18, Type 0, BuildingBlock: CEKHIL_clean_sbu_0, # of connection points: 4
#     Node 19, Type 0, BuildingBlock: CEKHIL_clean_sbu_0, # of connection points: 4
#     Node 20, Type 0, BuildingBlock: CEKHIL_clean_sbu_0, # of connection points: 4
#     Node 21, Type 0, BuildingBlock: CEKHIL_clean_sbu_0, # of connection points: 4
#     Node 22, Type 0, BuildingBlock: CEKHIL_clean_sbu_0, # of connection points: 4
#     Node 23, Type 0, BuildingBlock: CEKHIL_clean_sbu_0, # of connection points: 4
#     Node 24, Type 1, BuildingBlock: KUMBOL_clean_sbu_0, # of connection points: 6
#     Node 25, Type 1, BuildingBlock: KUMBOL_clean_sbu_0, # of connection points: 6
#     Node 26, Type 1, BuildingBlock: KUMBOL_clean_sbu_0, # of connection points: 6
#     Node 27, Type 1, BuildingBlock: KUMBOL_clean_sbu_0, # of connection points: 6
#     Node 28, Type 1, BuildingBlock: KUMBOL_clean_sbu_0, # of connection points: 6
#     Node 29, Type 1, BuildingBlock: KUMBOL_clean_sbu_0, # of connection points: 6
#     Node 30, Type 1, BuildingBlock: KUMBOL_clean_sbu_0, # of connection points: 6
#     Node 31, Type 1, BuildingBlock: KUMBOL_clean_sbu_0, # of connection points: 6
#     Node 32, Type 1, BuildingBlock: KUMBOL_clean_sbu_0, # of connection points: 6
#     Node 33, Type 1, BuildingBlock: KUMBOL_clean_sbu_0, # of connection points: 6
#     Node 34, Type 1, BuildingBlock: KUMBOL_clean_sbu_0, # of connection points: 6
#     Node 35, Type 1, BuildingBlock: KUMBOL_clean_sbu_0, # of connection points: 6
#     Node 36, Type 1, BuildingBlock: KUMBOL_clean_sbu_0, # of connection points: 6
#     Node 37, Type 1, BuildingBlock: KUMBOL_clean_sbu_0, # of connection points: 6
#     Node 38, Type 1, BuildingBlock: KUMBOL_clean_sbu_0, # of connection points: 6
#     Node 39, Type 1, BuildingBlock: KUMBOL_clean_sbu_0, # of connection points: 6
#     Edge 40, Type (0, 1), BuildingBlock: ZUJKAS_clean_linker_0, # of connection points: 2
#     Edge 41, Type (0, 1), BuildingBlock: ZUJKAS_clean_linker_0, # of connection points: 2
#     Edge 42, Type (0, 1), BuildingBlock: ZUJKAS_clean_linker_0, # of connection points: 2
#     Edge 43, Type (0, 1), BuildingBlock: ZUJKAS_clean_linker_0, # of connection points: 2
#     Edge 44, Type (0, 1), BuildingBlock: ZUJKAS_clean_linker_0, # of connection points: 2
#     Edge 45, Type (0, 1), BuildingBlock: ZUJKAS_clean_linker_0, # of connection points: 2
#     Edge 46, Type (0, 1), BuildingBlock: ZUJKAS_clean_linker_0, # of connection points: 2
#     Edge 47, Type (0, 1), BuildingBlock: ZUJKAS_clean_linker_0, # of connection points: 2
#     Edge 48, Type (0, 1), BuildingBlock: ZUJKAS_clean_linker_0, # of connection points: 2
#     Edge 49, Type (0, 1), BuildingBlock: ZUJKAS_clean_linker_0, # of connection points: 2
#     Edge 50, Type (0, 1), BuildingBlock: ZUJKAS_clean_linker_0, # of connection points: 2
#     Edge 51, Type (0, 1), BuildingBlock: ZUJKAS_clean_linker_0, # of connection points: 2
#     Edge 52, Type (0, 1), BuildingBlock: ZUJKAS_clean_linker_0, # of connection points: 2
#     Edge 53, Type (0, 1), BuildingBlock: ZUJKAS_clean_linker_0, # of connection points: 2
#     Edge 54, Type (0, 1), BuildingBlock: ZUJKAS_clean_linker_0, # of connection points: 2
#     Edge 55, Type (0, 1), BuildingBlock: ZUJKAS_clean_linker_0, # of connection points: 2
#     Edge 56, Type (0, 1), BuildingBlock: ZUJKAS_clean_linker_0, # of connection points: 2
#     Edge 57, Type (0, 1), BuildingBlock: ZUJKAS_clean_linker_0, # of connection points: 2
#     Edge 58, Type (0, 1), BuildingBlock: ZUJKAS_clean_linker_0, # of connection points: 2
#     Edge 59, Type (0, 1), BuildingBlock: ZUJKAS_clean_linker_0, # of connection points: 2
#     Edge 60, Type (0, 1), BuildingBlock: ZUJKAS_clean_linker_0, # of connection points: 2
#     Edge 61, Type (0, 1), BuildingBlock: ZUJKAS_clean_linker_0, # of connection points: 2
#     Edge 62, Type (0, 1), BuildingBlock: ZUJKAS_clean_linker_0, # of connection points: 2
#     Edge 63, Type (0, 1), BuildingBlock: ZUJKAS_clean_linker_0, # of connection points: 2
#     Edge 64, Type (0, 1), BuildingBlock: ZUJKAS_clean_linker_0, # of connection points: 2
#     Edge 65, Type (0, 1), BuildingBlock: ZUJKAS_clean_linker_0, # of connection points: 2
#     Edge 66, Type (0, 1), BuildingBlock: ZUJKAS_clean_linker_0, # of connection points: 2
#     Edge 67, Type (0, 1), BuildingBlock: ZUJKAS_clean_linker_0, # of connection points: 2
#     Edge 68, Type (0, 1), BuildingBlock: ZUJKAS_clean_linker_0, # of connection points: 2
#     Edge 69, Type (0, 1), BuildingBlock: ZUJKAS_clean_linker_0, # of connection points: 2
#     Edge 70, Type (0, 1), BuildingBlock: ZUJKAS_clean_linker_0, # of connection points: 2
#     Edge 71, Type (0, 1), BuildingBlock: ZUJKAS_clean_linker_0, # of connection points: 2
#     Edge 72, Type (0, 1), BuildingBlock: ZUJKAS_clean_linker_0, # of connection points: 2
#     Edge 73, Type (0, 1), BuildingBlock: ZUJKAS_clean_linker_0, # of connection points: 2
#     Edge 74, Type (0, 1), BuildingBlock: ZUJKAS_clean_linker_0, # of connection points: 2
#     Edge 75, Type (0, 1), BuildingBlock: ZUJKAS_clean_linker_0, # of connection points: 2
#     Edge 76, Type (0, 1), BuildingBlock: ZUJKAS_clean_linker_0, # of connection points: 2
#     Edge 77, Type (0, 1), BuildingBlock: ZUJKAS_clean_linker_0, # of connection points: 2
#     Edge 78, Type (0, 1), BuildingBlock: ZUJKAS_clean_linker_0, # of connection points: 2
#     Edge 79, Type (0, 1), BuildingBlock: ZUJKAS_clean_linker_0, # of connection points: 2
#     Edge 80, Type (0, 1), BuildingBlock: ZUJKAS_clean_linker_0, # of connection points: 2
#     Edge 81, Type (0, 1), BuildingBlock: ZUJKAS_clean_linker_0, # of connection points: 2
#     Edge 82, Type (0, 1), BuildingBlock: ZUJKAS_clean_linker_0, # of connection points: 2
#     Edge 83, Type (0, 1), BuildingBlock: ZUJKAS_clean_linker_0, # of connection points: 2
#     Edge 84, Type (0, 1), BuildingBlock: ZUJKAS_clean_linker_0, # of connection points: 2
#     Edge 85, Type (0, 1), BuildingBlock: ZUJKAS_clean_linker_0, # of connection points: 2
#     Edge 86, Type (0, 1), BuildingBlock: ZUJKAS_clean_linker_0, # of connection points: 2
#     Edge 87, Type (0, 1), BuildingBlock: ZUJKAS_clean_linker_0, # of connection points: 2
#     Edge 88, Type (0, 1), BuildingBlock: ZUJKAS_clean_linker_0, # of connection points: 2
#     Edge 89, Type (0, 1), BuildingBlock: ZUJKAS_clean_linker_0, # of connection points: 2
#     Edge 90, Type (0, 1), BuildingBlock: ZUJKAS_clean_linker_0, # of connection points: 2
#     Edge 91, Type (0, 1), BuildingBlock: ZUJKAS_clean_linker_0, # of connection points: 2
#     Edge 92, Type (0, 1), BuildingBlock: ZUJKAS_clean_linker_0, # of connection points: 2
#     Edge 93, Type (0, 1), BuildingBlock: ZUJKAS_clean_linker_0, # of connection points: 2
#     Edge 94, Type (0, 1), BuildingBlock: ZUJKAS_clean_linker_0, # of connection points: 2
#     Edge 95, Type (0, 1), BuildingBlock: ZUJKAS_clean_linker_0, # of connection points: 2
#     Edge 96, Type (0, 1), BuildingBlock: ZUJKAS_clean_linker_0, # of connection points: 2
#     Edge 97, Type (0, 1), BuildingBlock: ZUJKAS_clean_linker_0, # of connection points: 2
#     Edge 98, Type (0, 1), BuildingBlock: ZUJKAS_clean_linker_0, # of connection points: 2
#     Edge 99, Type (0, 1), BuildingBlock: ZUJKAS_clean_linker_0, # of connection points: 2
#     Edge 100, Type (0, 1), BuildingBlock: ZUJKAS_clean_linker_0, # of connection points: 2
#     Edge 101, Type (0, 1), BuildingBlock: ZUJKAS_clean_linker_0, # of connection points: 2
#     Edge 102, Type (0, 1), BuildingBlock: ZUJKAS_clean_linker_0, # of connection points: 2
#     Edge 103, Type (0, 1), BuildingBlock: ZUJKAS_clean_linker_0, # of connection points: 2
#     Edge 104, Type (0, 1), BuildingBlock: ZUJKAS_clean_linker_0, # of connection points: 2
#     Edge 105, Type (0, 1), BuildingBlock: ZUJKAS_clean_linker_0, # of connection points: 2
#     Edge 106, Type (0, 1), BuildingBlock: ZUJKAS_clean_linker_0, # of connection points: 2
#     Edge 107, Type (0, 1), BuildingBlock: ZUJKAS_clean_linker_0, # of connection points: 2
#     Edge 108, Type (0, 1), BuildingBlock: ZUJKAS_clean_linker_0, # of connection points: 2
#     Edge 109, Type (0, 1), BuildingBlock: ZUJKAS_clean_linker_0, # of connection points: 2
#     Edge 110, Type (0, 1), BuildingBlock: ZUJKAS_clean_linker_0, # of connection points: 2
#     Edge 111, Type (0, 1), BuildingBlock: ZUJKAS_clean_linker_0, # of connection points: 2
#     Edge 112, Type (0, 1), BuildingBlock: ZUJKAS_clean_linker_0, # of connection points: 2
#     Edge 113, Type (0, 1), BuildingBlock: ZUJKAS_clean_linker_0, # of connection points: 2
#     Edge 114, Type (0, 1), BuildingBlock: ZUJKAS_clean_linker_0, # of connection points: 2
#     Edge 115, Type (0, 1), BuildingBlock: ZUJKAS_clean_linker_0, # of connection points: 2
#     Edge 116, Type (0, 1), BuildingBlock: ZUJKAS_clean_linker_0, # of connection points: 2
#     Edge 117, Type (0, 1), BuildingBlock: ZUJKAS_clean_linker_0, # of connection points: 2
#     Edge 118, Type (0, 1), BuildingBlock: ZUJKAS_clean_linker_0, # of connection points: 2
#     Edge 119, Type (0, 1), BuildingBlock: ZUJKAS_clean_linker_0, # of connection points: 2
#     Edge 120, Type (0, 1), BuildingBlock: ZUJKAS_clean_linker_0, # of connection points: 2
#     Edge 121, Type (0, 1), BuildingBlock: ZUJKAS_clean_linker_0, # of connection points: 2
#     Edge 122, Type (0, 1), BuildingBlock: ZUJKAS_clean_linker_0, # of connection points: 2
#     Edge 123, Type (0, 1), BuildingBlock: ZUJKAS_clean_linker_0, # of connection points: 2
#     Edge 124, Type (0, 1), BuildingBlock: ZUJKAS_clean_linker_0, # of connection points: 2
#     Edge 125, Type (0, 1), BuildingBlock: ZUJKAS_clean_linker_0, # of connection points: 2
#     Edge 126, Type (0, 1), BuildingBlock: ZUJKAS_clean_linker_0, # of connection points: 2
#     Edge 127, Type (0, 1), BuildingBlock: ZUJKAS_clean_linker_0, # of connection points: 2
#     Edge 128, Type (0, 1), BuildingBlock: ZUJKAS_clean_linker_0, # of connection points: 2
#     Edge 129, Type (0, 1), BuildingBlock: ZUJKAS_clean_linker_0, # of connection points: 2
#     Edge 130, Type (0, 1), BuildingBlock: ZUJKAS_clean_linker_0, # of connection points: 2
#     Edge 131, Type (0, 1), BuildingBlock: ZUJKAS_clean_linker_0, # of connection points: 2
#     Edge 132, Type (0, 1), BuildingBlock: ZUJKAS_clean_linker_0, # of connection points: 2
#     Edge 133, Type (0, 1), BuildingBlock: ZUJKAS_clean_linker_0, # of connection points: 2
#     Edge 134, Type (0, 1), BuildingBlock: ZUJKAS_clean_linker_0, # of connection points: 2
#     Edge 135, Type (0, 1), BuildingBlock: ZUJKAS_clean_linker_0, # of connection points: 2
# Relax obj value: 0.113
# Max RMSD: 0.306
# Mean RMSD: 0.147
data_MOF--net-gar--node1-CEKHIL_clean_sbu_0--node2-KUMBOL_clean_sbu_0--edge1-ZUJKAS_clean_linker_0
_symmetry_space_group_name_H-M    P1
_symmetry_Int_Tables_number       1
_symmetry_cell_setting            triclinic
loop_
_symmetry_equiv_pos_as_xyz
'x, y, z'
_cell_length_a     77.548008
_cell_length_b     72.028908
_cell_length_c     71.382738
_cell_angle_alpha  99.726514
_cell_angle_beta   93.20378
_cell_angle_gamma 101.75922
loop_
_atom_site_label
_atom_site_type_symbol
_atom_site_fract_x
_atom_site_fract_y
_atom_site_fract_z
_atom_type_partial_charge
Co0 Co 0.1035 0.32266 0.38657 0.0
O1 O 0.12835 0.32483 0.38922 0.0
O2 O 0.10991 0.30834 0.364 0.0
C3 C 0.10498 0.35379 0.39642 0.0
O4 O 0.07742 0.31824 0.37862 0.0
Co5 Co 0.08374 0.33395 0.42238 0.0
O6 O 0.06421 0.33232 0.40279 0.0
C7 C 0.09369 0.29622 0.41454 0.0
C8 C 0.12598 0.31475 0.37206 0.0
C9 C 0.06414 0.32399 0.38557 0.0
O10 O 0.09958 0.29938 0.39871 0.0
O11 O 0.08776 0.30832 0.42628 0.0
O12 O 0.10708 0.3476 0.37874 0.0
O13 O 0.1034 0.34148 0.40775 0.0
Co14 Co 1.00314 0.77052 0.66075 0.0
O15 O 0.97837 0.76871 0.66005 0.0
O16 O 0.99611 0.76848 0.68573 0.0
C17 C 0.00867 0.79467 0.64474 0.0
O18 O 0.02915 0.77192 0.66629 0.0
Co19 Co 0.01993 0.76262 0.62214 0.0
O20 O 0.04239 0.76875 0.63892 0.0
C21 C 0.99785 0.73133 0.63747 0.0
C22 C 0.98029 0.76742 0.67791 0.0
C23 C 0.04278 0.77131 0.65705 0.0
O24 O 0.99908 0.74207 0.65384 0.0
O25 O 1.00336 0.73735 0.62253 0.0
O26 O 0.0075 0.79838 0.66303 0.0
O27 O 1.00504 0.77676 0.63672 0.0
Co28 Co 0.60513 0.82306 0.88714 0.0
O29 O 0.62943 0.82214 0.88821 0.0
O30 O 0.60939 0.8079 0.8637 0.0
C31 C 0.61087 0.85458 0.89754 0.0
O32 O 0.57909 0.82211 0.88099 0.0
Co33 Co 0.58864 0.83841 0.9241 0.0
O34 O 0.56841 0.83827 0.90594 0.0
C35 C 0.59522 0.79876 0.91663 0.0
C36 C 0.62585 0.81277 0.87083 0.0
C37 C 0.56676 0.8293 0.88874 0.0
O38 O 0.5994 0.80007 0.89966 0.0
O39 O 0.59214 0.8128 0.9286 0.0
O40 O 0.61092 0.84808 0.87946 0.0
O41 O 0.6081 0.84209 0.90856 0.0
Co42 Co 0.50278 0.27002 0.15966 0.0
O43 O 0.4782 0.26932 0.15803 0.0
O44 O 0.49441 0.26677 0.18392 0.0
C45 C 0.5099 0.29494 0.14498 0.0
O46 O 0.52854 0.27021 0.16587 0.0
Co47 Co 0.51978 0.26253 0.12107 0.0
O48 O 0.54126 0.26452 0.1384 0.0
C49 C 0.49692 0.23129 0.13501 0.0
C50 C 0.47906 0.26698 0.17563 0.0
C51 C 0.54177 0.26731 0.15658 0.0
O52 O 0.49812 0.24169 0.15155 0.0
O53 O 0.50199 0.23788 0.12022 0.0
O54 O 0.50812 0.29806 0.16318 0.0
O55 O 0.50584 0.27726 0.13636 0.0
Co56 Co 0.07931 0.81544 0.11865 0.0
O57 O 0.05363 0.81229 0.11402 0.0
O58 O 0.06724 0.80997 0.14109 0.0
C59 C 0.08512 0.84341 0.10557 0.0
O60 O 0.10518 0.81808 0.13074 0.0
Co61 Co 0.10443 0.81464 0.08854 0.0
O62 O 0.12407 0.81661 0.10832 0.0
C63 C 0.08144 0.77796 0.09212 0.0
C64 C 0.05245 0.80964 0.13146 0.0
C65 C 0.12092 0.81759 0.12571 0.0
O66 O 0.0772 0.78655 0.10811 0.0
O67 O 0.09081 0.78723 0.08112 0.0
O68 O 0.08199 0.84376 0.12329 0.0
O69 O 0.08465 0.8263 0.09605 0.0
Co70 Co 0.52594 0.7743 0.42482 0.0
O71 O 0.55154 0.77871 0.43074 0.0
O72 O 0.53765 0.76553 0.40243 0.0
C73 C 0.5242 0.80461 0.43971 0.0
O74 O 0.50021 0.76939 0.41149 0.0
Co75 Co 0.49939 0.77408 0.45384 0.0
O76 O 0.48088 0.77351 0.4332 0.0
C77 C 0.51852 0.74266 0.44895 0.0
C78 C 0.5526 0.77177 0.41295 0.0
C79 C 0.48443 0.77074 0.41591 0.0
O80 O 0.52286 0.74764 0.43294 0.0
O81 O 0.51037 0.75265 0.46047 0.0
O82 O 0.52876 0.80128 0.42245 0.0
O83 O 0.52152 0.78973 0.44806 0.0
Co84 Co 0.58024 0.31632 0.61905 0.0
O85 O 0.55459 0.31328 0.61361 0.0
O86 O 0.56731 0.30899 0.6403 0.0
C87 C 0.58603 0.34522 0.6077 0.0
O88 O 0.60563 0.31864 0.63237 0.0
Co89 Co 0.60776 0.31848 0.5916 0.0
O90 O 0.6267 0.32111 0.6123 0.0
C91 C 0.58528 0.28026 0.59228 0.0
C92 C 0.55279 0.30943 0.63061 0.0
C93 C 0.62207 0.32015 0.62894 0.0
O94 O 0.57872 0.28795 0.60719 0.0
O95 O 0.59616 0.29043 0.58321 0.0
O96 O 0.58227 0.34436 0.62509 0.0
O97 O 0.58681 0.32874 0.59752 0.0
Co98 Co 0.02576 0.27508 0.92498 0.0
O99 O 0.05149 0.28035 0.93044 0.0
O100 O 0.03738 0.26625 0.9025 0.0
C101 C 0.02348 0.30537 0.9397 0.0
O102 O 0.9997 0.26896 0.91203 0.0
Co103 Co 0.99951 0.27523 0.95433 0.0
O104 O 0.98206 0.27801 0.93397 0.0
C105 C 0.01842 0.24331 0.94934 0.0
C106 C 0.05245 0.27303 0.91273 0.0
C107 C 0.98472 0.27303 0.9166 0.0
O108 O 0.02359 0.24871 0.93372 0.0
O109 O 0.00961 0.25297 0.96038 0.0
O110 O 0.02755 0.30208 0.92223 0.0
O111 O 0.02154 0.29062 0.94816 0.0
Co112 Co 0.41791 0.04521 0.30519 0.0
O113 O 0.42225 0.0724 0.30661 0.0
O114 O 0.39659 0.05124 0.29687 0.0
C115 C 0.43094 0.04519 0.3332 0.0
O116 O 0.40826 0.01701 0.30267 0.0
Co117 Co 0.44852 0.0231 0.30566 0.0
O118 O 0.42947 1.00053 0.30672 0.0
C119 C 0.43633 0.03415 0.27029 0.0
C120 C 0.40561 0.06893 0.30036 0.0
C121 C 0.41334 1.00152 0.3042 0.0
O122 O 0.4244 0.04149 0.27849 0.0
O123 O 0.44771 0.02708 0.27875 0.0
O124 O 0.41506 0.04838 0.33213 0.0
O125 O 0.43911 0.04459 0.3179 0.0
Co126 Co 0.30089 0.18598 0.50354 0.0
O127 O 0.32648 0.19134 0.50486 0.0
O128 O 0.30959 0.16435 0.51016 0.0
C129 C 0.29837 0.19696 0.4757 0.0
O130 O 0.27411 0.174 0.50245 0.0
Co131 Co 0.27913 0.21699 0.50337 0.0
O132 O 0.25784 0.1958 0.49892 0.0
C133 C 0.29708 0.2134 0.53982 0.0
C134 C 0.32533 0.17425 0.50882 0.0
C135 C 0.25898 0.1787 0.50029 0.0
O136 O 0.30187 0.19814 0.53157 0.0
O137 O 0.28885 0.2234 0.53084 0.0
O138 O 0.30001 0.17936 0.47572 0.0
O139 O 0.29862 0.20743 0.49232 0.0
Co140 Co 0.17233 0.00748 0.77417 0.0
O141 O 0.16919 0.97831 0.77191 0.0
O142 O 0.19338 0.99608 0.76645 0.0
C143 C 0.15935 0.01162 0.80446 0.0
O144 O 0.18454 0.03744 0.77632 0.0
Co145 Co 0.14577 0.03341 0.77936 0.0
O146 O 0.16521 0.05655 0.78177 0.0
C147 C 0.14781 0.01369 0.73941 0.0
C148 C 0.1855 0.97881 0.76811 0.0
C149 C 0.18088 0.05463 0.77911 0.0
O150 O 0.16121 0.00651 0.74532 0.0
O151 O 0.13977 0.02321 0.75147 0.0
O152 O 0.17554 0.00951 0.8031 0.0
O153 O 0.15157 0.01113 0.78791 0.0
Co154 Co 0.31352 0.93298 0.01097 0.0
O155 O 0.28855 0.92844 0.00708 0.0
O156 O 0.30633 0.9551 0.024 0.0
C157 C 0.31821 0.92307 0.98102 0.0
O158 O 0.33952 0.9425 0.01736 0.0
Co159 Co 0.3317 0.89761 0.00294 0.0
O160 O 0.35346 0.91787 0.01134 0.0
C161 C 0.31448 0.90528 0.03804 0.0
C162 C 0.29049 0.94567 0.01709 0.0
C163 C 0.35345 0.93559 0.01718 0.0
O164 O 0.3122 0.92149 0.03446 0.0
O165 O 0.32 0.89281 0.02631 0.0
O166 O 0.31557 0.94038 0.98602 0.0
O167 O 0.31575 0.91189 0.99338 0.0
Co168 Co 0.30452 0.39664 0.03241 0.0
O169 O 0.27887 0.39059 0.03055 0.0
O170 O 0.29571 0.41926 0.04247 0.0
C171 C 0.30624 0.38174 1.00219 0.0
O172 O 0.3312 0.40938 0.03575 0.0
Co173 Co 0.32693 0.36572 0.02827 0.0
O174 O 0.34786 0.38719 0.03052 0.0
C175 C 0.30686 0.37177 0.06183 0.0
C176 C 0.27989 0.40865 0.03766 0.0
C177 C 0.34635 0.40466 0.03428 0.0
O178 O 0.30521 0.3883 0.0582 0.0
O179 O 0.31339 0.35988 0.05045 0.0
O180 O 0.3036 0.39919 0.0056 0.0
O181 O 0.30691 0.37351 0.01686 0.0
Co182 Co 0.79088 0.14395 0.0241 0.0
O183 O 0.81584 0.14948 0.02664 0.0
O184 O 0.79839 0.12168 0.02986 0.0
C185 C 0.78787 0.15499 0.99745 0.0
O186 O 0.76456 0.13389 0.02179 0.0
Co187 Co 0.77217 0.17897 0.02523 0.0
O188 O 0.75114 0.15796 0.01697 0.0
C189 C 0.78482 0.16812 0.06076 0.0
C190 C 0.81426 0.13199 0.02961 0.0
C191 C 0.75079 0.14045 0.01818 0.0
O192 O 0.79052 0.154 0.0518 0.0
O193 O 0.77808 0.18001 0.0529 0.0
O194 O 0.79062 0.13772 0.99661 0.0
O195 O 0.78929 0.16561 0.01415 0.0
Co196 Co 0.18863 0.53976 0.25046 0.0
O197 O 0.18285 0.51259 0.24687 0.0
O198 O 0.20618 0.5303 0.23634 0.0
C199 C 0.18478 0.54493 0.28103 0.0
O200 O 0.19853 0.56775 0.25208 0.0
Co201 Co 0.16009 0.56338 0.2629 0.0
O202 O 0.18017 0.5858 0.26502 0.0
C203 C 0.15936 0.54321 0.22331 0.0
C204 C 0.19739 0.51353 0.23858 0.0
C205 C 0.19475 0.58399 0.25834 0.0
O206 O 0.17435 0.53918 0.22673 0.0
O207 O 0.15074 0.55102 0.23604 0.0
O208 O 0.19962 0.54107 0.27586 0.0
O209 O 0.17235 0.5436 0.26778 0.0
Co210 Co 0.80394 0.89506 0.5315 0.0
O211 O 0.77828 0.8889 0.52821 0.0
O212 O 0.79463 0.91761 0.54084 0.0
C213 C 0.80691 0.87999 0.5016 0.0
O214 O 0.83064 0.90819 0.53602 0.0
Co215 Co 0.82655 0.86496 0.5295 0.0
O216 O 0.84749 0.88626 0.53086 0.0
C217 C 0.80796 0.87281 0.56381 0.0
C218 C 0.77896 0.90685 0.53539 0.0
C219 C 0.84591 0.90369 0.53459 0.0
O220 O 0.80334 0.8871 0.55764 0.0
O221 O 0.81644 0.86161 0.55421 0.0
O222 O 0.80453 0.89754 0.50469 0.0
O223 O 0.80668 0.87167 0.51631 0.0
Co224 Co 0.93232 0.07599 0.2794 0.0
O225 O 0.9353 0.10533 0.28277 0.0
O226 O 0.91037 0.08593 0.27322 0.0
C227 C 0.94776 0.07411 0.30924 0.0
O228 O 0.92067 0.04561 0.27513 0.0
Co229 Co 0.96084 0.05198 0.27713 0.0
O230 O 0.94189 0.02916 0.27854 0.0
C231 C 0.95431 0.06886 0.24317 0.0
C232 C 0.91858 0.10389 0.2777 0.0
C233 C 0.92552 0.02935 0.27618 0.0
O234 O 0.94068 0.07439 0.25102 0.0
O235 O 0.96453 0.06073 0.25209 0.0
O236 O 0.9318 0.07724 0.30806 0.0
O237 O 0.95432 0.07377 0.29296 0.0
Co238 Co 0.29117 0.64463 0.52075 0.0
O239 O 0.31622 0.65095 0.52302 0.0
O240 O 0.2995 0.62452 0.53041 0.0
C241 C 0.28739 0.6513 0.49181 0.0
O242 O 0.26524 0.63349 0.51951 0.0
Co243 Co 0.27051 0.67727 0.51566 0.0
O244 O 0.24967 0.65596 0.515 0.0
C245 C 0.28761 0.67585 0.55251 0.0
C246 C 0.31508 0.63447 0.52847 0.0
C247 C 0.25077 0.63904 0.51714 0.0
O248 O 0.29015 0.65878 0.54713 0.0
O249 O 0.2844 0.68673 0.54095 0.0
O250 O 0.29093 0.63475 0.49339 0.0
O251 O 0.28832 0.66359 0.50731 0.0
Co252 Co 0.43287 0.57604 0.77999 0.0
O253 O 0.43532 0.60533 0.78451 0.0
O254 O 0.41107 0.58575 0.77256 0.0
C255 C 0.44751 0.57372 0.81019 0.0
O256 O 0.42133 0.54576 0.77491 0.0
Co257 Co 0.46108 0.55204 0.77848 0.0
O258 O 0.44211 0.52868 0.77804 0.0
C259 C 0.45531 0.5686 0.74407 0.0
C260 C 0.41887 0.60374 0.77819 0.0
C261 C 0.42587 0.52929 0.77549 0.0
O262 O 0.44209 0.5751 0.75192 0.0
O263 O 0.46487 0.55987 0.7531 0.0
O264 O 0.43133 0.57615 0.80844 0.0
O265 O 0.45464 0.57399 0.79429 0.0
Co266 Co 0.68965 0.04187 0.75055 0.0
O267 O 0.68273 0.01473 0.74689 0.0
O268 O 0.70815 0.03145 0.73935 0.0
C269 C 0.68206 0.04755 0.77991 0.0
O270 O 0.70067 0.06966 0.75288 0.0
Co271 Co 0.6606 0.06626 0.75766 0.0
O272 O 0.6819 0.08716 0.76609 0.0
C273 C 0.66318 0.04365 0.72004 0.0
C274 C 0.69797 0.01489 0.74023 0.0
C275 C 0.697 0.08546 0.76081 0.0
O276 O 0.67854 0.04149 0.72506 0.0
O277 O 0.6531 0.0511 0.73125 0.0
O278 O 0.69724 0.04309 0.77717 0.0
O279 O 0.67151 0.04641 0.76495 0.0
Co280 Co 0.80058 0.68606 0.00417 0.0
O281 O 0.82621 0.69176 0.00648 0.0
O282 O 0.80931 0.66447 0.01083 0.0
C283 C 0.7984 0.6969 0.97613 0.0
O284 O 0.77382 0.67389 1.00228 0.0
Co285 Co 0.77921 0.71732 0.00408 0.0
O286 O 0.75787 0.69601 0.999 0.0
C287 C 0.79822 0.71456 0.04001 0.0
C288 C 0.82513 0.67452 0.01009 0.0
C289 C 0.75879 0.67875 1.00002 0.0
O290 O 0.80062 0.69789 0.03217 0.0
O291 O 0.79166 0.72552 0.0306 0.0
O292 O 0.80061 0.67956 0.97641 0.0
O293 O 0.79839 0.70745 0.99267 0.0
Co294 Co 0.91786 0.54331 0.80521 0.0
O295 O 0.92139 0.57057 0.80845 0.0
O296 O 0.89735 0.54888 0.79405 0.0
C297 C 0.92725 0.54206 0.83434 0.0
O298 O 0.90943 0.51482 0.79982 0.0
Co299 Co 0.94922 0.52284 0.80973 0.0
O300 O 0.93029 0.49937 0.80806 0.0
C301 C 0.94159 0.53635 0.77405 0.0
C302 C 0.90558 0.56675 0.79968 0.0
C303 C 0.9146 0.49955 0.80205 0.0
O304 O 0.92807 0.54198 0.78035 0.0
O305 O 0.95228 0.52959 0.78393 0.0
O306 O 0.91123 0.54423 0.83098 0.0
O307 O 0.9375 0.54288 0.82072 0.0
Co308 Co 0.81298 0.43336 0.50767 0.0
O309 O 0.7884 0.4292 0.50989 0.0
O310 O 0.80773 0.4575 0.51799 0.0
C311 C 0.81081 0.41638 0.47861 0.0
O312 O 0.83892 0.44283 0.50701 0.0
Co313 Co 0.83243 0.39915 0.50103 0.0
O314 O 0.8518 0.41886 0.49455 0.0
C315 C 0.82507 0.41612 0.5399 0.0
C316 C 0.79151 0.44763 0.51641 0.0
C317 C 0.85203 0.4366 0.50035 0.0
O318 O 0.81728 0.4282 0.53369 0.0
O319 O 0.83129 0.40332 0.52933 0.0
O320 O 0.80917 0.4342 0.48079 0.0
O321 O 0.81229 0.40916 0.49379 0.0
Co322 Co 0.67218 0.50775 0.27411 0.0
O323 O 0.66949 0.47858 0.27169 0.0
O324 O 0.69375 0.49701 0.26737 0.0
C325 C 0.65846 0.51209 0.30398 0.0
O326 O 0.68378 0.53784 0.27641 0.0
Co327 Co 0.64418 0.53189 0.27647 0.0
O328 O 0.66326 0.55561 0.28017 0.0
C329 C 0.64838 0.51214 0.23769 0.0
C330 C 0.686 0.47953 0.26851 0.0
C331 C 0.67934 0.55463 0.2786 0.0
O332 O 0.66207 0.50634 0.24494 0.0
O333 O 0.6389 0.52104 0.24848 0.0
O334 O 0.6747 0.51001 0.30305 0.0
O335 O 0.65087 0.51096 0.28712 0.0
Gd336 Gd 0.07434 0.05208 0.03255 0.0
Gd337 Gd 0.03151 0.03026 0.01194 0.0
C338 C 1.0056 0.9683 0.0171 0.0
C339 C 0.99767 0.95306 0.98395 0.0
C340 C 0.01426 0.98645 0.99215 0.0
C341 C 0.01385 0.98566 0.01146 0.0
C342 C 0.00589 0.97014 0.97826 0.0
C343 C 0.99759 0.95212 0.00329 0.0
C344 C 1.00544 0.9676 0.0365 0.0
C345 C 0.01332 0.98388 0.04986 0.0
N346 N 0.02125 1.00172 0.02469 0.0
C347 C 0.02102 1.0008 0.04377 0.0
H348 H 0.02756 0.01255 0.05479 0.0
C349 C 0.02063 1.00482 0.96795 0.0
N350 N 0.02202 1.00324 0.98688 0.0
C351 C 0.01274 0.98904 0.95383 0.0
C352 C 1.00545 0.97157 0.95898 0.0
H353 H 0.02507 0.01846 0.96349 0.0
H354 H 0.99112 0.93882 0.00745 0.0
H355 H 0.07888 0.07026 0.99222 0.0
H356 H 0.99936 0.95452 0.04132 0.0
H357 H 0.01356 0.98341 0.06495 0.0
H358 H 0.99115 0.94052 0.97347 0.0
H359 H 0.0838 0.05968 0.07959 0.0
H360 H 0.10069 0.13067 0.00714 0.0
H361 H 0.08977 0.10129 0.98262 0.0
H362 H 0.10977 0.14174 0.07537 0.0
H363 H 0.01189 0.99054 0.93899 0.0
H364 H 0.99904 0.95942 0.948 0.0
H365 H 0.10804 0.14563 0.04178 0.0
H366 H 0.09644 0.08684 0.10605 0.0
N367 N 0.08287 0.08166 0.02208 0.0
C368 C 0.09573 0.11702 0.01149 0.0
C369 C 0.08966 0.10048 0.99762 0.0
C370 C 0.0958 0.11563 0.03081 0.0
C371 C 0.08916 0.09751 0.03572 0.0
C372 C 0.08349 0.08281 0.00318 0.0
N373 N 0.08438 0.07748 0.05861 0.0
C374 C 0.08995 0.09536 0.05459 0.0
C375 C 0.0945 0.08948 0.09169 0.0
C376 C 0.0996 0.10812 0.0879 0.0
C377 C 0.08723 0.07418 0.07673 0.0
C378 C 0.09765 0.1112 0.06914 0.0
H379 H 0.10551 0.1199 0.09946 0.0
O380 O 0.09327 0.03795 0.04458 0.0
O381 O 0.05626 0.02266 0.02315 0.0
O382 O 0.02846 0.04035 0.04379 0.0
O383 O 0.05576 0.05989 0.05637 0.0
O384 O 0.06672 0.03094 0.05156 0.0
O385 O 0.10099 0.05579 0.02374 0.0
O386 O 0.01656 0.03992 0.99031 0.0
O387 O 0.05272 0.05674 0.01362 0.0
O388 O 0.07807 0.03913 1.00164 0.0
O389 O 0.0497 0.02867 0.98677 0.0
O390 O 0.02894 0.06098 0.02251 0.0
O391 O 1.00318 0.02687 0.01311 0.0
C392 C 0.05835 0.01658 0.03881 0.0
C393 C 0.10382 0.1294 0.0644 0.0
C394 C 0.10286 0.13161 0.04528 0.0
C395 C 0.10575 0.04479 0.03475 0.0
C396 C 0.12338 0.05063 0.04458 0.0
C397 C 0.12882 0.06739 0.05849 0.0
C398 C 0.13473 0.0382 0.04028 0.0
C399 C 0.15161 0.04227 0.04982 0.0
C400 C 0.14565 0.07142 0.06828 0.0
C401 C 0.15705 0.05887 0.06403 0.0
C402 C 0.03883 0.05209 0.05839 0.0
C403 C 0.04422 0.06972 0.01902 0.0
C404 C 1.00185 0.03434 0.99778 0.0
C405 C 0.98501 0.03666 0.98972 0.0
C406 C 0.97944 0.0293 0.9704 0.0
C407 C 0.97449 0.04638 1.00129 0.0
C408 C 0.95843 0.04887 0.99343 0.0
C409 C 0.96323 0.03155 0.96267 0.0
C410 C 0.95273 0.04136 0.97414 0.0
C411 C 0.0672 0.03192 0.9859 0.0
H412 H 0.12015 0.07723 0.0618 0.0
H413 H 0.13029 0.02514 0.02962 0.0
H414 H 0.14989 0.08429 0.07912 0.0
H415 H 0.17015 0.06229 0.07154 0.0
H416 H 0.98753 0.02171 0.96139 0.0
H417 H 0.97885 0.05221 0.01623 0.0
H418 H 0.95883 0.02575 0.94779 0.0
H419 H 0.94021 0.04315 0.96801 0.0
Gd420 Gd 0.29365 0.80128 0.29222 0.0
Gd421 Gd 0.31132 0.78208 0.2483 0.0
C422 C 0.28799 0.72139 0.21353 0.0
C423 C 0.31435 0.70836 0.20999 0.0
C424 C 0.31604 0.73989 0.22971 0.0
C425 C 0.29817 0.73846 0.22507 0.0
C426 C 0.3243 0.72484 0.22216 0.0
C427 C 0.29622 0.70658 0.20578 0.0
C428 C 0.26974 0.7194 0.21042 0.0
C429 C 0.26192 0.73382 0.21929 0.0
N430 N 0.2906 0.75324 0.23252 0.0
C431 C 0.27245 0.7505 0.23046 0.0
H432 H 0.2655 0.76049 0.2379 0.0
C433 C 0.34323 0.75797 0.24593 0.0
N434 N 0.32539 0.7559 0.24163 0.0
C435 C 0.3519 0.74348 0.23882 0.0
C436 C 0.3424 0.72683 0.22687 0.0
H437 H 0.3512 0.77118 0.25422 0.0
H438 H 0.28862 0.69356 0.19669 0.0
H439 H 0.33591 0.82783 0.29933 0.0
H440 H 0.26151 0.70648 0.20177 0.0
H441 H 0.24768 0.73204 0.21772 0.0
H442 H 0.32052 0.69679 0.20393 0.0
H443 H 0.2511 0.80308 0.28923 0.0
H444 H 0.33553 0.88034 0.33722 0.0
H445 H 0.35199 0.85812 0.31948 0.0
H446 H 0.27366 0.87911 0.34018 0.0
H447 H 0.366 0.74539 0.24223 0.0
H448 H 0.3492 0.71567 0.2212 0.0
H449 H 0.3062 0.88799 0.34499 0.0
H450 H 0.23225 0.82451 0.30343 0.0
N451 N 0.31039 0.83219 0.30599 0.0
C452 C 0.32835 0.86692 0.32845 0.0
C453 C 0.33768 0.85442 0.31848 0.0
C454 C 0.30984 0.86217 0.32659 0.0
C455 C 0.30116 0.84455 0.31496 0.0
C456 C 0.32846 0.83709 0.30718 0.0
N457 N 0.27522 0.82291 0.30018 0.0
C458 C 0.28295 0.83977 0.3119 0.0
C459 C 0.24651 0.82914 0.30569 0.0
C460 C 0.2543 0.84668 0.31757 0.0
C461 C 0.25722 0.81723 0.29732 0.0
C462 C 0.27275 0.85218 0.32086 0.0
H463 H 0.24598 0.85573 0.3243 0.0
O464 O 0.27585 0.78241 0.30634 0.0
O465 O 0.29988 0.77593 0.27416 0.0
O466 O 0.28471 0.78921 0.23909 0.0
O467 O 0.27531 0.8053 0.26717 0.0
O468 O 0.27364 0.77436 0.27996 0.0
O469 O 0.29907 0.80125 0.3227 0.0
O470 O 0.33765 0.79718 0.24411 0.0
O471 O 0.31167 0.8076 0.27036 0.0
O472 O 0.32065 0.79619 0.30175 0.0
O473 O 0.32946 0.77957 0.27424 0.0
O474 O 0.30896 0.81085 0.24185 0.0
O475 O 0.31965 0.78003 0.21987 0.0
C476 C 0.28501 0.76497 0.27291 0.0
C477 C 0.28127 0.86947 0.33299 0.0
C478 C 0.29979 0.8745 0.33579 0.0
C479 C 0.28477 0.78821 0.32286 0.0
C480 C 0.27423 0.78958 0.33916 0.0
C481 C 0.25714 0.79322 0.3376 0.0
C482 C 0.27978 0.78247 0.35485 0.0
C483 C 0.26788 0.77702 0.36802 0.0
C484 C 0.24564 0.78927 0.35145 0.0
C485 C 0.2508 0.78081 0.3664 0.0
C486 C 0.27326 0.79835 0.24831 0.0
C487 C 0.30998 0.81926 0.25941 0.0
C488 C 0.3353 0.79093 0.22569 0.0
C489 C 0.34268 0.80427 0.21358 0.0
C490 C 0.36025 0.8053 0.20937 0.0
C491 C 0.33225 0.81494 0.20522 0.0
C492 C 0.33953 0.8266 0.1927 0.0
C493 C 0.36741 0.8169 0.19673 0.0
C494 C 0.35707 0.82754 0.18837 0.0
C495 C 0.33189 0.78699 0.29284 0.0
H496 H 0.25227 0.79799 0.32524 0.0
H497 H 0.29298 0.77964 0.35583 0.0
H498 H 0.23235 0.79168 0.34997 0.0
H499 H 0.24112 0.77638 0.37603 0.0
H500 H 0.36832 0.79686 0.21561 0.0
H501 H 0.31855 0.81395 0.20808 0.0
H502 H 0.38091 0.8175 0.19328 0.0
H503 H 0.36266 0.83637 0.17839 0.0
Gd504 Gd 0.52962 0.03852 0.53158 0.0
Gd505 Gd 0.57438 0.04482 0.51646 0.0
C506 C 0.60961 0.10428 0.5194 0.0
C507 C 0.61367 0.10472 0.48597 0.0
C508 C 0.5961 0.07628 0.49528 0.0
C509 C 0.599 0.08546 0.51428 0.0
C510 C 0.60369 0.08571 0.48099 0.0
C511 C 0.61661 0.11398 0.50513 0.0
C512 C 0.61329 0.11261 0.53877 0.0
C513 C 0.60691 0.10202 0.55251 0.0
N514 N 0.59219 0.0757 0.52781 0.0
C515 C 0.59658 0.08338 0.54678 0.0
H516 H 0.592 0.07543 0.55769 0.0
C517 C 0.58495 0.0476 0.47267 0.0
N518 N 0.58645 0.05787 0.49086 0.0
C519 C 0.59216 0.05639 0.45802 0.0
C520 C 0.60139 0.07561 0.46215 0.0
H521 H 0.578 0.03268 0.46936 0.0
H522 H 0.62466 0.12849 0.5088 0.0
H523 H 0.51269 0.01043 0.48911 0.0
H524 H 0.62143 0.12699 0.54326 0.0
H525 H 0.60999 0.10817 0.56754 0.0
H526 H 0.61949 0.11224 0.47516 0.0
H527 H 0.52978 0.04616 0.57897 0.0
H528 H 0.47568 0.96163 0.49983 0.0
H529 H 0.4911 0.98012 0.47717 0.0
H530 H 0.4775 0.97205 0.56809 0.0
H531 H 0.59065 0.04833 0.44357 0.0
H532 H 0.60702 0.08236 0.45077 0.0
H533 H 0.47074 0.95872 0.53377 0.0
H534 H 0.51527 0.02998 0.6037 0.0
N535 N 0.50994 0.00925 0.51848 0.0
C536 C 0.48522 0.97498 0.50523 0.0
C537 C 0.4939 0.98537 0.49239 0.0
C538 C 0.4889 0.98199 0.52486 0.0
C539 C 0.50145 0.99944 0.53115 0.0
C540 C 0.50619 1.00262 0.49928 0.0
N541 N 0.51752 0.02363 0.55602 0.0
C542 C 0.50546 0.00677 0.55048 0.0
C543 C 0.51248 0.02324 0.5888 0.0
C544 C 0.50055 1.00549 0.58342 0.0
C545 C 0.5207 0.03232 0.5748 0.0
C546 C 0.49674 0.99713 0.56405 0.0
H547 H 0.49413 0.99852 0.59428 0.0
O548 O 0.5174 0.06136 0.54447 0.0
O549 O 0.55371 0.06007 0.52805 0.0
O550 O 0.57132 0.04614 0.5474 0.0
O551 O 0.54559 0.02511 0.55056 0.0
O552 O 0.54229 0.06518 0.55329 0.0
O553 O 0.50532 0.04311 0.51779 0.0
O554 O 0.58504 0.01879 0.51249 0.0
O555 O 0.54997 0.02285 0.51927 0.0
O556 O 0.53082 0.04163 0.50085 0.0
O557 O 0.55948 0.05632 0.49536 0.0
O558 O 0.56087 0.01971 0.49372 0.0
O559 O 0.60125 0.04526 0.52772 0.0
C560 C 0.55428 0.07245 0.54315 0.0
C561 C 0.4843 0.9797 0.55787 0.0
C562 C 0.48041 0.97214 0.53833 0.0
C563 C 0.50424 0.05741 0.53128 0.0
C564 C 0.48687 0.05813 0.53829 0.0
C565 C 0.48083 0.04779 0.55248 0.0
C566 C 0.4772 0.07104 0.53241 0.0
C567 C 0.46184 0.07392 0.54106 0.0
C568 C 0.46551 0.05043 0.56092 0.0
C569 C 0.45612 0.06346 0.55535 0.0
C570 C 0.56253 0.03258 0.55546 0.0
C571 C 0.54901 0.01129 0.50343 0.0
C572 C 0.60049 0.02717 0.52105 0.0
C573 C 0.61568 0.02222 0.51138 0.0
C574 C 0.62031 0.02927 0.49479 0.0
C575 C 0.62518 0.00962 0.51824 0.0
C576 C 0.63887 1.00377 0.50819 0.0
C577 C 0.63386 0.02348 0.48483 0.0
C578 C 0.64302 0.01071 0.4914 0.0
C579 C 0.54226 0.05145 0.49113 0.0
H580 H 0.48814 0.03802 0.5574 0.0
H581 H 0.48199 0.07935 0.5217 0.0
H582 H 0.46103 0.04253 0.57199 0.0
H583 H 0.44428 0.0653 0.56215 0.0
H584 H 0.61344 0.03918 0.48948 0.0
H585 H 0.62175 1.00415 0.5311 0.0
H586 H 0.63728 0.02891 0.47198 0.0
H587 H 0.65356 1.00647 0.48351 0.0
Gd588 Gd 0.32444 0.28445 0.77285 0.0
Gd589 Gd 0.2817 0.29735 0.77161 0.0
C590 C 0.24359 0.28099 0.71688 0.0
C591 C 0.23939 0.31228 0.71176 0.0
C592 C 0.25923 0.30987 0.73847 0.0
C593 C 0.25577 0.2901 0.73289 0.0
C594 C 0.25091 0.32119 0.72811 0.0
C595 C 0.23565 0.2922 0.70623 0.0
C596 C 0.23969 0.26086 0.71205 0.0
C597 C 0.24821 0.25032 0.72271 0.0
N598 N 0.26411 0.27975 0.74321 0.0
C599 C 0.26058 0.25999 0.73804 0.0
H600 H 0.26783 0.25131 0.74467 0.0
C601 C 0.27176 0.33718 0.76205 0.0
N602 N 0.26993 0.31799 0.75465 0.0
C603 C 0.26422 0.34906 0.75206 0.0
C604 C 0.2539 0.34107 0.73486 0.0
H605 H 0.27909 0.34337 0.77578 0.0
H606 H 0.22646 0.28545 0.69379 0.0
H607 H 0.33844 0.33003 0.80001 0.0
H608 H 0.23038 0.25335 0.69994 0.0
H609 H 0.24571 0.23476 0.71878 0.0
H610 H 0.23297 0.32075 0.70357 0.0
H611 H 0.32669 0.23792 0.76778 0.0
H612 H 0.36819 0.32566 0.8502 0.0
H613 H 0.35578 0.34528 0.83001 0.0
H614 H 0.36722 0.25834 0.84354 0.0
H615 H 0.26611 0.36431 0.75781 0.0
H616 H 0.24781 0.35025 0.72727 0.0
H617 H 0.37229 0.2933 0.85513 0.0
H618 H 0.3385 0.21641 0.78614 0.0
N619 N 0.34048 0.30124 0.80225 0.0
C620 C 0.36057 0.31869 0.83676 0.0
C621 C 0.35361 0.3298 0.82541 0.0
C622 C 0.35768 0.29874 0.83062 0.0
C623 C 0.34754 0.2903 0.81303 0.0
C624 C 0.34375 0.32089 0.80811 0.0
N625 N 0.33477 0.2628 0.78969 0.0
C626 C 0.34442 0.27054 0.80667 0.0
C627 C 0.34009 0.23155 0.79221 0.0
C628 C 0.34918 0.23908 0.81016 0.0
C629 C 0.33325 0.24373 0.78196 0.0
C630 C 0.35171 0.25881 0.81748 0.0
H631 H 0.35458 0.22963 0.81804 0.0
O632 O 0.33797 0.27054 0.7506 0.0
O633 O 0.30328 0.29076 0.75367 0.0
O634 O 0.27753 0.26556 0.77528 0.0
O635 O 0.30493 0.25762 0.77913 0.0
O636 O 0.3105 0.26486 0.74614 0.0
O637 O 0.35153 0.29777 0.7672 0.0
O638 O 0.2672 0.31275 0.79194 0.0
O639 O 0.30311 0.29207 0.79118 0.0
O640 O 0.32905 0.31609 0.76849 0.0
O641 O 0.30168 0.32471 0.76688 0.0
O642 O 0.29685 0.31902 0.79559 0.0
O643 O 0.25846 0.28222 0.78353 0.0
C644 C 0.30167 0.27642 0.74011 0.0
C645 C 0.36161 0.26715 0.83503 0.0
C646 C 0.36456 0.28705 0.8416 0.0
C647 C 0.35243 0.2839 0.75322 0.0
C648 C 0.36935 0.2771 0.75089 0.0
C649 C 0.3711 0.26041 0.75772 0.0
C650 C 0.38276 0.28543 0.73991 0.0
C651 C 0.39745 0.27669 0.73576 0.0
C652 C 0.38491 0.25142 0.75312 0.0
C653 C 0.39767 0.25917 0.74204 0.0
C654 C 0.2873 0.25289 0.77805 0.0
C655 C 0.30466 0.30765 0.80329 0.0
C656 C 0.25545 0.29771 0.79386 0.0
C657 C 0.23676 0.30006 0.79433 0.0
C658 C 0.22978 0.30914 0.78072 0.0
C659 C 0.2262 0.29464 0.80908 0.0
C660 C 0.20907 0.29881 0.8102 0.0
C661 C 0.213 0.31319 0.78179 0.0
C662 C 0.20281 0.30821 0.7964 0.0
C663 C 0.3193 0.32909 0.76688 0.0
H664 H 0.36138 0.25374 0.76603 0.0
H665 H 0.38168 0.29842 0.73463 0.0
H666 H 0.38558 0.23811 0.75796 0.0
H667 H 0.40774 0.25114 0.73832 0.0
H668 H 0.23744 0.31347 0.76939 0.0
H669 H 0.23141 0.28771 0.81979 0.0
H670 H 0.20791 0.32042 0.77128 0.0
H671 H 0.18986 0.31166 0.7969 0.0
Gd672 Gd 0.05724 0.0183 0.51097 0.0
Gd673 Gd 0.04902 0.06282 0.53078 0.0
C674 C 0.06615 0.09038 0.59346 0.0
C675 C 0.03841 0.09579 0.605 0.0
C676 C 0.03926 0.08071 0.57198 0.0
C677 C 0.05725 0.082 0.57523 0.0
C678 C 0.02971 0.08795 0.58674 0.0
C679 C 0.05658 0.09695 0.60836 0.0
C680 C 0.08448 0.0924 0.59607 0.0
C681 C 0.09359 0.08674 0.58061 0.0
N682 N 0.06619 0.07587 0.56042 0.0
C683 C 0.08428 0.07879 0.56279 0.0
H684 H 0.09186 0.07457 0.55128 0.0
C685 C 0.01396 0.07377 0.54979 0.0
N686 N 0.03125 0.0733 0.55415 0.0
C687 C 1.00392 0.08067 0.56396 0.0
C688 C 0.01179 0.08764 0.58257 0.0
H689 H 0.00789 0.06858 0.53534 0.0
H690 H 0.06319 0.10336 0.62244 0.0
H691 H 0.01446 0.00707 0.49014 0.0
H692 H 0.09176 0.09869 0.60985 0.0
H693 H 0.10782 0.08852 0.58237 0.0
H694 H 0.03127 0.10135 0.61653 0.0
H695 H 0.09823 0.01212 0.50659 0.0
H696 H 0.01439 0.98118 0.43211 0.0
H697 H 0.99847 0.99249 0.45927 0.0
H698 H 0.07474 0.97763 0.4258 0.0
H699 H 0.99017 0.08074 0.56049 0.0
H700 H 1.00402 0.09313 0.59351 0.0
H701 H 0.04285 0.97578 0.41977 0.0
H702 H 0.11588 0.99932 0.48173 0.0
N703 N 0.04009 1.00497 0.4813 0.0
C704 C 0.02171 0.98776 0.44581 0.0
C705 C 0.01268 0.99406 0.46109 0.0
C706 C 0.04 0.98959 0.44849 0.0
C707 C 0.04894 0.99834 0.46662 0.0
C708 C 0.02202 1.00237 0.47882 0.0
N709 N 0.07487 0.00718 0.48771 0.0
C710 C 0.06687 0.99947 0.46995 0.0
C711 C 0.10214 0.99938 0.47818 0.0
C712 C 0.09427 0.99206 0.45962 0.0
C713 C 0.09213 0.00665 0.49218 0.0
C714 C 0.07638 0.99178 0.45536 0.0
H715 H 0.10201 0.98627 0.44882 0.0
O716 O 0.06967 0.99932 0.52476 0.0
O717 O 0.05765 0.03734 0.53984 0.0
O718 O 0.07675 0.06711 0.52133 0.0
O719 O 0.07984 0.03927 0.50162 0.0
O720 O 0.08045 0.02828 0.53346 0.0
O721 O 0.04212 0.98997 0.51357 0.0
O722 O 0.03687 0.08195 0.51698 0.0
O723 O 0.04871 0.04389 0.50182 0.0
O724 O 0.0292 0.01409 0.52003 0.0
O725 O 0.02691 0.04185 0.54053 0.0
O726 O 0.02593 0.053 0.50813 0.0
O727 O 0.06397 0.09169 0.52979 0.0
C728 C 0.073 0.03657 0.54722 0.0
C729 C 0.06765 0.98356 0.43719 0.0
C730 C 0.0495 0.98249 0.43376 0.0
C731 C 0.05544 0.98584 0.52268 0.0
C732 C 0.05792 0.96614 0.51888 0.0
C733 C 0.06867 0.96 0.50501 0.0
C734 C 0.05073 0.95386 0.53097 0.0
C735 C 0.05416 0.93538 0.52922 0.0
C736 C 0.07217 0.94155 0.50329 0.0
C737 C 0.06491 0.92922 0.51532 0.0
C738 C 0.08584 0.05764 0.50953 0.0
C739 C 0.03337 0.04469 0.49435 0.0
C740 C 0.0509 0.09577 0.52019 0.0
C741 C 0.04791 0.11525 0.52414 0.0
C742 C 0.03651 0.12074 0.53756 0.0
C743 C 0.05479 0.12767 0.51209 0.0
C744 C 0.04983 0.14533 0.51282 0.0
C745 C 0.03169 0.13851 0.53848 0.0
C746 C 0.03815 0.15071 0.526 0.0
C747 C 0.02059 0.02369 0.53233 0.0
H748 H 0.07455 0.96949 0.49578 0.0
H749 H 0.04264 0.95876 0.5419 0.0
H750 H 0.08065 0.93687 0.49277 0.0
H751 H 0.06789 0.91503 0.514 0.0
H752 H 0.03102 0.11118 0.54689 0.0
H753 H 0.06334 0.1232 0.50145 0.0
H754 H 0.0227 0.14268 0.54864 0.0
H755 H 0.03414 0.16435 0.52667 0.0
Gd756 Gd 0.28306 0.77764 0.77581 0.0
Gd757 Gd 0.32301 0.80637 0.76815 0.0
C758 C 0.327 0.86792 0.75829 0.0
C759 C 0.33737 0.86606 0.72667 0.0
C760 C 0.33177 0.83753 0.74129 0.0
C761 C 0.32668 0.84811 0.75732 0.0
C762 C 0.33751 0.8465 0.72597 0.0
C763 C 0.33209 0.87673 0.74277 0.0
C764 C 0.32269 0.87844 0.77504 0.0
C765 C 0.31874 0.86937 0.79052 0.0
N766 N 0.32233 0.83935 0.77233 0.0
C767 C 0.31886 0.84982 0.78902 0.0
H768 H 0.31586 0.84327 0.80127 0.0
C769 C 0.33906 0.8084 0.72672 0.0
N770 N 0.33215 0.81874 0.74115 0.0
C771 C 0.34469 0.81661 0.71112 0.0
C772 C 0.34377 0.8357 0.71066 0.0
H773 H 0.33992 0.79369 0.7271 0.0
H774 H 0.33238 0.89191 0.74327 0.0
H775 H 0.2899 0.74077 0.7421 0.0
H776 H 0.32276 0.89366 0.77632 0.0
H777 H 0.31567 0.87744 0.80366 0.0
H778 H 0.34167 0.87318 0.71501 0.0
H779 H 0.26507 0.78916 0.81641 0.0
H780 H 0.28458 0.6905 0.76699 0.0
H781 H 0.29082 0.70686 0.73958 0.0
H782 H 0.26598 0.71026 0.82861 0.0
H783 H 0.34984 0.80827 0.69953 0.0
H784 H 0.34832 0.84209 0.69864 0.0
H785 H 0.27539 0.69194 0.80018 0.0
H786 H 0.25604 0.77445 0.84419 0.0
N787 N 0.28387 0.7446 0.77123 0.0
C788 C 0.28429 0.70564 0.76832 0.0
C789 C 0.28777 0.71479 0.75282 0.0
C790 C 0.27997 0.71598 0.78517 0.0
C791 C 0.27985 0.7357 0.78621 0.0
C792 C 0.28725 0.73425 0.75441 0.0
N793 N 0.27386 0.76472 0.80252 0.0
C794 C 0.27464 0.74604 0.8023 0.0
C795 C 0.26138 0.76636 0.83259 0.0
C796 C 0.26291 0.74746 0.83306 0.0
C797 C 0.26661 0.77469 0.81694 0.0
C798 C 0.26929 0.73693 0.81765 0.0
H799 H 0.25869 0.74096 0.84512 0.0
O800 O 0.25727 0.78462 0.77592 0.0
O801 O 0.29372 0.80698 0.76806 0.0
O802 O 0.31815 0.81112 0.79903 0.0
O803 O 0.29867 0.78397 0.80409 0.0
O804 O 0.27802 0.8066 0.79012 0.0
O805 O 0.2611 0.7599 0.75605 0.0
O806 O 0.34897 0.79986 0.76747 0.0
O807 O 0.31237 0.7771 0.77604 0.0
O808 O 0.28878 0.77298 0.74524 0.0
O809 O 0.30676 0.80093 0.74026 0.0
O810 O 0.32829 0.77736 0.75421 0.0
O811 O 0.34495 0.82423 0.78779 0.0
C812 C 0.28566 0.81776 0.77927 0.0
C813 C 0.26995 0.71748 0.81691 0.0
C814 C 0.2753 0.70705 0.80072 0.0
C815 C 0.24997 0.77015 0.76254 0.0
C816 C 0.23228 0.76007 0.76548 0.0
C817 C 0.22898 0.75169 0.78164 0.0
C818 C 0.21817 0.7608 0.75278 0.0
C819 C 0.20073 0.75342 0.75625 0.0
C820 C 0.21163 0.74435 0.78518 0.0
C821 C 0.19753 0.74522 0.77258 0.0
C822 C 0.31069 0.79979 0.81024 0.0
C823 C 0.32051 0.76623 0.76501 0.0
C824 C 0.35621 0.8143 0.78094 0.0
C825 C 0.3737 0.82476 0.77782 0.0
C826 C 0.37609 0.83685 0.76429 0.0
C827 C 0.38839 0.82098 0.78748 0.0
C828 C 0.40553 0.82901 0.78356 0.0
C829 C 0.39314 0.84489 0.76031 0.0
C830 C 0.40783 0.84094 0.76982 0.0
C831 C 0.29541 0.78465 0.73396 0.0
H832 H 0.23968 0.7511 0.79166 0.0
H833 H 0.22076 0.76743 0.74036 0.0
H834 H 0.2091 0.73821 0.79785 0.0
H835 H 0.18414 0.73985 0.77578 0.0
H836 H 0.36491 0.83988 0.75666 0.0
H837 H 0.38646 0.81134 0.7977 0.0
H838 H 0.39498 0.85413 0.74977 0.0
H839 H 0.42096 0.84741 0.76665 0.0
Gd840 Gd 0.54491 0.04953 0.99523 0.0
Gd841 Gd 0.5578 0.04165 0.0439 0.0
C842 C 0.6116 0.06513 0.07878 0.0
C843 C 0.62356 0.03638 0.07716 0.0
C844 C 0.5944 0.0345 0.06143 0.0
C845 C 0.59615 0.05413 0.06751 0.0
C846 C 0.60773 0.02529 0.06713 0.0
C847 C 0.62552 0.05629 0.08292 0.0
C848 C 0.61231 0.08451 0.08634 0.0
C849 C 0.59741 0.09211 0.08379 0.0
N850 N 0.58219 0.06215 0.06389 0.0
C851 C 0.58224 0.08054 0.07302 0.0
H852 H 0.57059 0.0865 0.07251 0.0
C853 C 0.57474 1.00444 0.05075 0.0
N854 N 0.57885 0.02408 0.05199 0.0
C855 C 0.58747 0.99468 0.05617 0.0
C856 C 0.60425 1.00513 0.06383 0.0
H857 H 0.56173 0.99617 0.04493 0.0
H858 H 0.63753 0.06457 0.09133 0.0
H859 H 0.52797 0.99999 0.98002 0.0
H860 H 0.62396 0.09342 0.09496 0.0
H861 H 0.59745 0.10678 0.09046 0.0
H862 H 0.63405 0.02958 0.08133 0.0
H863 H 0.53694 0.09422 0.9983 0.0
H864 H 0.47806 0.99312 0.94939 0.0
H865 H 0.5023 0.97939 0.96103 0.0
H866 H 0.46756 0.05673 0.95658 0.0
H867 H 0.5843 0.9791 0.05445 0.0
H868 H 0.61406 0.99754 0.06816 0.0
H869 H 0.465 0.02175 0.94848 0.0
H870 H 0.51328 0.10943 0.9883 0.0
N871 N 0.51983 0.0266 0.97874 0.0
C872 C 0.48962 1.00261 0.95766 0.0
C873 C 0.50331 0.99483 0.96409 0.0
C874 C 0.49081 0.02247 0.96225 0.0
C875 C 0.50625 0.03433 0.97289 0.0
C876 C 0.51826 0.00697 0.97473 0.0
N877 N 0.52218 0.06536 0.9884 0.0
C878 C 0.50746 0.05413 0.97787 0.0
C879 C 0.51133 0.09387 0.98551 0.0
C880 C 0.49562 0.08246 0.97595 0.0
C881 C 0.52467 0.0851 0.99124 0.0
C882 C 0.49361 0.06242 0.97175 0.0
H883 H 0.4853 0.08931 0.97142 0.0
O884 O 0.55883 0.07522 0.98618 0.0
O885 O 0.56466 0.05707 0.02053 0.0
O886 O 0.55718 0.07255 0.04256 0.0
O887 O 0.53509 0.06874 0.01841 0.0
O888 O 0.57419 0.05144 0.994 0.0
O889 O 0.54874 0.04772 0.9654 0.0
O890 O 0.54207 0.01943 0.05624 0.0
O891 O 0.53868 0.03295 0.01786 0.0
O892 O 0.55315 0.02174 0.99127 0.0
O893 O 0.56538 0.01889 0.02137 0.0
O894 O 0.52832 0.03833 0.0439 0.0
O895 O 0.54886 0.0495 0.07169 0.0
C896 C 0.57827 0.05647 0.01211 0.0
C897 C 0.47833 0.05059 0.96128 0.0
C898 C 0.47691 0.03069 0.95658 0.0
C899 C 0.55682 0.066 0.96849 0.0
C900 C 0.56364 0.07531 0.95316 0.0
C901 C 0.56484 0.0951 0.95392 0.0
C902 C 0.56956 0.06435 0.93788 0.0
C903 C 0.5771 0.07313 0.92345 0.0
C904 C 0.57196 0.10385 0.93925 0.0
C905 C 0.57814 0.09294 0.92404 0.0
C906 C 0.54373 0.078 0.03472 0.0
C907 C 0.5248 0.03296 0.02585 0.0
C908 C 0.54083 0.03163 0.07161 0.0
C909 C 0.5413 0.02467 0.08944 0.0
C910 C 0.55461 0.01593 0.09559 0.0
C911 C 0.52696 0.02594 0.09994 0.0
C912 C 0.5256 0.01858 0.11673 0.0
C913 C 0.55318 0.00817 0.11229 0.0
C914 C 0.53864 0.00939 0.12285 0.0
C915 C 0.56165 0.01314 1.00257 0.0
H916 H 0.56029 0.10372 0.9658 0.0
H917 H 0.56879 0.04907 0.93749 0.0
H918 H 0.57296 0.11914 0.93982 0.0
H919 H 0.58422 0.10007 0.91311 0.0
H920 H 0.56589 0.01496 0.08754 0.0
H921 H 0.51663 0.03254 0.09485 0.0
H922 H 0.56334 1.00127 0.11706 0.0
H923 H 0.53776 1.00359 0.13589 0.0
Gd924 Gd 0.28683 0.26147 0.25832 0.0
Gd925 Gd 0.30984 0.31019 0.28022 0.0
C926 C 0.36756 0.33373 0.27016 0.0
C927 C 0.38192 0.3426 0.30245 0.0
C928 C 0.35062 0.32716 0.29663 0.0
C929 C 0.35145 0.32628 0.2773 0.0
C930 C 0.36575 0.33579 0.30951 0.0
C931 C 0.38283 0.34153 0.28279 0.0
C932 C 0.3677 0.33393 0.25064 0.0
C933 C 0.35197 0.32739 0.23886 0.0
N934 N 0.33626 0.31945 0.26562 0.0
C935 C 0.33633 0.32043 0.24663 0.0
H936 H 0.32459 0.3154 0.23697 0.0
C937 C 0.3327 0.32491 0.32209 0.0
N938 N 0.33467 0.32116 0.30298 0.0
C939 C 0.3473 0.33302 0.33542 0.0
C940 C 0.36398 0.33827 0.32911 0.0
H941 H 0.31968 0.32205 0.32702 0.0
H942 H 0.39527 0.34733 0.27755 0.0
H943 H 0.27445 0.26532 0.30576 0.0
H944 H 0.37977 0.33955 0.24462 0.0
H945 H 0.35184 0.32772 0.22375 0.0
H946 H 0.39365 0.34927 0.3121 0.0
H947 H 0.26923 0.2555 0.21297 0.0
H948 H 0.22417 0.22807 0.30341 0.0
H949 H 0.25069 0.24959 0.32187 0.0
H950 H 0.20425 0.21234 0.2371 0.0
H951 H 0.3456 0.33567 0.35051 0.0
H952 H 0.37524 0.34496 0.33943 0.0
H953 H 0.20706 0.2142 0.27183 0.0
H954 H 0.24204 0.2391 0.19335 0.0
N955 N 0.26309 0.25178 0.27735 0.0
C956 C 0.2349 0.23468 0.29598 0.0
C957 C 0.24985 0.24676 0.30643 0.0
C958 C 0.23355 0.23214 0.27611 0.0
C959 C 0.24788 0.24118 0.26709 0.0
C960 C 0.26369 0.2554 0.29694 0.0
N961 N 0.25935 0.25087 0.23952 0.0
C962 C 0.24593 0.24084 0.24762 0.0
C963 C 0.24273 0.23985 0.20866 0.0
C964 C 0.22865 0.23013 0.21693 0.0
C965 C 0.25806 0.24987 0.22011 0.0
C966 C 0.23013 0.23045 0.23658 0.0
H967 H 0.21683 0.22215 0.20798 0.0
O968 O 0.29501 0.24818 0.23149 0.0
O969 O 0.31156 0.28378 0.2606 0.0
O970 O 0.2983 0.31232 0.25134 0.0
O971 O 0.28552 0.28083 0.23636 0.0
O972 O 0.31393 0.2566 0.26532 0.0
O973 O 0.28127 0.23055 0.25041 0.0
O974 O 0.3024 0.33208 0.30067 0.0
O975 O 0.28341 0.29069 0.27013 0.0
O976 O 0.29759 0.25954 0.28801 0.0
O977 O 0.3145 0.29065 0.30106 0.0
O978 O 0.28809 0.30311 0.29867 0.0
O979 O 0.30705 0.33721 0.27205 0.0
C980 C 0.32238 0.27368 0.26406 0.0
C981 C 0.21637 0.22052 0.24539 0.0
C982 C 0.21802 0.22146 0.26513 0.0
C983 C 0.28801 0.23086 0.23409 0.0
C984 C 0.29642 0.21514 0.22692 0.0
C985 C 0.29394 0.20741 0.20735 0.0
C986 C 0.30497 0.20633 0.23948 0.0
C987 C 0.31078 0.18954 0.23255 0.0
C988 C 0.29986 0.19077 0.20037 0.0
C989 C 0.30821 0.18179 0.21291 0.0
C990 C 0.29042 0.29952 0.23628 0.0
C991 C 0.27606 0.29416 0.28515 0.0
C992 C 0.3027 0.34385 0.2888 0.0
C993 C 0.30837 0.3643 0.29634 0.0
C994 C 0.32111 0.37221 0.31189 0.0
C995 C 0.29898 0.37594 0.28847 0.0
C996 C 0.30208 0.39562 0.29574 0.0
C997 C 0.32416 0.39198 0.31945 0.0
C998 C 0.31458 0.40371 0.31148 0.0
C999 C 0.3078 0.27235 0.30202 0.0
H1000 H 0.28701 0.21397 0.19755 0.0
H1001 H 0.30648 0.21211 0.25468 0.0
H1002 H 0.29779 0.18471 0.18527 0.0
H1003 H 0.31277 0.16889 0.20725 0.0
H1004 H 0.32835 0.36319 0.31832 0.0
H1005 H 0.2887 0.36944 0.27688 0.0
H1006 H 0.33384 0.39818 0.33156 0.0
H1007 H 0.31698 0.41897 0.31742 0.0
Gd1008 Gd 0.5582 0.51768 0.01176 0.0
Gd1009 Gd 0.54841 0.56232 0.02893 0.0
C1010 C 0.56578 0.59124 0.09123 0.0
C1011 C 0.53786 0.59536 0.1032 0.0
C1012 C 0.53867 0.58028 0.07017 0.0
C1013 C 0.55678 0.58229 0.07318 0.0
C1014 C 0.52907 0.5872 0.08504 0.0
C1015 C 0.55617 0.59735 0.10629 0.0
C1016 C 0.58423 0.59446 0.09347 0.0
C1017 C 0.59332 0.58942 0.07781 0.0
N1018 N 0.56575 0.57664 0.05822 0.0
C1019 C 0.58389 0.5807 0.06021 0.0
H1020 H 0.59147 0.57683 0.04859 0.0
C1021 C 0.51315 0.57275 0.04821 0.0
N1022 N 0.53058 0.57267 0.0524 0.0
C1023 C 0.50307 0.57927 0.06251 0.0
C1024 C 0.51101 0.58633 0.08107 0.0
H1025 H 0.507 0.56744 0.0338 0.0
H1026 H 0.56286 0.60415 0.12025 0.0
H1027 H 0.51503 0.5027 0.99216 0.0
H1028 H 0.59159 0.60129 0.10708 0.0
H1029 H 0.60763 0.59215 0.07926 0.0
H1030 H 0.53068 0.60064 0.11482 0.0
H1031 H 0.59917 0.51129 0.00673 0.0
H1032 H 0.5147 0.47864 0.9336 0.0
H1033 H 0.4988 0.48734 0.96164 0.0
H1034 H 0.57559 0.47964 0.92544 0.0
H1035 H 0.48922 0.57897 0.05919 0.0
H1036 H 0.50321 0.59155 0.09211 0.0
H1037 H 0.5434 0.47617 0.92017 0.0
H1038 H 0.61694 0.50011 0.98122 0.0
N1039 N 0.54077 0.50326 0.98241 0.0
C1040 C 0.52213 0.48545 0.94719 0.0
C1041 C 0.51311 0.49025 0.96297 0.0
C1042 C 0.54058 0.48886 0.94929 0.0
C1043 C 0.54964 0.49775 0.96732 0.0
C1044 C 0.52261 0.499 0.98052 0.0
N1045 N 0.57575 0.50695 0.98808 0.0
C1046 C 0.5677 0.49968 0.97026 0.0
C1047 C 0.60315 0.50005 0.97788 0.0
C1048 C 0.59527 0.49345 0.95925 0.0
C1049 C 0.59306 0.50642 0.99226 0.0
C1050 C 0.57726 0.49282 0.95531 0.0
H1051 H 0.60305 0.4883 0.94816 0.0
O1052 O 0.57169 0.49918 0.02508 0.0
O1053 O 0.55757 0.53774 0.0396 0.0
O1054 O 0.57595 0.56749 0.01891 0.0
O1055 O 0.58136 0.53853 0.00362 0.0
O1056 O 0.58084 0.52887 0.03496 0.0
O1057 O 0.54363 0.4898 0.01605 0.0
O1058 O 0.53506 0.58035 0.01482 0.0
O1059 O 0.54907 0.54233 1.00101 0.0
O1060 O 0.53044 0.51285 0.02146 0.0
O1061 O 0.52627 0.54161 0.03862 0.0
O1062 O 0.52572 0.55098 0.00573 0.0
O1063 O 0.56242 0.59114 0.02661 0.0
C1064 C 0.57284 0.53776 0.04777 0.0
C1065 C 0.56845 0.48486 0.93712 0.0
C1066 C 0.55013 0.48289 0.93412 0.0
C1067 C 0.55754 0.48574 0.02405 0.0
C1068 C 0.55971 0.46597 0.01979 0.0
C1069 C 0.57023 0.45977 0.00569 0.0
C1070 C 0.55208 0.45348 0.03143 0.0
C1071 C 0.55498 0.43477 0.02923 0.0
C1072 C 0.57312 0.44104 0.00341 0.0
C1073 C 0.56552 0.42853 0.01513 0.0
C1074 C 0.58615 0.5574 0.00939 0.0
C1075 C 0.53372 0.54216 0.99285 0.0
C1076 C 0.54879 0.59456 0.0174 0.0
C1077 C 0.54541 0.61388 0.0213 0.0
C1078 C 0.5331 0.61883 0.03381 0.0
C1079 C 0.55328 0.62687 0.01027 0.0
C1080 C 0.54844 0.64462 0.01096 0.0
C1081 C 0.52843 0.63666 0.03487 0.0
C1082 C 0.53591 0.64947 0.02338 0.0
C1083 C 0.52098 0.52295 0.03213 0.0
H1084 H 0.57636 0.46939 0.99671 0.0
H1085 H 0.54406 0.45843 0.04241 0.0
H1086 H 0.58142 0.43628 0.99272 0.0
H1087 H 0.56815 0.41416 0.01345 0.0
H1088 H 0.52685 0.60887 0.04239 0.0
H1089 H 0.56288 0.62286 1.00074 0.0
H1090 H 0.5187 0.64039 0.04428 0.0
H1091 H 0.53163 0.66293 0.02393 0.0
Gd1092 Gd 0.78389 0.2783 0.27425 0.0
Gd1093 Gd 0.82312 0.30701 0.26601 0.0
C1094 C 0.82722 0.36971 0.25941 0.0
C1095 C 0.8382 0.36958 0.2282 0.0
C1096 C 0.83258 0.34011 0.24132 0.0
C1097 C 0.82704 0.34983 0.25753 0.0
C1098 C 0.83864 0.35001 0.2267 0.0
C1099 C 0.83248 0.37941 0.24451 0.0
C1100 C 0.82251 0.37939 0.27638 0.0
C1101 C 0.81826 0.36943 0.29117 0.0
N1102 N 0.82226 0.34012 0.2718 0.0
C1103 C 0.81842 0.34982 0.28875 0.0
H1104 H 0.81508 0.34267 0.30054 0.0
C1105 C 0.84103 0.31198 0.22615 0.0
N1106 N 0.8331 0.32128 0.24037 0.0
C1107 C 0.84702 0.32108 0.2112 0.0
C1108 C 0.84558 0.34011 0.21133 0.0
H1109 H 0.84251 0.29739 0.22627 0.0
H1110 H 0.83258 0.39462 0.24566 0.0
H1111 H 0.79151 0.24273 0.23993 0.0
H1112 H 0.82245 0.39462 0.27834 0.0
H1113 H 0.81486 0.37683 0.30449 0.0
H1114 H 0.84268 0.37739 0.21704 0.0
H1115 H 0.76737 0.28964 0.31567 0.0
H1116 H 0.78297 0.19057 0.26204 0.0
H1117 H 0.791 0.20824 0.23587 0.0
H1118 H 0.76379 0.20867 0.32377 0.0
H1119 H 0.85288 0.31348 0.1997 0.0
H1120 H 0.85038 0.34721 0.19982 0.0
H1121 H 0.77295 0.19091 0.29484 0.0
H1122 H 0.75675 0.27372 0.34223 0.0
N1123 N 0.78441 0.24528 0.26862 0.0
C1124 C 0.78329 0.20589 0.26403 0.0
C1125 C 0.78779 0.21579 0.24922 0.0
C1126 C 0.7789 0.21578 0.28109 0.0
C1127 C 0.77959 0.23575 0.28301 0.0
C1128 C 0.78807 0.23549 0.25166 0.0
N1129 N 0.77476 0.26482 0.30056 0.0
C1130 C 0.77466 0.2458 0.29945 0.0
C1131 C 0.76186 0.26574 0.33036 0.0
C1132 C 0.76241 0.24641 0.3299 0.0
C1133 C 0.7679 0.27471 0.31534 0.0
C1134 C 0.7686 0.23611 0.3142 0.0
H1135 H 0.7576 0.23945 0.3415 0.0
O1136 O 0.75791 0.28451 0.27645 0.0
O1137 O 0.7938 0.30763 0.26609 0.0
O1138 O 0.81858 0.31126 0.29685 0.0
O1139 O 0.80071 0.28342 0.30209 0.0
O1140 O 0.77918 0.30713 0.28903 0.0
O1141 O 0.7616 0.26112 0.25463 0.0
O1142 O 0.84905 0.3005 0.26482 0.0
O1143 O 0.81311 0.27756 0.27386 0.0
O1144 O 0.78735 0.27445 0.24292 0.0
O1145 O 0.80781 0.30079 0.23754 0.0
O1146 O 0.82811 0.27811 0.2514 0.0
O1147 O 0.84493 0.32409 0.28611 0.0
C1148 C 0.78573 0.31819 0.27754 0.0
C1149 C 0.76833 0.21635 0.31254 0.0
C1150 C 0.77351 0.20622 0.29605 0.0
C1151 C 0.75049 0.27077 0.26238 0.0
C1152 C 0.7329 0.26016 0.26498 0.0
C1153 C 0.72992 0.24992 0.27998 0.0
C1154 C 0.71854 0.26225 0.25339 0.0
C1155 C 0.70129 0.25454 0.25703 0.0
C1156 C 0.71265 0.24213 0.28353 0.0
C1157 C 0.69833 0.24454 0.27217 0.0
C1158 C 0.8131 0.29908 0.30807 0.0
C1159 C 0.82121 0.26687 0.2626 0.0
C1160 C 0.85612 0.31426 0.27898 0.0
C1161 C 0.87388 0.32469 0.27722 0.0
C1162 C 0.87818 0.33376 0.26167 0.0
C1163 C 0.88715 0.32382 0.2908 0.0
C1164 C 0.90476 0.33178 0.28887 0.0
C1165 C 0.89583 0.34172 0.25969 0.0
C1166 C 0.90913 0.34075 0.27326 0.0
C1167 C 0.795 0.28557 0.23157 0.0
H1168 H 0.74078 0.24827 0.28916 0.0
H1169 H 0.72075 0.27042 0.24196 0.0
H1170 H 0.71037 0.23447 0.29528 0.0
H1171 H 0.68498 0.23871 0.27519 0.0
H1172 H 0.86808 0.33447 0.25099 0.0
H1173 H 0.88381 0.31659 0.3027 0.0
H1174 H 0.89921 0.34842 0.24753 0.0
H1175 H 0.92281 0.3466 0.27138 0.0
Gd1176 Gd 0.04423 0.54955 0.49711 0.0
Gd1177 Gd 0.05598 0.53613 0.54364 0.0
C1178 C 0.108 0.56034 0.58119 0.0
C1179 C 0.1219 0.53278 0.57728 0.0
C1180 C 0.09298 0.53031 0.56085 0.0
C1181 C 0.09345 0.5494 0.56853 0.0
C1182 C 0.10695 0.52162 0.5656 0.0
C1183 C 0.12244 0.55212 0.58503 0.0
C1184 C 0.10721 0.57884 0.59043 0.0
C1185 C 0.09179 0.58557 0.58778 0.0
N1186 N 0.079 0.55667 0.56508 0.0
C1187 C 0.07764 0.5741 0.5753 0.0
H1188 H 0.06565 0.57928 0.5743 0.0
C1189 C 0.07578 0.50019 0.5449 0.0
N1190 N 0.07819 0.51978 0.55004 0.0
C1191 C 0.08934 0.49096 0.54903 0.0
C1192 C 0.10511 0.50178 0.5592 0.0
H1193 H 0.06351 0.49184 0.53712 0.0
H1194 H 0.13377 0.56036 0.5946 0.0
H1195 H 0.02632 0.50161 0.48028 0.0
H1196 H 0.11808 0.58767 0.60029 0.0
H1197 H 0.0907 0.5995 0.59552 0.0
H1198 H 0.13283 0.5264 0.58097 0.0
H1199 H 0.03846 0.59433 0.50187 0.0
H1200 H 0.98157 0.49756 0.44134 0.0
H1201 H 1.00231 0.48206 0.45738 0.0
H1202 H 0.97555 0.56305 0.44631 0.0
H1203 H 0.08758 0.47553 0.54447 0.0
H1204 H 0.11553 0.49456 0.56259 0.0
H1205 H 0.9717 0.52783 0.4373 0.0
H1206 H 0.01795 0.61218 0.48883 0.0
N1207 N 0.02006 0.52858 0.47736 0.0
C1208 C 0.99227 0.50639 0.45141 0.0
C1209 C 1.00395 0.4976 0.46043 0.0
C1210 C 0.99435 0.52643 0.45578 0.0
C1211 C 0.00853 0.53726 0.46898 0.0
C1212 C 0.01776 0.50892 0.47344 0.0
N1213 N 0.02396 0.56687 0.48741 0.0
C1214 C 0.01045 0.55699 0.47434 0.0
C1215 C 0.01559 0.59664 0.48475 0.0
C1216 C 1.00127 0.58663 0.47172 0.0
C1217 C 0.02705 0.58652 0.49224 0.0
C1218 C 0.99863 0.56658 0.46622 0.0
H1219 H 0.99249 0.59452 0.4658 0.0
O1220 O 0.06145 0.56948 0.48353 0.0
O1221 O 0.06378 0.5516 0.5209 0.0
O1222 O 0.04695 0.56447 0.547 0.0
O1223 O 0.02958 0.56427 0.51887 0.0
O1224 O 0.06529 0.57621 0.51021 0.0
O1225 O 0.05459 0.53882 0.47081 0.0
O1226 O 0.04193 0.51316 0.55612 0.0
O1227 O 0.03556 0.53565 0.52097 0.0
O1228 O 0.05267 0.52108 0.49483 0.0
O1229 O 0.07238 0.52495 0.52166 0.0
O1230 O 0.03494 0.51014 0.52948 0.0
O1231 O 0.04412 0.54329 0.5699 0.0
C1232 C 0.07261 0.5684 0.52262 0.0
C1233 C 0.98473 0.55593 0.45276 0.0
C1234 C 0.98258 0.53589 0.44757 0.0
C1235 C 0.06233 0.55623 0.46898 0.0
C1236 C 0.05969 0.56142 0.45041 0.0
C1237 C 0.04713 0.5721 0.44635 0.0
C1238 C 0.07128 0.55706 0.43709 0.0
C1239 C 0.07085 0.56381 0.41993 0.0
C1240 C 0.04645 0.57856 0.42902 0.0
C1241 C 0.05846 0.57463 0.41585 0.0
C1242 C 0.03574 0.57143 0.53681 0.0
C1243 C 0.02597 0.51933 0.51998 0.0
C1244 C 0.03882 0.52505 0.57079 0.0
C1245 C 0.04085 0.51953 0.58928 0.0
C1246 C 0.05038 0.50561 0.59264 0.0
C1247 C 0.03056 0.52643 0.60291 0.0
C1248 C 0.02832 0.51847 0.61931 0.0
C1249 C 0.04904 0.49837 0.6096 0.0
C1250 C 0.03784 0.50458 0.62286 0.0
C1251 C 0.06563 0.51621 0.50437 0.0
H1252 H 0.03826 0.57594 0.45665 0.0
H1253 H 0.08127 0.54922 0.44047 0.0
H1254 H 0.0369 0.58697 0.42599 0.0
H1255 H 0.05818 0.58009 0.40262 0.0
H1256 H 0.05835 0.49995 0.58202 0.0
H1257 H 0.02331 0.53723 0.60011 0.0
H1258 H 0.05612 0.48741 0.61212 0.0
H1259 H 0.03614 0.49806 0.63542 0.0
Gd1260 Gd 0.82457 0.78444 0.27389 0.0
Gd1261 Gd 0.78106 0.79716 0.27206 0.0
C1262 C 0.75219 0.78482 0.21191 0.0
C1263 C 0.75046 0.817 0.20718 0.0
C1264 C 0.76391 0.81225 0.23711 0.0
C1265 C 0.76098 0.79271 0.23027 0.0
C1266 C 0.75811 0.82455 0.22593 0.0
C1267 C 0.74752 0.79714 0.20017 0.0
C1268 C 0.74752 0.76477 0.20629 0.0
C1269 C 0.75087 0.75314 0.21917 0.0
N1270 N 0.76527 0.78128 0.24222 0.0
C1271 C 0.75962 0.76163 0.23718 0.0
H1272 H 0.76218 0.75211 0.2465 0.0
C1273 C 0.77083 0.83737 0.26404 0.0
N1274 N 0.77089 0.81894 0.2554 0.0
C1275 C 0.76546 0.85022 0.25351 0.0
C1276 C 0.75937 0.84388 0.23424 0.0
H1277 H 0.77559 0.84231 0.27895 0.0
H1278 H 0.74096 0.79136 0.18596 0.0
H1279 H 0.84377 0.82967 0.29898 0.0
H1280 H 0.74074 0.75815 0.19234 0.0
H1281 H 0.7469 0.73759 0.2152 0.0
H1282 H 0.74611 0.82626 0.19828 0.0
H1283 H 0.82954 0.73908 0.26746 0.0
H1284 H 0.86574 0.82404 0.35304 0.0
H1285 H 0.85942 0.84438 0.33004 0.0
H1286 H 0.85968 0.75593 0.34794 0.0
H1287 H 0.766 0.86498 0.26025 0.0
H1288 H 0.75506 0.8538 0.22613 0.0
H1289 H 0.86529 0.79093 0.35981 0.0
H1290 H 0.83894 0.71653 0.28646 0.0
N1291 N 0.84058 0.80057 0.30354 0.0
C1292 C 0.85877 0.81732 0.33921 0.0
C1293 C 0.85531 0.82883 0.32624 0.0
C1294 C 0.85392 0.79726 0.33381 0.0
C1295 C 0.84494 0.78923 0.31557 0.0
C1296 C 0.84631 0.82022 0.30839 0.0
N1297 N 0.83467 0.76276 0.29073 0.0
C1298 C 0.84183 0.76963 0.30894 0.0
C1299 C 0.83971 0.7314 0.29302 0.0
C1300 C 0.84598 0.73796 0.31221 0.0
C1301 C 0.83444 0.74417 0.28232 0.0
C1302 C 0.84755 0.7574 0.32028 0.0
H1303 H 0.85021 0.72809 0.32045 0.0
O1304 O 0.83847 0.77152 0.25111 0.0
O1305 O 0.80225 0.78828 0.25475 0.0
O1306 O 0.77763 0.76543 0.27567 0.0
O1307 O 0.80506 0.75745 0.28013 0.0
O1308 O 0.81095 0.76256 0.24887 0.0
O1309 O 0.85004 0.79985 0.26657 0.0
O1310 O 0.76666 0.81003 0.29441 0.0
O1311 O 0.80334 0.79317 0.29104 0.0
O1312 O 0.82793 0.81623 0.27015 0.0
O1313 O 0.80051 0.82442 0.2665 0.0
O1314 O 0.79458 0.81871 0.2975 0.0
O1315 O 0.75595 0.78125 0.27959 0.0
C1316 C 0.80053 0.77257 0.24285 0.0
C1317 C 0.85539 0.76513 0.33892 0.0
C1318 C 0.85858 0.78505 0.34568 0.0
C1319 C 0.85186 0.78606 0.25301 0.0
C1320 C 0.86968 0.78143 0.25164 0.0
C1321 C 0.87522 0.76985 0.26366 0.0
C1322 C 0.88083 0.78747 0.23759 0.0
C1323 C 0.8971 0.78147 0.23553 0.0
C1324 C 0.89115 0.76392 0.26161 0.0
C1325 C 0.90192 0.76955 0.24765 0.0
C1326 C 0.78735 0.75277 0.27872 0.0
C1327 C 0.80507 0.80863 0.30323 0.0
C1328 C 0.75361 0.79517 0.2927 0.0
C1329 C 0.73552 0.79918 0.29326 0.0
C1330 C 0.72937 0.80858 0.27946 0.0
C1331 C 0.72462 0.79454 0.30798 0.0
C1332 C 0.70794 0.79984 0.30897 0.0
C1333 C 0.71301 0.81369 0.28032 0.0
C1334 C 0.70246 0.80948 0.29492 0.0
C1335 C 0.8182 0.82903 0.26758 0.0
H1336 H 0.8671 0.76515 0.27452 0.0
H1337 H 0.87672 0.79637 0.22813 0.0
H1338 H 0.89514 0.75478 0.27086 0.0
H1339 H 0.91419 0.76464 0.24636 0.0
H1340 H 0.7373 0.81212 0.26805 0.0
H1341 H 0.72924 0.78732 0.31878 0.0
H1342 H 0.70848 0.82106 0.26962 0.0
H1343 H 0.68981 0.81365 0.2951 0.0
Gd1344 Gd 0.79026 0.29931 0.79472 0.0
Gd1345 Gd 0.81401 0.28822 0.75142 0.0
C1346 C 0.79954 0.22911 0.71123 0.0
C1347 C 0.82528 0.2159 0.71708 0.0
C1348 C 0.82392 0.24797 0.73358 0.0
C1349 C 0.8073 0.24602 0.7246 0.0
C1350 C 0.83347 0.23333 0.72917 0.0
C1351 C 0.80826 0.21374 0.70822 0.0
C1352 C 0.78387 0.22862 0.70033 0.0
C1353 C 0.77726 0.24531 0.70161 0.0
N1354 N 0.79972 0.26155 0.72716 0.0
C1355 C 0.78577 0.26187 0.71458 0.0
H1356 H 0.78127 0.27489 0.71373 0.0
C1357 C 0.84944 0.26944 0.75004 0.0
N1358 N 0.83162 0.26515 0.74472 0.0
C1359 C 0.85944 0.2554 0.74614 0.0
C1360 C 0.85133 0.2371 0.73601 0.0
H1361 H 0.85582 0.28363 0.75785 0.0
H1362 H 0.80239 0.20059 0.69821 0.0
H1363 H 0.8262 0.31673 0.82899 0.0
H1364 H 0.77748 0.21591 0.68999 0.0
H1365 H 0.76587 0.24561 0.69227 0.0
H1366 H 0.83231 0.20439 0.71376 0.0
H1367 H 0.74793 0.30217 0.7889 0.0
H1368 H 0.82759 0.37559 0.85048 0.0
H1369 H 0.84127 0.3473 0.84816 0.0
H1370 H 0.77022 0.3829 0.8296 0.0
H1371 H 0.87342 0.25875 0.75085 0.0
H1372 H 0.85916 0.2263 0.73277 0.0
H1373 H 0.80093 0.38866 0.8436 0.0
H1374 H 0.72957 0.32638 0.79557 0.0
N1375 N 0.80492 0.32741 0.81715 0.0
C1376 C 0.82109 0.36217 0.84122 0.0
C1377 C 0.82885 0.34628 0.83992 0.0
C1378 C 0.80444 0.36013 0.8316 0.0
C1379 C 0.79657 0.34236 0.81957 0.0
C1380 C 0.82033 0.32885 0.82828 0.0
N1381 N 0.77195 0.32164 0.80104 0.0
C1382 C 0.77944 0.33928 0.81143 0.0
C1383 C 0.74363 0.3303 0.79989 0.0
C1384 C 0.75145 0.349 0.80925 0.0
C1385 C 0.75405 0.31664 0.79619 0.0
C1386 C 0.76949 0.35359 0.81551 0.0
H1387 H 0.74333 0.35954 0.81225 0.0
O1388 O 0.76769 0.28192 0.80433 0.0
O1389 O 0.79792 0.27816 0.77288 0.0
O1390 O 0.78546 0.29195 0.74382 0.0
O1391 O 0.77615 0.30921 0.77064 0.0
O1392 O 0.77205 0.27201 0.77852 0.0
O1393 O 0.79359 0.28828 0.82067 0.0
O1394 O 0.83707 0.30403 0.74109 0.0
O1395 O 0.80666 0.30946 0.7734 0.0
O1396 O 0.81805 0.29403 0.80272 0.0
O1397 O 0.82773 0.27769 0.77559 0.0
O1398 O 0.83302 0.31456 0.76833 0.0
O1399 O 0.8107 0.30305 0.72802 0.0
C1400 C 0.78391 0.26584 0.7688 0.0
C1401 C 0.77758 0.37165 0.82653 0.0
C1402 C 0.79507 0.37493 0.83449 0.0
C1403 C 0.77671 0.28066 0.8198 0.0
C1404 C 0.76837 0.28322 0.83747 0.0
C1405 C 0.75347 0.2914 0.83961 0.0
C1406 C 0.77432 0.27452 0.85164 0.0
C1407 C 0.76448 0.27175 0.86701 0.0
C1408 C 0.74434 0.2901 0.85586 0.0
C1409 C 0.74961 0.27996 0.86943 0.0
C1410 C 0.77422 0.30184 0.75213 0.0
C1411 C 0.82114 0.32098 0.77781 0.0
C1412 C 0.82774 0.30815 0.7273 0.0
C1413 C 0.83391 0.30473 0.70853 0.0
C1414 C 0.84146 0.28901 0.70186 0.0
C1415 C 0.83211 0.31802 0.69711 0.0
C1416 C 0.83785 0.316 0.67894 0.0
C1417 C 0.84752 0.2871 0.68367 0.0
C1418 C 0.84584 0.30068 0.67219 0.0
C1419 C 0.82945 0.28453 0.79425 0.0
H1420 H 0.74861 0.29821 0.82862 0.0
H1421 H 0.78598 0.26844 0.84986 0.0
H1422 H 0.73271 0.29613 0.85749 0.0
H1423 H 0.74169 0.27782 0.88122 0.0
H1424 H 0.84278 0.27842 0.71064 0.0
H1425 H 0.8263 0.33016 0.70248 0.0
H1426 H 0.85349 0.27511 0.67848 0.0
H1427 H 0.85047 0.29913 0.65809 0.0
Gd1428 Gd 0.78815 0.75912 0.75794 0.0
Gd1429 Gd 0.80781 0.80886 0.77975 0.0
C1430 C 0.86523 0.83496 0.77212 0.0
C1431 C 0.87781 0.84707 0.80488 0.0
C1432 C 0.84722 0.82925 0.79807 0.0
C1433 C 0.849 0.82712 0.77873 0.0
C1434 C 0.86154 0.83954 0.81138 0.0
C1435 C 0.87966 0.84475 0.78528 0.0
C1436 C 0.86636 0.83323 0.75246 0.0
C1437 C 0.85157 0.82381 0.7399 0.0
N1438 N 0.83467 0.81805 0.76636 0.0
C1439 C 0.83573 0.8165 0.74714 0.0
H1440 H 0.82453 0.80948 0.7372 0.0
C1441 C 0.82841 0.82582 0.82276 0.0
N1442 N 0.83123 0.82217 0.80385 0.0
C1443 C 0.84224 0.83574 0.83649 0.0
C1444 C 0.85892 0.84254 0.83079 0.0
H1445 H 0.81533 0.82127 0.82717 0.0
H1446 H 0.89221 0.85087 0.78044 0.0
H1447 H 0.77731 0.73755 0.79722 0.0
H1448 H 0.87849 0.83939 0.74687 0.0
H1449 H 0.85229 0.82235 0.72464 0.0
H1450 H 0.88895 0.85502 0.81488 0.0
H1451 H 0.77272 0.75704 0.71215 0.0
H1452 H 0.72164 0.72297 0.79614 0.0
H1453 H 0.75125 0.72564 0.81209 0.0
H1454 H 0.70166 0.73039 0.73436 0.0
H1455 H 0.83993 0.83849 0.85142 0.0
H1456 H 0.86955 0.8505 0.84142 0.0
H1457 H 0.70341 0.72448 0.7671 0.0
H1458 H 0.74487 0.74912 0.69253 0.0
N1459 N 0.76358 0.7464 0.77426 0.0
C1460 C 0.73324 0.72954 0.78989 0.0
C1461 C 0.7499 0.73106 0.79894 0.0
C1462 C 0.73178 0.73518 0.77222 0.0
C1463 C 0.74731 0.74386 0.76465 0.0
C1464 C 0.76491 0.73878 0.79059 0.0
N1465 N 0.76128 0.75501 0.73869 0.0
C1466 C 0.74617 0.74798 0.74633 0.0
C1467 C 0.74492 0.74937 0.70775 0.0
C1468 C 0.72921 0.74368 0.71569 0.0
C1469 C 0.76084 0.75455 0.71933 0.0
C1470 C 0.72969 0.7425 0.73503 0.0
H1471 H 0.71691 0.73917 0.70653 0.0
O1472 O 0.7945 0.74309 0.73134 0.0
O1473 O 0.81184 0.78267 0.76108 0.0
O1474 O 0.79457 0.80889 0.75078 0.0
O1475 O 0.79258 0.77756 0.73506 0.0
O1476 O 0.81571 0.75608 0.76576 0.0
O1477 O 0.78265 0.7282 0.75333 0.0
O1478 O 0.79557 0.82947 0.79651 0.0
O1479 O 0.78266 0.78702 0.77032 0.0
O1480 O 0.7975 0.76068 0.78915 0.0
O1481 O 0.81519 0.79139 0.8011 0.0
O1482 O 0.78651 0.80074 0.79861 0.0
O1483 O 0.80792 0.83637 0.77113 0.0
C1484 C 0.82343 0.77359 0.76494 0.0
C1485 C 0.71432 0.73462 0.74287 0.0
C1486 C 0.71533 0.7312 0.76149 0.0
C1487 C 0.78728 0.72674 0.73596 0.0
C1488 C 0.79203 0.70899 0.72745 0.0
C1489 C 0.78374 0.69929 0.70954 0.0
C1490 C 0.80259 0.70035 0.73806 0.0
C1491 C 0.80436 0.68153 0.73118 0.0
C1492 C 0.78575 0.68068 0.70243 0.0
C1493 C 0.79588 0.6717 0.71327 0.0
C1494 C 0.79151 0.79563 0.73512 0.0
C1495 C 0.7754 0.78905 0.78559 0.0
C1496 C 0.79956 0.84209 0.78558 0.0
C1497 C 0.80447 0.86218 0.79482 0.0
C1498 C 0.81544 0.86891 0.81196 0.0
C1499 C 0.79571 0.87445 0.78714 0.0
C1500 C 0.79706 0.89318 0.79678 0.0
C1501 C 0.81708 0.88793 0.82152 0.0
C1502 C 0.80763 0.90005 0.81409 0.0
C1503 C 0.80791 0.77357 0.80279 0.0
H1504 H 0.77525 0.70586 0.70138 0.0
H1505 H 0.80905 0.70814 0.75184 0.0
H1506 H 0.7791 0.67304 0.68873 0.0
H1507 H 0.79683 0.657 0.70782 0.0
H1508 H 0.82229 0.85953 0.81817 0.0
H1509 H 0.78694 0.86907 0.77406 0.0
H1510 H 0.82532 0.8931 0.83487 0.0
H1511 H 0.80851 0.91459 0.82174 0.0
Gd1512 Gd 0.57445 0.55117 0.53363 0.0
Gd1513 Gd 0.53088 0.53252 0.51228 0.0
C1514 C 0.50936 0.46885 0.5155 0.0
C1515 C 0.50895 0.45299 0.48269 0.0
C1516 C 0.51889 0.48795 0.49157 0.0
C1517 C 0.51615 0.48692 0.51041 0.0
C1518 C 0.5145 0.47101 0.47741 0.0
C1519 C 0.50651 0.45191 0.50173 0.0
C1520 C 0.50433 0.46835 0.53391 0.0
C1521 C 0.50454 0.48558 0.54616 0.0
N1522 N 0.51794 0.50365 0.52318 0.0
C1523 C 0.51079 0.50307 0.54032 0.0
H1524 H 0.50904 0.51575 0.54963 0.0
C1525 C 0.52243 0.50726 0.46786 0.0
N1526 N 0.52372 0.50559 0.48674 0.0
C1527 C 0.51832 0.49094 0.45342 0.0
C1528 C 0.5147 0.4727 0.4582 0.0
H1529 H 0.52462 0.52123 0.46369 0.0
H1530 H 0.50141 0.43798 0.50546 0.0
H1531 H 0.58079 0.56895 0.49307 0.0
H1532 H 0.4991 0.4548 0.53833 0.0
H1533 H 0.49949 0.48543 0.55999 0.0
H1534 H 0.50569 0.43988 0.47201 0.0
H1535 H 0.58244 0.55957 0.58126 0.0
H1536 H 0.60307 0.62917 0.50774 0.0
H1537 H 0.5921 0.59973 0.48334 0.0
H1538 H 0.6107 0.64096 0.57601 0.0
H1539 H 0.51771 0.49249 0.43859 0.0
H1540 H 0.51122 0.46006 0.44696 0.0
H1541 H 0.60993 0.6444 0.5423 0.0
H1542 H 0.59493 0.58698 0.60751 0.0
N1543 N 0.58458 0.58041 0.5229 0.0
C1544 C 0.59796 0.61559 0.51215 0.0
C1545 C 0.59184 0.59902 0.49835 0.0
C1546 C 0.59778 0.61435 0.53148 0.0
C1547 C 0.59087 0.59633 0.53649 0.0
C1548 C 0.58541 0.58145 0.504 0.0
N1549 N 0.58473 0.57679 0.55968 0.0
C1550 C 0.59101 0.59445 0.55545 0.0
C1551 C 0.59369 0.58934 0.59297 0.0
C1552 C 0.59955 0.60774 0.58889 0.0
C1553 C 0.58652 0.57391 0.57812 0.0
C1554 C 0.59844 0.61045 0.56995 0.0
H1555 H 0.60528 0.61964 0.6004 0.0
O1556 O 0.59219 0.53647 0.54677 0.0
O1557 O 0.55443 0.52338 0.52385 0.0
O1558 O 0.5297 0.54045 0.54499 0.0
O1559 O 0.55647 0.56087 0.55694 0.0
O1560 O 0.5653 0.52921 0.55192 0.0
O1561 O 0.60101 0.55258 0.52486 0.0
O1562 O 0.51551 0.54234 0.49111 0.0
O1563 O 0.55363 0.55772 0.51488 0.0
O1564 O 0.5773 0.53703 0.50266 0.0
O1565 O 0.5494 0.53288 0.48725 0.0
O1566 O 0.53041 0.56358 0.52374 0.0
O1567 O 0.5038 0.53397 0.51641 0.0
C1568 C 0.5552 0.51629 0.53901 0.0
C1569 C 0.605 0.6285 0.56507 0.0
C1570 C 0.6046 0.63046 0.54588 0.0
C1571 C 0.60509 0.54216 0.53688 0.0
C1572 C 0.6227 0.54796 0.54696 0.0
C1573 C 0.62623 0.55956 0.56518 0.0
C1574 C 0.63598 0.54016 0.53853 0.0
C1575 C 0.65268 0.54335 0.54842 0.0
C1576 C 0.64297 0.56312 0.57498 0.0
C1577 C 0.65618 0.55495 0.5667 0.0
C1578 C 0.53989 0.55266 0.55934 0.0
C1579 C 0.54604 0.57145 0.52049 0.0
C1580 C 0.50174 0.5408 0.50087 0.0
C1581 C 0.48412 0.53609 0.49089 0.0
C1582 C 0.47947 0.52307 0.47355 0.0
C1583 C 0.47185 0.54596 0.49899 0.0
C1584 C 0.45502 0.54335 0.48968 0.0
C1585 C 0.46255 0.5203 0.46423 0.0
C1586 C 0.45038 0.53053 0.47215 0.0
C1587 C 0.5666 0.53275 0.48658 0.0
H1588 H 0.61611 0.56553 0.57201 0.0
H1589 H 0.63316 0.53117 0.52442 0.0
H1590 H 0.64559 0.57187 0.58915 0.0
H1591 H 0.66892 0.55726 0.57477 0.0
H1592 H 0.48883 0.51526 0.46718 0.0
H1593 H 0.47559 0.55617 0.51236 0.0
H1594 H 0.4589 0.51033 0.45078 0.0
H1595 H 0.43735 0.52835 0.46474 0.0
Gd1596 Gd 0.02921 0.53856 0.03148 0.0
Gd1597 Gd 0.07336 0.54157 0.01403 0.0
C1598 C 0.10899 0.60152 0.02088 0.0
C1599 C 0.11171 0.60513 0.98786 0.0
C1600 C 0.09502 0.57527 0.99526 0.0
C1601 C 0.09851 0.58279 0.01456 0.0
C1602 C 0.10199 0.58612 0.98169 0.0
C1603 C 0.11515 0.61284 0.00743 0.0
C1604 C 0.11342 0.60808 0.04049 0.0
C1605 C 0.10809 0.59573 0.05317 0.0
N1606 N 0.09251 0.57139 0.02714 0.0
C1607 C 0.09778 0.57726 0.04621 0.0
H1608 H 0.09375 0.56806 0.05633 0.0
C1609 C 0.08366 0.54794 0.9711 0.0
N1610 N 0.08549 0.55693 0.98979 0.0
C1611 C 0.09038 0.5581 0.9571 0.0
C1612 C 0.09935 0.57738 0.96238 0.0
H1613 H 0.07664 0.53306 0.96704 0.0
H1614 H 0.12302 0.62735 0.01201 0.0
H1615 H 0.00879 0.51243 0.98923 0.0
H1616 H 0.12138 0.6224 0.04592 0.0
H1617 H 0.1118 0.60047 0.06834 0.0
H1618 H 0.11699 0.61381 0.97765 0.0
H1619 H 0.02722 0.54679 0.07868 0.0
H1620 H 0.979 0.45907 0.99971 0.0
H1621 H 0.98945 0.48066 0.97727 0.0
H1622 H 0.98416 0.46724 0.06797 0.0
H1623 H 0.0886 0.55108 0.94226 0.0
H1624 H 0.10454 0.58522 0.95151 0.0
H1625 H 0.97735 0.45407 0.03361 0.0
H1626 H 0.01507 0.52894 0.10348 0.0
N1627 N 0.00973 0.50905 0.01839 0.0
C1628 C 0.98752 0.4731 0.00512 0.0
C1629 C 0.99335 0.48525 0.99242 0.0
C1630 C 0.99225 0.47946 0.02471 0.0
C1631 C 1.00339 0.49783 0.03101 0.0
C1632 C 1.00438 0.50334 0.99933 0.0
N1633 N 0.01737 0.52325 0.05584 0.0
C1634 C 0.00723 0.5052 0.05033 0.0
C1635 C 0.01289 0.52204 0.0886 0.0
C1636 C 1.00322 0.50305 0.08327 0.0
C1637 C 0.01974 0.5321 0.07459 0.0
C1638 C 1.00006 0.49448 0.06392 0.0
H1639 H 0.99791 0.49529 0.09415 0.0
O1640 O 0.01897 0.56298 0.04449 0.0
O1641 O 0.05424 0.55815 0.0271 0.0
O1642 O 0.07253 0.53928 0.04485 0.0
O1643 O 0.04406 0.52456 0.05047 0.0
O1644 O 0.04461 0.5638 0.05328 0.0
O1645 O 1.00458 0.54401 0.01935 0.0
O1646 O 0.08398 0.51722 1.00148 0.0
O1647 O 0.04823 0.52206 0.01815 0.0
O1648 O 0.02968 0.54167 1.00078 0.0
O1649 O 0.05846 0.55444 0.99413 0.0
O1650 O 0.05813 0.51597 0.99234 0.0
O1651 O 0.09764 0.53615 0.02696 0.0
C1652 C 0.05656 0.5702 0.04266 0.0
C1653 C 0.98964 0.47581 0.05774 0.0
C1654 C 0.98576 0.4683 0.03817 0.0
C1655 C 1.00495 0.55911 0.03244 0.0
C1656 C 0.98837 0.56119 0.04084 0.0
C1657 C 0.98378 0.55312 0.05689 0.0
C1658 C 0.97773 0.5726 0.03371 0.0
C1659 C 0.96259 0.5759 0.04267 0.0
C1660 C 0.96907 0.55666 0.06603 0.0
C1661 C 0.9586 0.56803 0.05908 0.0
C1662 C 0.06131 0.52898 0.05433 0.0
C1663 C 0.04589 0.50981 1.00276 0.0
C1664 C 0.09767 0.52111 0.01397 0.0
C1665 C 0.11458 0.51929 0.00626 0.0
C1666 C 0.11989 0.52792 0.99071 0.0
C1667 C 0.12509 0.50795 0.01377 0.0
C1668 C 0.14091 0.50556 0.00585 0.0
C1669 C 0.13532 0.5252 0.9826 0.0
C1670 C 0.14579 0.51414 0.99011 0.0
C1671 C 0.0412 0.55049 0.99048 0.0
H1672 H 0.99171 0.54435 0.0626 0.0
H1673 H 0.9812 0.57879 0.02124 0.0
H1674 H 0.96582 0.55066 0.07863 0.0
H1675 H 0.94738 0.57074 0.06665 0.0
H1676 H 0.11204 0.5366 0.9847 0.0
H1677 H 0.12109 0.50122 0.02579 0.0
H1678 H 0.1392 0.53171 0.97045 0.0
H1679 H 0.15775 0.51224 0.98358 0.0
H1680 H 0.02105 0.23587 0.98561 0.0
H1681 H 0.02768 0.20771 0.99667 0.0
H1682 H 0.03134 0.18127 0.93857 0.0
H1683 H 0.0258 0.21023 0.92755 0.0
H1684 H 0.01248 0.17365 0.99408 0.0
H1685 H 0.07362 0.16807 0.95951 0.0
H1686 H 0.06359 0.18851 0.95938 0.0
H1687 H 0.05549 0.1665 0.94223 0.0
C1688 C 0.02345 0.22419 0.97509 0.0
C1689 C 0.02293 0.22562 0.95558 0.0
C1690 C 0.02723 0.20788 0.98151 0.0
C1691 C 0.03044 0.19205 0.9687 0.0
C1692 C 0.02966 0.19329 0.94909 0.0
H1693 H 0.04367 0.07582 0.98205 0.0
H1694 H 0.04101 0.10547 0.97044 0.0
C1695 C 0.02627 0.20992 0.94268 0.0
C1696 C 0.03387 0.17427 0.97603 0.0
H1697 H 0.0605 0.14124 0.97313 0.0
C1698 C 0.02312 0.16677 0.98952 0.0
C1699 C 0.04774 0.16488 0.9704 0.0
C1700 C 0.06088 0.17252 0.95725 0.0
C1701 C 0.02551 0.15037 0.99705 0.0
C1702 C 0.03919 0.14084 0.99117 0.0
C1703 C 0.04994 0.14827 0.97771 0.0
C1704 C 0.04228 0.12303 0.99848 0.0
C1705 C 0.01291 0.14317 0.01092 0.0
C1706 C 0.0446 0.12277 0.01819 0.0
C1707 C 0.04603 0.10571 0.02484 0.0
C1708 C 0.04576 0.08849 0.01202 0.0
C1709 C 0.04423 0.08889 0.99234 0.0
C1710 C 0.04262 0.1059 0.98568 0.0
H1711 H 1.0004 0.14832 0.00972 0.0
H1712 H 0.00962 0.12716 0.00859 0.0
H1713 H 0.01918 0.14873 0.0257 0.0
H1714 H 0.04501 0.13573 0.02855 0.0
H1715 H 0.04706 0.1059 0.04007 0.0
H1716 H 0.1485 0.79986 0.119 0.0
H1717 H 0.1728 0.7975 0.14093 0.0
H1718 H 0.15279 0.83185 0.18668 0.0
H1719 H 0.12755 0.83302 0.1648 0.0
H1720 H 0.19925 0.81988 0.15856 0.0
H1721 H 0.16219 0.7944 0.21673 0.0
H1722 H 0.15107 0.79598 0.19441 0.0
H1723 H 0.15855 0.81721 0.21268 0.0
C1724 C 0.14911 0.80683 0.13378 0.0
C1725 C 0.13583 0.81662 0.13995 0.0
C1726 C 0.1632 0.80549 0.14645 0.0
C1727 C 0.16492 0.81416 0.16591 0.0
C1728 C 0.15179 0.8243 0.17209 0.0
H1729 H 0.24917 0.82118 0.25873 0.0
H1730 H 0.22359 0.82548 0.23945 0.0
C1731 C 0.13732 0.82519 0.15943 0.0
C1732 C 0.18075 0.81291 0.17907 0.0
H1733 H 0.19339 0.80273 0.22259 0.0
C1734 C 0.19777 0.81598 0.1725 0.0
C1735 C 0.17939 0.80805 0.19756 0.0
C1736 C 0.16181 0.80354 0.2057 0.0
C1737 C 0.21303 0.81437 0.18347 0.0
C1738 C 0.21162 0.80925 0.2018 0.0
C1739 C 0.19473 0.80658 0.20862 0.0
C1740 C 0.22736 0.80638 0.21388 0.0
C1741 C 0.23065 0.81864 0.17532 0.0
C1742 C 0.2382 0.79393 0.20642 0.0
C1743 C 0.253 0.79155 0.21744 0.0
C1744 C 0.25744 0.80124 0.23655 0.0
C1745 C 0.24636 0.81338 0.24418 0.0
C1746 C 0.2316 0.81587 0.23306 0.0
H1747 H 0.23053 0.82825 0.16469 0.0
H1748 H 0.24152 0.82556 0.18668 0.0
H1749 H 0.23353 0.80494 0.16788 0.0
H1750 H 0.23515 0.78582 0.19199 0.0
H1751 H 0.26089 0.78187 0.21094 0.0
H1752 H 0.5502 0.83511 0.43681 0.0
H1753 H 0.55444 0.86869 0.45262 0.0
H1754 H 0.50792 0.85402 0.48212 0.0
H1755 H 0.50431 0.81989 0.46699 0.0
H1756 H 0.5339 0.89127 0.44739 0.0
H1757 H 0.53784 0.89101 0.52512 0.0
H1758 H 0.53929 0.87014 0.50778 0.0
H1759 H 0.51815 0.87588 0.51197 0.0
C1760 C 0.54096 0.83897 0.44683 0.0
C1761 C 0.52679 0.82483 0.45044 0.0
C1762 C 0.54343 0.85825 0.45597 0.0
C1763 C 0.5316 0.86422 0.46877 0.0
C1764 C 0.51757 0.84999 0.47275 0.0
H1765 H 0.52867 0.98454 0.52292 0.0
H1766 H 0.52268 0.94916 0.51459 0.0
C1767 C 0.51536 0.83044 0.4639 0.0
C1768 C 0.53316 0.88552 0.47594 0.0
H1769 H 0.53678 0.92087 0.51572 0.0
C1770 C 0.53458 0.89765 0.46238 0.0
C1771 C 0.53367 0.89411 0.49547 0.0
C1772 C 0.5323 0.88215 0.51096 0.0
C1773 C 0.53653 0.91776 0.46749 0.0
C1774 C 0.53785 0.92661 0.48708 0.0
C1775 C 0.53599 0.91443 0.50074 0.0
C1776 C 0.54158 0.94833 0.49333 0.0
C1777 C 0.5366 0.92901 0.45144 0.0
C1778 C 0.55466 0.96013 0.48517 0.0
C1779 C 0.5565 0.98015 0.48833 0.0
C1780 C 0.5464 0.98958 0.50112 0.0
C1781 C 0.53521 0.97801 0.51154 0.0
C1782 C 0.5323 0.95762 0.50721 0.0
H1783 H 0.52897 0.91995 0.43826 0.0
H1784 H 0.53087 0.9419 0.45524 0.0
H1785 H 0.5504 0.9336 0.44789 0.0
H1786 H 0.56329 0.95385 0.47582 0.0
H1787 H 0.5662 0.98824 0.48075 0.0
H1788 H 0.54334 0.29113 0.66026 0.0
H1789 H 0.51582 0.28842 0.67572 0.0
H1790 H 0.49564 0.32038 0.63684 0.0
H1791 H 0.52292 0.32226 0.62072 0.0
H1792 H 0.50263 0.31521 0.69508 0.0
H1793 H 0.45224 0.27995 0.63443 0.0
H1794 H 0.47559 0.28185 0.63235 0.0
H1795 H 0.46585 0.30236 0.63143 0.0
C1796 C 0.53294 0.29733 0.65478 0.0
C1797 C 0.53538 0.30677 0.63911 0.0
C1798 C 0.51713 0.29582 0.6637 0.0
C1799 C 0.50325 0.30392 0.65746 0.0
C1800 C 0.50568 0.3134 0.64174 0.0
H1801 H 0.39821 0.29737 0.70555 0.0
H1802 H 0.42333 0.3069 0.6869 0.0
C1803 C 0.52143 0.3146 0.63254 0.0
C1804 C 0.48697 0.30328 0.6683 0.0
H1805 H 0.44167 0.28866 0.66431 0.0
C1806 C 0.48933 0.30937 0.68824 0.0
C1807 C 0.46937 0.29625 0.6596 0.0
C1808 C 0.46555 0.28959 0.6383 0.0
C1809 C 0.47499 0.30825 0.69963 0.0
C1810 C 0.45745 0.30003 0.69115 0.0
C1811 C 0.45496 0.29473 0.67108 0.0
C1812 C 0.44197 0.29546 0.70295 0.0
C1813 C 0.47903 0.31631 0.72072 0.0
C1814 C 0.44372 0.28596 0.71835 0.0
C1815 C 0.42973 0.28135 0.72946 0.0
C1816 C 0.4128 0.28482 0.72504 0.0
C1817 C 0.4109 0.29442 0.70961 0.0
C1818 C 0.4253 0.29968 0.69873 0.0
H1819 H 0.49061 0.32869 0.7234 0.0
H1820 H 0.46763 0.32124 0.72709 0.0
H1821 H 0.48255 0.30505 0.72814 0.0
H1822 H 0.45595 0.28171 0.72175 0.0
H1823 H 0.43225 0.27458 0.74147 0.0
H1824 H 1.00446 0.79074 0.60629 0.0
H1825 H 0.01148 0.8162 0.58746 0.0
H1826 H 0.03086 0.85786 0.639 0.0
H1827 H 0.02372 0.83247 0.65806 0.0
H1828 H 0.99768 0.85344 0.59521 0.0
H1829 H 0.07089 0.86133 0.59953 0.0
H1830 H 0.05596 0.83927 0.60199 0.0
H1831 H 0.06028 0.85964 0.62119 0.0
C1832 C 0.01033 0.80531 0.61359 0.0
C1833 C 0.01356 0.80979 0.63357 0.0
C1834 C 0.01426 0.81975 0.60285 0.0
C1835 C 0.02168 0.83868 0.61199 0.0
C1836 C 0.02517 0.84319 0.63187 0.0
H1837 H 0.05815 0.94304 0.56803 0.0
H1838 H 0.04817 0.92049 0.58945 0.0
C1839 C 0.02107 0.82878 0.64267 0.0
C1840 C 0.02537 0.8539 0.6007 0.0
H1841 H 0.05901 0.88321 0.58435 0.0
C1842 C 0.01106 0.86005 0.59281 0.0
C1843 C 0.04285 0.86219 0.59772 0.0
C1844 C 0.05844 0.85527 0.60542 0.0
C1845 C 0.01385 0.87465 0.58198 0.0
C1846 C 0.03134 0.88299 0.579 0.0
C1847 C 0.04564 0.87684 0.58696 0.0
C1848 C 0.03517 0.89726 0.5666 0.0
C1849 C 0.99817 0.88114 0.57386 0.0
C1850 C 0.03097 0.89149 0.54686 0.0
C1851 C 0.03681 0.90414 0.53469 0.0
C1852 C 0.04684 0.92268 0.54218 0.0
C1853 C 0.0504 0.92874 0.56203 0.0
C1854 C 0.04473 0.91598 0.5742 0.0
H1855 H 0.986 0.87615 0.58075 0.0
H1856 H 1.00091 0.89711 0.57565 0.0
H1857 H 0.99565 0.87511 0.55835 0.0
H1858 H 0.02378 0.87696 0.54084 0.0
H1859 H 0.03381 0.89937 0.51942 0.0
H1860 H 0.56031 0.82219 0.84983 0.0
H1861 H 0.53197 0.81934 0.8313 0.0
H1862 H 0.50666 0.82721 0.88348 0.0
H1863 H 0.53482 0.83049 0.90207 0.0
H1864 H 0.49827 0.79312 0.83161 0.0
H1865 H 0.49607 0.87007 0.85604 0.0
H1866 H 0.51616 0.86127 0.8581 0.0
H1867 H 0.4999 0.8572 0.87478 0.0
C1868 C 0.54867 0.82325 0.85732 0.0
C1869 C 0.54976 0.82679 0.87738 0.0
C1870 C 0.53256 0.82159 0.84675 0.0
C1871 C 0.51741 0.82335 0.85613 0.0
C1872 C 0.51835 0.82621 0.87608 0.0
H1873 H 0.41103 0.83033 0.8218 0.0
H1874 H 0.43749 0.82605 0.83939 0.0
C1875 C 0.53443 0.82808 0.88664 0.0
C1876 C 0.50062 0.82271 0.84519 0.0
H1877 H 0.47038 0.84981 0.83854 0.0
C1878 C 0.49215 0.80549 0.83301 0.0
C1879 C 0.4928 0.83893 0.8472 0.0
C1880 C 0.50174 0.85798 0.8596 0.0
C1881 C 0.47572 0.80396 0.82296 0.0
C1882 C 0.4679 0.82018 0.82502 0.0
C1883 C 0.47643 0.83738 0.83717 0.0
C1884 C 0.45117 0.82005 0.8142 0.0
C1885 C 0.46672 0.78497 0.81055 0.0
C1886 C 0.45016 0.81786 0.79426 0.0
C1887 C 0.43511 0.82031 0.7842 0.0
C1888 C 0.42094 0.82506 0.79399 0.0
C1889 C 0.42176 0.82659 0.81392 0.0
C1890 C 0.43682 0.82418 0.82396 0.0
H1891 H 0.47191 0.77277 0.8146 0.0
H1892 H 0.4522 0.78205 0.81147 0.0
H1893 H 0.46917 0.78553 0.79547 0.0
H1894 H 0.46125 0.81498 0.78655 0.0
H1895 H 0.43465 0.81879 0.76881 0.0
H1896 H 0.46879 0.20045 0.12777 0.0
H1897 H 0.47145 0.16671 0.11871 0.0
H1898 H 0.52832 0.18517 0.13012 0.0
H1899 H 0.52543 0.21792 0.1405 0.0
H1900 H 0.48621 0.1609 0.08819 0.0
H1901 H 0.52425 0.13359 0.14059 0.0
H1902 H 0.51398 0.15371 0.14781 0.0
H1903 H 0.53589 0.15746 0.13968 0.0
C1904 C 0.48163 0.19684 0.12928 0.0
C1905 C 0.49694 0.21127 0.13455 0.0
C1906 C 0.48317 0.17774 0.12424 0.0
C1907 C 0.50005 0.17339 0.12393 0.0
C1908 C 0.51512 0.18787 0.13093 0.0
H1909 H 0.56153 0.113 0.05364 0.0
H1910 H 0.54887 0.13628 0.07489 0.0
C1911 C 0.51352 0.20668 0.1365 0.0
C1912 C 0.50262 0.15596 0.11159 0.0
H1913 H 0.53125 0.12582 0.10692 0.0
C1914 C 0.49557 0.15272 0.09245 0.0
C1915 C 0.5151 0.14561 0.11708 0.0
C1916 C 0.52255 0.14775 0.1375 0.0
C1917 C 0.50171 0.14049 0.07839 0.0
C1918 C 0.51499 0.13122 0.08382 0.0
C1919 C 0.52129 0.13345 0.10299 0.0
C1920 C 0.52225 0.11863 0.06985 0.0
C1921 C 0.4947 0.13839 0.05778 0.0
C1922 C 0.51129 0.10146 0.06018 0.0
C1923 C 0.51837 0.08856 0.04807 0.0
C1924 C 0.53646 0.09263 0.0458 0.0
C1925 C 0.54749 0.10987 0.0553 0.0
C1926 C 0.54033 0.123 0.06729 0.0
H1927 H 0.48754 0.14986 0.0556 0.0
H1928 H 0.5056 0.13882 0.04831 0.0
H1929 H 0.4853 0.12425 0.05331 0.0
H1930 H 0.49742 0.09776 0.06253 0.0
H1931 H 0.50989 0.07499 0.04135 0.0
H1932 H 0.12959 0.28505 0.34472 0.0
H1933 H 0.15457 0.28434 0.32514 0.0
H1934 H 0.1797 0.34202 0.35404 0.0
H1935 H 0.15551 0.34221 0.37438 0.0
H1936 H 0.16706 0.30708 0.30054 0.0
H1937 H 0.21838 0.31436 0.36044 0.0
H1938 H 0.19512 0.30987 0.36369 0.0
H1939 H 0.20714 0.33389 0.36292 0.0
C1940 C 0.14067 0.29734 0.34702 0.0
C1941 C 0.14104 0.31345 0.36117 0.0
C1942 C 0.15475 0.29702 0.33583 0.0
C1943 C 0.16899 0.31301 0.33847 0.0
C1944 C 0.16906 0.32934 0.35227 0.0
H1945 H 0.27035 0.329 0.30148 0.0
H1946 H 0.24241 0.33722 0.30729 0.0
C1947 C 0.1553 0.32941 0.36383 0.0
C1948 C 0.18388 0.31257 0.32687 0.0
H1949 H 0.22823 0.31626 0.3302 0.0
C1950 C 0.18051 0.30915 0.30692 0.0
C1951 C 0.20127 0.31528 0.33541 0.0
C1952 C 0.20568 0.31837 0.35677 0.0
C1953 C 0.19426 0.30853 0.29513 0.0
C1954 C 0.21163 0.31123 0.30369 0.0
C1955 C 0.2149 0.3146 0.32366 0.0
C1956 C 0.22685 0.30959 0.29273 0.0
C1957 C 0.19005 0.3051 0.27378 0.0
C1958 C 0.22725 0.29225 0.28056 0.0
C1959 C 0.24347 0.28817 0.27593 0.0
C1960 C 0.25918 0.30039 0.28487 0.0
C1961 C 0.25856 0.3187 0.29499 0.0
C1962 C 0.2425 0.32352 0.29829 0.0
H1963 H 0.17797 0.31023 0.26997 0.0
H1964 H 0.20118 0.3124 0.26668 0.0
H1965 H 0.18744 0.28936 0.26811 0.0
H1966 H 0.21532 0.28125 0.27593 0.0
H1967 H 0.24359 0.27503 0.26649 0.0
H1968 H 0.94706 0.04108 0.21021 0.0
H1969 H 0.96134 0.04043 0.1803 0.0
H1970 H 0.98961 0.09906 0.20013 0.0
H1971 H 0.97539 0.09956 0.23015 0.0
H1972 H 0.96289 0.05824 0.15027 0.0
H1973 H 0.03138 0.07805 0.18476 0.0
H1974 H 0.01254 0.07224 0.19809 0.0
H1975 H 0.01844 0.09565 0.19161 0.0
C1976 C 0.95581 0.05416 0.20803 0.0
C1977 C 0.95915 0.07069 0.22276 0.0
C1978 C 0.96434 0.05368 0.19077 0.0
C1979 C 0.97718 0.06952 0.18734 0.0
C1980 C 0.98027 0.08625 0.20191 0.0
H1981 H 0.04955 0.0816 0.09143 0.0
H1982 H 0.03511 0.0866 0.12132 0.0
C1983 C 0.97165 0.08674 0.21917 0.0
C1984 C 0.98697 0.06834 0.16875 0.0
H1985 H 0.02817 0.07453 0.15119 0.0
C1986 C 0.9772 0.0618 0.15068 0.0
C1987 C 1.00578 0.07316 0.16839 0.0
C1988 C 0.01771 0.08002 0.18672 0.0
C1989 C 0.98519 0.06028 0.13299 0.0
C1990 C 1.00406 0.0643 0.13256 0.0
C1991 C 0.01387 0.0711 0.1507 0.0
C1992 C 0.01361 0.06135 0.11378 0.0
C1993 C 0.97287 0.05522 0.1149 0.0
C1994 C 0.00731 0.04532 0.09881 0.0
C1995 C 0.01521 0.0429 0.0813 0.0
C1996 C 0.03068 0.05569 0.07777 0.0
C1997 C 0.0377 0.07129 0.09304 0.0
C1998 C 0.02931 0.07412 0.11046 0.0
H1999 H 0.96034 0.06011 0.11726 0.0
H2000 H 0.97893 0.06188 0.10324 0.0
H2001 H 0.96931 0.03931 0.11032 0.0
H2002 H 0.99612 0.03425 0.10054 0.0
H2003 H 0.00908 0.03056 0.07047 0.0
H2004 H 0.25895 0.66603 0.48531 0.0
H2005 H 0.25541 0.68511 0.4611 0.0
H2006 H 0.29946 0.66762 0.43419 0.0
H2007 H 0.3032 0.64838 0.45889 0.0
H2008 H 0.28866 0.71481 0.46001 0.0
H2009 H 0.25931 0.66821 0.39043 0.0
H2010 H 0.25494 0.66094 0.41304 0.0
H2011 H 0.2761 0.66088 0.40419 0.0
C2012 C 0.26745 0.66559 0.47389 0.0
C2013 C 0.28146 0.65599 0.47394 0.0
C2014 C 0.26539 0.67648 0.46008 0.0
C2015 C 0.27728 0.67771 0.44616 0.0
C2016 C 0.29015 0.66655 0.44492 0.0
H2017 H 0.28779 0.7496 0.3622 0.0
H2018 H 0.29315 0.7279 0.38313 0.0
C2019 C 0.2922 0.65554 0.45885 0.0
C2020 C 0.27798 0.69304 0.43519 0.0
H2021 H 0.26766 0.70166 0.3912 0.0
C2022 C 0.28421 0.71207 0.44492 0.0
C2023 C 0.27213 0.68907 0.41569 0.0
C2024 C 0.26514 0.66869 0.40512 0.0
C2025 C 0.28481 0.72754 0.43541 0.0
C2026 C 0.27862 0.72363 0.41588 0.0
C2027 C 0.27249 0.70451 0.40619 0.0
C2028 C 0.27789 0.73905 0.40512 0.0
C2029 C 0.29219 0.74777 0.44629 0.0
C2030 C 0.26796 0.75286 0.41094 0.0
C2031 C 0.26554 0.76603 0.3994 0.0
C2032 C 0.27247 0.76505 0.38159 0.0
C2033 C 0.28268 0.7513 0.37604 0.0
C2034 C 0.28557 0.73863 0.38786 0.0
H2035 H 0.30141 0.74779 0.45879 0.0
H2036 H 0.29929 0.75713 0.43706 0.0
H2037 H 0.28116 0.75413 0.45176 0.0
H2038 H 0.26155 0.75303 0.42404 0.0
H2039 H 0.25779 0.77653 0.40416 0.0
H2040 H 0.67684 0.05633 0.68951 0.0
H2041 H 0.66242 0.04762 0.65669 0.0
H2042 H 0.62153 1.00566 0.67451 0.0
H2043 H 0.63542 0.01487 0.70727 0.0
H2044 H 0.64101 1.00398 0.62988 0.0
H2045 H 0.60583 0.0599 0.66281 0.0
H2046 H 0.62878 0.0607 0.66957 0.0
H2047 H 0.61176 0.04384 0.67761 0.0
C2048 C 0.66499 0.04496 0.68611 0.0
C2049 C 0.65667 0.03652 0.70046 0.0
C2050 C 0.65703 0.03985 0.66754 0.0
C2051 C 0.64111 0.02608 0.66363 0.0
C2052 C 0.63394 0.01622 0.67761 0.0
H2053 H 0.54992 0.01215 0.58288 0.0
H2054 H 0.56828 1.00604 0.60959 0.0
C2055 C 0.64162 0.02164 0.69617 0.0
C2056 C 0.62961 0.02522 0.64684 0.0
H2057 H 0.59308 0.04061 0.63343 0.0
C2058 C 0.63052 0.01193 0.63048 0.0
C2059 C 0.61622 0.03589 0.6481 0.0
C2060 C 0.61555 0.051 0.66539 0.0
C2061 C 0.61784 0.00875 0.61505 0.0
C2062 C 0.60407 0.01887 0.61658 0.0
C2063 C 0.60331 0.03229 0.63293 0.0
C2064 C 0.59297 0.01939 0.59991 0.0
C2065 C 0.61949 0.99513 0.59702 0.0
C2066 C 0.60111 0.02904 0.58639 0.0
C2067 C 0.59095 0.03269 0.57174 0.0
C2068 C 0.57244 0.02686 0.57041 0.0
C2069 C 0.56418 0.01668 0.5837 0.0
C2070 C 0.57454 0.01312 0.59872 0.0
H2071 H 0.6275 0.98459 0.59988 0.0
H2072 H 0.60626 0.98718 0.59007 0.0
H2073 H 0.62621 1.00357 0.58683 0.0
H2074 H 0.61532 0.03453 0.58765 0.0
H2075 H 0.59779 0.04071 0.56186 0.0
H2076 H 0.28764 0.38576 0.97034 0.0
H2077 H 0.28632 0.36765 0.9379 0.0
H2078 H 0.32305 0.33565 0.95722 0.0
H2079 H 0.32352 0.35305 0.98999 0.0
H2080 H 0.3123 0.36858 0.91654 0.0
H2081 H 0.28907 0.29219 0.92367 0.0
H2082 H 0.28813 0.31205 0.94248 0.0
H2083 H 0.30864 0.30453 0.93892 0.0
C2084 C 0.29537 0.3748 0.96766 0.0
C2085 C 0.30585 0.37095 0.98258 0.0
C2086 C 0.29453 0.36435 0.94914 0.0
C2087 C 0.30442 0.35005 0.94502 0.0
C2088 C 0.31488 0.34615 0.96 0.0
H2089 H 0.31901 0.28862 0.82989 0.0
H2090 H 0.32064 0.29783 0.86495 0.0
C2091 C 0.31536 0.3563 0.97869 0.0
C2092 C 0.305 0.34083 0.92476 0.0
H2093 H 0.29821 0.29776 0.89347 0.0
C2094 C 0.30919 0.35308 0.91158 0.0
C2095 C 0.30127 0.32057 0.91821 0.0
C2096 C 0.29638 0.30655 0.93152 0.0
C2097 C 0.30953 0.34584 0.89216 0.0
C2098 C 0.30516 0.32561 0.88539 0.0
C2099 C 0.30152 0.31323 0.8986 0.0
C2100 C 0.30299 0.31757 0.86451 0.0
C2101 C 0.31463 0.36018 0.87914 0.0
C2102 C 0.29183 0.32449 0.85266 0.0
C2103 C 0.29227 0.3207 0.83301 0.0
C2104 C 0.30303 0.30875 0.82427 0.0
C2105 C 0.31202 0.29925 0.83602 0.0
C2106 C 0.31248 0.3041 0.85608 0.0
H2107 H 0.32336 0.37376 0.88703 0.0
H2108 H 0.32154 0.35422 0.86709 0.0
H2109 H 0.30252 0.364 0.8733 0.0
H2110 H 0.28347 0.33388 0.85868 0.0
H2111 H 0.28434 0.32776 0.82479 0.0
H2112 H 0.97891 0.0604 0.31376 0.0
H2113 H 0.99437 0.0549 0.34273 0.0
H2114 H 0.95594 0.07657 0.37637 0.0
H2115 H 0.94005 0.08103 0.34739 0.0
H2116 H 0.01233 0.07207 0.37444 0.0
H2117 H 0.95296 0.0318 0.40005 0.0
H2118 H 0.95232 0.0385 0.37691 0.0
H2119 H 0.95028 0.05547 0.39798 0.0
C2120 C 0.97353 0.06382 0.32727 0.0
C2121 C 0.95771 0.07091 0.32762 0.0
C2122 C 0.98258 0.06069 0.34417 0.0
C2123 C 0.97644 0.06453 0.36252 0.0
C2124 C 0.961 0.07236 0.36286 0.0
H2125 H 1.00441 0.05739 0.48284 0.0
H2126 H 0.99323 0.06202 0.45208 0.0
C2127 C 0.95181 0.07518 0.34597 0.0
C2128 C 0.98596 0.06049 0.38097 0.0
H2129 H 0.97824 0.04225 0.42234 0.0
C2130 C 1.0047 0.06545 0.38478 0.0
C2131 C 0.97675 0.05155 0.39506 0.0
C2132 C 0.95701 0.04383 0.39222 0.0
C2133 C 0.01395 0.06266 0.40186 0.0
C2134 C 1.00459 0.05427 0.4162 0.0
C2135 C 0.98594 0.04894 0.4121 0.0
C2136 C 0.01317 0.05168 0.43582 0.0
C2137 C 0.03379 0.06943 0.40451 0.0
C2138 C 0.02875 0.04428 0.4384 0.0
C2139 C 0.03572 0.04195 0.45683 0.0
C2140 C 0.02722 0.04641 0.47362 0.0
C2141 C 0.01167 0.05354 0.47078 0.0
C2142 C 1.00501 0.05619 0.45271 0.0
H2143 H 0.03853 0.08009 0.39535 0.0
H2144 H 0.03841 0.07608 0.41961 0.0
H2145 H 0.03993 0.05688 0.40044 0.0
H2146 H 0.03552 0.03994 0.42611 0.0
H2147 H 0.04768 0.03649 0.45783 0.0
H2148 H 0.26768 0.70092 0.56525 0.0
H2149 H 0.26421 0.71388 0.59792 0.0
H2150 H 0.29618 0.67728 0.61771 0.0
H2151 H 0.29988 0.66394 0.58442 0.0
H2152 H 0.25505 0.70085 0.6335 0.0
H2153 H 0.3258 0.7347 0.62881 0.0
H2154 H 0.31141 0.72147 0.60809 0.0
H2155 H 0.31983 0.70879 0.62489 0.0
C2156 C 0.27399 0.69549 0.57647 0.0
C2157 C 0.28487 0.68218 0.57243 0.0
C2158 C 0.27157 0.70257 0.59511 0.0
C2159 C 0.28009 0.6966 0.60998 0.0
C2160 C 0.28959 0.68197 0.60615 0.0
H2161 H 0.31349 0.75867 0.72084 0.0
H2162 H 0.30806 0.73747 0.68995 0.0
C2163 C 0.29193 0.67467 0.5873 0.0
C2164 C 0.28249 0.70918 0.6286 0.0
H2165 H 0.31247 0.74663 0.6553 0.0
C2166 C 0.26764 0.71065 0.63862 0.0
C2167 C 0.29879 0.72234 0.63446 0.0
C2168 C 0.31488 0.72195 0.62349 0.0
C2169 C 0.26889 0.72484 0.65495 0.0
C2170 C 0.28529 0.73787 0.66083 0.0
C2171 C 0.29995 0.73654 0.65055 0.0
C2172 C 0.28844 0.75141 0.67895 0.0
C2173 C 0.25286 0.72561 0.66587 0.0
C2174 C 0.2795 0.76655 0.68263 0.0
C2175 C 0.28259 0.77871 0.70046 0.0
C2176 C 0.29483 0.77581 0.71423 0.0
C2177 C 0.30428 0.76128 0.71014 0.0
C2178 C 0.30105 0.74909 0.69264 0.0
H2179 H 0.24218 0.71248 0.66122 0.0
H2180 H 0.25647 0.72726 0.68143 0.0
H2181 H 0.24755 0.73829 0.66347 0.0
H2182 H 0.26997 0.76867 0.67195 0.0
H2183 H 0.27499 0.78971 0.70376 0.0
H2184 H 0.65787 0.06865 0.78968 0.0
H2185 H 0.64226 0.06869 0.81829 0.0
H2186 H 0.67714 0.03648 0.84087 0.0
H2187 H 0.69312 0.03661 0.81219 0.0
H2188 H 0.62739 0.02836 0.82445 0.0
H2189 H 0.66802 0.07881 0.88669 0.0
H2190 H 0.66999 0.08298 0.86257 0.0
H2191 H 0.6785 0.06384 0.87011 0.0
C2192 C 0.66258 0.06213 0.801 0.0
C2193 C 0.67637 0.05227 0.79878 0.0
C2194 C 0.6537 0.06219 0.81727 0.0
C2195 C 0.65856 0.05236 0.8313 0.0
C2196 C 0.6734 0.04414 0.83001 0.0
H2197 H 0.59913 0.04933 0.92906 0.0
H2198 H 0.61709 0.03562 0.90574 0.0
C2199 C 0.68246 0.04425 0.81375 0.0
C2200 C 0.64639 0.04826 0.84555 0.0
H2201 H 0.63925 0.06353 0.8914 0.0
C2202 C 0.63001 0.03569 0.83924 0.0
C2203 C 0.65016 0.05782 0.86462 0.0
C2204 C 0.66759 0.07169 0.87155 0.0
C2205 C 0.6167 0.03328 0.8515 0.0
C2206 C 0.62006 0.04378 0.87032 0.0
C2207 C 0.63689 0.05533 0.87694 0.0
C2208 C 0.60575 0.04612 0.88232 0.0
C2209 C 0.59896 0.02032 0.84399 0.0
C2210 C 0.59307 0.05585 0.87647 0.0
C2211 C 0.58285 0.06371 0.8897 0.0
C2212 C 0.58532 0.06195 0.90883 0.0
C2213 C 0.59696 0.05079 0.9143 0.0
C2214 C 0.60715 0.0429 0.90106 0.0
H2215 H 0.60035 0.00855 0.8323 0.0
H2216 H 0.5923 0.01387 0.85547 0.0
H2217 H 0.59037 0.02891 0.83805 0.0
H2218 H 0.59212 0.0588 0.8621 0.0
H2219 H 0.57374 0.07205 0.88522 0.0
H2220 H 0.29462 0.33525 0.06695 0.0
H2221 H 0.28867 0.32392 0.09666 0.0
H2222 H 0.30102 0.3827 0.12729 0.0
H2223 H 0.3066 0.39427 0.0972 0.0
H2224 H 0.313 0.3289 0.1263 0.0
H2225 H 0.25642 0.36026 0.15017 0.0
H2226 H 0.26296 0.35935 0.12621 0.0
H2227 H 0.2751 0.37754 0.14544 0.0
C2228 C 0.29584 0.34584 0.07995 0.0
C2229 C 0.30122 0.36567 0.07975 0.0
C2230 C 0.29241 0.33931 0.09694 0.0
C2231 C 0.29432 0.35242 0.11421 0.0
C2232 C 0.29913 0.37232 0.11407 0.0
H2233 H 0.29332 0.33686 0.23174 0.0
H2234 H 0.2938 0.34917 0.20197 0.0
C2235 C 0.30238 0.37893 0.0969 0.0
C2236 C 0.29268 0.3449 0.13232 0.0
H2237 H 0.26995 0.34486 0.17192 0.0
C2238 C 0.30353 0.33235 0.13625 0.0
C2239 C 0.28036 0.34942 0.14529 0.0
C2240 C 0.26792 0.36224 0.14154 0.0
C2241 C 0.30259 0.32438 0.15288 0.0
C2242 C 0.2902 0.32881 0.16581 0.0
C2243 C 0.27939 0.34142 0.16194 0.0
C2244 C 0.28867 0.32103 0.18375 0.0
C2245 C 0.31522 0.31168 0.15658 0.0
C2246 C 0.28519 0.30107 0.18343 0.0
C2247 C 0.28526 0.29397 0.20047 0.0
C2248 C 0.28825 0.30665 0.21818 0.0
C2249 C 0.29091 0.32661 0.2184 0.0
C2250 C 0.29116 0.33371 0.20137 0.0
H2251 H 0.3269 0.31414 0.14826 0.0
H2252 H 0.31995 0.31423 0.17196 0.0
H2253 H 0.30832 0.29633 0.15216 0.0
H2254 H 0.28285 0.29098 0.16999 0.0
H2255 H 0.28372 0.27863 0.19963 0.0
H2256 H 0.26008 0.93593 0.99415 0.0
H2257 H 0.235 0.95149 0.99658 0.0
H2258 H 0.26153 0.99038 0.0475 0.0
H2259 H 0.28713 0.9754 0.04462 0.0
H2260 H 0.2139 0.95364 0.02441 0.0
H2261 H 0.24745 0.02714 0.01617 0.0
H2262 H 0.25766 0.00668 0.0112 0.0
H2263 H 0.258 0.01914 0.03536 0.0
C2264 C 0.26055 0.94781 0.00586 0.0
C2265 C 0.27537 0.95456 0.01925 0.0
C2266 C 0.2463 0.95668 0.00716 0.0
C2267 C 0.24667 0.97219 0.02201 0.0
C2268 C 0.26133 0.97873 0.03565 0.0
H2269 H 0.17146 0.02748 0.07362 0.0
H2270 H 0.19268 0.00731 0.06453 0.0
C2271 C 0.27579 0.9701 0.03412 0.0
C2272 C 0.23132 0.98096 0.02364 0.0
H2273 H 0.21891 0.02399 0.02822 0.0
C2274 C 0.21491 0.96898 0.02501 0.0
C2275 C 0.2328 1.00089 0.02409 0.0
C2276 C 0.2499 0.01415 0.02142 0.0
C2277 C 0.19994 0.97668 0.02769 0.0
C2278 C 0.20171 0.9967 0.02923 0.0
C2279 C 0.21789 0.00859 0.02714 0.0
C2280 C 0.18722 1.00596 0.03422 0.0
C2281 C 0.18242 0.96361 0.0292 0.0
C2282 C 0.17731 0.01142 0.02 0.0
C2283 C 0.16539 0.02297 0.02511 0.0
C2284 C 0.16349 0.02924 0.04449 0.0
C2285 C 0.17302 0.02309 0.05864 0.0
C2286 C 0.18488 0.01146 0.0535 0.0
H2287 H 0.18302 0.94812 0.02619 0.0
H2288 H 0.17831 0.96713 0.04379 0.0
H2289 H 0.17212 0.96606 0.01901 0.0
H2290 H 0.17924 0.0073 0.00508 0.0
H2291 H 0.15813 0.02757 0.01396 0.0
H2292 H 0.75341 0.63996 1.00289 0.0
H2293 H 0.72504 0.61725 0.00313 0.0
H2294 H 0.6972 0.66227 0.99723 0.0
H2295 H 0.7251 0.6847 0.99658 0.0
H2296 H 0.69841 0.61766 0.02736 0.0
H2297 H 0.67098 0.62016 0.95491 0.0
H2298 H 0.69405 0.62953 0.9631 0.0
H2299 H 0.67792 0.64378 0.9693 0.0
C2300 C 0.74124 0.64498 1.00143 0.0
C2301 C 0.74172 0.66425 0.9995 0.0
C2302 C 0.72497 0.63196 1.00164 0.0
C2303 C 0.70879 0.63783 0.99981 0.0
C2304 C 0.70933 0.65709 0.99813 0.0
H2305 H 0.5969 0.5957 0.00786 0.0
H2306 H 0.62677 0.61389 0.00546 0.0
C2307 C 0.72545 0.67001 0.99786 0.0
C2308 C 0.6913 0.62421 1.00002 0.0
H2309 H 0.65022 0.60733 0.97551 0.0
C2310 C 0.68798 0.6152 0.01588 0.0
C2311 C 0.67751 0.62087 0.9851 0.0
C2312 C 0.68033 0.62893 0.96706 0.0
C2313 C 0.67122 0.60365 0.01751 0.0
C2314 C 0.65735 0.60082 1.00282 0.0
C2315 C 0.66076 0.60952 0.98684 0.0
C2316 C 0.63907 0.58937 0.00399 0.0
C2317 C 0.66827 0.59509 0.03524 0.0
C2318 C 0.63579 0.56934 0.00359 0.0
C2319 C 0.61857 0.55879 0.00467 0.0
C2320 C 0.6042 0.56801 0.00632 0.0
C2321 C 0.60755 0.58804 0.00656 0.0
C2322 C 0.62469 0.59851 0.00522 0.0
H2323 H 0.67917 0.60142 0.04673 0.0
H2324 H 0.65559 0.59733 0.04074 0.0
H2325 H 0.66745 0.57931 0.03168 0.0
H2326 H 0.64657 0.56186 1.00246 0.0
H2327 H 0.61664 0.54352 0.00476 0.0
H2328 H 0.67511 0.44171 0.27657 0.0
H2329 H 0.69157 0.41584 0.27667 0.0
H2330 H 0.7361 0.45121 0.25721 0.0
H2331 H 0.72007 0.47723 0.25812 0.0
H2332 H 0.70461 0.39093 0.25686 0.0
H2333 H 0.76662 0.43718 0.29373 0.0
H2334 H 0.74697 0.44647 0.2911 0.0
H2335 H 0.76126 0.44486 0.27199 0.0
C2336 C 0.68847 0.44419 0.2724 0.0
C2337 C 0.69589 0.46233 0.26751 0.0
C2338 C 0.69813 0.42904 0.27244 0.0
C2339 C 0.71594 0.43086 0.26761 0.0
C2340 C 0.72302 0.44879 0.26204 0.0
H2341 H 0.79045 0.34545 0.2514 0.0
H2342 H 0.77486 0.37184 0.24873 0.0
C2343 C 0.71348 0.46398 0.26225 0.0
C2344 C 0.72673 0.41434 0.26811 0.0
H2345 H 0.76826 0.40541 0.27962 0.0
C2346 C 0.7185 0.39446 0.26199 0.0
C2347 C 0.74517 0.41766 0.27478 0.0
C2348 C 0.75548 0.43765 0.28346 0.0
C2349 C 0.72768 0.37886 0.26204 0.0
C2350 C 0.7461 0.38231 0.26835 0.0
C2351 C 0.75437 0.40206 0.27442 0.0
C2352 C 0.75647 0.36579 0.26982 0.0
C2353 C 0.71748 0.35848 0.25493 0.0
C2354 C 0.75222 0.3529 0.28263 0.0
C2355 C 0.76173 0.33817 0.28473 0.0
C2356 C 0.77606 0.33474 0.27389 0.0
C2357 C 0.78007 0.34729 0.26056 0.0
C2358 C 0.77084 0.36259 0.2589 0.0
H2359 H 0.70462 0.358 0.24696 0.0
H2360 H 0.72534 0.35024 0.24551 0.0
H2361 H 0.71479 0.35116 0.26728 0.0
H2362 H 0.74152 0.35437 0.29149 0.0
H2363 H 0.7576 0.32922 0.29511 0.0
H2364 H 0.87178 0.45413 0.47544 0.0
H2365 H 0.90039 0.47745 0.48387 0.0
H2366 H 0.8975 0.47234 0.54308 0.0
H2367 H 0.86921 0.44916 0.53473 0.0
H2368 H 0.91187 0.51478 0.51806 0.0
H2369 H 0.94086 0.45015 0.51906 0.0
H2370 H 0.91927 0.44853 0.50728 0.0
H2371 H 0.92233 0.45168 0.53283 0.0
C2372 C 0.8774 0.45815 0.49017 0.0
C2373 C 0.86888 0.44994 0.50449 0.0
C2374 C 0.89337 0.47157 0.49499 0.0
C2375 C 0.9006 0.4766 0.51406 0.0
C2376 C 0.89175 0.46874 0.52838 0.0
H2377 H 0.00831 0.50341 0.54742 0.0
H2378 H 0.97824 0.50356 0.5544 0.0
C2379 C 0.8759 0.45542 0.52359 0.0
C2380 C 0.9187 0.48736 0.51871 0.0
H2381 H 0.95967 0.48016 0.52825 0.0
C2382 C 0.92248 0.50747 0.5205 0.0
C2383 C 0.93212 0.47746 0.52187 0.0
C2384 C 0.92854 0.45575 0.52005 0.0
C2385 C 0.93982 0.51815 0.52554 0.0
C2386 C 0.95337 0.50816 0.52845 0.0
C2387 C 0.94927 0.48798 0.52663 0.0
C2388 C 0.97226 0.51723 0.53075 0.0
C2389 C 0.94328 0.53981 0.52763 0.0
C2390 C 0.97946 0.52708 0.51674 0.0
C2391 C 0.99718 0.52849 0.51391 0.0
C2392 C 0.00743 0.51852 0.52356 0.0
C2393 C 1.00062 0.51035 0.53883 0.0
C2394 C 0.98346 0.51072 0.54307 0.0
H2395 H 0.93187 0.5454 0.53322 0.0
H2396 H 0.95538 0.54703 0.53726 0.0
H2397 H 0.94488 0.54378 0.51336 0.0
H2398 H 0.97128 0.53241 0.50703 0.0
H2399 H 1.00258 0.53698 0.50391 0.0
H2400 H 0.41596 0.10669 0.31695 0.0
H2401 H 0.39985 0.13212 0.31361 0.0
H2402 H 0.36024 0.091 0.27413 0.0
H2403 H 0.37594 0.06561 0.27764 0.0
H2404 H 0.39099 0.14305 0.27861 0.0
H2405 H 0.33129 0.11577 0.31359 0.0
H2406 H 0.352 0.10847 0.31737 0.0
H2407 H 0.3373 0.09769 0.2962 0.0
C2408 C 0.40382 0.10321 0.30758 0.0
C2409 C 0.39697 0.08437 0.29765 0.0
C2410 C 0.39465 0.11758 0.30584 0.0
C2411 C 0.37872 0.11305 0.29416 0.0
C2412 C 0.37224 0.09441 0.28374 0.0
H2413 H 0.30509 0.15117 0.23316 0.0
H2414 H 0.32195 0.13533 0.25294 0.0
C2415 C 0.38125 0.08005 0.28562 0.0
C2416 C 0.36929 0.12799 0.29154 0.0
H2417 H 0.3281 0.13726 0.29173 0.0
C2418 C 0.3774 0.14229 0.28193 0.0
C2419 C 0.35161 0.12648 0.29585 0.0
C2420 C 0.34259 0.11135 0.30648 0.0
C2421 C 0.3677 0.15437 0.27501 0.0
C2422 C 0.34971 0.15229 0.27854 0.0
C2423 C 0.34196 0.13878 0.28927 0.0
C2424 C 0.33816 0.16205 0.26891 0.0
C2425 C 0.3764 0.1681 0.26276 0.0
C2426 C 0.34149 0.18218 0.27193 0.0
C2427 C 0.33226 0.19122 0.26033 0.0
C2428 C 0.31944 0.18012 0.24587 0.0
C2429 C 0.31529 0.15996 0.24385 0.0
C2430 C 0.32468 0.15095 0.25527 0.0
H2431 H 0.38926 0.16509 0.25847 0.0
H2432 H 0.36767 0.16725 0.24964 0.0
H2433 H 0.37893 0.18309 0.27091 0.0
H2434 H 0.35171 0.19083 0.28267 0.0
H2435 H 0.33565 0.20681 0.26218 0.0
H2436 H 0.33815 0.1634 0.54039 0.0
H2437 H 0.36417 0.14944 0.54396 0.0
H2438 H 0.37294 0.15137 0.48502 0.0
H2439 H 0.34775 0.16679 0.48205 0.0
H2440 H 0.36916 0.11715 0.52852 0.0
H2441 H 0.42219 0.171 0.50645 0.0
H2442 H 0.4006 0.1757 0.5104 0.0
H2443 H 0.40427 0.16164 0.48817 0.0
C2444 C 0.34587 0.16109 0.52835 0.0
C2445 C 0.34113 0.16619 0.51102 0.0
C2446 C 0.36071 0.15311 0.53034 0.0
C2447 C 0.37083 0.14959 0.51486 0.0
C2448 C 0.36588 0.15454 0.49741 0.0
H2449 H 0.44934 0.07684 0.50521 0.0
H2450 H 0.42813 0.09618 0.49725 0.0
C2451 C 0.35135 0.16313 0.49563 0.0
C2452 C 0.38563 0.13946 0.5168 0.0
H2453 H 0.42932 0.14114 0.51024 0.0
C2454 C 0.38231 0.12256 0.5246 0.0
C2455 C 0.40286 0.14628 0.51151 0.0
C2456 C 0.40774 0.16475 0.50384 0.0
C2457 C 0.39562 0.11252 0.52752 0.0
C2458 C 0.41274 0.11938 0.52234 0.0
C2459 C 0.41611 0.13594 0.51411 0.0
C2460 C 0.42741 0.10995 0.52649 0.0
C2461 C 0.39135 0.09466 0.5363 0.0
C2462 C 0.43439 0.11188 0.54542 0.0
C2463 C 0.44637 0.10091 0.54996 0.0
C2464 C 0.45162 0.08782 0.53564 0.0
C2465 C 0.44552 0.08684 0.5165 0.0
C2466 C 0.43341 0.09782 0.51195 0.0
H2467 H 0.37688 0.08947 0.53663 0.0
H2468 H 0.39677 0.08288 0.52828 0.0
H2469 H 0.39761 0.09794 0.55119 0.0
H2470 H 0.43002 0.12132 0.55678 0.0
H2471 H 0.45109 0.10215 0.56479 0.0
H2472 H 0.6716 0.58918 0.27373 0.0
H2473 H 0.69065 0.62039 0.27378 0.0
H2474 H 0.73645 0.59701 0.28399 0.0
H2475 H 0.71711 0.56504 0.28317 0.0
H2476 H 0.7104 0.64632 0.29738 0.0
H2477 H 0.75687 0.62581 0.24589 0.0
H2478 H 0.73734 0.6089 0.24958 0.0
H2479 H 0.75698 0.61384 0.26594 0.0
C2480 C 0.68573 0.59036 0.27591 0.0
C2481 C 0.69243 0.57394 0.27845 0.0
C2482 C 0.69683 0.60863 0.27597 0.0
C2483 C 0.71546 0.61185 0.27864 0.0
C2484 C 0.72233 0.59548 0.28128 0.0
H2485 H 0.80016 0.72017 0.28519 0.0
H2486 H 0.78354 0.6873 0.28567 0.0
C2487 C 0.71111 0.57693 0.281 0.0
C2488 C 0.72703 0.63235 0.27923 0.0
H2489 H 0.76367 0.6582 0.26232 0.0
C2490 C 0.72199 0.64869 0.28955 0.0
C2491 C 0.74246 0.63634 0.26927 0.0
C2492 C 0.74867 0.62035 0.25689 0.0
C2493 C 0.73157 0.66805 0.29042 0.0
C2494 C 0.74692 0.67207 0.28035 0.0
C2495 C 0.75211 0.65576 0.27018 0.0
C2496 C 0.75748 0.69281 0.28004 0.0
C2497 C 0.7252 0.68397 0.30279 0.0
C2498 C 0.74902 0.70768 0.27643 0.0
C2499 C 0.75861 0.72674 0.27644 0.0
C2500 C 0.77733 0.73209 0.27961 0.0
C2501 C 0.78589 0.71715 0.28281 0.0
C2502 C 0.77623 0.69804 0.283 0.0
H2503 H 0.7178 0.67858 0.31437 0.0
H2504 H 0.73636 0.69599 0.3094 0.0
H2505 H 0.71601 0.68965 0.29392 0.0
H2506 H 0.73481 0.70457 0.2733 0.0
H2507 H 0.75115 0.73732 0.27369 0.0
H2508 H 0.90969 0.46974 0.82117 0.0
H2509 H 0.88446 0.442 0.81519 0.0
H2510 H 0.86437 0.4626 0.76678 0.0
H2511 H 0.88951 0.49018 0.77257 0.0
H2512 H 0.84639 0.44573 0.81272 0.0
H2513 H 0.86858 0.40512 0.74794 0.0
H2514 H 0.88383 0.42346 0.76476 0.0
H2515 H 0.86851 0.43025 0.74886 0.0
C2516 C 0.90005 0.46802 0.80907 0.0
C2517 C 0.90136 0.48176 0.79725 0.0
C2518 C 0.88565 0.45249 0.80583 0.0
C2519 C 0.87273 0.45068 0.7907 0.0
C2520 C 0.8743 0.46406 0.77855 0.0
H2521 H 0.79734 0.34142 0.76937 0.0
H2522 H 0.8023 0.37646 0.77437 0.0
C2523 C 0.8886 0.47961 0.78183 0.0
C2524 C 0.85776 0.43442 0.7875 0.0
H2525 H 0.84454 0.3892 0.76161 0.0
C2526 C 0.84558 0.43348 0.80129 0.0
C2527 C 0.85689 0.41883 0.77237 0.0
C2528 C 0.87014 0.41928 0.75762 0.0
C2529 C 0.8335 0.41629 0.80137 0.0
C2530 C 0.83384 0.40025 0.78735 0.0
C2531 C 0.84451 0.40189 0.77226 0.0
C2532 C 0.82757 0.38089 0.79069 0.0
C2533 C 0.82164 0.4147 0.81728 0.0
C2534 C 0.84006 0.37224 0.79882 0.0
C2535 C 0.83763 0.35234 0.79538 0.0
C2536 C 0.82238 0.34123 0.78457 0.0
C2537 C 0.80908 0.34989 0.77809 0.0
C2538 C 0.81175 0.3698 0.78103 0.0
H2539 H 0.82034 0.4291 0.82479 0.0
H2540 H 0.8083 0.40592 0.81159 0.0
H2541 H 0.82728 0.40726 0.82776 0.0
H2542 H 0.85248 0.3809 0.80606 0.0
H2543 H 0.84793 0.3457 0.80036 0.0
H2544 H 0.05756 0.84441 0.08039 0.0
H2545 H 0.0523 0.87142 0.06551 0.0
H2546 H 0.10182 0.90644 0.09327 0.0
H2547 H 0.10683 0.87955 0.10865 0.0
H2548 H 0.0503 0.90986 0.08485 0.0
H2549 H 0.10338 0.91277 0.03574 0.0
H2550 H 0.09507 0.89164 0.04579 0.0
H2551 H 0.11018 0.91199 0.06007 0.0
C2552 C 0.06742 0.85781 0.0832 0.0
C2553 C 0.08269 0.85971 0.09566 0.0
C2554 C 0.06437 0.87332 0.07469 0.0
C2555 C 0.07671 0.89111 0.07797 0.0
C2556 C 0.09213 0.89292 0.09022 0.0
H2557 H 0.07217 0.00712 0.0706 0.0
H2558 H 0.0759 0.97622 0.07711 0.0
C2559 C 0.09499 0.87752 0.09909 0.0
C2560 C 0.07305 0.90792 0.06934 0.0
H2561 H 0.08866 0.93895 0.03937 0.0
C2562 C 0.05862 0.91604 0.07476 0.0
C2563 C 0.08369 0.9161 0.05597 0.0
C2564 C 0.09888 0.90765 0.04885 0.0
C2565 C 0.05503 0.93233 0.06788 0.0
C2566 C 0.06597 0.94087 0.055 0.0
C2567 C 0.0801 0.93244 0.04908 0.0
C2568 C 0.06412 0.95985 0.04965 0.0
C2569 C 0.03965 0.94063 0.07469 0.0
C2570 C 0.05652 0.9614 0.03164 0.0
C2571 C 0.0546 0.97958 0.02755 0.0
C2572 C 0.05987 0.99652 0.04156 0.0
C2573 C 0.06761 0.99463 0.05937 0.0
C2574 C 0.06982 0.9768 0.06324 0.0
H2575 H 0.03105 0.9311 0.08272 0.0
H2576 H 0.04471 0.95483 0.08419 0.0
H2577 H 0.03156 0.94306 0.06236 0.0
H2578 H 0.05197 0.94857 0.0208 0.0
H2579 H 0.04896 0.98031 0.01356 0.0
H2580 H 0.97341 0.3039 0.90694 0.0
H2581 H 0.94758 0.3044 0.88565 0.0
H2582 H 0.93603 0.2423 0.87176 0.0
H2583 H 0.96205 0.24187 0.89307 0.0
H2584 H 0.93786 0.29266 0.84774 0.0
H2585 H 0.88818 0.25105 0.88624 0.0
H2586 H 0.91087 0.26028 0.89601 0.0
H2587 H 0.90497 0.23848 0.87837 0.0
C2588 C 0.96551 0.29033 0.89915 0.0
C2589 C 0.9701 0.27287 0.90159 0.0
C2590 C 0.95059 0.29061 0.88696 0.0
C2591 C 0.93935 0.2734 0.87707 0.0
C2592 C 0.94407 0.25588 0.87932 0.0
H2593 H 0.8423 0.25165 0.79599 0.0
H2594 H 0.86847 0.24842 0.81547 0.0
C2595 C 0.95919 0.25561 0.89136 0.0
C2596 C 0.92296 0.274 0.86446 0.0
H2597 H 0.87765 0.25819 0.85701 0.0
C2598 C 0.92474 0.28509 0.84988 0.0
C2599 C 0.90555 0.26428 0.86695 0.0
C2600 C 0.90217 0.253 0.88284 0.0
C2601 C 0.91 0.28649 0.83785 0.0
C2602 C 0.89263 0.27682 0.84037 0.0
C2603 C 0.89081 0.26561 0.85483 0.0
C2604 C 0.87629 0.27862 0.82852 0.0
C2605 C 0.91322 0.29813 0.82221 0.0
C2606 C 0.8715 0.29658 0.82923 0.0
C2607 C 0.85634 0.29836 0.81831 0.0
C2608 C 0.8454 0.28229 0.80616 0.0
C2609 C 0.85027 0.26434 0.80523 0.0
C2610 C 0.86529 0.26249 0.81644 0.0
H2611 H 0.92726 0.30062 0.81899 0.0
H2612 H 0.9047 0.29077 0.80893 0.0
H2613 H 0.9099 0.31238 0.8268 0.0
H2614 H 0.8795 0.30934 0.83834 0.0
H2615 H 0.85347 0.31253 0.81903 0.0
H2616 H 0.59733 0.25992 0.56165 0.0
H2617 H 0.59157 0.22523 0.5505 0.0
H2618 H 0.55776 0.21647 0.59555 0.0
H2619 H 0.56331 0.25154 0.60681 0.0
H2620 H 0.59968 0.19793 0.56814 0.0
H2621 H 0.52716 0.18153 0.55003 0.0
H2622 H 0.5404 0.20581 0.55423 0.0
H2623 H 0.53373 0.19439 0.57401 0.0
C2624 C 0.58851 0.25076 0.56921 0.0
C2625 C 0.58081 0.25879 0.58525 0.0
C2626 C 0.58525 0.23078 0.56275 0.0
C2627 C 0.57408 0.21803 0.57196 0.0
C2628 C 0.56617 0.2259 0.58788 0.0
H2629 H 0.55789 0.09804 0.57602 0.0
H2630 H 0.56308 0.13319 0.58067 0.0
C2631 C 0.56946 0.24602 0.59442 0.0
C2632 C 0.57162 0.19662 0.56544 0.0
H2633 H 0.54041 0.15454 0.55144 0.0
C2634 C 0.5867 0.18853 0.56433 0.0
C2635 C 0.55474 0.18418 0.56007 0.0
C2636 C 0.53808 0.1919 0.55943 0.0
C2637 C 0.58531 0.16849 0.55884 0.0
C2638 C 0.56844 0.15606 0.55437 0.0
C2639 C 0.55337 0.16408 0.55492 0.0
C2640 C 0.5662 0.13464 0.55105 0.0
C2641 C 0.60183 0.16052 0.55819 0.0
C2642 C 0.5665 0.12368 0.5328 0.0
C2643 C 0.56344 0.10337 0.53005 0.0
C2644 C 0.56025 0.0938 0.54558 0.0
C2645 C 0.56046 0.10496 0.56381 0.0
C2646 C 0.56335 0.12507 0.5665 0.0
H2647 H 0.61406 0.17204 0.56186 0.0
H2648 H 0.60159 0.15033 0.56828 0.0
H2649 H 0.60224 0.1523 0.54364 0.0
H2650 H 0.56871 0.13078 0.52066 0.0
H2651 H 0.56302 0.0952 0.51578 0.0
H2652 H 0.5767 0.8042 0.4103 0.0
H2653 H 0.60441 0.80681 0.39497 0.0
H2654 H 0.59617 0.74473 0.38298 0.0
H2655 H 0.56777 0.74223 0.39704 0.0
H2656 H 0.63442 0.79843 0.40101 0.0
H2657 H 0.60584 0.75252 0.3315 0.0
H2658 H 0.59212 0.75984 0.34967 0.0
H2659 H 0.6027 0.73995 0.35105 0.0
C2660 C 0.58079 0.79112 0.40426 0.0
C2661 C 0.56996 0.77301 0.40467 0.0
C2662 C 0.59671 0.79259 0.39551 0.0
C2663 C 0.60245 0.77599 0.38717 0.0
C2664 C 0.59192 0.75785 0.38842 0.0
H2665 H 0.69424 0.76508 0.31991 0.0
H2666 H 0.67014 0.75841 0.34056 0.0
C2667 C 0.57572 0.75638 0.39669 0.0
C2668 C 0.61938 0.77786 0.37733 0.0
H2669 H 0.63686 0.76325 0.33558 0.0
C2670 C 0.63484 0.7907 0.38668 0.0
C2671 C 0.62033 0.76776 0.35861 0.0
C2672 C 0.60433 0.7544 0.34705 0.0
C2673 C 0.65088 0.79378 0.37799 0.0
C2674 C 0.6517 0.78399 0.35916 0.0
C2675 C 0.63642 0.77078 0.34999 0.0
C2676 C 0.66777 0.78813 0.34822 0.0
C2677 C 0.66687 0.8074 0.3893 0.0
C2678 C 0.67484 0.80703 0.34567 0.0
C2679 C 0.68864 0.81083 0.33398 0.0
C2680 C 0.69584 0.79587 0.3243 0.0
C2681 C 0.68925 0.777 0.32734 0.0
C2682 C 0.67532 0.77317 0.33903 0.0
H2683 H 0.66608 0.80817 0.40489 0.0
H2684 H 0.67932 0.80297 0.38547 0.0
H2685 H 0.66745 0.82212 0.38628 0.0
H2686 H 0.66918 0.81887 0.35206 0.0
H2687 H 0.69326 0.82552 0.33191 0.0
H2688 H 0.12023 0.28138 0.42776 0.0
H2689 H 0.11678 0.25095 0.43991 0.0
H2690 H 0.06056 0.23877 0.42361 0.0
H2691 H 0.06404 0.26906 0.41161 0.0
H2692 H 0.09452 0.24562 0.46948 0.0
H2693 H 0.07404 0.18652 0.40661 0.0
H2694 H 0.08552 0.21055 0.40475 0.0
H2695 H 0.06215 0.20551 0.40714 0.0
C2696 C 0.1073 0.27182 0.42636 0.0
C2697 C 0.09236 0.27714 0.41888 0.0
C2698 C 0.10534 0.25458 0.4332 0.0
C2699 C 0.08849 0.24262 0.43227 0.0
C2700 C 0.0737 0.24765 0.42396 0.0
H2701 H 0.03059 0.15918 0.48771 0.0
H2702 H 0.04195 0.18131 0.46643 0.0
C2703 C 0.07565 0.2649 0.4173 0.0
C2704 C 0.08576 0.22647 0.44253 0.0
H2705 H 0.06715 0.1786 0.43719 0.0
C2706 C 0.08894 0.23085 0.46245 0.0
C2707 C 0.0782 0.20744 0.43316 0.0
C2708 C 0.0749 0.20216 0.41171 0.0
C2709 C 0.084 0.21671 0.47345 0.0
C2710 C 0.07608 0.19773 0.46412 0.0
C2711 C 0.07335 0.19321 0.44416 0.0
C2712 C 0.06947 0.18277 0.47508 0.0
C2713 C 0.08648 0.22235 0.49495 0.0
C2714 C 0.0813 0.17608 0.48643 0.0
C2715 C 0.07486 0.16355 0.49852 0.0
C2716 C 0.05657 0.1578 0.49944 0.0
C2717 C 0.04475 0.16388 0.48747 0.0
C2718 C 0.05119 0.17628 0.47526 0.0
H2719 H 0.08961 0.23825 0.49979 0.0
H2720 H 0.07439 0.21611 0.50134 0.0
H2721 H 0.09757 0.21659 0.50051 0.0
H2722 H 0.09546 0.18093 0.48626 0.0
H2723 H 0.08415 0.15879 0.50755 0.0
H2724 H 0.55282 0.28205 0.19425 0.0
H2725 H 0.58037 0.28001 0.21163 0.0
H2726 H 0.59425 0.24657 0.16094 0.0
H2727 H 0.56702 0.24871 0.14343 0.0
H2728 H 0.59428 0.24579 0.21646 0.0
H2729 H 0.63582 0.29479 0.17606 0.0
H2730 H 0.61241 0.29356 0.17719 0.0
H2731 H 0.61995 0.275 0.16186 0.0
C2732 C 0.56178 0.27432 0.18683 0.0
C2733 C 0.55807 0.26602 0.16736 0.0
C2734 C 0.57741 0.2731 0.19677 0.0
C2735 C 0.58936 0.26349 0.18736 0.0
C2736 C 0.5853 0.25443 0.16822 0.0
H2737 H 0.68632 0.23337 0.22293 0.0
H2738 H 0.65929 0.23654 0.20511 0.0
C2739 C 0.56981 0.25577 0.15825 0.0
C2740 C 0.60645 0.26346 0.19724 0.0
H2741 H 0.65091 0.27951 0.19668 0.0
C2742 C 0.60667 0.25323 0.21226 0.0
C2743 C 0.62248 0.27323 0.19159 0.0
C2744 C 0.62276 0.28491 0.17589 0.0
C2745 C 0.62271 0.25226 0.22163 0.0
C2746 C 0.63869 0.26183 0.21581 0.0
C2747 C 0.6385 0.27218 0.20093 0.0
C2748 C 0.65575 0.26122 0.22525 0.0
C2749 C 0.62263 0.24088 0.23755 0.0
C2750 C 0.66264 0.27437 0.24206 0.0
C2751 C 0.67789 0.27251 0.2522 0.0
C2752 C 0.68629 0.25755 0.24549 0.0
C2753 C 0.67984 0.24492 0.22823 0.0
C2754 C 0.66455 0.24674 0.21813 0.0
H2755 H 0.60903 0.23393 0.24012 0.0
H2756 H 0.63033 0.22953 0.23404 0.0
H2757 H 0.62917 0.25055 0.25093 0.0
H2758 H 0.65592 0.28564 0.2476 0.0
H2759 H 0.68289 0.28242 0.26546 0.0
H2760 H 0.62609 0.87344 0.93177 0.0
H2761 H 0.62094 0.90389 0.94856 0.0
H2762 H 0.59144 0.91063 0.89795 0.0
H2763 H 0.5966 0.8799 0.88094 0.0
H2764 H 0.62524 0.94319 0.94081 0.0
H2765 H 0.55599 0.90161 0.94003 0.0
H2766 H 0.57397 0.89 0.93391 0.0
H2767 H 0.56472 0.90227 0.91728 0.0
C2768 C 0.61904 0.88179 0.92407 0.0
C2769 C 0.61164 0.87461 0.90524 0.0
C2770 C 0.61618 0.89909 0.9336 0.0
C2771 C 0.60577 0.90913 0.92437 0.0
C2772 C 0.59955 0.90283 0.90507 0.0
H2773 H 0.55437 0.99671 0.96514 0.0
H2774 H 0.56641 0.97143 0.94784 0.0
C2775 C 0.60255 0.88549 0.89542 0.0
C2776 C 0.59936 0.92438 0.93597 0.0
H2777 H 0.56292 0.93352 0.95682 0.0
C2778 C 0.61162 0.94127 0.94428 0.0
C2779 C 0.58168 0.92121 0.94064 0.0
C2780 C 0.5683 0.90275 0.93265 0.0
C2781 C 0.60644 0.95558 0.95699 0.0
C2782 C 0.58873 0.95248 0.96142 0.0
C2783 C 0.57655 0.93548 0.95333 0.0
C2784 C 0.5819 0.96765 0.9725 0.0
C2785 C 0.61966 0.97406 0.96517 0.0
C2786 C 0.58679 0.97366 0.99207 0.0
C2787 C 0.58007 0.98843 1.00215 0.0
C2788 C 0.56814 0.99682 0.99276 0.0
C2789 C 0.56325 0.99041 0.97308 0.0
C2790 C 0.57014 0.97599 0.96305 0.0
H2791 H 0.63246 0.9748 0.95877 0.0
H2792 H 0.61425 0.98669 0.96277 0.0
H2793 H 0.6222 0.97514 0.98081 0.0
H2794 H 0.5959 0.96711 0.99941 0.0
H2795 H 0.58466 0.99356 0.01697 0.0
H2796 H 0.97871 0.78199 0.71515 0.0
H2797 H 0.95167 0.7818 0.7315 0.0
H2798 H 0.92053 0.74723 0.6809 0.0
H2799 H 0.94741 0.74758 0.6644 0.0
H2800 H 0.91816 0.7924 0.70337 0.0
H2801 H 0.90872 0.72885 0.73986 0.0
H2802 H 0.93067 0.74158 0.73665 0.0
H2803 H 0.91651 0.72745 0.71638 0.0
C2804 C 0.96613 0.77396 0.70777 0.0
C2805 C 0.9649 0.76492 0.68864 0.0
C2806 C 0.95082 0.77385 0.71705 0.0
C2807 C 0.9344 0.76441 0.70727 0.0
C2808 C 0.93325 0.75446 0.68851 0.0
H2809 H 0.82793 0.76809 0.72793 0.0
H2810 H 0.85585 0.76822 0.71363 0.0
C2811 C 0.94849 0.75477 0.67917 0.0
C2812 C 0.9183 0.76716 0.71575 0.0
H2813 H 0.88813 0.74891 0.74426 0.0
C2814 C 0.9115 0.78296 0.71233 0.0
C2815 C 0.90991 0.7546 0.72716 0.0
C2816 C 0.91672 0.7371 0.73033 0.0
C2817 C 0.89633 0.78672 0.7204 0.0
C2818 C 0.88814 0.77444 0.73226 0.0
C2819 C 0.89485 0.75848 0.73547 0.0
C2820 C 0.87195 0.77721 0.74068 0.0
C2821 C 0.88942 0.80398 0.71671 0.0
C2822 C 0.87205 0.78226 0.76055 0.0
C2823 C 0.85612 0.78191 0.76873 0.0
C2824 C 0.84025 0.7767 0.75697 0.0
C2825 C 0.84023 0.77233 0.73709 0.0
C2826 C 0.85605 0.77252 0.72896 0.0
H2827 H 0.89797 0.81265 0.7079 0.0
H2828 H 0.87589 0.79927 0.70927 0.0
H2829 H 0.88867 0.81328 0.73053 0.0
H2830 H 0.88434 0.78577 0.76966 0.0
H2831 H 0.85614 0.7852 0.78412 0.0
H2832 H 0.12435 0.01408 0.80947 0.0
H2833 H 0.10885 0.01672 0.83859 0.0
H2834 H 0.15653 0.01553 0.87174 0.0
H2835 H 0.1721 0.01313 0.84263 0.0
H2836 H 0.09885 0.99601 0.86506 0.0
H2837 H 0.14564 0.06031 0.90542 0.0
H2838 H 0.14678 0.05184 0.88038 0.0
H2839 H 0.15628 0.04076 0.89806 0.0
C2840 C 0.13173 0.01454 0.82293 0.0
C2841 C 0.14987 0.0136 0.82315 0.0
C2842 C 0.12267 0.016 0.83988 0.0
C2843 C 0.13119 0.01684 0.85821 0.0
C2844 C 0.14928 0.0156 0.85838 0.0
H2845 H 0.10213 0.03112 0.97923 0.0
H2846 H 0.11601 0.02682 0.94933 0.0
C2847 C 0.15834 0.01406 0.8414 0.0
C2848 C 0.12125 0.01881 0.87675 0.0
H2849 H 0.12413 0.04442 0.92291 0.0
C2850 C 0.1045 0.00672 0.87761 0.0
C2851 C 0.12797 0.03267 0.89373 0.0
C2852 C 0.14505 0.04727 0.89437 0.0
C2853 C 0.09499 0.0076 0.89439 0.0
C2854 C 0.10179 0.02144 0.91144 0.0
C2855 C 0.11846 0.03361 0.91045 0.0
C2856 C 0.09235 0.02344 0.93036 0.0
C2857 C 0.07794 0.99294 0.8937 0.0
C2858 C 0.07398 0.02321 0.93093 0.0
C2859 C 0.06578 0.02544 0.94846 0.0
C2860 C 0.07548 0.02839 0.96657 0.0
C2861 C 0.09383 0.02884 0.96599 0.0
C2862 C 0.10196 0.02642 0.94852 0.0
H2863 H 0.07745 0.97988 0.88271 0.0
H2864 H 0.07613 0.9884 0.90769 0.0
H2865 H 0.06668 0.99935 0.88983 0.0
H2866 H 0.06582 0.02176 0.91777 0.0
H2867 H 0.05179 0.02532 0.94774 0.0
H2868 H 0.85327 0.41139 0.56076 0.0
H2869 H 0.85366 0.40499 0.59324 0.0
H2870 H 0.80109 0.41566 0.59717 0.0
H2871 H 0.80069 0.42236 0.56463 0.0
H2872 H 0.84224 0.42142 0.63302 0.0
H2873 H 0.80092 0.35443 0.58764 0.0
H2874 H 0.81502 0.37244 0.57741 0.0
H2875 H 0.79492 0.37709 0.58651 0.0
C2876 C 0.84206 0.41297 0.56883 0.0
C2877 C 0.82676 0.41675 0.56032 0.0
C2878 C 0.84242 0.40967 0.58738 0.0
C2879 C 0.82737 0.40987 0.59728 0.0
C2880 C 0.81282 0.41573 0.5896 0.0
H2881 H 0.80719 0.32622 0.67082 0.0
H2882 H 0.80323 0.35309 0.65549 0.0
C2883 C 0.81254 0.41931 0.57106 0.0
C2884 C 0.82526 0.3988 0.6125 0.0
H2885 H 0.81103 0.35251 0.61829 0.0
C2886 C 0.83503 0.4065 0.63016 0.0
C2887 C 0.81609 0.3793 0.60821 0.0
C2888 C 0.80619 0.37018 0.58892 0.0
C2889 C 0.83634 0.39479 0.64366 0.0
C2890 C 0.82782 0.37513 0.63897 0.0
C2891 C 0.81736 0.36773 0.6217 0.0
C2892 C 0.83083 0.36125 0.65068 0.0
C2893 C 0.84723 0.40326 0.66245 0.0
C2894 C 0.84761 0.35696 0.65251 0.0
C2895 C 0.84988 0.34156 0.66107 0.0
C2896 C 0.83532 0.33039 0.66762 0.0
C2897 C 0.81853 0.33468 0.66565 0.0
C2898 C 0.81631 0.3501 0.65725 0.0
H2899 H 0.84866 0.41916 0.66597 0.0
H2900 H 0.84121 0.39672 0.67421 0.0
H2901 H 0.86066 0.40023 0.66154 0.0
H2902 H 0.8588 0.3652 0.64692 0.0
H2903 H 0.86295 0.33858 0.66288 0.0
H2904 H 0.45692 0.02551 0.33518 0.0
H2905 H 0.4737 0.02294 0.36382 0.0
H2906 H 0.4396 0.05176 0.39836 0.0
H2907 H 0.42216 0.05399 0.36941 0.0
H2908 H 0.48692 0.06368 0.38575 0.0
H2909 H 0.45573 0.0084 0.42697 0.0
H2910 H 0.45165 1.00511 0.4013 0.0
H2911 H 0.44209 0.02209 0.41629 0.0
C2912 C 0.45257 0.03076 0.34879 0.0
C2913 C 0.4386 0.04042 0.35023 0.0
C2914 C 0.46204 0.02904 0.36509 0.0
C2915 C 0.45773 0.0372 0.38286 0.0
C2916 C 0.44279 0.04523 0.38453 0.0
H2917 H 0.51706 0.07132 0.49047 0.0
H2918 H 0.49731 0.07057 0.46235 0.0
C2919 C 0.43306 0.04668 0.36811 0.0
C2920 C 0.47127 0.04168 0.39865 0.0
H2921 H 0.483 0.02913 0.44039 0.0
C2922 C 0.48616 0.05618 0.39775 0.0
C2923 C 0.46987 0.03171 0.41394 0.0
C2924 C 0.45403 0.01587 0.41481 0.0
C2925 C 0.5 0.06102 0.41209 0.0
C2926 C 0.49862 0.05107 0.4274 0.0
C2927 C 0.48371 0.03662 0.42838 0.0
C2928 C 0.51247 0.05559 0.44283 0.0
C2929 C 0.51592 0.07669 0.41101 0.0
C2930 C 0.52771 0.04818 0.44051 0.0
C2931 C 0.539 0.04871 0.45645 0.0
C2932 C 0.53481 0.05656 0.47444 0.0
C2933 C 0.5204 0.06544 0.47647 0.0
C2934 C 0.50918 0.06493 0.46061 0.0
H2935 H 0.51407 0.08435 0.39903 0.0
H2936 H 0.51871 0.08735 0.4246 0.0
H2937 H 0.52769 0.07026 0.40903 0.0
H2938 H 0.53008 0.04076 0.42669 0.0
H2939 H 0.54986 0.04138 0.45491 0.0
H2940 H 0.79166 0.69348 0.06842 0.0
H2941 H 0.79336 0.70599 0.10284 0.0
H2942 H 0.81574 0.76318 0.0933 0.0
H2943 H 0.81308 0.7509 0.0589 0.0
H2944 H 0.81873 0.72385 0.13019 0.0
H2945 H 0.77564 0.7752 0.12141 0.0
H2946 H 0.77894 0.75737 0.10175 0.0
H2947 H 0.79549 0.77927 0.10961 0.0
C2948 C 0.7971 0.70867 0.07373 0.0
C2949 C 0.80203 0.72125 0.06097 0.0
C2950 C 0.79801 0.71586 0.09341 0.0
C2951 C 0.8041 0.73572 0.10074 0.0
C2952 C 0.81026 0.74799 0.08806 0.0
H2953 H 0.80764 0.79937 0.21923 0.0
H2954 H 0.80938 0.79178 0.18446 0.0
C2955 C 0.80894 0.74091 0.06839 0.0
C2956 C 0.80371 0.7435 0.12152 0.0
H2957 H 0.78728 0.77572 0.15277 0.0
C2958 C 0.81183 0.73518 0.13507 0.0
C2959 C 0.79498 0.75857 0.12808 0.0
C2960 C 0.78564 0.76803 0.11447 0.0
C2961 C 0.81129 0.74124 0.1548 0.0
C2962 C 0.8019 0.75571 0.16132 0.0
C2963 C 0.79433 0.76453 0.14784 0.0
C2964 C 0.79907 0.76105 0.18195 0.0
C2965 C 0.82105 0.73217 0.16842 0.0
C2966 C 0.79179 0.74662 0.19196 0.0
C2967 C 0.79107 0.75089 0.21168 0.0
C2968 C 0.79678 0.76986 0.22185 0.0
C2969 C 0.80273 0.78469 0.2117 0.0
C2970 C 0.8039 0.7803 0.19186 0.0
H2971 H 0.83226 0.72692 0.16189 0.0
H2972 H 0.82629 0.7425 0.18187 0.0
H2973 H 0.81188 0.71952 0.17192 0.0
H2974 H 0.7873 0.7318 0.18465 0.0
H2975 H 0.78664 0.73914 0.21917 0.0
H2976 H 0.11866 0.02638 0.7275 0.0
H2977 H 0.10666 0.02915 0.69662 0.0
H2978 H 0.14611 1.00231 0.67022 0.0
H2979 H 0.15897 0.99974 0.70212 0.0
H2980 H 0.11846 0.04934 0.67045 0.0
H2981 H 0.10218 0.97279 0.63471 0.0
H2982 H 0.10735 0.98009 0.6602 0.0
H2983 H 0.12481 0.98129 0.64464 0.0
C2984 C 0.12519 0.02086 0.71544 0.0
C2985 C 0.14031 0.0128 0.71833 0.0
C2986 C 0.11801 0.02258 0.69729 0.0
C2987 C 0.12504 0.01605 0.68031 0.0
C2988 C 0.13991 0.00746 0.6827 0.0
H2989 H 0.10221 0.02432 0.559 0.0
H2990 H 0.11297 0.01943 0.59003 0.0
C2991 C 0.14743 1.00595 0.70124 0.0
C2992 C 0.11684 0.01901 0.66081 0.0
H2993 H 0.0983 0.99567 0.61552 0.0
C2994 C 0.1141 0.03745 0.65855 0.0
C2995 C 0.11048 1.00382 0.64482 0.0
C2996 C 0.11113 0.98332 0.64613 0.0
C2997 C 0.10609 0.0411 0.64129 0.0
C2998 C 0.10015 0.02601 0.62516 0.0
C2999 C 0.10271 0.00754 0.62745 0.0
C3000 C 0.09249 0.02927 0.60561 0.0
C3001 C 0.10451 0.06142 0.64027 0.0
C3002 C 0.07686 0.03643 0.6029 0.0
C3003 C 0.07016 0.0389 0.58446 0.0
C3004 C 0.07906 0.03481 0.5679 0.0
C3005 C 0.09469 0.02785 0.57092 0.0
C3006 C 0.10103 0.02495 0.58901 0.0
H3007 H 0.1124 0.07209 0.65235 0.0
H3008 H 0.10891 0.06536 0.62665 0.0
H3009 H 0.09044 0.06241 0.64073 0.0
H3010 H 0.06953 0.03982 0.61503 0.0
H3011 H 0.05801 0.04397 0.58323 0.0
H3012 H 0.82559 0.43082 0.44878 0.0
H3013 H 0.83305 0.41161 0.41955 0.0
H3014 H 0.81174 0.35927 0.43989 0.0
H3015 H 0.8042 0.37807 0.46867 0.0
H3016 H 0.85178 0.37052 0.42068 0.0
H3017 H 0.7859 0.36769 0.38341 0.0
H3018 H 0.79779 0.3887 0.40015 0.0
H3019 H 0.78711 0.36763 0.40867 0.0
C3020 C 0.82236 0.41521 0.44676 0.0
C3021 C 0.81413 0.40574 0.46058 0.0
C3022 C 0.82686 0.40439 0.43038 0.0
C3023 C 0.82304 0.38424 0.428 0.0
C3024 C 0.81493 0.37489 0.44185 0.0
H3025 H 0.79793 0.28805 0.33947 0.0
H3026 H 0.80448 0.30697 0.37182 0.0
C3027 C 0.81049 0.38558 0.45807 0.0
C3028 C 0.82564 0.37227 0.41035 0.0
H3029 H 0.80138 0.34409 0.37098 0.0
C3030 C 0.841 0.36489 0.40951 0.0
C3031 C 0.81133 0.36505 0.39627 0.0
C3032 C 0.79458 0.37268 0.397 0.0
C3033 C 0.8421 0.3496 0.395 0.0
C3034 C 0.82742 0.34176 0.38134 0.0
C3035 C 0.81239 0.34981 0.38188 0.0
C3036 C 0.82758 0.32639 0.36514 0.0
C3037 C 0.85866 0.34167 0.39471 0.0
C3038 C 0.83914 0.33033 0.35132 0.0
C3039 C 0.83538 0.31963 0.33299 0.0
C3040 C 0.81982 0.30517 0.32821 0.0
C3041 C 0.80965 0.29948 0.34267 0.0
C3042 C 0.81349 0.31016 0.36115 0.0
H3043 H 0.86606 0.34491 0.40909 0.0
H3044 H 0.85557 0.32582 0.38955 0.0
H3045 H 0.86747 0.34852 0.38492 0.0
H3046 H 0.84995 0.34291 0.35406 0.0
H3047 H 0.84383 0.32393 0.32222 0.0
H3048 H 0.44188 1.00452 0.24478 0.0
H3049 H 0.44722 1.00476 0.21145 0.0
H3050 H 0.43709 0.06208 0.21682 0.0
H3051 H 0.43138 0.06178 0.25029 0.0
H3052 H 0.42924 0.01655 0.17648 0.0
H3053 H 0.49282 0.06262 0.21371 0.0
H3054 H 0.47774 0.0473 0.22584 0.0
H3055 H 0.47233 0.06888 0.22015 0.0
C3056 C 0.44039 0.01696 0.23866 0.0
C3057 C 0.43671 0.03333 0.2499 0.0
C3058 C 0.44313 0.01695 0.21966 0.0
C3059 C 0.44247 0.03343 0.21195 0.0
C3060 C 0.43739 0.04922 0.2227 0.0
H3061 H 0.51449 0.05178 0.12643 0.0
H3062 H 0.48973 0.05689 0.14473 0.0
C3063 C 0.43434 0.04911 0.2417 0.0
C3064 C 0.45114 0.03547 0.19465 0.0
H3065 H 0.49233 0.05022 0.18142 0.0
C3066 C 0.44287 0.02437 0.17726 0.0
C3067 C 0.46898 0.04542 0.19615 0.0
C3068 C 0.47862 0.05669 0.21493 0.0
C3069 C 0.45238 0.0223 0.16125 0.0
C3070 C 0.47045 0.03145 0.16306 0.0
C3071 C 0.47837 0.04343 0.18018 0.0
C3072 C 0.4822 0.02722 0.14842 0.0
C3073 C 0.44332 0.00982 0.14283 0.0
C3074 C 0.48598 0.00879 0.14454 0.0
C3075 C 0.50018 1.00582 0.13418 0.0
C3076 C 0.51067 0.02132 0.12777 0.0
C3077 C 0.50649 0.0396 0.13123 0.0
C3078 C 0.49231 0.04252 0.14144 0.0
H3079 H 0.42878 0.00866 0.14205 0.0
H3080 H 0.44854 0.01562 0.13031 0.0
H3081 H 0.44582 0.99508 0.14198 0.0
H3082 H 0.47852 0.99698 0.15032 0.0
H3083 H 0.50308 0.99157 0.13135 0.0
H3084 H 0.82153 0.69222 0.94936 0.0
H3085 H 0.8259 0.7081 0.92174 0.0
H3086 H 0.78253 0.73575 0.93525 0.0
H3087 H 0.77929 0.72118 0.96384 0.0
H3088 H 0.80805 0.70569 0.89114 0.0
H3089 H 0.81523 0.78153 0.92672 0.0
H3090 H 0.81477 0.76239 0.94012 0.0
H3091 H 0.79444 0.76732 0.93064 0.0
C3092 C 0.81298 0.70176 0.94642 0.0
C3093 C 0.80003 0.70545 0.95867 0.0
C3094 C 0.8155 0.71089 0.93064 0.0
C3095 C 0.80484 0.7236 0.92645 0.0
C3096 C 0.79149 0.72675 0.93844 0.0
H3097 H 0.78365 0.77313 0.82824 0.0
H3098 H 0.78479 0.76253 0.85911 0.0
C3099 C 0.78941 0.71816 0.95464 0.0
C3100 C 0.80724 0.73271 0.9091 0.0
H3101 H 0.80957 0.77507 0.89261 0.0
C3102 C 0.80864 0.72093 0.89163 0.0
C3103 C 0.80812 0.75267 0.9095 0.0
C3104 C 0.80826 0.76671 0.9278 0.0
C3105 C 0.81031 0.7283 0.87464 0.0
C3106 C 0.81051 0.74803 0.87498 0.0
C3107 C 0.80935 0.75992 0.89238 0.0
C3108 C 0.81081 0.7562 0.85718 0.0
C3109 C 0.81132 0.71477 0.85631 0.0
C3110 C 0.82528 0.7567 0.84607 0.0
C3111 C 0.82466 0.76284 0.82846 0.0
C3112 C 0.80953 0.76845 0.82176 0.0
C3113 C 0.79537 0.76865 0.83314 0.0
C3114 C 0.79604 0.76268 0.85076 0.0
H3115 H 0.80751 0.69939 0.85776 0.0
H3116 H 0.80261 0.71722 0.8445 0.0
H3117 H 0.82511 0.71755 0.85228 0.0
H3118 H 0.83692 0.75205 0.85088 0.0
H3119 H 0.83574 0.76276 0.81988 0.0
H3120 H 0.8479 0.1504 0.02745 0.0
H3121 H 0.8739 0.13649 0.02615 0.0
H3122 H 0.84242 0.08196 0.03375 0.0
H3123 H 0.81598 0.09566 0.03448 0.0
H3124 H 0.89003 0.11986 0.05192 0.0
H3125 H 0.86461 0.06852 0.9841 0.0
H3126 H 0.85453 0.0883 0.99307 0.0
H3127 H 0.85018 0.06655 1.00281 0.0
C3128 C 0.84649 0.13548 0.02902 0.0
C3129 C 0.82997 0.12401 0.03102 0.0
C3130 C 0.86135 0.12761 0.02829 0.0
C3131 C 0.85989 0.10824 0.02965 0.0
C3132 C 0.84358 0.09691 0.0324 0.0
H3133 H 0.93259 0.0338 0.01366 0.0
H3134 H 0.90994 0.04994 0.02723 0.0
C3135 C 0.8286 0.10474 0.03295 0.0
C3136 C 0.87545 0.09987 0.02756 0.0
H3137 H 0.89169 0.06591 0.99917 0.0
C3138 C 0.89044 0.10799 0.04048 0.0
C3139 C 0.87585 0.08475 0.0123 0.0
C3140 C 0.86051 0.07663 0.99715 0.0
C3141 C 0.90593 0.10102 0.03873 0.0
C3142 C 0.90614 0.08555 0.02383 0.0
C3143 C 0.89118 0.07755 0.01083 0.0
C3144 C 0.92189 0.07769 0.02068 0.0
C3145 C 0.9219 0.11016 0.05273 0.0
C3146 C 0.93621 0.0883 0.01318 0.0
C3147 C 0.94905 0.07912 0.00545 0.0
C3148 C 0.94748 0.05936 0.00517 0.0
C3149 C 0.93389 0.04911 0.0139 0.0
C3150 C 0.92109 0.05828 0.02165 0.0
H3151 H 0.91858 0.11972 0.0653 0.0
H3152 H 0.92786 0.09888 0.05772 0.0
H3153 H 0.932 0.11895 0.04552 0.0
H3154 H 0.93675 0.10321 0.01203 0.0
H3155 H 0.95952 0.08709 0.99863 0.0
H3156 H 0.37465 0.40947 0.06022 0.0
H3157 H 0.40349 0.43168 0.06227 0.0
H3158 H 0.38505 0.45447 0.01459 0.0
H3159 H 0.35585 0.4331 0.01346 0.0
H3160 H 0.42731 0.4333 0.03911 0.0
H3161 H 0.40849 0.50399 0.04662 0.0
H3162 H 0.39297 0.48231 0.04882 0.0
H3163 H 0.39739 0.48782 0.0256 0.0
C3164 C 0.37666 0.41963 0.05054 0.0
C3165 C 0.36292 0.41982 0.03692 0.0
C3166 C 0.39321 0.43226 0.0516 0.0
C3167 C 0.39663 0.44518 0.03881 0.0
C3168 C 0.38279 0.44531 0.02515 0.0
H3169 H 0.4907 0.52082 0.01021 0.0
H3170 H 0.46096 0.50203 0.01259 0.0
C3171 C 0.36606 0.433 0.02442 0.0
C3172 C 0.41491 0.45748 0.03906 0.0
H3173 H 0.43783 0.5034 0.03851 0.0
C3174 C 0.42955 0.44867 0.03917 0.0
C3175 C 0.41812 0.47761 0.03912 0.0
C3176 C 0.40342 0.48851 0.04023 0.0
C3177 C 0.447 0.45914 0.03881 0.0
C3178 C 0.45016 0.47921 0.03857 0.0
C3179 C 0.43556 0.48805 0.03861 0.0
C3180 C 0.46836 0.49117 0.03768 0.0
C3181 C 0.46178 0.44833 0.03807 0.0
C3182 C 0.48258 0.49184 0.05118 0.0
C3183 C 0.49966 0.50248 0.04969 0.0
C3184 C 0.50281 0.51306 0.03495 0.0
C3185 C 0.48858 0.51291 0.02181 0.0
C3186 C 0.47157 0.50213 0.02317 0.0
H3187 H 0.45675 0.43261 0.03285 0.0
H3188 H 0.47179 0.45382 0.02867 0.0
H3189 H 0.4684 0.45023 0.05267 0.0
H3190 H 0.48052 0.48405 0.06286 0.0
H3191 H 0.51043 0.50231 0.05995 0.0
H3192 H 0.3978 0.61208 0.7485 0.0
H3193 H 0.38265 0.6387 0.74763 0.0
H3194 H 0.40021 0.66055 0.80704 0.0
H3195 H 0.41692 0.63524 0.80706 0.0
H3196 H 0.359 0.65282 0.75509 0.0
H3197 H 0.40623 0.71199 0.80223 0.0
H3198 H 0.41201 0.68928 0.79408 0.0
H3199 H 0.3993 0.69248 0.81449 0.0
C3200 C 0.39885 0.62279 0.76137 0.0
C3201 C 0.40932 0.62105 0.77773 0.0
C3202 C 0.38982 0.63838 0.76096 0.0
C3203 C 0.38999 0.65323 0.77708 0.0
C3204 C 0.40001 0.65092 0.79367 0.0
H3205 H 0.32696 0.74998 0.79857 0.0
H3206 H 0.34293 0.72394 0.80185 0.0
C3207 C 0.40964 0.63577 0.79384 0.0
C3208 C 0.37938 0.67006 0.77642 0.0
H3209 H 0.37797 0.7178 0.7952 0.0
C3210 C 0.36364 0.66695 0.7639 0.0
C3211 C 0.38432 0.68939 0.78754 0.0
C3212 C 0.40146 0.69609 0.80017 0.0
C3213 C 0.35332 0.68136 0.76238 0.0
C3214 C 0.35807 0.70036 0.77378 0.0
C3215 C 0.37363 0.70358 0.78642 0.0
C3216 C 0.34761 0.71689 0.77209 0.0
C3217 C 0.33694 0.67576 0.74853 0.0
C3218 C 0.34434 0.72273 0.75444 0.0
C3219 C 0.33521 0.73785 0.7526 0.0
C3220 C 0.32835 0.74831 0.76814 0.0
C3221 C 0.33142 0.7425 0.78592 0.0
C3222 C 0.34089 0.72741 0.78784 0.0
H3223 H 0.33202 0.65987 0.74502 0.0
H3224 H 0.32618 0.68244 0.75431 0.0
H3225 H 0.34013 0.68087 0.73505 0.0
H3226 H 0.3493 0.71585 0.74182 0.0
H3227 H 0.33373 0.7416 0.73862 0.0
H3228 H 0.23681 0.63241 0.54934 0.0
H3229 H 0.20748 0.61282 0.55179 0.0
H3230 H 0.19955 0.59648 0.49038 0.0
H3231 H 0.22894 0.6162 0.48792 0.0
H3232 H 0.17863 0.6248 0.52459 0.0
H3233 H 0.17896 0.54669 0.51893 0.0
H3234 H 0.19807 0.56503 0.5299 0.0
H3235 H 0.19227 0.56146 0.50472 0.0
C3236 C 0.22892 0.62414 0.53648 0.0
C3237 C 0.23465 0.62557 0.51846 0.0
C3238 C 0.21242 0.61292 0.53788 0.0
C3239 C 0.2018 0.60309 0.52126 0.0
C3240 C 0.20794 0.60373 0.50327 0.0
H3241 H 0.09247 0.5505 0.49986 0.0
H3242 H 0.12464 0.55702 0.50162 0.0
C3243 C 0.22445 0.61504 0.50186 0.0
C3244 C 0.18311 0.59605 0.5226 0.0
H3245 H 0.15177 0.55597 0.52399 0.0
C3246 C 0.17265 0.60978 0.52454 0.0
C3247 C 0.1757 0.57643 0.52193 0.0
C3248 C 0.18674 0.56141 0.51874 0.0
C3249 C 0.15459 0.60438 0.5259 0.0
C3250 C 0.14719 0.58485 0.52646 0.0
C3251 C 0.1577 0.57101 0.52419 0.0
C3252 C 0.12823 0.57843 0.52763 0.0
C3253 C 0.14365 0.61952 0.52587 0.0
C3254 C 0.11974 0.58798 0.54194 0.0
C3255 C 0.10142 0.58519 0.54021 0.0
C3256 C 0.09161 0.5716 0.52517 0.0
C3257 C 0.10003 0.56093 0.51172 0.0
C3258 C 0.1183 0.56446 0.51283 0.0
H3259 H 0.15049 0.63192 0.51974 0.0
H3260 H 0.13062 0.61345 0.51751 0.0
H3261 H 0.14142 0.62523 0.54076 0.0
H3262 H 0.12732 0.59847 0.55372 0.0
H3263 H 0.095 0.59384 0.55029 0.0
H3264 H 0.68434 0.98191 0.75214 0.0
H3265 H 0.69987 0.95656 0.75558 0.0
H3266 H 0.74143 0.98213 0.72399 0.0
H3267 H 0.7264 0.0085 0.72151 0.0
H3268 H 0.71355 0.92974 0.7351 0.0
H3269 H 0.76604 0.98918 0.77681 0.0
H3270 H 0.74513 0.99309 0.7679 0.0
H3271 H 0.76239 0.99119 0.75228 0.0
C3272 C 0.69652 0.98186 0.74541 0.0
C3273 C 0.70448 0.99725 0.73691 0.0
C3274 C 0.70532 0.96734 0.74734 0.0
C3275 C 0.72189 0.96793 0.74042 0.0
C3276 C 0.72878 0.98191 0.72977 0.0
H3277 H 0.8002 0.90533 0.76342 0.0
H3278 H 0.77933 0.92032 0.74745 0.0
C3279 C 0.7202 0.9968 0.72828 0.0
C3280 C 0.73289 0.95576 0.74694 0.0
H3281 H 0.77081 0.95778 0.7742 0.0
C3282 C 0.72616 0.93577 0.74349 0.0
C3283 C 0.74895 0.96401 0.75849 0.0
C3284 C 0.75598 0.98554 0.76428 0.0
C3285 C 0.73532 0.92365 0.7512 0.0
C3286 C 0.75156 0.93192 0.76209 0.0
C3287 C 0.75832 0.95179 0.76553 0.0
C3288 C 0.76211 0.92042 0.77026 0.0
C3289 C 0.72764 0.90226 0.74798 0.0
C3290 C 0.75916 0.91613 0.78836 0.0
C3291 C 0.77121 0.9081 0.79764 0.0
C3292 C 0.78618 0.90455 0.7888 0.0
C3293 C 0.78892 0.90863 0.77056 0.0
C3294 C 0.77693 0.91667 0.76133 0.0
H3295 H 0.71509 0.89809 0.73847 0.0
H3296 H 0.73732 0.89423 0.74161 0.0
H3297 H 0.725 0.89786 0.7619 0.0
H3298 H 0.74778 0.91933 0.79535 0.0
H3299 H 0.7687 0.90427 0.81143 0.0
H3300 H 0.74662 0.89119 0.51551 0.0
H3301 H 0.7211 0.90617 0.5136 0.0
H3302 H 0.74883 0.95528 0.55526 0.0
H3303 H 0.77473 0.94083 0.5564 0.0
H3304 H 0.69873 0.91772 0.53666 0.0
H3305 H 0.73729 0.98229 0.51389 0.0
H3306 H 0.74635 0.96147 0.51571 0.0
H3307 H 0.74613 0.97932 0.53665 0.0
C3308 C 0.74726 0.90516 0.52432 0.0
C3309 C 0.76281 0.91496 0.53592 0.0
C3310 C 0.73263 0.91372 0.52322 0.0
C3311 C 0.73316 0.93216 0.53386 0.0
C3312 C 0.74829 0.9414 0.54634 0.0
H3313 H 0.66065 0.01061 0.54105 0.0
H3314 H 0.68245 0.99195 0.54891 0.0
C3315 C 0.76306 0.93304 0.54713 0.0
C3316 C 0.71814 0.94192 0.53149 0.0
H3317 H 0.70823 0.98371 0.52188 0.0
C3318 C 0.70084 0.93214 0.5334 0.0
C3319 C 0.72074 0.96067 0.52694 0.0
C3320 C 0.73859 0.97145 0.52297 0.0
C3321 C 0.68624 0.94072 0.53128 0.0
C3322 C 0.68901 0.9596 0.52726 0.0
C3323 C 0.70621 0.96935 0.5253 0.0
C3324 C 0.67422 0.96928 0.52409 0.0
C3325 C 0.66797 0.92965 0.53346 0.0
C3326 C 0.66222 0.96255 0.50772 0.0
C3327 C 0.64992 0.97324 0.50318 0.0
C3328 C 0.64932 0.99076 0.515 0.0
C3329 C 0.66071 0.997 0.53188 0.0
C3330 C 0.67319 0.98643 0.5363 0.0
H3331 H 0.66841 0.91708 0.54046 0.0
H3332 H 0.66046 0.93915 0.5419 0.0
H3333 H 0.66064 0.92421 0.51912 0.0
H3334 H 0.66295 0.94954 0.49795 0.0
H3335 H 0.64135 0.96825 0.49 0.0
H3336 H 0.43007 0.49378 0.75787 0.0
H3337 H 0.41132 0.46178 0.75579 0.0
H3338 H 0.37302 0.48713 0.78652 0.0
H3339 H 0.39157 0.51951 0.7877 0.0
H3340 H 0.40196 0.43969 0.77802 0.0
H3341 H 0.33742 0.45059 0.75081 0.0
H3342 H 0.35747 0.46864 0.75181 0.0
H3343 H 0.34596 0.46654 0.77289 0.0
C3344 C 0.41748 0.49274 0.76391 0.0
C3345 C 0.41251 0.50977 0.77272 0.0
C3346 C 0.40663 0.47409 0.76282 0.0
C3347 C 0.39017 0.47118 0.77069 0.0
C3348 C 0.38512 0.48826 0.77957 0.0
H3349 H 0.31007 0.36421 0.78032 0.0
H3350 H 0.32701 0.39726 0.78168 0.0
C3351 C 0.39592 0.5071 0.78036 0.0
C3352 C 0.37917 0.45041 0.77016 0.0
H3353 H 0.33723 0.42105 0.76109 0.0
C3354 C 0.3878 0.43579 0.77418 0.0
C3355 C 0.36048 0.44447 0.76533 0.0
C3356 C 0.3498 0.45831 0.75978 0.0
C3357 C 0.37873 0.41632 0.77387 0.0
C3358 C 0.36004 0.41031 0.76888 0.0
C3359 C 0.35138 0.42496 0.76496 0.0
C3360 C 0.34929 0.38932 0.76778 0.0
C3361 C 0.38953 0.40267 0.77968 0.0
C3362 C 0.35533 0.37285 0.75921 0.0
C3363 C 0.34569 0.3537 0.75886 0.0
C3364 C 0.32906 0.34984 0.76628 0.0
C3365 C 0.32261 0.3662 0.77417 0.0
C3366 C 0.33249 0.38539 0.775 0.0
H3367 H 0.40155 0.41056 0.78918 0.0
H3368 H 0.38178 0.39201 0.78723 0.0
H3369 H 0.39406 0.39489 0.76674 0.0
H3370 H 0.36759 0.37464 0.75255 0.0
H3371 H 0.35129 0.34178 0.75251 0.0
H3372 H 0.19868 0.61954 0.28039 0.0
H3373 H 0.2232 0.6472 0.28121 0.0
H3374 H 0.2459 0.61415 0.23671 0.0
H3375 H 0.2214 0.58665 0.23544 0.0
H3376 H 0.26066 0.64673 0.28814 0.0
H3377 H 0.24114 0.66468 0.21794 0.0
H3378 H 0.22575 0.65022 0.23055 0.0
H3379 H 0.24221 0.64002 0.21835 0.0
C3380 C 0.20879 0.61831 0.27064 0.0
C3381 C 0.20831 0.60108 0.25795 0.0
C3382 C 0.22278 0.63393 0.27125 0.0
C3383 C 0.2362 0.63234 0.25911 0.0
C3384 C 0.23556 0.61537 0.24615 0.0
H3385 H 0.31042 0.74384 0.26986 0.0
H3386 H 0.3057 0.70871 0.26631 0.0
C3387 C 0.22162 0.59979 0.24551 0.0
C3388 C 0.25075 0.64874 0.25987 0.0
H3389 H 0.26461 0.686 0.23713 0.0
C3390 C 0.26195 0.65514 0.27684 0.0
C3391 C 0.2522 0.65932 0.24492 0.0
C3392 C 0.23966 0.65337 0.22692 0.0
C3393 C 0.27348 0.67315 0.28001 0.0
C3394 C 0.27376 0.68437 0.2657 0.0
C3395 C 0.2643 0.67689 0.24784 0.0
C3396 C 0.27799 0.70514 0.27082 0.0
C3397 C 0.28365 0.68106 0.2993 0.0
C3398 C 0.26389 0.71422 0.27457 0.0
C3399 C 0.2662 0.73381 0.27509 0.0
C3400 C 0.28278 0.74446 0.27247 0.0
C3401 C 0.2973 0.73559 0.27062 0.0
C3402 C 0.29479 0.71576 0.26918 0.0
H3403 H 0.28508 0.66938 0.30723 0.0
H3404 H 0.29697 0.68957 0.29774 0.0
H3405 H 0.27647 0.69087 0.30785 0.0
H3406 H 0.25084 0.70592 0.27596 0.0
H3407 H 0.25498 0.74051 0.27723 0.0
H3408 H 0.52875 0.73862 0.48492 0.0
H3409 H 0.53569 0.71055 0.49604 0.0
H3410 H 0.5243 0.678 0.43857 0.0
H3411 H 0.51867 0.70676 0.42721 0.0
H3412 H 0.51883 0.67852 0.49931 0.0
H3413 H 0.56726 0.66059 0.44914 0.0
H3414 H 0.55922 0.68247 0.45034 0.0
H3415 H 0.5464 0.65998 0.43675 0.0
C3416 C 0.52799 0.72557 0.47454 0.0
C3417 C 0.52332 0.72517 0.45507 0.0
C3418 C 0.53191 0.70934 0.48097 0.0
C3419 C 0.53099 0.69184 0.46827 0.0
C3420 C 0.52595 0.6913 0.44878 0.0
H3421 H 0.54045 0.57539 0.48339 0.0
H3422 H 0.53724 0.6046 0.47141 0.0
C3423 C 0.52254 0.7078 0.44223 0.0
C3424 C 0.53467 0.67429 0.47574 0.0
H3425 H 0.55662 0.63717 0.46787 0.0
C3426 C 0.52724 0.66965 0.49242 0.0
C3427 C 0.54563 0.66234 0.46704 0.0
C3428 C 0.55522 0.66671 0.44996 0.0
C3429 C 0.53007 0.65359 0.50026 0.0
C3430 C 0.54088 0.64155 0.49142 0.0
C3431 C 0.5483 0.64615 0.47477 0.0
C3432 C 0.54422 0.62387 0.49876 0.0
C3433 C 0.52088 0.64948 0.51768 0.0
C3434 C 0.5499 0.62464 0.51808 0.0
C3435 C 0.5514 0.60776 0.52501 0.0
C3436 C 0.54808 0.58974 0.51269 0.0
C3437 C 0.54343 0.58908 0.49321 0.0
C3438 C 0.54151 0.60586 0.48636 0.0
H3439 H 0.5092 0.65615 0.51915 0.0
H3440 H 0.51644 0.63374 0.51721 0.0
H3441 H 0.53019 0.65574 0.53064 0.0
H3442 H 0.55285 0.63825 0.52799 0.0
H3443 H 0.55481 0.60874 0.54012 0.0
H3444 H 0.64064 0.34781 0.6591 0.0
H3445 H 0.66596 0.34537 0.68035 0.0
H3446 H 0.66022 0.28586 0.65362 0.0
H3447 H 0.63555 0.2886 0.63203 0.0
H3448 H 0.67214 0.32579 0.70704 0.0
H3449 H 0.71101 0.3025 0.64848 0.0
H3450 H 0.69093 0.31065 0.64411 0.0
H3451 H 0.69006 0.28617 0.64729 0.0
C3452 C 0.64471 0.33417 0.6579 0.0
C3453 C 0.63591 0.31837 0.64386 0.0
C3454 C 0.65931 0.33277 0.67005 0.0
C3455 C 0.66567 0.31555 0.66851 0.0
C3456 C 0.65632 0.29958 0.65493 0.0
H3457 H 0.75281 0.27561 0.7231 0.0
H3458 H 0.72699 0.27951 0.70406 0.0
C3459 C 0.64191 0.30106 0.64269 0.0
C3460 C 0.68189 0.31422 0.68096 0.0
H3461 H 0.72153 0.29981 0.67954 0.0
C3462 C 0.68296 0.3202 0.70093 0.0
C3463 C 0.69633 0.30699 0.67336 0.0
C3464 C 0.69714 0.30141 0.65214 0.0
C3465 C 0.69739 0.31858 0.71332 0.0
C3466 C 0.71173 0.31113 0.70572 0.0
C3467 C 0.71073 0.30538 0.68571 0.0
C3468 C 0.72772 0.30886 0.71798 0.0
C3469 C 0.69663 0.32428 0.73453 0.0
C3470 C 0.73732 0.32392 0.73241 0.0
C3471 C 0.75214 0.32157 0.74354 0.0
C3472 C 0.75836 0.30433 0.74023 0.0
C3473 C 0.74891 0.28934 0.72575 0.0
C3474 C 0.73391 0.29155 0.71487 0.0
H3475 H 0.68281 0.3236 0.73821 0.0
H3476 H 0.70255 0.31484 0.74256 0.0
H3477 H 0.70404 0.3394 0.73935 0.0
H3478 H 0.73358 0.33773 0.73498 0.0
H3479 H 0.75899 0.33347 0.75454 0.0
H3480 H 0.04843 0.326 0.96832 0.0
H3481 H 0.0522 0.35997 0.984 0.0
H3482 H 1.00545 0.36404 0.95075 0.0
H3483 H 1.00202 0.33028 0.93466 0.0
H3484 H 0.05615 0.39346 0.96508 0.0
H3485 H 0.99829 0.38678 0.00757 0.0
H3486 H 0.00817 0.36667 0.99898 0.0
H3487 H 0.99352 0.37451 0.98311 0.0
C3488 C 0.03886 0.33411 0.96452 0.0
C3489 C 0.02486 0.32544 0.95031 0.0
C3490 C 0.04105 0.35357 0.97346 0.0
C3491 C 0.02902 0.36469 0.96878 0.0
C3492 C 0.01482 0.35584 0.95484 0.0
H3493 H 0.02993 0.48375 0.97164 0.0
H3494 H 0.02605 0.44855 0.96629 0.0
C3495 C 0.01287 0.33653 0.94559 0.0
C3496 C 0.0317 0.38572 0.97759 0.0
H3497 H 0.01164 0.41863 0.00346 0.0
C3498 C 0.04649 0.39889 0.97362 0.0
C3499 C 0.01939 0.39299 0.98916 0.0
C3500 C 1.00401 0.37954 0.99517 0.0
C3501 C 0.04868 0.419 0.9799 0.0
C3502 C 0.03574 0.42632 0.99036 0.0
C3503 C 0.02146 0.41314 0.99523 0.0
C3504 C 0.03624 0.44758 0.99481 0.0
C3505 C 0.06471 0.43247 0.97507 0.0
C3506 C 0.04265 0.45888 0.01291 0.0
C3507 C 0.04448 0.47912 0.01613 0.0
C3508 C 0.04004 0.48846 1.00128 0.0
C3509 C 0.03319 0.47701 0.98343 0.0
C3510 C 0.0311 0.45687 0.98032 0.0
H3511 H 0.07442 0.42459 0.96849 0.0
H3512 H 0.06053 0.44121 0.96497 0.0
H3513 H 0.07131 0.44261 0.98818 0.0
H3514 H 0.04688 0.45214 0.0243 0.0
H3515 H 0.05035 0.48752 0.02988 0.0
H3516 H 0.02563 0.77749 0.12745 0.0
H3517 H 0.99777 0.77397 0.14282 0.0
H3518 H 0.01274 0.83363 0.17064 0.0
H3519 H 0.04062 0.83702 0.15544 0.0
H3520 H 0.99335 0.77963 0.18225 0.0
H3521 H 0.9618 0.82931 0.14771 0.0
H3522 H 0.98003 0.81981 0.1383 0.0
H3523 H 0.98403 0.83952 0.15826 0.0
C3524 C 0.02289 0.78984 0.13678 0.0
C3525 C 0.03531 0.80751 0.14028 0.0
C3526 C 0.00696 0.78784 0.14558 0.0
C3527 C 1.00288 0.80358 0.1578 0.0
C3528 C 0.01528 0.82131 0.16109 0.0
H3529 H 0.91958 0.8163 0.23516 0.0
H3530 H 0.94458 0.82228 0.21549 0.0
C3531 C 0.03131 0.82322 0.1525 0.0
C3532 C 0.98615 0.8012 0.16778 0.0
H3533 H 0.94793 0.81781 0.17369 0.0
C3534 C 0.9834 0.78791 0.18024 0.0
C3535 C 0.97305 0.81201 0.16536 0.0
C3536 C 0.97471 0.82586 0.15157 0.0
C3537 C 0.96827 0.78541 0.19048 0.0
C3538 C 0.95516 0.7962 0.18808 0.0
C3539 C 0.95788 0.80952 0.17564 0.0
C3540 C 0.93861 0.79356 0.19835 0.0
C3541 C 0.96663 0.7715 0.20422 0.0
C3542 C 0.9264 0.77571 0.19491 0.0
C3543 C 0.9121 0.77234 0.20606 0.0
C3544 C 0.9094 0.7868 0.22084 0.0
C3545 C 0.92103 0.80501 0.22363 0.0
C3546 C 0.93542 0.80837 0.21246 0.0
H3547 H 0.97939 0.76743 0.20749 0.0
H3548 H 0.96199 0.77785 0.21779 0.0
H3549 H 0.95676 0.75815 0.19783 0.0
H3550 H 0.9283 0.76408 0.18399 0.0
H3551 H 0.90355 0.75809 0.20371 0.0
H3552 H 0.5074 0.29151 0.10664 0.0
H3553 H 0.51414 0.31738 0.0884 0.0
H3554 H 0.53051 0.35885 0.14067 0.0
H3555 H 0.52363 0.33295 0.15924 0.0
H3556 H 0.49841 0.35307 0.09545 0.0
H3557 H 0.57199 0.36475 0.10299 0.0
H3558 H 0.5577 0.34212 0.10497 0.0
H3559 H 0.56057 0.36245 0.12407 0.0
C3560 C 0.51258 0.30612 0.11428 0.0
C3561 C 0.51502 0.31039 0.13431 0.0
C3562 C 0.51633 0.32079 0.10385 0.0
C3563 C 0.52277 0.33977 0.11335 0.0
C3564 C 0.52555 0.34412 0.1333 0.0
H3565 H 0.5571 0.44332 0.06798 0.0
H3566 H 0.5467 0.42127 0.08961 0.0
C3567 C 0.52164 0.32943 0.1438 0.0
C3568 C 0.52622 0.3551 0.10224 0.0
H3569 H 0.55954 0.3851 0.08625 0.0
C3570 C 0.51173 0.36024 0.09347 0.0
C3571 C 0.54364 0.36401 0.09974 0.0
C3572 C 0.55945 0.35806 0.10831 0.0
C3573 C 0.51429 0.3744 0.08214 0.0
C3574 C 0.53173 0.38333 0.07963 0.0
C3575 C 0.54621 0.37826 0.08853 0.0
C3576 C 0.53543 0.3972 0.06686 0.0
C3577 C 0.49846 0.37971 0.07291 0.0
C3578 C 0.5323 0.39076 0.0471 0.0
C3579 C 0.53833 0.40318 0.03478 0.0
C3580 C 0.54752 0.4221 0.04217 0.0
C3581 C 0.55 0.42875 0.06201 0.0
C3582 C 0.54408 0.41627 0.07432 0.0
H3583 H 0.48609 0.37419 0.07922 0.0
H3584 H 0.50047 0.39562 0.07436 0.0
H3585 H 0.49676 0.37341 0.05745 0.0
H3586 H 0.52583 0.37593 0.04124 0.0
H3587 H 0.53611 0.39793 0.01951 0.0
H3588 H 0.04244 0.291 0.3664 0.0
H3589 H 0.01394 0.28867 0.34805 0.0
H3590 H 0.02284 0.35084 0.35809 0.0
H3591 H 0.05089 0.35315 0.37628 0.0
H3592 H 0.98665 0.30628 0.36593 0.0
H3593 H 0.00669 0.33374 0.3005 0.0
H3594 H 0.02129 0.32424 0.31515 0.0
H3595 H 0.01818 0.34842 0.32221 0.0
C3596 C 0.03831 0.30405 0.3643 0.0
C3597 C 0.04848 0.32223 0.37279 0.0
C3598 C 0.02219 0.30273 0.35393 0.0
C3599 C 0.01656 0.3196 0.35176 0.0
C3600 C 0.02718 0.33772 0.35951 0.0
H3601 H 0.93034 0.36017 0.30959 0.0
H3602 H 0.95605 0.35606 0.3287 0.0
C3603 C 0.04307 0.33902 0.37001 0.0
C3604 C 0.99883 0.31864 0.34316 0.0
H3605 H 0.97729 0.33446 0.30839 0.0
C3606 C 0.98443 0.31208 0.35315 0.0
C3607 C 0.99631 0.32653 0.32671 0.0
C3608 C 0.01143 0.33349 0.31542 0.0
C3609 C 0.96743 0.31394 0.34743 0.0
C3610 C 0.96503 0.32231 0.33127 0.0
C3611 C 0.97936 0.32827 0.32096 0.0
C3612 C 0.94777 0.32493 0.32432 0.0
C3613 C 0.95236 0.3077 0.35906 0.0
C3614 C 0.9345 0.3088 0.31632 0.0
C3615 C 0.91985 0.31115 0.30555 0.0
C3616 C 0.91863 0.32962 0.30253 0.0
C3617 C 0.93132 0.34583 0.3116 0.0
C3618 C 0.94582 0.3435 0.32256 0.0
H3619 H 0.95716 0.30557 0.37334 0.0
H3620 H 0.94394 0.31852 0.36098 0.0
H3621 H 0.94398 0.29382 0.3514 0.0
H3622 H 0.93604 0.29437 0.31729 0.0
H3623 H 0.91009 0.29849 0.29861 0.0
H3624 H 0.96966 0.70519 0.6184 0.0
H3625 H 0.97082 0.67186 0.60547 0.0
H3626 H 0.02069 0.67944 0.63909 0.0
H3627 H 0.01863 0.7119 0.65316 0.0
H3628 H 0.99727 0.67377 0.58434 0.0
H3629 H 1.0051 0.62312 0.63297 0.0
H3630 H 0.99598 0.64408 0.64032 0.0
H3631 H 0.0196 0.64619 0.64107 0.0
C3632 C 0.98009 0.6991 0.62399 0.0
C3633 C 0.9941 0.71072 0.63653 0.0
C3634 C 0.98081 0.68018 0.61662 0.0
C3635 C 0.99593 0.67334 0.62117 0.0
C3636 C 0.00873 0.68423 0.63567 0.0
H3637 H 0.05689 0.60225 0.55935 0.0
H3638 H 0.0474 0.62927 0.57835 0.0
C3639 C 0.00762 0.70285 0.64361 0.0
C3640 C 1.00085 0.65834 0.60732 0.0
H3641 H 0.0183 0.61839 0.60305 0.0
C3642 C 1.00142 0.66136 0.58836 0.0
C3643 C 0.00697 0.64272 0.6128 0.0
C3644 C 0.00674 0.63879 0.6329 0.0
C3645 C 0.00792 0.64907 0.57469 0.0
C3646 C 0.0139 0.63353 0.58025 0.0
C3647 C 0.01355 0.6305 0.5991 0.0
C3648 C 0.02007 0.61968 0.56658 0.0
C3649 C 0.00882 0.65293 0.55458 0.0
C3650 C 0.00777 0.60603 0.55348 0.0
C3651 C 0.01306 0.5905 0.54295 0.0
C3652 C 0.03057 0.58865 0.5458 0.0
C3653 C 0.04312 0.60311 0.55782 0.0
C3654 C 0.03784 0.61859 0.56833 0.0
H3655 H 0.00617 0.66729 0.55336 0.0
H3656 H 0.02205 0.65211 0.54971 0.0
H3657 H 0.99885 0.64171 0.5448 0.0
H3658 H 0.99397 0.60685 0.55219 0.0
H3659 H 1.00336 0.57948 0.53343 0.0
H3660 H 0.63297 0.78229 0.84656 0.0
H3661 H 0.65793 0.78338 0.82669 0.0
H3662 H 0.67418 0.84498 0.84657 0.0
H3663 H 0.65029 0.84356 0.86742 0.0
H3664 H 0.66641 0.80107 0.79818 0.0
H3665 H 0.71924 0.83037 0.85816 0.0
H3666 H 0.69642 0.82255 0.86223 0.0
H3667 H 0.70411 0.84575 0.85577 0.0
C3668 C 0.64207 0.7959 0.84673 0.0
C3669 C 0.64017 0.81272 0.8586 0.0
C3670 C 0.65618 0.79661 0.83539 0.0
C3671 C 0.66808 0.81424 0.8355 0.0
C3672 C 0.66556 0.83116 0.84678 0.0
H3673 H 0.76086 0.81383 0.76908 0.0
H3674 H 0.73318 0.82369 0.77692 0.0
C3675 C 0.6519 0.83034 0.85857 0.0
C3676 C 0.68323 0.81472 0.82398 0.0
H3677 H 0.72825 0.82404 0.82748 0.0
C3678 C 0.67994 0.80632 0.80452 0.0
C3679 C 0.70086 0.82189 0.83231 0.0
C3680 C 0.70541 0.8305 0.85328 0.0
C3681 C 0.69385 0.8035 0.79351 0.0
C3682 C 0.71126 0.80953 0.8022 0.0
C3683 C 0.71468 0.81955 0.82106 0.0
C3684 C 0.7256 0.8017 0.79391 0.0
C3685 C 0.68993 0.79279 0.77319 0.0
C3686 C 0.73017 0.78615 0.80092 0.0
C3687 C 0.74617 0.78122 0.79731 0.0
C3688 C 0.75714 0.79088 0.78559 0.0
C3689 C 0.75205 0.80565 0.77748 0.0
C3690 C 0.73638 0.81129 0.78191 0.0
H3691 H 0.676 0.79158 0.76765 0.0
H3692 H 0.69889 0.80018 0.76383 0.0
H3693 H 0.6924 0.77804 0.77245 0.0
H3694 H 0.722 0.7789 0.8105 0.0
H3695 H 0.75043 0.77072 0.80458 0.0
H3696 H 0.45757 0.53831 0.71618 0.0
H3697 H 0.4716 0.53787 0.68635 0.0
H3698 H 0.4804 0.59977 0.69478 0.0
H3699 H 0.46648 0.60017 0.72511 0.0
H3700 H 0.46685 0.54536 0.65284 0.0
H3701 H 0.52905 0.59701 0.68271 0.0
H3702 H 0.51266 0.5878 0.69771 0.0
H3703 H 0.50986 0.60713 0.68561 0.0
C3704 C 0.46205 0.55193 0.71158 0.0
C3705 C 0.4601 0.56922 0.72335 0.0
C3706 C 0.47039 0.55167 0.69428 0.0
C3707 C 0.47778 0.56875 0.68767 0.0
C3708 C 0.47548 0.58615 0.69914 0.0
H3709 H 0.53729 0.58718 0.58341 0.0
H3710 H 0.52278 0.59147 0.61335 0.0
C3711 C 0.46697 0.5864 0.71656 0.0
C3712 C 0.4875 0.56784 0.66898 0.0
H3713 H 0.52584 0.58611 0.64925 0.0
C3714 C 0.47979 0.55435 0.65232 0.0
C3715 C 0.50455 0.57935 0.66735 0.0
C3716 C 0.51464 0.59351 0.68431 0.0
C3717 C 0.48804 0.55225 0.63481 0.0
C3718 C 0.50518 0.56352 0.63322 0.0
C3719 C 0.51286 0.57721 0.64979 0.0
C3720 C 0.51513 0.56111 0.61476 0.0
C3721 C 0.47776 0.53817 0.61788 0.0
C3722 C 0.51667 0.54275 0.60496 0.0
C3723 C 0.52481 0.54028 0.58754 0.0
C3724 C 0.53237 0.55603 0.57899 0.0
C3725 C 0.53172 0.57453 0.58917 0.0
C3726 C 0.52327 0.577 0.60654 0.0
H3727 H 0.46329 0.53561 0.61918 0.0
H3728 H 0.48036 0.54339 0.60433 0.0
H3729 H 0.48167 0.5241 0.61714 0.0
H3730 H 0.51158 0.53004 0.6108 0.0
H3731 H 0.52534 0.5258 0.5808 0.0
H3732 H 0.79029 0.13981 0.96046 0.0
H3733 H 0.78547 0.1551 0.93297 0.0
H3734 H 0.76667 0.19949 0.96938 0.0
H3735 H 0.77194 0.18497 0.99673 0.0
H3736 H 0.75488 0.17209 0.91785 0.0
H3737 H 0.8167 0.22349 0.95139 0.0
H3738 H 0.80971 0.19987 0.95737 0.0
H3739 H 0.79976 0.21935 0.96728 0.0
C3740 C 0.78479 0.1526 0.96243 0.0
C3741 C 0.78198 0.16162 0.98065 0.0
C3742 C 0.78195 0.16113 0.94682 0.0
C3743 C 0.7761 0.17841 0.94959 0.0
C3744 C 0.77139 0.18617 0.96733 0.0
H3745 H 0.7647 0.27493 0.90562 0.0
H3746 H 0.76999 0.25069 0.92427 0.0
C3747 C 0.77452 0.17793 0.9829 0.0
C3748 C 0.77768 0.19023 0.93509 0.0
H3749 H 0.79968 0.23384 0.92776 0.0
C3750 C 0.76482 0.18542 0.91962 0.0
C3751 C 0.79085 0.20741 0.93785 0.0
C3752 C 0.80514 0.21278 0.9543 0.0
C3753 C 0.76401 0.19827 0.90723 0.0
C3754 C 0.77662 0.21595 0.91061 0.0
C3755 C 0.79009 0.2202 0.92548 0.0
C3756 C 0.77511 0.23094 0.89982 0.0
C3757 C 0.74919 0.19334 0.89138 0.0
C3758 C 0.77667 0.22765 0.88028 0.0
C3759 C 0.77311 0.24099 0.86966 0.0
C3760 C 0.76862 0.25811 0.87866 0.0
C3761 C 0.76789 0.26174 0.89844 0.0
C3762 C 0.7711 0.24811 0.90903 0.0
H3763 H 0.73866 0.18097 0.89325 0.0
H3764 H 0.74313 0.20592 0.89058 0.0
H3765 H 0.75458 0.18935 0.87754 0.0
H3766 H 0.78003 0.21449 0.87319 0.0
H3767 H 0.77347 0.23762 0.85433 0.0
H3768 H 0.12544 0.54008 0.20975 0.0
H3769 H 0.11436 0.53657 0.17643 0.0
H3770 H 0.16662 0.53565 0.15898 0.0
H3771 H 0.17798 0.53912 0.19231 0.0
H3772 H 0.13366 0.56439 0.14924 0.0
H3773 H 0.12629 0.4846 0.12998 0.0
H3774 H 0.12523 0.49523 0.15455 0.0
H3775 H 0.14569 0.50004 0.14389 0.0
C3776 C 0.13455 0.53911 0.19884 0.0
C3777 C 0.15247 0.53987 0.20346 0.0
C3778 C 0.12827 0.53717 0.17997 0.0
C3779 C 0.13988 0.53605 0.16573 0.0
C3780 C 0.15771 0.53657 0.1701 0.0
H3781 H 0.08613 0.50866 0.05287 0.0
H3782 H 0.10814 0.5108 0.07924 0.0
C3783 C 0.16403 0.5384 0.18901 0.0
C3784 C 0.13273 0.53393 0.14626 0.0
H3785 H 0.10808 0.49889 0.11192 0.0
C3786 C 0.12847 0.55021 0.14058 0.0
C3787 C 0.1263 0.51537 0.13536 0.0
C3788 C 0.13111 0.49773 0.14112 0.0
C3789 C 0.11646 0.54815 0.12478 0.0
C3790 C 0.10849 0.5293 0.11511 0.0
C3791 C 0.11404 0.51323 0.11981 0.0
C3792 C 0.09416 0.5258 0.10019 0.0
C3793 C 0.11197 0.56601 0.11913 0.0
C3794 C 0.07864 0.53237 0.10384 0.0
C3795 C 0.06615 0.53129 0.08879 0.0
C3796 C 0.06919 0.52324 0.07038 0.0
C3797 C 0.08368 0.51471 0.0672 0.0
C3798 C 0.09627 0.51614 0.08208 0.0
H3799 H 0.12296 0.57883 0.12393 0.0
H3800 H 0.10906 0.5641 0.10343 0.0
H3801 H 0.10013 0.56904 0.12606 0.0
H3802 H 0.07674 0.53934 0.11803 0.0
H3803 H 0.0552 0.53832 0.09124 0.0
H3804 H 0.78196 0.84897 0.48352 0.0
H3805 H 0.78048 0.83159 0.45044 0.0
H3806 H 0.82959 0.8689 0.44277 0.0
H3807 H 0.83074 0.8867 0.47561 0.0
H3808 H 0.78252 0.85073 0.41505 0.0
H3809 H 0.83437 0.80964 0.42602 0.0
H3810 H 0.82202 0.81852 0.44502 0.0
H3811 H 0.83969 0.83476 0.43712 0.0
C3812 C 0.79247 0.85333 0.47475 0.0
C3813 C 0.80653 0.86906 0.48204 0.0
C3814 C 0.79159 0.84345 0.45589 0.0
C3815 C 0.80502 0.84882 0.44419 0.0
C3816 C 0.81916 0.86442 0.45159 0.0
H3817 H 0.81936 0.84146 0.32761 0.0
H3818 H 0.81858 0.84796 0.36221 0.0
C3819 C 0.81981 0.8746 0.47028 0.0
C3820 C 0.80409 0.83865 0.42405 0.0
H3821 H 0.82561 0.81102 0.39379 0.0
C3822 C 0.79177 0.84184 0.41043 0.0
C3823 C 0.81592 0.82673 0.41806 0.0
C3824 C 0.82869 0.822 0.43229 0.0
C3825 C 0.79173 0.83437 0.39088 0.0
C3826 C 0.8044 0.82356 0.38475 0.0
C3827 C 0.81601 0.81942 0.39847 0.0
C3828 C 0.80695 0.8185 0.36413 0.0
C3829 C 0.77842 0.83846 0.37676 0.0
C3830 C 0.80153 0.79952 0.35378 0.0
C3831 C 0.80248 0.79564 0.33388 0.0
C3832 C 0.8088 0.81075 0.32416 0.0
C3833 C 0.81482 0.82949 0.33477 0.0
C3834 C 0.81417 0.83327 0.35452 0.0
H3835 H 0.76766 0.84408 0.38389 0.0
H3836 H 0.78517 0.84939 0.36881 0.0
H3837 H 0.77249 0.82516 0.36621 0.0
H3838 H 0.79583 0.78791 0.36092 0.0
H3839 H 0.79717 0.78118 0.32598 0.0
H3840 H 0.43515 0.55209 0.83802 0.0
H3841 H 0.4513 0.54653 0.86666 0.0
H3842 H 0.49866 0.58315 0.85408 0.0
H3843 H 0.48277 0.58797 0.82502 0.0
H3844 H 0.48504 0.53094 0.87095 0.0
H3845 H 0.49368 0.60514 0.91243 0.0
H3846 H 0.47691 0.59568 0.89261 0.0
H3847 H 0.49963 0.60296 0.88825 0.0
C3848 C 0.44899 0.55908 0.84127 0.0
C3849 C 0.45732 0.57067 0.82872 0.0
C3850 C 0.45839 0.5558 0.85787 0.0
C3851 C 0.47653 0.56444 0.86331 0.0
C3852 C 0.4848 0.5762 0.85088 0.0
H3853 H 0.55231 0.56024 0.9651 0.0
H3854 H 0.54011 0.56585 0.93419 0.0
C3855 C 0.47556 0.57898 0.83396 0.0
C3856 C 0.48667 0.56105 0.88159 0.0
H3857 H 0.50697 0.58357 0.92658 0.0
C3858 C 0.48971 0.54257 0.88303 0.0
C3859 C 0.4934 0.57591 0.89781 0.0
C3860 C 0.49073 0.59606 0.89794 0.0
C3861 C 0.49887 0.53871 0.89956 0.0
C3862 C 0.50516 0.55342 0.91597 0.0
C3863 C 0.50238 0.57199 0.91444 0.0
C3864 C 0.51352 0.54943 0.93492 0.0
C3865 C 0.50219 0.51877 0.8992 0.0
C3866 C 0.5032 0.53826 0.94645 0.0
C3867 C 0.51016 0.53537 0.96439 0.0
C3868 C 0.52811 0.54264 0.97171 0.0
C3869 C 0.53868 0.55354 0.96004 0.0
C3870 C 0.53152 0.557 0.94221 0.0
H3871 H 0.49963 0.5099 0.8846 0.0
H3872 H 0.51609 0.51965 0.90467 0.0
H3873 H 0.49342 0.51137 0.90868 0.0
H3874 H 0.48935 0.53222 0.94187 0.0
H3875 H 0.50115 0.5276 0.9729 0.0
H3876 H 0.81367 0.18039 0.0861 0.0
H3877 H 0.81303 0.19768 0.11861 0.0
H3878 H 0.75604 0.18031 0.11307 0.0
H3879 H 0.75672 0.16306 0.08073 0.0
H3880 H 0.79224 0.22664 0.11437 0.0
H3881 H 0.77083 0.18491 0.17113 0.0
H3882 H 0.78186 0.17537 0.15122 0.0
H3883 H 0.75905 0.17656 0.14779 0.0
C3884 C 0.80118 0.17933 0.09237 0.0
C3885 C 0.78524 0.17074 0.08128 0.0
C3886 C 0.8008 0.18916 0.11081 0.0
C3887 C 0.78448 0.19022 0.11799 0.0
C3888 C 0.76872 0.17936 0.10778 0.0
H3889 H 0.76247 0.26903 0.21389 0.0
H3890 H 0.75632 0.2485 0.18222 0.0
C3891 C 0.7691 0.16962 0.08936 0.0
C3892 C 0.78353 0.20645 0.13286 0.0
H3893 H 0.77214 0.21847 0.17777 0.0
C3894 C 0.78792 0.22494 0.12831 0.0
C3895 C 0.77721 0.20388 0.15052 0.0
C3896 C 0.77203 0.18413 0.1556 0.0
C3897 C 0.7867 0.24121 0.1414 0.0
C3898 C 0.78127 0.23879 0.1595 0.0
C3899 C 0.77618 0.22019 0.16375 0.0
C3900 C 0.78343 0.25519 0.17525 0.0
C3901 C 0.79144 0.2608 0.13581 0.0
C3902 C 0.80047 0.26635 0.18118 0.0
C3903 C 0.8039 0.27817 0.19901 0.0
C3904 C 0.79043 0.27867 0.21118 0.0
C3905 C 0.77304 0.26883 0.2046 0.0
C3906 C 0.76953 0.25715 0.18662 0.0
H3907 H 0.78873 0.25972 0.12017 0.0
H3908 H 0.784 0.27097 0.14335 0.0
H3909 H 0.8058 0.26686 0.13954 0.0
H3910 H 0.81147 0.26455 0.17286 0.0
H3911 H 0.81741 0.28512 0.20389 0.0
H3912 H 0.17404 0.57627 0.29768 0.0
H3913 H 0.15942 0.57886 0.32704 0.0
H3914 H 0.17174 0.52526 0.33681 0.0
H3915 H 0.18706 0.52305 0.30763 0.0
H3916 H 0.13037 0.54636 0.32512 0.0
H3917 H 0.17674 0.56025 0.39106 0.0
H3918 H 0.18369 0.56754 0.36915 0.0
H3919 H 0.17968 0.54257 0.37109 0.0
C3920 C 0.17438 0.56561 0.30663 0.0
C3921 C 0.18158 0.54954 0.30077 0.0
C3922 C 0.16606 0.56707 0.32329 0.0
C3923 C 0.16464 0.55224 0.33388 0.0
C3924 C 0.17311 0.53696 0.32888 0.0
H3925 H 0.07808 0.52953 0.40485 0.0
H3926 H 0.10232 0.52442 0.38524 0.0
C3927 C 0.1818 0.53572 0.31234 0.0
C3928 C 0.15144 0.55099 0.34757 0.0
H3929 H 0.14613 0.55616 0.39498 0.0
C3930 C 0.13374 0.54832 0.34039 0.0
C3931 C 0.15612 0.55337 0.3673 0.0
C3932 C 0.17509 0.55619 0.37524 0.0
C3933 C 0.1205 0.54884 0.35269 0.0
C3934 C 0.12525 0.55188 0.37245 0.0
C3935 C 0.14281 0.55378 0.37967 0.0
C3936 C 0.11214 0.55485 0.38569 0.0
C3937 C 0.10165 0.54694 0.34466 0.0
C3938 C 0.10994 0.57361 0.39201 0.0
C3939 C 0.09604 0.57652 0.40275 0.0
C3940 C 0.08441 0.56064 0.40724 0.0
C3941 C 0.08688 0.54187 0.4012 0.0
C3942 C 0.10071 0.53897 0.39033 0.0
H3943 H 0.10025 0.5447 0.32882 0.0
H3944 H 0.09293 0.53459 0.34923 0.0
H3945 H 0.09693 0.56015 0.35038 0.0
H3946 H 0.11875 0.5859 0.38827 0.0
H3947 H 0.09451 0.5911 0.40779 0.0
H3948 H 0.77537 0.86431 0.57735 0.0
H3949 H 0.7688 0.85167 0.60683 0.0
H3950 H 0.82463 0.8588 0.62214 0.0
H3951 H 0.83116 0.87091 0.59267 0.0
H3952 H 0.78242 0.81716 0.61682 0.0
H3953 H 0.80293 0.88449 0.67107 0.0
H3954 H 0.79611 0.88448 0.64643 0.0
H3955 H 0.81778 0.88102 0.65293 0.0
C3956 C 0.7862 0.86362 0.58729 0.0
C3957 C 0.80379 0.86883 0.58292 0.0
C3958 C 0.78244 0.85625 0.604 0.0
C3959 C 0.79625 0.85439 0.61671 0.0
C3960 C 0.8138 0.86026 0.61263 0.0
H3961 H 0.8063 0.78477 0.70243 0.0
H3962 H 0.80573 0.79837 0.67322 0.0
C3963 C 0.81751 0.86724 0.59585 0.0
C3964 C 0.79257 0.84541 0.63376 0.0
H3965 H 0.79891 0.85497 0.68246 0.0
C3966 C 0.7858 0.82542 0.63119 0.0
C3967 C 0.79693 0.85621 0.65248 0.0
C3968 C 0.80373 0.87778 0.65602 0.0
C3969 C 0.7838 0.81589 0.64687 0.0
C3970 C 0.78891 0.82661 0.6656 0.0
C3971 C 0.7951 0.8467 0.66814 0.0
C3972 C 0.78833 0.81735 0.68279 0.0
C3973 C 0.77618 0.79445 0.64324 0.0
C3974 C 0.77911 0.82375 0.69813 0.0
C3975 C 0.7798 0.81633 0.71499 0.0
C3976 C 0.78951 0.80216 0.71674 0.0
C3977 C 0.7984 0.79539 0.70127 0.0
C3978 C 0.79801 0.8031 0.68454 0.0
H3979 H 0.76865 0.78941 0.62896 0.0
H3980 H 0.78711 0.78667 0.64372 0.0
H3981 H 0.76732 0.79049 0.6543 0.0
H3982 H 0.7716 0.83476 0.69718 0.0
H3983 H 0.77285 0.82178 0.72675 0.0
H3984 H 0.79345 0.48548 0.53107 0.0
H3985 H 0.76847 0.50139 0.53469 0.0
H3986 H 0.73215 0.44689 0.51353 0.0
H3987 H 0.75677 0.43083 0.51029 0.0
H3988 H 0.74326 0.50076 0.50371 0.0
H3989 H 0.71262 0.46849 0.56274 0.0
H3990 H 0.73513 0.46827 0.55765 0.0
H3991 H 0.71704 0.45144 0.54317 0.0
C3992 C 0.78011 0.4769 0.52752 0.0
C3993 C 0.77692 0.457 0.52047 0.0
C3994 C 0.76597 0.48596 0.52954 0.0
C3995 C 0.74869 0.47512 0.52453 0.0
C3996 C 0.74549 0.45526 0.51777 0.0
H3997 H 0.64761 0.50593 0.53048 0.0
H3998 H 0.67037 0.48876 0.51974 0.0
C3999 C 0.75954 0.44619 0.5159 0.0
C4000 C 0.73392 0.48466 0.52537 0.0
H4001 H 0.69628 0.48662 0.54692 0.0
C4002 C 0.73296 0.49778 0.51316 0.0
C4003 C 0.72059 0.4803 0.53755 0.0
C4004 C 0.72141 0.46647 0.55114 0.0
C4005 C 0.71879 0.50694 0.51289 0.0
C4006 C 0.70563 0.50288 0.52535 0.0
C4007 C 0.70644 0.48945 0.53728 0.0
C4008 C 0.69183 0.51383 0.52787 0.0
C4009 C 0.71801 0.52082 0.4994 0.0
C4010 C 0.69659 0.53355 0.5356 0.0
C4011 C 0.6837 0.54342 0.54159 0.0
C4012 C 0.66599 0.53354 0.54011 0.0
C4013 C 0.66118 0.51392 0.53158 0.0
C4014 C 0.67409 0.5041 0.52547 0.0
H4015 H 0.72581 0.51784 0.48707 0.0
H4016 H 0.70415 0.5201 0.49395 0.0
H4017 H 0.72371 0.53573 0.5071 0.0
H4018 H 0.71035 0.54108 0.53793 0.0
H4019 H 0.68761 0.55859 0.54792 0.0
H4020 H 0.22731 0.18607 0.51019 0.0
H4021 H 0.19939 0.1635 0.51053 0.0
H4022 H 0.22363 0.11595 0.49028 0.0
H4023 H 0.25208 0.13869 0.49083 0.0
H4024 H 0.17816 0.14062 0.48394 0.0
H4025 H 0.19923 0.09447 0.53157 0.0
H4026 H 0.21342 0.11663 0.52832 0.0
H4027 H 0.21123 0.0949 0.51084 0.0
C4028 C 0.22681 0.1708 0.50588 0.0
C4029 C 0.24207 0.16429 0.50046 0.0
C4030 C 0.21072 0.15782 0.50608 0.0
C4031 C 0.20916 0.1378 0.50067 0.0
C4032 C 0.22437 0.13119 0.49508 0.0
H4033 H 0.11288 0.04391 0.4913 0.0
H4034 H 0.14272 0.06219 0.48812 0.0
C4035 C 0.24068 0.14425 0.49523 0.0
C4036 C 0.19143 0.1243 0.50037 0.0
H4037 H 0.16983 0.08454 0.51687 0.0
C4038 C 0.17645 0.12838 0.49118 0.0
C4039 C 0.18889 0.10816 0.50973 0.0
C4040 C 0.204 0.10335 0.52083 0.0
C4041 C 0.15929 0.1171 0.49117 0.0
C4042 C 0.15673 0.10111 0.50065 0.0
C4043 C 0.17169 0.09668 0.50948 0.0
C4044 C 0.13856 0.08966 0.50249 0.0
C4045 C 0.144 0.12245 0.4809 0.0
C4046 C 0.1262 0.09879 0.51177 0.0
C4047 C 0.1092 0.08841 0.51361 0.0
C4048 C 0.10388 0.06842 0.50629 0.0
C4049 C 0.1163 0.05922 0.49702 0.0
C4050 C 0.13346 0.06968 0.49526 0.0
H4051 H 0.14848 0.13103 0.46983 0.0
H4052 H 0.13396 0.10942 0.474 0.0
H4053 H 0.13757 0.1314 0.49136 0.0
H4054 H 0.12977 0.11404 0.51784 0.0
H4055 H 0.10024 0.09617 0.52098 0.0
H4056 H 0.18899 0.95515 0.79522 0.0
H4057 H 0.20582 0.92975 0.79544 0.0
H4058 H 0.21973 0.93544 0.73882 0.0
H4059 H 0.20451 0.9621 0.73962 0.0
H4060 H 0.20817 0.89749 0.78421 0.0
H4061 H 0.26571 0.92905 0.74902 0.0
H4062 H 0.24946 0.94269 0.7563 0.0
H4063 H 0.24553 0.92529 0.73417 0.0
C4064 C 0.19577 0.95121 0.78279 0.0
C4065 C 0.19511 0.96145 0.76747 0.0
C4066 C 0.20565 0.93627 0.78286 0.0
C4067 C 0.21535 0.93005 0.76744 0.0
C4068 C 0.21388 0.9398 0.75175 0.0
H4069 H 0.27981 0.83468 0.74594 0.0
H4070 H 0.2632 0.86016 0.74264 0.0
C4071 C 0.20456 0.95523 0.75198 0.0
C4072 C 0.22625 0.9135 0.76785 0.0
H4073 H 0.2638 0.89722 0.75353 0.0
C4074 C 0.22043 0.89794 0.77756 0.0
C4075 C 0.24252 0.91259 0.75919 0.0
C4076 C 0.25128 0.92836 0.74924 0.0
C4077 C 0.22959 0.88251 0.77872 0.0
C4078 C 0.2459 0.88179 0.77028 0.0
C4079 C 0.2516 0.89704 0.76026 0.0
C4080 C 0.25715 0.86593 0.7721 0.0
C4081 C 0.22102 0.86659 0.78864 0.0
C4082 C 0.26059 0.8601 0.78973 0.0
C4083 C 0.27016 0.84538 0.79159 0.0
C4084 C 0.2775 0.83544 0.77614 0.0
C4085 C 0.27479 0.84163 0.75849 0.0
C4086 C 0.265 0.85645 0.75658 0.0
H4087 H 0.20645 0.86518 0.7881 0.0
H4088 H 0.22371 0.85246 0.78213 0.0
H4089 H 0.22623 0.87007 0.8039 0.0
H4090 H 0.25587 0.86704 0.80247 0.0
H4091 H 0.27171 0.84159 0.80555 0.0
H4092 H 0.38433 0.92768 0.02976 0.0
H4093 H 0.41359 0.94883 0.03199 0.0
H4094 H 0.38978 0.99479 0.01872 0.0
H4095 H 0.36051 0.97396 0.01673 0.0
H4096 H 0.41949 0.9617 0.99551 0.0
H4097 H 0.43314 0.02158 0.05874 0.0
H4098 H 0.41828 0.99873 0.05881 0.0
H4099 H 0.41148 0.01577 0.04597 0.0
C4100 C 0.38535 0.94246 0.02786 0.0
C4101 C 0.37036 0.94913 0.02261 0.0
C4102 C 0.40195 0.9545 0.02932 0.0
C4103 C 0.40355 0.97314 0.02546 0.0
C4104 C 0.38857 0.98044 0.02199 0.0
H4105 H 0.49978 0.05175 0.01654 0.0
H4106 H 0.46839 0.03739 0.00854 0.0
C4107 C 0.37194 0.96849 0.02071 0.0
C4108 C 0.42051 0.98317 0.02084 0.0
H4109 H 0.45383 0.02217 0.03595 0.0
C4110 C 0.42707 0.97499 0.00424 0.0
C4111 C 0.4298 1.00062 0.03211 0.0
C4112 C 0.42294 0.00973 0.04998 0.0
C4113 C 0.44328 0.98364 0.99885 0.0
C4114 C 0.45306 1.00065 0.01061 0.0
C4115 C 0.44609 0.00922 0.02682 0.0
C4116 C 0.47159 0.0082 0.00845 0.0
C4117 C 0.44985 0.97432 0.98089 0.0
C4118 C 0.48366 0.99633 0.01005 0.0
C4119 C 0.50152 1.00452 0.01426 0.0
C4120 C 0.50724 0.02453 0.01707 0.0
C4121 C 0.4954 0.03629 0.01448 0.0
C4122 C 0.47761 0.02809 0.00967 0.0
H4123 H 0.43864 0.9667 0.97014 0.0
H4124 H 0.45879 0.98511 0.9745 0.0
H4125 H 0.45718 0.96342 0.98433 0.0
H4126 H 0.47919 0.98103 0.00981 0.0
H4127 H 0.51066 0.99542 0.01665 0.0
H4128 H 0.88112 0.56526 0.77107 0.0
H4129 H 0.86485 0.59012 0.76702 0.0
H4130 H 0.89355 0.62672 0.81816 0.0
H4131 H 0.91042 0.60204 0.82189 0.0
H4132 H 0.84375 0.60496 0.79384 0.0
H4133 H 0.89911 0.66088 0.7772 0.0
H4134 H 0.90081 0.63611 0.77608 0.0
H4135 H 0.90191 0.65161 0.79879 0.0
C4136 C 0.88404 0.5787 0.7813 0.0
C4137 C 0.89691 0.58203 0.7967 0.0
C4138 C 0.87477 0.59275 0.77904 0.0
C4139 C 0.87815 0.61003 0.79236 0.0
C4140 C 0.89107 0.61345 0.80773 0.0
H4141 H 0.80522 0.68311 0.76973 0.0
H4142 H 0.82389 0.66871 0.7892 0.0
C4143 C 0.90062 0.59949 0.80979 0.0
C4144 C 0.86786 0.62425 0.78983 0.0
H4145 H 0.87032 0.66577 0.77267 0.0
C4146 C 0.84947 0.61856 0.78971 0.0
C4147 C 0.87569 0.64173 0.78439 0.0
C4148 C 0.89545 0.648 0.78398 0.0
C4149 C 0.83845 0.6293 0.78271 0.0
C4150 C 0.84626 0.64624 0.7763 0.0
C4151 C 0.86464 0.65273 0.77783 0.0
C4152 C 0.83568 0.65558 0.76512 0.0
C4153 C 0.81867 0.62169 0.78062 0.0
C4154 C 0.8365 0.65279 0.74535 0.0
C4155 C 0.82617 0.66115 0.73425 0.0
C4156 C 0.81487 0.67224 0.74287 0.0
C4157 C 0.81404 0.67484 0.76277 0.0
C4158 C 0.82453 0.66662 0.77388 0.0
H4159 H 0.81487 0.60774 0.78559 0.0
H4160 H 0.81222 0.63234 0.78899 0.0
H4161 H 0.81347 0.61963 0.76542 0.0
H4162 H 0.8451 0.64411 0.73854 0.0
H4163 H 0.82721 0.65916 0.71901 0.0
H4164 H 0.85956 0.69115 0.0062 0.0
H4165 H 0.88552 0.67673 0.00806 0.0
H4166 H 0.85273 0.62523 0.02073 0.0
H4167 H 0.82676 0.63933 0.01856 0.0
H4168 H 0.90077 0.66329 0.03759 0.0
H4169 H 0.87737 0.60361 0.97606 0.0
H4170 H 0.86747 0.62436 0.98051 0.0
H4171 H 0.86141 0.60478 0.99321 0.0
C4172 C 0.85789 0.67676 0.00942 0.0
C4173 C 0.84106 0.66635 0.01219 0.0
C4174 C 0.87274 0.66855 0.01044 0.0
C4175 C 0.87101 0.64976 0.01415 0.0
C4176 C 0.85431 0.63956 0.01737 0.0
H4177 H 0.92666 0.5674 0.03918 0.0
H4178 H 0.90672 0.5873 0.03067 0.0
C4179 C 0.83949 0.6477 0.01629 0.0
C4180 C 0.8866 0.64078 0.01498 0.0
H4181 H 0.90074 0.59991 0.99754 0.0
C4182 C 0.90095 0.64958 0.02865 0.0
C4183 C 0.88692 0.62303 0.0031 0.0
C4184 C 0.87255 0.61349 0.98726 0.0
C4185 C 0.91499 0.64044 0.03166 0.0
C4186 C 0.91474 0.62213 0.02051 0.0
C4187 C 0.90087 0.61388 0.00615 0.0
C4188 C 0.9274 0.61018 0.02492 0.0
C4189 C 0.92946 0.64995 0.0474 0.0
C4190 C 0.94573 0.6162 0.02413 0.0
C4191 C 0.9573 0.60485 0.02927 0.0
C4192 C 0.95066 0.5873 0.03522 0.0
C4193 C 0.93225 0.58102 0.03511 0.0
C4194 C 0.9208 0.59234 0.03012 0.0
H4195 H 0.9261 0.66242 0.05677 0.0
H4196 H 0.93213 0.63945 0.05633 0.0
H4197 H 0.94182 0.65528 0.04101 0.0
H4198 H 0.95108 0.62972 0.01973 0.0
H4199 H 0.97141 0.61007 0.02916 0.0
H4200 H 0.21646 0.06932 0.7952 0.0
H4201 H 0.23507 0.10176 0.79577 0.0
H4202 H 0.19427 0.11482 0.76001 0.0
H4203 H 0.17563 0.08325 0.76025 0.0
H4204 H 0.2511 0.12335 0.77262 0.0
H4205 H 0.19978 0.16175 0.79805 0.0
H4206 H 0.19711 0.13614 0.79688 0.0
H4207 H 0.19226 0.14566 0.77584 0.0
C4208 C 0.21148 0.07904 0.78734 0.0
C4209 C 0.19423 0.07326 0.77775 0.0
C4210 C 0.22219 0.09787 0.78773 0.0
C4211 C 0.21618 0.11174 0.77852 0.0
C4212 C 0.19936 0.10538 0.76812 0.0
H4213 H 0.25222 0.23444 0.76635 0.0
H4214 H 0.23692 0.20133 0.76604 0.0
C4215 C 0.18863 0.08689 0.76801 0.0
C4216 C 0.2272 0.13254 0.77957 0.0
H4217 H 0.22452 0.1805 0.78702 0.0
C4218 C 0.2452 0.13579 0.77589 0.0
C4219 C 0.22003 0.1494 0.78377 0.0
C4220 C 0.2013 0.14812 0.78904 0.0
C4221 C 0.25569 0.15458 0.77556 0.0
C4222 C 0.24849 0.17148 0.77968 0.0
C4223 C 0.23053 0.16816 0.78365 0.0
C4224 C 0.25883 0.19243 0.77956 0.0
C4225 C 0.27425 0.15575 0.76988 0.0
C4226 C 0.27669 0.1998 0.78732 0.0
C4227 C 0.28591 0.21898 0.78676 0.0
C4228 C 0.27759 0.23217 0.7791 0.0
C4229 C 0.25955 0.2251 0.77213 0.0
C4230 C 0.25055 0.2058 0.77212 0.0
H4231 H 0.27573 0.1419 0.76126 0.0
H4232 H 0.27809 0.1673 0.76146 0.0
H4233 H 0.28357 0.15874 0.78294 0.0
H4234 H 0.28367 0.19087 0.79421 0.0
H4235 H 0.29955 0.22358 0.79275 0.0
H4236 H 0.38188 0.99894 0.3188 0.0
H4237 H 0.35784 0.97024 0.31475 0.0
H4238 H 0.38937 0.93742 0.28042 0.0
H4239 H 0.41364 0.96598 0.2848 0.0
H4240 H 0.34012 0.94448 0.27867 0.0
H4241 H 0.37717 0.9103 0.327 0.0
H4242 H 0.38265 0.93588 0.32672 0.0
H4243 H 0.38956 0.9191 0.30861 0.0
C4244 C 0.38364 0.98551 0.31049 0.0
C4245 C 0.39957 0.98426 0.30244 0.0
C4246 C 0.36994 0.96934 0.30809 0.0
C4247 C 0.37211 0.95197 0.2975 0.0
C4248 C 0.38778 0.95083 0.28889 0.0
H4249 H 0.34141 0.84014 0.25607 0.0
H4250 H 0.35216 0.87459 0.26764 0.0
C4251 C 0.40159 0.96693 0.29154 0.0
C4252 C 0.35849 0.93456 0.2963 0.0
H4253 H 0.35336 0.88948 0.30592 0.0
C4254 C 0.34264 0.93247 0.28493 0.0
C4255 C 0.36194 0.91938 0.30496 0.0
C4256 C 0.37869 0.92129 0.31766 0.0
C4257 C 0.33086 0.91453 0.28025 0.0
C4258 C 0.33524 0.89884 0.28744 0.0
C4259 C 0.35011 0.90165 0.30052 0.0
C4260 C 0.3274 0.87897 0.27843 0.0
C4261 C 0.31474 0.91204 0.26646 0.0
C4262 C 0.30967 0.87051 0.27973 0.0
C4263 C 0.30339 0.85093 0.2724 0.0
C4264 C 0.31513 0.8399 0.26481 0.0
C4265 C 0.33244 0.84858 0.26247 0.0
C4266 C 0.33853 0.86809 0.26911 0.0
H4267 H 0.31412 0.92546 0.261 0.0
H4268 H 0.31464 0.9003 0.25415 0.0
H4269 H 0.30265 0.9079 0.27375 0.0
H4270 H 0.30098 0.87878 0.28693 0.0
H4271 H 0.28974 0.84427 0.27348 0.0
H4272 H 0.60053 0.35756 0.57594 0.0
H4273 H 0.5958 0.38513 0.5615 0.0
H4274 H 0.55925 0.39698 0.60292 0.0
H4275 H 0.56491 0.37061 0.61801 0.0
H4276 H 0.57008 0.39587 0.54406 0.0
H4277 H 0.5881 0.44925 0.61086 0.0
H4278 H 0.59148 0.42504 0.60915 0.0
H4279 H 0.57016 0.43031 0.61383 0.0
C4280 C 0.59175 0.36631 0.58218 0.0
C4281 C 0.58358 0.36213 0.59862 0.0
C4282 C 0.58892 0.38208 0.5738 0.0
C4283 C 0.57759 0.39395 0.58139 0.0
C4284 C 0.56877 0.38899 0.59718 0.0
H4285 H 0.54058 0.49665 0.56536 0.0
H4286 H 0.5453 0.46614 0.57274 0.0
C4287 C 0.57196 0.37369 0.60583 0.0
C4288 C 0.57486 0.41138 0.57306 0.0
H4289 H 0.57255 0.45885 0.58586 0.0
C4290 C 0.5707 0.40966 0.55323 0.0
C4291 C 0.57592 0.42974 0.58468 0.0
C4292 C 0.58185 0.43376 0.60575 0.0
C4293 C 0.56666 0.42516 0.54505 0.0
C4294 C 0.5669 0.44325 0.55691 0.0
C4295 C 0.57178 0.44508 0.57657 0.0
C4296 C 0.5618 0.46044 0.54985 0.0
C4297 C 0.56165 0.42162 0.52383 0.0
C4298 C 0.56873 0.46765 0.53392 0.0
C4299 C 0.56506 0.48481 0.52901 0.0
C4300 C 0.55477 0.49558 0.54016 0.0
C4301 C 0.54786 0.48836 0.55592 0.0
C4302 C 0.55093 0.47096 0.5604 0.0
H4303 H 0.55697 0.40599 0.51787 0.0
H4304 H 0.55113 0.42921 0.52033 0.0
H4305 H 0.57348 0.42698 0.51662 0.0
H4306 H 0.57774 0.46066 0.5258 0.0
H4307 H 0.57136 0.49039 0.51733 0.0
H4308 H 0.48252 0.79596 0.3913 0.0
H4309 H 0.45675 0.79804 0.37077 0.0
H4310 H 0.42735 0.74567 0.38538 0.0
H4311 H 0.45262 0.74465 0.40708 0.0
H4312 H 0.43848 0.781 0.34107 0.0
H4313 H 0.3901 0.77314 0.3946 0.0
H4314 H 0.41333 0.77539 0.4008 0.0
H4315 H 0.39944 0.75227 0.39008 0.0
C4316 C 0.47058 0.78481 0.39 0.0
C4317 C 0.46979 0.77005 0.40079 0.0
C4318 C 0.45568 0.78602 0.37825 0.0
C4319 C 0.43946 0.77238 0.37665 0.0
C4320 C 0.43909 0.75704 0.38675 0.0
H4321 H 0.33839 0.75388 0.3035 0.0
H4322 H 0.364 0.75013 0.32351 0.0
C4323 C 0.4538 0.75618 0.39894 0.0
C4324 C 0.42327 0.77411 0.3643 0.0
H4325 H 0.37818 0.77072 0.36262 0.0
C4326 C 0.42539 0.77888 0.34603 0.0
C4327 C 0.40581 0.77147 0.3703 0.0
C4328 C 0.40206 0.768 0.39008 0.0
C4329 C 0.41098 0.78077 0.33385 0.0
C4330 C 0.39361 0.77777 0.33975 0.0
C4331 C 0.39136 0.7729 0.35786 0.0
C4332 C 0.37778 0.78004 0.3275 0.0
C4333 C 0.41444 0.78574 0.31453 0.0
C4334 C 0.37656 0.79811 0.32308 0.0
C4335 C 0.36175 0.80031 0.31189 0.0
C4336 C 0.34777 0.78446 0.30448 0.0
C4337 C 0.34896 0.76636 0.3088 0.0
C4338 C 0.36364 0.76423 0.32032 0.0
H4339 H 0.42752 0.78342 0.3103 0.0
H4340 H 0.40399 0.77698 0.30343 0.0
H4341 H 0.41426 0.80117 0.31495 0.0
H4342 H 0.38702 0.81066 0.32849 0.0
H4343 H 0.36129 0.81447 0.30893 0.0
H4344 H 0.07395 0.75718 0.05584 0.0
H4345 H 0.06878 0.72225 0.04525 0.0
H4346 H 0.07418 0.71503 0.10391 0.0
H4347 H 0.07833 0.74998 0.11455 0.0
H4348 H 0.08791 0.69784 0.04645 0.0
H4349 H 0.03179 0.67416 0.08719 0.0
H4350 H 0.0396 0.69916 0.08574 0.0
H4351 H 0.05014 0.68848 0.10309 0.0
C4352 C 0.07365 0.74811 0.06654 0.0
C4353 C 0.07632 0.75646 0.08611 0.0
C4354 C 0.0708 0.72805 0.06042 0.0
C4355 C 0.07076 0.71561 0.07366 0.0
C4356 C 0.07347 0.72398 0.09327 0.0
H4357 H 0.06853 0.59588 0.07517 0.0
H4358 H 0.07264 0.63097 0.08043 0.0
C4359 C 0.07592 0.74407 0.09941 0.0
C4360 C 0.06864 0.69415 0.06691 0.0
H4361 H 0.04746 0.65001 0.07498 0.0
C4362 C 0.07893 0.68742 0.05262 0.0
C4363 C 0.05669 0.68024 0.07448 0.0
C4364 C 0.04379 0.68588 0.08829 0.0
C4365 C 0.07831 0.66751 0.04656 0.0
C4366 C 0.06712 0.65374 0.05502 0.0
C4367 C 0.05636 0.66044 0.06872 0.0
C4368 C 0.06681 0.63245 0.05079 0.0
C4369 C 0.09005 0.66149 0.03157 0.0
C4370 C 0.06271 0.62129 0.03222 0.0
C4371 C 0.06077 0.60106 0.02913 0.0
C4372 C 0.0626 0.59154 0.04459 0.0
C4373 C 0.06721 0.60278 0.06296 0.0
C4374 C 0.06942 0.62288 0.06599 0.0
H4375 H 0.10079 0.67372 0.02984 0.0
H4376 H 0.09607 0.64964 0.03512 0.0
H4377 H 0.08198 0.65618 0.01763 0.0
H4378 H 0.06019 0.62805 0.02022 0.0
H4379 H 0.0568 0.59281 0.01485 0.0
H4380 H 0.08213 0.30216 0.92008 0.0
H4381 H 0.10968 0.30458 0.90453 0.0
H4382 H 0.09036 0.24697 0.87229 0.0
H4383 H 0.0622 0.24539 0.88652 0.0
H4384 H 0.13592 0.2897 0.90268 0.0
H4385 H 0.1043 0.26931 0.82862 0.0
H4386 H 0.0916 0.27321 0.84867 0.0
H4387 H 0.0979 0.25039 0.84177 0.0
C4388 C 0.08373 0.29006 0.90955 0.0
C4389 C 0.06981 0.27369 0.90434 0.0
C4390 C 0.09959 0.29142 0.90063 0.0
C4391 C 0.10224 0.27625 0.88652 0.0
C4392 C 0.08863 0.2594 0.88223 0.0
H4393 H 0.18965 0.26341 0.81398 0.0
H4394 H 0.16494 0.25702 0.83386 0.0
C4395 C 0.07251 0.25835 0.89061 0.0
C4396 C 0.11911 0.27816 0.87647 0.0
H4397 H 0.13516 0.27153 0.83247 0.0
C4398 C 0.1356 0.28578 0.8873 0.0
C4399 C 0.11917 0.27313 0.8563 0.0
C4400 C 0.10229 0.26626 0.84317 0.0
C4401 C 0.15177 0.28836 0.87875 0.0
C4402 C 0.15175 0.28321 0.85866 0.0
C4403 C 0.13537 0.27535 0.84786 0.0
C4404 C 0.16831 0.28664 0.84836 0.0
C4405 C 0.16879 0.29638 0.89144 0.0
C4406 C 0.17884 0.30533 0.84991 0.0
C4407 C 0.19301 0.30894 0.83859 0.0
C4408 C 0.19721 0.29398 0.82542 0.0
C4409 C 0.18712 0.27516 0.82433 0.0
C4410 C 0.17283 0.27156 0.83558 0.0
H4411 H 0.16728 0.2939 0.90627 0.0
H4412 H 0.1797 0.28984 0.88588 0.0
H4413 H 0.17259 0.31219 0.89202 0.0
H4414 H 0.17556 0.31739 0.85919 0.0
H4415 H 0.20018 0.32368 0.83943 0.0
H4416 H 0.58136 0.7896 0.94873 0.0
H4417 H 0.57593 0.75848 0.95841 0.0
H4418 H 0.59754 0.73388 0.90804 0.0
H4419 H 0.60327 0.7654 0.89801 0.0
H4420 H 0.55436 0.72306 0.93441 0.0
H4421 H 0.62393 0.72064 0.95669 0.0
H4422 H 0.61764 0.74309 0.95474 0.0
H4423 H 0.61865 0.72613 0.93358 0.0
C4424 C 0.58517 0.77772 0.9397 0.0
C4425 C 0.59282 0.77997 0.92262 0.0
C4426 C 0.58195 0.75993 0.94525 0.0
C4427 C 0.58636 0.74411 0.93388 0.0
C4428 C 0.59415 0.74614 0.91691 0.0
H4429 H 0.55502 0.63476 0.97366 0.0
H4430 H 0.5663 0.65659 0.95226 0.0
C4431 C 0.59737 0.76406 0.91126 0.0
C4432 C 0.58238 0.72558 0.94017 0.0
H4433 H 0.60113 0.698 0.96604 0.0
C4434 C 0.56454 0.71713 0.94081 0.0
C4435 C 0.59583 0.71834 0.94871 0.0
C4436 C 0.61513 0.72746 0.94854 0.0
C4437 C 0.55973 0.70214 0.95084 0.0
C4438 C 0.57315 0.69556 0.96021 0.0
C4439 C 0.591 0.7032 0.95865 0.0
C4440 C 0.56867 0.6824 0.97348 0.0
C4441 C 0.5404 0.69429 0.95251 0.0
C4442 C 0.56665 0.68997 0.99241 0.0
C4443 C 0.56039 0.67765 0.00473 0.0
C4444 C 0.55597 0.65763 0.99818 0.0
C4445 C 0.5585 0.65012 0.97922 0.0
C4446 C 0.56489 0.66248 0.96696 0.0
H4447 H 0.5316 0.6998 0.94299 0.0
H4448 H 0.53735 0.67828 0.94897 0.0
H4449 H 0.53741 0.69849 0.96748 0.0
H4450 H 0.56949 0.70543 0.99748 0.0
H4451 H 0.55887 0.6838 0.01931 0.0
H4452 H 0.07168 0.80017 0.669 0.0
H4453 H 0.09948 0.79729 0.68553 0.0
H4454 H 0.07734 0.7372 0.68547 0.0
H4455 H 0.04967 0.74011 0.66899 0.0
H4456 H 0.10542 0.78457 0.72075 0.0
H4457 H 0.12295 0.73706 0.65818 0.0
H4458 H 0.10583 0.75048 0.65639 0.0
H4459 H 0.10157 0.7286 0.66589 0.0
C4460 C 0.07289 0.78645 0.67261 0.0
C4461 C 0.05894 0.7703 0.66771 0.0
C4462 C 0.08861 0.7848 0.68201 0.0
C4463 C 0.09043 0.76695 0.68629 0.0
C4464 C 0.0762 0.75097 0.68192 0.0
H4465 H 0.17174 0.72548 0.74161 0.0
H4466 H 0.14555 0.72914 0.72301 0.0
C4467 C 0.06049 0.75265 0.67265 0.0
C4468 C 0.10736 0.76494 0.69503 0.0
H4469 H 0.14133 0.74199 0.68714 0.0
C4470 C 0.11337 0.77539 0.71341 0.0
C4471 C 0.11752 0.75286 0.68529 0.0
C4472 C 0.11175 0.74172 0.66528 0.0
C4473 C 0.12929 0.77381 0.72254 0.0
C4474 C 0.13946 0.76176 0.71279 0.0
C4475 C 0.13346 0.75132 0.6944 0.0
C4476 C 0.15597 0.75915 0.72195 0.0
C4477 C 0.13488 0.78463 0.7427 0.0
C4478 C 0.17056 0.77469 0.72684 0.0
C4479 C 0.18544 0.77267 0.73752 0.0
C4480 C 0.18584 0.75506 0.74335 0.0
C4481 C 0.17155 0.73927 0.73755 0.0
C4482 C 0.15671 0.74129 0.72685 0.0
H4483 H 0.1238 0.78986 0.74954 0.0
H4484 H 0.14 0.77535 0.75162 0.0
H4485 H 0.14566 0.79733 0.74247 0.0
H4486 H 0.17019 0.7885 0.72291 0.0
H4487 H 0.1963 0.78507 0.74184 0.0
H4488 H 0.07452 0.36586 0.39782 0.0
H4489 H 0.07025 0.39582 0.41671 0.0
H4490 H 0.12678 0.41513 0.42943 0.0
H4491 H 0.13098 0.38463 0.41079 0.0
H4492 H 0.09075 0.40515 0.45952 0.0
H4493 H 0.09892 0.46037 0.41254 0.0
H4494 H 0.09016 0.43507 0.40315 0.0
H4495 H 0.1132 0.44334 0.41109 0.0
C4496 C 0.08596 0.37667 0.40423 0.0
C4497 C 0.10298 0.3732 0.40308 0.0
C4498 C 0.08355 0.3937 0.41492 0.0
C4499 C 0.09825 0.40734 0.42429 0.0
C4500 C 0.1154 0.40455 0.42207 0.0
H4501 H 0.09934 0.51204 0.50387 0.0
H4502 H 0.10924 0.48382 0.48732 0.0
C4503 C 0.11777 0.38735 0.41147 0.0
C4504 C 0.09546 0.42322 0.43831 0.0
H4505 H 0.09262 0.47016 0.44416 0.0
C4506 C 0.09134 0.41947 0.45637 0.0
C4507 C 0.09608 0.44152 0.43369 0.0
C4508 C 0.09977 0.44548 0.41406 0.0
C4509 C 0.08761 0.43391 0.47013 0.0
C4510 C 0.08825 0.45222 0.46549 0.0
C4511 C 0.09258 0.45602 0.44753 0.0
C4512 C 0.08266 0.46722 0.47826 0.0
C4513 C 0.08259 0.42955 0.4893 0.0
C4514 C 0.06456 0.46662 0.4786 0.0
C4515 C 0.05899 0.48264 0.48757 0.0
C4516 C 0.07152 0.49918 0.49621 0.0
C4517 C 0.08962 0.49933 0.49695 0.0
C4518 C 0.09522 0.48336 0.48773 0.0
H4519 H 0.08514 0.41544 0.4916 0.0
H4520 H 0.09004 0.4411 0.50095 0.0
H4521 H 0.06829 0.42921 0.49023 0.0
H4522 H 0.05484 0.45413 0.47119 0.0
H4523 H 0.04496 0.48216 0.48757 0.0
H4524 H 0.44871 0.27694 0.16541 0.0
H4525 H 0.42217 0.27457 0.18225 0.0
H4526 H 0.44612 0.24819 0.22394 0.0
H4527 H 0.47319 0.25115 0.2074 0.0
H4528 H 0.3993 0.24377 0.19246 0.0
H4529 H 0.43543 0.29634 0.25578 0.0
H4530 H 0.44508 0.29205 0.23347 0.0
H4531 H 0.44356 0.27476 0.24907 0.0
C4532 C 0.44832 0.2706 0.17815 0.0
C4533 C 0.46302 0.2646 0.18545 0.0
C4534 C 0.43315 0.26915 0.18765 0.0
C4535 C 0.43245 0.26152 0.20443 0.0
C4536 C 0.44672 0.25452 0.2112 0.0
H4537 H 0.35146 0.26821 0.28294 0.0
H4538 H 0.37906 0.26455 0.26898 0.0
C4539 C 0.46209 0.25625 0.20184 0.0
C4540 C 0.41717 0.26236 0.21537 0.0
H4541 H 0.40476 0.28638 0.25585 0.0
C4542 C 0.40042 0.25285 0.20645 0.0
C4543 C 0.41889 0.27429 0.23353 0.0
C4544 C 0.43667 0.28507 0.24353 0.0
C4545 C 0.38514 0.25521 0.21513 0.0
C4546 C 0.38684 0.26788 0.23294 0.0
C4547 C 0.40362 0.27684 0.24214 0.0
C4548 C 0.37134 0.27224 0.24214 0.0
C4549 C 0.36746 0.2441 0.20508 0.0
C4550 C 0.3584 0.27855 0.23195 0.0
C4551 C 0.34254 0.2798 0.23956 0.0
C4552 C 0.34008 0.27637 0.25803 0.0
C4553 C 0.35348 0.27144 0.26884 0.0
C4554 C 0.3691 0.26932 0.26088 0.0
H4555 H 0.36878 0.2307 0.1955 0.0
H4556 H 0.35778 0.24012 0.21539 0.0
H4557 H 0.36209 0.25311 0.19604 0.0
H4558 H 0.36016 0.28148 0.21771 0.0
H4559 H 0.3319 0.28253 0.23065 0.0
H4560 H 0.66925 0.50865 0.34141 0.0
H4561 H 0.65342 0.51092 0.37035 0.0
H4562 H 0.60966 0.52348 0.3387 0.0
H4563 H 0.62514 0.52032 0.30973 0.0
H4564 H 0.6429 0.53472 0.39421 0.0
H4565 H 0.57856 0.48848 0.36359 0.0
H4566 H 0.59763 0.49041 0.35018 0.0
H4567 H 0.58439 0.50844 0.35158 0.0
C4568 C 0.6562 0.51179 0.34045 0.0
C4569 C 0.64878 0.51416 0.32259 0.0
C4570 C 0.64694 0.51314 0.35733 0.0
C4571 C 0.62963 0.51695 0.35754 0.0
C4572 C 0.62244 0.51973 0.3397 0.0
H4573 H 0.55408 0.53489 0.44901 0.0
H4574 H 0.56877 0.53128 0.41926 0.0
C4575 C 0.6316 0.51817 0.32279 0.0
C4576 C 0.6197 0.51861 0.37624 0.0
H4577 H 0.57907 0.50693 0.39456 0.0
C4578 C 0.62895 0.52841 0.39403 0.0
C4579 C 0.60126 0.51071 0.37709 0.0
C4580 C 0.58991 0.49876 0.35965 0.0
C4581 C 0.62075 0.5309 0.41162 0.0
C4582 C 0.60232 0.52303 0.4125 0.0
C4583 C 0.59303 0.51322 0.39471 0.0
C4584 C 0.59264 0.5248 0.43137 0.0
C4585 C 0.63216 0.54281 0.42904 0.0
C4586 C 0.60017 0.52197 0.449 0.0
C4587 C 0.59178 0.5244 0.46633 0.0
C4588 C 0.57494 0.52922 0.46722 0.0
C4589 C 0.56693 0.53122 0.44948 0.0
C4590 C 0.57552 0.52912 0.43214 0.0
H4591 H 0.64351 0.55307 0.42508 0.0
H4592 H 0.62452 0.55119 0.43857 0.0
H4593 H 0.63771 0.5331 0.43705 0.0
H4594 H 0.61272 0.51766 0.44955 0.0
H4595 H 0.59861 0.52233 0.47921 0.0
H4596 H 0.32195 0.93216 0.07068 0.0
H4597 H 0.32536 0.92571 0.10322 0.0
H4598 H 0.30857 0.8646 0.08134 0.0
H4599 H 0.30524 0.87083 0.04894 0.0
H4600 H 0.2973 0.89986 0.12279 0.0
H4601 H 0.36006 0.87546 0.11109 0.0
H4602 H 0.35276 0.89253 0.09829 0.0
H4603 H 0.34317 0.8672 0.09145 0.0
C4604 C 0.31852 0.9174 0.07295 0.0
C4605 C 0.31321 0.90191 0.05748 0.0
C4606 C 0.32064 0.9138 0.0914 0.0
C4607 C 0.31739 0.89475 0.09432 0.0
C4608 C 0.31129 0.87938 0.07906 0.0
H4609 H 0.31808 0.81357 0.1602 0.0
H4610 H 0.30924 0.83411 0.13903 0.0
C4611 C 0.30929 0.88293 0.06069 0.0
C4612 C 0.32044 0.89036 0.1132 0.0
H4613 H 0.34342 0.86373 0.13555 0.0
C4614 C 0.30764 0.89244 0.12601 0.0
C4615 C 0.33404 0.88083 0.11703 0.0
C4616 C 0.34841 0.87898 0.10383 0.0
C4617 C 0.30721 0.88358 0.142 0.0
C4618 C 0.31988 0.87264 0.14487 0.0
C4619 C 0.33355 0.87195 0.1329 0.0
C4620 C 0.31887 0.86065 0.15944 0.0
C4621 C 0.29266 0.88476 0.15498 0.0
C4622 C 0.32619 0.86893 0.17805 0.0
C4623 C 0.33119 0.85726 0.19007 0.0
C4624 C 0.32888 0.83741 0.18336 0.0
C4625 C 0.31975 0.8289 0.16553 0.0
C4626 C 0.31472 0.84056 0.15353 0.0
H4627 H 0.28385 0.89403 0.15078 0.0
H4628 H 0.28463 0.87005 0.1547 0.0
H4629 H 0.29851 0.89063 0.16988 0.0
H4630 H 0.32963 0.88447 0.18257 0.0
H4631 H 0.33835 0.86388 0.20384 0.0
H4632 H 0.92039 0.55757 0.86961 0.0
H4633 H 0.93813 0.55767 0.89927 0.0
H4634 H 0.96552 0.51747 0.86841 0.0
H4635 H 0.94841 0.51765 0.83908 0.0
H4636 H 0.95269 0.5225 0.91681 0.0
H4637 H 0.99772 0.57746 0.88529 0.0
H4638 H 0.97403 0.57182 0.8796 0.0
H4639 H 0.98704 0.55533 0.8696 0.0
C4640 C 0.92969 0.54819 0.86945 0.0
C4641 C 0.93343 0.5379 0.85227 0.0
C4642 C 0.93968 0.54822 0.88625 0.0
C4643 C 0.953 0.53768 0.88559 0.0
C4644 C 0.95516 0.52559 0.86888 0.0
H4645 H 0.04606 0.53614 0.95435 0.0
H4646 H 0.02478 0.53412 0.92692 0.0
C4647 C 0.94549 0.52583 0.85217 0.0
C4648 C 0.96707 0.54227 0.90079 0.0
H4649 H 0.0095 0.56752 0.91213 0.0
C4650 C 0.96506 0.53247 0.91604 0.0
C4651 C 0.9831 0.55507 0.89913 0.0
C4652 C 0.98567 0.56564 0.88258 0.0
C4653 C 0.97906 0.53514 0.92998 0.0
C4654 C 0.99504 0.54801 0.92832 0.0
C4655 C 0.99705 0.55774 0.91305 0.0
C4656 C 0.00956 0.55225 0.94298 0.0
C4657 C 0.97684 0.52415 0.94624 0.0
C4658 C 0.00824 0.56407 0.96022 0.0
C4659 C 0.02036 0.56544 0.97557 0.0
C4660 C 0.03373 0.55505 0.97353 0.0
C4661 C 0.03604 0.54466 0.9558 0.0
C4662 C 0.02384 0.54326 0.94037 0.0
H4663 H 0.96461 0.51258 0.94372 0.0
H4664 H 0.9884 0.51758 0.94841 0.0
H4665 H 0.97613 0.53427 0.95961 0.0
H4666 H 0.99717 0.57106 0.96213 0.0
H4667 H 0.01838 0.57317 0.98942 0.0
H4668 H 0.32765 0.21763 0.56332 0.0
H4669 H 0.33249 0.23106 0.59791 0.0
H4670 H 0.27814 0.23647 0.59774 0.0
H4671 H 0.27339 0.22357 0.56348 0.0
H4672 H 0.32326 0.27027 0.61745 0.0
H4673 H 0.2883 0.20378 0.6405 0.0
H4674 H 0.29805 0.20335 0.61805 0.0
H4675 H 0.27731 0.2105 0.62063 0.0
C4676 C 0.31674 0.22151 0.57079 0.0
C4677 C 0.30012 0.21951 0.56081 0.0
C4678 C 0.31955 0.22931 0.59044 0.0
C4679 C 0.30566 0.23477 0.60034 0.0
C4680 C 0.28903 0.23238 0.59038 0.0
H4681 H 0.27564 0.27174 0.71018 0.0
H4682 H 0.27867 0.2639 0.67667 0.0
C4683 C 0.28632 0.22497 0.57084 0.0
C4684 C 0.30807 0.2428 0.62113 0.0
H4685 H 0.29353 0.23286 0.66333 0.0
C4686 C 0.31705 0.26205 0.62761 0.0
C4687 C 0.29985 0.23207 0.63427 0.0
C4688 C 0.29043 0.21122 0.62812 0.0
C4689 C 0.31734 0.27108 0.64681 0.0
C4690 C 0.30857 0.26049 0.6598 0.0
C4691 C 0.30014 0.24105 0.65337 0.0
C4692 C 0.30721 0.26921 0.67999 0.0
C4693 C 0.3263 0.29208 0.65285 0.0
C4694 C 0.32219 0.27602 0.6932 0.0
C4695 C 0.32027 0.28085 0.71276 0.0
C4696 C 0.3034 0.27842 0.71967 0.0
C4697 C 0.28868 0.27333 0.70608 0.0
C4698 C 0.29048 0.26878 0.68658 0.0
H4699 H 0.32935 0.29917 0.64041 0.0
H4700 H 0.31787 0.29999 0.66177 0.0
H4701 H 0.33892 0.29327 0.66156 0.0
H4702 H 0.33531 0.27653 0.68859 0.0
H4703 H 0.33208 0.28543 0.72249 0.0
H4704 H 0.66571 0.52701 0.20782 0.0
H4705 H 0.65215 0.53078 0.17694 0.0
H4706 H 0.60241 0.49742 0.18809 0.0
H4707 H 0.61575 0.49419 0.2189 0.0
H4708 H 0.63693 0.51087 0.14367 0.0
H4709 H 0.58211 0.5395 0.17521 0.0
H4710 H 0.60009 0.53533 0.18988 0.0
H4711 H 0.58211 0.51561 0.17919 0.0
C4712 C 0.65203 0.51988 0.2035 0.0
C4713 C 0.64225 0.50964 0.21619 0.0
C4714 C 0.64403 0.52234 0.18568 0.0
C4715 C 0.62573 0.51503 0.17964 0.0
C4716 C 0.61624 0.50407 0.19197 0.0
H4717 H 0.55346 0.52276 0.0768 0.0
H4718 H 0.5654 0.51696 0.10769 0.0
C4719 C 0.62416 0.50172 0.20971 0.0
C4720 C 0.61674 0.51875 0.16079 0.0
H4721 H 0.58061 0.53316 0.14143 0.0
C4722 C 0.62468 0.51589 0.14345 0.0
C4723 C 0.60038 0.52503 0.15948 0.0
C4724 C 0.59073 0.52922 0.17694 0.0
C4725 C 0.61704 0.51868 0.12561 0.0
C4726 C 0.60098 0.52555 0.12437 0.0
C4727 C 0.59287 0.52815 0.14166 0.0
C4728 C 0.5928 0.53027 0.10558 0.0
C4729 C 0.62615 0.51324 0.10802 0.0
C4730 C 0.60343 0.54053 0.09357 0.0
C4731 C 0.59658 0.54357 0.07569 0.0
C4732 C 0.57844 0.53752 0.06891 0.0
C4733 C 0.56741 0.52821 0.0813 0.0
C4734 C 0.57441 0.5247 0.09917 0.0
H4735 H 0.63356 0.50188 0.10974 0.0
H4736 H 0.61657 0.50785 0.09515 0.0
H4737 H 0.63587 0.52606 0.1057 0.0
H4738 H 0.61738 0.54612 0.09783 0.0
H4739 H 0.60578 0.55056 0.06684 0.0
H4740 H 0.30462 0.92552 0.94605 0.0
H4741 H 0.30935 0.90574 0.916 0.0
H4742 H 0.35032 0.88616 0.94558 0.0
H4743 H 0.34526 0.90529 0.97548 0.0
H4744 H 0.33998 0.89775 0.89436 0.0
H4745 H 0.30648 0.83945 0.93067 0.0
H4746 H 0.30681 0.86459 0.93911 0.0
H4747 H 0.3261 0.85518 0.94351 0.0
C4748 C 0.31507 0.91757 0.94586 0.0
C4749 C 0.32442 0.91651 0.96284 0.0
C4750 C 0.31777 0.90636 0.92882 0.0
C4751 C 0.32998 0.89443 0.9289 0.0
C4752 C 0.34076 0.89524 0.94548 0.0
H4753 H 0.33945 0.80351 0.83468 0.0
H4754 H 0.34625 0.82591 0.86558 0.0
C4755 C 0.33783 0.90608 0.96248 0.0
C4756 C 0.32906 0.87863 0.91289 0.0
H4757 H 0.3142 0.82999 0.89972 0.0
C4758 C 0.3346 0.8829 0.8955 0.0
C4759 C 0.32172 0.8594 0.91465 0.0
C4760 C 0.31479 0.8543 0.93292 0.0
C4761 C 0.33281 0.86822 0.87955 0.0
C4762 C 0.32538 0.84909 0.88135 0.0
C4763 C 0.32016 0.84477 0.89877 0.0
C4764 C 0.3208 0.83381 0.86465 0.0
C4765 C 0.3381 0.8732 0.86068 0.0
C4766 C 0.30407 0.83061 0.85477 0.0
C4767 C 0.30013 0.81774 0.83757 0.0
C4768 C 0.31288 0.80799 0.83029 0.0
C4769 C 0.32935 0.81055 0.84058 0.0
C4770 C 0.33327 0.82338 0.85793 0.0
H4771 H 0.34508 0.88852 0.8621 0.0
H4772 H 0.34682 0.8638 0.85444 0.0
H4773 H 0.32609 0.87051 0.85053 0.0
H4774 H 0.29447 0.83883 0.85987 0.0
H4775 H 0.28772 0.81662 0.82928 0.0
H4776 H 0.96461 0.51975 0.75346 0.0
H4777 H 0.96872 0.5194 0.71998 0.0
H4778 H 0.92811 0.5518 0.71526 0.0
H4779 H 0.92385 0.55243 0.74907 0.0
H4780 H 0.94212 0.5067 0.68589 0.0
H4781 H 0.97645 0.5845 0.70185 0.0
H4782 H 0.973 0.57092 0.72087 0.0
H4783 H 0.9545 0.57682 0.70881 0.0
C4784 C 0.95656 0.52687 0.7454 0.0
C4785 C 0.94418 0.53644 0.75395 0.0
C4786 C 0.95875 0.52641 0.72625 0.0
C4787 C 0.94862 0.53552 0.71541 0.0
C4788 C 0.93592 0.54469 0.72361 0.0
H4789 H 0.99536 0.52182 0.60748 0.0
H4790 H 0.97244 0.53 0.6273 0.0
C4791 C 0.93367 0.54514 0.74287 0.0
C4792 C 0.95319 0.53689 0.69613 0.0
H4793 H 0.98462 0.56483 0.67556 0.0
C4794 C 0.95076 0.51957 0.683 0.0
C4795 C 0.96451 0.55378 0.69284 0.0
C4796 C 0.96736 0.57263 0.70677 0.0
C4797 C 0.96118 0.51812 0.66776 0.0
C4798 C 0.97385 0.53454 0.66568 0.0
C4799 C 0.97479 0.55238 0.67746 0.0
C4800 C 0.98824 0.53247 0.65384 0.0
C4801 C 0.96009 0.49865 0.65537 0.0
C4802 C 1.00464 0.53155 0.66252 0.0
C4803 C 0.01786 0.52708 0.65133 0.0
C4804 C 0.01469 0.52351 0.63142 0.0
C4805 C 0.99826 0.52482 0.62285 0.0
C4806 C 0.98515 0.52944 0.63403 0.0
H4807 H 0.94963 0.48724 0.65917 0.0
H4808 H 0.95726 0.49949 0.64017 0.0
H4809 H 0.97299 0.49433 0.65682 0.0
H4810 H 0.007 0.53374 0.67793 0.0
H4811 H 0.03046 0.52632 0.65818 0.0
H4812 H 0.30191 0.23499 0.47326 0.0
H4813 H 0.30525 0.24954 0.44468 0.0
H4814 H 0.30122 0.19331 0.41024 0.0
H4815 H 0.29787 0.17861 0.43874 0.0
H4816 H 0.33128 0.2478 0.41757 0.0
H4817 H 0.26289 0.21577 0.38461 0.0
H4818 H 0.26939 0.21702 0.40955 0.0
H4819 H 0.27447 0.19854 0.3918 0.0
C4820 C 0.30155 0.22567 0.45957 0.0
C4821 C 0.29937 0.20558 0.45822 0.0
C4822 C 0.30359 0.23405 0.44329 0.0
C4823 C 0.30329 0.22249 0.42533 0.0
C4824 C 0.30123 0.20246 0.42394 0.0
H4825 H 0.30625 0.23562 0.30798 0.0
H4826 H 0.30694 0.22474 0.33862 0.0
C4827 C 0.2993 0.19407 0.44023 0.0
C4828 C 0.30494 0.23123 0.40795 0.0
H4829 H 0.28311 0.23029 0.36485 0.0
C4830 C 0.32075 0.24407 0.40605 0.0
C4831 C 0.29109 0.22656 0.39309 0.0
C4832 C 0.27343 0.21387 0.39487 0.0
C4833 C 0.32332 0.25169 0.38926 0.0
C4834 C 0.30965 0.24641 0.37412 0.0
C4835 C 0.2937 0.23404 0.37632 0.0
C4836 C 0.31143 0.25338 0.35577 0.0
C4837 C 0.34078 0.26487 0.38765 0.0
C4838 C 0.31388 0.2731 0.35523 0.0
C4839 C 0.31358 0.27933 0.33773 0.0
C4840 C 0.31072 0.266 0.32042 0.0
C4841 C 0.30863 0.24629 0.32103 0.0
C4842 C 0.309 0.24005 0.33853 0.0
H4843 H 0.35127 0.26371 0.39837 0.0
H4844 H 0.34522 0.26157 0.37317 0.0
H4845 H 0.3392 0.28003 0.39016 0.0
H4846 H 0.31523 0.28362 0.3683 0.0
H4847 H 0.31457 0.29448 0.3379 0.0
H4848 H 0.32373 0.61219 0.5533 0.0
H4849 H 0.3503 0.59845 0.55387 0.0
H4850 H 0.36622 0.62297 0.50468 0.0
H4851 H 0.34057 0.63753 0.50485 0.0
H4852 H 0.36034 0.57322 0.52754 0.0
H4853 H 0.41085 0.64128 0.53887 0.0
H4854 H 0.38788 0.6408 0.54229 0.0
H4855 H 0.39546 0.63994 0.51879 0.0
C4856 C 0.33318 0.61485 0.54293 0.0
C4857 C 0.33064 0.6263 0.52944 0.0
C4858 C 0.34823 0.60705 0.54323 0.0
C4859 C 0.3605 0.61042 0.5298 0.0
C4860 C 0.35738 0.62109 0.51577 0.0
H4861 H 0.43774 0.56629 0.473 0.0
H4862 H 0.41633 0.58407 0.48694 0.0
C4863 C 0.34272 0.62928 0.51581 0.0
C4864 C 0.37614 0.60191 0.52944 0.0
H4865 H 0.42011 0.61251 0.52352 0.0
C4866 C 0.37352 0.5818 0.5272 0.0
C4867 C 0.39326 0.61325 0.52906 0.0
C4868 C 0.39703 0.63503 0.53259 0.0
C4869 C 0.38743 0.57257 0.52316 0.0
C4870 C 0.40424 0.58387 0.52147 0.0
C4871 C 0.4071 0.60401 0.52479 0.0
C4872 C 0.41839 0.57487 0.51417 0.0
C4873 C 0.38388 0.55081 0.51964 0.0
C4874 C 0.42676 0.56434 0.52517 0.0
C4875 C 0.43889 0.5542 0.51724 0.0
C4876 C 0.44259 0.55442 0.49822 0.0
C4877 C 0.43467 0.56557 0.48752 0.0
C4878 C 0.42267 0.57583 0.4955 0.0
H4879 H 0.36955 0.54419 0.51892 0.0
H4880 H 0.38904 0.54522 0.50611 0.0
H4881 H 0.39084 0.54613 0.53142 0.0
H4882 H 0.42361 0.56366 0.53968 0.0
H4883 H 0.44507 0.54582 0.52578 0.0
H4884 H 0.87537 0.90699 0.55853 0.0
H4885 H 0.90404 0.92939 0.5604 0.0
H4886 H 0.88342 0.95574 0.5166 0.0
H4887 H 0.85438 0.93414 0.51579 0.0
H4888 H 0.92697 0.93298 0.53696 0.0
H4889 H 0.90821 1.00372 0.54969 0.0
H4890 H 0.89282 0.98171 0.55117 0.0
H4891 H 0.89655 0.98864 0.52835 0.0
C4892 C 0.87685 0.91794 0.54968 0.0
C4893 C 0.8625 0.91901 0.53727 0.0
C4894 C 0.89335 0.93071 0.55063 0.0
C4895 C 0.89617 0.94471 0.53887 0.0
C4896 C 0.88172 0.94574 0.52642 0.0
H4897 H 0.99009 0.02209 0.51078 0.0
H4898 H 0.96034 1.00313 0.51298 0.0
C4899 C 0.86504 0.93328 0.52586 0.0
C4900 C 0.91443 0.95723 0.53893 0.0
H4901 H 0.9372 1.00367 0.54013 0.0
C4902 C 0.92912 0.94847 0.53786 0.0
C4903 C 0.91761 0.97756 0.54006 0.0
C4904 C 0.90298 0.98847 0.54258 0.0
C4905 C 0.94651 0.95914 0.53748 0.0
C4906 C 0.94963 0.97939 0.53831 0.0
C4907 C 0.93499 0.9882 0.53942 0.0
C4908 C 0.96781 0.99161 0.5376 0.0
C4909 C 0.96133 0.94843 0.53564 0.0
C4910 C 0.9821 0.992 0.55091 0.0
C4911 C 0.99915 1.0029 0.54964 0.0
C4912 C 1.00231 0.01392 0.53521 0.0
C4913 C 0.98801 0.01393 0.5222 0.0
C4914 C 0.97099 1.00301 0.52343 0.0
H4915 H 0.9563 0.9328 0.52993 0.0
H4916 H 0.97102 0.95442 0.52616 0.0
H4917 H 0.96836 0.94984 0.54996 0.0
H4918 H 0.98011 0.98378 0.56227 0.0
H4919 H 0.00995 1.00247 0.55974 0.0
H4920 H 0.93135 0.14189 0.27077 0.0
H4921 H 0.91576 0.16842 0.26941 0.0
H4922 H 0.8683 0.13327 0.28349 0.0
H4923 H 0.88358 0.10651 0.28398 0.0
H4924 H 0.88113 0.16872 0.24516 0.0
H4925 H 0.8739 0.18742 0.32234 0.0
H4926 H 0.8913 0.17597 0.31356 0.0
H4927 H 0.86907 0.16216 0.31171 0.0
C4928 C 0.91759 0.13961 0.27362 0.0
C4929 C 0.90911 0.12133 0.27746 0.0
C4930 C 0.90847 0.15511 0.27281 0.0
C4931 C 0.89041 0.15371 0.27647 0.0
C4932 C 0.88206 0.13557 0.28065 0.0
H4933 H 0.81631 0.23947 0.28886 0.0
H4934 H 0.83176 0.21305 0.29161 0.0
C4935 C 0.891 0.1199 0.28087 0.0
C4936 C 0.88027 0.17056 0.27534 0.0
H4937 H 0.85976 0.20348 0.30207 0.0
C4938 C 0.87659 0.17626 0.25775 0.0
C4939 C 0.87371 0.18095 0.29134 0.0
C4940 C 0.87719 0.17655 0.31091 0.0
C4941 C 0.86668 0.19087 0.25563 0.0
C4942 C 0.86036 0.20171 0.2717 0.0
C4943 C 0.86414 0.19595 0.28938 0.0
C4944 C 0.8502 0.21871 0.2704 0.0
C4945 C 0.86242 0.19361 0.23554 0.0
C4946 C 0.85481 0.23219 0.25812 0.0
C4947 C 0.84533 0.24692 0.25595 0.0
C4948 C 0.83081 0.25024 0.26645 0.0
C4949 C 0.82674 0.23765 0.27977 0.0
C4950 C 0.83598 0.2223 0.28151 0.0
H4951 H 0.862 0.18022 0.22502 0.0
H4952 H 0.84948 0.19773 0.23383 0.0
H4953 H 0.873 0.20499 0.23194 0.0
H4954 H 0.86612 0.23166 0.25005 0.0
H4955 H 0.84978 0.25611 0.24586 0.0
H4956 H 0.7414 0.10176 0.00456 0.0
H4957 H 0.71233 0.08067 0.00561 0.0
H4958 H 0.69343 0.12973 0.03344 0.0
H4959 H 0.72192 0.15077 0.03188 0.0
H4960 H 0.69325 0.07521 0.03881 0.0
H4961 H 0.65815 0.10656 0.9863 0.0
H4962 H 0.68195 0.10995 0.98884 0.0
H4963 H 0.67099 0.12459 0.00508 0.0
C4964 C 0.7309 0.10793 0.01069 0.0
C4965 C 0.73357 0.12779 0.01778 0.0
C4966 C 0.71449 0.09596 0.01138 0.0
C4967 C 0.70093 0.10387 0.01936 0.0
C4968 C 0.70377 0.12359 0.02686 0.0
H4969 H 0.59676 0.08647 0.03737 0.0
H4970 H 0.62861 0.09318 0.04589 0.0
C4971 C 0.71994 0.13555 0.02587 0.0
C4972 C 0.68351 0.09184 0.01979 0.0
H4973 H 0.64032 0.08973 0.00701 0.0
C4974 C 0.6816 0.07802 0.03165 0.0
C4975 C 0.66858 0.09568 0.01025 0.0
C4976 C 0.67003 0.10988 0.99675 0.0
C4977 C 0.66475 0.06869 0.03518 0.0
C4978 C 0.64994 0.07361 0.02666 0.0
C4979 C 0.65193 0.08651 0.01389 0.0
C4980 C 0.6319 0.0658 0.03031 0.0
C4981 C 0.66277 0.05441 0.04848 0.0
C4982 C 0.62339 0.04773 0.01985 0.0
C4983 C 0.60524 0.04388 0.01513 0.0
C4984 C 0.59571 0.05799 0.02115 0.0
C4985 C 0.60398 0.07529 0.03311 0.0
C4986 C 0.62204 0.07902 0.03808 0.0
H4987 H 0.67575 0.05264 0.05446 0.0
H4988 H 0.65521 0.05927 0.06041 0.0
H4989 H 0.65513 0.04016 0.04077 0.0
H4990 H 0.63095 0.03766 0.01335 0.0
H4991 H 0.59899 0.03063 0.0055 0.0
H4992 H 0.20727 0.49016 0.20855 0.0
H4993 H 0.2224 0.46353 0.21149 0.0
H4994 H 0.22359 0.47776 0.27291 0.0
H4995 H 0.20824 0.50343 0.26999 0.0
H4996 H 0.25546 0.46808 0.2326 0.0
H4997 H 0.20285 0.42011 0.26197 0.0
H4998 H 0.19835 0.43827 0.24885 0.0
H4999 H 0.20616 0.44473 0.27382 0.0
C5000 C 0.21067 0.48722 0.22252 0.0
C5001 C 0.20647 0.49815 0.23905 0.0
C5002 C 0.21912 0.47217 0.22419 0.0
C5003 C 0.2233 0.46841 0.24236 0.0
C5004 C 0.21967 0.47999 0.25879 0.0
H5005 H 0.28396 0.42124 0.31326 0.0
H5006 H 0.26346 0.43688 0.29746 0.0
C5007 C 0.21111 0.49466 0.25712 0.0
C5008 C 0.23297 0.45364 0.2449 0.0
H5009 H 0.23323 0.41878 0.27151 0.0
C5010 C 0.25054 0.4568 0.24052 0.0
C5011 C 0.22633 0.43931 0.25548 0.0
C5012 C 0.20732 0.43531 0.26014 0.0
C5013 C 0.26224 0.44698 0.24793 0.0
C5014 C 0.25584 0.43344 0.25946 0.0
C5015 C 0.23796 0.42934 0.26275 0.0
C5016 C 0.26777 0.42401 0.26888 0.0
C5017 C 0.28153 0.4521 0.24446 0.0
C5018 C 0.27678 0.41192 0.25785 0.0
C5019 C 0.28882 0.40369 0.26672 0.0
C5020 C 0.29154 0.40695 0.28675 0.0
C5021 C 0.28237 0.41898 0.29781 0.0
C5022 C 0.2705 0.42755 0.28887 0.0
H5023 H 0.28491 0.46591 0.23914 0.0
H5024 H 0.2902 0.4533 0.25773 0.0
H5025 H 0.28452 0.44056 0.23355 0.0
H5026 H 0.27449 0.40888 0.24242 0.0
H5027 H 0.29571 0.39434 0.25791 0.0
H5028 H 0.27871 0.44679 0.04413 0.0
H5029 H 0.25269 0.4608 0.04129 0.0
H5030 H 0.21899 0.40388 0.02918 0.0
H5031 H 0.24502 0.38966 0.03184 0.0
H5032 H 0.22828 0.45067 0.00609 0.0
H5033 H 0.19501 0.43654 0.071 0.0
H5034 H 0.21829 0.43712 0.06942 0.0
H5035 H 0.20206 0.41683 0.05672 0.0
C5036 C 0.26575 0.43723 0.04123 0.0
C5037 C 0.26395 0.4171 0.03829 0.0
C5038 C 0.2509 0.44527 0.03956 0.0
C5039 C 0.23391 0.43339 0.03521 0.0
C5040 C 0.23196 0.41331 0.03282 0.0
H5041 H 0.13322 0.4679 0.01117 0.0
H5042 H 0.15475 0.44872 0.01879 0.0
C5043 C 0.24686 0.40522 0.03429 0.0
C5044 C 0.21853 0.44206 0.03165 0.0
H5045 H 0.18094 0.45208 0.04999 0.0
C5046 C 0.2179 0.45093 0.01566 0.0
C5047 C 0.20487 0.44209 0.04397 0.0
C5048 C 0.205 0.43274 0.06133 0.0
C5049 C 0.20415 0.46011 0.01181 0.0
C5050 C 0.19091 0.46096 0.02462 0.0
C5051 C 0.19117 0.45153 0.04028 0.0
C5052 C 0.17744 0.47261 0.02242 0.0
C5053 C 0.20392 0.46881 0.994 0.0
C5054 C 0.18295 0.49248 0.02285 0.0
C5055 C 0.17081 0.50331 0.01847 0.0
C5056 C 0.15283 0.49457 0.01381 0.0
C5057 C 0.14703 0.47495 0.01473 0.0
C5058 C 0.1593 0.46401 0.019 0.0
H5059 H 0.21158 0.46207 0.9831 0.0
H5060 H 0.19017 0.46714 0.98761 0.0
H5061 H 0.21006 0.48444 0.9977 0.0
H5062 H 0.19681 0.49951 0.02593 0.0
H5063 H 0.17556 0.51845 0.01807 0.0
H5064 H 0.88759 0.01853 0.27262 0.0
H5065 H 0.86858 0.98598 0.27068 0.0
H5066 H 0.91493 0.962 0.27299 0.0
H5067 H 0.93361 0.99376 0.27526 0.0
H5068 H 0.86225 0.95024 0.24621 0.0
H5069 H 0.89181 0.93878 0.31427 0.0
H5070 H 0.89609 0.96208 0.30729 0.0
H5071 H 0.90818 0.94418 0.2981 0.0
C5072 C 0.8938 1.00639 0.27281 0.0
C5073 C 0.91253 0.00951 0.27437 0.0
C5074 C 0.88279 0.98751 0.27165 0.0
C5075 C 0.88997 0.9709 0.27218 0.0
C5076 C 0.90858 0.97408 0.2732 0.0
H5077 H 0.85449 0.84438 0.2701 0.0
H5078 H 0.87053 0.87754 0.27083 0.0
C5079 C 0.91945 0.99269 0.27436 0.0
C5080 C 0.87851 0.95038 0.27165 0.0
H5081 H 0.8742 0.91088 0.29407 0.0
C5082 C 0.86483 0.94185 0.25689 0.0
C5083 C 0.88151 0.93863 0.28524 0.0
C5084 C 0.89507 0.94642 0.30222 0.0
C5085 C 0.85478 0.92244 0.25511 0.0
C5086 C 0.85784 0.9107 0.26869 0.0
C5087 C 0.87147 0.9193 0.28347 0.0
C5088 C 0.84741 0.88965 0.26778 0.0
C5089 C 0.84141 0.91444 0.23803 0.0
C5090 C 0.82865 0.88437 0.26594 0.0
C5091 C 0.81926 0.86504 0.26553 0.0
C5092 C 0.82808 0.84987 0.26699 0.0
C5093 C 0.84684 0.85519 0.26884 0.0
C5094 C 0.85621 0.87449 0.26933 0.0
H5095 H 0.84427 0.92252 0.22621 0.0
H5096 H 0.84113 0.89898 0.23264 0.0
H5097 H 0.82807 0.91572 0.24219 0.0
H5098 H 0.82108 0.89534 0.26523 0.0
H5099 H 0.80497 0.86209 0.26432 0.0
H5100 H 0.70954 0.10918 0.79416 0.0
H5101 H 0.7339 0.13782 0.79879 0.0
H5102 H 0.74015 0.12721 0.73844 0.0
H5103 H 0.71613 0.09846 0.73384 0.0
H5104 H 0.77393 0.14362 0.7758 0.0
H5105 H 0.71793 0.17983 0.76446 0.0
H5106 H 0.71508 0.15851 0.77505 0.0
H5107 H 0.71728 0.15663 0.74997 0.0
C5108 C 0.71632 0.11303 0.78204 0.0
C5109 C 0.71111 0.10227 0.76367 0.0
C5110 C 0.73032 0.12892 0.78473 0.0
C5111 C 0.73878 0.13403 0.76898 0.0
C5112 C 0.73391 0.1229 0.75071 0.0
H5113 H 0.76997 0.2379 0.73866 0.0
H5114 H 0.7683 0.20349 0.73679 0.0
C5115 C 0.72013 0.10688 0.74807 0.0
C5116 C 0.74975 0.15307 0.77065 0.0
H5117 H 0.74654 0.19772 0.7644 0.0
C5118 C 0.76816 0.15562 0.77339 0.0
C5119 C 0.74176 0.16831 0.76766 0.0
C5120 C 0.72193 0.16582 0.76419 0.0
C5121 C 0.77907 0.17334 0.77223 0.0
C5122 C 0.77102 0.18824 0.7682 0.0
C5123 C 0.75257 0.18587 0.7668 0.0
C5124 C 0.78092 0.20681 0.76539 0.0
C5125 C 0.79888 0.17589 0.77483 0.0
C5126 C 0.79017 0.21978 0.78129 0.0
C5127 C 0.79236 0.2394 0.7816 0.0
C5128 C 0.78464 0.24586 0.76639 0.0
C5129 C 0.77646 0.23301 0.75009 0.0
C5130 C 0.7756 0.2135 0.74909 0.0
H5131 H 0.80292 0.16187 0.77412 0.0
H5132 H 0.80523 0.18346 0.76384 0.0
H5133 H 0.80393 0.18489 0.78904 0.0
H5134 H 0.79388 0.21488 0.79417 0.0
H5135 H 0.79855 0.24943 0.79442 0.0
loop_
_geom_bond_atom_site_label_1
_geom_bond_atom_site_label_2
_geom_bond_distance
_geom_bond_site_symmetry_2
_ccdc_geom_bond_type
Co0 O1 2.216 . S
Co0 O2 2.091 . S
Co0 O4 2.004 . S
Co0 O10 2.021 . S
Co0 O12 2.137 . S
Co0 O13 2.244 . S
O1 Co0 2.216 . S
O1 C8 1.247 . S
O2 Co0 2.091 . S
O2 C8 1.261 . S
C3 O12 1.247 . S
C3 O13 1.272 . S
O4 Co0 2.004 . S
O4 C9 1.259 . S
Co5 O6 2.061 . S
Co5 O11 2.052 . S
Co5 O13 2.135 . S
O6 Co5 2.061 . S
O6 C9 1.235 . S
C7 O10 1.238 . S
C7 O11 1.241 . S
C8 O1 1.247 . S
C8 O2 1.261 . S
C9 O4 1.259 . S
C9 O6 1.235 . S
O10 Co0 2.021 . S
O10 C7 1.238 . S
O11 Co5 2.052 . S
O11 C7 1.241 . S
O12 Co0 2.137 . S
O12 C3 1.247 . S
O13 Co0 2.244 . S
O13 C3 1.272 . S
O13 Co5 2.135 . S
Co14 O15 2.216 . S
Co14 O16 2.091 . S
Co14 O18 2.004 1_655 S
Co14 O24 2.021 . S
Co14 O26 2.137 . S
Co14 O27 2.244 1_655 S
O15 Co14 2.216 . S
O15 C22 1.247 . S
O16 Co14 2.091 . S
O16 C22 1.261 . S
C17 O26 1.247 1_455 S
C17 O27 1.272 . S
O18 Co14 2.004 1_455 S
O18 C23 1.259 . S
Co19 O20 2.061 . S
Co19 O25 2.052 . S
Co19 O27 2.135 . S
O20 Co19 2.061 . S
O20 C23 1.235 . S
C21 O24 1.238 . S
C21 O25 1.241 1_655 S
C22 O15 1.247 . S
C22 O16 1.261 . S
C23 O18 1.259 . S
C23 O20 1.235 . S
O24 Co14 2.021 . S
O24 C21 1.238 . S
O25 Co19 2.052 . S
O25 C21 1.241 1_455 S
O26 Co14 2.137 . S
O26 C17 1.247 1_655 S
O27 Co14 2.244 1_455 S
O27 C17 1.272 . S
O27 Co19 2.135 . S
Co28 O29 2.216 . S
Co28 O30 2.091 . S
Co28 O32 2.004 . S
Co28 O38 2.021 . S
Co28 O40 2.137 . S
Co28 O41 2.244 . S
O29 Co28 2.216 . S
O29 C36 1.247 . S
O30 Co28 2.091 . S
O30 C36 1.261 . S
C31 O40 1.247 . S
C31 O41 1.272 . S
O32 Co28 2.004 . S
O32 C37 1.259 . S
Co33 O34 2.061 . S
Co33 O39 2.052 . S
Co33 O41 2.135 . S
O34 Co33 2.061 . S
O34 C37 1.235 . S
C35 O38 1.238 . S
C35 O39 1.241 . S
C36 O29 1.247 . S
C36 O30 1.261 . S
C37 O32 1.259 . S
C37 O34 1.235 . S
O38 Co28 2.021 . S
O38 C35 1.238 . S
O39 Co33 2.052 . S
O39 C35 1.241 . S
O40 Co28 2.137 . S
O40 C31 1.247 . S
O41 Co28 2.244 . S
O41 C31 1.272 . S
O41 Co33 2.135 . S
Co42 O43 2.216 . S
Co42 O44 2.091 . S
Co42 O46 2.004 . S
Co42 O52 2.021 . S
Co42 O54 2.137 . S
Co42 O55 2.244 . S
O43 Co42 2.216 . S
O43 C50 1.247 . S
O44 Co42 2.091 . S
O44 C50 1.261 . S
C45 O54 1.247 . S
C45 O55 1.272 . S
O46 Co42 2.004 . S
O46 C51 1.259 . S
Co47 O48 2.061 . S
Co47 O53 2.052 . S
Co47 O55 2.135 . S
O48 Co47 2.061 . S
O48 C51 1.235 . S
C49 O52 1.238 . S
C49 O53 1.241 . S
C50 O43 1.247 . S
C50 O44 1.261 . S
C51 O46 1.259 . S
C51 O48 1.235 . S
O52 Co42 2.021 . S
O52 C49 1.238 . S
O53 Co47 2.052 . S
O53 C49 1.241 . S
O54 Co42 2.137 . S
O54 C45 1.247 . S
O55 Co42 2.244 . S
O55 C45 1.272 . S
O55 Co47 2.135 . S
Co56 O57 2.216 . S
Co56 O58 2.091 . S
Co56 O60 2.004 . S
Co56 O66 2.021 . S
Co56 O68 2.137 . S
Co56 O69 2.244 . S
O57 Co56 2.216 . S
O57 C64 1.247 . S
O58 Co56 2.091 . S
O58 C64 1.261 . S
C59 O68 1.247 . S
C59 O69 1.272 . S
O60 Co56 2.004 . S
O60 C65 1.259 . S
Co61 O62 2.061 . S
Co61 O67 2.052 . S
Co61 O69 2.135 . S
O62 Co61 2.061 . S
O62 C65 1.235 . S
C63 O66 1.238 . S
C63 O67 1.241 . S
C64 O57 1.247 . S
C64 O58 1.261 . S
C65 O60 1.259 . S
C65 O62 1.235 . S
O66 Co56 2.021 . S
O66 C63 1.238 . S
O67 Co61 2.052 . S
O67 C63 1.241 . S
O68 Co56 2.137 . S
O68 C59 1.247 . S
O69 Co56 2.244 . S
O69 C59 1.272 . S
O69 Co61 2.135 . S
Co70 O71 2.216 . S
Co70 O72 2.091 . S
Co70 O74 2.004 . S
Co70 O80 2.021 . S
Co70 O82 2.137 . S
Co70 O83 2.244 . S
O71 Co70 2.216 . S
O71 C78 1.247 . S
O72 Co70 2.091 . S
O72 C78 1.261 . S
C73 O82 1.247 . S
C73 O83 1.272 . S
O74 Co70 2.004 . S
O74 C79 1.259 . S
Co75 O76 2.061 . S
Co75 O81 2.052 . S
Co75 O83 2.135 . S
O76 Co75 2.061 . S
O76 C79 1.235 . S
C77 O80 1.238 . S
C77 O81 1.241 . S
C78 O71 1.247 . S
C78 O72 1.261 . S
C79 O74 1.259 . S
C79 O76 1.235 . S
O80 Co70 2.021 . S
O80 C77 1.238 . S
O81 Co75 2.052 . S
O81 C77 1.241 . S
O82 Co70 2.137 . S
O82 C73 1.247 . S
O83 Co70 2.244 . S
O83 C73 1.272 . S
O83 Co75 2.135 . S
Co84 O85 2.216 . S
Co84 O86 2.091 . S
Co84 O88 2.004 . S
Co84 O94 2.021 . S
Co84 O96 2.137 . S
Co84 O97 2.244 . S
O85 Co84 2.216 . S
O85 C92 1.247 . S
O86 Co84 2.091 . S
O86 C92 1.261 . S
C87 O96 1.247 . S
C87 O97 1.272 . S
O88 Co84 2.004 . S
O88 C93 1.259 . S
Co89 O90 2.061 . S
Co89 O95 2.052 . S
Co89 O97 2.135 . S
O90 Co89 2.061 . S
O90 C93 1.235 . S
C91 O94 1.238 . S
C91 O95 1.241 . S
C92 O85 1.247 . S
C92 O86 1.261 . S
C93 O88 1.259 . S
C93 O90 1.235 . S
O94 Co84 2.021 . S
O94 C91 1.238 . S
O95 Co89 2.052 . S
O95 C91 1.241 . S
O96 Co84 2.137 . S
O96 C87 1.247 . S
O97 Co84 2.244 . S
O97 C87 1.272 . S
O97 Co89 2.135 . S
Co98 O99 2.216 . S
Co98 O100 2.091 . S
Co98 O102 2.004 1_455 S
Co98 O108 2.021 . S
Co98 O110 2.137 . S
Co98 O111 2.244 . S
O99 Co98 2.216 . S
O99 C106 1.247 . S
O100 Co98 2.091 . S
O100 C106 1.261 . S
C101 O110 1.247 . S
C101 O111 1.272 . S
O102 Co98 2.004 1_655 S
O102 C107 1.259 . S
Co103 O104 2.061 . S
Co103 O109 2.052 1_655 S
Co103 O111 2.135 1_655 S
O104 Co103 2.061 . S
O104 C107 1.235 . S
C105 O108 1.238 . S
C105 O109 1.241 . S
C106 O99 1.247 . S
C106 O100 1.261 . S
C107 O102 1.259 . S
C107 O104 1.235 . S
O108 Co98 2.021 . S
O108 C105 1.238 . S
O109 Co103 2.052 1_455 S
O109 C105 1.241 . S
O110 Co98 2.137 . S
O110 C101 1.247 . S
O111 Co98 2.244 . S
O111 C101 1.272 . S
O111 Co103 2.135 1_455 S
Co112 O113 2.216 . S
Co112 O114 2.091 . S
Co112 O116 2.004 . S
Co112 O122 2.021 . S
Co112 O124 2.137 . S
Co112 O125 2.244 . S
O113 Co112 2.216 . S
O113 C120 1.247 . S
O114 Co112 2.091 . S
O114 C120 1.261 . S
C115 O124 1.247 . S
C115 O125 1.272 . S
O116 Co112 2.004 . S
O116 C121 1.259 1_545 S
Co117 O118 2.061 1_545 S
Co117 O123 2.052 . S
Co117 O125 2.135 . S
O118 Co117 2.061 1_565 S
O118 C121 1.235 . S
C119 O122 1.238 . S
C119 O123 1.241 . S
C120 O113 1.247 . S
C120 O114 1.261 . S
C121 O116 1.259 1_565 S
C121 O118 1.235 . S
O122 Co112 2.021 . S
O122 C119 1.238 . S
O123 Co117 2.052 . S
O123 C119 1.241 . S
O124 Co112 2.137 . S
O124 C115 1.247 . S
O125 Co112 2.244 . S
O125 C115 1.272 . S
O125 Co117 2.135 . S
Co126 O127 2.216 . S
Co126 O128 2.091 . S
Co126 O130 2.004 . S
Co126 O136 2.021 . S
Co126 O138 2.137 . S
Co126 O139 2.244 . S
O127 Co126 2.216 . S
O127 C134 1.247 . S
O128 Co126 2.091 . S
O128 C134 1.261 . S
C129 O138 1.247 . S
C129 O139 1.272 . S
O130 Co126 2.004 . S
O130 C135 1.259 . S
Co131 O132 2.061 . S
Co131 O137 2.052 . S
Co131 O139 2.135 . S
O132 Co131 2.061 . S
O132 C135 1.235 . S
C133 O136 1.238 . S
C133 O137 1.241 . S
C134 O127 1.247 . S
C134 O128 1.261 . S
C135 O130 1.259 . S
C135 O132 1.235 . S
O136 Co126 2.021 . S
O136 C133 1.238 . S
O137 Co131 2.052 . S
O137 C133 1.241 . S
O138 Co126 2.137 . S
O138 C129 1.247 . S
O139 Co126 2.244 . S
O139 C129 1.272 . S
O139 Co131 2.135 . S
Co140 O141 2.216 . S
Co140 O142 2.091 . S
Co140 O144 2.004 1_565 S
Co140 O150 2.021 . S
Co140 O152 2.137 . S
Co140 O153 2.244 1_565 S
O141 Co140 2.216 . S
O141 C148 1.247 . S
O142 Co140 2.091 . S
O142 C148 1.261 . S
C143 O152 1.247 1_545 S
C143 O153 1.272 . S
O144 Co140 2.004 1_545 S
O144 C149 1.259 . S
Co145 O146 2.061 . S
Co145 O151 2.052 . S
Co145 O153 2.135 . S
O146 Co145 2.061 . S
O146 C149 1.235 . S
C147 O150 1.238 . S
C147 O151 1.241 1_565 S
C148 O141 1.247 . S
C148 O142 1.261 . S
C149 O144 1.259 . S
C149 O146 1.235 . S
O150 Co140 2.021 . S
O150 C147 1.238 . S
O151 Co145 2.052 . S
O151 C147 1.241 1_545 S
O152 Co140 2.137 . S
O152 C143 1.247 1_565 S
O153 Co140 2.244 1_545 S
O153 C143 1.272 . S
O153 Co145 2.135 . S
Co154 O155 2.216 . S
Co154 O156 2.091 . S
Co154 O158 2.004 . S
Co154 O164 2.021 . S
Co154 O166 2.137 1_554 S
Co154 O167 2.244 1_554 S
O155 Co154 2.216 . S
O155 C162 1.247 . S
O156 Co154 2.091 . S
O156 C162 1.261 . S
C157 O166 1.247 . S
C157 O167 1.272 . S
O158 Co154 2.004 . S
O158 C163 1.259 . S
Co159 O160 2.061 . S
Co159 O165 2.052 . S
Co159 O167 2.135 1_554 S
O160 Co159 2.061 . S
O160 C163 1.235 . S
C161 O164 1.238 . S
C161 O165 1.241 . S
C162 O155 1.247 . S
C162 O156 1.261 . S
C163 O158 1.259 . S
C163 O160 1.235 . S
O164 Co154 2.021 . S
O164 C161 1.238 . S
O165 Co159 2.052 . S
O165 C161 1.241 . S
O166 Co154 2.137 1_556 S
O166 C157 1.247 . S
O167 Co154 2.244 1_556 S
O167 C157 1.272 . S
O167 Co159 2.135 1_556 S
Co168 O169 2.216 . S
Co168 O170 2.091 . S
Co168 O172 2.004 . S
Co168 O178 2.021 . S
Co168 O180 2.137 . S
Co168 O181 2.244 . S
O169 Co168 2.216 . S
O169 C176 1.247 . S
O170 Co168 2.091 . S
O170 C176 1.261 . S
C171 O180 1.247 . S
C171 O181 1.272 . S
O172 Co168 2.004 . S
O172 C177 1.259 . S
Co173 O174 2.061 . S
Co173 O179 2.052 . S
Co173 O181 2.135 . S
O174 Co173 2.061 . S
O174 C177 1.235 . S
C175 O178 1.238 . S
C175 O179 1.241 . S
C176 O169 1.247 . S
C176 O170 1.261 . S
C177 O172 1.259 . S
C177 O174 1.235 . S
O178 Co168 2.021 . S
O178 C175 1.238 . S
O179 Co173 2.052 . S
O179 C175 1.241 . S
O180 Co168 2.137 . S
O180 C171 1.247 . S
O181 Co168 2.244 . S
O181 C171 1.272 . S
O181 Co173 2.135 . S
Co182 O183 2.216 . S
Co182 O184 2.091 . S
Co182 O186 2.004 . S
Co182 O192 2.021 . S
Co182 O194 2.137 1_554 S
Co182 O195 2.244 . S
O183 Co182 2.216 . S
O183 C190 1.247 . S
O184 Co182 2.091 . S
O184 C190 1.261 . S
C185 O194 1.247 . S
C185 O195 1.272 1_556 S
O186 Co182 2.004 . S
O186 C191 1.259 . S
Co187 O188 2.061 . S
Co187 O193 2.052 . S
Co187 O195 2.135 . S
O188 Co187 2.061 . S
O188 C191 1.235 . S
C189 O192 1.238 . S
C189 O193 1.241 . S
C190 O183 1.247 . S
C190 O184 1.261 . S
C191 O186 1.259 . S
C191 O188 1.235 . S
O192 Co182 2.021 . S
O192 C189 1.238 . S
O193 Co187 2.052 . S
O193 C189 1.241 . S
O194 Co182 2.137 1_556 S
O194 C185 1.247 . S
O195 Co182 2.244 . S
O195 C185 1.272 1_554 S
O195 Co187 2.135 . S
Co196 O197 2.216 . S
Co196 O198 2.091 . S
Co196 O200 2.004 . S
Co196 O206 2.021 . S
Co196 O208 2.137 . S
Co196 O209 2.244 . S
O197 Co196 2.216 . S
O197 C204 1.247 . S
O198 Co196 2.091 . S
O198 C204 1.261 . S
C199 O208 1.247 . S
C199 O209 1.272 . S
O200 Co196 2.004 . S
O200 C205 1.259 . S
Co201 O202 2.061 . S
Co201 O207 2.052 . S
Co201 O209 2.135 . S
O202 Co201 2.061 . S
O202 C205 1.235 . S
C203 O206 1.238 . S
C203 O207 1.241 . S
C204 O197 1.247 . S
C204 O198 1.261 . S
C205 O200 1.259 . S
C205 O202 1.235 . S
O206 Co196 2.021 . S
O206 C203 1.238 . S
O207 Co201 2.052 . S
O207 C203 1.241 . S
O208 Co196 2.137 . S
O208 C199 1.247 . S
O209 Co196 2.244 . S
O209 C199 1.272 . S
O209 Co201 2.135 . S
Co210 O211 2.216 . S
Co210 O212 2.091 . S
Co210 O214 2.004 . S
Co210 O220 2.021 . S
Co210 O222 2.137 . S
Co210 O223 2.244 . S
O211 Co210 2.216 . S
O211 C218 1.247 . S
O212 Co210 2.091 . S
O212 C218 1.261 . S
C213 O222 1.247 . S
C213 O223 1.272 . S
O214 Co210 2.004 . S
O214 C219 1.259 . S
Co215 O216 2.061 . S
Co215 O221 2.052 . S
Co215 O223 2.135 . S
O216 Co215 2.061 . S
O216 C219 1.235 . S
C217 O220 1.238 . S
C217 O221 1.241 . S
C218 O211 1.247 . S
C218 O212 1.261 . S
C219 O214 1.259 . S
C219 O216 1.235 . S
O220 Co210 2.021 . S
O220 C217 1.238 . S
O221 Co215 2.052 . S
O221 C217 1.241 . S
O222 Co210 2.137 . S
O222 C213 1.247 . S
O223 Co210 2.244 . S
O223 C213 1.272 . S
O223 Co215 2.135 . S
Co224 O225 2.216 . S
Co224 O226 2.091 . S
Co224 O228 2.004 . S
Co224 O234 2.021 . S
Co224 O236 2.137 . S
Co224 O237 2.244 . S
O225 Co224 2.216 . S
O225 C232 1.247 . S
O226 Co224 2.091 . S
O226 C232 1.261 . S
C227 O236 1.247 . S
C227 O237 1.272 . S
O228 Co224 2.004 . S
O228 C233 1.259 . S
Co229 O230 2.061 . S
Co229 O235 2.052 . S
Co229 O237 2.135 . S
O230 Co229 2.061 . S
O230 C233 1.235 . S
C231 O234 1.238 . S
C231 O235 1.241 . S
C232 O225 1.247 . S
C232 O226 1.261 . S
C233 O228 1.259 . S
C233 O230 1.235 . S
O234 Co224 2.021 . S
O234 C231 1.238 . S
O235 Co229 2.052 . S
O235 C231 1.241 . S
O236 Co224 2.137 . S
O236 C227 1.247 . S
O237 Co224 2.244 . S
O237 C227 1.272 . S
O237 Co229 2.135 . S
Co238 O239 2.216 . S
Co238 O240 2.091 . S
Co238 O242 2.004 . S
Co238 O248 2.021 . S
Co238 O250 2.137 . S
Co238 O251 2.244 . S
O239 Co238 2.216 . S
O239 C246 1.247 . S
O240 Co238 2.091 . S
O240 C246 1.261 . S
C241 O250 1.247 . S
C241 O251 1.272 . S
O242 Co238 2.004 . S
O242 C247 1.259 . S
Co243 O244 2.061 . S
Co243 O249 2.052 . S
Co243 O251 2.135 . S
O244 Co243 2.061 . S
O244 C247 1.235 . S
C245 O248 1.238 . S
C245 O249 1.241 . S
C246 O239 1.247 . S
C246 O240 1.261 . S
C247 O242 1.259 . S
C247 O244 1.235 . S
O248 Co238 2.021 . S
O248 C245 1.238 . S
O249 Co243 2.052 . S
O249 C245 1.241 . S
O250 Co238 2.137 . S
O250 C241 1.247 . S
O251 Co238 2.244 . S
O251 C241 1.272 . S
O251 Co243 2.135 . S
Co252 O253 2.216 . S
Co252 O254 2.091 . S
Co252 O256 2.004 . S
Co252 O262 2.021 . S
Co252 O264 2.137 . S
Co252 O265 2.244 . S
O253 Co252 2.216 . S
O253 C260 1.247 . S
O254 Co252 2.091 . S
O254 C260 1.261 . S
C255 O264 1.247 . S
C255 O265 1.272 . S
O256 Co252 2.004 . S
O256 C261 1.259 . S
Co257 O258 2.061 . S
Co257 O263 2.052 . S
Co257 O265 2.135 . S
O258 Co257 2.061 . S
O258 C261 1.235 . S
C259 O262 1.238 . S
C259 O263 1.241 . S
C260 O253 1.247 . S
C260 O254 1.261 . S
C261 O256 1.259 . S
C261 O258 1.235 . S
O262 Co252 2.021 . S
O262 C259 1.238 . S
O263 Co257 2.052 . S
O263 C259 1.241 . S
O264 Co252 2.137 . S
O264 C255 1.247 . S
O265 Co252 2.244 . S
O265 C255 1.272 . S
O265 Co257 2.135 . S
Co266 O267 2.216 . S
Co266 O268 2.091 . S
Co266 O270 2.004 . S
Co266 O276 2.021 . S
Co266 O278 2.137 . S
Co266 O279 2.244 . S
O267 Co266 2.216 . S
O267 C274 1.247 . S
O268 Co266 2.091 . S
O268 C274 1.261 . S
C269 O278 1.247 . S
C269 O279 1.272 . S
O270 Co266 2.004 . S
O270 C275 1.259 . S
Co271 O272 2.061 . S
Co271 O277 2.052 . S
Co271 O279 2.135 . S
O272 Co271 2.061 . S
O272 C275 1.235 . S
C273 O276 1.238 . S
C273 O277 1.241 . S
C274 O267 1.247 . S
C274 O268 1.261 . S
C275 O270 1.259 . S
C275 O272 1.235 . S
O276 Co266 2.021 . S
O276 C273 1.238 . S
O277 Co271 2.052 . S
O277 C273 1.241 . S
O278 Co266 2.137 . S
O278 C269 1.247 . S
O279 Co266 2.244 . S
O279 C269 1.272 . S
O279 Co271 2.135 . S
Co280 O281 2.216 . S
Co280 O282 2.091 . S
Co280 O284 2.004 . S
Co280 O290 2.021 1_556 S
Co280 O292 2.137 . S
Co280 O293 2.244 . S
O281 Co280 2.216 . S
O281 C288 1.253 . S
O282 Co280 2.091 . S
O282 C288 1.258 . S
C283 O292 1.247 . S
C283 O293 1.272 . S
O284 Co280 2.004 . S
O284 C289 1.259 . S
Co285 O286 2.060 . S
Co285 O291 2.052 . S
Co285 O293 2.135 1_554 S
O286 Co285 2.060 . S
O286 C289 1.234 1_554 S
C287 O290 1.238 . S
C287 O291 1.241 . S
C288 O281 1.253 . S
C288 O282 1.258 . S
C289 O284 1.259 . S
C289 O286 1.234 1_556 S
O290 Co280 2.021 1_554 S
O290 C287 1.238 . S
O291 Co285 2.052 . S
O291 C287 1.241 . S
O292 Co280 2.137 . S
O292 C283 1.247 . S
O293 Co280 2.244 . S
O293 C283 1.272 . S
O293 Co285 2.135 1_556 S
Co294 O295 2.216 . S
Co294 O296 2.091 . S
Co294 O298 2.004 . S
Co294 O304 2.021 . S
Co294 O306 2.137 . S
Co294 O307 2.244 . S
O295 Co294 2.216 . S
O295 C302 1.247 . S
O296 Co294 2.091 . S
O296 C302 1.261 . S
C297 O306 1.247 . S
C297 O307 1.272 . S
O298 Co294 2.004 . S
O298 C303 1.259 . S
Co299 O300 2.061 . S
Co299 O305 2.052 . S
Co299 O307 2.135 . S
O300 Co299 2.061 . S
O300 C303 1.235 . S
C301 O304 1.238 . S
C301 O305 1.241 . S
C302 O295 1.247 . S
C302 O296 1.261 . S
C303 O298 1.259 . S
C303 O300 1.235 . S
O304 Co294 2.021 . S
O304 C301 1.238 . S
O305 Co299 2.052 . S
O305 C301 1.241 . S
O306 Co294 2.137 . S
O306 C297 1.247 . S
O307 Co294 2.244 . S
O307 C297 1.272 . S
O307 Co299 2.135 . S
Co308 O309 2.216 . S
Co308 O310 2.091 . S
Co308 O312 2.004 . S
Co308 O318 2.021 . S
Co308 O320 2.137 . S
Co308 O321 2.244 . S
O309 Co308 2.216 . S
O309 C316 1.247 . S
O310 Co308 2.091 . S
O310 C316 1.261 . S
C311 O320 1.247 . S
C311 O321 1.272 . S
O312 Co308 2.004 . S
O312 C317 1.259 . S
Co313 O314 2.061 . S
Co313 O319 2.052 . S
Co313 O321 2.135 . S
O314 Co313 2.061 . S
O314 C317 1.235 . S
C315 O318 1.238 . S
C315 O319 1.241 . S
C316 O309 1.247 . S
C316 O310 1.261 . S
C317 O312 1.259 . S
C317 O314 1.235 . S
O318 Co308 2.021 . S
O318 C315 1.238 . S
O319 Co313 2.052 . S
O319 C315 1.241 . S
O320 Co308 2.137 . S
O320 C311 1.247 . S
O321 Co308 2.244 . S
O321 C311 1.272 . S
O321 Co313 2.135 . S
Co322 O323 2.216 . S
Co322 O324 2.091 . S
Co322 O326 2.004 . S
Co322 O332 2.021 . S
Co322 O334 2.137 . S
Co322 O335 2.244 . S
O323 Co322 2.216 . S
O323 C330 1.247 . S
O324 Co322 2.091 . S
O324 C330 1.261 . S
C325 O334 1.247 . S
C325 O335 1.272 . S
O326 Co322 2.004 . S
O326 C331 1.259 . S
Co327 O328 2.061 . S
Co327 O333 2.052 . S
Co327 O335 2.135 . S
O328 Co327 2.061 . S
O328 C331 1.235 . S
C329 O332 1.238 . S
C329 O333 1.241 . S
C330 O323 1.247 . S
C330 O324 1.261 . S
C331 O326 1.259 . S
C331 O328 1.235 . S
O332 Co322 2.021 . S
O332 C329 1.238 . S
O333 Co327 2.052 . S
O333 C329 1.241 . S
O334 Co322 2.137 . S
O334 C325 1.247 . S
O335 Co322 2.244 . S
O335 C325 1.272 . S
O335 Co327 2.135 . S
Gd336 N367 2.661 . S
Gd336 N373 2.601 . S
Gd336 O380 2.545 . S
Gd336 O381 2.606 . S
Gd336 O383 2.429 . S
Gd336 O384 2.545 . S
Gd336 O385 2.412 . S
Gd336 O387 2.362 . S
Gd336 O388 2.323 . S
Gd336 C395 2.828 . S
Gd337 N346 2.661 1_545 S
Gd337 N350 2.601 1_544 S
Gd337 O381 2.362 . S
Gd337 O382 2.324 . S
Gd337 O386 2.545 1_454 S
Gd337 O387 2.606 . S
Gd337 O389 2.429 1_554 S
Gd337 O390 2.545 . S
Gd337 O391 2.412 1_455 S
Gd337 C404 2.828 1_454 S
C338 C341 1.417 1_655 S
C338 C343 1.431 . S
C338 C344 1.412 . S
C339 C342 1.437 . S
C339 C343 1.317 1_556 S
C339 H358 0.929 . S
C340 C341 1.426 1_556 S
C340 C342 1.413 1_455 S
C340 N350 1.359 . S
C341 C338 1.417 1_455 S
C341 C340 1.426 1_554 S
C341 N346 1.350 . S
C342 C339 1.437 . S
C342 C340 1.413 1_655 S
C342 C352 1.391 . S
C343 C338 1.431 . S
C343 C339 1.317 1_554 S
C343 H354 0.930 . S
C344 C338 1.412 . S
C344 C345 1.355 1_655 S
C344 H356 0.930 . S
C345 C344 1.355 1_455 S
C345 C347 1.402 . S
C345 H357 0.930 . S
N346 Gd337 2.661 1_565 S
N346 C341 1.350 . S
N346 C347 1.307 . S
C347 C345 1.402 . S
C347 N346 1.307 . S
C347 H348 0.930 1_565 S
H348 C347 0.930 1_545 S
C349 N350 1.334 . S
C349 C351 1.394 . S
C349 H353 0.930 1_565 S
N350 Gd337 2.601 1_566 S
N350 C340 1.359 . S
N350 C349 1.334 . S
C351 C349 1.394 . S
C351 C352 1.359 1_455 S
C351 H363 0.932 . S
C352 C342 1.391 . S
C352 C351 1.359 1_655 S
C352 H364 0.929 . S
H353 C349 0.930 1_545 S
H354 C343 0.930 . S
H355 C372 0.929 1_556 S
H356 C344 0.930 . S
H357 C345 0.930 . S
H358 C339 0.929 . S
H359 C377 0.930 . S
H360 C368 0.930 1_556 S
H361 C369 0.930 . S
H362 C393 0.929 . S
H363 C351 0.932 . S
H364 C352 0.929 . S
H365 C394 0.930 . S
H366 C375 0.930 . S
N367 Gd336 2.661 . S
N367 C371 1.350 . S
N367 C372 1.308 . S
C368 H360 0.930 1_554 S
C368 C369 1.355 1_554 S
C368 C370 1.412 . S
C369 H361 0.930 . S
C369 C368 1.355 1_556 S
C369 C372 1.402 1_556 S
C370 C368 1.412 . S
C370 C371 1.417 . S
C370 C394 1.431 . S
C371 N367 1.350 . S
C371 C370 1.417 . S
C371 C374 1.426 . S
C372 H355 0.929 1_554 S
C372 N367 1.308 . S
C372 C369 1.402 1_554 S
N373 Gd336 2.601 . S
N373 C374 1.359 . S
N373 C377 1.334 . S
C374 C371 1.426 . S
C374 N373 1.359 . S
C374 C378 1.413 . S
C375 H366 0.930 . S
C375 C376 1.359 . S
C375 C377 1.394 . S
C376 C375 1.359 . S
C376 C378 1.391 . S
C376 H379 0.929 . S
C377 H359 0.930 . S
C377 N373 1.334 . S
C377 C375 1.394 . S
C378 C374 1.413 . S
C378 C376 1.391 . S
C378 C393 1.437 . S
H379 C376 0.929 . S
O380 Gd336 2.545 . S
O380 C395 1.258 . S
O381 Gd336 2.606 . S
O381 Gd337 2.362 . S
O381 C392 1.284 . S
O382 Gd337 2.324 . S
O382 C402 1.254 . S
O383 Gd336 2.429 . S
O383 C402 1.268 . S
O384 Gd336 2.545 . S
O384 C392 1.250 . S
O385 Gd336 2.412 . S
O385 C395 1.252 . S
O386 Gd337 2.545 1_656 S
O386 C404 1.258 . S
O387 Gd336 2.362 . S
O387 Gd337 2.606 . S
O387 C403 1.284 . S
O388 Gd336 2.323 . S
O388 C411 1.254 1_554 S
O389 Gd337 2.429 1_556 S
O389 C411 1.268 . S
O390 Gd337 2.545 . S
O390 C403 1.250 . S
O391 Gd337 2.412 1_655 S
O391 C404 1.252 1_554 S
C392 O381 1.284 . S
C392 O384 1.250 . S
C393 H362 0.929 . S
C393 C378 1.437 . S
C393 C394 1.317 . S
C394 H365 0.930 . S
C394 C370 1.431 . S
C394 C393 1.317 . S
C395 Gd336 2.828 . S
C395 O380 1.258 . S
C395 O385 1.252 . S
C395 C396 1.497 . S
C396 C395 1.497 . S
C396 C397 1.395 . S
C396 C398 1.380 . S
C397 C396 1.395 . S
C397 C400 1.398 . S
C397 H412 0.930 . S
C398 C396 1.380 . S
C398 C399 1.391 . S
C398 H413 0.930 . S
C399 C398 1.391 . S
C399 C401 1.387 . S
C400 C397 1.398 . S
C400 C401 1.380 . S
C400 H414 0.930 . S
C401 C399 1.387 . S
C401 C400 1.380 . S
C401 H415 0.930 . S
C402 O382 1.254 . S
C402 O383 1.268 . S
C403 O387 1.284 . S
C403 O390 1.250 . S
C404 Gd337 2.828 1_656 S
C404 O386 1.258 . S
C404 O391 1.252 1_556 S
C404 C405 1.497 . S
C405 C404 1.497 . S
C405 C406 1.395 . S
C405 C407 1.380 1_556 S
C406 C405 1.395 . S
C406 C409 1.398 . S
C406 H416 0.930 . S
C407 C405 1.380 1_554 S
C407 C408 1.391 . S
C407 H417 0.930 . S
C408 C407 1.391 . S
C408 C410 1.387 1_554 S
C409 C406 1.398 . S
C409 C410 1.380 . S
C409 H418 0.930 . S
C410 C408 1.387 1_556 S
C410 C409 1.380 . S
C410 H419 0.930 . S
C411 O388 1.254 1_556 S
C411 O389 1.268 . S
H412 C397 0.930 . S
H413 C398 0.930 . S
H414 C400 0.930 . S
H415 C401 0.930 . S
H416 C406 0.930 . S
H417 C407 0.930 . S
H418 C409 0.930 . S
H419 C410 0.930 . S
Gd420 N451 2.661 . S
Gd420 N457 2.601 . S
Gd420 O464 2.545 . S
Gd420 O465 2.606 . S
Gd420 O467 2.429 . S
Gd420 O468 2.545 . S
Gd420 O469 2.412 . S
Gd420 O471 2.362 . S
Gd420 O472 2.324 . S
Gd420 C479 2.828 . S
Gd421 N430 2.661 . S
Gd421 N434 2.601 . S
Gd421 O465 2.362 . S
Gd421 O466 2.324 . S
Gd421 O470 2.545 . S
Gd421 O471 2.606 . S
Gd421 O473 2.429 . S
Gd421 O474 2.545 . S
Gd421 O475 2.412 . S
Gd421 C488 2.828 . S
C422 C425 1.417 . S
C422 C427 1.431 . S
C422 C428 1.412 . S
C423 C426 1.437 . S
C423 C427 1.317 . S
C423 H442 0.929 . S
C424 C425 1.426 . S
C424 C426 1.413 . S
C424 N434 1.359 . S
C425 C422 1.417 . S
C425 C424 1.426 . S
C425 N430 1.350 . S
C426 C423 1.437 . S
C426 C424 1.413 . S
C426 C436 1.391 . S
C427 C422 1.431 . S
C427 C423 1.317 . S
C427 H438 0.930 . S
C428 C422 1.412 . S
C428 C429 1.355 . S
C428 H440 0.930 . S
C429 C428 1.355 . S
C429 C431 1.402 . S
C429 H441 0.930 . S
N430 Gd421 2.661 . S
N430 C425 1.350 . S
N430 C431 1.307 . S
C431 C429 1.402 . S
C431 N430 1.307 . S
C431 H432 0.930 . S
H432 C431 0.930 . S
C433 N434 1.334 . S
C433 C435 1.394 . S
C433 H437 0.930 . S
N434 Gd421 2.601 . S
N434 C424 1.359 . S
N434 C433 1.334 . S
C435 C433 1.394 . S
C435 C436 1.359 . S
C435 H447 0.930 . S
C436 C426 1.391 . S
C436 C435 1.359 . S
C436 H448 0.929 . S
H437 C433 0.930 . S
H438 C427 0.930 . S
H439 C456 0.930 . S
H440 C428 0.930 . S
H441 C429 0.930 . S
H442 C423 0.929 . S
H443 C461 0.930 . S
H444 C452 0.930 . S
H445 C453 0.930 . S
H446 C477 0.929 . S
H447 C435 0.930 . S
H448 C436 0.929 . S
H449 C478 0.930 . S
H450 C459 0.930 . S
N451 Gd420 2.661 . S
N451 C455 1.350 . S
N451 C456 1.307 . S
C452 H444 0.930 . S
C452 C453 1.355 . S
C452 C454 1.412 . S
C453 H445 0.930 . S
C453 C452 1.355 . S
C453 C456 1.402 . S
C454 C452 1.412 . S
C454 C455 1.417 . S
C454 C478 1.431 . S
C455 N451 1.350 . S
C455 C454 1.417 . S
C455 C458 1.426 . S
C456 H439 0.930 . S
C456 N451 1.307 . S
C456 C453 1.402 . S
N457 Gd420 2.601 . S
N457 C458 1.359 . S
N457 C461 1.334 . S
C458 C455 1.426 . S
C458 N457 1.359 . S
C458 C462 1.413 . S
C459 H450 0.930 . S
C459 C460 1.359 . S
C459 C461 1.394 . S
C460 C459 1.359 . S
C460 C462 1.391 . S
C460 H463 0.929 . S
C461 H443 0.930 . S
C461 N457 1.334 . S
C461 C459 1.394 . S
C462 C458 1.413 . S
C462 C460 1.391 . S
C462 C477 1.437 . S
H463 C460 0.929 . S
O464 Gd420 2.545 . S
O464 C479 1.258 . S
O465 Gd420 2.606 . S
O465 Gd421 2.362 . S
O465 C476 1.284 . S
O466 Gd421 2.324 . S
O466 C486 1.254 . S
O467 Gd420 2.429 . S
O467 C486 1.268 . S
O468 Gd420 2.545 . S
O468 C476 1.250 . S
O469 Gd420 2.412 . S
O469 C479 1.252 . S
O470 Gd421 2.545 . S
O470 C488 1.258 . S
O471 Gd420 2.362 . S
O471 Gd421 2.606 . S
O471 C487 1.284 . S
O472 Gd420 2.324 . S
O472 C495 1.254 . S
O473 Gd421 2.429 . S
O473 C495 1.268 . S
O474 Gd421 2.545 . S
O474 C487 1.250 . S
O475 Gd421 2.412 . S
O475 C488 1.252 . S
C476 O465 1.284 . S
C476 O468 1.250 . S
C477 H446 0.929 . S
C477 C462 1.437 . S
C477 C478 1.317 . S
C478 H449 0.930 . S
C478 C454 1.431 . S
C478 C477 1.317 . S
C479 Gd420 2.828 . S
C479 O464 1.258 . S
C479 O469 1.252 . S
C479 C480 1.497 . S
C480 C479 1.497 . S
C480 C481 1.395 . S
C480 C482 1.380 . S
C481 C480 1.395 . S
C481 C484 1.398 . S
C481 H496 0.930 . S
C482 C480 1.380 . S
C482 C483 1.391 . S
C482 H497 0.930 . S
C483 C482 1.391 . S
C483 C485 1.387 . S
C484 C481 1.398 . S
C484 C485 1.380 . S
C484 H498 0.930 . S
C485 C483 1.387 . S
C485 C484 1.380 . S
C485 H499 0.930 . S
C486 O466 1.254 . S
C486 O467 1.268 . S
C487 O471 1.284 . S
C487 O474 1.250 . S
C488 Gd421 2.828 . S
C488 O470 1.258 . S
C488 O475 1.252 . S
C488 C489 1.497 . S
C489 C488 1.497 . S
C489 C490 1.395 . S
C489 C491 1.380 . S
C490 C489 1.395 . S
C490 C493 1.398 . S
C490 H500 0.930 . S
C491 C489 1.380 . S
C491 C492 1.391 . S
C491 H501 0.930 . S
C492 C491 1.391 . S
C492 C494 1.387 . S
C493 C490 1.398 . S
C493 C494 1.380 . S
C493 H502 0.930 . S
C494 C492 1.387 . S
C494 C493 1.380 . S
C494 H503 0.930 . S
C495 O472 1.254 . S
C495 O473 1.268 . S
H496 C481 0.930 . S
H497 C482 0.930 . S
H498 C484 0.930 . S
H499 C485 0.930 . S
H500 C490 0.930 . S
H501 C491 0.930 . S
H502 C493 0.930 . S
H503 C494 0.930 . S
Gd504 N535 2.615 1_545 S
Gd504 N541 2.601 . S
Gd504 O548 2.545 . S
Gd504 O549 2.606 . S
Gd504 O551 2.429 . S
Gd504 O552 2.545 . S
Gd504 O553 2.412 . S
Gd504 O555 2.362 . S
Gd504 O556 2.324 . S
Gd504 C563 2.828 . S
Gd505 N514 2.661 . S
Gd505 N518 2.601 . S
Gd505 O549 2.362 . S
Gd505 O550 2.324 . S
Gd505 O554 2.545 . S
Gd505 O555 2.606 . S
Gd505 O557 2.429 . S
Gd505 O558 2.545 1_545 S
Gd505 O559 2.412 . S
Gd505 C572 2.828 . S
C506 C509 1.417 . S
C506 C511 1.431 . S
C506 C512 1.412 . S
C507 C510 1.437 . S
C507 C511 1.317 . S
C507 H526 0.929 . S
C508 C509 1.426 . S
C508 C510 1.413 . S
C508 N518 1.359 . S
C509 C506 1.417 . S
C509 C508 1.426 . S
C509 N514 1.350 . S
C510 C507 1.437 . S
C510 C508 1.413 . S
C510 C520 1.391 . S
C511 C506 1.431 . S
C511 C507 1.317 . S
C511 H522 0.930 . S
C512 C506 1.412 . S
C512 C513 1.355 . S
C512 H524 0.930 . S
C513 C512 1.355 . S
C513 C515 1.402 . S
C513 H525 0.930 . S
N514 Gd505 2.661 . S
N514 C509 1.350 . S
N514 C515 1.307 . S
C515 C513 1.402 . S
C515 N514 1.307 . S
C515 H516 0.930 . S
H516 C515 0.930 . S
C517 N518 1.334 . S
C517 C519 1.394 . S
C517 H521 0.930 . S
N518 Gd505 2.601 . S
N518 C508 1.359 . S
N518 C517 1.334 . S
C519 C517 1.394 . S
C519 C520 1.359 . S
C519 H531 0.930 . S
C520 C510 1.391 . S
C520 C519 1.359 . S
C520 H532 0.929 . S
H521 C517 0.930 . S
H522 C511 0.930 . S
H523 C540 0.893 1_545 S
H524 C512 0.930 . S
H525 C513 0.930 . S
H526 C507 0.929 . S
H527 C545 0.930 . S
H528 C536 0.930 . S
H529 C537 0.930 . S
H530 C561 0.929 . S
H531 C519 0.930 . S
H532 C520 0.929 . S
H533 C562 0.930 . S
H534 C543 0.930 . S
N535 Gd504 2.615 1_565 S
N535 C539 1.394 . S
N535 C540 1.317 . S
C536 H528 0.930 . S
C536 C537 1.355 . S
C536 C538 1.412 . S
C537 H529 0.930 . S
C537 C536 1.355 . S
C537 C540 1.402 . S
C538 C536 1.412 . S
C538 C539 1.417 . S
C538 C562 1.431 . S
C539 N535 1.394 . S
C539 C538 1.417 . S
C539 C542 1.426 . S
C540 H523 0.893 1_565 S
C540 N535 1.317 . S
C540 C537 1.402 . S
N541 Gd504 2.601 . S
N541 C542 1.359 1_545 S
N541 C545 1.334 . S
C542 C539 1.426 . S
C542 N541 1.359 1_565 S
C542 C546 1.413 . S
C543 H534 0.930 . S
C543 C544 1.359 1_545 S
C543 C545 1.394 . S
C544 C543 1.359 1_565 S
C544 C546 1.391 . S
C544 H547 0.929 . S
C545 H527 0.930 . S
C545 N541 1.334 . S
C545 C543 1.394 . S
C546 C542 1.413 . S
C546 C544 1.391 . S
C546 C561 1.437 . S
H547 C544 0.929 . S
O548 Gd504 2.545 . S
O548 C563 1.258 . S
O549 Gd504 2.606 . S
O549 Gd505 2.362 . S
O549 C560 1.284 . S
O550 Gd505 2.324 . S
O550 C570 1.254 . S
O551 Gd504 2.429 . S
O551 C570 1.268 . S
O552 Gd504 2.545 . S
O552 C560 1.250 . S
O553 Gd504 2.412 . S
O553 C563 1.252 . S
O554 Gd505 2.545 . S
O554 C572 1.258 . S
O555 Gd504 2.362 . S
O555 Gd505 2.606 . S
O555 C571 1.284 1_545 S
O556 Gd504 2.324 . S
O556 C579 1.254 . S
O557 Gd505 2.429 . S
O557 C579 1.268 . S
O558 Gd505 2.545 1_565 S
O558 C571 1.250 . S
O559 Gd505 2.412 . S
O559 C572 1.252 . S
C560 O549 1.284 . S
C560 O552 1.250 . S
C561 H530 0.929 . S
C561 C546 1.437 . S
C561 C562 1.317 . S
C562 H533 0.930 . S
C562 C538 1.431 . S
C562 C561 1.317 . S
C563 Gd504 2.828 . S
C563 O548 1.258 . S
C563 O553 1.252 . S
C563 C564 1.497 . S
C564 C563 1.497 . S
C564 C565 1.395 . S
C564 C566 1.380 . S
C565 C564 1.395 . S
C565 C568 1.398 . S
C565 H580 0.930 . S
C566 C564 1.380 . S
C566 C567 1.391 . S
C566 H581 0.930 . S
C567 C566 1.391 . S
C567 C569 1.387 . S
C568 C565 1.398 . S
C568 C569 1.380 . S
C568 H582 0.930 . S
C569 C567 1.387 . S
C569 C568 1.380 . S
C569 H583 0.930 . S
C570 O550 1.254 . S
C570 O551 1.268 . S
C571 O555 1.284 1_565 S
C571 O558 1.250 . S
C572 Gd505 2.828 . S
C572 O554 1.258 . S
C572 O559 1.252 . S
C572 C573 1.497 . S
C573 C572 1.497 . S
C573 C574 1.395 . S
C573 C575 1.380 . S
C574 C573 1.395 . S
C574 C577 1.398 . S
C574 H584 0.930 . S
C575 C573 1.380 . S
C575 C576 1.391 1_545 S
C575 H585 0.930 . S
C576 C575 1.391 1_565 S
C576 C578 1.387 . S
C577 C574 1.398 . S
C577 C578 1.380 1_545 S
C577 H586 0.930 . S
C578 C576 1.387 . S
C578 C577 1.380 1_565 S
C578 H587 0.930 . S
C579 O556 1.254 . S
C579 O557 1.268 . S
H580 C565 0.930 . S
H581 C566 0.930 . S
H582 C568 0.930 . S
H583 C569 0.930 . S
H584 C574 0.930 . S
H585 C575 0.930 . S
H586 C577 0.930 . S
H587 C578 0.930 . S
Gd588 N619 2.661 . S
Gd588 N625 2.601 . S
Gd588 O632 2.545 . S
Gd588 O633 2.606 . S
Gd588 O635 2.429 . S
Gd588 O636 2.545 . S
Gd588 O637 2.412 . S
Gd588 O639 2.362 . S
Gd588 O640 2.324 . S
Gd588 C647 2.828 . S
Gd589 N598 2.661 . S
Gd589 N602 2.601 . S
Gd589 O633 2.362 . S
Gd589 O634 2.324 . S
Gd589 O638 2.545 . S
Gd589 O639 2.606 . S
Gd589 O641 2.429 . S
Gd589 O642 2.545 . S
Gd589 O643 2.412 . S
Gd589 C656 2.828 . S
C590 C593 1.417 . S
C590 C595 1.431 . S
C590 C596 1.412 . S
C591 C594 1.437 . S
C591 C595 1.317 . S
C591 H610 0.929 . S
C592 C593 1.426 . S
C592 C594 1.413 . S
C592 N602 1.359 . S
C593 C590 1.417 . S
C593 C592 1.426 . S
C593 N598 1.350 . S
C594 C591 1.437 . S
C594 C592 1.413 . S
C594 C604 1.391 . S
C595 C590 1.431 . S
C595 C591 1.317 . S
C595 H606 0.930 . S
C596 C590 1.412 . S
C596 C597 1.355 . S
C596 H608 0.930 . S
C597 C596 1.355 . S
C597 C599 1.402 . S
C597 H609 0.930 . S
N598 Gd589 2.661 . S
N598 C593 1.350 . S
N598 C599 1.307 . S
C599 C597 1.402 . S
C599 N598 1.307 . S
C599 H600 0.930 . S
H600 C599 0.930 . S
C601 N602 1.334 . S
C601 C603 1.394 . S
C601 H605 0.930 . S
N602 Gd589 2.601 . S
N602 C592 1.359 . S
N602 C601 1.334 . S
C603 C601 1.394 . S
C603 C604 1.359 . S
C603 H615 0.930 . S
C604 C594 1.391 . S
C604 C603 1.359 . S
C604 H616 0.929 . S
H605 C601 0.930 . S
H606 C595 0.930 . S
H607 C624 0.930 . S
H608 C596 0.930 . S
H609 C597 0.930 . S
H610 C591 0.929 . S
H611 C629 0.930 . S
H612 C620 0.930 . S
H613 C621 0.930 . S
H614 C645 0.929 . S
H615 C603 0.930 . S
H616 C604 0.929 . S
H617 C646 0.930 . S
H618 C627 0.930 . S
N619 Gd588 2.661 . S
N619 C623 1.350 . S
N619 C624 1.307 . S
C620 H612 0.930 . S
C620 C621 1.355 . S
C620 C622 1.412 . S
C621 H613 0.930 . S
C621 C620 1.355 . S
C621 C624 1.402 . S
C622 C620 1.412 . S
C622 C623 1.417 . S
C622 C646 1.431 . S
C623 N619 1.350 . S
C623 C622 1.417 . S
C623 C626 1.426 . S
C624 H607 0.930 . S
C624 N619 1.307 . S
C624 C621 1.402 . S
N625 Gd588 2.601 . S
N625 C626 1.359 . S
N625 C629 1.334 . S
C626 C623 1.426 . S
C626 N625 1.359 . S
C626 C630 1.413 . S
C627 H618 0.930 . S
C627 C628 1.359 . S
C627 C629 1.394 . S
C628 C627 1.359 . S
C628 C630 1.391 . S
C628 H631 0.929 . S
C629 H611 0.930 . S
C629 N625 1.334 . S
C629 C627 1.394 . S
C630 C626 1.413 . S
C630 C628 1.391 . S
C630 C645 1.437 . S
H631 C628 0.929 . S
O632 Gd588 2.545 . S
O632 C647 1.258 . S
O633 Gd588 2.606 . S
O633 Gd589 2.362 . S
O633 C644 1.284 . S
O634 Gd589 2.324 . S
O634 C654 1.254 . S
O635 Gd588 2.429 . S
O635 C654 1.268 . S
O636 Gd588 2.545 . S
O636 C644 1.250 . S
O637 Gd588 2.412 . S
O637 C647 1.252 . S
O638 Gd589 2.545 . S
O638 C656 1.258 . S
O639 Gd588 2.362 . S
O639 Gd589 2.606 . S
O639 C655 1.284 . S
O640 Gd588 2.324 . S
O640 C663 1.254 . S
O641 Gd589 2.429 . S
O641 C663 1.268 . S
O642 Gd589 2.545 . S
O642 C655 1.250 . S
O643 Gd589 2.412 . S
O643 C656 1.252 . S
C644 O633 1.284 . S
C644 O636 1.250 . S
C645 H614 0.929 . S
C645 C630 1.437 . S
C645 C646 1.317 . S
C646 H617 0.930 . S
C646 C622 1.431 . S
C646 C645 1.317 . S
C647 Gd588 2.828 . S
C647 O632 1.258 . S
C647 O637 1.252 . S
C647 C648 1.497 . S
C648 C647 1.497 . S
C648 C649 1.395 . S
C648 C650 1.380 . S
C649 C648 1.395 . S
C649 C652 1.398 . S
C649 H664 0.930 . S
C650 C648 1.380 . S
C650 C651 1.391 . S
C650 H665 0.930 . S
C651 C650 1.391 . S
C651 C653 1.387 . S
C652 C649 1.398 . S
C652 C653 1.380 . S
C652 H666 0.930 . S
C653 C651 1.387 . S
C653 C652 1.380 . S
C653 H667 0.930 . S
C654 O634 1.254 . S
C654 O635 1.268 . S
C655 O639 1.284 . S
C655 O642 1.250 . S
C656 Gd589 2.828 . S
C656 O638 1.258 . S
C656 O643 1.252 . S
C656 C657 1.497 . S
C657 C656 1.497 . S
C657 C658 1.395 . S
C657 C659 1.380 . S
C658 C657 1.395 . S
C658 C661 1.398 . S
C658 H668 0.930 . S
C659 C657 1.380 . S
C659 C660 1.391 . S
C659 H669 0.930 . S
C660 C659 1.391 . S
C660 C662 1.387 . S
C661 C658 1.398 . S
C661 C662 1.380 . S
C661 H670 0.930 . S
C662 C660 1.387 . S
C662 C661 1.380 . S
C662 H671 0.930 . S
C663 O640 1.254 . S
C663 O641 1.268 . S
H664 C649 0.930 . S
H665 C650 0.930 . S
H666 C652 0.930 . S
H667 C653 0.930 . S
H668 C658 0.930 . S
H669 C659 0.930 . S
H670 C661 0.930 . S
H671 C662 0.930 . S
Gd672 N703 2.661 1_545 S
Gd672 N709 2.601 1_545 S
Gd672 O716 2.545 1_545 S
Gd672 O717 2.606 . S
Gd672 O719 2.429 . S
Gd672 O720 2.545 . S
Gd672 O721 2.412 1_545 S
Gd672 O723 2.362 . S
Gd672 O724 2.324 . S
Gd672 C731 2.828 1_545 S
Gd673 N682 2.661 . S
Gd673 N686 2.601 . S
Gd673 O717 2.362 . S
Gd673 O718 2.324 . S
Gd673 O722 2.545 . S
Gd673 O723 2.606 . S
Gd673 O725 2.429 . S
Gd673 O726 2.545 . S
Gd673 O727 2.412 . S
Gd673 C740 2.828 . S
C674 C677 1.417 . S
C674 C679 1.431 . S
C674 C680 1.412 . S
C675 C678 1.437 . S
C675 C679 1.317 . S
C675 H694 0.929 . S
C676 C677 1.426 . S
C676 C678 1.413 . S
C676 N686 1.359 . S
C677 C674 1.417 . S
C677 C676 1.426 . S
C677 N682 1.350 . S
C678 C675 1.437 . S
C678 C676 1.413 . S
C678 C688 1.391 . S
C679 C674 1.431 . S
C679 C675 1.317 . S
C679 H690 0.930 . S
C680 C674 1.412 . S
C680 C681 1.355 . S
C680 H692 0.930 . S
C681 C680 1.355 . S
C681 C683 1.402 . S
C681 H693 0.930 . S
N682 Gd673 2.661 . S
N682 C677 1.350 . S
N682 C683 1.307 . S
C683 C681 1.402 . S
C683 N682 1.307 . S
C683 H684 0.930 . S
H684 C683 0.930 . S
C685 N686 1.334 . S
C685 C687 1.394 . S
C685 H689 0.930 . S
N686 Gd673 2.601 . S
N686 C676 1.359 . S
N686 C685 1.334 . S
C687 C685 1.394 . S
C687 C688 1.359 . S
C687 H699 0.930 1_455 S
C688 C678 1.391 . S
C688 C687 1.359 . S
C688 H700 0.929 . S
H689 C685 0.930 . S
H690 C679 0.930 . S
H691 C708 0.930 . S
H692 C680 0.930 . S
H693 C681 0.930 . S
H694 C675 0.929 . S
H695 C713 0.930 1_545 S
H696 C704 0.930 . S
H697 C705 0.930 1_655 S
H698 C729 0.929 . S
H699 C687 0.930 1_655 S
H700 C688 0.929 . S
H701 C730 0.930 . S
H702 C711 0.930 . S
N703 Gd672 2.661 1_565 S
N703 C707 1.350 . S
N703 C708 1.307 . S
C704 H696 0.930 . S
C704 C705 1.355 . S
C704 C706 1.412 . S
C705 H697 0.930 1_455 S
C705 C704 1.355 . S
C705 C708 1.402 . S
C706 C704 1.412 . S
C706 C707 1.417 . S
C706 C730 1.431 . S
C707 N703 1.350 . S
C707 C706 1.417 . S
C707 C710 1.426 . S
C708 H691 0.930 . S
C708 N703 1.307 . S
C708 C705 1.402 . S
N709 Gd672 2.601 1_565 S
N709 C710 1.359 . S
N709 C713 1.334 . S
C710 C707 1.426 . S
C710 N709 1.359 . S
C710 C714 1.413 . S
C711 H702 0.930 . S
C711 C712 1.359 . S
C711 C713 1.394 . S
C712 C711 1.359 . S
C712 C714 1.391 . S
C712 H715 0.929 . S
C713 H695 0.930 1_565 S
C713 N709 1.334 . S
C713 C711 1.394 . S
C714 C710 1.413 . S
C714 C712 1.391 . S
C714 C729 1.437 . S
H715 C712 0.929 . S
O716 Gd672 2.545 1_565 S
O716 C731 1.258 . S
O717 Gd672 2.606 . S
O717 Gd673 2.362 . S
O717 C728 1.284 . S
O718 Gd673 2.324 . S
O718 C738 1.254 . S
O719 Gd672 2.429 . S
O719 C738 1.268 . S
O720 Gd672 2.545 . S
O720 C728 1.250 . S
O721 Gd672 2.412 1_565 S
O721 C731 1.252 . S
O722 Gd673 2.545 . S
O722 C740 1.258 . S
O723 Gd672 2.362 . S
O723 Gd673 2.606 . S
O723 C739 1.284 . S
O724 Gd672 2.324 . S
O724 C747 1.254 . S
O725 Gd673 2.429 . S
O725 C747 1.268 . S
O726 Gd673 2.545 . S
O726 C739 1.250 . S
O727 Gd673 2.412 . S
O727 C740 1.252 . S
C728 O717 1.284 . S
C728 O720 1.250 . S
C729 H698 0.929 . S
C729 C714 1.437 . S
C729 C730 1.317 . S
C730 H701 0.930 . S
C730 C706 1.431 . S
C730 C729 1.317 . S
C731 Gd672 2.828 1_565 S
C731 O716 1.258 . S
C731 O721 1.252 . S
C731 C732 1.497 . S
C732 C731 1.497 . S
C732 C733 1.395 . S
C732 C734 1.380 . S
C733 C732 1.395 . S
C733 C736 1.398 . S
C733 H748 0.930 . S
C734 C732 1.380 . S
C734 C735 1.391 . S
C734 H749 0.930 . S
C735 C734 1.391 . S
C735 C737 1.387 . S
C736 C733 1.398 . S
C736 C737 1.380 . S
C736 H750 0.930 . S
C737 C735 1.387 . S
C737 C736 1.380 . S
C737 H751 0.930 . S
C738 O718 1.254 . S
C738 O719 1.268 . S
C739 O723 1.284 . S
C739 O726 1.250 . S
C740 Gd673 2.828 . S
C740 O722 1.258 . S
C740 O727 1.252 . S
C740 C741 1.497 . S
C741 C740 1.497 . S
C741 C742 1.395 . S
C741 C743 1.380 . S
C742 C741 1.395 . S
C742 C745 1.398 . S
C742 H752 0.930 . S
C743 C741 1.380 . S
C743 C744 1.391 . S
C743 H753 0.930 . S
C744 C743 1.391 . S
C744 C746 1.387 . S
C745 C742 1.398 . S
C745 C746 1.380 . S
C745 H754 0.930 . S
C746 C744 1.387 . S
C746 C745 1.380 . S
C746 H755 0.930 . S
C747 O724 1.254 . S
C747 O725 1.268 . S
H748 C733 0.930 . S
H749 C734 0.930 . S
H750 C736 0.930 . S
H751 C737 0.930 . S
H752 C742 0.930 . S
H753 C743 0.930 . S
H754 C745 0.930 . S
H755 C746 0.930 . S
Gd756 N787 2.661 . S
Gd756 N793 2.601 . S
Gd756 O800 2.545 . S
Gd756 O801 2.606 . S
Gd756 O803 2.429 . S
Gd756 O804 2.545 . S
Gd756 O805 2.412 . S
Gd756 O807 2.362 . S
Gd756 O808 2.324 . S
Gd756 C815 2.828 . S
Gd757 N766 2.661 . S
Gd757 N770 2.601 . S
Gd757 O801 2.362 . S
Gd757 O802 2.324 . S
Gd757 O806 2.545 . S
Gd757 O807 2.606 . S
Gd757 O809 2.429 . S
Gd757 O810 2.545 . S
Gd757 O811 2.412 . S
Gd757 C824 2.828 . S
C758 C761 1.417 . S
C758 C763 1.431 . S
C758 C764 1.412 . S
C759 C762 1.437 . S
C759 C763 1.317 . S
C759 H778 0.929 . S
C760 C761 1.426 . S
C760 C762 1.413 . S
C760 N770 1.359 . S
C761 C758 1.417 . S
C761 C760 1.426 . S
C761 N766 1.350 . S
C762 C759 1.437 . S
C762 C760 1.413 . S
C762 C772 1.391 . S
C763 C758 1.431 . S
C763 C759 1.317 . S
C763 H774 0.930 . S
C764 C758 1.412 . S
C764 C765 1.355 . S
C764 H776 0.930 . S
C765 C764 1.355 . S
C765 C767 1.402 . S
C765 H777 0.930 . S
N766 Gd757 2.661 . S
N766 C761 1.350 . S
N766 C767 1.307 . S
C767 C765 1.402 . S
C767 N766 1.307 . S
C767 H768 0.930 . S
H768 C767 0.930 . S
C769 N770 1.334 . S
C769 C771 1.394 . S
C769 H773 0.930 . S
N770 Gd757 2.601 . S
N770 C760 1.359 . S
N770 C769 1.334 . S
C771 C769 1.394 . S
C771 C772 1.359 . S
C771 H783 0.930 . S
C772 C762 1.391 . S
C772 C771 1.359 . S
C772 H784 0.929 . S
H773 C769 0.930 . S
H774 C763 0.930 . S
H775 C792 0.930 . S
H776 C764 0.930 . S
H777 C765 0.930 . S
H778 C759 0.929 . S
H779 C797 0.930 . S
H780 C788 0.930 . S
H781 C789 0.930 . S
H782 C813 0.929 . S
H783 C771 0.930 . S
H784 C772 0.929 . S
H785 C814 0.930 . S
H786 C795 0.930 . S
N787 Gd756 2.661 . S
N787 C791 1.350 . S
N787 C792 1.307 . S
C788 H780 0.930 . S
C788 C789 1.355 . S
C788 C790 1.412 . S
C789 H781 0.930 . S
C789 C788 1.355 . S
C789 C792 1.402 . S
C790 C788 1.412 . S
C790 C791 1.417 . S
C790 C814 1.431 . S
C791 N787 1.350 . S
C791 C790 1.417 . S
C791 C794 1.426 . S
C792 H775 0.930 . S
C792 N787 1.307 . S
C792 C789 1.402 . S
N793 Gd756 2.601 . S
N793 C794 1.359 . S
N793 C797 1.334 . S
C794 C791 1.426 . S
C794 N793 1.359 . S
C794 C798 1.413 . S
C795 H786 0.930 . S
C795 C796 1.359 . S
C795 C797 1.394 . S
C796 C795 1.359 . S
C796 C798 1.391 . S
C796 H799 0.929 . S
C797 H779 0.930 . S
C797 N793 1.334 . S
C797 C795 1.394 . S
C798 C794 1.413 . S
C798 C796 1.391 . S
C798 C813 1.437 . S
H799 C796 0.929 . S
O800 Gd756 2.545 . S
O800 C815 1.258 . S
O801 Gd756 2.606 . S
O801 Gd757 2.362 . S
O801 C812 1.284 . S
O802 Gd757 2.324 . S
O802 C822 1.254 . S
O803 Gd756 2.429 . S
O803 C822 1.268 . S
O804 Gd756 2.545 . S
O804 C812 1.250 . S
O805 Gd756 2.412 . S
O805 C815 1.252 . S
O806 Gd757 2.545 . S
O806 C824 1.258 . S
O807 Gd756 2.362 . S
O807 Gd757 2.606 . S
O807 C823 1.284 . S
O808 Gd756 2.324 . S
O808 C831 1.254 . S
O809 Gd757 2.429 . S
O809 C831 1.268 . S
O810 Gd757 2.545 . S
O810 C823 1.250 . S
O811 Gd757 2.412 . S
O811 C824 1.252 . S
C812 O801 1.284 . S
C812 O804 1.250 . S
C813 H782 0.929 . S
C813 C798 1.437 . S
C813 C814 1.317 . S
C814 H785 0.930 . S
C814 C790 1.431 . S
C814 C813 1.317 . S
C815 Gd756 2.828 . S
C815 O800 1.258 . S
C815 O805 1.252 . S
C815 C816 1.497 . S
C816 C815 1.497 . S
C816 C817 1.395 . S
C816 C818 1.380 . S
C817 C816 1.395 . S
C817 C820 1.398 . S
C817 H832 0.930 . S
C818 C816 1.380 . S
C818 C819 1.391 . S
C818 H833 0.930 . S
C819 C818 1.391 . S
C819 C821 1.387 . S
C820 C817 1.398 . S
C820 C821 1.380 . S
C820 H834 0.930 . S
C821 C819 1.387 . S
C821 C820 1.380 . S
C821 H835 0.930 . S
C822 O802 1.254 . S
C822 O803 1.268 . S
C823 O807 1.284 . S
C823 O810 1.250 . S
C824 Gd757 2.828 . S
C824 O806 1.258 . S
C824 O811 1.252 . S
C824 C825 1.497 . S
C825 C824 1.497 . S
C825 C826 1.395 . S
C825 C827 1.380 . S
C826 C825 1.395 . S
C826 C829 1.398 . S
C826 H836 0.930 . S
C827 C825 1.380 . S
C827 C828 1.391 . S
C827 H837 0.930 . S
C828 C827 1.391 . S
C828 C830 1.387 . S
C829 C826 1.398 . S
C829 C830 1.380 . S
C829 H838 0.930 . S
C830 C828 1.387 . S
C830 C829 1.380 . S
C830 H839 0.930 . S
C831 O808 1.254 . S
C831 O809 1.268 . S
H832 C817 0.930 . S
H833 C818 0.930 . S
H834 C820 0.930 . S
H835 C821 0.930 . S
H836 C826 0.930 . S
H837 C827 0.930 . S
H838 C829 0.930 . S
H839 C830 0.930 . S
Gd840 N871 2.661 . S
Gd840 N877 2.601 . S
Gd840 O884 2.545 . S
Gd840 O885 2.606 1_556 S
Gd840 O887 2.429 1_556 S
Gd840 O888 2.545 . S
Gd840 O889 2.412 . S
Gd840 O891 2.362 1_556 S
Gd840 O892 2.324 . S
Gd840 C899 2.828 . S
Gd841 N850 2.661 . S
Gd841 N854 2.601 . S
Gd841 O885 2.362 . S
Gd841 O886 2.324 . S
Gd841 O890 2.545 . S
Gd841 O891 2.606 . S
Gd841 O893 2.429 . S
Gd841 O894 2.545 . S
Gd841 O895 2.412 . S
Gd841 C908 2.828 . S
C842 C845 1.417 . S
C842 C847 1.431 . S
C842 C848 1.412 . S
C843 C846 1.437 . S
C843 C847 1.317 . S
C843 H862 0.929 . S
C844 C845 1.426 . S
C844 C846 1.413 . S
C844 N854 1.359 . S
C845 C842 1.417 . S
C845 C844 1.426 . S
C845 N850 1.350 . S
C846 C843 1.437 . S
C846 C844 1.413 . S
C846 C856 1.391 1_545 S
C847 C842 1.431 . S
C847 C843 1.317 . S
C847 H858 0.930 . S
C848 C842 1.412 . S
C848 C849 1.355 . S
C848 H860 0.930 . S
C849 C848 1.355 . S
C849 C851 1.402 . S
C849 H861 0.930 . S
N850 Gd841 2.661 . S
N850 C845 1.350 . S
N850 C851 1.307 . S
C851 C849 1.402 . S
C851 N850 1.307 . S
C851 H852 0.930 . S
H852 C851 0.930 . S
C853 N854 1.334 1_565 S
C853 C855 1.394 . S
C853 H857 0.930 . S
N854 Gd841 2.601 . S
N854 C844 1.359 . S
N854 C853 1.334 1_545 S
C855 C853 1.394 . S
C855 C856 1.359 . S
C855 H867 0.930 . S
C856 C846 1.391 1_565 S
C856 C855 1.359 . S
C856 H868 0.929 . S
H857 C853 0.930 . S
H858 C847 0.930 . S
H859 C876 0.930 1_565 S
H860 C848 0.930 . S
H861 C849 0.930 . S
H862 C843 0.929 . S
H863 C881 0.930 . S
H864 C872 0.930 . S
H865 C873 0.930 . S
H866 C897 0.929 . S
H867 C855 0.930 . S
H868 C856 0.929 . S
H869 C898 0.930 . S
H870 C879 0.930 . S
N871 Gd840 2.661 . S
N871 C875 1.350 . S
N871 C876 1.307 . S
C872 H864 0.930 . S
C872 C873 1.355 . S
C872 C874 1.412 1_565 S
C873 H865 0.930 . S
C873 C872 1.355 . S
C873 C876 1.402 1_565 S
C874 C872 1.412 1_545 S
C874 C875 1.417 . S
C874 C898 1.431 . S
C875 N871 1.350 . S
C875 C874 1.417 . S
C875 C878 1.426 . S
C876 H859 0.930 1_545 S
C876 N871 1.307 . S
C876 C873 1.402 1_545 S
N877 Gd840 2.601 . S
N877 C878 1.359 . S
N877 C881 1.334 . S
C878 C875 1.426 . S
C878 N877 1.359 . S
C878 C882 1.413 . S
C879 H870 0.930 . S
C879 C880 1.359 . S
C879 C881 1.394 . S
C880 C879 1.359 . S
C880 C882 1.391 . S
C880 H883 0.929 . S
C881 H863 0.930 . S
C881 N877 1.334 . S
C881 C879 1.394 . S
C882 C878 1.413 . S
C882 C880 1.391 . S
C882 C897 1.437 . S
H883 C880 0.929 . S
O884 Gd840 2.545 . S
O884 C899 1.258 . S
O885 Gd840 2.606 1_554 S
O885 Gd841 2.362 . S
O885 C896 1.284 . S
O886 Gd841 2.324 . S
O886 C906 1.254 . S
O887 Gd840 2.429 1_554 S
O887 C906 1.268 . S
O888 Gd840 2.545 . S
O888 C896 1.250 1_556 S
O889 Gd840 2.412 . S
O889 C899 1.252 . S
O890 Gd841 2.545 . S
O890 C908 1.258 . S
O891 Gd840 2.362 1_554 S
O891 Gd841 2.606 . S
O891 C907 1.284 . S
O892 Gd840 2.324 . S
O892 C915 1.237 1_556 S
O893 Gd841 2.429 . S
O893 C915 1.293 . S
O894 Gd841 2.545 . S
O894 C907 1.250 . S
O895 Gd841 2.412 . S
O895 C908 1.252 . S
C896 O885 1.284 . S
C896 O888 1.250 1_554 S
C897 H866 0.929 . S
C897 C882 1.437 . S
C897 C898 1.317 . S
C898 H869 0.930 . S
C898 C874 1.431 . S
C898 C897 1.317 . S
C899 Gd840 2.828 . S
C899 O884 1.258 . S
C899 O889 1.252 . S
C899 C900 1.497 . S
C900 C899 1.497 . S
C900 C901 1.395 . S
C900 C902 1.380 . S
C901 C900 1.395 . S
C901 C904 1.398 . S
C901 H916 0.930 . S
C902 C900 1.380 . S
C902 C903 1.391 . S
C902 H917 0.930 . S
C903 C902 1.391 . S
C903 C905 1.387 . S
C904 C901 1.398 . S
C904 C905 1.380 . S
C904 H918 0.930 . S
C905 C903 1.387 . S
C905 C904 1.380 . S
C905 H919 0.930 . S
C906 O886 1.254 . S
C906 O887 1.268 . S
C907 O891 1.284 . S
C907 O894 1.250 . S
C908 Gd841 2.828 . S
C908 O890 1.258 . S
C908 O895 1.252 . S
C908 C909 1.497 . S
C909 C908 1.497 . S
C909 C910 1.395 1_545 S
C909 C911 1.380 . S
C910 C909 1.395 1_565 S
C910 C913 1.398 . S
C910 H920 0.930 . S
C911 C909 1.380 . S
C911 C912 1.391 . S
C911 H921 0.930 . S
C912 C911 1.391 . S
C912 C914 1.387 . S
C913 C910 1.398 . S
C913 C914 1.380 1_565 S
C913 H922 0.930 . S
C914 C912 1.387 . S
C914 C913 1.380 1_545 S
C914 H923 0.930 . S
C915 O892 1.237 1_554 S
C915 O893 1.293 . S
H916 C901 0.930 . S
H917 C902 0.930 . S
H918 C904 0.930 . S
H919 C905 0.930 . S
H920 C910 0.930 . S
H921 C911 0.930 . S
H922 C913 0.930 . S
H923 C914 0.930 . S
Gd924 N955 2.661 . S
Gd924 N961 2.601 . S
Gd924 O968 2.545 . S
Gd924 O969 2.606 . S
Gd924 O971 2.429 . S
Gd924 O972 2.545 . S
Gd924 O973 2.412 . S
Gd924 O975 2.362 . S
Gd924 O976 2.324 . S
Gd924 C983 2.828 . S
Gd925 N934 2.661 . S
Gd925 N938 2.601 . S
Gd925 O969 2.362 . S
Gd925 O970 2.324 . S
Gd925 O974 2.545 . S
Gd925 O975 2.606 . S
Gd925 O977 2.429 . S
Gd925 O978 2.545 . S
Gd925 O979 2.412 . S
Gd925 C992 2.828 . S
C926 C929 1.417 . S
C926 C931 1.431 . S
C926 C932 1.412 . S
C927 C930 1.437 . S
C927 C931 1.317 . S
C927 H946 0.929 . S
C928 C929 1.426 . S
C928 C930 1.413 . S
C928 N938 1.359 . S
C929 C926 1.417 . S
C929 C928 1.426 . S
C929 N934 1.350 . S
C930 C927 1.437 . S
C930 C928 1.413 . S
C930 C940 1.391 . S
C931 C926 1.431 . S
C931 C927 1.317 . S
C931 H942 0.930 . S
C932 C926 1.412 . S
C932 C933 1.355 . S
C932 H944 0.930 . S
C933 C932 1.355 . S
C933 C935 1.402 . S
C933 H945 0.930 . S
N934 Gd925 2.661 . S
N934 C929 1.350 . S
N934 C935 1.307 . S
C935 C933 1.402 . S
C935 N934 1.307 . S
C935 H936 0.930 . S
H936 C935 0.930 . S
C937 N938 1.334 . S
C937 C939 1.394 . S
C937 H941 0.930 . S
N938 Gd925 2.601 . S
N938 C928 1.359 . S
N938 C937 1.334 . S
C939 C937 1.394 . S
C939 C940 1.359 . S
C939 H951 0.930 . S
C940 C930 1.391 . S
C940 C939 1.359 . S
C940 H952 0.929 . S
H941 C937 0.930 . S
H942 C931 0.930 . S
H943 C960 0.930 . S
H944 C932 0.930 . S
H945 C933 0.930 . S
H946 C927 0.929 . S
H947 C965 0.930 . S
H948 C956 0.930 . S
H949 C957 0.930 . S
H950 C981 0.929 . S
H951 C939 0.930 . S
H952 C940 0.929 . S
H953 C982 0.930 . S
H954 C963 0.930 . S
N955 Gd924 2.661 . S
N955 C959 1.350 . S
N955 C960 1.307 . S
C956 H948 0.930 . S
C956 C957 1.355 . S
C956 C958 1.412 . S
C957 H949 0.930 . S
C957 C956 1.355 . S
C957 C960 1.402 . S
C958 C956 1.412 . S
C958 C959 1.417 . S
C958 C982 1.431 . S
C959 N955 1.350 . S
C959 C958 1.417 . S
C959 C962 1.426 . S
C960 H943 0.930 . S
C960 N955 1.307 . S
C960 C957 1.402 . S
N961 Gd924 2.601 . S
N961 C962 1.359 . S
N961 C965 1.334 . S
C962 C959 1.426 . S
C962 N961 1.359 . S
C962 C966 1.413 . S
C963 H954 0.930 . S
C963 C964 1.359 . S
C963 C965 1.394 . S
C964 C963 1.359 . S
C964 C966 1.391 . S
C964 H967 0.929 . S
C965 H947 0.930 . S
C965 N961 1.334 . S
C965 C963 1.394 . S
C966 C962 1.413 . S
C966 C964 1.391 . S
C966 C981 1.437 . S
H967 C964 0.929 . S
O968 Gd924 2.545 . S
O968 C983 1.258 . S
O969 Gd924 2.606 . S
O969 Gd925 2.362 . S
O969 C980 1.284 . S
O970 Gd925 2.324 . S
O970 C990 1.254 . S
O971 Gd924 2.429 . S
O971 C990 1.268 . S
O972 Gd924 2.545 . S
O972 C980 1.250 . S
O973 Gd924 2.412 . S
O973 C983 1.252 . S
O974 Gd925 2.545 . S
O974 C992 1.258 . S
O975 Gd924 2.362 . S
O975 Gd925 2.606 . S
O975 C991 1.284 . S
O976 Gd924 2.324 . S
O976 C999 1.254 . S
O977 Gd925 2.429 . S
O977 C999 1.268 . S
O978 Gd925 2.545 . S
O978 C991 1.250 . S
O979 Gd925 2.412 . S
O979 C992 1.252 . S
C980 O969 1.284 . S
C980 O972 1.250 . S
C981 H950 0.929 . S
C981 C966 1.437 . S
C981 C982 1.317 . S
C982 H953 0.930 . S
C982 C958 1.431 . S
C982 C981 1.317 . S
C983 Gd924 2.828 . S
C983 O968 1.258 . S
C983 O973 1.252 . S
C983 C984 1.497 . S
C984 C983 1.497 . S
C984 C985 1.395 . S
C984 C986 1.380 . S
C985 C984 1.395 . S
C985 C988 1.398 . S
C985 H1000 0.930 . S
C986 C984 1.380 . S
C986 C987 1.391 . S
C986 H1001 0.930 . S
C987 C986 1.391 . S
C987 C989 1.387 . S
C988 C985 1.398 . S
C988 C989 1.380 . S
C988 H1002 0.930 . S
C989 C987 1.387 . S
C989 C988 1.380 . S
C989 H1003 0.930 . S
C990 O970 1.254 . S
C990 O971 1.268 . S
C991 O975 1.284 . S
C991 O978 1.250 . S
C992 Gd925 2.828 . S
C992 O974 1.258 . S
C992 O979 1.252 . S
C992 C993 1.497 . S
C993 C992 1.497 . S
C993 C994 1.395 . S
C993 C995 1.380 . S
C994 C993 1.395 . S
C994 C997 1.398 . S
C994 H1004 0.930 . S
C995 C993 1.380 . S
C995 C996 1.391 . S
C995 H1005 0.930 . S
C996 C995 1.391 . S
C996 C998 1.387 . S
C997 C994 1.398 . S
C997 C998 1.380 . S
C997 H1006 0.930 . S
C998 C996 1.387 . S
C998 C997 1.380 . S
C998 H1007 0.930 . S
C999 O976 1.254 . S
C999 O977 1.268 . S
H1000 C985 0.930 . S
H1001 C986 0.930 . S
H1002 C988 0.930 . S
H1003 C989 0.930 . S
H1004 C994 0.930 . S
H1005 C995 0.930 . S
H1006 C997 0.930 . S
H1007 C998 0.930 . S
Gd1008 N1039 2.661 1_554 S
Gd1008 N1045 2.601 1_554 S
Gd1008 O1052 2.545 . S
Gd1008 O1053 2.606 . S
Gd1008 O1055 2.429 . S
Gd1008 O1056 2.545 . S
Gd1008 O1057 2.412 . S
Gd1008 O1059 2.362 1_554 S
Gd1008 O1060 2.324 . S
Gd1008 C1067 2.828 . S
Gd1009 N1018 2.661 . S
Gd1009 N1022 2.601 . S
Gd1009 O1053 2.362 . S
Gd1009 O1054 2.324 . S
Gd1009 O1058 2.545 . S
Gd1009 O1059 2.606 1_554 S
Gd1009 O1061 2.429 . S
Gd1009 O1062 2.545 1_554 S
Gd1009 O1063 2.412 . S
Gd1009 C1076 2.828 . S
C1010 C1013 1.417 . S
C1010 C1015 1.431 . S
C1010 C1016 1.412 . S
C1011 C1014 1.437 . S
C1011 C1015 1.317 . S
C1011 H1030 0.929 . S
C1012 C1013 1.426 . S
C1012 C1014 1.413 . S
C1012 N1022 1.359 . S
C1013 C1010 1.417 . S
C1013 C1012 1.426 . S
C1013 N1018 1.350 . S
C1014 C1011 1.437 . S
C1014 C1012 1.413 . S
C1014 C1024 1.391 . S
C1015 C1010 1.431 . S
C1015 C1011 1.317 . S
C1015 H1026 0.930 . S
C1016 C1010 1.412 . S
C1016 C1017 1.355 . S
C1016 H1028 0.930 . S
C1017 C1016 1.355 . S
C1017 C1019 1.402 . S
C1017 H1029 0.930 . S
N1018 Gd1009 2.661 . S
N1018 C1013 1.350 . S
N1018 C1019 1.307 . S
C1019 C1017 1.402 . S
C1019 N1018 1.307 . S
C1019 H1020 0.930 . S
H1020 C1019 0.930 . S
C1021 N1022 1.334 . S
C1021 C1023 1.394 . S
C1021 H1025 0.930 . S
N1022 Gd1009 2.601 . S
N1022 C1012 1.359 . S
N1022 C1021 1.334 . S
C1023 C1021 1.394 . S
C1023 C1024 1.359 . S
C1023 H1035 0.930 . S
C1024 C1014 1.391 . S
C1024 C1023 1.359 . S
C1024 H1036 0.929 . S
H1025 C1021 0.930 . S
H1026 C1015 0.930 . S
H1027 C1044 0.930 . S
H1028 C1016 0.930 . S
H1029 C1017 0.930 . S
H1030 C1011 0.929 . S
H1031 C1049 0.930 . S
H1032 C1040 0.930 . S
H1033 C1041 0.930 . S
H1034 C1065 0.929 . S
H1035 C1023 0.930 . S
H1036 C1024 0.929 . S
H1037 C1066 0.930 . S
H1038 C1047 0.930 . S
N1039 Gd1008 2.661 1_556 S
N1039 C1043 1.350 . S
N1039 C1044 1.307 . S
C1040 H1032 0.930 . S
C1040 C1041 1.355 . S
C1040 C1042 1.412 . S
C1041 H1033 0.930 . S
C1041 C1040 1.355 . S
C1041 C1044 1.402 . S
C1042 C1040 1.412 . S
C1042 C1043 1.417 . S
C1042 C1066 1.431 . S
C1043 N1039 1.350 . S
C1043 C1042 1.417 . S
C1043 C1046 1.426 . S
C1044 H1027 0.930 . S
C1044 N1039 1.307 . S
C1044 C1041 1.402 . S
N1045 Gd1008 2.601 1_556 S
N1045 C1046 1.359 . S
N1045 C1049 1.334 . S
C1046 C1043 1.426 . S
C1046 N1045 1.359 . S
C1046 C1050 1.413 . S
C1047 H1038 0.930 . S
C1047 C1048 1.359 . S
C1047 C1049 1.394 . S
C1048 C1047 1.359 . S
C1048 C1050 1.391 . S
C1048 H1051 0.929 . S
C1049 H1031 0.930 . S
C1049 N1045 1.334 . S
C1049 C1047 1.394 . S
C1050 C1046 1.413 . S
C1050 C1048 1.391 . S
C1050 C1065 1.437 . S
H1051 C1048 0.929 . S
O1052 Gd1008 2.545 . S
O1052 C1067 1.258 . S
O1053 Gd1008 2.606 . S
O1053 Gd1009 2.362 . S
O1053 C1064 1.284 . S
O1054 Gd1009 2.324 . S
O1054 C1074 1.254 . S
O1055 Gd1008 2.429 . S
O1055 C1074 1.268 . S
O1056 Gd1008 2.545 . S
O1056 C1064 1.250 . S
O1057 Gd1008 2.412 . S
O1057 C1067 1.252 . S
O1058 Gd1009 2.545 . S
O1058 C1076 1.258 . S
O1059 Gd1008 2.362 1_556 S
O1059 Gd1009 2.606 1_556 S
O1059 C1075 1.284 . S
O1060 Gd1008 2.324 . S
O1060 C1083 1.254 . S
O1061 Gd1009 2.429 . S
O1061 C1083 1.268 . S
O1062 Gd1009 2.545 1_556 S
O1062 C1075 1.250 . S
O1063 Gd1009 2.412 . S
O1063 C1076 1.252 . S
C1064 O1053 1.284 . S
C1064 O1056 1.250 . S
C1065 H1034 0.929 . S
C1065 C1050 1.437 . S
C1065 C1066 1.317 . S
C1066 H1037 0.930 . S
C1066 C1042 1.431 . S
C1066 C1065 1.317 . S
C1067 Gd1008 2.828 . S
C1067 O1052 1.258 . S
C1067 O1057 1.252 . S
C1067 C1068 1.497 . S
C1068 C1067 1.497 . S
C1068 C1069 1.395 . S
C1068 C1070 1.380 . S
C1069 C1068 1.395 . S
C1069 C1072 1.398 . S
C1069 H1084 0.930 . S
C1070 C1068 1.380 . S
C1070 C1071 1.391 . S
C1070 H1085 0.930 . S
C1071 C1070 1.391 . S
C1071 C1073 1.387 . S
C1072 C1069 1.398 . S
C1072 C1073 1.380 . S
C1072 H1086 0.930 . S
C1073 C1071 1.387 . S
C1073 C1072 1.380 . S
C1073 H1087 0.930 . S
C1074 O1054 1.254 . S
C1074 O1055 1.268 . S
C1075 O1059 1.284 . S
C1075 O1062 1.250 . S
C1076 Gd1009 2.828 . S
C1076 O1058 1.258 . S
C1076 O1063 1.252 . S
C1076 C1077 1.497 . S
C1077 C1076 1.497 . S
C1077 C1078 1.395 . S
C1077 C1079 1.380 . S
C1078 C1077 1.395 . S
C1078 C1081 1.398 . S
C1078 H1088 0.930 . S
C1079 C1077 1.380 . S
C1079 C1080 1.391 1_554 S
C1079 H1089 0.934 . S
C1080 C1079 1.391 1_556 S
C1080 C1082 1.387 1_556 S
C1081 C1078 1.398 . S
C1081 C1082 1.380 . S
C1081 H1090 0.930 . S
C1082 C1080 1.387 1_554 S
C1082 C1081 1.380 . S
C1082 H1091 0.930 . S
C1083 O1060 1.254 . S
C1083 O1061 1.268 . S
H1084 C1069 0.930 . S
H1085 C1070 0.930 . S
H1086 C1072 0.930 . S
H1087 C1073 0.930 . S
H1088 C1078 0.930 . S
H1089 C1079 0.934 . S
H1090 C1081 0.930 . S
H1091 C1082 0.930 . S
Gd1092 N1123 2.661 . S
Gd1092 N1129 2.601 . S
Gd1092 O1136 2.545 . S
Gd1092 O1137 2.606 . S
Gd1092 O1139 2.429 . S
Gd1092 O1140 2.545 . S
Gd1092 O1141 2.412 . S
Gd1092 O1143 2.362 . S
Gd1092 O1144 2.324 . S
Gd1092 C1151 2.828 . S
Gd1093 N1102 2.661 . S
Gd1093 N1106 2.601 . S
Gd1093 O1137 2.362 . S
Gd1093 O1138 2.324 . S
Gd1093 O1142 2.545 . S
Gd1093 O1143 2.606 . S
Gd1093 O1145 2.429 . S
Gd1093 O1146 2.545 . S
Gd1093 O1147 2.412 . S
Gd1093 C1160 2.828 . S
C1094 C1097 1.417 . S
C1094 C1099 1.431 . S
C1094 C1100 1.412 . S
C1095 C1098 1.437 . S
C1095 C1099 1.317 . S
C1095 H1114 0.929 . S
C1096 C1097 1.426 . S
C1096 C1098 1.413 . S
C1096 N1106 1.359 . S
C1097 C1094 1.417 . S
C1097 C1096 1.426 . S
C1097 N1102 1.350 . S
C1098 C1095 1.437 . S
C1098 C1096 1.413 . S
C1098 C1108 1.391 . S
C1099 C1094 1.431 . S
C1099 C1095 1.317 . S
C1099 H1110 0.930 . S
C1100 C1094 1.412 . S
C1100 C1101 1.355 . S
C1100 H1112 0.930 . S
C1101 C1100 1.355 . S
C1101 C1103 1.402 . S
C1101 H1113 0.930 . S
N1102 Gd1093 2.661 . S
N1102 C1097 1.350 . S
N1102 C1103 1.307 . S
C1103 C1101 1.402 . S
C1103 N1102 1.307 . S
C1103 H1104 0.930 . S
H1104 C1103 0.930 . S
C1105 N1106 1.334 . S
C1105 C1107 1.394 . S
C1105 H1109 0.930 . S
N1106 Gd1093 2.601 . S
N1106 C1096 1.359 . S
N1106 C1105 1.334 . S
C1107 C1105 1.394 . S
C1107 C1108 1.359 . S
C1107 H1119 0.930 . S
C1108 C1098 1.391 . S
C1108 C1107 1.359 . S
C1108 H1120 0.929 . S
H1109 C1105 0.930 . S
H1110 C1099 0.930 . S
H1111 C1128 0.930 . S
H1112 C1100 0.930 . S
H1113 C1101 0.930 . S
H1114 C1095 0.929 . S
H1115 C1133 0.930 . S
H1116 C1124 0.930 . S
H1117 C1125 0.930 . S
H1118 C1149 0.929 . S
H1119 C1107 0.930 . S
H1120 C1108 0.929 . S
H1121 C1150 0.930 . S
H1122 C1131 0.930 . S
N1123 Gd1092 2.661 . S
N1123 C1127 1.350 . S
N1123 C1128 1.307 . S
C1124 H1116 0.930 . S
C1124 C1125 1.355 . S
C1124 C1126 1.412 . S
C1125 H1117 0.930 . S
C1125 C1124 1.355 . S
C1125 C1128 1.402 . S
C1126 C1124 1.412 . S
C1126 C1127 1.417 . S
C1126 C1150 1.431 . S
C1127 N1123 1.350 . S
C1127 C1126 1.417 . S
C1127 C1130 1.426 . S
C1128 H1111 0.930 . S
C1128 N1123 1.307 . S
C1128 C1125 1.402 . S
N1129 Gd1092 2.601 . S
N1129 C1130 1.359 . S
N1129 C1133 1.334 . S
C1130 C1127 1.426 . S
C1130 N1129 1.359 . S
C1130 C1134 1.413 . S
C1131 H1122 0.930 . S
C1131 C1132 1.359 . S
C1131 C1133 1.394 . S
C1132 C1131 1.359 . S
C1132 C1134 1.391 . S
C1132 H1135 0.929 . S
C1133 H1115 0.930 . S
C1133 N1129 1.334 . S
C1133 C1131 1.394 . S
C1134 C1130 1.413 . S
C1134 C1132 1.391 . S
C1134 C1149 1.437 . S
H1135 C1132 0.929 . S
O1136 Gd1092 2.545 . S
O1136 C1151 1.258 . S
O1137 Gd1092 2.606 . S
O1137 Gd1093 2.362 . S
O1137 C1148 1.284 . S
O1138 Gd1093 2.324 . S
O1138 C1158 1.254 . S
O1139 Gd1092 2.429 . S
O1139 C1158 1.268 . S
O1140 Gd1092 2.545 . S
O1140 C1148 1.250 . S
O1141 Gd1092 2.412 . S
O1141 C1151 1.252 . S
O1142 Gd1093 2.545 . S
O1142 C1160 1.258 . S
O1143 Gd1092 2.362 . S
O1143 Gd1093 2.606 . S
O1143 C1159 1.284 . S
O1144 Gd1092 2.324 . S
O1144 C1167 1.254 . S
O1145 Gd1093 2.429 . S
O1145 C1167 1.268 . S
O1146 Gd1093 2.545 . S
O1146 C1159 1.250 . S
O1147 Gd1093 2.412 . S
O1147 C1160 1.252 . S
C1148 O1137 1.284 . S
C1148 O1140 1.250 . S
C1149 H1118 0.929 . S
C1149 C1134 1.437 . S
C1149 C1150 1.317 . S
C1150 H1121 0.930 . S
C1150 C1126 1.431 . S
C1150 C1149 1.317 . S
C1151 Gd1092 2.828 . S
C1151 O1136 1.258 . S
C1151 O1141 1.252 . S
C1151 C1152 1.497 . S
C1152 C1151 1.497 . S
C1152 C1153 1.395 . S
C1152 C1154 1.380 . S
C1153 C1152 1.395 . S
C1153 C1156 1.398 . S
C1153 H1168 0.930 . S
C1154 C1152 1.380 . S
C1154 C1155 1.391 . S
C1154 H1169 0.930 . S
C1155 C1154 1.391 . S
C1155 C1157 1.387 . S
C1156 C1153 1.398 . S
C1156 C1157 1.380 . S
C1156 H1170 0.930 . S
C1157 C1155 1.387 . S
C1157 C1156 1.380 . S
C1157 H1171 0.930 . S
C1158 O1138 1.254 . S
C1158 O1139 1.268 . S
C1159 O1143 1.284 . S
C1159 O1146 1.250 . S
C1160 Gd1093 2.828 . S
C1160 O1142 1.258 . S
C1160 O1147 1.252 . S
C1160 C1161 1.497 . S
C1161 C1160 1.497 . S
C1161 C1162 1.395 . S
C1161 C1163 1.380 . S
C1162 C1161 1.395 . S
C1162 C1165 1.398 . S
C1162 H1172 0.930 . S
C1163 C1161 1.380 . S
C1163 C1164 1.391 . S
C1163 H1173 0.930 . S
C1164 C1163 1.391 . S
C1164 C1166 1.387 . S
C1165 C1162 1.398 . S
C1165 C1166 1.380 . S
C1165 H1174 0.930 . S
C1166 C1164 1.387 . S
C1166 C1165 1.380 . S
C1166 H1175 0.930 . S
C1167 O1144 1.254 . S
C1167 O1145 1.268 . S
H1168 C1153 0.930 . S
H1169 C1154 0.930 . S
H1170 C1156 0.930 . S
H1171 C1157 0.930 . S
H1172 C1162 0.930 . S
H1173 C1163 0.930 . S
H1174 C1165 0.930 . S
H1175 C1166 0.930 . S
Gd1176 N1207 2.661 . S
Gd1176 N1213 2.601 . S
Gd1176 O1220 2.545 . S
Gd1176 O1221 2.606 . S
Gd1176 O1223 2.429 . S
Gd1176 O1224 2.545 . S
Gd1176 O1225 2.412 . S
Gd1176 O1227 2.362 . S
Gd1176 O1228 2.324 . S
Gd1176 C1235 2.828 . S
Gd1177 N1186 2.661 . S
Gd1177 N1190 2.601 . S
Gd1177 O1221 2.362 . S
Gd1177 O1222 2.324 . S
Gd1177 O1226 2.545 . S
Gd1177 O1227 2.606 . S
Gd1177 O1229 2.429 . S
Gd1177 O1230 2.545 . S
Gd1177 O1231 2.412 . S
Gd1177 C1244 2.828 . S
C1178 C1181 1.417 . S
C1178 C1183 1.431 . S
C1178 C1184 1.412 . S
C1179 C1182 1.437 . S
C1179 C1183 1.317 . S
C1179 H1198 0.929 . S
C1180 C1181 1.426 . S
C1180 C1182 1.413 . S
C1180 N1190 1.359 . S
C1181 C1178 1.417 . S
C1181 C1180 1.426 . S
C1181 N1186 1.350 . S
C1182 C1179 1.437 . S
C1182 C1180 1.413 . S
C1182 C1192 1.391 . S
C1183 C1178 1.431 . S
C1183 C1179 1.317 . S
C1183 H1194 0.930 . S
C1184 C1178 1.412 . S
C1184 C1185 1.355 . S
C1184 H1196 0.930 . S
C1185 C1184 1.355 . S
C1185 C1187 1.402 . S
C1185 H1197 0.930 . S
N1186 Gd1177 2.661 . S
N1186 C1181 1.350 . S
N1186 C1187 1.307 . S
C1187 C1185 1.402 . S
C1187 N1186 1.307 . S
C1187 H1188 0.930 . S
H1188 C1187 0.930 . S
C1189 N1190 1.334 . S
C1189 C1191 1.394 . S
C1189 H1193 0.930 . S
N1190 Gd1177 2.601 . S
N1190 C1180 1.359 . S
N1190 C1189 1.334 . S
C1191 C1189 1.394 . S
C1191 C1192 1.359 . S
C1191 H1203 0.930 . S
C1192 C1182 1.391 . S
C1192 C1191 1.359 . S
C1192 H1204 0.929 . S
H1193 C1189 0.930 . S
H1194 C1183 0.930 . S
H1195 C1212 0.930 . S
H1196 C1184 0.930 . S
H1197 C1185 0.930 . S
H1198 C1179 0.929 . S
H1199 C1217 0.930 . S
H1200 C1208 0.930 . S
H1201 C1209 0.930 . S
H1202 C1233 0.929 . S
H1203 C1191 0.930 . S
H1204 C1192 0.929 . S
H1205 C1234 0.930 . S
H1206 C1215 0.930 . S
N1207 Gd1176 2.661 . S
N1207 C1211 1.350 . S
N1207 C1212 1.307 . S
C1208 H1200 0.930 . S
C1208 C1209 1.355 . S
C1208 C1210 1.412 . S
C1209 H1201 0.930 . S
C1209 C1208 1.355 . S
C1209 C1212 1.402 1_655 S
C1210 C1208 1.412 . S
C1210 C1211 1.417 1_655 S
C1210 C1234 1.431 . S
C1211 N1207 1.350 . S
C1211 C1210 1.417 1_455 S
C1211 C1214 1.426 . S
C1212 H1195 0.930 . S
C1212 N1207 1.307 . S
C1212 C1209 1.402 1_455 S
N1213 Gd1176 2.601 . S
N1213 C1214 1.359 . S
N1213 C1217 1.334 . S
C1214 C1211 1.426 . S
C1214 N1213 1.359 . S
C1214 C1218 1.413 1_455 S
C1215 H1206 0.930 . S
C1215 C1216 1.359 1_455 S
C1215 C1217 1.394 . S
C1216 C1215 1.359 1_655 S
C1216 C1218 1.391 . S
C1216 H1219 0.929 . S
C1217 H1199 0.930 . S
C1217 N1213 1.334 . S
C1217 C1215 1.394 . S
C1218 C1214 1.413 1_655 S
C1218 C1216 1.391 . S
C1218 C1233 1.437 . S
H1219 C1216 0.929 . S
O1220 Gd1176 2.545 . S
O1220 C1235 1.258 . S
O1221 Gd1176 2.606 . S
O1221 Gd1177 2.362 . S
O1221 C1232 1.284 . S
O1222 Gd1177 2.324 . S
O1222 C1242 1.254 . S
O1223 Gd1176 2.429 . S
O1223 C1242 1.268 . S
O1224 Gd1176 2.545 . S
O1224 C1232 1.250 . S
O1225 Gd1176 2.412 . S
O1225 C1235 1.252 . S
O1226 Gd1177 2.545 . S
O1226 C1244 1.258 . S
O1227 Gd1176 2.362 . S
O1227 Gd1177 2.606 . S
O1227 C1243 1.284 . S
O1228 Gd1176 2.324 . S
O1228 C1251 1.254 . S
O1229 Gd1177 2.429 . S
O1229 C1251 1.268 . S
O1230 Gd1177 2.545 . S
O1230 C1243 1.250 . S
O1231 Gd1177 2.412 . S
O1231 C1244 1.252 . S
C1232 O1221 1.284 . S
C1232 O1224 1.250 . S
C1233 H1202 0.929 . S
C1233 C1218 1.437 . S
C1233 C1234 1.317 . S
C1234 H1205 0.930 . S
C1234 C1210 1.431 . S
C1234 C1233 1.317 . S
C1235 Gd1176 2.828 . S
C1235 O1220 1.258 . S
C1235 O1225 1.252 . S
C1235 C1236 1.497 . S
C1236 C1235 1.497 . S
C1236 C1237 1.395 . S
C1236 C1238 1.380 . S
C1237 C1236 1.395 . S
C1237 C1240 1.398 . S
C1237 H1252 0.930 . S
C1238 C1236 1.380 . S
C1238 C1239 1.391 . S
C1238 H1253 0.930 . S
C1239 C1238 1.391 . S
C1239 C1241 1.387 . S
C1240 C1237 1.398 . S
C1240 C1241 1.380 . S
C1240 H1254 0.930 . S
C1241 C1239 1.387 . S
C1241 C1240 1.380 . S
C1241 H1255 0.930 . S
C1242 O1222 1.254 . S
C1242 O1223 1.268 . S
C1243 O1227 1.284 . S
C1243 O1230 1.250 . S
C1244 Gd1177 2.828 . S
C1244 O1226 1.258 . S
C1244 O1231 1.252 . S
C1244 C1245 1.497 . S
C1245 C1244 1.497 . S
C1245 C1246 1.395 . S
C1245 C1247 1.380 . S
C1246 C1245 1.395 . S
C1246 C1249 1.398 . S
C1246 H1256 0.930 . S
C1247 C1245 1.380 . S
C1247 C1248 1.391 . S
C1247 H1257 0.930 . S
C1248 C1247 1.391 . S
C1248 C1250 1.387 . S
C1249 C1246 1.398 . S
C1249 C1250 1.380 . S
C1249 H1258 0.930 . S
C1250 C1248 1.387 . S
C1250 C1249 1.380 . S
C1250 H1259 0.930 . S
C1251 O1228 1.254 . S
C1251 O1229 1.268 . S
H1252 C1237 0.930 . S
H1253 C1238 0.930 . S
H1254 C1240 0.930 . S
H1255 C1241 0.930 . S
H1256 C1246 0.930 . S
H1257 C1247 0.930 . S
H1258 C1249 0.930 . S
H1259 C1250 0.930 . S
Gd1260 N1291 2.661 . S
Gd1260 N1297 2.601 . S
Gd1260 O1304 2.545 . S
Gd1260 O1305 2.606 . S
Gd1260 O1307 2.429 . S
Gd1260 O1308 2.545 . S
Gd1260 O1309 2.412 . S
Gd1260 O1311 2.362 . S
Gd1260 O1312 2.324 . S
Gd1260 C1319 2.828 . S
Gd1261 N1270 2.661 . S
Gd1261 N1274 2.601 . S
Gd1261 O1305 2.362 . S
Gd1261 O1306 2.324 . S
Gd1261 O1310 2.545 . S
Gd1261 O1311 2.606 . S
Gd1261 O1313 2.429 . S
Gd1261 O1314 2.545 . S
Gd1261 O1315 2.412 . S
Gd1261 C1328 2.828 . S
C1262 C1265 1.417 . S
C1262 C1267 1.431 . S
C1262 C1268 1.412 . S
C1263 C1266 1.437 . S
C1263 C1267 1.317 . S
C1263 H1282 0.929 . S
C1264 C1265 1.426 . S
C1264 C1266 1.413 . S
C1264 N1274 1.359 . S
C1265 C1262 1.417 . S
C1265 C1264 1.426 . S
C1265 N1270 1.350 . S
C1266 C1263 1.437 . S
C1266 C1264 1.413 . S
C1266 C1276 1.391 . S
C1267 C1262 1.431 . S
C1267 C1263 1.317 . S
C1267 H1278 0.930 . S
C1268 C1262 1.412 . S
C1268 C1269 1.355 . S
C1268 H1280 0.930 . S
C1269 C1268 1.355 . S
C1269 C1271 1.402 . S
C1269 H1281 0.930 . S
N1270 Gd1261 2.661 . S
N1270 C1265 1.350 . S
N1270 C1271 1.307 . S
C1271 C1269 1.402 . S
C1271 N1270 1.307 . S
C1271 H1272 0.930 . S
H1272 C1271 0.930 . S
C1273 N1274 1.334 . S
C1273 C1275 1.394 . S
C1273 H1277 0.930 . S
N1274 Gd1261 2.601 . S
N1274 C1264 1.359 . S
N1274 C1273 1.334 . S
C1275 C1273 1.394 . S
C1275 C1276 1.359 . S
C1275 H1287 0.930 . S
C1276 C1266 1.391 . S
C1276 C1275 1.359 . S
C1276 H1288 0.929 . S
H1277 C1273 0.930 . S
H1278 C1267 0.930 . S
H1279 C1296 0.930 . S
H1280 C1268 0.930 . S
H1281 C1269 0.930 . S
H1282 C1263 0.929 . S
H1283 C1301 0.930 . S
H1284 C1292 0.930 . S
H1285 C1293 0.930 . S
H1286 C1317 0.929 . S
H1287 C1275 0.930 . S
H1288 C1276 0.929 . S
H1289 C1318 0.930 . S
H1290 C1299 0.930 . S
N1291 Gd1260 2.661 . S
N1291 C1295 1.350 . S
N1291 C1296 1.307 . S
C1292 H1284 0.930 . S
C1292 C1293 1.355 . S
C1292 C1294 1.412 . S
C1293 H1285 0.930 . S
C1293 C1292 1.355 . S
C1293 C1296 1.402 . S
C1294 C1292 1.412 . S
C1294 C1295 1.417 . S
C1294 C1318 1.431 . S
C1295 N1291 1.350 . S
C1295 C1294 1.417 . S
C1295 C1298 1.426 . S
C1296 H1279 0.930 . S
C1296 N1291 1.307 . S
C1296 C1293 1.402 . S
N1297 Gd1260 2.601 . S
N1297 C1298 1.359 . S
N1297 C1301 1.334 . S
C1298 C1295 1.426 . S
C1298 N1297 1.359 . S
C1298 C1302 1.413 . S
C1299 H1290 0.930 . S
C1299 C1300 1.359 . S
C1299 C1301 1.394 . S
C1300 C1299 1.359 . S
C1300 C1302 1.391 . S
C1300 H1303 0.929 . S
C1301 H1283 0.930 . S
C1301 N1297 1.334 . S
C1301 C1299 1.394 . S
C1302 C1298 1.413 . S
C1302 C1300 1.391 . S
C1302 C1317 1.437 . S
H1303 C1300 0.929 . S
O1304 Gd1260 2.545 . S
O1304 C1319 1.258 . S
O1305 Gd1260 2.606 . S
O1305 Gd1261 2.362 . S
O1305 C1316 1.284 . S
O1306 Gd1261 2.324 . S
O1306 C1326 1.254 . S
O1307 Gd1260 2.429 . S
O1307 C1326 1.268 . S
O1308 Gd1260 2.545 . S
O1308 C1316 1.250 . S
O1309 Gd1260 2.412 . S
O1309 C1319 1.252 . S
O1310 Gd1261 2.545 . S
O1310 C1328 1.258 . S
O1311 Gd1260 2.362 . S
O1311 Gd1261 2.606 . S
O1311 C1327 1.284 . S
O1312 Gd1260 2.324 . S
O1312 C1335 1.254 . S
O1313 Gd1261 2.429 . S
O1313 C1335 1.268 . S
O1314 Gd1261 2.545 . S
O1314 C1327 1.250 . S
O1315 Gd1261 2.412 . S
O1315 C1328 1.252 . S
C1316 O1305 1.284 . S
C1316 O1308 1.250 . S
C1317 H1286 0.929 . S
C1317 C1302 1.437 . S
C1317 C1318 1.317 . S
C1318 H1289 0.930 . S
C1318 C1294 1.431 . S
C1318 C1317 1.317 . S
C1319 Gd1260 2.828 . S
C1319 O1304 1.258 . S
C1319 O1309 1.252 . S
C1319 C1320 1.497 . S
C1320 C1319 1.497 . S
C1320 C1321 1.395 . S
C1320 C1322 1.380 . S
C1321 C1320 1.395 . S
C1321 C1324 1.398 . S
C1321 H1336 0.930 . S
C1322 C1320 1.380 . S
C1322 C1323 1.391 . S
C1322 H1337 0.930 . S
C1323 C1322 1.391 . S
C1323 C1325 1.387 . S
C1324 C1321 1.398 . S
C1324 C1325 1.380 . S
C1324 H1338 0.930 . S
C1325 C1323 1.387 . S
C1325 C1324 1.380 . S
C1325 H1339 0.930 . S
C1326 O1306 1.254 . S
C1326 O1307 1.268 . S
C1327 O1311 1.284 . S
C1327 O1314 1.250 . S
C1328 Gd1261 2.828 . S
C1328 O1310 1.258 . S
C1328 O1315 1.252 . S
C1328 C1329 1.497 . S
C1329 C1328 1.497 . S
C1329 C1330 1.395 . S
C1329 C1331 1.380 . S
C1330 C1329 1.395 . S
C1330 C1333 1.398 . S
C1330 H1340 0.930 . S
C1331 C1329 1.380 . S
C1331 C1332 1.391 . S
C1331 H1341 0.930 . S
C1332 C1331 1.391 . S
C1332 C1334 1.387 . S
C1333 C1330 1.398 . S
C1333 C1334 1.380 . S
C1333 H1342 0.930 . S
C1334 C1332 1.387 . S
C1334 C1333 1.380 . S
C1334 H1343 0.930 . S
C1335 O1312 1.254 . S
C1335 O1313 1.268 . S
H1336 C1321 0.930 . S
H1337 C1322 0.930 . S
H1338 C1324 0.930 . S
H1339 C1325 0.930 . S
H1340 C1330 0.930 . S
H1341 C1331 0.930 . S
H1342 C1333 0.930 . S
H1343 C1334 0.930 . S
Gd1344 N1375 2.661 . S
Gd1344 N1381 2.601 . S
Gd1344 O1388 2.545 . S
Gd1344 O1389 2.606 . S
Gd1344 O1391 2.429 . S
Gd1344 O1392 2.545 . S
Gd1344 O1393 2.412 . S
Gd1344 O1395 2.362 . S
Gd1344 O1396 2.324 . S
Gd1344 C1403 2.828 . S
Gd1345 N1354 2.661 . S
Gd1345 N1358 2.601 . S
Gd1345 O1389 2.362 . S
Gd1345 O1390 2.324 . S
Gd1345 O1394 2.545 . S
Gd1345 O1395 2.606 . S
Gd1345 O1397 2.429 . S
Gd1345 O1398 2.545 . S
Gd1345 O1399 2.412 . S
Gd1345 C1412 2.828 . S
C1346 C1349 1.417 . S
C1346 C1351 1.431 . S
C1346 C1352 1.412 . S
C1347 C1350 1.437 . S
C1347 C1351 1.317 . S
C1347 H1366 0.929 . S
C1348 C1349 1.426 . S
C1348 C1350 1.413 . S
C1348 N1358 1.359 . S
C1349 C1346 1.417 . S
C1349 C1348 1.426 . S
C1349 N1354 1.350 . S
C1350 C1347 1.437 . S
C1350 C1348 1.413 . S
C1350 C1360 1.391 . S
C1351 C1346 1.431 . S
C1351 C1347 1.317 . S
C1351 H1362 0.930 . S
C1352 C1346 1.412 . S
C1352 C1353 1.355 . S
C1352 H1364 0.930 . S
C1353 C1352 1.355 . S
C1353 C1355 1.402 . S
C1353 H1365 0.930 . S
N1354 Gd1345 2.661 . S
N1354 C1349 1.350 . S
N1354 C1355 1.307 . S
C1355 C1353 1.402 . S
C1355 N1354 1.307 . S
C1355 H1356 0.930 . S
H1356 C1355 0.930 . S
C1357 N1358 1.334 . S
C1357 C1359 1.394 . S
C1357 H1361 0.930 . S
N1358 Gd1345 2.601 . S
N1358 C1348 1.359 . S
N1358 C1357 1.334 . S
C1359 C1357 1.394 . S
C1359 C1360 1.359 . S
C1359 H1371 0.930 . S
C1360 C1350 1.391 . S
C1360 C1359 1.359 . S
C1360 H1372 0.929 . S
H1361 C1357 0.930 . S
H1362 C1351 0.930 . S
H1363 C1380 0.930 . S
H1364 C1352 0.930 . S
H1365 C1353 0.930 . S
H1366 C1347 0.929 . S
H1367 C1385 0.930 . S
H1368 C1376 0.930 . S
H1369 C1377 0.930 . S
H1370 C1401 0.929 . S
H1371 C1359 0.930 . S
H1372 C1360 0.929 . S
H1373 C1402 0.930 . S
H1374 C1383 0.930 . S
N1375 Gd1344 2.661 . S
N1375 C1379 1.350 . S
N1375 C1380 1.307 . S
C1376 H1368 0.930 . S
C1376 C1377 1.355 . S
C1376 C1378 1.412 . S
C1377 H1369 0.930 . S
C1377 C1376 1.355 . S
C1377 C1380 1.402 . S
C1378 C1376 1.412 . S
C1378 C1379 1.417 . S
C1378 C1402 1.431 . S
C1379 N1375 1.350 . S
C1379 C1378 1.417 . S
C1379 C1382 1.426 . S
C1380 H1363 0.930 . S
C1380 N1375 1.307 . S
C1380 C1377 1.402 . S
N1381 Gd1344 2.601 . S
N1381 C1382 1.359 . S
N1381 C1385 1.334 . S
C1382 C1379 1.426 . S
C1382 N1381 1.359 . S
C1382 C1386 1.413 . S
C1383 H1374 0.930 . S
C1383 C1384 1.359 . S
C1383 C1385 1.394 . S
C1384 C1383 1.359 . S
C1384 C1386 1.391 . S
C1384 H1387 0.929 . S
C1385 H1367 0.930 . S
C1385 N1381 1.334 . S
C1385 C1383 1.394 . S
C1386 C1382 1.413 . S
C1386 C1384 1.391 . S
C1386 C1401 1.437 . S
H1387 C1384 0.929 . S
O1388 Gd1344 2.545 . S
O1388 C1403 1.258 . S
O1389 Gd1344 2.606 . S
O1389 Gd1345 2.362 . S
O1389 C1400 1.284 . S
O1390 Gd1345 2.324 . S
O1390 C1410 1.254 . S
O1391 Gd1344 2.429 . S
O1391 C1410 1.268 . S
O1392 Gd1344 2.545 . S
O1392 C1400 1.250 . S
O1393 Gd1344 2.412 . S
O1393 C1403 1.252 . S
O1394 Gd1345 2.545 . S
O1394 C1412 1.258 . S
O1395 Gd1344 2.362 . S
O1395 Gd1345 2.606 . S
O1395 C1411 1.284 . S
O1396 Gd1344 2.324 . S
O1396 C1419 1.254 . S
O1397 Gd1345 2.429 . S
O1397 C1419 1.268 . S
O1398 Gd1345 2.545 . S
O1398 C1411 1.250 . S
O1399 Gd1345 2.412 . S
O1399 C1412 1.252 . S
C1400 O1389 1.284 . S
C1400 O1392 1.250 . S
C1401 H1370 0.929 . S
C1401 C1386 1.437 . S
C1401 C1402 1.317 . S
C1402 H1373 0.930 . S
C1402 C1378 1.431 . S
C1402 C1401 1.317 . S
C1403 Gd1344 2.828 . S
C1403 O1388 1.258 . S
C1403 O1393 1.252 . S
C1403 C1404 1.497 . S
C1404 C1403 1.497 . S
C1404 C1405 1.395 . S
C1404 C1406 1.380 . S
C1405 C1404 1.395 . S
C1405 C1408 1.398 . S
C1405 H1420 0.930 . S
C1406 C1404 1.380 . S
C1406 C1407 1.391 . S
C1406 H1421 0.930 . S
C1407 C1406 1.391 . S
C1407 C1409 1.387 . S
C1408 C1405 1.398 . S
C1408 C1409 1.380 . S
C1408 H1422 0.930 . S
C1409 C1407 1.387 . S
C1409 C1408 1.380 . S
C1409 H1423 0.930 . S
C1410 O1390 1.254 . S
C1410 O1391 1.268 . S
C1411 O1395 1.284 . S
C1411 O1398 1.250 . S
C1412 Gd1345 2.828 . S
C1412 O1394 1.258 . S
C1412 O1399 1.252 . S
C1412 C1413 1.497 . S
C1413 C1412 1.497 . S
C1413 C1414 1.395 . S
C1413 C1415 1.380 . S
C1414 C1413 1.395 . S
C1414 C1417 1.398 . S
C1414 H1424 0.930 . S
C1415 C1413 1.380 . S
C1415 C1416 1.391 . S
C1415 H1425 0.930 . S
C1416 C1415 1.391 . S
C1416 C1418 1.387 . S
C1417 C1414 1.398 . S
C1417 C1418 1.380 . S
C1417 H1426 0.930 . S
C1418 C1416 1.387 . S
C1418 C1417 1.380 . S
C1418 H1427 0.930 . S
C1419 O1396 1.254 . S
C1419 O1397 1.268 . S
H1420 C1405 0.930 . S
H1421 C1406 0.930 . S
H1422 C1408 0.930 . S
H1423 C1409 0.930 . S
H1424 C1414 0.930 . S
H1425 C1415 0.930 . S
H1426 C1417 0.930 . S
H1427 C1418 0.930 . S
Gd1428 N1459 2.661 . S
Gd1428 N1465 2.601 . S
Gd1428 O1472 2.545 . S
Gd1428 O1473 2.606 . S
Gd1428 O1475 2.429 . S
Gd1428 O1476 2.545 . S
Gd1428 O1477 2.412 . S
Gd1428 O1479 2.362 . S
Gd1428 O1480 2.324 . S
Gd1428 C1487 2.828 . S
Gd1429 N1438 2.661 . S
Gd1429 N1442 2.601 . S
Gd1429 O1473 2.362 . S
Gd1429 O1474 2.324 . S
Gd1429 O1478 2.545 . S
Gd1429 O1479 2.606 . S
Gd1429 O1481 2.429 . S
Gd1429 O1482 2.545 . S
Gd1429 O1483 2.412 . S
Gd1429 C1496 2.828 . S
C1430 C1433 1.417 . S
C1430 C1435 1.431 . S
C1430 C1436 1.412 . S
C1431 C1434 1.437 . S
C1431 C1435 1.317 . S
C1431 H1450 0.929 . S
C1432 C1433 1.426 . S
C1432 C1434 1.413 . S
C1432 N1442 1.359 . S
C1433 C1430 1.417 . S
C1433 C1432 1.426 . S
C1433 N1438 1.350 . S
C1434 C1431 1.437 . S
C1434 C1432 1.413 . S
C1434 C1444 1.391 . S
C1435 C1430 1.431 . S
C1435 C1431 1.317 . S
C1435 H1446 0.930 . S
C1436 C1430 1.412 . S
C1436 C1437 1.355 . S
C1436 H1448 0.930 . S
C1437 C1436 1.355 . S
C1437 C1439 1.402 . S
C1437 H1449 0.930 . S
N1438 Gd1429 2.661 . S
N1438 C1433 1.350 . S
N1438 C1439 1.307 . S
C1439 C1437 1.402 . S
C1439 N1438 1.307 . S
C1439 H1440 0.930 . S
H1440 C1439 0.930 . S
C1441 N1442 1.334 . S
C1441 C1443 1.394 . S
C1441 H1445 0.930 . S
N1442 Gd1429 2.601 . S
N1442 C1432 1.359 . S
N1442 C1441 1.334 . S
C1443 C1441 1.394 . S
C1443 C1444 1.359 . S
C1443 H1455 0.930 . S
C1444 C1434 1.391 . S
C1444 C1443 1.359 . S
C1444 H1456 0.929 . S
H1445 C1441 0.930 . S
H1446 C1435 0.930 . S
H1447 C1464 0.930 . S
H1448 C1436 0.930 . S
H1449 C1437 0.930 . S
H1450 C1431 0.929 . S
H1451 C1469 0.930 . S
H1452 C1460 0.930 . S
H1453 C1461 0.930 . S
H1454 C1485 0.929 . S
H1455 C1443 0.930 . S
H1456 C1444 0.929 . S
H1457 C1486 0.930 . S
H1458 C1467 0.930 . S
N1459 Gd1428 2.661 . S
N1459 C1463 1.350 . S
N1459 C1464 1.307 . S
C1460 H1452 0.930 . S
C1460 C1461 1.355 . S
C1460 C1462 1.412 . S
C1461 H1453 0.930 . S
C1461 C1460 1.355 . S
C1461 C1464 1.402 . S
C1462 C1460 1.412 . S
C1462 C1463 1.417 . S
C1462 C1486 1.431 . S
C1463 N1459 1.350 . S
C1463 C1462 1.417 . S
C1463 C1466 1.426 . S
C1464 H1447 0.930 . S
C1464 N1459 1.307 . S
C1464 C1461 1.402 . S
N1465 Gd1428 2.601 . S
N1465 C1466 1.359 . S
N1465 C1469 1.334 . S
C1466 C1463 1.426 . S
C1466 N1465 1.359 . S
C1466 C1470 1.413 . S
C1467 H1458 0.930 . S
C1467 C1468 1.359 . S
C1467 C1469 1.394 . S
C1468 C1467 1.359 . S
C1468 C1470 1.391 . S
C1468 H1471 0.929 . S
C1469 H1451 0.930 . S
C1469 N1465 1.334 . S
C1469 C1467 1.394 . S
C1470 C1466 1.413 . S
C1470 C1468 1.391 . S
C1470 C1485 1.437 . S
H1471 C1468 0.929 . S
O1472 Gd1428 2.545 . S
O1472 C1487 1.258 . S
O1473 Gd1428 2.606 . S
O1473 Gd1429 2.362 . S
O1473 C1484 1.284 . S
O1474 Gd1429 2.324 . S
O1474 C1494 1.254 . S
O1475 Gd1428 2.429 . S
O1475 C1494 1.268 . S
O1476 Gd1428 2.545 . S
O1476 C1484 1.250 . S
O1477 Gd1428 2.412 . S
O1477 C1487 1.252 . S
O1478 Gd1429 2.545 . S
O1478 C1496 1.258 . S
O1479 Gd1428 2.362 . S
O1479 Gd1429 2.606 . S
O1479 C1495 1.284 . S
O1480 Gd1428 2.324 . S
O1480 C1503 1.254 . S
O1481 Gd1429 2.429 . S
O1481 C1503 1.268 . S
O1482 Gd1429 2.545 . S
O1482 C1495 1.250 . S
O1483 Gd1429 2.412 . S
O1483 C1496 1.252 . S
C1484 O1473 1.284 . S
C1484 O1476 1.250 . S
C1485 H1454 0.929 . S
C1485 C1470 1.437 . S
C1485 C1486 1.317 . S
C1486 H1457 0.930 . S
C1486 C1462 1.431 . S
C1486 C1485 1.317 . S
C1487 Gd1428 2.828 . S
C1487 O1472 1.258 . S
C1487 O1477 1.252 . S
C1487 C1488 1.497 . S
C1488 C1487 1.497 . S
C1488 C1489 1.395 . S
C1488 C1490 1.380 . S
C1489 C1488 1.395 . S
C1489 C1492 1.398 . S
C1489 H1504 0.930 . S
C1490 C1488 1.380 . S
C1490 C1491 1.391 . S
C1490 H1505 0.930 . S
C1491 C1490 1.391 . S
C1491 C1493 1.387 . S
C1492 C1489 1.398 . S
C1492 C1493 1.380 . S
C1492 H1506 0.930 . S
C1493 C1491 1.387 . S
C1493 C1492 1.380 . S
C1493 H1507 0.930 . S
C1494 O1474 1.254 . S
C1494 O1475 1.268 . S
C1495 O1479 1.284 . S
C1495 O1482 1.250 . S
C1496 Gd1429 2.828 . S
C1496 O1478 1.258 . S
C1496 O1483 1.252 . S
C1496 C1497 1.497 . S
C1497 C1496 1.497 . S
C1497 C1498 1.395 . S
C1497 C1499 1.380 . S
C1498 C1497 1.395 . S
C1498 C1501 1.398 . S
C1498 H1508 0.930 . S
C1499 C1497 1.380 . S
C1499 C1500 1.391 . S
C1499 H1509 0.930 . S
C1500 C1499 1.391 . S
C1500 C1502 1.387 . S
C1501 C1498 1.398 . S
C1501 C1502 1.380 . S
C1501 H1510 0.930 . S
C1502 C1500 1.387 . S
C1502 C1501 1.380 . S
C1502 H1511 0.930 . S
C1503 O1480 1.254 . S
C1503 O1481 1.268 . S
H1504 C1489 0.930 . S
H1505 C1490 0.930 . S
H1506 C1492 0.930 . S
H1507 C1493 0.930 . S
H1508 C1498 0.930 . S
H1509 C1499 0.930 . S
H1510 C1501 0.930 . S
H1511 C1502 0.930 . S
Gd1512 N1543 2.661 . S
Gd1512 N1549 2.601 . S
Gd1512 O1556 2.545 . S
Gd1512 O1557 2.606 . S
Gd1512 O1559 2.429 . S
Gd1512 O1560 2.545 . S
Gd1512 O1561 2.412 . S
Gd1512 O1563 2.362 . S
Gd1512 O1564 2.324 . S
Gd1512 C1571 2.828 . S
Gd1513 N1522 2.661 . S
Gd1513 N1526 2.601 . S
Gd1513 O1557 2.362 . S
Gd1513 O1558 2.324 . S
Gd1513 O1562 2.545 . S
Gd1513 O1563 2.606 . S
Gd1513 O1565 2.429 . S
Gd1513 O1566 2.545 . S
Gd1513 O1567 2.412 . S
Gd1513 C1580 2.828 . S
C1514 C1517 1.417 . S
C1514 C1519 1.431 . S
C1514 C1520 1.412 . S
C1515 C1518 1.437 . S
C1515 C1519 1.317 . S
C1515 H1534 0.929 . S
C1516 C1517 1.426 . S
C1516 C1518 1.413 . S
C1516 N1526 1.359 . S
C1517 C1514 1.417 . S
C1517 C1516 1.426 . S
C1517 N1522 1.350 . S
C1518 C1515 1.437 . S
C1518 C1516 1.413 . S
C1518 C1528 1.391 . S
C1519 C1514 1.431 . S
C1519 C1515 1.317 . S
C1519 H1530 0.930 . S
C1520 C1514 1.412 . S
C1520 C1521 1.355 . S
C1520 H1532 0.930 . S
C1521 C1520 1.355 . S
C1521 C1523 1.402 . S
C1521 H1533 0.930 . S
N1522 Gd1513 2.661 . S
N1522 C1517 1.350 . S
N1522 C1523 1.307 . S
C1523 C1521 1.402 . S
C1523 N1522 1.307 . S
C1523 H1524 0.930 . S
H1524 C1523 0.930 . S
C1525 N1526 1.334 . S
C1525 C1527 1.394 . S
C1525 H1529 0.930 . S
N1526 Gd1513 2.601 . S
N1526 C1516 1.359 . S
N1526 C1525 1.334 . S
C1527 C1525 1.394 . S
C1527 C1528 1.359 . S
C1527 H1539 0.930 . S
C1528 C1518 1.391 . S
C1528 C1527 1.359 . S
C1528 H1540 0.929 . S
H1529 C1525 0.930 . S
H1530 C1519 0.930 . S
H1531 C1548 0.930 . S
H1532 C1520 0.930 . S
H1533 C1521 0.930 . S
H1534 C1515 0.929 . S
H1535 C1553 0.930 . S
H1536 C1544 0.930 . S
H1537 C1545 0.930 . S
H1538 C1569 0.929 . S
H1539 C1527 0.930 . S
H1540 C1528 0.929 . S
H1541 C1570 0.930 . S
H1542 C1551 0.930 . S
N1543 Gd1512 2.661 . S
N1543 C1547 1.350 . S
N1543 C1548 1.307 . S
C1544 H1536 0.930 . S
C1544 C1545 1.355 . S
C1544 C1546 1.412 . S
C1545 H1537 0.930 . S
C1545 C1544 1.355 . S
C1545 C1548 1.402 . S
C1546 C1544 1.412 . S
C1546 C1547 1.417 . S
C1546 C1570 1.431 . S
C1547 N1543 1.350 . S
C1547 C1546 1.417 . S
C1547 C1550 1.426 . S
C1548 H1531 0.930 . S
C1548 N1543 1.307 . S
C1548 C1545 1.402 . S
N1549 Gd1512 2.601 . S
N1549 C1550 1.359 . S
N1549 C1553 1.334 . S
C1550 C1547 1.426 . S
C1550 N1549 1.359 . S
C1550 C1554 1.413 . S
C1551 H1542 0.930 . S
C1551 C1552 1.359 . S
C1551 C1553 1.394 . S
C1552 C1551 1.359 . S
C1552 C1554 1.391 . S
C1552 H1555 0.929 . S
C1553 H1535 0.930 . S
C1553 N1549 1.334 . S
C1553 C1551 1.394 . S
C1554 C1550 1.413 . S
C1554 C1552 1.391 . S
C1554 C1569 1.437 . S
H1555 C1552 0.929 . S
O1556 Gd1512 2.545 . S
O1556 C1571 1.258 . S
O1557 Gd1512 2.606 . S
O1557 Gd1513 2.362 . S
O1557 C1568 1.284 . S
O1558 Gd1513 2.324 . S
O1558 C1578 1.254 . S
O1559 Gd1512 2.429 . S
O1559 C1578 1.268 . S
O1560 Gd1512 2.545 . S
O1560 C1568 1.250 . S
O1561 Gd1512 2.412 . S
O1561 C1571 1.252 . S
O1562 Gd1513 2.545 . S
O1562 C1580 1.258 . S
O1563 Gd1512 2.362 . S
O1563 Gd1513 2.606 . S
O1563 C1579 1.284 . S
O1564 Gd1512 2.324 . S
O1564 C1587 1.254 . S
O1565 Gd1513 2.429 . S
O1565 C1587 1.268 . S
O1566 Gd1513 2.545 . S
O1566 C1579 1.250 . S
O1567 Gd1513 2.412 . S
O1567 C1580 1.252 . S
C1568 O1557 1.284 . S
C1568 O1560 1.250 . S
C1569 H1538 0.929 . S
C1569 C1554 1.437 . S
C1569 C1570 1.317 . S
C1570 H1541 0.930 . S
C1570 C1546 1.431 . S
C1570 C1569 1.317 . S
C1571 Gd1512 2.828 . S
C1571 O1556 1.258 . S
C1571 O1561 1.252 . S
C1571 C1572 1.497 . S
C1572 C1571 1.497 . S
C1572 C1573 1.395 . S
C1572 C1574 1.380 . S
C1573 C1572 1.395 . S
C1573 C1576 1.398 . S
C1573 H1588 0.930 . S
C1574 C1572 1.380 . S
C1574 C1575 1.391 . S
C1574 H1589 0.930 . S
C1575 C1574 1.391 . S
C1575 C1577 1.387 . S
C1576 C1573 1.398 . S
C1576 C1577 1.380 . S
C1576 H1590 0.930 . S
C1577 C1575 1.387 . S
C1577 C1576 1.380 . S
C1577 H1591 0.930 . S
C1578 O1558 1.254 . S
C1578 O1559 1.268 . S
C1579 O1563 1.284 . S
C1579 O1566 1.250 . S
C1580 Gd1513 2.828 . S
C1580 O1562 1.258 . S
C1580 O1567 1.252 . S
C1580 C1581 1.497 . S
C1581 C1580 1.497 . S
C1581 C1582 1.395 . S
C1581 C1583 1.380 . S
C1582 C1581 1.395 . S
C1582 C1585 1.398 . S
C1582 H1592 0.930 . S
C1583 C1581 1.380 . S
C1583 C1584 1.391 . S
C1583 H1593 0.930 . S
C1584 C1583 1.391 . S
C1584 C1586 1.387 . S
C1585 C1582 1.398 . S
C1585 C1586 1.380 . S
C1585 H1594 0.930 . S
C1586 C1584 1.387 . S
C1586 C1585 1.380 . S
C1586 H1595 0.930 . S
C1587 O1564 1.254 . S
C1587 O1565 1.268 . S
H1588 C1573 0.930 . S
H1589 C1574 0.930 . S
H1590 C1576 0.930 . S
H1591 C1577 0.930 . S
H1592 C1582 0.930 . S
H1593 C1583 0.930 . S
H1594 C1585 0.930 . S
H1595 C1586 0.930 . S
Gd1596 N1627 2.661 . S
Gd1596 N1633 2.601 . S
Gd1596 O1640 2.545 . S
Gd1596 O1641 2.606 . S
Gd1596 O1643 2.429 . S
Gd1596 O1644 2.545 . S
Gd1596 O1645 2.412 1_455 S
Gd1596 O1647 2.362 . S
Gd1596 O1648 2.316 1_554 S
Gd1596 C1655 2.828 1_455 S
Gd1597 N1606 2.661 . S
Gd1597 N1610 2.601 1_554 S
Gd1597 O1641 2.362 . S
Gd1597 O1642 2.324 . S
Gd1597 O1646 2.545 1_554 S
Gd1597 O1647 2.606 . S
Gd1597 O1649 2.429 1_554 S
Gd1597 O1650 2.545 . S
Gd1597 O1651 2.412 . S
Gd1597 C1664 2.815 1_554 S
C1598 C1601 1.417 . S
C1598 C1603 1.431 . S
C1598 C1604 1.412 . S
C1599 C1602 1.437 . S
C1599 C1603 1.317 1_556 S
C1599 H1618 0.929 . S
C1600 C1601 1.426 1_556 S
C1600 C1602 1.413 . S
C1600 N1610 1.359 . S
C1601 C1598 1.417 . S
C1601 C1600 1.426 1_554 S
C1601 N1606 1.350 . S
C1602 C1599 1.437 . S
C1602 C1600 1.413 . S
C1602 C1612 1.391 . S
C1603 C1598 1.431 . S
C1603 C1599 1.317 1_554 S
C1603 H1614 0.930 . S
C1604 C1598 1.412 . S
C1604 C1605 1.355 . S
C1604 H1616 0.930 . S
C1605 C1604 1.355 . S
C1605 C1607 1.402 . S
C1605 H1617 0.930 . S
N1606 Gd1597 2.661 . S
N1606 C1601 1.350 . S
N1606 C1607 1.307 . S
C1607 C1605 1.402 . S
C1607 N1606 1.307 . S
C1607 H1608 0.930 . S
H1608 C1607 0.930 . S
C1609 N1610 1.334 . S
C1609 C1611 1.394 . S
C1609 H1613 0.930 . S
N1610 Gd1597 2.601 1_556 S
N1610 C1600 1.359 . S
N1610 C1609 1.334 . S
C1611 C1609 1.394 . S
C1611 C1612 1.359 . S
C1611 H1623 0.930 . S
C1612 C1602 1.391 . S
C1612 C1611 1.359 . S
C1612 H1624 0.929 . S
H1613 C1609 0.930 . S
H1614 C1603 0.930 . S
H1615 C1632 0.930 1_455 S
H1616 C1604 0.930 . S
H1617 C1605 0.930 . S
H1618 C1599 0.929 . S
H1619 C1637 0.930 . S
H1620 C1628 0.937 . S
H1621 C1629 0.930 . S
H1622 C1653 0.929 . S
H1623 C1611 0.930 . S
H1624 C1612 0.929 . S
H1625 C1654 0.930 . S
H1626 C1635 0.930 . S
N1627 Gd1596 2.661 . S
N1627 C1631 1.350 1_455 S
N1627 C1632 1.307 1_454 S
C1628 H1620 0.937 . S
C1628 C1629 1.376 . S
C1628 C1630 1.384 1_556 S
C1629 H1621 0.930 . S
C1629 C1628 1.376 . S
C1629 C1632 1.402 . S
C1630 C1628 1.384 1_554 S
C1630 C1631 1.417 . S
C1630 C1654 1.431 . S
C1631 N1627 1.350 1_655 S
C1631 C1630 1.417 . S
C1631 C1634 1.426 . S
C1632 H1615 0.930 1_655 S
C1632 N1627 1.307 1_656 S
C1632 C1629 1.402 . S
N1633 Gd1596 2.601 . S
N1633 C1634 1.359 1_455 S
N1633 C1637 1.334 . S
C1634 C1631 1.426 . S
C1634 N1633 1.359 1_655 S
C1634 C1638 1.413 . S
C1635 H1626 0.930 . S
C1635 C1636 1.359 1_455 S
C1635 C1637 1.394 . S
C1636 C1635 1.359 1_655 S
C1636 C1638 1.391 . S
C1636 H1639 0.929 . S
C1637 H1619 0.930 . S
C1637 N1633 1.334 . S
C1637 C1635 1.394 . S
C1638 C1634 1.413 . S
C1638 C1636 1.391 . S
C1638 C1653 1.437 . S
H1639 C1636 0.929 . S
O1640 Gd1596 2.545 . S
O1640 C1655 1.258 1_455 S
O1641 Gd1596 2.606 . S
O1641 Gd1597 2.362 . S
O1641 C1652 1.284 . S
O1642 Gd1597 2.324 . S
O1642 C1662 1.254 . S
O1643 Gd1596 2.429 . S
O1643 C1662 1.268 . S
O1644 Gd1596 2.545 . S
O1644 C1652 1.250 . S
O1645 Gd1596 2.412 1_655 S
O1645 C1655 1.252 . S
O1646 Gd1597 2.545 1_556 S
O1646 C1664 1.300 . S
O1647 Gd1596 2.362 . S
O1647 Gd1597 2.606 . S
O1647 C1663 1.284 . S
O1648 Gd1596 2.316 1_556 S
O1648 C1671 1.260 . S
O1649 Gd1597 2.429 1_556 S
O1649 C1671 1.268 . S
O1650 Gd1597 2.545 . S
O1650 C1663 1.250 . S
O1651 Gd1597 2.412 . S
O1651 C1664 1.200 1_554 S
C1652 O1641 1.284 . S
C1652 O1644 1.250 . S
C1653 H1622 0.929 . S
C1653 C1638 1.437 . S
C1653 C1654 1.317 . S
C1654 H1625 0.930 . S
C1654 C1630 1.431 . S
C1654 C1653 1.317 . S
C1655 Gd1596 2.828 1_655 S
C1655 O1640 1.258 1_655 S
C1655 O1645 1.252 . S
C1655 C1656 1.497 . S
C1656 C1655 1.497 . S
C1656 C1657 1.395 . S
C1656 C1658 1.380 . S
C1657 C1656 1.395 . S
C1657 C1660 1.398 . S
C1657 H1672 0.930 . S
C1658 C1656 1.380 . S
C1658 C1659 1.391 . S
C1658 H1673 0.930 . S
C1659 C1658 1.391 . S
C1659 C1661 1.387 . S
C1660 C1657 1.398 . S
C1660 C1661 1.380 . S
C1660 H1674 0.930 . S
C1661 C1659 1.387 . S
C1661 C1660 1.380 . S
C1661 H1675 0.930 . S
C1662 O1642 1.254 . S
C1662 O1643 1.268 . S
C1663 O1647 1.284 . S
C1663 O1650 1.250 . S
C1664 Gd1597 2.815 1_556 S
C1664 O1646 1.300 . S
C1664 O1651 1.200 1_556 S
C1664 C1665 1.508 . S
C1665 C1664 1.508 . S
C1665 C1666 1.395 . S
C1665 C1667 1.380 1_556 S
C1666 C1665 1.395 . S
C1666 C1669 1.398 . S
C1666 H1676 0.930 . S
C1667 C1665 1.380 1_554 S
C1667 C1668 1.391 . S
C1667 H1677 0.930 . S
C1668 C1667 1.391 . S
C1668 C1670 1.387 1_554 S
C1669 C1666 1.398 . S
C1669 C1670 1.380 . S
C1669 H1678 0.930 . S
C1670 C1668 1.387 1_556 S
C1670 C1669 1.380 . S
C1670 H1679 0.930 . S
C1671 O1648 1.260 . S
C1671 O1649 1.268 . S
H1672 C1657 0.930 . S
H1673 C1658 0.930 . S
H1674 C1660 0.930 . S
H1675 C1661 0.930 . S
H1676 C1666 0.930 . S
H1677 C1667 0.930 . S
H1678 C1669 0.930 . S
H1679 C1670 0.930 . S
H1680 C1688 0.929 . S
H1681 C1690 0.930 . S
H1682 C1692 0.930 . S
H1683 C1695 0.929 . S
H1684 C1698 0.930 . S
H1685 C1700 0.960 . S
H1686 C1700 0.960 . S
H1687 C1700 0.960 . S
C1688 H1680 0.929 . S
C1688 C1689 1.377 . S
C1688 C1690 1.384 . S
C1689 C1688 1.377 . S
C1689 C1695 1.390 . S
C1690 H1681 0.930 . S
C1690 C1688 1.384 . S
C1690 C1691 1.372 . S
C1691 C1690 1.372 . S
C1691 C1692 1.400 . S
C1691 C1696 1.490 . S
C1692 H1682 0.930 . S
C1692 C1691 1.400 . S
C1692 C1695 1.386 . S
H1693 C1709 0.930 . S
H1694 C1710 0.931 . S
C1695 H1683 0.929 . S
C1695 C1689 1.390 . S
C1695 C1692 1.386 . S
C1696 C1691 1.490 . S
C1696 C1698 1.395 . S
C1696 C1699 1.403 . S
H1697 C1703 0.930 . S
C1698 H1684 0.930 . S
C1698 C1696 1.395 . S
C1698 C1701 1.403 1_556 S
C1699 C1696 1.403 . S
C1699 C1700 1.524 . S
C1699 C1703 1.400 . S
C1700 H1685 0.960 . S
C1700 H1686 0.960 . S
C1700 H1687 0.960 . S
C1700 C1699 1.524 . S
C1701 C1698 1.403 1_554 S
C1701 C1702 1.392 1_554 S
C1701 C1705 1.495 . S
C1702 C1701 1.392 1_556 S
C1702 C1703 1.385 . S
C1702 C1704 1.478 1_556 S
C1703 H1697 0.930 . S
C1703 C1699 1.400 . S
C1703 C1702 1.385 . S
C1704 C1702 1.478 1_554 S
C1704 C1706 1.381 . S
C1704 C1710 1.383 1_554 S
C1705 C1701 1.495 . S
C1705 H1711 0.959 1_455 S
C1705 H1712 0.961 1_455 S
C1705 H1713 0.960 . S
C1706 C1704 1.381 . S
C1706 C1707 1.394 . S
C1706 H1714 0.930 . S
C1707 C1706 1.394 . S
C1707 C1708 1.383 . S
C1707 H1715 0.929 . S
C1708 C1707 1.383 . S
C1708 C1709 1.377 1_554 S
C1709 H1693 0.930 . S
C1709 C1708 1.377 1_556 S
C1709 C1710 1.379 . S
C1710 H1694 0.931 . S
C1710 C1704 1.383 1_556 S
C1710 C1709 1.379 . S
H1711 C1705 0.959 1_655 S
H1712 C1705 0.961 1_655 S
H1713 C1705 0.960 . S
H1714 C1706 0.930 . S
H1715 C1707 0.929 . S
H1716 C1724 0.929 . S
H1717 C1726 0.930 . S
H1718 C1728 0.930 . S
H1719 C1731 0.929 . S
H1720 C1734 0.930 . S
H1721 C1736 0.960 . S
H1722 C1736 0.960 . S
H1723 C1736 0.960 . S
C1724 H1716 0.929 . S
C1724 C1725 1.377 . S
C1724 C1726 1.384 . S
C1725 C1724 1.377 . S
C1725 C1731 1.390 . S
C1726 H1717 0.930 . S
C1726 C1724 1.384 . S
C1726 C1727 1.372 . S
C1727 C1726 1.372 . S
C1727 C1728 1.400 . S
C1727 C1732 1.490 . S
C1728 H1718 0.930 . S
C1728 C1727 1.400 . S
C1728 C1731 1.386 . S
H1729 C1745 0.930 . S
H1730 C1746 0.931 . S
C1731 H1719 0.929 . S
C1731 C1725 1.390 . S
C1731 C1728 1.386 . S
C1732 C1727 1.490 . S
C1732 C1734 1.395 . S
C1732 C1735 1.403 . S
H1733 C1739 0.930 . S
C1734 H1720 0.930 . S
C1734 C1732 1.395 . S
C1734 C1737 1.403 . S
C1735 C1732 1.403 . S
C1735 C1736 1.524 . S
C1735 C1739 1.400 . S
C1736 H1721 0.960 . S
C1736 H1722 0.960 . S
C1736 H1723 0.960 . S
C1736 C1735 1.524 . S
C1737 C1734 1.403 . S
C1737 C1738 1.392 . S
C1737 C1741 1.495 . S
C1738 C1737 1.392 . S
C1738 C1739 1.385 . S
C1738 C1740 1.478 . S
C1739 H1733 0.930 . S
C1739 C1735 1.400 . S
C1739 C1738 1.385 . S
C1740 C1738 1.478 . S
C1740 C1742 1.381 . S
C1740 C1746 1.383 . S
C1741 C1737 1.495 . S
C1741 H1747 0.959 . S
C1741 H1748 0.961 . S
C1741 H1749 0.960 . S
C1742 C1740 1.381 . S
C1742 C1743 1.394 . S
C1742 H1750 0.930 . S
C1743 C1742 1.394 . S
C1743 C1744 1.383 . S
C1743 H1751 0.929 . S
C1744 C1743 1.383 . S
C1744 C1745 1.377 . S
C1745 H1729 0.930 . S
C1745 C1744 1.377 . S
C1745 C1746 1.379 . S
C1746 H1730 0.931 . S
C1746 C1740 1.383 . S
C1746 C1745 1.379 . S
H1747 C1741 0.959 . S
H1748 C1741 0.961 . S
H1749 C1741 0.960 . S
H1750 C1742 0.930 . S
H1751 C1743 0.929 . S
H1752 C1760 0.929 . S
H1753 C1762 0.930 . S
H1754 C1764 0.930 . S
H1755 C1767 0.929 . S
H1756 C1770 0.930 . S
H1757 C1772 0.960 . S
H1758 C1772 0.960 . S
H1759 C1772 0.960 . S
C1760 H1752 0.929 . S
C1760 C1761 1.377 . S
C1760 C1762 1.384 . S
C1761 C1760 1.377 . S
C1761 C1767 1.390 . S
C1762 H1753 0.930 . S
C1762 C1760 1.384 . S
C1762 C1763 1.372 . S
C1763 C1762 1.372 . S
C1763 C1764 1.400 . S
C1763 C1768 1.490 . S
C1764 H1754 0.930 . S
C1764 C1763 1.400 . S
C1764 C1767 1.386 . S
H1765 C1781 0.930 . S
H1766 C1782 0.931 . S
C1767 H1755 0.929 . S
C1767 C1761 1.390 . S
C1767 C1764 1.386 . S
C1768 C1763 1.490 . S
C1768 C1770 1.395 . S
C1768 C1771 1.403 . S
H1769 C1775 0.930 . S
C1770 H1756 0.930 . S
C1770 C1768 1.395 . S
C1770 C1773 1.403 . S
C1771 C1768 1.403 . S
C1771 C1772 1.524 . S
C1771 C1775 1.400 . S
C1772 H1757 0.960 . S
C1772 H1758 0.960 . S
C1772 H1759 0.960 . S
C1772 C1771 1.524 . S
C1773 C1770 1.403 . S
C1773 C1774 1.392 . S
C1773 C1777 1.495 . S
C1774 C1773 1.392 . S
C1774 C1775 1.385 . S
C1774 C1776 1.478 . S
C1775 H1769 0.930 . S
C1775 C1771 1.400 . S
C1775 C1774 1.385 . S
C1776 C1774 1.478 . S
C1776 C1778 1.381 . S
C1776 C1782 1.383 . S
C1777 C1773 1.495 . S
C1777 H1783 0.959 . S
C1777 H1784 0.961 . S
C1777 H1785 0.960 . S
C1778 C1776 1.381 . S
C1778 C1779 1.394 . S
C1778 H1786 0.930 . S
C1779 C1778 1.394 . S
C1779 C1780 1.383 . S
C1779 H1787 0.929 . S
C1780 C1779 1.383 . S
C1780 C1781 1.377 . S
C1781 H1765 0.930 . S
C1781 C1780 1.377 . S
C1781 C1782 1.379 . S
C1782 H1766 0.931 . S
C1782 C1776 1.383 . S
C1782 C1781 1.379 . S
H1783 C1777 0.959 . S
H1784 C1777 0.961 . S
H1785 C1777 0.960 . S
H1786 C1778 0.930 . S
H1787 C1779 0.929 . S
H1788 C1796 0.929 . S
H1789 C1798 0.930 . S
H1790 C1800 0.930 . S
H1791 C1803 0.929 . S
H1792 C1806 0.930 . S
H1793 C1808 0.960 . S
H1794 C1808 0.960 . S
H1795 C1808 0.960 . S
C1796 H1788 0.929 . S
C1796 C1797 1.377 . S
C1796 C1798 1.384 . S
C1797 C1796 1.377 . S
C1797 C1803 1.390 . S
C1798 H1789 0.930 . S
C1798 C1796 1.384 . S
C1798 C1799 1.372 . S
C1799 C1798 1.372 . S
C1799 C1800 1.400 . S
C1799 C1804 1.490 . S
C1800 H1790 0.930 . S
C1800 C1799 1.400 . S
C1800 C1803 1.386 . S
H1801 C1817 0.930 . S
H1802 C1818 0.931 . S
C1803 H1791 0.929 . S
C1803 C1797 1.390 . S
C1803 C1800 1.386 . S
C1804 C1799 1.490 . S
C1804 C1806 1.395 . S
C1804 C1807 1.403 . S
H1805 C1811 0.930 . S
C1806 H1792 0.930 . S
C1806 C1804 1.395 . S
C1806 C1809 1.403 . S
C1807 C1804 1.403 . S
C1807 C1808 1.524 . S
C1807 C1811 1.400 . S
C1808 H1793 0.960 . S
C1808 H1794 0.960 . S
C1808 H1795 0.960 . S
C1808 C1807 1.524 . S
C1809 C1806 1.403 . S
C1809 C1810 1.392 . S
C1809 C1813 1.495 . S
C1810 C1809 1.392 . S
C1810 C1811 1.385 . S
C1810 C1812 1.478 . S
C1811 H1805 0.930 . S
C1811 C1807 1.400 . S
C1811 C1810 1.385 . S
C1812 C1810 1.478 . S
C1812 C1814 1.381 . S
C1812 C1818 1.383 . S
C1813 C1809 1.495 . S
C1813 H1819 0.959 . S
C1813 H1820 0.961 . S
C1813 H1821 0.960 . S
C1814 C1812 1.381 . S
C1814 C1815 1.394 . S
C1814 H1822 0.930 . S
C1815 C1814 1.394 . S
C1815 C1816 1.383 . S
C1815 H1823 0.929 . S
C1816 C1815 1.383 . S
C1816 C1817 1.377 . S
C1817 H1801 0.930 . S
C1817 C1816 1.377 . S
C1817 C1818 1.379 . S
C1818 H1802 0.931 . S
C1818 C1812 1.383 . S
C1818 C1817 1.379 . S
H1819 C1813 0.959 . S
H1820 C1813 0.961 . S
H1821 C1813 0.960 . S
H1822 C1814 0.930 . S
H1823 C1815 0.929 . S
H1824 C1832 0.919 1_655 S
H1825 C1834 0.914 1_655 S
H1826 C1836 0.930 . S
H1827 C1839 0.929 . S
H1828 C1842 0.930 1_655 S
H1829 C1844 0.960 . S
H1830 C1844 0.960 . S
H1831 C1844 0.960 . S
C1832 H1824 0.919 1_455 S
C1832 C1833 1.386 . S
C1832 C1834 1.386 . S
C1833 C1832 1.386 . S
C1833 C1839 1.390 . S
C1834 H1825 0.914 1_455 S
C1834 C1832 1.386 . S
C1834 C1835 1.372 . S
C1835 C1834 1.372 . S
C1835 C1836 1.400 . S
C1835 C1840 1.490 . S
C1836 H1826 0.930 . S
C1836 C1835 1.400 . S
C1836 C1839 1.386 . S
H1837 C1853 0.930 . S
H1838 C1854 0.931 . S
C1839 H1827 0.929 . S
C1839 C1833 1.390 . S
C1839 C1836 1.386 . S
C1840 C1835 1.490 . S
C1840 C1842 1.395 . S
C1840 C1843 1.403 . S
H1841 C1847 0.930 . S
C1842 H1828 0.930 1_455 S
C1842 C1840 1.395 . S
C1842 C1845 1.403 . S
C1843 C1840 1.403 . S
C1843 C1844 1.524 . S
C1843 C1847 1.400 . S
C1844 H1829 0.960 . S
C1844 H1830 0.960 . S
C1844 H1831 0.960 . S
C1844 C1843 1.524 . S
C1845 C1842 1.403 . S
C1845 C1846 1.392 . S
C1845 C1849 1.495 1_455 S
C1846 C1845 1.392 . S
C1846 C1847 1.385 . S
C1846 C1848 1.478 . S
C1847 H1841 0.930 . S
C1847 C1843 1.400 . S
C1847 C1846 1.385 . S
C1848 C1846 1.478 . S
C1848 C1850 1.381 . S
C1848 C1854 1.383 . S
C1849 C1845 1.495 1_655 S
C1849 H1855 0.959 . S
C1849 H1856 0.961 . S
C1849 H1857 0.960 . S
C1850 C1848 1.381 . S
C1850 C1851 1.394 . S
C1850 H1858 0.930 . S
C1851 C1850 1.394 . S
C1851 C1852 1.383 . S
C1851 H1859 0.929 . S
C1852 C1851 1.383 . S
C1852 C1853 1.377 . S
C1853 H1837 0.930 . S
C1853 C1852 1.377 . S
C1853 C1854 1.379 . S
C1854 H1838 0.931 . S
C1854 C1848 1.383 . S
C1854 C1853 1.379 . S
H1855 C1849 0.959 . S
H1856 C1849 0.961 . S
H1857 C1849 0.960 . S
H1858 C1850 0.930 . S
H1859 C1851 0.929 . S
H1860 C1868 0.929 . S
H1861 C1870 0.930 . S
H1862 C1872 0.930 . S
H1863 C1875 0.929 . S
H1864 C1878 0.930 . S
H1865 C1880 0.960 . S
H1866 C1880 0.960 . S
H1867 C1880 0.960 . S
C1868 H1860 0.929 . S
C1868 C1869 1.377 . S
C1868 C1870 1.384 . S
C1869 C1868 1.377 . S
C1869 C1875 1.390 . S
C1870 H1861 0.930 . S
C1870 C1868 1.384 . S
C1870 C1871 1.372 . S
C1871 C1870 1.372 . S
C1871 C1872 1.400 . S
C1871 C1876 1.490 . S
C1872 H1862 0.930 . S
C1872 C1871 1.400 . S
C1872 C1875 1.386 . S
H1873 C1889 0.930 . S
H1874 C1890 0.931 . S
C1875 H1863 0.929 . S
C1875 C1869 1.390 . S
C1875 C1872 1.386 . S
C1876 C1871 1.490 . S
C1876 C1878 1.395 . S
C1876 C1879 1.403 . S
H1877 C1883 0.930 . S
C1878 H1864 0.930 . S
C1878 C1876 1.395 . S
C1878 C1881 1.403 . S
C1879 C1876 1.403 . S
C1879 C1880 1.524 . S
C1879 C1883 1.400 . S
C1880 H1865 0.960 . S
C1880 H1866 0.960 . S
C1880 H1867 0.960 . S
C1880 C1879 1.524 . S
C1881 C1878 1.403 . S
C1881 C1882 1.392 . S
C1881 C1885 1.495 . S
C1882 C1881 1.392 . S
C1882 C1883 1.385 . S
C1882 C1884 1.478 . S
C1883 H1877 0.930 . S
C1883 C1879 1.400 . S
C1883 C1882 1.385 . S
C1884 C1882 1.478 . S
C1884 C1886 1.381 . S
C1884 C1890 1.383 . S
C1885 C1881 1.495 . S
C1885 H1891 0.959 . S
C1885 H1892 0.961 . S
C1885 H1893 0.960 . S
C1886 C1884 1.381 . S
C1886 C1887 1.394 . S
C1886 H1894 0.930 . S
C1887 C1886 1.394 . S
C1887 C1888 1.383 . S
C1887 H1895 0.929 . S
C1888 C1887 1.383 . S
C1888 C1889 1.377 . S
C1889 H1873 0.930 . S
C1889 C1888 1.377 . S
C1889 C1890 1.379 . S
C1890 H1874 0.931 . S
C1890 C1884 1.383 . S
C1890 C1889 1.379 . S
H1891 C1885 0.959 . S
H1892 C1885 0.961 . S
H1893 C1885 0.960 . S
H1894 C1886 0.930 . S
H1895 C1887 0.929 . S
H1896 C1904 0.929 . S
H1897 C1906 0.930 . S
H1898 C1908 0.930 . S
H1899 C1911 0.929 . S
H1900 C1914 0.930 . S
H1901 C1916 0.960 . S
H1902 C1916 0.960 . S
H1903 C1916 0.960 . S
C1904 H1896 0.929 . S
C1904 C1905 1.377 . S
C1904 C1906 1.384 . S
C1905 C1904 1.377 . S
C1905 C1911 1.390 . S
C1906 H1897 0.930 . S
C1906 C1904 1.384 . S
C1906 C1907 1.372 . S
C1907 C1906 1.372 . S
C1907 C1908 1.400 . S
C1907 C1912 1.490 . S
C1908 H1898 0.930 . S
C1908 C1907 1.400 . S
C1908 C1911 1.386 . S
H1909 C1925 0.930 . S
H1910 C1926 0.931 . S
C1911 H1899 0.929 . S
C1911 C1905 1.390 . S
C1911 C1908 1.386 . S
C1912 C1907 1.490 . S
C1912 C1914 1.395 . S
C1912 C1915 1.403 . S
H1913 C1919 0.930 . S
C1914 H1900 0.930 . S
C1914 C1912 1.395 . S
C1914 C1917 1.403 . S
C1915 C1912 1.403 . S
C1915 C1916 1.524 . S
C1915 C1919 1.400 . S
C1916 H1901 0.960 . S
C1916 H1902 0.960 . S
C1916 H1903 0.960 . S
C1916 C1915 1.524 . S
C1917 C1914 1.403 . S
C1917 C1918 1.392 . S
C1917 C1921 1.495 . S
C1918 C1917 1.392 . S
C1918 C1919 1.385 . S
C1918 C1920 1.478 . S
C1919 H1913 0.930 . S
C1919 C1915 1.400 . S
C1919 C1918 1.385 . S
C1920 C1918 1.478 . S
C1920 C1922 1.381 . S
C1920 C1926 1.383 . S
C1921 C1917 1.495 . S
C1921 H1927 0.959 . S
C1921 H1928 0.961 . S
C1921 H1929 0.960 . S
C1922 C1920 1.381 . S
C1922 C1923 1.394 . S
C1922 H1930 0.930 . S
C1923 C1922 1.394 . S
C1923 C1924 1.383 . S
C1923 H1931 0.929 . S
C1924 C1923 1.383 . S
C1924 C1925 1.377 . S
C1925 H1909 0.930 . S
C1925 C1924 1.377 . S
C1925 C1926 1.379 . S
C1926 H1910 0.931 . S
C1926 C1920 1.383 . S
C1926 C1925 1.379 . S
H1927 C1921 0.959 . S
H1928 C1921 0.961 . S
H1929 C1921 0.960 . S
H1930 C1922 0.930 . S
H1931 C1923 0.929 . S
H1932 C1940 0.929 . S
H1933 C1942 0.930 . S
H1934 C1944 0.930 . S
H1935 C1947 0.929 . S
H1936 C1950 0.930 . S
H1937 C1952 0.960 . S
H1938 C1952 0.960 . S
H1939 C1952 0.960 . S
C1940 H1932 0.929 . S
C1940 C1941 1.377 . S
C1940 C1942 1.384 . S
C1941 C1940 1.377 . S
C1941 C1947 1.390 . S
C1942 H1933 0.930 . S
C1942 C1940 1.384 . S
C1942 C1943 1.372 . S
C1943 C1942 1.372 . S
C1943 C1944 1.400 . S
C1943 C1948 1.490 . S
C1944 H1934 0.930 . S
C1944 C1943 1.400 . S
C1944 C1947 1.386 . S
H1945 C1961 0.930 . S
H1946 C1962 0.931 . S
C1947 H1935 0.929 . S
C1947 C1941 1.390 . S
C1947 C1944 1.386 . S
C1948 C1943 1.490 . S
C1948 C1950 1.395 . S
C1948 C1951 1.403 . S
H1949 C1955 0.930 . S
C1950 H1936 0.930 . S
C1950 C1948 1.395 . S
C1950 C1953 1.403 . S
C1951 C1948 1.403 . S
C1951 C1952 1.524 . S
C1951 C1955 1.400 . S
C1952 H1937 0.960 . S
C1952 H1938 0.960 . S
C1952 H1939 0.960 . S
C1952 C1951 1.524 . S
C1953 C1950 1.403 . S
C1953 C1954 1.392 . S
C1953 C1957 1.495 . S
C1954 C1953 1.392 . S
C1954 C1955 1.385 . S
C1954 C1956 1.478 . S
C1955 H1949 0.930 . S
C1955 C1951 1.400 . S
C1955 C1954 1.385 . S
C1956 C1954 1.478 . S
C1956 C1958 1.381 . S
C1956 C1962 1.383 . S
C1957 C1953 1.495 . S
C1957 H1963 0.959 . S
C1957 H1964 0.961 . S
C1957 H1965 0.960 . S
C1958 C1956 1.381 . S
C1958 C1959 1.394 . S
C1958 H1966 0.930 . S
C1959 C1958 1.394 . S
C1959 C1960 1.383 . S
C1959 H1967 0.929 . S
C1960 C1959 1.383 . S
C1960 C1961 1.377 . S
C1961 H1945 0.930 . S
C1961 C1960 1.377 . S
C1961 C1962 1.379 . S
C1962 H1946 0.931 . S
C1962 C1956 1.383 . S
C1962 C1961 1.379 . S
H1963 C1957 0.959 . S
H1964 C1957 0.961 . S
H1965 C1957 0.960 . S
H1966 C1958 0.930 . S
H1967 C1959 0.929 . S
H1968 C1976 0.929 . S
H1969 C1978 0.930 . S
H1970 C1980 0.930 . S
H1971 C1983 0.929 . S
H1972 C1986 0.930 . S
H1973 C1988 0.960 . S
H1974 C1988 0.960 . S
H1975 C1988 0.960 . S
C1976 H1968 0.929 . S
C1976 C1977 1.377 . S
C1976 C1978 1.384 . S
C1977 C1976 1.377 . S
C1977 C1983 1.390 . S
C1978 H1969 0.930 . S
C1978 C1976 1.384 . S
C1978 C1979 1.372 . S
C1979 C1978 1.372 . S
C1979 C1980 1.400 . S
C1979 C1984 1.490 . S
C1980 H1970 0.930 . S
C1980 C1979 1.400 . S
C1980 C1983 1.386 . S
H1981 C1997 0.930 . S
H1982 C1998 0.931 . S
C1983 H1971 0.929 . S
C1983 C1977 1.390 . S
C1983 C1980 1.386 . S
C1984 C1979 1.490 . S
C1984 C1986 1.395 . S
C1984 C1987 1.403 1_655 S
H1985 C1991 0.930 . S
C1986 H1972 0.930 . S
C1986 C1984 1.395 . S
C1986 C1989 1.403 . S
C1987 C1984 1.403 1_455 S
C1987 C1988 1.524 . S
C1987 C1991 1.400 . S
C1988 H1973 0.960 . S
C1988 H1974 0.960 . S
C1988 H1975 0.960 . S
C1988 C1987 1.524 . S
C1989 C1986 1.403 . S
C1989 C1990 1.392 . S
C1989 C1993 1.495 . S
C1990 C1989 1.392 . S
C1990 C1991 1.385 1_655 S
C1990 C1992 1.478 1_655 S
C1991 H1985 0.930 . S
C1991 C1987 1.400 . S
C1991 C1990 1.385 1_455 S
C1992 C1990 1.478 1_455 S
C1992 C1994 1.381 . S
C1992 C1998 1.383 . S
C1993 C1989 1.495 . S
C1993 H1999 0.959 . S
C1993 H2000 0.961 . S
C1993 H2001 0.960 . S
C1994 C1992 1.381 . S
C1994 C1995 1.394 . S
C1994 H2002 0.929 1_455 S
C1995 C1994 1.394 . S
C1995 C1996 1.383 . S
C1995 H2003 0.929 . S
C1996 C1995 1.383 . S
C1996 C1997 1.377 . S
C1997 H1981 0.930 . S
C1997 C1996 1.377 . S
C1997 C1998 1.379 . S
C1998 H1982 0.931 . S
C1998 C1992 1.383 . S
C1998 C1997 1.379 . S
H1999 C1993 0.959 . S
H2000 C1993 0.961 . S
H2001 C1993 0.960 . S
H2002 C1994 0.929 1_655 S
H2003 C1995 0.929 . S
H2004 C2012 0.929 . S
H2005 C2014 0.930 . S
H2006 C2016 0.930 . S
H2007 C2019 0.929 . S
H2008 C2022 0.930 . S
H2009 C2024 0.960 . S
H2010 C2024 0.960 . S
H2011 C2024 0.960 . S
C2012 H2004 0.929 . S
C2012 C2013 1.377 . S
C2012 C2014 1.384 . S
C2013 C2012 1.377 . S
C2013 C2019 1.390 . S
C2014 H2005 0.930 . S
C2014 C2012 1.384 . S
C2014 C2015 1.372 . S
C2015 C2014 1.372 . S
C2015 C2016 1.400 . S
C2015 C2020 1.490 . S
C2016 H2006 0.930 . S
C2016 C2015 1.400 . S
C2016 C2019 1.386 . S
H2017 C2033 0.930 . S
H2018 C2034 0.931 . S
C2019 H2007 0.929 . S
C2019 C2013 1.390 . S
C2019 C2016 1.386 . S
C2020 C2015 1.490 . S
C2020 C2022 1.395 . S
C2020 C2023 1.403 . S
H2021 C2027 0.930 . S
C2022 H2008 0.930 . S
C2022 C2020 1.395 . S
C2022 C2025 1.403 . S
C2023 C2020 1.403 . S
C2023 C2024 1.524 . S
C2023 C2027 1.400 . S
C2024 H2009 0.960 . S
C2024 H2010 0.960 . S
C2024 H2011 0.960 . S
C2024 C2023 1.524 . S
C2025 C2022 1.403 . S
C2025 C2026 1.392 . S
C2025 C2029 1.495 . S
C2026 C2025 1.392 . S
C2026 C2027 1.385 . S
C2026 C2028 1.478 . S
C2027 H2021 0.930 . S
C2027 C2023 1.400 . S
C2027 C2026 1.385 . S
C2028 C2026 1.478 . S
C2028 C2030 1.381 . S
C2028 C2034 1.383 . S
C2029 C2025 1.495 . S
C2029 H2035 0.959 . S
C2029 H2036 0.961 . S
C2029 H2037 0.960 . S
C2030 C2028 1.381 . S
C2030 C2031 1.394 . S
C2030 H2038 0.930 . S
C2031 C2030 1.394 . S
C2031 C2032 1.383 . S
C2031 H2039 0.929 . S
C2032 C2031 1.383 . S
C2032 C2033 1.377 . S
C2033 H2017 0.930 . S
C2033 C2032 1.377 . S
C2033 C2034 1.379 . S
C2034 H2018 0.931 . S
C2034 C2028 1.383 . S
C2034 C2033 1.379 . S
H2035 C2029 0.959 . S
H2036 C2029 0.961 . S
H2037 C2029 0.960 . S
H2038 C2030 0.930 . S
H2039 C2031 0.929 . S
H2040 C2048 0.929 . S
H2041 C2050 0.930 . S
H2042 C2052 0.930 . S
H2043 C2055 0.929 . S
H2044 C2058 0.930 . S
H2045 C2060 0.960 . S
H2046 C2060 0.960 . S
H2047 C2060 0.960 . S
C2048 H2040 0.929 . S
C2048 C2049 1.377 . S
C2048 C2050 1.384 . S
C2049 C2048 1.377 . S
C2049 C2055 1.390 . S
C2050 H2041 0.930 . S
C2050 C2048 1.384 . S
C2050 C2051 1.372 . S
C2051 C2050 1.372 . S
C2051 C2052 1.400 . S
C2051 C2056 1.490 . S
C2052 H2042 0.930 . S
C2052 C2051 1.400 . S
C2052 C2055 1.386 . S
H2053 C2069 0.930 . S
H2054 C2070 0.931 . S
C2055 H2043 0.929 . S
C2055 C2049 1.390 . S
C2055 C2052 1.386 . S
C2056 C2051 1.490 . S
C2056 C2058 1.395 . S
C2056 C2059 1.403 . S
H2057 C2063 0.930 . S
C2058 H2044 0.930 . S
C2058 C2056 1.395 . S
C2058 C2061 1.403 . S
C2059 C2056 1.403 . S
C2059 C2060 1.524 . S
C2059 C2063 1.400 . S
C2060 H2045 0.960 . S
C2060 H2046 0.960 . S
C2060 H2047 0.960 . S
C2060 C2059 1.524 . S
C2061 C2058 1.403 . S
C2061 C2062 1.392 . S
C2061 C2065 1.495 . S
C2062 C2061 1.392 . S
C2062 C2063 1.385 . S
C2062 C2064 1.478 . S
C2063 H2057 0.930 . S
C2063 C2059 1.400 . S
C2063 C2062 1.385 . S
C2064 C2062 1.478 . S
C2064 C2066 1.381 . S
C2064 C2070 1.383 . S
C2065 C2061 1.495 . S
C2065 H2071 0.959 . S
C2065 H2072 0.961 1_545 S
C2065 H2073 0.960 . S
C2066 C2064 1.381 . S
C2066 C2067 1.394 . S
C2066 H2074 0.930 . S
C2067 C2066 1.394 . S
C2067 C2068 1.383 . S
C2067 H2075 0.929 . S
C2068 C2067 1.383 . S
C2068 C2069 1.377 . S
C2069 H2053 0.930 . S
C2069 C2068 1.377 . S
C2069 C2070 1.379 . S
C2070 H2054 0.931 . S
C2070 C2064 1.383 . S
C2070 C2069 1.379 . S
H2071 C2065 0.959 . S
H2072 C2065 0.961 1_565 S
H2073 C2065 0.960 . S
H2074 C2066 0.930 . S
H2075 C2067 0.929 . S
H2076 C2084 0.929 . S
H2077 C2086 0.930 . S
H2078 C2088 0.930 . S
H2079 C2091 0.929 . S
H2080 C2094 0.930 . S
H2081 C2096 0.960 . S
H2082 C2096 0.960 . S
H2083 C2096 0.960 . S
C2084 H2076 0.929 . S
C2084 C2085 1.377 . S
C2084 C2086 1.384 . S
C2085 C2084 1.377 . S
C2085 C2091 1.390 . S
C2086 H2077 0.930 . S
C2086 C2084 1.384 . S
C2086 C2087 1.372 . S
C2087 C2086 1.372 . S
C2087 C2088 1.400 . S
C2087 C2092 1.490 . S
C2088 H2078 0.930 . S
C2088 C2087 1.400 . S
C2088 C2091 1.386 . S
H2089 C2105 0.930 . S
H2090 C2106 0.931 . S
C2091 H2079 0.929 . S
C2091 C2085 1.390 . S
C2091 C2088 1.386 . S
C2092 C2087 1.490 . S
C2092 C2094 1.395 . S
C2092 C2095 1.403 . S
H2093 C2099 0.930 . S
C2094 H2080 0.930 . S
C2094 C2092 1.395 . S
C2094 C2097 1.403 . S
C2095 C2092 1.403 . S
C2095 C2096 1.524 . S
C2095 C2099 1.400 . S
C2096 H2081 0.960 . S
C2096 H2082 0.960 . S
C2096 H2083 0.960 . S
C2096 C2095 1.524 . S
C2097 C2094 1.403 . S
C2097 C2098 1.392 . S
C2097 C2101 1.495 . S
C2098 C2097 1.392 . S
C2098 C2099 1.385 . S
C2098 C2100 1.478 . S
C2099 H2093 0.930 . S
C2099 C2095 1.400 . S
C2099 C2098 1.385 . S
C2100 C2098 1.478 . S
C2100 C2102 1.381 . S
C2100 C2106 1.383 . S
C2101 C2097 1.495 . S
C2101 H2107 0.959 . S
C2101 H2108 0.961 . S
C2101 H2109 0.960 . S
C2102 C2100 1.381 . S
C2102 C2103 1.394 . S
C2102 H2110 0.930 . S
C2103 C2102 1.394 . S
C2103 C2104 1.383 . S
C2103 H2111 0.929 . S
C2104 C2103 1.383 . S
C2104 C2105 1.377 . S
C2105 H2089 0.930 . S
C2105 C2104 1.377 . S
C2105 C2106 1.379 . S
C2106 H2090 0.931 . S
C2106 C2100 1.383 . S
C2106 C2105 1.379 . S
H2107 C2101 0.959 . S
H2108 C2101 0.961 . S
H2109 C2101 0.960 . S
H2110 C2102 0.930 . S
H2111 C2103 0.929 . S
H2112 C2120 0.929 . S
H2113 C2122 0.930 . S
H2114 C2124 0.930 . S
H2115 C2127 0.929 . S
H2116 C2130 0.930 . S
H2117 C2132 0.960 . S
H2118 C2132 0.960 . S
H2119 C2132 0.960 . S
C2120 H2112 0.929 . S
C2120 C2121 1.377 . S
C2120 C2122 1.384 . S
C2121 C2120 1.377 . S
C2121 C2127 1.390 . S
C2122 H2113 0.930 . S
C2122 C2120 1.384 . S
C2122 C2123 1.372 . S
C2123 C2122 1.372 . S
C2123 C2124 1.400 . S
C2123 C2128 1.490 . S
C2124 H2114 0.930 . S
C2124 C2123 1.400 . S
C2124 C2127 1.386 . S
H2125 C2141 0.930 . S
H2126 C2142 0.931 . S
C2127 H2115 0.929 . S
C2127 C2121 1.390 . S
C2127 C2124 1.386 . S
C2128 C2123 1.490 . S
C2128 C2130 1.395 1_655 S
C2128 C2131 1.403 . S
H2129 C2135 0.930 . S
C2130 H2116 0.930 . S
C2130 C2128 1.395 1_455 S
C2130 C2133 1.403 . S
C2131 C2128 1.403 . S
C2131 C2132 1.524 . S
C2131 C2135 1.400 . S
C2132 H2117 0.960 . S
C2132 H2118 0.960 . S
C2132 H2119 0.960 . S
C2132 C2131 1.524 . S
C2133 C2130 1.403 . S
C2133 C2134 1.392 . S
C2133 C2137 1.495 . S
C2134 C2133 1.392 . S
C2134 C2135 1.385 1_455 S
C2134 C2136 1.478 . S
C2135 H2129 0.930 . S
C2135 C2131 1.400 . S
C2135 C2134 1.385 1_655 S
C2136 C2134 1.478 . S
C2136 C2138 1.381 . S
C2136 C2142 1.383 . S
C2137 C2133 1.495 . S
C2137 H2143 0.959 . S
C2137 H2144 0.961 . S
C2137 H2145 0.960 . S
C2138 C2136 1.381 . S
C2138 C2139 1.394 . S
C2138 H2146 0.930 . S
C2139 C2138 1.394 . S
C2139 C2140 1.383 . S
C2139 H2147 0.929 . S
C2140 C2139 1.383 . S
C2140 C2141 1.377 . S
C2141 H2125 0.930 . S
C2141 C2140 1.377 . S
C2141 C2142 1.379 . S
C2142 H2126 0.931 . S
C2142 C2136 1.383 . S
C2142 C2141 1.379 . S
H2143 C2137 0.959 . S
H2144 C2137 0.961 . S
H2145 C2137 0.960 . S
H2146 C2138 0.930 . S
H2147 C2139 0.929 . S
H2148 C2156 0.929 . S
H2149 C2158 0.930 . S
H2150 C2160 0.930 . S
H2151 C2163 0.929 . S
H2152 C2166 0.930 . S
H2153 C2168 0.960 . S
H2154 C2168 0.960 . S
H2155 C2168 0.960 . S
C2156 H2148 0.929 . S
C2156 C2157 1.377 . S
C2156 C2158 1.384 . S
C2157 C2156 1.377 . S
C2157 C2163 1.390 . S
C2158 H2149 0.930 . S
C2158 C2156 1.384 . S
C2158 C2159 1.372 . S
C2159 C2158 1.372 . S
C2159 C2160 1.400 . S
C2159 C2164 1.490 . S
C2160 H2150 0.930 . S
C2160 C2159 1.400 . S
C2160 C2163 1.386 . S
H2161 C2177 0.930 . S
H2162 C2178 0.931 . S
C2163 H2151 0.929 . S
C2163 C2157 1.390 . S
C2163 C2160 1.386 . S
C2164 C2159 1.490 . S
C2164 C2166 1.395 . S
C2164 C2167 1.403 . S
H2165 C2171 0.930 . S
C2166 H2152 0.930 . S
C2166 C2164 1.395 . S
C2166 C2169 1.403 . S
C2167 C2164 1.403 . S
C2167 C2168 1.524 . S
C2167 C2171 1.400 . S
C2168 H2153 0.960 . S
C2168 H2154 0.960 . S
C2168 H2155 0.960 . S
C2168 C2167 1.524 . S
C2169 C2166 1.403 . S
C2169 C2170 1.392 . S
C2169 C2173 1.495 . S
C2170 C2169 1.392 . S
C2170 C2171 1.385 . S
C2170 C2172 1.478 . S
C2171 H2165 0.930 . S
C2171 C2167 1.400 . S
C2171 C2170 1.385 . S
C2172 C2170 1.478 . S
C2172 C2174 1.381 . S
C2172 C2178 1.383 . S
C2173 C2169 1.495 . S
C2173 H2179 0.959 . S
C2173 H2180 0.961 . S
C2173 H2181 0.960 . S
C2174 C2172 1.381 . S
C2174 C2175 1.394 . S
C2174 H2182 0.930 . S
C2175 C2174 1.394 . S
C2175 C2176 1.383 . S
C2175 H2183 0.929 . S
C2176 C2175 1.383 . S
C2176 C2177 1.377 . S
C2177 H2161 0.930 . S
C2177 C2176 1.377 . S
C2177 C2178 1.379 . S
C2178 H2162 0.931 . S
C2178 C2172 1.383 . S
C2178 C2177 1.379 . S
H2179 C2173 0.959 . S
H2180 C2173 0.961 . S
H2181 C2173 0.960 . S
H2182 C2174 0.930 . S
H2183 C2175 0.929 . S
H2184 C2192 0.929 . S
H2185 C2194 0.930 . S
H2186 C2196 0.930 . S
H2187 C2199 0.929 . S
H2188 C2202 0.930 . S
H2189 C2204 0.960 . S
H2190 C2204 0.960 . S
H2191 C2204 0.960 . S
C2192 H2184 0.929 . S
C2192 C2193 1.377 . S
C2192 C2194 1.384 . S
C2193 C2192 1.377 . S
C2193 C2199 1.390 . S
C2194 H2185 0.930 . S
C2194 C2192 1.384 . S
C2194 C2195 1.372 . S
C2195 C2194 1.372 . S
C2195 C2196 1.400 . S
C2195 C2200 1.490 . S
C2196 H2186 0.930 . S
C2196 C2195 1.400 . S
C2196 C2199 1.386 . S
H2197 C2213 0.930 . S
H2198 C2214 0.931 . S
C2199 H2187 0.929 . S
C2199 C2193 1.390 . S
C2199 C2196 1.386 . S
C2200 C2195 1.490 . S
C2200 C2202 1.395 . S
C2200 C2203 1.403 . S
H2201 C2207 0.930 . S
C2202 H2188 0.930 . S
C2202 C2200 1.395 . S
C2202 C2205 1.403 . S
C2203 C2200 1.403 . S
C2203 C2204 1.524 . S
C2203 C2207 1.400 . S
C2204 H2189 0.960 . S
C2204 H2190 0.960 . S
C2204 H2191 0.960 . S
C2204 C2203 1.524 . S
C2205 C2202 1.403 . S
C2205 C2206 1.392 . S
C2205 C2209 1.495 . S
C2206 C2205 1.392 . S
C2206 C2207 1.385 . S
C2206 C2208 1.478 . S
C2207 H2201 0.930 . S
C2207 C2203 1.400 . S
C2207 C2206 1.385 . S
C2208 C2206 1.478 . S
C2208 C2210 1.381 . S
C2208 C2214 1.383 . S
C2209 C2205 1.495 . S
C2209 H2215 0.959 . S
C2209 H2216 0.961 . S
C2209 H2217 0.960 . S
C2210 C2208 1.381 . S
C2210 C2211 1.394 . S
C2210 H2218 0.930 . S
C2211 C2210 1.394 . S
C2211 C2212 1.383 . S
C2211 H2219 0.929 . S
C2212 C2211 1.383 . S
C2212 C2213 1.377 . S
C2213 H2197 0.930 . S
C2213 C2212 1.377 . S
C2213 C2214 1.379 . S
C2214 H2198 0.931 . S
C2214 C2208 1.383 . S
C2214 C2213 1.379 . S
H2215 C2209 0.959 . S
H2216 C2209 0.961 . S
H2217 C2209 0.960 . S
H2218 C2210 0.930 . S
H2219 C2211 0.929 . S
H2220 C2228 0.929 . S
H2221 C2230 0.930 . S
H2222 C2232 0.930 . S
H2223 C2235 0.929 . S
H2224 C2238 0.930 . S
H2225 C2240 0.960 . S
H2226 C2240 0.960 . S
H2227 C2240 0.960 . S
C2228 H2220 0.929 . S
C2228 C2229 1.377 . S
C2228 C2230 1.384 . S
C2229 C2228 1.377 . S
C2229 C2235 1.390 . S
C2230 H2221 0.930 . S
C2230 C2228 1.384 . S
C2230 C2231 1.372 . S
C2231 C2230 1.372 . S
C2231 C2232 1.400 . S
C2231 C2236 1.490 . S
C2232 H2222 0.930 . S
C2232 C2231 1.400 . S
C2232 C2235 1.386 . S
H2233 C2249 0.930 . S
H2234 C2250 0.931 . S
C2235 H2223 0.929 . S
C2235 C2229 1.390 . S
C2235 C2232 1.386 . S
C2236 C2231 1.490 . S
C2236 C2238 1.395 . S
C2236 C2239 1.403 . S
H2237 C2243 0.930 . S
C2238 H2224 0.930 . S
C2238 C2236 1.395 . S
C2238 C2241 1.403 . S
C2239 C2236 1.403 . S
C2239 C2240 1.524 . S
C2239 C2243 1.400 . S
C2240 H2225 0.960 . S
C2240 H2226 0.960 . S
C2240 H2227 0.960 . S
C2240 C2239 1.524 . S
C2241 C2238 1.403 . S
C2241 C2242 1.392 . S
C2241 C2245 1.495 . S
C2242 C2241 1.392 . S
C2242 C2243 1.385 . S
C2242 C2244 1.478 . S
C2243 H2237 0.930 . S
C2243 C2239 1.400 . S
C2243 C2242 1.385 . S
C2244 C2242 1.478 . S
C2244 C2246 1.381 . S
C2244 C2250 1.383 . S
C2245 C2241 1.495 . S
C2245 H2251 0.959 . S
C2245 H2252 0.961 . S
C2245 H2253 0.960 . S
C2246 C2244 1.381 . S
C2246 C2247 1.394 . S
C2246 H2254 0.930 . S
C2247 C2246 1.394 . S
C2247 C2248 1.383 . S
C2247 H2255 0.929 . S
C2248 C2247 1.383 . S
C2248 C2249 1.377 . S
C2249 H2233 0.930 . S
C2249 C2248 1.377 . S
C2249 C2250 1.379 . S
C2250 H2234 0.931 . S
C2250 C2244 1.383 . S
C2250 C2249 1.379 . S
H2251 C2245 0.959 . S
H2252 C2245 0.961 . S
H2253 C2245 0.960 . S
H2254 C2246 0.930 . S
H2255 C2247 0.929 . S
H2256 C2264 0.929 1_556 S
H2257 C2266 0.930 1_556 S
H2258 C2268 0.930 . S
H2259 C2271 0.929 . S
H2260 C2274 0.930 . S
H2261 C2276 0.960 . S
H2262 C2276 0.960 . S
H2263 C2276 0.960 . S
C2264 H2256 0.929 1_554 S
C2264 C2265 1.377 . S
C2264 C2266 1.384 . S
C2265 C2264 1.377 . S
C2265 C2271 1.390 . S
C2266 H2257 0.930 1_554 S
C2266 C2264 1.384 . S
C2266 C2267 1.372 . S
C2267 C2266 1.372 . S
C2267 C2268 1.400 . S
C2267 C2272 1.490 . S
C2268 H2258 0.930 . S
C2268 C2267 1.400 . S
C2268 C2271 1.386 . S
H2269 C2285 0.930 . S
H2270 C2286 0.931 . S
C2271 H2259 0.929 . S
C2271 C2265 1.390 . S
C2271 C2268 1.386 . S
C2272 C2267 1.490 . S
C2272 C2274 1.395 . S
C2272 C2275 1.403 . S
H2273 C2279 0.930 1_545 S
C2274 H2260 0.930 . S
C2274 C2272 1.395 . S
C2274 C2277 1.403 . S
C2275 C2272 1.403 . S
C2275 C2276 1.524 1_565 S
C2275 C2279 1.400 . S
C2276 H2261 0.960 . S
C2276 H2262 0.960 . S
C2276 H2263 0.960 . S
C2276 C2275 1.524 1_545 S
C2277 C2274 1.403 . S
C2277 C2278 1.392 . S
C2277 C2281 1.495 . S
C2278 C2277 1.392 . S
C2278 C2279 1.385 . S
C2278 C2280 1.478 . S
C2279 H2273 0.930 1_565 S
C2279 C2275 1.400 . S
C2279 C2278 1.385 . S
C2280 C2278 1.478 . S
C2280 C2282 1.381 . S
C2280 C2286 1.383 1_565 S
C2281 C2277 1.495 . S
C2281 H2287 0.959 . S
C2281 H2288 0.961 . S
C2281 H2289 0.960 . S
C2282 C2280 1.381 . S
C2282 C2283 1.394 . S
C2282 H2290 0.942 . S
C2283 C2282 1.394 . S
C2283 C2284 1.383 1_565 S
C2283 H2291 0.929 . S
C2284 C2283 1.383 1_545 S
C2284 C2285 1.377 . S
C2285 H2269 0.930 . S
C2285 C2284 1.377 . S
C2285 C2286 1.379 . S
C2286 H2270 0.931 . S
C2286 C2280 1.383 1_545 S
C2286 C2285 1.379 . S
H2287 C2281 0.959 . S
H2288 C2281 0.961 . S
H2289 C2281 0.960 . S
H2290 C2282 0.942 . S
H2291 C2283 0.929 . S
H2292 C2300 0.929 . S
H2293 C2302 0.935 . S
H2294 C2304 0.930 . S
H2295 C2307 0.929 . S
H2296 C2310 0.930 . S
H2297 C2312 0.960 . S
H2298 C2312 0.960 . S
H2299 C2312 0.960 . S
C2300 H2292 0.929 . S
C2300 C2301 1.377 . S
C2300 C2302 1.384 . S
C2301 C2300 1.377 . S
C2301 C2307 1.390 . S
C2302 H2293 0.935 . S
C2302 C2300 1.384 . S
C2302 C2303 1.372 . S
C2303 C2302 1.372 . S
C2303 C2304 1.400 . S
C2303 C2308 1.501 . S
C2304 H2294 0.930 . S
C2304 C2303 1.400 . S
C2304 C2307 1.386 . S
H2305 C2321 0.930 . S
H2306 C2322 0.931 . S
C2307 H2295 0.929 . S
C2307 C2301 1.390 . S
C2307 C2304 1.386 . S
C2308 C2303 1.501 . S
C2308 C2310 1.352 1_556 S
C2308 C2311 1.434 . S
H2309 C2315 0.930 . S
C2310 H2296 0.930 . S
C2310 C2308 1.352 1_554 S
C2310 C2313 1.403 . S
C2311 C2308 1.434 . S
C2311 C2312 1.524 . S
C2311 C2315 1.400 . S
C2312 H2297 0.960 . S
C2312 H2298 0.960 . S
C2312 H2299 0.960 . S
C2312 C2311 1.524 . S
C2313 C2310 1.403 . S
C2313 C2314 1.392 . S
C2313 C2317 1.495 . S
C2314 C2313 1.392 . S
C2314 C2315 1.385 1_554 S
C2314 C2316 1.478 . S
C2315 H2309 0.930 . S
C2315 C2311 1.400 . S
C2315 C2314 1.385 1_556 S
C2316 C2314 1.478 . S
C2316 C2318 1.381 . S
C2316 C2322 1.383 . S
C2317 C2313 1.495 . S
C2317 H2323 0.959 . S
C2317 H2324 0.961 . S
C2317 H2325 0.960 . S
C2318 C2316 1.381 . S
C2318 C2319 1.394 . S
C2318 H2326 0.930 . S
C2319 C2318 1.394 . S
C2319 C2320 1.383 . S
C2319 H2327 0.929 . S
C2320 C2319 1.383 . S
C2320 C2321 1.377 . S
C2321 H2305 0.930 . S
C2321 C2320 1.377 . S
C2321 C2322 1.379 . S
C2322 H2306 0.931 . S
C2322 C2316 1.383 . S
C2322 C2321 1.379 . S
H2323 C2317 0.959 . S
H2324 C2317 0.961 . S
H2325 C2317 0.960 . S
H2326 C2318 0.930 . S
H2327 C2319 0.929 . S
H2328 C2336 0.929 . S
H2329 C2338 0.930 . S
H2330 C2340 0.930 . S
H2331 C2343 0.929 . S
H2332 C2346 0.930 . S
H2333 C2348 0.960 . S
H2334 C2348 0.960 . S
H2335 C2348 0.960 . S
C2336 H2328 0.929 . S
C2336 C2337 1.377 . S
C2336 C2338 1.384 . S
C2337 C2336 1.377 . S
C2337 C2343 1.390 . S
C2338 H2329 0.930 . S
C2338 C2336 1.384 . S
C2338 C2339 1.372 . S
C2339 C2338 1.372 . S
C2339 C2340 1.400 . S
C2339 C2344 1.490 . S
C2340 H2330 0.930 . S
C2340 C2339 1.400 . S
C2340 C2343 1.386 . S
H2341 C2357 0.930 . S
H2342 C2358 0.931 . S
C2343 H2331 0.929 . S
C2343 C2337 1.390 . S
C2343 C2340 1.386 . S
C2344 C2339 1.490 . S
C2344 C2346 1.395 . S
C2344 C2347 1.403 . S
H2345 C2351 0.930 . S
C2346 H2332 0.930 . S
C2346 C2344 1.395 . S
C2346 C2349 1.403 . S
C2347 C2344 1.403 . S
C2347 C2348 1.524 . S
C2347 C2351 1.400 . S
C2348 H2333 0.960 . S
C2348 H2334 0.960 . S
C2348 H2335 0.960 . S
C2348 C2347 1.524 . S
C2349 C2346 1.403 . S
C2349 C2350 1.392 . S
C2349 C2353 1.495 . S
C2350 C2349 1.392 . S
C2350 C2351 1.385 . S
C2350 C2352 1.478 . S
C2351 H2345 0.930 . S
C2351 C2347 1.400 . S
C2351 C2350 1.385 . S
C2352 C2350 1.478 . S
C2352 C2354 1.381 . S
C2352 C2358 1.383 . S
C2353 C2349 1.495 . S
C2353 H2359 0.959 . S
C2353 H2360 0.961 . S
C2353 H2361 0.960 . S
C2354 C2352 1.381 . S
C2354 C2355 1.394 . S
C2354 H2362 0.930 . S
C2355 C2354 1.394 . S
C2355 C2356 1.383 . S
C2355 H2363 0.929 . S
C2356 C2355 1.383 . S
C2356 C2357 1.377 . S
C2357 H2341 0.930 . S
C2357 C2356 1.377 . S
C2357 C2358 1.379 . S
C2358 H2342 0.931 . S
C2358 C2352 1.383 . S
C2358 C2357 1.379 . S
H2359 C2353 0.959 . S
H2360 C2353 0.961 . S
H2361 C2353 0.960 . S
H2362 C2354 0.930 . S
H2363 C2355 0.929 . S
H2364 C2372 0.929 . S
H2365 C2374 0.930 . S
H2366 C2376 0.930 . S
H2367 C2379 0.929 . S
H2368 C2382 0.930 . S
H2369 C2384 0.960 . S
H2370 C2384 0.960 . S
H2371 C2384 0.960 . S
C2372 H2364 0.929 . S
C2372 C2373 1.377 . S
C2372 C2374 1.384 . S
C2373 C2372 1.377 . S
C2373 C2379 1.390 . S
C2374 H2365 0.930 . S
C2374 C2372 1.384 . S
C2374 C2375 1.372 . S
C2375 C2374 1.372 . S
C2375 C2376 1.400 . S
C2375 C2380 1.490 . S
C2376 H2366 0.930 . S
C2376 C2375 1.400 . S
C2376 C2379 1.386 . S
H2377 C2393 0.930 . S
H2378 C2394 0.931 . S
C2379 H2367 0.929 . S
C2379 C2373 1.390 . S
C2379 C2376 1.386 . S
C2380 C2375 1.490 . S
C2380 C2382 1.395 . S
C2380 C2383 1.403 . S
H2381 C2387 0.930 . S
C2382 H2368 0.930 . S
C2382 C2380 1.395 . S
C2382 C2385 1.403 . S
C2383 C2380 1.403 . S
C2383 C2384 1.524 . S
C2383 C2387 1.400 . S
C2384 H2369 0.960 . S
C2384 H2370 0.960 . S
C2384 H2371 0.960 . S
C2384 C2383 1.524 . S
C2385 C2382 1.403 . S
C2385 C2386 1.392 . S
C2385 C2389 1.495 . S
C2386 C2385 1.392 . S
C2386 C2387 1.385 . S
C2386 C2388 1.478 . S
C2387 H2381 0.930 . S
C2387 C2383 1.400 . S
C2387 C2386 1.385 . S
C2388 C2386 1.478 . S
C2388 C2390 1.381 . S
C2388 C2394 1.383 . S
C2389 C2385 1.495 . S
C2389 H2395 0.959 . S
C2389 H2396 0.961 . S
C2389 H2397 0.960 . S
C2390 C2388 1.381 . S
C2390 C2391 1.394 . S
C2390 H2398 0.930 . S
C2391 C2390 1.394 . S
C2391 C2392 1.383 1_655 S
C2391 H2399 0.929 1_655 S
C2392 C2391 1.383 1_455 S
C2392 C2393 1.377 . S
C2393 H2377 0.930 . S
C2393 C2392 1.377 . S
C2393 C2394 1.379 1_455 S
C2394 H2378 0.931 . S
C2394 C2388 1.383 . S
C2394 C2393 1.379 1_655 S
H2395 C2389 0.959 . S
H2396 C2389 0.961 . S
H2397 C2389 0.960 . S
H2398 C2390 0.930 . S
H2399 C2391 0.929 1_455 S
H2400 C2408 0.929 . S
H2401 C2410 0.930 . S
H2402 C2412 0.930 . S
H2403 C2415 0.929 . S
H2404 C2418 0.930 . S
H2405 C2420 0.960 . S
H2406 C2420 0.960 . S
H2407 C2420 0.960 . S
C2408 H2400 0.929 . S
C2408 C2409 1.377 . S
C2408 C2410 1.384 . S
C2409 C2408 1.377 . S
C2409 C2415 1.390 . S
C2410 H2401 0.930 . S
C2410 C2408 1.384 . S
C2410 C2411 1.372 . S
C2411 C2410 1.372 . S
C2411 C2412 1.400 . S
C2411 C2416 1.490 . S
C2412 H2402 0.930 . S
C2412 C2411 1.400 . S
C2412 C2415 1.386 . S
H2413 C2429 0.930 . S
H2414 C2430 0.931 . S
C2415 H2403 0.929 . S
C2415 C2409 1.390 . S
C2415 C2412 1.386 . S
C2416 C2411 1.490 . S
C2416 C2418 1.395 . S
C2416 C2419 1.403 . S
H2417 C2423 0.930 . S
C2418 H2404 0.930 . S
C2418 C2416 1.395 . S
C2418 C2421 1.403 . S
C2419 C2416 1.403 . S
C2419 C2420 1.524 . S
C2419 C2423 1.400 . S
C2420 H2405 0.960 . S
C2420 H2406 0.960 . S
C2420 H2407 0.960 . S
C2420 C2419 1.524 . S
C2421 C2418 1.403 . S
C2421 C2422 1.392 . S
C2421 C2425 1.495 . S
C2422 C2421 1.392 . S
C2422 C2423 1.385 . S
C2422 C2424 1.478 . S
C2423 H2417 0.930 . S
C2423 C2419 1.400 . S
C2423 C2422 1.385 . S
C2424 C2422 1.478 . S
C2424 C2426 1.381 . S
C2424 C2430 1.383 . S
C2425 C2421 1.495 . S
C2425 H2431 0.959 . S
C2425 H2432 0.961 . S
C2425 H2433 0.960 . S
C2426 C2424 1.381 . S
C2426 C2427 1.394 . S
C2426 H2434 0.930 . S
C2427 C2426 1.394 . S
C2427 C2428 1.383 . S
C2427 H2435 0.929 . S
C2428 C2427 1.383 . S
C2428 C2429 1.377 . S
C2429 H2413 0.930 . S
C2429 C2428 1.377 . S
C2429 C2430 1.379 . S
C2430 H2414 0.931 . S
C2430 C2424 1.383 . S
C2430 C2429 1.379 . S
H2431 C2425 0.959 . S
H2432 C2425 0.961 . S
H2433 C2425 0.960 . S
H2434 C2426 0.930 . S
H2435 C2427 0.929 . S
H2436 C2444 0.929 . S
H2437 C2446 0.930 . S
H2438 C2448 0.930 . S
H2439 C2451 0.929 . S
H2440 C2454 0.930 . S
H2441 C2456 0.960 . S
H2442 C2456 0.960 . S
H2443 C2456 0.960 . S
C2444 H2436 0.929 . S
C2444 C2445 1.377 . S
C2444 C2446 1.384 . S
C2445 C2444 1.377 . S
C2445 C2451 1.390 . S
C2446 H2437 0.930 . S
C2446 C2444 1.384 . S
C2446 C2447 1.372 . S
C2447 C2446 1.372 . S
C2447 C2448 1.400 . S
C2447 C2452 1.490 . S
C2448 H2438 0.930 . S
C2448 C2447 1.400 . S
C2448 C2451 1.386 . S
H2449 C2465 0.930 . S
H2450 C2466 0.931 . S
C2451 H2439 0.929 . S
C2451 C2445 1.390 . S
C2451 C2448 1.386 . S
C2452 C2447 1.490 . S
C2452 C2454 1.395 . S
C2452 C2455 1.403 . S
H2453 C2459 0.930 . S
C2454 H2440 0.930 . S
C2454 C2452 1.395 . S
C2454 C2457 1.403 . S
C2455 C2452 1.403 . S
C2455 C2456 1.524 . S
C2455 C2459 1.400 . S
C2456 H2441 0.960 . S
C2456 H2442 0.960 . S
C2456 H2443 0.960 . S
C2456 C2455 1.524 . S
C2457 C2454 1.403 . S
C2457 C2458 1.392 . S
C2457 C2461 1.495 . S
C2458 C2457 1.392 . S
C2458 C2459 1.385 . S
C2458 C2460 1.478 . S
C2459 H2453 0.930 . S
C2459 C2455 1.400 . S
C2459 C2458 1.385 . S
C2460 C2458 1.478 . S
C2460 C2462 1.381 . S
C2460 C2466 1.383 . S
C2461 C2457 1.495 . S
C2461 H2467 0.959 . S
C2461 H2468 0.961 . S
C2461 H2469 0.960 . S
C2462 C2460 1.381 . S
C2462 C2463 1.394 . S
C2462 H2470 0.930 . S
C2463 C2462 1.394 . S
C2463 C2464 1.383 . S
C2463 H2471 0.929 . S
C2464 C2463 1.383 . S
C2464 C2465 1.377 . S
C2465 H2449 0.930 . S
C2465 C2464 1.377 . S
C2465 C2466 1.379 . S
C2466 H2450 0.931 . S
C2466 C2460 1.383 . S
C2466 C2465 1.379 . S
H2467 C2461 0.959 . S
H2468 C2461 0.961 . S
H2469 C2461 0.960 . S
H2470 C2462 0.930 . S
H2471 C2463 0.929 . S
H2472 C2480 0.929 . S
H2473 C2482 0.930 . S
H2474 C2484 0.930 . S
H2475 C2487 0.929 . S
H2476 C2490 0.930 . S
H2477 C2492 0.960 . S
H2478 C2492 0.960 . S
H2479 C2492 0.960 . S
C2480 H2472 0.929 . S
C2480 C2481 1.377 . S
C2480 C2482 1.384 . S
C2481 C2480 1.377 . S
C2481 C2487 1.390 . S
C2482 H2473 0.930 . S
C2482 C2480 1.384 . S
C2482 C2483 1.372 . S
C2483 C2482 1.372 . S
C2483 C2484 1.400 . S
C2483 C2488 1.490 . S
C2484 H2474 0.930 . S
C2484 C2483 1.400 . S
C2484 C2487 1.386 . S
H2485 C2501 0.930 . S
H2486 C2502 0.931 . S
C2487 H2475 0.929 . S
C2487 C2481 1.390 . S
C2487 C2484 1.386 . S
C2488 C2483 1.490 . S
C2488 C2490 1.395 . S
C2488 C2491 1.403 . S
H2489 C2495 0.930 . S
C2490 H2476 0.930 . S
C2490 C2488 1.395 . S
C2490 C2493 1.403 . S
C2491 C2488 1.403 . S
C2491 C2492 1.524 . S
C2491 C2495 1.400 . S
C2492 H2477 0.960 . S
C2492 H2478 0.960 . S
C2492 H2479 0.960 . S
C2492 C2491 1.524 . S
C2493 C2490 1.403 . S
C2493 C2494 1.392 . S
C2493 C2497 1.495 . S
C2494 C2493 1.392 . S
C2494 C2495 1.385 . S
C2494 C2496 1.478 . S
C2495 H2489 0.930 . S
C2495 C2491 1.400 . S
C2495 C2494 1.385 . S
C2496 C2494 1.478 . S
C2496 C2498 1.381 . S
C2496 C2502 1.383 . S
C2497 C2493 1.495 . S
C2497 H2503 0.959 . S
C2497 H2504 0.961 . S
C2497 H2505 0.960 . S
C2498 C2496 1.381 . S
C2498 C2499 1.394 . S
C2498 H2506 0.930 . S
C2499 C2498 1.394 . S
C2499 C2500 1.383 . S
C2499 H2507 0.929 . S
C2500 C2499 1.383 . S
C2500 C2501 1.377 . S
C2501 H2485 0.930 . S
C2501 C2500 1.377 . S
C2501 C2502 1.379 . S
C2502 H2486 0.931 . S
C2502 C2496 1.383 . S
C2502 C2501 1.379 . S
H2503 C2497 0.959 . S
H2504 C2497 0.961 . S
H2505 C2497 0.960 . S
H2506 C2498 0.930 . S
H2507 C2499 0.929 . S
H2508 C2516 0.929 . S
H2509 C2518 0.930 . S
H2510 C2520 0.930 . S
H2511 C2523 0.929 . S
H2512 C2526 0.930 . S
H2513 C2528 0.960 . S
H2514 C2528 0.960 . S
H2515 C2528 0.960 . S
C2516 H2508 0.929 . S
C2516 C2517 1.377 . S
C2516 C2518 1.384 . S
C2517 C2516 1.377 . S
C2517 C2523 1.390 . S
C2518 H2509 0.930 . S
C2518 C2516 1.384 . S
C2518 C2519 1.372 . S
C2519 C2518 1.372 . S
C2519 C2520 1.400 . S
C2519 C2524 1.490 . S
C2520 H2510 0.930 . S
C2520 C2519 1.400 . S
C2520 C2523 1.386 . S
H2521 C2537 0.930 . S
H2522 C2538 0.931 . S
C2523 H2511 0.929 . S
C2523 C2517 1.390 . S
C2523 C2520 1.386 . S
C2524 C2519 1.490 . S
C2524 C2526 1.395 . S
C2524 C2527 1.403 . S
H2525 C2531 0.930 . S
C2526 H2512 0.930 . S
C2526 C2524 1.395 . S
C2526 C2529 1.403 . S
C2527 C2524 1.403 . S
C2527 C2528 1.524 . S
C2527 C2531 1.400 . S
C2528 H2513 0.960 . S
C2528 H2514 0.960 . S
C2528 H2515 0.960 . S
C2528 C2527 1.524 . S
C2529 C2526 1.403 . S
C2529 C2530 1.392 . S
C2529 C2533 1.495 . S
C2530 C2529 1.392 . S
C2530 C2531 1.385 . S
C2530 C2532 1.478 . S
C2531 H2525 0.930 . S
C2531 C2527 1.400 . S
C2531 C2530 1.385 . S
C2532 C2530 1.478 . S
C2532 C2534 1.381 . S
C2532 C2538 1.383 . S
C2533 C2529 1.495 . S
C2533 H2539 0.959 . S
C2533 H2540 0.961 . S
C2533 H2541 0.960 . S
C2534 C2532 1.381 . S
C2534 C2535 1.394 . S
C2534 H2542 0.930 . S
C2535 C2534 1.394 . S
C2535 C2536 1.383 . S
C2535 H2543 0.929 . S
C2536 C2535 1.383 . S
C2536 C2537 1.377 . S
C2537 H2521 0.930 . S
C2537 C2536 1.377 . S
C2537 C2538 1.379 . S
C2538 H2522 0.931 . S
C2538 C2532 1.383 . S
C2538 C2537 1.379 . S
H2539 C2533 0.959 . S
H2540 C2533 0.961 . S
H2541 C2533 0.960 . S
H2542 C2534 0.930 . S
H2543 C2535 0.929 . S
H2544 C2552 0.929 . S
H2545 C2554 0.930 . S
H2546 C2556 0.930 . S
H2547 C2559 0.929 . S
H2548 C2562 0.930 . S
H2549 C2564 0.960 . S
H2550 C2564 0.960 . S
H2551 C2564 0.960 . S
C2552 H2544 0.929 . S
C2552 C2553 1.377 . S
C2552 C2554 1.384 . S
C2553 C2552 1.377 . S
C2553 C2559 1.390 . S
C2554 H2545 0.930 . S
C2554 C2552 1.384 . S
C2554 C2555 1.372 . S
C2555 C2554 1.372 . S
C2555 C2556 1.400 . S
C2555 C2560 1.490 . S
C2556 H2546 0.930 . S
C2556 C2555 1.400 . S
C2556 C2559 1.386 . S
H2557 C2573 0.930 . S
H2558 C2574 0.931 . S
C2559 H2547 0.929 . S
C2559 C2553 1.390 . S
C2559 C2556 1.386 . S
C2560 C2555 1.490 . S
C2560 C2562 1.395 . S
C2560 C2563 1.403 . S
H2561 C2567 0.930 . S
C2562 H2548 0.930 . S
C2562 C2560 1.395 . S
C2562 C2565 1.403 . S
C2563 C2560 1.403 . S
C2563 C2564 1.524 . S
C2563 C2567 1.400 . S
C2564 H2549 0.960 . S
C2564 H2550 0.960 . S
C2564 H2551 0.960 . S
C2564 C2563 1.524 . S
C2565 C2562 1.403 . S
C2565 C2566 1.392 . S
C2565 C2569 1.495 . S
C2566 C2565 1.392 . S
C2566 C2567 1.385 . S
C2566 C2568 1.478 . S
C2567 H2561 0.930 . S
C2567 C2563 1.400 . S
C2567 C2566 1.385 . S
C2568 C2566 1.478 . S
C2568 C2570 1.381 . S
C2568 C2574 1.383 . S
C2569 C2565 1.495 . S
C2569 H2575 0.959 . S
C2569 H2576 0.961 . S
C2569 H2577 0.960 . S
C2570 C2568 1.381 . S
C2570 C2571 1.394 . S
C2570 H2578 0.930 . S
C2571 C2570 1.394 . S
C2571 C2572 1.383 . S
C2571 H2579 0.929 . S
C2572 C2571 1.383 . S
C2572 C2573 1.377 . S
C2573 H2557 0.930 . S
C2573 C2572 1.377 . S
C2573 C2574 1.379 . S
C2574 H2558 0.931 . S
C2574 C2568 1.383 . S
C2574 C2573 1.379 . S
H2575 C2569 0.959 . S
H2576 C2569 0.961 . S
H2577 C2569 0.960 . S
H2578 C2570 0.930 . S
H2579 C2571 0.929 . S
H2580 C2588 0.929 . S
H2581 C2590 0.930 . S
H2582 C2592 0.930 . S
H2583 C2595 0.929 . S
H2584 C2598 0.930 . S
H2585 C2600 0.960 . S
H2586 C2600 0.960 . S
H2587 C2600 0.960 . S
C2588 H2580 0.929 . S
C2588 C2589 1.377 . S
C2588 C2590 1.384 . S
C2589 C2588 1.377 . S
C2589 C2595 1.390 . S
C2590 H2581 0.930 . S
C2590 C2588 1.384 . S
C2590 C2591 1.372 . S
C2591 C2590 1.372 . S
C2591 C2592 1.400 . S
C2591 C2596 1.490 . S
C2592 H2582 0.930 . S
C2592 C2591 1.400 . S
C2592 C2595 1.386 . S
H2593 C2609 0.930 . S
H2594 C2610 0.931 . S
C2595 H2583 0.929 . S
C2595 C2589 1.390 . S
C2595 C2592 1.386 . S
C2596 C2591 1.490 . S
C2596 C2598 1.395 . S
C2596 C2599 1.403 . S
H2597 C2603 0.930 . S
C2598 H2584 0.930 . S
C2598 C2596 1.395 . S
C2598 C2601 1.403 . S
C2599 C2596 1.403 . S
C2599 C2600 1.524 . S
C2599 C2603 1.400 . S
C2600 H2585 0.960 . S
C2600 H2586 0.960 . S
C2600 H2587 0.960 . S
C2600 C2599 1.524 . S
C2601 C2598 1.403 . S
C2601 C2602 1.392 . S
C2601 C2605 1.495 . S
C2602 C2601 1.392 . S
C2602 C2603 1.385 . S
C2602 C2604 1.478 . S
C2603 H2597 0.930 . S
C2603 C2599 1.400 . S
C2603 C2602 1.385 . S
C2604 C2602 1.478 . S
C2604 C2606 1.381 . S
C2604 C2610 1.383 . S
C2605 C2601 1.495 . S
C2605 H2611 0.959 . S
C2605 H2612 0.961 . S
C2605 H2613 0.960 . S
C2606 C2604 1.381 . S
C2606 C2607 1.394 . S
C2606 H2614 0.930 . S
C2607 C2606 1.394 . S
C2607 C2608 1.383 . S
C2607 H2615 0.929 . S
C2608 C2607 1.383 . S
C2608 C2609 1.377 . S
C2609 H2593 0.930 . S
C2609 C2608 1.377 . S
C2609 C2610 1.379 . S
C2610 H2594 0.931 . S
C2610 C2604 1.383 . S
C2610 C2609 1.379 . S
H2611 C2605 0.959 . S
H2612 C2605 0.961 . S
H2613 C2605 0.960 . S
H2614 C2606 0.930 . S
H2615 C2607 0.929 . S
H2616 C2624 0.929 . S
H2617 C2626 0.930 . S
H2618 C2628 0.930 . S
H2619 C2631 0.929 . S
H2620 C2634 0.930 . S
H2621 C2636 0.960 . S
H2622 C2636 0.960 . S
H2623 C2636 0.960 . S
C2624 H2616 0.929 . S
C2624 C2625 1.377 . S
C2624 C2626 1.384 . S
C2625 C2624 1.377 . S
C2625 C2631 1.390 . S
C2626 H2617 0.930 . S
C2626 C2624 1.384 . S
C2626 C2627 1.372 . S
C2627 C2626 1.372 . S
C2627 C2628 1.400 . S
C2627 C2632 1.490 . S
C2628 H2618 0.930 . S
C2628 C2627 1.400 . S
C2628 C2631 1.386 . S
H2629 C2645 0.930 . S
H2630 C2646 0.931 . S
C2631 H2619 0.929 . S
C2631 C2625 1.390 . S
C2631 C2628 1.386 . S
C2632 C2627 1.490 . S
C2632 C2634 1.395 . S
C2632 C2635 1.403 . S
H2633 C2639 0.930 . S
C2634 H2620 0.930 . S
C2634 C2632 1.395 . S
C2634 C2637 1.403 . S
C2635 C2632 1.403 . S
C2635 C2636 1.524 . S
C2635 C2639 1.400 . S
C2636 H2621 0.960 . S
C2636 H2622 0.960 . S
C2636 H2623 0.960 . S
C2636 C2635 1.524 . S
C2637 C2634 1.403 . S
C2637 C2638 1.392 . S
C2637 C2641 1.495 . S
C2638 C2637 1.392 . S
C2638 C2639 1.385 . S
C2638 C2640 1.478 . S
C2639 H2633 0.930 . S
C2639 C2635 1.400 . S
C2639 C2638 1.385 . S
C2640 C2638 1.478 . S
C2640 C2642 1.381 . S
C2640 C2646 1.383 . S
C2641 C2637 1.495 . S
C2641 H2647 0.959 . S
C2641 H2648 0.961 . S
C2641 H2649 0.960 . S
C2642 C2640 1.381 . S
C2642 C2643 1.394 . S
C2642 H2650 0.930 . S
C2643 C2642 1.394 . S
C2643 C2644 1.383 . S
C2643 H2651 0.929 . S
C2644 C2643 1.383 . S
C2644 C2645 1.377 . S
C2645 H2629 0.930 . S
C2645 C2644 1.377 . S
C2645 C2646 1.379 . S
C2646 H2630 0.931 . S
C2646 C2640 1.383 . S
C2646 C2645 1.379 . S
H2647 C2641 0.959 . S
H2648 C2641 0.961 . S
H2649 C2641 0.960 . S
H2650 C2642 0.930 . S
H2651 C2643 0.929 . S
H2652 C2660 0.929 . S
H2653 C2662 0.930 . S
H2654 C2664 0.930 . S
H2655 C2667 0.929 . S
H2656 C2670 0.930 . S
H2657 C2672 0.960 . S
H2658 C2672 0.960 . S
H2659 C2672 0.960 . S
C2660 H2652 0.929 . S
C2660 C2661 1.377 . S
C2660 C2662 1.384 . S
C2661 C2660 1.377 . S
C2661 C2667 1.390 . S
C2662 H2653 0.930 . S
C2662 C2660 1.384 . S
C2662 C2663 1.372 . S
C2663 C2662 1.372 . S
C2663 C2664 1.400 . S
C2663 C2668 1.490 . S
C2664 H2654 0.930 . S
C2664 C2663 1.400 . S
C2664 C2667 1.386 . S
H2665 C2681 0.930 . S
H2666 C2682 0.931 . S
C2667 H2655 0.929 . S
C2667 C2661 1.390 . S
C2667 C2664 1.386 . S
C2668 C2663 1.490 . S
C2668 C2670 1.395 . S
C2668 C2671 1.403 . S
H2669 C2675 0.930 . S
C2670 H2656 0.930 . S
C2670 C2668 1.395 . S
C2670 C2673 1.403 . S
C2671 C2668 1.403 . S
C2671 C2672 1.524 . S
C2671 C2675 1.400 . S
C2672 H2657 0.960 . S
C2672 H2658 0.960 . S
C2672 H2659 0.960 . S
C2672 C2671 1.524 . S
C2673 C2670 1.403 . S
C2673 C2674 1.392 . S
C2673 C2677 1.495 . S
C2674 C2673 1.392 . S
C2674 C2675 1.385 . S
C2674 C2676 1.478 . S
C2675 H2669 0.930 . S
C2675 C2671 1.400 . S
C2675 C2674 1.385 . S
C2676 C2674 1.478 . S
C2676 C2678 1.381 . S
C2676 C2682 1.383 . S
C2677 C2673 1.495 . S
C2677 H2683 0.959 . S
C2677 H2684 0.961 . S
C2677 H2685 0.960 . S
C2678 C2676 1.381 . S
C2678 C2679 1.394 . S
C2678 H2686 0.930 . S
C2679 C2678 1.394 . S
C2679 C2680 1.383 . S
C2679 H2687 0.929 . S
C2680 C2679 1.383 . S
C2680 C2681 1.377 . S
C2681 H2665 0.930 . S
C2681 C2680 1.377 . S
C2681 C2682 1.379 . S
C2682 H2666 0.931 . S
C2682 C2676 1.383 . S
C2682 C2681 1.379 . S
H2683 C2677 0.959 . S
H2684 C2677 0.961 . S
H2685 C2677 0.960 . S
H2686 C2678 0.930 . S
H2687 C2679 0.929 . S
H2688 C2696 0.929 . S
H2689 C2698 0.930 . S
H2690 C2700 0.930 . S
H2691 C2703 0.929 . S
H2692 C2706 0.930 . S
H2693 C2708 0.960 . S
H2694 C2708 0.960 . S
H2695 C2708 0.960 . S
C2696 H2688 0.929 . S
C2696 C2697 1.377 . S
C2696 C2698 1.384 . S
C2697 C2696 1.377 . S
C2697 C2703 1.390 . S
C2698 H2689 0.930 . S
C2698 C2696 1.384 . S
C2698 C2699 1.372 . S
C2699 C2698 1.372 . S
C2699 C2700 1.400 . S
C2699 C2704 1.490 . S
C2700 H2690 0.930 . S
C2700 C2699 1.400 . S
C2700 C2703 1.386 . S
H2701 C2717 0.930 . S
H2702 C2718 0.931 . S
C2703 H2691 0.929 . S
C2703 C2697 1.390 . S
C2703 C2700 1.386 . S
C2704 C2699 1.490 . S
C2704 C2706 1.395 . S
C2704 C2707 1.403 . S
H2705 C2711 0.930 . S
C2706 H2692 0.930 . S
C2706 C2704 1.395 . S
C2706 C2709 1.403 . S
C2707 C2704 1.403 . S
C2707 C2708 1.524 . S
C2707 C2711 1.400 . S
C2708 H2693 0.960 . S
C2708 H2694 0.960 . S
C2708 H2695 0.960 . S
C2708 C2707 1.524 . S
C2709 C2706 1.403 . S
C2709 C2710 1.392 . S
C2709 C2713 1.495 . S
C2710 C2709 1.392 . S
C2710 C2711 1.385 . S
C2710 C2712 1.478 . S
C2711 H2705 0.930 . S
C2711 C2707 1.400 . S
C2711 C2710 1.385 . S
C2712 C2710 1.478 . S
C2712 C2714 1.381 . S
C2712 C2718 1.383 . S
C2713 C2709 1.495 . S
C2713 H2719 0.959 . S
C2713 H2720 0.961 . S
C2713 H2721 0.960 . S
C2714 C2712 1.381 . S
C2714 C2715 1.394 . S
C2714 H2722 0.930 . S
C2715 C2714 1.394 . S
C2715 C2716 1.383 . S
C2715 H2723 0.929 . S
C2716 C2715 1.383 . S
C2716 C2717 1.377 . S
C2717 H2701 0.930 . S
C2717 C2716 1.377 . S
C2717 C2718 1.379 . S
C2718 H2702 0.931 . S
C2718 C2712 1.383 . S
C2718 C2717 1.379 . S
H2719 C2713 0.959 . S
H2720 C2713 0.961 . S
H2721 C2713 0.960 . S
H2722 C2714 0.930 . S
H2723 C2715 0.929 . S
H2724 C2732 0.929 . S
H2725 C2734 0.930 . S
H2726 C2736 0.930 . S
H2727 C2739 0.929 . S
H2728 C2742 0.930 . S
H2729 C2744 0.960 . S
H2730 C2744 0.960 . S
H2731 C2744 0.960 . S
C2732 H2724 0.929 . S
C2732 C2733 1.377 . S
C2732 C2734 1.384 . S
C2733 C2732 1.377 . S
C2733 C2739 1.390 . S
C2734 H2725 0.930 . S
C2734 C2732 1.384 . S
C2734 C2735 1.372 . S
C2735 C2734 1.372 . S
C2735 C2736 1.400 . S
C2735 C2740 1.490 . S
C2736 H2726 0.930 . S
C2736 C2735 1.400 . S
C2736 C2739 1.386 . S
H2737 C2753 0.930 . S
H2738 C2754 0.931 . S
C2739 H2727 0.929 . S
C2739 C2733 1.390 . S
C2739 C2736 1.386 . S
C2740 C2735 1.490 . S
C2740 C2742 1.395 . S
C2740 C2743 1.403 . S
H2741 C2747 0.930 . S
C2742 H2728 0.930 . S
C2742 C2740 1.395 . S
C2742 C2745 1.403 . S
C2743 C2740 1.403 . S
C2743 C2744 1.524 . S
C2743 C2747 1.400 . S
C2744 H2729 0.960 . S
C2744 H2730 0.960 . S
C2744 H2731 0.960 . S
C2744 C2743 1.524 . S
C2745 C2742 1.403 . S
C2745 C2746 1.392 . S
C2745 C2749 1.495 . S
C2746 C2745 1.392 . S
C2746 C2747 1.385 . S
C2746 C2748 1.478 . S
C2747 H2741 0.930 . S
C2747 C2743 1.400 . S
C2747 C2746 1.385 . S
C2748 C2746 1.478 . S
C2748 C2750 1.381 . S
C2748 C2754 1.383 . S
C2749 C2745 1.495 . S
C2749 H2755 0.959 . S
C2749 H2756 0.961 . S
C2749 H2757 0.960 . S
C2750 C2748 1.381 . S
C2750 C2751 1.394 . S
C2750 H2758 0.930 . S
C2751 C2750 1.394 . S
C2751 C2752 1.383 . S
C2751 H2759 0.929 . S
C2752 C2751 1.383 . S
C2752 C2753 1.377 . S
C2753 H2737 0.930 . S
C2753 C2752 1.377 . S
C2753 C2754 1.379 . S
C2754 H2738 0.931 . S
C2754 C2748 1.383 . S
C2754 C2753 1.379 . S
H2755 C2749 0.959 . S
H2756 C2749 0.961 . S
H2757 C2749 0.960 . S
H2758 C2750 0.930 . S
H2759 C2751 0.929 . S
H2760 C2768 0.929 . S
H2761 C2770 0.930 . S
H2762 C2772 0.930 . S
H2763 C2775 0.929 . S
H2764 C2778 0.930 . S
H2765 C2780 0.960 . S
H2766 C2780 0.960 . S
H2767 C2780 0.960 . S
C2768 H2760 0.929 . S
C2768 C2769 1.377 . S
C2768 C2770 1.384 . S
C2769 C2768 1.377 . S
C2769 C2775 1.390 . S
C2770 H2761 0.930 . S
C2770 C2768 1.384 . S
C2770 C2771 1.372 . S
C2771 C2770 1.372 . S
C2771 C2772 1.400 . S
C2771 C2776 1.490 . S
C2772 H2762 0.930 . S
C2772 C2771 1.400 . S
C2772 C2775 1.386 . S
H2773 C2789 0.938 . S
H2774 C2790 0.931 . S
C2775 H2763 0.929 . S
C2775 C2769 1.390 . S
C2775 C2772 1.386 . S
C2776 C2771 1.490 . S
C2776 C2778 1.395 . S
C2776 C2779 1.403 . S
H2777 C2783 0.930 . S
C2778 H2764 0.930 . S
C2778 C2776 1.395 . S
C2778 C2781 1.403 . S
C2779 C2776 1.403 . S
C2779 C2780 1.524 . S
C2779 C2783 1.400 . S
C2780 H2765 0.960 . S
C2780 H2766 0.960 . S
C2780 H2767 0.960 . S
C2780 C2779 1.524 . S
C2781 C2778 1.403 . S
C2781 C2782 1.392 . S
C2781 C2785 1.495 . S
C2782 C2781 1.392 . S
C2782 C2783 1.385 . S
C2782 C2784 1.478 . S
C2783 H2777 0.930 . S
C2783 C2779 1.400 . S
C2783 C2782 1.385 . S
C2784 C2782 1.478 . S
C2784 C2786 1.381 . S
C2784 C2790 1.383 . S
C2785 C2781 1.495 . S
C2785 H2791 0.959 . S
C2785 H2792 0.961 . S
C2785 H2793 0.960 . S
C2786 C2784 1.381 . S
C2786 C2787 1.394 1_556 S
C2786 H2794 0.927 . S
C2787 C2786 1.394 1_554 S
C2787 C2788 1.383 1_554 S
C2787 H2795 0.929 . S
C2788 C2787 1.383 1_556 S
C2788 C2789 1.377 . S
C2789 H2773 0.938 . S
C2789 C2788 1.377 . S
C2789 C2790 1.379 . S
C2790 H2774 0.931 . S
C2790 C2784 1.383 . S
C2790 C2789 1.379 . S
H2791 C2785 0.959 . S
H2792 C2785 0.961 . S
H2793 C2785 0.960 . S
H2794 C2786 0.927 . S
H2795 C2787 0.929 . S
H2796 C2804 0.929 . S
H2797 C2806 0.930 . S
H2798 C2808 0.930 . S
H2799 C2811 0.929 . S
H2800 C2814 0.930 . S
H2801 C2816 0.960 . S
H2802 C2816 0.960 . S
H2803 C2816 0.960 . S
C2804 H2796 0.929 . S
C2804 C2805 1.377 . S
C2804 C2806 1.384 . S
C2805 C2804 1.377 . S
C2805 C2811 1.390 . S
C2806 H2797 0.930 . S
C2806 C2804 1.384 . S
C2806 C2807 1.372 . S
C2807 C2806 1.372 . S
C2807 C2808 1.400 . S
C2807 C2812 1.490 . S
C2808 H2798 0.930 . S
C2808 C2807 1.400 . S
C2808 C2811 1.386 . S
H2809 C2825 0.930 . S
H2810 C2826 0.931 . S
C2811 H2799 0.929 . S
C2811 C2805 1.390 . S
C2811 C2808 1.386 . S
C2812 C2807 1.490 . S
C2812 C2814 1.395 . S
C2812 C2815 1.403 . S
H2813 C2819 0.930 . S
C2814 H2800 0.930 . S
C2814 C2812 1.395 . S
C2814 C2817 1.403 . S
C2815 C2812 1.403 . S
C2815 C2816 1.524 . S
C2815 C2819 1.400 . S
C2816 H2801 0.960 . S
C2816 H2802 0.960 . S
C2816 H2803 0.960 . S
C2816 C2815 1.524 . S
C2817 C2814 1.403 . S
C2817 C2818 1.392 . S
C2817 C2821 1.495 . S
C2818 C2817 1.392 . S
C2818 C2819 1.385 . S
C2818 C2820 1.478 . S
C2819 H2813 0.930 . S
C2819 C2815 1.400 . S
C2819 C2818 1.385 . S
C2820 C2818 1.478 . S
C2820 C2822 1.381 . S
C2820 C2826 1.383 . S
C2821 C2817 1.495 . S
C2821 H2827 0.959 . S
C2821 H2828 0.961 . S
C2821 H2829 0.960 . S
C2822 C2820 1.381 . S
C2822 C2823 1.394 . S
C2822 H2830 0.930 . S
C2823 C2822 1.394 . S
C2823 C2824 1.383 . S
C2823 H2831 0.929 . S
C2824 C2823 1.383 . S
C2824 C2825 1.377 . S
C2825 H2809 0.930 . S
C2825 C2824 1.377 . S
C2825 C2826 1.379 . S
C2826 H2810 0.931 . S
C2826 C2820 1.383 . S
C2826 C2825 1.379 . S
H2827 C2821 0.959 . S
H2828 C2821 0.961 . S
H2829 C2821 0.960 . S
H2830 C2822 0.930 . S
H2831 C2823 0.929 . S
H2832 C2840 0.929 . S
H2833 C2842 0.930 . S
H2834 C2844 0.930 . S
H2835 C2847 0.942 . S
H2836 C2850 0.930 . S
H2837 C2852 0.960 . S
H2838 C2852 0.960 . S
H2839 C2852 0.960 . S
C2840 H2832 0.929 . S
C2840 C2841 1.377 . S
C2840 C2842 1.384 . S
C2841 C2840 1.377 . S
C2841 C2847 1.390 . S
C2842 H2833 0.930 . S
C2842 C2840 1.384 . S
C2842 C2843 1.372 . S
C2843 C2842 1.372 . S
C2843 C2844 1.400 . S
C2843 C2848 1.490 . S
C2844 H2834 0.930 . S
C2844 C2843 1.400 . S
C2844 C2847 1.386 . S
H2845 C2861 0.930 . S
H2846 C2862 0.931 . S
C2847 H2835 0.942 . S
C2847 C2841 1.390 . S
C2847 C2844 1.386 . S
C2848 C2843 1.490 . S
C2848 C2850 1.395 1_545 S
C2848 C2851 1.403 . S
H2849 C2855 0.930 . S
C2850 H2836 0.930 . S
C2850 C2848 1.395 1_565 S
C2850 C2853 1.403 . S
C2851 C2848 1.403 . S
C2851 C2852 1.524 . S
C2851 C2855 1.400 . S
C2852 H2837 0.960 . S
C2852 H2838 0.960 . S
C2852 H2839 0.960 . S
C2852 C2851 1.524 . S
C2853 C2850 1.403 . S
C2853 C2854 1.392 1_565 S
C2853 C2857 1.495 . S
C2854 C2853 1.392 1_545 S
C2854 C2855 1.385 . S
C2854 C2856 1.478 . S
C2855 H2849 0.930 . S
C2855 C2851 1.400 . S
C2855 C2854 1.385 . S
C2856 C2854 1.478 . S
C2856 C2858 1.381 . S
C2856 C2862 1.383 . S
C2857 C2853 1.495 . S
C2857 H2863 0.959 . S
C2857 H2864 0.961 . S
C2857 H2865 0.960 . S
C2858 C2856 1.381 . S
C2858 C2859 1.394 . S
C2858 H2866 0.930 . S
C2859 C2858 1.394 . S
C2859 C2860 1.383 . S
C2859 H2867 0.929 . S
C2860 C2859 1.383 . S
C2860 C2861 1.377 . S
C2861 H2845 0.930 . S
C2861 C2860 1.377 . S
C2861 C2862 1.379 . S
C2862 H2846 0.931 . S
C2862 C2856 1.383 . S
C2862 C2861 1.379 . S
H2863 C2857 0.959 . S
H2864 C2857 0.961 . S
H2865 C2857 0.960 . S
H2866 C2858 0.930 . S
H2867 C2859 0.929 . S
H2868 C2876 0.929 . S
H2869 C2878 0.930 . S
H2870 C2880 0.930 . S
H2871 C2883 0.929 . S
H2872 C2886 0.930 . S
H2873 C2888 0.960 . S
H2874 C2888 0.960 . S
H2875 C2888 0.960 . S
C2876 H2868 0.929 . S
C2876 C2877 1.377 . S
C2876 C2878 1.384 . S
C2877 C2876 1.377 . S
C2877 C2883 1.390 . S
C2878 H2869 0.930 . S
C2878 C2876 1.384 . S
C2878 C2879 1.372 . S
C2879 C2878 1.372 . S
C2879 C2880 1.400 . S
C2879 C2884 1.490 . S
C2880 H2870 0.930 . S
C2880 C2879 1.400 . S
C2880 C2883 1.386 . S
H2881 C2897 0.930 . S
H2882 C2898 0.931 . S
C2883 H2871 0.929 . S
C2883 C2877 1.390 . S
C2883 C2880 1.386 . S
C2884 C2879 1.490 . S
C2884 C2886 1.395 . S
C2884 C2887 1.403 . S
H2885 C2891 0.930 . S
C2886 H2872 0.930 . S
C2886 C2884 1.395 . S
C2886 C2889 1.403 . S
C2887 C2884 1.403 . S
C2887 C2888 1.524 . S
C2887 C2891 1.400 . S
C2888 H2873 0.960 . S
C2888 H2874 0.960 . S
C2888 H2875 0.960 . S
C2888 C2887 1.524 . S
C2889 C2886 1.403 . S
C2889 C2890 1.392 . S
C2889 C2893 1.495 . S
C2890 C2889 1.392 . S
C2890 C2891 1.385 . S
C2890 C2892 1.478 . S
C2891 H2885 0.930 . S
C2891 C2887 1.400 . S
C2891 C2890 1.385 . S
C2892 C2890 1.478 . S
C2892 C2894 1.381 . S
C2892 C2898 1.383 . S
C2893 C2889 1.495 . S
C2893 H2899 0.959 . S
C2893 H2900 0.961 . S
C2893 H2901 0.960 . S
C2894 C2892 1.381 . S
C2894 C2895 1.394 . S
C2894 H2902 0.930 . S
C2895 C2894 1.394 . S
C2895 C2896 1.383 . S
C2895 H2903 0.929 . S
C2896 C2895 1.383 . S
C2896 C2897 1.377 . S
C2897 H2881 0.930 . S
C2897 C2896 1.377 . S
C2897 C2898 1.379 . S
C2898 H2882 0.931 . S
C2898 C2892 1.383 . S
C2898 C2897 1.379 . S
H2899 C2893 0.959 . S
H2900 C2893 0.961 . S
H2901 C2893 0.960 . S
H2902 C2894 0.930 . S
H2903 C2895 0.929 . S
H2904 C2912 0.929 . S
H2905 C2914 0.930 . S
H2906 C2916 0.930 . S
H2907 C2919 0.929 . S
H2908 C2922 0.930 . S
H2909 C2924 0.960 . S
H2910 C2924 0.958 . S
H2911 C2924 0.960 . S
C2912 H2904 0.929 . S
C2912 C2913 1.377 . S
C2912 C2914 1.384 . S
C2913 C2912 1.377 . S
C2913 C2919 1.390 . S
C2914 H2905 0.930 . S
C2914 C2912 1.384 . S
C2914 C2915 1.372 . S
C2915 C2914 1.372 . S
C2915 C2916 1.400 . S
C2915 C2920 1.490 . S
C2916 H2906 0.930 . S
C2916 C2915 1.400 . S
C2916 C2919 1.386 . S
H2917 C2933 0.930 . S
H2918 C2934 0.931 . S
C2919 H2907 0.929 . S
C2919 C2913 1.390 . S
C2919 C2916 1.386 . S
C2920 C2915 1.490 . S
C2920 C2922 1.395 . S
C2920 C2923 1.403 . S
H2921 C2927 0.930 . S
C2922 H2908 0.930 . S
C2922 C2920 1.395 . S
C2922 C2925 1.403 . S
C2923 C2920 1.403 . S
C2923 C2924 1.524 . S
C2923 C2927 1.400 . S
C2924 H2909 0.960 . S
C2924 H2910 0.958 . S
C2924 H2911 0.960 . S
C2924 C2923 1.524 . S
C2925 C2922 1.403 . S
C2925 C2926 1.392 . S
C2925 C2929 1.495 . S
C2926 C2925 1.392 . S
C2926 C2927 1.385 . S
C2926 C2928 1.478 . S
C2927 H2921 0.930 . S
C2927 C2923 1.400 . S
C2927 C2926 1.385 . S
C2928 C2926 1.478 . S
C2928 C2930 1.381 . S
C2928 C2934 1.383 . S
C2929 C2925 1.495 . S
C2929 H2935 0.959 . S
C2929 H2936 0.961 . S
C2929 H2937 0.960 . S
C2930 C2928 1.381 . S
C2930 C2931 1.394 . S
C2930 H2938 0.930 . S
C2931 C2930 1.394 . S
C2931 C2932 1.383 . S
C2931 H2939 0.929 . S
C2932 C2931 1.383 . S
C2932 C2933 1.377 . S
C2933 H2917 0.930 . S
C2933 C2932 1.377 . S
C2933 C2934 1.379 . S
C2934 H2918 0.931 . S
C2934 C2928 1.383 . S
C2934 C2933 1.379 . S
H2935 C2929 0.959 . S
H2936 C2929 0.961 . S
H2937 C2929 0.960 . S
H2938 C2930 0.930 . S
H2939 C2931 0.929 . S
H2940 C2948 0.929 . S
H2941 C2950 0.930 . S
H2942 C2952 0.930 . S
H2943 C2955 0.929 . S
H2944 C2958 0.930 . S
H2945 C2960 0.960 . S
H2946 C2960 0.960 . S
H2947 C2960 0.960 . S
C2948 H2940 0.929 . S
C2948 C2949 1.377 . S
C2948 C2950 1.384 . S
C2949 C2948 1.377 . S
C2949 C2955 1.390 . S
C2950 H2941 0.930 . S
C2950 C2948 1.384 . S
C2950 C2951 1.372 . S
C2951 C2950 1.372 . S
C2951 C2952 1.400 . S
C2951 C2956 1.490 . S
C2952 H2942 0.930 . S
C2952 C2951 1.400 . S
C2952 C2955 1.386 . S
H2953 C2969 0.930 . S
H2954 C2970 0.931 . S
C2955 H2943 0.929 . S
C2955 C2949 1.390 . S
C2955 C2952 1.386 . S
C2956 C2951 1.490 . S
C2956 C2958 1.395 . S
C2956 C2959 1.403 . S
H2957 C2963 0.930 . S
C2958 H2944 0.930 . S
C2958 C2956 1.395 . S
C2958 C2961 1.403 . S
C2959 C2956 1.403 . S
C2959 C2960 1.524 . S
C2959 C2963 1.400 . S
C2960 H2945 0.960 . S
C2960 H2946 0.960 . S
C2960 H2947 0.960 . S
C2960 C2959 1.524 . S
C2961 C2958 1.403 . S
C2961 C2962 1.392 . S
C2961 C2965 1.495 . S
C2962 C2961 1.392 . S
C2962 C2963 1.385 . S
C2962 C2964 1.478 . S
C2963 H2957 0.930 . S
C2963 C2959 1.400 . S
C2963 C2962 1.385 . S
C2964 C2962 1.478 . S
C2964 C2966 1.381 . S
C2964 C2970 1.383 . S
C2965 C2961 1.495 . S
C2965 H2971 0.959 . S
C2965 H2972 0.961 . S
C2965 H2973 0.960 . S
C2966 C2964 1.381 . S
C2966 C2967 1.394 . S
C2966 H2974 0.930 . S
C2967 C2966 1.394 . S
C2967 C2968 1.383 . S
C2967 H2975 0.929 . S
C2968 C2967 1.383 . S
C2968 C2969 1.377 . S
C2969 H2953 0.930 . S
C2969 C2968 1.377 . S
C2969 C2970 1.379 . S
C2970 H2954 0.931 . S
C2970 C2964 1.383 . S
C2970 C2969 1.379 . S
H2971 C2965 0.959 . S
H2972 C2965 0.961 . S
H2973 C2965 0.960 . S
H2974 C2966 0.930 . S
H2975 C2967 0.929 . S
H2976 C2984 0.929 . S
H2977 C2986 0.930 . S
H2978 C2988 0.930 . S
H2979 C2991 0.929 . S
H2980 C2994 0.930 . S
H2981 C2996 0.960 . S
H2982 C2996 0.960 . S
H2983 C2996 0.960 . S
C2984 H2976 0.929 . S
C2984 C2985 1.377 1_545 S
C2984 C2986 1.384 . S
C2985 C2984 1.377 1_565 S
C2985 C2991 1.390 . S
C2986 H2977 0.930 . S
C2986 C2984 1.384 . S
C2986 C2987 1.372 . S
C2987 C2986 1.372 . S
C2987 C2988 1.400 1_545 S
C2987 C2992 1.490 . S
C2988 H2978 0.930 . S
C2988 C2987 1.400 1_565 S
C2988 C2991 1.386 . S
H2989 C3005 0.930 . S
H2990 C3006 0.931 . S
C2991 H2979 0.929 . S
C2991 C2985 1.390 . S
C2991 C2988 1.386 . S
C2992 C2987 1.490 . S
C2992 C2994 1.395 . S
C2992 C2995 1.403 1_545 S
H2993 C2999 0.931 1_565 S
C2994 H2980 0.930 . S
C2994 C2992 1.395 . S
C2994 C2997 1.403 . S
C2995 C2992 1.403 1_565 S
C2995 C2996 1.524 . S
C2995 C2999 1.401 1_565 S
C2996 H2981 0.960 . S
C2996 H2982 0.960 . S
C2996 H2983 0.960 . S
C2996 C2995 1.524 . S
C2997 C2994 1.403 . S
C2997 C2998 1.392 . S
C2997 C3001 1.495 . S
C2998 C2997 1.392 . S
C2998 C2999 1.383 . S
C2998 C3000 1.478 . S
C2999 H2993 0.931 1_545 S
C2999 C2995 1.401 1_545 S
C2999 C2998 1.383 . S
C3000 C2998 1.478 . S
C3000 C3002 1.381 . S
C3000 C3006 1.383 . S
C3001 C2997 1.495 . S
C3001 H3007 0.959 . S
C3001 H3008 0.961 . S
C3001 H3009 0.960 . S
C3002 C3000 1.381 . S
C3002 C3003 1.394 . S
C3002 H3010 0.930 . S
C3003 C3002 1.394 . S
C3003 C3004 1.383 . S
C3003 H3011 0.929 . S
C3004 C3003 1.383 . S
C3004 C3005 1.377 . S
C3005 H2989 0.930 . S
C3005 C3004 1.377 . S
C3005 C3006 1.379 . S
C3006 H2990 0.931 . S
C3006 C3000 1.383 . S
C3006 C3005 1.379 . S
H3007 C3001 0.959 . S
H3008 C3001 0.961 . S
H3009 C3001 0.960 . S
H3010 C3002 0.930 . S
H3011 C3003 0.929 . S
H3012 C3020 0.929 . S
H3013 C3022 0.930 . S
H3014 C3024 0.930 . S
H3015 C3027 0.929 . S
H3016 C3030 0.930 . S
H3017 C3032 0.960 . S
H3018 C3032 0.960 . S
H3019 C3032 0.960 . S
C3020 H3012 0.929 . S
C3020 C3021 1.377 . S
C3020 C3022 1.384 . S
C3021 C3020 1.377 . S
C3021 C3027 1.390 . S
C3022 H3013 0.930 . S
C3022 C3020 1.384 . S
C3022 C3023 1.372 . S
C3023 C3022 1.372 . S
C3023 C3024 1.400 . S
C3023 C3028 1.490 . S
C3024 H3014 0.930 . S
C3024 C3023 1.400 . S
C3024 C3027 1.386 . S
H3025 C3041 0.930 . S
H3026 C3042 0.931 . S
C3027 H3015 0.929 . S
C3027 C3021 1.390 . S
C3027 C3024 1.386 . S
C3028 C3023 1.490 . S
C3028 C3030 1.395 . S
C3028 C3031 1.403 . S
H3029 C3035 0.930 . S
C3030 H3016 0.930 . S
C3030 C3028 1.395 . S
C3030 C3033 1.403 . S
C3031 C3028 1.403 . S
C3031 C3032 1.524 . S
C3031 C3035 1.400 . S
C3032 H3017 0.960 . S
C3032 H3018 0.960 . S
C3032 H3019 0.960 . S
C3032 C3031 1.524 . S
C3033 C3030 1.403 . S
C3033 C3034 1.392 . S
C3033 C3037 1.495 . S
C3034 C3033 1.392 . S
C3034 C3035 1.385 . S
C3034 C3036 1.478 . S
C3035 H3029 0.930 . S
C3035 C3031 1.400 . S
C3035 C3034 1.385 . S
C3036 C3034 1.478 . S
C3036 C3038 1.381 . S
C3036 C3042 1.383 . S
C3037 C3033 1.495 . S
C3037 H3043 0.959 . S
C3037 H3044 0.961 . S
C3037 H3045 0.960 . S
C3038 C3036 1.381 . S
C3038 C3039 1.394 . S
C3038 H3046 0.930 . S
C3039 C3038 1.394 . S
C3039 C3040 1.383 . S
C3039 H3047 0.929 . S
C3040 C3039 1.383 . S
C3040 C3041 1.377 . S
C3041 H3025 0.930 . S
C3041 C3040 1.377 . S
C3041 C3042 1.379 . S
C3042 H3026 0.931 . S
C3042 C3036 1.383 . S
C3042 C3041 1.379 . S
H3043 C3037 0.959 . S
H3044 C3037 0.961 . S
H3045 C3037 0.960 . S
H3046 C3038 0.930 . S
H3047 C3039 0.929 . S
H3048 C3056 0.929 1_565 S
H3049 C3058 0.930 1_565 S
H3050 C3060 0.930 . S
H3051 C3063 0.929 . S
H3052 C3066 0.930 . S
H3053 C3068 0.960 . S
H3054 C3068 0.960 . S
H3055 C3068 0.960 . S
C3056 H3048 0.929 1_545 S
C3056 C3057 1.377 . S
C3056 C3058 1.384 . S
C3057 C3056 1.377 . S
C3057 C3063 1.390 . S
C3058 H3049 0.930 1_545 S
C3058 C3056 1.384 . S
C3058 C3059 1.372 . S
C3059 C3058 1.372 . S
C3059 C3060 1.400 . S
C3059 C3064 1.490 . S
C3060 H3050 0.930 . S
C3060 C3059 1.400 . S
C3060 C3063 1.386 . S
H3061 C3077 0.930 . S
H3062 C3078 0.931 . S
C3063 H3051 0.929 . S
C3063 C3057 1.390 . S
C3063 C3060 1.386 . S
C3064 C3059 1.490 . S
C3064 C3066 1.395 . S
C3064 C3067 1.403 . S
H3065 C3071 0.930 . S
C3066 H3052 0.930 . S
C3066 C3064 1.395 . S
C3066 C3069 1.403 . S
C3067 C3064 1.403 . S
C3067 C3068 1.524 . S
C3067 C3071 1.400 . S
C3068 H3053 0.960 . S
C3068 H3054 0.960 . S
C3068 H3055 0.960 . S
C3068 C3067 1.524 . S
C3069 C3066 1.403 . S
C3069 C3070 1.392 . S
C3069 C3073 1.495 1_545 S
C3070 C3069 1.392 . S
C3070 C3071 1.385 . S
C3070 C3072 1.478 . S
C3071 H3065 0.930 . S
C3071 C3067 1.400 . S
C3071 C3070 1.385 . S
C3072 C3070 1.478 . S
C3072 C3074 1.381 . S
C3072 C3078 1.383 . S
C3073 C3069 1.495 1_565 S
C3073 H3079 0.959 . S
C3073 H3080 0.961 1_565 S
C3073 H3081 0.960 . S
C3074 C3072 1.381 . S
C3074 C3075 1.394 . S
C3074 H3082 0.930 1_545 S
C3075 C3074 1.394 . S
C3075 C3076 1.383 . S
C3075 H3083 0.929 1_545 S
C3076 C3075 1.383 . S
C3076 C3077 1.377 . S
C3077 H3061 0.930 . S
C3077 C3076 1.377 . S
C3077 C3078 1.379 . S
C3078 H3062 0.931 . S
C3078 C3072 1.383 . S
C3078 C3077 1.379 . S
H3079 C3073 0.959 . S
H3080 C3073 0.961 1_545 S
H3081 C3073 0.960 . S
H3082 C3074 0.930 1_565 S
H3083 C3075 0.929 1_565 S
H3084 C3092 0.929 . S
H3085 C3094 0.930 . S
H3086 C3096 0.930 . S
H3087 C3099 0.929 . S
H3088 C3102 0.930 . S
H3089 C3104 0.960 . S
H3090 C3104 0.960 . S
H3091 C3104 0.960 . S
C3092 H3084 0.929 . S
C3092 C3093 1.377 . S
C3092 C3094 1.384 . S
C3093 C3092 1.377 . S
C3093 C3099 1.390 . S
C3094 H3085 0.930 . S
C3094 C3092 1.384 . S
C3094 C3095 1.372 . S
C3095 C3094 1.372 . S
C3095 C3096 1.400 . S
C3095 C3100 1.490 . S
C3096 H3086 0.930 . S
C3096 C3095 1.400 . S
C3096 C3099 1.386 . S
H3097 C3113 0.930 . S
H3098 C3114 0.931 . S
C3099 H3087 0.929 . S
C3099 C3093 1.390 . S
C3099 C3096 1.386 . S
C3100 C3095 1.490 . S
C3100 C3102 1.395 . S
C3100 C3103 1.403 . S
H3101 C3107 0.930 . S
C3102 H3088 0.930 . S
C3102 C3100 1.395 . S
C3102 C3105 1.403 . S
C3103 C3100 1.403 . S
C3103 C3104 1.524 . S
C3103 C3107 1.400 . S
C3104 H3089 0.960 . S
C3104 H3090 0.960 . S
C3104 H3091 0.960 . S
C3104 C3103 1.524 . S
C3105 C3102 1.403 . S
C3105 C3106 1.392 . S
C3105 C3109 1.495 . S
C3106 C3105 1.392 . S
C3106 C3107 1.385 . S
C3106 C3108 1.478 . S
C3107 H3101 0.930 . S
C3107 C3103 1.400 . S
C3107 C3106 1.385 . S
C3108 C3106 1.478 . S
C3108 C3110 1.381 . S
C3108 C3114 1.383 . S
C3109 C3105 1.495 . S
C3109 H3115 0.959 . S
C3109 H3116 0.961 . S
C3109 H3117 0.960 . S
C3110 C3108 1.381 . S
C3110 C3111 1.394 . S
C3110 H3118 0.930 . S
C3111 C3110 1.394 . S
C3111 C3112 1.383 . S
C3111 H3119 0.929 . S
C3112 C3111 1.383 . S
C3112 C3113 1.377 . S
C3113 H3097 0.930 . S
C3113 C3112 1.377 . S
C3113 C3114 1.379 . S
C3114 H3098 0.931 . S
C3114 C3108 1.383 . S
C3114 C3113 1.379 . S
H3115 C3109 0.959 . S
H3116 C3109 0.961 . S
H3117 C3109 0.960 . S
H3118 C3110 0.930 . S
H3119 C3111 0.929 . S
H3120 C3128 0.929 . S
H3121 C3130 0.930 . S
H3122 C3132 0.930 . S
H3123 C3135 0.929 . S
H3124 C3138 0.930 . S
H3125 C3140 0.960 . S
H3126 C3140 0.960 . S
H3127 C3140 0.960 . S
C3128 H3120 0.929 . S
C3128 C3129 1.377 . S
C3128 C3130 1.384 . S
C3129 C3128 1.377 . S
C3129 C3135 1.390 . S
C3130 H3121 0.930 . S
C3130 C3128 1.384 . S
C3130 C3131 1.372 . S
C3131 C3130 1.372 . S
C3131 C3132 1.400 . S
C3131 C3136 1.490 . S
C3132 H3122 0.930 . S
C3132 C3131 1.400 . S
C3132 C3135 1.386 . S
H3133 C3149 0.930 . S
H3134 C3150 0.931 . S
C3135 H3123 0.929 . S
C3135 C3129 1.390 . S
C3135 C3132 1.386 . S
C3136 C3131 1.490 . S
C3136 C3138 1.395 . S
C3136 C3139 1.403 . S
H3137 C3143 0.930 1_556 S
C3138 H3124 0.930 . S
C3138 C3136 1.395 . S
C3138 C3141 1.403 . S
C3139 C3136 1.403 . S
C3139 C3140 1.524 1_554 S
C3139 C3143 1.400 . S
C3140 H3125 0.960 . S
C3140 H3126 0.960 . S
C3140 H3127 0.960 . S
C3140 C3139 1.524 1_556 S
C3141 C3138 1.403 . S
C3141 C3142 1.392 . S
C3141 C3145 1.495 . S
C3142 C3141 1.392 . S
C3142 C3143 1.385 . S
C3142 C3144 1.478 . S
C3143 H3137 0.930 1_554 S
C3143 C3139 1.400 . S
C3143 C3142 1.385 . S
C3144 C3142 1.478 . S
C3144 C3146 1.381 . S
C3144 C3150 1.383 . S
C3145 C3141 1.495 . S
C3145 H3151 0.959 . S
C3145 H3152 0.961 . S
C3145 H3153 0.960 . S
C3146 C3144 1.381 . S
C3146 C3147 1.394 . S
C3146 H3154 0.930 . S
C3147 C3146 1.394 . S
C3147 C3148 1.383 . S
C3147 H3155 0.929 . S
C3148 C3147 1.383 . S
C3148 C3149 1.377 . S
C3149 H3133 0.930 . S
C3149 C3148 1.377 . S
C3149 C3150 1.379 . S
C3150 H3134 0.931 . S
C3150 C3144 1.383 . S
C3150 C3149 1.379 . S
H3151 C3145 0.959 . S
H3152 C3145 0.961 . S
H3153 C3145 0.960 . S
H3154 C3146 0.930 . S
H3155 C3147 0.929 . S
H3156 C3164 0.929 . S
H3157 C3166 0.930 . S
H3158 C3168 0.930 . S
H3159 C3171 0.929 . S
H3160 C3174 0.930 . S
H3161 C3176 0.960 . S
H3162 C3176 0.960 . S
H3163 C3176 0.960 . S
C3164 H3156 0.929 . S
C3164 C3165 1.377 . S
C3164 C3166 1.384 . S
C3165 C3164 1.377 . S
C3165 C3171 1.390 . S
C3166 H3157 0.930 . S
C3166 C3164 1.384 . S
C3166 C3167 1.372 . S
C3167 C3166 1.372 . S
C3167 C3168 1.400 . S
C3167 C3172 1.490 . S
C3168 H3158 0.930 . S
C3168 C3167 1.400 . S
C3168 C3171 1.386 . S
H3169 C3185 0.930 . S
H3170 C3186 0.931 . S
C3171 H3159 0.929 . S
C3171 C3165 1.390 . S
C3171 C3168 1.386 . S
C3172 C3167 1.490 . S
C3172 C3174 1.395 . S
C3172 C3175 1.403 . S
H3173 C3179 0.930 . S
C3174 H3160 0.930 . S
C3174 C3172 1.395 . S
C3174 C3177 1.403 . S
C3175 C3172 1.403 . S
C3175 C3176 1.524 . S
C3175 C3179 1.400 . S
C3176 H3161 0.960 . S
C3176 H3162 0.960 . S
C3176 H3163 0.960 . S
C3176 C3175 1.524 . S
C3177 C3174 1.403 . S
C3177 C3178 1.392 . S
C3177 C3181 1.495 . S
C3178 C3177 1.392 . S
C3178 C3179 1.385 . S
C3178 C3180 1.478 . S
C3179 H3173 0.930 . S
C3179 C3175 1.400 . S
C3179 C3178 1.385 . S
C3180 C3178 1.478 . S
C3180 C3182 1.381 . S
C3180 C3186 1.383 . S
C3181 C3177 1.495 . S
C3181 H3187 0.959 . S
C3181 H3188 0.961 . S
C3181 H3189 0.960 . S
C3182 C3180 1.381 . S
C3182 C3183 1.394 . S
C3182 H3190 0.930 . S
C3183 C3182 1.394 . S
C3183 C3184 1.383 . S
C3183 H3191 0.929 . S
C3184 C3183 1.383 . S
C3184 C3185 1.377 . S
C3185 H3169 0.930 . S
C3185 C3184 1.377 . S
C3185 C3186 1.379 . S
C3186 H3170 0.931 . S
C3186 C3180 1.383 . S
C3186 C3185 1.379 . S
H3187 C3181 0.959 . S
H3188 C3181 0.961 . S
H3189 C3181 0.960 . S
H3190 C3182 0.930 . S
H3191 C3183 0.929 . S
H3192 C3200 0.929 . S
H3193 C3202 0.930 . S
H3194 C3204 0.930 . S
H3195 C3207 0.929 . S
H3196 C3210 0.930 . S
H3197 C3212 0.960 . S
H3198 C3212 0.960 . S
H3199 C3212 0.960 . S
C3200 H3192 0.929 . S
C3200 C3201 1.377 . S
C3200 C3202 1.384 . S
C3201 C3200 1.377 . S
C3201 C3207 1.390 . S
C3202 H3193 0.930 . S
C3202 C3200 1.384 . S
C3202 C3203 1.372 . S
C3203 C3202 1.372 . S
C3203 C3204 1.400 . S
C3203 C3208 1.490 . S
C3204 H3194 0.930 . S
C3204 C3203 1.400 . S
C3204 C3207 1.386 . S
H3205 C3221 0.930 . S
H3206 C3222 0.931 . S
C3207 H3195 0.929 . S
C3207 C3201 1.390 . S
C3207 C3204 1.386 . S
C3208 C3203 1.490 . S
C3208 C3210 1.395 . S
C3208 C3211 1.403 . S
H3209 C3215 0.930 . S
C3210 H3196 0.930 . S
C3210 C3208 1.395 . S
C3210 C3213 1.403 . S
C3211 C3208 1.403 . S
C3211 C3212 1.524 . S
C3211 C3215 1.400 . S
C3212 H3197 0.960 . S
C3212 H3198 0.960 . S
C3212 H3199 0.960 . S
C3212 C3211 1.524 . S
C3213 C3210 1.403 . S
C3213 C3214 1.392 . S
C3213 C3217 1.495 . S
C3214 C3213 1.392 . S
C3214 C3215 1.385 . S
C3214 C3216 1.478 . S
C3215 H3209 0.930 . S
C3215 C3211 1.400 . S
C3215 C3214 1.385 . S
C3216 C3214 1.478 . S
C3216 C3218 1.381 . S
C3216 C3222 1.383 . S
C3217 C3213 1.495 . S
C3217 H3223 0.959 . S
C3217 H3224 0.961 . S
C3217 H3225 0.960 . S
C3218 C3216 1.381 . S
C3218 C3219 1.394 . S
C3218 H3226 0.930 . S
C3219 C3218 1.394 . S
C3219 C3220 1.383 . S
C3219 H3227 0.929 . S
C3220 C3219 1.383 . S
C3220 C3221 1.377 . S
C3221 H3205 0.930 . S
C3221 C3220 1.377 . S
C3221 C3222 1.379 . S
C3222 H3206 0.931 . S
C3222 C3216 1.383 . S
C3222 C3221 1.379 . S
H3223 C3217 0.959 . S
H3224 C3217 0.961 . S
H3225 C3217 0.960 . S
H3226 C3218 0.930 . S
H3227 C3219 0.929 . S
H3228 C3236 0.929 . S
H3229 C3238 0.930 . S
H3230 C3240 0.930 . S
H3231 C3243 0.929 . S
H3232 C3246 0.930 . S
H3233 C3248 0.960 . S
H3234 C3248 0.960 . S
H3235 C3248 0.960 . S
C3236 H3228 0.929 . S
C3236 C3237 1.377 . S
C3236 C3238 1.384 . S
C3237 C3236 1.377 . S
C3237 C3243 1.390 . S
C3238 H3229 0.930 . S
C3238 C3236 1.384 . S
C3238 C3239 1.372 . S
C3239 C3238 1.372 . S
C3239 C3240 1.400 . S
C3239 C3244 1.490 . S
C3240 H3230 0.930 . S
C3240 C3239 1.400 . S
C3240 C3243 1.386 . S
H3241 C3257 0.930 . S
H3242 C3258 0.931 . S
C3243 H3231 0.929 . S
C3243 C3237 1.390 . S
C3243 C3240 1.386 . S
C3244 C3239 1.490 . S
C3244 C3246 1.395 . S
C3244 C3247 1.403 . S
H3245 C3251 0.930 . S
C3246 H3232 0.930 . S
C3246 C3244 1.395 . S
C3246 C3249 1.403 . S
C3247 C3244 1.403 . S
C3247 C3248 1.524 . S
C3247 C3251 1.400 . S
C3248 H3233 0.960 . S
C3248 H3234 0.960 . S
C3248 H3235 0.960 . S
C3248 C3247 1.524 . S
C3249 C3246 1.403 . S
C3249 C3250 1.392 . S
C3249 C3253 1.495 . S
C3250 C3249 1.392 . S
C3250 C3251 1.385 . S
C3250 C3252 1.478 . S
C3251 H3245 0.930 . S
C3251 C3247 1.400 . S
C3251 C3250 1.385 . S
C3252 C3250 1.478 . S
C3252 C3254 1.381 . S
C3252 C3258 1.383 . S
C3253 C3249 1.495 . S
C3253 H3259 0.959 . S
C3253 H3260 0.961 . S
C3253 H3261 0.960 . S
C3254 C3252 1.381 . S
C3254 C3255 1.394 . S
C3254 H3262 0.930 . S
C3255 C3254 1.394 . S
C3255 C3256 1.383 . S
C3255 H3263 0.929 . S
C3256 C3255 1.383 . S
C3256 C3257 1.377 . S
C3257 H3241 0.930 . S
C3257 C3256 1.377 . S
C3257 C3258 1.379 . S
C3258 H3242 0.931 . S
C3258 C3252 1.383 . S
C3258 C3257 1.379 . S
H3259 C3253 0.959 . S
H3260 C3253 0.961 . S
H3261 C3253 0.960 . S
H3262 C3254 0.930 . S
H3263 C3255 0.929 . S
H3264 C3272 0.929 . S
H3265 C3274 0.930 . S
H3266 C3276 0.930 . S
H3267 C3279 0.929 1_545 S
H3268 C3282 0.930 . S
H3269 C3284 0.960 . S
H3270 C3284 0.960 . S
H3271 C3284 0.960 . S
C3272 H3264 0.929 . S
C3272 C3273 1.347 1_565 S
C3272 C3274 1.384 . S
C3273 C3272 1.347 1_545 S
C3273 C3279 1.379 1_545 S
C3274 H3265 0.930 . S
C3274 C3272 1.384 . S
C3274 C3275 1.372 . S
C3275 C3274 1.372 . S
C3275 C3276 1.400 . S
C3275 C3280 1.490 . S
C3276 H3266 0.930 . S
C3276 C3275 1.400 . S
C3276 C3279 1.386 . S
H3277 C3293 0.930 . S
H3278 C3294 0.931 . S
C3279 H3267 0.929 1_565 S
C3279 C3273 1.379 1_565 S
C3279 C3276 1.386 . S
C3280 C3275 1.490 . S
C3280 C3282 1.395 . S
C3280 C3283 1.403 . S
H3281 C3287 0.930 . S
C3282 H3268 0.930 . S
C3282 C3280 1.395 . S
C3282 C3285 1.403 . S
C3283 C3280 1.403 . S
C3283 C3284 1.524 . S
C3283 C3287 1.400 . S
C3284 H3269 0.960 . S
C3284 H3270 0.960 . S
C3284 H3271 0.960 . S
C3284 C3283 1.524 . S
C3285 C3282 1.403 . S
C3285 C3286 1.392 . S
C3285 C3289 1.495 . S
C3286 C3285 1.392 . S
C3286 C3287 1.385 . S
C3286 C3288 1.478 . S
C3287 H3281 0.930 . S
C3287 C3283 1.400 . S
C3287 C3286 1.385 . S
C3288 C3286 1.478 . S
C3288 C3290 1.381 . S
C3288 C3294 1.383 . S
C3289 C3285 1.495 . S
C3289 H3295 0.959 . S
C3289 H3296 0.961 . S
C3289 H3297 0.960 . S
C3290 C3288 1.381 . S
C3290 C3291 1.394 . S
C3290 H3298 0.930 . S
C3291 C3290 1.394 . S
C3291 C3292 1.383 . S
C3291 H3299 0.929 . S
C3292 C3291 1.383 . S
C3292 C3293 1.377 . S
C3293 H3277 0.930 . S
C3293 C3292 1.377 . S
C3293 C3294 1.379 . S
C3294 H3278 0.931 . S
C3294 C3288 1.383 . S
C3294 C3293 1.379 . S
H3295 C3289 0.959 . S
H3296 C3289 0.961 . S
H3297 C3289 0.960 . S
H3298 C3290 0.930 . S
H3299 C3291 0.929 . S
H3300 C3308 0.929 . S
H3301 C3310 0.930 . S
H3302 C3312 0.930 . S
H3303 C3315 0.929 . S
H3304 C3318 0.930 . S
H3305 C3320 0.960 . S
H3306 C3320 0.960 . S
H3307 C3320 0.960 . S
C3308 H3300 0.929 . S
C3308 C3309 1.377 . S
C3308 C3310 1.384 . S
C3309 C3308 1.377 . S
C3309 C3315 1.390 . S
C3310 H3301 0.930 . S
C3310 C3308 1.384 . S
C3310 C3311 1.372 . S
C3311 C3310 1.372 . S
C3311 C3312 1.400 . S
C3311 C3316 1.490 . S
C3312 H3302 0.930 . S
C3312 C3311 1.400 . S
C3312 C3315 1.386 . S
H3313 C3329 0.930 . S
H3314 C3330 0.931 . S
C3315 H3303 0.929 . S
C3315 C3309 1.390 . S
C3315 C3312 1.386 . S
C3316 C3311 1.490 . S
C3316 C3318 1.395 . S
C3316 C3319 1.403 . S
H3317 C3323 0.930 . S
C3318 H3304 0.930 . S
C3318 C3316 1.395 . S
C3318 C3321 1.403 . S
C3319 C3316 1.403 . S
C3319 C3320 1.524 . S
C3319 C3323 1.400 . S
C3320 H3305 0.960 . S
C3320 H3306 0.960 . S
C3320 H3307 0.960 . S
C3320 C3319 1.524 . S
C3321 C3318 1.403 . S
C3321 C3322 1.392 . S
C3321 C3325 1.495 . S
C3322 C3321 1.392 . S
C3322 C3323 1.385 . S
C3322 C3324 1.478 . S
C3323 H3317 0.930 . S
C3323 C3319 1.400 . S
C3323 C3322 1.385 . S
C3324 C3322 1.478 . S
C3324 C3326 1.381 . S
C3324 C3330 1.383 . S
C3325 C3321 1.495 . S
C3325 H3331 0.959 . S
C3325 H3332 0.961 . S
C3325 H3333 0.960 . S
C3326 C3324 1.381 . S
C3326 C3327 1.394 . S
C3326 H3334 0.930 . S
C3327 C3326 1.394 . S
C3327 C3328 1.383 . S
C3327 H3335 0.929 . S
C3328 C3327 1.383 . S
C3328 C3329 1.377 . S
C3329 H3313 0.930 . S
C3329 C3328 1.377 . S
C3329 C3330 1.379 . S
C3330 H3314 0.931 . S
C3330 C3324 1.383 . S
C3330 C3329 1.379 . S
H3331 C3325 0.959 . S
H3332 C3325 0.961 . S
H3333 C3325 0.960 . S
H3334 C3326 0.930 . S
H3335 C3327 0.929 . S
H3336 C3344 0.929 . S
H3337 C3346 0.930 . S
H3338 C3348 0.930 . S
H3339 C3351 0.929 . S
H3340 C3354 0.930 . S
H3341 C3356 0.960 . S
H3342 C3356 0.960 . S
H3343 C3356 0.960 . S
C3344 H3336 0.929 . S
C3344 C3345 1.377 . S
C3344 C3346 1.384 . S
C3345 C3344 1.377 . S
C3345 C3351 1.390 . S
C3346 H3337 0.930 . S
C3346 C3344 1.384 . S
C3346 C3347 1.372 . S
C3347 C3346 1.372 . S
C3347 C3348 1.400 . S
C3347 C3352 1.490 . S
C3348 H3338 0.930 . S
C3348 C3347 1.400 . S
C3348 C3351 1.386 . S
H3349 C3365 0.930 . S
H3350 C3366 0.931 . S
C3351 H3339 0.929 . S
C3351 C3345 1.390 . S
C3351 C3348 1.386 . S
C3352 C3347 1.490 . S
C3352 C3354 1.395 . S
C3352 C3355 1.403 . S
H3353 C3359 0.930 . S
C3354 H3340 0.930 . S
C3354 C3352 1.395 . S
C3354 C3357 1.403 . S
C3355 C3352 1.403 . S
C3355 C3356 1.524 . S
C3355 C3359 1.400 . S
C3356 H3341 0.960 . S
C3356 H3342 0.960 . S
C3356 H3343 0.960 . S
C3356 C3355 1.524 . S
C3357 C3354 1.403 . S
C3357 C3358 1.392 . S
C3357 C3361 1.495 . S
C3358 C3357 1.392 . S
C3358 C3359 1.385 . S
C3358 C3360 1.478 . S
C3359 H3353 0.930 . S
C3359 C3355 1.400 . S
C3359 C3358 1.385 . S
C3360 C3358 1.478 . S
C3360 C3362 1.381 . S
C3360 C3366 1.383 . S
C3361 C3357 1.495 . S
C3361 H3367 0.959 . S
C3361 H3368 0.961 . S
C3361 H3369 0.960 . S
C3362 C3360 1.381 . S
C3362 C3363 1.394 . S
C3362 H3370 0.930 . S
C3363 C3362 1.394 . S
C3363 C3364 1.383 . S
C3363 H3371 0.929 . S
C3364 C3363 1.383 . S
C3364 C3365 1.377 . S
C3365 H3349 0.930 . S
C3365 C3364 1.377 . S
C3365 C3366 1.379 . S
C3366 H3350 0.931 . S
C3366 C3360 1.383 . S
C3366 C3365 1.379 . S
H3367 C3361 0.959 . S
H3368 C3361 0.961 . S
H3369 C3361 0.960 . S
H3370 C3362 0.930 . S
H3371 C3363 0.929 . S
H3372 C3380 0.929 . S
H3373 C3382 0.930 . S
H3374 C3384 0.930 . S
H3375 C3387 0.929 . S
H3376 C3390 0.930 . S
H3377 C3392 0.960 . S
H3378 C3392 0.960 . S
H3379 C3392 0.960 . S
C3380 H3372 0.929 . S
C3380 C3381 1.377 . S
C3380 C3382 1.384 . S
C3381 C3380 1.377 . S
C3381 C3387 1.390 . S
C3382 H3373 0.930 . S
C3382 C3380 1.384 . S
C3382 C3383 1.372 . S
C3383 C3382 1.372 . S
C3383 C3384 1.400 . S
C3383 C3388 1.490 . S
C3384 H3374 0.930 . S
C3384 C3383 1.400 . S
C3384 C3387 1.386 . S
H3385 C3401 0.930 . S
H3386 C3402 0.931 . S
C3387 H3375 0.929 . S
C3387 C3381 1.390 . S
C3387 C3384 1.386 . S
C3388 C3383 1.490 . S
C3388 C3390 1.395 . S
C3388 C3391 1.403 . S
H3389 C3395 0.930 . S
C3390 H3376 0.930 . S
C3390 C3388 1.395 . S
C3390 C3393 1.403 . S
C3391 C3388 1.403 . S
C3391 C3392 1.524 . S
C3391 C3395 1.400 . S
C3392 H3377 0.960 . S
C3392 H3378 0.960 . S
C3392 H3379 0.960 . S
C3392 C3391 1.524 . S
C3393 C3390 1.403 . S
C3393 C3394 1.392 . S
C3393 C3397 1.495 . S
C3394 C3393 1.392 . S
C3394 C3395 1.385 . S
C3394 C3396 1.478 . S
C3395 H3389 0.930 . S
C3395 C3391 1.400 . S
C3395 C3394 1.385 . S
C3396 C3394 1.478 . S
C3396 C3398 1.381 . S
C3396 C3402 1.383 . S
C3397 C3393 1.495 . S
C3397 H3403 0.959 . S
C3397 H3404 0.961 . S
C3397 H3405 0.960 . S
C3398 C3396 1.381 . S
C3398 C3399 1.394 . S
C3398 H3406 0.930 . S
C3399 C3398 1.394 . S
C3399 C3400 1.383 . S
C3399 H3407 0.929 . S
C3400 C3399 1.383 . S
C3400 C3401 1.377 . S
C3401 H3385 0.930 . S
C3401 C3400 1.377 . S
C3401 C3402 1.379 . S
C3402 H3386 0.931 . S
C3402 C3396 1.383 . S
C3402 C3401 1.379 . S
H3403 C3397 0.959 . S
H3404 C3397 0.961 . S
H3405 C3397 0.960 . S
H3406 C3398 0.930 . S
H3407 C3399 0.929 . S
H3408 C3416 0.929 . S
H3409 C3418 0.930 . S
H3410 C3420 0.930 . S
H3411 C3423 0.929 . S
H3412 C3426 0.930 . S
H3413 C3428 0.960 . S
H3414 C3428 0.960 . S
H3415 C3428 0.960 . S
C3416 H3408 0.929 . S
C3416 C3417 1.377 . S
C3416 C3418 1.384 . S
C3417 C3416 1.377 . S
C3417 C3423 1.390 . S
C3418 H3409 0.930 . S
C3418 C3416 1.384 . S
C3418 C3419 1.372 . S
C3419 C3418 1.372 . S
C3419 C3420 1.400 . S
C3419 C3424 1.490 . S
C3420 H3410 0.930 . S
C3420 C3419 1.400 . S
C3420 C3423 1.386 . S
H3421 C3437 0.930 . S
H3422 C3438 0.931 . S
C3423 H3411 0.929 . S
C3423 C3417 1.390 . S
C3423 C3420 1.386 . S
C3424 C3419 1.490 . S
C3424 C3426 1.395 . S
C3424 C3427 1.403 . S
H3425 C3431 0.930 . S
C3426 H3412 0.930 . S
C3426 C3424 1.395 . S
C3426 C3429 1.403 . S
C3427 C3424 1.403 . S
C3427 C3428 1.524 . S
C3427 C3431 1.400 . S
C3428 H3413 0.960 . S
C3428 H3414 0.960 . S
C3428 H3415 0.960 . S
C3428 C3427 1.524 . S
C3429 C3426 1.403 . S
C3429 C3430 1.392 . S
C3429 C3433 1.495 . S
C3430 C3429 1.392 . S
C3430 C3431 1.385 . S
C3430 C3432 1.478 . S
C3431 H3425 0.930 . S
C3431 C3427 1.400 . S
C3431 C3430 1.385 . S
C3432 C3430 1.478 . S
C3432 C3434 1.381 . S
C3432 C3438 1.383 . S
C3433 C3429 1.495 . S
C3433 H3439 0.959 . S
C3433 H3440 0.961 . S
C3433 H3441 0.960 . S
C3434 C3432 1.381 . S
C3434 C3435 1.394 . S
C3434 H3442 0.930 . S
C3435 C3434 1.394 . S
C3435 C3436 1.383 . S
C3435 H3443 0.929 . S
C3436 C3435 1.383 . S
C3436 C3437 1.377 . S
C3437 H3421 0.930 . S
C3437 C3436 1.377 . S
C3437 C3438 1.379 . S
C3438 H3422 0.931 . S
C3438 C3432 1.383 . S
C3438 C3437 1.379 . S
H3439 C3433 0.959 . S
H3440 C3433 0.961 . S
H3441 C3433 0.960 . S
H3442 C3434 0.930 . S
H3443 C3435 0.929 . S
H3444 C3452 0.929 . S
H3445 C3454 0.930 . S
H3446 C3456 0.930 . S
H3447 C3459 0.929 . S
H3448 C3462 0.930 . S
H3449 C3464 0.960 . S
H3450 C3464 0.960 . S
H3451 C3464 0.960 . S
C3452 H3444 0.929 . S
C3452 C3453 1.377 . S
C3452 C3454 1.384 . S
C3453 C3452 1.377 . S
C3453 C3459 1.390 . S
C3454 H3445 0.930 . S
C3454 C3452 1.384 . S
C3454 C3455 1.372 . S
C3455 C3454 1.372 . S
C3455 C3456 1.400 . S
C3455 C3460 1.490 . S
C3456 H3446 0.930 . S
C3456 C3455 1.400 . S
C3456 C3459 1.386 . S
H3457 C3473 0.930 . S
H3458 C3474 0.931 . S
C3459 H3447 0.929 . S
C3459 C3453 1.390 . S
C3459 C3456 1.386 . S
C3460 C3455 1.490 . S
C3460 C3462 1.395 . S
C3460 C3463 1.403 . S
H3461 C3467 0.930 . S
C3462 H3448 0.930 . S
C3462 C3460 1.395 . S
C3462 C3465 1.403 . S
C3463 C3460 1.403 . S
C3463 C3464 1.524 . S
C3463 C3467 1.400 . S
C3464 H3449 0.960 . S
C3464 H3450 0.960 . S
C3464 H3451 0.960 . S
C3464 C3463 1.524 . S
C3465 C3462 1.403 . S
C3465 C3466 1.392 . S
C3465 C3469 1.495 . S
C3466 C3465 1.392 . S
C3466 C3467 1.385 . S
C3466 C3468 1.478 . S
C3467 H3461 0.930 . S
C3467 C3463 1.400 . S
C3467 C3466 1.385 . S
C3468 C3466 1.478 . S
C3468 C3470 1.381 . S
C3468 C3474 1.383 . S
C3469 C3465 1.495 . S
C3469 H3475 0.959 . S
C3469 H3476 0.961 . S
C3469 H3477 0.960 . S
C3470 C3468 1.381 . S
C3470 C3471 1.394 . S
C3470 H3478 0.930 . S
C3471 C3470 1.394 . S
C3471 C3472 1.383 . S
C3471 H3479 0.929 . S
C3472 C3471 1.383 . S
C3472 C3473 1.377 . S
C3473 H3457 0.930 . S
C3473 C3472 1.377 . S
C3473 C3474 1.379 . S
C3474 H3458 0.931 . S
C3474 C3468 1.383 . S
C3474 C3473 1.379 . S
H3475 C3469 0.959 . S
H3476 C3469 0.961 . S
H3477 C3469 0.960 . S
H3478 C3470 0.930 . S
H3479 C3471 0.929 . S
H3480 C3488 0.929 . S
H3481 C3490 0.930 . S
H3482 C3492 0.930 . S
H3483 C3495 0.925 1_655 S
H3484 C3498 0.930 . S
H3485 C3500 0.960 1_655 S
H3486 C3500 0.960 . S
H3487 C3500 0.960 1_656 S
C3488 H3480 0.929 . S
C3488 C3489 1.377 . S
C3488 C3490 1.384 . S
C3489 C3488 1.377 . S
C3489 C3495 1.390 . S
C3490 H3481 0.930 . S
C3490 C3488 1.384 . S
C3490 C3491 1.372 . S
C3491 C3490 1.372 . S
C3491 C3492 1.400 . S
C3491 C3496 1.490 . S
C3492 H3482 0.930 . S
C3492 C3491 1.400 . S
C3492 C3495 1.386 . S
H3493 C3509 0.937 . S
H3494 C3510 0.931 . S
C3495 H3483 0.925 1_455 S
C3495 C3489 1.390 . S
C3495 C3492 1.386 . S
C3496 C3491 1.490 . S
C3496 C3498 1.395 . S
C3496 C3499 1.403 . S
H3497 C3503 0.930 1_554 S
C3498 H3484 0.930 . S
C3498 C3496 1.395 . S
C3498 C3501 1.403 . S
C3499 C3496 1.403 . S
C3499 C3500 1.524 1_556 S
C3499 C3503 1.400 . S
C3500 H3485 0.960 1_455 S
C3500 H3486 0.960 . S
C3500 H3487 0.960 1_454 S
C3500 C3499 1.524 1_554 S
C3501 C3498 1.403 . S
C3501 C3502 1.392 . S
C3501 C3505 1.495 . S
C3502 C3501 1.392 . S
C3502 C3503 1.385 . S
C3502 C3504 1.478 . S
C3503 H3497 0.930 1_556 S
C3503 C3499 1.400 . S
C3503 C3502 1.385 . S
C3504 C3502 1.478 . S
C3504 C3506 1.381 1_556 S
C3504 C3510 1.383 . S
C3505 C3501 1.495 . S
C3505 H3511 0.959 . S
C3505 H3512 0.961 . S
C3505 H3513 0.960 . S
C3506 C3504 1.381 1_554 S
C3506 C3507 1.394 . S
C3506 H3514 0.930 . S
C3507 C3506 1.394 . S
C3507 C3508 1.383 . S
C3507 H3515 0.929 . S
C3508 C3507 1.383 . S
C3508 C3509 1.367 1_554 S
C3509 H3493 0.937 . S
C3509 C3508 1.367 1_556 S
C3509 C3510 1.383 . S
C3510 H3494 0.931 . S
C3510 C3504 1.383 . S
C3510 C3509 1.383 . S
H3511 C3505 0.959 . S
H3512 C3505 0.961 . S
H3513 C3505 0.960 . S
H3514 C3506 0.930 . S
H3515 C3507 0.929 . S
H3516 C3524 0.929 . S
H3517 C3526 0.930 . S
H3518 C3528 0.930 . S
H3519 C3531 0.929 . S
H3520 C3534 0.930 . S
H3521 C3536 0.960 . S
H3522 C3536 0.960 . S
H3523 C3536 0.960 . S
C3524 H3516 0.929 . S
C3524 C3525 1.377 . S
C3524 C3526 1.384 1_455 S
C3525 C3524 1.377 . S
C3525 C3531 1.390 . S
C3526 H3517 0.930 . S
C3526 C3524 1.384 1_655 S
C3526 C3527 1.372 . S
C3527 C3526 1.372 . S
C3527 C3528 1.400 1_655 S
C3527 C3532 1.490 . S
C3528 H3518 0.930 . S
C3528 C3527 1.400 1_455 S
C3528 C3531 1.386 . S
H3529 C3545 0.930 . S
H3530 C3546 0.931 . S
C3531 H3519 0.929 . S
C3531 C3525 1.390 . S
C3531 C3528 1.386 . S
C3532 C3527 1.490 . S
C3532 C3534 1.395 . S
C3532 C3535 1.403 . S
H3533 C3539 0.930 . S
C3534 H3520 0.930 . S
C3534 C3532 1.395 . S
C3534 C3537 1.403 . S
C3535 C3532 1.403 . S
C3535 C3536 1.524 . S
C3535 C3539 1.400 . S
C3536 H3521 0.960 . S
C3536 H3522 0.960 . S
C3536 H3523 0.960 . S
C3536 C3535 1.524 . S
C3537 C3534 1.403 . S
C3537 C3538 1.392 . S
C3537 C3541 1.495 . S
C3538 C3537 1.392 . S
C3538 C3539 1.385 . S
C3538 C3540 1.478 . S
C3539 H3533 0.930 . S
C3539 C3535 1.400 . S
C3539 C3538 1.385 . S
C3540 C3538 1.478 . S
C3540 C3542 1.381 . S
C3540 C3546 1.383 . S
C3541 C3537 1.495 . S
C3541 H3547 0.959 . S
C3541 H3548 0.961 . S
C3541 H3549 0.960 . S
C3542 C3540 1.381 . S
C3542 C3543 1.394 . S
C3542 H3550 0.930 . S
C3543 C3542 1.394 . S
C3543 C3544 1.383 . S
C3543 H3551 0.929 . S
C3544 C3543 1.383 . S
C3544 C3545 1.377 . S
C3545 H3529 0.930 . S
C3545 C3544 1.377 . S
C3545 C3546 1.379 . S
C3546 H3530 0.931 . S
C3546 C3540 1.383 . S
C3546 C3545 1.379 . S
H3547 C3541 0.959 . S
H3548 C3541 0.961 . S
H3549 C3541 0.960 . S
H3550 C3542 0.930 . S
H3551 C3543 0.929 . S
H3552 C3560 0.929 . S
H3553 C3562 0.930 . S
H3554 C3564 0.930 . S
H3555 C3567 0.929 . S
H3556 C3570 0.930 . S
H3557 C3572 0.960 . S
H3558 C3572 0.960 . S
H3559 C3572 0.960 . S
C3560 H3552 0.929 . S
C3560 C3561 1.377 . S
C3560 C3562 1.384 . S
C3561 C3560 1.377 . S
C3561 C3567 1.390 . S
C3562 H3553 0.930 . S
C3562 C3560 1.384 . S
C3562 C3563 1.372 . S
C3563 C3562 1.372 . S
C3563 C3564 1.400 . S
C3563 C3568 1.490 . S
C3564 H3554 0.930 . S
C3564 C3563 1.400 . S
C3564 C3567 1.386 . S
H3565 C3581 0.930 . S
H3566 C3582 0.931 . S
C3567 H3555 0.929 . S
C3567 C3561 1.390 . S
C3567 C3564 1.386 . S
C3568 C3563 1.490 . S
C3568 C3570 1.395 . S
C3568 C3571 1.403 . S
H3569 C3575 0.930 . S
C3570 H3556 0.930 . S
C3570 C3568 1.395 . S
C3570 C3573 1.403 . S
C3571 C3568 1.403 . S
C3571 C3572 1.524 . S
C3571 C3575 1.400 . S
C3572 H3557 0.960 . S
C3572 H3558 0.960 . S
C3572 H3559 0.960 . S
C3572 C3571 1.524 . S
C3573 C3570 1.403 . S
C3573 C3574 1.392 . S
C3573 C3577 1.495 . S
C3574 C3573 1.392 . S
C3574 C3575 1.385 . S
C3574 C3576 1.478 . S
C3575 H3569 0.930 . S
C3575 C3571 1.400 . S
C3575 C3574 1.385 . S
C3576 C3574 1.478 . S
C3576 C3578 1.381 . S
C3576 C3582 1.383 . S
C3577 C3573 1.495 . S
C3577 H3583 0.959 . S
C3577 H3584 0.961 . S
C3577 H3585 0.960 . S
C3578 C3576 1.381 . S
C3578 C3579 1.394 . S
C3578 H3586 0.930 . S
C3579 C3578 1.394 . S
C3579 C3580 1.383 . S
C3579 H3587 0.929 . S
C3580 C3579 1.383 . S
C3580 C3581 1.377 . S
C3581 H3565 0.930 . S
C3581 C3580 1.377 . S
C3581 C3582 1.379 . S
C3582 H3566 0.931 . S
C3582 C3576 1.383 . S
C3582 C3581 1.379 . S
H3583 C3577 0.959 . S
H3584 C3577 0.961 . S
H3585 C3577 0.960 . S
H3586 C3578 0.930 . S
H3587 C3579 0.929 . S
H3588 C3596 0.929 . S
H3589 C3598 0.930 . S
H3590 C3600 0.930 . S
H3591 C3603 0.929 . S
H3592 C3606 0.930 . S
H3593 C3608 0.972 . S
H3594 C3608 0.960 . S
H3595 C3608 0.960 . S
C3596 H3588 0.929 . S
C3596 C3597 1.377 . S
C3596 C3598 1.384 . S
C3597 C3596 1.377 . S
C3597 C3603 1.390 . S
C3598 H3589 0.930 . S
C3598 C3596 1.384 . S
C3598 C3599 1.372 . S
C3599 C3598 1.372 . S
C3599 C3600 1.400 . S
C3599 C3604 1.490 1_455 S
C3600 H3590 0.930 . S
C3600 C3599 1.400 . S
C3600 C3603 1.386 . S
H3601 C3617 0.930 . S
H3602 C3618 0.931 . S
C3603 H3591 0.929 . S
C3603 C3597 1.390 . S
C3603 C3600 1.386 . S
C3604 C3599 1.490 1_655 S
C3604 C3606 1.395 . S
C3604 C3607 1.403 . S
H3605 C3611 0.930 . S
C3606 H3592 0.930 . S
C3606 C3604 1.395 . S
C3606 C3609 1.403 . S
C3607 C3604 1.403 . S
C3607 C3608 1.524 1_655 S
C3607 C3611 1.400 . S
C3608 H3593 0.972 . S
C3608 H3594 0.960 . S
C3608 H3595 0.960 . S
C3608 C3607 1.524 1_455 S
C3609 C3606 1.403 . S
C3609 C3610 1.392 . S
C3609 C3613 1.495 . S
C3610 C3609 1.392 . S
C3610 C3611 1.385 . S
C3610 C3612 1.478 . S
C3611 H3605 0.930 . S
C3611 C3607 1.400 . S
C3611 C3610 1.385 . S
C3612 C3610 1.478 . S
C3612 C3614 1.381 . S
C3612 C3618 1.383 . S
C3613 C3609 1.495 . S
C3613 H3619 0.959 . S
C3613 H3620 0.961 . S
C3613 H3621 0.960 . S
C3614 C3612 1.381 . S
C3614 C3615 1.394 . S
C3614 H3622 0.930 . S
C3615 C3614 1.394 . S
C3615 C3616 1.383 . S
C3615 H3623 0.929 . S
C3616 C3615 1.383 . S
C3616 C3617 1.377 . S
C3617 H3601 0.930 . S
C3617 C3616 1.377 . S
C3617 C3618 1.379 . S
C3618 H3602 0.931 . S
C3618 C3612 1.383 . S
C3618 C3617 1.379 . S
H3619 C3613 0.959 . S
H3620 C3613 0.961 . S
H3621 C3613 0.960 . S
H3622 C3614 0.930 . S
H3623 C3615 0.929 . S
H3624 C3632 0.929 . S
H3625 C3634 0.930 . S
H3626 C3636 0.930 . S
H3627 C3639 0.929 . S
H3628 C3642 0.930 . S
H3629 C3644 0.960 . S
H3630 C3644 0.960 . S
H3631 C3644 0.960 . S
C3632 H3624 0.929 . S
C3632 C3633 1.377 . S
C3632 C3634 1.384 . S
C3633 C3632 1.377 . S
C3633 C3639 1.390 1_655 S
C3634 H3625 0.930 . S
C3634 C3632 1.384 . S
C3634 C3635 1.372 1_655 S
C3635 C3634 1.372 1_455 S
C3635 C3636 1.400 . S
C3635 C3640 1.490 . S
C3636 H3626 0.930 . S
C3636 C3635 1.400 . S
C3636 C3639 1.386 . S
H3637 C3653 0.930 . S
H3638 C3654 0.931 . S
C3639 H3627 0.929 . S
C3639 C3633 1.390 1_455 S
C3639 C3636 1.386 . S
C3640 C3635 1.490 . S
C3640 C3642 1.395 . S
C3640 C3643 1.403 . S
H3641 C3647 0.930 . S
C3642 H3628 0.930 . S
C3642 C3640 1.395 . S
C3642 C3645 1.403 . S
C3643 C3640 1.403 . S
C3643 C3644 1.524 . S
C3643 C3647 1.400 . S
C3644 H3629 0.960 . S
C3644 H3630 0.960 . S
C3644 H3631 0.960 . S
C3644 C3643 1.524 . S
C3645 C3642 1.403 . S
C3645 C3646 1.392 . S
C3645 C3649 1.495 . S
C3646 C3645 1.392 . S
C3646 C3647 1.385 . S
C3646 C3648 1.478 . S
C3647 H3641 0.930 . S
C3647 C3643 1.400 . S
C3647 C3646 1.385 . S
C3648 C3646 1.478 . S
C3648 C3650 1.381 . S
C3648 C3654 1.383 . S
C3649 C3645 1.495 . S
C3649 H3655 0.959 . S
C3649 H3656 0.961 . S
C3649 H3657 0.960 . S
C3650 C3648 1.381 . S
C3650 C3651 1.394 . S
C3650 H3658 0.930 1_455 S
C3651 C3650 1.394 . S
C3651 C3652 1.383 . S
C3651 H3659 0.929 . S
C3652 C3651 1.383 . S
C3652 C3653 1.377 . S
C3653 H3637 0.930 . S
C3653 C3652 1.377 . S
C3653 C3654 1.379 . S
C3654 H3638 0.931 . S
C3654 C3648 1.383 . S
C3654 C3653 1.379 . S
H3655 C3649 0.959 . S
H3656 C3649 0.961 . S
H3657 C3649 0.960 . S
H3658 C3650 0.930 1_655 S
H3659 C3651 0.929 . S
H3660 C3668 0.929 . S
H3661 C3670 0.930 . S
H3662 C3672 0.930 . S
H3663 C3675 0.929 . S
H3664 C3678 0.930 . S
H3665 C3680 0.960 . S
H3666 C3680 0.960 . S
H3667 C3680 0.960 . S
C3668 H3660 0.929 . S
C3668 C3669 1.377 . S
C3668 C3670 1.384 . S
C3669 C3668 1.377 . S
C3669 C3675 1.390 . S
C3670 H3661 0.930 . S
C3670 C3668 1.384 . S
C3670 C3671 1.372 . S
C3671 C3670 1.372 . S
C3671 C3672 1.400 . S
C3671 C3676 1.490 . S
C3672 H3662 0.930 . S
C3672 C3671 1.400 . S
C3672 C3675 1.386 . S
H3673 C3689 0.930 . S
H3674 C3690 0.931 . S
C3675 H3663 0.929 . S
C3675 C3669 1.390 . S
C3675 C3672 1.386 . S
C3676 C3671 1.490 . S
C3676 C3678 1.395 . S
C3676 C3679 1.403 . S
H3677 C3683 0.930 . S
C3678 H3664 0.930 . S
C3678 C3676 1.395 . S
C3678 C3681 1.403 . S
C3679 C3676 1.403 . S
C3679 C3680 1.524 . S
C3679 C3683 1.400 . S
C3680 H3665 0.960 . S
C3680 H3666 0.960 . S
C3680 H3667 0.960 . S
C3680 C3679 1.524 . S
C3681 C3678 1.403 . S
C3681 C3682 1.392 . S
C3681 C3685 1.495 . S
C3682 C3681 1.392 . S
C3682 C3683 1.385 . S
C3682 C3684 1.478 . S
C3683 H3677 0.930 . S
C3683 C3679 1.400 . S
C3683 C3682 1.385 . S
C3684 C3682 1.478 . S
C3684 C3686 1.381 . S
C3684 C3690 1.383 . S
C3685 C3681 1.495 . S
C3685 H3691 0.959 . S
C3685 H3692 0.961 . S
C3685 H3693 0.960 . S
C3686 C3684 1.381 . S
C3686 C3687 1.394 . S
C3686 H3694 0.930 . S
C3687 C3686 1.394 . S
C3687 C3688 1.383 . S
C3687 H3695 0.929 . S
C3688 C3687 1.383 . S
C3688 C3689 1.377 . S
C3689 H3673 0.930 . S
C3689 C3688 1.377 . S
C3689 C3690 1.379 . S
C3690 H3674 0.931 . S
C3690 C3684 1.383 . S
C3690 C3689 1.379 . S
H3691 C3685 0.959 . S
H3692 C3685 0.961 . S
H3693 C3685 0.960 . S
H3694 C3686 0.930 . S
H3695 C3687 0.929 . S
H3696 C3704 0.929 . S
H3697 C3706 0.930 . S
H3698 C3708 0.930 . S
H3699 C3711 0.929 . S
H3700 C3714 0.930 . S
H3701 C3716 0.960 . S
H3702 C3716 0.960 . S
H3703 C3716 0.960 . S
C3704 H3696 0.929 . S
C3704 C3705 1.377 . S
C3704 C3706 1.384 . S
C3705 C3704 1.377 . S
C3705 C3711 1.390 . S
C3706 H3697 0.930 . S
C3706 C3704 1.384 . S
C3706 C3707 1.372 . S
C3707 C3706 1.372 . S
C3707 C3708 1.400 . S
C3707 C3712 1.490 . S
C3708 H3698 0.930 . S
C3708 C3707 1.400 . S
C3708 C3711 1.386 . S
H3709 C3725 0.930 . S
H3710 C3726 0.931 . S
C3711 H3699 0.929 . S
C3711 C3705 1.390 . S
C3711 C3708 1.386 . S
C3712 C3707 1.490 . S
C3712 C3714 1.395 . S
C3712 C3715 1.403 . S
H3713 C3719 0.930 . S
C3714 H3700 0.930 . S
C3714 C3712 1.395 . S
C3714 C3717 1.403 . S
C3715 C3712 1.403 . S
C3715 C3716 1.524 . S
C3715 C3719 1.400 . S
C3716 H3701 0.960 . S
C3716 H3702 0.960 . S
C3716 H3703 0.960 . S
C3716 C3715 1.524 . S
C3717 C3714 1.403 . S
C3717 C3718 1.392 . S
C3717 C3721 1.495 . S
C3718 C3717 1.392 . S
C3718 C3719 1.385 . S
C3718 C3720 1.478 . S
C3719 H3713 0.930 . S
C3719 C3715 1.400 . S
C3719 C3718 1.385 . S
C3720 C3718 1.478 . S
C3720 C3722 1.381 . S
C3720 C3726 1.383 . S
C3721 C3717 1.495 . S
C3721 H3727 0.959 . S
C3721 H3728 0.961 . S
C3721 H3729 0.960 . S
C3722 C3720 1.381 . S
C3722 C3723 1.394 . S
C3722 H3730 0.930 . S
C3723 C3722 1.394 . S
C3723 C3724 1.383 . S
C3723 H3731 0.929 . S
C3724 C3723 1.383 . S
C3724 C3725 1.377 . S
C3725 H3709 0.930 . S
C3725 C3724 1.377 . S
C3725 C3726 1.379 . S
C3726 H3710 0.931 . S
C3726 C3720 1.383 . S
C3726 C3725 1.379 . S
H3727 C3721 0.959 . S
H3728 C3721 0.961 . S
H3729 C3721 0.960 . S
H3730 C3722 0.930 . S
H3731 C3723 0.929 . S
H3732 C3740 0.929 . S
H3733 C3742 0.930 . S
H3734 C3744 0.930 . S
H3735 C3747 0.929 1_554 S
H3736 C3750 0.930 . S
H3737 C3752 0.960 . S
H3738 C3752 0.960 . S
H3739 C3752 0.960 . S
C3740 H3732 0.929 . S
C3740 C3741 1.377 . S
C3740 C3742 1.384 . S
C3741 C3740 1.377 . S
C3741 C3747 1.390 . S
C3742 H3733 0.930 . S
C3742 C3740 1.384 . S
C3742 C3743 1.372 . S
C3743 C3742 1.372 . S
C3743 C3744 1.400 . S
C3743 C3748 1.490 . S
C3744 H3734 0.930 . S
C3744 C3743 1.400 . S
C3744 C3747 1.386 . S
H3745 C3761 0.930 . S
H3746 C3762 0.931 . S
C3747 H3735 0.929 1_556 S
C3747 C3741 1.390 . S
C3747 C3744 1.386 . S
C3748 C3743 1.490 . S
C3748 C3750 1.395 . S
C3748 C3751 1.403 . S
H3749 C3755 0.930 . S
C3750 H3736 0.930 . S
C3750 C3748 1.395 . S
C3750 C3753 1.403 . S
C3751 C3748 1.403 . S
C3751 C3752 1.524 . S
C3751 C3755 1.400 . S
C3752 H3737 0.960 . S
C3752 H3738 0.960 . S
C3752 H3739 0.960 . S
C3752 C3751 1.524 . S
C3753 C3750 1.403 . S
C3753 C3754 1.392 . S
C3753 C3757 1.495 . S
C3754 C3753 1.392 . S
C3754 C3755 1.385 . S
C3754 C3756 1.478 . S
C3755 H3749 0.930 . S
C3755 C3751 1.400 . S
C3755 C3754 1.385 . S
C3756 C3754 1.478 . S
C3756 C3758 1.381 . S
C3756 C3762 1.383 . S
C3757 C3753 1.495 . S
C3757 H3763 0.959 . S
C3757 H3764 0.961 . S
C3757 H3765 0.960 . S
C3758 C3756 1.381 . S
C3758 C3759 1.394 . S
C3758 H3766 0.930 . S
C3759 C3758 1.394 . S
C3759 C3760 1.383 . S
C3759 H3767 0.929 . S
C3760 C3759 1.383 . S
C3760 C3761 1.377 . S
C3761 H3745 0.930 . S
C3761 C3760 1.377 . S
C3761 C3762 1.379 . S
C3762 H3746 0.931 . S
C3762 C3756 1.383 . S
C3762 C3761 1.379 . S
H3763 C3757 0.959 . S
H3764 C3757 0.961 . S
H3765 C3757 0.960 . S
H3766 C3758 0.930 . S
H3767 C3759 0.929 . S
H3768 C3776 0.929 . S
H3769 C3778 0.930 . S
H3770 C3780 0.930 . S
H3771 C3783 0.929 . S
H3772 C3786 0.930 . S
H3773 C3788 0.960 . S
H3774 C3788 0.960 . S
H3775 C3788 0.960 . S
C3776 H3768 0.929 . S
C3776 C3777 1.377 . S
C3776 C3778 1.384 . S
C3777 C3776 1.377 . S
C3777 C3783 1.390 . S
C3778 H3769 0.930 . S
C3778 C3776 1.384 . S
C3778 C3779 1.372 . S
C3779 C3778 1.372 . S
C3779 C3780 1.400 . S
C3779 C3784 1.490 . S
C3780 H3770 0.930 . S
C3780 C3779 1.400 . S
C3780 C3783 1.386 . S
H3781 C3797 0.930 . S
H3782 C3798 0.931 . S
C3783 H3771 0.929 . S
C3783 C3777 1.390 . S
C3783 C3780 1.386 . S
C3784 C3779 1.490 . S
C3784 C3786 1.395 . S
C3784 C3787 1.403 . S
H3785 C3791 0.930 . S
C3786 H3772 0.930 . S
C3786 C3784 1.395 . S
C3786 C3789 1.403 . S
C3787 C3784 1.403 . S
C3787 C3788 1.524 . S
C3787 C3791 1.400 . S
C3788 H3773 0.960 . S
C3788 H3774 0.960 . S
C3788 H3775 0.960 . S
C3788 C3787 1.524 . S
C3789 C3786 1.403 . S
C3789 C3790 1.392 . S
C3789 C3793 1.495 . S
C3790 C3789 1.392 . S
C3790 C3791 1.385 . S
C3790 C3792 1.478 . S
C3791 H3785 0.930 . S
C3791 C3787 1.400 . S
C3791 C3790 1.385 . S
C3792 C3790 1.478 . S
C3792 C3794 1.381 . S
C3792 C3798 1.383 . S
C3793 C3789 1.495 . S
C3793 H3799 0.959 . S
C3793 H3800 0.961 . S
C3793 H3801 0.960 . S
C3794 C3792 1.381 . S
C3794 C3795 1.394 . S
C3794 H3802 0.930 . S
C3795 C3794 1.394 . S
C3795 C3796 1.383 . S
C3795 H3803 0.929 . S
C3796 C3795 1.383 . S
C3796 C3797 1.377 . S
C3797 H3781 0.930 . S
C3797 C3796 1.377 . S
C3797 C3798 1.379 . S
C3798 H3782 0.931 . S
C3798 C3792 1.383 . S
C3798 C3797 1.379 . S
H3799 C3793 0.959 . S
H3800 C3793 0.961 . S
H3801 C3793 0.960 . S
H3802 C3794 0.930 . S
H3803 C3795 0.929 . S
H3804 C3812 0.929 . S
H3805 C3814 0.930 . S
H3806 C3816 0.930 . S
H3807 C3819 0.929 . S
H3808 C3822 0.930 . S
H3809 C3824 0.960 . S
H3810 C3824 0.960 . S
H3811 C3824 0.960 . S
C3812 H3804 0.929 . S
C3812 C3813 1.377 . S
C3812 C3814 1.384 . S
C3813 C3812 1.377 . S
C3813 C3819 1.390 . S
C3814 H3805 0.930 . S
C3814 C3812 1.384 . S
C3814 C3815 1.372 . S
C3815 C3814 1.372 . S
C3815 C3816 1.400 . S
C3815 C3820 1.490 . S
C3816 H3806 0.930 . S
C3816 C3815 1.400 . S
C3816 C3819 1.386 . S
H3817 C3833 0.930 . S
H3818 C3834 0.931 . S
C3819 H3807 0.929 . S
C3819 C3813 1.390 . S
C3819 C3816 1.386 . S
C3820 C3815 1.490 . S
C3820 C3822 1.395 . S
C3820 C3823 1.403 . S
H3821 C3827 0.930 . S
C3822 H3808 0.930 . S
C3822 C3820 1.395 . S
C3822 C3825 1.403 . S
C3823 C3820 1.403 . S
C3823 C3824 1.524 . S
C3823 C3827 1.400 . S
C3824 H3809 0.960 . S
C3824 H3810 0.960 . S
C3824 H3811 0.960 . S
C3824 C3823 1.524 . S
C3825 C3822 1.403 . S
C3825 C3826 1.392 . S
C3825 C3829 1.495 . S
C3826 C3825 1.392 . S
C3826 C3827 1.385 . S
C3826 C3828 1.478 . S
C3827 H3821 0.930 . S
C3827 C3823 1.400 . S
C3827 C3826 1.385 . S
C3828 C3826 1.478 . S
C3828 C3830 1.381 . S
C3828 C3834 1.383 . S
C3829 C3825 1.495 . S
C3829 H3835 0.959 . S
C3829 H3836 0.961 . S
C3829 H3837 0.960 . S
C3830 C3828 1.381 . S
C3830 C3831 1.394 . S
C3830 H3838 0.930 . S
C3831 C3830 1.394 . S
C3831 C3832 1.383 . S
C3831 H3839 0.929 . S
C3832 C3831 1.383 . S
C3832 C3833 1.377 . S
C3833 H3817 0.930 . S
C3833 C3832 1.377 . S
C3833 C3834 1.379 . S
C3834 H3818 0.931 . S
C3834 C3828 1.383 . S
C3834 C3833 1.379 . S
H3835 C3829 0.959 . S
H3836 C3829 0.961 . S
H3837 C3829 0.960 . S
H3838 C3830 0.930 . S
H3839 C3831 0.929 . S
H3840 C3848 0.929 . S
H3841 C3850 0.930 . S
H3842 C3852 0.930 . S
H3843 C3855 0.929 . S
H3844 C3858 0.930 . S
H3845 C3860 0.960 . S
H3846 C3860 0.960 . S
H3847 C3860 0.960 . S
C3848 H3840 0.929 . S
C3848 C3849 1.377 . S
C3848 C3850 1.384 . S
C3849 C3848 1.377 . S
C3849 C3855 1.390 . S
C3850 H3841 0.930 . S
C3850 C3848 1.384 . S
C3850 C3851 1.372 . S
C3851 C3850 1.372 . S
C3851 C3852 1.400 . S
C3851 C3856 1.490 . S
C3852 H3842 0.930 . S
C3852 C3851 1.400 . S
C3852 C3855 1.386 . S
H3853 C3869 0.930 . S
H3854 C3870 0.931 . S
C3855 H3843 0.929 . S
C3855 C3849 1.390 . S
C3855 C3852 1.386 . S
C3856 C3851 1.490 . S
C3856 C3858 1.395 . S
C3856 C3859 1.403 . S
H3857 C3863 0.930 . S
C3858 H3844 0.930 . S
C3858 C3856 1.395 . S
C3858 C3861 1.403 . S
C3859 C3856 1.403 . S
C3859 C3860 1.524 . S
C3859 C3863 1.400 . S
C3860 H3845 0.960 . S
C3860 H3846 0.960 . S
C3860 H3847 0.960 . S
C3860 C3859 1.524 . S
C3861 C3858 1.403 . S
C3861 C3862 1.392 . S
C3861 C3865 1.495 . S
C3862 C3861 1.392 . S
C3862 C3863 1.385 . S
C3862 C3864 1.478 . S
C3863 H3857 0.930 . S
C3863 C3859 1.400 . S
C3863 C3862 1.385 . S
C3864 C3862 1.478 . S
C3864 C3866 1.381 . S
C3864 C3870 1.383 . S
C3865 C3861 1.495 . S
C3865 H3871 0.959 . S
C3865 H3872 0.961 . S
C3865 H3873 0.960 . S
C3866 C3864 1.381 . S
C3866 C3867 1.394 . S
C3866 H3874 0.930 . S
C3867 C3866 1.394 . S
C3867 C3868 1.383 . S
C3867 H3875 0.929 . S
C3868 C3867 1.383 . S
C3868 C3869 1.377 . S
C3869 H3853 0.930 . S
C3869 C3868 1.377 . S
C3869 C3870 1.379 . S
C3870 H3854 0.931 . S
C3870 C3864 1.383 . S
C3870 C3869 1.379 . S
H3871 C3865 0.959 . S
H3872 C3865 0.961 . S
H3873 C3865 0.960 . S
H3874 C3866 0.930 . S
H3875 C3867 0.929 . S
H3876 C3884 0.929 . S
H3877 C3886 0.930 . S
H3878 C3888 0.930 . S
H3879 C3891 0.929 . S
H3880 C3894 0.930 . S
H3881 C3896 0.960 . S
H3882 C3896 0.960 . S
H3883 C3896 0.960 . S
C3884 H3876 0.929 . S
C3884 C3885 1.377 . S
C3884 C3886 1.384 . S
C3885 C3884 1.377 . S
C3885 C3891 1.390 . S
C3886 H3877 0.930 . S
C3886 C3884 1.384 . S
C3886 C3887 1.372 . S
C3887 C3886 1.372 . S
C3887 C3888 1.400 . S
C3887 C3892 1.490 . S
C3888 H3878 0.930 . S
C3888 C3887 1.400 . S
C3888 C3891 1.386 . S
H3889 C3905 0.930 . S
H3890 C3906 0.931 . S
C3891 H3879 0.929 . S
C3891 C3885 1.390 . S
C3891 C3888 1.386 . S
C3892 C3887 1.490 . S
C3892 C3894 1.395 . S
C3892 C3895 1.403 . S
H3893 C3899 0.930 . S
C3894 H3880 0.930 . S
C3894 C3892 1.395 . S
C3894 C3897 1.403 . S
C3895 C3892 1.403 . S
C3895 C3896 1.524 . S
C3895 C3899 1.400 . S
C3896 H3881 0.960 . S
C3896 H3882 0.960 . S
C3896 H3883 0.960 . S
C3896 C3895 1.524 . S
C3897 C3894 1.403 . S
C3897 C3898 1.392 . S
C3897 C3901 1.495 . S
C3898 C3897 1.392 . S
C3898 C3899 1.385 . S
C3898 C3900 1.478 . S
C3899 H3893 0.930 . S
C3899 C3895 1.400 . S
C3899 C3898 1.385 . S
C3900 C3898 1.478 . S
C3900 C3902 1.381 . S
C3900 C3906 1.383 . S
C3901 C3897 1.495 . S
C3901 H3907 0.959 . S
C3901 H3908 0.961 . S
C3901 H3909 0.960 . S
C3902 C3900 1.381 . S
C3902 C3903 1.394 . S
C3902 H3910 0.930 . S
C3903 C3902 1.394 . S
C3903 C3904 1.383 . S
C3903 H3911 0.929 . S
C3904 C3903 1.383 . S
C3904 C3905 1.377 . S
C3905 H3889 0.930 . S
C3905 C3904 1.377 . S
C3905 C3906 1.379 . S
C3906 H3890 0.931 . S
C3906 C3900 1.383 . S
C3906 C3905 1.379 . S
H3907 C3901 0.959 . S
H3908 C3901 0.961 . S
H3909 C3901 0.960 . S
H3910 C3902 0.930 . S
H3911 C3903 0.929 . S
H3912 C3920 0.929 . S
H3913 C3922 0.930 . S
H3914 C3924 0.930 . S
H3915 C3927 0.929 . S
H3916 C3930 0.930 . S
H3917 C3932 0.960 . S
H3918 C3932 0.960 . S
H3919 C3932 0.960 . S
C3920 H3912 0.929 . S
C3920 C3921 1.377 . S
C3920 C3922 1.384 . S
C3921 C3920 1.377 . S
C3921 C3927 1.390 . S
C3922 H3913 0.930 . S
C3922 C3920 1.384 . S
C3922 C3923 1.372 . S
C3923 C3922 1.372 . S
C3923 C3924 1.400 . S
C3923 C3928 1.490 . S
C3924 H3914 0.930 . S
C3924 C3923 1.400 . S
C3924 C3927 1.386 . S
H3925 C3941 0.930 . S
H3926 C3942 0.931 . S
C3927 H3915 0.929 . S
C3927 C3921 1.390 . S
C3927 C3924 1.386 . S
C3928 C3923 1.490 . S
C3928 C3930 1.395 . S
C3928 C3931 1.403 . S
H3929 C3935 0.930 . S
C3930 H3916 0.930 . S
C3930 C3928 1.395 . S
C3930 C3933 1.403 . S
C3931 C3928 1.403 . S
C3931 C3932 1.524 . S
C3931 C3935 1.400 . S
C3932 H3917 0.960 . S
C3932 H3918 0.960 . S
C3932 H3919 0.960 . S
C3932 C3931 1.524 . S
C3933 C3930 1.403 . S
C3933 C3934 1.392 . S
C3933 C3937 1.495 . S
C3934 C3933 1.392 . S
C3934 C3935 1.385 . S
C3934 C3936 1.478 . S
C3935 H3929 0.930 . S
C3935 C3931 1.400 . S
C3935 C3934 1.385 . S
C3936 C3934 1.478 . S
C3936 C3938 1.381 . S
C3936 C3942 1.383 . S
C3937 C3933 1.495 . S
C3937 H3943 0.959 . S
C3937 H3944 0.961 . S
C3937 H3945 0.960 . S
C3938 C3936 1.381 . S
C3938 C3939 1.394 . S
C3938 H3946 0.930 . S
C3939 C3938 1.394 . S
C3939 C3940 1.383 . S
C3939 H3947 0.929 . S
C3940 C3939 1.383 . S
C3940 C3941 1.377 . S
C3941 H3925 0.930 . S
C3941 C3940 1.377 . S
C3941 C3942 1.379 . S
C3942 H3926 0.931 . S
C3942 C3936 1.383 . S
C3942 C3941 1.379 . S
H3943 C3937 0.959 . S
H3944 C3937 0.961 . S
H3945 C3937 0.960 . S
H3946 C3938 0.930 . S
H3947 C3939 0.929 . S
H3948 C3956 0.929 . S
H3949 C3958 0.930 . S
H3950 C3960 0.930 . S
H3951 C3963 0.929 . S
H3952 C3966 0.930 . S
H3953 C3968 0.960 . S
H3954 C3968 0.960 . S
H3955 C3968 0.960 . S
C3956 H3948 0.929 . S
C3956 C3957 1.377 . S
C3956 C3958 1.384 . S
C3957 C3956 1.377 . S
C3957 C3963 1.390 . S
C3958 H3949 0.930 . S
C3958 C3956 1.384 . S
C3958 C3959 1.372 . S
C3959 C3958 1.372 . S
C3959 C3960 1.400 . S
C3959 C3964 1.490 . S
C3960 H3950 0.930 . S
C3960 C3959 1.400 . S
C3960 C3963 1.386 . S
H3961 C3977 0.930 . S
H3962 C3978 0.931 . S
C3963 H3951 0.929 . S
C3963 C3957 1.390 . S
C3963 C3960 1.386 . S
C3964 C3959 1.490 . S
C3964 C3966 1.395 . S
C3964 C3967 1.403 . S
H3965 C3971 0.930 . S
C3966 H3952 0.930 . S
C3966 C3964 1.395 . S
C3966 C3969 1.403 . S
C3967 C3964 1.403 . S
C3967 C3968 1.524 . S
C3967 C3971 1.400 . S
C3968 H3953 0.960 . S
C3968 H3954 0.960 . S
C3968 H3955 0.960 . S
C3968 C3967 1.524 . S
C3969 C3966 1.403 . S
C3969 C3970 1.392 . S
C3969 C3973 1.495 . S
C3970 C3969 1.392 . S
C3970 C3971 1.385 . S
C3970 C3972 1.478 . S
C3971 H3965 0.930 . S
C3971 C3967 1.400 . S
C3971 C3970 1.385 . S
C3972 C3970 1.478 . S
C3972 C3974 1.381 . S
C3972 C3978 1.383 . S
C3973 C3969 1.495 . S
C3973 H3979 0.959 . S
C3973 H3980 0.961 . S
C3973 H3981 0.960 . S
C3974 C3972 1.381 . S
C3974 C3975 1.394 . S
C3974 H3982 0.930 . S
C3975 C3974 1.394 . S
C3975 C3976 1.383 . S
C3975 H3983 0.929 . S
C3976 C3975 1.383 . S
C3976 C3977 1.377 . S
C3977 H3961 0.930 . S
C3977 C3976 1.377 . S
C3977 C3978 1.379 . S
C3978 H3962 0.931 . S
C3978 C3972 1.383 . S
C3978 C3977 1.379 . S
H3979 C3973 0.959 . S
H3980 C3973 0.961 . S
H3981 C3973 0.960 . S
H3982 C3974 0.930 . S
H3983 C3975 0.929 . S
H3984 C3992 0.929 . S
H3985 C3994 0.930 . S
H3986 C3996 0.930 . S
H3987 C3999 0.929 . S
H3988 C4002 0.930 . S
H3989 C4004 0.960 . S
H3990 C4004 0.960 . S
H3991 C4004 0.960 . S
C3992 H3984 0.929 . S
C3992 C3993 1.377 . S
C3992 C3994 1.384 . S
C3993 C3992 1.377 . S
C3993 C3999 1.390 . S
C3994 H3985 0.930 . S
C3994 C3992 1.384 . S
C3994 C3995 1.372 . S
C3995 C3994 1.372 . S
C3995 C3996 1.400 . S
C3995 C4000 1.490 . S
C3996 H3986 0.930 . S
C3996 C3995 1.400 . S
C3996 C3999 1.386 . S
H3997 C4013 0.930 . S
H3998 C4014 0.931 . S
C3999 H3987 0.929 . S
C3999 C3993 1.390 . S
C3999 C3996 1.386 . S
C4000 C3995 1.490 . S
C4000 C4002 1.395 . S
C4000 C4003 1.403 . S
H4001 C4007 0.930 . S
C4002 H3988 0.930 . S
C4002 C4000 1.395 . S
C4002 C4005 1.403 . S
C4003 C4000 1.403 . S
C4003 C4004 1.524 . S
C4003 C4007 1.400 . S
C4004 H3989 0.960 . S
C4004 H3990 0.960 . S
C4004 H3991 0.960 . S
C4004 C4003 1.524 . S
C4005 C4002 1.403 . S
C4005 C4006 1.392 . S
C4005 C4009 1.495 . S
C4006 C4005 1.392 . S
C4006 C4007 1.385 . S
C4006 C4008 1.478 . S
C4007 H4001 0.930 . S
C4007 C4003 1.400 . S
C4007 C4006 1.385 . S
C4008 C4006 1.478 . S
C4008 C4010 1.381 . S
C4008 C4014 1.383 . S
C4009 C4005 1.495 . S
C4009 H4015 0.959 . S
C4009 H4016 0.961 . S
C4009 H4017 0.960 . S
C4010 C4008 1.381 . S
C4010 C4011 1.394 . S
C4010 H4018 0.930 . S
C4011 C4010 1.394 . S
C4011 C4012 1.383 . S
C4011 H4019 0.929 . S
C4012 C4011 1.383 . S
C4012 C4013 1.377 . S
C4013 H3997 0.930 . S
C4013 C4012 1.377 . S
C4013 C4014 1.379 . S
C4014 H3998 0.931 . S
C4014 C4008 1.383 . S
C4014 C4013 1.379 . S
H4015 C4009 0.959 . S
H4016 C4009 0.961 . S
H4017 C4009 0.960 . S
H4018 C4010 0.930 . S
H4019 C4011 0.929 . S
H4020 C4028 0.929 . S
H4021 C4030 0.930 . S
H4022 C4032 0.930 . S
H4023 C4035 0.929 . S
H4024 C4038 0.930 . S
H4025 C4040 0.960 . S
H4026 C4040 0.960 . S
H4027 C4040 0.960 . S
C4028 H4020 0.929 . S
C4028 C4029 1.377 . S
C4028 C4030 1.384 . S
C4029 C4028 1.377 . S
C4029 C4035 1.390 . S
C4030 H4021 0.930 . S
C4030 C4028 1.384 . S
C4030 C4031 1.372 . S
C4031 C4030 1.372 . S
C4031 C4032 1.400 . S
C4031 C4036 1.490 . S
C4032 H4022 0.930 . S
C4032 C4031 1.400 . S
C4032 C4035 1.386 . S
H4033 C4049 0.930 . S
H4034 C4050 0.931 . S
C4035 H4023 0.929 . S
C4035 C4029 1.390 . S
C4035 C4032 1.386 . S
C4036 C4031 1.490 . S
C4036 C4038 1.395 . S
C4036 C4039 1.403 . S
H4037 C4043 0.930 . S
C4038 H4024 0.930 . S
C4038 C4036 1.395 . S
C4038 C4041 1.403 . S
C4039 C4036 1.403 . S
C4039 C4040 1.524 . S
C4039 C4043 1.400 . S
C4040 H4025 0.960 . S
C4040 H4026 0.960 . S
C4040 H4027 0.960 . S
C4040 C4039 1.524 . S
C4041 C4038 1.403 . S
C4041 C4042 1.392 . S
C4041 C4045 1.495 . S
C4042 C4041 1.392 . S
C4042 C4043 1.385 . S
C4042 C4044 1.478 . S
C4043 H4037 0.930 . S
C4043 C4039 1.400 . S
C4043 C4042 1.385 . S
C4044 C4042 1.478 . S
C4044 C4046 1.381 . S
C4044 C4050 1.383 . S
C4045 C4041 1.495 . S
C4045 H4051 0.959 . S
C4045 H4052 0.961 . S
C4045 H4053 0.960 . S
C4046 C4044 1.381 . S
C4046 C4047 1.394 . S
C4046 H4054 0.930 . S
C4047 C4046 1.394 . S
C4047 C4048 1.383 . S
C4047 H4055 0.929 . S
C4048 C4047 1.383 . S
C4048 C4049 1.377 . S
C4049 H4033 0.930 . S
C4049 C4048 1.377 . S
C4049 C4050 1.379 . S
C4050 H4034 0.931 . S
C4050 C4044 1.383 . S
C4050 C4049 1.379 . S
H4051 C4045 0.959 . S
H4052 C4045 0.961 . S
H4053 C4045 0.960 . S
H4054 C4046 0.930 . S
H4055 C4047 0.929 . S
H4056 C4064 0.929 . S
H4057 C4066 0.930 . S
H4058 C4068 0.930 . S
H4059 C4071 0.929 . S
H4060 C4074 0.930 . S
H4061 C4076 0.960 . S
H4062 C4076 0.960 . S
H4063 C4076 0.960 . S
C4064 H4056 0.929 . S
C4064 C4065 1.377 . S
C4064 C4066 1.384 . S
C4065 C4064 1.377 . S
C4065 C4071 1.390 . S
C4066 H4057 0.930 . S
C4066 C4064 1.384 . S
C4066 C4067 1.372 . S
C4067 C4066 1.372 . S
C4067 C4068 1.400 . S
C4067 C4072 1.490 . S
C4068 H4058 0.930 . S
C4068 C4067 1.400 . S
C4068 C4071 1.386 . S
H4069 C4085 0.930 . S
H4070 C4086 0.931 . S
C4071 H4059 0.929 . S
C4071 C4065 1.390 . S
C4071 C4068 1.386 . S
C4072 C4067 1.490 . S
C4072 C4074 1.395 . S
C4072 C4075 1.403 . S
H4073 C4079 0.930 . S
C4074 H4060 0.930 . S
C4074 C4072 1.395 . S
C4074 C4077 1.403 . S
C4075 C4072 1.403 . S
C4075 C4076 1.524 . S
C4075 C4079 1.400 . S
C4076 H4061 0.960 . S
C4076 H4062 0.960 . S
C4076 H4063 0.960 . S
C4076 C4075 1.524 . S
C4077 C4074 1.403 . S
C4077 C4078 1.392 . S
C4077 C4081 1.495 . S
C4078 C4077 1.392 . S
C4078 C4079 1.385 . S
C4078 C4080 1.478 . S
C4079 H4073 0.930 . S
C4079 C4075 1.400 . S
C4079 C4078 1.385 . S
C4080 C4078 1.478 . S
C4080 C4082 1.381 . S
C4080 C4086 1.383 . S
C4081 C4077 1.495 . S
C4081 H4087 0.959 . S
C4081 H4088 0.961 . S
C4081 H4089 0.960 . S
C4082 C4080 1.381 . S
C4082 C4083 1.394 . S
C4082 H4090 0.930 . S
C4083 C4082 1.394 . S
C4083 C4084 1.383 . S
C4083 H4091 0.929 . S
C4084 C4083 1.383 . S
C4084 C4085 1.377 . S
C4085 H4069 0.930 . S
C4085 C4084 1.377 . S
C4085 C4086 1.379 . S
C4086 H4070 0.931 . S
C4086 C4080 1.383 . S
C4086 C4085 1.379 . S
H4087 C4081 0.959 . S
H4088 C4081 0.961 . S
H4089 C4081 0.960 . S
H4090 C4082 0.930 . S
H4091 C4083 0.929 . S
H4092 C4100 0.929 . S
H4093 C4102 0.930 . S
H4094 C4104 0.930 . S
H4095 C4107 0.929 . S
H4096 C4110 0.930 1_556 S
H4097 C4112 0.960 . S
H4098 C4112 0.960 1_565 S
H4099 C4112 0.960 . S
C4100 H4092 0.929 . S
C4100 C4101 1.377 . S
C4100 C4102 1.384 . S
C4101 C4100 1.377 . S
C4101 C4107 1.390 . S
C4102 H4093 0.930 . S
C4102 C4100 1.384 . S
C4102 C4103 1.372 . S
C4103 C4102 1.372 . S
C4103 C4104 1.400 . S
C4103 C4108 1.490 . S
C4104 H4094 0.930 . S
C4104 C4103 1.400 . S
C4104 C4107 1.386 . S
H4105 C4121 0.930 . S
H4106 C4122 0.931 . S
C4107 H4095 0.929 . S
C4107 C4101 1.390 . S
C4107 C4104 1.386 . S
C4108 C4103 1.490 . S
C4108 C4110 1.395 . S
C4108 C4111 1.403 . S
H4109 C4115 0.930 . S
C4110 H4096 0.930 1_554 S
C4110 C4108 1.395 . S
C4110 C4113 1.403 . S
C4111 C4108 1.403 . S
C4111 C4112 1.524 1_565 S
C4111 C4115 1.400 1_565 S
C4112 H4097 0.960 . S
C4112 H4098 0.960 1_545 S
C4112 H4099 0.960 . S
C4112 C4111 1.524 1_545 S
C4113 C4110 1.403 . S
C4113 C4114 1.392 . S
C4113 C4117 1.495 1_554 S
C4114 C4113 1.392 . S
C4114 C4115 1.385 1_565 S
C4114 C4116 1.478 1_565 S
C4115 H4109 0.930 . S
C4115 C4111 1.400 1_545 S
C4115 C4114 1.385 1_545 S
C4116 C4114 1.478 1_545 S
C4116 C4118 1.381 1_545 S
C4116 C4122 1.383 . S
C4117 C4113 1.495 1_556 S
C4117 H4123 0.959 . S
C4117 H4124 0.961 . S
C4117 H4125 0.960 . S
C4118 C4116 1.381 1_565 S
C4118 C4119 1.394 1_565 S
C4118 H4126 0.930 . S
C4119 C4118 1.394 1_545 S
C4119 C4120 1.383 . S
C4119 H4127 0.929 . S
C4120 C4119 1.383 . S
C4120 C4121 1.377 . S
C4121 H4105 0.930 . S
C4121 C4120 1.377 . S
C4121 C4122 1.379 . S
C4122 H4106 0.931 . S
C4122 C4116 1.383 . S
C4122 C4121 1.379 . S
H4123 C4117 0.959 . S
H4124 C4117 0.961 . S
H4125 C4117 0.960 . S
H4126 C4118 0.930 . S
H4127 C4119 0.929 . S
H4128 C4136 0.929 . S
H4129 C4138 0.930 . S
H4130 C4140 0.930 . S
H4131 C4143 0.929 . S
H4132 C4146 0.930 . S
H4133 C4148 0.960 . S
H4134 C4148 0.960 . S
H4135 C4148 0.960 . S
C4136 H4128 0.929 . S
C4136 C4137 1.377 . S
C4136 C4138 1.384 . S
C4137 C4136 1.377 . S
C4137 C4143 1.390 . S
C4138 H4129 0.930 . S
C4138 C4136 1.384 . S
C4138 C4139 1.372 . S
C4139 C4138 1.372 . S
C4139 C4140 1.400 . S
C4139 C4144 1.490 . S
C4140 H4130 0.930 . S
C4140 C4139 1.400 . S
C4140 C4143 1.386 . S
H4141 C4157 0.930 . S
H4142 C4158 0.931 . S
C4143 H4131 0.929 . S
C4143 C4137 1.390 . S
C4143 C4140 1.386 . S
C4144 C4139 1.490 . S
C4144 C4146 1.395 . S
C4144 C4147 1.403 . S
H4145 C4151 0.930 . S
C4146 H4132 0.930 . S
C4146 C4144 1.395 . S
C4146 C4149 1.403 . S
C4147 C4144 1.403 . S
C4147 C4148 1.524 . S
C4147 C4151 1.400 . S
C4148 H4133 0.960 . S
C4148 H4134 0.960 . S
C4148 H4135 0.960 . S
C4148 C4147 1.524 . S
C4149 C4146 1.403 . S
C4149 C4150 1.392 . S
C4149 C4153 1.495 . S
C4150 C4149 1.392 . S
C4150 C4151 1.385 . S
C4150 C4152 1.478 . S
C4151 H4145 0.930 . S
C4151 C4147 1.400 . S
C4151 C4150 1.385 . S
C4152 C4150 1.478 . S
C4152 C4154 1.381 . S
C4152 C4158 1.383 . S
C4153 C4149 1.495 . S
C4153 H4159 0.959 . S
C4153 H4160 0.961 . S
C4153 H4161 0.960 . S
C4154 C4152 1.381 . S
C4154 C4155 1.394 . S
C4154 H4162 0.930 . S
C4155 C4154 1.394 . S
C4155 C4156 1.383 . S
C4155 H4163 0.929 . S
C4156 C4155 1.383 . S
C4156 C4157 1.377 . S
C4157 H4141 0.930 . S
C4157 C4156 1.377 . S
C4157 C4158 1.379 . S
C4158 H4142 0.931 . S
C4158 C4152 1.383 . S
C4158 C4157 1.379 . S
H4159 C4153 0.959 . S
H4160 C4153 0.961 . S
H4161 C4153 0.960 . S
H4162 C4154 0.930 . S
H4163 C4155 0.929 . S
H4164 C4172 0.929 . S
H4165 C4174 0.934 . S
H4166 C4176 0.930 . S
H4167 C4179 0.929 . S
H4168 C4182 0.930 . S
H4169 C4184 0.960 . S
H4170 C4184 0.960 . S
H4171 C4184 0.960 . S
C4172 H4164 0.929 . S
C4172 C4173 1.377 1_556 S
C4172 C4174 1.384 1_556 S
C4173 C4172 1.377 1_554 S
C4173 C4179 1.390 . S
C4174 H4165 0.934 . S
C4174 C4172 1.384 1_554 S
C4174 C4175 1.372 . S
C4175 C4174 1.372 . S
C4175 C4176 1.400 . S
C4175 C4180 1.490 . S
C4176 H4166 0.930 . S
C4176 C4175 1.400 . S
C4176 C4179 1.386 . S
H4177 C4193 0.930 . S
H4178 C4194 0.931 . S
C4179 H4167 0.929 . S
C4179 C4173 1.390 . S
C4179 C4176 1.386 . S
C4180 C4175 1.490 . S
C4180 C4182 1.395 . S
C4180 C4183 1.403 . S
H4181 C4187 0.950 . S
C4182 H4168 0.930 . S
C4182 C4180 1.395 . S
C4182 C4185 1.403 . S
C4183 C4180 1.403 . S
C4183 C4184 1.524 1_554 S
C4183 C4187 1.400 . S
C4184 H4169 0.960 . S
C4184 H4170 0.960 . S
C4184 H4171 0.960 . S
C4184 C4183 1.524 1_556 S
C4185 C4182 1.403 . S
C4185 C4186 1.392 . S
C4185 C4189 1.495 . S
C4186 C4185 1.392 . S
C4186 C4187 1.385 . S
C4186 C4188 1.478 . S
C4187 H4181 0.950 . S
C4187 C4183 1.400 . S
C4187 C4186 1.385 . S
C4188 C4186 1.478 . S
C4188 C4190 1.381 . S
C4188 C4194 1.383 . S
C4189 C4185 1.495 . S
C4189 H4195 0.959 . S
C4189 H4196 0.961 . S
C4189 H4197 0.960 . S
C4190 C4188 1.381 . S
C4190 C4191 1.394 . S
C4190 H4198 0.930 . S
C4191 C4190 1.394 . S
C4191 C4192 1.383 . S
C4191 H4199 0.929 . S
C4192 C4191 1.383 . S
C4192 C4193 1.377 . S
C4193 H4177 0.930 . S
C4193 C4192 1.377 . S
C4193 C4194 1.379 . S
C4194 H4178 0.931 . S
C4194 C4188 1.383 . S
C4194 C4193 1.379 . S
H4195 C4189 0.959 . S
H4196 C4189 0.961 . S
H4197 C4189 0.960 . S
H4198 C4190 0.930 . S
H4199 C4191 0.929 . S
H4200 C4208 0.929 . S
H4201 C4210 0.930 . S
H4202 C4212 0.930 . S
H4203 C4215 0.929 . S
H4204 C4218 0.930 . S
H4205 C4220 0.960 . S
H4206 C4220 0.960 . S
H4207 C4220 0.960 . S
C4208 H4200 0.929 . S
C4208 C4209 1.377 . S
C4208 C4210 1.384 . S
C4209 C4208 1.377 . S
C4209 C4215 1.390 . S
C4210 H4201 0.930 . S
C4210 C4208 1.384 . S
C4210 C4211 1.372 . S
C4211 C4210 1.372 . S
C4211 C4212 1.400 . S
C4211 C4216 1.490 . S
C4212 H4202 0.930 . S
C4212 C4211 1.400 . S
C4212 C4215 1.386 . S
H4213 C4229 0.930 . S
H4214 C4230 0.931 . S
C4215 H4203 0.929 . S
C4215 C4209 1.390 . S
C4215 C4212 1.386 . S
C4216 C4211 1.490 . S
C4216 C4218 1.395 . S
C4216 C4219 1.403 . S
H4217 C4223 0.930 . S
C4218 H4204 0.930 . S
C4218 C4216 1.395 . S
C4218 C4221 1.403 . S
C4219 C4216 1.403 . S
C4219 C4220 1.524 . S
C4219 C4223 1.400 . S
C4220 H4205 0.960 . S
C4220 H4206 0.960 . S
C4220 H4207 0.960 . S
C4220 C4219 1.524 . S
C4221 C4218 1.403 . S
C4221 C4222 1.392 . S
C4221 C4225 1.495 . S
C4222 C4221 1.392 . S
C4222 C4223 1.385 . S
C4222 C4224 1.478 . S
C4223 H4217 0.930 . S
C4223 C4219 1.400 . S
C4223 C4222 1.385 . S
C4224 C4222 1.478 . S
C4224 C4226 1.381 . S
C4224 C4230 1.383 . S
C4225 C4221 1.495 . S
C4225 H4231 0.959 . S
C4225 H4232 0.961 . S
C4225 H4233 0.960 . S
C4226 C4224 1.381 . S
C4226 C4227 1.394 . S
C4226 H4234 0.930 . S
C4227 C4226 1.394 . S
C4227 C4228 1.383 . S
C4227 H4235 0.929 . S
C4228 C4227 1.383 . S
C4228 C4229 1.377 . S
C4229 H4213 0.930 . S
C4229 C4228 1.377 . S
C4229 C4230 1.379 . S
C4230 H4214 0.931 . S
C4230 C4224 1.383 . S
C4230 C4229 1.379 . S
H4231 C4225 0.959 . S
H4232 C4225 0.961 . S
H4233 C4225 0.960 . S
H4234 C4226 0.930 . S
H4235 C4227 0.929 . S
H4236 C4244 0.929 . S
H4237 C4246 0.930 . S
H4238 C4248 0.930 . S
H4239 C4251 0.929 . S
H4240 C4254 0.930 . S
H4241 C4256 0.960 . S
H4242 C4256 0.960 . S
H4243 C4256 0.960 . S
C4244 H4236 0.929 . S
C4244 C4245 1.377 . S
C4244 C4246 1.384 . S
C4245 C4244 1.377 . S
C4245 C4251 1.390 . S
C4246 H4237 0.930 . S
C4246 C4244 1.384 . S
C4246 C4247 1.372 . S
C4247 C4246 1.372 . S
C4247 C4248 1.400 . S
C4247 C4252 1.490 . S
C4248 H4238 0.930 . S
C4248 C4247 1.400 . S
C4248 C4251 1.386 . S
H4249 C4265 0.930 . S
H4250 C4266 0.931 . S
C4251 H4239 0.929 . S
C4251 C4245 1.390 . S
C4251 C4248 1.386 . S
C4252 C4247 1.490 . S
C4252 C4254 1.395 . S
C4252 C4255 1.403 . S
H4253 C4259 0.930 . S
C4254 H4240 0.930 . S
C4254 C4252 1.395 . S
C4254 C4257 1.403 . S
C4255 C4252 1.403 . S
C4255 C4256 1.524 . S
C4255 C4259 1.400 . S
C4256 H4241 0.960 . S
C4256 H4242 0.960 . S
C4256 H4243 0.960 . S
C4256 C4255 1.524 . S
C4257 C4254 1.403 . S
C4257 C4258 1.392 . S
C4257 C4261 1.495 . S
C4258 C4257 1.392 . S
C4258 C4259 1.385 . S
C4258 C4260 1.478 . S
C4259 H4253 0.930 . S
C4259 C4255 1.400 . S
C4259 C4258 1.385 . S
C4260 C4258 1.478 . S
C4260 C4262 1.381 . S
C4260 C4266 1.383 . S
C4261 C4257 1.495 . S
C4261 H4267 0.959 . S
C4261 H4268 0.961 . S
C4261 H4269 0.960 . S
C4262 C4260 1.381 . S
C4262 C4263 1.394 . S
C4262 H4270 0.930 . S
C4263 C4262 1.394 . S
C4263 C4264 1.383 . S
C4263 H4271 0.929 . S
C4264 C4263 1.383 . S
C4264 C4265 1.377 . S
C4265 H4249 0.930 . S
C4265 C4264 1.377 . S
C4265 C4266 1.379 . S
C4266 H4250 0.931 . S
C4266 C4260 1.383 . S
C4266 C4265 1.379 . S
H4267 C4261 0.959 . S
H4268 C4261 0.961 . S
H4269 C4261 0.960 . S
H4270 C4262 0.930 . S
H4271 C4263 0.929 . S
H4272 C4280 0.929 . S
H4273 C4282 0.930 . S
H4274 C4284 0.930 . S
H4275 C4287 0.929 . S
H4276 C4290 0.930 . S
H4277 C4292 0.960 . S
H4278 C4292 0.960 . S
H4279 C4292 0.960 . S
C4280 H4272 0.929 . S
C4280 C4281 1.377 . S
C4280 C4282 1.384 . S
C4281 C4280 1.377 . S
C4281 C4287 1.390 . S
C4282 H4273 0.930 . S
C4282 C4280 1.384 . S
C4282 C4283 1.372 . S
C4283 C4282 1.372 . S
C4283 C4284 1.400 . S
C4283 C4288 1.490 . S
C4284 H4274 0.930 . S
C4284 C4283 1.400 . S
C4284 C4287 1.386 . S
H4285 C4301 0.930 . S
H4286 C4302 0.931 . S
C4287 H4275 0.929 . S
C4287 C4281 1.390 . S
C4287 C4284 1.386 . S
C4288 C4283 1.490 . S
C4288 C4290 1.395 . S
C4288 C4291 1.403 . S
H4289 C4295 0.930 . S
C4290 H4276 0.930 . S
C4290 C4288 1.395 . S
C4290 C4293 1.403 . S
C4291 C4288 1.403 . S
C4291 C4292 1.524 . S
C4291 C4295 1.400 . S
C4292 H4277 0.960 . S
C4292 H4278 0.960 . S
C4292 H4279 0.960 . S
C4292 C4291 1.524 . S
C4293 C4290 1.403 . S
C4293 C4294 1.392 . S
C4293 C4297 1.495 . S
C4294 C4293 1.392 . S
C4294 C4295 1.385 . S
C4294 C4296 1.478 . S
C4295 H4289 0.930 . S
C4295 C4291 1.400 . S
C4295 C4294 1.385 . S
C4296 C4294 1.478 . S
C4296 C4298 1.381 . S
C4296 C4302 1.383 . S
C4297 C4293 1.495 . S
C4297 H4303 0.959 . S
C4297 H4304 0.961 . S
C4297 H4305 0.960 . S
C4298 C4296 1.381 . S
C4298 C4299 1.394 . S
C4298 H4306 0.930 . S
C4299 C4298 1.394 . S
C4299 C4300 1.383 . S
C4299 H4307 0.929 . S
C4300 C4299 1.383 . S
C4300 C4301 1.377 . S
C4301 H4285 0.930 . S
C4301 C4300 1.377 . S
C4301 C4302 1.379 . S
C4302 H4286 0.931 . S
C4302 C4296 1.383 . S
C4302 C4301 1.379 . S
H4303 C4297 0.959 . S
H4304 C4297 0.961 . S
H4305 C4297 0.960 . S
H4306 C4298 0.930 . S
H4307 C4299 0.929 . S
H4308 C4316 0.929 . S
H4309 C4318 0.930 . S
H4310 C4320 0.930 . S
H4311 C4323 0.929 . S
H4312 C4326 0.930 . S
H4313 C4328 0.960 . S
H4314 C4328 0.960 . S
H4315 C4328 0.960 . S
C4316 H4308 0.929 . S
C4316 C4317 1.377 . S
C4316 C4318 1.384 . S
C4317 C4316 1.377 . S
C4317 C4323 1.390 . S
C4318 H4309 0.930 . S
C4318 C4316 1.384 . S
C4318 C4319 1.372 . S
C4319 C4318 1.372 . S
C4319 C4320 1.400 . S
C4319 C4324 1.490 . S
C4320 H4310 0.930 . S
C4320 C4319 1.400 . S
C4320 C4323 1.386 . S
H4321 C4337 0.930 . S
H4322 C4338 0.931 . S
C4323 H4311 0.929 . S
C4323 C4317 1.390 . S
C4323 C4320 1.386 . S
C4324 C4319 1.490 . S
C4324 C4326 1.395 . S
C4324 C4327 1.403 . S
H4325 C4331 0.930 . S
C4326 H4312 0.930 . S
C4326 C4324 1.395 . S
C4326 C4329 1.403 . S
C4327 C4324 1.403 . S
C4327 C4328 1.524 . S
C4327 C4331 1.400 . S
C4328 H4313 0.960 . S
C4328 H4314 0.960 . S
C4328 H4315 0.960 . S
C4328 C4327 1.524 . S
C4329 C4326 1.403 . S
C4329 C4330 1.392 . S
C4329 C4333 1.495 . S
C4330 C4329 1.392 . S
C4330 C4331 1.385 . S
C4330 C4332 1.478 . S
C4331 H4325 0.930 . S
C4331 C4327 1.400 . S
C4331 C4330 1.385 . S
C4332 C4330 1.478 . S
C4332 C4334 1.381 . S
C4332 C4338 1.383 . S
C4333 C4329 1.495 . S
C4333 H4339 0.959 . S
C4333 H4340 0.961 . S
C4333 H4341 0.960 . S
C4334 C4332 1.381 . S
C4334 C4335 1.394 . S
C4334 H4342 0.930 . S
C4335 C4334 1.394 . S
C4335 C4336 1.383 . S
C4335 H4343 0.929 . S
C4336 C4335 1.383 . S
C4336 C4337 1.377 . S
C4337 H4321 0.930 . S
C4337 C4336 1.377 . S
C4337 C4338 1.379 . S
C4338 H4322 0.931 . S
C4338 C4332 1.383 . S
C4338 C4337 1.379 . S
H4339 C4333 0.959 . S
H4340 C4333 0.961 . S
H4341 C4333 0.960 . S
H4342 C4334 0.930 . S
H4343 C4335 0.929 . S
H4344 C4352 0.929 . S
H4345 C4354 0.930 . S
H4346 C4356 0.930 . S
H4347 C4359 0.929 . S
H4348 C4362 0.930 . S
H4349 C4364 0.960 . S
H4350 C4364 0.960 . S
H4351 C4364 0.960 . S
C4352 H4344 0.929 . S
C4352 C4353 1.377 . S
C4352 C4354 1.384 . S
C4353 C4352 1.377 . S
C4353 C4359 1.390 . S
C4354 H4345 0.930 . S
C4354 C4352 1.384 . S
C4354 C4355 1.372 . S
C4355 C4354 1.372 . S
C4355 C4356 1.400 . S
C4355 C4360 1.490 . S
C4356 H4346 0.930 . S
C4356 C4355 1.400 . S
C4356 C4359 1.386 . S
H4357 C4373 0.930 . S
H4358 C4374 0.931 . S
C4359 H4347 0.929 . S
C4359 C4353 1.390 . S
C4359 C4356 1.386 . S
C4360 C4355 1.490 . S
C4360 C4362 1.395 . S
C4360 C4363 1.403 . S
H4361 C4367 0.930 . S
C4362 H4348 0.930 . S
C4362 C4360 1.395 . S
C4362 C4365 1.403 . S
C4363 C4360 1.403 . S
C4363 C4364 1.524 . S
C4363 C4367 1.400 . S
C4364 H4349 0.960 . S
C4364 H4350 0.960 . S
C4364 H4351 0.960 . S
C4364 C4363 1.524 . S
C4365 C4362 1.403 . S
C4365 C4366 1.392 . S
C4365 C4369 1.495 . S
C4366 C4365 1.392 . S
C4366 C4367 1.385 . S
C4366 C4368 1.478 . S
C4367 H4361 0.930 . S
C4367 C4363 1.400 . S
C4367 C4366 1.385 . S
C4368 C4366 1.478 . S
C4368 C4370 1.381 . S
C4368 C4374 1.383 . S
C4369 C4365 1.495 . S
C4369 H4375 0.959 . S
C4369 H4376 0.961 . S
C4369 H4377 0.960 . S
C4370 C4368 1.381 . S
C4370 C4371 1.394 . S
C4370 H4378 0.930 . S
C4371 C4370 1.394 . S
C4371 C4372 1.383 . S
C4371 H4379 0.929 . S
C4372 C4371 1.383 . S
C4372 C4373 1.377 . S
C4373 H4357 0.930 . S
C4373 C4372 1.377 . S
C4373 C4374 1.379 . S
C4374 H4358 0.931 . S
C4374 C4368 1.383 . S
C4374 C4373 1.379 . S
H4375 C4369 0.959 . S
H4376 C4369 0.961 . S
H4377 C4369 0.960 . S
H4378 C4370 0.930 . S
H4379 C4371 0.929 . S
H4380 C4388 0.929 . S
H4381 C4390 0.930 . S
H4382 C4392 0.930 . S
H4383 C4395 0.929 . S
H4384 C4398 0.930 . S
H4385 C4400 0.960 . S
H4386 C4400 0.960 . S
H4387 C4400 0.960 . S
C4388 H4380 0.929 . S
C4388 C4389 1.377 . S
C4388 C4390 1.384 . S
C4389 C4388 1.377 . S
C4389 C4395 1.390 . S
C4390 H4381 0.930 . S
C4390 C4388 1.384 . S
C4390 C4391 1.372 . S
C4391 C4390 1.372 . S
C4391 C4392 1.400 . S
C4391 C4396 1.490 . S
C4392 H4382 0.930 . S
C4392 C4391 1.400 . S
C4392 C4395 1.386 . S
H4393 C4409 0.930 . S
H4394 C4410 0.931 . S
C4395 H4383 0.929 . S
C4395 C4389 1.390 . S
C4395 C4392 1.386 . S
C4396 C4391 1.490 . S
C4396 C4398 1.395 . S
C4396 C4399 1.403 . S
H4397 C4403 0.930 . S
C4398 H4384 0.930 . S
C4398 C4396 1.395 . S
C4398 C4401 1.403 . S
C4399 C4396 1.403 . S
C4399 C4400 1.524 . S
C4399 C4403 1.400 . S
C4400 H4385 0.960 . S
C4400 H4386 0.960 . S
C4400 H4387 0.960 . S
C4400 C4399 1.524 . S
C4401 C4398 1.403 . S
C4401 C4402 1.392 . S
C4401 C4405 1.495 . S
C4402 C4401 1.392 . S
C4402 C4403 1.385 . S
C4402 C4404 1.478 . S
C4403 H4397 0.930 . S
C4403 C4399 1.400 . S
C4403 C4402 1.385 . S
C4404 C4402 1.478 . S
C4404 C4406 1.381 . S
C4404 C4410 1.383 . S
C4405 C4401 1.495 . S
C4405 H4411 0.959 . S
C4405 H4412 0.961 . S
C4405 H4413 0.960 . S
C4406 C4404 1.381 . S
C4406 C4407 1.394 . S
C4406 H4414 0.930 . S
C4407 C4406 1.394 . S
C4407 C4408 1.383 . S
C4407 H4415 0.929 . S
C4408 C4407 1.383 . S
C4408 C4409 1.377 . S
C4409 H4393 0.930 . S
C4409 C4408 1.377 . S
C4409 C4410 1.379 . S
C4410 H4394 0.931 . S
C4410 C4404 1.383 . S
C4410 C4409 1.379 . S
H4411 C4405 0.959 . S
H4412 C4405 0.961 . S
H4413 C4405 0.960 . S
H4414 C4406 0.930 . S
H4415 C4407 0.929 . S
H4416 C4424 0.929 . S
H4417 C4426 0.930 . S
H4418 C4428 0.930 . S
H4419 C4431 0.929 . S
H4420 C4434 0.930 . S
H4421 C4436 0.960 . S
H4422 C4436 0.960 . S
H4423 C4436 0.960 . S
C4424 H4416 0.929 . S
C4424 C4425 1.377 . S
C4424 C4426 1.384 . S
C4425 C4424 1.377 . S
C4425 C4431 1.390 . S
C4426 H4417 0.930 . S
C4426 C4424 1.384 . S
C4426 C4427 1.372 . S
C4427 C4426 1.372 . S
C4427 C4428 1.400 . S
C4427 C4432 1.490 . S
C4428 H4418 0.930 . S
C4428 C4427 1.400 . S
C4428 C4431 1.386 . S
H4429 C4445 0.930 . S
H4430 C4446 0.931 . S
C4431 H4419 0.929 . S
C4431 C4425 1.390 . S
C4431 C4428 1.386 . S
C4432 C4427 1.490 . S
C4432 C4434 1.395 . S
C4432 C4435 1.403 . S
H4433 C4439 0.930 . S
C4434 H4420 0.930 . S
C4434 C4432 1.395 . S
C4434 C4437 1.403 . S
C4435 C4432 1.403 . S
C4435 C4436 1.524 . S
C4435 C4439 1.400 . S
C4436 H4421 0.960 . S
C4436 H4422 0.960 . S
C4436 H4423 0.960 . S
C4436 C4435 1.524 . S
C4437 C4434 1.403 . S
C4437 C4438 1.392 . S
C4437 C4441 1.495 . S
C4438 C4437 1.392 . S
C4438 C4439 1.385 . S
C4438 C4440 1.478 . S
C4439 H4433 0.930 . S
C4439 C4435 1.400 . S
C4439 C4438 1.385 . S
C4440 C4438 1.478 . S
C4440 C4442 1.381 . S
C4440 C4446 1.383 . S
C4441 C4437 1.495 . S
C4441 H4447 0.959 . S
C4441 H4448 0.961 . S
C4441 H4449 0.960 . S
C4442 C4440 1.381 . S
C4442 C4443 1.394 . S
C4442 H4450 0.930 . S
C4443 C4442 1.394 . S
C4443 C4444 1.383 . S
C4443 H4451 0.929 1_556 S
C4444 C4443 1.383 . S
C4444 C4445 1.377 . S
C4445 H4429 0.930 . S
C4445 C4444 1.377 . S
C4445 C4446 1.379 . S
C4446 H4430 0.931 . S
C4446 C4440 1.383 . S
C4446 C4445 1.379 . S
H4447 C4441 0.959 . S
H4448 C4441 0.961 . S
H4449 C4441 0.960 . S
H4450 C4442 0.930 . S
H4451 C4443 0.929 1_554 S
H4452 C4460 0.929 . S
H4453 C4462 0.930 . S
H4454 C4464 0.930 . S
H4455 C4467 0.929 . S
H4456 C4470 0.930 . S
H4457 C4472 0.960 . S
H4458 C4472 0.960 . S
H4459 C4472 0.960 . S
C4460 H4452 0.929 . S
C4460 C4461 1.377 . S
C4460 C4462 1.384 . S
C4461 C4460 1.377 . S
C4461 C4467 1.390 . S
C4462 H4453 0.930 . S
C4462 C4460 1.384 . S
C4462 C4463 1.372 . S
C4463 C4462 1.372 . S
C4463 C4464 1.400 . S
C4463 C4468 1.490 . S
C4464 H4454 0.930 . S
C4464 C4463 1.400 . S
C4464 C4467 1.386 . S
H4465 C4481 0.930 . S
H4466 C4482 0.931 . S
C4467 H4455 0.929 . S
C4467 C4461 1.390 . S
C4467 C4464 1.386 . S
C4468 C4463 1.490 . S
C4468 C4470 1.395 . S
C4468 C4471 1.403 . S
H4469 C4475 0.930 . S
C4470 H4456 0.930 . S
C4470 C4468 1.395 . S
C4470 C4473 1.403 . S
C4471 C4468 1.403 . S
C4471 C4472 1.524 . S
C4471 C4475 1.400 . S
C4472 H4457 0.960 . S
C4472 H4458 0.960 . S
C4472 H4459 0.960 . S
C4472 C4471 1.524 . S
C4473 C4470 1.403 . S
C4473 C4474 1.392 . S
C4473 C4477 1.495 . S
C4474 C4473 1.392 . S
C4474 C4475 1.385 . S
C4474 C4476 1.478 . S
C4475 H4469 0.930 . S
C4475 C4471 1.400 . S
C4475 C4474 1.385 . S
C4476 C4474 1.478 . S
C4476 C4478 1.381 . S
C4476 C4482 1.383 . S
C4477 C4473 1.495 . S
C4477 H4483 0.959 . S
C4477 H4484 0.961 . S
C4477 H4485 0.960 . S
C4478 C4476 1.381 . S
C4478 C4479 1.394 . S
C4478 H4486 0.930 . S
C4479 C4478 1.394 . S
C4479 C4480 1.383 . S
C4479 H4487 0.929 . S
C4480 C4479 1.383 . S
C4480 C4481 1.377 . S
C4481 H4465 0.930 . S
C4481 C4480 1.377 . S
C4481 C4482 1.379 . S
C4482 H4466 0.931 . S
C4482 C4476 1.383 . S
C4482 C4481 1.379 . S
H4483 C4477 0.959 . S
H4484 C4477 0.961 . S
H4485 C4477 0.960 . S
H4486 C4478 0.930 . S
H4487 C4479 0.929 . S
H4488 C4496 0.929 . S
H4489 C4498 0.930 . S
H4490 C4500 0.930 . S
H4491 C4503 0.929 . S
H4492 C4506 0.930 . S
H4493 C4508 0.960 . S
H4494 C4508 0.960 . S
H4495 C4508 0.960 . S
C4496 H4488 0.929 . S
C4496 C4497 1.377 . S
C4496 C4498 1.384 . S
C4497 C4496 1.377 . S
C4497 C4503 1.390 . S
C4498 H4489 0.930 . S
C4498 C4496 1.384 . S
C4498 C4499 1.372 . S
C4499 C4498 1.372 . S
C4499 C4500 1.400 . S
C4499 C4504 1.490 . S
C4500 H4490 0.930 . S
C4500 C4499 1.400 . S
C4500 C4503 1.386 . S
H4501 C4517 0.930 . S
H4502 C4518 0.931 . S
C4503 H4491 0.929 . S
C4503 C4497 1.390 . S
C4503 C4500 1.386 . S
C4504 C4499 1.490 . S
C4504 C4506 1.395 . S
C4504 C4507 1.403 . S
H4505 C4511 0.930 . S
C4506 H4492 0.930 . S
C4506 C4504 1.395 . S
C4506 C4509 1.403 . S
C4507 C4504 1.403 . S
C4507 C4508 1.524 . S
C4507 C4511 1.400 . S
C4508 H4493 0.960 . S
C4508 H4494 0.960 . S
C4508 H4495 0.960 . S
C4508 C4507 1.524 . S
C4509 C4506 1.403 . S
C4509 C4510 1.392 . S
C4509 C4513 1.495 . S
C4510 C4509 1.392 . S
C4510 C4511 1.385 . S
C4510 C4512 1.478 . S
C4511 H4505 0.930 . S
C4511 C4507 1.400 . S
C4511 C4510 1.385 . S
C4512 C4510 1.478 . S
C4512 C4514 1.381 . S
C4512 C4518 1.383 . S
C4513 C4509 1.495 . S
C4513 H4519 0.959 . S
C4513 H4520 0.961 . S
C4513 H4521 0.960 . S
C4514 C4512 1.381 . S
C4514 C4515 1.394 . S
C4514 H4522 0.930 . S
C4515 C4514 1.394 . S
C4515 C4516 1.383 . S
C4515 H4523 0.929 . S
C4516 C4515 1.383 . S
C4516 C4517 1.377 . S
C4517 H4501 0.930 . S
C4517 C4516 1.377 . S
C4517 C4518 1.379 . S
C4518 H4502 0.931 . S
C4518 C4512 1.383 . S
C4518 C4517 1.379 . S
H4519 C4513 0.959 . S
H4520 C4513 0.961 . S
H4521 C4513 0.960 . S
H4522 C4514 0.930 . S
H4523 C4515 0.929 . S
H4524 C4532 0.929 . S
H4525 C4534 0.930 . S
H4526 C4536 0.930 . S
H4527 C4539 0.929 . S
H4528 C4542 0.930 . S
H4529 C4544 0.960 . S
H4530 C4544 0.960 . S
H4531 C4544 0.960 . S
C4532 H4524 0.929 . S
C4532 C4533 1.377 . S
C4532 C4534 1.384 . S
C4533 C4532 1.377 . S
C4533 C4539 1.390 . S
C4534 H4525 0.930 . S
C4534 C4532 1.384 . S
C4534 C4535 1.372 . S
C4535 C4534 1.372 . S
C4535 C4536 1.400 . S
C4535 C4540 1.490 . S
C4536 H4526 0.930 . S
C4536 C4535 1.400 . S
C4536 C4539 1.386 . S
H4537 C4553 0.930 . S
H4538 C4554 0.931 . S
C4539 H4527 0.929 . S
C4539 C4533 1.390 . S
C4539 C4536 1.386 . S
C4540 C4535 1.490 . S
C4540 C4542 1.395 . S
C4540 C4543 1.403 . S
H4541 C4547 0.930 . S
C4542 H4528 0.930 . S
C4542 C4540 1.395 . S
C4542 C4545 1.403 . S
C4543 C4540 1.403 . S
C4543 C4544 1.524 . S
C4543 C4547 1.400 . S
C4544 H4529 0.960 . S
C4544 H4530 0.960 . S
C4544 H4531 0.960 . S
C4544 C4543 1.524 . S
C4545 C4542 1.403 . S
C4545 C4546 1.392 . S
C4545 C4549 1.495 . S
C4546 C4545 1.392 . S
C4546 C4547 1.385 . S
C4546 C4548 1.478 . S
C4547 H4541 0.930 . S
C4547 C4543 1.400 . S
C4547 C4546 1.385 . S
C4548 C4546 1.478 . S
C4548 C4550 1.381 . S
C4548 C4554 1.383 . S
C4549 C4545 1.495 . S
C4549 H4555 0.959 . S
C4549 H4556 0.961 . S
C4549 H4557 0.960 . S
C4550 C4548 1.381 . S
C4550 C4551 1.394 . S
C4550 H4558 0.930 . S
C4551 C4550 1.394 . S
C4551 C4552 1.383 . S
C4551 H4559 0.929 . S
C4552 C4551 1.383 . S
C4552 C4553 1.377 . S
C4553 H4537 0.930 . S
C4553 C4552 1.377 . S
C4553 C4554 1.379 . S
C4554 H4538 0.931 . S
C4554 C4548 1.383 . S
C4554 C4553 1.379 . S
H4555 C4549 0.959 . S
H4556 C4549 0.961 . S
H4557 C4549 0.960 . S
H4558 C4550 0.930 . S
H4559 C4551 0.929 . S
H4560 C4568 0.929 . S
H4561 C4570 0.930 . S
H4562 C4572 0.930 . S
H4563 C4575 0.929 . S
H4564 C4578 0.930 . S
H4565 C4580 0.960 . S
H4566 C4580 0.960 . S
H4567 C4580 0.960 . S
C4568 H4560 0.929 . S
C4568 C4569 1.377 . S
C4568 C4570 1.384 . S
C4569 C4568 1.377 . S
C4569 C4575 1.390 . S
C4570 H4561 0.930 . S
C4570 C4568 1.384 . S
C4570 C4571 1.372 . S
C4571 C4570 1.372 . S
C4571 C4572 1.400 . S
C4571 C4576 1.490 . S
C4572 H4562 0.930 . S
C4572 C4571 1.400 . S
C4572 C4575 1.386 . S
H4573 C4589 0.930 . S
H4574 C4590 0.931 . S
C4575 H4563 0.929 . S
C4575 C4569 1.390 . S
C4575 C4572 1.386 . S
C4576 C4571 1.490 . S
C4576 C4578 1.395 . S
C4576 C4579 1.403 . S
H4577 C4583 0.930 . S
C4578 H4564 0.930 . S
C4578 C4576 1.395 . S
C4578 C4581 1.403 . S
C4579 C4576 1.403 . S
C4579 C4580 1.524 . S
C4579 C4583 1.400 . S
C4580 H4565 0.960 . S
C4580 H4566 0.960 . S
C4580 H4567 0.960 . S
C4580 C4579 1.524 . S
C4581 C4578 1.403 . S
C4581 C4582 1.392 . S
C4581 C4585 1.495 . S
C4582 C4581 1.392 . S
C4582 C4583 1.385 . S
C4582 C4584 1.478 . S
C4583 H4577 0.930 . S
C4583 C4579 1.400 . S
C4583 C4582 1.385 . S
C4584 C4582 1.478 . S
C4584 C4586 1.381 . S
C4584 C4590 1.383 . S
C4585 C4581 1.495 . S
C4585 H4591 0.959 . S
C4585 H4592 0.961 . S
C4585 H4593 0.960 . S
C4586 C4584 1.381 . S
C4586 C4587 1.394 . S
C4586 H4594 0.930 . S
C4587 C4586 1.394 . S
C4587 C4588 1.383 . S
C4587 H4595 0.929 . S
C4588 C4587 1.383 . S
C4588 C4589 1.377 . S
C4589 H4573 0.930 . S
C4589 C4588 1.377 . S
C4589 C4590 1.379 . S
C4590 H4574 0.931 . S
C4590 C4584 1.383 . S
C4590 C4589 1.379 . S
H4591 C4585 0.959 . S
H4592 C4585 0.961 . S
H4593 C4585 0.960 . S
H4594 C4586 0.930 . S
H4595 C4587 0.929 . S
H4596 C4604 0.929 . S
H4597 C4606 0.930 . S
H4598 C4608 0.930 . S
H4599 C4611 0.929 . S
H4600 C4614 0.930 . S
H4601 C4616 0.960 . S
H4602 C4616 0.960 . S
H4603 C4616 0.960 . S
C4604 H4596 0.929 . S
C4604 C4605 1.377 . S
C4604 C4606 1.384 . S
C4605 C4604 1.377 . S
C4605 C4611 1.390 . S
C4606 H4597 0.930 . S
C4606 C4604 1.384 . S
C4606 C4607 1.372 . S
C4607 C4606 1.372 . S
C4607 C4608 1.400 . S
C4607 C4612 1.490 . S
C4608 H4598 0.930 . S
C4608 C4607 1.400 . S
C4608 C4611 1.386 . S
H4609 C4625 0.930 . S
H4610 C4626 0.931 . S
C4611 H4599 0.929 . S
C4611 C4605 1.390 . S
C4611 C4608 1.386 . S
C4612 C4607 1.490 . S
C4612 C4614 1.395 . S
C4612 C4615 1.403 . S
H4613 C4619 0.930 . S
C4614 H4600 0.930 . S
C4614 C4612 1.395 . S
C4614 C4617 1.403 . S
C4615 C4612 1.403 . S
C4615 C4616 1.524 . S
C4615 C4619 1.400 . S
C4616 H4601 0.960 . S
C4616 H4602 0.960 . S
C4616 H4603 0.960 . S
C4616 C4615 1.524 . S
C4617 C4614 1.403 . S
C4617 C4618 1.392 . S
C4617 C4621 1.495 . S
C4618 C4617 1.392 . S
C4618 C4619 1.385 . S
C4618 C4620 1.478 . S
C4619 H4613 0.930 . S
C4619 C4615 1.400 . S
C4619 C4618 1.385 . S
C4620 C4618 1.478 . S
C4620 C4622 1.381 . S
C4620 C4626 1.383 . S
C4621 C4617 1.495 . S
C4621 H4627 0.959 . S
C4621 H4628 0.961 . S
C4621 H4629 0.960 . S
C4622 C4620 1.381 . S
C4622 C4623 1.394 . S
C4622 H4630 0.930 . S
C4623 C4622 1.394 . S
C4623 C4624 1.383 . S
C4623 H4631 0.929 . S
C4624 C4623 1.383 . S
C4624 C4625 1.377 . S
C4625 H4609 0.930 . S
C4625 C4624 1.377 . S
C4625 C4626 1.379 . S
C4626 H4610 0.931 . S
C4626 C4620 1.383 . S
C4626 C4625 1.379 . S
H4627 C4621 0.959 . S
H4628 C4621 0.961 . S
H4629 C4621 0.960 . S
H4630 C4622 0.930 . S
H4631 C4623 0.929 . S
H4632 C4640 0.929 . S
H4633 C4642 0.930 . S
H4634 C4644 0.930 . S
H4635 C4647 0.929 . S
H4636 C4650 0.930 . S
H4637 C4652 0.960 1_455 S
H4638 C4652 0.960 . S
H4639 C4652 0.960 . S
C4640 H4632 0.929 . S
C4640 C4641 1.377 . S
C4640 C4642 1.384 . S
C4641 C4640 1.377 . S
C4641 C4647 1.390 . S
C4642 H4633 0.930 . S
C4642 C4640 1.384 . S
C4642 C4643 1.372 . S
C4643 C4642 1.372 . S
C4643 C4644 1.400 . S
C4643 C4648 1.490 . S
C4644 H4634 0.930 . S
C4644 C4643 1.400 . S
C4644 C4647 1.386 . S
H4645 C4661 0.930 . S
H4646 C4662 0.931 . S
C4647 H4635 0.929 . S
C4647 C4641 1.390 . S
C4647 C4644 1.386 . S
C4648 C4643 1.490 . S
C4648 C4650 1.395 . S
C4648 C4651 1.403 . S
H4649 C4655 0.930 1_455 S
C4650 H4636 0.930 . S
C4650 C4648 1.395 . S
C4650 C4653 1.403 . S
C4651 C4648 1.403 . S
C4651 C4652 1.524 . S
C4651 C4655 1.400 . S
C4652 H4637 0.960 1_655 S
C4652 H4638 0.960 . S
C4652 H4639 0.960 . S
C4652 C4651 1.524 . S
C4653 C4650 1.403 . S
C4653 C4654 1.392 . S
C4653 C4657 1.495 . S
C4654 C4653 1.392 . S
C4654 C4655 1.385 . S
C4654 C4656 1.478 . S
C4655 H4649 0.930 1_655 S
C4655 C4651 1.400 . S
C4655 C4654 1.385 . S
C4656 C4654 1.478 . S
C4656 C4658 1.381 . S
C4656 C4662 1.383 1_655 S
C4657 C4653 1.495 . S
C4657 H4663 0.959 . S
C4657 H4664 0.961 . S
C4657 H4665 0.960 . S
C4658 C4656 1.381 . S
C4658 C4659 1.394 1_655 S
C4658 H4666 0.930 . S
C4659 C4658 1.394 1_455 S
C4659 C4660 1.383 . S
C4659 H4667 0.929 . S
C4660 C4659 1.383 . S
C4660 C4661 1.377 . S
C4661 H4645 0.930 . S
C4661 C4660 1.377 . S
C4661 C4662 1.379 . S
C4662 H4646 0.931 . S
C4662 C4656 1.383 1_455 S
C4662 C4661 1.379 . S
H4663 C4657 0.959 . S
H4664 C4657 0.961 . S
H4665 C4657 0.960 . S
H4666 C4658 0.930 . S
H4667 C4659 0.929 . S
H4668 C4676 0.929 . S
H4669 C4678 0.930 . S
H4670 C4680 0.930 . S
H4671 C4683 0.929 . S
H4672 C4686 0.930 . S
H4673 C4688 0.960 . S
H4674 C4688 0.960 . S
H4675 C4688 0.960 . S
C4676 H4668 0.929 . S
C4676 C4677 1.377 . S
C4676 C4678 1.384 . S
C4677 C4676 1.377 . S
C4677 C4683 1.390 . S
C4678 H4669 0.930 . S
C4678 C4676 1.384 . S
C4678 C4679 1.372 . S
C4679 C4678 1.372 . S
C4679 C4680 1.400 . S
C4679 C4684 1.490 . S
C4680 H4670 0.930 . S
C4680 C4679 1.400 . S
C4680 C4683 1.386 . S
H4681 C4697 0.930 . S
H4682 C4698 0.931 . S
C4683 H4671 0.929 . S
C4683 C4677 1.390 . S
C4683 C4680 1.386 . S
C4684 C4679 1.490 . S
C4684 C4686 1.395 . S
C4684 C4687 1.403 . S
H4685 C4691 0.930 . S
C4686 H4672 0.930 . S
C4686 C4684 1.395 . S
C4686 C4689 1.403 . S
C4687 C4684 1.403 . S
C4687 C4688 1.524 . S
C4687 C4691 1.400 . S
C4688 H4673 0.960 . S
C4688 H4674 0.960 . S
C4688 H4675 0.960 . S
C4688 C4687 1.524 . S
C4689 C4686 1.403 . S
C4689 C4690 1.392 . S
C4689 C4693 1.495 . S
C4690 C4689 1.392 . S
C4690 C4691 1.385 . S
C4690 C4692 1.478 . S
C4691 H4685 0.930 . S
C4691 C4687 1.400 . S
C4691 C4690 1.385 . S
C4692 C4690 1.478 . S
C4692 C4694 1.381 . S
C4692 C4698 1.383 . S
C4693 C4689 1.495 . S
C4693 H4699 0.959 . S
C4693 H4700 0.961 . S
C4693 H4701 0.960 . S
C4694 C4692 1.381 . S
C4694 C4695 1.394 . S
C4694 H4702 0.930 . S
C4695 C4694 1.394 . S
C4695 C4696 1.383 . S
C4695 H4703 0.929 . S
C4696 C4695 1.383 . S
C4696 C4697 1.377 . S
C4697 H4681 0.930 . S
C4697 C4696 1.377 . S
C4697 C4698 1.379 . S
C4698 H4682 0.931 . S
C4698 C4692 1.383 . S
C4698 C4697 1.379 . S
H4699 C4693 0.959 . S
H4700 C4693 0.961 . S
H4701 C4693 0.960 . S
H4702 C4694 0.930 . S
H4703 C4695 0.929 . S
H4704 C4712 0.929 . S
H4705 C4714 0.930 . S
H4706 C4716 0.930 . S
H4707 C4719 0.929 . S
H4708 C4722 0.930 . S
H4709 C4724 0.960 . S
H4710 C4724 0.960 . S
H4711 C4724 0.960 . S
C4712 H4704 0.929 . S
C4712 C4713 1.377 . S
C4712 C4714 1.384 . S
C4713 C4712 1.377 . S
C4713 C4719 1.390 . S
C4714 H4705 0.930 . S
C4714 C4712 1.384 . S
C4714 C4715 1.372 . S
C4715 C4714 1.372 . S
C4715 C4716 1.400 . S
C4715 C4720 1.490 . S
C4716 H4706 0.930 . S
C4716 C4715 1.400 . S
C4716 C4719 1.386 . S
H4717 C4733 0.930 . S
H4718 C4734 0.931 . S
C4719 H4707 0.929 . S
C4719 C4713 1.390 . S
C4719 C4716 1.386 . S
C4720 C4715 1.490 . S
C4720 C4722 1.395 . S
C4720 C4723 1.403 . S
H4721 C4727 0.930 . S
C4722 H4708 0.930 . S
C4722 C4720 1.395 . S
C4722 C4725 1.403 . S
C4723 C4720 1.403 . S
C4723 C4724 1.524 . S
C4723 C4727 1.400 . S
C4724 H4709 0.960 . S
C4724 H4710 0.960 . S
C4724 H4711 0.960 . S
C4724 C4723 1.524 . S
C4725 C4722 1.403 . S
C4725 C4726 1.392 . S
C4725 C4729 1.495 . S
C4726 C4725 1.392 . S
C4726 C4727 1.385 . S
C4726 C4728 1.478 . S
C4727 H4721 0.930 . S
C4727 C4723 1.400 . S
C4727 C4726 1.385 . S
C4728 C4726 1.478 . S
C4728 C4730 1.381 . S
C4728 C4734 1.383 . S
C4729 C4725 1.495 . S
C4729 H4735 0.959 . S
C4729 H4736 0.961 . S
C4729 H4737 0.960 . S
C4730 C4728 1.381 . S
C4730 C4731 1.394 . S
C4730 H4738 0.930 . S
C4731 C4730 1.394 . S
C4731 C4732 1.383 . S
C4731 H4739 0.929 . S
C4732 C4731 1.383 . S
C4732 C4733 1.377 . S
C4733 H4717 0.930 . S
C4733 C4732 1.377 . S
C4733 C4734 1.379 . S
C4734 H4718 0.931 . S
C4734 C4728 1.383 . S
C4734 C4733 1.379 . S
H4735 C4729 0.959 . S
H4736 C4729 0.961 . S
H4737 C4729 0.960 . S
H4738 C4730 0.930 . S
H4739 C4731 0.929 . S
H4740 C4748 0.929 . S
H4741 C4750 0.930 . S
H4742 C4752 0.930 . S
H4743 C4755 0.929 . S
H4744 C4758 0.930 . S
H4745 C4760 0.960 . S
H4746 C4760 0.960 . S
H4747 C4760 0.960 . S
C4748 H4740 0.929 . S
C4748 C4749 1.377 . S
C4748 C4750 1.384 . S
C4749 C4748 1.377 . S
C4749 C4755 1.390 . S
C4750 H4741 0.930 . S
C4750 C4748 1.384 . S
C4750 C4751 1.372 . S
C4751 C4750 1.372 . S
C4751 C4752 1.400 . S
C4751 C4756 1.490 . S
C4752 H4742 0.930 . S
C4752 C4751 1.400 . S
C4752 C4755 1.386 . S
H4753 C4769 0.930 . S
H4754 C4770 0.931 . S
C4755 H4743 0.929 . S
C4755 C4749 1.390 . S
C4755 C4752 1.386 . S
C4756 C4751 1.490 . S
C4756 C4758 1.395 . S
C4756 C4759 1.403 . S
H4757 C4763 0.930 . S
C4758 H4744 0.930 . S
C4758 C4756 1.395 . S
C4758 C4761 1.403 . S
C4759 C4756 1.403 . S
C4759 C4760 1.524 . S
C4759 C4763 1.400 . S
C4760 H4745 0.960 . S
C4760 H4746 0.960 . S
C4760 H4747 0.960 . S
C4760 C4759 1.524 . S
C4761 C4758 1.403 . S
C4761 C4762 1.392 . S
C4761 C4765 1.495 . S
C4762 C4761 1.392 . S
C4762 C4763 1.385 . S
C4762 C4764 1.478 . S
C4763 H4757 0.930 . S
C4763 C4759 1.400 . S
C4763 C4762 1.385 . S
C4764 C4762 1.478 . S
C4764 C4766 1.381 . S
C4764 C4770 1.383 . S
C4765 C4761 1.495 . S
C4765 H4771 0.959 . S
C4765 H4772 0.961 . S
C4765 H4773 0.960 . S
C4766 C4764 1.381 . S
C4766 C4767 1.394 . S
C4766 H4774 0.930 . S
C4767 C4766 1.394 . S
C4767 C4768 1.383 . S
C4767 H4775 0.929 . S
C4768 C4767 1.383 . S
C4768 C4769 1.377 . S
C4769 H4753 0.930 . S
C4769 C4768 1.377 . S
C4769 C4770 1.379 . S
C4770 H4754 0.931 . S
C4770 C4764 1.383 . S
C4770 C4769 1.379 . S
H4771 C4765 0.959 . S
H4772 C4765 0.961 . S
H4773 C4765 0.960 . S
H4774 C4766 0.930 . S
H4775 C4767 0.929 . S
H4776 C4784 0.929 . S
H4777 C4786 0.930 . S
H4778 C4788 0.930 . S
H4779 C4791 0.929 . S
H4780 C4794 0.930 . S
H4781 C4796 0.960 . S
H4782 C4796 0.960 . S
H4783 C4796 0.960 . S
C4784 H4776 0.929 . S
C4784 C4785 1.377 . S
C4784 C4786 1.384 . S
C4785 C4784 1.377 . S
C4785 C4791 1.390 . S
C4786 H4777 0.930 . S
C4786 C4784 1.384 . S
C4786 C4787 1.372 . S
C4787 C4786 1.372 . S
C4787 C4788 1.400 . S
C4787 C4792 1.490 . S
C4788 H4778 0.930 . S
C4788 C4787 1.400 . S
C4788 C4791 1.386 . S
H4789 C4805 0.930 . S
H4790 C4806 0.931 . S
C4791 H4779 0.929 . S
C4791 C4785 1.390 . S
C4791 C4788 1.386 . S
C4792 C4787 1.490 . S
C4792 C4794 1.395 . S
C4792 C4795 1.403 . S
H4793 C4799 0.930 . S
C4794 H4780 0.930 . S
C4794 C4792 1.395 . S
C4794 C4797 1.403 . S
C4795 C4792 1.403 . S
C4795 C4796 1.524 . S
C4795 C4799 1.400 . S
C4796 H4781 0.960 . S
C4796 H4782 0.960 . S
C4796 H4783 0.960 . S
C4796 C4795 1.524 . S
C4797 C4794 1.403 . S
C4797 C4798 1.392 . S
C4797 C4801 1.495 . S
C4798 C4797 1.392 . S
C4798 C4799 1.385 . S
C4798 C4800 1.478 . S
C4799 H4793 0.930 . S
C4799 C4795 1.400 . S
C4799 C4798 1.385 . S
C4800 C4798 1.478 . S
C4800 C4802 1.381 . S
C4800 C4806 1.383 . S
C4801 C4797 1.495 . S
C4801 H4807 0.959 . S
C4801 H4808 0.961 . S
C4801 H4809 0.960 . S
C4802 C4800 1.381 . S
C4802 C4803 1.394 1_655 S
C4802 H4810 0.944 . S
C4803 C4802 1.394 1_455 S
C4803 C4804 1.385 1_455 S
C4803 H4811 0.929 . S
C4804 C4803 1.385 1_655 S
C4804 C4805 1.374 . S
C4805 H4789 0.930 . S
C4805 C4804 1.374 . S
C4805 C4806 1.379 . S
C4806 H4790 0.931 . S
C4806 C4800 1.383 . S
C4806 C4805 1.379 . S
H4807 C4801 0.959 . S
H4808 C4801 0.961 . S
H4809 C4801 0.960 . S
H4810 C4802 0.944 . S
H4811 C4803 0.929 . S
H4812 C4820 0.929 . S
H4813 C4822 0.930 . S
H4814 C4824 0.930 . S
H4815 C4827 0.929 . S
H4816 C4830 0.930 . S
H4817 C4832 0.960 . S
H4818 C4832 0.960 . S
H4819 C4832 0.960 . S
C4820 H4812 0.929 . S
C4820 C4821 1.377 . S
C4820 C4822 1.384 . S
C4821 C4820 1.377 . S
C4821 C4827 1.390 . S
C4822 H4813 0.930 . S
C4822 C4820 1.384 . S
C4822 C4823 1.372 . S
C4823 C4822 1.372 . S
C4823 C4824 1.400 . S
C4823 C4828 1.490 . S
C4824 H4814 0.930 . S
C4824 C4823 1.400 . S
C4824 C4827 1.386 . S
H4825 C4841 0.930 . S
H4826 C4842 0.931 . S
C4827 H4815 0.929 . S
C4827 C4821 1.390 . S
C4827 C4824 1.386 . S
C4828 C4823 1.490 . S
C4828 C4830 1.395 . S
C4828 C4831 1.403 . S
H4829 C4835 0.930 . S
C4830 H4816 0.930 . S
C4830 C4828 1.395 . S
C4830 C4833 1.403 . S
C4831 C4828 1.403 . S
C4831 C4832 1.524 . S
C4831 C4835 1.400 . S
C4832 H4817 0.960 . S
C4832 H4818 0.960 . S
C4832 H4819 0.960 . S
C4832 C4831 1.524 . S
C4833 C4830 1.403 . S
C4833 C4834 1.392 . S
C4833 C4837 1.495 . S
C4834 C4833 1.392 . S
C4834 C4835 1.385 . S
C4834 C4836 1.478 . S
C4835 H4829 0.930 . S
C4835 C4831 1.400 . S
C4835 C4834 1.385 . S
C4836 C4834 1.478 . S
C4836 C4838 1.381 . S
C4836 C4842 1.383 . S
C4837 C4833 1.495 . S
C4837 H4843 0.959 . S
C4837 H4844 0.961 . S
C4837 H4845 0.960 . S
C4838 C4836 1.381 . S
C4838 C4839 1.394 . S
C4838 H4846 0.930 . S
C4839 C4838 1.394 . S
C4839 C4840 1.383 . S
C4839 H4847 0.929 . S
C4840 C4839 1.383 . S
C4840 C4841 1.377 . S
C4841 H4825 0.930 . S
C4841 C4840 1.377 . S
C4841 C4842 1.379 . S
C4842 H4826 0.931 . S
C4842 C4836 1.383 . S
C4842 C4841 1.379 . S
H4843 C4837 0.959 . S
H4844 C4837 0.961 . S
H4845 C4837 0.960 . S
H4846 C4838 0.930 . S
H4847 C4839 0.929 . S
H4848 C4856 0.929 . S
H4849 C4858 0.930 . S
H4850 C4860 0.930 . S
H4851 C4863 0.929 . S
H4852 C4866 0.930 . S
H4853 C4868 0.960 . S
H4854 C4868 0.960 . S
H4855 C4868 0.960 . S
C4856 H4848 0.929 . S
C4856 C4857 1.377 . S
C4856 C4858 1.384 . S
C4857 C4856 1.377 . S
C4857 C4863 1.390 . S
C4858 H4849 0.930 . S
C4858 C4856 1.384 . S
C4858 C4859 1.372 . S
C4859 C4858 1.372 . S
C4859 C4860 1.400 . S
C4859 C4864 1.490 . S
C4860 H4850 0.930 . S
C4860 C4859 1.400 . S
C4860 C4863 1.386 . S
H4861 C4877 0.930 . S
H4862 C4878 0.931 . S
C4863 H4851 0.929 . S
C4863 C4857 1.390 . S
C4863 C4860 1.386 . S
C4864 C4859 1.490 . S
C4864 C4866 1.395 . S
C4864 C4867 1.403 . S
H4865 C4871 0.930 . S
C4866 H4852 0.930 . S
C4866 C4864 1.395 . S
C4866 C4869 1.403 . S
C4867 C4864 1.403 . S
C4867 C4868 1.524 . S
C4867 C4871 1.400 . S
C4868 H4853 0.960 . S
C4868 H4854 0.960 . S
C4868 H4855 0.960 . S
C4868 C4867 1.524 . S
C4869 C4866 1.403 . S
C4869 C4870 1.392 . S
C4869 C4873 1.495 . S
C4870 C4869 1.392 . S
C4870 C4871 1.385 . S
C4870 C4872 1.478 . S
C4871 H4865 0.930 . S
C4871 C4867 1.400 . S
C4871 C4870 1.385 . S
C4872 C4870 1.478 . S
C4872 C4874 1.381 . S
C4872 C4878 1.383 . S
C4873 C4869 1.495 . S
C4873 H4879 0.959 . S
C4873 H4880 0.961 . S
C4873 H4881 0.960 . S
C4874 C4872 1.381 . S
C4874 C4875 1.394 . S
C4874 H4882 0.930 . S
C4875 C4874 1.394 . S
C4875 C4876 1.383 . S
C4875 H4883 0.929 . S
C4876 C4875 1.383 . S
C4876 C4877 1.377 . S
C4877 H4861 0.930 . S
C4877 C4876 1.377 . S
C4877 C4878 1.379 . S
C4878 H4862 0.931 . S
C4878 C4872 1.383 . S
C4878 C4877 1.379 . S
H4879 C4873 0.959 . S
H4880 C4873 0.961 . S
H4881 C4873 0.960 . S
H4882 C4874 0.930 . S
H4883 C4875 0.929 . S
H4884 C4892 0.929 . S
H4885 C4894 0.930 . S
H4886 C4896 0.930 . S
H4887 C4899 0.929 . S
H4888 C4902 0.930 . S
H4889 C4904 0.960 . S
H4890 C4904 0.960 . S
H4891 C4904 0.960 . S
C4892 H4884 0.929 . S
C4892 C4893 1.377 . S
C4892 C4894 1.384 . S
C4893 C4892 1.377 . S
C4893 C4899 1.390 . S
C4894 H4885 0.930 . S
C4894 C4892 1.384 . S
C4894 C4895 1.372 . S
C4895 C4894 1.372 . S
C4895 C4896 1.400 . S
C4895 C4900 1.490 . S
C4896 H4886 0.930 . S
C4896 C4895 1.400 . S
C4896 C4899 1.386 . S
H4897 C4913 0.930 1_545 S
H4898 C4914 0.931 . S
C4899 H4887 0.929 . S
C4899 C4893 1.390 . S
C4899 C4896 1.386 . S
C4900 C4895 1.490 . S
C4900 C4902 1.395 . S
C4900 C4903 1.403 . S
H4901 C4907 0.930 . S
C4902 H4888 0.930 . S
C4902 C4900 1.395 . S
C4902 C4905 1.403 . S
C4903 C4900 1.403 . S
C4903 C4904 1.524 . S
C4903 C4907 1.400 . S
C4904 H4889 0.960 . S
C4904 H4890 0.960 . S
C4904 H4891 0.960 . S
C4904 C4903 1.524 . S
C4905 C4902 1.403 . S
C4905 C4906 1.392 . S
C4905 C4909 1.495 . S
C4906 C4905 1.392 . S
C4906 C4907 1.385 . S
C4906 C4908 1.478 . S
C4907 H4901 0.930 . S
C4907 C4903 1.400 . S
C4907 C4906 1.385 . S
C4908 C4906 1.478 . S
C4908 C4910 1.381 . S
C4908 C4914 1.383 . S
C4909 C4905 1.495 . S
C4909 H4915 0.959 . S
C4909 H4916 0.961 . S
C4909 H4917 0.960 . S
C4910 C4908 1.381 . S
C4910 C4911 1.394 . S
C4910 H4918 0.930 . S
C4911 C4910 1.394 . S
C4911 C4912 1.383 1_565 S
C4911 H4919 0.929 . S
C4912 C4911 1.383 1_545 S
C4912 C4913 1.377 1_545 S
C4913 H4897 0.930 1_565 S
C4913 C4912 1.377 1_565 S
C4913 C4914 1.379 . S
C4914 H4898 0.931 . S
C4914 C4908 1.383 . S
C4914 C4913 1.379 . S
H4915 C4909 0.959 . S
H4916 C4909 0.961 . S
H4917 C4909 0.960 . S
H4918 C4910 0.930 . S
H4919 C4911 0.929 . S
H4920 C4928 0.929 . S
H4921 C4930 0.930 . S
H4922 C4932 0.930 . S
H4923 C4935 0.929 . S
H4924 C4938 0.930 . S
H4925 C4940 0.960 . S
H4926 C4940 0.960 . S
H4927 C4940 0.960 . S
C4928 H4920 0.929 . S
C4928 C4929 1.377 . S
C4928 C4930 1.384 . S
C4929 C4928 1.377 . S
C4929 C4935 1.390 . S
C4930 H4921 0.930 . S
C4930 C4928 1.384 . S
C4930 C4931 1.372 . S
C4931 C4930 1.372 . S
C4931 C4932 1.400 . S
C4931 C4936 1.490 . S
C4932 H4922 0.930 . S
C4932 C4931 1.400 . S
C4932 C4935 1.386 . S
H4933 C4949 0.930 . S
H4934 C4950 0.931 . S
C4935 H4923 0.929 . S
C4935 C4929 1.390 . S
C4935 C4932 1.386 . S
C4936 C4931 1.490 . S
C4936 C4938 1.395 . S
C4936 C4939 1.403 . S
H4937 C4943 0.930 . S
C4938 H4924 0.930 . S
C4938 C4936 1.395 . S
C4938 C4941 1.403 . S
C4939 C4936 1.403 . S
C4939 C4940 1.524 . S
C4939 C4943 1.400 . S
C4940 H4925 0.960 . S
C4940 H4926 0.960 . S
C4940 H4927 0.960 . S
C4940 C4939 1.524 . S
C4941 C4938 1.403 . S
C4941 C4942 1.392 . S
C4941 C4945 1.495 . S
C4942 C4941 1.392 . S
C4942 C4943 1.385 . S
C4942 C4944 1.478 . S
C4943 H4937 0.930 . S
C4943 C4939 1.400 . S
C4943 C4942 1.385 . S
C4944 C4942 1.478 . S
C4944 C4946 1.381 . S
C4944 C4950 1.383 . S
C4945 C4941 1.495 . S
C4945 H4951 0.959 . S
C4945 H4952 0.961 . S
C4945 H4953 0.960 . S
C4946 C4944 1.381 . S
C4946 C4947 1.394 . S
C4946 H4954 0.930 . S
C4947 C4946 1.394 . S
C4947 C4948 1.383 . S
C4947 H4955 0.929 . S
C4948 C4947 1.383 . S
C4948 C4949 1.377 . S
C4949 H4933 0.930 . S
C4949 C4948 1.377 . S
C4949 C4950 1.379 . S
C4950 H4934 0.931 . S
C4950 C4944 1.383 . S
C4950 C4949 1.379 . S
H4951 C4945 0.959 . S
H4952 C4945 0.961 . S
H4953 C4945 0.960 . S
H4954 C4946 0.930 . S
H4955 C4947 0.929 . S
H4956 C4964 0.929 . S
H4957 C4966 0.930 . S
H4958 C4968 0.930 . S
H4959 C4971 0.929 . S
H4960 C4974 0.930 . S
H4961 C4976 0.960 . S
H4962 C4976 0.960 . S
H4963 C4976 0.960 1_554 S
C4964 H4956 0.929 . S
C4964 C4965 1.377 . S
C4964 C4966 1.384 . S
C4965 C4964 1.377 . S
C4965 C4971 1.390 . S
C4966 H4957 0.930 . S
C4966 C4964 1.384 . S
C4966 C4967 1.372 . S
C4967 C4966 1.372 . S
C4967 C4968 1.400 . S
C4967 C4972 1.490 . S
C4968 H4958 0.930 . S
C4968 C4967 1.400 . S
C4968 C4971 1.386 . S
H4969 C4985 0.930 . S
H4970 C4986 0.931 . S
C4971 H4959 0.929 . S
C4971 C4965 1.390 . S
C4971 C4968 1.386 . S
C4972 C4967 1.490 . S
C4972 C4974 1.395 . S
C4972 C4975 1.403 . S
H4973 C4979 0.930 . S
C4974 H4960 0.930 . S
C4974 C4972 1.395 . S
C4974 C4977 1.403 . S
C4975 C4972 1.403 . S
C4975 C4976 1.524 1_554 S
C4975 C4979 1.400 . S
C4976 H4961 0.960 . S
C4976 H4962 0.960 . S
C4976 H4963 0.960 1_556 S
C4976 C4975 1.524 1_556 S
C4977 C4974 1.403 . S
C4977 C4978 1.392 . S
C4977 C4981 1.495 . S
C4978 C4977 1.392 . S
C4978 C4979 1.385 . S
C4978 C4980 1.478 . S
C4979 H4973 0.930 . S
C4979 C4975 1.400 . S
C4979 C4978 1.385 . S
C4980 C4978 1.478 . S
C4980 C4982 1.381 . S
C4980 C4986 1.383 . S
C4981 C4977 1.495 . S
C4981 H4987 0.959 . S
C4981 H4988 0.961 . S
C4981 H4989 0.960 . S
C4982 C4980 1.381 . S
C4982 C4983 1.394 . S
C4982 H4990 0.930 . S
C4983 C4982 1.394 . S
C4983 C4984 1.383 . S
C4983 H4991 0.929 . S
C4984 C4983 1.383 . S
C4984 C4985 1.377 . S
C4985 H4969 0.930 . S
C4985 C4984 1.377 . S
C4985 C4986 1.379 . S
C4986 H4970 0.931 . S
C4986 C4980 1.383 . S
C4986 C4985 1.379 . S
H4987 C4981 0.959 . S
H4988 C4981 0.961 . S
H4989 C4981 0.960 . S
H4990 C4982 0.930 . S
H4991 C4983 0.929 . S
H4992 C5000 0.929 . S
H4993 C5002 0.930 . S
H4994 C5004 0.930 . S
H4995 C5007 0.929 . S
H4996 C5010 0.930 . S
H4997 C5012 0.960 . S
H4998 C5012 0.960 . S
H4999 C5012 0.960 . S
C5000 H4992 0.929 . S
C5000 C5001 1.377 . S
C5000 C5002 1.384 . S
C5001 C5000 1.377 . S
C5001 C5007 1.390 . S
C5002 H4993 0.930 . S
C5002 C5000 1.384 . S
C5002 C5003 1.372 . S
C5003 C5002 1.372 . S
C5003 C5004 1.400 . S
C5003 C5008 1.490 . S
C5004 H4994 0.930 . S
C5004 C5003 1.400 . S
C5004 C5007 1.386 . S
H5005 C5021 0.930 . S
H5006 C5022 0.931 . S
C5007 H4995 0.929 . S
C5007 C5001 1.390 . S
C5007 C5004 1.386 . S
C5008 C5003 1.490 . S
C5008 C5010 1.395 . S
C5008 C5011 1.403 . S
H5009 C5015 0.930 . S
C5010 H4996 0.930 . S
C5010 C5008 1.395 . S
C5010 C5013 1.403 . S
C5011 C5008 1.403 . S
C5011 C5012 1.524 . S
C5011 C5015 1.400 . S
C5012 H4997 0.960 . S
C5012 H4998 0.960 . S
C5012 H4999 0.960 . S
C5012 C5011 1.524 . S
C5013 C5010 1.403 . S
C5013 C5014 1.392 . S
C5013 C5017 1.495 . S
C5014 C5013 1.392 . S
C5014 C5015 1.385 . S
C5014 C5016 1.478 . S
C5015 H5009 0.930 . S
C5015 C5011 1.400 . S
C5015 C5014 1.385 . S
C5016 C5014 1.478 . S
C5016 C5018 1.381 . S
C5016 C5022 1.383 . S
C5017 C5013 1.495 . S
C5017 H5023 0.959 . S
C5017 H5024 0.961 . S
C5017 H5025 0.960 . S
C5018 C5016 1.381 . S
C5018 C5019 1.394 . S
C5018 H5026 0.930 . S
C5019 C5018 1.394 . S
C5019 C5020 1.383 . S
C5019 H5027 0.929 . S
C5020 C5019 1.383 . S
C5020 C5021 1.377 . S
C5021 H5005 0.930 . S
C5021 C5020 1.377 . S
C5021 C5022 1.379 . S
C5022 H5006 0.931 . S
C5022 C5016 1.383 . S
C5022 C5021 1.379 . S
H5023 C5017 0.959 . S
H5024 C5017 0.961 . S
H5025 C5017 0.960 . S
H5026 C5018 0.930 . S
H5027 C5019 0.929 . S
H5028 C5036 0.929 . S
H5029 C5038 0.930 . S
H5030 C5040 0.930 . S
H5031 C5043 0.929 . S
H5032 C5046 0.930 . S
H5033 C5048 0.960 . S
H5034 C5048 0.960 . S
H5035 C5048 0.960 . S
C5036 H5028 0.929 . S
C5036 C5037 1.377 . S
C5036 C5038 1.384 . S
C5037 C5036 1.377 . S
C5037 C5043 1.390 . S
C5038 H5029 0.930 . S
C5038 C5036 1.384 . S
C5038 C5039 1.372 . S
C5039 C5038 1.372 . S
C5039 C5040 1.400 . S
C5039 C5044 1.490 . S
C5040 H5030 0.930 . S
C5040 C5039 1.400 . S
C5040 C5043 1.386 . S
H5041 C5057 0.930 . S
H5042 C5058 0.931 . S
C5043 H5031 0.929 . S
C5043 C5037 1.390 . S
C5043 C5040 1.386 . S
C5044 C5039 1.490 . S
C5044 C5046 1.395 . S
C5044 C5047 1.403 . S
H5045 C5051 0.930 . S
C5046 H5032 0.930 . S
C5046 C5044 1.395 . S
C5046 C5049 1.403 . S
C5047 C5044 1.403 . S
C5047 C5048 1.524 . S
C5047 C5051 1.400 . S
C5048 H5033 0.960 . S
C5048 H5034 0.960 . S
C5048 H5035 0.960 . S
C5048 C5047 1.524 . S
C5049 C5046 1.403 . S
C5049 C5050 1.392 . S
C5049 C5053 1.495 1_554 S
C5050 C5049 1.392 . S
C5050 C5051 1.385 . S
C5050 C5052 1.478 . S
C5051 H5045 0.930 . S
C5051 C5047 1.400 . S
C5051 C5050 1.385 . S
C5052 C5050 1.478 . S
C5052 C5054 1.381 . S
C5052 C5058 1.383 . S
C5053 C5049 1.495 1_556 S
C5053 H5059 0.959 . S
C5053 H5060 0.961 . S
C5053 H5061 0.960 . S
C5054 C5052 1.381 . S
C5054 C5055 1.394 . S
C5054 H5062 0.930 . S
C5055 C5054 1.394 . S
C5055 C5056 1.383 . S
C5055 H5063 0.929 . S
C5056 C5055 1.383 . S
C5056 C5057 1.377 . S
C5057 H5041 0.930 . S
C5057 C5056 1.377 . S
C5057 C5058 1.379 . S
C5058 H5042 0.931 . S
C5058 C5052 1.383 . S
C5058 C5057 1.379 . S
H5059 C5053 0.959 . S
H5060 C5053 0.961 . S
H5061 C5053 0.960 . S
H5062 C5054 0.930 . S
H5063 C5055 0.929 . S
H5064 C5072 0.929 1_545 S
H5065 C5074 0.930 . S
H5066 C5076 0.930 . S
H5067 C5079 0.929 . S
H5068 C5082 0.930 . S
H5069 C5084 0.960 . S
H5070 C5084 0.960 . S
H5071 C5084 0.960 . S
C5072 H5064 0.929 1_565 S
C5072 C5073 1.378 1_565 S
C5072 C5074 1.384 . S
C5073 C5072 1.378 1_545 S
C5073 C5079 1.385 1_545 S
C5074 H5065 0.930 . S
C5074 C5072 1.384 . S
C5074 C5075 1.372 . S
C5075 C5074 1.372 . S
C5075 C5076 1.400 . S
C5075 C5080 1.490 . S
C5076 H5066 0.930 . S
C5076 C5075 1.400 . S
C5076 C5079 1.386 . S
H5077 C5093 0.930 . S
H5078 C5094 0.931 . S
C5079 H5067 0.929 . S
C5079 C5073 1.385 1_565 S
C5079 C5076 1.386 . S
C5080 C5075 1.490 . S
C5080 C5082 1.395 . S
C5080 C5083 1.403 . S
H5081 C5087 0.930 . S
C5082 H5068 0.930 . S
C5082 C5080 1.395 . S
C5082 C5085 1.403 . S
C5083 C5080 1.403 . S
C5083 C5084 1.524 . S
C5083 C5087 1.400 . S
C5084 H5069 0.960 . S
C5084 H5070 0.960 . S
C5084 H5071 0.960 . S
C5084 C5083 1.524 . S
C5085 C5082 1.403 . S
C5085 C5086 1.392 . S
C5085 C5089 1.495 . S
C5086 C5085 1.392 . S
C5086 C5087 1.385 . S
C5086 C5088 1.478 . S
C5087 H5081 0.930 . S
C5087 C5083 1.400 . S
C5087 C5086 1.385 . S
C5088 C5086 1.478 . S
C5088 C5090 1.381 . S
C5088 C5094 1.383 . S
C5089 C5085 1.495 . S
C5089 H5095 0.959 . S
C5089 H5096 0.961 . S
C5089 H5097 0.960 . S
C5090 C5088 1.381 . S
C5090 C5091 1.394 . S
C5090 H5098 0.930 . S
C5091 C5090 1.394 . S
C5091 C5092 1.383 . S
C5091 H5099 0.929 . S
C5092 C5091 1.383 . S
C5092 C5093 1.377 . S
C5093 H5077 0.930 . S
C5093 C5092 1.377 . S
C5093 C5094 1.379 . S
C5094 H5078 0.931 . S
C5094 C5088 1.383 . S
C5094 C5093 1.379 . S
H5095 C5089 0.959 . S
H5096 C5089 0.961 . S
H5097 C5089 0.960 . S
H5098 C5090 0.930 . S
H5099 C5091 0.929 . S
H5100 C5108 0.929 . S
H5101 C5110 0.930 . S
H5102 C5112 0.930 . S
H5103 C5115 0.929 . S
H5104 C5118 0.930 . S
H5105 C5120 0.960 . S
H5106 C5120 0.960 . S
H5107 C5120 0.960 . S
C5108 H5100 0.929 . S
C5108 C5109 1.377 . S
C5108 C5110 1.384 . S
C5109 C5108 1.377 . S
C5109 C5115 1.390 . S
C5110 H5101 0.930 . S
C5110 C5108 1.384 . S
C5110 C5111 1.372 . S
C5111 C5110 1.372 . S
C5111 C5112 1.400 . S
C5111 C5116 1.490 . S
C5112 H5102 0.930 . S
C5112 C5111 1.400 . S
C5112 C5115 1.386 . S
H5113 C5129 0.930 . S
H5114 C5130 0.931 . S
C5115 H5103 0.929 . S
C5115 C5109 1.390 . S
C5115 C5112 1.386 . S
C5116 C5111 1.490 . S
C5116 C5118 1.395 . S
C5116 C5119 1.403 . S
H5117 C5123 0.930 . S
C5118 H5104 0.930 . S
C5118 C5116 1.395 . S
C5118 C5121 1.403 . S
C5119 C5116 1.403 . S
C5119 C5120 1.524 . S
C5119 C5123 1.400 . S
C5120 H5105 0.960 . S
C5120 H5106 0.960 . S
C5120 H5107 0.960 . S
C5120 C5119 1.524 . S
C5121 C5118 1.403 . S
C5121 C5122 1.392 . S
C5121 C5125 1.495 . S
C5122 C5121 1.392 . S
C5122 C5123 1.385 . S
C5122 C5124 1.478 . S
C5123 H5117 0.930 . S
C5123 C5119 1.400 . S
C5123 C5122 1.385 . S
C5124 C5122 1.478 . S
C5124 C5126 1.381 . S
C5124 C5130 1.383 . S
C5125 C5121 1.495 . S
C5125 H5131 0.959 . S
C5125 H5132 0.961 . S
C5125 H5133 0.960 . S
C5126 C5124 1.381 . S
C5126 C5127 1.394 . S
C5126 H5134 0.930 . S
C5127 C5126 1.394 . S
C5127 C5128 1.383 . S
C5127 H5135 0.929 . S
C5128 C5127 1.383 . S
C5128 C5129 1.377 . S
C5129 H5113 0.930 . S
C5129 C5128 1.377 . S
C5129 C5130 1.379 . S
C5130 H5114 0.931 . S
C5130 C5124 1.383 . S
C5130 C5129 1.379 . S
H5131 C5125 0.959 . S
H5132 C5125 0.961 . S
H5133 C5125 0.960 . S
H5134 C5126 0.930 . S
H5135 C5127 0.929 . S
C1689 C105 1.640 . S
C1708 C403 1.503 . S
C1725 C65 2.233 . S
C1744 C486 2.164 . S
C1761 C73 1.457 . S
C1780 C571 1.342 . S
C1816 C651 1.569 . S
C1797 C92 1.715 . S
C1833 C17 1.656 . S
C1852 C735 1.594 . S
C1888 C828 0.882 . S
C1869 C37 0.948 . S
C1924 C906 0.713 . S
C1905 C49 0.713 . S
C1941 C8 1.298 . S
C1960 C991 1.208 . S
C1996 C402 1.940 . S
C1977 C231 1.990 . S
C2013 C241 0.600 . S
C2032 C483 0.621 . S
C2068 C570 1.222 . S
C2049 C273 1.197 . S
C2104 C655 1.439 . S
C2085 C171 1.567 1_556 S
C2121 C227 2.028 . S
C2140 C739 1.874 . S
C2176 C831 1.087 . S
C2157 C245 1.115 . S
C2212 C903 0.745 . S
C2193 C269 0.752 . S
C2248 C990 1.293 . S
C2229 C175 1.414 . S
C2284 C399 1.445 . S
C2265 C162 1.540 . S
C2301 C289 2.050 . S
C2320 C1074 1.940 . S
C2356 C1148 2.127 . S
C2337 C330 2.311 . S
C2392 C1243 0.596 . S
C2373 C317 0.338 . S
C2409 C120 0.677 . S
C2428 C987 0.684 . S
C2445 C134 1.466 . S
C2464 C567 1.377 . S
C2481 C331 2.316 . S
C2500 C1326 2.243 . S
C2536 C1411 0.743 . S
C2517 C303 0.616 . S
C2572 C392 1.543 1_565 S
C2553 C59 1.659 . S
C2608 C1419 2.193 . S
C2589 C107 2.263 . S
C2625 C91 1.518 . S
C2644 C560 1.452 . S
C2661 C78 1.750 . S
C2680 C1332 1.611 . S
C2716 C744 1.578 . S
C2697 C7 1.624 . S
C2733 C51 0.989 . S
C2752 C1155 0.878 . S
C2788 C915 0.784 1_566 S
C2769 C31 0.749 . S
C2824 C1484 1.205 . S
C2805 C22 1.313 . S
C2860 C411 1.995 . S
C2841 C143 2.083 . S
C2896 C1416 0.675 . S
C2877 C315 0.643 . S
C2913 C115 1.281 . S
C2932 C579 1.258 . S
C2949 C287 1.595 . S
C2968 C1316 1.479 . S
C2985 C147 1.981 . S
C3004 C728 1.931 . S
C3040 C1158 1.137 . S
C3021 C311 1.182 . S
C3057 C119 0.783 . S
C3076 C912 0.794 . S
C3093 C283 1.478 . S
C3112 C1503 1.394 . S
C3129 C190 1.557 . S
C3148 C408 1.480 . S
C3165 C177 2.087 . S
C3184 C1083 2.011 . S
C3201 C260 2.350 . S
C3220 C823 2.186 . S
C3237 C247 0.420 . S
C3256 C1232 0.479 . S
C3292 C1500 0.728 . S
C3273 C274 0.709 . S
C3309 C218 1.473 . S
C3328 C576 1.439 . S
C3364 C663 2.270 . S
C3345 C261 2.360 . S
C3400 C476 0.693 . S
C3381 C205 0.668 . S
C3417 C77 1.641 . S
C3436 C1579 1.514 . S
C3472 C1410 2.163 . S
C3453 C93 2.235 . S
C3489 C101 1.459 . S
C3508 C1663 1.335 . S
C3525 C64 1.716 . S
C3544 C1323 1.546 . S
C3561 C45 1.656 . S
C3580 C1071 1.593 . S
C3616 C1164 0.960 . S
C3597 C9 0.953 . S
C3652 C1242 0.688 . S
C3633 C21 0.716 . S
C3688 C1495 1.213 . S
C3669 C36 1.298 . S
C3724 C1578 1.931 . S
C3705 C259 1.990 . S
C3741 C185 0.597 . S
C3760 C1407 0.623 . S
C3796 C1662 1.169 . S
C3777 C203 1.198 . S
C3832 C1327 1.427 . S
C3813 C213 1.568 . S
C3868 C1075 1.894 . S
C3849 C255 2.031 . S
C3885 C189 1.125 . S
C3904 C1167 1.106 . S
C3940 C1239 0.710 . S
C3921 C199 0.753 . S
C3957 C217 1.417 . S
C3976 C1494 1.331 . S
C4012 C1575 1.442 . S
C3993 C316 1.540 . S
C4029 C135 2.048 . S
C4048 C738 1.981 . S
C4084 C812 2.110 . S
C4065 C148 2.316 . S
C4120 C907 0.530 . S
C4101 C163 0.351 . S
C4156 C1491 0.659 . S
C4137 C302 0.669 . S
C4173 C288 1.460 1_554 S
C4192 C1659 1.386 . S
C4228 C654 2.219 . S
C4209 C149 2.309 . S
C4264 C487 0.702 . S
C4245 C121 0.620 . S
C4281 C87 1.660 . S
C4300 C1568 1.573 . S
C4336 C495 2.199 . S
C4317 C79 2.262 . S
C4353 C63 1.520 . S
C4372 C1652 1.470 . S
C4389 C106 1.751 . S
C4408 C660 1.624 . S
C4425 C35 1.618 . S
C4444 C1080 1.568 . S
C4480 C819 0.879 . S
C4461 C23 0.981 . S
C4497 C3 0.746 . S
C4516 C1251 0.744 . S
C4533 C50 1.310 . S
C4552 C980 1.150 . S
C4588 C1587 1.975 . S
C4569 C325 2.083 . S
C4605 C161 0.653 . S
C4624 C492 0.751 . S
C4660 C1671 1.206 . S
C4641 C297 1.283 . S
C4677 C133 1.603 . S
C4696 C644 1.535 . S
C4713 C329 1.977 . S
C4732 C1064 1.885 . S
C4768 C822 1.074 . S
C4749 C157 1.181 . S
C4785 C301 0.787 . S
C4804 C1248 0.746 1_655 S
C4840 C999 1.409 . S
C4821 C129 1.479 . S
C4876 C1584 1.425 . S
C4857 C246 1.560 . S
C4912 C747 2.010 1_655 S
C4893 C219 2.087 . S
C4929 C232 2.350 . S
C4948 C1159 2.163 . S
C4984 C896 0.618 . S
C4965 C191 0.419 . S
C5001 C204 0.680 . S
C5020 C996 0.673 . S
C5037 C176 1.476 . S
C5056 C1668 1.382 . S
C5092 C1335 2.290 . S
C5073 C233 2.363 . S
C5128 C1400 0.744 . S
C5109 C275 0.669 . S
