# Generated by pormake.
# Topology rtl, (3,6)-cn, num edge types: 1
# Building blocks:
#     Node 0, Type 0, BuildingBlock: WUSLED_clean_sbu_0, # of connection points: 3
#     Node 1, Type 0, BuildingBlock: WUSLED_clean_sbu_0, # of connection points: 3
#     Node 2, Type 0, BuildingBlock: WUSLED_clean_sbu_0, # of connection points: 3
#     Node 3, Type 0, BuildingBlock: WUSLED_clean_sbu_0, # of connection points: 3
#     Node 4, Type 1, BuildingBlock: FUNLAD_clean_sbu_0, # of connection points: 6
#     Node 5, Type 1, BuildingBlock: FUNLAD_clean_sbu_0, # of connection points: 6
#     Edge 6, Type (0, 1), BuildingBlock: FUNLAD_clean_linker_1, # of connection points: 2
#     Edge 7, Type (0, 1), BuildingBlock: FUNLAD_clean_linker_1, # of connection points: 2
#     Edge 8, Type (0, 1), BuildingBlock: FUNLAD_clean_linker_1, # of connection points: 2
#     Edge 9, Type (0, 1), BuildingBlock: FUNLAD_clean_linker_1, # of connection points: 2
#     Edge 10, Type (0, 1), BuildingBlock: FUNLAD_clean_linker_1, # of connection points: 2
#     Edge 11, Type (0, 1), BuildingBlock: FUNLAD_clean_linker_1, # of connection points: 2
#     Edge 12, Type (0, 1), BuildingBlock: FUNLAD_clean_linker_1, # of connection points: 2
#     Edge 13, Type (0, 1), BuildingBlock: FUNLAD_clean_linker_1, # of connection points: 2
#     Edge 14, Type (0, 1), BuildingBlock: FUNLAD_clean_linker_1, # of connection points: 2
#     Edge 15, Type (0, 1), BuildingBlock: FUNLAD_clean_linker_1, # of connection points: 2
#     Edge 16, Type (0, 1), BuildingBlock: FUNLAD_clean_linker_1, # of connection points: 2
#     Edge 17, Type (0, 1), BuildingBlock: FUNLAD_clean_linker_1, # of connection points: 2
# Relax obj value: 0.025
# Max RMSD: 0.085
# Mean RMSD: 0.073
data_MOF--net-rtl--node1-WUSLED_clean_sbu_0--node2-FUNLAD_clean_sbu_0--edge1-FUNLAD_clean_linker_1
_symmetry_space_group_name_H-M    P1
_symmetry_Int_Tables_number       1
_symmetry_cell_setting            triclinic
loop_
_symmetry_equiv_pos_as_xyz
'x, y, z'
_cell_length_a     52.567569
_cell_length_b     44.101362
_cell_length_c     30.916861
_cell_angle_alpha  90.291294
_cell_angle_beta   91.196288
_cell_angle_gamma 90.281438
loop_
_atom_site_label
_atom_site_type_symbol
_atom_site_fract_x
_atom_site_fract_y
_atom_site_fract_z
_atom_type_partial_charge
C0 C 0.17055 0.8458 0.14121 0.0
C1 C 0.15847 0.87318 0.13063 0.0
C2 C 0.14393 0.87844 0.20453 0.0
C3 C 0.1455 0.88947 0.16214 0.0
C4 C 0.15599 0.85089 0.21499 0.0
C5 C 0.16916 0.83474 0.18352 0.0
U6 U 0.17964 0.82287 0.02415 0.0
O7 O 0.21416 0.81861 0.98583 0.0
O8 O 0.18965 0.77883 0.9952 0.0
C9 C 0.21133 0.78916 0.98063 0.0
C10 C 0.18446 0.82856 0.10841 0.0
C11 C 0.23396 0.77074 0.99083 0.0
C12 C 0.27176 0.76038 0.03485 0.0
C13 C 0.24967 0.77726 0.027 0.0
C14 C 0.26234 0.72981 0.97115 0.0
C15 C 0.27834 0.73644 0.00714 0.0
C16 C 0.24036 0.74682 0.96319 0.0
C17 C 0.13218 0.85691 0.9397 0.0
C18 C 0.12845 0.88851 0.87545 0.0
C19 C 0.09997 0.84581 0.88397 0.0
C20 C 0.11191 0.83896 0.92356 0.0
C21 C 0.10791 0.87076 0.85956 0.0
C22 C 0.14039 0.88165 0.91501 0.0
C23 C 0.14268 0.85201 0.98403 0.0
O24 O 0.17162 0.8063 0.08964 0.0
O25 O 0.19748 0.84493 0.08106 0.0
O26 O 0.16501 0.86425 0.9933 0.0
O27 O 0.13989 0.8248 1.00057 0.0
H28 H 0.15914 0.88205 0.09806 0.0
H29 H 0.13651 0.91067 0.15328 0.0
H30 H 0.15582 0.84205 0.24756 0.0
H31 H 0.17841 0.81368 0.19229 0.0
H32 H 0.2838 0.76611 0.06261 0.0
H33 H 0.24505 0.79563 0.04882 0.0
H34 H 0.26706 0.71218 0.94828 0.0
H35 H 0.22855 0.74159 0.93496 0.0
H36 H 0.13483 0.90845 0.85855 0.0
H37 H 0.08407 0.83189 0.87284 0.0
H38 H 0.10475 0.82007 0.94207 0.0
H39 H 0.15557 0.89638 0.92687 0.0
C40 C 0.64826 0.70265 0.64356 0.0
C41 C 0.62394 0.69147 0.63249 0.0
C42 C 0.61723 0.67711 0.70735 0.0
C43 C 0.60851 0.67901 0.66419 0.0
C44 C 0.64152 0.68884 0.71841 0.0
C45 C 0.6569 0.70143 0.68667 0.0
U46 U 0.66262 0.71326 0.5253 0.0
O47 O 0.6775 0.75254 0.48998 0.0
O48 O 0.69842 0.70958 0.4902 0.0
C49 C 0.69842 0.73836 0.47935 0.0
C50 C 0.66488 0.71482 0.61011 0.0
C51 C 0.72227 0.75498 0.48836 0.0
C52 C 0.75657 0.77076 0.53749 0.0
C53 C 0.7336 0.75524 0.52985 0.0
C54 C 0.75692 0.78612 0.46237 0.0
C55 C 0.7684 0.78656 0.50396 0.0
C56 C 0.73403 0.77052 0.45477 0.0
C57 C 0.61504 0.67878 0.44222 0.0
C58 C 0.62253 0.66045 0.36926 0.0
C59 C 0.57974 0.67259 0.39092 0.0
C60 C 0.58901 0.68089 0.43201 0.0
C61 C 0.59626 0.66161 0.35944 0.0
C62 C 0.63183 0.66899 0.41031 0.0
C63 C 0.62395 0.68574 0.48672 0.0
O64 O 0.67651 0.69422 0.58699 0.0
O65 O 0.65508 0.73677 0.58658 0.0
O66 O 0.62349 0.71446 0.49825 0.0
O67 O 0.64455 0.67157 0.50027 0.0
H68 H 0.61699 0.69217 0.59927 0.0
H69 H 0.58987 0.67034 0.65481 0.0
H70 H 0.64865 0.68867 0.75147 0.0
H71 H 0.67559 0.7101 0.69576 0.0
H72 H 0.76507 0.77051 0.56971 0.0
H73 H 0.72476 0.74331 0.55621 0.0
H74 H 0.76575 0.79712 0.43529 0.0
H75 H 0.72562 0.77034 0.42246 0.0
H76 H 0.63596 0.65306 0.3454 0.0
H77 H 0.55947 0.674 0.3841 0.0
H78 H 0.57576 0.68852 0.4561 0.0
H79 H 0.65208 0.66759 0.41722 0.0
C80 C 0.86718 0.17803 0.1335 0.0
C81 C 0.89053 0.16322 0.12891 0.0
C82 C 0.88963 0.14718 0.20422 0.0
C83 C 0.90169 0.14788 0.16392 0.0
C84 C 0.86613 0.16187 0.20836 0.0
C85 C 0.85505 0.17726 0.17336 0.0
U86 U 0.86487 0.19673 0.01388 0.0
O87 O 0.83243 0.19869 0.96784 0.0
O88 O 0.85593 0.23923 0.98006 0.0
C89 C 0.83532 0.22791 0.9612 0.0
C90 C 0.85504 0.19354 0.0966 0.0
C91 C 0.81217 0.24619 0.96515 0.0
C92 C 0.7803 0.2709 0.0088 0.0
C93 C 0.80242 0.2535 1.00578 0.0
C94 C 0.77743 0.27356 0.9306 0.0
C95 C 0.76762 0.28131 0.9711 0.0
C96 C 0.79953 0.25626 0.92765 0.0
C97 C 0.91658 0.16299 0.94205 0.0
C98 C 0.91406 0.15258 0.86472 0.0
C99 C 0.95512 0.15485 0.90167 0.0
C100 C 0.94315 0.16119 0.94061 0.0
C101 C 0.94073 0.1498 0.86351 0.0
C102 C 0.9021 0.15914 0.90369 0.0
C103 C 0.90447 0.16793 0.98406 0.0
O104 O 0.86841 0.21563 0.07973 0.0
O105 O 0.84448 0.17551 0.06734 0.0
O106 O 0.8821 0.15508 0.98891 0.0
O107 O 0.90579 0.19568 0.9997 0.0
H108 H 0.9 0.16328 0.09811 0.0
H109 H 0.91938 0.13612 0.15883 0.0
H110 H 0.85632 0.1615 0.23883 0.0
H111 H 0.83691 0.1884 0.17735 0.0
H112 H 0.77309 0.2756 0.04063 0.0
H113 H 0.81186 0.24562 0.03509 0.0
H114 H 0.76802 0.28105 0.90104 0.0
H115 H 0.80674 0.25071 0.89602 0.0
H116 H 0.90236 0.14986 0.83575 0.0
H117 H 0.97568 0.15315 0.90159 0.0
H118 H 0.95466 0.16426 0.9698 0.0
H119 H 0.88155 0.16089 0.9039 0.0
C120 C 0.41125 0.35682 0.43409 0.0
C121 C 0.43375 0.37314 0.42775 0.0
C122 C 0.42246 0.37966 0.35158 0.0
C123 C 0.43932 0.38456 0.38698 0.0
C124 C 0.39983 0.36336 0.35818 0.0
C125 C 0.3943 0.35186 0.3991 0.0
U126 U 0.37301 0.30962 0.51463 0.0
O127 O 0.33485 0.3088 0.48382 0.0
O128 O 0.36086 0.27059 0.47471 0.0
C129 C 0.33768 0.2811 0.46886 0.0
C130 C 0.4057 0.34591 0.47768 0.0
C131 C 0.31689 0.25983 0.47831 0.0
C132 C 0.27579 0.23791 0.45835 0.0
C133 C 0.2957 0.25809 0.45016 0.0
C134 C 0.29811 0.22083 0.52304 0.0
C135 C 0.27674 0.21913 0.49507 0.0
C136 C 0.31794 0.24118 0.51497 0.0
C137 C 0.3935 0.31607 0.63199 0.0
C138 C 0.40374 0.32664 0.70752 0.0
C139 C 0.43103 0.34584 0.65157 0.0
C140 C 0.41517 0.33241 0.61999 0.0
C141 C 0.42531 0.34353 0.69561 0.0
C142 C 0.38795 0.31311 0.67587 0.0
C143 C 0.37631 0.30291 0.59878 0.0
O144 O 0.41014 0.31704 0.48472 0.0
O145 O 0.38419 0.35528 0.49392 0.0
O146 O 0.36092 0.3224 0.57989 0.0
O147 O 0.38703 0.28429 0.57134 0.0
H148 H 0.44691 0.37741 0.45457 0.0
H149 H 0.45651 0.39788 0.38381 0.0
H150 H 0.3864 0.35951 0.33163 0.0
H151 H 0.37676 0.33935 0.40353 0.0
H152 H 0.26004 0.23665 0.43531 0.0
H153 H 0.29463 0.27221 0.4216 0.0
H154 H 0.29941 0.20649 0.55135 0.0
H155 H 0.33413 0.24226 0.53721 0.0
H156 H 0.39909 0.32353 0.74113 0.0
H157 H 0.44756 0.35852 0.64149 0.0
H158 H 0.41971 0.33499 0.58617 0.0
H159 H 0.37133 0.30044 0.68565 0.0
C160 C 0.04022 0.97503 0.45334 0.0
N161 N 0.06603 0.05484 0.51565 0.0
C162 C 0.08987 0.043 0.51461 0.0
C163 C 0.11113 0.06207 0.51237 0.0
C164 C 0.10779 0.09369 0.51125 0.0
C165 C 0.08298 0.1052 0.5125 0.0
C166 C 0.0623 0.08533 0.51491 0.0
Zn167 Zn 0.03506 0.02646 0.51615 0.0
C168 C 0.99555 0.04495 0.45156 0.0
N169 N 0.97026 0.96714 0.51584 0.0
C170 C 0.97273 0.93646 0.51723 0.0
C171 C 0.94691 0.98027 0.51392 0.0
C172 C 0.92491 0.96246 0.51307 0.0
C173 C 0.92673 0.93074 0.51425 0.0
C174 C 0.95115 0.91771 0.51646 0.0
Zn175 Zn 1.00165 0.99495 0.51585 0.0
O176 O 0.05129 0.99904 0.46709 0.0
C177 C 0.04158 0.97688 0.58037 0.0
O178 O 0.01892 0.96734 0.46866 0.0
H179 H 0.94531 0.00469 0.51284 0.0
H180 H 0.09241 0.01868 0.51483 0.0
H181 H 0.99148 0.92648 0.51869 0.0
O182 O 0.05272 0.99966 0.56429 0.0
O183 O 0.01946 0.96929 0.56646 0.0
H184 H 0.0432 0.09429 0.51563 0.0
O185 O 0.98487 0.0229 0.56298 0.0
O186 O 0.01822 0.05313 0.56561 0.0
O187 O 0.98462 0.02122 0.4654 0.0
O188 O 0.01695 0.05294 0.46772 0.0
C189 C 0.99632 0.04584 0.57906 0.0
H190 H 0.12976 0.05194 0.51031 0.0
H191 H 0.07959 0.1294 0.5114 0.0
H192 H 0.90655 0.97349 0.51133 0.0
H193 H 0.95391 0.89347 0.51721 0.0
C194 C 0.50097 0.47329 0.94859 0.0
N195 N 0.57205 0.46498 0.01223 0.0
C196 C 0.56957 0.43427 0.00987 0.0
C197 C 0.59113 0.41579 0.00996 0.0
C198 C 0.61551 0.4291 0.01244 0.0
C199 C 0.61742 0.46078 0.01517 0.0
C200 C 0.59541 0.47837 0.01477 0.0
Zn201 Zn 0.5404 0.49199 0.01288 0.0
C202 C 0.54536 0.54409 0.95222 0.0
N203 N 0.4752 0.55001 0.01523 0.0
C204 C 0.45196 0.53629 0.01357 0.0
C205 C 0.4774 0.58078 0.01613 0.0
C206 C 0.45565 0.59898 0.01496 0.0
C207 C 0.43139 0.58532 0.0129 0.0
C208 C 0.42979 0.55357 0.01216 0.0
Zn209 Zn 0.50695 0.52312 0.01464 0.0
O210 O 0.52292 0.46573 0.96266 0.0
C211 C 0.5025 0.47101 0.07574 0.0
O212 O 0.49001 0.49621 0.96466 0.0
H213 H 0.49606 0.59124 0.01715 0.0
H214 H 0.55082 0.42406 0.00824 0.0
H215 H 0.45058 0.51182 0.01284 0.0
O216 O 0.52379 0.46397 0.05996 0.0
O217 O 0.49098 0.49459 0.06239 0.0
H218 H 0.59701 0.5028 0.01666 0.0
O219 O 0.52433 0.54936 0.06473 0.0
O220 O 0.55718 0.51873 0.0634 0.0
O221 O 0.52379 0.55124 0.96707 0.0
O222 O 0.55655 0.52046 0.96591 0.0
C223 C 0.54609 0.54158 0.07946 0.0
H224 H 0.58852 0.39146 0.00898 0.0
H225 H 0.63583 0.4719 0.01735 0.0
H226 H 0.45802 0.62335 0.01453 0.0
H227 H 0.4115 0.54217 0.01033 0.0
H228 H 0.26136 0.17683 0.52299 0.0
C229 C 0.25631 0.19675 0.50413 0.0
H230 H 0.22615 0.22024 0.47294 0.0
H231 H 0.15814 0.10512 0.43394 0.0
H232 H 0.17215 0.11787 0.36204 0.0
H233 H 0.20473 0.15744 0.35152 0.0
H234 H 0.22354 0.18445 0.41282 0.0
C235 C 0.23193 0.20038 0.49116 0.0
C236 C 0.21232 0.17649 0.49819 0.0
C237 C 0.20131 0.16112 0.46193 0.0
C238 C 0.18238 0.13846 0.46794 0.0
C239 C 0.1722 0.12296 0.4312 0.0
C240 C 0.18018 0.12993 0.38973 0.0
C241 C 0.19853 0.15219 0.38381 0.0
C242 C 0.20911 0.1676 0.41933 0.0
H243 H 0.12504 0.13789 0.49468 0.0
C244 C 0.12937 0.11526 0.50652 0.0
H245 H 0.15887 0.08715 0.53114 0.0
H246 H 0.22778 0.20334 0.57464 0.0
H247 H 0.21405 0.19007 0.64647 0.0
H248 H 0.1822 0.14964 0.6569 0.0
H249 H 0.16372 0.12241 0.59539 0.0
C250 C 0.15373 0.10862 0.51648 0.0
C251 C 0.17429 0.13142 0.51019 0.0
C252 C 0.18547 0.14648 0.54649 0.0
C253 C 0.20426 0.16935 0.54051 0.0
C254 C 0.2141 0.1851 0.57728 0.0
C255 C 0.20623 0.17786 0.61874 0.0
C256 C 0.18827 0.15513 0.62461 0.0
C257 C 0.17785 0.13965 0.58903 0.0
H258 H 0.31757 0.73172 0.03378 0.0
C259 C 0.30262 0.72002 0.01534 0.0
H260 H 0.29227 0.67896 0.98371 0.0
H261 H 0.40366 0.64023 0.93819 0.0
H262 H 0.38637 0.6531 0.86737 0.0
H263 H 0.34425 0.67709 0.85955 0.0
H264 H 0.31919 0.68843 0.92247 0.0
C265 C 0.30688 0.6915 1.00162 0.0
C266 C 0.33228 0.67692 0.00704 0.0
C267 C 0.34659 0.67012 0.96984 0.0
C268 C 0.37079 0.65603 0.9743 0.0
C269 C 0.38493 0.65028 0.93665 0.0
C270 C 0.37531 0.65773 0.89578 0.0
C271 C 0.3516 0.67125 0.89138 0.0
C272 C 0.33738 0.67755 0.92783 0.0
H273 H 0.39045 0.59128 0.99734 0.0
C274 C 0.40744 0.60307 0.00933 0.0
H275 H 0.42124 0.6447 0.03547 0.0
H276 H 0.30895 0.68421 0.08492 0.0
H277 H 0.32646 0.6716 0.15566 0.0
H278 H 0.36896 0.64854 0.1634 0.0
H279 H 0.39413 0.63772 0.10031 0.0
C280 C 0.40536 0.63244 0.02063 0.0
C281 C 0.38054 0.64841 0.01594 0.0
C282 C 0.36638 0.65545 0.05316 0.0
C283 C 0.34208 0.66934 0.04873 0.0
C284 C 0.32784 0.67464 0.08639 0.0
C285 C 0.33759 0.66728 0.12723 0.0
C286 C 0.3615 0.65425 0.13159 0.0
C287 C 0.37577 0.64822 0.09511 0.0
H288 H 0.8046 0.79442 0.5405 0.0
C289 C 0.79315 0.80212 0.51302 0.0
H290 H 0.7907 0.83418 0.46233 0.0
H291 H 0.88125 0.89501 0.58874 0.0
H292 H 0.84834 0.90158 0.64178 0.0
H293 H 0.80526 0.88056 0.62883 0.0
H294 H 0.79495 0.85243 0.56317 0.0
C295 C 0.80175 0.82552 0.48955 0.0
C296 C 0.82746 0.83904 0.49758 0.0
C297 C 0.83289 0.8562 0.53564 0.0
C298 C 0.85744 0.86942 0.54232 0.0
C299 C 0.86269 0.88539 0.58136 0.0
C300 C 0.84401 0.88919 0.61219 0.0
C301 C 0.81978 0.87727 0.60497 0.0
C302 C 0.81416 0.861 0.56719 0.0
H303 H 0.88498 0.92511 0.50801 0.0
C304 C 0.90268 0.91267 0.51231 0.0
H305 H 0.91803 0.86837 0.51849 0.0
H306 H 0.82357 0.8069 0.42167 0.0
H307 H 0.85617 0.80157 0.36785 0.0
H308 H 0.89821 0.8259 0.37837 0.0
H309 H 0.90797 0.85559 0.4429 0.0
C310 C 0.90118 0.88227 0.51517 0.0
C311 C 0.87616 0.86644 0.51019 0.0
C312 C 0.87079 0.8491 0.47235 0.0
C313 C 0.84643 0.83539 0.46604 0.0
C314 C 0.84163 0.81812 0.42794 0.0
C315 C 0.8602 0.81481 0.39679 0.0
C316 C 0.88387 0.82848 0.40274 0.0
C317 C 0.88922 0.84545 0.43997 0.0
H318 H 0.73254 0.30102 0.94245 0.0
C319 C 0.7439 0.29959 0.9722 0.0
H320 H 0.74684 0.31505 0.03725 0.0
H321 H 0.66689 0.41188 0.94117 0.0
H322 H 0.70363 0.42887 0.90175 0.0
H323 H 0.74498 0.40317 0.91051 0.0
H324 H 0.74966 0.35994 0.95807 0.0
C325 C 0.73619 0.31542 0.00685 0.0
C326 C 0.71213 0.33318 1.00512 0.0
C327 C 0.71002 0.35927 0.97861 0.0
C328 C 0.68651 0.37504 0.97523 0.0
C329 C 0.68454 0.39986 0.94647 0.0
C330 C 0.70546 0.40973 0.92337 0.0
C331 C 0.72871 0.39519 0.92816 0.0
C332 C 0.73108 0.37026 0.95539 0.0
H333 H 0.65654 0.42192 0.02603 0.0
C334 C 0.63931 0.41097 0.01344 0.0
H335 H 0.62444 0.37072 0.98464 0.0
H336 H 0.70991 0.28456 0.05959 0.0
H337 H 0.67367 0.26885 0.10147 0.0
H338 H 0.63341 0.29732 0.09777 0.0
H339 H 0.62907 0.34158 0.05201 0.0
C340 C 0.64101 0.3825 0.99794 0.0
C341 C 0.6655 0.36559 1.00005 0.0
C342 C 0.66778 0.33987 0.02716 0.0
C343 C 0.6911 0.32365 0.02968 0.0
C344 C 0.69273 0.29787 0.05672 0.0
C345 C 0.67206 0.28858 0.08092 0.0
C346 C 0.64939 0.30459 0.07881 0.0
C347 C 0.64715 0.32995 0.05234 0.0
H348 H 0.12902 0.92114 0.23184 0.0
C349 C 0.13049 0.89685 0.23726 0.0
H350 H 0.12014 0.86075 0.27831 0.0
H351 H 0.1104 0.9402 0.44697 0.0
H352 H 0.14759 0.90997 0.46453 0.0
H353 H 0.16697 0.87725 0.40941 0.0
H354 H 0.14923 0.87441 0.3365 0.0
C355 C 0.11942 0.88495 0.27221 0.0
C356 C 0.10732 0.9046 0.30526 0.0
C357 C 0.11807 0.90617 0.34769 0.0
C358 C 0.1071 0.92533 0.37933 0.0
C359 C 0.1181 0.92624 0.42155 0.0
C360 C 0.13944 0.90898 0.4321 0.0
C361 C 0.15034 0.89054 0.40108 0.0
C362 C 0.1399 0.88909 0.35933 0.0
H363 H 0.04128 0.936 0.40849 0.0
C364 C 0.05165 0.95609 0.41951 0.0
H365 H 0.08515 0.98231 0.41352 0.0
H366 H 0.07981 0.90399 0.22886 0.0
H367 H 0.04326 0.93514 0.21091 0.0
H368 H 0.02609 0.971 0.26427 0.0
H369 H 0.04512 0.97551 0.33614 0.0
C370 C 0.07411 0.96289 0.40195 0.0
C371 C 0.08543 0.94294 0.36854 0.0
C372 C 0.07465 0.94143 0.32612 0.0
C373 C 0.08527 0.92175 0.29472 0.0
C374 C 0.07324 0.91947 0.25339 0.0
C375 C 0.0521 0.93707 0.24275 0.0
C376 C 0.04238 0.95718 0.27283 0.0
C377 C 0.05343 0.95943 0.31407 0.0
H378 H 0.58012 0.66188 0.73238 0.0
C379 C 0.60043 0.66294 0.73975 0.0
H380 H 0.6294 0.64962 0.7843 0.0
H381 H 0.56037 0.63536 0.9464 0.0
H382 H 0.58244 0.68236 0.96453 0.0
H383 H 0.60873 0.70833 0.91075 0.0
H384 H 0.61324 0.68742 0.83857 0.0
C385 C 0.60923 0.64959 0.77608 0.0
C386 C 0.59182 0.63486 0.80712 0.0
C387 C 0.5891 0.6476 0.84898 0.0
C388 C 0.57375 0.63278 0.87988 0.0
C389 C 0.57171 0.64576 0.92165 0.0
C390 C 0.58425 0.67273 0.93247 0.0
C391 C 0.59907 0.68734 0.90219 0.0
C392 C 0.60154 0.67505 0.8609 0.0
H393 H 0.57556 0.55425 0.90628 0.0
C394 C 0.5576 0.56234 0.91867 0.0
H395 H 0.5301 0.5972 0.91546 0.0
H396 H 0.59384 0.60315 0.73055 0.0
H397 H 0.57023 0.55749 0.71169 0.0
H398 H 0.54149 0.53372 0.76388 0.0
H399 H 0.53657 0.55528 0.83556 0.0
C400 C 0.54759 0.58802 0.90274 0.0
C401 C 0.56119 0.60524 0.8689 0.0
C402 C 0.56301 0.59315 0.82649 0.0
C403 C 0.57875 0.6076 0.79581 0.0
C404 C 0.58141 0.59389 0.75462 0.0
C405 C 0.56808 0.56752 0.74343 0.0
C406 C 0.55197 0.55407 0.77285 0.0
C407 C 0.54942 0.5666 0.81396 0.0
H408 H 0.88748 0.12449 0.26776 0.0
C409 C 0.9004 0.1306 0.24215 0.0
H410 H 0.93888 0.12969 0.22293 0.0
H411 H 0.94618 0.10297 0.43482 0.0
H412 H 0.93131 0.15455 0.44358 0.0
H413 H 0.91878 0.18516 0.38013 0.0
H414 H 0.9206 0.16418 0.30766 0.0
C415 C 0.9252 0.12374 0.24729 0.0
C416 C 0.93466 0.10642 0.28559 0.0
C417 C 0.93435 0.11947 0.32764 0.0
C418 C 0.94268 0.1023 0.36409 0.0
C419 C 0.94098 0.11535 0.40588 0.0
C420 C 0.93234 0.14489 0.41141 0.0
C421 C 0.9252 0.16208 0.3757 0.0
C422 C 0.92617 0.14967 0.33425 0.0
H423 H 0.99411 0.08335 0.40624 0.0
C424 C 0.98406 0.06306 0.41636 0.0
H425 H 0.95251 0.03414 0.40433 0.0
H426 H 0.93816 0.0748 0.20949 0.0
H427 H 0.95498 0.02409 0.20047 0.0
H428 H 0.97098 0.99511 0.26334 0.0
H429 H 0.97005 0.01655 0.33567 0.0
C430 C 0.96227 0.05499 0.39585 0.0
C431 C 0.95235 0.07262 0.35822 0.0
C432 C 0.95305 0.05977 0.31614 0.0
C433 C 0.94416 0.07666 0.27981 0.0
C434 C 0.94491 0.06314 0.23819 0.0
C435 C 0.95449 0.03402 0.23254 0.0
C436 C 0.96347 0.01769 0.26793 0.0
C437 C 0.96279 0.03027 0.30931 0.0
H438 H 0.46167 0.36425 0.71849 0.0
C439 C 0.44236 0.35885 0.72797 0.0
H440 H 0.41543 0.36369 0.77757 0.0
H441 H 0.49429 0.38076 0.93159 0.0
H442 H 0.47983 0.32936 0.9446 0.0
H443 H 0.45289 0.30226 0.8906 0.0
H444 H 0.4401 0.32647 0.82334 0.0
C445 C 0.43465 0.36811 0.76707 0.0
C446 C 0.45225 0.38404 0.79808 0.0
C447 C 0.45982 0.36945 0.83698 0.0
C448 C 0.47562 0.38493 0.86788 0.0
C449 C 0.4825 0.36998 0.90682 0.0
C450 C 0.47432 0.34047 0.91472 0.0
C451 C 0.45913 0.32522 0.88433 0.0
C452 C 0.4519 0.33941 0.84589 0.0
H453 H 0.4689 0.46329 0.90382 0.0
C454 C 0.48787 0.45601 0.91377 0.0
H455 H 0.51696 0.42387 0.90424 0.0
H456 H 0.44006 0.41956 0.72801 0.0
H457 H 0.45649 0.4698 0.71328 0.0
H458 H 0.48656 0.49502 0.76433 0.0
H459 H 0.49993 0.47034 0.83088 0.0
C460 C 0.49834 0.43207 0.89399 0.0
C461 C 0.48386 0.41498 0.85978 0.0
C462 C 0.47722 0.4291 0.82 0.0
C463 C 0.46089 0.41393 0.78958 0.0
C464 C 0.45324 0.42943 0.75148 0.0
C465 C 0.46241 0.4584 0.74271 0.0
C466 C 0.47925 0.47265 0.77152 0.0
C467 C 0.48663 0.4583 0.80976 0.0
H468 H 0.56671 0.65984 0.30731 0.0
C469 C 0.58535 0.65136 0.31708 0.0
H470 H 0.61384 0.61934 0.3026 0.0
H471 H 0.53769 0.53707 0.19211 0.0
H472 H 0.54087 0.50803 0.25833 0.0
H473 H 0.56325 0.52885 0.32288 0.0
H474 H 0.58263 0.57887 0.32157 0.0
C475 C 0.5963 0.63022 0.2922 0.0
C476 C 0.58298 0.61788 0.25294 0.0
C477 C 0.57217 0.58838 0.25402 0.0
C478 C 0.55956 0.57621 0.21663 0.0
C479 C 0.54813 0.54711 0.21913 0.0
C480 C 0.54963 0.53027 0.25708 0.0
C481 C 0.56222 0.542 0.29342 0.0
C482 C 0.57332 0.57072 0.29217 0.0
H483 H 0.57647 0.54947 0.12841 0.0
C484 C 0.55807 0.5575 0.11666 0.0
H485 H 0.52828 0.58873 0.12657 0.0
H486 H 0.60216 0.67484 0.23962 0.0
H487 H 0.59866 0.70406 0.17348 0.0
H488 H 0.57654 0.68304 0.10876 0.0
H489 H 0.55786 0.63259 0.10974 0.0
C490 C 0.54648 0.57995 0.13801 0.0
C491 C 0.55827 0.59334 0.17793 0.0
C492 C 0.56863 0.62305 0.17709 0.0
C493 C 0.58115 0.63528 0.21456 0.0
C494 C 0.59204 0.66465 0.21237 0.0
C495 C 0.59026 0.68162 0.17454 0.0
C496 C 0.57783 0.66977 0.13808 0.0
C497 C 0.56717 0.6408 0.1391 0.0
H498 H 0.97429 0.1475 0.82145 0.0
C499 C 0.95425 0.14152 0.82339 0.0
H500 H 0.9238 0.11783 0.79223 0.0
H501 H 0.9681 0.12365 0.60443 0.0
H502 H 0.93413 0.16058 0.59819 0.0
H503 H 0.91099 0.17735 0.6626 0.0
H504 H 0.92165 0.15733 0.73364 0.0
C505 C 0.9436 0.12482 0.79123 0.0
C506 C 0.95834 0.11537 0.75282 0.0
C507 C 0.95181 0.12723 0.71154 0.0
C508 C 0.96504 0.11745 0.67434 0.0
C509 C 0.95836 0.12995 0.6336 0.0
C510 C 0.939 0.15127 0.6296 0.0
C511 C 0.92597 0.16072 0.66588 0.0
C512 C 0.93225 0.14899 0.70645 0.0
H513 H 0.96477 0.0567 0.62202 0.0
C514 C 0.98426 0.06267 0.61437 0.0
H515 H 0.01674 0.08815 0.63381 0.0
H516 H 0.97451 0.0861 0.82657 0.0
H517 H 1.00876 0.04972 0.83255 0.0
H518 H 0.03273 0.03435 0.76838 0.0
H519 H 0.02227 0.05491 0.69766 0.0
C520 C 0.99683 0.08302 0.63928 0.0
C521 C 0.98466 0.09567 0.67845 0.0
C522 C 0.99162 0.0843 0.71981 0.0
C523 C 0.9782 0.09378 0.75698 0.0
C524 C 0.98458 0.08059 0.79746 0.0
C525 C 1.0041 0.05946 0.80132 0.0
C526 C 0.01756 0.05074 0.76518 0.0
C527 C 1.01138 0.06278 0.72479 0.0
H528 H 0.4111 0.39652 0.28657 0.0
C529 C 0.42734 0.39255 0.30814 0.0
H530 H 0.46749 0.3952 0.31463 0.0
H531 H 0.45274 0.41116 0.10263 0.0
H532 H 0.43778 0.359 0.10215 0.0
H533 H 0.43113 0.33172 0.17049 0.0
H534 H 0.43905 0.35653 0.23969 0.0
C535 C 0.4508 0.39934 0.29435 0.0
C536 C 0.45484 0.41527 0.25273 0.0
C537 C 0.45063 0.40013 0.21259 0.0
C538 C 0.45531 0.41551 0.17316 0.0
C539 C 0.4502 0.40025 0.13351 0.0
C540 C 0.4415 0.37036 0.13277 0.0
C541 C 0.43768 0.35503 0.17125 0.0
C542 C 0.44219 0.3696 0.21078 0.0
H543 H 0.5031 0.43309 0.12189 0.0
C544 C 0.49235 0.45283 0.11137 0.0
H545 H 0.46146 0.48168 0.12446 0.0
H546 H 0.46428 0.45105 0.32403 0.0
H547 H 0.4803 0.50272 0.3244 0.0
H548 H 0.48952 0.52886 0.25611 0.0
H549 H 0.48284 0.50352 0.18706 0.0
C550 C 0.47172 0.4612 0.13328 0.0
C551 C 0.4649 0.44563 0.17403 0.0
C552 C 0.46893 0.46081 0.21413 0.0
C553 C 0.46388 0.44562 0.2535 0.0
C554 C 0.46805 0.46137 0.29312 0.0
C555 C 0.47719 0.49107 0.29383 0.0
C556 C 0.48236 0.5058 0.25538 0.0
C557 C 0.47838 0.49097 0.21593 0.0
H558 H 0.07437 0.86857 0.81497 0.0
C559 C 0.09312 0.87875 0.8196 0.0
H560 H 0.1205 0.90737 0.79092 0.0
H561 H 0.07283 0.90124 0.60249 0.0
H562 H 0.10883 0.86754 0.59445 0.0
H563 H 0.13424 0.85129 0.65813 0.0
H564 H 0.12378 0.86857 0.73026 0.0
C565 C 0.10134 0.89818 0.78944 0.0
C566 C 0.08503 0.90669 0.75148 0.0
C567 C 0.09146 0.89649 0.70957 0.0
C568 C 0.07695 0.90606 0.6728 0.0
C569 C 0.08354 0.89514 0.63139 0.0
C570 C 0.10405 0.87566 0.62636 0.0
C571 C 0.11835 0.86649 0.66222 0.0
C572 C 0.11218 0.87664 0.70342 0.0
H573 H 0.07391 0.96695 0.62419 0.0
C574 C 0.05445 0.96036 0.61579 0.0
H575 H 0.02306 0.93317 0.6331 0.0
H576 H 0.06797 0.93154 0.82707 0.0
H577 H 0.03169 0.96464 0.83489 0.0
H578 H 1.00595 0.98013 0.77123 0.0
H579 H 0.01655 0.96287 0.69924 0.0
C580 C 0.04288 0.9391 0.63941 0.0
C581 C 0.0562 0.92608 0.67797 0.0
C582 C 0.04924 0.93551 0.71997 0.0
C583 C 0.06383 0.9261 0.75676 0.0
C584 C 0.05721 0.93723 0.79809 0.0
C585 C 0.03649 0.95643 0.80304 0.0
C586 C 0.02202 0.9652 0.7672 0.0
C587 C 0.0283 0.95508 0.72605 0.0
loop_
_geom_bond_atom_site_label_1
_geom_bond_atom_site_label_2
_geom_bond_distance
_geom_bond_site_symmetry_2
_ccdc_geom_bond_type
C0 C1 1.264 . S
C0 C5 1.479 . S
C0 C10 1.465 . S
C1 C0 1.264 . S
C1 C3 1.339 . S
C1 H28 0.931 . S
C2 C3 1.395 . S
C2 C4 1.320 . S
C3 C1 1.339 . S
C3 C2 1.395 . S
C3 H29 0.929 . S
C4 C2 1.320 . S
C4 C5 1.405 . S
C4 H30 0.930 . S
C5 C0 1.479 . S
C5 C4 1.405 . S
C5 H31 0.931 . S
U6 O7 2.454 . S
U6 O8 2.458 1_554 S
U6 C9 2.984 . S
U6 C10 2.847 . S
U6 C23 2.882 1_554 S
U6 O24 2.441 . S
U6 O25 2.420 . S
U6 O26 2.455 1_554 S
U6 O27 2.449 1_554 S
O7 U6 2.454 . S
O7 C9 1.353 . S
O8 U6 2.458 1_556 S
O8 C9 1.286 1_556 S
C9 U6 2.984 . S
C9 O7 1.353 . S
C9 O8 1.286 1_554 S
C9 C11 1.363 . S
C10 C0 1.465 . S
C10 U6 2.847 . S
C10 O24 1.249 . S
C10 O25 1.202 . S
C11 C9 1.363 . S
C11 C13 1.408 . S
C11 C16 1.342 1_554 S
C12 C13 1.310 . S
C12 C15 1.461 . S
C12 H32 0.932 . S
C13 C11 1.408 . S
C13 C12 1.310 . S
C13 H33 0.930 . S
C14 C15 1.474 1_556 S
C14 C16 1.285 . S
C14 H34 0.929 . S
C15 C12 1.461 . S
C15 C14 1.474 1_554 S
C16 C11 1.342 1_556 S
C16 C14 1.285 . S
C16 H35 0.930 . S
C17 C20 1.424 . S
C17 C22 1.245 . S
C17 C23 1.428 . S
C18 C21 1.260 . S
C18 C22 1.477 . S
C18 H36 0.932 . S
C19 C20 1.384 . S
C19 C21 1.479 . S
C19 H37 0.929 . S
C20 C17 1.424 . S
C20 C19 1.384 . S
C20 H38 0.928 . S
C21 C18 1.260 . S
C21 C19 1.479 . S
C22 C17 1.245 . S
C22 C18 1.477 . S
C22 H39 0.932 . S
C23 U6 2.882 1_556 S
C23 C17 1.428 . S
C23 O26 1.301 . S
C23 O27 1.282 . S
O24 U6 2.441 . S
O24 C10 1.249 . S
O25 U6 2.420 . S
O25 C10 1.202 . S
O26 U6 2.455 1_556 S
O26 C23 1.301 . S
O27 U6 2.449 1_556 S
O27 C23 1.282 . S
H28 C1 0.931 . S
H29 C3 0.929 . S
H30 C4 0.930 . S
H31 C5 0.931 . S
H32 C12 0.932 . S
H33 C13 0.930 . S
H34 C14 0.929 . S
H35 C16 0.930 . S
H36 C18 0.932 . S
H37 C19 0.929 . S
H38 C20 0.928 . S
H39 C22 0.932 . S
C40 C41 1.264 . S
C40 C45 1.479 . S
C40 C50 1.465 . S
C41 C40 1.264 . S
C41 C43 1.339 . S
C41 H68 0.931 . S
C42 C43 1.395 . S
C42 C44 1.320 . S
C43 C41 1.339 . S
C43 C42 1.395 . S
C43 H69 0.929 . S
C44 C42 1.320 . S
C44 C45 1.405 . S
C44 H70 0.930 . S
C45 C40 1.479 . S
C45 C44 1.405 . S
C45 H71 0.931 . S
U46 O47 2.454 . S
U46 O48 2.458 . S
U46 C49 2.984 . S
U46 C50 2.847 . S
U46 C63 2.882 . S
U46 O64 2.441 . S
U46 O65 2.420 . S
U46 O66 2.455 . S
U46 O67 2.449 . S
O47 U46 2.454 . S
O47 C49 1.353 . S
O48 U46 2.458 . S
O48 C49 1.286 . S
C49 U46 2.984 . S
C49 O47 1.353 . S
C49 O48 1.286 . S
C49 C51 1.363 . S
C50 C40 1.465 . S
C50 U46 2.847 . S
C50 O64 1.249 . S
C50 O65 1.202 . S
C51 C49 1.363 . S
C51 C53 1.408 . S
C51 C56 1.342 . S
C52 C53 1.310 . S
C52 C55 1.461 . S
C52 H72 0.932 . S
C53 C51 1.408 . S
C53 C52 1.310 . S
C53 H73 0.930 . S
C54 C55 1.474 . S
C54 C56 1.285 . S
C54 H74 0.929 . S
C55 C52 1.461 . S
C55 C54 1.474 . S
C56 C51 1.342 . S
C56 C54 1.285 . S
C56 H75 0.930 . S
C57 C60 1.424 . S
C57 C62 1.245 . S
C57 C63 1.428 . S
C58 C61 1.260 . S
C58 C62 1.477 . S
C58 H76 0.932 . S
C59 C60 1.384 . S
C59 C61 1.479 . S
C59 H77 0.929 . S
C60 C57 1.424 . S
C60 C59 1.384 . S
C60 H78 0.928 . S
C61 C58 1.260 . S
C61 C59 1.479 . S
C62 C57 1.245 . S
C62 C58 1.477 . S
C62 H79 0.932 . S
C63 U46 2.882 . S
C63 C57 1.428 . S
C63 O66 1.301 . S
C63 O67 1.282 . S
O64 U46 2.441 . S
O64 C50 1.249 . S
O65 U46 2.420 . S
O65 C50 1.202 . S
O66 U46 2.455 . S
O66 C63 1.301 . S
O67 U46 2.449 . S
O67 C63 1.282 . S
H68 C41 0.931 . S
H69 C43 0.929 . S
H70 C44 0.930 . S
H71 C45 0.931 . S
H72 C52 0.932 . S
H73 C53 0.930 . S
H74 C54 0.929 . S
H75 C56 0.930 . S
H76 C58 0.932 . S
H77 C59 0.929 . S
H78 C60 0.928 . S
H79 C62 0.932 . S
C80 C81 1.264 . S
C80 C85 1.479 . S
C80 C90 1.465 . S
C81 C80 1.264 . S
C81 C83 1.339 . S
C81 H108 0.931 . S
C82 C83 1.395 . S
C82 C84 1.320 . S
C83 C81 1.339 . S
C83 C82 1.395 . S
C83 H109 0.929 . S
C84 C82 1.320 . S
C84 C85 1.405 . S
C84 H110 0.930 . S
C85 C80 1.479 . S
C85 C84 1.405 . S
C85 H111 0.931 . S
U86 O87 2.454 . S
U86 O88 2.458 1_554 S
U86 C89 2.984 . S
U86 C90 2.847 . S
U86 C103 2.882 1_554 S
U86 O104 2.441 . S
U86 O105 2.420 . S
U86 O106 2.455 1_554 S
U86 O107 2.449 1_554 S
O87 U86 2.454 . S
O87 C89 1.353 . S
O88 U86 2.458 1_556 S
O88 C89 1.286 1_556 S
C89 U86 2.984 . S
C89 O87 1.353 . S
C89 O88 1.286 1_554 S
C89 C91 1.363 . S
C90 C80 1.465 . S
C90 U86 2.847 . S
C90 O104 1.249 . S
C90 O105 1.202 . S
C91 C89 1.363 . S
C91 C93 1.408 . S
C91 C96 1.342 1_554 S
C92 C93 1.310 . S
C92 C95 1.461 . S
C92 H112 0.932 . S
C93 C91 1.408 . S
C93 C92 1.310 . S
C93 H113 0.930 . S
C94 C95 1.474 1_556 S
C94 C96 1.285 . S
C94 H114 0.929 . S
C95 C92 1.461 . S
C95 C94 1.474 1_554 S
C96 C91 1.342 1_556 S
C96 C94 1.285 . S
C96 H115 0.930 . S
C97 C100 1.424 . S
C97 C102 1.245 . S
C97 C103 1.428 . S
C98 C101 1.260 . S
C98 C102 1.477 . S
C98 H116 0.932 . S
C99 C100 1.384 . S
C99 C101 1.479 . S
C99 H117 0.929 . S
C100 C97 1.424 . S
C100 C99 1.384 . S
C100 H118 0.928 . S
C101 C98 1.260 . S
C101 C99 1.479 . S
C102 C97 1.245 . S
C102 C98 1.477 . S
C102 H119 0.932 . S
C103 U86 2.882 1_556 S
C103 C97 1.428 . S
C103 O106 1.301 . S
C103 O107 1.282 . S
O104 U86 2.441 . S
O104 C90 1.249 . S
O105 U86 2.420 . S
O105 C90 1.202 . S
O106 U86 2.455 1_556 S
O106 C103 1.301 . S
O107 U86 2.449 1_556 S
O107 C103 1.282 . S
H108 C81 0.931 . S
H109 C83 0.929 . S
H110 C84 0.930 . S
H111 C85 0.931 . S
H112 C92 0.932 . S
H113 C93 0.930 . S
H114 C94 0.929 . S
H115 C96 0.930 . S
H116 C98 0.932 . S
H117 C99 0.929 . S
H118 C100 0.928 . S
H119 C102 0.932 . S
C120 C121 1.264 . S
C120 C125 1.479 . S
C120 C130 1.465 . S
C121 C120 1.264 . S
C121 C123 1.339 . S
C121 H148 0.931 . S
C122 C123 1.395 . S
C122 C124 1.320 . S
C123 C121 1.339 . S
C123 C122 1.395 . S
C123 H149 0.929 . S
C124 C122 1.320 . S
C124 C125 1.405 . S
C124 H150 0.930 . S
C125 C120 1.479 . S
C125 C124 1.405 . S
C125 H151 0.931 . S
U126 O127 2.454 . S
U126 O128 2.458 . S
U126 C129 2.984 . S
U126 C130 2.847 . S
U126 C143 2.882 . S
U126 O144 2.441 . S
U126 O145 2.420 . S
U126 O146 2.455 . S
U126 O147 2.449 . S
O127 U126 2.454 . S
O127 C129 1.353 . S
O128 U126 2.458 . S
O128 C129 1.286 . S
C129 U126 2.984 . S
C129 O127 1.353 . S
C129 O128 1.286 . S
C129 C131 1.363 . S
C130 C120 1.465 . S
C130 U126 2.847 . S
C130 O144 1.249 . S
C130 O145 1.202 . S
C131 C129 1.363 . S
C131 C133 1.408 . S
C131 C136 1.342 . S
C132 C133 1.310 . S
C132 C135 1.461 . S
C132 H152 0.932 . S
C133 C131 1.408 . S
C133 C132 1.310 . S
C133 H153 0.930 . S
C134 C135 1.474 . S
C134 C136 1.285 . S
C134 H154 0.929 . S
C135 C132 1.461 . S
C135 C134 1.474 . S
C136 C131 1.342 . S
C136 C134 1.285 . S
C136 H155 0.930 . S
C137 C140 1.424 . S
C137 C142 1.245 . S
C137 C143 1.428 . S
C138 C141 1.260 . S
C138 C142 1.477 . S
C138 H156 0.932 . S
C139 C140 1.384 . S
C139 C141 1.479 . S
C139 H157 0.929 . S
C140 C137 1.424 . S
C140 C139 1.384 . S
C140 H158 0.928 . S
C141 C138 1.260 . S
C141 C139 1.479 . S
C142 C137 1.245 . S
C142 C138 1.477 . S
C142 H159 0.932 . S
C143 U126 2.882 . S
C143 C137 1.428 . S
C143 O146 1.301 . S
C143 O147 1.282 . S
O144 U126 2.441 . S
O144 C130 1.249 . S
O145 U126 2.420 . S
O145 C130 1.202 . S
O146 U126 2.455 . S
O146 C143 1.301 . S
O147 U126 2.449 . S
O147 C143 1.282 . S
H148 C121 0.931 . S
H149 C123 0.929 . S
H150 C124 0.930 . S
H151 C125 0.931 . S
H152 C132 0.932 . S
H153 C133 0.930 . S
H154 C134 0.929 . S
H155 C136 0.930 . S
H156 C138 0.932 . S
H157 C139 0.929 . S
H158 C140 0.928 . S
H159 C142 0.932 . S
C160 O176 1.251 . S
C160 O178 1.254 . S
N161 C162 1.333 . S
N161 C166 1.307 . S
N161 Zn167 2.020 . S
C162 N161 1.333 . S
C162 C163 1.379 . S
C162 H180 0.952 . S
C163 C162 1.379 . S
C163 C164 1.390 . S
C163 H190 0.949 . S
C164 C163 1.390 . S
C164 C165 1.357 . S
C165 C164 1.357 . S
C165 C166 1.370 . S
C165 H191 0.950 . S
C166 N161 1.307 . S
C166 C165 1.370 . S
C166 H184 0.948 . S
Zn167 N161 2.020 . S
Zn167 O176 2.039 1_545 S
Zn167 O182 2.034 1_545 S
Zn167 O186 2.025 . S
Zn167 O188 2.024 . S
C168 O187 1.246 . S
C168 O188 1.249 1_655 S
N169 C170 1.307 . S
N169 C171 1.333 . S
N169 Zn175 2.020 . S
C170 N169 1.307 . S
C170 C174 1.370 . S
C170 H181 0.948 . S
C171 N169 1.333 . S
C171 C172 1.379 . S
C171 H179 0.952 1_565 S
C172 C171 1.379 . S
C172 C173 1.390 . S
C172 H192 0.949 . S
C173 C172 1.390 . S
C173 C174 1.357 . S
C174 C170 1.370 . S
C174 C173 1.357 . S
C174 H193 0.950 . S
Zn175 N169 2.020 . S
Zn175 O178 2.025 1_655 S
Zn175 O183 2.024 1_655 S
Zn175 O185 2.039 1_565 S
Zn175 O187 2.034 1_565 S
O176 C160 1.251 . S
O176 Zn167 2.039 1_565 S
C177 O182 1.246 . S
C177 O183 1.249 . S
O178 C160 1.254 . S
O178 Zn175 2.025 1_455 S
H179 C171 0.952 1_545 S
H180 C162 0.952 . S
H181 C170 0.948 . S
O182 Zn167 2.034 1_565 S
O182 C177 1.246 . S
O183 Zn175 2.024 1_455 S
O183 C177 1.249 . S
H184 C166 0.948 . S
O185 Zn175 2.039 1_545 S
O185 C189 1.251 . S
O186 Zn167 2.025 . S
O186 C189 1.254 1_455 S
O187 C168 1.246 . S
O187 Zn175 2.034 1_545 S
O188 Zn167 2.024 . S
O188 C168 1.249 1_455 S
C189 O185 1.251 . S
C189 O186 1.254 1_655 S
H190 C163 0.949 . S
H191 C165 0.950 . S
H192 C172 0.949 . S
H193 C174 0.950 . S
C194 O210 1.251 . S
C194 O212 1.254 . S
N195 C196 1.333 1_554 S
N195 C200 1.307 . S
N195 Zn201 2.020 . S
C196 N195 1.333 1_556 S
C196 C197 1.379 . S
C196 H214 0.952 . S
C197 C196 1.379 . S
C197 C198 1.390 1_556 S
C197 H224 0.949 . S
C198 C197 1.390 1_554 S
C198 C199 1.357 . S
C199 C198 1.357 . S
C199 C200 1.370 . S
C199 H225 0.950 . S
C200 N195 1.307 . S
C200 C199 1.370 . S
C200 H218 0.948 . S
Zn201 N195 2.020 . S
Zn201 O210 2.039 1_554 S
Zn201 O216 2.034 . S
Zn201 O220 2.025 . S
Zn201 O222 2.024 1_554 S
C202 O221 1.246 . S
C202 O222 1.249 . S
N203 C204 1.307 1_554 S
N203 C205 1.333 . S
N203 Zn209 2.020 . S
C204 N203 1.307 1_556 S
C204 C208 1.370 . S
C204 H215 0.948 . S
C205 N203 1.333 . S
C205 C206 1.379 . S
C205 H213 0.952 . S
C206 C205 1.379 . S
C206 C207 1.390 . S
C206 H226 0.949 . S
C207 C206 1.390 . S
C207 C208 1.357 1_554 S
C208 C204 1.370 . S
C208 C207 1.357 1_556 S
C208 H227 0.950 . S
Zn209 N203 2.020 . S
Zn209 O212 2.025 1_554 S
Zn209 O217 2.024 . S
Zn209 O219 2.039 . S
Zn209 O221 2.034 1_554 S
O210 C194 1.251 . S
O210 Zn201 2.039 1_556 S
C211 O216 1.246 . S
C211 O217 1.249 . S
O212 C194 1.254 . S
O212 Zn209 2.025 1_556 S
H213 C205 0.952 . S
H214 C196 0.952 . S
H215 C204 0.948 . S
O216 Zn201 2.034 . S
O216 C211 1.246 . S
O217 Zn209 2.024 . S
O217 C211 1.249 . S
H218 C200 0.948 . S
O219 Zn209 2.039 . S
O219 C223 1.251 . S
O220 Zn201 2.025 . S
O220 C223 1.254 . S
O221 C202 1.246 . S
O221 Zn209 2.034 1_556 S
O222 Zn201 2.024 1_556 S
O222 C202 1.249 . S
C223 O219 1.251 . S
C223 O220 1.254 . S
H224 C197 0.949 . S
H225 C199 0.950 . S
H226 C206 0.949 . S
H227 C208 0.950 . S
H228 C229 0.951 . S
C229 H228 0.951 . S
C229 C235 1.265 . S
H230 C235 0.950 . S
H231 C239 0.949 . S
H232 C240 0.950 . S
H233 C241 0.951 . S
H234 C242 0.951 . S
C235 C229 1.265 . S
C235 H230 0.950 . S
C235 C236 1.478 . S
C236 C235 1.478 . S
C236 C237 1.397 . S
C236 C253 1.394 . S
C237 C236 1.397 . S
C237 C238 1.438 . S
C237 C242 1.429 . S
C238 C237 1.438 . S
C238 C239 1.428 . S
C238 C251 1.394 . S
C239 H231 0.949 . S
C239 C238 1.428 . S
C239 C240 1.345 . S
C240 H232 0.950 . S
C240 C239 1.345 . S
C240 C241 1.424 . S
C241 H233 0.951 . S
C241 C240 1.424 . S
C241 C242 1.347 . S
C242 H234 0.951 . S
C242 C237 1.429 . S
C242 C241 1.347 . S
H243 C244 0.951 . S
C244 H243 0.951 . S
C244 C250 1.265 . S
H245 C250 0.950 . S
H246 C254 0.949 . S
H247 C255 0.950 . S
H248 C256 0.951 . S
H249 C257 0.951 . S
C250 C244 1.265 . S
C250 H245 0.950 . S
C250 C251 1.478 . S
C251 C238 1.394 . S
C251 C250 1.478 . S
C251 C252 1.397 . S
C252 C251 1.397 . S
C252 C253 1.438 . S
C252 C257 1.429 . S
C253 C236 1.394 . S
C253 C252 1.438 . S
C253 C254 1.428 . S
C254 H246 0.949 . S
C254 C253 1.428 . S
C254 C255 1.345 . S
C255 H247 0.950 . S
C255 C254 1.345 . S
C255 C256 1.424 . S
C256 H248 0.951 . S
C256 C255 1.424 . S
C256 C257 1.347 . S
C257 H249 0.951 . S
C257 C252 1.429 . S
C257 C256 1.347 . S
H258 C259 0.951 . S
C259 H258 0.951 . S
C259 C265 1.265 . S
H260 C265 0.950 . S
H261 C269 0.949 . S
H262 C270 0.950 . S
H263 C271 0.951 . S
H264 C272 0.951 . S
C265 C259 1.265 . S
C265 H260 0.950 . S
C265 C266 1.478 . S
C266 C265 1.478 . S
C266 C267 1.397 1_554 S
C266 C283 1.394 . S
C267 C266 1.397 1_556 S
C267 C268 1.438 . S
C267 C272 1.429 . S
C268 C267 1.438 . S
C268 C269 1.428 . S
C268 C281 1.394 1_556 S
C269 H261 0.949 . S
C269 C268 1.428 . S
C269 C270 1.345 . S
C270 H262 0.950 . S
C270 C269 1.345 . S
C270 C271 1.424 . S
C271 H263 0.951 . S
C271 C270 1.424 . S
C271 C272 1.347 . S
C272 H264 0.951 . S
C272 C267 1.429 . S
C272 C271 1.347 . S
H273 C274 0.951 . S
C274 H273 0.951 . S
C274 C280 1.265 . S
H275 C280 0.950 . S
H276 C284 0.949 . S
H277 C285 0.950 . S
H278 C286 0.951 . S
H279 C287 0.951 . S
C280 C274 1.265 . S
C280 H275 0.950 . S
C280 C281 1.478 . S
C281 C268 1.394 1_554 S
C281 C280 1.478 . S
C281 C282 1.397 . S
C282 C281 1.397 . S
C282 C283 1.438 . S
C282 C287 1.429 . S
C283 C266 1.394 . S
C283 C282 1.438 . S
C283 C284 1.428 . S
C284 H276 0.949 . S
C284 C283 1.428 . S
C284 C285 1.345 . S
C285 H277 0.950 . S
C285 C284 1.345 . S
C285 C286 1.424 . S
C286 H278 0.951 . S
C286 C285 1.424 . S
C286 C287 1.347 . S
C287 H279 0.951 . S
C287 C282 1.429 . S
C287 C286 1.347 . S
H288 C289 0.951 . S
C289 H288 0.951 . S
C289 C295 1.265 . S
H290 C295 0.950 . S
H291 C299 0.949 . S
H292 C300 0.950 . S
H293 C301 0.951 . S
H294 C302 0.951 . S
C295 C289 1.265 . S
C295 H290 0.950 . S
C295 C296 1.478 . S
C296 C295 1.478 . S
C296 C297 1.397 . S
C296 C313 1.394 . S
C297 C296 1.397 . S
C297 C298 1.438 . S
C297 C302 1.429 . S
C298 C297 1.438 . S
C298 C299 1.428 . S
C298 C311 1.394 . S
C299 H291 0.949 . S
C299 C298 1.428 . S
C299 C300 1.345 . S
C300 H292 0.950 . S
C300 C299 1.345 . S
C300 C301 1.424 . S
C301 H293 0.951 . S
C301 C300 1.424 . S
C301 C302 1.347 . S
C302 H294 0.951 . S
C302 C297 1.429 . S
C302 C301 1.347 . S
H303 C304 0.951 . S
C304 H303 0.951 . S
C304 C310 1.265 . S
H305 C310 0.950 . S
H306 C314 0.949 . S
H307 C315 0.950 . S
H308 C316 0.951 . S
H309 C317 0.951 . S
C310 C304 1.265 . S
C310 H305 0.950 . S
C310 C311 1.478 . S
C311 C298 1.394 . S
C311 C310 1.478 . S
C311 C312 1.397 . S
C312 C311 1.397 . S
C312 C313 1.438 . S
C312 C317 1.429 . S
C313 C296 1.394 . S
C313 C312 1.438 . S
C313 C314 1.428 . S
C314 H306 0.949 . S
C314 C313 1.428 . S
C314 C315 1.345 . S
C315 H307 0.950 . S
C315 C314 1.345 . S
C315 C316 1.424 . S
C316 H308 0.951 . S
C316 C315 1.424 . S
C316 C317 1.347 . S
C317 H309 0.951 . S
C317 C312 1.429 . S
C317 C316 1.347 . S
H318 C319 0.948 1_556 S
C319 H318 0.948 1_554 S
C319 C325 1.267 . S
H320 C325 0.950 . S
H321 C329 0.949 . S
H322 C330 0.950 . S
H323 C331 0.951 . S
H324 C332 0.951 1_554 S
C325 C319 1.267 . S
C325 H320 0.950 . S
C325 C326 1.478 . S
C326 C325 1.478 . S
C326 C327 1.397 . S
C326 C343 1.394 . S
C327 C326 1.397 . S
C327 C328 1.438 1_554 S
C327 C332 1.429 1_554 S
C328 C327 1.438 1_556 S
C328 C329 1.428 . S
C328 C341 1.394 . S
C329 H321 0.949 . S
C329 C328 1.428 . S
C329 C330 1.345 . S
C330 H322 0.950 . S
C330 C329 1.345 . S
C330 C331 1.424 . S
C331 H323 0.951 . S
C331 C330 1.424 . S
C331 C332 1.347 . S
C332 H324 0.951 1_556 S
C332 C327 1.429 1_556 S
C332 C331 1.347 . S
H333 C334 0.951 . S
C334 H333 0.951 . S
C334 C340 1.265 1_554 S
H335 C340 0.950 . S
H336 C344 0.949 . S
H337 C345 0.950 . S
H338 C346 0.951 . S
H339 C347 0.951 . S
C340 C334 1.265 1_556 S
C340 H335 0.950 . S
C340 C341 1.478 . S
C341 C328 1.394 . S
C341 C340 1.478 . S
C341 C342 1.397 1_556 S
C342 C341 1.397 1_554 S
C342 C343 1.438 . S
C342 C347 1.429 . S
C343 C326 1.394 . S
C343 C342 1.438 . S
C343 C344 1.428 . S
C344 H336 0.949 . S
C344 C343 1.428 . S
C344 C345 1.345 . S
C345 H337 0.950 . S
C345 C344 1.345 . S
C345 C346 1.424 . S
C346 H338 0.951 . S
C346 C345 1.424 . S
C346 C347 1.347 . S
C347 H339 0.951 . S
C347 C342 1.429 . S
C347 C346 1.347 . S
H348 C349 0.951 . S
C349 H348 0.951 . S
C349 C355 1.265 . S
H350 C355 0.950 . S
H351 C359 0.949 . S
H352 C360 0.950 . S
H353 C361 0.951 . S
H354 C362 0.951 . S
C355 C349 1.265 . S
C355 H350 0.950 . S
C355 C356 1.478 . S
C356 C355 1.478 . S
C356 C357 1.397 . S
C356 C373 1.394 . S
C357 C356 1.397 . S
C357 C358 1.438 . S
C357 C362 1.429 . S
C358 C357 1.438 . S
C358 C359 1.428 . S
C358 C371 1.394 . S
C359 H351 0.949 . S
C359 C358 1.428 . S
C359 C360 1.345 . S
C360 H352 0.950 . S
C360 C359 1.345 . S
C360 C361 1.424 . S
C361 H353 0.951 . S
C361 C360 1.424 . S
C361 C362 1.347 . S
C362 H354 0.951 . S
C362 C357 1.429 . S
C362 C361 1.347 . S
H363 C364 0.951 . S
C364 H363 0.951 . S
C364 C370 1.265 . S
H365 C370 0.950 . S
H366 C374 0.949 . S
H367 C375 0.950 . S
H368 C376 0.951 . S
H369 C377 0.951 . S
C370 C364 1.265 . S
C370 H365 0.950 . S
C370 C371 1.478 . S
C371 C358 1.394 . S
C371 C370 1.478 . S
C371 C372 1.397 . S
C372 C371 1.397 . S
C372 C373 1.438 . S
C372 C377 1.429 . S
C373 C356 1.394 . S
C373 C372 1.438 . S
C373 C374 1.428 . S
C374 H366 0.949 . S
C374 C373 1.428 . S
C374 C375 1.345 . S
C375 H367 0.950 . S
C375 C374 1.345 . S
C375 C376 1.424 . S
C376 H368 0.951 . S
C376 C375 1.424 . S
C376 C377 1.347 . S
C377 H369 0.951 . S
C377 C372 1.429 . S
C377 C376 1.347 . S
H378 C379 0.951 . S
C379 H378 0.951 . S
C379 C385 1.265 . S
H380 C385 0.950 . S
H381 C389 0.949 . S
H382 C390 0.950 . S
H383 C391 0.951 . S
H384 C392 0.951 . S
C385 C379 1.265 . S
C385 H380 0.950 . S
C385 C386 1.478 . S
C386 C385 1.478 . S
C386 C387 1.397 . S
C386 C403 1.394 . S
C387 C386 1.397 . S
C387 C388 1.438 . S
C387 C392 1.429 . S
C388 C387 1.438 . S
C388 C389 1.428 . S
C388 C401 1.394 . S
C389 H381 0.949 . S
C389 C388 1.428 . S
C389 C390 1.345 . S
C390 H382 0.950 . S
C390 C389 1.345 . S
C390 C391 1.424 . S
C391 H383 0.951 . S
C391 C390 1.424 . S
C391 C392 1.347 . S
C392 H384 0.951 . S
C392 C387 1.429 . S
C392 C391 1.347 . S
H393 C394 0.951 . S
C394 H393 0.951 . S
C394 C400 1.265 . S
H395 C400 0.950 . S
H396 C404 0.949 . S
H397 C405 0.950 . S
H398 C406 0.951 . S
H399 C407 0.951 . S
C400 C394 1.265 . S
C400 H395 0.950 . S
C400 C401 1.478 . S
C401 C388 1.394 . S
C401 C400 1.478 . S
C401 C402 1.397 . S
C402 C401 1.397 . S
C402 C403 1.438 . S
C402 C407 1.429 . S
C403 C386 1.394 . S
C403 C402 1.438 . S
C403 C404 1.428 . S
C404 H396 0.949 . S
C404 C403 1.428 . S
C404 C405 1.345 . S
C405 H397 0.950 . S
C405 C404 1.345 . S
C405 C406 1.424 . S
C406 H398 0.951 . S
C406 C405 1.424 . S
C406 C407 1.347 . S
C407 H399 0.951 . S
C407 C402 1.429 . S
C407 C406 1.347 . S
H408 C409 0.951 . S
C409 H408 0.951 . S
C409 C415 1.265 . S
H410 C415 0.950 . S
H411 C419 0.949 . S
H412 C420 0.950 . S
H413 C421 0.951 . S
H414 C422 0.951 . S
C415 C409 1.265 . S
C415 H410 0.950 . S
C415 C416 1.478 . S
C416 C415 1.478 . S
C416 C417 1.397 . S
C416 C433 1.394 . S
C417 C416 1.397 . S
C417 C418 1.438 . S
C417 C422 1.429 . S
C418 C417 1.438 . S
C418 C419 1.428 . S
C418 C431 1.394 . S
C419 H411 0.949 . S
C419 C418 1.428 . S
C419 C420 1.345 . S
C420 H412 0.950 . S
C420 C419 1.345 . S
C420 C421 1.424 . S
C421 H413 0.951 . S
C421 C420 1.424 . S
C421 C422 1.347 . S
C422 H414 0.951 . S
C422 C417 1.429 . S
C422 C421 1.347 . S
H423 C424 0.951 1_455 S
C424 H423 0.951 1_655 S
C424 C430 1.265 . S
H425 C430 0.950 . S
H426 C434 0.949 . S
H427 C435 0.950 . S
H428 C436 0.951 . S
H429 C437 0.951 . S
C430 C424 1.265 . S
C430 H425 0.950 . S
C430 C431 1.478 . S
C431 C418 1.394 . S
C431 C430 1.478 . S
C431 C432 1.397 . S
C432 C431 1.397 . S
C432 C433 1.438 . S
C432 C437 1.429 . S
C433 C416 1.394 . S
C433 C432 1.438 . S
C433 C434 1.428 . S
C434 H426 0.949 . S
C434 C433 1.428 . S
C434 C435 1.345 . S
C435 H427 0.950 . S
C435 C434 1.345 . S
C435 C436 1.424 . S
C436 H428 0.951 . S
C436 C435 1.424 . S
C436 C437 1.347 . S
C437 H429 0.951 . S
C437 C432 1.429 . S
C437 C436 1.347 . S
H438 C439 0.951 . S
C439 H438 0.951 . S
C439 C445 1.265 . S
H440 C445 0.950 . S
H441 C449 0.949 . S
H442 C450 0.950 . S
H443 C451 0.951 . S
H444 C452 0.951 . S
C445 C439 1.265 . S
C445 H440 0.950 . S
C445 C446 1.478 . S
C446 C445 1.478 . S
C446 C447 1.397 . S
C446 C463 1.394 . S
C447 C446 1.397 . S
C447 C448 1.438 . S
C447 C452 1.429 . S
C448 C447 1.438 . S
C448 C449 1.428 . S
C448 C461 1.394 . S
C449 H441 0.949 . S
C449 C448 1.428 . S
C449 C450 1.345 . S
C450 H442 0.950 . S
C450 C449 1.345 . S
C450 C451 1.424 . S
C451 H443 0.951 . S
C451 C450 1.424 . S
C451 C452 1.347 . S
C452 H444 0.951 . S
C452 C447 1.429 . S
C452 C451 1.347 . S
H453 C454 0.951 . S
C454 H453 0.951 . S
C454 C460 1.265 . S
H455 C460 0.950 . S
H456 C464 0.949 . S
H457 C465 0.950 . S
H458 C466 0.951 . S
H459 C467 0.951 . S
C460 C454 1.265 . S
C460 H455 0.950 . S
C460 C461 1.478 . S
C461 C448 1.394 . S
C461 C460 1.478 . S
C461 C462 1.397 . S
C462 C461 1.397 . S
C462 C463 1.438 . S
C462 C467 1.429 . S
C463 C446 1.394 . S
C463 C462 1.438 . S
C463 C464 1.428 . S
C464 H456 0.949 . S
C464 C463 1.428 . S
C464 C465 1.345 . S
C465 H457 0.950 . S
C465 C464 1.345 . S
C465 C466 1.424 . S
C466 H458 0.951 . S
C466 C465 1.424 . S
C466 C467 1.347 . S
C467 H459 0.951 . S
C467 C462 1.429 . S
C467 C466 1.347 . S
H468 C469 0.951 . S
C469 H468 0.951 . S
C469 C475 1.265 . S
H470 C475 0.950 . S
H471 C479 0.949 . S
H472 C480 0.950 . S
H473 C481 0.951 . S
H474 C482 0.951 . S
C475 C469 1.265 . S
C475 H470 0.950 . S
C475 C476 1.478 . S
C476 C475 1.478 . S
C476 C477 1.397 . S
C476 C493 1.394 . S
C477 C476 1.397 . S
C477 C478 1.438 . S
C477 C482 1.429 . S
C478 C477 1.438 . S
C478 C479 1.428 . S
C478 C491 1.394 . S
C479 H471 0.949 . S
C479 C478 1.428 . S
C479 C480 1.345 . S
C480 H472 0.950 . S
C480 C479 1.345 . S
C480 C481 1.424 . S
C481 H473 0.951 . S
C481 C480 1.424 . S
C481 C482 1.347 . S
C482 H474 0.951 . S
C482 C477 1.429 . S
C482 C481 1.347 . S
H483 C484 0.951 . S
C484 H483 0.951 . S
C484 C490 1.265 . S
H485 C490 0.950 . S
H486 C494 0.949 . S
H487 C495 0.950 . S
H488 C496 0.951 . S
H489 C497 0.951 . S
C490 C484 1.265 . S
C490 H485 0.950 . S
C490 C491 1.478 . S
C491 C478 1.394 . S
C491 C490 1.478 . S
C491 C492 1.397 . S
C492 C491 1.397 . S
C492 C493 1.438 . S
C492 C497 1.429 . S
C493 C476 1.394 . S
C493 C492 1.438 . S
C493 C494 1.428 . S
C494 H486 0.949 . S
C494 C493 1.428 . S
C494 C495 1.345 . S
C495 H487 0.950 . S
C495 C494 1.345 . S
C495 C496 1.424 . S
C496 H488 0.951 . S
C496 C495 1.424 . S
C496 C497 1.347 . S
C497 H489 0.951 . S
C497 C492 1.429 . S
C497 C496 1.347 . S
H498 C499 0.951 . S
C499 H498 0.951 . S
C499 C505 1.265 . S
H500 C505 0.950 . S
H501 C509 0.949 . S
H502 C510 0.950 . S
H503 C511 0.951 . S
H504 C512 0.951 . S
C505 C499 1.265 . S
C505 H500 0.950 . S
C505 C506 1.478 . S
C506 C505 1.478 . S
C506 C507 1.397 . S
C506 C523 1.394 . S
C507 C506 1.397 . S
C507 C508 1.438 . S
C507 C512 1.429 . S
C508 C507 1.438 . S
C508 C509 1.428 . S
C508 C521 1.394 . S
C509 H501 0.949 . S
C509 C508 1.428 . S
C509 C510 1.345 . S
C510 H502 0.950 . S
C510 C509 1.345 . S
C510 C511 1.424 . S
C511 H503 0.951 . S
C511 C510 1.424 . S
C511 C512 1.347 . S
C512 H504 0.951 . S
C512 C507 1.429 . S
C512 C511 1.347 . S
H513 C514 0.951 . S
C514 H513 0.951 . S
C514 C520 1.265 . S
H515 C520 0.950 1_455 S
H516 C524 0.949 . S
H517 C525 0.950 1_455 S
H518 C526 0.951 . S
H519 C527 0.951 . S
C520 C514 1.265 . S
C520 H515 0.950 1_655 S
C520 C521 1.478 . S
C521 C508 1.394 . S
C521 C520 1.478 . S
C521 C522 1.397 . S
C522 C521 1.397 . S
C522 C523 1.438 . S
C522 C527 1.429 1_655 S
C523 C506 1.394 . S
C523 C522 1.438 . S
C523 C524 1.428 . S
C524 H516 0.949 . S
C524 C523 1.428 . S
C524 C525 1.345 . S
C525 H517 0.950 1_655 S
C525 C524 1.345 . S
C525 C526 1.424 1_655 S
C526 H518 0.951 . S
C526 C525 1.424 1_455 S
C526 C527 1.347 . S
C527 H519 0.951 . S
C527 C522 1.429 1_455 S
C527 C526 1.347 . S
H528 C529 0.951 . S
C529 H528 0.951 . S
C529 C535 1.265 . S
H530 C535 0.950 . S
H531 C539 0.949 . S
H532 C540 0.950 . S
H533 C541 0.951 . S
H534 C542 0.951 . S
C535 C529 1.265 . S
C535 H530 0.950 . S
C535 C536 1.478 . S
C536 C535 1.478 . S
C536 C537 1.397 . S
C536 C553 1.394 . S
C537 C536 1.397 . S
C537 C538 1.438 . S
C537 C542 1.429 . S
C538 C537 1.438 . S
C538 C539 1.428 . S
C538 C551 1.394 . S
C539 H531 0.949 . S
C539 C538 1.428 . S
C539 C540 1.345 . S
C540 H532 0.950 . S
C540 C539 1.345 . S
C540 C541 1.424 . S
C541 H533 0.951 . S
C541 C540 1.424 . S
C541 C542 1.347 . S
C542 H534 0.951 . S
C542 C537 1.429 . S
C542 C541 1.347 . S
H543 C544 0.951 . S
C544 H543 0.951 . S
C544 C550 1.265 . S
H545 C550 0.950 . S
H546 C554 0.949 . S
H547 C555 0.950 . S
H548 C556 0.951 . S
H549 C557 0.951 . S
C550 C544 1.265 . S
C550 H545 0.950 . S
C550 C551 1.478 . S
C551 C538 1.394 . S
C551 C550 1.478 . S
C551 C552 1.397 . S
C552 C551 1.397 . S
C552 C553 1.438 . S
C552 C557 1.429 . S
C553 C536 1.394 . S
C553 C552 1.438 . S
C553 C554 1.428 . S
C554 H546 0.949 . S
C554 C553 1.428 . S
C554 C555 1.345 . S
C555 H547 0.950 . S
C555 C554 1.345 . S
C555 C556 1.424 . S
C556 H548 0.951 . S
C556 C555 1.424 . S
C556 C557 1.347 . S
C557 H549 0.951 . S
C557 C552 1.429 . S
C557 C556 1.347 . S
H558 C559 0.951 . S
C559 H558 0.951 . S
C559 C565 1.265 . S
H560 C565 0.950 . S
H561 C569 0.949 . S
H562 C570 0.950 . S
H563 C571 0.951 . S
H564 C572 0.951 . S
C565 C559 1.265 . S
C565 H560 0.950 . S
C565 C566 1.478 . S
C566 C565 1.478 . S
C566 C567 1.397 . S
C566 C583 1.394 . S
C567 C566 1.397 . S
C567 C568 1.438 . S
C567 C572 1.429 . S
C568 C567 1.438 . S
C568 C569 1.428 . S
C568 C581 1.394 . S
C569 H561 0.949 . S
C569 C568 1.428 . S
C569 C570 1.345 . S
C570 H562 0.950 . S
C570 C569 1.345 . S
C570 C571 1.424 . S
C571 H563 0.951 . S
C571 C570 1.424 . S
C571 C572 1.347 . S
C572 H564 0.951 . S
C572 C567 1.429 . S
C572 C571 1.347 . S
H573 C574 0.951 . S
C574 H573 0.951 . S
C574 C580 1.265 . S
H575 C580 0.950 . S
H576 C584 0.949 . S
H577 C585 0.950 . S
H578 C586 0.951 . S
H579 C587 0.951 . S
C580 C574 1.265 . S
C580 H575 0.950 . S
C580 C581 1.478 . S
C581 C568 1.394 . S
C581 C580 1.478 . S
C581 C582 1.397 . S
C582 C581 1.397 . S
C582 C583 1.438 . S
C582 C587 1.429 . S
C583 C566 1.394 . S
C583 C582 1.438 . S
C583 C584 1.428 . S
C584 H576 0.949 . S
C584 C583 1.428 . S
C584 C585 1.345 . S
C585 H577 0.950 . S
C585 C584 1.345 . S
C585 C586 1.424 . S
C586 H578 0.951 . S
C586 C585 1.424 . S
C586 C587 1.347 . S
C587 H579 0.951 . S
C587 C582 1.429 . S
C587 C586 1.347 . S
C244 C164 1.688 . S
C229 C135 1.675 . S
C259 C15 1.538 . S
C274 C207 1.563 . S
C289 C55 1.620 . S
C304 C173 1.667 . S
C319 C95 1.555 . S
C334 C198 1.568 . S
C364 C160 1.618 . S
C349 C2 1.513 . S
C394 C202 1.759 . S
C379 C42 1.765 . S
C409 C82 1.512 . S
C424 C168 1.606 . S
C439 C141 1.610 . S
C454 C194 1.740 . S
C484 C223 1.779 . S
C469 C61 1.765 . S
C514 C189 1.687 . S
C499 C101 1.628 . S
C544 C211 1.775 . S
C529 C122 1.652 . S
C559 C21 1.616 . S
C574 C177 1.672 . S
