# Generated by pormake.
# Topology pyr, (3,6)-cn, num edge types: 1
# Building blocks:
#     Node 0, Type 0, BuildingBlock: WUSLED_clean_sbu_0, # of connection points: 3
#     Node 1, Type 0, BuildingBlock: WUSLED_clean_sbu_0, # of connection points: 3
#     Node 2, Type 0, BuildingBlock: WUSLED_clean_sbu_0, # of connection points: 3
#     Node 3, Type 0, BuildingBlock: WUSLED_clean_sbu_0, # of connection points: 3
#     Node 4, Type 0, BuildingBlock: WUSLED_clean_sbu_0, # of connection points: 3
#     Node 5, Type 0, BuildingBlock: WUSLED_clean_sbu_0, # of connection points: 3
#     Node 6, Type 0, BuildingBlock: WUSLED_clean_sbu_0, # of connection points: 3
#     Node 7, Type 0, BuildingBlock: WUSLED_clean_sbu_0, # of connection points: 3
#     Node 8, Type 1, BuildingBlock: BETDEL_clean_sbu_0, # of connection points: 6
#     Node 9, Type 1, BuildingBlock: BETDEL_clean_sbu_0, # of connection points: 6
#     Node 10, Type 1, BuildingBlock: BETDEL_clean_sbu_0, # of connection points: 6
#     Node 11, Type 1, BuildingBlock: BETDEL_clean_sbu_0, # of connection points: 6
#     Edge 12, Type (0, 1), BuildingBlock: KIFKEQ_clean_linker_1, # of connection points: 2
#     Edge 13, Type (0, 1), BuildingBlock: KIFKEQ_clean_linker_1, # of connection points: 2
#     Edge 14, Type (0, 1), BuildingBlock: KIFKEQ_clean_linker_1, # of connection points: 2
#     Edge 15, Type (0, 1), BuildingBlock: KIFKEQ_clean_linker_1, # of connection points: 2
#     Edge 16, Type (0, 1), BuildingBlock: KIFKEQ_clean_linker_1, # of connection points: 2
#     Edge 17, Type (0, 1), BuildingBlock: KIFKEQ_clean_linker_1, # of connection points: 2
#     Edge 18, Type (0, 1), BuildingBlock: KIFKEQ_clean_linker_1, # of connection points: 2
#     Edge 19, Type (0, 1), BuildingBlock: KIFKEQ_clean_linker_1, # of connection points: 2
#     Edge 20, Type (0, 1), BuildingBlock: KIFKEQ_clean_linker_1, # of connection points: 2
#     Edge 21, Type (0, 1), BuildingBlock: KIFKEQ_clean_linker_1, # of connection points: 2
#     Edge 22, Type (0, 1), BuildingBlock: KIFKEQ_clean_linker_1, # of connection points: 2
#     Edge 23, Type (0, 1), BuildingBlock: KIFKEQ_clean_linker_1, # of connection points: 2
#     Edge 24, Type (0, 1), BuildingBlock: KIFKEQ_clean_linker_1, # of connection points: 2
#     Edge 25, Type (0, 1), BuildingBlock: KIFKEQ_clean_linker_1, # of connection points: 2
#     Edge 26, Type (0, 1), BuildingBlock: KIFKEQ_clean_linker_1, # of connection points: 2
#     Edge 27, Type (0, 1), BuildingBlock: KIFKEQ_clean_linker_1, # of connection points: 2
#     Edge 28, Type (0, 1), BuildingBlock: KIFKEQ_clean_linker_1, # of connection points: 2
#     Edge 29, Type (0, 1), BuildingBlock: KIFKEQ_clean_linker_1, # of connection points: 2
#     Edge 30, Type (0, 1), BuildingBlock: KIFKEQ_clean_linker_1, # of connection points: 2
#     Edge 31, Type (0, 1), BuildingBlock: KIFKEQ_clean_linker_1, # of connection points: 2
#     Edge 32, Type (0, 1), BuildingBlock: KIFKEQ_clean_linker_1, # of connection points: 2
#     Edge 33, Type (0, 1), BuildingBlock: KIFKEQ_clean_linker_1, # of connection points: 2
#     Edge 34, Type (0, 1), BuildingBlock: KIFKEQ_clean_linker_1, # of connection points: 2
#     Edge 35, Type (0, 1), BuildingBlock: KIFKEQ_clean_linker_1, # of connection points: 2
# Relax obj value: 0.026
# Max RMSD: 0.091
# Mean RMSD: 0.038
data_MOF--net-pyr--node1-WUSLED_clean_sbu_0--node2-BETDEL_clean_sbu_0--edge1-KIFKEQ_clean_linker_1
_symmetry_space_group_name_H-M    P1
_symmetry_Int_Tables_number       1
_symmetry_cell_setting            triclinic
loop_
_symmetry_equiv_pos_as_xyz
'x, y, z'
_cell_length_a     47.881773
_cell_length_b     49.097404
_cell_length_c     44.985972
_cell_angle_alpha  90.313695
_cell_angle_beta   88.213322
_cell_angle_gamma 94.977993
loop_
_atom_site_label
_atom_site_type_symbol
_atom_site_fract_x
_atom_site_fract_y
_atom_site_fract_z
_atom_type_partial_charge
C0 C 0.22141 0.28121 0.1349 0.0
C1 C 0.20074 0.29159 0.15344 0.0
C2 C 0.18546 0.31785 0.11236 0.0
C3 C 0.18297 0.3098 0.1423 0.0
C4 C 0.20689 0.30823 0.09408 0.0
C5 C 0.2247 0.28987 0.10529 0.0
U6 U 0.22516 0.22764 0.19204 0.0
O7 O 0.23071 0.18389 0.18889 0.0
O8 O 0.26005 0.21084 0.21465 0.0
C9 C 0.25449 0.18643 0.20292 0.0
C10 C 0.23687 0.25902 0.14578 0.0
C11 C 0.27833 0.17425 0.18803 0.0
C12 C 0.29896 0.15205 0.14531 0.0
C13 C 0.27648 0.16409 0.15883 0.0
C14 C 0.32581 0.16053 0.18968 0.0
C15 C 0.32392 0.15013 0.16053 0.0
C16 C 0.30317 0.17236 0.20333 0.0
C17 C 0.16751 0.22078 0.25085 0.0
C18 C 0.16505 0.18133 0.28323 0.0
C19 C 0.12663 0.21045 0.2833 0.0
C20 C 0.14119 0.22716 0.26187 0.0
C21 C 0.13821 0.18707 0.29372 0.0
C22 C 0.17957 0.19804 0.26194 0.0
C23 C 0.18115 0.23605 0.22579 0.0
O24 O 0.24867 0.26362 0.17158 0.0
O25 O 0.22291 0.23485 0.14408 0.0
O26 O 0.17965 0.22271 0.20044 0.0
O27 O 0.20631 0.24792 0.23058 0.0
H28 H 0.19773 0.2849 0.17632 0.0
H29 H 0.16695 0.31723 0.15701 0.0
H30 H 0.20916 0.31404 0.07088 0.0
H31 H 0.24036 0.28174 0.09063 0.0
H32 H 0.29655 0.14383 0.12306 0.0
H33 H 0.25761 0.16518 0.14639 0.0
H34 H 0.34484 0.1597 0.20191 0.0
H35 H 0.30507 0.18005 0.22586 0.0
H36 H 0.17467 0.1637 0.29122 0.0
H37 H 0.10593 0.21525 0.29088 0.0
H38 H 0.13155 0.24454 0.25327 0.0
H39 H 0.19986 0.1928 0.25348 0.0
C40 C 0.24417 0.85342 0.63417 0.0
C41 C 0.23373 0.87339 0.65287 0.0
C42 C 0.19962 0.88285 0.61608 0.0
C43 C 0.21162 0.88794 0.64394 0.0
C44 C 0.21015 0.86268 0.5975 0.0
C45 C 0.23224 0.8481 0.6065 0.0
U46 U 0.30198 0.84575 0.6876 0.0
O47 O 0.31792 0.80969 0.70766 0.0
O48 O 0.34616 0.83758 0.68013 0.0
C49 C 0.34304 0.81461 0.6952 0.0
C50 C 0.26797 0.83874 0.64316 0.0
C51 C 0.35546 0.79113 0.68135 0.0
C52 C 0.35203 0.74912 0.65236 0.0
C53 C 0.33979 0.77202 0.66384 0.0
C54 C 0.39575 0.76467 0.67524 0.0
C55 C 0.38008 0.74503 0.65824 0.0
C56 C 0.38352 0.78743 0.6867 0.0
C57 C 0.3115 0.89424 0.75223 0.0
C58 C 0.34729 0.88688 0.78763 0.0
C59 C 0.32321 0.92832 0.79012 0.0
C60 C 0.30733 0.91936 0.7658 0.0
C61 C 0.34352 0.91225 0.80118 0.0
C62 C 0.33148 0.87801 0.76333 0.0
C63 C 0.2958 0.88535 0.72591 0.0
O64 O 0.2925 0.85294 0.64092 0.0
O65 O 0.26407 0.82522 0.66832 0.0
O66 O 0.28179 0.86118 0.72812 0.0
O67 O 0.30996 0.88892 0.70054 0.0
H68 H 0.24279 0.8778 0.67432 0.0
H69 H 0.20384 0.90308 0.65892 0.0
H70 H 0.20171 0.85853 0.57572 0.0
H71 H 0.24021 0.83288 0.59172 0.0
H72 H 0.33935 0.73432 0.63948 0.0
H73 H 0.31807 0.7746 0.65943 0.0
H74 H 0.41754 0.76248 0.67968 0.0
H75 H 0.39596 0.80207 0.70004 0.0
H76 H 0.36247 0.87385 0.79582 0.0
H77 H 0.32005 0.9481 0.7998 0.0
H78 H 0.29209 0.93219 0.75734 0.0
H79 H 0.335 0.85855 0.75301 0.0
C80 C 0.62567 0.37435 0.80872 0.0
C81 C 0.64289 0.3972 0.79854 0.0
C82 C 0.60881 0.40609 0.7613 0.0
C83 C 0.63456 0.41291 0.775 0.0
C84 C 0.59165 0.38318 0.77177 0.0
C85 C 0.60003 0.36749 0.79522 0.0
U86 U 0.6752 0.35999 0.87085 0.0
O87 O 0.66543 0.34405 0.91606 0.0
O88 O 0.69092 0.32142 0.88474 0.0
C89 C 0.67761 0.32146 0.91077 0.0
C90 C 0.63408 0.35745 0.83329 0.0
C91 C 0.66128 0.29575 0.91979 0.0
C92 C 0.63645 0.25182 0.90808 0.0
C93 C 0.65098 0.27643 0.89878 0.0
C94 C 0.64182 0.26566 0.95946 0.0
C95 C 0.63172 0.24605 0.93857 0.0
C96 C 0.65649 0.29017 0.95015 0.0
C97 C 0.73936 0.41051 0.88461 0.0
C98 C 0.78036 0.40102 0.91214 0.0
C99 C 0.77253 0.44772 0.90012 0.0
C100 C 0.74789 0.43849 0.88597 0.0
C101 C 0.78928 0.42911 0.91313 0.0
C102 C 0.75559 0.3918 0.89806 0.0
C103 C 0.7138 0.4014 0.86863 0.0
O104 O 0.65733 0.34547 0.82855 0.0
O105 O 0.63226 0.36835 0.85995 0.0
O106 O 0.69004 0.40196 0.88395 0.0
O107 O 0.71502 0.37926 0.85222 0.0
H108 H 0.66275 0.40286 0.8088 0.0
H109 H 0.64814 0.43056 0.76774 0.0
H110 H 0.57191 0.37708 0.76151 0.0
H111 H 0.5865 0.34988 0.80276 0.0
H112 H 0.62934 0.23712 0.89133 0.0
H113 H 0.65435 0.28022 0.87519 0.0
H114 H 0.63818 0.26223 0.98308 0.0
H115 H 0.66418 0.30481 0.96673 0.0
H116 H 0.79281 0.38609 0.92168 0.0
H117 H 0.77838 0.46951 0.90095 0.0
H118 H 0.73554 0.45324 0.87591 0.0
H119 H 0.74929 0.37008 0.89737 0.0
C120 C 0.7928 0.63509 0.37751 0.0
C121 C 0.78871 0.64577 0.40618 0.0
C122 C 0.74413 0.61799 0.41183 0.0
C123 C 0.76463 0.63719 0.42327 0.0
C124 C 0.74842 0.60741 0.38308 0.0
C125 C 0.77254 0.61587 0.36612 0.0
U126 U 0.85529 0.6863 0.35784 0.0
O127 O 0.89845 0.67934 0.34356 0.0
O128 O 0.872 0.70059 0.31397 0.0
C129 C 0.89583 0.68963 0.31697 0.0
C130 C 0.81781 0.64395 0.35904 0.0
C131 C 0.9046 0.67277 0.2918 0.0
C132 C 0.90222 0.62989 0.2643 0.0
C133 C 0.89335 0.64562 0.28831 0.0
C134 C 0.93336 0.66842 0.2469 0.0
C135 C 0.92246 0.64107 0.24335 0.0
C136 C 0.92453 0.68407 0.2709 0.0
C137 C 0.86755 0.75188 0.40444 0.0
C138 C 0.91135 0.78001 0.4109 0.0
C139 C 0.86705 0.7987 0.4222 0.0
C140 C 0.85273 0.77387 0.41409 0.0
C141 C 0.89653 0.80198 0.42098 0.0
C142 C 0.897 0.75521 0.40256 0.0
C143 C 0.85183 0.72561 0.39725 0.0
O144 O 0.81564 0.66562 0.34254 0.0
O145 O 0.84196 0.64433 0.37223 0.0
O146 O 0.86454 0.70341 0.40204 0.0
O147 O 0.83848 0.72483 0.37214 0.0
H148 H 0.80406 0.66081 0.41528 0.0
H149 H 0.7618 0.64594 0.44519 0.0
H150 H 0.73322 0.59237 0.37376 0.0
H151 H 0.77537 0.60741 0.34404 0.0
H152 H 0.89358 0.60885 0.26245 0.0
H153 H 0.87786 0.63658 0.30424 0.0
H154 H 0.94858 0.67787 0.23096 0.0
H155 H 0.93329 0.70506 0.27315 0.0
H156 H 0.93406 0.78201 0.4094 0.0
H157 H 0.85503 0.81511 0.43016 0.0
H158 H 0.83002 0.7717 0.41573 0.0
H159 H 0.90891 0.73861 0.39493 0.0
C160 C 0.86409 0.78585 0.8771 0.0
C161 C 0.89211 0.79317 0.88389 0.0
C162 C 0.89455 0.74979 0.90905 0.0
C163 C 0.90717 0.77541 0.89984 0.0
C164 C 0.86634 0.74258 0.90241 0.0
C165 C 0.85118 0.76051 0.88668 0.0
U166 U 0.80148 0.82766 0.86556 0.0
O167 O 0.76551 0.80225 0.88521 0.0
O168 O 0.7888 0.83327 0.91232 0.0
C169 C 0.76613 0.81637 0.91017 0.0
C170 C 0.84898 0.80515 0.86023 0.0
C171 C 0.74029 0.82881 0.91843 0.0
C172 C 0.70649 0.84104 0.95638 0.0
C173 C 0.72835 0.82551 0.94715 0.0
C174 C 0.70784 0.86248 0.90785 0.0
C175 C 0.6966 0.86021 0.93703 0.0
C176 C 0.72953 0.84693 0.89864 0.0
C177 C 0.80866 0.87615 0.80157 0.0
C178 C 0.82723 0.91563 0.77284 0.0
C179 C 0.84701 0.87218 0.76567 0.0
C180 C 0.82805 0.86037 0.78705 0.0
C181 C 0.84719 0.90007 0.75873 0.0
C182 C 0.80812 0.90373 0.79409 0.0
C183 C 0.79146 0.86483 0.82685 0.0
O184 O 0.8466 0.82885 0.87331 0.0
O185 O 0.82598 0.79526 0.84725 0.0
O186 O 0.78187 0.839 0.82436 0.0
O187 O 0.80214 0.87086 0.85285 0.0
H188 H 0.90237 0.81272 0.87685 0.0
H189 H 0.92869 0.78182 0.905 0.0
H190 H 0.85609 0.72287 0.90882 0.0
H191 H 0.8295 0.75444 0.88186 0.0
H192 H 0.69829 0.83904 0.97905 0.0
H193 H 0.73668 0.81181 0.96275 0.0
H194 H 0.70036 0.87684 0.89239 0.0
H195 H 0.7387 0.84987 0.87644 0.0
H196 H 0.82704 0.93725 0.76831 0.0
H197 H 0.86179 0.85952 0.7549 0.0
H198 H 0.82907 0.83909 0.79281 0.0
H199 H 0.79358 0.91629 0.80544 0.0
C200 C 0.69099 0.20928 0.30105 0.0
C201 C 0.69825 0.18275 0.29471 0.0
C202 C 0.67249 0.18241 0.24884 0.0
C203 C 0.68903 0.16939 0.26882 0.0
C204 C 0.66589 0.20928 0.25507 0.0
C205 C 0.67504 0.22256 0.28099 0.0
U206 U 0.73511 0.21533 0.37023 0.0
O207 O 0.75512 0.25182 0.39203 0.0
O208 O 0.72259 0.22565 0.41614 0.0
C209 C 0.73793 0.24918 0.41541 0.0
C210 C 0.69936 0.22311 0.32875 0.0
C211 C 0.72238 0.27308 0.4223 0.0
C212 C 0.69349 0.30816 0.4061 0.0
C213 C 0.7095 0.28633 0.39952 0.0
C214 C 0.70278 0.30364 0.45842 0.0
C215 C 0.6898 0.31695 0.43564 0.0
C216 C 0.71901 0.28189 0.45177 0.0
C217 C 0.7886 0.16342 0.38304 0.0
C218 C 0.81494 0.16202 0.42819 0.0
C219 C 0.82586 0.1332 0.38622 0.0
C220 C 0.8047 0.14371 0.37023 0.0
C221 C 0.83125 0.14224 0.41538 0.0
C222 C 0.79382 0.1726 0.41209 0.0
C223 C 0.76672 0.17436 0.36563 0.0
O224 O 0.69254 0.20925 0.35321 0.0
O225 O 0.725 0.23507 0.32855 0.0
O226 O 0.77362 0.19837 0.35347 0.0
O227 O 0.74133 0.17211 0.37789 0.0
H228 H 0.71063 0.17224 0.31001 0.0
H229 H 0.69422 0.14862 0.26488 0.0
H230 H 0.65359 0.22005 0.23994 0.0
H231 H 0.66942 0.24312 0.28553 0.0
H232 H 0.6834 0.3177 0.38814 0.0
H233 H 0.7115 0.27954 0.37665 0.0
H234 H 0.70043 0.31009 0.48136 0.0
H235 H 0.72863 0.27174 0.46964 0.0
H236 H 0.81876 0.16957 0.45049 0.0
H237 H 0.83777 0.11773 0.37589 0.0
H238 H 0.80089 0.13641 0.34782 0.0
H239 H 0.78163 0.18796 0.42224 0.0
C240 C 0.29902 0.64508 0.18056 0.0
C241 C 0.2962 0.65129 0.15042 0.0
C242 C 0.24968 0.62662 0.15091 0.0
C243 C 0.27179 0.64207 0.13571 0.0
C244 C 0.25247 0.62105 0.1813 0.0
C245 C 0.27691 0.63012 0.1959 0.0
U246 U 0.36389 0.69457 0.19407 0.0
O247 O 0.38285 0.70802 0.23617 0.0
O248 O 0.40706 0.68571 0.20342 0.0
C249 C 0.4059 0.69599 0.23043 0.0
C250 C 0.32492 0.65351 0.1963 0.0
C251 C 0.41466 0.67844 0.25424 0.0
C252 C 0.40545 0.64006 0.28814 0.0
C253 C 0.39693 0.6562 0.26507 0.0
C254 C 0.44962 0.66804 0.28951 0.0
C255 C 0.4319 0.64582 0.30071 0.0
C256 C 0.44106 0.68417 0.26652 0.0
C257 C 0.37648 0.76029 0.14726 0.0
C258 C 0.42019 0.78708 0.13387 0.0
C259 C 0.3764 0.80832 0.13429 0.0
C260 C 0.362 0.78351 0.14298 0.0
C261 C 0.4057 0.81045 0.12947 0.0
C262 C 0.40576 0.76229 0.14276 0.0
C263 C 0.36046 0.73427 0.15578 0.0
O264 O 0.34852 0.65299 0.18063 0.0
O265 O 0.32411 0.67533 0.21324 0.0
O266 O 0.34806 0.73381 0.18228 0.0
O267 O 0.37219 0.71164 0.14925 0.0
H268 H 0.31298 0.66294 0.13816 0.0
H269 H 0.27053 0.64655 0.11228 0.0
H270 H 0.23571 0.60971 0.19389 0.0
H271 H 0.27861 0.6253 0.21922 0.0
H272 H 0.39141 0.62294 0.29599 0.0
H273 H 0.37649 0.6514 0.25574 0.0
H274 H 0.46994 0.67332 0.2989 0.0
H275 H 0.45499 0.7013 0.25848 0.0
H276 H 0.44268 0.7878 0.13005 0.0
H277 H 0.36456 0.82592 0.13168 0.0
H278 H 0.33942 0.78245 0.14639 0.0
H279 H 0.41749 0.74469 0.14592 0.0
C280 C 0.13846 0.29346 0.68935 0.0
C281 C 0.15824 0.27732 0.67601 0.0
C282 C 0.12068 0.245 0.65863 0.0
C283 C 0.14942 0.25322 0.66094 0.0
C284 C 0.10098 0.2614 0.67177 0.0
C285 C 0.10981 0.28535 0.68704 0.0
U286 U 0.18869 0.35726 0.7001 0.0
O287 O 0.18006 0.39935 0.71186 0.0
O288 O 0.20551 0.37635 0.74087 0.0
C289 C 0.19302 0.39883 0.73716 0.0
C290 C 0.14722 0.31883 0.70552 0.0
C291 C 0.17772 0.40856 0.7634 0.0
C292 C 0.1409 0.40253 0.80186 0.0
C293 C 0.1548 0.39283 0.77658 0.0
C294 C 0.17266 0.44375 0.80078 0.0
C295 C 0.14978 0.42809 0.81435 0.0
C296 C 0.18648 0.43404 0.7756 0.0
C297 C 0.25203 0.37087 0.64639 0.0
C298 C 0.27792 0.41477 0.63573 0.0
C299 C 0.29881 0.37275 0.62361 0.0
C300 C 0.27475 0.35762 0.63482 0.0
C301 C 0.3006 0.40153 0.62355 0.0
C302 C 0.25389 0.39958 0.64713 0.0
C303 C 0.22655 0.3543 0.65702 0.0
O304 O 0.17053 0.31876 0.72022 0.0
O305 O 0.14528 0.34163 0.69085 0.0
O306 O 0.20264 0.36507 0.65371 0.0
O307 O 0.22822 0.34236 0.6829 0.0
H308 H 0.18048 0.28333 0.67723 0.0
H309 H 0.16509 0.2412 0.65076 0.0
H310 H 0.07871 0.25549 0.67062 0.0
H311 H 0.09423 0.29754 0.69713 0.0
H312 H 0.12349 0.38989 0.81185 0.0
H313 H 0.14779 0.37305 0.7674 0.0
H314 H 0.17973 0.46372 0.80941 0.0
H315 H 0.20407 0.4465 0.76562 0.0
H316 H 0.27843 0.43686 0.63584 0.0
H317 H 0.31605 0.36183 0.61503 0.0
H318 H 0.27381 0.33549 0.63426 0.0
H319 H 0.23665 0.41028 0.65614 0.0
Dy320 Dy 0.02988 0.03306 0.49986 0.0
C321 C 0.98446 0.99351 0.61157 0.0
C322 C 0.04613 0.06041 0.44883 0.0
Dy323 Dy 1.00499 1.01703 0.5597 0.0
O324 O 0.05947 0.04151 0.46067 0.0
O325 O 0.02369 0.06419 0.46468 0.0
O326 O 0.05627 0.99786 0.49992 0.0
O327 O 0.04736 1.01759 0.54049 0.0
C328 C 0.05854 0.99764 0.5286 0.0
C329 C 0.97541 0.05075 0.5288 0.0
O330 O 0.03737 0.0493 0.5743 0.0
O331 O 0.04231 0.06997 0.52826 0.0
O332 O 0.98137 1.01827 0.60335 0.0
O333 O 0.99932 0.98151 0.59161 0.0
O334 O 0.97717 0.0516 0.55743 0.0
O335 O 0.9876 0.03091 0.51864 0.0
O336 O 1.00072 0.99789 0.48508 0.0
O337 O 0.99249 0.97961 0.53228 0.0
C338 C 0.0459 0.07055 0.55738 0.0
C339 C 0.9909 0.97762 0.50292 0.0
Dy340 Dy 0.54208 0.03753 0.05585 0.0
C341 C 0.46669 0.98956 0.9645 0.0
C342 C 0.57954 0.0709 0.08626 0.0
Dy343 Dy 0.49913 1.01622 1.0059 0.0
O344 O 0.57935 0.04439 0.08494 0.0
O345 O 0.55946 0.07913 0.07067 0.0
O346 O 0.52906 1.00457 0.09022 0.0
O347 O 0.51006 1.00512 0.04971 0.0
C348 C 0.51028 0.99199 0.0735 0.0
C349 C 0.52582 0.06627 0.99844 0.0
O350 O 0.4701 0.03412 0.03874 0.0
O351 O 0.50387 0.05965 0.06628 0.0
O352 O 0.49093 1.0029 0.95905 0.0
O353 O 0.46015 0.99056 0.99277 0.0
O354 O 0.50079 0.05935 0.98913 0.0
O355 O 0.53603 0.04569 1.00893 0.0
O356 O 0.56918 1.01342 1.0264 0.0
O357 O 0.53343 0.98805 1.00155 0.0
C358 C 0.47747 0.05294 0.059 0.0
C359 C 0.56001 0.99266 1.0092 0.0
Dy360 Dy 0.53163 0.50304 0.51194 0.0
C361 C 0.48132 0.58747 0.57711 0.0
C362 C 0.56341 0.46556 0.48557 0.0
Dy363 Dy 0.51192 0.54973 0.5494 0.0
O364 O 0.53709 0.46112 0.49334 0.0
O365 O 0.57224 0.49065 0.49167 0.0
O366 O 0.4872 0.48633 0.5067 0.0
O367 O 0.49885 0.50613 0.54667 0.0
C368 C 0.4785 0.49519 0.53235 0.0
C369 C 0.56457 0.55811 0.5267 0.0
O370 O 0.52375 0.52296 0.58618 0.0
O371 O 0.55128 0.49694 0.55616 0.0
O372 O 0.5083 0.58686 0.57833 0.0
O373 O 0.47095 0.56725 0.561 0.0
O374 O 0.55664 0.56828 0.55197 0.0
O375 O 0.54367 0.54647 0.51421 0.0
O376 O 0.51739 0.528 0.47474 0.0
O377 O 0.49298 0.55692 0.50499 0.0
C378 C 0.54276 0.50501 0.58289 0.0
C379 C 0.49974 0.54727 0.47828 0.0
Dy380 Dy 0.02796 0.49852 0.03848 0.0
C381 C 0.99738 0.60137 0.99703 0.0
C382 C 0.05268 0.45168 0.04845 0.0
Dy383 Dy 0.01774 0.55397 1.01397 0.0
O384 O 0.03489 0.46212 0.06666 0.0
O385 O 0.05656 0.46658 1.02474 0.0
O386 O 0.99405 0.5019 0.07365 0.0
O387 O 0.0181 0.53721 0.05845 0.0
C388 C 0.99735 0.52848 0.0747 0.0
C389 C 0.04946 0.52404 0.97905 0.0
O390 O 0.05504 0.56759 0.04049 0.0
O391 O 0.06851 0.5239 0.0477 0.0
O392 O 1.01262 0.58649 0.9804 0.0
O393 O 0.99336 0.59054 1.02326 0.0
O394 O 0.05361 0.55043 0.98142 0.0
O395 O 0.02783 0.5153 0.99399 0.0
O396 O 0.98957 0.48544 1.01344 0.0
O397 O 0.97641 0.52936 1.00701 0.0
C398 C 0.07355 0.55092 0.04911 0.0
C399 C 0.97104 0.50239 1.00555 0.0
H400 H 0.13207 0.13149 0.29075 0.0
H401 H 0.10771 0.19976 0.34356 0.0
H402 H 0.10712 0.09984 0.32593 0.0
H403 H 0.08285 0.16804 0.37899 0.0
H404 H 0.0226 0.10347 0.42476 0.0
H405 H 0.04259 0.13374 0.38507 0.0
H406 H 0.11392 0.08567 0.37664 0.0
H407 H 0.0937 0.05531 0.41578 0.0
C408 C 0.12149 0.13971 0.30999 0.0
C409 C 0.12209 0.16807 0.31463 0.0
C410 C 0.10717 0.12159 0.33009 0.0
C411 C 0.09317 0.13144 0.35531 0.0
C412 C 0.09316 0.15984 0.35957 0.0
C413 C 0.10745 0.17799 0.33937 0.0
C414 C 0.04237 0.09927 0.41409 0.0
C415 C 0.05669 0.07716 0.42325 0.0
C416 C 0.05389 0.11666 0.39157 0.0
C417 C 0.07987 0.11214 0.37782 0.0
C418 C 0.09371 0.08951 0.38653 0.0
C419 C 0.08222 0.07219 0.40902 0.0
H420 H 0.32767 0.93882 0.85193 0.0
H421 H 0.39967 0.90829 0.80686 0.0
H422 H 0.35744 0.95651 0.89198 0.0
H423 H 0.4291 0.92488 0.8474 0.0
H424 H 0.47814 0.98802 0.90515 0.0
H425 H 0.44804 0.9685 0.86642 0.0
H426 H 0.38479 0.94189 0.93316 0.0
H427 H 0.41488 0.96205 0.97197 0.0
C428 C 0.34982 0.93582 0.85061 0.0
C429 C 0.36129 0.9222 0.82616 0.0
C430 C 0.3668 0.94565 0.87373 0.0
C431 C 0.39565 0.94212 0.87287 0.0
C432 C 0.40703 0.92821 0.84859 0.0
C433 C 0.39008 0.91841 0.82551 0.0
C434 C 0.45785 0.97789 0.91155 0.0
C435 C 0.44879 0.97652 0.9415 0.0
C436 C 0.44066 0.96657 0.88938 0.0
C437 C 0.41402 0.95359 0.8967 0.0
C438 C 0.40506 0.95203 0.92678 0.0
C439 C 0.42232 0.96338 0.949 0.0
H440 H 0.6411 0.42776 0.7143 0.0
H441 H 0.55634 0.4216 0.75095 0.0
H442 H 0.62621 0.45348 0.67222 0.0
H443 H 0.54126 0.44645 0.70838 0.0
H444 H 0.5282 0.51337 0.64152 0.0
H445 H 0.54505 0.49124 0.68513 0.0
H446 H 0.5984 0.44533 0.62837 0.0
H447 H 0.58201 0.46774 0.58488 0.0
C448 C 0.61932 0.43202 0.71349 0.0
C449 C 0.59992 0.42252 0.73601 0.0
C450 C 0.61071 0.44652 0.68917 0.0
C451 C 0.58249 0.45197 0.68679 0.0
C452 C 0.5632 0.44286 0.70958 0.0
C453 C 0.57179 0.42831 0.73384 0.0
C454 C 0.54364 0.49867 0.63833 0.0
C455 C 0.55368 0.49234 0.60962 0.0
C456 C 0.55318 0.48585 0.66335 0.0
C457 C 0.57305 0.46643 0.66031 0.0
C458 C 0.58337 0.46042 0.63162 0.0
C459 C 0.5738 0.47318 0.60662 0.0
H460 H 0.89159 0.6039 0.2089 0.0
H461 H 0.97604 0.64016 0.2205 0.0
H462 H 0.90818 0.57693 0.16718 0.0
H463 H 0.99249 0.61345 0.1788 0.0
H464 H 1.00847 0.58298 0.08506 0.0
H465 H 0.98914 0.61028 0.12489 0.0
H466 H 0.9375 0.53913 0.15644 0.0
H467 H 0.95658 0.51191 0.11617 0.0
C468 C 0.9137 0.60599 0.20272 0.0
C469 C 0.93244 0.62433 0.21803 0.0
C470 C 0.9232 0.59056 0.17876 0.0
C471 C 0.95163 0.59315 0.1695 0.0
C472 C 0.97036 0.61135 0.18494 0.0
C473 C 0.9609 0.62669 0.20889 0.0
C474 C 0.99281 0.57323 0.10035 0.0
C475 C 0.98412 0.54529 0.09761 0.0
C476 C 0.98188 0.58882 0.12331 0.0
C477 C 0.96195 0.57685 0.14405 0.0
C478 C 0.95267 0.54904 0.14075 0.0
C479 C 0.96367 0.53341 0.11777 0.0
H480 H 0.34231 0.15384 0.10232 0.0
H481 H 0.35917 0.11646 0.18598 0.0
H482 H 0.37946 0.13013 0.078 0.0
H483 H 0.39695 0.09351 0.16166 0.0
H484 H 0.48117 0.08262 0.11045 0.0
H485 H 0.44453 0.10674 0.13536 0.0
H486 H 0.38702 0.07998 0.06694 0.0
H487 H 0.42353 0.05575 0.04196 0.0
C488 C 0.35384 0.14053 0.11552 0.0
C489 C 0.3476 0.13693 0.14609 0.0
C490 C 0.37516 0.12704 0.10158 0.0
C491 C 0.39092 0.10996 0.11797 0.0
C492 C 0.38521 0.10678 0.1486 0.0
C493 C 0.36366 0.12002 0.16251 0.0
C494 C 0.46073 0.08188 0.10069 0.0
C495 C 0.45524 0.0673 0.07422 0.0
C496 C 0.43976 0.09557 0.11505 0.0
C497 C 0.41305 0.09522 0.103 0.0
C498 C 0.40755 0.08073 0.07652 0.0
C499 C 0.4284 0.06674 0.06236 0.0
H500 H 0.15274 0.86438 0.58605 0.0
H501 H 0.19444 0.93766 0.62355 0.0
H502 H 0.11645 0.89111 0.56738 0.0
H503 H 0.15799 0.9643 0.60508 0.0
H504 H 0.0751 1.00046 0.58642 0.0
H505 H 0.10731 0.97166 0.61017 0.0
H506 H 0.11471 0.92572 0.52853 0.0
H507 H 0.08255 0.95417 0.5051 0.0
C508 C 0.1542 0.88618 0.59029 0.0
C509 C 0.17664 0.89888 0.60613 0.0
C510 C 0.13336 0.90148 0.57966 0.0
C511 C 0.1344 0.92984 0.58467 0.0
C512 C 0.15639 0.94244 0.60119 0.0
C513 C 0.17729 0.92714 0.61176 0.0
C514 C 0.0835 0.98406 0.57373 0.0
C515 C 0.07651 0.9796 0.54391 0.0
C516 C 0.102 0.96768 0.58723 0.0
C517 C 0.11357 0.94642 0.57121 0.0
C518 C 0.10592 0.94168 0.54161 0.0
C519 C 0.08765 0.9581 0.52812 0.0
H520 H 0.82799 0.47002 0.8938 0.0
H521 H 0.8116 0.41069 0.96417 0.0
H522 H 0.87125 0.48718 0.91706 0.0
H523 H 0.85526 0.42773 0.98726 0.0
H524 H 0.95084 0.44852 1.00033 0.0
H525 H 0.90695 0.43028 0.97854 0.0
H526 H 0.8858 0.51246 0.96204 0.0
H527 H 0.92959 0.53071 0.98343 0.0
C528 C 0.83345 0.46076 0.91438 0.0
C529 C 0.8161 0.43908 0.92719 0.0
C530 C 0.85833 0.4706 0.9277 0.0
C531 C 0.86664 0.45895 0.95412 0.0
C532 C 0.84958 0.43699 0.96676 0.0
C533 C 0.82456 0.4272 0.95349 0.0
C534 C 0.9368 0.46271 0.99215 0.0
C535 C 0.94388 0.4911 0.99354 0.0
C536 C 0.91157 0.45224 0.97979 0.0
C537 C 0.89295 0.46991 0.96839 0.0
C538 C 0.89987 0.49827 0.9702 0.0
C539 C 0.92495 0.50873 0.98266 0.0
H540 H 0.69036 0.61164 0.39279 0.0
H541 H 0.73924 0.60458 0.471 0.0
H542 H 0.64784 0.59665 0.42132 0.0
H543 H 0.69664 0.58913 0.49961 0.0
H544 H 0.60974 0.58966 0.54747 0.0
H545 H 0.65352 0.60415 0.52034 0.0
H546 H 0.62476 0.55681 0.44419 0.0
H547 H 0.5808 0.54331 0.47089 0.0
C548 C 0.69205 0.60661 0.41605 0.0
C549 C 0.71821 0.60918 0.42958 0.0
C550 C 0.66766 0.59794 0.43243 0.0
C551 C 0.66877 0.59144 0.46277 0.0
C552 C 0.69493 0.59424 0.47639 0.0
C553 C 0.71936 0.60307 0.46 0.0
C554 C 0.61291 0.58231 0.52497 0.0
C555 C 0.59187 0.56541 0.51127 0.0
C556 C 0.63804 0.59048 0.50946 0.0
C557 C 0.64266 0.58182 0.47995 0.0
C558 C 0.62177 0.56433 0.46664 0.0
C559 C 0.59665 0.55633 0.48206 0.0
H560 H 0.19578 0.36243 0.0762 0.0
H561 H 0.12875 0.31254 0.12103 0.0
H562 H 0.16183 0.39256 0.05862 0.0
H563 H 0.09482 0.34238 0.10327 0.0
H564 H 0.05132 0.42267 0.09986 0.0
H565 H 0.08274 0.38851 0.11336 0.0
H566 H 0.12255 0.39489 1.0258 0.0
H567 H 0.09148 0.42952 1.01261 0.0
C568 C 0.17376 0.35774 0.08195 0.0
C569 C 0.16492 0.33537 0.10023 0.0
C570 C 0.1543 0.37491 0.07183 0.0
C571 C 0.12564 0.36991 0.0797 0.0
C572 C 0.11679 0.34706 0.09729 0.0
C573 C 0.13622 0.32999 0.10746 0.0
C574 C 0.06655 0.41646 0.08342 0.0
C575 C 0.06911 0.42871 0.05529 0.0
C576 C 0.08448 0.39686 0.09108 0.0
C577 C 0.10525 0.38912 0.07068 0.0
C578 C 0.10707 0.40074 0.04214 0.0
C579 C 0.08916 0.42038 0.03451 0.0
H580 H 0.64198 0.21439 0.98665 0.0
H581 H 0.58644 0.21795 0.91313 0.0
H582 H 0.61615 0.17202 1.00337 0.0
H583 H 0.56176 0.17486 0.92878 0.0
H584 H 0.50477 0.11216 0.97877 0.0
H585 H 0.53016 0.15586 0.9661 0.0
H586 H 0.60761 0.12458 0.99156 0.0
H587 H 0.58178 0.08104 1.00523 0.0
C588 C 0.62425 0.2062 0.97403 0.0
C589 C 0.6163 0.21977 0.94854 0.0
C590 C 0.60965 0.18165 0.98343 0.0
C591 C 0.58677 0.16993 0.96752 0.0
C592 C 0.57896 0.18342 0.94193 0.0
C593 C 0.59344 0.20802 0.93265 0.0
C594 C 0.5272 0.11471 0.98184 0.0
C595 C 0.54134 0.09317 0.99278 0.0
C596 C 0.54183 0.13971 0.97435 0.0
C597 C 0.57107 0.14375 0.97736 0.0
C598 C 0.5851 0.12234 0.98912 0.0
C599 C 0.57036 0.09733 0.99684 0.0
H600 H 0.88504 0.8544 0.4088 0.0
H601 H 0.94211 0.80827 0.4563 0.0
H602 H 0.90835 0.89696 0.42781 0.0
H603 H 0.96569 0.8508 0.47486 0.0
H604 H 0.97551 0.92936 0.53133 0.0
H605 H 0.95366 0.88724 0.5103 0.0
H606 H 0.95416 0.92556 0.4241 0.0
H607 H 0.97598 0.96792 0.44515 0.0
C608 C 0.90262 0.85337 0.42322 0.0
C609 C 0.91168 0.82796 0.43111 0.0
C610 C 0.91612 0.87774 0.43389 0.0
C611 C 0.9388 0.87724 0.45292 0.0
C612 C 0.94809 0.85185 0.46048 0.0
C613 C 0.93476 0.82751 0.44961 0.0
C614 C 0.97096 0.92889 0.50789 0.0
C615 C 0.97749 0.95208 0.48994 0.0
C616 C 0.95861 0.90465 0.4958 0.0
C617 C 0.95226 0.90303 0.46552 0.0
C618 C 0.95862 0.92623 0.44756 0.0
C619 C 0.97124 0.95046 0.45961 0.0
H620 H 0.37478 0.7202 0.60362 0.0
H621 H 0.41471 0.71382 0.68782 0.0
H622 H 0.39798 0.68083 0.58496 0.0
H623 H 0.43797 0.67473 0.66911 0.0
H624 H 0.50092 0.62975 0.61204 0.0
H625 H 0.47515 0.66682 0.63211 0.0
H626 H 0.39966 0.63095 0.59213 0.0
H627 H 0.42566 0.59392 0.57177 0.0
C628 C 0.38824 0.71023 0.61825 0.0
C629 C 0.39308 0.72033 0.64711 0.0
C630 C 0.40153 0.68768 0.60756 0.0
C631 C 0.41997 0.67479 0.6255 0.0
C632 C 0.4243 0.68452 0.65456 0.0
C633 C 0.41099 0.70697 0.66525 0.0
C634 C 0.47878 0.62972 0.60771 0.0
C635 C 0.46525 0.60901 0.59041 0.0
C636 C 0.46399 0.65087 0.6193 0.0
C637 C 0.43535 0.65181 0.61373 0.0
C638 C 0.42177 0.63092 0.59656 0.0
C639 C 0.43657 0.60966 0.58508 0.0
H640 H 0.84054 0.93867 0.7165 0.0
H641 H 0.90283 0.89112 0.75364 0.0
H642 H 0.87644 0.96136 0.68344 0.0
H643 H 0.93859 0.9135 0.72001 0.0
H644 H 0.98215 0.93968 0.6274 0.0
H645 H 0.95004 0.91649 0.66454 0.0
H646 H 0.91931 0.9939 0.68915 0.0
H647 H 0.95114 1.01693 0.65214 0.0
C648 C 0.86189 0.93314 0.71772 0.0
C649 C 0.8688 0.91313 0.73776 0.0
C650 C 0.88244 0.94613 0.69879 0.0
C651 C 0.91031 0.93929 0.69936 0.0
C652 C 0.91721 0.919 0.719 0.0
C653 C 0.89669 0.90614 0.73813 0.0
C654 C 0.96888 0.95171 0.64119 0.0
C655 C 0.96889 0.98 0.63685 0.0
C656 C 0.95055 0.93849 0.66238 0.0
C657 C 0.93193 0.95339 0.67934 0.0
C658 C 0.93307 0.98187 0.67597 0.0
C659 C 0.95142 0.99505 0.65496 0.0
H660 H 0.62012 0.18296 0.22659 0.0
H661 H 0.69924 0.14828 0.21108 0.0
H662 H 0.60082 0.15764 0.18427 0.0
H663 H 0.67972 0.12266 0.16869 0.0
H664 H 0.61911 0.05578 0.12359 0.0
H665 H 0.644 0.08426 0.16066 0.0
H666 H 0.60488 0.15458 0.12993 0.0
H667 H 0.5797 0.12596 0.09319 0.0
C668 C 0.63356 0.17027 0.21386 0.0
C669 C 0.66125 0.1677 0.22222 0.0
C670 C 0.62248 0.15575 0.18956 0.0
C671 C 0.63878 0.13822 0.17306 0.0
C672 C 0.66657 0.13582 0.18116 0.0
C673 C 0.67771 0.15044 0.20547 0.0
C674 C 0.61619 0.07741 0.12451 0.0
C675 C 0.59735 0.08867 0.10576 0.0
C676 C 0.63051 0.09374 0.14564 0.0
C677 C 0.6262 0.12162 0.14841 0.0
C678 C 0.60828 0.13307 0.12866 0.0
C679 C 0.59401 0.11675 0.10753 0.0
H680 H 0.48376 0.62794 0.30913 0.0
H681 H 0.4004 0.626 0.34907 0.0
H682 H 0.49914 0.60293 0.35146 0.0
H683 H 0.41554 0.60015 0.39092 0.0
H684 H 0.46223 0.58621 0.47672 0.0
H685 H 0.44528 0.60829 0.43335 0.0
H686 H 0.49412 0.55854 0.37592 0.0
H687 H 0.51156 0.53668 0.41942 0.0
C688 C 0.46868 0.6221 0.32689 0.0
C689 C 0.44087 0.62914 0.32574 0.0
C690 C 0.47742 0.60747 0.35102 0.0
C691 C 0.45861 0.59955 0.37467 0.0
C692 C 0.43068 0.60619 0.37327 0.0
C693 C 0.42191 0.62075 0.3491 0.0
C694 C 0.46933 0.57984 0.45488 0.0
C695 C 0.48838 0.55969 0.45165 0.0
C696 C 0.45943 0.59242 0.42995 0.0
C697 C 0.46832 0.58523 0.4011 0.0
C698 C 0.48709 0.56481 0.39782 0.0
C699 C 0.49696 0.55216 0.42279 0.0
H700 H 0.17342 0.45503 0.862 0.0
H701 H 0.0932 0.42526 0.82754 0.0
H702 H 0.14971 0.47591 0.90386 0.0
H703 H 0.06947 0.44603 0.86967 0.0
H704 H 0.03692 0.47071 0.96245 0.0
H705 H 0.06158 0.44479 0.92469 0.0
H706 H 0.12118 0.5149 0.90937 0.0
H707 H 0.09678 0.54051 0.9471 0.0
C708 C 0.15071 0.45294 0.86333 0.0
C709 C 0.13522 0.43875 0.84117 0.0
C710 C 0.13713 0.46487 0.88738 0.0
C711 C 0.1077 0.46285 0.88997 0.0
C712 C 0.09218 0.44776 0.86846 0.0
C713 C 0.10579 0.43586 0.84431 0.0
C714 C 0.05543 0.48042 0.95113 0.0
C715 C 0.06493 0.50762 0.95761 0.0
C716 C 0.06944 0.46566 0.92943 0.0
C717 C 0.09334 0.47778 0.91402 0.0
C718 C 0.10306 0.50482 0.92106 0.0
C719 C 0.08899 0.51957 0.94255 0.0
H720 H 0.64784 0.84825 0.96957 0.0
H721 H 0.69964 0.9152 0.92897 0.0
H722 H 0.6147 0.88035 0.98766 0.0
H723 H 0.66646 0.94708 0.9466 0.0
H724 H 0.61721 0.99805 1.01239 0.0
H725 H 0.65007 0.96549 0.99555 0.0
H726 H 0.58112 0.91085 0.96535 0.0
H727 H 0.54818 0.94319 0.98226 0.0
C728 C 0.65209 0.86979 0.96454 0.0
C729 C 0.67616 0.87924 0.94774 0.0
C730 C 0.6331 0.88809 0.97469 0.0
C731 C 0.63807 0.91617 0.96851 0.0
C732 C 0.66224 0.92558 0.95189 0.0
C733 C 0.68104 0.9073 0.94154 0.0
C734 C 0.60903 0.97911 1.00216 0.0
C735 C 0.58008 0.97327 0.99859 0.0
C736 C 0.62786 0.96053 0.99243 0.0
C737 C 0.61809 0.93567 0.97919 0.0
C738 C 0.58917 0.92975 0.97576 0.0
C739 C 0.57036 0.9484 0.98524 0.0
H740 H 0.88397 0.13237 0.39543 0.0
H741 H 0.82915 0.12624 0.47363 0.0
H742 H 0.92018 0.1121 0.42268 0.0
H743 H 0.86525 0.10576 0.50085 0.0
H744 H 0.94463 0.09147 0.54906 0.0
H745 H 0.91105 0.1155 0.52168 0.0
H746 H 0.92901 0.06833 0.44304 0.0
H747 H 0.96298 0.0448 0.47031 0.0
C748 C 0.87962 0.12657 0.41841 0.0
C749 C 0.85366 0.13083 0.43234 0.0
C750 C 0.90036 0.11494 0.43403 0.0
C751 C 0.89562 0.10722 0.46393 0.0
C752 C 0.86978 0.11184 0.47798 0.0
C753 C 0.84906 0.12355 0.46238 0.0
C754 C 0.94149 0.08641 0.52587 0.0
C755 C 0.95628 0.06624 0.51181 0.0
C756 C 0.92214 0.10004 0.51023 0.0
C757 C 0.9172 0.09375 0.4802 0.0
C758 C 0.93251 0.07391 0.46603 0.0
C759 C 0.95188 0.06032 0.48167 0.0
H760 H 0.21972 0.57682 0.15787 0.0
H761 H 0.22154 0.65196 0.10801 0.0
H762 H 0.17753 0.55941 0.13294 0.0
H763 H 0.18009 0.63388 0.0818 0.0
H764 H 0.08805 0.60414 0.06506 0.0
H765 H 0.13061 0.62261 0.08902 0.0
H766 H 0.16192 0.54266 0.08604 0.0
H767 H 0.1191 0.52407 0.06293 0.0
C768 C 0.21112 0.58969 0.14161 0.0
C769 C 0.22405 0.6159 0.13512 0.0
C770 C 0.1871 0.5795 0.12694 0.0
C771 C 0.17539 0.59515 0.10519 0.0
C772 C 0.18833 0.62134 0.09861 0.0
C773 C 0.21234 0.6316 0.1134 0.0
C774 C 0.10407 0.59052 0.0694 0.0
C775 C 0.10005 0.56257 0.06221 0.0
C776 C 0.12857 0.60115 0.08304 0.0
C777 C 0.14972 0.58413 0.08966 0.0
C778 C 0.14589 0.5563 0.08185 0.0
C779 C 0.12135 0.54564 0.0684 0.0
H780 H 0.33097 0.38938 0.57344 0.0
H781 H 0.32726 0.45 0.64314 0.0
H782 H 0.37276 0.41426 0.55222 0.0
H783 H 0.36838 0.47589 0.62077 0.0
H784 H 0.46205 0.49532 0.59122 0.0
H785 H 0.41808 0.47448 0.61337 0.0
H786 H 0.38826 0.45432 0.52553 0.0
H787 H 0.43254 0.47415 0.5037 0.0
C788 C 0.33905 0.40805 0.58428 0.0
C789 C 0.32577 0.41751 0.61018 0.0
C790 C 0.36284 0.42262 0.57178 0.0
C791 C 0.37395 0.44726 0.58461 0.0
C792 C 0.36058 0.45689 0.61041 0.0
C793 C 0.33678 0.44219 0.62305 0.0
C794 C 0.44592 0.48665 0.57672 0.0
C795 C 0.45078 0.486 0.54579 0.0
C796 C 0.42066 0.4748 0.58937 0.0
C797 C 0.3997 0.4623 0.57129 0.0
C798 C 0.40417 0.46306 0.54022 0.0
C799 C 0.42946 0.47462 0.52766 0.0
H800 H 0.8773 0.71548 0.95523 0.0
H801 H 0.94924 0.74002 0.89806 0.0
H802 H 0.90362 0.68129 0.97816 0.0
H803 H 0.97601 0.70718 0.92224 0.0
H804 H 1.00035 0.62137 0.94109 0.0
H805 H 0.97645 0.65885 0.92182 0.0
H806 H 0.94198 0.67376 1.00983 0.0
H807 H 0.96534 0.6353 0.02892 0.0
C808 C 0.89877 0.71373 0.9477 0.0
C809 C 0.91107 0.73035 0.92464 0.0
C810 C 0.914 0.69441 0.96116 0.0
C811 C 0.94189 0.69143 0.95194 0.0
C812 C 0.95444 0.70867 0.92956 0.0
C813 C 0.93917 0.72777 0.91595 0.0
C814 C 0.98785 0.6328 0.95636 0.0
C815 C 0.9846 0.62551 0.98644 0.0
C816 C 0.97428 0.65441 0.94538 0.0
C817 C 0.95735 0.66938 0.9643 0.0
C818 C 0.9546 0.66242 0.99462 0.0
C819 C 0.96809 0.64058 1.00559 0.0
H820 H 0.45723 0.83253 0.147 0.0
H821 H 0.389 0.84864 0.0908 0.0
H822 H 0.48211 0.8758 0.13217 0.0
H823 H 0.4132 0.89273 0.07731 0.0
H824 H 0.47769 0.95858 0.03703 0.0
H825 H 0.45249 0.91442 0.04962 0.0
H826 H 0.48017 0.92337 0.14 0.0
H827 H 0.50585 0.96685 0.12703 0.0
C828 C 0.44752 0.84523 0.13142 0.0
C829 C 0.42103 0.83697 0.12018 0.0
C830 C 0.46164 0.87032 0.12322 0.0
C831 C 0.44961 0.88799 0.1037 0.0
C832 C 0.42325 0.87963 0.0922 0.0
C833 C 0.40917 0.85444 0.10028 0.0
C834 C 0.47815 0.95108 0.05958 0.0
C835 C 0.49367 0.96607 0.08106 0.0
C836 C 0.46369 0.92582 0.06686 0.0
C837 C 0.4644 0.91514 0.09583 0.0
C838 C 0.47959 0.93057 0.11734 0.0
C839 C 0.49414 0.95564 0.10999 0.0
H840 H 0.1413 0.19489 0.66243 0.0
H841 H 0.07863 0.23719 0.61891 0.0
H842 H 0.12504 0.15256 0.63702 0.0
H843 H 0.06211 0.19483 0.59387 0.0
H844 H 0.05879 0.12064 0.53169 0.0
H845 H 0.07826 0.16263 0.55532 0.0
H846 H 0.08231 0.11956 0.63828 0.0
H847 H 0.06295 0.07748 0.6147 0.0
C848 C 0.12417 0.19518 0.6473 0.0
C849 C 0.11122 0.21937 0.64271 0.0
C850 C 0.11471 0.17089 0.63295 0.0
C851 C 0.09228 0.17034 0.61345 0.0
C852 C 0.0796 0.19463 0.60856 0.0
C853 C 0.08887 0.21883 0.62311 0.0
C854 C 0.06402 0.12003 0.55491 0.0
C855 C 0.05924 0.09567 0.5713 0.0
C856 C 0.07501 0.14416 0.56849 0.0
C857 C 0.08172 0.14444 0.59869 0.0
C858 C 0.07756 0.11995 0.61491 0.0
C859 C 0.06633 0.09587 0.60141 0.0
H860 H 0.68887 0.36563 0.40659 0.0
H861 H 0.64989 0.3189 0.48016 0.0
H862 H 0.65782 0.40176 0.41672 0.0
H863 H 0.61922 0.35524 0.49062 0.0
H864 H 0.5488 0.41108 0.47953 0.0
H865 H 0.57959 0.37534 0.46667 0.0
H866 H 0.64959 0.43653 0.45594 0.0
H867 H 0.61871 0.47229 0.46868 0.0
C868 C 0.67368 0.36311 0.42493 0.0
C869 C 0.6718 0.33943 0.44257 0.0
C870 C 0.65606 0.38387 0.43085 0.0
C871 C 0.63601 0.38127 0.45437 0.0
C872 C 0.63424 0.35767 0.47211 0.0
C873 C 0.65201 0.33701 0.46635 0.0
C874 C 0.57071 0.41688 0.47412 0.0
C875 C 0.58143 0.44439 0.4751 0.0
C876 C 0.58836 0.39643 0.467 0.0
C877 C 0.61704 0.40312 0.46053 0.0
C878 C 0.62756 0.43077 0.46064 0.0
C879 C 0.60992 0.45121 0.46798 0.0
loop_
_geom_bond_atom_site_label_1
_geom_bond_atom_site_label_2
_geom_bond_distance
_geom_bond_site_symmetry_2
_ccdc_geom_bond_type
C0 C1 1.264 . S
C0 C5 1.479 . S
C0 C10 1.465 . S
C1 C0 1.264 . S
C1 C3 1.339 . S
C1 H28 0.931 . S
C2 C3 1.395 . S
C2 C4 1.320 . S
C3 C1 1.339 . S
C3 C2 1.395 . S
C3 H29 0.929 . S
C4 C2 1.320 . S
C4 C5 1.405 . S
C4 H30 0.930 . S
C5 C0 1.479 . S
C5 C4 1.405 . S
C5 H31 0.931 . S
U6 O7 2.454 . S
U6 O8 2.458 . S
U6 C9 2.984 . S
U6 C10 2.847 . S
U6 C23 2.882 . S
U6 O24 2.441 . S
U6 O25 2.420 . S
U6 O26 2.455 . S
U6 O27 2.449 . S
O7 U6 2.454 . S
O7 C9 1.353 . S
O8 U6 2.458 . S
O8 C9 1.286 . S
C9 U6 2.984 . S
C9 O7 1.353 . S
C9 O8 1.286 . S
C9 C11 1.363 . S
C10 C0 1.465 . S
C10 U6 2.847 . S
C10 O24 1.249 . S
C10 O25 1.202 . S
C11 C9 1.363 . S
C11 C13 1.408 . S
C11 C16 1.342 . S
C12 C13 1.310 . S
C12 C15 1.461 . S
C12 H32 0.932 . S
C13 C11 1.408 . S
C13 C12 1.310 . S
C13 H33 0.930 . S
C14 C15 1.474 . S
C14 C16 1.285 . S
C14 H34 0.929 . S
C15 C12 1.461 . S
C15 C14 1.474 . S
C16 C11 1.342 . S
C16 C14 1.285 . S
C16 H35 0.930 . S
C17 C20 1.424 . S
C17 C22 1.245 . S
C17 C23 1.428 . S
C18 C21 1.260 . S
C18 C22 1.477 . S
C18 H36 0.932 . S
C19 C20 1.384 . S
C19 C21 1.479 . S
C19 H37 0.929 . S
C20 C17 1.424 . S
C20 C19 1.384 . S
C20 H38 0.928 . S
C21 C18 1.260 . S
C21 C19 1.479 . S
C22 C17 1.245 . S
C22 C18 1.477 . S
C22 H39 0.932 . S
C23 U6 2.882 . S
C23 C17 1.428 . S
C23 O26 1.301 . S
C23 O27 1.282 . S
O24 U6 2.441 . S
O24 C10 1.249 . S
O25 U6 2.420 . S
O25 C10 1.202 . S
O26 U6 2.455 . S
O26 C23 1.301 . S
O27 U6 2.449 . S
O27 C23 1.282 . S
H28 C1 0.931 . S
H29 C3 0.929 . S
H30 C4 0.930 . S
H31 C5 0.931 . S
H32 C12 0.932 . S
H33 C13 0.930 . S
H34 C14 0.929 . S
H35 C16 0.930 . S
H36 C18 0.932 . S
H37 C19 0.929 . S
H38 C20 0.928 . S
H39 C22 0.932 . S
C40 C41 1.264 . S
C40 C45 1.479 . S
C40 C50 1.465 . S
C41 C40 1.264 . S
C41 C43 1.339 . S
C41 H68 0.931 . S
C42 C43 1.395 . S
C42 C44 1.320 . S
C43 C41 1.339 . S
C43 C42 1.395 . S
C43 H69 0.929 . S
C44 C42 1.320 . S
C44 C45 1.405 . S
C44 H70 0.930 . S
C45 C40 1.479 . S
C45 C44 1.405 . S
C45 H71 0.931 . S
U46 O47 2.454 . S
U46 O48 2.458 . S
U46 C49 2.984 . S
U46 C50 2.847 . S
U46 C63 2.882 . S
U46 O64 2.441 . S
U46 O65 2.420 . S
U46 O66 2.455 . S
U46 O67 2.449 . S
O47 U46 2.454 . S
O47 C49 1.353 . S
O48 U46 2.458 . S
O48 C49 1.286 . S
C49 U46 2.984 . S
C49 O47 1.353 . S
C49 O48 1.286 . S
C49 C51 1.363 . S
C50 C40 1.465 . S
C50 U46 2.847 . S
C50 O64 1.249 . S
C50 O65 1.202 . S
C51 C49 1.363 . S
C51 C53 1.408 . S
C51 C56 1.342 . S
C52 C53 1.310 . S
C52 C55 1.461 . S
C52 H72 0.932 . S
C53 C51 1.408 . S
C53 C52 1.310 . S
C53 H73 0.930 . S
C54 C55 1.474 . S
C54 C56 1.285 . S
C54 H74 0.929 . S
C55 C52 1.461 . S
C55 C54 1.474 . S
C56 C51 1.342 . S
C56 C54 1.285 . S
C56 H75 0.930 . S
C57 C60 1.424 . S
C57 C62 1.245 . S
C57 C63 1.428 . S
C58 C61 1.260 . S
C58 C62 1.477 . S
C58 H76 0.932 . S
C59 C60 1.384 . S
C59 C61 1.479 . S
C59 H77 0.929 . S
C60 C57 1.424 . S
C60 C59 1.384 . S
C60 H78 0.928 . S
C61 C58 1.260 . S
C61 C59 1.479 . S
C62 C57 1.245 . S
C62 C58 1.477 . S
C62 H79 0.932 . S
C63 U46 2.882 . S
C63 C57 1.428 . S
C63 O66 1.301 . S
C63 O67 1.282 . S
O64 U46 2.441 . S
O64 C50 1.249 . S
O65 U46 2.420 . S
O65 C50 1.202 . S
O66 U46 2.455 . S
O66 C63 1.301 . S
O67 U46 2.449 . S
O67 C63 1.282 . S
H68 C41 0.931 . S
H69 C43 0.929 . S
H70 C44 0.930 . S
H71 C45 0.931 . S
H72 C52 0.932 . S
H73 C53 0.930 . S
H74 C54 0.929 . S
H75 C56 0.930 . S
H76 C58 0.932 . S
H77 C59 0.929 . S
H78 C60 0.928 . S
H79 C62 0.932 . S
C80 C81 1.264 . S
C80 C85 1.479 . S
C80 C90 1.465 . S
C81 C80 1.264 . S
C81 C83 1.339 . S
C81 H108 0.931 . S
C82 C83 1.395 . S
C82 C84 1.320 . S
C83 C81 1.339 . S
C83 C82 1.395 . S
C83 H109 0.929 . S
C84 C82 1.320 . S
C84 C85 1.405 . S
C84 H110 0.930 . S
C85 C80 1.479 . S
C85 C84 1.405 . S
C85 H111 0.931 . S
U86 O87 2.454 . S
U86 O88 2.458 . S
U86 C89 2.984 . S
U86 C90 2.847 . S
U86 C103 2.882 . S
U86 O104 2.441 . S
U86 O105 2.420 . S
U86 O106 2.455 . S
U86 O107 2.449 . S
O87 U86 2.454 . S
O87 C89 1.353 . S
O88 U86 2.458 . S
O88 C89 1.286 . S
C89 U86 2.984 . S
C89 O87 1.353 . S
C89 O88 1.286 . S
C89 C91 1.363 . S
C90 C80 1.465 . S
C90 U86 2.847 . S
C90 O104 1.249 . S
C90 O105 1.202 . S
C91 C89 1.363 . S
C91 C93 1.408 . S
C91 C96 1.342 . S
C92 C93 1.310 . S
C92 C95 1.461 . S
C92 H112 0.932 . S
C93 C91 1.408 . S
C93 C92 1.310 . S
C93 H113 0.930 . S
C94 C95 1.474 . S
C94 C96 1.285 . S
C94 H114 0.929 . S
C95 C92 1.461 . S
C95 C94 1.474 . S
C96 C91 1.342 . S
C96 C94 1.285 . S
C96 H115 0.930 . S
C97 C100 1.424 . S
C97 C102 1.245 . S
C97 C103 1.428 . S
C98 C101 1.260 . S
C98 C102 1.477 . S
C98 H116 0.932 . S
C99 C100 1.384 . S
C99 C101 1.479 . S
C99 H117 0.929 . S
C100 C97 1.424 . S
C100 C99 1.384 . S
C100 H118 0.928 . S
C101 C98 1.260 . S
C101 C99 1.479 . S
C102 C97 1.245 . S
C102 C98 1.477 . S
C102 H119 0.932 . S
C103 U86 2.882 . S
C103 C97 1.428 . S
C103 O106 1.301 . S
C103 O107 1.282 . S
O104 U86 2.441 . S
O104 C90 1.249 . S
O105 U86 2.420 . S
O105 C90 1.202 . S
O106 U86 2.455 . S
O106 C103 1.301 . S
O107 U86 2.449 . S
O107 C103 1.282 . S
H108 C81 0.931 . S
H109 C83 0.929 . S
H110 C84 0.930 . S
H111 C85 0.931 . S
H112 C92 0.932 . S
H113 C93 0.930 . S
H114 C94 0.929 . S
H115 C96 0.930 . S
H116 C98 0.932 . S
H117 C99 0.929 . S
H118 C100 0.928 . S
H119 C102 0.932 . S
C120 C121 1.264 . S
C120 C125 1.479 . S
C120 C130 1.465 . S
C121 C120 1.264 . S
C121 C123 1.339 . S
C121 H148 0.931 . S
C122 C123 1.395 . S
C122 C124 1.320 . S
C123 C121 1.339 . S
C123 C122 1.395 . S
C123 H149 0.929 . S
C124 C122 1.320 . S
C124 C125 1.405 . S
C124 H150 0.930 . S
C125 C120 1.479 . S
C125 C124 1.405 . S
C125 H151 0.931 . S
U126 O127 2.454 . S
U126 O128 2.458 . S
U126 C129 2.984 . S
U126 C130 2.847 . S
U126 C143 2.882 . S
U126 O144 2.441 . S
U126 O145 2.420 . S
U126 O146 2.455 . S
U126 O147 2.449 . S
O127 U126 2.454 . S
O127 C129 1.353 . S
O128 U126 2.458 . S
O128 C129 1.286 . S
C129 U126 2.984 . S
C129 O127 1.353 . S
C129 O128 1.286 . S
C129 C131 1.363 . S
C130 C120 1.465 . S
C130 U126 2.847 . S
C130 O144 1.249 . S
C130 O145 1.202 . S
C131 C129 1.363 . S
C131 C133 1.408 . S
C131 C136 1.342 . S
C132 C133 1.310 . S
C132 C135 1.461 . S
C132 H152 0.932 . S
C133 C131 1.408 . S
C133 C132 1.310 . S
C133 H153 0.930 . S
C134 C135 1.474 . S
C134 C136 1.285 . S
C134 H154 0.929 . S
C135 C132 1.461 . S
C135 C134 1.474 . S
C136 C131 1.342 . S
C136 C134 1.285 . S
C136 H155 0.930 . S
C137 C140 1.424 . S
C137 C142 1.245 . S
C137 C143 1.428 . S
C138 C141 1.260 . S
C138 C142 1.477 . S
C138 H156 0.932 . S
C139 C140 1.384 . S
C139 C141 1.479 . S
C139 H157 0.929 . S
C140 C137 1.424 . S
C140 C139 1.384 . S
C140 H158 0.928 . S
C141 C138 1.260 . S
C141 C139 1.479 . S
C142 C137 1.245 . S
C142 C138 1.477 . S
C142 H159 0.932 . S
C143 U126 2.882 . S
C143 C137 1.428 . S
C143 O146 1.301 . S
C143 O147 1.282 . S
O144 U126 2.441 . S
O144 C130 1.249 . S
O145 U126 2.420 . S
O145 C130 1.202 . S
O146 U126 2.455 . S
O146 C143 1.301 . S
O147 U126 2.449 . S
O147 C143 1.282 . S
H148 C121 0.931 . S
H149 C123 0.929 . S
H150 C124 0.930 . S
H151 C125 0.931 . S
H152 C132 0.932 . S
H153 C133 0.930 . S
H154 C134 0.929 . S
H155 C136 0.930 . S
H156 C138 0.932 . S
H157 C139 0.929 . S
H158 C140 0.928 . S
H159 C142 0.932 . S
C160 C161 1.264 . S
C160 C165 1.479 . S
C160 C170 1.465 . S
C161 C160 1.264 . S
C161 C163 1.339 . S
C161 H188 0.931 . S
C162 C163 1.395 . S
C162 C164 1.320 . S
C163 C161 1.339 . S
C163 C162 1.395 . S
C163 H189 0.929 . S
C164 C162 1.320 . S
C164 C165 1.405 . S
C164 H190 0.930 . S
C165 C160 1.479 . S
C165 C164 1.405 . S
C165 H191 0.931 . S
U166 O167 2.454 . S
U166 O168 2.458 . S
U166 C169 2.984 . S
U166 C170 2.847 . S
U166 C183 2.882 . S
U166 O184 2.441 . S
U166 O185 2.420 . S
U166 O186 2.455 . S
U166 O187 2.449 . S
O167 U166 2.454 . S
O167 C169 1.353 . S
O168 U166 2.458 . S
O168 C169 1.286 . S
C169 U166 2.984 . S
C169 O167 1.353 . S
C169 O168 1.286 . S
C169 C171 1.363 . S
C170 C160 1.465 . S
C170 U166 2.847 . S
C170 O184 1.249 . S
C170 O185 1.202 . S
C171 C169 1.363 . S
C171 C173 1.408 . S
C171 C176 1.342 . S
C172 C173 1.310 . S
C172 C175 1.461 . S
C172 H192 0.932 . S
C173 C171 1.408 . S
C173 C172 1.310 . S
C173 H193 0.930 . S
C174 C175 1.474 . S
C174 C176 1.285 . S
C174 H194 0.929 . S
C175 C172 1.461 . S
C175 C174 1.474 . S
C176 C171 1.342 . S
C176 C174 1.285 . S
C176 H195 0.930 . S
C177 C180 1.424 . S
C177 C182 1.245 . S
C177 C183 1.428 . S
C178 C181 1.260 . S
C178 C182 1.477 . S
C178 H196 0.932 . S
C179 C180 1.384 . S
C179 C181 1.479 . S
C179 H197 0.929 . S
C180 C177 1.424 . S
C180 C179 1.384 . S
C180 H198 0.928 . S
C181 C178 1.260 . S
C181 C179 1.479 . S
C182 C177 1.245 . S
C182 C178 1.477 . S
C182 H199 0.932 . S
C183 U166 2.882 . S
C183 C177 1.428 . S
C183 O186 1.301 . S
C183 O187 1.282 . S
O184 U166 2.441 . S
O184 C170 1.249 . S
O185 U166 2.420 . S
O185 C170 1.202 . S
O186 U166 2.455 . S
O186 C183 1.301 . S
O187 U166 2.449 . S
O187 C183 1.282 . S
H188 C161 0.931 . S
H189 C163 0.929 . S
H190 C164 0.930 . S
H191 C165 0.931 . S
H192 C172 0.932 . S
H193 C173 0.930 . S
H194 C174 0.929 . S
H195 C176 0.930 . S
H196 C178 0.932 . S
H197 C179 0.929 . S
H198 C180 0.928 . S
H199 C182 0.932 . S
C200 C201 1.264 . S
C200 C205 1.479 . S
C200 C210 1.465 . S
C201 C200 1.264 . S
C201 C203 1.339 . S
C201 H228 0.931 . S
C202 C203 1.395 . S
C202 C204 1.320 . S
C203 C201 1.339 . S
C203 C202 1.395 . S
C203 H229 0.929 . S
C204 C202 1.320 . S
C204 C205 1.405 . S
C204 H230 0.930 . S
C205 C200 1.479 . S
C205 C204 1.405 . S
C205 H231 0.931 . S
U206 O207 2.454 . S
U206 O208 2.458 . S
U206 C209 2.984 . S
U206 C210 2.847 . S
U206 C223 2.882 . S
U206 O224 2.441 . S
U206 O225 2.420 . S
U206 O226 2.455 . S
U206 O227 2.449 . S
O207 U206 2.454 . S
O207 C209 1.353 . S
O208 U206 2.458 . S
O208 C209 1.286 . S
C209 U206 2.984 . S
C209 O207 1.353 . S
C209 O208 1.286 . S
C209 C211 1.363 . S
C210 C200 1.465 . S
C210 U206 2.847 . S
C210 O224 1.249 . S
C210 O225 1.202 . S
C211 C209 1.363 . S
C211 C213 1.408 . S
C211 C216 1.342 . S
C212 C213 1.310 . S
C212 C215 1.461 . S
C212 H232 0.932 . S
C213 C211 1.408 . S
C213 C212 1.310 . S
C213 H233 0.930 . S
C214 C215 1.474 . S
C214 C216 1.285 . S
C214 H234 0.929 . S
C215 C212 1.461 . S
C215 C214 1.474 . S
C216 C211 1.342 . S
C216 C214 1.285 . S
C216 H235 0.930 . S
C217 C220 1.424 . S
C217 C222 1.245 . S
C217 C223 1.428 . S
C218 C221 1.260 . S
C218 C222 1.477 . S
C218 H236 0.932 . S
C219 C220 1.384 . S
C219 C221 1.479 . S
C219 H237 0.929 . S
C220 C217 1.424 . S
C220 C219 1.384 . S
C220 H238 0.928 . S
C221 C218 1.260 . S
C221 C219 1.479 . S
C222 C217 1.245 . S
C222 C218 1.477 . S
C222 H239 0.932 . S
C223 U206 2.882 . S
C223 C217 1.428 . S
C223 O226 1.301 . S
C223 O227 1.282 . S
O224 U206 2.441 . S
O224 C210 1.249 . S
O225 U206 2.420 . S
O225 C210 1.202 . S
O226 U206 2.455 . S
O226 C223 1.301 . S
O227 U206 2.449 . S
O227 C223 1.282 . S
H228 C201 0.931 . S
H229 C203 0.929 . S
H230 C204 0.930 . S
H231 C205 0.931 . S
H232 C212 0.932 . S
H233 C213 0.930 . S
H234 C214 0.929 . S
H235 C216 0.930 . S
H236 C218 0.932 . S
H237 C219 0.929 . S
H238 C220 0.928 . S
H239 C222 0.932 . S
C240 C241 1.264 . S
C240 C245 1.479 . S
C240 C250 1.465 . S
C241 C240 1.264 . S
C241 C243 1.339 . S
C241 H268 0.931 . S
C242 C243 1.395 . S
C242 C244 1.320 . S
C243 C241 1.339 . S
C243 C242 1.395 . S
C243 H269 0.929 . S
C244 C242 1.320 . S
C244 C245 1.405 . S
C244 H270 0.930 . S
C245 C240 1.479 . S
C245 C244 1.405 . S
C245 H271 0.931 . S
U246 O247 2.454 . S
U246 O248 2.458 . S
U246 C249 2.984 . S
U246 C250 2.847 . S
U246 C263 2.882 . S
U246 O264 2.441 . S
U246 O265 2.420 . S
U246 O266 2.455 . S
U246 O267 2.449 . S
O247 U246 2.454 . S
O247 C249 1.353 . S
O248 U246 2.458 . S
O248 C249 1.286 . S
C249 U246 2.984 . S
C249 O247 1.353 . S
C249 O248 1.286 . S
C249 C251 1.363 . S
C250 C240 1.465 . S
C250 U246 2.847 . S
C250 O264 1.249 . S
C250 O265 1.202 . S
C251 C249 1.363 . S
C251 C253 1.408 . S
C251 C256 1.342 . S
C252 C253 1.310 . S
C252 C255 1.461 . S
C252 H272 0.932 . S
C253 C251 1.408 . S
C253 C252 1.310 . S
C253 H273 0.930 . S
C254 C255 1.474 . S
C254 C256 1.285 . S
C254 H274 0.929 . S
C255 C252 1.461 . S
C255 C254 1.474 . S
C256 C251 1.342 . S
C256 C254 1.285 . S
C256 H275 0.930 . S
C257 C260 1.424 . S
C257 C262 1.245 . S
C257 C263 1.428 . S
C258 C261 1.260 . S
C258 C262 1.477 . S
C258 H276 0.932 . S
C259 C260 1.384 . S
C259 C261 1.479 . S
C259 H277 0.929 . S
C260 C257 1.424 . S
C260 C259 1.384 . S
C260 H278 0.928 . S
C261 C258 1.260 . S
C261 C259 1.479 . S
C262 C257 1.245 . S
C262 C258 1.477 . S
C262 H279 0.932 . S
C263 U246 2.882 . S
C263 C257 1.428 . S
C263 O266 1.301 . S
C263 O267 1.282 . S
O264 U246 2.441 . S
O264 C250 1.249 . S
O265 U246 2.420 . S
O265 C250 1.202 . S
O266 U246 2.455 . S
O266 C263 1.301 . S
O267 U246 2.449 . S
O267 C263 1.282 . S
H268 C241 0.931 . S
H269 C243 0.929 . S
H270 C244 0.930 . S
H271 C245 0.931 . S
H272 C252 0.932 . S
H273 C253 0.930 . S
H274 C254 0.929 . S
H275 C256 0.930 . S
H276 C258 0.932 . S
H277 C259 0.929 . S
H278 C260 0.928 . S
H279 C262 0.932 . S
C280 C281 1.264 . S
C280 C285 1.479 . S
C280 C290 1.465 . S
C281 C280 1.264 . S
C281 C283 1.339 . S
C281 H308 0.931 . S
C282 C283 1.395 . S
C282 C284 1.320 . S
C283 C281 1.339 . S
C283 C282 1.395 . S
C283 H309 0.929 . S
C284 C282 1.320 . S
C284 C285 1.405 . S
C284 H310 0.930 . S
C285 C280 1.479 . S
C285 C284 1.405 . S
C285 H311 0.931 . S
U286 O287 2.454 . S
U286 O288 2.458 . S
U286 C289 2.984 . S
U286 C290 2.847 . S
U286 C303 2.882 . S
U286 O304 2.441 . S
U286 O305 2.420 . S
U286 O306 2.455 . S
U286 O307 2.449 . S
O287 U286 2.454 . S
O287 C289 1.353 . S
O288 U286 2.458 . S
O288 C289 1.286 . S
C289 U286 2.984 . S
C289 O287 1.353 . S
C289 O288 1.286 . S
C289 C291 1.363 . S
C290 C280 1.465 . S
C290 U286 2.847 . S
C290 O304 1.249 . S
C290 O305 1.202 . S
C291 C289 1.363 . S
C291 C293 1.408 . S
C291 C296 1.342 . S
C292 C293 1.310 . S
C292 C295 1.461 . S
C292 H312 0.932 . S
C293 C291 1.408 . S
C293 C292 1.310 . S
C293 H313 0.930 . S
C294 C295 1.474 . S
C294 C296 1.285 . S
C294 H314 0.929 . S
C295 C292 1.461 . S
C295 C294 1.474 . S
C296 C291 1.342 . S
C296 C294 1.285 . S
C296 H315 0.930 . S
C297 C300 1.424 . S
C297 C302 1.245 . S
C297 C303 1.428 . S
C298 C301 1.260 . S
C298 C302 1.477 . S
C298 H316 0.932 . S
C299 C300 1.384 . S
C299 C301 1.479 . S
C299 H317 0.929 . S
C300 C297 1.424 . S
C300 C299 1.384 . S
C300 H318 0.928 . S
C301 C298 1.260 . S
C301 C299 1.479 . S
C302 C297 1.245 . S
C302 C298 1.477 . S
C302 H319 0.932 . S
C303 U286 2.882 . S
C303 C297 1.428 . S
C303 O306 1.301 . S
C303 O307 1.282 . S
O304 U286 2.441 . S
O304 C290 1.249 . S
O305 U286 2.420 . S
O305 C290 1.202 . S
O306 U286 2.455 . S
O306 C303 1.301 . S
O307 U286 2.449 . S
O307 C303 1.282 . S
H308 C281 0.931 . S
H309 C283 0.929 . S
H310 C284 0.930 . S
H311 C285 0.931 . S
H312 C292 0.932 . S
H313 C293 0.930 . S
H314 C294 0.929 . S
H315 C296 0.930 . S
H316 C298 0.932 . S
H317 C299 0.929 . S
H318 C300 0.928 . S
H319 C302 0.932 . S
Dy320 O324 2.398 . S
Dy320 O325 2.491 . S
Dy320 O326 2.403 1_545 S
Dy320 O327 2.664 1_545 S
Dy320 O331 2.326 . S
Dy320 O335 2.310 1_455 S
Dy320 O336 2.351 1_445 S
C321 O332 1.185 . S
C321 O333 1.355 . S
C322 O324 1.185 . S
C322 O325 1.355 . S
Dy323 O327 2.310 1_655 S
Dy323 O330 2.351 1_665 S
Dy323 O332 2.398 . S
Dy323 O333 2.491 . S
Dy323 O334 2.403 1_565 S
Dy323 O335 2.664 1_565 S
Dy323 O337 2.326 . S
O324 Dy320 2.398 . S
O324 C322 1.185 . S
O325 Dy320 2.491 . S
O325 C322 1.355 . S
O326 Dy320 2.403 1_565 S
O326 C328 1.254 . S
O327 Dy320 2.664 1_565 S
O327 Dy323 2.310 1_455 S
O327 C328 1.268 . S
C328 O326 1.254 . S
C328 O327 1.268 . S
C329 O334 1.254 . S
C329 O335 1.268 . S
O330 Dy323 2.351 1_445 S
O330 C338 1.249 . S
O331 Dy320 2.326 . S
O331 C338 1.267 . S
O332 C321 1.185 . S
O332 Dy323 2.398 . S
O333 C321 1.355 . S
O333 Dy323 2.491 . S
O334 Dy323 2.403 1_545 S
O334 C329 1.254 . S
O335 Dy320 2.310 1_655 S
O335 Dy323 2.664 1_545 S
O335 C329 1.268 . S
O336 Dy320 2.351 1_665 S
O336 C339 1.249 . S
O337 Dy323 2.326 . S
O337 C339 1.267 . S
C338 O330 1.249 . S
C338 O331 1.267 . S
C339 O336 1.249 . S
C339 O337 1.267 . S
Dy340 O344 2.398 . S
Dy340 O345 2.491 . S
Dy340 O346 2.403 1_545 S
Dy340 O347 2.664 1_545 S
Dy340 O351 2.326 . S
Dy340 O355 2.310 1_554 S
Dy340 O356 2.351 1_544 S
C341 O352 1.185 . S
C341 O353 1.355 . S
C342 O344 1.185 . S
C342 O345 1.355 . S
Dy343 O347 2.320 1_556 S
Dy343 O350 2.343 1_566 S
Dy343 O352 2.400 . S
Dy343 O353 2.505 . S
Dy343 O354 2.391 1_565 S
Dy343 O355 2.657 1_565 S
Dy343 O357 2.333 . S
O344 Dy340 2.398 . S
O344 C342 1.185 . S
O345 Dy340 2.491 . S
O345 C342 1.355 . S
O346 Dy340 2.403 1_565 S
O346 C348 1.254 . S
O347 Dy340 2.664 1_565 S
O347 Dy343 2.320 1_554 S
O347 C348 1.268 . S
C348 O346 1.254 . S
C348 O347 1.268 . S
C349 O354 1.254 . S
C349 O355 1.268 . S
O350 Dy343 2.343 1_544 S
O350 C358 1.249 . S
O351 Dy340 2.326 . S
O351 C358 1.267 . S
O352 C341 1.185 . S
O352 Dy343 2.400 . S
O353 C341 1.355 . S
O353 Dy343 2.505 . S
O354 Dy343 2.391 1_545 S
O354 C349 1.254 . S
O355 Dy340 2.310 1_556 S
O355 Dy343 2.657 1_545 S
O355 C349 1.268 . S
O356 Dy340 2.351 1_566 S
O356 C359 1.249 . S
O357 Dy343 2.333 . S
O357 C359 1.267 . S
C358 O350 1.249 . S
C358 O351 1.267 . S
C359 O356 1.249 . S
C359 O357 1.267 . S
Dy360 O364 2.398 . S
Dy360 O365 2.491 . S
Dy360 O366 2.403 . S
Dy360 O367 2.664 . S
Dy360 O371 2.326 . S
Dy360 O375 2.310 . S
Dy360 O376 2.351 . S
C361 O372 1.185 . S
C361 O373 1.355 . S
C362 O364 1.185 . S
C362 O365 1.355 . S
Dy363 O367 2.310 . S
Dy363 O370 2.351 . S
Dy363 O372 2.398 . S
Dy363 O373 2.491 . S
Dy363 O374 2.403 . S
Dy363 O375 2.664 . S
Dy363 O377 2.326 . S
O364 Dy360 2.398 . S
O364 C362 1.185 . S
O365 Dy360 2.491 . S
O365 C362 1.355 . S
O366 Dy360 2.403 . S
O366 C368 1.254 . S
O367 Dy360 2.664 . S
O367 Dy363 2.310 . S
O367 C368 1.268 . S
C368 O366 1.254 . S
C368 O367 1.268 . S
C369 O374 1.254 . S
C369 O375 1.268 . S
O370 Dy363 2.351 . S
O370 C378 1.249 . S
O371 Dy360 2.326 . S
O371 C378 1.267 . S
O372 C361 1.185 . S
O372 Dy363 2.398 . S
O373 C361 1.355 . S
O373 Dy363 2.491 . S
O374 Dy363 2.403 . S
O374 C369 1.254 . S
O375 Dy360 2.310 . S
O375 Dy363 2.664 . S
O375 C369 1.268 . S
O376 Dy360 2.351 . S
O376 C379 1.249 . S
O377 Dy363 2.326 . S
O377 C379 1.267 . S
C378 O370 1.249 . S
C378 O371 1.267 . S
C379 O376 1.249 . S
C379 O377 1.267 . S
Dy380 O384 2.398 . S
Dy380 O385 2.491 . S
Dy380 O386 2.403 1_455 S
Dy380 O387 2.664 1_455 S
Dy380 O391 2.326 . S
Dy380 O395 2.310 1_554 S
Dy380 O396 2.351 1_454 S
C381 O392 1.185 . S
C381 O393 1.355 . S
C382 O384 1.185 . S
C382 O385 1.355 . S
Dy383 O387 2.311 1_456 S
Dy383 O390 2.348 1_556 S
Dy383 O392 2.400 1_455 S
Dy383 O393 2.495 1_455 S
Dy383 O394 2.401 . S
Dy383 O395 2.662 . S
Dy383 O397 2.329 1_455 S
O384 Dy380 2.398 . S
O384 C382 1.185 . S
O385 Dy380 2.491 . S
O385 C382 1.355 . S
O386 Dy380 2.403 1_655 S
O386 C388 1.254 . S
O387 Dy380 2.664 1_655 S
O387 Dy383 2.311 1_654 S
O387 C388 1.268 . S
C388 O386 1.254 . S
C388 O387 1.268 . S
C389 O394 1.254 . S
C389 O395 1.268 . S
O390 Dy383 2.348 1_554 S
O390 C398 1.249 . S
O391 Dy380 2.326 . S
O391 C398 1.267 . S
O392 C381 1.185 . S
O392 Dy383 2.400 1_655 S
O393 C381 1.355 . S
O393 Dy383 2.495 1_655 S
O394 Dy383 2.401 . S
O394 C389 1.254 . S
O395 Dy380 2.310 1_556 S
O395 Dy383 2.662 . S
O395 C389 1.268 . S
O396 Dy380 2.351 1_656 S
O396 C399 1.249 . S
O397 Dy383 2.329 1_655 S
O397 C399 1.267 . S
C398 O390 1.249 . S
C398 O391 1.267 . S
C399 O396 1.249 . S
C399 O397 1.267 . S
H400 C408 0.950 . S
H401 C413 0.950 . S
H402 C410 0.950 . S
H403 C412 0.950 . S
H404 C414 0.950 . S
H405 C416 0.950 . S
H406 C418 0.950 . S
H407 C419 0.950 . S
C408 H400 0.950 . S
C408 C409 1.386 . S
C408 C410 1.391 . S
C409 C408 1.386 . S
C409 C413 1.393 . S
C410 H402 0.950 . S
C410 C408 1.391 . S
C410 C411 1.400 . S
C411 C410 1.400 . S
C411 C412 1.398 . S
C411 C417 1.491 . S
C412 H403 0.950 . S
C412 C411 1.398 . S
C412 C413 1.391 . S
C413 H401 0.950 . S
C413 C409 1.393 . S
C413 C412 1.391 . S
C414 H404 0.950 . S
C414 C415 1.386 . S
C414 C416 1.391 . S
C415 C414 1.386 . S
C415 C419 1.393 . S
C416 H405 0.950 . S
C416 C414 1.391 . S
C416 C417 1.400 . S
C417 C411 1.491 . S
C417 C416 1.400 . S
C417 C418 1.398 . S
C418 H406 0.950 . S
C418 C417 1.398 . S
C418 C419 1.391 . S
C419 H407 0.950 . S
C419 C415 1.393 . S
C419 C418 1.391 . S
H420 C428 0.950 . S
H421 C433 0.950 . S
H422 C430 0.950 . S
H423 C432 0.950 . S
H424 C434 0.950 . S
H425 C436 0.950 . S
H426 C438 0.950 . S
H427 C439 0.950 . S
C428 H420 0.950 . S
C428 C429 1.386 . S
C428 C430 1.391 . S
C429 C428 1.386 . S
C429 C433 1.393 . S
C430 H422 0.950 . S
C430 C428 1.391 . S
C430 C431 1.400 . S
C431 C430 1.400 . S
C431 C432 1.398 . S
C431 C437 1.491 . S
C432 H423 0.950 . S
C432 C431 1.398 . S
C432 C433 1.391 . S
C433 H421 0.950 . S
C433 C429 1.393 . S
C433 C432 1.391 . S
C434 H424 0.950 . S
C434 C435 1.386 . S
C434 C436 1.391 . S
C435 C434 1.386 . S
C435 C439 1.393 . S
C436 H425 0.950 . S
C436 C434 1.391 . S
C436 C437 1.400 . S
C437 C431 1.491 . S
C437 C436 1.400 . S
C437 C438 1.398 . S
C438 H426 0.950 . S
C438 C437 1.398 . S
C438 C439 1.391 . S
C439 H427 0.950 . S
C439 C435 1.393 . S
C439 C438 1.391 . S
H440 C448 0.950 . S
H441 C453 0.950 . S
H442 C450 0.950 . S
H443 C452 0.950 . S
H444 C454 0.950 . S
H445 C456 0.950 . S
H446 C458 0.950 . S
H447 C459 0.950 . S
C448 H440 0.950 . S
C448 C449 1.386 . S
C448 C450 1.391 . S
C449 C448 1.386 . S
C449 C453 1.393 . S
C450 H442 0.950 . S
C450 C448 1.391 . S
C450 C451 1.400 . S
C451 C450 1.400 . S
C451 C452 1.398 . S
C451 C457 1.491 . S
C452 H443 0.950 . S
C452 C451 1.398 . S
C452 C453 1.391 . S
C453 H441 0.950 . S
C453 C449 1.393 . S
C453 C452 1.391 . S
C454 H444 0.950 . S
C454 C455 1.386 . S
C454 C456 1.391 . S
C455 C454 1.386 . S
C455 C459 1.393 . S
C456 H445 0.950 . S
C456 C454 1.391 . S
C456 C457 1.400 . S
C457 C451 1.491 . S
C457 C456 1.400 . S
C457 C458 1.398 . S
C458 H446 0.950 . S
C458 C457 1.398 . S
C458 C459 1.391 . S
C459 H447 0.950 . S
C459 C455 1.393 . S
C459 C458 1.391 . S
H460 C468 0.950 . S
H461 C473 0.950 . S
H462 C470 0.950 . S
H463 C472 0.950 . S
H464 C474 0.950 1_455 S
H465 C476 0.950 . S
H466 C478 0.950 . S
H467 C479 0.950 . S
C468 H460 0.950 . S
C468 C469 1.386 . S
C468 C470 1.391 . S
C469 C468 1.386 . S
C469 C473 1.393 . S
C470 H462 0.950 . S
C470 C468 1.391 . S
C470 C471 1.400 . S
C471 C470 1.400 . S
C471 C472 1.398 . S
C471 C477 1.491 . S
C472 H463 0.950 . S
C472 C471 1.398 . S
C472 C473 1.391 . S
C473 H461 0.950 . S
C473 C469 1.393 . S
C473 C472 1.391 . S
C474 H464 0.950 1_655 S
C474 C475 1.386 . S
C474 C476 1.391 . S
C475 C474 1.386 . S
C475 C479 1.393 . S
C476 H465 0.950 . S
C476 C474 1.391 . S
C476 C477 1.400 . S
C477 C471 1.491 . S
C477 C476 1.400 . S
C477 C478 1.398 . S
C478 H466 0.950 . S
C478 C477 1.398 . S
C478 C479 1.391 . S
C479 H467 0.950 . S
C479 C475 1.393 . S
C479 C478 1.391 . S
H480 C488 0.950 . S
H481 C493 0.950 . S
H482 C490 0.950 . S
H483 C492 0.950 . S
H484 C494 0.950 . S
H485 C496 0.950 . S
H486 C498 0.950 . S
H487 C499 0.950 . S
C488 H480 0.950 . S
C488 C489 1.386 . S
C488 C490 1.391 . S
C489 C488 1.386 . S
C489 C493 1.393 . S
C490 H482 0.950 . S
C490 C488 1.391 . S
C490 C491 1.400 . S
C491 C490 1.400 . S
C491 C492 1.398 . S
C491 C497 1.491 . S
C492 H483 0.950 . S
C492 C491 1.398 . S
C492 C493 1.391 . S
C493 H481 0.950 . S
C493 C489 1.393 . S
C493 C492 1.391 . S
C494 H484 0.950 . S
C494 C495 1.386 . S
C494 C496 1.391 . S
C495 C494 1.386 . S
C495 C499 1.393 . S
C496 H485 0.950 . S
C496 C494 1.391 . S
C496 C497 1.400 . S
C497 C491 1.491 . S
C497 C496 1.400 . S
C497 C498 1.398 . S
C498 H486 0.950 . S
C498 C497 1.398 . S
C498 C499 1.391 . S
C499 H487 0.950 . S
C499 C495 1.393 . S
C499 C498 1.391 . S
H500 C508 0.950 . S
H501 C513 0.950 . S
H502 C510 0.950 . S
H503 C512 0.950 . S
H504 C514 0.950 1_545 S
H505 C516 0.950 . S
H506 C518 0.950 . S
H507 C519 0.950 . S
C508 H500 0.950 . S
C508 C509 1.386 . S
C508 C510 1.391 . S
C509 C508 1.386 . S
C509 C513 1.393 . S
C510 H502 0.950 . S
C510 C508 1.391 . S
C510 C511 1.400 . S
C511 C510 1.400 . S
C511 C512 1.398 . S
C511 C517 1.491 . S
C512 H503 0.950 . S
C512 C511 1.398 . S
C512 C513 1.391 . S
C513 H501 0.950 . S
C513 C509 1.393 . S
C513 C512 1.391 . S
C514 H504 0.950 1_565 S
C514 C515 1.386 . S
C514 C516 1.391 . S
C515 C514 1.386 . S
C515 C519 1.393 . S
C516 H505 0.950 . S
C516 C514 1.391 . S
C516 C517 1.400 . S
C517 C511 1.491 . S
C517 C516 1.400 . S
C517 C518 1.398 . S
C518 H506 0.950 . S
C518 C517 1.398 . S
C518 C519 1.391 . S
C519 H507 0.950 . S
C519 C515 1.393 . S
C519 C518 1.391 . S
H520 C528 0.950 . S
H521 C533 0.950 . S
H522 C530 0.950 . S
H523 C532 0.950 . S
H524 C534 0.950 1_554 S
H525 C536 0.950 . S
H526 C538 0.950 . S
H527 C539 0.950 . S
C528 H520 0.950 . S
C528 C529 1.386 . S
C528 C530 1.391 . S
C529 C528 1.386 . S
C529 C533 1.393 . S
C530 H522 0.950 . S
C530 C528 1.391 . S
C530 C531 1.400 . S
C531 C530 1.400 . S
C531 C532 1.398 . S
C531 C537 1.491 . S
C532 H523 0.950 . S
C532 C531 1.398 . S
C532 C533 1.391 . S
C533 H521 0.950 . S
C533 C529 1.393 . S
C533 C532 1.391 . S
C534 H524 0.950 1_556 S
C534 C535 1.386 . S
C534 C536 1.391 . S
C535 C534 1.386 . S
C535 C539 1.393 . S
C536 H525 0.950 . S
C536 C534 1.391 . S
C536 C537 1.400 . S
C537 C531 1.491 . S
C537 C536 1.400 . S
C537 C538 1.398 . S
C538 H526 0.950 . S
C538 C537 1.398 . S
C538 C539 1.391 . S
C539 H527 0.950 . S
C539 C535 1.393 . S
C539 C538 1.391 . S
H540 C548 0.950 . S
H541 C553 0.950 . S
H542 C550 0.950 . S
H543 C552 0.950 . S
H544 C554 0.950 . S
H545 C556 0.950 . S
H546 C558 0.950 . S
H547 C559 0.950 . S
C548 H540 0.950 . S
C548 C549 1.386 . S
C548 C550 1.391 . S
C549 C548 1.386 . S
C549 C553 1.393 . S
C550 H542 0.950 . S
C550 C548 1.391 . S
C550 C551 1.400 . S
C551 C550 1.400 . S
C551 C552 1.398 . S
C551 C557 1.491 . S
C552 H543 0.950 . S
C552 C551 1.398 . S
C552 C553 1.391 . S
C553 H541 0.950 . S
C553 C549 1.393 . S
C553 C552 1.391 . S
C554 H544 0.950 . S
C554 C555 1.386 . S
C554 C556 1.391 . S
C555 C554 1.386 . S
C555 C559 1.393 . S
C556 H545 0.950 . S
C556 C554 1.391 . S
C556 C557 1.400 . S
C557 C551 1.491 . S
C557 C556 1.400 . S
C557 C558 1.398 . S
C558 H546 0.950 . S
C558 C557 1.398 . S
C558 C559 1.391 . S
C559 H547 0.950 . S
C559 C555 1.393 . S
C559 C558 1.391 . S
H560 C568 0.950 . S
H561 C573 0.950 . S
H562 C570 0.950 . S
H563 C572 0.950 . S
H564 C574 0.950 . S
H565 C576 0.950 . S
H566 C578 0.950 . S
H567 C579 0.950 . S
C568 H560 0.950 . S
C568 C569 1.386 . S
C568 C570 1.391 . S
C569 C568 1.386 . S
C569 C573 1.393 . S
C570 H562 0.950 . S
C570 C568 1.391 . S
C570 C571 1.400 . S
C571 C570 1.400 . S
C571 C572 1.398 . S
C571 C577 1.491 . S
C572 H563 0.950 . S
C572 C571 1.398 . S
C572 C573 1.391 . S
C573 H561 0.950 . S
C573 C569 1.393 . S
C573 C572 1.391 . S
C574 H564 0.950 . S
C574 C575 1.386 . S
C574 C576 1.391 . S
C575 C574 1.386 . S
C575 C579 1.393 . S
C576 H565 0.950 . S
C576 C574 1.391 . S
C576 C577 1.400 . S
C577 C571 1.491 . S
C577 C576 1.400 . S
C577 C578 1.398 . S
C578 H566 0.950 . S
C578 C577 1.398 . S
C578 C579 1.391 . S
C579 H567 0.950 . S
C579 C575 1.393 . S
C579 C578 1.391 . S
H580 C588 0.950 . S
H581 C593 0.950 . S
H582 C590 0.950 . S
H583 C592 0.950 . S
H584 C594 0.950 . S
H585 C596 0.950 . S
H586 C598 0.950 . S
H587 C599 0.950 . S
C588 H580 0.950 . S
C588 C589 1.386 . S
C588 C590 1.391 . S
C589 C588 1.386 . S
C589 C593 1.393 . S
C590 H582 0.950 . S
C590 C588 1.391 . S
C590 C591 1.400 . S
C591 C590 1.400 . S
C591 C592 1.398 . S
C591 C597 1.491 . S
C592 H583 0.950 . S
C592 C591 1.398 . S
C592 C593 1.391 . S
C593 H581 0.950 . S
C593 C589 1.393 . S
C593 C592 1.391 . S
C594 H584 0.950 . S
C594 C595 1.386 . S
C594 C596 1.391 . S
C595 C594 1.386 . S
C595 C599 1.393 . S
C596 H585 0.950 . S
C596 C594 1.391 . S
C596 C597 1.400 . S
C597 C591 1.491 . S
C597 C596 1.400 . S
C597 C598 1.398 . S
C598 H586 0.950 . S
C598 C597 1.398 . S
C598 C599 1.391 . S
C599 H587 0.950 . S
C599 C595 1.393 . S
C599 C598 1.391 . S
H600 C608 0.950 . S
H601 C613 0.950 . S
H602 C610 0.950 . S
H603 C612 0.950 . S
H604 C614 0.950 1_455 S
H605 C616 0.950 . S
H606 C618 0.950 . S
H607 C619 0.950 . S
C608 H600 0.950 . S
C608 C609 1.386 . S
C608 C610 1.391 . S
C609 C608 1.386 . S
C609 C613 1.393 . S
C610 H602 0.950 . S
C610 C608 1.391 . S
C610 C611 1.400 . S
C611 C610 1.400 . S
C611 C612 1.398 . S
C611 C617 1.491 . S
C612 H603 0.950 . S
C612 C611 1.398 . S
C612 C613 1.391 . S
C613 H601 0.950 . S
C613 C609 1.393 . S
C613 C612 1.391 . S
C614 H604 0.950 1_655 S
C614 C615 1.386 . S
C614 C616 1.391 . S
C615 C614 1.386 . S
C615 C619 1.393 . S
C616 H605 0.950 . S
C616 C614 1.391 . S
C616 C617 1.400 . S
C617 C611 1.491 . S
C617 C616 1.400 . S
C617 C618 1.398 . S
C618 H606 0.950 . S
C618 C617 1.398 . S
C618 C619 1.391 . S
C619 H607 0.950 . S
C619 C615 1.393 . S
C619 C618 1.391 . S
H620 C628 0.950 . S
H621 C633 0.950 . S
H622 C630 0.950 . S
H623 C632 0.950 . S
H624 C634 0.950 . S
H625 C636 0.950 . S
H626 C638 0.950 . S
H627 C639 0.950 . S
C628 H620 0.950 . S
C628 C629 1.386 . S
C628 C630 1.391 . S
C629 C628 1.386 . S
C629 C633 1.393 . S
C630 H622 0.950 . S
C630 C628 1.391 . S
C630 C631 1.400 . S
C631 C630 1.400 . S
C631 C632 1.398 . S
C631 C637 1.491 . S
C632 H623 0.950 . S
C632 C631 1.398 . S
C632 C633 1.391 . S
C633 H621 0.950 . S
C633 C629 1.393 . S
C633 C632 1.391 . S
C634 H624 0.950 . S
C634 C635 1.386 . S
C634 C636 1.391 . S
C635 C634 1.386 . S
C635 C639 1.393 . S
C636 H625 0.950 . S
C636 C634 1.391 . S
C636 C637 1.400 . S
C637 C631 1.491 . S
C637 C636 1.400 . S
C637 C638 1.398 . S
C638 H626 0.950 . S
C638 C637 1.398 . S
C638 C639 1.391 . S
C639 H627 0.950 . S
C639 C635 1.393 . S
C639 C638 1.391 . S
H640 C648 0.950 . S
H641 C653 0.950 . S
H642 C650 0.950 . S
H643 C652 0.950 . S
H644 C654 0.950 . S
H645 C656 0.950 . S
H646 C658 0.950 . S
H647 C659 0.950 . S
C648 H640 0.950 . S
C648 C649 1.386 . S
C648 C650 1.391 . S
C649 C648 1.386 . S
C649 C653 1.393 . S
C650 H642 0.950 . S
C650 C648 1.391 . S
C650 C651 1.400 . S
C651 C650 1.400 . S
C651 C652 1.398 . S
C651 C657 1.491 . S
C652 H643 0.950 . S
C652 C651 1.398 . S
C652 C653 1.391 . S
C653 H641 0.950 . S
C653 C649 1.393 . S
C653 C652 1.391 . S
C654 H644 0.950 . S
C654 C655 1.386 . S
C654 C656 1.391 . S
C655 C654 1.386 . S
C655 C659 1.393 . S
C656 H645 0.950 . S
C656 C654 1.391 . S
C656 C657 1.400 . S
C657 C651 1.491 . S
C657 C656 1.400 . S
C657 C658 1.398 . S
C658 H646 0.950 . S
C658 C657 1.398 . S
C658 C659 1.391 . S
C659 H647 0.950 . S
C659 C655 1.393 . S
C659 C658 1.391 . S
H660 C668 0.950 . S
H661 C673 0.950 . S
H662 C670 0.950 . S
H663 C672 0.950 . S
H664 C674 0.950 . S
H665 C676 0.950 . S
H666 C678 0.950 . S
H667 C679 0.950 . S
C668 H660 0.950 . S
C668 C669 1.386 . S
C668 C670 1.391 . S
C669 C668 1.386 . S
C669 C673 1.393 . S
C670 H662 0.950 . S
C670 C668 1.391 . S
C670 C671 1.400 . S
C671 C670 1.400 . S
C671 C672 1.398 . S
C671 C677 1.491 . S
C672 H663 0.950 . S
C672 C671 1.398 . S
C672 C673 1.391 . S
C673 H661 0.950 . S
C673 C669 1.393 . S
C673 C672 1.391 . S
C674 H664 0.950 . S
C674 C675 1.386 . S
C674 C676 1.391 . S
C675 C674 1.386 . S
C675 C679 1.393 . S
C676 H665 0.950 . S
C676 C674 1.391 . S
C676 C677 1.400 . S
C677 C671 1.491 . S
C677 C676 1.400 . S
C677 C678 1.398 . S
C678 H666 0.950 . S
C678 C677 1.398 . S
C678 C679 1.391 . S
C679 H667 0.950 . S
C679 C675 1.393 . S
C679 C678 1.391 . S
H680 C688 0.950 . S
H681 C693 0.950 . S
H682 C690 0.950 . S
H683 C692 0.950 . S
H684 C694 0.950 . S
H685 C696 0.950 . S
H686 C698 0.950 . S
H687 C699 0.950 . S
C688 H680 0.950 . S
C688 C689 1.386 . S
C688 C690 1.391 . S
C689 C688 1.386 . S
C689 C693 1.393 . S
C690 H682 0.950 . S
C690 C688 1.391 . S
C690 C691 1.400 . S
C691 C690 1.400 . S
C691 C692 1.398 . S
C691 C697 1.491 . S
C692 H683 0.950 . S
C692 C691 1.398 . S
C692 C693 1.391 . S
C693 H681 0.950 . S
C693 C689 1.393 . S
C693 C692 1.391 . S
C694 H684 0.950 . S
C694 C695 1.386 . S
C694 C696 1.391 . S
C695 C694 1.386 . S
C695 C699 1.393 . S
C696 H685 0.950 . S
C696 C694 1.391 . S
C696 C697 1.400 . S
C697 C691 1.491 . S
C697 C696 1.400 . S
C697 C698 1.398 . S
C698 H686 0.950 . S
C698 C697 1.398 . S
C698 C699 1.391 . S
C699 H687 0.950 . S
C699 C695 1.393 . S
C699 C698 1.391 . S
H700 C708 0.950 . S
H701 C713 0.950 . S
H702 C710 0.950 . S
H703 C712 0.950 . S
H704 C714 0.950 . S
H705 C716 0.950 . S
H706 C718 0.950 . S
H707 C719 0.950 . S
C708 H700 0.950 . S
C708 C709 1.386 . S
C708 C710 1.391 . S
C709 C708 1.386 . S
C709 C713 1.393 . S
C710 H702 0.950 . S
C710 C708 1.391 . S
C710 C711 1.400 . S
C711 C710 1.400 . S
C711 C712 1.398 . S
C711 C717 1.491 . S
C712 H703 0.950 . S
C712 C711 1.398 . S
C712 C713 1.391 . S
C713 H701 0.950 . S
C713 C709 1.393 . S
C713 C712 1.391 . S
C714 H704 0.950 . S
C714 C715 1.386 . S
C714 C716 1.391 . S
C715 C714 1.386 . S
C715 C719 1.393 . S
C716 H705 0.950 . S
C716 C714 1.391 . S
C716 C717 1.400 . S
C717 C711 1.491 . S
C717 C716 1.400 . S
C717 C718 1.398 . S
C718 H706 0.950 . S
C718 C717 1.398 . S
C718 C719 1.391 . S
C719 H707 0.950 . S
C719 C715 1.393 . S
C719 C718 1.391 . S
H720 C728 0.950 . S
H721 C733 0.950 . S
H722 C730 0.950 . S
H723 C732 0.950 . S
H724 C734 0.950 . S
H725 C736 0.950 . S
H726 C738 0.950 . S
H727 C739 0.950 . S
C728 H720 0.950 . S
C728 C729 1.386 . S
C728 C730 1.391 . S
C729 C728 1.386 . S
C729 C733 1.393 . S
C730 H722 0.950 . S
C730 C728 1.391 . S
C730 C731 1.400 . S
C731 C730 1.400 . S
C731 C732 1.398 . S
C731 C737 1.491 . S
C732 H723 0.950 . S
C732 C731 1.398 . S
C732 C733 1.391 . S
C733 H721 0.950 . S
C733 C729 1.393 . S
C733 C732 1.391 . S
C734 H724 0.950 . S
C734 C735 1.386 . S
C734 C736 1.391 . S
C735 C734 1.386 . S
C735 C739 1.393 . S
C736 H725 0.950 . S
C736 C734 1.391 . S
C736 C737 1.400 . S
C737 C731 1.491 . S
C737 C736 1.400 . S
C737 C738 1.398 . S
C738 H726 0.950 . S
C738 C737 1.398 . S
C738 C739 1.391 . S
C739 H727 0.950 . S
C739 C735 1.393 . S
C739 C738 1.391 . S
H740 C748 0.950 . S
H741 C753 0.950 . S
H742 C750 0.950 . S
H743 C752 0.950 . S
H744 C754 0.950 . S
H745 C756 0.950 . S
H746 C758 0.950 . S
H747 C759 0.950 . S
C748 H740 0.950 . S
C748 C749 1.386 . S
C748 C750 1.391 . S
C749 C748 1.386 . S
C749 C753 1.393 . S
C750 H742 0.950 . S
C750 C748 1.391 . S
C750 C751 1.400 . S
C751 C750 1.400 . S
C751 C752 1.398 . S
C751 C757 1.491 . S
C752 H743 0.950 . S
C752 C751 1.398 . S
C752 C753 1.391 . S
C753 H741 0.950 . S
C753 C749 1.393 . S
C753 C752 1.391 . S
C754 H744 0.950 . S
C754 C755 1.386 . S
C754 C756 1.391 . S
C755 C754 1.386 . S
C755 C759 1.393 . S
C756 H745 0.950 . S
C756 C754 1.391 . S
C756 C757 1.400 . S
C757 C751 1.491 . S
C757 C756 1.400 . S
C757 C758 1.398 . S
C758 H746 0.950 . S
C758 C757 1.398 . S
C758 C759 1.391 . S
C759 H747 0.950 . S
C759 C755 1.393 . S
C759 C758 1.391 . S
H760 C768 0.950 . S
H761 C773 0.950 . S
H762 C770 0.950 . S
H763 C772 0.950 . S
H764 C774 0.950 . S
H765 C776 0.950 . S
H766 C778 0.950 . S
H767 C779 0.950 . S
C768 H760 0.950 . S
C768 C769 1.386 . S
C768 C770 1.391 . S
C769 C768 1.386 . S
C769 C773 1.393 . S
C770 H762 0.950 . S
C770 C768 1.391 . S
C770 C771 1.400 . S
C771 C770 1.400 . S
C771 C772 1.398 . S
C771 C777 1.491 . S
C772 H763 0.950 . S
C772 C771 1.398 . S
C772 C773 1.391 . S
C773 H761 0.950 . S
C773 C769 1.393 . S
C773 C772 1.391 . S
C774 H764 0.950 . S
C774 C775 1.386 . S
C774 C776 1.391 . S
C775 C774 1.386 . S
C775 C779 1.393 . S
C776 H765 0.950 . S
C776 C774 1.391 . S
C776 C777 1.400 . S
C777 C771 1.491 . S
C777 C776 1.400 . S
C777 C778 1.398 . S
C778 H766 0.950 . S
C778 C777 1.398 . S
C778 C779 1.391 . S
C779 H767 0.950 . S
C779 C775 1.393 . S
C779 C778 1.391 . S
H780 C788 0.950 . S
H781 C793 0.950 . S
H782 C790 0.950 . S
H783 C792 0.950 . S
H784 C794 0.950 . S
H785 C796 0.950 . S
H786 C798 0.950 . S
H787 C799 0.950 . S
C788 H780 0.950 . S
C788 C789 1.386 . S
C788 C790 1.391 . S
C789 C788 1.386 . S
C789 C793 1.393 . S
C790 H782 0.950 . S
C790 C788 1.391 . S
C790 C791 1.400 . S
C791 C790 1.400 . S
C791 C792 1.398 . S
C791 C797 1.491 . S
C792 H783 0.950 . S
C792 C791 1.398 . S
C792 C793 1.391 . S
C793 H781 0.950 . S
C793 C789 1.393 . S
C793 C792 1.391 . S
C794 H784 0.950 . S
C794 C795 1.386 . S
C794 C796 1.391 . S
C795 C794 1.386 . S
C795 C799 1.393 . S
C796 H785 0.950 . S
C796 C794 1.391 . S
C796 C797 1.400 . S
C797 C791 1.491 . S
C797 C796 1.400 . S
C797 C798 1.398 . S
C798 H786 0.950 . S
C798 C797 1.398 . S
C798 C799 1.391 . S
C799 H787 0.950 . S
C799 C795 1.393 . S
C799 C798 1.391 . S
H800 C808 0.950 . S
H801 C813 0.950 . S
H802 C810 0.950 . S
H803 C812 0.950 . S
H804 C814 0.950 . S
H805 C816 0.950 . S
H806 C818 0.950 . S
H807 C819 0.950 . S
C808 H800 0.950 . S
C808 C809 1.386 . S
C808 C810 1.391 . S
C809 C808 1.386 . S
C809 C813 1.393 . S
C810 H802 0.950 . S
C810 C808 1.391 . S
C810 C811 1.400 . S
C811 C810 1.400 . S
C811 C812 1.398 . S
C811 C817 1.491 . S
C812 H803 0.950 . S
C812 C811 1.398 . S
C812 C813 1.391 . S
C813 H801 0.950 . S
C813 C809 1.393 . S
C813 C812 1.391 . S
C814 H804 0.950 . S
C814 C815 1.386 . S
C814 C816 1.391 . S
C815 C814 1.386 . S
C815 C819 1.393 . S
C816 H805 0.950 . S
C816 C814 1.391 . S
C816 C817 1.400 . S
C817 C811 1.491 . S
C817 C816 1.400 . S
C817 C818 1.398 . S
C818 H806 0.950 . S
C818 C817 1.398 . S
C818 C819 1.391 . S
C819 H807 0.950 . S
C819 C815 1.393 . S
C819 C818 1.391 . S
H820 C828 0.950 . S
H821 C833 0.950 . S
H822 C830 0.950 . S
H823 C832 0.950 . S
H824 C834 0.950 . S
H825 C836 0.950 . S
H826 C838 0.950 . S
H827 C839 0.950 . S
C828 H820 0.950 . S
C828 C829 1.386 . S
C828 C830 1.391 . S
C829 C828 1.386 . S
C829 C833 1.393 . S
C830 H822 0.950 . S
C830 C828 1.391 . S
C830 C831 1.400 . S
C831 C830 1.400 . S
C831 C832 1.398 . S
C831 C837 1.491 . S
C832 H823 0.950 . S
C832 C831 1.398 . S
C832 C833 1.391 . S
C833 H821 0.950 . S
C833 C829 1.393 . S
C833 C832 1.391 . S
C834 H824 0.950 . S
C834 C835 1.386 . S
C834 C836 1.391 . S
C835 C834 1.386 . S
C835 C839 1.393 . S
C836 H825 0.950 . S
C836 C834 1.391 . S
C836 C837 1.400 . S
C837 C831 1.491 . S
C837 C836 1.400 . S
C837 C838 1.398 . S
C838 H826 0.950 . S
C838 C837 1.398 . S
C838 C839 1.391 . S
C839 H827 0.950 . S
C839 C835 1.393 . S
C839 C838 1.391 . S
H840 C848 0.950 . S
H841 C853 0.950 . S
H842 C850 0.950 . S
H843 C852 0.950 . S
H844 C854 0.950 . S
H845 C856 0.950 . S
H846 C858 0.950 . S
H847 C859 0.950 . S
C848 H840 0.950 . S
C848 C849 1.386 . S
C848 C850 1.391 . S
C849 C848 1.386 . S
C849 C853 1.393 . S
C850 H842 0.950 . S
C850 C848 1.391 . S
C850 C851 1.400 . S
C851 C850 1.400 . S
C851 C852 1.398 . S
C851 C857 1.491 . S
C852 H843 0.950 . S
C852 C851 1.398 . S
C852 C853 1.391 . S
C853 H841 0.950 . S
C853 C849 1.393 . S
C853 C852 1.391 . S
C854 H844 0.950 . S
C854 C855 1.386 . S
C854 C856 1.391 . S
C855 C854 1.386 . S
C855 C859 1.393 . S
C856 H845 0.950 . S
C856 C854 1.391 . S
C856 C857 1.400 . S
C857 C851 1.491 . S
C857 C856 1.400 . S
C857 C858 1.398 . S
C858 H846 0.950 . S
C858 C857 1.398 . S
C858 C859 1.391 . S
C859 H847 0.950 . S
C859 C855 1.393 . S
C859 C858 1.391 . S
H860 C868 0.950 . S
H861 C873 0.950 . S
H862 C870 0.950 . S
H863 C872 0.950 . S
H864 C874 0.950 . S
H865 C876 0.950 . S
H866 C878 0.950 . S
H867 C879 0.950 . S
C868 H860 0.950 . S
C868 C869 1.386 . S
C868 C870 1.391 . S
C869 C868 1.386 . S
C869 C873 1.393 . S
C870 H862 0.950 . S
C870 C868 1.391 . S
C870 C871 1.400 . S
C871 C870 1.400 . S
C871 C872 1.398 . S
C871 C877 1.491 . S
C872 H863 0.950 . S
C872 C871 1.398 . S
C872 C873 1.391 . S
C873 H861 0.950 . S
C873 C869 1.393 . S
C873 C872 1.391 . S
C874 H864 0.950 . S
C874 C875 1.386 . S
C874 C876 1.391 . S
C875 C874 1.386 . S
C875 C879 1.393 . S
C876 H865 0.950 . S
C876 C874 1.391 . S
C876 C877 1.400 . S
C877 C871 1.491 . S
C877 C876 1.400 . S
C877 C878 1.398 . S
C878 H866 0.950 . S
C878 C877 1.398 . S
C878 C879 1.391 . S
C879 H867 0.950 . S
C879 C875 1.393 . S
C879 C878 1.391 . S
C409 C21 1.563 . S
C415 C322 1.636 . S
C429 C61 1.385 . S
C435 C341 1.371 . S
C455 C378 1.682 . S
C449 C82 1.696 . S
C469 C135 1.710 . S
C475 C388 1.645 . S
C495 C358 2.100 . S
C489 C15 2.046 . S
C515 C328 1.454 . S
C509 C42 1.507 . S
C535 C399 1.487 . S
C529 C101 1.501 . S
C555 C369 1.356 . S
C549 C122 1.381 . S
C569 C2 1.776 . S
C575 C382 1.863 . S
C595 C349 1.640 . S
C589 C95 1.693 . S
C609 C141 1.774 . S
C615 C339 1.770 . S
C629 C55 1.247 . S
C635 C361 1.255 . S
C655 C321 1.655 . S
C649 C181 1.654 . S
C669 C202 1.348 . S
C675 C342 1.363 . S
C689 C255 1.728 . S
C695 C379 1.700 . S
C709 C295 1.695 . S
C715 C389 1.646 . S
C729 C175 2.027 . S
C735 C359 2.082 . S
C755 C329 1.476 . S
C749 C221 1.516 . S
C775 C398 1.444 . S
C769 C242 1.442 . S
C795 C368 1.411 . S
C789 C301 1.451 . S
C809 C162 1.838 . S
C815 C381 1.834 . S
C835 C348 1.684 . S
C829 C261 1.718 . S
C855 C338 1.753 . S
C849 C282 1.747 . S
C869 C215 1.283 . S
C875 C362 1.303 . S
