# Generated by pormake.
# Topology iac, (4,6)-cn, num edge types: 1
# Building blocks:
#     Node 0, Type 0, BuildingBlock: NAHDIM_clean_sbu_0, # of connection points: 4
#     Node 1, Type 0, BuildingBlock: NAHDIM_clean_sbu_0, # of connection points: 4
#     Node 2, Type 0, BuildingBlock: NAHDIM_clean_sbu_0, # of connection points: 4
#     Node 3, Type 0, BuildingBlock: NAHDIM_clean_sbu_0, # of connection points: 4
#     Node 4, Type 0, BuildingBlock: NAHDIM_clean_sbu_0, # of connection points: 4
#     Node 5, Type 0, BuildingBlock: NAHDIM_clean_sbu_0, # of connection points: 4
#     Node 6, Type 0, BuildingBlock: NAHDIM_clean_sbu_0, # of connection points: 4
#     Node 7, Type 0, BuildingBlock: NAHDIM_clean_sbu_0, # of connection points: 4
#     Node 8, Type 0, BuildingBlock: NAHDIM_clean_sbu_0, # of connection points: 4
#     Node 9, Type 0, BuildingBlock: NAHDIM_clean_sbu_0, # of connection points: 4
#     Node 10, Type 0, BuildingBlock: NAHDIM_clean_sbu_0, # of connection points: 4
#     Node 11, Type 0, BuildingBlock: NAHDIM_clean_sbu_0, # of connection points: 4
#     Node 12, Type 0, BuildingBlock: NAHDIM_clean_sbu_0, # of connection points: 4
#     Node 13, Type 0, BuildingBlock: NAHDIM_clean_sbu_0, # of connection points: 4
#     Node 14, Type 0, BuildingBlock: NAHDIM_clean_sbu_0, # of connection points: 4
#     Node 15, Type 0, BuildingBlock: NAHDIM_clean_sbu_0, # of connection points: 4
#     Node 16, Type 0, BuildingBlock: NAHDIM_clean_sbu_0, # of connection points: 4
#     Node 17, Type 0, BuildingBlock: NAHDIM_clean_sbu_0, # of connection points: 4
#     Node 18, Type 0, BuildingBlock: NAHDIM_clean_sbu_0, # of connection points: 4
#     Node 19, Type 0, BuildingBlock: NAHDIM_clean_sbu_0, # of connection points: 4
#     Node 20, Type 0, BuildingBlock: NAHDIM_clean_sbu_0, # of connection points: 4
#     Node 21, Type 0, BuildingBlock: NAHDIM_clean_sbu_0, # of connection points: 4
#     Node 22, Type 0, BuildingBlock: NAHDIM_clean_sbu_0, # of connection points: 4
#     Node 23, Type 0, BuildingBlock: NAHDIM_clean_sbu_0, # of connection points: 4
#     Node 24, Type 1, BuildingBlock: VOLQOD_clean_sbu_1, # of connection points: 6
#     Node 25, Type 1, BuildingBlock: VOLQOD_clean_sbu_1, # of connection points: 6
#     Node 26, Type 1, BuildingBlock: VOLQOD_clean_sbu_1, # of connection points: 6
#     Node 27, Type 1, BuildingBlock: VOLQOD_clean_sbu_1, # of connection points: 6
#     Node 28, Type 1, BuildingBlock: VOLQOD_clean_sbu_1, # of connection points: 6
#     Node 29, Type 1, BuildingBlock: VOLQOD_clean_sbu_1, # of connection points: 6
#     Node 30, Type 1, BuildingBlock: VOLQOD_clean_sbu_1, # of connection points: 6
#     Node 31, Type 1, BuildingBlock: VOLQOD_clean_sbu_1, # of connection points: 6
#     Node 32, Type 1, BuildingBlock: VOLQOD_clean_sbu_1, # of connection points: 6
#     Node 33, Type 1, BuildingBlock: VOLQOD_clean_sbu_1, # of connection points: 6
#     Node 34, Type 1, BuildingBlock: VOLQOD_clean_sbu_1, # of connection points: 6
#     Node 35, Type 1, BuildingBlock: VOLQOD_clean_sbu_1, # of connection points: 6
#     Node 36, Type 1, BuildingBlock: VOLQOD_clean_sbu_1, # of connection points: 6
#     Node 37, Type 1, BuildingBlock: VOLQOD_clean_sbu_1, # of connection points: 6
#     Node 38, Type 1, BuildingBlock: VOLQOD_clean_sbu_1, # of connection points: 6
#     Node 39, Type 1, BuildingBlock: VOLQOD_clean_sbu_1, # of connection points: 6
#     Edge 40, Type (0, 1), BuildingBlock: AJUNOK_clean_linker_0, # of connection points: 2
#     Edge 41, Type (0, 1), BuildingBlock: AJUNOK_clean_linker_0, # of connection points: 2
#     Edge 42, Type (0, 1), BuildingBlock: AJUNOK_clean_linker_0, # of connection points: 2
#     Edge 43, Type (0, 1), BuildingBlock: AJUNOK_clean_linker_0, # of connection points: 2
#     Edge 44, Type (0, 1), BuildingBlock: AJUNOK_clean_linker_0, # of connection points: 2
#     Edge 45, Type (0, 1), BuildingBlock: AJUNOK_clean_linker_0, # of connection points: 2
#     Edge 46, Type (0, 1), BuildingBlock: AJUNOK_clean_linker_0, # of connection points: 2
#     Edge 47, Type (0, 1), BuildingBlock: AJUNOK_clean_linker_0, # of connection points: 2
#     Edge 48, Type (0, 1), BuildingBlock: AJUNOK_clean_linker_0, # of connection points: 2
#     Edge 49, Type (0, 1), BuildingBlock: AJUNOK_clean_linker_0, # of connection points: 2
#     Edge 50, Type (0, 1), BuildingBlock: AJUNOK_clean_linker_0, # of connection points: 2
#     Edge 51, Type (0, 1), BuildingBlock: AJUNOK_clean_linker_0, # of connection points: 2
#     Edge 52, Type (0, 1), BuildingBlock: AJUNOK_clean_linker_0, # of connection points: 2
#     Edge 53, Type (0, 1), BuildingBlock: AJUNOK_clean_linker_0, # of connection points: 2
#     Edge 54, Type (0, 1), BuildingBlock: AJUNOK_clean_linker_0, # of connection points: 2
#     Edge 55, Type (0, 1), BuildingBlock: AJUNOK_clean_linker_0, # of connection points: 2
#     Edge 56, Type (0, 1), BuildingBlock: AJUNOK_clean_linker_0, # of connection points: 2
#     Edge 57, Type (0, 1), BuildingBlock: AJUNOK_clean_linker_0, # of connection points: 2
#     Edge 58, Type (0, 1), BuildingBlock: AJUNOK_clean_linker_0, # of connection points: 2
#     Edge 59, Type (0, 1), BuildingBlock: AJUNOK_clean_linker_0, # of connection points: 2
#     Edge 60, Type (0, 1), BuildingBlock: AJUNOK_clean_linker_0, # of connection points: 2
#     Edge 61, Type (0, 1), BuildingBlock: AJUNOK_clean_linker_0, # of connection points: 2
#     Edge 62, Type (0, 1), BuildingBlock: AJUNOK_clean_linker_0, # of connection points: 2
#     Edge 63, Type (0, 1), BuildingBlock: AJUNOK_clean_linker_0, # of connection points: 2
#     Edge 64, Type (0, 1), BuildingBlock: AJUNOK_clean_linker_0, # of connection points: 2
#     Edge 65, Type (0, 1), BuildingBlock: AJUNOK_clean_linker_0, # of connection points: 2
#     Edge 66, Type (0, 1), BuildingBlock: AJUNOK_clean_linker_0, # of connection points: 2
#     Edge 67, Type (0, 1), BuildingBlock: AJUNOK_clean_linker_0, # of connection points: 2
#     Edge 68, Type (0, 1), BuildingBlock: AJUNOK_clean_linker_0, # of connection points: 2
#     Edge 69, Type (0, 1), BuildingBlock: AJUNOK_clean_linker_0, # of connection points: 2
#     Edge 70, Type (0, 1), BuildingBlock: AJUNOK_clean_linker_0, # of connection points: 2
#     Edge 71, Type (0, 1), BuildingBlock: AJUNOK_clean_linker_0, # of connection points: 2
#     Edge 72, Type (0, 1), BuildingBlock: AJUNOK_clean_linker_0, # of connection points: 2
#     Edge 73, Type (0, 1), BuildingBlock: AJUNOK_clean_linker_0, # of connection points: 2
#     Edge 74, Type (0, 1), BuildingBlock: AJUNOK_clean_linker_0, # of connection points: 2
#     Edge 75, Type (0, 1), BuildingBlock: AJUNOK_clean_linker_0, # of connection points: 2
#     Edge 76, Type (0, 1), BuildingBlock: AJUNOK_clean_linker_0, # of connection points: 2
#     Edge 77, Type (0, 1), BuildingBlock: AJUNOK_clean_linker_0, # of connection points: 2
#     Edge 78, Type (0, 1), BuildingBlock: AJUNOK_clean_linker_0, # of connection points: 2
#     Edge 79, Type (0, 1), BuildingBlock: AJUNOK_clean_linker_0, # of connection points: 2
#     Edge 80, Type (0, 1), BuildingBlock: AJUNOK_clean_linker_0, # of connection points: 2
#     Edge 81, Type (0, 1), BuildingBlock: AJUNOK_clean_linker_0, # of connection points: 2
#     Edge 82, Type (0, 1), BuildingBlock: AJUNOK_clean_linker_0, # of connection points: 2
#     Edge 83, Type (0, 1), BuildingBlock: AJUNOK_clean_linker_0, # of connection points: 2
#     Edge 84, Type (0, 1), BuildingBlock: AJUNOK_clean_linker_0, # of connection points: 2
#     Edge 85, Type (0, 1), BuildingBlock: AJUNOK_clean_linker_0, # of connection points: 2
#     Edge 86, Type (0, 1), BuildingBlock: AJUNOK_clean_linker_0, # of connection points: 2
#     Edge 87, Type (0, 1), BuildingBlock: AJUNOK_clean_linker_0, # of connection points: 2
#     Edge 88, Type (0, 1), BuildingBlock: AJUNOK_clean_linker_0, # of connection points: 2
#     Edge 89, Type (0, 1), BuildingBlock: AJUNOK_clean_linker_0, # of connection points: 2
#     Edge 90, Type (0, 1), BuildingBlock: AJUNOK_clean_linker_0, # of connection points: 2
#     Edge 91, Type (0, 1), BuildingBlock: AJUNOK_clean_linker_0, # of connection points: 2
#     Edge 92, Type (0, 1), BuildingBlock: AJUNOK_clean_linker_0, # of connection points: 2
#     Edge 93, Type (0, 1), BuildingBlock: AJUNOK_clean_linker_0, # of connection points: 2
#     Edge 94, Type (0, 1), BuildingBlock: AJUNOK_clean_linker_0, # of connection points: 2
#     Edge 95, Type (0, 1), BuildingBlock: AJUNOK_clean_linker_0, # of connection points: 2
#     Edge 96, Type (0, 1), BuildingBlock: AJUNOK_clean_linker_0, # of connection points: 2
#     Edge 97, Type (0, 1), BuildingBlock: AJUNOK_clean_linker_0, # of connection points: 2
#     Edge 98, Type (0, 1), BuildingBlock: AJUNOK_clean_linker_0, # of connection points: 2
#     Edge 99, Type (0, 1), BuildingBlock: AJUNOK_clean_linker_0, # of connection points: 2
#     Edge 100, Type (0, 1), BuildingBlock: AJUNOK_clean_linker_0, # of connection points: 2
#     Edge 101, Type (0, 1), BuildingBlock: AJUNOK_clean_linker_0, # of connection points: 2
#     Edge 102, Type (0, 1), BuildingBlock: AJUNOK_clean_linker_0, # of connection points: 2
#     Edge 103, Type (0, 1), BuildingBlock: AJUNOK_clean_linker_0, # of connection points: 2
#     Edge 104, Type (0, 1), BuildingBlock: AJUNOK_clean_linker_0, # of connection points: 2
#     Edge 105, Type (0, 1), BuildingBlock: AJUNOK_clean_linker_0, # of connection points: 2
#     Edge 106, Type (0, 1), BuildingBlock: AJUNOK_clean_linker_0, # of connection points: 2
#     Edge 107, Type (0, 1), BuildingBlock: AJUNOK_clean_linker_0, # of connection points: 2
#     Edge 108, Type (0, 1), BuildingBlock: AJUNOK_clean_linker_0, # of connection points: 2
#     Edge 109, Type (0, 1), BuildingBlock: AJUNOK_clean_linker_0, # of connection points: 2
#     Edge 110, Type (0, 1), BuildingBlock: AJUNOK_clean_linker_0, # of connection points: 2
#     Edge 111, Type (0, 1), BuildingBlock: AJUNOK_clean_linker_0, # of connection points: 2
#     Edge 112, Type (0, 1), BuildingBlock: AJUNOK_clean_linker_0, # of connection points: 2
#     Edge 113, Type (0, 1), BuildingBlock: AJUNOK_clean_linker_0, # of connection points: 2
#     Edge 114, Type (0, 1), BuildingBlock: AJUNOK_clean_linker_0, # of connection points: 2
#     Edge 115, Type (0, 1), BuildingBlock: AJUNOK_clean_linker_0, # of connection points: 2
#     Edge 116, Type (0, 1), BuildingBlock: AJUNOK_clean_linker_0, # of connection points: 2
#     Edge 117, Type (0, 1), BuildingBlock: AJUNOK_clean_linker_0, # of connection points: 2
#     Edge 118, Type (0, 1), BuildingBlock: AJUNOK_clean_linker_0, # of connection points: 2
#     Edge 119, Type (0, 1), BuildingBlock: AJUNOK_clean_linker_0, # of connection points: 2
#     Edge 120, Type (0, 1), BuildingBlock: AJUNOK_clean_linker_0, # of connection points: 2
#     Edge 121, Type (0, 1), BuildingBlock: AJUNOK_clean_linker_0, # of connection points: 2
#     Edge 122, Type (0, 1), BuildingBlock: AJUNOK_clean_linker_0, # of connection points: 2
#     Edge 123, Type (0, 1), BuildingBlock: AJUNOK_clean_linker_0, # of connection points: 2
#     Edge 124, Type (0, 1), BuildingBlock: AJUNOK_clean_linker_0, # of connection points: 2
#     Edge 125, Type (0, 1), BuildingBlock: AJUNOK_clean_linker_0, # of connection points: 2
#     Edge 126, Type (0, 1), BuildingBlock: AJUNOK_clean_linker_0, # of connection points: 2
#     Edge 127, Type (0, 1), BuildingBlock: AJUNOK_clean_linker_0, # of connection points: 2
#     Edge 128, Type (0, 1), BuildingBlock: AJUNOK_clean_linker_0, # of connection points: 2
#     Edge 129, Type (0, 1), BuildingBlock: AJUNOK_clean_linker_0, # of connection points: 2
#     Edge 130, Type (0, 1), BuildingBlock: AJUNOK_clean_linker_0, # of connection points: 2
#     Edge 131, Type (0, 1), BuildingBlock: AJUNOK_clean_linker_0, # of connection points: 2
#     Edge 132, Type (0, 1), BuildingBlock: AJUNOK_clean_linker_0, # of connection points: 2
#     Edge 133, Type (0, 1), BuildingBlock: AJUNOK_clean_linker_0, # of connection points: 2
#     Edge 134, Type (0, 1), BuildingBlock: AJUNOK_clean_linker_0, # of connection points: 2
#     Edge 135, Type (0, 1), BuildingBlock: AJUNOK_clean_linker_0, # of connection points: 2
# Relax obj value: 0.317
# Max RMSD: 0.290
# Mean RMSD: 0.181
data_MOF--net-iac--node1-NAHDIM_clean_sbu_0--node2-VOLQOD_clean_sbu_1--edge1-AJUNOK_clean_linker_0
_symmetry_space_group_name_H-M    P1
_symmetry_Int_Tables_number       1
_symmetry_cell_setting            triclinic
loop_
_symmetry_equiv_pos_as_xyz
'x, y, z'
_cell_length_a     42.568253
_cell_length_b     41.438389
_cell_length_c     40.20632
_cell_angle_alpha  89.915758
_cell_angle_beta   90.591893
_cell_angle_gamma 91.297879
loop_
_atom_site_label
_atom_site_type_symbol
_atom_site_fract_x
_atom_site_fract_y
_atom_site_fract_z
_atom_type_partial_charge
C0 C 0.94385 0.25728 0.16245 0.0
O1 O 0.9448 0.26129 0.13009 0.0
O2 O 0.00335 0.22557 0.12438 0.0
Zn3 Zn 0.0065 0.26645 0.15102 0.0
O4 O 0.00561 0.30661 0.12266 0.0
C5 C 0.06964 0.2547 0.16767 0.0
O6 O 0.06715 0.23836 0.13976 0.0
O7 O 0.96861 0.26268 0.1796 0.0
C8 C 0.0308 0.31665 0.10898 0.0
O9 O 0.0561 0.29929 0.11126 0.0
C10 C -0.00736 0.22303 0.09488 0.0
O11 O 0.98772 0.24923 0.07732 0.0
O12 O 0.0456 0.26805 0.17926 0.0
C13 C 0.03019 0.72963 0.32097 0.0
O14 O 0.00957 0.70558 0.31962 0.0
O15 O 0.00208 0.70741 0.40736 0.0
Zn16 Zn -0.00298 0.74648 0.37947 0.0
O17 O 0.00163 0.78321 0.41098 0.0
C18 C 0.93364 0.7259 0.36371 0.0
O19 O 0.93868 0.70501 0.38766 0.0
O20 O 0.02957 0.74951 0.34493 0.0
C21 C 0.98053 0.78762 0.43246 0.0
O22 O 0.95463 0.76979 0.43175 0.0
C23 C 0.02766 0.69896 0.421 0.0
O24 O 0.05413 0.71423 0.41395 0.0
O25 O 0.95512 0.74633 0.35638 0.0
C26 C 0.43365 0.74465 0.64958 0.0
O27 O 0.4324 0.76822 0.62779 0.0
O28 O 0.49741 0.71281 0.59094 0.0
Zn29 Zn 0.49741 0.74413 0.62889 0.0
O30 O 0.49545 0.78912 0.61085 0.0
C31 C 0.56058 0.75731 0.64285 0.0
O32 O 0.559 0.76429 0.61107 0.0
O33 O 0.45985 0.73216 0.65651 0.0
C34 C 0.50454 0.79627 0.58168 0.0
O35 O 0.51242 0.7734 0.56103 0.0
C36 C 0.47455 0.71468 0.57043 0.0
O37 O 0.45409 0.73757 0.57403 0.0
O38 O 0.53686 0.74413 0.65669 0.0
C39 C 0.55775 0.23081 0.85117 0.0
O40 O 0.54907 0.2024 0.86287 0.0
O41 O 0.50728 0.22181 0.92433 0.0
Zn42 Zn 0.5108 0.26025 0.89492 0.0
O43 O 0.52135 0.29971 0.92137 0.0
C44 C 0.44936 0.28495 0.87851 0.0
O45 O 0.45413 0.30266 0.90523 0.0
O46 O 0.5449 0.25605 0.86186 0.0
C47 C 0.51658 0.30472 0.95204 0.0
O48 O 0.50201 0.28257 0.96992 0.0
C49 C 0.52922 0.21164 0.94295 0.0
O50 O 0.55664 0.22683 0.9432 0.0
O51 O 0.47032 0.26546 0.86974 0.0
C52 C 0.15878 0.966 0.22305 0.0
O53 O 0.14772 0.98509 0.19983 0.0
O54 O 0.08798 0.00349 0.23003 0.0
Zn55 Zn 0.12207 0.00535 0.26417 0.0
O56 O 0.10359 -0.0005 0.30913 0.0
C57 C 0.16488 0.05394 0.28727 0.0
O58 O 0.16421 0.03641 0.31449 0.0
O59 O 0.1509 0.97008 0.25317 0.0
C60 C 0.09281 0.024 0.32368 0.0
O61 O 0.09405 0.05229 0.3089 0.0
C62 C 0.05879 0.00103 0.23598 0.0
O63 O 0.04861 0.00311 0.26659 0.0
O64 O 0.14771 0.04597 0.26244 0.0
C65 C 0.21649 0.89356 0.52109 0.0
O66 O 0.21404 0.86198 0.51948 0.0
O67 O 0.27557 0.84378 0.53183 0.0
Zn68 Zn 0.27459 0.8774 0.4958 0.0
O69 O 0.2626 0.85686 0.45267 0.0
C70 C 0.31787 0.93077 0.48553 0.0
O71 O 0.29209 0.94754 0.48369 0.0
O72 O 0.24097 0.90763 0.5098 0.0
C73 C 0.28188 0.83975 0.43702 0.0
O74 O 0.31053 0.83676 0.44893 0.0
C75 C 0.26504 0.81503 0.52801 0.0
O76 O 0.25756 0.80455 0.49811 0.0
O77 O 0.31597 0.90064 0.49128 0.0
C78 C 0.33982 0.05494 0.74459 0.0
O79 O 0.37043 0.05312 0.74812 0.0
O80 O 0.38015 -0.00829 0.7199 0.0
Zn81 Zn 0.348 0.98991 0.75561 0.0
O82 O 0.37 -0.00727 0.79967 0.0
C83 C 0.33502 0.9228 0.75455 0.0
O84 O 0.36585 0.92267 0.7568 0.0
O85 O 0.32298 0.02952 0.74855 0.0
C86 C 0.36538 0.97341 0.82375 0.0
O87 O 0.34346 0.95073 0.8214 0.0
C88 C 0.4096 -0.00744 0.72535 0.0
O89 O 0.42066 0.98716 0.7554 0.0
O90 O 0.3214 0.94968 0.75269 0.0
C91 C 0.27729 0.07192 0.02857 0.0
O92 O 0.2753 0.1032 0.02407 0.0
O93 O 0.21694 0.11133 0.05366 0.0
Zn94 Zn 0.21659 0.08276 0.01361 0.0
O95 O 0.22523 0.11095 0.9742 0.0
C96 C 0.1524 0.07726 -0.00024 0.0
O97 O 0.15774 0.10834 -0.00446 0.0
O98 O 0.25322 0.05414 0.02229 0.0
C99 C 0.215 0.10643 0.94484 0.0
O100 O 0.19838 0.08013 0.93799 0.0
C101 C 0.22109 0.14171 0.05157 0.0
O102 O 0.21781 0.15608 0.02266 0.0
O103 O 0.17512 0.05965 0.00847 0.0
C104 C 0.72155 0.44781 0.03957 0.0
O105 O 0.73188 0.43505 0.06743 0.0
O106 O 0.7614 0.37561 0.04776 0.0
Zn107 Zn 0.76731 0.40711 0.01036 0.0
O108 O 0.76438 0.38439 0.96672 0.0
C109 C 0.81308 0.4577 0.02638 0.0
O110 O 0.78973 0.47128 0.04169 0.0
O111 O 0.73342 0.43937 0.01216 0.0
C112 C 0.78734 0.36924 0.95489 0.0
O113 O 0.81374 0.3682 0.97201 0.0
C114 C 0.74871 0.34779 0.04381 0.0
O115 O 0.74013 0.33822 0.01389 0.0
O116 O 0.80888 0.43021 0.01294 0.0
C117 C 0.83481 0.52912 0.20077 0.0
O118 O 0.86023 0.52191 0.18437 0.0
O119 O 0.90348 0.49736 0.23492 0.0
Zn120 Zn 0.86108 0.49131 0.25465 0.0
O121 O 0.8646 0.5069 0.30116 0.0
C122 C 0.85682 0.42416 0.27388 0.0
O123 O 0.88251 0.43045 0.29128 0.0
O124 O 0.83067 0.51813 0.22994 0.0
C125 C 0.84891 0.4951 0.32505 0.0
O126 O 0.82706 0.47291 0.31921 0.0
C127 C 0.91595 0.52531 0.23867 0.0
O128 O 0.90095 0.54705 0.25572 0.0
O129 O 0.84541 0.44584 0.2553 0.0
C130 C 0.77911 0.57502 0.52008 0.0
O131 O 0.77533 0.60567 0.51316 0.0
O132 O 0.72147 0.6171 0.55496 0.0
Zn133 Zn 0.71611 0.58325 0.51951 0.0
O134 O 0.71473 0.60501 0.47476 0.0
C135 C 0.66913 0.53811 0.5002 0.0
O136 O 0.68864 0.53541 0.47535 0.0
O137 O 0.75488 0.55698 0.52369 0.0
C138 C 0.72842 0.59413 0.44934 0.0
O139 O 0.74428 0.56742 0.45196 0.0
C140 C 0.72765 0.64658 0.54834 0.0
O141 O 0.72546 0.6569 0.51753 0.0
O142 O 0.67659 0.5566 0.52434 0.0
C143 C 0.65774 0.47225 0.68458 0.0
O144 O 0.6514 0.4835 0.65475 0.0
O145 O 0.58664 0.52065 0.67586 0.0
Zn146 Zn 0.61952 0.52414 0.71137 0.0
O147 O 0.59787 0.52261 0.75486 0.0
C148 C 0.67151 0.56328 0.72884 0.0
O149 O 0.67966 0.53594 0.74265 0.0
O150 O 0.64646 0.48579 0.70995 0.0
C151 C 0.59251 0.54808 0.77112 0.0
O152 O 0.60123 0.5763 0.75904 0.0
C153 C 0.55968 0.53267 0.67935 0.0
O154 O 0.55443 0.55172 0.70466 0.0
O155 O 0.64648 0.56419 0.71132 0.0
C156 C 0.0477 0.78236 0.83621 0.0
O157 O 0.0263 0.8015 0.82391 0.0
O158 O -0.00566 0.73282 0.91757 0.0
Zn159 Zn 0.0006 0.76969 0.88574 0.0
O160 O -0.00273 0.80987 0.91246 0.0
C161 C 0.95869 0.74455 0.83438 0.0
O162 O 0.97226 0.71695 0.84033 0.0
O163 O 0.04204 0.76713 0.86306 0.0
C164 C 0.97216 0.81142 0.92913 0.0
O165 O 0.95097 0.78801 0.92622 0.0
C166 C 0.00776 0.73509 0.94589 0.0
O167 O 0.02647 0.76006 0.9521 0.0
O168 O 0.96678 0.76931 0.85122 0.0
C169 C 0.94236 0.26836 0.63965 0.0
O170 O 0.94153 0.26722 0.60701 0.0
O171 O 0.00661 0.21482 0.60461 0.0
Zn172 Zn 0.00586 0.2576 0.62658 0.0
O173 O 0.00385 0.29329 0.594 0.0
C174 C 0.05023 0.23849 0.67419 0.0
O175 O 0.03107 0.2132 0.675 0.0
O176 O 0.96793 0.26236 0.65471 0.0
C177 C -0.00403 0.29092 0.56356 0.0
O178 O -0.00747 0.26244 0.54957 0.0
C179 C 0.0321 0.20477 0.59261 0.0
O180 O 0.0571 0.22395 0.59287 0.0
O181 O 0.04377 0.26196 0.65518 0.0
C182 C 0.55567 0.28248 0.34507 0.0
O183 O 0.53989 0.30932 0.34601 0.0
O184 O 0.5081 0.22069 0.41929 0.0
Zn185 Zn 0.50529 0.25351 0.3838 0.0
O186 O 0.49394 0.29434 0.40525 0.0
C187 C 0.46653 0.21231 0.34024 0.0
O188 O 0.47941 0.18745 0.35486 0.0
O189 O 0.54573 0.25763 0.36057 0.0
C190 C 0.46593 0.30411 0.40526 0.0
O191 O 0.44396 0.28842 0.38826 0.0
C192 C 0.48624 0.2166 0.44024 0.0
O193 O 0.4606 0.23347 0.43759 0.0
O194 O 0.47372 0.2408 0.34959 0.0
C195 C 0.43134 0.75338 0.14456 0.0
O196 O 0.43974 0.77013 0.11827 0.0
O197 O 0.50505 0.71145 0.10429 0.0
Zn198 Zn 0.49525 0.73992 0.14263 0.0
O199 O 0.49988 0.78607 0.12939 0.0
C200 C 0.53171 0.70123 0.18618 0.0
O201 O 0.51783 0.6775 0.16965 0.0
O202 O 0.45114 0.73504 0.1584 0.0
C203 C 0.51226 0.79643 0.1028 0.0
O204 O 0.52875 0.77681 0.08465 0.0
C205 C 0.49387 0.71375 0.07501 0.0
O206 O 0.47245 0.73522 0.06847 0.0
O207 O 0.52487 0.73016 0.17928 0.0
C208 C 0.86138 0.0833 0.7624 0.0
O209 O 0.88347 0.08017 0.78515 0.0
O210 O 0.91321 0.00707 0.73013 0.0
Zn211 Zn 0.87294 0.01659 0.75238 0.0
O212 O 0.88121 0.01463 0.80067 0.0
C213 C 0.83766 0.97316 0.70977 0.0
O214 O 0.85618 0.98465 0.68644 0.0
O215 O 0.85516 0.05985 0.74292 0.0
C216 C 0.85966 0.01497 0.82216 0.0
O217 O 0.83005 0.0141 0.8126 0.0
C218 C 0.92363 0.97868 0.73344 0.0
O219 O 0.90756 0.95716 0.75071 0.0
O220 O 0.84097 0.98328 0.73943 0.0
C221 C 0.81713 0.05882 0.50522 0.0
O222 O 0.79683 0.04973 0.48206 0.0
O223 O 0.7647 0.13854 0.55024 0.0
Zn224 Zn 0.77147 0.10551 0.51564 0.0
O225 O 0.77157 0.12608 0.47072 0.0
C226 C 0.72956 0.06425 0.5501 0.0
O227 O 0.74651 0.07472 0.57552 0.0
O228 O 0.81127 0.08305 0.52322 0.0
C229 C 0.75673 0.11354 0.44628 0.0
O230 O 0.74101 0.08625 0.45062 0.0
C231 C 0.74489 0.16064 0.54587 0.0
O232 O 0.73074 0.16377 0.51691 0.0
O233 O 0.73642 0.07374 0.52094 0.0
C234 C 0.67552 0.92312 0.28897 0.0
O235 O 0.66616 0.93556 0.31712 0.0
O236 O 0.60794 0.9695 0.22279 0.0
Zn237 Zn 0.64074 0.97485 0.25854 0.0
O238 O 0.61917 0.98133 0.3017 0.0
C239 C 0.6528 0.03567 0.22954 0.0
O240 O 0.62203 0.03396 0.22769 0.0
O241 O 0.66725 0.93587 0.26156 0.0
C242 C 0.62002 0.00674 0.31921 0.0
O243 O 0.63738 0.03162 0.30968 0.0
C244 C 0.57896 0.97488 0.22707 0.0
O245 O 0.56837 0.97906 0.25727 0.0
O246 O 0.66722 0.01323 0.24445 0.0
C247 C 0.67443 0.91415 0.98254 0.0
O248 O 0.69066 0.91125 0.95516 0.0
O249 O 0.72858 0.84745 0.04591 0.0
Zn250 Zn 0.72743 0.88394 0.01345 0.0
O251 O 0.74053 0.86772 0.96896 0.0
C252 C 0.75593 0.92607 0.06169 0.0
O253 O 0.73803 0.90941 0.0822 0.0
O254 O 0.68501 0.903 0.0098 0.0
C255 C 0.7249 0.84391 0.95692 0.0
O256 O 0.70181 0.8312 0.97441 0.0
C257 C 0.75533 0.83769 0.05539 0.0
O258 O 0.78079 0.85117 0.04279 0.0
O259 O 0.75579 0.91919 0.03085 0.0
C260 C 0.31811 0.54335 0.98728 0.0
O261 O 0.29689 0.54134 0.96339 0.0
O262 O 0.28292 0.63282 0.03707 0.0
Zn263 Zn 0.28304 0.59765 0.00318 0.0
O264 O 0.28543 0.61728 0.95795 0.0
C265 C 0.23674 0.56187 0.03825 0.0
O266 O 0.26007 0.55677 0.05909 0.0
O267 O 0.3168 0.56598 0.0085 0.0
C268 C 0.2664 0.60841 0.93514 0.0
O269 O 0.24565 0.5853 0.94137 0.0
C270 C 0.26815 0.6583 0.02977 0.0
O271 O 0.25931 0.66342 -0.00112 0.0
O272 O 0.24197 0.5761 0.0108 0.0
C273 C 0.1442 0.43389 0.81309 0.0
O274 O 0.12366 0.44115 0.83588 0.0
O275 O 0.08079 0.46039 0.73276 0.0
Zn276 Zn 0.10807 0.47579 0.76998 0.0
O277 O 0.08228 0.48623 0.80915 0.0
C278 C 0.14654 0.51599 0.72711 0.0
O279 O 0.15445 0.48862 0.71343 0.0
O280 O 0.14133 0.44506 0.78372 0.0
C281 C 0.09096 0.50974 0.82738 0.0
O282 O 0.11605 0.52686 0.81913 0.0
C283 C 0.05638 0.4769 0.72786 0.0
O284 O 0.04798 0.49758 0.75065 0.0
O285 O 0.12827 0.51582 0.75192 0.0
C286 C 0.16398 0.39826 0.4772 0.0
O287 O 0.17482 0.38359 0.45092 0.0
O288 O 0.23142 0.35954 0.55292 0.0
Zn289 Zn 0.22183 0.37901 0.50836 0.0
O290 O 0.22934 0.34826 0.47113 0.0
C291 C 0.25384 0.43778 0.52728 0.0
O292 O 0.2398 0.43281 0.55583 0.0
O293 O 0.17881 0.39688 0.50477 0.0
C294 C 0.25581 0.34858 0.45686 0.0
O295 O 0.27818 0.36827 0.46785 0.0
C296 C 0.25577 0.34296 0.55832 0.0
O297 O 0.27391 0.33536 0.53346 0.0
O298 O 0.24998 0.41754 0.50381 0.0
C299 C 0.30193 0.55324 0.23299 0.0
O300 O 0.30762 0.5323 0.25674 0.0
O301 O 0.38645 0.53044 0.17398 0.0
Zn302 Zn 0.35411 0.52294 0.20844 0.0
O303 O 0.37435 0.52804 0.25317 0.0
C304 C 0.35632 0.45549 0.20139 0.0
O305 O 0.3866 0.46217 0.20348 0.0
O306 O 0.31883 0.55356 0.2071 0.0
C307 C 0.4034 0.52798 0.26062 0.0
O308 O 0.42407 0.52226 0.23746 0.0
C309 C 0.40514 0.55468 0.17256 0.0
O310 O 0.40162 0.57911 0.19287 0.0
O311 O 0.33703 0.47826 0.20325 0.0
O312 O 0.95192 0.08631 0.02662 0.0
Zn313 Zn 0.95592 0.043 0.00576 0.0
O314 O 0.94552 0.00911 0.03764 0.0
Zn315 Zn 0.98213 0.98299 0.04502 0.0
Zn316 Zn 0.93064 0.02755 0.07934 0.0
Zn317 Zn 0.91318 0.98144 0.01921 0.0
O318 O 0.97813 0.93927 0.02368 0.0
O319 O 0.92799 0.93753 0.00861 0.0
O320 O 0.0015 0.04252 -0.00663 0.0
O321 O 0.02036 0.00454 0.02626 0.0
O322 O -0.00944 0.9787 0.09345 0.0
O323 O 0.957 0.01137 0.11745 0.0
O324 O 0.88473 0.01533 0.08836 0.0
O325 O 0.92875 0.04004 0.96471 0.0
O326 O 0.87722 0.9781 0.04903 0.0
O327 O 0.89699 -0.00142 0.97653 0.0
C328 C 0.94579 0.09588 0.05582 0.0
C329 C 0.9546 0.92443 0.0107 0.0
C330 C 0.97975 -0.00805 0.11931 0.0
C331 C 0.02458 0.02719 0.00532 0.0
C332 C 0.86792 -0.00662 0.07425 0.0
C333 C 0.9056 0.02132 0.95729 0.0
O334 O 0.93742 0.076 0.07849 0.0
O335 O 0.20146 0.71645 0.1608 0.0
Zn336 Zn 0.19854 0.72163 0.2098 0.0
O337 O 0.22608 0.75702 0.22467 0.0
Zn338 Zn 0.26097 0.74085 0.25117 0.0
Zn339 Zn 0.24119 0.7817 0.18609 0.0
Zn340 Zn 0.20269 0.78453 0.25247 0.0
O341 O 0.26458 0.76108 0.2967 0.0
O342 O 0.22088 0.78891 0.29785 0.0
O343 O 0.21465 0.67966 0.22628 0.0
O344 O 0.25732 0.69292 0.25593 0.0
O345 O 0.30115 0.74961 0.2274 0.0
O346 O 0.28814 0.7831 0.18664 0.0
O347 O 0.22558 0.82781 0.1847 0.0
O348 O 0.15378 0.72542 0.22501 0.0
O349 O 0.20283 0.82837 0.23419 0.0
O350 O 0.15862 0.76924 0.25636 0.0
C351 C 0.21681 0.7309 0.13805 0.0
C352 C 0.24579 0.77926 0.31189 0.0
C353 C 0.30866 0.76755 0.20291 0.0
C354 C 0.23808 0.67187 0.24414 0.0
C355 C 0.21169 0.84261 0.20787 0.0
C356 C 0.14205 0.74608 0.24439 0.0
O357 O 0.23191 0.7572 0.14384 0.0
O358 O 0.52077 0.93801 0.51612 0.0
Zn359 Zn 0.51142 0.98092 0.49621 0.0
O360 O 0.51916 0.01517 0.52853 0.0
Zn361 Zn 0.48029 0.03647 0.53839 0.0
Zn362 Zn 0.53789 -0.00196 0.56932 0.0
Zn363 Zn 0.54793 0.04607 0.50966 0.0
O364 O 0.48157 0.08314 0.52472 0.0
O365 O 0.53143 0.09032 0.51063 0.0
O366 O 0.46569 0.97717 0.48466 0.0
O367 O 0.44353 0.01418 0.51584 0.0
O368 O 0.47209 0.03342 0.58696 0.0
O369 O 0.51364 0.01037 0.60977 0.0
O370 O 0.58412 0.00954 0.57404 0.0
O371 O 0.53618 0.9875 0.45433 0.0
O372 O 0.58912 0.04423 0.53211 0.0
O373 O 0.55758 0.03603 0.46249 0.0
C374 C 0.5281 0.92948 0.54554 0.0
C375 C 0.50423 0.1014 0.51534 0.0
C376 C 0.48684 0.02313 0.61237 0.0
C377 C 0.44135 -0.00898 0.49514 0.0
C378 C 0.6007 0.02862 0.55628 0.0
C379 C 0.55272 0.01144 0.44418 0.0
O380 O 0.53439 0.95021 0.56802 0.0
O381 O 0.24613 0.23135 0.84801 0.0
Zn382 Zn 0.25947 0.26779 0.81756 0.0
O383 O 0.25363 0.25515 0.77104 0.0
Zn384 Zn 0.29333 0.25201 0.74724 0.0
Zn385 Zn 0.22993 0.21465 0.76805 0.0
Zn386 Zn 0.22952 0.28754 0.75016 0.0
O387 O 0.29291 0.27666 0.70284 0.0
O388 O 0.24804 0.3021 0.70838 0.0
O389 O 0.30533 0.27663 0.82557 0.0
O390 O 0.32887 0.26797 0.77728 0.0
O391 O 0.30118 0.20519 0.73787 0.0
O392 O 0.25462 0.18121 0.7451 0.0
O393 O 0.18746 0.219 0.74656 0.0
O394 O 0.23626 0.30873 0.82946 0.0
O395 O 0.1864 0.27184 0.73901 0.0
O396 O 0.22558 0.32557 0.77828 0.0
C397 C 0.23185 0.20451 0.8425 0.0
C398 C 0.27256 0.29636 0.69204 0.0
C399 C 0.28336 0.18007 0.7369 0.0
C400 C 0.32996 0.27625 0.80786 0.0
C401 C 0.17305 0.24416 0.73758 0.0
C402 C 0.2268 0.33033 0.80938 0.0
O403 O 0.22355 0.1962 0.81323 0.0
O404 O 0.01914 0.98737 0.45989 0.0
Zn405 Zn -0.00282 0.97185 0.50083 0.0
O406 O 0.0221 0.98208 0.54039 0.0
Zn407 Zn 0.03359 0.9427 0.56417 0.0
Zn408 Zn 0.05905 0.00878 0.52919 0.0
Zn409 Zn -0.00332 0.00698 0.56859 0.0
O410 O 0.01815 0.94183 0.61219 0.0
O411 O -0.00262 0.99045 0.61403 0.0
O412 O -0.00873 0.92444 0.49659 0.0
O413 O 0.01693 0.90322 0.53958 0.0
O414 O 0.08046 0.93981 0.5638 0.0
O415 O 0.09846 0.98601 0.54229 0.0
O416 O 0.05805 0.05434 0.54756 0.0
O417 O 0.9541 0.99051 0.50168 0.0
O418 O 0.01102 0.05219 0.5703 0.0
O419 O 0.9524 0.00823 0.55344 0.0
C420 C 0.04411 0.00425 0.45562 0.0
C421 C 0.00538 0.96451 0.62819 0.0
C422 C 0.1032 0.95822 0.55476 0.0
C423 C 0.00033 0.90018 0.51317 0.0
C424 C 0.03552 0.06805 0.56205 0.0
C425 C 0.93911 0.00276 0.52555 0.0
O426 O 0.06109 0.01404 0.47992 0.0
O427 O 0.31177 0.71738 0.73313 0.0
Zn428 Zn 0.27403 0.72791 0.75966 0.0
O429 O 0.23632 0.72012 0.73256 0.0
Zn430 Zn 0.21635 0.76048 0.72103 0.0
Zn431 Zn 0.24637 0.69497 0.69316 0.0
Zn432 Zn 0.20698 0.69549 0.75779 0.0
O433 O 0.17351 0.76587 0.74244 0.0
O434 O 0.17177 0.72153 0.77319 0.0
O435 O 0.28028 0.77526 0.76935 0.0
O436 O 0.24353 0.79705 0.73745 0.0
O437 O 0.21565 0.76592 0.67143 0.0
O438 O 0.23621 0.72077 0.65258 0.0
O439 O 0.22352 0.65126 0.69137 0.0
O440 O 0.2742 0.70095 0.80164 0.0
O441 O 0.18975 0.65859 0.73219 0.0
O442 O 0.22732 0.67692 0.79752 0.0
C443 C 0.31597 0.70274 0.70583 0.0
C444 C 0.16034 0.74835 0.7646 0.0
C445 C 0.22525 0.74868 0.64751 0.0
C446 C 0.26727 0.7999 0.75676 0.0
C447 C 0.19959 0.64209 0.70801 0.0
C448 C 0.25348 0.68105 0.81251 0.0
O449 O 0.29304 0.69074 0.68908 0.0
O450 O 0.52543 0.02085 0.08472 0.0
Zn451 Zn 0.51915 0.02482 0.03579 0.0
O452 O 0.48017 0.00311 0.02318 0.0
Zn453 Zn 0.48871 0.9675 -0.00662 0.0
Zn454 Zn 0.45775 0.98684 0.06218 0.0
Zn455 Zn 0.45448 0.03327 0.00041 0.0
O456 O 0.45965 0.96694 0.95372 0.0
O457 O 0.44074 0.01639 0.95618 0.0
O458 O 0.55506 0.00213 0.01557 0.0
O459 O 0.53365 0.96808 0.97884 0.0
O460 O 0.48475 0.92594 0.01816 0.0
O461 O 0.45962 0.9388 0.06404 0.0
O462 O 0.41263 0.00155 0.06359 0.0
O463 O 0.52163 0.07152 0.02111 0.0
O464 O 0.41527 0.04009 0.02504 0.0
O465 O 0.4761 0.07564 -0.0056 0.0
C466 C 0.50895 0.01034 0.10883 0.0
C467 C 0.44298 0.98932 0.94168 0.0
C468 C 0.47284 0.91806 0.04596 0.0
C469 C 0.5577 0.98129 -0.00737 0.0
C470 C 0.40062 0.02501 0.04783 0.0
C471 C 0.50227 0.08788 0.00406 0.0
O472 O 0.48121 -0.00101 0.10415 0.0
O473 O 0.19844 0.2572 0.2524 0.0
Zn474 Zn 0.23769 0.24224 0.2758 0.0
O475 O 0.27426 0.24745 0.24684 0.0
Zn476 Zn 0.29122 0.20544 0.23607 0.0
Zn477 Zn 0.2627 0.27001 0.20613 0.0
Zn478 Zn 0.3064 0.27265 0.26906 0.0
O479 O 0.33626 0.20001 0.25071 0.0
O480 O 0.3455 0.24826 0.27319 0.0
O481 O 0.22869 0.19531 0.28541 0.0
O482 O 0.26549 0.17067 0.25685 0.0
O483 O 0.28576 0.19648 0.1877 0.0
O484 O 0.26686 0.24146 0.16645 0.0
O485 O 0.28641 0.31208 0.19962 0.0
O486 O 0.24426 0.26599 0.31917 0.0
O487 O 0.31721 0.31286 0.24444 0.0
O488 O 0.29307 0.28519 0.31452 0.0
C489 C 0.19412 0.27088 0.2244 0.0
C490 C 0.3545 0.22034 0.26523 0.0
C491 C 0.27516 0.21237 0.16312 0.0
C492 C 0.24139 0.16972 0.27518 0.0
C493 C 0.30767 0.32561 0.21754 0.0
C494 C 0.26802 0.28141 0.33115 0.0
O495 O 0.21708 0.27838 0.20579 0.0
O496 O 0.52613 0.51595 0.91357 0.0
Zn497 Zn 0.50977 0.49963 0.95678 0.0
O498 O 0.52852 0.52456 0.99174 0.0
Zn499 Zn 0.53725 0.49801 0.02945 0.0
Zn500 Zn 0.56308 0.55154 0.97821 0.0
Zn501 Zn 0.49922 0.55502 0.00418 0.0
O502 O 0.51187 0.51288 0.06864 0.0
O503 O 0.50103 0.56272 0.05273 0.0
O504 O 0.52281 0.45453 0.96305 0.0
O505 O 0.52908 0.45061 0.01803 0.0
O506 O 0.58341 0.50194 0.03906 0.0
O507 O 0.60226 0.53429 -0.0007 0.0
O508 O 0.55596 0.59753 -0.00659 0.0
O509 O 0.46208 0.49894 0.9586 0.0
O510 O 0.50575 0.59637 0.98037 0.0
O511 O 0.45696 0.53765 -0.00393 0.0
C512 C 0.54874 0.5352 0.90608 0.0
C513 C 0.50136 0.54084 0.07489 0.0
C514 C 0.60642 0.51563 0.02417 0.0
C515 C 0.5273 0.43784 0.98918 0.0
C516 C 0.53035 0.61231 0.98863 0.0
C517 C 0.44523 0.51546 0.97787 0.0
O518 O 0.56518 0.54999 0.92827 0.0
O519 O 0.82121 0.22253 0.25001 0.0
Zn520 Zn 0.78251 0.23374 0.2747 0.0
O521 O 0.74616 0.23207 0.24446 0.0
Zn522 Zn 0.72952 0.27493 0.23845 0.0
Zn523 Zn 0.75714 0.21311 0.20181 0.0
Zn524 Zn 0.71407 0.20553 0.26357 0.0
O525 O 0.68691 0.28063 0.25918 0.0
O526 O 0.67679 0.23022 0.27471 0.0
O527 O 0.79285 0.27927 0.28899 0.0
O528 O 0.75935 0.30712 0.25833 0.0
O529 O 0.72729 0.28564 0.1901 0.0
O530 O 0.74427 0.2423 0.16396 0.0
O531 O 0.73801 0.16803 0.19557 0.0
O532 O 0.77707 0.20421 0.31445 0.0
O533 O 0.70087 0.17004 0.23391 0.0
O534 O 0.72893 0.18458 0.30503 0.0
C535 C 0.82633 0.21588 0.21971 0.0
C536 C 0.66882 0.25945 0.27229 0.0
C537 C 0.73379 0.27087 0.16339 0.0
C538 C 0.7828 0.30602 0.27811 0.0
C539 C 0.71359 0.15627 0.20953 0.0
C540 C 0.75397 0.18578 0.32243 0.0
O541 O 0.80387 0.21171 0.19892 0.0
O542 O 0.02294 0.51158 0.57464 0.0
Zn543 Zn 0.01954 0.51904 0.52569 0.0
O544 O 0.97984 0.50172 0.5113 0.0
Zn545 Zn 0.98419 0.47244 0.47456 0.0
Zn546 Zn 0.95472 0.48197 0.54603 0.0
Zn547 Zn 0.95531 0.53711 0.4995 0.0
O548 O 0.95194 0.48272 0.4393 0.0
O549 O 0.92869 0.52575 0.46031 0.0
O550 O 0.05223 0.49327 0.50433 0.0
O551 O 0.02968 0.4699 0.46015 0.0
O552 O 0.97506 0.42753 0.49006 0.0
O553 O 0.95349 0.43428 0.53939 0.0
O554 O 0.9102 0.49918 0.54472 0.0
O555 O 0.02726 0.56608 0.51214 0.0
O556 O 0.9281 0.54851 0.53679 0.0
O557 O 0.98071 0.57541 0.48925 0.0
C558 C 0.00478 0.49958 0.59671 0.0
C559 C 0.93061 0.5039 0.43831 0.0
C560 C 0.96304 0.41595 0.5164 0.0
C561 C 0.05401 0.47654 0.47795 0.0
C562 C 0.90529 0.52928 0.54241 0.0
C563 C 0.00848 0.58454 0.49674 0.0
O564 O 0.97702 0.48918 0.58987 0.0
O565 O 0.72754 0.69868 0.32917 0.0
Zn566 Zn 0.74552 0.7298 0.2954 0.0
O567 O 0.74008 0.71355 0.25058 0.0
Zn568 Zn 0.77911 0.71366 0.22604 0.0
Zn569 Zn 0.72001 0.6715 0.25214 0.0
Zn570 Zn 0.71302 0.74118 0.22756 0.0
O571 O 0.77797 0.74506 0.18699 0.0
O572 O 0.72627 0.74821 0.18102 0.0
O573 O 0.79123 0.72993 0.30549 0.0
O574 O 0.81593 0.72218 0.25768 0.0
O575 O 0.78445 0.66938 0.20671 0.0
O576 O 0.7416 0.64158 0.22155 0.0
O577 O 0.67358 0.67275 0.24148 0.0
O578 O 0.73058 0.77589 0.30048 0.0
O579 O 0.6692 0.7247 0.22908 0.0
O580 O 0.71439 0.78396 0.24852 0.0
C581 C 0.72466 0.66807 0.32659 0.0
C582 C 0.75387 0.75321 0.17007 0.0
C583 C 0.76753 0.6436 0.20606 0.0
C584 C 0.81633 0.72679 0.28907 0.0
C585 C 0.65693 0.69698 0.23441 0.0
C586 C 0.72076 0.79446 0.27749 0.0
O587 O 0.72416 0.65418 0.29836 0.0
O588 O 0.71995 0.22186 0.69066 0.0
Zn589 Zn 0.72806 0.23212 0.73849 0.0
O590 O 0.74913 0.27426 0.74257 0.0
Zn591 Zn 0.78899 0.26997 0.76658 0.0
Zn592 Zn 0.75612 0.29324 0.69859 0.0
Zn593 Zn 0.72286 0.30214 0.76739 0.0
O594 O 0.78985 0.29297 0.81083 0.0
O595 O 0.74294 0.31502 0.81043 0.0
O596 O 0.75678 0.1972 0.75305 0.0
O597 O 0.79875 0.22337 0.77326 0.0
O598 O 0.82475 0.28548 0.7386 0.0
O599 O 0.80231 0.29755 0.6903 0.0
O600 O 0.73607 0.33657 0.6929 0.0
O601 O 0.68697 0.22916 0.76318 0.0
O602 O 0.71398 0.34217 0.74222 0.0
O603 O 0.68207 0.28038 0.77796 0.0
C604 C 0.72633 0.23601 0.66339 0.0
C605 C 0.76918 0.31 0.82468 0.0
C606 C 0.82678 0.29395 0.70827 0.0
C607 C 0.78432 0.19718 0.76559 0.0
C608 C 0.72012 0.35278 0.71328 0.0
C609 C 0.6712 0.25161 0.77607 0.0
O610 O 0.73983 0.26368 0.6628 0.0
O611 O 0.68317 0.76964 0.74045 0.0
Zn612 Zn 0.72266 0.7565 0.76394 0.0
O613 O 0.75956 0.76687 0.73715 0.0
Zn614 Zn 0.78368 0.72812 0.72933 0.0
Zn615 Zn 0.7473 0.78627 0.69468 0.0
Zn616 Zn 0.78547 0.79718 0.76125 0.0
O617 O 0.82799 0.73129 0.74778 0.0
O618 O 0.82904 0.7816 0.76664 0.0
O619 O 0.71728 0.70867 0.76703 0.0
O620 O 0.76129 0.68894 0.74717 0.0
O621 O 0.78385 0.71797 0.68077 0.0
O622 O 0.75692 0.75688 0.65673 0.0
O623 O 0.76578 0.83127 0.68786 0.0
O624 O 0.72495 0.77657 0.8099 0.0
O625 O 0.78712 0.83912 0.73802 0.0
O626 O 0.76926 0.80533 0.80659 0.0
C627 C 0.67812 0.7815 0.71173 0.0
C628 C 0.84263 0.75518 0.7611 0.0
C629 C 0.77101 0.73018 0.65512 0.0
C630 C 0.73408 0.68483 0.75944 0.0
C631 C 0.77958 0.8493 0.70931 0.0
C632 C 0.74531 0.79593 0.82283 0.0
O633 O 0.70061 0.78909 0.69246 0.0
O634 O 0.47409 0.58644 0.47736 0.0
Zn635 Zn 0.47792 0.54108 0.46056 0.0
O636 O 0.45127 0.51278 0.48749 0.0
Zn637 Zn 0.47577 0.48016 0.50909 0.0
Zn638 Zn 0.43032 0.53612 0.52201 0.0
Zn639 Zn 0.4201 0.49271 0.45973 0.0
O640 O 0.46589 0.43654 0.49074 0.0
O641 O 0.42829 0.4459 0.45372 0.0
O642 O 0.52337 0.52976 0.46596 0.0
O643 O 0.52148 0.48947 0.50249 0.0
O644 O 0.47171 0.48061 0.55832 0.0
O645 O 0.45365 0.52971 0.56512 0.0
O646 O 0.38452 0.5227 0.52656 0.0
O647 O 0.46494 0.54053 0.41185 0.0
O648 O 0.37789 0.49644 0.47885 0.0
O649 O 0.41987 0.51259 0.41527 0.0
C650 C 0.45434 0.59958 0.49636 0.0
C651 C 0.44686 0.42667 0.46821 0.0
C652 C 0.46783 0.50525 0.57646 0.0
C653 C 0.53695 0.5094 0.48465 0.0
C654 C 0.36692 0.50799 0.50544 0.0
C655 C 0.43946 0.52958 0.39884 0.0
O656 O 0.4341 0.58309 0.51261 0.0
O657 O 0.01707 0.45735 0.03737 0.0
Zn658 Zn 0.00618 0.50059 0.01865 0.0
O659 O 0.02089 0.53565 0.04747 0.0
Zn660 Zn 0.98541 0.56117 0.06169 0.0
Zn661 Zn 0.04487 0.51799 0.08495 0.0
Zn662 Zn 0.04807 0.56406 0.02299 0.0
O663 O 0.98576 0.60651 0.04206 0.0
O664 O 0.03363 0.60882 0.02091 0.0
O665 O 0.95971 0.49968 0.01565 0.0
O666 O 0.94443 0.53938 0.04816 0.0
O667 O 0.98557 0.56262 0.11146 0.0
O668 O 0.02427 0.53056 0.12752 0.0
O669 O 0.09097 0.5317 0.08486 0.0
O670 O 0.02332 0.50462 0.97253 0.0
O671 O 0.09063 0.5647 0.04151 0.0
O672 O 0.05188 0.54979 0.97635 0.0
C673 C 0.03198 0.44889 0.06339 0.0
C674 C 0.00792 0.62203 0.02766 0.0
C675 C 0.00134 0.54863 0.1342 0.0
C676 C 0.93808 0.51554 0.02911 0.0
C677 C 0.10511 0.55103 0.06513 0.0
C678 C 0.04116 0.52606 0.95949 0.0
O679 O 0.04376 0.46956 0.08359 0.0
C680 C 0.97173 0.16783 0.10771 0.0
C681 C 0.97965 0.19139 0.08376 0.0
C682 C 0.95892 0.13777 0.09849 0.0
C683 C 0.95381 0.12978 0.06486 0.0
H684 H 0.97543 0.17255 0.13398 0.0
H685 H 0.95412 0.12029 0.11794 0.0
S686 S 0.96847 0.18381 -0.00749 0.0
N687 N 0.97976 0.20551 0.0251 0.0
N688 N 0.95596 0.14875 0.0075 0.0
C689 C 0.96061 0.15353 0.04064 0.0
C690 C 0.97346 0.18436 0.05015 0.0
C691 C 0.06887 0.76421 0.29136 0.0
C692 C 0.05485 0.73354 0.29579 0.0
C693 C 0.09567 0.76834 0.27212 0.0
C694 C 0.10971 0.7419 0.25677 0.0
H695 H 0.05983 0.78511 0.30395 0.0
H696 H 0.10641 0.79227 0.27078 0.0
S697 S 0.07935 0.65724 0.25671 0.0
N698 N 0.05452 0.67684 0.28017 0.0
N699 N 0.1055 0.68452 0.24405 0.0
C700 C 0.09442 0.71149 0.25862 0.0
C701 C 0.06682 0.70732 0.2782 0.0
C702 C 0.50756 0.84034 0.53997 0.0
C703 C 0.51134 0.83001 0.57295 0.0
C704 C 0.51422 0.87235 0.53103 0.0
C705 C 0.52533 0.895 0.55473 0.0
H706 H 0.49876 0.82374 0.52107 0.0
H707 H 0.50991 0.87945 0.50547 0.0
S708 S 0.54343 0.87817 0.64368 0.0
N709 N 0.52952 0.84355 0.62882 0.0
N710 N 0.5426 0.9037 0.61216 0.0
C711 C 0.53068 0.88436 0.58758 0.0
C712 C 0.52347 0.85187 0.59668 0.0
C713 C 0.41662 0.27052 0.82853 0.0
C714 C 0.41937 0.28619 0.85953 0.0
C715 C 0.38797 0.26886 0.81115 0.0
C716 C 0.36081 0.28252 0.82423 0.0
H717 H 0.43662 0.25879 0.81782 0.0
H718 H 0.38687 0.25558 0.78797 0.0
S719 S 0.35596 0.32905 0.90282 0.0
N720 N 0.39287 0.31781 0.90134 0.0
N721 N 0.33896 0.3145 0.86876 0.0
C722 C 0.36349 0.29951 0.85447 0.0
C723 C 0.39277 0.30141 0.87207 0.0
C724 C 0.95977 0.83358 0.46451 0.0
C725 C 0.9848 0.81337 0.45723 0.0
C726 C 0.96454 0.86091 0.48451 0.0
C727 C -0.0058 0.86816 0.49868 0.0
H728 H 0.93685 0.82929 0.45318 0.0
H729 H 0.94523 0.87713 0.48793 0.0
S730 S 0.0663 0.82058 0.49023 0.0
N731 N 0.03958 0.80089 0.46755 0.0
N732 N 0.04825 0.85176 0.50618 0.0
C733 C 0.01882 0.84688 0.49347 0.0
C734 C 0.0142 0.81958 0.47239 0.0
C735 C 0.40273 0.721 0.69641 0.0
C736 C 0.40445 0.73036 0.66288 0.0
C737 C 0.37425 0.70982 0.70992 0.0
C738 C 0.34694 0.70668 0.69003 0.0
H739 H 0.42309 0.7238 0.71263 0.0
H740 H 0.37331 0.70474 0.73633 0.0
S741 S 0.34058 0.72434 0.59963 0.0
N742 N 0.37749 0.73336 0.60944 0.0
N743 N 0.32422 0.71153 0.63442 0.0
C744 C 0.34907 0.71389 0.65589 0.0
C745 C 0.37779 0.72602 0.64242 0.0
C746 C 0.49253 0.17057 0.96671 0.0
C747 C 0.5236 0.182 0.96271 0.0
C748 C 0.48602 0.14085 0.98168 0.0
C749 C 0.51028 0.12117 -0.0067 0.0
H750 H 0.47292 0.18429 0.95743 0.0
H751 H 0.46166 0.13287 0.98324 0.0
S752 S 0.59567 0.14127 0.99174 0.0
N753 N 0.57895 0.17251 0.97386 0.0
N754 N 0.56663 0.11624 0.00209 0.0
C755 C 0.54145 0.13303 0.99126 0.0
C756 C 0.54813 0.16354 0.97591 0.0
C757 C 0.10549 0.2615 0.21683 0.0
C758 C 0.1008 0.26185 0.18221 0.0
C759 C 0.13563 0.26625 0.23065 0.0
C760 C 0.16187 0.27231 0.21028 0.0
H761 H 0.08598 0.25623 0.23321 0.0
H762 H 0.13852 0.26416 0.25736 0.0
S763 S 0.16046 0.28032 0.11804 0.0
N764 N 0.12374 0.27163 0.12801 0.0
N765 N 0.18015 0.28153 0.15358 0.0
C766 C 0.15684 0.2749 0.17563 0.0
C767 C 0.12636 0.26934 0.16168 0.0
C768 C 0.00725 0.00895 0.20754 0.0
C769 C 0.03677 -0.00539 0.20833 0.0
C770 C 0.98781 0.00623 0.17931 0.0
C771 C -0.00284 0.98872 0.15118 0.0
H772 H -0.00017 0.02373 0.22811 0.0
H773 H 0.96601 0.01921 0.17903 0.0
S774 S 0.07003 0.94138 0.14423 0.0
N775 N 0.07282 0.95882 0.18103 0.0
N776 N 0.03626 0.95297 0.12823 0.0
C777 C 0.02559 0.97195 0.15307 0.0
C778 C 0.04546 0.97516 0.18157 0.0
C779 C 0.29422 0.80769 0.38632 0.0
C780 C 0.27184 0.82267 0.40628 0.0
C781 C 0.28546 0.7925 0.35642 0.0
C782 C 0.25399 0.79177 0.34537 0.0
H783 H 0.31885 0.80827 0.39342 0.0
H784 H 0.30366 0.78221 0.34138 0.0
S785 S 0.18573 0.82413 0.39034 0.0
N786 N 0.21639 0.83346 0.41415 0.0
N787 N 0.19998 0.80495 0.35809 0.0
C788 C 0.23118 0.80547 0.36578 0.0
C789 C 0.24008 0.82092 0.39617 0.0
C790 C 0.46089 0.99076 0.69597 0.0
C791 C 0.43076 0.00348 0.69872 0.0
C792 C 0.48012 -0.00094 0.66904 0.0
C793 C 0.46991 0.02068 0.64427 0.0
H794 H 0.46907 0.97317 0.71386 0.0
H795 H 0.50237 0.98713 0.66679 0.0
S796 S 0.39547 0.06578 0.64447 0.0
N797 N 0.3933 0.04203 0.67737 0.0
N798 N 0.42961 0.05835 0.62733 0.0
C799 C 0.44087 0.03564 0.64851 0.0
C800 C 0.42119 0.02679 0.67555 0.0
C801 C 0.20458 0.12906 0.88832 0.0
C802 C 0.2197 0.13195 0.91942 0.0
C803 C 0.20801 0.15308 0.86407 0.0
C804 C 0.22671 0.18105 0.86988 0.0
H805 H 0.18989 0.10809 0.88252 0.0
H806 H 0.19602 0.14945 0.84043 0.0
S807 S 0.27139 0.20042 0.9474 0.0
N808 N 0.25418 0.16512 0.95486 0.0
N809 N 0.26047 0.21029 0.9093 0.0
C810 C 0.24173 0.18446 0.90105 0.0
C811 C 0.23832 0.1599 0.92576 0.0
C812 C 0.06258 -0.00809 0.36508 0.0
C813 C 0.0791 0.0205 0.35684 0.0
C814 C 0.05024 0.98738 0.39686 0.0
C815 C 0.05474 0.01097 0.42162 0.0
H816 H 0.0592 0.97289 0.34684 0.0
H817 H 0.03801 0.96482 0.40239 0.0
S818 S 0.09582 0.09029 0.4123 0.0
N819 N 0.09858 0.07311 0.37544 0.0
N820 N 0.0761 0.06421 0.43568 0.0
C821 C 0.07092 0.03982 0.41359 0.0
C822 C 0.0829 0.04471 0.38101 0.0
C823 C 0.24249 0.81417 0.58469 0.0
C824 C 0.25382 0.79702 0.55735 0.0
C825 C 0.23084 0.79811 0.61267 0.0
C826 C 0.2306 0.76418 0.61476 0.0
H827 H 0.24256 0.84032 0.58454 0.0
H828 H 0.22334 0.81262 0.63339 0.0
S829 S 0.25591 0.70811 0.54866 0.0
N830 N 0.26237 0.74446 0.5329 0.0
N831 N 0.24116 0.71391 0.58595 0.0
C832 C 0.24085 0.74668 0.58699 0.0
C833 C 0.25233 0.76318 0.55821 0.0
C834 C 0.39903 0.0065 0.86192 0.0
C835 C 0.38527 0.97636 0.85378 0.0
C836 C 0.41809 0.01025 0.89017 0.0
C837 C 0.42461 0.98387 0.91093 0.0
H838 H 0.39466 0.02752 0.84665 0.0
H839 H 0.42778 0.03405 0.8958 0.0
S840 S 0.39525 0.89958 0.89985 0.0
N841 N 0.3799 0.91947 0.86822 0.0
N842 N 0.4163 0.92646 0.92126 0.0
C843 C 0.41157 0.95342 0.90274 0.0
C844 C 0.39166 0.9497 0.87421 0.0
C845 C 0.23353 0.19307 0.08168 0.0
C846 C 0.23607 0.15942 0.07954 0.0
C847 C 0.24805 0.21042 0.10767 0.0
C848 C 0.26599 0.1948 0.1323 0.0
H849 H 0.21962 0.20603 0.06357 0.0
H850 H 0.24415 0.23613 0.10903 0.0
S851 S 0.28372 0.10739 0.1349 0.0
N852 N 0.26028 0.11137 0.10232 0.0
N853 N 0.28815 0.14396 0.15065 0.0
C854 C 0.27024 0.16132 0.12923 0.0
C855 C 0.25503 0.14362 0.10308 0.0
C856 C 0.1134 0.03237 0.0091 0.0
C857 C 0.12015 0.06345 -0.00335 0.0
C858 C 0.08255 0.02011 0.01 0.0
C859 C 0.05718 0.03835 -0.00168 0.0
H860 H 0.13191 0.01779 0.01948 0.0
H861 H 0.07851 -0.00345 0.02109 0.0
S862 S 0.06283 0.1195 0.95911 0.0
N863 N 0.09939 0.11099 0.96925 0.0
N864 N 0.04134 0.08798 0.97094 0.0
C865 C 0.06384 0.06866 0.98379 0.0
C866 C 0.09532 0.08122 0.98303 0.0
C867 C 0.68897 0.48845 0.01063 0.0
C868 C 0.69497 0.47005 0.03933 0.0
C869 C 0.66132 0.5057 0.00718 0.0
C870 C 0.63845 0.50486 0.03216 0.0
H871 H 0.70513 0.48846 0.98998 0.0
H872 H 0.65698 0.51788 0.98378 0.0
S873 S 0.64534 0.46504 0.11458 0.0
N874 N 0.67781 0.4556 0.09508 0.0
N875 N 0.62554 0.4879 0.08846 0.0
C876 C 0.64536 0.48884 0.06216 0.0
C877 C 0.67371 0.47146 0.06579 0.0
C878 C 0.80587 0.39398 0.27284 0.0
C879 C 0.83843 0.39403 0.27905 0.0
C880 C 0.78767 0.36571 0.27529 0.0
C881 C 0.80129 0.33618 0.28376 0.0
H882 H 0.79429 0.4159 0.2654 0.0
H883 H 0.76288 0.36685 0.26909 0.0
S884 S 0.88528 0.32391 0.30524 0.0
N885 N 0.88332 0.36279 0.29657 0.0
N886 N 0.84914 0.30912 0.30069 0.0
C887 C 0.83358 0.33617 0.29193 0.0
C888 C 0.85216 0.36523 0.28962 0.0
C889 C 0.81634 0.53484 0.54387 0.0
C890 C 0.81105 0.56265 0.52464 0.0
C891 C 0.84695 0.52422 0.55002 0.0
C892 C 0.87315 0.54122 0.53732 0.0
H893 H 0.79677 0.5215 0.55466 0.0
H894 H 0.85012 0.50274 0.56498 0.0
S895 S 0.87141 0.61339 0.48211 0.0
N896 N 0.83425 0.60539 0.49071 0.0
N897 N 0.89147 0.58584 0.50228 0.0
C898 C 0.86797 0.56864 0.51732 0.0
C899 C 0.83698 0.57924 0.51097 0.0
C900 C 0.18943 0.10371 0.31178 0.0
C901 C 0.18616 0.08212 0.28498 0.0
C902 C 0.20808 0.13189 0.30893 0.0
C903 C 0.22473 0.13858 0.27962 0.0
H904 H 0.17663 0.09938 0.33457 0.0
H905 H 0.2092 0.14868 0.32956 0.0
S906 S 0.22509 0.08837 0.20318 0.0
N907 N 0.20159 0.06851 0.22884 0.0
N908 N 0.23737 0.12083 0.22366 0.0
C909 C 0.22249 0.11642 0.25316 0.0
C910 C 0.20296 0.08831 0.25579 0.0
C911 C 0.35281 0.97944 0.49302 0.0
C912 C 0.34897 0.94703 0.48329 0.0
C913 C 0.38273 -0.00587 0.49506 0.0
C914 C 0.40985 0.97707 0.48695 0.0
H915 H 0.33274 -0.00686 0.50065 0.0
H916 H 0.38466 0.01869 0.50418 0.0
S917 S 0.41166 0.8928 0.4555 0.0
N918 N 0.37415 0.89922 0.46229 0.0
N919 N 0.43036 0.92676 0.46561 0.0
C920 C 0.406 0.94525 0.47496 0.0
C921 C 0.37557 0.93023 0.47333 0.0
C922 C 0.78335 0.55528 0.20025 0.0
C923 C 0.8147 0.5555 0.1898 0.0
C924 C 0.76659 0.58378 0.20149 0.0
C925 C 0.7809 0.61358 0.19292 0.0
H926 H 0.77261 0.53343 0.21026 0.0
H927 H 0.7434 0.58268 0.21234 0.0
S928 S 0.8596 0.62522 0.15521 0.0
N929 N 0.85722 0.58632 0.16403 0.0
N930 N 0.82577 0.6403 0.16655 0.0
C931 C 0.81069 0.61329 0.17797 0.0
C932 C 0.82765 0.58406 0.17639 0.0
C933 C 0.68651 0.43546 0.72214 0.0
C934 C 0.67678 0.44322 0.68961 0.0
C935 C 0.70156 0.40671 0.72908 0.0
C936 C 0.70777 0.38449 0.7038 0.0
H937 H 0.68185 0.45137 0.74279 0.0
H938 H 0.70783 0.40161 0.75472 0.0
S939 S 0.68943 0.39412 0.61399 0.0
N940 N 0.6761 0.42714 0.63137 0.0
N941 N 0.70481 0.37277 0.64456 0.0
C942 C 0.69971 0.39249 0.67084 0.0
C943 C 0.6841 0.42194 0.66371 0.0
C944 C -0.0071 0.85883 0.96131 0.0
C945 C 0.96729 0.83864 0.95205 0.0
C946 C 0.98887 0.88554 0.98194 0.0
C947 C 0.95899 0.89328 -0.00623 0.0
H948 H 0.01626 0.85427 0.95224 0.0
H949 H 0.00914 0.90095 0.98748 0.0
S950 S 0.88463 0.84673 0.97893 0.0
N951 N 0.91128 0.82706 0.95798 0.0
N952 N 0.90368 0.87743 -0.00341 0.0
C953 C 0.93336 0.87261 0.98574 0.0
C954 C 0.93751 0.84525 0.96493 0.0
C955 C 0.88672 0.28569 0.64047 0.0
C956 C 0.91419 0.27786 0.65817 0.0
C957 C 0.85916 0.29331 0.65699 0.0
C958 C 0.85782 0.29326 0.69196 0.0
H959 H 0.88615 0.28521 0.61353 0.0
H960 H 0.83837 0.29775 0.64205 0.0
S961 S 0.92454 0.27885 0.75001 0.0
N962 N 0.93933 0.27377 0.71265 0.0
N963 N 0.88744 0.28809 0.74379 0.0
C964 C 0.88567 0.28747 0.71001 0.0
C965 C 0.91383 0.27969 0.69312 0.0
C966 C 0.51971 0.18184 0.47506 0.0
C967 C 0.48945 0.19144 0.46578 0.0
C968 C 0.52409 0.15418 0.49412 0.0
C969 C 0.49837 0.13477 0.50423 0.0
H970 H 0.54031 0.19495 0.46622 0.0
H971 H 0.54799 0.14693 0.49905 0.0
S972 S 0.41406 0.15303 0.49162 0.0
N973 N 0.43318 0.18244 0.47214 0.0
N974 N 0.44133 0.12988 0.50785 0.0
C975 C 0.46784 0.14591 0.49798 0.0
C976 C 0.4634 0.1744 0.47868 0.0
C977 C 0.57876 0.66874 0.19971 0.0
C978 C 0.55999 0.69545 0.2065 0.0
C979 C 0.60983 0.66769 0.2115 0.0
C980 C 0.62277 0.69334 0.23028 0.0
H981 H 0.5704 0.64989 0.18297 0.0
H982 H 0.62447 0.64814 0.20356 0.0
S983 S 0.58096 0.76436 0.26177 0.0
N984 N 0.55467 0.7448 0.23846 0.0
N985 N 0.61313 0.74293 0.26029 0.0
C986 C 0.60317 0.7182 0.24032 0.0
C987 C 0.57166 0.71921 0.22853 0.0
C988 C 0.0072 0.15057 0.58535 0.0
C989 C 0.03402 0.17065 0.58232 0.0
C990 C 0.00826 0.11769 0.57866 0.0
C991 C 0.03616 0.10323 0.56841 0.0
H992 H 0.98508 0.1601 0.59352 0.0
H993 H 0.98675 0.10357 0.58169 0.0
S994 S 0.11281 0.14534 0.55488 0.0
N995 N 0.08929 0.17404 0.56722 0.0
N996 N 0.09117 0.11176 0.55431 0.0
C997 C 0.06311 0.12305 0.56438 0.0
C998 C 0.06207 0.15684 0.5714 0.0
C999 C 0.58919 0.2486 0.31051 0.0
C1000 C 0.58307 0.27922 0.32346 0.0
C1001 C 0.61616 0.24319 0.29237 0.0
C1002 C 0.6384 0.26811 0.28662 0.0
H1003 H 0.57322 0.22832 0.31487 0.0
H1004 H 0.62 0.21888 0.28364 0.0
S1005 S 0.63207 0.35352 0.31282 0.0
N1006 N 0.59998 0.33554 0.32736 0.0
N1007 N 0.65151 0.32526 0.29332 0.0
C1008 C 0.63185 0.29938 0.29784 0.0
C1009 C 0.60397 0.30496 0.3163 0.0
C1010 C 0.50916 0.83602 0.05612 0.0
C1011 C 0.50235 0.82786 0.08925 0.0
C1012 C 0.49803 0.86439 0.0418 0.0
C1013 C 0.47968 0.88587 0.06003 0.0
H1014 H 0.52308 0.82033 0.04093 0.0
H1015 H 0.50453 0.86978 0.01638 0.0
S1016 S 0.45441 0.87522 0.14769 0.0
N1017 N 0.47553 0.84328 0.13989 0.0
N1018 N 0.45446 0.89644 0.11295 0.0
C1019 C 0.47215 0.87768 0.09307 0.0
C1020 C 0.48361 0.84883 0.10771 0.0
C1021 C 0.91343 0.719 0.80331 0.0
C1022 C 0.93214 0.74655 0.81062 0.0
C1023 C 0.88529 0.72153 0.78514 0.0
C1024 C 0.87505 0.75168 0.77374 0.0
H1025 H 0.91963 0.69564 0.8132 0.0
H1026 H 0.87061 0.70006 0.78177 0.0
S1027 S 0.91891 0.82988 0.78038 0.0
N1028 N 0.94089 0.804 0.80077 0.0
N1029 N 0.88811 0.80872 0.76669 0.0
C1030 C 0.8949 0.77889 0.77852 0.0
C1031 C 0.92343 0.77634 0.79697 0.0
C1032 C 0.89684 0.03566 0.86522 0.0
C1033 C 0.86858 0.01907 0.8573 0.0
C1034 C 0.90764 0.03798 0.89801 0.0
C1035 C 0.89082 0.02333 0.92405 0.0
H1036 H 0.91109 0.04651 0.84584 0.0
H1037 H 0.93009 0.05006 0.90266 0.0
S1038 S 0.81398 0.97939 0.91661 0.0
N1039 N 0.82275 0.98976 0.87807 0.0
N1040 N 0.84318 -0.00633 0.94006 0.0
C1041 C 0.86171 0.0079 0.91665 0.0
C1042 C 0.85053 0.0059 0.88316 0.0
C1043 C 0.73424 0.16544 0.60593 0.0
C1044 C 0.73571 0.18011 0.57448 0.0
C1045 C 0.72837 0.1835 0.63433 0.0
C1046 C 0.72447 0.21707 0.63241 0.0
H1047 H 0.73835 0.13985 0.60875 0.0
H1048 H 0.72892 0.17126 0.65817 0.0
S1049 S 0.72299 0.26631 0.5553 0.0
N1050 N 0.72989 0.22934 0.54234 0.0
N1051 N 0.7198 0.26384 0.59616 0.0
C1052 C 0.72422 0.23178 0.60084 0.0
C1053 C 0.72958 0.21313 0.57173 0.0
C1054 C 0.60695 0.03328 0.37288 0.0
C1055 C 0.60166 0.00793 0.35022 0.0
C1056 C 0.5906 0.03443 0.40284 0.0
C1057 C 0.56821 0.0103 0.41137 0.0
H1058 H 0.62423 0.05219 0.36776 0.0
H1059 H 0.59603 0.05422 0.41966 0.0
S1060 S 0.54414 0.93971 0.35952 0.0
N1061 N 0.57136 0.95876 0.33759 0.0
N1062 N 0.54064 0.961 0.39387 0.0
C1063 C 0.56218 0.98515 0.38857 0.0
C1064 C 0.57889 0.98394 0.35804 0.0
C1065 C 0.7308 0.7943 0.08985 0.0
C1066 C 0.75745 0.81339 0.08222 0.0
C1067 C 0.73065 0.77363 0.11729 0.0
C1068 C 0.75708 0.77125 0.13843 0.0
H1069 H 0.70953 0.79586 0.07496 0.0
H1070 H 0.70917 0.76012 0.12251 0.0
S1071 S 0.83357 0.81471 0.12822 0.0
N1072 N 0.81169 0.82742 0.0969 0.0
N1073 N 0.8113 0.78854 0.14881 0.0
C1074 C 0.78447 0.78903 0.13023 0.0
C1075 C 0.78466 0.81013 0.10207 0.0
C1076 C 0.97501 -0.00754 0.70835 0.0
C1077 C 0.95118 0.9693 0.71426 0.0
C1078 C -0.00323 0.98798 0.68315 0.0
C1079 C -0.00507 0.96053 0.66264 0.0
H1080 H 0.97536 0.01526 0.72153 0.0
H1081 H 0.01279 0.00781 0.67719 0.0
S1082 S 0.94081 0.89005 0.67244 0.0
N1083 N 0.93029 0.9155 0.70167 0.0
N1084 N 0.97085 0.90759 0.65333 0.0
C1085 C 0.97385 0.93539 0.67106 0.0
C1086 C 0.95184 0.93976 0.69712 0.0
C1087 C 0.77689 0.15717 0.40867 0.0
C1088 C 0.75667 0.13026 0.41372 0.0
C1089 C 0.7765 0.17448 0.37876 0.0
C1090 C 0.75564 0.16575 0.35285 0.0
H1091 H 0.79305 0.16522 0.4281 0.0
H1092 H 0.79212 0.19534 0.37631 0.0
S1093 S 0.69919 0.09596 0.35249 0.0
N1094 N 0.71619 0.0948 0.38953 0.0
N1095 N 0.71538 0.12733 0.33336 0.0
C1096 C 0.73581 0.1384 0.35718 0.0
C1097 C 0.73636 0.12064 0.38758 0.0
C1098 C 0.57488 -0.00129 0.17066 0.0
C1099 C 0.5598 0.98446 0.1981 0.0
C1100 C 0.55783 0.00918 0.14308 0.0
C1101 C 0.52492 0.00518 0.14128 0.0
H1102 H 0.6002 0.00198 0.17039 0.0
H1103 H 0.57092 0.01931 0.12244 0.0
S1104 S 0.47405 0.97046 0.20749 0.0
N1105 N 0.51007 0.96832 0.22289 0.0
N1106 N 0.4777 0.98707 0.17032 0.0
C1107 C 0.50936 -0.00827 0.16902 0.0
C1108 C 0.52687 0.98155 0.19754 0.0
C1109 C 0.71198 0.80698 0.90931 0.0
C1110 C 0.73131 0.83165 0.92309 0.0
C1111 C 0.71672 0.79553 0.87703 0.0
C1112 C 0.74108 0.8082 0.85717 0.0
H1113 H 0.69277 0.79648 0.92344 0.0
H1114 H 0.70109 0.77661 0.86763 0.0
S1115 S 0.7986 0.8731 0.88162 0.0
N1116 N 0.77599 0.86828 0.91441 0.0
N1117 N 0.78497 0.84692 0.85385 0.0
C1118 C 0.76079 0.83277 0.87075 0.0
C1119 C 0.7559 0.84446 0.90363 0.0
C1120 C 0.78449 0.97849 0.05705 0.0
C1121 C 0.77941 0.94949 0.07444 0.0
C1122 C 0.81203 -0.0031 0.06211 0.0
C1123 C 0.83556 0.98636 0.08405 0.0
H1124 H 0.76829 0.9856 0.03755 0.0
H1125 H 0.81667 0.01718 0.04567 0.0
S1126 S 0.83138 0.91459 0.13883 0.0
N1127 N 0.79783 0.91341 0.11778 0.0
N1128 N 0.85045 0.94748 0.12618 0.0
C1129 C 0.82922 0.95936 0.10415 0.0
C1130 C 0.80085 0.9409 0.0995 0.0
C1131 C 0.36046 0.5193 0.95388 0.0
C1132 C 0.3471 0.52502 0.98518 0.0
C1133 C 0.39235 0.51199 0.95129 0.0
C1134 C 0.41125 0.51005 0.97997 0.0
H1135 H 0.3472 0.52372 0.93125 0.0
H1136 H 0.40283 0.51122 0.92687 0.0
S1137 S 0.38532 0.51452 0.06754 0.0
N1138 N 0.3535 0.52201 0.04522 0.0
N1139 N 0.41329 0.50791 0.04038 0.0
C1140 C 0.39706 0.51135 0.01131 0.0
C1141 C 0.36489 0.51898 0.01393 0.0
C1142 C 0.14071 0.57474 0.71923 0.0
C1143 C 0.15871 0.5472 0.71452 0.0
C1144 C 0.15332 0.60554 0.71343 0.0
C1145 C 0.18456 0.61002 0.70305 0.0
H1146 H 0.11711 0.57262 0.72898 0.0
H1147 H 0.13911 0.62611 0.71931 0.0
S1148 S 0.23991 0.54545 0.68219 0.0
N1149 N 0.20789 0.5259 0.6947 0.0
N1150 N 0.232 0.58425 0.68433 0.0
C1151 C 0.2019 0.58262 0.69521 0.0
C1152 C 0.18887 0.55102 0.70091 0.0
C1153 C 0.11051 0.41105 0.45515 0.0
C1154 C 0.13733 0.42004 0.47389 0.0
C1155 C 0.08407 0.43072 0.45433 0.0
C1156 C 0.08395 0.46018 0.4718 0.0
H1157 H 0.1094 0.38802 0.44242 0.0
H1158 H 0.06309 0.4219 0.4415 0.0
S1159 S 0.1512 0.49723 0.51876 0.0
N1160 N 0.16397 0.46194 0.50643 0.0
N1161 N 0.11491 0.49934 0.5042 0.0
C1162 C 0.11179 0.47052 0.4882 0.0
C1163 C 0.13832 0.45031 0.48949 0.0
C1164 C 0.8247 0.92207 0.67919 0.0
C1165 C 0.81682 0.94496 0.70341 0.0
C1166 C 0.80997 0.89142 0.67861 0.0
C1167 C 0.78699 0.88319 0.7021 0.0
H1168 H 0.84403 0.92682 0.66244 0.0
H1169 H 0.81847 0.87333 0.66171 0.0
S1170 S 0.75364 0.93651 0.76586 0.0
N1171 N 0.78111 0.95893 0.74776 0.0
N1172 N 0.75383 0.90127 0.74677 0.0
C1173 C 0.77678 0.90687 0.72407 0.0
C1174 C 0.79161 0.93788 0.72468 0.0
C1175 C 0.68203 0.05336 0.5845 0.0
C1176 C 0.69928 0.04737 0.55548 0.0
C1177 C 0.65007 0.04453 0.58632 0.0
C1178 C 0.63492 0.0293 0.5593 0.0
H1179 H 0.69251 0.0672 0.60476 0.0
H1180 H 0.63672 0.05183 0.60773 0.0
S1181 S 0.67095 0.00273 0.48077 0.0
N1182 N 0.69991 0.02106 0.50146 0.0
N1183 N 0.63995 0.00455 0.50498 0.0
C1184 C 0.65261 0.02041 0.5317 0.0
C1185 C 0.68488 0.0294 0.52976 0.0
C1186 C 0.19705 0.41324 0.8015 0.0
C1187 C 0.16951 0.41122 0.82037 0.0
C1188 C 0.21845 0.38826 0.80191 0.0
C1189 C 0.21287 0.36029 0.82095 0.0
H1190 H 0.20112 0.43329 0.78462 0.0
H1191 H 0.23794 0.38947 0.78477 0.0
S1192 S 0.14719 0.34573 0.8791 0.0
N1193 N 0.14013 0.38136 0.86246 0.0
N1194 N 0.18037 0.33383 0.8626 0.0
C1195 C 0.18738 0.35952 0.84277 0.0
C1196 C 0.16555 0.38518 0.84256 0.0
C1197 C 0.263 0.59198 0.21154 0.0
C1198 C 0.28001 0.5795 0.23853 0.0
C1199 C 0.24649 0.62056 0.21474 0.0
C1200 C 0.24733 0.638 0.24473 0.0
H1201 H 0.26356 0.58034 0.18744 0.0
H1202 H 0.23518 0.6304 0.19284 0.0
S1203 S 0.28571 0.61378 0.32361 0.0
N1204 N 0.294 0.58482 0.29714 0.0
N1205 N 0.26406 0.63952 0.30258 0.0
C1206 C 0.26261 0.62478 0.27242 0.0
C1207 C 0.2787 0.5952 0.26945 0.0
C1208 C 0.49479 0.67202 0.53347 0.0
C1209 C 0.46931 0.68964 0.54503 0.0
C1210 C 0.48983 0.64446 0.51393 0.0
C1211 C 0.4592 0.63339 0.50607 0.0
H1212 H 0.51861 0.67866 0.54089 0.0
H1213 H 0.50994 0.63025 0.50752 0.0
S1214 S 0.38487 0.67342 0.52621 0.0
N1215 N 0.4126 0.69641 0.54365 0.0
N1216 N 0.40337 0.6439 0.50773 0.0
C1217 C 0.43372 0.6522 0.51514 0.0
C1218 C 0.43876 0.68058 0.53449 0.0
C1219 C 0.60645 0.20982 0.82502 0.0
C1220 C 0.58424 0.23431 0.82785 0.0
C1221 C 0.634 0.21481 0.80663 0.0
C1222 C 0.64018 0.24446 0.79065 0.0
H1223 H 0.60328 0.18724 0.83831 0.0
H1224 H 0.65124 0.19598 0.80635 0.0
S1225 S 0.58699 0.31402 0.7854 0.0
N1226 N 0.56842 0.2876 0.80933 0.0
N1227 N 0.62018 0.29694 0.7752 0.0
C1228 C 0.61718 0.26821 0.79141 0.0
C1229 C 0.5892 0.26314 0.8099 0.0
C1230 C 0.00603 0.36246 0.07905 0.0
C1231 C 0.03263 0.34929 0.09445 0.0
C1232 C 0.00656 0.39438 0.06751 0.0
C1233 C 0.0334 0.4144 0.07187 0.0
H1234 H 0.98458 0.34811 0.07625 0.0
H1235 H 0.98538 0.40386 0.05638 0.0
S1236 S 0.10944 0.39122 0.10956 0.0
N1237 N 0.08701 0.35829 0.11211 0.0
N1238 N 0.08751 0.41865 0.09141 0.0
C1239 C 0.06031 0.40138 0.08661 0.0
C1240 C 0.06006 0.36868 0.09761 0.0
C1241 C 0.90171 0.74079 0.31363 0.0
C1242 C 0.9036 0.72542 0.34489 0.0
C1243 C 0.87355 0.74071 0.29522 0.0
C1244 C 0.84621 0.72588 0.3078 0.0
H1245 H 0.92219 0.75282 0.30314 0.0
H1246 H 0.87302 0.75284 0.27134 0.0
S1247 S 0.83878 0.68104 0.38747 0.0
N1248 N 0.87576 0.69389 0.38688 0.0
N1249 N 0.82281 0.69425 0.35257 0.0
C1250 C 0.84779 0.71016 0.3388 0.0
C1251 C 0.8765 0.70979 0.35727 0.0
C1252 C 0.50796 0.34866 -0.00644 0.0
C1253 C 0.52424 0.33698 0.96588 0.0
C1254 C 0.51082 0.38123 0.00301 0.0
C1255 C 0.52996 0.40286 0.98494 0.0
H1256 H 0.49151 0.3331 0.00676 0.0
H1257 H 0.49642 0.38994 0.02301 0.0
S1258 S 0.58211 0.38314 0.91498 0.0
N1259 N 0.56383 0.34872 0.92396 0.0
N1260 N 0.56862 0.4098 0.94141 0.0
C1261 C 0.54826 0.39092 0.95911 0.0
C1262 C 0.54557 0.35796 0.94966 0.0
C1263 C 0.90886 0.24981 0.21132 0.0
C1264 C 0.91544 0.24336 0.17789 0.0
C1265 C 0.88088 0.2385 0.22563 0.0
C1266 C 0.8586 0.22021 0.20699 0.0
H1267 H 0.92478 0.26481 0.22612 0.0
H1268 H 0.87598 0.24577 0.25088 0.0
S1269 S 0.86812 0.1912 0.12045 0.0
N1270 N 0.89992 0.21365 0.12796 0.0
N1271 N 0.84732 0.19229 0.15485 0.0
C1272 C 0.8662 0.21145 0.17433 0.0
C1273 C 0.89459 0.22313 0.15974 0.0
C1274 C 0.04991 0.64954 0.44736 0.0
C1275 C 0.02662 0.67307 0.446 0.0
C1276 C 0.04569 0.62161 0.46687 0.0
C1277 C 0.01822 0.61694 0.48556 0.0
H1278 H 0.07031 0.6516 0.43154 0.0
H1279 H 0.06265 0.6026 0.46521 0.0
S1280 S 0.95383 0.67473 0.49578 0.0
N1281 N 0.97783 0.69228 0.46893 0.0
N1282 N 0.97005 0.64014 0.50559 0.0
C1283 C -0.0035 0.64187 0.48691 0.0
C1284 C 0.00064 0.6699 0.46704 0.0
C1285 C 0.59585 0.75063 0.69234 0.0
C1286 C 0.58892 0.76653 0.66236 0.0
C1287 C 0.62389 0.75745 0.70975 0.0
C1288 C 0.64587 0.78048 0.6978 0.0
H1289 H 0.58018 0.73184 0.7017 0.0
H1290 H 0.62911 0.74321 0.73166 0.0
S1291 S 0.63572 0.83329 0.62406 0.0
N1292 N 0.60405 0.80956 0.62402 0.0
N1293 N 0.65672 0.82229 0.65673 0.0
C1294 C 0.63803 0.79826 0.66923 0.0
C1295 C 0.60958 0.79126 0.65147 0.0
C1296 C 0.50978 0.54517 0.64938 0.0
C1297 C 0.53396 0.52357 0.65619 0.0
C1298 C 0.48666 0.53792 0.6253 0.0
C1299 C 0.48674 0.50862 0.60751 0.0
H1300 H 0.50953 0.56846 0.66157 0.0
H1301 H 0.46962 0.55615 0.61946 0.0
S1302 S 0.54187 0.4414 0.62125 0.0
N1303 N 0.5544 0.4701 0.64684 0.0
N1304 N 0.51083 0.45603 0.60208 0.0
C1305 C 0.50935 0.48569 0.61635 0.0
C1306 C 0.53308 0.49333 0.64048 0.0
C1307 C 0.755 0.3548 0.90495 0.0
C1308 C 0.78393 0.35337 0.92201 0.0
C1309 C 0.75068 0.34065 0.87373 0.0
C1310 C 0.77509 0.32433 0.85802 0.0
H1311 H 0.7353 0.36705 0.91569 0.0
H1312 H 0.72784 0.34262 0.86191 0.0
S1313 S 0.85561 0.31348 0.89209 0.0
N1314 N 0.83756 0.33419 0.92096 0.0
N1315 N 0.82943 0.30744 0.86204 0.0
C1316 C 0.8042 0.32251 0.8748 0.0
C1317 C 0.80864 0.33704 0.9068 0.0
C1318 C 0.96441 0.51073 0.2089 0.0
C1319 C 0.94361 0.53462 0.21887 0.0
C1320 C 0.98633 0.51689 0.1839 0.0
C1321 C 0.98758 0.54693 0.16757 0.0
H1322 H 0.96245 0.48653 0.21902 0.0
H1323 H 0.00013 0.497 0.17518 0.0
S1324 S 0.94257 0.61935 0.18894 0.0
N1325 N 0.92915 0.59101 0.21435 0.0
N1326 N 0.96984 0.6022 0.16652 0.0
C1327 C 0.96918 0.57195 0.17963 0.0
C1328 C 0.94725 0.56588 0.20554 0.0
C1329 C 0.71508 0.64341 0.41674 0.0
C1330 C 0.72681 0.6119 0.41744 0.0
C1331 C 0.71405 0.66126 0.38718 0.0
C1332 C 0.72427 0.64813 0.35708 0.0
H1333 H 0.70703 0.65468 0.4393 0.0
H1334 H 0.70522 0.68556 0.38796 0.0
S1335 S 0.75719 0.5667 0.34531 0.0
N1336 N 0.74894 0.56833 0.38528 0.0
N1337 N 0.74678 0.60177 0.3297 0.0
C1338 C 0.73573 0.61651 0.35728 0.0
C1339 C 0.7371 0.59844 0.38746 0.0
C1340 C 0.58503 0.56994 0.82799 0.0
C1341 C 0.57861 0.54566 0.80438 0.0
C1342 C 0.5747 0.56667 0.86075 0.0
C1343 C 0.5572 0.53924 0.87084 0.0
H1344 H 0.59905 0.59112 0.82149 0.0
H1345 H 0.58083 0.5856 0.87837 0.0
S1346 S 0.53219 0.46995 0.81755 0.0
N1347 N 0.5523 0.49416 0.79259 0.0
N1348 N 0.53265 0.48801 0.8541 0.0
C1349 C 0.54956 0.51536 0.84705 0.0
C1350 C 0.56037 0.51856 0.81381 0.0
C1351 C 0.73928 0.34182 0.10441 0.0
C1352 C 0.74246 0.32724 0.07316 0.0
C1353 C 0.73471 0.3233 0.13307 0.0
C1354 C 0.73366 0.28932 0.13179 0.0
H1355 H 0.74059 0.36786 0.1069 0.0
H1356 H 0.73326 0.33586 0.15659 0.0
S1357 S 0.73887 0.23936 0.05558 0.0
N1358 N 0.74251 0.27691 0.0421 0.0
N1359 N 0.7345 0.24185 0.09625 0.0
C1360 C 0.73582 0.27439 0.1005 0.0
C1361 C 0.74005 0.29339 0.07112 0.0
C1362 C 0.87476 0.46996 0.37319 0.0
C1363 C 0.86328 0.49791 0.35804 0.0
C1364 C 0.89643 0.47215 0.39946 0.0
C1365 C 0.90669 0.50235 0.41177 0.0
H1366 H 0.86864 0.44632 0.36321 0.0
H1367 H 0.90564 0.45009 0.40979 0.0
S1368 S 0.88075 0.58254 0.38258 0.0
N1369 N 0.86194 0.55642 0.35808 0.0
N1370 N 0.90172 0.56073 0.40869 0.0
C1371 C 0.89372 0.53044 0.39821 0.0
C1372 C 0.87223 0.52817 0.37095 0.0
C1373 C 0.73777 0.70147 0.57231 0.0
C1374 C 0.74141 0.66791 0.57428 0.0
C1375 C 0.74959 0.72193 0.59744 0.0
C1376 C 0.76588 0.70962 0.62523 0.0
H1377 H 0.7247 0.7119 0.55185 0.0
H1378 H 0.74471 0.74743 0.59569 0.0
S1379 S 0.78619 0.62372 0.63888 0.0
N1380 N 0.76552 0.62353 0.60395 0.0
N1381 N 0.78815 0.66177 0.6509 0.0
C1382 C 0.77168 0.67624 0.62608 0.0
C1383 C 0.75923 0.65543 0.60076 0.0
C1384 C 0.62239 0.52497 0.46487 0.0
C1385 C 0.63659 0.52572 0.49663 0.0
C1386 C 0.59017 0.5185 0.46098 0.0
C1387 C 0.5713 0.51162 0.48862 0.0
H1388 H 0.63589 0.53118 0.44297 0.0
H1389 H 0.5798 0.51966 0.43629 0.0
S1390 S 0.59764 0.50778 0.5768 0.0
N1391 N 0.62978 0.51738 0.55599 0.0
N1392 N 0.56927 0.50407 0.54863 0.0
C1393 C 0.58551 0.51044 0.52034 0.0
C1394 C 0.61819 0.51782 0.52437 0.0
C1395 C 0.18515 0.94367 0.52369 0.0
C1396 C 0.19044 0.91207 0.53471 0.0
C1397 C 0.15786 0.95968 0.5326 0.0
C1398 C 0.13503 0.94465 0.55294 0.0
H1399 H 0.20125 0.95542 0.50658 0.0
H1400 H 0.15384 0.98318 0.52173 0.0
S1401 S 0.14173 0.86482 0.59425 0.0
N1402 N 0.17348 0.86832 0.57119 0.0
N1403 N 0.12233 0.8984 0.5882 0.0
C1404 C 0.14167 0.91424 0.56663 0.0
C1405 C 0.16931 0.89791 0.55738 0.0
C1406 C 0.33156 0.86373 0.76653 0.0
C1407 C 0.31653 0.89224 0.757 0.0
C1408 C 0.31498 0.83426 0.76835 0.0
C1409 C 0.28274 0.83205 0.76042 0.0
H1410 H 0.35648 0.864 0.77228 0.0
H1411 H 0.32791 0.81285 0.77471 0.0
S1412 S 0.23172 0.90001 0.73665 0.0
N1413 N 0.26701 0.91676 0.74152 0.0
N1414 N 0.23588 0.8613 0.74482 0.0
C1415 C 0.26712 0.86057 0.75208 0.0
C1416 C 0.28399 0.89066 0.75038 0.0
C1417 C 0.31341 0.02538 0.03583 0.0
C1418 C 0.30728 0.05834 0.04019 0.0
C1419 C 0.3435 0.01342 0.04211 0.0
C1420 C 0.36806 0.03408 0.0531 0.0
H1421 H 0.2955 0.00916 0.0256 0.0
H1422 H 0.34817 0.98859 0.03579 0.0
S1423 S 0.36291 0.12062 0.07432 0.0
N1424 N 0.32734 0.11023 0.06089 0.0
N1425 N 0.38372 0.08757 0.07207 0.0
C1426 C 0.36156 0.06624 0.06029 0.0
C1427 C 0.33115 0.07845 0.054 0.0
C1428 C 0.67112 0.62167 0.74218 0.0
C1429 C 0.68824 0.59342 0.73814 0.0
C1430 C 0.68602 0.65057 0.75179 0.0
C1431 C 0.71878 0.65257 0.75693 0.0
H1432 H 0.64596 0.62152 0.73787 0.0
H1433 H 0.6718 0.67186 0.75353 0.0
S1434 S 0.77407 0.58496 0.75053 0.0
N1435 N 0.73933 0.56854 0.74137 0.0
N1436 N 0.76775 0.62339 0.75831 0.0
C1437 C 0.73611 0.62426 0.75368 0.0
C1438 C 0.72074 0.59457 0.74454 0.0
C1439 C 0.85228 0.4985 0.04783 0.0
C1440 C 0.84411 0.47417 0.02478 0.0
C1441 C 0.88233 0.51295 0.0481 0.0
C1442 C 0.90523 0.50366 0.02523 0.0
H1443 H 0.83571 0.50573 0.06653 0.0
H1444 H 0.88795 0.53063 0.06721 0.0
S1445 S 0.89393 0.44445 0.95656 0.0
N1446 N 0.86015 0.44376 0.97631 0.0
N1447 N 0.91649 0.47103 0.97658 0.0
C1448 C 0.89672 0.48063 0.00083 0.0
C1449 C 0.86621 0.46583 0.00069 0.0
C1450 C 0.29285 0.08977 0.74199 0.0
C1451 C 0.32529 0.08631 0.73763 0.0
C1452 C 0.27908 0.11996 0.73923 0.0
C1453 C 0.29721 0.14795 0.73203 0.0
H1454 H 0.27811 0.06927 0.74901 0.0
H1455 H 0.25425 0.12146 0.74452 0.0
S1456 S 0.3822 0.15071 0.71203 0.0
N1457 N 0.3745 0.11251 0.72111 0.0
N1458 N 0.3486 0.16937 0.716 0.0
C1459 C 0.32925 0.14437 0.72497 0.0
C1460 C 0.3433 0.11355 0.72783 0.0
C1461 C 0.19804 0.9256 0.23896 0.0
C1462 C 0.17802 0.9382 0.21449 0.0
C1463 C 0.21169 0.89567 0.23475 0.0
C1464 C 0.20575 0.87725 0.20598 0.0
H1465 H 0.20186 0.93812 0.26236 0.0
H1466 H 0.22527 0.88585 0.2552 0.0
S1467 S 0.15847 0.90121 0.13266 0.0
N1468 N 0.15572 0.93173 0.1588 0.0
N1469 N 0.18138 0.87483 0.15118 0.0
C1470 C 0.18815 0.89069 0.18001 0.0
C1471 C 0.17422 0.92142 0.18422 0.0
C1472 C 0.43464 0.3534 0.4132 0.0
C1473 C 0.45849 0.33309 0.42427 0.0
C1474 C 0.42989 0.38303 0.42873 0.0
C1475 C 0.44869 0.39315 0.45602 0.0
H1476 H 0.42055 0.34711 0.39147 0.0
H1477 H 0.41216 0.39859 0.41837 0.0
S1478 S 0.51036 0.34532 0.49808 0.0
N1479 N 0.4983 0.32271 0.46651 0.0
N1480 N 0.48929 0.37821 0.49607 0.0
C1481 C 0.471 0.37173 0.46885 0.0
C1482 C 0.47597 0.34175 0.45282 0.0
C1483 C 0.38946 0.73672 0.18428 0.0
C1484 C 0.40042 0.75823 0.15975 0.0
C1485 C 0.36034 0.74084 0.19923 0.0
C1486 C 0.34104 0.76663 0.19018 0.0
H1487 H 0.40322 0.71618 0.19168 0.0
H1488 H 0.35254 0.72299 0.21723 0.0
S1489 S 0.36054 0.83186 0.12994 0.0
N1490 N 0.39089 0.80781 0.12895 0.0
N1491 N 0.33605 0.81548 0.15703 0.0
C1492 C 0.35223 0.78904 0.16657 0.0
C1493 C 0.38191 0.78483 0.15131 0.0
C1494 C 0.02853 0.70413 -0.0059 0.0
C1495 C 0.00432 0.70898 0.9707 0.0
C1496 C 0.02812 0.67703 0.01488 0.0
C1497 C 0.00313 0.65431 0.0136 0.0
H1498 H 0.04889 0.72028 -0.00496 0.0
H1499 H 0.04833 0.67289 0.03081 0.0
S1500 S 0.93194 0.65828 0.96013 0.0
N1501 N 0.95313 0.69058 0.9498 0.0
N1502 N 0.95221 0.63984 0.98949 0.0
C1503 C 0.97757 0.66021 -0.00769 0.0
C1504 C 0.97823 0.68749 0.97062 0.0
C1505 C 0.09677 0.26845 0.69681 0.0
C1506 C 0.08012 0.23903 0.69304 0.0
C1507 C 0.12634 0.26977 0.71199 0.0
C1508 C 0.14068 0.24167 0.7239 0.0
H1509 H 0.08711 0.29075 0.68755 0.0
H1510 H 0.13825 0.2931 0.71371 0.0
S1511 S 0.1061 0.15859 0.72159 0.0
N1512 N 0.07935 0.18116 0.70359 0.0
N1513 N 0.13525 0.18357 0.73222 0.0
C1514 C 0.12389 0.21211 0.72121 0.0
C1515 C 0.09353 0.21081 0.7058 0.0
C1516 C 0.53408 0.6763 0.05422 0.0
C1517 C 0.50576 0.69249 0.04877 0.0
C1518 C 0.54405 0.65268 0.0322 0.0
C1519 C 0.52581 0.64407 0.00414 0.0
H1520 H 0.54808 0.68087 0.07645 0.0
H1521 H 0.56482 0.63935 0.03878 0.0
S1522 S 0.4527 0.68306 0.97551 0.0
N1523 N 0.46189 0.7014 0.01084 0.0
N1524 N 0.48051 0.65661 0.96949 0.0
C1525 C 0.49899 0.66211 -0.00323 0.0
C1526 C 0.48893 0.68638 0.01912 0.0
C1527 C 0.0969 0.75188 0.82956 0.0
C1528 C 0.07697 0.77606 0.81786 0.0
C1529 C 0.12366 0.74353 0.81214 0.0
C1530 C 0.13199 0.75907 0.78222 0.0
H1531 H 0.09163 0.73874 0.85221 0.0
H1532 H 0.13791 0.72453 0.8224 0.0
S1533 S 0.08863 0.82519 0.74138 0.0
N1534 N 0.06791 0.81636 0.77482 0.0
N1535 N 0.11866 0.80065 0.74206 0.0
C1536 C 0.11279 0.7839 0.77049 0.0
C1537 C 0.0852 0.79236 0.78827 0.0
C1538 C 0.96357 0.33928 0.56605 0.0
C1539 C 0.98334 0.31965 0.54752 0.0
C1540 C 0.95452 0.36924 0.55411 0.0
C1541 C 0.96547 0.38105 0.52343 0.0
H1542 H 0.95595 0.33195 0.59062 0.0
H1543 H 0.94047 0.38402 0.57013 0.0
S1544 S 0.01412 0.33632 0.46343 0.0
N1545 N 0.01047 0.31167 0.49556 0.0
N1546 N -0.00585 0.36872 0.47286 0.0
C1547 C 0.98318 0.36036 0.50338 0.0
C1548 C -0.00797 0.32946 0.51555 0.0
C1549 C 0.43768 0.23347 0.29168 0.0
C1550 C 0.44194 0.20822 0.31455 0.0
C1551 C 0.41026 0.23522 0.27266 0.0
C1552 C 0.38625 0.2117 0.27573 0.0
H1553 H 0.45471 0.25325 0.29012 0.0
H1554 H 0.40677 0.25643 0.25736 0.0
S1555 S 0.38809 0.13795 0.32776 0.0
N1556 N 0.42184 0.15692 0.33597 0.0
N1557 N 0.36988 0.1603 0.29983 0.0
C1558 C 0.39155 0.1845 0.29568 0.0
C1559 C 0.41962 0.18272 0.31527 0.0
C1560 C 0.44495 0.52834 0.30531 0.0
C1561 C 0.41345 0.53299 0.29561 0.0
C1562 C 0.4541 0.52961 0.33893 0.0
C1563 C 0.43196 0.53541 0.36371 0.0
H1564 H 0.46242 0.52242 0.28704 0.0
H1565 H 0.47812 0.52417 0.34567 0.0
S1566 S 0.34794 0.55395 0.35153 0.0
N1567 N 0.36106 0.54748 0.3137 0.0
N1568 N 0.37841 0.5493 0.37659 0.0
C1569 C 0.40102 0.54216 0.35427 0.0
C1570 C 0.39171 0.5411 0.32026 0.0
C1571 C 0.25313 0.71068 0.05518 0.0
C1572 C 0.25358 0.67683 0.05641 0.0
C1573 C 0.2392 0.72832 0.08069 0.0
C1574 C 0.22435 0.7126 0.1076 0.0
H1575 H 0.26451 0.72358 0.035 0.0
H1576 H 0.24097 0.75443 0.07986 0.0
S1577 S 0.21526 0.62369 0.11894 0.0
N1578 N 0.23587 0.62807 0.08466 0.0
N1579 N 0.20834 0.66067 0.13163 0.0
C1580 C 0.22278 0.67853 0.10756 0.0
C1581 C 0.23783 0.66078 0.08226 0.0
C1582 C 0.08803 0.53891 0.88114 0.0
C1583 C 0.07549 0.51531 0.85946 0.0
C1584 C 0.07614 0.54265 0.91305 0.0
C1585 C 0.05123 0.5229 0.92464 0.0
H1586 H 0.1078 0.55416 0.87385 0.0
H1587 H 0.08728 0.56068 0.92901 0.0
S1588 S 0.00771 0.45977 0.87629 0.0
N1589 N 0.03502 0.47351 0.85074 0.0
N1590 N 0.01267 0.48058 0.91099 0.0
C1591 C 0.0375 0.50009 0.90275 0.0
C1592 C 0.0496 0.49631 0.87009 0.0
C1593 C 0.28024 0.30458 0.59877 0.0
C1594 C 0.26406 0.3333 0.59261 0.0
C1595 C 0.28545 0.29362 0.63144 0.0
C1596 C 0.27485 0.3113 0.65879 0.0
H1597 H 0.28754 0.28968 0.57825 0.0
H1598 H 0.29601 0.27034 0.63518 0.0
S1599 S 0.23712 0.39118 0.65595 0.0
N1600 N 0.24155 0.38128 0.61656 0.0
N1601 N 0.25168 0.36109 0.67769 0.0
C1602 C 0.26106 0.34134 0.65287 0.0
C1603 C 0.2555 0.35223 0.61983 0.0
C1604 C 0.44422 0.52214 0.14306 0.0
C1605 C 0.43287 0.55274 0.15113 0.0
C1606 C 0.46868 0.51872 0.12061 0.0
C1607 C 0.48242 0.54578 0.10493 0.0
H1608 H 0.43358 0.50044 0.15352 0.0
H1609 H 0.47534 0.49451 0.11396 0.0
S1610 S 0.46395 0.63157 0.12079 0.0
N1611 N 0.4393 0.61081 0.14455 0.0
N1612 N 0.48523 0.60452 0.10172 0.0
C1613 C 0.47276 0.57672 0.11449 0.0
C1614 C 0.44797 0.58018 0.13774 0.0
C1615 C 0.24128 0.61875 0.88022 0.0
C1616 C 0.26561 0.62583 0.90306 0.0
C1617 C 0.23809 0.63643 0.8509 0.0
C1618 C 0.25916 0.66195 0.84302 0.0
H1619 H 0.22401 0.5998 0.88523 0.0
H1620 H 0.21858 0.63012 0.83447 0.0
S1621 S 0.32844 0.68881 0.89339 0.0
N1622 N 0.31234 0.65904 0.91511 0.0
N1623 N 0.30625 0.69239 0.85972 0.0
C1624 C 0.28432 0.66865 0.86505 0.0
C1625 C 0.28755 0.6506 0.89513 0.0
C1626 C 0.01137 0.4889 0.69006 0.0
C1627 C 0.04266 0.47931 0.69424 0.0
C1628 C -0.00098 0.49535 0.65835 0.0
C1629 C 0.01791 0.49339 0.63002 0.0
H1630 H -0.00356 0.49174 0.71147 0.0
H1631 H 0.97478 0.50255 0.65606 0.0
S1632 S 0.10111 0.46856 0.62748 0.0
N1633 N 0.09197 0.46726 0.66725 0.0
N1634 N 0.069 0.48004 0.60787 0.0
C1635 C 0.04911 0.48347 0.63384 0.0
C1636 C 0.06143 0.47621 0.66592 0.0
C1637 C 0.23407 0.31421 0.41076 0.0
C1638 C 0.26023 0.32926 0.42642 0.0
C1639 C 0.23697 0.29812 0.38042 0.0
C1640 C 0.26615 0.2964 0.3645 0.0
H1641 H 0.2109 0.31555 0.4215 0.0
H1642 H 0.21594 0.28767 0.36903 0.0
S1643 S 0.34263 0.32887 0.397 0.0
N1644 N 0.31676 0.33933 0.42505 0.0
N1645 N 0.32231 0.30904 0.3681 0.0
C1646 C 0.29279 0.31023 0.38059 0.0
C1647 C 0.28981 0.32666 0.4115 0.0
C1648 C 0.29781 0.47183 0.55047 0.0
C1649 C 0.27772 0.46365 0.52364 0.0
C1650 C 0.3257 0.48969 0.54519 0.0
C1651 C 0.33398 0.49981 0.513 0.0
H1652 H 0.29341 0.46206 0.57504 0.0
H1653 H 0.34209 0.49295 0.56578 0.0
S1654 S 0.28512 0.49169 0.43646 0.0
N1655 N 0.26489 0.47215 0.46529 0.0
N1656 N 0.31711 0.50593 0.45541 0.0
C1657 C 0.31214 0.49515 0.48693 0.0
C1658 C 0.284 0.47692 0.49224 0.0
C1659 C 0.86394 0.04697 0.53991 0.0
C1660 C 0.84678 0.04172 0.51033 0.0
C1661 C 0.89314 0.03318 0.54495 0.0
C1662 C 0.90661 0.01373 0.52048 0.0
H1663 H 0.855 0.06228 0.5593 0.0
H1664 H 0.90558 0.03872 0.56795 0.0
S1665 S 0.87007 0.99044 0.43951 0.0
N1666 N 0.84429 0.01416 0.45691 0.0
N1667 N 0.89959 0.9882 0.4663 0.0
C1668 C 0.88919 0.00723 0.49121 0.0
C1669 C 0.85917 0.0212 0.48616 0.0
C1670 C 0.70253 0.06828 0.2225 0.0
C1671 C 0.67001 0.06435 0.21647 0.0
C1672 C 0.71819 0.09756 0.21543 0.0
C1673 C 0.7018 0.12368 0.20212 0.0
H1674 H 0.7156 0.04945 0.23474 0.0
H1675 H 0.74245 0.10077 0.22341 0.0
S1676 S 0.61828 0.12416 0.1759 0.0
N1677 N 0.62326 0.08768 0.19139 0.0
N1678 N 0.65282 0.14287 0.1792 0.0
C1679 C 0.6702 0.11912 0.19303 0.0
C1680 C 0.65424 0.08936 0.19994 0.0
C1681 C 0.63897 0.95155 0.01086 0.0
C1682 C 0.64564 0.93307 0.98269 0.0
C1683 C 0.61133 0.96886 0.01271 0.0
C1684 C 0.58893 0.96778 0.98673 0.0
H1685 H 0.65514 0.95244 0.03186 0.0
H1686 H 0.6069 0.9819 0.03546 0.0
S1687 S 0.59629 0.92446 0.9066 0.0
N1688 N 0.62886 0.91618 0.92731 0.0
N1689 N 0.57608 0.94808 0.93113 0.0
C1690 C 0.59578 0.95022 0.95788 0.0
C1691 C 0.62437 0.93303 0.95576 0.0
C1692 C 0.36348 0.3975 0.21456 0.0
C1693 C 0.34474 0.42172 0.20089 0.0
C1694 C 0.35161 0.36604 0.21856 0.0
C1695 C 0.3208 0.35755 0.20843 0.0
H1696 H 0.38699 0.40314 0.2237 0.0
H1697 H 0.36643 0.34842 0.23047 0.0
S1698 S 0.26345 0.41129 0.16775 0.0
N1699 N 0.29474 0.43468 0.17478 0.0
N1700 N 0.27257 0.3752 0.18183 0.0
C1701 C 0.30245 0.38103 0.19284 0.0
C1702 C 0.31438 0.41326 0.18925 0.0
C1703 C 0.18393 0.58448 0.04137 0.0
C1704 C 0.20419 0.55945 0.04973 0.0
C1705 C 0.15236 0.58277 0.04971 0.0
C1706 C 0.13953 0.55555 0.066 0.0
H1707 H 0.19244 0.60549 0.02779 0.0
H1708 H 0.13753 0.60228 0.04166 0.0
S1709 S 0.1837 0.48514 0.09673 0.0
N1710 N 0.21049 0.50834 0.07843 0.0
N1711 N 0.15016 0.50425 0.09304 0.0
C1712 C 0.15994 0.53125 0.07659 0.0
C1713 C 0.19255 0.53336 0.06857 0.0
C1714 C 0.68928 0.87041 0.31523 0.0
C1715 C 0.69247 0.89247 0.2887 0.0
C1716 C 0.70064 0.83897 0.31273 0.0
C1717 C 0.71549 0.82886 0.28365 0.0
H1718 H 0.67632 0.87679 0.33722 0.0
H1719 H 0.69596 0.82198 0.33267 0.0
S1720 S 0.73547 0.87932 0.21022 0.0
N1721 N 0.7158 0.90341 0.23472 0.0
N1722 N 0.73704 0.84449 0.23007 0.0
C1723 C 0.72122 0.85153 0.25828 0.0
C1724 C 0.70971 0.88334 0.26077 0.0
C1725 C 0.84893 0.13809 0.78371 0.0
C1726 C 0.84124 0.11198 0.76258 0.0
C1727 C 0.82974 0.165 0.78552 0.0
C1728 C 0.80189 0.16676 0.76653 0.0
H1729 H 0.87009 0.13793 0.79891 0.0
H1730 H 0.83703 0.18475 0.80167 0.0
S1731 S 0.77081 0.10464 0.70745 0.0
N1732 N 0.80356 0.08946 0.7224 0.0
N1733 N 0.76746 0.13991 0.7259 0.0
C1734 C 0.7936 0.14058 0.74565 0.0
C1735 C 0.81331 0.11329 0.74358 0.0
loop_
_geom_bond_atom_site_label_1
_geom_bond_atom_site_label_2
_geom_bond_distance
_geom_bond_site_symmetry_2
_ccdc_geom_bond_type
C0 O1 1.160 . S
C0 O7 1.185 . S
O1 C0 1.160 . S
O2 Zn3 1.899 . S
O2 C10 1.284 . S
Zn3 O2 1.899 . S
Zn3 O4 2.032 1_455 S
Zn3 O7 2.086 1_455 S
Zn3 O12 1.977 . S
O4 Zn3 2.032 1_655 S
O4 C8 1.278 1_655 S
C5 O6 1.203 . S
C5 O12 1.267 . S
O6 C5 1.203 . S
O7 C0 1.185 . S
O7 Zn3 2.086 1_655 S
C8 O4 1.278 1_455 S
C8 O9 1.211 . S
O9 C8 1.211 . S
C10 O2 1.284 . S
C10 O11 1.273 . S
O11 C10 1.273 . S
O12 Zn3 1.977 . S
O12 C5 1.267 . S
C13 O14 1.160 . S
C13 O20 1.185 . S
O14 C13 1.160 . S
O15 Zn16 1.899 . S
O15 C23 1.284 . S
Zn16 O15 1.899 . S
Zn16 O17 2.032 . S
Zn16 O20 2.086 . S
Zn16 O25 1.977 1_455 S
O17 Zn16 2.032 . S
O17 C21 1.278 . S
C18 O19 1.203 . S
C18 O25 1.267 . S
O19 C18 1.203 . S
O20 C13 1.185 . S
O20 Zn16 2.086 . S
C21 O17 1.278 . S
C21 O22 1.211 1_455 S
O22 C21 1.211 1_655 S
C23 O15 1.284 . S
C23 O24 1.273 1_455 S
O24 C23 1.273 1_655 S
O25 Zn16 1.977 1_655 S
O25 C18 1.267 . S
C26 O27 1.160 . S
C26 O33 1.185 . S
O27 C26 1.160 . S
O28 Zn29 1.899 . S
O28 C36 1.284 . S
Zn29 O28 1.899 . S
Zn29 O30 2.032 . S
Zn29 O33 2.086 . S
Zn29 O38 1.977 . S
O30 Zn29 2.032 . S
O30 C34 1.278 . S
C31 O32 1.203 . S
C31 O38 1.267 . S
O32 C31 1.203 . S
O33 C26 1.185 . S
O33 Zn29 2.086 . S
C34 O30 1.278 . S
C34 O35 1.211 . S
O35 C34 1.211 . S
C36 O28 1.284 . S
C36 O37 1.273 . S
O37 C36 1.273 . S
O38 Zn29 1.977 . S
O38 C31 1.267 . S
C39 O40 1.160 . S
C39 O46 1.185 . S
O40 C39 1.160 . S
O41 Zn42 1.899 . S
O41 C49 1.284 . S
Zn42 O41 1.899 . S
Zn42 O43 2.032 . S
Zn42 O46 2.086 . S
Zn42 O51 1.977 . S
O43 Zn42 2.032 . S
O43 C47 1.278 . S
C44 O45 1.203 . S
C44 O51 1.267 . S
O45 C44 1.203 . S
O46 C39 1.185 . S
O46 Zn42 2.086 . S
C47 O43 1.278 . S
C47 O48 1.211 . S
O48 C47 1.211 . S
C49 O41 1.284 . S
C49 O50 1.273 . S
O50 C49 1.273 . S
O51 Zn42 1.977 . S
O51 C44 1.267 . S
C52 O53 1.160 . S
C52 O59 1.185 . S
O53 C52 1.160 . S
O54 Zn55 1.899 . S
O54 C62 1.284 . S
Zn55 O54 1.899 . S
Zn55 O56 2.032 . S
Zn55 O59 2.086 1_545 S
Zn55 O64 1.977 . S
O56 Zn55 2.032 . S
O56 C60 1.278 . S
C57 O58 1.203 . S
C57 O64 1.267 . S
O58 C57 1.203 . S
O59 C52 1.185 . S
O59 Zn55 2.086 1_565 S
C60 O56 1.278 . S
C60 O61 1.211 . S
O61 C60 1.211 . S
C62 O54 1.284 . S
C62 O63 1.273 . S
O63 C62 1.273 . S
O64 Zn55 1.977 . S
O64 C57 1.267 . S
C65 O66 1.160 . S
C65 O72 1.185 . S
O66 C65 1.160 . S
O67 Zn68 1.899 . S
O67 C75 1.284 . S
Zn68 O67 1.899 . S
Zn68 O69 2.032 . S
Zn68 O72 2.086 . S
Zn68 O77 1.977 . S
O69 Zn68 2.032 . S
O69 C73 1.278 . S
C70 O71 1.203 . S
C70 O77 1.267 . S
O71 C70 1.203 . S
O72 C65 1.185 . S
O72 Zn68 2.086 . S
C73 O69 1.278 . S
C73 O74 1.211 . S
O74 C73 1.211 . S
C75 O67 1.284 . S
C75 O76 1.273 . S
O76 C75 1.273 . S
O77 Zn68 1.977 . S
O77 C70 1.267 . S
C78 O79 1.160 . S
C78 O85 1.185 . S
O79 C78 1.160 . S
O80 Zn81 1.899 . S
O80 C88 1.284 1_545 S
Zn81 O80 1.899 . S
Zn81 O82 2.032 . S
Zn81 O85 2.086 . S
Zn81 O90 1.977 1_545 S
O82 Zn81 2.032 . S
O82 C86 1.278 1_545 S
C83 O84 1.203 . S
C83 O90 1.267 . S
O84 C83 1.203 . S
O85 C78 1.185 . S
O85 Zn81 2.086 . S
C86 O82 1.278 1_565 S
C86 O87 1.211 . S
O87 C86 1.211 . S
C88 O80 1.284 1_565 S
C88 O89 1.273 . S
O89 C88 1.273 . S
O90 Zn81 1.977 1_565 S
O90 C83 1.267 . S
C91 O92 1.160 . S
C91 O98 1.185 . S
O92 C91 1.160 . S
O93 Zn94 1.899 . S
O93 C101 1.284 . S
Zn94 O93 1.899 . S
Zn94 O95 2.032 1_554 S
Zn94 O98 2.086 . S
Zn94 O103 1.977 . S
O95 Zn94 2.032 1_556 S
O95 C99 1.278 . S
C96 O97 1.203 . S
C96 O103 1.267 . S
O97 C96 1.203 . S
O98 C91 1.185 . S
O98 Zn94 2.086 . S
C99 O95 1.278 . S
C99 O100 1.211 . S
O100 C99 1.211 . S
C101 O93 1.284 . S
C101 O102 1.273 . S
O102 C101 1.273 . S
O103 Zn94 1.977 . S
O103 C96 1.267 . S
C104 O105 1.160 . S
C104 O111 1.185 . S
O105 C104 1.160 . S
O106 Zn107 1.899 . S
O106 C114 1.284 . S
Zn107 O106 1.899 . S
Zn107 O108 2.032 1_554 S
Zn107 O111 2.086 . S
Zn107 O116 1.977 . S
O108 Zn107 2.032 1_556 S
O108 C112 1.278 . S
C109 O110 1.203 . S
C109 O116 1.267 . S
O110 C109 1.203 . S
O111 C104 1.185 . S
O111 Zn107 2.086 . S
C112 O108 1.278 . S
C112 O113 1.211 . S
O113 C112 1.211 . S
C114 O106 1.284 . S
C114 O115 1.273 . S
O115 C114 1.273 . S
O116 Zn107 1.977 . S
O116 C109 1.267 . S
C117 O118 1.160 . S
C117 O124 1.185 . S
O118 C117 1.160 . S
O119 Zn120 1.899 . S
O119 C127 1.284 . S
Zn120 O119 1.899 . S
Zn120 O121 2.032 . S
Zn120 O124 2.086 . S
Zn120 O129 1.977 . S
O121 Zn120 2.032 . S
O121 C125 1.278 . S
C122 O123 1.203 . S
C122 O129 1.267 . S
O123 C122 1.203 . S
O124 C117 1.185 . S
O124 Zn120 2.086 . S
C125 O121 1.278 . S
C125 O126 1.211 . S
O126 C125 1.211 . S
C127 O119 1.284 . S
C127 O128 1.273 . S
O128 C127 1.273 . S
O129 Zn120 1.977 . S
O129 C122 1.267 . S
C130 O131 1.160 . S
C130 O137 1.185 . S
O131 C130 1.160 . S
O132 Zn133 1.899 . S
O132 C140 1.284 . S
Zn133 O132 1.899 . S
Zn133 O134 2.032 . S
Zn133 O137 2.086 . S
Zn133 O142 1.977 . S
O134 Zn133 2.032 . S
O134 C138 1.278 . S
C135 O136 1.203 . S
C135 O142 1.267 . S
O136 C135 1.203 . S
O137 C130 1.185 . S
O137 Zn133 2.086 . S
C138 O134 1.278 . S
C138 O139 1.211 . S
O139 C138 1.211 . S
C140 O132 1.284 . S
C140 O141 1.273 . S
O141 C140 1.273 . S
O142 Zn133 1.977 . S
O142 C135 1.267 . S
C143 O144 1.160 . S
C143 O150 1.185 . S
O144 C143 1.160 . S
O145 Zn146 1.899 . S
O145 C153 1.284 . S
Zn146 O145 1.899 . S
Zn146 O147 2.032 . S
Zn146 O150 2.086 . S
Zn146 O155 1.977 . S
O147 Zn146 2.032 . S
O147 C151 1.278 . S
C148 O149 1.203 . S
C148 O155 1.267 . S
O149 C148 1.203 . S
O150 C143 1.185 . S
O150 Zn146 2.086 . S
C151 O147 1.278 . S
C151 O152 1.211 . S
O152 C151 1.211 . S
C153 O145 1.284 . S
C153 O154 1.273 . S
O154 C153 1.273 . S
O155 Zn146 1.977 . S
O155 C148 1.267 . S
C156 O157 1.160 . S
C156 O163 1.185 . S
O157 C156 1.160 . S
O158 Zn159 1.899 . S
O158 C166 1.284 . S
Zn159 O158 1.899 . S
Zn159 O160 2.032 . S
Zn159 O163 2.086 . S
Zn159 O168 1.977 1_455 S
O160 Zn159 2.032 . S
O160 C164 1.275 1_455 S
C161 O162 1.203 . S
C161 O168 1.267 . S
O162 C161 1.203 . S
O163 C156 1.185 . S
O163 Zn159 2.086 . S
C164 O160 1.275 1_655 S
C164 O165 1.215 . S
O165 C164 1.215 . S
C166 O158 1.284 . S
C166 O167 1.273 1_455 S
O167 C166 1.273 1_655 S
O168 Zn159 1.977 1_655 S
O168 C161 1.267 . S
C169 O170 1.160 . S
C169 O176 1.185 . S
O170 C169 1.160 . S
O171 Zn172 1.899 . S
O171 C179 1.284 . S
Zn172 O171 1.899 . S
Zn172 O173 2.032 1_455 S
Zn172 O176 2.086 1_455 S
Zn172 O181 1.977 . S
O173 Zn172 2.032 1_655 S
O173 C177 1.278 1_655 S
C174 O175 1.203 . S
C174 O181 1.267 . S
O175 C174 1.203 . S
O176 C169 1.185 . S
O176 Zn172 2.086 1_655 S
C177 O173 1.278 1_455 S
C177 O178 1.211 . S
O178 C177 1.211 . S
C179 O171 1.284 . S
C179 O180 1.273 . S
O180 C179 1.273 . S
O181 Zn172 1.977 . S
O181 C174 1.267 . S
C182 O183 1.160 . S
C182 O189 1.185 . S
O183 C182 1.160 . S
O184 Zn185 1.899 . S
O184 C192 1.284 . S
Zn185 O184 1.899 . S
Zn185 O186 2.032 . S
Zn185 O189 2.086 . S
Zn185 O194 1.977 . S
O186 Zn185 2.032 . S
O186 C190 1.278 . S
C187 O188 1.203 . S
C187 O194 1.267 . S
O188 C187 1.203 . S
O189 C182 1.185 . S
O189 Zn185 2.086 . S
C190 O186 1.278 . S
C190 O191 1.211 . S
O191 C190 1.211 . S
C192 O184 1.284 . S
C192 O193 1.273 . S
O193 C192 1.273 . S
O194 Zn185 1.977 . S
O194 C187 1.267 . S
C195 O196 1.160 . S
C195 O202 1.185 . S
O196 C195 1.160 . S
O197 Zn198 1.899 . S
O197 C205 1.284 . S
Zn198 O197 1.899 . S
Zn198 O199 2.032 . S
Zn198 O202 2.086 . S
Zn198 O207 1.977 . S
O199 Zn198 2.032 . S
O199 C203 1.278 . S
C200 O201 1.203 . S
C200 O207 1.267 . S
O201 C200 1.203 . S
O202 C195 1.185 . S
O202 Zn198 2.086 . S
C203 O199 1.278 . S
C203 O204 1.211 . S
O204 C203 1.211 . S
C205 O197 1.284 . S
C205 O206 1.273 . S
O206 C205 1.273 . S
O207 Zn198 1.977 . S
O207 C200 1.267 . S
C208 O209 1.160 . S
C208 O215 1.185 . S
O209 C208 1.160 . S
O210 Zn211 1.899 . S
O210 C218 1.284 . S
Zn211 O210 1.899 . S
Zn211 O212 2.032 . S
Zn211 O215 2.086 . S
Zn211 O220 1.977 1_545 S
O212 Zn211 2.032 . S
O212 C216 1.278 . S
C213 O214 1.203 . S
C213 O220 1.267 . S
O214 C213 1.203 . S
O215 C208 1.185 . S
O215 Zn211 2.086 . S
C216 O212 1.278 . S
C216 O217 1.211 1_545 S
O217 C216 1.211 1_565 S
C218 O210 1.284 . S
C218 O219 1.273 . S
O219 C218 1.273 . S
O220 Zn211 1.977 1_565 S
O220 C213 1.267 . S
C221 O222 1.160 . S
C221 O228 1.185 . S
O222 C221 1.160 . S
O223 Zn224 1.899 . S
O223 C231 1.284 . S
Zn224 O223 1.899 . S
Zn224 O225 2.032 . S
Zn224 O228 2.086 . S
Zn224 O233 1.977 . S
O225 Zn224 2.032 . S
O225 C229 1.278 . S
C226 O227 1.203 . S
C226 O233 1.267 . S
O227 C226 1.203 . S
O228 C221 1.185 . S
O228 Zn224 2.086 . S
C229 O225 1.278 . S
C229 O230 1.211 . S
O230 C229 1.211 . S
C231 O223 1.284 . S
C231 O232 1.273 . S
O232 C231 1.273 . S
O233 Zn224 1.977 . S
O233 C226 1.267 . S
C234 O235 1.160 . S
C234 O241 1.185 . S
O235 C234 1.160 . S
O236 Zn237 1.899 . S
O236 C244 1.284 1_565 S
Zn237 O236 1.899 . S
Zn237 O238 2.032 . S
Zn237 O241 2.086 . S
Zn237 O246 1.977 1_565 S
O238 Zn237 2.032 . S
O238 C242 1.278 1_565 S
C239 O240 1.203 . S
C239 O246 1.267 . S
O240 C239 1.203 . S
O241 C234 1.185 . S
O241 Zn237 2.086 . S
C242 O238 1.278 1_545 S
C242 O243 1.211 . S
O243 C242 1.211 . S
C244 O236 1.284 1_545 S
C244 O245 1.273 . S
O245 C244 1.273 . S
O246 Zn237 1.977 1_545 S
O246 C239 1.267 . S
C247 O248 1.160 . S
C247 O254 1.177 1_554 S
O248 C247 1.160 . S
O249 Zn250 1.899 . S
O249 C257 1.284 . S
Zn250 O249 1.899 . S
Zn250 O251 2.032 1_554 S
Zn250 O254 2.082 1_554 S
Zn250 O259 1.975 1_554 S
O251 Zn250 2.032 1_556 S
O251 C255 1.278 . S
C252 O253 1.203 . S
C252 O259 1.261 1_554 S
O253 C252 1.203 . S
O254 C247 1.177 1_556 S
O254 Zn250 2.082 1_556 S
C255 O251 1.278 . S
C255 O256 1.211 . S
O256 C255 1.211 . S
C257 O249 1.284 . S
C257 O258 1.273 . S
O258 C257 1.273 . S
O259 Zn250 1.975 1_556 S
O259 C252 1.261 1_556 S
C260 O261 1.160 . S
C260 O267 1.185 1_554 S
O261 C260 1.160 . S
O262 Zn263 1.899 . S
O262 C270 1.284 . S
Zn263 O262 1.899 . S
Zn263 O264 2.032 1_554 S
Zn263 O267 2.086 1_554 S
Zn263 O272 1.977 1_554 S
O264 Zn263 2.032 1_556 S
O264 C268 1.278 . S
C265 O266 1.203 . S
C265 O272 1.267 1_554 S
O266 C265 1.203 . S
O267 C260 1.185 1_556 S
O267 Zn263 2.086 1_556 S
C268 O264 1.278 . S
C268 O269 1.211 . S
O269 C268 1.211 . S
C270 O262 1.284 . S
C270 O271 1.273 . S
O271 C270 1.273 . S
O272 Zn263 1.977 1_556 S
O272 C265 1.267 1_556 S
C273 O274 1.160 . S
C273 O280 1.185 . S
O274 C273 1.160 . S
O275 Zn276 1.899 . S
O275 C283 1.284 . S
Zn276 O275 1.899 . S
Zn276 O277 2.032 . S
Zn276 O280 2.086 . S
Zn276 O285 1.977 . S
O277 Zn276 2.032 . S
O277 C281 1.278 . S
C278 O279 1.203 . S
C278 O285 1.267 . S
O279 C278 1.203 . S
O280 C273 1.185 . S
O280 Zn276 2.086 . S
C281 O277 1.278 . S
C281 O282 1.211 . S
O282 C281 1.211 . S
C283 O275 1.284 . S
C283 O284 1.273 . S
O284 C283 1.273 . S
O285 Zn276 1.977 . S
O285 C278 1.267 . S
C286 O287 1.160 . S
C286 O293 1.185 . S
O287 C286 1.160 . S
O288 Zn289 1.899 . S
O288 C296 1.284 . S
Zn289 O288 1.899 . S
Zn289 O290 2.032 . S
Zn289 O293 2.086 . S
Zn289 O298 1.977 . S
O290 Zn289 2.032 . S
O290 C294 1.278 . S
C291 O292 1.203 . S
C291 O298 1.267 . S
O292 C291 1.203 . S
O293 C286 1.185 . S
O293 Zn289 2.086 . S
C294 O290 1.278 . S
C294 O295 1.211 . S
O295 C294 1.211 . S
C296 O288 1.284 . S
C296 O297 1.273 . S
O297 C296 1.273 . S
O298 Zn289 1.977 . S
O298 C291 1.267 . S
C299 O300 1.160 . S
C299 O306 1.185 . S
O300 C299 1.160 . S
O301 Zn302 1.899 . S
O301 C309 1.284 . S
Zn302 O301 1.899 . S
Zn302 O303 2.032 . S
Zn302 O306 2.086 . S
Zn302 O311 1.977 . S
O303 Zn302 2.032 . S
O303 C307 1.278 . S
C304 O305 1.203 . S
C304 O311 1.267 . S
O305 C304 1.203 . S
O306 C299 1.185 . S
O306 Zn302 2.086 . S
C307 O303 1.278 . S
C307 O308 1.211 . S
O308 C307 1.211 . S
C309 O301 1.284 . S
C309 O310 1.273 . S
O310 C309 1.273 . S
O311 Zn302 1.977 . S
O311 C304 1.267 . S
O312 Zn313 1.949 1_554 S
O312 C328 1.225 1_455 S
Zn313 O312 1.949 1_556 S
Zn313 O314 1.946 1_556 S
Zn313 O320 1.920 . S
Zn313 O325 1.931 1_455 S
O314 Zn313 1.946 1_554 S
O314 Zn315 1.923 1_545 S
O314 Zn316 1.950 1_455 S
O314 Zn317 1.945 1_444 S
Zn315 O314 1.923 1_565 S
Zn315 O318 1.933 . S
Zn315 O321 1.941 1_565 S
Zn315 O322 1.965 . S
Zn316 O314 1.950 1_655 S
Zn316 O323 1.938 . S
Zn316 O324 1.906 1_545 S
Zn316 O334 1.953 . S
Zn317 O314 1.945 1_666 S
Zn317 O319 1.932 . S
Zn317 O326 1.977 1_556 S
Zn317 O327 1.910 1_565 S
O318 Zn315 1.933 . S
O318 C329 1.226 1_554 S
O319 Zn317 1.932 . S
O319 C329 1.307 1_655 S
O320 Zn313 1.920 . S
O320 C331 1.247 1_556 S
O321 Zn315 1.941 1_545 S
O321 C331 1.299 . S
O322 Zn315 1.965 . S
O322 C330 1.322 . S
O323 Zn316 1.938 . S
O323 C330 1.235 1_645 S
O324 Zn316 1.906 1_565 S
O324 C332 1.304 . S
O325 Zn313 1.931 1_655 S
O325 C333 1.311 . S
O326 Zn317 1.977 1_554 S
O326 C332 1.272 . S
O327 Zn317 1.910 1_545 S
O327 C333 1.231 . S
C328 O312 1.225 1_655 S
C328 O334 1.298 . S
C329 O318 1.226 1_556 S
C329 O319 1.307 1_455 S
C330 O322 1.322 . S
C330 O323 1.235 1_465 S
C331 O320 1.247 1_554 S
C331 O321 1.299 . S
C332 O324 1.304 . S
C332 O326 1.272 . S
C333 O325 1.311 . S
C333 O327 1.231 . S
O334 Zn316 1.953 . S
O334 C328 1.298 . S
O335 Zn336 1.953 . S
O335 C351 1.225 . S
Zn336 O335 1.953 . S
Zn336 O337 1.949 . S
Zn336 O343 1.919 . S
Zn336 O348 1.924 . S
O337 Zn336 1.949 . S
O337 Zn338 1.923 . S
O337 Zn339 1.950 . S
O337 Zn340 1.945 . S
Zn338 O337 1.923 . S
Zn338 O341 1.933 . S
Zn338 O344 1.941 . S
Zn338 O345 1.965 . S
Zn339 O337 1.950 . S
Zn339 O346 1.938 . S
Zn339 O347 1.906 . S
Zn339 O357 1.953 . S
Zn340 O337 1.945 . S
Zn340 O342 1.932 . S
Zn340 O349 1.977 . S
Zn340 O350 1.910 . S
O341 Zn338 1.933 . S
O341 C352 1.226 . S
O342 Zn340 1.932 . S
O342 C352 1.307 . S
O343 Zn336 1.919 . S
O343 C354 1.253 . S
O344 Zn338 1.941 . S
O344 C354 1.283 . S
O345 Zn338 1.965 . S
O345 C353 1.303 . S
O346 Zn339 1.938 . S
O346 C353 1.247 . S
O347 Zn339 1.906 . S
O347 C355 1.304 . S
O348 Zn336 1.924 . S
O348 C356 1.311 . S
O349 Zn340 1.977 . S
O349 C355 1.272 . S
O350 Zn340 1.910 . S
O350 C356 1.231 . S
C351 O335 1.225 . S
C351 O357 1.298 . S
C352 O341 1.226 . S
C352 O342 1.307 . S
C353 O345 1.303 . S
C353 O346 1.247 . S
C354 O343 1.253 . S
C354 O344 1.283 . S
C355 O347 1.304 . S
C355 O349 1.272 . S
C356 O348 1.311 . S
C356 O350 1.231 . S
O357 Zn339 1.953 . S
O357 C351 1.298 . S
O358 Zn359 1.953 . S
O358 C374 1.225 . S
Zn359 O358 1.953 . S
Zn359 O360 1.949 1_565 S
Zn359 O366 1.919 . S
Zn359 O371 1.924 . S
O360 Zn359 1.949 1_545 S
O360 Zn361 1.923 . S
O360 Zn362 1.950 1_545 S
O360 Zn363 1.945 . S
Zn361 O360 1.923 . S
Zn361 O364 1.933 . S
Zn361 O367 1.941 . S
Zn361 O368 1.965 . S
Zn362 O360 1.950 1_565 S
Zn362 O369 1.938 1_565 S
Zn362 O370 1.906 1_565 S
Zn362 O380 1.953 . S
Zn363 O360 1.945 . S
Zn363 O365 1.932 . S
Zn363 O372 1.977 . S
Zn363 O373 1.910 . S
O364 Zn361 1.933 . S
O364 C375 1.226 . S
O365 Zn363 1.932 . S
O365 C375 1.307 . S
O366 Zn359 1.919 . S
O366 C377 1.253 . S
O367 Zn361 1.941 . S
O367 C377 1.283 1_545 S
O368 Zn361 1.965 . S
O368 C376 1.303 . S
O369 Zn362 1.938 1_545 S
O369 C376 1.247 . S
O370 Zn362 1.906 1_545 S
O370 C378 1.304 . S
O371 Zn359 1.924 . S
O371 C379 1.311 . S
O372 Zn363 1.977 . S
O372 C378 1.272 . S
O373 Zn363 1.910 . S
O373 C379 1.231 1_545 S
C374 O358 1.225 . S
C374 O380 1.298 . S
C375 O364 1.226 . S
C375 O365 1.307 . S
C376 O368 1.303 . S
C376 O369 1.247 . S
C377 O366 1.253 . S
C377 O367 1.283 1_565 S
C378 O370 1.304 . S
C378 O372 1.272 . S
C379 O371 1.311 . S
C379 O373 1.231 1_565 S
O380 Zn362 1.953 . S
O380 C374 1.298 . S
O381 Zn382 1.953 . S
O381 C397 1.225 . S
Zn382 O381 1.953 . S
Zn382 O383 1.949 . S
Zn382 O389 1.919 . S
Zn382 O394 1.924 . S
O383 Zn382 1.949 . S
O383 Zn384 1.923 . S
O383 Zn385 1.950 . S
O383 Zn386 1.945 . S
Zn384 O383 1.923 . S
Zn384 O387 1.933 . S
Zn384 O390 1.941 . S
Zn384 O391 1.965 . S
Zn385 O383 1.950 . S
Zn385 O392 1.938 . S
Zn385 O393 1.906 . S
Zn385 O403 1.953 . S
Zn386 O383 1.945 . S
Zn386 O388 1.932 . S
Zn386 O395 1.977 . S
Zn386 O396 1.910 . S
O387 Zn384 1.933 . S
O387 C398 1.226 . S
O388 Zn386 1.932 . S
O388 C398 1.307 . S
O389 Zn382 1.919 . S
O389 C400 1.253 . S
O390 Zn384 1.941 . S
O390 C400 1.283 . S
O391 Zn384 1.965 . S
O391 C399 1.303 . S
O392 Zn385 1.938 . S
O392 C399 1.247 . S
O393 Zn385 1.906 . S
O393 C401 1.304 . S
O394 Zn382 1.924 . S
O394 C402 1.311 . S
O395 Zn386 1.977 . S
O395 C401 1.272 . S
O396 Zn386 1.910 . S
O396 C402 1.231 . S
C397 O381 1.225 . S
C397 O403 1.298 . S
C398 O387 1.226 . S
C398 O388 1.307 . S
C399 O391 1.303 . S
C399 O392 1.247 . S
C400 O389 1.253 . S
C400 O390 1.283 . S
C401 O393 1.304 . S
C401 O395 1.272 . S
C402 O394 1.311 . S
C402 O396 1.231 . S
O403 Zn385 1.953 . S
O403 C397 1.298 . S
O404 Zn405 1.953 1_445 S
O404 C420 1.225 . S
Zn405 O404 1.953 1_665 S
Zn405 O406 1.949 1_665 S
Zn405 O412 1.919 . S
Zn405 O417 1.924 1_565 S
O406 Zn405 1.949 1_445 S
O406 Zn407 1.923 1_545 S
O406 Zn408 1.950 . S
O406 Zn409 1.945 1_455 S
Zn407 O406 1.923 1_565 S
Zn407 O410 1.933 . S
Zn407 O413 1.941 . S
Zn407 O414 1.965 . S
Zn408 O406 1.950 . S
Zn408 O415 1.938 . S
Zn408 O416 1.906 . S
Zn408 O426 1.953 . S
Zn409 O406 1.945 1_655 S
Zn409 O411 1.932 . S
Zn409 O418 1.977 . S
Zn409 O419 1.910 . S
O410 Zn407 1.933 . S
O410 C421 1.226 1_455 S
O411 Zn409 1.932 . S
O411 C421 1.307 1_545 S
O412 Zn405 1.919 . S
O412 C423 1.253 . S
O413 Zn407 1.941 . S
O413 C423 1.283 1_455 S
O414 Zn407 1.965 . S
O414 C422 1.303 . S
O415 Zn408 1.938 . S
O415 C422 1.247 1_545 S
O416 Zn408 1.906 . S
O416 C424 1.304 . S
O417 Zn405 1.924 1_545 S
O417 C425 1.311 . S
O418 Zn409 1.977 . S
O418 C424 1.272 1_655 S
O419 Zn409 1.910 . S
O419 C425 1.231 . S
C420 O404 1.225 . S
C420 O426 1.298 . S
C421 O410 1.226 1_655 S
C421 O411 1.307 1_565 S
C422 O414 1.303 . S
C422 O415 1.247 1_565 S
C423 O412 1.253 . S
C423 O413 1.283 1_655 S
C424 O416 1.304 . S
C424 O418 1.272 1_455 S
C425 O417 1.311 . S
C425 O419 1.231 . S
O426 Zn408 1.953 . S
O426 C420 1.298 . S
O427 Zn428 1.953 . S
O427 C443 1.225 . S
Zn428 O427 1.953 . S
Zn428 O429 1.949 . S
Zn428 O435 1.919 . S
Zn428 O440 1.924 . S
O429 Zn428 1.949 . S
O429 Zn430 1.923 . S
O429 Zn431 1.950 . S
O429 Zn432 1.945 . S
Zn430 O429 1.923 . S
Zn430 O433 1.933 . S
Zn430 O436 1.941 . S
Zn430 O437 1.965 . S
Zn431 O429 1.950 . S
Zn431 O438 1.938 . S
Zn431 O439 1.906 . S
Zn431 O449 1.953 . S
Zn432 O429 1.945 . S
Zn432 O434 1.932 . S
Zn432 O441 1.977 . S
Zn432 O442 1.910 . S
O433 Zn430 1.933 . S
O433 C444 1.226 . S
O434 Zn432 1.932 . S
O434 C444 1.307 . S
O435 Zn428 1.919 . S
O435 C446 1.253 . S
O436 Zn430 1.941 . S
O436 C446 1.283 . S
O437 Zn430 1.965 . S
O437 C445 1.303 . S
O438 Zn431 1.938 . S
O438 C445 1.247 . S
O439 Zn431 1.906 . S
O439 C447 1.304 . S
O440 Zn428 1.924 . S
O440 C448 1.311 . S
O441 Zn432 1.977 . S
O441 C447 1.272 . S
O442 Zn432 1.910 . S
O442 C448 1.231 . S
C443 O427 1.225 . S
C443 O449 1.298 . S
C444 O433 1.226 . S
C444 O434 1.307 . S
C445 O437 1.303 . S
C445 O438 1.247 . S
C446 O435 1.253 . S
C446 O436 1.283 . S
C447 O439 1.304 . S
C447 O441 1.272 . S
C448 O440 1.311 . S
C448 O442 1.231 . S
O449 Zn431 1.953 . S
O449 C443 1.298 . S
O450 Zn451 1.953 . S
O450 C466 1.225 . S
Zn451 O450 1.953 . S
Zn451 O452 1.949 . S
Zn451 O458 1.919 1_545 S
Zn451 O463 1.924 . S
O452 Zn451 1.949 . S
O452 Zn453 1.923 1_544 S
O452 Zn454 1.950 . S
O452 Zn455 1.945 1_554 S
Zn453 O452 1.923 1_566 S
Zn453 O456 1.933 . S
Zn453 O459 1.941 . S
Zn453 O460 1.965 1_556 S
Zn454 O452 1.950 . S
Zn454 O461 1.938 1_545 S
Zn454 O462 1.906 . S
Zn454 O472 1.953 . S
Zn455 O452 1.945 1_556 S
Zn455 O457 1.932 . S
Zn455 O464 1.977 1_556 S
Zn455 O465 1.910 . S
O456 Zn453 1.933 . S
O456 C467 1.226 . S
O457 Zn455 1.932 . S
O457 C467 1.307 1_545 S
O458 Zn451 1.919 1_565 S
O458 C469 1.253 1_554 S
O459 Zn453 1.941 . S
O459 C469 1.283 . S
O460 Zn453 1.965 1_554 S
O460 C468 1.303 . S
O461 Zn454 1.938 1_565 S
O461 C468 1.247 . S
O462 Zn454 1.906 . S
O462 C470 1.304 . S
O463 Zn451 1.924 . S
O463 C471 1.311 1_554 S
O464 Zn455 1.977 1_554 S
O464 C470 1.272 . S
O465 Zn455 1.910 . S
O465 C471 1.231 . S
C466 O450 1.225 . S
C466 O472 1.298 . S
C467 O456 1.226 . S
C467 O457 1.307 1_565 S
C468 O460 1.303 . S
C468 O461 1.247 . S
C469 O458 1.253 1_556 S
C469 O459 1.283 . S
C470 O462 1.304 . S
C470 O464 1.272 . S
C471 O463 1.311 1_556 S
C471 O465 1.231 . S
O472 Zn454 1.953 . S
O472 C466 1.298 . S
O473 Zn474 1.953 . S
O473 C489 1.225 . S
Zn474 O473 1.953 . S
Zn474 O475 1.949 . S
Zn474 O481 1.919 . S
Zn474 O486 1.924 . S
O475 Zn474 1.949 . S
O475 Zn476 1.923 . S
O475 Zn477 1.950 . S
O475 Zn478 1.945 . S
Zn476 O475 1.923 . S
Zn476 O479 1.933 . S
Zn476 O482 1.941 . S
Zn476 O483 1.965 . S
Zn477 O475 1.950 . S
Zn477 O484 1.938 . S
Zn477 O485 1.906 . S
Zn477 O495 1.953 . S
Zn478 O475 1.945 . S
Zn478 O480 1.932 . S
Zn478 O487 1.977 . S
Zn478 O488 1.910 . S
O479 Zn476 1.933 . S
O479 C490 1.226 . S
O480 Zn478 1.932 . S
O480 C490 1.307 . S
O481 Zn474 1.919 . S
O481 C492 1.253 . S
O482 Zn476 1.941 . S
O482 C492 1.283 . S
O483 Zn476 1.965 . S
O483 C491 1.303 . S
O484 Zn477 1.938 . S
O484 C491 1.247 . S
O485 Zn477 1.906 . S
O485 C493 1.304 . S
O486 Zn474 1.924 . S
O486 C494 1.311 . S
O487 Zn478 1.977 . S
O487 C493 1.272 . S
O488 Zn478 1.910 . S
O488 C494 1.231 . S
C489 O473 1.225 . S
C489 O495 1.298 . S
C490 O479 1.226 . S
C490 O480 1.307 . S
C491 O483 1.303 . S
C491 O484 1.247 . S
C492 O481 1.253 . S
C492 O482 1.283 . S
C493 O485 1.304 . S
C493 O487 1.272 . S
C494 O486 1.311 . S
C494 O488 1.231 . S
O495 Zn477 1.953 . S
O495 C489 1.298 . S
O496 Zn497 1.953 . S
O496 C512 1.225 . S
Zn497 O496 1.953 . S
Zn497 O498 1.949 1_556 S
Zn497 O504 1.919 . S
Zn497 O509 1.924 . S
O498 Zn497 1.949 1_554 S
O498 Zn499 1.923 . S
O498 Zn500 1.950 . S
O498 Zn501 1.945 . S
Zn499 O498 1.923 . S
Zn499 O502 1.933 . S
Zn499 O505 1.941 . S
Zn499 O506 1.965 . S
Zn500 O498 1.950 . S
Zn500 O507 1.938 . S
Zn500 O508 1.906 . S
Zn500 O518 1.953 1_554 S
Zn501 O498 1.945 . S
Zn501 O503 1.932 . S
Zn501 O510 1.977 . S
Zn501 O511 1.910 . S
O502 Zn499 1.933 . S
O502 C513 1.226 . S
O503 Zn501 1.932 . S
O503 C513 1.307 . S
O504 Zn497 1.919 . S
O504 C515 1.253 . S
O505 Zn499 1.941 . S
O505 C515 1.283 1_554 S
O506 Zn499 1.965 . S
O506 C514 1.303 . S
O507 Zn500 1.938 . S
O507 C514 1.247 . S
O508 Zn500 1.906 . S
O508 C516 1.304 . S
O509 Zn497 1.924 . S
O509 C517 1.311 . S
O510 Zn501 1.977 . S
O510 C516 1.272 . S
O511 Zn501 1.910 . S
O511 C517 1.231 1_554 S
C512 O496 1.225 . S
C512 O518 1.298 . S
C513 O502 1.226 . S
C513 O503 1.307 . S
C514 O506 1.303 . S
C514 O507 1.247 . S
C515 O504 1.253 . S
C515 O505 1.283 1_556 S
C516 O508 1.304 . S
C516 O510 1.272 . S
C517 O509 1.311 . S
C517 O511 1.231 1_556 S
O518 Zn500 1.953 1_556 S
O518 C512 1.298 . S
O519 Zn520 1.953 . S
O519 C535 1.225 . S
Zn520 O519 1.953 . S
Zn520 O521 1.949 . S
Zn520 O527 1.919 . S
Zn520 O532 1.924 . S
O521 Zn520 1.949 . S
O521 Zn522 1.923 . S
O521 Zn523 1.950 . S
O521 Zn524 1.945 . S
Zn522 O521 1.923 . S
Zn522 O525 1.933 . S
Zn522 O528 1.941 . S
Zn522 O529 1.965 . S
Zn523 O521 1.950 . S
Zn523 O530 1.938 . S
Zn523 O531 1.906 . S
Zn523 O541 1.953 . S
Zn524 O521 1.945 . S
Zn524 O526 1.932 . S
Zn524 O533 1.977 . S
Zn524 O534 1.910 . S
O525 Zn522 1.933 . S
O525 C536 1.226 . S
O526 Zn524 1.932 . S
O526 C536 1.307 . S
O527 Zn520 1.919 . S
O527 C538 1.253 . S
O528 Zn522 1.941 . S
O528 C538 1.283 . S
O529 Zn522 1.965 . S
O529 C537 1.303 . S
O530 Zn523 1.938 . S
O530 C537 1.247 . S
O531 Zn523 1.906 . S
O531 C539 1.304 . S
O532 Zn520 1.924 . S
O532 C540 1.311 . S
O533 Zn524 1.977 . S
O533 C539 1.272 . S
O534 Zn524 1.910 . S
O534 C540 1.231 . S
C535 O519 1.225 . S
C535 O541 1.298 . S
C536 O525 1.226 . S
C536 O526 1.307 . S
C537 O529 1.303 . S
C537 O530 1.247 . S
C538 O527 1.253 . S
C538 O528 1.283 . S
C539 O531 1.304 . S
C539 O533 1.272 . S
C540 O532 1.311 . S
C540 O534 1.231 . S
O541 Zn523 1.953 . S
O541 C535 1.298 . S
O542 Zn543 1.953 . S
O542 C558 1.225 . S
Zn543 O542 1.953 . S
Zn543 O544 1.931 1_455 S
Zn543 O550 1.919 . S
Zn543 O555 1.924 . S
O544 Zn543 1.931 1_655 S
O544 Zn545 1.921 1_655 S
O544 Zn546 1.960 . S
O544 Zn547 1.953 . S
Zn545 O544 1.921 1_455 S
Zn545 O548 1.921 1_455 S
Zn545 O551 1.972 . S
Zn545 O552 1.955 1_455 S
Zn546 O544 1.960 . S
Zn546 O553 1.938 . S
Zn546 O554 1.906 . S
Zn546 O564 1.939 1_655 S
Zn547 O544 1.953 . S
Zn547 O549 1.932 . S
Zn547 O556 1.977 . S
Zn547 O557 1.913 . S
O548 Zn545 1.921 1_655 S
O548 C559 1.226 . S
O549 Zn547 1.932 . S
O549 C559 1.307 . S
O550 Zn543 1.919 . S
O550 C561 1.253 . S
O551 Zn545 1.972 . S
O551 C561 1.283 . S
O552 Zn545 1.955 1_655 S
O552 C560 1.303 . S
O553 Zn546 1.938 . S
O553 C560 1.247 . S
O554 Zn546 1.906 . S
O554 C562 1.304 . S
O555 Zn543 1.924 . S
O555 C563 1.311 . S
O556 Zn547 1.977 . S
O556 C562 1.272 . S
O557 Zn547 1.913 . S
O557 C563 1.225 1_655 S
C558 O542 1.225 . S
C558 O564 1.325 . S
C559 O548 1.226 . S
C559 O549 1.307 . S
C560 O552 1.303 . S
C560 O553 1.247 . S
C561 O550 1.253 . S
C561 O551 1.283 . S
C562 O554 1.304 . S
C562 O556 1.272 . S
C563 O555 1.311 . S
C563 O557 1.225 1_455 S
O564 Zn546 1.939 1_455 S
O564 C558 1.325 . S
O565 Zn566 1.953 . S
O565 C581 1.225 . S
Zn566 O565 1.953 . S
Zn566 O567 1.949 . S
Zn566 O573 1.919 . S
Zn566 O578 1.924 . S
O567 Zn566 1.949 . S
O567 Zn568 1.923 . S
O567 Zn569 1.950 . S
O567 Zn570 1.945 . S
Zn568 O567 1.923 . S
Zn568 O571 1.933 . S
Zn568 O574 1.941 . S
Zn568 O575 1.965 . S
Zn569 O567 1.950 . S
Zn569 O576 1.938 . S
Zn569 O577 1.906 . S
Zn569 O587 1.953 . S
Zn570 O567 1.945 . S
Zn570 O572 1.932 . S
Zn570 O579 1.977 . S
Zn570 O580 1.910 . S
O571 Zn568 1.933 . S
O571 C582 1.226 . S
O572 Zn570 1.932 . S
O572 C582 1.307 . S
O573 Zn566 1.919 . S
O573 C584 1.253 . S
O574 Zn568 1.941 . S
O574 C584 1.283 . S
O575 Zn568 1.965 . S
O575 C583 1.303 . S
O576 Zn569 1.938 . S
O576 C583 1.247 . S
O577 Zn569 1.906 . S
O577 C585 1.304 . S
O578 Zn566 1.924 . S
O578 C586 1.311 . S
O579 Zn570 1.977 . S
O579 C585 1.272 . S
O580 Zn570 1.910 . S
O580 C586 1.231 . S
C581 O565 1.225 . S
C581 O587 1.298 . S
C582 O571 1.226 . S
C582 O572 1.307 . S
C583 O575 1.303 . S
C583 O576 1.247 . S
C584 O573 1.253 . S
C584 O574 1.283 . S
C585 O577 1.304 . S
C585 O579 1.272 . S
C586 O578 1.311 . S
C586 O580 1.231 . S
O587 Zn569 1.953 . S
O587 C581 1.298 . S
O588 Zn589 1.953 . S
O588 C604 1.225 . S
Zn589 O588 1.953 . S
Zn589 O590 1.949 . S
Zn589 O596 1.919 . S
Zn589 O601 1.924 . S
O590 Zn589 1.949 . S
O590 Zn591 1.923 . S
O590 Zn592 1.950 . S
O590 Zn593 1.945 . S
Zn591 O590 1.923 . S
Zn591 O594 1.933 . S
Zn591 O597 1.941 . S
Zn591 O598 1.965 . S
Zn592 O590 1.950 . S
Zn592 O599 1.938 . S
Zn592 O600 1.906 . S
Zn592 O610 1.953 . S
Zn593 O590 1.945 . S
Zn593 O595 1.932 . S
Zn593 O602 1.977 . S
Zn593 O603 1.910 . S
O594 Zn591 1.933 . S
O594 C605 1.226 . S
O595 Zn593 1.932 . S
O595 C605 1.307 . S
O596 Zn589 1.919 . S
O596 C607 1.253 . S
O597 Zn591 1.941 . S
O597 C607 1.283 . S
O598 Zn591 1.965 . S
O598 C606 1.303 . S
O599 Zn592 1.938 . S
O599 C606 1.247 . S
O600 Zn592 1.906 . S
O600 C608 1.304 . S
O601 Zn589 1.924 . S
O601 C609 1.311 . S
O602 Zn593 1.977 . S
O602 C608 1.272 . S
O603 Zn593 1.910 . S
O603 C609 1.231 . S
C604 O588 1.225 . S
C604 O610 1.298 . S
C605 O594 1.226 . S
C605 O595 1.307 . S
C606 O598 1.303 . S
C606 O599 1.247 . S
C607 O596 1.253 . S
C607 O597 1.283 . S
C608 O600 1.304 . S
C608 O602 1.272 . S
C609 O601 1.311 . S
C609 O603 1.231 . S
O610 Zn592 1.953 . S
O610 C604 1.298 . S
O611 Zn612 1.953 . S
O611 C627 1.225 . S
Zn612 O611 1.953 . S
Zn612 O613 1.949 . S
Zn612 O619 1.919 . S
Zn612 O624 1.924 . S
O613 Zn612 1.949 . S
O613 Zn614 1.923 . S
O613 Zn615 1.950 . S
O613 Zn616 1.945 . S
Zn614 O613 1.923 . S
Zn614 O617 1.933 . S
Zn614 O620 1.941 . S
Zn614 O621 1.965 . S
Zn615 O613 1.950 . S
Zn615 O622 1.938 . S
Zn615 O623 1.906 . S
Zn615 O633 1.953 . S
Zn616 O613 1.945 . S
Zn616 O618 1.932 . S
Zn616 O625 1.977 . S
Zn616 O626 1.910 . S
O617 Zn614 1.933 . S
O617 C628 1.226 . S
O618 Zn616 1.932 . S
O618 C628 1.307 . S
O619 Zn612 1.919 . S
O619 C630 1.253 . S
O620 Zn614 1.941 . S
O620 C630 1.283 . S
O621 Zn614 1.965 . S
O621 C629 1.303 . S
O622 Zn615 1.938 . S
O622 C629 1.247 . S
O623 Zn615 1.906 . S
O623 C631 1.304 . S
O624 Zn612 1.924 . S
O624 C632 1.311 . S
O625 Zn616 1.977 . S
O625 C631 1.272 . S
O626 Zn616 1.910 . S
O626 C632 1.231 . S
C627 O611 1.225 . S
C627 O633 1.298 . S
C628 O617 1.226 . S
C628 O618 1.307 . S
C629 O621 1.303 . S
C629 O622 1.247 . S
C630 O619 1.253 . S
C630 O620 1.283 . S
C631 O623 1.304 . S
C631 O625 1.272 . S
C632 O624 1.311 . S
C632 O626 1.231 . S
O633 Zn615 1.953 . S
O633 C627 1.298 . S
O634 Zn635 1.953 . S
O634 C650 1.225 . S
Zn635 O634 1.953 . S
Zn635 O636 1.949 . S
Zn635 O642 1.919 . S
Zn635 O647 1.924 . S
O636 Zn635 1.949 . S
O636 Zn637 1.923 . S
O636 Zn638 1.950 . S
O636 Zn639 1.945 . S
Zn637 O636 1.923 . S
Zn637 O640 1.933 . S
Zn637 O643 1.941 . S
Zn637 O644 1.965 . S
Zn638 O636 1.950 . S
Zn638 O645 1.938 . S
Zn638 O646 1.906 . S
Zn638 O656 1.953 . S
Zn639 O636 1.945 . S
Zn639 O641 1.932 . S
Zn639 O648 1.977 . S
Zn639 O649 1.910 . S
O640 Zn637 1.933 . S
O640 C651 1.226 . S
O641 Zn639 1.932 . S
O641 C651 1.307 . S
O642 Zn635 1.919 . S
O642 C653 1.253 . S
O643 Zn637 1.941 . S
O643 C653 1.283 . S
O644 Zn637 1.965 . S
O644 C652 1.303 . S
O645 Zn638 1.938 . S
O645 C652 1.247 . S
O646 Zn638 1.906 . S
O646 C654 1.304 . S
O647 Zn635 1.924 . S
O647 C655 1.311 . S
O648 Zn639 1.977 . S
O648 C654 1.272 . S
O649 Zn639 1.910 . S
O649 C655 1.231 . S
C650 O634 1.225 . S
C650 O656 1.298 . S
C651 O640 1.226 . S
C651 O641 1.307 . S
C652 O644 1.303 . S
C652 O645 1.247 . S
C653 O642 1.253 . S
C653 O643 1.283 . S
C654 O646 1.304 . S
C654 O648 1.272 . S
C655 O647 1.311 . S
C655 O649 1.231 . S
O656 Zn638 1.953 . S
O656 C650 1.298 . S
O657 Zn658 1.971 1_455 S
O657 C673 1.225 . S
Zn658 O657 1.971 1_655 S
Zn658 O659 1.961 1_655 S
Zn658 O665 1.914 1_554 S
Zn658 O670 1.897 1_654 S
O659 Zn658 1.961 1_455 S
O659 Zn660 1.923 1_455 S
O659 Zn661 1.950 . S
O659 Zn662 1.945 1_554 S
Zn660 O659 1.923 1_655 S
Zn660 O663 1.933 . S
Zn660 O666 1.941 . S
Zn660 O667 1.965 . S
Zn661 O659 1.950 . S
Zn661 O668 1.938 . S
Zn661 O669 1.906 . S
Zn661 O679 1.953 . S
Zn662 O659 1.945 1_556 S
Zn662 O664 1.932 . S
Zn662 O671 1.977 1_556 S
Zn662 O672 1.910 . S
O663 Zn660 1.933 . S
O663 C674 1.226 1_554 S
O664 Zn662 1.932 . S
O664 C674 1.307 1_455 S
O665 Zn658 1.914 1_556 S
O665 C676 1.253 1_556 S
O666 Zn660 1.941 . S
O666 C676 1.283 . S
O667 Zn660 1.965 . S
O667 C675 1.303 . S
O668 Zn661 1.938 . S
O668 C675 1.247 1_455 S
O669 Zn661 1.906 . S
O669 C677 1.304 . S
O670 Zn658 1.897 1_456 S
O670 C678 1.311 . S
O671 Zn662 1.977 1_554 S
O671 C677 1.272 . S
O672 Zn662 1.910 . S
O672 C678 1.231 . S
C673 O657 1.225 . S
C673 O679 1.298 . S
C674 O663 1.226 1_556 S
C674 O664 1.307 1_655 S
C675 O667 1.303 . S
C675 O668 1.247 1_655 S
C676 O665 1.253 1_554 S
C676 O666 1.283 . S
C677 O669 1.304 . S
C677 O671 1.272 . S
C678 O670 1.311 . S
C678 O672 1.231 . S
O679 Zn661 1.953 . S
O679 C673 1.298 . S
C680 C681 1.369 . S
C680 C682 1.419 . S
C680 H684 0.930 . S
C681 C680 1.369 . S
C681 C690 1.429 1_455 S
C682 C680 1.419 . S
C682 C683 1.363 1_455 S
C682 H685 0.929 . S
C683 C682 1.363 1_655 S
C683 C689 1.428 . S
H684 C680 0.930 . S
H685 C682 0.929 . S
S686 N687 1.613 . S
S686 N688 1.610 . S
N687 S686 1.613 . S
N687 C690 1.350 . S
N688 S686 1.610 . S
N688 C689 1.351 . S
C689 C683 1.428 . S
C689 N688 1.351 . S
C689 C690 1.434 . S
C690 C681 1.429 1_655 S
C690 N687 1.350 . S
C690 C689 1.434 . S
C691 C692 1.369 . S
C691 C693 1.419 . S
C691 H695 0.930 . S
C692 C691 1.369 . S
C692 C701 1.429 . S
C693 C691 1.419 . S
C693 C694 1.363 . S
C693 H696 0.929 . S
C694 C693 1.363 . S
C694 C700 1.428 . S
H695 C691 0.930 . S
H696 C693 0.929 . S
S697 N698 1.613 . S
S697 N699 1.610 . S
N698 S697 1.613 . S
N698 C701 1.350 . S
N699 S697 1.610 . S
N699 C700 1.351 . S
C700 C694 1.428 . S
C700 N699 1.351 . S
C700 C701 1.434 . S
C701 C692 1.429 . S
C701 N698 1.350 . S
C701 C700 1.434 . S
C702 C703 1.369 . S
C702 C704 1.419 . S
C702 H706 0.930 . S
C703 C702 1.369 . S
C703 C712 1.429 . S
C704 C702 1.419 . S
C704 C705 1.363 . S
C704 H707 0.929 . S
C705 C704 1.363 . S
C705 C711 1.428 . S
H706 C702 0.930 . S
H707 C704 0.929 . S
S708 N709 1.613 . S
S708 N710 1.610 . S
N709 S708 1.613 . S
N709 C712 1.350 . S
N710 S708 1.610 . S
N710 C711 1.351 . S
C711 C705 1.428 . S
C711 N710 1.351 . S
C711 C712 1.434 . S
C712 C703 1.429 . S
C712 N709 1.350 . S
C712 C711 1.434 . S
C713 C714 1.369 . S
C713 C715 1.419 . S
C713 H717 0.930 . S
C714 C713 1.369 . S
C714 C723 1.429 . S
C715 C713 1.419 . S
C715 C716 1.363 . S
C715 H718 0.929 . S
C716 C715 1.363 . S
C716 C722 1.428 . S
H717 C713 0.930 . S
H718 C715 0.929 . S
S719 N720 1.613 . S
S719 N721 1.610 . S
N720 S719 1.613 . S
N720 C723 1.350 . S
N721 S719 1.610 . S
N721 C722 1.351 . S
C722 C716 1.428 . S
C722 N721 1.351 . S
C722 C723 1.434 . S
C723 C714 1.429 . S
C723 N720 1.350 . S
C723 C722 1.434 . S
C724 C725 1.369 1_655 S
C724 C726 1.419 . S
C724 H728 0.930 . S
C725 C724 1.369 1_455 S
C725 C734 1.429 . S
C726 C724 1.419 . S
C726 C727 1.363 . S
C726 H729 0.929 . S
C727 C726 1.363 . S
C727 C733 1.428 1_655 S
H728 C724 0.930 . S
H729 C726 0.929 . S
S730 N731 1.613 . S
S730 N732 1.610 . S
N731 S730 1.613 . S
N731 C734 1.350 . S
N732 S730 1.610 . S
N732 C733 1.351 . S
C733 C727 1.428 1_455 S
C733 N732 1.351 . S
C733 C734 1.434 . S
C734 C725 1.429 . S
C734 N731 1.350 . S
C734 C733 1.434 . S
C735 C736 1.369 . S
C735 C737 1.419 . S
C735 H739 0.930 . S
C736 C735 1.369 . S
C736 C745 1.429 . S
C737 C735 1.419 . S
C737 C738 1.363 . S
C737 H740 0.929 . S
C738 C737 1.363 . S
C738 C744 1.428 . S
H739 C735 0.930 . S
H740 C737 0.929 . S
S741 N742 1.613 . S
S741 N743 1.610 . S
N742 S741 1.613 . S
N742 C745 1.350 . S
N743 S741 1.610 . S
N743 C744 1.351 . S
C744 C738 1.428 . S
C744 N743 1.351 . S
C744 C745 1.434 . S
C745 C736 1.429 . S
C745 N742 1.350 . S
C745 C744 1.434 . S
C746 C747 1.369 . S
C746 C748 1.419 . S
C746 H750 0.930 . S
C747 C746 1.369 . S
C747 C756 1.429 . S
C748 C746 1.419 . S
C748 C749 1.363 . S
C748 H751 0.929 1_556 S
C749 C748 1.363 . S
C749 C755 1.428 . S
H750 C746 0.930 . S
H751 C748 0.929 1_554 S
S752 N753 1.613 . S
S752 N754 1.610 . S
N753 S752 1.613 . S
N753 C756 1.350 . S
N754 S752 1.610 . S
N754 C755 1.351 . S
C755 C749 1.428 . S
C755 N754 1.351 . S
C755 C756 1.434 . S
C756 C747 1.429 . S
C756 N753 1.350 . S
C756 C755 1.434 . S
C757 C758 1.369 . S
C757 C759 1.419 . S
C757 H761 0.930 . S
C758 C757 1.369 . S
C758 C767 1.429 . S
C759 C757 1.419 . S
C759 C760 1.363 . S
C759 H762 0.929 . S
C760 C759 1.363 . S
C760 C766 1.428 . S
H761 C757 0.930 . S
H762 C759 0.929 . S
S763 N764 1.613 . S
S763 N765 1.610 . S
N764 S763 1.613 . S
N764 C767 1.350 . S
N765 S763 1.610 . S
N765 C766 1.351 . S
C766 C760 1.428 . S
C766 N765 1.351 . S
C766 C767 1.434 . S
C767 C758 1.429 . S
C767 N764 1.350 . S
C767 C766 1.434 . S
C768 C769 1.369 . S
C768 C770 1.419 . S
C768 H772 0.930 . S
C769 C768 1.369 . S
C769 C778 1.429 . S
C770 C768 1.419 . S
C770 C771 1.363 . S
C770 H773 0.929 . S
C771 C770 1.363 . S
C771 C777 1.428 . S
H772 C768 0.930 . S
H773 C770 0.929 . S
S774 N775 1.613 . S
S774 N776 1.610 . S
N775 S774 1.613 . S
N775 C778 1.350 . S
N776 S774 1.610 . S
N776 C777 1.351 . S
C777 C771 1.428 . S
C777 N776 1.351 . S
C777 C778 1.434 . S
C778 C769 1.429 . S
C778 N775 1.350 . S
C778 C777 1.434 . S
C779 C780 1.369 . S
C779 C781 1.419 . S
C779 H783 0.930 . S
C780 C779 1.369 . S
C780 C789 1.429 . S
C781 C779 1.419 . S
C781 C782 1.363 . S
C781 H784 0.929 . S
C782 C781 1.363 . S
C782 C788 1.428 . S
H783 C779 0.930 . S
H784 C781 0.929 . S
S785 N786 1.613 . S
S785 N787 1.610 . S
N786 S785 1.613 . S
N786 C789 1.350 . S
N787 S785 1.610 . S
N787 C788 1.351 . S
C788 C782 1.428 . S
C788 N787 1.351 . S
C788 C789 1.434 . S
C789 C780 1.429 . S
C789 N786 1.350 . S
C789 C788 1.434 . S
C790 C791 1.349 1_565 S
C790 C792 1.419 . S
C790 H794 0.930 . S
C791 C790 1.349 1_545 S
C791 C800 1.454 . S
C792 C790 1.419 . S
C792 C793 1.363 1_565 S
C792 H795 0.929 . S
C793 C792 1.363 1_545 S
C793 C799 1.428 . S
H794 C790 0.930 . S
H795 C792 0.929 . S
S796 N797 1.613 . S
S796 N798 1.610 . S
N797 S796 1.613 . S
N797 C800 1.350 . S
N798 S796 1.610 . S
N798 C799 1.351 . S
C799 C793 1.428 . S
C799 N798 1.351 . S
C799 C800 1.434 . S
C800 C791 1.454 . S
C800 N797 1.350 . S
C800 C799 1.434 . S
C801 C802 1.369 . S
C801 C803 1.419 . S
C801 H805 0.930 . S
C802 C801 1.369 . S
C802 C811 1.429 . S
C803 C801 1.419 . S
C803 C804 1.363 . S
C803 H806 0.929 . S
C804 C803 1.363 . S
C804 C810 1.428 . S
H805 C801 0.930 . S
H806 C803 0.929 . S
S807 N808 1.613 . S
S807 N809 1.610 . S
N808 S807 1.613 . S
N808 C811 1.350 . S
N809 S807 1.610 . S
N809 C810 1.351 . S
C810 C804 1.428 . S
C810 N809 1.351 . S
C810 C811 1.434 . S
C811 C802 1.429 . S
C811 N808 1.350 . S
C811 C810 1.434 . S
C812 C813 1.369 . S
C812 C814 1.419 . S
C812 H816 0.930 1_545 S
C813 C812 1.369 . S
C813 C822 1.429 . S
C814 C812 1.419 . S
C814 C815 1.363 . S
C814 H817 0.947 . S
C815 C814 1.363 . S
C815 C821 1.428 . S
H816 C812 0.930 1_565 S
H817 C814 0.947 . S
S818 N819 1.613 . S
S818 N820 1.610 . S
N819 S818 1.613 . S
N819 C822 1.350 . S
N820 S818 1.610 . S
N820 C821 1.351 . S
C821 C815 1.428 . S
C821 N820 1.351 . S
C821 C822 1.434 . S
C822 C813 1.429 . S
C822 N819 1.350 . S
C822 C821 1.434 . S
C823 C824 1.369 . S
C823 C825 1.419 . S
C823 H827 0.930 . S
C824 C823 1.369 . S
C824 C833 1.429 . S
C825 C823 1.419 . S
C825 C826 1.363 . S
C825 H828 0.929 . S
C826 C825 1.363 . S
C826 C832 1.428 . S
H827 C823 0.930 . S
H828 C825 0.929 . S
S829 N830 1.613 . S
S829 N831 1.610 . S
N830 S829 1.613 . S
N830 C833 1.350 . S
N831 S829 1.610 . S
N831 C832 1.351 . S
C832 C826 1.428 . S
C832 N831 1.351 . S
C832 C833 1.434 . S
C833 C824 1.429 . S
C833 N830 1.350 . S
C833 C832 1.434 . S
C834 C835 1.369 1_545 S
C834 C836 1.419 . S
C834 H838 0.930 . S
C835 C834 1.369 1_565 S
C835 C844 1.429 . S
C836 C834 1.419 . S
C836 C837 1.363 1_545 S
C836 H839 0.929 . S
C837 C836 1.363 1_565 S
C837 C843 1.428 . S
H838 C834 0.930 . S
H839 C836 0.929 . S
S840 N841 1.613 . S
S840 N842 1.610 . S
N841 S840 1.613 . S
N841 C844 1.350 . S
N842 S840 1.610 . S
N842 C843 1.351 . S
C843 C837 1.428 . S
C843 N842 1.351 . S
C843 C844 1.434 . S
C844 C835 1.429 . S
C844 N841 1.350 . S
C844 C843 1.434 . S
C845 C846 1.369 . S
C845 C847 1.419 . S
C845 H849 0.930 . S
C846 C845 1.369 . S
C846 C855 1.429 . S
C847 C845 1.419 . S
C847 C848 1.363 . S
C847 H850 0.929 . S
C848 C847 1.363 . S
C848 C854 1.428 . S
H849 C845 0.930 . S
H850 C847 0.929 . S
S851 N852 1.613 . S
S851 N853 1.610 . S
N852 S851 1.613 . S
N852 C855 1.350 . S
N853 S851 1.610 . S
N853 C854 1.351 . S
C854 C848 1.428 . S
C854 N853 1.351 . S
C854 C855 1.434 . S
C855 C846 1.429 . S
C855 N852 1.350 . S
C855 C854 1.434 . S
C856 C857 1.369 . S
C856 C858 1.419 . S
C856 H860 0.930 . S
C857 C856 1.369 . S
C857 C866 1.429 1_554 S
C858 C856 1.419 . S
C858 C859 1.363 1_554 S
C858 H861 0.929 1_545 S
C859 C858 1.363 1_556 S
C859 C865 1.428 . S
H860 C856 0.930 . S
H861 C858 0.929 1_565 S
S862 N863 1.613 . S
S862 N864 1.610 . S
N863 S862 1.613 . S
N863 C866 1.350 . S
N864 S862 1.610 . S
N864 C865 1.351 . S
C865 C859 1.428 . S
C865 N864 1.351 . S
C865 C866 1.434 . S
C866 C857 1.429 1_556 S
C866 N863 1.350 . S
C866 C865 1.434 . S
C867 C868 1.369 1_556 S
C867 C869 1.419 . S
C867 H871 0.930 . S
C868 C867 1.369 1_554 S
C868 C877 1.429 . S
C869 C867 1.419 . S
C869 C870 1.363 1_556 S
C869 H872 0.929 . S
C870 C869 1.363 1_554 S
C870 C876 1.428 . S
H871 C867 0.930 . S
H872 C869 0.929 . S
S873 N874 1.613 . S
S873 N875 1.610 . S
N874 S873 1.613 . S
N874 C877 1.350 . S
N875 S873 1.610 . S
N875 C876 1.351 . S
C876 C870 1.428 . S
C876 N875 1.351 . S
C876 C877 1.434 . S
C877 C868 1.429 . S
C877 N874 1.350 . S
C877 C876 1.434 . S
C878 C879 1.369 . S
C878 C880 1.419 . S
C878 H882 0.930 . S
C879 C878 1.369 . S
C879 C888 1.429 . S
C880 C878 1.419 . S
C880 C881 1.363 . S
C880 H883 0.929 . S
C881 C880 1.363 . S
C881 C887 1.428 . S
H882 C878 0.930 . S
H883 C880 0.929 . S
S884 N885 1.613 . S
S884 N886 1.610 . S
N885 S884 1.613 . S
N885 C888 1.350 . S
N886 S884 1.610 . S
N886 C887 1.351 . S
C887 C881 1.428 . S
C887 N886 1.351 . S
C887 C888 1.434 . S
C888 C879 1.429 . S
C888 N885 1.350 . S
C888 C887 1.434 . S
C889 C890 1.369 . S
C889 C891 1.419 . S
C889 H893 0.930 . S
C890 C889 1.369 . S
C890 C899 1.429 . S
C891 C889 1.419 . S
C891 C892 1.363 . S
C891 H894 0.929 . S
C892 C891 1.363 . S
C892 C898 1.428 . S
H893 C889 0.930 . S
H894 C891 0.929 . S
S895 N896 1.613 . S
S895 N897 1.610 . S
N896 S895 1.613 . S
N896 C899 1.350 . S
N897 S895 1.610 . S
N897 C898 1.351 . S
C898 C892 1.428 . S
C898 N897 1.351 . S
C898 C899 1.434 . S
C899 C890 1.429 . S
C899 N896 1.350 . S
C899 C898 1.434 . S
C900 C901 1.369 . S
C900 C902 1.419 . S
C900 H904 0.930 . S
C901 C900 1.369 . S
C901 C910 1.429 . S
C902 C900 1.419 . S
C902 C903 1.363 . S
C902 H905 0.929 . S
C903 C902 1.363 . S
C903 C909 1.428 . S
H904 C900 0.930 . S
H905 C902 0.929 . S
S906 N907 1.613 . S
S906 N908 1.610 . S
N907 S906 1.613 . S
N907 C910 1.350 . S
N908 S906 1.610 . S
N908 C909 1.351 . S
C909 C903 1.428 . S
C909 N908 1.351 . S
C909 C910 1.434 . S
C910 C901 1.429 . S
C910 N907 1.350 . S
C910 C909 1.434 . S
C911 C912 1.369 . S
C911 C913 1.419 . S
C911 H915 0.930 . S
C912 C911 1.369 . S
C912 C921 1.429 . S
C913 C911 1.419 . S
C913 C914 1.363 . S
C913 H916 0.929 . S
C914 C913 1.363 . S
C914 C920 1.428 . S
H915 C911 0.930 . S
H916 C913 0.929 . S
S917 N918 1.613 . S
S917 N919 1.610 . S
N918 S917 1.613 . S
N918 C921 1.350 . S
N919 S917 1.610 . S
N919 C920 1.351 . S
C920 C914 1.428 . S
C920 N919 1.351 . S
C920 C921 1.434 . S
C921 C912 1.429 . S
C921 N918 1.350 . S
C921 C920 1.434 . S
C922 C923 1.369 . S
C922 C924 1.419 . S
C922 H926 0.930 . S
C923 C922 1.369 . S
C923 C932 1.429 . S
C924 C922 1.419 . S
C924 C925 1.363 . S
C924 H927 0.929 . S
C925 C924 1.363 . S
C925 C931 1.428 . S
H926 C922 0.930 . S
H927 C924 0.929 . S
S928 N929 1.613 . S
S928 N930 1.610 . S
N929 S928 1.613 . S
N929 C932 1.350 . S
N930 S928 1.610 . S
N930 C931 1.351 . S
C931 C925 1.428 . S
C931 N930 1.351 . S
C931 C932 1.434 . S
C932 C923 1.429 . S
C932 N929 1.350 . S
C932 C931 1.434 . S
C933 C934 1.369 . S
C933 C935 1.419 . S
C933 H937 0.930 . S
C934 C933 1.369 . S
C934 C943 1.429 . S
C935 C933 1.419 . S
C935 C936 1.363 . S
C935 H938 0.929 . S
C936 C935 1.363 . S
C936 C942 1.428 . S
H937 C933 0.930 . S
H938 C935 0.929 . S
S939 N940 1.613 . S
S939 N941 1.610 . S
N940 S939 1.613 . S
N940 C943 1.350 . S
N941 S939 1.610 . S
N941 C942 1.351 . S
C942 C936 1.428 . S
C942 N941 1.351 . S
C942 C943 1.434 . S
C943 C934 1.429 . S
C943 N940 1.350 . S
C943 C942 1.434 . S
C944 C945 1.369 . S
C944 C946 1.419 . S
C944 H948 0.930 . S
C945 C944 1.369 . S
C945 C954 1.429 . S
C946 C944 1.419 . S
C946 C947 1.363 . S
C946 H949 0.929 1_556 S
C947 C946 1.363 . S
C947 C953 1.428 . S
H948 C944 0.930 . S
H949 C946 0.929 1_554 S
S950 N951 1.613 . S
S950 N952 1.610 . S
N951 S950 1.613 . S
N951 C954 1.350 . S
N952 S950 1.610 . S
N952 C953 1.351 . S
C953 C947 1.428 . S
C953 N952 1.351 . S
C953 C954 1.434 . S
C954 C945 1.429 . S
C954 N951 1.350 . S
C954 C953 1.434 . S
C955 C956 1.369 . S
C955 C957 1.419 . S
C955 H959 0.930 . S
C956 C955 1.369 . S
C956 C965 1.429 . S
C957 C955 1.419 . S
C957 C958 1.363 . S
C957 H960 0.929 . S
C958 C957 1.363 . S
C958 C964 1.428 . S
H959 C955 0.930 . S
H960 C957 0.929 . S
S961 N962 1.613 . S
S961 N963 1.610 . S
N962 S961 1.613 . S
N962 C965 1.350 . S
N963 S961 1.610 . S
N963 C964 1.351 . S
C964 C958 1.428 . S
C964 N963 1.351 . S
C964 C965 1.434 . S
C965 C956 1.429 . S
C965 N962 1.350 . S
C965 C964 1.434 . S
C966 C967 1.369 . S
C966 C968 1.419 . S
C966 H970 0.930 . S
C967 C966 1.369 . S
C967 C976 1.429 . S
C968 C966 1.419 . S
C968 C969 1.363 . S
C968 H971 0.929 . S
C969 C968 1.363 . S
C969 C975 1.428 . S
H970 C966 0.930 . S
H971 C968 0.929 . S
S972 N973 1.613 . S
S972 N974 1.610 . S
N973 S972 1.613 . S
N973 C976 1.350 . S
N974 S972 1.610 . S
N974 C975 1.351 . S
C975 C969 1.428 . S
C975 N974 1.351 . S
C975 C976 1.434 . S
C976 C967 1.429 . S
C976 N973 1.350 . S
C976 C975 1.434 . S
C977 C978 1.369 . S
C977 C979 1.419 . S
C977 H981 0.930 . S
C978 C977 1.369 . S
C978 C987 1.429 . S
C979 C977 1.419 . S
C979 C980 1.363 . S
C979 H982 0.929 . S
C980 C979 1.363 . S
C980 C986 1.428 . S
H981 C977 0.930 . S
H982 C979 0.929 . S
S983 N984 1.613 . S
S983 N985 1.610 . S
N984 S983 1.613 . S
N984 C987 1.350 . S
N985 S983 1.610 . S
N985 C986 1.351 . S
C986 C980 1.428 . S
C986 N985 1.351 . S
C986 C987 1.434 . S
C987 C978 1.429 . S
C987 N984 1.350 . S
C987 C986 1.434 . S
C988 C989 1.369 . S
C988 C990 1.419 . S
C988 H992 0.930 . S
C989 C988 1.369 . S
C989 C998 1.429 . S
C990 C988 1.419 . S
C990 C991 1.363 . S
C990 H993 0.929 . S
C991 C990 1.363 . S
C991 C997 1.428 . S
H992 C988 0.930 . S
H993 C990 0.929 . S
S994 N995 1.613 . S
S994 N996 1.610 . S
N995 S994 1.613 . S
N995 C998 1.350 . S
N996 S994 1.610 . S
N996 C997 1.351 . S
C997 C991 1.428 . S
C997 N996 1.351 . S
C997 C998 1.434 . S
C998 C989 1.429 . S
C998 N995 1.350 . S
C998 C997 1.434 . S
C999 C1000 1.369 . S
C999 C1001 1.419 . S
C999 H1003 0.930 . S
C1000 C999 1.369 . S
C1000 C1009 1.429 . S
C1001 C999 1.419 . S
C1001 C1002 1.363 . S
C1001 H1004 0.929 . S
C1002 C1001 1.363 . S
C1002 C1008 1.428 . S
H1003 C999 0.930 . S
H1004 C1001 0.929 . S
S1005 N1006 1.613 . S
S1005 N1007 1.610 . S
N1006 S1005 1.613 . S
N1006 C1009 1.350 . S
N1007 S1005 1.610 . S
N1007 C1008 1.351 . S
C1008 C1002 1.428 . S
C1008 N1007 1.351 . S
C1008 C1009 1.434 . S
C1009 C1000 1.429 . S
C1009 N1006 1.350 . S
C1009 C1008 1.434 . S
C1010 C1011 1.369 . S
C1010 C1012 1.419 . S
C1010 H1014 0.930 . S
C1011 C1010 1.369 . S
C1011 C1020 1.429 . S
C1012 C1010 1.419 . S
C1012 C1013 1.363 . S
C1012 H1015 0.929 . S
C1013 C1012 1.363 . S
C1013 C1019 1.428 . S
H1014 C1010 0.930 . S
H1015 C1012 0.929 . S
S1016 N1017 1.613 . S
S1016 N1018 1.610 . S
N1017 S1016 1.613 . S
N1017 C1020 1.350 . S
N1018 S1016 1.610 . S
N1018 C1019 1.351 . S
C1019 C1013 1.428 . S
C1019 N1018 1.351 . S
C1019 C1020 1.434 . S
C1020 C1011 1.429 . S
C1020 N1017 1.350 . S
C1020 C1019 1.434 . S
C1021 C1022 1.369 . S
C1021 C1023 1.419 . S
C1021 H1025 0.930 . S
C1022 C1021 1.369 . S
C1022 C1031 1.429 . S
C1023 C1021 1.419 . S
C1023 C1024 1.363 . S
C1023 H1026 0.929 . S
C1024 C1023 1.363 . S
C1024 C1030 1.428 . S
H1025 C1021 0.930 . S
H1026 C1023 0.929 . S
S1027 N1028 1.613 . S
S1027 N1029 1.610 . S
N1028 S1027 1.613 . S
N1028 C1031 1.350 . S
N1029 S1027 1.610 . S
N1029 C1030 1.351 . S
C1030 C1024 1.428 . S
C1030 N1029 1.351 . S
C1030 C1031 1.434 . S
C1031 C1022 1.429 . S
C1031 N1028 1.350 . S
C1031 C1030 1.434 . S
C1032 C1033 1.369 . S
C1032 C1034 1.419 . S
C1032 H1036 0.930 . S
C1033 C1032 1.369 . S
C1033 C1042 1.429 . S
C1034 C1032 1.419 . S
C1034 C1035 1.363 . S
C1034 H1037 0.933 1_655 S
C1035 C1034 1.363 . S
C1035 C1041 1.428 . S
H1036 C1032 0.930 . S
H1037 C1034 0.933 1_455 S
S1038 N1039 1.613 . S
S1038 N1040 1.610 . S
N1039 S1038 1.613 . S
N1039 C1042 1.350 . S
N1040 S1038 1.610 . S
N1040 C1041 1.351 . S
C1041 C1035 1.428 . S
C1041 N1040 1.351 . S
C1041 C1042 1.434 . S
C1042 C1033 1.429 . S
C1042 N1039 1.350 . S
C1042 C1041 1.434 . S
C1043 C1044 1.369 . S
C1043 C1045 1.419 . S
C1043 H1047 0.930 . S
C1044 C1043 1.369 . S
C1044 C1053 1.429 . S
C1045 C1043 1.419 . S
C1045 C1046 1.363 . S
C1045 H1048 0.929 . S
C1046 C1045 1.363 . S
C1046 C1052 1.428 . S
H1047 C1043 0.930 . S
H1048 C1045 0.929 . S
S1049 N1050 1.613 . S
S1049 N1051 1.610 . S
N1050 S1049 1.613 . S
N1050 C1053 1.350 . S
N1051 S1049 1.610 . S
N1051 C1052 1.351 . S
C1052 C1046 1.428 . S
C1052 N1051 1.351 . S
C1052 C1053 1.434 . S
C1053 C1044 1.429 . S
C1053 N1050 1.350 . S
C1053 C1052 1.434 . S
C1054 C1055 1.369 1_545 S
C1054 C1056 1.419 1_545 S
C1054 H1058 0.930 . S
C1055 C1054 1.369 1_565 S
C1055 C1064 1.429 . S
C1056 C1054 1.419 1_565 S
C1056 C1057 1.363 . S
C1056 H1059 0.929 1_565 S
C1057 C1056 1.363 . S
C1057 C1063 1.428 . S
H1058 C1054 0.930 . S
H1059 C1056 0.929 1_545 S
S1060 N1061 1.613 . S
S1060 N1062 1.610 . S
N1061 S1060 1.613 . S
N1061 C1064 1.350 . S
N1062 S1060 1.610 . S
N1062 C1063 1.351 . S
C1063 C1057 1.428 . S
C1063 N1062 1.351 . S
C1063 C1064 1.434 . S
C1064 C1055 1.429 . S
C1064 N1061 1.350 . S
C1064 C1063 1.434 . S
C1065 C1066 1.369 . S
C1065 C1067 1.419 . S
C1065 H1069 0.930 . S
C1066 C1065 1.369 . S
C1066 C1075 1.429 . S
C1067 C1065 1.419 . S
C1067 C1068 1.363 . S
C1067 H1070 0.929 . S
C1068 C1067 1.363 . S
C1068 C1074 1.428 . S
H1069 C1065 0.930 . S
H1070 C1067 0.929 . S
S1071 N1072 1.613 . S
S1071 N1073 1.610 . S
N1072 S1071 1.613 . S
N1072 C1075 1.350 . S
N1073 S1071 1.610 . S
N1073 C1074 1.351 . S
C1074 C1068 1.428 . S
C1074 N1073 1.351 . S
C1074 C1075 1.434 . S
C1075 C1066 1.429 . S
C1075 N1072 1.350 . S
C1075 C1074 1.434 . S
C1076 C1077 1.369 . S
C1076 C1078 1.419 . S
C1076 H1080 0.930 . S
C1077 C1076 1.369 . S
C1077 C1086 1.429 1_545 S
C1078 C1076 1.419 . S
C1078 C1079 1.363 1_545 S
C1078 H1081 0.929 . S
C1079 C1078 1.363 1_565 S
C1079 C1085 1.428 . S
H1080 C1076 0.930 . S
H1081 C1078 0.929 . S
S1082 N1083 1.613 . S
S1082 N1084 1.610 . S
N1083 S1082 1.613 . S
N1083 C1086 1.350 . S
N1084 S1082 1.610 . S
N1084 C1085 1.351 . S
C1085 C1079 1.428 . S
C1085 N1084 1.351 . S
C1085 C1086 1.434 . S
C1086 C1077 1.429 1_565 S
C1086 N1083 1.350 . S
C1086 C1085 1.434 . S
C1087 C1088 1.369 . S
C1087 C1089 1.419 . S
C1087 H1091 0.930 . S
C1088 C1087 1.369 . S
C1088 C1097 1.429 . S
C1089 C1087 1.419 . S
C1089 C1090 1.363 . S
C1089 H1092 0.929 . S
C1090 C1089 1.363 . S
C1090 C1096 1.428 . S
H1091 C1087 0.930 . S
H1092 C1089 0.929 . S
S1093 N1094 1.613 . S
S1093 N1095 1.610 . S
N1094 S1093 1.613 . S
N1094 C1097 1.350 . S
N1095 S1093 1.610 . S
N1095 C1096 1.351 . S
C1096 C1090 1.428 . S
C1096 N1095 1.351 . S
C1096 C1097 1.434 . S
C1097 C1088 1.429 . S
C1097 N1094 1.350 . S
C1097 C1096 1.434 . S
C1098 C1099 1.369 . S
C1098 C1100 1.419 . S
C1098 H1102 0.930 . S
C1099 C1098 1.369 . S
C1099 C1108 1.429 . S
C1100 C1098 1.419 . S
C1100 C1101 1.363 . S
C1100 H1103 0.929 . S
C1101 C1100 1.363 . S
C1101 C1107 1.428 . S
H1102 C1098 0.930 . S
H1103 C1100 0.929 . S
S1104 N1105 1.613 . S
S1104 N1106 1.610 . S
N1105 S1104 1.613 . S
N1105 C1108 1.350 . S
N1106 S1104 1.610 . S
N1106 C1107 1.351 . S
C1107 C1101 1.428 . S
C1107 N1106 1.351 . S
C1107 C1108 1.434 . S
C1108 C1099 1.429 . S
C1108 N1105 1.350 . S
C1108 C1107 1.434 . S
C1109 C1110 1.369 . S
C1109 C1111 1.419 . S
C1109 H1113 0.930 . S
C1110 C1109 1.369 . S
C1110 C1119 1.429 . S
C1111 C1109 1.419 . S
C1111 C1112 1.363 . S
C1111 H1114 0.929 . S
C1112 C1111 1.363 . S
C1112 C1118 1.428 . S
H1113 C1109 0.930 . S
H1114 C1111 0.929 . S
S1115 N1116 1.613 . S
S1115 N1117 1.610 . S
N1116 S1115 1.613 . S
N1116 C1119 1.350 . S
N1117 S1115 1.610 . S
N1117 C1118 1.351 . S
C1118 C1112 1.428 . S
C1118 N1117 1.351 . S
C1118 C1119 1.434 . S
C1119 C1110 1.429 . S
C1119 N1116 1.350 . S
C1119 C1118 1.434 . S
C1120 C1121 1.369 . S
C1120 C1122 1.419 . S
C1120 H1124 0.930 . S
C1121 C1120 1.369 . S
C1121 C1130 1.429 . S
C1122 C1120 1.419 . S
C1122 C1123 1.363 . S
C1122 H1125 0.929 . S
C1123 C1122 1.363 . S
C1123 C1129 1.428 . S
H1124 C1120 0.930 . S
H1125 C1122 0.929 . S
S1126 N1127 1.613 1_554 S
S1126 N1128 1.610 . S
N1127 S1126 1.613 1_556 S
N1127 C1130 1.350 1_556 S
N1128 S1126 1.610 . S
N1128 C1129 1.351 . S
C1129 C1123 1.428 . S
C1129 N1128 1.351 . S
C1129 C1130 1.434 . S
C1130 C1121 1.429 . S
C1130 N1127 1.350 1_554 S
C1130 C1129 1.434 . S
C1131 C1132 1.369 . S
C1131 C1133 1.419 . S
C1131 H1135 0.930 . S
C1132 C1131 1.369 . S
C1132 C1141 1.429 1_556 S
C1133 C1131 1.419 . S
C1133 C1134 1.363 . S
C1133 H1136 0.929 . S
C1134 C1133 1.363 . S
C1134 C1140 1.428 . S
H1135 C1131 0.930 . S
H1136 C1133 0.929 . S
S1137 N1138 1.613 . S
S1137 N1139 1.610 . S
N1138 S1137 1.613 . S
N1138 C1141 1.350 . S
N1139 S1137 1.610 . S
N1139 C1140 1.351 1_554 S
C1140 C1134 1.428 . S
C1140 N1139 1.351 1_556 S
C1140 C1141 1.434 1_556 S
C1141 C1132 1.429 1_554 S
C1141 N1138 1.350 . S
C1141 C1140 1.434 1_554 S
C1142 C1143 1.369 . S
C1142 C1144 1.419 . S
C1142 H1146 0.930 . S
C1143 C1142 1.369 . S
C1143 C1152 1.429 . S
C1144 C1142 1.419 . S
C1144 C1145 1.363 . S
C1144 H1147 0.929 . S
C1145 C1144 1.363 . S
C1145 C1151 1.428 . S
H1146 C1142 0.930 . S
H1147 C1144 0.929 . S
S1148 N1149 1.613 . S
S1148 N1150 1.610 . S
N1149 S1148 1.613 . S
N1149 C1152 1.350 . S
N1150 S1148 1.610 . S
N1150 C1151 1.351 . S
C1151 C1145 1.428 . S
C1151 N1150 1.351 . S
C1151 C1152 1.434 . S
C1152 C1143 1.429 . S
C1152 N1149 1.350 . S
C1152 C1151 1.434 . S
C1153 C1154 1.369 . S
C1153 C1155 1.419 . S
C1153 H1157 0.930 . S
C1154 C1153 1.369 . S
C1154 C1163 1.429 . S
C1155 C1153 1.419 . S
C1155 C1156 1.363 . S
C1155 H1158 0.929 . S
C1156 C1155 1.363 . S
C1156 C1162 1.428 . S
H1157 C1153 0.930 . S
H1158 C1155 0.929 . S
S1159 N1160 1.613 . S
S1159 N1161 1.610 . S
N1160 S1159 1.613 . S
N1160 C1163 1.350 . S
N1161 S1159 1.610 . S
N1161 C1162 1.351 . S
C1162 C1156 1.428 . S
C1162 N1161 1.351 . S
C1162 C1163 1.434 . S
C1163 C1154 1.429 . S
C1163 N1160 1.350 . S
C1163 C1162 1.434 . S
C1164 C1165 1.369 . S
C1164 C1166 1.419 . S
C1164 H1168 0.930 . S
C1165 C1164 1.369 . S
C1165 C1174 1.429 . S
C1166 C1164 1.419 . S
C1166 C1167 1.363 . S
C1166 H1169 0.929 . S
C1167 C1166 1.363 . S
C1167 C1173 1.428 . S
H1168 C1164 0.930 . S
H1169 C1166 0.929 . S
S1170 N1171 1.613 . S
S1170 N1172 1.610 . S
N1171 S1170 1.613 . S
N1171 C1174 1.350 . S
N1172 S1170 1.610 . S
N1172 C1173 1.351 . S
C1173 C1167 1.428 . S
C1173 N1172 1.351 . S
C1173 C1174 1.434 . S
C1174 C1165 1.429 . S
C1174 N1171 1.350 . S
C1174 C1173 1.434 . S
C1175 C1176 1.369 . S
C1175 C1177 1.419 . S
C1175 H1179 0.930 . S
C1176 C1175 1.369 . S
C1176 C1185 1.429 . S
C1177 C1175 1.419 . S
C1177 C1178 1.363 . S
C1177 H1180 0.929 . S
C1178 C1177 1.363 . S
C1178 C1184 1.428 . S
H1179 C1175 0.930 . S
H1180 C1177 0.929 . S
S1181 N1182 1.613 . S
S1181 N1183 1.610 . S
N1182 S1181 1.613 . S
N1182 C1185 1.350 . S
N1183 S1181 1.610 . S
N1183 C1184 1.351 . S
C1184 C1178 1.428 . S
C1184 N1183 1.351 . S
C1184 C1185 1.434 . S
C1185 C1176 1.429 . S
C1185 N1182 1.350 . S
C1185 C1184 1.434 . S
C1186 C1187 1.369 . S
C1186 C1188 1.419 . S
C1186 H1190 0.930 . S
C1187 C1186 1.369 . S
C1187 C1196 1.429 . S
C1188 C1186 1.419 . S
C1188 C1189 1.363 . S
C1188 H1191 0.929 . S
C1189 C1188 1.363 . S
C1189 C1195 1.428 . S
H1190 C1186 0.930 . S
H1191 C1188 0.929 . S
S1192 N1193 1.613 . S
S1192 N1194 1.610 . S
N1193 S1192 1.613 . S
N1193 C1196 1.350 . S
N1194 S1192 1.610 . S
N1194 C1195 1.351 . S
C1195 C1189 1.428 . S
C1195 N1194 1.351 . S
C1195 C1196 1.434 . S
C1196 C1187 1.429 . S
C1196 N1193 1.350 . S
C1196 C1195 1.434 . S
C1197 C1198 1.369 . S
C1197 C1199 1.419 . S
C1197 H1201 0.930 . S
C1198 C1197 1.369 . S
C1198 C1207 1.429 . S
C1199 C1197 1.419 . S
C1199 C1200 1.363 . S
C1199 H1202 0.929 . S
C1200 C1199 1.363 . S
C1200 C1206 1.428 . S
H1201 C1197 0.930 . S
H1202 C1199 0.929 . S
S1203 N1204 1.613 . S
S1203 N1205 1.610 . S
N1204 S1203 1.613 . S
N1204 C1207 1.350 . S
N1205 S1203 1.610 . S
N1205 C1206 1.351 . S
C1206 C1200 1.428 . S
C1206 N1205 1.351 . S
C1206 C1207 1.434 . S
C1207 C1198 1.429 . S
C1207 N1204 1.350 . S
C1207 C1206 1.434 . S
C1208 C1209 1.369 . S
C1208 C1210 1.419 . S
C1208 H1212 0.930 . S
C1209 C1208 1.369 . S
C1209 C1218 1.429 . S
C1210 C1208 1.419 . S
C1210 C1211 1.363 . S
C1210 H1213 0.929 . S
C1211 C1210 1.363 . S
C1211 C1217 1.428 . S
H1212 C1208 0.930 . S
H1213 C1210 0.929 . S
S1214 N1215 1.613 . S
S1214 N1216 1.610 . S
N1215 S1214 1.613 . S
N1215 C1218 1.350 . S
N1216 S1214 1.610 . S
N1216 C1217 1.351 . S
C1217 C1211 1.428 . S
C1217 N1216 1.351 . S
C1217 C1218 1.434 . S
C1218 C1209 1.429 . S
C1218 N1215 1.350 . S
C1218 C1217 1.434 . S
C1219 C1220 1.369 . S
C1219 C1221 1.419 . S
C1219 H1223 0.930 . S
C1220 C1219 1.369 . S
C1220 C1229 1.429 . S
C1221 C1219 1.419 . S
C1221 C1222 1.363 . S
C1221 H1224 0.929 . S
C1222 C1221 1.363 . S
C1222 C1228 1.428 . S
H1223 C1219 0.930 . S
H1224 C1221 0.929 . S
S1225 N1226 1.613 . S
S1225 N1227 1.610 . S
N1226 S1225 1.613 . S
N1226 C1229 1.350 . S
N1227 S1225 1.610 . S
N1227 C1228 1.351 . S
C1228 C1222 1.428 . S
C1228 N1227 1.351 . S
C1228 C1229 1.434 . S
C1229 C1220 1.429 . S
C1229 N1226 1.350 . S
C1229 C1228 1.434 . S
C1230 C1231 1.369 1_655 S
C1230 C1232 1.418 1_655 S
C1230 H1234 0.930 . S
C1231 C1230 1.369 1_455 S
C1231 C1240 1.429 . S
C1232 C1230 1.418 1_455 S
C1232 C1233 1.364 . S
C1232 H1235 0.929 1_455 S
C1233 C1232 1.364 . S
C1233 C1239 1.428 . S
H1234 C1230 0.930 . S
H1235 C1232 0.929 1_655 S
S1236 N1237 1.613 . S
S1236 N1238 1.610 . S
N1237 S1236 1.613 . S
N1237 C1240 1.350 . S
N1238 S1236 1.610 . S
N1238 C1239 1.351 . S
C1239 C1233 1.428 . S
C1239 N1238 1.351 . S
C1239 C1240 1.434 . S
C1240 C1231 1.429 . S
C1240 N1237 1.350 . S
C1240 C1239 1.434 . S
C1241 C1242 1.369 . S
C1241 C1243 1.419 . S
C1241 H1245 0.930 . S
C1242 C1241 1.369 . S
C1242 C1251 1.429 . S
C1243 C1241 1.419 . S
C1243 C1244 1.363 . S
C1243 H1246 0.929 . S
C1244 C1243 1.363 . S
C1244 C1250 1.428 . S
H1245 C1241 0.930 . S
H1246 C1243 0.929 . S
S1247 N1248 1.613 . S
S1247 N1249 1.610 . S
N1248 S1247 1.613 . S
N1248 C1251 1.350 . S
N1249 S1247 1.610 . S
N1249 C1250 1.351 . S
C1250 C1244 1.428 . S
C1250 N1249 1.351 . S
C1250 C1251 1.434 . S
C1251 C1242 1.429 . S
C1251 N1248 1.350 . S
C1251 C1250 1.434 . S
C1252 C1253 1.369 . S
C1252 C1254 1.419 . S
C1252 H1256 0.930 . S
C1253 C1252 1.369 . S
C1253 C1262 1.429 . S
C1254 C1252 1.419 . S
C1254 C1255 1.363 . S
C1254 H1257 0.929 1_556 S
C1255 C1254 1.363 . S
C1255 C1261 1.428 . S
H1256 C1252 0.930 . S
H1257 C1254 0.929 1_554 S
S1258 N1259 1.613 . S
S1258 N1260 1.610 . S
N1259 S1258 1.613 . S
N1259 C1262 1.350 . S
N1260 S1258 1.610 . S
N1260 C1261 1.351 . S
C1261 C1255 1.428 . S
C1261 N1260 1.351 . S
C1261 C1262 1.434 . S
C1262 C1253 1.429 . S
C1262 N1259 1.350 . S
C1262 C1261 1.434 . S
C1263 C1264 1.369 . S
C1263 C1265 1.419 . S
C1263 H1267 0.930 . S
C1264 C1263 1.369 . S
C1264 C1273 1.429 . S
C1265 C1263 1.419 . S
C1265 C1266 1.363 . S
C1265 H1268 0.929 . S
C1266 C1265 1.363 . S
C1266 C1272 1.428 . S
H1267 C1263 0.930 . S
H1268 C1265 0.929 . S
S1269 N1270 1.613 . S
S1269 N1271 1.610 . S
N1270 S1269 1.613 . S
N1270 C1273 1.350 . S
N1271 S1269 1.610 . S
N1271 C1272 1.351 . S
C1272 C1266 1.428 . S
C1272 N1271 1.351 . S
C1272 C1273 1.434 . S
C1273 C1264 1.429 . S
C1273 N1270 1.350 . S
C1273 C1272 1.434 . S
C1274 C1275 1.369 . S
C1274 C1276 1.419 . S
C1274 H1278 0.930 . S
C1275 C1274 1.369 . S
C1275 C1284 1.429 . S
C1276 C1274 1.419 . S
C1276 C1277 1.363 . S
C1276 H1279 0.929 . S
C1277 C1276 1.363 . S
C1277 C1283 1.428 . S
H1278 C1274 0.930 . S
H1279 C1276 0.929 . S
S1280 N1281 1.613 1_455 S
S1280 N1282 1.610 . S
N1281 S1280 1.613 1_655 S
N1281 C1284 1.350 1_655 S
N1282 S1280 1.610 . S
N1282 C1283 1.351 . S
C1283 C1277 1.428 . S
C1283 N1282 1.351 . S
C1283 C1284 1.434 . S
C1284 C1275 1.429 . S
C1284 N1281 1.350 1_455 S
C1284 C1283 1.434 . S
C1285 C1286 1.369 . S
C1285 C1287 1.419 . S
C1285 H1289 0.930 . S
C1286 C1285 1.369 . S
C1286 C1295 1.429 . S
C1287 C1285 1.419 . S
C1287 C1288 1.363 . S
C1287 H1290 0.929 . S
C1288 C1287 1.363 . S
C1288 C1294 1.428 . S
H1289 C1285 0.930 . S
H1290 C1287 0.929 . S
S1291 N1292 1.613 . S
S1291 N1293 1.610 . S
N1292 S1291 1.613 . S
N1292 C1295 1.350 . S
N1293 S1291 1.610 . S
N1293 C1294 1.351 . S
C1294 C1288 1.428 . S
C1294 N1293 1.351 . S
C1294 C1295 1.434 . S
C1295 C1286 1.429 . S
C1295 N1292 1.350 . S
C1295 C1294 1.434 . S
C1296 C1297 1.369 . S
C1296 C1298 1.419 . S
C1296 H1300 0.930 . S
C1297 C1296 1.369 . S
C1297 C1306 1.429 . S
C1298 C1296 1.419 . S
C1298 C1299 1.363 . S
C1298 H1301 0.929 . S
C1299 C1298 1.363 . S
C1299 C1305 1.428 . S
H1300 C1296 0.930 . S
H1301 C1298 0.929 . S
S1302 N1303 1.613 . S
S1302 N1304 1.610 . S
N1303 S1302 1.613 . S
N1303 C1306 1.350 . S
N1304 S1302 1.610 . S
N1304 C1305 1.351 . S
C1305 C1299 1.428 . S
C1305 N1304 1.351 . S
C1305 C1306 1.434 . S
C1306 C1297 1.429 . S
C1306 N1303 1.350 . S
C1306 C1305 1.434 . S
C1307 C1308 1.369 . S
C1307 C1309 1.419 . S
C1307 H1311 0.930 . S
C1308 C1307 1.369 . S
C1308 C1317 1.429 . S
C1309 C1307 1.419 . S
C1309 C1310 1.363 . S
C1309 H1312 0.929 . S
C1310 C1309 1.363 . S
C1310 C1316 1.428 . S
H1311 C1307 0.930 . S
H1312 C1309 0.929 . S
S1313 N1314 1.613 . S
S1313 N1315 1.610 . S
N1314 S1313 1.613 . S
N1314 C1317 1.350 . S
N1315 S1313 1.610 . S
N1315 C1316 1.351 . S
C1316 C1310 1.428 . S
C1316 N1315 1.351 . S
C1316 C1317 1.434 . S
C1317 C1308 1.429 . S
C1317 N1314 1.350 . S
C1317 C1316 1.434 . S
C1318 C1319 1.369 . S
C1318 C1320 1.419 . S
C1318 H1322 0.930 . S
C1319 C1318 1.369 . S
C1319 C1328 1.429 . S
C1320 C1318 1.419 . S
C1320 C1321 1.363 . S
C1320 H1323 0.929 . S
C1321 C1320 1.363 . S
C1321 C1327 1.428 . S
H1322 C1318 0.930 . S
H1323 C1320 0.929 . S
S1324 N1325 1.613 . S
S1324 N1326 1.610 . S
N1325 S1324 1.613 . S
N1325 C1328 1.350 . S
N1326 S1324 1.610 . S
N1326 C1327 1.351 . S
C1327 C1321 1.428 . S
C1327 N1326 1.351 . S
C1327 C1328 1.434 . S
C1328 C1319 1.429 . S
C1328 N1325 1.350 . S
C1328 C1327 1.434 . S
C1329 C1330 1.369 . S
C1329 C1331 1.419 . S
C1329 H1333 0.930 . S
C1330 C1329 1.369 . S
C1330 C1339 1.429 . S
C1331 C1329 1.419 . S
C1331 C1332 1.363 . S
C1331 H1334 0.929 . S
C1332 C1331 1.363 . S
C1332 C1338 1.428 . S
H1333 C1329 0.930 . S
H1334 C1331 0.929 . S
S1335 N1336 1.613 . S
S1335 N1337 1.610 . S
N1336 S1335 1.613 . S
N1336 C1339 1.350 . S
N1337 S1335 1.610 . S
N1337 C1338 1.351 . S
C1338 C1332 1.428 . S
C1338 N1337 1.351 . S
C1338 C1339 1.434 . S
C1339 C1330 1.429 . S
C1339 N1336 1.350 . S
C1339 C1338 1.434 . S
C1340 C1341 1.369 . S
C1340 C1342 1.419 . S
C1340 H1344 0.930 . S
C1341 C1340 1.369 . S
C1341 C1350 1.429 . S
C1342 C1340 1.419 . S
C1342 C1343 1.363 . S
C1342 H1345 0.929 . S
C1343 C1342 1.363 . S
C1343 C1349 1.428 . S
H1344 C1340 0.930 . S
H1345 C1342 0.929 . S
S1346 N1347 1.613 . S
S1346 N1348 1.610 . S
N1347 S1346 1.613 . S
N1347 C1350 1.350 . S
N1348 S1346 1.610 . S
N1348 C1349 1.351 . S
C1349 C1343 1.428 . S
C1349 N1348 1.351 . S
C1349 C1350 1.434 . S
C1350 C1341 1.429 . S
C1350 N1347 1.350 . S
C1350 C1349 1.434 . S
C1351 C1352 1.369 . S
C1351 C1353 1.419 . S
C1351 H1355 0.930 . S
C1352 C1351 1.369 . S
C1352 C1361 1.429 . S
C1353 C1351 1.419 . S
C1353 C1354 1.363 . S
C1353 H1356 0.929 . S
C1354 C1353 1.363 . S
C1354 C1360 1.428 . S
H1355 C1351 0.930 . S
H1356 C1353 0.929 . S
S1357 N1358 1.613 . S
S1357 N1359 1.610 . S
N1358 S1357 1.613 . S
N1358 C1361 1.350 . S
N1359 S1357 1.610 . S
N1359 C1360 1.351 . S
C1360 C1354 1.428 . S
C1360 N1359 1.351 . S
C1360 C1361 1.434 . S
C1361 C1352 1.429 . S
C1361 N1358 1.350 . S
C1361 C1360 1.434 . S
C1362 C1363 1.369 . S
C1362 C1364 1.419 . S
C1362 H1366 0.930 . S
C1363 C1362 1.369 . S
C1363 C1372 1.429 . S
C1364 C1362 1.419 . S
C1364 C1365 1.363 . S
C1364 H1367 0.929 . S
C1365 C1364 1.363 . S
C1365 C1371 1.428 . S
H1366 C1362 0.930 . S
H1367 C1364 0.929 . S
S1368 N1369 1.613 . S
S1368 N1370 1.610 . S
N1369 S1368 1.613 . S
N1369 C1372 1.350 . S
N1370 S1368 1.610 . S
N1370 C1371 1.351 . S
C1371 C1365 1.428 . S
C1371 N1370 1.351 . S
C1371 C1372 1.434 . S
C1372 C1363 1.429 . S
C1372 N1369 1.350 . S
C1372 C1371 1.434 . S
C1373 C1374 1.369 . S
C1373 C1375 1.419 . S
C1373 H1377 0.930 . S
C1374 C1373 1.369 . S
C1374 C1383 1.429 . S
C1375 C1373 1.419 . S
C1375 C1376 1.363 . S
C1375 H1378 0.929 . S
C1376 C1375 1.363 . S
C1376 C1382 1.428 . S
H1377 C1373 0.930 . S
H1378 C1375 0.929 . S
S1379 N1380 1.613 . S
S1379 N1381 1.610 . S
N1380 S1379 1.613 . S
N1380 C1383 1.350 . S
N1381 S1379 1.610 . S
N1381 C1382 1.351 . S
C1382 C1376 1.428 . S
C1382 N1381 1.351 . S
C1382 C1383 1.434 . S
C1383 C1374 1.429 . S
C1383 N1380 1.350 . S
C1383 C1382 1.434 . S
C1384 C1385 1.369 . S
C1384 C1386 1.419 . S
C1384 H1388 0.930 . S
C1385 C1384 1.369 . S
C1385 C1394 1.429 . S
C1386 C1384 1.419 . S
C1386 C1387 1.363 . S
C1386 H1389 0.929 . S
C1387 C1386 1.363 . S
C1387 C1393 1.428 . S
H1388 C1384 0.930 . S
H1389 C1386 0.929 . S
S1390 N1391 1.613 . S
S1390 N1392 1.610 . S
N1391 S1390 1.613 . S
N1391 C1394 1.350 . S
N1392 S1390 1.610 . S
N1392 C1393 1.351 . S
C1393 C1387 1.428 . S
C1393 N1392 1.351 . S
C1393 C1394 1.434 . S
C1394 C1385 1.429 . S
C1394 N1391 1.350 . S
C1394 C1393 1.434 . S
C1395 C1396 1.369 . S
C1395 C1397 1.419 . S
C1395 H1399 0.930 . S
C1396 C1395 1.369 . S
C1396 C1405 1.429 . S
C1397 C1395 1.419 . S
C1397 C1398 1.363 . S
C1397 H1400 0.929 1_565 S
C1398 C1397 1.363 . S
C1398 C1404 1.428 . S
H1399 C1395 0.930 . S
H1400 C1397 0.929 1_545 S
S1401 N1402 1.613 . S
S1401 N1403 1.610 . S
N1402 S1401 1.613 . S
N1402 C1405 1.350 . S
N1403 S1401 1.610 . S
N1403 C1404 1.351 . S
C1404 C1398 1.428 . S
C1404 N1403 1.351 . S
C1404 C1405 1.434 . S
C1405 C1396 1.429 . S
C1405 N1402 1.350 . S
C1405 C1404 1.434 . S
C1406 C1407 1.369 . S
C1406 C1408 1.419 . S
C1406 H1410 0.930 . S
C1407 C1406 1.369 . S
C1407 C1416 1.429 . S
C1408 C1406 1.419 . S
C1408 C1409 1.363 . S
C1408 H1411 0.929 . S
C1409 C1408 1.363 . S
C1409 C1415 1.428 . S
H1410 C1406 0.930 . S
H1411 C1408 0.929 . S
S1412 N1413 1.613 . S
S1412 N1414 1.610 . S
N1413 S1412 1.613 . S
N1413 C1416 1.350 . S
N1414 S1412 1.610 . S
N1414 C1415 1.351 . S
C1415 C1409 1.428 . S
C1415 N1414 1.351 . S
C1415 C1416 1.434 . S
C1416 C1407 1.429 . S
C1416 N1413 1.350 . S
C1416 C1415 1.434 . S
C1417 C1418 1.369 . S
C1417 C1419 1.419 . S
C1417 H1421 0.930 . S
C1418 C1417 1.369 . S
C1418 C1427 1.429 1_554 S
C1419 C1417 1.419 . S
C1419 C1420 1.363 . S
C1419 H1422 0.929 . S
C1420 C1419 1.363 . S
C1420 C1426 1.428 . S
H1421 C1417 0.930 . S
H1422 C1419 0.929 . S
S1423 N1424 1.613 . S
S1423 N1425 1.610 . S
N1424 S1423 1.613 . S
N1424 C1427 1.350 . S
N1425 S1423 1.610 . S
N1425 C1426 1.351 1_556 S
C1426 C1420 1.428 . S
C1426 N1425 1.351 1_554 S
C1426 C1427 1.434 1_554 S
C1427 C1418 1.429 1_556 S
C1427 N1424 1.350 . S
C1427 C1426 1.434 1_556 S
C1428 C1429 1.369 . S
C1428 C1430 1.419 . S
C1428 H1432 0.930 . S
C1429 C1428 1.369 . S
C1429 C1438 1.429 . S
C1430 C1428 1.419 . S
C1430 C1431 1.363 . S
C1430 H1433 0.929 . S
C1431 C1430 1.363 . S
C1431 C1437 1.428 . S
H1432 C1428 0.930 . S
H1433 C1430 0.929 . S
S1434 N1435 1.613 . S
S1434 N1436 1.610 . S
N1435 S1434 1.613 . S
N1435 C1438 1.350 . S
N1436 S1434 1.610 . S
N1436 C1437 1.351 . S
C1437 C1431 1.428 . S
C1437 N1436 1.351 . S
C1437 C1438 1.434 . S
C1438 C1429 1.429 . S
C1438 N1435 1.350 . S
C1438 C1437 1.434 . S
C1439 C1440 1.369 . S
C1439 C1441 1.419 . S
C1439 H1443 0.930 . S
C1440 C1439 1.369 . S
C1440 C1449 1.429 1_554 S
C1441 C1439 1.419 . S
C1441 C1442 1.363 1_554 S
C1441 H1444 0.929 . S
C1442 C1441 1.363 1_556 S
C1442 C1448 1.428 . S
H1443 C1439 0.930 . S
H1444 C1441 0.929 . S
S1445 N1446 1.613 . S
S1445 N1447 1.610 . S
N1446 S1445 1.613 . S
N1446 C1449 1.350 . S
N1447 S1445 1.610 . S
N1447 C1448 1.351 . S
C1448 C1442 1.428 . S
C1448 N1447 1.351 . S
C1448 C1449 1.434 . S
C1449 C1440 1.429 1_556 S
C1449 N1446 1.350 . S
C1449 C1448 1.434 . S
C1450 C1451 1.369 . S
C1450 C1452 1.419 . S
C1450 H1454 0.930 . S
C1451 C1450 1.369 . S
C1451 C1460 1.429 . S
C1452 C1450 1.419 . S
C1452 C1453 1.363 . S
C1452 H1455 0.929 . S
C1453 C1452 1.363 . S
C1453 C1459 1.428 . S
H1454 C1450 0.930 . S
H1455 C1452 0.929 . S
S1456 N1457 1.613 . S
S1456 N1458 1.610 . S
N1457 S1456 1.613 . S
N1457 C1460 1.350 . S
N1458 S1456 1.610 . S
N1458 C1459 1.351 . S
C1459 C1453 1.428 . S
C1459 N1458 1.351 . S
C1459 C1460 1.434 . S
C1460 C1451 1.429 . S
C1460 N1457 1.350 . S
C1460 C1459 1.434 . S
C1461 C1462 1.369 . S
C1461 C1463 1.419 . S
C1461 H1465 0.930 . S
C1462 C1461 1.369 . S
C1462 C1471 1.429 . S
C1463 C1461 1.419 . S
C1463 C1464 1.363 . S
C1463 H1466 0.929 . S
C1464 C1463 1.363 . S
C1464 C1470 1.428 . S
H1465 C1461 0.930 . S
H1466 C1463 0.929 . S
S1467 N1468 1.613 . S
S1467 N1469 1.610 . S
N1468 S1467 1.613 . S
N1468 C1471 1.350 . S
N1469 S1467 1.610 . S
N1469 C1470 1.351 . S
C1470 C1464 1.428 . S
C1470 N1469 1.351 . S
C1470 C1471 1.434 . S
C1471 C1462 1.429 . S
C1471 N1468 1.350 . S
C1471 C1470 1.434 . S
C1472 C1473 1.369 . S
C1472 C1474 1.419 . S
C1472 H1476 0.930 . S
C1473 C1472 1.369 . S
C1473 C1482 1.429 . S
C1474 C1472 1.419 . S
C1474 C1475 1.363 . S
C1474 H1477 0.929 . S
C1475 C1474 1.363 . S
C1475 C1481 1.428 . S
H1476 C1472 0.930 . S
H1477 C1474 0.929 . S
S1478 N1479 1.613 . S
S1478 N1480 1.610 . S
N1479 S1478 1.613 . S
N1479 C1482 1.350 . S
N1480 S1478 1.610 . S
N1480 C1481 1.351 . S
C1481 C1475 1.428 . S
C1481 N1480 1.351 . S
C1481 C1482 1.434 . S
C1482 C1473 1.429 . S
C1482 N1479 1.350 . S
C1482 C1481 1.434 . S
C1483 C1484 1.369 . S
C1483 C1485 1.419 . S
C1483 H1487 0.930 . S
C1484 C1483 1.369 . S
C1484 C1493 1.429 . S
C1485 C1483 1.419 . S
C1485 C1486 1.363 . S
C1485 H1488 0.929 . S
C1486 C1485 1.363 . S
C1486 C1492 1.428 . S
H1487 C1483 0.930 . S
H1488 C1485 0.929 . S
S1489 N1490 1.613 . S
S1489 N1491 1.610 . S
N1490 S1489 1.613 . S
N1490 C1493 1.350 . S
N1491 S1489 1.610 . S
N1491 C1492 1.351 . S
C1492 C1486 1.428 . S
C1492 N1491 1.351 . S
C1492 C1493 1.434 . S
C1493 C1484 1.429 . S
C1493 N1490 1.350 . S
C1493 C1492 1.434 . S
C1494 C1495 1.369 1_455 S
C1494 C1496 1.419 . S
C1494 H1498 0.930 . S
C1495 C1494 1.369 1_655 S
C1495 C1504 1.429 . S
C1496 C1494 1.419 . S
C1496 C1497 1.363 1_455 S
C1496 H1499 0.929 1_556 S
C1497 C1496 1.363 1_655 S
C1497 C1503 1.428 . S
H1498 C1494 0.930 . S
H1499 C1496 0.929 1_554 S
S1500 N1501 1.613 . S
S1500 N1502 1.610 . S
N1501 S1500 1.613 . S
N1501 C1504 1.350 . S
N1502 S1500 1.610 . S
N1502 C1503 1.351 . S
C1503 C1497 1.428 . S
C1503 N1502 1.351 . S
C1503 C1504 1.434 . S
C1504 C1495 1.429 . S
C1504 N1501 1.350 . S
C1504 C1503 1.434 . S
C1505 C1506 1.369 . S
C1505 C1507 1.419 . S
C1505 H1509 0.930 . S
C1506 C1505 1.369 . S
C1506 C1515 1.429 . S
C1507 C1505 1.419 . S
C1507 C1508 1.363 . S
C1507 H1510 0.929 . S
C1508 C1507 1.363 . S
C1508 C1514 1.428 . S
H1509 C1505 0.930 . S
H1510 C1507 0.929 . S
S1511 N1512 1.613 . S
S1511 N1513 1.610 . S
N1512 S1511 1.613 . S
N1512 C1515 1.350 . S
N1513 S1511 1.610 . S
N1513 C1514 1.351 . S
C1514 C1508 1.428 . S
C1514 N1513 1.351 . S
C1514 C1515 1.434 . S
C1515 C1506 1.429 . S
C1515 N1512 1.350 . S
C1515 C1514 1.434 . S
C1516 C1517 1.369 . S
C1516 C1518 1.419 . S
C1516 H1520 0.930 . S
C1517 C1516 1.369 . S
C1517 C1526 1.429 . S
C1518 C1516 1.419 . S
C1518 C1519 1.363 . S
C1518 H1521 0.929 . S
C1519 C1518 1.363 . S
C1519 C1525 1.428 . S
H1520 C1516 0.930 . S
H1521 C1518 0.929 . S
S1522 N1523 1.613 . S
S1522 N1524 1.610 . S
N1523 S1522 1.613 . S
N1523 C1526 1.350 . S
N1524 S1522 1.610 . S
N1524 C1525 1.351 . S
C1525 C1519 1.428 . S
C1525 N1524 1.351 . S
C1525 C1526 1.434 . S
C1526 C1517 1.429 . S
C1526 N1523 1.350 . S
C1526 C1525 1.434 . S
C1527 C1528 1.369 . S
C1527 C1529 1.419 . S
C1527 H1531 0.930 . S
C1528 C1527 1.369 . S
C1528 C1537 1.429 . S
C1529 C1527 1.419 . S
C1529 C1530 1.363 . S
C1529 H1532 0.929 . S
C1530 C1529 1.363 . S
C1530 C1536 1.428 . S
H1531 C1527 0.930 . S
H1532 C1529 0.929 . S
S1533 N1534 1.613 . S
S1533 N1535 1.610 . S
N1534 S1533 1.613 . S
N1534 C1537 1.350 . S
N1535 S1533 1.610 . S
N1535 C1536 1.351 . S
C1536 C1530 1.428 . S
C1536 N1535 1.351 . S
C1536 C1537 1.434 . S
C1537 C1528 1.429 . S
C1537 N1534 1.350 . S
C1537 C1536 1.434 . S
C1538 C1539 1.369 1_655 S
C1538 C1540 1.419 . S
C1538 H1542 0.930 . S
C1539 C1538 1.369 1_455 S
C1539 C1548 1.429 . S
C1540 C1538 1.419 . S
C1540 C1541 1.363 . S
C1540 H1543 0.929 . S
C1541 C1540 1.363 . S
C1541 C1547 1.428 1_655 S
H1542 C1538 0.930 . S
H1543 C1540 0.929 . S
S1544 N1545 1.613 . S
S1544 N1546 1.610 . S
N1545 S1544 1.613 . S
N1545 C1548 1.350 . S
N1546 S1544 1.610 . S
N1546 C1547 1.351 . S
C1547 C1541 1.428 1_455 S
C1547 N1546 1.351 . S
C1547 C1548 1.434 . S
C1548 C1539 1.429 . S
C1548 N1545 1.350 . S
C1548 C1547 1.434 . S
C1549 C1550 1.369 . S
C1549 C1551 1.419 . S
C1549 H1553 0.930 . S
C1550 C1549 1.369 . S
C1550 C1559 1.429 . S
C1551 C1549 1.419 . S
C1551 C1552 1.363 . S
C1551 H1554 0.929 . S
C1552 C1551 1.363 . S
C1552 C1558 1.428 . S
H1553 C1549 0.930 . S
H1554 C1551 0.929 . S
S1555 N1556 1.613 . S
S1555 N1557 1.610 . S
N1556 S1555 1.613 . S
N1556 C1559 1.350 . S
N1557 S1555 1.610 . S
N1557 C1558 1.351 . S
C1558 C1552 1.428 . S
C1558 N1557 1.351 . S
C1558 C1559 1.434 . S
C1559 C1550 1.429 . S
C1559 N1556 1.350 . S
C1559 C1558 1.434 . S
C1560 C1561 1.369 . S
C1560 C1562 1.419 . S
C1560 H1564 0.930 . S
C1561 C1560 1.369 . S
C1561 C1570 1.429 . S
C1562 C1560 1.419 . S
C1562 C1563 1.363 . S
C1562 H1565 0.929 . S
C1563 C1562 1.363 . S
C1563 C1569 1.428 . S
H1564 C1560 0.930 . S
H1565 C1562 0.929 . S
S1566 N1567 1.613 . S
S1566 N1568 1.610 . S
N1567 S1566 1.613 . S
N1567 C1570 1.350 . S
N1568 S1566 1.610 . S
N1568 C1569 1.351 . S
C1569 C1563 1.428 . S
C1569 N1568 1.351 . S
C1569 C1570 1.434 . S
C1570 C1561 1.429 . S
C1570 N1567 1.350 . S
C1570 C1569 1.434 . S
C1571 C1572 1.369 . S
C1571 C1573 1.419 . S
C1571 H1575 0.930 . S
C1572 C1571 1.369 . S
C1572 C1581 1.429 . S
C1573 C1571 1.419 . S
C1573 C1574 1.363 . S
C1573 H1576 0.929 . S
C1574 C1573 1.363 . S
C1574 C1580 1.428 . S
H1575 C1571 0.930 . S
H1576 C1573 0.929 . S
S1577 N1578 1.613 . S
S1577 N1579 1.610 . S
N1578 S1577 1.613 . S
N1578 C1581 1.350 . S
N1579 S1577 1.610 . S
N1579 C1580 1.351 . S
C1580 C1574 1.428 . S
C1580 N1579 1.351 . S
C1580 C1581 1.434 . S
C1581 C1572 1.429 . S
C1581 N1578 1.350 . S
C1581 C1580 1.434 . S
C1582 C1583 1.369 . S
C1582 C1584 1.419 . S
C1582 H1586 0.930 . S
C1583 C1582 1.369 . S
C1583 C1592 1.429 . S
C1584 C1582 1.419 . S
C1584 C1585 1.363 . S
C1584 H1587 0.929 . S
C1585 C1584 1.363 . S
C1585 C1591 1.428 . S
H1586 C1582 0.930 . S
H1587 C1584 0.929 . S
S1588 N1589 1.613 1_655 S
S1588 N1590 1.610 1_655 S
N1589 S1588 1.613 1_455 S
N1589 C1592 1.350 . S
N1590 S1588 1.610 1_455 S
N1590 C1591 1.351 . S
C1591 C1585 1.428 . S
C1591 N1590 1.351 . S
C1591 C1592 1.434 . S
C1592 C1583 1.429 . S
C1592 N1589 1.350 . S
C1592 C1591 1.434 . S
C1593 C1594 1.369 . S
C1593 C1595 1.419 . S
C1593 H1597 0.930 . S
C1594 C1593 1.369 . S
C1594 C1603 1.429 . S
C1595 C1593 1.419 . S
C1595 C1596 1.363 . S
C1595 H1598 0.929 . S
C1596 C1595 1.363 . S
C1596 C1602 1.428 . S
H1597 C1593 0.930 . S
H1598 C1595 0.929 . S
S1599 N1600 1.613 . S
S1599 N1601 1.610 . S
N1600 S1599 1.613 . S
N1600 C1603 1.350 . S
N1601 S1599 1.610 . S
N1601 C1602 1.351 . S
C1602 C1596 1.428 . S
C1602 N1601 1.351 . S
C1602 C1603 1.434 . S
C1603 C1594 1.429 . S
C1603 N1600 1.350 . S
C1603 C1602 1.434 . S
C1604 C1605 1.369 . S
C1604 C1606 1.419 . S
C1604 H1608 0.930 . S
C1605 C1604 1.369 . S
C1605 C1614 1.429 . S
C1606 C1604 1.419 . S
C1606 C1607 1.363 . S
C1606 H1609 0.929 . S
C1607 C1606 1.363 . S
C1607 C1613 1.428 . S
H1608 C1604 0.930 . S
H1609 C1606 0.929 . S
S1610 N1611 1.613 . S
S1610 N1612 1.610 . S
N1611 S1610 1.613 . S
N1611 C1614 1.350 . S
N1612 S1610 1.610 . S
N1612 C1613 1.351 . S
C1613 C1607 1.428 . S
C1613 N1612 1.351 . S
C1613 C1614 1.434 . S
C1614 C1605 1.429 . S
C1614 N1611 1.350 . S
C1614 C1613 1.434 . S
C1615 C1616 1.369 . S
C1615 C1617 1.419 . S
C1615 H1619 0.930 . S
C1616 C1615 1.369 . S
C1616 C1625 1.429 . S
C1617 C1615 1.419 . S
C1617 C1618 1.363 . S
C1617 H1620 0.929 . S
C1618 C1617 1.363 . S
C1618 C1624 1.428 . S
H1619 C1615 0.930 . S
H1620 C1617 0.929 . S
S1621 N1622 1.613 . S
S1621 N1623 1.610 . S
N1622 S1621 1.613 . S
N1622 C1625 1.350 . S
N1623 S1621 1.610 . S
N1623 C1624 1.351 . S
C1624 C1618 1.428 . S
C1624 N1623 1.351 . S
C1624 C1625 1.434 . S
C1625 C1616 1.429 . S
C1625 N1622 1.350 . S
C1625 C1624 1.434 . S
C1626 C1627 1.369 . S
C1626 C1628 1.419 . S
C1626 H1630 0.930 . S
C1627 C1626 1.369 . S
C1627 C1636 1.429 . S
C1628 C1626 1.419 . S
C1628 C1629 1.363 . S
C1628 H1631 0.929 . S
C1629 C1628 1.363 . S
C1629 C1635 1.428 . S
H1630 C1626 0.930 . S
H1631 C1628 0.929 . S
S1632 N1633 1.613 . S
S1632 N1634 1.610 . S
N1633 S1632 1.613 . S
N1633 C1636 1.350 . S
N1634 S1632 1.610 . S
N1634 C1635 1.351 . S
C1635 C1629 1.428 . S
C1635 N1634 1.351 . S
C1635 C1636 1.434 . S
C1636 C1627 1.429 . S
C1636 N1633 1.350 . S
C1636 C1635 1.434 . S
C1637 C1638 1.369 . S
C1637 C1639 1.419 . S
C1637 H1641 0.930 . S
C1638 C1637 1.369 . S
C1638 C1647 1.429 . S
C1639 C1637 1.419 . S
C1639 C1640 1.363 . S
C1639 H1642 0.929 . S
C1640 C1639 1.363 . S
C1640 C1646 1.428 . S
H1641 C1637 0.930 . S
H1642 C1639 0.929 . S
S1643 N1644 1.613 . S
S1643 N1645 1.610 . S
N1644 S1643 1.613 . S
N1644 C1647 1.350 . S
N1645 S1643 1.610 . S
N1645 C1646 1.351 . S
C1646 C1640 1.428 . S
C1646 N1645 1.351 . S
C1646 C1647 1.434 . S
C1647 C1638 1.429 . S
C1647 N1644 1.350 . S
C1647 C1646 1.434 . S
C1648 C1649 1.369 . S
C1648 C1650 1.419 . S
C1648 H1652 0.930 . S
C1649 C1648 1.369 . S
C1649 C1658 1.429 . S
C1650 C1648 1.419 . S
C1650 C1651 1.363 . S
C1650 H1653 0.929 . S
C1651 C1650 1.363 . S
C1651 C1657 1.428 . S
H1652 C1648 0.930 . S
H1653 C1650 0.929 . S
S1654 N1655 1.613 . S
S1654 N1656 1.610 . S
N1655 S1654 1.613 . S
N1655 C1658 1.350 . S
N1656 S1654 1.610 . S
N1656 C1657 1.351 . S
C1657 C1651 1.428 . S
C1657 N1656 1.351 . S
C1657 C1658 1.434 . S
C1658 C1649 1.429 . S
C1658 N1655 1.350 . S
C1658 C1657 1.434 . S
C1659 C1660 1.369 . S
C1659 C1661 1.419 . S
C1659 H1663 0.930 . S
C1660 C1659 1.369 . S
C1660 C1669 1.429 . S
C1661 C1659 1.419 . S
C1661 C1662 1.363 . S
C1661 H1664 0.929 . S
C1662 C1661 1.363 . S
C1662 C1668 1.428 . S
H1663 C1659 0.930 . S
H1664 C1661 0.929 . S
S1665 N1666 1.613 . S
S1665 N1667 1.610 . S
N1666 S1665 1.613 . S
N1666 C1669 1.350 . S
N1667 S1665 1.610 . S
N1667 C1668 1.351 . S
C1668 C1662 1.428 . S
C1668 N1667 1.351 . S
C1668 C1669 1.434 . S
C1669 C1660 1.429 . S
C1669 N1666 1.350 . S
C1669 C1668 1.434 . S
C1670 C1671 1.369 . S
C1670 C1672 1.419 . S
C1670 H1674 0.930 . S
C1671 C1670 1.369 . S
C1671 C1680 1.429 . S
C1672 C1670 1.419 . S
C1672 C1673 1.363 . S
C1672 H1675 0.929 . S
C1673 C1672 1.363 . S
C1673 C1679 1.428 . S
H1674 C1670 0.930 . S
H1675 C1672 0.929 . S
S1676 N1677 1.613 . S
S1676 N1678 1.610 . S
N1677 S1676 1.613 . S
N1677 C1680 1.350 . S
N1678 S1676 1.610 . S
N1678 C1679 1.351 . S
C1679 C1673 1.428 . S
C1679 N1678 1.351 . S
C1679 C1680 1.434 . S
C1680 C1671 1.429 . S
C1680 N1677 1.350 . S
C1680 C1679 1.434 . S
C1681 C1682 1.369 . S
C1681 C1683 1.419 . S
C1681 H1685 0.930 . S
C1682 C1681 1.369 . S
C1682 C1691 1.429 . S
C1683 C1681 1.419 . S
C1683 C1684 1.363 . S
C1683 H1686 0.930 1_565 S
C1684 C1683 1.363 . S
C1684 C1690 1.428 . S
H1685 C1681 0.930 . S
H1686 C1683 0.930 1_545 S
S1687 N1688 1.610 1_556 S
S1687 N1689 1.619 . S
N1688 S1687 1.610 1_554 S
N1688 C1691 1.350 1_554 S
N1689 S1687 1.619 . S
N1689 C1690 1.351 . S
C1690 C1684 1.428 . S
C1690 N1689 1.351 . S
C1690 C1691 1.434 . S
C1691 C1682 1.429 . S
C1691 N1688 1.350 1_556 S
C1691 C1690 1.434 . S
C1692 C1693 1.369 . S
C1692 C1694 1.419 . S
C1692 H1696 0.930 . S
C1693 C1692 1.369 . S
C1693 C1702 1.429 . S
C1694 C1692 1.419 . S
C1694 C1695 1.363 . S
C1694 H1697 0.929 . S
C1695 C1694 1.363 . S
C1695 C1701 1.428 . S
H1696 C1692 0.930 . S
H1697 C1694 0.929 . S
S1698 N1699 1.613 . S
S1698 N1700 1.610 . S
N1699 S1698 1.613 . S
N1699 C1702 1.350 . S
N1700 S1698 1.610 . S
N1700 C1701 1.351 . S
C1701 C1695 1.428 . S
C1701 N1700 1.351 . S
C1701 C1702 1.434 . S
C1702 C1693 1.429 . S
C1702 N1699 1.350 . S
C1702 C1701 1.434 . S
C1703 C1704 1.369 . S
C1703 C1705 1.419 . S
C1703 H1707 0.930 . S
C1704 C1703 1.369 . S
C1704 C1713 1.429 . S
C1705 C1703 1.419 . S
C1705 C1706 1.363 . S
C1705 H1708 0.929 . S
C1706 C1705 1.363 . S
C1706 C1712 1.428 . S
H1707 C1703 0.930 . S
H1708 C1705 0.929 . S
S1709 N1710 1.613 . S
S1709 N1711 1.610 . S
N1710 S1709 1.613 . S
N1710 C1713 1.350 . S
N1711 S1709 1.610 . S
N1711 C1712 1.351 . S
C1712 C1706 1.428 . S
C1712 N1711 1.351 . S
C1712 C1713 1.434 . S
C1713 C1704 1.429 . S
C1713 N1710 1.350 . S
C1713 C1712 1.434 . S
C1714 C1715 1.369 . S
C1714 C1716 1.419 . S
C1714 H1718 0.930 . S
C1715 C1714 1.369 . S
C1715 C1724 1.429 . S
C1716 C1714 1.419 . S
C1716 C1717 1.363 . S
C1716 H1719 0.929 . S
C1717 C1716 1.363 . S
C1717 C1723 1.428 . S
H1718 C1714 0.930 . S
H1719 C1716 0.929 . S
S1720 N1721 1.613 . S
S1720 N1722 1.610 . S
N1721 S1720 1.613 . S
N1721 C1724 1.350 . S
N1722 S1720 1.610 . S
N1722 C1723 1.351 . S
C1723 C1717 1.428 . S
C1723 N1722 1.351 . S
C1723 C1724 1.434 . S
C1724 C1715 1.429 . S
C1724 N1721 1.350 . S
C1724 C1723 1.434 . S
C1725 C1726 1.369 . S
C1725 C1727 1.419 . S
C1725 H1729 0.930 . S
C1726 C1725 1.369 . S
C1726 C1735 1.429 . S
C1727 C1725 1.419 . S
C1727 C1728 1.363 . S
C1727 H1730 0.929 . S
C1728 C1727 1.363 . S
C1728 C1734 1.428 . S
H1729 C1725 0.930 . S
H1730 C1727 0.929 . S
S1731 N1732 1.613 . S
S1731 N1733 1.610 . S
N1732 S1731 1.613 . S
N1732 C1735 1.350 . S
N1733 S1731 1.610 . S
N1733 C1734 1.351 . S
C1734 C1728 1.428 . S
C1734 N1733 1.351 . S
C1734 C1735 1.434 . S
C1735 C1726 1.429 . S
C1735 N1732 1.350 . S
C1735 C1734 1.434 . S
C683 C328 1.227 . S
C681 C10 1.252 . S
C692 C13 1.355 . S
C694 C356 1.302 . S
C703 C34 1.187 . S
C705 C374 1.230 . S
C716 C400 1.300 . S
C714 C44 1.476 . S
C725 C21 1.465 . S
C727 C423 1.348 . S
C738 C443 1.147 . S
C736 C26 1.123 . S
C749 C471 1.376 . S
C747 C49 1.488 . S
C758 C5 1.196 . S
C760 C489 1.181 . S
C769 C62 1.352 . S
C771 C330 1.361 1_545 S
C780 C73 1.127 . S
C782 C352 1.133 . S
C793 C376 1.385 . S
C791 C88 1.366 1_545 S
C804 C397 1.166 . S
C802 C99 1.160 . S
C813 C60 1.165 . S
C815 C420 1.183 . S
C826 C445 1.368 . S
C824 C75 1.347 . S
C837 C467 1.137 . S
C835 C86 1.124 . S
C848 C491 1.370 . S
C846 C101 1.356 . S
C859 C331 1.028 1_556 S
C857 C96 1.153 . S
C870 C514 1.213 . S
C868 C104 1.149 . S
C879 C122 1.139 . S
C881 C538 1.005 . S
C892 C562 1.172 . S
C890 C130 1.149 . S
C901 C57 1.120 . S
C903 C492 1.002 . S
C914 C377 1.063 . S
C912 C70 1.177 . S
C923 C117 1.103 . S
C925 C583 1.146 . S
C936 C608 1.104 . S
C934 C143 1.085 . S
C945 C164 1.302 1_455 S
C947 C329 1.284 . S
C958 C606 1.189 . S
C956 C169 1.178 . S
C967 C192 1.301 . S
C969 C375 1.282 . S
C978 C200 1.154 . S
C980 C585 1.144 . S
C991 C424 1.178 . S
C989 C179 1.249 . S
C1002 C536 1.193 . S
C1000 C182 1.213 . S
C1013 C468 1.289 . S
C1011 C203 1.270 . S
C1024 C628 1.238 . S
C1022 C161 1.239 . S
C1035 C333 1.110 . S
C1033 C216 1.219 . S
C1044 C231 1.429 . S
C1046 C604 1.398 . S
C1057 C379 1.130 . S
C1055 C242 1.246 1_565 S
C1066 C257 1.415 . S
C1068 C582 1.381 . S
C1077 C218 1.438 . S
C1079 C421 1.400 . S
C1088 C229 1.226 . S
C1090 C540 1.113 . S
C1101 C466 1.388 . S
C1099 C244 1.424 . S
C1110 C255 1.218 . S
C1112 C632 1.111 . S
C1121 C252 1.373 . S
C1123 C332 1.370 . S
C1132 C260 1.393 1_556 S
C1134 C517 1.261 . S
C1143 C278 1.345 . S
C1145 C447 1.330 . S
C1154 C286 1.373 . S
C1156 C561 1.214 . S
C1167 C631 1.309 . S
C1165 C213 1.323 . S
C1178 C378 1.380 . S
C1176 C226 1.403 . S
C1189 C402 1.214 . S
C1187 C273 1.328 . S
C1200 C354 1.186 . S
C1198 C299 1.341 . S
C1209 C36 1.251 . S
C1211 C650 1.228 . S
C1222 C609 1.301 . S
C1220 C39 1.364 . S
C1233 C673 1.231 . S
C1231 C8 1.187 . S
C1242 C18 1.476 . S
C1244 C584 1.299 . S
C1253 C47 1.464 . S
C1255 C515 1.347 . S
C1266 C535 1.147 . S
C1264 C0 1.122 . S
C1277 C563 1.382 . S
C1275 C23 1.486 . S
C1288 C627 1.185 . S
C1286 C31 1.195 . S
C1299 C652 1.366 . S
C1297 C153 1.351 . S
C1308 C112 1.125 . S
C1310 C605 1.135 . S
C1319 C127 1.366 . S
C1321 C675 1.386 . S
C1332 C581 1.168 . S
C1330 C138 1.152 . S
C1343 C512 1.180 . S
C1341 C151 1.173 . S
C1352 C114 1.347 . S
C1354 C537 1.368 . S
C1365 C559 1.138 . S
C1363 C125 1.133 . S
C1374 C140 1.355 . S
C1376 C629 1.370 . S
C1387 C653 1.030 . S
C1385 C135 1.155 . S
C1398 C422 1.213 . S
C1396 C65 1.152 . S
C1409 C446 1.018 . S
C1407 C83 1.143 . S
C1418 C91 1.143 . S
C1420 C470 1.167 . S
C1431 C630 0.994 . S
C1429 C148 1.121 . S
C1440 C109 1.177 . S
C1442 C676 1.063 1_556 S
C1453 C399 1.146 . S
C1451 C78 1.101 . S
C1464 C355 1.105 . S
C1462 C52 1.083 . S
C1473 C190 1.307 . S
C1475 C651 1.285 . S
C1486 C353 1.194 . S
C1484 C195 1.172 . S
C1497 C674 1.283 . S
C1495 C166 1.302 1_655 S
C1506 C174 1.142 . S
C1508 C401 1.152 . S
C1517 C205 1.249 . S
C1519 C516 1.177 . S
C1528 C156 1.215 . S
C1530 C444 1.198 . S
C1539 C177 1.273 . S
C1541 C560 1.284 . S
C1550 C187 1.232 . S
C1552 C490 1.243 . S
C1563 C655 1.111 . S
C1561 C307 1.221 . S
C1572 C270 1.433 . S
C1574 C351 1.393 . S
C1585 C678 1.121 . S
C1583 C281 1.247 . S
C1594 C296 1.418 . S
C1596 C398 1.377 . S
C1605 C309 1.442 . S
C1607 C513 1.393 . S
C1618 C448 1.117 . S
C1616 C268 1.227 . S
C1627 C283 1.426 . S
C1629 C558 1.383 . S
C1640 C494 1.107 . S
C1638 C294 1.217 . S
C1651 C654 1.363 . S
C1649 C291 1.385 . S
C1662 C425 1.263 . S
C1660 C221 1.391 . S
C1671 C239 1.340 . S
C1673 C539 1.331 . S
C1684 C469 1.224 . S
C1682 C247 1.370 1_556 S
C1695 C493 1.309 . S
C1693 C304 1.326 . S
C1704 C265 1.404 . S
C1706 C677 1.381 . S
C1717 C586 1.202 . S
C1715 C234 1.327 . S
C1728 C607 1.171 . S
C1726 C208 1.339 . S
