# Generated by pormake.
# Topology ssa, (4,4)-cn, num edge types: 1
# Building blocks:
#     Node 0, Type 0, BuildingBlock: ESEHIV_clean_sbu_0, # of connection points: 4
#     Node 1, Type 0, BuildingBlock: ESEHIV_clean_sbu_0, # of connection points: 4
#     Node 2, Type 0, BuildingBlock: ESEHIV_clean_sbu_0, # of connection points: 4
#     Node 3, Type 0, BuildingBlock: ESEHIV_clean_sbu_0, # of connection points: 4
#     Node 4, Type 0, BuildingBlock: ESEHIV_clean_sbu_0, # of connection points: 4
#     Node 5, Type 0, BuildingBlock: ESEHIV_clean_sbu_0, # of connection points: 4
#     Node 6, Type 1, BuildingBlock: KOZSID_clean_sbu_0, # of connection points: 4
#     Node 7, Type 1, BuildingBlock: KOZSID_clean_sbu_0, # of connection points: 4
#     Node 8, Type 1, BuildingBlock: KOZSID_clean_sbu_0, # of connection points: 4
#     Node 9, Type 1, BuildingBlock: KOZSID_clean_sbu_0, # of connection points: 4
#     Node 10, Type 1, BuildingBlock: KOZSID_clean_sbu_0, # of connection points: 4
#     Node 11, Type 1, BuildingBlock: KOZSID_clean_sbu_0, # of connection points: 4
#     Edge 12, Type (0, 1), BuildingBlock: CIFDUS_clean_linker_0, # of connection points: 2
#     Edge 13, Type (0, 1), BuildingBlock: CIFDUS_clean_linker_0, # of connection points: 2
#     Edge 14, Type (0, 1), BuildingBlock: CIFDUS_clean_linker_0, # of connection points: 2
#     Edge 15, Type (0, 1), BuildingBlock: CIFDUS_clean_linker_0, # of connection points: 2
#     Edge 16, Type (0, 1), BuildingBlock: CIFDUS_clean_linker_0, # of connection points: 2
#     Edge 17, Type (0, 1), BuildingBlock: CIFDUS_clean_linker_0, # of connection points: 2
#     Edge 18, Type (0, 1), BuildingBlock: CIFDUS_clean_linker_0, # of connection points: 2
#     Edge 19, Type (0, 1), BuildingBlock: CIFDUS_clean_linker_0, # of connection points: 2
#     Edge 20, Type (0, 1), BuildingBlock: CIFDUS_clean_linker_0, # of connection points: 2
#     Edge 21, Type (0, 1), BuildingBlock: CIFDUS_clean_linker_0, # of connection points: 2
#     Edge 22, Type (0, 1), BuildingBlock: CIFDUS_clean_linker_0, # of connection points: 2
#     Edge 23, Type (0, 1), BuildingBlock: CIFDUS_clean_linker_0, # of connection points: 2
#     Edge 24, Type (0, 1), BuildingBlock: CIFDUS_clean_linker_0, # of connection points: 2
#     Edge 25, Type (0, 1), BuildingBlock: CIFDUS_clean_linker_0, # of connection points: 2
#     Edge 26, Type (0, 1), BuildingBlock: CIFDUS_clean_linker_0, # of connection points: 2
#     Edge 27, Type (0, 1), BuildingBlock: CIFDUS_clean_linker_0, # of connection points: 2
#     Edge 28, Type (0, 1), BuildingBlock: CIFDUS_clean_linker_0, # of connection points: 2
#     Edge 29, Type (0, 1), BuildingBlock: CIFDUS_clean_linker_0, # of connection points: 2
#     Edge 30, Type (0, 1), BuildingBlock: CIFDUS_clean_linker_0, # of connection points: 2
#     Edge 31, Type (0, 1), BuildingBlock: CIFDUS_clean_linker_0, # of connection points: 2
#     Edge 32, Type (0, 1), BuildingBlock: CIFDUS_clean_linker_0, # of connection points: 2
#     Edge 33, Type (0, 1), BuildingBlock: CIFDUS_clean_linker_0, # of connection points: 2
#     Edge 34, Type (0, 1), BuildingBlock: CIFDUS_clean_linker_0, # of connection points: 2
#     Edge 35, Type (0, 1), BuildingBlock: CIFDUS_clean_linker_0, # of connection points: 2
# Relax obj value: 0.019
# Max RMSD: 0.107
# Mean RMSD: 0.058
data_MOF--net-ssa--node1-ESEHIV_clean_sbu_0--node2-KOZSID_clean_sbu_0--edge1-CIFDUS_clean_linker_0
_symmetry_space_group_name_H-M    P1
_symmetry_Int_Tables_number       1
_symmetry_cell_setting            triclinic
loop_
_symmetry_equiv_pos_as_xyz
'x, y, z'
_cell_length_a     47.984281
_cell_length_b     51.27511
_cell_length_c     35.039349
_cell_angle_alpha  91.684795
_cell_angle_beta   94.627782
_cell_angle_gamma 122.59097
loop_
_atom_site_label
_atom_site_type_symbol
_atom_site_fract_x
_atom_site_fract_y
_atom_site_fract_z
_atom_type_partial_charge
Cu0 Cu 1.00178 0.51326 0.0112 0.0
N1 N 0.96716 0.47486 0.02328 0.0
N2 N 0.92008 0.42802 0.01176 0.0
C3 C 0.94353 0.45354 0.99647 0.0
C4 C 0.92976 0.43342 0.05001 0.0
C5 C 0.9589 0.46247 0.05705 0.0
O6 O 0.98369 0.52093 0.96222 0.0
C7 C 0.04756 0.49211 0.0259 0.0
O8 O 0.02134 0.46357 0.0202 0.0
H9 H 0.94405 0.45674 0.96611 0.0
H10 H 0.97294 0.47372 0.08472 0.0
N11 N 0.01083 0.54441 0.04801 0.0
N12 N 0.04441 0.58792 0.08604 0.0
C13 C 0.03996 0.57204 0.05248 0.0
C14 C 0.99599 0.54283 0.07963 0.0
C15 C 0.01687 0.56971 0.10337 0.0
C16 C 0.95903 0.52406 0.9651 0.0
O17 O 0.94976 0.52376 0.99944 0.0
H18 H 0.05897 0.57897 0.0333 0.0
H19 H 0.97289 0.52276 0.08626 0.0
O20 O 0.04437 0.51472 0.01795 0.0
H21 H 0.91669 0.41774 0.07141 0.0
H22 H 0.0131 0.57467 0.13206 0.0
Cu23 Cu 0.52979 0.01611 0.51501 0.0
N24 N 0.5443 1.00576 0.47146 0.0
N25 N 0.54972 0.97363 0.43156 0.0
C26 C 0.54227 0.97848 0.46657 0.0
C27 C 0.55699 0.99933 0.41382 0.0
C28 C 0.55348 0.01893 0.43829 0.0
O29 O 0.48435 0.98095 0.51319 0.0
C30 C 0.58926 0.03716 0.55794 0.0
O31 O 0.59924 0.04523 0.52396 0.0
H32 H 0.53459 0.96221 0.48839 0.0
H33 H 0.55622 0.04062 0.43174 0.0
N34 N 0.53074 0.05375 0.51877 0.0
N35 N 0.53137 0.09396 0.54832 0.0
C36 C 0.53242 0.06826 0.55267 0.0
C37 C 0.52868 0.07099 0.49181 0.0
C38 C 0.52897 0.09562 0.50985 0.0
C39 C 0.46673 0.97808 0.48226 0.0
O40 O 0.47895 1.00112 0.46006 0.0
H41 H 0.53372 0.05961 0.58012 0.0
H42 H 0.52681 0.06595 0.46119 0.0
O43 O 0.55813 0.02032 0.56037 0.0
H44 H 0.56315 1.00334 0.38465 0.0
H45 H 0.52783 0.11352 0.4956 0.0
Cu46 Cu 0.51399 0.51446 0.99756 0.0
N47 N 0.51879 0.48 0.99975 0.0
N48 N 0.5239 0.4407 0.979 0.0
C49 C 0.51886 0.46335 0.96888 0.0
C50 C 0.52697 0.44334 0.0179 0.0
C51 C 0.52395 0.46742 0.03048 0.0
O52 O 0.53664 0.53387 0.95353 0.0
C53 C 0.45048 0.48306 0.01781 0.0
O54 O 0.46376 0.47127 0.03971 0.0
H55 H 0.51599 0.46829 0.93953 0.0
H56 H 0.52538 0.47514 0.06003 0.0
N57 N 0.53248 0.54414 0.04098 0.0
N58 N 0.54355 0.58584 0.07878 0.0
C59 C 0.52779 0.5678 0.04531 0.0
C60 C 0.55183 0.54714 0.07295 0.0
C61 C 0.55869 0.57271 0.09617 0.0
C62 C 0.56817 0.55214 0.95954 0.0
O63 O 0.58199 0.56327 0.99495 0.0
H64 H 0.51272 0.57141 0.0242 0.0
H65 H 0.5607 0.53209 0.07884 0.0
O66 O 0.46736 0.50081 0.99278 0.0
H67 H 0.53091 0.42878 0.03631 0.0
H68 H 0.57419 0.58119 0.12347 0.0
Cu69 Cu 1.00713 0.49302 0.51877 0.0
N70 N 1.00701 0.46811 0.47888 0.0
N71 N 0.02873 0.45305 0.43616 0.0
C72 C 0.0329 0.4769 0.45862 0.0
C73 C 0.99902 0.42812 0.44241 0.0
C74 C 0.98554 0.43753 0.46874 0.0
O75 O 0.04943 0.53465 0.51685 0.0
C76 C 0.96537 0.44696 0.56715 0.0
O77 O 0.94338 0.44172 0.5382 0.0
H78 H 0.05553 0.49982 0.46234 0.0
H79 H 0.96262 0.42277 0.48105 0.0
N80 N 0.97241 0.49909 0.50923 0.0
N81 N 0.93165 0.50357 0.52745 0.0
C82 C 0.96198 0.50868 0.53756 0.0
C83 C 0.9484 0.48837 0.47938 0.0
C84 C 0.92314 0.49128 0.49057 0.0
C85 C 0.04954 0.54926 0.48751 0.0
O86 O 0.02208 0.53651 0.46366 0.0
H87 H 0.97511 0.51649 0.56627 0.0
H88 H 0.94791 0.47673 0.45285 0.0
O89 O 0.99615 0.4687 0.56571 0.0
H90 H 0.98843 0.40465 0.42994 0.0
H91 H 0.89913 0.48225 0.47425 0.0
Cu92 Cu 0.51105 0.02355 0.04734 0.0
N93 N 0.51323 0.06077 0.0565 0.0
N94 N 0.51705 0.10448 0.04015 0.0
C95 C 0.52415 0.08296 0.03173 0.0
C96 C 0.50141 0.09563 0.0722 0.0
C97 C 0.49905 0.06863 0.08217 0.0
O98 O 0.52285 0.02716 0.99332 0.0
C99 C 0.45633 0.96056 0.06371 0.0
O100 O 0.47258 0.94981 0.04807 0.0
H101 H 0.53488 0.08198 0.00631 0.0
H102 H 0.48612 0.05474 0.10501 0.0
N103 N 0.54371 0.02395 0.08102 0.0
N104 N 0.56575 1.00509 0.12135 0.0
C105 C 0.53761 1.00201 0.10516 0.0
C106 C 0.57715 0.04243 0.08318 0.0
C107 C 0.59085 0.03048 0.10761 0.0
C108 C 0.54905 0.02956 0.98259 0.0
O109 O 0.56363 0.01847 1.00355 0.0
H110 H 0.51299 0.98295 0.10924 0.0
H111 H 0.59054 0.06204 0.06638 0.0
O112 O 0.46684 0.98938 0.06185 0.0
H113 H 0.49104 0.10695 0.08652 0.0
H114 H 0.61701 0.03903 0.11363 0.0
Cu115 Cu 0.50137 0.49291 0.48947 0.0
N116 N 0.5283 0.52066 0.45572 0.0
N117 N 0.55217 0.56481 0.42677 0.0
C118 C 0.52586 0.54426 0.44446 0.0
C119 C 0.57189 0.55346 0.42676 0.0
C120 C 0.55724 0.52636 0.44502 0.0
O121 O 0.45785 0.48917 0.47567 0.0
C122 C 0.53148 0.50255 0.5714 0.0
O123 O 0.50355 0.47977 0.58213 0.0
H124 H 0.50562 0.54676 0.45048 0.0
H125 H 0.56785 0.51283 0.45198 0.0
N126 N 0.49711 0.45448 0.48092 0.0
N127 N 0.49823 0.41307 0.49747 0.0
C128 C 0.49103 0.43423 0.50768 0.0
C129 C 0.50759 0.44522 0.45207 0.0
C130 C 0.50833 0.41975 0.46217 0.0
C131 C 0.44551 0.47968 0.44029 0.0
O132 O 0.46059 0.4707 0.41884 0.0
H133 H 0.48381 0.43631 0.53533 0.0
H134 H 0.51633 0.45742 0.42667 0.0
O135 O 0.53133 0.51261 0.53841 0.0
H136 H 0.59597 0.56468 0.41614 0.0
H137 H 0.51727 0.40813 0.44561 0.0
C138 C 0.22031 0.51174 0.17266 0.0
C139 C 0.23027 0.54079 0.16056 0.0
C140 C 0.25974 0.56181 0.18192 0.0
C141 C 0.26654 0.54459 0.20543 0.0
N142 N 0.24335 0.51374 0.20029 0.0
Co143 Co 0.2456 0.48072 0.22743 0.0
N144 N 0.28824 0.51206 0.26041 0.0
C145 C 0.30461 0.54326 0.26002 0.0
C146 C 0.33312 0.55916 0.28526 0.0
C147 C 0.33524 0.5368 0.30289 0.0
C148 C 0.30777 0.50837 0.28741 0.0
N149 N 0.24828 0.44766 0.25393 0.0
C150 C 0.27183 0.44977 0.2808 0.0
C151 C 0.2638 0.42061 0.29038 0.0
C152 C 0.23467 0.39939 0.26856 0.0
C153 C 0.22642 0.41663 0.24697 0.0
N154 N 0.20241 0.4494 0.19541 0.0
C155 C 0.18512 0.41824 0.1974 0.0
C156 C 0.15473 0.4026 0.17574 0.0
C157 C 0.15225 0.425 0.15888 0.0
C158 C 0.18172 0.45329 0.17056 0.0
N159 N 0.27141 0.47827 0.18733 0.0
C160 C 0.31054 0.47279 0.13568 0.0
C161 C 0.28019 0.44695 0.14306 0.0
C162 C 0.2612 0.45019 0.16857 0.0
C163 C 0.3202 0.50179 0.15304 0.0
C164 C 0.30037 0.504 0.17858 0.0
N165 N 0.21954 0.48288 0.26721 0.0
C166 C 0.17167 0.45623 0.30228 0.0
C167 C 0.17597 0.48426 0.31568 0.0
C168 C 0.20372 0.51182 0.30572 0.0
C169 C 0.22491 0.5106 0.28146 0.0
C170 C 0.19386 0.45615 0.2792 0.0
H171 H 0.24512 0.53227 0.27407 0.0
H172 H 0.18905 0.43397 0.27063 0.0
H173 H 0.23866 0.42942 0.17312 0.0
H174 H 0.30934 0.52662 0.19149 0.0
C175 C 0.29375 0.55678 0.2337 0.0
C176 C 0.18865 0.4831 0.15723 0.0
C177 C 0.30231 0.47859 0.29809 0.0
C178 C 0.19768 0.40443 0.22098 0.0
H179 H 0.21763 0.54642 0.13862 0.0
H180 H 0.27437 0.58675 0.18065 0.0
H181 H 0.35072 0.58404 0.28964 0.0
H182 H 0.35514 0.541 0.32421 0.0
H183 H 0.2776 0.41524 0.31108 0.0
H184 H 0.22103 0.37435 0.26857 0.0
H185 H 0.13621 0.37788 0.17321 0.0
H186 H 0.13075 0.42079 0.14054 0.0
H187 H 0.27129 0.42408 0.12967 0.0
H188 H 0.34357 0.52252 0.14818 0.0
H189 H 0.15062 0.43403 0.3083 0.0
H190 H 0.20902 0.53431 0.31613 0.0
C191 C 0.71458 0.19715 0.70501 0.0
C192 C 0.6882 0.19366 0.68075 0.0
C193 C 0.6821 0.21506 0.69448 0.0
C194 C 0.70514 0.23045 0.726 0.0
N195 N 0.72603 0.22059 0.73287 0.0
Co196 Co 0.76264 0.23595 0.77628 0.0
N197 N 0.75104 0.26466 0.79924 0.0
C198 C 0.72597 0.26802 0.78602 0.0
C199 C 0.72357 0.28894 0.80842 0.0
C200 C 0.7488 0.29982 0.83756 0.0
C201 C 0.76535 0.28501 0.83103 0.0
N202 N 0.79942 0.25144 0.81955 0.0
C203 C 0.80998 0.27387 0.84864 0.0
C204 C 0.83804 0.27879 0.87089 0.0
C205 C 0.84518 0.25862 0.85563 0.0
C206 C 0.82152 0.24282 0.82485 0.0
N207 N 0.77386 0.20681 0.75353 0.0
C208 C 0.79889 0.2034 0.7666 0.0
C209 C 0.79923 0.18031 0.74639 0.0
C210 C 0.77246 0.16782 0.71905 0.0
C211 C 0.75743 0.18425 0.72411 0.0
N212 N 0.7947 0.27001 0.74504 0.0
C213 C 0.84044 0.32075 0.70342 0.0
C214 C 0.85003 0.30319 0.72412 0.0
C215 C 0.82703 0.27812 0.74406 0.0
C216 C 0.80691 0.31127 0.70336 0.0
C217 C 0.78514 0.28677 0.7244 0.0
N218 N 0.73068 0.20213 0.80744 0.0
C219 C 0.71888 0.16326 0.85272 0.0
C220 C 0.68495 0.15296 0.85064 0.0
C221 C 0.67491 0.16856 0.8265 0.0
C222 C 0.69787 0.19291 0.80593 0.0
C223 C 0.74075 0.18704 0.83083 0.0
H224 H 0.6883 0.2038 0.78869 0.0
H225 H 0.76583 0.19283 0.83327 0.0
H226 H 0.83619 0.26583 0.75882 0.0
H227 H 0.76059 0.28199 0.72363 0.0
C228 C 0.70579 0.25204 0.75183 0.0
C229 C 0.72667 0.17659 0.70167 0.0
C230 C 0.79524 0.29201 0.85509 0.0
C231 C 0.82007 0.22051 0.79965 0.0
H232 H 0.67415 0.17676 0.65633 0.0
H233 H 0.6624 0.21819 0.68369 0.0
H234 H 0.70586 0.29576 0.80381 0.0
H235 H 0.75469 0.31705 0.86074 0.0
H236 H 0.85255 0.29562 0.89516 0.0
H237 H 0.86567 0.25627 0.86528 0.0
H238 H 0.81619 0.17271 0.75181 0.0
H239 H 0.76443 0.14827 0.69846 0.0
H240 H 0.87535 0.3089 0.72568 0.0
H241 H 0.79686 0.32252 0.68699 0.0
H242 H 0.72916 0.15335 0.87142 0.0
H243 H 0.64927 0.16198 0.82276 0.0
C244 C 0.52638 0.73132 0.19394 0.0
C245 C 0.49588 0.70793 0.17489 0.0
C246 C 0.47176 0.7072 0.19404 0.0
C247 C 0.48864 0.73007 0.22367 0.0
N248 N 0.52198 0.74589 0.22393 0.0
Co249 Co 0.55494 0.77958 0.26407 0.0
N250 N 0.51998 0.78308 0.28623 0.0
C251 C 0.48698 0.76205 0.28011 0.0
C252 C 0.46884 0.77164 0.29723 0.0
C253 C 0.49184 0.80061 0.315 0.0
C254 C 0.52289 0.80705 0.30792 0.0
N255 N 0.58754 0.81356 0.30353 0.0
C256 C 0.58488 0.83517 0.32335 0.0
C257 C 0.61403 0.85562 0.34692 0.0
C258 C 0.63581 0.8467 0.3412 0.0
C259 C 0.61874 0.82131 0.31464 0.0
N260 N 0.59019 0.776 0.24266 0.0
C261 C 0.62159 0.78897 0.2597 0.0
C262 C 0.64044 0.78198 0.23958 0.0
C263 C 0.61944 0.76264 0.20845 0.0
C264 C 0.58869 0.7586 0.21147 0.0
N265 N 0.56166 0.81105 0.22916 0.0
C266 C 0.57147 0.86274 0.19276 0.0
C267 C 0.59864 0.86148 0.20759 0.0
C268 C 0.5932 0.83545 0.22558 0.0
C269 C 0.53932 0.83664 0.19406 0.0
C270 C 0.53498 0.81096 0.21205 0.0
N271 N 0.54863 0.74833 0.29967 0.0
C272 C 0.54463 0.7003 0.30953 0.0
C273 C 0.54865 0.70641 0.34929 0.0
C274 C 0.55031 0.73304 0.364 0.0
C275 C 0.55011 0.75371 0.33856 0.0
C276 C 0.5448 0.72134 0.28559 0.0
H277 H 0.55202 0.77437 0.35038 0.0
H278 H 0.54264 0.7157 0.25567 0.0
H279 H 0.6146 0.8359 0.23839 0.0
H280 H 0.50995 0.79169 0.2137 0.0
C281 C 0.47408 0.73784 0.25114 0.0
C282 C 0.55796 0.734 0.18807 0.0
C283 C 0.55468 0.83602 0.32175 0.0
C284 C 0.63297 0.80874 0.29357 0.0
H285 H 0.49138 0.69178 0.15103 0.0
H286 H 0.44508 0.69134 0.18766 0.0
H287 H 0.44202 0.76002 0.29472 0.0
H288 H 0.48616 0.8155 0.33031 0.0
H289 H 0.61909 0.87511 0.36585 0.0
H290 H 0.66161 0.85848 0.35326 0.0
H291 H 0.66624 0.78966 0.24694 0.0
H292 H 0.62549 0.75137 0.18704 0.0
H293 H 0.62392 0.8811 0.20709 0.0
H294 H 0.51762 0.83636 0.18208 0.0
H295 H 0.54185 0.67941 0.2967 0.0
H296 H 0.55276 0.73833 0.39469 0.0
C297 C 0.71885 0.54863 0.71286 0.0
C298 C 0.72321 0.57674 0.70403 0.0
C299 C 0.75515 0.59948 0.71786 0.0
C300 C 0.76843 0.58421 0.7348 0.0
N301 N 0.74711 0.553 0.73221 0.0
Co302 Co 0.7556 0.52294 0.758 0.0
N303 N 0.80221 0.5566 0.77975 0.0
C304 C 0.8181 0.58681 0.77253 0.0
C305 C 0.85036 0.60446 0.78955 0.0
C306 C 0.85556 0.58428 0.80851 0.0
C307 C 0.82601 0.55535 0.80219 0.0
N308 N 0.76321 0.49311 0.78589 0.0
C309 C 0.79004 0.49781 0.80911 0.0
C310 C 0.78382 0.47039 0.82328 0.0
C311 C 0.75223 0.44759 0.80839 0.0
C312 C 0.74083 0.46228 0.78624 0.0
N313 N 0.70987 0.48896 0.73443 0.0
C314 C 0.69596 0.45818 0.73686 0.0
C315 C 0.66505 0.44003 0.71652 0.0
C316 C 0.65869 0.46045 0.70031 0.0
C317 C 0.68597 0.4901 0.71221 0.0
N318 N 0.77401 0.51709 0.71215 0.0
C319 C 0.80364 0.5104 0.6498 0.0
C320 C 0.78633 0.48595 0.67263 0.0
C321 C 0.77149 0.48963 0.70318 0.0
C322 C 0.80484 0.53778 0.65761 0.0
C323 C 0.79016 0.5407 0.68882 0.0
N324 N 0.73696 0.52908 0.80319 0.0
C325 C 0.68972 0.51059 0.83899 0.0
C326 C 0.70182 0.5409 0.85377 0.0
C327 C 0.73319 0.5647 0.84565 0.0
C328 C 0.75032 0.55829 0.82067 0.0
C329 C 0.70789 0.50515 0.81438 0.0
H330 H 0.77364 0.57763 0.81465 0.0
H331 H 0.69738 0.4816 0.80358 0.0
H332 H 0.75862 0.47008 0.71943 0.0
H333 H 0.79291 0.56257 0.69381 0.0
C334 C 0.80103 0.59829 0.75262 0.0
C335 C 0.68728 0.5185 0.7029 0.0
C336 C 0.82198 0.52755 0.81835 0.0
C337 C 0.71081 0.44739 0.76215 0.0
H338 H 0.70516 0.58062 0.68952 0.0
H339 H 0.76715 0.62426 0.71612 0.0
H340 H 0.86786 0.62919 0.78879 0.0
H341 H 0.87846 0.59017 0.82527 0.0
H342 H 0.80059 0.46713 0.84198 0.0
H343 H 0.73943 0.42305 0.81241 0.0
H344 H 0.64862 0.41498 0.71473 0.0
H345 H 0.63613 0.45416 0.68243 0.0
H346 H 0.7847 0.46422 0.66725 0.0
H347 H 0.81833 0.55739 0.64075 0.0
H348 H 0.66606 0.49125 0.84579 0.0
H349 H 0.74383 0.58848 0.85698 0.0
C350 C 0.28793 0.82243 0.3499 0.0
C351 C 0.27983 0.84208 0.36641 0.0
C352 C 0.2481 0.83175 0.35084 0.0
C353 C 0.23877 0.80648 0.32593 0.0
N354 N 0.26255 0.80021 0.32493 0.0
Co355 Co 0.25976 0.76595 0.29343 0.0
N356 N 0.22134 0.75987 0.25875 0.0
C357 C 0.20293 0.77178 0.26571 0.0
C358 C 0.17783 0.76364 0.23703 0.0
C359 C 0.17994 0.74482 0.21064 0.0
C360 C 0.20634 0.74238 0.2248 0.0
N361 N 0.25684 0.73136 0.26219 0.0
C362 C 0.23846 0.71597 0.22827 0.0
C363 C 0.24386 0.69305 0.21674 0.0
C364 C 0.2655 0.69342 0.24501 0.0
C365 C 0.27229 0.7166 0.27202 0.0
N366 N 0.29823 0.77241 0.32822 0.0
C367 C 0.30826 0.75256 0.33174 0.0
C368 C 0.33644 0.76418 0.35726 0.0
C369 C 0.34464 0.79318 0.37058 0.0
C370 C 0.32082 0.79747 0.35243 0.0
N371 N 0.22855 0.73543 0.32744 0.0
C372 C 0.18279 0.69073 0.37391 0.0
C373 C 0.21265 0.71759 0.39048 0.0
C374 C 0.235 0.73971 0.36683 0.0
C375 C 0.17696 0.68678 0.33367 0.0
C376 C 0.19983 0.70903 0.31135 0.0
N377 N 0.29098 0.7962 0.25923 0.0
C378 C 0.33847 0.81424 0.22341 0.0
C379 C 0.33373 0.83632 0.20636 0.0
C380 C 0.30747 0.8384 0.2179 0.0
C381 C 0.28661 0.81834 0.24422 0.0
C382 C 0.31705 0.7946 0.24923 0.0
H383 H 0.26658 0.82049 0.2519 0.0
H384 H 0.32154 0.7778 0.26078 0.0
H385 H 0.25732 0.7604 0.38049 0.0
H386 H 0.19385 0.70481 0.28086 0.0
C387 C 0.21129 0.79225 0.29803 0.0
C388 C 0.31953 0.82503 0.35909 0.0
C389 C 0.21165 0.71855 0.20949 0.0
C390 C 0.29493 0.72668 0.30523 0.0
H391 H 0.29538 0.86192 0.38716 0.0
H392 H 0.23423 0.84239 0.35562 0.0
H393 H 0.15998 0.77041 0.23555 0.0
H394 H 0.16282 0.73312 0.18488 0.0
H395 H 0.23214 0.67685 0.19132 0.0
H396 H 0.27508 0.67854 0.24577 0.0
H397 H 0.35045 0.75362 0.36377 0.0
H398 H 0.36589 0.80935 0.39087 0.0
H399 H 0.21822 0.72199 0.42143 0.0
H400 H 0.15445 0.6665 0.31925 0.0
H401 H 0.35873 0.81191 0.2169 0.0
H402 H 0.30237 0.85482 0.20594 0.0
C403 C 0.49057 0.28886 0.8132 0.0
C404 C 0.46078 0.27893 0.82812 0.0
C405 C 0.44016 0.24773 0.8175 0.0
C406 C 0.45838 0.24026 0.79682 0.0
N407 N 0.48912 0.26482 0.79337 0.0
Co408 Co 0.5235 0.2632 0.76673 0.0
N409 N 0.49011 0.22155 0.73941 0.0
C410 C 0.45921 0.20197 0.74894 0.0
C411 C 0.44183 0.17441 0.72621 0.0
C412 C 0.46319 0.17653 0.70099 0.0
C413 C 0.49257 0.2054 0.70969 0.0
N414 N 0.55795 0.26151 0.7402 0.0
C415 C 0.55481 0.24197 0.71051 0.0
C416 C 0.58581 0.24931 0.70172 0.0
C417 C 0.60904 0.27372 0.72715 0.0
C418 C 0.59109 0.28011 0.74987 0.0
N419 N 0.5569 0.30479 0.79426 0.0
C420 C 0.59017 0.31846 0.79752 0.0
C421 C 0.60727 0.34722 0.81755 0.0
C422 C 0.58332 0.35192 0.82801 0.0
C423 C 0.55276 0.32556 0.81398 0.0
N424 N 0.53065 0.24286 0.80975 0.0
C425 C 0.53771 0.21176 0.87086 0.0
C426 C 0.53495 0.2373 0.87777 0.0
C427 C 0.5317 0.25261 0.84695 0.0
C428 C 0.53727 0.20243 0.8327 0.0
C429 C 0.53364 0.21813 0.80273 0.0
N430 N 0.51609 0.28335 0.72393 0.0
C431 C 0.53722 0.32311 0.67955 0.0
C432 C 0.50474 0.31372 0.66508 0.0
C433 C 0.47814 0.28834 0.68021 0.0
C434 C 0.48432 0.27349 0.70937 0.0
C435 C 0.54234 0.3077 0.70898 0.0
H436 H 0.46326 0.25419 0.7204 0.0
H437 H 0.56756 0.31582 0.71996 0.0
H438 H 0.52973 0.27219 0.85334 0.0
H439 H 0.53283 0.20987 0.77383 0.0
C440 C 0.44627 0.21164 0.77638 0.0
C441 C 0.52053 0.32039 0.82205 0.0
C442 C 0.52314 0.21496 0.6919 0.0
C443 C 0.60438 0.30555 0.77711 0.0
H444 H 0.4548 0.29265 0.84555 0.0
H445 H 0.4147 0.23246 0.82354 0.0
H446 H 0.41647 0.15523 0.72745 0.0
H447 H 0.45802 0.15855 0.67929 0.0
H448 H 0.59114 0.23803 0.67951 0.0
H449 H 0.63585 0.28584 0.7283 0.0
H450 H 0.63399 0.36329 0.82289 0.0
H451 H 0.58792 0.3724 0.84424 0.0
H452 H 0.53553 0.24556 0.90681 0.0
H453 H 0.53896 0.18262 0.82588 0.0
H454 H 0.55857 0.34276 0.66899 0.0
H455 H 0.45261 0.27994 0.66958 0.0
H456 H 0.08039 0.462 0.01973 0.0
H457 H 0.08218 0.53421 0.08808 0.0
H458 H 0.12506 0.53768 0.13497 0.0
H459 H 0.15954 0.51745 0.15919 0.0
H460 H 0.16378 0.45094 0.08596 0.0
H461 H 0.12123 0.44774 0.03901 0.0
C462 C 0.09065 0.47893 0.0445 0.0
C463 C 0.07794 0.49786 0.05015 0.0
C464 C 0.11614 0.48142 0.07101 0.0
C465 C 0.09163 0.51961 0.08257 0.0
C466 C 0.11602 0.52141 0.10968 0.0
C467 C 0.1516 0.50262 0.13268 0.0
C468 C 0.16452 0.48382 0.12688 0.0
C469 C 0.12813 0.50205 0.10461 0.0
C470 C 0.15383 0.46502 0.09197 0.0
C471 C 0.12954 0.46332 0.06487 0.0
H472 H 0.65592 0.07669 0.56081 0.0
H473 H 0.57591 0.03782 0.63256 0.0
H474 H 0.61328 0.07609 0.68559 0.0
H475 H 0.66646 0.12514 0.70821 0.0
H476 H 0.74449 0.16586 0.63429 0.0
H477 H 0.71018 0.12235 0.58527 0.0
C478 C 0.64674 0.07614 0.58826 0.0
C479 C 0.61305 0.05468 0.59253 0.0
C480 C 0.66795 0.09887 0.61802 0.0
C481 C 0.60171 0.05414 0.62844 0.0
C482 C 0.62299 0.0762 0.65868 0.0
C483 C 0.67596 0.12399 0.68156 0.0
C484 C 0.70774 0.14831 0.67454 0.0
C485 C 0.65577 0.09937 0.65327 0.0
C486 C 0.72008 0.1471 0.64007 0.0
C487 C 0.70046 0.12237 0.61213 0.0
H488 H 0.55941 0.61237 0.15227 0.0
H489 H 0.52973 0.62248 0.03692 0.0
H490 H 0.53123 0.66863 0.05994 0.0
H491 H 0.54167 0.70722 0.1132 0.0
H492 H 0.57225 0.69689 0.22783 0.0
H493 H 0.57017 0.65055 0.20473 0.0
C494 C 0.55351 0.62466 0.13192 0.0
C495 C 0.54442 0.61344 0.09268 0.0
C496 C 0.55465 0.65155 0.14533 0.0
C497 C 0.53642 0.62991 0.06728 0.0
C498 C 0.53747 0.65662 0.08043 0.0
C499 C 0.54777 0.69473 0.13305 0.0
C500 C 0.55686 0.70561 0.17235 0.0
C501 C 0.54658 0.66776 0.11944 0.0
C502 C 0.56492 0.68914 0.19756 0.0
C503 C 0.5638 0.66253 0.18432 0.0
H504 H 0.88374 0.51551 0.51249 0.0
H505 H 0.93059 0.49061 0.6015 0.0
H506 H 0.89346 0.48853 0.64606 0.0
H507 H 0.84867 0.49496 0.66072 0.0
H508 H 0.80311 0.52297 0.57442 0.0
H509 H 0.83852 0.52267 0.52777 0.0
C510 C 0.88563 0.50961 0.54163 0.0
C511 C 0.90991 0.50329 0.55362 0.0
C512 C 0.86442 0.50899 0.56756 0.0
C513 C 0.91238 0.49588 0.59156 0.0
C514 C 0.89104 0.49453 0.61711 0.0
C515 C 0.84622 0.50058 0.63151 0.0
C516 C 0.8232 0.50857 0.62068 0.0
C517 C 0.86709 0.50113 0.60548 0.0
C518 C 0.8207 0.5166 0.58315 0.0
C519 C 0.84092 0.51647 0.5566 0.0
H520 H 0.42994 0.89915 0.07563 0.0
H521 H 0.42364 0.97691 0.11091 0.0
H522 H 0.38531 0.94601 0.15713 0.0
H523 H 0.35514 0.89717 0.19016 0.0
H524 H 0.36112 0.81951 0.15248 0.0
H525 H 0.39786 0.85007 0.1057 0.0
C526 C 0.42001 0.90941 0.09308 0.0
C527 C 0.42996 0.94061 0.08928 0.0
C528 C 0.398 0.89147 0.11996 0.0
C529 C 0.41657 0.95308 0.11263 0.0
C530 C 0.39464 0.93536 0.13939 0.0
C531 C 0.36414 0.8867 0.17155 0.0
C532 C 0.35538 0.8558 0.17609 0.0
C533 C 0.38536 0.90453 0.14371 0.0
C534 C 0.3678 0.84324 0.1512 0.0
C535 C 0.38876 0.86072 0.12385 0.0
H536 H 0.46326 0.38708 0.55723 0.0
H537 H 0.53995 0.39264 0.49481 0.0
H538 H 0.54832 0.36191 0.54061 0.0
H539 H 0.53562 0.33521 0.60029 0.0
H540 H 0.45973 0.33077 0.66327 0.0
H541 H 0.44959 0.35942 0.61571 0.0
C542 C 0.48183 0.38162 0.55361 0.0
C543 C 0.50096 0.39238 0.52251 0.0
C544 C 0.48687 0.36423 0.58042 0.0
C545 C 0.52452 0.38449 0.51805 0.0
C546 C 0.52957 0.3671 0.54452 0.0
C547 C 0.51695 0.34062 0.60366 0.0
C548 C 0.49849 0.33081 0.63539 0.0
C549 C 0.5112 0.35718 0.57612 0.0
C550 C 0.47406 0.33768 0.63897 0.0
C551 C 0.46833 0.35421 0.61185 0.0
H552 H 0.57558 0.96706 0.36767 0.0
H553 H 0.51948 0.91644 0.45941 0.0
H554 H 0.51673 0.87041 0.43439 0.0
H555 H 0.53 0.84353 0.38643 0.0
H556 H 0.584 0.89271 0.29332 0.0
H557 H 0.58773 0.93978 0.3187 0.0
C558 C 0.56253 0.94602 0.38221 0.0
C559 C 0.54803 0.94597 0.41592 0.0
C560 C 0.56058 0.91899 0.36727 0.0
C561 C 0.53151 0.91804 0.43403 0.0
C562 C 0.52967 0.89132 0.41951 0.0
C563 C 0.54224 0.86447 0.3715 0.0
C564 C 0.55627 0.86445 0.33766 0.0
C565 C 0.54409 0.89144 0.38619 0.0
C566 C 0.5728 0.89205 0.31923 0.0
C567 C 0.5749 0.91896 0.33377 0.0
H568 H 0.63532 0.58278 0.96744 0.0
H569 H 0.54828 0.52108 0.88754 0.0
H570 H 0.58245 0.51263 0.84718 0.0
H571 H 0.63622 0.51931 0.83771 0.0
H572 H 0.72219 0.57895 0.91983 0.0
H573 H 0.68907 0.5914 0.95651 0.0
C574 C 0.62379 0.56785 0.94089 0.0
C575 C 0.58922 0.55242 0.93072 0.0
C576 C 0.6433 0.56225 0.91863 0.0
C577 C 0.57484 0.53331 0.89606 0.0
C578 C 0.5943 0.5282 0.87317 0.0
C579 C 0.64759 0.53485 0.8638 0.0
C580 C 0.6815 0.54796 0.8763 0.0
C581 C 0.62836 0.54183 0.88481 0.0
C582 C 0.69615 0.56862 0.90963 0.0
C583 C 0.67724 0.57574 0.93058 0.0
H584 H 0.05015 0.58941 0.43886 0.0
H585 H 0.11713 0.57471 0.51015 0.0
H586 H 0.16484 0.61848 0.48352 0.0
H587 H 0.1872 0.65896 0.43546 0.0
H588 H 0.11763 0.67075 0.36445 0.0
H589 H 0.0717 0.63038 0.39532 0.0
C590 C 0.07517 0.5958 0.44904 0.0
C591 C 0.07974 0.57845 0.47659 0.0
C592 C 0.10226 0.62057 0.43319 0.0
C593 C 0.1126 0.58757 0.4893 0.0
C594 C 0.13994 0.61255 0.47376 0.0
C595 C 0.16203 0.65293 0.42717 0.0
C596 C 0.15608 0.66793 0.39713 0.0
C597 C 0.1351 0.62898 0.44506 0.0
C598 C 0.12313 0.65954 0.38688 0.0
C599 C 0.09672 0.63639 0.40464 0.0
H600 H 0.56003 0.13096 0.98691 0.0
H601 H 0.48105 0.1313 0.03738 0.0
H602 H 0.48212 0.16633 0.99108 0.0
H603 H 0.50225 0.19353 0.93274 0.0
H604 H 0.57954 0.19117 0.88096 0.0
H605 H 0.58187 0.15989 0.93079 0.0
C606 C 0.54293 0.13854 0.98787 0.0
C607 C 0.52023 0.12801 0.01561 0.0
C608 C 0.54307 0.15812 0.96049 0.0
C609 C 0.49895 0.13896 0.01673 0.0
C610 C 0.49933 0.15887 0.98994 0.0
C611 C 0.51989 0.1865 0.93266 0.0
C612 C 0.54052 0.19454 0.90293 0.0
C613 C 0.52084 0.16813 0.96123 0.0
C614 C 0.56302 0.18494 0.9031 0.0
C615 C 0.56444 0.16711 0.93168 0.0
H616 H 0.41799 0.46155 0.36576 0.0
H617 H 0.40826 0.5007 0.47059 0.0
H618 H 0.36351 0.50405 0.43648 0.0
H619 H 0.32709 0.4962 0.37561 0.0
H620 H 0.33904 0.45769 0.27189 0.0
H621 H 0.3828 0.45386 0.30665 0.0
C622 C 0.40616 0.47076 0.38153 0.0
C623 C 0.4168 0.48075 0.42112 0.0
C624 C 0.3807 0.47285 0.36161 0.0
C625 C 0.40079 0.49265 0.44039 0.0
C626 C 0.37516 0.49466 0.42072 0.0
C627 C 0.3394 0.48706 0.36071 0.0
C628 C 0.32967 0.47723 0.32093 0.0
C629 C 0.36492 0.48494 0.38118 0.0
C630 C 0.34587 0.46535 0.30225 0.0
C631 C 0.37095 0.46316 0.32221 0.0
H632 H 0.89131 0.42445 0.94078 0.0
H633 H 0.88429 0.36959 0.03506 0.0
H634 H 0.84066 0.32255 0.99613 0.0
H635 H 0.80907 0.29642 0.93277 0.0
H636 H 0.82269 0.3513 0.83687 0.0
H637 H 0.85917 0.39905 0.8789 0.0
C638 C 0.88061 0.40227 0.95291 0.0
C639 C 0.8918 0.40065 0.99064 0.0
C640 C 0.85668 0.37528 0.92991 0.0
C641 C 0.87637 0.37167 0.00616 0.0
C642 C 0.85152 0.34469 0.9838 0.0
C643 C 0.81991 0.31894 0.92138 0.0
C644 C 0.8137 0.3206 0.88193 0.0
C645 C 0.84218 0.34614 0.94531 0.0
C646 C 0.82737 0.34968 0.86721 0.0
C647 C 0.84831 0.37687 0.89114 0.0
H648 H 0.91656 0.54356 0.96705 0.0
H649 H 0.95446 0.50786 0.88726 0.0
H650 H 0.91595 0.50599 0.83472 0.0
H651 H 0.86911 0.51252 0.81189 0.0
H652 H 0.83294 0.54885 0.89312 0.0
H653 H 0.87282 0.55229 0.94445 0.0
C654 C 0.91672 0.53552 0.93814 0.0
C655 C 0.93863 0.52582 0.93143 0.0
C656 C 0.89443 0.53442 0.90822 0.0
C657 C 0.93826 0.5157 0.89351 0.0
C658 C 0.91598 0.51444 0.86344 0.0
C659 C 0.87019 0.52132 0.84084 0.0
C660 C 0.84792 0.53039 0.84871 0.0
C661 C 0.8936 0.52341 0.87047 0.0
C662 C 0.84967 0.54177 0.88632 0.0
C663 C 0.87251 0.54371 0.91569 0.0
H664 H 0.43604 0.96249 0.40981 0.0
H665 H 0.43183 0.92477 0.51927 0.0
H666 H 0.38621 0.8734 0.49054 0.0
H667 H 0.34787 0.83918 0.43353 0.0
H668 H 0.3545 0.87766 0.32447 0.0
H669 H 0.39926 0.92898 0.35376 0.0
C670 C 0.42504 0.94318 0.42765 0.0
C671 C 0.43718 0.94754 0.46675 0.0
C672 C 0.39961 0.91381 0.4108 0.0
C673 C 0.42279 0.92208 0.48916 0.0
C674 C 0.39686 0.89269 0.47269 0.0
C675 C 0.35966 0.85881 0.41628 0.0
C676 C 0.34867 0.85488 0.37689 0.0
C677 C 0.38529 0.88824 0.43342 0.0
C678 C 0.36318 0.88036 0.35474 0.0
C679 C 0.38851 0.90961 0.3715 0.0
H680 H 0.49954 0.42095 0.90311 0.0
H681 H 0.55475 0.41065 0.99845 0.0
H682 H 0.55829 0.37297 0.95901 0.0
H683 H 0.54554 0.34195 0.89739 0.0
H684 H 0.49121 0.352 0.80138 0.0
H685 H 0.48759 0.39036 0.84066 0.0
C686 C 0.51257 0.41069 0.91528 0.0
C687 C 0.52656 0.41883 0.95429 0.0
C688 C 0.51472 0.38875 0.8921 0.0
C689 C 0.54311 0.40478 0.96909 0.0
C690 C 0.54537 0.38319 0.94635 0.0
C691 C 0.53317 0.35278 0.88502 0.0
C692 C 0.51905 0.34439 0.84627 0.0
C693 C 0.5312 0.37485 0.90787 0.0
C694 C 0.50254 0.35822 0.83095 0.0
C695 C 0.50047 0.38017 0.85348 0.0
H696 H 0.06876 0.4978 0.39291 0.0
H697 H 0.04486 0.41025 0.43321 0.0
H698 H 0.09036 0.41353 0.40199 0.0
H699 H 0.13736 0.44185 0.36491 0.0
H700 H 0.15732 0.52659 0.31783 0.0
H701 H 0.11407 0.5247 0.35182 0.0
C702 C 0.07355 0.47944 0.39458 0.0
C703 C 0.05359 0.45378 0.41513 0.0
C704 C 0.0994 0.48132 0.37611 0.0
C705 C 0.05969 0.42997 0.41707 0.0
C706 C 0.08585 0.43201 0.39955 0.0
C707 C 0.13203 0.45969 0.36119 0.0
C708 C 0.15086 0.48426 0.33838 0.0
C709 C 0.10589 0.45763 0.37909 0.0
C710 C 0.14396 0.50764 0.33558 0.0
C711 C 0.11881 0.50638 0.35463 0.0
H712 H 0.60495 0.03935 0.95326 0.0
H713 H 0.53501 0.0677 0.94246 0.0
H714 H 0.5705 0.10827 0.90202 0.0
H715 H 0.6236 0.13836 0.8734 0.0
H716 H 0.68978 0.10522 0.87843 0.0
H717 H 0.65407 0.06495 0.91779 0.0
C718 C 0.5971 0.05409 0.94177 0.0
C719 C 0.56737 0.05055 0.952 0.0
C720 C 0.61751 0.07728 0.91791 0.0
C721 C 0.55785 0.06992 0.93606 0.0
C722 C 0.5783 0.09333 0.91282 0.0
C723 C 0.63031 0.12224 0.88231 0.0
C724 C 0.66072 0.12633 0.8731 0.0
C725 C 0.60862 0.0977 0.90411 0.0
C726 C 0.66792 0.10444 0.88579 0.0
C727 C 0.64702 0.08072 0.90814 0.0
H728 H 0.52706 0.59844 0.44946 0.0
H729 H 0.59176 0.59635 0.37228 0.0
H730 H 0.60005 0.64305 0.3456 0.0
H731 H 0.58538 0.68168 0.3403 0.0
H732 H 0.51729 0.68182 0.41334 0.0
H733 H 0.51434 0.63892 0.44616 0.0
C734 C 0.5428 0.60797 0.42664 0.0
C735 C 0.5584 0.59345 0.4126 0.0
C736 C 0.54695 0.63456 0.41084 0.0
C737 C 0.57952 0.60693 0.38379 0.0
C738 C 0.58417 0.63361 0.36837 0.0
C739 C 0.56996 0.6724 0.36355 0.0
C740 C 0.55112 0.68453 0.37399 0.0
C741 C 0.56752 0.6472 0.38117 0.0
C742 C 0.53202 0.67289 0.4048 0.0
C743 C 0.53008 0.64818 0.42325 0.0
H744 H 0.50738 0.13161 0.54273 0.0
H745 H 0.55856 0.10449 0.62272 0.0
H746 H 0.56061 0.13913 0.6737 0.0
H747 H 0.54775 0.17743 0.69643 0.0
H748 H 0.49669 0.20465 0.61693 0.0
H749 H 0.49478 0.17007 0.56535 0.0
C750 C 0.51921 0.13336 0.57119 0.0
C751 C 0.53268 0.11504 0.57845 0.0
C752 C 0.52034 0.15355 0.60075 0.0
C753 C 0.54751 0.11769 0.61597 0.0
C754 C 0.54888 0.13775 0.6453 0.0
C755 C 0.53643 0.1759 0.6677 0.0
C756 C 0.52274 0.19395 0.66043 0.0
C757 C 0.53534 0.15579 0.63814 0.0
C758 C 0.50765 0.19128 0.62321 0.0
C759 C 0.50655 0.17145 0.59372 0.0
H760 H 0.40582 0.44179 0.06164 0.0
H761 H 0.42875 0.52165 1.00055 0.0
H762 H 0.38631 0.52503 0.03063 0.0
H763 H 0.34616 0.50793 0.07912 0.0
H764 H 0.32516 0.42866 0.14062 0.0
H765 H 0.36336 0.42251 0.10567 0.0
C766 C 0.4012 0.45967 0.05439 0.0
C767 C 0.42055 0.48152 0.02907 0.0
C768 C 0.37735 0.46183 0.07232 0.0
C769 C 0.41407 0.5044 0.01978 0.0
C770 C 0.39004 0.50654 0.03731 0.0
C771 C 0.34994 0.4893 0.08471 0.0
C772 C 0.33283 0.46882 0.1125 0.0
C773 C 0.37216 0.48589 0.06447 0.0
C774 C 0.3377 0.44455 0.11914 0.0
C775 C 0.35966 0.44107 0.09927 0.0
H776 H 0.91604 0.43894 0.60725 0.0
H777 H 0.9827 0.4079 0.59812 0.0
H778 H 0.95054 0.36614 0.63966 0.0
H779 H 0.8998 0.33547 0.67377 0.0
H780 H 0.83742 0.37158 0.68677 0.0
H781 H 0.8712 0.41364 0.64856 0.0
C782 C 0.92433 0.42377 0.61541 0.0
C783 C 0.95233 0.42718 0.60009 0.0
C784 C 0.90571 0.39991 0.63931 0.0
C785 C 0.96192 0.40653 0.61021 0.0
C786 C 0.94313 0.3823 0.6336 0.0
C787 C 0.89364 0.35263 0.66893 0.0
C788 C 0.86451 0.34872 0.68253 0.0
C789 C 0.91438 0.37824 0.64769 0.0
C790 C 0.85803 0.3721 0.67556 0.0
C791 C 0.87787 0.39685 0.65396 0.0
H792 H 0.60618 0.98444 0.1133 0.0
H793 H 0.52717 0.97328 0.17569 0.0
H794 H 0.52251 0.92837 0.20432 0.0
H795 H 0.53853 0.89044 0.20841 0.0
H796 H 0.61638 0.90024 0.14461 0.0
H797 H 0.62418 0.94766 0.11993 0.0
C798 C 0.58853 0.97255 0.13384 0.0
C799 C 0.56707 0.9821 0.14251 0.0
C800 C 0.5855 0.9463 0.14946 0.0
C801 C 0.54384 0.9662 0.16861 0.0
C802 C 0.5411 0.9405 0.18482 0.0
C803 C 0.55703 0.90284 0.18887 0.0
C804 C 0.57652 0.89163 0.17791 0.0
C805 C 0.56126 0.92992 0.17475 0.0
C806 C 0.60103 0.90839 0.15341 0.0
C807 C 0.60547 0.93547 0.13927 0.0
H808 H 0.54306 0.48924 0.6445 0.0
H809 H 0.59397 0.53683 0.5485 0.0
H810 H 0.64616 0.54634 0.58029 0.0
H811 H 0.67721 0.53821 0.63366 0.0
H812 H 0.62737 0.49342 0.73124 0.0
H813 H 0.57535 0.48556 0.70062 0.0
C814 C 0.56563 0.5021 0.63071 0.0
C815 C 0.56416 0.51219 0.59388 0.0
C816 C 0.59595 0.5077 0.64935 0.0
C817 C 0.59398 0.52883 0.57677 0.0
C818 C 0.62399 0.53415 0.59489 0.0
C819 C 0.65509 0.5272 0.64848 0.0
C820 C 0.6563 0.51632 0.68476 0.0
C821 C 0.62526 0.52328 0.63092 0.0
C822 C 0.62719 0.50186 0.70329 0.0
C823 C 0.59739 0.49739 0.68576 0.0
H824 H 0.07452 0.59407 0.1562 0.0
H825 H 0.08449 0.64031 0.05294 0.0
H826 H 0.13925 0.68462 0.08067 0.0
H827 H 0.18365 0.71054 0.13559 0.0
H828 H 0.17333 0.66247 0.23762 0.0
H829 H 0.11983 0.61827 0.209 0.0
C830 C 0.08859 0.61408 0.14012 0.0
C831 C 0.07548 0.6145 0.1031 0.0
C832 C 0.12015 0.63886 0.15585 0.0
C833 C 0.0942 0.63994 0.08177 0.0
C834 C 0.12545 0.66507 0.09751 0.0
C835 C 0.16974 0.69016 0.15117 0.0
C836 C 0.18205 0.68997 0.18883 0.0
C837 C 0.13868 0.6648 0.1346 0.0
C838 C 0.16411 0.66341 0.20882 0.0
C839 C 0.13344 0.63813 0.19254 0.0
loop_
_geom_bond_atom_site_label_1
_geom_bond_atom_site_label_2
_geom_bond_distance
_geom_bond_site_symmetry_2
_ccdc_geom_bond_type
Cu0 N1 1.999 1_454 S
Cu0 O6 1.974 1_454 S
Cu0 N11 1.985 . S
Cu0 O20 1.959 . S
N1 Cu0 1.999 1_656 S
N1 C3 1.263 . S
N1 C5 1.389 1_556 S
N2 C3 1.358 . S
N2 C4 1.400 . S
C3 N1 1.263 . S
C3 N2 1.358 . S
C3 H9 0.930 . S
C4 N2 1.400 . S
C4 C5 1.351 1_556 S
C4 H21 0.930 . S
C5 N1 1.389 1_554 S
C5 C4 1.351 1_554 S
C5 H10 0.930 . S
O6 Cu0 1.974 1_656 S
O6 C16 1.282 . S
C7 O8 1.265 . S
C7 O20 1.251 . S
O8 C7 1.265 . S
H9 C3 0.930 . S
H10 C5 0.930 . S
N11 Cu0 1.985 . S
N11 C13 1.335 . S
N11 C14 1.390 . S
N12 C13 1.345 . S
N12 C15 1.336 . S
C13 N11 1.335 . S
C13 N12 1.345 . S
C13 H18 0.930 . S
C14 N11 1.390 . S
C14 C15 1.346 . S
C14 H19 0.911 1_554 S
C15 N12 1.336 . S
C15 C14 1.346 . S
C15 H22 0.929 . S
C16 O6 1.282 . S
C16 O17 1.216 1_655 S
O17 C16 1.216 1_455 S
H18 C13 0.930 . S
H19 C14 0.911 1_556 S
O20 Cu0 1.959 . S
O20 C7 1.251 . S
H21 C4 0.930 . S
H22 C15 0.929 . S
Cu23 N24 1.999 . S
Cu23 O29 1.974 . S
Cu23 N34 1.985 1_565 S
Cu23 O43 1.959 1_565 S
N24 Cu23 1.999 . S
N24 C26 1.263 . S
N24 C28 1.389 . S
N25 C26 1.358 . S
N25 C27 1.400 . S
C26 N24 1.263 . S
C26 N25 1.358 . S
C26 H32 0.930 . S
C27 N25 1.400 . S
C27 C28 1.351 . S
C27 H44 0.930 . S
C28 N24 1.389 . S
C28 C27 1.351 . S
C28 H33 0.930 . S
O29 Cu23 1.974 . S
O29 C39 1.282 . S
C30 O31 1.261 . S
C30 O43 1.251 . S
O31 C30 1.261 . S
H32 C26 0.930 . S
H33 C28 0.930 . S
N34 Cu23 1.985 1_545 S
N34 C36 1.335 . S
N34 C37 1.390 . S
N35 C36 1.345 . S
N35 C38 1.336 . S
C36 N34 1.335 . S
C36 N35 1.345 . S
C36 H41 0.930 . S
C37 N34 1.390 . S
C37 C38 1.346 . S
C37 H42 0.930 . S
C38 N35 1.336 . S
C38 C37 1.346 . S
C38 H45 0.929 . S
C39 O29 1.282 . S
C39 O40 1.216 . S
O40 C39 1.216 . S
H41 C36 0.930 . S
H42 C37 0.930 . S
O43 Cu23 1.959 1_545 S
O43 C30 1.251 . S
H44 C27 0.930 . S
H45 C38 0.929 . S
Cu46 N47 1.999 1_554 S
Cu46 O52 1.974 1_554 S
Cu46 N57 1.985 . S
Cu46 O66 1.959 . S
N47 Cu46 1.999 1_556 S
N47 C49 1.263 . S
N47 C51 1.389 . S
N48 C49 1.358 . S
N48 C50 1.400 . S
C49 N47 1.263 . S
C49 N48 1.358 . S
C49 H55 0.930 . S
C50 N48 1.400 . S
C50 C51 1.351 . S
C50 H67 0.930 . S
C51 N47 1.389 . S
C51 C50 1.351 . S
C51 H56 0.930 . S
O52 Cu46 1.974 1_556 S
O52 C62 1.282 . S
C53 O54 1.261 . S
C53 O66 1.251 . S
O54 C53 1.261 . S
H55 C49 0.930 . S
H56 C51 0.930 . S
N57 Cu46 1.985 . S
N57 C59 1.335 . S
N57 C60 1.390 . S
N58 C59 1.345 . S
N58 C61 1.336 . S
C59 N57 1.335 . S
C59 N58 1.345 . S
C59 H64 0.930 . S
C60 N57 1.390 . S
C60 C61 1.346 . S
C60 H65 0.930 . S
C61 N58 1.336 . S
C61 C60 1.346 . S
C61 H68 0.929 . S
C62 O52 1.282 . S
C62 O63 1.216 1_556 S
O63 C62 1.216 1_554 S
H64 C59 0.930 . S
H65 C60 0.930 . S
O66 Cu46 1.959 . S
O66 C53 1.251 . S
H67 C50 0.930 . S
H68 C61 0.929 . S
Cu69 N70 1.999 1_655 S
Cu69 O75 1.974 1_655 S
Cu69 N80 1.985 . S
Cu69 O89 1.959 . S
N70 Cu69 1.999 1_455 S
N70 C72 1.263 . S
N70 C74 1.389 1_455 S
N71 C72 1.358 . S
N71 C73 1.400 . S
C72 N70 1.263 . S
C72 N71 1.358 . S
C72 H78 0.930 . S
C73 N71 1.400 . S
C73 C74 1.351 1_455 S
C73 H90 0.930 . S
C74 N70 1.389 1_655 S
C74 C73 1.351 1_655 S
C74 H79 0.930 . S
O75 Cu69 1.974 1_455 S
O75 C85 1.282 . S
C76 O77 1.261 1_655 S
C76 O89 1.251 . S
O77 C76 1.261 1_455 S
H78 C72 0.930 . S
H79 C74 0.930 . S
N80 Cu69 1.985 . S
N80 C82 1.335 . S
N80 C83 1.390 . S
N81 C82 1.345 . S
N81 C84 1.336 . S
C82 N80 1.335 . S
C82 N81 1.345 . S
C82 H87 0.930 . S
C83 N80 1.390 . S
C83 C84 1.346 . S
C83 H88 0.930 1_655 S
C84 N81 1.336 . S
C84 C83 1.346 . S
C84 H91 0.929 . S
C85 O75 1.282 . S
C85 O86 1.216 . S
O86 C85 1.216 . S
H87 C82 0.930 . S
H88 C83 0.930 1_455 S
O89 Cu69 1.959 . S
O89 C76 1.251 . S
H90 C73 0.930 . S
H91 C84 0.929 . S
Cu92 N93 1.999 . S
Cu92 O98 1.974 1_554 S
Cu92 N103 1.985 1_545 S
Cu92 O112 1.959 1_545 S
N93 Cu92 1.999 . S
N93 C95 1.263 1_554 S
N93 C97 1.389 . S
N94 C95 1.358 . S
N94 C96 1.400 1_556 S
C95 N93 1.263 1_556 S
C95 N94 1.358 . S
C95 H101 0.930 . S
C96 N94 1.400 1_554 S
C96 C97 1.351 . S
C96 H113 0.930 . S
C97 N93 1.389 . S
C97 C96 1.351 . S
C97 H102 0.930 . S
O98 Cu92 1.974 1_556 S
O98 C108 1.282 . S
C99 O100 1.261 . S
C99 O112 1.251 . S
O100 C99 1.261 . S
H101 C95 0.930 . S
H102 C97 0.930 . S
N103 Cu92 1.985 1_565 S
N103 C105 1.335 . S
N103 C106 1.390 . S
N104 C105 1.345 . S
N104 C107 1.336 . S
C105 N103 1.335 . S
C105 N104 1.345 . S
C105 H110 0.930 . S
C106 N103 1.390 . S
C106 C107 1.346 . S
C106 H111 0.930 . S
C107 N104 1.336 . S
C107 C106 1.346 . S
C107 H114 0.929 . S
C108 O98 1.282 . S
C108 O109 1.216 . S
O109 C108 1.216 . S
H110 C105 0.930 . S
H111 C106 0.930 . S
O112 Cu92 1.959 1_565 S
O112 C99 1.251 . S
H113 C96 0.930 . S
H114 C107 0.929 . S
Cu115 N116 1.999 . S
Cu115 O121 1.974 . S
Cu115 N126 1.985 . S
Cu115 O135 1.959 . S
N116 Cu115 1.999 . S
N116 C118 1.263 . S
N116 C120 1.389 . S
N117 C118 1.358 . S
N117 C119 1.400 . S
C118 N116 1.263 . S
C118 N117 1.358 . S
C118 H124 0.930 . S
C119 N117 1.400 . S
C119 C120 1.351 . S
C119 H136 0.930 . S
C120 N116 1.389 . S
C120 C119 1.351 . S
C120 H125 0.930 . S
O121 Cu115 1.974 . S
O121 C131 1.282 . S
C122 O123 1.261 . S
C122 O135 1.251 . S
O123 C122 1.261 . S
H124 C118 0.930 . S
H125 C120 0.930 . S
N126 Cu115 1.985 . S
N126 C128 1.335 . S
N126 C129 1.390 . S
N127 C128 1.345 . S
N127 C130 1.336 . S
C128 N126 1.335 . S
C128 N127 1.345 . S
C128 H133 0.930 . S
C129 N126 1.390 . S
C129 C130 1.346 . S
C129 H134 0.930 . S
C130 N127 1.336 . S
C130 C129 1.346 . S
C130 H137 0.929 . S
C131 O121 1.282 . S
C131 O132 1.216 . S
O132 C131 1.216 . S
H133 C128 0.930 . S
H134 C129 0.930 . S
O135 Cu115 1.959 . S
O135 C122 1.251 . S
H136 C119 0.930 . S
H137 C130 0.929 . S
C138 C139 1.443 . S
C138 N142 1.376 . S
C138 C176 1.389 . S
C139 C138 1.443 . S
C139 C140 1.340 . S
C139 H179 0.951 . S
C140 C139 1.340 . S
C140 C141 1.439 . S
C140 H180 0.950 . S
C141 C140 1.439 . S
C141 N142 1.374 . S
C141 C175 1.395 . S
N142 C138 1.376 . S
N142 C141 1.374 . S
N142 Co143 2.008 . S
Co143 N142 2.008 . S
Co143 N144 1.995 . S
Co143 N149 2.008 . S
Co143 N154 1.995 . S
Co143 N159 2.282 . S
Co143 N165 2.282 . S
N144 Co143 1.995 . S
N144 C145 1.376 . S
N144 C148 1.383 . S
C145 N144 1.376 . S
C145 C146 1.446 . S
C145 C175 1.391 . S
C146 C145 1.446 . S
C146 C147 1.339 . S
C146 H181 0.949 . S
C147 C146 1.339 . S
C147 C148 1.439 . S
C147 H182 0.950 . S
C148 N144 1.383 . S
C148 C147 1.439 . S
C148 C177 1.392 . S
N149 Co143 2.008 . S
N149 C150 1.376 . S
N149 C153 1.374 . S
C150 N149 1.376 . S
C150 C151 1.443 . S
C150 C177 1.389 . S
C151 C150 1.443 . S
C151 C152 1.340 . S
C151 H183 0.951 . S
C152 C151 1.340 . S
C152 C153 1.439 . S
C152 H184 0.950 . S
C153 N149 1.374 . S
C153 C152 1.439 . S
C153 C178 1.395 . S
N154 Co143 1.995 . S
N154 C155 1.376 . S
N154 C158 1.383 . S
C155 N154 1.376 . S
C155 C156 1.446 . S
C155 C178 1.391 . S
C156 C155 1.446 . S
C156 C157 1.339 . S
C156 H185 0.949 . S
C157 C156 1.339 . S
C157 C158 1.439 . S
C157 H186 0.950 . S
C158 N154 1.383 . S
C158 C157 1.439 . S
C158 C176 1.392 . S
N159 Co143 2.282 . S
N159 C162 1.332 . S
N159 C164 1.332 . S
C160 C161 1.386 . S
C160 C163 1.388 . S
C161 C160 1.386 . S
C161 C162 1.382 . S
C161 H187 0.950 . S
C162 N159 1.332 . S
C162 C161 1.382 . S
C162 H173 0.952 . S
C163 C160 1.388 . S
C163 C164 1.382 . S
C163 H188 0.950 . S
C164 N159 1.332 . S
C164 C163 1.382 . S
C164 H174 0.948 . S
N165 Co143 2.282 . S
N165 C169 1.332 . S
N165 C170 1.332 . S
C166 C167 1.388 . S
C166 C170 1.382 . S
C166 H189 0.950 . S
C167 C166 1.388 . S
C167 C168 1.386 . S
C168 C167 1.386 . S
C168 C169 1.382 . S
C168 H190 0.950 . S
C169 N165 1.332 . S
C169 C168 1.382 . S
C169 H171 0.952 . S
C170 N165 1.332 . S
C170 C166 1.382 . S
C170 H172 0.948 . S
H171 C169 0.952 . S
H172 C170 0.948 . S
H173 C162 0.952 . S
H174 C164 0.948 . S
C175 C141 1.395 . S
C175 C145 1.391 . S
C176 C138 1.389 . S
C176 C158 1.392 . S
C177 C148 1.392 . S
C177 C150 1.389 . S
C178 C153 1.395 . S
C178 C155 1.391 . S
H179 C139 0.951 . S
H180 C140 0.950 . S
H181 C146 0.949 . S
H182 C147 0.950 . S
H183 C151 0.951 . S
H184 C152 0.950 . S
H185 C156 0.949 . S
H186 C157 0.950 . S
H187 C161 0.950 . S
H188 C163 0.950 . S
H189 C166 0.950 . S
H190 C168 0.950 . S
C191 C192 1.443 . S
C191 N195 1.376 . S
C191 C229 1.389 . S
C192 C191 1.443 . S
C192 C193 1.340 . S
C192 H232 0.951 . S
C193 C192 1.340 . S
C193 C194 1.439 . S
C193 H233 0.950 . S
C194 C193 1.439 . S
C194 N195 1.374 . S
C194 C228 1.395 . S
N195 C191 1.376 . S
N195 C194 1.374 . S
N195 Co196 2.008 . S
Co196 N195 2.008 . S
Co196 N197 1.995 . S
Co196 N202 2.008 . S
Co196 N207 1.995 . S
Co196 N212 2.282 . S
Co196 N218 2.282 . S
N197 Co196 1.995 . S
N197 C198 1.376 . S
N197 C201 1.383 . S
C198 N197 1.376 . S
C198 C199 1.446 . S
C198 C228 1.391 . S
C199 C198 1.446 . S
C199 C200 1.339 . S
C199 H234 0.949 . S
C200 C199 1.339 . S
C200 C201 1.439 . S
C200 H235 0.950 . S
C201 N197 1.383 . S
C201 C200 1.439 . S
C201 C230 1.392 . S
N202 Co196 2.008 . S
N202 C203 1.376 . S
N202 C206 1.374 . S
C203 N202 1.376 . S
C203 C204 1.443 . S
C203 C230 1.389 . S
C204 C203 1.443 . S
C204 C205 1.340 . S
C204 H236 0.951 . S
C205 C204 1.340 . S
C205 C206 1.439 . S
C205 H237 0.950 . S
C206 N202 1.374 . S
C206 C205 1.439 . S
C206 C231 1.395 . S
N207 Co196 1.995 . S
N207 C208 1.376 . S
N207 C211 1.383 . S
C208 N207 1.376 . S
C208 C209 1.446 . S
C208 C231 1.391 . S
C209 C208 1.446 . S
C209 C210 1.339 . S
C209 H238 0.949 . S
C210 C209 1.339 . S
C210 C211 1.439 . S
C210 H239 0.950 . S
C211 N207 1.383 . S
C211 C210 1.439 . S
C211 C229 1.392 . S
N212 Co196 2.282 . S
N212 C215 1.332 . S
N212 C217 1.332 . S
C213 C214 1.386 . S
C213 C216 1.388 . S
C214 C213 1.386 . S
C214 C215 1.382 . S
C214 H240 0.950 . S
C215 N212 1.332 . S
C215 C214 1.382 . S
C215 H226 0.952 . S
C216 C213 1.388 . S
C216 C217 1.382 . S
C216 H241 0.950 . S
C217 N212 1.332 . S
C217 C216 1.382 . S
C217 H227 0.948 . S
N218 Co196 2.282 . S
N218 C222 1.332 . S
N218 C223 1.332 . S
C219 C220 1.388 . S
C219 C223 1.382 . S
C219 H242 0.950 . S
C220 C219 1.388 . S
C220 C221 1.386 . S
C221 C220 1.386 . S
C221 C222 1.382 . S
C221 H243 0.950 . S
C222 N218 1.332 . S
C222 C221 1.382 . S
C222 H224 0.952 . S
C223 N218 1.332 . S
C223 C219 1.382 . S
C223 H225 0.948 . S
H224 C222 0.952 . S
H225 C223 0.948 . S
H226 C215 0.952 . S
H227 C217 0.948 . S
C228 C194 1.395 . S
C228 C198 1.391 . S
C229 C191 1.389 . S
C229 C211 1.392 . S
C230 C201 1.392 . S
C230 C203 1.389 . S
C231 C206 1.395 . S
C231 C208 1.391 . S
H232 C192 0.951 . S
H233 C193 0.950 . S
H234 C199 0.949 . S
H235 C200 0.950 . S
H236 C204 0.951 . S
H237 C205 0.950 . S
H238 C209 0.949 . S
H239 C210 0.950 . S
H240 C214 0.950 . S
H241 C216 0.950 . S
H242 C219 0.950 . S
H243 C221 0.950 . S
C244 C245 1.443 . S
C244 N248 1.376 . S
C244 C282 1.389 . S
C245 C244 1.443 . S
C245 C246 1.340 . S
C245 H285 0.951 . S
C246 C245 1.340 . S
C246 C247 1.439 . S
C246 H286 0.950 . S
C247 C246 1.439 . S
C247 N248 1.374 . S
C247 C281 1.395 . S
N248 C244 1.376 . S
N248 C247 1.374 . S
N248 Co249 2.008 . S
Co249 N248 2.008 . S
Co249 N250 1.995 . S
Co249 N255 2.008 . S
Co249 N260 1.995 . S
Co249 N265 2.282 . S
Co249 N271 2.282 . S
N250 Co249 1.995 . S
N250 C251 1.376 . S
N250 C254 1.383 . S
C251 N250 1.376 . S
C251 C252 1.446 . S
C251 C281 1.391 . S
C252 C251 1.446 . S
C252 C253 1.339 . S
C252 H287 0.949 . S
C253 C252 1.339 . S
C253 C254 1.439 . S
C253 H288 0.950 . S
C254 N250 1.383 . S
C254 C253 1.439 . S
C254 C283 1.392 . S
N255 Co249 2.008 . S
N255 C256 1.376 . S
N255 C259 1.374 . S
C256 N255 1.376 . S
C256 C257 1.443 . S
C256 C283 1.389 . S
C257 C256 1.443 . S
C257 C258 1.340 . S
C257 H289 0.951 . S
C258 C257 1.340 . S
C258 C259 1.439 . S
C258 H290 0.950 . S
C259 N255 1.374 . S
C259 C258 1.439 . S
C259 C284 1.395 . S
N260 Co249 1.995 . S
N260 C261 1.376 . S
N260 C264 1.383 . S
C261 N260 1.376 . S
C261 C262 1.446 . S
C261 C284 1.391 . S
C262 C261 1.446 . S
C262 C263 1.339 . S
C262 H291 0.949 . S
C263 C262 1.339 . S
C263 C264 1.439 . S
C263 H292 0.950 . S
C264 N260 1.383 . S
C264 C263 1.439 . S
C264 C282 1.392 . S
N265 Co249 2.282 . S
N265 C268 1.332 . S
N265 C270 1.332 . S
C266 C267 1.386 . S
C266 C269 1.388 . S
C267 C266 1.386 . S
C267 C268 1.382 . S
C267 H293 0.950 . S
C268 N265 1.332 . S
C268 C267 1.382 . S
C268 H279 0.952 . S
C269 C266 1.388 . S
C269 C270 1.382 . S
C269 H294 0.950 . S
C270 N265 1.332 . S
C270 C269 1.382 . S
C270 H280 0.948 . S
N271 Co249 2.282 . S
N271 C275 1.332 . S
N271 C276 1.332 . S
C272 C273 1.388 . S
C272 C276 1.382 . S
C272 H295 0.950 . S
C273 C272 1.388 . S
C273 C274 1.386 . S
C274 C273 1.386 . S
C274 C275 1.382 . S
C274 H296 0.950 . S
C275 N271 1.332 . S
C275 C274 1.382 . S
C275 H277 0.952 . S
C276 N271 1.332 . S
C276 C272 1.382 . S
C276 H278 0.948 . S
H277 C275 0.952 . S
H278 C276 0.948 . S
H279 C268 0.952 . S
H280 C270 0.948 . S
C281 C247 1.395 . S
C281 C251 1.391 . S
C282 C244 1.389 . S
C282 C264 1.392 . S
C283 C254 1.392 . S
C283 C256 1.389 . S
C284 C259 1.395 . S
C284 C261 1.391 . S
H285 C245 0.951 . S
H286 C246 0.950 . S
H287 C252 0.949 . S
H288 C253 0.950 . S
H289 C257 0.951 . S
H290 C258 0.950 . S
H291 C262 0.949 . S
H292 C263 0.950 . S
H293 C267 0.950 . S
H294 C269 0.950 . S
H295 C272 0.950 . S
H296 C274 0.950 . S
C297 C298 1.443 . S
C297 N301 1.376 . S
C297 C335 1.389 . S
C298 C297 1.443 . S
C298 C299 1.340 . S
C298 H338 0.951 . S
C299 C298 1.340 . S
C299 C300 1.439 . S
C299 H339 0.950 . S
C300 C299 1.439 . S
C300 N301 1.374 . S
C300 C334 1.395 . S
N301 C297 1.376 . S
N301 C300 1.374 . S
N301 Co302 2.008 . S
Co302 N301 2.008 . S
Co302 N303 1.995 . S
Co302 N308 2.008 . S
Co302 N313 1.995 . S
Co302 N318 2.282 . S
Co302 N324 2.282 . S
N303 Co302 1.995 . S
N303 C304 1.376 . S
N303 C307 1.383 . S
C304 N303 1.376 . S
C304 C305 1.446 . S
C304 C334 1.391 . S
C305 C304 1.446 . S
C305 C306 1.339 . S
C305 H340 0.949 . S
C306 C305 1.339 . S
C306 C307 1.439 . S
C306 H341 0.950 . S
C307 N303 1.383 . S
C307 C306 1.439 . S
C307 C336 1.392 . S
N308 Co302 2.008 . S
N308 C309 1.376 . S
N308 C312 1.374 . S
C309 N308 1.376 . S
C309 C310 1.443 . S
C309 C336 1.389 . S
C310 C309 1.443 . S
C310 C311 1.340 . S
C310 H342 0.951 . S
C311 C310 1.340 . S
C311 C312 1.439 . S
C311 H343 0.950 . S
C312 N308 1.374 . S
C312 C311 1.439 . S
C312 C337 1.395 . S
N313 Co302 1.995 . S
N313 C314 1.376 . S
N313 C317 1.383 . S
C314 N313 1.376 . S
C314 C315 1.446 . S
C314 C337 1.391 . S
C315 C314 1.446 . S
C315 C316 1.339 . S
C315 H344 0.949 . S
C316 C315 1.339 . S
C316 C317 1.439 . S
C316 H345 0.950 . S
C317 N313 1.383 . S
C317 C316 1.439 . S
C317 C335 1.392 . S
N318 Co302 2.282 . S
N318 C321 1.332 . S
N318 C323 1.332 . S
C319 C320 1.386 . S
C319 C322 1.388 . S
C320 C319 1.386 . S
C320 C321 1.382 . S
C320 H346 0.950 . S
C321 N318 1.332 . S
C321 C320 1.382 . S
C321 H332 0.952 . S
C322 C319 1.388 . S
C322 C323 1.382 . S
C322 H347 0.950 . S
C323 N318 1.332 . S
C323 C322 1.382 . S
C323 H333 0.948 . S
N324 Co302 2.282 . S
N324 C328 1.332 . S
N324 C329 1.332 . S
C325 C326 1.388 . S
C325 C329 1.382 . S
C325 H348 0.950 . S
C326 C325 1.388 . S
C326 C327 1.386 . S
C327 C326 1.386 . S
C327 C328 1.382 . S
C327 H349 0.950 . S
C328 N324 1.332 . S
C328 C327 1.382 . S
C328 H330 0.952 . S
C329 N324 1.332 . S
C329 C325 1.382 . S
C329 H331 0.948 . S
H330 C328 0.952 . S
H331 C329 0.948 . S
H332 C321 0.952 . S
H333 C323 0.948 . S
C334 C300 1.395 . S
C334 C304 1.391 . S
C335 C297 1.389 . S
C335 C317 1.392 . S
C336 C307 1.392 . S
C336 C309 1.389 . S
C337 C312 1.395 . S
C337 C314 1.391 . S
H338 C298 0.951 . S
H339 C299 0.950 . S
H340 C305 0.949 . S
H341 C306 0.950 . S
H342 C310 0.951 . S
H343 C311 0.950 . S
H344 C315 0.949 . S
H345 C316 0.950 . S
H346 C320 0.950 . S
H347 C322 0.950 . S
H348 C325 0.950 . S
H349 C327 0.950 . S
C350 C351 1.443 . S
C350 N354 1.376 . S
C350 C388 1.389 . S
C351 C350 1.443 . S
C351 C352 1.340 . S
C351 H391 0.951 . S
C352 C351 1.340 . S
C352 C353 1.439 . S
C352 H392 0.950 . S
C353 C352 1.439 . S
C353 N354 1.374 . S
C353 C387 1.395 . S
N354 C350 1.376 . S
N354 C353 1.374 . S
N354 Co355 2.008 . S
Co355 N354 2.008 . S
Co355 N356 1.995 . S
Co355 N361 2.008 . S
Co355 N366 1.995 . S
Co355 N371 2.282 . S
Co355 N377 2.282 . S
N356 Co355 1.995 . S
N356 C357 1.376 . S
N356 C360 1.383 . S
C357 N356 1.376 . S
C357 C358 1.446 . S
C357 C387 1.391 . S
C358 C357 1.446 . S
C358 C359 1.339 . S
C358 H393 0.949 . S
C359 C358 1.339 . S
C359 C360 1.439 . S
C359 H394 0.950 . S
C360 N356 1.383 . S
C360 C359 1.439 . S
C360 C389 1.392 . S
N361 Co355 2.008 . S
N361 C362 1.376 . S
N361 C365 1.374 . S
C362 N361 1.376 . S
C362 C363 1.443 . S
C362 C389 1.389 . S
C363 C362 1.443 . S
C363 C364 1.340 . S
C363 H395 0.951 . S
C364 C363 1.340 . S
C364 C365 1.439 . S
C364 H396 0.950 . S
C365 N361 1.374 . S
C365 C364 1.439 . S
C365 C390 1.395 . S
N366 Co355 1.995 . S
N366 C367 1.376 . S
N366 C370 1.383 . S
C367 N366 1.376 . S
C367 C368 1.446 . S
C367 C390 1.391 . S
C368 C367 1.446 . S
C368 C369 1.339 . S
C368 H397 0.949 . S
C369 C368 1.339 . S
C369 C370 1.439 . S
C369 H398 0.950 . S
C370 N366 1.383 . S
C370 C369 1.439 . S
C370 C388 1.392 . S
N371 Co355 2.282 . S
N371 C374 1.332 . S
N371 C376 1.332 . S
C372 C373 1.386 . S
C372 C375 1.388 . S
C373 C372 1.386 . S
C373 C374 1.382 . S
C373 H399 0.950 . S
C374 N371 1.332 . S
C374 C373 1.382 . S
C374 H385 0.952 . S
C375 C372 1.388 . S
C375 C376 1.382 . S
C375 H400 0.950 . S
C376 N371 1.332 . S
C376 C375 1.382 . S
C376 H386 0.948 . S
N377 Co355 2.282 . S
N377 C381 1.332 . S
N377 C382 1.332 . S
C378 C379 1.388 . S
C378 C382 1.382 . S
C378 H401 0.950 . S
C379 C378 1.388 . S
C379 C380 1.386 . S
C380 C379 1.386 . S
C380 C381 1.382 . S
C380 H402 0.950 . S
C381 N377 1.332 . S
C381 C380 1.382 . S
C381 H383 0.952 . S
C382 N377 1.332 . S
C382 C378 1.382 . S
C382 H384 0.948 . S
H383 C381 0.952 . S
H384 C382 0.948 . S
H385 C374 0.952 . S
H386 C376 0.948 . S
C387 C353 1.395 . S
C387 C357 1.391 . S
C388 C350 1.389 . S
C388 C370 1.392 . S
C389 C360 1.392 . S
C389 C362 1.389 . S
C390 C365 1.395 . S
C390 C367 1.391 . S
H391 C351 0.951 . S
H392 C352 0.950 . S
H393 C358 0.949 . S
H394 C359 0.950 . S
H395 C363 0.951 . S
H396 C364 0.950 . S
H397 C368 0.949 . S
H398 C369 0.950 . S
H399 C373 0.950 . S
H400 C375 0.950 . S
H401 C378 0.950 . S
H402 C380 0.950 . S
C403 C404 1.443 . S
C403 N407 1.376 . S
C403 C441 1.389 . S
C404 C403 1.443 . S
C404 C405 1.340 . S
C404 H444 0.951 . S
C405 C404 1.340 . S
C405 C406 1.439 . S
C405 H445 0.950 . S
C406 C405 1.439 . S
C406 N407 1.374 . S
C406 C440 1.395 . S
N407 C403 1.376 . S
N407 C406 1.374 . S
N407 Co408 2.008 . S
Co408 N407 2.008 . S
Co408 N409 1.995 . S
Co408 N414 2.008 . S
Co408 N419 1.995 . S
Co408 N424 2.282 . S
Co408 N430 2.282 . S
N409 Co408 1.995 . S
N409 C410 1.376 . S
N409 C413 1.383 . S
C410 N409 1.376 . S
C410 C411 1.446 . S
C410 C440 1.391 . S
C411 C410 1.446 . S
C411 C412 1.339 . S
C411 H446 0.949 . S
C412 C411 1.339 . S
C412 C413 1.439 . S
C412 H447 0.950 . S
C413 N409 1.383 . S
C413 C412 1.439 . S
C413 C442 1.392 . S
N414 Co408 2.008 . S
N414 C415 1.376 . S
N414 C418 1.374 . S
C415 N414 1.376 . S
C415 C416 1.443 . S
C415 C442 1.389 . S
C416 C415 1.443 . S
C416 C417 1.340 . S
C416 H448 0.951 . S
C417 C416 1.340 . S
C417 C418 1.439 . S
C417 H449 0.950 . S
C418 N414 1.374 . S
C418 C417 1.439 . S
C418 C443 1.395 . S
N419 Co408 1.995 . S
N419 C420 1.376 . S
N419 C423 1.383 . S
C420 N419 1.376 . S
C420 C421 1.446 . S
C420 C443 1.391 . S
C421 C420 1.446 . S
C421 C422 1.339 . S
C421 H450 0.949 . S
C422 C421 1.339 . S
C422 C423 1.439 . S
C422 H451 0.950 . S
C423 N419 1.383 . S
C423 C422 1.439 . S
C423 C441 1.392 . S
N424 Co408 2.282 . S
N424 C427 1.332 . S
N424 C429 1.332 . S
C425 C426 1.386 . S
C425 C428 1.388 . S
C426 C425 1.386 . S
C426 C427 1.382 . S
C426 H452 0.950 . S
C427 N424 1.332 . S
C427 C426 1.382 . S
C427 H438 0.952 . S
C428 C425 1.388 . S
C428 C429 1.382 . S
C428 H453 0.950 . S
C429 N424 1.332 . S
C429 C428 1.382 . S
C429 H439 0.948 . S
N430 Co408 2.282 . S
N430 C434 1.332 . S
N430 C435 1.332 . S
C431 C432 1.388 . S
C431 C435 1.382 . S
C431 H454 0.950 . S
C432 C431 1.388 . S
C432 C433 1.386 . S
C433 C432 1.386 . S
C433 C434 1.382 . S
C433 H455 0.950 . S
C434 N430 1.332 . S
C434 C433 1.382 . S
C434 H436 0.952 . S
C435 N430 1.332 . S
C435 C431 1.382 . S
C435 H437 0.948 . S
H436 C434 0.952 . S
H437 C435 0.948 . S
H438 C427 0.952 . S
H439 C429 0.948 . S
C440 C406 1.395 . S
C440 C410 1.391 . S
C441 C403 1.389 . S
C441 C423 1.392 . S
C442 C413 1.392 . S
C442 C415 1.389 . S
C443 C418 1.395 . S
C443 C420 1.391 . S
H444 C404 0.951 . S
H445 C405 0.950 . S
H446 C411 0.949 . S
H447 C412 0.950 . S
H448 C416 0.951 . S
H449 C417 0.950 . S
H450 C421 0.949 . S
H451 C422 0.950 . S
H452 C426 0.950 . S
H453 C428 0.950 . S
H454 C431 0.950 . S
H455 C433 0.950 . S
H456 C462 0.930 . S
H457 C465 0.930 . S
H458 C466 0.930 . S
H459 C467 0.930 . S
H460 C470 0.930 . S
H461 C471 0.930 . S
C462 H456 0.930 . S
C462 C463 1.355 . S
C462 C464 1.415 . S
C463 C462 1.355 . S
C463 C465 1.419 . S
C464 C462 1.415 . S
C464 C469 1.425 . S
C464 C471 1.409 . S
C465 H457 0.930 . S
C465 C463 1.419 . S
C465 C466 1.362 . S
C466 H458 0.930 . S
C466 C465 1.362 . S
C466 C469 1.409 . S
C467 H459 0.930 . S
C467 C468 1.355 . S
C467 C469 1.415 . S
C468 C467 1.355 . S
C468 C470 1.419 . S
C469 C464 1.425 . S
C469 C466 1.409 . S
C469 C467 1.415 . S
C470 H460 0.930 . S
C470 C468 1.419 . S
C470 C471 1.362 . S
C471 H461 0.930 . S
C471 C464 1.409 . S
C471 C470 1.362 . S
H472 C478 0.930 . S
H473 C481 0.930 . S
H474 C482 0.930 . S
H475 C483 0.930 . S
H476 C486 0.930 . S
H477 C487 0.930 . S
C478 H472 0.930 . S
C478 C479 1.355 . S
C478 C480 1.415 . S
C479 C478 1.355 . S
C479 C481 1.419 . S
C480 C478 1.415 . S
C480 C485 1.425 . S
C480 C487 1.409 . S
C481 H473 0.930 . S
C481 C479 1.419 . S
C481 C482 1.362 . S
C482 H474 0.930 . S
C482 C481 1.362 . S
C482 C485 1.409 . S
C483 H475 0.930 . S
C483 C484 1.355 . S
C483 C485 1.415 . S
C484 C483 1.355 . S
C484 C486 1.419 . S
C485 C480 1.425 . S
C485 C482 1.409 . S
C485 C483 1.415 . S
C486 H476 0.930 . S
C486 C484 1.419 . S
C486 C487 1.362 . S
C487 H477 0.930 . S
C487 C480 1.409 . S
C487 C486 1.362 . S
H488 C494 0.930 . S
H489 C497 0.930 . S
H490 C498 0.930 . S
H491 C499 0.930 . S
H492 C502 0.930 . S
H493 C503 0.930 . S
C494 H488 0.930 . S
C494 C495 1.355 . S
C494 C496 1.415 . S
C495 C494 1.355 . S
C495 C497 1.419 . S
C496 C494 1.415 . S
C496 C501 1.425 . S
C496 C503 1.409 . S
C497 H489 0.930 . S
C497 C495 1.419 . S
C497 C498 1.362 . S
C498 H490 0.930 . S
C498 C497 1.362 . S
C498 C501 1.409 . S
C499 H491 0.930 . S
C499 C500 1.355 . S
C499 C501 1.415 . S
C500 C499 1.355 . S
C500 C502 1.419 . S
C501 C496 1.425 . S
C501 C498 1.409 . S
C501 C499 1.415 . S
C502 H492 0.930 . S
C502 C500 1.419 . S
C502 C503 1.362 . S
C503 H493 0.930 . S
C503 C496 1.409 . S
C503 C502 1.362 . S
H504 C510 0.930 . S
H505 C513 0.930 . S
H506 C514 0.930 . S
H507 C515 0.930 . S
H508 C518 0.930 . S
H509 C519 0.930 . S
C510 H504 0.930 . S
C510 C511 1.355 . S
C510 C512 1.415 . S
C511 C510 1.355 . S
C511 C513 1.419 . S
C512 C510 1.415 . S
C512 C517 1.425 . S
C512 C519 1.409 . S
C513 H505 0.930 . S
C513 C511 1.419 . S
C513 C514 1.362 . S
C514 H506 0.930 . S
C514 C513 1.362 . S
C514 C517 1.409 . S
C515 H507 0.930 . S
C515 C516 1.355 . S
C515 C517 1.415 . S
C516 C515 1.355 . S
C516 C518 1.419 . S
C517 C512 1.425 . S
C517 C514 1.409 . S
C517 C515 1.415 . S
C518 H508 0.930 . S
C518 C516 1.419 . S
C518 C519 1.362 . S
C519 H509 0.930 . S
C519 C512 1.409 . S
C519 C518 1.362 . S
H520 C526 0.930 . S
H521 C529 0.930 . S
H522 C530 0.930 . S
H523 C531 0.930 . S
H524 C534 0.930 . S
H525 C535 0.930 . S
C526 H520 0.930 . S
C526 C527 1.355 . S
C526 C528 1.415 . S
C527 C526 1.355 . S
C527 C529 1.419 . S
C528 C526 1.415 . S
C528 C533 1.425 . S
C528 C535 1.409 . S
C529 H521 0.930 . S
C529 C527 1.419 . S
C529 C530 1.362 . S
C530 H522 0.930 . S
C530 C529 1.362 . S
C530 C533 1.409 . S
C531 H523 0.930 . S
C531 C532 1.355 . S
C531 C533 1.415 . S
C532 C531 1.355 . S
C532 C534 1.419 . S
C533 C528 1.425 . S
C533 C530 1.409 . S
C533 C531 1.415 . S
C534 H524 0.930 . S
C534 C532 1.419 . S
C534 C535 1.362 . S
C535 H525 0.930 . S
C535 C528 1.409 . S
C535 C534 1.362 . S
H536 C542 0.930 . S
H537 C545 0.930 . S
H538 C546 0.930 . S
H539 C547 0.930 . S
H540 C550 0.930 . S
H541 C551 0.930 . S
C542 H536 0.930 . S
C542 C543 1.355 . S
C542 C544 1.415 . S
C543 C542 1.355 . S
C543 C545 1.419 . S
C544 C542 1.415 . S
C544 C549 1.425 . S
C544 C551 1.409 . S
C545 H537 0.930 . S
C545 C543 1.419 . S
C545 C546 1.362 . S
C546 H538 0.930 . S
C546 C545 1.362 . S
C546 C549 1.409 . S
C547 H539 0.930 . S
C547 C548 1.355 . S
C547 C549 1.415 . S
C548 C547 1.355 . S
C548 C550 1.419 . S
C549 C544 1.425 . S
C549 C546 1.409 . S
C549 C547 1.415 . S
C550 H540 0.930 . S
C550 C548 1.419 . S
C550 C551 1.362 . S
C551 H541 0.930 . S
C551 C544 1.409 . S
C551 C550 1.362 . S
H552 C558 0.930 . S
H553 C561 0.930 . S
H554 C562 0.930 . S
H555 C563 0.930 . S
H556 C566 0.930 . S
H557 C567 0.930 . S
C558 H552 0.930 . S
C558 C559 1.355 . S
C558 C560 1.415 . S
C559 C558 1.355 . S
C559 C561 1.419 . S
C560 C558 1.415 . S
C560 C565 1.425 . S
C560 C567 1.409 . S
C561 H553 0.930 . S
C561 C559 1.419 . S
C561 C562 1.362 . S
C562 H554 0.930 . S
C562 C561 1.362 . S
C562 C565 1.409 . S
C563 H555 0.930 . S
C563 C564 1.355 . S
C563 C565 1.415 . S
C564 C563 1.355 . S
C564 C566 1.419 . S
C565 C560 1.425 . S
C565 C562 1.409 . S
C565 C563 1.415 . S
C566 H556 0.930 . S
C566 C564 1.419 . S
C566 C567 1.362 . S
C567 H557 0.930 . S
C567 C560 1.409 . S
C567 C566 1.362 . S
H568 C574 0.930 . S
H569 C577 0.930 . S
H570 C578 0.930 . S
H571 C579 0.930 . S
H572 C582 0.930 . S
H573 C583 0.930 . S
C574 H568 0.930 . S
C574 C575 1.355 . S
C574 C576 1.415 . S
C575 C574 1.355 . S
C575 C577 1.419 . S
C576 C574 1.415 . S
C576 C581 1.425 . S
C576 C583 1.409 . S
C577 H569 0.930 . S
C577 C575 1.419 . S
C577 C578 1.362 . S
C578 H570 0.930 . S
C578 C577 1.362 . S
C578 C581 1.409 . S
C579 H571 0.930 . S
C579 C580 1.355 . S
C579 C581 1.415 . S
C580 C579 1.355 . S
C580 C582 1.419 . S
C581 C576 1.425 . S
C581 C578 1.409 . S
C581 C579 1.415 . S
C582 H572 0.930 . S
C582 C580 1.419 . S
C582 C583 1.362 . S
C583 H573 0.930 . S
C583 C576 1.409 . S
C583 C582 1.362 . S
H584 C590 0.930 . S
H585 C593 0.930 . S
H586 C594 0.930 . S
H587 C595 0.930 . S
H588 C598 0.930 . S
H589 C599 0.930 . S
C590 H584 0.930 . S
C590 C591 1.355 . S
C590 C592 1.415 . S
C591 C590 1.355 . S
C591 C593 1.419 . S
C592 C590 1.415 . S
C592 C597 1.425 . S
C592 C599 1.409 . S
C593 H585 0.930 . S
C593 C591 1.419 . S
C593 C594 1.362 . S
C594 H586 0.930 . S
C594 C593 1.362 . S
C594 C597 1.409 . S
C595 H587 0.930 . S
C595 C596 1.355 . S
C595 C597 1.415 . S
C596 C595 1.355 . S
C596 C598 1.419 . S
C597 C592 1.425 . S
C597 C594 1.409 . S
C597 C595 1.415 . S
C598 H588 0.930 . S
C598 C596 1.419 . S
C598 C599 1.362 . S
C599 H589 0.930 . S
C599 C592 1.409 . S
C599 C598 1.362 . S
H600 C606 0.930 . S
H601 C609 0.930 . S
H602 C610 0.930 . S
H603 C611 0.930 . S
H604 C614 0.930 . S
H605 C615 0.930 . S
C606 H600 0.930 . S
C606 C607 1.355 . S
C606 C608 1.415 . S
C607 C606 1.355 . S
C607 C609 1.419 . S
C608 C606 1.415 . S
C608 C613 1.425 . S
C608 C615 1.409 . S
C609 H601 0.930 . S
C609 C607 1.419 . S
C609 C610 1.362 . S
C610 H602 0.930 . S
C610 C609 1.362 . S
C610 C613 1.409 . S
C611 H603 0.930 . S
C611 C612 1.355 . S
C611 C613 1.415 . S
C612 C611 1.355 . S
C612 C614 1.419 . S
C613 C608 1.425 . S
C613 C610 1.409 . S
C613 C611 1.415 . S
C614 H604 0.930 . S
C614 C612 1.419 . S
C614 C615 1.362 . S
C615 H605 0.930 . S
C615 C608 1.409 . S
C615 C614 1.362 . S
H616 C622 0.930 . S
H617 C625 0.930 . S
H618 C626 0.930 . S
H619 C627 0.930 . S
H620 C630 0.930 . S
H621 C631 0.930 . S
C622 H616 0.930 . S
C622 C623 1.355 . S
C622 C624 1.415 . S
C623 C622 1.355 . S
C623 C625 1.419 . S
C624 C622 1.415 . S
C624 C629 1.425 . S
C624 C631 1.409 . S
C625 H617 0.930 . S
C625 C623 1.419 . S
C625 C626 1.362 . S
C626 H618 0.930 . S
C626 C625 1.362 . S
C626 C629 1.409 . S
C627 H619 0.930 . S
C627 C628 1.355 . S
C627 C629 1.415 . S
C628 C627 1.355 . S
C628 C630 1.419 . S
C629 C624 1.425 . S
C629 C626 1.409 . S
C629 C627 1.415 . S
C630 H620 0.930 . S
C630 C628 1.419 . S
C630 C631 1.362 . S
C631 H621 0.930 . S
C631 C624 1.409 . S
C631 C630 1.362 . S
H632 C638 0.930 . S
H633 C641 0.930 . S
H634 C642 0.930 . S
H635 C643 0.930 . S
H636 C646 0.930 . S
H637 C647 0.930 . S
C638 H632 0.930 . S
C638 C639 1.355 . S
C638 C640 1.415 . S
C639 C638 1.355 . S
C639 C641 1.419 . S
C640 C638 1.415 . S
C640 C645 1.425 . S
C640 C647 1.409 . S
C641 H633 0.930 . S
C641 C639 1.419 . S
C641 C642 1.362 . S
C642 H634 0.930 . S
C642 C641 1.362 . S
C642 C645 1.409 . S
C643 H635 0.930 . S
C643 C644 1.355 . S
C643 C645 1.415 . S
C644 C643 1.355 . S
C644 C646 1.419 . S
C645 C640 1.425 . S
C645 C642 1.409 . S
C645 C643 1.415 . S
C646 H636 0.930 . S
C646 C644 1.419 . S
C646 C647 1.362 . S
C647 H637 0.930 . S
C647 C640 1.409 . S
C647 C646 1.362 . S
H648 C654 0.930 . S
H649 C657 0.930 . S
H650 C658 0.930 . S
H651 C659 0.930 . S
H652 C662 0.930 . S
H653 C663 0.930 . S
C654 H648 0.930 . S
C654 C655 1.355 . S
C654 C656 1.415 . S
C655 C654 1.355 . S
C655 C657 1.419 . S
C656 C654 1.415 . S
C656 C661 1.425 . S
C656 C663 1.409 . S
C657 H649 0.930 . S
C657 C655 1.419 . S
C657 C658 1.362 . S
C658 H650 0.930 . S
C658 C657 1.362 . S
C658 C661 1.409 . S
C659 H651 0.930 . S
C659 C660 1.355 . S
C659 C661 1.415 . S
C660 C659 1.355 . S
C660 C662 1.419 . S
C661 C656 1.425 . S
C661 C658 1.409 . S
C661 C659 1.415 . S
C662 H652 0.930 . S
C662 C660 1.419 . S
C662 C663 1.362 . S
C663 H653 0.930 . S
C663 C656 1.409 . S
C663 C662 1.362 . S
H664 C670 0.930 . S
H665 C673 0.930 . S
H666 C674 0.930 . S
H667 C675 0.930 . S
H668 C678 0.930 . S
H669 C679 0.930 . S
C670 H664 0.930 . S
C670 C671 1.355 . S
C670 C672 1.415 . S
C671 C670 1.355 . S
C671 C673 1.419 . S
C672 C670 1.415 . S
C672 C677 1.425 . S
C672 C679 1.409 . S
C673 H665 0.930 . S
C673 C671 1.419 . S
C673 C674 1.362 . S
C674 H666 0.930 . S
C674 C673 1.362 . S
C674 C677 1.409 . S
C675 H667 0.930 . S
C675 C676 1.355 . S
C675 C677 1.415 . S
C676 C675 1.355 . S
C676 C678 1.419 . S
C677 C672 1.425 . S
C677 C674 1.409 . S
C677 C675 1.415 . S
C678 H668 0.930 . S
C678 C676 1.419 . S
C678 C679 1.362 . S
C679 H669 0.930 . S
C679 C672 1.409 . S
C679 C678 1.362 . S
H680 C686 0.930 . S
H681 C689 0.930 . S
H682 C690 0.930 . S
H683 C691 0.930 . S
H684 C694 0.930 . S
H685 C695 0.930 . S
C686 H680 0.930 . S
C686 C687 1.355 . S
C686 C688 1.415 . S
C687 C686 1.355 . S
C687 C689 1.419 . S
C688 C686 1.415 . S
C688 C693 1.425 . S
C688 C695 1.409 . S
C689 H681 0.930 . S
C689 C687 1.419 . S
C689 C690 1.362 . S
C690 H682 0.930 . S
C690 C689 1.362 . S
C690 C693 1.409 . S
C691 H683 0.930 . S
C691 C692 1.355 . S
C691 C693 1.415 . S
C692 C691 1.355 . S
C692 C694 1.419 . S
C693 C688 1.425 . S
C693 C690 1.409 . S
C693 C691 1.415 . S
C694 H684 0.930 . S
C694 C692 1.419 . S
C694 C695 1.362 . S
C695 H685 0.930 . S
C695 C688 1.409 . S
C695 C694 1.362 . S
H696 C702 0.930 . S
H697 C705 0.930 . S
H698 C706 0.930 . S
H699 C707 0.930 . S
H700 C710 0.930 . S
H701 C711 0.930 . S
C702 H696 0.930 . S
C702 C703 1.355 . S
C702 C704 1.415 . S
C703 C702 1.355 . S
C703 C705 1.419 . S
C704 C702 1.415 . S
C704 C709 1.425 . S
C704 C711 1.409 . S
C705 H697 0.930 . S
C705 C703 1.419 . S
C705 C706 1.362 . S
C706 H698 0.930 . S
C706 C705 1.362 . S
C706 C709 1.409 . S
C707 H699 0.930 . S
C707 C708 1.355 . S
C707 C709 1.415 . S
C708 C707 1.355 . S
C708 C710 1.419 . S
C709 C704 1.425 . S
C709 C706 1.409 . S
C709 C707 1.415 . S
C710 H700 0.930 . S
C710 C708 1.419 . S
C710 C711 1.362 . S
C711 H701 0.930 . S
C711 C704 1.409 . S
C711 C710 1.362 . S
H712 C718 0.930 . S
H713 C721 0.930 . S
H714 C722 0.930 . S
H715 C723 0.930 . S
H716 C726 0.930 . S
H717 C727 0.930 . S
C718 H712 0.930 . S
C718 C719 1.355 . S
C718 C720 1.415 . S
C719 C718 1.355 . S
C719 C721 1.419 . S
C720 C718 1.415 . S
C720 C725 1.425 . S
C720 C727 1.409 . S
C721 H713 0.930 . S
C721 C719 1.419 . S
C721 C722 1.362 . S
C722 H714 0.930 . S
C722 C721 1.362 . S
C722 C725 1.409 . S
C723 H715 0.930 . S
C723 C724 1.355 . S
C723 C725 1.415 . S
C724 C723 1.355 . S
C724 C726 1.419 . S
C725 C720 1.425 . S
C725 C722 1.409 . S
C725 C723 1.415 . S
C726 H716 0.930 . S
C726 C724 1.419 . S
C726 C727 1.362 . S
C727 H717 0.930 . S
C727 C720 1.409 . S
C727 C726 1.362 . S
H728 C734 0.930 . S
H729 C737 0.930 . S
H730 C738 0.930 . S
H731 C739 0.930 . S
H732 C742 0.930 . S
H733 C743 0.930 . S
C734 H728 0.930 . S
C734 C735 1.355 . S
C734 C736 1.415 . S
C735 C734 1.355 . S
C735 C737 1.419 . S
C736 C734 1.415 . S
C736 C741 1.425 . S
C736 C743 1.409 . S
C737 H729 0.930 . S
C737 C735 1.419 . S
C737 C738 1.362 . S
C738 H730 0.930 . S
C738 C737 1.362 . S
C738 C741 1.409 . S
C739 H731 0.930 . S
C739 C740 1.355 . S
C739 C741 1.415 . S
C740 C739 1.355 . S
C740 C742 1.419 . S
C741 C736 1.425 . S
C741 C738 1.409 . S
C741 C739 1.415 . S
C742 H732 0.930 . S
C742 C740 1.419 . S
C742 C743 1.362 . S
C743 H733 0.930 . S
C743 C736 1.409 . S
C743 C742 1.362 . S
H744 C750 0.930 . S
H745 C753 0.930 . S
H746 C754 0.930 . S
H747 C755 0.930 . S
H748 C758 0.930 . S
H749 C759 0.930 . S
C750 H744 0.930 . S
C750 C751 1.355 . S
C750 C752 1.415 . S
C751 C750 1.355 . S
C751 C753 1.419 . S
C752 C750 1.415 . S
C752 C757 1.425 . S
C752 C759 1.409 . S
C753 H745 0.930 . S
C753 C751 1.419 . S
C753 C754 1.362 . S
C754 H746 0.930 . S
C754 C753 1.362 . S
C754 C757 1.409 . S
C755 H747 0.930 . S
C755 C756 1.355 . S
C755 C757 1.415 . S
C756 C755 1.355 . S
C756 C758 1.419 . S
C757 C752 1.425 . S
C757 C754 1.409 . S
C757 C755 1.415 . S
C758 H748 0.930 . S
C758 C756 1.419 . S
C758 C759 1.362 . S
C759 H749 0.930 . S
C759 C752 1.409 . S
C759 C758 1.362 . S
H760 C766 0.930 . S
H761 C769 0.930 . S
H762 C770 0.930 . S
H763 C771 0.930 . S
H764 C774 0.930 . S
H765 C775 0.930 . S
C766 H760 0.930 . S
C766 C767 1.355 . S
C766 C768 1.415 . S
C767 C766 1.355 . S
C767 C769 1.419 . S
C768 C766 1.415 . S
C768 C773 1.425 . S
C768 C775 1.409 . S
C769 H761 0.930 . S
C769 C767 1.419 . S
C769 C770 1.362 . S
C770 H762 0.930 . S
C770 C769 1.362 . S
C770 C773 1.409 . S
C771 H763 0.930 . S
C771 C772 1.355 . S
C771 C773 1.415 . S
C772 C771 1.355 . S
C772 C774 1.419 . S
C773 C768 1.425 . S
C773 C770 1.409 . S
C773 C771 1.415 . S
C774 H764 0.930 . S
C774 C772 1.419 . S
C774 C775 1.362 . S
C775 H765 0.930 . S
C775 C768 1.409 . S
C775 C774 1.362 . S
H776 C782 0.930 . S
H777 C785 0.930 . S
H778 C786 0.930 . S
H779 C787 0.930 . S
H780 C790 0.930 . S
H781 C791 0.930 . S
C782 H776 0.930 . S
C782 C783 1.355 . S
C782 C784 1.415 . S
C783 C782 1.355 . S
C783 C785 1.419 . S
C784 C782 1.415 . S
C784 C789 1.425 . S
C784 C791 1.409 . S
C785 H777 0.930 . S
C785 C783 1.419 . S
C785 C786 1.362 . S
C786 H778 0.930 . S
C786 C785 1.362 . S
C786 C789 1.409 . S
C787 H779 0.930 . S
C787 C788 1.355 . S
C787 C789 1.415 . S
C788 C787 1.355 . S
C788 C790 1.419 . S
C789 C784 1.425 . S
C789 C786 1.409 . S
C789 C787 1.415 . S
C790 H780 0.930 . S
C790 C788 1.419 . S
C790 C791 1.362 . S
C791 H781 0.930 . S
C791 C784 1.409 . S
C791 C790 1.362 . S
H792 C798 0.930 . S
H793 C801 0.930 . S
H794 C802 0.930 . S
H795 C803 0.930 . S
H796 C806 0.930 . S
H797 C807 0.930 . S
C798 H792 0.930 . S
C798 C799 1.355 . S
C798 C800 1.415 . S
C799 C798 1.355 . S
C799 C801 1.419 . S
C800 C798 1.415 . S
C800 C805 1.425 . S
C800 C807 1.409 . S
C801 H793 0.930 . S
C801 C799 1.419 . S
C801 C802 1.362 . S
C802 H794 0.930 . S
C802 C801 1.362 . S
C802 C805 1.409 . S
C803 H795 0.930 . S
C803 C804 1.355 . S
C803 C805 1.415 . S
C804 C803 1.355 . S
C804 C806 1.419 . S
C805 C800 1.425 . S
C805 C802 1.409 . S
C805 C803 1.415 . S
C806 H796 0.930 . S
C806 C804 1.419 . S
C806 C807 1.362 . S
C807 H797 0.930 . S
C807 C800 1.409 . S
C807 C806 1.362 . S
H808 C814 0.930 . S
H809 C817 0.930 . S
H810 C818 0.930 . S
H811 C819 0.930 . S
H812 C822 0.930 . S
H813 C823 0.930 . S
C814 H808 0.930 . S
C814 C815 1.355 . S
C814 C816 1.415 . S
C815 C814 1.355 . S
C815 C817 1.419 . S
C816 C814 1.415 . S
C816 C821 1.425 . S
C816 C823 1.409 . S
C817 H809 0.930 . S
C817 C815 1.419 . S
C817 C818 1.362 . S
C818 H810 0.930 . S
C818 C817 1.362 . S
C818 C821 1.409 . S
C819 H811 0.930 . S
C819 C820 1.355 . S
C819 C821 1.415 . S
C820 C819 1.355 . S
C820 C822 1.419 . S
C821 C816 1.425 . S
C821 C818 1.409 . S
C821 C819 1.415 . S
C822 H812 0.930 . S
C822 C820 1.419 . S
C822 C823 1.362 . S
C823 H813 0.930 . S
C823 C816 1.409 . S
C823 C822 1.362 . S
H824 C830 0.930 . S
H825 C833 0.930 . S
H826 C834 0.930 . S
H827 C835 0.930 . S
H828 C838 0.930 . S
H829 C839 0.930 . S
C830 H824 0.930 . S
C830 C831 1.355 . S
C830 C832 1.415 . S
C831 C830 1.355 . S
C831 C833 1.419 . S
C832 C830 1.415 . S
C832 C837 1.425 . S
C832 C839 1.409 . S
C833 H825 0.930 . S
C833 C831 1.419 . S
C833 C834 1.362 . S
C834 H826 0.930 . S
C834 C833 1.362 . S
C834 C837 1.409 . S
C835 H827 0.930 . S
C835 C836 1.355 . S
C835 C837 1.415 . S
C836 C835 1.355 . S
C836 C838 1.419 . S
C837 C832 1.425 . S
C837 C834 1.409 . S
C837 C835 1.415 . S
C838 H828 0.930 . S
C838 C836 1.419 . S
C838 C839 1.362 . S
C839 H829 0.930 . S
C839 C832 1.409 . S
C839 C838 1.362 . S
C463 C7 2.057 . S
C468 C176 2.026 . S
C479 C30 1.510 . S
C484 C229 1.475 . S
C500 C282 1.831 . S
C495 N58 1.808 . S
C516 C319 1.258 . S
C511 N81 1.225 . S
C532 C379 1.767 . S
C527 C99 1.807 . S
C548 C432 1.396 . S
C543 N127 1.376 . S
C559 N25 1.853 . S
C564 C283 1.900 . S
C575 C62 1.482 . S
C580 C326 1.436 . S
C596 C372 1.847 . S
C591 C85 1.849 . S
C612 C425 1.286 . S
C607 N94 1.281 . S
C623 C131 1.926 . S
C628 C177 1.915 . S
C644 C230 1.397 . S
C639 N2 1.339 . S
C660 C336 2.009 . S
C655 C16 2.017 . S
C671 C39 1.472 . S
C676 C388 1.465 . S
C692 C441 1.831 . S
C687 N48 1.812 . S
C703 N71 1.195 . S
C708 C167 1.235 . S
C719 C108 1.817 . S
C724 C220 1.809 . S
C735 N117 1.307 . S
C740 C273 1.353 . S
C751 N35 1.854 . S
C756 C442 1.880 . S
C772 C160 1.491 . S
C767 C53 1.497 . S
C783 C76 1.865 . S
C788 C213 1.836 . S
C799 N104 1.315 . S
C804 C266 1.324 . S
C815 C122 1.873 . S
C820 C335 1.855 . S
C831 N12 1.364 . S
C836 C389 1.397 . S
