# Generated by pormake.
# Topology gar, (4,6)-cn, num edge types: 1
# Building blocks:
#     Node 0, Type 0, BuildingBlock: TATPOV_clean_sbu_0, # of connection points: 4
#     Node 1, Type 0, BuildingBlock: TATPOV_clean_sbu_0, # of connection points: 4
#     Node 2, Type 0, BuildingBlock: TATPOV_clean_sbu_0, # of connection points: 4
#     Node 3, Type 0, BuildingBlock: TATPOV_clean_sbu_0, # of connection points: 4
#     Node 4, Type 0, BuildingBlock: TATPOV_clean_sbu_0, # of connection points: 4
#     Node 5, Type 0, BuildingBlock: TATPOV_clean_sbu_0, # of connection points: 4
#     Node 6, Type 0, BuildingBlock: TATPOV_clean_sbu_0, # of connection points: 4
#     Node 7, Type 0, BuildingBlock: TATPOV_clean_sbu_0, # of connection points: 4
#     Node 8, Type 0, BuildingBlock: TATPOV_clean_sbu_0, # of connection points: 4
#     Node 9, Type 0, BuildingBlock: TATPOV_clean_sbu_0, # of connection points: 4
#     Node 10, Type 0, BuildingBlock: TATPOV_clean_sbu_0, # of connection points: 4
#     Node 11, Type 0, BuildingBlock: TATPOV_clean_sbu_0, # of connection points: 4
#     Node 12, Type 0, BuildingBlock: TATPOV_clean_sbu_0, # of connection points: 4
#     Node 13, Type 0, BuildingBlock: TATPOV_clean_sbu_0, # of connection points: 4
#     Node 14, Type 0, BuildingBlock: TATPOV_clean_sbu_0, # of connection points: 4
#     Node 15, Type 0, BuildingBlock: TATPOV_clean_sbu_0, # of connection points: 4
#     Node 16, Type 0, BuildingBlock: TATPOV_clean_sbu_0, # of connection points: 4
#     Node 17, Type 0, BuildingBlock: TATPOV_clean_sbu_0, # of connection points: 4
#     Node 18, Type 0, BuildingBlock: TATPOV_clean_sbu_0, # of connection points: 4
#     Node 19, Type 0, BuildingBlock: TATPOV_clean_sbu_0, # of connection points: 4
#     Node 20, Type 0, BuildingBlock: TATPOV_clean_sbu_0, # of connection points: 4
#     Node 21, Type 0, BuildingBlock: TATPOV_clean_sbu_0, # of connection points: 4
#     Node 22, Type 0, BuildingBlock: TATPOV_clean_sbu_0, # of connection points: 4
#     Node 23, Type 0, BuildingBlock: TATPOV_clean_sbu_0, # of connection points: 4
#     Node 24, Type 1, BuildingBlock: BETFEN_clean_sbu_0, # of connection points: 6
#     Node 25, Type 1, BuildingBlock: BETFEN_clean_sbu_0, # of connection points: 6
#     Node 26, Type 1, BuildingBlock: BETFEN_clean_sbu_0, # of connection points: 6
#     Node 27, Type 1, BuildingBlock: BETFEN_clean_sbu_0, # of connection points: 6
#     Node 28, Type 1, BuildingBlock: BETFEN_clean_sbu_0, # of connection points: 6
#     Node 29, Type 1, BuildingBlock: BETFEN_clean_sbu_0, # of connection points: 6
#     Node 30, Type 1, BuildingBlock: BETFEN_clean_sbu_0, # of connection points: 6
#     Node 31, Type 1, BuildingBlock: BETFEN_clean_sbu_0, # of connection points: 6
#     Node 32, Type 1, BuildingBlock: BETFEN_clean_sbu_0, # of connection points: 6
#     Node 33, Type 1, BuildingBlock: BETFEN_clean_sbu_0, # of connection points: 6
#     Node 34, Type 1, BuildingBlock: BETFEN_clean_sbu_0, # of connection points: 6
#     Node 35, Type 1, BuildingBlock: BETFEN_clean_sbu_0, # of connection points: 6
#     Node 36, Type 1, BuildingBlock: BETFEN_clean_sbu_0, # of connection points: 6
#     Node 37, Type 1, BuildingBlock: BETFEN_clean_sbu_0, # of connection points: 6
#     Node 38, Type 1, BuildingBlock: BETFEN_clean_sbu_0, # of connection points: 6
#     Node 39, Type 1, BuildingBlock: BETFEN_clean_sbu_0, # of connection points: 6
#     Edge 40, Type (0, 1), BuildingBlock: TEMPAE_clean_linker_10, # of connection points: 2
#     Edge 41, Type (0, 1), BuildingBlock: TEMPAE_clean_linker_10, # of connection points: 2
#     Edge 42, Type (0, 1), BuildingBlock: TEMPAE_clean_linker_10, # of connection points: 2
#     Edge 43, Type (0, 1), BuildingBlock: TEMPAE_clean_linker_10, # of connection points: 2
#     Edge 44, Type (0, 1), BuildingBlock: TEMPAE_clean_linker_10, # of connection points: 2
#     Edge 45, Type (0, 1), BuildingBlock: TEMPAE_clean_linker_10, # of connection points: 2
#     Edge 46, Type (0, 1), BuildingBlock: TEMPAE_clean_linker_10, # of connection points: 2
#     Edge 47, Type (0, 1), BuildingBlock: TEMPAE_clean_linker_10, # of connection points: 2
#     Edge 48, Type (0, 1), BuildingBlock: TEMPAE_clean_linker_10, # of connection points: 2
#     Edge 49, Type (0, 1), BuildingBlock: TEMPAE_clean_linker_10, # of connection points: 2
#     Edge 50, Type (0, 1), BuildingBlock: TEMPAE_clean_linker_10, # of connection points: 2
#     Edge 51, Type (0, 1), BuildingBlock: TEMPAE_clean_linker_10, # of connection points: 2
#     Edge 52, Type (0, 1), BuildingBlock: TEMPAE_clean_linker_10, # of connection points: 2
#     Edge 53, Type (0, 1), BuildingBlock: TEMPAE_clean_linker_10, # of connection points: 2
#     Edge 54, Type (0, 1), BuildingBlock: TEMPAE_clean_linker_10, # of connection points: 2
#     Edge 55, Type (0, 1), BuildingBlock: TEMPAE_clean_linker_10, # of connection points: 2
#     Edge 56, Type (0, 1), BuildingBlock: TEMPAE_clean_linker_10, # of connection points: 2
#     Edge 57, Type (0, 1), BuildingBlock: TEMPAE_clean_linker_10, # of connection points: 2
#     Edge 58, Type (0, 1), BuildingBlock: TEMPAE_clean_linker_10, # of connection points: 2
#     Edge 59, Type (0, 1), BuildingBlock: TEMPAE_clean_linker_10, # of connection points: 2
#     Edge 60, Type (0, 1), BuildingBlock: TEMPAE_clean_linker_10, # of connection points: 2
#     Edge 61, Type (0, 1), BuildingBlock: TEMPAE_clean_linker_10, # of connection points: 2
#     Edge 62, Type (0, 1), BuildingBlock: TEMPAE_clean_linker_10, # of connection points: 2
#     Edge 63, Type (0, 1), BuildingBlock: TEMPAE_clean_linker_10, # of connection points: 2
#     Edge 64, Type (0, 1), BuildingBlock: TEMPAE_clean_linker_10, # of connection points: 2
#     Edge 65, Type (0, 1), BuildingBlock: TEMPAE_clean_linker_10, # of connection points: 2
#     Edge 66, Type (0, 1), BuildingBlock: TEMPAE_clean_linker_10, # of connection points: 2
#     Edge 67, Type (0, 1), BuildingBlock: TEMPAE_clean_linker_10, # of connection points: 2
#     Edge 68, Type (0, 1), BuildingBlock: TEMPAE_clean_linker_10, # of connection points: 2
#     Edge 69, Type (0, 1), BuildingBlock: TEMPAE_clean_linker_10, # of connection points: 2
#     Edge 70, Type (0, 1), BuildingBlock: TEMPAE_clean_linker_10, # of connection points: 2
#     Edge 71, Type (0, 1), BuildingBlock: TEMPAE_clean_linker_10, # of connection points: 2
#     Edge 72, Type (0, 1), BuildingBlock: TEMPAE_clean_linker_10, # of connection points: 2
#     Edge 73, Type (0, 1), BuildingBlock: TEMPAE_clean_linker_10, # of connection points: 2
#     Edge 74, Type (0, 1), BuildingBlock: TEMPAE_clean_linker_10, # of connection points: 2
#     Edge 75, Type (0, 1), BuildingBlock: TEMPAE_clean_linker_10, # of connection points: 2
#     Edge 76, Type (0, 1), BuildingBlock: TEMPAE_clean_linker_10, # of connection points: 2
#     Edge 77, Type (0, 1), BuildingBlock: TEMPAE_clean_linker_10, # of connection points: 2
#     Edge 78, Type (0, 1), BuildingBlock: TEMPAE_clean_linker_10, # of connection points: 2
#     Edge 79, Type (0, 1), BuildingBlock: TEMPAE_clean_linker_10, # of connection points: 2
#     Edge 80, Type (0, 1), BuildingBlock: TEMPAE_clean_linker_10, # of connection points: 2
#     Edge 81, Type (0, 1), BuildingBlock: TEMPAE_clean_linker_10, # of connection points: 2
#     Edge 82, Type (0, 1), BuildingBlock: TEMPAE_clean_linker_10, # of connection points: 2
#     Edge 83, Type (0, 1), BuildingBlock: TEMPAE_clean_linker_10, # of connection points: 2
#     Edge 84, Type (0, 1), BuildingBlock: TEMPAE_clean_linker_10, # of connection points: 2
#     Edge 85, Type (0, 1), BuildingBlock: TEMPAE_clean_linker_10, # of connection points: 2
#     Edge 86, Type (0, 1), BuildingBlock: TEMPAE_clean_linker_10, # of connection points: 2
#     Edge 87, Type (0, 1), BuildingBlock: TEMPAE_clean_linker_10, # of connection points: 2
#     Edge 88, Type (0, 1), BuildingBlock: TEMPAE_clean_linker_10, # of connection points: 2
#     Edge 89, Type (0, 1), BuildingBlock: TEMPAE_clean_linker_10, # of connection points: 2
#     Edge 90, Type (0, 1), BuildingBlock: TEMPAE_clean_linker_10, # of connection points: 2
#     Edge 91, Type (0, 1), BuildingBlock: TEMPAE_clean_linker_10, # of connection points: 2
#     Edge 92, Type (0, 1), BuildingBlock: TEMPAE_clean_linker_10, # of connection points: 2
#     Edge 93, Type (0, 1), BuildingBlock: TEMPAE_clean_linker_10, # of connection points: 2
#     Edge 94, Type (0, 1), BuildingBlock: TEMPAE_clean_linker_10, # of connection points: 2
#     Edge 95, Type (0, 1), BuildingBlock: TEMPAE_clean_linker_10, # of connection points: 2
#     Edge 96, Type (0, 1), BuildingBlock: TEMPAE_clean_linker_10, # of connection points: 2
#     Edge 97, Type (0, 1), BuildingBlock: TEMPAE_clean_linker_10, # of connection points: 2
#     Edge 98, Type (0, 1), BuildingBlock: TEMPAE_clean_linker_10, # of connection points: 2
#     Edge 99, Type (0, 1), BuildingBlock: TEMPAE_clean_linker_10, # of connection points: 2
#     Edge 100, Type (0, 1), BuildingBlock: TEMPAE_clean_linker_10, # of connection points: 2
#     Edge 101, Type (0, 1), BuildingBlock: TEMPAE_clean_linker_10, # of connection points: 2
#     Edge 102, Type (0, 1), BuildingBlock: TEMPAE_clean_linker_10, # of connection points: 2
#     Edge 103, Type (0, 1), BuildingBlock: TEMPAE_clean_linker_10, # of connection points: 2
#     Edge 104, Type (0, 1), BuildingBlock: TEMPAE_clean_linker_10, # of connection points: 2
#     Edge 105, Type (0, 1), BuildingBlock: TEMPAE_clean_linker_10, # of connection points: 2
#     Edge 106, Type (0, 1), BuildingBlock: TEMPAE_clean_linker_10, # of connection points: 2
#     Edge 107, Type (0, 1), BuildingBlock: TEMPAE_clean_linker_10, # of connection points: 2
#     Edge 108, Type (0, 1), BuildingBlock: TEMPAE_clean_linker_10, # of connection points: 2
#     Edge 109, Type (0, 1), BuildingBlock: TEMPAE_clean_linker_10, # of connection points: 2
#     Edge 110, Type (0, 1), BuildingBlock: TEMPAE_clean_linker_10, # of connection points: 2
#     Edge 111, Type (0, 1), BuildingBlock: TEMPAE_clean_linker_10, # of connection points: 2
#     Edge 112, Type (0, 1), BuildingBlock: TEMPAE_clean_linker_10, # of connection points: 2
#     Edge 113, Type (0, 1), BuildingBlock: TEMPAE_clean_linker_10, # of connection points: 2
#     Edge 114, Type (0, 1), BuildingBlock: TEMPAE_clean_linker_10, # of connection points: 2
#     Edge 115, Type (0, 1), BuildingBlock: TEMPAE_clean_linker_10, # of connection points: 2
#     Edge 116, Type (0, 1), BuildingBlock: TEMPAE_clean_linker_10, # of connection points: 2
#     Edge 117, Type (0, 1), BuildingBlock: TEMPAE_clean_linker_10, # of connection points: 2
#     Edge 118, Type (0, 1), BuildingBlock: TEMPAE_clean_linker_10, # of connection points: 2
#     Edge 119, Type (0, 1), BuildingBlock: TEMPAE_clean_linker_10, # of connection points: 2
#     Edge 120, Type (0, 1), BuildingBlock: TEMPAE_clean_linker_10, # of connection points: 2
#     Edge 121, Type (0, 1), BuildingBlock: TEMPAE_clean_linker_10, # of connection points: 2
#     Edge 122, Type (0, 1), BuildingBlock: TEMPAE_clean_linker_10, # of connection points: 2
#     Edge 123, Type (0, 1), BuildingBlock: TEMPAE_clean_linker_10, # of connection points: 2
#     Edge 124, Type (0, 1), BuildingBlock: TEMPAE_clean_linker_10, # of connection points: 2
#     Edge 125, Type (0, 1), BuildingBlock: TEMPAE_clean_linker_10, # of connection points: 2
#     Edge 126, Type (0, 1), BuildingBlock: TEMPAE_clean_linker_10, # of connection points: 2
#     Edge 127, Type (0, 1), BuildingBlock: TEMPAE_clean_linker_10, # of connection points: 2
#     Edge 128, Type (0, 1), BuildingBlock: TEMPAE_clean_linker_10, # of connection points: 2
#     Edge 129, Type (0, 1), BuildingBlock: TEMPAE_clean_linker_10, # of connection points: 2
#     Edge 130, Type (0, 1), BuildingBlock: TEMPAE_clean_linker_10, # of connection points: 2
#     Edge 131, Type (0, 1), BuildingBlock: TEMPAE_clean_linker_10, # of connection points: 2
#     Edge 132, Type (0, 1), BuildingBlock: TEMPAE_clean_linker_10, # of connection points: 2
#     Edge 133, Type (0, 1), BuildingBlock: TEMPAE_clean_linker_10, # of connection points: 2
#     Edge 134, Type (0, 1), BuildingBlock: TEMPAE_clean_linker_10, # of connection points: 2
#     Edge 135, Type (0, 1), BuildingBlock: TEMPAE_clean_linker_10, # of connection points: 2
# Relax obj value: 0.208
# Max RMSD: 0.316
# Mean RMSD: 0.179
data_MOF--net-gar--node1-TATPOV_clean_sbu_0--node2-BETFEN_clean_sbu_0--edge1-TEMPAE_clean_linker_10
_symmetry_space_group_name_H-M    P1
_symmetry_Int_Tables_number       1
_symmetry_cell_setting            triclinic
loop_
_symmetry_equiv_pos_as_xyz
'x, y, z'
_cell_length_a     63.973318
_cell_length_b     57.321748
_cell_length_c     57.823214
_cell_angle_alpha  94.938023
_cell_angle_beta   99.672456
_cell_angle_gamma 104.36432
loop_
_atom_site_label
_atom_site_type_symbol
_atom_site_fract_x
_atom_site_fract_y
_atom_site_fract_z
_atom_type_partial_charge
Zn0 Zn 1.00636 0.31543 0.45274 0.0
Zn1 Zn 0.03414 0.32006 0.42423 0.0
O2 O 0.04306 0.35457 0.44496 0.0
O3 O 0.01994 0.34961 0.4694 0.0
O4 O 0.05856 0.32201 0.40507 0.0
O5 O 0.0135 0.28619 0.46564 0.0
O6 O 0.03603 0.28885 0.44065 0.0
C7 C 0.03543 0.36327 0.46187 0.0
C8 C 0.98505 0.31185 0.40368 0.0
O9 O 1.00469 0.31557 0.39992 0.0
O10 O 0.98168 0.31048 0.42456 0.0
C11 C 0.05735 0.30539 0.38839 0.0
O12 O 0.0393 0.28745 0.38239 0.0
C13 C 0.02709 0.2778 0.45629 0.0
Zn14 Zn 0.06685 0.8011 0.66911 0.0
Zn15 Zn 0.07118 0.83413 0.63979 0.0
O16 O 0.04634 0.83843 0.65859 0.0
O17 O 0.04399 0.81152 0.68357 0.0
O18 O 0.07382 0.86302 0.62005 0.0
O19 O 0.09849 0.81374 0.68518 0.0
O20 O 0.10298 0.84091 0.66047 0.0
C21 C 0.03769 0.82877 0.67508 0.0
C22 C 0.05831 0.77929 0.62035 0.0
O23 O 0.06341 0.8014 0.61617 0.0
O24 O 0.05796 0.77476 0.64133 0.0
C25 C 0.05781 0.87242 0.61459 0.0
O26 O 0.03879 0.86212 0.6199 0.0
C27 C 0.11087 0.83118 0.67782 0.0
Zn28 Zn 0.50668 0.81578 0.95352 0.0
Zn29 Zn 0.5346 0.82081 0.92512 0.0
O30 O 0.54315 0.85529 0.94578 0.0
O31 O 0.51984 0.85007 0.97 0.0
O32 O 0.55861 0.82347 0.90536 0.0
O33 O 0.51446 0.78691 0.96654 0.0
O34 O 0.53708 0.78974 0.94164 0.0
C35 C 0.5353 0.86388 0.96255 0.0
C36 C 0.48537 0.8118 0.90455 0.0
O37 O 0.50507 0.81584 0.90095 0.0
O38 O 0.48188 0.81035 0.92537 0.0
C39 C 0.55848 0.8056 0.89057 0.0
O40 O 0.54204 0.78588 0.88743 0.0
C41 C 0.52823 0.7787 0.95734 0.0
Zn42 Zn 0.56558 0.30336 0.17053 0.0
Zn43 Zn 0.57102 0.33634 0.14075 0.0
O44 O 0.54594 0.34103 0.15871 0.0
O45 O 0.54181 0.31394 0.18338 0.0
O46 O 0.57342 0.36475 0.12062 0.0
O47 O 0.59725 0.3168 0.18713 0.0
O48 O 0.60249 0.34336 0.16191 0.0
C49 C 0.53623 0.33143 0.17454 0.0
C50 C 0.55848 0.28144 0.12185 0.0
O51 O 0.56375 0.30351 0.11762 0.0
O52 O 0.55751 0.2769 0.14274 0.0
C53 C 0.55657 0.37236 0.11363 0.0
O54 O 0.53742 0.36032 0.11748 0.0
C55 C 0.60996 0.33392 0.17968 0.0
Zn56 Zn 0.11541 0.85075 0.11095 0.0
Zn57 Zn 0.08899 0.84845 0.14192 0.0
O58 O 0.08503 0.87737 0.12326 0.0
O59 O 0.10673 0.87894 0.09739 0.0
O60 O 0.06566 0.84655 0.16239 0.0
O61 O 0.10022 0.81653 0.09579 0.0
O62 O 0.07963 0.8137 0.12284 0.0
C63 C 0.09282 0.88711 0.10637 0.0
C64 C 0.13834 0.85594 0.15994 0.0
O65 O 0.11927 0.85415 0.16479 0.0
O66 O 0.14076 0.85552 0.1386 0.0
C67 C 0.06253 0.86548 0.17291 0.0
O68 O 0.07572 0.88679 0.17187 0.0
C69 C 0.08551 0.80395 0.10517 0.0
Zn70 Zn 0.49492 0.81181 0.43826 0.0
Zn71 Zn 0.52115 0.81236 0.40708 0.0
O72 O 0.53126 0.8478 0.42462 0.0
O73 O 0.51097 0.84637 0.45193 0.0
O74 O 0.54382 0.81063 0.38647 0.0
O75 O 0.50311 0.78389 0.45309 0.0
O76 O 0.52455 0.78431 0.42709 0.0
C77 C 0.52561 0.8583 0.44202 0.0
C78 C 0.47192 0.80549 0.38908 0.0
O79 O 0.49093 0.80671 0.3843 0.0
O80 O 0.46952 0.80662 0.41044 0.0
C81 C 0.55592 0.82846 0.37907 0.0
O82 O 0.55315 0.85026 0.38344 0.0
C83 C 0.51686 0.77523 0.44431 0.0
Zn84 Zn 0.61392 0.35001 0.61203 0.0
Zn85 Zn 0.58734 0.34901 0.64255 0.0
O86 O 0.58468 0.3777 0.62306 0.0
O87 O 0.6063 0.3781 0.59725 0.0
O88 O 0.56288 0.34902 0.66114 0.0
O89 O 0.59854 0.31566 0.59744 0.0
O90 O 0.57803 0.31372 0.62455 0.0
C91 C 0.59267 0.38693 0.60605 0.0
C92 C 0.63618 0.35594 0.66163 0.0
O93 O 0.6171 0.35467 0.66629 0.0
O94 O 0.63872 0.35495 0.64031 0.0
C95 C 0.56289 0.34844 0.6831 0.0
O96 O 0.58086 0.34737 0.6973 0.0
C97 C 0.5839 0.30346 0.60716 0.0
Zn98 Zn 0.99272 0.31099 0.93911 0.0
Zn99 Zn 0.01833 0.31104 0.90717 0.0
O100 O 0.02848 0.34658 0.92426 0.0
O101 O 0.00885 0.34576 0.95215 0.0
O102 O 0.04047 0.30922 0.88594 0.0
O103 O 1.00144 0.28329 0.95397 0.0
O104 O 0.02225 0.28331 0.92737 0.0
C105 C 0.02317 0.35743 0.94169 0.0
C106 C 0.96898 0.30396 0.89009 0.0
O107 O 0.98786 0.30513 0.88498 0.0
O108 O 0.96692 0.30535 0.91157 0.0
C109 C 0.05276 0.32725 0.87901 0.0
O110 O 0.05047 0.34911 0.88434 0.0
C111 C 0.01497 0.27449 0.94491 0.0
Zn112 Zn 0.50906 0.17199 0.3124 0.0
Zn113 Zn 0.47775 0.19193 0.31826 0.0
O114 O 0.49567 0.19581 0.35296 0.0
O115 O 0.52173 0.17853 0.34668 0.0
O116 O 0.4531 0.20824 0.31937 0.0
O117 O 0.52148 0.19453 0.29108 0.0
O118 O 0.49177 0.20724 0.29098 0.0
C119 C 0.51268 0.18878 0.36085 0.0
C120 C 0.46665 0.13794 0.30069 0.0
O121 O 0.46094 0.15641 0.30838 0.0
O122 O 0.48654 0.13987 0.29929 0.0
C123 C 0.43769 0.20249 0.30113 0.0
O124 O 0.43893 0.18686 0.28374 0.0
C125 C 0.50922 0.20733 0.28301 0.0
Zn126 Zn 0.25639 0.25407 0.50507 0.0
Zn127 Zn 0.28521 0.22805 0.50711 0.0
O128 O 0.28888 0.24791 0.47793 0.0
O129 O 0.26733 0.27232 0.47931 0.0
O130 O 0.31036 0.21133 0.50853 0.0
O131 O 0.26716 0.26823 0.5395 0.0
O132 O 0.29154 0.247 0.54147 0.0
C133 C 0.28127 0.26486 0.46973 0.0
C134 C 0.2359 0.20206 0.49805 0.0
O135 O 0.25579 0.20067 0.50228 0.0
O136 O 0.23194 0.22259 0.49695 0.0
C137 C 0.30859 0.18975 0.49925 0.0
O138 O 0.28918 0.17634 0.48799 0.0
C139 C 0.28264 0.26169 0.55154 0.0
Zn140 Zn 0.18482 0.15258 0.88237 0.0
Zn141 Zn 0.20646 0.11934 0.87272 0.0
O142 O 0.19216 0.10894 0.90062 0.0
O143 O 0.17872 0.13875 0.91223 0.0
O144 O 0.22391 0.09535 0.86721 0.0
O145 O 0.16353 0.13771 0.85112 0.0
O146 O 0.18316 0.11255 0.84302 0.0
C147 C 0.18222 0.11822 0.91468 0.0
C148 C 0.22843 0.17459 0.87696 0.0
O149 O 0.22874 0.15239 0.87403 0.0
O150 O 0.21145 0.17998 0.88169 0.0
C151 C 0.23004 0.08262 0.88262 0.0
O152 O 0.22509 0.08502 0.90369 0.0
C153 C 0.16676 0.12111 0.83728 0.0
Zn154 Zn 0.33792 0.90787 0.02873 0.0
Zn155 Zn 0.3131 0.93678 0.02679 0.0
O156 O 0.30567 0.91716 0.99213 0.0
O157 O 0.32718 0.89263 0.99512 0.0
O158 O 0.29021 0.95649 0.02563 0.0
O159 O 0.32759 0.89145 0.05528 0.0
O160 O 0.30859 0.91843 0.05674 0.0
C161 C 0.31308 0.90069 0.98256 0.0
C162 C 0.36286 0.95818 0.03651 0.0
O163 O 0.34384 0.96211 0.03266 0.0
O164 O 0.36445 0.93658 0.0363 0.0
C165 C 0.29243 0.97505 0.04059 0.0
O166 O 0.31039 0.98233 0.05706 0.0
C167 C 0.31518 0.90108 0.06542 0.0
Zn168 Zn 0.34797 0.40391 0.04654 0.0
Zn169 Zn 0.32368 0.43469 0.04605 0.0
O170 O 0.31554 0.4167 0.01103 0.0
O171 O 0.33559 0.39057 0.01223 0.0
O172 O 0.30117 0.45485 0.04707 0.0
O173 O 0.33643 0.38671 0.07263 0.0
O174 O 0.31821 0.41443 0.07467 0.0
C175 C 0.32203 0.4 1.00052 0.0
C176 C 0.37387 0.45453 0.05409 0.0
O177 O 0.35503 0.45901 0.05125 0.0
O178 O 0.37503 0.43275 0.05389 0.0
C179 C 0.29497 0.46707 0.0311 0.0
O180 O 0.30412 0.46825 0.01237 0.0
C181 C 0.32381 0.39621 0.08259 0.0
Zn182 Zn 0.77258 0.25605 0.01967 0.0
Zn183 Zn 0.79805 0.22764 0.02187 0.0
O184 O 0.8018 0.24507 0.99129 0.0
O185 O 0.78231 0.27162 0.99238 0.0
O186 O 0.82092 0.20797 0.02314 0.0
O187 O 0.78403 0.27203 0.05301 0.0
O188 O 0.8063 0.24832 0.05595 0.0
C189 C 0.79477 0.26201 0.98229 0.0
C190 C 0.74834 0.20571 0.01393 0.0
O191 O 0.76753 0.20221 0.01753 0.0
O192 O 0.74632 0.22708 0.01334 0.0
C193 C 0.81856 0.18922 0.00838 0.0
O194 O 0.80053 0.18182 0.99203 0.0
C195 C 0.79875 0.2647 0.06543 0.0
Zn196 Zn 0.09372 0.49851 0.23499 0.0
Zn197 Zn 0.12279 0.47429 0.23016 0.0
O198 O 0.1067 0.4594 0.2563 0.0
O199 O 0.08044 0.47777 0.25714 0.0
O200 O 0.14664 0.45668 0.23028 0.0
O201 O 0.08138 0.49061 0.20055 0.0
O202 O 0.10566 0.4703 0.19524 0.0
C203 C 0.09009 0.46232 0.26454 0.0
C204 C 0.13713 0.52925 0.24664 0.0
O205 O 0.14126 0.50943 0.23997 0.0
O206 O 0.11752 0.52963 0.24723 0.0
C207 C 0.16142 0.4622 0.24908 0.0
O208 O 0.1597 0.47789 0.26615 0.0
C209 C 0.08953 0.47853 0.18687 0.0
Zn210 Zn 0.85262 0.90733 0.54736 0.0
Zn211 Zn 0.82528 0.93525 0.54557 0.0
O212 O 0.81767 0.91657 0.51116 0.0
O213 O 0.83987 0.89269 0.51321 0.0
O214 O 0.80237 0.9549 0.54651 0.0
O215 O 0.84277 0.8913 0.57464 0.0
O216 O 0.82021 0.91468 0.57396 0.0
C217 C 0.82524 0.90054 0.50118 0.0
C218 C 0.87548 0.95821 0.55359 0.0
O219 O 0.85597 0.96092 0.55031 0.0
O220 O 0.87836 0.93717 0.55403 0.0
C221 C 0.79105 0.9604 0.52848 0.0
O222 O 0.79449 0.95408 0.50735 0.0
C223 C 0.82821 0.8985 0.58329 0.0
Zn224 Zn 0.92717 0.00764 0.17252 0.0
Zn225 Zn 0.90633 0.04139 0.18227 0.0
O226 O 0.92951 0.04793 0.21212 0.0
O227 O 0.94816 0.02172 0.20411 0.0
O228 O 0.88975 0.06619 0.18683 0.0
O229 O 0.93389 0.02178 0.14292 0.0
O230 O 0.92017 0.05149 0.15414 0.0
C231 C 0.94539 0.03861 0.21797 0.0
C232 C 0.88317 0.98653 0.1775 0.0
O233 O 0.88334 0.00885 0.18075 0.0
O234 O 0.89997 0.98075 0.17268 0.0
C235 C 0.87957 0.06693 0.2038 0.0
O236 O 0.87976 0.05085 0.21867 0.0
C237 C 0.93022 0.04218 0.14022 0.0
Zn238 Zn 0.27344 0.75587 0.51788 0.0
Zn239 Zn 0.29888 0.72737 0.51994 0.0
O240 O 0.30291 0.74509 0.48964 0.0
O241 O 0.28353 0.77175 0.49088 0.0
O242 O 0.32172 0.7077 0.52128 0.0
O243 O 0.28466 0.77141 0.55141 0.0
O244 O 0.30697 0.74774 0.55412 0.0
C245 C 0.29601 0.76218 0.48078 0.0
C246 C 0.24915 0.70546 0.51134 0.0
O247 O 0.26832 0.70193 0.51509 0.0
O248 O 0.24717 0.72687 0.51101 0.0
C249 C 0.31962 0.68923 0.50627 0.0
O250 O 0.30186 0.68211 0.48954 0.0
C251 C 0.29936 0.76398 0.56374 0.0
Zn252 Zn 0.42628 0.50215 0.66949 0.0
Zn253 Zn 0.40819 0.53782 0.68209 0.0
O254 O 0.43103 0.54079 0.71164 0.0
O255 O 0.44692 0.51242 0.70178 0.0
O256 O 0.39353 0.56408 0.68849 0.0
O257 O 0.43454 0.51828 0.64132 0.0
O258 O 0.42241 0.54859 0.65442 0.0
C259 C 0.44538 0.52919 0.71672 0.0
C260 C 0.38173 0.48377 0.67399 0.0
O261 O 0.38357 0.50636 0.67904 0.0
O262 O 0.3976 0.47686 0.66795 0.0
C263 C 0.38307 0.56472 0.70525 0.0
O264 O 0.38179 0.5476 0.71909 0.0
C265 C 0.43198 0.53936 0.63991 0.0
Zn266 Zn 0.59654 0.99739 0.73867 0.0
Zn267 Zn 0.62535 0.97301 0.73516 0.0
O268 O 0.60811 0.95878 0.76081 0.0
O269 O 0.58195 0.97744 0.76052 0.0
O270 O 0.64869 0.95453 0.73691 0.0
O271 O 0.58482 0.9895 0.70416 0.0
O272 O 0.6092 0.96905 0.69972 0.0
C273 C 0.59128 0.96196 0.76845 0.0
C274 C 0.6401 0.02789 0.75121 0.0
O275 O 0.64435 0.008 0.74499 0.0
O276 O 0.62041 0.02832 0.75121 0.0
C277 C 0.6614 0.95831 0.75713 0.0
O278 O 0.65814 0.97308 0.77402 0.0
C279 C 0.59325 0.97737 0.69086 0.0
Zn280 Zn 0.75349 0.75235 0.0077 0.0
Zn281 Zn 0.78011 0.72401 0.0079 0.0
O282 O 0.78464 0.74457 0.97929 0.0
O283 O 0.76188 0.76767 0.97956 0.0
O284 O 0.8034 0.70451 0.0085 0.0
O285 O 0.76721 0.76806 0.04115 0.0
O286 O 0.78817 0.74287 0.0424 0.0
C287 C 0.77615 0.76057 0.97026 0.0
C288 C 0.73 0.70153 1.00172 0.0
O289 O 0.74927 0.69832 0.0032 0.0
O290 O 0.72766 0.72287 0.00275 0.0
C291 C 0.81156 0.69955 0.9906 0.0
O292 O 0.8042 0.70617 0.97028 0.0
C293 C 0.7816 0.75958 0.05273 0.0
Zn294 Zn 1.00576 0.6671 0.8122 0.0
Zn295 Zn 0.97567 0.68962 0.81371 0.0
O296 O 0.99148 0.69445 0.84954 0.0
O297 O 0.01759 0.67616 0.84642 0.0
O298 O 0.95164 0.70727 0.81154 0.0
O299 O 0.02006 0.68651 0.78997 0.0
O300 O 0.99296 0.70393 0.788 0.0
C301 C 0.00813 0.68761 0.85908 0.0
C302 C 0.96306 0.63459 0.7992 0.0
O303 O 0.9577 0.65414 0.80399 0.0
O304 O 0.98314 0.63514 0.80057 0.0
C305 C 0.93765 0.70205 0.79211 0.0
O306 O 0.93985 0.68617 0.77552 0.0
C307 C 0.01029 0.70123 0.78114 0.0
Zn308 Zn 0.8393 0.40847 0.53107 0.0
Zn309 Zn 0.81465 0.43779 0.52922 0.0
O310 O 0.80714 0.41854 0.49453 0.0
O311 O 0.82862 0.39397 0.49712 0.0
O312 O 0.79205 0.45777 0.52802 0.0
O313 O 0.82833 0.3919 0.55738 0.0
O314 O 0.80971 0.41925 0.55891 0.0
C315 C 0.81459 0.40226 0.48471 0.0
C316 C 0.86447 0.45875 0.53912 0.0
O317 O 0.84551 0.46282 0.53513 0.0
O318 O 0.86595 0.43712 0.53905 0.0
C319 C 0.79391 0.47579 0.54348 0.0
O320 O 0.81138 0.48239 0.5606 0.0
C321 C 0.81597 0.40166 0.56747 0.0
Zn322 Zn 0.68668 0.65603 0.38376 0.0
Zn323 Zn 0.70574 0.62149 0.37076 0.0
O324 O 0.69223 0.60997 0.39874 0.0
O325 O 0.68022 0.64009 0.41253 0.0
O326 O 0.72082 0.59592 0.36308 0.0
O327 O 0.66483 0.64476 0.35232 0.0
O328 O 0.6823 0.61822 0.34169 0.0
C329 C 0.68304 0.6191 0.41373 0.0
C330 C 0.7308 0.67592 0.37822 0.0
O331 O 0.72976 0.65347 0.37359 0.0
O332 O 0.71455 0.68213 0.3841 0.0
C333 C 0.73798 0.5946 0.377 0.0
O334 O 0.74583 0.61042 0.39625 0.0
C335 C 0.66695 0.62861 0.33712 0.0
Pr336 Pr 0.02951 0.06815 0.01625 0.0
Pr337 Pr 0.08067 0.09476 0.03604 0.0
C338 C 0.98516 0.05813 0.00755 0.0
C339 C 0.9683 0.07182 0.00634 0.0
C340 C 0.947 0.06034 0.00917 0.0
C341 C 0.93116 0.07338 0.00938 0.0
C342 C 0.93627 0.09828 0.00679 0.0
C343 C 0.95762 0.1096 0.00357 0.0
C344 C 0.97347 0.09653 0.00349 0.0
C345 C 0.05845 0.06 0.9879 0.0
C346 C 0.05105 0.12729 0.0097 0.0
C347 C 0.12502 0.10469 0.04482 0.0
C348 C 0.14193 0.09106 0.04578 0.0
C349 C 0.13692 0.06633 0.0486 0.0
C350 C 0.15283 0.05335 0.04822 0.0
C351 C 0.17404 0.06476 0.04466 0.0
C352 C 0.179 0.08968 0.04217 0.0
C353 C 0.16314 0.10264 0.04275 0.0
C354 C 0.05168 0.10289 0.0643 0.0
C355 C 0.05894 0.03572 0.04287 0.0
O356 O 0.99705 0.0591 0.02855 0.0
O357 O 0.99669 0.05954 0.99074 0.0
O358 O 0.05943 0.07991 0.99954 0.0
O359 O 0.04073 0.04318 0.98874 0.0
O360 O 0.07146 0.12594 0.01667 0.0
O361 O 0.03367 0.10929 0.01052 0.0
O362 O 0.11317 0.10406 0.02387 0.0
O363 O 0.11345 0.10297 0.06158 0.0
O364 O 0.05079 0.08303 0.05267 0.0
O365 O 0.06951 0.11966 0.06373 0.0
O366 O 0.03859 0.03721 0.03596 0.0
O367 O 0.0764 0.05357 0.04187 0.0
H368 H 0.94267 0.0413 0.0115 0.0
H369 H 0.91485 0.06389 0.0115 0.0
H370 H 0.96235 0.12878 1.00188 0.0
H371 H 0.98989 0.10585 1.00168 0.0
H372 H 0.12059 0.05693 0.05061 0.0
H373 H 0.14822 0.03416 0.04988 0.0
H374 H 0.19521 0.09925 0.03982 0.0
H375 H 0.16736 0.1217 0.04047 0.0
Pr376 Pr 0.32172 0.85498 0.28493 0.0
Pr377 Pr 0.2903 0.80715 0.26097 0.0
C378 C 0.35293 0.8933 0.30996 0.0
C379 C 0.3616 0.91891 0.30724 0.0
C380 C 0.36612 0.93678 0.32684 0.0
C381 C 0.37452 0.9612 0.32457 0.0
C382 C 0.3787 0.96812 0.30267 0.0
C383 C 0.37377 0.95013 0.28296 0.0
C384 C 0.36517 0.92576 0.28519 0.0
C385 C 0.27874 0.85813 0.26994 0.0
C386 C 0.30877 0.84976 0.22772 0.0
C387 C 0.25936 0.76866 0.23591 0.0
C388 C 0.25092 0.743 0.23866 0.0
C389 C 0.24738 0.72506 0.21932 0.0
C390 C 0.23913 0.70061 0.22159 0.0
C391 C 0.2341 0.69373 0.24322 0.0
C392 C 0.23813 0.71179 0.26271 0.0
C393 C 0.2466 0.73619 0.26049 0.0
C394 C 0.33313 0.8039 0.2764 0.0
C395 C 0.30297 0.81256 0.31821 0.0
O396 O 0.35702 0.87728 0.29508 0.0
O397 O 0.33291 0.88706 0.314 0.0
O398 O 0.28372 0.84073 0.2796 0.0
O399 O 0.29616 0.87512 0.26911 0.0
O400 O 0.2926 0.83121 0.23002 0.0
O401 O 0.32476 0.86048 0.24588 0.0
O402 O 0.25508 0.78461 0.25072 0.0
O403 O 0.27936 0.77512 0.23187 0.0
O404 O 0.32833 0.82129 0.26652 0.0
O405 O 0.31563 0.78698 0.27711 0.0
O406 O 0.31921 0.83105 0.31595 0.0
O407 O 0.28704 0.80181 0.3 0.0
H408 H 0.36321 0.93182 0.34392 0.0
H409 H 0.37776 0.97465 0.33999 0.0
H410 H 0.37703 0.95478 0.26592 0.0
H411 H 0.36154 0.91227 0.26972 0.0
H412 H 0.2509 0.72998 0.20243 0.0
H413 H 0.23656 0.68711 0.20635 0.0
H414 H 0.23418 0.70718 0.27952 0.0
H415 H 0.24947 0.74972 0.27579 0.0
Pr416 Pr 0.58015 0.08725 0.53118 0.0
Pr417 Pr 0.52888 0.07453 0.51658 0.0
C418 C 0.62285 0.08731 0.54393 0.0
C419 C 0.63867 0.0724 0.54211 0.0
C420 C 0.65624 0.08056 0.53056 0.0
C421 C 0.67218 0.0678 0.52963 0.0
C422 C 0.67114 0.04653 0.54039 0.0
C423 C 0.65332 0.03812 0.55168 0.0
C424 C 0.63729 0.05091 0.55256 0.0
C425 C 0.56393 0.11326 0.49718 0.0
C426 C 0.5522 0.03651 0.49369 0.0
C427 C 0.48616 0.07431 0.50373 0.0
C428 C 0.47027 0.0892 0.505 0.0
C429 C 0.45132 0.07992 0.51408 0.0
C430 C 0.4354 0.09278 0.51457 0.0
C431 C 0.43793 0.11532 0.50591 0.0
C432 C 0.45705 0.12474 0.49694 0.0
C433 C 0.47306 0.11184 0.49651 0.0
C434 C 0.54522 0.04862 0.55067 0.0
C435 C 0.55687 0.12528 0.55403 0.0
O436 O 0.60842 0.0815 0.55753 0.0
O437 O 0.61503 0.09521 0.52463 0.0
O438 O 0.55656 0.09074 0.49758 0.0
O439 O 0.58107 0.12284 0.51385 0.0
O440 O 0.53461 0.04488 0.48996 0.0
O441 O 0.56996 0.04808 0.50963 0.0
O442 O 0.50053 0.07972 0.49 0.0
O443 O 0.49407 0.06704 0.52336 0.0
O444 O 0.55245 0.07114 0.55021 0.0
O445 O 0.5281 0.03894 0.534 0.0
O446 O 0.57438 0.11677 0.55788 0.0
O447 O 0.53916 0.1138 0.53797 0.0
H448 H 0.65779 0.09707 0.5224 0.0
H449 H 0.68534 0.07465 0.52038 0.0
H450 H 0.65201 0.02195 0.56033 0.0
H451 H 0.62401 0.04413 0.56169 0.0
H452 H 0.44864 0.06243 0.52054 0.0
H453 H 0.4208 0.08471 0.52125 0.0
H454 H 0.45969 0.14213 0.49032 0.0
H455 H 0.48751 0.11953 0.4894 0.0
Pr456 Pr 0.27823 0.31956 0.77263 0.0
Pr457 Pr 0.32915 0.34418 0.7798 0.0
C458 C 0.23712 0.29609 0.77686 0.0
C459 C 0.21857 0.3004 0.78748 0.0
C460 C 0.20407 0.31267 0.77619 0.0
C461 C 0.18614 0.31583 0.78584 0.0
C462 C 0.1822 0.30676 0.807 0.0
C463 C 0.19675 0.29457 0.81833 0.0
C464 C 0.21464 0.29134 0.80863 0.0
C465 C 0.28942 0.36438 0.75609 0.0
C466 C 0.30527 0.35488 0.82388 0.0
C467 C 0.37025 0.3678 0.77555 0.0
C468 C 0.38891 0.36415 0.76487 0.0
C469 C 0.3984 0.34499 0.76964 0.0
C470 C 0.41679 0.34271 0.76037 0.0
C471 C 0.42612 0.3595 0.74607 0.0
C472 C 0.4163 0.37839 0.74099 0.0
C473 C 0.39795 0.38069 0.75031 0.0
C474 C 0.31777 0.29929 0.79633 0.0
C475 C 0.30188 0.30933 0.72838 0.0
O476 O 0.25483 0.29497 0.79132 0.0
O477 O 0.2415 0.3071 0.75865 0.0
O478 O 0.29896 0.3591 0.77507 0.0
O479 O 0.27212 0.34702 0.74627 0.0
O480 O 0.32187 0.36417 0.81353 0.0
O481 O 0.2884 0.33678 0.81274 0.0
O482 O 0.35255 0.36893 0.76113 0.0
O483 O 0.36594 0.35628 0.79349 0.0
O484 O 0.30842 0.30464 0.77729 0.0
O485 O 0.33503 0.31666 0.80628 0.0
O486 O 0.28551 0.2997 0.73889 0.0
O487 O 0.31871 0.32746 0.73953 0.0
H488 H 0.20646 0.31977 0.75978 0.0
H489 H 0.17543 0.32553 0.77677 0.0
H490 H 0.19406 0.28706 0.83448 0.0
H491 H 0.22529 0.2815 0.81758 0.0
H492 H 0.39182 0.33192 0.7808 0.0
H493 H 0.424 0.32809 0.76489 0.0
H494 H 0.42276 0.39142 0.72974 0.0
H495 H 0.39093 0.3956 0.74632 0.0
Pr496 Pr 0.0492 0.06104 0.50292 0.0
Pr497 Pr 0.06711 0.0895 0.5502 0.0
C498 C 0.02479 0.03779 0.46105 0.0
C499 C 0.01977 0.04156 0.43629 0.0
C500 C 0.01203 0.02126 0.41892 0.0
C501 C 1.00647 0.02422 0.39523 0.0
C502 C 0.0085 0.04757 0.38856 0.0
C503 C 0.01681 0.06798 0.406 0.0
C504 C 0.02242 0.06499 0.42977 0.0
C505 C 0.09463 0.08296 0.50981 0.0
C506 C 0.05142 0.12005 0.50861 0.0
C507 C 0.09159 0.11249 0.59205 0.0
C508 C 0.09598 0.10898 0.61705 0.0
C509 C 0.07883 0.10151 0.62935 0.0
C510 C 0.08361 0.09979 0.65352 0.0
C511 C 0.10557 0.10543 0.66564 0.0
C512 C 0.12262 0.11202 0.65301 0.0
C513 C 0.11785 0.11389 0.62895 0.0
C514 C 0.02166 0.06852 0.54311 0.0
C515 C 0.06471 0.03029 0.54469 0.0
O516 O 0.01732 0.0503 0.47619 0.0
O517 O 0.04468 0.03615 0.46892 0.0
O518 O 0.08054 0.09277 0.51604 0.0
O519 O 0.08528 0.06128 0.49864 0.0
O520 O 0.06545 0.12178 0.52856 0.0
O521 O 0.04079 0.09844 0.49667 0.0
O522 O 0.09884 0.0992 0.57736 0.0
O523 O 0.07228 0.11542 0.58347 0.0
O524 O 0.03548 0.05808 0.53706 0.0
O525 O 0.03132 0.0902 0.55415 0.0
O526 O 0.05159 0.02852 0.52408 0.0
O527 O 0.07459 0.05185 0.55711 0.0
H528 H 0.0101 0.00309 0.42372 0.0
H529 H 1.00049 0.00819 0.3821 0.0
H530 H 0.01843 0.08616 0.40133 0.0
H531 H 0.02854 0.08087 0.44306 0.0
H532 H 0.06179 0.09743 0.62044 0.0
H533 H 0.07015 0.09477 0.66283 0.0
H534 H 0.1397 0.11596 0.66177 0.0
H535 H 0.13127 0.1195 0.61969 0.0
Pr536 Pr 0.29726 0.8036 0.77125 0.0
Pr537 Pr 0.32045 0.86365 0.77485 0.0
C538 C 0.28333 0.75546 0.75751 0.0
C539 C 0.29231 0.73666 0.74747 0.0
C540 C 0.28072 0.7122 0.74553 0.0
C541 C 0.29016 0.69397 0.73839 0.0
C542 C 0.31139 0.69999 0.73316 0.0
C543 C 0.32266 0.72464 0.7344 0.0
C544 C 0.31319 0.74285 0.74155 0.0
C545 C 0.29135 0.83026 0.81207 0.0
C546 C 0.35076 0.82727 0.79528 0.0
C547 C 0.33363 0.91137 0.79061 0.0
C548 C 0.3246 0.92788 0.80419 0.0
C549 C 0.33466 0.95288 0.80787 0.0
C550 C 0.32536 0.96876 0.81974 0.0
C551 C 0.30591 0.95981 0.82823 0.0
C552 C 0.29624 0.93458 0.82497 0.0
C553 C 0.30539 0.91879 0.81283 0.0
C554 C 0.32634 0.83739 0.73392 0.0
C555 C 0.26706 0.83955 0.75004 0.0
O556 O 0.27901 0.77134 0.7437 0.0
O557 O 0.29285 0.76513 0.77928 0.0
O558 O 0.30089 0.83795 0.79586 0.0
O559 O 0.28336 0.80686 0.8069 0.0
O560 O 0.34817 0.84957 0.79633 0.0
O561 O 0.33509 0.80779 0.78429 0.0
O562 O 0.3406 0.89519 0.8022 0.0
O563 O 0.32226 0.90251 0.76924 0.0
O564 O 0.31694 0.82941 0.75016 0.0
O565 O 0.334 0.86088 0.73904 0.0
O566 O 0.26976 0.81732 0.74915 0.0
O567 O 0.28252 0.85909 0.76132 0.0
H568 H 0.26464 0.70718 0.75021 0.0
H569 H 0.28119 0.67517 0.73786 0.0
H570 H 0.33892 0.72982 0.7302 0.0
H571 H 0.32237 0.76172 0.74306 0.0
H572 H 0.34944 0.96015 0.80115 0.0
H573 H 0.33304 0.9881 0.8216 0.0
H574 H 0.28145 0.92705 0.83155 0.0
H575 H 0.29729 0.89951 0.80986 0.0
Pr576 Pr 0.56446 0.08364 0.05831 0.0
Pr577 Pr 0.54912 0.0786 0.99889 0.0
C578 C 0.57424 0.10188 0.10426 0.0
C579 C 0.56708 0.11931 0.11901 0.0
C580 C 0.57911 0.1285 0.14189 0.0
C581 C 0.57202 0.14443 0.15642 0.0
C582 C 0.55285 0.15147 0.14821 0.0
C583 C 0.54109 0.1427 0.12505 0.0
C584 C 0.54818 0.1267 0.11051 0.0
C585 C 0.56591 0.03877 0.03494 0.0
C586 C 0.51117 0.06442 0.0322 0.0
C587 C 0.53944 0.05799 0.95378 0.0
C588 C 0.54689 0.03912 0.94121 0.0
C589 C 0.56875 0.03779 0.94712 0.0
C590 C 0.57588 0.02038 0.93448 0.0
C591 C 0.56114 0.00374 0.91614 0.0
C592 C 0.53901 0.00423 0.91111 0.0
C593 C 0.53195 0.02189 0.92352 0.0
C594 C 0.54816 0.12373 0.02203 0.0
C595 C 0.60232 0.09838 0.02502 0.0
O596 O 0.58583 0.11098 0.08891 0.0
O597 O 0.55948 0.08124 0.0958 0.0
O598 O 0.56052 0.05628 0.02636 0.0
O599 O 0.57159 0.04447 0.05785 0.0
O600 O 0.51651 0.06128 0.01122 0.0
O601 O 0.52581 0.07516 0.05166 0.0
O602 O 0.52718 0.05056 0.96912 0.0
O603 O 0.5541 0.07897 0.96122 0.0
O604 O 0.55325 0.10612 0.03078 0.0
O605 O 0.54252 0.118 0.99908 0.0
O606 O 0.59702 0.10161 0.04603 0.0
O607 O 0.58771 0.08731 0.00565 0.0
H608 H 0.59379 0.12306 0.14863 0.0
H609 H 0.58133 0.15101 0.17424 0.0
H610 H 0.52607 0.14756 0.11855 0.0
H611 H 0.53876 0.11981 0.09278 0.0
H612 H 0.58046 0.05058 0.9611 0.0
H613 H 0.59305 0.02039 0.93847 0.0
H614 H 0.52747 0.99175 0.89678 0.0
H615 H 0.51495 0.0224 0.919 0.0
Pr616 Pr 0.27843 0.31404 0.27579 0.0
Pr617 Pr 0.32206 0.35307 0.27803 0.0
C618 C 0.24246 0.2818 0.28363 0.0
C619 C 0.22421 0.28465 0.29534 0.0
C620 C 0.20874 0.26429 0.29967 0.0
C621 C 0.19117 0.26715 0.31027 0.0
C622 C 0.18869 0.29047 0.31664 0.0
C623 C 0.20446 0.31082 0.3125 0.0
C624 C 0.22202 0.30792 0.30204 0.0
C625 C 0.28661 0.32747 0.23171 0.0
C626 C 0.2764 0.3703 0.2788 0.0
C627 C 0.35772 0.38564 0.27007 0.0
C628 C 0.37572 0.38287 0.25801 0.0
C629 C 0.39282 0.40307 0.25651 0.0
C630 C 0.41012 0.40012 0.2455 0.0
C631 C 0.41057 0.37689 0.23575 0.0
C632 C 0.39325 0.35676 0.23721 0.0
C633 C 0.37605 0.35974 0.24822 0.0
C634 C 0.3142 0.33941 0.32205 0.0
C635 C 0.32412 0.29675 0.27505 0.0
O636 O 0.26184 0.28629 0.29737 0.0
O637 O 0.24325 0.29103 0.26379 0.0
O638 O 0.30063 0.32394 0.24822 0.0
O639 O 0.26722 0.32241 0.23705 0.0
O640 O 0.29569 0.37552 0.27227 0.0
O641 O 0.26859 0.3493 0.28605 0.0
O642 O 0.33823 0.3811 0.25654 0.0
O643 O 0.35722 0.37621 0.28984 0.0
O644 O 0.30005 0.34304 0.30571 0.0
O645 O 0.33354 0.34471 0.31661 0.0
O646 O 0.30475 0.29147 0.28145 0.0
O647 O 0.33202 0.31782 0.26794 0.0
H648 H 0.21013 0.24616 0.29468 0.0
H649 H 0.17927 0.25107 0.31303 0.0
H650 H 0.20331 0.32905 0.31749 0.0
H651 H 0.23387 0.32388 0.29909 0.0
H652 H 0.39285 0.42109 0.26395 0.0
H653 H 0.42309 0.41604 0.24453 0.0
H654 H 0.39318 0.33857 0.23027 0.0
H655 H 0.36303 0.34391 0.24917 0.0
Pr656 Pr 0.54051 0.55879 1.0012 0.0
Pr657 Pr 0.56672 0.59118 0.05395 0.0
C658 C 0.51011 0.53248 0.96456 0.0
C659 C 0.50573 0.53292 0.93898 0.0
C660 C 0.51339 0.55446 0.92955 0.0
C661 C 0.50942 0.5547 0.90512 0.0
C662 C 0.49789 0.53334 0.88976 0.0
C663 C 0.49053 0.51173 0.89935 0.0
C664 C 0.49441 0.51155 0.92381 0.0
C665 C 0.58544 0.58068 0.00232 0.0
C666 C 0.54896 0.61918 0.00848 0.0
C667 C 0.59703 0.61802 0.09038 0.0
C668 C 0.60066 0.61999 0.11621 0.0
C669 C 0.58285 0.61409 0.12783 0.0
C670 C 0.58657 0.61544 0.15246 0.0
C671 C 0.60816 0.62251 0.16576 0.0
C672 C 0.62592 0.6283 0.15393 0.0
C673 C 0.62217 0.62711 0.12935 0.0
C674 C 0.5217 0.56969 0.05295 0.0
C675 C 0.5594 0.53086 0.04619 0.0
O676 O 0.50712 0.55086 0.97757 0.0
O677 O 0.52795 0.52615 0.97301 0.0
O678 O 0.57472 0.58084 0.01857 0.0
O679 O 0.5723 0.5676 0.98345 0.0
O680 O 0.56262 0.62066 0.02889 0.0
O681 O 0.53692 0.5981 0.99614 0.0
O682 O 0.59913 0.59793 0.07945 0.0
O683 O 0.58029 0.62525 0.08005 0.0
O684 O 0.53239 0.56901 0.0367 0.0
O685 O 0.53487 0.58317 0.0716 0.0
O686 O 0.54592 0.52908 0.02558 0.0
O687 O 0.57066 0.55203 0.05891 0.0
H688 H 0.52237 0.5711 0.94109 0.0
H689 H 0.51506 0.57168 0.89829 0.0
H690 H 0.4819 0.49491 0.88795 0.0
H691 H 0.48864 0.49474 0.93087 0.0
H692 H 0.56609 0.60835 0.11788 0.0
H693 H 0.57257 0.61104 0.16106 0.0
H694 H 0.64276 0.63333 0.16363 0.0
H695 H 0.63607 0.63147 0.12056 0.0
Pr696 Pr 0.79608 0.30567 0.27292 0.0
Pr697 Pr 0.81981 0.36549 0.27636 0.0
C698 C 0.78118 0.25763 0.25889 0.0
C699 C 0.78954 0.23864 0.24821 0.0
C700 C 0.7779 0.21425 0.24671 0.0
C701 C 0.78686 0.19585 0.23893 0.0
C702 C 0.80765 0.20163 0.23258 0.0
C703 C 0.81891 0.2262 0.23336 0.0
C704 C 0.80994 0.24458 0.2412 0.0
C705 C 0.7905 0.33252 0.31381 0.0
C706 C 0.84977 0.32849 0.29631 0.0
C707 C 0.83465 0.41317 0.29213 0.0
C708 C 0.82679 0.43115 0.30526 0.0
C709 C 0.84026 0.45484 0.31217 0.0
C710 C 0.83236 0.47248 0.32339 0.0
C711 C 0.81082 0.46665 0.32782 0.0
C712 C 0.79764 0.44258 0.32152 0.0
C713 C 0.80557 0.42497 0.3103 0.0
C714 C 0.82527 0.33888 0.23538 0.0
C715 C 0.76631 0.34222 0.2519 0.0
O716 O 0.77684 0.27378 0.24541 0.0
O717 O 0.79127 0.26704 0.28057 0.0
O718 O 0.80001 0.34017 0.29755 0.0
O719 O 0.78253 0.30912 0.3087 0.0
O720 O 0.84743 0.35088 0.29739 0.0
O721 O 0.83384 0.30913 0.28555 0.0
O722 O 0.84035 0.39655 0.30407 0.0
O723 O 0.82329 0.40457 0.2707 0.0
O724 O 0.81588 0.3311 0.25168 0.0
O725 O 0.83311 0.36234 0.24041 0.0
O726 O 0.76882 0.31992 0.25101 0.0
O727 O 0.78195 0.36169 0.26305 0.0
H728 H 0.76219 0.20943 0.25225 0.0
H729 H 0.77792 0.17711 0.23879 0.0
H730 H 0.83482 0.23121 0.22829 0.0
H731 H 0.81917 0.2634 0.24238 0.0
H732 H 0.85675 0.45979 0.30851 0.0
H733 H 0.84302 0.49076 0.32836 0.0
H734 H 0.78092 0.43755 0.32447 0.0
H735 H 0.79499 0.40666 0.30509 0.0
Pr736 Pr 0.06586 0.58402 0.55583 0.0
Pr737 Pr 0.04954 0.57747 0.49628 0.0
C738 C 0.07527 0.60478 0.60088 0.0
C739 C 0.06638 0.62217 0.61375 0.0
C740 C 0.04367 0.62016 0.60945 0.0
C741 C 0.03532 0.63633 0.62219 0.0
C742 C 0.04956 0.6551 0.639 0.0
C743 C 0.07234 0.65777 0.64255 0.0
C744 C 0.08068 0.64133 0.63006 0.0
C745 C 0.06737 0.53887 0.53323 0.0
C746 C 0.0124 0.56338 0.53054 0.0
C747 C 0.03951 0.5562 0.45137 0.0
C748 C 0.04709 0.53748 0.43875 0.0
C749 C 0.06916 0.53675 0.44416 0.0
C750 C 0.07641 0.51957 0.43134 0.0
C751 C 0.06161 0.50258 0.41332 0.0
C752 C 0.03931 0.50244 0.40884 0.0
C753 C 0.03212 0.51986 0.42142 0.0
C754 C 0.04812 0.62263 0.51892 0.0
C755 C 0.10308 0.598 0.52166 0.0
O756 O 0.08659 0.61342 0.58515 0.0
O757 O 0.06207 0.58288 0.59381 0.0
O758 O 0.06173 0.5561 0.5243 0.0
O759 O 0.07336 0.54507 0.55611 0.0
O760 O 0.01741 0.55988 0.50942 0.0
O761 O 0.0272 0.57472 0.54967 0.0
O762 O 0.02765 0.54874 0.46705 0.0
O763 O 0.05392 0.57742 0.45839 0.0
O764 O 0.0538 0.60537 0.52773 0.0
O765 O 0.04199 0.61649 0.49605 0.0
O766 O 0.09815 0.60128 0.54285 0.0
O767 O 0.08822 0.5869 0.50246 0.0
H768 H 0.03232 0.60583 0.59657 0.0
H769 H 0.01769 0.63393 0.61928 0.0
H770 H 0.08357 0.67196 0.65566 0.0
H771 H 0.09826 0.64338 0.63336 0.0
H772 H 0.08092 0.54984 0.45785 0.0
H773 H 0.0937 0.52006 0.4349 0.0
H774 H 0.02771 0.48968 0.39476 0.0
H775 H 0.01497 0.51991 0.41729 0.0
Pr776 Pr 0.78052 0.81849 0.27359 0.0
Pr777 Pr 0.83139 0.84368 0.28035 0.0
C778 C 0.73958 0.79422 0.27773 0.0
C779 C 0.72132 0.79809 0.28872 0.0
C780 C 0.72408 0.81867 0.30512 0.0
C781 C 0.7063 0.82231 0.31486 0.0
C782 C 0.68542 0.80545 0.30832 0.0
C783 C 0.68291 0.78475 0.29203 0.0
C784 C 0.70067 0.78114 0.28235 0.0
C785 C 0.79138 0.86338 0.25704 0.0
C786 C 0.80769 0.85365 0.32479 0.0
C787 C 0.8721 0.86807 0.27562 0.0
C788 C 0.8904 0.86525 0.26386 0.0
C789 C 0.90027 0.84614 0.26731 0.0
C790 C 0.91834 0.84467 0.25706 0.0
C791 C 0.92687 0.86218 0.24303 0.0
C792 C 0.91667 0.88102 0.23925 0.0
C793 C 0.89871 0.88257 0.24963 0.0
C794 C 0.82064 0.79891 0.2971 0.0
C795 C 0.80409 0.80801 0.22935 0.0
O796 O 0.75745 0.79331 0.29203 0.0
O797 O 0.74365 0.8063 0.26009 0.0
O798 O 0.80094 0.85812 0.276 0.0
O799 O 0.77426 0.84584 0.24707 0.0
O800 O 0.82418 0.86317 0.31438 0.0
O801 O 0.79085 0.83551 0.31368 0.0
O802 O 0.85411 0.86977 0.26212 0.0
O803 O 0.86832 0.85548 0.29304 0.0
O804 O 0.81103 0.80407 0.2781 0.0
O805 O 0.83782 0.81645 0.30692 0.0
O806 O 0.7878 0.79851 0.23999 0.0
O807 O 0.8209 0.82632 0.24024 0.0
H808 H 0.73991 0.83201 0.31021 0.0
H809 H 0.7088 0.83855 0.32717 0.0
H810 H 0.66721 0.7712 0.28688 0.0
H811 H 0.69825 0.76509 0.26978 0.0
H812 H 0.89419 0.83242 0.2781 0.0
H813 H 0.92561 0.82975 0.26008 0.0
H814 H 0.92294 0.89496 0.22876 0.0
H815 H 0.8915 0.89757 0.24683 0.0
Pr816 Pr 0.81929 0.35496 0.7865 0.0
Pr817 Pr 0.78762 0.30725 0.76235 0.0
C818 C 0.85055 0.39306 0.81195 0.0
C819 C 0.85746 0.41915 0.81081 0.0
C820 C 0.84414 0.43019 0.79608 0.0
C821 C 0.85141 0.45485 0.79404 0.0
C822 C 0.87215 0.46875 0.80663 0.0
C823 C 0.88528 0.45756 0.82156 0.0
C824 C 0.87797 0.43294 0.82363 0.0
C825 C 0.77631 0.35834 0.77186 0.0
C826 C 0.80639 0.34983 0.72923 0.0
C827 C 0.75641 0.26886 0.73749 0.0
C828 C 0.7483 0.24316 0.74026 0.0
C829 C 0.74384 0.22533 0.72063 0.0
C830 C 0.73613 0.20082 0.72301 0.0
C831 C 0.73258 0.19375 0.74506 0.0
C832 C 0.73746 0.21172 0.76478 0.0
C833 C 0.74538 0.23619 0.76244 0.0
C834 C 0.83038 0.30366 0.77759 0.0
C835 C 0.80099 0.31222 0.81954 0.0
O836 O 0.85406 0.3792 0.79465 0.0
O837 O 0.8313 0.38488 0.81748 0.0
O838 O 0.7813 0.34084 0.78129 0.0
O839 O 0.79374 0.37538 0.7712 0.0
O840 O 0.79005 0.33142 0.73145 0.0
O841 O 0.82238 0.36039 0.74745 0.0
O842 O 0.75237 0.28467 0.75266 0.0
O843 O 0.77623 0.27548 0.73296 0.0
O844 O 0.82567 0.32122 0.76795 0.0
O845 O 0.81283 0.28668 0.778 0.0
O846 O 0.81737 0.33048 0.81713 0.0
O847 O 0.78475 0.30185 0.80149 0.0
H848 H 0.82826 0.41966 0.78595 0.0
H849 H 0.84088 0.46299 0.78254 0.0
H850 H 0.90151 0.46767 0.83115 0.0
H851 H 0.88849 0.42456 0.83489 0.0
H852 H 0.74629 0.23039 0.70345 0.0
H853 H 0.73288 0.1874 0.70755 0.0
H854 H 0.73465 0.20697 0.78194 0.0
H855 H 0.749 0.24964 0.77793 0.0
Pr856 Pr 0.77787 0.81038 0.77192 0.0
Pr857 Pr 0.82135 0.85083 0.78087 0.0
C858 C 0.73778 0.78339 0.77552 0.0
C859 C 0.72022 0.78751 0.78793 0.0
C860 C 0.69876 0.78395 0.77506 0.0
C861 C 0.68204 0.78814 0.78636 0.0
C862 C 0.68635 0.79587 0.81088 0.0
C863 C 0.70789 0.79951 0.82375 0.0
C864 C 0.72465 0.79548 0.81241 0.0
C865 C 0.78969 0.82793 0.73089 0.0
C866 C 0.7777 0.86767 0.78623 0.0
C867 C 0.86084 0.87971 0.77747 0.0
C868 C 0.87974 0.87632 0.76729 0.0
C869 C 0.88467 0.85376 0.76587 0.0
C870 C 0.90175 0.8503 0.75485 0.0
C871 C 0.91427 0.86932 0.74501 0.0
C872 C 0.90948 0.89201 0.74677 0.0
C873 C 0.89231 0.89542 0.75771 0.0
C874 C 0.80949 0.83302 0.82185 0.0
C875 C 0.82138 0.79292 0.76689 0.0
O876 O 0.75608 0.78195 0.78862 0.0
O877 O 0.7411 0.7956 0.75778 0.0
O878 O 0.79146 0.84065 0.75041 0.0
O879 O 0.7806 0.80507 0.7317 0.0
O880 O 0.79702 0.87515 0.78024 0.0
O881 O 0.77002 0.84487 0.7895 0.0
O882 O 0.84274 0.8777 0.76223 0.0
O883 O 0.85732 0.86925 0.79621 0.0
O884 O 0.80785 0.82047 0.80229 0.0
O885 O 0.81847 0.85593 0.82113 0.0
O886 O 0.80166 0.7855 0.77203 0.0
O887 O 0.82999 0.81596 0.76488 0.0
H888 H 0.69491 0.77789 0.75619 0.0
H889 H 0.66561 0.78489 0.77594 0.0
H890 H 0.71187 0.80572 0.84259 0.0
H891 H 0.74107 0.79868 0.82284 0.0
H892 H 0.87524 0.83876 0.77317 0.0
H893 H 0.90529 0.83278 0.75418 0.0
H894 H 0.91871 0.90696 0.73924 0.0
H895 H 0.88866 0.91292 0.75845 0.0
Pr896 Pr 0.53084 0.56858 0.51567 0.0
Pr897 Pr 0.58193 0.59527 0.53545 0.0
C898 C 0.48649 0.55842 0.5071 0.0
C899 C 0.46966 0.57213 0.50589 0.0
C900 C 0.4482 0.5605 0.5081 0.0
C901 C 0.43234 0.57353 0.50823 0.0
C902 C 0.43761 0.59856 0.5062 0.0
C903 C 0.45914 0.61004 0.50366 0.0
C904 C 0.47499 0.59698 0.50363 0.0
C905 C 0.55976 0.56072 0.48721 0.0
C906 C 0.55225 0.62779 0.50927 0.0
C907 C 0.62628 0.60541 0.54421 0.0
C908 C 0.64319 0.5918 0.54541 0.0
C909 C 0.66473 0.60366 0.54367 0.0
C910 C 0.68066 0.59075 0.54342 0.0
C911 C 0.67543 0.56562 0.54495 0.0
C912 C 0.65384 0.5539 0.54714 0.0
C913 C 0.63788 0.56683 0.5472 0.0
C914 C 0.55293 0.60304 0.56385 0.0
C915 C 0.5604 0.53608 0.54195 0.0
O916 O 0.49844 0.55951 0.52809 0.0
O917 O 0.49796 0.55978 0.49025 0.0
O918 O 0.56068 0.58057 0.49892 0.0
O919 O 0.54213 0.54379 0.48809 0.0
O920 O 0.57266 0.62647 0.51621 0.0
O921 O 0.53489 0.60974 0.51006 0.0
O922 O 0.6144 0.60446 0.52321 0.0
O923 O 0.61473 0.60387 0.56099 0.0
O924 O 0.55212 0.58327 0.55211 0.0
O925 O 0.57072 0.61991 0.56333 0.0
O926 O 0.54003 0.53753 0.53511 0.0
O927 O 0.57781 0.55403 0.54105 0.0
H928 H 0.44375 0.54135 0.50999 0.0
H929 H 0.4159 0.56392 0.50982 0.0
H930 H 0.46399 0.62932 0.50242 0.0
H931 H 0.49153 0.60641 0.50232 0.0
H932 H 0.66917 0.6229 0.54218 0.0
H933 H 0.69714 0.60054 0.54213 0.0
H934 H 0.64902 0.53456 0.548 0.0
H935 H 0.62129 0.55723 0.54818 0.0
Pr936 Pr 0.07837 0.58714 0.02632 0.0
Pr937 Pr 0.02686 0.57522 0.01131 0.0
C938 C 0.12087 0.58662 0.03965 0.0
C939 C 0.13643 0.57119 0.03943 0.0
C940 C 0.13727 0.55704 0.01866 0.0
C941 C 0.1536 0.54458 0.01843 0.0
C942 C 0.16949 0.54594 0.03898 0.0
C943 C 0.16808 0.5595 0.0599 0.0
C944 C 0.15181 0.57197 0.06009 0.0
C945 C 0.06254 0.61326 0.99216 0.0
C946 C 0.04986 0.53635 0.98923 0.0
C947 C 0.98436 0.57575 0.99801 0.0
C948 C 0.96839 0.59057 0.99925 0.0
C949 C 0.94985 0.58162 0.00914 0.0
C950 C 0.93366 0.59416 0.0093 0.0
C951 C 0.93545 0.61602 0.99944 0.0
C952 C 0.95427 0.62526 0.98991 0.0
C953 C 0.97054 0.61267 0.98977 0.0
C954 C 0.04254 0.54919 0.04563 0.0
C955 C 0.05546 0.62584 0.04877 0.0
O956 O 0.10662 0.58243 0.05366 0.0
O957 O 0.11294 0.59296 0.01948 0.0
O958 O 0.05497 0.59082 0.99271 0.0
O959 O 0.07975 0.62275 0.00878 0.0
O960 O 0.03249 0.5451 0.98512 0.0
O961 O 0.06759 0.54775 0.00529 0.0
O962 O 0.99903 0.58139 0.98464 0.0
O963 O 0.99188 0.56796 0.01751 0.0
O964 O 0.0502 0.57161 0.04501 0.0
O965 O 0.02527 0.53975 0.02908 0.0
O966 O 0.07281 0.61707 0.05268 0.0
O967 O 0.03763 0.6145 0.03279 0.0
H968 H 0.12563 0.55603 0.00242 0.0
H969 H 0.15417 0.53451 1.00193 0.0
H970 H 0.17967 0.56063 0.0762 0.0
H971 H 0.15152 0.58268 0.07636 0.0
H972 H 0.94771 0.56464 0.01653 0.0
H973 H 0.91968 0.58665 0.01718 0.0
H974 H 0.95619 0.64192 0.98198 0.0
H975 H 0.98459 0.62006 0.98194 0.0
C976 C 0.01787 0.24775 0.97681 0.0
C977 C 0.02208 0.25388 0.95472 0.0
C978 C 0.02382 0.22795 0.98615 0.0
C979 C 0.034 0.21359 0.97298 0.0
C980 C 0.03854 0.21981 0.95079 0.0
C981 C 0.03269 0.23997 0.94202 0.0
C982 C 0.01889 0.22217 0.00998 0.0
C983 C 0.04909 0.2048 0.93605 0.0
C984 C 0.06346 0.17163 0.00502 0.0
C985 C 0.04713 0.14944 1.00012 0.0
C986 C 0.05951 0.19265 0.99623 0.0
C987 C 0.03883 0.19139 0.98195 0.0
C988 C 0.02244 0.16893 0.97668 0.0
C989 C 0.02677 0.14833 0.98584 0.0
C990 C 0.07732 0.21629 0.00253 0.0
C991 C 1.00024 0.16663 0.96138 0.0
H992 H 0.00984 0.25846 0.98688 0.0
H993 H 0.03599 0.2445 0.92493 0.0
H994 H 1.00681 0.20414 0.0079 0.0
H995 H 0.03407 0.22115 0.02189 0.0
H996 H 0.01212 0.23593 0.01862 0.0
H997 H 0.05227 0.21251 0.91959 0.0
H998 H 0.06489 0.20349 0.94645 0.0
H999 H 0.03822 0.18603 0.93112 0.0
H1000 H 0.07923 0.17269 0.01604 0.0
H1001 H 0.01419 0.1312 0.9815 0.0
H1002 H 0.07137 0.22997 0.01243 0.0
H1003 H 0.08136 0.22359 0.98619 0.0
H1004 H 0.0926 0.21421 0.01349 0.0
H1005 H 0.99177 0.17879 0.96974 0.0
H1006 H 0.98945 0.14776 0.95852 0.0
H1007 H 1.00236 0.17242 0.9439 0.0
C1008 C 0.15764 0.86174 0.2028 0.0
C1009 C 0.15775 0.85682 0.17863 0.0
C1010 C 0.17613 0.86221 0.22019 0.0
C1011 C 0.19498 0.85719 0.21325 0.0
C1012 C 0.19501 0.85188 0.1889 0.0
C1013 C 0.17656 0.85196 0.17198 0.0
C1014 C 0.17566 0.86841 0.24596 0.0
C1015 C 0.21462 0.84616 0.18063 0.0
C1016 C 0.25297 0.87965 0.24975 0.0
C1017 C 0.25629 0.8585 0.25848 0.0
C1018 C 0.23258 0.8799 0.23637 0.0
C1019 C 0.21516 0.85829 0.23109 0.0
C1020 C 0.21812 0.83714 0.24075 0.0
C1021 C 0.23858 0.83763 0.25464 0.0
C1022 C 0.23008 0.903 0.22689 0.0
C1023 C 0.20014 0.81361 0.23525 0.0
H1024 H 0.14321 0.8655 0.20811 0.0
H1025 H 0.17682 0.84786 0.1534 0.0
H1026 H 0.17877 0.85357 0.25598 0.0
H1027 H 0.18897 0.88506 0.25369 0.0
H1028 H 0.15967 0.87149 0.24851 0.0
H1029 H 0.21158 0.84119 0.16113 0.0
H1030 H 0.22917 0.86213 0.18582 0.0
H1031 H 0.21885 0.83092 0.18923 0.0
H1032 H 0.26652 0.89597 0.25287 0.0
H1033 H 0.24095 0.8214 0.26171 0.0
H1034 H 0.2145 0.90675 0.22994 0.0
H1035 H 0.22936 0.90088 0.20749 0.0
H1036 H 0.24399 0.91893 0.23519 0.0
H1037 H 0.18443 0.81662 0.23873 0.0
H1038 H 0.20428 0.79947 0.24578 0.0
H1039 H 0.19743 0.80663 0.21617 0.0
C1040 C 0.544 0.90029 0.43428 0.0
C1041 C 0.53417 0.88494 0.44936 0.0
C1042 C 0.54902 0.92574 0.43967 0.0
C1043 C 0.54422 0.93604 0.46066 0.0
C1044 C 0.53531 0.92063 0.47646 0.0
C1045 C 0.53035 0.89535 0.4706 0.0
C1046 C 0.55864 0.94157 0.42245 0.0
C1047 C 0.53025 0.93082 0.49923 0.0
C1048 C 0.56909 1.00191 0.48793 0.0
C1049 C 0.55128 0.01199 0.48209 0.0
C1050 C 0.56746 0.97754 0.48005 0.0
C1051 C 0.54755 0.9628 0.46591 0.0
C1052 C 0.52996 0.9732 0.45883 0.0
C1053 C 0.53201 0.99764 0.46702 0.0
C1054 C 0.58662 0.96724 0.48805 0.0
C1055 C 0.50848 0.95814 0.44363 0.0
H1056 H 0.54693 0.89243 0.41779 0.0
H1057 H 0.52291 0.88368 0.48246 0.0
H1058 H 0.54653 0.95096 0.41453 0.0
H1059 H 0.57353 0.95582 0.43179 0.0
H1060 H 0.5631 0.93093 0.40795 0.0
H1061 H 0.52455 0.91648 0.51024 0.0
H1062 H 0.54508 0.9443 0.50979 0.0
H1063 H 0.51728 0.94043 0.49517 0.0
H1064 H 0.58413 0.01277 0.49949 0.0
H1065 H 0.51818 0.0052 0.46231 0.0
H1066 H 0.59009 0.95657 0.47291 0.0
H1067 H 0.58242 0.95469 0.50117 0.0
H1068 H 0.6018 0.98166 0.49637 0.0
H1069 H 0.51154 0.94811 0.42781 0.0
H1070 H 0.49728 0.96941 0.4377 0.0
H1071 H 0.50004 0.94445 0.45383 0.0
C1072 C 0.52389 0.35154 0.67735 0.0
C1073 C 0.54277 0.34946 0.6925 0.0
C1074 C 0.50486 0.35291 0.68593 0.0
C1075 C 0.50457 0.35215 0.71029 0.0
C1076 C 0.52349 0.3499 0.72567 0.0
C1077 C 0.54234 0.34861 0.71662 0.0
C1078 C 0.48509 0.35534 0.6689 0.0
C1079 C 0.52386 0.34896 0.75175 0.0
C1080 C 0.46302 0.37849 0.7363 0.0
C1081 C 0.44621 0.35756 0.73684 0.0
C1082 C 0.48206 0.37699 0.7278 0.0
C1083 C 0.48452 0.35397 0.71967 0.0
C1084 C 0.46769 0.33276 0.72022 0.0
C1085 C 0.44877 0.3348 0.72874 0.0
C1086 C 0.49958 0.40007 0.72754 0.0
C1087 C 0.46961 0.30788 0.71168 0.0
H1088 H 0.52398 0.35223 0.65869 0.0
H1089 H 0.55678 0.34698 0.7285 0.0
H1090 H 0.47056 0.34011 0.66917 0.0
H1091 H 0.48102 0.37243 0.67447 0.0
H1092 H 0.48786 0.35543 0.65045 0.0
H1093 H 0.53973 0.34689 0.76132 0.0
H1094 H 0.52098 0.36583 0.75992 0.0
H1095 H 0.51038 0.33354 0.75424 0.0
H1096 H 0.46144 0.39614 0.74285 0.0
H1097 H 0.43582 0.31853 0.72876 0.0
H1098 H 0.50221 0.40173 0.7092 0.0
H1099 H 0.51543 0.39946 0.73839 0.0
H1100 H 0.4952 0.41654 0.73447 0.0
H1101 H 0.47093 0.30673 0.69276 0.0
H1102 H 0.45529 0.29314 0.71367 0.0
H1103 H 0.48481 0.30473 0.72173 0.0
C1104 C 0.07998 0.90645 0.59622 0.0
C1105 C 0.06056 0.89557 0.60384 0.0
C1106 C 0.08249 0.92857 0.58653 0.0
C1107 C 0.06528 0.9403 0.58461 0.0
C1108 C 0.04573 0.92944 0.5924 0.0
C1109 C 0.04358 0.90729 0.60175 0.0
C1110 C 0.10351 0.93934 0.57823 0.0
C1111 C 0.02698 0.94126 0.59091 0.0
C1112 C 0.07558 0.00808 0.57871 0.0
C1113 C 0.06682 0.00757 0.55465 0.0
C1114 C 0.07581 0.98643 0.58857 0.0
C1115 C 0.0673 0.96363 0.57403 0.0
C1116 C 0.05921 0.96311 0.54956 0.0
C1117 C 0.05895 0.98497 0.54025 0.0
C1118 C 0.08441 0.98791 0.61475 0.0
C1119 C 0.05017 0.93935 0.5333 0.0
H1120 H 0.09322 0.89765 0.59774 0.0
H1121 H 0.02853 0.89926 0.60768 0.0
H1122 H 0.09977 0.94113 0.55913 0.0
H1123 H 0.11147 0.95786 0.58785 0.0
H1124 H 0.11537 0.92811 0.58097 0.0
H1125 H 0.01309 0.93084 0.59826 0.0
H1126 H 0.03287 0.95991 0.60072 0.0
H1127 H 0.02074 0.94288 0.57219 0.0
H1128 H 0.08166 0.02536 0.59005 0.0
H1129 H 0.05227 0.98428 0.52161 0.0
H1130 H 0.097 0.97766 0.61783 0.0
H1131 H 0.07077 0.97941 0.62346 0.0
H1132 H 0.09177 0.00696 0.62336 0.0
H1133 H 0.06222 0.92832 0.53511 0.0
H1134 H 0.04616 0.94207 0.51444 0.0
H1135 H 0.03499 0.9287 0.53832 0.0
C1136 C 0.44498 0.80482 0.88991 0.0
C1137 C 0.46637 0.81044 0.88515 0.0
C1138 C 0.42687 0.80614 0.87316 0.0
C1139 C 0.43002 0.81311 0.85084 0.0
C1140 C 0.45136 0.81769 0.8454 0.0
C1141 C 0.46932 0.81637 0.86265 0.0
C1142 C 0.40446 0.80112 0.87981 0.0
C1143 C 0.45535 0.82488 0.8217 0.0
C1144 C 0.3768 0.80139 0.80525 0.0
C1145 C 0.37202 0.82401 0.8077 0.0
C1146 C 0.39622 0.79786 0.8182 0.0
C1147 C 0.41115 0.81732 0.83419 0.0
C1148 C 0.40678 0.84038 0.83611 0.0
C1149 C 0.38739 0.84346 0.82281 0.0
C1150 C 0.40036 0.77307 0.81541 0.0
C1151 C 0.42211 0.8616 0.85307 0.0
H1152 H 0.44237 0.80001 0.90712 0.0
H1153 H 0.48573 0.8207 0.85874 0.0
H1154 H 0.39883 0.81794 0.88025 0.0
H1155 H 0.39225 0.78723 0.86636 0.0
H1156 H 0.40456 0.79466 0.89739 0.0
H1157 H 0.47224 0.82512 0.81919 0.0
H1158 H 0.44329 0.81218 0.80715 0.0
H1159 H 0.45301 0.84327 0.8202 0.0
H1160 H 0.36519 0.78627 0.79348 0.0
H1161 H 0.38399 0.86105 0.82487 0.0
H1162 H 0.39864 0.76465 0.8318 0.0
H1163 H 0.4174 0.77463 0.81274 0.0
H1164 H 0.38867 0.76074 0.80028 0.0
H1165 H 0.42215 0.85767 0.87154 0.0
H1166 H 0.41724 0.87875 0.85122 0.0
H1167 H 0.4392 0.86437 0.85013 0.0
C1168 C 0.56876 0.26023 0.08723 0.0
C1169 C 0.55454 0.26045 0.10319 0.0
C1170 C 0.56759 0.2386 0.07276 0.0
C1171 C 0.55154 0.21685 0.07395 0.0
C1172 C 0.53643 0.21743 0.08918 0.0
C1173 C 0.53826 0.23909 0.1037 0.0
C1174 C 0.58425 0.23876 0.05711 0.0
C1175 C 0.5186 0.19502 0.09054 0.0
C1176 C 0.53789 0.16323 0.02469 0.0
C1177 C 0.54902 0.14747 0.03532 0.0
C1178 C 0.53858 0.18584 0.03696 0.0
C1179 C 0.55112 0.19319 0.06028 0.0
C1180 C 0.56266 0.17743 0.07094 0.0
C1181 C 0.56129 0.15471 0.05842 0.0
C1182 C 0.52563 0.20172 0.02508 0.0
C1183 C 0.57652 0.1846 0.09558 0.0
H1184 H 0.58159 0.27657 0.08703 0.0
H1185 H 0.52714 0.23922 0.11592 0.0
H1186 H 0.59495 0.2271 0.06337 0.0
H1187 H 0.57585 0.23105 0.03867 0.0
H1188 H 0.59481 0.25734 0.05707 0.0
H1189 H 0.50904 0.19806 0.10435 0.0
H1190 H 0.50713 0.18931 0.07317 0.0
H1191 H 0.52585 0.17979 0.09439 0.0
H1192 H 0.52835 0.15773 0.00683 0.0
H1193 H 0.57013 0.14276 0.0666 0.0
H1194 H 0.53674 0.21976 0.02432 0.0
H1195 H 0.51334 0.20482 0.0356 0.0
H1196 H 0.51688 0.19356 0.00682 0.0
H1197 H 0.58932 0.20187 0.09632 0.0
H1198 H 0.58473 0.17051 0.10127 0.0
H1199 H 0.56615 0.18785 0.10843 0.0
C1200 C 0.09757 0.32039 0.38698 0.0
C1201 C 0.07659 0.30507 0.37706 0.0
C1202 C 0.1161 0.3189 0.37734 0.0
C1203 C 0.1136 0.30189 0.35709 0.0
C1204 C 0.09237 0.28683 0.34666 0.0
C1205 C 0.0742 0.2885 0.35681 0.0
C1206 C 0.13843 0.33519 0.38913 0.0
C1207 C 0.08887 0.26867 0.3249 0.0
C1208 C 0.15827 0.31059 0.3199 0.0
C1209 C 0.16964 0.29362 0.32727 0.0
C1210 C 0.14016 0.31359 0.32952 0.0
C1211 C 0.13321 0.2994 0.3471 0.0
C1212 C 0.14474 0.28241 0.3548 0.0
C1213 C 0.16271 0.27967 0.34475 0.0
C1214 C 0.12825 0.33173 0.32062 0.0
C1215 C 0.13805 0.26707 0.37365 0.0
H1216 H 0.09965 0.33318 0.40266 0.0
H1217 H 0.05808 0.27664 0.34892 0.0
H1218 H 0.14952 0.32396 0.39546 0.0
H1219 H 0.14598 0.34602 0.3762 0.0
H1220 H 0.13757 0.34783 0.40441 0.0
H1221 H 0.07123 0.25902 0.31833 0.0
H1222 H 0.09535 0.27798 0.31051 0.0
H1223 H 0.0981 0.25502 0.32894 0.0
H1224 H 0.1633 0.32126 0.30621 0.0
H1225 H 0.17154 0.26676 0.3508 0.0
H1226 H 0.12807 0.34511 0.33558 0.0
H1227 H 0.11087 0.32224 0.31257 0.0
H1228 H 0.13596 0.34171 0.30723 0.0
H1229 H 0.13834 0.27893 0.38997 0.0
H1230 H 0.14902 0.25514 0.37812 0.0
H1231 H 0.12095 0.25551 0.36757 0.0
C1232 C 0.94756 0.04624 0.10488 0.0
C1233 C 0.94193 0.05728 0.12458 0.0
C1234 C 0.96381 0.05929 0.0939 0.0
C1235 C 0.97504 0.0837 0.1033 0.0
C1236 C 0.96788 0.09559 0.12169 0.0
C1237 C 0.95117 0.08225 0.13199 0.0
C1238 C 0.97017 0.04634 0.07345 0.0
C1239 C 0.97933 0.12154 0.1323 0.0
C1240 C 0.03464 0.09453 0.09871 0.0
C1241 C 0.03493 0.1053 0.07799 0.0
C1242 C 0.01563 0.08936 0.10839 0.0
C1243 C 0.99642 0.09481 0.09673 0.0
C1244 C 0.99729 0.10765 0.07693 0.0
C1245 C 0.01661 0.1126 0.0676 0.0
C1246 C 0.01554 0.07607 0.12984 0.0
C1247 C 0.97738 0.11446 0.06462 0.0
H1248 H 0.94018 0.02703 0.09896 0.0
H1249 H 0.94687 0.09087 0.14728 0.0
H1250 H 0.9701 0.05722 0.05852 0.0
H1251 H 0.9871 0.04444 0.07879 0.0
H1252 H 0.95881 0.02798 0.06716 0.0
H1253 H 0.96838 0.12999 0.14117 0.0
H1254 H 0.99398 0.12181 0.14579 0.0
H1255 H 0.98507 0.13277 0.11875 0.0
H1256 H 0.04879 0.0886 0.10641 0.0
H1257 H 0.01685 0.12061 0.05129 0.0
H1258 H 1.00553 0.05698 0.12444 0.0
H1259 H 1.00797 0.08456 0.14303 0.0
H1260 H 0.03239 0.07593 0.13845 0.0
H1261 H 0.96504 0.09785 0.05496 0.0
H1262 H 0.98164 0.12747 0.0519 0.0
H1263 H 0.96949 0.12267 0.07766 0.0
C1264 C 0.29488 0.79036 0.45014 0.0
C1265 C 0.30063 0.76972 0.45769 0.0
C1266 C 0.29641 0.7965 0.42739 0.0
C1267 C 0.30389 0.7817 0.41155 0.0
C1268 C 0.31044 0.76128 0.41923 0.0
C1269 C 0.30875 0.75553 0.44223 0.0
C1270 C 0.28946 0.81857 0.42012 0.0
C1271 C 0.31861 0.74511 0.40293 0.0
C1272 C 0.28522 0.78642 0.34625 0.0
C1273 C 0.30346 0.80339 0.34159 0.0
C1274 C 0.28543 0.77849 0.36867 0.0
C1275 C 0.30439 0.78762 0.38688 0.0
C1276 C 0.32312 0.80407 0.38199 0.0
C1277 C 0.32241 0.81177 0.3595 0.0
C1278 C 0.2651 0.76093 0.37311 0.0
C1279 C 0.34374 0.8141 0.40072 0.0
H1280 H 0.2887 0.80158 0.46192 0.0
H1281 H 0.31312 0.7395 0.44779 0.0
H1282 H 0.3031 0.83119 0.41421 0.0
H1283 H 0.27534 0.81297 0.40493 0.0
H1284 H 0.28457 0.82857 0.43473 0.0
H1285 H 0.32437 0.73087 0.41199 0.0
H1286 H 0.30519 0.73611 0.38765 0.0
H1287 H 0.33232 0.75608 0.39576 0.0
H1288 H 0.27056 0.77968 0.33254 0.0
H1289 H 0.33677 0.82458 0.35605 0.0
H1290 H 0.25795 0.77002 0.38631 0.0
H1291 H 0.26942 0.74517 0.38061 0.0
H1292 H 0.25235 0.75413 0.35672 0.0
H1293 H 0.34017 0.82517 0.41551 0.0
H1294 H 0.35732 0.82562 0.39372 0.0
H1295 H 0.34943 0.79903 0.40815 0.0
C1296 C 0.56462 0.97796 0.65662 0.0
C1297 C 0.58611 0.97668 0.66507 0.0
C1298 C 0.55901 0.98614 0.63491 0.0
C1299 C 0.57525 0.99286 0.62105 0.0
C1300 C 0.59624 0.9888 0.62813 0.0
C1301 C 0.60151 0.98083 0.65024 0.0
C1302 C 0.53639 0.99005 0.62814 0.0
C1303 C 0.61373 0.99486 0.61341 0.0
C1304 C 0.55132 0.00948 0.56211 0.0
C1305 C 0.55522 0.0347 0.56755 0.0
C1306 C 0.5594 0.99571 0.57868 0.0
C1307 C 0.57099 0.00737 0.60144 0.0
C1308 C 0.57586 0.03303 0.60653 0.0
C1309 C 0.56815 0.04642 0.58937 0.0
C1310 C 0.55468 0.96859 0.57218 0.0
C1311 C 0.58802 0.04624 0.63063 0.0
H1312 H 0.55261 0.97453 0.66798 0.0
H1313 H 0.61818 0.97994 0.6567 0.0
H1314 H 0.53779 0.00984 0.62954 0.0
H1315 H 0.52888 0.98212 0.60954 0.0
H1316 H 0.52512 0.9819 0.63971 0.0
H1317 H 0.62676 0.98541 0.61807 0.0
H1318 H 0.60652 0.98988 0.59424 0.0
H1319 H 0.62157 0.01472 0.6166 0.0
H1320 H 0.54173 1.00046 0.54497 0.0
H1321 H 0.57135 0.06595 0.59346 0.0
H1322 H 0.54141 0.95916 0.5809 0.0
H1323 H 0.56946 0.96231 0.57845 0.0
H1324 H 0.54932 0.96307 0.55276 0.0
H1325 H 0.57801 0.04054 0.64411 0.0
H1326 H 0.59156 0.06629 0.63129 0.0
H1327 H 0.60378 0.04145 0.6356 0.0
C1328 C 0.32156 0.37306 0.96378 0.0
C1329 C 0.31578 0.39299 0.97429 0.0
C1330 C 0.31855 0.36769 0.93908 0.0
C1331 C 0.30951 0.38258 0.92422 0.0
C1332 C 0.30292 0.40226 0.9346 0.0
C1333 C 0.3061 0.40722 0.95949 0.0
C1334 C 0.32564 0.3464 0.9289 0.0
C1335 C 0.29307 0.41847 0.91943 0.0
C1336 C 0.32417 0.38108 0.86278 0.0
C1337 C 0.30566 0.36398 0.849 0.0
C1338 C 0.32529 0.38799 0.88706 0.0
C1339 C 0.30748 0.37764 0.89792 0.0
C1340 C 0.28845 0.36104 0.8839 0.0
C1341 C 0.28779 0.35442 0.85973 0.0
C1342 C 0.34592 0.40572 0.90131 0.0
C1343 C 0.26906 0.34952 0.89461 0.0
H1344 H 0.32896 0.36183 0.97494 0.0
H1345 H 0.30167 0.42272 0.96734 0.0
H1346 H 0.31168 0.33375 0.91617 0.0
H1347 H 0.33892 0.35292 0.919 0.0
H1348 H 0.33175 0.33613 0.94278 0.0
H1349 H 0.28767 0.43216 0.93004 0.0
H1350 H 0.30537 0.42814 0.90968 0.0
H1351 H 0.27874 0.40741 0.90603 0.0
H1352 H 0.33808 0.38861 0.85478 0.0
H1353 H 0.27332 0.34125 0.84936 0.0
H1354 H 0.35431 0.3964 0.91452 0.0
H1355 H 0.34172 0.4208 0.91122 0.0
H1356 H 0.35763 0.4135 0.89002 0.0
H1357 H 0.27389 0.33732 0.90717 0.0
H1358 H 0.25474 0.33873 0.88099 0.0
H1359 H 0.26389 0.36367 0.9048 0.0
C1360 C 0.95533 0.06332 0.2579 0.0
C1361 C 0.95938 0.04595 0.24186 0.0
C1362 C 0.96589 0.0675 0.28174 0.0
C1363 C 0.98076 0.05393 0.28962 0.0
C1364 C 0.98626 0.03786 0.27315 0.0
C1365 C 0.97549 0.03406 0.24942 0.0
C1366 C 0.95979 0.08499 0.29876 0.0
C1367 C 1.00216 0.02318 0.2809 0.0
C1368 C 0.01414 0.06765 0.35239 0.0
C1369 C 1.00122 0.0503 0.36352 0.0
C1370 C 1.00758 0.06944 0.32833 0.0
C1371 C 0.9877 0.05349 0.3153 0.0
C1372 C 0.9744 0.03635 0.32664 0.0
C1373 C 0.9813 0.03503 0.35061 0.0
C1374 C 0.02207 0.08797 0.31676 0.0
C1375 C 0.953 0.01911 0.31336 0.0
H1376 H 0.94312 0.07285 0.25215 0.0
H1377 H 0.97893 0.02084 0.23707 0.0
H1378 H 0.94895 0.07459 0.30957 0.0
H1379 H 0.97466 0.09654 0.3111 0.0
H1380 H 0.95094 0.09693 0.2894 0.0
H1381 H 1.00706 0.01427 0.26562 0.0
H1382 H 0.01719 0.03484 0.2929 0.0
H1383 H 0.99434 0.00886 0.29088 0.0
H1384 H 0.0296 0.0794 0.36234 0.0
H1385 H 0.97106 0.02196 0.35931 0.0
H1386 H 0.01238 0.09925 0.3076 0.0
H1387 H 0.02855 0.07856 0.30313 0.0
H1388 H 0.0362 0.10012 0.32973 0.0
H1389 H 0.94179 0.0295 0.30536 0.0
H1390 H 0.94445 0.00714 0.32495 0.0
H1391 H 0.95617 0.00748 0.29871 0.0
C1392 C 0.2945 0.78794 0.59976 0.0
C1393 C 0.30606 0.77321 0.58959 0.0
C1394 C 0.2994 0.79621 0.6241 0.0
C1395 C 0.31657 0.78997 0.63895 0.0
C1396 C 0.32844 0.77518 0.62893 0.0
C1397 C 0.32298 0.76685 0.60438 0.0
C1398 C 0.28614 0.81177 0.63391 0.0
C1399 C 0.34699 0.76831 0.64412 0.0
C1400 C 0.33841 0.83507 0.69513 0.0
C1401 C 0.32647 0.82347 0.71109 0.0
C1402 C 0.33662 0.82359 0.67212 0.0
C1403 C 0.32233 0.79997 0.6647 0.0
C1404 C 0.31125 0.7876 0.68125 0.0
C1405 C 0.31353 0.7995 0.70427 0.0
C1406 C 0.34899 0.83741 0.65531 0.0
C1407 C 0.29586 0.76243 0.67423 0.0
H1408 H 0.28127 0.79289 0.5887 0.0
H1409 H 0.33196 0.75542 0.59679 0.0
H1410 H 0.27867 0.80339 0.64821 0.0
H1411 H 0.29707 0.82994 0.64177 0.0
H1412 H 0.2728 0.81426 0.62015 0.0
H1413 H 0.35435 0.75632 0.63381 0.0
H1414 H 0.36006 0.78495 0.65246 0.0
H1415 H 0.34096 0.75888 0.65865 0.0
H1416 H 0.34864 0.85354 0.70035 0.0
H1417 H 0.30439 0.79042 0.71655 0.0
H1418 H 0.33725 0.84291 0.64185 0.0
H1419 H 0.35713 0.82573 0.64576 0.0
H1420 H 0.36165 0.85403 0.66459 0.0
H1421 H 0.28068 0.76346 0.66233 0.0
H1422 H 0.29115 0.75396 0.68984 0.0
H1423 H 0.30351 0.75047 0.66433 0.0
C1424 C 0.56424 0.95225 0.79451 0.0
C1425 C 0.58478 0.95154 0.78951 0.0
C1426 C 0.56063 0.95257 0.81771 0.0
C1427 C 0.57787 0.95162 0.83617 0.0
C1428 C 0.59696 0.94614 0.83047 0.0
C1429 C 0.6004 0.9465 0.80708 0.0
C1430 C 0.53958 0.95747 0.82276 0.0
C1431 C 0.61478 0.94268 0.84944 0.0
C1432 C 0.58353 1.00112 0.88576 0.0
C1433 C 0.56941 0.98904 0.89948 0.0
C1434 C 0.58786 0.98862 0.86604 0.0
C1435 C 0.57832 0.96317 0.86036 0.0
C1436 C 0.566 0.95049 0.87579 0.0
C1437 C 0.5612 0.96371 0.89493 0.0
C1438 C 0.60089 0.00316 0.85007 0.0
C1439 C 0.5567 0.92327 0.87152 0.0
H1440 H 0.5518 0.95526 0.78073 0.0
H1441 H 0.61614 0.94527 0.80322 0.0
H1442 H 0.53224 0.94458 0.83426 0.0
H1443 H 0.54321 0.97613 0.83228 0.0
H1444 H 0.52721 0.95585 0.80631 0.0
H1445 H 0.62459 0.93149 0.84198 0.0
H1446 H 0.6261 0.96062 0.85736 0.0
H1447 H 0.60768 0.93386 0.86377 0.0
H1448 H 0.5898 0.02074 0.88937 0.0
H1449 H 0.55047 0.95437 0.90584 0.0
H1450 H 0.59032 1.00165 0.8324 0.0
H1451 H 0.615 0.99595 0.84751 0.0
H1452 H 0.60736 0.02272 0.8573 0.0
H1453 H 0.53897 0.91875 0.86336 0.0
H1454 H 0.55797 0.91571 0.88861 0.0
H1455 H 0.56524 0.91427 0.85976 0.0
C1456 C 0.31241 0.40129 0.12212 0.0
C1457 C 0.31639 0.38629 0.10379 0.0
C1458 C 0.3075 0.3923 0.14314 0.0
C1459 C 0.30589 0.36752 0.14568 0.0
C1460 C 0.30918 0.35217 0.12686 0.0
C1461 C 0.31468 0.36178 0.10639 0.0
C1462 C 0.30466 0.40948 0.16293 0.0
C1463 C 0.30703 0.32553 0.12836 0.0
C1464 C 0.31345 0.34615 0.20679 0.0
C1465 C 0.29164 0.33739 0.20964 0.0
C1466 C 0.31833 0.3566 0.18646 0.0
C1467 C 0.30098 0.3576 0.16802 0.0
C1468 C 0.27891 0.34833 0.17066 0.0
C1469 C 0.27454 0.33866 0.1915 0.0
C1470 C 0.34209 0.36665 0.18473 0.0
C1471 C 0.25987 0.34833 0.1513 0.0
H1472 H 0.31393 0.42029 0.12039 0.0
H1473 H 0.31762 0.35 0.0923 0.0
H1474 H 0.28821 0.40279 0.16742 0.0
H1475 H 0.31709 0.41021 0.17906 0.0
H1476 H 0.30643 0.42818 0.15828 0.0
H1477 H 0.30884 0.31572 0.1117 0.0
H1478 H 0.31976 0.32344 0.14301 0.0
H1479 H 0.29075 0.31676 0.13235 0.0
H1480 H 0.32676 0.34506 0.2206 0.0
H1481 H 0.25764 0.33186 0.19348 0.0
H1482 H 0.34498 0.38569 0.18084 0.0
H1483 H 0.34601 0.35593 0.16994 0.0
H1484 H 0.35361 0.36626 0.20126 0.0
H1485 H 0.26057 0.36717 0.1477 0.0
H1486 H 0.24369 0.34021 0.1559 0.0
H1487 H 0.26101 0.33794 0.13466 0.0
C1488 C 0.25415 0.97845 0.02499 0.0
C1489 C 0.27478 0.98796 0.04007 0.0
C1490 C 0.23723 0.99021 0.02502 0.0
C1491 C 0.24102 0.01217 0.04033 0.0
C1492 C 0.26188 0.02198 0.05537 0.0
C1493 C 0.27842 0.00975 0.05512 0.0
C1494 C 0.21522 0.97902 0.00881 0.0
C1495 C 0.26676 0.04542 0.07182 0.0
C1496 C 0.20493 0.05527 0.0269 0.0
C1497 C 0.1908 0.05074 0.04313 0.0
C1498 C 0.22111 0.0427 0.0256 0.0
C1499 C 0.22322 0.02491 0.04076 0.0
C1500 C 0.20875 0.01989 0.05686 0.0
C1501 C 0.19281 0.03286 0.0579 0.0
C1502 C 0.23613 0.04867 0.00817 0.0
C1503 C 0.2103 1.00102 0.07327 0.0
H1504 H 0.2511 0.9616 0.01334 0.0
H1505 H 0.29427 0.01735 0.0668 0.0
H1506 H 0.20212 0.97499 0.0194 0.0
H1507 H 0.21116 0.99205 0.99682 0.0
H1508 H 0.21488 0.96196 0.9979 0.0
H1509 H 0.28389 0.05086 0.08216 0.0
H1510 H 0.26415 0.06026 0.06151 0.0
H1511 H 0.25527 0.04349 0.08436 0.0
H1512 H 0.20329 0.06862 0.01502 0.0
H1513 H 0.18219 0.0293 0.07066 0.0
H1514 H 0.23497 0.03204 0.99614 0.0
H1515 H 0.25347 0.05545 0.01778 0.0
H1516 H 0.23214 0.06263 0.99731 0.0
H1517 H 0.20906 0.98333 0.06293 0.0
H1518 H 0.19721 0.99841 0.08397 0.0
H1519 H 0.22655 0.00652 0.08548 0.0
C1520 C 0.68912 0.6848 0.99314 0.0
C1521 C 0.71001 0.68097 1.00005 0.0
C1522 C 0.66978 0.66695 0.99369 0.0
C1523 C 0.67116 0.64454 1.00146 0.0
C1524 C 0.69214 0.64022 0.00792 0.0
C1525 C 0.71134 0.65845 0.00705 0.0
C1526 C 0.64783 0.67234 0.98635 0.0
C1527 C 0.69431 0.61658 0.01632 0.0
C1528 C 0.62019 0.61147 0.02333 0.0
C1529 C 0.6083 0.59529 0.00317 0.0
C1530 C 0.64118 0.62677 0.02345 0.0
C1531 C 0.65048 0.62595 0.00287 0.0
C1532 C 0.63881 0.60899 0.98277 0.0
C1533 C 0.6179 0.5939 0.98317 0.0
C1534 C 0.653 0.64452 0.04529 0.0
C1535 C 0.64797 0.60753 0.96042 0.0
H1536 H 0.68782 0.70204 0.98753 0.0
H1537 H 0.72737 0.65537 0.01258 0.0
H1538 H 0.63722 0.65825 0.97192 0.0
H1539 H 0.63919 0.67181 1.00149 0.0
H1540 H 0.64955 0.69041 0.98016 0.0
H1541 H 0.71167 0.61558 0.01979 0.0
H1542 H 0.68779 0.61446 0.03285 0.0
H1543 H 0.68438 0.60104 0.00294 0.0
H1544 H 0.61283 0.61266 0.0388 0.0
H1545 H 0.6088 0.58138 0.96753 0.0
H1546 H 0.65373 0.66332 0.04148 0.0
H1547 H 0.67019 0.64338 0.05038 0.0
H1548 H 0.64467 0.64122 0.06055 0.0
H1549 H 0.64852 0.62449 0.95235 0.0
H1550 H 0.63789 0.5919 0.94718 0.0
H1551 H 0.66507 0.60588 0.96453 0.0
C1552 C 0.73918 0.55714 0.35232 0.0
C1553 C 0.74894 0.57549 0.37151 0.0
C1554 C 0.74951 0.53913 0.34659 0.0
C1555 C 0.77017 0.53956 0.36029 0.0
C1556 C 0.78 0.55784 0.37985 0.0
C1557 C 0.76923 0.57557 0.38528 0.0
C1558 C 0.73845 0.51983 0.32566 0.0
C1559 C 0.80208 0.55893 0.39476 0.0
C1560 C 0.78825 0.48139 0.35445 0.0
C1561 C 0.80165 0.48588 0.33758 0.0
C1562 C 0.77828 0.49893 0.36247 0.0
C1563 C 0.78184 0.52146 0.35341 0.0
C1564 C 0.7958 0.52632 0.33685 0.0
C1565 C 0.80549 0.50846 0.3291 0.0
C1566 C 0.76351 0.49314 0.38019 0.0
C1567 C 0.8 0.55014 0.32678 0.0
H1568 H 0.72344 0.55685 0.34167 0.0
H1569 H 0.77688 0.58968 0.40013 0.0
H1570 H 0.74887 0.52116 0.31205 0.0
H1571 H 0.73651 0.5015 0.33123 0.0
H1572 H 0.72199 0.5215 0.31741 0.0
H1573 H 0.80709 0.57373 0.40992 0.0
H1574 H 0.80164 0.54139 0.40169 0.0
H1575 H 0.81485 0.56189 0.38369 0.0
H1576 H 0.78545 0.46408 0.36128 0.0
H1577 H 0.81554 0.51192 0.31579 0.0
H1578 H 0.74644 0.49287 0.37208 0.0
H1579 H 0.76896 0.50744 0.39576 0.0
H1580 H 0.76333 0.47528 0.38638 0.0
H1581 H 0.7844 0.55202 0.31639 0.0
H1582 H 0.81226 0.55159 0.31509 0.0
H1583 H 0.80601 0.56558 0.3413 0.0
C1584 C 0.88511 0.50176 0.53624 0.0
C1585 C 0.88513 0.47859 0.54231 0.0
C1586 C 0.905 0.51917 0.53613 0.0
C1587 C 0.92527 0.51314 0.54211 0.0
C1588 C 0.92536 0.4903 0.54957 0.0
C1589 C 0.90538 0.47342 0.54966 0.0
C1590 C 0.90426 0.54349 0.52845 0.0
C1591 C 0.94653 0.48304 0.55613 0.0
C1592 C 0.97407 0.53786 0.51382 0.0
C1593 C 0.98923 0.55306 0.53289 0.0
C1594 C 0.95275 0.52588 0.51625 0.0
C1595 C 0.94624 0.52927 0.53825 0.0
C1596 C 0.96098 0.54568 0.55718 0.0
C1597 C 0.98235 0.55727 0.55433 0.0
C1598 C 0.93766 0.50845 0.49563 0.0
C1599 C 0.95455 0.55009 0.58079 0.0
H1600 H 0.86957 0.50597 0.53064 0.0
H1601 H 0.90565 0.45571 0.55473 0.0
H1602 H 0.91685 0.55838 0.54051 0.0
H1603 H 0.90808 0.54417 0.51047 0.0
H1604 H 0.88783 0.54684 0.528 0.0
H1605 H 0.9439 0.46531 0.56313 0.0
H1606 H 0.95407 0.48166 0.54029 0.0
H1607 H 0.95851 0.49706 0.56966 0.0
H1608 H 0.97906 0.53452 0.49712 0.0
H1609 H 0.99381 0.56919 0.56912 0.0
H1610 H 0.92133 0.51227 0.49218 0.0
H1611 H 0.93504 0.48958 0.49998 0.0
H1612 H 0.94444 0.50944 0.47916 0.0
H1613 H 0.93785 0.553 0.57831 0.0
H1614 H 0.96636 0.56605 0.59231 0.0
H1615 H 0.95408 0.53387 0.59006 0.0
C1616 C 0.41908 0.23339 0.31499 0.0
C1617 C 0.41908 0.21383 0.29866 0.0
C1618 C 0.40224 0.24527 0.31162 0.0
C1619 C 0.38496 0.23732 0.2915 0.0
C1620 C 0.38445 0.21702 0.27546 0.0
C1621 C 0.40151 0.20557 0.2792 0.0
C1622 C 0.40338 0.2669 0.3291 0.0
C1623 C 0.36628 0.20789 0.25387 0.0
C1624 C 0.33369 0.26017 0.29029 0.0
C1625 C 0.33827 0.27979 0.27732 0.0
C1626 C 0.34858 0.24592 0.29483 0.0
C1627 C 0.36846 0.25144 0.28617 0.0
C1628 C 0.37281 0.27077 0.27249 0.0
C1629 C 0.35769 0.28464 0.26822 0.0
C1630 C 0.34332 0.22537 0.30938 0.0
C1631 C 0.39373 0.27722 0.26279 0.0
H1632 H 0.43254 0.23985 0.33009 0.0
H1633 H 0.40124 0.19034 0.26656 0.0
H1634 H 0.40595 0.28354 0.32028 0.0
H1635 H 0.38762 0.26457 0.33538 0.0
H1636 H 0.41696 0.26971 0.34468 0.0
H1637 H 0.36726 0.1907 0.24422 0.0
H1638 H 0.34996 0.20483 0.25901 0.0
H1639 H 0.36726 0.22179 0.24159 0.0
H1640 H 0.31881 0.25638 0.29752 0.0
H1641 H 0.36138 0.29967 0.25808 0.0
H1642 H 0.35574 0.22916 0.32608 0.0
H1643 H 0.34417 0.20819 0.29964 0.0
H1644 H 0.32674 0.22267 0.31385 0.0
H1645 H 0.40822 0.28229 0.27758 0.0
H1646 H 0.39447 0.29256 0.25217 0.0
H1647 H 0.39512 0.26125 0.25148 0.0
C1648 C 0.32581 0.15545 0.49221 0.0
C1649 C 0.32824 0.17986 0.50078 0.0
C1650 C 0.34409 0.14578 0.49329 0.0
C1651 C 0.36549 0.16083 0.50308 0.0
C1652 C 0.3681 0.18549 0.51174 0.0
C1653 C 0.34948 0.19468 0.51056 0.0
C1654 C 0.34047 0.11936 0.48399 0.0
C1655 C 0.39058 0.20222 0.52223 0.0
C1656 C 0.40942 0.12891 0.52492 0.0
C1657 C 0.42036 0.12846 0.5058 0.0
C1658 C 0.39191 0.13978 0.52447 0.0
C1659 C 0.38504 0.15059 0.50442 0.0
C1660 C 0.39634 0.15075 0.48531 0.0
C1661 C 0.41381 0.13973 0.48622 0.0
C1662 C 0.38047 0.13927 0.5453 0.0
C1663 C 0.38961 0.16205 0.46359 0.0
H1664 H 0.30953 0.14377 0.48466 0.0
H1665 H 0.35162 0.21356 0.51719 0.0
H1666 H 0.34987 0.1178 0.46973 0.0
H1667 H 0.34668 0.10968 0.49833 0.0
H1668 H 0.32283 0.11006 0.47689 0.0
H1669 H 0.3899 0.22095 0.52803 0.0
H1670 H 0.39834 0.19501 0.53767 0.0
H1671 H 0.40139 0.20304 0.50902 0.0
H1672 H 0.41453 0.12066 0.54031 0.0
H1673 H 0.42193 0.13931 0.47124 0.0
H1674 H 0.36299 0.12874 0.53956 0.0
H1675 H 0.38063 0.15798 0.55224 0.0
H1676 H 0.38828 0.13098 0.55991 0.0
H1677 H 0.37263 0.15204 0.45457 0.0
H1678 H 0.40075 0.16186 0.4508 0.0
H1679 H 0.38953 0.18113 0.46873 0.0
C1680 C 0.74821 0.71892 0.37344 0.0
C1681 C 0.74899 0.69459 0.37223 0.0
C1682 C 0.76209 0.73575 0.36271 0.0
C1683 C 0.77724 0.72811 0.35065 0.0
C1684 C 0.77931 0.70412 0.35094 0.0
C1685 C 0.76515 0.68762 0.36173 0.0
C1686 C 0.7595 0.76127 0.36295 0.0
C1687 C 0.79552 0.69543 0.33856 0.0
C1688 C 0.79091 0.76206 0.29927 0.0
C1689 C 0.81081 0.77901 0.30977 0.0
C1690 C 0.78007 0.74498 0.31226 0.0
C1691 C 0.78956 0.74468 0.33619 0.0
C1692 C 0.81017 0.76105 0.34651 0.0
C1693 C 0.82054 0.77808 0.33317 0.0
C1694 C 0.75802 0.72791 0.30065 0.0
C1695 C 0.82086 0.76121 0.3719 0.0
H1696 H 0.73588 0.72456 0.38161 0.0
H1697 H 0.76598 0.66891 0.36079 0.0
H1698 H 0.77571 0.77481 0.36876 0.0
H1699 H 0.75267 0.76406 0.34475 0.0
H1700 H 0.74836 0.76493 0.37479 0.0
H1701 H 0.79694 0.67727 0.34277 0.0
H1702 H 0.79014 0.69426 0.31913 0.0
H1703 H 0.81204 0.70854 0.34357 0.0
H1704 H 0.78346 0.76266 0.28113 0.0
H1705 H 0.83598 0.79114 0.34133 0.0
H1706 H 0.74507 0.73177 0.30979 0.0
H1707 H 0.75822 0.70882 0.30228 0.0
H1708 H 0.75344 0.72968 0.28161 0.0
H1709 H 0.81092 0.76741 0.38391 0.0
H1710 H 0.83784 0.77342 0.37652 0.0
H1711 H 0.82145 0.7426 0.37525 0.0
C1712 C 0.9526 0.5894 0.79079 0.0
C1713 C 0.94625 0.61093 0.79449 0.0
C1714 C 0.93781 0.56673 0.79019 0.0
C1715 C 0.91609 0.56554 0.79318 0.0
C1716 C 0.90907 0.58705 0.79518 0.0
C1717 C 0.92429 0.60957 0.79588 0.0
C1718 C 0.94589 0.54416 0.7879 0.0
C1719 C 0.88591 0.5864 0.79798 0.0
C1720 C 0.87833 0.50169 0.78075 0.0
C1721 C 0.88067 0.49453 0.80344 0.0
C1722 C 0.88865 0.52536 0.77722 0.0
C1723 C 0.90175 0.54207 0.79682 0.0
C1724 C 0.90314 0.53535 0.81991 0.0
C1725 C 0.89249 0.51168 0.82294 0.0
C1726 C 0.88656 0.53201 0.7524 0.0
C1727 C 0.91691 0.55272 0.84129 0.0
H1728 H 0.96946 0.59026 0.78943 0.0
H1729 H 0.91919 0.62612 0.79851 0.0
H1730 H 0.94627 0.53618 0.80474 0.0
H1731 H 0.93451 0.53027 0.7738 0.0
H1732 H 0.96266 0.54801 0.78376 0.0
H1733 H 0.88209 0.60401 0.79552 0.0
H1734 H 0.87378 0.57184 0.7851 0.0
H1735 H 0.88381 0.58227 0.81598 0.0
H1736 H 0.8693 0.48848 0.76558 0.0
H1737 H 0.89392 0.50637 0.84056 0.0
H1738 H 0.9022 0.5329 0.74621 0.0
H1739 H 0.88347 0.5502 0.75199 0.0
H1740 H 0.87308 0.51851 0.73978 0.0
H1741 H 0.93454 0.55662 0.84008 0.0
H1742 H 0.91489 0.54529 0.85815 0.0
H1743 H 0.91245 0.57023 0.84184 0.0
C1744 C 0.07577 0.9221 0.11024 0.0
C1745 C 0.0859 0.90802 0.09709 0.0
C1746 C 0.0703 0.94264 0.10191 0.0
C1747 C 0.07472 0.94902 0.07971 0.0
C1748 C 0.08437 0.93445 0.0661 0.0
C1749 C 0.08998 0.91431 0.07501 0.0
C1750 C 0.06031 0.95788 0.11711 0.0
C1751 C 0.08909 0.94034 0.04221 0.0
C1752 C 0.04593 0.99163 0.04804 0.0
C1753 C 0.06262 0.01354 0.05258 0.0
C1754 C 0.04951 0.97055 0.05697 0.0
C1755 C 0.07017 0.97145 0.07104 0.0
C1756 C 0.08692 0.99364 0.07602 0.0
C1757 C 0.08297 0.01432 0.06668 0.0
C1758 C 0.03133 0.94719 0.05094 0.0
C1759 C 0.10913 0.99554 0.09111 0.0
H1760 H 0.0726 0.91742 0.12733 0.0
H1761 H 0.09762 0.90345 0.06459 0.0
H1762 H 0.07151 0.97648 0.1221 0.0
H1763 H 0.04454 0.95963 0.10703 0.0
H1764 H 0.05722 0.95007 0.13354 0.0
H1765 H 0.0955 0.92644 0.03325 0.0
H1766 H 0.0739 0.94173 0.03058 0.0
H1767 H 0.10139 0.95822 0.04431 0.0
H1768 H 0.03015 0.99083 0.03716 0.0
H1769 H 0.09583 0.03124 0.0707 0.0
H1770 H 0.0275 0.93995 0.06737 0.0
H1771 H 0.0368 0.9333 0.04074 0.0
H1772 H 0.01602 0.94962 0.04035 0.0
H1773 H 0.10706 0.98961 0.10855 0.0
H1774 H 0.1201 0.01433 0.09407 0.0
H1775 H 0.11736 0.98329 0.08249 0.0
C1776 C 0.93037 0.30686 0.87792 0.0
C1777 C 0.94951 0.30283 0.87139 0.0
C1778 C 0.91208 0.30725 0.86088 0.0
C1779 C 0.91268 0.30317 0.83654 0.0
C1780 C 0.93181 0.29883 0.82972 0.0
C1781 C 0.95007 0.29889 0.84722 0.0
C1782 C 0.89211 0.31212 0.869 0.0
C1783 C 0.9329 0.29396 0.80395 0.0
C1784 C 0.85567 0.2816 0.79767 0.0
C1785 C 0.85256 0.30317 0.78974 0.0
C1786 C 0.87565 0.28105 0.81172 0.0
C1787 C 0.89287 0.30274 0.81847 0.0
C1788 C 0.89014 0.3244 0.80973 0.0
C1789 C 0.87009 0.32426 0.7952 0.0
C1790 C 0.87791 0.25747 0.82026 0.0
C1791 C 0.90793 0.348 0.81678 0.0
H1792 H 0.92973 0.31012 0.8965 0.0
H1793 H 0.96474 0.29579 0.84197 0.0
H1794 H 0.88807 0.32789 0.86127 0.0
H1795 H 0.87764 0.29622 0.86272 0.0
H1796 H 0.8946 0.31588 0.88858 0.0
H1797 H 0.94894 0.29094 0.80153 0.0
H1798 H 0.91956 0.27768 0.79526 0.0
H1799 H 0.93027 0.30948 0.79473 0.0
H1800 H 0.84223 0.26515 0.79335 0.0
H1801 H 0.86784 0.34088 0.78892 0.0
H1802 H 0.87814 0.25866 0.83955 0.0
H1803 H 0.89367 0.25403 0.8174 0.0
H1804 H 0.86417 0.24172 0.81114 0.0
H1805 H 0.9101 0.3538 0.83605 0.0
H1806 H 0.90397 0.36276 0.80708 0.0
H1807 H 0.92388 0.34554 0.81346 0.0
C1808 C 0.58 0.26665 0.57859 0.0
C1809 C 0.57554 0.27683 0.59957 0.0
C1810 C 0.57506 0.2414 0.57249 0.0
C1811 C 0.56546 0.22578 0.58775 0.0
C1812 C 0.56008 0.23585 0.6085 0.0
C1813 C 0.56513 0.26128 0.61415 0.0
C1814 C 0.5808 0.23147 0.55003 0.0
C1815 C 0.54973 0.21978 0.62514 0.0
C1816 C 0.5404 0.16029 0.55932 0.0
C1817 C 0.55788 0.14983 0.56564 0.0
C1818 C 0.54219 0.18466 0.56736 0.0
C1819 C 0.5619 0.199 0.58218 0.0
C1820 C 0.57914 0.18823 0.58967 0.0
C1821 C 0.57695 0.16379 0.5813 0.0
C1822 C 0.52343 0.19539 0.55885 0.0
C1823 C 0.6004 0.20286 0.60557 0.0
H1824 H 0.58791 0.27847 0.56712 0.0
H1825 H 0.5617 0.26895 0.63043 0.0
H1826 H 0.59368 0.22181 0.55448 0.0
H1827 H 0.56617 0.21809 0.53903 0.0
H1828 H 0.58692 0.24596 0.53933 0.0
H1829 H 0.5451 0.23029 0.63959 0.0
H1830 H 0.53481 0.20588 0.61529 0.0
H1831 H 0.56144 0.20995 0.63314 0.0
H1832 H 0.52554 0.14973 0.54727 0.0
H1833 H 0.59052 0.15593 0.58638 0.0
H1834 H 0.52827 0.20812 0.54608 0.0
H1835 H 0.51962 0.20594 0.57384 0.0
H1836 H 0.50826 0.18122 0.54996 0.0
H1837 H 0.60938 0.21666 0.59584 0.0
H1838 H 0.61128 0.19131 0.6117 0.0
H1839 H 0.597 0.21273 0.62127 0.0
C1840 C 0.58686 0.84425 0.35806 0.0
C1841 C 0.57413 0.82497 0.36731 0.0
C1842 C 0.60481 0.84154 0.34798 0.0
C1843 C 0.61032 0.81905 0.34724 0.0
C1844 C 0.5974 0.79946 0.35632 0.0
C1845 C 0.57945 0.80261 0.36614 0.0
C1846 C 0.61803 0.86282 0.33832 0.0
C1847 C 0.60273 0.77522 0.35596 0.0
C1848 C 0.64533 0.8043 0.30372 0.0
C1849 C 0.66628 0.80942 0.31826 0.0
C1850 C 0.62705 0.80751 0.31285 0.0
C1851 C 0.6297 0.81606 0.33716 0.0
C1852 C 0.65082 0.82145 0.35191 0.0
C1853 C 0.66882 0.81809 0.3423 0.0
C1854 C 0.60488 0.80169 0.29647 0.0
C1855 C 0.65435 0.83051 0.37795 0.0
H1856 H 0.5829 0.86158 0.35882 0.0
H1857 H 0.56981 0.78761 0.37329 0.0
H1858 H 0.63532 0.86811 0.34814 0.0
H1859 H 0.6183 0.85762 0.31947 0.0
H1860 H 0.6113 0.87888 0.33968 0.0
H1861 H 0.59098 0.76173 0.36352 0.0
H1862 H 0.60248 0.76776 0.33753 0.0
H1863 H 0.61958 0.77758 0.36623 0.0
H1864 H 0.64323 0.79797 0.28505 0.0
H1865 H 0.68486 0.82183 0.35375 0.0
H1866 H 0.59843 0.81796 0.29662 0.0
H1867 H 0.59294 0.78724 0.30273 0.0
H1868 H 0.60561 0.7955 0.27795 0.0
H1869 H 0.64904 0.84743 0.38033 0.0
H1870 H 0.67183 0.83425 0.38695 0.0
H1871 H 0.64413 0.81684 0.38679 0.0
C1872 C 0.02019 0.24204 0.4789 0.0
C1873 C 0.03158 0.25461 0.46297 0.0
C1874 C 0.02348 0.21984 0.4851 0.0
C1875 C 0.03865 0.20975 0.47529 0.0
C1876 C 0.05024 0.22228 0.45919 0.0
C1877 C 0.04654 0.24449 0.45318 0.0
C1878 C 0.01071 0.20721 0.50229 0.0
C1879 C 0.06665 0.21227 0.44842 0.0
C1880 C 0.06147 0.16556 0.51109 0.0
C1881 C 0.04852 0.14279 0.49927 0.0
C1882 C 0.05887 0.18734 0.50306 0.0
C1883 C 0.04283 0.18657 0.48268 0.0
C1884 C 0.02995 0.16367 0.47038 0.0
C1885 C 0.03296 0.14209 0.47877 0.0
C1886 C 0.07305 0.21125 0.51672 0.0
C1887 C 0.01262 0.16196 0.44862 0.0
H1888 H 0.00851 0.24949 0.48655 0.0
H1889 H 0.05539 0.25392 0.44082 0.0
H1890 H 1.00125 0.18853 0.49413 0.0
H1891 H 0.02225 0.20556 0.5183 0.0
H1892 H 0.99909 0.21707 0.50786 0.0
H1893 H 0.07402 0.22388 0.43587 0.0
H1894 H 0.08007 0.21071 0.4626 0.0
H1895 H 0.05858 0.19373 0.4389 0.0
H1896 H 0.07367 0.16646 0.52684 0.0
H1897 H 0.02292 0.12466 0.46941 0.0
H1898 H 0.06257 0.22142 0.52431 0.0
H1899 H 0.08153 0.22263 0.50472 0.0
H1900 H 0.08564 0.20879 0.53138 0.0
H1901 H 0.99956 0.16994 0.45345 0.0
H1902 H 1.0049 0.14289 0.44023 0.0
H1903 H 0.01992 0.17258 0.43542 0.0
C1904 C 0.64029 0.33546 0.2137 0.0
C1905 C 0.6337 0.34145 0.19107 0.0
C1906 C 0.6626 0.33908 0.22371 0.0
C1907 C 0.6789 0.34875 0.21074 0.0
C1908 C 0.67246 0.35607 0.18841 0.0
C1909 C 0.64992 0.35244 0.17887 0.0
C1910 C 0.66863 0.33125 0.24767 0.0
C1911 C 0.68929 0.36643 0.17399 0.0
C1912 C 0.73836 0.36648 0.2449 0.0
C1913 C 0.74468 0.34507 0.24009 0.0
C1914 C 0.71727 0.36838 0.23485 0.0
C1915 C 0.70221 0.34848 0.2195 0.0
C1916 C 0.70884 0.32721 0.21392 0.0
C1917 C 0.72987 0.32575 0.22429 0.0
C1918 C 0.71085 0.39134 0.24131 0.0
C1919 C 0.69344 0.30558 0.19754 0.0
H1920 H 0.62791 0.32722 0.22341 0.0
H1921 H 0.645 0.3571 0.16138 0.0
H1922 H 0.67518 0.31515 0.2456 0.0
H1923 H 0.68175 0.34591 0.25939 0.0
H1924 H 0.6543 0.32646 0.25651 0.0
H1925 H 0.68203 0.3741 0.15857 0.0
H1926 H 0.70307 0.38085 0.1851 0.0
H1927 H 0.6963 0.35189 0.16737 0.0
H1928 H 0.74965 0.38154 0.25704 0.0
H1929 H 0.7346 0.30922 0.22015 0.0
H1930 H 0.69788 0.38745 0.25208 0.0
H1931 H 0.70385 0.39805 0.22512 0.0
H1932 H 0.72502 0.40598 0.25158 0.0
H1933 H 0.67919 0.29777 0.20569 0.0
H1934 H 0.70161 0.2911 0.19367 0.0
H1935 H 0.6869 0.3113 0.18057 0.0
C1936 C 0.55911 0.90693 0.96436 0.0
C1937 C 0.54261 0.89028 0.97233 0.0
C1938 C 0.56484 0.93203 0.97285 0.0
C1939 C 0.55367 0.94076 0.98951 0.0
C1940 C 0.53698 0.92403 0.99747 0.0
C1941 C 0.53181 0.89918 0.98898 0.0
C1942 C 0.5828 0.94919 0.96396 0.0
C1943 C 0.52426 0.93243 0.01482 0.0
C1944 C 0.57643 0.99954 0.03233 0.0
C1945 C 0.56487 0.01494 0.02175 0.0
C1946 C 0.57413 0.97596 0.02119 0.0
C1947 C 0.5594 0.9672 0.9992 0.0
C1948 C 0.5482 0.98301 0.98808 0.0
C1949 C 0.55133 0.00679 0.99934 0.0
C1950 C 0.5868 0.96005 0.03348 0.0
C1951 C 0.53208 0.97443 0.96486 0.0
H1952 H 0.56747 0.90039 0.95139 0.0
H1953 H 0.51891 0.88669 0.99521 0.0
H1954 H 0.57595 0.96239 0.95432 0.0
H1955 H 0.59565 0.95979 0.97913 0.0
H1956 H 0.59063 0.9395 0.95191 0.0
H1957 H 0.51121 0.91728 0.0186 0.0
H1958 H 0.5356 0.9411 0.03174 0.0
H1959 H 0.51647 0.9463 0.00772 0.0
H1960 H 0.58707 0.0058 0.04957 0.0
H1961 H 0.54233 0.01858 0.99114 0.0
H1962 H 0.59483 0.95135 0.02091 0.0
H1963 H 0.57531 0.9453 0.03992 0.0
H1964 H 0.59958 0.97042 0.04883 0.0
H1965 H 0.51928 0.95788 0.96638 0.0
H1966 H 0.54073 0.96951 0.95087 0.0
H1967 H 0.52382 0.98847 0.95919 0.0
C1968 C 0.00822 0.85125 0.67216 0.0
C1969 C 0.02023 0.83725 0.68458 0.0
C1970 C 0.99086 0.85793 0.68076 0.0
C1971 C 0.98562 0.85073 0.70242 0.0
C1972 C 0.99809 0.83715 0.71527 0.0
C1973 C 0.01507 0.83049 0.70616 0.0
C1974 C 0.97781 0.8722 0.66642 0.0
C1975 C 0.99333 0.82935 0.73858 0.0
C1976 C 0.95283 0.88248 0.73757 0.0
C1977 C 0.93219 0.86538 0.73294 0.0
C1978 C 0.97019 0.87834 0.72718 0.0
C1979 C 0.96679 0.85669 0.71157 0.0
C1980 C 0.94576 0.83975 0.70625 0.0
C1981 C 0.92879 0.84422 0.71709 0.0
C1982 C 0.99241 0.8967 0.73363 0.0
C1983 C 0.94133 0.81657 0.68954 0.0
H1984 H 0.01202 0.85649 0.65547 0.0
H1985 H 0.02434 0.81985 0.71603 0.0
H1986 H 0.96041 0.86135 0.66085 0.0
H1987 H 0.9779 0.8891 0.67737 0.0
H1988 H 0.98438 0.8771 0.65037 0.0
H1989 H 1.00515 0.81977 0.74688 0.0
H1990 H 0.99398 0.84542 0.75112 0.0
H1991 H 0.97647 0.81705 0.73584 0.0
H1992 H 0.95563 0.89878 0.74993 0.0
H1993 H 0.9128 0.8311 0.71316 0.0
H1994 H 0.99839 0.90197 0.71741 0.0
H1995 H 1.00452 0.88847 0.74356 0.0
H1996 H 0.99199 0.91334 0.7447 0.0
H1997 H 0.94636 0.82069 0.67257 0.0
H1998 H 0.9237 0.80624 0.68578 0.0
H1999 H 0.95125 0.80478 0.69733 0.0
C2000 C 0.16474 0.11393 0.94986 0.0
C2001 C 0.17018 0.10298 0.93 0.0
C2002 C 0.14797 0.10116 0.96034 0.0
C2003 C 0.13603 0.07713 0.95029 0.0
C2004 C 0.14299 0.0652 0.93175 0.0
C2005 C 0.16023 0.07825 0.92196 0.0
C2006 C 0.14175 0.11414 0.98085 0.0
C2007 C 0.13078 0.03968 0.92039 0.0
C2008 C 0.09295 0.04882 0.98465 0.0
C2009 C 0.07534 0.05739 0.97446 0.0
C2010 C 0.11248 0.05324 0.97568 0.0
C2011 C 0.11425 0.0667 0.95637 0.0
C2012 C 0.0957 0.07346 0.94485 0.0
C2013 C 0.07651 0.06892 0.95423 0.0
C2014 C 0.1317 0.04514 0.98785 0.0
C2015 C 0.09671 0.08739 0.92387 0.0
H2016 H 0.17262 0.13297 0.95624 0.0
H2017 H 0.16437 0.06971 0.90651 0.0
H2018 H 0.12568 0.11805 0.97496 0.0
H2019 H 0.1399 0.10233 0.99494 0.0
H2020 H 0.15421 0.13154 0.98841 0.0
H2021 H 0.14155 0.03077 0.91171 0.0
H2022 H 0.12412 0.02831 0.93342 0.0
H2023 H 0.1167 0.04041 0.90661 0.0
H2024 H 0.09204 0.04023 1.00058 0.0
H2025 H 0.0629 0.0758 0.94667 0.0
H2026 H 0.14494 0.06128 0.99699 0.0
H2027 H 0.13865 0.03573 0.9747 0.0
H2028 H 0.12699 0.03275 1.00096 0.0
H2029 H 0.10733 0.10615 0.92981 0.0
H2030 H 0.08018 0.08849 0.91518 0.0
H2031 H 0.10407 0.07873 0.91058 0.0
C2032 C 0.81602 0.37279 0.59761 0.0
C2033 C 0.8108 0.39377 0.59029 0.0
C2034 C 0.81402 0.36632 0.62018 0.0
C2035 C 0.80657 0.38112 0.63607 0.0
C2036 C 0.80052 0.40187 0.62857 0.0
C2037 C 0.80268 0.40795 0.60577 0.0
C2038 C 0.82049 0.34393 0.62724 0.0
C2039 C 0.79239 0.41806 0.6449 0.0
C2040 C 0.78728 0.35094 0.68782 0.0
C2041 C 0.80614 0.35906 0.70587 0.0
C2042 C 0.78685 0.35876 0.66538 0.0
C2043 C 0.8058 0.375 0.66065 0.0
C2044 C 0.82469 0.38381 0.67899 0.0
C2045 C 0.82461 0.37582 0.70136 0.0
C2046 C 0.76629 0.34907 0.64652 0.0
C2047 C 0.84525 0.40113 0.67477 0.0
H2048 H 0.8222 0.36158 0.58583 0.0
H2049 H 0.79869 0.42423 0.60039 0.0
H2050 H 0.83455 0.34917 0.6425 0.0
H2051 H 0.80664 0.33146 0.63297 0.0
H2052 H 0.82528 0.3339 0.61258 0.0
H2053 H 0.78693 0.43252 0.63594 0.0
H2054 H 0.77849 0.40715 0.65184 0.0
H2055 H 0.80574 0.42679 0.66034 0.0
H2056 H 0.77277 0.33827 0.69114 0.0
H2057 H 0.83921 0.38233 0.71517 0.0
H2058 H 0.76964 0.33724 0.63215 0.0
H2059 H 0.76127 0.36423 0.63851 0.0
H2060 H 0.75233 0.33836 0.65358 0.0
H2061 H 0.85229 0.39197 0.6615 0.0
H2062 H 0.85799 0.40761 0.69121 0.0
H2063 H 0.84125 0.41711 0.66744 0.0
C2064 C 0.50513 0.183 0.40144 0.0
C2065 C 0.52025 0.18828 0.38639 0.0
C2066 C 0.51088 0.17417 0.42296 0.0
C2067 C 0.53207 0.17037 0.42922 0.0
C2068 C 0.54799 0.17812 0.41523 0.0
C2069 C 0.54192 0.18718 0.39414 0.0
C2070 C 0.49373 0.16704 0.43792 0.0
C2071 C 0.57081 0.17455 0.42119 0.0
C2072 C 0.5572 0.15252 0.48699 0.0
C2073 C 0.5536 0.12744 0.48087 0.0
C2074 C 0.54867 0.16657 0.47105 0.0
C2075 C 0.53694 0.15537 0.4482 0.0
C2076 C 0.53244 0.12982 0.4424 0.0
C2077 C 0.54058 0.11611 0.45897 0.0
C2078 C 0.55307 0.19353 0.47831 0.0
C2079 C 0.52017 0.11711 0.41816 0.0
H2080 H 0.48834 0.18378 0.39555 0.0
H2081 H 0.55372 0.1915 0.38265 0.0
H2082 H 0.48648 0.14707 0.43449 0.0
H2083 H 0.50118 0.17183 0.45705 0.0
H2084 H 0.48024 0.17595 0.43377 0.0
H2085 H 0.58173 0.18332 0.40956 0.0
H2086 H 0.57855 0.18206 0.43984 0.0
H2087 H 0.5697 0.15482 0.41917 0.0
H2088 H 0.56686 0.16122 0.50421 0.0
H2089 H 0.53763 0.09667 0.45435 0.0
H2090 H 0.56662 0.20347 0.47025 0.0
H2091 H 0.55795 0.1984 0.49782 0.0
H2092 H 0.53833 0.19986 0.47197 0.0
H2093 H 0.50422 0.12164 0.41369 0.0
H2094 H 0.51696 0.09705 0.41693 0.0
H2095 H 0.52993 0.1235 0.40466 0.0
C2096 C 0.78244 0.78712 0.0892 0.0
C2097 C 0.78881 0.7676 0.07874 0.0
C2098 C 0.78648 0.79326 0.11389 0.0
C2099 C 0.79719 0.77958 0.12873 0.0
C2100 C 0.80442 0.76043 0.11835 0.0
C2101 C 0.80016 0.75467 0.09349 0.0
C2102 C 0.77864 0.81395 0.12412 0.0
C2103 C 0.81603 0.74552 0.13352 0.0
C2104 C 0.82018 0.80939 0.19254 0.0
C2105 C 0.80323 0.79892 0.20415 0.0
C2106 C 0.81884 0.80265 0.16825 0.0
C2107 C 0.80006 0.78499 0.15506 0.0
C2108 C 0.78321 0.77378 0.1668 0.0
C2109 C 0.785 0.78085 0.19115 0.0
C2110 C 0.83719 0.81509 0.15654 0.0
C2111 C 0.76289 0.7549 0.15344 0.0
H2112 H 0.77375 0.79736 0.07806 0.0
H2113 H 0.8051 0.73952 0.08567 0.0
H2114 H 0.76603 0.80694 0.13467 0.0
H2115 H 0.7925 0.82739 0.13625 0.0
H2116 H 0.7714 0.82345 0.11019 0.0
H2117 H 0.82187 0.7323 0.12281 0.0
H2118 H 0.83033 0.75757 0.14628 0.0
H2119 H 0.80468 0.73537 0.14399 0.0
H2120 H 0.8344 0.82335 0.20231 0.0
H2121 H 0.77179 0.77262 0.19984 0.0
H2122 H 0.83103 0.82648 0.14387 0.0
H2123 H 0.84286 0.80142 0.14629 0.0
H2124 H 0.85149 0.82687 0.16956 0.0
H2125 H 0.75342 0.76333 0.14029 0.0
H2126 H 0.75198 0.74674 0.16534 0.0
H2127 H 0.76757 0.74018 0.14351 0.0
C2128 C 0.15848 0.09809 0.79677 0.0
C2129 C 0.15263 0.11319 0.81353 0.0
C2130 C 0.14759 0.09372 0.77309 0.0
C2131 C 0.13033 0.10455 0.76611 0.0
C2132 C 0.12304 0.11798 0.7833 0.0
C2133 C 0.13438 0.12227 0.80686 0.0
C2134 C 0.15584 0.07928 0.75524 0.0
C2135 C 0.10438 0.12938 0.77654 0.0
C2136 C 0.12781 0.12436 0.70539 0.0
C2137 C 0.11089 0.10548 0.69156 0.0
C2138 C 0.13393 0.12442 0.72975 0.0
C2139 C 0.12264 0.10525 0.74063 0.0
C2140 C 0.105 0.08654 0.72698 0.0
C2141 C 0.09937 0.08681 0.70249 0.0
C2142 C 0.15285 0.14475 0.74374 0.0
C2143 C 0.09247 0.06601 0.73812 0.0
H2144 H 0.17239 0.09073 0.80183 0.0
H2145 H 0.12951 0.13361 0.81981 0.0
H2146 H 0.14192 0.06594 0.74312 0.0
H2147 H 0.16469 0.09178 0.74428 0.0
H2148 H 0.16727 0.06942 0.76386 0.0
H2149 H 0.09818 0.13537 0.79224 0.0
H2150 H 0.11018 0.14548 0.76762 0.0
H2151 H 0.09054 0.11646 0.76391 0.0
H2152 H 0.13637 0.13915 0.69712 0.0
H2153 H 0.0863 0.07214 0.69182 0.0
H2154 H 0.16628 0.1372 0.75191 0.0
H2155 H 0.1474 0.15407 0.75829 0.0
H2156 H 0.15965 0.15845 0.73258 0.0
H2157 H 0.10338 0.05454 0.74428 0.0
H2158 H 0.07779 0.05433 0.72554 0.0
H2159 H 0.0871 0.07328 0.75386 0.0
C2160 C 0.79294 0.40208 0.44358 0.0
C2161 C 0.80856 0.39403 0.45863 0.0
C2162 C 0.78818 0.39472 0.41885 0.0
C2163 C 0.79944 0.37914 0.40892 0.0
C2164 C 0.81534 0.37123 0.42405 0.0
C2165 C 0.81957 0.3786 0.44853 0.0
C2166 C 0.77099 0.40341 0.40337 0.0
C2167 C 0.82791 0.35477 0.41438 0.0
C2168 C 0.77722 0.33552 0.35181 0.0
C2169 C 0.79032 0.34661 0.33654 0.0
C2170 C 0.77879 0.34683 0.37482 0.0
C2171 C 0.79407 0.36976 0.38301 0.0
C2172 C 0.80638 0.38174 0.36713 0.0
C2173 C 0.8043 0.37003 0.34405 0.0
C2174 C 0.76508 0.33346 0.39087 0.0
C2175 C 0.82281 0.4062 0.37498 0.0
H2176 H 0.78442 0.4141 0.45109 0.0
H2177 H 0.83181 0.37234 0.4598 0.0
H2178 H 0.7782 0.413 0.38952 0.0
H2179 H 0.7574 0.38761 0.39416 0.0
H2180 H 0.76403 0.41585 0.41366 0.0
H2181 H 0.84046 0.35114 0.42835 0.0
H2182 H 0.81634 0.33714 0.4059 0.0
H2183 H 0.83629 0.36305 0.40059 0.0
H2184 H 0.76619 0.3175 0.34604 0.0
H2185 H 0.8144 0.3787 0.33233 0.0
H2186 H 0.7574 0.34579 0.40024 0.0
H2187 H 0.7758 0.32689 0.4045 0.0
H2188 H 0.75191 0.31757 0.38098 0.0
H2189 H 0.81533 0.41892 0.3841 0.0
H2190 H 0.82903 0.41439 0.35988 0.0
H2191 H 0.837 0.40416 0.38782 0.0
C2192 C 0.53424 0.22591 0.25749 0.0
C2193 C 0.51263 0.21655 0.26059 0.0
C2194 C 0.53961 0.22287 0.2351 0.0
C2195 C 0.52306 0.20949 0.21587 0.0
C2196 C 0.50074 0.20437 0.21809 0.0
C2197 C 0.4957 0.20811 0.24062 0.0
C2198 C 0.56343 0.23039 0.23291 0.0
C2199 C 0.48254 0.19145 0.19756 0.0
C2200 C 0.53988 0.18814 0.15907 0.0
C2201 C 0.54431 0.16629 0.16459 0.0
C2202 C 0.53279 0.20262 0.1754 0.0
C2203 C 0.5295 0.19457 0.19734 0.0
C2204 C 0.53327 0.17201 0.20246 0.0
C2205 C 0.54082 0.15834 0.18613 0.0
C2206 C 0.52897 0.22634 0.16887 0.0
C2207 C 0.52968 0.16233 0.22542 0.0
H2208 H 0.5473 0.23291 0.27291 0.0
H2209 H 0.47891 0.20114 0.24294 0.0
H2210 H 0.57041 0.21454 0.23421 0.0
H2211 H 0.565 0.23666 0.21549 0.0
H2212 H 0.57327 0.24512 0.24722 0.0
H2213 H 0.46627 0.19322 0.20059 0.0
H2214 H 0.48569 0.19875 0.18095 0.0
H2215 H 0.4819 0.17184 0.19522 0.0
H2216 H 0.54252 0.19422 0.14229 0.0
H2217 H 0.54394 0.14123 0.19016 0.0
H2218 H 0.54158 0.23517 0.15905 0.0
H2219 H 0.52932 0.23922 0.18447 0.0
H2220 H 0.51267 0.2226 0.15692 0.0
H2221 H 0.54132 0.17464 0.24054 0.0
H2222 H 0.53215 0.14385 0.22594 0.0
H2223 H 0.51274 0.16155 0.22801 0.0
C2224 C 0.80133 0.76898 0.94073 0.0
C2225 C 0.782 0.77053 0.94845 0.0
C2226 C 0.8068 0.77902 0.92036 0.0
C2227 C 0.79239 0.79046 0.90708 0.0
C2228 C 0.77268 0.79164 0.91459 0.0
C2229 C 0.76787 0.78192 0.93518 0.0
C2230 C 0.82809 0.77761 0.91314 0.0
C2231 C 0.75656 0.80312 0.90079 0.0
C2232 C 0.81224 0.83646 0.866 0.0
C2233 C 0.80536 0.82226 0.84373 0.0
C2234 C 0.80874 0.8262 0.8868 0.0
C2235 C 0.79771 0.80121 0.88531 0.0
C2236 C 0.7907 0.78684 0.86281 0.0
C2237 C 0.79481 0.79745 0.84239 0.0
C2238 C 0.81672 0.84217 0.91039 0.0
C2239 C 0.77846 0.76031 0.86022 0.0
H2240 H 0.81237 0.76027 0.95083 0.0
H2241 H 0.75276 0.78305 0.94076 0.0
H2242 H 0.82469 0.76766 0.89501 0.0
H2243 H 0.83841 0.79619 0.91272 0.0
H2244 H 0.83762 0.76835 0.92539 0.0
H2245 H 0.74166 0.80198 0.90858 0.0
H2246 H 0.76457 0.82253 0.90023 0.0
H2247 H 0.75134 0.79405 0.88222 0.0
H2248 H 0.82053 0.85559 0.86722 0.0
H2249 H 0.78959 0.7863 0.82527 0.0
H2250 H 0.82734 0.83404 0.92263 0.0
H2251 H 0.80249 0.84343 0.91858 0.0
H2252 H 0.82616 0.86082 0.90874 0.0
H2253 H 0.78838 0.7504 0.87112 0.0
H2254 H 0.77449 0.75151 0.84155 0.0
H2255 H 0.76287 0.75841 0.86679 0.0
C2256 C 0.85663 0.18549 0.02439 0.0
C2257 C 0.83609 0.17614 0.0091 0.0
C2258 C 0.87341 0.1735 0.02466 0.0
C2259 C 0.86959 0.1515 0.00941 0.0
C2260 C 0.84883 0.14188 0.99412 0.0
C2261 C 0.83243 0.15431 0.99409 0.0
C2262 C 0.89532 0.18449 0.04114 0.0
C2263 C 0.84394 0.1184 0.97771 0.0
C2264 C 0.91789 0.13024 0.99293 0.0
C2265 C 0.91953 0.11239 0.00783 0.0
C2266 C 0.90202 0.14336 0.99355 0.0
C2267 C 0.88724 0.13851 0.00935 0.0
C2268 C 0.88893 0.12071 0.0246 0.0
C2269 C 0.90505 0.10799 0.02373 0.0
C2270 C 0.90089 0.16224 0.97705 0.0
C2271 C 0.87354 0.11491 0.0417 0.0
H2272 H 0.8597 0.20235 0.03602 0.0
H2273 H 0.81665 0.14684 0.98224 0.0
H2274 H 0.89903 0.17141 0.05324 0.0
H2275 H 0.9086 0.18831 0.03078 0.0
H2276 H 0.8957 0.20164 0.05194 0.0
H2277 H 0.82692 0.11316 0.9671 0.0
H2278 H 0.85565 0.12016 0.96541 0.0
H2279 H 0.8462 0.1035 0.98809 0.0
H2280 H 0.92876 0.13368 0.9804 0.0
H2281 H 0.9064 0.09465 0.03569 0.0
H2282 H 0.9022 0.17999 0.9873 0.0
H2283 H 0.88476 0.15688 0.96464 0.0
H2284 H 0.91415 0.16464 0.96658 0.0
H2285 H 0.87472 0.13157 0.05368 0.0
H2286 H 0.87718 0.10085 0.05262 0.0
H2287 H 0.85629 0.10835 0.03182 0.0
C2288 C 0.41501 0.46921 0.06341 0.0
C2289 C 0.39464 0.47409 0.0559 0.0
C2290 C 0.43498 0.48608 0.06289 0.0
C2291 C 0.43479 0.50854 0.05452 0.0
C2292 C 0.41435 0.51392 0.04745 0.0
C2293 C 0.39452 0.49669 0.04832 0.0
C2294 C 0.45632 0.47961 0.07089 0.0
C2295 C 0.41341 0.53761 0.03838 0.0
C2296 C 0.48909 0.55789 0.07218 0.0
C2297 C 0.4987 0.55556 0.0523 0.0
C2298 C 0.46798 0.54339 0.0728 0.0
C2299 C 0.45609 0.52607 0.05304 0.0
C2300 C 0.46547 0.52419 0.03261 0.0
C2301 C 0.48668 0.53888 0.03253 0.0
C2302 C 0.45876 0.54598 0.09498 0.0
C2303 C 0.45343 0.50604 0.01113 0.0
H2304 H 0.41538 0.45189 0.06942 0.0
H2305 H 0.37892 0.5006 0.04231 0.0
H2306 H 0.46509 0.47904 0.05594 0.0
H2307 H 0.46724 0.49372 0.08512 0.0
H2308 H 0.4537 0.46173 0.07761 0.0
H2309 H 0.39635 0.53951 0.03443 0.0
H2310 H 0.42368 0.55313 0.05158 0.0
H2311 H 0.42027 0.53885 0.022 0.0
H2312 H 0.4983 0.57075 0.08754 0.0
H2313 H 0.49407 0.53687 0.01721 0.0
H2314 H 0.45733 0.52909 0.10335 0.0
H2315 H 0.44199 0.54854 0.09057 0.0
H2316 H 0.46927 0.5615 0.10808 0.0
H2317 H 0.45184 0.48732 0.01562 0.0
H2318 H 0.46206 0.50825 0.99599 0.0
H2319 H 0.43654 0.50794 0.00552 0.0
C2320 C 0.37384 0.60262 0.69394 0.0
C2321 C 0.37248 0.58457 0.70899 0.0
C2322 C 0.36395 0.6216 0.6972 0.0
C2323 C 0.35244 0.62257 0.71596 0.0
C2324 C 0.35097 0.60442 0.73119 0.0
C2325 C 0.36101 0.58561 0.72752 0.0
C2326 C 0.36588 0.64065 0.6806 0.0
C2327 C 0.33883 0.60491 0.75141 0.0
C2328 C 0.34411 0.68308 0.7385 0.0
C2329 C 0.32218 0.68061 0.72776 0.0
C2330 C 0.35421 0.6644 0.73467 0.0
C2331 C 0.34208 0.64272 0.71975 0.0
C2332 C 0.32004 0.64022 0.7086 0.0
C2333 C 0.31034 0.65921 0.71275 0.0
C2334 C 0.37776 0.6677 0.74689 0.0
C2335 C 0.30665 0.61741 0.69246 0.0
H2336 H 0.38267 0.60197 0.67956 0.0
H2337 H 0.35987 0.57175 0.73921 0.0
H2338 H 0.34925 0.64126 0.67179 0.0
H2339 H 0.37421 0.65886 0.69075 0.0
H2340 H 0.37526 0.63716 0.66676 0.0
H2341 H 0.33911 0.58938 0.76158 0.0
H2342 H 0.34629 0.62207 0.76367 0.0
H2343 H 0.32144 0.60444 0.74453 0.0
H2344 H 0.35323 0.69943 0.75041 0.0
H2345 H 0.29346 0.65733 0.70422 0.0
H2346 H 0.38799 0.66536 0.73361 0.0
H2347 H 0.37858 0.6536 0.75875 0.0
H2348 H 0.38504 0.68588 0.75754 0.0
H2349 H 0.31502 0.61404 0.67769 0.0
H2350 H 0.28981 0.61847 0.68492 0.0
H2351 H 0.30528 0.60153 0.70236 0.0
C2352 C 0.22957 0.66217 0.51462 0.0
C2353 C 0.22885 0.68526 0.50878 0.0
C2354 C 0.21006 0.64429 0.51505 0.0
C2355 C 0.18948 0.64975 0.50966 0.0
C2356 C 0.18867 0.67255 0.50251 0.0
C2357 C 0.20828 0.6899 0.50207 0.0
C2358 C 0.21155 0.62003 0.52236 0.0
C2359 C 0.16714 0.67922 0.49659 0.0
C2360 C 0.13295 0.60468 0.49764 0.0
C2361 C 0.12621 0.60844 0.51925 0.0
C2362 C 0.15418 0.61665 0.49468 0.0
C2363 C 0.1689 0.63299 0.51366 0.0
C2364 C 0.1626 0.63581 0.53584 0.0
C2365 C 0.14143 0.62346 0.53839 0.0
C2366 C 0.1604 0.61281 0.47088 0.0
C2367 C 0.1777 0.65315 0.55654 0.0
H2368 H 0.24536 0.65836 0.51971 0.0
H2369 H 0.20745 0.70753 0.4972 0.0
H2370 H 0.20805 0.61896 0.54045 0.0
H2371 H 0.19908 0.60501 0.51033 0.0
H2372 H 0.22812 0.61721 0.5224 0.0
H2373 H 0.16923 0.6971 0.48993 0.0
H2374 H 0.15526 0.6652 0.48299 0.0
H2375 H 0.1598 0.67996 0.51262 0.0
H2376 H 0.12146 0.59289 0.4828 0.0
H2377 H 0.13655 0.62643 0.55522 0.0
H2378 H 0.17728 0.61042 0.47302 0.0
H2379 H 0.16031 0.62907 0.46179 0.0
H2380 H 0.14878 0.59673 0.45934 0.0
H2381 H 0.19422 0.64978 0.55952 0.0
H2382 H 0.1712 0.65156 0.57315 0.0
H2383 H 0.1798 0.6721 0.55257 0.0
C2384 C 0.69365 0.95181 0.7843 0.0
C2385 C 0.67947 0.94634 0.76204 0.0
C2386 C 0.71062 0.94047 0.78967 0.0
C2387 C 0.71351 0.92314 0.7724 0.0
C2388 C 0.69942 0.91768 0.74982 0.0
C2389 C 0.68258 0.92937 0.74489 0.0
C2390 C 0.7253 0.94683 0.81392 0.0
C2391 C 0.70197 0.89924 0.73096 0.0
C2392 C 0.76787 0.9062 0.77749 0.0
C2393 C 0.76271 0.88373 0.78609 0.0
C2394 C 0.75219 0.91955 0.7735 0.0
C2395 C 0.73087 0.91019 0.77819 0.0
C2396 C 0.72589 0.88805 0.78783 0.0
C2397 C 0.74187 0.87516 0.79173 0.0
C2398 C 0.75818 0.9432 0.76341 0.0
C2399 C 0.7034 0.87746 0.79319 0.0
H2400 H 0.69146 0.96495 0.79768 0.0
H2401 H 0.67174 0.92505 0.72766 0.0
H2402 H 0.72359 0.93046 0.82312 0.0
H2403 H 0.74278 0.95309 0.81229 0.0
H2404 H 0.72133 0.96126 0.82511 0.0
H2405 H 0.69001 0.89743 0.71414 0.0
H2406 H 0.71887 0.90449 0.72729 0.0
H2407 H 0.69958 0.88122 0.7373 0.0
H2408 H 0.78386 0.91293 0.77299 0.0
H2409 H 0.73768 0.85785 0.79842 0.0
H2410 H 0.75451 0.95789 0.77449 0.0
H2411 H 0.74808 0.94134 0.74543 0.0
H2412 H 0.77583 0.94877 0.7622 0.0
H2413 H 0.69909 0.89087 0.80525 0.0
H2414 H 0.70244 0.86053 0.80147 0.0
H2415 H 0.69082 0.87329 0.7766 0.0
C2416 C 0.76856 0.97844 0.5533 0.0
C2417 C 0.77363 0.97307 0.53107 0.0
C2418 C 0.75182 0.98997 0.55574 0.0
C2419 C 0.73982 0.99643 0.53548 0.0
C2420 C 0.74489 0.99109 0.51302 0.0
C2421 C 0.76164 0.9795 0.51109 0.0
C2422 C 0.74696 0.99525 0.58001 0.0
C2423 C 0.73264 0.99771 0.49096 0.0
C2424 C 0.68359 0.008 0.53663 0.0
C2425 C 0.68877 0.03351 0.53997 0.0
C2426 C 0.70002 0.9957 0.53552 0.0
C2427 C 0.72226 0.00915 0.53774 0.0
C2428 C 0.72763 0.03487 0.54145 0.0
C2429 C 0.71091 0.04668 0.54259 0.0
C2430 C 0.69353 0.96828 0.53157 0.0
C2431 C 0.75107 0.04998 0.54396 0.0
H2432 H 0.77762 0.97352 0.56887 0.0
H2433 H 0.76533 0.97548 0.4938 0.0
H2434 H 0.7495 0.01508 0.58457 0.0
H2435 H 0.72948 0.98634 0.5801 0.0
H2436 H 0.75754 0.98883 0.59395 0.0
H2437 H 0.73839 0.99216 0.47478 0.0
H2438 H 0.71476 0.98888 0.48862 0.0
H2439 H 0.73476 0.01763 0.49273 0.0
H2440 H 0.66658 0.99758 0.53434 0.0
H2441 H 0.71526 0.06635 0.54567 0.0
H2442 H 0.70317 0.96123 0.5458 0.0
H2443 H 0.69737 0.96178 0.51456 0.0
H2444 H 0.67573 0.96045 0.53116 0.0
H2445 H 0.76181 0.04503 0.55881 0.0
H2446 H 0.75263 0.06978 0.54721 0.0
H2447 H 0.75729 0.04618 0.52764 0.0
C2448 C 0.34722 0.47336 0.6903 0.0
C2449 C 0.3631 0.46566 0.6799 0.0
C2450 C 0.33272 0.45741 0.70122 0.0
C2451 C 0.33417 0.43322 0.70174 0.0
C2452 C 0.34902 0.42483 0.68976 0.0
C2453 C 0.36323 0.44113 0.67888 0.0
C2454 C 0.31686 0.46688 0.71351 0.0
C2455 C 0.35096 0.39908 0.68981 0.0
C2456 C 0.31974 0.4005 0.75358 0.0
C2457 C 0.29959 0.38393 0.74325 0.0
C2458 C 0.33096 0.41704 0.74037 0.0
C2459 C 0.32155 0.41722 0.7164 0.0
C2460 C 0.30068 0.40131 0.70624 0.0
C2461 C 0.28996 0.38479 0.71979 0.0
C2462 C 0.35328 0.43362 0.75179 0.0
C2463 C 0.29007 0.40105 0.6808 0.0
H2464 H 0.34689 0.49223 0.69111 0.0
H2465 H 0.37535 0.43493 0.67081 0.0
H2466 H 0.30014 0.45419 0.70861 0.0
H2467 H 0.32223 0.46819 0.73296 0.0
H2468 H 0.31592 0.48513 0.70911 0.0
H2469 H 0.36192 0.39483 0.678 0.0
H2470 H 0.35767 0.39635 0.70806 0.0
H2471 H 0.33453 0.3859 0.68412 0.0
H2472 H 0.32712 0.39997 0.77177 0.0
H2473 H 0.27431 0.37202 0.71174 0.0
H2474 H 0.35353 0.45281 0.75011 0.0
H2475 H 0.36599 0.42926 0.74257 0.0
H2476 H 0.35788 0.43187 0.77084 0.0
H2477 H 0.28998 0.41973 0.6772 0.0
H2478 H 0.2729 0.38931 0.67631 0.0
H2479 H 0.29975 0.39422 0.66886 0.0
C2480 C 0.17516 0.55301 0.24502 0.0
C2481 C 0.15481 0.5522 0.25143 0.0
C2482 C 0.19075 0.57526 0.24585 0.0
C2483 C 0.18586 0.59708 0.25344 0.0
C2484 C 0.16607 0.59623 0.2616 0.0
C2485 C 0.15073 0.57378 0.26041 0.0
C2486 C 0.2117 0.57547 0.23703 0.0
C2487 C 0.16046 0.61915 0.27017 0.0
C2488 C 0.22881 0.65791 0.26582 0.0
C2489 C 0.2234 0.66805 0.24511 0.0
C2490 C 0.21721 0.63444 0.26859 0.0
C2491 C 0.19996 0.62081 0.25013 0.0
C2492 C 0.19508 0.63052 0.22881 0.0
C2493 C 0.20676 0.65407 0.22662 0.0
C2494 C 0.22285 0.6246 0.29155 0.0
C2495 C 0.1769 0.61642 0.20862 0.0
H2496 H 0.17851 0.53638 0.23819 0.0
H2497 H 0.13516 0.57325 0.2657 0.0
H2498 H 0.21076 0.5821 0.21951 0.0
H2499 H 0.22611 0.58804 0.24922 0.0
H2500 H 0.21451 0.55709 0.23509 0.0
H2501 H 0.14571 0.61525 0.27845 0.0
H2502 H 0.1745 0.63124 0.28324 0.0
H2503 H 0.15718 0.62923 0.25502 0.0
H2504 H 0.24191 0.66847 0.28002 0.0
H2505 H 0.20225 0.66185 0.21071 0.0
H2506 H 0.22521 0.60619 0.28803 0.0
H2507 H 0.20901 0.62286 0.30113 0.0
H2508 H 0.23797 0.63654 0.30326 0.0
H2509 H 0.17915 0.59818 0.20377 0.0
H2510 H 0.17626 0.62588 0.19264 0.0
H2511 H 0.16079 0.61369 0.21421 0.0
C2512 C 0.53433 0.74051 0.44145 0.0
C2513 C 0.52378 0.75452 0.45411 0.0
C2514 C 0.54001 0.72027 0.45025 0.0
C2515 C 0.53536 0.71409 0.47241 0.0
C2516 C 0.52523 0.72855 0.48552 0.0
C2517 C 0.51943 0.74841 0.47616 0.0
C2518 C 0.5505 0.70514 0.43555 0.0
C2519 C 0.52023 0.72284 0.50935 0.0
C2520 C 0.52794 0.64887 0.48547 0.0
C2521 C 0.54831 0.64995 0.49973 0.0
C2522 C 0.52367 0.66947 0.47625 0.0
C2523 C 0.54012 0.69189 0.48146 0.0
C2524 C 0.56078 0.69312 0.49575 0.0
C2525 C 0.56468 0.67211 0.50458 0.0
C2526 C 0.50149 0.6672 0.46093 0.0
C2527 C 0.57863 0.71674 0.50201 0.0
H2528 H 0.53772 0.74502 0.4244 0.0
H2529 H 0.51144 0.7592 0.48619 0.0
H2530 H 0.56629 0.70381 0.44597 0.0
H2531 H 0.53959 0.68639 0.43069 0.0
H2532 H 0.55369 0.71276 0.41906 0.0
H2533 H 0.51348 0.73665 0.51793 0.0
H2534 H 0.5081 0.70484 0.50728 0.0
H2535 H 0.53537 0.72179 0.52131 0.0
H2536 H 0.51532 0.63177 0.4812 0.0
H2537 H 0.58045 0.67314 0.51558 0.0
H2538 H 0.50363 0.67293 0.44343 0.0
H2539 H 0.49305 0.67942 0.46924 0.0
H2540 H 0.49066 0.64834 0.4581 0.0
H2541 H 0.58274 0.72394 0.48566 0.0
H2542 H 0.59387 0.71464 0.51305 0.0
H2543 H 0.57269 0.73049 0.51181 0.0
C2544 C 0.67425 0.35177 0.67408 0.0
C2545 C 0.65546 0.35688 0.6805 0.0
C2546 C 0.69263 0.35179 0.69114 0.0
C2547 C 0.69253 0.35743 0.71542 0.0
C2548 C 0.67368 0.36267 0.72216 0.0
C2549 C 0.65526 0.36213 0.70462 0.0
C2550 C 0.71224 0.34584 0.68308 0.0
C2551 C 0.67313 0.36919 0.74784 0.0
C2552 C 0.73609 0.33799 0.75693 0.0
C2553 C 0.75385 0.35879 0.76055 0.0
C2554 C 0.71558 0.33755 0.74317 0.0
C2555 C 0.71265 0.35864 0.73337 0.0
C2556 C 0.73014 0.38018 0.73845 0.0
C2557 C 0.75056 0.37992 0.75174 0.0
C2558 C 0.69752 0.31408 0.73793 0.0
C2559 C 0.72771 0.40321 0.72875 0.0
H2560 H 0.67458 0.34742 0.65555 0.0
H2561 H 0.64084 0.36606 0.70976 0.0
H2562 H 0.72684 0.36177 0.68821 0.0
H2563 H 0.71637 0.33066 0.69189 0.0
H2564 H 0.70928 0.34067 0.66361 0.0
H2565 H 0.65712 0.37231 0.75025 0.0
H2566 H 0.67624 0.35449 0.75809 0.0
H2567 H 0.68642 0.3859 0.75545 0.0
H2568 H 0.73844 0.32178 0.76405 0.0
H2569 H 0.76416 0.39618 0.7547 0.0
H2570 H 0.69485 0.30679 0.71894 0.0
H2571 H 0.68181 0.31728 0.74123 0.0
H2572 H 0.70155 0.3001 0.74874 0.0
H2573 H 0.727 0.40091 0.70936 0.0
H2574 H 0.74164 0.41915 0.73696 0.0
H2575 H 0.71214 0.40707 0.73172 0.0
C2576 C 0.0286 0.3951 0.96971 0.0
C2577 C 0.03168 0.38416 0.94833 0.0
C2578 C 0.0335 0.42045 0.97495 0.0
C2579 C 0.04155 0.43535 0.95834 0.0
C2580 C 0.04559 0.4245 0.93717 0.0
C2581 C 0.0407 0.39902 0.93245 0.0
C2582 C 0.02934 0.43127 0.99795 0.0
C2583 C 0.05424 0.43977 0.91908 0.0
C2584 C 0.02906 0.49685 0.96392 0.0
C2585 C 0.0487 0.51162 0.97799 0.0
C2586 C 0.02691 0.47224 0.95631 0.0
C2587 C 0.04478 0.46214 0.96296 0.0
C2588 C 0.06502 0.47729 0.97602 0.0
C2589 C 0.06674 0.5018 0.98333 0.0
C2590 C 1.00508 0.45674 0.94224 0.0
C2591 C 0.0845 0.46732 0.98348 0.0
H2592 H 0.02179 0.3838 0.98217 0.0
H2593 H 0.04304 0.39073 0.91584 0.0
H2594 H 0.04442 0.44491 0.00778 0.0
H2595 H 0.01627 0.44082 0.99424 0.0
H2596 H 0.02417 0.41729 0.00952 0.0
H2597 H 0.0582 0.42877 0.90447 0.0
H2598 H 0.04175 0.44882 0.9114 0.0
H2599 H 0.06925 0.45428 0.92759 0.0
H2600 H 0.01505 0.50421 0.95962 0.0
H2601 H 0.08208 0.51302 0.99406 0.0
H2602 H 0.99728 0.44346 0.95321 0.0
H2603 H 1.00753 0.44623 0.92636 0.0
H2604 H 0.99358 0.46774 0.93648 0.0
H2605 H 0.08104 0.45529 0.9972 0.0
H2606 H 0.09979 0.48196 0.99088 0.0
H2607 H 0.08739 0.45619 0.96828 0.0
C2608 C 0.0404 0.88471 0.19683 0.0
C2609 C 0.04324 0.86383 0.18458 0.0
C2610 C 0.02166 0.88388 0.20677 0.0
C2611 C 1.0052 0.86164 0.20435 0.0
C2612 C 0.0081 0.84041 0.19233 0.0
C2613 C 0.02709 0.84174 0.18267 0.0
C2614 C 0.01933 0.90691 0.21958 0.0
C2615 C 0.99094 0.81637 0.1893 0.0
C2616 C 0.96485 0.85605 0.24654 0.0
C2617 C 0.94663 0.86116 0.23282 0.0
C2618 C 0.98389 0.85587 0.23744 0.0
C2619 C 0.98477 0.8608 0.21399 0.0
C2620 C 0.96631 0.86561 0.19992 0.0
C2621 C 0.94754 0.86581 0.20951 0.0
C2622 C 1.00322 0.85084 0.25311 0.0
C2623 C 0.96646 0.87076 0.17477 0.0
H2624 H 0.05276 0.90188 0.19847 0.0
H2625 H 0.02906 0.8255 0.17321 0.0
H2626 H 1.00456 0.9116 0.21034 0.0
H2627 H 0.01693 0.90415 0.23781 0.0
H2628 H 0.03392 0.92254 0.22063 0.0
H2629 H 0.99587 0.80141 0.18003 0.0
H2630 H 0.98789 0.8115 0.20682 0.0
H2631 H 0.97514 0.81784 0.17901 0.0
H2632 H 0.96443 0.85273 0.26465 0.0
H2633 H 0.93346 0.86947 0.19868 0.0
H2634 H 0.0177 0.86687 0.25582 0.0
H2635 H 1.00781 0.83533 0.24444 0.0
H2636 H 0.99971 0.84662 0.27069 0.0
H2637 H 0.97975 0.88735 0.17457 0.0
H2638 H 0.95057 0.87343 0.16593 0.0
H2639 H 0.96997 0.85554 0.16429 0.0
C2640 C 0.57764 0.40739 0.09566 0.0
C2641 C 0.5584 0.39548 0.10304 0.0
C2642 C 0.57927 0.4295 0.08611 0.0
C2643 C 0.56139 0.44021 0.08421 0.0
C2644 C 0.54202 0.42831 0.09177 0.0
C2645 C 0.54072 0.40614 0.10089 0.0
C2646 C 0.6001 0.44137 0.07797 0.0
C2647 C 0.52263 0.4391 0.09039 0.0
C2648 C 0.57001 0.50802 0.07973 0.0
C2649 C 0.56136 0.50789 0.0557 0.0
C2650 C 0.57061 0.48624 0.08913 0.0
C2651 C 0.56265 0.4637 0.07415 0.0
C2652 C 0.55456 0.46354 0.04975 0.0
C2653 C 0.55386 0.48553 0.04089 0.0
C2654 C 0.57909 0.4873 0.11529 0.0
C2655 C 0.54616 0.44004 0.03303 0.0
H2656 H 0.59139 0.39936 0.09722 0.0
H2657 H 0.52582 0.3973 0.10669 0.0
H2658 H 0.59623 0.44357 0.05898 0.0
H2659 H 0.60757 0.4598 0.08797 0.0
H2660 H 0.61243 0.43067 0.08037 0.0
H2661 H 0.50896 0.4279 0.0975 0.0
H2662 H 0.52787 0.45761 0.1005 0.0
H2663 H 0.51632 0.44088 0.07174 0.0
H2664 H 0.57578 0.52511 0.0914 0.0
H2665 H 0.5473 0.48513 0.02228 0.0
H2666 H 0.59225 0.47779 0.11819 0.0
H2667 H 0.56559 0.47778 0.12368 0.0
H2668 H 0.5857 0.50626 0.12436 0.0
H2669 H 0.55869 0.4296 0.03454 0.0
H2670 H 0.54198 0.4431 0.0143 0.0
H2671 H 0.53123 0.42864 0.03788 0.0
C2672 C 0.94464 0.30519 0.38946 0.0
C2673 C 0.96595 0.31068 0.38445 0.0
C2674 C 0.92643 0.30667 0.37294 0.0
C2675 C 0.92938 0.31365 0.35057 0.0
C2676 C 0.95062 0.31809 0.34486 0.0
C2677 C 0.96869 0.31662 0.3619 0.0
C2678 C 0.90416 0.30181 0.3799 0.0
C2679 C 0.95439 0.32527 0.3211 0.0
C2680 C 0.87568 0.30232 0.30575 0.0
C2681 C 0.87108 0.32502 0.3084 0.0
C2682 C 0.8952 0.29864 0.31834 0.0
C2683 C 0.9104 0.31802 0.33419 0.0
C2684 C 0.90619 0.34116 0.3363 0.0
C2685 C 0.8867 0.34439 0.32335 0.0
C2686 C 0.89916 0.27378 0.31532 0.0
C2687 C 0.92179 0.3623 0.35313 0.0
H2688 H 0.94218 0.30035 0.40671 0.0
H2689 H 0.98503 0.32085 0.35779 0.0
H2690 H 0.89863 0.3187 0.38047 0.0
H2691 H 0.89178 0.28798 0.36654 0.0
H2692 H 0.90441 0.29535 0.39749 0.0
H2693 H 0.97118 0.32534 0.31834 0.0
H2694 H 0.94213 0.31266 0.30663 0.0
H2695 H 0.95218 0.34373 0.31973 0.0
H2696 H 0.86388 0.28726 0.29409 0.0
H2697 H 0.88344 0.36203 0.32556 0.0
H2698 H 0.89759 0.26533 0.33172 0.0
H2699 H 0.91611 0.27522 0.31239 0.0
H2700 H 0.88728 0.26154 0.30028 0.0
H2701 H 0.92205 0.35838 0.37162 0.0
H2702 H 0.91702 0.37952 0.35143 0.0
H2703 H 0.93878 0.36493 0.34991 0.0
C2704 C 0.0657 0.75906 0.58317 0.0
C2705 C 0.0539 0.75823 0.60158 0.0
C2706 C 0.06437 0.73771 0.56817 0.0
C2707 C 0.05056 0.71511 0.57134 0.0
C2708 C 0.03777 0.71453 0.58914 0.0
C2709 C 0.03975 0.73595 0.6041 0.0
C2710 C 0.07864 0.73912 0.54978 0.0
C2711 C 0.02244 0.6911 0.59288 0.0
C2712 C 0.03527 0.66051 0.52284 0.0
C2713 C 0.04879 0.64632 0.53214 0.0
C2714 C 0.03568 0.68296 0.53528 0.0
C2715 C 0.05045 0.6918 0.55725 0.0
C2716 C 0.06449 0.67771 0.56639 0.0
C2717 C 0.06328 0.65507 0.55389 0.0
C2718 C 0.02003 0.69698 0.52513 0.0
C2719 C 0.08085 0.6866 0.58942 0.0
H2720 H 0.0769 0.7761 0.58134 0.0
H2721 H 0.03053 0.73514 0.61827 0.0
H2722 H 0.09114 0.72902 0.55446 0.0
H2723 H 0.06861 0.73039 0.53219 0.0
H2724 H 0.08727 0.75815 0.54835 0.0
H2725 H 0.01004 0.68335 0.57642 0.0
H2726 H 0.0318 0.67757 0.59684 0.0
H2727 H 0.01373 0.69364 0.6076 0.0
H2728 H 0.02402 0.65382 0.50601 0.0
H2729 H 0.07406 0.64443 0.56089 0.0
H2730 H 0.02932 0.71551 0.52301 0.0
H2731 H 0.00894 0.69907 0.53754 0.0
H2732 H 0.00983 0.68788 0.50769 0.0
H2733 H 0.09179 0.70471 0.58853 0.0
H2734 H 0.09119 0.67399 0.59367 0.0
H2735 H 0.07206 0.68879 0.6041 0.0
C2736 C 0.57621 0.78671 0.86113 0.0
C2737 C 0.57714 0.80622 0.87806 0.0
C2738 C 0.59405 0.78621 0.85 0.0
C2739 C 0.61347 0.80565 0.85594 0.0
C2740 C 0.61441 0.82563 0.8727 0.0
C2741 C 0.59625 0.82571 0.88352 0.0
C2742 C 0.59224 0.76462 0.83213 0.0
C2743 C 0.63477 0.84672 0.87955 0.0
C2744 C 0.66622 0.79101 0.84476 0.0
C2745 C 0.66832 0.79958 0.82301 0.0
C2746 C 0.64875 0.79334 0.85587 0.0
C2747 C 0.63294 0.80459 0.84507 0.0
C2748 C 0.63525 0.81379 0.82339 0.0
C2749 C 0.65285 0.81113 0.81262 0.0
C2750 C 0.64692 0.78321 0.87893 0.0
C2751 C 0.6189 0.82606 0.81135 0.0
H2752 H 0.56155 0.77159 0.85667 0.0
H2753 H 0.59719 0.84087 0.89657 0.0
H2754 H 0.59543 0.77076 0.81507 0.0
H2755 H 0.60488 0.75519 0.83847 0.0
H2756 H 0.57578 0.75135 0.82888 0.0
H2757 H 0.63261 0.86132 0.89212 0.0
H2758 H 0.64886 0.84029 0.88789 0.0
H2759 H 0.63915 0.85455 0.86356 0.0
H2760 H 0.67793 0.78185 0.85282 0.0
H2761 H 0.65452 0.81816 0.79602 0.0
H2762 H 0.63157 0.76831 0.87649 0.0
H2763 H 0.64594 0.79749 0.89261 0.0
H2764 H 0.66109 0.77603 0.8856 0.0
H2765 H 0.60239 0.81294 0.80634 0.0
H2766 H 0.62358 0.83327 0.79518 0.0
H2767 H 0.61749 0.84126 0.82369 0.0
C2768 C 0.45309 0.57978 0.63247 0.0
C2769 C 0.44402 0.55484 0.62474 0.0
C2770 C 0.46964 0.59353 0.62223 0.0
C2771 C 0.47689 0.58206 0.60364 0.0
C2772 C 0.46591 0.55764 0.59403 0.0
C2773 C 0.44976 0.54421 0.60489 0.0
C2774 C 0.48079 0.61951 0.63298 0.0
C2775 C 0.47236 0.54514 0.57336 0.0
C2776 C 0.51769 0.61202 0.56762 0.0
C2777 C 0.53631 0.60515 0.57782 0.0
C2778 C 0.4985 0.60661 0.57716 0.0
C2779 C 0.49807 0.5937 0.59693 0.0
C2780 C 0.51756 0.58869 0.6084 0.0
C2781 C 0.53645 0.59436 0.59855 0.0
C2782 C 0.47827 0.61299 0.56505 0.0
C2783 C 0.51791 0.57526 0.62976 0.0
H2784 H 0.44869 0.58811 0.64784 0.0
H2785 H 0.44248 0.52504 0.59867 0.0
H2786 H 0.49581 0.62001 0.64601 0.0
H2787 H 0.48589 0.63101 0.61937 0.0
H2788 H 0.46989 0.62749 0.64239 0.0
H2789 H 0.46155 0.52645 0.56734 0.0
H2790 H 0.47143 0.55585 0.55835 0.0
H2791 H 0.48961 0.5441 0.57828 0.0
H2792 H 0.5176 0.62003 0.55129 0.0
H2793 H 0.55083 0.58873 0.60608 0.0
H2794 H 0.47 0.62037 0.57821 0.0
H2795 H 0.46636 0.59632 0.55492 0.0
H2796 H 0.48229 0.62652 0.55273 0.0
H2797 H 0.51029 0.58341 0.64312 0.0
H2798 H 0.5349 0.57542 0.63819 0.0
H2799 H 0.50816 0.55607 0.62431 0.0
C2800 C 0.79353 0.29006 0.95153 0.0
C2801 C 0.79925 0.26942 0.95911 0.0
C2802 C 0.79497 0.29611 0.92874 0.0
C2803 C 0.80234 0.28123 0.91286 0.0
C2804 C 0.80885 0.26079 0.92056 0.0
C2805 C 0.80726 0.25513 0.94361 0.0
C2806 C 0.78807 0.31822 0.92147 0.0
C2807 C 0.81688 0.24451 0.90422 0.0
C2808 C 0.78339 0.286 0.84763 0.0
C2809 C 0.80163 0.30291 0.84287 0.0
C2810 C 0.78371 0.27804 0.87004 0.0
C2811 C 0.80275 0.28709 0.88816 0.0
C2812 C 0.82147 0.30347 0.88316 0.0
C2813 C 0.82067 0.31118 0.86067 0.0
C2814 C 0.76339 0.26055 0.87458 0.0
C2815 C 0.84217 0.31342 0.9018 0.0
H2816 H 0.78745 0.30135 0.96333 0.0
H2817 H 0.81161 0.23909 0.94919 0.0
H2818 H 0.80172 0.33077 0.9155 0.0
H2819 H 0.77391 0.31264 0.90632 0.0
H2820 H 0.78327 0.32828 0.9361 0.0
H2821 H 0.8226 0.23025 0.91328 0.0
H2822 H 0.8034 0.23553 0.88899 0.0
H2823 H 0.83057 0.2554 0.89697 0.0
H2824 H 0.76866 0.27935 0.834 0.0
H2825 H 0.83503 0.32393 0.85714 0.0
H2826 H 0.7563 0.26971 0.88779 0.0
H2827 H 0.76769 0.2448 0.8821 0.0
H2828 H 0.75059 0.25373 0.85823 0.0
H2829 H 0.83859 0.32389 0.91701 0.0
H2830 H 0.85552 0.32548 0.89491 0.0
H2831 H 0.84819 0.29828 0.90861 0.0
C2832 C 0.09691 0.48068 0.14578 0.0
C2833 C 0.08196 0.47791 0.16116 0.0
C2834 C 0.09161 0.48838 0.12356 0.0
C2835 C 0.07104 0.49358 0.11691 0.0
C2836 C 0.05515 0.48829 0.13138 0.0
C2837 C 0.06076 0.48033 0.1532 0.0
C2838 C 0.10872 0.49296 0.10825 0.0
C2839 C 0.03298 0.49346 0.12507 0.0
C2840 C 0.06568 0.54692 0.08417 0.0
C2841 C 0.05209 0.53513 0.0627 0.0
C2842 C 0.07303 0.53355 0.10153 0.0
C2843 C 0.06705 0.50779 0.09702 0.0
C2844 C 0.05469 0.49593 0.07461 0.0
C2845 C 0.04709 0.50975 0.0578 0.0
C2846 C 0.08604 0.54695 0.12525 0.0
C2847 C 0.04879 0.46864 0.06876 0.0
H2848 H 0.11334 0.47886 0.15184 0.0
H2849 H 0.04906 0.47792 0.16496 0.0
H2850 H 0.10102 0.48808 0.0892 0.0
H2851 H 0.11753 0.51257 0.1112 0.0
H2852 H 0.12104 0.48254 0.11261 0.0
H2853 H 0.02182 0.48627 0.1371 0.0
H2854 H 0.03528 0.5134 0.12619 0.0
H2855 H 0.02486 0.4854 0.10665 0.0
H2856 H 0.06972 0.56657 0.08784 0.0
H2857 H 0.03699 0.50066 0.04091 0.0
H2858 H 0.10141 0.5413 0.13 0.0
H2859 H 0.07625 0.54231 0.13915 0.0
H2860 H 0.09042 0.56698 0.12543 0.0
H2861 H 0.06368 0.462 0.07312 0.0
H2862 H 0.0412 0.46248 0.04979 0.0
H2863 H 0.03702 0.4601 0.07962 0.0
C2864 C 0.82585 0.87345 0.465 0.0
C2865 C 0.81895 0.89273 0.4751 0.0
C2866 C 0.82268 0.86758 0.44033 0.0
C2867 C 0.8124 0.88133 0.42517 0.0
C2868 C 0.8047 0.90029 0.43518 0.0
C2869 C 0.80801 0.90573 0.46 0.0
C2870 C 0.83092 0.84703 0.4305 0.0
C2871 C 0.79355 0.91531 0.41966 0.0
C2872 C 0.82628 0.88042 0.36342 0.0
C2873 C 0.80818 0.86252 0.34997 0.0
C2874 C 0.8275 0.88732 0.38771 0.0
C2875 C 0.81024 0.87606 0.39891 0.0
C2876 C 0.79164 0.85852 0.38525 0.0
C2877 C 0.79083 0.852 0.36105 0.0
C2878 C 0.84763 0.90612 0.40158 0.0
C2879 C 0.77288 0.84598 0.39637 0.0
H2880 H 0.83423 0.86318 0.47641 0.0
H2881 H 0.8027 0.92072 0.46756 0.0
H2882 H 0.81736 0.8336 0.41799 0.0
H2883 H 0.84391 0.85418 0.42044 0.0
H2884 H 0.83781 0.83749 0.44461 0.0
H2885 H 0.78747 0.92853 0.43007 0.0
H2886 H 0.80529 0.92546 0.40958 0.0
H2887 H 0.77948 0.90333 0.40656 0.0
H2888 H 0.83976 0.8887 0.35513 0.0
H2889 H 0.77669 0.83817 0.35093 0.0
H2890 H 0.85676 0.89762 0.41495 0.0
H2891 H 0.84271 0.92079 0.41129 0.0
H2892 H 0.85891 0.91436 0.39006 0.0
H2893 H 0.77872 0.83449 0.40914 0.0
H2894 H 0.75881 0.83427 0.38301 0.0
H2895 H 0.76696 0.85957 0.40641 0.0
C2896 C 0.4575 0.5525 0.75728 0.0
C2897 C 0.4586 0.53348 0.74097 0.0
C2898 C 0.46681 0.55435 0.7813 0.0
C2899 C 0.47734 0.53667 0.78914 0.0
C2900 C 0.47989 0.51847 0.77255 0.0
C2901 C 0.47054 0.51714 0.74859 0.0
C2902 C 0.46403 0.57422 0.79848 0.0
C2903 C 0.49107 0.49933 0.78028 0.0
C2904 C 0.50896 0.54686 0.85244 0.0
C2905 C 0.49303 0.53375 0.86385 0.0
C2906 C 0.50422 0.54789 0.82803 0.0
C2907 C 0.48311 0.53541 0.81482 0.0
C2908 C 0.46706 0.52192 0.82618 0.0
C2909 C 0.4722 0.52134 0.85058 0.0
C2910 C 0.52167 0.56247 0.81643 0.0
C2911 C 0.44434 0.50834 0.81263 0.0
H2912 H 0.44854 0.56539 0.75148 0.0
H2913 H 0.47158 0.50247 0.73607 0.0
H2914 H 0.45196 0.56622 0.80927 0.0
H2915 H 0.47982 0.58315 0.81084 0.0
H2916 H 0.45807 0.58828 0.78929 0.0
H2917 H 0.49431 0.48853 0.76504 0.0
H2918 H 0.50687 0.50777 0.79278 0.0
H2919 H 0.48042 0.48675 0.78972 0.0
H2920 H 0.52519 0.55624 0.86259 0.0
H2921 H 0.45972 0.51152 0.85936 0.0
H2922 H 0.51579 0.57713 0.80835 0.0
H2923 H 0.52489 0.55068 0.80194 0.0
H2924 H 0.53738 0.57081 0.82917 0.0
H2925 H 0.43587 0.52128 0.80466 0.0
H2926 H 0.43399 0.49817 0.82404 0.0
H2927 H 0.44557 0.49529 0.79793 0.0
C2928 C 0.82185 0.26724 0.1063 0.0
C2929 C 0.80548 0.27417 0.09123 0.0
C2930 C 0.82717 0.27564 0.13084 0.0
C2931 C 0.81571 0.29111 0.14056 0.0
C2932 C 0.79915 0.29801 0.12541 0.0
C2933 C 0.79437 0.28963 0.1011 0.0
C2934 C 0.84509 0.26807 0.14635 0.0
C2935 C 0.78636 0.31433 0.13488 0.0
C2936 C 0.81172 0.30111 0.20556 0.0
C2937 C 0.8253 0.32478 0.2126 0.0
C2938 C 0.80951 0.28912 0.1826 0.0
C2939 C 0.82127 0.30108 0.16632 0.0
C2940 C 0.83612 0.32436 0.17397 0.0
C2941 C 0.83785 0.33594 0.19691 0.0
C2942 C 0.79349 0.26433 0.17532 0.0
C2943 C 0.84922 0.33774 0.15744 0.0
H2944 H 0.83048 0.25524 0.09896 0.0
H2945 H 0.78158 0.29507 0.08981 0.0
H2946 H 0.85841 0.28438 0.155 0.0
H2947 H 0.83848 0.25872 0.16065 0.0
H2948 H 0.85229 0.25576 0.13622 0.0
H2949 H 0.77348 0.31735 0.12089 0.0
H2950 H 0.77834 0.30626 0.14899 0.0
H2951 H 0.79771 0.33223 0.14289 0.0
H2952 H 0.80205 0.2924 0.21761 0.0
H2953 H 0.84855 0.35418 0.20231 0.0
H2954 H 0.801 0.25185 0.1659 0.0
H2955 H 0.77882 0.26588 0.1629 0.0
H2956 H 0.78798 0.25615 0.19074 0.0
H2957 H 0.8571 0.32559 0.14811 0.0
H2958 H 0.86217 0.35402 0.16692 0.0
H2959 H 0.83802 0.3437 0.14378 0.0
C2960 C 0.06359 0.45165 0.29103 0.0
C2961 C 0.08414 0.45158 0.28565 0.0
C2962 C 0.06034 0.45178 0.31435 0.0
C2963 C 0.07798 0.45129 0.33256 0.0
C2964 C 0.09716 0.44641 0.32648 0.0
C2965 C 0.10023 0.44695 0.30298 0.0
C2966 C 0.03919 0.45602 0.3198 0.0
C2967 C 0.11544 0.44343 0.34518 0.0
C2968 C 0.08347 0.50057 0.38231 0.0
C2969 C 0.06986 0.48818 0.39635 0.0
C2970 C 0.08768 0.48828 0.36239 0.0
C2971 C 0.07858 0.46276 0.35682 0.0
C2972 C 0.0668 0.44983 0.37252 0.0
C2973 C 0.06208 0.46282 0.39187 0.0
C2974 C 0.1001 0.50309 0.34614 0.0
C2975 C 0.05799 0.42255 0.36835 0.0
H2976 H 0.05082 0.45434 0.27744 0.0
H2977 H 0.11598 0.44622 0.29882 0.0
H2978 H 0.03233 0.44295 0.33141 0.0
H2979 H 0.04253 0.47462 0.32935 0.0
H2980 H 0.02655 0.45411 0.30352 0.0
H2981 H 0.12544 0.43264 0.33749 0.0
H2982 H 0.12649 0.46155 0.353 0.0
H2983 H 0.10877 0.4344 0.35963 0.0
H2984 H 0.08939 0.52022 0.38586 0.0
H2985 H 0.05175 0.45324 0.40301 0.0
H2986 H 0.08922 0.50128 0.3286 0.0
H2987 H 0.1144 0.49634 0.34332 0.0
H2988 H 0.10623 0.5227 0.35327 0.0
H2989 H 0.04014 0.41762 0.36063 0.0
H2990 H 0.05985 0.41504 0.38544 0.0
H2991 H 0.06645 0.41383 0.35626 0.0
C2992 C 0.80165 0.89003 0.61139 0.0
C2993 C 0.82146 0.88856 0.60476 0.0
C2994 C 0.79537 0.88016 0.63154 0.0
C2995 C 0.80943 0.86902 0.64572 0.0
C2996 C 0.82958 0.86786 0.63927 0.0
C2997 C 0.8352 0.87736 0.61884 0.0
C2998 C 0.7736 0.88146 0.63755 0.0
C2999 C 0.84535 0.8567 0.65406 0.0
C3000 C 0.8046 0.86324 0.71009 0.0
C3001 C 0.79429 0.8384 0.70899 0.0
C3002 C 0.80944 0.87346 0.68968 0.0
C3003 C 0.80332 0.85867 0.6674 0.0
C3004 C 0.7924 0.83368 0.66612 0.0
C3005 C 0.78822 0.82381 0.68692 0.0
C3006 C 0.82152 0.90003 0.69208 0.0
C3007 C 0.78528 0.81729 0.64275 0.0
H3008 H 0.7909 0.89855 0.60063 0.0
H3009 H 0.85065 0.87629 0.61409 0.0
H3010 H 0.76334 0.86289 0.6381 0.0
H3011 H 0.77629 0.89181 0.65539 0.0
H3012 H 0.76433 0.89026 0.62456 0.0
H3013 H 0.86059 0.85769 0.64696 0.0
H3014 H 0.84999 0.86614 0.67249 0.0
H3015 H 0.83728 0.83735 0.65482 0.0
H3016 H 0.80911 0.87471 0.727 0.0
H3017 H 0.78009 0.80465 0.68587 0.0
H3018 H 0.81177 0.90962 0.68054 0.0
H3019 H 0.83741 0.90195 0.68615 0.0
H3020 H 0.82489 0.90913 0.71059 0.0
H3021 H 0.77506 0.82513 0.62977 0.0
H3022 H 0.77571 0.7987 0.64446 0.0
H3023 H 0.79994 0.81589 0.63542 0.0
C3024 C 0.75618 0.47995 0.5267 0.0
C3025 C 0.77634 0.48881 0.54273 0.0
C3026 C 0.7393 0.4918 0.52641 0.0
C3027 C 0.74266 0.51318 0.54239 0.0
C3028 C 0.76306 0.52234 0.55843 0.0
C3029 C 0.77956 0.51004 0.55847 0.0
C3030 C 0.71779 0.48131 0.50913 0.0
C3031 C 0.76746 0.54517 0.57564 0.0
C3032 C 0.7074 0.55701 0.52874 0.0
C3033 C 0.69232 0.55172 0.5439 0.0
C3034 C 0.72368 0.54451 0.52792 0.0
C3035 C 0.72491 0.52602 0.54244 0.0
C3036 C 0.70951 0.52026 0.55747 0.0
C3037 C 0.6935 0.53319 0.55808 0.0
C3038 C 0.73972 0.55127 0.51163 0.0
C3039 C 0.71013 0.50062 0.57316 0.0
H3040 H 0.75345 0.46354 0.51451 0.0
H3041 H 0.79505 0.51713 0.57089 0.0
H3042 H 0.70409 0.47686 0.51889 0.0
H3043 H 0.71442 0.49493 0.49753 0.0
H3044 H 0.71775 0.46461 0.49783 0.0
H3045 H 0.78425 0.55012 0.58676 0.0
H3046 H 0.7655 0.56056 0.56585 0.0
H3047 H 0.75529 0.54271 0.58743 0.0
H3048 H 0.70642 0.5709 0.51733 0.0
H3049 H 0.68215 0.52905 0.57004 0.0
H3050 H 0.73892 0.53511 0.49916 0.0
H3051 H 0.75675 0.55757 0.52212 0.0
H3052 H 0.73641 0.56583 0.50124 0.0
H3053 H 0.70915 0.48327 0.56238 0.0
H3054 H 0.69646 0.49759 0.58308 0.0
H3055 H 0.72597 0.5056 0.58607 0.0
C3056 C 0.19632 0.17985 0.48357 0.0
C3057 C 0.21705 0.18039 0.49661 0.0
C3058 C 0.1774 0.1617 0.4849 0.0
C3059 C 0.17906 0.14387 0.50011 0.0
C3060 C 0.20009 0.14371 0.5126 0.0
C3061 C 0.21889 0.16183 0.5105 0.0
C3062 C 0.15545 0.1623 0.4708 0.0
C3063 C 0.2026 0.12529 0.52927 0.0
C3064 C 0.12665 0.11946 0.5233 0.0
C3065 C 0.11723 0.09711 0.50887 0.0
C3066 C 0.14723 0.13426 0.52138 0.0
C3067 C 0.15856 0.1268 0.50424 0.0
C3068 C 0.14937 0.10392 0.49003 0.0
C3069 C 0.12891 0.08924 0.49268 0.0
C3070 C 0.15652 0.15826 0.53721 0.0
C3071 C 0.16066 0.09543 0.47131 0.0
H3072 H 0.19479 0.19408 0.47271 0.0
H3073 H 0.23482 0.16229 0.52083 0.0
H3074 H 0.14658 0.14409 0.46096 0.0
H3075 H 0.14507 0.16718 0.483 0.0
H3076 H 0.15722 0.1757 0.45799 0.0
H3077 H 0.22013 0.12605 0.53585 0.0
H3078 H 0.19503 0.12877 0.54469 0.0
H3079 H 0.19384 0.10665 0.52042 0.0
H3080 H 0.11774 0.12556 0.53594 0.0
H3081 H 0.12168 0.07201 0.48141 0.0
H3082 H 0.15674 0.17339 0.52643 0.0
H3083 H 0.17376 0.16003 0.54599 0.0
H3084 H 0.14675 0.16037 0.55106 0.0
H3085 H 0.16084 0.1075 0.45729 0.0
H3086 H 0.1523 0.07646 0.46299 0.0
H3087 H 0.17803 0.09657 0.479 0.0
C3088 C 0.24539 0.04754 0.89159 0.0
C3089 C 0.24216 0.06482 0.87657 0.0
C3090 C 0.25615 0.02999 0.88553 0.0
C3091 C 0.264 0.02994 0.86406 0.0
C3092 C 0.26117 0.04763 0.84907 0.0
C3093 C 0.25019 0.06479 0.85545 0.0
C3094 C 0.25872 0.01125 0.90183 0.0
C3095 C 0.26949 0.04826 0.82611 0.0
C3096 C 0.30767 0.9979 0.85428 0.0
C3097 C 0.29509 0.97684 0.83916 0.0
C3098 C 0.29771 0.01508 0.86308 0.0
C3099 C 0.27461 0.01097 0.85678 0.0
C3100 C 0.26174 0.98935 0.84226 0.0
C3101 C 0.27214 0.97262 0.83352 0.0
C3102 C 0.31196 0.03797 0.8785 0.0
C3103 C 0.23704 0.98426 0.83527 0.0
H3104 H 0.23918 0.04742 0.90792 0.0
H3105 H 0.24787 0.07817 0.84382 0.0
H3106 H 0.24981 0.99282 0.89251 0.0
H3107 H 0.27631 0.01158 0.90686 0.0
H3108 H 0.25229 0.01424 0.91822 0.0
H3109 H 0.26666 0.06375 0.81689 0.0
H3110 H 0.28737 0.04964 0.82953 0.0
H3111 H 0.26111 0.03113 0.8141 0.0
H3112 H 0.32536 1.0011 0.85904 0.0
H3113 H 0.2623 0.95659 0.82158 0.0
H3114 H 0.306 0.0404 0.89525 0.0
H3115 H 0.31087 0.05397 0.86931 0.0
H3116 H 0.3295 0.0378 0.88283 0.0
H3117 H 0.22975 0.98613 0.85121 0.0
H3118 H 0.22928 0.96576 0.82543 0.0
H3119 H 0.23287 0.99774 0.82391 0.0
C3120 C 0.38333 1.00165 0.03502 0.0
C3121 C 0.38346 0.97815 0.04001 0.0
C3122 C 0.40319 0.01941 0.03558 0.0
C3123 C 0.42351 0.01341 0.0411 0.0
C3124 C 0.42369 0.99014 0.04738 0.0
C3125 C 0.40376 0.97293 0.04685 0.0
C3126 C 0.40236 0.04417 0.02918 0.0
C3127 C 0.44492 0.98287 0.05338 0.0
C3128 C 0.47272 0.04009 0.01424 0.0
C3129 C 0.48781 0.05423 0.03396 0.0
C3130 C 0.45125 0.02796 0.01602 0.0
C3131 C 0.4445 0.03012 0.03802 0.0
C3132 C 0.45913 0.04561 0.05762 0.0
C3133 C 0.48067 0.05738 0.05542 0.0
C3134 C 0.43628 0.01153 0.99467 0.0
C3135 C 0.45245 0.04874 0.08127 0.0
H3136 H 0.36776 0.00591 0.02985 0.0
H3137 H 0.40412 0.95496 0.05109 0.0
H3138 H 0.41485 0.05865 0.04181 0.0
H3139 H 0.40626 0.04588 0.01132 0.0
H3140 H 0.38587 0.04727 0.02903 0.0
H3141 H 0.44232 0.96462 0.05932 0.0
H3142 H 0.45264 0.98262 0.03758 0.0
H3143 H 0.45673 0.9963 0.06755 0.0
H3144 H 0.47789 0.03762 0.9975 0.0
H3145 H 0.49206 0.06849 0.07071 0.0
H3146 H 0.41994 0.01534 0.99159 0.0
H3147 H 0.43367 0.99231 0.99791 0.0
H3148 H 0.44319 0.01363 0.97834 0.0
H3149 H 0.43569 0.05149 0.07897 0.0
H3150 H 0.4641 0.06435 0.09341 0.0
H3151 H 0.452 0.03204 0.08975 0.0
C3152 C 0.90272 0.70542 0.76736 0.0
C3153 C 0.91929 0.71369 0.78776 0.0
C3154 C 0.88549 0.71649 0.76245 0.0
C3155 C 0.88482 0.73646 0.77822 0.0
C3156 C 0.90138 0.7448 0.79894 0.0
C3157 C 0.91837 0.73325 0.80352 0.0
C3158 C 0.86819 0.70708 0.74017 0.0
C3159 C 0.90134 0.76618 0.81608 0.0
C3160 C 0.85472 0.78237 0.75677 0.0
C3161 C 0.83564 0.77612 0.76637 0.0
C3162 C 0.87045 0.76905 0.7597 0.0
C3163 C 0.86716 0.74909 0.77276 0.0
C3164 C 0.84741 0.74193 0.78144 0.0
C3165 C 0.83184 0.75548 0.77806 0.0
C3166 C 0.89107 0.77717 0.74978 0.0
C3167 C 0.84317 0.72061 0.79523 0.0
H3168 H 0.90322 0.69026 0.75509 0.0
H3169 H 0.9311 0.7398 0.81928 0.0
H3170 H 0.85156 0.70228 0.7446 0.0
H3171 H 0.8686 0.72149 0.72848 0.0
H3172 H 0.8706 0.69083 0.73016 0.0
H3173 H 0.91507 0.77008 0.83166 0.0
H3174 H 0.90275 0.78261 0.80698 0.0
H3175 H 0.88555 0.76268 0.82242 0.0
H3176 H 0.85769 0.79816 0.7475 0.0
H3177 H 0.81721 0.75058 0.78564 0.0
H3178 H 0.89565 0.7614 0.74164 0.0
H3179 H 0.90489 0.78698 0.76438 0.0
H3180 H 0.88914 0.78951 0.73626 0.0
H3181 H 0.84537 0.70428 0.78521 0.0
H3182 H 0.82635 0.71624 0.79923 0.0
H3183 H 0.85529 0.72474 0.81219 0.0
C3184 C 0.83853 0.68068 0.0142 0.0
C3185 C 0.82971 0.68722 0.99256 0.0
C3186 C 0.85593 0.66946 0.01609 0.0
C3187 C 0.86482 0.6646 0.99587 0.0
C3188 C 0.85598 0.67117 0.97401 0.0
C3189 C 0.83862 0.68234 0.97263 0.0
C3190 C 0.8648 0.66275 0.03974 0.0
C3191 C 0.86485 0.66634 0.95198 0.0
C3192 C 0.92227 0.65411 0.0031 0.0
C3193 C 0.91745 0.62865 0.9987 0.0
C3194 C 0.90539 0.66601 0.00252 0.0
C3195 C 0.88305 0.65223 0.99737 0.0
C3196 C 0.87808 0.62656 0.99295 0.0
C3197 C 0.89525 0.61515 0.99363 0.0
C3198 C 0.91148 0.69339 0.00738 0.0
C3199 C 0.85456 0.6111 0.98723 0.0
H3200 H 0.83186 0.68437 0.02974 0.0
H3201 H 0.83205 0.68731 0.9558 0.0
H3202 H 0.86283 0.64286 0.03829 0.0
H3203 H 0.88267 0.67179 0.04516 0.0
H3204 H 0.85635 0.66799 0.05384 0.0
H3205 H 0.85637 0.67275 0.93639 0.0
H3206 H 0.8827 0.67554 0.95502 0.0
H3207 H 0.86293 0.64658 0.94779 0.0
H3208 H 0.9393 0.66476 0.0073 0.0
H3209 H 0.89122 0.59553 0.98978 0.0
H3210 H 0.90445 0.69917 0.02248 0.0
H3211 H 0.90435 0.70085 0.99176 0.0
H3212 H 0.92957 0.70149 0.0115 0.0
H3213 H 0.84589 0.61493 1.0016 0.0
H3214 H 0.85342 0.59135 0.98485 0.0
H3215 H 0.84574 0.61567 0.97075 0.0
C3216 C 0.24492 0.2178 0.87193 0.0
C3217 C 0.24612 0.19361 0.87058 0.0
C3218 C 0.25856 0.23497 0.86127 0.0
C3219 C 0.27384 0.2278 0.84905 0.0
C3220 C 0.2762 0.2039 0.84902 0.0
C3221 C 0.26233 0.18708 0.85983 0.0
C3222 C 0.25582 0.26044 0.86201 0.0
C3223 C 0.29245 0.19566 0.83637 0.0
C3224 C 0.28767 0.26266 0.79822 0.0
C3225 C 0.30765 0.2794 0.80885 0.0
C3226 C 0.27669 0.24544 0.81101 0.0
C3227 C 0.28611 0.24481 0.83489 0.0
C3228 C 0.30673 0.26108 0.84539 0.0
C3229 C 0.31724 0.27822 0.83224 0.0
C3230 C 0.25463 0.22853 0.79923 0.0
C3231 C 0.31734 0.26092 0.87074 0.0
H3232 H 0.23257 0.22309 0.88033 0.0
H3233 H 0.26346 0.16847 0.85872 0.0
H3234 H 0.27176 0.27387 0.86976 0.0
H3235 H 0.2507 0.2643 0.84376 0.0
H3236 H 0.2434 0.26323 0.87251 0.0
H3237 H 0.2939 0.17737 0.84007 0.0
H3238 H 0.28712 0.19502 0.81699 0.0
H3239 H 0.30895 0.20877 0.84165 0.0
H3240 H 0.28029 0.26348 0.78011 0.0
H3241 H 0.33273 0.29114 0.84052 0.0
H3242 H 0.24168 0.2323 0.80841 0.0
H3243 H 0.25476 0.20938 0.80062 0.0
H3244 H 0.25011 0.23055 0.78024 0.0
H3245 H 0.30725 0.26669 0.88281 0.0
H3246 H 0.33425 0.27327 0.87559 0.0
H3247 H 0.3181 0.24227 0.87377 0.0
C3248 C 0.43032 0.11042 0.303 0.0
C3249 C 0.45058 0.1138 0.29569 0.0
C3250 C 0.41643 0.08706 0.30191 0.0
C3251 C 0.42289 0.06671 0.29308 0.0
C3252 C 0.44252 0.07012 0.28407 0.0
C3253 C 0.45621 0.09366 0.28559 0.0
C3254 C 0.39563 0.08411 0.31174 0.0
C3255 C 0.44975 0.04883 0.27415 0.0
C3256 C 0.40612 0.0079 0.31862 0.0
C3257 C 0.38906 0.99384 0.30059 0.0
C3258 C 0.41687 0.03184 0.31656 0.0
C3259 C 0.41059 0.04188 0.29582 0.0
C3260 C 0.3932 0.02797 0.27766 0.0
C3261 C 0.38254 0.00411 0.28031 0.0
C3262 C 0.43527 0.04622 0.33641 0.0
C3263 C 0.38616 0.03813 0.25528 0.0
H3264 H 0.4258 0.12592 0.31073 0.0
H3265 H 0.47171 0.09617 0.27963 0.0
H3266 H 0.38153 0.07122 0.29942 0.0
H3267 H 0.39772 0.07642 0.32868 0.0
H3268 H 0.39154 0.10167 0.31509 0.0
H3269 H 0.46393 0.05466 0.26527 0.0
H3270 H 0.45462 0.03865 0.28869 0.0
H3271 H 0.43598 0.0361 0.26125 0.0
H3272 H 0.41151 1.0 0.33415 0.0
H3273 H 0.36914 0.99346 0.26646 0.0
H3274 H 0.43198 0.06362 0.34248 0.0
H3275 H 0.45098 0.05074 0.32994 0.0
H3276 H 0.4374 0.03613 0.35182 0.0
H3277 H 0.38185 0.05535 0.25965 0.0
H3278 H 0.37181 0.02525 0.24322 0.0
H3279 H 0.40001 0.04241 0.24572 0.0
C3280 C 0.57643 0.42258 0.60949 0.0
C3281 C 0.58631 0.40804 0.59652 0.0
C3282 C 0.57138 0.44322 0.60094 0.0
C3283 C 0.57596 0.44924 0.57871 0.0
C3284 C 0.58542 0.43427 0.5653 0.0
C3285 C 0.59063 0.41403 0.57443 0.0
C3286 C 0.5616 0.4589 0.61594 0.0
C3287 C 0.59028 0.43978 0.54138 0.0
C3288 C 0.54739 0.49195 0.5469 0.0
C3289 C 0.56413 0.51382 0.55143 0.0
C3290 C 0.55094 0.47082 0.55575 0.0
C3291 C 0.57162 0.47164 0.56974 0.0
C3292 C 0.58845 0.49376 0.57462 0.0
C3293 C 0.58454 0.51449 0.56535 0.0
C3294 C 0.53267 0.44753 0.54982 0.0
C3295 C 0.61067 0.49556 0.58963 0.0
H3296 H 0.5731 0.41816 0.6266 0.0
H3297 H 0.59809 0.40282 0.56417 0.0
H3298 H 0.57291 0.47746 0.6206 0.0
H3299 H 0.54584 0.46063 0.60583 0.0
H3300 H 0.55855 0.45147 0.63255 0.0
H3301 H 0.59661 0.42567 0.53264 0.0
H3302 H 0.57517 0.44119 0.5296 0.0
H3303 H 0.60269 0.45756 0.54333 0.0
H3304 H 0.53159 0.49123 0.53614 0.0
H3305 H 0.59745 0.53136 0.56933 0.0
H3306 H 0.52866 0.44058 0.5663 0.0
H3307 H 0.53815 0.43343 0.53992 0.0
H3308 H 0.51748 0.44995 0.53898 0.0
H3309 H 0.60864 0.49 0.60721 0.0
H3310 H 0.62181 0.51424 0.59228 0.0
H3311 H 0.61869 0.48297 0.58116 0.0
C3312 C 0.43374 0.80947 0.37646 0.0
C3313 C 0.45264 0.80451 0.37017 0.0
C3314 C 0.41552 0.80967 0.35926 0.0
C3315 C 0.4159 0.80441 0.33499 0.0
C3316 C 0.43483 0.79923 0.32841 0.0
C3317 C 0.45307 0.79955 0.34608 0.0
C3318 C 0.3958 0.81552 0.36712 0.0
C3319 C 0.43568 0.79304 0.30275 0.0
C3320 C 0.35842 0.78227 0.29727 0.0
C3321 C 0.35541 0.80346 0.28835 0.0
C3322 C 0.37853 0.78193 0.31117 0.0
C3323 C 0.39601 0.80347 0.31681 0.0
C3324 C 0.39339 0.82466 0.30699 0.0
C3325 C 0.37321 0.82427 0.29255 0.0
C3326 C 0.38067 0.75878 0.3208 0.0
C3327 C 0.41144 0.84813 0.31284 0.0
H3328 H 0.43323 0.81357 0.39498 0.0
H3329 H 0.46757 0.79572 0.34103 0.0
H3330 H 0.39182 0.83085 0.35846 0.0
H3331 H 0.3812 0.79964 0.36168 0.0
H3332 H 0.39855 0.82043 0.38661 0.0
H3333 H 0.45166 0.78974 0.30051 0.0
H3334 H 0.42228 0.77653 0.29479 0.0
H3335 H 0.43294 0.80801 0.29271 0.0
H3336 H 0.3448 0.76599 0.29387 0.0
H3337 H 0.3711 0.8405 0.28533 0.0
H3338 H 0.38105 0.76092 0.34013 0.0
H3339 H 0.39631 0.75489 0.31813 0.0
H3340 H 0.36678 0.74291 0.3123 0.0
H3341 H 0.41387 0.85501 0.3319 0.0
H3342 H 0.40757 0.86236 0.30228 0.0
H3343 H 0.42723 0.84505 0.30967 0.0
C3344 C 0.08223 0.76772 0.07609 0.0
C3345 C 0.07695 0.77748 0.09677 0.0
C3346 C 0.07684 0.74255 0.06924 0.0
C3347 C 0.06588 0.72658 0.0834 0.0
C3348 C 0.0597 0.73626 0.1038 0.0
C3349 C 0.06527 0.76162 0.11024 0.0
C3350 C 0.08358 0.73303 0.04723 0.0
C3351 C 0.04786 0.71981 0.11923 0.0
C3352 C 0.04015 0.66186 0.05303 0.0
C3353 C 0.05682 0.65053 0.06028 0.0
C3354 C 0.04241 0.6863 0.06123 0.0
C3355 C 0.06178 0.69982 0.07716 0.0
C3356 C 0.0782 0.6882 0.08544 0.0
C3357 C 0.07555 0.66372 0.07687 0.0
C3358 C 0.02455 0.69798 0.05184 0.0
C3359 C 0.09909 0.70195 0.10249 0.0
H3360 H 0.09112 0.77977 0.06545 0.0
H3361 H 0.06115 0.76895 0.12626 0.0
H3362 H 0.09577 0.72262 0.05212 0.0
H3363 H 0.06913 0.72041 0.03515 0.0
H3364 H 0.09093 0.74784 0.03747 0.0
H3365 H 0.04286 0.73012 0.13354 0.0
H3366 H 0.03298 0.70663 0.10839 0.0
H3367 H 0.05873 0.70916 0.12744 0.0
H3368 H 0.0256 0.65193 0.04017 0.0
H3369 H 0.08851 0.65518 0.08265 0.0
H3370 H 0.03065 0.71107 0.03986 0.0
H3371 H 0.02015 0.70831 0.06655 0.0
H3372 H 0.00946 0.68439 0.04184 0.0
H3373 H 0.10896 0.71596 0.09366 0.0
H3374 H 0.10933 0.68985 0.10883 0.0
H3375 H 0.09516 0.71153 0.11802 0.0
C3376 C 0.07503 0.30108 0.86373 0.0
C3377 C 0.07071 0.32389 0.86677 0.0
C3378 C 0.09282 0.29799 0.85357 0.0
C3379 C 0.10663 0.31815 0.84615 0.0
C3380 C 0.10212 0.34111 0.84874 0.0
C3381 C 0.08427 0.34371 0.85904 0.0
C3382 C 0.09707 0.27321 0.85116 0.0
C3383 C 0.11635 0.36303 0.84094 0.0
C3384 C 0.16488 0.31602 0.84148 0.0
C3385 C 0.16285 0.30977 0.81704 0.0
C3386 C 0.14677 0.31885 0.85116 0.0
C3387 C 0.12604 0.31531 0.83607 0.0
C3388 C 0.12387 0.30901 0.81139 0.0
C3389 C 0.14226 0.30633 0.80219 0.0
C3390 C 0.14982 0.32568 0.87755 0.0
C3391 C 0.10207 0.30498 0.7947 0.0
H3392 H 0.06473 0.28565 0.86967 0.0
H3393 H 0.08109 0.3614 0.86125 0.0
H3394 H 0.09721 0.26729 0.83243 0.0
H3395 H 0.1135 0.2741 0.86168 0.0
H3396 H 0.0845 0.25926 0.85725 0.0
H3397 H 0.1103 0.37945 0.84356 0.0
H3398 H 0.13347 0.36703 0.85105 0.0
H3399 H 0.11691 0.35925 0.82194 0.0
H3400 H 0.18076 0.31901 0.85306 0.0
H3401 H 0.14044 0.30116 0.78333 0.0
H3402 H 0.13857 0.31159 0.88499 0.0
H3403 H 0.14553 0.34303 0.8813 0.0
H3404 H 0.16698 0.32774 0.88687 0.0
H3405 H 0.08957 0.29002 0.79956 0.0
H3406 H 0.10314 0.30039 0.77595 0.0
H3407 H 0.09612 0.32155 0.79624 0.0
C3408 C 0.52221 0.74364 0.98093 0.0
C3409 C 0.5329 0.75564 0.96421 0.0
C3410 C 0.52537 0.72139 0.98709 0.0
C3411 C 0.53968 0.71062 0.97643 0.0
C3412 C 0.55071 0.72265 0.95967 0.0
C3413 C 0.54717 0.74496 0.95373 0.0
C3414 C 0.51325 0.70934 0.00504 0.0
C3415 C 0.5662 0.7119 0.94796 0.0
C3416 C 0.56143 0.66473 0.01074 0.0
C3417 C 0.54725 0.64239 0.99926 0.0
C3418 C 0.55965 0.6869 0.00298 0.0
C3419 C 0.54322 0.68698 0.98326 0.0
C3420 C 0.5292 0.6645 0.97121 0.0
C3421 C 0.5314 0.64253 0.97929 0.0
C3422 C 0.57505 0.71034 0.01634 0.0
C3423 C 0.51142 0.66367 0.95013 0.0
H3424 H 0.5111 0.75156 0.98917 0.0
H3425 H 0.55548 0.75394 0.94076 0.0
H3426 H 0.5029 0.69093 0.99709 0.0
H3427 H 0.5252 0.70709 0.0204 0.0
H3428 H 0.50254 0.71992 0.01157 0.0
H3429 H 0.57356 0.72345 0.93537 0.0
H3430 H 0.57966 0.70949 0.96159 0.0
H3431 H 0.5573 0.69364 0.93825 0.0
H3432 H 0.57391 0.66501 0.02604 0.0
H3433 H 0.52039 0.62547 0.97017 0.0
H3434 H 0.56554 0.72113 0.02487 0.0
H3435 H 0.58322 0.72146 0.00396 0.0
H3436 H 0.58791 0.70717 0.03025 0.0
H3437 H 0.4991 0.67239 0.95577 0.0
H3438 H 0.50284 0.64479 0.94172 0.0
H3439 H 0.51854 0.67408 0.9367 0.0
C3440 C 0.15074 0.8495 0.67649 0.0
C3441 C 0.13463 0.83885 0.68897 0.0
C3442 C 0.1733 0.8531 0.68591 0.0
C3443 C 0.17985 0.84612 0.70838 0.0
C3444 C 0.16366 0.83685 0.72161 0.0
C3445 C 0.14134 0.83324 0.71173 0.0
C3446 C 0.19002 0.86305 0.67123 0.0
C3447 C 0.16981 0.82941 0.74573 0.0
C3448 C 0.23061 0.82288 0.72247 0.0
C3449 C 0.24545 0.84231 0.73809 0.0
C3450 C 0.20965 0.82439 0.71191 0.0
C3451 C 0.20314 0.84582 0.71711 0.0
C3452 C 0.21826 0.86583 0.73225 0.0
C3453 C 0.23926 0.86388 0.7425 0.0
C3454 C 0.19416 0.80263 0.69578 0.0
C3455 C 0.21196 0.88897 0.73831 0.0
H3456 H 0.1457 0.85385 0.6589 0.0
H3457 H 0.12903 0.82529 0.72165 0.0
H3458 H 0.20393 0.87751 0.68211 0.0
H3459 H 0.19688 0.84832 0.66473 0.0
H3460 H 0.18272 0.87056 0.65571 0.0
H3461 H 0.15555 0.82486 0.75471 0.0
H3462 H 0.1763 0.81325 0.74389 0.0
H3463 H 0.183 0.84418 0.75722 0.0
H3464 H 0.23524 0.80622 0.71863 0.0
H3465 H 0.25058 0.87903 0.75448 0.0
H3466 H 0.18759 0.80813 0.6787 0.0
H3467 H 0.17993 0.79504 0.70405 0.0
H3468 H 0.20226 0.78804 0.6921 0.0
H3469 H 0.20494 0.89541 0.72196 0.0
H3470 H 0.2262 0.90368 0.74835 0.0
H3471 H 0.19906 0.88542 0.74917 0.0
C3472 C 0.05967 0.40614 0.46377 0.0
C3473 C 0.04302 0.38967 0.4717 0.0
C3474 C 0.06565 0.43126 0.47228 0.0
C3475 C 0.05456 0.4402 0.48891 0.0
C3476 C 0.03774 0.42364 0.49687 0.0
C3477 C 0.03235 0.39876 0.48838 0.0
C3478 C 0.08372 0.44822 0.46336 0.0
C3479 C 0.02507 0.43227 0.51414 0.0
C3480 C 0.07752 0.49935 0.53127 0.0
C3481 C 0.06613 0.51476 0.52042 0.0
C3482 C 0.07508 0.47562 0.52039 0.0
C3483 C 0.06037 0.46672 0.4984 0.0
C3484 C 0.04932 0.48251 0.48704 0.0
C3485 C 0.0526 0.50642 0.49804 0.0
C3486 C 0.08763 0.45974 0.53292 0.0
C3487 C 0.03327 0.47383 0.46379 0.0
H3488 H 0.06794 0.39947 0.45078 0.0
H3489 H 0.01934 0.38642 0.49459 0.0
H3490 H 0.07677 0.46076 0.45279 0.0
H3491 H 0.09618 0.45953 0.47848 0.0
H3492 H 0.09203 0.43828 0.4521 0.0
H3493 H 0.01199 0.41721 0.51804 0.0
H3494 H 0.03644 0.44105 0.53103 0.0
H3495 H 0.01733 0.4461 0.5069 0.0
H3496 H 0.08817 0.50575 0.54849 0.0
H3497 H 0.04374 0.51821 0.48962 0.0
H3498 H 0.0957 0.45091 0.52048 0.0
H3499 H 0.07606 0.44509 0.53937 0.0
H3500 H 0.10037 0.47016 0.54828 0.0
H3501 H 0.04208 0.46931 0.4498 0.0
H3502 H 0.02475 0.4877 0.4582 0.0
H3503 H 0.02067 0.45704 0.46515 0.0
C3504 C 0.51136 0.35952 0.17328 0.0
C3505 C 0.51826 0.34023 0.1826 0.0
C3506 C 0.49409 0.36744 0.18077 0.0
C3507 C 0.48348 0.35581 0.19797 0.0
C3508 C 0.49047 0.33645 0.2075 0.0
C3509 C 0.5077 0.32894 0.19974 0.0
C3510 C 0.48713 0.38815 0.1702 0.0
C3511 C 0.47964 0.32349 0.22584 0.0
C3512 C 0.45108 0.38564 0.23535 0.0
C3513 C 0.42926 0.37338 0.2247 0.0
C3514 C 0.46889 0.38089 0.22624 0.0
C3515 C 0.46484 0.36345 0.20597 0.0
C3516 C 0.44285 0.35173 0.1946 0.0
C3517 C 0.42537 0.35682 0.20408 0.0
C3518 C 0.49205 0.39378 0.23894 0.0
C3519 C 0.43777 0.33309 0.17291 0.0
H3520 H 0.51938 0.36839 0.16008 0.0
H3521 H 0.51283 0.31403 0.20711 0.0
H3522 H 0.46958 0.38197 0.16122 0.0
H3523 H 0.48863 0.40309 0.18442 0.0
H3524 H 0.49716 0.39544 0.15719 0.0
H3525 H 0.48717 0.30894 0.23168 0.0
H3526 H 0.48091 0.33666 0.24157 0.0
H3527 H 0.46188 0.31524 0.21855 0.0
H3528 H 0.45429 0.39829 0.25139 0.0
H3529 H 0.40858 0.34758 0.19546 0.0
H3530 H 0.50204 0.4018 0.22622 0.0
H3531 H 0.49997 0.38051 0.24712 0.0
H3532 H 0.49248 0.40842 0.25304 0.0
H3533 H 0.44686 0.34058 0.1593 0.0
H3534 H 0.41991 0.32709 0.16504 0.0
H3535 H 0.44329 0.31695 0.17769 0.0
C3536 C 0.66092 0.57895 0.42054 0.0
C3537 C 0.67124 0.60352 0.42899 0.0
C3538 C 0.64388 0.56581 0.43056 0.0
C3539 C 0.63746 0.5775 0.44967 0.0
C3540 C 0.64984 0.60126 0.46011 0.0
C3541 C 0.66644 0.61412 0.44946 0.0
C3542 C 0.63125 0.54053 0.41887 0.0
C3543 C 0.64418 0.61398 0.48117 0.0
C3544 C 0.57814 0.57032 0.45392 0.0
C3545 C 0.57668 0.55824 0.47377 0.0
C3546 C 0.59734 0.5748 0.44459 0.0
C3547 C 0.61565 0.56739 0.45578 0.0
C3548 C 0.61361 0.55347 0.47475 0.0
C3549 C 0.59404 0.54912 0.48367 0.0
C3550 C 0.59866 0.58932 0.42404 0.0
C3551 C 0.63258 0.54477 0.48662 0.0
H3552 H 0.6646 0.57066 0.40468 0.0
H3553 H 0.67463 0.63301 0.45619 0.0
H3554 H 0.62494 0.52889 0.43188 0.0
H3555 H 0.6169 0.54168 0.40569 0.0
H3556 H 0.6416 0.53168 0.40943 0.0
H3557 H 0.65705 0.63098 0.48904 0.0
H3558 H 0.62835 0.61855 0.47574 0.0
H3559 H 0.6421 0.60175 0.4949 0.0
H3560 H 0.56473 0.57764 0.44662 0.0
H3561 H 0.59292 0.54011 0.49933 0.0
H3562 H 0.60566 0.58068 0.4104 0.0
H3563 H 0.60971 0.60782 0.43035 0.0
H3564 H 0.58228 0.59112 0.41564 0.0
H3565 H 0.63928 0.53532 0.47325 0.0
H3566 H 0.62768 0.53222 0.49955 0.0
H3567 H 0.64607 0.5606 0.49594 0.0
C3568 C 0.31589 0.87249 0.09571 0.0
C3569 C 0.31042 0.89335 0.08841 0.0
C3570 C 0.3144 0.86622 0.11843 0.0
C3571 C 0.30723 0.8811 0.1345 0.0
C3572 C 0.30091 0.90173 0.12705 0.0
C3573 C 0.30257 0.90762 0.10408 0.0
C3574 C 0.32113 0.84394 0.12545 0.0
C3575 C 0.29304 0.91799 0.14358 0.0
C3576 C 0.28903 0.85092 0.18665 0.0
C3577 C 0.30813 0.85906 0.20439 0.0
C3578 C 0.28817 0.85877 0.16421 0.0
C3579 C 0.3069 0.8751 0.15918 0.0
C3580 C 0.32601 0.88398 0.17722 0.0
C3581 C 0.32637 0.87594 0.19961 0.0
C3582 C 0.26737 0.84902 0.14567 0.0
C3583 C 0.34637 0.90139 0.17265 0.0
H3584 H 0.32186 0.86121 0.08378 0.0
H3585 H 0.29841 0.92383 0.09872 0.0
H3586 H 0.33537 0.84933 0.14051 0.0
H3587 H 0.30748 0.83145 0.13145 0.0
H3588 H 0.32576 0.83388 0.11068 0.0
H3589 H 0.28731 0.93232 0.13466 0.0
H3590 H 0.27939 0.9071 0.1509 0.0
H3591 H 0.30662 0.92688 0.15875 0.0
H3592 H 0.27467 0.83819 0.1902 0.0
H3593 H 0.34114 0.88249 0.2132 0.0
H3594 H 0.27059 0.83755 0.13093 0.0
H3595 H 0.26198 0.86419 0.13811 0.0
H3596 H 0.25371 0.83794 0.1529 0.0
H3597 H 0.35328 0.89224 0.15924 0.0
H3598 H 0.35927 0.908 0.18893 0.0
H3599 H 0.34214 0.91727 0.16534 0.0
C3600 C 0.99946 0.68137 0.89904 0.0
C3601 C 0.01504 0.68899 0.88496 0.0
C3602 C 1.00557 0.67296 0.92071 0.0
C3603 C 0.02758 0.6719 0.928 0.0
C3604 C 0.04374 0.68252 0.91527 0.0
C3605 C 0.03727 0.69109 0.894 0.0
C3606 C 0.98816 0.66322 0.93468 0.0
C3607 C 0.06749 0.68233 0.92262 0.0
C3608 C 0.05314 0.65199 0.9845 0.0
C3609 C 0.05153 0.62764 0.97675 0.0
C3610 C 0.04363 0.66623 0.96955 0.0
C3611 C 0.03318 0.65613 0.94598 0.0
C3612 C 0.03076 0.63118 0.93849 0.0
C3613 C 0.03963 0.61714 0.95415 0.0
C3614 C 0.04572 0.69227 0.9789 0.0
C3615 C 0.01998 0.61964 0.91346 0.0
H3616 H 0.98224 0.67973 0.89214 0.0
H3617 H 0.04937 0.69722 0.88321 0.0
H3618 H 0.98297 0.64309 0.93111 0.0
H3619 H 0.99475 0.66837 0.95397 0.0
H3620 H 0.97342 0.67003 0.9298 0.0
H3621 H 0.07826 0.6929 0.91182 0.0
H3622 H 0.07376 0.69 0.9415 0.0
H3623 H 0.06875 0.66332 0.92065 0.0
H3624 H 0.06187 0.65997 0.00228 0.0
H3625 H 0.03821 0.59822 0.94832 0.0
H3626 H 0.03264 0.69938 0.96922 0.0
H3627 H 0.06194 0.70377 0.97712 0.0
H3628 H 0.04495 0.69401 0.99801 0.0
H3629 H 1.00322 0.62216 0.90897 0.0
H3630 H 0.01873 0.59987 0.91073 0.0
H3631 H 0.02966 0.62861 0.90089 0.0
C3632 C 0.28027 0.28765 0.58773 0.0
C3633 C 0.28874 0.26966 0.57763 0.0
C3634 C 0.28363 0.29374 0.6124 0.0
C3635 C 0.29573 0.28155 0.6276 0.0
C3636 C 0.30488 0.26386 0.61759 0.0
C3637 C 0.30133 0.25817 0.59275 0.0
C3638 C 0.27376 0.31289 0.6222 0.0
C3639 C 0.31794 0.2505 0.63313 0.0
C3640 C 0.31737 0.3126 0.69124 0.0
C3641 C 0.30113 0.30068 0.70306 0.0
C3642 C 0.31617 0.30611 0.66693 0.0
C3643 C 0.29834 0.28714 0.65392 0.0
C3644 C 0.28222 0.27457 0.66584 0.0
C3645 C 0.28377 0.2815 0.6902 0.0
C3646 C 0.33366 0.32015 0.65503 0.0
C3647 C 0.26294 0.25422 0.6527 0.0
H3648 H 0.27059 0.29676 0.57631 0.0
H3649 H 0.30786 0.24419 0.58522 0.0
H3650 H 0.26156 0.3047 0.63277 0.0
H3651 H 0.28674 0.32743 0.63424 0.0
H3652 H 0.26545 0.3213 0.60804 0.0
H3653 H 0.32477 0.23803 0.6227 0.0
H3654 H 0.33172 0.26364 0.64565 0.0
H3655 H 0.30728 0.23973 0.64387 0.0
H3656 H 0.33086 0.3275 0.70086 0.0
H3657 H 0.27114 0.27214 0.69905 0.0
H3658 H 0.3262 0.33025 0.64189 0.0
H3659 H 0.34077 0.3075 0.64527 0.0
H3660 H 0.34718 0.33336 0.66786 0.0
H3661 H 0.25252 0.26147 0.63936 0.0
H3662 H 0.25258 0.24524 0.66471 0.0
H3663 H 0.26883 0.24036 0.64301 0.0
C3664 C 0.63575 0.63443 0.30777 0.0
C3665 C 0.65307 0.6236 0.31316 0.0
C3666 C 0.62473 0.63276 0.28432 0.0
C3667 C 0.63146 0.62027 0.26596 0.0
C3668 C 0.64794 0.60801 0.27147 0.0
C3669 C 0.65845 0.60969 0.29504 0.0
C3670 C 0.60683 0.64555 0.2791 0.0
C3671 C 0.6556 0.59454 0.25233 0.0
C3672 C 0.60029 0.6047 0.20249 0.0
C3673 C 0.61234 0.62326 0.19184 0.0
C3674 C 0.60551 0.60415 0.22695 0.0
C3675 C 0.62335 0.62238 0.24089 0.0
C3676 C 0.63493 0.64171 0.23041 0.0
C3677 C 0.62916 0.642 0.20603 0.0
C3678 C 0.59259 0.5835 0.23764 0.0
C3679 C 0.6541 0.6615 0.24473 0.0
H3680 H 0.63131 0.64495 0.32173 0.0
H3681 H 0.6717 0.6011 0.29906 0.0
H3682 H 0.61313 0.66215 0.27109 0.0
H3683 H 0.59253 0.63374 0.26615 0.0
H3684 H 0.60113 0.65098 0.29536 0.0
H3685 H 0.66721 0.58426 0.2597 0.0
H3686 H 0.64137 0.58167 0.24019 0.0
H3687 H 0.66401 0.6077 0.24163 0.0
H3688 H 0.58733 0.59008 0.19161 0.0
H3689 H 0.63816 0.65669 0.19796 0.0
H3690 H 0.58813 0.59046 0.25412 0.0
H3691 H 0.60286 0.57099 0.24243 0.0
H3692 H 0.5773 0.57295 0.2252 0.0
H3693 H 0.6491 0.6701 0.26006 0.0
H3694 H 0.66065 0.67585 0.23408 0.0
H3695 H 0.66759 0.65351 0.25185 0.0
C3696 C 0.29292 0.90136 0.94089 0.0
C3697 C 0.30691 0.89185 0.95658 0.0
C3698 C 0.28853 0.89375 0.91622 0.0
C3699 C 0.29844 0.87635 0.90701 0.0
C3700 C 0.31248 0.86672 0.92281 0.0
C3701 C 0.31641 0.87444 0.94721 0.0
C3702 C 0.27334 0.90432 0.89999 0.0
C3703 C 0.32353 0.84823 0.91394 0.0
C3704 C 0.27618 0.83435 0.8488 0.0
C3705 C 0.29104 0.84438 0.83472 0.0
C3706 C 0.27732 0.84563 0.87173 0.0
C3707 C 0.29394 0.86737 0.88105 0.0
C3708 C 0.30823 0.87828 0.86637 0.0
C3709 C 0.30664 0.8666 0.84342 0.0
C3710 C 0.26156 0.83341 0.88651 0.0
C3711 C 0.32617 0.90144 0.87543 0.0
H3712 H 0.28558 0.91489 0.94784 0.0
H3713 H 0.3273 0.86691 0.95897 0.0
H3714 H 0.28211 0.91344 0.88685 0.0
H3715 H 0.2592 0.88956 0.88993 0.0
H3716 H 0.26695 0.91768 0.90981 0.0
H3717 H 0.33443 0.84296 0.92846 0.0
H3718 H 0.31092 0.83162 0.90466 0.0
H3719 H 0.33352 0.85565 0.90098 0.0
H3720 H 0.26401 0.81719 0.84214 0.0
H3721 H 0.31833 0.87425 0.83275 0.0
H3722 H 0.25465 0.84683 0.89543 0.0
H3723 H 0.27052 0.82544 0.90053 0.0
H3724 H 0.24778 0.81866 0.87576 0.0
H3725 H 0.31955 0.91519 0.88425 0.0
H3726 H 0.33392 0.90927 0.86101 0.0
H3727 H 0.33909 0.89767 0.88881 0.0
C3728 C 0.03879 0.71286 0.75719 0.0
C3729 C 0.0172 0.71128 0.76013 0.0
C3730 C 0.04383 0.71148 0.73459 0.0
C3731 C 0.02689 0.70891 0.71461 0.0
C3732 C 1.00633 0.71228 0.71786 0.0
C3733 C 1.00152 0.71308 0.74075 0.0
C3734 C 0.06639 0.70921 0.73204 0.0
C3735 C 0.98867 0.71218 0.697 0.0
C3736 C 0.0469 0.69501 0.65806 0.0
C3737 C 0.0406 0.66955 0.65521 0.0
C3738 C 0.04093 0.7085 0.67616 0.0
C3739 C 0.02886 0.69609 0.69193 0.0
C3740 C 0.02153 0.67032 0.68815 0.0
C3741 C 0.02726 0.65745 0.66964 0.0
C3742 C 0.04787 0.73587 0.6784 0.0
C3743 C 0.0091 0.65609 0.70476 0.0
H3744 H 0.05116 0.71233 0.77233 0.0
H3745 H 0.98491 0.7125 0.74298 0.0
H3746 H 0.06519 0.69021 0.72491 0.0
H3747 H 0.073 0.72118 0.7194 0.0
H3748 H 0.07825 0.71402 0.74922 0.0
H3749 H 0.97653 0.72141 0.70231 0.0
H3750 H 0.996 0.72129 0.68293 0.0
H3751 H 0.97977 0.69316 0.68943 0.0
H3752 H 0.05688 0.7043 0.64648 0.0
H3753 H 0.0225 0.63774 0.66738 0.0
H3754 H 0.06337 0.74233 0.67182 0.0
H3755 H 0.0502 0.74464 0.69685 0.0
H3756 H 0.03481 0.742 0.66742 0.0
H3757 H 0.01919 0.66024 0.72295 0.0
H3758 H 1.00482 0.63615 0.69933 0.0
H3759 H 0.99365 0.66135 0.70543 0.0
C3760 C 0.29193 0.2616 0.42969 0.0
C3761 C 0.28793 0.27572 0.44867 0.0
C3762 C 0.2959 0.2714 0.40874 0.0
C3763 C 0.29661 0.29614 0.40697 0.0
C3764 C 0.2933 0.31062 0.42645 0.0
C3765 C 0.28866 0.30017 0.4468 0.0
C3766 C 0.29876 0.25511 0.38824 0.0
C3767 C 0.29461 0.33722 0.42581 0.0
C3768 C 0.32685 0.32751 0.36166 0.0
C3769 C 0.30947 0.32891 0.34392 0.0
C3770 C 0.32291 0.31706 0.38223 0.0
C3771 C 0.30099 0.30704 0.38494 0.0
C3772 C 0.28334 0.30822 0.36695 0.0
C3773 C 0.2878 0.31957 0.34693 0.0
C3774 C 0.34224 0.31699 0.40118 0.0
C3775 C 0.25972 0.29734 0.36872 0.0
H3776 H 0.2911 0.24263 0.43087 0.0
H3777 H 0.28566 0.31123 0.46141 0.0
H3778 H 0.2861 0.25466 0.37241 0.0
H3779 H 0.31506 0.26242 0.38363 0.0
H3780 H 0.2974 0.23623 0.3922 0.0
H3781 H 0.29275 0.34628 0.44282 0.0
H3782 H 0.31065 0.34677 0.42176 0.0
H3783 H 0.28154 0.33929 0.41153 0.0
H3784 H 0.34366 0.3348 0.35957 0.0
H3785 H 0.27428 0.32084 0.33348 0.0
H3786 H 0.34212 0.29806 0.40397 0.0
H3787 H 0.34096 0.3265 0.41823 0.0
H3788 H 0.35825 0.32597 0.39665 0.0
H3789 H 0.25725 0.27806 0.37171 0.0
H3790 H 0.24796 0.29821 0.35252 0.0
H3791 H 0.25575 0.30712 0.38409 0.0
C3792 C 0.35742 0.68524 0.52302 0.0
C3793 C 0.33716 0.67617 0.50717 0.0
C3794 C 0.37423 0.67327 0.5235 0.0
C3795 C 0.37071 0.65158 0.50791 0.0
C3796 C 0.35024 0.64224 0.49204 0.0
C3797 C 0.3338 0.65465 0.49181 0.0
C3798 C 0.39583 0.68394 0.5406 0.0
C3799 C 0.34569 0.6191 0.47523 0.0
C3800 C 0.41959 0.63083 0.49247 0.0
C3801 C 0.4208 0.6126 0.50702 0.0
C3802 C 0.40367 0.6439 0.49288 0.0
C3803 C 0.38839 0.63861 0.50808 0.0
C3804 C 0.38963 0.62043 0.52298 0.0
C3805 C 0.40582 0.60777 0.52235 0.0
C3806 C 0.40303 0.6632 0.47677 0.0
C3807 C 0.3737 0.61416 0.53946 0.0
H3808 H 0.36025 0.70186 0.53492 0.0
H3809 H 0.31824 0.6474 0.47953 0.0
H3810 H 0.39919 0.67057 0.5525 0.0
H3811 H 0.40946 0.68804 0.53072 0.0
H3812 H 0.39599 0.70089 0.5516 0.0
H3813 H 0.32886 0.61406 0.46417 0.0
H3814 H 0.35779 0.62119 0.46336 0.0
H3815 H 0.34763 0.60391 0.48534 0.0
H3816 H 0.43086 0.6346 0.48037 0.0
H3817 H 0.40682 0.59413 0.53405 0.0
H3818 H 0.40412 0.68076 0.48726 0.0
H3819 H 0.38715 0.65808 0.46394 0.0
H3820 H 0.41664 0.6659 0.46676 0.0
H3821 H 0.37462 0.63057 0.55166 0.0
H3822 H 0.37701 0.59981 0.55015 0.0
H3823 H 0.35662 0.60778 0.52909 0.0
C3824 C 0.91525 0.97856 0.56883 0.0
C3825 C 0.89512 0.97891 0.55501 0.0
C3826 C 0.935 0.99535 0.56745 0.0
C3827 C 0.93478 0.01264 0.55139 0.0
C3828 C 0.91437 0.01373 0.53804 0.0
C3829 C 0.89472 0.997 0.54021 0.0
C3830 C 0.95623 0.99385 0.58247 0.0
C3831 C 0.91342 0.0316 0.52046 0.0
C3832 C 0.98694 0.06471 0.55896 0.0
C3833 C 0.99869 0.05533 0.54374 0.0
C3834 C 0.96586 0.05135 0.5612 0.0
C3835 C 0.95611 0.02827 0.54754 0.0
C3836 C 0.96757 0.01924 0.5314 0.0
C3837 C 0.98878 0.03275 0.52988 0.0
C3838 C 0.95446 0.06149 0.57892 0.0
C3839 C 0.95768 0.99494 0.51617 0.0
H3840 H 0.91563 0.96463 0.58032 0.0
H3841 H 0.87925 0.99713 0.52924 0.0
H3842 H 0.96657 0.98762 0.57098 0.0
H3843 H 0.96571 0.01205 0.59192 0.0
H3844 H 0.95336 0.98108 0.59573 0.0
H3845 H 0.89626 0.03171 0.51309 0.0
H3846 H 0.9228 0.05023 0.52882 0.0
H3847 H 0.92122 0.02678 0.50563 0.0
H3848 H 0.99452 0.08214 0.56977 0.0
H3849 H 0.99773 0.02551 0.51797 0.0
H3850 H 0.953 0.04986 0.59327 0.0
H3851 H 0.93753 0.06129 0.57038 0.0
H3852 H 0.96349 0.08037 0.58695 0.0
H3853 H 0.95627 0.9802 0.52752 0.0
H3854 H 0.96774 0.99155 0.50299 0.0
H3855 H 0.94084 0.99391 0.50664 0.0
C3856 C 0.85729 0.08751 0.22601 0.0
C3857 C 0.86817 0.08614 0.20702 0.0
C3858 C 0.84696 0.10608 0.22957 0.0
C3859 C 0.84755 0.12365 0.21375 0.0
C3860 C 0.85826 0.1222 0.19439 0.0
C3861 C 0.86844 0.10346 0.19125 0.0
C3862 C 0.83565 0.10707 0.25041 0.0
C3863 C 0.85923 0.14064 0.17717 0.0
C3864 C 0.80571 0.16053 0.21221 0.0
C3865 C 0.81808 0.1821 0.22663 0.0
C3866 C 0.81513 0.14139 0.20768 0.0
C3867 C 0.83744 0.14394 0.21782 0.0
C3868 C 0.85011 0.16581 0.23209 0.0
C3869 C 0.84027 0.18462 0.23634 0.0
C3870 C 0.80117 0.11835 0.19227 0.0
C3871 C 0.87397 0.16918 0.2432 0.0
H3872 H 0.85697 0.07418 0.23825 0.0
H3873 H 0.87678 0.10253 0.1765 0.0
H3874 H 0.84361 0.12433 0.26239 0.0
H3875 H 0.81819 0.10677 0.24422 0.0
H3876 H 0.8362 0.09168 0.26072 0.0
H3877 H 0.86768 0.13655 0.16265 0.0
H3878 H 0.84235 0.14124 0.16927 0.0
H3879 H 0.86807 0.15902 0.18664 0.0
H3880 H 0.78862 0.15861 0.20447 0.0
H3881 H 0.84982 0.2011 0.24781 0.0
H3882 H 0.80022 0.10274 0.20251 0.0
H3883 H 0.80883 0.11452 0.17703 0.0
H3884 H 0.78419 0.11943 0.18542 0.0
H3885 H 0.87533 0.15541 0.25532 0.0
H3886 H 0.88166 0.18754 0.25336 0.0
H3887 H 0.88347 0.16639 0.22931 0.0
C3888 C 0.72893 0.16268 0.01827 0.0
C3889 C 0.7281 0.18555 0.01186 0.0
C3890 C 0.70948 0.1449 0.01913 0.0
C3891 C 0.68886 0.15023 0.01355 0.0
C3892 C 0.68794 0.1728 0.00591 0.0
C3893 C 0.70749 0.19006 0.00507 0.0
C3894 C 0.71108 0.12089 0.02701 0.0
C3895 C 0.66636 0.17931 0.99974 0.0
C3896 C 0.63253 0.10483 1.00151 0.0
C3897 C 0.62553 0.10885 0.02291 0.0
C3898 C 0.65379 0.11683 0.99868 0.0
C3899 C 0.66829 0.13346 0.01759 0.0
C3900 C 0.66174 0.13655 0.0396 0.0
C3901 C 0.64052 0.12416 0.04202 0.0
C3902 C 0.66025 0.11272 0.97504 0.0
C3903 C 0.67661 0.15419 0.06021 0.0
H3904 H 0.74475 0.15899 0.02345 0.0
H3905 H 0.70658 0.20752 0.99978 0.0
H3906 H 0.7074 0.12012 0.04504 0.0
H3907 H 0.69877 0.10564 0.0151 0.0
H3908 H 0.72773 0.11817 0.02739 0.0
H3909 H 0.66837 0.19707 0.99284 0.0
H3910 H 0.65455 0.16511 0.98625 0.0
H3911 H 0.65895 0.18022 0.01572 0.0
H3912 H 0.62122 0.09281 0.98669 0.0
H3913 H 0.63542 0.12734 0.0587 0.0
H3914 H 0.67716 0.1104 0.97747 0.0
H3915 H 0.66021 0.12884 0.96572 0.0
H3916 H 0.64876 0.09652 0.96358 0.0
H3917 H 0.69322 0.15105 0.06343 0.0
H3918 H 0.67 0.15272 0.07676 0.0
H3919 H 0.67856 0.17305 0.05599 0.0
C3920 C 0.18049 0.43128 0.23643 0.0
C3921 C 0.18009 0.45101 0.25231 0.0
C3922 C 0.19754 0.41975 0.2404 0.0
C3923 C 0.21464 0.42829 0.26062 0.0
C3924 C 0.21473 0.44874 0.27621 0.0
C3925 C 0.19744 0.45978 0.27192 0.0
C3926 C 0.19684 0.39792 0.22341 0.0
C3927 C 0.23272 0.4585 0.29787 0.0
C3928 C 0.24271 0.38225 0.2854 0.0
C3929 C 0.26211 0.38709 0.27627 0.0
C3930 C 0.22731 0.39569 0.28062 0.0
C3931 C 0.23143 0.41467 0.2665 0.0
C3932 C 0.25135 0.4203 0.25794 0.0
C3933 C 0.26648 0.40641 0.26291 0.0
C3934 C 0.20633 0.38912 0.2902 0.0
C3935 C 0.25639 0.44055 0.243 0.0
H3936 H 0.16719 0.42443 0.22122 0.0
H3937 H 0.19741 0.47517 0.28418 0.0
H3938 H 0.21265 0.40043 0.21723 0.0
H3939 H 0.19457 0.38153 0.23263 0.0
H3940 H 0.18326 0.39453 0.20775 0.0
H3941 H 0.23137 0.4757 0.30713 0.0
H3942 H 0.23191 0.44488 0.31044 0.0
H3943 H 0.24912 0.46177 0.29289 0.0
H3944 H 0.23924 0.36752 0.29592 0.0
H3945 H 0.28136 0.4102 0.25568 0.0
H3946 H 0.19192 0.38357 0.27534 0.0
H3947 H 0.20463 0.40516 0.30115 0.0
H3948 H 0.20578 0.37405 0.30115 0.0
H3949 H 0.24413 0.43621 0.22615 0.0
H3950 H 0.2731 0.44351 0.2388 0.0
H3951 H 0.2551 0.45775 0.25228 0.0
C3952 C 0.26457 0.47474 0.05093 0.0
C3953 C 0.27691 0.479 0.03304 0.0
C3954 C 0.247 0.48523 0.05236 0.0
C3955 C 0.24163 0.50056 0.03562 0.0
C3956 C 0.25417 0.50512 0.01768 0.0
C3957 C 0.27152 0.49425 0.01655 0.0
C3958 C 0.23407 0.47977 0.07171 0.0
C3959 C 0.2492 0.52147 0.99958 0.0
C3960 C 0.18416 0.51107 0.02522 0.0
C3961 C 0.18784 0.53396 0.03846 0.0
C3962 C 0.2014 0.49995 0.02428 0.0
C3963 C 0.22298 0.5119 0.03687 0.0
C3964 C 0.22679 0.53492 0.05037 0.0
C3965 C 0.20927 0.54563 0.05096 0.0
C3966 C 0.19654 0.47539 0.00972 0.0
C3967 C 0.24947 0.5484 0.064 0.0
H3968 H 0.26847 0.46294 0.06372 0.0
H3969 H 0.28091 0.49775 0.00267 0.0
H3970 H 0.23489 0.4969 0.08277 0.0
H3971 H 0.21648 0.47116 0.06382 0.0
H3972 H 0.24024 0.46748 0.08334 0.0
H3973 H 0.2606 0.52342 0.9869 0.0
H3974 H 0.2321 0.51409 0.98946 0.0
H3975 H 0.2504 0.53977 0.0086 0.0
H3976 H 0.1677 0.50168 0.01572 0.0
H3977 H 0.2125 0.56347 0.06093 0.0
H3978 H 0.20119 0.46212 0.02108 0.0
H3979 H 0.20654 0.47659 0.99573 0.0
H3980 H 0.17888 0.46831 1.00119 0.0
H3981 H 0.25573 0.53702 0.0766 0.0
H3982 H 0.24967 0.56589 0.07406 0.0
H3983 H 0.26104 0.5522 0.05163 0.0
C3984 C 0.86634 0.94359 0.18303 0.0
C3985 C 0.8651 0.96774 0.18352 0.0
C3986 C 0.85219 0.92672 0.19346 0.0
C3987 C 0.8363 0.93412 0.20447 0.0
C3988 C 0.83391 0.95794 0.20355 0.0
C3989 C 0.84834 0.97448 0.19307 0.0
C3990 C 0.85509 0.90138 0.19389 0.0
C3991 C 0.81698 0.96639 0.21486 0.0
C3992 C 0.79246 0.88382 0.22075 0.0
C3993 C 0.80144 0.88326 0.24449 0.0
C3994 C 0.80324 0.90082 0.20764 0.0
C3995 C 0.8235 0.91754 0.21856 0.0
C3996 C 0.8322 0.91762 0.24279 0.0
C3997 C 0.82095 0.90056 0.25552 0.0
C3998 C 0.79338 0.90025 0.1819 0.0
C3999 C 0.85386 0.93505 0.25503 0.0
H4000 H 0.87913 0.93814 0.17558 0.0
H4001 H 0.84718 0.99306 0.19349 0.0
H4002 H 0.86013 0.8983 0.21245 0.0
H4003 H 0.83927 0.88767 0.18636 0.0
H4004 H 0.86768 0.89822 0.1838 0.0
H4005 H 0.81556 0.98445 0.21034 0.0
H4006 H 0.80061 0.95309 0.20925 0.0
H4007 H 0.82163 0.96766 0.23439 0.0
H4008 H 0.77732 0.87048 0.21217 0.0
H4009 H 0.82783 0.90025 0.27392 0.0
H4010 H 0.80389 0.89405 0.17061 0.0
H4011 H 0.79277 0.91874 0.17811 0.0
H4012 H 0.7765 0.88786 0.17676 0.0
H4013 H 0.8673 0.93146 0.24659 0.0
H4014 H 0.85788 0.93343 0.27418 0.0
H4015 H 0.85346 0.95403 0.25311 0.0
C4016 C 0.67753 0.05223 0.74815 0.0
C4017 C 0.65766 0.05092 0.75587 0.0
C4018 C 0.6926 0.07474 0.74848 0.0
C4019 C 0.68772 0.09629 0.75694 0.0
C4020 C 0.66856 0.0949 0.76652 0.0
C4021 C 0.65369 0.07222 0.76575 0.0
C4022 C 0.71288 0.07551 0.73813 0.0
C4023 C 0.66299 0.11749 0.77608 0.0
C4024 C 0.72955 0.15786 0.76754 0.0
C4025 C 0.72267 0.16794 0.74726 0.0
C4026 C 0.71882 0.13419 0.77069 0.0
C4027 C 0.70094 0.12028 0.75305 0.0
C4028 C 0.69454 0.12995 0.73211 0.0
C4029 C 0.70539 0.1537 0.72954 0.0
C4030 C 0.72606 0.12441 0.79323 0.0
C4031 C 0.67563 0.11557 0.71278 0.0
H4032 H 0.68074 0.03582 0.74056 0.0
H4033 H 0.63851 0.07128 0.77205 0.0
H4034 H 0.71071 0.08208 0.72061 0.0
H4035 H 0.72759 0.08838 0.74959 0.0
H4036 H 0.71602 0.05733 0.73572 0.0
H4037 H 0.64899 0.11318 0.78547 0.0
H4038 H 0.67744 0.12979 0.78844 0.0
H4039 H 0.65852 0.12753 0.76126 0.0
H4040 H 0.74314 0.16862 0.78113 0.0
H4041 H 0.69974 0.16142 0.71398 0.0
H4042 H 0.72866 0.1062 0.78915 0.0
H4043 H 0.71296 0.12225 0.80387 0.0
H4044 H 0.74148 0.13661 0.80418 0.0
H4045 H 0.67804 0.09753 0.70738 0.0
H4046 H 0.67381 0.12505 0.69689 0.0
H4047 H 0.66005 0.1124 0.71952 0.0
loop_
_geom_bond_atom_site_label_1
_geom_bond_atom_site_label_2
_geom_bond_distance
_geom_bond_site_symmetry_2
_ccdc_geom_bond_type
Zn0 O3 2.031 . S
Zn0 O5 2.049 . S
Zn0 O10 2.067 . S
Zn1 O2 1.962 . S
Zn1 O4 1.986 . S
Zn1 O6 1.996 . S
Zn1 O9 1.943 1_455 S
O2 Zn1 1.962 . S
O2 C7 1.254 . S
O3 Zn0 2.031 . S
O3 C7 1.269 1_655 S
O4 Zn1 1.986 . S
O4 C11 1.262 . S
O5 Zn0 2.049 . S
O5 C13 1.260 1_655 S
O6 Zn1 1.996 . S
O6 C13 1.257 . S
C7 O2 1.254 . S
C7 O3 1.269 1_455 S
C8 O9 1.249 . S
C8 O10 1.270 . S
O9 Zn1 1.943 1_655 S
O9 C8 1.249 . S
O10 Zn0 2.067 . S
O10 C8 1.270 . S
C11 O4 1.262 . S
C11 O12 1.232 . S
O12 C11 1.232 . S
C13 O5 1.260 1_455 S
C13 O6 1.257 . S
Zn14 O17 2.031 . S
Zn14 O19 2.049 . S
Zn14 O24 2.067 . S
Zn15 O16 1.962 . S
Zn15 O18 1.986 . S
Zn15 O20 1.996 . S
Zn15 O23 1.943 . S
O16 Zn15 1.962 . S
O16 C21 1.254 . S
O17 Zn14 2.031 . S
O17 C21 1.269 . S
O18 Zn15 1.986 . S
O18 C25 1.262 . S
O19 Zn14 2.049 . S
O19 C27 1.260 . S
O20 Zn15 1.996 . S
O20 C27 1.257 . S
C21 O16 1.254 . S
C21 O17 1.269 . S
C22 O23 1.249 . S
C22 O24 1.270 . S
O23 Zn15 1.943 . S
O23 C22 1.249 . S
O24 Zn14 2.067 . S
O24 C22 1.270 . S
C25 O18 1.262 . S
C25 O26 1.232 . S
O26 C25 1.232 . S
C27 O19 1.260 . S
C27 O20 1.257 . S
Zn28 O31 2.031 . S
Zn28 O33 2.049 . S
Zn28 O38 2.067 . S
Zn29 O30 1.962 . S
Zn29 O32 1.986 . S
Zn29 O34 1.996 . S
Zn29 O37 1.943 . S
O30 Zn29 1.962 . S
O30 C35 1.254 . S
O31 Zn28 2.031 . S
O31 C35 1.269 . S
O32 Zn29 1.986 . S
O32 C39 1.262 . S
O33 Zn28 2.049 . S
O33 C41 1.260 . S
O34 Zn29 1.996 . S
O34 C41 1.257 . S
C35 O30 1.254 . S
C35 O31 1.269 . S
C36 O37 1.249 . S
C36 O38 1.270 . S
O37 Zn29 1.943 . S
O37 C36 1.249 . S
O38 Zn28 2.067 . S
O38 C36 1.270 . S
C39 O32 1.262 . S
C39 O40 1.232 . S
O40 C39 1.232 . S
C41 O33 1.260 . S
C41 O34 1.257 . S
Zn42 O45 2.031 . S
Zn42 O47 2.049 . S
Zn42 O52 2.067 . S
Zn43 O44 1.962 . S
Zn43 O46 1.986 . S
Zn43 O48 1.996 . S
Zn43 O51 1.943 . S
O44 Zn43 1.962 . S
O44 C49 1.254 . S
O45 Zn42 2.031 . S
O45 C49 1.269 . S
O46 Zn43 1.986 . S
O46 C53 1.262 . S
O47 Zn42 2.049 . S
O47 C55 1.260 . S
O48 Zn43 1.996 . S
O48 C55 1.257 . S
C49 O44 1.254 . S
C49 O45 1.269 . S
C50 O51 1.249 . S
C50 O52 1.270 . S
O51 Zn43 1.943 . S
O51 C50 1.249 . S
O52 Zn42 2.067 . S
O52 C50 1.270 . S
C53 O46 1.262 . S
C53 O54 1.232 . S
O54 C53 1.232 . S
C55 O47 1.260 . S
C55 O48 1.257 . S
Zn56 O59 2.031 . S
Zn56 O61 2.049 . S
Zn56 O66 2.067 . S
Zn57 O58 1.962 . S
Zn57 O60 1.986 . S
Zn57 O62 1.996 . S
Zn57 O65 1.943 . S
O58 Zn57 1.962 . S
O58 C63 1.254 . S
O59 Zn56 2.031 . S
O59 C63 1.269 . S
O60 Zn57 1.986 . S
O60 C67 1.262 . S
O61 Zn56 2.049 . S
O61 C69 1.260 . S
O62 Zn57 1.996 . S
O62 C69 1.257 . S
C63 O58 1.254 . S
C63 O59 1.269 . S
C64 O65 1.249 . S
C64 O66 1.270 . S
O65 Zn57 1.943 . S
O65 C64 1.249 . S
O66 Zn56 2.067 . S
O66 C64 1.270 . S
C67 O60 1.262 . S
C67 O68 1.232 . S
O68 C67 1.232 . S
C69 O61 1.260 . S
C69 O62 1.257 . S
Zn70 O73 2.031 . S
Zn70 O75 2.049 . S
Zn70 O80 2.067 . S
Zn71 O72 1.962 . S
Zn71 O74 1.986 . S
Zn71 O76 1.996 . S
Zn71 O79 1.943 . S
O72 Zn71 1.962 . S
O72 C77 1.254 . S
O73 Zn70 2.031 . S
O73 C77 1.269 . S
O74 Zn71 1.986 . S
O74 C81 1.262 . S
O75 Zn70 2.049 . S
O75 C83 1.260 . S
O76 Zn71 1.996 . S
O76 C83 1.257 . S
C77 O72 1.254 . S
C77 O73 1.269 . S
C78 O79 1.249 . S
C78 O80 1.270 . S
O79 Zn71 1.943 . S
O79 C78 1.249 . S
O80 Zn70 2.067 . S
O80 C78 1.270 . S
C81 O74 1.262 . S
C81 O82 1.232 . S
O82 C81 1.232 . S
C83 O75 1.260 . S
C83 O76 1.257 . S
Zn84 O87 2.031 . S
Zn84 O89 2.049 . S
Zn84 O94 2.067 . S
Zn85 O86 1.962 . S
Zn85 O88 1.986 . S
Zn85 O90 1.996 . S
Zn85 O93 1.943 . S
O86 Zn85 1.962 . S
O86 C91 1.254 . S
O87 Zn84 2.031 . S
O87 C91 1.269 . S
O88 Zn85 1.986 . S
O88 C95 1.262 . S
O89 Zn84 2.049 . S
O89 C97 1.260 . S
O90 Zn85 1.996 . S
O90 C97 1.257 . S
C91 O86 1.254 . S
C91 O87 1.269 . S
C92 O93 1.249 . S
C92 O94 1.270 . S
O93 Zn85 1.943 . S
O93 C92 1.249 . S
O94 Zn84 2.067 . S
O94 C92 1.270 . S
C95 O88 1.262 . S
C95 O96 1.232 . S
O96 C95 1.232 . S
C97 O89 1.260 . S
C97 O90 1.257 . S
Zn98 O101 2.031 1_655 S
Zn98 O103 2.049 . S
Zn98 O108 2.067 . S
Zn99 O100 1.962 . S
Zn99 O102 1.986 . S
Zn99 O104 1.996 . S
Zn99 O107 1.943 . S
O100 Zn99 1.962 . S
O100 C105 1.254 . S
O101 Zn98 2.031 1_455 S
O101 C105 1.269 . S
O102 Zn99 1.986 . S
O102 C109 1.262 . S
O103 Zn98 2.049 . S
O103 C111 1.260 1_655 S
O104 Zn99 1.996 . S
O104 C111 1.257 . S
C105 O100 1.254 . S
C105 O101 1.269 . S
C106 O107 1.249 1_655 S
C106 O108 1.270 . S
O107 Zn99 1.943 . S
O107 C106 1.249 1_455 S
O108 Zn98 2.067 . S
O108 C106 1.270 . S
C109 O102 1.262 . S
C109 O110 1.232 . S
O110 C109 1.232 . S
C111 O103 1.260 1_455 S
C111 O104 1.257 . S
Zn112 O115 2.031 . S
Zn112 O117 2.049 . S
Zn112 O122 2.067 . S
Zn113 O114 1.962 . S
Zn113 O116 1.986 . S
Zn113 O118 1.996 . S
Zn113 O121 1.943 . S
O114 Zn113 1.962 . S
O114 C119 1.254 . S
O115 Zn112 2.031 . S
O115 C119 1.269 . S
O116 Zn113 1.986 . S
O116 C123 1.262 . S
O117 Zn112 2.049 . S
O117 C125 1.260 . S
O118 Zn113 1.996 . S
O118 C125 1.257 . S
C119 O114 1.254 . S
C119 O115 1.269 . S
C120 O121 1.249 . S
C120 O122 1.270 . S
O121 Zn113 1.943 . S
O121 C120 1.249 . S
O122 Zn112 2.067 . S
O122 C120 1.270 . S
C123 O116 1.262 . S
C123 O124 1.232 . S
O124 C123 1.232 . S
C125 O117 1.260 . S
C125 O118 1.257 . S
Zn126 O129 2.031 . S
Zn126 O131 2.049 . S
Zn126 O136 2.067 . S
Zn127 O128 1.962 . S
Zn127 O130 1.986 . S
Zn127 O132 1.996 . S
Zn127 O135 1.943 . S
O128 Zn127 1.962 . S
O128 C133 1.254 . S
O129 Zn126 2.031 . S
O129 C133 1.269 . S
O130 Zn127 1.986 . S
O130 C137 1.262 . S
O131 Zn126 2.049 . S
O131 C139 1.260 . S
O132 Zn127 1.996 . S
O132 C139 1.257 . S
C133 O128 1.254 . S
C133 O129 1.269 . S
C134 O135 1.249 . S
C134 O136 1.270 . S
O135 Zn127 1.943 . S
O135 C134 1.249 . S
O136 Zn126 2.067 . S
O136 C134 1.270 . S
C137 O130 1.262 . S
C137 O138 1.232 . S
O138 C137 1.232 . S
C139 O131 1.260 . S
C139 O132 1.257 . S
Zn140 O143 2.031 . S
Zn140 O145 2.049 . S
Zn140 O150 2.067 . S
Zn141 O142 1.962 . S
Zn141 O144 1.986 . S
Zn141 O146 1.996 . S
Zn141 O149 1.943 . S
O142 Zn141 1.962 . S
O142 C147 1.254 . S
O143 Zn140 2.031 . S
O143 C147 1.269 . S
O144 Zn141 1.986 . S
O144 C151 1.262 . S
O145 Zn140 2.049 . S
O145 C153 1.260 . S
O146 Zn141 1.996 . S
O146 C153 1.257 . S
C147 O142 1.254 . S
C147 O143 1.269 . S
C148 O149 1.249 . S
C148 O150 1.270 . S
O149 Zn141 1.943 . S
O149 C148 1.249 . S
O150 Zn140 2.067 . S
O150 C148 1.270 . S
C151 O144 1.262 . S
C151 O152 1.232 . S
O152 C151 1.232 . S
C153 O145 1.260 . S
C153 O146 1.257 . S
Zn154 O157 2.031 . S
Zn154 O159 2.049 . S
Zn154 O164 2.067 . S
Zn155 O156 1.962 . S
Zn155 O158 1.986 . S
Zn155 O160 1.996 . S
Zn155 O163 1.943 . S
O156 Zn155 1.962 . S
O156 C161 1.254 . S
O157 Zn154 2.031 . S
O157 C161 1.269 . S
O158 Zn155 1.986 . S
O158 C165 1.262 . S
O159 Zn154 2.049 . S
O159 C167 1.260 . S
O160 Zn155 1.996 . S
O160 C167 1.257 . S
C161 O156 1.254 . S
C161 O157 1.269 . S
C162 O163 1.249 . S
C162 O164 1.270 . S
O163 Zn155 1.943 . S
O163 C162 1.249 . S
O164 Zn154 2.067 . S
O164 C162 1.270 . S
C165 O158 1.262 . S
C165 O166 1.232 . S
O166 C165 1.232 . S
C167 O159 1.260 . S
C167 O160 1.257 . S
Zn168 O171 2.035 . S
Zn168 O173 2.049 . S
Zn168 O178 2.067 . S
Zn169 O170 1.962 1_554 S
Zn169 O172 1.986 . S
Zn169 O174 1.996 . S
Zn169 O177 1.943 . S
O170 Zn169 1.962 1_556 S
O170 C175 1.254 . S
O171 Zn168 2.035 . S
O171 C175 1.268 1_554 S
O172 Zn169 1.986 . S
O172 C179 1.262 . S
O173 Zn168 2.049 . S
O173 C181 1.260 . S
O174 Zn169 1.996 . S
O174 C181 1.257 . S
C175 O170 1.254 . S
C175 O171 1.268 1_556 S
C176 O177 1.249 . S
C176 O178 1.270 . S
O177 Zn169 1.943 . S
O177 C176 1.249 . S
O178 Zn168 2.067 . S
O178 C176 1.270 . S
C179 O172 1.262 . S
C179 O180 1.232 . S
O180 C179 1.232 . S
C181 O173 1.260 . S
C181 O174 1.257 . S
Zn182 O185 2.031 1_554 S
Zn182 O187 2.049 . S
Zn182 O192 2.067 . S
Zn183 O184 1.963 . S
Zn183 O186 1.985 1_556 S
Zn183 O188 1.995 1_556 S
Zn183 O191 1.943 . S
O184 Zn183 1.963 . S
O184 C189 1.254 . S
O185 Zn182 2.031 1_556 S
O185 C189 1.269 . S
O186 Zn183 1.985 1_554 S
O186 C193 1.265 . S
O187 Zn182 2.049 . S
O187 C195 1.260 . S
O188 Zn183 1.995 1_554 S
O188 C195 1.257 . S
C189 O184 1.254 . S
C189 O185 1.269 . S
C190 O191 1.249 . S
C190 O192 1.270 1_556 S
O191 Zn183 1.943 . S
O191 C190 1.249 . S
O192 Zn182 2.067 . S
O192 C190 1.270 1_554 S
C193 O186 1.265 . S
C193 O194 1.229 1_554 S
O194 C193 1.229 1_556 S
C195 O187 1.260 . S
C195 O188 1.257 . S
Zn196 O199 2.031 . S
Zn196 O201 2.049 . S
Zn196 O206 2.067 . S
Zn197 O198 1.962 . S
Zn197 O200 1.986 . S
Zn197 O202 1.996 . S
Zn197 O205 1.943 . S
O198 Zn197 1.962 . S
O198 C203 1.254 . S
O199 Zn196 2.031 . S
O199 C203 1.269 . S
O200 Zn197 1.986 . S
O200 C207 1.262 . S
O201 Zn196 2.049 . S
O201 C209 1.260 . S
O202 Zn197 1.996 . S
O202 C209 1.257 . S
C203 O198 1.254 . S
C203 O199 1.269 . S
C204 O205 1.249 . S
C204 O206 1.270 . S
O205 Zn197 1.943 . S
O205 C204 1.249 . S
O206 Zn196 2.067 . S
O206 C204 1.270 . S
C207 O200 1.262 . S
C207 O208 1.232 . S
O208 C207 1.232 . S
C209 O201 1.260 . S
C209 O202 1.257 . S
Zn210 O213 2.031 . S
Zn210 O215 2.049 . S
Zn210 O220 2.067 . S
Zn211 O212 1.962 . S
Zn211 O214 1.986 . S
Zn211 O216 1.996 . S
Zn211 O219 1.943 . S
O212 Zn211 1.962 . S
O212 C217 1.254 . S
O213 Zn210 2.031 . S
O213 C217 1.269 . S
O214 Zn211 1.986 . S
O214 C221 1.262 . S
O215 Zn210 2.049 . S
O215 C223 1.260 . S
O216 Zn211 1.996 . S
O216 C223 1.257 . S
C217 O212 1.254 . S
C217 O213 1.269 . S
C218 O219 1.249 . S
C218 O220 1.270 . S
O219 Zn211 1.943 . S
O219 C218 1.249 . S
O220 Zn210 2.067 . S
O220 C218 1.270 . S
C221 O214 1.262 . S
C221 O222 1.232 . S
O222 C221 1.232 . S
C223 O215 1.260 . S
C223 O216 1.257 . S
Zn224 O227 2.031 . S
Zn224 O229 2.049 . S
Zn224 O234 2.067 1_545 S
Zn225 O226 1.962 . S
Zn225 O228 1.986 . S
Zn225 O230 1.996 . S
Zn225 O233 1.943 . S
O226 Zn225 1.962 . S
O226 C231 1.254 . S
O227 Zn224 2.031 . S
O227 C231 1.269 . S
O228 Zn225 1.986 . S
O228 C235 1.262 . S
O229 Zn224 2.049 . S
O229 C237 1.260 . S
O230 Zn225 1.996 . S
O230 C237 1.257 . S
C231 O226 1.254 . S
C231 O227 1.269 . S
C232 O233 1.249 . S
C232 O234 1.270 1_545 S
O233 Zn225 1.943 . S
O233 C232 1.249 . S
O234 Zn224 2.067 1_565 S
O234 C232 1.270 1_565 S
C235 O228 1.262 . S
C235 O236 1.232 . S
O236 C235 1.232 . S
C237 O229 1.260 . S
C237 O230 1.257 . S
Zn238 O241 2.031 . S
Zn238 O243 2.049 . S
Zn238 O248 2.067 . S
Zn239 O240 1.962 . S
Zn239 O242 1.986 . S
Zn239 O244 1.996 . S
Zn239 O247 1.943 . S
O240 Zn239 1.962 . S
O240 C245 1.254 . S
O241 Zn238 2.031 . S
O241 C245 1.269 . S
O242 Zn239 1.986 . S
O242 C249 1.262 . S
O243 Zn238 2.049 . S
O243 C251 1.260 . S
O244 Zn239 1.996 . S
O244 C251 1.257 . S
C245 O240 1.254 . S
C245 O241 1.269 . S
C246 O247 1.249 . S
C246 O248 1.270 . S
O247 Zn239 1.943 . S
O247 C246 1.249 . S
O248 Zn238 2.067 . S
O248 C246 1.270 . S
C249 O242 1.262 . S
C249 O250 1.232 . S
O250 C249 1.232 . S
C251 O243 1.260 . S
C251 O244 1.257 . S
Zn252 O255 2.031 . S
Zn252 O257 2.049 . S
Zn252 O262 2.067 . S
Zn253 O254 1.962 . S
Zn253 O256 1.986 . S
Zn253 O258 1.996 . S
Zn253 O261 1.943 . S
O254 Zn253 1.962 . S
O254 C259 1.254 . S
O255 Zn252 2.031 . S
O255 C259 1.269 . S
O256 Zn253 1.986 . S
O256 C263 1.262 . S
O257 Zn252 2.049 . S
O257 C265 1.260 . S
O258 Zn253 1.996 . S
O258 C265 1.257 . S
C259 O254 1.254 . S
C259 O255 1.269 . S
C260 O261 1.249 . S
C260 O262 1.270 . S
O261 Zn253 1.943 . S
O261 C260 1.249 . S
O262 Zn252 2.067 . S
O262 C260 1.270 . S
C263 O256 1.262 . S
C263 O264 1.232 . S
O264 C263 1.232 . S
C265 O257 1.260 . S
C265 O258 1.257 . S
Zn266 O269 2.031 . S
Zn266 O271 2.049 . S
Zn266 O276 2.067 . S
Zn267 O268 1.962 . S
Zn267 O270 1.986 . S
Zn267 O272 1.996 . S
Zn267 O275 1.943 1_565 S
O268 Zn267 1.962 . S
O268 C273 1.254 1_565 S
O269 Zn266 2.031 . S
O269 C273 1.269 . S
O270 Zn267 1.986 . S
O270 C277 1.262 . S
O271 Zn266 2.049 . S
O271 C279 1.269 . S
O272 Zn267 1.996 . S
O272 C279 1.252 1_565 S
C273 O268 1.254 1_545 S
C273 O269 1.269 . S
C274 O275 1.249 . S
C274 O276 1.270 . S
O275 Zn267 1.943 1_545 S
O275 C274 1.249 . S
O276 Zn266 2.067 . S
O276 C274 1.270 . S
C277 O270 1.262 . S
C277 O278 1.232 . S
O278 C277 1.232 . S
C279 O271 1.269 . S
C279 O272 1.252 1_545 S
Zn280 O283 2.031 1_554 S
Zn280 O285 2.049 . S
Zn280 O290 2.067 . S
Zn281 O282 1.962 1_554 S
Zn281 O284 1.986 . S
Zn281 O286 1.996 . S
Zn281 O289 1.943 . S
O282 Zn281 1.962 1_556 S
O282 C287 1.254 . S
O283 Zn280 2.031 1_556 S
O283 C287 1.269 . S
O284 Zn281 1.986 . S
O284 C291 1.262 . S
O285 Zn280 2.049 . S
O285 C293 1.260 . S
O286 Zn281 1.996 . S
O286 C293 1.257 . S
C287 O282 1.254 . S
C287 O283 1.269 . S
C288 O289 1.249 . S
C288 O290 1.270 . S
O289 Zn281 1.943 . S
O289 C288 1.249 . S
O290 Zn280 2.067 . S
O290 C288 1.270 . S
C291 O284 1.262 . S
C291 O292 1.232 1_554 S
O292 C291 1.232 1_556 S
C293 O285 1.260 . S
C293 O286 1.257 . S
Zn294 O297 2.031 . S
Zn294 O299 2.049 . S
Zn294 O304 2.067 . S
Zn295 O296 1.962 . S
Zn295 O298 1.986 . S
Zn295 O300 1.996 . S
Zn295 O303 1.943 . S
O296 Zn295 1.962 . S
O296 C301 1.254 . S
O297 Zn294 2.031 . S
O297 C301 1.269 . S
O298 Zn295 1.986 . S
O298 C305 1.262 . S
O299 Zn294 2.049 . S
O299 C307 1.260 . S
O300 Zn295 1.996 . S
O300 C307 1.257 . S
C301 O296 1.254 . S
C301 O297 1.269 . S
C302 O303 1.249 . S
C302 O304 1.270 . S
O303 Zn295 1.943 . S
O303 C302 1.249 . S
O304 Zn294 2.067 . S
O304 C302 1.270 . S
C305 O298 1.262 . S
C305 O306 1.232 . S
O306 C305 1.232 . S
C307 O299 1.260 . S
C307 O300 1.257 . S
Zn308 O311 2.031 . S
Zn308 O313 2.049 . S
Zn308 O318 2.067 . S
Zn309 O310 1.962 . S
Zn309 O312 1.986 . S
Zn309 O314 1.996 . S
Zn309 O317 1.943 . S
O310 Zn309 1.962 . S
O310 C315 1.254 . S
O311 Zn308 2.031 . S
O311 C315 1.269 . S
O312 Zn309 1.986 . S
O312 C319 1.262 . S
O313 Zn308 2.049 . S
O313 C321 1.260 . S
O314 Zn309 1.996 . S
O314 C321 1.257 . S
C315 O310 1.254 . S
C315 O311 1.269 . S
C316 O317 1.249 . S
C316 O318 1.270 . S
O317 Zn309 1.943 . S
O317 C316 1.249 . S
O318 Zn308 2.067 . S
O318 C316 1.270 . S
C319 O312 1.262 . S
C319 O320 1.232 . S
O320 C319 1.232 . S
C321 O313 1.260 . S
C321 O314 1.257 . S
Zn322 O325 2.031 . S
Zn322 O327 2.049 . S
Zn322 O332 2.067 . S
Zn323 O324 1.962 . S
Zn323 O326 1.986 . S
Zn323 O328 1.996 . S
Zn323 O331 1.943 . S
O324 Zn323 1.962 . S
O324 C329 1.254 . S
O325 Zn322 2.031 . S
O325 C329 1.269 . S
O326 Zn323 1.986 . S
O326 C333 1.262 . S
O327 Zn322 2.049 . S
O327 C335 1.260 . S
O328 Zn323 1.996 . S
O328 C335 1.257 . S
C329 O324 1.254 . S
C329 O325 1.269 . S
C330 O331 1.249 . S
C330 O332 1.270 . S
O331 Zn323 1.943 . S
O331 C330 1.249 . S
O332 Zn322 2.067 . S
O332 C330 1.270 . S
C333 O326 1.262 . S
C333 O334 1.232 . S
O334 C333 1.232 . S
C335 O327 1.260 . S
C335 O328 1.257 . S
Pr336 C338 2.880 1_454 S
Pr336 O356 2.562 1_455 S
Pr336 O357 2.490 1_454 S
Pr336 O358 2.695 . S
Pr336 O359 2.512 1_554 S
Pr336 O361 2.437 . S
Pr336 O364 2.436 . S
Pr336 O366 2.438 . S
Pr337 C347 2.880 . S
Pr337 O358 2.436 . S
Pr337 O360 2.438 . S
Pr337 O362 2.562 . S
Pr337 O363 2.490 . S
Pr337 O364 2.695 . S
Pr337 O365 2.512 . S
Pr337 O367 2.437 . S
C338 Pr336 2.880 1_656 S
C338 C339 1.491 . S
C338 O356 1.254 1_556 S
C338 O357 1.225 . S
C339 C338 1.491 . S
C339 C340 1.392 . S
C339 C344 1.356 . S
C340 C339 1.392 . S
C340 C341 1.368 . S
C340 H368 0.929 . S
C341 C340 1.368 . S
C341 C342 1.386 . S
C341 H369 0.929 . S
C342 C341 1.386 . S
C342 C343 1.373 . S
C343 C342 1.373 . S
C343 C344 1.409 . S
C343 H370 0.934 . S
C344 C339 1.356 . S
C344 C343 1.409 . S
C344 H371 0.930 1_556 S
C345 O358 1.270 1_556 S
C345 O359 1.248 . S
C346 O360 1.267 . S
C346 O361 1.278 . S
C347 Pr337 2.880 . S
C347 C348 1.491 . S
C347 O362 1.254 . S
C347 O363 1.225 . S
C348 C347 1.491 . S
C348 C349 1.392 . S
C348 C353 1.356 . S
C349 C348 1.392 . S
C349 C350 1.368 . S
C349 H372 0.929 . S
C350 C349 1.368 . S
C350 C351 1.386 . S
C350 H373 0.929 . S
C351 C350 1.386 . S
C351 C352 1.373 . S
C352 C351 1.373 . S
C352 C353 1.409 . S
C352 H374 0.931 . S
C353 C348 1.356 . S
C353 C352 1.409 . S
C353 H375 0.930 . S
C354 O364 1.270 . S
C354 O365 1.248 . S
C355 O366 1.267 . S
C355 O367 1.278 . S
O356 Pr336 2.562 1_655 S
O356 C338 1.254 1_554 S
O357 Pr336 2.490 1_656 S
O357 C338 1.225 . S
O358 Pr336 2.695 . S
O358 Pr337 2.436 . S
O358 C345 1.270 1_554 S
O359 Pr336 2.512 1_556 S
O359 C345 1.248 . S
O360 Pr337 2.438 . S
O360 C346 1.267 . S
O361 Pr336 2.437 . S
O361 C346 1.278 . S
O362 Pr337 2.562 . S
O362 C347 1.254 . S
O363 Pr337 2.490 . S
O363 C347 1.225 . S
O364 Pr336 2.436 . S
O364 Pr337 2.695 . S
O364 C354 1.270 . S
O365 Pr337 2.512 . S
O365 C354 1.248 . S
O366 Pr336 2.438 . S
O366 C355 1.267 . S
O367 Pr337 2.437 . S
O367 C355 1.278 . S
H368 C340 0.929 . S
H369 C341 0.929 . S
H370 C343 0.934 . S
H371 C344 0.930 1_554 S
H372 C349 0.929 . S
H373 C350 0.929 . S
H374 C352 0.931 . S
H375 C353 0.930 . S
Pr376 C378 2.880 . S
Pr376 O396 2.562 . S
Pr376 O397 2.490 . S
Pr376 O398 2.695 . S
Pr376 O399 2.512 . S
Pr376 O401 2.437 . S
Pr376 O404 2.436 . S
Pr376 O406 2.438 . S
Pr377 C387 2.880 . S
Pr377 O398 2.436 . S
Pr377 O400 2.438 . S
Pr377 O402 2.562 . S
Pr377 O403 2.490 . S
Pr377 O404 2.695 . S
Pr377 O405 2.512 . S
Pr377 O407 2.437 . S
C378 Pr376 2.880 . S
C378 C379 1.491 . S
C378 O396 1.254 . S
C378 O397 1.225 . S
C379 C378 1.491 . S
C379 C380 1.392 . S
C379 C384 1.356 . S
C380 C379 1.392 . S
C380 C381 1.368 . S
C380 H408 0.929 . S
C381 C380 1.368 . S
C381 C382 1.386 . S
C381 H409 0.929 . S
C382 C381 1.386 . S
C382 C383 1.373 . S
C383 C382 1.373 . S
C383 C384 1.409 . S
C383 H410 0.931 . S
C384 C379 1.356 . S
C384 C383 1.409 . S
C384 H411 0.930 . S
C385 O398 1.270 . S
C385 O399 1.248 . S
C386 O400 1.267 . S
C386 O401 1.278 . S
C387 Pr377 2.880 . S
C387 C388 1.491 . S
C387 O402 1.254 . S
C387 O403 1.225 . S
C388 C387 1.491 . S
C388 C389 1.392 . S
C388 C393 1.356 . S
C389 C388 1.392 . S
C389 C390 1.368 . S
C389 H412 0.929 . S
C390 C389 1.368 . S
C390 C391 1.386 . S
C390 H413 0.929 . S
C391 C390 1.386 . S
C391 C392 1.373 . S
C392 C391 1.373 . S
C392 C393 1.409 . S
C392 H414 0.931 . S
C393 C388 1.356 . S
C393 C392 1.409 . S
C393 H415 0.930 . S
C394 O404 1.270 . S
C394 O405 1.248 . S
C395 O406 1.267 . S
C395 O407 1.278 . S
O396 Pr376 2.562 . S
O396 C378 1.254 . S
O397 Pr376 2.490 . S
O397 C378 1.225 . S
O398 Pr376 2.695 . S
O398 Pr377 2.436 . S
O398 C385 1.270 . S
O399 Pr376 2.512 . S
O399 C385 1.248 . S
O400 Pr377 2.438 . S
O400 C386 1.267 . S
O401 Pr376 2.437 . S
O401 C386 1.278 . S
O402 Pr377 2.562 . S
O402 C387 1.254 . S
O403 Pr377 2.490 . S
O403 C387 1.225 . S
O404 Pr376 2.436 . S
O404 Pr377 2.695 . S
O404 C394 1.270 . S
O405 Pr377 2.512 . S
O405 C394 1.248 . S
O406 Pr376 2.438 . S
O406 C395 1.267 . S
O407 Pr377 2.437 . S
O407 C395 1.278 . S
H408 C380 0.929 . S
H409 C381 0.929 . S
H410 C383 0.931 . S
H411 C384 0.930 . S
H412 C389 0.929 . S
H413 C390 0.929 . S
H414 C392 0.931 . S
H415 C393 0.930 . S
Pr416 C418 2.880 . S
Pr416 O436 2.562 . S
Pr416 O437 2.490 . S
Pr416 O438 2.695 . S
Pr416 O439 2.512 . S
Pr416 O441 2.437 . S
Pr416 O444 2.436 . S
Pr416 O446 2.438 . S
Pr417 C427 2.880 . S
Pr417 O438 2.436 . S
Pr417 O440 2.438 . S
Pr417 O442 2.562 . S
Pr417 O443 2.490 . S
Pr417 O444 2.695 . S
Pr417 O445 2.512 . S
Pr417 O447 2.437 . S
C418 Pr416 2.880 . S
C418 C419 1.491 . S
C418 O436 1.254 . S
C418 O437 1.225 . S
C419 C418 1.491 . S
C419 C420 1.392 . S
C419 C424 1.356 . S
C420 C419 1.392 . S
C420 C421 1.368 . S
C420 H448 0.929 . S
C421 C420 1.368 . S
C421 C422 1.386 . S
C421 H449 0.929 . S
C422 C421 1.386 . S
C422 C423 1.373 . S
C423 C422 1.373 . S
C423 C424 1.409 . S
C423 H450 0.948 . S
C424 C419 1.356 . S
C424 C423 1.409 . S
C424 H451 0.930 . S
C425 O438 1.270 . S
C425 O439 1.248 . S
C426 O440 1.267 . S
C426 O441 1.278 . S
C427 Pr417 2.880 . S
C427 C428 1.491 . S
C427 O442 1.254 . S
C427 O443 1.225 . S
C428 C427 1.491 . S
C428 C429 1.392 . S
C428 C433 1.356 . S
C429 C428 1.392 . S
C429 C430 1.368 . S
C429 H452 0.929 . S
C430 C429 1.368 . S
C430 C431 1.386 . S
C430 H453 0.929 . S
C431 C430 1.386 . S
C431 C432 1.373 . S
C432 C431 1.373 . S
C432 C433 1.409 . S
C432 H454 0.931 . S
C433 C428 1.356 . S
C433 C432 1.409 . S
C433 H455 0.930 . S
C434 O444 1.270 . S
C434 O445 1.248 . S
C435 O446 1.267 . S
C435 O447 1.278 . S
O436 Pr416 2.562 . S
O436 C418 1.254 . S
O437 Pr416 2.490 . S
O437 C418 1.225 . S
O438 Pr416 2.695 . S
O438 Pr417 2.436 . S
O438 C425 1.270 . S
O439 Pr416 2.512 . S
O439 C425 1.248 . S
O440 Pr417 2.438 . S
O440 C426 1.267 . S
O441 Pr416 2.437 . S
O441 C426 1.278 . S
O442 Pr417 2.562 . S
O442 C427 1.254 . S
O443 Pr417 2.490 . S
O443 C427 1.225 . S
O444 Pr416 2.436 . S
O444 Pr417 2.695 . S
O444 C434 1.270 . S
O445 Pr417 2.512 . S
O445 C434 1.248 . S
O446 Pr416 2.438 . S
O446 C435 1.267 . S
O447 Pr417 2.437 . S
O447 C435 1.278 . S
H448 C420 0.929 . S
H449 C421 0.929 . S
H450 C423 0.948 . S
H451 C424 0.930 . S
H452 C429 0.929 . S
H453 C430 0.929 . S
H454 C432 0.931 . S
H455 C433 0.930 . S
Pr456 C458 2.880 . S
Pr456 O476 2.562 . S
Pr456 O477 2.490 . S
Pr456 O478 2.695 . S
Pr456 O479 2.512 . S
Pr456 O481 2.437 . S
Pr456 O484 2.436 . S
Pr456 O486 2.438 . S
Pr457 C467 2.880 . S
Pr457 O478 2.436 . S
Pr457 O480 2.438 . S
Pr457 O482 2.562 . S
Pr457 O483 2.490 . S
Pr457 O484 2.695 . S
Pr457 O485 2.512 . S
Pr457 O487 2.437 . S
C458 Pr456 2.880 . S
C458 C459 1.491 . S
C458 O476 1.254 . S
C458 O477 1.225 . S
C459 C458 1.491 . S
C459 C460 1.392 . S
C459 C464 1.356 . S
C460 C459 1.392 . S
C460 C461 1.368 . S
C460 H488 0.929 . S
C461 C460 1.368 . S
C461 C462 1.386 . S
C461 H489 0.929 . S
C462 C461 1.386 . S
C462 C463 1.373 . S
C463 C462 1.373 . S
C463 C464 1.409 . S
C463 H490 0.931 . S
C464 C459 1.356 . S
C464 C463 1.409 . S
C464 H491 0.930 . S
C465 O478 1.270 . S
C465 O479 1.248 . S
C466 O480 1.267 . S
C466 O481 1.278 . S
C467 Pr457 2.880 . S
C467 C468 1.491 . S
C467 O482 1.254 . S
C467 O483 1.225 . S
C468 C467 1.491 . S
C468 C469 1.392 . S
C468 C473 1.356 . S
C469 C468 1.392 . S
C469 C470 1.368 . S
C469 H492 0.929 . S
C470 C469 1.368 . S
C470 C471 1.386 . S
C470 H493 0.929 . S
C471 C470 1.386 . S
C471 C472 1.373 . S
C472 C471 1.373 . S
C472 C473 1.409 . S
C472 H494 0.931 . S
C473 C468 1.356 . S
C473 C472 1.409 . S
C473 H495 0.930 . S
C474 O484 1.270 . S
C474 O485 1.248 . S
C475 O486 1.267 . S
C475 O487 1.278 . S
O476 Pr456 2.562 . S
O476 C458 1.254 . S
O477 Pr456 2.490 . S
O477 C458 1.225 . S
O478 Pr456 2.695 . S
O478 Pr457 2.436 . S
O478 C465 1.270 . S
O479 Pr456 2.512 . S
O479 C465 1.248 . S
O480 Pr457 2.438 . S
O480 C466 1.267 . S
O481 Pr456 2.437 . S
O481 C466 1.278 . S
O482 Pr457 2.562 . S
O482 C467 1.254 . S
O483 Pr457 2.490 . S
O483 C467 1.225 . S
O484 Pr456 2.436 . S
O484 Pr457 2.695 . S
O484 C474 1.270 . S
O485 Pr457 2.512 . S
O485 C474 1.248 . S
O486 Pr456 2.438 . S
O486 C475 1.267 . S
O487 Pr457 2.437 . S
O487 C475 1.278 . S
H488 C460 0.929 . S
H489 C461 0.929 . S
H490 C463 0.931 . S
H491 C464 0.930 . S
H492 C469 0.929 . S
H493 C470 0.929 . S
H494 C472 0.931 . S
H495 C473 0.930 . S
Pr496 C498 2.880 . S
Pr496 O516 2.562 . S
Pr496 O517 2.490 . S
Pr496 O518 2.695 . S
Pr496 O519 2.512 . S
Pr496 O521 2.437 . S
Pr496 O524 2.436 . S
Pr496 O526 2.438 . S
Pr497 C507 2.880 . S
Pr497 O518 2.436 . S
Pr497 O520 2.438 . S
Pr497 O522 2.562 . S
Pr497 O523 2.490 . S
Pr497 O524 2.695 . S
Pr497 O525 2.512 . S
Pr497 O527 2.437 . S
C498 Pr496 2.880 . S
C498 C499 1.491 . S
C498 O516 1.254 . S
C498 O517 1.225 . S
C499 C498 1.491 . S
C499 C500 1.392 . S
C499 C504 1.356 1_455 S
C500 C499 1.392 . S
C500 C501 1.368 . S
C500 H528 0.929 . S
C501 C500 1.368 . S
C501 C502 1.386 1_455 S
C501 H529 0.929 . S
C502 C501 1.386 1_655 S
C502 C503 1.373 . S
C503 C502 1.373 . S
C503 C504 1.409 . S
C503 H530 0.931 . S
C504 C499 1.356 1_655 S
C504 C503 1.409 . S
C504 H531 0.930 . S
C505 O518 1.270 . S
C505 O519 1.248 . S
C506 O520 1.267 . S
C506 O521 1.278 . S
C507 Pr497 2.880 . S
C507 C508 1.491 . S
C507 O522 1.254 . S
C507 O523 1.225 . S
C508 C507 1.491 . S
C508 C509 1.392 . S
C508 C513 1.356 . S
C509 C508 1.392 . S
C509 C510 1.368 . S
C509 H532 0.929 . S
C510 C509 1.368 . S
C510 C511 1.386 . S
C510 H533 0.929 . S
C511 C510 1.386 . S
C511 C512 1.373 . S
C512 C511 1.373 . S
C512 C513 1.409 . S
C512 H534 0.931 . S
C513 C508 1.356 . S
C513 C512 1.409 . S
C513 H535 0.930 . S
C514 O524 1.270 . S
C514 O525 1.248 . S
C515 O526 1.267 . S
C515 O527 1.278 . S
O516 Pr496 2.562 . S
O516 C498 1.254 . S
O517 Pr496 2.490 . S
O517 C498 1.225 . S
O518 Pr496 2.695 . S
O518 Pr497 2.436 . S
O518 C505 1.270 . S
O519 Pr496 2.512 . S
O519 C505 1.248 . S
O520 Pr497 2.438 . S
O520 C506 1.267 . S
O521 Pr496 2.437 . S
O521 C506 1.278 . S
O522 Pr497 2.562 . S
O522 C507 1.254 . S
O523 Pr497 2.490 . S
O523 C507 1.225 . S
O524 Pr496 2.436 . S
O524 Pr497 2.695 . S
O524 C514 1.270 . S
O525 Pr497 2.512 . S
O525 C514 1.248 . S
O526 Pr496 2.438 . S
O526 C515 1.267 . S
O527 Pr497 2.437 . S
O527 C515 1.278 . S
H528 C500 0.929 . S
H529 C501 0.929 . S
H530 C503 0.931 . S
H531 C504 0.930 . S
H532 C509 0.929 . S
H533 C510 0.929 . S
H534 C512 0.931 . S
H535 C513 0.930 . S
Pr536 C538 2.880 . S
Pr536 O556 2.562 . S
Pr536 O557 2.490 . S
Pr536 O558 2.695 . S
Pr536 O559 2.512 . S
Pr536 O561 2.437 . S
Pr536 O564 2.436 . S
Pr536 O566 2.438 . S
Pr537 C547 2.880 . S
Pr537 O558 2.436 . S
Pr537 O560 2.438 . S
Pr537 O562 2.562 . S
Pr537 O563 2.490 . S
Pr537 O564 2.695 . S
Pr537 O565 2.512 . S
Pr537 O567 2.437 . S
C538 Pr536 2.880 . S
C538 C539 1.491 . S
C538 O556 1.254 . S
C538 O557 1.225 . S
C539 C538 1.491 . S
C539 C540 1.392 . S
C539 C544 1.356 . S
C540 C539 1.392 . S
C540 C541 1.368 . S
C540 H568 0.929 . S
C541 C540 1.368 . S
C541 C542 1.386 . S
C541 H569 0.929 . S
C542 C541 1.386 . S
C542 C543 1.373 . S
C543 C542 1.373 . S
C543 C544 1.409 . S
C543 H570 0.931 . S
C544 C539 1.356 . S
C544 C543 1.409 . S
C544 H571 0.930 . S
C545 O558 1.270 . S
C545 O559 1.248 . S
C546 O560 1.267 . S
C546 O561 1.278 . S
C547 Pr537 2.880 . S
C547 C548 1.491 . S
C547 O562 1.254 . S
C547 O563 1.225 . S
C548 C547 1.491 . S
C548 C549 1.392 . S
C548 C553 1.356 . S
C549 C548 1.392 . S
C549 C550 1.368 . S
C549 H572 0.929 . S
C550 C549 1.368 . S
C550 C551 1.386 . S
C550 H573 0.929 . S
C551 C550 1.386 . S
C551 C552 1.373 . S
C552 C551 1.373 . S
C552 C553 1.409 . S
C552 H574 0.931 . S
C553 C548 1.356 . S
C553 C552 1.409 . S
C553 H575 0.930 . S
C554 O564 1.270 . S
C554 O565 1.248 . S
C555 O566 1.267 . S
C555 O567 1.278 . S
O556 Pr536 2.562 . S
O556 C538 1.254 . S
O557 Pr536 2.490 . S
O557 C538 1.225 . S
O558 Pr536 2.695 . S
O558 Pr537 2.436 . S
O558 C545 1.270 . S
O559 Pr536 2.512 . S
O559 C545 1.248 . S
O560 Pr537 2.438 . S
O560 C546 1.267 . S
O561 Pr536 2.437 . S
O561 C546 1.278 . S
O562 Pr537 2.562 . S
O562 C547 1.254 . S
O563 Pr537 2.490 . S
O563 C547 1.225 . S
O564 Pr536 2.436 . S
O564 Pr537 2.695 . S
O564 C554 1.270 . S
O565 Pr537 2.512 . S
O565 C554 1.248 . S
O566 Pr536 2.438 . S
O566 C555 1.267 . S
O567 Pr537 2.437 . S
O567 C555 1.278 . S
H568 C540 0.929 . S
H569 C541 0.929 . S
H570 C543 0.931 . S
H571 C544 0.930 . S
H572 C549 0.929 . S
H573 C550 0.929 . S
H574 C552 0.931 . S
H575 C553 0.930 . S
Pr576 C578 2.880 . S
Pr576 O596 2.562 . S
Pr576 O597 2.490 . S
Pr576 O598 2.695 . S
Pr576 O599 2.512 . S
Pr576 O601 2.437 . S
Pr576 O604 2.436 . S
Pr576 O606 2.438 . S
Pr577 C587 2.880 . S
Pr577 O598 2.436 1_556 S
Pr577 O600 2.438 1_556 S
Pr577 O602 2.562 . S
Pr577 O603 2.490 . S
Pr577 O604 2.695 1_556 S
Pr577 O605 2.522 . S
Pr577 O607 2.437 . S
C578 Pr576 2.880 . S
C578 C579 1.491 . S
C578 O596 1.254 . S
C578 O597 1.225 . S
C579 C578 1.491 . S
C579 C580 1.392 . S
C579 C584 1.356 . S
C580 C579 1.392 . S
C580 C581 1.368 . S
C580 H608 0.929 . S
C581 C580 1.368 . S
C581 C582 1.386 . S
C581 H609 0.929 . S
C582 C581 1.386 . S
C582 C583 1.373 . S
C583 C582 1.373 . S
C583 C584 1.409 . S
C583 H610 0.931 . S
C584 C579 1.356 . S
C584 C583 1.409 . S
C584 H611 0.930 . S
C585 O598 1.270 . S
C585 O599 1.248 . S
C586 O600 1.267 . S
C586 O601 1.278 . S
C587 Pr577 2.880 . S
C587 C588 1.491 . S
C587 O602 1.254 . S
C587 O603 1.225 . S
C588 C587 1.491 . S
C588 C589 1.392 . S
C588 C593 1.356 . S
C589 C588 1.392 . S
C589 C590 1.368 . S
C589 H612 0.929 . S
C590 C589 1.368 . S
C590 C591 1.386 . S
C590 H613 0.929 . S
C591 C590 1.386 . S
C591 C592 1.373 . S
C592 C591 1.373 . S
C592 C593 1.409 . S
C592 H614 0.931 . S
C593 C588 1.356 . S
C593 C592 1.409 . S
C593 H615 0.930 . S
C594 O604 1.270 . S
C594 O605 1.211 1_554 S
C595 O606 1.267 . S
C595 O607 1.278 1_554 S
O596 Pr576 2.562 . S
O596 C578 1.254 . S
O597 Pr576 2.490 . S
O597 C578 1.225 . S
O598 Pr576 2.695 . S
O598 Pr577 2.436 1_554 S
O598 C585 1.270 . S
O599 Pr576 2.512 . S
O599 C585 1.248 . S
O600 Pr577 2.438 1_554 S
O600 C586 1.267 . S
O601 Pr576 2.437 . S
O601 C586 1.278 . S
O602 Pr577 2.562 . S
O602 C587 1.254 . S
O603 Pr577 2.490 . S
O603 C587 1.225 . S
O604 Pr576 2.436 . S
O604 Pr577 2.695 1_554 S
O604 C594 1.270 . S
O605 Pr577 2.522 . S
O605 C594 1.211 1_556 S
O606 Pr576 2.438 . S
O606 C595 1.267 . S
O607 Pr577 2.437 . S
O607 C595 1.278 1_556 S
H608 C580 0.929 . S
H609 C581 0.929 . S
H610 C583 0.931 . S
H611 C584 0.930 . S
H612 C589 0.929 . S
H613 C590 0.929 . S
H614 C592 0.931 . S
H615 C593 0.930 . S
Pr616 C618 2.880 . S
Pr616 O636 2.562 . S
Pr616 O637 2.490 . S
Pr616 O638 2.695 . S
Pr616 O639 2.512 . S
Pr616 O641 2.437 . S
Pr616 O644 2.436 . S
Pr616 O646 2.438 . S
Pr617 C627 2.880 . S
Pr617 O638 2.436 . S
Pr617 O640 2.438 . S
Pr617 O642 2.562 . S
Pr617 O643 2.490 . S
Pr617 O644 2.695 . S
Pr617 O645 2.512 . S
Pr617 O647 2.437 . S
C618 Pr616 2.880 . S
C618 C619 1.491 . S
C618 O636 1.254 . S
C618 O637 1.225 . S
C619 C618 1.491 . S
C619 C620 1.392 . S
C619 C624 1.356 . S
C620 C619 1.392 . S
C620 C621 1.368 . S
C620 H648 0.929 . S
C621 C620 1.368 . S
C621 C622 1.386 . S
C621 H649 0.929 . S
C622 C621 1.386 . S
C622 C623 1.373 . S
C623 C622 1.373 . S
C623 C624 1.409 . S
C623 H650 0.931 . S
C624 C619 1.356 . S
C624 C623 1.409 . S
C624 H651 0.930 . S
C625 O638 1.270 . S
C625 O639 1.248 . S
C626 O640 1.267 . S
C626 O641 1.278 . S
C627 Pr617 2.880 . S
C627 C628 1.491 . S
C627 O642 1.254 . S
C627 O643 1.225 . S
C628 C627 1.491 . S
C628 C629 1.392 . S
C628 C633 1.356 . S
C629 C628 1.392 . S
C629 C630 1.368 . S
C629 H652 0.929 . S
C630 C629 1.368 . S
C630 C631 1.386 . S
C630 H653 0.929 . S
C631 C630 1.386 . S
C631 C632 1.373 . S
C632 C631 1.373 . S
C632 C633 1.409 . S
C632 H654 0.931 . S
C633 C628 1.356 . S
C633 C632 1.409 . S
C633 H655 0.930 . S
C634 O644 1.270 . S
C634 O645 1.248 . S
C635 O646 1.267 . S
C635 O647 1.278 . S
O636 Pr616 2.562 . S
O636 C618 1.254 . S
O637 Pr616 2.490 . S
O637 C618 1.225 . S
O638 Pr616 2.695 . S
O638 Pr617 2.436 . S
O638 C625 1.270 . S
O639 Pr616 2.512 . S
O639 C625 1.248 . S
O640 Pr617 2.438 . S
O640 C626 1.267 . S
O641 Pr616 2.437 . S
O641 C626 1.278 . S
O642 Pr617 2.562 . S
O642 C627 1.254 . S
O643 Pr617 2.490 . S
O643 C627 1.225 . S
O644 Pr616 2.436 . S
O644 Pr617 2.695 . S
O644 C634 1.270 . S
O645 Pr617 2.512 . S
O645 C634 1.248 . S
O646 Pr616 2.438 . S
O646 C635 1.267 . S
O647 Pr617 2.437 . S
O647 C635 1.278 . S
H648 C620 0.929 . S
H649 C621 0.929 . S
H650 C623 0.931 . S
H651 C624 0.930 . S
H652 C629 0.929 . S
H653 C630 0.929 . S
H654 C632 0.931 . S
H655 C633 0.930 . S
Pr656 C658 2.880 . S
Pr656 O676 2.562 . S
Pr656 O677 2.490 . S
Pr656 O678 2.695 1_556 S
Pr656 O679 2.512 . S
Pr656 O681 2.437 . S
Pr656 O684 2.436 1_556 S
Pr656 O686 2.438 1_556 S
Pr657 C667 2.880 . S
Pr657 O678 2.436 . S
Pr657 O680 2.438 . S
Pr657 O682 2.562 . S
Pr657 O683 2.490 . S
Pr657 O684 2.695 . S
Pr657 O685 2.512 . S
Pr657 O687 2.437 . S
C658 Pr656 2.880 . S
C658 C659 1.491 . S
C658 O676 1.254 . S
C658 O677 1.225 . S
C659 C658 1.491 . S
C659 C660 1.392 . S
C659 C664 1.356 . S
C660 C659 1.392 . S
C660 C661 1.368 . S
C660 H688 0.929 . S
C661 C660 1.368 . S
C661 C662 1.386 . S
C661 H689 0.929 . S
C662 C661 1.386 . S
C662 C663 1.373 . S
C663 C662 1.373 . S
C663 C664 1.409 . S
C663 H690 0.931 . S
C664 C659 1.356 . S
C664 C663 1.409 . S
C664 H691 0.930 . S
C665 O678 1.270 . S
C665 O679 1.248 1_554 S
C666 O680 1.283 . S
C666 O681 1.269 1_554 S
C667 Pr657 2.880 . S
C667 C668 1.491 . S
C667 O682 1.254 . S
C667 O683 1.225 . S
C668 C667 1.491 . S
C668 C669 1.392 . S
C668 C673 1.356 . S
C669 C668 1.392 . S
C669 C670 1.368 . S
C669 H692 0.929 . S
C670 C669 1.368 . S
C670 C671 1.386 . S
C670 H693 0.929 . S
C671 C670 1.386 . S
C671 C672 1.373 . S
C672 C671 1.373 . S
C672 C673 1.409 . S
C672 H694 0.931 . S
C673 C668 1.356 . S
C673 C672 1.409 . S
C673 H695 0.930 . S
C674 O684 1.270 . S
C674 O685 1.248 . S
C675 O686 1.267 . S
C675 O687 1.278 . S
O676 Pr656 2.562 . S
O676 C658 1.254 . S
O677 Pr656 2.490 . S
O677 C658 1.225 . S
O678 Pr656 2.695 1_554 S
O678 Pr657 2.436 . S
O678 C665 1.270 . S
O679 Pr656 2.512 . S
O679 C665 1.248 1_556 S
O680 Pr657 2.438 . S
O680 C666 1.283 . S
O681 Pr656 2.437 . S
O681 C666 1.269 1_556 S
O682 Pr657 2.562 . S
O682 C667 1.254 . S
O683 Pr657 2.490 . S
O683 C667 1.225 . S
O684 Pr656 2.436 1_554 S
O684 Pr657 2.695 . S
O684 C674 1.270 . S
O685 Pr657 2.512 . S
O685 C674 1.248 . S
O686 Pr656 2.438 1_554 S
O686 C675 1.267 . S
O687 Pr657 2.437 . S
O687 C675 1.278 . S
H688 C660 0.929 . S
H689 C661 0.929 . S
H690 C663 0.931 . S
H691 C664 0.930 . S
H692 C669 0.929 . S
H693 C670 0.929 . S
H694 C672 0.931 . S
H695 C673 0.930 . S
Pr696 C698 2.880 . S
Pr696 O716 2.562 . S
Pr696 O717 2.490 . S
Pr696 O718 2.695 . S
Pr696 O719 2.512 . S
Pr696 O721 2.437 . S
Pr696 O724 2.436 . S
Pr696 O726 2.438 . S
Pr697 C707 2.880 . S
Pr697 O718 2.436 . S
Pr697 O720 2.438 . S
Pr697 O722 2.562 . S
Pr697 O723 2.490 . S
Pr697 O724 2.695 . S
Pr697 O725 2.512 . S
Pr697 O727 2.437 . S
C698 Pr696 2.880 . S
C698 C699 1.491 . S
C698 O716 1.254 . S
C698 O717 1.225 . S
C699 C698 1.491 . S
C699 C700 1.392 . S
C699 C704 1.356 . S
C700 C699 1.392 . S
C700 C701 1.368 . S
C700 H728 0.929 . S
C701 C700 1.368 . S
C701 C702 1.386 . S
C701 H729 0.929 . S
C702 C701 1.386 . S
C702 C703 1.373 . S
C703 C702 1.373 . S
C703 C704 1.409 . S
C703 H730 0.931 . S
C704 C699 1.356 . S
C704 C703 1.409 . S
C704 H731 0.930 . S
C705 O718 1.270 . S
C705 O719 1.248 . S
C706 O720 1.267 . S
C706 O721 1.278 . S
C707 Pr697 2.880 . S
C707 C708 1.491 . S
C707 O722 1.254 . S
C707 O723 1.225 . S
C708 C707 1.491 . S
C708 C709 1.392 . S
C708 C713 1.356 . S
C709 C708 1.392 . S
C709 C710 1.368 . S
C709 H732 0.929 . S
C710 C709 1.368 . S
C710 C711 1.386 . S
C710 H733 0.929 . S
C711 C710 1.386 . S
C711 C712 1.373 . S
C712 C711 1.373 . S
C712 C713 1.409 . S
C712 H734 0.931 . S
C713 C708 1.356 . S
C713 C712 1.409 . S
C713 H735 0.930 . S
C714 O724 1.270 . S
C714 O725 1.248 . S
C715 O726 1.267 . S
C715 O727 1.278 . S
O716 Pr696 2.562 . S
O716 C698 1.254 . S
O717 Pr696 2.490 . S
O717 C698 1.225 . S
O718 Pr696 2.695 . S
O718 Pr697 2.436 . S
O718 C705 1.270 . S
O719 Pr696 2.512 . S
O719 C705 1.248 . S
O720 Pr697 2.438 . S
O720 C706 1.267 . S
O721 Pr696 2.437 . S
O721 C706 1.278 . S
O722 Pr697 2.562 . S
O722 C707 1.254 . S
O723 Pr697 2.490 . S
O723 C707 1.225 . S
O724 Pr696 2.436 . S
O724 Pr697 2.695 . S
O724 C714 1.270 . S
O725 Pr697 2.512 . S
O725 C714 1.248 . S
O726 Pr696 2.438 . S
O726 C715 1.267 . S
O727 Pr697 2.437 . S
O727 C715 1.278 . S
H728 C700 0.929 . S
H729 C701 0.929 . S
H730 C703 0.931 . S
H731 C704 0.930 . S
H732 C709 0.929 . S
H733 C710 0.929 . S
H734 C712 0.931 . S
H735 C713 0.930 . S
Pr736 C738 2.880 . S
Pr736 O756 2.562 . S
Pr736 O757 2.490 . S
Pr736 O758 2.695 . S
Pr736 O759 2.512 . S
Pr736 O761 2.437 . S
Pr736 O764 2.436 . S
Pr736 O766 2.438 . S
Pr737 C747 2.880 . S
Pr737 O758 2.436 . S
Pr737 O760 2.444 . S
Pr737 O762 2.562 . S
Pr737 O763 2.490 . S
Pr737 O764 2.695 . S
Pr737 O765 2.512 . S
Pr737 O767 2.437 . S
C738 Pr736 2.880 . S
C738 C739 1.491 . S
C738 O756 1.254 . S
C738 O757 1.225 . S
C739 C738 1.491 . S
C739 C740 1.392 . S
C739 C744 1.356 . S
C740 C739 1.392 . S
C740 C741 1.368 . S
C740 H768 0.929 . S
C741 C740 1.368 . S
C741 C742 1.421 . S
C741 H769 0.929 . S
C742 C741 1.421 . S
C742 C743 1.361 1_455 S
C743 C742 1.361 1_655 S
C743 C744 1.391 1_655 S
C743 H770 0.955 . S
C744 C739 1.356 . S
C744 C743 1.391 1_455 S
C744 H771 0.930 . S
C745 O758 1.270 . S
C745 O759 1.248 . S
C746 O760 1.265 1_655 S
C746 O761 1.278 1_655 S
C747 Pr737 2.880 . S
C747 C748 1.491 . S
C747 O762 1.254 . S
C747 O763 1.225 . S
C748 C747 1.491 . S
C748 C749 1.392 . S
C748 C753 1.356 . S
C749 C748 1.392 . S
C749 C750 1.368 . S
C749 H772 0.929 . S
C750 C749 1.368 . S
C750 C751 1.386 . S
C750 H773 0.929 . S
C751 C750 1.386 . S
C751 C752 1.373 . S
C752 C751 1.373 . S
C752 C753 1.409 . S
C752 H774 0.931 . S
C753 C748 1.356 . S
C753 C752 1.409 . S
C753 H775 0.930 . S
C754 O764 1.270 . S
C754 O765 1.248 . S
C755 O766 1.267 . S
C755 O767 1.278 . S
O756 Pr736 2.562 . S
O756 C738 1.254 . S
O757 Pr736 2.490 . S
O757 C738 1.225 . S
O758 Pr736 2.695 . S
O758 Pr737 2.436 . S
O758 C745 1.270 . S
O759 Pr736 2.512 . S
O759 C745 1.248 . S
O760 Pr737 2.444 . S
O760 C746 1.265 1_455 S
O761 Pr736 2.437 . S
O761 C746 1.278 1_455 S
O762 Pr737 2.562 . S
O762 C747 1.254 . S
O763 Pr737 2.490 . S
O763 C747 1.225 . S
O764 Pr736 2.436 . S
O764 Pr737 2.695 . S
O764 C754 1.270 . S
O765 Pr737 2.512 . S
O765 C754 1.248 . S
O766 Pr736 2.438 . S
O766 C755 1.267 . S
O767 Pr737 2.437 . S
O767 C755 1.278 . S
H768 C740 0.929 . S
H769 C741 0.929 . S
H770 C743 0.955 . S
H771 C744 0.930 . S
H772 C749 0.929 . S
H773 C750 0.929 . S
H774 C752 0.931 . S
H775 C753 0.930 . S
Pr776 C778 2.880 . S
Pr776 O796 2.562 . S
Pr776 O797 2.490 . S
Pr776 O798 2.695 . S
Pr776 O799 2.512 . S
Pr776 O801 2.437 . S
Pr776 O804 2.436 . S
Pr776 O806 2.438 . S
Pr777 C787 2.880 . S
Pr777 O798 2.436 . S
Pr777 O800 2.438 . S
Pr777 O802 2.562 . S
Pr777 O803 2.490 . S
Pr777 O804 2.695 . S
Pr777 O805 2.512 . S
Pr777 O807 2.437 . S
C778 Pr776 2.880 . S
C778 C779 1.491 . S
C778 O796 1.254 . S
C778 O797 1.225 . S
C779 C778 1.491 . S
C779 C780 1.392 . S
C779 C784 1.356 . S
C780 C779 1.392 . S
C780 C781 1.368 . S
C780 H808 0.929 . S
C781 C780 1.368 . S
C781 C782 1.386 . S
C781 H809 0.929 . S
C782 C781 1.386 . S
C782 C783 1.373 . S
C783 C782 1.373 . S
C783 C784 1.409 . S
C783 H810 0.931 . S
C784 C779 1.356 . S
C784 C783 1.409 . S
C784 H811 0.930 . S
C785 O798 1.270 . S
C785 O799 1.248 . S
C786 O800 1.267 . S
C786 O801 1.278 . S
C787 Pr777 2.880 . S
C787 C788 1.491 . S
C787 O802 1.254 . S
C787 O803 1.225 . S
C788 C787 1.491 . S
C788 C789 1.392 . S
C788 C793 1.356 . S
C789 C788 1.392 . S
C789 C790 1.368 . S
C789 H812 0.929 . S
C790 C789 1.368 . S
C790 C791 1.386 . S
C790 H813 0.929 . S
C791 C790 1.386 . S
C791 C792 1.373 . S
C792 C791 1.373 . S
C792 C793 1.409 . S
C792 H814 0.931 . S
C793 C788 1.356 . S
C793 C792 1.409 . S
C793 H815 0.930 . S
C794 O804 1.270 . S
C794 O805 1.248 . S
C795 O806 1.267 . S
C795 O807 1.278 . S
O796 Pr776 2.562 . S
O796 C778 1.254 . S
O797 Pr776 2.490 . S
O797 C778 1.225 . S
O798 Pr776 2.695 . S
O798 Pr777 2.436 . S
O798 C785 1.270 . S
O799 Pr776 2.512 . S
O799 C785 1.248 . S
O800 Pr777 2.438 . S
O800 C786 1.267 . S
O801 Pr776 2.437 . S
O801 C786 1.278 . S
O802 Pr777 2.562 . S
O802 C787 1.254 . S
O803 Pr777 2.490 . S
O803 C787 1.225 . S
O804 Pr776 2.436 . S
O804 Pr777 2.695 . S
O804 C794 1.270 . S
O805 Pr777 2.512 . S
O805 C794 1.248 . S
O806 Pr776 2.438 . S
O806 C795 1.267 . S
O807 Pr777 2.437 . S
O807 C795 1.278 . S
H808 C780 0.929 . S
H809 C781 0.929 . S
H810 C783 0.931 . S
H811 C784 0.930 . S
H812 C789 0.929 . S
H813 C790 0.929 . S
H814 C792 0.931 . S
H815 C793 0.930 . S
Pr816 C818 2.880 . S
Pr816 O836 2.562 . S
Pr816 O837 2.490 . S
Pr816 O838 2.695 . S
Pr816 O839 2.512 . S
Pr816 O841 2.437 . S
Pr816 O844 2.436 . S
Pr816 O846 2.438 . S
Pr817 C827 2.880 . S
Pr817 O838 2.436 . S
Pr817 O840 2.438 . S
Pr817 O842 2.562 . S
Pr817 O843 2.490 . S
Pr817 O844 2.695 . S
Pr817 O845 2.512 . S
Pr817 O847 2.437 . S
C818 Pr816 2.880 . S
C818 C819 1.491 . S
C818 O836 1.254 . S
C818 O837 1.225 . S
C819 C818 1.491 . S
C819 C820 1.392 . S
C819 C824 1.356 . S
C820 C819 1.392 . S
C820 C821 1.368 . S
C820 H848 0.929 . S
C821 C820 1.368 . S
C821 C822 1.386 . S
C821 H849 0.929 . S
C822 C821 1.386 . S
C822 C823 1.373 . S
C823 C822 1.373 . S
C823 C824 1.409 . S
C823 H850 0.931 . S
C824 C819 1.356 . S
C824 C823 1.409 . S
C824 H851 0.930 . S
C825 O838 1.270 . S
C825 O839 1.248 . S
C826 O840 1.267 . S
C826 O841 1.278 . S
C827 Pr817 2.880 . S
C827 C828 1.491 . S
C827 O842 1.254 . S
C827 O843 1.225 . S
C828 C827 1.491 . S
C828 C829 1.392 . S
C828 C833 1.356 . S
C829 C828 1.392 . S
C829 C830 1.368 . S
C829 H852 0.929 . S
C830 C829 1.368 . S
C830 C831 1.386 . S
C830 H853 0.929 . S
C831 C830 1.386 . S
C831 C832 1.373 . S
C832 C831 1.373 . S
C832 C833 1.409 . S
C832 H854 0.931 . S
C833 C828 1.356 . S
C833 C832 1.409 . S
C833 H855 0.930 . S
C834 O844 1.270 . S
C834 O845 1.248 . S
C835 O846 1.267 . S
C835 O847 1.278 . S
O836 Pr816 2.562 . S
O836 C818 1.254 . S
O837 Pr816 2.490 . S
O837 C818 1.225 . S
O838 Pr816 2.695 . S
O838 Pr817 2.436 . S
O838 C825 1.270 . S
O839 Pr816 2.512 . S
O839 C825 1.248 . S
O840 Pr817 2.438 . S
O840 C826 1.267 . S
O841 Pr816 2.437 . S
O841 C826 1.278 . S
O842 Pr817 2.562 . S
O842 C827 1.254 . S
O843 Pr817 2.490 . S
O843 C827 1.225 . S
O844 Pr816 2.436 . S
O844 Pr817 2.695 . S
O844 C834 1.270 . S
O845 Pr817 2.512 . S
O845 C834 1.248 . S
O846 Pr816 2.438 . S
O846 C835 1.267 . S
O847 Pr817 2.437 . S
O847 C835 1.278 . S
H848 C820 0.929 . S
H849 C821 0.929 . S
H850 C823 0.931 . S
H851 C824 0.930 . S
H852 C829 0.929 . S
H853 C830 0.929 . S
H854 C832 0.931 . S
H855 C833 0.930 . S
Pr856 C858 2.880 . S
Pr856 O876 2.562 . S
Pr856 O877 2.490 . S
Pr856 O878 2.695 . S
Pr856 O879 2.512 . S
Pr856 O881 2.437 . S
Pr856 O884 2.436 . S
Pr856 O886 2.438 . S
Pr857 C867 2.880 . S
Pr857 O878 2.436 . S
Pr857 O880 2.438 . S
Pr857 O882 2.562 . S
Pr857 O883 2.490 . S
Pr857 O884 2.695 . S
Pr857 O885 2.512 . S
Pr857 O887 2.437 . S
C858 Pr856 2.880 . S
C858 C859 1.491 . S
C858 O876 1.254 . S
C858 O877 1.225 . S
C859 C858 1.491 . S
C859 C860 1.392 . S
C859 C864 1.356 . S
C860 C859 1.392 . S
C860 C861 1.368 . S
C860 H888 0.929 . S
C861 C860 1.368 . S
C861 C862 1.386 . S
C861 H889 0.929 . S
C862 C861 1.386 . S
C862 C863 1.373 . S
C863 C862 1.373 . S
C863 C864 1.409 . S
C863 H890 0.931 . S
C864 C859 1.356 . S
C864 C863 1.409 . S
C864 H891 0.930 . S
C865 O878 1.270 . S
C865 O879 1.248 . S
C866 O880 1.267 . S
C866 O881 1.278 . S
C867 Pr857 2.880 . S
C867 C868 1.491 . S
C867 O882 1.254 . S
C867 O883 1.225 . S
C868 C867 1.491 . S
C868 C869 1.392 . S
C868 C873 1.356 . S
C869 C868 1.392 . S
C869 C870 1.368 . S
C869 H892 0.929 . S
C870 C869 1.368 . S
C870 C871 1.386 . S
C870 H893 0.929 . S
C871 C870 1.386 . S
C871 C872 1.373 . S
C872 C871 1.373 . S
C872 C873 1.409 . S
C872 H894 0.931 . S
C873 C868 1.356 . S
C873 C872 1.409 . S
C873 H895 0.930 . S
C874 O884 1.270 . S
C874 O885 1.248 . S
C875 O886 1.267 . S
C875 O887 1.278 . S
O876 Pr856 2.562 . S
O876 C858 1.254 . S
O877 Pr856 2.490 . S
O877 C858 1.225 . S
O878 Pr856 2.695 . S
O878 Pr857 2.436 . S
O878 C865 1.270 . S
O879 Pr856 2.512 . S
O879 C865 1.248 . S
O880 Pr857 2.438 . S
O880 C866 1.267 . S
O881 Pr856 2.437 . S
O881 C866 1.278 . S
O882 Pr857 2.562 . S
O882 C867 1.254 . S
O883 Pr857 2.490 . S
O883 C867 1.225 . S
O884 Pr856 2.436 . S
O884 Pr857 2.695 . S
O884 C874 1.270 . S
O885 Pr857 2.512 . S
O885 C874 1.248 . S
O886 Pr856 2.438 . S
O886 C875 1.267 . S
O887 Pr857 2.437 . S
O887 C875 1.278 . S
H888 C860 0.929 . S
H889 C861 0.929 . S
H890 C863 0.931 . S
H891 C864 0.930 . S
H892 C869 0.929 . S
H893 C870 0.929 . S
H894 C872 0.931 . S
H895 C873 0.930 . S
Pr896 C898 2.880 . S
Pr896 O916 2.562 . S
Pr896 O917 2.490 . S
Pr896 O918 2.695 . S
Pr896 O919 2.512 . S
Pr896 O921 2.437 . S
Pr896 O924 2.436 . S
Pr896 O926 2.438 . S
Pr897 C907 2.880 . S
Pr897 O918 2.436 . S
Pr897 O920 2.438 . S
Pr897 O922 2.562 . S
Pr897 O923 2.490 . S
Pr897 O924 2.695 . S
Pr897 O925 2.512 . S
Pr897 O927 2.437 . S
C898 Pr896 2.880 . S
C898 C899 1.491 . S
C898 O916 1.254 . S
C898 O917 1.225 . S
C899 C898 1.491 . S
C899 C900 1.392 . S
C899 C904 1.356 . S
C900 C899 1.392 . S
C900 C901 1.368 . S
C900 H928 0.929 . S
C901 C900 1.368 . S
C901 C902 1.386 . S
C901 H929 0.929 . S
C902 C901 1.386 . S
C902 C903 1.373 . S
C903 C902 1.373 . S
C903 C904 1.409 . S
C903 H930 0.931 . S
C904 C899 1.356 . S
C904 C903 1.409 . S
C904 H931 0.930 . S
C905 O918 1.270 . S
C905 O919 1.248 . S
C906 O920 1.267 . S
C906 O921 1.278 . S
C907 Pr897 2.880 . S
C907 C908 1.491 . S
C907 O922 1.254 . S
C907 O923 1.225 . S
C908 C907 1.491 . S
C908 C909 1.392 . S
C908 C913 1.356 . S
C909 C908 1.392 . S
C909 C910 1.368 . S
C909 H932 0.929 . S
C910 C909 1.368 . S
C910 C911 1.386 . S
C910 H933 0.929 . S
C911 C910 1.386 . S
C911 C912 1.373 . S
C912 C911 1.373 . S
C912 C913 1.409 . S
C912 H934 0.931 . S
C913 C908 1.356 . S
C913 C912 1.409 . S
C913 H935 0.930 . S
C914 O924 1.270 . S
C914 O925 1.248 . S
C915 O926 1.267 . S
C915 O927 1.278 . S
O916 Pr896 2.562 . S
O916 C898 1.254 . S
O917 Pr896 2.490 . S
O917 C898 1.225 . S
O918 Pr896 2.695 . S
O918 Pr897 2.436 . S
O918 C905 1.270 . S
O919 Pr896 2.512 . S
O919 C905 1.248 . S
O920 Pr897 2.438 . S
O920 C906 1.267 . S
O921 Pr896 2.437 . S
O921 C906 1.278 . S
O922 Pr897 2.562 . S
O922 C907 1.254 . S
O923 Pr897 2.490 . S
O923 C907 1.225 . S
O924 Pr896 2.436 . S
O924 Pr897 2.695 . S
O924 C914 1.270 . S
O925 Pr897 2.512 . S
O925 C914 1.248 . S
O926 Pr896 2.438 . S
O926 C915 1.267 . S
O927 Pr897 2.437 . S
O927 C915 1.278 . S
H928 C900 0.929 . S
H929 C901 0.929 . S
H930 C903 0.931 . S
H931 C904 0.930 . S
H932 C909 0.929 . S
H933 C910 0.929 . S
H934 C912 0.931 . S
H935 C913 0.930 . S
Pr936 C938 2.880 . S
Pr936 O956 2.562 . S
Pr936 O957 2.490 1_554 S
Pr936 O958 2.695 . S
Pr936 O959 2.512 1_554 S
Pr936 O961 2.425 1_554 S
Pr936 O964 2.436 . S
Pr936 O966 2.438 . S
Pr937 C947 2.880 1_455 S
Pr937 O958 2.436 . S
Pr937 O960 2.438 . S
Pr937 O962 2.562 1_455 S
Pr937 O963 2.490 1_455 S
Pr937 O964 2.695 . S
Pr937 O965 2.512 . S
Pr937 O967 2.437 . S
C938 Pr936 2.880 . S
C938 C939 1.491 . S
C938 O956 1.254 . S
C938 O957 1.225 1_554 S
C939 C938 1.491 . S
C939 C940 1.392 1_554 S
C939 C944 1.356 . S
C940 C939 1.392 1_556 S
C940 C941 1.368 . S
C940 H968 0.929 . S
C941 C940 1.368 . S
C941 C942 1.386 . S
C941 H969 0.929 . S
C942 C941 1.386 . S
C942 C943 1.373 1_556 S
C943 C942 1.373 1_554 S
C943 C944 1.409 . S
C943 H970 0.931 . S
C944 C939 1.356 . S
C944 C943 1.409 . S
C944 H971 0.930 . S
C945 O958 1.270 1_556 S
C945 O959 1.248 . S
C946 O960 1.267 . S
C946 O961 1.263 1_554 S
C947 Pr937 2.880 1_655 S
C947 C948 1.491 . S
C947 O962 1.254 . S
C947 O963 1.225 . S
C948 C947 1.491 . S
C948 C949 1.392 . S
C948 C953 1.356 . S
C949 C948 1.392 . S
C949 C950 1.368 . S
C949 H972 0.929 . S
C950 C949 1.368 . S
C950 C951 1.386 . S
C950 H973 0.929 . S
C951 C950 1.386 . S
C951 C952 1.373 . S
C952 C951 1.373 . S
C952 C953 1.409 . S
C952 H974 0.931 . S
C953 C948 1.356 . S
C953 C952 1.409 . S
C953 H975 0.930 . S
C954 O964 1.270 . S
C954 O965 1.248 . S
C955 O966 1.267 . S
C955 O967 1.278 . S
O956 Pr936 2.562 . S
O956 C938 1.254 . S
O957 Pr936 2.490 1_556 S
O957 C938 1.225 1_556 S
O958 Pr936 2.695 . S
O958 Pr937 2.436 . S
O958 C945 1.270 1_554 S
O959 Pr936 2.512 1_556 S
O959 C945 1.248 . S
O960 Pr937 2.438 . S
O960 C946 1.267 . S
O961 Pr936 2.425 1_556 S
O961 C946 1.263 1_556 S
O962 Pr937 2.562 1_655 S
O962 C947 1.254 . S
O963 Pr937 2.490 1_655 S
O963 C947 1.225 . S
O964 Pr936 2.436 . S
O964 Pr937 2.695 . S
O964 C954 1.270 . S
O965 Pr937 2.512 . S
O965 C954 1.248 . S
O966 Pr936 2.438 . S
O966 C955 1.267 . S
O967 Pr937 2.437 . S
O967 C955 1.278 . S
H968 C940 0.929 . S
H969 C941 0.929 . S
H970 C943 0.931 . S
H971 C944 0.930 . S
H972 C949 0.929 . S
H973 C950 0.929 . S
H974 C952 0.931 . S
H975 C953 0.930 . S
C976 C977 1.391 . S
C976 C978 1.394 . S
C976 H992 0.931 . S
C977 C976 1.391 . S
C977 C981 1.376 . S
C978 C976 1.394 . S
C978 C979 1.369 . S
C978 C982 1.531 . S
C979 C978 1.369 . S
C979 C980 1.410 . S
C979 C987 1.503 . S
C980 C979 1.410 . S
C980 C981 1.392 . S
C980 C983 1.511 1_455 S
C981 C977 1.376 . S
C981 C980 1.392 . S
C981 H993 0.929 1_455 S
C982 C978 1.531 . S
C982 H994 0.960 1_556 S
C982 H995 0.962 . S
C982 H996 0.960 1_556 S
C983 C980 1.511 1_655 S
C983 H997 0.961 . S
C983 H998 0.961 . S
C983 H999 0.961 . S
C984 C985 1.370 1_556 S
C984 C986 1.363 . S
C984 H1000 0.931 . S
C985 C984 1.370 1_554 S
C985 C989 1.408 . S
C986 C984 1.363 . S
C986 C987 1.370 . S
C986 C990 1.524 . S
C987 C979 1.503 . S
C987 C986 1.370 . S
C987 C988 1.403 1_556 S
C988 C987 1.403 1_554 S
C988 C989 1.404 . S
C988 C991 1.539 . S
C989 C985 1.408 . S
C989 C988 1.404 . S
C989 H1001 0.930 . S
C990 C986 1.524 . S
C990 H1002 0.956 . S
C990 H1003 0.961 . S
C990 H1004 0.961 . S
C991 C988 1.539 . S
C991 H1005 0.958 . S
C991 H1006 0.961 . S
C991 H1007 0.960 . S
H992 C976 0.931 . S
H993 C981 0.929 1_655 S
H994 C982 0.960 1_554 S
H995 C982 0.962 . S
H996 C982 0.960 1_554 S
H997 C983 0.961 . S
H998 C983 0.961 . S
H999 C983 0.961 . S
H1000 C984 0.931 . S
H1001 C989 0.930 . S
H1002 C990 0.956 . S
H1003 C990 0.961 . S
H1004 C990 0.961 . S
H1005 C991 0.958 . S
H1006 C991 0.961 . S
H1007 C991 0.960 . S
C1008 C1009 1.391 . S
C1008 C1010 1.394 . S
C1008 H1024 0.931 . S
C1009 C1008 1.391 . S
C1009 C1013 1.376 . S
C1010 C1008 1.394 . S
C1010 C1011 1.369 . S
C1010 C1014 1.531 . S
C1011 C1010 1.369 . S
C1011 C1012 1.410 . S
C1011 C1019 1.503 . S
C1012 C1011 1.410 . S
C1012 C1013 1.392 . S
C1012 C1015 1.511 . S
C1013 C1009 1.376 . S
C1013 C1012 1.392 . S
C1013 H1025 0.929 . S
C1014 C1010 1.531 . S
C1014 H1026 0.960 . S
C1014 H1027 0.962 . S
C1014 H1028 0.960 . S
C1015 C1012 1.511 . S
C1015 H1029 0.961 . S
C1015 H1030 0.961 . S
C1015 H1031 0.961 . S
C1016 C1017 1.370 . S
C1016 C1018 1.363 . S
C1016 H1032 0.931 . S
C1017 C1016 1.370 . S
C1017 C1021 1.408 . S
C1018 C1016 1.363 . S
C1018 C1019 1.370 . S
C1018 C1022 1.524 . S
C1019 C1011 1.503 . S
C1019 C1018 1.370 . S
C1019 C1020 1.403 . S
C1020 C1019 1.403 . S
C1020 C1021 1.404 . S
C1020 C1023 1.539 . S
C1021 C1017 1.408 . S
C1021 C1020 1.404 . S
C1021 H1033 0.930 . S
C1022 C1018 1.524 . S
C1022 H1034 0.956 . S
C1022 H1035 0.961 . S
C1022 H1036 0.961 . S
C1023 C1020 1.539 . S
C1023 H1037 0.958 . S
C1023 H1038 0.961 . S
C1023 H1039 0.960 . S
H1024 C1008 0.931 . S
H1025 C1013 0.929 . S
H1026 C1014 0.960 . S
H1027 C1014 0.962 . S
H1028 C1014 0.960 . S
H1029 C1015 0.961 . S
H1030 C1015 0.961 . S
H1031 C1015 0.961 . S
H1032 C1016 0.931 . S
H1033 C1021 0.930 . S
H1034 C1022 0.956 . S
H1035 C1022 0.961 . S
H1036 C1022 0.961 . S
H1037 C1023 0.958 . S
H1038 C1023 0.961 . S
H1039 C1023 0.960 . S
C1040 C1041 1.391 . S
C1040 C1042 1.394 . S
C1040 H1056 0.931 . S
C1041 C1040 1.391 . S
C1041 C1045 1.376 . S
C1042 C1040 1.394 . S
C1042 C1043 1.369 . S
C1042 C1046 1.531 . S
C1043 C1042 1.369 . S
C1043 C1044 1.410 . S
C1043 C1051 1.503 . S
C1044 C1043 1.410 . S
C1044 C1045 1.392 . S
C1044 C1047 1.511 . S
C1045 C1041 1.376 . S
C1045 C1044 1.392 . S
C1045 H1057 0.929 . S
C1046 C1042 1.531 . S
C1046 H1058 0.960 . S
C1046 H1059 0.962 . S
C1046 H1060 0.960 . S
C1047 C1044 1.511 . S
C1047 H1061 0.961 . S
C1047 H1062 0.961 . S
C1047 H1063 0.961 . S
C1048 C1049 1.370 1_565 S
C1048 C1050 1.363 . S
C1048 H1064 0.931 . S
C1049 C1048 1.370 1_545 S
C1049 C1053 1.408 1_545 S
C1050 C1048 1.363 . S
C1050 C1051 1.370 . S
C1050 C1054 1.524 . S
C1051 C1043 1.503 . S
C1051 C1050 1.370 . S
C1051 C1052 1.403 . S
C1052 C1051 1.403 . S
C1052 C1053 1.404 . S
C1052 C1055 1.539 . S
C1053 C1049 1.408 1_565 S
C1053 C1052 1.404 . S
C1053 H1065 0.930 1_565 S
C1054 C1050 1.524 . S
C1054 H1066 0.956 . S
C1054 H1067 0.961 . S
C1054 H1068 0.961 . S
C1055 C1052 1.539 . S
C1055 H1069 0.958 . S
C1055 H1070 0.961 . S
C1055 H1071 0.960 . S
H1056 C1040 0.931 . S
H1057 C1045 0.929 . S
H1058 C1046 0.960 . S
H1059 C1046 0.962 . S
H1060 C1046 0.960 . S
H1061 C1047 0.961 . S
H1062 C1047 0.961 . S
H1063 C1047 0.961 . S
H1064 C1048 0.931 . S
H1065 C1053 0.930 1_545 S
H1066 C1054 0.956 . S
H1067 C1054 0.961 . S
H1068 C1054 0.961 . S
H1069 C1055 0.958 . S
H1070 C1055 0.961 . S
H1071 C1055 0.960 . S
C1072 C1073 1.391 . S
C1072 C1074 1.394 . S
C1072 H1088 0.931 . S
C1073 C1072 1.391 . S
C1073 C1077 1.376 . S
C1074 C1072 1.394 . S
C1074 C1075 1.369 . S
C1074 C1078 1.531 . S
C1075 C1074 1.369 . S
C1075 C1076 1.410 . S
C1075 C1083 1.503 . S
C1076 C1075 1.410 . S
C1076 C1077 1.392 . S
C1076 C1079 1.511 . S
C1077 C1073 1.376 . S
C1077 C1076 1.392 . S
C1077 H1089 0.929 . S
C1078 C1074 1.531 . S
C1078 H1090 0.960 . S
C1078 H1091 0.962 . S
C1078 H1092 0.960 . S
C1079 C1076 1.511 . S
C1079 H1093 0.961 . S
C1079 H1094 0.961 . S
C1079 H1095 0.961 . S
C1080 C1081 1.370 . S
C1080 C1082 1.363 . S
C1080 H1096 0.931 . S
C1081 C1080 1.370 . S
C1081 C1085 1.408 . S
C1082 C1080 1.363 . S
C1082 C1083 1.370 . S
C1082 C1086 1.524 . S
C1083 C1075 1.503 . S
C1083 C1082 1.370 . S
C1083 C1084 1.403 . S
C1084 C1083 1.403 . S
C1084 C1085 1.404 . S
C1084 C1087 1.539 . S
C1085 C1081 1.408 . S
C1085 C1084 1.404 . S
C1085 H1097 0.930 . S
C1086 C1082 1.524 . S
C1086 H1098 0.956 . S
C1086 H1099 0.961 . S
C1086 H1100 0.961 . S
C1087 C1084 1.539 . S
C1087 H1101 0.958 . S
C1087 H1102 0.961 . S
C1087 H1103 0.960 . S
H1088 C1072 0.931 . S
H1089 C1077 0.929 . S
H1090 C1078 0.960 . S
H1091 C1078 0.962 . S
H1092 C1078 0.960 . S
H1093 C1079 0.961 . S
H1094 C1079 0.961 . S
H1095 C1079 0.961 . S
H1096 C1080 0.931 . S
H1097 C1085 0.930 . S
H1098 C1086 0.956 . S
H1099 C1086 0.961 . S
H1100 C1086 0.961 . S
H1101 C1087 0.958 . S
H1102 C1087 0.961 . S
H1103 C1087 0.960 . S
C1104 C1105 1.391 . S
C1104 C1106 1.394 . S
C1104 H1120 0.931 . S
C1105 C1104 1.391 . S
C1105 C1109 1.376 . S
C1106 C1104 1.394 . S
C1106 C1107 1.369 . S
C1106 C1110 1.531 . S
C1107 C1106 1.369 . S
C1107 C1108 1.410 . S
C1107 C1115 1.503 . S
C1108 C1107 1.410 . S
C1108 C1109 1.392 . S
C1108 C1111 1.511 . S
C1109 C1105 1.376 . S
C1109 C1108 1.392 . S
C1109 H1121 0.929 . S
C1110 C1106 1.531 . S
C1110 H1122 0.960 . S
C1110 H1123 0.962 . S
C1110 H1124 0.960 . S
C1111 C1108 1.511 . S
C1111 H1125 0.961 . S
C1111 H1126 0.961 . S
C1111 H1127 0.961 . S
C1112 C1113 1.370 . S
C1112 C1114 1.363 1_545 S
C1112 H1128 0.931 . S
C1113 C1112 1.370 . S
C1113 C1117 1.408 1_545 S
C1114 C1112 1.363 1_565 S
C1114 C1115 1.370 . S
C1114 C1118 1.524 . S
C1115 C1107 1.503 . S
C1115 C1114 1.370 . S
C1115 C1116 1.403 . S
C1116 C1115 1.403 . S
C1116 C1117 1.404 . S
C1116 C1119 1.539 . S
C1117 C1113 1.408 1_565 S
C1117 C1116 1.404 . S
C1117 H1129 0.930 1_565 S
C1118 C1114 1.524 . S
C1118 H1130 0.956 . S
C1118 H1131 0.961 . S
C1118 H1132 0.961 . S
C1119 C1116 1.539 . S
C1119 H1133 0.958 . S
C1119 H1134 0.961 . S
C1119 H1135 0.960 . S
H1120 C1104 0.931 . S
H1121 C1109 0.929 . S
H1122 C1110 0.960 . S
H1123 C1110 0.962 . S
H1124 C1110 0.960 . S
H1125 C1111 0.961 . S
H1126 C1111 0.961 . S
H1127 C1111 0.961 . S
H1128 C1112 0.931 . S
H1129 C1117 0.930 1_545 S
H1130 C1118 0.956 . S
H1131 C1118 0.961 . S
H1132 C1118 0.961 . S
H1133 C1119 0.958 . S
H1134 C1119 0.961 . S
H1135 C1119 0.960 . S
C1136 C1137 1.391 . S
C1136 C1138 1.394 . S
C1136 H1152 0.931 . S
C1137 C1136 1.391 . S
C1137 C1141 1.376 . S
C1138 C1136 1.394 . S
C1138 C1139 1.369 . S
C1138 C1142 1.531 . S
C1139 C1138 1.369 . S
C1139 C1140 1.410 . S
C1139 C1147 1.503 . S
C1140 C1139 1.410 . S
C1140 C1141 1.392 . S
C1140 C1143 1.511 . S
C1141 C1137 1.376 . S
C1141 C1140 1.392 . S
C1141 H1153 0.929 . S
C1142 C1138 1.531 . S
C1142 H1154 0.960 . S
C1142 H1155 0.962 . S
C1142 H1156 0.960 . S
C1143 C1140 1.511 . S
C1143 H1157 0.961 . S
C1143 H1158 0.961 . S
C1143 H1159 0.961 . S
C1144 C1145 1.370 . S
C1144 C1146 1.363 . S
C1144 H1160 0.931 . S
C1145 C1144 1.370 . S
C1145 C1149 1.408 . S
C1146 C1144 1.363 . S
C1146 C1147 1.370 . S
C1146 C1150 1.524 . S
C1147 C1139 1.503 . S
C1147 C1146 1.370 . S
C1147 C1148 1.403 . S
C1148 C1147 1.403 . S
C1148 C1149 1.404 . S
C1148 C1151 1.539 . S
C1149 C1145 1.408 . S
C1149 C1148 1.404 . S
C1149 H1161 0.930 . S
C1150 C1146 1.524 . S
C1150 H1162 0.956 . S
C1150 H1163 0.961 . S
C1150 H1164 0.961 . S
C1151 C1148 1.539 . S
C1151 H1165 0.958 . S
C1151 H1166 0.961 . S
C1151 H1167 0.960 . S
H1152 C1136 0.931 . S
H1153 C1141 0.929 . S
H1154 C1142 0.960 . S
H1155 C1142 0.962 . S
H1156 C1142 0.960 . S
H1157 C1143 0.961 . S
H1158 C1143 0.961 . S
H1159 C1143 0.961 . S
H1160 C1144 0.931 . S
H1161 C1149 0.930 . S
H1162 C1150 0.956 . S
H1163 C1150 0.961 . S
H1164 C1150 0.961 . S
H1165 C1151 0.958 . S
H1166 C1151 0.961 . S
H1167 C1151 0.960 . S
C1168 C1169 1.391 . S
C1168 C1170 1.394 . S
C1168 H1184 0.931 . S
C1169 C1168 1.391 . S
C1169 C1173 1.376 . S
C1170 C1168 1.394 . S
C1170 C1171 1.369 . S
C1170 C1174 1.531 . S
C1171 C1170 1.369 . S
C1171 C1172 1.410 . S
C1171 C1179 1.503 . S
C1172 C1171 1.410 . S
C1172 C1173 1.392 . S
C1172 C1175 1.511 . S
C1173 C1169 1.376 . S
C1173 C1172 1.392 . S
C1173 H1185 0.929 . S
C1174 C1170 1.531 . S
C1174 H1186 0.960 . S
C1174 H1187 0.962 . S
C1174 H1188 0.960 . S
C1175 C1172 1.511 . S
C1175 H1189 0.961 . S
C1175 H1190 0.961 . S
C1175 H1191 0.961 . S
C1176 C1177 1.370 . S
C1176 C1178 1.363 . S
C1176 H1192 0.931 . S
C1177 C1176 1.370 . S
C1177 C1181 1.408 . S
C1178 C1176 1.363 . S
C1178 C1179 1.370 . S
C1178 C1182 1.524 . S
C1179 C1171 1.503 . S
C1179 C1178 1.370 . S
C1179 C1180 1.403 . S
C1180 C1179 1.403 . S
C1180 C1181 1.404 . S
C1180 C1183 1.539 . S
C1181 C1177 1.408 . S
C1181 C1180 1.404 . S
C1181 H1193 0.930 . S
C1182 C1178 1.524 . S
C1182 H1194 0.956 . S
C1182 H1195 0.961 . S
C1182 H1196 0.961 . S
C1183 C1180 1.539 . S
C1183 H1197 0.958 . S
C1183 H1198 0.961 . S
C1183 H1199 0.960 . S
H1184 C1168 0.931 . S
H1185 C1173 0.929 . S
H1186 C1174 0.960 . S
H1187 C1174 0.962 . S
H1188 C1174 0.960 . S
H1189 C1175 0.961 . S
H1190 C1175 0.961 . S
H1191 C1175 0.961 . S
H1192 C1176 0.931 . S
H1193 C1181 0.930 . S
H1194 C1182 0.956 . S
H1195 C1182 0.961 . S
H1196 C1182 0.961 . S
H1197 C1183 0.958 . S
H1198 C1183 0.961 . S
H1199 C1183 0.960 . S
C1200 C1201 1.391 . S
C1200 C1202 1.394 . S
C1200 H1216 0.931 . S
C1201 C1200 1.391 . S
C1201 C1205 1.376 . S
C1202 C1200 1.394 . S
C1202 C1203 1.369 . S
C1202 C1206 1.531 . S
C1203 C1202 1.369 . S
C1203 C1204 1.410 . S
C1203 C1211 1.503 . S
C1204 C1203 1.410 . S
C1204 C1205 1.392 . S
C1204 C1207 1.511 . S
C1205 C1201 1.376 . S
C1205 C1204 1.392 . S
C1205 H1217 0.929 . S
C1206 C1202 1.531 . S
C1206 H1218 0.960 . S
C1206 H1219 0.962 . S
C1206 H1220 0.960 . S
C1207 C1204 1.511 . S
C1207 H1221 0.961 . S
C1207 H1222 0.961 . S
C1207 H1223 0.961 . S
C1208 C1209 1.370 . S
C1208 C1210 1.363 . S
C1208 H1224 0.931 . S
C1209 C1208 1.370 . S
C1209 C1213 1.408 . S
C1210 C1208 1.363 . S
C1210 C1211 1.370 . S
C1210 C1214 1.524 . S
C1211 C1203 1.503 . S
C1211 C1210 1.370 . S
C1211 C1212 1.403 . S
C1212 C1211 1.403 . S
C1212 C1213 1.404 . S
C1212 C1215 1.539 . S
C1213 C1209 1.408 . S
C1213 C1212 1.404 . S
C1213 H1225 0.930 . S
C1214 C1210 1.524 . S
C1214 H1226 0.956 . S
C1214 H1227 0.961 . S
C1214 H1228 0.961 . S
C1215 C1212 1.539 . S
C1215 H1229 0.958 . S
C1215 H1230 0.961 . S
C1215 H1231 0.960 . S
H1216 C1200 0.931 . S
H1217 C1205 0.929 . S
H1218 C1206 0.960 . S
H1219 C1206 0.962 . S
H1220 C1206 0.960 . S
H1221 C1207 0.961 . S
H1222 C1207 0.961 . S
H1223 C1207 0.961 . S
H1224 C1208 0.931 . S
H1225 C1213 0.930 . S
H1226 C1214 0.956 . S
H1227 C1214 0.961 . S
H1228 C1214 0.961 . S
H1229 C1215 0.958 . S
H1230 C1215 0.961 . S
H1231 C1215 0.960 . S
C1232 C1233 1.391 . S
C1232 C1234 1.394 . S
C1232 H1248 0.931 . S
C1233 C1232 1.391 . S
C1233 C1237 1.376 . S
C1234 C1232 1.394 . S
C1234 C1235 1.369 . S
C1234 C1238 1.531 . S
C1235 C1234 1.369 . S
C1235 C1236 1.410 . S
C1235 C1243 1.503 . S
C1236 C1235 1.410 . S
C1236 C1237 1.392 . S
C1236 C1239 1.511 1_655 S
C1237 C1233 1.376 . S
C1237 C1236 1.392 . S
C1237 H1249 0.929 . S
C1238 C1234 1.531 . S
C1238 H1250 0.960 . S
C1238 H1251 0.962 . S
C1238 H1252 0.960 . S
C1239 C1236 1.511 1_455 S
C1239 H1253 0.961 . S
C1239 H1254 0.961 . S
C1239 H1255 0.961 . S
C1240 C1241 1.370 . S
C1240 C1242 1.363 1_455 S
C1240 H1256 0.931 . S
C1241 C1240 1.370 . S
C1241 C1245 1.408 . S
C1242 C1240 1.363 1_655 S
C1242 C1243 1.370 . S
C1242 C1246 1.524 . S
C1243 C1235 1.503 . S
C1243 C1242 1.370 . S
C1243 C1244 1.403 1_655 S
C1244 C1243 1.403 1_455 S
C1244 C1245 1.404 . S
C1244 C1247 1.539 . S
C1245 C1241 1.408 . S
C1245 C1244 1.404 . S
C1245 H1257 0.930 . S
C1246 C1242 1.524 . S
C1246 H1258 0.956 . S
C1246 H1259 0.961 . S
C1246 H1260 0.961 . S
C1247 C1244 1.539 . S
C1247 H1261 0.958 1_455 S
C1247 H1262 0.961 . S
C1247 H1263 0.960 . S
H1248 C1232 0.931 . S
H1249 C1237 0.929 . S
H1250 C1238 0.960 . S
H1251 C1238 0.962 . S
H1252 C1238 0.960 . S
H1253 C1239 0.961 . S
H1254 C1239 0.961 . S
H1255 C1239 0.961 . S
H1256 C1240 0.931 . S
H1257 C1245 0.930 . S
H1258 C1246 0.956 . S
H1259 C1246 0.961 . S
H1260 C1246 0.961 . S
H1261 C1247 0.958 1_655 S
H1262 C1247 0.961 . S
H1263 C1247 0.960 . S
C1264 C1265 1.391 . S
C1264 C1266 1.394 . S
C1264 H1280 0.931 . S
C1265 C1264 1.391 . S
C1265 C1269 1.376 . S
C1266 C1264 1.394 . S
C1266 C1267 1.369 . S
C1266 C1270 1.531 . S
C1267 C1266 1.369 . S
C1267 C1268 1.410 . S
C1267 C1275 1.503 . S
C1268 C1267 1.410 . S
C1268 C1269 1.392 . S
C1268 C1271 1.511 . S
C1269 C1265 1.376 . S
C1269 C1268 1.392 . S
C1269 H1281 0.929 . S
C1270 C1266 1.531 . S
C1270 H1282 0.960 . S
C1270 H1283 0.962 . S
C1270 H1284 0.960 . S
C1271 C1268 1.511 . S
C1271 H1285 0.961 . S
C1271 H1286 0.961 . S
C1271 H1287 0.961 . S
C1272 C1273 1.370 . S
C1272 C1274 1.363 . S
C1272 H1288 0.931 . S
C1273 C1272 1.370 . S
C1273 C1277 1.408 . S
C1274 C1272 1.363 . S
C1274 C1275 1.370 . S
C1274 C1278 1.524 . S
C1275 C1267 1.503 . S
C1275 C1274 1.370 . S
C1275 C1276 1.403 . S
C1276 C1275 1.403 . S
C1276 C1277 1.404 . S
C1276 C1279 1.539 . S
C1277 C1273 1.408 . S
C1277 C1276 1.404 . S
C1277 H1289 0.930 . S
C1278 C1274 1.524 . S
C1278 H1290 0.956 . S
C1278 H1291 0.961 . S
C1278 H1292 0.961 . S
C1279 C1276 1.539 . S
C1279 H1293 0.958 . S
C1279 H1294 0.961 . S
C1279 H1295 0.960 . S
H1280 C1264 0.931 . S
H1281 C1269 0.929 . S
H1282 C1270 0.960 . S
H1283 C1270 0.962 . S
H1284 C1270 0.960 . S
H1285 C1271 0.961 . S
H1286 C1271 0.961 . S
H1287 C1271 0.961 . S
H1288 C1272 0.931 . S
H1289 C1277 0.930 . S
H1290 C1278 0.956 . S
H1291 C1278 0.961 . S
H1292 C1278 0.961 . S
H1293 C1279 0.958 . S
H1294 C1279 0.961 . S
H1295 C1279 0.960 . S
C1296 C1297 1.395 . S
C1296 C1298 1.394 1_565 S
C1296 H1312 0.931 . S
C1297 C1296 1.395 . S
C1297 C1301 1.347 1_565 S
C1298 C1296 1.394 1_545 S
C1298 C1299 1.369 . S
C1298 C1302 1.531 1_545 S
C1299 C1298 1.369 . S
C1299 C1300 1.410 . S
C1299 C1307 1.503 . S
C1300 C1299 1.410 . S
C1300 C1301 1.392 . S
C1300 C1303 1.511 . S
C1301 C1297 1.347 1_545 S
C1301 C1300 1.392 . S
C1301 H1313 0.929 . S
C1302 C1298 1.531 1_565 S
C1302 H1314 0.960 1_565 S
C1302 H1315 0.962 . S
C1302 H1316 0.960 . S
C1303 C1300 1.511 . S
C1303 H1317 0.961 . S
C1303 H1318 0.961 . S
C1303 H1319 0.961 . S
C1304 C1305 1.370 . S
C1304 C1306 1.363 . S
C1304 H1320 0.931 . S
C1305 C1304 1.370 . S
C1305 C1309 1.408 . S
C1306 C1304 1.363 . S
C1306 C1307 1.370 . S
C1306 C1310 1.524 . S
C1307 C1299 1.503 . S
C1307 C1306 1.370 . S
C1307 C1308 1.403 . S
C1308 C1307 1.403 . S
C1308 C1309 1.404 . S
C1308 C1311 1.539 . S
C1309 C1305 1.408 . S
C1309 C1308 1.404 . S
C1309 H1321 0.930 . S
C1310 C1306 1.524 . S
C1310 H1322 0.956 1_545 S
C1310 H1323 0.961 . S
C1310 H1324 0.961 . S
C1311 C1308 1.539 . S
C1311 H1325 0.958 . S
C1311 H1326 0.961 . S
C1311 H1327 0.960 . S
H1312 C1296 0.931 . S
H1313 C1301 0.929 . S
H1314 C1302 0.960 1_545 S
H1315 C1302 0.962 . S
H1316 C1302 0.960 . S
H1317 C1303 0.961 . S
H1318 C1303 0.961 . S
H1319 C1303 0.961 . S
H1320 C1304 0.931 . S
H1321 C1309 0.930 . S
H1322 C1310 0.956 1_565 S
H1323 C1310 0.961 . S
H1324 C1310 0.961 . S
H1325 C1311 0.958 . S
H1326 C1311 0.961 . S
H1327 C1311 0.960 . S
C1328 C1329 1.391 . S
C1328 C1330 1.394 . S
C1328 H1344 0.931 . S
C1329 C1328 1.391 . S
C1329 C1333 1.376 . S
C1330 C1328 1.394 . S
C1330 C1331 1.369 . S
C1330 C1334 1.531 . S
C1331 C1330 1.369 . S
C1331 C1332 1.410 . S
C1331 C1339 1.503 . S
C1332 C1331 1.410 . S
C1332 C1333 1.392 . S
C1332 C1335 1.511 . S
C1333 C1329 1.376 . S
C1333 C1332 1.392 . S
C1333 H1345 0.929 . S
C1334 C1330 1.531 . S
C1334 H1346 0.960 . S
C1334 H1347 0.962 . S
C1334 H1348 0.960 . S
C1335 C1332 1.511 . S
C1335 H1349 0.961 . S
C1335 H1350 0.961 . S
C1335 H1351 0.961 . S
C1336 C1337 1.370 . S
C1336 C1338 1.363 . S
C1336 H1352 0.931 . S
C1337 C1336 1.370 . S
C1337 C1341 1.408 . S
C1338 C1336 1.363 . S
C1338 C1339 1.370 . S
C1338 C1342 1.524 . S
C1339 C1331 1.503 . S
C1339 C1338 1.370 . S
C1339 C1340 1.403 . S
C1340 C1339 1.403 . S
C1340 C1341 1.404 . S
C1340 C1343 1.539 . S
C1341 C1337 1.408 . S
C1341 C1340 1.404 . S
C1341 H1353 0.930 . S
C1342 C1338 1.524 . S
C1342 H1354 0.956 . S
C1342 H1355 0.961 . S
C1342 H1356 0.961 . S
C1343 C1340 1.539 . S
C1343 H1357 0.958 . S
C1343 H1358 0.961 . S
C1343 H1359 0.960 . S
H1344 C1328 0.931 . S
H1345 C1333 0.929 . S
H1346 C1334 0.960 . S
H1347 C1334 0.962 . S
H1348 C1334 0.960 . S
H1349 C1335 0.961 . S
H1350 C1335 0.961 . S
H1351 C1335 0.961 . S
H1352 C1336 0.931 . S
H1353 C1341 0.930 . S
H1354 C1342 0.956 . S
H1355 C1342 0.961 . S
H1356 C1342 0.961 . S
H1357 C1343 0.958 . S
H1358 C1343 0.961 . S
H1359 C1343 0.960 . S
C1360 C1361 1.391 . S
C1360 C1362 1.394 . S
C1360 H1376 0.931 . S
C1361 C1360 1.391 . S
C1361 C1365 1.376 . S
C1362 C1360 1.394 . S
C1362 C1363 1.369 . S
C1362 C1366 1.531 . S
C1363 C1362 1.369 . S
C1363 C1364 1.410 . S
C1363 C1371 1.503 . S
C1364 C1363 1.410 . S
C1364 C1365 1.392 . S
C1364 C1367 1.511 . S
C1365 C1361 1.376 . S
C1365 C1364 1.392 . S
C1365 H1377 0.929 . S
C1366 C1362 1.531 . S
C1366 H1378 0.960 . S
C1366 H1379 0.962 . S
C1366 H1380 0.960 . S
C1367 C1364 1.511 . S
C1367 H1381 0.961 1_655 S
C1367 H1382 0.961 1_655 S
C1367 H1383 0.961 1_655 S
C1368 C1369 1.370 . S
C1368 C1370 1.363 . S
C1368 H1384 0.931 . S
C1369 C1368 1.370 . S
C1369 C1373 1.408 . S
C1370 C1368 1.363 . S
C1370 C1371 1.370 . S
C1370 C1374 1.524 . S
C1371 C1363 1.503 . S
C1371 C1370 1.370 . S
C1371 C1372 1.403 . S
C1372 C1371 1.403 . S
C1372 C1373 1.404 . S
C1372 C1375 1.539 . S
C1373 C1369 1.408 . S
C1373 C1372 1.404 . S
C1373 H1385 0.930 . S
C1374 C1370 1.524 . S
C1374 H1386 0.956 . S
C1374 H1387 0.961 . S
C1374 H1388 0.961 . S
C1375 C1372 1.539 . S
C1375 H1389 0.958 . S
C1375 H1390 0.961 . S
C1375 H1391 0.960 . S
H1376 C1360 0.931 . S
H1377 C1365 0.929 . S
H1378 C1366 0.960 . S
H1379 C1366 0.962 . S
H1380 C1366 0.960 . S
H1381 C1367 0.961 1_455 S
H1382 C1367 0.961 1_455 S
H1383 C1367 0.961 1_455 S
H1384 C1368 0.931 . S
H1385 C1373 0.930 . S
H1386 C1374 0.956 . S
H1387 C1374 0.961 . S
H1388 C1374 0.961 . S
H1389 C1375 0.958 . S
H1390 C1375 0.961 . S
H1391 C1375 0.960 . S
C1392 C1393 1.391 . S
C1392 C1394 1.394 . S
C1392 H1408 0.931 . S
C1393 C1392 1.391 . S
C1393 C1397 1.376 . S
C1394 C1392 1.394 . S
C1394 C1395 1.369 . S
C1394 C1398 1.531 . S
C1395 C1394 1.369 . S
C1395 C1396 1.410 . S
C1395 C1403 1.503 . S
C1396 C1395 1.410 . S
C1396 C1397 1.392 . S
C1396 C1399 1.511 . S
C1397 C1393 1.376 . S
C1397 C1396 1.392 . S
C1397 H1409 0.929 . S
C1398 C1394 1.531 . S
C1398 H1410 0.960 . S
C1398 H1411 0.962 . S
C1398 H1412 0.960 . S
C1399 C1396 1.511 . S
C1399 H1413 0.961 . S
C1399 H1414 0.961 . S
C1399 H1415 0.961 . S
C1400 C1401 1.370 . S
C1400 C1402 1.363 . S
C1400 H1416 0.931 . S
C1401 C1400 1.370 . S
C1401 C1405 1.408 . S
C1402 C1400 1.363 . S
C1402 C1403 1.370 . S
C1402 C1406 1.524 . S
C1403 C1395 1.503 . S
C1403 C1402 1.370 . S
C1403 C1404 1.403 . S
C1404 C1403 1.403 . S
C1404 C1405 1.404 . S
C1404 C1407 1.539 . S
C1405 C1401 1.408 . S
C1405 C1404 1.404 . S
C1405 H1417 0.930 . S
C1406 C1402 1.524 . S
C1406 H1418 0.956 . S
C1406 H1419 0.961 . S
C1406 H1420 0.961 . S
C1407 C1404 1.539 . S
C1407 H1421 0.958 . S
C1407 H1422 0.961 . S
C1407 H1423 0.960 . S
H1408 C1392 0.931 . S
H1409 C1397 0.929 . S
H1410 C1398 0.960 . S
H1411 C1398 0.962 . S
H1412 C1398 0.960 . S
H1413 C1399 0.961 . S
H1414 C1399 0.961 . S
H1415 C1399 0.961 . S
H1416 C1400 0.931 . S
H1417 C1405 0.930 . S
H1418 C1406 0.956 . S
H1419 C1406 0.961 . S
H1420 C1406 0.961 . S
H1421 C1407 0.958 . S
H1422 C1407 0.961 . S
H1423 C1407 0.960 . S
C1424 C1425 1.391 . S
C1424 C1426 1.394 . S
C1424 H1440 0.931 1_545 S
C1425 C1424 1.391 . S
C1425 C1429 1.376 . S
C1426 C1424 1.394 . S
C1426 C1427 1.369 . S
C1426 C1430 1.531 . S
C1427 C1426 1.369 . S
C1427 C1428 1.410 . S
C1427 C1435 1.503 . S
C1428 C1427 1.410 . S
C1428 C1429 1.392 . S
C1428 C1431 1.511 . S
C1429 C1425 1.376 . S
C1429 C1428 1.392 . S
C1429 H1441 0.929 . S
C1430 C1426 1.531 . S
C1430 H1442 0.960 . S
C1430 H1443 0.962 . S
C1430 H1444 0.960 1_545 S
C1431 C1428 1.511 . S
C1431 H1445 0.961 . S
C1431 H1446 0.961 . S
C1431 H1447 0.961 . S
C1432 C1433 1.370 . S
C1432 C1434 1.363 . S
C1432 H1448 0.931 . S
C1433 C1432 1.370 . S
C1433 C1437 1.408 . S
C1434 C1432 1.363 . S
C1434 C1435 1.370 . S
C1434 C1438 1.524 . S
C1435 C1427 1.503 . S
C1435 C1434 1.370 . S
C1435 C1436 1.403 . S
C1436 C1435 1.403 . S
C1436 C1437 1.404 . S
C1436 C1439 1.539 . S
C1437 C1433 1.408 . S
C1437 C1436 1.404 . S
C1437 H1449 0.930 . S
C1438 C1434 1.524 . S
C1438 H1450 0.956 . S
C1438 H1451 0.961 . S
C1438 H1452 0.961 . S
C1439 C1436 1.539 . S
C1439 H1453 0.958 . S
C1439 H1454 0.961 . S
C1439 H1455 0.960 . S
H1440 C1424 0.931 1_565 S
H1441 C1429 0.929 . S
H1442 C1430 0.960 . S
H1443 C1430 0.962 . S
H1444 C1430 0.960 1_565 S
H1445 C1431 0.961 . S
H1446 C1431 0.961 . S
H1447 C1431 0.961 . S
H1448 C1432 0.931 . S
H1449 C1437 0.930 . S
H1450 C1438 0.956 . S
H1451 C1438 0.961 . S
H1452 C1438 0.961 . S
H1453 C1439 0.958 . S
H1454 C1439 0.961 . S
H1455 C1439 0.960 . S
C1456 C1457 1.391 . S
C1456 C1458 1.394 . S
C1456 H1472 0.931 . S
C1457 C1456 1.391 . S
C1457 C1461 1.376 . S
C1458 C1456 1.394 . S
C1458 C1459 1.369 . S
C1458 C1462 1.531 . S
C1459 C1458 1.369 . S
C1459 C1460 1.410 . S
C1459 C1467 1.503 . S
C1460 C1459 1.410 . S
C1460 C1461 1.392 . S
C1460 C1463 1.511 . S
C1461 C1457 1.376 . S
C1461 C1460 1.392 . S
C1461 H1473 0.929 . S
C1462 C1458 1.531 . S
C1462 H1474 0.960 . S
C1462 H1475 0.962 . S
C1462 H1476 0.960 . S
C1463 C1460 1.511 . S
C1463 H1477 0.961 . S
C1463 H1478 0.961 . S
C1463 H1479 0.961 . S
C1464 C1465 1.370 . S
C1464 C1466 1.363 . S
C1464 H1480 0.931 . S
C1465 C1464 1.370 . S
C1465 C1469 1.408 . S
C1466 C1464 1.363 . S
C1466 C1467 1.370 . S
C1466 C1470 1.524 . S
C1467 C1459 1.503 . S
C1467 C1466 1.370 . S
C1467 C1468 1.403 . S
C1468 C1467 1.403 . S
C1468 C1469 1.404 . S
C1468 C1471 1.539 . S
C1469 C1465 1.408 . S
C1469 C1468 1.404 . S
C1469 H1481 0.930 . S
C1470 C1466 1.524 . S
C1470 H1482 0.956 . S
C1470 H1483 0.961 . S
C1470 H1484 0.961 . S
C1471 C1468 1.539 . S
C1471 H1485 0.958 . S
C1471 H1486 0.961 . S
C1471 H1487 0.960 . S
H1472 C1456 0.931 . S
H1473 C1461 0.929 . S
H1474 C1462 0.960 . S
H1475 C1462 0.962 . S
H1476 C1462 0.960 . S
H1477 C1463 0.961 . S
H1478 C1463 0.961 . S
H1479 C1463 0.961 . S
H1480 C1464 0.931 . S
H1481 C1469 0.930 . S
H1482 C1470 0.956 . S
H1483 C1470 0.961 . S
H1484 C1470 0.961 . S
H1485 C1471 0.958 . S
H1486 C1471 0.961 . S
H1487 C1471 0.960 . S
C1488 C1489 1.391 . S
C1488 C1490 1.394 . S
C1488 H1504 0.931 . S
C1489 C1488 1.391 . S
C1489 C1493 1.376 1_565 S
C1490 C1488 1.394 . S
C1490 C1491 1.369 1_565 S
C1490 C1494 1.531 . S
C1491 C1490 1.369 1_545 S
C1491 C1492 1.410 . S
C1491 C1499 1.503 . S
C1492 C1491 1.410 . S
C1492 C1493 1.392 . S
C1492 C1495 1.511 . S
C1493 C1489 1.376 1_545 S
C1493 C1492 1.392 . S
C1493 H1505 0.929 . S
C1494 C1490 1.531 . S
C1494 H1506 0.960 . S
C1494 H1507 0.962 . S
C1494 H1508 0.960 . S
C1495 C1492 1.511 . S
C1495 H1509 0.961 . S
C1495 H1510 0.961 . S
C1495 H1511 0.961 . S
C1496 C1497 1.370 . S
C1496 C1498 1.363 . S
C1496 H1512 0.931 . S
C1497 C1496 1.370 . S
C1497 C1501 1.408 . S
C1498 C1496 1.363 . S
C1498 C1499 1.370 . S
C1498 C1502 1.511 1_545 S
C1499 C1491 1.503 . S
C1499 C1498 1.370 . S
C1499 C1500 1.403 . S
C1500 C1499 1.403 . S
C1500 C1501 1.404 . S
C1500 C1503 1.539 . S
C1501 C1497 1.408 . S
C1501 C1500 1.404 . S
C1501 H1513 0.930 . S
C1502 C1498 1.511 1_565 S
C1502 H1514 0.994 . S
C1502 H1515 0.953 1_565 S
C1502 H1516 0.946 1_565 S
C1503 C1500 1.539 . S
C1503 H1517 0.958 . S
C1503 H1518 0.961 . S
C1503 H1519 0.960 . S
H1504 C1488 0.931 . S
H1505 C1493 0.929 . S
H1506 C1494 0.960 . S
H1507 C1494 0.962 . S
H1508 C1494 0.960 . S
H1509 C1495 0.961 . S
H1510 C1495 0.961 . S
H1511 C1495 0.961 . S
H1512 C1496 0.931 . S
H1513 C1501 0.930 . S
H1514 C1502 0.994 . S
H1515 C1502 0.953 1_545 S
H1516 C1502 0.946 1_545 S
H1517 C1503 0.958 . S
H1518 C1503 0.961 . S
H1519 C1503 0.960 . S
C1520 C1521 1.391 . S
C1520 C1522 1.394 . S
C1520 H1536 0.931 . S
C1521 C1520 1.391 . S
C1521 C1525 1.376 1_554 S
C1522 C1520 1.394 . S
C1522 C1523 1.369 . S
C1522 C1526 1.531 . S
C1523 C1522 1.369 . S
C1523 C1524 1.410 1_554 S
C1523 C1531 1.503 . S
C1524 C1523 1.410 1_556 S
C1524 C1525 1.392 . S
C1524 C1527 1.511 . S
C1525 C1521 1.376 1_556 S
C1525 C1524 1.392 . S
C1525 H1537 0.929 . S
C1526 C1522 1.531 . S
C1526 H1538 0.960 . S
C1526 H1539 0.962 . S
C1526 H1540 0.960 . S
C1527 C1524 1.511 . S
C1527 H1541 0.961 . S
C1527 H1542 0.961 . S
C1527 H1543 0.961 . S
C1528 C1529 1.370 . S
C1528 C1530 1.363 . S
C1528 H1544 0.931 . S
C1529 C1528 1.370 . S
C1529 C1533 1.408 1_554 S
C1530 C1528 1.363 . S
C1530 C1531 1.370 . S
C1530 C1534 1.524 . S
C1531 C1523 1.503 . S
C1531 C1530 1.370 . S
C1531 C1532 1.403 1_554 S
C1532 C1531 1.403 1_556 S
C1532 C1533 1.404 . S
C1532 C1535 1.539 . S
C1533 C1529 1.408 1_556 S
C1533 C1532 1.404 . S
C1533 H1545 0.930 . S
C1534 C1530 1.524 . S
C1534 H1546 0.956 . S
C1534 H1547 0.961 . S
C1534 H1548 0.961 . S
C1535 C1532 1.539 . S
C1535 H1549 0.958 . S
C1535 H1550 0.961 . S
C1535 H1551 0.960 . S
H1536 C1520 0.931 . S
H1537 C1525 0.929 . S
H1538 C1526 0.960 . S
H1539 C1526 0.962 . S
H1540 C1526 0.960 . S
H1541 C1527 0.961 . S
H1542 C1527 0.961 . S
H1543 C1527 0.961 . S
H1544 C1528 0.931 . S
H1545 C1533 0.930 . S
H1546 C1534 0.956 . S
H1547 C1534 0.961 . S
H1548 C1534 0.961 . S
H1549 C1535 0.958 . S
H1550 C1535 0.961 . S
H1551 C1535 0.960 . S
C1552 C1553 1.391 . S
C1552 C1554 1.394 . S
C1552 H1568 0.931 . S
C1553 C1552 1.391 . S
C1553 C1557 1.376 . S
C1554 C1552 1.394 . S
C1554 C1555 1.369 . S
C1554 C1558 1.531 . S
C1555 C1554 1.369 . S
C1555 C1556 1.410 . S
C1555 C1563 1.503 . S
C1556 C1555 1.410 . S
C1556 C1557 1.392 . S
C1556 C1559 1.511 . S
C1557 C1553 1.376 . S
C1557 C1556 1.392 . S
C1557 H1569 0.929 . S
C1558 C1554 1.531 . S
C1558 H1570 0.960 . S
C1558 H1571 0.962 . S
C1558 H1572 0.960 . S
C1559 C1556 1.511 . S
C1559 H1573 0.961 . S
C1559 H1574 0.961 . S
C1559 H1575 0.961 . S
C1560 C1561 1.370 . S
C1560 C1562 1.363 . S
C1560 H1576 0.931 . S
C1561 C1560 1.370 . S
C1561 C1565 1.408 . S
C1562 C1560 1.363 . S
C1562 C1563 1.370 . S
C1562 C1566 1.524 . S
C1563 C1555 1.503 . S
C1563 C1562 1.370 . S
C1563 C1564 1.403 . S
C1564 C1563 1.403 . S
C1564 C1565 1.404 . S
C1564 C1567 1.539 . S
C1565 C1561 1.408 . S
C1565 C1564 1.404 . S
C1565 H1577 0.930 . S
C1566 C1562 1.524 . S
C1566 H1578 0.956 . S
C1566 H1579 0.961 . S
C1566 H1580 0.961 . S
C1567 C1564 1.539 . S
C1567 H1581 0.958 . S
C1567 H1582 0.961 . S
C1567 H1583 0.960 . S
H1568 C1552 0.931 . S
H1569 C1557 0.929 . S
H1570 C1558 0.960 . S
H1571 C1558 0.962 . S
H1572 C1558 0.960 . S
H1573 C1559 0.961 . S
H1574 C1559 0.961 . S
H1575 C1559 0.961 . S
H1576 C1560 0.931 . S
H1577 C1565 0.930 . S
H1578 C1566 0.956 . S
H1579 C1566 0.961 . S
H1580 C1566 0.961 . S
H1581 C1567 0.958 . S
H1582 C1567 0.961 . S
H1583 C1567 0.960 . S
C1584 C1585 1.391 . S
C1584 C1586 1.394 . S
C1584 H1600 0.931 . S
C1585 C1584 1.391 . S
C1585 C1589 1.376 . S
C1586 C1584 1.394 . S
C1586 C1587 1.369 . S
C1586 C1590 1.531 . S
C1587 C1586 1.369 . S
C1587 C1588 1.410 . S
C1587 C1595 1.503 . S
C1588 C1587 1.410 . S
C1588 C1589 1.392 . S
C1588 C1591 1.511 . S
C1589 C1585 1.376 . S
C1589 C1588 1.392 . S
C1589 H1601 0.929 . S
C1590 C1586 1.531 . S
C1590 H1602 0.960 . S
C1590 H1603 0.962 . S
C1590 H1604 0.960 . S
C1591 C1588 1.511 . S
C1591 H1605 0.961 . S
C1591 H1606 0.961 . S
C1591 H1607 0.961 . S
C1592 C1593 1.370 . S
C1592 C1594 1.363 . S
C1592 H1608 0.931 . S
C1593 C1592 1.370 . S
C1593 C1597 1.408 . S
C1594 C1592 1.363 . S
C1594 C1595 1.370 . S
C1594 C1598 1.524 . S
C1595 C1587 1.503 . S
C1595 C1594 1.370 . S
C1595 C1596 1.403 . S
C1596 C1595 1.403 . S
C1596 C1597 1.404 . S
C1596 C1599 1.539 . S
C1597 C1593 1.408 . S
C1597 C1596 1.404 . S
C1597 H1609 0.930 . S
C1598 C1594 1.524 . S
C1598 H1610 0.956 . S
C1598 H1611 0.961 . S
C1598 H1612 0.961 . S
C1599 C1596 1.539 . S
C1599 H1613 0.958 . S
C1599 H1614 0.961 . S
C1599 H1615 0.960 . S
H1600 C1584 0.931 . S
H1601 C1589 0.929 . S
H1602 C1590 0.960 . S
H1603 C1590 0.962 . S
H1604 C1590 0.960 . S
H1605 C1591 0.961 . S
H1606 C1591 0.961 . S
H1607 C1591 0.961 . S
H1608 C1592 0.931 . S
H1609 C1597 0.930 . S
H1610 C1598 0.956 . S
H1611 C1598 0.961 . S
H1612 C1598 0.961 . S
H1613 C1599 0.958 . S
H1614 C1599 0.961 . S
H1615 C1599 0.960 . S
C1616 C1617 1.391 . S
C1616 C1618 1.394 . S
C1616 H1632 0.931 . S
C1617 C1616 1.391 . S
C1617 C1621 1.376 . S
C1618 C1616 1.394 . S
C1618 C1619 1.369 . S
C1618 C1622 1.531 . S
C1619 C1618 1.369 . S
C1619 C1620 1.410 . S
C1619 C1627 1.503 . S
C1620 C1619 1.410 . S
C1620 C1621 1.392 . S
C1620 C1623 1.511 . S
C1621 C1617 1.376 . S
C1621 C1620 1.392 . S
C1621 H1633 0.929 . S
C1622 C1618 1.531 . S
C1622 H1634 0.960 . S
C1622 H1635 0.962 . S
C1622 H1636 0.960 . S
C1623 C1620 1.511 . S
C1623 H1637 0.961 . S
C1623 H1638 0.961 . S
C1623 H1639 0.961 . S
C1624 C1625 1.370 . S
C1624 C1626 1.363 . S
C1624 H1640 0.931 . S
C1625 C1624 1.370 . S
C1625 C1629 1.408 . S
C1626 C1624 1.363 . S
C1626 C1627 1.370 . S
C1626 C1630 1.524 . S
C1627 C1619 1.503 . S
C1627 C1626 1.370 . S
C1627 C1628 1.403 . S
C1628 C1627 1.403 . S
C1628 C1629 1.404 . S
C1628 C1631 1.539 . S
C1629 C1625 1.408 . S
C1629 C1628 1.404 . S
C1629 H1641 0.930 . S
C1630 C1626 1.524 . S
C1630 H1642 0.956 . S
C1630 H1643 0.961 . S
C1630 H1644 0.961 . S
C1631 C1628 1.539 . S
C1631 H1645 0.958 . S
C1631 H1646 0.961 . S
C1631 H1647 0.960 . S
H1632 C1616 0.931 . S
H1633 C1621 0.929 . S
H1634 C1622 0.960 . S
H1635 C1622 0.962 . S
H1636 C1622 0.960 . S
H1637 C1623 0.961 . S
H1638 C1623 0.961 . S
H1639 C1623 0.961 . S
H1640 C1624 0.931 . S
H1641 C1629 0.930 . S
H1642 C1630 0.956 . S
H1643 C1630 0.961 . S
H1644 C1630 0.961 . S
H1645 C1631 0.958 . S
H1646 C1631 0.961 . S
H1647 C1631 0.960 . S
C1648 C1649 1.391 . S
C1648 C1650 1.394 . S
C1648 H1664 0.931 . S
C1649 C1648 1.391 . S
C1649 C1653 1.376 . S
C1650 C1648 1.394 . S
C1650 C1651 1.369 . S
C1650 C1654 1.531 . S
C1651 C1650 1.369 . S
C1651 C1652 1.410 . S
C1651 C1659 1.503 . S
C1652 C1651 1.410 . S
C1652 C1653 1.392 . S
C1652 C1655 1.511 . S
C1653 C1649 1.376 . S
C1653 C1652 1.392 . S
C1653 H1665 0.929 . S
C1654 C1650 1.531 . S
C1654 H1666 0.960 . S
C1654 H1667 0.962 . S
C1654 H1668 0.960 . S
C1655 C1652 1.511 . S
C1655 H1669 0.961 . S
C1655 H1670 0.961 . S
C1655 H1671 0.961 . S
C1656 C1657 1.370 . S
C1656 C1658 1.363 . S
C1656 H1672 0.931 . S
C1657 C1656 1.370 . S
C1657 C1661 1.408 . S
C1658 C1656 1.363 . S
C1658 C1659 1.370 . S
C1658 C1662 1.524 . S
C1659 C1651 1.503 . S
C1659 C1658 1.370 . S
C1659 C1660 1.403 . S
C1660 C1659 1.403 . S
C1660 C1661 1.404 . S
C1660 C1663 1.539 . S
C1661 C1657 1.408 . S
C1661 C1660 1.404 . S
C1661 H1673 0.930 . S
C1662 C1658 1.524 . S
C1662 H1674 0.956 . S
C1662 H1675 0.961 . S
C1662 H1676 0.961 . S
C1663 C1660 1.539 . S
C1663 H1677 0.958 . S
C1663 H1678 0.961 . S
C1663 H1679 0.960 . S
H1664 C1648 0.931 . S
H1665 C1653 0.929 . S
H1666 C1654 0.960 . S
H1667 C1654 0.962 . S
H1668 C1654 0.960 . S
H1669 C1655 0.961 . S
H1670 C1655 0.961 . S
H1671 C1655 0.961 . S
H1672 C1656 0.931 . S
H1673 C1661 0.930 . S
H1674 C1662 0.956 . S
H1675 C1662 0.961 . S
H1676 C1662 0.961 . S
H1677 C1663 0.958 . S
H1678 C1663 0.961 . S
H1679 C1663 0.960 . S
C1680 C1681 1.391 . S
C1680 C1682 1.394 . S
C1680 H1696 0.931 . S
C1681 C1680 1.391 . S
C1681 C1685 1.376 . S
C1682 C1680 1.394 . S
C1682 C1683 1.369 . S
C1682 C1686 1.531 . S
C1683 C1682 1.369 . S
C1683 C1684 1.410 . S
C1683 C1691 1.503 . S
C1684 C1683 1.410 . S
C1684 C1685 1.392 . S
C1684 C1687 1.511 . S
C1685 C1681 1.376 . S
C1685 C1684 1.392 . S
C1685 H1697 0.929 . S
C1686 C1682 1.531 . S
C1686 H1698 0.960 . S
C1686 H1699 0.962 . S
C1686 H1700 0.960 . S
C1687 C1684 1.511 . S
C1687 H1701 0.961 . S
C1687 H1702 0.961 . S
C1687 H1703 0.961 . S
C1688 C1689 1.370 . S
C1688 C1690 1.363 . S
C1688 H1704 0.931 . S
C1689 C1688 1.370 . S
C1689 C1693 1.408 . S
C1690 C1688 1.363 . S
C1690 C1691 1.370 . S
C1690 C1694 1.524 . S
C1691 C1683 1.503 . S
C1691 C1690 1.370 . S
C1691 C1692 1.403 . S
C1692 C1691 1.403 . S
C1692 C1693 1.404 . S
C1692 C1695 1.539 . S
C1693 C1689 1.408 . S
C1693 C1692 1.404 . S
C1693 H1705 0.930 . S
C1694 C1690 1.524 . S
C1694 H1706 0.956 . S
C1694 H1707 0.961 . S
C1694 H1708 0.961 . S
C1695 C1692 1.539 . S
C1695 H1709 0.958 . S
C1695 H1710 0.961 . S
C1695 H1711 0.960 . S
H1696 C1680 0.931 . S
H1697 C1685 0.929 . S
H1698 C1686 0.960 . S
H1699 C1686 0.962 . S
H1700 C1686 0.960 . S
H1701 C1687 0.961 . S
H1702 C1687 0.961 . S
H1703 C1687 0.961 . S
H1704 C1688 0.931 . S
H1705 C1693 0.930 . S
H1706 C1694 0.956 . S
H1707 C1694 0.961 . S
H1708 C1694 0.961 . S
H1709 C1695 0.958 . S
H1710 C1695 0.961 . S
H1711 C1695 0.960 . S
C1712 C1713 1.391 . S
C1712 C1714 1.394 . S
C1712 H1728 0.931 . S
C1713 C1712 1.391 . S
C1713 C1717 1.376 . S
C1714 C1712 1.394 . S
C1714 C1715 1.369 . S
C1714 C1718 1.531 . S
C1715 C1714 1.369 . S
C1715 C1716 1.410 . S
C1715 C1723 1.503 . S
C1716 C1715 1.410 . S
C1716 C1717 1.392 . S
C1716 C1719 1.511 . S
C1717 C1713 1.376 . S
C1717 C1716 1.392 . S
C1717 H1729 0.929 . S
C1718 C1714 1.531 . S
C1718 H1730 0.960 . S
C1718 H1731 0.962 . S
C1718 H1732 0.960 . S
C1719 C1716 1.511 . S
C1719 H1733 0.961 . S
C1719 H1734 0.961 . S
C1719 H1735 0.961 . S
C1720 C1721 1.370 . S
C1720 C1722 1.363 . S
C1720 H1736 0.931 . S
C1721 C1720 1.370 . S
C1721 C1725 1.408 . S
C1722 C1720 1.363 . S
C1722 C1723 1.370 . S
C1722 C1726 1.524 . S
C1723 C1715 1.503 . S
C1723 C1722 1.370 . S
C1723 C1724 1.403 . S
C1724 C1723 1.403 . S
C1724 C1725 1.404 . S
C1724 C1727 1.539 . S
C1725 C1721 1.408 . S
C1725 C1724 1.404 . S
C1725 H1737 0.930 . S
C1726 C1722 1.524 . S
C1726 H1738 0.956 . S
C1726 H1739 0.961 . S
C1726 H1740 0.961 . S
C1727 C1724 1.539 . S
C1727 H1741 0.958 . S
C1727 H1742 0.961 . S
C1727 H1743 0.960 . S
H1728 C1712 0.931 . S
H1729 C1717 0.929 . S
H1730 C1718 0.960 . S
H1731 C1718 0.962 . S
H1732 C1718 0.960 . S
H1733 C1719 0.961 . S
H1734 C1719 0.961 . S
H1735 C1719 0.961 . S
H1736 C1720 0.931 . S
H1737 C1725 0.930 . S
H1738 C1726 0.956 . S
H1739 C1726 0.961 . S
H1740 C1726 0.961 . S
H1741 C1727 0.958 . S
H1742 C1727 0.961 . S
H1743 C1727 0.960 . S
C1744 C1745 1.391 . S
C1744 C1746 1.394 . S
C1744 H1760 0.931 . S
C1745 C1744 1.391 . S
C1745 C1749 1.376 . S
C1746 C1744 1.394 . S
C1746 C1747 1.369 . S
C1746 C1750 1.531 . S
C1747 C1746 1.369 . S
C1747 C1748 1.410 . S
C1747 C1755 1.503 . S
C1748 C1747 1.410 . S
C1748 C1749 1.392 . S
C1748 C1751 1.511 . S
C1749 C1745 1.376 . S
C1749 C1748 1.392 . S
C1749 H1761 0.929 . S
C1750 C1746 1.531 . S
C1750 H1762 0.960 . S
C1750 H1763 0.962 . S
C1750 H1764 0.960 . S
C1751 C1748 1.511 . S
C1751 H1765 0.961 . S
C1751 H1766 0.961 . S
C1751 H1767 0.961 . S
C1752 C1753 1.370 1_565 S
C1752 C1754 1.363 . S
C1752 H1768 0.931 . S
C1753 C1752 1.370 1_545 S
C1753 C1757 1.408 . S
C1754 C1752 1.363 . S
C1754 C1755 1.370 . S
C1754 C1758 1.524 . S
C1755 C1747 1.503 . S
C1755 C1754 1.370 . S
C1755 C1756 1.403 . S
C1756 C1755 1.403 . S
C1756 C1757 1.404 1_565 S
C1756 C1759 1.539 . S
C1757 C1753 1.408 . S
C1757 C1756 1.404 1_545 S
C1757 H1769 0.930 . S
C1758 C1754 1.524 . S
C1758 H1770 0.956 . S
C1758 H1771 0.961 . S
C1758 H1772 0.961 . S
C1759 C1756 1.539 . S
C1759 H1773 0.965 . S
C1759 H1774 0.961 1_565 S
C1759 H1775 0.960 . S
H1760 C1744 0.931 . S
H1761 C1749 0.929 . S
H1762 C1750 0.960 . S
H1763 C1750 0.962 . S
H1764 C1750 0.960 . S
H1765 C1751 0.961 . S
H1766 C1751 0.961 . S
H1767 C1751 0.961 . S
H1768 C1752 0.931 . S
H1769 C1757 0.930 . S
H1770 C1758 0.956 . S
H1771 C1758 0.961 . S
H1772 C1758 0.961 . S
H1773 C1759 0.965 . S
H1774 C1759 0.961 1_545 S
H1775 C1759 0.960 . S
C1776 C1777 1.391 . S
C1776 C1778 1.394 . S
C1776 H1792 0.931 . S
C1777 C1776 1.391 . S
C1777 C1781 1.376 . S
C1778 C1776 1.394 . S
C1778 C1779 1.369 . S
C1778 C1782 1.531 . S
C1779 C1778 1.369 . S
C1779 C1780 1.410 . S
C1779 C1787 1.503 . S
C1780 C1779 1.410 . S
C1780 C1781 1.392 . S
C1780 C1783 1.511 . S
C1781 C1777 1.376 . S
C1781 C1780 1.392 . S
C1781 H1793 0.929 . S
C1782 C1778 1.531 . S
C1782 H1794 0.960 . S
C1782 H1795 0.962 . S
C1782 H1796 0.960 . S
C1783 C1780 1.511 . S
C1783 H1797 0.961 . S
C1783 H1798 0.961 . S
C1783 H1799 0.961 . S
C1784 C1785 1.370 . S
C1784 C1786 1.363 . S
C1784 H1800 0.931 . S
C1785 C1784 1.370 . S
C1785 C1789 1.408 . S
C1786 C1784 1.363 . S
C1786 C1787 1.370 . S
C1786 C1790 1.524 . S
C1787 C1779 1.503 . S
C1787 C1786 1.370 . S
C1787 C1788 1.403 . S
C1788 C1787 1.403 . S
C1788 C1789 1.404 . S
C1788 C1791 1.539 . S
C1789 C1785 1.408 . S
C1789 C1788 1.404 . S
C1789 H1801 0.930 . S
C1790 C1786 1.524 . S
C1790 H1802 0.956 . S
C1790 H1803 0.961 . S
C1790 H1804 0.961 . S
C1791 C1788 1.539 . S
C1791 H1805 0.958 . S
C1791 H1806 0.961 . S
C1791 H1807 0.960 . S
H1792 C1776 0.931 . S
H1793 C1781 0.929 . S
H1794 C1782 0.960 . S
H1795 C1782 0.962 . S
H1796 C1782 0.960 . S
H1797 C1783 0.961 . S
H1798 C1783 0.961 . S
H1799 C1783 0.961 . S
H1800 C1784 0.931 . S
H1801 C1789 0.930 . S
H1802 C1790 0.956 . S
H1803 C1790 0.961 . S
H1804 C1790 0.961 . S
H1805 C1791 0.958 . S
H1806 C1791 0.961 . S
H1807 C1791 0.960 . S
C1808 C1809 1.391 . S
C1808 C1810 1.394 . S
C1808 H1824 0.931 . S
C1809 C1808 1.391 . S
C1809 C1813 1.376 . S
C1810 C1808 1.394 . S
C1810 C1811 1.369 . S
C1810 C1814 1.531 . S
C1811 C1810 1.369 . S
C1811 C1812 1.410 . S
C1811 C1819 1.503 . S
C1812 C1811 1.410 . S
C1812 C1813 1.392 . S
C1812 C1815 1.511 . S
C1813 C1809 1.376 . S
C1813 C1812 1.392 . S
C1813 H1825 0.929 . S
C1814 C1810 1.531 . S
C1814 H1826 0.960 . S
C1814 H1827 0.962 . S
C1814 H1828 0.960 . S
C1815 C1812 1.511 . S
C1815 H1829 0.961 . S
C1815 H1830 0.961 . S
C1815 H1831 0.961 . S
C1816 C1817 1.370 . S
C1816 C1818 1.363 . S
C1816 H1832 0.931 . S
C1817 C1816 1.370 . S
C1817 C1821 1.408 . S
C1818 C1816 1.363 . S
C1818 C1819 1.370 . S
C1818 C1822 1.524 . S
C1819 C1811 1.503 . S
C1819 C1818 1.370 . S
C1819 C1820 1.403 . S
C1820 C1819 1.403 . S
C1820 C1821 1.404 . S
C1820 C1823 1.539 . S
C1821 C1817 1.408 . S
C1821 C1820 1.404 . S
C1821 H1833 0.930 . S
C1822 C1818 1.524 . S
C1822 H1834 0.956 . S
C1822 H1835 0.961 . S
C1822 H1836 0.961 . S
C1823 C1820 1.539 . S
C1823 H1837 0.958 . S
C1823 H1838 0.961 . S
C1823 H1839 0.960 . S
H1824 C1808 0.931 . S
H1825 C1813 0.929 . S
H1826 C1814 0.960 . S
H1827 C1814 0.962 . S
H1828 C1814 0.960 . S
H1829 C1815 0.961 . S
H1830 C1815 0.961 . S
H1831 C1815 0.961 . S
H1832 C1816 0.931 . S
H1833 C1821 0.930 . S
H1834 C1822 0.956 . S
H1835 C1822 0.961 . S
H1836 C1822 0.961 . S
H1837 C1823 0.958 . S
H1838 C1823 0.961 . S
H1839 C1823 0.960 . S
C1840 C1841 1.391 . S
C1840 C1842 1.394 . S
C1840 H1856 0.931 . S
C1841 C1840 1.391 . S
C1841 C1845 1.376 . S
C1842 C1840 1.394 . S
C1842 C1843 1.369 . S
C1842 C1846 1.531 . S
C1843 C1842 1.369 . S
C1843 C1844 1.410 . S
C1843 C1851 1.503 . S
C1844 C1843 1.410 . S
C1844 C1845 1.392 . S
C1844 C1847 1.511 . S
C1845 C1841 1.376 . S
C1845 C1844 1.392 . S
C1845 H1857 0.929 . S
C1846 C1842 1.531 . S
C1846 H1858 0.960 . S
C1846 H1859 0.962 . S
C1846 H1860 0.960 . S
C1847 C1844 1.511 . S
C1847 H1861 0.961 . S
C1847 H1862 0.961 . S
C1847 H1863 0.961 . S
C1848 C1849 1.370 . S
C1848 C1850 1.363 . S
C1848 H1864 0.931 . S
C1849 C1848 1.370 . S
C1849 C1853 1.408 . S
C1850 C1848 1.363 . S
C1850 C1851 1.370 . S
C1850 C1854 1.524 . S
C1851 C1843 1.503 . S
C1851 C1850 1.370 . S
C1851 C1852 1.403 . S
C1852 C1851 1.403 . S
C1852 C1853 1.404 . S
C1852 C1855 1.539 . S
C1853 C1849 1.408 . S
C1853 C1852 1.404 . S
C1853 H1865 0.930 . S
C1854 C1850 1.524 . S
C1854 H1866 0.956 . S
C1854 H1867 0.961 . S
C1854 H1868 0.961 . S
C1855 C1852 1.539 . S
C1855 H1869 0.958 . S
C1855 H1870 0.961 . S
C1855 H1871 0.960 . S
H1856 C1840 0.931 . S
H1857 C1845 0.929 . S
H1858 C1846 0.960 . S
H1859 C1846 0.962 . S
H1860 C1846 0.960 . S
H1861 C1847 0.961 . S
H1862 C1847 0.961 . S
H1863 C1847 0.961 . S
H1864 C1848 0.931 . S
H1865 C1853 0.930 . S
H1866 C1854 0.956 . S
H1867 C1854 0.961 . S
H1868 C1854 0.961 . S
H1869 C1855 0.958 . S
H1870 C1855 0.961 . S
H1871 C1855 0.960 . S
C1872 C1873 1.391 . S
C1872 C1874 1.394 . S
C1872 H1888 0.931 . S
C1873 C1872 1.391 . S
C1873 C1877 1.376 1_455 S
C1874 C1872 1.394 . S
C1874 C1875 1.369 . S
C1874 C1878 1.531 . S
C1875 C1874 1.369 . S
C1875 C1876 1.389 1_455 S
C1875 C1883 1.503 . S
C1876 C1875 1.389 1_655 S
C1876 C1877 1.407 . S
C1876 C1879 1.520 . S
C1877 C1873 1.376 1_655 S
C1877 C1876 1.407 . S
C1877 H1889 0.929 . S
C1878 C1874 1.531 . S
C1878 H1890 0.960 . S
C1878 H1891 0.962 . S
C1878 H1892 0.960 . S
C1879 C1876 1.520 . S
C1879 H1893 0.961 . S
C1879 H1894 0.961 . S
C1879 H1895 0.961 . S
C1880 C1881 1.370 . S
C1880 C1882 1.363 . S
C1880 H1896 0.931 . S
C1881 C1880 1.370 . S
C1881 C1885 1.408 . S
C1882 C1880 1.363 . S
C1882 C1883 1.370 . S
C1882 C1886 1.524 . S
C1883 C1875 1.503 . S
C1883 C1882 1.370 . S
C1883 C1884 1.403 . S
C1884 C1883 1.403 . S
C1884 C1885 1.404 . S
C1884 C1887 1.539 1_455 S
C1885 C1881 1.408 . S
C1885 C1884 1.404 . S
C1885 H1897 0.930 1_455 S
C1886 C1882 1.524 . S
C1886 H1898 0.956 . S
C1886 H1899 0.961 . S
C1886 H1900 0.961 . S
C1887 C1884 1.539 1_655 S
C1887 H1901 0.958 . S
C1887 H1902 0.961 . S
C1887 H1903 0.960 . S
H1888 C1872 0.931 . S
H1889 C1877 0.929 . S
H1890 C1878 0.960 . S
H1891 C1878 0.962 . S
H1892 C1878 0.960 . S
H1893 C1879 0.961 . S
H1894 C1879 0.961 . S
H1895 C1879 0.961 . S
H1896 C1880 0.931 . S
H1897 C1885 0.930 1_655 S
H1898 C1886 0.956 . S
H1899 C1886 0.961 . S
H1900 C1886 0.961 . S
H1901 C1887 0.958 . S
H1902 C1887 0.961 . S
H1903 C1887 0.960 . S
C1904 C1905 1.391 . S
C1904 C1906 1.394 . S
C1904 H1920 0.931 . S
C1905 C1904 1.391 . S
C1905 C1909 1.376 . S
C1906 C1904 1.394 . S
C1906 C1907 1.369 . S
C1906 C1910 1.531 . S
C1907 C1906 1.369 . S
C1907 C1908 1.410 . S
C1907 C1915 1.503 . S
C1908 C1907 1.410 . S
C1908 C1909 1.392 . S
C1908 C1911 1.511 . S
C1909 C1905 1.376 . S
C1909 C1908 1.392 . S
C1909 H1921 0.929 . S
C1910 C1906 1.531 . S
C1910 H1922 0.960 . S
C1910 H1923 0.962 . S
C1910 H1924 0.960 . S
C1911 C1908 1.511 . S
C1911 H1925 0.961 . S
C1911 H1926 0.961 . S
C1911 H1927 0.961 . S
C1912 C1913 1.370 . S
C1912 C1914 1.363 . S
C1912 H1928 0.931 . S
C1913 C1912 1.370 . S
C1913 C1917 1.408 . S
C1914 C1912 1.363 . S
C1914 C1915 1.370 . S
C1914 C1918 1.524 . S
C1915 C1907 1.503 . S
C1915 C1914 1.370 . S
C1915 C1916 1.403 . S
C1916 C1915 1.403 . S
C1916 C1917 1.404 . S
C1916 C1919 1.539 . S
C1917 C1913 1.408 . S
C1917 C1916 1.404 . S
C1917 H1929 0.930 . S
C1918 C1914 1.524 . S
C1918 H1930 0.956 . S
C1918 H1931 0.961 . S
C1918 H1932 0.961 . S
C1919 C1916 1.539 . S
C1919 H1933 0.958 . S
C1919 H1934 0.961 . S
C1919 H1935 0.960 . S
H1920 C1904 0.931 . S
H1921 C1909 0.929 . S
H1922 C1910 0.960 . S
H1923 C1910 0.962 . S
H1924 C1910 0.960 . S
H1925 C1911 0.961 . S
H1926 C1911 0.961 . S
H1927 C1911 0.961 . S
H1928 C1912 0.931 . S
H1929 C1917 0.930 . S
H1930 C1918 0.956 . S
H1931 C1918 0.961 . S
H1932 C1918 0.961 . S
H1933 C1919 0.958 . S
H1934 C1919 0.961 . S
H1935 C1919 0.960 . S
C1936 C1937 1.391 . S
C1936 C1938 1.394 . S
C1936 H1952 0.931 . S
C1937 C1936 1.391 . S
C1937 C1941 1.376 . S
C1938 C1936 1.394 . S
C1938 C1939 1.369 . S
C1938 C1942 1.531 . S
C1939 C1938 1.369 . S
C1939 C1940 1.410 . S
C1939 C1947 1.503 . S
C1940 C1939 1.410 . S
C1940 C1941 1.392 . S
C1940 C1943 1.511 . S
C1941 C1937 1.376 . S
C1941 C1940 1.392 . S
C1941 H1953 0.929 . S
C1942 C1938 1.531 . S
C1942 H1954 0.960 . S
C1942 H1955 0.962 1_556 S
C1942 H1956 0.960 . S
C1943 C1940 1.511 . S
C1943 H1957 0.961 . S
C1943 H1958 0.961 . S
C1943 H1959 0.961 . S
C1944 C1945 1.370 1_564 S
C1944 C1946 1.363 1_554 S
C1944 H1960 0.931 . S
C1945 C1944 1.370 1_546 S
C1945 C1949 1.408 . S
C1946 C1944 1.363 1_556 S
C1946 C1947 1.370 . S
C1946 C1950 1.524 1_556 S
C1947 C1939 1.503 . S
C1947 C1946 1.370 . S
C1947 C1948 1.403 . S
C1948 C1947 1.403 . S
C1948 C1949 1.404 1_565 S
C1948 C1951 1.539 . S
C1949 C1945 1.408 . S
C1949 C1948 1.404 1_545 S
C1949 H1961 0.930 . S
C1950 C1946 1.524 1_554 S
C1950 H1962 0.956 . S
C1950 H1963 0.961 1_554 S
C1950 H1964 0.961 . S
C1951 C1948 1.539 . S
C1951 H1965 0.958 . S
C1951 H1966 0.961 . S
C1951 H1967 0.960 . S
H1952 C1936 0.931 . S
H1953 C1941 0.929 . S
H1954 C1942 0.960 . S
H1955 C1942 0.962 1_554 S
H1956 C1942 0.960 . S
H1957 C1943 0.961 . S
H1958 C1943 0.961 . S
H1959 C1943 0.961 . S
H1960 C1944 0.931 . S
H1961 C1949 0.930 . S
H1962 C1950 0.956 . S
H1963 C1950 0.961 1_556 S
H1964 C1950 0.961 . S
H1965 C1951 0.958 . S
H1966 C1951 0.961 . S
H1967 C1951 0.960 . S
C1968 C1969 1.391 . S
C1968 C1970 1.394 1_455 S
C1968 H1984 0.931 . S
C1969 C1968 1.391 . S
C1969 C1973 1.376 . S
C1970 C1968 1.394 1_655 S
C1970 C1971 1.369 . S
C1970 C1974 1.531 . S
C1971 C1970 1.369 . S
C1971 C1972 1.410 1_655 S
C1971 C1979 1.503 . S
C1972 C1971 1.410 1_455 S
C1972 C1973 1.392 . S
C1972 C1975 1.511 . S
C1973 C1969 1.376 . S
C1973 C1972 1.392 . S
C1973 H1985 0.929 . S
C1974 C1970 1.531 . S
C1974 H1986 0.960 . S
C1974 H1987 0.962 . S
C1974 H1988 0.960 . S
C1975 C1972 1.511 . S
C1975 H1989 0.961 . S
C1975 H1990 0.961 . S
C1975 H1991 0.961 . S
C1976 C1977 1.370 . S
C1976 C1978 1.363 . S
C1976 H1992 0.931 . S
C1977 C1976 1.370 . S
C1977 C1981 1.408 . S
C1978 C1976 1.363 . S
C1978 C1979 1.370 . S
C1978 C1982 1.524 . S
C1979 C1971 1.503 . S
C1979 C1978 1.370 . S
C1979 C1980 1.403 . S
C1980 C1979 1.403 . S
C1980 C1981 1.404 . S
C1980 C1983 1.539 . S
C1981 C1977 1.408 . S
C1981 C1980 1.404 . S
C1981 H1993 0.930 . S
C1982 C1978 1.524 . S
C1982 H1994 0.956 . S
C1982 H1995 0.961 1_655 S
C1982 H1996 0.961 . S
C1983 C1980 1.539 . S
C1983 H1997 0.958 . S
C1983 H1998 0.961 . S
C1983 H1999 0.960 . S
H1984 C1968 0.931 . S
H1985 C1973 0.929 . S
H1986 C1974 0.960 . S
H1987 C1974 0.962 . S
H1988 C1974 0.960 . S
H1989 C1975 0.961 . S
H1990 C1975 0.961 . S
H1991 C1975 0.961 . S
H1992 C1976 0.931 . S
H1993 C1981 0.930 . S
H1994 C1982 0.956 . S
H1995 C1982 0.961 1_455 S
H1996 C1982 0.961 . S
H1997 C1983 0.958 . S
H1998 C1983 0.961 . S
H1999 C1983 0.960 . S
C2000 C2001 1.391 . S
C2000 C2002 1.394 . S
C2000 H2016 0.931 . S
C2001 C2000 1.391 . S
C2001 C2005 1.376 . S
C2002 C2000 1.394 . S
C2002 C2003 1.369 . S
C2002 C2006 1.531 . S
C2003 C2002 1.369 . S
C2003 C2004 1.410 . S
C2003 C2011 1.503 . S
C2004 C2003 1.410 . S
C2004 C2005 1.392 . S
C2004 C2007 1.511 . S
C2005 C2001 1.376 . S
C2005 C2004 1.392 . S
C2005 H2017 0.929 . S
C2006 C2002 1.531 . S
C2006 H2018 0.960 . S
C2006 H2019 0.962 . S
C2006 H2020 0.960 . S
C2007 C2004 1.511 . S
C2007 H2021 0.961 . S
C2007 H2022 0.961 . S
C2007 H2023 0.961 . S
C2008 C2009 1.370 . S
C2008 C2010 1.363 . S
C2008 H2024 0.931 . S
C2009 C2008 1.370 . S
C2009 C2013 1.408 . S
C2010 C2008 1.363 . S
C2010 C2011 1.370 . S
C2010 C2014 1.524 . S
C2011 C2003 1.503 . S
C2011 C2010 1.370 . S
C2011 C2012 1.403 . S
C2012 C2011 1.403 . S
C2012 C2013 1.404 . S
C2012 C2015 1.539 . S
C2013 C2009 1.408 . S
C2013 C2012 1.404 . S
C2013 H2025 0.930 . S
C2014 C2010 1.524 . S
C2014 H2026 0.956 . S
C2014 H2027 0.961 . S
C2014 H2028 0.961 . S
C2015 C2012 1.539 . S
C2015 H2029 0.958 . S
C2015 H2030 0.961 . S
C2015 H2031 0.960 . S
H2016 C2000 0.931 . S
H2017 C2005 0.929 . S
H2018 C2006 0.960 . S
H2019 C2006 0.962 . S
H2020 C2006 0.960 . S
H2021 C2007 0.961 . S
H2022 C2007 0.961 . S
H2023 C2007 0.961 . S
H2024 C2008 0.931 . S
H2025 C2013 0.930 . S
H2026 C2014 0.956 . S
H2027 C2014 0.961 . S
H2028 C2014 0.961 . S
H2029 C2015 0.958 . S
H2030 C2015 0.961 . S
H2031 C2015 0.960 . S
C2032 C2033 1.391 . S
C2032 C2034 1.394 . S
C2032 H2048 0.931 . S
C2033 C2032 1.391 . S
C2033 C2037 1.376 . S
C2034 C2032 1.394 . S
C2034 C2035 1.369 . S
C2034 C2038 1.531 . S
C2035 C2034 1.369 . S
C2035 C2036 1.410 . S
C2035 C2043 1.503 . S
C2036 C2035 1.410 . S
C2036 C2037 1.392 . S
C2036 C2039 1.511 . S
C2037 C2033 1.376 . S
C2037 C2036 1.392 . S
C2037 H2049 0.929 . S
C2038 C2034 1.531 . S
C2038 H2050 0.960 . S
C2038 H2051 0.962 . S
C2038 H2052 0.960 . S
C2039 C2036 1.511 . S
C2039 H2053 0.961 . S
C2039 H2054 0.961 . S
C2039 H2055 0.961 . S
C2040 C2041 1.370 . S
C2040 C2042 1.363 . S
C2040 H2056 0.931 . S
C2041 C2040 1.370 . S
C2041 C2045 1.408 . S
C2042 C2040 1.363 . S
C2042 C2043 1.370 . S
C2042 C2046 1.524 . S
C2043 C2035 1.503 . S
C2043 C2042 1.370 . S
C2043 C2044 1.403 . S
C2044 C2043 1.403 . S
C2044 C2045 1.404 . S
C2044 C2047 1.539 . S
C2045 C2041 1.408 . S
C2045 C2044 1.404 . S
C2045 H2057 0.930 . S
C2046 C2042 1.524 . S
C2046 H2058 0.956 . S
C2046 H2059 0.961 . S
C2046 H2060 0.961 . S
C2047 C2044 1.539 . S
C2047 H2061 0.958 . S
C2047 H2062 0.961 . S
C2047 H2063 0.960 . S
H2048 C2032 0.931 . S
H2049 C2037 0.929 . S
H2050 C2038 0.960 . S
H2051 C2038 0.962 . S
H2052 C2038 0.960 . S
H2053 C2039 0.961 . S
H2054 C2039 0.961 . S
H2055 C2039 0.961 . S
H2056 C2040 0.931 . S
H2057 C2045 0.930 . S
H2058 C2046 0.956 . S
H2059 C2046 0.961 . S
H2060 C2046 0.961 . S
H2061 C2047 0.958 . S
H2062 C2047 0.961 . S
H2063 C2047 0.960 . S
C2064 C2065 1.391 . S
C2064 C2066 1.394 . S
C2064 H2080 0.931 . S
C2065 C2064 1.391 . S
C2065 C2069 1.376 . S
C2066 C2064 1.394 . S
C2066 C2067 1.369 . S
C2066 C2070 1.531 . S
C2067 C2066 1.369 . S
C2067 C2068 1.410 . S
C2067 C2075 1.503 . S
C2068 C2067 1.410 . S
C2068 C2069 1.392 . S
C2068 C2071 1.511 . S
C2069 C2065 1.376 . S
C2069 C2068 1.392 . S
C2069 H2081 0.929 . S
C2070 C2066 1.531 . S
C2070 H2082 0.960 . S
C2070 H2083 0.962 . S
C2070 H2084 0.960 . S
C2071 C2068 1.511 . S
C2071 H2085 0.961 . S
C2071 H2086 0.961 . S
C2071 H2087 0.961 . S
C2072 C2073 1.370 . S
C2072 C2074 1.363 . S
C2072 H2088 0.931 . S
C2073 C2072 1.370 . S
C2073 C2077 1.408 . S
C2074 C2072 1.363 . S
C2074 C2075 1.370 . S
C2074 C2078 1.524 . S
C2075 C2067 1.503 . S
C2075 C2074 1.370 . S
C2075 C2076 1.403 . S
C2076 C2075 1.403 . S
C2076 C2077 1.404 . S
C2076 C2079 1.539 . S
C2077 C2073 1.408 . S
C2077 C2076 1.404 . S
C2077 H2089 0.930 . S
C2078 C2074 1.524 . S
C2078 H2090 0.956 . S
C2078 H2091 0.961 . S
C2078 H2092 0.961 . S
C2079 C2076 1.539 . S
C2079 H2093 0.958 . S
C2079 H2094 0.961 . S
C2079 H2095 0.960 . S
H2080 C2064 0.931 . S
H2081 C2069 0.929 . S
H2082 C2070 0.960 . S
H2083 C2070 0.962 . S
H2084 C2070 0.960 . S
H2085 C2071 0.961 . S
H2086 C2071 0.961 . S
H2087 C2071 0.961 . S
H2088 C2072 0.931 . S
H2089 C2077 0.930 . S
H2090 C2078 0.956 . S
H2091 C2078 0.961 . S
H2092 C2078 0.961 . S
H2093 C2079 0.958 . S
H2094 C2079 0.961 . S
H2095 C2079 0.960 . S
C2096 C2097 1.391 . S
C2096 C2098 1.394 . S
C2096 H2112 0.931 . S
C2097 C2096 1.391 . S
C2097 C2101 1.376 . S
C2098 C2096 1.394 . S
C2098 C2099 1.369 . S
C2098 C2102 1.531 . S
C2099 C2098 1.369 . S
C2099 C2100 1.410 . S
C2099 C2107 1.503 . S
C2100 C2099 1.410 . S
C2100 C2101 1.392 . S
C2100 C2103 1.511 . S
C2101 C2097 1.376 . S
C2101 C2100 1.392 . S
C2101 H2113 0.929 . S
C2102 C2098 1.531 . S
C2102 H2114 0.960 . S
C2102 H2115 0.962 . S
C2102 H2116 0.960 . S
C2103 C2100 1.511 . S
C2103 H2117 0.961 . S
C2103 H2118 0.961 . S
C2103 H2119 0.961 . S
C2104 C2105 1.370 . S
C2104 C2106 1.363 . S
C2104 H2120 0.931 . S
C2105 C2104 1.370 . S
C2105 C2109 1.408 . S
C2106 C2104 1.363 . S
C2106 C2107 1.370 . S
C2106 C2110 1.524 . S
C2107 C2099 1.503 . S
C2107 C2106 1.370 . S
C2107 C2108 1.403 . S
C2108 C2107 1.403 . S
C2108 C2109 1.404 . S
C2108 C2111 1.539 . S
C2109 C2105 1.408 . S
C2109 C2108 1.404 . S
C2109 H2121 0.930 . S
C2110 C2106 1.524 . S
C2110 H2122 0.956 . S
C2110 H2123 0.961 . S
C2110 H2124 0.961 . S
C2111 C2108 1.539 . S
C2111 H2125 0.958 . S
C2111 H2126 0.961 . S
C2111 H2127 0.960 . S
H2112 C2096 0.931 . S
H2113 C2101 0.929 . S
H2114 C2102 0.960 . S
H2115 C2102 0.962 . S
H2116 C2102 0.960 . S
H2117 C2103 0.961 . S
H2118 C2103 0.961 . S
H2119 C2103 0.961 . S
H2120 C2104 0.931 . S
H2121 C2109 0.930 . S
H2122 C2110 0.956 . S
H2123 C2110 0.961 . S
H2124 C2110 0.961 . S
H2125 C2111 0.958 . S
H2126 C2111 0.961 . S
H2127 C2111 0.960 . S
C2128 C2129 1.391 . S
C2128 C2130 1.394 . S
C2128 H2144 0.931 . S
C2129 C2128 1.391 . S
C2129 C2133 1.376 . S
C2130 C2128 1.394 . S
C2130 C2131 1.369 . S
C2130 C2134 1.531 . S
C2131 C2130 1.369 . S
C2131 C2132 1.410 . S
C2131 C2139 1.503 . S
C2132 C2131 1.410 . S
C2132 C2133 1.392 . S
C2132 C2135 1.511 . S
C2133 C2129 1.376 . S
C2133 C2132 1.392 . S
C2133 H2145 0.929 . S
C2134 C2130 1.531 . S
C2134 H2146 0.960 . S
C2134 H2147 0.962 . S
C2134 H2148 0.960 . S
C2135 C2132 1.511 . S
C2135 H2149 0.961 . S
C2135 H2150 0.961 . S
C2135 H2151 0.961 . S
C2136 C2137 1.370 . S
C2136 C2138 1.363 . S
C2136 H2152 0.931 . S
C2137 C2136 1.370 . S
C2137 C2141 1.408 . S
C2138 C2136 1.363 . S
C2138 C2139 1.370 . S
C2138 C2142 1.524 . S
C2139 C2131 1.503 . S
C2139 C2138 1.370 . S
C2139 C2140 1.403 . S
C2140 C2139 1.403 . S
C2140 C2141 1.404 . S
C2140 C2143 1.539 . S
C2141 C2137 1.408 . S
C2141 C2140 1.404 . S
C2141 H2153 0.930 . S
C2142 C2138 1.524 . S
C2142 H2154 0.956 . S
C2142 H2155 0.961 . S
C2142 H2156 0.961 . S
C2143 C2140 1.539 . S
C2143 H2157 0.958 . S
C2143 H2158 0.961 . S
C2143 H2159 0.960 . S
H2144 C2128 0.931 . S
H2145 C2133 0.929 . S
H2146 C2134 0.960 . S
H2147 C2134 0.962 . S
H2148 C2134 0.960 . S
H2149 C2135 0.961 . S
H2150 C2135 0.961 . S
H2151 C2135 0.961 . S
H2152 C2136 0.931 . S
H2153 C2141 0.930 . S
H2154 C2142 0.956 . S
H2155 C2142 0.961 . S
H2156 C2142 0.961 . S
H2157 C2143 0.958 . S
H2158 C2143 0.961 . S
H2159 C2143 0.960 . S
C2160 C2161 1.391 . S
C2160 C2162 1.394 . S
C2160 H2176 0.931 . S
C2161 C2160 1.391 . S
C2161 C2165 1.376 . S
C2162 C2160 1.394 . S
C2162 C2163 1.369 . S
C2162 C2166 1.531 . S
C2163 C2162 1.369 . S
C2163 C2164 1.410 . S
C2163 C2171 1.503 . S
C2164 C2163 1.410 . S
C2164 C2165 1.392 . S
C2164 C2167 1.511 . S
C2165 C2161 1.376 . S
C2165 C2164 1.392 . S
C2165 H2177 0.929 . S
C2166 C2162 1.531 . S
C2166 H2178 0.960 . S
C2166 H2179 0.962 . S
C2166 H2180 0.960 . S
C2167 C2164 1.511 . S
C2167 H2181 0.961 . S
C2167 H2182 0.961 . S
C2167 H2183 0.961 . S
C2168 C2169 1.370 . S
C2168 C2170 1.363 . S
C2168 H2184 0.931 . S
C2169 C2168 1.370 . S
C2169 C2173 1.408 . S
C2170 C2168 1.363 . S
C2170 C2171 1.370 . S
C2170 C2174 1.524 . S
C2171 C2163 1.503 . S
C2171 C2170 1.370 . S
C2171 C2172 1.403 . S
C2172 C2171 1.403 . S
C2172 C2173 1.404 . S
C2172 C2175 1.539 . S
C2173 C2169 1.408 . S
C2173 C2172 1.404 . S
C2173 H2185 0.930 . S
C2174 C2170 1.524 . S
C2174 H2186 0.956 . S
C2174 H2187 0.961 . S
C2174 H2188 0.961 . S
C2175 C2172 1.539 . S
C2175 H2189 0.958 . S
C2175 H2190 0.961 . S
C2175 H2191 0.960 . S
H2176 C2160 0.931 . S
H2177 C2165 0.929 . S
H2178 C2166 0.960 . S
H2179 C2166 0.962 . S
H2180 C2166 0.960 . S
H2181 C2167 0.961 . S
H2182 C2167 0.961 . S
H2183 C2167 0.961 . S
H2184 C2168 0.931 . S
H2185 C2173 0.930 . S
H2186 C2174 0.956 . S
H2187 C2174 0.961 . S
H2188 C2174 0.961 . S
H2189 C2175 0.958 . S
H2190 C2175 0.961 . S
H2191 C2175 0.960 . S
C2192 C2193 1.391 . S
C2192 C2194 1.394 . S
C2192 H2208 0.931 . S
C2193 C2192 1.391 . S
C2193 C2197 1.376 . S
C2194 C2192 1.394 . S
C2194 C2195 1.369 . S
C2194 C2198 1.531 . S
C2195 C2194 1.369 . S
C2195 C2196 1.410 . S
C2195 C2203 1.503 . S
C2196 C2195 1.410 . S
C2196 C2197 1.392 . S
C2196 C2199 1.511 . S
C2197 C2193 1.376 . S
C2197 C2196 1.392 . S
C2197 H2209 0.929 . S
C2198 C2194 1.531 . S
C2198 H2210 0.960 . S
C2198 H2211 0.962 . S
C2198 H2212 0.960 . S
C2199 C2196 1.511 . S
C2199 H2213 0.961 . S
C2199 H2214 0.961 . S
C2199 H2215 0.961 . S
C2200 C2201 1.370 . S
C2200 C2202 1.363 . S
C2200 H2216 0.931 . S
C2201 C2200 1.370 . S
C2201 C2205 1.408 . S
C2202 C2200 1.363 . S
C2202 C2203 1.370 . S
C2202 C2206 1.524 . S
C2203 C2195 1.503 . S
C2203 C2202 1.370 . S
C2203 C2204 1.403 . S
C2204 C2203 1.403 . S
C2204 C2205 1.404 . S
C2204 C2207 1.539 . S
C2205 C2201 1.408 . S
C2205 C2204 1.404 . S
C2205 H2217 0.930 . S
C2206 C2202 1.524 . S
C2206 H2218 0.956 . S
C2206 H2219 0.961 . S
C2206 H2220 0.961 . S
C2207 C2204 1.539 . S
C2207 H2221 0.958 . S
C2207 H2222 0.961 . S
C2207 H2223 0.960 . S
H2208 C2192 0.931 . S
H2209 C2197 0.929 . S
H2210 C2198 0.960 . S
H2211 C2198 0.962 . S
H2212 C2198 0.960 . S
H2213 C2199 0.961 . S
H2214 C2199 0.961 . S
H2215 C2199 0.961 . S
H2216 C2200 0.931 . S
H2217 C2205 0.930 . S
H2218 C2206 0.956 . S
H2219 C2206 0.961 . S
H2220 C2206 0.961 . S
H2221 C2207 0.958 . S
H2222 C2207 0.961 . S
H2223 C2207 0.960 . S
C2224 C2225 1.391 . S
C2224 C2226 1.394 . S
C2224 H2240 0.931 . S
C2225 C2224 1.391 . S
C2225 C2229 1.376 . S
C2226 C2224 1.394 . S
C2226 C2227 1.369 . S
C2226 C2230 1.531 . S
C2227 C2226 1.369 . S
C2227 C2228 1.410 . S
C2227 C2235 1.503 . S
C2228 C2227 1.410 . S
C2228 C2229 1.392 . S
C2228 C2231 1.511 . S
C2229 C2225 1.376 . S
C2229 C2228 1.392 . S
C2229 H2241 0.929 . S
C2230 C2226 1.531 . S
C2230 H2242 0.960 . S
C2230 H2243 0.962 . S
C2230 H2244 0.960 . S
C2231 C2228 1.511 . S
C2231 H2245 0.961 . S
C2231 H2246 0.961 . S
C2231 H2247 0.961 . S
C2232 C2233 1.370 . S
C2232 C2234 1.363 . S
C2232 H2248 0.931 . S
C2233 C2232 1.370 . S
C2233 C2237 1.408 . S
C2234 C2232 1.363 . S
C2234 C2235 1.370 . S
C2234 C2238 1.524 . S
C2235 C2227 1.503 . S
C2235 C2234 1.370 . S
C2235 C2236 1.403 . S
C2236 C2235 1.403 . S
C2236 C2237 1.404 . S
C2236 C2239 1.539 . S
C2237 C2233 1.408 . S
C2237 C2236 1.404 . S
C2237 H2249 0.930 . S
C2238 C2234 1.524 . S
C2238 H2250 0.956 . S
C2238 H2251 0.961 . S
C2238 H2252 0.961 . S
C2239 C2236 1.539 . S
C2239 H2253 0.958 . S
C2239 H2254 0.961 . S
C2239 H2255 0.960 . S
H2240 C2224 0.931 . S
H2241 C2229 0.929 . S
H2242 C2230 0.960 . S
H2243 C2230 0.962 . S
H2244 C2230 0.960 . S
H2245 C2231 0.961 . S
H2246 C2231 0.961 . S
H2247 C2231 0.961 . S
H2248 C2232 0.931 . S
H2249 C2237 0.930 . S
H2250 C2238 0.956 . S
H2251 C2238 0.961 . S
H2252 C2238 0.961 . S
H2253 C2239 0.958 . S
H2254 C2239 0.961 . S
H2255 C2239 0.960 . S
C2256 C2257 1.378 1_554 S
C2256 C2258 1.394 . S
C2256 H2272 0.931 . S
C2257 C2256 1.378 1_556 S
C2257 C2261 1.403 . S
C2258 C2256 1.394 . S
C2258 C2259 1.369 1_554 S
C2258 C2262 1.531 . S
C2259 C2258 1.369 1_556 S
C2259 C2260 1.410 . S
C2259 C2267 1.503 . S
C2260 C2259 1.410 . S
C2260 C2261 1.392 . S
C2260 C2263 1.511 . S
C2261 C2257 1.403 . S
C2261 C2260 1.392 . S
C2261 H2273 0.929 . S
C2262 C2258 1.531 . S
C2262 H2274 0.960 . S
C2262 H2275 0.962 . S
C2262 H2276 0.960 . S
C2263 C2260 1.511 . S
C2263 H2277 0.961 . S
C2263 H2278 0.961 . S
C2263 H2279 0.961 . S
C2264 C2265 1.370 . S
C2264 C2266 1.363 . S
C2264 H2280 0.931 . S
C2265 C2264 1.370 . S
C2265 C2269 1.408 . S
C2266 C2264 1.363 . S
C2266 C2267 1.370 . S
C2266 C2270 1.524 . S
C2267 C2259 1.503 . S
C2267 C2266 1.370 . S
C2267 C2268 1.403 . S
C2268 C2267 1.403 . S
C2268 C2269 1.404 . S
C2268 C2271 1.539 1_556 S
C2269 C2265 1.408 . S
C2269 C2268 1.404 . S
C2269 H2281 0.930 . S
C2270 C2266 1.524 . S
C2270 H2282 0.956 . S
C2270 H2283 0.961 . S
C2270 H2284 0.961 . S
C2271 C2268 1.539 1_554 S
C2271 H2285 0.958 . S
C2271 H2286 0.961 . S
C2271 H2287 0.960 . S
H2272 C2256 0.931 . S
H2273 C2261 0.929 . S
H2274 C2262 0.960 . S
H2275 C2262 0.962 . S
H2276 C2262 0.960 . S
H2277 C2263 0.961 . S
H2278 C2263 0.961 . S
H2279 C2263 0.961 . S
H2280 C2264 0.931 . S
H2281 C2269 0.930 . S
H2282 C2270 0.956 . S
H2283 C2270 0.961 . S
H2284 C2270 0.961 . S
H2285 C2271 0.958 . S
H2286 C2271 0.961 . S
H2287 C2271 0.960 . S
C2288 C2289 1.391 . S
C2288 C2290 1.394 . S
C2288 H2304 0.931 . S
C2289 C2288 1.391 . S
C2289 C2293 1.376 . S
C2290 C2288 1.394 . S
C2290 C2291 1.369 . S
C2290 C2294 1.531 . S
C2291 C2290 1.369 . S
C2291 C2292 1.410 . S
C2291 C2299 1.503 . S
C2292 C2291 1.410 . S
C2292 C2293 1.392 . S
C2292 C2295 1.511 1_554 S
C2293 C2289 1.376 . S
C2293 C2292 1.392 . S
C2293 H2305 0.929 1_554 S
C2294 C2290 1.531 . S
C2294 H2306 0.960 . S
C2294 H2307 0.962 . S
C2294 H2308 0.960 . S
C2295 C2292 1.511 1_556 S
C2295 H2309 0.961 . S
C2295 H2310 0.961 . S
C2295 H2311 0.961 . S
C2296 C2297 1.370 . S
C2296 C2298 1.363 . S
C2296 H2312 0.931 . S
C2297 C2296 1.370 . S
C2297 C2301 1.408 . S
C2298 C2296 1.363 . S
C2298 C2299 1.370 . S
C2298 C2302 1.524 . S
C2299 C2291 1.503 . S
C2299 C2298 1.370 . S
C2299 C2300 1.403 . S
C2300 C2299 1.403 . S
C2300 C2301 1.404 . S
C2300 C2303 1.539 . S
C2301 C2297 1.408 . S
C2301 C2300 1.404 . S
C2301 H2313 0.930 . S
C2302 C2298 1.524 . S
C2302 H2314 0.956 . S
C2302 H2315 0.961 . S
C2302 H2316 0.961 . S
C2303 C2300 1.539 . S
C2303 H2317 0.958 . S
C2303 H2318 0.961 . S
C2303 H2319 0.960 . S
H2304 C2288 0.931 . S
H2305 C2293 0.929 1_556 S
H2306 C2294 0.960 . S
H2307 C2294 0.962 . S
H2308 C2294 0.960 . S
H2309 C2295 0.961 . S
H2310 C2295 0.961 . S
H2311 C2295 0.961 . S
H2312 C2296 0.931 . S
H2313 C2301 0.930 . S
H2314 C2302 0.956 . S
H2315 C2302 0.961 . S
H2316 C2302 0.961 . S
H2317 C2303 0.958 . S
H2318 C2303 0.961 . S
H2319 C2303 0.960 . S
C2320 C2321 1.391 . S
C2320 C2322 1.394 . S
C2320 H2336 0.931 . S
C2321 C2320 1.391 . S
C2321 C2325 1.376 . S
C2322 C2320 1.394 . S
C2322 C2323 1.369 . S
C2322 C2326 1.531 . S
C2323 C2322 1.369 . S
C2323 C2324 1.410 . S
C2323 C2331 1.503 . S
C2324 C2323 1.410 . S
C2324 C2325 1.392 . S
C2324 C2327 1.511 . S
C2325 C2321 1.376 . S
C2325 C2324 1.392 . S
C2325 H2337 0.929 . S
C2326 C2322 1.531 . S
C2326 H2338 0.960 . S
C2326 H2339 0.962 . S
C2326 H2340 0.960 . S
C2327 C2324 1.511 . S
C2327 H2341 0.961 . S
C2327 H2342 0.961 . S
C2327 H2343 0.961 . S
C2328 C2329 1.370 . S
C2328 C2330 1.363 . S
C2328 H2344 0.931 . S
C2329 C2328 1.370 . S
C2329 C2333 1.408 . S
C2330 C2328 1.363 . S
C2330 C2331 1.370 . S
C2330 C2334 1.524 . S
C2331 C2323 1.503 . S
C2331 C2330 1.370 . S
C2331 C2332 1.403 . S
C2332 C2331 1.403 . S
C2332 C2333 1.404 . S
C2332 C2335 1.539 . S
C2333 C2329 1.408 . S
C2333 C2332 1.404 . S
C2333 H2345 0.930 . S
C2334 C2330 1.524 . S
C2334 H2346 0.956 . S
C2334 H2347 0.961 . S
C2334 H2348 0.961 . S
C2335 C2332 1.539 . S
C2335 H2349 0.958 . S
C2335 H2350 0.961 . S
C2335 H2351 0.960 . S
H2336 C2320 0.931 . S
H2337 C2325 0.929 . S
H2338 C2326 0.960 . S
H2339 C2326 0.962 . S
H2340 C2326 0.960 . S
H2341 C2327 0.961 . S
H2342 C2327 0.961 . S
H2343 C2327 0.961 . S
H2344 C2328 0.931 . S
H2345 C2333 0.930 . S
H2346 C2334 0.956 . S
H2347 C2334 0.961 . S
H2348 C2334 0.961 . S
H2349 C2335 0.958 . S
H2350 C2335 0.961 . S
H2351 C2335 0.960 . S
C2352 C2353 1.391 . S
C2352 C2354 1.394 . S
C2352 H2368 0.931 . S
C2353 C2352 1.391 . S
C2353 C2357 1.376 . S
C2354 C2352 1.394 . S
C2354 C2355 1.369 . S
C2354 C2358 1.531 . S
C2355 C2354 1.369 . S
C2355 C2356 1.410 . S
C2355 C2363 1.503 . S
C2356 C2355 1.410 . S
C2356 C2357 1.392 . S
C2356 C2359 1.511 . S
C2357 C2353 1.376 . S
C2357 C2356 1.392 . S
C2357 H2369 0.929 . S
C2358 C2354 1.531 . S
C2358 H2370 0.960 . S
C2358 H2371 0.962 . S
C2358 H2372 0.960 . S
C2359 C2356 1.511 . S
C2359 H2373 0.961 . S
C2359 H2374 0.961 . S
C2359 H2375 0.961 . S
C2360 C2361 1.370 . S
C2360 C2362 1.363 . S
C2360 H2376 0.931 . S
C2361 C2360 1.370 . S
C2361 C2365 1.408 . S
C2362 C2360 1.363 . S
C2362 C2363 1.370 . S
C2362 C2366 1.524 . S
C2363 C2355 1.503 . S
C2363 C2362 1.370 . S
C2363 C2364 1.403 . S
C2364 C2363 1.403 . S
C2364 C2365 1.404 . S
C2364 C2367 1.539 . S
C2365 C2361 1.408 . S
C2365 C2364 1.404 . S
C2365 H2377 0.930 . S
C2366 C2362 1.524 . S
C2366 H2378 0.956 . S
C2366 H2379 0.961 . S
C2366 H2380 0.961 . S
C2367 C2364 1.539 . S
C2367 H2381 0.958 . S
C2367 H2382 0.961 . S
C2367 H2383 0.960 . S
H2368 C2352 0.931 . S
H2369 C2357 0.929 . S
H2370 C2358 0.960 . S
H2371 C2358 0.962 . S
H2372 C2358 0.960 . S
H2373 C2359 0.961 . S
H2374 C2359 0.961 . S
H2375 C2359 0.961 . S
H2376 C2360 0.931 . S
H2377 C2365 0.930 . S
H2378 C2366 0.956 . S
H2379 C2366 0.961 . S
H2380 C2366 0.961 . S
H2381 C2367 0.958 . S
H2382 C2367 0.961 . S
H2383 C2367 0.960 . S
C2384 C2385 1.391 . S
C2384 C2386 1.394 . S
C2384 H2400 0.931 . S
C2385 C2384 1.391 . S
C2385 C2389 1.376 . S
C2386 C2384 1.394 . S
C2386 C2387 1.369 . S
C2386 C2390 1.531 . S
C2387 C2386 1.369 . S
C2387 C2388 1.410 . S
C2387 C2395 1.503 . S
C2388 C2387 1.410 . S
C2388 C2389 1.392 . S
C2388 C2391 1.511 . S
C2389 C2385 1.376 . S
C2389 C2388 1.392 . S
C2389 H2401 0.929 . S
C2390 C2386 1.531 . S
C2390 H2402 0.960 . S
C2390 H2403 0.962 . S
C2390 H2404 0.960 . S
C2391 C2388 1.511 . S
C2391 H2405 0.961 . S
C2391 H2406 0.961 . S
C2391 H2407 0.961 . S
C2392 C2393 1.370 . S
C2392 C2394 1.363 . S
C2392 H2408 0.931 . S
C2393 C2392 1.370 . S
C2393 C2397 1.408 . S
C2394 C2392 1.363 . S
C2394 C2395 1.370 . S
C2394 C2398 1.524 . S
C2395 C2387 1.503 . S
C2395 C2394 1.370 . S
C2395 C2396 1.403 . S
C2396 C2395 1.403 . S
C2396 C2397 1.404 . S
C2396 C2399 1.539 . S
C2397 C2393 1.408 . S
C2397 C2396 1.404 . S
C2397 H2409 0.930 . S
C2398 C2394 1.524 . S
C2398 H2410 0.956 . S
C2398 H2411 0.961 . S
C2398 H2412 0.961 . S
C2399 C2396 1.539 . S
C2399 H2413 0.958 . S
C2399 H2414 0.961 . S
C2399 H2415 0.960 . S
H2400 C2384 0.931 . S
H2401 C2389 0.929 . S
H2402 C2390 0.960 . S
H2403 C2390 0.962 . S
H2404 C2390 0.960 . S
H2405 C2391 0.961 . S
H2406 C2391 0.961 . S
H2407 C2391 0.961 . S
H2408 C2392 0.931 . S
H2409 C2397 0.930 . S
H2410 C2398 0.956 . S
H2411 C2398 0.961 . S
H2412 C2398 0.961 . S
H2413 C2399 0.958 . S
H2414 C2399 0.961 . S
H2415 C2399 0.960 . S
C2416 C2417 1.391 . S
C2416 C2418 1.394 . S
C2416 H2432 0.931 . S
C2417 C2416 1.391 . S
C2417 C2421 1.376 . S
C2418 C2416 1.394 . S
C2418 C2419 1.369 . S
C2418 C2422 1.531 . S
C2419 C2418 1.369 . S
C2419 C2420 1.410 . S
C2419 C2427 1.503 . S
C2420 C2419 1.410 . S
C2420 C2421 1.392 . S
C2420 C2423 1.511 . S
C2421 C2417 1.376 . S
C2421 C2420 1.392 . S
C2421 H2433 0.929 . S
C2422 C2418 1.531 . S
C2422 H2434 0.960 1_565 S
C2422 H2435 0.962 . S
C2422 H2436 0.960 . S
C2423 C2420 1.511 . S
C2423 H2437 0.961 . S
C2423 H2438 0.961 . S
C2423 H2439 0.939 1_565 S
C2424 C2425 1.370 1_565 S
C2424 C2426 1.363 . S
C2424 H2440 0.931 . S
C2425 C2424 1.370 1_545 S
C2425 C2429 1.408 . S
C2426 C2424 1.363 . S
C2426 C2427 1.370 . S
C2426 C2430 1.524 . S
C2427 C2419 1.503 . S
C2427 C2426 1.370 . S
C2427 C2428 1.403 1_565 S
C2428 C2427 1.403 1_545 S
C2428 C2429 1.404 . S
C2428 C2431 1.539 . S
C2429 C2425 1.408 . S
C2429 C2428 1.404 . S
C2429 H2441 0.930 . S
C2430 C2426 1.524 . S
C2430 H2442 0.956 . S
C2430 H2443 0.961 . S
C2430 H2444 0.961 . S
C2431 C2428 1.539 . S
C2431 H2445 0.958 . S
C2431 H2446 0.961 . S
C2431 H2447 0.960 . S
H2432 C2416 0.931 . S
H2433 C2421 0.929 . S
H2434 C2422 0.960 1_545 S
H2435 C2422 0.962 . S
H2436 C2422 0.960 . S
H2437 C2423 0.961 . S
H2438 C2423 0.961 . S
H2439 C2423 0.939 1_545 S
H2440 C2424 0.931 . S
H2441 C2429 0.930 . S
H2442 C2430 0.956 . S
H2443 C2430 0.961 . S
H2444 C2430 0.961 . S
H2445 C2431 0.958 . S
H2446 C2431 0.961 . S
H2447 C2431 0.960 . S
C2448 C2449 1.391 . S
C2448 C2450 1.394 . S
C2448 H2464 0.931 . S
C2449 C2448 1.391 . S
C2449 C2453 1.376 . S
C2450 C2448 1.394 . S
C2450 C2451 1.369 . S
C2450 C2454 1.531 . S
C2451 C2450 1.369 . S
C2451 C2452 1.410 . S
C2451 C2459 1.503 . S
C2452 C2451 1.410 . S
C2452 C2453 1.392 . S
C2452 C2455 1.511 . S
C2453 C2449 1.376 . S
C2453 C2452 1.392 . S
C2453 H2465 0.929 . S
C2454 C2450 1.531 . S
C2454 H2466 0.960 . S
C2454 H2467 0.962 . S
C2454 H2468 0.960 . S
C2455 C2452 1.511 . S
C2455 H2469 0.961 . S
C2455 H2470 0.961 . S
C2455 H2471 0.961 . S
C2456 C2457 1.370 . S
C2456 C2458 1.363 . S
C2456 H2472 0.931 . S
C2457 C2456 1.370 . S
C2457 C2461 1.408 . S
C2458 C2456 1.363 . S
C2458 C2459 1.370 . S
C2458 C2462 1.524 . S
C2459 C2451 1.503 . S
C2459 C2458 1.370 . S
C2459 C2460 1.403 . S
C2460 C2459 1.403 . S
C2460 C2461 1.404 . S
C2460 C2463 1.539 . S
C2461 C2457 1.408 . S
C2461 C2460 1.404 . S
C2461 H2473 0.930 . S
C2462 C2458 1.524 . S
C2462 H2474 0.956 . S
C2462 H2475 0.961 . S
C2462 H2476 0.961 . S
C2463 C2460 1.539 . S
C2463 H2477 0.958 . S
C2463 H2478 0.961 . S
C2463 H2479 0.960 . S
H2464 C2448 0.931 . S
H2465 C2453 0.929 . S
H2466 C2454 0.960 . S
H2467 C2454 0.962 . S
H2468 C2454 0.960 . S
H2469 C2455 0.961 . S
H2470 C2455 0.961 . S
H2471 C2455 0.961 . S
H2472 C2456 0.931 . S
H2473 C2461 0.930 . S
H2474 C2462 0.956 . S
H2475 C2462 0.961 . S
H2476 C2462 0.961 . S
H2477 C2463 0.958 . S
H2478 C2463 0.961 . S
H2479 C2463 0.960 . S
C2480 C2481 1.391 . S
C2480 C2482 1.394 . S
C2480 H2496 0.931 . S
C2481 C2480 1.391 . S
C2481 C2485 1.376 . S
C2482 C2480 1.394 . S
C2482 C2483 1.369 . S
C2482 C2486 1.531 . S
C2483 C2482 1.369 . S
C2483 C2484 1.410 . S
C2483 C2491 1.503 . S
C2484 C2483 1.410 . S
C2484 C2485 1.392 . S
C2484 C2487 1.511 . S
C2485 C2481 1.376 . S
C2485 C2484 1.392 . S
C2485 H2497 0.929 . S
C2486 C2482 1.531 . S
C2486 H2498 0.960 . S
C2486 H2499 0.962 . S
C2486 H2500 0.960 . S
C2487 C2484 1.511 . S
C2487 H2501 0.961 . S
C2487 H2502 0.961 . S
C2487 H2503 0.961 . S
C2488 C2489 1.370 . S
C2488 C2490 1.363 . S
C2488 H2504 0.931 . S
C2489 C2488 1.370 . S
C2489 C2493 1.408 . S
C2490 C2488 1.363 . S
C2490 C2491 1.370 . S
C2490 C2494 1.524 . S
C2491 C2483 1.503 . S
C2491 C2490 1.370 . S
C2491 C2492 1.403 . S
C2492 C2491 1.403 . S
C2492 C2493 1.404 . S
C2492 C2495 1.539 . S
C2493 C2489 1.408 . S
C2493 C2492 1.404 . S
C2493 H2505 0.930 . S
C2494 C2490 1.524 . S
C2494 H2506 0.956 . S
C2494 H2507 0.961 . S
C2494 H2508 0.961 . S
C2495 C2492 1.539 . S
C2495 H2509 0.958 . S
C2495 H2510 0.961 . S
C2495 H2511 0.960 . S
H2496 C2480 0.931 . S
H2497 C2485 0.929 . S
H2498 C2486 0.960 . S
H2499 C2486 0.962 . S
H2500 C2486 0.960 . S
H2501 C2487 0.961 . S
H2502 C2487 0.961 . S
H2503 C2487 0.961 . S
H2504 C2488 0.931 . S
H2505 C2493 0.930 . S
H2506 C2494 0.956 . S
H2507 C2494 0.961 . S
H2508 C2494 0.961 . S
H2509 C2495 0.958 . S
H2510 C2495 0.961 . S
H2511 C2495 0.960 . S
C2512 C2513 1.391 . S
C2512 C2514 1.394 . S
C2512 H2528 0.931 . S
C2513 C2512 1.391 . S
C2513 C2517 1.376 . S
C2514 C2512 1.394 . S
C2514 C2515 1.369 . S
C2514 C2518 1.531 . S
C2515 C2514 1.369 . S
C2515 C2516 1.410 . S
C2515 C2523 1.503 . S
C2516 C2515 1.410 . S
C2516 C2517 1.392 . S
C2516 C2519 1.511 . S
C2517 C2513 1.376 . S
C2517 C2516 1.392 . S
C2517 H2529 0.929 . S
C2518 C2514 1.531 . S
C2518 H2530 0.960 . S
C2518 H2531 0.962 . S
C2518 H2532 0.960 . S
C2519 C2516 1.511 . S
C2519 H2533 0.961 . S
C2519 H2534 0.961 . S
C2519 H2535 0.961 . S
C2520 C2521 1.370 . S
C2520 C2522 1.363 . S
C2520 H2536 0.931 . S
C2521 C2520 1.370 . S
C2521 C2525 1.408 . S
C2522 C2520 1.363 . S
C2522 C2523 1.370 . S
C2522 C2526 1.524 . S
C2523 C2515 1.503 . S
C2523 C2522 1.370 . S
C2523 C2524 1.403 . S
C2524 C2523 1.403 . S
C2524 C2525 1.404 . S
C2524 C2527 1.539 . S
C2525 C2521 1.408 . S
C2525 C2524 1.404 . S
C2525 H2537 0.930 . S
C2526 C2522 1.524 . S
C2526 H2538 0.956 . S
C2526 H2539 0.961 . S
C2526 H2540 0.961 . S
C2527 C2524 1.539 . S
C2527 H2541 0.958 . S
C2527 H2542 0.961 . S
C2527 H2543 0.960 . S
H2528 C2512 0.931 . S
H2529 C2517 0.929 . S
H2530 C2518 0.960 . S
H2531 C2518 0.962 . S
H2532 C2518 0.960 . S
H2533 C2519 0.961 . S
H2534 C2519 0.961 . S
H2535 C2519 0.961 . S
H2536 C2520 0.931 . S
H2537 C2525 0.930 . S
H2538 C2526 0.956 . S
H2539 C2526 0.961 . S
H2540 C2526 0.961 . S
H2541 C2527 0.958 . S
H2542 C2527 0.961 . S
H2543 C2527 0.960 . S
C2544 C2545 1.391 . S
C2544 C2546 1.394 . S
C2544 H2560 0.931 . S
C2545 C2544 1.391 . S
C2545 C2549 1.376 . S
C2546 C2544 1.394 . S
C2546 C2547 1.369 . S
C2546 C2550 1.531 . S
C2547 C2546 1.369 . S
C2547 C2548 1.410 . S
C2547 C2555 1.503 . S
C2548 C2547 1.410 . S
C2548 C2549 1.392 . S
C2548 C2551 1.511 . S
C2549 C2545 1.376 . S
C2549 C2548 1.392 . S
C2549 H2561 0.929 . S
C2550 C2546 1.531 . S
C2550 H2562 0.960 . S
C2550 H2563 0.962 . S
C2550 H2564 0.960 . S
C2551 C2548 1.511 . S
C2551 H2565 0.961 . S
C2551 H2566 0.961 . S
C2551 H2567 0.961 . S
C2552 C2553 1.370 . S
C2552 C2554 1.363 . S
C2552 H2568 0.931 . S
C2553 C2552 1.370 . S
C2553 C2557 1.408 . S
C2554 C2552 1.363 . S
C2554 C2555 1.370 . S
C2554 C2558 1.524 . S
C2555 C2547 1.503 . S
C2555 C2554 1.370 . S
C2555 C2556 1.403 . S
C2556 C2555 1.403 . S
C2556 C2557 1.404 . S
C2556 C2559 1.539 . S
C2557 C2553 1.408 . S
C2557 C2556 1.404 . S
C2557 H2569 0.930 . S
C2558 C2554 1.524 . S
C2558 H2570 0.956 . S
C2558 H2571 0.961 . S
C2558 H2572 0.961 . S
C2559 C2556 1.539 . S
C2559 H2573 0.958 . S
C2559 H2574 0.961 . S
C2559 H2575 0.960 . S
H2560 C2544 0.931 . S
H2561 C2549 0.929 . S
H2562 C2550 0.960 . S
H2563 C2550 0.962 . S
H2564 C2550 0.960 . S
H2565 C2551 0.961 . S
H2566 C2551 0.961 . S
H2567 C2551 0.961 . S
H2568 C2552 0.931 . S
H2569 C2557 0.930 . S
H2570 C2558 0.956 . S
H2571 C2558 0.961 . S
H2572 C2558 0.961 . S
H2573 C2559 0.958 . S
H2574 C2559 0.961 . S
H2575 C2559 0.960 . S
C2576 C2577 1.391 . S
C2576 C2578 1.394 . S
C2576 H2592 0.931 . S
C2577 C2576 1.391 . S
C2577 C2581 1.376 . S
C2578 C2576 1.394 . S
C2578 C2579 1.369 . S
C2578 C2582 1.531 1_556 S
C2579 C2578 1.369 . S
C2579 C2580 1.410 . S
C2579 C2587 1.503 . S
C2580 C2579 1.410 . S
C2580 C2581 1.392 . S
C2580 C2583 1.511 . S
C2581 C2577 1.376 . S
C2581 C2580 1.392 . S
C2581 H2593 0.929 . S
C2582 C2578 1.531 1_554 S
C2582 H2594 0.960 . S
C2582 H2595 0.962 1_454 S
C2582 H2596 0.960 . S
C2583 C2580 1.511 . S
C2583 H2597 0.961 . S
C2583 H2598 0.961 . S
C2583 H2599 0.961 . S
C2584 C2585 1.370 . S
C2584 C2586 1.363 . S
C2584 H2600 0.931 . S
C2585 C2584 1.370 . S
C2585 C2589 1.408 1_556 S
C2586 C2584 1.363 . S
C2586 C2587 1.370 . S
C2586 C2590 1.547 . S
C2587 C2579 1.503 . S
C2587 C2586 1.370 . S
C2587 C2588 1.400 . S
C2588 C2587 1.400 . S
C2588 C2589 1.405 1_556 S
C2588 C2591 1.540 1_556 S
C2589 C2585 1.408 1_554 S
C2589 C2588 1.405 1_554 S
C2589 H2601 0.930 . S
C2590 C2586 1.547 . S
C2590 H2602 0.937 1_455 S
C2590 H2603 0.988 . S
C2590 H2604 0.932 1_455 S
C2591 C2588 1.540 1_554 S
C2591 H2605 0.958 . S
C2591 H2606 0.961 . S
C2591 H2607 0.960 1_554 S
H2592 C2576 0.931 . S
H2593 C2581 0.929 . S
H2594 C2582 0.960 . S
H2595 C2582 0.962 1_656 S
H2596 C2582 0.960 . S
H2597 C2583 0.961 . S
H2598 C2583 0.961 . S
H2599 C2583 0.961 . S
H2600 C2584 0.931 . S
H2601 C2589 0.930 . S
H2602 C2590 0.937 1_655 S
H2603 C2590 0.988 . S
H2604 C2590 0.932 1_655 S
H2605 C2591 0.958 . S
H2606 C2591 0.961 . S
H2607 C2591 0.960 1_556 S
C2608 C2609 1.391 . S
C2608 C2610 1.394 1_455 S
C2608 H2624 0.931 . S
C2609 C2608 1.391 . S
C2609 C2613 1.376 . S
C2610 C2608 1.394 1_655 S
C2610 C2611 1.369 . S
C2610 C2614 1.531 . S
C2611 C2610 1.369 . S
C2611 C2612 1.410 . S
C2611 C2619 1.503 . S
C2612 C2611 1.410 . S
C2612 C2613 1.392 1_655 S
C2612 C2615 1.511 . S
C2613 C2609 1.376 . S
C2613 C2612 1.392 1_455 S
C2613 H2625 0.929 . S
C2614 C2610 1.531 . S
C2614 H2626 0.960 . S
C2614 H2627 0.962 1_655 S
C2614 H2628 0.960 1_655 S
C2615 C2612 1.511 . S
C2615 H2629 0.961 . S
C2615 H2630 0.961 . S
C2615 H2631 0.961 . S
C2616 C2617 1.370 . S
C2616 C2618 1.363 . S
C2616 H2632 0.931 . S
C2617 C2616 1.370 . S
C2617 C2621 1.408 . S
C2618 C2616 1.363 . S
C2618 C2619 1.370 . S
C2618 C2622 1.524 . S
C2619 C2611 1.503 . S
C2619 C2618 1.370 . S
C2619 C2620 1.403 . S
C2620 C2619 1.403 . S
C2620 C2621 1.404 . S
C2620 C2623 1.539 . S
C2621 C2617 1.408 . S
C2621 C2620 1.404 . S
C2621 H2633 0.930 . S
C2622 C2618 1.524 . S
C2622 H2634 0.956 . S
C2622 H2635 0.961 . S
C2622 H2636 0.961 . S
C2623 C2620 1.539 . S
C2623 H2637 0.958 . S
C2623 H2638 0.961 . S
C2623 H2639 0.960 . S
H2624 C2608 0.931 . S
H2625 C2613 0.929 . S
H2626 C2614 0.960 . S
H2627 C2614 0.962 1_455 S
H2628 C2614 0.960 1_455 S
H2629 C2615 0.961 . S
H2630 C2615 0.961 . S
H2631 C2615 0.961 . S
H2632 C2616 0.931 . S
H2633 C2621 0.930 . S
H2634 C2622 0.956 . S
H2635 C2622 0.961 . S
H2636 C2622 0.961 . S
H2637 C2623 0.958 . S
H2638 C2623 0.961 . S
H2639 C2623 0.960 . S
C2640 C2641 1.391 . S
C2640 C2642 1.394 . S
C2640 H2656 0.931 . S
C2641 C2640 1.391 . S
C2641 C2645 1.376 . S
C2642 C2640 1.394 . S
C2642 C2643 1.369 . S
C2642 C2646 1.531 . S
C2643 C2642 1.369 . S
C2643 C2644 1.410 . S
C2643 C2651 1.503 . S
C2644 C2643 1.410 . S
C2644 C2645 1.392 . S
C2644 C2647 1.511 . S
C2645 C2641 1.376 . S
C2645 C2644 1.392 . S
C2645 H2657 0.929 . S
C2646 C2642 1.531 . S
C2646 H2658 0.960 . S
C2646 H2659 0.962 . S
C2646 H2660 0.960 . S
C2647 C2644 1.511 . S
C2647 H2661 0.961 . S
C2647 H2662 0.961 . S
C2647 H2663 0.961 . S
C2648 C2649 1.370 . S
C2648 C2650 1.363 . S
C2648 H2664 0.931 . S
C2649 C2648 1.370 . S
C2649 C2653 1.408 . S
C2650 C2648 1.363 . S
C2650 C2651 1.370 . S
C2650 C2654 1.524 . S
C2651 C2643 1.503 . S
C2651 C2650 1.370 . S
C2651 C2652 1.403 . S
C2652 C2651 1.403 . S
C2652 C2653 1.404 . S
C2652 C2655 1.539 . S
C2653 C2649 1.408 . S
C2653 C2652 1.404 . S
C2653 H2665 0.930 . S
C2654 C2650 1.524 . S
C2654 H2666 0.956 . S
C2654 H2667 0.961 . S
C2654 H2668 0.961 . S
C2655 C2652 1.539 . S
C2655 H2669 0.958 . S
C2655 H2670 0.961 . S
C2655 H2671 0.960 . S
H2656 C2640 0.931 . S
H2657 C2645 0.929 . S
H2658 C2646 0.960 . S
H2659 C2646 0.962 . S
H2660 C2646 0.960 . S
H2661 C2647 0.961 . S
H2662 C2647 0.961 . S
H2663 C2647 0.961 . S
H2664 C2648 0.931 . S
H2665 C2653 0.930 . S
H2666 C2654 0.956 . S
H2667 C2654 0.961 . S
H2668 C2654 0.961 . S
H2669 C2655 0.958 . S
H2670 C2655 0.961 . S
H2671 C2655 0.960 . S
C2672 C2673 1.391 . S
C2672 C2674 1.394 . S
C2672 H2688 0.931 . S
C2673 C2672 1.391 . S
C2673 C2677 1.376 . S
C2674 C2672 1.394 . S
C2674 C2675 1.369 . S
C2674 C2678 1.531 . S
C2675 C2674 1.369 . S
C2675 C2676 1.410 . S
C2675 C2683 1.503 . S
C2676 C2675 1.410 . S
C2676 C2677 1.392 . S
C2676 C2679 1.511 . S
C2677 C2673 1.376 . S
C2677 C2676 1.392 . S
C2677 H2689 0.929 . S
C2678 C2674 1.531 . S
C2678 H2690 0.960 . S
C2678 H2691 0.962 . S
C2678 H2692 0.960 . S
C2679 C2676 1.511 . S
C2679 H2693 0.961 . S
C2679 H2694 0.961 . S
C2679 H2695 0.961 . S
C2680 C2681 1.370 . S
C2680 C2682 1.363 . S
C2680 H2696 0.931 . S
C2681 C2680 1.370 . S
C2681 C2685 1.408 . S
C2682 C2680 1.363 . S
C2682 C2683 1.370 . S
C2682 C2686 1.524 . S
C2683 C2675 1.503 . S
C2683 C2682 1.370 . S
C2683 C2684 1.403 . S
C2684 C2683 1.403 . S
C2684 C2685 1.404 . S
C2684 C2687 1.539 . S
C2685 C2681 1.408 . S
C2685 C2684 1.404 . S
C2685 H2697 0.930 . S
C2686 C2682 1.524 . S
C2686 H2698 0.956 . S
C2686 H2699 0.961 . S
C2686 H2700 0.961 . S
C2687 C2684 1.539 . S
C2687 H2701 0.958 . S
C2687 H2702 0.961 . S
C2687 H2703 0.960 . S
H2688 C2672 0.931 . S
H2689 C2677 0.929 . S
H2690 C2678 0.960 . S
H2691 C2678 0.962 . S
H2692 C2678 0.960 . S
H2693 C2679 0.961 . S
H2694 C2679 0.961 . S
H2695 C2679 0.961 . S
H2696 C2680 0.931 . S
H2697 C2685 0.930 . S
H2698 C2686 0.956 . S
H2699 C2686 0.961 . S
H2700 C2686 0.961 . S
H2701 C2687 0.958 . S
H2702 C2687 0.961 . S
H2703 C2687 0.960 . S
C2704 C2705 1.391 . S
C2704 C2706 1.394 . S
C2704 H2720 0.931 . S
C2705 C2704 1.391 . S
C2705 C2709 1.376 . S
C2706 C2704 1.394 . S
C2706 C2707 1.369 . S
C2706 C2710 1.531 . S
C2707 C2706 1.369 . S
C2707 C2708 1.410 . S
C2707 C2715 1.503 . S
C2708 C2707 1.410 . S
C2708 C2709 1.392 . S
C2708 C2711 1.511 . S
C2709 C2705 1.376 . S
C2709 C2708 1.392 . S
C2709 H2721 0.929 . S
C2710 C2706 1.531 . S
C2710 H2722 0.960 . S
C2710 H2723 0.962 . S
C2710 H2724 0.960 . S
C2711 C2708 1.511 . S
C2711 H2725 0.961 . S
C2711 H2726 0.961 . S
C2711 H2727 0.961 . S
C2712 C2713 1.370 . S
C2712 C2714 1.363 . S
C2712 H2728 0.931 . S
C2713 C2712 1.370 . S
C2713 C2717 1.408 . S
C2714 C2712 1.363 . S
C2714 C2715 1.370 . S
C2714 C2718 1.524 . S
C2715 C2707 1.503 . S
C2715 C2714 1.370 . S
C2715 C2716 1.403 . S
C2716 C2715 1.403 . S
C2716 C2717 1.404 . S
C2716 C2719 1.539 . S
C2717 C2713 1.408 . S
C2717 C2716 1.404 . S
C2717 H2729 0.930 . S
C2718 C2714 1.524 . S
C2718 H2730 0.956 . S
C2718 H2731 0.961 . S
C2718 H2732 0.961 . S
C2719 C2716 1.539 . S
C2719 H2733 0.958 . S
C2719 H2734 0.961 . S
C2719 H2735 0.960 . S
H2720 C2704 0.931 . S
H2721 C2709 0.929 . S
H2722 C2710 0.960 . S
H2723 C2710 0.962 . S
H2724 C2710 0.960 . S
H2725 C2711 0.961 . S
H2726 C2711 0.961 . S
H2727 C2711 0.961 . S
H2728 C2712 0.931 . S
H2729 C2717 0.930 . S
H2730 C2718 0.956 . S
H2731 C2718 0.961 . S
H2732 C2718 0.961 . S
H2733 C2719 0.958 . S
H2734 C2719 0.961 . S
H2735 C2719 0.960 . S
C2736 C2737 1.391 . S
C2736 C2738 1.394 . S
C2736 H2752 0.931 . S
C2737 C2736 1.391 . S
C2737 C2741 1.376 . S
C2738 C2736 1.394 . S
C2738 C2739 1.369 . S
C2738 C2742 1.531 . S
C2739 C2738 1.369 . S
C2739 C2740 1.410 . S
C2739 C2747 1.503 . S
C2740 C2739 1.410 . S
C2740 C2741 1.392 . S
C2740 C2743 1.511 . S
C2741 C2737 1.376 . S
C2741 C2740 1.392 . S
C2741 H2753 0.929 . S
C2742 C2738 1.531 . S
C2742 H2754 0.960 . S
C2742 H2755 0.962 . S
C2742 H2756 0.960 . S
C2743 C2740 1.511 . S
C2743 H2757 0.961 . S
C2743 H2758 0.961 . S
C2743 H2759 0.961 . S
C2744 C2745 1.370 . S
C2744 C2746 1.363 . S
C2744 H2760 0.931 . S
C2745 C2744 1.370 . S
C2745 C2749 1.408 . S
C2746 C2744 1.363 . S
C2746 C2747 1.370 . S
C2746 C2750 1.524 . S
C2747 C2739 1.503 . S
C2747 C2746 1.370 . S
C2747 C2748 1.403 . S
C2748 C2747 1.403 . S
C2748 C2749 1.404 . S
C2748 C2751 1.539 . S
C2749 C2745 1.408 . S
C2749 C2748 1.404 . S
C2749 H2761 0.930 . S
C2750 C2746 1.524 . S
C2750 H2762 0.956 . S
C2750 H2763 0.961 . S
C2750 H2764 0.961 . S
C2751 C2748 1.539 . S
C2751 H2765 0.958 . S
C2751 H2766 0.961 . S
C2751 H2767 0.960 . S
H2752 C2736 0.931 . S
H2753 C2741 0.929 . S
H2754 C2742 0.960 . S
H2755 C2742 0.962 . S
H2756 C2742 0.960 . S
H2757 C2743 0.961 . S
H2758 C2743 0.961 . S
H2759 C2743 0.961 . S
H2760 C2744 0.931 . S
H2761 C2749 0.930 . S
H2762 C2750 0.956 . S
H2763 C2750 0.961 . S
H2764 C2750 0.961 . S
H2765 C2751 0.958 . S
H2766 C2751 0.961 . S
H2767 C2751 0.960 . S
C2768 C2769 1.391 . S
C2768 C2770 1.394 . S
C2768 H2784 0.931 . S
C2769 C2768 1.391 . S
C2769 C2773 1.376 . S
C2770 C2768 1.394 . S
C2770 C2771 1.369 . S
C2770 C2774 1.531 . S
C2771 C2770 1.369 . S
C2771 C2772 1.410 . S
C2771 C2779 1.503 . S
C2772 C2771 1.410 . S
C2772 C2773 1.392 . S
C2772 C2775 1.511 . S
C2773 C2769 1.376 . S
C2773 C2772 1.392 . S
C2773 H2785 0.929 . S
C2774 C2770 1.531 . S
C2774 H2786 0.960 . S
C2774 H2787 0.962 . S
C2774 H2788 0.960 . S
C2775 C2772 1.511 . S
C2775 H2789 0.961 . S
C2775 H2790 0.961 . S
C2775 H2791 0.961 . S
C2776 C2777 1.370 . S
C2776 C2778 1.363 . S
C2776 H2792 0.931 . S
C2777 C2776 1.370 . S
C2777 C2781 1.408 . S
C2778 C2776 1.363 . S
C2778 C2779 1.370 . S
C2778 C2782 1.524 . S
C2779 C2771 1.503 . S
C2779 C2778 1.370 . S
C2779 C2780 1.403 . S
C2780 C2779 1.403 . S
C2780 C2781 1.404 . S
C2780 C2783 1.539 . S
C2781 C2777 1.408 . S
C2781 C2780 1.404 . S
C2781 H2793 0.930 . S
C2782 C2778 1.524 . S
C2782 H2794 0.956 . S
C2782 H2795 0.961 . S
C2782 H2796 0.961 . S
C2783 C2780 1.539 . S
C2783 H2797 0.958 . S
C2783 H2798 0.961 . S
C2783 H2799 0.960 . S
H2784 C2768 0.931 . S
H2785 C2773 0.929 . S
H2786 C2774 0.960 . S
H2787 C2774 0.962 . S
H2788 C2774 0.960 . S
H2789 C2775 0.961 . S
H2790 C2775 0.961 . S
H2791 C2775 0.961 . S
H2792 C2776 0.931 . S
H2793 C2781 0.930 . S
H2794 C2782 0.956 . S
H2795 C2782 0.961 . S
H2796 C2782 0.961 . S
H2797 C2783 0.958 . S
H2798 C2783 0.961 . S
H2799 C2783 0.960 . S
C2800 C2801 1.391 . S
C2800 C2802 1.394 . S
C2800 H2816 0.931 . S
C2801 C2800 1.391 . S
C2801 C2805 1.376 . S
C2802 C2800 1.394 . S
C2802 C2803 1.369 . S
C2802 C2806 1.531 . S
C2803 C2802 1.369 . S
C2803 C2804 1.410 . S
C2803 C2811 1.503 . S
C2804 C2803 1.410 . S
C2804 C2805 1.392 . S
C2804 C2807 1.511 . S
C2805 C2801 1.376 . S
C2805 C2804 1.392 . S
C2805 H2817 0.929 . S
C2806 C2802 1.531 . S
C2806 H2818 0.960 . S
C2806 H2819 0.962 . S
C2806 H2820 0.960 . S
C2807 C2804 1.511 . S
C2807 H2821 0.961 . S
C2807 H2822 0.961 . S
C2807 H2823 0.961 . S
C2808 C2809 1.370 . S
C2808 C2810 1.363 . S
C2808 H2824 0.931 . S
C2809 C2808 1.370 . S
C2809 C2813 1.408 . S
C2810 C2808 1.363 . S
C2810 C2811 1.370 . S
C2810 C2814 1.524 . S
C2811 C2803 1.503 . S
C2811 C2810 1.370 . S
C2811 C2812 1.403 . S
C2812 C2811 1.403 . S
C2812 C2813 1.404 . S
C2812 C2815 1.539 . S
C2813 C2809 1.408 . S
C2813 C2812 1.404 . S
C2813 H2825 0.930 . S
C2814 C2810 1.524 . S
C2814 H2826 0.956 . S
C2814 H2827 0.961 . S
C2814 H2828 0.961 . S
C2815 C2812 1.539 . S
C2815 H2829 0.958 . S
C2815 H2830 0.961 . S
C2815 H2831 0.960 . S
H2816 C2800 0.931 . S
H2817 C2805 0.929 . S
H2818 C2806 0.960 . S
H2819 C2806 0.962 . S
H2820 C2806 0.960 . S
H2821 C2807 0.961 . S
H2822 C2807 0.961 . S
H2823 C2807 0.961 . S
H2824 C2808 0.931 . S
H2825 C2813 0.930 . S
H2826 C2814 0.956 . S
H2827 C2814 0.961 . S
H2828 C2814 0.961 . S
H2829 C2815 0.958 . S
H2830 C2815 0.961 . S
H2831 C2815 0.960 . S
C2832 C2833 1.391 . S
C2832 C2834 1.394 . S
C2832 H2848 0.931 . S
C2833 C2832 1.391 . S
C2833 C2837 1.376 . S
C2834 C2832 1.394 . S
C2834 C2835 1.369 . S
C2834 C2838 1.531 . S
C2835 C2834 1.369 . S
C2835 C2836 1.410 . S
C2835 C2843 1.503 . S
C2836 C2835 1.410 . S
C2836 C2837 1.392 . S
C2836 C2839 1.511 . S
C2837 C2833 1.376 . S
C2837 C2836 1.392 . S
C2837 H2849 0.929 . S
C2838 C2834 1.531 . S
C2838 H2850 0.960 . S
C2838 H2851 0.962 . S
C2838 H2852 0.960 . S
C2839 C2836 1.511 . S
C2839 H2853 0.961 . S
C2839 H2854 0.961 . S
C2839 H2855 0.961 . S
C2840 C2841 1.370 . S
C2840 C2842 1.363 . S
C2840 H2856 0.931 . S
C2841 C2840 1.370 . S
C2841 C2845 1.408 . S
C2842 C2840 1.363 . S
C2842 C2843 1.370 . S
C2842 C2846 1.524 . S
C2843 C2835 1.503 . S
C2843 C2842 1.370 . S
C2843 C2844 1.403 . S
C2844 C2843 1.403 . S
C2844 C2845 1.404 . S
C2844 C2847 1.539 . S
C2845 C2841 1.408 . S
C2845 C2844 1.404 . S
C2845 H2857 0.930 . S
C2846 C2842 1.524 . S
C2846 H2858 0.956 . S
C2846 H2859 0.961 . S
C2846 H2860 0.961 . S
C2847 C2844 1.539 . S
C2847 H2861 0.958 . S
C2847 H2862 0.961 . S
C2847 H2863 0.960 . S
H2848 C2832 0.931 . S
H2849 C2837 0.929 . S
H2850 C2838 0.960 . S
H2851 C2838 0.962 . S
H2852 C2838 0.960 . S
H2853 C2839 0.961 . S
H2854 C2839 0.961 . S
H2855 C2839 0.961 . S
H2856 C2840 0.931 . S
H2857 C2845 0.930 . S
H2858 C2846 0.956 . S
H2859 C2846 0.961 . S
H2860 C2846 0.961 . S
H2861 C2847 0.958 . S
H2862 C2847 0.961 . S
H2863 C2847 0.960 . S
C2864 C2865 1.391 . S
C2864 C2866 1.394 . S
C2864 H2880 0.931 . S
C2865 C2864 1.391 . S
C2865 C2869 1.376 . S
C2866 C2864 1.394 . S
C2866 C2867 1.369 . S
C2866 C2870 1.531 . S
C2867 C2866 1.369 . S
C2867 C2868 1.410 . S
C2867 C2875 1.503 . S
C2868 C2867 1.410 . S
C2868 C2869 1.392 . S
C2868 C2871 1.511 . S
C2869 C2865 1.376 . S
C2869 C2868 1.392 . S
C2869 H2881 0.929 . S
C2870 C2866 1.531 . S
C2870 H2882 0.960 . S
C2870 H2883 0.962 . S
C2870 H2884 0.960 . S
C2871 C2868 1.511 . S
C2871 H2885 0.961 . S
C2871 H2886 0.961 . S
C2871 H2887 0.961 . S
C2872 C2873 1.370 . S
C2872 C2874 1.363 . S
C2872 H2888 0.931 . S
C2873 C2872 1.370 . S
C2873 C2877 1.408 . S
C2874 C2872 1.363 . S
C2874 C2875 1.370 . S
C2874 C2878 1.524 . S
C2875 C2867 1.503 . S
C2875 C2874 1.370 . S
C2875 C2876 1.403 . S
C2876 C2875 1.403 . S
C2876 C2877 1.404 . S
C2876 C2879 1.539 . S
C2877 C2873 1.408 . S
C2877 C2876 1.404 . S
C2877 H2889 0.930 . S
C2878 C2874 1.524 . S
C2878 H2890 0.956 . S
C2878 H2891 0.961 . S
C2878 H2892 0.961 . S
C2879 C2876 1.539 . S
C2879 H2893 0.958 . S
C2879 H2894 0.961 . S
C2879 H2895 0.960 . S
H2880 C2864 0.931 . S
H2881 C2869 0.929 . S
H2882 C2870 0.960 . S
H2883 C2870 0.962 . S
H2884 C2870 0.960 . S
H2885 C2871 0.961 . S
H2886 C2871 0.961 . S
H2887 C2871 0.961 . S
H2888 C2872 0.931 . S
H2889 C2877 0.930 . S
H2890 C2878 0.956 . S
H2891 C2878 0.961 . S
H2892 C2878 0.961 . S
H2893 C2879 0.958 . S
H2894 C2879 0.961 . S
H2895 C2879 0.960 . S
C2896 C2897 1.391 . S
C2896 C2898 1.394 . S
C2896 H2912 0.931 . S
C2897 C2896 1.391 . S
C2897 C2901 1.376 . S
C2898 C2896 1.394 . S
C2898 C2899 1.369 . S
C2898 C2902 1.531 . S
C2899 C2898 1.369 . S
C2899 C2900 1.410 . S
C2899 C2907 1.503 . S
C2900 C2899 1.410 . S
C2900 C2901 1.392 . S
C2900 C2903 1.511 . S
C2901 C2897 1.376 . S
C2901 C2900 1.392 . S
C2901 H2913 0.929 . S
C2902 C2898 1.531 . S
C2902 H2914 0.960 . S
C2902 H2915 0.962 . S
C2902 H2916 0.960 . S
C2903 C2900 1.511 . S
C2903 H2917 0.961 . S
C2903 H2918 0.961 . S
C2903 H2919 0.961 . S
C2904 C2905 1.370 . S
C2904 C2906 1.363 . S
C2904 H2920 0.931 . S
C2905 C2904 1.370 . S
C2905 C2909 1.408 . S
C2906 C2904 1.363 . S
C2906 C2907 1.370 . S
C2906 C2910 1.524 . S
C2907 C2899 1.503 . S
C2907 C2906 1.370 . S
C2907 C2908 1.403 . S
C2908 C2907 1.403 . S
C2908 C2909 1.404 . S
C2908 C2911 1.539 . S
C2909 C2905 1.408 . S
C2909 C2908 1.404 . S
C2909 H2921 0.930 . S
C2910 C2906 1.524 . S
C2910 H2922 0.956 . S
C2910 H2923 0.961 . S
C2910 H2924 0.961 . S
C2911 C2908 1.539 . S
C2911 H2925 0.958 . S
C2911 H2926 0.961 . S
C2911 H2927 0.960 . S
H2912 C2896 0.931 . S
H2913 C2901 0.929 . S
H2914 C2902 0.960 . S
H2915 C2902 0.962 . S
H2916 C2902 0.960 . S
H2917 C2903 0.961 . S
H2918 C2903 0.961 . S
H2919 C2903 0.961 . S
H2920 C2904 0.931 . S
H2921 C2909 0.930 . S
H2922 C2910 0.956 . S
H2923 C2910 0.961 . S
H2924 C2910 0.961 . S
H2925 C2911 0.958 . S
H2926 C2911 0.961 . S
H2927 C2911 0.960 . S
C2928 C2929 1.391 . S
C2928 C2930 1.394 . S
C2928 H2944 0.931 . S
C2929 C2928 1.391 . S
C2929 C2933 1.376 . S
C2930 C2928 1.394 . S
C2930 C2931 1.369 . S
C2930 C2934 1.531 . S
C2931 C2930 1.369 . S
C2931 C2932 1.410 . S
C2931 C2939 1.503 . S
C2932 C2931 1.410 . S
C2932 C2933 1.392 . S
C2932 C2935 1.511 . S
C2933 C2929 1.376 . S
C2933 C2932 1.392 . S
C2933 H2945 0.929 . S
C2934 C2930 1.531 . S
C2934 H2946 0.960 . S
C2934 H2947 0.962 . S
C2934 H2948 0.960 . S
C2935 C2932 1.511 . S
C2935 H2949 0.961 . S
C2935 H2950 0.961 . S
C2935 H2951 0.961 . S
C2936 C2937 1.370 . S
C2936 C2938 1.363 . S
C2936 H2952 0.931 . S
C2937 C2936 1.370 . S
C2937 C2941 1.408 . S
C2938 C2936 1.363 . S
C2938 C2939 1.370 . S
C2938 C2942 1.524 . S
C2939 C2931 1.503 . S
C2939 C2938 1.370 . S
C2939 C2940 1.403 . S
C2940 C2939 1.403 . S
C2940 C2941 1.404 . S
C2940 C2943 1.539 . S
C2941 C2937 1.408 . S
C2941 C2940 1.404 . S
C2941 H2953 0.930 . S
C2942 C2938 1.524 . S
C2942 H2954 0.956 . S
C2942 H2955 0.961 . S
C2942 H2956 0.961 . S
C2943 C2940 1.539 . S
C2943 H2957 0.958 . S
C2943 H2958 0.961 . S
C2943 H2959 0.960 . S
H2944 C2928 0.931 . S
H2945 C2933 0.929 . S
H2946 C2934 0.960 . S
H2947 C2934 0.962 . S
H2948 C2934 0.960 . S
H2949 C2935 0.961 . S
H2950 C2935 0.961 . S
H2951 C2935 0.961 . S
H2952 C2936 0.931 . S
H2953 C2941 0.930 . S
H2954 C2942 0.956 . S
H2955 C2942 0.961 . S
H2956 C2942 0.961 . S
H2957 C2943 0.958 . S
H2958 C2943 0.961 . S
H2959 C2943 0.960 . S
C2960 C2961 1.391 . S
C2960 C2962 1.394 . S
C2960 H2976 0.931 . S
C2961 C2960 1.391 . S
C2961 C2965 1.376 . S
C2962 C2960 1.394 . S
C2962 C2963 1.369 . S
C2962 C2966 1.531 . S
C2963 C2962 1.369 . S
C2963 C2964 1.410 . S
C2963 C2971 1.503 . S
C2964 C2963 1.410 . S
C2964 C2965 1.392 . S
C2964 C2967 1.511 . S
C2965 C2961 1.376 . S
C2965 C2964 1.392 . S
C2965 H2977 0.929 . S
C2966 C2962 1.531 . S
C2966 H2978 0.960 . S
C2966 H2979 0.962 . S
C2966 H2980 0.960 . S
C2967 C2964 1.511 . S
C2967 H2981 0.961 . S
C2967 H2982 0.961 . S
C2967 H2983 0.961 . S
C2968 C2969 1.370 . S
C2968 C2970 1.363 . S
C2968 H2984 0.931 . S
C2969 C2968 1.370 . S
C2969 C2973 1.408 . S
C2970 C2968 1.363 . S
C2970 C2971 1.370 . S
C2970 C2974 1.524 . S
C2971 C2963 1.503 . S
C2971 C2970 1.370 . S
C2971 C2972 1.403 . S
C2972 C2971 1.403 . S
C2972 C2973 1.404 . S
C2972 C2975 1.539 . S
C2973 C2969 1.408 . S
C2973 C2972 1.404 . S
C2973 H2985 0.930 . S
C2974 C2970 1.524 . S
C2974 H2986 0.956 . S
C2974 H2987 0.961 . S
C2974 H2988 0.961 . S
C2975 C2972 1.539 . S
C2975 H2989 0.958 . S
C2975 H2990 0.961 . S
C2975 H2991 0.960 . S
H2976 C2960 0.931 . S
H2977 C2965 0.929 . S
H2978 C2966 0.960 . S
H2979 C2966 0.962 . S
H2980 C2966 0.960 . S
H2981 C2967 0.961 . S
H2982 C2967 0.961 . S
H2983 C2967 0.961 . S
H2984 C2968 0.931 . S
H2985 C2973 0.930 . S
H2986 C2974 0.956 . S
H2987 C2974 0.961 . S
H2988 C2974 0.961 . S
H2989 C2975 0.958 . S
H2990 C2975 0.961 . S
H2991 C2975 0.960 . S
C2992 C2993 1.391 . S
C2992 C2994 1.394 . S
C2992 H3008 0.931 . S
C2993 C2992 1.391 . S
C2993 C2997 1.376 . S
C2994 C2992 1.394 . S
C2994 C2995 1.369 . S
C2994 C2998 1.531 . S
C2995 C2994 1.369 . S
C2995 C2996 1.410 . S
C2995 C3003 1.503 . S
C2996 C2995 1.410 . S
C2996 C2997 1.392 . S
C2996 C2999 1.511 . S
C2997 C2993 1.376 . S
C2997 C2996 1.392 . S
C2997 H3009 0.929 . S
C2998 C2994 1.531 . S
C2998 H3010 0.960 . S
C2998 H3011 0.962 . S
C2998 H3012 0.960 . S
C2999 C2996 1.511 . S
C2999 H3013 0.961 . S
C2999 H3014 0.961 . S
C2999 H3015 0.961 . S
C3000 C3001 1.370 . S
C3000 C3002 1.363 . S
C3000 H3016 0.931 . S
C3001 C3000 1.370 . S
C3001 C3005 1.408 . S
C3002 C3000 1.363 . S
C3002 C3003 1.370 . S
C3002 C3006 1.524 . S
C3003 C2995 1.503 . S
C3003 C3002 1.370 . S
C3003 C3004 1.403 . S
C3004 C3003 1.403 . S
C3004 C3005 1.404 . S
C3004 C3007 1.539 . S
C3005 C3001 1.408 . S
C3005 C3004 1.404 . S
C3005 H3017 0.930 . S
C3006 C3002 1.524 . S
C3006 H3018 0.956 . S
C3006 H3019 0.961 . S
C3006 H3020 0.961 . S
C3007 C3004 1.539 . S
C3007 H3021 0.958 . S
C3007 H3022 0.961 . S
C3007 H3023 0.960 . S
H3008 C2992 0.931 . S
H3009 C2997 0.929 . S
H3010 C2998 0.960 . S
H3011 C2998 0.962 . S
H3012 C2998 0.960 . S
H3013 C2999 0.961 . S
H3014 C2999 0.961 . S
H3015 C2999 0.961 . S
H3016 C3000 0.931 . S
H3017 C3005 0.930 . S
H3018 C3006 0.956 . S
H3019 C3006 0.961 . S
H3020 C3006 0.961 . S
H3021 C3007 0.958 . S
H3022 C3007 0.961 . S
H3023 C3007 0.960 . S
C3024 C3025 1.391 . S
C3024 C3026 1.394 . S
C3024 H3040 0.931 . S
C3025 C3024 1.391 . S
C3025 C3029 1.376 . S
C3026 C3024 1.394 . S
C3026 C3027 1.369 . S
C3026 C3030 1.531 . S
C3027 C3026 1.369 . S
C3027 C3028 1.410 . S
C3027 C3035 1.503 . S
C3028 C3027 1.410 . S
C3028 C3029 1.392 . S
C3028 C3031 1.511 . S
C3029 C3025 1.376 . S
C3029 C3028 1.392 . S
C3029 H3041 0.929 . S
C3030 C3026 1.531 . S
C3030 H3042 0.960 . S
C3030 H3043 0.962 . S
C3030 H3044 0.960 . S
C3031 C3028 1.511 . S
C3031 H3045 0.961 . S
C3031 H3046 0.961 . S
C3031 H3047 0.961 . S
C3032 C3033 1.370 . S
C3032 C3034 1.363 . S
C3032 H3048 0.931 . S
C3033 C3032 1.370 . S
C3033 C3037 1.408 . S
C3034 C3032 1.363 . S
C3034 C3035 1.370 . S
C3034 C3038 1.524 . S
C3035 C3027 1.503 . S
C3035 C3034 1.370 . S
C3035 C3036 1.403 . S
C3036 C3035 1.403 . S
C3036 C3037 1.404 . S
C3036 C3039 1.539 . S
C3037 C3033 1.408 . S
C3037 C3036 1.404 . S
C3037 H3049 0.930 . S
C3038 C3034 1.524 . S
C3038 H3050 0.956 . S
C3038 H3051 0.961 . S
C3038 H3052 0.961 . S
C3039 C3036 1.539 . S
C3039 H3053 0.958 . S
C3039 H3054 0.961 . S
C3039 H3055 0.960 . S
H3040 C3024 0.931 . S
H3041 C3029 0.929 . S
H3042 C3030 0.960 . S
H3043 C3030 0.962 . S
H3044 C3030 0.960 . S
H3045 C3031 0.961 . S
H3046 C3031 0.961 . S
H3047 C3031 0.961 . S
H3048 C3032 0.931 . S
H3049 C3037 0.930 . S
H3050 C3038 0.956 . S
H3051 C3038 0.961 . S
H3052 C3038 0.961 . S
H3053 C3039 0.958 . S
H3054 C3039 0.961 . S
H3055 C3039 0.960 . S
C3056 C3057 1.391 . S
C3056 C3058 1.394 . S
C3056 H3072 0.931 . S
C3057 C3056 1.391 . S
C3057 C3061 1.376 . S
C3058 C3056 1.394 . S
C3058 C3059 1.369 . S
C3058 C3062 1.531 . S
C3059 C3058 1.369 . S
C3059 C3060 1.410 . S
C3059 C3067 1.503 . S
C3060 C3059 1.410 . S
C3060 C3061 1.392 . S
C3060 C3063 1.511 . S
C3061 C3057 1.376 . S
C3061 C3060 1.392 . S
C3061 H3073 0.929 . S
C3062 C3058 1.531 . S
C3062 H3074 0.960 . S
C3062 H3075 0.962 . S
C3062 H3076 0.960 . S
C3063 C3060 1.511 . S
C3063 H3077 0.961 . S
C3063 H3078 0.961 . S
C3063 H3079 0.961 . S
C3064 C3065 1.370 . S
C3064 C3066 1.363 . S
C3064 H3080 0.931 . S
C3065 C3064 1.370 . S
C3065 C3069 1.408 . S
C3066 C3064 1.363 . S
C3066 C3067 1.370 . S
C3066 C3070 1.524 . S
C3067 C3059 1.503 . S
C3067 C3066 1.370 . S
C3067 C3068 1.403 . S
C3068 C3067 1.403 . S
C3068 C3069 1.404 . S
C3068 C3071 1.539 . S
C3069 C3065 1.408 . S
C3069 C3068 1.404 . S
C3069 H3081 0.930 . S
C3070 C3066 1.524 . S
C3070 H3082 0.956 . S
C3070 H3083 0.961 . S
C3070 H3084 0.961 . S
C3071 C3068 1.539 . S
C3071 H3085 0.958 . S
C3071 H3086 0.961 . S
C3071 H3087 0.960 . S
H3072 C3056 0.931 . S
H3073 C3061 0.929 . S
H3074 C3062 0.960 . S
H3075 C3062 0.962 . S
H3076 C3062 0.960 . S
H3077 C3063 0.961 . S
H3078 C3063 0.961 . S
H3079 C3063 0.961 . S
H3080 C3064 0.931 . S
H3081 C3069 0.930 . S
H3082 C3070 0.956 . S
H3083 C3070 0.961 . S
H3084 C3070 0.961 . S
H3085 C3071 0.958 . S
H3086 C3071 0.961 . S
H3087 C3071 0.960 . S
C3088 C3089 1.391 . S
C3088 C3090 1.394 . S
C3088 H3104 0.931 . S
C3089 C3088 1.391 . S
C3089 C3093 1.376 . S
C3090 C3088 1.394 . S
C3090 C3091 1.369 . S
C3090 C3094 1.531 . S
C3091 C3090 1.369 . S
C3091 C3092 1.410 . S
C3091 C3099 1.503 . S
C3092 C3091 1.410 . S
C3092 C3093 1.392 . S
C3092 C3095 1.511 . S
C3093 C3089 1.376 . S
C3093 C3092 1.392 . S
C3093 H3105 0.929 . S
C3094 C3090 1.531 . S
C3094 H3106 0.960 1_545 S
C3094 H3107 0.962 . S
C3094 H3108 0.960 . S
C3095 C3092 1.511 . S
C3095 H3109 0.961 . S
C3095 H3110 0.961 . S
C3095 H3111 0.961 . S
C3096 C3097 1.370 1_545 S
C3096 C3098 1.363 . S
C3096 H3112 0.931 . S
C3097 C3096 1.370 1_565 S
C3097 C3101 1.408 . S
C3098 C3096 1.363 . S
C3098 C3099 1.370 . S
C3098 C3102 1.524 . S
C3099 C3091 1.503 . S
C3099 C3098 1.370 . S
C3099 C3100 1.403 1_545 S
C3100 C3099 1.403 1_565 S
C3100 C3101 1.404 . S
C3100 C3103 1.539 . S
C3101 C3097 1.408 . S
C3101 C3100 1.404 . S
C3101 H3113 0.930 . S
C3102 C3098 1.524 . S
C3102 H3114 0.956 . S
C3102 H3115 0.961 . S
C3102 H3116 0.961 . S
C3103 C3100 1.539 . S
C3103 H3117 0.958 . S
C3103 H3118 0.961 . S
C3103 H3119 0.960 . S
H3104 C3088 0.931 . S
H3105 C3093 0.929 . S
H3106 C3094 0.960 1_565 S
H3107 C3094 0.962 . S
H3108 C3094 0.960 . S
H3109 C3095 0.961 . S
H3110 C3095 0.961 . S
H3111 C3095 0.961 . S
H3112 C3096 0.931 . S
H3113 C3101 0.930 . S
H3114 C3102 0.956 . S
H3115 C3102 0.961 . S
H3116 C3102 0.961 . S
H3117 C3103 0.958 . S
H3118 C3103 0.961 . S
H3119 C3103 0.960 . S
C3120 C3121 1.383 1_545 S
C3120 C3122 1.399 . S
C3120 H3136 0.934 . S
C3121 C3120 1.383 1_565 S
C3121 C3125 1.376 . S
C3122 C3120 1.399 . S
C3122 C3123 1.369 . S
C3122 C3126 1.531 . S
C3123 C3122 1.369 . S
C3123 C3124 1.410 1_545 S
C3123 C3131 1.503 . S
C3124 C3123 1.410 1_565 S
C3124 C3125 1.392 . S
C3124 C3127 1.511 . S
C3125 C3121 1.376 . S
C3125 C3124 1.392 . S
C3125 H3137 0.929 . S
C3126 C3122 1.531 . S
C3126 H3138 0.960 . S
C3126 H3139 0.962 . S
C3126 H3140 0.960 . S
C3127 C3124 1.511 . S
C3127 H3141 0.961 1_554 S
C3127 H3142 0.961 . S
C3127 H3143 0.961 . S
C3128 C3129 1.370 . S
C3128 C3130 1.363 . S
C3128 H3144 0.931 . S
C3129 C3128 1.370 . S
C3129 C3133 1.408 . S
C3130 C3128 1.363 . S
C3130 C3131 1.370 . S
C3130 C3134 1.524 . S
C3131 C3123 1.503 . S
C3131 C3130 1.370 . S
C3131 C3132 1.403 . S
C3132 C3131 1.403 . S
C3132 C3133 1.404 . S
C3132 C3135 1.581 . S
C3133 C3129 1.408 . S
C3133 C3132 1.404 . S
C3133 H3145 0.930 . S
C3134 C3130 1.524 . S
C3134 H3146 0.956 . S
C3134 H3147 0.961 . S
C3134 H3148 0.961 . S
C3135 C3132 1.581 . S
C3135 H3149 0.963 . S
C3135 H3150 0.940 1_545 S
C3135 H3151 0.936 1_545 S
H3136 C3120 0.934 . S
H3137 C3125 0.929 . S
H3138 C3126 0.960 . S
H3139 C3126 0.962 . S
H3140 C3126 0.960 . S
H3141 C3127 0.961 1_556 S
H3142 C3127 0.961 . S
H3143 C3127 0.961 . S
H3144 C3128 0.931 . S
H3145 C3133 0.930 . S
H3146 C3134 0.956 . S
H3147 C3134 0.961 . S
H3148 C3134 0.961 . S
H3149 C3135 0.963 . S
H3150 C3135 0.940 1_565 S
H3151 C3135 0.936 1_565 S
C3152 C3153 1.391 . S
C3152 C3154 1.394 . S
C3152 H3168 0.931 . S
C3153 C3152 1.391 . S
C3153 C3157 1.376 . S
C3154 C3152 1.394 . S
C3154 C3155 1.369 . S
C3154 C3158 1.531 . S
C3155 C3154 1.369 . S
C3155 C3156 1.410 . S
C3155 C3163 1.503 . S
C3156 C3155 1.410 . S
C3156 C3157 1.392 . S
C3156 C3159 1.511 . S
C3157 C3153 1.376 . S
C3157 C3156 1.392 . S
C3157 H3169 0.929 . S
C3158 C3154 1.531 . S
C3158 H3170 0.960 . S
C3158 H3171 0.962 . S
C3158 H3172 0.960 . S
C3159 C3156 1.511 . S
C3159 H3173 0.961 . S
C3159 H3174 0.961 . S
C3159 H3175 0.961 . S
C3160 C3161 1.370 . S
C3160 C3162 1.363 . S
C3160 H3176 0.931 . S
C3161 C3160 1.370 . S
C3161 C3165 1.408 . S
C3162 C3160 1.363 . S
C3162 C3163 1.370 . S
C3162 C3166 1.524 . S
C3163 C3155 1.503 . S
C3163 C3162 1.370 . S
C3163 C3164 1.403 . S
C3164 C3163 1.403 . S
C3164 C3165 1.404 . S
C3164 C3167 1.539 . S
C3165 C3161 1.408 . S
C3165 C3164 1.404 . S
C3165 H3177 0.930 . S
C3166 C3162 1.524 . S
C3166 H3178 0.956 . S
C3166 H3179 0.961 . S
C3166 H3180 0.961 . S
C3167 C3164 1.539 . S
C3167 H3181 0.958 . S
C3167 H3182 0.961 . S
C3167 H3183 0.960 . S
H3168 C3152 0.931 . S
H3169 C3157 0.929 . S
H3170 C3158 0.960 . S
H3171 C3158 0.962 . S
H3172 C3158 0.960 . S
H3173 C3159 0.961 . S
H3174 C3159 0.961 . S
H3175 C3159 0.961 . S
H3176 C3160 0.931 . S
H3177 C3165 0.930 . S
H3178 C3166 0.956 . S
H3179 C3166 0.961 . S
H3180 C3166 0.961 . S
H3181 C3167 0.958 . S
H3182 C3167 0.961 . S
H3183 C3167 0.960 . S
C3184 C3185 1.391 . S
C3184 C3186 1.394 . S
C3184 H3200 0.931 . S
C3185 C3184 1.391 . S
C3185 C3189 1.376 . S
C3186 C3184 1.394 . S
C3186 C3187 1.369 . S
C3186 C3190 1.531 . S
C3187 C3186 1.369 . S
C3187 C3188 1.410 . S
C3187 C3195 1.503 . S
C3188 C3187 1.410 . S
C3188 C3189 1.392 . S
C3188 C3191 1.511 1_554 S
C3189 C3185 1.376 . S
C3189 C3188 1.392 . S
C3189 H3201 0.929 1_554 S
C3190 C3186 1.531 . S
C3190 H3202 0.960 . S
C3190 H3203 0.962 . S
C3190 H3204 0.960 . S
C3191 C3188 1.511 1_556 S
C3191 H3205 0.961 . S
C3191 H3206 0.959 1_556 S
C3191 H3207 0.961 . S
C3192 C3193 1.370 . S
C3192 C3194 1.363 . S
C3192 H3208 0.931 . S
C3193 C3192 1.370 . S
C3193 C3197 1.408 . S
C3194 C3192 1.363 . S
C3194 C3195 1.370 . S
C3194 C3198 1.524 . S
C3195 C3187 1.503 . S
C3195 C3194 1.370 . S
C3195 C3196 1.403 . S
C3196 C3195 1.403 . S
C3196 C3197 1.404 . S
C3196 C3199 1.539 . S
C3197 C3193 1.408 . S
C3197 C3196 1.404 . S
C3197 H3209 0.930 . S
C3198 C3194 1.524 . S
C3198 H3210 0.956 . S
C3198 H3211 0.961 . S
C3198 H3212 0.961 . S
C3199 C3196 1.539 . S
C3199 H3213 0.958 . S
C3199 H3214 0.961 . S
C3199 H3215 0.960 . S
H3200 C3184 0.931 . S
H3201 C3189 0.929 1_556 S
H3202 C3190 0.960 . S
H3203 C3190 0.962 . S
H3204 C3190 0.960 . S
H3205 C3191 0.961 . S
H3206 C3191 0.959 1_554 S
H3207 C3191 0.961 . S
H3208 C3192 0.931 . S
H3209 C3197 0.930 . S
H3210 C3198 0.956 . S
H3211 C3198 0.961 . S
H3212 C3198 0.961 . S
H3213 C3199 0.958 . S
H3214 C3199 0.961 . S
H3215 C3199 0.960 . S
C3216 C3217 1.391 . S
C3216 C3218 1.394 . S
C3216 H3232 0.931 . S
C3217 C3216 1.391 . S
C3217 C3221 1.376 . S
C3218 C3216 1.394 . S
C3218 C3219 1.369 . S
C3218 C3222 1.531 . S
C3219 C3218 1.369 . S
C3219 C3220 1.410 . S
C3219 C3227 1.503 . S
C3220 C3219 1.410 . S
C3220 C3221 1.392 . S
C3220 C3223 1.511 . S
C3221 C3217 1.376 . S
C3221 C3220 1.392 . S
C3221 H3233 0.929 . S
C3222 C3218 1.531 . S
C3222 H3234 0.960 . S
C3222 H3235 0.962 . S
C3222 H3236 0.960 . S
C3223 C3220 1.511 . S
C3223 H3237 0.961 . S
C3223 H3238 0.961 . S
C3223 H3239 0.961 . S
C3224 C3225 1.370 . S
C3224 C3226 1.363 . S
C3224 H3240 0.931 . S
C3225 C3224 1.370 . S
C3225 C3229 1.408 . S
C3226 C3224 1.363 . S
C3226 C3227 1.370 . S
C3226 C3230 1.524 . S
C3227 C3219 1.503 . S
C3227 C3226 1.370 . S
C3227 C3228 1.403 . S
C3228 C3227 1.403 . S
C3228 C3229 1.404 . S
C3228 C3231 1.539 . S
C3229 C3225 1.408 . S
C3229 C3228 1.404 . S
C3229 H3241 0.930 . S
C3230 C3226 1.524 . S
C3230 H3242 0.956 . S
C3230 H3243 0.961 . S
C3230 H3244 0.961 . S
C3231 C3228 1.539 . S
C3231 H3245 0.958 . S
C3231 H3246 0.961 . S
C3231 H3247 0.960 . S
H3232 C3216 0.931 . S
H3233 C3221 0.929 . S
H3234 C3222 0.960 . S
H3235 C3222 0.962 . S
H3236 C3222 0.960 . S
H3237 C3223 0.961 . S
H3238 C3223 0.961 . S
H3239 C3223 0.961 . S
H3240 C3224 0.931 . S
H3241 C3229 0.930 . S
H3242 C3230 0.956 . S
H3243 C3230 0.961 . S
H3244 C3230 0.961 . S
H3245 C3231 0.958 . S
H3246 C3231 0.961 . S
H3247 C3231 0.960 . S
C3248 C3249 1.391 . S
C3248 C3250 1.394 . S
C3248 H3264 0.931 . S
C3249 C3248 1.391 . S
C3249 C3253 1.376 . S
C3250 C3248 1.394 . S
C3250 C3251 1.369 . S
C3250 C3254 1.531 . S
C3251 C3250 1.369 . S
C3251 C3252 1.410 . S
C3251 C3259 1.503 . S
C3252 C3251 1.410 . S
C3252 C3253 1.392 . S
C3252 C3255 1.511 . S
C3253 C3249 1.376 . S
C3253 C3252 1.392 . S
C3253 H3265 0.929 . S
C3254 C3250 1.531 . S
C3254 H3266 0.960 . S
C3254 H3267 0.962 . S
C3254 H3268 0.960 . S
C3255 C3252 1.511 . S
C3255 H3269 0.961 . S
C3255 H3270 0.961 . S
C3255 H3271 0.961 . S
C3256 C3257 1.370 . S
C3256 C3258 1.359 1_565 S
C3256 H3272 0.935 . S
C3257 C3256 1.370 . S
C3257 C3261 1.408 1_565 S
C3258 C3256 1.359 1_545 S
C3258 C3259 1.370 . S
C3258 C3262 1.524 . S
C3259 C3251 1.503 . S
C3259 C3258 1.370 . S
C3259 C3260 1.403 . S
C3260 C3259 1.403 . S
C3260 C3261 1.404 . S
C3260 C3263 1.539 . S
C3261 C3257 1.408 1_545 S
C3261 C3260 1.404 . S
C3261 H3273 0.930 . S
C3262 C3258 1.524 . S
C3262 H3274 0.956 . S
C3262 H3275 0.961 . S
C3262 H3276 0.961 . S
C3263 C3260 1.539 . S
C3263 H3277 0.958 . S
C3263 H3278 0.961 . S
C3263 H3279 0.960 . S
H3264 C3248 0.931 . S
H3265 C3253 0.929 . S
H3266 C3254 0.960 . S
H3267 C3254 0.962 . S
H3268 C3254 0.960 . S
H3269 C3255 0.961 . S
H3270 C3255 0.961 . S
H3271 C3255 0.961 . S
H3272 C3256 0.935 . S
H3273 C3261 0.930 . S
H3274 C3262 0.956 . S
H3275 C3262 0.961 . S
H3276 C3262 0.961 . S
H3277 C3263 0.958 . S
H3278 C3263 0.961 . S
H3279 C3263 0.960 . S
C3280 C3281 1.391 . S
C3280 C3282 1.394 . S
C3280 H3296 0.931 . S
C3281 C3280 1.391 . S
C3281 C3285 1.376 . S
C3282 C3280 1.394 . S
C3282 C3283 1.369 . S
C3282 C3286 1.531 . S
C3283 C3282 1.369 . S
C3283 C3284 1.410 . S
C3283 C3291 1.503 . S
C3284 C3283 1.410 . S
C3284 C3285 1.392 . S
C3284 C3287 1.511 . S
C3285 C3281 1.376 . S
C3285 C3284 1.392 . S
C3285 H3297 0.929 . S
C3286 C3282 1.531 . S
C3286 H3298 0.960 . S
C3286 H3299 0.962 . S
C3286 H3300 0.960 . S
C3287 C3284 1.511 . S
C3287 H3301 0.961 . S
C3287 H3302 0.961 . S
C3287 H3303 0.961 . S
C3288 C3289 1.370 . S
C3288 C3290 1.363 . S
C3288 H3304 0.931 . S
C3289 C3288 1.370 . S
C3289 C3293 1.408 . S
C3290 C3288 1.363 . S
C3290 C3291 1.370 . S
C3290 C3294 1.524 . S
C3291 C3283 1.503 . S
C3291 C3290 1.370 . S
C3291 C3292 1.403 . S
C3292 C3291 1.403 . S
C3292 C3293 1.404 . S
C3292 C3295 1.539 . S
C3293 C3289 1.408 . S
C3293 C3292 1.404 . S
C3293 H3305 0.930 . S
C3294 C3290 1.524 . S
C3294 H3306 0.956 . S
C3294 H3307 0.961 . S
C3294 H3308 0.961 . S
C3295 C3292 1.539 . S
C3295 H3309 0.958 . S
C3295 H3310 0.961 . S
C3295 H3311 0.960 . S
H3296 C3280 0.931 . S
H3297 C3285 0.929 . S
H3298 C3286 0.960 . S
H3299 C3286 0.962 . S
H3300 C3286 0.960 . S
H3301 C3287 0.961 . S
H3302 C3287 0.961 . S
H3303 C3287 0.961 . S
H3304 C3288 0.931 . S
H3305 C3293 0.930 . S
H3306 C3294 0.956 . S
H3307 C3294 0.961 . S
H3308 C3294 0.961 . S
H3309 C3295 0.958 . S
H3310 C3295 0.961 . S
H3311 C3295 0.960 . S
C3312 C3313 1.391 . S
C3312 C3314 1.394 . S
C3312 H3328 0.931 . S
C3313 C3312 1.391 . S
C3313 C3317 1.376 . S
C3314 C3312 1.394 . S
C3314 C3315 1.369 . S
C3314 C3318 1.531 . S
C3315 C3314 1.369 . S
C3315 C3316 1.410 . S
C3315 C3323 1.503 . S
C3316 C3315 1.410 . S
C3316 C3317 1.392 . S
C3316 C3319 1.511 . S
C3317 C3313 1.376 . S
C3317 C3316 1.392 . S
C3317 H3329 0.929 . S
C3318 C3314 1.531 . S
C3318 H3330 0.960 . S
C3318 H3331 0.962 . S
C3318 H3332 0.960 . S
C3319 C3316 1.511 . S
C3319 H3333 0.961 . S
C3319 H3334 0.961 . S
C3319 H3335 0.961 . S
C3320 C3321 1.370 . S
C3320 C3322 1.363 . S
C3320 H3336 0.931 . S
C3321 C3320 1.370 . S
C3321 C3325 1.408 . S
C3322 C3320 1.363 . S
C3322 C3323 1.370 . S
C3322 C3326 1.524 . S
C3323 C3315 1.503 . S
C3323 C3322 1.370 . S
C3323 C3324 1.403 . S
C3324 C3323 1.403 . S
C3324 C3325 1.404 . S
C3324 C3327 1.539 . S
C3325 C3321 1.408 . S
C3325 C3324 1.404 . S
C3325 H3337 0.930 . S
C3326 C3322 1.524 . S
C3326 H3338 0.956 . S
C3326 H3339 0.961 . S
C3326 H3340 0.961 . S
C3327 C3324 1.539 . S
C3327 H3341 0.958 . S
C3327 H3342 0.961 . S
C3327 H3343 0.960 . S
H3328 C3312 0.931 . S
H3329 C3317 0.929 . S
H3330 C3318 0.960 . S
H3331 C3318 0.962 . S
H3332 C3318 0.960 . S
H3333 C3319 0.961 . S
H3334 C3319 0.961 . S
H3335 C3319 0.961 . S
H3336 C3320 0.931 . S
H3337 C3325 0.930 . S
H3338 C3326 0.956 . S
H3339 C3326 0.961 . S
H3340 C3326 0.961 . S
H3341 C3327 0.958 . S
H3342 C3327 0.961 . S
H3343 C3327 0.960 . S
C3344 C3345 1.391 . S
C3344 C3346 1.394 . S
C3344 H3360 0.931 . S
C3345 C3344 1.391 . S
C3345 C3349 1.376 . S
C3346 C3344 1.394 . S
C3346 C3347 1.369 . S
C3346 C3350 1.531 . S
C3347 C3346 1.369 . S
C3347 C3348 1.410 . S
C3347 C3355 1.503 . S
C3348 C3347 1.410 . S
C3348 C3349 1.392 . S
C3348 C3351 1.511 . S
C3349 C3345 1.376 . S
C3349 C3348 1.392 . S
C3349 H3361 0.929 . S
C3350 C3346 1.531 . S
C3350 H3362 0.960 . S
C3350 H3363 0.962 . S
C3350 H3364 0.960 . S
C3351 C3348 1.511 . S
C3351 H3365 0.961 . S
C3351 H3366 0.961 . S
C3351 H3367 0.961 . S
C3352 C3353 1.370 . S
C3352 C3354 1.363 . S
C3352 H3368 0.931 . S
C3353 C3352 1.370 . S
C3353 C3357 1.408 . S
C3354 C3352 1.363 . S
C3354 C3355 1.370 . S
C3354 C3358 1.524 . S
C3355 C3347 1.503 . S
C3355 C3354 1.370 . S
C3355 C3356 1.403 . S
C3356 C3355 1.403 . S
C3356 C3357 1.404 . S
C3356 C3359 1.539 . S
C3357 C3353 1.408 . S
C3357 C3356 1.404 . S
C3357 H3369 0.930 . S
C3358 C3354 1.524 . S
C3358 H3370 0.956 . S
C3358 H3371 0.961 . S
C3358 H3372 0.961 . S
C3359 C3356 1.539 . S
C3359 H3373 0.958 . S
C3359 H3374 0.961 . S
C3359 H3375 0.960 . S
H3360 C3344 0.931 . S
H3361 C3349 0.929 . S
H3362 C3350 0.960 . S
H3363 C3350 0.962 . S
H3364 C3350 0.960 . S
H3365 C3351 0.961 . S
H3366 C3351 0.961 . S
H3367 C3351 0.961 . S
H3368 C3352 0.931 . S
H3369 C3357 0.930 . S
H3370 C3358 0.956 . S
H3371 C3358 0.961 . S
H3372 C3358 0.961 . S
H3373 C3359 0.958 . S
H3374 C3359 0.961 . S
H3375 C3359 0.960 . S
C3376 C3377 1.391 . S
C3376 C3378 1.394 . S
C3376 H3392 0.931 . S
C3377 C3376 1.391 . S
C3377 C3381 1.376 . S
C3378 C3376 1.394 . S
C3378 C3379 1.369 . S
C3378 C3382 1.531 . S
C3379 C3378 1.369 . S
C3379 C3380 1.410 . S
C3379 C3387 1.503 . S
C3380 C3379 1.410 . S
C3380 C3381 1.392 . S
C3380 C3383 1.511 . S
C3381 C3377 1.376 . S
C3381 C3380 1.392 . S
C3381 H3393 0.929 . S
C3382 C3378 1.531 . S
C3382 H3394 0.960 . S
C3382 H3395 0.962 . S
C3382 H3396 0.960 . S
C3383 C3380 1.511 . S
C3383 H3397 0.961 . S
C3383 H3398 0.961 . S
C3383 H3399 0.961 . S
C3384 C3385 1.370 . S
C3384 C3386 1.363 . S
C3384 H3400 0.931 . S
C3385 C3384 1.370 . S
C3385 C3389 1.408 . S
C3386 C3384 1.363 . S
C3386 C3387 1.370 . S
C3386 C3390 1.524 . S
C3387 C3379 1.503 . S
C3387 C3386 1.370 . S
C3387 C3388 1.403 . S
C3388 C3387 1.403 . S
C3388 C3389 1.404 . S
C3388 C3391 1.539 . S
C3389 C3385 1.408 . S
C3389 C3388 1.404 . S
C3389 H3401 0.930 . S
C3390 C3386 1.524 . S
C3390 H3402 0.956 . S
C3390 H3403 0.961 . S
C3390 H3404 0.961 . S
C3391 C3388 1.539 . S
C3391 H3405 0.958 . S
C3391 H3406 0.961 . S
C3391 H3407 0.960 . S
H3392 C3376 0.931 . S
H3393 C3381 0.929 . S
H3394 C3382 0.960 . S
H3395 C3382 0.962 . S
H3396 C3382 0.960 . S
H3397 C3383 0.961 . S
H3398 C3383 0.961 . S
H3399 C3383 0.961 . S
H3400 C3384 0.931 . S
H3401 C3389 0.930 . S
H3402 C3390 0.956 . S
H3403 C3390 0.961 . S
H3404 C3390 0.961 . S
H3405 C3391 0.958 . S
H3406 C3391 0.961 . S
H3407 C3391 0.960 . S
C3408 C3409 1.391 . S
C3408 C3410 1.394 . S
C3408 H3424 0.931 . S
C3409 C3408 1.391 . S
C3409 C3413 1.376 . S
C3410 C3408 1.394 . S
C3410 C3411 1.369 . S
C3410 C3414 1.531 . S
C3411 C3410 1.369 . S
C3411 C3412 1.410 . S
C3411 C3419 1.503 . S
C3412 C3411 1.410 . S
C3412 C3413 1.392 . S
C3412 C3415 1.511 . S
C3413 C3409 1.376 . S
C3413 C3412 1.392 . S
C3413 H3425 0.929 . S
C3414 C3410 1.531 . S
C3414 H3426 0.960 . S
C3414 H3427 0.962 . S
C3414 H3428 0.960 . S
C3415 C3412 1.511 . S
C3415 H3429 0.961 . S
C3415 H3430 0.961 . S
C3415 H3431 0.961 . S
C3416 C3417 1.370 . S
C3416 C3418 1.363 . S
C3416 H3432 0.931 1_556 S
C3417 C3416 1.370 . S
C3417 C3421 1.408 . S
C3418 C3416 1.363 . S
C3418 C3419 1.370 . S
C3418 C3422 1.514 1_556 S
C3419 C3411 1.503 . S
C3419 C3418 1.370 . S
C3419 C3420 1.403 . S
C3420 C3419 1.403 . S
C3420 C3421 1.404 . S
C3420 C3423 1.539 . S
C3421 C3417 1.408 . S
C3421 C3420 1.404 . S
C3421 H3433 0.930 . S
C3422 C3418 1.514 1_554 S
C3422 H3434 0.965 . S
C3422 H3435 0.941 1_554 S
C3422 H3436 0.983 . S
C3423 C3420 1.539 . S
C3423 H3437 0.958 . S
C3423 H3438 0.961 . S
C3423 H3439 0.960 . S
H3424 C3408 0.931 . S
H3425 C3413 0.929 . S
H3426 C3414 0.960 . S
H3427 C3414 0.962 . S
H3428 C3414 0.960 . S
H3429 C3415 0.961 . S
H3430 C3415 0.961 . S
H3431 C3415 0.961 . S
H3432 C3416 0.931 1_554 S
H3433 C3421 0.930 . S
H3434 C3422 0.965 . S
H3435 C3422 0.941 1_556 S
H3436 C3422 0.983 . S
H3437 C3423 0.958 . S
H3438 C3423 0.961 . S
H3439 C3423 0.960 . S
C3440 C3441 1.391 . S
C3440 C3442 1.394 . S
C3440 H3456 0.931 . S
C3441 C3440 1.391 . S
C3441 C3445 1.376 . S
C3442 C3440 1.394 . S
C3442 C3443 1.369 . S
C3442 C3446 1.531 . S
C3443 C3442 1.369 . S
C3443 C3444 1.410 . S
C3443 C3451 1.503 . S
C3444 C3443 1.410 . S
C3444 C3445 1.392 . S
C3444 C3447 1.511 . S
C3445 C3441 1.376 . S
C3445 C3444 1.392 . S
C3445 H3457 0.929 . S
C3446 C3442 1.531 . S
C3446 H3458 0.960 . S
C3446 H3459 0.962 . S
C3446 H3460 0.960 . S
C3447 C3444 1.511 . S
C3447 H3461 0.961 . S
C3447 H3462 0.961 . S
C3447 H3463 0.961 . S
C3448 C3449 1.370 . S
C3448 C3450 1.363 . S
C3448 H3464 0.931 . S
C3449 C3448 1.370 . S
C3449 C3453 1.408 . S
C3450 C3448 1.363 . S
C3450 C3451 1.370 . S
C3450 C3454 1.524 . S
C3451 C3443 1.503 . S
C3451 C3450 1.370 . S
C3451 C3452 1.403 . S
C3452 C3451 1.403 . S
C3452 C3453 1.404 . S
C3452 C3455 1.539 . S
C3453 C3449 1.408 . S
C3453 C3452 1.404 . S
C3453 H3465 0.930 . S
C3454 C3450 1.524 . S
C3454 H3466 0.956 . S
C3454 H3467 0.961 . S
C3454 H3468 0.961 . S
C3455 C3452 1.539 . S
C3455 H3469 0.958 . S
C3455 H3470 0.961 . S
C3455 H3471 0.960 . S
H3456 C3440 0.931 . S
H3457 C3445 0.929 . S
H3458 C3446 0.960 . S
H3459 C3446 0.962 . S
H3460 C3446 0.960 . S
H3461 C3447 0.961 . S
H3462 C3447 0.961 . S
H3463 C3447 0.961 . S
H3464 C3448 0.931 . S
H3465 C3453 0.930 . S
H3466 C3454 0.956 . S
H3467 C3454 0.961 . S
H3468 C3454 0.961 . S
H3469 C3455 0.958 . S
H3470 C3455 0.961 . S
H3471 C3455 0.960 . S
C3472 C3473 1.391 . S
C3472 C3474 1.394 . S
C3472 H3488 0.931 . S
C3473 C3472 1.391 . S
C3473 C3477 1.376 . S
C3474 C3472 1.394 . S
C3474 C3475 1.369 . S
C3474 C3478 1.531 . S
C3475 C3474 1.369 . S
C3475 C3476 1.410 . S
C3475 C3483 1.503 . S
C3476 C3475 1.410 . S
C3476 C3477 1.392 . S
C3476 C3479 1.511 1_455 S
C3477 C3473 1.376 . S
C3477 C3476 1.392 . S
C3477 H3489 0.929 1_455 S
C3478 C3474 1.531 . S
C3478 H3490 0.960 . S
C3478 H3491 0.962 . S
C3478 H3492 0.960 . S
C3479 C3476 1.511 1_655 S
C3479 H3493 0.961 . S
C3479 H3494 0.961 . S
C3479 H3495 0.961 . S
C3480 C3481 1.370 . S
C3480 C3482 1.363 . S
C3480 H3496 0.931 . S
C3481 C3480 1.370 . S
C3481 C3485 1.408 . S
C3482 C3480 1.363 . S
C3482 C3483 1.370 . S
C3482 C3486 1.524 . S
C3483 C3475 1.503 . S
C3483 C3482 1.370 . S
C3483 C3484 1.403 . S
C3484 C3483 1.403 . S
C3484 C3485 1.404 . S
C3484 C3487 1.539 . S
C3485 C3481 1.408 . S
C3485 C3484 1.404 . S
C3485 H3497 0.930 . S
C3486 C3482 1.524 . S
C3486 H3498 0.956 . S
C3486 H3499 0.961 . S
C3486 H3500 0.961 . S
C3487 C3484 1.539 . S
C3487 H3501 0.958 . S
C3487 H3502 1.009 . S
C3487 H3503 0.960 . S
H3488 C3472 0.931 . S
H3489 C3477 0.929 1_655 S
H3490 C3478 0.960 . S
H3491 C3478 0.962 . S
H3492 C3478 0.960 . S
H3493 C3479 0.961 . S
H3494 C3479 0.961 . S
H3495 C3479 0.961 . S
H3496 C3480 0.931 . S
H3497 C3485 0.930 . S
H3498 C3486 0.956 . S
H3499 C3486 0.961 . S
H3500 C3486 0.961 . S
H3501 C3487 0.958 . S
H3502 C3487 1.009 . S
H3503 C3487 0.960 . S
C3504 C3505 1.391 . S
C3504 C3506 1.394 . S
C3504 H3520 0.931 . S
C3505 C3504 1.391 . S
C3505 C3509 1.376 . S
C3506 C3504 1.394 . S
C3506 C3507 1.369 . S
C3506 C3510 1.531 . S
C3507 C3506 1.369 . S
C3507 C3508 1.410 . S
C3507 C3515 1.503 . S
C3508 C3507 1.410 . S
C3508 C3509 1.392 . S
C3508 C3511 1.511 . S
C3509 C3505 1.376 . S
C3509 C3508 1.392 . S
C3509 H3521 0.929 . S
C3510 C3506 1.531 . S
C3510 H3522 0.960 . S
C3510 H3523 0.962 . S
C3510 H3524 0.960 . S
C3511 C3508 1.511 . S
C3511 H3525 0.961 . S
C3511 H3526 0.961 . S
C3511 H3527 0.961 . S
C3512 C3513 1.370 . S
C3512 C3514 1.363 . S
C3512 H3528 0.931 . S
C3513 C3512 1.370 . S
C3513 C3517 1.408 . S
C3514 C3512 1.363 . S
C3514 C3515 1.370 . S
C3514 C3518 1.524 . S
C3515 C3507 1.503 . S
C3515 C3514 1.370 . S
C3515 C3516 1.403 . S
C3516 C3515 1.403 . S
C3516 C3517 1.404 . S
C3516 C3519 1.539 . S
C3517 C3513 1.408 . S
C3517 C3516 1.404 . S
C3517 H3529 0.930 . S
C3518 C3514 1.524 . S
C3518 H3530 0.956 . S
C3518 H3531 0.961 . S
C3518 H3532 0.961 . S
C3519 C3516 1.539 . S
C3519 H3533 0.958 . S
C3519 H3534 0.961 . S
C3519 H3535 0.960 . S
H3520 C3504 0.931 . S
H3521 C3509 0.929 . S
H3522 C3510 0.960 . S
H3523 C3510 0.962 . S
H3524 C3510 0.960 . S
H3525 C3511 0.961 . S
H3526 C3511 0.961 . S
H3527 C3511 0.961 . S
H3528 C3512 0.931 . S
H3529 C3517 0.930 . S
H3530 C3518 0.956 . S
H3531 C3518 0.961 . S
H3532 C3518 0.961 . S
H3533 C3519 0.958 . S
H3534 C3519 0.961 . S
H3535 C3519 0.960 . S
C3536 C3537 1.391 . S
C3536 C3538 1.394 . S
C3536 H3552 0.931 . S
C3537 C3536 1.391 . S
C3537 C3541 1.376 . S
C3538 C3536 1.394 . S
C3538 C3539 1.369 . S
C3538 C3542 1.531 . S
C3539 C3538 1.369 . S
C3539 C3540 1.410 . S
C3539 C3547 1.503 . S
C3540 C3539 1.410 . S
C3540 C3541 1.392 . S
C3540 C3543 1.511 . S
C3541 C3537 1.376 . S
C3541 C3540 1.392 . S
C3541 H3553 0.929 . S
C3542 C3538 1.531 . S
C3542 H3554 0.960 . S
C3542 H3555 0.962 . S
C3542 H3556 0.960 . S
C3543 C3540 1.511 . S
C3543 H3557 0.961 . S
C3543 H3558 0.961 . S
C3543 H3559 0.961 . S
C3544 C3545 1.370 . S
C3544 C3546 1.363 . S
C3544 H3560 0.931 . S
C3545 C3544 1.370 . S
C3545 C3549 1.408 . S
C3546 C3544 1.363 . S
C3546 C3547 1.370 . S
C3546 C3550 1.524 . S
C3547 C3539 1.503 . S
C3547 C3546 1.370 . S
C3547 C3548 1.403 . S
C3548 C3547 1.403 . S
C3548 C3549 1.404 . S
C3548 C3551 1.539 . S
C3549 C3545 1.408 . S
C3549 C3548 1.404 . S
C3549 H3561 0.930 . S
C3550 C3546 1.524 . S
C3550 H3562 0.956 . S
C3550 H3563 0.961 . S
C3550 H3564 0.961 . S
C3551 C3548 1.539 . S
C3551 H3565 0.958 . S
C3551 H3566 0.961 . S
C3551 H3567 0.960 . S
H3552 C3536 0.931 . S
H3553 C3541 0.929 . S
H3554 C3542 0.960 . S
H3555 C3542 0.962 . S
H3556 C3542 0.960 . S
H3557 C3543 0.961 . S
H3558 C3543 0.961 . S
H3559 C3543 0.961 . S
H3560 C3544 0.931 . S
H3561 C3549 0.930 . S
H3562 C3550 0.956 . S
H3563 C3550 0.961 . S
H3564 C3550 0.961 . S
H3565 C3551 0.958 . S
H3566 C3551 0.961 . S
H3567 C3551 0.960 . S
C3568 C3569 1.391 . S
C3568 C3570 1.394 . S
C3568 H3584 0.931 . S
C3569 C3568 1.391 . S
C3569 C3573 1.376 . S
C3570 C3568 1.394 . S
C3570 C3571 1.369 . S
C3570 C3574 1.531 . S
C3571 C3570 1.369 . S
C3571 C3572 1.410 . S
C3571 C3579 1.503 . S
C3572 C3571 1.410 . S
C3572 C3573 1.392 . S
C3572 C3575 1.511 . S
C3573 C3569 1.376 . S
C3573 C3572 1.392 . S
C3573 H3585 0.929 . S
C3574 C3570 1.531 . S
C3574 H3586 0.960 . S
C3574 H3587 0.962 . S
C3574 H3588 0.960 . S
C3575 C3572 1.511 . S
C3575 H3589 0.961 . S
C3575 H3590 0.961 . S
C3575 H3591 0.961 . S
C3576 C3577 1.370 . S
C3576 C3578 1.363 . S
C3576 H3592 0.931 . S
C3577 C3576 1.370 . S
C3577 C3581 1.408 . S
C3578 C3576 1.363 . S
C3578 C3579 1.370 . S
C3578 C3582 1.524 . S
C3579 C3571 1.503 . S
C3579 C3578 1.370 . S
C3579 C3580 1.403 . S
C3580 C3579 1.403 . S
C3580 C3581 1.404 . S
C3580 C3583 1.539 . S
C3581 C3577 1.408 . S
C3581 C3580 1.404 . S
C3581 H3593 0.930 . S
C3582 C3578 1.524 . S
C3582 H3594 0.956 . S
C3582 H3595 0.961 . S
C3582 H3596 0.961 . S
C3583 C3580 1.539 . S
C3583 H3597 0.958 . S
C3583 H3598 0.961 . S
C3583 H3599 0.960 . S
H3584 C3568 0.931 . S
H3585 C3573 0.929 . S
H3586 C3574 0.960 . S
H3587 C3574 0.962 . S
H3588 C3574 0.960 . S
H3589 C3575 0.961 . S
H3590 C3575 0.961 . S
H3591 C3575 0.961 . S
H3592 C3576 0.931 . S
H3593 C3581 0.930 . S
H3594 C3582 0.956 . S
H3595 C3582 0.961 . S
H3596 C3582 0.961 . S
H3597 C3583 0.958 . S
H3598 C3583 0.961 . S
H3599 C3583 0.960 . S
C3600 C3601 1.391 . S
C3600 C3602 1.394 . S
C3600 H3616 0.931 . S
C3601 C3600 1.391 . S
C3601 C3605 1.376 1_655 S
C3602 C3600 1.394 . S
C3602 C3603 1.369 1_655 S
C3602 C3606 1.531 . S
C3603 C3602 1.369 1_455 S
C3603 C3604 1.410 . S
C3603 C3611 1.503 . S
C3604 C3603 1.410 . S
C3604 C3605 1.392 . S
C3604 C3607 1.511 . S
C3605 C3601 1.376 1_455 S
C3605 C3604 1.392 . S
C3605 H3617 0.929 . S
C3606 C3602 1.531 . S
C3606 H3618 0.960 . S
C3606 H3619 0.962 . S
C3606 H3620 0.960 . S
C3607 C3604 1.511 . S
C3607 H3621 0.961 . S
C3607 H3622 0.961 . S
C3607 H3623 0.961 . S
C3608 C3609 1.370 . S
C3608 C3610 1.363 . S
C3608 H3624 0.931 . S
C3609 C3608 1.370 . S
C3609 C3613 1.408 . S
C3610 C3608 1.363 . S
C3610 C3611 1.370 . S
C3610 C3614 1.524 . S
C3611 C3603 1.503 . S
C3611 C3610 1.370 . S
C3611 C3612 1.403 . S
C3612 C3611 1.403 . S
C3612 C3613 1.404 . S
C3612 C3615 1.539 . S
C3613 C3609 1.408 . S
C3613 C3612 1.404 . S
C3613 H3625 0.930 . S
C3614 C3610 1.524 . S
C3614 H3626 0.956 1_455 S
C3614 H3627 0.961 . S
C3614 H3628 0.961 . S
C3615 C3612 1.539 . S
C3615 H3629 0.958 1_455 S
C3615 H3630 0.961 . S
C3615 H3631 0.960 . S
H3616 C3600 0.931 . S
H3617 C3605 0.929 . S
H3618 C3606 0.960 . S
H3619 C3606 0.962 . S
H3620 C3606 0.960 . S
H3621 C3607 0.961 . S
H3622 C3607 0.961 . S
H3623 C3607 0.961 . S
H3624 C3608 0.931 . S
H3625 C3613 0.930 . S
H3626 C3614 0.956 1_655 S
H3627 C3614 0.961 . S
H3628 C3614 0.961 . S
H3629 C3615 0.958 1_655 S
H3630 C3615 0.961 . S
H3631 C3615 0.960 . S
C3632 C3633 1.391 . S
C3632 C3634 1.394 . S
C3632 H3648 0.931 . S
C3633 C3632 1.391 . S
C3633 C3637 1.376 . S
C3634 C3632 1.394 . S
C3634 C3635 1.369 . S
C3634 C3638 1.531 . S
C3635 C3634 1.369 . S
C3635 C3636 1.410 . S
C3635 C3643 1.503 . S
C3636 C3635 1.410 . S
C3636 C3637 1.392 . S
C3636 C3639 1.511 . S
C3637 C3633 1.376 . S
C3637 C3636 1.392 . S
C3637 H3649 0.929 . S
C3638 C3634 1.531 . S
C3638 H3650 0.960 . S
C3638 H3651 0.962 . S
C3638 H3652 0.960 . S
C3639 C3636 1.511 . S
C3639 H3653 0.961 . S
C3639 H3654 0.961 . S
C3639 H3655 0.961 . S
C3640 C3641 1.370 . S
C3640 C3642 1.363 . S
C3640 H3656 0.931 . S
C3641 C3640 1.370 . S
C3641 C3645 1.408 . S
C3642 C3640 1.363 . S
C3642 C3643 1.370 . S
C3642 C3646 1.524 . S
C3643 C3635 1.503 . S
C3643 C3642 1.370 . S
C3643 C3644 1.403 . S
C3644 C3643 1.403 . S
C3644 C3645 1.404 . S
C3644 C3647 1.539 . S
C3645 C3641 1.408 . S
C3645 C3644 1.404 . S
C3645 H3657 0.930 . S
C3646 C3642 1.524 . S
C3646 H3658 0.956 . S
C3646 H3659 0.961 . S
C3646 H3660 0.961 . S
C3647 C3644 1.539 . S
C3647 H3661 0.958 . S
C3647 H3662 0.961 . S
C3647 H3663 0.960 . S
H3648 C3632 0.931 . S
H3649 C3637 0.929 . S
H3650 C3638 0.960 . S
H3651 C3638 0.962 . S
H3652 C3638 0.960 . S
H3653 C3639 0.961 . S
H3654 C3639 0.961 . S
H3655 C3639 0.961 . S
H3656 C3640 0.931 . S
H3657 C3645 0.930 . S
H3658 C3646 0.956 . S
H3659 C3646 0.961 . S
H3660 C3646 0.961 . S
H3661 C3647 0.958 . S
H3662 C3647 0.961 . S
H3663 C3647 0.960 . S
C3664 C3665 1.391 . S
C3664 C3666 1.394 . S
C3664 H3680 0.931 . S
C3665 C3664 1.391 . S
C3665 C3669 1.376 . S
C3666 C3664 1.394 . S
C3666 C3667 1.369 . S
C3666 C3670 1.531 . S
C3667 C3666 1.369 . S
C3667 C3668 1.410 . S
C3667 C3675 1.503 . S
C3668 C3667 1.410 . S
C3668 C3669 1.392 . S
C3668 C3671 1.511 . S
C3669 C3665 1.376 . S
C3669 C3668 1.392 . S
C3669 H3681 0.929 . S
C3670 C3666 1.531 . S
C3670 H3682 0.960 . S
C3670 H3683 0.962 . S
C3670 H3684 0.960 . S
C3671 C3668 1.511 . S
C3671 H3685 0.961 . S
C3671 H3686 0.961 . S
C3671 H3687 0.961 . S
C3672 C3673 1.370 . S
C3672 C3674 1.363 . S
C3672 H3688 0.931 . S
C3673 C3672 1.370 . S
C3673 C3677 1.408 . S
C3674 C3672 1.363 . S
C3674 C3675 1.370 . S
C3674 C3678 1.524 . S
C3675 C3667 1.503 . S
C3675 C3674 1.370 . S
C3675 C3676 1.403 . S
C3676 C3675 1.403 . S
C3676 C3677 1.404 . S
C3676 C3679 1.539 . S
C3677 C3673 1.408 . S
C3677 C3676 1.404 . S
C3677 H3689 0.930 . S
C3678 C3674 1.524 . S
C3678 H3690 0.956 . S
C3678 H3691 0.961 . S
C3678 H3692 0.961 . S
C3679 C3676 1.539 . S
C3679 H3693 0.958 . S
C3679 H3694 0.961 . S
C3679 H3695 0.960 . S
H3680 C3664 0.931 . S
H3681 C3669 0.929 . S
H3682 C3670 0.960 . S
H3683 C3670 0.962 . S
H3684 C3670 0.960 . S
H3685 C3671 0.961 . S
H3686 C3671 0.961 . S
H3687 C3671 0.961 . S
H3688 C3672 0.931 . S
H3689 C3677 0.930 . S
H3690 C3678 0.956 . S
H3691 C3678 0.961 . S
H3692 C3678 0.961 . S
H3693 C3679 0.958 . S
H3694 C3679 0.961 . S
H3695 C3679 0.960 . S
C3696 C3697 1.391 . S
C3696 C3698 1.394 . S
C3696 H3712 0.931 . S
C3697 C3696 1.391 . S
C3697 C3701 1.376 . S
C3698 C3696 1.394 . S
C3698 C3699 1.369 . S
C3698 C3702 1.531 . S
C3699 C3698 1.369 . S
C3699 C3700 1.410 . S
C3699 C3707 1.503 . S
C3700 C3699 1.410 . S
C3700 C3701 1.392 . S
C3700 C3703 1.511 . S
C3701 C3697 1.376 . S
C3701 C3700 1.392 . S
C3701 H3713 0.929 . S
C3702 C3698 1.531 . S
C3702 H3714 0.960 . S
C3702 H3715 0.962 . S
C3702 H3716 0.960 . S
C3703 C3700 1.511 . S
C3703 H3717 0.961 . S
C3703 H3718 0.961 . S
C3703 H3719 0.961 . S
C3704 C3705 1.370 . S
C3704 C3706 1.363 . S
C3704 H3720 0.931 . S
C3705 C3704 1.370 . S
C3705 C3709 1.408 . S
C3706 C3704 1.363 . S
C3706 C3707 1.370 . S
C3706 C3710 1.524 . S
C3707 C3699 1.503 . S
C3707 C3706 1.370 . S
C3707 C3708 1.403 . S
C3708 C3707 1.403 . S
C3708 C3709 1.404 . S
C3708 C3711 1.539 . S
C3709 C3705 1.408 . S
C3709 C3708 1.404 . S
C3709 H3721 0.930 . S
C3710 C3706 1.524 . S
C3710 H3722 0.956 . S
C3710 H3723 0.961 . S
C3710 H3724 0.961 . S
C3711 C3708 1.539 . S
C3711 H3725 0.958 . S
C3711 H3726 0.961 . S
C3711 H3727 0.960 . S
H3712 C3696 0.931 . S
H3713 C3701 0.929 . S
H3714 C3702 0.960 . S
H3715 C3702 0.962 . S
H3716 C3702 0.960 . S
H3717 C3703 0.961 . S
H3718 C3703 0.961 . S
H3719 C3703 0.961 . S
H3720 C3704 0.931 . S
H3721 C3709 0.930 . S
H3722 C3710 0.956 . S
H3723 C3710 0.961 . S
H3724 C3710 0.961 . S
H3725 C3711 0.958 . S
H3726 C3711 0.961 . S
H3727 C3711 0.960 . S
C3728 C3729 1.391 . S
C3728 C3730 1.394 . S
C3728 H3744 0.931 . S
C3729 C3728 1.391 . S
C3729 C3733 1.376 . S
C3730 C3728 1.394 . S
C3730 C3731 1.369 . S
C3730 C3734 1.531 1_655 S
C3731 C3730 1.369 . S
C3731 C3732 1.410 . S
C3731 C3739 1.503 . S
C3732 C3731 1.410 . S
C3732 C3733 1.392 . S
C3732 C3735 1.511 . S
C3733 C3729 1.376 . S
C3733 C3732 1.392 . S
C3733 H3745 0.929 . S
C3734 C3730 1.531 1_455 S
C3734 H3746 0.960 . S
C3734 H3747 0.962 1_455 S
C3734 H3748 0.960 . S
C3735 C3732 1.511 . S
C3735 H3749 0.961 . S
C3735 H3750 0.961 . S
C3735 H3751 0.961 . S
C3736 C3737 1.370 . S
C3736 C3738 1.363 . S
C3736 H3752 0.931 . S
C3737 C3736 1.370 . S
C3737 C3741 1.408 1_655 S
C3738 C3736 1.363 . S
C3738 C3739 1.370 . S
C3738 C3742 1.524 . S
C3739 C3731 1.503 . S
C3739 C3738 1.370 . S
C3739 C3740 1.403 1_655 S
C3740 C3739 1.403 1_455 S
C3740 C3741 1.404 . S
C3740 C3743 1.539 . S
C3741 C3737 1.408 1_455 S
C3741 C3740 1.404 . S
C3741 H3753 0.930 . S
C3742 C3738 1.524 . S
C3742 H3754 0.956 . S
C3742 H3755 0.961 . S
C3742 H3756 0.961 . S
C3743 C3740 1.539 . S
C3743 H3757 0.958 . S
C3743 H3758 0.961 . S
C3743 H3759 0.960 . S
H3744 C3728 0.931 . S
H3745 C3733 0.929 . S
H3746 C3734 0.960 . S
H3747 C3734 0.962 1_655 S
H3748 C3734 0.960 . S
H3749 C3735 0.961 . S
H3750 C3735 0.961 . S
H3751 C3735 0.961 . S
H3752 C3736 0.931 . S
H3753 C3741 0.930 . S
H3754 C3742 0.956 . S
H3755 C3742 0.961 . S
H3756 C3742 0.961 . S
H3757 C3743 0.958 . S
H3758 C3743 0.961 . S
H3759 C3743 0.960 . S
C3760 C3761 1.391 . S
C3760 C3762 1.394 . S
C3760 H3776 0.931 . S
C3761 C3760 1.391 . S
C3761 C3765 1.376 . S
C3762 C3760 1.394 . S
C3762 C3763 1.369 . S
C3762 C3766 1.531 . S
C3763 C3762 1.369 . S
C3763 C3764 1.410 . S
C3763 C3771 1.503 . S
C3764 C3763 1.410 . S
C3764 C3765 1.392 . S
C3764 C3767 1.511 . S
C3765 C3761 1.376 . S
C3765 C3764 1.392 . S
C3765 H3777 0.929 . S
C3766 C3762 1.531 . S
C3766 H3778 0.960 . S
C3766 H3779 0.962 . S
C3766 H3780 0.960 . S
C3767 C3764 1.511 . S
C3767 H3781 0.961 . S
C3767 H3782 0.961 . S
C3767 H3783 0.961 . S
C3768 C3769 1.370 . S
C3768 C3770 1.363 . S
C3768 H3784 0.931 . S
C3769 C3768 1.370 . S
C3769 C3773 1.408 . S
C3770 C3768 1.363 . S
C3770 C3771 1.370 . S
C3770 C3774 1.524 . S
C3771 C3763 1.503 . S
C3771 C3770 1.370 . S
C3771 C3772 1.403 . S
C3772 C3771 1.403 . S
C3772 C3773 1.404 . S
C3772 C3775 1.539 . S
C3773 C3769 1.408 . S
C3773 C3772 1.404 . S
C3773 H3785 0.930 . S
C3774 C3770 1.524 . S
C3774 H3786 0.956 . S
C3774 H3787 0.961 . S
C3774 H3788 0.961 . S
C3775 C3772 1.539 . S
C3775 H3789 0.958 . S
C3775 H3790 0.961 . S
C3775 H3791 0.960 . S
H3776 C3760 0.931 . S
H3777 C3765 0.929 . S
H3778 C3766 0.960 . S
H3779 C3766 0.962 . S
H3780 C3766 0.960 . S
H3781 C3767 0.961 . S
H3782 C3767 0.961 . S
H3783 C3767 0.961 . S
H3784 C3768 0.931 . S
H3785 C3773 0.930 . S
H3786 C3774 0.956 . S
H3787 C3774 0.961 . S
H3788 C3774 0.961 . S
H3789 C3775 0.958 . S
H3790 C3775 0.961 . S
H3791 C3775 0.960 . S
C3792 C3793 1.391 . S
C3792 C3794 1.394 . S
C3792 H3808 0.931 . S
C3793 C3792 1.391 . S
C3793 C3797 1.376 . S
C3794 C3792 1.394 . S
C3794 C3795 1.369 . S
C3794 C3798 1.531 . S
C3795 C3794 1.369 . S
C3795 C3796 1.410 . S
C3795 C3803 1.503 . S
C3796 C3795 1.410 . S
C3796 C3797 1.392 . S
C3796 C3799 1.511 . S
C3797 C3793 1.376 . S
C3797 C3796 1.392 . S
C3797 H3809 0.929 . S
C3798 C3794 1.531 . S
C3798 H3810 0.960 . S
C3798 H3811 0.962 . S
C3798 H3812 0.960 . S
C3799 C3796 1.511 . S
C3799 H3813 0.961 . S
C3799 H3814 0.961 . S
C3799 H3815 0.961 . S
C3800 C3801 1.370 . S
C3800 C3802 1.363 . S
C3800 H3816 0.931 . S
C3801 C3800 1.370 . S
C3801 C3805 1.408 . S
C3802 C3800 1.363 . S
C3802 C3803 1.370 . S
C3802 C3806 1.524 . S
C3803 C3795 1.503 . S
C3803 C3802 1.370 . S
C3803 C3804 1.403 . S
C3804 C3803 1.403 . S
C3804 C3805 1.404 . S
C3804 C3807 1.539 . S
C3805 C3801 1.408 . S
C3805 C3804 1.404 . S
C3805 H3817 0.930 . S
C3806 C3802 1.524 . S
C3806 H3818 0.956 . S
C3806 H3819 0.961 . S
C3806 H3820 0.961 . S
C3807 C3804 1.539 . S
C3807 H3821 0.958 . S
C3807 H3822 0.961 . S
C3807 H3823 0.960 . S
H3808 C3792 0.931 . S
H3809 C3797 0.929 . S
H3810 C3798 0.960 . S
H3811 C3798 0.962 . S
H3812 C3798 0.960 . S
H3813 C3799 0.961 . S
H3814 C3799 0.961 . S
H3815 C3799 0.961 . S
H3816 C3800 0.931 . S
H3817 C3805 0.930 . S
H3818 C3806 0.956 . S
H3819 C3806 0.961 . S
H3820 C3806 0.961 . S
H3821 C3807 0.958 . S
H3822 C3807 0.961 . S
H3823 C3807 0.960 . S
C3824 C3825 1.391 . S
C3824 C3826 1.394 . S
C3824 H3840 0.931 . S
C3825 C3824 1.391 . S
C3825 C3829 1.376 . S
C3826 C3824 1.394 . S
C3826 C3827 1.369 . S
C3826 C3830 1.531 . S
C3827 C3826 1.369 . S
C3827 C3828 1.410 . S
C3827 C3835 1.503 1_565 S
C3828 C3827 1.410 . S
C3828 C3829 1.392 . S
C3828 C3831 1.511 1_565 S
C3829 C3825 1.376 . S
C3829 C3828 1.392 . S
C3829 H3841 0.929 . S
C3830 C3826 1.531 . S
C3830 H3842 0.960 . S
C3830 H3843 0.962 1_565 S
C3830 H3844 0.960 . S
C3831 C3828 1.511 1_545 S
C3831 H3845 0.961 . S
C3831 H3846 0.961 . S
C3831 H3847 0.961 1_545 S
C3832 C3833 1.370 . S
C3832 C3834 1.363 . S
C3832 H3848 0.931 . S
C3833 C3832 1.370 . S
C3833 C3837 1.408 . S
C3834 C3832 1.363 . S
C3834 C3835 1.370 . S
C3834 C3838 1.524 . S
C3835 C3827 1.503 1_545 S
C3835 C3834 1.370 . S
C3835 C3836 1.428 . S
C3836 C3835 1.428 . S
C3836 C3837 1.420 . S
C3836 C3839 1.499 1_545 S
C3837 C3833 1.408 . S
C3837 C3836 1.420 . S
C3837 H3849 0.930 . S
C3838 C3834 1.524 . S
C3838 H3850 0.956 . S
C3838 H3851 0.961 . S
C3838 H3852 0.961 . S
C3839 C3836 1.499 1_565 S
C3839 H3853 0.958 . S
C3839 H3854 0.961 . S
C3839 H3855 0.960 . S
H3840 C3824 0.931 . S
H3841 C3829 0.929 . S
H3842 C3830 0.960 . S
H3843 C3830 0.962 1_545 S
H3844 C3830 0.960 . S
H3845 C3831 0.961 . S
H3846 C3831 0.961 . S
H3847 C3831 0.961 1_565 S
H3848 C3832 0.931 . S
H3849 C3837 0.930 . S
H3850 C3838 0.956 . S
H3851 C3838 0.961 . S
H3852 C3838 0.961 . S
H3853 C3839 0.958 . S
H3854 C3839 0.961 . S
H3855 C3839 0.960 . S
C3856 C3857 1.391 . S
C3856 C3858 1.394 . S
C3856 H3872 0.931 . S
C3857 C3856 1.391 . S
C3857 C3861 1.376 . S
C3858 C3856 1.394 . S
C3858 C3859 1.369 . S
C3858 C3862 1.531 . S
C3859 C3858 1.369 . S
C3859 C3860 1.410 . S
C3859 C3867 1.503 . S
C3860 C3859 1.410 . S
C3860 C3861 1.392 . S
C3860 C3863 1.511 . S
C3861 C3857 1.376 . S
C3861 C3860 1.392 . S
C3861 H3873 0.929 . S
C3862 C3858 1.531 . S
C3862 H3874 0.960 . S
C3862 H3875 0.962 . S
C3862 H3876 0.960 . S
C3863 C3860 1.511 . S
C3863 H3877 0.961 . S
C3863 H3878 0.961 . S
C3863 H3879 0.961 . S
C3864 C3865 1.370 . S
C3864 C3866 1.363 . S
C3864 H3880 0.931 . S
C3865 C3864 1.370 . S
C3865 C3869 1.408 . S
C3866 C3864 1.363 . S
C3866 C3867 1.370 . S
C3866 C3870 1.524 . S
C3867 C3859 1.503 . S
C3867 C3866 1.370 . S
C3867 C3868 1.403 . S
C3868 C3867 1.403 . S
C3868 C3869 1.404 . S
C3868 C3871 1.539 . S
C3869 C3865 1.408 . S
C3869 C3868 1.404 . S
C3869 H3881 0.930 . S
C3870 C3866 1.524 . S
C3870 H3882 0.956 . S
C3870 H3883 0.961 . S
C3870 H3884 0.961 . S
C3871 C3868 1.539 . S
C3871 H3885 0.958 . S
C3871 H3886 0.961 . S
C3871 H3887 0.960 . S
H3872 C3856 0.931 . S
H3873 C3861 0.929 . S
H3874 C3862 0.960 . S
H3875 C3862 0.962 . S
H3876 C3862 0.960 . S
H3877 C3863 0.961 . S
H3878 C3863 0.961 . S
H3879 C3863 0.961 . S
H3880 C3864 0.931 . S
H3881 C3869 0.930 . S
H3882 C3870 0.956 . S
H3883 C3870 0.961 . S
H3884 C3870 0.961 . S
H3885 C3871 0.958 . S
H3886 C3871 0.961 . S
H3887 C3871 0.960 . S
C3888 C3889 1.391 1_554 S
C3888 C3890 1.394 . S
C3888 H3904 0.931 . S
C3889 C3888 1.391 1_556 S
C3889 C3893 1.376 . S
C3890 C3888 1.394 . S
C3890 C3891 1.369 . S
C3890 C3894 1.531 . S
C3891 C3890 1.369 . S
C3891 C3892 1.410 1_554 S
C3891 C3899 1.503 . S
C3892 C3891 1.410 1_556 S
C3892 C3893 1.392 . S
C3892 C3895 1.511 . S
C3893 C3889 1.376 . S
C3893 C3892 1.392 . S
C3893 H3905 0.929 . S
C3894 C3890 1.531 . S
C3894 H3906 0.960 . S
C3894 H3907 0.962 . S
C3894 H3908 0.960 . S
C3895 C3892 1.511 . S
C3895 H3909 0.961 . S
C3895 H3910 0.961 . S
C3895 H3911 0.961 . S
C3896 C3897 1.370 1_556 S
C3896 C3898 1.363 . S
C3896 H3912 0.931 . S
C3897 C3896 1.370 1_554 S
C3897 C3901 1.408 . S
C3898 C3896 1.363 . S
C3898 C3899 1.370 1_556 S
C3898 C3902 1.524 . S
C3899 C3891 1.503 . S
C3899 C3898 1.370 1_554 S
C3899 C3900 1.403 . S
C3900 C3899 1.403 . S
C3900 C3901 1.404 . S
C3900 C3903 1.539 . S
C3901 C3897 1.408 . S
C3901 C3900 1.404 . S
C3901 H3913 0.930 . S
C3902 C3898 1.524 . S
C3902 H3914 0.956 . S
C3902 H3915 0.961 . S
C3902 H3916 0.961 . S
C3903 C3900 1.539 . S
C3903 H3917 0.958 . S
C3903 H3918 0.961 . S
C3903 H3919 0.960 . S
H3904 C3888 0.931 . S
H3905 C3893 0.929 . S
H3906 C3894 0.960 . S
H3907 C3894 0.962 . S
H3908 C3894 0.960 . S
H3909 C3895 0.961 . S
H3910 C3895 0.961 . S
H3911 C3895 0.961 . S
H3912 C3896 0.931 . S
H3913 C3901 0.930 . S
H3914 C3902 0.956 . S
H3915 C3902 0.961 . S
H3916 C3902 0.961 . S
H3917 C3903 0.958 . S
H3918 C3903 0.961 . S
H3919 C3903 0.960 . S
C3920 C3921 1.391 . S
C3920 C3922 1.394 . S
C3920 H3936 0.931 . S
C3921 C3920 1.391 . S
C3921 C3925 1.376 . S
C3922 C3920 1.394 . S
C3922 C3923 1.369 . S
C3922 C3926 1.531 . S
C3923 C3922 1.369 . S
C3923 C3924 1.410 . S
C3923 C3931 1.503 . S
C3924 C3923 1.410 . S
C3924 C3925 1.392 . S
C3924 C3927 1.511 . S
C3925 C3921 1.376 . S
C3925 C3924 1.392 . S
C3925 H3937 0.929 . S
C3926 C3922 1.531 . S
C3926 H3938 0.960 . S
C3926 H3939 0.962 . S
C3926 H3940 0.960 . S
C3927 C3924 1.511 . S
C3927 H3941 0.961 . S
C3927 H3942 0.961 . S
C3927 H3943 0.961 . S
C3928 C3929 1.370 . S
C3928 C3930 1.363 . S
C3928 H3944 0.931 . S
C3929 C3928 1.370 . S
C3929 C3933 1.408 . S
C3930 C3928 1.363 . S
C3930 C3931 1.370 . S
C3930 C3934 1.524 . S
C3931 C3923 1.503 . S
C3931 C3930 1.370 . S
C3931 C3932 1.403 . S
C3932 C3931 1.403 . S
C3932 C3933 1.404 . S
C3932 C3935 1.539 . S
C3933 C3929 1.408 . S
C3933 C3932 1.404 . S
C3933 H3945 0.930 . S
C3934 C3930 1.524 . S
C3934 H3946 0.956 . S
C3934 H3947 0.961 . S
C3934 H3948 0.961 . S
C3935 C3932 1.539 . S
C3935 H3949 0.958 . S
C3935 H3950 0.961 . S
C3935 H3951 0.960 . S
H3936 C3920 0.931 . S
H3937 C3925 0.929 . S
H3938 C3926 0.960 . S
H3939 C3926 0.962 . S
H3940 C3926 0.960 . S
H3941 C3927 0.961 . S
H3942 C3927 0.961 . S
H3943 C3927 0.961 . S
H3944 C3928 0.931 . S
H3945 C3933 0.930 . S
H3946 C3934 0.956 . S
H3947 C3934 0.961 . S
H3948 C3934 0.961 . S
H3949 C3935 0.958 . S
H3950 C3935 0.961 . S
H3951 C3935 0.960 . S
C3952 C3953 1.391 . S
C3952 C3954 1.394 . S
C3952 H3968 0.931 . S
C3953 C3952 1.391 . S
C3953 C3957 1.376 . S
C3954 C3952 1.394 . S
C3954 C3955 1.369 . S
C3954 C3958 1.531 . S
C3955 C3954 1.369 . S
C3955 C3956 1.410 . S
C3955 C3963 1.503 . S
C3956 C3955 1.410 . S
C3956 C3957 1.392 . S
C3956 C3959 1.511 . S
C3957 C3953 1.376 . S
C3957 C3956 1.392 . S
C3957 H3969 0.929 . S
C3958 C3954 1.531 . S
C3958 H3970 0.960 . S
C3958 H3971 0.962 . S
C3958 H3972 0.960 . S
C3959 C3956 1.511 . S
C3959 H3973 0.961 . S
C3959 H3974 0.961 . S
C3959 H3975 0.961 . S
C3960 C3961 1.370 . S
C3960 C3962 1.363 . S
C3960 H3976 0.931 . S
C3961 C3960 1.370 . S
C3961 C3965 1.408 1_556 S
C3962 C3960 1.363 . S
C3962 C3963 1.370 1_556 S
C3962 C3966 1.524 . S
C3963 C3955 1.503 . S
C3963 C3962 1.370 1_554 S
C3963 C3964 1.403 . S
C3964 C3963 1.403 . S
C3964 C3965 1.404 . S
C3964 C3967 1.539 . S
C3965 C3961 1.408 1_554 S
C3965 C3964 1.404 . S
C3965 H3977 0.930 . S
C3966 C3962 1.524 . S
C3966 H3978 0.956 . S
C3966 H3979 0.961 . S
C3966 H3980 0.961 . S
C3967 C3964 1.539 . S
C3967 H3981 0.958 . S
C3967 H3982 0.961 . S
C3967 H3983 0.960 . S
H3968 C3952 0.931 . S
H3969 C3957 0.929 . S
H3970 C3958 0.960 . S
H3971 C3958 0.962 . S
H3972 C3958 0.960 . S
H3973 C3959 0.961 . S
H3974 C3959 0.961 . S
H3975 C3959 0.961 . S
H3976 C3960 0.931 . S
H3977 C3965 0.930 . S
H3978 C3966 0.956 . S
H3979 C3966 0.961 . S
H3980 C3966 0.961 . S
H3981 C3967 0.958 . S
H3982 C3967 0.961 . S
H3983 C3967 0.960 . S
C3984 C3985 1.391 . S
C3984 C3986 1.394 . S
C3984 H4000 0.931 . S
C3985 C3984 1.391 . S
C3985 C3989 1.376 . S
C3986 C3984 1.394 . S
C3986 C3987 1.369 . S
C3986 C3990 1.531 . S
C3987 C3986 1.369 . S
C3987 C3988 1.410 . S
C3987 C3995 1.503 . S
C3988 C3987 1.410 . S
C3988 C3989 1.392 . S
C3988 C3991 1.511 . S
C3989 C3985 1.376 . S
C3989 C3988 1.392 . S
C3989 H4001 0.929 . S
C3990 C3986 1.531 . S
C3990 H4002 0.960 . S
C3990 H4003 0.962 . S
C3990 H4004 0.960 . S
C3991 C3988 1.511 . S
C3991 H4005 0.961 . S
C3991 H4006 0.961 . S
C3991 H4007 0.961 . S
C3992 C3993 1.370 . S
C3992 C3994 1.363 . S
C3992 H4008 0.931 . S
C3993 C3992 1.370 . S
C3993 C3997 1.408 . S
C3994 C3992 1.363 . S
C3994 C3995 1.370 . S
C3994 C3998 1.524 . S
C3995 C3987 1.503 . S
C3995 C3994 1.370 . S
C3995 C3996 1.403 . S
C3996 C3995 1.403 . S
C3996 C3997 1.404 . S
C3996 C3999 1.539 . S
C3997 C3993 1.408 . S
C3997 C3996 1.404 . S
C3997 H4009 0.930 . S
C3998 C3994 1.524 . S
C3998 H4010 0.956 . S
C3998 H4011 0.961 . S
C3998 H4012 0.961 . S
C3999 C3996 1.539 . S
C3999 H4013 0.958 . S
C3999 H4014 0.961 . S
C3999 H4015 0.960 . S
H4000 C3984 0.931 . S
H4001 C3989 0.929 . S
H4002 C3990 0.960 . S
H4003 C3990 0.962 . S
H4004 C3990 0.960 . S
H4005 C3991 0.961 . S
H4006 C3991 0.961 . S
H4007 C3991 0.961 . S
H4008 C3992 0.931 . S
H4009 C3997 0.930 . S
H4010 C3998 0.956 . S
H4011 C3998 0.961 . S
H4012 C3998 0.961 . S
H4013 C3999 0.958 . S
H4014 C3999 0.961 . S
H4015 C3999 0.960 . S
C4016 C4017 1.391 . S
C4016 C4018 1.394 . S
C4016 H4032 0.931 . S
C4017 C4016 1.391 . S
C4017 C4021 1.376 . S
C4018 C4016 1.394 . S
C4018 C4019 1.369 . S
C4018 C4022 1.531 . S
C4019 C4018 1.369 . S
C4019 C4020 1.410 . S
C4019 C4027 1.503 . S
C4020 C4019 1.410 . S
C4020 C4021 1.392 . S
C4020 C4023 1.511 . S
C4021 C4017 1.376 . S
C4021 C4020 1.392 . S
C4021 H4033 0.929 . S
C4022 C4018 1.531 . S
C4022 H4034 0.960 . S
C4022 H4035 0.962 . S
C4022 H4036 0.960 . S
C4023 C4020 1.511 . S
C4023 H4037 0.961 . S
C4023 H4038 0.961 . S
C4023 H4039 0.961 . S
C4024 C4025 1.370 . S
C4024 C4026 1.363 . S
C4024 H4040 0.931 . S
C4025 C4024 1.370 . S
C4025 C4029 1.408 . S
C4026 C4024 1.363 . S
C4026 C4027 1.370 . S
C4026 C4030 1.524 . S
C4027 C4019 1.503 . S
C4027 C4026 1.370 . S
C4027 C4028 1.403 . S
C4028 C4027 1.403 . S
C4028 C4029 1.404 . S
C4028 C4031 1.539 . S
C4029 C4025 1.408 . S
C4029 C4028 1.404 . S
C4029 H4041 0.930 . S
C4030 C4026 1.524 . S
C4030 H4042 0.956 . S
C4030 H4043 0.961 . S
C4030 H4044 0.961 . S
C4031 C4028 1.539 . S
C4031 H4045 0.958 . S
C4031 H4046 0.961 . S
C4031 H4047 0.960 . S
H4032 C4016 0.931 . S
H4033 C4021 0.929 . S
H4034 C4022 0.960 . S
H4035 C4022 0.962 . S
H4036 C4022 0.960 . S
H4037 C4023 0.961 . S
H4038 C4023 0.961 . S
H4039 C4023 0.961 . S
H4040 C4024 0.931 . S
H4041 C4029 0.930 . S
H4042 C4030 0.956 . S
H4043 C4030 0.961 . S
H4044 C4030 0.961 . S
H4045 C4031 0.958 . S
H4046 C4031 0.961 . S
H4047 C4031 0.960 . S
C977 C111 2.007 . S
C985 C346 2.035 . S
C1009 C64 1.757 . S
C1017 C385 1.828 . S
C1041 C77 1.260 . S
C1049 C426 1.257 . S
C1081 C471 1.263 . S
C1073 C95 1.269 . S
C1105 C25 1.850 . S
C1113 C515 1.851 . S
C1145 C546 1.359 . S
C1137 C36 1.396 . S
C1177 C594 1.972 . S
C1169 C50 1.900 . S
C1201 C11 1.684 . S
C1209 C622 1.620 . S
C1241 C354 1.436 . S
C1233 C237 1.334 . S
C1265 C245 1.387 . S
C1273 C395 1.335 . S
C1305 C434 1.368 . S
C1297 C279 1.110 1_565 S
C1337 C466 1.369 . S
C1329 C175 1.374 . S
C1361 C231 0.143 . S
C1369 C502 0.136 . S
C1401 C554 2.110 . S
C1393 C251 2.049 . S
C1433 C591 1.077 . S
C1425 C273 1.128 . S
C1465 C625 1.906 . S
C1457 C181 1.846 . S
C1497 C351 1.786 . S
C1489 C165 1.853 . S
C1521 C288 1.912 . S
C1529 C665 1.936 . S
C1561 C711 1.192 . S
C1553 C333 1.186 . S
C1593 C746 1.513 . S
C1585 C316 1.564 . S
C1617 C123 1.848 . S
C1625 C635 1.779 . S
C1649 C137 1.286 . S
C1657 C431 1.241 . S
C1681 C330 1.201 . S
C1689 C794 1.299 . S
C1721 C822 0.380 . S
C1713 C302 0.405 . S
C1753 C355 2.158 . S
C1745 C63 2.215 . S
C1785 C834 1.824 . S
C1777 C106 1.834 . S
C1809 C97 1.327 . S
C1817 C435 1.421 . S
C1841 C81 1.290 . S
C1849 C782 1.328 . S
C1881 C506 2.036 . S
C1873 C13 2.001 . S
C1905 C55 1.206 . S
C1913 C715 1.370 . S
C1945 C585 1.932 1_556 S
C1937 C35 1.939 . S
C1977 C871 1.694 . S
C1969 C21 1.731 . S
C2009 C345 1.518 . S
C2001 C147 1.499 . S
C2041 C826 1.491 . S
C2033 C321 1.488 . S
C2065 C119 1.386 . S
C2073 C425 1.427 . S
C2097 C293 1.450 . S
C2105 C795 1.553 . S
C2129 C153 0.463 . S
C2137 C511 0.229 . S
C2169 C705 2.211 . S
C2161 C315 2.225 . S
C2193 C125 0.792 . S
C2201 C582 0.979 . S
C2225 C287 2.018 . S
C2233 C874 2.012 . S
C2257 C193 1.856 1_556 S
C2265 C342 1.803 . S
C2289 C176 1.957 . S
C2297 C674 1.967 . S
C2321 C263 1.221 . S
C2329 C542 1.180 . S
C2353 C246 1.530 . S
C2361 C755 1.586 . S
C2393 C866 1.842 . S
C2385 C277 1.911 . S
C2417 C221 1.315 . S
C2425 C422 1.302 . S
C2457 C465 1.350 . S
C2449 C260 1.372 . S
C2489 C391 0.486 . S
C2481 C204 0.479 . S
C2513 C83 2.024 . S
C2521 C906 2.032 . S
C2553 C825 1.813 . S
C2545 C92 1.814 . S
C2577 C105 1.274 . S
C2585 C946 1.270 1_556 S
C2609 C67 1.257 . S
C2617 C791 1.246 . S
C2641 C53 1.833 . S
C2649 C675 1.845 . S
C2681 C706 1.363 . S
C2673 C8 1.401 . S
C2713 C754 1.967 . S
C2705 C22 1.906 . S
C2745 C862 1.610 . S
C2737 C39 1.687 . S
C2777 C914 1.429 . S
C2769 C265 1.279 . S
C2801 C189 1.387 . S
C2809 C835 1.341 . S
C2841 C954 1.356 . S
C2833 C209 1.224 . S
C2873 C786 1.374 . S
C2865 C217 1.377 . S
C2905 C662 0.185 . S
C2897 C259 0.145 . S
C2929 C195 2.021 . S
C2937 C714 2.094 . S
C2969 C751 1.067 . S
C2961 C203 1.145 . S
C2993 C223 1.822 . S
C3001 C865 1.911 . S
C3033 C911 1.786 . S
C3025 C319 1.849 . S
C3057 C134 1.930 . S
C3065 C505 1.937 . S
C3097 C551 1.167 . S
C3089 C151 1.219 . S
C3129 C586 1.487 . S
C3121 C162 1.535 . S
C3161 C875 1.756 . S
C3153 C305 1.848 . S
C3185 C291 1.290 . S
C3193 C951 1.250 . S
C3225 C474 1.294 . S
C3217 C148 1.228 . S
C3257 C382 0.426 . S
C3249 C120 0.465 . S
C3281 C91 2.215 . S
C3289 C915 2.158 . S
C3321 C394 1.825 . S
C3313 C78 1.840 . S
C3345 C69 1.327 . S
C3353 C955 1.421 . S
C3377 C109 1.342 . S
C3385 C462 1.309 . S
C3409 C41 2.027 . S
C3417 C666 2.028 1_556 S
C3449 C555 1.367 . S
C3441 C27 1.307 . S
C3473 C7 1.937 . S
C3481 C745 1.931 . S
C3505 C49 1.746 . S
C3513 C631 1.679 . S
C3545 C905 1.528 . S
C3537 C329 1.513 . S
C3569 C167 1.509 . S
C3577 C386 1.477 . S
C3609 C945 1.438 . S
C3601 C301 1.354 . S
C3633 C139 1.473 . S
C3641 C475 1.549 . S
C3665 C335 0.428 . S
C3673 C671 0.173 . S
C3705 C545 2.213 . S
C3697 C161 2.226 1_556 S
C3729 C307 0.844 . S
C3737 C742 0.936 1_655 S
C3769 C634 2.010 . S
C3761 C133 2.017 . S
C3801 C902 1.807 . S
C3793 C249 1.854 . S
C3833 C514 1.969 1_655 S
C3825 C218 1.961 . S
C3857 C235 1.117 . S
C3865 C702 1.211 . S
C3897 C595 1.586 . S
C3889 C190 1.510 . S
C3921 C207 1.879 . S
C3929 C626 1.859 . S
C3953 C179 1.331 . S
C3961 C942 1.290 . S
C3993 C785 1.353 . S
C3985 C232 1.367 1_565 S
C4025 C831 0.486 . S
C4017 C274 0.471 . S
