# Generated by pormake.
# Topology gar, (4,6)-cn, num edge types: 1
# Building blocks:
#     Node 0, Type 0, BuildingBlock: QUQFOY_clean_sbu_3, # of connection points: 4
#     Node 1, Type 0, BuildingBlock: QUQFOY_clean_sbu_3, # of connection points: 4
#     Node 2, Type 0, BuildingBlock: QUQFOY_clean_sbu_3, # of connection points: 4
#     Node 3, Type 0, BuildingBlock: QUQFOY_clean_sbu_3, # of connection points: 4
#     Node 4, Type 0, BuildingBlock: QUQFOY_clean_sbu_3, # of connection points: 4
#     Node 5, Type 0, BuildingBlock: QUQFOY_clean_sbu_3, # of connection points: 4
#     Node 6, Type 0, BuildingBlock: QUQFOY_clean_sbu_3, # of connection points: 4
#     Node 7, Type 0, BuildingBlock: QUQFOY_clean_sbu_3, # of connection points: 4
#     Node 8, Type 0, BuildingBlock: QUQFOY_clean_sbu_3, # of connection points: 4
#     Node 9, Type 0, BuildingBlock: QUQFOY_clean_sbu_3, # of connection points: 4
#     Node 10, Type 0, BuildingBlock: QUQFOY_clean_sbu_3, # of connection points: 4
#     Node 11, Type 0, BuildingBlock: QUQFOY_clean_sbu_3, # of connection points: 4
#     Node 12, Type 0, BuildingBlock: QUQFOY_clean_sbu_3, # of connection points: 4
#     Node 13, Type 0, BuildingBlock: QUQFOY_clean_sbu_3, # of connection points: 4
#     Node 14, Type 0, BuildingBlock: QUQFOY_clean_sbu_3, # of connection points: 4
#     Node 15, Type 0, BuildingBlock: QUQFOY_clean_sbu_3, # of connection points: 4
#     Node 16, Type 0, BuildingBlock: QUQFOY_clean_sbu_3, # of connection points: 4
#     Node 17, Type 0, BuildingBlock: QUQFOY_clean_sbu_3, # of connection points: 4
#     Node 18, Type 0, BuildingBlock: QUQFOY_clean_sbu_3, # of connection points: 4
#     Node 19, Type 0, BuildingBlock: QUQFOY_clean_sbu_3, # of connection points: 4
#     Node 20, Type 0, BuildingBlock: QUQFOY_clean_sbu_3, # of connection points: 4
#     Node 21, Type 0, BuildingBlock: QUQFOY_clean_sbu_3, # of connection points: 4
#     Node 22, Type 0, BuildingBlock: QUQFOY_clean_sbu_3, # of connection points: 4
#     Node 23, Type 0, BuildingBlock: QUQFOY_clean_sbu_3, # of connection points: 4
#     Node 24, Type 1, BuildingBlock: BETDAH_clean_sbu_0, # of connection points: 6
#     Node 25, Type 1, BuildingBlock: BETDAH_clean_sbu_0, # of connection points: 6
#     Node 26, Type 1, BuildingBlock: BETDAH_clean_sbu_0, # of connection points: 6
#     Node 27, Type 1, BuildingBlock: BETDAH_clean_sbu_0, # of connection points: 6
#     Node 28, Type 1, BuildingBlock: BETDAH_clean_sbu_0, # of connection points: 6
#     Node 29, Type 1, BuildingBlock: BETDAH_clean_sbu_0, # of connection points: 6
#     Node 30, Type 1, BuildingBlock: BETDAH_clean_sbu_0, # of connection points: 6
#     Node 31, Type 1, BuildingBlock: BETDAH_clean_sbu_0, # of connection points: 6
#     Node 32, Type 1, BuildingBlock: BETDAH_clean_sbu_0, # of connection points: 6
#     Node 33, Type 1, BuildingBlock: BETDAH_clean_sbu_0, # of connection points: 6
#     Node 34, Type 1, BuildingBlock: BETDAH_clean_sbu_0, # of connection points: 6
#     Node 35, Type 1, BuildingBlock: BETDAH_clean_sbu_0, # of connection points: 6
#     Node 36, Type 1, BuildingBlock: BETDAH_clean_sbu_0, # of connection points: 6
#     Node 37, Type 1, BuildingBlock: BETDAH_clean_sbu_0, # of connection points: 6
#     Node 38, Type 1, BuildingBlock: BETDAH_clean_sbu_0, # of connection points: 6
#     Node 39, Type 1, BuildingBlock: BETDAH_clean_sbu_0, # of connection points: 6
#     Edge 40, Type (0, 1), BuildingBlock: XIVTED_clean_linker_0, # of connection points: 2
#     Edge 41, Type (0, 1), BuildingBlock: XIVTED_clean_linker_0, # of connection points: 2
#     Edge 42, Type (0, 1), BuildingBlock: XIVTED_clean_linker_0, # of connection points: 2
#     Edge 43, Type (0, 1), BuildingBlock: XIVTED_clean_linker_0, # of connection points: 2
#     Edge 44, Type (0, 1), BuildingBlock: XIVTED_clean_linker_0, # of connection points: 2
#     Edge 45, Type (0, 1), BuildingBlock: XIVTED_clean_linker_0, # of connection points: 2
#     Edge 46, Type (0, 1), BuildingBlock: XIVTED_clean_linker_0, # of connection points: 2
#     Edge 47, Type (0, 1), BuildingBlock: XIVTED_clean_linker_0, # of connection points: 2
#     Edge 48, Type (0, 1), BuildingBlock: XIVTED_clean_linker_0, # of connection points: 2
#     Edge 49, Type (0, 1), BuildingBlock: XIVTED_clean_linker_0, # of connection points: 2
#     Edge 50, Type (0, 1), BuildingBlock: XIVTED_clean_linker_0, # of connection points: 2
#     Edge 51, Type (0, 1), BuildingBlock: XIVTED_clean_linker_0, # of connection points: 2
#     Edge 52, Type (0, 1), BuildingBlock: XIVTED_clean_linker_0, # of connection points: 2
#     Edge 53, Type (0, 1), BuildingBlock: XIVTED_clean_linker_0, # of connection points: 2
#     Edge 54, Type (0, 1), BuildingBlock: XIVTED_clean_linker_0, # of connection points: 2
#     Edge 55, Type (0, 1), BuildingBlock: XIVTED_clean_linker_0, # of connection points: 2
#     Edge 56, Type (0, 1), BuildingBlock: XIVTED_clean_linker_0, # of connection points: 2
#     Edge 57, Type (0, 1), BuildingBlock: XIVTED_clean_linker_0, # of connection points: 2
#     Edge 58, Type (0, 1), BuildingBlock: XIVTED_clean_linker_0, # of connection points: 2
#     Edge 59, Type (0, 1), BuildingBlock: XIVTED_clean_linker_0, # of connection points: 2
#     Edge 60, Type (0, 1), BuildingBlock: XIVTED_clean_linker_0, # of connection points: 2
#     Edge 61, Type (0, 1), BuildingBlock: XIVTED_clean_linker_0, # of connection points: 2
#     Edge 62, Type (0, 1), BuildingBlock: XIVTED_clean_linker_0, # of connection points: 2
#     Edge 63, Type (0, 1), BuildingBlock: XIVTED_clean_linker_0, # of connection points: 2
#     Edge 64, Type (0, 1), BuildingBlock: XIVTED_clean_linker_0, # of connection points: 2
#     Edge 65, Type (0, 1), BuildingBlock: XIVTED_clean_linker_0, # of connection points: 2
#     Edge 66, Type (0, 1), BuildingBlock: XIVTED_clean_linker_0, # of connection points: 2
#     Edge 67, Type (0, 1), BuildingBlock: XIVTED_clean_linker_0, # of connection points: 2
#     Edge 68, Type (0, 1), BuildingBlock: XIVTED_clean_linker_0, # of connection points: 2
#     Edge 69, Type (0, 1), BuildingBlock: XIVTED_clean_linker_0, # of connection points: 2
#     Edge 70, Type (0, 1), BuildingBlock: XIVTED_clean_linker_0, # of connection points: 2
#     Edge 71, Type (0, 1), BuildingBlock: XIVTED_clean_linker_0, # of connection points: 2
#     Edge 72, Type (0, 1), BuildingBlock: XIVTED_clean_linker_0, # of connection points: 2
#     Edge 73, Type (0, 1), BuildingBlock: XIVTED_clean_linker_0, # of connection points: 2
#     Edge 74, Type (0, 1), BuildingBlock: XIVTED_clean_linker_0, # of connection points: 2
#     Edge 75, Type (0, 1), BuildingBlock: XIVTED_clean_linker_0, # of connection points: 2
#     Edge 76, Type (0, 1), BuildingBlock: XIVTED_clean_linker_0, # of connection points: 2
#     Edge 77, Type (0, 1), BuildingBlock: XIVTED_clean_linker_0, # of connection points: 2
#     Edge 78, Type (0, 1), BuildingBlock: XIVTED_clean_linker_0, # of connection points: 2
#     Edge 79, Type (0, 1), BuildingBlock: XIVTED_clean_linker_0, # of connection points: 2
#     Edge 80, Type (0, 1), BuildingBlock: XIVTED_clean_linker_0, # of connection points: 2
#     Edge 81, Type (0, 1), BuildingBlock: XIVTED_clean_linker_0, # of connection points: 2
#     Edge 82, Type (0, 1), BuildingBlock: XIVTED_clean_linker_0, # of connection points: 2
#     Edge 83, Type (0, 1), BuildingBlock: XIVTED_clean_linker_0, # of connection points: 2
#     Edge 84, Type (0, 1), BuildingBlock: XIVTED_clean_linker_0, # of connection points: 2
#     Edge 85, Type (0, 1), BuildingBlock: XIVTED_clean_linker_0, # of connection points: 2
#     Edge 86, Type (0, 1), BuildingBlock: XIVTED_clean_linker_0, # of connection points: 2
#     Edge 87, Type (0, 1), BuildingBlock: XIVTED_clean_linker_0, # of connection points: 2
#     Edge 88, Type (0, 1), BuildingBlock: XIVTED_clean_linker_0, # of connection points: 2
#     Edge 89, Type (0, 1), BuildingBlock: XIVTED_clean_linker_0, # of connection points: 2
#     Edge 90, Type (0, 1), BuildingBlock: XIVTED_clean_linker_0, # of connection points: 2
#     Edge 91, Type (0, 1), BuildingBlock: XIVTED_clean_linker_0, # of connection points: 2
#     Edge 92, Type (0, 1), BuildingBlock: XIVTED_clean_linker_0, # of connection points: 2
#     Edge 93, Type (0, 1), BuildingBlock: XIVTED_clean_linker_0, # of connection points: 2
#     Edge 94, Type (0, 1), BuildingBlock: XIVTED_clean_linker_0, # of connection points: 2
#     Edge 95, Type (0, 1), BuildingBlock: XIVTED_clean_linker_0, # of connection points: 2
#     Edge 96, Type (0, 1), BuildingBlock: XIVTED_clean_linker_0, # of connection points: 2
#     Edge 97, Type (0, 1), BuildingBlock: XIVTED_clean_linker_0, # of connection points: 2
#     Edge 98, Type (0, 1), BuildingBlock: XIVTED_clean_linker_0, # of connection points: 2
#     Edge 99, Type (0, 1), BuildingBlock: XIVTED_clean_linker_0, # of connection points: 2
#     Edge 100, Type (0, 1), BuildingBlock: XIVTED_clean_linker_0, # of connection points: 2
#     Edge 101, Type (0, 1), BuildingBlock: XIVTED_clean_linker_0, # of connection points: 2
#     Edge 102, Type (0, 1), BuildingBlock: XIVTED_clean_linker_0, # of connection points: 2
#     Edge 103, Type (0, 1), BuildingBlock: XIVTED_clean_linker_0, # of connection points: 2
#     Edge 104, Type (0, 1), BuildingBlock: XIVTED_clean_linker_0, # of connection points: 2
#     Edge 105, Type (0, 1), BuildingBlock: XIVTED_clean_linker_0, # of connection points: 2
#     Edge 106, Type (0, 1), BuildingBlock: XIVTED_clean_linker_0, # of connection points: 2
#     Edge 107, Type (0, 1), BuildingBlock: XIVTED_clean_linker_0, # of connection points: 2
#     Edge 108, Type (0, 1), BuildingBlock: XIVTED_clean_linker_0, # of connection points: 2
#     Edge 109, Type (0, 1), BuildingBlock: XIVTED_clean_linker_0, # of connection points: 2
#     Edge 110, Type (0, 1), BuildingBlock: XIVTED_clean_linker_0, # of connection points: 2
#     Edge 111, Type (0, 1), BuildingBlock: XIVTED_clean_linker_0, # of connection points: 2
#     Edge 112, Type (0, 1), BuildingBlock: XIVTED_clean_linker_0, # of connection points: 2
#     Edge 113, Type (0, 1), BuildingBlock: XIVTED_clean_linker_0, # of connection points: 2
#     Edge 114, Type (0, 1), BuildingBlock: XIVTED_clean_linker_0, # of connection points: 2
#     Edge 115, Type (0, 1), BuildingBlock: XIVTED_clean_linker_0, # of connection points: 2
#     Edge 116, Type (0, 1), BuildingBlock: XIVTED_clean_linker_0, # of connection points: 2
#     Edge 117, Type (0, 1), BuildingBlock: XIVTED_clean_linker_0, # of connection points: 2
#     Edge 118, Type (0, 1), BuildingBlock: XIVTED_clean_linker_0, # of connection points: 2
#     Edge 119, Type (0, 1), BuildingBlock: XIVTED_clean_linker_0, # of connection points: 2
#     Edge 120, Type (0, 1), BuildingBlock: XIVTED_clean_linker_0, # of connection points: 2
#     Edge 121, Type (0, 1), BuildingBlock: XIVTED_clean_linker_0, # of connection points: 2
#     Edge 122, Type (0, 1), BuildingBlock: XIVTED_clean_linker_0, # of connection points: 2
#     Edge 123, Type (0, 1), BuildingBlock: XIVTED_clean_linker_0, # of connection points: 2
#     Edge 124, Type (0, 1), BuildingBlock: XIVTED_clean_linker_0, # of connection points: 2
#     Edge 125, Type (0, 1), BuildingBlock: XIVTED_clean_linker_0, # of connection points: 2
#     Edge 126, Type (0, 1), BuildingBlock: XIVTED_clean_linker_0, # of connection points: 2
#     Edge 127, Type (0, 1), BuildingBlock: XIVTED_clean_linker_0, # of connection points: 2
#     Edge 128, Type (0, 1), BuildingBlock: XIVTED_clean_linker_0, # of connection points: 2
#     Edge 129, Type (0, 1), BuildingBlock: XIVTED_clean_linker_0, # of connection points: 2
#     Edge 130, Type (0, 1), BuildingBlock: XIVTED_clean_linker_0, # of connection points: 2
#     Edge 131, Type (0, 1), BuildingBlock: XIVTED_clean_linker_0, # of connection points: 2
#     Edge 132, Type (0, 1), BuildingBlock: XIVTED_clean_linker_0, # of connection points: 2
#     Edge 133, Type (0, 1), BuildingBlock: XIVTED_clean_linker_0, # of connection points: 2
#     Edge 134, Type (0, 1), BuildingBlock: XIVTED_clean_linker_0, # of connection points: 2
#     Edge 135, Type (0, 1), BuildingBlock: XIVTED_clean_linker_0, # of connection points: 2
# Relax obj value: 0.189
# Max RMSD: 0.313
# Mean RMSD: 0.156
data_MOF--net-gar--node1-QUQFOY_clean_sbu_3--node2-BETDAH_clean_sbu_0--edge1-XIVTED_clean_linker_0
_symmetry_space_group_name_H-M    P1
_symmetry_Int_Tables_number       1
_symmetry_cell_setting            triclinic
loop_
_symmetry_equiv_pos_as_xyz
'x, y, z'
_cell_length_a     63.245274
_cell_length_b     58.268469
_cell_length_c     58.121325
_cell_angle_alpha  99.558052
_cell_angle_beta   95.224411
_cell_angle_gamma 103.06903
loop_
_atom_site_label
_atom_site_type_symbol
_atom_site_fract_x
_atom_site_fract_y
_atom_site_fract_z
_atom_type_partial_charge
C0 C 0.07248 0.33837 0.35089 0.0
O1 O 0.08576 0.35356 0.34241 0.0
Cd2 Cd 0.12408 0.36648 0.35408 0.0
O3 O 0.0789 0.32842 0.36715 0.0
Cd4 Cd 0.11292 0.32966 0.39101 0.0
C5 C 0.11707 0.38871 0.40978 0.0
O6 O 0.13055 0.32873 0.35801 0.0
O7 O 0.15225 0.3317 0.39005 0.0
O8 O 0.0958 0.28813 0.38797 0.0
C9 C 0.1492 0.32901 0.36778 0.0
O10 O 0.1235 0.39327 0.39054 0.0
C11 C 0.09803 0.2889 0.41001 0.0
O12 O 0.11237 0.3674 0.41346 0.0
O13 O 0.10818 0.30871 0.42328 0.0
C14 C 0.95207 0.73936 0.67747 0.0
O15 O 0.96254 0.72763 0.68873 0.0
Cd16 Cd 0.99868 0.72414 0.68744 0.0
O17 O 0.96034 0.75056 0.6622 0.0
Cd18 Cd 0.99368 0.75331 0.6451 0.0
C19 C 0.98978 0.6944 0.63107 0.0
O20 O 0.01826 0.76147 0.68078 0.0
O21 O 0.03148 0.75226 0.64831 0.0
O22 O 0.00127 0.79512 0.64358 0.0
C23 C 0.03473 0.75978 0.67039 0.0
O24 O 0.99612 0.69515 0.65261 0.0
C25 C 0.99999 0.792 0.62135 0.0
O26 O 0.98556 0.7126 0.62393 0.0
O27 O 0.99369 0.77057 0.6098 0.0
C28 C 0.57299 0.83965 0.84818 0.0
O29 O 0.58615 0.85324 0.83798 0.0
Cd30 Cd 0.62423 0.86872 0.84977 0.0
O31 O 0.57946 0.83214 0.86624 0.0
Cd32 Cd 0.61277 0.83438 0.89202 0.0
C33 C 0.6162 0.8939 0.90532 0.0
O34 O 0.63063 0.83312 0.85922 0.0
O35 O 0.65077 0.83032 0.89012 0.0
O36 O 0.58966 0.79531 0.89042 0.0
C37 C 0.64885 0.8315 0.86848 0.0
O38 O 0.62014 0.89571 0.88454 0.0
C39 C 0.59625 0.79428 0.91139 0.0
O40 O 0.61357 0.87409 0.91249 0.0
O41 O 0.61065 0.81218 0.92347 0.0
C42 C 0.4514 0.2378 0.17538 0.0
O43 O 0.46194 0.22588 0.18628 0.0
Cd44 Cd 0.49785 0.22199 0.18351 0.0
O45 O 0.45937 0.24879 0.15985 0.0
Cd46 Cd 0.49246 0.25162 0.14233 0.0
C47 C 0.48877 0.19311 0.12642 0.0
O48 O 0.51786 0.25967 0.17792 0.0
O49 O 0.52973 0.24981 0.14477 0.0
O50 O 0.4989 0.29368 0.14202 0.0
C51 C 0.53387 0.25781 0.16675 0.0
O52 O 0.49513 0.19372 0.14795 0.0
C53 C 0.49899 0.29129 0.11996 0.0
O54 O 0.48419 0.21129 0.11959 0.0
O55 O 0.49378 0.27007 0.10788 0.0
C56 C 0.04871 0.79453 0.14525 0.0
O57 O 0.06064 0.78433 0.15676 0.0
Cd58 Cd 0.09731 0.78228 0.15378 0.0
O59 O 0.05663 0.80747 0.13081 0.0
Cd60 Cd 0.0934 0.82063 0.1158 0.0
C61 C 0.08673 0.76168 0.09338 0.0
O62 O 0.11654 0.82111 0.15172 0.0
O63 O 0.13471 0.82684 0.123 0.0
O64 O 0.08541 0.85994 0.116 0.0
C65 C 0.13487 0.82363 0.14407 0.0
O66 O 0.09095 0.75891 0.11442 0.0
C67 C 0.08751 0.86039 0.0945 0.0
O68 O 0.08589 0.78198 0.08847 0.0
O69 O 0.09333 0.8428 0.08305 0.0
C70 C 0.47014 0.77617 0.37269 0.0
O71 O 0.48625 0.78754 0.3643 0.0
Cd72 Cd 0.52406 0.79744 0.3772 0.0
O73 O 0.47357 0.76547 0.38983 0.0
Cd74 Cd 0.5109 0.76358 0.4131 0.0
C75 C 0.52062 0.82216 0.43453 0.0
O76 O 0.53549 0.76304 0.38318 0.0
O77 O 0.5513 0.78161 0.41763 0.0
O78 O 0.5108 0.72148 0.41427 0.0
C79 C 0.55324 0.77296 0.39664 0.0
O80 O 0.52584 0.8245 0.41426 0.0
C81 C 0.5112 0.72329 0.43637 0.0
O82 O 0.51345 0.80159 0.4395 0.0
O83 O 0.50944 0.74322 0.44774 0.0
C84 C 0.54938 0.29778 0.64591 0.0
O85 O 0.56076 0.28861 0.65922 0.0
Cd86 Cd 0.59743 0.28624 0.65603 0.0
O87 O 0.55773 0.30841 0.63011 0.0
Cd88 Cd 0.59394 0.31847 0.61359 0.0
C89 C 0.58461 0.2588 0.59658 0.0
O90 O 0.61822 0.3233 0.64994 0.0
O91 O 0.63458 0.31888 0.61942 0.0
O92 O 0.59166 0.35994 0.613 0.0
C93 C 0.63577 0.32148 0.6417 0.0
O94 O 0.58912 0.25902 0.61843 0.0
C95 C 0.58837 0.35768 0.59075 0.0
O96 O 0.58486 0.27808 0.58887 0.0
O97 O 0.58882 0.3375 0.57875 0.0
C98 C 0.97068 0.27538 0.87366 0.0
O99 O 0.9865 0.28478 0.86359 0.0
Cd100 Cd 0.02422 0.29456 0.87657 0.0
O101 O 0.97454 0.26648 0.892 0.0
Cd102 Cd 0.01221 0.26373 0.91421 0.0
C103 C 0.02078 0.32181 0.93333 0.0
O104 O 0.03562 0.26024 0.88304 0.0
O105 O 0.05227 0.28092 0.91635 0.0
O106 O 0.00206 0.22141 0.92017 0.0
C107 C 0.05368 0.2709 0.89568 0.0
O108 O 0.02609 0.32293 0.91287 0.0
C109 C 0.01316 0.22591 0.94048 0.0
O110 O 0.01352 0.30179 0.93936 0.0
O111 O 0.02204 0.24779 0.94913 0.0
C112 C 0.47021 0.03681 0.32538 0.0
O113 O 0.48092 0.02931 0.30952 0.0
Cd114 Cd 0.47089 0.01889 0.26822 0.0
O115 O 0.45228 0.04231 0.32064 0.0
Cd116 Cd 0.42967 0.04251 0.28596 0.0
C117 C 0.42343 0.98365 0.278 0.0
O118 O 0.45441 0.04895 0.25879 0.0
O119 O 0.42098 0.03237 0.24361 0.0
O120 O 0.42267 0.0803 0.29825 0.0
C121 C 0.44084 0.03908 0.24053 0.0
O122 O 0.44042 0.98468 0.26758 0.0
C123 C 0.40201 0.0721 0.29346 0.0
O124 O 0.41771 1.00223 0.28714 0.0
O125 O 0.39449 0.04944 0.28828 0.0
C126 C 0.31746 0.16194 0.50966 0.0
O127 O 0.30392 0.14979 0.52057 0.0
Cd128 Cd 0.26746 0.15239 0.52498 0.0
O129 O 0.31217 0.17712 0.49821 0.0
Cd130 Cd 0.27855 0.19215 0.49041 0.0
C131 C 0.27967 0.21301 0.54837 0.0
O132 O 0.25151 0.15466 0.48755 0.0
O133 O 0.23822 0.1857 0.49092 0.0
O134 O 0.27912 0.19086 0.44827 0.0
C135 C 0.23477 0.16306 0.48865 0.0
O136 O 0.27221 0.19126 0.5501 0.0
C137 C 0.28403 0.21343 0.44961 0.0
O138 O 0.28503 0.21879 0.52911 0.0
O139 O 0.2867 0.22639 0.47002 0.0
C140 C 0.13537 0.02733 0.81904 0.0
O141 O 0.12774 0.03996 0.80615 0.0
Cd142 Cd 0.13704 0.04461 0.76702 0.0
O143 O 0.14973 0.01626 0.81092 0.0
Cd144 Cd 0.17033 0.01302 0.76904 0.0
C145 C 0.18984 0.078 0.77083 0.0
O146 O 0.13501 0.00834 0.73877 0.0
O147 O 0.16522 0.01806 0.72542 0.0
O148 O 0.1747 0.96847 0.77174 0.0
C149 C 0.14448 0.01298 0.72105 0.0
O150 O 0.1695 0.07679 0.76619 0.0
C151 C 0.19412 0.96982 0.76674 0.0
O152 O 0.19574 0.05905 0.77524 0.0
O153 O 0.20298 0.99052 0.76283 0.0
C154 C 0.35914 0.95397 0.0139 0.0
O155 O 0.35178 0.97178 0.02149 0.0
Cd156 Cd 0.32411 0.96688 0.98855 0.0
O157 O 0.34734 0.93786 0.99766 0.0
Cd158 Cd 0.30923 0.93326 0.00418 0.0
C159 C 0.31484 0.91265 0.95289 0.0
O160 O 0.29145 0.96688 0.00451 0.0
O161 O 0.27129 0.9299 0.9993 0.0
O162 O 0.323 0.94011 0.04529 0.0
C163 C 0.27285 0.95237 0.00331 0.0
O164 O 0.32381 0.93487 0.95487 0.0
C165 C 0.31727 0.91797 0.0462 0.0
O166 O 0.30516 0.9052 0.96933 0.0
O167 O 0.30579 0.90363 0.02818 0.0
C168 C 0.36077 0.43349 0.03031 0.0
O169 O 0.3494 0.44361 0.01804 0.0
Cd170 Cd 0.31079 0.43185 0.00596 0.0
O171 O 0.35172 0.41544 0.03895 0.0
Cd172 Cd 0.31268 0.39042 0.03847 0.0
C173 C 0.31115 0.37406 0.97972 0.0
O174 O 0.29285 0.42137 0.03796 0.0
O175 O 0.27266 0.38528 0.02892 0.0
O176 O 0.31725 0.39011 0.08062 0.0
C177 C 0.27382 0.4076 0.03211 0.0
O178 O 0.30945 0.39524 0.97876 0.0
C179 C 0.3118 0.36742 0.0785 0.0
O180 O 0.31319 0.36702 0.99926 0.0
O181 O 0.30761 0.35521 0.05764 0.0
C182 C 0.81656 0.11361 0.02993 0.0
O183 O 0.80014 0.09914 0.03487 0.0
Cd184 Cd 0.76618 0.10948 0.04055 0.0
O185 O 0.81514 0.13365 0.02514 0.0
Cd186 Cd 0.7875 0.15374 0.01752 0.0
C187 C 0.78261 0.16747 0.07305 0.0
O188 O 0.75489 0.12269 0.00623 0.0
O189 O 0.75121 0.15859 0.01903 0.0
O190 O 0.79121 0.14964 0.9772 0.0
C191 C 0.74243 0.13683 0.00984 0.0
O192 O 0.77304 0.14535 0.07097 0.0
C193 C 0.79471 0.17198 0.97752 0.0
O194 O 0.79139 0.17575 0.05634 0.0
O195 O 0.79841 0.1861 0.99747 0.0
C196 C 0.13839 0.56101 0.27852 0.0
O197 O 0.1215 0.55948 0.26419 0.0
Cd198 Cd 0.12345 0.5604 0.22385 0.0
O199 O 0.15614 0.55808 0.27144 0.0
Cd200 Cd 0.17242 0.54805 0.23656 0.0
C201 C 0.16995 0.60503 0.24161 0.0
O202 O 0.14309 0.53217 0.20987 0.0
O203 O 0.17226 0.54681 0.19487 0.0
O204 O 0.17541 0.51307 0.24756 0.0
C205 C 0.15173 0.53761 0.19207 0.0
O206 O 0.15008 0.59946 0.23197 0.0
C207 C 0.19614 0.51793 0.24871 0.0
O208 O 0.18058 0.5896 0.24512 0.0
O209 O 0.20616 0.5376 0.2435 0.0
C210 C 0.86151 0.93371 0.52767 0.0
O211 O 0.84846 0.94219 0.51563 0.0
Cd212 Cd 0.81002 0.92816 0.50635 0.0
O213 O 0.85415 0.91617 0.5378 0.0
Cd214 Cd 0.81551 0.89085 0.53922 0.0
C215 C 0.81141 0.87086 0.48139 0.0
O216 O 0.79488 0.92105 0.54089 0.0
O217 O 0.77571 0.88542 0.52595 0.0
O218 O 0.82079 0.891 0.58155 0.0
C219 C 0.77617 0.90729 0.5332 0.0
O220 O 0.80722 0.89081 0.47928 0.0
C221 C 0.81416 0.86844 0.57977 0.0
O222 O 0.81667 0.86613 0.50142 0.0
O223 O 0.80909 0.85603 0.55903 0.0
C224 C 0.9647 0.05869 0.30465 0.0
O225 O 0.96941 0.04519 0.28756 0.0
Cd226 Cd 0.9442 0.04773 0.25518 0.0
O227 O 0.95054 0.07061 0.29932 0.0
Cd228 Cd 0.92865 0.0687 0.25395 0.0
C229 C 0.90613 1.00464 0.24999 0.0
O230 O 0.96316 0.07019 0.22894 0.0
O231 O 0.9325 0.05753 0.20766 0.0
O232 O 0.92501 0.11427 0.26697 0.0
C233 C 0.95321 0.06383 0.20803 0.0
O234 O 0.92429 1.00556 0.24214 0.0
C235 C 0.90552 0.11248 0.25751 0.0
O236 O 0.90181 0.0251 0.25715 0.0
O237 O 0.8964 0.09115 0.24654 0.0
C238 C 0.31994 0.62011 0.53024 0.0
O239 O 0.30462 0.60565 0.53699 0.0
Cd240 Cd 0.26871 0.61064 0.54042 0.0
O241 O 0.3171 0.63923 0.52415 0.0
Cd242 Cd 0.28815 0.65853 0.51885 0.0
C243 C 0.28036 0.66725 0.57443 0.0
O244 O 0.25958 0.62334 0.50514 0.0
O245 O 0.24972 0.6562 0.51561 0.0
O246 O 0.29664 0.66295 0.48088 0.0
C247 C 0.24437 0.63405 0.50669 0.0
O248 O 0.27189 0.64482 0.57175 0.0
C249 C 0.29341 0.68387 0.48314 0.0
O250 O 0.28923 0.6767 0.55839 0.0
O251 O 0.29271 0.69473 0.50383 0.0
C252 C 0.46593 0.55756 0.80325 0.0
O253 O 0.47231 0.54391 0.78741 0.0
Cd254 Cd 0.4593 0.53345 0.74598 0.0
O255 O 0.45141 0.56874 0.7968 0.0
Cd256 Cd 0.42818 0.56908 0.75332 0.0
C257 C 0.40705 0.50314 0.74939 0.0
O258 O 0.46122 0.56877 0.72848 0.0
O259 O 0.43066 0.56115 0.70709 0.0
O260 O 0.42581 0.61533 0.76303 0.0
C261 C 0.45134 0.56474 0.7076 0.0
O262 O 0.42548 0.50176 0.74289 0.0
C263 C 0.40521 0.61291 0.75826 0.0
O264 O 0.40333 0.52423 0.75512 0.0
O265 O 0.39488 0.59089 0.7517 0.0
C266 C 0.64379 0.0556 0.77595 0.0
O267 O 0.62643 0.04789 0.76129 0.0
Cd268 Cd 0.62852 0.059 0.72385 0.0
O269 O 0.6624 0.06098 0.76913 0.0
Cd270 Cd 0.67957 0.05587 0.73433 0.0
C271 C 0.66962 0.10925 0.74778 0.0
O272 O 0.65146 0.03674 0.70596 0.0
O273 O 0.67913 0.05806 0.69319 0.0
O274 O 0.68281 0.02221 0.74772 0.0
C275 C 0.6598 0.04459 0.68894 0.0
O276 O 0.64985 0.1009 0.738 0.0
C277 C 0.70336 0.02658 0.74746 0.0
O278 O 0.68327 0.09629 0.74835 0.0
O279 O 0.71325 0.04512 0.74018 0.0
C280 C 0.81689 0.66175 0.01083 0.0
O281 O 0.8033 0.64975 0.02178 0.0
Cd282 Cd 0.76654 0.65194 0.024 0.0
O283 O 0.81133 0.67632 0.9987 0.0
Cd284 Cd 0.77739 0.69103 0.99034 0.0
C285 C 0.78078 0.7124 0.04804 0.0
O286 O 0.74976 0.65354 0.98635 0.0
O287 O 0.73733 0.68511 0.99252 0.0
O288 O 0.78121 0.69028 0.94884 0.0
C289 C 0.73332 0.66235 0.98847 0.0
O290 O 0.7734 0.69063 0.04971 0.0
C291 C 0.78369 0.71268 0.94991 0.0
O292 O 0.7851 0.7183 0.02856 0.0
O293 O 0.78323 0.72522 0.96986 0.0
C294 C 0.96024 0.52204 0.82501 0.0
O295 O 0.97229 0.51649 0.80972 0.0
Cd296 Cd 0.97041 0.51467 0.76846 0.0
O297 O 0.94341 0.52953 0.81998 0.0
Cd298 Cd 0.92473 0.53341 0.78397 0.0
C299 C 0.92247 0.47438 0.76455 0.0
O300 O 0.95242 0.54423 0.76109 0.0
O301 O 0.91964 0.53214 0.74237 0.0
O302 O 0.91613 0.56978 0.79871 0.0
C303 C 0.94007 0.53724 0.74154 0.0
O304 O 0.9417 0.47801 0.75874 0.0
C305 C 0.89573 0.56137 0.79179 0.0
O306 O 0.9145 0.49102 0.77456 0.0
O307 O 0.88876 0.53881 0.78453 0.0
C308 C 0.85729 0.45846 0.51222 0.0
O309 O 0.85041 0.47719 0.51715 0.0
Cd310 Cd 0.81942 0.47115 0.48787 0.0
O311 O 0.84533 0.44059 0.49795 0.0
Cd312 Cd 0.80795 0.42937 0.50479 0.0
C313 C 0.81617 0.41655 0.4521 0.0
O314 O 0.79104 0.46218 0.51116 0.0
O315 O 0.77001 0.4268 0.49455 0.0
O316 O 0.82166 0.4365 0.54496 0.0
C317 C 0.77208 0.44863 0.50401 0.0
O318 O 0.82058 0.43932 0.45427 0.0
C319 C 0.8183 0.41439 0.54591 0.0
O320 O 0.80934 0.40643 0.4686 0.0
O321 O 0.80783 0.39898 0.52797 0.0
C322 C 0.63581 0.52746 0.31925 0.0
O323 O 0.62783 0.53995 0.30646 0.0
Cd324 Cd 0.63675 0.54534 0.26747 0.0
O325 O 0.65022 0.51654 0.31091 0.0
Cd326 Cd 0.67057 0.51319 0.26859 0.0
C327 C 0.68974 0.57905 0.27177 0.0
O328 O 0.63519 0.50933 0.23878 0.0
O329 O 0.66523 0.5179 0.22484 0.0
O330 O 0.67446 0.46777 0.26872 0.0
C331 C 0.64451 0.51359 0.22086 0.0
O332 O 0.66933 0.57811 0.26877 0.0
C333 C 0.69455 0.4699 0.26589 0.0
O334 O 0.69574 0.5595 0.27394 0.0
O335 O 0.7039 0.49135 0.26434 0.0
Ho336 Ho 0.02695 0.02772 1.00102 0.0
Ho337 Ho 0.06995 0.05519 0.03092 0.0
C338 C 0.04237 0.08576 0.00647 0.0
C339 C 0.98593 0.01312 0.98548 0.0
C340 C 0.96992 0.02748 0.98338 0.0
C341 C 0.97096 0.04775 1.00068 0.0
C342 C 0.95671 0.06237 0.99775 0.0
C343 C 0.94134 0.05706 0.97738 0.0
C344 C 0.9412 0.03752 0.95953 0.0
C345 C 0.95535 0.02277 0.96258 0.0
C346 C 0.0592 0.02838 0.97114 0.0
C347 C 0.05399 0.99725 0.02605 0.0
C348 C 0.11109 0.07057 0.04597 0.0
C349 C 0.12773 0.05713 0.04842 0.0
C350 C 0.12549 0.03492 0.03348 0.0
C351 C 0.14082 0.02159 0.03662 0.0
C352 C 0.15854 0.03039 0.05465 0.0
C353 C 0.16024 0.05206 0.0702 0.0
C354 C 0.14478 0.06532 0.06717 0.0
C355 C 0.0383 0.05525 0.0613 0.0
O356 O 0.02616 0.06619 1.00156 0.0
O357 O 0.06195 0.08585 0.01646 0.0
O358 O 0.00101 0.01699 0.9718 0.0
O359 O 0.99384 0.01218 0.00682 0.0
O360 O 0.03879 0.01727 0.96565 0.0
O361 O 0.06155 0.03754 0.9932 0.0
O362 O 0.07041 0.01662 0.03123 0.0
O363 O 0.03458 0.99719 0.01575 0.0
O364 O 0.09619 0.06651 0.05981 0.0
O365 O 0.10286 0.07055 0.02448 0.0
O366 O 0.05879 0.06622 0.06598 0.0
O367 O 0.03509 0.04557 0.03918 0.0
H368 H 0.98265 0.05222 0.01656 0.0
H369 H 0.95706 0.0771 0.01198 0.0
H370 H 0.92968 0.03321 0.94355 0.0
H371 H 0.95494 1.00769 0.94871 0.0
H372 H 0.11209 0.02805 0.01922 0.0
H373 H 0.13949 1.00507 0.02421 0.0
H374 H 0.17391 0.05905 0.08415 0.0
H375 H 0.14626 0.08207 0.07925 0.0
Ho376 Ho 0.30183 0.7822 0.24152 0.0
Ho377 Ho 0.28298 0.79559 0.2875 0.0
C378 C 0.30832 0.83673 0.26579 0.0
C379 C 0.3083 0.77904 0.19849 0.0
C380 C 0.32086 0.79821 0.18797 0.0
C381 C 0.31428 0.81972 0.18819 0.0
C382 C 0.32653 0.8382 0.17906 0.0
C383 C 0.34561 0.83559 0.16939 0.0
C384 C 0.35282 0.8146 0.17024 0.0
C385 C 0.3405 0.79602 0.17944 0.0
C386 C 0.33461 0.7911 0.27838 0.0
C387 C 0.28604 0.74079 0.26813 0.0
C388 C 0.26642 0.79869 0.32631 0.0
C389 C 0.258 0.78035 0.33968 0.0
C390 C 0.26894 0.76235 0.34216 0.0
C391 C 0.25916 0.74285 0.35159 0.0
C392 C 0.23817 0.74087 0.35853 0.0
C393 C 0.22724 0.75892 0.35599 0.0
C394 C 0.23713 0.77856 0.34662 0.0
C395 C 0.25807 0.79571 0.24733 0.0
O396 O 0.30364 0.82109 0.24588 0.0
O397 O 0.30453 0.83077 0.28618 0.0
O398 O 0.31978 0.77079 0.21358 0.0
O399 O 0.29001 0.78248 0.20561 0.0
O400 O 0.33715 0.78629 0.25644 0.0
O401 O 0.31503 0.79227 0.27931 0.0
O402 O 0.28386 0.75707 0.28598 0.0
O403 O 0.28995 0.74573 0.24744 0.0
O404 O 0.25494 0.79547 0.30573 0.0
O405 O 0.28761 0.8043 0.3256 0.0
O406 O 0.26182 0.81231 0.26598 0.0
O407 O 0.26818 0.77974 0.25047 0.0
H408 H 0.2995 0.82231 0.19518 0.0
H409 H 0.32027 0.85394 0.17836 0.0
H410 H 0.36752 0.81219 0.16299 0.0
H411 H 0.34619 0.77985 0.17965 0.0
H412 H 0.28491 0.76314 0.33651 0.0
H413 H 0.26841 0.7297 0.35406 0.0
H414 H 0.21119 0.75795 0.36144 0.0
H415 H 0.22829 0.7921 0.34429 0.0
Ho416 Ho 0.57393 0.03941 0.51525 0.0
Ho417 Ho 0.52498 0.04023 0.51764 0.0
C418 C 0.53669 0.98964 0.51184 0.0
C419 C 0.61306 0.0332 0.51906 0.0
C420 C 0.62393 0.01349 0.5127 0.0
C421 C 0.62505 0.997 0.52759 0.0
C422 C 0.63834 0.98102 0.52369 0.0
C423 C 0.65069 0.98117 0.50484 0.0
C424 C 0.64842 0.99631 0.4889 0.0
C425 C 0.63514 0.01243 0.49283 0.0
C426 C 0.54949 0.03677 0.47472 0.0
C427 C 0.56208 0.08972 0.51953 0.0
C428 C 0.48621 0.04736 0.51345 0.0
C429 C 0.4759 0.06724 0.52104 0.0
C430 C 0.47645 0.08576 0.50817 0.0
C431 C 0.46377 0.10225 0.51317 0.0
C432 C 0.45026 0.10038 0.53094 0.0
C433 C 0.45088 0.08305 0.54491 0.0
C434 C 0.46367 0.06664 0.54005 0.0
C435 C 0.54986 0.04535 0.5587 0.0
O436 O 0.55753 1.00137 0.51832 0.0
O437 O 0.5213 1.00082 0.50686 0.0
O438 O 0.60474 0.04137 0.50159 0.0
O439 O 0.60071 0.03181 0.53601 0.0
O440 O 0.57006 0.04767 0.47913 0.0
O441 O 0.54347 0.02658 0.49111 0.0
O442 O 0.54127 0.07791 0.51332 0.0
O443 O 0.57741 0.07889 0.52563 0.0
O444 O 0.49352 0.03734 0.53004 0.0
O445 O 0.49924 0.04992 0.49727 0.0
O446 O 0.52938 0.03405 0.5549 0.0
O447 O 0.55546 0.05407 0.54139 0.0
H448 H 0.61663 0.99727 0.54301 0.0
H449 H 0.64016 0.96964 0.53633 0.0
H450 H 0.65812 0.99692 0.47447 0.0
H451 H 0.63461 0.02492 0.48103 0.0
H452 H 0.48571 0.08676 0.49343 0.0
H453 H 0.46313 0.11522 0.5019 0.0
H454 H 0.44032 0.08119 0.55851 0.0
H455 H 0.46299 0.05266 0.55034 0.0
Ho456 Ho 0.27672 0.29884 0.76544 0.0
Ho457 Ho 0.32291 0.28369 0.76483 0.0
C458 C 0.30673 0.29973 0.8142 0.0
C459 C 0.2365 0.29976 0.76974 0.0
C460 C 0.22249 0.30139 0.78877 0.0
C461 C 0.21709 0.28287 0.80152 0.0
C462 C 0.20167 0.28347 0.81726 0.0
C463 C 0.19156 0.30267 0.82075 0.0
C464 C 0.19795 0.32192 0.80921 0.0
C465 C 0.21323 0.32123 0.79326 0.0
C466 C 0.31067 0.33862 0.76449 0.0
C467 C 0.29327 0.28327 0.71593 0.0
C468 C 0.36286 0.28188 0.76013 0.0
C469 C 0.37727 0.28166 0.74151 0.0
C470 C 0.37827 0.29741 0.72555 0.0
C471 C 0.39299 0.29735 0.70889 0.0
C472 C 0.4069 0.28151 0.70782 0.0
C473 C 0.40503 0.26506 0.72317 0.0
C474 C 0.39041 0.26518 0.73981 0.0
C475 C 0.28888 0.24443 0.76723 0.0
O476 O 0.28705 0.2984 0.80325 0.0
O477 O 0.32386 0.29751 0.80327 0.0
O478 O 0.252 0.31888 0.76994 0.0
O479 O 0.24278 0.27986 0.76397 0.0
O480 O 0.29032 0.33867 0.76554 0.0
O481 O 0.31153 0.31687 0.76438 0.0
O482 O 0.31261 0.28374 0.72708 0.0
O483 O 0.27623 0.28625 0.72674 0.0
O484 O 0.34665 0.26291 0.75766 0.0
O485 O 0.35728 0.30186 0.76778 0.0
O486 O 0.30946 0.24464 0.76835 0.0
O487 O 0.2882 0.26586 0.76569 0.0
H488 H 0.22409 0.26746 0.79869 0.0
H489 H 0.19687 0.26839 0.82596 0.0
H490 H 0.19015 0.33676 0.81142 0.0
H491 H 0.21714 0.33577 0.78371 0.0
H492 H 0.36797 0.30997 0.72617 0.0
H493 H 0.39368 0.30995 0.69705 0.0
H494 H 0.41552 0.25272 0.72307 0.0
H495 H 0.38971 0.25268 0.75176 0.0
Ho496 Ho 0.04853 0.06431 0.52753 0.0
Ho497 Ho 0.05677 0.01966 0.50565 0.0
C498 C 0.03482 0.04595 0.46938 0.0
C499 C 0.04525 0.10795 0.53563 0.0
C500 C 0.04278 0.1233 0.5185 0.0
C501 C 0.05372 0.12183 0.49854 0.0
C502 C 0.05198 0.13681 0.48258 0.0
C503 C 0.03891 0.15331 0.48603 0.0
C504 C 0.02667 0.15347 0.50509 0.0
C505 C 0.02873 0.13867 0.52132 0.0
C506 C 0.01659 0.02562 0.53032 0.0
C507 C 0.06997 0.03771 0.56359 0.0
C508 C 0.06007 0.97601 0.49682 0.0
C509 C 0.06082 0.95928 0.51284 0.0
C510 C 0.05021 0.96121 0.53303 0.0
C511 C 0.05018 0.94475 0.54783 0.0
C512 C 0.06056 0.9261 0.54242 0.0
C513 C 0.07207 0.92481 0.52293 0.0
C514 C 0.07237 0.94154 0.50828 0.0
C515 C 0.08861 0.05824 0.50225 0.0
O516 O 0.03943 0.06399 0.48788 0.0
O517 O 0.03883 0.02512 0.47204 0.0
O518 O 0.02859 0.08973 0.53458 0.0
O519 O 0.06403 0.10214 0.53769 0.0
O520 O 0.02438 0.04374 0.54755 0.0
O521 O 0.02599 0.02909 0.51252 0.0
O522 O 0.06381 0.01934 0.54544 0.0
O523 O 0.06768 0.05911 0.56058 0.0
O524 O 0.07698 0.99437 0.50035 0.0
O525 O 0.04146 0.982 0.49356 0.0
O526 O 0.08146 0.03932 0.48582 0.0
O527 O 0.07931 0.05515 0.52019 0.0
H528 H 0.06405 0.10945 0.49549 0.0
H529 H 0.06179 0.13625 0.46826 0.0
H530 H 0.01605 0.16558 0.5079 0.0
H531 H 0.01963 0.13947 0.53622 0.0
H532 H 0.04124 0.97486 0.53692 0.0
H533 H 0.04087 0.94563 0.56257 0.0
H534 H 0.07991 0.91024 0.51849 0.0
H535 H 0.08093 0.94013 0.49298 0.0
Ho536 Ho 0.32079 0.81066 0.76187 0.0
Ho537 Ho 0.28003 0.77373 0.76634 0.0
C538 C 0.32437 0.75379 0.76613 0.0
C539 C 0.36013 0.83622 0.77037 0.0
C540 C 0.38035 0.82815 0.77402 0.0
C541 C 0.38641 0.82154 0.79541 0.0
C542 C 0.40532 0.81347 0.79868 0.0
C543 C 0.41856 0.81195 0.78068 0.0
C544 C 0.41177 0.81706 0.7588 0.0
C545 C 0.39295 0.82536 0.75558 0.0
C546 C 0.29827 0.78475 0.72154 0.0
C547 C 0.27636 0.83045 0.76176 0.0
C548 C 0.24136 0.74622 0.75618 0.0
C549 C 0.22006 0.75187 0.7518 0.0
C550 C 0.21112 0.75093 0.72855 0.0
C551 C 0.19234 0.75888 0.72412 0.0
C552 C 0.18198 0.76762 0.74282 0.0
C553 C 0.19049 0.76803 0.76605 0.0
C554 C 0.20946 0.76024 0.77053 0.0
C555 C 0.30328 0.7983 0.80682 0.0
O556 O 0.33461 0.77693 0.76675 0.0
O557 O 0.3026 0.74786 0.76481 0.0
O558 O 0.34938 0.82968 0.74904 0.0
O559 O 0.34736 0.83377 0.78675 0.0
O560 O 0.30806 0.80732 0.72364 0.0
O561 O 0.30207 0.77763 0.74028 0.0
O562 O 0.26624 0.80756 0.76231 0.0
O563 O 0.29807 0.8364 0.76213 0.0
O564 O 0.2515 0.75297 0.77781 0.0
O565 O 0.2544 0.75074 0.74034 0.0
O566 O 0.29274 0.77588 0.80419 0.0
O567 O 0.29933 0.80647 0.78866 0.0
H568 H 0.37684 0.82304 0.80987 0.0
H569 H 0.41026 0.80994 0.81583 0.0
H570 H 0.42161 0.81576 0.74454 0.0
H571 H 0.38841 0.82986 0.73877 0.0
H572 H 0.21885 0.74443 0.71375 0.0
H573 H 0.18571 0.75778 0.706 0.0
H574 H 0.18259 0.77453 0.78069 0.0
H575 H 0.21597 0.76116 0.78864 0.0
Ho576 Ho 0.546 0.04189 0.03675 0.0
Ho577 Ho 0.54697 0.0426 0.98586 0.0
C578 C 0.50213 0.02956 1.00242 0.0
C579 C 0.5352 0.04157 0.07797 0.0
C580 C 0.5228 0.0212 0.087 0.0
C581 C 0.50071 0.01947 0.08949 0.0
C582 C 0.4892 1.00132 0.09961 0.0
C583 C 0.49978 0.98488 0.10789 0.0
C584 C 0.52107 0.98493 0.10293 0.0
C585 C 0.53256 1.00302 0.09259 0.0
C586 C 0.54893 0.99987 0.0106 0.0
C587 C 0.59161 0.05428 0.02153 0.0
C588 C 0.55609 0.04268 0.94425 0.0
C589 C 0.57073 0.0628 0.93692 0.0
C590 C 0.59283 0.06292 0.93609 0.0
C591 C 0.60674 0.08166 0.92886 0.0
C592 C 0.59867 0.10038 0.92179 0.0
C593 C 0.57731 0.10174 0.9254 0.0
C594 C 0.56335 0.08295 0.93266 0.0
C595 C 0.54521 0.08495 0.01223 0.0
O596 O 0.51316 0.04463 0.02126 0.0
O597 O 0.51285 0.02196 0.98554 0.0
O598 O 0.55482 0.04065 0.07319 0.0
O599 O 0.52412 0.04902 0.0619 0.0
O600 O 0.55761 1.00788 0.03219 0.0
O601 O 0.53746 0.01338 0.00479 0.0
O602 O 0.58125 0.04323 1.00048 0.0
O603 O 0.58076 0.06099 0.03869 0.0
O604 O 0.53763 0.04655 0.95041 0.0
O605 O 0.56555 0.03171 0.95853 0.0
O606 O 0.53566 0.07686 0.99092 0.0
O607 O 0.55626 0.07096 0.01781 0.0
H608 H 0.49259 0.03284 0.08469 0.0
H609 H 0.47282 1.00191 0.10327 0.0
H610 H 0.5295 0.97238 0.10907 0.0
H611 H 0.54938 1.00338 0.09009 0.0
H612 H 0.59921 0.04807 0.94012 0.0
H613 H 0.62311 0.07994 0.92634 0.0
H614 H 0.57076 0.11608 0.9203 0.0
H615 H 0.54658 0.08386 0.93404 0.0
Ho616 Ho 0.30526 0.31393 0.27399 0.0
Ho617 Ho 0.28611 0.26391 0.25229 0.0
C618 C 0.25283 0.29415 0.26364 0.0
C619 C 0.31648 0.35944 0.28908 0.0
C620 C 0.30306 0.37643 0.29276 0.0
C621 C 0.28359 0.37298 0.27762 0.0
C622 C 0.27009 0.38841 0.28189 0.0
C623 C 0.27607 0.40751 0.30123 0.0
C624 C 0.29513 0.4105 0.31683 0.0
C625 C 0.30857 0.39483 0.31267 0.0
C626 C 0.30343 0.28407 0.30487 0.0
C627 C 0.3384 0.28436 0.26196 0.0
C628 C 0.27709 0.21816 0.23868 0.0
C629 C 0.29208 0.20253 0.23599 0.0
C630 C 0.31049 0.20653 0.25286 0.0
C631 C 0.32587 0.19322 0.24929 0.0
C632 C 0.32316 0.1757 0.22878 0.0
C633 C 0.30498 0.17203 0.21166 0.0
C634 C 0.28952 0.18548 0.21524 0.0
C635 C 0.28864 0.29375 0.22123 0.0
O636 O 0.2696 0.31282 0.26524 0.0
O637 O 0.25551 0.27228 0.26171 0.0
O638 O 0.3139 0.34398 0.30303 0.0
O639 O 0.31652 0.34961 0.26717 0.0
O640 O 0.32017 0.30131 0.3043 0.0
O641 O 0.28829 0.28308 0.28871 0.0
O642 O 0.3219 0.26571 0.26132 0.0
O643 O 0.33538 0.30594 0.26301 0.0
O644 O 0.27856 0.233 0.22409 0.0
O645 O 0.27615 0.22843 0.26023 0.0
O646 O 0.2722 0.27577 0.22073 0.0
O647 O 0.30334 0.29472 0.2378 0.0
H648 H 0.27896 0.35863 0.2623 0.0
H649 H 0.25564 0.38621 0.26938 0.0
H650 H 0.29991 0.42537 0.3317 0.0
H651 H 0.32332 0.3972 0.32476 0.0
H652 H 0.31302 0.2199 0.26886 0.0
H653 H 0.33941 0.196 0.26312 0.0
H654 H 0.30254 0.15849 0.1958 0.0
H655 H 0.27563 0.18266 0.20183 0.0
Ho656 Ho 0.54698 0.56389 0.02714 0.0
Ho657 Ho 0.55462 0.51912 0.006 0.0
C658 C 0.53293 0.54493 0.96923 0.0
C659 C 0.54366 0.60753 0.0348 0.0
C660 C 0.54287 0.62302 0.01751 0.0
C661 C 0.55425 0.62026 0.99797 0.0
C662 C 0.5545 0.63559 0.98203 0.0
C663 C 0.54341 0.65385 0.98546 0.0
C664 C 0.53082 0.65568 0.00402 0.0
C665 C 0.53048 0.64018 0.02 0.0
C666 C 0.51497 0.52603 0.03183 0.0
C667 C 0.5688 0.53782 0.0636 0.0
C668 C 0.55805 0.47553 0.99714 0.0
C669 C 0.5594 0.45886 0.01306 0.0
C670 C 0.5492 0.46055 0.03353 0.0
C671 C 0.54994 0.44422 0.04832 0.0
C672 C 0.56073 0.42589 0.0427 0.0
C673 C 0.572 0.4251 0.02296 0.0
C674 C 0.5714 0.4416 0.00824 0.0
C675 C 0.58657 0.55692 1.00106 0.0
O676 O 0.53804 0.5633 0.98741 0.0
O677 O 0.53638 0.52402 0.97237 0.0
O678 O 0.52678 0.58927 0.03219 0.0
O679 O 0.56225 0.60166 0.0386 0.0
O680 O 0.52332 0.54467 0.04833 0.0
O681 O 0.52389 0.52848 0.01348 0.0
O682 O 0.56229 0.51921 0.04575 0.0
O683 O 0.56658 0.55915 0.06023 0.0
O684 O 0.57486 0.49395 1.00033 0.0
O685 O 0.53933 0.48139 0.99443 0.0
O686 O 0.57837 0.53802 0.98487 0.0
O687 O 0.57772 0.55466 0.01948 0.0
H688 H 0.56374 0.60692 0.99553 0.0
H689 H 0.56458 0.63428 0.96798 0.0
H690 H 0.52252 0.67004 0.00703 0.0
H691 H 0.52128 0.64217 0.03473 0.0
H692 H 0.54004 0.47397 0.03769 0.0
H693 H 0.5409 0.44499 0.06329 0.0
H694 H 0.5805 0.41112 0.01845 0.0
H695 H 0.57976 0.44049 0.99278 0.0
Ho696 Ho 0.8205 0.30964 0.2602 0.0
Ho697 Ho 0.78001 0.27285 0.26625 0.0
C698 C 0.82433 0.25305 0.26524 0.0
C699 C 0.85962 0.33565 0.26902 0.0
C700 C 0.88007 0.32813 0.27323 0.0
C701 C 0.88542 0.3204 0.29421 0.0
C702 C 0.90467 0.31301 0.29793 0.0
C703 C 0.91889 0.31325 0.28077 0.0
C704 C 0.91285 0.3195 0.25922 0.0
C705 C 0.89371 0.32713 0.25559 0.0
C706 C 0.79703 0.28349 0.22044 0.0
C707 C 0.77616 0.32948 0.26019 0.0
C708 C 0.74093 0.24641 0.25904 0.0
C709 C 0.72062 0.2538 0.25452 0.0
C710 C 0.72007 0.27144 0.24085 0.0
C711 C 0.701 0.27875 0.23643 0.0
C712 C 0.68196 0.26807 0.24501 0.0
C713 C 0.68271 0.25129 0.25967 0.0
C714 C 0.70207 0.24423 0.26448 0.0
C715 C 0.80333 0.30027 0.3057 0.0
O716 O 0.83448 0.27624 0.26603 0.0
O717 O 0.80257 0.24695 0.26399 0.0
O718 O 0.84919 0.32856 0.24754 0.0
O719 O 0.84662 0.33335 0.28526 0.0
O720 O 0.80737 0.30585 0.22211 0.0
O721 O 0.80116 0.27635 0.23915 0.0
O722 O 0.76625 0.30653 0.26087 0.0
O723 O 0.79787 0.33552 0.26059 0.0
O724 O 0.75163 0.25482 0.28023 0.0
O725 O 0.75355 0.2481 0.24241 0.0
O726 O 0.79393 0.2777 0.30452 0.0
O727 O 0.79887 0.3064 0.28661 0.0
H728 H 0.87503 0.32049 0.30802 0.0
H729 H 0.90902 0.30856 0.31481 0.0
H730 H 0.92346 0.31955 0.2456 0.0
H731 H 0.88973 0.33253 0.23909 0.0
H732 H 0.73418 0.27918 0.23298 0.0
H733 H 0.70085 0.29193 0.2253 0.0
H734 H 0.66811 0.24272 0.26634 0.0
H735 H 0.7024 0.23092 0.27541 0.0
Ho736 Ho 0.04882 0.54474 0.53328 0.0
Ho737 Ho 0.04069 0.54538 0.48151 0.0
C738 C 1.00053 0.5271 0.50585 0.0
C739 C 0.04458 0.54291 0.57637 0.0
C740 C 0.03027 0.52428 0.5861 0.0
C741 C 0.0086 0.52522 0.58862 0.0
C742 C 0.9956 0.50867 0.59938 0.0
C743 C 0.00418 0.49113 0.6082 0.0
C744 C 0.02503 0.48869 0.60362 0.0
C745 C 0.03803 0.50521 0.59272 0.0
C746 C 0.05195 0.50456 0.50457 0.0
C747 C 0.0898 0.56303 0.5112 0.0
C748 C 0.04493 0.54503 0.43836 0.0
C749 C 0.06355 0.56037 0.43038 0.0
C750 C 0.08028 0.55031 0.42237 0.0
C751 C 0.09952 0.56492 0.41799 0.0
C752 C 0.10246 0.58998 0.42135 0.0
C753 C 0.08585 0.60015 0.42973 0.0
C754 C 0.06658 0.58549 0.43422 0.0
C755 C 0.03712 0.58511 0.50978 0.0
O756 O 0.01297 0.54091 0.52463 0.0
O757 O 0.0086 0.52252 0.48594 0.0
O758 O 0.06054 0.53657 0.56628 0.0
O759 O 0.03477 0.55563 0.56453 0.0
O760 O 0.06411 0.5137 0.52441 0.0
O761 O 0.03812 0.51642 0.50129 0.0
O762 O 0.07725 0.55374 0.49085 0.0
O763 O 0.08155 0.56663 0.53108 0.0
O764 O 0.03157 0.55607 0.4489 0.0
O765 O 0.04996 0.52869 0.44927 0.0
O766 O 0.02484 0.57563 0.48992 0.0
O767 O 0.05141 0.57373 0.51333 0.0
H768 H 0.00197 0.53942 0.58333 0.0
H769 H 0.97965 0.51119 0.60286 0.0
H770 H 0.03193 0.47526 0.61024 0.0
H771 H 0.0545 0.50366 0.59048 0.0
H772 H 0.07858 0.53109 0.41971 0.0
H773 H 0.11166 0.55632 0.4109 0.0
H774 H 0.08757 0.61936 0.43229 0.0
H775 H 0.05418 0.59391 0.44092 0.0
Ho776 Ho 0.77603 0.79914 0.265 0.0
Ho777 Ho 0.82333 0.78667 0.26596 0.0
C778 C 0.80577 0.80172 0.31455 0.0
C779 C 0.73558 0.79897 0.26931 0.0
C780 C 0.72171 0.80072 0.28848 0.0
C781 C 0.71666 0.78239 0.30152 0.0
C782 C 0.70128 0.78293 0.31731 0.0
C783 C 0.6908 0.80186 0.32055 0.0
C784 C 0.69691 0.82101 0.3088 0.0
C785 C 0.71217 0.82037 0.2928 0.0
C786 C 0.80906 0.84007 0.26473 0.0
C787 C 0.79273 0.78108 0.2162 0.0
C788 C 0.8641 0.79055 0.26061 0.0
C789 C 0.87694 0.78621 0.24082 0.0
C790 C 0.8869 0.80539 0.23053 0.0
C791 C 0.90094 0.80219 0.21367 0.0
C792 C 0.90547 0.77969 0.2066 0.0
C793 C 0.89457 0.76019 0.21604 0.0
C794 C 0.88062 0.76344 0.23305 0.0
C795 C 0.79084 0.74544 0.26647 0.0
O796 O 0.78611 0.79939 0.30302 0.0
O797 O 0.82335 0.80038 0.30415 0.0
O798 O 0.75058 0.81828 0.26881 0.0
O799 O 0.74242 0.77937 0.2641 0.0
O800 O 0.78842 0.83915 0.26476 0.0
O801 O 0.81045 0.8186 0.26503 0.0
O802 O 0.81187 0.78165 0.2278 0.0
O803 O 0.77595 0.78614 0.22637 0.0
O804 O 0.85186 0.77188 0.2668 0.0
O805 O 0.85456 0.8083 0.26108 0.0
O806 O 0.81168 0.74688 0.26689 0.0
O807 O 0.78878 0.76675 0.26585 0.0
H808 H 0.72388 0.76714 0.29886 0.0
H809 H 0.69676 0.76795 0.3262 0.0
H810 H 0.68889 0.83565 0.31083 0.0
H811 H 0.71582 0.83478 0.28305 0.0
H812 H 0.88448 0.82319 0.23612 0.0
H813 H 0.9091 0.81776 0.20715 0.0
H814 H 0.8972 0.74246 0.21075 0.0
H815 H 0.87317 0.74822 0.24052 0.0
Ho816 Ho 0.80618 0.28865 0.73992 0.0
Ho817 Ho 0.78595 0.29182 0.78955 0.0
C818 C 0.80675 0.33932 0.77162 0.0
C819 C 0.81323 0.28914 0.69736 0.0
C820 C 0.8268 0.30827 0.6877 0.0
C821 C 0.81847 0.32769 0.68317 0.0
C822 C 0.83154 0.34663 0.67551 0.0
C823 C 0.85318 0.34654 0.67192 0.0
C824 C 0.86166 0.32726 0.67653 0.0
C825 C 0.84857 0.30826 0.68447 0.0
C826 C 0.83768 0.29452 0.77784 0.0
C827 C 0.78783 0.241 0.75925 0.0
C828 C 0.77733 0.29225 0.83156 0.0
C829 C 0.76005 0.2762 0.8405 0.0
C830 C 0.75728 0.25124 0.83488 0.0
C831 C 0.74349 0.23637 0.84649 0.0
C832 C 0.73234 0.2463 0.86394 0.0
C833 C 0.73238 0.27074 0.86656 0.0
C834 C 0.74648 0.28571 0.85514 0.0
C835 C 0.75437 0.28746 0.75179 0.0
O836 O 0.80549 0.32695 0.75008 0.0
O837 O 0.80366 0.32945 0.79028 0.0
O838 O 0.82375 0.2786 0.71117 0.0
O839 O 0.7958 0.29406 0.70549 0.0
O840 O 0.84164 0.29415 0.75631 0.0
O841 O 0.81752 0.29316 0.77739 0.0
O842 O 0.78713 0.25366 0.78017 0.0
O843 O 0.79172 0.25041 0.74042 0.0
O844 O 0.77065 0.30618 0.81851 0.0
O845 O 0.79263 0.28262 0.82329 0.0
O846 O 0.75092 0.28856 0.77351 0.0
O847 O 0.77429 0.28721 0.75194 0.0
H848 H 0.80176 0.32827 0.68538 0.0
H849 H 0.82426 0.36081 0.67124 0.0
H850 H 0.87817 0.32665 0.67341 0.0
H851 H 0.85542 0.29355 0.68793 0.0
H852 H 0.76691 0.24328 0.82283 0.0
H853 H 0.74386 0.21763 0.84384 0.0
H854 H 0.72357 0.27872 0.87954 0.0
H855 H 0.74781 0.30487 0.85891 0.0
Ho856 Ho 0.80376 0.8132 0.77492 0.0
Ho857 Ho 0.7866 0.7634 0.75197 0.0
C858 C 0.75157 0.79061 0.7643 0.0
C859 C 0.81299 0.8585 0.79132 0.0
C860 C 0.79849 0.87433 0.79453 0.0
C861 C 0.77819 0.86823 0.78031 0.0
C862 C 0.76419 0.88323 0.78289 0.0
C863 C 0.77082 0.90488 0.79908 0.0
C864 C 0.79048 0.91044 0.81435 0.0
C865 C 0.80429 0.89493 0.81221 0.0
C866 C 0.80332 0.78265 0.80496 0.0
C867 C 0.83838 0.7859 0.7627 0.0
C868 C 0.77969 0.71808 0.73666 0.0
C869 C 0.79521 0.70304 0.73548 0.0
C870 C 0.81206 0.70666 0.75412 0.0
C871 C 0.82767 0.69339 0.75234 0.0
C872 C 0.82679 0.67643 0.73183 0.0
C873 C 0.8104 0.67351 0.71284 0.0
C874 C 0.79466 0.68676 0.71469 0.0
C875 C 0.78782 0.79413 0.72178 0.0
O876 O 0.76764 0.80995 0.76599 0.0
O877 O 0.75526 0.76917 0.76181 0.0
O878 O 0.8104 0.84247 0.80465 0.0
O879 O 0.8141 0.84952 0.76942 0.0
O880 O 0.81938 0.80085 0.80501 0.0
O881 O 0.78812 0.78121 0.78872 0.0
O882 O 0.82246 0.76672 0.76214 0.0
O883 O 0.8345 0.80712 0.76384 0.0
O884 O 0.78258 0.73377 0.72296 0.0
O885 O 0.77631 0.72712 0.75776 0.0
O886 O 0.77172 0.77579 0.72131 0.0
O887 O 0.80267 0.79536 0.7383 0.0
H888 H 0.77366 0.85265 0.7663 0.0
H889 H 0.74929 0.87922 0.77057 0.0
H890 H 0.79586 0.92753 0.82647 0.0
H891 H 0.81984 0.89952 0.8235 0.0
H892 H 0.8131 0.71958 0.77017 0.0
H893 H 0.83982 0.69568 0.76749 0.0
H894 H 0.80946 0.66056 0.69685 0.0
H895 H 0.78207 0.68432 0.69993 0.0
Ho896 Ho 0.5289 0.52876 0.50191 0.0
Ho897 Ho 0.56978 0.55667 0.53241 0.0
C898 C 0.54329 0.58675 0.50653 0.0
C899 C 0.48818 0.51306 0.48499 0.0
C900 C 0.47131 0.52634 0.48347 0.0
C901 C 0.47304 0.54752 0.49981 0.0
C902 C 0.45789 0.5612 0.49732 0.0
C903 C 0.44083 0.55385 0.47844 0.0
C904 C 0.43976 0.53327 0.4615 0.0
C905 C 0.45497 0.51959 0.46401 0.0
C906 C 0.56111 0.5292 0.47231 0.0
C907 C 0.55578 0.4985 0.52738 0.0
C908 C 0.61057 0.57212 0.54939 0.0
C909 C 0.62723 0.55847 0.54909 0.0
C910 C 0.6234 0.53681 0.53289 0.0
C911 C 0.6384 0.52281 0.53305 0.0
C912 C 0.65762 0.53051 0.54913 0.0
C913 C 0.66105 0.55151 0.56617 0.0
C914 C 0.64575 0.56547 0.56621 0.0
C915 C 0.53788 0.55655 0.56222 0.0
O916 O 0.52723 0.56706 0.50152 0.0
O917 O 0.56261 0.5871 0.51719 0.0
O918 O 0.50357 0.51916 0.47218 0.0
O919 O 0.49582 0.51114 0.5061 0.0
O920 O 0.54092 0.51731 0.46722 0.0
O921 O 0.56388 0.53907 0.49431 0.0
O922 O 0.57124 0.51864 0.53316 0.0
O923 O 0.53663 0.49763 0.51588 0.0
O924 O 0.59527 0.56482 0.56191 0.0
O925 O 0.6027 0.57544 0.52891 0.0
O926 O 0.55812 0.56831 0.56685 0.0
O927 O 0.53463 0.54643 0.54022 0.0
H928 H 0.48599 0.55339 0.51461 0.0
H929 H 0.45891 0.57682 0.5108 0.0
H930 H 0.4268 0.52741 0.44673 0.0
H931 H 0.45395 0.50373 0.45083 0.0
H932 H 0.609 0.53091 0.51979 0.0
H933 H 0.63557 0.50656 0.51984 0.0
H934 H 0.67594 0.55765 0.57859 0.0
H935 H 0.64852 0.58183 0.57924 0.0
Ho936 Ho 0.07399 0.54312 0.01148 0.0
Ho937 Ho 0.02451 0.53989 0.01881 0.0
C938 C 0.03853 0.49112 0.00697 0.0
C939 C 0.11363 0.53806 0.01336 0.0
C940 C 0.12501 0.51846 0.00858 0.0
C941 C 0.12643 0.50303 0.02456 0.0
C942 C 0.1394 0.48654 0.02131 0.0
C943 C 0.15131 0.4851 1.00204 0.0
C944 C 0.14897 0.49968 0.98541 0.0
C945 C 0.13605 0.51623 0.98871 0.0
C946 C 0.04678 0.54384 0.97445 0.0
C947 C 0.05858 0.59161 0.02116 0.0
C948 C 0.98501 0.54442 0.02028 0.0
C949 C 0.97396 0.56421 0.02323 0.0
C950 C 0.97691 0.58156 0.00892 0.0
C951 C 0.96452 0.59865 0.01043 0.0
C952 C 0.94905 0.59877 0.02634 0.0
C953 C 0.94725 0.58242 0.04176 0.0
C954 C 0.95957 0.56525 0.04015 0.0
C955 C 0.05246 0.54123 0.05614 0.0
O956 O 0.05932 0.50364 0.01142 0.0
O957 O 0.02192 0.50132 0.00578 0.0
O958 O 0.1034 0.54339 0.99512 0.0
O959 O 0.10281 0.53877 0.03156 0.0
O960 O 0.06755 0.55387 0.97671 0.0
O961 O 0.04238 0.53138 0.98973 0.0
O962 O 0.03811 0.57839 0.01632 0.0
O963 O 0.07575 0.58222 0.0233 0.0
O964 O 0.99775 0.54308 0.03876 0.0
O965 O 0.99325 0.54001 1.00058 0.0
O966 O 0.03241 0.52844 0.05276 0.0
O967 O 0.05625 0.55306 0.04033 0.0
H968 H 0.11816 0.50423 0.04007 0.0
H969 H 0.14098 0.47583 0.03461 0.0
H970 H 0.15763 0.49878 0.97018 0.0
H971 H 0.13526 0.52782 0.97605 0.0
H972 H 0.98828 0.58153 0.99608 0.0
H973 H 0.96658 0.61135 0.99866 0.0
H974 H 0.93547 0.58201 0.05419 0.0
H975 H 0.95729 0.55222 0.0516 0.0
H976 H 0.05164 0.22421 0.96456 0.0
H977 H 0.00284 0.09547 0.99572 0.0
H978 H 0.98476 0.18361 0.94329 0.0
H979 H 0.07232 0.12666 1.0018 0.0
H980 H 0.99579 0.13045 0.98156 0.0
H981 H 0.0594 0.19119 0.9825 0.0
C982 C 0.0385 0.20846 0.96401 0.0
C983 C 0.01746 0.20663 0.95255 0.0
C984 C 0.0126 0.1297 0.98598 0.0
C985 C 0.02615 0.16895 0.97322 0.0
C986 C 0.01665 0.10971 0.99413 0.0
C987 C 0.03822 0.10799 0.9998 0.0
C988 C 0.03019 0.14823 0.98335 0.0
C989 C 0.05543 0.12723 0.99766 0.0
C990 C 0.04298 0.1896 0.97412 0.0
C991 C 0.00117 0.1857 0.95191 0.0
N992 N 0.05105 0.14651 0.98947 0.0
N993 N 0.00582 0.16776 0.96222 0.0
H994 H 0.13413 0.79025 0.17232 0.0
H995 H 0.25933 0.83223 0.22411 0.0
H996 H 0.17893 0.84315 0.14492 0.0
H997 H 0.22133 0.76112 0.22497 0.0
H998 H 0.23013 0.8375 0.19625 0.0
H999 H 0.16519 0.78029 0.19308 0.0
C1000 C 0.15049 0.79987 0.17069 0.0
C1001 C 0.15384 0.8177 0.15689 0.0
C1002 C 0.22832 0.82052 0.20207 0.0
C1003 C 0.1897 0.80658 0.18113 0.0
C1004 C 0.24503 0.81745 0.21786 0.0
C1005 C 0.24291 0.79605 0.22647 0.0
C1006 C 0.2089 0.80234 0.19535 0.0
C1007 C 0.22381 0.77769 0.21832 0.0
C1008 C 0.16827 0.79402 0.18248 0.0
C1009 C 0.17555 0.82932 0.15537 0.0
N1010 N 0.20737 0.7814 0.20352 0.0
N1011 N 0.19262 0.82384 0.16762 0.0
H1012 H 0.54623 0.84244 0.47687 0.0
H1013 H 0.49998 0.96003 0.48517 0.0
H1014 H 0.49431 0.85129 0.42837 0.0
H1015 H 0.56116 0.95919 0.52426 0.0
H1016 H 0.49357 0.9172 0.47029 0.0
H1017 H 0.54801 0.8824 0.50026 0.0
C1018 C 0.53493 0.85264 0.47153 0.0
C1019 C 0.52007 0.84387 0.45088 0.0
C1020 C 0.50826 0.92627 0.48239 0.0
C1021 C 0.52196 0.889 0.47709 0.0
C1022 C 0.51189 0.95075 0.49103 0.0
C1023 C 0.53123 0.96323 0.50585 0.0
C1024 C 0.52403 0.91411 0.48869 0.0
C1025 C 0.54613 0.95025 0.51267 0.0
C1026 C 0.536 0.87537 0.48471 0.0
C1027 C 0.50594 0.85763 0.44429 0.0
N1028 N 0.5423 0.92635 0.50387 0.0
N1029 N 0.50727 0.87956 0.45731 0.0
H1030 H 0.52052 0.25639 0.64819 0.0
H1031 H 0.43274 0.32232 0.69794 0.0
H1032 H 0.52494 0.33141 0.64913 0.0
H1033 H 0.42189 0.24518 0.68277 0.0
H1034 H 0.46478 0.32568 0.67719 0.0
H1035 H 0.48301 0.25136 0.65752 0.0
C1036 C 0.51345 0.27178 0.65021 0.0
C1037 C 0.52586 0.29442 0.64824 0.0
C1038 C 0.45523 0.30799 0.67808 0.0
C1039 C 0.48309 0.28897 0.65943 0.0
C1040 C 0.43678 0.30603 0.68984 0.0
C1041 C 0.4246 0.28343 0.69238 0.0
C1042 C 0.46178 0.28724 0.66889 0.0
C1043 C 0.431 0.26302 0.68175 0.0
C1044 C 0.49203 0.2689 0.65549 0.0
C1045 C 0.51589 0.3137 0.65062 0.0
N1046 N 0.44926 0.26543 0.67074 0.0
N1047 N 0.4952 0.31063 0.65653 0.0
H1048 H 0.98749 0.79691 0.5767 0.0
H1049 H 0.07578 0.92187 0.58678 0.0
H1050 H 0.03216 0.83196 0.63979 0.0
H1051 H 0.03191 0.88447 0.52394 0.0
H1052 H 0.06156 0.88838 0.60648 0.0
H1053 H 0.00414 0.82909 0.55703 0.0
C1054 C 0.00073 0.81149 0.58638 0.0
C1055 C 0.00833 0.81208 0.60985 0.0
C1056 C 0.0552 0.88744 0.58832 0.0
C1057 C 0.02784 0.84846 0.58752 0.0
C1058 C 0.06339 0.90638 0.57716 0.0
C1059 C 0.05505 0.90544 0.55381 0.0
C1060 C 0.03832 0.86797 0.57603 0.0
C1061 C 0.03888 0.88541 0.5419 0.0
C1062 C 0.01033 0.82977 0.57519 0.0
C1063 C 0.02559 0.83122 0.62174 0.0
N1064 N 0.03089 0.86751 0.55322 0.0
N1065 N 0.03488 0.84866 0.61038 0.0
H1066 H 0.54219 0.7983 0.84918 0.0
H1067 H 0.45484 0.83881 0.76839 0.0
H1068 H 0.55095 0.86697 0.8278 0.0
H1069 H 0.43389 0.78229 0.80706 0.0
H1070 H 0.49222 0.8431 0.78468 0.0
H1071 H 0.50364 0.78769 0.83088 0.0
C1072 C 0.53592 0.81112 0.84076 0.0
C1073 C 0.54968 0.83327 0.8393 0.0
C1074 C 0.47953 0.82955 0.78949 0.0
C1075 C 0.50639 0.82138 0.81868 0.0
C1076 C 0.45815 0.82676 0.7798 0.0
C1077 C 0.44121 0.81021 0.78643 0.0
C1078 C 0.48414 0.81586 0.80609 0.0
C1079 C 0.44656 0.7955 0.8018 0.0
C1080 C 0.51409 0.80506 0.83037 0.0
C1081 C 0.54099 0.84943 0.82858 0.0
N1082 N 0.46771 0.79883 0.81141 0.0
N1083 N 0.51991 0.84311 0.8186 0.0
H1084 H 0.47879 0.18555 0.0785 0.0
H1085 H 0.55397 0.09354 0.0601 0.0
H1086 H 0.5042 0.15476 0.13452 0.0
H1087 H 0.51742 0.1123 1.00267 0.0
H1088 H 0.53608 0.11645 0.08789 0.0
H1089 H 0.49133 0.15757 0.05011 0.0
C1090 C 0.48659 0.1726 0.08478 0.0
C1091 C 0.49087 0.1728 0.10891 0.0
C1092 C 0.53197 0.11554 0.0692 0.0
C1093 C 0.50564 0.14126 0.07671 0.0
C1094 C 0.54233 0.1027 0.05341 0.0
C1095 C 0.537 0.10108 0.02919 0.0
C1096 C 0.51648 0.12699 0.06058 0.0
C1097 C 0.52187 0.11317 0.02129 0.0
C1098 C 0.49387 0.15674 0.0686 0.0
C1099 C 0.50084 0.15547 0.11608 0.0
N1100 N 0.5121 0.12567 0.03699 0.0
N1101 N 0.50827 0.14066 0.10005 0.0
H1102 H 0.18455 0.36016 0.35828 0.0
H1103 H 0.21636 0.26091 0.26856 0.0
H1104 H 0.14762 0.28632 0.34192 0.0
H1105 H 0.24131 0.33688 0.27143 0.0
H1106 H 0.18819 0.26967 0.29183 0.0
H1107 H 0.20529 0.35193 0.32549 0.0
C1108 C 0.1814 0.34208 0.34814 0.0
C1109 C 0.16518 0.32359 0.35298 0.0
C1110 C 0.19953 0.28442 0.28694 0.0
C1111 C 0.18754 0.31432 0.31518 0.0
C1112 C 0.21555 0.27942 0.2735 0.0
C1113 C 0.23178 0.29835 0.26911 0.0
C1114 C 0.20004 0.30843 0.296 0.0
C1115 C 0.22961 0.32188 0.27535 0.0
C1116 C 0.19273 0.33749 0.32917 0.0
C1117 C 0.16065 0.30071 0.33892 0.0
N1118 N 0.21435 0.32637 0.28915 0.0
N1119 N 0.17188 0.29663 0.32061 0.0
H1120 H 0.99712 0.08275 0.20337 0.0
H1121 H 0.99307 0.03135 0.06239 0.0
H1122 H 0.9371 0.04158 0.16072 0.0
H1123 H 0.04907 0.07951 0.10688 0.0
H1124 H 0.9723 0.03302 0.09683 0.0
H1125 H 0.01595 0.08017 0.16813 0.0
C1126 C 0.98773 0.07312 0.18668 0.0
C1127 C 0.9651 0.06255 0.18568 0.0
C1128 C 0.98914 0.04331 0.09903 0.0
C1129 C 0.98731 0.05912 0.14394 0.0
C1130 C 0.0011 0.04238 0.07912 0.0
C1131 C 0.02322 0.0554 0.08103 0.0
C1132 C 0.99909 0.05729 0.12147 0.0
C1133 C 0.03224 0.06908 0.10384 0.0
C1134 C 0.99865 0.07162 0.16627 0.0
C1135 C 0.95438 0.0503 0.1629 0.0
N1136 N 0.02044 0.06959 0.12261 0.0
N1137 N 0.96541 0.04889 0.14335 0.0
H1138 H 0.2908 0.66384 0.43689 0.0
H1139 H 0.21918 0.7463 0.39871 0.0
H1140 H 0.26862 0.71638 0.4839 0.0
H1141 H 0.2387 0.6932 0.34984 0.0
H1142 H 0.22459 0.72432 0.42968 0.0
H1143 H 0.26414 0.66676 0.40517 0.0
C1144 C 0.28067 0.6764 0.44038 0.0
C1145 C 0.2823 0.69033 0.46289 0.0
C1146 C 0.22712 0.71701 0.41204 0.0
C1147 C 0.25121 0.69304 0.42703 0.0
C1148 C 0.22368 0.72942 0.39419 0.0
C1149 C 0.22996 0.72233 0.37212 0.0
C1150 C 0.23744 0.69808 0.40767 0.0
C1151 C 0.235 0.69995 0.36714 0.0
C1152 C 0.26508 0.6776 0.42245 0.0
C1153 C 0.26839 0.70581 0.46666 0.0
N1154 N 0.23966 0.68906 0.38513 0.0
N1155 N 0.25345 0.70676 0.44888 0.0
H1156 H 0.66605 0.07476 0.65743 0.0
H1157 H 0.5427 0.02282 0.59551 0.0
H1158 H 0.61982 0.01525 0.67471 0.0
H1159 H 0.59054 0.0745 0.56982 0.0
H1160 H 0.56981 0.02471 0.62889 0.0
H1161 H 0.6378 0.0784 0.62752 0.0
C1162 C 0.65012 0.06219 0.65456 0.0
C1163 C 0.64514 0.04456 0.66825 0.0
C1164 C 0.57432 0.03573 0.61598 0.0
C1165 C 0.61299 0.049 0.63502 0.0
C1166 C 0.55887 0.03468 0.5971 0.0
C1167 C 0.56474 0.04811 0.57993 0.0
C1168 C 0.59562 0.05018 0.61734 0.0
C1169 C 0.58568 0.06349 0.58262 0.0
C1170 C 0.63398 0.06449 0.63782 0.0
C1171 C 0.62424 0.02901 0.66436 0.0
N1172 N 0.60057 0.06394 0.60096 0.0
N1173 N 0.60886 0.03168 0.64812 0.0
H1174 H 0.33842 0.38702 0.94893 0.0
H1175 H 0.27668 0.28601 0.84316 0.0
H1176 H 0.28879 0.32746 0.9605 0.0
H1177 H 0.34315 0.32599 0.84384 0.0
H1178 H 0.28007 0.29997 0.88582 0.0
H1179 H 0.33989 0.36467 0.91003 0.0
C1180 C 0.32802 0.36901 0.94327 0.0
C1181 C 0.31346 0.35897 0.95773 0.0
C1182 C 0.29402 0.30531 0.87668 0.0
C1183 C 0.31476 0.33344 0.91317 0.0
C1184 C 0.29207 0.29749 0.85239 0.0
C1185 C 0.30962 0.3051 0.84007 0.0
C1186 C 0.31346 0.3213 0.88849 0.0
C1187 C 0.32926 0.31973 0.85274 0.0
C1188 C 0.32892 0.35623 0.92115 0.0
C1189 C 0.30029 0.33565 0.94976 0.0
N1190 N 0.33052 0.32774 0.87624 0.0
N1191 N 0.30095 0.32373 0.92769 0.0
H1192 H 0.98862 0.02814 0.31809 0.0
H1193 H 0.01874 0.08406 0.45756 0.0
H1194 H 0.96492 0.08823 0.34934 0.0
H1195 H 0.0273 0.01519 0.42557 0.0
H1196 H 0.00177 0.08821 0.41899 0.0
H1197 H 0.00506 0.02572 0.35689 0.0
C1198 C 0.98682 0.04104 0.33303 0.0
C1199 C 0.97503 0.05848 0.32971 0.0
C1200 C 0.00733 0.07217 0.42034 0.0
C1201 C 0.99464 0.0557 0.37568 0.0
C1202 C 0.01719 0.06977 0.44253 0.0
C1203 C 0.02469 0.04915 0.44538 0.0
C1204 C 0.00497 0.054 0.40024 0.0
C1205 C 0.02192 0.03143 0.42476 0.0
C1206 C 0.99633 0.03952 0.35549 0.0
C1207 C 0.97364 0.0744 0.35048 0.0
N1208 N 0.01253 0.03432 0.40344 0.0
N1209 N 0.98331 0.07269 0.37229 0.0
H1210 H 0.28696 0.65903 0.61864 0.0
H1211 H 0.27708 0.78896 0.67968 0.0
H1212 H 0.27057 0.71042 0.57898 0.0
H1213 H 0.30785 0.74199 0.71354 0.0
H1214 H 0.26835 0.75824 0.64318 0.0
H1215 H 0.28781 0.68716 0.65506 0.0
C1216 C 0.28331 0.67619 0.61775 0.0
C1217 C 0.27916 0.68288 0.59617 0.0
C1218 C 0.27698 0.75482 0.65872 0.0
C1219 C 0.27995 0.71486 0.6372 0.0
C1220 C 0.282 0.77227 0.67931 0.0
C1221 C 0.29303 0.76776 0.69935 0.0
C1222 C 0.28331 0.73316 0.65857 0.0
C1223 C 0.29902 0.74596 0.69844 0.0
C1224 C 0.28382 0.69223 0.63839 0.0
C1225 C 0.27439 0.70511 0.59557 0.0
N1226 N 0.29415 0.7295 0.67832 0.0
N1227 N 0.27502 0.72052 0.61593 0.0
H1228 H 0.612 0.03729 0.80079 0.0
H1229 H 0.64253 0.12043 0.92058 0.0
H1230 H 0.67135 0.09311 0.80656 0.0
H1231 H 0.57847 0.10452 0.88015 0.0
H1232 H 0.658 0.11182 0.88379 0.0
H1233 H 0.60412 0.05796 0.83796 0.0
C1234 C 0.62348 0.05367 0.81011 0.0
C1235 C 0.642 0.06383 0.80058 0.0
C1236 C 0.64071 0.1112 0.88312 0.0
C1237 C 0.63287 0.08772 0.84215 0.0
C1238 C 0.63192 0.11645 0.90396 0.0
C1239 C 0.60905 0.11174 0.90346 0.0
C1240 C 0.62632 0.10161 0.86224 0.0
C1241 C 0.5961 0.10746 0.88154 0.0
C1242 C 0.6189 0.06556 0.83101 0.0
C1243 C 0.65676 0.08486 0.81344 0.0
N1244 N 0.60477 0.10129 0.86176 0.0
N1245 N 0.65173 0.09645 0.83365 0.0
H1246 H 0.30104 0.31928 0.07986 0.0
H1247 H 0.30794 0.34037 0.22051 0.0
H1248 H 0.31694 0.38941 0.12472 0.0
H1249 H 0.27897 0.27187 0.17514 0.0
H1250 H 0.31422 0.35833 0.18567 0.0
H1251 H 0.29593 0.30105 0.11468 0.0
C1252 C 0.30355 0.33085 0.09702 0.0
C1253 C 0.30952 0.35593 0.09937 0.0
C1254 C 0.30656 0.33934 0.18331 0.0
C1255 C 0.30359 0.33519 0.13924 0.0
C1256 C 0.30306 0.32914 0.20318 0.0
C1257 C 0.29285 0.30475 0.20057 0.0
C1258 C 0.30022 0.32487 0.16072 0.0
C1259 C 0.28667 0.29087 0.17779 0.0
C1260 C 0.30056 0.32043 0.11687 0.0
C1261 C 0.31248 0.37001 0.12205 0.0
N1262 N 0.29055 0.3011 0.15871 0.0
N1263 N 0.30948 0.35946 0.14107 0.0
H1264 H 0.23855 0.93075 0.02362 0.0
H1265 H 0.19982 0.05212 0.05061 0.0
H1266 H 0.26679 0.99613 1.00018 0.0
H1267 H 0.15878 0.98371 0.05599 0.0
H1268 H 0.2286 0.0325 0.04001 0.0
H1269 H 0.21189 0.95027 0.0415 0.0
C1270 C 0.23876 0.94901 0.02181 0.0
C1271 C 0.25461 0.96193 0.01036 0.0
C1272 C 0.21347 0.02179 0.04394 0.0
C1273 C 0.22493 0.98425 0.03102 0.0
C1274 C 0.19722 0.03303 0.05029 0.0
C1275 C 0.1771 0.01938 0.05411 0.0
C1276 C 0.20947 0.99678 0.04141 0.0
C1277 C 0.17418 0.99466 0.05302 0.0
C1278 C 0.22382 0.96017 0.03222 0.0
C1279 C 0.25473 0.98565 0.0089 0.0
N1280 N 0.19024 0.98399 0.04653 0.0
N1281 N 0.2401 0.9961 0.0192 0.0
H1282 H 0.71982 0.61351 0.9777 0.0
H1283 H 0.60453 0.60249 0.02692 0.0
H1284 H 0.69775 0.67621 0.00511 0.0
H1285 H 0.61818 0.54801 0.97459 0.0
H1286 H 0.64058 0.62883 0.02489 0.0
H1287 H 0.68462 0.58816 0.98239 0.0
C1288 C 0.70753 0.62197 0.98463 0.0
C1289 C 0.71168 0.64705 0.99074 0.0
C1290 C 0.63561 0.61109 0.01389 0.0
C1291 C 0.6713 0.61802 0.99645 0.0
C1292 C 0.61511 0.59608 0.01508 0.0
C1293 C 0.60826 0.57316 1.00071 0.0
C1294 C 0.64949 0.60282 0.99863 0.0
C1295 C 0.62264 0.56566 0.98575 0.0
C1296 C 0.68742 0.60747 0.98731 0.0
C1297 C 0.69516 0.65696 0.99989 0.0
N1298 N 0.64255 0.58035 0.98521 0.0
N1299 N 0.67571 0.64242 1.00254 0.0
H1300 H 0.7355 0.46691 0.25171 0.0
H1301 H 0.73301 0.3296 0.27018 0.0
H1302 H 0.68127 0.42335 0.2766 0.0
H1303 H 0.7887 0.37614 0.25058 0.0
H1304 H 0.71359 0.36214 0.27147 0.0
H1305 H 0.75405 0.43375 0.24978 0.0
C1306 C 0.72734 0.45052 0.25693 0.0
C1307 C 0.70639 0.44877 0.26447 0.0
C1308 C 0.73002 0.36535 0.26676 0.0
C1309 C 0.7284 0.4093 0.26232 0.0
C1310 C 0.74129 0.34647 0.26594 0.0
C1311 C 0.76299 0.34936 0.2602 0.0
C1312 C 0.74 0.38798 0.26158 0.0
C1313 C 0.77223 0.37236 0.25517 0.0
C1314 C 0.73813 0.43129 0.25579 0.0
C1315 C 0.6972 0.42626 0.27062 0.0
N1316 N 0.76092 0.39023 0.2559 0.0
N1317 N 0.70806 0.40793 0.26949 0.0
H1318 H 0.88297 0.4853 0.55195 0.0
H1319 H 0.97767 0.48398 0.47945 0.0
H1320 H 0.88172 0.4297 0.49234 0.0
H1321 H 0.9787 0.53486 0.54301 0.0
H1322 H 0.94705 0.45626 0.49068 0.0
H1323 H 0.92266 0.49268 0.55895 0.0
C1324 C 0.89114 0.4745 0.54053 0.0
C1325 C 0.87959 0.45826 0.52052 0.0
C1326 C 0.95421 0.47337 0.50233 0.0
C1327 C 0.92444 0.46723 0.52756 0.0
C1328 C 0.97125 0.4894 0.49559 0.0
C1329 C 0.9802 0.51189 0.51002 0.0
C1330 C 0.94598 0.4802 0.5234 0.0
C1331 C 0.97193 0.5178 0.53116 0.0
C1332 C 0.91372 0.47852 0.54456 0.0
C1333 C 0.89043 0.44348 0.50714 0.0
N1334 N 0.95517 0.50209 0.53712 0.0
N1335 N 0.91255 0.44896 0.51033 0.0
H1336 H 0.41343 0.12075 0.30048 0.0
H1337 H 0.31033 0.12708 0.2169 0.0
H1338 H 0.3608 0.05878 0.26944 0.0
H1339 H 0.3677 0.18588 0.23933 0.0
H1340 H 0.33054 0.1002 0.23095 0.0
H1341 H 0.39692 0.14467 0.27714 0.0
C1342 C 0.39807 0.11235 0.28922 0.0
C1343 C 0.38854 0.08778 0.28673 0.0
C1344 C 0.33888 0.11888 0.23234 0.0
C1345 C 0.37 0.11472 0.25948 0.0
C1346 C 0.32746 0.13416 0.22394 0.0
C1347 C 0.33722 0.15882 0.22777 0.0
C1348 C 0.35994 0.12857 0.24482 0.0
C1349 C 0.35946 0.16704 0.23683 0.0
C1350 C 0.38892 0.12586 0.27551 0.0
C1351 C 0.36867 0.07772 0.27191 0.0
N1352 N 0.36997 0.15202 0.24574 0.0
N1353 N 0.36013 0.09124 0.2586 0.0
H1354 H 0.32691 0.12342 0.48464 0.0
H1355 H 0.45081 0.1483 0.54411 0.0
H1356 H 0.35628 0.18816 0.53552 0.0
H1357 H 0.40827 0.07832 0.51592 0.0
H1358 H 0.4193 0.16625 0.53793 0.0
H1359 H 0.36058 0.11009 0.49043 0.0
C1360 C 0.34073 0.13503 0.49666 0.0
C1361 C 0.33909 0.15689 0.50947 0.0
C1362 C 0.41696 0.14698 0.53326 0.0
C1363 C 0.37731 0.14153 0.51692 0.0
C1364 C 0.43479 0.13681 0.53687 0.0
C1365 C 0.43186 0.11189 0.53061 0.0
C1366 C 0.39651 0.13202 0.52269 0.0
C1367 C 0.41101 0.0976 0.52116 0.0
C1368 C 0.35982 0.12735 0.5002 0.0
C1369 C 0.35723 0.17127 0.52514 0.0
N1370 N 0.39421 0.10788 0.51728 0.0
N1371 N 0.37569 0.16325 0.52861 0.0
H1372 H 0.73576 0.59205 0.27119 0.0
H1373 H 0.74458 0.73399 0.26868 0.0
H1374 H 0.68008 0.6231 0.27234 0.0
H1375 H 0.79925 0.70147 0.26577 0.0
H1376 H 0.72067 0.69426 0.27024 0.0
H1377 H 0.7591 0.63192 0.2697 0.0
C1378 C 0.72833 0.60707 0.27131 0.0
C1379 C 0.70558 0.60355 0.27201 0.0
C1380 C 0.73793 0.69582 0.26924 0.0
C1381 C 0.73269 0.65021 0.27015 0.0
C1382 C 0.75167 0.71872 0.2683 0.0
C1383 C 0.77432 0.72169 0.26707 0.0
C1384 C 0.74664 0.67535 0.269 0.0
C1385 C 0.78209 0.70062 0.26674 0.0
C1386 C 0.74175 0.63006 0.27036 0.0
C1387 C 0.69736 0.62434 0.27186 0.0
N1388 N 0.76855 0.67884 0.2677 0.0
N1389 N 0.71066 0.64631 0.27097 0.0
H1390 H 0.92436 0.44281 0.79283 0.0
H1391 H 0.80293 0.36959 0.74173 0.0
H1392 H 0.88856 0.4542 0.73079 0.0
H1393 H 0.83572 0.36573 0.80891 0.0
H1394 H 0.83285 0.40307 0.73878 0.0
H1395 H 0.89226 0.41261 0.79792 0.0
C1396 C 0.90999 0.438 0.77969 0.0
C1397 C 0.90884 0.45043 0.76123 0.0
C1398 C 0.83329 0.39528 0.75443 0.0
C1399 C 0.87207 0.41755 0.76759 0.0
C1400 C 0.81606 0.37651 0.75628 0.0
C1401 C 0.81743 0.36464 0.77518 0.0
C1402 C 0.85178 0.40184 0.77159 0.0
C1403 C 0.8344 0.37428 0.79383 0.0
C1404 C 0.89154 0.42138 0.78293 0.0
C1405 C 0.88988 0.44448 0.745 0.0
N1406 N 0.85141 0.39202 0.79125 0.0
N1407 N 0.872 0.42854 0.74871 0.0
H1408 H 0.093 0.86821 0.04969 0.0
H1409 H 0.03807 0.98016 0.06301 0.0
H1410 H 0.06995 0.89687 0.11332 0.0
H1411 H 0.077 0.96559 0.00785 0.0
H1412 H 0.0454 0.94589 0.07889 0.0
H1413 H 0.08345 0.90027 0.03143 0.0
C1414 C 0.08602 0.88127 0.05986 0.0
C1415 C 0.08246 0.87995 0.08319 0.0
C1416 C 0.05224 0.95002 0.06322 0.0
C1417 C 0.07125 0.91644 0.06228 0.0
C1418 C 0.04796 0.96946 0.05413 0.0
C1419 C 0.057 0.97552 0.03421 0.0
C1420 C 0.06549 0.93639 0.05213 0.0
C1421 C 0.06985 0.96137 0.02334 0.0
C1422 C 0.08056 0.89953 0.04941 0.0
C1423 C 0.07318 0.89725 0.0954 0.0
N1424 N 0.0737 0.94236 0.03241 0.0
N1425 N 0.06787 0.91468 0.08481 0.0
H1426 H 0.92757 0.24822 0.87524 0.0
H1427 H 0.87943 0.32001 0.78492 0.0
H1428 H 0.96325 0.31047 0.85173 0.0
H1429 H 0.83514 0.26877 0.81456 0.0
H1430 H 0.90975 0.316 0.81131 0.0
H1431 H 0.89307 0.25426 0.85567 0.0
C1432 C 0.92823 0.26315 0.86622 0.0
C1433 C 0.9486 0.27847 0.86474 0.0
C1434 C 0.89346 0.30576 0.81253 0.0
C1435 C 0.90936 0.28551 0.84247 0.0
C1436 C 0.87603 0.30822 0.79743 0.0
C1437 C 0.85464 0.29502 0.79767 0.0
C1438 C 0.88991 0.28945 0.82798 0.0
C1439 C 0.85136 0.27965 0.81409 0.0
C1440 C 0.90854 0.26658 0.85503 0.0
C1441 C 0.94825 0.29766 0.85297 0.0
N1442 N 0.86885 0.27702 0.82841 0.0
N1443 N 0.92926 0.30042 0.84236 0.0
H1444 H 0.55952 0.219 0.60654 0.0
H1445 H 0.56333 0.12483 0.49302 0.0
H1446 H 0.59319 0.245 0.55112 0.0
H1447 H 0.56974 0.11258 0.56415 0.0
H1448 H 0.56682 0.16797 0.50872 0.0
H1449 H 0.55278 0.17819 0.58462 0.0
C1450 C 0.56536 0.21606 0.58959 0.0
C1451 C 0.57746 0.2352 0.58086 0.0
C1452 C 0.56759 0.15573 0.52073 0.0
C1453 C 0.56999 0.18853 0.55584 0.0
C1454 C 0.56568 0.13137 0.51187 0.0
C1455 C 0.56648 0.11559 0.52749 0.0
C1456 C 0.56945 0.16366 0.54516 0.0
C1457 C 0.56932 0.12444 0.55168 0.0
C1458 C 0.56155 0.1928 0.57714 0.0
C1459 C 0.58406 0.23055 0.55849 0.0
N1460 N 0.57046 0.14786 0.55978 0.0
N1461 N 0.58054 0.20743 0.54675 0.0
H1462 H 0.59218 0.80565 0.41671 0.0
H1463 H 0.65366 0.76718 0.30767 0.0
H1464 H 0.56204 0.75333 0.35404 0.0
H1465 H 0.68277 0.83072 0.3602 0.0
H1466 H 0.62059 0.76148 0.3265 0.0
H1467 H 0.62614 0.81481 0.39862 0.0
C1468 C 0.59274 0.796 0.39925 0.0
C1469 C 0.57427 0.77855 0.38689 0.0
C1470 C 0.63413 0.7767 0.33408 0.0
C1471 C 0.61288 0.78892 0.36623 0.0
C1472 C 0.65305 0.77986 0.32336 0.0
C1473 C 0.67097 0.79921 0.33258 0.0
C1474 C 0.63302 0.79286 0.35449 0.0
C1475 C 0.66925 0.81546 0.35269 0.0
C1476 C 0.61205 0.80135 0.38891 0.0
C1477 C 0.57581 0.76684 0.36426 0.0
N1478 N 0.6506 0.81181 0.36318 0.0
N1479 N 0.59472 0.77217 0.35478 0.0
H1480 H 0.08245 0.24247 0.3869 0.0
H1481 H 0.03973 0.20034 0.50144 0.0
H1482 H 0.08951 0.28856 0.45491 0.0
H1483 H 0.04306 0.15028 0.43881 0.0
H1484 H 0.05069 0.23315 0.48102 0.0
H1485 H 0.06294 0.20874 0.40306 0.0
C1486 C 0.07994 0.24543 0.40524 0.0
C1487 C 0.0877 0.26819 0.41972 0.0
C1488 C 0.04884 0.21498 0.47164 0.0
C1489 C 0.06514 0.2301 0.43801 0.0
C1490 C 0.04222 0.19611 0.48319 0.0
C1491 C 0.04078 0.17246 0.47198 0.0
C1492 C 0.05434 0.21025 0.44882 0.0
C1493 C 0.04454 0.1683 0.44835 0.0
C1494 C 0.06874 0.22626 0.41437 0.0
C1495 C 0.08401 0.27121 0.44326 0.0
N1496 N 0.05152 0.1871 0.43762 0.0
N1497 N 0.07292 0.25234 0.45167 0.0
H1498 H 0.57085 0.25787 0.14679 0.0
H1499 H 0.64755 0.27597 0.2683 0.0
H1500 H 0.5471 0.26824 0.21421 0.0
H1501 H 0.66844 0.26668 0.19938 0.0
H1502 H 0.61118 0.27661 0.24987 0.0
H1503 H 0.60756 0.26423 0.16682 0.0
C1504 C 0.57342 0.26155 0.16587 0.0
C1505 C 0.55603 0.26241 0.17893 0.0
C1506 C 0.62388 0.27474 0.23892 0.0
C1507 C 0.59798 0.26971 0.20204 0.0
C1508 C 0.6445 0.27435 0.24939 0.0
C1509 C 0.66088 0.27136 0.23529 0.0
C1510 C 0.61985 0.27188 0.21431 0.0
C1511 C 0.65636 0.26942 0.21092 0.0
C1512 C 0.5944 0.26526 0.17733 0.0
C1513 C 0.5602 0.26739 0.20358 0.0
N1514 N 0.63622 0.26956 0.20122 0.0
N1515 N 0.58087 0.27073 0.21444 0.0
H1516 H 0.63467 0.9202 0.94856 0.0
H1517 H 0.53219 0.97745 0.96535 0.0
H1518 H 0.58105 0.91003 0.89354 0.0
H1519 H 0.58862 0.99047 0.01775 0.0
H1520 H 0.55026 0.95424 0.93764 0.0
H1521 H 0.61906 0.94875 0.97318 0.0
C1522 C 0.61976 0.92434 0.94168 0.0
C1523 C 0.60916 0.91327 0.91916 0.0
C1524 C 0.55867 0.96226 0.95519 0.0
C1525 C 0.59076 0.9448 0.94713 0.0
C1526 C 0.54833 0.9753 0.97096 0.0
C1527 C 0.55882 0.9853 0.99387 0.0
C1528 C 0.57965 0.95957 0.96253 0.0
C1529 C 0.57979 0.98247 1.00038 0.0
C1530 C 0.61078 0.94047 0.95564 0.0
C1531 C 0.58977 0.91875 0.91082 0.0
N1532 N 0.58951 0.96985 0.98477 0.0
N1533 N 0.58098 0.93399 0.92495 0.0
H1534 H 0.92382 0.71071 0.69912 0.0
H1535 H 0.86879 0.81638 0.74482 0.0
H1536 H 0.93575 0.77833 0.67532 0.0
H1537 H 0.85513 0.74754 0.76622 0.0
H1538 H 0.89618 0.80427 0.72209 0.0
H1539 H 0.89792 0.72383 0.7235 0.0
C1540 C 0.92057 0.72813 0.6987 0.0
C1541 C 0.93211 0.74372 0.68573 0.0
C1542 C 0.88739 0.79195 0.73201 0.0
C1543 C 0.90334 0.75909 0.71392 0.0
C1544 C 0.87203 0.79897 0.74529 0.0
C1545 C 0.85933 0.7825 0.75666 0.0
C1546 C 0.88993 0.76848 0.73044 0.0
C1547 C 0.86425 0.76038 0.75703 0.0
C1548 C 0.90606 0.73574 0.71281 0.0
C1549 C 0.92722 0.76592 0.68533 0.0
N1550 N 0.879 0.75377 0.74364 0.0
N1551 N 0.91337 0.77319 0.69967 0.0
H1552 H 0.13567 0.99499 0.8515 0.0
H1553 H 0.07025 0.06416 0.94501 0.0
H1554 H 0.11422 0.0585 0.843 0.0
H1555 H 0.08206 0.99563 0.95152 0.0
H1556 H 0.08897 0.06334 0.90959 0.0
H1557 H 0.11918 0.99547 0.88879 0.0
C1558 C 0.12781 0.0092 0.85734 0.0
C1559 C 0.1268 0.02681 0.84337 0.0
C1560 C 0.08798 0.04861 0.91892 0.0
C1561 C 0.10745 0.02752 0.88712 0.0
C1562 C 0.07745 0.04926 0.93962 0.0
C1563 C 0.07521 0.03052 0.95255 0.0
C1564 C 0.09658 0.0289 0.91022 0.0
C1565 C 0.08397 0.01109 0.94314 0.0
C1566 C 0.11819 0.00941 0.87882 0.0
C1567 C 0.11579 0.0444 0.85254 0.0
N1568 N 0.09419 0.01087 0.92301 0.0
N1569 N 0.10688 0.0443 0.87331 0.0
H1570 H 0.837 0.37693 0.54403 0.0
H1571 H 0.85868 0.39528 0.68061 0.0
H1572 H 0.82654 0.4373 0.59155 0.0
H1573 H 0.8725 0.33718 0.63283 0.0
H1574 H 0.85894 0.41808 0.64904 0.0
H1575 H 0.85919 0.36778 0.57623 0.0
C1576 C 0.83907 0.38793 0.56144 0.0
C1577 C 0.8294 0.40729 0.56558 0.0
C1578 C 0.86274 0.40071 0.64565 0.0
C1579 C 0.85498 0.39738 0.60226 0.0
C1580 C 0.86282 0.38782 0.66374 0.0
C1581 C 0.86459 0.364 0.65887 0.0
C1582 C 0.86425 0.38939 0.62278 0.0
C1583 C 0.87045 0.35529 0.63707 0.0
C1584 C 0.8521 0.38307 0.57968 0.0
C1585 C 0.83336 0.42181 0.588 0.0
N1586 N 0.86929 0.36768 0.61946 0.0
N1587 N 0.84558 0.4163 0.60569 0.0
H1588 H 0.44736 0.02766 0.36177 0.0
H1589 H 0.55719 0.07259 0.45047 0.0
H1590 H 0.51247 0.05129 0.34374 0.0
H1591 H 0.50752 0.01153 0.45939 0.0
H1592 H 0.53321 0.07743 0.41737 0.0
H1593 H 0.46333 0.03193 0.40307 0.0
C1594 C 0.46493 0.03405 0.36667 0.0
C1595 C 0.47884 0.03937 0.34977 0.0
C1596 C 0.52749 0.0632 0.42685 0.0
C1597 C 0.49658 0.04485 0.39594 0.0
C1598 C 0.54116 0.0603 0.44544 0.0
C1599 C 0.53443 0.04112 0.45674 0.0
C1600 C 0.50734 0.04647 0.41939 0.0
C1601 C 0.5133 0.02612 0.45037 0.0
C1602 C 0.47388 0.03645 0.38997 0.0
C1603 C 0.50137 0.04711 0.35642 0.0
N1604 N 0.50045 0.02876 0.43153 0.0
N1605 N 0.50958 0.04975 0.37914 0.0
H1606 H 0.81475 0.71699 0.0808 0.0
H1607 H 0.76591 0.79223 0.18155 0.0
H1608 H 0.75949 0.74618 0.06524 0.0
H1609 H 0.81527 0.75317 0.19239 0.0
H1610 H 0.76578 0.781 0.13866 0.0
H1611 H 0.81926 0.7377 0.12154 0.0
C1612 C 0.80397 0.72843 0.08597 0.0
C1613 C 0.7868 0.73008 0.06994 0.0
C1614 C 0.77664 0.77505 0.15057 0.0
C1615 C 0.79108 0.75294 0.11662 0.0
C1616 C 0.77656 0.78124 0.17492 0.0
C1617 C 0.79069 0.77372 0.19047 0.0
C1618 C 0.79087 0.76124 0.14202 0.0
C1619 C 0.80431 0.75968 0.1811 0.0
C1620 C 0.80633 0.74003 0.10925 0.0
C1621 C 0.77299 0.74473 0.07731 0.0
N1622 N 0.80403 0.75393 0.15759 0.0
N1623 N 0.7752 0.75541 0.10038 0.0
H1624 H 0.16047 0.04216 0.69032 0.0
H1625 H 0.06032 0.99774 0.58483 0.0
H1626 H 0.10128 0.99239 0.69852 0.0
H1627 H 0.1022 0.06915 0.59751 0.0
H1628 H 0.07689 0.99192 0.62295 0.0
H1629 H 0.14197 0.04863 0.65371 0.0
C1630 C 0.14361 0.03239 0.68446 0.0
C1631 C 0.1327 0.01658 0.69803 0.0
C1632 C 0.08248 0.00889 0.61746 0.0
C1633 C 0.11109 0.02374 0.65486 0.0
C1634 C 0.07302 0.01224 0.59551 0.0
C1635 C 0.07967 0.03406 0.58751 0.0
C1636 C 0.09948 0.02712 0.63164 0.0
C1637 C 0.09627 0.05205 0.60263 0.0
C1638 C 0.13295 0.03624 0.66342 0.0
C1639 C 0.11062 1.00477 0.68904 0.0
N1640 N 0.10568 0.04808 0.62347 0.0
N1641 N 0.10079 0.00832 0.66814 0.0
H1642 H 0.82705 0.37392 0.44893 0.0
H1643 H 0.79857 0.34535 0.3109 0.0
H1644 H 0.81438 0.42555 0.40751 0.0
H1645 H 0.82138 0.29621 0.34926 0.0
H1646 H 0.80697 0.37567 0.34623 0.0
H1647 H 0.829 0.34664 0.41297 0.0
C1648 C 0.82473 0.37948 0.43218 0.0
C1649 C 0.81988 0.40159 0.43089 0.0
C1650 C 0.81058 0.35848 0.34701 0.0
C1651 C 0.82204 0.37065 0.39001 0.0
C1652 C 0.80573 0.34106 0.3268 0.0
C1653 C 0.80937 0.31829 0.32731 0.0
C1654 C 0.81916 0.35317 0.36797 0.0
C1655 C 0.81824 0.31358 0.34839 0.0
C1656 C 0.826 0.364 0.41175 0.0
C1657 C 0.81778 0.40844 0.40907 0.0
N1658 N 0.82281 0.33098 0.36811 0.0
N1659 N 0.81851 0.39277 0.38934 0.0
H1660 H 0.48103 0.05046 0.22706 0.0
H1661 H 0.45806 0.96002 0.11162 0.0
H1662 H 0.41896 0.99774 0.21004 0.0
H1663 H 0.5229 0.98807 0.15027 0.0
H1664 H 0.44266 0.96731 0.14841 0.0
H1665 H 0.49622 0.02561 0.19837 0.0
C1666 C 0.47057 0.03375 0.21705 0.0
C1667 C 0.4487 0.02631 0.22056 0.0
C1668 C 0.46028 0.97091 0.14894 0.0
C1669 C 0.46603 0.9974 0.18836 0.0
C1670 C 0.46906 0.96644 0.128 0.0
C1671 C 0.49168 0.97457 0.12783 0.0
C1672 C 0.47438 0.98359 0.16936 0.0
C1673 C 0.50529 0.98225 0.1495 0.0
C1674 C 0.47933 0.01933 0.20107 0.0
C1675 C 0.43581 1.00438 0.2074 0.0
N1676 N 0.4964 0.98762 0.16937 0.0
N1677 N 0.44466 0.99069 0.19167 0.0
H1678 H 0.79951 0.76008 0.94785 0.0
H1679 H 0.77527 0.7404 0.80797 0.0
H1680 H 0.77463 0.68984 0.90393 0.0
H1681 H 0.82403 0.80069 0.8495 0.0
H1682 H 0.77028 0.72326 0.84359 0.0
H1683 H 0.8042 0.77727 0.91232 0.0
C1684 C 0.79498 0.7483 0.93075 0.0
C1685 C 0.78668 0.7235 0.92879 0.0
C1686 C 0.78209 0.74022 0.84482 0.0
C1687 C 0.79175 0.74302 0.88826 0.0
C1688 C 0.7849 0.74995 0.82458 0.0
C1689 C 0.8002 0.77177 0.82586 0.0
C1690 C 0.79433 0.75273 0.86647 0.0
C1691 C 0.81224 0.78363 0.84775 0.0
C1692 C 0.79773 0.7581 0.91053 0.0
C1693 C 0.78115 0.70904 0.90621 0.0
N1694 N 0.80895 0.77404 0.86726 0.0
N1695 N 0.78365 0.71903 0.88681 0.0
H1696 H 0.81881 0.06808 0.01344 0.0
H1697 H 0.9427 0.1049 0.99183 0.0
H1698 H 0.8576 0.14133 0.03141 0.0
H1699 H 0.89829 0.0359 0.96292 0.0
H1700 H 0.91153 0.12034 0.00335 0.0
H1701 H 0.84851 0.05651 0.99436 0.0
C1702 C 0.83386 0.08157 0.01394 0.0
C1703 C 0.83596 0.10557 0.02413 0.0
C1704 C 0.90863 0.10197 0.99403 0.0
C1705 C 0.86964 0.09276 1.00179 0.0
C1706 C 0.92636 0.09321 0.98739 0.0
C1707 C 0.92311 0.06891 0.97707 0.0
C1708 C 0.88777 0.08616 0.99041 0.0
C1709 C 0.90163 0.05468 0.97107 0.0
C1710 C 0.85062 0.07511 1.0026 0.0
C1711 C 0.85553 0.12256 0.02379 0.0
N1712 N 0.88479 0.06339 0.97831 0.0
N1713 N 0.87171 0.11582 0.01272 0.0
H1714 H 0.38963 0.45686 0.06981 0.0
H1715 H 0.49063 0.48988 0.99633 0.0
H1716 H 0.38623 0.43083 0.99544 0.0
H1717 H 0.49045 0.52378 0.06811 0.0
H1718 H 0.45417 0.4641 0.9969 0.0
H1719 H 0.42842 0.47724 0.07094 0.0
C1720 C 0.39725 0.45497 0.05387 0.0
C1721 C 0.38487 0.44206 0.03255 0.0
C1722 C 0.46216 0.47709 0.01257 0.0
C1723 C 0.42903 0.46551 0.03352 0.0
C1724 C 0.48299 0.49178 0.01226 0.0
C1725 C 0.49359 0.50907 0.03219 0.0
C1726 C 0.45182 0.47965 0.03299 0.0
C1727 C 0.48291 0.51072 0.05234 0.0
C1728 C 0.4193 0.46675 0.05443 0.0
C1729 C 0.39532 0.44056 0.01225 0.0
N1730 N 0.46264 0.49632 0.05219 0.0
N1731 N 0.41674 0.45217 0.0132 0.0
H1732 H 0.42361 0.66306 0.76634 0.0
H1733 H 0.30809 0.70441 0.76307 0.0
H1734 H 0.36038 0.61317 0.75414 0.0
H1735 H 0.37006 0.75532 0.76781 0.0
H1736 H 0.32714 0.67192 0.76145 0.0
H1737 H 0.40534 0.69655 0.76838 0.0
C1738 C 0.40589 0.65888 0.76413 0.0
C1739 C 0.39393 0.63445 0.75999 0.0
C1740 C 0.33676 0.69012 0.76286 0.0
C1741 C 0.37219 0.67409 0.76253 0.0
C1742 C 0.32574 0.70906 0.76385 0.0
C1743 C 0.33701 0.73345 0.76566 0.0
C1744 C 0.35979 0.69474 0.76371 0.0
C1745 C 0.36016 0.73726 0.76648 0.0
C1746 C 0.39534 0.67833 0.76528 0.0
C1747 C 0.37078 0.63119 0.7573 0.0
N1748 N 0.3705 0.71849 0.76555 0.0
N1749 N 0.36099 0.65033 0.75867 0.0
H1750 H 0.22592 0.63 0.54591 0.0
H1751 H 0.11172 0.5561 0.47365 0.0
H1752 H 0.2147 0.60695 0.47048 0.0
H1753 H 0.12157 0.58231 0.54891 0.0
H1754 H 0.15089 0.56822 0.47327 0.0
H1755 H 0.18915 0.60669 0.54836 0.0
C1756 C 0.21547 0.62002 0.5299 0.0
C1757 C 0.22267 0.62043 0.50793 0.0
C1758 C 0.14452 0.57121 0.4899 0.0
C1759 C 0.18119 0.59408 0.51044 0.0
C1760 C 0.12215 0.56443 0.49013 0.0
C1761 C 0.11343 0.56903 0.51125 0.0
C1762 C 0.15817 0.58281 0.51089 0.0
C1763 C 0.12767 0.57914 0.53215 0.0
C1764 C 0.1947 0.60665 0.53127 0.0
C1765 C 0.20925 0.60702 0.48762 0.0
N1766 N 0.14946 0.58604 0.5314 0.0
N1767 N 0.18886 0.5945 0.48932 0.0
H1768 H 0.73102 1.00487 0.72492 0.0
H1769 H 0.74121 0.92435 0.82187 0.0
H1770 H 0.70022 0.01129 0.78813 0.0
H1771 H 0.77924 0.92762 0.76402 0.0
H1772 H 0.72413 0.95498 0.8092 0.0
H1773 H 0.74706 0.97406 0.73798 0.0
C1774 C 0.7282 1.00007 0.74182 0.0
C1775 C 0.71493 0.01054 0.75588 0.0
C1776 C 0.73633 0.94905 0.79944 0.0
C1777 C 0.73278 0.97593 0.77085 0.0
C1778 C 0.74601 0.93184 0.80673 0.0
C1779 C 0.76151 0.9241 0.79393 0.0
C1780 C 0.74239 0.95802 0.77933 0.0
C1781 C 0.76733 0.93362 0.77425 0.0
C1782 C 0.7371 0.98249 0.74921 0.0
C1783 C 0.71075 1.00349 0.77717 0.0
N1784 N 0.75767 0.95015 0.76746 0.0
N1785 N 0.71981 0.98654 0.78418 0.0
H1786 H 0.77173 0.95138 0.55161 0.0
H1787 H 0.65628 0.94076 0.47593 0.0
H1788 H 0.73813 0.88666 0.50232 0.0
H1789 H 0.68733 0.99674 0.53538 0.0
H1790 H 0.68741 0.92199 0.48097 0.0
H1791 H 0.74208 0.96961 0.54181 0.0
C1792 C 0.758 0.94095 0.53875 0.0
C1793 C 0.75731 0.91744 0.52793 0.0
C1794 C 0.68735 0.93842 0.4928 0.0
C1795 C 0.72309 0.93829 0.51642 0.0
C1796 C 0.66973 0.94909 0.48987 0.0
C1797 C 0.66937 0.97006 0.50549 0.0
C1798 C 0.70453 0.9491 0.51131 0.0
C1799 C 0.68704 0.98042 0.52318 0.0
C1800 C 0.74104 0.95139 0.53309 0.0
C1801 C 0.73912 0.90478 0.51129 0.0
N1802 N 0.70382 0.96981 0.52564 0.0
N1803 N 0.72265 0.9154 0.50599 0.0
H1804 H 0.37376 0.49345 0.7784 0.0
H1805 H 0.34659 0.34734 0.73864 0.0
H1806 H 0.40475 0.45742 0.72544 0.0
H1807 H 0.31359 0.38358 0.78921 0.0
H1808 H 0.36912 0.38695 0.73481 0.0
H1809 H 0.35237 0.45381 0.78333 0.0
C1810 C 0.37588 0.47739 0.76746 0.0
C1811 C 0.39122 0.47937 0.75124 0.0
C1812 C 0.35716 0.38628 0.74703 0.0
C1813 C 0.36659 0.433 0.75713 0.0
C1814 C 0.34441 0.36344 0.74944 0.0
C1815 C 0.32814 0.36166 0.76459 0.0
C1816 C 0.35392 0.40787 0.75989 0.0
C1817 C 0.3259 0.3837 0.77742 0.0
C1818 C 0.36371 0.45453 0.77045 0.0
C1819 C 0.39327 0.4573 0.73816 0.0
N1820 N 0.33842 0.40547 0.77484 0.0
N1821 N 0.3813 0.43548 0.74134 0.0
H1822 H 0.18252 0.6312 0.28523 0.0
H1823 H 0.28389 0.70158 0.23409 0.0
H1824 H 0.18772 0.63177 0.21193 0.0
H1825 H 0.2727 0.72187 0.30599 0.0
H1826 H 0.25457 0.66557 0.22964 0.0
H1827 H 0.21852 0.65951 0.29583 0.0
C1828 C 0.19083 0.63837 0.2715 0.0
C1829 C 0.18239 0.62959 0.24774 0.0
C1830 C 0.25885 0.6777 0.24656 0.0
C1831 C 0.22361 0.65996 0.25942 0.0
C1832 C 0.27577 0.69809 0.24924 0.0
C1833 C 0.27916 0.71557 0.2698 0.0
C1834 C 0.24582 0.67516 0.26467 0.0
C1835 C 0.26929 0.70949 0.28928 0.0
C1836 C 0.21156 0.65376 0.27747 0.0
C1837 C 0.19374 0.63858 0.23042 0.0
N1838 N 0.25219 0.69006 0.28599 0.0
N1839 N 0.21413 0.65302 0.23659 0.0
H1840 H 0.49602 0.70974 0.47629 0.0
H1841 H 0.57217 0.61966 0.48912 0.0
H1842 H 0.53767 0.69367 0.42426 0.0
H1843 H 0.50623 0.60359 0.50642 0.0
H1844 H 0.56499 0.65422 0.47343 0.0
H1845 H 0.50466 0.67767 0.49558 0.0
C1846 C 0.50694 0.69947 0.46895 0.0
C1847 C 0.51577 0.70399 0.44837 0.0
C1848 C 0.55219 0.64324 0.48088 0.0
C1849 C 0.5263 0.66814 0.47074 0.0
C1850 C 0.5563 0.62365 0.48994 0.0
C1851 C 0.53971 0.60875 0.49896 0.0
C1852 C 0.53156 0.64835 0.48148 0.0
C1853 C 0.51937 0.61457 0.49943 0.0
C1854 C 0.51185 0.68126 0.47993 0.0
C1855 C 0.53011 0.6904 0.43977 0.0
N1856 N 0.51589 0.63403 0.49094 0.0
N1857 N 0.53506 0.67324 0.45108 0.0
H1858 H 0.63998 0.3229 0.68899 0.0
H1859 H 0.75533 0.28609 0.70292 0.0
H1860 H 0.67439 0.3102 0.62925 0.0
H1861 H 0.71558 0.29749 0.75809 0.0
H1862 H 0.72758 0.29495 0.6751 0.0
H1863 H 0.66894 0.31419 0.7139 0.0
C1864 C 0.65373 0.3184 0.68105 0.0
C1865 C 0.65459 0.31739 0.65687 0.0
C1866 C 0.72506 0.29553 0.69334 0.0
C1867 C 0.6884 0.30707 0.68575 0.0
C1868 C 0.74101 0.29059 0.70929 0.0
C1869 C 0.73814 0.29132 0.73313 0.0
C1870 C 0.7061 0.30124 0.70133 0.0
C1871 C 0.71879 0.29671 0.74003 0.0
C1872 C 0.67037 0.31332 0.69538 0.0
C1873 C 0.67299 0.31131 0.6478 0.0
N1874 N 0.70378 0.30147 0.72442 0.0
N1875 N 0.68913 0.30636 0.6622 0.0
H1876 H 0.04336 0.34134 0.97746 0.0
H1877 H 0.00244 0.46167 0.97961 0.0
H1878 H 0.99801 0.35315 0.92331 0.0
H1879 H 0.06351 0.46091 0.01895 0.0
H1880 H 0.99558 0.41865 0.96558 0.0
H1881 H 0.04596 0.38219 0.99948 0.0
C1882 C 0.03367 0.3524 0.97054 0.0
C1883 C 0.02051 0.34425 0.94867 0.0
C1884 C 0.01036 0.4278 0.97751 0.0
C1885 C 0.02326 0.39019 0.97338 0.0
C1886 C 0.01426 0.45236 0.98562 0.0
C1887 C 0.03365 0.46483 1.00036 0.0
C1888 C 0.02586 0.41554 0.9843 0.0
C1889 C 0.04848 0.45189 0.00738 0.0
C1890 C 0.03524 0.3756 0.98294 0.0
C1891 C 0.00838 0.35904 0.94013 0.0
N1892 N 0.04432 0.42783 0.99919 0.0
N1893 N 0.01007 0.38134 0.95249 0.0
H1894 H 0.01821 0.82034 0.1348 0.0
H1895 H 0.93445 0.75118 0.20896 0.0
H1896 H 0.02526 0.75781 0.16255 0.0
H1897 H 0.91759 0.80312 0.17015 0.0
H1898 H 0.96633 0.75166 0.18884 0.0
H1899 H 0.98039 0.81335 0.14454 0.0
C1900 C 0.0118 0.80509 0.14273 0.0
C1901 C 0.02517 0.79005 0.14848 0.0
C1902 C 0.95559 0.76282 0.18447 0.0
C1903 C 0.98211 0.78189 0.15948 0.0
C1904 C 0.93709 0.76238 0.19587 0.0
C1905 C 0.92321 0.77736 0.19162 0.0
C1906 C 0.9607 0.77866 0.16887 0.0
C1907 C 0.92808 0.79175 0.1746 0.0
C1908 C 0.99023 0.80108 0.14824 0.0
C1909 C 0.01588 0.77035 0.15842 0.0
N1910 N 0.94658 0.79233 0.16413 0.0
N1911 N 0.99513 0.76703 0.16376 0.0
H1912 H 0.52451 0.33476 0.14249 0.0
H1913 H 0.54644 0.3791 0.02237 0.0
H1914 H 0.49482 0.29427 0.07353 0.0
H1915 H 0.56465 0.42653 0.0902 0.0
H1916 H 0.5326 0.34587 0.04169 0.0
H1917 H 0.54323 0.36716 0.12429 0.0
C1918 C 0.52158 0.33292 0.12354 0.0
C1919 C 0.5079 0.31198 0.10943 0.0
C1920 C 0.5399 0.36345 0.05242 0.0
C1921 C 0.52949 0.34866 0.08863 0.0
C1922 C 0.54807 0.38233 0.04143 0.0
C1923 C 0.5567 0.40545 0.0548 0.0
C1924 C 0.54037 0.36775 0.07695 0.0
C1925 C 0.55799 0.40887 0.07937 0.0
C1926 C 0.53244 0.3513 0.1132 0.0
C1927 C 0.50514 0.31019 0.08499 0.0
N1928 N 0.54974 0.39016 0.08974 0.0
N1929 N 0.51586 0.32835 0.07534 0.0
H1930 H 0.04171 0.29605 0.34804 0.0
H1931 H 0.95553 0.34249 0.27185 0.0
H1932 H 0.05051 0.36778 0.33385 0.0
H1933 H 0.93381 0.28201 0.30536 0.0
H1934 H 0.99265 0.34636 0.28888 0.0
H1935 H 0.00341 0.28646 0.32924 0.0
C1936 C 0.03549 0.30976 0.34114 0.0
C1937 C 0.04921 0.33255 0.34186 0.0
C1938 C 0.97985 0.33206 0.2924 0.0
C1939 C 0.00617 0.3218 0.32063 0.0
C1940 C 0.95864 0.32955 0.2823 0.0
C1941 C 0.94156 0.31191 0.28723 0.0
C1942 C 0.98413 0.31696 0.3077 0.0
C1943 C 0.9466 0.29603 0.30141 0.0
C1944 C 0.0138 0.30428 0.33045 0.0
C1945 C 0.04058 0.34981 0.33298 0.0
N1946 N 0.96758 0.29904 0.31142 0.0
N1947 N 0.01962 0.34402 0.32264 0.0
H1948 H 0.0074 0.65735 0.63891 0.0
H1949 H 0.00829 0.61147 0.5025 0.0
H1950 H 0.97676 0.68519 0.58371 0.0
H1951 H 0.05246 0.59803 0.55691 0.0
H1952 H 0.99355 0.6354 0.53232 0.0
H1953 H 0.01902 0.62998 0.60911 0.0
C1954 C 0.0027 0.65736 0.62051 0.0
C1955 C 0.99152 0.67391 0.61369 0.0
C1956 C 0.00642 0.62718 0.5378 0.0
C1957 C 0.005 0.64301 0.57981 0.0
C1958 C 0.01491 0.61367 0.52082 0.0
C1959 C 0.03115 0.60241 0.52748 0.0
C1960 C 0.01416 0.62924 0.56159 0.0
C1961 C 0.03953 0.60607 0.55127 0.0
C1962 C 0.00957 0.64193 0.60358 0.0
C1963 C 0.98568 0.67299 0.58969 0.0
N1964 N 0.0307 0.61904 0.56767 0.0
N1965 N 0.99274 0.65795 0.57356 0.0
H1966 H 0.66929 0.79538 0.86664 0.0
H1967 H 0.73486 0.82981 0.76377 0.0
H1968 H 0.66292 0.8558 0.83501 0.0
H1969 H 0.72042 0.75849 0.77956 0.0
H1970 H 0.70733 0.83965 0.78783 0.0
H1971 H 0.68947 0.78238 0.83499 0.0
C1972 C 0.67277 0.80622 0.85334 0.0
C1973 C 0.66498 0.82681 0.85337 0.0
C1974 C 0.70986 0.82169 0.78558 0.0
C1975 C 0.68716 0.81191 0.8171 0.0
C1976 C 0.7255 0.81607 0.77183 0.0
C1977 C 0.73043 0.79369 0.77056 0.0
C1978 C 0.69947 0.8048 0.79815 0.0
C1979 C 0.71743 0.77619 0.7806 0.0
C1980 C 0.68377 0.79857 0.83506 0.0
C1981 C 0.66906 0.83995 0.8355 0.0
N1982 N 0.70288 0.78234 0.79461 0.0
N1983 N 0.68005 0.83234 0.81802 0.0
H1984 H 0.43428 0.55647 0.65963 0.0
H1985 H 0.55123 0.56429 0.60939 0.0
H1986 H 0.49585 0.56841 0.7034 0.0
H1987 H 0.49086 0.54653 0.56226 0.0
H1988 H 0.53072 0.56574 0.64296 0.0
H1989 H 0.45345 0.55323 0.62442 0.0
C1990 C 0.45181 0.55842 0.66206 0.0
C1991 C 0.46311 0.5628 0.68521 0.0
C1992 C 0.52172 0.56147 0.62541 0.0
C1993 C 0.48574 0.55895 0.64379 0.0
C1994 C 0.53355 0.56058 0.60585 0.0
C1995 C 0.52319 0.55519 0.58223 0.0
C1996 C 0.49872 0.55726 0.62224 0.0
C1997 C 0.49999 0.55057 0.57971 0.0
C1998 C 0.46285 0.55651 0.64167 0.0
C1999 C 0.48603 0.5651 0.68639 0.0
N2000 N 0.48876 0.55186 0.59921 0.0
N2001 N 0.4963 0.5632 0.66639 0.0
H2002 H 0.80853 0.21536 0.96532 0.0
H2003 H 0.71373 0.19842 0.86331 0.0
H2004 H 0.76058 0.1474 0.94484 0.0
H2005 H 0.74389 0.2659 0.91034 0.0
H2006 H 0.72835 0.17751 0.89187 0.0
H2007 H 0.78609 0.23269 0.93992 0.0
C2008 C 0.79358 0.20402 0.95496 0.0
C2009 C 0.78637 0.18008 0.95699 0.0
C2010 C 0.73112 0.19686 0.89613 0.0
C2011 C 0.76015 0.19981 0.92933 0.0
C2012 C 0.72251 0.20875 0.88005 0.0
C2013 C 0.72855 0.23396 0.88392 0.0
C2014 C 0.74561 0.2105 0.91587 0.0
C2015 C 0.73936 0.24648 0.90616 0.0
C2016 C 0.78054 0.21394 0.94099 0.0
C2017 C 0.76683 0.16594 0.94339 0.0
N2018 N 0.74833 0.23465 0.92096 0.0
N2019 N 0.75414 0.17613 0.93027 0.0
H2020 H 0.10783 0.52718 0.18705 0.0
H2021 H 0.09361 0.57013 0.06621 0.0
H2022 H 0.16344 0.55884 0.15467 0.0
H2023 H 0.04421 0.52284 0.09473 0.0
H2024 H 0.11863 0.57592 0.10254 0.0
H2025 H 0.08382 0.53724 0.15819 0.0
C2026 C 0.11502 0.53601 0.17361 0.0
C2027 C 0.13762 0.54169 0.17287 0.0
C2028 C 0.10224 0.56451 0.1008 0.0
C2029 C 0.10993 0.55225 0.13904 0.0
C2030 C 0.08812 0.56098 0.08016 0.0
C2031 C 0.06723 0.54544 0.07757 0.0
C2032 C 0.09504 0.55256 0.11867 0.0
C2033 C 0.0604 0.53455 0.09604 0.0
C2034 C 0.10125 0.54189 0.15721 0.0
C2035 C 0.14599 0.55354 0.15533 0.0
N2036 N 0.07441 0.53825 0.11588 0.0
N2037 N 0.13197 0.55808 0.1386 0.0
H2038 H 0.8457 0.87432 0.45711 0.0
H2039 H 0.77369 0.79104 0.34207 0.0
H2040 H 0.78014 0.83235 0.45661 0.0
H2041 H 0.84274 0.82338 0.34581 0.0
H2042 H 0.77658 0.80284 0.38471 0.0
H2043 H 0.84607 0.85282 0.41732 0.0
C2044 C 0.83162 0.86003 0.44871 0.0
C2045 C 0.81297 0.85474 0.45993 0.0
C2046 C 0.79116 0.80713 0.37627 0.0
C2047 C 0.81292 0.83059 0.41445 0.0
C2048 C 0.78951 0.80051 0.35192 0.0
C2049 C 0.80796 0.80656 0.34042 0.0
C2050 C 0.81135 0.82021 0.38917 0.0
C2051 C 0.8281 0.81846 0.35401 0.0
C2052 C 0.83176 0.84785 0.42603 0.0
C2053 C 0.79488 0.8366 0.44841 0.0
N2054 N 0.8292 0.82522 0.37769 0.0
N2055 N 0.7952 0.82527 0.42608 0.0
H2056 H 0.46277 0.58671 0.84716 0.0
H2057 H 0.52815 0.51474 0.92571 0.0
H2058 H 0.49129 0.52931 0.81886 0.0
H2059 H 0.51527 0.58185 0.95652 0.0
H2060 H 0.51226 0.51913 0.88706 0.0
H2061 H 0.47903 0.58484 0.88722 0.0
C2062 C 0.47232 0.57374 0.84911 0.0
C2063 C 0.47538 0.5582 0.8289 0.0
C2064 C 0.51281 0.53298 0.90219 0.0
C2065 C 0.49412 0.55574 0.87544 0.0
C2066 C 0.52196 0.53044 0.92452 0.0
C2067 C 0.52326 0.54786 0.94496 0.0
C2068 C 0.50429 0.553 0.89966 0.0
C2069 C 0.51482 0.56783 0.94159 0.0
C2070 C 0.48171 0.57269 0.87216 0.0
C2071 C 0.48817 0.54186 0.83331 0.0
N2072 N 0.50569 0.56973 0.9197 0.0
N2073 N 0.49674 0.54105 0.8556 0.0
H2074 H 0.78067 0.15763 0.11691 0.0
H2075 H 0.78859 0.29324 0.17652 0.0
H2076 H 0.78191 0.21443 0.07751 0.0
H2077 H 0.78775 0.23522 0.21428 0.0
H2078 H 0.78073 0.26392 0.13936 0.0
H2079 H 0.77885 0.18539 0.15253 0.0
C2080 C 0.78054 0.17599 0.11585 0.0
C2081 C 0.78192 0.18403 0.09455 0.0
C2082 C 0.78206 0.25768 0.15584 0.0
C2083 C 0.77948 0.21571 0.13488 0.0
C2084 C 0.78648 0.27434 0.17692 0.0
C2085 C 0.78907 0.26656 0.19826 0.0
C2086 C 0.78058 0.23334 0.15642 0.0
C2087 C 0.78599 0.24196 0.19812 0.0
C2088 C 0.77939 0.1918 0.13609 0.0
C2089 C 0.78148 0.20784 0.09386 0.0
N2090 N 0.78221 0.22625 0.17747 0.0
N2091 N 0.78038 0.22297 0.11385 0.0
H2092 H 0.12267 0.59918 0.29305 0.0
H2093 H 0.14558 0.58747 0.42333 0.0
H2094 H 0.15941 0.55223 0.31813 0.0
H2095 H 0.10044 0.62476 0.39557 0.0
H2096 H 0.16507 0.59118 0.38924 0.0
H2097 H 0.12735 0.62227 0.33287 0.0
C2098 C 0.13131 0.59346 0.30717 0.0
C2099 C 0.13963 0.5731 0.30278 0.0
C2100 C 0.15143 0.59942 0.39112 0.0
C2101 C 0.14537 0.59956 0.34822 0.0
C2102 C 0.14036 0.59741 0.41062 0.0
C2103 C 0.12043 0.60415 0.41121 0.0
C2104 C 0.14237 0.60839 0.37262 0.0
C2105 C 0.11511 0.61816 0.39522 0.0
C2106 C 0.13445 0.60695 0.32975 0.0
C2107 C 0.15198 0.5673 0.3212 0.0
N2108 N 0.12554 0.61902 0.37597 0.0
N2109 N 0.15402 0.58015 0.34337 0.0
H2110 H 0.82324 0.89089 0.62603 0.0
H2111 H 0.77165 0.77411 0.67605 0.0
H2112 H 0.79848 0.82086 0.58166 0.0
H2113 H 0.81352 0.83815 0.71995 0.0
H2114 H 0.77894 0.79165 0.64127 0.0
H2115 H 0.81724 0.87274 0.66064 0.0
C2116 C 0.81672 0.87166 0.62356 0.0
C2117 C 0.81152 0.85737 0.60088 0.0
C2118 C 0.78648 0.80193 0.6585 0.0
C2119 C 0.80444 0.8365 0.64051 0.0
C2120 C 0.78222 0.792 0.67836 0.0
C2121 C 0.79184 0.80488 0.70087 0.0
C2122 C 0.80013 0.8251 0.66121 0.0
C2123 C 0.80573 0.82774 0.70287 0.0
C2124 C 0.81331 0.86132 0.64335 0.0
C2125 C 0.80286 0.83257 0.59879 0.0
N2126 N 0.80932 0.83724 0.68329 0.0
N2127 N 0.79952 0.82294 0.61835 0.0
H2128 H 0.74166 0.45942 0.47507 0.0
H2129 H 0.67883 0.5078 0.57835 0.0
H2130 H 0.76198 0.45873 0.54771 0.0
H2131 H 0.67654 0.52748 0.50998 0.0
H2132 H 0.70687 0.48604 0.56773 0.0
H2133 H 0.71371 0.48001 0.48739 0.0
C2134 C 0.73973 0.46316 0.49355 0.0
C2135 C 0.75346 0.45725 0.51049 0.0
C2136 C 0.70023 0.49528 0.55521 0.0
C2137 C 0.72236 0.48087 0.52477 0.0
C2138 C 0.68443 0.50765 0.56127 0.0
C2139 C 0.67545 0.51899 0.54479 0.0
C2140 C 0.70668 0.49445 0.53262 0.0
C2141 C 0.68298 0.51851 0.5229 0.0
C2142 C 0.7241 0.4751 0.50065 0.0
C2143 C 0.75117 0.46292 0.53432 0.0
N2144 N 0.69811 0.5063 0.51738 0.0
N2145 N 0.73575 0.47449 0.54088 0.0
H2146 H 0.22576 0.11645 0.49456 0.0
H2147 H 0.09934 0.10726 0.50908 0.0
H2148 H 0.19529 0.17516 0.49078 0.0
H2149 H 0.12733 0.04614 0.49792 0.0
H2150 H 0.13519 0.13357 0.50707 0.0
H2151 H 0.1908 0.09167 0.50056 0.0
C2152 C 0.21167 0.12411 0.49483 0.0
C2153 C 0.21342 0.14788 0.49189 0.0
C2154 C 0.13353 0.11443 0.50522 0.0
C2155 C 0.17321 0.11949 0.49885 0.0
C2156 C 0.11309 0.09946 0.50639 0.0
C2157 C 0.11039 0.07457 0.5033 0.0
C2158 C 0.15147 0.1044 0.50142 0.0
C2159 C 0.12874 0.06527 0.50004 0.0
C2160 C 0.1917 0.10993 0.49832 0.0
C2161 C 0.19465 0.1569 0.49282 0.0
N2162 N 0.1485 0.08018 0.49923 0.0
N2163 N 0.17532 0.14268 0.49615 0.0
H2164 H 0.18403 0.92745 0.78531 0.0
H2165 H 0.28561 0.8724 0.74296 0.0
H2166 H 0.23131 0.96252 0.74566 0.0
H2167 H 0.23702 0.83528 0.77994 0.0
H2168 H 0.26604 0.90458 0.74347 0.0
H2169 H 0.20276 0.89441 0.78385 0.0
C2170 C 0.19826 0.92838 0.77614 0.0
C2171 C 0.20572 0.9486 0.76568 0.0
C2172 C 0.25956 0.88953 0.75161 0.0
C2173 C 0.22788 0.90936 0.76371 0.0
C2174 C 0.27087 0.87084 0.75132 0.0
C2175 C 0.26338 0.85037 0.76139 0.0
C2176 C 0.24032 0.88876 0.76249 0.0
C2177 C 0.24377 0.85015 0.77169 0.0
C2178 C 0.2091 0.90921 0.77532 0.0
C2179 C 0.22462 0.94792 0.75426 0.0
N2180 N 0.2333 0.86874 0.7721 0.0
N2181 N 0.23472 0.92904 0.75358 0.0
H2182 H 0.38583 0.97967 0.05347 0.0
H2183 H 0.47991 0.98637 0.97558 0.0
H2184 H 0.38399 0.92809 0.99032 0.0
H2185 H 0.47753 0.03847 0.03704 0.0
H2186 H 0.44952 0.9582 0.98656 0.0
H2187 H 0.42557 0.99122 0.05654 0.0
C2188 C 0.39391 0.97042 0.04057 0.0
C2189 C 0.38188 0.95423 0.02072 0.0
C2190 C 0.45584 0.97573 0.99773 0.0
C2191 C 0.42664 0.96789 0.02347 0.0
C2192 C 0.47278 0.992 0.99116 0.0
C2193 C 0.48104 0.0148 0.00531 0.0
C2194 C 0.44707 0.98253 0.0184 0.0
C2195 C 0.47152 0.02109 0.02551 0.0
C2196 C 0.41654 0.97697 0.04228 0.0
C2197 C 0.39287 0.94168 0.00519 0.0
N2198 N 0.45501 1.005 0.03144 0.0
N2199 N 0.41482 0.94948 0.00633 0.0
H2200 H 0.85794 0.5495 0.76138 0.0
H2201 H 0.87033 0.68554 0.74867 0.0
H2202 H 0.90521 0.6099 0.80516 0.0
H2203 H 0.81405 0.62813 0.71672 0.0
H2204 H 0.88801 0.65606 0.76208 0.0
H2205 H 0.84435 0.57699 0.7401 0.0
C2206 C 0.86497 0.56861 0.76706 0.0
C2207 C 0.88272 0.57752 0.78507 0.0
C2208 C 0.87195 0.64993 0.75174 0.0
C2209 C 0.86777 0.60879 0.76035 0.0
C2210 C 0.86198 0.66667 0.74395 0.0
C2211 C 0.84048 0.65924 0.73227 0.0
C2212 C 0.86023 0.62581 0.74774 0.0
C2213 C 0.83055 0.63462 0.72595 0.0
C2214 C 0.85751 0.58421 0.75457 0.0
C2215 C 0.89147 0.60236 0.79139 0.0
N2216 N 0.84035 0.61874 0.73424 0.0
N2217 N 0.88401 0.61718 0.77886 0.0
H2218 H 0.84342 0.65689 0.97644 0.0
H2219 H 0.93393 0.62444 0.06273 0.0
H2220 H 0.84151 0.66024 0.05085 0.0
H2221 H 0.92762 0.60707 0.98689 0.0
H2222 H 0.90442 0.64516 0.05946 0.0
H2223 H 0.87889 0.64635 0.98076 0.0
C2224 C 0.85071 0.65586 0.99372 0.0
C2225 C 0.83953 0.65904 0.01325 0.0
C2226 C 0.9097 0.63703 0.04355 0.0
C2227 C 0.87984 0.64718 0.01841 0.0
C2228 C 0.92649 0.62518 0.04542 0.0
C2229 C 0.93322 0.61396 0.02505 0.0
C2230 C 0.89952 0.63756 0.02117 0.0
C2231 C 0.92318 0.61572 0.00306 0.0
C2232 C 0.87084 0.64974 0.9962 0.0
C2233 C 0.84954 0.65746 0.03529 0.0
N2234 N 0.90673 0.62709 1.00171 0.0
N2235 N 0.86908 0.65152 0.03728 0.0
H2236 H 0.18598 0.10809 0.73997 0.0
H2237 H 0.2905 0.21685 0.80069 0.0
H2238 H 0.22963 0.10382 0.79952 0.0
H2239 H 0.24878 0.21981 0.73913 0.0
H2240 H 0.26763 0.17697 0.80162 0.0
H2241 H 0.20813 0.14842 0.73968 0.0
C2242 C 0.20033 0.11549 0.75301 0.0
C2243 C 0.20572 0.10189 0.76973 0.0
C2244 C 0.2632 0.18629 0.788 0.0
C2245 C 0.23147 0.14955 0.76981 0.0
C2246 C 0.2762 0.20941 0.78759 0.0
C2247 C 0.2715 0.22251 0.7702 0.0
C2248 C 0.24518 0.17525 0.77053 0.0
C2249 C 0.2529 0.21113 0.7534 0.0
C2250 C 0.21301 0.13881 0.75284 0.0
C2251 C 0.22472 0.11304 0.78603 0.0
N2252 N 0.24067 0.18838 0.75394 0.0
N2253 N 0.23663 0.13599 0.78574 0.0
H2254 H 0.39651 0.97358 0.31022 0.0
H2255 H 0.33488 0.84692 0.23348 0.0
H2256 H 0.4159 0.94264 0.24507 0.0
H2257 H 0.31336 0.87871 0.29697 0.0
H2258 H 0.36324 0.88296 0.23621 0.0
H2259 H 0.36591 0.93879 0.30574 0.0
C2260 C 0.39444 0.95919 0.29513 0.0
C2261 C 0.40846 0.96082 0.27784 0.0
C2262 C 0.35214 0.88232 0.24935 0.0
C2263 C 0.37354 0.92147 0.27245 0.0
C2264 C 0.3357 0.86186 0.24764 0.0
C2265 C 0.32192 0.86004 0.26514 0.0
C2266 C 0.35474 0.90095 0.26871 0.0
C2267 C 0.32398 0.87956 0.28337 0.0
C2268 C 0.37691 0.93951 0.29249 0.0
C2269 C 0.40539 0.94183 0.25877 0.0
N2270 N 0.34038 0.89938 0.28482 0.0
N2271 N 0.38799 0.92286 0.25645 0.0
H2272 H 0.56621 0.35503 0.5468 0.0
H2273 H 0.58877 0.49709 0.56006 0.0
H2274 H 0.59904 0.40545 0.60969 0.0
H2275 H 0.53339 0.45058 0.51277 0.0
H2276 H 0.59628 0.46245 0.57419 0.0
H2277 H 0.5572 0.3885 0.53016 0.0
C2278 C 0.57171 0.37313 0.557 0.0
C2279 C 0.58357 0.37749 0.57964 0.0
C2280 C 0.58248 0.45972 0.56071 0.0
C2281 C 0.57346 0.41566 0.56068 0.0
C2282 C 0.5782 0.47954 0.55249 0.0
C2283 C 0.56037 0.47685 0.53516 0.0
C2284 C 0.56909 0.43674 0.55143 0.0
C2285 C 0.54727 0.45352 0.52621 0.0
C2286 C 0.56641 0.39213 0.54756 0.0
C2287 C 0.58995 0.40122 0.59219 0.0
N2288 N 0.55195 0.43428 0.53437 0.0
N2289 N 0.58499 0.41934 0.5825 0.0
H2290 H 0.42738 0.74828 0.37415 0.0
H2291 H 0.37633 0.81652 0.28263 0.0
H2292 H 0.46204 0.81052 0.34978 0.0
H2293 H 0.3336 0.7685 0.31695 0.0
H2294 H 0.40763 0.81354 0.30845 0.0
H2295 H 0.39256 0.75376 0.35491 0.0
C2296 C 0.42777 0.76305 0.36496 0.0
C2297 C 0.44795 0.77856 0.36322 0.0
C2298 C 0.39147 0.80384 0.31081 0.0
C2299 C 0.40831 0.78502 0.3414 0.0
C2300 C 0.37352 0.80575 0.29608 0.0
C2301 C 0.3523 0.79312 0.29788 0.0
C2302 C 0.38853 0.7886 0.32731 0.0
C2303 C 0.3497 0.77895 0.31534 0.0
C2304 C 0.40789 0.7662 0.35402 0.0
C2305 C 0.44722 0.79757 0.35125 0.0
N2306 N 0.36765 0.77678 0.32921 0.0
N2307 N 0.42802 0.80006 0.34086 0.0
H2308 H 0.10858 0.746 0.05776 0.0
H2309 H 0.02993 0.61455 0.04017 0.0
H2310 H 0.04972 0.72765 0.08968 0.0
H2311 H 0.09391 0.62769 0.01731 0.0
H2312 H 0.03449 0.65736 0.05227 0.0
H2313 H 0.10042 0.70439 0.03558 0.0
C2314 C 0.09362 0.73335 0.05946 0.0
C2315 C 0.07971 0.73991 0.07535 0.0
C2316 C 0.04748 0.65104 0.04433 0.0
C2317 C 0.07065 0.69283 0.05092 0.0
C2318 C 0.04486 0.62655 0.03734 0.0
C2319 C 0.06153 0.61766 0.02753 0.0
C2320 C 0.0669 0.66692 0.04146 0.0
C2321 C 0.08072 0.63396 0.02483 0.0
C2322 C 0.08911 0.70967 0.0471 0.0
C2323 C 0.06073 0.72308 0.07743 0.0
N2324 N 0.08293 0.65796 0.03179 0.0
N2325 N 0.05685 0.70022 0.06553 0.0
H2326 H 0.06052 0.25393 0.8512 0.0
H2327 H 0.18515 0.32963 0.8623 0.0
H2328 H 0.09369 0.30086 0.91604 0.0
H2329 H 0.15307 0.27051 0.80607 0.0
H2330 H 0.15144 0.32333 0.88141 0.0
H2331 H 0.09387 0.26384 0.83332 0.0
C2332 C 0.07488 0.26625 0.86174 0.0
C2333 C 0.07432 0.27637 0.8852 0.0
C2334 C 0.15185 0.3118 0.86489 0.0
C2335 C 0.11284 0.28796 0.86473 0.0
C2336 C 0.17099 0.31541 0.85403 0.0
C2337 C 0.1718 0.3003 0.8328 0.0
C2338 C 0.1335 0.29324 0.8541 0.0
C2339 C 0.15312 0.28227 0.8226 0.0
C2340 C 0.09398 0.27196 0.8515 0.0
C2341 C 0.09346 0.29245 0.89792 0.0
N2342 N 0.1348 0.27928 0.8333 0.0
N2343 N 0.11199 0.29777 0.88752 0.0
H2344 H 0.55798 0.76003 0.8962 0.0
H2345 H 0.58099 0.6871 0.99653 0.0
H2346 H 0.61518 0.78036 0.94865 0.0
H2347 H 0.52085 0.66626 0.94857 0.0
H2348 H 0.59374 0.72094 0.97773 0.0
H2349 H 0.54395 0.72494 0.91358 0.0
C2350 C 0.56757 0.75702 0.91132 0.0
C2351 C 0.58765 0.77308 0.92123 0.0
C2352 C 0.57772 0.70911 0.9712 0.0
C2353 C 0.57191 0.73327 0.94088 0.0
C2354 C 0.5705 0.68987 0.98195 0.0
C2355 C 0.54997 0.67425 0.97396 0.0
C2356 C 0.56428 0.71272 0.95225 0.0
C2357 C 0.5368 0.67824 0.95511 0.0
C2358 C 0.55956 0.73709 0.92121 0.0
C2359 C 0.59949 0.76855 0.94073 0.0
N2360 N 0.54423 0.69726 0.94473 0.0
N2361 N 0.59144 0.74902 0.94988 0.0
H2362 H 0.04465 0.76034 0.71697 0.0
H2363 H 0.17291 0.79568 0.71201 0.0
H2364 H 0.07374 0.76995 0.65374 0.0
H2365 H 0.14418 0.75429 0.76143 0.0
H2366 H 0.13639 0.79822 0.69667 0.0
H2367 H 0.08136 0.76838 0.73881 0.0
C2368 C 0.0588 0.76435 0.7078 0.0
C2369 C 0.0564 0.76454 0.68364 0.0
C2370 C 0.1382 0.78895 0.71114 0.0
C2371 C 0.09791 0.77411 0.70836 0.0
C2372 C 0.15892 0.78754 0.71989 0.0
C2373 C 0.16132 0.77431 0.73759 0.0
C2374 C 0.11996 0.77714 0.7203 0.0
C2375 C 0.14289 0.76454 0.74768 0.0
C2376 C 0.07961 0.76894 0.72022 0.0
C2377 C 0.07505 0.76959 0.67238 0.0
N2378 N 0.1228 0.76582 0.7386 0.0
N2379 N 0.09515 0.77425 0.6849 0.0
H2380 H 0.09614 0.38318 0.44818 0.0
H2381 H 0.07991 0.51477 0.47293 0.0
H2382 H 0.12108 0.43586 0.40664 0.0
H2383 H 0.03922 0.45619 0.49718 0.0
H2384 H 0.09558 0.48676 0.44878 0.0
H2385 H 0.07739 0.4109 0.46851 0.0
C2386 C 0.09804 0.40076 0.44362 0.0
C2387 C 0.11016 0.4072 0.4256 0.0
C2388 C 0.0829 0.4799 0.45896 0.0
C2389 C 0.0884 0.43874 0.44857 0.0
C2390 C 0.0737 0.49593 0.47255 0.0
C2391 C 0.05791 0.48764 0.48655 0.0
C2392 C 0.07676 0.45555 0.46014 0.0
C2393 C 0.05119 0.46306 0.48624 0.0
C2394 C 0.08704 0.4164 0.45501 0.0
C2395 C 0.11193 0.43016 0.42042 0.0
N2396 N 0.06088 0.44775 0.47338 0.0
N2397 N 0.10106 0.44513 0.43183 0.0
H2398 H 0.43577 0.27731 0.17363 0.0
H2399 H 0.35353 0.24485 0.26533 0.0
H2400 H 0.42376 0.21032 0.19862 0.0
H2401 H 0.37042 0.31433 0.24558 0.0
H2402 H 0.38134 0.23278 0.24319 0.0
H2403 H 0.41069 0.2908 0.19907 0.0
C2404 C 0.42737 0.2652 0.18401 0.0
C2405 C 0.43196 0.24286 0.18447 0.0
C2406 C 0.37914 0.25077 0.24394 0.0
C2407 C 0.40406 0.25833 0.21389 0.0
C2408 C 0.36343 0.25767 0.2567 0.0
C2409 C 0.35924 0.28015 0.25637 0.0
C2410 C 0.39043 0.26653 0.23084 0.0
C2411 C 0.37287 0.29655 0.24572 0.0
C2412 C 0.41342 0.27308 0.19884 0.0
C2413 C 0.4208 0.22784 0.19817 0.0
N2414 N 0.38764 0.28918 0.2328 0.0
N2415 N 0.40745 0.23598 0.21261 0.0
H2416 H 0.6206 0.56233 0.34596 0.0
H2417 H 0.57393 0.49138 0.44657 0.0
H2418 H 0.63122 0.49256 0.3496 0.0
H2419 H 0.58215 0.56737 0.45195 0.0
H2420 H 0.59297 0.49027 0.41128 0.0
H2421 H 0.60504 0.56311 0.383 0.0
C2422 C 0.61992 0.54707 0.35449 0.0
C2423 C 0.62789 0.52746 0.34393 0.0
C2424 C 0.59107 0.50734 0.42031 0.0
C2425 C 0.60892 0.52817 0.38786 0.0
C2426 C 0.58028 0.50808 0.44087 0.0
C2427 C 0.57704 0.52972 0.45356 0.0
C2428 C 0.59833 0.52832 0.41113 0.0
C2429 C 0.58489 0.55035 0.4439 0.0
C2430 C 0.61086 0.54761 0.376 0.0
C2431 C 0.62591 0.50839 0.35662 0.0
N2432 N 0.59482 0.54906 0.42358 0.0
N2433 N 0.61661 0.50917 0.37744 0.0
H2434 H 0.33759 0.94331 0.08961 0.0
H2435 H 0.35794 0.82413 0.12625 0.0
H2436 H 0.31864 0.87201 0.04682 0.0
H2437 H 0.35327 0.88493 0.17756 0.0
H2438 H 0.35857 0.84832 0.09608 0.0
H2439 H 0.35498 0.92727 0.12085 0.0
C2440 C 0.337 0.92432 0.08688 0.0
C2441 C 0.32625 0.9088 0.06591 0.0
C2442 C 0.35801 0.85658 0.11408 0.0
C2443 C 0.34678 0.89083 0.10076 0.0
C2444 C 0.35797 0.84287 0.13144 0.0
C2445 C 0.35479 0.85232 0.15429 0.0
C2446 C 0.35464 0.87971 0.11963 0.0
C2447 C 0.35495 0.87677 0.15989 0.0
C2448 C 0.34711 0.91531 0.10451 0.0
C2449 C 0.3263 0.88449 0.06293 0.0
N2450 N 0.35416 0.88954 0.14245 0.0
N2451 N 0.33641 0.87626 0.08019 0.0
H2452 H 0.98031 0.48938 0.83847 0.0
H2453 H 0.01155 0.56206 0.96939 0.0
H2454 H 0.95185 0.54739 0.86555 0.0
H2455 H 0.0479 0.51643 0.93329 0.0
H2456 H 0.98256 0.54959 0.93548 0.0
H2457 H 0.99618 0.48975 0.87821 0.0
C2458 C 0.97732 0.50208 0.85292 0.0
C2459 C 0.96585 0.51921 0.84893 0.0
C2460 C 0.99687 0.54231 0.93506 0.0
C2461 C 0.98412 0.52007 0.89392 0.0
C2462 C 0.01333 0.54956 0.95412 0.0
C2463 C 0.03189 0.54043 0.95343 0.0
C2464 C 0.99932 0.52581 0.9156 0.0
C2465 C 0.03388 0.5242 0.93383 0.0
C2466 C 0.98625 0.50222 0.87553 0.0
C2467 C 0.96138 0.53452 0.8681 0.0
N2468 N 0.01771 0.5174 0.91551 0.0
N2469 N 0.97114 0.5351 0.88996 0.0
H2470 H 0.31783 0.23852 0.57501 0.0
H2471 H 0.25551 0.27111 0.68447 0.0
H2472 H 0.24777 0.22716 0.57044 0.0
H2473 H 0.32592 0.28499 0.68819 0.0
H2474 H 0.2525 0.25997 0.64161 0.0
H2475 H 0.32152 0.26105 0.61534 0.0
C2476 C 0.30331 0.24157 0.58231 0.0
C2477 C 0.2825 0.23133 0.56961 0.0
C2478 C 0.26861 0.26573 0.65182 0.0
C2479 C 0.28638 0.25633 0.61558 0.0
C2480 C 0.27032 0.27209 0.67628 0.0
C2481 C 0.29095 0.27868 0.68996 0.0
C2482 C 0.28766 0.26596 0.64103 0.0
C2483 C 0.30962 0.27966 0.6784 0.0
C2484 C 0.30535 0.25418 0.60535 0.0
C2485 C 0.26407 0.23502 0.57985 0.0
N2486 N 0.30751 0.27316 0.65465 0.0
N2487 N 0.26642 0.24709 0.60236 0.0
H2488 H 0.66108 0.54023 0.18834 0.0
H2489 H 0.55772 0.49925 0.08647 0.0
H2490 H 0.60047 0.49536 0.20002 0.0
H2491 H 0.60305 0.5684 0.0959 0.0
H2492 H 0.57463 0.49363 0.12452 0.0
H2493 H 0.64242 0.54668 0.15181 0.0
C2494 C 0.64386 0.53155 0.18329 0.0
C2495 C 0.63262 0.51712 0.19783 0.0
C2496 C 0.58091 0.51006 0.11834 0.0
C2497 C 0.61077 0.52425 0.15472 0.0
C2498 C 0.57125 0.5133 0.09643 0.0
C2499 C 0.57873 0.53444 0.08755 0.0
C2500 C 0.59897 0.52765 0.13158 0.0
C2501 C 0.59642 0.55186 0.10175 0.0
C2502 C 0.63312 0.53538 0.16227 0.0
C2503 C 0.61009 0.50664 0.18979 0.0
N2504 N 0.60599 0.54795 0.12255 0.0
N2505 N 0.60014 0.51014 0.16892 0.0
H2506 H 0.29974 0.86408 0.94516 0.0
H2507 H 0.32156 0.846 0.81444 0.0
H2508 H 0.33587 0.92146 0.91503 0.0
H2509 H 0.30444 0.78666 0.85046 0.0
H2510 H 0.33079 0.87352 0.85197 0.0
H2511 H 0.3038 0.83518 0.91161 0.0
C2512 C 0.30855 0.87061 0.93147 0.0
C2513 C 0.31711 0.89523 0.93259 0.0
C2514 C 0.32552 0.85446 0.85179 0.0
C2515 C 0.32201 0.86223 0.89437 0.0
C2516 C 0.3204 0.83868 0.83034 0.0
C2517 C 0.31228 0.81407 0.82946 0.0
C2518 C 0.32177 0.84558 0.8724 0.0
C2519 C 0.31055 0.80559 0.85051 0.0
C2520 C 0.31107 0.85406 0.91247 0.0
C2521 C 0.32866 0.90265 0.9146 0.0
N2522 N 0.31484 0.82146 0.87125 0.0
N2523 N 0.33058 0.88617 0.89602 0.0
H2524 H 0.91718 0.49966 0.70712 0.0
H2525 H 0.02525 0.49239 0.65108 0.0
H2526 H 0.98193 0.54536 0.73207 0.0
H2527 H 0.96107 0.46965 0.61026 0.0
H2528 H 0.00838 0.49605 0.68686 0.0
H2529 H 0.93252 0.47621 0.67701 0.0
C2530 C 0.93455 0.50504 0.70598 0.0
C2531 C 0.94832 0.52493 0.72159 0.0
C2532 C 0.99796 0.48934 0.67012 0.0
C2533 C 0.96581 0.49763 0.68809 0.0
C2534 C 0.00756 0.48686 0.64963 0.0
C2535 C 0.99447 0.4814 0.62768 0.0
C2536 C 0.97523 0.48629 0.66847 0.0
C2537 C 0.97166 0.47452 0.62693 0.0
C2538 C 0.94327 0.49137 0.68914 0.0
C2539 C 0.97076 0.53047 0.72002 0.0
N2540 N 0.96265 0.47788 0.64715 0.0
N2541 N 0.97882 0.51694 0.70344 0.0
H2542 H 0.26194 0.19477 0.40563 0.0
H2543 H 0.33155 0.29434 0.34541 0.0
H2544 H 0.31096 0.25597 0.4452 0.0
H2545 H 0.26858 0.24954 0.31227 0.0
H2546 H 0.32632 0.2778 0.38096 0.0
H2547 H 0.26591 0.2121 0.37016 0.0
C2548 C 0.2736 0.21183 0.40679 0.0
C2549 C 0.28618 0.22397 0.42829 0.0
C2550 C 0.31362 0.27158 0.36595 0.0
C2551 C 0.29102 0.24367 0.38783 0.0
C2552 C 0.31663 0.2809 0.34559 0.0
C2553 C 0.30047 0.2732 0.32587 0.0
C2554 C 0.29443 0.25417 0.36652 0.0
C2555 C 0.28145 0.25586 0.3271 0.0
C2556 C 0.27577 0.22174 0.3866 0.0
C2557 C 0.30089 0.24612 0.42895 0.0
N2558 N 0.27898 0.2468 0.3471 0.0
N2559 N 0.30307 0.25516 0.40894 0.0
H2560 H 0.35691 0.64722 0.51825 0.0
H2561 H 0.39789 0.5311 0.47226 0.0
H2562 H 0.32734 0.5757 0.52837 0.0
H2563 H 0.44174 0.60188 0.487 0.0
H2564 H 0.36819 0.54872 0.48363 0.0
H2565 H 0.38584 0.63201 0.50053 0.0
C2566 C 0.35673 0.62843 0.51715 0.0
C2567 C 0.33972 0.61262 0.52471 0.0
C2568 C 0.38424 0.56043 0.48405 0.0
C2569 C 0.37219 0.59526 0.50404 0.0
C2570 C 0.40111 0.55045 0.4772 0.0
C2571 C 0.42229 0.56509 0.47903 0.0
C2572 C 0.38866 0.58516 0.49277 0.0
C2573 C 0.42563 0.59003 0.48578 0.0
C2574 C 0.3731 0.6198 0.50687 0.0
C2575 C 0.34018 0.5885 0.52284 0.0
N2576 N 0.40894 0.59937 0.49277 0.0
N2577 N 0.35609 0.58049 0.51243 0.0
H2578 H 0.89633 0.93402 0.56073 0.0
H2579 H 0.98599 1.0055 0.49173 0.0
H2580 H 0.88119 0.95648 0.49536 0.0
H2581 H 0.99794 1.00759 0.56634 0.0
H2582 H 0.94905 0.98044 0.49074 0.0
H2583 H 0.93528 0.95391 0.56106 0.0
C2584 C 0.90117 0.94296 0.54644 0.0
C2585 C 0.88539 0.9439 0.52821 0.0
C2586 C 0.95981 0.98615 0.50731 0.0
C2587 C 0.92973 0.96629 0.5283 0.0
C2588 C 0.98093 1.00036 0.50785 0.0
C2589 C 0.99499 0.00867 0.52918 0.0
C2590 C 0.95274 0.9798 0.52817 0.0
C2591 C 0.9875 1.00165 0.54958 0.0
C2592 C 0.92334 0.95435 0.54667 0.0
C2593 C 0.89265 0.95562 0.51003 0.0
N2594 N 0.9669 0.98758 0.5486 0.0
N2595 N 0.91416 0.96627 0.51054 0.0
H2596 H 0.91882 0.15953 0.28494 0.0
H2597 H 0.81083 0.20509 0.24242 0.0
H2598 H 0.86549 0.11562 0.23386 0.0
H2599 H 0.8675 0.25356 0.28526 0.0
H2600 H 0.83006 0.17263 0.24046 0.0
H2601 H 0.90044 0.19295 0.28701 0.0
C2602 C 0.90331 0.15668 0.274 0.0
C2603 C 0.89412 0.13394 0.25911 0.0
C2604 C 0.83843 0.19025 0.25045 0.0
C2605 C 0.87229 0.17351 0.26146 0.0
C2606 C 0.82728 0.20911 0.25166 0.0
C2607 C 0.83708 0.23281 0.26412 0.0
C2608 C 0.85992 0.19416 0.26219 0.0
C2609 C 0.85884 0.23604 0.27529 0.0
C2610 C 0.89269 0.17609 0.27522 0.0
C2611 C 0.87364 0.13228 0.24573 0.0
N2612 N 0.86918 0.21726 0.27423 0.0
N2613 N 0.86373 0.15133 0.24724 0.0
H2614 H 0.71367 0.10493 0.97594 0.0
H2615 H 0.61854 0.08784 0.0569 0.0
H2616 H 0.72017 0.14573 0.04638 0.0
H2617 H 0.61841 0.04059 0.99112 0.0
H2618 H 0.65606 0.10907 0.0545 0.0
H2619 H 0.6771 0.08288 0.98064 0.0
C2620 C 0.70714 0.10929 0.99227 0.0
C2621 C 0.71952 0.12691 0.0108 0.0
C2622 C 0.64783 0.09389 0.04075 0.0
C2623 C 0.67865 0.10143 0.0168 0.0
C2624 C 0.62656 0.08166 0.04223 0.0
C2625 C 0.61531 0.06297 0.02384 0.0
C2626 C 0.65755 0.08724 0.02073 0.0
C2627 C 0.6264 0.05537 0.00537 0.0
C2628 C 0.6865 0.09664 0.99511 0.0
C2629 C 0.71073 0.13229 0.03167 0.0
N2630 N 0.64686 0.06783 0.0041 0.0
N2631 N 0.69075 0.11933 0.03426 0.0
H2632 H 0.17879 0.47927 0.26682 0.0
H2633 H 0.29421 0.45385 0.30142 0.0
H2634 H 0.23996 0.52061 0.25135 0.0
H2635 H 0.2324 0.40352 0.30072 0.0
H2636 H 0.27463 0.48285 0.29076 0.0
H2637 H 0.19851 0.45463 0.28526 0.0
C2638 C 0.1964 0.48302 0.26714 0.0
C2639 C 0.2079 0.50197 0.2577 0.0
C2640 C 0.26537 0.46568 0.29347 0.0
C2641 C 0.2304 0.47403 0.27885 0.0
C2642 C 0.27649 0.44936 0.29992 0.0
C2643 C 0.26472 0.42657 0.302 0.0
C2644 C 0.24247 0.45894 0.28918 0.0
C2645 C 0.24186 0.4211 0.2993 0.0
C2646 C 0.20762 0.46904 0.27779 0.0
C2647 C 0.23062 0.50617 0.25861 0.0
N2648 N 0.23137 0.4372 0.29271 0.0
N2649 N 0.24125 0.49218 0.2691 0.0
H2650 H 0.23013 0.38457 0.02609 0.0
H2651 H 0.19235 0.49703 0.98914 0.0
H2652 H 0.27422 0.45154 0.02161 0.0
H2653 H 0.1483 0.44007 0.01259 0.0
H2654 H 0.22124 0.47592 0.9928 0.0
H2655 H 0.19901 0.40081 0.01437 0.0
C2656 C 0.23325 0.40265 0.02261 0.0
C2657 C 0.25476 0.41687 0.02512 0.0
C2658 C 0.2052 0.46793 0.99698 0.0
C2659 C 0.21941 0.43529 0.01135 0.0
C2660 C 0.18858 0.47986 0.99465 0.0
C2661 C 0.16785 0.4705 1.00084 0.0
C2662 C 0.2012 0.44646 0.00562 0.0
C2663 C 0.16414 0.44823 0.00811 0.0
C2664 C 0.21552 0.41186 0.0159 0.0
C2665 C 0.25791 0.44009 0.02025 0.0
N2666 N 0.18071 0.43706 0.01049 0.0
N2667 N 0.24045 0.44854 0.01358 0.0
H2668 H 0.91078 0.95912 0.23236 0.0
H2669 H 0.80711 0.88521 0.28391 0.0
H2670 H 0.86841 0.99308 0.27249 0.0
H2671 H 0.84929 0.84972 0.24514 0.0
H2672 H 0.83007 0.92413 0.28078 0.0
H2673 H 0.88941 0.91974 0.23694 0.0
C2674 C 0.89691 0.95849 0.24208 0.0
C2675 C 0.89161 0.98011 0.25184 0.0
C2676 C 0.83455 0.90798 0.27302 0.0
C2677 C 0.86663 0.93383 0.25747 0.0
C2678 C 0.82139 0.88547 0.27491 0.0
C2679 C 0.82606 0.86359 0.26504 0.0
C2680 C 0.85284 0.9094 0.26076 0.0
C2681 C 0.84496 0.86573 0.25348 0.0
C2682 C 0.88466 0.93571 0.24475 0.0
C2683 C 0.87331 0.97736 0.26433 0.0
N2684 N 0.8574 0.88799 0.25156 0.0
N2685 N 0.8617 0.95497 0.26673 0.0
H2686 H 0.66958 0.14348 0.7219 0.0
H2687 H 0.78601 0.21253 0.7921 0.0
H2688 H 0.6922 0.13182 0.79017 0.0
H2689 H 0.76587 0.21154 0.7189 0.0
H2690 H 0.75247 0.18237 0.79257 0.0
H2691 H 0.7033 0.17429 0.72396 0.0
C2692 C 0.68114 0.14842 0.73791 0.0
C2693 C 0.67877 0.13477 0.7555 0.0
C2694 C 0.7556 0.18842 0.77628 0.0
C2695 C 0.71742 0.16845 0.75746 0.0
C2696 C 0.77494 0.20516 0.77585 0.0
C2697 C 0.7778 0.21544 0.75585 0.0
C2698 C 0.73966 0.18193 0.75639 0.0
C2699 C 0.76368 0.20476 0.73501 0.0
C2700 C 0.7007 0.16533 0.73874 0.0
C2701 C 0.69394 0.14182 0.77603 0.0
N2702 N 0.74462 0.18908 0.73601 0.0
N2703 N 0.7132 0.1577 0.77614 0.0
loop_
_geom_bond_atom_site_label_1
_geom_bond_atom_site_label_2
_geom_bond_distance
_geom_bond_site_symmetry_2
_ccdc_geom_bond_type
C0 O1 1.306 . S
C0 O3 1.160 . S
O1 C0 1.306 . S
O1 Cd2 2.228 . S
Cd2 O1 2.228 . S
Cd2 O6 2.273 . S
Cd2 O10 2.277 . S
O3 C0 1.160 . S
O3 Cd4 2.203 . S
Cd4 O3 2.203 . S
Cd4 O6 2.411 . S
Cd4 O7 2.333 . S
Cd4 O8 2.352 . S
Cd4 O12 2.277 . S
Cd4 O13 2.356 . S
C5 O10 1.209 . S
C5 O12 1.226 . S
O6 Cd2 2.273 . S
O6 Cd4 2.411 . S
O6 C9 1.320 . S
O7 Cd4 2.333 . S
O7 C9 1.214 . S
O8 Cd4 2.352 . S
O8 C11 1.258 . S
C9 O6 1.320 . S
C9 O7 1.214 . S
O10 Cd2 2.277 . S
O10 C5 1.209 . S
C11 O8 1.258 . S
C11 O13 1.282 . S
O12 Cd4 2.277 . S
O12 C5 1.226 . S
O13 Cd4 2.356 . S
O13 C11 1.282 . S
C14 O15 1.306 . S
C14 O17 1.160 . S
O15 C14 1.306 . S
O15 Cd16 2.228 1_655 S
Cd16 O15 2.228 1_455 S
Cd16 O20 2.273 . S
Cd16 O24 2.277 1_455 S
O17 C14 1.160 . S
O17 Cd18 2.150 1_655 S
Cd18 O17 2.150 1_455 S
Cd18 O20 2.437 . S
Cd18 O21 2.387 . S
Cd18 O22 2.343 . S
Cd18 O26 2.281 1_455 S
Cd18 O27 2.360 . S
C19 O24 1.209 . S
C19 O26 1.226 . S
O20 Cd16 2.273 . S
O20 Cd18 2.437 . S
O20 C23 1.320 . S
O21 Cd18 2.387 . S
O21 C23 1.214 . S
O22 Cd18 2.343 . S
O22 C25 1.258 . S
C23 O20 1.320 . S
C23 O21 1.214 . S
O24 Cd16 2.277 1_655 S
O24 C19 1.209 . S
C25 O22 1.258 . S
C25 O27 1.282 . S
O26 Cd18 2.281 1_655 S
O26 C19 1.226 . S
O27 Cd18 2.360 . S
O27 C25 1.282 . S
C28 O29 1.306 . S
C28 O31 1.160 . S
O29 C28 1.306 . S
O29 Cd30 2.228 . S
Cd30 O29 2.228 . S
Cd30 O34 2.273 . S
Cd30 O38 2.277 . S
O31 C28 1.160 . S
O31 Cd32 2.203 . S
Cd32 O31 2.203 . S
Cd32 O34 2.411 . S
Cd32 O35 2.333 . S
Cd32 O36 2.352 . S
Cd32 O40 2.277 . S
Cd32 O41 2.356 . S
C33 O38 1.209 . S
C33 O40 1.226 . S
O34 Cd30 2.273 . S
O34 Cd32 2.411 . S
O34 C37 1.320 . S
O35 Cd32 2.333 . S
O35 C37 1.214 . S
O36 Cd32 2.352 . S
O36 C39 1.258 . S
C37 O34 1.320 . S
C37 O35 1.214 . S
O38 Cd30 2.277 . S
O38 C33 1.209 . S
C39 O36 1.258 . S
C39 O41 1.282 . S
O40 Cd32 2.277 . S
O40 C33 1.226 . S
O41 Cd32 2.356 . S
O41 C39 1.282 . S
C42 O43 1.306 . S
C42 O45 1.160 . S
O43 C42 1.306 . S
O43 Cd44 2.228 . S
Cd44 O43 2.228 . S
Cd44 O48 2.273 . S
Cd44 O52 2.277 . S
O45 C42 1.160 . S
O45 Cd46 2.203 . S
Cd46 O45 2.203 . S
Cd46 O48 2.411 . S
Cd46 O49 2.333 . S
Cd46 O50 2.352 . S
Cd46 O54 2.277 . S
Cd46 O55 2.356 . S
C47 O52 1.209 . S
C47 O54 1.226 . S
O48 Cd44 2.273 . S
O48 Cd46 2.411 . S
O48 C51 1.320 . S
O49 Cd46 2.333 . S
O49 C51 1.214 . S
O50 Cd46 2.352 . S
O50 C53 1.258 . S
C51 O48 1.320 . S
C51 O49 1.214 . S
O52 Cd44 2.277 . S
O52 C47 1.209 . S
C53 O50 1.258 . S
C53 O55 1.282 . S
O54 Cd46 2.277 . S
O54 C47 1.226 . S
O55 Cd46 2.356 . S
O55 C53 1.282 . S
C56 O57 1.306 . S
C56 O59 1.160 . S
O57 C56 1.306 . S
O57 Cd58 2.228 . S
Cd58 O57 2.228 . S
Cd58 O62 2.273 . S
Cd58 O66 2.277 . S
O59 C56 1.160 . S
O59 Cd60 2.203 . S
Cd60 O59 2.203 . S
Cd60 O62 2.411 . S
Cd60 O63 2.333 . S
Cd60 O64 2.352 . S
Cd60 O68 2.277 . S
Cd60 O69 2.356 . S
C61 O66 1.209 . S
C61 O68 1.226 . S
O62 Cd58 2.273 . S
O62 Cd60 2.411 . S
O62 C65 1.320 . S
O63 Cd60 2.333 . S
O63 C65 1.214 . S
O64 Cd60 2.352 . S
O64 C67 1.258 . S
C65 O62 1.320 . S
C65 O63 1.214 . S
O66 Cd58 2.277 . S
O66 C61 1.209 . S
C67 O64 1.258 . S
C67 O69 1.282 . S
O68 Cd60 2.277 . S
O68 C61 1.226 . S
O69 Cd60 2.356 . S
O69 C67 1.282 . S
C70 O71 1.306 . S
C70 O73 1.160 . S
O71 C70 1.306 . S
O71 Cd72 2.228 . S
Cd72 O71 2.228 . S
Cd72 O76 2.273 . S
Cd72 O80 2.277 . S
O73 C70 1.160 . S
O73 Cd74 2.203 . S
Cd74 O73 2.203 . S
Cd74 O76 2.411 . S
Cd74 O77 2.333 . S
Cd74 O78 2.352 . S
Cd74 O82 2.277 . S
Cd74 O83 2.356 . S
C75 O80 1.209 . S
C75 O82 1.226 . S
O76 Cd72 2.273 . S
O76 Cd74 2.411 . S
O76 C79 1.320 . S
O77 Cd74 2.333 . S
O77 C79 1.214 . S
O78 Cd74 2.352 . S
O78 C81 1.258 . S
C79 O76 1.320 . S
C79 O77 1.214 . S
O80 Cd72 2.277 . S
O80 C75 1.209 . S
C81 O78 1.258 . S
C81 O83 1.282 . S
O82 Cd74 2.277 . S
O82 C75 1.226 . S
O83 Cd74 2.356 . S
O83 C81 1.282 . S
C84 O85 1.306 . S
C84 O87 1.160 . S
O85 C84 1.306 . S
O85 Cd86 2.228 . S
Cd86 O85 2.228 . S
Cd86 O90 2.273 . S
Cd86 O94 2.277 . S
O87 C84 1.160 . S
O87 Cd88 2.203 . S
Cd88 O87 2.203 . S
Cd88 O90 2.411 . S
Cd88 O91 2.333 . S
Cd88 O92 2.352 . S
Cd88 O96 2.277 . S
Cd88 O97 2.356 . S
C89 O94 1.209 . S
C89 O96 1.226 . S
O90 Cd86 2.273 . S
O90 Cd88 2.411 . S
O90 C93 1.320 . S
O91 Cd88 2.333 . S
O91 C93 1.214 . S
O92 Cd88 2.352 . S
O92 C95 1.258 . S
C93 O90 1.320 . S
C93 O91 1.214 . S
O94 Cd86 2.277 . S
O94 C89 1.209 . S
C95 O92 1.258 . S
C95 O97 1.282 . S
O96 Cd88 2.277 . S
O96 C89 1.226 . S
O97 Cd88 2.356 . S
O97 C95 1.282 . S
C98 O99 1.306 . S
C98 O101 1.160 . S
O99 C98 1.306 . S
O99 Cd100 2.228 1_655 S
Cd100 O99 2.228 1_455 S
Cd100 O104 2.273 . S
Cd100 O108 2.277 . S
O101 C98 1.160 . S
O101 Cd102 2.203 1_655 S
Cd102 O101 2.203 1_455 S
Cd102 O104 2.411 . S
Cd102 O105 2.333 . S
Cd102 O106 2.352 . S
Cd102 O110 2.277 . S
Cd102 O111 2.356 . S
C103 O108 1.209 . S
C103 O110 1.226 . S
O104 Cd100 2.273 . S
O104 Cd102 2.411 . S
O104 C107 1.320 . S
O105 Cd102 2.333 . S
O105 C107 1.214 . S
O106 Cd102 2.352 . S
O106 C109 1.258 . S
C107 O104 1.320 . S
C107 O105 1.214 . S
O108 Cd100 2.277 . S
O108 C103 1.209 . S
C109 O106 1.258 . S
C109 O111 1.282 . S
O110 Cd102 2.277 . S
O110 C103 1.226 . S
O111 Cd102 2.356 . S
O111 C109 1.282 . S
C112 O113 1.306 1_545 S
C112 O115 1.160 . S
O113 C112 1.306 1_565 S
O113 Cd114 2.228 . S
Cd114 O113 2.228 . S
Cd114 O118 2.273 1_565 S
Cd114 O122 2.277 . S
O115 C112 1.160 . S
O115 Cd116 2.203 . S
Cd116 O115 2.203 . S
Cd116 O118 2.411 . S
Cd116 O119 2.332 . S
Cd116 O120 2.352 . S
Cd116 O124 2.277 1_545 S
Cd116 O125 2.356 . S
C117 O122 1.209 . S
C117 O124 1.226 . S
O118 Cd114 2.273 1_545 S
O118 Cd116 2.411 . S
O118 C121 1.313 . S
O119 Cd116 2.332 . S
O119 C121 1.219 . S
O120 Cd116 2.352 . S
O120 C123 1.258 . S
C121 O118 1.313 . S
C121 O119 1.219 . S
O122 Cd114 2.277 . S
O122 C117 1.209 . S
C123 O120 1.258 . S
C123 O125 1.282 . S
O124 Cd116 2.277 1_565 S
O124 C117 1.226 . S
O125 Cd116 2.356 . S
O125 C123 1.282 . S
C126 O127 1.306 . S
C126 O129 1.160 . S
O127 C126 1.306 . S
O127 Cd128 2.228 . S
Cd128 O127 2.228 . S
Cd128 O132 2.273 . S
Cd128 O136 2.277 . S
O129 C126 1.160 . S
O129 Cd130 2.203 . S
Cd130 O129 2.203 . S
Cd130 O132 2.411 . S
Cd130 O133 2.333 . S
Cd130 O134 2.352 . S
Cd130 O138 2.277 . S
Cd130 O139 2.356 . S
C131 O136 1.209 . S
C131 O138 1.226 . S
O132 Cd128 2.273 . S
O132 Cd130 2.411 . S
O132 C135 1.320 . S
O133 Cd130 2.333 . S
O133 C135 1.214 . S
O134 Cd130 2.352 . S
O134 C137 1.258 . S
C135 O132 1.320 . S
C135 O133 1.214 . S
O136 Cd128 2.277 . S
O136 C131 1.209 . S
C137 O134 1.258 . S
C137 O139 1.282 . S
O138 Cd130 2.277 . S
O138 C131 1.226 . S
O139 Cd130 2.356 . S
O139 C137 1.282 . S
C140 O141 1.306 . S
C140 O143 1.160 . S
O141 C140 1.306 . S
O141 Cd142 2.228 . S
Cd142 O141 2.228 . S
Cd142 O146 2.288 . S
Cd142 O150 2.277 . S
O143 C140 1.160 . S
O143 Cd144 2.203 . S
Cd144 O143 2.203 . S
Cd144 O146 2.406 . S
Cd144 O147 2.333 1_545 S
Cd144 O148 2.352 1_545 S
Cd144 O152 2.277 . S
Cd144 O153 2.356 1_545 S
C145 O150 1.209 . S
C145 O152 1.226 . S
O146 Cd142 2.288 . S
O146 Cd144 2.406 . S
O146 C149 1.319 1_545 S
O147 Cd144 2.333 1_565 S
O147 C149 1.214 . S
O148 Cd144 2.352 1_565 S
O148 C151 1.258 . S
C149 O146 1.319 1_565 S
C149 O147 1.214 . S
O150 Cd142 2.277 . S
O150 C145 1.209 . S
C151 O148 1.258 . S
C151 O153 1.282 . S
O152 Cd144 2.277 . S
O152 C145 1.226 . S
O153 Cd144 2.356 1_565 S
O153 C151 1.282 . S
C154 O155 1.288 1_554 S
C154 O157 1.160 . S
O155 C154 1.288 1_556 S
O155 Cd156 2.249 . S
Cd156 O155 2.249 . S
Cd156 O160 2.273 1_556 S
Cd156 O164 2.277 . S
O157 C154 1.160 . S
O157 Cd158 2.203 . S
Cd158 O157 2.203 . S
Cd158 O160 2.411 . S
Cd158 O161 2.333 . S
Cd158 O162 2.352 . S
Cd158 O166 2.277 1_554 S
Cd158 O167 2.356 . S
C159 O164 1.209 . S
C159 O166 1.226 . S
O160 Cd156 2.273 1_554 S
O160 Cd158 2.411 . S
O160 C163 1.320 . S
O161 Cd158 2.333 . S
O161 C163 1.214 . S
O162 Cd158 2.352 . S
O162 C165 1.258 . S
C163 O160 1.320 . S
C163 O161 1.214 . S
O164 Cd156 2.277 . S
O164 C159 1.209 . S
C165 O162 1.258 . S
C165 O167 1.282 . S
O166 Cd158 2.277 1_556 S
O166 C159 1.226 . S
O167 Cd158 2.356 . S
O167 C165 1.282 . S
C168 O169 1.306 . S
C168 O171 1.160 . S
O169 C168 1.306 . S
O169 Cd170 2.228 1_554 S
Cd170 O169 2.228 1_556 S
Cd170 O174 2.273 1_556 S
Cd170 O178 2.277 . S
O171 C168 1.160 . S
O171 Cd172 2.203 . S
Cd172 O171 2.203 . S
Cd172 O174 2.411 . S
Cd172 O175 2.333 . S
Cd172 O176 2.352 . S
Cd172 O180 2.277 1_554 S
Cd172 O181 2.356 . S
C173 O178 1.209 . S
C173 O180 1.226 . S
O174 Cd170 2.273 1_554 S
O174 Cd172 2.411 . S
O174 C177 1.320 . S
O175 Cd172 2.333 . S
O175 C177 1.214 . S
O176 Cd172 2.352 . S
O176 C179 1.258 . S
C177 O174 1.320 . S
C177 O175 1.214 . S
O178 Cd170 2.277 . S
O178 C173 1.209 . S
C179 O176 1.258 . S
C179 O181 1.282 . S
O180 Cd172 2.277 1_556 S
O180 C173 1.226 . S
O181 Cd172 2.356 . S
O181 C179 1.282 . S
C182 O183 1.306 . S
C182 O185 1.160 . S
O183 C182 1.306 . S
O183 Cd184 2.228 . S
Cd184 O183 2.228 . S
Cd184 O188 2.273 . S
Cd184 O192 2.277 . S
O185 C182 1.160 . S
O185 Cd186 2.203 . S
Cd186 O185 2.203 . S
Cd186 O188 2.411 . S
Cd186 O189 2.333 . S
Cd186 O190 2.352 1_554 S
Cd186 O194 2.277 . S
Cd186 O195 2.356 1_554 S
C187 O192 1.209 . S
C187 O194 1.226 . S
O188 Cd184 2.273 . S
O188 Cd186 2.411 . S
O188 C191 1.320 . S
O189 Cd186 2.333 . S
O189 C191 1.214 . S
O190 Cd186 2.352 1_556 S
O190 C193 1.258 . S
C191 O188 1.320 . S
C191 O189 1.214 . S
O192 Cd184 2.277 . S
O192 C187 1.209 . S
C193 O190 1.258 . S
C193 O195 1.282 . S
O194 Cd186 2.277 . S
O194 C187 1.226 . S
O195 Cd186 2.356 1_556 S
O195 C193 1.282 . S
C196 O197 1.306 . S
C196 O199 1.160 . S
O197 C196 1.306 . S
O197 Cd198 2.228 . S
Cd198 O197 2.228 . S
Cd198 O202 2.273 . S
Cd198 O206 2.277 . S
O199 C196 1.160 . S
O199 Cd200 2.203 . S
Cd200 O199 2.203 . S
Cd200 O202 2.411 . S
Cd200 O203 2.333 . S
Cd200 O204 2.352 . S
Cd200 O208 2.277 . S
Cd200 O209 2.356 . S
C201 O206 1.209 . S
C201 O208 1.226 . S
O202 Cd198 2.273 . S
O202 Cd200 2.411 . S
O202 C205 1.320 . S
O203 Cd200 2.333 . S
O203 C205 1.214 . S
O204 Cd200 2.352 . S
O204 C207 1.258 . S
C205 O202 1.320 . S
C205 O203 1.214 . S
O206 Cd198 2.277 . S
O206 C201 1.209 . S
C207 O204 1.258 . S
C207 O209 1.282 . S
O208 Cd200 2.277 . S
O208 C201 1.226 . S
O209 Cd200 2.356 . S
O209 C207 1.282 . S
C210 O211 1.306 . S
C210 O213 1.160 . S
O211 C210 1.306 . S
O211 Cd212 2.228 . S
Cd212 O211 2.228 . S
Cd212 O216 2.273 . S
Cd212 O220 2.277 . S
O213 C210 1.160 . S
O213 Cd214 2.203 . S
Cd214 O213 2.203 . S
Cd214 O216 2.411 . S
Cd214 O217 2.333 . S
Cd214 O218 2.352 . S
Cd214 O222 2.277 . S
Cd214 O223 2.356 . S
C215 O220 1.209 . S
C215 O222 1.226 . S
O216 Cd212 2.273 . S
O216 Cd214 2.411 . S
O216 C219 1.320 . S
O217 Cd214 2.333 . S
O217 C219 1.214 . S
O218 Cd214 2.352 . S
O218 C221 1.258 . S
C219 O216 1.320 . S
C219 O217 1.214 . S
O220 Cd212 2.277 . S
O220 C215 1.209 . S
C221 O218 1.258 . S
C221 O223 1.282 . S
O222 Cd214 2.277 . S
O222 C215 1.226 . S
O223 Cd214 2.356 . S
O223 C221 1.282 . S
C224 O225 1.306 . S
C224 O227 1.160 . S
O225 C224 1.306 . S
O225 Cd226 2.228 . S
Cd226 O225 2.228 . S
Cd226 O230 2.273 . S
Cd226 O234 2.277 . S
O227 C224 1.160 . S
O227 Cd228 2.203 . S
Cd228 O227 2.203 . S
Cd228 O230 2.411 . S
Cd228 O231 2.333 . S
Cd228 O232 2.352 . S
Cd228 O236 2.277 . S
Cd228 O237 2.356 . S
C229 O234 1.209 . S
C229 O236 1.226 . S
O230 Cd226 2.273 . S
O230 Cd228 2.411 . S
O230 C233 1.320 . S
O231 Cd228 2.333 . S
O231 C233 1.214 . S
O232 Cd228 2.352 . S
O232 C235 1.258 . S
C233 O230 1.320 . S
C233 O231 1.214 . S
O234 Cd226 2.277 . S
O234 C229 1.209 . S
C235 O232 1.258 . S
C235 O237 1.282 . S
O236 Cd228 2.277 . S
O236 C229 1.226 . S
O237 Cd228 2.356 . S
O237 C235 1.282 . S
C238 O239 1.306 . S
C238 O241 1.160 . S
O239 C238 1.306 . S
O239 Cd240 2.228 . S
Cd240 O239 2.228 . S
Cd240 O244 2.273 . S
Cd240 O248 2.277 . S
O241 C238 1.160 . S
O241 Cd242 2.203 . S
Cd242 O241 2.203 . S
Cd242 O244 2.411 . S
Cd242 O245 2.333 . S
Cd242 O246 2.352 . S
Cd242 O250 2.277 . S
Cd242 O251 2.356 . S
C243 O248 1.209 . S
C243 O250 1.226 . S
O244 Cd240 2.273 . S
O244 Cd242 2.411 . S
O244 C247 1.320 . S
O245 Cd242 2.333 . S
O245 C247 1.214 . S
O246 Cd242 2.352 . S
O246 C249 1.258 . S
C247 O244 1.320 . S
C247 O245 1.214 . S
O248 Cd240 2.277 . S
O248 C243 1.209 . S
C249 O246 1.258 . S
C249 O251 1.282 . S
O250 Cd242 2.277 . S
O250 C243 1.226 . S
O251 Cd242 2.356 . S
O251 C249 1.282 . S
C252 O253 1.306 . S
C252 O255 1.160 . S
O253 C252 1.306 . S
O253 Cd254 2.228 . S
Cd254 O253 2.228 . S
Cd254 O258 2.273 . S
Cd254 O262 2.277 . S
O255 C252 1.160 . S
O255 Cd256 2.203 . S
Cd256 O255 2.203 . S
Cd256 O258 2.411 . S
Cd256 O259 2.333 . S
Cd256 O260 2.352 . S
Cd256 O264 2.277 . S
Cd256 O265 2.356 . S
C257 O262 1.209 . S
C257 O264 1.226 . S
O258 Cd254 2.273 . S
O258 Cd256 2.411 . S
O258 C261 1.320 . S
O259 Cd256 2.333 . S
O259 C261 1.214 . S
O260 Cd256 2.352 . S
O260 C263 1.258 . S
C261 O258 1.320 . S
C261 O259 1.214 . S
O262 Cd254 2.277 . S
O262 C257 1.209 . S
C263 O260 1.258 . S
C263 O265 1.282 . S
O264 Cd256 2.277 . S
O264 C257 1.226 . S
O265 Cd256 2.356 . S
O265 C263 1.282 . S
C266 O267 1.306 . S
C266 O269 1.160 . S
O267 C266 1.306 . S
O267 Cd268 2.228 . S
Cd268 O267 2.228 . S
Cd268 O272 2.273 . S
Cd268 O276 2.277 . S
O269 C266 1.160 . S
O269 Cd270 2.203 . S
Cd270 O269 2.203 . S
Cd270 O272 2.411 . S
Cd270 O273 2.333 . S
Cd270 O274 2.352 . S
Cd270 O278 2.277 . S
Cd270 O279 2.356 . S
C271 O276 1.209 . S
C271 O278 1.226 . S
O272 Cd268 2.273 . S
O272 Cd270 2.411 . S
O272 C275 1.320 . S
O273 Cd270 2.333 . S
O273 C275 1.214 . S
O274 Cd270 2.352 . S
O274 C277 1.258 . S
C275 O272 1.320 . S
C275 O273 1.214 . S
O276 Cd268 2.277 . S
O276 C271 1.209 . S
C277 O274 1.258 . S
C277 O279 1.282 . S
O278 Cd270 2.277 . S
O278 C271 1.226 . S
O279 Cd270 2.356 . S
O279 C277 1.282 . S
C280 O281 1.306 . S
C280 O283 1.160 . S
O281 C280 1.306 . S
O281 Cd282 2.228 . S
Cd282 O281 2.228 . S
Cd282 O286 2.273 . S
Cd282 O290 2.277 . S
O283 C280 1.160 . S
O283 Cd284 2.203 . S
Cd284 O283 2.203 . S
Cd284 O286 2.411 . S
Cd284 O287 2.335 1_554 S
Cd284 O288 2.352 1_554 S
Cd284 O292 2.277 . S
Cd284 O293 2.356 1_554 S
C285 O290 1.209 . S
C285 O292 1.226 . S
O286 Cd282 2.273 . S
O286 Cd284 2.411 . S
O286 C289 1.318 1_554 S
O287 Cd284 2.335 1_556 S
O287 C289 1.210 . S
O288 Cd284 2.352 1_556 S
O288 C291 1.258 . S
C289 O286 1.318 1_556 S
C289 O287 1.210 . S
O290 Cd282 2.277 . S
O290 C285 1.209 . S
C291 O288 1.258 . S
C291 O293 1.282 . S
O292 Cd284 2.277 . S
O292 C285 1.226 . S
O293 Cd284 2.356 1_556 S
O293 C291 1.282 . S
C294 O295 1.306 . S
C294 O297 1.160 . S
O295 C294 1.306 . S
O295 Cd296 2.228 . S
Cd296 O295 2.228 . S
Cd296 O300 2.273 . S
Cd296 O304 2.277 . S
O297 C294 1.160 . S
O297 Cd298 2.203 . S
Cd298 O297 2.203 . S
Cd298 O300 2.411 . S
Cd298 O301 2.333 . S
Cd298 O302 2.352 . S
Cd298 O306 2.277 . S
Cd298 O307 2.356 . S
C299 O304 1.209 . S
C299 O306 1.226 . S
O300 Cd296 2.273 . S
O300 Cd298 2.411 . S
O300 C303 1.320 . S
O301 Cd298 2.333 . S
O301 C303 1.214 . S
O302 Cd298 2.352 . S
O302 C305 1.258 . S
C303 O300 1.320 . S
C303 O301 1.214 . S
O304 Cd296 2.277 . S
O304 C299 1.209 . S
C305 O302 1.258 . S
C305 O307 1.282 . S
O306 Cd298 2.277 . S
O306 C299 1.226 . S
O307 Cd298 2.356 . S
O307 C305 1.282 . S
C308 O309 1.306 . S
C308 O311 1.160 . S
O309 C308 1.306 . S
O309 Cd310 2.228 . S
Cd310 O309 2.228 . S
Cd310 O314 2.273 . S
Cd310 O318 2.277 . S
O311 C308 1.160 . S
O311 Cd312 2.203 . S
Cd312 O311 2.203 . S
Cd312 O314 2.411 . S
Cd312 O315 2.333 . S
Cd312 O316 2.352 . S
Cd312 O320 2.277 . S
Cd312 O321 2.356 . S
C313 O318 1.209 . S
C313 O320 1.226 . S
O314 Cd310 2.273 . S
O314 Cd312 2.411 . S
O314 C317 1.320 . S
O315 Cd312 2.333 . S
O315 C317 1.214 . S
O316 Cd312 2.352 . S
O316 C319 1.258 . S
C317 O314 1.320 . S
C317 O315 1.214 . S
O318 Cd310 2.277 . S
O318 C313 1.209 . S
C319 O316 1.258 . S
C319 O321 1.282 . S
O320 Cd312 2.277 . S
O320 C313 1.226 . S
O321 Cd312 2.356 . S
O321 C319 1.282 . S
C322 O323 1.306 . S
C322 O325 1.160 . S
O323 C322 1.306 . S
O323 Cd324 2.228 . S
Cd324 O323 2.228 . S
Cd324 O328 2.273 . S
Cd324 O332 2.277 . S
O325 C322 1.160 . S
O325 Cd326 2.203 . S
Cd326 O325 2.203 . S
Cd326 O328 2.411 . S
Cd326 O329 2.333 . S
Cd326 O330 2.352 . S
Cd326 O334 2.277 . S
Cd326 O335 2.356 . S
C327 O332 1.209 . S
C327 O334 1.226 . S
O328 Cd324 2.273 . S
O328 Cd326 2.411 . S
O328 C331 1.320 . S
O329 Cd326 2.333 . S
O329 C331 1.214 . S
O330 Cd326 2.352 . S
O330 C333 1.258 . S
C331 O328 1.320 . S
C331 O329 1.214 . S
O332 Cd324 2.277 . S
O332 C327 1.209 . S
C333 O330 1.258 . S
C333 O335 1.282 . S
O334 Cd326 2.277 . S
O334 C327 1.226 . S
O335 Cd326 2.356 . S
O335 C333 1.282 . S
Ho336 C339 2.814 1_455 S
Ho336 O356 2.330 . S
Ho336 O358 2.390 1_455 S
Ho336 O359 2.518 1_456 S
Ho336 O360 2.401 . S
Ho336 O361 2.676 . S
Ho336 O363 2.338 1_546 S
Ho336 O367 2.288 1_556 S
Ho337 C348 2.811 . S
Ho337 O357 2.346 . S
Ho337 O361 2.305 1_554 S
Ho337 O362 2.322 . S
Ho337 O364 2.378 . S
Ho337 O365 2.524 . S
Ho337 O366 2.381 . S
Ho337 O367 2.669 . S
C338 O356 1.259 1_554 S
C338 O357 1.268 . S
C339 Ho336 2.814 1_655 S
C339 C340 1.488 . S
C339 O358 1.215 . S
C339 O359 1.289 1_556 S
C340 C339 1.488 . S
C340 C341 1.348 1_556 S
C340 C345 1.413 . S
C341 C340 1.348 1_554 S
C341 C342 1.442 1_554 S
C341 H368 0.930 . S
C342 C341 1.442 1_556 S
C342 C343 1.381 . S
C342 H369 0.931 1_556 S
C343 C342 1.381 . S
C343 C344 1.321 . S
C344 C343 1.321 . S
C344 C345 1.403 . S
C344 H370 0.934 . S
C345 C340 1.413 . S
C345 C344 1.403 . S
C345 H371 0.930 . S
C346 O360 1.275 . S
C346 O361 1.256 . S
C347 O362 1.259 1_565 S
C347 O363 1.268 . S
C348 Ho337 2.811 . S
C348 C349 1.488 . S
C348 O364 1.215 . S
C348 O365 1.289 . S
C349 C348 1.488 . S
C349 C350 1.348 . S
C349 C354 1.413 . S
C350 C349 1.348 . S
C350 C351 1.442 1_545 S
C350 H372 0.931 1_545 S
C351 C350 1.442 1_565 S
C351 C352 1.381 1_565 S
C351 H373 0.931 . S
C352 C351 1.381 1_545 S
C352 C353 1.321 . S
C353 C352 1.321 . S
C353 C354 1.403 . S
C353 H374 0.934 . S
C354 C349 1.413 . S
C354 C353 1.403 . S
C354 H375 0.930 . S
C355 O366 1.275 . S
C355 O367 1.256 . S
O356 Ho336 2.330 . S
O356 C338 1.259 1_556 S
O357 Ho337 2.346 . S
O357 C338 1.268 . S
O358 Ho336 2.390 1_655 S
O358 C339 1.215 . S
O359 Ho336 2.518 1_654 S
O359 C339 1.289 1_554 S
O360 Ho336 2.401 . S
O360 C346 1.275 . S
O361 Ho336 2.676 . S
O361 Ho337 2.305 1_556 S
O361 C346 1.256 . S
O362 Ho337 2.322 . S
O362 C347 1.259 1_545 S
O363 Ho336 2.338 1_564 S
O363 C347 1.268 . S
O364 Ho337 2.378 . S
O364 C348 1.215 . S
O365 Ho337 2.524 . S
O365 C348 1.289 . S
O366 Ho337 2.381 . S
O366 C355 1.275 . S
O367 Ho336 2.288 1_554 S
O367 Ho337 2.669 . S
O367 C355 1.256 . S
H368 C341 0.930 . S
H369 C342 0.931 1_554 S
H370 C344 0.934 . S
H371 C345 0.930 . S
H372 C350 0.931 1_565 S
H373 C351 0.931 . S
H374 C353 0.934 . S
H375 C354 0.930 . S
Ho376 C379 2.811 . S
Ho376 O396 2.322 . S
Ho376 O398 2.378 . S
Ho376 O399 2.524 . S
Ho376 O400 2.381 . S
Ho376 O401 2.669 . S
Ho376 O403 2.346 . S
Ho376 O407 2.305 . S
Ho377 C388 2.811 . S
Ho377 O397 2.346 . S
Ho377 O401 2.305 . S
Ho377 O402 2.322 . S
Ho377 O404 2.378 . S
Ho377 O405 2.524 . S
Ho377 O406 2.381 . S
Ho377 O407 2.669 . S
C378 O396 1.259 . S
C378 O397 1.268 . S
C379 Ho376 2.811 . S
C379 C380 1.488 . S
C379 O398 1.215 . S
C379 O399 1.289 . S
C380 C379 1.488 . S
C380 C381 1.348 . S
C380 C385 1.413 . S
C381 C380 1.348 . S
C381 C382 1.442 . S
C381 H408 0.930 . S
C382 C381 1.442 . S
C382 C383 1.381 . S
C382 H409 0.931 . S
C383 C382 1.381 . S
C383 C384 1.321 . S
C384 C383 1.321 . S
C384 C385 1.403 . S
C384 H410 0.934 . S
C385 C380 1.413 . S
C385 C384 1.403 . S
C385 H411 0.930 . S
C386 O400 1.275 . S
C386 O401 1.256 . S
C387 O402 1.259 . S
C387 O403 1.268 . S
C388 Ho377 2.811 . S
C388 C389 1.488 . S
C388 O404 1.215 . S
C388 O405 1.289 . S
C389 C388 1.488 . S
C389 C390 1.348 . S
C389 C394 1.413 . S
C390 C389 1.348 . S
C390 C391 1.442 . S
C390 H412 0.930 . S
C391 C390 1.442 . S
C391 C392 1.381 . S
C391 H413 0.931 . S
C392 C391 1.381 . S
C392 C393 1.321 . S
C393 C392 1.321 . S
C393 C394 1.403 . S
C393 H414 0.934 . S
C394 C389 1.413 . S
C394 C393 1.403 . S
C394 H415 0.930 . S
C395 O406 1.275 . S
C395 O407 1.256 . S
O396 Ho376 2.322 . S
O396 C378 1.259 . S
O397 Ho377 2.346 . S
O397 C378 1.268 . S
O398 Ho376 2.378 . S
O398 C379 1.215 . S
O399 Ho376 2.524 . S
O399 C379 1.289 . S
O400 Ho376 2.381 . S
O400 C386 1.275 . S
O401 Ho376 2.669 . S
O401 Ho377 2.305 . S
O401 C386 1.256 . S
O402 Ho377 2.322 . S
O402 C387 1.259 . S
O403 Ho376 2.346 . S
O403 C387 1.268 . S
O404 Ho377 2.378 . S
O404 C388 1.215 . S
O405 Ho377 2.524 . S
O405 C388 1.289 . S
O406 Ho377 2.381 . S
O406 C395 1.275 . S
O407 Ho376 2.305 . S
O407 Ho377 2.669 . S
O407 C395 1.256 . S
H408 C381 0.930 . S
H409 C382 0.931 . S
H410 C384 0.934 . S
H411 C385 0.930 . S
H412 C390 0.930 . S
H413 C391 0.931 . S
H414 C393 0.934 . S
H415 C394 0.930 . S
Ho416 C419 2.811 . S
Ho416 O436 2.322 1_545 S
Ho416 O438 2.378 . S
Ho416 O439 2.524 . S
Ho416 O440 2.381 . S
Ho416 O441 2.669 . S
Ho416 O443 2.346 . S
Ho416 O447 2.305 . S
Ho417 C428 2.811 . S
Ho417 O437 2.346 1_545 S
Ho417 O441 2.305 . S
Ho417 O442 2.322 . S
Ho417 O444 2.378 . S
Ho417 O445 2.524 . S
Ho417 O446 2.381 . S
Ho417 O447 2.669 . S
C418 O436 1.259 . S
C418 O437 1.268 . S
C419 Ho416 2.811 . S
C419 C420 1.488 1_545 S
C419 O438 1.215 . S
C419 O439 1.289 . S
C420 C419 1.488 1_565 S
C420 C421 1.348 . S
C420 C425 1.413 . S
C421 C420 1.348 . S
C421 C422 1.442 . S
C421 H448 0.930 . S
C422 C421 1.442 . S
C422 C423 1.381 . S
C422 H449 0.931 . S
C423 C422 1.381 . S
C423 C424 1.321 . S
C424 C423 1.321 . S
C424 C425 1.403 . S
C424 H450 0.934 . S
C425 C420 1.413 . S
C425 C424 1.403 . S
C425 H451 0.930 . S
C426 O440 1.275 . S
C426 O441 1.256 . S
C427 O442 1.259 . S
C427 O443 1.268 . S
C428 Ho417 2.811 . S
C428 C429 1.488 . S
C428 O444 1.215 . S
C428 O445 1.289 . S
C429 C428 1.488 . S
C429 C430 1.348 . S
C429 C434 1.413 . S
C430 C429 1.348 . S
C430 C431 1.442 . S
C430 H452 0.930 . S
C431 C430 1.442 . S
C431 C432 1.381 . S
C431 H453 0.931 . S
C432 C431 1.381 . S
C432 C433 1.321 . S
C433 C432 1.321 . S
C433 C434 1.403 . S
C433 H454 0.934 . S
C434 C429 1.413 . S
C434 C433 1.403 . S
C434 H455 0.930 . S
C435 O446 1.275 . S
C435 O447 1.256 . S
O436 Ho416 2.322 1_565 S
O436 C418 1.259 . S
O437 Ho417 2.346 1_565 S
O437 C418 1.268 . S
O438 Ho416 2.378 . S
O438 C419 1.215 . S
O439 Ho416 2.524 . S
O439 C419 1.289 . S
O440 Ho416 2.381 . S
O440 C426 1.275 . S
O441 Ho416 2.669 . S
O441 Ho417 2.305 . S
O441 C426 1.256 . S
O442 Ho417 2.322 . S
O442 C427 1.259 . S
O443 Ho416 2.346 . S
O443 C427 1.268 . S
O444 Ho417 2.378 . S
O444 C428 1.215 . S
O445 Ho417 2.524 . S
O445 C428 1.289 . S
O446 Ho417 2.381 . S
O446 C435 1.275 . S
O447 Ho416 2.305 . S
O447 Ho417 2.669 . S
O447 C435 1.256 . S
H448 C421 0.930 . S
H449 C422 0.931 . S
H450 C424 0.934 . S
H451 C425 0.930 . S
H452 C430 0.930 . S
H453 C431 0.931 . S
H454 C433 0.934 . S
H455 C434 0.930 . S
Ho456 C459 2.811 . S
Ho456 O476 2.322 . S
Ho456 O478 2.378 . S
Ho456 O479 2.524 . S
Ho456 O480 2.381 . S
Ho456 O481 2.669 . S
Ho456 O483 2.346 . S
Ho456 O487 2.305 . S
Ho457 C468 2.811 . S
Ho457 O477 2.346 . S
Ho457 O481 2.305 . S
Ho457 O482 2.322 . S
Ho457 O484 2.378 . S
Ho457 O485 2.524 . S
Ho457 O486 2.381 . S
Ho457 O487 2.669 . S
C458 O476 1.259 . S
C458 O477 1.268 . S
C459 Ho456 2.811 . S
C459 C460 1.488 . S
C459 O478 1.215 . S
C459 O479 1.289 . S
C460 C459 1.488 . S
C460 C461 1.348 . S
C460 C465 1.413 . S
C461 C460 1.348 . S
C461 C462 1.442 . S
C461 H488 0.930 . S
C462 C461 1.442 . S
C462 C463 1.381 . S
C462 H489 0.931 . S
C463 C462 1.381 . S
C463 C464 1.321 . S
C464 C463 1.321 . S
C464 C465 1.403 . S
C464 H490 0.934 . S
C465 C460 1.413 . S
C465 C464 1.403 . S
C465 H491 0.930 . S
C466 O480 1.275 . S
C466 O481 1.256 . S
C467 O482 1.259 . S
C467 O483 1.268 . S
C468 Ho457 2.811 . S
C468 C469 1.488 . S
C468 O484 1.215 . S
C468 O485 1.289 . S
C469 C468 1.488 . S
C469 C470 1.348 . S
C469 C474 1.413 . S
C470 C469 1.348 . S
C470 C471 1.442 . S
C470 H492 0.930 . S
C471 C470 1.442 . S
C471 C472 1.381 . S
C471 H493 0.931 . S
C472 C471 1.381 . S
C472 C473 1.321 . S
C473 C472 1.321 . S
C473 C474 1.403 . S
C473 H494 0.934 . S
C474 C469 1.413 . S
C474 C473 1.403 . S
C474 H495 0.930 . S
C475 O486 1.275 . S
C475 O487 1.256 . S
O476 Ho456 2.322 . S
O476 C458 1.259 . S
O477 Ho457 2.346 . S
O477 C458 1.268 . S
O478 Ho456 2.378 . S
O478 C459 1.215 . S
O479 Ho456 2.524 . S
O479 C459 1.289 . S
O480 Ho456 2.381 . S
O480 C466 1.275 . S
O481 Ho456 2.669 . S
O481 Ho457 2.305 . S
O481 C466 1.256 . S
O482 Ho457 2.322 . S
O482 C467 1.259 . S
O483 Ho456 2.346 . S
O483 C467 1.268 . S
O484 Ho457 2.378 . S
O484 C468 1.215 . S
O485 Ho457 2.524 . S
O485 C468 1.289 . S
O486 Ho457 2.381 . S
O486 C475 1.275 . S
O487 Ho456 2.305 . S
O487 Ho457 2.669 . S
O487 C475 1.256 . S
H488 C461 0.930 . S
H489 C462 0.931 . S
H490 C464 0.934 . S
H491 C465 0.930 . S
H492 C470 0.930 . S
H493 C471 0.931 . S
H494 C473 0.934 . S
H495 C474 0.930 . S
Ho496 C499 2.811 . S
Ho496 O516 2.322 . S
Ho496 O518 2.378 . S
Ho496 O519 2.524 . S
Ho496 O520 2.381 . S
Ho496 O521 2.669 . S
Ho496 O523 2.346 . S
Ho496 O527 2.305 . S
Ho497 C508 2.768 1_545 S
Ho497 O517 2.375 . S
Ho497 O521 2.331 . S
Ho497 O522 2.328 . S
Ho497 O524 2.336 1_545 S
Ho497 O525 2.489 1_545 S
Ho497 O526 2.395 . S
Ho497 O527 2.713 . S
C498 O516 1.259 . S
C498 O517 1.268 . S
C499 Ho496 2.811 . S
C499 C500 1.488 . S
C499 O518 1.215 . S
C499 O519 1.289 . S
C500 C499 1.488 . S
C500 C501 1.348 . S
C500 C505 1.413 . S
C501 C500 1.348 . S
C501 C502 1.442 . S
C501 H528 0.930 . S
C502 C501 1.442 . S
C502 C503 1.381 . S
C502 H529 0.931 . S
C503 C502 1.381 . S
C503 C504 1.321 . S
C504 C503 1.321 . S
C504 C505 1.403 . S
C504 H530 0.934 . S
C505 C500 1.413 . S
C505 C504 1.403 . S
C505 H531 0.930 . S
C506 O520 1.275 . S
C506 O521 1.256 . S
C507 O522 1.259 . S
C507 O523 1.268 . S
C508 Ho497 2.768 1_565 S
C508 C509 1.488 . S
C508 O524 1.215 . S
C508 O525 1.289 . S
C509 C508 1.488 . S
C509 C510 1.348 . S
C509 C514 1.413 . S
C510 C509 1.348 . S
C510 C511 1.442 . S
C510 H532 0.930 . S
C511 C510 1.442 . S
C511 C512 1.381 . S
C511 H533 0.931 . S
C512 C511 1.381 . S
C512 C513 1.321 . S
C513 C512 1.321 . S
C513 C514 1.403 . S
C513 H534 0.934 . S
C514 C509 1.413 . S
C514 C513 1.403 . S
C514 H535 0.930 . S
C515 O526 1.275 . S
C515 O527 1.256 . S
O516 Ho496 2.322 . S
O516 C498 1.259 . S
O517 Ho497 2.375 . S
O517 C498 1.268 . S
O518 Ho496 2.378 . S
O518 C499 1.215 . S
O519 Ho496 2.524 . S
O519 C499 1.289 . S
O520 Ho496 2.381 . S
O520 C506 1.275 . S
O521 Ho496 2.669 . S
O521 Ho497 2.331 . S
O521 C506 1.256 . S
O522 Ho497 2.328 . S
O522 C507 1.259 . S
O523 Ho496 2.346 . S
O523 C507 1.268 . S
O524 Ho497 2.336 1_565 S
O524 C508 1.215 . S
O525 Ho497 2.489 1_565 S
O525 C508 1.289 . S
O526 Ho497 2.395 . S
O526 C515 1.275 . S
O527 Ho496 2.305 . S
O527 Ho497 2.713 . S
O527 C515 1.256 . S
H528 C501 0.930 . S
H529 C502 0.931 . S
H530 C504 0.934 . S
H531 C505 0.930 . S
H532 C510 0.930 . S
H533 C511 0.931 . S
H534 C513 0.934 . S
H535 C514 0.930 . S
Ho536 C539 2.811 . S
Ho536 O556 2.322 . S
Ho536 O558 2.378 . S
Ho536 O559 2.524 . S
Ho536 O560 2.381 . S
Ho536 O561 2.669 . S
Ho536 O563 2.346 . S
Ho536 O567 2.305 . S
Ho537 C548 2.811 . S
Ho537 O557 2.346 . S
Ho537 O561 2.305 . S
Ho537 O562 2.322 . S
Ho537 O564 2.378 . S
Ho537 O565 2.524 . S
Ho537 O566 2.381 . S
Ho537 O567 2.669 . S
C538 O556 1.259 . S
C538 O557 1.268 . S
C539 Ho536 2.811 . S
C539 C540 1.488 . S
C539 O558 1.215 . S
C539 O559 1.289 . S
C540 C539 1.488 . S
C540 C541 1.348 . S
C540 C545 1.413 . S
C541 C540 1.348 . S
C541 C542 1.442 . S
C541 H568 0.930 . S
C542 C541 1.442 . S
C542 C543 1.381 . S
C542 H569 0.931 . S
C543 C542 1.381 . S
C543 C544 1.321 . S
C544 C543 1.321 . S
C544 C545 1.403 . S
C544 H570 0.934 . S
C545 C540 1.413 . S
C545 C544 1.403 . S
C545 H571 0.930 . S
C546 O560 1.275 . S
C546 O561 1.256 . S
C547 O562 1.259 . S
C547 O563 1.268 . S
C548 Ho537 2.811 . S
C548 C549 1.488 . S
C548 O564 1.215 . S
C548 O565 1.289 . S
C549 C548 1.488 . S
C549 C550 1.348 . S
C549 C554 1.413 . S
C550 C549 1.348 . S
C550 C551 1.442 . S
C550 H572 0.930 . S
C551 C550 1.442 . S
C551 C552 1.381 . S
C551 H573 0.931 . S
C552 C551 1.381 . S
C552 C553 1.321 . S
C553 C552 1.321 . S
C553 C554 1.403 . S
C553 H574 0.934 . S
C554 C549 1.413 . S
C554 C553 1.403 . S
C554 H575 0.930 . S
C555 O566 1.275 . S
C555 O567 1.256 . S
O556 Ho536 2.322 . S
O556 C538 1.259 . S
O557 Ho537 2.346 . S
O557 C538 1.268 . S
O558 Ho536 2.378 . S
O558 C539 1.215 . S
O559 Ho536 2.524 . S
O559 C539 1.289 . S
O560 Ho536 2.381 . S
O560 C546 1.275 . S
O561 Ho536 2.669 . S
O561 Ho537 2.305 . S
O561 C546 1.256 . S
O562 Ho537 2.322 . S
O562 C547 1.259 . S
O563 Ho536 2.346 . S
O563 C547 1.268 . S
O564 Ho537 2.378 . S
O564 C548 1.215 . S
O565 Ho537 2.524 . S
O565 C548 1.289 . S
O566 Ho537 2.381 . S
O566 C555 1.275 . S
O567 Ho536 2.305 . S
O567 Ho537 2.669 . S
O567 C555 1.256 . S
H568 C541 0.930 . S
H569 C542 0.931 . S
H570 C544 0.934 . S
H571 C545 0.930 . S
H572 C550 0.930 . S
H573 C551 0.931 . S
H574 C553 0.934 . S
H575 C554 0.930 . S
Ho576 C579 2.811 . S
Ho576 O596 2.322 . S
Ho576 O598 2.378 . S
Ho576 O599 2.524 . S
Ho576 O600 2.381 1_545 S
Ho576 O601 2.669 1_554 S
Ho576 O603 2.346 . S
Ho576 O607 2.305 . S
Ho577 C588 2.811 . S
Ho577 O597 2.346 . S
Ho577 O601 2.305 . S
Ho577 O602 2.322 . S
Ho577 O604 2.378 . S
Ho577 O605 2.524 . S
Ho577 O606 2.381 1_556 S
Ho577 O607 2.669 1_556 S
C578 O596 1.259 . S
C578 O597 1.268 1_554 S
C579 Ho576 2.811 . S
C579 C580 1.488 . S
C579 O598 1.215 . S
C579 O599 1.289 . S
C580 C579 1.488 . S
C580 C581 1.348 . S
C580 C585 1.413 1_545 S
C581 C580 1.348 . S
C581 C582 1.442 . S
C581 H608 0.930 . S
C582 C581 1.442 . S
C582 C583 1.381 1_545 S
C582 H609 0.931 . S
C583 C582 1.381 1_565 S
C583 C584 1.321 . S
C584 C583 1.321 . S
C584 C585 1.403 . S
C584 H610 0.934 . S
C585 C580 1.413 1_565 S
C585 C584 1.403 . S
C585 H611 0.930 . S
C586 O600 1.242 1_556 S
C586 O601 1.267 1_565 S
C587 O602 1.259 1_554 S
C587 O603 1.268 . S
C588 Ho577 2.811 . S
C588 C589 1.488 . S
C588 O604 1.215 . S
C588 O605 1.289 . S
C589 C588 1.488 . S
C589 C590 1.348 . S
C589 C594 1.413 . S
C590 C589 1.348 . S
C590 C591 1.442 . S
C590 H612 0.930 . S
C591 C590 1.442 . S
C591 C592 1.381 . S
C591 H613 0.931 . S
C592 C591 1.381 . S
C592 C593 1.321 . S
C593 C592 1.321 . S
C593 C594 1.403 . S
C593 H614 0.934 . S
C594 C589 1.413 . S
C594 C593 1.403 . S
C594 H615 0.930 . S
C595 O606 1.275 . S
C595 O607 1.256 . S
O596 Ho576 2.322 . S
O596 C578 1.259 . S
O597 Ho577 2.346 . S
O597 C578 1.268 1_556 S
O598 Ho576 2.378 . S
O598 C579 1.215 . S
O599 Ho576 2.524 . S
O599 C579 1.289 . S
O600 Ho576 2.381 1_565 S
O600 C586 1.242 1_554 S
O601 Ho576 2.669 1_556 S
O601 Ho577 2.305 . S
O601 C586 1.267 1_545 S
O602 Ho577 2.322 . S
O602 C587 1.259 1_556 S
O603 Ho576 2.346 . S
O603 C587 1.268 . S
O604 Ho577 2.378 . S
O604 C588 1.215 . S
O605 Ho577 2.524 . S
O605 C588 1.289 . S
O606 Ho577 2.381 1_554 S
O606 C595 1.275 . S
O607 Ho576 2.305 . S
O607 Ho577 2.669 1_554 S
O607 C595 1.256 . S
H608 C581 0.930 . S
H609 C582 0.931 . S
H610 C584 0.934 . S
H611 C585 0.930 . S
H612 C590 0.930 . S
H613 C591 0.931 . S
H614 C593 0.934 . S
H615 C594 0.930 . S
Ho616 C619 2.811 . S
Ho616 O636 2.322 . S
Ho616 O638 2.378 . S
Ho616 O639 2.524 . S
Ho616 O640 2.381 . S
Ho616 O641 2.669 . S
Ho616 O643 2.346 . S
Ho616 O647 2.305 . S
Ho617 C628 2.811 . S
Ho617 O637 2.346 . S
Ho617 O641 2.305 . S
Ho617 O642 2.322 . S
Ho617 O644 2.378 . S
Ho617 O645 2.524 . S
Ho617 O646 2.381 . S
Ho617 O647 2.669 . S
C618 O636 1.259 . S
C618 O637 1.268 . S
C619 Ho616 2.811 . S
C619 C620 1.488 . S
C619 O638 1.215 . S
C619 O639 1.289 . S
C620 C619 1.488 . S
C620 C621 1.348 . S
C620 C625 1.413 . S
C621 C620 1.348 . S
C621 C622 1.442 . S
C621 H648 0.930 . S
C622 C621 1.442 . S
C622 C623 1.381 . S
C622 H649 0.931 . S
C623 C622 1.381 . S
C623 C624 1.321 . S
C624 C623 1.321 . S
C624 C625 1.403 . S
C624 H650 0.934 . S
C625 C620 1.413 . S
C625 C624 1.403 . S
C625 H651 0.930 . S
C626 O640 1.275 . S
C626 O641 1.256 . S
C627 O642 1.259 . S
C627 O643 1.268 . S
C628 Ho617 2.811 . S
C628 C629 1.488 . S
C628 O644 1.215 . S
C628 O645 1.289 . S
C629 C628 1.488 . S
C629 C630 1.348 . S
C629 C634 1.413 . S
C630 C629 1.348 . S
C630 C631 1.442 . S
C630 H652 0.930 . S
C631 C630 1.442 . S
C631 C632 1.381 . S
C631 H653 0.931 . S
C632 C631 1.381 . S
C632 C633 1.321 . S
C633 C632 1.321 . S
C633 C634 1.403 . S
C633 H654 0.934 . S
C634 C629 1.413 . S
C634 C633 1.403 . S
C634 H655 0.930 . S
C635 O646 1.275 . S
C635 O647 1.256 . S
O636 Ho616 2.322 . S
O636 C618 1.259 . S
O637 Ho617 2.346 . S
O637 C618 1.268 . S
O638 Ho616 2.378 . S
O638 C619 1.215 . S
O639 Ho616 2.524 . S
O639 C619 1.289 . S
O640 Ho616 2.381 . S
O640 C626 1.275 . S
O641 Ho616 2.669 . S
O641 Ho617 2.305 . S
O641 C626 1.256 . S
O642 Ho617 2.322 . S
O642 C627 1.259 . S
O643 Ho616 2.346 . S
O643 C627 1.268 . S
O644 Ho617 2.378 . S
O644 C628 1.215 . S
O645 Ho617 2.524 . S
O645 C628 1.289 . S
O646 Ho617 2.381 . S
O646 C635 1.275 . S
O647 Ho616 2.305 . S
O647 Ho617 2.669 . S
O647 C635 1.256 . S
H648 C621 0.930 . S
H649 C622 0.931 . S
H650 C624 0.934 . S
H651 C625 0.930 . S
H652 C630 0.930 . S
H653 C631 0.931 . S
H654 C633 0.934 . S
H655 C634 0.930 . S
Ho656 C659 2.833 . S
Ho656 O676 2.322 1_554 S
Ho656 O678 2.378 . S
Ho656 O679 2.524 1_554 S
Ho656 O680 2.381 . S
Ho656 O681 2.669 . S
Ho656 O683 2.346 . S
Ho656 O687 2.305 . S
Ho657 C668 2.814 . S
Ho657 O677 2.341 1_554 S
Ho657 O681 2.307 . S
Ho657 O682 2.327 . S
Ho657 O684 2.380 . S
Ho657 O685 2.528 . S
Ho657 O686 2.379 1_554 S
Ho657 O687 2.669 . S
C658 O676 1.259 . S
C658 O677 1.268 . S
C659 Ho656 2.833 . S
C659 C660 1.466 1_554 S
C659 O678 1.242 . S
C659 O679 1.284 1_554 S
C660 C659 1.466 1_556 S
C660 C661 1.348 . S
C660 C665 1.413 . S
C661 C660 1.348 . S
C661 C662 1.442 . S
C661 H688 0.930 . S
C662 C661 1.442 . S
C662 C663 1.381 . S
C662 H689 0.931 . S
C663 C662 1.381 . S
C663 C664 1.321 . S
C664 C663 1.321 . S
C664 C665 1.403 . S
C664 H690 0.934 . S
C665 C660 1.413 . S
C665 C664 1.403 . S
C665 H691 0.930 . S
C666 O680 1.275 . S
C666 O681 1.256 . S
C667 O682 1.259 . S
C667 O683 1.268 . S
C668 Ho657 2.814 . S
C668 C669 1.488 . S
C668 O684 1.215 . S
C668 O685 1.289 . S
C669 C668 1.488 . S
C669 C670 1.348 . S
C669 C674 1.413 . S
C670 C669 1.348 . S
C670 C671 1.442 . S
C670 H692 0.930 . S
C671 C670 1.442 . S
C671 C672 1.381 . S
C671 H693 0.931 . S
C672 C671 1.381 . S
C672 C673 1.321 . S
C673 C672 1.321 . S
C673 C674 1.403 . S
C673 H694 0.934 . S
C674 C669 1.413 . S
C674 C673 1.403 . S
C674 H695 0.930 . S
C675 O686 1.275 1_554 S
C675 O687 1.256 . S
O676 Ho656 2.322 1_556 S
O676 C658 1.259 . S
O677 Ho657 2.341 1_556 S
O677 C658 1.268 . S
O678 Ho656 2.378 . S
O678 C659 1.242 . S
O679 Ho656 2.524 1_556 S
O679 C659 1.284 1_556 S
O680 Ho656 2.381 . S
O680 C666 1.275 . S
O681 Ho656 2.669 . S
O681 Ho657 2.307 . S
O681 C666 1.256 . S
O682 Ho657 2.327 . S
O682 C667 1.259 . S
O683 Ho656 2.346 . S
O683 C667 1.268 . S
O684 Ho657 2.380 . S
O684 C668 1.215 . S
O685 Ho657 2.528 . S
O685 C668 1.289 . S
O686 Ho657 2.379 1_556 S
O686 C675 1.275 1_556 S
O687 Ho656 2.305 . S
O687 Ho657 2.669 . S
O687 C675 1.256 . S
H688 C661 0.930 . S
H689 C662 0.931 . S
H690 C664 0.934 . S
H691 C665 0.930 . S
H692 C670 0.930 . S
H693 C671 0.931 . S
H694 C673 0.934 . S
H695 C674 0.930 . S
Ho696 C699 2.811 . S
Ho696 O716 2.322 . S
Ho696 O718 2.378 . S
Ho696 O719 2.524 . S
Ho696 O720 2.381 . S
Ho696 O721 2.669 . S
Ho696 O723 2.346 . S
Ho696 O727 2.305 . S
Ho697 C708 2.811 . S
Ho697 O717 2.346 . S
Ho697 O721 2.305 . S
Ho697 O722 2.322 . S
Ho697 O724 2.378 . S
Ho697 O725 2.524 . S
Ho697 O726 2.381 . S
Ho697 O727 2.669 . S
C698 O716 1.259 . S
C698 O717 1.268 . S
C699 Ho696 2.811 . S
C699 C700 1.488 . S
C699 O718 1.215 . S
C699 O719 1.289 . S
C700 C699 1.488 . S
C700 C701 1.348 . S
C700 C705 1.413 . S
C701 C700 1.348 . S
C701 C702 1.442 . S
C701 H728 0.930 . S
C702 C701 1.442 . S
C702 C703 1.381 . S
C702 H729 0.931 . S
C703 C702 1.381 . S
C703 C704 1.321 . S
C704 C703 1.321 . S
C704 C705 1.403 . S
C704 H730 0.934 . S
C705 C700 1.413 . S
C705 C704 1.403 . S
C705 H731 0.930 . S
C706 O720 1.275 . S
C706 O721 1.256 . S
C707 O722 1.259 . S
C707 O723 1.268 . S
C708 Ho697 2.811 . S
C708 C709 1.488 . S
C708 O724 1.215 . S
C708 O725 1.289 . S
C709 C708 1.488 . S
C709 C710 1.348 . S
C709 C714 1.413 . S
C710 C709 1.348 . S
C710 C711 1.442 . S
C710 H732 0.930 . S
C711 C710 1.442 . S
C711 C712 1.381 . S
C711 H733 0.931 . S
C712 C711 1.381 . S
C712 C713 1.321 . S
C713 C712 1.321 . S
C713 C714 1.403 . S
C713 H734 0.934 . S
C714 C709 1.413 . S
C714 C713 1.403 . S
C714 H735 0.930 . S
C715 O726 1.275 . S
C715 O727 1.256 . S
O716 Ho696 2.322 . S
O716 C698 1.259 . S
O717 Ho697 2.346 . S
O717 C698 1.268 . S
O718 Ho696 2.378 . S
O718 C699 1.215 . S
O719 Ho696 2.524 . S
O719 C699 1.289 . S
O720 Ho696 2.381 . S
O720 C706 1.275 . S
O721 Ho696 2.669 . S
O721 Ho697 2.305 . S
O721 C706 1.256 . S
O722 Ho697 2.322 . S
O722 C707 1.259 . S
O723 Ho696 2.346 . S
O723 C707 1.268 . S
O724 Ho697 2.378 . S
O724 C708 1.215 . S
O725 Ho697 2.524 . S
O725 C708 1.289 . S
O726 Ho697 2.381 . S
O726 C715 1.275 . S
O727 Ho696 2.305 . S
O727 Ho697 2.669 . S
O727 C715 1.256 . S
H728 C701 0.930 . S
H729 C702 0.931 . S
H730 C704 0.934 . S
H731 C705 0.930 . S
H732 C710 0.930 . S
H733 C711 0.931 . S
H734 C713 0.934 . S
H735 C714 0.930 . S
Ho736 C739 2.811 . S
Ho736 O756 2.322 . S
Ho736 O758 2.378 . S
Ho736 O759 2.524 . S
Ho736 O760 2.381 . S
Ho736 O761 2.669 . S
Ho736 O763 2.346 . S
Ho736 O767 2.305 . S
Ho737 C748 2.811 . S
Ho737 O757 2.346 . S
Ho737 O761 2.305 . S
Ho737 O762 2.322 . S
Ho737 O764 2.378 . S
Ho737 O765 2.524 . S
Ho737 O766 2.381 . S
Ho737 O767 2.669 . S
C738 O756 1.259 . S
C738 O757 1.268 . S
C739 Ho736 2.811 . S
C739 C740 1.488 . S
C739 O758 1.215 . S
C739 O759 1.289 . S
C740 C739 1.488 . S
C740 C741 1.375 . S
C740 C745 1.413 . S
C741 C740 1.375 . S
C741 C742 1.424 1_455 S
C741 H768 0.921 1_455 S
C742 C741 1.424 1_655 S
C742 C743 1.381 . S
C742 H769 0.931 . S
C743 C742 1.381 . S
C743 C744 1.321 1_655 S
C744 C743 1.321 1_455 S
C744 C745 1.403 . S
C744 H770 0.934 . S
C745 C740 1.413 . S
C745 C744 1.403 . S
C745 H771 0.930 . S
C746 O760 1.275 . S
C746 O761 1.256 . S
C747 O762 1.259 . S
C747 O763 1.268 . S
C748 Ho737 2.811 . S
C748 C749 1.488 . S
C748 O764 1.215 . S
C748 O765 1.289 . S
C749 C748 1.488 . S
C749 C750 1.348 . S
C749 C754 1.413 . S
C750 C749 1.348 . S
C750 C751 1.442 . S
C750 H772 0.930 . S
C751 C750 1.442 . S
C751 C752 1.381 . S
C751 H773 0.931 . S
C752 C751 1.381 . S
C752 C753 1.321 . S
C753 C752 1.321 . S
C753 C754 1.403 . S
C753 H774 0.934 . S
C754 C749 1.413 . S
C754 C753 1.403 . S
C754 H775 0.930 . S
C755 O766 1.275 . S
C755 O767 1.256 . S
O756 Ho736 2.322 . S
O756 C738 1.259 . S
O757 Ho737 2.346 . S
O757 C738 1.268 . S
O758 Ho736 2.378 . S
O758 C739 1.215 . S
O759 Ho736 2.524 . S
O759 C739 1.289 . S
O760 Ho736 2.381 . S
O760 C746 1.275 . S
O761 Ho736 2.669 . S
O761 Ho737 2.305 . S
O761 C746 1.256 . S
O762 Ho737 2.322 . S
O762 C747 1.259 . S
O763 Ho736 2.346 . S
O763 C747 1.268 . S
O764 Ho737 2.378 . S
O764 C748 1.215 . S
O765 Ho737 2.524 . S
O765 C748 1.289 . S
O766 Ho737 2.381 . S
O766 C755 1.275 . S
O767 Ho736 2.305 . S
O767 Ho737 2.669 . S
O767 C755 1.256 . S
H768 C741 0.921 1_655 S
H769 C742 0.931 . S
H770 C744 0.934 . S
H771 C745 0.930 . S
H772 C750 0.930 . S
H773 C751 0.931 . S
H774 C753 0.934 . S
H775 C754 0.930 . S
Ho776 C779 2.811 . S
Ho776 O796 2.322 . S
Ho776 O798 2.378 . S
Ho776 O799 2.524 . S
Ho776 O800 2.381 . S
Ho776 O801 2.669 . S
Ho776 O803 2.346 . S
Ho776 O807 2.305 . S
Ho777 C788 2.811 . S
Ho777 O797 2.346 . S
Ho777 O801 2.305 . S
Ho777 O802 2.322 . S
Ho777 O804 2.378 . S
Ho777 O805 2.524 . S
Ho777 O806 2.381 . S
Ho777 O807 2.669 . S
C778 O796 1.259 . S
C778 O797 1.268 . S
C779 Ho776 2.811 . S
C779 C780 1.488 . S
C779 O798 1.215 . S
C779 O799 1.289 . S
C780 C779 1.488 . S
C780 C781 1.348 . S
C780 C785 1.413 . S
C781 C780 1.348 . S
C781 C782 1.442 . S
C781 H808 0.930 . S
C782 C781 1.442 . S
C782 C783 1.381 . S
C782 H809 0.931 . S
C783 C782 1.381 . S
C783 C784 1.321 . S
C784 C783 1.321 . S
C784 C785 1.403 . S
C784 H810 0.934 . S
C785 C780 1.413 . S
C785 C784 1.403 . S
C785 H811 0.930 . S
C786 O800 1.275 . S
C786 O801 1.256 . S
C787 O802 1.259 . S
C787 O803 1.268 . S
C788 Ho777 2.811 . S
C788 C789 1.488 . S
C788 O804 1.215 . S
C788 O805 1.289 . S
C789 C788 1.488 . S
C789 C790 1.348 . S
C789 C794 1.413 . S
C790 C789 1.348 . S
C790 C791 1.442 . S
C790 H812 0.930 . S
C791 C790 1.442 . S
C791 C792 1.381 . S
C791 H813 0.931 . S
C792 C791 1.381 . S
C792 C793 1.321 . S
C793 C792 1.321 . S
C793 C794 1.403 . S
C793 H814 0.934 . S
C794 C789 1.413 . S
C794 C793 1.403 . S
C794 H815 0.930 . S
C795 O806 1.275 . S
C795 O807 1.256 . S
O796 Ho776 2.322 . S
O796 C778 1.259 . S
O797 Ho777 2.346 . S
O797 C778 1.268 . S
O798 Ho776 2.378 . S
O798 C779 1.215 . S
O799 Ho776 2.524 . S
O799 C779 1.289 . S
O800 Ho776 2.381 . S
O800 C786 1.275 . S
O801 Ho776 2.669 . S
O801 Ho777 2.305 . S
O801 C786 1.256 . S
O802 Ho777 2.322 . S
O802 C787 1.259 . S
O803 Ho776 2.346 . S
O803 C787 1.268 . S
O804 Ho777 2.378 . S
O804 C788 1.215 . S
O805 Ho777 2.524 . S
O805 C788 1.289 . S
O806 Ho777 2.381 . S
O806 C795 1.275 . S
O807 Ho776 2.305 . S
O807 Ho777 2.669 . S
O807 C795 1.256 . S
H808 C781 0.930 . S
H809 C782 0.931 . S
H810 C784 0.934 . S
H811 C785 0.930 . S
H812 C790 0.930 . S
H813 C791 0.931 . S
H814 C793 0.934 . S
H815 C794 0.930 . S
Ho816 C819 2.811 . S
Ho816 O836 2.322 . S
Ho816 O838 2.378 . S
Ho816 O839 2.524 . S
Ho816 O840 2.381 . S
Ho816 O841 2.669 . S
Ho816 O843 2.346 . S
Ho816 O847 2.305 . S
Ho817 C828 2.811 . S
Ho817 O837 2.346 . S
Ho817 O841 2.305 . S
Ho817 O842 2.322 . S
Ho817 O844 2.378 . S
Ho817 O845 2.524 . S
Ho817 O846 2.381 . S
Ho817 O847 2.669 . S
C818 O836 1.259 . S
C818 O837 1.268 . S
C819 Ho816 2.811 . S
C819 C820 1.488 . S
C819 O838 1.215 . S
C819 O839 1.289 . S
C820 C819 1.488 . S
C820 C821 1.348 . S
C820 C825 1.413 . S
C821 C820 1.348 . S
C821 C822 1.442 . S
C821 H848 0.930 . S
C822 C821 1.442 . S
C822 C823 1.381 . S
C822 H849 0.931 . S
C823 C822 1.381 . S
C823 C824 1.321 . S
C824 C823 1.321 . S
C824 C825 1.403 . S
C824 H850 0.934 . S
C825 C820 1.413 . S
C825 C824 1.403 . S
C825 H851 0.930 . S
C826 O840 1.275 . S
C826 O841 1.256 . S
C827 O842 1.259 . S
C827 O843 1.268 . S
C828 Ho817 2.811 . S
C828 C829 1.488 . S
C828 O844 1.215 . S
C828 O845 1.289 . S
C829 C828 1.488 . S
C829 C830 1.348 . S
C829 C834 1.413 . S
C830 C829 1.348 . S
C830 C831 1.442 . S
C830 H852 0.930 . S
C831 C830 1.442 . S
C831 C832 1.381 . S
C831 H853 0.931 . S
C832 C831 1.381 . S
C832 C833 1.321 . S
C833 C832 1.321 . S
C833 C834 1.403 . S
C833 H854 0.934 . S
C834 C829 1.413 . S
C834 C833 1.403 . S
C834 H855 0.930 . S
C835 O846 1.275 . S
C835 O847 1.256 . S
O836 Ho816 2.322 . S
O836 C818 1.259 . S
O837 Ho817 2.346 . S
O837 C818 1.268 . S
O838 Ho816 2.378 . S
O838 C819 1.215 . S
O839 Ho816 2.524 . S
O839 C819 1.289 . S
O840 Ho816 2.381 . S
O840 C826 1.275 . S
O841 Ho816 2.669 . S
O841 Ho817 2.305 . S
O841 C826 1.256 . S
O842 Ho817 2.322 . S
O842 C827 1.259 . S
O843 Ho816 2.346 . S
O843 C827 1.268 . S
O844 Ho817 2.378 . S
O844 C828 1.215 . S
O845 Ho817 2.524 . S
O845 C828 1.289 . S
O846 Ho817 2.381 . S
O846 C835 1.275 . S
O847 Ho816 2.305 . S
O847 Ho817 2.669 . S
O847 C835 1.256 . S
H848 C821 0.930 . S
H849 C822 0.931 . S
H850 C824 0.934 . S
H851 C825 0.930 . S
H852 C830 0.930 . S
H853 C831 0.931 . S
H854 C833 0.934 . S
H855 C834 0.930 . S
Ho856 C859 2.811 . S
Ho856 O876 2.322 . S
Ho856 O878 2.378 . S
Ho856 O879 2.524 . S
Ho856 O880 2.381 . S
Ho856 O881 2.669 . S
Ho856 O883 2.346 . S
Ho856 O887 2.305 . S
Ho857 C868 2.811 . S
Ho857 O877 2.346 . S
Ho857 O881 2.305 . S
Ho857 O882 2.322 . S
Ho857 O884 2.378 . S
Ho857 O885 2.524 . S
Ho857 O886 2.381 . S
Ho857 O887 2.669 . S
C858 O876 1.259 . S
C858 O877 1.268 . S
C859 Ho856 2.811 . S
C859 C860 1.488 . S
C859 O878 1.215 . S
C859 O879 1.289 . S
C860 C859 1.488 . S
C860 C861 1.348 . S
C860 C865 1.413 . S
C861 C860 1.348 . S
C861 C862 1.442 . S
C861 H888 0.930 . S
C862 C861 1.442 . S
C862 C863 1.381 . S
C862 H889 0.931 . S
C863 C862 1.381 . S
C863 C864 1.321 . S
C864 C863 1.321 . S
C864 C865 1.403 . S
C864 H890 0.934 . S
C865 C860 1.413 . S
C865 C864 1.403 . S
C865 H891 0.930 . S
C866 O880 1.275 . S
C866 O881 1.256 . S
C867 O882 1.259 . S
C867 O883 1.268 . S
C868 Ho857 2.811 . S
C868 C869 1.488 . S
C868 O884 1.215 . S
C868 O885 1.289 . S
C869 C868 1.488 . S
C869 C870 1.348 . S
C869 C874 1.413 . S
C870 C869 1.348 . S
C870 C871 1.442 . S
C870 H892 0.930 . S
C871 C870 1.442 . S
C871 C872 1.381 . S
C871 H893 0.931 . S
C872 C871 1.381 . S
C872 C873 1.321 . S
C873 C872 1.321 . S
C873 C874 1.403 . S
C873 H894 0.934 . S
C874 C869 1.413 . S
C874 C873 1.403 . S
C874 H895 0.930 . S
C875 O886 1.275 . S
C875 O887 1.256 . S
O876 Ho856 2.322 . S
O876 C858 1.259 . S
O877 Ho857 2.346 . S
O877 C858 1.268 . S
O878 Ho856 2.378 . S
O878 C859 1.215 . S
O879 Ho856 2.524 . S
O879 C859 1.289 . S
O880 Ho856 2.381 . S
O880 C866 1.275 . S
O881 Ho856 2.669 . S
O881 Ho857 2.305 . S
O881 C866 1.256 . S
O882 Ho857 2.322 . S
O882 C867 1.259 . S
O883 Ho856 2.346 . S
O883 C867 1.268 . S
O884 Ho857 2.378 . S
O884 C868 1.215 . S
O885 Ho857 2.524 . S
O885 C868 1.289 . S
O886 Ho857 2.381 . S
O886 C875 1.275 . S
O887 Ho856 2.305 . S
O887 Ho857 2.669 . S
O887 C875 1.256 . S
H888 C861 0.930 . S
H889 C862 0.931 . S
H890 C864 0.934 . S
H891 C865 0.930 . S
H892 C870 0.930 . S
H893 C871 0.931 . S
H894 C873 0.934 . S
H895 C874 0.930 . S
Ho896 C899 2.811 . S
Ho896 O916 2.322 . S
Ho896 O918 2.378 . S
Ho896 O919 2.524 . S
Ho896 O920 2.381 . S
Ho896 O921 2.669 . S
Ho896 O923 2.346 . S
Ho896 O927 2.305 . S
Ho897 C908 2.811 . S
Ho897 O917 2.346 . S
Ho897 O921 2.305 . S
Ho897 O922 2.322 . S
Ho897 O924 2.378 . S
Ho897 O925 2.524 . S
Ho897 O926 2.381 . S
Ho897 O927 2.669 . S
C898 O916 1.259 . S
C898 O917 1.268 . S
C899 Ho896 2.811 . S
C899 C900 1.488 . S
C899 O918 1.215 . S
C899 O919 1.289 . S
C900 C899 1.488 . S
C900 C901 1.348 . S
C900 C905 1.413 . S
C901 C900 1.348 . S
C901 C902 1.442 . S
C901 H928 0.930 . S
C902 C901 1.442 . S
C902 C903 1.381 . S
C902 H929 0.931 . S
C903 C902 1.381 . S
C903 C904 1.321 . S
C904 C903 1.321 . S
C904 C905 1.403 . S
C904 H930 0.934 . S
C905 C900 1.413 . S
C905 C904 1.403 . S
C905 H931 0.930 . S
C906 O920 1.275 . S
C906 O921 1.256 . S
C907 O922 1.259 . S
C907 O923 1.268 . S
C908 Ho897 2.811 . S
C908 C909 1.488 . S
C908 O924 1.215 . S
C908 O925 1.289 . S
C909 C908 1.488 . S
C909 C910 1.348 . S
C909 C914 1.413 . S
C910 C909 1.348 . S
C910 C911 1.442 . S
C910 H932 0.930 . S
C911 C910 1.442 . S
C911 C912 1.381 . S
C911 H933 0.931 . S
C912 C911 1.381 . S
C912 C913 1.321 . S
C913 C912 1.321 . S
C913 C914 1.403 . S
C913 H934 0.934 . S
C914 C909 1.413 . S
C914 C913 1.403 . S
C914 H935 0.930 . S
C915 O926 1.275 . S
C915 O927 1.256 . S
O916 Ho896 2.322 . S
O916 C898 1.259 . S
O917 Ho897 2.346 . S
O917 C898 1.268 . S
O918 Ho896 2.378 . S
O918 C899 1.215 . S
O919 Ho896 2.524 . S
O919 C899 1.289 . S
O920 Ho896 2.381 . S
O920 C906 1.275 . S
O921 Ho896 2.669 . S
O921 Ho897 2.305 . S
O921 C906 1.256 . S
O922 Ho897 2.322 . S
O922 C907 1.259 . S
O923 Ho896 2.346 . S
O923 C907 1.268 . S
O924 Ho897 2.378 . S
O924 C908 1.215 . S
O925 Ho897 2.524 . S
O925 C908 1.289 . S
O926 Ho897 2.381 . S
O926 C915 1.275 . S
O927 Ho896 2.305 . S
O927 Ho897 2.669 . S
O927 C915 1.256 . S
H928 C901 0.930 . S
H929 C902 0.931 . S
H930 C904 0.934 . S
H931 C905 0.930 . S
H932 C910 0.930 . S
H933 C911 0.931 . S
H934 C913 0.934 . S
H935 C914 0.930 . S
Ho936 C939 2.811 1_554 S
Ho936 O956 2.322 1_554 S
Ho936 O958 2.378 1_554 S
Ho936 O959 2.524 . S
Ho936 O960 2.381 1_554 S
Ho936 O961 2.669 1_554 S
Ho936 O963 2.346 . S
Ho936 O967 2.305 . S
Ho937 C948 2.811 1_455 S
Ho937 O957 2.346 . S
Ho937 O961 2.305 1_554 S
Ho937 O962 2.322 . S
Ho937 O964 2.378 1_455 S
Ho937 O965 2.524 1_455 S
Ho937 O966 2.381 . S
Ho937 O967 2.669 . S
C938 O956 1.259 1_554 S
C938 O957 1.268 . S
C939 Ho936 2.811 1_556 S
C939 C940 1.488 . S
C939 O958 1.215 . S
C939 O959 1.289 1_556 S
C940 C939 1.488 . S
C940 C941 1.348 1_556 S
C940 C945 1.413 . S
C941 C940 1.348 1_554 S
C941 C942 1.442 . S
C941 H968 0.930 . S
C942 C941 1.442 . S
C942 C943 1.381 1_554 S
C942 H969 0.931 . S
C943 C942 1.381 1_556 S
C943 C944 1.321 . S
C944 C943 1.321 . S
C944 C945 1.403 . S
C944 H970 0.934 . S
C945 C940 1.413 . S
C945 C944 1.403 . S
C945 H971 0.930 . S
C946 O960 1.275 . S
C946 O961 1.256 . S
C947 O962 1.259 . S
C947 O963 1.268 . S
C948 Ho937 2.811 1_655 S
C948 C949 1.488 . S
C948 O964 1.215 . S
C948 O965 1.289 . S
C949 C948 1.488 . S
C949 C950 1.348 . S
C949 C954 1.413 . S
C950 C949 1.348 . S
C950 C951 1.442 . S
C950 H972 0.930 . S
C951 C950 1.442 . S
C951 C952 1.381 . S
C951 H973 0.931 . S
C952 C951 1.381 . S
C952 C953 1.321 . S
C953 C952 1.321 . S
C953 C954 1.403 . S
C953 H974 0.934 . S
C954 C949 1.413 . S
C954 C953 1.403 . S
C954 H975 0.930 . S
C955 O966 1.275 . S
C955 O967 1.256 . S
O956 Ho936 2.322 1_556 S
O956 C938 1.259 1_556 S
O957 Ho937 2.346 . S
O957 C938 1.268 . S
O958 Ho936 2.378 1_556 S
O958 C939 1.215 . S
O959 Ho936 2.524 . S
O959 C939 1.289 1_554 S
O960 Ho936 2.381 1_556 S
O960 C946 1.275 . S
O961 Ho936 2.669 1_556 S
O961 Ho937 2.305 1_556 S
O961 C946 1.256 . S
O962 Ho937 2.322 . S
O962 C947 1.259 . S
O963 Ho936 2.346 . S
O963 C947 1.268 . S
O964 Ho937 2.378 1_655 S
O964 C948 1.215 . S
O965 Ho937 2.524 1_655 S
O965 C948 1.289 . S
O966 Ho937 2.381 . S
O966 C955 1.275 . S
O967 Ho936 2.305 . S
O967 Ho937 2.669 . S
O967 C955 1.256 . S
H968 C941 0.930 . S
H969 C942 0.931 . S
H970 C944 0.934 . S
H971 C945 0.930 . S
H972 C950 0.930 . S
H973 C951 0.931 . S
H974 C953 0.934 . S
H975 C954 0.930 . S
H976 C982 0.930 . S
H977 C986 0.925 1_554 S
H978 C991 0.883 1_655 S
H979 C989 0.929 . S
H980 C984 0.883 1_655 S
H981 C990 0.929 . S
C982 H976 0.930 . S
C982 C983 1.367 . S
C982 C990 1.378 . S
C983 C982 1.367 . S
C983 C991 1.465 . S
C984 H980 0.883 1_455 S
C984 C986 1.378 . S
C984 C988 1.350 . S
C985 C988 1.463 . S
C985 C990 1.350 . S
C985 N993 1.427 . S
C986 H977 0.925 1_556 S
C986 C984 1.378 . S
C986 C987 1.367 . S
C987 C986 1.367 . S
C987 C989 1.433 . S
C988 C984 1.350 . S
C988 C985 1.463 . S
C988 N992 1.427 . S
C989 H979 0.929 . S
C989 C987 1.433 . S
C989 N992 1.384 . S
C990 H981 0.929 . S
C990 C982 1.378 . S
C990 C985 1.350 . S
C991 H978 0.883 1_455 S
C991 C983 1.465 . S
C991 N993 1.401 . S
N992 C988 1.427 . S
N992 C989 1.384 . S
N993 C985 1.427 . S
N993 C991 1.401 . S
H994 C1000 0.930 . S
H995 C1004 0.930 . S
H996 C1009 0.929 . S
H997 C1007 0.929 . S
H998 C1002 0.929 . S
H999 C1008 0.929 . S
C1000 H994 0.930 . S
C1000 C1001 1.367 . S
C1000 C1008 1.378 . S
C1001 C1000 1.367 . S
C1001 C1009 1.433 . S
C1002 H998 0.929 . S
C1002 C1004 1.378 . S
C1002 C1006 1.350 . S
C1003 C1006 1.463 . S
C1003 C1008 1.350 . S
C1003 N1011 1.427 . S
C1004 H995 0.930 . S
C1004 C1002 1.378 . S
C1004 C1005 1.367 . S
C1005 C1004 1.367 . S
C1005 C1007 1.433 . S
C1006 C1002 1.350 . S
C1006 C1003 1.463 . S
C1006 N1010 1.427 . S
C1007 H997 0.929 . S
C1007 C1005 1.433 . S
C1007 N1010 1.384 . S
C1008 H999 0.929 . S
C1008 C1000 1.378 . S
C1008 C1003 1.350 . S
C1009 H996 0.929 . S
C1009 C1001 1.433 . S
C1009 N1011 1.384 . S
N1010 C1006 1.427 . S
N1010 C1007 1.384 . S
N1011 C1003 1.427 . S
N1011 C1009 1.384 . S
H1012 C1018 0.930 . S
H1013 C1022 0.930 . S
H1014 C1027 0.929 . S
H1015 C1025 0.929 . S
H1016 C1020 0.929 . S
H1017 C1026 0.929 . S
C1018 H1012 0.930 . S
C1018 C1019 1.367 . S
C1018 C1026 1.378 . S
C1019 C1018 1.367 . S
C1019 C1027 1.433 . S
C1020 H1016 0.929 . S
C1020 C1022 1.378 . S
C1020 C1024 1.350 . S
C1021 C1024 1.463 . S
C1021 C1026 1.350 . S
C1021 N1029 1.427 . S
C1022 H1013 0.930 . S
C1022 C1020 1.378 . S
C1022 C1023 1.367 . S
C1023 C1022 1.367 . S
C1023 C1025 1.433 . S
C1024 C1020 1.350 . S
C1024 C1021 1.463 . S
C1024 N1028 1.427 . S
C1025 H1015 0.929 . S
C1025 C1023 1.433 . S
C1025 N1028 1.384 . S
C1026 H1017 0.929 . S
C1026 C1018 1.378 . S
C1026 C1021 1.350 . S
C1027 H1014 0.929 . S
C1027 C1019 1.433 . S
C1027 N1029 1.384 . S
N1028 C1024 1.427 . S
N1028 C1025 1.384 . S
N1029 C1021 1.427 . S
N1029 C1027 1.384 . S
H1030 C1036 0.930 . S
H1031 C1040 0.930 . S
H1032 C1045 0.929 . S
H1033 C1043 0.929 . S
H1034 C1038 0.929 . S
H1035 C1044 0.929 . S
C1036 H1030 0.930 . S
C1036 C1037 1.367 . S
C1036 C1044 1.378 . S
C1037 C1036 1.367 . S
C1037 C1045 1.433 . S
C1038 H1034 0.929 . S
C1038 C1040 1.378 . S
C1038 C1042 1.350 . S
C1039 C1042 1.463 . S
C1039 C1044 1.350 . S
C1039 N1047 1.427 . S
C1040 H1031 0.930 . S
C1040 C1038 1.378 . S
C1040 C1041 1.367 . S
C1041 C1040 1.367 . S
C1041 C1043 1.433 . S
C1042 C1038 1.350 . S
C1042 C1039 1.463 . S
C1042 N1046 1.427 . S
C1043 H1033 0.929 . S
C1043 C1041 1.433 . S
C1043 N1046 1.384 . S
C1044 H1035 0.929 . S
C1044 C1036 1.378 . S
C1044 C1039 1.350 . S
C1045 H1032 0.929 . S
C1045 C1037 1.433 . S
C1045 N1047 1.384 . S
N1046 C1042 1.427 . S
N1046 C1043 1.384 . S
N1047 C1039 1.427 . S
N1047 C1045 1.384 . S
H1048 C1054 0.959 . S
H1049 C1058 0.930 . S
H1050 C1063 0.929 . S
H1051 C1061 0.929 . S
H1052 C1056 0.929 . S
H1053 C1062 0.929 . S
C1054 H1048 0.959 . S
C1054 C1055 1.350 1_655 S
C1054 C1062 1.366 1_655 S
C1055 C1054 1.350 1_455 S
C1055 C1063 1.433 . S
C1056 H1052 0.929 . S
C1056 C1058 1.378 . S
C1056 C1060 1.350 . S
C1057 C1060 1.463 . S
C1057 C1062 1.350 . S
C1057 N1065 1.427 . S
C1058 H1049 0.930 . S
C1058 C1056 1.378 . S
C1058 C1059 1.367 . S
C1059 C1058 1.367 . S
C1059 C1061 1.433 . S
C1060 C1056 1.350 . S
C1060 C1057 1.463 . S
C1060 N1064 1.427 . S
C1061 H1051 0.929 . S
C1061 C1059 1.433 . S
C1061 N1064 1.384 . S
C1062 H1053 0.929 . S
C1062 C1054 1.366 1_455 S
C1062 C1057 1.350 . S
C1063 H1050 0.929 . S
C1063 C1055 1.433 . S
C1063 N1065 1.384 . S
N1064 C1060 1.427 . S
N1064 C1061 1.384 . S
N1065 C1057 1.427 . S
N1065 C1063 1.384 . S
H1066 C1072 0.930 . S
H1067 C1076 0.930 . S
H1068 C1081 0.929 . S
H1069 C1079 0.929 . S
H1070 C1074 0.929 . S
H1071 C1080 0.929 . S
C1072 H1066 0.930 . S
C1072 C1073 1.367 . S
C1072 C1080 1.378 . S
C1073 C1072 1.367 . S
C1073 C1081 1.433 . S
C1074 H1070 0.929 . S
C1074 C1076 1.378 . S
C1074 C1078 1.350 . S
C1075 C1078 1.463 . S
C1075 C1080 1.350 . S
C1075 N1083 1.427 . S
C1076 H1067 0.930 . S
C1076 C1074 1.378 . S
C1076 C1077 1.367 . S
C1077 C1076 1.367 . S
C1077 C1079 1.433 . S
C1078 C1074 1.350 . S
C1078 C1075 1.463 . S
C1078 N1082 1.427 . S
C1079 H1069 0.929 . S
C1079 C1077 1.433 . S
C1079 N1082 1.384 . S
C1080 H1071 0.929 . S
C1080 C1072 1.378 . S
C1080 C1075 1.350 . S
C1081 H1068 0.929 . S
C1081 C1073 1.433 . S
C1081 N1083 1.384 . S
N1082 C1078 1.427 . S
N1082 C1079 1.384 . S
N1083 C1075 1.427 . S
N1083 C1081 1.384 . S
H1084 C1090 0.930 . S
H1085 C1094 0.930 . S
H1086 C1099 0.929 . S
H1087 C1097 0.929 . S
H1088 C1092 0.929 . S
H1089 C1098 0.929 . S
C1090 H1084 0.930 . S
C1090 C1091 1.367 . S
C1090 C1098 1.378 . S
C1091 C1090 1.367 . S
C1091 C1099 1.433 . S
C1092 H1088 0.929 . S
C1092 C1094 1.378 . S
C1092 C1096 1.350 . S
C1093 C1096 1.463 . S
C1093 C1098 1.350 . S
C1093 N1101 1.427 . S
C1094 H1085 0.930 . S
C1094 C1092 1.378 . S
C1094 C1095 1.367 . S
C1095 C1094 1.367 . S
C1095 C1097 1.433 . S
C1096 C1092 1.350 . S
C1096 C1093 1.463 . S
C1096 N1100 1.427 . S
C1097 H1087 0.929 . S
C1097 C1095 1.433 . S
C1097 N1100 1.384 . S
C1098 H1089 0.929 . S
C1098 C1090 1.378 . S
C1098 C1093 1.350 . S
C1099 H1086 0.929 . S
C1099 C1091 1.433 . S
C1099 N1101 1.384 . S
N1100 C1096 1.427 . S
N1100 C1097 1.384 . S
N1101 C1093 1.427 . S
N1101 C1099 1.384 . S
H1102 C1108 0.930 . S
H1103 C1112 0.930 . S
H1104 C1117 0.929 . S
H1105 C1115 0.929 . S
H1106 C1110 0.929 . S
H1107 C1116 0.929 . S
C1108 H1102 0.930 . S
C1108 C1109 1.367 . S
C1108 C1116 1.378 . S
C1109 C1108 1.367 . S
C1109 C1117 1.433 . S
C1110 H1106 0.929 . S
C1110 C1112 1.378 . S
C1110 C1114 1.350 . S
C1111 C1114 1.463 . S
C1111 C1116 1.350 . S
C1111 N1119 1.427 . S
C1112 H1103 0.930 . S
C1112 C1110 1.378 . S
C1112 C1113 1.367 . S
C1113 C1112 1.367 . S
C1113 C1115 1.433 . S
C1114 C1110 1.350 . S
C1114 C1111 1.463 . S
C1114 N1118 1.427 . S
C1115 H1105 0.929 . S
C1115 C1113 1.433 . S
C1115 N1118 1.384 . S
C1116 H1107 0.929 . S
C1116 C1108 1.378 . S
C1116 C1111 1.350 . S
C1117 H1104 0.929 . S
C1117 C1109 1.433 . S
C1117 N1119 1.384 . S
N1118 C1114 1.427 . S
N1118 C1115 1.384 . S
N1119 C1111 1.427 . S
N1119 C1117 1.384 . S
H1120 C1126 0.930 1_455 S
H1121 C1130 0.935 . S
H1122 C1135 0.929 . S
H1123 C1133 0.929 . S
H1124 C1128 0.929 . S
H1125 C1134 0.929 . S
C1126 H1120 0.930 1_655 S
C1126 C1127 1.367 . S
C1126 C1134 1.378 1_655 S
C1127 C1126 1.367 . S
C1127 C1135 1.433 . S
C1128 H1124 0.929 . S
C1128 C1130 1.378 1_655 S
C1128 C1132 1.350 1_655 S
C1129 C1132 1.463 1_655 S
C1129 C1134 1.350 1_655 S
C1129 N1137 1.427 . S
C1130 H1121 0.935 . S
C1130 C1128 1.378 1_455 S
C1130 C1131 1.367 . S
C1131 C1130 1.367 . S
C1131 C1133 1.433 . S
C1132 C1128 1.350 1_455 S
C1132 C1129 1.463 1_455 S
C1132 N1136 1.427 . S
C1133 H1123 0.929 . S
C1133 C1131 1.433 . S
C1133 N1136 1.384 . S
C1134 H1125 0.929 . S
C1134 C1126 1.378 1_455 S
C1134 C1129 1.350 1_455 S
C1135 H1122 0.929 . S
C1135 C1127 1.433 . S
C1135 N1137 1.384 . S
N1136 C1132 1.427 . S
N1136 C1133 1.384 . S
N1137 C1129 1.427 . S
N1137 C1135 1.384 . S
H1138 C1144 0.930 . S
H1139 C1148 0.930 . S
H1140 C1153 0.929 . S
H1141 C1151 0.929 . S
H1142 C1146 0.929 . S
H1143 C1152 0.929 . S
C1144 H1138 0.930 . S
C1144 C1145 1.367 . S
C1144 C1152 1.378 . S
C1145 C1144 1.367 . S
C1145 C1153 1.433 . S
C1146 H1142 0.929 . S
C1146 C1148 1.378 . S
C1146 C1150 1.350 . S
C1147 C1150 1.463 . S
C1147 C1152 1.350 . S
C1147 N1155 1.427 . S
C1148 H1139 0.930 . S
C1148 C1146 1.378 . S
C1148 C1149 1.367 . S
C1149 C1148 1.367 . S
C1149 C1151 1.433 . S
C1150 C1146 1.350 . S
C1150 C1147 1.463 . S
C1150 N1154 1.427 . S
C1151 H1141 0.929 . S
C1151 C1149 1.433 . S
C1151 N1154 1.384 . S
C1152 H1143 0.929 . S
C1152 C1144 1.378 . S
C1152 C1147 1.350 . S
C1153 H1140 0.929 . S
C1153 C1145 1.433 . S
C1153 N1155 1.384 . S
N1154 C1150 1.427 . S
N1154 C1151 1.384 . S
N1155 C1147 1.427 . S
N1155 C1153 1.384 . S
H1156 C1162 0.930 . S
H1157 C1166 0.930 . S
H1158 C1171 0.929 . S
H1159 C1169 0.929 . S
H1160 C1164 0.929 . S
H1161 C1170 0.929 . S
C1162 H1156 0.930 . S
C1162 C1163 1.367 . S
C1162 C1170 1.378 . S
C1163 C1162 1.367 . S
C1163 C1171 1.433 . S
C1164 H1160 0.929 . S
C1164 C1166 1.378 . S
C1164 C1168 1.350 . S
C1165 C1168 1.463 . S
C1165 C1170 1.350 . S
C1165 N1173 1.427 . S
C1166 H1157 0.930 . S
C1166 C1164 1.378 . S
C1166 C1167 1.367 . S
C1167 C1166 1.367 . S
C1167 C1169 1.433 . S
C1168 C1164 1.350 . S
C1168 C1165 1.463 . S
C1168 N1172 1.427 . S
C1169 H1159 0.929 . S
C1169 C1167 1.433 . S
C1169 N1172 1.384 . S
C1170 H1161 0.929 . S
C1170 C1162 1.378 . S
C1170 C1165 1.350 . S
C1171 H1158 0.929 . S
C1171 C1163 1.433 . S
C1171 N1173 1.384 . S
N1172 C1168 1.427 . S
N1172 C1169 1.384 . S
N1173 C1165 1.427 . S
N1173 C1171 1.384 . S
H1174 C1180 0.930 . S
H1175 C1184 0.930 . S
H1176 C1189 0.929 . S
H1177 C1187 0.929 . S
H1178 C1182 0.929 . S
H1179 C1188 0.929 . S
C1180 H1174 0.930 . S
C1180 C1181 1.367 . S
C1180 C1188 1.378 . S
C1181 C1180 1.367 . S
C1181 C1189 1.433 . S
C1182 H1178 0.929 . S
C1182 C1184 1.378 . S
C1182 C1186 1.350 . S
C1183 C1186 1.463 . S
C1183 C1188 1.350 . S
C1183 N1191 1.427 . S
C1184 H1175 0.930 . S
C1184 C1182 1.378 . S
C1184 C1185 1.367 . S
C1185 C1184 1.367 . S
C1185 C1187 1.433 . S
C1186 C1182 1.350 . S
C1186 C1183 1.463 . S
C1186 N1190 1.427 . S
C1187 H1177 0.929 . S
C1187 C1185 1.433 . S
C1187 N1190 1.384 . S
C1188 H1179 0.929 . S
C1188 C1180 1.378 . S
C1188 C1183 1.350 . S
C1189 H1176 0.929 . S
C1189 C1181 1.433 . S
C1189 N1191 1.384 . S
N1190 C1186 1.427 . S
N1190 C1187 1.384 . S
N1191 C1183 1.427 . S
N1191 C1189 1.384 . S
H1192 C1198 0.930 . S
H1193 C1202 0.930 . S
H1194 C1207 0.929 . S
H1195 C1205 0.929 . S
H1196 C1200 0.929 . S
H1197 C1206 0.929 1_455 S
C1198 H1192 0.930 . S
C1198 C1199 1.367 . S
C1198 C1206 1.378 . S
C1199 C1198 1.367 . S
C1199 C1207 1.433 . S
C1200 H1196 0.929 . S
C1200 C1202 1.378 . S
C1200 C1204 1.350 . S
C1201 C1204 1.463 1_655 S
C1201 C1206 1.350 . S
C1201 N1209 1.427 . S
C1202 H1193 0.930 . S
C1202 C1200 1.378 . S
C1202 C1203 1.367 . S
C1203 C1202 1.367 . S
C1203 C1205 1.433 . S
C1204 C1200 1.350 . S
C1204 C1201 1.463 1_455 S
C1204 N1208 1.427 . S
C1205 H1195 0.929 . S
C1205 C1203 1.433 . S
C1205 N1208 1.384 . S
C1206 H1197 0.929 1_655 S
C1206 C1198 1.378 . S
C1206 C1201 1.350 . S
C1207 H1194 0.929 . S
C1207 C1199 1.433 . S
C1207 N1209 1.384 . S
N1208 C1204 1.427 . S
N1208 C1205 1.384 . S
N1209 C1201 1.427 . S
N1209 C1207 1.384 . S
H1210 C1216 0.930 . S
H1211 C1220 0.930 . S
H1212 C1225 0.929 . S
H1213 C1223 0.929 . S
H1214 C1218 0.929 . S
H1215 C1224 0.929 . S
C1216 H1210 0.930 . S
C1216 C1217 1.367 . S
C1216 C1224 1.378 . S
C1217 C1216 1.367 . S
C1217 C1225 1.433 . S
C1218 H1214 0.929 . S
C1218 C1220 1.378 . S
C1218 C1222 1.350 . S
C1219 C1222 1.463 . S
C1219 C1224 1.350 . S
C1219 N1227 1.427 . S
C1220 H1211 0.930 . S
C1220 C1218 1.378 . S
C1220 C1221 1.367 . S
C1221 C1220 1.367 . S
C1221 C1223 1.433 . S
C1222 C1218 1.350 . S
C1222 C1219 1.463 . S
C1222 N1226 1.427 . S
C1223 H1213 0.929 . S
C1223 C1221 1.433 . S
C1223 N1226 1.384 . S
C1224 H1215 0.929 . S
C1224 C1216 1.378 . S
C1224 C1219 1.350 . S
C1225 H1212 0.929 . S
C1225 C1217 1.433 . S
C1225 N1227 1.384 . S
N1226 C1222 1.427 . S
N1226 C1223 1.384 . S
N1227 C1219 1.427 . S
N1227 C1225 1.384 . S
H1228 C1234 0.930 . S
H1229 C1238 0.930 . S
H1230 C1243 0.929 . S
H1231 C1241 0.929 . S
H1232 C1236 0.929 . S
H1233 C1242 0.929 . S
C1234 H1228 0.930 . S
C1234 C1235 1.367 . S
C1234 C1242 1.378 . S
C1235 C1234 1.367 . S
C1235 C1243 1.433 . S
C1236 H1232 0.929 . S
C1236 C1238 1.378 . S
C1236 C1240 1.350 . S
C1237 C1240 1.463 . S
C1237 C1242 1.350 . S
C1237 N1245 1.427 . S
C1238 H1229 0.930 . S
C1238 C1236 1.378 . S
C1238 C1239 1.367 . S
C1239 C1238 1.367 . S
C1239 C1241 1.433 . S
C1240 C1236 1.350 . S
C1240 C1237 1.463 . S
C1240 N1244 1.427 . S
C1241 H1231 0.929 . S
C1241 C1239 1.433 . S
C1241 N1244 1.384 . S
C1242 H1233 0.929 . S
C1242 C1234 1.378 . S
C1242 C1237 1.350 . S
C1243 H1230 0.929 . S
C1243 C1235 1.433 . S
C1243 N1245 1.384 . S
N1244 C1240 1.427 . S
N1244 C1241 1.384 . S
N1245 C1237 1.427 . S
N1245 C1243 1.384 . S
H1246 C1252 0.930 . S
H1247 C1256 0.930 . S
H1248 C1261 0.929 . S
H1249 C1259 0.929 . S
H1250 C1254 0.929 . S
H1251 C1260 0.929 . S
C1252 H1246 0.930 . S
C1252 C1253 1.367 . S
C1252 C1260 1.378 . S
C1253 C1252 1.367 . S
C1253 C1261 1.433 . S
C1254 H1250 0.929 . S
C1254 C1256 1.378 . S
C1254 C1258 1.350 . S
C1255 C1258 1.463 . S
C1255 C1260 1.350 . S
C1255 N1263 1.427 . S
C1256 H1247 0.930 . S
C1256 C1254 1.378 . S
C1256 C1257 1.367 . S
C1257 C1256 1.367 . S
C1257 C1259 1.433 . S
C1258 C1254 1.350 . S
C1258 C1255 1.463 . S
C1258 N1262 1.427 . S
C1259 H1249 0.929 . S
C1259 C1257 1.433 . S
C1259 N1262 1.384 . S
C1260 H1251 0.929 . S
C1260 C1252 1.378 . S
C1260 C1255 1.350 . S
C1261 H1248 0.929 . S
C1261 C1253 1.433 . S
C1261 N1263 1.384 . S
N1262 C1258 1.427 . S
N1262 C1259 1.384 . S
N1263 C1255 1.427 . S
N1263 C1261 1.384 . S
H1264 C1270 0.930 . S
H1265 C1274 0.930 . S
H1266 C1279 0.910 1_556 S
H1267 C1277 0.929 . S
H1268 C1272 0.929 1_545 S
H1269 C1278 0.929 . S
C1270 H1264 0.930 . S
C1270 C1271 1.367 . S
C1270 C1278 1.378 . S
C1271 C1270 1.367 . S
C1271 C1279 1.445 . S
C1272 H1268 0.929 1_565 S
C1272 C1274 1.378 1_565 S
C1272 C1276 1.350 . S
C1273 C1276 1.463 . S
C1273 C1278 1.350 . S
C1273 N1281 1.427 . S
C1274 H1265 0.930 . S
C1274 C1272 1.378 1_545 S
C1274 C1275 1.367 1_545 S
C1275 C1274 1.367 1_565 S
C1275 C1277 1.433 . S
C1276 C1272 1.350 . S
C1276 C1273 1.463 . S
C1276 N1280 1.427 . S
C1277 H1267 0.929 . S
C1277 C1275 1.433 . S
C1277 N1280 1.384 . S
C1278 H1269 0.929 . S
C1278 C1270 1.378 . S
C1278 C1273 1.350 . S
C1279 H1266 0.910 1_554 S
C1279 C1271 1.445 . S
C1279 N1281 1.392 . S
N1280 C1276 1.427 . S
N1280 C1277 1.384 . S
N1281 C1273 1.427 . S
N1281 C1279 1.392 . S
H1282 C1288 0.930 . S
H1283 C1292 0.930 . S
H1284 C1297 0.929 . S
H1285 C1295 0.929 . S
H1286 C1290 0.929 . S
H1287 C1296 0.929 . S
C1288 H1282 0.930 . S
C1288 C1289 1.370 . S
C1288 C1296 1.378 . S
C1289 C1288 1.370 . S
C1289 C1297 1.426 1_556 S
C1290 H1286 0.929 . S
C1290 C1292 1.378 . S
C1290 C1294 1.350 . S
C1291 C1294 1.475 . S
C1291 C1296 1.333 1_554 S
C1291 N1299 1.436 . S
C1292 H1283 0.930 . S
C1292 C1290 1.378 . S
C1292 C1293 1.367 . S
C1293 C1292 1.367 . S
C1293 C1295 1.433 1_554 S
C1294 C1290 1.350 . S
C1294 C1291 1.475 . S
C1294 N1298 1.427 1_554 S
C1295 H1285 0.929 . S
C1295 C1293 1.433 1_556 S
C1295 N1298 1.384 . S
C1296 H1287 0.929 . S
C1296 C1288 1.378 . S
C1296 C1291 1.333 1_556 S
C1297 H1284 0.929 . S
C1297 C1289 1.426 1_554 S
C1297 N1299 1.384 . S
N1298 C1294 1.427 1_556 S
N1298 C1295 1.384 . S
N1299 C1291 1.436 . S
N1299 C1297 1.384 . S
H1300 C1306 0.930 . S
H1301 C1310 0.930 . S
H1302 C1315 0.929 . S
H1303 C1313 0.929 . S
H1304 C1308 0.929 . S
H1305 C1314 0.929 . S
C1306 H1300 0.930 . S
C1306 C1307 1.367 . S
C1306 C1314 1.378 . S
C1307 C1306 1.367 . S
C1307 C1315 1.433 . S
C1308 H1304 0.929 . S
C1308 C1310 1.378 . S
C1308 C1312 1.350 . S
C1309 C1312 1.463 . S
C1309 C1314 1.350 . S
C1309 N1317 1.427 . S
C1310 H1301 0.930 . S
C1310 C1308 1.378 . S
C1310 C1311 1.367 . S
C1311 C1310 1.367 . S
C1311 C1313 1.433 . S
C1312 C1308 1.350 . S
C1312 C1309 1.463 . S
C1312 N1316 1.427 . S
C1313 H1303 0.929 . S
C1313 C1311 1.433 . S
C1313 N1316 1.384 . S
C1314 H1305 0.929 . S
C1314 C1306 1.378 . S
C1314 C1309 1.350 . S
C1315 H1302 0.929 . S
C1315 C1307 1.433 . S
C1315 N1317 1.384 . S
N1316 C1312 1.427 . S
N1316 C1313 1.384 . S
N1317 C1309 1.427 . S
N1317 C1315 1.384 . S
H1318 C1324 0.930 . S
H1319 C1328 0.930 . S
H1320 C1333 0.929 . S
H1321 C1331 0.929 . S
H1322 C1326 0.929 . S
H1323 C1332 0.929 . S
C1324 H1318 0.930 . S
C1324 C1325 1.367 . S
C1324 C1332 1.378 . S
C1325 C1324 1.367 . S
C1325 C1333 1.433 . S
C1326 H1322 0.929 . S
C1326 C1328 1.378 . S
C1326 C1330 1.350 . S
C1327 C1330 1.463 . S
C1327 C1332 1.350 . S
C1327 N1335 1.427 . S
C1328 H1319 0.930 . S
C1328 C1326 1.378 . S
C1328 C1329 1.367 . S
C1329 C1328 1.367 . S
C1329 C1331 1.433 . S
C1330 C1326 1.350 . S
C1330 C1327 1.463 . S
C1330 N1334 1.427 . S
C1331 H1321 0.929 . S
C1331 C1329 1.433 . S
C1331 N1334 1.384 . S
C1332 H1323 0.929 . S
C1332 C1324 1.378 . S
C1332 C1327 1.350 . S
C1333 H1320 0.929 . S
C1333 C1325 1.433 . S
C1333 N1335 1.384 . S
N1334 C1330 1.427 . S
N1334 C1331 1.384 . S
N1335 C1327 1.427 . S
N1335 C1333 1.384 . S
H1336 C1342 0.930 . S
H1337 C1346 0.930 . S
H1338 C1351 0.929 . S
H1339 C1349 0.929 . S
H1340 C1344 0.929 . S
H1341 C1350 0.929 . S
C1342 H1336 0.930 . S
C1342 C1343 1.367 . S
C1342 C1350 1.378 . S
C1343 C1342 1.367 . S
C1343 C1351 1.433 . S
C1344 H1340 0.929 . S
C1344 C1346 1.378 . S
C1344 C1348 1.350 . S
C1345 C1348 1.463 . S
C1345 C1350 1.350 . S
C1345 N1353 1.427 . S
C1346 H1337 0.930 . S
C1346 C1344 1.378 . S
C1346 C1347 1.367 . S
C1347 C1346 1.367 . S
C1347 C1349 1.433 . S
C1348 C1344 1.350 . S
C1348 C1345 1.463 . S
C1348 N1352 1.427 . S
C1349 H1339 0.929 . S
C1349 C1347 1.433 . S
C1349 N1352 1.384 . S
C1350 H1341 0.929 . S
C1350 C1342 1.378 . S
C1350 C1345 1.350 . S
C1351 H1338 0.929 . S
C1351 C1343 1.433 . S
C1351 N1353 1.384 . S
N1352 C1348 1.427 . S
N1352 C1349 1.384 . S
N1353 C1345 1.427 . S
N1353 C1351 1.384 . S
H1354 C1360 0.930 . S
H1355 C1364 0.930 . S
H1356 C1369 0.929 . S
H1357 C1367 0.929 . S
H1358 C1362 0.929 . S
H1359 C1368 0.929 . S
C1360 H1354 0.930 . S
C1360 C1361 1.367 . S
C1360 C1368 1.378 . S
C1361 C1360 1.367 . S
C1361 C1369 1.433 . S
C1362 H1358 0.929 . S
C1362 C1364 1.378 . S
C1362 C1366 1.350 . S
C1363 C1366 1.463 . S
C1363 C1368 1.350 . S
C1363 N1371 1.427 . S
C1364 H1355 0.930 . S
C1364 C1362 1.378 . S
C1364 C1365 1.367 . S
C1365 C1364 1.367 . S
C1365 C1367 1.433 . S
C1366 C1362 1.350 . S
C1366 C1363 1.463 . S
C1366 N1370 1.427 . S
C1367 H1357 0.929 . S
C1367 C1365 1.433 . S
C1367 N1370 1.384 . S
C1368 H1359 0.929 . S
C1368 C1360 1.378 . S
C1368 C1363 1.350 . S
C1369 H1356 0.929 . S
C1369 C1361 1.433 . S
C1369 N1371 1.384 . S
N1370 C1366 1.427 . S
N1370 C1367 1.384 . S
N1371 C1363 1.427 . S
N1371 C1369 1.384 . S
H1372 C1378 0.930 . S
H1373 C1382 0.930 . S
H1374 C1387 0.929 . S
H1375 C1385 0.929 . S
H1376 C1380 0.929 . S
H1377 C1386 0.929 . S
C1378 H1372 0.930 . S
C1378 C1379 1.367 . S
C1378 C1386 1.378 . S
C1379 C1378 1.367 . S
C1379 C1387 1.433 . S
C1380 H1376 0.929 . S
C1380 C1382 1.378 . S
C1380 C1384 1.350 . S
C1381 C1384 1.463 . S
C1381 C1386 1.350 . S
C1381 N1389 1.427 . S
C1382 H1373 0.930 . S
C1382 C1380 1.378 . S
C1382 C1383 1.367 . S
C1383 C1382 1.367 . S
C1383 C1385 1.433 . S
C1384 C1380 1.350 . S
C1384 C1381 1.463 . S
C1384 N1388 1.427 . S
C1385 H1375 0.929 . S
C1385 C1383 1.433 . S
C1385 N1388 1.384 . S
C1386 H1377 0.929 . S
C1386 C1378 1.378 . S
C1386 C1381 1.350 . S
C1387 H1374 0.929 . S
C1387 C1379 1.433 . S
C1387 N1389 1.384 . S
N1388 C1384 1.427 . S
N1388 C1385 1.384 . S
N1389 C1381 1.427 . S
N1389 C1387 1.384 . S
H1390 C1396 0.930 . S
H1391 C1400 0.930 . S
H1392 C1405 0.929 . S
H1393 C1403 0.929 . S
H1394 C1398 0.929 . S
H1395 C1404 0.929 . S
C1396 H1390 0.930 . S
C1396 C1397 1.367 . S
C1396 C1404 1.378 . S
C1397 C1396 1.367 . S
C1397 C1405 1.433 . S
C1398 H1394 0.929 . S
C1398 C1400 1.378 . S
C1398 C1402 1.350 . S
C1399 C1402 1.463 . S
C1399 C1404 1.350 . S
C1399 N1407 1.427 . S
C1400 H1391 0.930 . S
C1400 C1398 1.378 . S
C1400 C1401 1.367 . S
C1401 C1400 1.367 . S
C1401 C1403 1.433 . S
C1402 C1398 1.350 . S
C1402 C1399 1.463 . S
C1402 N1406 1.427 . S
C1403 H1393 0.929 . S
C1403 C1401 1.433 . S
C1403 N1406 1.384 . S
C1404 H1395 0.929 . S
C1404 C1396 1.378 . S
C1404 C1399 1.350 . S
C1405 H1392 0.929 . S
C1405 C1397 1.433 . S
C1405 N1407 1.384 . S
N1406 C1402 1.427 . S
N1406 C1403 1.384 . S
N1407 C1399 1.427 . S
N1407 C1405 1.384 . S
H1408 C1414 0.930 . S
H1409 C1418 0.930 . S
H1410 C1423 0.929 . S
H1411 C1421 0.929 1_556 S
H1412 C1416 0.929 . S
H1413 C1422 0.929 . S
C1414 H1408 0.930 . S
C1414 C1415 1.367 . S
C1414 C1422 1.378 . S
C1415 C1414 1.367 . S
C1415 C1423 1.433 . S
C1416 H1412 0.929 . S
C1416 C1418 1.378 . S
C1416 C1420 1.350 . S
C1417 C1420 1.463 . S
C1417 C1422 1.350 . S
C1417 N1425 1.427 . S
C1418 H1409 0.930 . S
C1418 C1416 1.378 . S
C1418 C1419 1.367 . S
C1419 C1418 1.367 . S
C1419 C1421 1.433 . S
C1420 C1416 1.350 . S
C1420 C1417 1.463 . S
C1420 N1424 1.427 . S
C1421 H1411 0.929 1_554 S
C1421 C1419 1.433 . S
C1421 N1424 1.384 . S
C1422 H1413 0.929 . S
C1422 C1414 1.378 . S
C1422 C1417 1.350 . S
C1423 H1410 0.929 . S
C1423 C1415 1.433 . S
C1423 N1425 1.384 . S
N1424 C1420 1.427 . S
N1424 C1421 1.384 . S
N1425 C1417 1.427 . S
N1425 C1423 1.384 . S
H1426 C1432 0.930 . S
H1427 C1436 0.930 . S
H1428 C1441 0.929 . S
H1429 C1439 0.929 . S
H1430 C1434 0.929 . S
H1431 C1440 0.929 . S
C1432 H1426 0.930 . S
C1432 C1433 1.367 . S
C1432 C1440 1.378 . S
C1433 C1432 1.367 . S
C1433 C1441 1.433 . S
C1434 H1430 0.929 . S
C1434 C1436 1.378 . S
C1434 C1438 1.350 . S
C1435 C1438 1.463 . S
C1435 C1440 1.350 . S
C1435 N1443 1.427 . S
C1436 H1427 0.930 . S
C1436 C1434 1.378 . S
C1436 C1437 1.367 . S
C1437 C1436 1.367 . S
C1437 C1439 1.433 . S
C1438 C1434 1.350 . S
C1438 C1435 1.463 . S
C1438 N1442 1.427 . S
C1439 H1429 0.929 . S
C1439 C1437 1.433 . S
C1439 N1442 1.384 . S
C1440 H1431 0.929 . S
C1440 C1432 1.378 . S
C1440 C1435 1.350 . S
C1441 H1428 0.929 . S
C1441 C1433 1.433 . S
C1441 N1443 1.384 . S
N1442 C1438 1.427 . S
N1442 C1439 1.384 . S
N1443 C1435 1.427 . S
N1443 C1441 1.384 . S
H1444 C1450 0.930 . S
H1445 C1454 0.930 . S
H1446 C1459 0.929 . S
H1447 C1457 0.929 . S
H1448 C1452 0.929 . S
H1449 C1458 0.929 . S
C1450 H1444 0.930 . S
C1450 C1451 1.367 . S
C1450 C1458 1.378 . S
C1451 C1450 1.367 . S
C1451 C1459 1.433 . S
C1452 H1448 0.929 . S
C1452 C1454 1.378 . S
C1452 C1456 1.350 . S
C1453 C1456 1.463 . S
C1453 C1458 1.350 . S
C1453 N1461 1.427 . S
C1454 H1445 0.930 . S
C1454 C1452 1.378 . S
C1454 C1455 1.367 . S
C1455 C1454 1.367 . S
C1455 C1457 1.433 . S
C1456 C1452 1.350 . S
C1456 C1453 1.463 . S
C1456 N1460 1.427 . S
C1457 H1447 0.929 . S
C1457 C1455 1.433 . S
C1457 N1460 1.384 . S
C1458 H1449 0.929 . S
C1458 C1450 1.378 . S
C1458 C1453 1.350 . S
C1459 H1446 0.929 . S
C1459 C1451 1.433 . S
C1459 N1461 1.384 . S
N1460 C1456 1.427 . S
N1460 C1457 1.384 . S
N1461 C1453 1.427 . S
N1461 C1459 1.384 . S
H1462 C1468 0.930 . S
H1463 C1472 0.930 . S
H1464 C1477 0.929 . S
H1465 C1475 0.929 . S
H1466 C1470 0.929 . S
H1467 C1476 0.929 . S
C1468 H1462 0.930 . S
C1468 C1469 1.367 . S
C1468 C1476 1.378 . S
C1469 C1468 1.367 . S
C1469 C1477 1.433 . S
C1470 H1466 0.929 . S
C1470 C1472 1.378 . S
C1470 C1474 1.350 . S
C1471 C1474 1.463 . S
C1471 C1476 1.350 . S
C1471 N1479 1.427 . S
C1472 H1463 0.930 . S
C1472 C1470 1.378 . S
C1472 C1473 1.367 . S
C1473 C1472 1.367 . S
C1473 C1475 1.433 . S
C1474 C1470 1.350 . S
C1474 C1471 1.463 . S
C1474 N1478 1.427 . S
C1475 H1465 0.929 . S
C1475 C1473 1.433 . S
C1475 N1478 1.384 . S
C1476 H1467 0.929 . S
C1476 C1468 1.378 . S
C1476 C1471 1.350 . S
C1477 H1464 0.929 . S
C1477 C1469 1.433 . S
C1477 N1479 1.384 . S
N1478 C1474 1.427 . S
N1478 C1475 1.384 . S
N1479 C1471 1.427 . S
N1479 C1477 1.384 . S
H1480 C1486 0.930 . S
H1481 C1490 0.930 . S
H1482 C1495 0.929 . S
H1483 C1493 0.929 . S
H1484 C1488 0.929 . S
H1485 C1494 0.929 . S
C1486 H1480 0.930 . S
C1486 C1487 1.367 . S
C1486 C1494 1.378 . S
C1487 C1486 1.367 . S
C1487 C1495 1.433 . S
C1488 H1484 0.929 . S
C1488 C1490 1.378 . S
C1488 C1492 1.350 . S
C1489 C1492 1.463 . S
C1489 C1494 1.350 . S
C1489 N1497 1.427 . S
C1490 H1481 0.930 . S
C1490 C1488 1.378 . S
C1490 C1491 1.367 . S
C1491 C1490 1.367 . S
C1491 C1493 1.433 . S
C1492 C1488 1.350 . S
C1492 C1489 1.463 . S
C1492 N1496 1.427 . S
C1493 H1483 0.929 . S
C1493 C1491 1.433 . S
C1493 N1496 1.384 . S
C1494 H1485 0.929 . S
C1494 C1486 1.378 . S
C1494 C1489 1.350 . S
C1495 H1482 0.929 . S
C1495 C1487 1.433 . S
C1495 N1497 1.384 . S
N1496 C1492 1.427 . S
N1496 C1493 1.384 . S
N1497 C1489 1.427 . S
N1497 C1495 1.384 . S
H1498 C1504 0.930 . S
H1499 C1508 0.930 . S
H1500 C1513 0.929 . S
H1501 C1511 0.929 . S
H1502 C1506 0.929 . S
H1503 C1512 0.929 . S
C1504 H1498 0.930 . S
C1504 C1505 1.367 . S
C1504 C1512 1.378 . S
C1505 C1504 1.367 . S
C1505 C1513 1.433 . S
C1506 H1502 0.929 . S
C1506 C1508 1.378 . S
C1506 C1510 1.350 . S
C1507 C1510 1.463 . S
C1507 C1512 1.350 . S
C1507 N1515 1.427 . S
C1508 H1499 0.930 . S
C1508 C1506 1.378 . S
C1508 C1509 1.367 . S
C1509 C1508 1.367 . S
C1509 C1511 1.433 . S
C1510 C1506 1.350 . S
C1510 C1507 1.463 . S
C1510 N1514 1.427 . S
C1511 H1501 0.929 . S
C1511 C1509 1.433 . S
C1511 N1514 1.384 . S
C1512 H1503 0.929 . S
C1512 C1504 1.378 . S
C1512 C1507 1.350 . S
C1513 H1500 0.929 . S
C1513 C1505 1.433 . S
C1513 N1515 1.384 . S
N1514 C1510 1.427 . S
N1514 C1511 1.384 . S
N1515 C1507 1.427 . S
N1515 C1513 1.384 . S
H1516 C1522 0.930 . S
H1517 C1526 0.930 . S
H1518 C1531 0.929 . S
H1519 C1529 0.954 . S
H1520 C1524 0.929 . S
H1521 C1530 0.929 . S
C1522 H1516 0.930 . S
C1522 C1523 1.367 . S
C1522 C1530 1.378 . S
C1523 C1522 1.367 . S
C1523 C1531 1.433 . S
C1524 H1520 0.929 . S
C1524 C1526 1.378 . S
C1524 C1528 1.350 . S
C1525 C1528 1.463 . S
C1525 C1530 1.350 . S
C1525 N1533 1.427 . S
C1526 H1517 0.930 . S
C1526 C1524 1.378 . S
C1526 C1527 1.367 . S
C1527 C1526 1.367 . S
C1527 C1529 1.433 . S
C1528 C1524 1.350 . S
C1528 C1525 1.463 . S
C1528 N1532 1.427 . S
C1529 H1519 0.954 . S
C1529 C1527 1.433 . S
C1529 N1532 1.384 . S
C1530 H1521 0.929 . S
C1530 C1522 1.378 . S
C1530 C1525 1.350 . S
C1531 H1518 0.929 . S
C1531 C1523 1.433 . S
C1531 N1533 1.384 . S
N1532 C1528 1.427 . S
N1532 C1529 1.384 . S
N1533 C1525 1.427 . S
N1533 C1531 1.384 . S
H1534 C1540 0.930 . S
H1535 C1544 0.930 . S
H1536 C1549 0.929 . S
H1537 C1547 0.929 . S
H1538 C1542 0.929 . S
H1539 C1548 0.929 . S
C1540 H1534 0.930 . S
C1540 C1541 1.367 . S
C1540 C1548 1.378 . S
C1541 C1540 1.367 . S
C1541 C1549 1.433 . S
C1542 H1538 0.929 . S
C1542 C1544 1.378 . S
C1542 C1546 1.350 . S
C1543 C1546 1.463 . S
C1543 C1548 1.350 . S
C1543 N1551 1.427 . S
C1544 H1535 0.930 . S
C1544 C1542 1.378 . S
C1544 C1545 1.367 . S
C1545 C1544 1.367 . S
C1545 C1547 1.433 . S
C1546 C1542 1.350 . S
C1546 C1543 1.463 . S
C1546 N1550 1.427 . S
C1547 H1537 0.929 . S
C1547 C1545 1.433 . S
C1547 N1550 1.384 . S
C1548 H1539 0.929 . S
C1548 C1540 1.378 . S
C1548 C1543 1.350 . S
C1549 H1536 0.929 . S
C1549 C1541 1.433 . S
C1549 N1551 1.384 . S
N1550 C1546 1.427 . S
N1550 C1547 1.384 . S
N1551 C1543 1.427 . S
N1551 C1549 1.384 . S
H1552 C1558 0.930 . S
H1553 C1562 0.930 . S
H1554 C1567 0.929 . S
H1555 C1565 0.929 . S
H1556 C1560 0.929 . S
H1557 C1566 0.929 . S
C1558 H1552 0.930 . S
C1558 C1559 1.367 1_565 S
C1558 C1566 1.378 . S
C1559 C1558 1.367 1_545 S
C1559 C1567 1.433 . S
C1560 H1556 0.929 . S
C1560 C1562 1.378 . S
C1560 C1564 1.350 . S
C1561 C1564 1.463 . S
C1561 C1566 1.350 1_545 S
C1561 N1569 1.427 . S
C1562 H1553 0.930 . S
C1562 C1560 1.378 . S
C1562 C1563 1.367 . S
C1563 C1562 1.367 . S
C1563 C1565 1.433 1_545 S
C1564 C1560 1.350 . S
C1564 C1561 1.463 . S
C1564 N1568 1.427 1_545 S
C1565 H1555 0.929 . S
C1565 C1563 1.433 1_565 S
C1565 N1568 1.384 . S
C1566 H1557 0.929 . S
C1566 C1558 1.378 . S
C1566 C1561 1.350 1_565 S
C1567 H1554 0.929 . S
C1567 C1559 1.433 . S
C1567 N1569 1.384 . S
N1568 C1564 1.427 1_565 S
N1568 C1565 1.384 . S
N1569 C1561 1.427 . S
N1569 C1567 1.384 . S
H1570 C1576 0.930 . S
H1571 C1580 0.930 . S
H1572 C1585 0.929 . S
H1573 C1583 0.929 . S
H1574 C1578 0.929 . S
H1575 C1584 0.929 . S
C1576 H1570 0.930 . S
C1576 C1577 1.367 . S
C1576 C1584 1.378 . S
C1577 C1576 1.367 . S
C1577 C1585 1.433 . S
C1578 H1574 0.929 . S
C1578 C1580 1.378 . S
C1578 C1582 1.350 . S
C1579 C1582 1.463 . S
C1579 C1584 1.350 . S
C1579 N1587 1.427 . S
C1580 H1571 0.930 . S
C1580 C1578 1.378 . S
C1580 C1581 1.367 . S
C1581 C1580 1.367 . S
C1581 C1583 1.433 . S
C1582 C1578 1.350 . S
C1582 C1579 1.463 . S
C1582 N1586 1.427 . S
C1583 H1573 0.929 . S
C1583 C1581 1.433 . S
C1583 N1586 1.384 . S
C1584 H1575 0.929 . S
C1584 C1576 1.378 . S
C1584 C1579 1.350 . S
C1585 H1572 0.929 . S
C1585 C1577 1.433 . S
C1585 N1587 1.384 . S
N1586 C1582 1.427 . S
N1586 C1583 1.384 . S
N1587 C1579 1.427 . S
N1587 C1585 1.384 . S
H1588 C1594 0.929 1_565 S
H1589 C1598 0.930 . S
H1590 C1603 0.929 . S
H1591 C1601 0.929 . S
H1592 C1596 0.929 . S
H1593 C1602 0.929 . S
C1594 H1588 0.929 1_545 S
C1594 C1595 1.367 . S
C1594 C1602 1.378 . S
C1595 C1594 1.367 . S
C1595 C1603 1.433 . S
C1596 H1592 0.929 . S
C1596 C1598 1.378 . S
C1596 C1600 1.350 . S
C1597 C1600 1.463 . S
C1597 C1602 1.350 . S
C1597 N1605 1.427 . S
C1598 H1589 0.930 . S
C1598 C1596 1.378 . S
C1598 C1599 1.367 . S
C1599 C1598 1.367 . S
C1599 C1601 1.433 . S
C1600 C1596 1.350 . S
C1600 C1597 1.463 . S
C1600 N1604 1.427 . S
C1601 H1591 0.929 . S
C1601 C1599 1.433 . S
C1601 N1604 1.384 . S
C1602 H1593 0.929 . S
C1602 C1594 1.378 . S
C1602 C1597 1.350 . S
C1603 H1590 0.929 . S
C1603 C1595 1.433 . S
C1603 N1605 1.384 . S
N1604 C1600 1.427 . S
N1604 C1601 1.384 . S
N1605 C1597 1.427 . S
N1605 C1603 1.384 . S
H1606 C1612 0.930 . S
H1607 C1616 0.930 . S
H1608 C1621 0.929 . S
H1609 C1619 0.929 . S
H1610 C1614 0.929 . S
H1611 C1620 0.929 . S
C1612 H1606 0.930 . S
C1612 C1613 1.367 . S
C1612 C1620 1.378 . S
C1613 C1612 1.367 . S
C1613 C1621 1.433 . S
C1614 H1610 0.929 . S
C1614 C1616 1.378 . S
C1614 C1618 1.350 . S
C1615 C1618 1.463 . S
C1615 C1620 1.350 . S
C1615 N1623 1.427 . S
C1616 H1607 0.930 . S
C1616 C1614 1.378 . S
C1616 C1617 1.367 . S
C1617 C1616 1.367 . S
C1617 C1619 1.433 . S
C1618 C1614 1.350 . S
C1618 C1615 1.463 . S
C1618 N1622 1.427 . S
C1619 H1609 0.929 . S
C1619 C1617 1.433 . S
C1619 N1622 1.384 . S
C1620 H1611 0.929 . S
C1620 C1612 1.378 . S
C1620 C1615 1.350 . S
C1621 H1608 0.929 . S
C1621 C1613 1.433 . S
C1621 N1623 1.384 . S
N1622 C1618 1.427 . S
N1622 C1619 1.384 . S
N1623 C1615 1.427 . S
N1623 C1621 1.384 . S
H1624 C1630 0.930 . S
H1625 C1634 0.930 1_565 S
H1626 C1639 0.929 . S
H1627 C1637 0.929 . S
H1628 C1632 0.939 . S
H1629 C1638 0.929 . S
C1630 H1624 0.930 . S
C1630 C1631 1.367 . S
C1630 C1638 1.378 . S
C1631 C1630 1.367 . S
C1631 C1639 1.433 1_545 S
C1632 H1628 0.939 . S
C1632 C1634 1.371 1_565 S
C1632 C1636 1.346 1_565 S
C1633 C1636 1.463 . S
C1633 C1638 1.350 . S
C1633 N1641 1.427 1_545 S
C1634 H1625 0.930 1_545 S
C1634 C1632 1.371 1_545 S
C1634 C1635 1.367 . S
C1635 C1634 1.367 . S
C1635 C1637 1.433 . S
C1636 C1632 1.346 1_545 S
C1636 C1633 1.463 . S
C1636 N1640 1.427 . S
C1637 H1627 0.929 . S
C1637 C1635 1.433 . S
C1637 N1640 1.384 . S
C1638 H1629 0.929 . S
C1638 C1630 1.378 . S
C1638 C1633 1.350 . S
C1639 H1626 0.929 . S
C1639 C1631 1.433 1_565 S
C1639 N1641 1.384 . S
N1640 C1636 1.427 . S
N1640 C1637 1.384 . S
N1641 C1633 1.427 1_565 S
N1641 C1639 1.384 . S
H1642 C1648 0.930 . S
H1643 C1652 0.930 . S
H1644 C1657 0.929 . S
H1645 C1655 0.929 . S
H1646 C1650 0.929 . S
H1647 C1656 0.929 . S
C1648 H1642 0.930 . S
C1648 C1649 1.367 . S
C1648 C1656 1.378 . S
C1649 C1648 1.367 . S
C1649 C1657 1.433 . S
C1650 H1646 0.929 . S
C1650 C1652 1.378 . S
C1650 C1654 1.350 . S
C1651 C1654 1.463 . S
C1651 C1656 1.350 . S
C1651 N1659 1.427 . S
C1652 H1643 0.930 . S
C1652 C1650 1.378 . S
C1652 C1653 1.367 . S
C1653 C1652 1.367 . S
C1653 C1655 1.433 . S
C1654 C1650 1.350 . S
C1654 C1651 1.463 . S
C1654 N1658 1.427 . S
C1655 H1645 0.929 . S
C1655 C1653 1.433 . S
C1655 N1658 1.384 . S
C1656 H1647 0.929 . S
C1656 C1648 1.378 . S
C1656 C1651 1.350 . S
C1657 H1644 0.929 . S
C1657 C1649 1.433 . S
C1657 N1659 1.384 . S
N1658 C1654 1.427 . S
N1658 C1655 1.384 . S
N1659 C1651 1.427 . S
N1659 C1657 1.384 . S
H1660 C1666 0.930 . S
H1661 C1670 0.930 . S
H1662 C1675 0.929 . S
H1663 C1673 0.929 . S
H1664 C1668 0.929 . S
H1665 C1674 0.929 . S
C1666 H1660 0.930 . S
C1666 C1667 1.399 . S
C1666 C1674 1.378 . S
C1667 C1666 1.399 . S
C1667 C1675 1.398 1_545 S
C1668 H1664 0.929 . S
C1668 C1670 1.378 . S
C1668 C1672 1.350 . S
C1669 C1672 1.463 . S
C1669 C1674 1.350 1_565 S
C1669 N1677 1.427 . S
C1670 H1661 0.930 . S
C1670 C1668 1.378 . S
C1670 C1671 1.367 . S
C1671 C1670 1.367 . S
C1671 C1673 1.433 1_565 S
C1672 C1668 1.350 . S
C1672 C1669 1.463 . S
C1672 N1676 1.427 1_565 S
C1673 H1663 0.929 . S
C1673 C1671 1.433 1_545 S
C1673 N1676 1.384 . S
C1674 H1665 0.929 . S
C1674 C1666 1.378 . S
C1674 C1669 1.350 1_545 S
C1675 H1662 0.929 . S
C1675 C1667 1.398 1_565 S
C1675 N1677 1.384 . S
N1676 C1672 1.427 1_545 S
N1676 C1673 1.384 . S
N1677 C1669 1.427 . S
N1677 C1675 1.384 . S
H1678 C1684 0.930 . S
H1679 C1688 0.930 . S
H1680 C1693 0.929 . S
H1681 C1691 0.929 . S
H1682 C1686 0.929 . S
H1683 C1692 0.929 . S
C1684 H1678 0.930 . S
C1684 C1685 1.367 . S
C1684 C1692 1.378 . S
C1685 C1684 1.367 . S
C1685 C1693 1.433 . S
C1686 H1682 0.929 . S
C1686 C1688 1.378 . S
C1686 C1690 1.350 . S
C1687 C1690 1.463 . S
C1687 C1692 1.350 . S
C1687 N1695 1.427 . S
C1688 H1679 0.930 . S
C1688 C1686 1.378 . S
C1688 C1689 1.367 . S
C1689 C1688 1.367 . S
C1689 C1691 1.433 . S
C1690 C1686 1.350 . S
C1690 C1687 1.463 . S
C1690 N1694 1.427 . S
C1691 H1681 0.929 . S
C1691 C1689 1.433 . S
C1691 N1694 1.384 . S
C1692 H1683 0.929 . S
C1692 C1684 1.378 . S
C1692 C1687 1.350 . S
C1693 H1680 0.929 . S
C1693 C1685 1.433 . S
C1693 N1695 1.384 . S
N1694 C1690 1.427 . S
N1694 C1691 1.384 . S
N1695 C1687 1.427 . S
N1695 C1693 1.384 . S
H1696 C1702 0.930 . S
H1697 C1706 0.930 . S
H1698 C1711 0.929 . S
H1699 C1709 0.929 . S
H1700 C1704 0.929 . S
H1701 C1710 0.927 1_556 S
C1702 H1696 0.930 . S
C1702 C1703 1.367 . S
C1702 C1710 1.387 . S
C1703 C1702 1.367 . S
C1703 C1711 1.433 . S
C1704 H1700 0.929 . S
C1704 C1706 1.378 . S
C1704 C1708 1.350 . S
C1705 C1708 1.476 . S
C1705 C1710 1.334 1_556 S
C1705 N1713 1.426 1_556 S
C1706 H1697 0.930 . S
C1706 C1704 1.378 . S
C1706 C1707 1.367 . S
C1707 C1706 1.367 . S
C1707 C1709 1.433 . S
C1708 C1704 1.350 . S
C1708 C1705 1.476 . S
C1708 N1712 1.427 . S
C1709 H1699 0.929 . S
C1709 C1707 1.433 . S
C1709 N1712 1.384 . S
C1710 H1701 0.927 1_554 S
C1710 C1702 1.387 . S
C1710 C1705 1.334 1_554 S
C1711 H1698 0.929 . S
C1711 C1703 1.433 . S
C1711 N1713 1.384 . S
N1712 C1708 1.427 . S
N1712 C1709 1.384 . S
N1713 C1705 1.426 1_554 S
N1713 C1711 1.384 . S
H1714 C1720 0.930 . S
H1715 C1724 0.919 1_556 S
H1716 C1729 0.929 1_556 S
H1717 C1727 0.929 . S
H1718 C1722 0.929 1_556 S
H1719 C1728 0.929 . S
C1720 H1714 0.930 . S
C1720 C1721 1.367 . S
C1720 C1728 1.378 . S
C1721 C1720 1.367 . S
C1721 C1729 1.433 . S
C1722 H1718 0.929 1_554 S
C1722 C1724 1.381 . S
C1722 C1726 1.350 . S
C1723 C1726 1.463 . S
C1723 C1728 1.350 . S
C1723 N1731 1.427 . S
C1724 H1715 0.919 1_554 S
C1724 C1722 1.381 . S
C1724 C1725 1.375 . S
C1725 C1724 1.375 . S
C1725 C1727 1.433 . S
C1726 C1722 1.350 . S
C1726 C1723 1.463 . S
C1726 N1730 1.427 . S
C1727 H1717 0.929 . S
C1727 C1725 1.433 . S
C1727 N1730 1.384 . S
C1728 H1719 0.929 . S
C1728 C1720 1.378 . S
C1728 C1723 1.350 . S
C1729 H1716 0.929 1_554 S
C1729 C1721 1.433 . S
C1729 N1731 1.384 . S
N1730 C1726 1.427 . S
N1730 C1727 1.384 . S
N1731 C1723 1.427 . S
N1731 C1729 1.384 . S
H1732 C1738 0.930 . S
H1733 C1742 0.930 . S
H1734 C1747 0.929 . S
H1735 C1745 0.929 . S
H1736 C1740 0.929 . S
H1737 C1746 0.929 . S
C1738 H1732 0.930 . S
C1738 C1739 1.367 . S
C1738 C1746 1.378 . S
C1739 C1738 1.367 . S
C1739 C1747 1.433 . S
C1740 H1736 0.929 . S
C1740 C1742 1.378 . S
C1740 C1744 1.350 . S
C1741 C1744 1.463 . S
C1741 C1746 1.350 . S
C1741 N1749 1.427 . S
C1742 H1733 0.930 . S
C1742 C1740 1.378 . S
C1742 C1743 1.367 . S
C1743 C1742 1.367 . S
C1743 C1745 1.433 . S
C1744 C1740 1.350 . S
C1744 C1741 1.463 . S
C1744 N1748 1.427 . S
C1745 H1735 0.929 . S
C1745 C1743 1.433 . S
C1745 N1748 1.384 . S
C1746 H1737 0.929 . S
C1746 C1738 1.378 . S
C1746 C1741 1.350 . S
C1747 H1734 0.929 . S
C1747 C1739 1.433 . S
C1747 N1749 1.384 . S
N1748 C1744 1.427 . S
N1748 C1745 1.384 . S
N1749 C1741 1.427 . S
N1749 C1747 1.384 . S
H1750 C1756 0.930 . S
H1751 C1760 0.930 . S
H1752 C1765 0.929 . S
H1753 C1763 0.929 . S
H1754 C1758 0.929 . S
H1755 C1764 0.929 . S
C1756 H1750 0.930 . S
C1756 C1757 1.367 . S
C1756 C1764 1.378 . S
C1757 C1756 1.367 . S
C1757 C1765 1.433 . S
C1758 H1754 0.929 . S
C1758 C1760 1.378 . S
C1758 C1762 1.350 . S
C1759 C1762 1.463 . S
C1759 C1764 1.350 . S
C1759 N1767 1.427 . S
C1760 H1751 0.930 . S
C1760 C1758 1.378 . S
C1760 C1761 1.367 . S
C1761 C1760 1.367 . S
C1761 C1763 1.433 . S
C1762 C1758 1.350 . S
C1762 C1759 1.463 . S
C1762 N1766 1.427 . S
C1763 H1753 0.929 . S
C1763 C1761 1.433 . S
C1763 N1766 1.384 . S
C1764 H1755 0.929 . S
C1764 C1756 1.378 . S
C1764 C1759 1.350 . S
C1765 H1752 0.929 . S
C1765 C1757 1.433 . S
C1765 N1767 1.384 . S
N1766 C1762 1.427 . S
N1766 C1763 1.384 . S
N1767 C1759 1.427 . S
N1767 C1765 1.384 . S
H1768 C1774 0.930 . S
H1769 C1778 0.930 . S
H1770 C1783 0.929 . S
H1771 C1781 0.929 . S
H1772 C1776 0.929 . S
H1773 C1782 0.929 . S
C1774 H1768 0.930 . S
C1774 C1775 1.367 1_565 S
C1774 C1782 1.378 . S
C1775 C1774 1.367 1_545 S
C1775 C1783 1.433 . S
C1776 H1772 0.929 . S
C1776 C1778 1.378 . S
C1776 C1780 1.350 . S
C1777 C1780 1.463 . S
C1777 C1782 1.350 . S
C1777 N1785 1.427 . S
C1778 H1769 0.930 . S
C1778 C1776 1.378 . S
C1778 C1779 1.367 . S
C1779 C1778 1.367 . S
C1779 C1781 1.433 . S
C1780 C1776 1.350 . S
C1780 C1777 1.463 . S
C1780 N1784 1.427 . S
C1781 H1771 0.929 . S
C1781 C1779 1.433 . S
C1781 N1784 1.384 . S
C1782 H1773 0.929 . S
C1782 C1774 1.378 . S
C1782 C1777 1.350 . S
C1783 H1770 0.929 . S
C1783 C1775 1.433 . S
C1783 N1785 1.384 1_545 S
N1784 C1780 1.427 . S
N1784 C1781 1.384 . S
N1785 C1777 1.427 . S
N1785 C1783 1.384 1_565 S
H1786 C1792 0.930 . S
H1787 C1796 0.930 . S
H1788 C1801 0.929 . S
H1789 C1799 0.929 . S
H1790 C1794 0.929 . S
H1791 C1800 0.929 . S
C1792 H1786 0.930 . S
C1792 C1793 1.367 . S
C1792 C1800 1.378 . S
C1793 C1792 1.367 . S
C1793 C1801 1.433 . S
C1794 H1790 0.929 . S
C1794 C1796 1.378 . S
C1794 C1798 1.350 . S
C1795 C1798 1.463 . S
C1795 C1800 1.350 . S
C1795 N1803 1.427 . S
C1796 H1787 0.930 . S
C1796 C1794 1.378 . S
C1796 C1797 1.367 . S
C1797 C1796 1.367 . S
C1797 C1799 1.433 . S
C1798 C1794 1.350 . S
C1798 C1795 1.463 . S
C1798 N1802 1.427 . S
C1799 H1789 0.929 . S
C1799 C1797 1.433 . S
C1799 N1802 1.384 . S
C1800 H1791 0.929 . S
C1800 C1792 1.378 . S
C1800 C1795 1.350 . S
C1801 H1788 0.929 . S
C1801 C1793 1.433 . S
C1801 N1803 1.384 . S
N1802 C1798 1.427 . S
N1802 C1799 1.384 . S
N1803 C1795 1.427 . S
N1803 C1801 1.384 . S
H1804 C1810 0.930 . S
H1805 C1814 0.930 . S
H1806 C1819 0.929 . S
H1807 C1817 0.929 . S
H1808 C1812 0.929 . S
H1809 C1818 0.929 . S
C1810 H1804 0.930 . S
C1810 C1811 1.367 . S
C1810 C1818 1.378 . S
C1811 C1810 1.367 . S
C1811 C1819 1.433 . S
C1812 H1808 0.929 . S
C1812 C1814 1.378 . S
C1812 C1816 1.350 . S
C1813 C1816 1.463 . S
C1813 C1818 1.350 . S
C1813 N1821 1.427 . S
C1814 H1805 0.930 . S
C1814 C1812 1.378 . S
C1814 C1815 1.367 . S
C1815 C1814 1.367 . S
C1815 C1817 1.433 . S
C1816 C1812 1.350 . S
C1816 C1813 1.463 . S
C1816 N1820 1.427 . S
C1817 H1807 0.929 . S
C1817 C1815 1.433 . S
C1817 N1820 1.384 . S
C1818 H1809 0.929 . S
C1818 C1810 1.378 . S
C1818 C1813 1.350 . S
C1819 H1806 0.929 . S
C1819 C1811 1.433 . S
C1819 N1821 1.384 . S
N1820 C1816 1.427 . S
N1820 C1817 1.384 . S
N1821 C1813 1.427 . S
N1821 C1819 1.384 . S
H1822 C1828 0.930 . S
H1823 C1832 0.930 . S
H1824 C1837 0.929 . S
H1825 C1835 0.929 . S
H1826 C1830 0.929 . S
H1827 C1836 0.929 . S
C1828 H1822 0.930 . S
C1828 C1829 1.367 . S
C1828 C1836 1.378 . S
C1829 C1828 1.367 . S
C1829 C1837 1.433 . S
C1830 H1826 0.929 . S
C1830 C1832 1.378 . S
C1830 C1834 1.350 . S
C1831 C1834 1.463 . S
C1831 C1836 1.350 . S
C1831 N1839 1.427 . S
C1832 H1823 0.930 . S
C1832 C1830 1.378 . S
C1832 C1833 1.367 . S
C1833 C1832 1.367 . S
C1833 C1835 1.433 . S
C1834 C1830 1.350 . S
C1834 C1831 1.463 . S
C1834 N1838 1.427 . S
C1835 H1825 0.929 . S
C1835 C1833 1.433 . S
C1835 N1838 1.384 . S
C1836 H1827 0.929 . S
C1836 C1828 1.378 . S
C1836 C1831 1.350 . S
C1837 H1824 0.929 . S
C1837 C1829 1.433 . S
C1837 N1839 1.384 . S
N1838 C1834 1.427 . S
N1838 C1835 1.384 . S
N1839 C1831 1.427 . S
N1839 C1837 1.384 . S
H1840 C1846 0.930 . S
H1841 C1850 0.930 . S
H1842 C1855 0.929 . S
H1843 C1853 0.929 . S
H1844 C1848 0.929 . S
H1845 C1854 0.929 . S
C1846 H1840 0.930 . S
C1846 C1847 1.367 . S
C1846 C1854 1.378 . S
C1847 C1846 1.367 . S
C1847 C1855 1.433 . S
C1848 H1844 0.929 . S
C1848 C1850 1.378 . S
C1848 C1852 1.350 . S
C1849 C1852 1.463 . S
C1849 C1854 1.350 . S
C1849 N1857 1.427 . S
C1850 H1841 0.930 . S
C1850 C1848 1.378 . S
C1850 C1851 1.367 . S
C1851 C1850 1.367 . S
C1851 C1853 1.433 . S
C1852 C1848 1.350 . S
C1852 C1849 1.463 . S
C1852 N1856 1.427 . S
C1853 H1843 0.929 . S
C1853 C1851 1.433 . S
C1853 N1856 1.384 . S
C1854 H1845 0.929 . S
C1854 C1846 1.378 . S
C1854 C1849 1.350 . S
C1855 H1842 0.929 . S
C1855 C1847 1.433 . S
C1855 N1857 1.384 . S
N1856 C1852 1.427 . S
N1856 C1853 1.384 . S
N1857 C1849 1.427 . S
N1857 C1855 1.384 . S
H1858 C1864 0.930 . S
H1859 C1868 0.930 . S
H1860 C1873 0.929 . S
H1861 C1871 0.929 . S
H1862 C1866 0.929 . S
H1863 C1872 0.929 . S
C1864 H1858 0.930 . S
C1864 C1865 1.367 . S
C1864 C1872 1.378 . S
C1865 C1864 1.367 . S
C1865 C1873 1.433 . S
C1866 H1862 0.929 . S
C1866 C1868 1.378 . S
C1866 C1870 1.350 . S
C1867 C1870 1.463 . S
C1867 C1872 1.350 . S
C1867 N1875 1.427 . S
C1868 H1859 0.930 . S
C1868 C1866 1.378 . S
C1868 C1869 1.367 . S
C1869 C1868 1.367 . S
C1869 C1871 1.433 . S
C1870 C1866 1.350 . S
C1870 C1867 1.463 . S
C1870 N1874 1.427 . S
C1871 H1861 0.929 . S
C1871 C1869 1.433 . S
C1871 N1874 1.384 . S
C1872 H1863 0.929 . S
C1872 C1864 1.378 . S
C1872 C1867 1.350 . S
C1873 H1860 0.929 . S
C1873 C1865 1.433 . S
C1873 N1875 1.384 . S
N1874 C1870 1.427 . S
N1874 C1871 1.384 . S
N1875 C1867 1.427 . S
N1875 C1873 1.384 . S
H1876 C1882 0.930 . S
H1877 C1886 0.930 . S
H1878 C1891 0.929 . S
H1879 C1889 0.929 . S
H1880 C1884 0.929 . S
H1881 C1890 0.929 . S
C1882 H1876 0.930 . S
C1882 C1883 1.367 . S
C1882 C1890 1.378 . S
C1883 C1882 1.367 . S
C1883 C1891 1.433 . S
C1884 H1880 0.929 . S
C1884 C1886 1.378 . S
C1884 C1888 1.350 . S
C1885 C1888 1.463 . S
C1885 C1890 1.350 . S
C1885 N1893 1.427 . S
C1886 H1877 0.930 . S
C1886 C1884 1.378 . S
C1886 C1887 1.370 . S
C1887 C1886 1.370 . S
C1887 C1889 1.431 1_556 S
C1888 C1884 1.350 . S
C1888 C1885 1.463 . S
C1888 N1892 1.427 1_556 S
C1889 H1879 0.929 . S
C1889 C1887 1.431 1_554 S
C1889 N1892 1.384 . S
C1890 H1881 0.929 . S
C1890 C1882 1.378 . S
C1890 C1885 1.350 . S
C1891 H1878 0.929 . S
C1891 C1883 1.433 . S
C1891 N1893 1.384 . S
N1892 C1888 1.427 1_554 S
N1892 C1889 1.384 . S
N1893 C1885 1.427 . S
N1893 C1891 1.384 . S
H1894 C1900 0.930 . S
H1895 C1904 0.930 . S
H1896 C1909 0.929 . S
H1897 C1907 0.929 . S
H1898 C1902 0.929 . S
H1899 C1908 0.929 . S
C1900 H1894 0.930 . S
C1900 C1901 1.367 . S
C1900 C1908 1.378 1_455 S
C1901 C1900 1.367 . S
C1901 C1909 1.433 . S
C1902 H1898 0.929 . S
C1902 C1904 1.378 . S
C1902 C1906 1.350 . S
C1903 C1906 1.463 . S
C1903 C1908 1.350 . S
C1903 N1911 1.427 . S
C1904 H1895 0.930 . S
C1904 C1902 1.378 . S
C1904 C1905 1.367 . S
C1905 C1904 1.367 . S
C1905 C1907 1.433 . S
C1906 C1902 1.350 . S
C1906 C1903 1.463 . S
C1906 N1910 1.427 . S
C1907 H1897 0.929 . S
C1907 C1905 1.433 . S
C1907 N1910 1.384 . S
C1908 H1899 0.929 . S
C1908 C1900 1.378 1_655 S
C1908 C1903 1.350 . S
C1909 H1896 0.929 . S
C1909 C1901 1.433 . S
C1909 N1911 1.384 1_455 S
N1910 C1906 1.427 . S
N1910 C1907 1.384 . S
N1911 C1903 1.427 . S
N1911 C1909 1.384 1_655 S
H1912 C1918 0.930 . S
H1913 C1922 0.930 . S
H1914 C1927 0.929 . S
H1915 C1925 0.929 . S
H1916 C1920 0.929 . S
H1917 C1926 0.929 . S
C1918 H1912 0.930 . S
C1918 C1919 1.367 . S
C1918 C1926 1.378 . S
C1919 C1918 1.367 . S
C1919 C1927 1.433 . S
C1920 H1916 0.929 . S
C1920 C1922 1.378 . S
C1920 C1924 1.350 . S
C1921 C1924 1.463 . S
C1921 C1926 1.350 . S
C1921 N1929 1.427 . S
C1922 H1913 0.930 . S
C1922 C1920 1.378 . S
C1922 C1923 1.367 . S
C1923 C1922 1.367 . S
C1923 C1925 1.433 . S
C1924 C1920 1.350 . S
C1924 C1921 1.463 . S
C1924 N1928 1.427 . S
C1925 H1915 0.929 . S
C1925 C1923 1.433 . S
C1925 N1928 1.384 . S
C1926 H1917 0.929 . S
C1926 C1918 1.378 . S
C1926 C1921 1.350 . S
C1927 H1914 0.929 . S
C1927 C1919 1.433 . S
C1927 N1929 1.384 . S
N1928 C1924 1.427 . S
N1928 C1925 1.384 . S
N1929 C1921 1.427 . S
N1929 C1927 1.384 . S
H1930 C1936 0.930 . S
H1931 C1940 0.930 . S
H1932 C1945 0.929 . S
H1933 C1943 0.929 . S
H1934 C1938 0.929 . S
H1935 C1944 0.929 . S
C1936 H1930 0.930 . S
C1936 C1937 1.367 . S
C1936 C1944 1.378 . S
C1937 C1936 1.367 . S
C1937 C1945 1.433 . S
C1938 H1934 0.929 . S
C1938 C1940 1.378 . S
C1938 C1942 1.350 . S
C1939 C1942 1.463 1_455 S
C1939 C1944 1.350 . S
C1939 N1947 1.427 . S
C1940 H1931 0.930 . S
C1940 C1938 1.378 . S
C1940 C1941 1.367 . S
C1941 C1940 1.367 . S
C1941 C1943 1.433 . S
C1942 C1938 1.350 . S
C1942 C1939 1.463 1_655 S
C1942 N1946 1.427 . S
C1943 H1933 0.929 . S
C1943 C1941 1.433 . S
C1943 N1946 1.384 . S
C1944 H1935 0.929 . S
C1944 C1936 1.378 . S
C1944 C1939 1.350 . S
C1945 H1932 0.929 . S
C1945 C1937 1.433 . S
C1945 N1947 1.384 . S
N1946 C1942 1.427 . S
N1946 C1943 1.384 . S
N1947 C1939 1.427 . S
N1947 C1945 1.384 . S
H1948 C1954 0.930 . S
H1949 C1958 0.930 . S
H1950 C1963 0.929 . S
H1951 C1961 0.929 . S
H1952 C1956 0.929 . S
H1953 C1962 0.929 . S
C1954 H1948 0.930 . S
C1954 C1955 1.367 1_455 S
C1954 C1962 1.378 . S
C1955 C1954 1.367 1_655 S
C1955 C1963 1.433 . S
C1956 H1952 0.929 . S
C1956 C1958 1.378 . S
C1956 C1960 1.350 . S
C1957 C1960 1.463 . S
C1957 C1962 1.350 . S
C1957 N1965 1.396 1_455 S
C1958 H1949 0.930 . S
C1958 C1956 1.378 . S
C1958 C1959 1.367 . S
C1959 C1958 1.367 . S
C1959 C1961 1.433 . S
C1960 C1956 1.350 . S
C1960 C1957 1.463 . S
C1960 N1964 1.427 . S
C1961 H1951 0.929 . S
C1961 C1959 1.433 . S
C1961 N1964 1.384 . S
C1962 H1953 0.929 . S
C1962 C1954 1.378 . S
C1962 C1957 1.350 . S
C1963 H1950 0.929 . S
C1963 C1955 1.433 . S
C1963 N1965 1.415 . S
N1964 C1960 1.427 . S
N1964 C1961 1.384 . S
N1965 C1957 1.396 1_655 S
N1965 C1963 1.415 . S
H1966 C1972 0.930 . S
H1967 C1976 0.930 . S
H1968 C1981 0.929 . S
H1969 C1979 0.929 . S
H1970 C1974 0.929 . S
H1971 C1980 0.929 . S
C1972 H1966 0.930 . S
C1972 C1973 1.367 . S
C1972 C1980 1.378 . S
C1973 C1972 1.367 . S
C1973 C1981 1.433 . S
C1974 H1970 0.929 . S
C1974 C1976 1.378 . S
C1974 C1978 1.350 . S
C1975 C1978 1.463 . S
C1975 C1980 1.350 . S
C1975 N1983 1.427 . S
C1976 H1967 0.930 . S
C1976 C1974 1.378 . S
C1976 C1977 1.367 . S
C1977 C1976 1.367 . S
C1977 C1979 1.433 . S
C1978 C1974 1.350 . S
C1978 C1975 1.463 . S
C1978 N1982 1.427 . S
C1979 H1969 0.929 . S
C1979 C1977 1.433 . S
C1979 N1982 1.384 . S
C1980 H1971 0.929 . S
C1980 C1972 1.378 . S
C1980 C1975 1.350 . S
C1981 H1968 0.929 . S
C1981 C1973 1.433 . S
C1981 N1983 1.384 . S
N1982 C1978 1.427 . S
N1982 C1979 1.384 . S
N1983 C1975 1.427 . S
N1983 C1981 1.384 . S
H1984 C1990 0.930 . S
H1985 C1994 0.930 . S
H1986 C1999 0.929 . S
H1987 C1997 0.929 . S
H1988 C1992 0.929 . S
H1989 C1998 0.929 . S
C1990 H1984 0.930 . S
C1990 C1991 1.367 . S
C1990 C1998 1.378 . S
C1991 C1990 1.367 . S
C1991 C1999 1.433 . S
C1992 H1988 0.929 . S
C1992 C1994 1.378 . S
C1992 C1996 1.350 . S
C1993 C1996 1.463 . S
C1993 C1998 1.350 . S
C1993 N2001 1.427 . S
C1994 H1985 0.930 . S
C1994 C1992 1.378 . S
C1994 C1995 1.367 . S
C1995 C1994 1.367 . S
C1995 C1997 1.433 . S
C1996 C1992 1.350 . S
C1996 C1993 1.463 . S
C1996 N2000 1.427 . S
C1997 H1987 0.929 . S
C1997 C1995 1.433 . S
C1997 N2000 1.384 . S
C1998 H1989 0.929 . S
C1998 C1990 1.378 . S
C1998 C1993 1.350 . S
C1999 H1986 0.929 . S
C1999 C1991 1.433 . S
C1999 N2001 1.384 . S
N2000 C1996 1.427 . S
N2000 C1997 1.384 . S
N2001 C1993 1.427 . S
N2001 C1999 1.384 . S
H2002 C2008 0.930 . S
H2003 C2012 0.930 . S
H2004 C2017 0.929 . S
H2005 C2015 0.929 . S
H2006 C2010 0.929 . S
H2007 C2016 0.929 . S
C2008 H2002 0.930 . S
C2008 C2009 1.367 . S
C2008 C2016 1.378 . S
C2009 C2008 1.367 . S
C2009 C2017 1.433 . S
C2010 H2006 0.929 . S
C2010 C2012 1.378 . S
C2010 C2014 1.350 . S
C2011 C2014 1.463 . S
C2011 C2016 1.350 . S
C2011 N2019 1.427 . S
C2012 H2003 0.930 . S
C2012 C2010 1.378 . S
C2012 C2013 1.367 . S
C2013 C2012 1.367 . S
C2013 C2015 1.433 . S
C2014 C2010 1.350 . S
C2014 C2011 1.463 . S
C2014 N2018 1.427 . S
C2015 H2005 0.929 . S
C2015 C2013 1.433 . S
C2015 N2018 1.384 . S
C2016 H2007 0.929 . S
C2016 C2008 1.378 . S
C2016 C2011 1.350 . S
C2017 H2004 0.929 . S
C2017 C2009 1.433 . S
C2017 N2019 1.384 . S
N2018 C2014 1.427 . S
N2018 C2015 1.384 . S
N2019 C2011 1.427 . S
N2019 C2017 1.384 . S
H2020 C2026 0.930 . S
H2021 C2030 0.930 . S
H2022 C2035 0.929 . S
H2023 C2033 0.929 . S
H2024 C2028 0.929 . S
H2025 C2034 0.929 . S
C2026 H2020 0.930 . S
C2026 C2027 1.367 . S
C2026 C2034 1.378 . S
C2027 C2026 1.367 . S
C2027 C2035 1.433 . S
C2028 H2024 0.929 . S
C2028 C2030 1.378 . S
C2028 C2032 1.350 . S
C2029 C2032 1.463 . S
C2029 C2034 1.350 . S
C2029 N2037 1.427 . S
C2030 H2021 0.930 . S
C2030 C2028 1.378 . S
C2030 C2031 1.367 . S
C2031 C2030 1.367 . S
C2031 C2033 1.433 . S
C2032 C2028 1.350 . S
C2032 C2029 1.463 . S
C2032 N2036 1.427 . S
C2033 H2023 0.929 . S
C2033 C2031 1.433 . S
C2033 N2036 1.384 . S
C2034 H2025 0.929 . S
C2034 C2026 1.378 . S
C2034 C2029 1.350 . S
C2035 H2022 0.929 . S
C2035 C2027 1.433 . S
C2035 N2037 1.384 . S
N2036 C2032 1.427 . S
N2036 C2033 1.384 . S
N2037 C2029 1.427 . S
N2037 C2035 1.384 . S
H2038 C2044 0.930 . S
H2039 C2048 0.930 . S
H2040 C2053 0.929 . S
H2041 C2051 0.929 . S
H2042 C2046 0.929 . S
H2043 C2052 0.929 . S
C2044 H2038 0.930 . S
C2044 C2045 1.367 . S
C2044 C2052 1.378 . S
C2045 C2044 1.367 . S
C2045 C2053 1.433 . S
C2046 H2042 0.929 . S
C2046 C2048 1.378 . S
C2046 C2050 1.350 . S
C2047 C2050 1.463 . S
C2047 C2052 1.350 . S
C2047 N2055 1.427 . S
C2048 H2039 0.930 . S
C2048 C2046 1.378 . S
C2048 C2049 1.367 . S
C2049 C2048 1.367 . S
C2049 C2051 1.433 . S
C2050 C2046 1.350 . S
C2050 C2047 1.463 . S
C2050 N2054 1.427 . S
C2051 H2041 0.929 . S
C2051 C2049 1.433 . S
C2051 N2054 1.384 . S
C2052 H2043 0.929 . S
C2052 C2044 1.378 . S
C2052 C2047 1.350 . S
C2053 H2040 0.929 . S
C2053 C2045 1.433 . S
C2053 N2055 1.384 . S
N2054 C2050 1.427 . S
N2054 C2051 1.384 . S
N2055 C2047 1.427 . S
N2055 C2053 1.384 . S
H2056 C2062 0.930 . S
H2057 C2066 0.930 . S
H2058 C2071 0.929 . S
H2059 C2069 0.929 . S
H2060 C2064 0.929 . S
H2061 C2070 0.929 . S
C2062 H2056 0.930 . S
C2062 C2063 1.367 . S
C2062 C2070 1.378 . S
C2063 C2062 1.367 . S
C2063 C2071 1.433 . S
C2064 H2060 0.929 . S
C2064 C2066 1.378 . S
C2064 C2068 1.350 . S
C2065 C2068 1.463 . S
C2065 C2070 1.350 . S
C2065 N2073 1.427 . S
C2066 H2057 0.930 . S
C2066 C2064 1.378 . S
C2066 C2067 1.367 . S
C2067 C2066 1.367 . S
C2067 C2069 1.433 . S
C2068 C2064 1.350 . S
C2068 C2065 1.463 . S
C2068 N2072 1.427 . S
C2069 H2059 0.929 . S
C2069 C2067 1.433 . S
C2069 N2072 1.384 . S
C2070 H2061 0.929 . S
C2070 C2062 1.378 . S
C2070 C2065 1.350 . S
C2071 H2058 0.929 . S
C2071 C2063 1.433 . S
C2071 N2073 1.384 . S
N2072 C2068 1.427 . S
N2072 C2069 1.384 . S
N2073 C2065 1.427 . S
N2073 C2071 1.384 . S
H2074 C2080 0.930 . S
H2075 C2084 0.930 . S
H2076 C2089 0.929 . S
H2077 C2087 0.929 . S
H2078 C2082 0.929 . S
H2079 C2088 0.929 . S
C2080 H2074 0.930 . S
C2080 C2081 1.367 . S
C2080 C2088 1.378 . S
C2081 C2080 1.367 . S
C2081 C2089 1.433 . S
C2082 H2078 0.929 . S
C2082 C2084 1.378 . S
C2082 C2086 1.350 . S
C2083 C2086 1.463 . S
C2083 C2088 1.350 . S
C2083 N2091 1.427 . S
C2084 H2075 0.930 . S
C2084 C2082 1.378 . S
C2084 C2085 1.367 . S
C2085 C2084 1.367 . S
C2085 C2087 1.433 . S
C2086 C2082 1.350 . S
C2086 C2083 1.463 . S
C2086 N2090 1.427 . S
C2087 H2077 0.929 . S
C2087 C2085 1.433 . S
C2087 N2090 1.384 . S
C2088 H2079 0.929 . S
C2088 C2080 1.378 . S
C2088 C2083 1.350 . S
C2089 H2076 0.929 . S
C2089 C2081 1.433 . S
C2089 N2091 1.384 . S
N2090 C2086 1.427 . S
N2090 C2087 1.384 . S
N2091 C2083 1.427 . S
N2091 C2089 1.384 . S
H2092 C2098 0.930 . S
H2093 C2102 0.930 . S
H2094 C2107 0.929 . S
H2095 C2105 0.929 . S
H2096 C2100 0.929 . S
H2097 C2106 0.929 . S
C2098 H2092 0.930 . S
C2098 C2099 1.367 . S
C2098 C2106 1.378 . S
C2099 C2098 1.367 . S
C2099 C2107 1.433 . S
C2100 H2096 0.929 . S
C2100 C2102 1.378 . S
C2100 C2104 1.350 . S
C2101 C2104 1.463 . S
C2101 C2106 1.350 . S
C2101 N2109 1.427 . S
C2102 H2093 0.930 . S
C2102 C2100 1.378 . S
C2102 C2103 1.367 . S
C2103 C2102 1.367 . S
C2103 C2105 1.433 . S
C2104 C2100 1.350 . S
C2104 C2101 1.463 . S
C2104 N2108 1.427 . S
C2105 H2095 0.929 . S
C2105 C2103 1.433 . S
C2105 N2108 1.384 . S
C2106 H2097 0.929 . S
C2106 C2098 1.378 . S
C2106 C2101 1.350 . S
C2107 H2094 0.929 . S
C2107 C2099 1.433 . S
C2107 N2109 1.384 . S
N2108 C2104 1.427 . S
N2108 C2105 1.384 . S
N2109 C2101 1.427 . S
N2109 C2107 1.384 . S
H2110 C2116 0.930 . S
H2111 C2120 0.930 . S
H2112 C2125 0.929 . S
H2113 C2123 0.929 . S
H2114 C2118 0.929 . S
H2115 C2124 0.929 . S
C2116 H2110 0.930 . S
C2116 C2117 1.367 . S
C2116 C2124 1.378 . S
C2117 C2116 1.367 . S
C2117 C2125 1.433 . S
C2118 H2114 0.929 . S
C2118 C2120 1.378 . S
C2118 C2122 1.350 . S
C2119 C2122 1.463 . S
C2119 C2124 1.350 . S
C2119 N2127 1.427 . S
C2120 H2111 0.930 . S
C2120 C2118 1.378 . S
C2120 C2121 1.367 . S
C2121 C2120 1.367 . S
C2121 C2123 1.433 . S
C2122 C2118 1.350 . S
C2122 C2119 1.463 . S
C2122 N2126 1.427 . S
C2123 H2113 0.929 . S
C2123 C2121 1.433 . S
C2123 N2126 1.384 . S
C2124 H2115 0.929 . S
C2124 C2116 1.378 . S
C2124 C2119 1.350 . S
C2125 H2112 0.929 . S
C2125 C2117 1.433 . S
C2125 N2127 1.384 . S
N2126 C2122 1.427 . S
N2126 C2123 1.384 . S
N2127 C2119 1.427 . S
N2127 C2125 1.384 . S
H2128 C2134 0.930 . S
H2129 C2138 0.930 . S
H2130 C2143 0.929 . S
H2131 C2141 0.929 . S
H2132 C2136 0.929 . S
H2133 C2142 0.929 . S
C2134 H2128 0.930 . S
C2134 C2135 1.367 . S
C2134 C2142 1.378 . S
C2135 C2134 1.367 . S
C2135 C2143 1.433 . S
C2136 H2132 0.929 . S
C2136 C2138 1.378 . S
C2136 C2140 1.350 . S
C2137 C2140 1.463 . S
C2137 C2142 1.350 . S
C2137 N2145 1.427 . S
C2138 H2129 0.930 . S
C2138 C2136 1.378 . S
C2138 C2139 1.367 . S
C2139 C2138 1.367 . S
C2139 C2141 1.433 . S
C2140 C2136 1.350 . S
C2140 C2137 1.463 . S
C2140 N2144 1.427 . S
C2141 H2131 0.929 . S
C2141 C2139 1.433 . S
C2141 N2144 1.384 . S
C2142 H2133 0.929 . S
C2142 C2134 1.378 . S
C2142 C2137 1.350 . S
C2143 H2130 0.929 . S
C2143 C2135 1.433 . S
C2143 N2145 1.384 . S
N2144 C2140 1.427 . S
N2144 C2141 1.384 . S
N2145 C2137 1.427 . S
N2145 C2143 1.384 . S
H2146 C2152 0.930 . S
H2147 C2156 0.930 . S
H2148 C2161 0.929 . S
H2149 C2159 0.929 . S
H2150 C2154 0.929 . S
H2151 C2160 0.929 . S
C2152 H2146 0.930 . S
C2152 C2153 1.367 . S
C2152 C2160 1.378 . S
C2153 C2152 1.367 . S
C2153 C2161 1.433 . S
C2154 H2150 0.929 . S
C2154 C2156 1.378 . S
C2154 C2158 1.350 . S
C2155 C2158 1.463 . S
C2155 C2160 1.350 . S
C2155 N2163 1.427 . S
C2156 H2147 0.930 . S
C2156 C2154 1.378 . S
C2156 C2157 1.367 . S
C2157 C2156 1.367 . S
C2157 C2159 1.433 . S
C2158 C2154 1.350 . S
C2158 C2155 1.463 . S
C2158 N2162 1.427 . S
C2159 H2149 0.929 . S
C2159 C2157 1.433 . S
C2159 N2162 1.384 . S
C2160 H2151 0.929 . S
C2160 C2152 1.378 . S
C2160 C2155 1.350 . S
C2161 H2148 0.929 . S
C2161 C2153 1.433 . S
C2161 N2163 1.384 . S
N2162 C2158 1.427 . S
N2162 C2159 1.384 . S
N2163 C2155 1.427 . S
N2163 C2161 1.384 . S
H2164 C2170 0.930 . S
H2165 C2174 0.930 . S
H2166 C2179 0.929 . S
H2167 C2177 0.929 . S
H2168 C2172 0.929 . S
H2169 C2178 0.929 . S
C2170 H2164 0.930 . S
C2170 C2171 1.367 . S
C2170 C2178 1.378 . S
C2171 C2170 1.367 . S
C2171 C2179 1.433 . S
C2172 H2168 0.929 . S
C2172 C2174 1.378 . S
C2172 C2176 1.350 . S
C2173 C2176 1.463 . S
C2173 C2178 1.350 . S
C2173 N2181 1.427 . S
C2174 H2165 0.930 . S
C2174 C2172 1.378 . S
C2174 C2175 1.367 . S
C2175 C2174 1.367 . S
C2175 C2177 1.433 . S
C2176 C2172 1.350 . S
C2176 C2173 1.463 . S
C2176 N2180 1.427 . S
C2177 H2167 0.929 . S
C2177 C2175 1.433 . S
C2177 N2180 1.384 . S
C2178 H2169 0.929 . S
C2178 C2170 1.378 . S
C2178 C2173 1.350 . S
C2179 H2166 0.929 . S
C2179 C2171 1.433 . S
C2179 N2181 1.384 . S
N2180 C2176 1.427 . S
N2180 C2177 1.384 . S
N2181 C2173 1.427 . S
N2181 C2179 1.384 . S
H2182 C2188 0.930 . S
H2183 C2192 0.930 . S
H2184 C2197 0.929 . S
H2185 C2195 0.929 . S
H2186 C2190 0.929 . S
H2187 C2196 0.929 . S
C2188 H2182 0.930 . S
C2188 C2189 1.367 . S
C2188 C2196 1.378 . S
C2189 C2188 1.367 . S
C2189 C2197 1.433 1_554 S
C2190 H2186 0.929 . S
C2190 C2192 1.378 . S
C2190 C2194 1.350 1_556 S
C2191 C2194 1.463 . S
C2191 C2196 1.350 . S
C2191 N2199 1.427 1_554 S
C2192 H2183 0.930 . S
C2192 C2190 1.378 . S
C2192 C2193 1.367 1_566 S
C2193 C2192 1.367 1_544 S
C2193 C2195 1.433 . S
C2194 C2190 1.350 1_554 S
C2194 C2191 1.463 . S
C2194 N2198 1.427 1_565 S
C2195 H2185 0.929 . S
C2195 C2193 1.433 . S
C2195 N2198 1.384 . S
C2196 H2187 0.929 . S
C2196 C2188 1.378 . S
C2196 C2191 1.350 . S
C2197 H2184 0.929 . S
C2197 C2189 1.433 1_556 S
C2197 N2199 1.384 . S
N2198 C2194 1.427 1_545 S
N2198 C2195 1.384 . S
N2199 C2191 1.427 1_556 S
N2199 C2197 1.384 . S
H2200 C2206 0.930 . S
H2201 C2210 0.930 . S
H2202 C2215 0.929 . S
H2203 C2213 0.929 . S
H2204 C2208 0.929 . S
H2205 C2214 0.929 . S
C2206 H2200 0.930 . S
C2206 C2207 1.367 . S
C2206 C2214 1.378 . S
C2207 C2206 1.367 . S
C2207 C2215 1.433 . S
C2208 H2204 0.929 . S
C2208 C2210 1.378 . S
C2208 C2212 1.350 . S
C2209 C2212 1.463 . S
C2209 C2214 1.350 . S
C2209 N2217 1.427 . S
C2210 H2201 0.930 . S
C2210 C2208 1.378 . S
C2210 C2211 1.367 . S
C2211 C2210 1.367 . S
C2211 C2213 1.433 . S
C2212 C2208 1.350 . S
C2212 C2209 1.463 . S
C2212 N2216 1.427 . S
C2213 H2203 0.929 . S
C2213 C2211 1.433 . S
C2213 N2216 1.384 . S
C2214 H2205 0.929 . S
C2214 C2206 1.378 . S
C2214 C2209 1.350 . S
C2215 H2202 0.929 . S
C2215 C2207 1.433 . S
C2215 N2217 1.384 . S
N2216 C2212 1.427 . S
N2216 C2213 1.384 . S
N2217 C2209 1.427 . S
N2217 C2215 1.384 . S
H2218 C2224 0.930 . S
H2219 C2228 0.930 . S
H2220 C2233 0.929 . S
H2221 C2231 0.929 . S
H2222 C2226 0.929 . S
H2223 C2232 0.930 . S
C2224 H2218 0.930 . S
C2224 C2225 1.367 1_556 S
C2224 C2232 1.379 . S
C2225 C2224 1.367 1_554 S
C2225 C2233 1.433 . S
C2226 H2222 0.929 . S
C2226 C2228 1.378 . S
C2226 C2230 1.350 . S
C2227 C2230 1.463 . S
C2227 C2232 1.348 1_554 S
C2227 N2235 1.427 . S
C2228 H2219 0.930 . S
C2228 C2226 1.378 . S
C2228 C2229 1.367 . S
C2229 C2228 1.367 . S
C2229 C2231 1.433 . S
C2230 C2226 1.350 . S
C2230 C2227 1.463 . S
C2230 N2234 1.427 . S
C2231 H2221 0.929 . S
C2231 C2229 1.433 . S
C2231 N2234 1.384 . S
C2232 H2223 0.930 . S
C2232 C2224 1.379 . S
C2232 C2227 1.348 1_556 S
C2233 H2220 0.929 . S
C2233 C2225 1.433 . S
C2233 N2235 1.384 . S
N2234 C2230 1.427 . S
N2234 C2231 1.384 . S
N2235 C2227 1.427 . S
N2235 C2233 1.384 . S
H2236 C2242 0.930 . S
H2237 C2246 0.930 . S
H2238 C2251 0.929 . S
H2239 C2249 0.929 . S
H2240 C2244 0.929 . S
H2241 C2250 0.929 . S
C2242 H2236 0.930 . S
C2242 C2243 1.367 . S
C2242 C2250 1.378 . S
C2243 C2242 1.367 . S
C2243 C2251 1.433 . S
C2244 H2240 0.929 . S
C2244 C2246 1.378 . S
C2244 C2248 1.350 . S
C2245 C2248 1.463 . S
C2245 C2250 1.350 . S
C2245 N2253 1.427 . S
C2246 H2237 0.930 . S
C2246 C2244 1.378 . S
C2246 C2247 1.367 . S
C2247 C2246 1.367 . S
C2247 C2249 1.433 . S
C2248 C2244 1.350 . S
C2248 C2245 1.463 . S
C2248 N2252 1.427 . S
C2249 H2239 0.929 . S
C2249 C2247 1.433 . S
C2249 N2252 1.384 . S
C2250 H2241 0.929 . S
C2250 C2242 1.378 . S
C2250 C2245 1.350 . S
C2251 H2238 0.929 . S
C2251 C2243 1.433 . S
C2251 N2253 1.384 . S
N2252 C2248 1.427 . S
N2252 C2249 1.384 . S
N2253 C2245 1.427 . S
N2253 C2251 1.384 . S
H2254 C2260 0.930 . S
H2255 C2264 0.930 . S
H2256 C2269 0.929 . S
H2257 C2267 0.929 . S
H2258 C2262 0.929 . S
H2259 C2268 0.929 . S
C2260 H2254 0.930 . S
C2260 C2261 1.367 . S
C2260 C2268 1.378 . S
C2261 C2260 1.367 . S
C2261 C2269 1.433 . S
C2262 H2258 0.929 . S
C2262 C2264 1.378 . S
C2262 C2266 1.350 . S
C2263 C2266 1.463 . S
C2263 C2268 1.350 . S
C2263 N2271 1.427 . S
C2264 H2255 0.930 . S
C2264 C2262 1.378 . S
C2264 C2265 1.367 . S
C2265 C2264 1.367 . S
C2265 C2267 1.433 . S
C2266 C2262 1.350 . S
C2266 C2263 1.463 . S
C2266 N2270 1.427 . S
C2267 H2257 0.929 . S
C2267 C2265 1.433 . S
C2267 N2270 1.384 . S
C2268 H2259 0.929 . S
C2268 C2260 1.378 . S
C2268 C2263 1.350 . S
C2269 H2256 0.929 . S
C2269 C2261 1.433 . S
C2269 N2271 1.384 . S
N2270 C2266 1.427 . S
N2270 C2267 1.384 . S
N2271 C2263 1.427 . S
N2271 C2269 1.384 . S
H2272 C2278 0.930 . S
H2273 C2282 0.930 . S
H2274 C2287 0.929 . S
H2275 C2285 0.929 . S
H2276 C2280 0.929 . S
H2277 C2286 0.929 . S
C2278 H2272 0.930 . S
C2278 C2279 1.367 . S
C2278 C2286 1.378 . S
C2279 C2278 1.367 . S
C2279 C2287 1.433 . S
C2280 H2276 0.929 . S
C2280 C2282 1.378 . S
C2280 C2284 1.350 . S
C2281 C2284 1.463 . S
C2281 C2286 1.350 . S
C2281 N2289 1.427 . S
C2282 H2273 0.930 . S
C2282 C2280 1.378 . S
C2282 C2283 1.367 . S
C2283 C2282 1.367 . S
C2283 C2285 1.433 . S
C2284 C2280 1.350 . S
C2284 C2281 1.463 . S
C2284 N2288 1.427 . S
C2285 H2275 0.929 . S
C2285 C2283 1.433 . S
C2285 N2288 1.384 . S
C2286 H2277 0.929 . S
C2286 C2278 1.378 . S
C2286 C2281 1.350 . S
C2287 H2274 0.929 . S
C2287 C2279 1.433 . S
C2287 N2289 1.384 . S
N2288 C2284 1.427 . S
N2288 C2285 1.384 . S
N2289 C2281 1.427 . S
N2289 C2287 1.384 . S
H2290 C2296 0.930 . S
H2291 C2300 0.930 . S
H2292 C2305 0.929 . S
H2293 C2303 0.929 . S
H2294 C2298 0.929 . S
H2295 C2304 0.929 . S
C2296 H2290 0.930 . S
C2296 C2297 1.367 . S
C2296 C2304 1.378 . S
C2297 C2296 1.367 . S
C2297 C2305 1.433 . S
C2298 H2294 0.929 . S
C2298 C2300 1.378 . S
C2298 C2302 1.350 . S
C2299 C2302 1.463 . S
C2299 C2304 1.350 . S
C2299 N2307 1.427 . S
C2300 H2291 0.930 . S
C2300 C2298 1.378 . S
C2300 C2301 1.367 . S
C2301 C2300 1.367 . S
C2301 C2303 1.433 . S
C2302 C2298 1.350 . S
C2302 C2299 1.463 . S
C2302 N2306 1.427 . S
C2303 H2293 0.929 . S
C2303 C2301 1.433 . S
C2303 N2306 1.384 . S
C2304 H2295 0.929 . S
C2304 C2296 1.378 . S
C2304 C2299 1.350 . S
C2305 H2292 0.929 . S
C2305 C2297 1.433 . S
C2305 N2307 1.384 . S
N2306 C2302 1.427 . S
N2306 C2303 1.384 . S
N2307 C2299 1.427 . S
N2307 C2305 1.384 . S
H2308 C2314 0.930 . S
H2309 C2318 0.930 . S
H2310 C2323 0.929 . S
H2311 C2321 0.929 . S
H2312 C2316 0.929 . S
H2313 C2322 0.929 . S
C2314 H2308 0.930 . S
C2314 C2315 1.367 . S
C2314 C2322 1.378 . S
C2315 C2314 1.367 . S
C2315 C2323 1.433 . S
C2316 H2312 0.929 . S
C2316 C2318 1.378 . S
C2316 C2320 1.350 . S
C2317 C2320 1.463 . S
C2317 C2322 1.350 . S
C2317 N2325 1.427 . S
C2318 H2309 0.930 . S
C2318 C2316 1.378 . S
C2318 C2319 1.367 . S
C2319 C2318 1.367 . S
C2319 C2321 1.433 . S
C2320 C2316 1.350 . S
C2320 C2317 1.463 . S
C2320 N2324 1.427 . S
C2321 H2311 0.929 . S
C2321 C2319 1.433 . S
C2321 N2324 1.384 . S
C2322 H2313 0.929 . S
C2322 C2314 1.378 . S
C2322 C2317 1.350 . S
C2323 H2310 0.929 . S
C2323 C2315 1.433 . S
C2323 N2325 1.384 . S
N2324 C2320 1.427 . S
N2324 C2321 1.384 . S
N2325 C2317 1.427 . S
N2325 C2323 1.384 . S
H2326 C2332 0.930 . S
H2327 C2336 0.930 . S
H2328 C2341 0.929 . S
H2329 C2339 0.929 . S
H2330 C2334 0.929 . S
H2331 C2340 0.929 . S
C2332 H2326 0.930 . S
C2332 C2333 1.367 . S
C2332 C2340 1.378 . S
C2333 C2332 1.367 . S
C2333 C2341 1.433 . S
C2334 H2330 0.929 . S
C2334 C2336 1.378 . S
C2334 C2338 1.350 . S
C2335 C2338 1.463 . S
C2335 C2340 1.350 . S
C2335 N2343 1.427 . S
C2336 H2327 0.930 . S
C2336 C2334 1.378 . S
C2336 C2337 1.367 . S
C2337 C2336 1.367 . S
C2337 C2339 1.433 . S
C2338 C2334 1.350 . S
C2338 C2335 1.463 . S
C2338 N2342 1.427 . S
C2339 H2329 0.929 . S
C2339 C2337 1.433 . S
C2339 N2342 1.384 . S
C2340 H2331 0.929 . S
C2340 C2332 1.378 . S
C2340 C2335 1.350 . S
C2341 H2328 0.929 . S
C2341 C2333 1.433 . S
C2341 N2343 1.384 . S
N2342 C2338 1.427 . S
N2342 C2339 1.384 . S
N2343 C2335 1.427 . S
N2343 C2341 1.384 . S
H2344 C2350 0.930 . S
H2345 C2354 0.930 . S
H2346 C2359 0.929 . S
H2347 C2357 0.929 . S
H2348 C2352 0.929 . S
H2349 C2358 0.929 . S
C2350 H2344 0.930 . S
C2350 C2351 1.367 . S
C2350 C2358 1.378 . S
C2351 C2350 1.367 . S
C2351 C2359 1.433 . S
C2352 H2348 0.929 . S
C2352 C2354 1.378 . S
C2352 C2356 1.350 . S
C2353 C2356 1.463 . S
C2353 C2358 1.350 . S
C2353 N2361 1.427 . S
C2354 H2345 0.930 . S
C2354 C2352 1.378 . S
C2354 C2355 1.367 . S
C2355 C2354 1.367 . S
C2355 C2357 1.433 . S
C2356 C2352 1.350 . S
C2356 C2353 1.463 . S
C2356 N2360 1.427 . S
C2357 H2347 0.929 . S
C2357 C2355 1.433 . S
C2357 N2360 1.384 . S
C2358 H2349 0.929 . S
C2358 C2350 1.378 . S
C2358 C2353 1.350 . S
C2359 H2346 0.929 . S
C2359 C2351 1.433 . S
C2359 N2361 1.384 . S
N2360 C2356 1.427 . S
N2360 C2357 1.384 . S
N2361 C2353 1.427 . S
N2361 C2359 1.384 . S
H2362 C2368 0.930 . S
H2363 C2372 0.930 . S
H2364 C2377 0.929 . S
H2365 C2375 0.929 . S
H2366 C2370 0.929 . S
H2367 C2376 0.929 . S
C2368 H2362 0.930 . S
C2368 C2369 1.367 . S
C2368 C2376 1.378 . S
C2369 C2368 1.367 . S
C2369 C2377 1.433 . S
C2370 H2366 0.929 . S
C2370 C2372 1.378 . S
C2370 C2374 1.350 . S
C2371 C2374 1.463 . S
C2371 C2376 1.350 . S
C2371 N2379 1.427 . S
C2372 H2363 0.930 . S
C2372 C2370 1.378 . S
C2372 C2373 1.367 . S
C2373 C2372 1.367 . S
C2373 C2375 1.433 . S
C2374 C2370 1.350 . S
C2374 C2371 1.463 . S
C2374 N2378 1.427 . S
C2375 H2365 0.929 . S
C2375 C2373 1.433 . S
C2375 N2378 1.384 . S
C2376 H2367 0.929 . S
C2376 C2368 1.378 . S
C2376 C2371 1.350 . S
C2377 H2364 0.929 . S
C2377 C2369 1.433 . S
C2377 N2379 1.384 . S
N2378 C2374 1.427 . S
N2378 C2375 1.384 . S
N2379 C2371 1.427 . S
N2379 C2377 1.384 . S
H2380 C2386 0.930 . S
H2381 C2390 0.930 . S
H2382 C2395 0.929 . S
H2383 C2393 0.929 . S
H2384 C2388 0.929 . S
H2385 C2394 0.929 . S
C2386 H2380 0.930 . S
C2386 C2387 1.367 . S
C2386 C2394 1.378 . S
C2387 C2386 1.367 . S
C2387 C2395 1.433 . S
C2388 H2384 0.929 . S
C2388 C2390 1.378 . S
C2388 C2392 1.350 . S
C2389 C2392 1.463 . S
C2389 C2394 1.350 . S
C2389 N2397 1.427 . S
C2390 H2381 0.930 . S
C2390 C2388 1.378 . S
C2390 C2391 1.367 . S
C2391 C2390 1.367 . S
C2391 C2393 1.433 . S
C2392 C2388 1.350 . S
C2392 C2389 1.463 . S
C2392 N2396 1.427 . S
C2393 H2383 0.929 . S
C2393 C2391 1.433 . S
C2393 N2396 1.384 . S
C2394 H2385 0.929 . S
C2394 C2386 1.378 . S
C2394 C2389 1.350 . S
C2395 H2382 0.929 . S
C2395 C2387 1.433 . S
C2395 N2397 1.384 . S
N2396 C2392 1.427 . S
N2396 C2393 1.384 . S
N2397 C2389 1.427 . S
N2397 C2395 1.384 . S
H2398 C2404 0.930 . S
H2399 C2408 0.930 . S
H2400 C2413 0.929 . S
H2401 C2411 0.929 . S
H2402 C2406 0.929 . S
H2403 C2412 0.929 . S
C2404 H2398 0.930 . S
C2404 C2405 1.367 . S
C2404 C2412 1.378 . S
C2405 C2404 1.367 . S
C2405 C2413 1.433 . S
C2406 H2402 0.929 . S
C2406 C2408 1.378 . S
C2406 C2410 1.350 . S
C2407 C2410 1.463 . S
C2407 C2412 1.350 . S
C2407 N2415 1.427 . S
C2408 H2399 0.930 . S
C2408 C2406 1.378 . S
C2408 C2409 1.367 . S
C2409 C2408 1.367 . S
C2409 C2411 1.433 . S
C2410 C2406 1.350 . S
C2410 C2407 1.463 . S
C2410 N2414 1.427 . S
C2411 H2401 0.929 . S
C2411 C2409 1.433 . S
C2411 N2414 1.384 . S
C2412 H2403 0.929 . S
C2412 C2404 1.378 . S
C2412 C2407 1.350 . S
C2413 H2400 0.929 . S
C2413 C2405 1.433 . S
C2413 N2415 1.384 . S
N2414 C2410 1.427 . S
N2414 C2411 1.384 . S
N2415 C2407 1.427 . S
N2415 C2413 1.384 . S
H2416 C2422 0.930 . S
H2417 C2426 0.930 . S
H2418 C2431 0.929 . S
H2419 C2429 0.929 . S
H2420 C2424 0.929 . S
H2421 C2430 0.929 . S
C2422 H2416 0.930 . S
C2422 C2423 1.367 . S
C2422 C2430 1.378 . S
C2423 C2422 1.367 . S
C2423 C2431 1.433 . S
C2424 H2420 0.929 . S
C2424 C2426 1.378 . S
C2424 C2428 1.350 . S
C2425 C2428 1.463 . S
C2425 C2430 1.350 . S
C2425 N2433 1.427 . S
C2426 H2417 0.930 . S
C2426 C2424 1.378 . S
C2426 C2427 1.367 . S
C2427 C2426 1.367 . S
C2427 C2429 1.433 . S
C2428 C2424 1.350 . S
C2428 C2425 1.463 . S
C2428 N2432 1.427 . S
C2429 H2419 0.929 . S
C2429 C2427 1.433 . S
C2429 N2432 1.384 . S
C2430 H2421 0.929 . S
C2430 C2422 1.378 . S
C2430 C2425 1.350 . S
C2431 H2418 0.929 . S
C2431 C2423 1.433 . S
C2431 N2433 1.384 . S
N2432 C2428 1.427 . S
N2432 C2429 1.384 . S
N2433 C2425 1.427 . S
N2433 C2431 1.384 . S
H2434 C2440 0.930 . S
H2435 C2444 0.930 . S
H2436 C2449 0.929 . S
H2437 C2447 0.929 . S
H2438 C2442 0.929 . S
H2439 C2448 0.929 . S
C2440 H2434 0.930 . S
C2440 C2441 1.367 . S
C2440 C2448 1.378 . S
C2441 C2440 1.367 . S
C2441 C2449 1.433 . S
C2442 H2438 0.929 . S
C2442 C2444 1.378 . S
C2442 C2446 1.350 . S
C2443 C2446 1.463 . S
C2443 C2448 1.350 . S
C2443 N2451 1.427 . S
C2444 H2435 0.930 . S
C2444 C2442 1.378 . S
C2444 C2445 1.367 . S
C2445 C2444 1.367 . S
C2445 C2447 1.433 . S
C2446 C2442 1.350 . S
C2446 C2443 1.463 . S
C2446 N2450 1.427 . S
C2447 H2437 0.929 . S
C2447 C2445 1.433 . S
C2447 N2450 1.384 . S
C2448 H2439 0.929 . S
C2448 C2440 1.378 . S
C2448 C2443 1.350 . S
C2449 H2436 0.929 . S
C2449 C2441 1.433 . S
C2449 N2451 1.384 . S
N2450 C2446 1.427 . S
N2450 C2447 1.384 . S
N2451 C2443 1.427 . S
N2451 C2449 1.384 . S
H2452 C2458 0.930 . S
H2453 C2462 0.930 . S
H2454 C2467 0.929 . S
H2455 C2465 0.929 . S
H2456 C2460 0.929 . S
H2457 C2466 0.929 1_455 S
C2458 H2452 0.930 . S
C2458 C2459 1.367 . S
C2458 C2466 1.378 . S
C2459 C2458 1.367 . S
C2459 C2467 1.433 . S
C2460 H2456 0.929 . S
C2460 C2462 1.378 1_655 S
C2460 C2464 1.365 . S
C2461 C2464 1.477 . S
C2461 C2466 1.350 . S
C2461 N2469 1.427 . S
C2462 H2453 0.930 . S
C2462 C2460 1.378 1_455 S
C2462 C2463 1.367 . S
C2463 C2462 1.367 . S
C2463 C2465 1.433 . S
C2464 C2460 1.365 . S
C2464 C2461 1.477 . S
C2464 N2468 1.398 1_655 S
C2465 H2455 0.929 . S
C2465 C2463 1.433 . S
C2465 N2468 1.384 . S
C2466 H2457 0.929 1_655 S
C2466 C2458 1.378 . S
C2466 C2461 1.350 . S
C2467 H2454 0.929 . S
C2467 C2459 1.433 . S
C2467 N2469 1.384 . S
N2468 C2464 1.398 1_455 S
N2468 C2465 1.384 . S
N2469 C2461 1.427 . S
N2469 C2467 1.384 . S
H2470 C2476 0.930 . S
H2471 C2480 0.930 . S
H2472 C2485 0.929 . S
H2473 C2483 0.929 . S
H2474 C2478 0.929 . S
H2475 C2484 0.929 . S
C2476 H2470 0.930 . S
C2476 C2477 1.367 . S
C2476 C2484 1.378 . S
C2477 C2476 1.367 . S
C2477 C2485 1.433 . S
C2478 H2474 0.929 . S
C2478 C2480 1.378 . S
C2478 C2482 1.350 . S
C2479 C2482 1.463 . S
C2479 C2484 1.350 . S
C2479 N2487 1.427 . S
C2480 H2471 0.930 . S
C2480 C2478 1.378 . S
C2480 C2481 1.367 . S
C2481 C2480 1.367 . S
C2481 C2483 1.433 . S
C2482 C2478 1.350 . S
C2482 C2479 1.463 . S
C2482 N2486 1.427 . S
C2483 H2473 0.929 . S
C2483 C2481 1.433 . S
C2483 N2486 1.384 . S
C2484 H2475 0.929 . S
C2484 C2476 1.378 . S
C2484 C2479 1.350 . S
C2485 H2472 0.929 . S
C2485 C2477 1.433 . S
C2485 N2487 1.384 . S
N2486 C2482 1.427 . S
N2486 C2483 1.384 . S
N2487 C2479 1.427 . S
N2487 C2485 1.384 . S
H2488 C2494 0.930 . S
H2489 C2498 0.930 . S
H2490 C2503 0.929 . S
H2491 C2501 0.929 . S
H2492 C2496 0.929 . S
H2493 C2502 0.929 . S
C2494 H2488 0.930 . S
C2494 C2495 1.367 . S
C2494 C2502 1.378 . S
C2495 C2494 1.367 . S
C2495 C2503 1.433 . S
C2496 H2492 0.929 . S
C2496 C2498 1.378 . S
C2496 C2500 1.350 . S
C2497 C2500 1.463 . S
C2497 C2502 1.350 . S
C2497 N2505 1.427 . S
C2498 H2489 0.930 . S
C2498 C2496 1.378 . S
C2498 C2499 1.367 . S
C2499 C2498 1.367 . S
C2499 C2501 1.433 . S
C2500 C2496 1.350 . S
C2500 C2497 1.463 . S
C2500 N2504 1.427 . S
C2501 H2491 0.929 . S
C2501 C2499 1.433 . S
C2501 N2504 1.384 . S
C2502 H2493 0.929 . S
C2502 C2494 1.378 . S
C2502 C2497 1.350 . S
C2503 H2490 0.929 . S
C2503 C2495 1.433 . S
C2503 N2505 1.384 . S
N2504 C2500 1.427 . S
N2504 C2501 1.384 . S
N2505 C2497 1.427 . S
N2505 C2503 1.384 . S
H2506 C2512 0.930 . S
H2507 C2516 0.930 . S
H2508 C2521 0.929 . S
H2509 C2519 0.929 . S
H2510 C2514 0.929 . S
H2511 C2520 0.929 . S
C2512 H2506 0.930 . S
C2512 C2513 1.367 . S
C2512 C2520 1.378 . S
C2513 C2512 1.367 . S
C2513 C2521 1.433 . S
C2514 H2510 0.929 . S
C2514 C2516 1.378 . S
C2514 C2518 1.350 . S
C2515 C2518 1.463 . S
C2515 C2520 1.350 . S
C2515 N2523 1.427 . S
C2516 H2507 0.930 . S
C2516 C2514 1.378 . S
C2516 C2517 1.367 . S
C2517 C2516 1.367 . S
C2517 C2519 1.433 . S
C2518 C2514 1.350 . S
C2518 C2515 1.463 . S
C2518 N2522 1.427 . S
C2519 H2509 0.929 . S
C2519 C2517 1.433 . S
C2519 N2522 1.384 . S
C2520 H2511 0.929 . S
C2520 C2512 1.378 . S
C2520 C2515 1.350 . S
C2521 H2508 0.929 . S
C2521 C2513 1.433 . S
C2521 N2523 1.384 . S
N2522 C2518 1.427 . S
N2522 C2519 1.384 . S
N2523 C2515 1.427 . S
N2523 C2521 1.384 . S
H2524 C2530 0.930 . S
H2525 C2534 0.930 1_455 S
H2526 C2539 0.929 . S
H2527 C2537 0.929 . S
H2528 C2532 0.929 . S
H2529 C2538 0.929 . S
C2530 H2524 0.930 . S
C2530 C2531 1.367 . S
C2530 C2538 1.378 . S
C2531 C2530 1.367 . S
C2531 C2539 1.433 . S
C2532 H2528 0.929 . S
C2532 C2534 1.378 . S
C2532 C2536 1.350 . S
C2533 C2536 1.463 . S
C2533 C2538 1.350 . S
C2533 N2541 1.427 . S
C2534 H2525 0.930 1_655 S
C2534 C2532 1.378 . S
C2534 C2535 1.367 . S
C2535 C2534 1.367 . S
C2535 C2537 1.433 . S
C2536 C2532 1.350 . S
C2536 C2533 1.463 . S
C2536 N2540 1.427 . S
C2537 H2527 0.929 . S
C2537 C2535 1.433 . S
C2537 N2540 1.384 . S
C2538 H2529 0.929 . S
C2538 C2530 1.378 . S
C2538 C2533 1.350 . S
C2539 H2526 0.929 . S
C2539 C2531 1.433 . S
C2539 N2541 1.384 . S
N2540 C2536 1.427 . S
N2540 C2537 1.384 . S
N2541 C2533 1.427 . S
N2541 C2539 1.384 . S
H2542 C2548 0.930 . S
H2543 C2552 0.930 . S
H2544 C2557 0.929 . S
H2545 C2555 0.929 . S
H2546 C2550 0.929 . S
H2547 C2556 0.929 . S
C2548 H2542 0.930 . S
C2548 C2549 1.367 . S
C2548 C2556 1.378 . S
C2549 C2548 1.367 . S
C2549 C2557 1.433 . S
C2550 H2546 0.929 . S
C2550 C2552 1.378 . S
C2550 C2554 1.350 . S
C2551 C2554 1.463 . S
C2551 C2556 1.350 . S
C2551 N2559 1.427 . S
C2552 H2543 0.930 . S
C2552 C2550 1.378 . S
C2552 C2553 1.367 . S
C2553 C2552 1.367 . S
C2553 C2555 1.433 . S
C2554 C2550 1.350 . S
C2554 C2551 1.463 . S
C2554 N2558 1.427 . S
C2555 H2545 0.929 . S
C2555 C2553 1.433 . S
C2555 N2558 1.384 . S
C2556 H2547 0.929 . S
C2556 C2548 1.378 . S
C2556 C2551 1.350 . S
C2557 H2544 0.929 . S
C2557 C2549 1.433 . S
C2557 N2559 1.384 . S
N2558 C2554 1.427 . S
N2558 C2555 1.384 . S
N2559 C2551 1.427 . S
N2559 C2557 1.384 . S
H2560 C2566 0.930 . S
H2561 C2570 0.930 . S
H2562 C2575 0.929 . S
H2563 C2573 0.929 . S
H2564 C2568 0.929 . S
H2565 C2574 0.929 . S
C2566 H2560 0.930 . S
C2566 C2567 1.367 . S
C2566 C2574 1.378 . S
C2567 C2566 1.367 . S
C2567 C2575 1.433 . S
C2568 H2564 0.929 . S
C2568 C2570 1.378 . S
C2568 C2572 1.350 . S
C2569 C2572 1.463 . S
C2569 C2574 1.350 . S
C2569 N2577 1.427 . S
C2570 H2561 0.930 . S
C2570 C2568 1.378 . S
C2570 C2571 1.367 . S
C2571 C2570 1.367 . S
C2571 C2573 1.433 . S
C2572 C2568 1.350 . S
C2572 C2569 1.463 . S
C2572 N2576 1.427 . S
C2573 H2563 0.929 . S
C2573 C2571 1.433 . S
C2573 N2576 1.384 . S
C2574 H2565 0.929 . S
C2574 C2566 1.378 . S
C2574 C2569 1.350 . S
C2575 H2562 0.929 . S
C2575 C2567 1.433 . S
C2575 N2577 1.384 . S
N2576 C2572 1.427 . S
N2576 C2573 1.384 . S
N2577 C2569 1.427 . S
N2577 C2575 1.384 . S
H2578 C2584 0.930 . S
H2579 C2588 0.930 1_545 S
H2580 C2593 0.929 . S
H2581 C2591 0.929 . S
H2582 C2586 0.929 . S
H2583 C2592 0.929 . S
C2584 H2578 0.930 . S
C2584 C2585 1.367 . S
C2584 C2592 1.378 . S
C2585 C2584 1.367 . S
C2585 C2593 1.433 . S
C2586 H2582 0.929 . S
C2586 C2588 1.378 . S
C2586 C2590 1.350 . S
C2587 C2590 1.463 . S
C2587 C2592 1.350 . S
C2587 N2595 1.427 . S
C2588 H2579 0.930 1_565 S
C2588 C2586 1.378 . S
C2588 C2589 1.367 . S
C2589 C2588 1.367 . S
C2589 C2591 1.433 . S
C2590 C2586 1.350 . S
C2590 C2587 1.463 . S
C2590 N2594 1.427 . S
C2591 H2581 0.929 . S
C2591 C2589 1.433 . S
C2591 N2594 1.384 . S
C2592 H2583 0.929 . S
C2592 C2584 1.378 . S
C2592 C2587 1.350 . S
C2593 H2580 0.929 . S
C2593 C2585 1.433 . S
C2593 N2595 1.384 . S
N2594 C2590 1.427 . S
N2594 C2591 1.384 . S
N2595 C2587 1.427 . S
N2595 C2593 1.384 . S
H2596 C2602 0.930 . S
H2597 C2606 0.930 . S
H2598 C2611 0.929 . S
H2599 C2609 0.929 . S
H2600 C2604 0.929 . S
H2601 C2610 0.929 . S
C2602 H2596 0.930 . S
C2602 C2603 1.367 . S
C2602 C2610 1.378 . S
C2603 C2602 1.367 . S
C2603 C2611 1.433 . S
C2604 H2600 0.929 . S
C2604 C2606 1.378 . S
C2604 C2608 1.350 . S
C2605 C2608 1.463 . S
C2605 C2610 1.350 . S
C2605 N2613 1.427 . S
C2606 H2597 0.930 . S
C2606 C2604 1.378 . S
C2606 C2607 1.367 . S
C2607 C2606 1.367 . S
C2607 C2609 1.433 . S
C2608 C2604 1.350 . S
C2608 C2605 1.463 . S
C2608 N2612 1.427 . S
C2609 H2599 0.929 . S
C2609 C2607 1.433 . S
C2609 N2612 1.384 . S
C2610 H2601 0.929 . S
C2610 C2602 1.378 . S
C2610 C2605 1.350 . S
C2611 H2598 0.929 . S
C2611 C2603 1.433 . S
C2611 N2613 1.384 . S
N2612 C2608 1.427 . S
N2612 C2609 1.384 . S
N2613 C2605 1.427 . S
N2613 C2611 1.384 . S
H2614 C2620 0.930 . S
H2615 C2624 0.930 . S
H2616 C2629 0.929 . S
H2617 C2627 0.929 . S
H2618 C2622 0.929 . S
H2619 C2628 0.929 . S
C2620 H2614 0.930 . S
C2620 C2621 1.367 1_556 S
C2620 C2628 1.378 . S
C2621 C2620 1.367 1_554 S
C2621 C2629 1.433 . S
C2622 H2618 0.929 . S
C2622 C2624 1.378 . S
C2622 C2626 1.350 . S
C2623 C2626 1.463 . S
C2623 C2628 1.350 1_554 S
C2623 N2631 1.427 . S
C2624 H2615 0.930 . S
C2624 C2622 1.378 . S
C2624 C2625 1.367 . S
C2625 C2624 1.367 . S
C2625 C2627 1.433 1_554 S
C2626 C2622 1.350 . S
C2626 C2623 1.463 . S
C2626 N2630 1.427 1_554 S
C2627 H2617 0.929 . S
C2627 C2625 1.433 1_556 S
C2627 N2630 1.384 . S
C2628 H2619 0.929 . S
C2628 C2620 1.378 . S
C2628 C2623 1.350 1_556 S
C2629 H2616 0.929 . S
C2629 C2621 1.433 . S
C2629 N2631 1.384 . S
N2630 C2626 1.427 1_556 S
N2630 C2627 1.384 . S
N2631 C2623 1.427 . S
N2631 C2629 1.384 . S
H2632 C2638 0.930 . S
H2633 C2642 0.930 . S
H2634 C2647 0.929 . S
H2635 C2645 0.929 . S
H2636 C2640 0.929 . S
H2637 C2646 0.929 . S
C2638 H2632 0.930 . S
C2638 C2639 1.367 . S
C2638 C2646 1.378 . S
C2639 C2638 1.367 . S
C2639 C2647 1.433 . S
C2640 H2636 0.929 . S
C2640 C2642 1.378 . S
C2640 C2644 1.350 . S
C2641 C2644 1.463 . S
C2641 C2646 1.350 . S
C2641 N2649 1.427 . S
C2642 H2633 0.930 . S
C2642 C2640 1.378 . S
C2642 C2643 1.367 . S
C2643 C2642 1.367 . S
C2643 C2645 1.433 . S
C2644 C2640 1.350 . S
C2644 C2641 1.463 . S
C2644 N2648 1.427 . S
C2645 H2635 0.929 . S
C2645 C2643 1.433 . S
C2645 N2648 1.384 . S
C2646 H2637 0.929 . S
C2646 C2638 1.378 . S
C2646 C2641 1.350 . S
C2647 H2634 0.929 . S
C2647 C2639 1.433 . S
C2647 N2649 1.384 . S
N2648 C2644 1.427 . S
N2648 C2645 1.384 . S
N2649 C2641 1.427 . S
N2649 C2647 1.384 . S
H2650 C2656 0.930 . S
H2651 C2660 0.930 . S
H2652 C2665 0.929 . S
H2653 C2663 0.929 . S
H2654 C2658 0.929 . S
H2655 C2664 0.929 . S
C2656 H2650 0.930 . S
C2656 C2657 1.367 . S
C2656 C2664 1.378 . S
C2657 C2656 1.367 . S
C2657 C2665 1.433 . S
C2658 H2654 0.929 . S
C2658 C2660 1.378 . S
C2658 C2662 1.350 . S
C2659 C2662 1.463 1_554 S
C2659 C2664 1.350 . S
C2659 N2667 1.427 1_554 S
C2660 H2651 0.930 . S
C2660 C2658 1.378 . S
C2660 C2661 1.367 . S
C2661 C2660 1.367 . S
C2661 C2663 1.433 . S
C2662 C2658 1.350 . S
C2662 C2659 1.463 1_556 S
C2662 N2666 1.435 . S
C2663 H2653 0.929 . S
C2663 C2661 1.433 . S
C2663 N2666 1.390 . S
C2664 H2655 0.929 . S
C2664 C2656 1.378 . S
C2664 C2659 1.350 . S
C2665 H2652 0.929 . S
C2665 C2657 1.433 . S
C2665 N2667 1.384 1_554 S
N2666 C2662 1.435 . S
N2666 C2663 1.390 . S
N2667 C2659 1.427 1_556 S
N2667 C2665 1.384 1_556 S
H2668 C2674 0.930 . S
H2669 C2678 0.930 . S
H2670 C2683 0.929 . S
H2671 C2681 0.929 . S
H2672 C2676 0.929 . S
H2673 C2682 0.929 . S
C2674 H2668 0.930 . S
C2674 C2675 1.367 . S
C2674 C2682 1.378 . S
C2675 C2674 1.367 . S
C2675 C2683 1.433 . S
C2676 H2672 0.929 . S
C2676 C2678 1.378 . S
C2676 C2680 1.350 . S
C2677 C2680 1.463 . S
C2677 C2682 1.350 . S
C2677 N2685 1.427 . S
C2678 H2669 0.930 . S
C2678 C2676 1.378 . S
C2678 C2679 1.367 . S
C2679 C2678 1.367 . S
C2679 C2681 1.433 . S
C2680 C2676 1.350 . S
C2680 C2677 1.463 . S
C2680 N2684 1.427 . S
C2681 H2671 0.929 . S
C2681 C2679 1.433 . S
C2681 N2684 1.384 . S
C2682 H2673 0.929 . S
C2682 C2674 1.378 . S
C2682 C2677 1.350 . S
C2683 H2670 0.929 . S
C2683 C2675 1.433 . S
C2683 N2685 1.384 . S
N2684 C2680 1.427 . S
N2684 C2681 1.384 . S
N2685 C2677 1.427 . S
N2685 C2683 1.384 . S
H2686 C2692 0.930 . S
H2687 C2696 0.930 . S
H2688 C2701 0.929 . S
H2689 C2699 0.929 . S
H2690 C2694 0.929 . S
H2691 C2700 0.929 . S
C2692 H2686 0.930 . S
C2692 C2693 1.367 . S
C2692 C2700 1.378 . S
C2693 C2692 1.367 . S
C2693 C2701 1.433 . S
C2694 H2690 0.929 . S
C2694 C2696 1.378 . S
C2694 C2698 1.350 . S
C2695 C2698 1.463 . S
C2695 C2700 1.350 . S
C2695 N2703 1.427 . S
C2696 H2687 0.930 . S
C2696 C2694 1.378 . S
C2696 C2697 1.367 . S
C2697 C2696 1.367 . S
C2697 C2699 1.433 . S
C2698 C2694 1.350 . S
C2698 C2695 1.463 . S
C2698 N2702 1.427 . S
C2699 H2689 0.929 . S
C2699 C2697 1.433 . S
C2699 N2702 1.384 . S
C2700 H2691 0.929 . S
C2700 C2692 1.378 . S
C2700 C2695 1.350 . S
C2701 H2688 0.929 . S
C2701 C2693 1.433 . S
C2701 N2703 1.384 . S
N2702 C2698 1.427 . S
N2702 C2699 1.384 . S
N2703 C2695 1.427 . S
N2703 C2701 1.384 . S
C983 C109 2.231 . S
C987 C338 2.207 1_556 S
C1001 C65 2.138 . S
C1005 C395 2.144 . S
C1019 C75 1.231 . S
C1023 C418 1.194 . S
C1041 C472 1.399 . S
C1037 C84 1.403 . S
C1055 C25 1.359 . S
C1059 C512 1.338 . S
C1077 C543 0.508 . S
C1073 C28 0.501 . S
C1095 C595 1.363 . S
C1091 C47 1.315 . S
C1109 C9 1.854 . S
C1113 C618 1.793 . S
C1131 C355 2.544 . S
C1127 C233 2.552 . S
C1145 C249 0.547 . S
C1149 C392 0.575 . S
C1167 C435 1.336 . S
C1163 C275 1.345 . S
C1185 C458 1.338 . S
C1181 C173 1.348 . S
C1199 C224 1.933 . S
C1203 C498 1.948 . S
C1221 C546 1.453 . S
C1217 C243 1.467 . S
C1239 C592 0.406 . S
C1235 C266 0.339 . S
C1257 C635 2.020 . S
C1253 C179 2.027 . S
C1275 C352 1.528 1_565 S
C1271 C163 1.546 . S
C1289 C289 1.965 . S
C1293 C675 1.967 . S
C1311 C707 2.582 . S
C1307 C333 2.620 . S
C1329 C738 0.579 1_655 S
C1325 C308 0.591 . S
C1343 C123 1.512 . S
C1347 C632 1.493 . S
C1361 C126 1.582 . S
C1365 C432 1.586 . S
C1379 C327 2.299 . S
C1383 C795 2.292 . S
C1401 C818 0.673 . S
C1397 C299 0.643 . S
C1419 C347 2.211 . S
C1415 C67 2.253 . S
C1437 C826 2.171 . S
C1433 C98 2.125 . S
C1451 C89 1.259 . S
C1455 C427 1.241 . S
C1469 C79 1.462 . S
C1473 C783 1.441 . S
C1491 C503 1.330 . S
C1487 C11 1.365 . S
C1505 C51 0.497 . S
C1509 C712 0.529 . S
C1527 C586 1.451 . S
C1523 C33 1.393 . S
C1545 C867 1.770 . S
C1541 C14 1.846 . S
C1563 C346 2.525 . S
C1559 C140 2.525 . S
C1581 C823 0.529 . S
C1577 C319 0.493 . S
C1595 C112 1.356 . S
C1599 C426 1.354 . S
C1613 C285 1.372 . S
C1617 C787 1.358 . S
C1631 C149 1.993 1_545 S
C1635 C507 1.974 . S
C1653 C715 1.472 . S
C1649 C313 1.493 . S
C1667 C121 0.340 . S
C1671 C583 0.424 . S
C1685 C291 2.060 . S
C1689 C866 2.045 . S
C1703 C182 1.570 . S
C1707 C343 1.520 . S
C1721 C168 1.952 . S
C1725 C666 1.985 . S
C1739 C263 2.670 . S
C1743 C538 2.631 . S
C1757 C247 0.655 . S
C1761 C747 0.659 . S
C1779 C863 1.470 . S
C1775 C277 1.501 . S
C1793 C219 1.631 . S
C1797 C423 1.601 . S
C1815 C466 2.331 . S
C1811 C257 2.341 . S
C1833 C387 0.653 . S
C1829 C201 0.638 . S
C1847 C81 2.236 . S
C1851 C898 2.203 . S
C1869 C835 2.144 . S
C1865 C93 2.139 . S
C1883 C103 1.231 . S
C1887 C938 1.194 1_556 S
C1901 C56 1.411 . S
C1905 C792 1.407 . S
C1919 C53 1.352 . S
C1923 C672 1.327 . S
C1941 C703 0.506 . S
C1937 C0 0.501 . S
C1959 C755 1.356 . S
C1955 C19 1.315 . S
C1977 C858 1.795 . S
C1973 C37 1.845 . S
C1995 C915 2.542 . S
C1991 C261 2.552 . S
C2009 C193 0.538 . S
C2013 C832 0.577 . S
C2031 C955 1.339 . S
C2027 C205 1.343 . S
C2049 C778 1.337 . S
C2045 C215 1.348 . S
C2067 C658 1.952 . S
C2063 C252 1.943 . S
C2081 C187 1.467 . S
C2085 C706 1.452 . S
C2103 C752 0.364 . S
C2099 C196 0.309 . S
C2117 C221 2.029 . S
C2121 C875 2.016 . S
C2139 C912 1.540 . S
C2135 C317 1.558 . S
C2153 C135 1.966 . S
C2157 C515 1.967 . S
C2175 C547 2.589 . S
C2171 C151 2.623 . S
C2193 C578 0.579 . S
C2189 C154 0.591 . S
C2211 C872 1.478 . S
C2207 C305 1.497 . S
C2225 C280 1.586 . S
C2229 C952 1.589 . S
C2247 C475 2.289 . S
C2243 C145 2.299 . S
C2265 C378 0.646 . S
C2261 C117 0.630 . S
C2279 C95 2.251 . S
C2283 C907 2.213 . S
C2301 C386 2.171 . S
C2297 C70 2.125 . S
C2315 C61 1.262 . S
C2319 C947 1.233 . S
C2333 C107 1.464 . S
C2337 C463 1.448 . S
C2351 C39 1.355 . S
C2355 C663 1.316 . S
C2373 C552 0.505 . S
C2369 C23 0.500 . S
C2387 C5 1.380 . S
C2391 C746 1.427 . S
C2405 C42 1.837 . S
C2409 C627 1.774 . S
C2427 C906 2.526 . S
C2423 C322 2.522 . S
C2441 C165 0.518 . S
C2445 C383 0.548 . S
C2463 C946 1.360 . S
C2459 C294 1.350 . S
C2477 C131 1.373 . S
C2481 C467 1.354 . S
C2495 C331 1.993 . S
C2499 C667 1.974 . S
C2517 C555 1.478 . S
C2513 C159 1.493 . S
C2531 C303 0.332 . S
C2535 C743 0.384 . S
C2553 C626 2.044 . S
C2549 C137 2.062 . S
C2571 C903 1.518 . S
C2567 C238 1.570 . S
C2589 C506 1.984 1_665 S
C2585 C210 1.955 . S
C2603 C235 2.669 . S
C2607 C698 2.627 . S
C2625 C587 0.649 . S
C2621 C191 0.654 . S
C2639 C207 1.496 . S
C2643 C623 1.459 . S
C2657 C177 1.629 . S
C2661 C943 1.598 . S
C2679 C786 2.329 . S
C2675 C229 2.344 1_565 S
C2697 C827 0.662 . S
C2693 C271 0.633 . S
