# Generated by pormake.
# Topology ftw, (4,12)-cn, num edge types: 1
# Building blocks:
#     Node 0, Type 0, BuildingBlock: ESEHIV_clean_sbu_0, # of connection points: 4
#     Node 1, Type 0, BuildingBlock: ESEHIV_clean_sbu_0, # of connection points: 4
#     Node 2, Type 0, BuildingBlock: ESEHIV_clean_sbu_0, # of connection points: 4
#     Node 3, Type 1, BuildingBlock: EZIPEK_clean_sbu_0, # of connection points: 12
#     Edge 4, Type (0, 1), BuildingBlock: CIFDUS_clean_linker_0, # of connection points: 2
#     Edge 5, Type (0, 1), BuildingBlock: CIFDUS_clean_linker_0, # of connection points: 2
#     Edge 6, Type (0, 1), BuildingBlock: CIFDUS_clean_linker_0, # of connection points: 2
#     Edge 7, Type (0, 1), BuildingBlock: CIFDUS_clean_linker_0, # of connection points: 2
#     Edge 8, Type (0, 1), BuildingBlock: CIFDUS_clean_linker_0, # of connection points: 2
#     Edge 9, Type (0, 1), BuildingBlock: CIFDUS_clean_linker_0, # of connection points: 2
#     Edge 10, Type (0, 1), BuildingBlock: CIFDUS_clean_linker_0, # of connection points: 2
#     Edge 11, Type (0, 1), BuildingBlock: CIFDUS_clean_linker_0, # of connection points: 2
#     Edge 12, Type (0, 1), BuildingBlock: CIFDUS_clean_linker_0, # of connection points: 2
#     Edge 13, Type (0, 1), BuildingBlock: CIFDUS_clean_linker_0, # of connection points: 2
#     Edge 14, Type (0, 1), BuildingBlock: CIFDUS_clean_linker_0, # of connection points: 2
#     Edge 15, Type (0, 1), BuildingBlock: CIFDUS_clean_linker_0, # of connection points: 2
# Relax obj value: 0.025
# Max RMSD: 0.144
# Mean RMSD: 0.115
data_MOF--net-ftw--node1-ESEHIV_clean_sbu_0--node2-EZIPEK_clean_sbu_0--edge1-CIFDUS_clean_linker_0
_symmetry_space_group_name_H-M    P1
_symmetry_Int_Tables_number       1
_symmetry_cell_setting            triclinic
loop_
_symmetry_equiv_pos_as_xyz
'x, y, z'
_cell_length_a     22.165042
_cell_length_b     22.084105
_cell_length_c     21.736614
_cell_angle_alpha  86.791094
_cell_angle_beta   86.925091
_cell_angle_gamma 93.645993
loop_
_atom_site_label
_atom_site_type_symbol
_atom_site_fract_x
_atom_site_fract_y
_atom_site_fract_z
_atom_type_partial_charge
Cu0 Cu 1.00366 0.50533 0.51821 0.0
N1 N 0.95355 0.44714 0.48328 0.0
N2 N 0.93024 0.37029 0.42424 0.0
C3 C 0.97032 0.41696 0.43374 0.0
C4 C 0.88634 0.37131 0.46967 0.0
C5 C 0.90088 0.41885 0.50608 0.0
O6 O 0.05285 0.46024 0.57409 0.0
C7 C 1.01052 0.58391 0.41813 0.0
O8 O 0.95197 0.57367 0.43035 0.0
H9 H 1.01317 0.42666 0.40767 0.0
H10 H 0.87645 0.43001 0.54791 0.0
N11 N 0.96142 0.55953 0.56472 0.0
N12 N 0.94809 0.63476 0.62759 0.0
C13 C 0.98762 0.59741 0.60337 0.0
C14 C 0.90309 0.57315 0.56455 0.0
C15 C 0.8948 0.61992 0.60316 0.0
C16 C 1.02637 0.44303 0.62625 0.0
O17 O 0.97059 0.45724 0.63854 0.0
H18 H 0.03533 0.59877 0.612 0.0
H19 H 0.86942 0.55169 0.53719 0.0
O20 O 0.04664 0.55528 0.45096 0.0
H21 H 0.8475 0.33897 0.47716 0.0
H22 H 0.85302 0.64152 0.61231 0.0
Cu23 Cu 0.55328 0.05889 0.50819 0.0
N24 N 0.61154 0.10153 0.55146 0.0
N25 N 0.69119 0.11378 0.60955 0.0
C26 C 0.65312 0.07375 0.58378 0.0
C27 C 0.67284 0.16914 0.59287 0.0
C28 C 0.62343 0.16145 0.55726 0.0
O29 O 0.59942 1.0055 0.45852 0.0
C30 C 0.47059 0.05622 0.60451 0.0
O31 O 0.49021 0.11376 0.5984 0.0
H32 H 0.6558 0.02492 0.58753 0.0
H33 H 0.59776 0.19707 0.53791 0.0
N34 N 0.51068 0.10732 0.45415 0.0
N35 N 0.44468 0.12808 0.38274 0.0
C36 C 0.46202 0.08654 0.425 0.0
C37 C 0.5243 0.16427 0.42978 0.0
C38 C 0.48375 0.17712 0.38567 0.0
C39 C 0.63538 0.03545 0.41855 0.0
O40 O 0.63601 0.09501 0.41488 0.0
H41 H 0.44204 0.04048 0.43209 0.0
H42 H 0.56291 0.19328 0.44047 0.0
O43 O 0.49318 0.01934 0.5681 0.0
H44 H 0.69288 0.21197 0.60649 0.0
H45 H 0.48423 0.21859 0.3566 0.0
Cu46 Cu 0.5499 0.51276 0.99162 0.0
N47 N 0.50688 0.57 0.94854 0.0
N48 N 0.43964 0.64061 0.93836 0.0
C49 C 0.45663 0.59279 0.97292 0.0
C50 C 0.48091 0.64854 0.89015 0.0
C51 C 0.52238 0.60464 0.89646 0.0
O52 O 0.49046 0.45644 0.03826 0.0
C53 C 0.65049 0.58743 0.00322 0.0
O54 O 0.65408 0.57698 0.9443 0.0
H55 H 0.43496 0.57673 0.01718 0.0
H56 H 0.56242 0.60017 0.86681 0.0
N57 N 0.59542 0.46331 0.9425 0.0
N58 N 0.66388 0.39558 0.92374 0.0
C59 C 0.64469 0.43712 0.9621 0.0
C60 C 0.58281 0.43742 0.88962 0.0
C61 C 0.62503 0.39528 0.87802 0.0
C62 C 0.44864 0.43641 0.00511 0.0
O63 O 0.44916 0.4563 0.947 0.0
H64 H 0.66406 0.44596 0.00565 0.0
H65 H 0.54422 0.44644 0.86295 0.0
O66 O 0.6066 0.56159 0.03744 0.0
H67 H 0.4818 0.6843 0.85389 0.0
H68 H 0.62629 0.36584 0.83986 0.0
C69 C 0.0633 0.1598 0.85406 0.0
C70 C 1.01397 0.15843 0.15189 0.0
C71 C 0.05475 0.86504 0.87445 0.0
C72 C 0.04218 0.86706 0.17286 0.0
C73 C 0.2061 0.88955 0.0134 0.0
C74 C 0.18059 0.18018 0.01715 0.0
C75 C 0.91386 0.84529 0.01953 0.0
C76 C 0.89221 0.13747 0.98464 0.0
C77 C 0.8838 0.99702 0.15289 0.0
C78 C 0.1763 0.03669 0.16979 0.0
C79 C 0.91776 1.00409 0.85647 0.0
C80 C 0.20946 0.0319 0.87257 0.0
Eu81 Eu 0.03855 0.1267 0.00521 0.0
O82 O 0.08964 0.07388 0.06716 0.0
O83 O 0.99674 0.05821 0.9522 0.0
Eu84 Eu 0.16046 0.02978 0.0195 0.0
Eu85 Eu 0.9342 0.99607 0.00679 0.0
O86 O 0.10255 0.07415 0.95753 0.0
O87 O 0.98362 0.05848 0.06128 0.0
Eu88 Eu 0.06047 1.01297 0.89624 0.0
Eu89 Eu 1.03376 1.01297 0.13029 0.0
O90 O 0.11069 0.96754 0.9651 0.0
O91 O 0.09924 0.96683 0.07578 0.0
O92 O 0.99245 0.95163 0.06873 0.0
O93 O 1.0051 0.95175 0.95969 0.0
Eu94 Eu 0.05695 0.89893 0.02145 0.0
O95 O 0.05172 0.17754 0.91108 0.0
O96 O 1.02065 0.1767 0.09211 0.0
O97 O 0.05866 0.84729 0.93383 0.0
O98 O 0.05452 0.84876 0.11619 0.0
O99 O 0.21914 0.94918 0.01663 0.0
O100 O 0.20391 0.12586 0.02116 0.0
O101 O 0.89043 0.89951 0.01395 0.0
O102 O 0.87801 0.07758 0.99024 0.0
O103 O 0.93836 1.00125 0.17645 0.0
O104 O 0.11714 0.02833 0.18632 0.0
O105 O 0.9765 0.0166 0.84059 0.0
O106 O 0.15569 0.01657 0.85076 0.0
O107 O 0.97245 0.83576 0.02313 0.0
O108 O 0.15037 0.8623 0.01609 0.0
O109 O 0.94737 0.16412 0.98966 0.0
O110 O 0.12233 0.18969 0.01081 0.0
O111 O 1.01736 0.10147 0.17509 0.0
O112 O 1.03235 0.92382 0.18692 0.0
O113 O 0.06867 0.10245 0.83919 0.0
O114 O 0.05486 0.92249 0.85158 0.0
O115 O 0.21953 0.04237 0.93114 0.0
O116 O 0.20075 0.03672 0.11233 0.0
O117 O 0.89416 0.98983 0.91358 0.0
O118 O 0.87341 0.99516 0.09319 0.0
H119 H 0.98422 0.38736 0.31023 0.0
H120 H 0.893 0.2508 0.438 0.0
H121 H 0.91099 0.17275 0.36495 0.0
H122 H 0.95527 0.1428 0.26568 0.0
H123 H 0.04444 0.2802 0.13698 0.0
H124 H 1.02516 0.35817 0.20955 0.0
C125 C 0.9684 0.34049 0.32205 0.0
C126 C 0.93752 0.32495 0.37958 0.0
C127 C 0.97888 0.29589 0.27977 0.0
C128 C 0.91635 0.26414 0.39385 0.0
C129 C 0.92705 0.21939 0.35226 0.0
C130 C 0.97069 0.18978 0.25362 0.0
C131 C 1.00165 0.20551 0.19611 0.0
C132 C 0.95872 0.23464 0.29528 0.0
C133 C 1.02042 0.26678 0.18083 0.0
C134 C 1.0095 0.31144 0.22236 0.0
H135 H 0.64123 0.04994 0.29624 0.0
H136 H 0.7251 0.96111 0.44748 0.0
H137 H 0.81086 0.9388 0.37759 0.0
H138 H 0.8666 0.95553 0.2747 0.0
H139 H 0.77854 0.044 0.12501 0.0
H140 H 0.68997 0.05549 0.19283 0.0
C141 C 0.67752 0.02405 0.31335 0.0
C142 C 0.67708 1.00662 0.37629 0.0
C143 C 0.72644 1.01245 0.27335 0.0
C144 C 0.72431 0.97383 0.39868 0.0
C145 C 0.77361 0.96195 0.35892 0.0
C146 C 0.82778 0.97688 0.25708 0.0
C147 C 0.82945 0.99929 0.19501 0.0
C148 C 0.77607 0.98286 0.29644 0.0
C149 C 0.77852 0.02616 0.17248 0.0
C150 C 0.72773 0.03291 0.21123 0.0
H151 H 0.96341 0.6914 0.40457 0.0
H152 H 0.1037 0.58663 0.3286 0.0
H153 H 0.12682 0.66562 0.24456 0.0
H154 H 0.10199 0.76263 0.18993 0.0
H155 H 0.96401 0.86714 0.27223 0.0
H156 H 0.94498 0.79009 0.35654 0.0
C157 C 0.99944 0.68611 0.36984 0.0
C158 C 1.03152 0.63337 0.37211 0.0
C159 C 1.01247 0.7315 0.32265 0.0
C160 C 0.07864 0.62717 0.32763 0.0
C161 C 0.09145 0.67207 0.27949 0.0
C162 C 0.06799 0.76838 0.22652 0.0
C163 C 0.03424 0.82039 0.22466 0.0
C164 C 0.05786 0.72407 0.27596 0.0
C165 C 0.99082 0.82777 0.2727 0.0
C166 C 0.97972 0.78364 0.3209 0.0
H167 H 0.33745 0.06258 0.4004 0.0
H168 H 0.45094 0.17235 0.26421 0.0
H169 H 0.37752 0.15361 0.18658 0.0
H170 H 0.28256 0.10438 0.15659 0.0
H171 H 0.16564 0.99768 0.29235 0.0
H172 H 0.2388 0.01668 0.37102 0.0
C173 C 0.34592 0.08227 0.35369 0.0
C174 C 0.39963 0.11877 0.33809 0.0
C175 C 0.30306 0.07168 0.30926 0.0
C176 C 0.40976 0.1447 0.27759 0.0
C177 C 0.36796 0.13368 0.23307 0.0
C178 C 0.27308 0.08503 0.20335 0.0
C179 C 0.21907 0.04903 0.21844 0.0
C180 C 0.31471 0.09696 0.24828 0.0
C181 C 0.20694 0.02544 0.27955 0.0
C182 C 0.24882 0.0362 0.32446 0.0
H183 H 1.02415 0.63211 0.71986 0.0
H184 H 0.90195 0.74496 0.62631 0.0
H185 H 0.92701 0.82784 0.69266 0.0
H186 H 0.98341 0.86796 0.77751 0.0
H187 H 0.10065 0.75309 0.87595 0.0
H188 H 0.0785 0.67134 0.80713 0.0
C189 C 1.00332 0.675 0.71398 0.0
C190 C 0.96146 0.68262 0.66817 0.0
C191 C 1.01738 0.72206 0.75288 0.0
C192 C 0.93389 0.73796 0.66158 0.0
C193 C 0.94851 0.78541 0.69923 0.0
C194 C 1.00472 0.82527 0.78334 0.0
C195 C 0.04439 0.81679 0.83101 0.0
C196 C 0.99029 0.77801 0.7449 0.0
C197 C 0.07032 0.76073 0.83925 0.0
C198 C 0.05756 0.71402 0.80003 0.0
H199 H 0.44853 0.10832 0.71095 0.0
H200 H 0.38263 0.96262 0.60331 0.0
H201 H 0.29455 0.94194 0.67683 0.0
H202 H 0.23397 0.96961 0.76965 0.0
H203 H 0.30479 0.11352 0.87738 0.0
H204 H 0.39312 0.1309 0.80562 0.0
C205 C 0.41509 0.07172 0.70375 0.0
C206 C 0.42162 0.03735 0.6517 0.0
C207 C 0.36521 0.06024 0.74595 0.0
C208 C 0.37855 0.98952 0.64331 0.0
C209 C 0.32805 0.97806 0.68505 0.0
C210 C 0.26881 1.00475 0.77713 0.0
C211 C 0.26269 0.04057 0.82842 0.0
C212 C 0.32041 1.01386 0.73607 0.0
C213 C 0.30852 0.08529 0.83832 0.0
C214 C 0.35903 0.09534 0.7973 0.0
H215 H 0.05835 0.32871 0.6102 0.0
H216 H 0.04805 0.46496 0.74383 0.0
H217 H 0.06462 0.3894 0.82681 0.0
H218 H 0.0684 0.28278 0.86247 0.0
H219 H 0.0712 0.1445 0.72956 0.0
H220 H 0.0713 0.22232 0.64549 0.0
C221 C 0.06202 0.34196 0.65725 0.0
C222 C 0.05323 0.40218 0.67116 0.0
C223 C 0.06864 0.2976 0.70503 0.0
C224 C 0.05585 0.41887 0.73233 0.0
C225 C 0.06457 0.37558 0.77974 0.0
C226 C 0.06951 0.26948 0.81516 0.0
C227 C 0.06894 0.20758 0.80275 0.0
C228 C 0.06872 0.31441 0.76691 0.0
C229 C 0.07121 0.19165 0.74086 0.0
C230 C 0.07127 0.23619 0.69254 0.0
H231 H 0.69455 0.01729 0.69003 0.0
H232 H 0.79784 0.17925 0.61561 0.0
H233 H 0.88052 0.1563 0.68174 0.0
H234 H 0.92154 0.09201 0.764 0.0
H235 H 0.81465 0.93393 0.84298 0.0
H236 H 0.73576 0.95259 0.77103 0.0
C237 C 0.73546 0.04713 0.68782 0.0
C238 C 0.74016 0.09982 0.64792 0.0
C239 C 0.78224 0.03407 0.72661 0.0
C240 C 0.79297 0.13875 0.64637 0.0
C241 C 0.84033 0.12544 0.68391 0.0
C242 C 0.88144 0.06109 0.76452 0.0
C243 C 0.87407 1.01125 0.80808 0.0
C244 C 0.8353 0.07342 0.72453 0.0
C245 C 0.82131 0.97237 0.80954 0.0
C246 C 0.77616 0.98317 0.76862 0.0
H247 H 0.33328 0.4303 0.97552 0.0
H248 H 0.45968 0.33501 0.08214 0.0
H249 H 0.38647 0.24619 0.09734 0.0
H250 H 0.28991 0.1927 0.07055 0.0
H251 H 0.16509 0.2916 0.9641 0.0
H252 H 0.23442 0.38179 0.95829 0.0
C253 C 0.34433 0.39044 0.00313 0.0
C254 C 0.40161 0.38884 0.0275 0.0
C255 C 0.30267 0.33988 0.01071 0.0
C256 C 0.41549 0.33733 0.06347 0.0
C257 C 0.37394 0.28638 0.07143 0.0
C258 C 0.27793 0.2341 0.04635 0.0
C259 C 0.22259 0.23511 0.01725 0.0
C260 C 0.31802 0.28653 0.04361 0.0
C261 C 0.20726 0.28941 0.9869 0.0
C262 C 0.24692 0.34112 0.98345 0.0
H263 H 0.44144 0.76268 0.92581 0.0
H264 H 0.32894 0.60239 0.98769 0.0
H265 H 0.24674 0.66527 0.01862 0.0
H266 H 0.20677 0.7659 0.02742 0.0
H267 H 0.32096 0.92676 0.96883 0.0
H268 H 0.40257 0.86385 0.93804 0.0
C269 C 0.39866 0.74174 0.94552 0.0
C270 C 0.39087 0.67809 0.95395 0.0
C271 C 0.35215 0.7783 0.96441 0.0
C272 C 0.33577 0.65134 0.98079 0.0
C273 C 0.28889 0.68726 0.99849 0.0
C274 C 0.2496 0.7873 0.00829 0.0
C275 C 0.25748 0.85112 1.00069 0.0
C276 C 0.29659 0.75082 0.99065 0.0
C277 C 0.31357 0.87786 0.97597 0.0
C278 C 0.36027 0.84187 0.95781 0.0
H279 H 0.66476 0.27621 0.90375 0.0
H280 H 0.77148 0.42722 0.96816 0.0
H281 H 0.85208 0.36065 0.99258 0.0
H282 H 0.89111 0.25931 0.99787 0.0
H283 H 0.78315 0.10669 0.9371 0.0
H284 H 0.70412 0.1738 0.90941 0.0
C285 C 0.70604 0.29444 0.92239 0.0
C286 C 0.71246 0.35651 0.93389 0.0
C287 C 0.75164 0.25551 0.93758 0.0
C288 C 0.76562 0.37953 0.95916 0.0
C289 C 0.81161 0.34151 0.97312 0.0
C290 C 0.85037 0.24058 0.97851 0.0
C291 C 0.84321 0.17788 0.96981 0.0
C292 C 0.8049 0.27933 0.96303 0.0
C293 C 0.78978 0.1546 0.94497 0.0
C294 C 0.74461 0.19304 0.92875 0.0
H295 H 0.7681 0.6018 0.96801 0.0
H296 H 0.63182 0.67529 0.08559 0.0
H297 H 0.70207 0.76284 0.10229 0.0
H298 H 0.79998 0.82272 0.07485 0.0
H299 H 0.93563 0.74484 0.95941 0.0
H300 H 0.8678 0.65502 0.94986 0.0
C301 C 0.75419 0.63647 0.99828 0.0
C302 C 0.69506 0.63245 0.02542 0.0
C303 C 0.79442 0.68633 0.00706 0.0
C304 C 0.67745 0.67728 0.06475 0.0
C305 C 0.71736 0.7276 0.07361 0.0
C306 C 0.81449 0.78582 0.04794 0.0
C307 C 0.87244 0.79046 0.01744 0.0
C308 C 0.77547 0.73343 0.04357 0.0
C309 C 0.8913 0.74215 0.98341 0.0
C310 C 0.85255 0.69082 0.97786 0.0
loop_
_geom_bond_atom_site_label_1
_geom_bond_atom_site_label_2
_geom_bond_distance
_geom_bond_site_symmetry_2
_ccdc_geom_bond_type
Cu0 N1 1.999 . S
Cu0 O6 1.974 . S
Cu0 N11 1.985 . S
Cu0 O20 1.959 . S
N1 Cu0 1.999 . S
N1 C3 1.263 . S
N1 C5 1.389 . S
N2 C3 1.358 . S
N2 C4 1.400 . S
C3 N1 1.263 . S
C3 N2 1.358 . S
C3 H9 0.930 1_455 S
C4 N2 1.400 . S
C4 C5 1.351 . S
C4 H21 0.930 . S
C5 N1 1.389 . S
C5 C4 1.351 . S
C5 H10 0.930 . S
O6 Cu0 1.974 . S
O6 C16 1.282 1_455 S
C7 O8 1.261 . S
C7 O20 1.251 1_655 S
O8 C7 1.261 . S
H9 C3 0.930 1_655 S
H10 C5 0.930 . S
N11 Cu0 1.985 . S
N11 C13 1.335 . S
N11 C14 1.390 1_455 S
N12 C13 1.345 . S
N12 C15 1.336 1_455 S
C13 N11 1.335 . S
C13 N12 1.345 . S
C13 H18 0.930 . S
C14 N11 1.390 1_655 S
C14 C15 1.346 . S
C14 H19 0.930 . S
C15 N12 1.336 1_655 S
C15 C14 1.346 . S
C15 H22 0.929 . S
C16 O6 1.282 1_655 S
C16 O17 1.216 . S
O17 C16 1.216 . S
H18 C13 0.930 . S
H19 C14 0.930 . S
O20 Cu0 1.959 . S
O20 C7 1.251 1_455 S
H21 C4 0.930 . S
H22 C15 0.929 . S
Cu23 N24 1.999 . S
Cu23 O29 1.974 . S
Cu23 N34 1.985 . S
Cu23 O43 1.959 . S
N24 Cu23 1.999 . S
N24 C26 1.266 . S
N24 C28 1.389 . S
N25 C26 1.360 . S
N25 C27 1.400 . S
C26 N24 1.266 . S
C26 N25 1.360 . S
C26 H32 0.925 1_565 S
C27 N25 1.400 . S
C27 C28 1.351 . S
C27 H44 0.930 . S
C28 N24 1.389 . S
C28 C27 1.351 . S
C28 H33 0.930 . S
O29 Cu23 1.974 . S
O29 C39 1.282 1_565 S
C30 O31 1.261 . S
C30 O43 1.251 1_545 S
O31 C30 1.261 . S
H32 C26 0.925 1_545 S
H33 C28 0.930 . S
N34 Cu23 1.985 . S
N34 C36 1.335 . S
N34 C37 1.390 1_565 S
N35 C36 1.348 . S
N35 C38 1.332 1_565 S
C36 N34 1.335 . S
C36 N35 1.348 . S
C36 H41 0.930 . S
C37 N34 1.390 1_545 S
C37 C38 1.346 . S
C37 H42 0.930 . S
C38 N35 1.332 1_545 S
C38 C37 1.346 . S
C38 H45 0.929 . S
C39 O29 1.282 1_545 S
C39 O40 1.216 . S
O40 C39 1.216 . S
H41 C36 0.930 . S
H42 C37 0.930 . S
O43 Cu23 1.959 . S
O43 C30 1.251 1_565 S
H44 C27 0.930 . S
H45 C38 0.929 . S
Cu46 N47 1.999 . S
Cu46 O52 1.974 . S
Cu46 N57 1.985 . S
Cu46 O66 1.959 . S
N47 Cu46 1.999 . S
N47 C49 1.263 . S
N47 C51 1.389 . S
N48 C49 1.358 . S
N48 C50 1.400 . S
C49 N47 1.263 . S
C49 N48 1.358 . S
C49 H55 0.930 1_556 S
C50 N48 1.400 . S
C50 C51 1.351 . S
C50 H67 0.930 . S
C51 N47 1.389 . S
C51 C50 1.351 . S
C51 H56 0.930 . S
O52 Cu46 1.974 . S
O52 C62 1.282 1_556 S
C53 O54 1.261 . S
C53 O66 1.251 1_554 S
O54 C53 1.261 . S
H55 C49 0.930 1_554 S
H56 C51 0.930 . S
N57 Cu46 1.985 . S
N57 C59 1.335 . S
N57 C60 1.390 1_556 S
N58 C59 1.345 . S
N58 C61 1.336 1_556 S
C59 N57 1.335 . S
C59 N58 1.345 . S
C59 H64 0.930 . S
C60 N57 1.390 1_554 S
C60 C61 1.346 . S
C60 H65 0.930 . S
C61 N58 1.336 1_554 S
C61 C60 1.346 . S
C61 H68 0.929 . S
C62 O52 1.282 1_554 S
C62 O63 1.216 . S
O63 C62 1.216 . S
H64 C59 0.930 . S
H65 C60 0.930 . S
O66 Cu46 1.959 . S
O66 C53 1.251 1_556 S
H67 C50 0.930 . S
H68 C61 0.929 . S
C69 O95 1.283 . S
C69 O113 1.283 . S
C70 O96 1.283 . S
C70 O111 1.283 1_455 S
C71 O97 1.283 . S
C71 O114 1.283 . S
C72 O98 1.283 . S
C72 O112 1.283 . S
C73 O99 1.283 1_554 S
C73 O108 1.283 . S
C74 O100 1.283 . S
C74 O110 1.283 . S
C75 O101 1.283 . S
C75 O107 1.283 . S
C76 O102 1.283 . S
C76 O109 1.283 1_554 S
C77 O103 1.283 . S
C77 O118 1.283 . S
C78 O104 1.283 . S
C78 O116 1.283 . S
C79 O105 1.283 . S
C79 O117 1.283 . S
C80 O106 1.283 . S
C80 O115 1.283 . S
Eu81 O82 2.370 1_556 S
Eu81 O83 2.370 1_455 S
Eu81 O86 2.370 . S
Eu81 O87 2.370 1_456 S
Eu81 O95 2.363 . S
Eu81 O96 2.363 1_556 S
Eu81 O109 2.363 1_455 S
Eu81 O110 2.363 . S
O82 Eu81 2.370 1_554 S
O82 Eu84 2.370 1_554 S
O82 Eu89 2.370 1_455 S
O83 Eu81 2.370 1_655 S
O83 Eu85 2.370 1_556 S
O83 Eu88 2.370 1_655 S
Eu84 O82 2.370 1_556 S
Eu84 O86 2.370 . S
Eu84 O90 2.370 1_545 S
Eu84 O91 2.370 1_546 S
Eu84 O99 2.363 1_545 S
Eu84 O100 2.363 . S
Eu84 O115 2.363 . S
Eu84 O116 2.363 1_556 S
Eu85 O83 2.370 1_554 S
Eu85 O87 2.370 . S
Eu85 O92 2.370 1_545 S
Eu85 O93 2.370 1_544 S
Eu85 O101 2.363 1_545 S
Eu85 O102 2.363 . S
Eu85 O117 2.363 1_554 S
Eu85 O118 2.363 . S
O86 Eu81 2.370 . S
O86 Eu84 2.370 . S
O86 Eu88 2.370 . S
O87 Eu81 2.370 1_654 S
O87 Eu85 2.370 . S
O87 Eu89 2.370 . S
Eu88 O83 2.370 1_455 S
Eu88 O86 2.370 . S
Eu88 O90 2.370 1_545 S
Eu88 O93 2.370 1_445 S
Eu88 O105 2.363 1_455 S
Eu88 O106 2.363 . S
Eu88 O113 2.363 . S
Eu88 O114 2.363 1_545 S
Eu89 O82 2.370 1_655 S
Eu89 O87 2.370 . S
Eu89 O91 2.370 1_645 S
Eu89 O92 2.370 1_545 S
Eu89 O103 2.363 . S
Eu89 O104 2.363 1_655 S
Eu89 O111 2.363 . S
Eu89 O112 2.363 1_545 S
O90 Eu84 2.370 1_565 S
O90 Eu88 2.370 1_565 S
O90 Eu94 2.370 1_456 S
O91 Eu84 2.370 1_564 S
O91 Eu89 2.370 1_465 S
O91 Eu94 2.370 1_455 S
O92 Eu85 2.370 1_565 S
O92 Eu89 2.370 1_565 S
O92 Eu94 2.370 . S
O93 Eu85 2.370 1_566 S
O93 Eu88 2.370 1_665 S
O93 Eu94 2.370 1_556 S
Eu94 O90 2.370 1_654 S
Eu94 O91 2.370 1_655 S
Eu94 O92 2.370 . S
Eu94 O93 2.370 1_554 S
Eu94 O97 2.363 1_654 S
Eu94 O98 2.363 . S
Eu94 O107 2.363 . S
Eu94 O108 2.363 1_655 S
O95 C69 1.283 . S
O95 Eu81 2.363 . S
O96 C70 1.283 . S
O96 Eu81 2.363 1_554 S
O97 C71 1.283 . S
O97 Eu94 2.363 1_456 S
O98 C72 1.283 . S
O98 Eu94 2.363 . S
O99 C73 1.283 1_556 S
O99 Eu84 2.363 1_565 S
O100 C74 1.283 . S
O100 Eu84 2.363 . S
O101 C75 1.283 . S
O101 Eu85 2.363 1_565 S
O102 C76 1.283 . S
O102 Eu85 2.363 . S
O103 C77 1.283 . S
O103 Eu89 2.363 . S
O104 C78 1.283 . S
O104 Eu89 2.363 1_455 S
O105 C79 1.283 . S
O105 Eu88 2.363 1_655 S
O106 C80 1.283 . S
O106 Eu88 2.363 . S
O107 C75 1.283 . S
O107 Eu94 2.363 . S
O108 C73 1.283 . S
O108 Eu94 2.363 1_455 S
O109 C76 1.283 1_556 S
O109 Eu81 2.363 1_655 S
O110 C74 1.283 . S
O110 Eu81 2.363 . S
O111 C70 1.283 1_655 S
O111 Eu89 2.363 . S
O112 C72 1.283 . S
O112 Eu89 2.363 1_565 S
O113 C69 1.283 . S
O113 Eu88 2.363 . S
O114 C71 1.283 . S
O114 Eu88 2.363 1_565 S
O115 C80 1.283 . S
O115 Eu84 2.363 . S
O116 C78 1.283 . S
O116 Eu84 2.363 1_554 S
O117 C79 1.283 . S
O117 Eu85 2.363 1_556 S
O118 C77 1.283 . S
O118 Eu85 2.363 . S
H119 C125 0.930 . S
H120 C128 0.930 . S
H121 C129 0.930 . S
H122 C130 0.930 . S
H123 C133 0.930 . S
H124 C134 0.930 . S
C125 H119 0.930 . S
C125 C126 1.355 . S
C125 C127 1.415 . S
C126 C125 1.355 . S
C126 C128 1.419 1_455 S
C127 C125 1.415 . S
C127 C132 1.425 1_455 S
C127 C134 1.409 . S
C128 H120 0.930 . S
C128 C126 1.419 1_655 S
C128 C129 1.362 . S
C129 H121 0.930 . S
C129 C128 1.362 . S
C129 C132 1.409 . S
C130 H122 0.930 . S
C130 C131 1.355 1_655 S
C130 C132 1.415 . S
C131 C130 1.355 1_455 S
C131 C133 1.419 . S
C132 C127 1.425 1_655 S
C132 C129 1.409 . S
C132 C130 1.415 . S
C133 H123 0.930 . S
C133 C131 1.419 . S
C133 C134 1.362 . S
C134 H124 0.930 . S
C134 C127 1.409 . S
C134 C133 1.362 . S
H135 C141 0.930 . S
H136 C144 0.930 . S
H137 C145 0.930 . S
H138 C146 0.930 . S
H139 C149 0.930 . S
H140 C150 0.930 . S
C141 H135 0.930 . S
C141 C142 1.355 1_565 S
C141 C143 1.415 . S
C142 C141 1.355 1_545 S
C142 C144 1.419 . S
C143 C141 1.415 . S
C143 C148 1.425 1_565 S
C143 C150 1.409 . S
C144 H136 0.930 . S
C144 C142 1.419 . S
C144 C145 1.362 . S
C145 H137 0.930 . S
C145 C144 1.362 . S
C145 C148 1.409 . S
C146 H138 0.930 . S
C146 C147 1.352 1_545 S
C146 C148 1.415 . S
C147 C146 1.352 1_565 S
C147 C149 1.421 . S
C148 C143 1.425 1_545 S
C148 C145 1.409 . S
C148 C146 1.415 . S
C149 H139 0.930 . S
C149 C147 1.421 . S
C149 C150 1.362 . S
C150 H140 0.930 . S
C150 C143 1.409 . S
C150 C149 1.362 . S
H151 C157 0.930 . S
H152 C160 0.930 . S
H153 C161 0.930 . S
H154 C162 0.930 . S
H155 C165 0.930 . S
H156 C166 0.930 . S
C157 H151 0.930 . S
C157 C158 1.355 1_455 S
C157 C159 1.415 . S
C158 C157 1.355 1_655 S
C158 C160 1.419 . S
C159 C157 1.415 . S
C159 C164 1.425 1_455 S
C159 C166 1.409 . S
C160 H152 0.930 . S
C160 C158 1.419 . S
C160 C161 1.362 . S
C161 H153 0.930 . S
C161 C160 1.362 . S
C161 C164 1.409 . S
C162 H154 0.930 . S
C162 C163 1.355 . S
C162 C164 1.415 . S
C163 C162 1.355 . S
C163 C165 1.419 1_655 S
C164 C159 1.425 1_655 S
C164 C161 1.409 . S
C164 C162 1.415 . S
C165 H155 0.930 . S
C165 C163 1.419 1_455 S
C165 C166 1.362 . S
C166 H156 0.930 . S
C166 C159 1.409 . S
C166 C165 1.362 . S
H167 C173 0.930 . S
H168 C176 0.930 . S
H169 C177 0.930 . S
H170 C178 0.930 . S
H171 C181 0.930 . S
H172 C182 0.930 . S
C173 H167 0.930 . S
C173 C174 1.355 . S
C173 C175 1.415 . S
C174 C173 1.355 . S
C174 C176 1.419 1_565 S
C175 C173 1.415 . S
C175 C180 1.425 1_565 S
C175 C182 1.409 . S
C176 H168 0.930 . S
C176 C174 1.419 1_545 S
C176 C177 1.362 . S
C177 H169 0.930 . S
C177 C176 1.362 . S
C177 C180 1.409 . S
C178 H170 0.930 . S
C178 C179 1.355 . S
C178 C180 1.415 . S
C179 C178 1.355 . S
C179 C181 1.419 . S
C180 C175 1.425 1_545 S
C180 C177 1.409 . S
C180 C178 1.415 . S
C181 H171 0.930 . S
C181 C179 1.419 . S
C181 C182 1.362 1_545 S
C182 H172 0.930 . S
C182 C175 1.409 . S
C182 C181 1.362 1_565 S
H183 C189 0.930 . S
H184 C192 0.930 . S
H185 C193 0.930 . S
H186 C194 0.930 . S
H187 C197 0.930 . S
H188 C198 0.930 . S
C189 H183 0.930 . S
C189 C190 1.355 . S
C189 C191 1.415 . S
C190 C189 1.355 . S
C190 C192 1.419 1_455 S
C191 C189 1.415 . S
C191 C196 1.425 1_455 S
C191 C198 1.409 . S
C192 H184 0.930 . S
C192 C190 1.419 1_655 S
C192 C193 1.362 . S
C193 H185 0.930 . S
C193 C192 1.362 . S
C193 C196 1.409 . S
C194 H186 0.930 . S
C194 C195 1.355 1_655 S
C194 C196 1.415 . S
C195 C194 1.355 1_455 S
C195 C197 1.419 . S
C196 C191 1.425 1_655 S
C196 C193 1.409 . S
C196 C194 1.415 . S
C197 H187 0.930 . S
C197 C195 1.419 . S
C197 C198 1.362 . S
C198 H188 0.930 . S
C198 C191 1.409 . S
C198 C197 1.362 . S
H199 C205 0.930 . S
H200 C208 0.930 . S
H201 C209 0.930 1_565 S
H202 C210 0.930 . S
H203 C213 0.930 . S
H204 C214 0.930 . S
C205 H199 0.930 . S
C205 C206 1.355 . S
C205 C207 1.415 . S
C206 C205 1.355 . S
C206 C208 1.419 . S
C207 C205 1.415 . S
C207 C212 1.425 . S
C207 C214 1.409 . S
C208 H200 0.930 . S
C208 C206 1.419 . S
C208 C209 1.362 . S
C209 H201 0.930 1_545 S
C209 C208 1.362 . S
C209 C212 1.409 . S
C210 H202 0.930 . S
C210 C211 1.355 . S
C210 C212 1.415 . S
C211 C210 1.355 . S
C211 C213 1.419 . S
C212 C207 1.425 . S
C212 C209 1.409 . S
C212 C210 1.415 . S
C213 H203 0.930 . S
C213 C211 1.419 . S
C213 C214 1.362 . S
C214 H204 0.930 . S
C214 C207 1.409 . S
C214 C213 1.362 . S
H215 C221 0.930 . S
H216 C224 0.930 . S
H217 C225 0.930 . S
H218 C226 0.930 . S
H219 C229 0.930 . S
H220 C230 0.930 . S
C221 H215 0.930 . S
C221 C222 1.355 1_455 S
C221 C223 1.415 . S
C222 C221 1.355 1_655 S
C222 C224 1.419 . S
C223 C221 1.415 . S
C223 C228 1.425 1_455 S
C223 C230 1.409 . S
C224 H216 0.930 . S
C224 C222 1.419 . S
C224 C225 1.362 . S
C225 H217 0.930 . S
C225 C224 1.362 . S
C225 C228 1.409 . S
C226 H218 0.930 . S
C226 C227 1.355 1_655 S
C226 C228 1.415 . S
C227 C226 1.355 1_455 S
C227 C229 1.419 . S
C228 C223 1.425 1_655 S
C228 C225 1.409 . S
C228 C226 1.415 . S
C229 H219 0.930 . S
C229 C227 1.419 . S
C229 C230 1.362 . S
C230 H220 0.930 . S
C230 C223 1.409 . S
C230 C229 1.362 . S
H231 C237 0.930 . S
H232 C240 0.930 . S
H233 C241 0.930 . S
H234 C242 0.930 . S
H235 C245 0.930 . S
H236 C246 0.930 . S
C237 H231 0.930 . S
C237 C238 1.355 1_565 S
C237 C239 1.415 . S
C238 C237 1.355 1_545 S
C238 C240 1.419 . S
C239 C237 1.415 . S
C239 C244 1.425 1_565 S
C239 C246 1.409 . S
C240 H232 0.930 . S
C240 C238 1.419 . S
C240 C241 1.362 . S
C241 H233 0.930 . S
C241 C240 1.362 . S
C241 C244 1.409 . S
C242 H234 0.930 . S
C242 C243 1.355 . S
C242 C244 1.415 . S
C243 C242 1.355 . S
C243 C245 1.419 1_545 S
C244 C239 1.425 1_545 S
C244 C241 1.409 . S
C244 C242 1.415 . S
C245 H235 0.930 . S
C245 C243 1.419 1_565 S
C245 C246 1.362 . S
C246 H236 0.930 . S
C246 C239 1.409 . S
C246 C245 1.362 . S
H247 C253 0.930 . S
H248 C256 0.930 . S
H249 C257 0.930 . S
H250 C258 0.930 . S
H251 C261 0.930 . S
H252 C262 0.930 . S
C253 H247 0.930 . S
C253 C254 1.355 1_556 S
C253 C255 1.415 . S
C254 C253 1.355 1_554 S
C254 C256 1.419 . S
C255 C253 1.415 . S
C255 C260 1.425 1_556 S
C255 C262 1.409 . S
C256 H248 0.930 . S
C256 C254 1.419 . S
C256 C257 1.362 . S
C257 H249 0.930 . S
C257 C256 1.362 . S
C257 C260 1.409 . S
C258 H250 0.930 . S
C258 C259 1.355 1_554 S
C258 C260 1.415 . S
C259 C258 1.355 1_556 S
C259 C261 1.419 . S
C260 C255 1.425 1_554 S
C260 C257 1.409 . S
C260 C258 1.415 . S
C261 H251 0.930 . S
C261 C259 1.419 . S
C261 C262 1.362 . S
C262 H252 0.930 . S
C262 C255 1.409 . S
C262 C261 1.362 . S
H263 C269 0.930 . S
H264 C272 0.930 . S
H265 C273 0.930 . S
H266 C274 0.930 . S
H267 C277 0.930 . S
H268 C278 0.930 . S
C269 H263 0.930 . S
C269 C270 1.355 . S
C269 C271 1.415 . S
C270 C269 1.355 . S
C270 C272 1.419 1_556 S
C271 C269 1.415 . S
C271 C276 1.425 1_556 S
C271 C278 1.409 . S
C272 H264 0.930 . S
C272 C270 1.419 1_554 S
C272 C273 1.362 . S
C273 H265 0.930 . S
C273 C272 1.362 . S
C273 C276 1.409 . S
C274 H266 0.930 . S
C274 C275 1.355 1_554 S
C274 C276 1.415 . S
C275 C274 1.355 1_556 S
C275 C277 1.419 . S
C276 C271 1.425 1_554 S
C276 C273 1.409 . S
C276 C274 1.415 . S
C277 H267 0.930 . S
C277 C275 1.419 . S
C277 C278 1.362 . S
C278 H268 0.930 . S
C278 C271 1.409 . S
C278 C277 1.362 . S
H279 C285 0.930 . S
H280 C288 0.930 . S
H281 C289 0.930 . S
H282 C290 0.930 . S
H283 C293 0.930 . S
H284 C294 0.930 . S
C285 H279 0.930 . S
C285 C286 1.355 1_554 S
C285 C287 1.415 . S
C286 C285 1.355 1_556 S
C286 C288 1.419 . S
C287 C285 1.415 . S
C287 C292 1.425 1_554 S
C287 C294 1.409 . S
C288 H280 0.930 . S
C288 C286 1.419 . S
C288 C289 1.362 . S
C289 H281 0.930 . S
C289 C288 1.362 . S
C289 C292 1.409 . S
C290 H282 0.930 . S
C290 C291 1.355 1_556 S
C290 C292 1.415 . S
C291 C290 1.355 1_554 S
C291 C293 1.419 . S
C292 C287 1.425 1_556 S
C292 C289 1.409 . S
C292 C290 1.415 . S
C293 H283 0.930 . S
C293 C291 1.419 . S
C293 C294 1.362 . S
C294 H284 0.930 . S
C294 C287 1.409 . S
C294 C293 1.362 . S
H295 C301 0.930 . S
H296 C304 0.930 . S
H297 C305 0.930 . S
H298 C306 0.930 . S
H299 C309 0.930 . S
H300 C310 0.930 . S
C301 H295 0.930 . S
C301 C302 1.355 1_556 S
C301 C303 1.414 1_556 S
C302 C301 1.355 1_554 S
C302 C304 1.419 . S
C303 C301 1.414 1_554 S
C303 C308 1.426 . S
C303 C310 1.408 1_554 S
C304 H296 0.930 . S
C304 C302 1.419 . S
C304 C305 1.362 . S
C305 H297 0.930 . S
C305 C304 1.362 . S
C305 C308 1.409 . S
C306 H298 0.930 . S
C306 C307 1.355 . S
C306 C308 1.415 . S
C307 C306 1.355 . S
C307 C309 1.419 1_554 S
C308 C303 1.426 . S
C308 C305 1.409 . S
C308 C306 1.415 . S
C309 H299 0.930 . S
C309 C307 1.419 1_556 S
C309 C310 1.362 . S
C310 H300 0.930 . S
C310 C303 1.408 1_556 S
C310 C309 1.362 . S
C131 C70 1.258 . S
C126 N2 1.243 . S
C147 C77 1.624 1_565 S
C142 C39 1.616 . S
C163 C72 1.484 . S
C158 C7 1.473 . S
C179 C78 1.383 . S
C174 N35 1.292 . S
C190 N12 1.148 . S
C195 C71 1.234 . S
C211 C80 1.644 . S
C206 C30 1.647 . S
C222 C16 1.435 . S
C227 C69 1.467 . S
C238 N25 1.378 1_545 S
C243 C79 1.405 . S
C254 C62 1.760 . S
C259 C74 1.787 . S
C270 N48 1.539 . S
C275 C73 1.562 1_556 S
C291 C76 1.545 . S
C286 N58 1.508 . S
C307 C75 1.807 . S
C302 C53 1.808 . S
