# Generated by pormake.
# Topology gar, (4,6)-cn, num edge types: 1
# Building blocks:
#     Node 0, Type 0, BuildingBlock: KUFVIS_clean_sbu_0, # of connection points: 4
#     Node 1, Type 0, BuildingBlock: KUFVIS_clean_sbu_0, # of connection points: 4
#     Node 2, Type 0, BuildingBlock: KUFVIS_clean_sbu_0, # of connection points: 4
#     Node 3, Type 0, BuildingBlock: KUFVIS_clean_sbu_0, # of connection points: 4
#     Node 4, Type 0, BuildingBlock: KUFVIS_clean_sbu_0, # of connection points: 4
#     Node 5, Type 0, BuildingBlock: KUFVIS_clean_sbu_0, # of connection points: 4
#     Node 6, Type 0, BuildingBlock: KUFVIS_clean_sbu_0, # of connection points: 4
#     Node 7, Type 0, BuildingBlock: KUFVIS_clean_sbu_0, # of connection points: 4
#     Node 8, Type 0, BuildingBlock: KUFVIS_clean_sbu_0, # of connection points: 4
#     Node 9, Type 0, BuildingBlock: KUFVIS_clean_sbu_0, # of connection points: 4
#     Node 10, Type 0, BuildingBlock: KUFVIS_clean_sbu_0, # of connection points: 4
#     Node 11, Type 0, BuildingBlock: KUFVIS_clean_sbu_0, # of connection points: 4
#     Node 12, Type 0, BuildingBlock: KUFVIS_clean_sbu_0, # of connection points: 4
#     Node 13, Type 0, BuildingBlock: KUFVIS_clean_sbu_0, # of connection points: 4
#     Node 14, Type 0, BuildingBlock: KUFVIS_clean_sbu_0, # of connection points: 4
#     Node 15, Type 0, BuildingBlock: KUFVIS_clean_sbu_0, # of connection points: 4
#     Node 16, Type 0, BuildingBlock: KUFVIS_clean_sbu_0, # of connection points: 4
#     Node 17, Type 0, BuildingBlock: KUFVIS_clean_sbu_0, # of connection points: 4
#     Node 18, Type 0, BuildingBlock: KUFVIS_clean_sbu_0, # of connection points: 4
#     Node 19, Type 0, BuildingBlock: KUFVIS_clean_sbu_0, # of connection points: 4
#     Node 20, Type 0, BuildingBlock: KUFVIS_clean_sbu_0, # of connection points: 4
#     Node 21, Type 0, BuildingBlock: KUFVIS_clean_sbu_0, # of connection points: 4
#     Node 22, Type 0, BuildingBlock: KUFVIS_clean_sbu_0, # of connection points: 4
#     Node 23, Type 0, BuildingBlock: KUFVIS_clean_sbu_0, # of connection points: 4
#     Node 24, Type 1, BuildingBlock: MIFKUJ_clean_sbu_0, # of connection points: 6
#     Node 25, Type 1, BuildingBlock: MIFKUJ_clean_sbu_0, # of connection points: 6
#     Node 26, Type 1, BuildingBlock: MIFKUJ_clean_sbu_0, # of connection points: 6
#     Node 27, Type 1, BuildingBlock: MIFKUJ_clean_sbu_0, # of connection points: 6
#     Node 28, Type 1, BuildingBlock: MIFKUJ_clean_sbu_0, # of connection points: 6
#     Node 29, Type 1, BuildingBlock: MIFKUJ_clean_sbu_0, # of connection points: 6
#     Node 30, Type 1, BuildingBlock: MIFKUJ_clean_sbu_0, # of connection points: 6
#     Node 31, Type 1, BuildingBlock: MIFKUJ_clean_sbu_0, # of connection points: 6
#     Node 32, Type 1, BuildingBlock: MIFKUJ_clean_sbu_0, # of connection points: 6
#     Node 33, Type 1, BuildingBlock: MIFKUJ_clean_sbu_0, # of connection points: 6
#     Node 34, Type 1, BuildingBlock: MIFKUJ_clean_sbu_0, # of connection points: 6
#     Node 35, Type 1, BuildingBlock: MIFKUJ_clean_sbu_0, # of connection points: 6
#     Node 36, Type 1, BuildingBlock: MIFKUJ_clean_sbu_0, # of connection points: 6
#     Node 37, Type 1, BuildingBlock: MIFKUJ_clean_sbu_0, # of connection points: 6
#     Node 38, Type 1, BuildingBlock: MIFKUJ_clean_sbu_0, # of connection points: 6
#     Node 39, Type 1, BuildingBlock: MIFKUJ_clean_sbu_0, # of connection points: 6
#     Edge 40, Type (0, 1), BuildingBlock: TEMPAE_clean_linker_10, # of connection points: 2
#     Edge 41, Type (0, 1), BuildingBlock: TEMPAE_clean_linker_10, # of connection points: 2
#     Edge 42, Type (0, 1), BuildingBlock: TEMPAE_clean_linker_10, # of connection points: 2
#     Edge 43, Type (0, 1), BuildingBlock: TEMPAE_clean_linker_10, # of connection points: 2
#     Edge 44, Type (0, 1), BuildingBlock: TEMPAE_clean_linker_10, # of connection points: 2
#     Edge 45, Type (0, 1), BuildingBlock: TEMPAE_clean_linker_10, # of connection points: 2
#     Edge 46, Type (0, 1), BuildingBlock: TEMPAE_clean_linker_10, # of connection points: 2
#     Edge 47, Type (0, 1), BuildingBlock: TEMPAE_clean_linker_10, # of connection points: 2
#     Edge 48, Type (0, 1), BuildingBlock: TEMPAE_clean_linker_10, # of connection points: 2
#     Edge 49, Type (0, 1), BuildingBlock: TEMPAE_clean_linker_10, # of connection points: 2
#     Edge 50, Type (0, 1), BuildingBlock: TEMPAE_clean_linker_10, # of connection points: 2
#     Edge 51, Type (0, 1), BuildingBlock: TEMPAE_clean_linker_10, # of connection points: 2
#     Edge 52, Type (0, 1), BuildingBlock: TEMPAE_clean_linker_10, # of connection points: 2
#     Edge 53, Type (0, 1), BuildingBlock: TEMPAE_clean_linker_10, # of connection points: 2
#     Edge 54, Type (0, 1), BuildingBlock: TEMPAE_clean_linker_10, # of connection points: 2
#     Edge 55, Type (0, 1), BuildingBlock: TEMPAE_clean_linker_10, # of connection points: 2
#     Edge 56, Type (0, 1), BuildingBlock: TEMPAE_clean_linker_10, # of connection points: 2
#     Edge 57, Type (0, 1), BuildingBlock: TEMPAE_clean_linker_10, # of connection points: 2
#     Edge 58, Type (0, 1), BuildingBlock: TEMPAE_clean_linker_10, # of connection points: 2
#     Edge 59, Type (0, 1), BuildingBlock: TEMPAE_clean_linker_10, # of connection points: 2
#     Edge 60, Type (0, 1), BuildingBlock: TEMPAE_clean_linker_10, # of connection points: 2
#     Edge 61, Type (0, 1), BuildingBlock: TEMPAE_clean_linker_10, # of connection points: 2
#     Edge 62, Type (0, 1), BuildingBlock: TEMPAE_clean_linker_10, # of connection points: 2
#     Edge 63, Type (0, 1), BuildingBlock: TEMPAE_clean_linker_10, # of connection points: 2
#     Edge 64, Type (0, 1), BuildingBlock: TEMPAE_clean_linker_10, # of connection points: 2
#     Edge 65, Type (0, 1), BuildingBlock: TEMPAE_clean_linker_10, # of connection points: 2
#     Edge 66, Type (0, 1), BuildingBlock: TEMPAE_clean_linker_10, # of connection points: 2
#     Edge 67, Type (0, 1), BuildingBlock: TEMPAE_clean_linker_10, # of connection points: 2
#     Edge 68, Type (0, 1), BuildingBlock: TEMPAE_clean_linker_10, # of connection points: 2
#     Edge 69, Type (0, 1), BuildingBlock: TEMPAE_clean_linker_10, # of connection points: 2
#     Edge 70, Type (0, 1), BuildingBlock: TEMPAE_clean_linker_10, # of connection points: 2
#     Edge 71, Type (0, 1), BuildingBlock: TEMPAE_clean_linker_10, # of connection points: 2
#     Edge 72, Type (0, 1), BuildingBlock: TEMPAE_clean_linker_10, # of connection points: 2
#     Edge 73, Type (0, 1), BuildingBlock: TEMPAE_clean_linker_10, # of connection points: 2
#     Edge 74, Type (0, 1), BuildingBlock: TEMPAE_clean_linker_10, # of connection points: 2
#     Edge 75, Type (0, 1), BuildingBlock: TEMPAE_clean_linker_10, # of connection points: 2
#     Edge 76, Type (0, 1), BuildingBlock: TEMPAE_clean_linker_10, # of connection points: 2
#     Edge 77, Type (0, 1), BuildingBlock: TEMPAE_clean_linker_10, # of connection points: 2
#     Edge 78, Type (0, 1), BuildingBlock: TEMPAE_clean_linker_10, # of connection points: 2
#     Edge 79, Type (0, 1), BuildingBlock: TEMPAE_clean_linker_10, # of connection points: 2
#     Edge 80, Type (0, 1), BuildingBlock: TEMPAE_clean_linker_10, # of connection points: 2
#     Edge 81, Type (0, 1), BuildingBlock: TEMPAE_clean_linker_10, # of connection points: 2
#     Edge 82, Type (0, 1), BuildingBlock: TEMPAE_clean_linker_10, # of connection points: 2
#     Edge 83, Type (0, 1), BuildingBlock: TEMPAE_clean_linker_10, # of connection points: 2
#     Edge 84, Type (0, 1), BuildingBlock: TEMPAE_clean_linker_10, # of connection points: 2
#     Edge 85, Type (0, 1), BuildingBlock: TEMPAE_clean_linker_10, # of connection points: 2
#     Edge 86, Type (0, 1), BuildingBlock: TEMPAE_clean_linker_10, # of connection points: 2
#     Edge 87, Type (0, 1), BuildingBlock: TEMPAE_clean_linker_10, # of connection points: 2
#     Edge 88, Type (0, 1), BuildingBlock: TEMPAE_clean_linker_10, # of connection points: 2
#     Edge 89, Type (0, 1), BuildingBlock: TEMPAE_clean_linker_10, # of connection points: 2
#     Edge 90, Type (0, 1), BuildingBlock: TEMPAE_clean_linker_10, # of connection points: 2
#     Edge 91, Type (0, 1), BuildingBlock: TEMPAE_clean_linker_10, # of connection points: 2
#     Edge 92, Type (0, 1), BuildingBlock: TEMPAE_clean_linker_10, # of connection points: 2
#     Edge 93, Type (0, 1), BuildingBlock: TEMPAE_clean_linker_10, # of connection points: 2
#     Edge 94, Type (0, 1), BuildingBlock: TEMPAE_clean_linker_10, # of connection points: 2
#     Edge 95, Type (0, 1), BuildingBlock: TEMPAE_clean_linker_10, # of connection points: 2
#     Edge 96, Type (0, 1), BuildingBlock: TEMPAE_clean_linker_10, # of connection points: 2
#     Edge 97, Type (0, 1), BuildingBlock: TEMPAE_clean_linker_10, # of connection points: 2
#     Edge 98, Type (0, 1), BuildingBlock: TEMPAE_clean_linker_10, # of connection points: 2
#     Edge 99, Type (0, 1), BuildingBlock: TEMPAE_clean_linker_10, # of connection points: 2
#     Edge 100, Type (0, 1), BuildingBlock: TEMPAE_clean_linker_10, # of connection points: 2
#     Edge 101, Type (0, 1), BuildingBlock: TEMPAE_clean_linker_10, # of connection points: 2
#     Edge 102, Type (0, 1), BuildingBlock: TEMPAE_clean_linker_10, # of connection points: 2
#     Edge 103, Type (0, 1), BuildingBlock: TEMPAE_clean_linker_10, # of connection points: 2
#     Edge 104, Type (0, 1), BuildingBlock: TEMPAE_clean_linker_10, # of connection points: 2
#     Edge 105, Type (0, 1), BuildingBlock: TEMPAE_clean_linker_10, # of connection points: 2
#     Edge 106, Type (0, 1), BuildingBlock: TEMPAE_clean_linker_10, # of connection points: 2
#     Edge 107, Type (0, 1), BuildingBlock: TEMPAE_clean_linker_10, # of connection points: 2
#     Edge 108, Type (0, 1), BuildingBlock: TEMPAE_clean_linker_10, # of connection points: 2
#     Edge 109, Type (0, 1), BuildingBlock: TEMPAE_clean_linker_10, # of connection points: 2
#     Edge 110, Type (0, 1), BuildingBlock: TEMPAE_clean_linker_10, # of connection points: 2
#     Edge 111, Type (0, 1), BuildingBlock: TEMPAE_clean_linker_10, # of connection points: 2
#     Edge 112, Type (0, 1), BuildingBlock: TEMPAE_clean_linker_10, # of connection points: 2
#     Edge 113, Type (0, 1), BuildingBlock: TEMPAE_clean_linker_10, # of connection points: 2
#     Edge 114, Type (0, 1), BuildingBlock: TEMPAE_clean_linker_10, # of connection points: 2
#     Edge 115, Type (0, 1), BuildingBlock: TEMPAE_clean_linker_10, # of connection points: 2
#     Edge 116, Type (0, 1), BuildingBlock: TEMPAE_clean_linker_10, # of connection points: 2
#     Edge 117, Type (0, 1), BuildingBlock: TEMPAE_clean_linker_10, # of connection points: 2
#     Edge 118, Type (0, 1), BuildingBlock: TEMPAE_clean_linker_10, # of connection points: 2
#     Edge 119, Type (0, 1), BuildingBlock: TEMPAE_clean_linker_10, # of connection points: 2
#     Edge 120, Type (0, 1), BuildingBlock: TEMPAE_clean_linker_10, # of connection points: 2
#     Edge 121, Type (0, 1), BuildingBlock: TEMPAE_clean_linker_10, # of connection points: 2
#     Edge 122, Type (0, 1), BuildingBlock: TEMPAE_clean_linker_10, # of connection points: 2
#     Edge 123, Type (0, 1), BuildingBlock: TEMPAE_clean_linker_10, # of connection points: 2
#     Edge 124, Type (0, 1), BuildingBlock: TEMPAE_clean_linker_10, # of connection points: 2
#     Edge 125, Type (0, 1), BuildingBlock: TEMPAE_clean_linker_10, # of connection points: 2
#     Edge 126, Type (0, 1), BuildingBlock: TEMPAE_clean_linker_10, # of connection points: 2
#     Edge 127, Type (0, 1), BuildingBlock: TEMPAE_clean_linker_10, # of connection points: 2
#     Edge 128, Type (0, 1), BuildingBlock: TEMPAE_clean_linker_10, # of connection points: 2
#     Edge 129, Type (0, 1), BuildingBlock: TEMPAE_clean_linker_10, # of connection points: 2
#     Edge 130, Type (0, 1), BuildingBlock: TEMPAE_clean_linker_10, # of connection points: 2
#     Edge 131, Type (0, 1), BuildingBlock: TEMPAE_clean_linker_10, # of connection points: 2
#     Edge 132, Type (0, 1), BuildingBlock: TEMPAE_clean_linker_10, # of connection points: 2
#     Edge 133, Type (0, 1), BuildingBlock: TEMPAE_clean_linker_10, # of connection points: 2
#     Edge 134, Type (0, 1), BuildingBlock: TEMPAE_clean_linker_10, # of connection points: 2
#     Edge 135, Type (0, 1), BuildingBlock: TEMPAE_clean_linker_10, # of connection points: 2
# Relax obj value: 0.095
# Max RMSD: 0.279
# Mean RMSD: 0.125
data_MOF--net-gar--node1-KUFVIS_clean_sbu_0--node2-MIFKUJ_clean_sbu_0--edge1-TEMPAE_clean_linker_10
_symmetry_space_group_name_H-M    P1
_symmetry_Int_Tables_number       1
_symmetry_cell_setting            triclinic
loop_
_symmetry_equiv_pos_as_xyz
'x, y, z'
_cell_length_a     56.288534
_cell_length_b     56.544537
_cell_length_c     55.801438
_cell_angle_alpha  94.501129
_cell_angle_beta   94.645764
_cell_angle_gamma 99.350833
loop_
_atom_site_label
_atom_site_type_symbol
_atom_site_fract_x
_atom_site_fract_y
_atom_site_fract_z
_atom_type_partial_charge
Mn0 Mn 0.02206 0.26704 0.3978 0.0
Mn1 Mn 0.0237 0.30881 0.35755 0.0
C2 C 0.98647 0.27706 0.38087 0.0
C3 C 0.0213 0.22823 0.40924 0.0
C4 C 0.03544 0.32131 0.41134 0.0
O5 O 0.05597 0.26861 0.38639 0.0
O6 O 0.05413 0.29532 0.35858 0.0
C7 C 0.02362 0.27772 0.31228 0.0
N8 N 0.01346 0.29391 0.32567 0.0
C9 C 0.98366 0.29591 0.29279 0.0
C10 C 0.99385 0.27933 0.27861 0.0
C11 C 0.01385 0.27011 0.28844 0.0
C12 C 0.99408 0.3027 0.31647 0.0
H13 H 0.0391 0.27074 0.31971 0.0
C14 C 0.06499 0.28059 0.36978 0.0
O15 O 0.02988 0.24709 0.42394 0.0
O16 O 0.01363 0.2317 0.38738 0.0
N17 N 0.99511 0.32301 0.35455 0.0
C18 C 0.98647 0.33761 0.37113 0.0
C19 C 0.96597 0.34768 0.36444 0.0
C20 C 0.95482 0.34293 0.34073 0.0
C21 C 0.96407 0.32786 0.32399 0.0
C22 C 0.98442 0.31819 0.33174 0.0
H23 H 0.9951 0.34153 0.38932 0.0
O24 O 0.98709 0.26774 0.40143 0.0
O25 O 0.00664 0.28025 0.37085 0.0
O26 O 0.03121 0.29985 0.41707 0.0
O27 O 0.03412 0.32668 0.38958 0.0
C28 C 0.95385 0.32198 0.29995 0.0
C29 C 0.9635 0.30585 0.28442 0.0
H30 H 0.9864 0.27346 0.26019 0.0
H31 H 0.02178 0.25727 0.27762 0.0
H32 H 0.95889 0.35921 0.37749 0.0
H33 H 0.9391 0.35085 0.3356 0.0
H34 H 0.93848 0.32965 0.29326 0.0
H35 H 0.95519 0.30113 0.26611 0.0
Mn36 Mn 0.00737 0.74762 0.64578 0.0
Mn37 Mn 0.0209 0.79165 0.69181 0.0
C38 C 0.04612 0.75741 0.66493 0.0
C39 C 0.99498 0.70825 0.62848 0.0
C40 C 0.01349 0.80116 0.63956 0.0
O41 O 0.97411 0.75134 0.65648 0.0
O42 O 0.98598 0.77893 0.68856 0.0
C43 C 0.01 0.76338 0.7332 0.0
N44 N 0.02582 0.77861 0.72197 0.0
C45 C 0.05496 0.78496 0.75682 0.0
C46 C 0.03904 0.76928 0.76878 0.0
C47 C 0.01655 0.75827 0.75683 0.0
C48 C 0.04776 0.78874 0.73303 0.0
H49 H 0.99246 0.75542 0.72426 0.0
C50 C 0.96971 0.76459 0.67474 0.0
O51 O 0.99335 0.72666 0.61644 0.0
O52 O 0.00236 0.71259 0.65136 0.0
N53 N 0.0544 0.80562 0.69698 0.0
C54 C 0.06806 0.81941 0.68249 0.0
C55 C 0.09133 0.83128 0.69149 0.0
C56 C 0.09997 0.82946 0.71549 0.0
C57 C 0.08549 0.81529 0.73008 0.0
C58 C 0.06281 0.80325 0.71988 0.0
H59 H 0.06118 0.8215 0.66429 0.0
O60 O 0.04244 0.7469 0.6431 0.0
O61 O 0.02715 0.7618 0.67497 0.0
O62 O 0.01056 0.77941 0.63084 0.0
O63 O 0.01664 0.80775 0.66208 0.0
C64 C 0.09251 0.81287 0.75446 0.0
C65 C 0.07748 0.79735 0.76768 0.0
H66 H 0.04383 0.76566 0.78716 0.0
H67 H 0.00413 0.74621 0.76596 0.0
H68 H 0.10238 0.84218 0.6801 0.0
H69 H 0.11774 0.83902 0.72253 0.0
H70 H 0.10967 0.82249 0.76308 0.0
H71 H 0.08338 0.79517 0.78622 0.0
Mn72 Mn 0.51694 0.76585 0.89999 0.0
Mn73 Mn 0.51802 0.80776 0.85969 0.0
C74 C 0.48055 0.77481 0.88371 0.0
C75 C 0.51641 0.72761 0.91306 0.0
C76 C 0.53075 0.8199 0.91341 0.0
O77 O 0.55039 0.76724 0.88814 0.0
O78 O 0.54762 0.79308 0.85971 0.0
C79 C 0.51779 0.77937 0.81268 0.0
N80 N 0.50826 0.79536 0.82695 0.0
C81 C 0.48428 0.80582 0.79293 0.0
C82 C 0.49387 0.78949 0.77783 0.0
C83 C 0.51053 0.77605 0.78779 0.0
C84 C 0.49204 0.80819 0.81758 0.0
H85 H 0.53101 0.76946 0.82021 0.0
C86 C 0.55855 0.77824 0.8706 0.0
O87 O 0.52512 0.74707 0.92676 0.0
O88 O 0.50893 0.73004 0.89083 0.0
N89 N 0.49032 0.82324 0.85728 0.0
C90 C 0.48097 0.83611 0.87477 0.0
C91 C 0.46259 0.8491 0.86819 0.0
C92 C 0.45436 0.84904 0.8437 0.0
C93 C 0.46431 0.83564 0.82605 0.0
C94 C 0.4823 0.82277 0.83374 0.0
H95 H 0.48765 0.83661 0.89353 0.0
O96 O 0.4827 0.76634 0.90461 0.0
O97 O 0.50027 0.77853 0.87258 0.0
O98 O 0.52628 0.79856 0.91919 0.0
O99 O 0.52899 0.825 0.89169 0.0
C100 C 0.45696 0.83434 0.80116 0.0
C101 C 0.46695 0.81945 0.7846 0.0
H102 H 0.48839 0.78693 0.75861 0.0
H103 H 0.51797 0.76339 0.77625 0.0
H104 H 0.455 0.85939 0.88191 0.0
H105 H 0.44032 0.85924 0.83868 0.0
H106 H 0.44328 0.84432 0.79461 0.0
H107 H 0.46076 0.81818 0.76558 0.0
Mn108 Mn 0.50266 0.24148 0.1444 0.0
Mn109 Mn 0.45877 0.23696 0.09884 0.0
C110 C 0.48554 0.20433 0.12461 0.0
C111 C 0.54255 0.24536 0.16009 0.0
C112 C 0.45088 0.2479 0.15126 0.0
O113 O 0.50684 0.2756 0.13382 0.0
O114 O 0.47814 0.26983 0.10203 0.0
C115 C 0.48877 0.24118 0.05773 0.0
N116 N 0.47099 0.22846 0.06899 0.0
C117 C 0.46335 0.19684 0.0365 0.0
C118 C 0.48152 0.20963 0.02447 0.0
C119 C 0.49439 0.23182 0.03521 0.0
C120 C 0.45886 0.20686 0.05907 0.0
H121 H 0.49857 0.25833 0.06586 0.0
C122 C 0.49548 0.28293 0.11579 0.0
O123 O 0.52599 0.25095 0.17327 0.0
O124 O 0.53623 0.23859 0.13736 0.0
N125 N 0.43911 0.2057 0.09409 0.0
C126 C 0.42292 0.19513 0.10856 0.0
C127 C 0.40906 0.17246 0.1008 0.0
C128 C 0.41177 0.16105 0.07814 0.0
C129 C 0.42839 0.1724 0.0635 0.0
C130 C 0.44187 0.19487 0.07229 0.0
H131 H 0.42059 0.2039 0.1259 0.0
O132 O 0.49555 0.20583 0.14659 0.0
O133 O 0.48532 0.22462 0.11547 0.0
O134 O 0.47207 0.24616 0.15973 0.0
O135 O 0.44407 0.24519 0.12871 0.0
C136 C 0.43206 0.16235 0.04048 0.0
C137 C 0.44951 0.17458 0.02698 0.0
H138 H 0.48578 0.20255 0.00703 0.0
H139 H 0.5085 0.24176 0.02608 0.0
H140 H 0.39626 0.16383 0.11221 0.0
H141 H 0.40103 0.14359 0.07219 0.0
H142 H 0.42165 0.14515 0.03305 0.0
H143 H 0.45232 0.16655 0.00939 0.0
Mn144 Mn 0.02815 0.76845 0.14938 0.0
Mn145 Mn 0.98315 0.75513 0.10398 0.0
C146 C 0.01671 0.72925 0.13235 0.0
C147 C 0.06818 0.77906 0.16548 0.0
C148 C 0.97494 0.76609 0.15639 0.0
O149 O 0.0261 0.8012 0.1371 0.0
O150 O 0.9989 0.78917 0.10447 0.0
C151 C 0.00954 0.76047 0.06037 0.0
N152 N 0.99397 0.74692 0.07332 0.0
C153 C 0.98304 0.71628 0.04003 0.0
C154 C 0.99895 0.72996 0.0263 0.0
C155 C 0.01241 0.75206 0.0366 0.0
C156 C 0.98127 0.72542 0.06374 0.0
H157 H 0.01953 0.77759 0.06809 0.0
C158 C 0.01415 0.80513 0.11777 0.0
O159 O 0.0504 0.78269 0.17786 0.0
O160 O 0.06286 0.77092 0.14291 0.0
N161 N 0.96669 0.72252 0.10139 0.0
C162 C 0.95348 0.7108 0.11763 0.0
C163 C 0.93955 0.68802 0.11051 0.0
C164 C 0.93899 0.67777 0.08667 0.0
C165 C 0.9529 0.69009 0.07034 0.0
C166 C 0.96676 0.71252 0.07861 0.0
H167 H 0.95332 0.71888 0.13578 0.0
O168 O 0.02727 0.73393 0.15415 0.0
O169 O 0.01277 0.74769 0.12102 0.0
O170 O 0.99676 0.76792 0.16497 0.0
O171 O 0.96836 0.76269 0.13387 0.0
C172 C 0.95371 0.68093 0.04624 0.0
C173 C 0.96893 0.69392 0.03116 0.0
H174 H 0.00104 0.72363 0.00789 0.0
H175 H 0.02475 0.76272 0.02613 0.0
H176 H 0.92898 0.67856 0.12326 0.0
H177 H 0.928 0.66031 0.08116 0.0
H178 H 0.94307 0.66368 0.03928 0.0
H179 H 0.96977 0.68647 0.01282 0.0
Mn180 Mn 0.49749 0.74584 0.40031 0.0
Mn181 Mn 0.49348 0.78461 0.35778 0.0
C182 C 0.45957 0.74774 0.3811 0.0
C183 C 0.50474 0.70943 0.41366 0.0
C184 C 0.5042 0.79962 0.41132 0.0
O185 O 0.53218 0.75406 0.39048 0.0
O186 O 0.52475 0.77342 0.35759 0.0
C187 C 0.49415 0.75514 0.3117 0.0
N188 N 0.48326 0.77007 0.32583 0.0
C189 C 0.45626 0.77635 0.29214 0.0
C190 C 0.46729 0.76115 0.27715 0.0
C191 C 0.4861 0.75026 0.28704 0.0
C192 C 0.46466 0.78005 0.31666 0.0
H193 H 0.509 0.74725 0.31917 0.0
C194 C 0.53858 0.76329 0.37126 0.0
O195 O 0.50891 0.72918 0.4278 0.0
O196 O 0.49664 0.71065 0.39135 0.0
N197 N 0.46382 0.79698 0.35588 0.0
C198 C 0.45526 0.81125 0.37281 0.0
C199 C 0.43674 0.8239 0.36585 0.0
C200 C 0.42746 0.82199 0.34153 0.0
C201 C 0.43595 0.80654 0.32456 0.0
C202 C 0.45443 0.79441 0.33257 0.0
H203 H 0.46299 0.8136 0.39134 0.0
O204 O 0.46165 0.7394 0.4021 0.0
O205 O 0.47978 0.75484 0.37194 0.0
O206 O 0.49956 0.77882 0.41846 0.0
O207 O 0.50448 0.80334 0.38917 0.0
C208 C 0.42722 0.80316 0.29993 0.0
C209 C 0.43731 0.788 0.28375 0.0
H210 H 0.46135 0.75761 0.25806 0.0
H211 H 0.49465 0.73846 0.27561 0.0
H212 H 0.43006 0.83556 0.3791 0.0
H213 H 0.41361 0.83228 0.33614 0.0
H214 H 0.41282 0.8122 0.29324 0.0
H215 H 0.43041 0.78549 0.26487 0.0
Mn216 Mn 0.52447 0.26177 0.64971 0.0
Mn217 Mn 0.48237 0.25066 0.60202 0.0
C218 C 0.51323 0.2225 0.63162 0.0
C219 C 0.56399 0.27301 0.66743 0.0
C220 C 0.47147 0.26223 0.65359 0.0
O221 O 0.52308 0.29497 0.63796 0.0
O222 O 0.50093 0.28349 0.60212 0.0
C223 C 0.51343 0.25108 0.56161 0.0
N224 N 0.49501 0.23984 0.57315 0.0
C225 C 0.48526 0.20772 0.54121 0.0
C226 C 0.50394 0.2191 0.52881 0.0
C227 C 0.51825 0.24075 0.53918 0.0
C228 C 0.4817 0.21859 0.56374 0.0
H229 H 0.5243 0.26779 0.56948 0.0
C230 C 0.51451 0.29926 0.61711 0.0
O231 O 0.54553 0.27572 0.67913 0.0
O232 O 0.55968 0.26481 0.64478 0.0
N233 N 0.46279 0.21938 0.59927 0.0
C234 C 0.4457 0.21046 0.61372 0.0
C235 C 0.42988 0.18886 0.60602 0.0
C236 C 0.4314 0.17687 0.58333 0.0
C237 C 0.44892 0.18647 0.56865 0.0
C238 C 0.4643 0.208 0.57735 0.0
H239 H 0.4439 0.21984 0.63089 0.0
O240 O 0.52326 0.22682 0.65365 0.0
O241 O 0.50998 0.24147 0.62093 0.0
O242 O 0.49227 0.26088 0.6633 0.0
O243 O 0.46652 0.26104 0.63074 0.0
C244 C 0.45169 0.17555 0.5457 0.0
C245 C 0.46997 0.18607 0.53207 0.0
H246 H 0.50752 0.21132 0.51138 0.0
H247 H 0.5328 0.24956 0.5298 0.0
H248 H 0.41633 0.18163 0.61742 0.0
H249 H 0.41907 0.16028 0.57739 0.0
H250 H 0.44004 0.15891 0.53849 0.0
H251 H 0.47213 0.17735 0.51458 0.0
Mn252 Mn 0.99677 0.24623 0.89609 0.0
Mn253 Mn 0.9982 0.28458 0.85266 0.0
C254 C 0.96088 0.25142 0.87504 0.0
C255 C 0.00053 0.20941 0.91012 0.0
C256 C 0.0055 0.3005 0.90618 0.0
O257 O 0.03202 0.25126 0.88833 0.0
O258 O 0.02924 0.27274 0.8561 0.0
C259 C 0.00109 0.25197 0.80921 0.0
N260 N 0.99029 0.26873 0.82095 0.0
C261 C 0.96773 0.27515 0.78429 0.0
C262 C 0.97838 0.25776 0.77175 0.0
C263 C 0.9949 0.24589 0.78433 0.0
C264 C 0.97365 0.27949 0.80923 0.0
H265 H 0.01454 0.24362 0.81874 0.0
C266 C 0.04086 0.2614 0.87062 0.0
O267 O 0.00509 0.22916 0.92426 0.0
O268 O 0.99351 0.21072 0.88754 0.0
N269 N 0.96951 0.298 0.84697 0.0
C270 C 0.95972 0.31305 0.86211 0.0
C271 C 0.94305 0.32658 0.8525 0.0
C272 C 0.93726 0.32507 0.8274 0.0
C273 C 0.94736 0.30919 0.81223 0.0
C274 C 0.96309 0.29549 0.82296 0.0
H275 H 0.96501 0.31512 0.88128 0.0
O276 O 0.96078 0.24305 0.8961 0.0
O277 O 0.98186 0.25615 0.86674 0.0
O278 O 0.0011 0.27976 0.91358 0.0
O279 O 0.00637 0.30386 0.88397 0.0
C280 C 0.94236 0.30632 0.78688 0.0
C281 C 0.952 0.28883 0.773 0.0
H282 H 0.97419 0.25355 0.75244 0.0
H283 H 0.00332 0.23257 0.77475 0.0
H284 H 0.93522 0.33866 0.86434 0.0
H285 H 0.92482 0.33595 0.81998 0.0
H286 H 0.93042 0.31683 0.778 0.0
H287 H 0.94742 0.28625 0.75364 0.0
Mn288 Mn 0.39567 0.01649 0.28436 0.0
Mn289 Mn 0.3515 0.01174 0.32165 0.0
C290 C 0.3793 0.97934 0.2959 0.0
C291 C 0.41026 0.01719 0.24693 0.0
C292 C 0.40413 0.03043 0.33867 0.0
O293 O 0.38272 0.04787 0.28137 0.0
O294 O 0.35268 0.042 0.30574 0.0
C295 C 0.30942 0.00643 0.28493 0.0
N296 N 0.32154 0.99776 0.30353 0.0
C297 C 0.29018 0.96321 0.3027 0.0
C298 C 0.27732 0.9718 0.28361 0.0
C299 C 0.28706 0.99342 0.27459 0.0
C300 C 0.31259 0.9767 0.31197 0.0
H301 H 0.31674 0.02313 0.27803 0.0
C302 C 0.36458 0.05426 0.29091 0.0
O303 O 0.42332 0.02749 0.26628 0.0
O304 O 0.38817 0.00714 0.24913 0.0
N305 N 0.34814 0.98287 0.3377 0.0
C306 C 0.36301 0.97682 0.35588 0.0
C307 C 0.35605 0.95547 0.36667 0.0
C308 C 0.3337 0.94081 0.35895 0.0
C309 C 0.31855 0.94761 0.34047 0.0
C310 C 0.32656 0.96893 0.33021 0.0
H311 H 0.38008 0.98815 0.36212 0.0
O312 O 0.40094 0.98289 0.28889 0.0
O313 O 0.36823 0.99771 0.29618 0.0
O314 O 0.41158 0.02798 0.31793 0.0
O315 O 0.38181 0.02555 0.34227 0.0
C316 C 0.29568 0.9342 0.33202 0.0
C317 C 0.28158 0.94189 0.31302 0.0
H318 H 0.25996 0.96193 0.27574 0.0
H319 H 0.27728 0.00014 0.25981 0.0
H320 H 0.36781 0.95041 0.38099 0.0
H321 H 0.32835 0.9244 0.36738 0.0
H322 H 0.2888 0.91788 0.33993 0.0
H323 H 0.26417 0.93123 0.30645 0.0
Mn324 Mn 0.25778 0.13998 0.50611 0.0
Mn325 Mn 0.25221 0.09429 0.4624 0.0
C326 C 0.2196 0.11909 0.49144 0.0
C327 C 0.26263 0.15532 0.54649 0.0
C328 C 0.26503 0.14698 0.4535 0.0
O329 O 0.2918 0.13086 0.50754 0.0
O330 O 0.2845 0.09747 0.48108 0.0
C331 C 0.25234 0.05245 0.49117 0.0
N332 N 0.24116 0.06396 0.47418 0.0
C333 C 0.20801 0.03079 0.46644 0.0
C334 C 0.21921 0.01857 0.48384 0.0
C335 C 0.24143 0.02951 0.49634 0.0
C336 C 0.21969 0.05367 0.46217 0.0
H337 H 0.26945 0.06071 0.50068 0.0
C338 C 0.29818 0.1122 0.49709 0.0
O339 O 0.26903 0.1688 0.52958 0.0
O340 O 0.25428 0.13272 0.54015 0.0
N341 N 0.22139 0.08936 0.44378 0.0
C342 C 0.21192 0.10437 0.42914 0.0
C343 C 0.18916 0.0966 0.41621 0.0
C344 C 0.1765 0.07342 0.41825 0.0
C345 C 0.18661 0.05831 0.43343 0.0
C346 C 0.20921 0.06712 0.44609 0.0
H347 H 0.22159 0.12216 0.42736 0.0
O348 O 0.22216 0.14086 0.50178 0.0
O349 O 0.2395 0.11051 0.48972 0.0
O350 O 0.26244 0.15554 0.47468 0.0
O351 O 0.26315 0.12447 0.44742 0.0
C352 C 0.17504 0.03492 0.43667 0.0
C353 C 0.18562 0.02125 0.45333 0.0
H354 H 0.21084 0.00087 0.48787 0.0
H355 H 0.25017 0.02024 0.50985 0.0
H356 H 0.18143 0.10843 0.40462 0.0
H357 H 0.15897 0.06747 0.40822 0.0
H358 H 0.15782 0.02741 0.42668 0.0
H359 H 0.17626 0.0035 0.45606 0.0
Mn360 Mn 0.13606 0.00951 0.78886 0.0
Mn361 Mn 0.18023 0.02054 0.83475 0.0
C362 C 0.15464 0.04903 0.80115 0.0
C363 C 0.12227 0.00199 0.74794 0.0
C364 C 0.12697 0.00568 0.84174 0.0
O365 O 0.14744 0.97675 0.79055 0.0
O366 O 0.17919 0.98748 0.81888 0.0
C367 C 0.22417 0.0199 0.80899 0.0
N368 N 0.21132 0.03149 0.82436 0.0
C369 C 0.24433 0.06466 0.83344 0.0
C370 C 0.25806 0.05291 0.81801 0.0
C371 C 0.24785 0.03053 0.80557 0.0
C372 C 0.22083 0.05322 0.8361 0.0
H373 H 0.2164 0.00272 0.7994 0.0
C374 C 0.1662 0.97223 0.8028 0.0
O375 O 0.10832 0.99577 0.76458 0.0
O376 O 0.1446 0.01135 0.75501 0.0
N377 N 0.18324 0.05218 0.85086 0.0
C378 C 0.16669 0.06226 0.8629 0.0
C379 C 0.17333 0.08554 0.87473 0.0
C380 C 0.19697 0.09806 0.87436 0.0
C381 C 0.21365 0.08732 0.86179 0.0
C382 C 0.20587 0.06427 0.84999 0.0
H383 H 0.14856 0.05263 0.86342 0.0
O384 O 0.1329 0.04439 0.79023 0.0
O385 O 0.16451 0.03029 0.80523 0.0
O386 O 0.11898 0.00576 0.81978 0.0
O387 O 0.14949 0.00979 0.84883 0.0
C388 C 0.23761 0.09868 0.8603 0.0
C389 C 0.25289 0.08745 0.846 0.0
H390 H 0.27631 0.06106 0.8153 0.0
H391 H 0.25824 0.02146 0.79342 0.0
H392 H 0.1603 0.09375 0.88426 0.0
H393 H 0.20206 0.11598 0.88358 0.0
H394 H 0.24432 0.1163 0.8697 0.0
H395 H 0.27107 0.09666 0.84448 0.0
Mn396 Mn 0.25777 0.87443 0.00792 0.0
Mn397 Mn 0.25889 0.91887 0.97091 0.0
C398 C 0.29396 0.89437 0.99773 0.0
C399 C 0.25866 0.85839 0.04475 0.0
C400 C 0.24633 0.86619 0.9531 0.0
O401 O 0.22481 0.88392 0.01062 0.0
O402 O 0.22701 0.9125 0.98438 0.0
C403 C 0.25526 0.95946 0.00666 0.0
N404 N 0.26728 0.94954 0.98929 0.0
C405 C 0.29716 0.9855 0.9916 0.0
C406 C 0.28504 0.99613 0.00942 0.0
C407 C 0.26404 0.98301 0.01703 0.0
C408 C 0.28753 0.96199 0.98187 0.0
H409 H 0.23906 0.94952 0.01253 0.0
C410 C 0.21593 0.89984 0.9995 0.0
O411 O 0.24938 0.84554 0.02497 0.0
O412 O 0.26631 0.88119 0.04347 0.0
N413 N 0.28894 0.92713 0.9573 0.0
C414 C 0.29959 0.91358 0.94146 0.0
C415 C 0.32154 0.92359 0.93309 0.0
C416 C 0.33213 0.94748 0.94085 0.0
C417 C 0.32078 0.96109 0.9571 0.0
C418 C 0.29903 0.9501 0.96496 0.0
H419 H 0.29155 0.89519 0.93547 0.0
O420 O 0.29214 0.87249 0.00382 0.0
O421 O 0.27438 0.90382 0.9972 0.0
O422 O 0.24759 0.85871 0.97391 0.0
O423 O 0.25061 0.88844 0.94968 0.0
C424 C 0.33039 0.985 0.9661 0.0
C425 C 0.31863 0.99718 0.98337 0.0
H426 H 0.29179 0.01427 0.01751 0.0
H427 H 0.25462 0.99107 0.03083 0.0
H428 H 0.33026 0.91291 0.92067 0.0
H429 H 0.34908 0.95513 0.93439 0.0
H430 H 0.34698 0.99412 0.96006 0.0
H431 H 0.32643 0.01542 0.99046 0.0
Mn432 Mn 0.27112 0.37645 0.04097 0.0
Mn433 Mn 0.27978 0.42147 0.00392 0.0
C434 C 0.31054 0.39683 0.03718 0.0
C435 C 0.26371 0.35972 0.07763 0.0
C436 C 0.26897 0.36836 0.98581 0.0
O437 O 0.23707 0.38559 0.03628 0.0
O438 O 0.24645 0.41636 0.0136 0.0
C439 C 0.27486 0.46232 0.03891 0.0
N440 N 0.28671 0.45261 0.02134 0.0
C441 C 0.31174 0.49074 0.01811 0.0
C442 C 0.29917 0.50143 0.03552 0.0
C443 C 0.28094 0.48707 0.04628 0.0
C444 C 0.30515 0.46596 0.0119 0.0
H445 H 0.26099 0.45121 0.04722 0.0
C446 C 0.23156 0.40323 0.02518 0.0
O447 O 0.2589 0.34723 0.0569 0.0
O448 O 0.27208 0.38255 0.07732 0.0
N449 N 0.31093 0.42968 0.99263 0.0
C450 C 0.32255 0.41614 0.97782 0.0
C451 C 0.34179 0.42739 0.96602 0.0
C452 C 0.34896 0.4525 0.96969 0.0
C453 C 0.33714 0.46603 0.9855 0.0
C454 C 0.31789 0.45381 0.99647 0.0
H455 H 0.31684 0.39702 0.97478 0.0
O456 O 0.30674 0.37528 0.04417 0.0
O457 O 0.29122 0.40622 0.03251 0.0
O458 O 0.26752 0.36028 0.00634 0.0
O459 O 0.27325 0.39074 0.98299 0.0
C460 C 0.34344 0.49119 0.99058 0.0
C461 C 0.33086 0.50353 0.00702 0.0
H462 H 0.30369 0.52054 0.0411 0.0
H463 H 0.27149 0.49509 0.06008 0.0
H464 H 0.35096 0.41677 0.95399 0.0
H465 H 0.36366 0.46117 0.96038 0.0
H466 H 0.35818 0.50117 0.98227 0.0
H467 H 0.33623 0.52278 0.01125 0.0
Mn468 Mn 0.77272 0.14229 0.0305 0.0
Mn469 Mn 0.75941 0.09634 0.98627 0.0
C470 C 0.73328 0.12241 0.021 0.0
C471 C 0.78294 0.16056 0.06963 0.0
C472 C 0.76827 0.14839 0.97641 0.0
O473 O 0.80564 0.13232 0.02755 0.0
O474 O 0.79439 0.10301 0.99698 0.0
C475 C 0.77134 0.05694 0.01462 0.0
N476 N 0.75545 0.06609 0.99975 0.0
C477 C 0.7282 0.02822 0.99394 0.0
C478 C 0.74421 0.01837 0.00927 0.0
C479 C 0.76578 0.03286 0.01981 0.0
C480 C 0.73438 0.0525 0.99004 0.0
H481 H 0.7882 0.06785 0.02224 0.0
C482 C 0.81025 0.11602 0.01231 0.0
O483 O 0.78684 0.17213 0.05085 0.0
O484 O 0.77435 0.13764 0.06587 0.0
N485 N 0.7263 0.08727 0.97373 0.0
C486 C 0.71246 0.09979 0.96009 0.0
C487 C 0.69081 0.08775 0.94736 0.0
C488 C 0.68379 0.06292 0.94857 0.0
C489 C 0.69784 0.0506 0.96351 0.0
C490 C 0.7192 0.06359 0.97578 0.0
H491 H 0.7181 0.11875 0.95867 0.0
O492 O 0.73775 0.14446 0.03084 0.0
O493 O 0.75191 0.11244 0.01672 0.0
O494 O 0.77362 0.15679 0.99827 0.0
O495 O 0.76238 0.12602 0.96985 0.0
C496 C 0.69162 0.02591 0.96651 0.0
C497 C 0.70658 0.01482 0.98204 0.0
H498 H 0.7402 0.99969 0.01295 0.0
H499 H 0.77829 0.02536 0.03156 0.0
H500 H 0.67979 0.09747 0.93626 0.0
H501 H 0.66735 0.05356 0.93826 0.0
H502 H 0.6752 0.01537 0.95721 0.0
H503 H 0.70143 0.99592 0.98447 0.0
Mn504 Mn 0.13271 0.5038 0.26377 0.0
Mn505 Mn 0.17609 0.51452 0.31084 0.0
C506 C 0.15265 0.5425 0.27545 0.0
C507 C 0.11836 0.49463 0.22348 0.0
C508 C 0.12279 0.5052 0.31673 0.0
O509 O 0.14152 0.47062 0.2671 0.0
O510 O 0.17037 0.48026 0.29848 0.0
C511 C 0.21791 0.50503 0.28487 0.0
N512 N 0.20745 0.51991 0.29952 0.0
C513 C 0.24447 0.54847 0.30708 0.0
C514 C 0.25568 0.53347 0.29207 0.0
C515 C 0.24228 0.51174 0.28077 0.0
C516 C 0.22001 0.54108 0.31004 0.0
H517 H 0.20778 0.4881 0.27655 0.0
C518 C 0.15734 0.4652 0.28248 0.0
O519 O 0.10445 0.49031 0.24053 0.0
O520 O 0.14102 0.50341 0.22969 0.0
N521 N 0.1838 0.54706 0.32491 0.0
C522 C 0.16996 0.55991 0.33795 0.0
C523 C 0.18057 0.58214 0.3504 0.0
C524 C 0.20536 0.59064 0.34972 0.0
C525 C 0.21919 0.57718 0.33601 0.0
C526 C 0.20756 0.55532 0.32377 0.0
H527 H 0.15107 0.55308 0.33911 0.0
O528 O 0.1313 0.53873 0.26371 0.0
O529 O 0.16185 0.52354 0.28015 0.0
O530 O 0.11551 0.50258 0.29442 0.0
O531 O 0.14496 0.50958 0.32495 0.0
C532 C 0.24408 0.5845 0.33413 0.0
C533 C 0.25662 0.57035 0.31937 0.0
H534 H 0.27455 0.53845 0.2891 0.0
H535 H 0.25081 0.50006 0.26919 0.0
H536 H 0.16977 0.59248 0.36086 0.0
H537 H 0.21357 0.60757 0.35975 0.0
H538 H 0.25367 0.6012 0.34364 0.0
H539 H 0.27562 0.57643 0.31767 0.0
Mn540 Mn 0.76989 0.87962 0.54367 0.0
Mn541 Mn 0.7758 0.92326 0.50519 0.0
C542 C 0.80841 0.90038 0.5376 0.0
C543 C 0.76302 0.86386 0.58094 0.0
C544 C 0.76356 0.87007 0.48874 0.0
O545 O 0.73552 0.88859 0.53949 0.0
O546 O 0.74393 0.92023 0.51758 0.0
C547 C 0.77477 0.96659 0.53815 0.0
N548 N 0.78596 0.95461 0.52152 0.0
C549 C 0.81268 0.99081 0.51524 0.0
C550 C 0.80163 0.00359 0.53248 0.0
C551 C 0.78283 0.99134 0.54426 0.0
C552 C 0.80484 0.96596 0.51099 0.0
H553 H 0.75953 0.95739 0.54629 0.0
C554 C 0.72949 0.90649 0.52904 0.0
O555 O 0.75784 0.85094 0.56049 0.0
O556 O 0.77198 0.88648 0.58007 0.0
N557 N 0.80583 0.92843 0.49117 0.0
C558 C 0.81429 0.91351 0.47473 0.0
C559 C 0.83348 0.92278 0.46173 0.0
C560 C 0.8429 0.9475 0.4648 0.0
C561 C 0.83337 0.96262 0.48124 0.0
C562 C 0.81521 0.95213 0.4947 0.0
H563 H 0.80632 0.89473 0.47139 0.0
O564 O 0.80592 0.87936 0.54593 0.0
O565 O 0.78857 0.90882 0.5335 0.0
O566 O 0.76603 0.86261 0.50951 0.0
O567 O 0.7654 0.89227 0.48541 0.0
C568 C 0.84043 0.98782 0.48407 0.0
C569 C 0.83042 0.00188 0.50138 0.0
H570 H 0.80722 0.02283 0.53658 0.0
H571 H 0.77407 0.0011 0.55742 0.0
H572 H 0.8405 0.91102 0.44885 0.0
H573 H 0.85718 0.95474 0.45417 0.0
H574 H 0.85387 0.99654 0.47333 0.0
H575 H 0.83642 0.02118 0.50377 0.0
Mn576 Mn 0.89341 0.99895 0.24959 0.0
Mn577 Mn 0.84799 0.9915 0.28616 0.0
C578 C 0.87282 0.96031 0.25489 0.0
C579 C 0.9095 0.0055 0.21247 0.0
C580 C 0.90107 0.00256 0.30487 0.0
O581 O 0.88413 0.0329 0.25307 0.0
O582 O 0.8531 0.02411 0.27562 0.0
C583 C 0.80702 0.99587 0.25089 0.0
N584 N 0.81705 0.98381 0.26815 0.0
C585 C 0.77868 0.95968 0.27255 0.0
C586 C 0.76779 0.97189 0.25491 0.0
C587 C 0.78211 0.98979 0.24373 0.0
C588 C 0.80374 0.96564 0.27794 0.0
H589 H 0.8179 0.0102 0.24297 0.0
C590 C 0.86629 0.03862 0.26379 0.0
O591 O 0.92244 0.01095 0.233 0.0
O592 O 0.8868 0.99661 0.21333 0.0
N593 N 0.84008 0.96088 0.29834 0.0
C594 C 0.85361 0.95026 0.31427 0.0
C595 C 0.84224 0.93169 0.3268 0.0
C596 C 0.81696 0.92504 0.32366 0.0
C597 C 0.80339 0.93636 0.30726 0.0
C598 C 0.81588 0.9538 0.29435 0.0
H599 H 0.87293 0.95589 0.31729 0.0
O600 O 0.89439 0.9633 0.24769 0.0
O601 O 0.86367 0.97971 0.25848 0.0
O602 O 0.90953 0.00337 0.28443 0.0
O603 O 0.87849 0.99882 0.30723 0.0
C604 C 0.77791 0.9313 0.30343 0.0
C605 C 0.76563 0.94245 0.28561 0.0
H606 H 0.74846 0.9678 0.24994 0.0
H607 H 0.77385 0.99933 0.23013 0.0
H608 H 0.85287 0.92298 0.33934 0.0
H609 H 0.80816 0.91122 0.33391 0.0
H610 H 0.76767 0.91826 0.31353 0.0
H611 H 0.74613 0.93785 0.2823 0.0
Mn612 Mn 0.27166 0.6438 0.52876 0.0
Mn613 Mn 0.25403 0.59817 0.48475 0.0
C614 C 0.2313 0.62622 0.52133 0.0
C615 C 0.28557 0.66033 0.56797 0.0
C616 C 0.26785 0.65016 0.47521 0.0
O617 O 0.30332 0.63185 0.52273 0.0
O618 O 0.28795 0.59939 0.49668 0.0
C619 C 0.25734 0.55609 0.51255 0.0
N620 N 0.24451 0.56797 0.49722 0.0
C621 C 0.21344 0.53319 0.48762 0.0
C622 C 0.2263 0.52048 0.50327 0.0
C623 C 0.24818 0.5321 0.51605 0.0
C624 C 0.22295 0.55732 0.48572 0.0
H625 H 0.27446 0.56483 0.52183 0.0
C626 C 0.30537 0.6125 0.51013 0.0
O627 O 0.28881 0.67242 0.54941 0.0
O628 O 0.27526 0.63789 0.56373 0.0
N629 N 0.22119 0.59454 0.47131 0.0
C630 C 0.21041 0.60982 0.45811 0.0
C631 C 0.18817 0.60122 0.44446 0.0
C632 C 0.17772 0.57683 0.44387 0.0
C633 C 0.18916 0.56147 0.45766 0.0
C634 C 0.21078 0.5713 0.47163 0.0
H635 H 0.21899 0.62827 0.45755 0.0
O636 O 0.23742 0.6479 0.53195 0.0
O637 O 0.24884 0.6154 0.51539 0.0
O638 O 0.27077 0.65891 0.49705 0.0
O639 O 0.26293 0.62772 0.46873 0.0
C640 C 0.18008 0.53674 0.45798 0.0
C641 C 0.19189 0.52275 0.47341 0.0
H642 H 0.21961 0.5018 0.50553 0.0
H643 H 0.25822 0.52242 0.52815 0.0
H644 H 0.17945 0.61319 0.43388 0.0
H645 H 0.16085 0.57013 0.43288 0.0
H646 H 0.16356 0.52852 0.44708 0.0
H647 H 0.18431 0.50397 0.4741 0.0
Mn648 Mn 0.39362 0.49779 0.7475 0.0
Mn649 Mn 0.3487 0.49013 0.78491 0.0
C650 C 0.3725 0.45881 0.75206 0.0
C651 C 0.4106 0.50443 0.71058 0.0
C652 C 0.40197 0.50078 0.80283 0.0
O653 O 0.38447 0.53195 0.7515 0.0
O654 O 0.35397 0.52267 0.77452 0.0
C655 C 0.30658 0.49562 0.75159 0.0
N656 N 0.31716 0.48305 0.76804 0.0
C657 C 0.279 0.45872 0.77309 0.0
C658 C 0.26764 0.47126 0.75607 0.0
C659 C 0.28155 0.48961 0.74508 0.0
C660 C 0.30409 0.46486 0.77808 0.0
H661 H 0.31713 0.51031 0.74385 0.0
C662 C 0.36677 0.53746 0.76267 0.0
O663 O 0.4231 0.50933 0.73134 0.0
O664 O 0.38762 0.49636 0.71096 0.0
N665 N 0.3409 0.45954 0.79704 0.0
C666 C 0.35484 0.44891 0.81257 0.0
C667 C 0.3437 0.4317 0.82672 0.0
C668 C 0.31837 0.42541 0.82446 0.0
C669 C 0.30453 0.4353 0.80707 0.0
C670 C 0.31663 0.4528 0.79396 0.0
H671 H 0.37424 0.45407 0.81459 0.0
O672 O 0.39412 0.46202 0.74497 0.0
O673 O 0.36357 0.47833 0.75637 0.0
O674 O 0.41011 0.50166 0.78226 0.0
O675 O 0.37949 0.49706 0.80542 0.0
C676 C 0.27916 0.42916 0.80282 0.0
C677 C 0.26643 0.44061 0.78557 0.0
H678 H 0.24827 0.46707 0.75143 0.0
H679 H 0.27289 0.49948 0.73206 0.0
H680 H 0.35455 0.42362 0.83961 0.0
H681 H 0.30979 0.41263 0.83592 0.0
H682 H 0.26929 0.41562 0.81265 0.0
H683 H 0.24697 0.43559 0.78228 0.0
Mn684 Mn 0.63237 0.00039 0.76308 0.0
Mn685 Mn 0.67898 0.02081 0.80595 0.0
C686 C 0.64965 0.04086 0.7675 0.0
C687 C 0.61336 0.98597 0.72496 0.0
C688 C 0.62708 0.01003 0.8169 0.0
O689 O 0.64461 0.96933 0.76978 0.0
O690 O 0.67425 0.98555 0.79863 0.0
C691 C 0.71947 0.00832 0.77949 0.0
N692 N 0.7094 0.02476 0.7926 0.0
C693 C 0.74687 0.05281 0.79785 0.0
C694 C 0.75766 0.0362 0.78434 0.0
C695 C 0.74383 0.01395 0.77494 0.0
C696 C 0.72237 0.04645 0.80121 0.0
H697 H 0.70909 0.99093 0.77285 0.0
C698 C 0.66208 0.96756 0.78525 0.0
O699 O 0.60264 0.9829 0.74439 0.0
O700 O 0.63616 0.99562 0.72765 0.0
N701 N 0.68656 0.05457 0.81553 0.0
C702 C 0.67347 0.06842 0.82839 0.0
C703 C 0.68483 0.09084 0.83987 0.0
C704 C 0.70945 0.09898 0.83775 0.0
C705 C 0.72251 0.08453 0.82425 0.0
C706 C 0.71033 0.06214 0.81362 0.0
H707 H 0.65465 0.06212 0.8304 0.0
O708 O 0.62736 0.03369 0.7587 0.0
O709 O 0.66158 0.0242 0.7743 0.0
O710 O 0.6185 0.00198 0.79559 0.0
O711 O 0.64941 0.01796 0.82266 0.0
C712 C 0.74732 0.09115 0.82155 0.0
C713 C 0.75946 0.07537 0.80821 0.0
H714 H 0.77654 0.04033 0.78113 0.0
H715 H 0.75206 0.00101 0.76458 0.0
H716 H 0.67465 0.10184 0.85036 0.0
H717 H 0.71816 0.11629 0.84666 0.0
H718 H 0.75723 0.10834 0.82962 0.0
H719 H 0.77848 0.08073 0.80609 0.0
Mn720 Mn 0.75988 0.63782 0.00407 0.0
Mn721 Mn 0.75176 0.59272 0.95964 0.0
C722 C 0.72087 0.61878 0.98936 0.0
C723 C 0.76464 0.65198 0.04481 0.0
C724 C 0.76735 0.64537 0.95136 0.0
O725 O 0.79307 0.62664 0.00541 0.0
O726 O 0.78397 0.59425 0.97789 0.0
C727 C 0.74983 0.55069 0.98843 0.0
N728 N 0.73957 0.56255 0.97111 0.0
C729 C 0.70566 0.53025 0.96256 0.0
C730 C 0.71609 0.51749 0.97999 0.0
C731 C 0.73816 0.52787 0.99313 0.0
C732 C 0.71806 0.55298 0.95876 0.0
H733 H 0.76667 0.55869 0.9987 0.0
C734 C 0.79835 0.60765 0.99442 0.0
O735 O 0.77214 0.66576 0.02848 0.0
O736 O 0.75545 0.62976 0.03768 0.0
N737 N 0.72093 0.58925 0.94132 0.0
C738 C 0.71202 0.605 0.92719 0.0
C739 C 0.68923 0.59812 0.91411 0.0
C740 C 0.67598 0.57504 0.91545 0.0
C741 C 0.68552 0.55917 0.93014 0.0
C742 C 0.70816 0.56715 0.94302 0.0
H743 H 0.72219 0.62269 0.92592 0.0
O744 O 0.72456 0.64058 0.9998 0.0
O745 O 0.74019 0.60933 0.98726 0.0
O746 O 0.76589 0.65392 0.9729 0.0
O747 O 0.76372 0.62279 0.94501 0.0
C748 C 0.67335 0.53584 0.9327 0.0
C749 C 0.68329 0.52147 0.94907 0.0
H750 H 0.70712 0.49989 0.98369 0.0
H751 H 0.74616 0.51828 0.00686 0.0
H752 H 0.68194 0.61053 0.90292 0.0
H753 H 0.65844 0.56976 0.90528 0.0
H754 H 0.65607 0.52896 0.92252 0.0
H755 H 0.67341 0.50382 0.9514 0.0
Mn756 Mn 0.8947 0.51438 0.78159 0.0
Mn757 Mn 0.84952 0.50896 0.81788 0.0
C758 C 0.87728 0.47697 0.79089 0.0
C759 C 0.91119 0.5159 0.7451 0.0
C760 C 0.90197 0.52461 0.8365 0.0
O761 O 0.88258 0.54594 0.77919 0.0
O762 O 0.85387 0.54128 0.80524 0.0
C763 C 0.80829 0.51091 0.7819 0.0
N764 N 0.81904 0.49923 0.79908 0.0
C765 C 0.78423 0.46783 0.79631 0.0
C766 C 0.77276 0.47957 0.77867 0.0
C767 C 0.78489 0.50116 0.77137 0.0
C768 C 0.80755 0.47841 0.80617 0.0
H769 H 0.81743 0.52758 0.77632 0.0
C770 C 0.86588 0.55334 0.79031 0.0
O771 O 0.92343 0.5255 0.76513 0.0
O772 O 0.88867 0.50636 0.74601 0.0
N773 N 0.843 0.47844 0.83073 0.0
C774 C 0.85739 0.46831 0.84632 0.0
C775 C 0.84845 0.44598 0.85441 0.0
C776 C 0.82475 0.43446 0.84662 0.0
C777 C 0.81031 0.4452 0.8305 0.0
C778 C 0.82025 0.46739 0.82292 0.0
H779 H 0.87563 0.47707 0.85232 0.0
O780 O 0.89941 0.4808 0.78522 0.0
O781 O 0.86604 0.49538 0.79159 0.0
O782 O 0.90975 0.52481 0.81582 0.0
O783 O 0.8797 0.51846 0.83956 0.0
C784 C 0.78657 0.4346 0.82137 0.0
C785 C 0.77356 0.44588 0.80425 0.0
H786 H 0.75472 0.47209 0.77048 0.0
H787 H 0.77617 0.5103 0.75773 0.0
H788 H 0.85979 0.43769 0.86667 0.0
H789 H 0.8179 0.41726 0.85294 0.0
H790 H 0.77825 0.41762 0.82715 0.0
H791 H 0.75549 0.43734 0.79705 0.0
Mn792 Mn 0.75856 0.37737 0.51119 0.0
Mn793 Mn 0.7631 0.42152 0.47384 0.0
C794 C 0.79571 0.39532 0.50168 0.0
C795 C 0.75783 0.36138 0.54795 0.0
C796 C 0.74926 0.36898 0.45626 0.0
O797 O 0.72658 0.38879 0.51337 0.0
O798 O 0.73029 0.41589 0.48569 0.0
C799 C 0.75844 0.46242 0.50887 0.0
N800 N 0.77109 0.45225 0.49221 0.0
C801 C 0.80097 0.48827 0.49486 0.0
C802 C 0.78819 0.49913 0.51193 0.0
C803 C 0.76689 0.4861 0.51903 0.0
C804 C 0.79167 0.46461 0.48534 0.0
H805 H 0.74198 0.45261 0.51431 0.0
C806 C 0.71856 0.40451 0.50127 0.0
O807 O 0.74819 0.34887 0.5281 0.0
O808 O 0.76679 0.38391 0.54675 0.0
N809 N 0.79399 0.42943 0.46171 0.0
C810 C 0.80542 0.41563 0.44689 0.0
C811 C 0.82758 0.42562 0.43896 0.0
C812 C 0.83767 0.44974 0.44621 0.0
C813 C 0.82577 0.46351 0.46176 0.0
C814 C 0.80377 0.45255 0.46913 0.0
H815 H 0.79792 0.39702 0.44156 0.0
O816 O 0.79247 0.37336 0.50765 0.0
O817 O 0.77695 0.40606 0.50076 0.0
O818 O 0.74812 0.36176 0.47713 0.0
O819 O 0.75555 0.39101 0.45268 0.0
C820 C 0.83508 0.48754 0.47056 0.0
C821 C 0.82271 0.4999 0.48713 0.0
H822 H 0.79465 0.51739 0.51983 0.0
H823 H 0.75695 0.49434 0.53225 0.0
H824 H 0.83686 0.41475 0.42729 0.0
H825 H 0.85472 0.45741 0.43996 0.0
H826 H 0.85191 0.4966 0.46497 0.0
H827 H 0.83026 0.51824 0.49407 0.0
Mn828 Mn 0.63546 0.51151 0.28696 0.0
Mn829 Mn 0.6808 0.52198 0.33191 0.0
C830 C 0.65422 0.55076 0.30002 0.0
C831 C 0.61979 0.5052 0.24654 0.0
C832 C 0.62798 0.50777 0.34049 0.0
O833 O 0.64705 0.4789 0.28679 0.0
O834 O 0.67766 0.48848 0.31645 0.0
C835 C 0.72308 0.51827 0.30433 0.0
N836 N 0.71154 0.53108 0.31998 0.0
C837 C 0.74614 0.56276 0.3274 0.0
C838 C 0.75842 0.54989 0.3114 0.0
C839 C 0.74678 0.52762 0.29971 0.0
C840 C 0.72249 0.55263 0.33114 0.0
H841 H 0.71434 0.50101 0.29554 0.0
C842 C 0.6651 0.47374 0.29966 0.0
O843 O 0.60668 0.49884 0.26374 0.0
O844 O 0.64243 0.51412 0.25257 0.0
N845 N 0.68607 0.55393 0.34772 0.0
C846 C 0.67087 0.56513 0.36063 0.0
C847 C 0.67922 0.58826 0.3723 0.0
C848 C 0.70318 0.59946 0.37088 0.0
C849 C 0.71844 0.58759 0.35739 0.0
C850 C 0.70898 0.56477 0.3458 0.0
H851 H 0.6525 0.55653 0.3619 0.0
O852 O 0.63217 0.54635 0.2899 0.0
O853 O 0.66444 0.53201 0.3029 0.0
O854 O 0.61965 0.50628 0.31844 0.0
O855 O 0.65051 0.51332 0.3473 0.0
C856 C 0.7426 0.59759 0.35482 0.0
C857 C 0.75637 0.5853 0.33965 0.0
H858 H 0.77672 0.557 0.30785 0.0
H859 H 0.75612 0.5176 0.2873 0.0
H860 H 0.66726 0.59738 0.3825 0.0
H861 H 0.70959 0.61725 0.38 0.0
H862 H 0.75066 0.61492 0.36413 0.0
H863 H 0.77473 0.59346 0.33736 0.0
Zn864 Zn 0.03114 0.99379 0.0309 0.0
Zn865 Zn 0.98697 0.01571 0.00406 0.0
C866 C 0.99619 0.9497 0.03263 0.0
O867 O 0.98182 0.96219 0.04348 0.0
C868 C 0.00271 0.06832 0.00671 0.0
O869 O 0.99249 0.06984 0.02699 0.0
O870 O 0.06407 0.98608 0.041 0.0
O871 O 0.03631 0.01266 0.00196 0.0
O872 O 0.00272 0.99247 0.98314 0.0
C873 C 0.06995 0.97104 0.02533 0.0
O874 O 0.05591 0.96457 0.00515 0.0
O875 O 0.01242 0.9604 0.0209 0.0
C876 C 0.93512 0.01134 0.00163 0.0
O877 O 0.93669 0.997 0.01887 0.0
O878 O 0.95345 0.0175 0.99026 0.0
O879 O 0.98406 0.01509 0.04028 0.0
O880 O 0.01703 0.00722 0.06001 0.0
O881 O 0.00396 0.04777 0.99654 0.0
C882 C 0.02473 0.00205 0.98259 0.0
C883 C 0.99615 0.01299 0.06002 0.0
Zn884 Zn 0.26089 0.75817 0.28819 0.0
Zn885 Zn 0.2765 0.76169 0.24081 0.0
C886 C 0.23176 0.71332 0.27741 0.0
O887 O 0.21647 0.72619 0.28614 0.0
C888 C 0.30652 0.80634 0.25135 0.0
O889 O 0.32022 0.79357 0.2397 0.0
O890 O 0.2539 0.75646 0.32284 0.0
O891 O 0.29657 0.76928 0.28859 0.0
O892 O 0.29952 0.74302 0.25834 0.0
C893 C 0.26955 0.74726 0.33499 0.0
O894 O 0.28811 0.74128 0.32471 0.0
O895 O 0.2534 0.72322 0.27587 0.0
C896 C 0.26783 0.77914 0.1983 0.0
O897 O 0.25344 0.78748 0.21299 0.0
O898 O 0.2819 0.76529 0.20596 0.0
O899 O 0.24052 0.74985 0.23986 0.0
O900 O 0.23768 0.77587 0.27026 0.0
O901 O 0.28532 0.79639 0.25492 0.0
C902 C 0.30821 0.75445 0.27853 0.0
C903 C 0.22847 0.76384 0.25059 0.0
Zn904 Zn 0.49324 0.02272 0.53375 0.0
Zn905 Zn 0.54115 0.00525 0.52074 0.0
C906 C 0.51766 0.07294 0.5319 0.0
O907 O 0.50512 0.07283 0.51099 0.0
C908 C 0.51937 0.96306 0.49245 0.0
O909 O 0.53018 0.97559 0.47639 0.0
O910 O 0.45985 0.0331 0.53604 0.0
O911 O 0.49449 0.00977 0.49944 0.0
O912 O 0.53185 0.02603 0.49454 0.0
C913 C 0.44769 0.03676 0.51674 0.0
O914 O 0.45564 0.03165 0.4958 0.0
O915 O 0.51601 0.0538 0.54249 0.0
C916 C 0.57779 0.97918 0.53235 0.0
O917 O 0.56029 0.9699 0.54473 0.0
O918 O 0.57476 0.99646 0.51965 0.0
O919 O 0.54023 0.0185 0.55477 0.0
O920 O 0.50298 0.00164 0.55962 0.0
O921 O 0.52012 0.9725 0.51398 0.0
C922 C 0.50972 0.02014 0.48643 0.0
C923 C 0.52512 0.008 0.56781 0.0
Zn924 Zn 0.28422 0.24726 0.76485 0.0
Zn925 Zn 0.23595 0.26046 0.77351 0.0
C926 C 0.27474 0.21826 0.72165 0.0
O927 O 0.285 0.20527 0.73663 0.0
C928 C 0.24668 0.28963 0.81683 0.0
O929 O 0.2362 0.30262 0.80202 0.0
O930 O 0.31956 0.24513 0.76242 0.0
O931 O 0.28447 0.28225 0.77571 0.0
O932 O 0.2519 0.28565 0.75279 0.0
C933 C 0.32976 0.26198 0.75097 0.0
O934 O 0.31726 0.27817 0.7437 0.0
O935 O 0.27071 0.23877 0.72979 0.0
C936 C 0.19442 0.25024 0.79499 0.0
O937 O 0.20881 0.23606 0.80337 0.0
O938 O 0.20125 0.26333 0.77839 0.0
O939 O 0.23423 0.22516 0.76239 0.0
O940 O 0.26735 0.22173 0.78448 0.0
O941 O 0.251 0.26929 0.80843 0.0
C942 C 0.27317 0.29448 0.76207 0.0
C943 C 0.24615 0.21264 0.7751 0.0
Zn944 Zn 0.02657 0.98809 0.53106 0.0
Zn945 Zn 0.008 0.03535 0.51512 0.0
C946 C 0.05954 0.99619 0.57247 0.0
O947 O 0.07135 0.98564 0.55657 0.0
C948 C 0.98206 0.02257 0.47152 0.0
O949 O 0.96809 0.03314 0.48509 0.0
O950 O 0.0318 0.95372 0.53098 0.0
O951 O 0.99012 0.9839 0.5272 0.0
O952 O 0.98116 0.02027 0.5343 0.0
C953 C 0.02152 0.9443 0.54823 0.0
O954 O 0.00987 0.95718 0.56225 0.0
O955 O 0.03924 0.00172 0.56543 0.0
C956 C 0.01713 0.07547 0.49019 0.0
O957 O 0.03189 0.06133 0.48266 0.0
O958 O 0.00437 0.06928 0.50726 0.0
O959 O 0.04302 0.03878 0.52863 0.0
O960 O 0.04767 0.00563 0.50799 0.0
O961 O 0.00174 0.01787 0.48137 0.0
C962 C 0.97526 0.99745 0.53319 0.0
C963 C 0.05598 0.02726 0.51612 0.0
Zn964 Zn 0.25538 0.77775 0.76233 0.0
Zn965 Zn 0.27063 0.72763 0.77275 0.0
C966 C 0.21265 0.75535 0.73427 0.0
O967 O 0.2248 0.76499 0.71735 0.0
C968 C 0.31099 0.74245 0.80347 0.0
O969 O 0.29721 0.72691 0.81486 0.0
O970 O 0.24709 0.81194 0.76164 0.0
O971 O 0.26748 0.77445 0.79655 0.0
O972 O 0.24904 0.73704 0.79801 0.0
C973 C 0.23209 0.8162 0.77677 0.0
O974 O 0.22481 0.79941 0.79078 0.0
O975 O 0.2226 0.75739 0.75571 0.0
C976 C 0.2886 0.68546 0.75616 0.0
O977 O 0.28932 0.69706 0.73673 0.0
O978 O 0.27915 0.69387 0.77431 0.0
O979 O 0.25962 0.73053 0.7382 0.0
O980 O 0.2762 0.76833 0.73604 0.0
O981 O 0.30331 0.74749 0.78275 0.0
C982 C 0.25592 0.75839 0.80792 0.0
C983 C 0.27094 0.74661 0.72677 0.0
Zn984 Zn 0.5168 0.01408 0.00422 0.0
Zn985 Zn 0.50969 0.00169 0.05201 0.0
C986 C 0.56117 0.04334 0.01657 0.0
O987 O 0.5487 0.05744 0.00514 0.0
C988 C 0.46427 0.97396 0.04247 0.0
O989 O 0.47569 0.96168 0.05729 0.0
O990 O 0.52089 0.01712 0.96907 0.0
O991 O 0.50405 0.97902 0.00539 0.0
O992 O 0.52788 0.97647 0.03778 0.0
C993 C 0.53505 0.00308 0.9622 0.0
O994 O 0.54329 0.9894 0.97776 0.0
O995 O 0.55124 0.02201 0.01916 0.0
C996 C 0.48905 0.01232 0.09232 0.0
O997 O 0.4816 0.02572 0.07606 0.0
O998 O 0.50425 0.99884 0.08692 0.0
O999 O 0.52232 0.03689 0.05137 0.0
O1000 O 0.49904 0.03927 0.01856 0.0
O1001 O 0.47551 0.99342 0.03605 0.0
C1002 C 0.51702 0.96698 0.01756 0.0
C1003 C 0.50948 0.04881 0.03891 0.0
Zn1004 Zn 0.26732 0.23712 0.25802 0.0
Zn1005 Zn 0.25524 0.28017 0.28193 0.0
C1006 C 0.30981 0.25314 0.24084 0.0
O1007 O 0.29547 0.24124 0.22258 0.0
C1008 C 0.20076 0.24695 0.27317 0.0
O1009 O 0.19514 0.23228 0.25336 0.0
O1010 O 0.2751 0.20389 0.24826 0.0
O1011 O 0.25404 0.23231 0.29027 0.0
O1012 O 0.27375 0.26623 0.30869 0.0
C1013 C 0.29132 0.20011 0.26418 0.0
O1014 O 0.2975 0.21581 0.28317 0.0
O1015 O 0.3014 0.2563 0.26111 0.0
C1016 C 0.23206 0.3175 0.2776 0.0
O1017 O 0.22465 0.30258 0.25823 0.0
O1018 O 0.24798 0.31251 0.293 0.0
O1019 O 0.2688 0.2857 0.2497 0.0
O1020 O 0.24856 0.25176 0.23145 0.0
O1021 O 0.22171 0.25975 0.27658 0.0
C1022 C 0.26444 0.2443 0.30953 0.0
C1023 C 0.25798 0.27372 0.23055 0.0
Zn1024 Zn 0.52722 0.48563 0.02969 0.0
Zn1025 Zn 0.50941 0.53262 0.01463 0.0
C1026 C 0.55545 0.50646 0.07374 0.0
O1027 O 0.57307 0.5033 0.06042 0.0
C1028 C 0.48393 0.52329 0.96988 0.0
O1029 O 0.46976 0.53324 0.98373 0.0
O1030 O 0.53332 0.45194 0.03492 0.0
O1031 O 0.4917 0.48054 0.0179 0.0
O1032 O 0.48368 0.5149 0.03387 0.0
C1033 C 0.52225 0.44406 0.05248 0.0
O1034 O 0.50824 0.45722 0.0631 0.0
O1035 O 0.5337 0.50188 0.06414 0.0
C1036 C 0.52041 0.57716 0.99689 0.0
O1037 O 0.53832 0.56618 0.99126 0.0
O1038 O 0.50458 0.56684 0.00949 0.0
O1039 O 0.54465 0.53631 0.02744 0.0
O1040 O 0.55118 0.50272 0.00872 0.0
O1041 O 0.50341 0.51802 0.97964 0.0
C1042 C 0.47724 0.49245 0.02774 0.0
C1043 C 0.55827 0.52489 0.01567 0.0
Zn1044 Zn 0.75381 0.27868 0.26265 0.0
Zn1045 Zn 0.77397 0.23013 0.27822 0.0
C1046 C 0.71357 0.26255 0.23071 0.0
O1047 O 0.72715 0.27779 0.21883 0.0
C1048 C 0.8157 0.24478 0.30657 0.0
O1049 O 0.80229 0.229 0.31806 0.0
O1050 O 0.74691 0.31341 0.26056 0.0
O1051 O 0.76099 0.27653 0.29831 0.0
O1052 O 0.75299 0.23779 0.30422 0.0
C1053 C 0.72762 0.31637 0.27018 0.0
O1054 O 0.71529 0.29785 0.27899 0.0
O1055 O 0.72153 0.25826 0.25156 0.0
C1056 C 0.79527 0.19093 0.2614 0.0
O1057 O 0.79891 0.20535 0.24424 0.0
O1058 O 0.7831 0.19675 0.27858 0.0
O1059 O 0.75956 0.23166 0.24458 0.0
O1060 O 0.77683 0.26829 0.23895 0.0
O1061 O 0.80662 0.25109 0.28691 0.0
C1062 C 0.75359 0.25982 0.31129 0.0
C1063 C 0.77026 0.24621 0.2312 0.0
Zn1064 Zn 0.01611 0.51785 0.50456 0.0
Zn1065 Zn 0.01203 0.50176 0.55114 0.0
C1066 C 0.06009 0.5488 0.52053 0.0
O1067 O 0.04744 0.56449 0.51225 0.0
C1068 C 0.96795 0.47201 0.54174 0.0
O1069 O 0.98035 0.45993 0.55587 0.0
O1070 O 0.01844 0.52488 0.46997 0.0
O1071 O 0.00702 0.48193 0.50258 0.0
O1072 O 0.03105 0.4785 0.53467 0.0
C1073 C 0.03509 0.51514 0.46128 0.0
O1074 O 0.04731 0.50236 0.47473 0.0
O1075 O 0.05061 0.52675 0.51918 0.0
C1076 C 0.99243 0.51011 0.59247 0.0
O1077 O 0.98306 0.52281 0.57665 0.0
O1078 O 0.00772 0.4971 0.58606 0.0
O1079 O 0.02232 0.53769 0.55243 0.0
O1080 O 0.99624 0.53975 0.5217 0.0
O1081 O 0.97802 0.49213 0.53571 0.0
C1082 C 0.02078 0.46993 0.51388 0.0
C1083 C 0.00769 0.54911 0.54165 0.0
Zn1084 Zn 0.78544 0.74299 0.26224 0.0
Zn1085 Zn 0.73927 0.76311 0.28142 0.0
C1086 C 0.77205 0.7104 0.22071 0.0
O1087 O 0.78117 0.69686 0.2359 0.0
C1088 C 0.76388 0.7883 0.32494 0.0
O1089 O 0.76384 0.8063 0.31148 0.0
O1090 O 0.81966 0.73689 0.2612 0.0
O1091 O 0.79065 0.77934 0.26641 0.0
O1092 O 0.75433 0.78937 0.26203 0.0
C1093 C 0.82925 0.74897 0.24512 0.0
O1094 O 0.81612 0.76118 0.23195 0.0
O1095 O 0.77023 0.73177 0.22828 0.0
C1096 C 0.69638 0.75227 0.30205 0.0
O1097 O 0.70744 0.73416 0.30662 0.0
O1098 O 0.70625 0.76839 0.28958 0.0
O1099 O 0.73425 0.72882 0.26607 0.0
O1100 O 0.76759 0.72215 0.28539 0.0
O1101 O 0.7563 0.76695 0.31537 0.0
C1102 C 0.77708 0.7944 0.26113 0.0
C1103 C 0.74561 0.7149 0.27743 0.0
Zn1104 Zn 0.75888 0.25601 0.78907 0.0
Zn1105 Zn 0.77178 0.25951 0.741 0.0
C1106 C 0.72734 0.21271 0.78268 0.0
O1107 O 0.71668 0.22624 0.79713 0.0
C1108 C 0.80238 0.30415 0.74906 0.0
O1109 O 0.8138 0.29211 0.73396 0.0
O1110 O 0.75686 0.25479 0.82502 0.0
O1111 O 0.79465 0.26459 0.78687 0.0
O1112 O 0.79465 0.239 0.75516 0.0
C1113 C 0.76974 0.23954 0.83177 0.0
O1114 O 0.78054 0.22834 0.81549 0.0
O1115 O 0.74748 0.22149 0.77558 0.0
C1116 C 0.76173 0.27862 0.6996 0.0
O1117 O 0.74836 0.28718 0.71524 0.0
O1118 O 0.77509 0.26365 0.70598 0.0
O1119 O 0.73614 0.24903 0.7422 0.0
O1120 O 0.73519 0.27506 0.77323 0.0
O1121 O 0.7827 0.29378 0.75602 0.0
C1122 C 0.80487 0.24962 0.77512 0.0
C1123 C 0.7249 0.26322 0.75376 0.0
Zn1124 Zn 0.76565 0.73341 0.75482 0.0
Zn1125 Zn 0.75572 0.77824 0.78248 0.0
C1126 C 0.80482 0.74906 0.7324 0.0
O1127 O 0.78911 0.73569 0.71613 0.0
C1128 C 0.71905 0.76653 0.81023 0.0
O1129 O 0.73754 0.77803 0.82481 0.0
O1130 O 0.77234 0.69975 0.74592 0.0
O1131 O 0.7554 0.73064 0.78878 0.0
O1132 O 0.77906 0.76366 0.80464 0.0
C1133 C 0.79062 0.69688 0.75978 0.0
O1134 O 0.79989 0.71387 0.77694 0.0
O1135 O 0.79902 0.75265 0.7538 0.0
C1136 C 0.73508 0.81763 0.78125 0.0
O1137 O 0.72284 0.80174 0.76448 0.0
O1138 O 0.75295 0.81228 0.79397 0.0
O1139 O 0.76092 0.78258 0.74735 0.0
O1140 O 0.74554 0.74705 0.72855 0.0
O1141 O 0.72208 0.76155 0.78814 0.0
C1142 C 0.76881 0.74224 0.80672 0.0
C1143 C 0.7516 0.76976 0.72816 0.0
Zn1144 Zn 0.5357 0.5014 0.53214 0.0
Zn1145 Zn 0.49003 0.51285 0.50704 0.0
C1146 C 0.52689 0.46294 0.55817 0.0
O1147 O 0.53939 0.48051 0.57312 0.0
C1148 C 0.50466 0.55309 0.48485 0.0
O1149 O 0.49067 0.53779 0.46869 0.0
O1150 O 0.57076 0.49821 0.54137 0.0
O1151 O 0.53722 0.50721 0.49634 0.0
O1152 O 0.50048 0.4919 0.48011 0.0
C1153 C 0.57433 0.47981 0.52828 0.0
O1154 O 0.55735 0.46938 0.51151 0.0
O1155 O 0.51982 0.46736 0.53698 0.0
C1156 C 0.45276 0.53488 0.51642 0.0
O1157 O 0.4692 0.54187 0.53473 0.0
O1158 O 0.45674 0.51989 0.49959 0.0
O1159 O 0.48749 0.49988 0.53984 0.0
O1160 O 0.52076 0.52225 0.55704 0.0
O1161 O 0.50906 0.54669 0.50596 0.0
C1162 C 0.52303 0.49711 0.47821 0.0
C1163 C 0.49926 0.51154 0.55863 0.0
Zn1164 Zn 0.99536 0.52127 0.03067 0.0
Zn1165 Zn 0.0435 0.50326 0.0158 0.0
C1166 C 0.0108 0.56177 0.05977 0.0
O1167 O 0.99747 0.54727 0.07257 0.0
C1168 C 0.02559 0.46079 0.99186 0.0
O1169 O 0.03948 0.47291 0.97758 0.0
O1170 O 0.96058 0.52802 0.0339 0.0
O1171 O 0.9963 0.51156 0.99509 0.0
O1172 O 0.03475 0.52299 0.98917 0.0
C1173 C 0.95565 0.54396 0.02014 0.0
O1174 O 0.97211 0.55275 0.00639 0.0
O1175 O 0.01459 0.55419 0.03867 0.0
C1176 C 0.07942 0.47581 0.02765 0.0
O1177 O 0.06276 0.46878 0.04194 0.0
O1178 O 0.07618 0.49216 0.01379 0.0
O1179 O 0.04433 0.51924 0.0487 0.0
O1180 O 0.00851 0.5013 0.05631 0.0
O1181 O 0.02092 0.47158 0.01127 0.0
C1182 C 0.01242 0.52006 0.98188 0.0
C1183 C 0.03103 0.50797 0.06279 0.0
C1184 C 0.98291 0.16927 0.92165 0.0
C1185 C 0.00326 0.18665 0.91999 0.0
C1186 C 0.9846 0.14972 0.93536 0.0
C1187 C 0.00729 0.14739 0.94712 0.0
C1188 C 0.02812 0.16432 0.94434 0.0
C1189 C 0.02575 0.18403 0.93112 0.0
C1190 C 0.96193 0.13221 0.93821 0.0
C1191 C 0.05269 0.16213 0.95608 0.0
C1192 C 0.00458 0.11233 0.00241 0.0
C1193 C 0.00756 0.0895 0.99273 0.0
C1194 C 0.00539 0.13163 0.98795 0.0
C1195 C 0.00897 0.12786 0.96318 0.0
C1196 C 0.01306 0.10515 0.95358 0.0
C1197 C 0.0125 0.08631 0.9685 0.0
C1198 C 0.00141 0.15577 0.99893 0.0
C1199 C 0.0169 0.10041 0.92727 0.0
H1200 H 0.96548 0.17172 0.91336 0.0
H1201 H 0.04139 0.19774 0.9299 0.0
H1202 H 0.96448 0.11352 0.93295 0.0
H1203 H 0.95815 0.13312 0.95744 0.0
H1204 H 0.94591 0.13601 0.92715 0.0
H1205 H 0.0673 0.17578 0.95067 0.0
H1206 H 0.0527 0.16437 0.97601 0.0
H1207 H 0.05687 0.14395 0.95122 0.0
H1208 H 0.00085 0.11497 0.0211 0.0
H1209 H 0.01488 0.06874 0.9608 0.0
H1210 H 0.98424 0.16005 0.99057 0.0
H1211 H 0.01619 0.17015 0.99521 0.0
H1212 H 0.00054 0.15618 0.01877 0.0
H1213 H -0.0 0.10125 0.91591 0.0
H1214 H 0.02204 0.08247 0.92317 0.0
H1215 H 0.0312 0.11442 0.922 0.0
C1216 C 0.09492 0.77712 0.20256 0.0
C1217 C 0.0926 0.78028 0.17785 0.0
C1218 C 0.11722 0.77498 0.21446 0.0
C1219 C 0.13794 0.7769 0.20155 0.0
C1220 C 0.13596 0.78102 0.17679 0.0
C1221 C 0.11315 0.78224 0.16507 0.0
C1222 C 0.11839 0.76973 0.24064 0.0
C1223 C 0.15783 0.78372 0.16263 0.0
C1224 C 0.19813 0.78985 0.24016 0.0
C1225 C 0.20494 0.7671 0.23904 0.0
C1226 C 0.17668 0.79348 0.22741 0.0
C1227 C 0.16143 0.77369 0.21391 0.0
C1228 C 0.16809 0.75056 0.21313 0.0
C1229 C 0.18998 0.74763 0.22543 0.0
C1230 C 0.17045 0.81849 0.22817 0.0
C1231 C 0.15193 0.72885 0.19965 0.0
H1232 H 0.07901 0.77518 0.21244 0.0
H1233 H 0.11137 0.7846 0.14595 0.0
H1234 H 0.1249 0.7524 0.24252 0.0
H1235 H 0.13148 0.78393 0.25179 0.0
H1236 H 0.10054 0.76863 0.24803 0.0
H1237 H 0.15363 0.78878 0.14412 0.0
H1238 H 0.17245 0.79762 0.17218 0.0
H1239 H 0.16496 0.76654 0.1612 0.0
H1240 H 0.20996 0.80496 0.25039 0.0
H1241 H 0.19531 0.73002 0.22464 0.0
H1242 H 0.15332 0.81881 0.23662 0.0
H1243 H 0.16754 0.8237 0.20953 0.0
H1244 H 0.18484 0.83213 0.23848 0.0
H1245 H 0.13423 0.72593 0.20734 0.0
H1246 H 0.15996 0.7122 0.20057 0.0
H1247 H 0.14835 0.73191 0.18041 0.0
C1248 C 0.52519 0.84047 0.42737 0.0
C1249 C 0.50705 0.82077 0.42901 0.0
C1250 C 0.52604 0.86212 0.44172 0.0
C1251 C 0.50772 0.8643 0.45734 0.0
C1252 C 0.48987 0.84411 0.45971 0.0
C1253 C 0.48995 0.82239 0.44569 0.0
C1254 C 0.54586 0.88302 0.43924 0.0
C1255 C 0.46976 0.84587 0.47574 0.0
C1256 C 0.52054 0.92083 0.50073 0.0
C1257 C 0.51132 0.93714 0.48644 0.0
C1258 C 0.51838 0.89651 0.49211 0.0
C1259 C 0.50609 0.88842 0.46904 0.0
C1260 C 0.49485 0.90451 0.45561 0.0
C1261 C 0.49805 0.92885 0.46428 0.0
C1262 C 0.53109 0.8801 0.50673 0.0
C1263 C 0.48096 0.89643 0.43126 0.0
H1264 H 0.53843 0.83908 0.41447 0.0
H1265 H 0.47572 0.80715 0.44665 0.0
H1266 H 0.53808 0.89714 0.4301 0.0
H1267 H 0.55426 0.89118 0.45731 0.0
H1268 H 0.56023 0.87752 0.42859 0.0
H1269 H 0.45946 0.82789 0.47826 0.0
H1270 H 0.477 0.8552 0.4937 0.0
H1271 H 0.45705 0.85668 0.46745 0.0
H1272 H 0.53114 0.92744 0.51774 0.0
H1273 H 0.491 0.94161 0.45329 0.0
H1274 H 0.54756 0.87686 0.49822 0.0
H1275 H 0.51936 0.86238 0.50703 0.0
H1276 H 0.53661 0.88802 0.52561 0.0
H1277 H 0.49377 0.89317 0.41775 0.0
H1278 H 0.4704 0.9101 0.42491 0.0
H1279 H 0.4684 0.87927 0.43197 0.0
C1280 C 0.45719 0.26453 0.69489 0.0
C1281 C 0.45197 0.26371 0.66973 0.0
C1282 C 0.43886 0.26421 0.71049 0.0
C1283 C 0.4147 0.26306 0.70075 0.0
C1284 C 0.40929 0.2626 0.67545 0.0
C1285 C 0.42799 0.26295 0.66023 0.0
C1286 C 0.44533 0.2648 0.73736 0.0
C1287 C 0.38367 0.26152 0.66444 0.0
C1288 C 0.36166 0.24047 0.7356 0.0
C1289 C 0.35387 0.26206 0.74253 0.0
C1290 C 0.38207 0.24053 0.72267 0.0
C1291 C 0.39502 0.26272 0.71696 0.0
C1292 C 0.38813 0.28462 0.72544 0.0
C1293 C 0.36751 0.284 0.73797 0.0
C1294 C 0.38891 0.21684 0.71389 0.0
C1295 C 0.40174 0.30866 0.72017 0.0
H1296 H 0.47563 0.26513 0.70251 0.0
H1297 H 0.42374 0.26224 0.64087 0.0
H1298 H 0.43882 0.28008 0.74699 0.0
H1299 H 0.43623 0.24806 0.74411 0.0
H1300 H 0.46514 0.26656 0.7421 0.0
H1301 H 0.38247 0.26114 0.64444 0.0
H1302 H 0.37197 0.24522 0.66937 0.0
H1303 H 0.37631 0.27737 0.67173 0.0
H1304 H 0.35095 0.22351 0.73892 0.0
H1305 H 0.36152 0.30072 0.74345 0.0
H1306 H 0.40841 0.21693 0.71888 0.0
H1307 H 0.38586 0.21417 0.6939 0.0
H1308 H 0.37821 0.20134 0.72141 0.0
H1309 H 0.42136 0.30995 0.7255 0.0
H1310 H 0.39525 0.324 0.72978 0.0
H1311 H 0.39955 0.31041 0.70048 0.0
C1312 C 0.02916 0.81913 0.60364 0.0
C1313 C 0.01448 0.81979 0.62269 0.0
C1314 C 0.03172 0.83772 0.58837 0.0
C1315 C 0.01871 0.8569 0.59194 0.0
C1316 C 0.00295 0.85697 0.6105 0.0
C1317 C 0.00139 0.83858 0.626 0.0
C1318 C 0.04913 0.83739 0.56919 0.0
C1319 C 0.98819 0.87676 0.61437 0.0
C1320 C 0.04067 0.91969 0.57569 0.0
C1321 C 0.02507 0.92073 0.55517 0.0
C1322 C 0.03989 0.8984 0.58698 0.0
C1323 C 0.02279 0.87789 0.57759 0.0
C1324 C 0.00794 0.87853 0.55598 0.0
C1325 C 0.00925 0.90012 0.54498 0.0
C1326 C 0.05609 0.89843 0.60994 0.0
C1327 C 0.98942 0.85705 0.54557 0.0
H1328 H 0.03938 0.80455 0.60132 0.0
H1329 H 0.98988 0.8388 0.64066 0.0
H1330 H 0.04031 0.84045 0.55147 0.0
H1331 H 0.0647 0.85223 0.57392 0.0
H1332 H 0.05611 0.82012 0.5673 0.0
H1333 H 0.97516 0.8729 0.62806 0.0
H1334 H 0.0004 0.894 0.62047 0.0
H1335 H 0.97799 0.87928 0.59715 0.0
H1336 H 0.0525 0.93596 0.5837 0.0
H1337 H 0.99684 0.90133 0.52938 0.0
H1338 H 0.06511 0.88237 0.60921 0.0
H1339 H 0.04505 0.89755 0.62554 0.0
H1340 H 0.07016 0.91486 0.61324 0.0
H1341 H 0.9978 0.84063 0.544 0.0
H1342 H 0.98099 0.85974 0.52751 0.0
H1343 H 0.97495 0.8538 0.55789 0.0
C1344 C 0.43566 0.76724 0.8845 0.0
C1345 C 0.45582 0.77295 0.87143 0.0
C1346 C 0.41215 0.76171 0.8728 0.0
C1347 C 0.40845 0.76443 0.84787 0.0
C1348 C 0.42858 0.77054 0.83466 0.0
C1349 C 0.45194 0.77301 0.84639 0.0
C1350 C 0.39152 0.75171 0.88683 0.0
C1351 C 0.42564 0.77478 0.80827 0.0
C1352 C 0.35144 0.73216 0.81084 0.0
C1353 C 0.33639 0.74943 0.81254 0.0
C1354 C 0.37498 0.7368 0.82224 0.0
C1355 C 0.38365 0.75947 0.83535 0.0
C1356 C 0.36856 0.77724 0.83659 0.0
C1357 C 0.34486 0.77188 0.82528 0.0
C1358 C 0.39036 0.71727 0.82053 0.0
C1359 C 0.37736 0.80174 0.85 0.0
H1360 H 0.43829 0.76574 0.90375 0.0
H1361 H 0.46704 0.77396 0.83581 0.0
H1362 H 0.37898 0.76479 0.88879 0.0
H1363 H 0.38102 0.73497 0.87693 0.0
H1364 H 0.39795 0.74754 0.90512 0.0
H1365 H 0.44225 0.77308 0.79934 0.0
H1366 H 0.41033 0.76231 0.79807 0.0
H1367 H 0.4217 0.79325 0.80692 0.0
H1368 H 0.34453 0.71476 0.80102 0.0
H1369 H 0.3328 0.78494 0.82684 0.0
H1370 H 0.39828 0.7145 0.83875 0.0
H1371 H 0.40557 0.72269 0.80957 0.0
H1372 H 0.3799 0.69986 0.81201 0.0
H1373 H 0.38008 0.80003 0.86965 0.0
H1374 H 0.36435 0.81428 0.84707 0.0
H1375 H 0.39509 0.80972 0.8442 0.0
C1376 C 0.47006 0.16116 0.11016 0.0
C1377 C 0.48599 0.18256 0.10865 0.0
C1378 C 0.4722 0.14008 0.09597 0.0
C1379 C 0.49177 0.14017 0.08147 0.0
C1380 C 0.50789 0.16189 0.08002 0.0
C1381 C 0.50441 0.18295 0.09321 0.0
C1382 C 0.4539 0.11758 0.09691 0.0
C1383 C 0.52956 0.16263 0.06563 0.0
C1384 C 0.51485 0.08107 0.07295 0.0
C1385 C 0.50587 0.07277 0.04904 0.0
C1386 C 0.51054 0.10305 0.08355 0.0
C1387 C 0.49692 0.11716 0.06994 0.0
C1388 C 0.48845 0.10923 0.04557 0.0
C1389 C 0.49288 0.08703 0.03545 0.0
C1390 C 0.52047 0.11108 0.10941 0.0
C1391 C 0.47407 0.12371 0.03033 0.0
H1392 H 0.456 0.16095 0.12233 0.0
H1393 H 0.51693 0.19957 0.09245 0.0
H1394 H 0.44677 0.1099 0.07831 0.0
H1395 H 0.46267 0.10381 0.1056 0.0
H1396 H 0.43849 0.1211 0.10711 0.0
H1397 H 0.54012 0.18109 0.06613 0.0
H1398 H 0.54164 0.15069 0.07295 0.0
H1399 H 0.52372 0.15582 0.04654 0.0
H1400 H 0.52497 0.07018 0.08363 0.0
H1401 H 0.48596 0.08075 0.01696 0.0
H1402 H 0.50536 0.1121 0.12083 0.0
H1403 H 0.53148 0.12936 0.11059 0.0
H1404 H 0.53186 0.09865 0.11703 0.0
H1405 H 0.4554 0.12146 0.03579 0.0
H1406 H 0.47313 0.11773 0.01078 0.0
H1407 H 0.48198 0.14308 0.03313 0.0
C1408 C 0.1012 0.29293 0.34769 0.0
C1409 C 0.08821 0.27601 0.361 0.0
C1410 C 0.12087 0.28761 0.33563 0.0
C1411 C 0.12782 0.26474 0.33678 0.0
C1412 C 0.11557 0.24796 0.35112 0.0
C1413 C 0.09595 0.25383 0.36316 0.0
C1414 C 0.13341 0.30608 0.3206 0.0
C1415 C 0.12247 0.22341 0.35283 0.0
C1416 C 0.15762 0.24353 0.28217 0.0
C1417 C 0.18227 0.25003 0.29012 0.0
C1418 C 0.13974 0.24758 0.29742 0.0
C1419 C 0.14663 0.25797 0.32142 0.0
C1420 C 0.17149 0.26365 0.32989 0.0
C1421 C 0.18904 0.2599 0.31404 0.0
C1422 C 0.11348 0.2416 0.28749 0.0
C1423 C 0.17956 0.27429 0.35547 0.0
H1424 H 0.09547 0.31018 0.34603 0.0
H1425 H 0.08594 0.24059 0.37325 0.0
H1426 H 0.15323 0.30928 0.32555 0.0
H1427 H 0.13026 0.29921 0.30123 0.0
H1428 H 0.12686 0.32355 0.32282 0.0
H1429 H 0.11235 0.21308 0.36603 0.0
H1430 H 0.11871 0.21293 0.33488 0.0
H1431 H 0.14214 0.22516 0.35819 0.0
H1432 H 0.15225 0.23598 0.26369 0.0
H1433 H 0.20807 0.26474 0.32037 0.0
H1434 H 0.10572 0.2584 0.28694 0.0
H1435 H 0.10294 0.23002 0.29943 0.0
H1436 H 0.11107 0.23222 0.26898 0.0
H1437 H 0.1755 0.29284 0.35787 0.0
H1438 H 0.19925 0.27501 0.36011 0.0
H1439 H 0.16949 0.26361 0.36842 0.0
C1440 C 0.94372 0.02263 0.18948 0.0
C1441 C 0.92077 0.00845 0.18937 0.0
C1442 C 0.95562 0.0245 0.16831 0.0
C1443 C 0.94458 0.01152 0.14641 0.0
C1444 C 0.92125 0.99741 0.14607 0.0
C1445 C 0.90954 0.99622 0.16749 0.0
C1446 C 0.98022 0.04012 0.1695 0.0
C1447 C 0.90899 0.98289 0.12328 0.0
C1448 C 0.96753 0.02944 0.08657 0.0
C1449 C 0.98414 0.01383 0.08276 0.0
C1450 C 0.95476 0.02911 0.10729 0.0
C1451 C 0.95792 0.01211 0.12417 0.0
C1452 C 0.97435 0.99601 0.1201 0.0
C1453 C 0.98756 0.99737 0.09973 0.0
C1454 C 0.93798 0.04705 0.11117 0.0
C1455 C 0.97775 0.97705 0.13708 0.0
H1456 H 0.95254 0.03225 0.20625 0.0
H1457 H 0.8919 0.98509 0.16725 0.0
H1458 H 0.99404 0.02878 0.16565 0.0
H1459 H 0.98034 0.05307 0.15554 0.0
H1460 H 0.9856 0.05036 0.18746 0.0
H1461 H 0.89048 0.97363 0.12571 0.0
H1462 H 0.90779 0.99467 0.1084 0.0
H1463 H 0.91991 0.96915 0.11758 0.0
H1464 H 0.96467 0.04205 0.07339 0.0
H1465 H -6e-05 0.98487 0.09659 0.0
H1466 H 0.94361 0.05804 0.12868 0.0
H1467 H 0.91929 0.03749 0.11209 0.0
H1468 H 0.93776 0.0593 0.09656 0.0
H1469 H 0.98591 0.98579 0.155 0.0
H1470 H 0.9896 0.9646 0.13029 0.0
H1471 H 0.95998 0.96633 0.13975 0.0
C1472 C 0.2784 0.66189 0.43492 0.0
C1473 C 0.2682 0.66686 0.45638 0.0
C1474 C 0.27771 0.67716 0.41638 0.0
C1475 C 0.26587 0.69734 0.41924 0.0
C1476 C 0.25547 0.70234 0.4409 0.0
C1477 C 0.25703 0.68716 0.4594 0.0
C1478 C 0.28947 0.67157 0.39368 0.0
C1479 C 0.2423 0.72342 0.44431 0.0
C1480 C 0.28384 0.74504 0.37741 0.0
C1481 C 0.26535 0.73896 0.35862 0.0
C1482 C 0.2834 0.73261 0.39811 0.0
C1483 C 0.26443 0.71313 0.39945 0.0
C1484 C 0.24516 0.70757 0.38086 0.0
C1485 C 0.24568 0.7209 0.3607 0.0
C1486 C 0.30409 0.73925 0.41771 0.0
C1487 C 0.22497 0.68652 0.38143 0.0
H1488 H 0.28704 0.64616 0.43273 0.0
H1489 H 0.24881 0.6907 0.47594 0.0
H1490 H 0.27559 0.66783 0.37796 0.0
H1491 H 0.30282 0.68734 0.39019 0.0
H1492 H 0.29885 0.6558 0.39482 0.0
H1493 H 0.2361 0.72539 0.46265 0.0
H1494 H 0.2542 0.74035 0.44123 0.0
H1495 H 0.22631 0.72103 0.4308 0.0
H1496 H 0.29921 0.75879 0.37538 0.0
H1497 H 0.23173 0.71596 0.34576 0.0
H1498 H 0.31545 0.72494 0.41753 0.0
H1499 H 0.29717 0.74064 0.43573 0.0
H1500 H 0.31572 0.75658 0.41526 0.0
H1501 H 0.23236 0.66947 0.38016 0.0
H1502 H 0.21061 0.68556 0.36633 0.0
H1503 H 0.21672 0.6877 0.39878 0.0
C1504 C 0.60818 0.9784 0.67966 0.0
C1505 C 0.5987 0.98369 0.70149 0.0
C1506 C 0.59458 0.97909 0.65747 0.0
C1507 C 0.57159 0.98636 0.65731 0.0
C1508 C 0.56187 0.99125 0.67938 0.0
C1509 C 0.57532 0.98936 0.70113 0.0
C1510 C 0.60517 0.97296 0.63423 0.0
C1511 C 0.53801 0.00017 0.68011 0.0
C1512 C 0.55266 0.02004 0.60499 0.0
C1513 C 0.53442 0.00299 0.59194 0.0
C1514 C 0.56481 0.0148 0.62628 0.0
C1515 C 0.55892 0.9917 0.63446 0.0
C1516 C 0.54029 0.97443 0.62146 0.0
C1517 C 0.52802 0.98039 0.60038 0.0
C1518 C 0.58404 0.03401 0.6399 0.0
C1519 C 0.53388 0.94948 0.62942 0.0
H1520 H 0.62624 0.97401 0.67993 0.0
H1521 H 0.56807 0.99385 0.718 0.0
H1522 H 0.59142 0.96098 0.62144 0.0
H1523 H 0.61083 0.98965 0.62548 0.0
H1524 H 0.62117 0.964 0.63734 0.0
H1525 H 0.53242 0.00203 0.69871 0.0
H1526 H 0.5395 0.018 0.6728 0.0
H1527 H 0.52354 0.98774 0.66858 0.0
H1528 H 0.55766 0.0375 0.59831 0.0
H1529 H 0.51429 0.96706 0.58992 0.0
H1530 H 0.60182 0.02791 0.64053 0.0
H1531 H 0.57978 0.03728 0.65883 0.0
H1532 H 0.58576 0.05132 0.63152 0.0
H1533 H 0.54997 0.94043 0.62949 0.0
H1534 H 0.51886 0.93821 0.61744 0.0
H1535 H 0.52858 0.9505 0.64813 0.0
C1536 C 0.28597 0.35061 0.95015 0.0
C1537 C 0.26641 0.35113 0.96404 0.0
C1538 C 0.28325 0.33713 0.92762 0.0
C1539 C 0.26035 0.3237 0.91874 0.0
C1540 C 0.24093 0.32269 0.93355 0.0
C1541 C 0.2442 0.33647 0.95611 0.0
C1542 C 0.30453 0.33862 0.91264 0.0
C1543 C 0.21634 0.30825 0.92493 0.0
C1544 C 0.2468 0.321 0.85081 0.0
C1545 C 0.25089 0.29794 0.84298 0.0
C1546 C 0.24924 0.32919 0.87538 0.0
C1547 C 0.25604 0.31403 0.8928 0.0
C1548 C 0.26007 0.29061 0.88512 0.0
C1549 C 0.25753 0.28285 0.86026 0.0
C1550 C 0.24478 0.3543 0.88268 0.0
C1551 C 0.26731 0.27388 0.90311 0.0
H1552 H 0.30338 0.36111 0.95663 0.0
H1553 H 0.22912 0.33667 0.967 0.0
H1554 H 0.3068 0.32039 0.90538 0.0
H1555 H 0.30118 0.34901 0.897 0.0
H1556 H 0.32167 0.34756 0.92316 0.0
H1557 H 0.20421 0.30661 0.93968 0.0
H1558 H 0.20774 0.31713 0.9103 0.0
H1559 H 0.21804 0.28995 0.9173 0.0
H1560 H 0.2416 0.33281 0.83767 0.0
H1561 H 0.26051 0.26493 0.85439 0.0
H1562 H 0.26154 0.3653 0.89209 0.0
H1563 H 0.23065 0.35355 0.89548 0.0
H1564 H 0.23893 0.36356 0.86696 0.0
H1565 H 0.28606 0.28071 0.91121 0.0
H1566 H 0.26651 0.2553 0.89461 0.0
H1567 H 0.25541 0.27326 0.91804 0.0
C1568 C 0.90956 0.9944 0.34765 0.0
C1569 C 0.91787 0.0047 0.32717 0.0
C1570 C 0.9245 0.99618 0.36919 0.0
C1571 C 0.94817 0.0096 0.37086 0.0
C1572 C 0.957 0.01975 0.3502 0.0
C1573 C 0.94184 0.01681 0.32839 0.0
C1574 C 0.91441 0.9846 0.39058 0.0
C1575 C 0.98206 0.03441 0.35141 0.0
C1576 C 0.96374 0.03713 0.43489 0.0
C1577 C 0.97672 0.02061 0.44503 0.0
C1578 C 0.95638 0.03502 0.41018 0.0
C1579 C 0.96174 0.01561 0.39518 0.0
C1580 C 0.9764 0.99986 0.40496 0.0
C1581 C 0.9839 0.00266 0.42989 0.0
C1582 C 0.94133 0.05262 0.40051 0.0
C1583 C 0.9827 0.97908 0.38954 0.0
H1584 H 0.89113 0.98503 0.34705 0.0
H1585 H 0.94844 0.02477 0.31262 0.0
H1586 H 0.92734 0.97408 0.39893 0.0
H1587 H 0.91164 0.99878 0.40447 0.0
H1588 H 0.89685 0.97243 0.38548 0.0
H1589 H 0.98627 0.04108 0.33377 0.0
H1590 H 0.98388 0.05009 0.3651 0.0
H1591 H 0.99572 0.0234 0.3572 0.0
H1592 H 0.95884 0.05157 0.44642 0.0
H1593 H 0.99431 0.99013 0.43767 0.0
H1594 H 0.92225 0.04353 0.39643 0.0
H1595 H 0.94778 0.05893 0.38347 0.0
H1596 H 0.94178 0.06856 0.41363 0.0
H1597 H 0.96677 0.96443 0.38647 0.0
H1598 H 0.99805 0.97181 0.39832 0.0
H1599 H 0.98739 0.98456 0.37162 0.0
C1600 C 0.28398 0.66092 0.61287 0.0
C1601 C 0.29039 0.67286 0.59265 0.0
C1602 C 0.28438 0.67385 0.63554 0.0
C1603 C 0.29096 0.69928 0.63783 0.0
C1604 C 0.29896 0.71116 0.61786 0.0
C1605 C 0.29877 0.6978 0.59559 0.0
C1606 C 0.27639 0.66045 0.65665 0.0
C1607 C 0.30603 0.73822 0.61951 0.0
C1608 C 0.2591 0.73227 0.68386 0.0
C1609 C 0.27741 0.73924 0.70272 0.0
C1610 C 0.26358 0.71998 0.66234 0.0
C1611 C 0.28671 0.71369 0.66008 0.0
C1612 C 0.30542 0.72104 0.67902 0.0
C1613 C 0.30059 0.73406 0.70007 0.0
C1614 C 0.24327 0.713 0.64237 0.0
C1615 C 0.33004 0.71399 0.67767 0.0
H1616 H 0.27764 0.64165 0.61079 0.0
H1617 H 0.30396 0.70719 0.58012 0.0
H1618 H 0.2889 0.6669 0.67311 0.0
H1619 H 0.25817 0.66389 0.66055 0.0
H1620 H 0.2755 0.64071 0.65299 0.0
H1621 H 0.31397 0.74449 0.60307 0.0
H1622 H 0.2898 0.74665 0.62199 0.0
H1623 H 0.31928 0.74472 0.6354 0.0
H1624 H 0.24101 0.73569 0.68624 0.0
H1625 H 0.31448 0.73879 0.7151 0.0
H1626 H 0.23818 0.69311 0.63974 0.0
H1627 H 0.24927 0.71917 0.6251 0.0
H1628 H 0.22694 0.72074 0.64634 0.0
H1629 H 0.32841 0.69421 0.67819 0.0
H1630 H 0.34319 0.72296 0.69287 0.0
H1631 H 0.33733 0.7185 0.6604 0.0
C1632 C 0.58787 0.99504 0.83316 0.0
C1633 C 0.61033 0.01041 0.83589 0.0
C1634 C 0.57251 0.99429 0.85174 0.0
C1635 C 0.57966 0.00958 0.8733 0.0
C1636 C 0.60172 0.02602 0.87563 0.0
C1637 C 0.61691 0.02604 0.85699 0.0
C1638 C 0.54928 0.97628 0.84883 0.0
C1639 C 0.60987 0.04278 0.89829 0.0
C1640 C 0.53716 0.01859 0.92137 0.0
C1641 C 0.54424 0.00333 0.93821 0.0
C1642 C 0.54778 0.02013 0.89948 0.0
C1643 C 0.56594 0.00625 0.89465 0.0
C1644 C 0.57244 0.99019 0.91121 0.0
C1645 C 0.56143 0.98885 0.9327 0.0
C1646 C 0.54025 0.03718 0.88198 0.0
C1647 C 0.59179 0.97512 0.90675 0.0
H1648 H 0.58269 0.98293 0.81686 0.0
H1649 H 0.63412 0.03814 0.85913 0.0
H1650 H 0.55078 0.96204 0.8612 0.0
H1651 H 0.53392 0.98509 0.8538 0.0
H1652 H 0.54507 0.96757 0.83008 0.0
H1653 H 0.62594 0.05641 0.89604 0.0
H1654 H 0.59507 0.05228 0.90358 0.0
H1655 H 0.61459 0.0322 0.91338 0.0
H1656 H 0.52376 0.02969 0.9255 0.0
H1657 H 0.5669 0.97686 0.94552 0.0
H1658 H 0.53542 0.02765 0.86365 0.0
H1659 H 0.55561 0.0519 0.88071 0.0
H1660 H 0.52458 0.04525 0.88753 0.0
H1661 H 0.5877 0.96462 0.88883 0.0
H1662 H 0.59359 0.96242 0.92074 0.0
H1663 H 0.60949 0.98705 0.90662 0.0
C1664 C 0.2549 0.35881 0.12132 0.0
C1665 C 0.26159 0.34753 0.10023 0.0
C1666 C 0.25257 0.3466 0.14238 0.0
C1667 C 0.25801 0.32293 0.14264 0.0
C1668 C 0.26503 0.31168 0.1214 0.0
C1669 C 0.26629 0.32391 0.10044 0.0
C1670 C 0.24424 0.35897 0.16434 0.0
C1671 C 0.27181 0.28688 0.12093 0.0
C1672 C 0.27816 0.30185 0.20317 0.0
C1673 C 0.25793 0.28528 0.20753 0.0
C1674 C 0.27842 0.31406 0.18217 0.0
C1675 C 0.25762 0.31029 0.16532 0.0
C1676 C 0.237 0.29368 0.16975 0.0
C1677 C 0.23754 0.2811 0.19062 0.0
C1678 C 0.30113 0.33083 0.1779 0.0
C1679 C 0.21422 0.28957 0.15267 0.0
H1680 H 0.25103 0.37697 0.12119 0.0
H1681 H 0.27164 0.31513 0.08424 0.0
H1682 H 0.22862 0.34725 0.17062 0.0
H1683 H 0.25893 0.36218 0.17931 0.0
H1684 H 0.23886 0.37649 0.16069 0.0
H1685 H 0.27724 0.28077 0.10308 0.0
H1686 H 0.28704 0.28685 0.13487 0.0
H1687 H 0.25637 0.27364 0.12534 0.0
H1688 H 0.29402 0.30506 0.21615 0.0
H1689 H 0.22175 0.26856 0.19409 0.0
H1690 H 0.29732 0.3494 0.17702 0.0
H1691 H 0.30738 0.32524 0.1603 0.0
H1692 H 0.31604 0.33115 0.19231 0.0
H1693 H 0.20732 0.30678 0.15139 0.0
H1694 H 0.19979 0.27605 0.15859 0.0
H1695 H 0.21811 0.28337 0.13427 0.0
C1696 C 0.17839 0.91627 0.98929 0.0
C1697 C 0.19269 0.90612 0.00601 0.0
C1698 C 0.1581 0.92561 0.99601 0.0
C1699 C 0.15218 0.92512 0.02018 0.0
C1700 C 0.16616 0.91433 0.03703 0.0
C1701 C 0.18621 0.90475 0.02968 0.0
C1702 C 0.14335 0.93657 0.97736 0.0
C1703 C 0.16045 0.91366 0.06296 0.0
C1704 C 0.11409 0.9725 0.03562 0.0
C1705 C 0.0909 0.95912 0.02984 0.0
C1706 C 0.13452 0.96126 0.03434 0.0
C1707 C 0.13137 0.93617 0.02746 0.0
C1708 C 0.10783 0.92238 0.02393 0.0
C1709 C 0.08785 0.93411 0.02491 0.0
C1710 C 0.15937 0.97651 0.03836 0.0
C1711 C 0.10363 0.89557 0.01701 0.0
H1712 H 0.18334 0.9173 0.97097 0.0
H1713 H 0.19746 0.89722 0.04275 0.0
H1714 H 0.12411 0.92782 0.97607 0.0
H1715 H 0.14408 0.95598 0.98287 0.0
H1716 H 0.14991 0.93476 0.95916 0.0
H1717 H 0.1723 0.90349 0.07348 0.0
H1718 H 0.16276 0.93229 0.07174 0.0
H1719 H 0.14132 0.90532 0.06379 0.0
H1720 H 0.11629 0.99188 0.03938 0.0
H1721 H 0.06975 0.92384 0.02074 0.0
H1722 H 0.1671 0.9782 0.02077 0.0
H1723 H 0.17172 0.96789 0.05002 0.0
H1724 H 0.15889 0.99488 0.04678 0.0
H1725 H 0.1069 0.89216 0.9978 0.0
H1726 H 0.08482 0.88702 0.01927 0.0
H1727 H 0.11635 0.88675 0.028 0.0
C1728 C 0.69461 0.58179 0.99937 0.0
C1729 C 0.69671 0.60362 0.98878 0.0
C1730 C 0.67191 0.5682 0.00189 0.0
C1731 C 0.65063 0.57689 0.99419 0.0
C1732 C 0.6526 0.5988 0.98314 0.0
C1733 C 0.67565 0.61203 0.98074 0.0
C1734 C 0.67073 0.54486 0.01351 0.0
C1735 C 0.63034 0.60848 0.97435 0.0
C1736 C 0.59159 0.53181 0.98869 0.0
C1737 C 0.58207 0.53766 0.01034 0.0
C1738 C 0.61336 0.54499 0.98272 0.0
C1739 C 0.62649 0.56384 0.99925 0.0
C1740 C 0.61698 0.56959 0.02132 0.0
C1741 C 0.59473 0.55668 0.02642 0.0
C1742 C 0.6223 0.53821 0.95887 0.0
C1743 C 0.63046 0.58919 0.03972 0.0
H1744 H 0.71081 0.57572 0.00651 0.0
H1745 H 0.67724 0.62911 0.97292 0.0
H1746 H 0.66077 0.54569 0.02984 0.0
H1747 H 0.66067 0.52984 0.00079 0.0
H1748 H 0.68896 0.54074 0.01879 0.0
H1749 H 0.63483 0.62502 0.96497 0.0
H1750 H 0.61825 0.59461 0.96179 0.0
H1751 H 0.62008 0.6127 0.98985 0.0
H1752 H 0.58169 0.51729 0.97609 0.0
H1753 H 0.58739 0.56124 0.04323 0.0
H1754 H 0.63429 0.52474 0.96161 0.0
H1755 H 0.63259 0.554 0.9515 0.0
H1756 H 0.60712 0.52984 0.94531 0.0
H1757 H 0.64839 0.58478 0.04568 0.0
H1758 H 0.62048 0.59165 0.05586 0.0
H1759 H 0.63373 0.60652 0.03149 0.0
C1760 C 0.6636 0.43462 0.27368 0.0
C1761 C 0.67353 0.45032 0.2941 0.0
C1762 C 0.67275 0.41332 0.26773 0.0
C1763 C 0.69226 0.40747 0.28255 0.0
C1764 C 0.70241 0.42328 0.30306 0.0
C1765 C 0.69297 0.44438 0.30855 0.0
C1766 C 0.66144 0.39697 0.24569 0.0
C1767 C 0.72309 0.41777 0.31948 0.0
C1768 C 0.69899 0.34195 0.28576 0.0
C1769 C 0.71873 0.33983 0.27229 0.0
C1770 C 0.69003 0.36362 0.28876 0.0
C1771 C 0.70087 0.38395 0.27792 0.0
C1772 C 0.7206 0.38197 0.26397 0.0
C1773 C 0.72936 0.35994 0.26137 0.0
C1774 C 0.66922 0.36487 0.30404 0.0
C1775 C 0.73254 0.40318 0.25197 0.0
H1776 H 0.6488 0.43905 0.26219 0.0
H1777 H 0.70101 0.4563 0.32429 0.0
H1778 H 0.67553 0.39354 0.23368 0.0
H1779 H 0.65307 0.37932 0.25118 0.0
H1780 H 0.64734 0.40466 0.23526 0.0
H1781 H 0.7296 0.43237 0.33418 0.0
H1782 H 0.71729 0.40082 0.32776 0.0
H1783 H 0.73845 0.41503 0.30892 0.0
H1784 H 0.69057 0.32663 0.29437 0.0
H1785 H 0.7445 0.35848 0.25084 0.0
H1786 H 0.6541 0.37087 0.29348 0.0
H1787 H 0.67505 0.37831 0.31985 0.0
H1788 H 0.66235 0.34727 0.31069 0.0
H1789 H 0.71902 0.40931 0.23938 0.0
H1790 H 0.74765 0.39879 0.24176 0.0
H1791 H 0.73966 0.41846 0.26573 0.0
C1792 C 0.8391 0.39746 0.49539 0.0
C1793 C 0.82039 0.40883 0.50301 0.0
C1794 C 0.86319 0.40907 0.49967 0.0
C1795 C 0.86847 0.43258 0.51168 0.0
C1796 C 0.84951 0.44441 0.51868 0.0
C1797 C 0.82569 0.43211 0.51479 0.0
C1798 C 0.88306 0.39571 0.49251 0.0
C1799 C 0.85447 0.46959 0.53128 0.0
C1800 C 0.92868 0.44855 0.54914 0.0
C1801 C 0.94244 0.4627 0.53409 0.0
C1802 C 0.90437 0.43911 0.54223 0.0
C1803 C 0.89385 0.44356 0.51947 0.0
C1804 C 0.90768 0.45795 0.50423 0.0
C1805 C 0.93186 0.46767 0.5119 0.0
C1806 C 0.89004 0.4242 0.55918 0.0
C1807 C 0.89698 0.46297 0.47989 0.0
H1808 H 0.83491 0.37923 0.48673 0.0
H1809 H 0.81128 0.44041 0.5217 0.0
H1810 H 0.89537 0.40675 0.48158 0.0
H1811 H 0.89402 0.39237 0.50896 0.0
H1812 H 0.87585 0.37814 0.482 0.0
H1813 H 0.83756 0.47663 0.53443 0.0
H1814 H 0.86509 0.4698 0.54895 0.0
H1815 H 0.86545 0.48196 0.52036 0.0
H1816 H 0.93688 0.44505 0.56648 0.0
H1817 H 0.94265 0.47865 0.50032 0.0
H1818 H 0.88365 0.40569 0.55048 0.0
H1819 H 0.8738 0.43202 0.56321 0.0
H1820 H 0.90082 0.4231 0.57652 0.0
H1821 H 0.88902 0.44584 0.469 0.0
H1822 H 0.91057 0.47331 0.46961 0.0
H1823 H 0.8822 0.47341 0.48238 0.0
C1824 C 0.33626 0.0837 0.29486 0.0
C1825 C 0.35551 0.07611 0.2836 0.0
C1826 C 0.32641 0.10351 0.28777 0.0
C1827 C 0.33598 0.11622 0.26889 0.0
C1828 C 0.35521 0.10862 0.25718 0.0
C1829 C 0.36482 0.08864 0.26472 0.0
C1830 C 0.30608 0.11119 0.30096 0.0
C1831 C 0.36583 0.12178 0.23699 0.0
C1832 C 0.29482 0.15849 0.24672 0.0
C1833 C 0.30425 0.17942 0.26182 0.0
C1834 C 0.30609 0.13802 0.24733 0.0
C1835 C 0.32713 0.13874 0.26338 0.0
C1836 C 0.33765 0.16047 0.2772 0.0
C1837 C 0.3261 0.18048 0.27622 0.0
C1838 C 0.29465 0.11523 0.232 0.0
C1839 C 0.36006 0.16213 0.29453 0.0
H1840 H 0.32878 0.07418 0.30939 0.0
H1841 H 0.37951 0.0828 0.25572 0.0
H1842 H 0.31214 0.12942 0.31048 0.0
H1843 H 0.2904 0.11222 0.28792 0.0
H1844 H 0.29991 0.09865 0.31443 0.0
H1845 H 0.37922 0.11237 0.22831 0.0
H1846 H 0.35128 0.12379 0.22303 0.0
H1847 H 0.37493 0.14017 0.24411 0.0
H1848 H 0.27812 0.15771 0.23533 0.0
H1849 H 0.33388 0.19684 0.28749 0.0
H1850 H 0.28579 0.10209 0.24365 0.0
H1851 H 0.30861 0.10685 0.22318 0.0
H1852 H 0.28083 0.11858 0.21788 0.0
H1853 H 0.35552 0.15173 0.31009 0.0
H1854 H 0.36763 0.18101 0.30155 0.0
H1855 H 0.37425 0.15419 0.28569 0.0
C1856 C 0.34337 0.11674 0.49766 0.0
C1857 C 0.32161 0.1054 0.50525 0.0
C1858 C 0.36493 0.10737 0.50202 0.0
C1859 C 0.36457 0.08608 0.51401 0.0
C1860 C 0.34279 0.07541 0.52274 0.0
C1861 C 0.32167 0.08524 0.51831 0.0
C1862 C 0.38781 0.11954 0.49273 0.0
C1863 C 0.34144 0.05277 0.53558 0.0
C1864 C 0.40855 0.04435 0.49712 0.0
C1865 C 0.42581 0.04835 0.51724 0.0
C1866 C 0.38863 0.05645 0.49596 0.0
C1867 C 0.38603 0.07347 0.51519 0.0
C1868 C 0.40346 0.07769 0.53559 0.0
C1869 C 0.42302 0.0649 0.53648 0.0
C1870 C 0.37037 0.05099 0.47404 0.0
C1871 C 0.40178 0.09614 0.55617 0.0
H1872 H 0.3433 0.13228 0.48745 0.0
H1873 H 0.30491 0.07668 0.52448 0.0
H1874 H 0.40303 0.12232 0.50715 0.0
H1875 H 0.3927 0.10784 0.47765 0.0
H1876 H 0.3858 0.13721 0.48613 0.0
H1877 H 0.32366 0.04771 0.54277 0.0
H1878 H 0.34443 0.03766 0.52288 0.0
H1879 H 0.35587 0.05511 0.55075 0.0
H1880 H 0.41061 0.03165 0.48216 0.0
H1881 H 0.43656 0.06844 0.55186 0.0
H1882 H 0.36962 0.06756 0.46479 0.0
H1883 H 0.35207 0.04486 0.47963 0.0
H1884 H 0.37472 0.0369 0.46089 0.0
H1885 H 0.40389 0.11432 0.54961 0.0
H1886 H 0.41588 0.0963 0.57134 0.0
H1887 H 0.38373 0.09259 0.56307 0.0
C1888 C 0.65759 0.59562 0.30569 0.0
C1889 C 0.6684 0.57534 0.30075 0.0
C1890 C 0.66991 0.61894 0.30326 0.0
C1891 C 0.69363 0.62201 0.29584 0.0
C1892 C 0.7047 0.60156 0.29121 0.0
C1893 C 0.69174 0.57851 0.29318 0.0
C1894 C 0.65723 0.6402 0.3078 0.0
C1895 C 0.72999 0.60397 0.28343 0.0
C1896 C 0.71693 0.67698 0.26387 0.0
C1897 C 0.73272 0.69111 0.28213 0.0
C1898 C 0.70402 0.65452 0.26811 0.0
C1899 C 0.70641 0.64634 0.29142 0.0
C1900 C 0.72181 0.661 0.31009 0.0
C1901 C 0.73517 0.683 0.3051 0.0
C1902 C 0.68802 0.63943 0.24759 0.0
C1903 C 0.72453 0.65325 0.33522 0.0
H1904 H 0.63928 0.59317 0.31092 0.0
H1905 H 0.69961 0.56286 0.28797 0.0
H1906 H 0.66852 0.65394 0.32111 0.0
H1907 H 0.65462 0.64881 0.29081 0.0
H1908 H 0.63929 0.63495 0.3146 0.0
H1909 H 0.73609 0.58631 0.28075 0.0
H1910 H 0.73083 0.61263 0.26628 0.0
H1911 H 0.74285 0.61572 0.29723 0.0
H1912 H 0.71502 0.68337 0.2461 0.0
H1913 H 0.7471 0.69417 0.31932 0.0
H1914 H 0.66922 0.63525 0.25259 0.0
H1915 H 0.69438 0.62203 0.24399 0.0
H1916 H 0.68783 0.64856 0.23067 0.0
H1917 H 0.70656 0.64768 0.34177 0.0
H1918 H 0.73527 0.66765 0.34827 0.0
H1919 H 0.73381 0.63748 0.33465 0.0
C1920 C 0.8411 0.4461 0.77702 0.0
C1921 C 0.86429 0.45204 0.78923 0.0
C1922 C 0.82954 0.42208 0.77262 0.0
C1923 C 0.84207 0.40355 0.77946 0.0
C1924 C 0.8656 0.40945 0.7917 0.0
C1925 C 0.87638 0.4337 0.79659 0.0
C1926 C 0.80431 0.41651 0.75982 0.0
C1927 C 0.87984 0.39015 0.79852 0.0
C1928 C 0.80756 0.33994 0.77939 0.0
C1929 C 0.81207 0.32956 0.75696 0.0
C1930 C 0.81741 0.36402 0.78713 0.0
C1931 C 0.83154 0.37803 0.77179 0.0
C1932 C 0.83578 0.36764 0.74894 0.0
C1933 C 0.82616 0.34345 0.74191 0.0
C1934 C 0.81263 0.37449 0.8116 0.0
C1935 C 0.85044 0.38208 0.73188 0.0
H1936 H 0.83229 0.46019 0.77015 0.0
H1937 H 0.8946 0.43833 0.80546 0.0
H1938 H 0.80438 0.40585 0.74228 0.0
H1939 H 0.79208 0.40542 0.77079 0.0
H1940 H 0.79681 0.43306 0.7564 0.0
H1941 H 0.89749 0.39774 0.80886 0.0
H1942 H 0.86929 0.37748 0.80949 0.0
H1943 H 0.88329 0.37956 0.78194 0.0
H1944 H 0.79672 0.32912 0.79105 0.0
H1945 H 0.82942 0.33547 0.72443 0.0
H1946 H 0.80177 0.38894 0.80925 0.0
H1947 H 0.82989 0.38274 0.82225 0.0
H1948 H 0.80271 0.3608 0.82204 0.0
H1949 H 0.84153 0.39735 0.72689 0.0
H1950 H 0.85258 0.37108 0.71506 0.0
H1951 H 0.86865 0.3898 0.74088 0.0
C1952 C 0.02884 0.83113 0.08688 0.0
C1953 C 0.01865 0.82892 0.10881 0.0
C1954 C 0.02752 0.85131 0.07417 0.0
C1955 C 0.01613 0.86985 0.08401 0.0
C1956 C 0.00754 0.86856 0.10716 0.0
C1957 C 0.00871 0.84787 0.11927 0.0
C1958 C 0.03686 0.85198 0.04956 0.0
C1959 C 0.99586 0.88836 0.11844 0.0
C1960 C 0.02407 0.92973 0.05721 0.0
C1961 C 0.00169 0.92833 0.04372 0.0
C1962 C 0.0292 0.91073 0.07025 0.0
C1963 C 0.01159 0.88972 0.06939 0.0
C1964 C 0.98927 0.88787 0.05501 0.0
C1965 C 0.98438 0.90749 0.04265 0.0
C1966 C 0.053 0.91359 0.08567 0.0
C1967 C 0.97048 0.8653 0.05294 0.0
H1968 H 0.03685 0.81651 0.0791 0.0
H1969 H 0.00065 0.84592 0.13616 0.0
H1970 H 0.02165 0.85204 0.03562 0.0
H1971 H 0.05 0.86873 0.0488 0.0
H1972 H 0.04579 0.83633 0.04483 0.0
H1973 H 0.99259 0.88587 0.13752 0.0
H1974 H 0.0074 0.90614 0.11776 0.0
H1975 H 0.97827 0.88872 0.10807 0.0
H1976 H 0.03722 0.94615 0.05835 0.0
H1977 H 0.96709 0.9066 0.03223 0.0
H1978 H 0.06234 0.89816 0.0815 0.0
H1979 H 0.0496 0.91376 0.10499 0.0
H1980 H 0.0653 0.93047 0.08308 0.0
H1981 H 0.97868 0.84938 0.04745 0.0
H1982 H 0.95492 0.86611 0.03962 0.0
H1983 H 0.96361 0.86254 0.07077 0.0
C1984 C 0.93598 0.23955 0.83583 0.0
C1985 C 0.93805 0.25 0.85965 0.0
C1986 C 0.91401 0.23646 0.82123 0.0
C1987 C 0.89361 0.24406 0.8307 0.0
C1988 C 0.89553 0.25421 0.85499 0.0
C1989 C 0.91772 0.25683 0.86927 0.0
C1990 C 0.91284 0.22567 0.79546 0.0
C1991 C 0.87429 0.26274 0.86573 0.0
C1992 C 0.84745 0.26524 0.78782 0.0
C1993 C 0.82859 0.24572 0.78505 0.0
C1994 C 0.86875 0.26449 0.80215 0.0
C1995 C 0.87119 0.24395 0.81446 0.0
C1996 C 0.85217 0.22388 0.81141 0.0
C1997 C 0.83108 0.22489 0.79641 0.0
C1998 C 0.88848 0.28598 0.80461 0.0
C1999 C 0.85365 0.20195 0.82484 0.0
H2000 H 0.95149 0.2334 0.82871 0.0
H2001 H 0.91929 0.26451 0.88787 0.0
H2002 H 0.8971 0.2109 0.79147 0.0
H2003 H 0.91037 0.23961 0.78299 0.0
H2004 H 0.92953 0.21851 0.79163 0.0
H2005 H 0.8783 0.2688 0.88528 0.0
H2006 H 0.86927 0.27797 0.85619 0.0
H2007 H 0.85832 0.24812 0.86331 0.0
H2008 H 0.84517 0.2815 0.7794 0.0
H2009 H 0.81605 0.21002 0.79467 0.0
H2010 H 0.9055 0.27955 0.8014 0.0
H2011 H 0.89037 0.29484 0.82327 0.0
H2012 H 0.88527 0.29936 0.79169 0.0
H2013 H 0.87004 0.19441 0.82076 0.0
H2014 H 0.83748 0.18771 0.82017 0.0
H2015 H 0.85529 0.20709 0.84459 0.0
C2016 C 0.49965 0.1819 0.6091 0.0
C2017 C 0.51803 0.20106 0.61752 0.0
C2018 C 0.5046 0.1622 0.59464 0.0
C2019 C 0.52883 0.16091 0.59021 0.0
C2020 C 0.54775 0.17939 0.60039 0.0
C2021 C 0.54203 0.19957 0.61346 0.0
C2022 C 0.48389 0.14282 0.58396 0.0
C2023 C 0.57393 0.17779 0.59767 0.0
C2024 C 0.53233 0.09645 0.57141 0.0
C2025 C 0.5279 0.09597 0.54622 0.0
C2026 C 0.53513 0.11809 0.58616 0.0
C2027 C 0.53393 0.13972 0.57537 0.0
C2028 C 0.53294 0.13973 0.54994 0.0
C2029 C 0.52964 0.11773 0.53558 0.0
C2030 C 0.53656 0.11734 0.61324 0.0
C2031 C 0.53273 0.16259 0.53777 0.0
H2032 H 0.48149 0.18223 0.61383 0.0
H2033 H 0.55637 0.21415 0.6208 0.0
H2034 H 0.487 0.12491 0.58897 0.0
H2035 H 0.46629 0.14589 0.59008 0.0
H2036 H 0.48273 0.14214 0.56396 0.0
H2037 H 0.58648 0.1924 0.60894 0.0
H2038 H 0.57797 0.16021 0.60283 0.0
H2039 H 0.57754 0.17893 0.57852 0.0
H2040 H 0.53151 0.07974 0.57985 0.0
H2041 H 0.52686 0.11751 0.5161 0.0
H2042 H 0.51858 0.11858 0.61956 0.0
H2043 H 0.54962 0.13281 0.62248 0.0
H2044 H 0.54193 0.10036 0.6188 0.0
H2045 H 0.51427 0.16706 0.53721 0.0
H2046 H 0.53773 0.16057 0.51896 0.0
H2047 H 0.54527 0.17793 0.5479 0.0
C2048 C 0.5822 0.75815 0.37881 0.0
C2049 C 0.56263 0.76146 0.36297 0.0
C2050 C 0.60498 0.75711 0.37039 0.0
C2051 C 0.60792 0.75886 0.34555 0.0
C2052 C 0.58812 0.76182 0.32952 0.0
C2053 C 0.56591 0.76336 0.33846 0.0
C2054 C 0.62593 0.75441 0.38802 0.0
C2055 C 0.59028 0.76317 0.3028 0.0
C2056 C 0.66856 0.7767 0.321 0.0
C2057 C 0.67369 0.75422 0.31281 0.0
C2058 C 0.64776 0.77843 0.33287 0.0
C2059 C 0.63147 0.7572 0.33587 0.0
C2060 C 0.6366 0.73446 0.32748 0.0
C2061 C 0.65787 0.73325 0.31638 0.0
C2062 C 0.6431 0.80295 0.342 0.0
C2063 C 0.61932 0.71147 0.32961 0.0
H2064 H 0.57983 0.75681 0.39777 0.0
H2065 H 0.55095 0.76582 0.32597 0.0
H2066 H 0.63302 0.73779 0.38263 0.0
H2067 H 0.6409 0.76978 0.38772 0.0
H2068 H 0.62078 0.75362 0.40678 0.0
H2069 H 0.57288 0.7648 0.29268 0.0
H2070 H 0.60398 0.77888 0.29992 0.0
H2071 H 0.59648 0.74681 0.29503 0.0
H2072 H 0.68109 0.79288 0.31864 0.0
H2073 H 0.66195 0.71584 0.31008 0.0
H2074 H 0.63951 0.80314 0.36127 0.0
H2075 H 0.62679 0.80706 0.33175 0.0
H2076 H 0.65857 0.81743 0.3402 0.0
H2077 H 0.61608 0.7097 0.34878 0.0
H2078 H 0.62619 0.69524 0.32243 0.0
H2079 H 0.6016 0.71199 0.31956 0.0
C2080 C 0.99818 0.18727 0.41302 0.0
C2081 C 0.01953 0.20413 0.41791 0.0
C2082 C 0.99527 0.16565 0.42421 0.0
C2083 C 0.01446 0.16065 0.44003 0.0
C2084 C 0.03637 0.17734 0.44423 0.0
C2085 C 0.03846 0.19905 0.43344 0.0
C2086 C 0.97147 0.14855 0.41972 0.0
C2087 C 0.05756 0.17237 0.46031 0.0
C2088 C 0.00565 0.11645 0.48793 0.0
C2089 C 0.01417 0.09669 0.47708 0.0
C2090 C 0.00467 0.13716 0.47568 0.0
C2091 C 0.01209 0.13787 0.452 0.0
C2092 C 0.01945 0.11741 0.44058 0.0
C2093 C 0.02051 0.09717 0.45329 0.0
C2094 C 0.99658 0.15861 0.48838 0.0
C2095 C 0.0272 0.11724 0.41528 0.0
H2096 H 0.98338 0.19148 0.40135 0.0
H2097 H 0.05494 0.21218 0.43721 0.0
H2098 H 0.97445 0.13026 0.41338 0.0
H2099 H 0.96288 0.14704 0.43687 0.0
H2100 H 0.95873 0.15457 0.40617 0.0
H2101 H 0.07355 0.1869 0.46112 0.0
H2102 H 0.05234 0.17045 0.4789 0.0
H2103 H 0.06287 0.15515 0.45364 0.0
H2104 H 0.00056 0.11606 0.50624 0.0
H2105 H 0.0266 0.0817 0.44459 0.0
H2106 H 0.98245 0.16493 0.47668 0.0
H2107 H 0.01209 0.17367 0.49203 0.0
H2108 H 0.98933 0.15447 0.50579 0.0
H2109 H 0.01321 0.12275 0.40277 0.0
H2110 H 0.03051 0.09923 0.40829 0.0
H2111 H 0.04407 0.13043 0.41511 0.0
C2112 C 0.57065 0.24004 0.1951 0.0
C2113 C 0.56715 0.24524 0.17105 0.0
C2114 C 0.59389 0.23975 0.20602 0.0
C2115 C 0.61407 0.24563 0.19277 0.0
C2116 C 0.61056 0.25057 0.16834 0.0
C2117 C 0.58703 0.24995 0.15763 0.0
C2118 C 0.59684 0.23381 0.2319 0.0
C2119 C 0.63173 0.25737 0.15382 0.0
C2120 C 0.67417 0.27557 0.2251 0.0
C2121 C 0.68767 0.25695 0.22335 0.0
C2122 C 0.64981 0.27176 0.21617 0.0
C2123 C 0.63892 0.24882 0.20493 0.0
C2124 C 0.65233 0.22965 0.20398 0.0
C2125 C 0.67674 0.23397 0.21333 0.0
C2126 C 0.63605 0.29256 0.21792 0.0
C2127 C 0.64113 0.2049 0.19243 0.0
H2128 H 0.55516 0.23599 0.20534 0.0
H2129 H 0.58423 0.25389 0.13901 0.0
H2130 H 0.60984 0.22116 0.23407 0.0
H2131 H 0.60422 0.25049 0.24377 0.0
H2132 H 0.57938 0.2257 0.2382 0.0
H2133 H 0.62589 0.25987 0.13482 0.0
H2134 H 0.64301 0.27439 0.16223 0.0
H2135 H 0.64334 0.24329 0.15383 0.0
H2136 H 0.68289 0.2933 0.23304 0.0
H2137 H 0.68745 0.21969 0.2121 0.0
H2138 H 0.61917 0.2874 0.2266 0.0
H2139 H 0.63079 0.29727 0.19952 0.0
H2140 H 0.64686 0.30881 0.22843 0.0
H2141 H 0.62393 0.19855 0.20015 0.0
H2142 H 0.65337 0.19154 0.19491 0.0
H2143 H 0.63673 0.20567 0.17279 0.0
C2144 C 0.52483 0.83698 0.95462 0.0
C2145 C 0.53515 0.83994 0.93277 0.0
C2146 C 0.52456 0.8568 0.97129 0.0
C2147 C 0.53535 0.88004 0.96621 0.0
C2148 C 0.5476 0.88284 0.94514 0.0
C2149 C 0.54708 0.86277 0.92849 0.0
C2150 C 0.51084 0.85313 0.99323 0.0
C2151 C 0.55973 0.90728 0.93931 0.0
C2152 C 0.50533 0.93238 0.98634 0.0
C2153 C 0.52089 0.94348 0.00642 0.0
C2154 C 0.50979 0.91164 0.97338 0.0
C2155 C 0.53037 0.90162 0.98064 0.0
C2156 C 0.54591 0.91233 0.00123 0.0
C2157 C 0.54092 0.93316 0.01401 0.0
C2158 C 0.49267 0.90077 0.95157 0.0
C2159 C 0.56806 0.90213 0.00936 0.0
H2160 H 0.51545 0.81941 0.95797 0.0
H2161 H 0.55527 0.8651 0.91172 0.0
H2162 H 0.52141 0.86308 0.00962 0.0
H2163 H 0.4937 0.86035 0.99073 0.0
H2164 H 0.50636 0.83381 0.99632 0.0
H2165 H 0.5717 0.9059 0.92456 0.0
H2166 H 0.54575 0.91797 0.93356 0.0
H2167 H 0.57058 0.91734 0.95551 0.0
H2168 H 0.48975 0.94019 0.98041 0.0
H2169 H 0.55309 0.94178 0.02939 0.0
H2170 H 0.48573 0.88155 0.95346 0.0
H2171 H 0.50243 0.90147 0.93507 0.0
H2172 H 0.47702 0.91029 0.9489 0.0
H2173 H 0.5627 0.88329 0.01364 0.0
H2174 H 0.57849 0.91275 0.02553 0.0
H2175 H 0.58004 0.90174 0.99454 0.0
C2176 C 0.93861 0.78362 0.69422 0.0
C2177 C 0.94475 0.76348 0.68136 0.0
C2178 C 0.91609 0.78265 0.70329 0.0
C2179 C 0.8993 0.76096 0.6995 0.0
C2180 C 0.90514 0.74062 0.6862 0.0
C2181 C 0.92785 0.74217 0.67708 0.0
C2182 C 0.91042 0.80476 0.71718 0.0
C2183 C 0.88762 0.71714 0.68204 0.0
C2184 C 0.84915 0.75171 0.7411 0.0
C2185 C 0.82952 0.75612 0.72611 0.0
C2186 C 0.87214 0.75327 0.7327 0.0
C2187 C 0.87538 0.75985 0.70903 0.0
C2188 C 0.85575 0.76549 0.69438 0.0
C2189 C 0.83295 0.76329 0.70304 0.0
C2190 C 0.89263 0.74683 0.74869 0.0
C2191 C 0.85864 0.77312 0.66929 0.0
H2192 H 0.9516 0.8002 0.69745 0.0
H2193 H 0.93267 0.72653 0.6674 0.0
H2194 H 0.89368 0.80984 0.70869 0.0
H2195 H 0.90706 0.80084 0.7359 0.0
H2196 H 0.92531 0.82041 0.718 0.0
H2197 H 0.89499 0.70297 0.67149 0.0
H2198 H 0.88313 0.7106 0.69964 0.0
H2199 H 0.87048 0.7199 0.67225 0.0
H2200 H 0.84622 0.74563 0.75875 0.0
H2201 H 0.81758 0.76653 0.69149 0.0
H2202 H 0.9084 0.76166 0.75063 0.0
H2203 H 0.89859 0.73063 0.74023 0.0
H2204 H 0.88735 0.74307 0.76695 0.0
H2205 H 0.87333 0.7889 0.66995 0.0
H2206 H 0.84175 0.77788 0.6607 0.0
H2207 H 0.86386 0.75833 0.65769 0.0
C2208 C 0.11584 0.99271 0.88196 0.0
C2209 C 0.10946 0.00219 0.86031 0.0
C2210 C 0.10033 0.99108 0.90053 0.0
C2211 C 0.0781 0.99977 0.89775 0.0
C2212 C 0.07135 0.00896 0.87575 0.0
C2213 C 0.08695 0.00978 0.85721 0.0
C2214 C 0.10805 0.98064 0.92342 0.0
C2215 C 0.04816 0.01898 0.87222 0.0
C2216 C 0.031 0.98257 0.94195 0.0
C2217 C 0.03679 0.00195 0.95988 0.0
C2218 C 0.04408 0.98166 0.92146 0.0
C2219 C 0.06294 0.00087 0.91855 0.0
C2220 C 0.06808 0.02092 0.93617 0.0
C2221 C 0.05521 0.02105 0.9567 0.0
C2222 C 0.03827 0.95979 0.90335 0.0
C2223 C 0.08752 0.04212 0.93357 0.0
H2224 H 0.13312 0.98667 0.88445 0.0
H2225 H 0.08198 0.01736 0.84065 0.0
H2226 H 0.11146 0.99492 0.93869 0.0
H2227 H 0.0934 0.9665 0.9279 0.0
H2228 H 0.12474 0.97271 0.92193 0.0
H2229 H 0.04475 0.02408 0.85359 0.0
H2230 H 0.03257 0.00564 0.87614 0.0
H2231 H 0.04906 0.03517 0.88509 0.0
H2232 H 0.01688 0.96772 0.9444 0.0
H2233 H 0.05958 0.0362 0.97038 0.0
H2234 H 0.0542 0.95055 0.90286 0.0
H2235 H 0.0343 0.96523 0.88498 0.0
H2236 H 0.02256 0.94678 0.90772 0.0
H2237 H 0.10547 0.03636 0.93457 0.0
H2238 H 0.08798 0.05708 0.94784 0.0
H2239 H 0.08457 0.04901 0.91568 0.0
C2240 C 0.75511 0.32436 0.56926 0.0
C2241 C 0.76021 0.34956 0.57037 0.0
C2242 C 0.75773 0.31236 0.58999 0.0
C2243 C 0.76535 0.32592 0.61242 0.0
C2244 C 0.77103 0.35135 0.61368 0.0
C2245 C 0.76849 0.36293 0.59251 0.0
C2246 C 0.75165 0.2852 0.58798 0.0
C2247 C 0.77919 0.36628 0.63743 0.0
C2248 C 0.74229 0.29741 0.6667 0.0
C2249 C 0.76254 0.28859 0.6762 0.0
C2250 C 0.74311 0.30974 0.64602 0.0
C2251 C 0.76483 0.31349 0.63473 0.0
C2252 C 0.78537 0.30447 0.64412 0.0
C2253 C 0.78391 0.29185 0.66477 0.0
C2254 C 0.72073 0.31884 0.63636 0.0
C2255 C 0.80882 0.30831 0.63248 0.0
H2256 H 0.74908 0.31389 0.55211 0.0
H2257 H 0.77268 0.38239 0.59335 0.0
H2258 H 0.76689 0.27756 0.59642 0.0
H2259 H 0.73566 0.27955 0.59786 0.0
H2260 H 0.74762 0.27729 0.56893 0.0
H2261 H 0.7843 0.38573 0.63511 0.0
H2262 H 0.76444 0.36409 0.64954 0.0
H2263 H 0.79491 0.35996 0.64661 0.0
H2264 H 0.72577 0.29484 0.67564 0.0
H2265 H 0.79967 0.28533 0.67244 0.0
H2266 H 0.71492 0.31065 0.61765 0.0
H2267 H 0.72479 0.33863 0.63567 0.0
H2268 H 0.70541 0.31462 0.64755 0.0
H2269 H 0.80622 0.29847 0.61421 0.0
H2270 H 0.82365 0.30196 0.64322 0.0
H2271 H 0.81446 0.32767 0.63022 0.0
C2272 C 0.44714 0.03548 0.35614 0.0
C2273 C 0.42278 0.03622 0.35961 0.0
C2274 C 0.46449 0.03611 0.37575 0.0
C2275 C 0.45746 0.03802 0.39946 0.0
C2276 C 0.43344 0.04094 0.40319 0.0
C2277 C 0.4163 0.03976 0.38319 0.0
C2278 C 0.48974 0.03248 0.37092 0.0
C2279 C 0.42543 0.04361 0.42829 0.0
C2280 C 0.48555 0.00529 0.44786 0.0
C2281 C 0.50099 0.02412 0.46184 0.0
C2282 C 0.4723 0.00947 0.42678 0.0
C2283 C 0.47396 0.03324 0.42 0.0
C2284 C 0.49041 0.05219 0.43347 0.0
C2285 C 0.50409 0.0473 0.45416 0.0
C2286 C 0.45561 0.98858 0.41249 0.0
C2287 C 0.49249 0.07776 0.42685 0.0
H2288 H 0.45251 0.03286 0.33803 0.0
H2289 H 0.39763 0.04062 0.38608 0.0
H2290 H 0.50355 0.04461 0.38347 0.0
H2291 H 0.4918 0.01371 0.37388 0.0
H2292 H 0.49351 0.0356 0.35208 0.0
H2293 H 0.40756 0.04956 0.42826 0.0
H2294 H 0.424 0.02606 0.43614 0.0
H2295 H 0.43891 0.05676 0.44027 0.0
H2296 H 0.48318 0.98738 0.45396 0.0
H2297 H 0.51591 0.06185 0.46519 0.0
H2298 H 0.4587 0.9882 0.39309 0.0
H2299 H 0.43652 0.99074 0.41394 0.0
H2300 H 0.45815 0.97099 0.41897 0.0
H2301 H 0.49669 0.07872 0.40784 0.0
H2302 H 0.50669 0.09028 0.4387 0.0
H2303 H 0.47491 0.084 0.4283 0.0
C2304 C 0.74344 0.65639 0.0818 0.0
C2305 C 0.76449 0.66162 0.07008 0.0
C2306 C 0.74255 0.66569 0.10572 0.0
C2307 C 0.76357 0.67968 0.1185 0.0
C2308 C 0.78489 0.68507 0.10663 0.0
C2309 C 0.78492 0.67636 0.08233 0.0
C2310 C 0.71921 0.66039 0.11737 0.0
C2311 C 0.80786 0.69936 0.11983 0.0
C2312 C 0.76079 0.71727 0.17762 0.0
C2313 C 0.76738 0.70194 0.19466 0.0
C2314 C 0.75886 0.7101 0.15272 0.0
C2315 C 0.76383 0.68716 0.14473 0.0
C2316 C 0.76976 0.67138 0.16189 0.0
C2317 C 0.77133 0.67891 0.1866 0.0
C2318 C 0.75204 0.72726 0.13499 0.0
C2319 C 0.77521 0.64677 0.15414 0.0
H2320 H 0.72749 0.64535 0.07206 0.0
H2321 H 0.80114 0.68042 0.07314 0.0
H2322 H 0.72161 0.64923 0.13258 0.0
H2323 H 0.71414 0.67741 0.12496 0.0
H2324 H 0.70406 0.65074 0.10442 0.0
H2325 H 0.82274 0.70236 0.10791 0.0
H2326 H 0.80453 0.7171 0.12749 0.0
H2327 H 0.81387 0.6897 0.13517 0.0
H2328 H 0.75767 0.7351 0.18368 0.0
H2329 H 0.77633 0.66688 0.1996 0.0
H2330 H 0.73675 0.71816 0.12195 0.0
H2331 H 0.76751 0.73298 0.12446 0.0
H2332 H 0.74684 0.74359 0.1441 0.0
H2333 H 0.75954 0.63604 0.14266 0.0
H2334 H 0.77942 0.63662 0.16976 0.0
H2335 H 0.79085 0.64861 0.14313 0.0
C2336 C 0.1239 0.01644 0.70694 0.0
C2337 C 0.11257 0.00068 0.72233 0.0
C2338 C 0.11416 0.01672 0.68302 0.0
C2339 C 0.09291 0.00038 0.67405 0.0
C2340 C 0.08143 0.98431 0.68949 0.0
C2341 C 0.09125 0.98487 0.71357 0.0
C2342 C 0.12665 0.03449 0.66731 0.0
C2343 C 0.05905 0.96627 0.68047 0.0
C2344 C 0.05842 0.01215 0.61568 0.0
C2345 C 0.0681 0.99797 0.59849 0.0
C2346 C 0.06618 0.01306 0.64042 0.0
C2347 C 0.0837 0.99916 0.6481 0.0
C2348 C 0.09314 0.98449 0.63081 0.0
C2349 C 0.08543 0.98427 0.60627 0.0
C2350 C 0.05584 0.02909 0.65831 0.0
C2351 C 0.1114 0.96895 0.63824 0.0
H2352 H 0.14014 0.02901 0.71376 0.0
H2353 H 0.08238 0.97273 0.72548 0.0
H2354 H 0.13336 0.0247 0.65194 0.0
H2355 H 0.11363 0.04531 0.65962 0.0
H2356 H 0.14216 0.04693 0.67742 0.0
H2357 H 0.05182 0.9556 0.69496 0.0
H2358 H 0.04471 0.9756 0.67282 0.0
H2359 H 0.06326 0.95372 0.66573 0.0
H2360 H 0.04493 0.02266 0.60979 0.0
H2361 H 0.09273 0.97294 0.59317 0.0
H2362 H 0.07054 0.04309 0.66756 0.0
H2363 H 0.0478 0.01844 0.67241 0.0
H2364 H 0.04177 0.03811 0.64955 0.0
H2365 H 0.12819 0.98045 0.64699 0.0
H2366 H 0.11612 0.95772 0.62267 0.0
H2367 H 0.1042 0.95688 0.65167 0.0
C2368 C 0.73062 0.32818 0.43662 0.0
C2369 C 0.74566 0.3504 0.43558 0.0
C2370 C 0.72896 0.30951 0.41809 0.0
C2371 C 0.74333 0.31295 0.39859 0.0
C2372 C 0.75868 0.33527 0.39761 0.0
C2373 C 0.7592 0.35389 0.41582 0.0
C2374 C 0.71184 0.28623 0.41929 0.0
C2375 C 0.77469 0.3395 0.37736 0.0
C2376 C 0.76013 0.26409 0.35615 0.0
C2377 C 0.74629 0.26709 0.335 0.0
C2378 C 0.7578 0.2774 0.37796 0.0
C2379 C 0.74145 0.29403 0.37821 0.0
C2380 C 0.72588 0.29524 0.35732 0.0
C2381 C 0.72849 0.28164 0.33598 0.0
C2382 C 0.7745 0.2754 0.39997 0.0
C2383 C 0.70814 0.31263 0.35675 0.0
H2384 H 0.7201 0.32542 0.45191 0.0
H2385 H 0.77087 0.37093 0.41492 0.0
H2386 H 0.6985 0.2828 0.40312 0.0
H2387 H 0.72198 0.27096 0.41917 0.0
H2388 H 0.7019 0.28644 0.43569 0.0
H2389 H 0.78692 0.3572 0.38029 0.0
H2390 H 0.78591 0.32515 0.37556 0.0
H2391 H 0.76337 0.33878 0.36001 0.0
H2392 H 0.77401 0.2529 0.35524 0.0
H2393 H 0.71754 0.28351 0.31965 0.0
H2394 H 0.76472 0.27529 0.41644 0.0
H2395 H 0.78923 0.29126 0.4025 0.0
H2396 H 0.78278 0.25887 0.39816 0.0
H2397 H 0.69799 0.31198 0.37298 0.0
H2398 H 0.69503 0.30881 0.34037 0.0
H2399 H 0.71815 0.33124 0.35684 0.0
C2400 C 0.44284 0.03077 0.22127 0.0
C2401 C 0.42096 0.0158 0.22381 0.0
C2402 C 0.45426 0.02888 0.20005 0.0
C2403 C 0.44361 0.01142 0.18105 0.0
C2404 C 0.42157 0.99612 0.18352 0.0
C2405 C 0.41037 0.99861 0.20491 0.0
C2406 C 0.47755 0.04578 0.19784 0.0
C2407 C 0.40985 0.97724 0.16356 0.0
C2408 C 0.45994 0.02584 0.11911 0.0
C2409 C 0.47786 0.01175 0.11525 0.0
C2410 C 0.44823 0.02535 0.1402 0.0
C2411 C 0.45473 0.01053 0.15799 0.0
C2412 C 0.47268 0.99609 0.15424 0.0
C2413 C 0.4841 0.99687 0.1328 0.0
C2414 C 0.42914 0.04099 0.14356 0.0
C2415 C 0.48006 0.98018 0.17301 0.0
H2416 H 0.45106 0.04409 0.23588 0.0
H2417 H 0.39359 0.98682 0.207 0.0
H2418 H 0.49198 0.03535 0.19353 0.0
H2419 H 0.47498 0.0571 0.18279 0.0
H2420 H 0.48384 0.05781 0.21463 0.0
H2421 H 0.3932 0.96617 0.16872 0.0
H2422 H 0.40508 0.98598 0.14713 0.0
H2423 H 0.42274 0.96515 0.15873 0.0
H2424 H 0.45492 0.03735 0.10558 0.0
H2425 H 0.49786 0.98588 0.12981 0.0
H2426 H 0.43492 0.05434 0.15945 0.0
H2427 H 0.41192 0.02981 0.14714 0.0
H2428 H 0.42563 0.05083 0.12753 0.0
H2429 H 0.48919 0.99152 0.18934 0.0
H2430 H 0.49258 0.96839 0.16636 0.0
H2431 H 0.46389 0.96872 0.17858 0.0
C2432 C 0.76671 0.68586 0.93556 0.0
C2433 C 0.77154 0.66226 0.93225 0.0
C2434 C 0.76778 0.70097 0.9166 0.0
C2435 C 0.77419 0.69249 0.89383 0.0
C2436 C 0.78021 0.66911 0.89077 0.0
C2437 C 0.77861 0.65426 0.90987 0.0
C2438 C 0.76082 0.72556 0.92061 0.0
C2439 C 0.78754 0.65942 0.86697 0.0
C2440 C 0.74999 0.71534 0.83587 0.0
C2441 C 0.77 0.73143 0.83014 0.0
C2442 C 0.75088 0.70338 0.85698 0.0
C2443 C 0.77255 0.70703 0.87259 0.0
C2444 C 0.79272 0.72362 0.86714 0.0
C2445 C 0.7911 0.73588 0.84613 0.0
C2446 C 0.7287 0.68641 0.86227 0.0
C2447 C 0.81623 0.72784 0.88312 0.0
H2448 H 0.76107 0.69222 0.95267 0.0
H2449 H 0.78253 0.63616 0.90711 0.0
H2450 H 0.77479 0.73951 0.91472 0.0
H2451 H 0.74364 0.72597 0.90953 0.0
H2452 H 0.75837 0.73035 0.93984 0.0
H2453 H 0.79381 0.64187 0.86814 0.0
H2454 H 0.77194 0.65697 0.853 0.0
H2455 H 0.80223 0.67245 0.86082 0.0
H2456 H 0.73351 0.71205 0.82374 0.0
H2457 H 0.80663 0.74822 0.84173 0.0
H2458 H 0.72402 0.69103 0.88081 0.0
H2459 H 0.73245 0.66772 0.86141 0.0
H2460 H 0.71277 0.68693 0.84931 0.0
H2461 H 0.81323 0.73441 0.90171 0.0
H2462 H 0.83029 0.74115 0.87635 0.0
H2463 H 0.82316 0.71064 0.88429 0.0
C2464 C 0.8407 0.09677 0.03404 0.0
C2465 C 0.83399 0.10854 0.01407 0.0
C2466 C 0.85839 0.08197 0.03284 0.0
C2467 C 0.86982 0.07939 0.01131 0.0
C2468 C 0.86441 0.09282 0.99182 0.0
C2469 C 0.84624 0.10699 0.99332 0.0
C2470 C 0.86356 0.06777 0.05391 0.0
C2471 C 0.8766 0.09095 0.96879 0.0
C2472 C 0.92697 0.05213 0.01237 0.0
C2473 C 0.91803 0.02827 0.00329 0.0
C2474 C 0.91148 0.06891 0.01531 0.0
C2475 C 0.88644 0.06167 0.00865 0.0
C2476 C 0.87729 0.03753 0.9993 0.0
C2477 C 0.89326 0.02093 0.99703 0.0
C2478 C 0.9219 0.09431 0.02568 0.0
C2479 C 0.85069 0.02928 0.99167 0.0
H2480 H 0.83064 0.09747 0.04979 0.0
H2481 H 0.8406 0.11577 0.97774 0.0
H2482 H 0.85701 0.04832 0.04864 0.0
H2483 H 0.88332 0.07006 0.05899 0.0
H2484 H 0.8546 0.07324 0.06998 0.0
H2485 H 0.87217 0.1044 0.9564 0.0
H2486 H 0.89653 0.09357 0.97285 0.0
H2487 H 0.87075 0.07268 0.9593 0.0
H2488 H 0.94614 0.05754 0.01759 0.0
H2489 H 0.88648 0.00239 0.99016 0.0
H2490 H 0.91371 0.09861 0.04257 0.0
H2491 H 0.91746 0.1073 0.01283 0.0
H2492 H 0.94187 0.09702 0.02975 0.0
H2493 H 0.84003 0.03191 0.00725 0.0
H2494 H 0.84655 0.01003 0.98448 0.0
H2495 H 0.84458 0.04031 0.97754 0.0
C2496 C 0.3553 0.39848 0.03579 0.0
C2497 C 0.33562 0.41056 0.03826 0.0
C2498 C 0.37917 0.41119 0.03726 0.0
C2499 C 0.38342 0.43674 0.03996 0.0
C2500 C 0.36372 0.44889 0.0438 0.0
C2501 C 0.34031 0.43556 0.04384 0.0
C2502 C 0.39968 0.39717 0.03547 0.0
C2503 C 0.36725 0.47602 0.04749 0.0
C2504 C 0.44491 0.47811 0.05409 0.0
C2505 C 0.45279 0.4798 0.03104 0.0
C2506 C 0.42292 0.46339 0.05751 0.0
C2507 C 0.40793 0.45083 0.03718 0.0
C2508 C 0.41631 0.45235 0.01389 0.0
C2509 C 0.43864 0.46658 0.01123 0.0
C2510 C 0.41711 0.46008 0.08312 0.0
C2511 C 0.40268 0.43852 0.99138 0.0
H2512 H 0.35208 0.379 0.03269 0.0
H2513 H 0.32559 0.44476 0.04816 0.0
H2514 H 0.4038 0.39509 0.0164 0.0
H2515 H 0.4163 0.40658 0.04655 0.0
H2516 H 0.39479 0.37887 0.04144 0.0
H2517 H 0.35005 0.48269 0.04985 0.0
H2518 H 0.37979 0.48278 0.06379 0.0
H2519 H 0.3755 0.48386 0.03187 0.0
H2520 H 0.45651 0.48738 0.06961 0.0
H2521 H 0.44514 0.46724 0.99347 0.0
H2522 H 0.42739 0.44653 0.0902 0.0
H2523 H 0.3977 0.4536 0.08468 0.0
H2524 H 0.423 0.47715 0.0949 0.0
H2525 H 0.4127 0.42419 0.98513 0.0
H2526 H 0.40196 0.45059 0.97667 0.0
H2527 H 0.38412 0.43 0.99402 0.0
C2528 C 0.37197 0.58113 0.75243 0.0
C2529 C 0.35846 0.56117 0.76134 0.0
C2530 C 0.36294 0.60304 0.75154 0.0
C2531 C 0.33982 0.6048 0.75938 0.0
C2532 C 0.32623 0.5847 0.76825 0.0
C2533 C 0.3357 0.56343 0.76926 0.0
C2534 C 0.37811 0.62434 0.74238 0.0
C2535 C 0.30132 0.58541 0.77638 0.0
C2536 C 0.31606 0.66204 0.77815 0.0
C2537 C 0.30138 0.66468 0.75736 0.0
C2538 C 0.33026 0.64373 0.77843 0.0
C2539 C 0.32895 0.62709 0.75777 0.0
C2540 C 0.31411 0.6298 0.73674 0.0
C2541 C 0.30091 0.64884 0.73666 0.0
C2542 C 0.34632 0.64193 0.80099 0.0
C2543 C 0.31139 0.61202 0.71464 0.0
H2544 H 0.38952 0.57969 0.74634 0.0
H2545 H 0.32476 0.5483 0.77607 0.0
H2546 H 0.3681 0.6304 0.72672 0.0
H2547 H 0.38183 0.63961 0.75668 0.0
H2548 H 0.3956 0.62013 0.73687 0.0
H2549 H 0.29287 0.56796 0.78232 0.0
H2550 H 0.30242 0.59951 0.7916 0.0
H2551 H 0.28923 0.59011 0.76143 0.0
H2552 H 0.31689 0.67466 0.79398 0.0
H2553 H 0.28977 0.65107 0.72048 0.0
H2554 H 0.36469 0.63974 0.79635 0.0
H2555 H 0.33887 0.62581 0.80985 0.0
H2556 H 0.34788 0.65804 0.81414 0.0
H2557 H 0.32938 0.6103 0.70863 0.0
H2558 H 0.30007 0.61732 0.69938 0.0
H2559 H 0.30291 0.59398 0.71913 0.0
C2560 C 0.20357 0.59 0.53022 0.0
C2561 C 0.20679 0.61303 0.52215 0.0
C2562 C 0.18044 0.57777 0.53317 0.0
C2563 C 0.16015 0.58895 0.52781 0.0
C2564 C 0.16343 0.61242 0.52002 0.0
C2565 C 0.18683 0.62431 0.51751 0.0
C2566 C 0.17779 0.55284 0.54164 0.0
C2567 C 0.14218 0.62478 0.51382 0.0
C2568 C 0.09976 0.55115 0.50566 0.0
C2569 C 0.08618 0.55559 0.52473 0.0
C2570 C 0.12407 0.56139 0.50682 0.0
C2571 C 0.13531 0.57543 0.52801 0.0
C2572 C 0.12201 0.57826 0.54823 0.0
C2573 C 0.0972 0.56874 0.54613 0.0
C2574 C 0.13734 0.55833 0.48485 0.0
C2575 C 0.1337 0.59212 0.57156 0.0
H2576 H 0.21922 0.58176 0.53479 0.0
H2577 H 0.18954 0.64234 0.51173 0.0
H2578 H 0.16473 0.55081 0.55551 0.0
H2579 H 0.1707 0.5393 0.5262 0.0
H2580 H 0.19535 0.5487 0.54925 0.0
H2581 H 0.1479 0.64331 0.50874 0.0
H2582 H 0.1303 0.61416 0.49854 0.0
H2583 H 0.13123 0.62575 0.52941 0.0
H2584 H 0.09096 0.54073 0.48931 0.0
H2585 H 0.08637 0.57195 0.56088 0.0
H2586 H 0.15451 0.55239 0.49036 0.0
H2587 H 0.14164 0.57592 0.47729 0.0
H2588 H 0.12685 0.54501 0.47058 0.0
H2589 H 0.15108 0.58622 0.57694 0.0
H2590 H 0.12183 0.58977 0.58646 0.0
H2591 H 0.13783 0.61156 0.56901 0.0
C2592 C 0.69266 0.94385 0.80066 0.0
C2593 C 0.67067 0.94427 0.78691 0.0
C2594 C 0.70282 0.92294 0.80097 0.0
C2595 C 0.69057 0.90165 0.78755 0.0
C2596 C 0.66793 0.90151 0.77436 0.0
C2597 C 0.65828 0.92294 0.77404 0.0
C2598 C 0.72719 0.92393 0.81493 0.0
C2599 C 0.65423 0.87889 0.76018 0.0
C2600 C 0.72963 0.85672 0.76744 0.0
C2601 C 0.72689 0.84064 0.78517 0.0
C2602 C 0.7178 0.87667 0.76796 0.0
C2603 C 0.7024 0.88007 0.78633 0.0
C2604 C 0.69951 0.86368 0.80424 0.0
C2605 C 0.71198 0.84413 0.80351 0.0
C2606 C 0.72159 0.89392 0.74874 0.0
C2607 C 0.68287 0.86649 0.82379 0.0
H2608 H 0.70253 0.96015 0.81069 0.0
H2609 H 0.64128 0.92306 0.76347 0.0
H2610 H 0.72608 0.91003 0.82795 0.0
H2611 H 0.7406 0.91997 0.80232 0.0
H2612 H 0.73399 0.94179 0.82503 0.0
H2613 H 0.63633 0.88147 0.75188 0.0
H2614 H 0.66492 0.87306 0.74564 0.0
H2615 H 0.65146 0.86408 0.77213 0.0
H2616 H 0.74063 0.85335 0.75286 0.0
H2617 H 0.70929 0.831 0.81661 0.0
H2618 H 0.72894 0.91233 0.75727 0.0
H2619 H 0.70406 0.89473 0.73851 0.0
H2620 H 0.73422 0.88864 0.73579 0.0
H2621 H 0.68906 0.88388 0.83491 0.0
H2622 H 0.68204 0.8517 0.83584 0.0
H2623 H 0.66433 0.86683 0.81555 0.0
C2624 C 0.69016 0.90745 0.54815 0.0
C2625 C 0.70483 0.9128 0.52948 0.0
C2626 C 0.66843 0.91681 0.54956 0.0
C2627 C 0.66136 0.93177 0.53192 0.0
C2628 C 0.67568 0.93636 0.51262 0.0
C2629 C 0.69697 0.92675 0.51157 0.0
C2630 C 0.65343 0.91136 0.57028 0.0
C2631 C 0.66895 0.95214 0.49337 0.0
C2632 C 0.59707 0.94408 0.52093 0.0
C2633 C 0.59937 0.96766 0.53165 0.0
C2634 C 0.61692 0.93187 0.52145 0.0
C2635 C 0.63943 0.94334 0.53356 0.0
C2636 C 0.64157 0.96703 0.54499 0.0
C2637 C 0.62152 0.97901 0.5437 0.0
C2638 C 0.61392 0.90693 0.50853 0.0
C2639 C 0.66512 0.97981 0.55833 0.0
H2640 H 0.69606 0.89678 0.56207 0.0
H2641 H 0.7079 0.93075 0.49679 0.0
H2642 H 0.65299 0.92827 0.58163 0.0
H2643 H 0.63449 0.90371 0.56333 0.0
H2644 H 0.66065 0.8985 0.5818 0.0
H2645 H 0.68159 0.95323 0.47906 0.0
H2646 H 0.65039 0.94519 0.4848 0.0
H2647 H 0.66902 0.97064 0.50169 0.0
H2648 H 0.57973 0.93526 0.51193 0.0
H2649 H 0.62299 0.99705 0.55249 0.0
H2650 H 0.61972 0.8942 0.52103 0.0
H2651 H 0.62565 0.90714 0.49347 0.0
H2652 H 0.59493 0.90008 0.50103 0.0
H2653 H 0.67151 0.96855 0.5721 0.0
H2654 H 0.66342 0.99756 0.56744 0.0
H2655 H 0.6792 0.98264 0.54554 0.0
C2656 C 0.36919 0.41444 0.75647 0.0
C2657 C 0.35801 0.43422 0.75165 0.0
C2658 C 0.35553 0.39113 0.75604 0.0
C2659 C 0.32998 0.38755 0.75125 0.0
C2660 C 0.31877 0.40739 0.74564 0.0
C2661 C 0.33301 0.43021 0.74511 0.0
C2662 C 0.36836 0.37043 0.76142 0.0
C2663 C 0.29162 0.40474 0.74108 0.0
C2664 C 0.29067 0.32537 0.73557 0.0
C2665 C 0.28496 0.31903 0.75846 0.0
C2666 C 0.30585 0.34732 0.73296 0.0
C2667 C 0.31482 0.36356 0.75364 0.0
C2668 C 0.30894 0.35685 0.7767 0.0
C2669 C 0.29423 0.33477 0.77876 0.0
C2670 C 0.31344 0.35246 0.7083 0.0
C2671 C 0.31778 0.37246 0.79972 0.0
H2672 H 0.38862 0.41723 0.76084 0.0
H2673 H 0.3245 0.44504 0.73973 0.0
H2674 H 0.36431 0.36472 0.77944 0.0
H2675 H 0.36179 0.35475 0.74793 0.0
H2676 H 0.38828 0.37536 0.76141 0.0
H2677 H 0.28573 0.42175 0.73643 0.0
H2678 H 0.28462 0.39062 0.72615 0.0
H2679 H 0.2832 0.39892 0.75743 0.0
H2680 H 0.28431 0.31264 0.71993 0.0
H2681 H 0.29024 0.3296 0.79653 0.0
H2682 H 0.33345 0.35482 0.70879 0.0
H2683 H 0.30806 0.36948 0.70308 0.0
H2684 H 0.30543 0.33775 0.69417 0.0
H2685 H 0.33177 0.38801 0.79739 0.0
H2686 H 0.3253 0.36169 0.81337 0.0
H2687 H 0.30195 0.37879 0.80704 0.0
C2688 C 0.15636 0.58676 0.28336 0.0
C2689 C 0.16721 0.56673 0.27779 0.0
C2690 C 0.16913 0.61013 0.2829 0.0
C2691 C 0.19326 0.61344 0.27661 0.0
C2692 C 0.20436 0.59318 0.27119 0.0
C2693 C 0.19102 0.57001 0.2715 0.0
C2694 C 0.15663 0.63129 0.28869 0.0
C2695 C 0.23008 0.59596 0.26458 0.0
C2696 C 0.21362 0.67441 0.25432 0.0
C2697 C 0.22548 0.68721 0.27553 0.0
C2698 C 0.2043 0.64978 0.25393 0.0
C2699 C 0.20652 0.6382 0.27544 0.0
C2700 C 0.21941 0.65114 0.29655 0.0
C2701 C 0.22891 0.6755 0.29627 0.0
C2702 C 0.19094 0.63654 0.23097 0.0
C2703 C 0.22211 0.63967 0.31979 0.0
H2704 H 0.13776 0.5841 0.28775 0.0
H2705 H 0.19899 0.55444 0.26617 0.0
H2706 H 0.16713 0.64336 0.30388 0.0
H2707 H 0.15572 0.64193 0.27286 0.0
H2708 H 0.13796 0.62562 0.29363 0.0
H2709 H 0.23614 0.57834 0.26127 0.0
H2710 H 0.23177 0.60565 0.2481 0.0
H2711 H 0.24246 0.60693 0.27929 0.0
H2712 H 0.21097 0.68383 0.23837 0.0
H2713 H 0.23811 0.6857 0.31261 0.0
H2714 H 0.17134 0.63237 0.23323 0.0
H2715 H 0.19725 0.61917 0.22702 0.0
H2716 H 0.19335 0.64727 0.21523 0.0
H2717 H 0.20418 0.63544 0.32682 0.0
H2718 H 0.23473 0.6514 0.33385 0.0
H2719 H 0.22893 0.62265 0.31624 0.0
C2720 C 0.4893 0.66668 0.41962 0.0
C2721 C 0.50794 0.68658 0.42341 0.0
C2722 C 0.49081 0.64593 0.4316 0.0
C2723 C 0.51189 0.64483 0.44696 0.0
C2724 C 0.53107 0.6647 0.4502 0.0
C2725 C 0.52864 0.68554 0.43875 0.0
C2726 C 0.46966 0.6254 0.42821 0.0
C2727 C 0.55411 0.66394 0.46575 0.0
C2728 C 0.50544 0.59729 0.49186 0.0
C2729 C 0.51206 0.57781 0.47849 0.0
C2730 C 0.5062 0.61968 0.48226 0.0
C2731 C 0.51404 0.62253 0.45895 0.0
C2732 C 0.52235 0.6033 0.44625 0.0
C2733 C 0.52101 0.58114 0.45608 0.0
C2734 C 0.49692 0.63963 0.49628 0.0
C2735 C 0.53126 0.60562 0.42159 0.0
H2736 H 0.47309 0.66776 0.40814 0.0
H2737 H 0.54298 0.70108 0.44173 0.0
H2738 H 0.47534 0.60894 0.42003 0.0
H2739 H 0.46335 0.62128 0.446 0.0
H2740 H 0.45422 0.6295 0.41649 0.0
H2741 H 0.56749 0.68076 0.46607 0.0
H2742 H 0.55005 0.66106 0.48453 0.0
H2743 H 0.56246 0.64856 0.45893 0.0
H2744 H 0.49799 0.59453 0.50894 0.0
H2745 H 0.52603 0.56606 0.4457 0.0
H2746 H 0.47934 0.64216 0.48721 0.0
H2747 H 0.50959 0.6569 0.49666 0.0
H2748 H 0.49425 0.63563 0.51514 0.0
H2749 H 0.51583 0.60654 0.4082 0.0
H2750 H 0.53991 0.59016 0.41554 0.0
H2751 H 0.54448 0.62248 0.42163 0.0
C2752 C 0.60934 0.2819 0.66881 0.0
C2753 C 0.58833 0.27607 0.68048 0.0
C2754 C 0.63233 0.28294 0.68125 0.0
C2755 C 0.63412 0.27703 0.70549 0.0
C2756 C 0.61291 0.27152 0.71736 0.0
C2757 C 0.59035 0.27154 0.70484 0.0
C2758 C 0.65463 0.28963 0.66827 0.0
C2759 C 0.61393 0.26423 0.74286 0.0
C2760 C 0.68714 0.24825 0.7272 0.0
C2761 C 0.70112 0.26681 0.74291 0.0
C2762 C 0.6655 0.2515 0.71474 0.0
C2763 C 0.65776 0.27404 0.71777 0.0
C2764 C 0.67183 0.29295 0.73356 0.0
C2765 C 0.6933 0.28903 0.74618 0.0
C2766 C 0.65081 0.23068 0.69851 0.0
C2767 C 0.66438 0.31737 0.73679 0.0
H2768 H 0.60778 0.28552 0.65001 0.0
H2769 H 0.57411 0.26677 0.71384 0.0
H2770 H 0.66814 0.30323 0.67971 0.0
H2771 H 0.66317 0.27352 0.66464 0.0
H2772 H 0.65038 0.29691 0.6508 0.0
H2773 H 0.59584 0.2614 0.74981 0.0
H2774 H 0.6214 0.24726 0.74343 0.0
H2775 H 0.62617 0.27817 0.75517 0.0
H2776 H 0.69318 0.23103 0.72463 0.0
H2777 H 0.70434 0.30353 0.75798 0.0
H2778 H 0.64862 0.23571 0.67974 0.0
H2779 H 0.63244 0.22627 0.70456 0.0
H2780 H 0.65931 0.21426 0.69835 0.0
H2781 H 0.66311 0.32502 0.7191 0.0
H2782 H 0.67735 0.33019 0.74965 0.0
H2783 H 0.64621 0.3157 0.74347 0.0
C2784 C 0.01082 0.32003 0.94875 0.0
C2785 C 0.00808 0.32192 0.92376 0.0
C2786 C 0.01278 0.34047 0.96529 0.0
C2787 C 0.01152 0.36308 0.95653 0.0
C2788 C 0.00825 0.36495 0.93137 0.0
C2789 C 0.00679 0.34443 0.91536 0.0
C2790 C 0.01624 0.33788 0.99201 0.0
C2791 C 0.00679 0.38877 0.92124 0.0
C2792 C 0.99925 0.42042 0.98825 0.0
C2793 C 0.02211 0.43452 0.98868 0.0
C2794 C 0.99576 0.39578 0.98031 0.0
C2795 C 0.01568 0.38549 0.97299 0.0
C2796 C 0.03924 0.39923 0.97639 0.0
C2797 C 0.04209 0.4237 0.98394 0.0
C2798 C 0.97049 0.38146 0.97744 0.0
C2799 C 0.0611 0.38888 0.96947 0.0
H2800 H 0.01167 0.30264 0.95538 0.0
H2801 H 0.0044 0.34608 0.89613 0.0
H2802 H 0.03154 0.35146 0.00085 0.0
H2803 H -0.00023 0.34116 1.00047 0.0
H2804 H 0.0197 0.31967 0.99573 0.0
H2805 H 0.003 0.38684 0.90127 0.0
H2806 H 0.99233 0.39713 0.92915 0.0
H2807 H 0.02412 0.40133 0.92609 0.0
H2808 H 0.98393 0.42891 0.99235 0.0
H2809 H 0.05989 0.43469 0.98495 0.0
H2810 H 0.97051 0.36308 0.98305 0.0
H2811 H 0.96336 0.37961 0.95813 0.0
H2812 H 0.95806 0.39035 0.98814 0.0
H2813 H 0.06059 0.37055 0.97539 0.0
H2814 H 0.07828 0.4004 0.97742 0.0
H2815 H 0.06112 0.38744 0.94952 0.0
C2816 C 0.96094 0.7611 0.19742 0.0
C2817 C 0.956 0.76571 0.17331 0.0
C2818 C 0.9425 0.75811 0.21295 0.0
C2819 C 0.91866 0.75996 0.20418 0.0
C2820 C 0.91372 0.7654 0.18012 0.0
C2821 C 0.93243 0.76811 0.16496 0.0
C2822 C 0.94837 0.75233 0.23849 0.0
C2823 C 0.88854 0.76787 0.17021 0.0
C2824 C 0.86243 0.73006 0.22987 0.0
C2825 C 0.85464 0.75013 0.24084 0.0
C2826 C 0.88429 0.73271 0.21913 0.0
C2827 C 0.89856 0.7559 0.2198 0.0
C2828 C 0.89161 0.7758 0.23274 0.0
C2829 C 0.86948 0.77271 0.24283 0.0
C2830 C 0.89099 0.71113 0.20525 0.0
C2831 C 0.90648 0.80072 0.23418 0.0
H2832 H 0.97907 0.75903 0.20398 0.0
H2833 H 0.9285 0.77179 0.14641 0.0
H2834 H 0.94173 0.765 0.25151 0.0
H2835 H 0.93901 0.73395 0.24089 0.0
H2836 H 0.9681 0.7532 0.24303 0.0
H2837 H 0.88785 0.77261 0.15125 0.0
H2838 H 0.87595 0.75072 0.17093 0.0
H2839 H 0.88183 0.78199 0.18145 0.0
H2840 H 0.85055 0.71275 0.22799 0.0
H2841 H 0.8631 0.78821 0.25113 0.0
H2842 H 0.91028 0.71 0.20987 0.0
H2843 H 0.88854 0.71307 0.18561 0.0
H2844 H 0.87966 0.69403 0.20888 0.0
H2845 H 0.92587 0.80015 0.23903 0.0
H2846 H 0.90036 0.81341 0.24764 0.0
H2847 H 0.90496 0.80787 0.21627 0.0
C2848 C 0.52717 0.31693 0.10761 0.0
C2849 C 0.50281 0.30766 0.10943 0.0
C2850 C 0.53376 0.33911 0.09809 0.0
C2851 C 0.51557 0.35241 0.09084 0.0
C2852 C 0.49103 0.34339 0.09349 0.0
C2853 C 0.48495 0.32098 0.10246 0.0
C2854 C 0.56004 0.34807 0.09525 0.0
C2855 C 0.47111 0.35723 0.08652 0.0
C2856 C 0.52693 0.41958 0.08681 0.0
C2857 C 0.52505 0.42093 0.0618 0.0
C2858 C 0.52573 0.39741 0.09657 0.0
C2859 C 0.52188 0.376 0.08086 0.0
C2860 C 0.52118 0.37732 0.05552 0.0
C2861 C 0.52305 0.39992 0.04625 0.0
C2862 C 0.52691 0.39689 0.12365 0.0
C2863 C 0.51687 0.35483 0.03821 0.0
H2864 H 0.54091 0.30636 0.11264 0.0
H2865 H 0.46611 0.31371 0.10387 0.0
H2866 H 0.56243 0.3503 0.07596 0.0
H2867 H 0.56599 0.366 0.10541 0.0
H2868 H 0.57197 0.33559 0.10172 0.0
H2869 H 0.45302 0.34789 0.09022 0.0
H2870 H 0.47465 0.37534 0.09663 0.0
H2871 H 0.47066 0.35987 0.06701 0.0
H2872 H 0.52862 0.4359 0.09882 0.0
H2873 H 0.52141 0.40102 0.02689 0.0
H2874 H 0.53897 0.38442 0.12978 0.0
H2875 H 0.50861 0.39021 0.12893 0.0
H2876 H 0.53352 0.415 0.13329 0.0
H2877 H 0.52948 0.34255 0.04351 0.0
H2878 H 0.51914 0.35891 0.0193 0.0
H2879 H 0.49822 0.34506 0.03895 0.0
C2880 C 0.94499 0.28738 0.37886 0.0
C2881 C 0.96303 0.27788 0.36743 0.0
C2882 C 0.92168 0.2856 0.36705 0.0
C2883 C 0.91622 0.27349 0.34354 0.0
C2884 C 0.93475 0.26481 0.33158 0.0
C2885 C 0.95787 0.26682 0.34382 0.0
C2886 C 0.90253 0.29561 0.38014 0.0
C2887 C 0.92983 0.25224 0.30637 0.0
C2888 C 0.85275 0.23813 0.33041 0.0
C2889 C 0.84144 0.25259 0.3154 0.0
C2890 C 0.87711 0.24464 0.33921 0.0
C2891 C 0.89053 0.26646 0.33329 0.0
C2892 C 0.87922 0.28117 0.31808 0.0
C2893 C 0.85484 0.27386 0.30899 0.0
C2894 C 0.88848 0.22807 0.35488 0.0
C2895 C 0.89277 0.30435 0.31093 0.0
H2896 H 0.94902 0.29581 0.39719 0.0
H2897 H 0.97171 0.25895 0.33522 0.0
H2898 H 0.89305 0.30673 0.36832 0.0
H2899 H 0.88885 0.28057 0.38464 0.0
H2900 H 0.91023 0.30677 0.39711 0.0
H2901 H 0.94661 0.24833 0.29888 0.0
H2902 H 0.91717 0.23503 0.30651 0.0
H2903 H 0.92104 0.26352 0.29418 0.0
H2904 H 0.8426 0.22141 0.33507 0.0
H2905 H 0.8462 0.28496 0.29721 0.0
H2906 H 0.89497 0.23759 0.37295 0.0
H2907 H 0.9044 0.22274 0.34675 0.0
H2908 H 0.87567 0.21147 0.35728 0.0
H2909 H 0.90632 0.31355 0.32563 0.0
H2910 H 0.8803 0.31689 0.3059 0.0
H2911 H 0.90233 0.30018 0.29492 0.0
C2912 C 0.98771 0.66306 0.62749 0.0
C2913 C 0.9922 0.68398 0.61553 0.0
C2914 C 0.9875 0.64027 0.61521 0.0
C2915 C 0.99282 0.63862 0.59078 0.0
C2916 C 0.99693 0.6597 0.5786 0.0
C2917 C 0.99615 0.68202 0.591 0.0
C2918 C 0.9823 0.61806 0.62853 0.0
C2919 C 0.0035 0.65887 0.55285 0.0
C2920 C 0.02264 0.5867 0.56832 0.0
C2921 C 0.00381 0.57238 0.55315 0.0
C2922 C 0.01922 0.60821 0.58074 0.0
C2923 C 0.9962 0.61527 0.57842 0.0
C2924 C 0.97702 0.60075 0.56327 0.0
C2925 C 0.98115 0.57956 0.55053 0.0
C2926 C 0.04036 0.6235 0.5961 0.0
C2927 C 0.95211 0.60743 0.56079 0.0
H2928 H 0.98459 0.66452 0.64642 0.0
H2929 H -8e-05 0.69815 0.5817 0.0
H2930 H 0.96875 0.60413 0.61753 0.0
H2931 H 0.99904 0.61031 0.63163 0.0
H2932 H 0.97546 0.62202 0.64627 0.0
H2933 H 0.00538 0.67682 0.54573 0.0
H2934 H 0.02088 0.65213 0.55184 0.0
H2935 H 0.98957 0.6462 0.54092 0.0
H2936 H 0.0402 0.58115 0.57031 0.0
H2937 H 0.96649 0.56826 0.5391 0.0
H2938 H 0.03609 0.62565 0.61512 0.0
H2939 H 0.04385 0.64176 0.58977 0.0
H2940 H 0.05717 0.61561 0.59562 0.0
H2941 H 0.94513 0.60882 0.57879 0.0
H2942 H 0.93909 0.59407 0.54852 0.0
H2943 H 0.95295 0.62532 0.55375 0.0
C2944 C 0.59542 0.75829 0.87274 0.0
C2945 C 0.58101 0.77271 0.86095 0.0
C2946 C 0.61678 0.75337 0.86349 0.0
C2947 C 0.62379 0.76309 0.84199 0.0
C2948 C 0.60874 0.77664 0.82942 0.0
C2949 C 0.58764 0.78135 0.83907 0.0
C2950 C 0.63238 0.73869 0.87724 0.0
C2951 C 0.61552 0.78726 0.80638 0.0
C2952 C 0.6904 0.78152 0.83637 0.0
C2953 C 0.69476 0.76419 0.81867 0.0
C2954 C 0.66743 0.7811 0.84419 0.0
C2955 C 0.64841 0.76242 0.83461 0.0
C2956 C 0.65277 0.74442 0.81713 0.0
C2957 C 0.67597 0.74571 0.80907 0.0
C2958 C 0.66338 0.80118 0.86213 0.0
C2959 C 0.63298 0.72398 0.80694 0.0
H2960 H 0.59029 0.75122 0.88943 0.0
H2961 H 0.57646 0.79211 0.82946 0.0
H2962 H 0.6377 0.72457 0.86484 0.0
H2963 H 0.64925 0.75052 0.8854 0.0
H2964 H 0.62306 0.72999 0.89189 0.0
H2965 H 0.60067 0.7952 0.79752 0.0
H2966 H 0.63168 0.80157 0.81044 0.0
H2967 H 0.62031 0.7733 0.79341 0.0
H2968 H 0.70486 0.79601 0.84363 0.0
H2969 H 0.67945 0.73225 0.79547 0.0
H2970 H 0.65582 0.79366 0.87822 0.0
H2971 H 0.65003 0.81131 0.85384 0.0
H2972 H 0.68029 0.81406 0.8682 0.0
H2973 H 0.62693 0.71299 0.82164 0.0
H2974 H 0.63902 0.7121 0.79268 0.0
H2975 H 0.61705 0.73107 0.79925 0.0
C2976 C 0.41208 0.51351 0.66686 0.0
C2977 C 0.42297 0.50629 0.68796 0.0
C2978 C 0.42466 0.51601 0.64598 0.0
C2979 C 0.44832 0.51023 0.64587 0.0
C2980 C 0.4591 0.50252 0.66706 0.0
C2981 C 0.44653 0.5011 0.68784 0.0
C2982 C 0.41269 0.52493 0.62408 0.0
C2983 C 0.48379 0.49526 0.66767 0.0
C2984 C 0.47056 0.4912 0.58554 0.0
C2985 C 0.48758 0.51133 0.58171 0.0
C2986 C 0.45777 0.49067 0.60619 0.0
C2987 C 0.46147 0.51102 0.6234 0.0
C2988 C 0.47857 0.53151 0.6196 0.0
C2989 C 0.49164 0.53131 0.59898 0.0
C2990 C 0.4404 0.46813 0.60965 0.0
C2991 C 0.48272 0.55382 0.63712 0.0
H2992 H 0.39398 0.51775 0.66687 0.0
H2993 H 0.45503 0.49533 0.70401 0.0
H2994 H 0.42488 0.54031 0.618 0.0
H2995 H 0.40916 0.51047 0.60897 0.0
H2996 H 0.39528 0.53073 0.62769 0.0
H2997 H 0.48953 0.48931 0.68541 0.0
H2998 H 0.4837 0.48034 0.65347 0.0
H2999 H 0.49746 0.51056 0.66374 0.0
H3000 H 0.46734 0.47563 0.57234 0.0
H3001 H 0.50444 0.54705 0.59598 0.0
H3002 H 0.42186 0.47223 0.61039 0.0
H3003 H 0.44558 0.46128 0.62709 0.0
H3004 H 0.44001 0.45362 0.59491 0.0
H3005 H 0.46547 0.56073 0.63849 0.0
H3006 H 0.49643 0.5683 0.63159 0.0
H3007 H 0.48881 0.54944 0.6554 0.0
C3008 C 0.75294 0.15888 0.9362 0.0
C3009 C 0.76787 0.16549 0.95781 0.0
C3010 C 0.75225 0.17474 0.91827 0.0
C3011 C 0.76751 0.19747 0.92169 0.0
C3012 C 0.7822 0.20455 0.94369 0.0
C3013 C 0.78199 0.18853 0.96167 0.0
C3014 C 0.73602 0.16665 0.89518 0.0
C3015 C 0.79897 0.22851 0.94774 0.0
C3016 C 0.78768 0.21705 0.86273 0.0
C3017 C 0.77135 0.23237 0.85657 0.0
C3018 C 0.78743 0.20662 0.88454 0.0
C3019 C 0.77065 0.2119 0.90083 0.0
C3020 C 0.75533 0.22877 0.89563 0.0
C3021 C 0.75577 0.23879 0.87336 0.0
C3022 C 0.80406 0.18868 0.88935 0.0
C3023 C 0.7375 0.23508 0.91285 0.0
H3024 H 0.74183 0.1412 0.93317 0.0
H3025 H 0.79352 0.19373 0.97839 0.0
H3026 H 0.72559 0.18089 0.89026 0.0
H3027 H 0.74722 0.1633 0.8802 0.0
H3028 H 0.72308 0.14987 0.89666 0.0
H3029 H 0.8073 0.23235 0.96668 0.0
H3030 H 0.81367 0.22859 0.93562 0.0
H3031 H 0.7891 0.24327 0.94319 0.0
H3032 H 0.80013 0.21234 0.85001 0.0
H3033 H 0.74326 0.25078 0.86872 0.0
H3034 H 0.7932 0.17037 0.88877 0.0
H3035 H 0.81391 0.19296 0.9076 0.0
H3036 H 0.81751 0.18829 0.87586 0.0
H3037 H 0.72226 0.21982 0.91214 0.0
H3038 H 0.73007 0.25136 0.90822 0.0
H3039 H 0.74609 0.23819 0.93168 0.0
C3040 C 0.10407 0.51618 0.19012 0.0
C3041 C 0.10752 0.49432 0.1987 0.0
C3042 C 0.09032 0.5167 0.16817 0.0
C3043 C 0.08042 0.49479 0.15421 0.0
C3044 C 0.08447 0.47261 0.16257 0.0
C3045 C 0.09761 0.47262 0.1851 0.0
C3046 C 0.0861 0.5407 0.1601 0.0
C3047 C 0.07498 0.449 0.14772 0.0
C3048 C 0.02954 0.49757 0.10574 0.0
C3049 C 0.04267 0.50247 0.08593 0.0
C3050 C 0.0415 0.4944 0.12812 0.0
C3051 C 0.06695 0.49543 0.13033 0.0
C3052 C 0.08002 0.49921 0.11003 0.0
C3053 C 0.06783 0.50323 0.08833 0.0
C3054 C 0.0271 0.49103 0.14962 0.0
C3055 C 0.10704 0.49974 0.11138 0.0
H3056 H 0.11135 0.53287 0.2011 0.0
H3057 H 0.10008 0.45576 0.19212 0.0
H3058 H 0.09424 0.5438 0.14294 0.0
H3059 H 0.0664 0.54071 0.15663 0.0
H3060 H 0.09397 0.55594 0.17372 0.0
H3061 H 0.07994 0.43338 0.15667 0.0
H3062 H 0.055 0.44652 0.14439 0.0
H3063 H 0.08229 0.44912 0.12983 0.0
H3064 H 0.01016 0.49718 0.10402 0.0
H3065 H 0.07821 0.50714 0.07316 0.0
H3066 H 0.03292 0.50664 0.16335 0.0
H3067 H 0.03058 0.47472 0.15819 0.0
H3068 H 0.00734 0.48937 0.14465 0.0
H3069 H 0.11649 0.51531 0.12379 0.0
H3070 H 0.11418 0.50114 0.09346 0.0
H3071 H 0.11162 0.4832 0.11875 0.0
C3072 C 0.74756 0.85701 0.44594 0.0
C3073 C 0.76059 0.85258 0.46711 0.0
C3074 C 0.74741 0.84263 0.42425 0.0
C3075 C 0.76123 0.82379 0.42353 0.0
C3076 C 0.77352 0.81854 0.44512 0.0
C3077 C 0.77284 0.83286 0.46675 0.0
C3078 C 0.73345 0.84842 0.40181 0.0
C3079 C 0.78874 0.79889 0.44509 0.0
C3080 C 0.75021 0.78165 0.36565 0.0
C3081 C 0.76678 0.79373 0.35142 0.0
C3082 C 0.74883 0.79053 0.38968 0.0
C3083 C 0.7648 0.8116 0.39974 0.0
C3084 C 0.7828 0.82268 0.38593 0.0
C3085 C 0.78331 0.81383 0.36181 0.0
C3086 C 0.72909 0.77845 0.40357 0.0
C3087 C 0.80057 0.84483 0.39612 0.0
H3088 H 0.7379 0.87212 0.44622 0.0
H3089 H 0.7831 0.82951 0.48306 0.0
H3090 H 0.74627 0.85615 0.38924 0.0
H3091 H 0.7224 0.83179 0.39227 0.0
H3092 H 0.72131 0.86154 0.40597 0.0
H3093 H 0.79413 0.79469 0.46367 0.0
H3094 H 0.77889 0.78219 0.43463 0.0
H3095 H 0.80538 0.80472 0.43622 0.0
H3096 H 0.7371 0.76635 0.35749 0.0
H3097 H 0.79605 0.82321 0.35075 0.0
H3098 H 0.71506 0.79004 0.40517 0.0
H3099 H 0.73635 0.77607 0.42214 0.0
H3100 H 0.72032 0.76061 0.39451 0.0
H3101 H 0.79095 0.86038 0.39839 0.0
H3102 H 0.81519 0.84946 0.3842 0.0
H3103 H 0.8089 0.84213 0.4142 0.0
C3104 C 0.41103 0.49228 0.84544 0.0
C3105 C 0.41894 0.50312 0.82507 0.0
C3106 C 0.42589 0.49464 0.86712 0.0
C3107 C 0.44901 0.50922 0.86908 0.0
C3108 C 0.45747 0.51993 0.84852 0.0
C3109 C 0.44246 0.51639 0.82656 0.0
C3110 C 0.41622 0.48242 0.88833 0.0
C3111 C 0.48188 0.53589 0.85004 0.0
C3112 C 0.46378 0.53673 0.93342 0.0
C3113 C 0.47813 0.52119 0.94336 0.0
C3114 C 0.45602 0.5343 0.90875 0.0
C3115 C 0.46237 0.51556 0.89354 0.0
C3116 C 0.47816 0.50074 0.90314 0.0
C3117 C 0.48603 0.50385 0.92802 0.0
C3118 C 0.43965 0.55088 0.89932 0.0
C3119 C 0.48542 0.4806 0.88756 0.0
H3120 H 0.39294 0.48209 0.84468 0.0
H3121 H 0.44871 0.52484 0.81092 0.0
H3122 H 0.42983 0.47273 0.89686 0.0
H3123 H 0.41244 0.49616 0.90217 0.0
H3124 H 0.39927 0.46936 0.883 0.0
H3125 H 0.48606 0.54249 0.83236 0.0
H3126 H 0.48246 0.55166 0.86337 0.0
H3127 H 0.49624 0.52597 0.85648 0.0
H3128 H 0.45816 0.55065 0.94507 0.0
H3129 H 0.49737 0.492 0.9356 0.0
H3130 H 0.42094 0.54078 0.89531 0.0
H3131 H 0.44556 0.55768 0.88227 0.0
H3132 H 0.43927 0.56653 0.91256 0.0
H3133 H 0.46999 0.46543 0.88422 0.0
H3134 H 0.50114 0.47387 0.89632 0.0
H3135 H 0.48998 0.48652 0.86977 0.0
C3136 C 0.77902 0.19736 0.09496 0.0
C3137 C 0.78472 0.17408 0.0936 0.0
C3138 C 0.7782 0.21026 0.11724 0.0
C3139 C 0.78412 0.20001 0.13877 0.0
C3140 C 0.79101 0.17692 0.13755 0.0
C3141 C 0.79072 0.16394 0.11489 0.0
C3142 C 0.76974 0.23431 0.11769 0.0
C3143 C 0.79809 0.16571 0.16016 0.0
C3144 C 0.79534 0.24262 0.19649 0.0
C3145 C 0.77337 0.23687 0.2065 0.0
C3146 C 0.79937 0.23042 0.1746 0.0
C3147 C 0.78077 0.21257 0.16238 0.0
C3148 C 0.75829 0.20736 0.17217 0.0
C3149 C 0.75499 0.21939 0.1942 0.0
C3150 C 0.8237 0.23612 0.16489 0.0
C3151 C 0.73771 0.18901 0.15942 0.0
H3152 H 0.77405 0.20511 0.07849 0.0
H3153 H 0.79522 0.14599 0.11382 0.0
H3154 H 0.7526 0.23319 0.12641 0.0
H3155 H 0.78323 0.24836 0.12857 0.0
H3156 H 0.7666 0.24013 0.09931 0.0
H3157 H 0.80606 0.14928 0.1561 0.0
H3158 H 0.81134 0.1788 0.17244 0.0
H3159 H 0.78193 0.16073 0.17002 0.0
H3160 H 0.80968 0.25579 0.20629 0.0
H3161 H 0.73798 0.21495 0.20203 0.0
H3162 H 0.82152 0.24244 0.14665 0.0
H3163 H 0.83188 0.21957 0.16301 0.0
H3164 H 0.83638 0.25014 0.17676 0.0
H3165 H 0.73306 0.19397 0.14099 0.0
H3166 H 0.72122 0.18749 0.16927 0.0
H3167 H 0.74325 0.17106 0.15745 0.0
C3168 C 0.10456 0.49012 0.35268 0.0
C3169 C 0.10472 0.50527 0.33409 0.0
C3170 C 0.08919 0.49199 0.37099 0.0
C3171 C 0.07448 0.51009 0.37104 0.0
C3172 C 0.07403 0.52488 0.35176 0.0
C3173 C 0.08901 0.52204 0.33324 0.0
C3174 C 0.08966 0.47543 0.39092 0.0
C3175 C 0.05907 0.54474 0.35153 0.0
C3176 C 0.02841 0.50515 0.41702 0.0
C3177 C 0.04201 0.51868 0.437 0.0
C3178 C 0.03815 0.50331 0.3947 0.0
C3179 C 0.06197 0.51524 0.39271 0.0
C3180 C 0.07502 0.53028 0.41254 0.0
C3181 C 0.06484 0.53172 0.43452 0.0
C3182 C 0.02377 0.48712 0.37394 0.0
C3183 C 0.10043 0.54342 0.41115 0.0
H3184 H 0.11675 0.47711 0.35307 0.0
H3185 H 0.08947 0.53387 0.31883 0.0
H3186 H 0.0987 0.48578 0.40784 0.0
H3187 H 0.07099 0.46776 0.39447 0.0
H3188 H 0.09952 0.46038 0.38649 0.0
H3189 H 0.05806 0.55229 0.33376 0.0
H3190 H 0.04045 0.53815 0.35601 0.0
H3191 H 0.0673 0.55948 0.36551 0.0
H3192 H 0.01089 0.49476 0.41926 0.0
H3193 H 0.07524 0.54212 0.45012 0.0
H3194 H 0.03169 0.47048 0.37122 0.0
H3195 H 0.02461 0.49604 0.35695 0.0
H3196 H 0.00451 0.48194 0.37729 0.0
H3197 H 0.11303 0.53024 0.41031 0.0
H3198 H 0.10678 0.55667 0.42707 0.0
H3199 H 0.10149 0.55297 0.39455 0.0
C3200 C 0.77605 0.85875 0.62431 0.0
C3201 C 0.75943 0.85239 0.6038 0.0
C3202 C 0.77442 0.84535 0.64464 0.0
C3203 C 0.75529 0.82557 0.64475 0.0
C3204 C 0.73789 0.81987 0.62446 0.0
C3205 C 0.74041 0.83303 0.60417 0.0
C3206 C 0.79373 0.85174 0.66557 0.0
C3207 C 0.7167 0.79964 0.62403 0.0
C3208 C 0.76093 0.77465 0.68525 0.0
C3209 C 0.74989 0.78196 0.70555 0.0
C3210 C 0.76339 0.78896 0.66567 0.0
C3211 C 0.75354 0.81056 0.66582 0.0
C3212 C 0.74148 0.81745 0.6859 0.0
C3213 C 0.74035 0.80342 0.70565 0.0
C3214 C 0.77725 0.78135 0.64518 0.0
C3215 C 0.72999 0.83982 0.68671 0.0
H3216 H 0.79098 0.87345 0.624 0.0
H3217 H 0.72746 0.82805 0.58839 0.0
H3218 H 0.78544 0.85527 0.68257 0.0
H3219 H 0.80338 0.83632 0.66788 0.0
H3220 H 0.80714 0.86782 0.66295 0.0
H3221 H 0.70389 0.7985 0.60759 0.0
H3222 H 0.72326 0.78222 0.62472 0.0
H3223 H 0.70676 0.80216 0.64017 0.0
H3224 H 0.76869 0.75836 0.68512 0.0
H3225 H 0.73203 0.80938 0.72134 0.0
H3226 H 0.79231 0.79602 0.64278 0.0
H3227 H 0.76525 0.778 0.62807 0.0
H3228 H 0.78488 0.7648 0.64832 0.0
H3229 H 0.74417 0.85602 0.6875 0.0
H3230 H 0.7195 0.84152 0.70261 0.0
H3231 H 0.71774 0.83964 0.67005 0.0
C3232 C 0.68969 0.41223 0.53145 0.0
C3233 C 0.69601 0.41253 0.50763 0.0
C3234 C 0.6705 0.42323 0.53875 0.0
C3235 C 0.65706 0.43429 0.52169 0.0
C3236 C 0.66285 0.43391 0.49744 0.0
C3237 C 0.68242 0.42325 0.49077 0.0
C3238 C 0.66493 0.42349 0.56478 0.0
C3239 C 0.64851 0.44498 0.47855 0.0
C3240 C 0.59296 0.44334 0.52775 0.0
C3241 C 0.59584 0.46844 0.53215 0.0
C3242 C 0.61292 0.43174 0.52601 0.0
C3243 C 0.63637 0.44565 0.52871 0.0
C3244 C 0.63951 0.47082 0.5352 0.0
C3245 C 0.61905 0.48201 0.53691 0.0
C3246 C 0.60868 0.40488 0.51926 0.0
C3247 C 0.66434 0.48611 0.53868 0.0
H3248 H 0.70042 0.40432 0.54466 0.0
H3249 H 0.68729 0.42353 0.47238 0.0
H3250 H 0.66617 0.44232 0.57268 0.0
H3251 H 0.64614 0.41427 0.56588 0.0
H3252 H 0.67746 0.41454 0.57592 0.0
H3253 H 0.65516 0.44285 0.46043 0.0
H3254 H 0.62917 0.43653 0.47721 0.0
H3255 H 0.64952 0.46447 0.48387 0.0
H3256 H 0.5749 0.43279 0.52452 0.0
H3257 H 0.6212 0.50141 0.54037 0.0
H3258 H 0.6212 0.3961 0.53051 0.0
H3259 H 0.61227 0.40132 0.50015 0.0
H3260 H 0.58981 0.39636 0.52128 0.0
H3261 H 0.67677 0.47779 0.55056 0.0
H3262 H 0.66392 0.50466 0.54662 0.0
H3263 H 0.67193 0.48725 0.52098 0.0
C3264 C 0.1936 0.08179 0.50107 0.0
C3265 C 0.19576 0.10327 0.48988 0.0
C3266 C 0.17085 0.06803 0.50315 0.0
C3267 C 0.14964 0.07616 0.4942 0.0
C3268 C 0.15176 0.09747 0.48214 0.0
C3269 C 0.17482 0.11094 0.48037 0.0
C3270 C 0.16952 0.04533 0.51587 0.0
C3271 C 0.12963 0.10645 0.47183 0.0
C3272 C 0.08998 0.03202 0.4896 0.0
C3273 C 0.08 0.0394 0.51054 0.0
C3274 C 0.11226 0.04417 0.48364 0.0
C3275 C 0.12535 0.06363 0.49945 0.0
C3276 C 0.11541 0.07093 0.52081 0.0
C3277 C 0.09276 0.05895 0.52592 0.0
C3278 C 0.12178 0.03579 0.46059 0.0
C3279 C 0.12884 0.09127 0.53843 0.0
H3280 H 0.20973 0.07622 0.50913 0.0
H3281 H 0.17647 0.1277 0.47197 0.0
H3282 H 0.15979 0.04717 0.53226 0.0
H3283 H 0.15916 0.02988 0.50389 0.0
H3284 H 0.18771 0.04118 0.52129 0.0
H3285 H 0.13433 0.12206 0.46118 0.0
H3286 H 0.11768 0.0918 0.46005 0.0
H3287 H 0.11915 0.11193 0.4867 0.0
H3288 H 0.08012 0.01703 0.47755 0.0
H3289 H 0.08516 0.06467 0.54221 0.0
H3290 H 0.13481 0.02364 0.46488 0.0
H3291 H 0.13124 0.05117 0.45192 0.0
H3292 H 0.10709 0.02558 0.44746 0.0
H3293 H 0.14666 0.08703 0.54501 0.0
H3294 H 0.11869 0.0947 0.55425 0.0
H3295 H 0.13232 0.10805 0.52928 0.0
C3296 C 0.19911 0.9472 0.80365 0.0
C3297 C 0.17476 0.94886 0.7974 0.0
C3298 C 0.20818 0.92585 0.79846 0.0
C3299 C 0.19247 0.90512 0.7873 0.0
C3300 C 0.16782 0.90651 0.78094 0.0
C3301 C 0.15933 0.92844 0.78578 0.0
C3302 C 0.23463 0.92543 0.80526 0.0
C3303 C 0.15033 0.88471 0.76945 0.0
C3304 C 0.22261 0.85441 0.76028 0.0
C3305 C 0.22229 0.83915 0.77894 0.0
C3306 C 0.21226 0.87554 0.76236 0.0
C3307 C 0.20174 0.88179 0.78375 0.0
C3308 C 0.20148 0.86642 0.80261 0.0
C3309 C 0.21148 0.84528 0.79986 0.0
C3310 C 0.21273 0.8913 0.74174 0.0
C3311 C 0.19094 0.87245 0.82592 0.0
H3312 H 0.21134 0.96276 0.8125 0.0
H3313 H 0.14051 0.92944 0.78089 0.0
H3314 H 0.23649 0.91267 0.81915 0.0
H3315 H 0.24317 0.91902 0.7893 0.0
H3316 H 0.24477 0.94343 0.81249 0.0
H3317 H 0.13203 0.88891 0.76463 0.0
H3318 H 0.15721 0.87723 0.75291 0.0
H3319 H 0.14872 0.87044 0.78208 0.0
H3320 H 0.23062 0.84967 0.74394 0.0
H3321 H 0.21101 0.83359 0.81436 0.0
H3322 H 0.22351 0.9093 0.7478 0.0
H3323 H 0.19412 0.89401 0.73594 0.0
H3324 H 0.22059 0.88348 0.72594 0.0
H3325 H 0.20116 0.88965 0.83508 0.0
H3326 H 0.19146 0.85824 0.83854 0.0
H3327 H 0.1719 0.87496 0.82211 0.0
C3328 C 0.33734 0.8994 0.99047 0.0
C3329 C 0.31802 0.90925 0.99892 0.0
C3330 C 0.36108 0.91195 0.99511 0.0
C3331 C 0.3654 0.93487 0.0084 0.0
C3332 C 0.34577 0.94533 0.01601 0.0
C3333 C 0.32234 0.93208 0.01169 0.0
C3334 C 0.38164 0.9 0.98725 0.0
C3335 C 0.34966 0.96987 0.02991 0.0
C3336 C 0.42457 0.94989 0.04778 0.0
C3337 C 0.43875 0.96519 0.03398 0.0
C3338 C 0.40048 0.94042 0.03985 0.0
C3339 C 0.39046 0.94615 0.01738 0.0
C3340 C 0.40458 0.96193 0.00352 0.0
C3341 C 0.42862 0.97149 0.01212 0.0
C3342 C 0.38588 0.92395 0.05537 0.0
C3343 C 0.39435 0.9685 0.97961 0.0
H3344 H 0.33393 0.8815 0.98102 0.0
H3345 H 0.3075 0.93919 0.01919 0.0
H3346 H 0.39396 0.91238 0.9775 0.0
H3347 H 0.39239 0.89568 0.0034 0.0
H3348 H 0.37515 0.88309 0.97539 0.0
H3349 H 0.33233 0.97599 0.03323 0.0
H3350 H 0.36007 0.96948 0.04758 0.0
H3351 H 0.36043 0.98329 0.01986 0.0
H3352 H 0.43233 0.94531 0.06487 0.0
H3353 H 0.43965 0.98336 0.00149 0.0
H3354 H 0.37996 0.90592 0.04538 0.0
H3355 H 0.36936 0.93113 0.05964 0.0
H3356 H 0.39628 0.92179 0.07261 0.0
H3357 H 0.38785 0.95201 0.96717 0.0
H3358 H 0.4078 0.98074 0.97085 0.0
H3359 H 0.37856 0.97745 0.98238 0.0
C3360 C 0.84779 0.58978 0.80068 0.0
C3361 C 0.85793 0.57578 0.78377 0.0
C3362 C 0.83758 0.60958 0.79398 0.0
C3363 C 0.83694 0.61507 0.76961 0.0
C3364 C 0.84745 0.60119 0.75251 0.0
C3365 C 0.85808 0.58183 0.75987 0.0
C3366 C 0.82716 0.62442 0.8129 0.0
C3367 C 0.84689 0.60641 0.72637 0.0
C3368 C 0.78879 0.65237 0.75315 0.0
C3369 C 0.80234 0.67558 0.75708 0.0
C3370 C 0.80009 0.63219 0.75586 0.0
C3371 C 0.82539 0.63553 0.76233 0.0
C3372 C 0.83928 0.65891 0.76435 0.0
C3373 C 0.82753 0.67866 0.76185 0.0
C3374 C 0.78476 0.60745 0.75339 0.0
C3375 C 0.8663 0.66333 0.77095 0.0
H3376 H 0.84769 0.58511 0.81916 0.0
H3377 H 0.86558 0.57078 0.74666 0.0
H3378 H 0.83579 0.64359 0.81365 0.0
H3379 H 0.80751 0.62353 0.80804 0.0
H3380 H 0.82978 0.61819 0.83117 0.0
H3381 H 0.85612 0.59408 0.71539 0.0
H3382 H 0.82787 0.60464 0.71851 0.0
H3383 H 0.8557 0.62522 0.72496 0.0
H3384 H 0.7693 0.65009 0.74955 0.0
H3385 H 0.838 0.6967 0.76462 0.0
H3386 H 0.78408 0.60047 0.7714 0.0
H3387 H 0.79286 0.59475 0.74169 0.0
H3388 H 0.76595 0.60762 0.74572 0.0
H3389 H 0.87005 0.66065 0.79029 0.0
H3390 H 0.87479 0.68191 0.76803 0.0
H3391 H 0.87504 0.65038 0.76026 0.0
C3392 C 0.84209 0.61531 0.01257 0.0
C3393 C 0.82159 0.59939 0.00169 0.0
C3394 C 0.86417 0.60714 0.01817 0.0
C3395 C 0.86561 0.58239 0.01333 0.0
C3396 C 0.84464 0.56618 0.00343 0.0
C3397 C 0.82316 0.57488 0.99745 0.0
C3398 C 0.88617 0.6251 0.02845 0.0
C3399 C 0.84504 0.53961 0.99837 0.0
C3400 C 0.92458 0.56286 0.99792 0.0
C3401 C 0.93228 0.55312 0.019 0.0
C3402 C 0.90335 0.57288 0.99616 0.0
C3403 C 0.88934 0.57356 0.01609 0.0
C3404 C 0.89712 0.56402 0.03761 0.0
C3405 C 0.91843 0.55375 0.03877 0.0
C3406 C 0.89569 0.58239 0.9727 0.0
C3407 C 0.88292 0.56467 0.05937 0.0
H3408 H 0.84111 0.63424 0.01599 0.0
H3409 H 0.8075 0.56228 0.98929 0.0
H3410 H 0.89461 0.61893 0.04497 0.0
H3411 H 0.89985 0.62654 0.01516 0.0
H3412 H 0.88175 0.64328 0.03295 0.0
H3413 H 0.82674 0.52909 0.99266 0.0
H3414 H 0.85693 0.53679 0.98386 0.0
H3415 H 0.85259 0.53234 0.01469 0.0
H3416 H 0.93514 0.56244 0.98252 0.0
H3417 H 0.92449 0.54665 0.05526 0.0
H3418 H 0.89306 0.60135 0.97605 0.0
H3419 H 0.87812 0.57176 0.96472 0.0
H3420 H 0.90913 0.58153 0.95927 0.0
H3421 H 0.88192 0.5836 0.06552 0.0
H3422 H 0.89113 0.55628 0.07463 0.0
H3423 H 0.86409 0.55516 0.05453 0.0
C3424 C 0.19282 0.07603 0.79437 0.0
C3425 C 0.16911 0.07343 0.80099 0.0
C3426 C 0.20607 0.09876 0.79146 0.0
C3427 C 0.19491 0.1194 0.79394 0.0
C3428 C 0.17068 0.11686 0.79997 0.0
C3429 C 0.15815 0.09394 0.80362 0.0
C3430 C 0.23186 0.10059 0.7852 0.0
C3431 C 0.15772 0.1382 0.80167 0.0
C3432 C 0.23539 0.18112 0.80317 0.0
C3433 C 0.23443 0.18833 0.77974 0.0
C3434 C 0.22215 0.15902 0.80814 0.0
C3435 C 0.20827 0.14342 0.78911 0.0
C3436 C 0.20759 0.15056 0.76531 0.0
C3437 C 0.22044 0.17306 0.76099 0.0
C3438 C 0.22314 0.15228 0.83373 0.0
C3439 C 0.19335 0.13445 0.74438 0.0
H3440 H 0.20079 0.06014 0.79056 0.0
H3441 H 0.13952 0.09193 0.80787 0.0
H3442 H 0.23411 0.10935 0.76824 0.0
H3443 H 0.24415 0.11202 0.79968 0.0
H3444 H 0.23759 0.08272 0.78295 0.0
H3445 H 0.139 0.13332 0.80679 0.0
H3446 H 0.16787 0.15249 0.81516 0.0
H3447 H 0.15686 0.14595 0.78402 0.0
H3448 H 0.24585 0.19315 0.81774 0.0
H3449 H 0.21966 0.17871 0.74285 0.0
H3450 H 0.23174 0.13611 0.83457 0.0
H3451 H 0.20461 0.14766 0.83933 0.0
H3452 H 0.23363 0.16689 0.84671 0.0
H3453 H 0.20128 0.11785 0.74149 0.0
H3454 H 0.19327 0.14337 0.72734 0.0
H3455 H 0.17439 0.12886 0.74843 0.0
C3456 C 0.37009 0.93774 0.30863 0.0
C3457 C 0.36544 0.95484 0.29291 0.0
C3458 C 0.35802 0.91382 0.30422 0.0
C3459 C 0.34266 0.90661 0.2826 0.0
C3460 C 0.33806 0.92398 0.26665 0.0
C3461 C 0.34903 0.94804 0.27239 0.0
C3462 C 0.36209 0.89615 0.3224 0.0
C3463 C 0.32252 0.91699 0.243 0.0
C3464 C 0.3392 0.84233 0.25572 0.0
C3465 C 0.31577 0.8318 0.25993 0.0
C3466 C 0.34816 0.86661 0.26318 0.0
C3467 C 0.33341 0.88066 0.27537 0.0
C3468 C 0.30978 0.87008 0.27975 0.0
C3469 C 0.30125 0.84575 0.27204 0.0
C3470 C 0.37322 0.87733 0.2575 0.0
C3471 C 0.29362 0.88421 0.29301 0.0
H3472 H 0.38306 0.94309 0.32431 0.0
H3473 H 0.34582 0.96138 0.2601 0.0
H3474 H 0.34445 0.88635 0.32672 0.0
H3475 H 0.37224 0.8826 0.31468 0.0
H3476 H 0.37235 0.90516 0.33941 0.0
H3477 H 0.32193 0.93249 0.23203 0.0
H3478 H 0.32954 0.90273 0.23224 0.0
H3479 H 0.30378 0.9095 0.24645 0.0
H3480 H 0.35055 0.83166 0.24635 0.0
H3481 H 0.28316 0.83768 0.27545 0.0
H3482 H 0.38477 0.88425 0.27444 0.0
H3483 H 0.37224 0.8928 0.2466 0.0
H3484 H 0.38214 0.86406 0.24739 0.0
H3485 H 0.30042 0.88696 0.31239 0.0
H3486 H 0.27457 0.87473 0.29136 0.0
H3487 H 0.29397 0.90212 0.28619 0.0
C3488 C 0.51796 0.34385 0.62418 0.0
C3489 C 0.52028 0.32353 0.60916 0.0
C3490 C 0.51978 0.36652 0.61516 0.0
C3491 C 0.52461 0.36879 0.59082 0.0
C3492 C 0.52831 0.34849 0.57606 0.0
C3493 C 0.52576 0.32603 0.58533 0.0
C3494 C 0.51564 0.38784 0.63134 0.0
C3495 C 0.53444 0.35037 0.55033 0.0
C3496 C 0.50488 0.42132 0.56073 0.0
C3497 C 0.5262 0.43819 0.56446 0.0
C3498 C 0.50414 0.39841 0.56904 0.0
C3499 C 0.52539 0.39234 0.58069 0.0
C3500 C 0.54726 0.409 0.58319 0.0
C3501 C 0.54728 0.43188 0.57538 0.0
C3502 C 0.48051 0.38101 0.56606 0.0
C3503 C 0.57052 0.40295 0.59463 0.0
H3504 H 0.51353 0.3418 0.64253 0.0
H3505 H 0.52776 0.3103 0.57379 0.0
H3506 H 0.53152 0.40248 0.63249 0.0
H3507 H 0.4998 0.39502 0.62354 0.0
H3508 H 0.51238 0.38314 0.64989 0.0
H3509 H 0.53846 0.33319 0.54188 0.0
H3510 H 0.51909 0.35547 0.53933 0.0
H3511 H 0.55034 0.36469 0.54972 0.0
H3512 H 0.48866 0.42636 0.55223 0.0
H3513 H 0.56389 0.44495 0.57782 0.0
H3514 H 0.47486 0.37688 0.58408 0.0
H3515 H 0.48277 0.36379 0.55627 0.0
H3516 H 0.46583 0.38826 0.55604 0.0
H3517 H 0.56949 0.4024 0.61435 0.0
H3518 H 0.5865 0.41642 0.59174 0.0
H3519 H 0.57335 0.38494 0.58723 0.0
C3520 C 0.43417 0.73749 0.34176 0.0
C3521 C 0.43575 0.74361 0.36668 0.0
C3522 C 0.41201 0.73456 0.32751 0.0
C3523 C 0.39061 0.73633 0.33872 0.0
C3524 C 0.39166 0.73864 0.36429 0.0
C3525 C 0.41431 0.74293 0.37798 0.0
C3526 C 0.41169 0.73015 0.30045 0.0
C3527 C 0.36907 0.73738 0.3773 0.0
C3528 C 0.34401 0.76793 0.30767 0.0
C3529 C 0.33008 0.74939 0.2921 0.0
C3530 C 0.36311 0.76367 0.32339 0.0
C3531 C 0.36852 0.74004 0.32381 0.0
C3532 C 0.35374 0.72091 0.30872 0.0
C3533 C 0.33498 0.72593 0.29264 0.0
C3534 C 0.37654 0.78477 0.33998 0.0
C3535 C 0.35652 0.69492 0.30997 0.0
H3536 H 0.45032 0.73501 0.33334 0.0
H3537 H 0.41521 0.74593 0.39749 0.0
H3538 H 0.40021 0.71268 0.29396 0.0
H3539 H 0.40391 0.74441 0.29152 0.0
H3540 H 0.42997 0.72951 0.29466 0.0
H3541 H 0.37131 0.72868 0.39432 0.0
H3542 H 0.36577 0.75585 0.38227 0.0
H3543 H 0.35295 0.7272 0.366 0.0
H3544 H 0.33974 0.78598 0.30781 0.0
H3545 H 0.32346 0.71132 0.28139 0.0
H3546 H 0.395 0.78236 0.34645 0.0
H3547 H 0.3663 0.78721 0.35591 0.0
H3548 H 0.37761 0.8016 0.33085 0.0
H3549 H 0.36027 0.68727 0.292 0.0
H3550 H 0.33917 0.6844 0.31418 0.0
H3551 H 0.37098 0.69233 0.32374 0.0
C3552 C 0.01394 0.68513 0.13294 0.0
C3553 C 0.01601 0.7053 0.11978 0.0
C3554 C 0.01612 0.66253 0.12203 0.0
C3555 C 0.01952 0.65999 0.09717 0.0
C3556 C 0.02208 0.6804 0.0839 0.0
C3557 C 0.0211 0.70298 0.09565 0.0
C3558 C 0.01477 0.64137 0.13707 0.0
C3559 C 0.02545 0.67831 0.05729 0.0
C3560 C 0.03691 0.60132 0.07259 0.0
C3561 C 0.01399 0.58749 0.06658 0.0
C3562 C 0.03926 0.62548 0.08191 0.0
C3563 C 0.01811 0.63564 0.08477 0.0
C3564 C 0.99505 0.62179 0.07738 0.0
C3565 C 0.99327 0.59779 0.06858 0.0
C3566 C 0.06419 0.63938 0.09012 0.0
C3567 C 0.97217 0.63208 0.07939 0.0
H3568 H 0.01101 0.68711 0.15191 0.0
H3569 H 0.02481 0.71886 0.08606 0.0
H3570 H 0.99791 0.62839 0.13128 0.0
H3571 H 0.03021 0.63181 0.13433 0.0
H3572 H 0.015 0.64693 0.15664 0.0
H3573 H 0.02887 0.69615 0.05002 0.0
H3574 H 0.04078 0.66882 0.05386 0.0
H3575 H 0.00899 0.66741 0.04719 0.0
H3576 H 0.05284 0.59299 0.07103 0.0
H3577 H 0.97558 0.58685 0.06363 0.0
H3578 H 0.06786 0.63852 0.10984 0.0
H3579 H 0.0657 0.65863 0.08683 0.0
H3580 H 0.07835 0.63163 0.08093 0.0
H3581 H 0.96877 0.63474 0.09864 0.0
H3582 H 0.95613 0.62031 0.06938 0.0
H3583 H 0.97441 0.64984 0.07219 0.0
C3584 C 0.06757 0.23806 0.84971 0.0
C3585 C 0.06503 0.2584 0.86456 0.0
C3586 C 0.08895 0.23709 0.83871 0.0
C3587 C 0.1082 0.25689 0.84293 0.0
C3588 C 0.10596 0.27715 0.85868 0.0
C3589 C 0.08416 0.27779 0.86908 0.0
C3590 C 0.09057 0.21531 0.82183 0.0
C3591 C 0.12623 0.29843 0.86389 0.0
C3592 C 0.16984 0.24381 0.82964 0.0
C3593 C 0.17232 0.25252 0.80694 0.0
C3594 C 0.14936 0.24572 0.84179 0.0
C3595 C 0.13066 0.25627 0.83084 0.0
C3596 C 0.13309 0.26536 0.80802 0.0
C3597 C 0.15404 0.26353 0.79637 0.0
C3598 C 0.14767 0.23628 0.8663 0.0
C3599 C 0.11335 0.27655 0.79573 0.0
H3600 H 0.05234 0.22344 0.84574 0.0
H3601 H 0.08175 0.29374 0.8801 0.0
H3602 H 0.09329 0.2208 0.80345 0.0
H3603 H 0.10639 0.20716 0.82795 0.0
H3604 H 0.07404 0.20137 0.82067 0.0
H3605 H 0.12221 0.31197 0.87782 0.0
H3606 H 0.14328 0.29236 0.87012 0.0
H3607 H 0.12939 0.30727 0.8471 0.0
H3608 H 0.18407 0.23561 0.83813 0.0
H3609 H 0.15595 0.27036 0.77889 0.0
H3610 H 0.13214 0.22129 0.86546 0.0
H3611 H 0.14437 0.25064 0.87972 0.0
H3612 H 0.16434 0.22965 0.87283 0.0
H3613 H 0.09672 0.26284 0.79158 0.0
H3614 H 0.11856 0.28391 0.77866 0.0
H3615 H 0.10879 0.29127 0.80792 0.0
C3616 C 0.51418 0.68255 0.90989 0.0
C3617 C 0.51372 0.70426 0.92364 0.0
C3618 C 0.51347 0.66094 0.92103 0.0
C3619 C 0.51174 0.66114 0.94629 0.0
C3620 C 0.51012 0.68288 0.9599 0.0
C3621 C 0.51133 0.70412 0.94846 0.0
C3622 C 0.51541 0.63808 0.906 0.0
C3623 C 0.50797 0.68391 0.98677 0.0
C3624 C 0.49484 0.60359 0.97683 0.0
C3625 C 0.51765 0.59948 0.98576 0.0
C3626 C 0.4926 0.62321 0.96327 0.0
C3627 C 0.51364 0.63927 0.95907 0.0
C3628 C 0.53666 0.63531 0.96845 0.0
C3629 C 0.53837 0.61532 0.98144 0.0
C3630 C 0.4678 0.62664 0.95325 0.0
C3631 C 0.55952 0.6522 0.96481 0.0
H3632 H 0.51598 0.68263 0.89071 0.0
H3633 H 0.51055 0.72082 0.95911 0.0
H3634 H 0.53243 0.63182 0.91197 0.0
H3635 H 0.50024 0.62362 0.90862 0.0
H3636 H 0.51528 0.6406 0.88645 0.0
H3637 H 0.50509 0.70188 0.99436 0.0
H3638 H 0.49271 0.6702 0.99075 0.0
H3639 H 0.5247 0.67974 0.9962 0.0
H3640 H 0.47885 0.59099 0.97967 0.0
H3641 H 0.55604 0.61201 0.98819 0.0
H3642 H 0.46718 0.62708 0.93337 0.0
H3643 H 0.46389 0.64417 0.96085 0.0
H3644 H 0.45335 0.61209 0.95739 0.0
H3645 H 0.56111 0.65346 0.94525 0.0
H3646 H 0.57602 0.6463 0.97293 0.0
H3647 H 0.55882 0.67055 0.97306 0.0
C3648 C 0.09083 0.76823 0.67044 0.0
C3649 C 0.0693 0.75808 0.67911 0.0
C3650 C 0.11317 0.7669 0.68283 0.0
C3651 C 0.11386 0.75379 0.70347 0.0
C3652 C 0.09198 0.74363 0.71235 0.0
C3653 C 0.06991 0.74632 0.70024 0.0
C3654 C 0.13603 0.77938 0.6737 0.0
C3655 C 0.09139 0.72969 0.73434 0.0
C3656 C 0.17456 0.73368 0.7116 0.0
C3657 C 0.18633 0.75052 0.73021 0.0
C3658 C 0.14996 0.73289 0.70437 0.0
C3659 C 0.13763 0.75038 0.71498 0.0
C3660 C 0.14931 0.76643 0.7347 0.0
C3661 C 0.17344 0.76598 0.74241 0.0
C3662 C 0.1375 0.71416 0.68463 0.0
C3663 C 0.13701 0.78533 0.74642 0.0
H3664 H 0.09015 0.77734 0.65406 0.0
H3665 H 0.05309 0.73829 0.70675 0.0
H3666 H 0.14774 0.79056 0.68876 0.0
H3667 H 0.14635 0.7658 0.66635 0.0
H3668 H 0.13221 0.79109 0.65928 0.0
H3669 H 0.07598 0.71442 0.73193 0.0
H3670 H 0.10831 0.72251 0.7385 0.0
H3671 H 0.08846 0.74169 0.75015 0.0
H3672 H 0.18474 0.72168 0.70231 0.0
H3673 H 0.18281 0.77912 0.75669 0.0
H3674 H 0.13508 0.72267 0.66755 0.0
H3675 H 0.11928 0.70629 0.68934 0.0
H3676 H 0.14809 0.69944 0.68143 0.0
H3677 H 0.13231 0.79745 0.73276 0.0
H3678 H 0.14851 0.79634 0.76176 0.0
H3679 H 0.12011 0.77658 0.75315 0.0
C3680 C 0.02348 0.33929 0.44963 0.0
C3681 C 0.03856 0.34108 0.43082 0.0
C3682 C 0.02271 0.3593 0.46591 0.0
C3683 C 0.03794 0.38141 0.46375 0.0
C3684 C 0.05462 0.38271 0.44597 0.0
C3685 C 0.05437 0.36264 0.42936 0.0
C3686 C 0.00411 0.35728 0.48402 0.0
C3687 C 0.07165 0.40575 0.44352 0.0
C3688 C 0.01316 0.43853 0.479 0.0
C3689 C 0.02504 0.4468 0.50196 0.0
C3690 C 0.01723 0.41731 0.46658 0.0
C3691 C 0.03369 0.40388 0.47725 0.0
C3692 C 0.0457 0.41194 0.50048 0.0
C3693 C 0.04118 0.43333 0.51263 0.0
C3694 C 0.00389 0.40933 0.4419 0.0
C3695 C 0.06337 0.39805 0.51238 0.0
H3696 H 0.01101 0.32269 0.45058 0.0
H3697 H 0.06611 0.36397 0.41487 0.0
H3698 H 0.01225 0.36557 0.5021 0.0
H3699 H 0.98944 0.36719 0.47833 0.0
H3700 H 0.99592 0.33827 0.48555 0.0
H3701 H 0.08605 0.40274 0.43171 0.0
H3702 H 0.06135 0.41888 0.43562 0.0
H3703 H 0.08025 0.41397 0.4615 0.0
H3704 H 0.00065 0.44874 0.47051 0.0
H3705 H 0.05044 0.4396 0.53033 0.0
H3706 H 0.99346 0.39088 0.44172 0.0
H3707 H 0.01701 0.40875 0.42816 0.0
H3708 H 0.99122 0.42152 0.43644 0.0
H3709 H 0.05388 0.37998 0.51561 0.0
H3710 H 0.07219 0.40736 0.52989 0.0
H3711 H 0.07758 0.3953 0.50026 0.0
C3712 C 0.44028 0.25682 0.19346 0.0
C3713 C 0.4332 0.25272 0.16853 0.0
C3714 C 0.42342 0.2601 0.21009 0.0
C3715 C 0.3989 0.25902 0.20159 0.0
C3716 C 0.39178 0.25573 0.17644 0.0
C3717 C 0.40902 0.25269 0.16023 0.0
C3718 C 0.43175 0.26372 0.23673 0.0
C3719 C 0.36572 0.25444 0.16664 0.0
C3720 C 0.34601 0.23558 0.23489 0.0
C3721 C 0.33578 0.25632 0.2388 0.0
C3722 C 0.36806 0.23657 0.22489 0.0
C3723 C 0.38001 0.25892 0.21865 0.0
C3724 C 0.37101 0.28033 0.22506 0.0
C3725 C 0.34867 0.27875 0.23492 0.0
C3726 C 0.37701 0.2133 0.21851 0.0
C3727 C 0.38374 0.30455 0.2194 0.0
H3728 H 0.45897 0.25708 0.20011 0.0
H3729 H 0.40336 0.24967 0.14105 0.0
H3730 H 0.42283 0.27741 0.24612 0.0
H3731 H 0.42675 0.24656 0.24491 0.0
H3732 H 0.45167 0.26936 0.24006 0.0
H3733 H 0.36339 0.25294 0.14659 0.0
H3734 H 0.35439 0.23858 0.17291 0.0
H3735 H 0.35878 0.27069 0.17353 0.0
H3736 H 0.33574 0.21825 0.23778 0.0
H3737 H 0.34047 0.2947 0.23777 0.0
H3738 H 0.39674 0.21526 0.22352 0.0
H3739 H 0.37376 0.20857 0.1987 0.0
H3740 H 0.36763 0.19815 0.22762 0.0
H3741 H 0.40357 0.30635 0.22381 0.0
H3742 H 0.37715 0.31954 0.22949 0.0
H3743 H 0.38043 0.30628 0.1998 0.0
C3744 C 0.61775 0.51353 0.38327 0.0
C3745 C 0.61076 0.50385 0.35932 0.0
C3746 C 0.60158 0.51095 0.40118 0.0
C3747 C 0.5779 0.49775 0.39528 0.0
C3748 C 0.57082 0.48752 0.37124 0.0
C3749 C 0.5872 0.49094 0.3535 0.0
C3750 C 0.60975 0.52273 0.42638 0.0
C3751 C 0.54591 0.47301 0.36428 0.0
C3752 C 0.54773 0.47684 0.45047 0.0
C3753 C 0.53303 0.49421 0.45464 0.0
C3754 C 0.56119 0.47677 0.43027 0.0
C3755 C 0.56064 0.49508 0.41435 0.0
C3756 C 0.54504 0.51209 0.41804 0.0
C3757 C 0.53122 0.51119 0.43795 0.0
C3758 C 0.57683 0.45773 0.42658 0.0
C3759 C 0.54424 0.53241 0.40214 0.0
H3760 H 0.63581 0.52367 0.38799 0.0
H3761 H 0.58162 0.4833 0.33509 0.0
H3762 H 0.59737 0.53519 0.43177 0.0
H3763 H 0.60902 0.50889 0.43944 0.0
H3764 H 0.62846 0.53302 0.42785 0.0
H3765 H 0.54355 0.46526 0.34514 0.0
H3766 H 0.54252 0.45812 0.37606 0.0
H3767 H 0.53201 0.48454 0.36703 0.0
H3768 H 0.54917 0.46364 0.46334 0.0
H3769 H 0.51996 0.52461 0.44113 0.0
H3770 H 0.59616 0.46599 0.43048 0.0
H3771 H 0.57418 0.44984 0.40751 0.0
H3772 H 0.57282 0.44304 0.43851 0.0
H3773 H 0.56056 0.54634 0.40717 0.0
H3774 H 0.52802 0.54098 0.40427 0.0
H3775 H 0.54433 0.5261 0.38284 0.0
C3776 C 0.26 0.82165 0.06597 0.0
C3777 C 0.26201 0.84677 0.0672 0.0
C3778 C 0.26335 0.80991 0.08679 0.0
C3779 C 0.26848 0.82361 0.10943 0.0
C3780 C 0.27102 0.84904 0.11082 0.0
C3781 C 0.26791 0.86039 0.08957 0.0
C3782 C 0.26065 0.78277 0.08462 0.0
C3783 C 0.2763 0.86415 0.13478 0.0
C3784 C 0.24669 0.7931 0.16321 0.0
C3785 C 0.26812 0.78762 0.17418 0.0
C3786 C 0.24661 0.80465 0.14202 0.0
C3787 C 0.26862 0.81108 0.13171 0.0
C3788 C 0.29031 0.80513 0.14243 0.0
C3789 C 0.28978 0.7932 0.16358 0.0
C3790 C 0.22304 0.81039 0.13095 0.0
C3791 C 0.31407 0.81185 0.13187 0.0
H3792 H 0.25584 0.81105 0.04865 0.0
H3793 H 0.26965 0.87982 0.09051 0.0
H3794 H 0.27659 0.77712 0.09409 0.0
H3795 H 0.24452 0.77505 0.09338 0.0
H3796 H 0.25859 0.77497 0.06551 0.0
H3797 H 0.27924 0.88375 0.13262 0.0
H3798 H 0.26095 0.85995 0.1459 0.0
H3799 H 0.29258 0.85982 0.14491 0.0
H3800 H 0.22994 0.78873 0.17152 0.0
H3801 H 0.30638 0.78924 0.17238 0.0
H3802 H 0.21921 0.8021 0.11206 0.0
H3803 H 0.2244 0.83013 0.13045 0.0
H3804 H 0.2075 0.80381 0.14113 0.0
H3805 H 0.31296 0.80302 0.11325 0.0
H3806 H 0.3294 0.80653 0.14279 0.0
H3807 H 0.31796 0.83157 0.13064 0.0
C3808 C 0.94391 0.54064 0.8555 0.0
C3809 C 0.92012 0.52942 0.85777 0.0
C3810 C 0.96214 0.54238 0.87456 0.0
C3811 C 0.9565 0.53233 0.89623 0.0
C3812 C 0.93238 0.52177 0.89896 0.0
C3813 C 0.91443 0.52067 0.87977 0.0
C3814 C 0.98756 0.55419 0.87121 0.0
C3815 C 0.92566 0.51083 0.92184 0.0
C3816 C 0.00133 0.50867 0.93825 0.0
C3817 C 0.00436 0.52611 0.95791 0.0
C3818 C 0.98734 0.51147 0.91701 0.0
C3819 C 0.97576 0.5319 0.91591 0.0
C3820 C 0.98034 0.55036 0.93516 0.0
C3821 C 0.99486 0.5473 0.95591 0.0
C3822 C 0.9833 0.49164 0.89664 0.0
C3823 C 0.96834 0.57236 0.9347 0.0
H3824 H 0.94842 0.54764 0.83859 0.0
H3825 H 0.89615 0.51197 0.8817 0.0
H3826 H 0.99486 0.56763 0.88669 0.0
H3827 H 0.99952 0.54043 0.87064 0.0
H3828 H 0.98844 0.56328 0.85429 0.0
H3829 H 0.90602 0.50361 0.92118 0.0
H3830 H 0.93586 0.49594 0.92491 0.0
H3831 H 0.93068 0.52449 0.93759 0.0
H3832 H 0.00861 0.49221 0.94004 0.0
H3833 H 0.99758 0.56085 0.97116 0.0
H3834 H 0.98552 0.49924 0.87907 0.0
H3835 H 0.96451 0.48169 0.89583 0.0
H3836 H 0.99597 0.47866 0.89899 0.0
H3837 H 0.97039 0.58048 0.91737 0.0
H3838 H 0.97589 0.5862 0.94982 0.0
H3839 H 0.94867 0.56708 0.93614 0.0
C3840 C 0.24303 0.16007 0.58451 0.0
C3841 C 0.26323 0.16564 0.57164 0.0
C3842 C 0.24288 0.17027 0.60825 0.0
C3843 C 0.26384 0.18558 0.61967 0.0
C3844 C 0.28428 0.1913 0.60662 0.0
C3845 C 0.28352 0.18164 0.58253 0.0
C3846 C 0.22041 0.16446 0.6212 0.0
C3847 C 0.30724 0.20692 0.61837 0.0
C3848 C 0.262 0.22417 0.67851 0.0
C3849 C 0.2701 0.20965 0.69563 0.0
C3850 C 0.25939 0.21645 0.65368 0.0
C3851 C 0.26519 0.19379 0.64586 0.0
C3852 C 0.27288 0.17891 0.66312 0.0
C3853 C 0.27511 0.18696 0.68772 0.0
C3854 C 0.25078 0.23266 0.63582 0.0
C3855 C 0.27932 0.15467 0.65558 0.0
H3856 H 0.22715 0.14805 0.57581 0.0
H3857 H 0.29907 0.18597 0.57243 0.0
H3858 H 0.22418 0.15393 0.6366 0.0
H3859 H 0.21495 0.18131 0.6287 0.0
H3860 H 0.20501 0.15394 0.60912 0.0
H3861 H 0.32125 0.21026 0.60554 0.0
H3862 H 0.30336 0.22449 0.62587 0.0
H3863 H 0.31473 0.19811 0.63367 0.0
H3864 H 0.25809 0.24172 0.68447 0.0
H3865 H 0.28128 0.17552 0.70077 0.0
H3866 H 0.23514 0.22269 0.62372 0.0
H3867 H 0.26537 0.23853 0.62427 0.0
H3868 H 0.2454 0.24891 0.64486 0.0
H3869 H 0.26356 0.14294 0.64516 0.0
H3870 H 0.28512 0.14532 0.67127 0.0
H3871 H 0.29417 0.15692 0.64359 0.0
C3872 C 0.58821 0.51609 0.21782 0.0
C3873 C 0.60863 0.50515 0.22172 0.0
C3874 C 0.57805 0.51785 0.19433 0.0
C3875 C 0.58784 0.50732 0.17434 0.0
C3876 C 0.60804 0.49553 0.17831 0.0
C3877 C 0.6186 0.49514 0.20198 0.0
C3878 C 0.55714 0.53134 0.19095 0.0
C3879 C 0.61843 0.48326 0.15757 0.0
C3880 C 0.54904 0.49262 0.11424 0.0
C3881 C 0.56077 0.50952 0.10019 0.0
C3882 C 0.55744 0.49179 0.13851 0.0
C3883 C 0.57736 0.50903 0.14923 0.0
C3884 C 0.58804 0.52728 0.13551 0.0
C3885 C 0.58006 0.52688 0.11093 0.0
C3886 C 0.54607 0.47146 0.15209 0.0
C3887 C 0.60836 0.54682 0.14659 0.0
H3888 H 0.58071 0.52406 0.23318 0.0
H3889 H 0.63436 0.48663 0.2051 0.0
H3890 H 0.56075 0.54464 0.17751 0.0
H3891 H 0.54049 0.5186 0.18387 0.0
H3892 H 0.55364 0.54096 0.2081 0.0
H3893 H 0.63295 0.47338 0.16383 0.0
H3894 H 0.60393 0.47037 0.14651 0.0
H3895 H 0.62603 0.49677 0.14564 0.0
H3896 H 0.53429 0.47906 0.1058 0.0
H3897 H 0.58914 0.53991 0.09998 0.0
H3898 H 0.54142 0.47842 0.16992 0.0
H3899 H 0.55926 0.4592 0.15544 0.0
H3900 H 0.52945 0.46086 0.14192 0.0
H3901 H 0.6035 0.55507 0.16384 0.0
H3902 H 0.61269 0.5612 0.13437 0.0
H3903 H 0.62488 0.53899 0.15078 0.0
C3904 C 0.23467 0.82344 0.9352 0.0
C3905 C 0.24188 0.84789 0.932 0.0
C3906 C 0.23371 0.80551 0.91612 0.0
C3907 C 0.24018 0.81219 0.89334 0.0
C3908 C 0.24626 0.83687 0.88965 0.0
C3909 C 0.24696 0.85443 0.909 0.0
C3910 C 0.22697 0.7794 0.92068 0.0
C3911 C 0.25326 0.84471 0.86556 0.0
C3912 C 0.26909 0.77318 0.85031 0.0
C3913 C 0.25014 0.76559 0.83221 0.0
C3914 C 0.2655 0.78675 0.87139 0.0
C3915 C 0.24261 0.79355 0.87385 0.0
C3916 C 0.22302 0.7846 0.85621 0.0
C3917 C 0.22697 0.77034 0.83564 0.0
C3918 C 0.28672 0.7954 0.89007 0.0
C3919 C 0.19849 0.79178 0.858 0.0
H3920 H 0.23048 0.81818 0.95285 0.0
H3921 H 0.25253 0.87323 0.90632 0.0
H3922 H 0.21311 0.76978 0.90643 0.0
H3923 H 0.24313 0.77052 0.91998 0.0
H3924 H 0.21992 0.7773 0.93855 0.0
H3925 H 0.25513 0.86452 0.86495 0.0
H3926 H 0.27078 0.83922 0.86193 0.0
H3927 H 0.2396 0.83577 0.85083 0.0
H3928 H 0.28705 0.76963 0.84735 0.0
H3929 H 0.21247 0.76465 0.82133 0.0
H3930 H 0.28139 0.79248 0.90846 0.0
H3931 H 0.29274 0.81502 0.88954 0.0
H3932 H 0.30227 0.78609 0.88691 0.0
H3933 H 0.19249 0.78935 0.87623 0.0
H3934 H 0.18458 0.78123 0.84428 0.0
H3935 H 0.19969 0.81115 0.85524 0.0
C3936 C 0.94844 0.5214 0.72383 0.0
C3937 C 0.92329 0.51426 0.72278 0.0
C3938 C 0.96072 0.51909 0.70324 0.0
C3939 C 0.94749 0.50965 0.68103 0.0
C3940 C 0.92211 0.50223 0.6798 0.0
C3941 C 0.91027 0.50455 0.7008 0.0
C3942 C 0.98781 0.52721 0.70516 0.0
C3943 C 0.90748 0.4923 0.65624 0.0
C3944 C 0.9739 0.53041 0.6249 0.0
C3945 C 0.98348 0.51032 0.61638 0.0
C3946 C 0.96216 0.53035 0.64595 0.0
C3947 C 0.95998 0.50965 0.65878 0.0
C3948 C 0.97013 0.48947 0.65062 0.0
C3949 C 0.98197 0.49009 0.62943 0.0
C3950 C 0.95177 0.5523 0.65422 0.0
C3951 C 0.96811 0.46718 0.66403 0.0
H3952 H 0.95865 0.52871 0.74084 0.0
H3953 H 0.89085 0.49888 0.69999 0.0
H3954 H 0.99676 0.51255 0.69769 0.0
H3955 H 0.99222 0.5427 0.69433 0.0
H3956 H 0.99558 0.53271 0.7241 0.0
H3957 H 0.88809 0.48622 0.65859 0.0
H3958 H 0.90875 0.50631 0.64333 0.0
H3959 H 0.91488 0.4769 0.64797 0.0
H3960 H 0.97524 0.54614 0.61482 0.0
H3961 H 0.9892 0.47451 0.62262 0.0
H3962 H 0.96012 0.55964 0.67254 0.0
H3963 H 0.93203 0.5473 0.65539 0.0
H3964 H 0.95477 0.56677 0.64188 0.0
H3965 H 0.97752 0.47169 0.68247 0.0
H3966 H 0.97605 0.45266 0.6547 0.0
H3967 H 0.94885 0.46023 0.66606 0.0
C3968 C 0.28418 0.16145 0.41708 0.0
C3969 C 0.26788 0.16375 0.43445 0.0
C3970 C 0.28572 0.17644 0.39808 0.0
C3971 C 0.26987 0.19342 0.39588 0.0
C3972 C 0.25351 0.19589 0.41355 0.0
C3973 C 0.25302 0.18131 0.43284 0.0
C3974 C 0.30385 0.17366 0.38 0.0
C3975 C 0.23565 0.21304 0.41143 0.0
C3976 C 0.28051 0.24272 0.35288 0.0
C3977 C 0.26574 0.23206 0.33212 0.0
C3978 C 0.28226 0.23034 0.37377 0.0
C3979 C 0.26873 0.2069 0.37395 0.0
C3980 C 0.25362 0.19623 0.35311 0.0
C3981 C 0.25241 0.20885 0.33252 0.0
C3982 C 0.29874 0.24222 0.39556 0.0
C3983 C 0.23861 0.17144 0.35252 0.0
H3984 H 0.29572 0.14791 0.41838 0.0
H3985 H 0.24015 0.18287 0.44609 0.0
H3986 H 0.29426 0.16614 0.36221 0.0
H3987 H 0.31446 0.19149 0.3775 0.0
H3988 H 0.31655 0.16157 0.38565 0.0
H3989 H 0.22497 0.21372 0.42729 0.0
H3990 H 0.24517 0.23145 0.40949 0.0
H3991 H 0.22293 0.20734 0.39496 0.0
H3992 H 0.29097 0.26057 0.3527 0.0
H3993 H 0.24088 0.2004 0.31664 0.0
H3994 H 0.31229 0.23074 0.40042 0.0
H3995 H 0.28813 0.24417 0.41129 0.0
H3996 H 0.30842 0.26029 0.39241 0.0
H3997 H 0.25058 0.15795 0.35539 0.0
H3998 H 0.22726 0.16598 0.33512 0.0
H3999 H 0.2266 0.17091 0.36736 0.0
C4000 C 0.32763 0.5784 0.50554 0.0
C4001 C 0.32834 0.6031 0.51171 0.0
C4002 C 0.34861 0.56833 0.50645 0.0
C4003 C 0.37106 0.58337 0.51329 0.0
C4004 C 0.37215 0.60834 0.51949 0.0
C4005 C 0.35061 0.61796 0.51887 0.0
C4006 C 0.34663 0.5415 0.50026 0.0
C4007 C 0.39603 0.62481 0.52649 0.0
C4008 C 0.42028 0.55062 0.53614 0.0
C4009 C 0.43129 0.54623 0.51504 0.0
C4010 C 0.40098 0.56333 0.536 0.0
C4011 C 0.39315 0.57241 0.51436 0.0
C4012 C 0.40467 0.5685 0.49311 0.0
C4013 C 0.42349 0.55505 0.49361 0.0
C4014 C 0.38856 0.56642 0.55878 0.0
C4015 C 0.39696 0.5783 0.46985 0.0
H4016 H 0.31051 0.56667 0.50013 0.0
H4017 H 0.35122 0.63703 0.52354 0.0
H4018 H 0.35685 0.53801 0.48456 0.0
H4019 H 0.35471 0.53324 0.51566 0.0
H4020 H 0.3276 0.53231 0.49586 0.0
H4021 H 0.39378 0.64379 0.53081 0.0
H4022 H 0.40559 0.6187 0.54242 0.0
H4023 H 0.40779 0.62407 0.51151 0.0
H4024 H 0.42665 0.54386 0.55272 0.0
H4025 H 0.43258 0.55206 0.47751 0.0
H4026 H 0.36949 0.55711 0.55568 0.0
H4027 H 0.38826 0.58575 0.56368 0.0
H4028 H 0.39756 0.55904 0.5743 0.0
H4029 H 0.37855 0.56898 0.46281 0.0
H4030 H 0.40945 0.57589 0.45576 0.0
H4031 H 0.39614 0.59775 0.47314 0.0
C4032 C 0.84923 0.91008 0.52226 0.0
C4033 C 0.83252 0.91563 0.53814 0.0
C4034 C 0.87175 0.92521 0.52219 0.0
C4035 C 0.87876 0.945 0.54008 0.0
C4036 C 0.86221 0.94989 0.55694 0.0
C4037 C 0.83902 0.93567 0.55519 0.0
C4038 C 0.88761 0.92047 0.5024 0.0
C4039 C 0.86879 0.9702 0.57676 0.0
C4040 C 0.94734 0.96373 0.54795 0.0
C4041 C 0.95067 0.98587 0.53783 0.0
C4042 C 0.92407 0.95119 0.55039 0.0
C4043 C 0.90345 0.96021 0.54116 0.0
C4044 C 0.90687 0.98326 0.53217 0.0
C4045 C 0.93036 0.99585 0.53083 0.0
C4046 C 0.92171 0.92839 0.56306 0.0
C4047 C 0.88621 0.99502 0.5233 0.0
H4048 H 0.84428 0.89444 0.50922 0.0
H4049 H 0.82615 0.93983 0.56766 0.0
H4050 H 0.89379 0.93739 0.49419 0.0
H4051 H 0.9039 0.91393 0.50992 0.0
H4052 H 0.87803 0.90679 0.48796 0.0
H4053 H 0.85677 0.96789 0.59155 0.0
H4054 H 0.88782 0.97154 0.58449 0.0
H4055 H 0.86687 0.98746 0.56926 0.0
H4056 H 0.96298 0.95614 0.55402 0.0
H4057 H 0.93276 0.01306 0.52322 0.0
H4058 H 0.91783 0.91247 0.54958 0.0
H4059 H 0.90659 0.92737 0.57475 0.0
H4060 H 0.9386 0.92725 0.57436 0.0
H4061 H 0.88824 0.99903 0.50435 0.0
H4062 H 0.88701 0.01251 0.53413 0.0
H4063 H 0.86838 0.98391 0.52442 0.0
C4064 C 0.83421 0.06397 0.26495 0.0
C4065 C 0.85846 0.06234 0.26179 0.0
C4066 C 0.82557 0.08572 0.26432 0.0
C4067 C 0.84161 0.10686 0.26091 0.0
C4068 C 0.86615 0.10558 0.25758 0.0
C4069 C 0.87428 0.0832 0.2578 0.0
C4070 C 0.79917 0.086 0.26745 0.0
C4071 C 0.88384 0.1279 0.25436 0.0
C4072 C 0.80995 0.15686 0.2395 0.0
C4073 C 0.8072 0.16954 0.26143 0.0
C4074 C 0.82193 0.13692 0.23896 0.0
C4075 C 0.83215 0.13001 0.26083 0.0
C4076 C 0.83026 0.14343 0.28296 0.0
C4077 C 0.81743 0.1628 0.28303 0.0
C4078 C 0.82277 0.12267 0.21509 0.0
C4079 C 0.84131 0.137 0.30662 0.0
H4080 H 0.82166 0.04806 0.26796 0.0
H4081 H 0.89303 0.08217 0.25553 0.0
H4082 H 0.7975 0.09753 0.28404 0.0
H4083 H 0.79061 0.09376 0.25198 0.0
H4084 H 0.78886 0.06772 0.26882 0.0
H4085 H 0.90204 0.12383 0.25114 0.0
H4086 H 0.87708 0.13705 0.23898 0.0
H4087 H 0.88559 0.14074 0.27076 0.0
H4088 H 0.80218 0.16221 0.22276 0.0
H4089 H 0.81582 0.17299 0.29995 0.0
H4090 H 0.81224 0.1043 0.21517 0.0
H4091 H 0.84166 0.12068 0.2123 0.0
H4092 H 0.81522 0.13122 0.19959 0.0
H4093 H 0.83089 0.11993 0.31144 0.0
H4094 H 0.84137 0.15119 0.32158 0.0
H4095 H 0.86017 0.13411 0.30499 0.0
C4096 C 0.7052 0.08515 0.02727 0.0
C4097 C 0.70871 0.10845 0.01986 0.0
C4098 C 0.68183 0.07228 0.02819 0.0
C4099 C 0.66158 0.08315 0.0217 0.0
C4100 C 0.66512 0.10678 0.0143 0.0
C4101 C 0.6887 0.11923 0.01366 0.0
C4102 C 0.67889 0.04714 0.03612 0.0
C4103 C 0.64399 0.11894 0.00708 0.0
C4104 C 0.60028 0.04614 1.0002 0.0
C4105 C 0.58736 0.05002 0.01995 0.0
C4106 C 0.62473 0.05601 0.00095 0.0
C4107 C 0.63657 0.06983 0.02206 0.0
C4108 C 0.62372 0.07266 0.04264 0.0
C4109 C 0.59899 0.06287 0.04124 0.0
C4110 C 0.6375 0.0526 0.9787 0.0
C4111 C 0.63578 0.08693 0.06564 0.0
H4112 H 0.72076 0.07718 0.03287 0.0
H4113 H 0.69153 0.13741 0.00827 0.0
H4114 H 0.66583 0.04503 0.04999 0.0
H4115 H 0.67153 0.03395 0.02046 0.0
H4116 H 0.69632 0.04259 0.04356 0.0
H4117 H 0.64986 0.1373 0.00163 0.0
H4118 H 0.63241 0.108 0.9918 0.0
H4119 H 0.63268 0.12029 0.02235 0.0
H4120 H 0.59092 0.03629 0.98372 0.0
H4121 H 0.58861 0.06592 0.0564 0.0
H4122 H 0.65375 0.04474 0.98352 0.0
H4123 H 0.64329 0.07035 0.97192 0.0
H4124 H 0.62604 0.04055 0.96402 0.0
H4125 H 0.65294 0.08071 0.07118 0.0
H4126 H 0.624 0.08538 0.08067 0.0
H4127 H 0.64038 0.10621 0.06251 0.0
C4128 C 0.16974 0.4304 0.26006 0.0
C4129 C 0.16271 0.44073 0.28136 0.0
C4130 C 0.18059 0.40977 0.2603 0.0
C4131 C 0.18387 0.39919 0.28227 0.0
C4132 C 0.17549 0.40886 0.30349 0.0
C4133 C 0.16527 0.42976 0.30284 0.0
C4134 C 0.18965 0.40004 0.23741 0.0
C4135 C 0.17824 0.39773 0.32709 0.0
C4136 C 0.19496 0.33508 0.27671 0.0
C4137 C 0.22007 0.33828 0.28178 0.0
C4138 C 0.18284 0.35475 0.27757 0.0
C4139 C 0.19634 0.37815 0.2831 0.0
C4140 C 0.22174 0.38145 0.28891 0.0
C4141 C 0.23337 0.36128 0.28844 0.0
C4142 C 0.1557 0.35049 0.27198 0.0
C4143 C 0.23668 0.40626 0.29467 0.0
H4144 H 0.1682 0.43932 0.24363 0.0
H4145 H 0.15997 0.43806 0.31932 0.0
H4146 H 0.20962 0.40156 0.23997 0.0
H4147 H 0.18201 0.38067 0.2332 0.0
H4148 H 0.18491 0.40983 0.22168 0.0
H4149 H 0.16881 0.4062 0.34133 0.0
H4150 H 0.17096 0.37816 0.32453 0.0
H4151 H 0.19769 0.39979 0.33353 0.0
H4152 H 0.1848 0.31711 0.27176 0.0
H4153 H 0.25286 0.36355 0.29213 0.0
H4154 H 0.15092 0.35893 0.25536 0.0
H4155 H 0.14719 0.35901 0.28688 0.0
H4156 H 0.14786 0.33103 0.26928 0.0
H4157 H 0.23539 0.4167 0.27871 0.0
H4158 H 0.25605 0.40564 0.29976 0.0
H4159 H 0.22956 0.41618 0.30968 0.0
C4160 C 0.186 0.39505 0.02682 0.0
C4161 C 0.20778 0.41119 0.02709 0.0
C4162 C 0.16367 0.40352 0.02662 0.0
C4163 C 0.16336 0.42866 0.0277 0.0
C4164 C 0.1854 0.4449 0.0289 0.0
C4165 C 0.20707 0.43596 0.02797 0.0
C4166 C 0.14043 0.38564 0.02451 0.0
C4167 C 0.1862 0.47186 0.03101 0.0
C4168 C 0.11045 0.45811 0.00573 0.0
C4169 C 0.10081 0.46375 0.02738 0.0
C4170 C 0.12974 0.4451 0.00535 0.0
C4171 C 0.14026 0.43851 0.02729 0.0
C4172 C 0.13051 0.44427 0.0492 0.0
C4173 C 0.11058 0.45634 0.04888 0.0
C4174 C 0.13911 0.43875 0.98151 0.0
C4175 C 0.14162 0.43845 0.07311 0.0
H4176 H 0.18634 0.37589 0.02583 0.0
H4177 H 0.22362 0.44866 0.0279 0.0
H4178 H 0.1301 0.38886 0.0402 0.0
H4179 H 0.12891 0.38808 0.00808 0.0
H4180 H 0.14365 0.36673 0.02352 0.0
H4181 H 0.20499 0.48201 0.03368 0.0
H4182 H 0.17707 0.47721 0.01442 0.0
H4183 H 0.17637 0.47732 0.04642 0.0
H4184 H 0.10255 0.46337 0.98901 0.0
H4185 H 0.10296 0.46053 0.06562 0.0
H4186 H 0.14095 0.41946 0.9797 0.0
H4187 H 0.15733 0.44946 0.98072 0.0
H4188 H 0.12707 0.44231 0.96591 0.0
H4189 H 0.14098 0.41875 0.07307 0.0
H4190 H 0.13223 0.44472 0.08856 0.0
H4191 H 0.16095 0.44704 0.07598 0.0
C4192 C 0.83707 0.92987 0.23824 0.0
C4193 C 0.85809 0.93609 0.25421 0.0
C4194 C 0.82316 0.90666 0.23655 0.0
C4195 C 0.82941 0.88985 0.2525 0.0
C4196 C 0.85032 0.89646 0.2692 0.0
C4197 C 0.86506 0.91907 0.26897 0.0
C4198 C 0.80164 0.90034 0.21786 0.0
C4199 C 0.85669 0.88005 0.28791 0.0
C4200 C 0.77982 0.83897 0.2653 0.0
C4201 C 0.78855 0.81873 0.25615 0.0
C4202 C 0.79246 0.86221 0.26364 0.0
C4203 C 0.81413 0.86545 0.25201 0.0
C4204 C 0.82182 0.84498 0.24088 0.0
C4205 C 0.80932 0.82186 0.24364 0.0
C4206 C 0.78299 0.88277 0.27592 0.0
C4207 C 0.84311 0.84746 0.2259 0.0
H4208 H 0.83187 0.94302 0.22659 0.0
H4209 H 0.88139 0.92392 0.28124 0.0
H4210 H 0.80056 0.88183 0.20911 0.0
H4211 H 0.78477 0.901 0.22668 0.0
H4212 H 0.8024 0.91311 0.20368 0.0
H4213 H 0.8717 0.88905 0.30137 0.0
H4214 H 0.84064 0.87397 0.29759 0.0
H4215 H 0.86217 0.8638 0.27908 0.0
H4216 H 0.76373 0.83668 0.27491 0.0
H4217 H 0.81581 0.80624 0.23594 0.0
H4218 H 0.78999 0.90016 0.26923 0.0
H4219 H 0.78842 0.88354 0.29555 0.0
H4220 H 0.7629 0.87981 0.27344 0.0
H4221 H 0.84072 0.86024 0.21213 0.0
H4222 H 0.84534 0.82995 0.2166 0.0
H4223 H 0.86003 0.85493 0.23744 0.0
C4224 C 0.68622 0.07111 0.76257 0.0
C4225 C 0.66136 0.06567 0.76463 0.0
C4226 C 0.69757 0.09491 0.76127 0.0
C4227 C 0.68329 0.11327 0.75994 0.0
C4228 C 0.65779 0.10708 0.75788 0.0
C4229 C 0.64714 0.08352 0.76114 0.0
C4230 C 0.72477 0.10044 0.76214 0.0
C4231 C 0.64178 0.12552 0.7533 0.0
C4232 C 0.70437 0.17485 0.79342 0.0
C4233 C 0.71665 0.18738 0.77634 0.0
C4234 C 0.69372 0.15076 0.78827 0.0
C4235 C 0.69474 0.13896 0.76504 0.0
C4236 C 0.7066 0.15189 0.74735 0.0
C4237 C 0.71797 0.17587 0.75346 0.0
C4238 C 0.68101 0.1387 0.80801 0.0
C4239 C 0.70699 0.14119 0.72176 0.0
H4240 H 0.69681 0.05681 0.76225 0.0
H4241 H 0.62765 0.07915 0.76104 0.0
H4242 H 0.73021 0.10857 0.74559 0.0
H4243 H 0.73215 0.11366 0.7778 0.0
H4244 H 0.73315 0.08408 0.76343 0.0
H4245 H 0.62349 0.11686 0.74508 0.0
H4246 H 0.63964 0.13559 0.77063 0.0
H4247 H 0.64986 0.13862 0.74116 0.0
H4248 H 0.70333 0.18383 0.81113 0.0
H4249 H 0.72718 0.18584 0.74009 0.0
H4250 H 0.67716 0.11889 0.80471 0.0
H4251 H 0.66363 0.14527 0.80964 0.0
H4252 H 0.69197 0.14377 0.82567 0.0
H4253 H 0.72585 0.1395 0.71846 0.0
H4254 H 0.70106 0.15361 0.70892 0.0
H4255 H 0.69529 0.12333 0.71759 0.0
loop_
_geom_bond_atom_site_label_1
_geom_bond_atom_site_label_2
_geom_bond_distance
_geom_bond_site_symmetry_2
_ccdc_geom_bond_type
Mn0 O5 2.095 . S
Mn0 O15 2.162 . S
Mn0 O16 2.297 . S
Mn0 O24 2.385 1_455 S
Mn0 O25 2.209 . S
Mn0 O26 2.094 . S
Mn1 O6 2.121 . S
Mn1 N8 2.257 . S
Mn1 N17 2.282 1_455 S
Mn1 O25 2.215 . S
Mn1 O27 2.117 . S
C2 O24 1.234 . S
C2 O25 1.283 1_655 S
C3 O15 1.281 . S
C3 O16 1.236 . S
C4 O26 1.240 . S
C4 O27 1.264 . S
O5 Mn0 2.095 . S
O5 C14 1.250 . S
O6 Mn1 2.121 . S
O6 C14 1.258 . S
C7 N8 1.326 . S
C7 C11 1.460 . S
C7 H13 0.929 . S
N8 Mn1 2.257 . S
N8 C7 1.326 . S
N8 C12 1.362 1_455 S
C9 C10 1.258 . S
C9 C12 1.431 . S
C9 C29 1.449 . S
C10 C9 1.258 . S
C10 C11 1.477 1_655 S
C10 H30 0.931 . S
C11 C7 1.460 . S
C11 C10 1.477 1_455 S
C11 H31 0.930 . S
C12 N8 1.362 1_655 S
C12 C9 1.431 . S
C12 C22 1.476 . S
H13 C7 0.929 . S
C14 O5 1.250 . S
C14 O6 1.258 . S
O15 Mn0 2.162 . S
O15 C3 1.281 . S
O16 Mn0 2.297 . S
O16 C3 1.236 . S
N17 Mn1 2.282 1_655 S
N17 C18 1.328 . S
N17 C22 1.318 . S
C18 N17 1.328 . S
C18 C19 1.457 . S
C18 H23 0.929 . S
C19 C18 1.457 . S
C19 C20 1.291 . S
C19 H32 0.931 . S
C20 C19 1.291 . S
C20 C21 1.373 . S
C20 H33 0.929 . S
C21 C20 1.373 . S
C21 C22 1.396 . S
C21 C28 1.403 . S
C22 C12 1.476 . S
C22 N17 1.318 . S
C22 C21 1.396 . S
H23 C18 0.929 . S
O24 Mn0 2.385 1_655 S
O24 C2 1.234 . S
O25 Mn0 2.209 . S
O25 Mn1 2.215 . S
O25 C2 1.283 1_455 S
O26 Mn0 2.094 . S
O26 C4 1.240 . S
O27 Mn1 2.117 . S
O27 C4 1.264 . S
C28 C21 1.403 . S
C28 C29 1.399 . S
C28 H34 0.929 . S
C29 C9 1.449 . S
C29 C28 1.399 . S
C29 H35 0.930 . S
H30 C10 0.931 . S
H31 C11 0.930 . S
H32 C19 0.931 . S
H33 C20 0.929 . S
H34 C28 0.929 . S
H35 C29 0.930 . S
Mn36 O41 2.095 1_455 S
Mn36 O51 2.162 . S
Mn36 O52 2.297 . S
Mn36 O60 2.385 . S
Mn36 O61 2.209 . S
Mn36 O62 2.094 . S
Mn37 O42 2.121 1_455 S
Mn37 N44 2.257 . S
Mn37 N53 2.282 . S
Mn37 O61 2.215 . S
Mn37 O63 2.117 . S
C38 O60 1.234 . S
C38 O61 1.283 . S
C39 O51 1.281 . S
C39 O52 1.236 . S
C40 O62 1.240 . S
C40 O63 1.264 . S
O41 Mn36 2.095 1_655 S
O41 C50 1.250 . S
O42 Mn37 2.121 1_655 S
O42 C50 1.258 . S
C43 N44 1.326 . S
C43 C47 1.460 . S
C43 H49 0.929 1_455 S
N44 Mn37 2.257 . S
N44 C43 1.326 . S
N44 C48 1.362 . S
C45 C46 1.258 . S
C45 C48 1.431 . S
C45 C65 1.449 . S
C46 C45 1.258 . S
C46 C47 1.477 . S
C46 H66 0.931 . S
C47 C43 1.460 . S
C47 C46 1.477 . S
C47 H67 0.930 . S
C48 N44 1.362 . S
C48 C45 1.431 . S
C48 C58 1.476 . S
H49 C43 0.929 1_655 S
C50 O41 1.250 . S
C50 O42 1.258 . S
O51 Mn36 2.162 . S
O51 C39 1.281 . S
O52 Mn36 2.297 . S
O52 C39 1.236 . S
N53 Mn37 2.282 . S
N53 C54 1.328 . S
N53 C58 1.318 . S
C54 N53 1.328 . S
C54 C55 1.457 . S
C54 H59 0.929 . S
C55 C54 1.457 . S
C55 C56 1.291 . S
C55 H68 0.931 . S
C56 C55 1.291 . S
C56 C57 1.373 . S
C56 H69 0.929 . S
C57 C56 1.373 . S
C57 C58 1.396 . S
C57 C64 1.403 . S
C58 C48 1.476 . S
C58 N53 1.318 . S
C58 C57 1.396 . S
H59 C54 0.929 . S
O60 Mn36 2.385 . S
O60 C38 1.234 . S
O61 Mn36 2.209 . S
O61 Mn37 2.215 . S
O61 C38 1.283 . S
O62 Mn36 2.094 . S
O62 C40 1.240 . S
O63 Mn37 2.117 . S
O63 C40 1.264 . S
C64 C57 1.403 . S
C64 C65 1.399 . S
C64 H70 0.929 . S
C65 C45 1.449 . S
C65 C64 1.399 . S
C65 H71 0.930 . S
H66 C46 0.931 . S
H67 C47 0.930 . S
H68 C55 0.931 . S
H69 C56 0.929 . S
H70 C64 0.929 . S
H71 C65 0.930 . S
Mn72 O77 2.095 . S
Mn72 O87 2.162 . S
Mn72 O88 2.297 . S
Mn72 O96 2.385 . S
Mn72 O97 2.209 . S
Mn72 O98 2.094 . S
Mn73 O78 2.121 . S
Mn73 N80 2.257 . S
Mn73 N89 2.282 . S
Mn73 O97 2.215 . S
Mn73 O99 2.117 . S
C74 O96 1.234 . S
C74 O97 1.283 . S
C75 O87 1.281 . S
C75 O88 1.236 . S
C76 O98 1.240 . S
C76 O99 1.264 . S
O77 Mn72 2.095 . S
O77 C86 1.250 . S
O78 Mn73 2.121 . S
O78 C86 1.258 . S
C79 N80 1.326 . S
C79 C83 1.460 . S
C79 H85 0.929 . S
N80 Mn73 2.257 . S
N80 C79 1.326 . S
N80 C84 1.362 . S
C81 C82 1.258 . S
C81 C84 1.431 . S
C81 C101 1.449 . S
C82 C81 1.258 . S
C82 C83 1.477 . S
C82 H102 0.931 . S
C83 C79 1.460 . S
C83 C82 1.477 . S
C83 H103 0.930 . S
C84 N80 1.362 . S
C84 C81 1.431 . S
C84 C94 1.476 . S
H85 C79 0.929 . S
C86 O77 1.250 . S
C86 O78 1.258 . S
O87 Mn72 2.162 . S
O87 C75 1.281 . S
O88 Mn72 2.297 . S
O88 C75 1.236 . S
N89 Mn73 2.282 . S
N89 C90 1.328 . S
N89 C94 1.318 . S
C90 N89 1.328 . S
C90 C91 1.457 . S
C90 H95 0.929 . S
C91 C90 1.457 . S
C91 C92 1.291 . S
C91 H104 0.931 . S
C92 C91 1.291 . S
C92 C93 1.373 . S
C92 H105 0.929 . S
C93 C92 1.373 . S
C93 C94 1.396 . S
C93 C100 1.403 . S
C94 C84 1.476 . S
C94 N89 1.318 . S
C94 C93 1.396 . S
H95 C90 0.929 . S
O96 Mn72 2.385 . S
O96 C74 1.234 . S
O97 Mn72 2.209 . S
O97 Mn73 2.215 . S
O97 C74 1.283 . S
O98 Mn72 2.094 . S
O98 C76 1.240 . S
O99 Mn73 2.117 . S
O99 C76 1.264 . S
C100 C93 1.403 . S
C100 C101 1.399 . S
C100 H106 0.929 . S
C101 C81 1.449 . S
C101 C100 1.399 . S
C101 H107 0.930 . S
H102 C82 0.931 . S
H103 C83 0.930 . S
H104 C91 0.931 . S
H105 C92 0.929 . S
H106 C100 0.929 . S
H107 C101 0.930 . S
Mn108 O113 2.095 . S
Mn108 O123 2.162 . S
Mn108 O124 2.297 . S
Mn108 O132 2.385 . S
Mn108 O133 2.209 . S
Mn108 O134 2.094 . S
Mn109 O114 2.121 . S
Mn109 N116 2.257 . S
Mn109 N125 2.282 . S
Mn109 O133 2.215 . S
Mn109 O135 2.117 . S
C110 O132 1.234 . S
C110 O133 1.283 . S
C111 O123 1.281 . S
C111 O124 1.236 . S
C112 O134 1.240 . S
C112 O135 1.264 . S
O113 Mn108 2.095 . S
O113 C122 1.250 . S
O114 Mn109 2.121 . S
O114 C122 1.258 . S
C115 N116 1.326 . S
C115 C119 1.460 . S
C115 H121 0.929 . S
N116 Mn109 2.257 . S
N116 C115 1.326 . S
N116 C120 1.362 . S
C117 C118 1.258 . S
C117 C120 1.431 . S
C117 C137 1.449 . S
C118 C117 1.258 . S
C118 C119 1.477 . S
C118 H138 0.931 . S
C119 C115 1.460 . S
C119 C118 1.477 . S
C119 H139 0.930 . S
C120 N116 1.362 . S
C120 C117 1.431 . S
C120 C130 1.476 . S
H121 C115 0.929 . S
C122 O113 1.250 . S
C122 O114 1.258 . S
O123 Mn108 2.162 . S
O123 C111 1.281 . S
O124 Mn108 2.297 . S
O124 C111 1.236 . S
N125 Mn109 2.282 . S
N125 C126 1.328 . S
N125 C130 1.318 . S
C126 N125 1.328 . S
C126 C127 1.457 . S
C126 H131 0.929 . S
C127 C126 1.457 . S
C127 C128 1.291 . S
C127 H140 0.931 . S
C128 C127 1.291 . S
C128 C129 1.373 . S
C128 H141 0.929 . S
C129 C128 1.373 . S
C129 C130 1.396 . S
C129 C136 1.403 . S
C130 C120 1.476 . S
C130 N125 1.318 . S
C130 C129 1.396 . S
H131 C126 0.929 . S
O132 Mn108 2.385 . S
O132 C110 1.234 . S
O133 Mn108 2.209 . S
O133 Mn109 2.215 . S
O133 C110 1.283 . S
O134 Mn108 2.094 . S
O134 C112 1.240 . S
O135 Mn109 2.117 . S
O135 C112 1.264 . S
C136 C129 1.403 . S
C136 C137 1.399 . S
C136 H142 0.929 . S
C137 C117 1.449 . S
C137 C136 1.399 . S
C137 H143 0.930 . S
H138 C118 0.931 . S
H139 C119 0.930 . S
H140 C127 0.931 . S
H141 C128 0.929 . S
H142 C136 0.929 . S
H143 C137 0.930 . S
Mn144 O149 2.095 . S
Mn144 O159 2.162 . S
Mn144 O160 2.297 . S
Mn144 O168 2.385 . S
Mn144 O169 2.209 . S
Mn144 O170 2.094 . S
Mn145 O150 2.121 1_655 S
Mn145 N152 2.257 . S
Mn145 N161 2.282 . S
Mn145 O169 2.215 1_655 S
Mn145 O171 2.117 . S
C146 O168 1.234 . S
C146 O169 1.283 . S
C147 O159 1.281 . S
C147 O160 1.236 . S
C148 O170 1.240 1_655 S
C148 O171 1.264 . S
O149 Mn144 2.095 . S
O149 C158 1.250 . S
O150 Mn145 2.121 1_455 S
O150 C158 1.258 . S
C151 N152 1.326 1_455 S
C151 C155 1.458 . S
C151 H157 0.929 . S
N152 Mn145 2.257 . S
N152 C151 1.326 1_655 S
N152 C156 1.362 . S
C153 C154 1.258 . S
C153 C156 1.431 . S
C153 C173 1.449 . S
C154 C153 1.258 . S
C154 C155 1.471 1_655 S
C154 H174 0.931 . S
C155 C151 1.458 . S
C155 C154 1.471 1_455 S
C155 H175 0.938 . S
C156 N152 1.362 . S
C156 C153 1.431 . S
C156 C166 1.476 . S
H157 C151 0.929 . S
C158 O149 1.250 . S
C158 O150 1.258 . S
O159 Mn144 2.162 . S
O159 C147 1.281 . S
O160 Mn144 2.297 . S
O160 C147 1.236 . S
N161 Mn145 2.282 . S
N161 C162 1.328 . S
N161 C166 1.318 . S
C162 N161 1.328 . S
C162 C163 1.457 . S
C162 H167 0.929 . S
C163 C162 1.457 . S
C163 C164 1.291 . S
C163 H176 0.931 . S
C164 C163 1.291 . S
C164 C165 1.373 . S
C164 H177 0.929 . S
C165 C164 1.373 . S
C165 C166 1.396 . S
C165 C172 1.403 . S
C166 C156 1.476 . S
C166 N161 1.318 . S
C166 C165 1.396 . S
H167 C162 0.929 . S
O168 Mn144 2.385 . S
O168 C146 1.234 . S
O169 Mn144 2.209 . S
O169 Mn145 2.215 1_455 S
O169 C146 1.283 . S
O170 Mn144 2.094 . S
O170 C148 1.240 1_455 S
O171 Mn145 2.117 . S
O171 C148 1.264 . S
C172 C165 1.403 . S
C172 C173 1.399 . S
C172 H178 0.929 . S
C173 C153 1.449 . S
C173 C172 1.399 . S
C173 H179 0.930 . S
H174 C154 0.931 . S
H175 C155 0.938 . S
H176 C163 0.931 . S
H177 C164 0.929 . S
H178 C172 0.929 . S
H179 C173 0.930 . S
Mn180 O185 2.095 . S
Mn180 O195 2.162 . S
Mn180 O196 2.297 . S
Mn180 O204 2.385 . S
Mn180 O205 2.209 . S
Mn180 O206 2.094 . S
Mn181 O186 2.121 . S
Mn181 N188 2.257 . S
Mn181 N197 2.282 . S
Mn181 O205 2.215 . S
Mn181 O207 2.117 . S
C182 O204 1.234 . S
C182 O205 1.283 . S
C183 O195 1.281 . S
C183 O196 1.236 . S
C184 O206 1.240 . S
C184 O207 1.264 . S
O185 Mn180 2.095 . S
O185 C194 1.250 . S
O186 Mn181 2.121 . S
O186 C194 1.258 . S
C187 N188 1.326 . S
C187 C191 1.460 . S
C187 H193 0.929 . S
N188 Mn181 2.257 . S
N188 C187 1.326 . S
N188 C192 1.362 . S
C189 C190 1.258 . S
C189 C192 1.431 . S
C189 C209 1.449 . S
C190 C189 1.258 . S
C190 C191 1.477 . S
C190 H210 0.931 . S
C191 C187 1.460 . S
C191 C190 1.477 . S
C191 H211 0.930 . S
C192 N188 1.362 . S
C192 C189 1.431 . S
C192 C202 1.476 . S
H193 C187 0.929 . S
C194 O185 1.250 . S
C194 O186 1.258 . S
O195 Mn180 2.162 . S
O195 C183 1.281 . S
O196 Mn180 2.297 . S
O196 C183 1.236 . S
N197 Mn181 2.282 . S
N197 C198 1.328 . S
N197 C202 1.318 . S
C198 N197 1.328 . S
C198 C199 1.457 . S
C198 H203 0.929 . S
C199 C198 1.457 . S
C199 C200 1.291 . S
C199 H212 0.931 . S
C200 C199 1.291 . S
C200 C201 1.373 . S
C200 H213 0.929 . S
C201 C200 1.373 . S
C201 C202 1.396 . S
C201 C208 1.403 . S
C202 C192 1.476 . S
C202 N197 1.318 . S
C202 C201 1.396 . S
H203 C198 0.929 . S
O204 Mn180 2.385 . S
O204 C182 1.234 . S
O205 Mn180 2.209 . S
O205 Mn181 2.215 . S
O205 C182 1.283 . S
O206 Mn180 2.094 . S
O206 C184 1.240 . S
O207 Mn181 2.117 . S
O207 C184 1.264 . S
C208 C201 1.403 . S
C208 C209 1.399 . S
C208 H214 0.929 . S
C209 C189 1.449 . S
C209 C208 1.399 . S
C209 H215 0.930 . S
H210 C190 0.931 . S
H211 C191 0.930 . S
H212 C199 0.931 . S
H213 C200 0.929 . S
H214 C208 0.929 . S
H215 C209 0.930 . S
Mn216 O221 2.095 . S
Mn216 O231 2.162 . S
Mn216 O232 2.297 . S
Mn216 O240 2.385 . S
Mn216 O241 2.209 . S
Mn216 O242 2.094 . S
Mn217 O222 2.121 . S
Mn217 N224 2.257 . S
Mn217 N233 2.282 . S
Mn217 O241 2.215 . S
Mn217 O243 2.117 . S
C218 O240 1.234 . S
C218 O241 1.283 . S
C219 O231 1.281 . S
C219 O232 1.236 . S
C220 O242 1.240 . S
C220 O243 1.264 . S
O221 Mn216 2.095 . S
O221 C230 1.250 . S
O222 Mn217 2.121 . S
O222 C230 1.258 . S
C223 N224 1.326 . S
C223 C227 1.460 . S
C223 H229 0.929 . S
N224 Mn217 2.257 . S
N224 C223 1.326 . S
N224 C228 1.362 . S
C225 C226 1.258 . S
C225 C228 1.431 . S
C225 C245 1.449 . S
C226 C225 1.258 . S
C226 C227 1.477 . S
C226 H246 0.931 . S
C227 C223 1.460 . S
C227 C226 1.477 . S
C227 H247 0.930 . S
C228 N224 1.362 . S
C228 C225 1.431 . S
C228 C238 1.476 . S
H229 C223 0.929 . S
C230 O221 1.250 . S
C230 O222 1.258 . S
O231 Mn216 2.162 . S
O231 C219 1.281 . S
O232 Mn216 2.297 . S
O232 C219 1.236 . S
N233 Mn217 2.282 . S
N233 C234 1.328 . S
N233 C238 1.318 . S
C234 N233 1.328 . S
C234 C235 1.457 . S
C234 H239 0.929 . S
C235 C234 1.457 . S
C235 C236 1.291 . S
C235 H248 0.931 . S
C236 C235 1.291 . S
C236 C237 1.373 . S
C236 H249 0.929 . S
C237 C236 1.373 . S
C237 C238 1.396 . S
C237 C244 1.403 . S
C238 C228 1.476 . S
C238 N233 1.318 . S
C238 C237 1.396 . S
H239 C234 0.929 . S
O240 Mn216 2.385 . S
O240 C218 1.234 . S
O241 Mn216 2.209 . S
O241 Mn217 2.215 . S
O241 C218 1.283 . S
O242 Mn216 2.094 . S
O242 C220 1.240 . S
O243 Mn217 2.117 . S
O243 C220 1.264 . S
C244 C237 1.403 . S
C244 C245 1.399 . S
C244 H250 0.929 . S
C245 C225 1.449 . S
C245 C244 1.399 . S
C245 H251 0.930 . S
H246 C226 0.931 . S
H247 C227 0.930 . S
H248 C235 0.931 . S
H249 C236 0.929 . S
H250 C244 0.929 . S
H251 C245 0.930 . S
Mn252 O257 2.054 1_655 S
Mn252 O267 2.156 1_655 S
Mn252 O268 2.294 . S
Mn252 O276 2.430 . S
Mn252 O277 2.229 . S
Mn252 O278 2.098 1_655 S
Mn253 O258 2.121 1_655 S
Mn253 N260 2.257 . S
Mn253 N269 2.282 . S
Mn253 O277 2.215 . S
Mn253 O279 2.117 1_655 S
C254 O276 1.234 . S
C254 O277 1.283 . S
C255 O267 1.282 1_655 S
C255 O268 1.236 . S
C256 O278 1.240 . S
C256 O279 1.264 . S
O257 Mn252 2.054 1_455 S
O257 C266 1.250 . S
O258 Mn253 2.121 1_455 S
O258 C266 1.258 . S
C259 N260 1.326 . S
C259 C263 1.460 . S
C259 H265 0.929 1_655 S
N260 Mn253 2.257 . S
N260 C259 1.326 . S
N260 C264 1.362 . S
C261 C262 1.258 . S
C261 C264 1.431 . S
C261 C281 1.449 . S
C262 C261 1.258 . S
C262 C263 1.477 . S
C262 H282 0.931 . S
C263 C259 1.460 . S
C263 C262 1.477 . S
C263 H283 0.930 . S
C264 N260 1.362 . S
C264 C261 1.431 . S
C264 C274 1.476 . S
H265 C259 0.929 1_455 S
C266 O257 1.250 . S
C266 O258 1.258 . S
O267 Mn252 2.156 1_455 S
O267 C255 1.282 1_455 S
O268 Mn252 2.294 . S
O268 C255 1.236 . S
N269 Mn253 2.282 . S
N269 C270 1.328 . S
N269 C274 1.318 . S
C270 N269 1.328 . S
C270 C271 1.457 . S
C270 H275 0.929 . S
C271 C270 1.457 . S
C271 C272 1.291 . S
C271 H284 0.931 . S
C272 C271 1.291 . S
C272 C273 1.373 . S
C272 H285 0.929 . S
C273 C272 1.373 . S
C273 C274 1.396 . S
C273 C280 1.403 . S
C274 C264 1.476 . S
C274 N269 1.318 . S
C274 C273 1.396 . S
H275 C270 0.929 . S
O276 Mn252 2.430 . S
O276 C254 1.234 . S
O277 Mn252 2.229 . S
O277 Mn253 2.215 . S
O277 C254 1.283 . S
O278 Mn252 2.098 1_455 S
O278 C256 1.240 . S
O279 Mn253 2.117 1_455 S
O279 C256 1.264 . S
C280 C273 1.403 . S
C280 C281 1.399 . S
C280 H286 0.929 . S
C281 C261 1.449 . S
C281 C280 1.399 . S
C281 H287 0.930 . S
H282 C262 0.931 . S
H283 C263 0.930 . S
H284 C271 0.931 . S
H285 C272 0.929 . S
H286 C280 0.929 . S
H287 C281 0.930 . S
Mn288 O293 2.095 . S
Mn288 O303 2.162 . S
Mn288 O304 2.297 . S
Mn288 O312 2.385 1_545 S
Mn288 O313 2.209 1_545 S
Mn288 O314 2.094 . S
Mn289 O294 2.121 . S
Mn289 N296 2.255 1_545 S
Mn289 N305 2.282 1_545 S
Mn289 O313 2.215 1_545 S
Mn289 O315 2.117 . S
C290 O312 1.234 . S
C290 O313 1.283 . S
C291 O303 1.281 . S
C291 O304 1.236 . S
C292 O314 1.240 . S
C292 O315 1.264 . S
O293 Mn288 2.095 . S
O293 C302 1.250 . S
O294 Mn289 2.121 . S
O294 C302 1.258 . S
C295 N296 1.319 1_545 S
C295 C299 1.460 . S
C295 H301 0.929 . S
N296 Mn289 2.255 1_565 S
N296 C295 1.319 1_565 S
N296 C300 1.373 . S
C297 C298 1.258 . S
C297 C300 1.431 . S
C297 C317 1.449 . S
C298 C297 1.258 . S
C298 C299 1.477 1_565 S
C298 H318 0.931 . S
C299 C295 1.460 . S
C299 C298 1.477 1_545 S
C299 H319 0.930 . S
C300 N296 1.373 . S
C300 C297 1.431 . S
C300 C310 1.476 . S
H301 C295 0.929 . S
C302 O293 1.250 . S
C302 O294 1.258 . S
O303 Mn288 2.162 . S
O303 C291 1.281 . S
O304 Mn288 2.297 . S
O304 C291 1.236 . S
N305 Mn289 2.282 1_565 S
N305 C306 1.328 . S
N305 C310 1.318 . S
C306 N305 1.328 . S
C306 C307 1.457 . S
C306 H311 0.929 . S
C307 C306 1.457 . S
C307 C308 1.291 . S
C307 H320 0.931 . S
C308 C307 1.291 . S
C308 C309 1.373 . S
C308 H321 0.929 . S
C309 C308 1.373 . S
C309 C310 1.396 . S
C309 C316 1.403 . S
C310 C300 1.476 . S
C310 N305 1.318 . S
C310 C309 1.396 . S
H311 C306 0.929 . S
O312 Mn288 2.385 1_565 S
O312 C290 1.234 . S
O313 Mn288 2.209 1_565 S
O313 Mn289 2.215 1_565 S
O313 C290 1.283 . S
O314 Mn288 2.094 . S
O314 C292 1.240 . S
O315 Mn289 2.117 . S
O315 C292 1.264 . S
C316 C309 1.403 . S
C316 C317 1.399 . S
C316 H322 0.929 . S
C317 C297 1.449 . S
C317 C316 1.399 . S
C317 H323 0.930 . S
H318 C298 0.931 . S
H319 C299 0.930 . S
H320 C307 0.931 . S
H321 C308 0.929 . S
H322 C316 0.929 . S
H323 C317 0.930 . S
Mn324 O329 2.095 . S
Mn324 O339 2.162 . S
Mn324 O340 2.297 . S
Mn324 O348 2.385 . S
Mn324 O349 2.209 . S
Mn324 O350 2.094 . S
Mn325 O330 2.121 . S
Mn325 N332 2.257 . S
Mn325 N341 2.282 . S
Mn325 O349 2.215 . S
Mn325 O351 2.117 . S
C326 O348 1.234 . S
C326 O349 1.283 . S
C327 O339 1.281 . S
C327 O340 1.236 . S
C328 O350 1.240 . S
C328 O351 1.264 . S
O329 Mn324 2.095 . S
O329 C338 1.250 . S
O330 Mn325 2.121 . S
O330 C338 1.258 . S
C331 N332 1.326 . S
C331 C335 1.460 . S
C331 H337 0.929 . S
N332 Mn325 2.257 . S
N332 C331 1.326 . S
N332 C336 1.362 . S
C333 C334 1.258 . S
C333 C336 1.431 . S
C333 C353 1.449 . S
C334 C333 1.258 . S
C334 C335 1.477 . S
C334 H354 0.931 1_545 S
C335 C331 1.460 . S
C335 C334 1.477 . S
C335 H355 0.930 . S
C336 N332 1.362 . S
C336 C333 1.431 . S
C336 C346 1.476 . S
H337 C331 0.929 . S
C338 O329 1.250 . S
C338 O330 1.258 . S
O339 Mn324 2.162 . S
O339 C327 1.281 . S
O340 Mn324 2.297 . S
O340 C327 1.236 . S
N341 Mn325 2.282 . S
N341 C342 1.328 . S
N341 C346 1.318 . S
C342 N341 1.328 . S
C342 C343 1.457 . S
C342 H347 0.929 . S
C343 C342 1.457 . S
C343 C344 1.291 . S
C343 H356 0.931 . S
C344 C343 1.291 . S
C344 C345 1.373 . S
C344 H357 0.929 . S
C345 C344 1.373 . S
C345 C346 1.396 . S
C345 C352 1.403 . S
C346 C336 1.476 . S
C346 N341 1.318 . S
C346 C345 1.396 . S
H347 C342 0.929 . S
O348 Mn324 2.385 . S
O348 C326 1.234 . S
O349 Mn324 2.209 . S
O349 Mn325 2.215 . S
O349 C326 1.283 . S
O350 Mn324 2.094 . S
O350 C328 1.240 . S
O351 Mn325 2.117 . S
O351 C328 1.264 . S
C352 C345 1.403 . S
C352 C353 1.399 . S
C352 H358 0.929 . S
C353 C333 1.449 . S
C353 C352 1.399 . S
C353 H359 0.930 . S
H354 C334 0.931 1_565 S
H355 C335 0.930 . S
H356 C343 0.931 . S
H357 C344 0.929 . S
H358 C352 0.929 . S
H359 C353 0.930 . S
Mn360 O365 2.095 1_545 S
Mn360 O375 2.162 1_545 S
Mn360 O376 2.297 . S
Mn360 O384 2.385 . S
Mn360 O385 2.209 . S
Mn360 O386 2.094 . S
Mn361 O366 2.121 1_545 S
Mn361 N368 2.257 . S
Mn361 N377 2.282 . S
Mn361 O385 2.215 . S
Mn361 O387 2.117 . S
C362 O384 1.234 . S
C362 O385 1.283 . S
C363 O375 1.280 1_545 S
C363 O376 1.236 . S
C364 O386 1.240 . S
C364 O387 1.264 . S
O365 Mn360 2.095 1_565 S
O365 C374 1.250 . S
O366 Mn361 2.121 1_565 S
O366 C374 1.258 . S
C367 N368 1.326 . S
C367 C371 1.460 . S
C367 H373 0.929 . S
N368 Mn361 2.257 . S
N368 C367 1.326 . S
N368 C372 1.362 . S
C369 C370 1.258 . S
C369 C372 1.431 . S
C369 C389 1.449 . S
C370 C369 1.258 . S
C370 C371 1.477 . S
C370 H390 0.931 . S
C371 C367 1.460 . S
C371 C370 1.477 . S
C371 H391 0.930 . S
C372 N368 1.362 . S
C372 C369 1.431 . S
C372 C382 1.476 . S
H373 C367 0.929 . S
C374 O365 1.250 . S
C374 O366 1.258 . S
O375 Mn360 2.162 1_565 S
O375 C363 1.280 1_565 S
O376 Mn360 2.297 . S
O376 C363 1.236 . S
N377 Mn361 2.282 . S
N377 C378 1.328 . S
N377 C382 1.318 . S
C378 N377 1.328 . S
C378 C379 1.457 . S
C378 H383 0.929 . S
C379 C378 1.457 . S
C379 C380 1.291 . S
C379 H392 0.931 . S
C380 C379 1.291 . S
C380 C381 1.373 . S
C380 H393 0.929 . S
C381 C380 1.373 . S
C381 C382 1.396 . S
C381 C388 1.403 . S
C382 C372 1.476 . S
C382 N377 1.318 . S
C382 C381 1.396 . S
H383 C378 0.929 . S
O384 Mn360 2.385 . S
O384 C362 1.234 . S
O385 Mn360 2.209 . S
O385 Mn361 2.215 . S
O385 C362 1.283 . S
O386 Mn360 2.094 . S
O386 C364 1.240 . S
O387 Mn361 2.117 . S
O387 C364 1.264 . S
C388 C381 1.403 . S
C388 C389 1.399 . S
C388 H394 0.929 . S
C389 C369 1.449 . S
C389 C388 1.399 . S
C389 H395 0.930 . S
H390 C370 0.931 . S
H391 C371 0.930 . S
H392 C379 0.931 . S
H393 C380 0.929 . S
H394 C388 0.929 . S
H395 C389 0.930 . S
Mn396 O401 2.095 . S
Mn396 O411 2.162 . S
Mn396 O412 2.297 . S
Mn396 O420 2.385 . S
Mn396 O421 2.209 . S
Mn396 O422 2.094 1_554 S
Mn397 O402 2.121 . S
Mn397 N404 2.257 . S
Mn397 N413 2.282 . S
Mn397 O421 2.215 1_556 S
Mn397 O423 2.117 . S
C398 O420 1.234 . S
C398 O421 1.283 . S
C399 O411 1.281 . S
C399 O412 1.236 . S
C400 O422 1.240 . S
C400 O423 1.264 . S
O401 Mn396 2.095 . S
O401 C410 1.250 . S
O402 Mn397 2.121 . S
O402 C410 1.258 1_556 S
C403 N404 1.335 . S
C403 C407 1.460 1_556 S
C403 H409 0.921 1_556 S
N404 Mn397 2.257 . S
N404 C403 1.335 . S
N404 C408 1.362 . S
C405 C406 1.258 . S
C405 C408 1.431 . S
C405 C425 1.449 . S
C406 C405 1.258 . S
C406 C407 1.477 1_556 S
C406 H426 0.931 1_565 S
C407 C403 1.460 1_554 S
C407 C406 1.477 1_554 S
C407 H427 0.930 1_565 S
C408 N404 1.362 . S
C408 C405 1.431 . S
C408 C418 1.476 . S
H409 C403 0.921 1_554 S
C410 O401 1.250 . S
C410 O402 1.258 1_554 S
O411 Mn396 2.162 . S
O411 C399 1.281 . S
O412 Mn396 2.297 . S
O412 C399 1.236 . S
N413 Mn397 2.282 . S
N413 C414 1.328 . S
N413 C418 1.318 . S
C414 N413 1.328 . S
C414 C415 1.457 . S
C414 H419 0.929 . S
C415 C414 1.457 . S
C415 C416 1.291 . S
C415 H428 0.931 . S
C416 C415 1.291 . S
C416 C417 1.373 . S
C416 H429 0.929 . S
C417 C416 1.373 . S
C417 C418 1.396 . S
C417 C424 1.403 . S
C418 C408 1.476 . S
C418 N413 1.318 . S
C418 C417 1.396 . S
H419 C414 0.929 . S
O420 Mn396 2.385 . S
O420 C398 1.234 . S
O421 Mn396 2.209 . S
O421 Mn397 2.215 1_554 S
O421 C398 1.283 . S
O422 Mn396 2.094 1_556 S
O422 C400 1.240 . S
O423 Mn397 2.117 . S
O423 C400 1.264 . S
C424 C417 1.403 . S
C424 C425 1.399 . S
C424 H430 0.929 . S
C425 C405 1.449 . S
C425 C424 1.399 . S
C425 H431 0.930 1_565 S
H426 C406 0.931 1_545 S
H427 C407 0.930 1_545 S
H428 C415 0.931 . S
H429 C416 0.929 . S
H430 C424 0.929 . S
H431 C425 0.930 1_545 S
Mn432 O437 2.095 . S
Mn432 O447 2.162 . S
Mn432 O448 2.297 . S
Mn432 O456 2.385 . S
Mn432 O457 2.209 . S
Mn432 O458 2.094 . S
Mn433 O438 2.121 . S
Mn433 N440 2.257 . S
Mn433 N449 2.282 1_554 S
Mn433 O457 2.215 . S
Mn433 O459 2.117 1_554 S
C434 O456 1.234 . S
C434 O457 1.283 . S
C435 O447 1.281 . S
C435 O448 1.236 . S
C436 O458 1.240 1_556 S
C436 O459 1.264 . S
O437 Mn432 2.095 . S
O437 C446 1.250 . S
O438 Mn433 2.121 . S
O438 C446 1.258 . S
C439 N440 1.326 . S
C439 C443 1.460 . S
C439 H445 0.929 . S
N440 Mn433 2.257 . S
N440 C439 1.326 . S
N440 C444 1.362 . S
C441 C442 1.258 . S
C441 C444 1.431 . S
C441 C461 1.442 1_554 S
C442 C441 1.258 . S
C442 C443 1.477 . S
C442 H462 0.931 . S
C443 C439 1.460 . S
C443 C442 1.477 . S
C443 H463 0.930 . S
C444 N440 1.362 . S
C444 C441 1.431 . S
C444 C454 1.476 1_554 S
H445 C439 0.929 . S
C446 O437 1.250 . S
C446 O438 1.258 . S
O447 Mn432 2.162 . S
O447 C435 1.281 . S
O448 Mn432 2.297 . S
O448 C435 1.236 . S
N449 Mn433 2.282 1_556 S
N449 C450 1.328 . S
N449 C454 1.318 . S
C450 N449 1.328 . S
C450 C451 1.457 . S
C450 H455 0.929 . S
C451 C450 1.457 . S
C451 C452 1.291 . S
C451 H464 0.931 . S
C452 C451 1.291 . S
C452 C453 1.373 . S
C452 H465 0.929 . S
C453 C452 1.373 . S
C453 C454 1.396 . S
C453 C460 1.403 . S
C454 C444 1.476 1_556 S
C454 N449 1.318 . S
C454 C453 1.396 . S
H455 C450 0.929 . S
O456 Mn432 2.385 . S
O456 C434 1.234 . S
O457 Mn432 2.209 . S
O457 Mn433 2.215 . S
O457 C434 1.283 . S
O458 Mn432 2.094 . S
O458 C436 1.240 1_554 S
O459 Mn433 2.117 1_556 S
O459 C436 1.264 . S
C460 C453 1.403 . S
C460 C461 1.405 . S
C460 H466 0.929 . S
C461 C441 1.442 1_556 S
C461 C460 1.405 . S
C461 H467 0.934 1_556 S
H462 C442 0.931 . S
H463 C443 0.930 . S
H464 C451 0.931 . S
H465 C452 0.929 . S
H466 C460 0.929 . S
H467 C461 0.934 1_554 S
Mn468 O473 2.095 . S
Mn468 O483 2.162 . S
Mn468 O484 2.297 . S
Mn468 O492 2.385 . S
Mn468 O493 2.209 . S
Mn468 O494 2.093 1_554 S
Mn469 O474 2.121 1_556 S
Mn469 N476 2.257 . S
Mn469 N485 2.282 . S
Mn469 O493 2.215 1_556 S
Mn469 O495 2.117 . S
C470 O492 1.234 . S
C470 O493 1.283 . S
C471 O483 1.281 . S
C471 O484 1.236 . S
C472 O494 1.241 . S
C472 O495 1.264 . S
O473 Mn468 2.095 . S
O473 C482 1.250 . S
O474 Mn469 2.121 1_554 S
O474 C482 1.258 . S
C475 N476 1.339 . S
C475 C479 1.458 . S
C475 H481 0.920 1_556 S
N476 Mn469 2.257 . S
N476 C475 1.339 . S
N476 C480 1.362 . S
C477 C478 1.258 . S
C477 C480 1.431 . S
C477 C497 1.449 . S
C478 C477 1.258 . S
C478 C479 1.477 . S
C478 H498 0.956 . S
C479 C475 1.458 . S
C479 C478 1.477 . S
C479 H499 0.930 1_556 S
C480 N476 1.362 . S
C480 C477 1.431 . S
C480 C490 1.476 . S
H481 C475 0.920 1_554 S
C482 O473 1.250 . S
C482 O474 1.258 . S
O483 Mn468 2.162 . S
O483 C471 1.281 . S
O484 Mn468 2.297 . S
O484 C471 1.236 . S
N485 Mn469 2.282 . S
N485 C486 1.328 . S
N485 C490 1.318 . S
C486 N485 1.328 . S
C486 C487 1.457 . S
C486 H491 0.929 . S
C487 C486 1.457 . S
C487 C488 1.291 . S
C487 H500 0.931 . S
C488 C487 1.291 . S
C488 C489 1.373 . S
C488 H501 0.929 . S
C489 C488 1.373 . S
C489 C490 1.396 . S
C489 C496 1.403 . S
C490 C480 1.476 . S
C490 N485 1.318 . S
C490 C489 1.396 . S
H491 C486 0.929 . S
O492 Mn468 2.385 . S
O492 C470 1.234 . S
O493 Mn468 2.209 . S
O493 Mn469 2.215 1_554 S
O493 C470 1.283 . S
O494 Mn468 2.093 1_556 S
O494 C472 1.241 . S
O495 Mn469 2.117 . S
O495 C472 1.264 . S
C496 C489 1.403 . S
C496 C497 1.399 . S
C496 H502 0.929 . S
C497 C477 1.449 . S
C497 C496 1.399 . S
C497 H503 0.930 . S
H498 C478 0.956 . S
H499 C479 0.930 1_554 S
H500 C487 0.931 . S
H501 C488 0.929 . S
H502 C496 0.929 . S
H503 C497 0.930 . S
Mn504 O509 2.095 . S
Mn504 O519 2.162 . S
Mn504 O520 2.297 . S
Mn504 O528 2.385 . S
Mn504 O529 2.209 . S
Mn504 O530 2.094 . S
Mn505 O510 2.121 . S
Mn505 N512 2.257 . S
Mn505 N521 2.282 . S
Mn505 O529 2.215 . S
Mn505 O531 2.117 . S
C506 O528 1.234 . S
C506 O529 1.283 . S
C507 O519 1.281 . S
C507 O520 1.236 . S
C508 O530 1.240 . S
C508 O531 1.264 . S
O509 Mn504 2.095 . S
O509 C518 1.250 . S
O510 Mn505 2.121 . S
O510 C518 1.258 . S
C511 N512 1.326 . S
C511 C515 1.460 . S
C511 H517 0.929 . S
N512 Mn505 2.257 . S
N512 C511 1.326 . S
N512 C516 1.362 . S
C513 C514 1.258 . S
C513 C516 1.431 . S
C513 C533 1.449 . S
C514 C513 1.258 . S
C514 C515 1.477 . S
C514 H534 0.931 . S
C515 C511 1.460 . S
C515 C514 1.477 . S
C515 H535 0.930 . S
C516 N512 1.362 . S
C516 C513 1.431 . S
C516 C526 1.476 . S
H517 C511 0.929 . S
C518 O509 1.250 . S
C518 O510 1.258 . S
O519 Mn504 2.162 . S
O519 C507 1.281 . S
O520 Mn504 2.297 . S
O520 C507 1.236 . S
N521 Mn505 2.282 . S
N521 C522 1.328 . S
N521 C526 1.318 . S
C522 N521 1.328 . S
C522 C523 1.457 . S
C522 H527 0.929 . S
C523 C522 1.457 . S
C523 C524 1.291 . S
C523 H536 0.931 . S
C524 C523 1.291 . S
C524 C525 1.373 . S
C524 H537 0.929 . S
C525 C524 1.373 . S
C525 C526 1.396 . S
C525 C532 1.403 . S
C526 C516 1.476 . S
C526 N521 1.318 . S
C526 C525 1.396 . S
H527 C522 0.929 . S
O528 Mn504 2.385 . S
O528 C506 1.234 . S
O529 Mn504 2.209 . S
O529 Mn505 2.215 . S
O529 C506 1.283 . S
O530 Mn504 2.094 . S
O530 C508 1.240 . S
O531 Mn505 2.117 . S
O531 C508 1.264 . S
C532 C525 1.403 . S
C532 C533 1.399 . S
C532 H538 0.929 . S
C533 C513 1.449 . S
C533 C532 1.399 . S
C533 H539 0.930 . S
H534 C514 0.931 . S
H535 C515 0.930 . S
H536 C523 0.931 . S
H537 C524 0.929 . S
H538 C532 0.929 . S
H539 C533 0.930 . S
Mn540 O545 2.095 . S
Mn540 O555 2.162 . S
Mn540 O556 2.297 . S
Mn540 O564 2.385 . S
Mn540 O565 2.209 . S
Mn540 O566 2.094 . S
Mn541 O546 2.121 . S
Mn541 N548 2.257 . S
Mn541 N557 2.282 . S
Mn541 O565 2.215 . S
Mn541 O567 2.117 . S
C542 O564 1.234 . S
C542 O565 1.283 . S
C543 O555 1.281 . S
C543 O556 1.236 . S
C544 O566 1.240 . S
C544 O567 1.264 . S
O545 Mn540 2.095 . S
O545 C554 1.250 . S
O546 Mn541 2.121 . S
O546 C554 1.258 . S
C547 N548 1.326 . S
C547 C551 1.460 . S
C547 H553 0.929 . S
N548 Mn541 2.257 . S
N548 C547 1.326 . S
N548 C552 1.362 . S
C549 C550 1.258 1_565 S
C549 C552 1.431 . S
C549 C569 1.449 . S
C550 C549 1.258 1_545 S
C550 C551 1.477 1_545 S
C550 H570 0.931 . S
C551 C547 1.460 . S
C551 C550 1.477 1_565 S
C551 H571 0.930 1_565 S
C552 N548 1.362 . S
C552 C549 1.431 . S
C552 C562 1.476 . S
H553 C547 0.929 . S
C554 O545 1.250 . S
C554 O546 1.258 . S
O555 Mn540 2.162 . S
O555 C543 1.281 . S
O556 Mn540 2.297 . S
O556 C543 1.236 . S
N557 Mn541 2.282 . S
N557 C558 1.328 . S
N557 C562 1.318 . S
C558 N557 1.328 . S
C558 C559 1.457 . S
C558 H563 0.929 . S
C559 C558 1.457 . S
C559 C560 1.291 . S
C559 H572 0.931 . S
C560 C559 1.291 . S
C560 C561 1.373 . S
C560 H573 0.929 . S
C561 C560 1.373 . S
C561 C562 1.396 . S
C561 C568 1.403 . S
C562 C552 1.476 . S
C562 N557 1.318 . S
C562 C561 1.396 . S
H563 C558 0.929 . S
O564 Mn540 2.385 . S
O564 C542 1.234 . S
O565 Mn540 2.209 . S
O565 Mn541 2.215 . S
O565 C542 1.283 . S
O566 Mn540 2.094 . S
O566 C544 1.240 . S
O567 Mn541 2.117 . S
O567 C544 1.264 . S
C568 C561 1.403 . S
C568 C569 1.399 . S
C568 H574 0.929 . S
C569 C549 1.449 . S
C569 C568 1.399 . S
C569 H575 0.930 1_565 S
H570 C550 0.931 . S
H571 C551 0.930 1_545 S
H572 C559 0.931 . S
H573 C560 0.929 . S
H574 C568 0.929 . S
H575 C569 0.930 1_545 S
Mn576 O581 2.095 . S
Mn576 O591 2.162 . S
Mn576 O592 2.297 . S
Mn576 O600 2.385 1_545 S
Mn576 O601 2.209 1_545 S
Mn576 O602 2.094 . S
Mn577 O582 2.121 . S
Mn577 N584 2.257 1_545 S
Mn577 N593 2.282 1_545 S
Mn577 O601 2.215 1_545 S
Mn577 O603 2.117 . S
C578 O600 1.234 . S
C578 O601 1.283 . S
C579 O591 1.281 . S
C579 O592 1.236 . S
C580 O602 1.240 . S
C580 O603 1.264 . S
O581 Mn576 2.095 . S
O581 C590 1.250 . S
O582 Mn577 2.121 . S
O582 C590 1.258 . S
C583 N584 1.325 . S
C583 C587 1.459 . S
C583 H589 0.931 1_565 S
N584 Mn577 2.257 1_565 S
N584 C583 1.325 . S
N584 C588 1.362 . S
C585 C586 1.258 . S
C585 C588 1.431 . S
C585 C605 1.449 . S
C586 C585 1.258 . S
C586 C587 1.477 . S
C586 H606 0.931 . S
C587 C583 1.459 . S
C587 C586 1.477 . S
C587 H607 0.930 . S
C588 N584 1.362 . S
C588 C585 1.431 . S
C588 C598 1.476 . S
H589 C583 0.931 1_545 S
C590 O581 1.250 . S
C590 O582 1.258 . S
O591 Mn576 2.162 . S
O591 C579 1.281 . S
O592 Mn576 2.297 . S
O592 C579 1.236 . S
N593 Mn577 2.282 1_565 S
N593 C594 1.328 . S
N593 C598 1.318 . S
C594 N593 1.328 . S
C594 C595 1.457 . S
C594 H599 0.929 . S
C595 C594 1.457 . S
C595 C596 1.291 . S
C595 H608 0.931 . S
C596 C595 1.291 . S
C596 C597 1.373 . S
C596 H609 0.929 . S
C597 C596 1.373 . S
C597 C598 1.396 . S
C597 C604 1.403 . S
C598 C588 1.476 . S
C598 N593 1.318 . S
C598 C597 1.396 . S
H599 C594 0.929 . S
O600 Mn576 2.385 1_565 S
O600 C578 1.234 . S
O601 Mn576 2.209 1_565 S
O601 Mn577 2.215 1_565 S
O601 C578 1.283 . S
O602 Mn576 2.094 . S
O602 C580 1.240 . S
O603 Mn577 2.117 . S
O603 C580 1.264 . S
C604 C597 1.403 . S
C604 C605 1.399 . S
C604 H610 0.929 . S
C605 C585 1.449 . S
C605 C604 1.399 . S
C605 H611 0.930 . S
H606 C586 0.931 . S
H607 C587 0.930 . S
H608 C595 0.931 . S
H609 C596 0.929 . S
H610 C604 0.929 . S
H611 C605 0.930 . S
Mn612 O617 2.095 . S
Mn612 O627 2.162 . S
Mn612 O628 2.297 . S
Mn612 O636 2.385 . S
Mn612 O637 2.209 . S
Mn612 O638 2.094 . S
Mn613 O618 2.121 . S
Mn613 N620 2.257 . S
Mn613 N629 2.282 . S
Mn613 O637 2.215 . S
Mn613 O639 2.117 . S
C614 O636 1.234 . S
C614 O637 1.283 . S
C615 O627 1.281 . S
C615 O628 1.236 . S
C616 O638 1.240 . S
C616 O639 1.264 . S
O617 Mn612 2.095 . S
O617 C626 1.250 . S
O618 Mn613 2.121 . S
O618 C626 1.258 . S
C619 N620 1.326 . S
C619 C623 1.460 . S
C619 H625 0.929 . S
N620 Mn613 2.257 . S
N620 C619 1.326 . S
N620 C624 1.362 . S
C621 C622 1.258 . S
C621 C624 1.431 . S
C621 C641 1.449 . S
C622 C621 1.258 . S
C622 C623 1.477 . S
C622 H642 0.931 . S
C623 C619 1.460 . S
C623 C622 1.477 . S
C623 H643 0.930 . S
C624 N620 1.362 . S
C624 C621 1.431 . S
C624 C634 1.476 . S
H625 C619 0.929 . S
C626 O617 1.250 . S
C626 O618 1.258 . S
O627 Mn612 2.162 . S
O627 C615 1.281 . S
O628 Mn612 2.297 . S
O628 C615 1.236 . S
N629 Mn613 2.282 . S
N629 C630 1.328 . S
N629 C634 1.318 . S
C630 N629 1.328 . S
C630 C631 1.457 . S
C630 H635 0.929 . S
C631 C630 1.457 . S
C631 C632 1.291 . S
C631 H644 0.931 . S
C632 C631 1.291 . S
C632 C633 1.373 . S
C632 H645 0.929 . S
C633 C632 1.373 . S
C633 C634 1.396 . S
C633 C640 1.403 . S
C634 C624 1.476 . S
C634 N629 1.318 . S
C634 C633 1.396 . S
H635 C630 0.929 . S
O636 Mn612 2.385 . S
O636 C614 1.234 . S
O637 Mn612 2.209 . S
O637 Mn613 2.215 . S
O637 C614 1.283 . S
O638 Mn612 2.094 . S
O638 C616 1.240 . S
O639 Mn613 2.117 . S
O639 C616 1.264 . S
C640 C633 1.403 . S
C640 C641 1.399 . S
C640 H646 0.929 . S
C641 C621 1.449 . S
C641 C640 1.399 . S
C641 H647 0.930 . S
H642 C622 0.931 . S
H643 C623 0.930 . S
H644 C631 0.931 . S
H645 C632 0.929 . S
H646 C640 0.929 . S
H647 C641 0.930 . S
Mn648 O653 2.095 . S
Mn648 O663 2.162 . S
Mn648 O664 2.297 . S
Mn648 O672 2.385 . S
Mn648 O673 2.209 . S
Mn648 O674 2.094 . S
Mn649 O654 2.121 . S
Mn649 N656 2.257 . S
Mn649 N665 2.282 . S
Mn649 O673 2.215 . S
Mn649 O675 2.117 . S
C650 O672 1.234 . S
C650 O673 1.283 . S
C651 O663 1.281 . S
C651 O664 1.236 . S
C652 O674 1.240 . S
C652 O675 1.264 . S
O653 Mn648 2.095 . S
O653 C662 1.250 . S
O654 Mn649 2.121 . S
O654 C662 1.258 . S
C655 N656 1.326 . S
C655 C659 1.460 . S
C655 H661 0.929 . S
N656 Mn649 2.257 . S
N656 C655 1.326 . S
N656 C660 1.362 . S
C657 C658 1.258 . S
C657 C660 1.431 . S
C657 C677 1.449 . S
C658 C657 1.258 . S
C658 C659 1.477 . S
C658 H678 0.931 . S
C659 C655 1.460 . S
C659 C658 1.477 . S
C659 H679 0.930 . S
C660 N656 1.362 . S
C660 C657 1.431 . S
C660 C670 1.476 . S
H661 C655 0.929 . S
C662 O653 1.250 . S
C662 O654 1.258 . S
O663 Mn648 2.162 . S
O663 C651 1.281 . S
O664 Mn648 2.297 . S
O664 C651 1.236 . S
N665 Mn649 2.282 . S
N665 C666 1.328 . S
N665 C670 1.318 . S
C666 N665 1.328 . S
C666 C667 1.457 . S
C666 H671 0.929 . S
C667 C666 1.457 . S
C667 C668 1.291 . S
C667 H680 0.931 . S
C668 C667 1.291 . S
C668 C669 1.373 . S
C668 H681 0.929 . S
C669 C668 1.373 . S
C669 C670 1.396 . S
C669 C676 1.403 . S
C670 C660 1.476 . S
C670 N665 1.318 . S
C670 C669 1.396 . S
H671 C666 0.929 . S
O672 Mn648 2.385 . S
O672 C650 1.234 . S
O673 Mn648 2.209 . S
O673 Mn649 2.215 . S
O673 C650 1.283 . S
O674 Mn648 2.094 . S
O674 C652 1.240 . S
O675 Mn649 2.117 . S
O675 C652 1.264 . S
C676 C669 1.403 . S
C676 C677 1.399 . S
C676 H682 0.929 . S
C677 C657 1.449 . S
C677 C676 1.399 . S
C677 H683 0.930 . S
H678 C658 0.931 . S
H679 C659 0.930 . S
H680 C667 0.931 . S
H681 C668 0.929 . S
H682 C676 0.929 . S
H683 C677 0.930 . S
Mn684 O689 2.081 1_545 S
Mn684 O699 2.162 1_545 S
Mn684 O700 2.298 1_545 S
Mn684 O708 2.400 . S
Mn684 O709 2.214 . S
Mn684 O710 2.094 1_545 S
Mn685 O690 2.121 1_545 S
Mn685 N692 2.257 . S
Mn685 N701 2.282 . S
Mn685 O709 2.215 . S
Mn685 O711 2.117 . S
C686 O708 1.234 . S
C686 O709 1.283 . S
C687 O699 1.281 . S
C687 O700 1.235 . S
C688 O710 1.241 1_545 S
C688 O711 1.264 . S
O689 Mn684 2.081 1_565 S
O689 C698 1.250 . S
O690 Mn685 2.121 1_565 S
O690 C698 1.258 . S
C691 N692 1.326 . S
C691 C695 1.460 . S
C691 H697 0.929 1_545 S
N692 Mn685 2.257 . S
N692 C691 1.326 . S
N692 C696 1.362 . S
C693 C694 1.258 . S
C693 C696 1.431 . S
C693 C713 1.449 . S
C694 C693 1.258 . S
C694 C695 1.477 . S
C694 H714 0.931 . S
C695 C691 1.460 . S
C695 C694 1.477 . S
C695 H715 0.930 . S
C696 N692 1.362 . S
C696 C693 1.431 . S
C696 C706 1.476 . S
H697 C691 0.929 1_565 S
C698 O689 1.250 . S
C698 O690 1.258 . S
O699 Mn684 2.162 1_565 S
O699 C687 1.281 . S
O700 Mn684 2.298 1_565 S
O700 C687 1.235 . S
N701 Mn685 2.282 . S
N701 C702 1.328 . S
N701 C706 1.318 . S
C702 N701 1.328 . S
C702 C703 1.457 . S
C702 H707 0.929 . S
C703 C702 1.457 . S
C703 C704 1.291 . S
C703 H716 0.931 . S
C704 C703 1.291 . S
C704 C705 1.373 . S
C704 H717 0.929 . S
C705 C704 1.373 . S
C705 C706 1.396 . S
C705 C712 1.403 . S
C706 C696 1.476 . S
C706 N701 1.318 . S
C706 C705 1.396 . S
H707 C702 0.929 . S
O708 Mn684 2.400 . S
O708 C686 1.234 . S
O709 Mn684 2.214 . S
O709 Mn685 2.215 . S
O709 C686 1.283 . S
O710 Mn684 2.094 1_565 S
O710 C688 1.241 1_565 S
O711 Mn685 2.117 . S
O711 C688 1.264 . S
C712 C705 1.403 . S
C712 C713 1.399 . S
C712 H718 0.929 . S
C713 C693 1.449 . S
C713 C712 1.399 . S
C713 H719 0.930 . S
H714 C694 0.931 . S
H715 C695 0.930 . S
H716 C703 0.931 . S
H717 C704 0.929 . S
H718 C712 0.929 . S
H719 C713 0.930 . S
Mn720 O725 2.095 1_554 S
Mn720 O735 2.162 . S
Mn720 O736 2.297 . S
Mn720 O744 2.385 . S
Mn720 O745 2.209 1_554 S
Mn720 O746 2.094 1_554 S
Mn721 O726 2.121 . S
Mn721 N728 2.257 . S
Mn721 N737 2.282 . S
Mn721 O745 2.215 . S
Mn721 O747 2.117 . S
C722 O744 1.234 1_556 S
C722 O745 1.283 . S
C723 O735 1.281 . S
C723 O736 1.236 . S
C724 O746 1.240 . S
C724 O747 1.264 . S
O725 Mn720 2.095 1_556 S
O725 C734 1.250 . S
O726 Mn721 2.121 . S
O726 C734 1.258 . S
C727 N728 1.326 . S
C727 C731 1.460 . S
C727 H733 0.929 . S
N728 Mn721 2.257 . S
N728 C727 1.326 . S
N728 C732 1.362 . S
C729 C730 1.258 . S
C729 C732 1.431 . S
C729 C749 1.449 . S
C730 C729 1.258 . S
C730 C731 1.477 . S
C730 H750 0.931 . S
C731 C727 1.460 . S
C731 C730 1.477 . S
C731 H751 0.930 . S
C732 N728 1.362 . S
C732 C729 1.431 . S
C732 C742 1.476 . S
H733 C727 0.929 . S
C734 O725 1.250 . S
C734 O726 1.258 . S
O735 Mn720 2.162 . S
O735 C723 1.281 . S
O736 Mn720 2.297 . S
O736 C723 1.236 . S
N737 Mn721 2.282 . S
N737 C738 1.328 . S
N737 C742 1.318 . S
C738 N737 1.328 . S
C738 C739 1.457 . S
C738 H743 0.929 . S
C739 C738 1.457 . S
C739 C740 1.291 . S
C739 H752 0.931 . S
C740 C739 1.291 . S
C740 C741 1.373 . S
C740 H753 0.929 . S
C741 C740 1.373 . S
C741 C742 1.396 . S
C741 C748 1.403 . S
C742 C732 1.476 . S
C742 N737 1.318 . S
C742 C741 1.396 . S
H743 C738 0.929 . S
O744 Mn720 2.385 . S
O744 C722 1.234 1_554 S
O745 Mn720 2.209 1_556 S
O745 Mn721 2.215 . S
O745 C722 1.283 . S
O746 Mn720 2.094 1_556 S
O746 C724 1.240 . S
O747 Mn721 2.117 . S
O747 C724 1.264 . S
C748 C741 1.403 . S
C748 C749 1.399 . S
C748 H754 0.929 . S
C749 C729 1.449 . S
C749 C748 1.399 . S
C749 H755 0.930 . S
H750 C730 0.931 . S
H751 C731 0.930 . S
H752 C739 0.931 . S
H753 C740 0.929 . S
H754 C748 0.929 . S
H755 C749 0.930 . S
Mn756 O761 2.095 . S
Mn756 O771 2.162 . S
Mn756 O772 2.297 . S
Mn756 O780 2.385 . S
Mn756 O781 2.209 . S
Mn756 O782 2.094 . S
Mn757 O762 2.121 . S
Mn757 N764 2.257 . S
Mn757 N773 2.282 . S
Mn757 O781 2.215 . S
Mn757 O783 2.117 . S
C758 O780 1.234 . S
C758 O781 1.283 . S
C759 O771 1.281 . S
C759 O772 1.236 . S
C760 O782 1.240 . S
C760 O783 1.264 . S
O761 Mn756 2.095 . S
O761 C770 1.250 . S
O762 Mn757 2.121 . S
O762 C770 1.258 . S
C763 N764 1.326 . S
C763 C767 1.460 . S
C763 H769 0.929 . S
N764 Mn757 2.257 . S
N764 C763 1.326 . S
N764 C768 1.362 . S
C765 C766 1.258 . S
C765 C768 1.431 . S
C765 C785 1.449 . S
C766 C765 1.258 . S
C766 C767 1.477 . S
C766 H786 0.931 . S
C767 C763 1.460 . S
C767 C766 1.477 . S
C767 H787 0.930 . S
C768 N764 1.362 . S
C768 C765 1.431 . S
C768 C778 1.476 . S
H769 C763 0.929 . S
C770 O761 1.250 . S
C770 O762 1.258 . S
O771 Mn756 2.162 . S
O771 C759 1.281 . S
O772 Mn756 2.297 . S
O772 C759 1.236 . S
N773 Mn757 2.282 . S
N773 C774 1.328 . S
N773 C778 1.318 . S
C774 N773 1.328 . S
C774 C775 1.457 . S
C774 H779 0.929 . S
C775 C774 1.457 . S
C775 C776 1.291 . S
C775 H788 0.931 . S
C776 C775 1.291 . S
C776 C777 1.373 . S
C776 H789 0.929 . S
C777 C776 1.373 . S
C777 C778 1.396 . S
C777 C784 1.403 . S
C778 C768 1.476 . S
C778 N773 1.318 . S
C778 C777 1.396 . S
H779 C774 0.929 . S
O780 Mn756 2.385 . S
O780 C758 1.234 . S
O781 Mn756 2.209 . S
O781 Mn757 2.215 . S
O781 C758 1.283 . S
O782 Mn756 2.094 . S
O782 C760 1.240 . S
O783 Mn757 2.117 . S
O783 C760 1.264 . S
C784 C777 1.403 . S
C784 C785 1.399 . S
C784 H790 0.929 . S
C785 C765 1.449 . S
C785 C784 1.399 . S
C785 H791 0.930 . S
H786 C766 0.931 . S
H787 C767 0.930 . S
H788 C775 0.931 . S
H789 C776 0.929 . S
H790 C784 0.929 . S
H791 C785 0.930 . S
Mn792 O797 2.095 . S
Mn792 O807 2.162 . S
Mn792 O808 2.297 . S
Mn792 O816 2.385 . S
Mn792 O817 2.209 . S
Mn792 O818 2.094 . S
Mn793 O798 2.121 . S
Mn793 N800 2.257 . S
Mn793 N809 2.282 . S
Mn793 O817 2.215 . S
Mn793 O819 2.117 . S
C794 O816 1.234 . S
C794 O817 1.283 . S
C795 O807 1.281 . S
C795 O808 1.236 . S
C796 O818 1.240 . S
C796 O819 1.264 . S
O797 Mn792 2.095 . S
O797 C806 1.250 . S
O798 Mn793 2.121 . S
O798 C806 1.258 . S
C799 N800 1.326 . S
C799 C803 1.460 . S
C799 H805 0.929 . S
N800 Mn793 2.257 . S
N800 C799 1.326 . S
N800 C804 1.362 . S
C801 C802 1.258 . S
C801 C804 1.431 . S
C801 C821 1.449 . S
C802 C801 1.258 . S
C802 C803 1.477 . S
C802 H822 0.931 . S
C803 C799 1.460 . S
C803 C802 1.477 . S
C803 H823 0.930 . S
C804 N800 1.362 . S
C804 C801 1.431 . S
C804 C814 1.476 . S
H805 C799 0.929 . S
C806 O797 1.250 . S
C806 O798 1.258 . S
O807 Mn792 2.162 . S
O807 C795 1.281 . S
O808 Mn792 2.297 . S
O808 C795 1.236 . S
N809 Mn793 2.282 . S
N809 C810 1.328 . S
N809 C814 1.318 . S
C810 N809 1.328 . S
C810 C811 1.457 . S
C810 H815 0.929 . S
C811 C810 1.457 . S
C811 C812 1.291 . S
C811 H824 0.931 . S
C812 C811 1.291 . S
C812 C813 1.373 . S
C812 H825 0.929 . S
C813 C812 1.373 . S
C813 C814 1.396 . S
C813 C820 1.403 . S
C814 C804 1.476 . S
C814 N809 1.318 . S
C814 C813 1.396 . S
H815 C810 0.929 . S
O816 Mn792 2.385 . S
O816 C794 1.234 . S
O817 Mn792 2.209 . S
O817 Mn793 2.215 . S
O817 C794 1.283 . S
O818 Mn792 2.094 . S
O818 C796 1.240 . S
O819 Mn793 2.117 . S
O819 C796 1.264 . S
C820 C813 1.403 . S
C820 C821 1.399 . S
C820 H826 0.929 . S
C821 C801 1.449 . S
C821 C820 1.399 . S
C821 H827 0.930 . S
H822 C802 0.931 . S
H823 C803 0.930 . S
H824 C811 0.931 . S
H825 C812 0.929 . S
H826 C820 0.929 . S
H827 C821 0.930 . S
Mn828 O833 2.095 . S
Mn828 O843 2.162 . S
Mn828 O844 2.297 . S
Mn828 O852 2.385 . S
Mn828 O853 2.209 . S
Mn828 O854 2.094 . S
Mn829 O834 2.121 . S
Mn829 N836 2.257 . S
Mn829 N845 2.282 . S
Mn829 O853 2.215 . S
Mn829 O855 2.117 . S
C830 O852 1.234 . S
C830 O853 1.283 . S
C831 O843 1.281 . S
C831 O844 1.236 . S
C832 O854 1.240 . S
C832 O855 1.264 . S
O833 Mn828 2.095 . S
O833 C842 1.250 . S
O834 Mn829 2.121 . S
O834 C842 1.258 . S
C835 N836 1.326 . S
C835 C839 1.460 . S
C835 H841 0.929 . S
N836 Mn829 2.257 . S
N836 C835 1.326 . S
N836 C840 1.362 . S
C837 C838 1.258 . S
C837 C840 1.431 . S
C837 C857 1.449 . S
C838 C837 1.258 . S
C838 C839 1.477 . S
C838 H858 0.931 . S
C839 C835 1.460 . S
C839 C838 1.477 . S
C839 H859 0.930 . S
C840 N836 1.362 . S
C840 C837 1.431 . S
C840 C850 1.476 . S
H841 C835 0.929 . S
C842 O833 1.250 . S
C842 O834 1.258 . S
O843 Mn828 2.162 . S
O843 C831 1.281 . S
O844 Mn828 2.297 . S
O844 C831 1.236 . S
N845 Mn829 2.282 . S
N845 C846 1.328 . S
N845 C850 1.318 . S
C846 N845 1.328 . S
C846 C847 1.457 . S
C846 H851 0.929 . S
C847 C846 1.457 . S
C847 C848 1.291 . S
C847 H860 0.931 . S
C848 C847 1.291 . S
C848 C849 1.373 . S
C848 H861 0.929 . S
C849 C848 1.373 . S
C849 C850 1.396 . S
C849 C856 1.403 . S
C850 C840 1.476 . S
C850 N845 1.318 . S
C850 C849 1.396 . S
H851 C846 0.929 . S
O852 Mn828 2.385 . S
O852 C830 1.234 . S
O853 Mn828 2.209 . S
O853 Mn829 2.215 . S
O853 C830 1.283 . S
O854 Mn828 2.094 . S
O854 C832 1.240 . S
O855 Mn829 2.117 . S
O855 C832 1.264 . S
C856 C849 1.403 . S
C856 C857 1.399 . S
C856 H862 0.929 . S
C857 C837 1.449 . S
C857 C856 1.399 . S
C857 H863 0.930 . S
H858 C838 0.931 . S
H859 C839 0.930 . S
H860 C847 0.931 . S
H861 C848 0.929 . S
H862 C856 0.929 . S
H863 C857 0.930 . S
Zn864 O870 1.969 . S
Zn864 O871 1.965 . S
Zn864 O875 2.024 . S
Zn864 O880 1.969 . S
Zn865 O872 1.969 1_654 S
Zn865 O878 1.969 1_554 S
Zn865 O879 1.965 . S
Zn865 O881 2.024 1_655 S
C866 O867 1.229 . S
C866 O875 1.058 . S
O867 C866 1.229 . S
C868 O869 1.229 1_454 S
C868 O881 1.058 . S
O869 C868 1.229 1_656 S
O870 Zn864 1.969 . S
O870 C873 1.267 . S
O871 Zn864 1.965 . S
O871 C882 1.260 1_554 S
O872 Zn865 1.969 1_456 S
O872 C882 1.258 1_545 S
C873 O870 1.267 . S
C873 O874 1.228 . S
O874 C873 1.228 . S
O875 Zn864 2.024 . S
O875 C866 1.058 . S
C876 O877 1.228 . S
C876 O878 1.267 1_554 S
O877 C876 1.228 . S
O878 Zn865 1.969 1_556 S
O878 C876 1.267 1_556 S
O879 Zn865 1.965 . S
O879 C883 1.251 1_655 S
O880 Zn864 1.969 . S
O880 C883 1.273 1_565 S
O881 Zn865 2.024 1_455 S
O881 C868 1.058 . S
C882 O871 1.260 1_556 S
C882 O872 1.258 1_565 S
C883 O879 1.251 1_455 S
C883 O880 1.273 1_545 S
Zn884 O890 1.969 . S
Zn884 O891 1.965 . S
Zn884 O895 2.024 . S
Zn884 O900 1.969 . S
Zn885 O892 1.969 . S
Zn885 O898 1.969 . S
Zn885 O899 1.965 . S
Zn885 O901 2.024 . S
C886 O887 1.229 . S
C886 O895 1.058 . S
O887 C886 1.229 . S
C888 O889 1.229 . S
C888 O901 1.058 . S
O889 C888 1.229 . S
O890 Zn884 1.969 . S
O890 C893 1.267 . S
O891 Zn884 1.965 . S
O891 C902 1.260 . S
O892 Zn885 1.969 . S
O892 C902 1.258 . S
C893 O890 1.267 . S
C893 O894 1.228 . S
O894 C893 1.228 . S
O895 Zn884 2.024 . S
O895 C886 1.058 . S
C896 O897 1.228 . S
C896 O898 1.267 . S
O897 C896 1.228 . S
O898 Zn885 1.969 . S
O898 C896 1.267 . S
O899 Zn885 1.965 . S
O899 C903 1.260 . S
O900 Zn884 1.969 . S
O900 C903 1.258 . S
O901 Zn885 2.024 . S
O901 C888 1.058 . S
C902 O891 1.260 . S
C902 O892 1.258 . S
C903 O899 1.260 . S
C903 O900 1.258 . S
Zn904 O910 1.969 . S
Zn904 O911 1.965 . S
Zn904 O915 2.024 . S
Zn904 O920 1.969 . S
Zn905 O912 1.969 1_565 S
Zn905 O918 1.969 . S
Zn905 O919 1.965 1_565 S
Zn905 O921 2.024 . S
C906 O907 1.229 . S
C906 O915 1.058 . S
O907 C906 1.229 . S
C908 O909 1.229 . S
C908 O921 1.058 . S
O909 C908 1.229 . S
O910 Zn904 1.969 . S
O910 C913 1.267 . S
O911 Zn904 1.965 . S
O911 C922 1.260 . S
O912 Zn905 1.969 1_545 S
O912 C922 1.258 . S
C913 O910 1.267 . S
C913 O914 1.228 . S
O914 C913 1.228 . S
O915 Zn904 2.024 . S
O915 C906 1.058 . S
C916 O917 1.228 . S
C916 O918 1.267 . S
O917 C916 1.228 . S
O918 Zn905 1.969 . S
O918 C916 1.267 . S
O919 Zn905 1.965 1_545 S
O919 C923 1.260 . S
O920 Zn904 1.969 . S
O920 C923 1.258 . S
O921 Zn905 2.024 . S
O921 C908 1.058 . S
C922 O911 1.260 . S
C922 O912 1.258 . S
C923 O919 1.260 . S
C923 O920 1.258 . S
Zn924 O930 1.969 . S
Zn924 O931 1.965 . S
Zn924 O935 2.024 . S
Zn924 O940 1.969 . S
Zn925 O932 1.969 . S
Zn925 O938 1.969 . S
Zn925 O939 1.965 . S
Zn925 O941 2.024 . S
C926 O927 1.229 . S
C926 O935 1.058 . S
O927 C926 1.229 . S
C928 O929 1.229 . S
C928 O941 1.058 . S
O929 C928 1.229 . S
O930 Zn924 1.969 . S
O930 C933 1.267 . S
O931 Zn924 1.965 . S
O931 C942 1.260 . S
O932 Zn925 1.969 . S
O932 C942 1.258 . S
C933 O930 1.267 . S
C933 O934 1.228 . S
O934 C933 1.228 . S
O935 Zn924 2.024 . S
O935 C926 1.058 . S
C936 O937 1.228 . S
C936 O938 1.267 . S
O937 C936 1.228 . S
O938 Zn925 1.969 . S
O938 C936 1.267 . S
O939 Zn925 1.965 . S
O939 C943 1.260 . S
O940 Zn924 1.969 . S
O940 C943 1.258 . S
O941 Zn925 2.024 . S
O941 C928 1.058 . S
C942 O931 1.260 . S
C942 O932 1.258 . S
C943 O939 1.260 . S
C943 O940 1.258 . S
Zn944 O950 1.969 . S
Zn944 O951 1.965 1_455 S
Zn944 O955 2.024 1_565 S
Zn944 O960 1.969 1_565 S
Zn945 O952 1.969 1_455 S
Zn945 O958 1.969 1_455 S
Zn945 O959 1.965 . S
Zn945 O961 2.024 . S
C946 O947 1.229 1_545 S
C946 O955 1.058 . S
O947 C946 1.229 1_565 S
C948 O949 1.229 . S
C948 O961 1.058 1_655 S
O949 C948 1.229 . S
O950 Zn944 1.969 . S
O950 C953 1.267 . S
O951 Zn944 1.965 1_655 S
O951 C962 1.260 . S
O952 Zn945 1.969 1_655 S
O952 C962 1.258 1_545 S
C953 O950 1.267 . S
C953 O954 1.228 . S
O954 C953 1.228 . S
O955 Zn944 2.024 1_545 S
O955 C946 1.058 . S
C956 O957 1.228 . S
C956 O958 1.267 1_455 S
O957 C956 1.228 . S
O958 Zn945 1.969 1_655 S
O958 C956 1.267 1_655 S
O959 Zn945 1.965 . S
O959 C963 1.260 . S
O960 Zn944 1.969 1_545 S
O960 C963 1.258 . S
O961 Zn945 2.024 . S
O961 C948 1.058 1_455 S
C962 O951 1.260 . S
C962 O952 1.258 1_565 S
C963 O959 1.260 . S
C963 O960 1.258 . S
Zn964 O970 1.969 . S
Zn964 O971 1.965 . S
Zn964 O975 2.024 . S
Zn964 O980 1.969 . S
Zn965 O972 1.969 . S
Zn965 O978 1.969 . S
Zn965 O979 1.965 . S
Zn965 O981 2.024 . S
C966 O967 1.229 . S
C966 O975 1.058 . S
O967 C966 1.229 . S
C968 O969 1.229 . S
C968 O981 1.058 . S
O969 C968 1.229 . S
O970 Zn964 1.969 . S
O970 C973 1.267 . S
O971 Zn964 1.965 . S
O971 C982 1.260 . S
O972 Zn965 1.969 . S
O972 C982 1.258 . S
C973 O970 1.267 . S
C973 O974 1.228 . S
O974 C973 1.228 . S
O975 Zn964 2.024 . S
O975 C966 1.058 . S
C976 O977 1.228 . S
C976 O978 1.267 . S
O977 C976 1.228 . S
O978 Zn965 1.969 . S
O978 C976 1.267 . S
O979 Zn965 1.965 . S
O979 C983 1.260 . S
O980 Zn964 1.969 . S
O980 C983 1.258 . S
O981 Zn965 2.024 . S
O981 C968 1.058 . S
C982 O971 1.260 . S
C982 O972 1.258 . S
C983 O979 1.260 . S
C983 O980 1.258 . S
Zn984 O990 1.969 . S
Zn984 O991 1.965 1_545 S
Zn984 O995 2.024 1_556 S
Zn984 O1000 1.969 1_556 S
Zn985 O992 1.996 . S
Zn985 O998 1.982 . S
Zn985 O999 1.938 1_565 S
Zn985 O1001 2.015 1_565 S
C986 O987 1.229 . S
C986 O995 1.058 . S
O987 C986 1.229 . S
C988 O989 1.229 . S
C988 O1001 1.058 1_565 S
O989 C988 1.229 . S
O990 Zn984 1.969 . S
O990 C993 1.267 . S
O991 Zn984 1.965 1_565 S
O991 C1002 1.260 1_556 S
O992 Zn985 1.996 . S
O992 C1002 1.258 . S
C993 O990 1.267 . S
C993 O994 1.228 . S
O994 C993 1.228 . S
O995 Zn984 2.024 1_554 S
O995 C986 1.058 . S
C996 O997 1.228 . S
C996 O998 1.267 1_545 S
O997 C996 1.228 . S
O998 Zn985 1.982 . S
O998 C996 1.267 1_565 S
O999 Zn985 1.938 1_545 S
O999 C1003 1.260 . S
O1000 Zn984 1.969 1_554 S
O1000 C1003 1.258 . S
O1001 Zn985 2.015 1_545 S
O1001 C988 1.058 1_545 S
C1002 O991 1.260 1_554 S
C1002 O992 1.258 . S
C1003 O999 1.260 . S
C1003 O1000 1.258 . S
Zn1004 O1010 1.969 . S
Zn1004 O1011 1.965 . S
Zn1004 O1015 2.024 . S
Zn1004 O1020 1.969 . S
Zn1005 O1012 1.969 . S
Zn1005 O1018 1.969 . S
Zn1005 O1019 1.965 . S
Zn1005 O1021 2.024 . S
C1006 O1007 1.229 . S
C1006 O1015 1.058 . S
O1007 C1006 1.229 . S
C1008 O1009 1.229 . S
C1008 O1021 1.058 . S
O1009 C1008 1.229 . S
O1010 Zn1004 1.969 . S
O1010 C1013 1.267 . S
O1011 Zn1004 1.965 . S
O1011 C1022 1.260 . S
O1012 Zn1005 1.969 . S
O1012 C1022 1.258 . S
C1013 O1010 1.267 . S
C1013 O1014 1.228 . S
O1014 C1013 1.228 . S
O1015 Zn1004 2.024 . S
O1015 C1006 1.058 . S
C1016 O1017 1.228 . S
C1016 O1018 1.267 . S
O1017 C1016 1.228 . S
O1018 Zn1005 1.969 . S
O1018 C1016 1.267 . S
O1019 Zn1005 1.965 . S
O1019 C1023 1.260 . S
O1020 Zn1004 1.969 . S
O1020 C1023 1.258 . S
O1021 Zn1005 2.024 . S
O1021 C1008 1.058 . S
C1022 O1011 1.260 . S
C1022 O1012 1.258 . S
C1023 O1019 1.260 . S
C1023 O1020 1.258 . S
Zn1024 O1030 1.969 . S
Zn1024 O1031 1.965 . S
Zn1024 O1035 2.024 . S
Zn1024 O1040 1.969 . S
Zn1025 O1032 1.969 1_556 S
Zn1025 O1038 1.969 1_556 S
Zn1025 O1039 1.965 1_556 S
Zn1025 O1041 2.024 . S
C1026 O1027 1.229 . S
C1026 O1035 1.058 . S
O1027 C1026 1.229 . S
C1028 O1029 1.229 . S
C1028 O1041 1.058 . S
O1029 C1028 1.229 . S
O1030 Zn1024 1.969 . S
O1030 C1033 1.267 . S
O1031 Zn1024 1.965 . S
O1031 C1042 1.260 . S
O1032 Zn1025 1.969 1_554 S
O1032 C1042 1.258 . S
C1033 O1030 1.267 . S
C1033 O1034 1.228 . S
O1034 C1033 1.228 . S
O1035 Zn1024 2.024 . S
O1035 C1026 1.058 . S
C1036 O1037 1.228 . S
C1036 O1038 1.267 1_556 S
O1037 C1036 1.228 . S
O1038 Zn1025 1.969 1_554 S
O1038 C1036 1.267 1_554 S
O1039 Zn1025 1.965 1_554 S
O1039 C1043 1.260 . S
O1040 Zn1024 1.969 . S
O1040 C1043 1.258 . S
O1041 Zn1025 2.024 . S
O1041 C1028 1.058 . S
C1042 O1031 1.260 . S
C1042 O1032 1.258 . S
C1043 O1039 1.260 . S
C1043 O1040 1.258 . S
Zn1044 O1050 1.969 . S
Zn1044 O1051 1.965 . S
Zn1044 O1055 2.024 . S
Zn1044 O1060 1.969 . S
Zn1045 O1052 1.969 . S
Zn1045 O1058 1.969 . S
Zn1045 O1059 1.965 . S
Zn1045 O1061 2.024 . S
C1046 O1047 1.229 . S
C1046 O1055 1.058 . S
O1047 C1046 1.229 . S
C1048 O1049 1.229 . S
C1048 O1061 1.058 . S
O1049 C1048 1.229 . S
O1050 Zn1044 1.969 . S
O1050 C1053 1.267 . S
O1051 Zn1044 1.965 . S
O1051 C1062 1.260 . S
O1052 Zn1045 1.969 . S
O1052 C1062 1.258 . S
C1053 O1050 1.267 . S
C1053 O1054 1.228 . S
O1054 C1053 1.228 . S
O1055 Zn1044 2.024 . S
O1055 C1046 1.058 . S
C1056 O1057 1.228 . S
C1056 O1058 1.267 . S
O1057 C1056 1.228 . S
O1058 Zn1045 1.969 . S
O1058 C1056 1.267 . S
O1059 Zn1045 1.965 . S
O1059 C1063 1.260 . S
O1060 Zn1044 1.969 . S
O1060 C1063 1.258 . S
O1061 Zn1045 2.024 . S
O1061 C1048 1.058 . S
C1062 O1051 1.260 . S
C1062 O1052 1.258 . S
C1063 O1059 1.260 . S
C1063 O1060 1.258 . S
Zn1064 O1070 1.969 . S
Zn1064 O1071 1.965 . S
Zn1064 O1075 2.024 . S
Zn1064 O1080 1.969 . S
Zn1065 O1072 1.969 1_655 S
Zn1065 O1078 1.969 . S
Zn1065 O1079 1.965 1_655 S
Zn1065 O1081 2.024 . S
C1066 O1067 1.229 . S
C1066 O1075 1.058 . S
O1067 C1066 1.229 . S
C1068 O1069 1.229 . S
C1068 O1081 1.058 . S
O1069 C1068 1.229 . S
O1070 Zn1064 1.969 . S
O1070 C1073 1.267 . S
O1071 Zn1064 1.965 . S
O1071 C1082 1.260 . S
O1072 Zn1065 1.969 1_455 S
O1072 C1082 1.258 . S
C1073 O1070 1.267 . S
C1073 O1074 1.228 . S
O1074 C1073 1.228 . S
O1075 Zn1064 2.024 . S
O1075 C1066 1.058 . S
C1076 O1077 1.228 . S
C1076 O1078 1.267 . S
O1077 C1076 1.228 . S
O1078 Zn1065 1.969 . S
O1078 C1076 1.267 . S
O1079 Zn1065 1.965 1_455 S
O1079 C1083 1.260 . S
O1080 Zn1064 1.969 . S
O1080 C1083 1.258 . S
O1081 Zn1065 2.024 . S
O1081 C1068 1.058 . S
C1082 O1071 1.260 . S
C1082 O1072 1.258 . S
C1083 O1079 1.260 . S
C1083 O1080 1.258 . S
Zn1084 O1090 1.969 . S
Zn1084 O1091 1.965 . S
Zn1084 O1095 2.024 . S
Zn1084 O1100 1.969 . S
Zn1085 O1092 1.969 . S
Zn1085 O1098 1.969 . S
Zn1085 O1099 1.965 . S
Zn1085 O1101 2.024 . S
C1086 O1087 1.229 . S
C1086 O1095 1.058 . S
O1087 C1086 1.229 . S
C1088 O1089 1.229 . S
C1088 O1101 1.058 . S
O1089 C1088 1.229 . S
O1090 Zn1084 1.969 . S
O1090 C1093 1.267 . S
O1091 Zn1084 1.965 . S
O1091 C1102 1.260 . S
O1092 Zn1085 1.969 . S
O1092 C1102 1.258 . S
C1093 O1090 1.267 . S
C1093 O1094 1.228 . S
O1094 C1093 1.228 . S
O1095 Zn1084 2.024 . S
O1095 C1086 1.058 . S
C1096 O1097 1.228 . S
C1096 O1098 1.267 . S
O1097 C1096 1.228 . S
O1098 Zn1085 1.969 . S
O1098 C1096 1.267 . S
O1099 Zn1085 1.965 . S
O1099 C1103 1.260 . S
O1100 Zn1084 1.969 . S
O1100 C1103 1.258 . S
O1101 Zn1085 2.024 . S
O1101 C1088 1.058 . S
C1102 O1091 1.260 . S
C1102 O1092 1.258 . S
C1103 O1099 1.260 . S
C1103 O1100 1.258 . S
Zn1104 O1110 1.969 . S
Zn1104 O1111 1.965 . S
Zn1104 O1115 2.024 . S
Zn1104 O1120 1.969 . S
Zn1105 O1112 1.969 . S
Zn1105 O1118 1.969 . S
Zn1105 O1119 1.965 . S
Zn1105 O1121 2.024 . S
C1106 O1107 1.229 . S
C1106 O1115 1.058 . S
O1107 C1106 1.229 . S
C1108 O1109 1.229 . S
C1108 O1121 1.058 . S
O1109 C1108 1.229 . S
O1110 Zn1104 1.969 . S
O1110 C1113 1.267 . S
O1111 Zn1104 1.965 . S
O1111 C1122 1.260 . S
O1112 Zn1105 1.969 . S
O1112 C1122 1.258 . S
C1113 O1110 1.267 . S
C1113 O1114 1.228 . S
O1114 C1113 1.228 . S
O1115 Zn1104 2.024 . S
O1115 C1106 1.058 . S
C1116 O1117 1.228 . S
C1116 O1118 1.267 . S
O1117 C1116 1.228 . S
O1118 Zn1105 1.969 . S
O1118 C1116 1.267 . S
O1119 Zn1105 1.965 . S
O1119 C1123 1.260 . S
O1120 Zn1104 1.969 . S
O1120 C1123 1.258 . S
O1121 Zn1105 2.024 . S
O1121 C1108 1.058 . S
C1122 O1111 1.260 . S
C1122 O1112 1.258 . S
C1123 O1119 1.260 . S
C1123 O1120 1.258 . S
Zn1124 O1130 1.969 . S
Zn1124 O1131 1.965 . S
Zn1124 O1135 2.024 . S
Zn1124 O1140 1.969 . S
Zn1125 O1132 1.969 . S
Zn1125 O1138 1.969 . S
Zn1125 O1139 1.965 . S
Zn1125 O1141 2.024 . S
C1126 O1127 1.229 . S
C1126 O1135 1.058 . S
O1127 C1126 1.229 . S
C1128 O1129 1.229 . S
C1128 O1141 1.058 . S
O1129 C1128 1.229 . S
O1130 Zn1124 1.969 . S
O1130 C1133 1.267 . S
O1131 Zn1124 1.965 . S
O1131 C1142 1.260 . S
O1132 Zn1125 1.969 . S
O1132 C1142 1.258 . S
C1133 O1130 1.267 . S
C1133 O1134 1.228 . S
O1134 C1133 1.228 . S
O1135 Zn1124 2.024 . S
O1135 C1126 1.058 . S
C1136 O1137 1.228 . S
C1136 O1138 1.267 . S
O1137 C1136 1.228 . S
O1138 Zn1125 1.969 . S
O1138 C1136 1.267 . S
O1139 Zn1125 1.965 . S
O1139 C1143 1.260 . S
O1140 Zn1124 1.969 . S
O1140 C1143 1.258 . S
O1141 Zn1125 2.024 . S
O1141 C1128 1.058 . S
C1142 O1131 1.260 . S
C1142 O1132 1.258 . S
C1143 O1139 1.260 . S
C1143 O1140 1.258 . S
Zn1144 O1150 1.969 . S
Zn1144 O1151 1.965 . S
Zn1144 O1155 2.024 . S
Zn1144 O1160 1.969 . S
Zn1145 O1152 1.969 . S
Zn1145 O1158 1.969 . S
Zn1145 O1159 1.965 . S
Zn1145 O1161 2.024 . S
C1146 O1147 1.229 . S
C1146 O1155 1.058 . S
O1147 C1146 1.229 . S
C1148 O1149 1.229 . S
C1148 O1161 1.058 . S
O1149 C1148 1.229 . S
O1150 Zn1144 1.969 . S
O1150 C1153 1.267 . S
O1151 Zn1144 1.965 . S
O1151 C1162 1.260 . S
O1152 Zn1145 1.969 . S
O1152 C1162 1.258 . S
C1153 O1150 1.267 . S
C1153 O1154 1.228 . S
O1154 C1153 1.228 . S
O1155 Zn1144 2.024 . S
O1155 C1146 1.058 . S
C1156 O1157 1.228 . S
C1156 O1158 1.267 . S
O1157 C1156 1.228 . S
O1158 Zn1145 1.969 . S
O1158 C1156 1.267 . S
O1159 Zn1145 1.965 . S
O1159 C1163 1.260 . S
O1160 Zn1144 1.969 . S
O1160 C1163 1.258 . S
O1161 Zn1145 2.024 . S
O1161 C1148 1.058 . S
C1162 O1151 1.260 . S
C1162 O1152 1.258 . S
C1163 O1159 1.260 . S
C1163 O1160 1.258 . S
Zn1164 O1170 1.969 . S
Zn1164 O1171 1.965 . S
Zn1164 O1175 2.024 1_655 S
Zn1164 O1180 1.969 1_655 S
Zn1165 O1172 1.969 1_554 S
Zn1165 O1178 1.974 . S
Zn1165 O1179 1.965 . S
Zn1165 O1181 2.024 . S
C1166 O1167 1.229 . S
C1166 O1175 1.058 . S
O1167 C1166 1.229 . S
C1168 O1169 1.229 . S
C1168 O1181 1.058 1_556 S
O1169 C1168 1.229 . S
O1170 Zn1164 1.969 . S
O1170 C1173 1.267 . S
O1171 Zn1164 1.965 . S
O1171 C1182 1.260 1_654 S
O1172 Zn1165 1.969 1_556 S
O1172 C1182 1.258 . S
C1173 O1170 1.267 . S
C1173 O1174 1.228 . S
O1174 C1173 1.228 . S
O1175 Zn1164 2.024 1_455 S
O1175 C1166 1.058 . S
C1176 O1177 1.228 . S
C1176 O1178 1.275 . S
O1177 C1176 1.228 . S
O1178 Zn1165 1.974 . S
O1178 C1176 1.275 . S
O1179 Zn1165 1.965 . S
O1179 C1183 1.260 . S
O1180 Zn1164 1.969 1_455 S
O1180 C1183 1.258 . S
O1181 Zn1165 2.024 . S
O1181 C1168 1.058 1_554 S
C1182 O1171 1.260 1_456 S
C1182 O1172 1.258 . S
C1183 O1179 1.260 . S
C1183 O1180 1.258 . S
C1184 C1185 1.391 . S
C1184 C1186 1.394 . S
C1184 H1200 0.931 . S
C1185 C1184 1.391 . S
C1185 C1189 1.376 1_655 S
C1186 C1184 1.394 . S
C1186 C1187 1.369 1_655 S
C1186 C1190 1.531 . S
C1187 C1186 1.369 1_455 S
C1187 C1188 1.410 . S
C1187 C1195 1.503 . S
C1188 C1187 1.410 . S
C1188 C1189 1.392 . S
C1188 C1191 1.511 . S
C1189 C1185 1.376 1_455 S
C1189 C1188 1.392 . S
C1189 H1201 0.929 . S
C1190 C1186 1.531 . S
C1190 H1202 0.960 . S
C1190 H1203 0.962 . S
C1190 H1204 0.960 . S
C1191 C1188 1.511 . S
C1191 H1205 0.961 . S
C1191 H1206 0.961 . S
C1191 H1207 0.961 . S
C1192 C1193 1.370 1_554 S
C1192 C1194 1.363 1_554 S
C1192 H1208 0.931 . S
C1193 C1192 1.370 1_556 S
C1193 C1197 1.408 . S
C1194 C1192 1.363 1_556 S
C1194 C1195 1.370 . S
C1194 C1198 1.524 1_556 S
C1195 C1187 1.503 . S
C1195 C1194 1.370 . S
C1195 C1196 1.403 . S
C1196 C1195 1.403 . S
C1196 C1197 1.404 . S
C1196 C1199 1.539 . S
C1197 C1193 1.408 . S
C1197 C1196 1.404 . S
C1197 H1209 0.930 . S
C1198 C1194 1.524 1_554 S
C1198 H1210 0.954 1_454 S
C1198 H1211 0.961 1_554 S
C1198 H1212 0.961 . S
C1199 C1196 1.539 . S
C1199 H1213 0.958 1_455 S
C1199 H1214 0.961 . S
C1199 H1215 0.960 . S
H1200 C1184 0.931 . S
H1201 C1189 0.929 . S
H1202 C1190 0.960 . S
H1203 C1190 0.962 . S
H1204 C1190 0.960 . S
H1205 C1191 0.961 . S
H1206 C1191 0.961 . S
H1207 C1191 0.961 . S
H1208 C1192 0.931 . S
H1209 C1197 0.930 . S
H1210 C1198 0.954 1_656 S
H1211 C1198 0.961 1_556 S
H1212 C1198 0.961 . S
H1213 C1199 0.958 1_655 S
H1214 C1199 0.961 . S
H1215 C1199 0.960 . S
C1216 C1217 1.391 . S
C1216 C1218 1.394 . S
C1216 H1232 0.931 . S
C1217 C1216 1.391 . S
C1217 C1221 1.376 . S
C1218 C1216 1.394 . S
C1218 C1219 1.369 . S
C1218 C1222 1.531 . S
C1219 C1218 1.369 . S
C1219 C1220 1.410 . S
C1219 C1227 1.503 . S
C1220 C1219 1.410 . S
C1220 C1221 1.392 . S
C1220 C1223 1.511 . S
C1221 C1217 1.376 . S
C1221 C1220 1.392 . S
C1221 H1233 0.929 . S
C1222 C1218 1.531 . S
C1222 H1234 0.960 . S
C1222 H1235 0.962 . S
C1222 H1236 0.960 . S
C1223 C1220 1.511 . S
C1223 H1237 0.961 . S
C1223 H1238 0.961 . S
C1223 H1239 0.961 . S
C1224 C1225 1.370 . S
C1224 C1226 1.363 . S
C1224 H1240 0.931 . S
C1225 C1224 1.370 . S
C1225 C1229 1.408 . S
C1226 C1224 1.363 . S
C1226 C1227 1.370 . S
C1226 C1230 1.524 . S
C1227 C1219 1.503 . S
C1227 C1226 1.370 . S
C1227 C1228 1.403 . S
C1228 C1227 1.403 . S
C1228 C1229 1.404 . S
C1228 C1231 1.539 . S
C1229 C1225 1.408 . S
C1229 C1228 1.404 . S
C1229 H1241 0.930 . S
C1230 C1226 1.524 . S
C1230 H1242 0.956 . S
C1230 H1243 0.961 . S
C1230 H1244 0.961 . S
C1231 C1228 1.539 . S
C1231 H1245 0.958 . S
C1231 H1246 0.961 . S
C1231 H1247 0.960 . S
H1232 C1216 0.931 . S
H1233 C1221 0.929 . S
H1234 C1222 0.960 . S
H1235 C1222 0.962 . S
H1236 C1222 0.960 . S
H1237 C1223 0.961 . S
H1238 C1223 0.961 . S
H1239 C1223 0.961 . S
H1240 C1224 0.931 . S
H1241 C1229 0.930 . S
H1242 C1230 0.956 . S
H1243 C1230 0.961 . S
H1244 C1230 0.961 . S
H1245 C1231 0.958 . S
H1246 C1231 0.961 . S
H1247 C1231 0.960 . S
C1248 C1249 1.391 . S
C1248 C1250 1.394 . S
C1248 H1264 0.931 . S
C1249 C1248 1.391 . S
C1249 C1253 1.376 . S
C1250 C1248 1.394 . S
C1250 C1251 1.369 . S
C1250 C1254 1.531 . S
C1251 C1250 1.369 . S
C1251 C1252 1.410 . S
C1251 C1259 1.503 . S
C1252 C1251 1.410 . S
C1252 C1253 1.392 . S
C1252 C1255 1.511 . S
C1253 C1249 1.376 . S
C1253 C1252 1.392 . S
C1253 H1265 0.929 . S
C1254 C1250 1.531 . S
C1254 H1266 0.960 . S
C1254 H1267 0.962 . S
C1254 H1268 0.960 . S
C1255 C1252 1.511 . S
C1255 H1269 0.961 . S
C1255 H1270 0.961 . S
C1255 H1271 0.961 . S
C1256 C1257 1.370 . S
C1256 C1258 1.363 . S
C1256 H1272 0.931 . S
C1257 C1256 1.370 . S
C1257 C1261 1.408 . S
C1258 C1256 1.363 . S
C1258 C1259 1.370 . S
C1258 C1262 1.524 . S
C1259 C1251 1.503 . S
C1259 C1258 1.370 . S
C1259 C1260 1.403 . S
C1260 C1259 1.403 . S
C1260 C1261 1.404 . S
C1260 C1263 1.539 . S
C1261 C1257 1.408 . S
C1261 C1260 1.404 . S
C1261 H1273 0.930 . S
C1262 C1258 1.524 . S
C1262 H1274 0.956 . S
C1262 H1275 0.961 . S
C1262 H1276 0.961 . S
C1263 C1260 1.539 . S
C1263 H1277 0.958 . S
C1263 H1278 0.961 . S
C1263 H1279 0.960 . S
H1264 C1248 0.931 . S
H1265 C1253 0.929 . S
H1266 C1254 0.960 . S
H1267 C1254 0.962 . S
H1268 C1254 0.960 . S
H1269 C1255 0.961 . S
H1270 C1255 0.961 . S
H1271 C1255 0.961 . S
H1272 C1256 0.931 . S
H1273 C1261 0.930 . S
H1274 C1262 0.956 . S
H1275 C1262 0.961 . S
H1276 C1262 0.961 . S
H1277 C1263 0.958 . S
H1278 C1263 0.961 . S
H1279 C1263 0.960 . S
C1280 C1281 1.391 . S
C1280 C1282 1.394 . S
C1280 H1296 0.931 . S
C1281 C1280 1.391 . S
C1281 C1285 1.376 . S
C1282 C1280 1.394 . S
C1282 C1283 1.369 . S
C1282 C1286 1.531 . S
C1283 C1282 1.369 . S
C1283 C1284 1.410 . S
C1283 C1291 1.503 . S
C1284 C1283 1.410 . S
C1284 C1285 1.392 . S
C1284 C1287 1.511 . S
C1285 C1281 1.376 . S
C1285 C1284 1.392 . S
C1285 H1297 0.929 . S
C1286 C1282 1.531 . S
C1286 H1298 0.960 . S
C1286 H1299 0.962 . S
C1286 H1300 0.960 . S
C1287 C1284 1.511 . S
C1287 H1301 0.961 . S
C1287 H1302 0.961 . S
C1287 H1303 0.961 . S
C1288 C1289 1.370 . S
C1288 C1290 1.363 . S
C1288 H1304 0.931 . S
C1289 C1288 1.370 . S
C1289 C1293 1.408 . S
C1290 C1288 1.363 . S
C1290 C1291 1.370 . S
C1290 C1294 1.524 . S
C1291 C1283 1.503 . S
C1291 C1290 1.370 . S
C1291 C1292 1.403 . S
C1292 C1291 1.403 . S
C1292 C1293 1.404 . S
C1292 C1295 1.539 . S
C1293 C1289 1.408 . S
C1293 C1292 1.404 . S
C1293 H1305 0.930 . S
C1294 C1290 1.524 . S
C1294 H1306 0.956 . S
C1294 H1307 0.961 . S
C1294 H1308 0.961 . S
C1295 C1292 1.539 . S
C1295 H1309 0.958 . S
C1295 H1310 0.961 . S
C1295 H1311 0.960 . S
H1296 C1280 0.931 . S
H1297 C1285 0.929 . S
H1298 C1286 0.960 . S
H1299 C1286 0.962 . S
H1300 C1286 0.960 . S
H1301 C1287 0.961 . S
H1302 C1287 0.961 . S
H1303 C1287 0.961 . S
H1304 C1288 0.931 . S
H1305 C1293 0.930 . S
H1306 C1294 0.956 . S
H1307 C1294 0.961 . S
H1308 C1294 0.961 . S
H1309 C1295 0.958 . S
H1310 C1295 0.961 . S
H1311 C1295 0.960 . S
C1312 C1313 1.391 . S
C1312 C1314 1.394 . S
C1312 H1328 0.931 . S
C1313 C1312 1.391 . S
C1313 C1317 1.376 1_455 S
C1314 C1312 1.394 . S
C1314 C1315 1.369 . S
C1314 C1318 1.531 . S
C1315 C1314 1.369 . S
C1315 C1316 1.410 1_455 S
C1315 C1323 1.503 . S
C1316 C1315 1.410 1_655 S
C1316 C1317 1.392 . S
C1316 C1319 1.511 . S
C1317 C1313 1.376 1_655 S
C1317 C1316 1.392 . S
C1317 H1329 0.929 . S
C1318 C1314 1.531 . S
C1318 H1330 0.960 . S
C1318 H1331 0.962 . S
C1318 H1332 0.960 . S
C1319 C1316 1.511 . S
C1319 H1333 0.961 . S
C1319 H1334 0.961 . S
C1319 H1335 0.961 . S
C1320 C1321 1.370 . S
C1320 C1322 1.363 . S
C1320 H1336 0.931 . S
C1321 C1320 1.370 . S
C1321 C1325 1.408 . S
C1322 C1320 1.363 . S
C1322 C1323 1.370 . S
C1322 C1326 1.524 . S
C1323 C1315 1.503 . S
C1323 C1322 1.370 . S
C1323 C1324 1.403 . S
C1324 C1323 1.403 . S
C1324 C1325 1.404 . S
C1324 C1327 1.539 1_455 S
C1325 C1321 1.408 . S
C1325 C1324 1.404 . S
C1325 H1337 0.930 1_455 S
C1326 C1322 1.524 . S
C1326 H1338 0.956 . S
C1326 H1339 0.961 . S
C1326 H1340 0.961 . S
C1327 C1324 1.539 1_655 S
C1327 H1341 0.958 . S
C1327 H1342 0.961 . S
C1327 H1343 0.960 . S
H1328 C1312 0.931 . S
H1329 C1317 0.929 . S
H1330 C1318 0.960 . S
H1331 C1318 0.962 . S
H1332 C1318 0.960 . S
H1333 C1319 0.961 . S
H1334 C1319 0.961 . S
H1335 C1319 0.961 . S
H1336 C1320 0.931 . S
H1337 C1325 0.930 1_655 S
H1338 C1326 0.956 . S
H1339 C1326 0.961 . S
H1340 C1326 0.961 . S
H1341 C1327 0.958 . S
H1342 C1327 0.961 . S
H1343 C1327 0.960 . S
C1344 C1345 1.391 . S
C1344 C1346 1.394 . S
C1344 H1360 0.931 . S
C1345 C1344 1.391 . S
C1345 C1349 1.376 . S
C1346 C1344 1.394 . S
C1346 C1347 1.369 . S
C1346 C1350 1.531 . S
C1347 C1346 1.369 . S
C1347 C1348 1.410 . S
C1347 C1355 1.503 . S
C1348 C1347 1.410 . S
C1348 C1349 1.392 . S
C1348 C1351 1.511 . S
C1349 C1345 1.376 . S
C1349 C1348 1.392 . S
C1349 H1361 0.929 . S
C1350 C1346 1.531 . S
C1350 H1362 0.960 . S
C1350 H1363 0.962 . S
C1350 H1364 0.960 . S
C1351 C1348 1.511 . S
C1351 H1365 0.961 . S
C1351 H1366 0.961 . S
C1351 H1367 0.961 . S
C1352 C1353 1.370 . S
C1352 C1354 1.363 . S
C1352 H1368 0.931 . S
C1353 C1352 1.370 . S
C1353 C1357 1.408 . S
C1354 C1352 1.363 . S
C1354 C1355 1.370 . S
C1354 C1358 1.524 . S
C1355 C1347 1.503 . S
C1355 C1354 1.370 . S
C1355 C1356 1.403 . S
C1356 C1355 1.403 . S
C1356 C1357 1.404 . S
C1356 C1359 1.539 . S
C1357 C1353 1.408 . S
C1357 C1356 1.404 . S
C1357 H1369 0.930 . S
C1358 C1354 1.524 . S
C1358 H1370 0.956 . S
C1358 H1371 0.961 . S
C1358 H1372 0.961 . S
C1359 C1356 1.539 . S
C1359 H1373 0.958 . S
C1359 H1374 0.961 . S
C1359 H1375 0.960 . S
H1360 C1344 0.931 . S
H1361 C1349 0.929 . S
H1362 C1350 0.960 . S
H1363 C1350 0.962 . S
H1364 C1350 0.960 . S
H1365 C1351 0.961 . S
H1366 C1351 0.961 . S
H1367 C1351 0.961 . S
H1368 C1352 0.931 . S
H1369 C1357 0.930 . S
H1370 C1358 0.956 . S
H1371 C1358 0.961 . S
H1372 C1358 0.961 . S
H1373 C1359 0.958 . S
H1374 C1359 0.961 . S
H1375 C1359 0.960 . S
C1376 C1377 1.391 . S
C1376 C1378 1.394 . S
C1376 H1392 0.931 . S
C1377 C1376 1.391 . S
C1377 C1381 1.376 . S
C1378 C1376 1.394 . S
C1378 C1379 1.369 . S
C1378 C1382 1.531 . S
C1379 C1378 1.369 . S
C1379 C1380 1.410 . S
C1379 C1387 1.503 . S
C1380 C1379 1.410 . S
C1380 C1381 1.392 . S
C1380 C1383 1.511 . S
C1381 C1377 1.376 . S
C1381 C1380 1.392 . S
C1381 H1393 0.929 . S
C1382 C1378 1.531 . S
C1382 H1394 0.960 . S
C1382 H1395 0.962 . S
C1382 H1396 0.960 . S
C1383 C1380 1.511 . S
C1383 H1397 0.961 . S
C1383 H1398 0.961 . S
C1383 H1399 0.961 . S
C1384 C1385 1.370 . S
C1384 C1386 1.363 . S
C1384 H1400 0.931 . S
C1385 C1384 1.370 . S
C1385 C1389 1.408 . S
C1386 C1384 1.363 . S
C1386 C1387 1.370 . S
C1386 C1390 1.524 . S
C1387 C1379 1.503 . S
C1387 C1386 1.370 . S
C1387 C1388 1.403 . S
C1388 C1387 1.403 . S
C1388 C1389 1.404 . S
C1388 C1391 1.539 . S
C1389 C1385 1.408 . S
C1389 C1388 1.404 . S
C1389 H1401 0.930 . S
C1390 C1386 1.524 . S
C1390 H1402 0.956 . S
C1390 H1403 0.961 . S
C1390 H1404 0.961 . S
C1391 C1388 1.539 . S
C1391 H1405 0.958 . S
C1391 H1406 0.961 . S
C1391 H1407 0.960 . S
H1392 C1376 0.931 . S
H1393 C1381 0.929 . S
H1394 C1382 0.960 . S
H1395 C1382 0.962 . S
H1396 C1382 0.960 . S
H1397 C1383 0.961 . S
H1398 C1383 0.961 . S
H1399 C1383 0.961 . S
H1400 C1384 0.931 . S
H1401 C1389 0.930 . S
H1402 C1390 0.956 . S
H1403 C1390 0.961 . S
H1404 C1390 0.961 . S
H1405 C1391 0.958 . S
H1406 C1391 0.961 . S
H1407 C1391 0.960 . S
C1408 C1409 1.391 . S
C1408 C1410 1.394 . S
C1408 H1424 0.931 . S
C1409 C1408 1.391 . S
C1409 C1413 1.376 . S
C1410 C1408 1.394 . S
C1410 C1411 1.369 . S
C1410 C1414 1.531 . S
C1411 C1410 1.369 . S
C1411 C1412 1.410 . S
C1411 C1419 1.503 . S
C1412 C1411 1.410 . S
C1412 C1413 1.392 . S
C1412 C1415 1.511 . S
C1413 C1409 1.376 . S
C1413 C1412 1.392 . S
C1413 H1425 0.929 . S
C1414 C1410 1.531 . S
C1414 H1426 0.960 . S
C1414 H1427 0.962 . S
C1414 H1428 0.960 . S
C1415 C1412 1.511 . S
C1415 H1429 0.961 . S
C1415 H1430 0.961 . S
C1415 H1431 0.961 . S
C1416 C1417 1.370 . S
C1416 C1418 1.363 . S
C1416 H1432 0.931 . S
C1417 C1416 1.370 . S
C1417 C1421 1.408 . S
C1418 C1416 1.363 . S
C1418 C1419 1.370 . S
C1418 C1422 1.524 . S
C1419 C1411 1.503 . S
C1419 C1418 1.370 . S
C1419 C1420 1.403 . S
C1420 C1419 1.403 . S
C1420 C1421 1.404 . S
C1420 C1423 1.539 . S
C1421 C1417 1.408 . S
C1421 C1420 1.404 . S
C1421 H1433 0.930 . S
C1422 C1418 1.524 . S
C1422 H1434 0.956 . S
C1422 H1435 0.961 . S
C1422 H1436 0.961 . S
C1423 C1420 1.539 . S
C1423 H1437 0.958 . S
C1423 H1438 0.961 . S
C1423 H1439 0.960 . S
H1424 C1408 0.931 . S
H1425 C1413 0.929 . S
H1426 C1414 0.960 . S
H1427 C1414 0.962 . S
H1428 C1414 0.960 . S
H1429 C1415 0.961 . S
H1430 C1415 0.961 . S
H1431 C1415 0.961 . S
H1432 C1416 0.931 . S
H1433 C1421 0.930 . S
H1434 C1422 0.956 . S
H1435 C1422 0.961 . S
H1436 C1422 0.961 . S
H1437 C1423 0.958 . S
H1438 C1423 0.961 . S
H1439 C1423 0.960 . S
C1440 C1441 1.391 . S
C1440 C1442 1.394 . S
C1440 H1456 0.931 . S
C1441 C1440 1.391 . S
C1441 C1445 1.376 1_545 S
C1442 C1440 1.394 . S
C1442 C1443 1.369 . S
C1442 C1446 1.531 . S
C1443 C1442 1.369 . S
C1443 C1444 1.410 1_545 S
C1443 C1451 1.503 . S
C1444 C1443 1.410 1_565 S
C1444 C1445 1.392 . S
C1444 C1447 1.511 . S
C1445 C1441 1.376 1_565 S
C1445 C1444 1.392 . S
C1445 H1457 0.929 . S
C1446 C1442 1.531 . S
C1446 H1458 0.980 . S
C1446 H1459 0.962 . S
C1446 H1460 0.960 . S
C1447 C1444 1.511 . S
C1447 H1461 0.961 . S
C1447 H1462 0.961 . S
C1447 H1463 0.961 . S
C1448 C1449 1.370 . S
C1448 C1450 1.363 . S
C1448 H1464 0.931 . S
C1449 C1448 1.370 . S
C1449 C1453 1.408 1_545 S
C1450 C1448 1.363 . S
C1450 C1451 1.370 . S
C1450 C1454 1.524 . S
C1451 C1443 1.503 . S
C1451 C1450 1.370 . S
C1451 C1452 1.403 1_545 S
C1452 C1451 1.403 1_565 S
C1452 C1453 1.404 . S
C1452 C1455 1.539 . S
C1453 C1449 1.408 1_565 S
C1453 C1452 1.404 . S
C1453 H1465 0.930 1_655 S
C1454 C1450 1.524 . S
C1454 H1466 0.956 . S
C1454 H1467 0.961 . S
C1454 H1468 0.961 . S
C1455 C1452 1.539 . S
C1455 H1469 0.958 . S
C1455 H1470 0.961 . S
C1455 H1471 0.960 . S
H1456 C1440 0.931 . S
H1457 C1445 0.929 . S
H1458 C1446 0.980 . S
H1459 C1446 0.962 . S
H1460 C1446 0.960 . S
H1461 C1447 0.961 . S
H1462 C1447 0.961 . S
H1463 C1447 0.961 . S
H1464 C1448 0.931 . S
H1465 C1453 0.930 1_455 S
H1466 C1454 0.956 . S
H1467 C1454 0.961 . S
H1468 C1454 0.961 . S
H1469 C1455 0.958 . S
H1470 C1455 0.961 . S
H1471 C1455 0.960 . S
C1472 C1473 1.391 . S
C1472 C1474 1.394 . S
C1472 H1488 0.931 . S
C1473 C1472 1.391 . S
C1473 C1477 1.376 . S
C1474 C1472 1.394 . S
C1474 C1475 1.369 . S
C1474 C1478 1.531 . S
C1475 C1474 1.369 . S
C1475 C1476 1.410 . S
C1475 C1483 1.503 . S
C1476 C1475 1.410 . S
C1476 C1477 1.392 . S
C1476 C1479 1.511 . S
C1477 C1473 1.376 . S
C1477 C1476 1.392 . S
C1477 H1489 0.929 . S
C1478 C1474 1.531 . S
C1478 H1490 0.960 . S
C1478 H1491 0.962 . S
C1478 H1492 0.960 . S
C1479 C1476 1.511 . S
C1479 H1493 0.961 . S
C1479 H1494 0.961 . S
C1479 H1495 0.961 . S
C1480 C1481 1.370 . S
C1480 C1482 1.363 . S
C1480 H1496 0.931 . S
C1481 C1480 1.370 . S
C1481 C1485 1.408 . S
C1482 C1480 1.363 . S
C1482 C1483 1.370 . S
C1482 C1486 1.524 . S
C1483 C1475 1.503 . S
C1483 C1482 1.370 . S
C1483 C1484 1.403 . S
C1484 C1483 1.403 . S
C1484 C1485 1.404 . S
C1484 C1487 1.539 . S
C1485 C1481 1.408 . S
C1485 C1484 1.404 . S
C1485 H1497 0.930 . S
C1486 C1482 1.524 . S
C1486 H1498 0.956 . S
C1486 H1499 0.961 . S
C1486 H1500 0.961 . S
C1487 C1484 1.539 . S
C1487 H1501 0.958 . S
C1487 H1502 0.961 . S
C1487 H1503 0.960 . S
H1488 C1472 0.931 . S
H1489 C1477 0.929 . S
H1490 C1478 0.960 . S
H1491 C1478 0.962 . S
H1492 C1478 0.960 . S
H1493 C1479 0.961 . S
H1494 C1479 0.961 . S
H1495 C1479 0.961 . S
H1496 C1480 0.931 . S
H1497 C1485 0.930 . S
H1498 C1486 0.956 . S
H1499 C1486 0.961 . S
H1500 C1486 0.961 . S
H1501 C1487 0.958 . S
H1502 C1487 0.961 . S
H1503 C1487 0.960 . S
C1504 C1505 1.391 . S
C1504 C1506 1.394 . S
C1504 H1520 0.931 . S
C1505 C1504 1.391 . S
C1505 C1509 1.376 1_565 S
C1506 C1504 1.394 . S
C1506 C1507 1.369 . S
C1506 C1510 1.531 . S
C1507 C1506 1.369 . S
C1507 C1508 1.410 1_565 S
C1507 C1515 1.503 . S
C1508 C1507 1.410 1_545 S
C1508 C1509 1.392 . S
C1508 C1511 1.511 . S
C1509 C1505 1.376 1_545 S
C1509 C1508 1.392 . S
C1509 H1521 0.929 . S
C1510 C1506 1.531 . S
C1510 H1522 0.960 . S
C1510 H1523 0.962 . S
C1510 H1524 0.960 . S
C1511 C1508 1.511 . S
C1511 H1525 0.961 . S
C1511 H1526 0.961 . S
C1511 H1527 0.961 . S
C1512 C1513 1.370 . S
C1512 C1514 1.363 . S
C1512 H1528 0.931 . S
C1513 C1512 1.370 . S
C1513 C1517 1.408 1_545 S
C1514 C1512 1.363 . S
C1514 C1515 1.370 1_545 S
C1514 C1518 1.524 . S
C1515 C1507 1.503 . S
C1515 C1514 1.370 1_565 S
C1515 C1516 1.403 . S
C1516 C1515 1.403 . S
C1516 C1517 1.404 . S
C1516 C1519 1.539 . S
C1517 C1513 1.408 1_565 S
C1517 C1516 1.404 . S
C1517 H1529 0.930 . S
C1518 C1514 1.524 . S
C1518 H1530 0.956 . S
C1518 H1531 0.961 . S
C1518 H1532 0.961 . S
C1519 C1516 1.539 . S
C1519 H1533 0.958 . S
C1519 H1534 0.961 . S
C1519 H1535 0.960 . S
H1520 C1504 0.931 . S
H1521 C1509 0.929 . S
H1522 C1510 0.960 . S
H1523 C1510 0.962 . S
H1524 C1510 0.960 . S
H1525 C1511 0.961 . S
H1526 C1511 0.961 . S
H1527 C1511 0.961 . S
H1528 C1512 0.931 . S
H1529 C1517 0.930 . S
H1530 C1518 0.956 . S
H1531 C1518 0.961 . S
H1532 C1518 0.961 . S
H1533 C1519 0.958 . S
H1534 C1519 0.961 . S
H1535 C1519 0.960 . S
C1536 C1537 1.391 . S
C1536 C1538 1.394 . S
C1536 H1552 0.931 . S
C1537 C1536 1.391 . S
C1537 C1541 1.376 . S
C1538 C1536 1.394 . S
C1538 C1539 1.369 . S
C1538 C1542 1.531 . S
C1539 C1538 1.369 . S
C1539 C1540 1.410 . S
C1539 C1547 1.503 . S
C1540 C1539 1.410 . S
C1540 C1541 1.392 . S
C1540 C1543 1.511 . S
C1541 C1537 1.376 . S
C1541 C1540 1.392 . S
C1541 H1553 0.929 . S
C1542 C1538 1.531 . S
C1542 H1554 0.960 . S
C1542 H1555 0.962 . S
C1542 H1556 0.960 . S
C1543 C1540 1.511 . S
C1543 H1557 0.961 . S
C1543 H1558 0.961 . S
C1543 H1559 0.961 . S
C1544 C1545 1.370 . S
C1544 C1546 1.363 . S
C1544 H1560 0.931 . S
C1545 C1544 1.370 . S
C1545 C1549 1.408 . S
C1546 C1544 1.363 . S
C1546 C1547 1.370 . S
C1546 C1550 1.524 . S
C1547 C1539 1.503 . S
C1547 C1546 1.370 . S
C1547 C1548 1.403 . S
C1548 C1547 1.403 . S
C1548 C1549 1.404 . S
C1548 C1551 1.539 . S
C1549 C1545 1.408 . S
C1549 C1548 1.404 . S
C1549 H1561 0.930 . S
C1550 C1546 1.524 . S
C1550 H1562 0.956 . S
C1550 H1563 0.961 . S
C1550 H1564 0.961 . S
C1551 C1548 1.539 . S
C1551 H1565 0.958 . S
C1551 H1566 0.961 . S
C1551 H1567 0.960 . S
H1552 C1536 0.931 . S
H1553 C1541 0.929 . S
H1554 C1542 0.960 . S
H1555 C1542 0.962 . S
H1556 C1542 0.960 . S
H1557 C1543 0.961 . S
H1558 C1543 0.961 . S
H1559 C1543 0.961 . S
H1560 C1544 0.931 . S
H1561 C1549 0.930 . S
H1562 C1550 0.956 . S
H1563 C1550 0.961 . S
H1564 C1550 0.961 . S
H1565 C1551 0.958 . S
H1566 C1551 0.961 . S
H1567 C1551 0.960 . S
C1568 C1569 1.391 1_565 S
C1568 C1570 1.394 . S
C1568 H1584 0.931 . S
C1569 C1568 1.391 1_545 S
C1569 C1573 1.376 . S
C1570 C1568 1.394 . S
C1570 C1571 1.369 1_565 S
C1570 C1574 1.531 . S
C1571 C1570 1.369 1_545 S
C1571 C1572 1.410 . S
C1571 C1579 1.503 . S
C1572 C1571 1.410 . S
C1572 C1573 1.392 . S
C1572 C1575 1.511 . S
C1573 C1569 1.376 . S
C1573 C1572 1.392 . S
C1573 H1585 0.929 . S
C1574 C1570 1.531 . S
C1574 H1586 0.960 . S
C1574 H1587 0.962 . S
C1574 H1588 0.960 . S
C1575 C1572 1.511 . S
C1575 H1589 0.961 . S
C1575 H1590 0.961 . S
C1575 H1591 0.956 1_655 S
C1576 C1577 1.370 . S
C1576 C1578 1.363 . S
C1576 H1592 0.931 . S
C1577 C1576 1.370 . S
C1577 C1581 1.408 1_545 S
C1578 C1576 1.363 . S
C1578 C1579 1.370 . S
C1578 C1582 1.524 . S
C1579 C1571 1.503 . S
C1579 C1578 1.370 . S
C1579 C1580 1.403 1_545 S
C1580 C1579 1.403 1_565 S
C1580 C1581 1.404 . S
C1580 C1583 1.539 . S
C1581 C1577 1.408 1_565 S
C1581 C1580 1.404 . S
C1581 H1593 0.930 1_655 S
C1582 C1578 1.524 . S
C1582 H1594 0.956 . S
C1582 H1595 0.961 . S
C1582 H1596 0.961 . S
C1583 C1580 1.539 . S
C1583 H1597 0.958 . S
C1583 H1598 0.961 1_655 S
C1583 H1599 0.960 . S
H1584 C1568 0.931 . S
H1585 C1573 0.929 . S
H1586 C1574 0.960 . S
H1587 C1574 0.962 . S
H1588 C1574 0.960 . S
H1589 C1575 0.961 . S
H1590 C1575 0.961 . S
H1591 C1575 0.956 1_455 S
H1592 C1576 0.931 . S
H1593 C1581 0.930 1_455 S
H1594 C1582 0.956 . S
H1595 C1582 0.961 . S
H1596 C1582 0.961 . S
H1597 C1583 0.958 . S
H1598 C1583 0.961 1_455 S
H1599 C1583 0.960 . S
C1600 C1601 1.391 . S
C1600 C1602 1.394 . S
C1600 H1616 0.931 . S
C1601 C1600 1.391 . S
C1601 C1605 1.376 . S
C1602 C1600 1.394 . S
C1602 C1603 1.369 . S
C1602 C1606 1.531 . S
C1603 C1602 1.369 . S
C1603 C1604 1.410 . S
C1603 C1611 1.503 . S
C1604 C1603 1.410 . S
C1604 C1605 1.392 . S
C1604 C1607 1.511 . S
C1605 C1601 1.376 . S
C1605 C1604 1.392 . S
C1605 H1617 0.929 . S
C1606 C1602 1.531 . S
C1606 H1618 0.960 . S
C1606 H1619 0.962 . S
C1606 H1620 0.960 . S
C1607 C1604 1.511 . S
C1607 H1621 0.961 . S
C1607 H1622 0.961 . S
C1607 H1623 0.961 . S
C1608 C1609 1.370 . S
C1608 C1610 1.363 . S
C1608 H1624 0.931 . S
C1609 C1608 1.370 . S
C1609 C1613 1.408 . S
C1610 C1608 1.363 . S
C1610 C1611 1.370 . S
C1610 C1614 1.524 . S
C1611 C1603 1.503 . S
C1611 C1610 1.370 . S
C1611 C1612 1.403 . S
C1612 C1611 1.403 . S
C1612 C1613 1.404 . S
C1612 C1615 1.539 . S
C1613 C1609 1.408 . S
C1613 C1612 1.404 . S
C1613 H1625 0.930 . S
C1614 C1610 1.524 . S
C1614 H1626 0.956 . S
C1614 H1627 0.961 . S
C1614 H1628 0.961 . S
C1615 C1612 1.539 . S
C1615 H1629 0.958 . S
C1615 H1630 0.961 . S
C1615 H1631 0.960 . S
H1616 C1600 0.931 . S
H1617 C1605 0.929 . S
H1618 C1606 0.960 . S
H1619 C1606 0.962 . S
H1620 C1606 0.960 . S
H1621 C1607 0.961 . S
H1622 C1607 0.961 . S
H1623 C1607 0.961 . S
H1624 C1608 0.931 . S
H1625 C1613 0.930 . S
H1626 C1614 0.956 . S
H1627 C1614 0.961 . S
H1628 C1614 0.961 . S
H1629 C1615 0.958 . S
H1630 C1615 0.961 . S
H1631 C1615 0.960 . S
C1632 C1633 1.392 1_565 S
C1632 C1634 1.394 . S
C1632 H1648 0.931 . S
C1633 C1632 1.392 1_545 S
C1633 C1637 1.375 . S
C1634 C1632 1.394 . S
C1634 C1635 1.369 1_565 S
C1634 C1638 1.531 . S
C1635 C1634 1.369 1_545 S
C1635 C1636 1.410 . S
C1635 C1643 1.503 . S
C1636 C1635 1.410 . S
C1636 C1637 1.392 . S
C1636 C1639 1.511 . S
C1637 C1633 1.375 . S
C1637 C1636 1.392 . S
C1637 H1649 0.929 . S
C1638 C1634 1.531 . S
C1638 H1650 0.960 . S
C1638 H1651 0.962 . S
C1638 H1652 0.960 . S
C1639 C1636 1.511 . S
C1639 H1653 0.961 . S
C1639 H1654 0.961 . S
C1639 H1655 0.961 . S
C1640 C1641 1.370 . S
C1640 C1642 1.363 . S
C1640 H1656 0.931 . S
C1641 C1640 1.370 . S
C1641 C1645 1.408 . S
C1642 C1640 1.363 . S
C1642 C1643 1.370 . S
C1642 C1646 1.524 . S
C1643 C1635 1.503 . S
C1643 C1642 1.370 . S
C1643 C1644 1.403 . S
C1644 C1643 1.403 . S
C1644 C1645 1.404 . S
C1644 C1647 1.539 1_545 S
C1645 C1641 1.408 . S
C1645 C1644 1.404 . S
C1645 H1657 0.930 . S
C1646 C1642 1.524 . S
C1646 H1658 0.956 . S
C1646 H1659 0.961 . S
C1646 H1660 0.961 . S
C1647 C1644 1.539 1_565 S
C1647 H1661 0.958 . S
C1647 H1662 0.961 . S
C1647 H1663 0.960 . S
H1648 C1632 0.931 . S
H1649 C1637 0.929 . S
H1650 C1638 0.960 . S
H1651 C1638 0.962 . S
H1652 C1638 0.960 . S
H1653 C1639 0.961 . S
H1654 C1639 0.961 . S
H1655 C1639 0.961 . S
H1656 C1640 0.931 . S
H1657 C1645 0.930 . S
H1658 C1646 0.956 . S
H1659 C1646 0.961 . S
H1660 C1646 0.961 . S
H1661 C1647 0.958 . S
H1662 C1647 0.961 . S
H1663 C1647 0.960 . S
C1664 C1665 1.391 . S
C1664 C1666 1.394 . S
C1664 H1680 0.931 . S
C1665 C1664 1.391 . S
C1665 C1669 1.376 . S
C1666 C1664 1.394 . S
C1666 C1667 1.369 . S
C1666 C1670 1.531 . S
C1667 C1666 1.369 . S
C1667 C1668 1.410 . S
C1667 C1675 1.503 . S
C1668 C1667 1.410 . S
C1668 C1669 1.392 . S
C1668 C1671 1.511 . S
C1669 C1665 1.376 . S
C1669 C1668 1.392 . S
C1669 H1681 0.929 . S
C1670 C1666 1.531 . S
C1670 H1682 0.960 . S
C1670 H1683 0.962 . S
C1670 H1684 0.960 . S
C1671 C1668 1.511 . S
C1671 H1685 0.961 . S
C1671 H1686 0.961 . S
C1671 H1687 0.961 . S
C1672 C1673 1.370 . S
C1672 C1674 1.363 . S
C1672 H1688 0.931 . S
C1673 C1672 1.370 . S
C1673 C1677 1.408 . S
C1674 C1672 1.363 . S
C1674 C1675 1.370 . S
C1674 C1678 1.524 . S
C1675 C1667 1.503 . S
C1675 C1674 1.370 . S
C1675 C1676 1.403 . S
C1676 C1675 1.403 . S
C1676 C1677 1.404 . S
C1676 C1679 1.539 . S
C1677 C1673 1.408 . S
C1677 C1676 1.404 . S
C1677 H1689 0.930 . S
C1678 C1674 1.524 . S
C1678 H1690 0.956 . S
C1678 H1691 0.961 . S
C1678 H1692 0.961 . S
C1679 C1676 1.539 . S
C1679 H1693 0.958 . S
C1679 H1694 0.961 . S
C1679 H1695 0.960 . S
H1680 C1664 0.931 . S
H1681 C1669 0.929 . S
H1682 C1670 0.960 . S
H1683 C1670 0.962 . S
H1684 C1670 0.960 . S
H1685 C1671 0.961 . S
H1686 C1671 0.961 . S
H1687 C1671 0.961 . S
H1688 C1672 0.931 . S
H1689 C1677 0.930 . S
H1690 C1678 0.956 . S
H1691 C1678 0.961 . S
H1692 C1678 0.961 . S
H1693 C1679 0.958 . S
H1694 C1679 0.961 . S
H1695 C1679 0.960 . S
C1696 C1697 1.391 1_556 S
C1696 C1698 1.399 . S
C1696 H1712 0.931 . S
C1697 C1696 1.391 1_554 S
C1697 C1701 1.376 . S
C1698 C1696 1.399 . S
C1698 C1699 1.343 1_556 S
C1698 C1702 1.552 . S
C1699 C1698 1.343 1_554 S
C1699 C1700 1.410 . S
C1699 C1707 1.503 . S
C1700 C1699 1.410 . S
C1700 C1701 1.392 . S
C1700 C1703 1.511 . S
C1701 C1697 1.376 . S
C1701 C1700 1.392 . S
C1701 H1713 0.929 . S
C1702 C1698 1.552 . S
C1702 H1714 0.960 . S
C1702 H1715 0.962 . S
C1702 H1716 0.960 . S
C1703 C1700 1.511 . S
C1703 H1717 0.961 . S
C1703 H1718 0.961 . S
C1703 H1719 0.961 . S
C1704 C1705 1.370 . S
C1704 C1706 1.363 . S
C1704 H1720 0.931 . S
C1705 C1704 1.370 . S
C1705 C1709 1.408 . S
C1706 C1704 1.363 . S
C1706 C1707 1.370 . S
C1706 C1710 1.524 . S
C1707 C1699 1.503 . S
C1707 C1706 1.370 . S
C1707 C1708 1.403 . S
C1708 C1707 1.403 . S
C1708 C1709 1.404 . S
C1708 C1711 1.539 . S
C1709 C1705 1.408 . S
C1709 C1708 1.404 . S
C1709 H1721 0.930 . S
C1710 C1706 1.524 . S
C1710 H1722 0.956 . S
C1710 H1723 0.961 . S
C1710 H1724 0.961 . S
C1711 C1708 1.539 . S
C1711 H1725 0.958 . S
C1711 H1726 0.961 . S
C1711 H1727 0.960 . S
H1712 C1696 0.931 . S
H1713 C1701 0.929 . S
H1714 C1702 0.960 . S
H1715 C1702 0.962 . S
H1716 C1702 0.960 . S
H1717 C1703 0.961 . S
H1718 C1703 0.961 . S
H1719 C1703 0.961 . S
H1720 C1704 0.931 . S
H1721 C1709 0.930 . S
H1722 C1710 0.956 . S
H1723 C1710 0.961 . S
H1724 C1710 0.961 . S
H1725 C1711 0.958 . S
H1726 C1711 0.961 . S
H1727 C1711 0.960 . S
C1728 C1729 1.399 . S
C1728 C1730 1.394 . S
C1728 H1744 0.931 . S
C1729 C1728 1.399 . S
C1729 C1733 1.373 1_554 S
C1730 C1728 1.394 . S
C1730 C1731 1.369 . S
C1730 C1734 1.531 . S
C1731 C1730 1.369 . S
C1731 C1732 1.410 1_554 S
C1731 C1739 1.503 . S
C1732 C1731 1.410 1_556 S
C1732 C1733 1.392 . S
C1732 C1735 1.511 . S
C1733 C1729 1.373 1_556 S
C1733 C1732 1.392 . S
C1733 H1745 0.929 . S
C1734 C1730 1.531 . S
C1734 H1746 0.960 . S
C1734 H1747 0.962 . S
C1734 H1748 0.960 . S
C1735 C1732 1.511 . S
C1735 H1749 0.961 . S
C1735 H1750 0.961 . S
C1735 H1751 0.961 1_556 S
C1736 C1737 1.370 1_556 S
C1736 C1738 1.363 . S
C1736 H1752 0.931 . S
C1737 C1736 1.370 1_554 S
C1737 C1741 1.408 . S
C1738 C1736 1.363 . S
C1738 C1739 1.370 1_556 S
C1738 C1742 1.524 . S
C1739 C1731 1.503 . S
C1739 C1738 1.370 1_554 S
C1739 C1740 1.403 . S
C1740 C1739 1.403 . S
C1740 C1741 1.404 . S
C1740 C1743 1.539 . S
C1741 C1737 1.408 . S
C1741 C1740 1.404 . S
C1741 H1753 0.930 . S
C1742 C1738 1.524 . S
C1742 H1754 0.956 . S
C1742 H1755 0.961 . S
C1742 H1756 0.961 . S
C1743 C1740 1.539 . S
C1743 H1757 0.958 . S
C1743 H1758 0.961 . S
C1743 H1759 0.960 . S
H1744 C1728 0.931 . S
H1745 C1733 0.929 . S
H1746 C1734 0.960 . S
H1747 C1734 0.962 . S
H1748 C1734 0.960 . S
H1749 C1735 0.961 . S
H1750 C1735 0.961 . S
H1751 C1735 0.961 1_554 S
H1752 C1736 0.931 . S
H1753 C1741 0.930 . S
H1754 C1742 0.956 . S
H1755 C1742 0.961 . S
H1756 C1742 0.961 . S
H1757 C1743 0.958 . S
H1758 C1743 0.961 . S
H1759 C1743 0.960 . S
C1760 C1761 1.391 . S
C1760 C1762 1.394 . S
C1760 H1776 0.931 . S
C1761 C1760 1.391 . S
C1761 C1765 1.376 . S
C1762 C1760 1.394 . S
C1762 C1763 1.369 . S
C1762 C1766 1.531 . S
C1763 C1762 1.369 . S
C1763 C1764 1.410 . S
C1763 C1771 1.503 . S
C1764 C1763 1.410 . S
C1764 C1765 1.392 . S
C1764 C1767 1.511 . S
C1765 C1761 1.376 . S
C1765 C1764 1.392 . S
C1765 H1777 0.929 . S
C1766 C1762 1.531 . S
C1766 H1778 0.960 . S
C1766 H1779 0.962 . S
C1766 H1780 0.960 . S
C1767 C1764 1.511 . S
C1767 H1781 0.961 . S
C1767 H1782 0.961 . S
C1767 H1783 0.961 . S
C1768 C1769 1.370 . S
C1768 C1770 1.363 . S
C1768 H1784 0.931 . S
C1769 C1768 1.370 . S
C1769 C1773 1.408 . S
C1770 C1768 1.363 . S
C1770 C1771 1.370 . S
C1770 C1774 1.524 . S
C1771 C1763 1.503 . S
C1771 C1770 1.370 . S
C1771 C1772 1.403 . S
C1772 C1771 1.403 . S
C1772 C1773 1.404 . S
C1772 C1775 1.539 . S
C1773 C1769 1.408 . S
C1773 C1772 1.404 . S
C1773 H1785 0.930 . S
C1774 C1770 1.524 . S
C1774 H1786 0.956 . S
C1774 H1787 0.961 . S
C1774 H1788 0.961 . S
C1775 C1772 1.539 . S
C1775 H1789 0.958 . S
C1775 H1790 0.961 . S
C1775 H1791 0.960 . S
H1776 C1760 0.931 . S
H1777 C1765 0.929 . S
H1778 C1766 0.960 . S
H1779 C1766 0.962 . S
H1780 C1766 0.960 . S
H1781 C1767 0.961 . S
H1782 C1767 0.961 . S
H1783 C1767 0.961 . S
H1784 C1768 0.931 . S
H1785 C1773 0.930 . S
H1786 C1774 0.956 . S
H1787 C1774 0.961 . S
H1788 C1774 0.961 . S
H1789 C1775 0.958 . S
H1790 C1775 0.961 . S
H1791 C1775 0.960 . S
C1792 C1793 1.391 . S
C1792 C1794 1.394 . S
C1792 H1808 0.931 . S
C1793 C1792 1.391 . S
C1793 C1797 1.376 . S
C1794 C1792 1.394 . S
C1794 C1795 1.369 . S
C1794 C1798 1.531 . S
C1795 C1794 1.369 . S
C1795 C1796 1.410 . S
C1795 C1803 1.503 . S
C1796 C1795 1.410 . S
C1796 C1797 1.392 . S
C1796 C1799 1.511 . S
C1797 C1793 1.376 . S
C1797 C1796 1.392 . S
C1797 H1809 0.929 . S
C1798 C1794 1.531 . S
C1798 H1810 0.960 . S
C1798 H1811 0.962 . S
C1798 H1812 0.960 . S
C1799 C1796 1.511 . S
C1799 H1813 0.961 . S
C1799 H1814 0.961 . S
C1799 H1815 0.961 . S
C1800 C1801 1.370 . S
C1800 C1802 1.363 . S
C1800 H1816 0.931 . S
C1801 C1800 1.370 . S
C1801 C1805 1.408 . S
C1802 C1800 1.363 . S
C1802 C1803 1.370 . S
C1802 C1806 1.524 . S
C1803 C1795 1.503 . S
C1803 C1802 1.370 . S
C1803 C1804 1.403 . S
C1804 C1803 1.403 . S
C1804 C1805 1.404 . S
C1804 C1807 1.539 . S
C1805 C1801 1.408 . S
C1805 C1804 1.404 . S
C1805 H1817 0.930 . S
C1806 C1802 1.524 . S
C1806 H1818 0.956 . S
C1806 H1819 0.961 . S
C1806 H1820 0.961 . S
C1807 C1804 1.539 . S
C1807 H1821 0.958 . S
C1807 H1822 0.961 . S
C1807 H1823 0.960 . S
H1808 C1792 0.931 . S
H1809 C1797 0.929 . S
H1810 C1798 0.960 . S
H1811 C1798 0.962 . S
H1812 C1798 0.960 . S
H1813 C1799 0.961 . S
H1814 C1799 0.961 . S
H1815 C1799 0.961 . S
H1816 C1800 0.931 . S
H1817 C1805 0.930 . S
H1818 C1806 0.956 . S
H1819 C1806 0.961 . S
H1820 C1806 0.961 . S
H1821 C1807 0.958 . S
H1822 C1807 0.961 . S
H1823 C1807 0.960 . S
C1824 C1825 1.391 . S
C1824 C1826 1.394 . S
C1824 H1840 0.931 . S
C1825 C1824 1.391 . S
C1825 C1829 1.376 . S
C1826 C1824 1.394 . S
C1826 C1827 1.369 . S
C1826 C1830 1.531 . S
C1827 C1826 1.369 . S
C1827 C1828 1.410 . S
C1827 C1835 1.503 . S
C1828 C1827 1.410 . S
C1828 C1829 1.392 . S
C1828 C1831 1.511 . S
C1829 C1825 1.376 . S
C1829 C1828 1.392 . S
C1829 H1841 0.929 . S
C1830 C1826 1.531 . S
C1830 H1842 0.960 . S
C1830 H1843 0.962 . S
C1830 H1844 0.960 . S
C1831 C1828 1.511 . S
C1831 H1845 0.961 . S
C1831 H1846 0.961 . S
C1831 H1847 0.961 . S
C1832 C1833 1.370 . S
C1832 C1834 1.363 . S
C1832 H1848 0.931 . S
C1833 C1832 1.370 . S
C1833 C1837 1.408 . S
C1834 C1832 1.363 . S
C1834 C1835 1.370 . S
C1834 C1838 1.524 . S
C1835 C1827 1.503 . S
C1835 C1834 1.370 . S
C1835 C1836 1.403 . S
C1836 C1835 1.403 . S
C1836 C1837 1.404 . S
C1836 C1839 1.539 . S
C1837 C1833 1.408 . S
C1837 C1836 1.404 . S
C1837 H1849 0.930 . S
C1838 C1834 1.524 . S
C1838 H1850 0.956 . S
C1838 H1851 0.961 . S
C1838 H1852 0.961 . S
C1839 C1836 1.539 . S
C1839 H1853 0.958 . S
C1839 H1854 0.961 . S
C1839 H1855 0.960 . S
H1840 C1824 0.931 . S
H1841 C1829 0.929 . S
H1842 C1830 0.960 . S
H1843 C1830 0.962 . S
H1844 C1830 0.960 . S
H1845 C1831 0.961 . S
H1846 C1831 0.961 . S
H1847 C1831 0.961 . S
H1848 C1832 0.931 . S
H1849 C1837 0.930 . S
H1850 C1838 0.956 . S
H1851 C1838 0.961 . S
H1852 C1838 0.961 . S
H1853 C1839 0.958 . S
H1854 C1839 0.961 . S
H1855 C1839 0.960 . S
C1856 C1857 1.391 . S
C1856 C1858 1.394 . S
C1856 H1872 0.931 . S
C1857 C1856 1.391 . S
C1857 C1861 1.376 . S
C1858 C1856 1.394 . S
C1858 C1859 1.369 . S
C1858 C1862 1.531 . S
C1859 C1858 1.369 . S
C1859 C1860 1.410 . S
C1859 C1867 1.503 . S
C1860 C1859 1.410 . S
C1860 C1861 1.392 . S
C1860 C1863 1.511 . S
C1861 C1857 1.376 . S
C1861 C1860 1.392 . S
C1861 H1873 0.929 . S
C1862 C1858 1.531 . S
C1862 H1874 0.960 . S
C1862 H1875 0.962 . S
C1862 H1876 0.960 . S
C1863 C1860 1.511 . S
C1863 H1877 0.961 . S
C1863 H1878 0.961 . S
C1863 H1879 0.961 . S
C1864 C1865 1.370 . S
C1864 C1866 1.363 . S
C1864 H1880 0.931 . S
C1865 C1864 1.370 . S
C1865 C1869 1.408 . S
C1866 C1864 1.363 . S
C1866 C1867 1.370 . S
C1866 C1870 1.524 . S
C1867 C1859 1.503 . S
C1867 C1866 1.370 . S
C1867 C1868 1.403 . S
C1868 C1867 1.403 . S
C1868 C1869 1.404 . S
C1868 C1871 1.539 . S
C1869 C1865 1.408 . S
C1869 C1868 1.404 . S
C1869 H1881 0.930 . S
C1870 C1866 1.524 . S
C1870 H1882 0.956 . S
C1870 H1883 0.961 . S
C1870 H1884 0.961 . S
C1871 C1868 1.539 . S
C1871 H1885 0.958 . S
C1871 H1886 0.961 . S
C1871 H1887 0.960 . S
H1872 C1856 0.931 . S
H1873 C1861 0.929 . S
H1874 C1862 0.960 . S
H1875 C1862 0.962 . S
H1876 C1862 0.960 . S
H1877 C1863 0.961 . S
H1878 C1863 0.961 . S
H1879 C1863 0.961 . S
H1880 C1864 0.931 . S
H1881 C1869 0.930 . S
H1882 C1870 0.956 . S
H1883 C1870 0.961 . S
H1884 C1870 0.961 . S
H1885 C1871 0.958 . S
H1886 C1871 0.961 . S
H1887 C1871 0.960 . S
C1888 C1889 1.391 . S
C1888 C1890 1.394 . S
C1888 H1904 0.931 . S
C1889 C1888 1.391 . S
C1889 C1893 1.376 . S
C1890 C1888 1.394 . S
C1890 C1891 1.369 . S
C1890 C1894 1.531 . S
C1891 C1890 1.369 . S
C1891 C1892 1.410 . S
C1891 C1899 1.503 . S
C1892 C1891 1.410 . S
C1892 C1893 1.392 . S
C1892 C1895 1.511 . S
C1893 C1889 1.376 . S
C1893 C1892 1.392 . S
C1893 H1905 0.929 . S
C1894 C1890 1.531 . S
C1894 H1906 0.960 . S
C1894 H1907 0.962 . S
C1894 H1908 0.960 . S
C1895 C1892 1.511 . S
C1895 H1909 0.961 . S
C1895 H1910 0.961 . S
C1895 H1911 0.961 . S
C1896 C1897 1.370 . S
C1896 C1898 1.363 . S
C1896 H1912 0.931 . S
C1897 C1896 1.370 . S
C1897 C1901 1.408 . S
C1898 C1896 1.363 . S
C1898 C1899 1.370 . S
C1898 C1902 1.524 . S
C1899 C1891 1.503 . S
C1899 C1898 1.370 . S
C1899 C1900 1.403 . S
C1900 C1899 1.403 . S
C1900 C1901 1.404 . S
C1900 C1903 1.539 . S
C1901 C1897 1.408 . S
C1901 C1900 1.404 . S
C1901 H1913 0.930 . S
C1902 C1898 1.524 . S
C1902 H1914 0.956 . S
C1902 H1915 0.961 . S
C1902 H1916 0.961 . S
C1903 C1900 1.539 . S
C1903 H1917 0.958 . S
C1903 H1918 0.961 . S
C1903 H1919 0.960 . S
H1904 C1888 0.931 . S
H1905 C1893 0.929 . S
H1906 C1894 0.960 . S
H1907 C1894 0.962 . S
H1908 C1894 0.960 . S
H1909 C1895 0.961 . S
H1910 C1895 0.961 . S
H1911 C1895 0.961 . S
H1912 C1896 0.931 . S
H1913 C1901 0.930 . S
H1914 C1902 0.956 . S
H1915 C1902 0.961 . S
H1916 C1902 0.961 . S
H1917 C1903 0.958 . S
H1918 C1903 0.961 . S
H1919 C1903 0.960 . S
C1920 C1921 1.391 . S
C1920 C1922 1.394 . S
C1920 H1936 0.931 . S
C1921 C1920 1.391 . S
C1921 C1925 1.376 . S
C1922 C1920 1.394 . S
C1922 C1923 1.369 . S
C1922 C1926 1.531 . S
C1923 C1922 1.369 . S
C1923 C1924 1.410 . S
C1923 C1931 1.503 . S
C1924 C1923 1.410 . S
C1924 C1925 1.392 . S
C1924 C1927 1.511 . S
C1925 C1921 1.376 . S
C1925 C1924 1.392 . S
C1925 H1937 0.929 . S
C1926 C1922 1.531 . S
C1926 H1938 0.960 . S
C1926 H1939 0.962 . S
C1926 H1940 0.960 . S
C1927 C1924 1.511 . S
C1927 H1941 0.961 . S
C1927 H1942 0.961 . S
C1927 H1943 0.961 . S
C1928 C1929 1.370 . S
C1928 C1930 1.363 . S
C1928 H1944 0.931 . S
C1929 C1928 1.370 . S
C1929 C1933 1.408 . S
C1930 C1928 1.363 . S
C1930 C1931 1.370 . S
C1930 C1934 1.524 . S
C1931 C1923 1.503 . S
C1931 C1930 1.370 . S
C1931 C1932 1.403 . S
C1932 C1931 1.403 . S
C1932 C1933 1.404 . S
C1932 C1935 1.539 . S
C1933 C1929 1.408 . S
C1933 C1932 1.404 . S
C1933 H1945 0.930 . S
C1934 C1930 1.524 . S
C1934 H1946 0.956 . S
C1934 H1947 0.961 . S
C1934 H1948 0.961 . S
C1935 C1932 1.539 . S
C1935 H1949 0.958 . S
C1935 H1950 0.961 . S
C1935 H1951 0.960 . S
H1936 C1920 0.931 . S
H1937 C1925 0.929 . S
H1938 C1926 0.960 . S
H1939 C1926 0.962 . S
H1940 C1926 0.960 . S
H1941 C1927 0.961 . S
H1942 C1927 0.961 . S
H1943 C1927 0.961 . S
H1944 C1928 0.931 . S
H1945 C1933 0.930 . S
H1946 C1934 0.956 . S
H1947 C1934 0.961 . S
H1948 C1934 0.961 . S
H1949 C1935 0.958 . S
H1950 C1935 0.961 . S
H1951 C1935 0.960 . S
C1952 C1953 1.391 . S
C1952 C1954 1.394 . S
C1952 H1968 0.931 . S
C1953 C1952 1.391 . S
C1953 C1957 1.376 . S
C1954 C1952 1.394 . S
C1954 C1955 1.369 . S
C1954 C1958 1.531 . S
C1955 C1954 1.369 . S
C1955 C1956 1.410 . S
C1955 C1963 1.503 . S
C1956 C1955 1.410 . S
C1956 C1957 1.392 . S
C1956 C1959 1.511 1_455 S
C1957 C1953 1.376 . S
C1957 C1956 1.392 . S
C1957 H1969 0.929 . S
C1958 C1954 1.531 . S
C1958 H1970 0.960 . S
C1958 H1971 0.962 . S
C1958 H1972 0.960 . S
C1959 C1956 1.511 1_655 S
C1959 H1973 0.961 . S
C1959 H1974 0.961 . S
C1959 H1975 0.961 . S
C1960 C1961 1.370 . S
C1960 C1962 1.363 . S
C1960 H1976 0.931 . S
C1961 C1960 1.370 . S
C1961 C1965 1.408 1_455 S
C1962 C1960 1.363 . S
C1962 C1963 1.370 . S
C1962 C1966 1.524 . S
C1963 C1955 1.503 . S
C1963 C1962 1.370 . S
C1963 C1964 1.403 1_455 S
C1964 C1963 1.403 1_655 S
C1964 C1965 1.404 . S
C1964 C1967 1.539 . S
C1965 C1961 1.408 1_655 S
C1965 C1964 1.404 . S
C1965 H1977 0.930 . S
C1966 C1962 1.524 . S
C1966 H1978 0.956 . S
C1966 H1979 0.961 . S
C1966 H1980 0.961 . S
C1967 C1964 1.539 . S
C1967 H1981 0.958 . S
C1967 H1982 0.961 . S
C1967 H1983 0.960 . S
H1968 C1952 0.931 . S
H1969 C1957 0.929 . S
H1970 C1958 0.960 . S
H1971 C1958 0.962 . S
H1972 C1958 0.960 . S
H1973 C1959 0.961 . S
H1974 C1959 0.961 . S
H1975 C1959 0.961 . S
H1976 C1960 0.931 . S
H1977 C1965 0.930 . S
H1978 C1966 0.956 . S
H1979 C1966 0.961 . S
H1980 C1966 0.961 . S
H1981 C1967 0.958 . S
H1982 C1967 0.961 . S
H1983 C1967 0.960 . S
C1984 C1985 1.391 . S
C1984 C1986 1.394 . S
C1984 H2000 0.931 . S
C1985 C1984 1.391 . S
C1985 C1989 1.376 . S
C1986 C1984 1.394 . S
C1986 C1987 1.369 . S
C1986 C1990 1.531 . S
C1987 C1986 1.369 . S
C1987 C1988 1.410 . S
C1987 C1995 1.503 . S
C1988 C1987 1.410 . S
C1988 C1989 1.392 . S
C1988 C1991 1.511 . S
C1989 C1985 1.376 . S
C1989 C1988 1.392 . S
C1989 H2001 0.929 . S
C1990 C1986 1.531 . S
C1990 H2002 0.960 . S
C1990 H2003 0.962 . S
C1990 H2004 0.960 . S
C1991 C1988 1.511 . S
C1991 H2005 0.961 . S
C1991 H2006 0.961 . S
C1991 H2007 0.961 . S
C1992 C1993 1.370 . S
C1992 C1994 1.363 . S
C1992 H2008 0.931 . S
C1993 C1992 1.370 . S
C1993 C1997 1.408 . S
C1994 C1992 1.363 . S
C1994 C1995 1.370 . S
C1994 C1998 1.524 . S
C1995 C1987 1.503 . S
C1995 C1994 1.370 . S
C1995 C1996 1.403 . S
C1996 C1995 1.403 . S
C1996 C1997 1.404 . S
C1996 C1999 1.539 . S
C1997 C1993 1.408 . S
C1997 C1996 1.404 . S
C1997 H2009 0.930 . S
C1998 C1994 1.524 . S
C1998 H2010 0.956 . S
C1998 H2011 0.961 . S
C1998 H2012 0.961 . S
C1999 C1996 1.539 . S
C1999 H2013 0.958 . S
C1999 H2014 0.961 . S
C1999 H2015 0.960 . S
H2000 C1984 0.931 . S
H2001 C1989 0.929 . S
H2002 C1990 0.960 . S
H2003 C1990 0.962 . S
H2004 C1990 0.960 . S
H2005 C1991 0.961 . S
H2006 C1991 0.961 . S
H2007 C1991 0.961 . S
H2008 C1992 0.931 . S
H2009 C1997 0.930 . S
H2010 C1998 0.956 . S
H2011 C1998 0.961 . S
H2012 C1998 0.961 . S
H2013 C1999 0.958 . S
H2014 C1999 0.961 . S
H2015 C1999 0.960 . S
C2016 C2017 1.391 . S
C2016 C2018 1.394 . S
C2016 H2032 0.931 . S
C2017 C2016 1.391 . S
C2017 C2021 1.376 . S
C2018 C2016 1.394 . S
C2018 C2019 1.369 . S
C2018 C2022 1.531 . S
C2019 C2018 1.369 . S
C2019 C2020 1.410 . S
C2019 C2027 1.503 . S
C2020 C2019 1.410 . S
C2020 C2021 1.392 . S
C2020 C2023 1.511 . S
C2021 C2017 1.376 . S
C2021 C2020 1.392 . S
C2021 H2033 0.929 . S
C2022 C2018 1.531 . S
C2022 H2034 0.960 . S
C2022 H2035 0.962 . S
C2022 H2036 0.960 . S
C2023 C2020 1.511 . S
C2023 H2037 0.961 . S
C2023 H2038 0.961 . S
C2023 H2039 0.961 . S
C2024 C2025 1.370 . S
C2024 C2026 1.363 . S
C2024 H2040 0.931 . S
C2025 C2024 1.370 . S
C2025 C2029 1.408 . S
C2026 C2024 1.363 . S
C2026 C2027 1.370 . S
C2026 C2030 1.524 . S
C2027 C2019 1.503 . S
C2027 C2026 1.370 . S
C2027 C2028 1.403 . S
C2028 C2027 1.403 . S
C2028 C2029 1.404 . S
C2028 C2031 1.539 . S
C2029 C2025 1.408 . S
C2029 C2028 1.404 . S
C2029 H2041 0.930 . S
C2030 C2026 1.524 . S
C2030 H2042 0.956 . S
C2030 H2043 0.961 . S
C2030 H2044 0.961 . S
C2031 C2028 1.539 . S
C2031 H2045 0.958 . S
C2031 H2046 0.961 . S
C2031 H2047 0.960 . S
H2032 C2016 0.931 . S
H2033 C2021 0.929 . S
H2034 C2022 0.960 . S
H2035 C2022 0.962 . S
H2036 C2022 0.960 . S
H2037 C2023 0.961 . S
H2038 C2023 0.961 . S
H2039 C2023 0.961 . S
H2040 C2024 0.931 . S
H2041 C2029 0.930 . S
H2042 C2030 0.956 . S
H2043 C2030 0.961 . S
H2044 C2030 0.961 . S
H2045 C2031 0.958 . S
H2046 C2031 0.961 . S
H2047 C2031 0.960 . S
C2048 C2049 1.391 . S
C2048 C2050 1.394 . S
C2048 H2064 0.931 . S
C2049 C2048 1.391 . S
C2049 C2053 1.376 . S
C2050 C2048 1.394 . S
C2050 C2051 1.369 . S
C2050 C2054 1.531 . S
C2051 C2050 1.369 . S
C2051 C2052 1.410 . S
C2051 C2059 1.503 . S
C2052 C2051 1.410 . S
C2052 C2053 1.392 . S
C2052 C2055 1.511 . S
C2053 C2049 1.376 . S
C2053 C2052 1.392 . S
C2053 H2065 0.929 . S
C2054 C2050 1.531 . S
C2054 H2066 0.960 . S
C2054 H2067 0.962 . S
C2054 H2068 0.960 . S
C2055 C2052 1.511 . S
C2055 H2069 0.961 . S
C2055 H2070 0.961 . S
C2055 H2071 0.961 . S
C2056 C2057 1.370 . S
C2056 C2058 1.363 . S
C2056 H2072 0.931 . S
C2057 C2056 1.370 . S
C2057 C2061 1.408 . S
C2058 C2056 1.363 . S
C2058 C2059 1.370 . S
C2058 C2062 1.524 . S
C2059 C2051 1.503 . S
C2059 C2058 1.370 . S
C2059 C2060 1.403 . S
C2060 C2059 1.403 . S
C2060 C2061 1.404 . S
C2060 C2063 1.539 . S
C2061 C2057 1.408 . S
C2061 C2060 1.404 . S
C2061 H2073 0.930 . S
C2062 C2058 1.524 . S
C2062 H2074 0.956 . S
C2062 H2075 0.961 . S
C2062 H2076 0.961 . S
C2063 C2060 1.539 . S
C2063 H2077 0.958 . S
C2063 H2078 0.961 . S
C2063 H2079 0.960 . S
H2064 C2048 0.931 . S
H2065 C2053 0.929 . S
H2066 C2054 0.960 . S
H2067 C2054 0.962 . S
H2068 C2054 0.960 . S
H2069 C2055 0.961 . S
H2070 C2055 0.961 . S
H2071 C2055 0.961 . S
H2072 C2056 0.931 . S
H2073 C2061 0.930 . S
H2074 C2062 0.956 . S
H2075 C2062 0.961 . S
H2076 C2062 0.961 . S
H2077 C2063 0.958 . S
H2078 C2063 0.961 . S
H2079 C2063 0.960 . S
C2080 C2081 1.391 1_655 S
C2080 C2082 1.394 . S
C2080 H2096 0.931 . S
C2081 C2080 1.391 1_455 S
C2081 C2085 1.376 . S
C2082 C2080 1.394 . S
C2082 C2083 1.369 1_655 S
C2082 C2086 1.531 . S
C2083 C2082 1.369 1_455 S
C2083 C2084 1.410 . S
C2083 C2091 1.503 . S
C2084 C2083 1.410 . S
C2084 C2085 1.392 . S
C2084 C2087 1.511 . S
C2085 C2081 1.376 . S
C2085 C2084 1.392 . S
C2085 H2097 0.929 . S
C2086 C2082 1.531 . S
C2086 H2098 0.960 . S
C2086 H2099 0.962 . S
C2086 H2100 0.960 . S
C2087 C2084 1.511 . S
C2087 H2101 0.961 . S
C2087 H2102 0.961 . S
C2087 H2103 0.961 . S
C2088 C2089 1.370 . S
C2088 C2090 1.363 . S
C2088 H2104 0.931 1_455 S
C2089 C2088 1.370 . S
C2089 C2093 1.408 . S
C2090 C2088 1.363 . S
C2090 C2091 1.370 . S
C2090 C2094 1.524 . S
C2091 C2083 1.503 . S
C2091 C2090 1.370 . S
C2091 C2092 1.403 . S
C2092 C2091 1.403 . S
C2092 C2093 1.404 . S
C2092 C2095 1.539 . S
C2093 C2089 1.408 . S
C2093 C2092 1.404 . S
C2093 H2105 0.930 . S
C2094 C2090 1.524 . S
C2094 H2106 0.956 1_455 S
C2094 H2107 0.961 . S
C2094 H2108 0.961 . S
C2095 C2092 1.539 . S
C2095 H2109 0.958 . S
C2095 H2110 0.961 . S
C2095 H2111 0.960 . S
H2096 C2080 0.931 . S
H2097 C2085 0.929 . S
H2098 C2086 0.960 . S
H2099 C2086 0.962 . S
H2100 C2086 0.960 . S
H2101 C2087 0.961 . S
H2102 C2087 0.961 . S
H2103 C2087 0.961 . S
H2104 C2088 0.931 1_655 S
H2105 C2093 0.930 . S
H2106 C2094 0.956 1_655 S
H2107 C2094 0.961 . S
H2108 C2094 0.961 . S
H2109 C2095 0.958 . S
H2110 C2095 0.961 . S
H2111 C2095 0.960 . S
C2112 C2113 1.391 . S
C2112 C2114 1.394 . S
C2112 H2128 0.931 . S
C2113 C2112 1.391 . S
C2113 C2117 1.376 . S
C2114 C2112 1.394 . S
C2114 C2115 1.369 . S
C2114 C2118 1.531 . S
C2115 C2114 1.369 . S
C2115 C2116 1.410 . S
C2115 C2123 1.503 . S
C2116 C2115 1.410 . S
C2116 C2117 1.392 . S
C2116 C2119 1.511 . S
C2117 C2113 1.376 . S
C2117 C2116 1.392 . S
C2117 H2129 0.929 . S
C2118 C2114 1.531 . S
C2118 H2130 0.960 . S
C2118 H2131 0.962 . S
C2118 H2132 0.960 . S
C2119 C2116 1.511 . S
C2119 H2133 0.961 . S
C2119 H2134 0.961 . S
C2119 H2135 0.961 . S
C2120 C2121 1.370 . S
C2120 C2122 1.363 . S
C2120 H2136 0.931 . S
C2121 C2120 1.370 . S
C2121 C2125 1.408 . S
C2122 C2120 1.363 . S
C2122 C2123 1.370 . S
C2122 C2126 1.524 . S
C2123 C2115 1.503 . S
C2123 C2122 1.370 . S
C2123 C2124 1.403 . S
C2124 C2123 1.403 . S
C2124 C2125 1.404 . S
C2124 C2127 1.539 . S
C2125 C2121 1.408 . S
C2125 C2124 1.404 . S
C2125 H2137 0.930 . S
C2126 C2122 1.524 . S
C2126 H2138 0.956 . S
C2126 H2139 0.961 . S
C2126 H2140 0.961 . S
C2127 C2124 1.539 . S
C2127 H2141 0.958 . S
C2127 H2142 0.961 . S
C2127 H2143 0.960 . S
H2128 C2112 0.931 . S
H2129 C2117 0.929 . S
H2130 C2118 0.960 . S
H2131 C2118 0.962 . S
H2132 C2118 0.960 . S
H2133 C2119 0.961 . S
H2134 C2119 0.961 . S
H2135 C2119 0.961 . S
H2136 C2120 0.931 . S
H2137 C2125 0.930 . S
H2138 C2126 0.956 . S
H2139 C2126 0.961 . S
H2140 C2126 0.961 . S
H2141 C2127 0.958 . S
H2142 C2127 0.961 . S
H2143 C2127 0.960 . S
C2144 C2145 1.391 . S
C2144 C2146 1.394 . S
C2144 H2160 0.931 . S
C2145 C2144 1.391 . S
C2145 C2149 1.376 . S
C2146 C2144 1.394 . S
C2146 C2147 1.369 . S
C2146 C2150 1.531 . S
C2147 C2146 1.369 . S
C2147 C2148 1.410 . S
C2147 C2155 1.503 . S
C2148 C2147 1.410 . S
C2148 C2149 1.392 . S
C2148 C2151 1.511 . S
C2149 C2145 1.376 . S
C2149 C2148 1.392 . S
C2149 H2161 0.929 . S
C2150 C2146 1.531 . S
C2150 H2162 0.960 1_556 S
C2150 H2163 0.962 . S
C2150 H2164 0.960 . S
C2151 C2148 1.511 . S
C2151 H2165 0.961 . S
C2151 H2166 0.961 . S
C2151 H2167 0.961 . S
C2152 C2153 1.371 . S
C2152 C2154 1.363 . S
C2152 H2168 0.931 . S
C2153 C2152 1.371 . S
C2153 C2157 1.408 1_556 S
C2154 C2152 1.363 . S
C2154 C2155 1.370 . S
C2154 C2158 1.524 . S
C2155 C2147 1.503 . S
C2155 C2154 1.370 . S
C2155 C2156 1.403 . S
C2156 C2155 1.403 . S
C2156 C2157 1.404 1_556 S
C2156 C2159 1.539 1_556 S
C2157 C2153 1.408 1_554 S
C2157 C2156 1.404 1_554 S
C2157 H2169 0.930 . S
C2158 C2154 1.524 . S
C2158 H2170 0.956 . S
C2158 H2171 0.961 . S
C2158 H2172 0.961 . S
C2159 C2156 1.539 1_554 S
C2159 H2173 0.958 . S
C2159 H2174 0.961 . S
C2159 H2175 0.960 1_554 S
H2160 C2144 0.931 . S
H2161 C2149 0.929 . S
H2162 C2150 0.960 1_554 S
H2163 C2150 0.962 . S
H2164 C2150 0.960 . S
H2165 C2151 0.961 . S
H2166 C2151 0.961 . S
H2167 C2151 0.961 . S
H2168 C2152 0.931 . S
H2169 C2157 0.930 . S
H2170 C2158 0.956 . S
H2171 C2158 0.961 . S
H2172 C2158 0.961 . S
H2173 C2159 0.958 . S
H2174 C2159 0.961 . S
H2175 C2159 0.960 1_556 S
C2176 C2177 1.391 . S
C2176 C2178 1.394 . S
C2176 H2192 0.931 . S
C2177 C2176 1.391 . S
C2177 C2181 1.376 . S
C2178 C2176 1.394 . S
C2178 C2179 1.369 . S
C2178 C2182 1.531 . S
C2179 C2178 1.369 . S
C2179 C2180 1.410 . S
C2179 C2187 1.503 . S
C2180 C2179 1.410 . S
C2180 C2181 1.392 . S
C2180 C2183 1.511 . S
C2181 C2177 1.376 . S
C2181 C2180 1.392 . S
C2181 H2193 0.929 . S
C2182 C2178 1.531 . S
C2182 H2194 0.960 . S
C2182 H2195 0.962 . S
C2182 H2196 0.960 . S
C2183 C2180 1.511 . S
C2183 H2197 0.961 . S
C2183 H2198 0.961 . S
C2183 H2199 0.961 . S
C2184 C2185 1.370 . S
C2184 C2186 1.363 . S
C2184 H2200 0.931 . S
C2185 C2184 1.370 . S
C2185 C2189 1.408 . S
C2186 C2184 1.363 . S
C2186 C2187 1.370 . S
C2186 C2190 1.524 . S
C2187 C2179 1.503 . S
C2187 C2186 1.370 . S
C2187 C2188 1.403 . S
C2188 C2187 1.403 . S
C2188 C2189 1.404 . S
C2188 C2191 1.539 . S
C2189 C2185 1.408 . S
C2189 C2188 1.404 . S
C2189 H2201 0.930 . S
C2190 C2186 1.524 . S
C2190 H2202 0.956 . S
C2190 H2203 0.961 . S
C2190 H2204 0.961 . S
C2191 C2188 1.539 . S
C2191 H2205 0.958 . S
C2191 H2206 0.961 . S
C2191 H2207 0.960 . S
H2192 C2176 0.931 . S
H2193 C2181 0.929 . S
H2194 C2182 0.960 . S
H2195 C2182 0.962 . S
H2196 C2182 0.960 . S
H2197 C2183 0.961 . S
H2198 C2183 0.961 . S
H2199 C2183 0.961 . S
H2200 C2184 0.931 . S
H2201 C2189 0.930 . S
H2202 C2190 0.956 . S
H2203 C2190 0.961 . S
H2204 C2190 0.961 . S
H2205 C2191 0.958 . S
H2206 C2191 0.961 . S
H2207 C2191 0.960 . S
C2208 C2209 1.391 1_565 S
C2208 C2210 1.394 . S
C2208 H2224 0.931 . S
C2209 C2208 1.391 1_545 S
C2209 C2213 1.376 . S
C2210 C2208 1.394 . S
C2210 C2211 1.369 1_565 S
C2210 C2214 1.531 . S
C2211 C2210 1.369 1_545 S
C2211 C2212 1.410 . S
C2211 C2219 1.503 . S
C2212 C2211 1.410 . S
C2212 C2213 1.392 . S
C2212 C2215 1.511 . S
C2213 C2209 1.376 . S
C2213 C2212 1.392 . S
C2213 H2225 0.929 . S
C2214 C2210 1.531 . S
C2214 H2226 0.960 . S
C2214 H2227 0.962 . S
C2214 H2228 0.960 . S
C2215 C2212 1.511 . S
C2215 H2229 0.961 . S
C2215 H2230 0.961 . S
C2215 H2231 0.961 . S
C2216 C2217 1.370 . S
C2216 C2218 1.363 . S
C2216 H2232 0.931 . S
C2217 C2216 1.370 . S
C2217 C2221 1.408 1_565 S
C2218 C2216 1.363 . S
C2218 C2219 1.373 1_565 S
C2218 C2222 1.524 . S
C2219 C2211 1.503 . S
C2219 C2218 1.373 1_545 S
C2219 C2220 1.400 . S
C2220 C2219 1.400 . S
C2220 C2221 1.404 . S
C2220 C2223 1.539 . S
C2221 C2217 1.408 1_545 S
C2221 C2220 1.404 . S
C2221 H2233 0.930 . S
C2222 C2218 1.524 . S
C2222 H2234 0.956 . S
C2222 H2235 0.961 . S
C2222 H2236 0.961 . S
C2223 C2220 1.539 . S
C2223 H2237 0.958 . S
C2223 H2238 0.961 . S
C2223 H2239 0.960 . S
H2224 C2208 0.931 . S
H2225 C2213 0.929 . S
H2226 C2214 0.960 . S
H2227 C2214 0.962 . S
H2228 C2214 0.960 . S
H2229 C2215 0.961 . S
H2230 C2215 0.961 . S
H2231 C2215 0.961 . S
H2232 C2216 0.931 . S
H2233 C2221 0.930 . S
H2234 C2222 0.956 . S
H2235 C2222 0.961 . S
H2236 C2222 0.961 . S
H2237 C2223 0.958 . S
H2238 C2223 0.961 . S
H2239 C2223 0.960 . S
C2240 C2241 1.391 . S
C2240 C2242 1.394 . S
C2240 H2256 0.931 . S
C2241 C2240 1.391 . S
C2241 C2245 1.376 . S
C2242 C2240 1.394 . S
C2242 C2243 1.369 . S
C2242 C2246 1.531 . S
C2243 C2242 1.369 . S
C2243 C2244 1.410 . S
C2243 C2251 1.503 . S
C2244 C2243 1.410 . S
C2244 C2245 1.392 . S
C2244 C2247 1.511 . S
C2245 C2241 1.376 . S
C2245 C2244 1.392 . S
C2245 H2257 0.929 . S
C2246 C2242 1.531 . S
C2246 H2258 0.960 . S
C2246 H2259 0.962 . S
C2246 H2260 0.960 . S
C2247 C2244 1.511 . S
C2247 H2261 0.961 . S
C2247 H2262 0.961 . S
C2247 H2263 0.961 . S
C2248 C2249 1.370 . S
C2248 C2250 1.363 . S
C2248 H2264 0.931 . S
C2249 C2248 1.370 . S
C2249 C2253 1.408 . S
C2250 C2248 1.363 . S
C2250 C2251 1.370 . S
C2250 C2254 1.524 . S
C2251 C2243 1.503 . S
C2251 C2250 1.370 . S
C2251 C2252 1.403 . S
C2252 C2251 1.403 . S
C2252 C2253 1.404 . S
C2252 C2255 1.539 . S
C2253 C2249 1.408 . S
C2253 C2252 1.404 . S
C2253 H2265 0.930 . S
C2254 C2250 1.524 . S
C2254 H2266 0.956 . S
C2254 H2267 0.961 . S
C2254 H2268 0.961 . S
C2255 C2252 1.539 . S
C2255 H2269 0.958 . S
C2255 H2270 0.961 . S
C2255 H2271 0.960 . S
H2256 C2240 0.931 . S
H2257 C2245 0.929 . S
H2258 C2246 0.960 . S
H2259 C2246 0.962 . S
H2260 C2246 0.960 . S
H2261 C2247 0.961 . S
H2262 C2247 0.961 . S
H2263 C2247 0.961 . S
H2264 C2248 0.931 . S
H2265 C2253 0.930 . S
H2266 C2254 0.956 . S
H2267 C2254 0.961 . S
H2268 C2254 0.961 . S
H2269 C2255 0.958 . S
H2270 C2255 0.961 . S
H2271 C2255 0.960 . S
C2272 C2273 1.391 . S
C2272 C2274 1.394 . S
C2272 H2288 0.931 . S
C2273 C2272 1.391 . S
C2273 C2277 1.376 . S
C2274 C2272 1.394 . S
C2274 C2275 1.369 . S
C2274 C2278 1.531 . S
C2275 C2274 1.369 . S
C2275 C2276 1.410 . S
C2275 C2283 1.503 . S
C2276 C2275 1.410 . S
C2276 C2277 1.392 . S
C2276 C2279 1.511 . S
C2277 C2273 1.376 . S
C2277 C2276 1.392 . S
C2277 H2289 0.929 . S
C2278 C2274 1.531 . S
C2278 H2290 0.960 . S
C2278 H2291 0.962 . S
C2278 H2292 0.960 . S
C2279 C2276 1.511 . S
C2279 H2293 0.961 . S
C2279 H2294 0.961 . S
C2279 H2295 0.961 . S
C2280 C2281 1.370 . S
C2280 C2282 1.363 . S
C2280 H2296 0.931 1_545 S
C2281 C2280 1.370 . S
C2281 C2285 1.408 . S
C2282 C2280 1.363 . S
C2282 C2283 1.370 . S
C2282 C2286 1.524 1_545 S
C2283 C2275 1.503 . S
C2283 C2282 1.370 . S
C2283 C2284 1.403 . S
C2284 C2283 1.403 . S
C2284 C2285 1.404 . S
C2284 C2287 1.539 . S
C2285 C2281 1.408 . S
C2285 C2284 1.404 . S
C2285 H2297 0.930 . S
C2286 C2282 1.524 1_565 S
C2286 H2298 0.956 . S
C2286 H2299 0.961 . S
C2286 H2300 0.961 . S
C2287 C2284 1.539 . S
C2287 H2301 0.958 . S
C2287 H2302 0.961 . S
C2287 H2303 0.960 . S
H2288 C2272 0.931 . S
H2289 C2277 0.929 . S
H2290 C2278 0.960 . S
H2291 C2278 0.962 . S
H2292 C2278 0.960 . S
H2293 C2279 0.961 . S
H2294 C2279 0.961 . S
H2295 C2279 0.961 . S
H2296 C2280 0.931 1_565 S
H2297 C2285 0.930 . S
H2298 C2286 0.956 . S
H2299 C2286 0.961 . S
H2300 C2286 0.961 . S
H2301 C2287 0.958 . S
H2302 C2287 0.961 . S
H2303 C2287 0.960 . S
C2304 C2305 1.391 . S
C2304 C2306 1.394 . S
C2304 H2320 0.931 . S
C2305 C2304 1.391 . S
C2305 C2309 1.376 . S
C2306 C2304 1.394 . S
C2306 C2307 1.369 . S
C2306 C2310 1.531 . S
C2307 C2306 1.369 . S
C2307 C2308 1.410 . S
C2307 C2315 1.503 . S
C2308 C2307 1.410 . S
C2308 C2309 1.392 . S
C2308 C2311 1.511 . S
C2309 C2305 1.376 . S
C2309 C2308 1.392 . S
C2309 H2321 0.929 . S
C2310 C2306 1.531 . S
C2310 H2322 0.960 . S
C2310 H2323 0.962 . S
C2310 H2324 0.960 . S
C2311 C2308 1.511 . S
C2311 H2325 0.961 . S
C2311 H2326 0.961 . S
C2311 H2327 0.961 . S
C2312 C2313 1.370 . S
C2312 C2314 1.363 . S
C2312 H2328 0.931 . S
C2313 C2312 1.370 . S
C2313 C2317 1.408 . S
C2314 C2312 1.363 . S
C2314 C2315 1.370 . S
C2314 C2318 1.524 . S
C2315 C2307 1.503 . S
C2315 C2314 1.370 . S
C2315 C2316 1.403 . S
C2316 C2315 1.403 . S
C2316 C2317 1.404 . S
C2316 C2319 1.539 . S
C2317 C2313 1.408 . S
C2317 C2316 1.404 . S
C2317 H2329 0.930 . S
C2318 C2314 1.524 . S
C2318 H2330 0.956 . S
C2318 H2331 0.961 . S
C2318 H2332 0.961 . S
C2319 C2316 1.539 . S
C2319 H2333 0.958 . S
C2319 H2334 0.961 . S
C2319 H2335 0.960 . S
H2320 C2304 0.931 . S
H2321 C2309 0.929 . S
H2322 C2310 0.960 . S
H2323 C2310 0.962 . S
H2324 C2310 0.960 . S
H2325 C2311 0.961 . S
H2326 C2311 0.961 . S
H2327 C2311 0.961 . S
H2328 C2312 0.931 . S
H2329 C2317 0.930 . S
H2330 C2318 0.956 . S
H2331 C2318 0.961 . S
H2332 C2318 0.961 . S
H2333 C2319 0.958 . S
H2334 C2319 0.961 . S
H2335 C2319 0.960 . S
C2336 C2337 1.391 . S
C2336 C2338 1.394 . S
C2336 H2352 0.931 . S
C2337 C2336 1.391 . S
C2337 C2341 1.376 1_545 S
C2338 C2336 1.394 . S
C2338 C2339 1.369 . S
C2338 C2342 1.531 . S
C2339 C2338 1.369 . S
C2339 C2340 1.410 1_545 S
C2339 C2347 1.503 . S
C2340 C2339 1.410 1_565 S
C2340 C2341 1.392 . S
C2340 C2343 1.511 . S
C2341 C2337 1.376 1_565 S
C2341 C2340 1.392 . S
C2341 H2353 0.929 . S
C2342 C2338 1.531 . S
C2342 H2354 0.960 . S
C2342 H2355 0.962 . S
C2342 H2356 0.960 . S
C2343 C2340 1.511 . S
C2343 H2357 0.961 . S
C2343 H2358 0.961 . S
C2343 H2359 0.961 . S
C2344 C2345 1.370 . S
C2344 C2346 1.363 . S
C2344 H2360 0.931 . S
C2345 C2344 1.370 . S
C2345 C2349 1.408 1_545 S
C2346 C2344 1.363 . S
C2346 C2347 1.370 . S
C2346 C2350 1.524 . S
C2347 C2339 1.503 . S
C2347 C2346 1.370 . S
C2347 C2348 1.403 1_545 S
C2348 C2347 1.403 1_565 S
C2348 C2349 1.404 . S
C2348 C2351 1.539 . S
C2349 C2345 1.408 1_565 S
C2349 C2348 1.404 . S
C2349 H2361 0.930 . S
C2350 C2346 1.524 . S
C2350 H2362 0.956 . S
C2350 H2363 0.961 . S
C2350 H2364 0.961 . S
C2351 C2348 1.539 . S
C2351 H2365 0.958 . S
C2351 H2366 0.961 . S
C2351 H2367 0.960 . S
H2352 C2336 0.931 . S
H2353 C2341 0.929 . S
H2354 C2342 0.960 . S
H2355 C2342 0.962 . S
H2356 C2342 0.960 . S
H2357 C2343 0.961 . S
H2358 C2343 0.961 . S
H2359 C2343 0.961 . S
H2360 C2344 0.931 . S
H2361 C2349 0.930 . S
H2362 C2350 0.956 . S
H2363 C2350 0.961 . S
H2364 C2350 0.961 . S
H2365 C2351 0.958 . S
H2366 C2351 0.961 . S
H2367 C2351 0.960 . S
C2368 C2369 1.391 . S
C2368 C2370 1.394 . S
C2368 H2384 0.931 . S
C2369 C2368 1.391 . S
C2369 C2373 1.376 . S
C2370 C2368 1.394 . S
C2370 C2371 1.369 . S
C2370 C2374 1.531 . S
C2371 C2370 1.369 . S
C2371 C2372 1.410 . S
C2371 C2379 1.503 . S
C2372 C2371 1.410 . S
C2372 C2373 1.392 . S
C2372 C2375 1.511 . S
C2373 C2369 1.376 . S
C2373 C2372 1.392 . S
C2373 H2385 0.929 . S
C2374 C2370 1.531 . S
C2374 H2386 0.960 . S
C2374 H2387 0.962 . S
C2374 H2388 0.960 . S
C2375 C2372 1.511 . S
C2375 H2389 0.961 . S
C2375 H2390 0.961 . S
C2375 H2391 0.961 . S
C2376 C2377 1.370 . S
C2376 C2378 1.363 . S
C2376 H2392 0.931 . S
C2377 C2376 1.370 . S
C2377 C2381 1.408 . S
C2378 C2376 1.363 . S
C2378 C2379 1.370 . S
C2378 C2382 1.524 . S
C2379 C2371 1.503 . S
C2379 C2378 1.370 . S
C2379 C2380 1.403 . S
C2380 C2379 1.403 . S
C2380 C2381 1.404 . S
C2380 C2383 1.539 . S
C2381 C2377 1.408 . S
C2381 C2380 1.404 . S
C2381 H2393 0.930 . S
C2382 C2378 1.524 . S
C2382 H2394 0.956 . S
C2382 H2395 0.961 . S
C2382 H2396 0.961 . S
C2383 C2380 1.539 . S
C2383 H2397 0.958 . S
C2383 H2398 0.961 . S
C2383 H2399 0.960 . S
H2384 C2368 0.931 . S
H2385 C2373 0.929 . S
H2386 C2374 0.960 . S
H2387 C2374 0.962 . S
H2388 C2374 0.960 . S
H2389 C2375 0.961 . S
H2390 C2375 0.961 . S
H2391 C2375 0.961 . S
H2392 C2376 0.931 . S
H2393 C2381 0.930 . S
H2394 C2382 0.956 . S
H2395 C2382 0.961 . S
H2396 C2382 0.961 . S
H2397 C2383 0.958 . S
H2398 C2383 0.961 . S
H2399 C2383 0.960 . S
C2400 C2401 1.391 . S
C2400 C2402 1.394 . S
C2400 H2416 0.931 . S
C2401 C2400 1.391 . S
C2401 C2405 1.376 1_545 S
C2402 C2400 1.394 . S
C2402 C2403 1.369 . S
C2402 C2406 1.531 . S
C2403 C2402 1.369 . S
C2403 C2404 1.410 1_545 S
C2403 C2411 1.503 . S
C2404 C2403 1.410 1_565 S
C2404 C2405 1.392 . S
C2404 C2407 1.511 . S
C2405 C2401 1.376 1_565 S
C2405 C2404 1.392 . S
C2405 H2417 0.929 . S
C2406 C2402 1.531 . S
C2406 H2418 0.960 . S
C2406 H2419 0.962 . S
C2406 H2420 0.960 . S
C2407 C2404 1.511 . S
C2407 H2421 0.961 . S
C2407 H2422 0.961 . S
C2407 H2423 0.961 . S
C2408 C2409 1.370 1_545 S
C2408 C2410 1.363 . S
C2408 H2424 0.931 . S
C2409 C2408 1.370 1_565 S
C2409 C2413 1.408 . S
C2410 C2408 1.363 . S
C2410 C2411 1.370 . S
C2410 C2414 1.524 . S
C2411 C2403 1.503 . S
C2411 C2410 1.370 . S
C2411 C2412 1.403 1_545 S
C2412 C2411 1.403 1_565 S
C2412 C2413 1.404 . S
C2412 C2415 1.539 . S
C2413 C2409 1.408 . S
C2413 C2412 1.404 . S
C2413 H2425 0.930 . S
C2414 C2410 1.524 . S
C2414 H2426 0.956 . S
C2414 H2427 0.961 . S
C2414 H2428 0.961 . S
C2415 C2412 1.539 . S
C2415 H2429 0.958 . S
C2415 H2430 0.961 . S
C2415 H2431 0.960 . S
H2416 C2400 0.931 . S
H2417 C2405 0.929 . S
H2418 C2406 0.960 . S
H2419 C2406 0.962 . S
H2420 C2406 0.960 . S
H2421 C2407 0.961 . S
H2422 C2407 0.961 . S
H2423 C2407 0.961 . S
H2424 C2408 0.931 . S
H2425 C2413 0.930 . S
H2426 C2414 0.956 . S
H2427 C2414 0.961 . S
H2428 C2414 0.961 . S
H2429 C2415 0.958 . S
H2430 C2415 0.961 . S
H2431 C2415 0.960 . S
C2432 C2433 1.391 . S
C2432 C2434 1.394 . S
C2432 H2448 0.931 . S
C2433 C2432 1.391 . S
C2433 C2437 1.376 . S
C2434 C2432 1.394 . S
C2434 C2435 1.369 . S
C2434 C2438 1.531 . S
C2435 C2434 1.369 . S
C2435 C2436 1.410 . S
C2435 C2443 1.503 . S
C2436 C2435 1.410 . S
C2436 C2437 1.392 . S
C2436 C2439 1.511 . S
C2437 C2433 1.376 . S
C2437 C2436 1.392 . S
C2437 H2449 0.929 . S
C2438 C2434 1.531 . S
C2438 H2450 0.960 . S
C2438 H2451 0.962 . S
C2438 H2452 0.960 . S
C2439 C2436 1.511 . S
C2439 H2453 0.961 . S
C2439 H2454 0.961 . S
C2439 H2455 0.961 . S
C2440 C2441 1.370 . S
C2440 C2442 1.363 . S
C2440 H2456 0.931 . S
C2441 C2440 1.370 . S
C2441 C2445 1.408 . S
C2442 C2440 1.363 . S
C2442 C2443 1.370 . S
C2442 C2446 1.524 . S
C2443 C2435 1.503 . S
C2443 C2442 1.370 . S
C2443 C2444 1.403 . S
C2444 C2443 1.403 . S
C2444 C2445 1.404 . S
C2444 C2447 1.539 . S
C2445 C2441 1.408 . S
C2445 C2444 1.404 . S
C2445 H2457 0.930 . S
C2446 C2442 1.524 . S
C2446 H2458 0.956 . S
C2446 H2459 0.961 . S
C2446 H2460 0.961 . S
C2447 C2444 1.539 . S
C2447 H2461 0.958 . S
C2447 H2462 0.961 . S
C2447 H2463 0.960 . S
H2448 C2432 0.931 . S
H2449 C2437 0.929 . S
H2450 C2438 0.960 . S
H2451 C2438 0.962 . S
H2452 C2438 0.960 . S
H2453 C2439 0.961 . S
H2454 C2439 0.961 . S
H2455 C2439 0.961 . S
H2456 C2440 0.931 . S
H2457 C2445 0.930 . S
H2458 C2446 0.956 . S
H2459 C2446 0.961 . S
H2460 C2446 0.961 . S
H2461 C2447 0.958 . S
H2462 C2447 0.961 . S
H2463 C2447 0.960 . S
C2464 C2465 1.391 . S
C2464 C2466 1.394 . S
C2464 H2480 0.931 . S
C2465 C2464 1.391 . S
C2465 C2469 1.376 . S
C2466 C2464 1.394 . S
C2466 C2467 1.369 . S
C2466 C2470 1.531 . S
C2467 C2466 1.369 . S
C2467 C2468 1.410 1_554 S
C2467 C2475 1.503 . S
C2468 C2467 1.410 1_556 S
C2468 C2469 1.392 1_556 S
C2468 C2471 1.511 . S
C2469 C2465 1.376 . S
C2469 C2468 1.392 1_554 S
C2469 H2481 0.929 1_554 S
C2470 C2466 1.531 . S
C2470 H2482 0.960 . S
C2470 H2483 0.962 . S
C2470 H2484 0.960 . S
C2471 C2468 1.511 . S
C2471 H2485 0.961 . S
C2471 H2486 0.961 . S
C2471 H2487 0.961 . S
C2472 C2473 1.363 1_554 S
C2472 C2474 1.363 . S
C2472 H2488 0.931 . S
C2473 C2472 1.363 1_556 S
C2473 C2477 1.413 . S
C2474 C2472 1.363 . S
C2474 C2475 1.370 . S
C2474 C2478 1.524 . S
C2475 C2467 1.503 . S
C2475 C2474 1.370 . S
C2475 C2476 1.403 1_554 S
C2476 C2475 1.403 1_556 S
C2476 C2477 1.404 . S
C2476 C2479 1.539 . S
C2477 C2473 1.413 . S
C2477 C2476 1.404 . S
C2477 H2489 0.930 . S
C2478 C2474 1.524 . S
C2478 H2490 0.956 . S
C2478 H2491 0.961 . S
C2478 H2492 0.961 . S
C2479 C2476 1.539 . S
C2479 H2493 0.958 . S
C2479 H2494 0.961 . S
C2479 H2495 0.960 . S
H2480 C2464 0.931 . S
H2481 C2469 0.929 1_556 S
H2482 C2470 0.960 . S
H2483 C2470 0.962 . S
H2484 C2470 0.960 . S
H2485 C2471 0.961 . S
H2486 C2471 0.961 . S
H2487 C2471 0.961 . S
H2488 C2472 0.931 . S
H2489 C2477 0.930 . S
H2490 C2478 0.956 . S
H2491 C2478 0.961 . S
H2492 C2478 0.961 . S
H2493 C2479 0.958 . S
H2494 C2479 0.961 . S
H2495 C2479 0.960 . S
C2496 C2497 1.391 . S
C2496 C2498 1.394 . S
C2496 H2512 0.931 . S
C2497 C2496 1.391 . S
C2497 C2501 1.376 . S
C2498 C2496 1.394 . S
C2498 C2499 1.369 . S
C2498 C2502 1.531 . S
C2499 C2498 1.369 . S
C2499 C2500 1.410 . S
C2499 C2507 1.503 . S
C2500 C2499 1.410 . S
C2500 C2501 1.392 . S
C2500 C2503 1.511 . S
C2501 C2497 1.376 . S
C2501 C2500 1.392 . S
C2501 H2513 0.929 . S
C2502 C2498 1.531 . S
C2502 H2514 0.960 . S
C2502 H2515 0.962 . S
C2502 H2516 0.960 . S
C2503 C2500 1.511 . S
C2503 H2517 0.961 . S
C2503 H2518 0.961 . S
C2503 H2519 0.973 . S
C2504 C2505 1.370 . S
C2504 C2506 1.363 . S
C2504 H2520 0.931 . S
C2505 C2504 1.370 . S
C2505 C2509 1.408 . S
C2506 C2504 1.363 . S
C2506 C2507 1.370 . S
C2506 C2510 1.524 . S
C2507 C2499 1.503 . S
C2507 C2506 1.370 . S
C2507 C2508 1.403 . S
C2508 C2507 1.403 . S
C2508 C2509 1.404 . S
C2508 C2511 1.539 1_554 S
C2509 C2505 1.408 . S
C2509 C2508 1.404 . S
C2509 H2521 0.930 1_554 S
C2510 C2506 1.524 . S
C2510 H2522 0.956 . S
C2510 H2523 0.961 . S
C2510 H2524 0.961 . S
C2511 C2508 1.539 1_556 S
C2511 H2525 0.958 . S
C2511 H2526 0.961 . S
C2511 H2527 0.960 . S
H2512 C2496 0.931 . S
H2513 C2501 0.929 . S
H2514 C2502 0.960 . S
H2515 C2502 0.962 . S
H2516 C2502 0.960 . S
H2517 C2503 0.961 . S
H2518 C2503 0.961 . S
H2519 C2503 0.973 . S
H2520 C2504 0.931 . S
H2521 C2509 0.930 1_556 S
H2522 C2510 0.956 . S
H2523 C2510 0.961 . S
H2524 C2510 0.961 . S
H2525 C2511 0.958 . S
H2526 C2511 0.961 . S
H2527 C2511 0.960 . S
C2528 C2529 1.391 . S
C2528 C2530 1.394 . S
C2528 H2544 0.931 . S
C2529 C2528 1.391 . S
C2529 C2533 1.376 . S
C2530 C2528 1.394 . S
C2530 C2531 1.369 . S
C2530 C2534 1.531 . S
C2531 C2530 1.369 . S
C2531 C2532 1.410 . S
C2531 C2539 1.503 . S
C2532 C2531 1.410 . S
C2532 C2533 1.392 . S
C2532 C2535 1.511 . S
C2533 C2529 1.376 . S
C2533 C2532 1.392 . S
C2533 H2545 0.929 . S
C2534 C2530 1.531 . S
C2534 H2546 0.960 . S
C2534 H2547 0.962 . S
C2534 H2548 0.960 . S
C2535 C2532 1.511 . S
C2535 H2549 0.961 . S
C2535 H2550 0.961 . S
C2535 H2551 0.961 . S
C2536 C2537 1.370 . S
C2536 C2538 1.363 . S
C2536 H2552 0.931 . S
C2537 C2536 1.370 . S
C2537 C2541 1.408 . S
C2538 C2536 1.363 . S
C2538 C2539 1.370 . S
C2538 C2542 1.524 . S
C2539 C2531 1.503 . S
C2539 C2538 1.370 . S
C2539 C2540 1.403 . S
C2540 C2539 1.403 . S
C2540 C2541 1.404 . S
C2540 C2543 1.539 . S
C2541 C2537 1.408 . S
C2541 C2540 1.404 . S
C2541 H2553 0.930 . S
C2542 C2538 1.524 . S
C2542 H2554 0.956 . S
C2542 H2555 0.961 . S
C2542 H2556 0.961 . S
C2543 C2540 1.539 . S
C2543 H2557 0.958 . S
C2543 H2558 0.961 . S
C2543 H2559 0.960 . S
H2544 C2528 0.931 . S
H2545 C2533 0.929 . S
H2546 C2534 0.960 . S
H2547 C2534 0.962 . S
H2548 C2534 0.960 . S
H2549 C2535 0.961 . S
H2550 C2535 0.961 . S
H2551 C2535 0.961 . S
H2552 C2536 0.931 . S
H2553 C2541 0.930 . S
H2554 C2542 0.956 . S
H2555 C2542 0.961 . S
H2556 C2542 0.961 . S
H2557 C2543 0.958 . S
H2558 C2543 0.961 . S
H2559 C2543 0.960 . S
C2560 C2561 1.391 . S
C2560 C2562 1.394 . S
C2560 H2576 0.931 . S
C2561 C2560 1.391 . S
C2561 C2565 1.376 . S
C2562 C2560 1.394 . S
C2562 C2563 1.369 . S
C2562 C2566 1.531 . S
C2563 C2562 1.369 . S
C2563 C2564 1.410 . S
C2563 C2571 1.503 . S
C2564 C2563 1.410 . S
C2564 C2565 1.392 . S
C2564 C2567 1.511 . S
C2565 C2561 1.376 . S
C2565 C2564 1.392 . S
C2565 H2577 0.929 . S
C2566 C2562 1.531 . S
C2566 H2578 0.960 . S
C2566 H2579 0.962 . S
C2566 H2580 0.960 . S
C2567 C2564 1.511 . S
C2567 H2581 0.961 . S
C2567 H2582 0.961 . S
C2567 H2583 0.961 . S
C2568 C2569 1.370 . S
C2568 C2570 1.363 . S
C2568 H2584 0.931 . S
C2569 C2568 1.370 . S
C2569 C2573 1.408 . S
C2570 C2568 1.363 . S
C2570 C2571 1.370 . S
C2570 C2574 1.524 . S
C2571 C2563 1.503 . S
C2571 C2570 1.370 . S
C2571 C2572 1.403 . S
C2572 C2571 1.403 . S
C2572 C2573 1.404 . S
C2572 C2575 1.539 . S
C2573 C2569 1.408 . S
C2573 C2572 1.404 . S
C2573 H2585 0.930 . S
C2574 C2570 1.524 . S
C2574 H2586 0.956 . S
C2574 H2587 0.961 . S
C2574 H2588 0.961 . S
C2575 C2572 1.539 . S
C2575 H2589 0.958 . S
C2575 H2590 0.961 . S
C2575 H2591 0.960 . S
H2576 C2560 0.931 . S
H2577 C2565 0.929 . S
H2578 C2566 0.960 . S
H2579 C2566 0.962 . S
H2580 C2566 0.960 . S
H2581 C2567 0.961 . S
H2582 C2567 0.961 . S
H2583 C2567 0.961 . S
H2584 C2568 0.931 . S
H2585 C2573 0.930 . S
H2586 C2574 0.956 . S
H2587 C2574 0.961 . S
H2588 C2574 0.961 . S
H2589 C2575 0.958 . S
H2590 C2575 0.961 . S
H2591 C2575 0.960 . S
C2592 C2593 1.391 . S
C2592 C2594 1.394 . S
C2592 H2608 0.931 . S
C2593 C2592 1.391 . S
C2593 C2597 1.376 . S
C2594 C2592 1.394 . S
C2594 C2595 1.369 . S
C2594 C2598 1.531 . S
C2595 C2594 1.369 . S
C2595 C2596 1.410 . S
C2595 C2603 1.503 . S
C2596 C2595 1.410 . S
C2596 C2597 1.392 . S
C2596 C2599 1.511 . S
C2597 C2593 1.376 . S
C2597 C2596 1.392 . S
C2597 H2609 0.929 . S
C2598 C2594 1.531 . S
C2598 H2610 0.960 . S
C2598 H2611 0.962 . S
C2598 H2612 0.960 . S
C2599 C2596 1.511 . S
C2599 H2613 0.961 . S
C2599 H2614 0.961 . S
C2599 H2615 0.961 . S
C2600 C2601 1.370 . S
C2600 C2602 1.363 . S
C2600 H2616 0.931 . S
C2601 C2600 1.370 . S
C2601 C2605 1.408 . S
C2602 C2600 1.363 . S
C2602 C2603 1.370 . S
C2602 C2606 1.524 . S
C2603 C2595 1.503 . S
C2603 C2602 1.370 . S
C2603 C2604 1.403 . S
C2604 C2603 1.403 . S
C2604 C2605 1.404 . S
C2604 C2607 1.539 . S
C2605 C2601 1.408 . S
C2605 C2604 1.404 . S
C2605 H2617 0.930 . S
C2606 C2602 1.524 . S
C2606 H2618 0.956 . S
C2606 H2619 0.961 . S
C2606 H2620 0.961 . S
C2607 C2604 1.539 . S
C2607 H2621 0.958 . S
C2607 H2622 0.961 . S
C2607 H2623 0.960 . S
H2608 C2592 0.931 . S
H2609 C2597 0.929 . S
H2610 C2598 0.960 . S
H2611 C2598 0.962 . S
H2612 C2598 0.960 . S
H2613 C2599 0.961 . S
H2614 C2599 0.961 . S
H2615 C2599 0.961 . S
H2616 C2600 0.931 . S
H2617 C2605 0.930 . S
H2618 C2606 0.956 . S
H2619 C2606 0.961 . S
H2620 C2606 0.961 . S
H2621 C2607 0.958 . S
H2622 C2607 0.961 . S
H2623 C2607 0.960 . S
C2624 C2625 1.391 . S
C2624 C2626 1.394 . S
C2624 H2640 0.931 . S
C2625 C2624 1.391 . S
C2625 C2629 1.376 . S
C2626 C2624 1.394 . S
C2626 C2627 1.369 . S
C2626 C2630 1.531 . S
C2627 C2626 1.369 . S
C2627 C2628 1.410 . S
C2627 C2635 1.503 . S
C2628 C2627 1.410 . S
C2628 C2629 1.392 . S
C2628 C2631 1.511 . S
C2629 C2625 1.376 . S
C2629 C2628 1.392 . S
C2629 H2641 0.929 . S
C2630 C2626 1.531 . S
C2630 H2642 0.960 . S
C2630 H2643 0.962 . S
C2630 H2644 0.960 . S
C2631 C2628 1.511 . S
C2631 H2645 0.961 . S
C2631 H2646 0.961 . S
C2631 H2647 0.961 . S
C2632 C2633 1.370 . S
C2632 C2634 1.363 . S
C2632 H2648 0.931 . S
C2633 C2632 1.370 . S
C2633 C2637 1.408 . S
C2634 C2632 1.363 . S
C2634 C2635 1.370 . S
C2634 C2638 1.524 . S
C2635 C2627 1.503 . S
C2635 C2634 1.370 . S
C2635 C2636 1.403 . S
C2636 C2635 1.403 . S
C2636 C2637 1.404 . S
C2636 C2639 1.539 . S
C2637 C2633 1.408 . S
C2637 C2636 1.404 . S
C2637 H2649 0.930 1_565 S
C2638 C2634 1.524 . S
C2638 H2650 0.956 . S
C2638 H2651 0.961 . S
C2638 H2652 0.961 . S
C2639 C2636 1.539 . S
C2639 H2653 0.958 . S
C2639 H2654 0.961 1_565 S
C2639 H2655 0.960 . S
H2640 C2624 0.931 . S
H2641 C2629 0.929 . S
H2642 C2630 0.960 . S
H2643 C2630 0.962 . S
H2644 C2630 0.960 . S
H2645 C2631 0.961 . S
H2646 C2631 0.961 . S
H2647 C2631 0.961 . S
H2648 C2632 0.931 . S
H2649 C2637 0.930 1_545 S
H2650 C2638 0.956 . S
H2651 C2638 0.961 . S
H2652 C2638 0.961 . S
H2653 C2639 0.958 . S
H2654 C2639 0.961 1_545 S
H2655 C2639 0.960 . S
C2656 C2657 1.391 . S
C2656 C2658 1.394 . S
C2656 H2672 0.931 . S
C2657 C2656 1.391 . S
C2657 C2661 1.376 . S
C2658 C2656 1.394 . S
C2658 C2659 1.369 . S
C2658 C2662 1.531 . S
C2659 C2658 1.369 . S
C2659 C2660 1.410 . S
C2659 C2667 1.503 . S
C2660 C2659 1.410 . S
C2660 C2661 1.392 . S
C2660 C2663 1.511 . S
C2661 C2657 1.376 . S
C2661 C2660 1.392 . S
C2661 H2673 0.929 . S
C2662 C2658 1.531 . S
C2662 H2674 0.960 . S
C2662 H2675 0.962 . S
C2662 H2676 0.960 . S
C2663 C2660 1.511 . S
C2663 H2677 0.961 . S
C2663 H2678 0.961 . S
C2663 H2679 0.961 . S
C2664 C2665 1.370 . S
C2664 C2666 1.363 . S
C2664 H2680 0.931 . S
C2665 C2664 1.370 . S
C2665 C2669 1.408 . S
C2666 C2664 1.363 . S
C2666 C2667 1.370 . S
C2666 C2670 1.524 . S
C2667 C2659 1.503 . S
C2667 C2666 1.370 . S
C2667 C2668 1.403 . S
C2668 C2667 1.403 . S
C2668 C2669 1.404 . S
C2668 C2671 1.539 . S
C2669 C2665 1.408 . S
C2669 C2668 1.404 . S
C2669 H2681 0.930 . S
C2670 C2666 1.524 . S
C2670 H2682 0.956 . S
C2670 H2683 0.961 . S
C2670 H2684 0.961 . S
C2671 C2668 1.539 . S
C2671 H2685 0.958 . S
C2671 H2686 0.961 . S
C2671 H2687 0.960 . S
H2672 C2656 0.931 . S
H2673 C2661 0.929 . S
H2674 C2662 0.960 . S
H2675 C2662 0.962 . S
H2676 C2662 0.960 . S
H2677 C2663 0.961 . S
H2678 C2663 0.961 . S
H2679 C2663 0.961 . S
H2680 C2664 0.931 . S
H2681 C2669 0.930 . S
H2682 C2670 0.956 . S
H2683 C2670 0.961 . S
H2684 C2670 0.961 . S
H2685 C2671 0.958 . S
H2686 C2671 0.961 . S
H2687 C2671 0.960 . S
C2688 C2689 1.391 . S
C2688 C2690 1.394 . S
C2688 H2704 0.931 . S
C2689 C2688 1.391 . S
C2689 C2693 1.376 . S
C2690 C2688 1.394 . S
C2690 C2691 1.369 . S
C2690 C2694 1.531 . S
C2691 C2690 1.369 . S
C2691 C2692 1.410 . S
C2691 C2699 1.503 . S
C2692 C2691 1.410 . S
C2692 C2693 1.392 . S
C2692 C2695 1.511 . S
C2693 C2689 1.376 . S
C2693 C2692 1.392 . S
C2693 H2705 0.929 . S
C2694 C2690 1.531 . S
C2694 H2706 0.960 . S
C2694 H2707 0.962 . S
C2694 H2708 0.960 . S
C2695 C2692 1.511 . S
C2695 H2709 0.961 . S
C2695 H2710 0.961 . S
C2695 H2711 0.961 . S
C2696 C2697 1.370 . S
C2696 C2698 1.363 . S
C2696 H2712 0.931 . S
C2697 C2696 1.370 . S
C2697 C2701 1.408 . S
C2698 C2696 1.363 . S
C2698 C2699 1.370 . S
C2698 C2702 1.524 . S
C2699 C2691 1.503 . S
C2699 C2698 1.370 . S
C2699 C2700 1.403 . S
C2700 C2699 1.403 . S
C2700 C2701 1.404 . S
C2700 C2703 1.539 . S
C2701 C2697 1.408 . S
C2701 C2700 1.404 . S
C2701 H2713 0.930 . S
C2702 C2698 1.524 . S
C2702 H2714 0.956 . S
C2702 H2715 0.961 . S
C2702 H2716 0.961 . S
C2703 C2700 1.539 . S
C2703 H2717 0.958 . S
C2703 H2718 0.961 . S
C2703 H2719 0.960 . S
H2704 C2688 0.931 . S
H2705 C2693 0.929 . S
H2706 C2694 0.960 . S
H2707 C2694 0.962 . S
H2708 C2694 0.960 . S
H2709 C2695 0.961 . S
H2710 C2695 0.961 . S
H2711 C2695 0.961 . S
H2712 C2696 0.931 . S
H2713 C2701 0.930 . S
H2714 C2702 0.956 . S
H2715 C2702 0.961 . S
H2716 C2702 0.961 . S
H2717 C2703 0.958 . S
H2718 C2703 0.961 . S
H2719 C2703 0.960 . S
C2720 C2721 1.391 . S
C2720 C2722 1.394 . S
C2720 H2736 0.931 . S
C2721 C2720 1.391 . S
C2721 C2725 1.376 . S
C2722 C2720 1.394 . S
C2722 C2723 1.369 . S
C2722 C2726 1.531 . S
C2723 C2722 1.369 . S
C2723 C2724 1.410 . S
C2723 C2731 1.503 . S
C2724 C2723 1.410 . S
C2724 C2725 1.392 . S
C2724 C2727 1.511 . S
C2725 C2721 1.376 . S
C2725 C2724 1.392 . S
C2725 H2737 0.929 . S
C2726 C2722 1.531 . S
C2726 H2738 0.960 . S
C2726 H2739 0.962 . S
C2726 H2740 0.960 . S
C2727 C2724 1.511 . S
C2727 H2741 0.961 . S
C2727 H2742 0.961 . S
C2727 H2743 0.961 . S
C2728 C2729 1.370 . S
C2728 C2730 1.363 . S
C2728 H2744 0.931 . S
C2729 C2728 1.370 . S
C2729 C2733 1.408 . S
C2730 C2728 1.363 . S
C2730 C2731 1.370 . S
C2730 C2734 1.524 . S
C2731 C2723 1.503 . S
C2731 C2730 1.370 . S
C2731 C2732 1.403 . S
C2732 C2731 1.403 . S
C2732 C2733 1.404 . S
C2732 C2735 1.539 . S
C2733 C2729 1.408 . S
C2733 C2732 1.404 . S
C2733 H2745 0.930 . S
C2734 C2730 1.524 . S
C2734 H2746 0.956 . S
C2734 H2747 0.961 . S
C2734 H2748 0.961 . S
C2735 C2732 1.539 . S
C2735 H2749 0.958 . S
C2735 H2750 0.961 . S
C2735 H2751 0.960 . S
H2736 C2720 0.931 . S
H2737 C2725 0.929 . S
H2738 C2726 0.960 . S
H2739 C2726 0.962 . S
H2740 C2726 0.960 . S
H2741 C2727 0.961 . S
H2742 C2727 0.961 . S
H2743 C2727 0.961 . S
H2744 C2728 0.931 . S
H2745 C2733 0.930 . S
H2746 C2734 0.956 . S
H2747 C2734 0.961 . S
H2748 C2734 0.961 . S
H2749 C2735 0.958 . S
H2750 C2735 0.961 . S
H2751 C2735 0.960 . S
C2752 C2753 1.391 . S
C2752 C2754 1.394 . S
C2752 H2768 0.931 . S
C2753 C2752 1.391 . S
C2753 C2757 1.376 . S
C2754 C2752 1.394 . S
C2754 C2755 1.369 . S
C2754 C2758 1.531 . S
C2755 C2754 1.369 . S
C2755 C2756 1.410 . S
C2755 C2763 1.503 . S
C2756 C2755 1.410 . S
C2756 C2757 1.392 . S
C2756 C2759 1.511 . S
C2757 C2753 1.376 . S
C2757 C2756 1.392 . S
C2757 H2769 0.929 . S
C2758 C2754 1.531 . S
C2758 H2770 0.960 . S
C2758 H2771 0.962 . S
C2758 H2772 0.960 . S
C2759 C2756 1.511 . S
C2759 H2773 0.961 . S
C2759 H2774 0.961 . S
C2759 H2775 0.961 . S
C2760 C2761 1.370 . S
C2760 C2762 1.363 . S
C2760 H2776 0.931 . S
C2761 C2760 1.370 . S
C2761 C2765 1.408 . S
C2762 C2760 1.363 . S
C2762 C2763 1.370 . S
C2762 C2766 1.524 . S
C2763 C2755 1.503 . S
C2763 C2762 1.370 . S
C2763 C2764 1.403 . S
C2764 C2763 1.403 . S
C2764 C2765 1.404 . S
C2764 C2767 1.539 . S
C2765 C2761 1.408 . S
C2765 C2764 1.404 . S
C2765 H2777 0.930 . S
C2766 C2762 1.524 . S
C2766 H2778 0.956 . S
C2766 H2779 0.961 . S
C2766 H2780 0.961 . S
C2767 C2764 1.539 . S
C2767 H2781 0.958 . S
C2767 H2782 0.961 . S
C2767 H2783 0.960 . S
H2768 C2752 0.931 . S
H2769 C2757 0.929 . S
H2770 C2758 0.960 . S
H2771 C2758 0.962 . S
H2772 C2758 0.960 . S
H2773 C2759 0.961 . S
H2774 C2759 0.961 . S
H2775 C2759 0.961 . S
H2776 C2760 0.931 . S
H2777 C2765 0.930 . S
H2778 C2766 0.956 . S
H2779 C2766 0.961 . S
H2780 C2766 0.961 . S
H2781 C2767 0.958 . S
H2782 C2767 0.961 . S
H2783 C2767 0.960 . S
C2784 C2785 1.391 . S
C2784 C2786 1.394 . S
C2784 H2800 0.931 . S
C2785 C2784 1.391 . S
C2785 C2789 1.376 . S
C2786 C2784 1.394 . S
C2786 C2787 1.369 . S
C2786 C2790 1.531 . S
C2787 C2786 1.369 . S
C2787 C2788 1.410 . S
C2787 C2795 1.503 . S
C2788 C2787 1.410 . S
C2788 C2789 1.392 . S
C2788 C2791 1.511 . S
C2789 C2785 1.376 . S
C2789 C2788 1.392 . S
C2789 H2801 0.928 1_455 S
C2790 C2786 1.531 . S
C2790 H2802 0.960 . S
C2790 H2803 0.962 1_556 S
C2790 H2804 0.960 . S
C2791 C2788 1.511 . S
C2791 H2805 0.961 1_455 S
C2791 H2806 0.961 1_455 S
C2791 H2807 0.961 . S
C2792 C2793 1.370 1_655 S
C2792 C2794 1.363 . S
C2792 H2808 0.931 . S
C2793 C2792 1.370 1_455 S
C2793 C2797 1.408 . S
C2794 C2792 1.363 . S
C2794 C2795 1.370 1_655 S
C2794 C2798 1.524 . S
C2795 C2787 1.503 . S
C2795 C2794 1.370 1_455 S
C2795 C2796 1.403 . S
C2796 C2795 1.403 . S
C2796 C2797 1.404 . S
C2796 C2799 1.539 . S
C2797 C2793 1.408 . S
C2797 C2796 1.404 . S
C2797 H2809 0.930 . S
C2798 C2794 1.524 . S
C2798 H2810 0.956 . S
C2798 H2811 0.961 . S
C2798 H2812 0.961 . S
C2799 C2796 1.539 . S
C2799 H2813 0.958 . S
C2799 H2814 0.961 . S
C2799 H2815 0.960 . S
H2800 C2784 0.931 . S
H2801 C2789 0.928 1_655 S
H2802 C2790 0.960 . S
H2803 C2790 0.962 1_554 S
H2804 C2790 0.960 . S
H2805 C2791 0.961 1_655 S
H2806 C2791 0.961 1_655 S
H2807 C2791 0.961 . S
H2808 C2792 0.931 . S
H2809 C2797 0.930 . S
H2810 C2798 0.956 . S
H2811 C2798 0.961 . S
H2812 C2798 0.961 . S
H2813 C2799 0.958 . S
H2814 C2799 0.961 . S
H2815 C2799 0.960 . S
C2816 C2817 1.391 . S
C2816 C2818 1.394 . S
C2816 H2832 0.931 . S
C2817 C2816 1.391 . S
C2817 C2821 1.376 . S
C2818 C2816 1.394 . S
C2818 C2819 1.369 . S
C2818 C2822 1.531 . S
C2819 C2818 1.369 . S
C2819 C2820 1.410 . S
C2819 C2827 1.503 . S
C2820 C2819 1.410 . S
C2820 C2821 1.392 . S
C2820 C2823 1.511 . S
C2821 C2817 1.376 . S
C2821 C2820 1.392 . S
C2821 H2833 0.929 . S
C2822 C2818 1.531 . S
C2822 H2834 0.960 . S
C2822 H2835 0.962 . S
C2822 H2836 0.960 . S
C2823 C2820 1.511 . S
C2823 H2837 0.961 . S
C2823 H2838 0.961 . S
C2823 H2839 0.961 . S
C2824 C2825 1.370 . S
C2824 C2826 1.363 . S
C2824 H2840 0.931 . S
C2825 C2824 1.370 . S
C2825 C2829 1.408 . S
C2826 C2824 1.363 . S
C2826 C2827 1.370 . S
C2826 C2830 1.524 . S
C2827 C2819 1.503 . S
C2827 C2826 1.370 . S
C2827 C2828 1.403 . S
C2828 C2827 1.403 . S
C2828 C2829 1.404 . S
C2828 C2831 1.539 . S
C2829 C2825 1.408 . S
C2829 C2828 1.404 . S
C2829 H2841 0.930 . S
C2830 C2826 1.524 . S
C2830 H2842 0.956 . S
C2830 H2843 0.961 . S
C2830 H2844 0.961 . S
C2831 C2828 1.539 . S
C2831 H2845 0.958 . S
C2831 H2846 0.961 . S
C2831 H2847 0.960 . S
H2832 C2816 0.931 . S
H2833 C2821 0.929 . S
H2834 C2822 0.960 . S
H2835 C2822 0.962 . S
H2836 C2822 0.960 . S
H2837 C2823 0.961 . S
H2838 C2823 0.961 . S
H2839 C2823 0.961 . S
H2840 C2824 0.931 . S
H2841 C2829 0.930 . S
H2842 C2830 0.956 . S
H2843 C2830 0.961 . S
H2844 C2830 0.961 . S
H2845 C2831 0.958 . S
H2846 C2831 0.961 . S
H2847 C2831 0.960 . S
C2848 C2849 1.391 . S
C2848 C2850 1.394 . S
C2848 H2864 0.931 . S
C2849 C2848 1.391 . S
C2849 C2853 1.376 . S
C2850 C2848 1.394 . S
C2850 C2851 1.369 . S
C2850 C2854 1.531 . S
C2851 C2850 1.369 . S
C2851 C2852 1.410 . S
C2851 C2859 1.503 . S
C2852 C2851 1.410 . S
C2852 C2853 1.392 . S
C2852 C2855 1.511 . S
C2853 C2849 1.376 . S
C2853 C2852 1.392 . S
C2853 H2865 0.929 . S
C2854 C2850 1.531 . S
C2854 H2866 0.960 . S
C2854 H2867 0.962 . S
C2854 H2868 0.960 . S
C2855 C2852 1.511 . S
C2855 H2869 0.961 . S
C2855 H2870 0.961 . S
C2855 H2871 0.961 . S
C2856 C2857 1.370 . S
C2856 C2858 1.363 . S
C2856 H2872 0.931 . S
C2857 C2856 1.370 . S
C2857 C2861 1.408 . S
C2858 C2856 1.363 . S
C2858 C2859 1.370 . S
C2858 C2862 1.524 . S
C2859 C2851 1.503 . S
C2859 C2858 1.370 . S
C2859 C2860 1.403 . S
C2860 C2859 1.403 . S
C2860 C2861 1.404 . S
C2860 C2863 1.539 . S
C2861 C2857 1.408 . S
C2861 C2860 1.404 . S
C2861 H2873 0.930 . S
C2862 C2858 1.524 . S
C2862 H2874 0.956 . S
C2862 H2875 0.961 . S
C2862 H2876 0.961 . S
C2863 C2860 1.539 . S
C2863 H2877 0.958 . S
C2863 H2878 0.961 . S
C2863 H2879 0.960 . S
H2864 C2848 0.931 . S
H2865 C2853 0.929 . S
H2866 C2854 0.960 . S
H2867 C2854 0.962 . S
H2868 C2854 0.960 . S
H2869 C2855 0.961 . S
H2870 C2855 0.961 . S
H2871 C2855 0.961 . S
H2872 C2856 0.931 . S
H2873 C2861 0.930 . S
H2874 C2862 0.956 . S
H2875 C2862 0.961 . S
H2876 C2862 0.961 . S
H2877 C2863 0.958 . S
H2878 C2863 0.961 . S
H2879 C2863 0.960 . S
C2880 C2881 1.391 . S
C2880 C2882 1.394 . S
C2880 H2896 0.931 . S
C2881 C2880 1.391 . S
C2881 C2885 1.376 . S
C2882 C2880 1.394 . S
C2882 C2883 1.369 . S
C2882 C2886 1.531 . S
C2883 C2882 1.369 . S
C2883 C2884 1.410 . S
C2883 C2891 1.503 . S
C2884 C2883 1.410 . S
C2884 C2885 1.392 . S
C2884 C2887 1.511 . S
C2885 C2881 1.376 . S
C2885 C2884 1.392 . S
C2885 H2897 0.929 . S
C2886 C2882 1.531 . S
C2886 H2898 0.960 . S
C2886 H2899 0.962 . S
C2886 H2900 0.960 . S
C2887 C2884 1.511 . S
C2887 H2901 0.961 . S
C2887 H2902 0.961 . S
C2887 H2903 0.961 . S
C2888 C2889 1.370 . S
C2888 C2890 1.363 . S
C2888 H2904 0.931 . S
C2889 C2888 1.370 . S
C2889 C2893 1.408 . S
C2890 C2888 1.363 . S
C2890 C2891 1.370 . S
C2890 C2894 1.524 . S
C2891 C2883 1.503 . S
C2891 C2890 1.370 . S
C2891 C2892 1.403 . S
C2892 C2891 1.403 . S
C2892 C2893 1.404 . S
C2892 C2895 1.539 . S
C2893 C2889 1.408 . S
C2893 C2892 1.404 . S
C2893 H2905 0.930 . S
C2894 C2890 1.524 . S
C2894 H2906 0.956 . S
C2894 H2907 0.961 . S
C2894 H2908 0.961 . S
C2895 C2892 1.539 . S
C2895 H2909 0.958 . S
C2895 H2910 0.961 . S
C2895 H2911 0.960 . S
H2896 C2880 0.931 . S
H2897 C2885 0.929 . S
H2898 C2886 0.960 . S
H2899 C2886 0.962 . S
H2900 C2886 0.960 . S
H2901 C2887 0.961 . S
H2902 C2887 0.961 . S
H2903 C2887 0.961 . S
H2904 C2888 0.931 . S
H2905 C2893 0.930 . S
H2906 C2894 0.956 . S
H2907 C2894 0.961 . S
H2908 C2894 0.961 . S
H2909 C2895 0.958 . S
H2910 C2895 0.961 . S
H2911 C2895 0.960 . S
C2912 C2913 1.388 1_655 S
C2912 C2914 1.394 . S
C2912 H2928 0.931 . S
C2913 C2912 1.388 1_455 S
C2913 C2917 1.382 . S
C2914 C2912 1.394 . S
C2914 C2915 1.382 . S
C2914 C2918 1.531 . S
C2915 C2914 1.382 . S
C2915 C2916 1.404 1_655 S
C2915 C2923 1.493 1_655 S
C2916 C2915 1.404 1_455 S
C2916 C2917 1.392 . S
C2916 C2919 1.511 . S
C2917 C2913 1.382 . S
C2917 C2916 1.392 . S
C2917 H2929 0.929 . S
C2918 C2914 1.531 . S
C2918 H2930 0.960 . S
C2918 H2931 0.962 . S
C2918 H2932 0.960 . S
C2919 C2916 1.511 . S
C2919 H2933 0.961 . S
C2919 H2934 0.961 . S
C2919 H2935 0.961 1_455 S
C2920 C2921 1.370 . S
C2920 C2922 1.363 . S
C2920 H2936 0.931 . S
C2921 C2920 1.370 . S
C2921 C2925 1.408 1_455 S
C2922 C2920 1.363 . S
C2922 C2923 1.370 . S
C2922 C2926 1.524 . S
C2923 C2915 1.493 1_455 S
C2923 C2922 1.370 . S
C2923 C2924 1.403 1_455 S
C2924 C2923 1.403 1_655 S
C2924 C2925 1.404 . S
C2924 C2927 1.539 . S
C2925 C2921 1.408 1_655 S
C2925 C2924 1.404 . S
C2925 H2937 0.930 . S
C2926 C2922 1.524 . S
C2926 H2938 0.956 . S
C2926 H2939 0.961 . S
C2926 H2940 0.961 . S
C2927 C2924 1.539 . S
C2927 H2941 0.958 . S
C2927 H2942 0.961 . S
C2927 H2943 0.960 . S
H2928 C2912 0.931 . S
H2929 C2917 0.929 . S
H2930 C2918 0.960 . S
H2931 C2918 0.962 . S
H2932 C2918 0.960 . S
H2933 C2919 0.961 . S
H2934 C2919 0.961 . S
H2935 C2919 0.961 1_655 S
H2936 C2920 0.931 . S
H2937 C2925 0.930 . S
H2938 C2926 0.956 . S
H2939 C2926 0.961 . S
H2940 C2926 0.961 . S
H2941 C2927 0.958 . S
H2942 C2927 0.961 . S
H2943 C2927 0.960 . S
C2944 C2945 1.391 . S
C2944 C2946 1.394 . S
C2944 H2960 0.931 . S
C2945 C2944 1.391 . S
C2945 C2949 1.376 . S
C2946 C2944 1.394 . S
C2946 C2947 1.369 . S
C2946 C2950 1.531 . S
C2947 C2946 1.369 . S
C2947 C2948 1.410 . S
C2947 C2955 1.503 . S
C2948 C2947 1.410 . S
C2948 C2949 1.392 . S
C2948 C2951 1.511 . S
C2949 C2945 1.376 . S
C2949 C2948 1.392 . S
C2949 H2961 0.929 . S
C2950 C2946 1.531 . S
C2950 H2962 0.960 . S
C2950 H2963 0.962 . S
C2950 H2964 0.960 . S
C2951 C2948 1.511 . S
C2951 H2965 0.961 . S
C2951 H2966 0.961 . S
C2951 H2967 0.961 . S
C2952 C2953 1.370 . S
C2952 C2954 1.363 . S
C2952 H2968 0.931 . S
C2953 C2952 1.370 . S
C2953 C2957 1.408 . S
C2954 C2952 1.363 . S
C2954 C2955 1.370 . S
C2954 C2958 1.524 . S
C2955 C2947 1.503 . S
C2955 C2954 1.370 . S
C2955 C2956 1.403 . S
C2956 C2955 1.403 . S
C2956 C2957 1.404 . S
C2956 C2959 1.539 . S
C2957 C2953 1.408 . S
C2957 C2956 1.404 . S
C2957 H2969 0.930 . S
C2958 C2954 1.524 . S
C2958 H2970 0.956 . S
C2958 H2971 0.961 . S
C2958 H2972 0.961 . S
C2959 C2956 1.539 . S
C2959 H2973 0.958 . S
C2959 H2974 0.961 . S
C2959 H2975 0.960 . S
H2960 C2944 0.931 . S
H2961 C2949 0.929 . S
H2962 C2950 0.960 . S
H2963 C2950 0.962 . S
H2964 C2950 0.960 . S
H2965 C2951 0.961 . S
H2966 C2951 0.961 . S
H2967 C2951 0.961 . S
H2968 C2952 0.931 . S
H2969 C2957 0.930 . S
H2970 C2958 0.956 . S
H2971 C2958 0.961 . S
H2972 C2958 0.961 . S
H2973 C2959 0.958 . S
H2974 C2959 0.961 . S
H2975 C2959 0.960 . S
C2976 C2977 1.391 . S
C2976 C2978 1.394 . S
C2976 H2992 0.931 . S
C2977 C2976 1.391 . S
C2977 C2981 1.376 . S
C2978 C2976 1.394 . S
C2978 C2979 1.369 . S
C2978 C2982 1.531 . S
C2979 C2978 1.369 . S
C2979 C2980 1.410 . S
C2979 C2987 1.503 . S
C2980 C2979 1.410 . S
C2980 C2981 1.392 . S
C2980 C2983 1.511 . S
C2981 C2977 1.376 . S
C2981 C2980 1.392 . S
C2981 H2993 0.929 . S
C2982 C2978 1.531 . S
C2982 H2994 0.960 . S
C2982 H2995 0.962 . S
C2982 H2996 0.960 . S
C2983 C2980 1.511 . S
C2983 H2997 0.961 . S
C2983 H2998 0.961 . S
C2983 H2999 0.961 . S
C2984 C2985 1.370 . S
C2984 C2986 1.363 . S
C2984 H3000 0.931 . S
C2985 C2984 1.370 . S
C2985 C2989 1.408 . S
C2986 C2984 1.363 . S
C2986 C2987 1.370 . S
C2986 C2990 1.524 . S
C2987 C2979 1.503 . S
C2987 C2986 1.370 . S
C2987 C2988 1.403 . S
C2988 C2987 1.403 . S
C2988 C2989 1.404 . S
C2988 C2991 1.539 . S
C2989 C2985 1.408 . S
C2989 C2988 1.404 . S
C2989 H3001 0.930 . S
C2990 C2986 1.524 . S
C2990 H3002 0.956 . S
C2990 H3003 0.961 . S
C2990 H3004 0.961 . S
C2991 C2988 1.539 . S
C2991 H3005 0.958 . S
C2991 H3006 0.961 . S
C2991 H3007 0.960 . S
H2992 C2976 0.931 . S
H2993 C2981 0.929 . S
H2994 C2982 0.960 . S
H2995 C2982 0.962 . S
H2996 C2982 0.960 . S
H2997 C2983 0.961 . S
H2998 C2983 0.961 . S
H2999 C2983 0.961 . S
H3000 C2984 0.931 . S
H3001 C2989 0.930 . S
H3002 C2990 0.956 . S
H3003 C2990 0.961 . S
H3004 C2990 0.961 . S
H3005 C2991 0.958 . S
H3006 C2991 0.961 . S
H3007 C2991 0.960 . S
C3008 C3009 1.391 . S
C3008 C3010 1.394 . S
C3008 H3024 0.931 . S
C3009 C3008 1.391 . S
C3009 C3013 1.376 . S
C3010 C3008 1.394 . S
C3010 C3011 1.369 . S
C3010 C3014 1.531 . S
C3011 C3010 1.369 . S
C3011 C3012 1.410 . S
C3011 C3019 1.503 . S
C3012 C3011 1.410 . S
C3012 C3013 1.392 . S
C3012 C3015 1.511 . S
C3013 C3009 1.376 . S
C3013 C3012 1.392 . S
C3013 H3025 0.929 . S
C3014 C3010 1.531 . S
C3014 H3026 0.960 . S
C3014 H3027 0.962 . S
C3014 H3028 0.960 . S
C3015 C3012 1.511 . S
C3015 H3029 0.961 . S
C3015 H3030 0.961 . S
C3015 H3031 0.961 . S
C3016 C3017 1.370 . S
C3016 C3018 1.363 . S
C3016 H3032 0.931 . S
C3017 C3016 1.370 . S
C3017 C3021 1.408 . S
C3018 C3016 1.363 . S
C3018 C3019 1.370 . S
C3018 C3022 1.524 . S
C3019 C3011 1.503 . S
C3019 C3018 1.370 . S
C3019 C3020 1.403 . S
C3020 C3019 1.403 . S
C3020 C3021 1.404 . S
C3020 C3023 1.539 . S
C3021 C3017 1.408 . S
C3021 C3020 1.404 . S
C3021 H3033 0.930 . S
C3022 C3018 1.524 . S
C3022 H3034 0.956 . S
C3022 H3035 0.961 . S
C3022 H3036 0.961 . S
C3023 C3020 1.539 . S
C3023 H3037 0.958 . S
C3023 H3038 0.961 . S
C3023 H3039 0.960 . S
H3024 C3008 0.931 . S
H3025 C3013 0.929 . S
H3026 C3014 0.960 . S
H3027 C3014 0.962 . S
H3028 C3014 0.960 . S
H3029 C3015 0.961 . S
H3030 C3015 0.961 . S
H3031 C3015 0.961 . S
H3032 C3016 0.931 . S
H3033 C3021 0.930 . S
H3034 C3022 0.956 . S
H3035 C3022 0.961 . S
H3036 C3022 0.961 . S
H3037 C3023 0.958 . S
H3038 C3023 0.961 . S
H3039 C3023 0.960 . S
C3040 C3041 1.391 . S
C3040 C3042 1.394 . S
C3040 H3056 0.931 . S
C3041 C3040 1.391 . S
C3041 C3045 1.376 . S
C3042 C3040 1.394 . S
C3042 C3043 1.369 . S
C3042 C3046 1.531 . S
C3043 C3042 1.369 . S
C3043 C3044 1.410 . S
C3043 C3051 1.503 . S
C3044 C3043 1.410 . S
C3044 C3045 1.392 . S
C3044 C3047 1.511 . S
C3045 C3041 1.376 . S
C3045 C3044 1.392 . S
C3045 H3057 0.929 . S
C3046 C3042 1.531 . S
C3046 H3058 0.960 . S
C3046 H3059 0.962 . S
C3046 H3060 0.960 . S
C3047 C3044 1.511 . S
C3047 H3061 0.961 . S
C3047 H3062 0.961 . S
C3047 H3063 0.961 . S
C3048 C3049 1.370 . S
C3048 C3050 1.363 . S
C3048 H3064 0.931 . S
C3049 C3048 1.370 . S
C3049 C3053 1.408 . S
C3050 C3048 1.363 . S
C3050 C3051 1.370 . S
C3050 C3054 1.524 . S
C3051 C3043 1.503 . S
C3051 C3050 1.370 . S
C3051 C3052 1.403 . S
C3052 C3051 1.403 . S
C3052 C3053 1.404 . S
C3052 C3055 1.539 . S
C3053 C3049 1.408 . S
C3053 C3052 1.404 . S
C3053 H3065 0.930 . S
C3054 C3050 1.524 . S
C3054 H3066 0.956 . S
C3054 H3067 0.961 . S
C3054 H3068 0.961 . S
C3055 C3052 1.539 . S
C3055 H3069 0.958 . S
C3055 H3070 0.961 . S
C3055 H3071 0.960 . S
H3056 C3040 0.931 . S
H3057 C3045 0.929 . S
H3058 C3046 0.960 . S
H3059 C3046 0.962 . S
H3060 C3046 0.960 . S
H3061 C3047 0.961 . S
H3062 C3047 0.961 . S
H3063 C3047 0.961 . S
H3064 C3048 0.931 . S
H3065 C3053 0.930 . S
H3066 C3054 0.956 . S
H3067 C3054 0.961 . S
H3068 C3054 0.961 . S
H3069 C3055 0.958 . S
H3070 C3055 0.961 . S
H3071 C3055 0.960 . S
C3072 C3073 1.391 . S
C3072 C3074 1.394 . S
C3072 H3088 0.931 . S
C3073 C3072 1.391 . S
C3073 C3077 1.376 . S
C3074 C3072 1.394 . S
C3074 C3075 1.369 . S
C3074 C3078 1.531 . S
C3075 C3074 1.369 . S
C3075 C3076 1.410 . S
C3075 C3083 1.503 . S
C3076 C3075 1.410 . S
C3076 C3077 1.392 . S
C3076 C3079 1.511 . S
C3077 C3073 1.376 . S
C3077 C3076 1.392 . S
C3077 H3089 0.929 . S
C3078 C3074 1.531 . S
C3078 H3090 0.960 . S
C3078 H3091 0.962 . S
C3078 H3092 0.960 . S
C3079 C3076 1.511 . S
C3079 H3093 0.961 . S
C3079 H3094 0.961 . S
C3079 H3095 0.961 . S
C3080 C3081 1.370 . S
C3080 C3082 1.363 . S
C3080 H3096 0.931 . S
C3081 C3080 1.370 . S
C3081 C3085 1.408 . S
C3082 C3080 1.363 . S
C3082 C3083 1.370 . S
C3082 C3086 1.524 . S
C3083 C3075 1.503 . S
C3083 C3082 1.370 . S
C3083 C3084 1.403 . S
C3084 C3083 1.403 . S
C3084 C3085 1.404 . S
C3084 C3087 1.539 . S
C3085 C3081 1.408 . S
C3085 C3084 1.404 . S
C3085 H3097 0.930 . S
C3086 C3082 1.524 . S
C3086 H3098 0.956 . S
C3086 H3099 0.961 . S
C3086 H3100 0.961 . S
C3087 C3084 1.539 . S
C3087 H3101 0.958 . S
C3087 H3102 0.961 . S
C3087 H3103 0.960 . S
H3088 C3072 0.931 . S
H3089 C3077 0.929 . S
H3090 C3078 0.960 . S
H3091 C3078 0.962 . S
H3092 C3078 0.960 . S
H3093 C3079 0.961 . S
H3094 C3079 0.961 . S
H3095 C3079 0.961 . S
H3096 C3080 0.931 . S
H3097 C3085 0.930 . S
H3098 C3086 0.956 . S
H3099 C3086 0.961 . S
H3100 C3086 0.961 . S
H3101 C3087 0.958 . S
H3102 C3087 0.961 . S
H3103 C3087 0.960 . S
C3104 C3105 1.391 . S
C3104 C3106 1.394 . S
C3104 H3120 0.931 . S
C3105 C3104 1.391 . S
C3105 C3109 1.376 . S
C3106 C3104 1.394 . S
C3106 C3107 1.369 . S
C3106 C3110 1.531 . S
C3107 C3106 1.369 . S
C3107 C3108 1.410 . S
C3107 C3115 1.503 . S
C3108 C3107 1.410 . S
C3108 C3109 1.392 . S
C3108 C3111 1.511 . S
C3109 C3105 1.376 . S
C3109 C3108 1.392 . S
C3109 H3121 0.929 . S
C3110 C3106 1.531 . S
C3110 H3122 0.960 . S
C3110 H3123 0.962 . S
C3110 H3124 0.960 . S
C3111 C3108 1.511 . S
C3111 H3125 0.961 . S
C3111 H3126 0.961 . S
C3111 H3127 0.961 . S
C3112 C3113 1.370 . S
C3112 C3114 1.363 . S
C3112 H3128 0.931 . S
C3113 C3112 1.370 . S
C3113 C3117 1.408 . S
C3114 C3112 1.363 . S
C3114 C3115 1.370 . S
C3114 C3118 1.524 . S
C3115 C3107 1.503 . S
C3115 C3114 1.370 . S
C3115 C3116 1.403 . S
C3116 C3115 1.403 . S
C3116 C3117 1.404 . S
C3116 C3119 1.539 . S
C3117 C3113 1.408 . S
C3117 C3116 1.404 . S
C3117 H3129 0.930 . S
C3118 C3114 1.524 . S
C3118 H3130 0.956 . S
C3118 H3131 0.961 . S
C3118 H3132 0.961 . S
C3119 C3116 1.539 . S
C3119 H3133 0.958 . S
C3119 H3134 0.961 . S
C3119 H3135 0.960 . S
H3120 C3104 0.931 . S
H3121 C3109 0.929 . S
H3122 C3110 0.960 . S
H3123 C3110 0.962 . S
H3124 C3110 0.960 . S
H3125 C3111 0.961 . S
H3126 C3111 0.961 . S
H3127 C3111 0.961 . S
H3128 C3112 0.931 . S
H3129 C3117 0.930 . S
H3130 C3118 0.956 . S
H3131 C3118 0.961 . S
H3132 C3118 0.961 . S
H3133 C3119 0.958 . S
H3134 C3119 0.961 . S
H3135 C3119 0.960 . S
C3136 C3137 1.391 . S
C3136 C3138 1.394 . S
C3136 H3152 0.931 . S
C3137 C3136 1.391 . S
C3137 C3141 1.376 . S
C3138 C3136 1.394 . S
C3138 C3139 1.369 . S
C3138 C3142 1.531 . S
C3139 C3138 1.369 . S
C3139 C3140 1.410 . S
C3139 C3147 1.503 . S
C3140 C3139 1.410 . S
C3140 C3141 1.392 . S
C3140 C3143 1.511 . S
C3141 C3137 1.376 . S
C3141 C3140 1.392 . S
C3141 H3153 0.929 . S
C3142 C3138 1.531 . S
C3142 H3154 0.960 . S
C3142 H3155 0.962 . S
C3142 H3156 0.960 . S
C3143 C3140 1.511 . S
C3143 H3157 0.961 . S
C3143 H3158 0.961 . S
C3143 H3159 0.961 . S
C3144 C3145 1.370 . S
C3144 C3146 1.363 . S
C3144 H3160 0.931 . S
C3145 C3144 1.370 . S
C3145 C3149 1.408 . S
C3146 C3144 1.363 . S
C3146 C3147 1.370 . S
C3146 C3150 1.524 . S
C3147 C3139 1.503 . S
C3147 C3146 1.370 . S
C3147 C3148 1.403 . S
C3148 C3147 1.403 . S
C3148 C3149 1.404 . S
C3148 C3151 1.539 . S
C3149 C3145 1.408 . S
C3149 C3148 1.404 . S
C3149 H3161 0.930 . S
C3150 C3146 1.524 . S
C3150 H3162 0.956 . S
C3150 H3163 0.961 . S
C3150 H3164 0.961 . S
C3151 C3148 1.539 . S
C3151 H3165 0.958 . S
C3151 H3166 0.961 . S
C3151 H3167 0.960 . S
H3152 C3136 0.931 . S
H3153 C3141 0.929 . S
H3154 C3142 0.960 . S
H3155 C3142 0.962 . S
H3156 C3142 0.960 . S
H3157 C3143 0.961 . S
H3158 C3143 0.961 . S
H3159 C3143 0.961 . S
H3160 C3144 0.931 . S
H3161 C3149 0.930 . S
H3162 C3150 0.956 . S
H3163 C3150 0.961 . S
H3164 C3150 0.961 . S
H3165 C3151 0.958 . S
H3166 C3151 0.961 . S
H3167 C3151 0.960 . S
C3168 C3169 1.391 . S
C3168 C3170 1.394 . S
C3168 H3184 0.931 . S
C3169 C3168 1.391 . S
C3169 C3173 1.376 . S
C3170 C3168 1.394 . S
C3170 C3171 1.369 . S
C3170 C3174 1.531 . S
C3171 C3170 1.369 . S
C3171 C3172 1.410 . S
C3171 C3179 1.503 . S
C3172 C3171 1.410 . S
C3172 C3173 1.392 . S
C3172 C3175 1.511 . S
C3173 C3169 1.376 . S
C3173 C3172 1.392 . S
C3173 H3185 0.929 . S
C3174 C3170 1.531 . S
C3174 H3186 0.960 . S
C3174 H3187 0.962 . S
C3174 H3188 0.960 . S
C3175 C3172 1.511 . S
C3175 H3189 0.961 . S
C3175 H3190 0.961 . S
C3175 H3191 0.961 . S
C3176 C3177 1.370 . S
C3176 C3178 1.363 . S
C3176 H3192 0.931 . S
C3177 C3176 1.370 . S
C3177 C3181 1.408 . S
C3178 C3176 1.363 . S
C3178 C3179 1.370 . S
C3178 C3182 1.524 . S
C3179 C3171 1.503 . S
C3179 C3178 1.370 . S
C3179 C3180 1.403 . S
C3180 C3179 1.403 . S
C3180 C3181 1.404 . S
C3180 C3183 1.539 . S
C3181 C3177 1.408 . S
C3181 C3180 1.404 . S
C3181 H3193 0.930 . S
C3182 C3178 1.524 . S
C3182 H3194 0.956 . S
C3182 H3195 0.961 . S
C3182 H3196 0.961 . S
C3183 C3180 1.539 . S
C3183 H3197 0.958 . S
C3183 H3198 0.961 . S
C3183 H3199 0.960 . S
H3184 C3168 0.931 . S
H3185 C3173 0.929 . S
H3186 C3174 0.960 . S
H3187 C3174 0.962 . S
H3188 C3174 0.960 . S
H3189 C3175 0.961 . S
H3190 C3175 0.961 . S
H3191 C3175 0.961 . S
H3192 C3176 0.931 . S
H3193 C3181 0.930 . S
H3194 C3182 0.956 . S
H3195 C3182 0.961 . S
H3196 C3182 0.961 . S
H3197 C3183 0.958 . S
H3198 C3183 0.961 . S
H3199 C3183 0.960 . S
C3200 C3201 1.391 . S
C3200 C3202 1.394 . S
C3200 H3216 0.931 . S
C3201 C3200 1.391 . S
C3201 C3205 1.376 . S
C3202 C3200 1.394 . S
C3202 C3203 1.369 . S
C3202 C3206 1.531 . S
C3203 C3202 1.369 . S
C3203 C3204 1.410 . S
C3203 C3211 1.503 . S
C3204 C3203 1.410 . S
C3204 C3205 1.392 . S
C3204 C3207 1.511 . S
C3205 C3201 1.376 . S
C3205 C3204 1.392 . S
C3205 H3217 0.929 . S
C3206 C3202 1.531 . S
C3206 H3218 0.960 . S
C3206 H3219 0.962 . S
C3206 H3220 0.960 . S
C3207 C3204 1.511 . S
C3207 H3221 0.961 . S
C3207 H3222 0.961 . S
C3207 H3223 0.961 . S
C3208 C3209 1.370 . S
C3208 C3210 1.363 . S
C3208 H3224 0.931 . S
C3209 C3208 1.370 . S
C3209 C3213 1.408 . S
C3210 C3208 1.363 . S
C3210 C3211 1.370 . S
C3210 C3214 1.524 . S
C3211 C3203 1.503 . S
C3211 C3210 1.370 . S
C3211 C3212 1.403 . S
C3212 C3211 1.403 . S
C3212 C3213 1.404 . S
C3212 C3215 1.539 . S
C3213 C3209 1.408 . S
C3213 C3212 1.404 . S
C3213 H3225 0.930 . S
C3214 C3210 1.524 . S
C3214 H3226 0.956 . S
C3214 H3227 0.961 . S
C3214 H3228 0.961 . S
C3215 C3212 1.539 . S
C3215 H3229 0.958 . S
C3215 H3230 0.961 . S
C3215 H3231 0.960 . S
H3216 C3200 0.931 . S
H3217 C3205 0.929 . S
H3218 C3206 0.960 . S
H3219 C3206 0.962 . S
H3220 C3206 0.960 . S
H3221 C3207 0.961 . S
H3222 C3207 0.961 . S
H3223 C3207 0.961 . S
H3224 C3208 0.931 . S
H3225 C3213 0.930 . S
H3226 C3214 0.956 . S
H3227 C3214 0.961 . S
H3228 C3214 0.961 . S
H3229 C3215 0.958 . S
H3230 C3215 0.961 . S
H3231 C3215 0.960 . S
C3232 C3233 1.391 . S
C3232 C3234 1.394 . S
C3232 H3248 0.931 . S
C3233 C3232 1.391 . S
C3233 C3237 1.376 . S
C3234 C3232 1.394 . S
C3234 C3235 1.369 . S
C3234 C3238 1.531 . S
C3235 C3234 1.369 . S
C3235 C3236 1.410 . S
C3235 C3243 1.503 . S
C3236 C3235 1.410 . S
C3236 C3237 1.392 . S
C3236 C3239 1.511 . S
C3237 C3233 1.376 . S
C3237 C3236 1.392 . S
C3237 H3249 0.929 . S
C3238 C3234 1.531 . S
C3238 H3250 0.960 . S
C3238 H3251 0.962 . S
C3238 H3252 0.960 . S
C3239 C3236 1.511 . S
C3239 H3253 0.961 . S
C3239 H3254 0.961 . S
C3239 H3255 0.961 . S
C3240 C3241 1.370 . S
C3240 C3242 1.363 . S
C3240 H3256 0.931 . S
C3241 C3240 1.370 . S
C3241 C3245 1.408 . S
C3242 C3240 1.363 . S
C3242 C3243 1.370 . S
C3242 C3246 1.524 . S
C3243 C3235 1.503 . S
C3243 C3242 1.370 . S
C3243 C3244 1.403 . S
C3244 C3243 1.403 . S
C3244 C3245 1.404 . S
C3244 C3247 1.539 . S
C3245 C3241 1.408 . S
C3245 C3244 1.404 . S
C3245 H3257 0.930 . S
C3246 C3242 1.524 . S
C3246 H3258 0.956 . S
C3246 H3259 0.961 . S
C3246 H3260 0.961 . S
C3247 C3244 1.539 . S
C3247 H3261 0.958 . S
C3247 H3262 0.961 . S
C3247 H3263 0.960 . S
H3248 C3232 0.931 . S
H3249 C3237 0.929 . S
H3250 C3238 0.960 . S
H3251 C3238 0.962 . S
H3252 C3238 0.960 . S
H3253 C3239 0.961 . S
H3254 C3239 0.961 . S
H3255 C3239 0.961 . S
H3256 C3240 0.931 . S
H3257 C3245 0.930 . S
H3258 C3246 0.956 . S
H3259 C3246 0.961 . S
H3260 C3246 0.961 . S
H3261 C3247 0.958 . S
H3262 C3247 0.961 . S
H3263 C3247 0.960 . S
C3264 C3265 1.391 . S
C3264 C3266 1.394 . S
C3264 H3280 0.931 . S
C3265 C3264 1.391 . S
C3265 C3269 1.376 . S
C3266 C3264 1.394 . S
C3266 C3267 1.369 . S
C3266 C3270 1.531 . S
C3267 C3266 1.369 . S
C3267 C3268 1.410 . S
C3267 C3275 1.503 . S
C3268 C3267 1.410 . S
C3268 C3269 1.392 . S
C3268 C3271 1.511 . S
C3269 C3265 1.376 . S
C3269 C3268 1.392 . S
C3269 H3281 0.929 . S
C3270 C3266 1.531 . S
C3270 H3282 0.960 . S
C3270 H3283 0.962 . S
C3270 H3284 0.960 . S
C3271 C3268 1.511 . S
C3271 H3285 0.961 . S
C3271 H3286 0.961 . S
C3271 H3287 0.961 . S
C3272 C3273 1.370 . S
C3272 C3274 1.363 . S
C3272 H3288 0.931 . S
C3273 C3272 1.370 . S
C3273 C3277 1.408 . S
C3274 C3272 1.363 . S
C3274 C3275 1.370 . S
C3274 C3278 1.524 . S
C3275 C3267 1.503 . S
C3275 C3274 1.370 . S
C3275 C3276 1.403 . S
C3276 C3275 1.403 . S
C3276 C3277 1.404 . S
C3276 C3279 1.539 . S
C3277 C3273 1.408 . S
C3277 C3276 1.404 . S
C3277 H3289 0.930 . S
C3278 C3274 1.524 . S
C3278 H3290 0.956 . S
C3278 H3291 0.961 . S
C3278 H3292 0.961 . S
C3279 C3276 1.539 . S
C3279 H3293 0.958 . S
C3279 H3294 0.961 . S
C3279 H3295 0.960 . S
H3280 C3264 0.931 . S
H3281 C3269 0.929 . S
H3282 C3270 0.960 . S
H3283 C3270 0.962 . S
H3284 C3270 0.960 . S
H3285 C3271 0.961 . S
H3286 C3271 0.961 . S
H3287 C3271 0.961 . S
H3288 C3272 0.931 . S
H3289 C3277 0.930 . S
H3290 C3278 0.956 . S
H3291 C3278 0.961 . S
H3292 C3278 0.961 . S
H3293 C3279 0.958 . S
H3294 C3279 0.961 . S
H3295 C3279 0.960 . S
C3296 C3297 1.391 . S
C3296 C3298 1.394 . S
C3296 H3312 0.931 . S
C3297 C3296 1.391 . S
C3297 C3301 1.376 . S
C3298 C3296 1.394 . S
C3298 C3299 1.369 . S
C3298 C3302 1.531 . S
C3299 C3298 1.369 . S
C3299 C3300 1.410 . S
C3299 C3307 1.503 . S
C3300 C3299 1.410 . S
C3300 C3301 1.392 . S
C3300 C3303 1.511 . S
C3301 C3297 1.376 . S
C3301 C3300 1.392 . S
C3301 H3313 0.929 . S
C3302 C3298 1.531 . S
C3302 H3314 0.960 . S
C3302 H3315 0.962 . S
C3302 H3316 0.960 . S
C3303 C3300 1.511 . S
C3303 H3317 0.961 . S
C3303 H3318 0.961 . S
C3303 H3319 0.961 . S
C3304 C3305 1.370 . S
C3304 C3306 1.363 . S
C3304 H3320 0.931 . S
C3305 C3304 1.370 . S
C3305 C3309 1.408 . S
C3306 C3304 1.363 . S
C3306 C3307 1.370 . S
C3306 C3310 1.524 . S
C3307 C3299 1.503 . S
C3307 C3306 1.370 . S
C3307 C3308 1.403 . S
C3308 C3307 1.403 . S
C3308 C3309 1.404 . S
C3308 C3311 1.539 . S
C3309 C3305 1.408 . S
C3309 C3308 1.404 . S
C3309 H3321 0.930 . S
C3310 C3306 1.524 . S
C3310 H3322 0.956 . S
C3310 H3323 0.961 . S
C3310 H3324 0.961 . S
C3311 C3308 1.539 . S
C3311 H3325 0.958 . S
C3311 H3326 0.961 . S
C3311 H3327 0.960 . S
H3312 C3296 0.931 . S
H3313 C3301 0.929 . S
H3314 C3302 0.960 . S
H3315 C3302 0.962 . S
H3316 C3302 0.960 . S
H3317 C3303 0.961 . S
H3318 C3303 0.961 . S
H3319 C3303 0.961 . S
H3320 C3304 0.931 . S
H3321 C3309 0.930 . S
H3322 C3310 0.956 . S
H3323 C3310 0.961 . S
H3324 C3310 0.961 . S
H3325 C3311 0.958 . S
H3326 C3311 0.961 . S
H3327 C3311 0.960 . S
C3328 C3329 1.391 . S
C3328 C3330 1.394 . S
C3328 H3344 0.931 . S
C3329 C3328 1.391 . S
C3329 C3333 1.376 . S
C3330 C3328 1.394 . S
C3330 C3331 1.369 . S
C3330 C3334 1.531 . S
C3331 C3330 1.369 . S
C3331 C3332 1.410 . S
C3331 C3339 1.503 . S
C3332 C3331 1.410 . S
C3332 C3333 1.392 . S
C3332 C3335 1.511 . S
C3333 C3329 1.376 . S
C3333 C3332 1.392 . S
C3333 H3345 0.929 . S
C3334 C3330 1.531 . S
C3334 H3346 0.960 1_554 S
C3334 H3347 0.962 . S
C3334 H3348 0.960 1_554 S
C3335 C3332 1.511 . S
C3335 H3349 0.961 . S
C3335 H3350 0.961 . S
C3335 H3351 0.961 . S
C3336 C3337 1.370 . S
C3336 C3338 1.363 . S
C3336 H3352 0.931 . S
C3337 C3336 1.370 . S
C3337 C3341 1.408 1_554 S
C3338 C3336 1.363 . S
C3338 C3339 1.370 . S
C3338 C3342 1.524 . S
C3339 C3331 1.503 . S
C3339 C3338 1.370 . S
C3339 C3340 1.403 1_554 S
C3340 C3339 1.403 1_556 S
C3340 C3341 1.404 . S
C3340 C3343 1.539 . S
C3341 C3337 1.408 1_556 S
C3341 C3340 1.404 . S
C3341 H3353 0.930 . S
C3342 C3338 1.524 . S
C3342 H3354 0.956 . S
C3342 H3355 0.961 . S
C3342 H3356 0.961 . S
C3343 C3340 1.539 . S
C3343 H3357 0.958 . S
C3343 H3358 0.961 . S
C3343 H3359 0.960 . S
H3344 C3328 0.931 . S
H3345 C3333 0.929 . S
H3346 C3334 0.960 1_556 S
H3347 C3334 0.962 . S
H3348 C3334 0.960 1_556 S
H3349 C3335 0.961 . S
H3350 C3335 0.961 . S
H3351 C3335 0.961 . S
H3352 C3336 0.931 . S
H3353 C3341 0.930 . S
H3354 C3342 0.956 . S
H3355 C3342 0.961 . S
H3356 C3342 0.961 . S
H3357 C3343 0.958 . S
H3358 C3343 0.961 . S
H3359 C3343 0.960 . S
C3360 C3361 1.391 . S
C3360 C3362 1.394 . S
C3360 H3376 0.931 . S
C3361 C3360 1.391 . S
C3361 C3365 1.376 . S
C3362 C3360 1.394 . S
C3362 C3363 1.369 . S
C3362 C3366 1.531 . S
C3363 C3362 1.369 . S
C3363 C3364 1.410 . S
C3363 C3371 1.503 . S
C3364 C3363 1.410 . S
C3364 C3365 1.392 . S
C3364 C3367 1.511 . S
C3365 C3361 1.376 . S
C3365 C3364 1.392 . S
C3365 H3377 0.929 . S
C3366 C3362 1.531 . S
C3366 H3378 0.960 . S
C3366 H3379 0.962 . S
C3366 H3380 0.960 . S
C3367 C3364 1.511 . S
C3367 H3381 0.961 . S
C3367 H3382 0.961 . S
C3367 H3383 0.961 . S
C3368 C3369 1.370 . S
C3368 C3370 1.363 . S
C3368 H3384 0.931 . S
C3369 C3368 1.370 . S
C3369 C3373 1.408 . S
C3370 C3368 1.363 . S
C3370 C3371 1.370 . S
C3370 C3374 1.524 . S
C3371 C3363 1.503 . S
C3371 C3370 1.370 . S
C3371 C3372 1.403 . S
C3372 C3371 1.403 . S
C3372 C3373 1.404 . S
C3372 C3375 1.539 . S
C3373 C3369 1.408 . S
C3373 C3372 1.404 . S
C3373 H3385 0.930 . S
C3374 C3370 1.524 . S
C3374 H3386 0.956 . S
C3374 H3387 0.961 . S
C3374 H3388 0.961 . S
C3375 C3372 1.539 . S
C3375 H3389 0.958 . S
C3375 H3390 0.961 . S
C3375 H3391 0.960 . S
H3376 C3360 0.931 . S
H3377 C3365 0.929 . S
H3378 C3366 0.960 . S
H3379 C3366 0.962 . S
H3380 C3366 0.960 . S
H3381 C3367 0.961 . S
H3382 C3367 0.961 . S
H3383 C3367 0.961 . S
H3384 C3368 0.931 . S
H3385 C3373 0.930 . S
H3386 C3374 0.956 . S
H3387 C3374 0.961 . S
H3388 C3374 0.961 . S
H3389 C3375 0.958 . S
H3390 C3375 0.961 . S
H3391 C3375 0.960 . S
C3392 C3393 1.391 . S
C3392 C3394 1.394 . S
C3392 H3408 0.931 . S
C3393 C3392 1.391 . S
C3393 C3397 1.376 . S
C3394 C3392 1.394 . S
C3394 C3395 1.369 . S
C3394 C3398 1.531 . S
C3395 C3394 1.369 . S
C3395 C3396 1.410 . S
C3395 C3403 1.503 . S
C3396 C3395 1.410 . S
C3396 C3397 1.392 . S
C3396 C3399 1.511 . S
C3397 C3393 1.376 . S
C3397 C3396 1.392 . S
C3397 H3409 0.927 1_554 S
C3398 C3394 1.531 . S
C3398 H3410 0.960 . S
C3398 H3411 0.962 . S
C3398 H3412 0.960 . S
C3399 C3396 1.511 . S
C3399 H3413 0.961 1_554 S
C3399 H3414 0.961 . S
C3399 H3415 0.961 . S
C3400 C3401 1.370 . S
C3400 C3402 1.363 . S
C3400 H3416 0.931 1_554 S
C3401 C3400 1.370 . S
C3401 C3405 1.408 . S
C3402 C3400 1.363 . S
C3402 C3403 1.370 . S
C3402 C3406 1.524 1_554 S
C3403 C3395 1.503 . S
C3403 C3402 1.370 . S
C3403 C3404 1.403 . S
C3404 C3403 1.403 . S
C3404 C3405 1.404 . S
C3404 C3407 1.539 . S
C3405 C3401 1.408 . S
C3405 C3404 1.404 . S
C3405 H3417 0.930 . S
C3406 C3402 1.524 1_556 S
C3406 H3418 0.956 . S
C3406 H3419 0.961 . S
C3406 H3420 0.961 . S
C3407 C3404 1.539 . S
C3407 H3421 0.958 . S
C3407 H3422 0.961 . S
C3407 H3423 0.960 . S
H3408 C3392 0.931 . S
H3409 C3397 0.927 1_556 S
H3410 C3398 0.960 . S
H3411 C3398 0.962 . S
H3412 C3398 0.960 . S
H3413 C3399 0.961 1_556 S
H3414 C3399 0.961 . S
H3415 C3399 0.961 . S
H3416 C3400 0.931 1_556 S
H3417 C3405 0.930 . S
H3418 C3406 0.956 . S
H3419 C3406 0.961 . S
H3420 C3406 0.961 . S
H3421 C3407 0.958 . S
H3422 C3407 0.961 . S
H3423 C3407 0.960 . S
C3424 C3425 1.391 . S
C3424 C3426 1.394 . S
C3424 H3440 0.931 . S
C3425 C3424 1.391 . S
C3425 C3429 1.376 . S
C3426 C3424 1.394 . S
C3426 C3427 1.369 . S
C3426 C3430 1.531 . S
C3427 C3426 1.369 . S
C3427 C3428 1.410 . S
C3427 C3435 1.503 . S
C3428 C3427 1.410 . S
C3428 C3429 1.392 . S
C3428 C3431 1.511 . S
C3429 C3425 1.376 . S
C3429 C3428 1.392 . S
C3429 H3441 0.929 . S
C3430 C3426 1.531 . S
C3430 H3442 0.960 . S
C3430 H3443 0.962 . S
C3430 H3444 0.960 . S
C3431 C3428 1.511 . S
C3431 H3445 0.961 . S
C3431 H3446 0.961 . S
C3431 H3447 0.961 . S
C3432 C3433 1.370 . S
C3432 C3434 1.363 . S
C3432 H3448 0.931 . S
C3433 C3432 1.370 . S
C3433 C3437 1.408 . S
C3434 C3432 1.363 . S
C3434 C3435 1.370 . S
C3434 C3438 1.524 . S
C3435 C3427 1.503 . S
C3435 C3434 1.370 . S
C3435 C3436 1.403 . S
C3436 C3435 1.403 . S
C3436 C3437 1.404 . S
C3436 C3439 1.539 . S
C3437 C3433 1.408 . S
C3437 C3436 1.404 . S
C3437 H3449 0.930 . S
C3438 C3434 1.524 . S
C3438 H3450 0.956 . S
C3438 H3451 0.961 . S
C3438 H3452 0.961 . S
C3439 C3436 1.539 . S
C3439 H3453 0.958 . S
C3439 H3454 0.961 . S
C3439 H3455 0.960 . S
H3440 C3424 0.931 . S
H3441 C3429 0.929 . S
H3442 C3430 0.960 . S
H3443 C3430 0.962 . S
H3444 C3430 0.960 . S
H3445 C3431 0.961 . S
H3446 C3431 0.961 . S
H3447 C3431 0.961 . S
H3448 C3432 0.931 . S
H3449 C3437 0.930 . S
H3450 C3438 0.956 . S
H3451 C3438 0.961 . S
H3452 C3438 0.961 . S
H3453 C3439 0.958 . S
H3454 C3439 0.961 . S
H3455 C3439 0.960 . S
C3456 C3457 1.391 . S
C3456 C3458 1.394 . S
C3456 H3472 0.931 . S
C3457 C3456 1.391 . S
C3457 C3461 1.376 . S
C3458 C3456 1.394 . S
C3458 C3459 1.369 . S
C3458 C3462 1.531 . S
C3459 C3458 1.369 . S
C3459 C3460 1.410 . S
C3459 C3467 1.503 . S
C3460 C3459 1.410 . S
C3460 C3461 1.392 . S
C3460 C3463 1.511 . S
C3461 C3457 1.376 . S
C3461 C3460 1.392 . S
C3461 H3473 0.929 . S
C3462 C3458 1.531 . S
C3462 H3474 0.960 . S
C3462 H3475 0.962 . S
C3462 H3476 0.960 . S
C3463 C3460 1.511 . S
C3463 H3477 0.961 . S
C3463 H3478 0.961 . S
C3463 H3479 0.961 . S
C3464 C3465 1.370 . S
C3464 C3466 1.363 . S
C3464 H3480 0.931 . S
C3465 C3464 1.370 . S
C3465 C3469 1.408 . S
C3466 C3464 1.363 . S
C3466 C3467 1.370 . S
C3466 C3470 1.524 . S
C3467 C3459 1.503 . S
C3467 C3466 1.370 . S
C3467 C3468 1.403 . S
C3468 C3467 1.403 . S
C3468 C3469 1.404 . S
C3468 C3471 1.539 . S
C3469 C3465 1.408 . S
C3469 C3468 1.404 . S
C3469 H3481 0.930 . S
C3470 C3466 1.524 . S
C3470 H3482 0.956 . S
C3470 H3483 0.961 . S
C3470 H3484 0.961 . S
C3471 C3468 1.539 . S
C3471 H3485 0.958 . S
C3471 H3486 0.961 . S
C3471 H3487 0.960 . S
H3472 C3456 0.931 . S
H3473 C3461 0.929 . S
H3474 C3462 0.960 . S
H3475 C3462 0.962 . S
H3476 C3462 0.960 . S
H3477 C3463 0.961 . S
H3478 C3463 0.961 . S
H3479 C3463 0.961 . S
H3480 C3464 0.931 . S
H3481 C3469 0.930 . S
H3482 C3470 0.956 . S
H3483 C3470 0.961 . S
H3484 C3470 0.961 . S
H3485 C3471 0.958 . S
H3486 C3471 0.961 . S
H3487 C3471 0.960 . S
C3488 C3489 1.391 . S
C3488 C3490 1.394 . S
C3488 H3504 0.931 . S
C3489 C3488 1.391 . S
C3489 C3493 1.376 . S
C3490 C3488 1.394 . S
C3490 C3491 1.369 . S
C3490 C3494 1.531 . S
C3491 C3490 1.369 . S
C3491 C3492 1.410 . S
C3491 C3499 1.503 . S
C3492 C3491 1.410 . S
C3492 C3493 1.392 . S
C3492 C3495 1.511 . S
C3493 C3489 1.376 . S
C3493 C3492 1.392 . S
C3493 H3505 0.929 . S
C3494 C3490 1.531 . S
C3494 H3506 0.960 . S
C3494 H3507 0.962 . S
C3494 H3508 0.960 . S
C3495 C3492 1.511 . S
C3495 H3509 0.961 . S
C3495 H3510 0.961 . S
C3495 H3511 0.961 . S
C3496 C3497 1.370 . S
C3496 C3498 1.363 . S
C3496 H3512 0.931 . S
C3497 C3496 1.370 . S
C3497 C3501 1.408 . S
C3498 C3496 1.363 . S
C3498 C3499 1.370 . S
C3498 C3502 1.524 . S
C3499 C3491 1.503 . S
C3499 C3498 1.370 . S
C3499 C3500 1.403 . S
C3500 C3499 1.403 . S
C3500 C3501 1.404 . S
C3500 C3503 1.539 . S
C3501 C3497 1.408 . S
C3501 C3500 1.404 . S
C3501 H3513 0.930 . S
C3502 C3498 1.524 . S
C3502 H3514 0.956 . S
C3502 H3515 0.961 . S
C3502 H3516 0.961 . S
C3503 C3500 1.539 . S
C3503 H3517 0.958 . S
C3503 H3518 0.961 . S
C3503 H3519 0.960 . S
H3504 C3488 0.931 . S
H3505 C3493 0.929 . S
H3506 C3494 0.960 . S
H3507 C3494 0.962 . S
H3508 C3494 0.960 . S
H3509 C3495 0.961 . S
H3510 C3495 0.961 . S
H3511 C3495 0.961 . S
H3512 C3496 0.931 . S
H3513 C3501 0.930 . S
H3514 C3502 0.956 . S
H3515 C3502 0.961 . S
H3516 C3502 0.961 . S
H3517 C3503 0.958 . S
H3518 C3503 0.961 . S
H3519 C3503 0.960 . S
C3520 C3521 1.391 . S
C3520 C3522 1.394 . S
C3520 H3536 0.931 . S
C3521 C3520 1.391 . S
C3521 C3525 1.376 . S
C3522 C3520 1.394 . S
C3522 C3523 1.369 . S
C3522 C3526 1.531 . S
C3523 C3522 1.369 . S
C3523 C3524 1.410 . S
C3523 C3531 1.503 . S
C3524 C3523 1.410 . S
C3524 C3525 1.392 . S
C3524 C3527 1.511 . S
C3525 C3521 1.376 . S
C3525 C3524 1.392 . S
C3525 H3537 0.929 . S
C3526 C3522 1.531 . S
C3526 H3538 0.960 . S
C3526 H3539 0.962 . S
C3526 H3540 0.960 . S
C3527 C3524 1.511 . S
C3527 H3541 0.961 . S
C3527 H3542 0.961 . S
C3527 H3543 0.961 . S
C3528 C3529 1.370 . S
C3528 C3530 1.363 . S
C3528 H3544 0.931 . S
C3529 C3528 1.370 . S
C3529 C3533 1.408 . S
C3530 C3528 1.363 . S
C3530 C3531 1.370 . S
C3530 C3534 1.524 . S
C3531 C3523 1.503 . S
C3531 C3530 1.370 . S
C3531 C3532 1.403 . S
C3532 C3531 1.403 . S
C3532 C3533 1.404 . S
C3532 C3535 1.539 . S
C3533 C3529 1.408 . S
C3533 C3532 1.404 . S
C3533 H3545 0.930 . S
C3534 C3530 1.524 . S
C3534 H3546 0.956 . S
C3534 H3547 0.961 . S
C3534 H3548 0.961 . S
C3535 C3532 1.539 . S
C3535 H3549 0.958 . S
C3535 H3550 0.961 . S
C3535 H3551 0.960 . S
H3536 C3520 0.931 . S
H3537 C3525 0.929 . S
H3538 C3526 0.960 . S
H3539 C3526 0.962 . S
H3540 C3526 0.960 . S
H3541 C3527 0.961 . S
H3542 C3527 0.961 . S
H3543 C3527 0.961 . S
H3544 C3528 0.931 . S
H3545 C3533 0.930 . S
H3546 C3534 0.956 . S
H3547 C3534 0.961 . S
H3548 C3534 0.961 . S
H3549 C3535 0.958 . S
H3550 C3535 0.961 . S
H3551 C3535 0.960 . S
C3552 C3553 1.391 . S
C3552 C3554 1.394 . S
C3552 H3568 0.931 . S
C3553 C3552 1.391 . S
C3553 C3557 1.376 . S
C3554 C3552 1.394 . S
C3554 C3555 1.369 . S
C3554 C3558 1.531 . S
C3555 C3554 1.369 . S
C3555 C3556 1.410 . S
C3555 C3563 1.503 . S
C3556 C3555 1.410 . S
C3556 C3557 1.392 . S
C3556 C3559 1.511 1_455 S
C3557 C3553 1.376 . S
C3557 C3556 1.392 . S
C3557 H3569 0.929 . S
C3558 C3554 1.531 . S
C3558 H3570 0.960 . S
C3558 H3571 0.962 . S
C3558 H3572 0.960 . S
C3559 C3556 1.511 1_655 S
C3559 H3573 0.961 . S
C3559 H3574 0.961 1_655 S
C3559 H3575 0.961 . S
C3560 C3561 1.370 . S
C3560 C3562 1.363 . S
C3560 H3576 0.931 . S
C3561 C3560 1.370 . S
C3561 C3565 1.408 . S
C3562 C3560 1.363 . S
C3562 C3563 1.370 . S
C3562 C3566 1.524 . S
C3563 C3555 1.503 . S
C3563 C3562 1.370 . S
C3563 C3564 1.403 . S
C3564 C3563 1.403 . S
C3564 C3565 1.404 . S
C3564 C3567 1.539 1_455 S
C3565 C3561 1.408 . S
C3565 C3564 1.404 . S
C3565 H3577 0.930 1_455 S
C3566 C3562 1.524 . S
C3566 H3578 0.956 . S
C3566 H3579 0.961 . S
C3566 H3580 0.961 . S
C3567 C3564 1.539 1_655 S
C3567 H3581 0.958 . S
C3567 H3582 0.961 . S
C3567 H3583 0.960 . S
H3568 C3552 0.931 . S
H3569 C3557 0.929 . S
H3570 C3558 0.960 . S
H3571 C3558 0.962 . S
H3572 C3558 0.960 . S
H3573 C3559 0.961 . S
H3574 C3559 0.961 1_455 S
H3575 C3559 0.961 . S
H3576 C3560 0.931 . S
H3577 C3565 0.930 1_655 S
H3578 C3566 0.956 . S
H3579 C3566 0.961 . S
H3580 C3566 0.961 . S
H3581 C3567 0.958 . S
H3582 C3567 0.961 . S
H3583 C3567 0.960 . S
C3584 C3585 1.391 . S
C3584 C3586 1.394 . S
C3584 H3600 0.931 . S
C3585 C3584 1.391 . S
C3585 C3589 1.376 . S
C3586 C3584 1.394 . S
C3586 C3587 1.369 . S
C3586 C3590 1.531 . S
C3587 C3586 1.369 . S
C3587 C3588 1.410 . S
C3587 C3595 1.503 . S
C3588 C3587 1.410 . S
C3588 C3589 1.392 . S
C3588 C3591 1.511 . S
C3589 C3585 1.376 . S
C3589 C3588 1.392 . S
C3589 H3601 0.929 . S
C3590 C3586 1.531 . S
C3590 H3602 0.960 . S
C3590 H3603 0.962 . S
C3590 H3604 0.960 . S
C3591 C3588 1.511 . S
C3591 H3605 0.961 . S
C3591 H3606 0.961 . S
C3591 H3607 0.961 . S
C3592 C3593 1.370 . S
C3592 C3594 1.363 . S
C3592 H3608 0.931 . S
C3593 C3592 1.370 . S
C3593 C3597 1.408 . S
C3594 C3592 1.363 . S
C3594 C3595 1.370 . S
C3594 C3598 1.524 . S
C3595 C3587 1.503 . S
C3595 C3594 1.370 . S
C3595 C3596 1.403 . S
C3596 C3595 1.403 . S
C3596 C3597 1.404 . S
C3596 C3599 1.539 . S
C3597 C3593 1.408 . S
C3597 C3596 1.404 . S
C3597 H3609 0.930 . S
C3598 C3594 1.524 . S
C3598 H3610 0.956 . S
C3598 H3611 0.961 . S
C3598 H3612 0.961 . S
C3599 C3596 1.539 . S
C3599 H3613 0.958 . S
C3599 H3614 0.961 . S
C3599 H3615 0.960 . S
H3600 C3584 0.931 . S
H3601 C3589 0.929 . S
H3602 C3590 0.960 . S
H3603 C3590 0.962 . S
H3604 C3590 0.960 . S
H3605 C3591 0.961 . S
H3606 C3591 0.961 . S
H3607 C3591 0.961 . S
H3608 C3592 0.931 . S
H3609 C3597 0.930 . S
H3610 C3598 0.956 . S
H3611 C3598 0.961 . S
H3612 C3598 0.961 . S
H3613 C3599 0.958 . S
H3614 C3599 0.961 . S
H3615 C3599 0.960 . S
C3616 C3617 1.391 . S
C3616 C3618 1.394 . S
C3616 H3632 0.931 . S
C3617 C3616 1.391 . S
C3617 C3621 1.376 . S
C3618 C3616 1.394 . S
C3618 C3619 1.369 . S
C3618 C3622 1.531 . S
C3619 C3618 1.369 . S
C3619 C3620 1.410 . S
C3619 C3627 1.503 . S
C3620 C3619 1.410 . S
C3620 C3621 1.392 . S
C3620 C3623 1.511 . S
C3621 C3617 1.376 . S
C3621 C3620 1.392 . S
C3621 H3633 0.929 . S
C3622 C3618 1.531 . S
C3622 H3634 0.960 . S
C3622 H3635 0.962 . S
C3622 H3636 0.960 . S
C3623 C3620 1.511 . S
C3623 H3637 0.961 . S
C3623 H3638 0.961 . S
C3623 H3639 0.961 1_556 S
C3624 C3625 1.370 . S
C3624 C3626 1.363 . S
C3624 H3640 0.931 . S
C3625 C3624 1.370 . S
C3625 C3629 1.408 . S
C3626 C3624 1.363 . S
C3626 C3627 1.370 . S
C3626 C3630 1.524 . S
C3627 C3619 1.503 . S
C3627 C3626 1.370 . S
C3627 C3628 1.403 . S
C3628 C3627 1.403 . S
C3628 C3629 1.404 . S
C3628 C3631 1.539 . S
C3629 C3625 1.408 . S
C3629 C3628 1.404 . S
C3629 H3641 0.930 . S
C3630 C3626 1.524 . S
C3630 H3642 0.956 . S
C3630 H3643 0.961 . S
C3630 H3644 0.961 . S
C3631 C3628 1.539 . S
C3631 H3645 0.958 . S
C3631 H3646 0.961 . S
C3631 H3647 0.960 . S
H3632 C3616 0.931 . S
H3633 C3621 0.929 . S
H3634 C3622 0.960 . S
H3635 C3622 0.962 . S
H3636 C3622 0.960 . S
H3637 C3623 0.961 . S
H3638 C3623 0.961 . S
H3639 C3623 0.961 1_554 S
H3640 C3624 0.931 . S
H3641 C3629 0.930 . S
H3642 C3630 0.956 . S
H3643 C3630 0.961 . S
H3644 C3630 0.961 . S
H3645 C3631 0.958 . S
H3646 C3631 0.961 . S
H3647 C3631 0.960 . S
C3648 C3649 1.391 . S
C3648 C3650 1.394 . S
C3648 H3664 0.931 . S
C3649 C3648 1.391 . S
C3649 C3653 1.376 . S
C3650 C3648 1.394 . S
C3650 C3651 1.369 . S
C3650 C3654 1.531 . S
C3651 C3650 1.369 . S
C3651 C3652 1.410 . S
C3651 C3659 1.503 . S
C3652 C3651 1.410 . S
C3652 C3653 1.392 . S
C3652 C3655 1.511 . S
C3653 C3649 1.376 . S
C3653 C3652 1.392 . S
C3653 H3665 0.929 . S
C3654 C3650 1.531 . S
C3654 H3666 0.960 . S
C3654 H3667 0.962 . S
C3654 H3668 0.960 . S
C3655 C3652 1.511 . S
C3655 H3669 0.961 . S
C3655 H3670 0.961 . S
C3655 H3671 0.961 . S
C3656 C3657 1.370 . S
C3656 C3658 1.363 . S
C3656 H3672 0.931 . S
C3657 C3656 1.370 . S
C3657 C3661 1.408 . S
C3658 C3656 1.363 . S
C3658 C3659 1.370 . S
C3658 C3662 1.524 . S
C3659 C3651 1.503 . S
C3659 C3658 1.370 . S
C3659 C3660 1.403 . S
C3660 C3659 1.403 . S
C3660 C3661 1.404 . S
C3660 C3663 1.539 . S
C3661 C3657 1.408 . S
C3661 C3660 1.404 . S
C3661 H3673 0.930 . S
C3662 C3658 1.524 . S
C3662 H3674 0.956 . S
C3662 H3675 0.961 . S
C3662 H3676 0.961 . S
C3663 C3660 1.539 . S
C3663 H3677 0.958 . S
C3663 H3678 0.961 . S
C3663 H3679 0.960 . S
H3664 C3648 0.931 . S
H3665 C3653 0.929 . S
H3666 C3654 0.960 . S
H3667 C3654 0.962 . S
H3668 C3654 0.960 . S
H3669 C3655 0.961 . S
H3670 C3655 0.961 . S
H3671 C3655 0.961 . S
H3672 C3656 0.931 . S
H3673 C3661 0.930 . S
H3674 C3662 0.956 . S
H3675 C3662 0.961 . S
H3676 C3662 0.961 . S
H3677 C3663 0.958 . S
H3678 C3663 0.961 . S
H3679 C3663 0.960 . S
C3680 C3681 1.391 . S
C3680 C3682 1.394 . S
C3680 H3696 0.931 1_455 S
C3681 C3680 1.391 . S
C3681 C3685 1.376 . S
C3682 C3680 1.394 . S
C3682 C3683 1.369 . S
C3682 C3686 1.531 1_455 S
C3683 C3682 1.369 . S
C3683 C3684 1.410 . S
C3683 C3691 1.503 . S
C3684 C3683 1.410 . S
C3684 C3685 1.392 . S
C3684 C3687 1.511 . S
C3685 C3681 1.376 . S
C3685 C3684 1.392 . S
C3685 H3697 0.929 . S
C3686 C3682 1.531 1_655 S
C3686 H3698 0.960 . S
C3686 H3699 0.962 . S
C3686 H3700 0.960 . S
C3687 C3684 1.511 . S
C3687 H3701 0.961 . S
C3687 H3702 0.961 . S
C3687 H3703 0.961 . S
C3688 C3689 1.370 . S
C3688 C3690 1.363 . S
C3688 H3704 0.931 . S
C3689 C3688 1.370 . S
C3689 C3693 1.408 . S
C3690 C3688 1.363 . S
C3690 C3691 1.370 . S
C3690 C3694 1.524 . S
C3691 C3683 1.503 . S
C3691 C3690 1.370 . S
C3691 C3692 1.403 . S
C3692 C3691 1.403 . S
C3692 C3693 1.404 . S
C3692 C3695 1.539 . S
C3693 C3689 1.408 . S
C3693 C3692 1.404 . S
C3693 H3705 0.930 . S
C3694 C3690 1.524 . S
C3694 H3706 0.956 1_455 S
C3694 H3707 0.961 . S
C3694 H3708 0.961 1_455 S
C3695 C3692 1.539 . S
C3695 H3709 0.958 . S
C3695 H3710 0.961 . S
C3695 H3711 0.960 . S
H3696 C3680 0.931 1_655 S
H3697 C3685 0.929 . S
H3698 C3686 0.960 . S
H3699 C3686 0.962 . S
H3700 C3686 0.960 . S
H3701 C3687 0.961 . S
H3702 C3687 0.961 . S
H3703 C3687 0.961 . S
H3704 C3688 0.931 . S
H3705 C3693 0.930 . S
H3706 C3694 0.956 1_655 S
H3707 C3694 0.961 . S
H3708 C3694 0.961 1_655 S
H3709 C3695 0.958 . S
H3710 C3695 0.961 . S
H3711 C3695 0.960 . S
C3712 C3713 1.391 . S
C3712 C3714 1.394 . S
C3712 H3728 0.931 . S
C3713 C3712 1.391 . S
C3713 C3717 1.376 . S
C3714 C3712 1.394 . S
C3714 C3715 1.369 . S
C3714 C3718 1.531 . S
C3715 C3714 1.369 . S
C3715 C3716 1.410 . S
C3715 C3723 1.503 . S
C3716 C3715 1.410 . S
C3716 C3717 1.392 . S
C3716 C3719 1.511 . S
C3717 C3713 1.376 . S
C3717 C3716 1.392 . S
C3717 H3729 0.929 . S
C3718 C3714 1.531 . S
C3718 H3730 0.960 . S
C3718 H3731 0.962 . S
C3718 H3732 0.960 . S
C3719 C3716 1.511 . S
C3719 H3733 0.961 . S
C3719 H3734 0.961 . S
C3719 H3735 0.961 . S
C3720 C3721 1.370 . S
C3720 C3722 1.363 . S
C3720 H3736 0.931 . S
C3721 C3720 1.370 . S
C3721 C3725 1.408 . S
C3722 C3720 1.363 . S
C3722 C3723 1.370 . S
C3722 C3726 1.524 . S
C3723 C3715 1.503 . S
C3723 C3722 1.370 . S
C3723 C3724 1.403 . S
C3724 C3723 1.403 . S
C3724 C3725 1.404 . S
C3724 C3727 1.539 . S
C3725 C3721 1.408 . S
C3725 C3724 1.404 . S
C3725 H3737 0.930 . S
C3726 C3722 1.524 . S
C3726 H3738 0.956 . S
C3726 H3739 0.961 . S
C3726 H3740 0.961 . S
C3727 C3724 1.539 . S
C3727 H3741 0.958 . S
C3727 H3742 0.961 . S
C3727 H3743 0.960 . S
H3728 C3712 0.931 . S
H3729 C3717 0.929 . S
H3730 C3718 0.960 . S
H3731 C3718 0.962 . S
H3732 C3718 0.960 . S
H3733 C3719 0.961 . S
H3734 C3719 0.961 . S
H3735 C3719 0.961 . S
H3736 C3720 0.931 . S
H3737 C3725 0.930 . S
H3738 C3726 0.956 . S
H3739 C3726 0.961 . S
H3740 C3726 0.961 . S
H3741 C3727 0.958 . S
H3742 C3727 0.961 . S
H3743 C3727 0.960 . S
C3744 C3745 1.391 . S
C3744 C3746 1.394 . S
C3744 H3760 0.931 . S
C3745 C3744 1.391 . S
C3745 C3749 1.376 . S
C3746 C3744 1.394 . S
C3746 C3747 1.369 . S
C3746 C3750 1.531 . S
C3747 C3746 1.369 . S
C3747 C3748 1.410 . S
C3747 C3755 1.503 . S
C3748 C3747 1.410 . S
C3748 C3749 1.392 . S
C3748 C3751 1.511 . S
C3749 C3745 1.376 . S
C3749 C3748 1.392 . S
C3749 H3761 0.929 . S
C3750 C3746 1.531 . S
C3750 H3762 0.960 . S
C3750 H3763 0.962 . S
C3750 H3764 0.960 . S
C3751 C3748 1.511 . S
C3751 H3765 0.961 . S
C3751 H3766 0.961 . S
C3751 H3767 0.961 . S
C3752 C3753 1.370 . S
C3752 C3754 1.363 . S
C3752 H3768 0.931 . S
C3753 C3752 1.370 . S
C3753 C3757 1.408 . S
C3754 C3752 1.363 . S
C3754 C3755 1.370 . S
C3754 C3758 1.524 . S
C3755 C3747 1.503 . S
C3755 C3754 1.370 . S
C3755 C3756 1.403 . S
C3756 C3755 1.403 . S
C3756 C3757 1.404 . S
C3756 C3759 1.539 . S
C3757 C3753 1.408 . S
C3757 C3756 1.404 . S
C3757 H3769 0.930 . S
C3758 C3754 1.524 . S
C3758 H3770 0.956 . S
C3758 H3771 0.961 . S
C3758 H3772 0.961 . S
C3759 C3756 1.539 . S
C3759 H3773 0.958 . S
C3759 H3774 0.961 . S
C3759 H3775 0.960 . S
H3760 C3744 0.931 . S
H3761 C3749 0.929 . S
H3762 C3750 0.960 . S
H3763 C3750 0.962 . S
H3764 C3750 0.960 . S
H3765 C3751 0.961 . S
H3766 C3751 0.961 . S
H3767 C3751 0.961 . S
H3768 C3752 0.931 . S
H3769 C3757 0.930 . S
H3770 C3758 0.956 . S
H3771 C3758 0.961 . S
H3772 C3758 0.961 . S
H3773 C3759 0.958 . S
H3774 C3759 0.961 . S
H3775 C3759 0.960 . S
C3776 C3777 1.391 . S
C3776 C3778 1.394 . S
C3776 H3792 0.931 . S
C3777 C3776 1.391 . S
C3777 C3781 1.376 . S
C3778 C3776 1.394 . S
C3778 C3779 1.369 . S
C3778 C3782 1.531 . S
C3779 C3778 1.369 . S
C3779 C3780 1.410 . S
C3779 C3787 1.503 . S
C3780 C3779 1.410 . S
C3780 C3781 1.392 . S
C3780 C3783 1.511 . S
C3781 C3777 1.376 . S
C3781 C3780 1.392 . S
C3781 H3793 0.929 . S
C3782 C3778 1.531 . S
C3782 H3794 0.960 . S
C3782 H3795 0.962 . S
C3782 H3796 0.960 . S
C3783 C3780 1.511 . S
C3783 H3797 0.961 . S
C3783 H3798 0.961 . S
C3783 H3799 0.961 . S
C3784 C3785 1.370 . S
C3784 C3786 1.363 . S
C3784 H3800 0.931 . S
C3785 C3784 1.370 . S
C3785 C3789 1.408 . S
C3786 C3784 1.363 . S
C3786 C3787 1.370 . S
C3786 C3790 1.524 . S
C3787 C3779 1.503 . S
C3787 C3786 1.370 . S
C3787 C3788 1.403 . S
C3788 C3787 1.403 . S
C3788 C3789 1.404 . S
C3788 C3791 1.539 . S
C3789 C3785 1.408 . S
C3789 C3788 1.404 . S
C3789 H3801 0.930 . S
C3790 C3786 1.524 . S
C3790 H3802 0.956 . S
C3790 H3803 0.961 . S
C3790 H3804 0.961 . S
C3791 C3788 1.539 . S
C3791 H3805 0.958 . S
C3791 H3806 0.961 . S
C3791 H3807 0.960 . S
H3792 C3776 0.931 . S
H3793 C3781 0.929 . S
H3794 C3782 0.960 . S
H3795 C3782 0.962 . S
H3796 C3782 0.960 . S
H3797 C3783 0.961 . S
H3798 C3783 0.961 . S
H3799 C3783 0.961 . S
H3800 C3784 0.931 . S
H3801 C3789 0.930 . S
H3802 C3790 0.956 . S
H3803 C3790 0.961 . S
H3804 C3790 0.961 . S
H3805 C3791 0.958 . S
H3806 C3791 0.961 . S
H3807 C3791 0.960 . S
C3808 C3809 1.391 . S
C3808 C3810 1.394 . S
C3808 H3824 0.931 . S
C3809 C3808 1.391 . S
C3809 C3813 1.376 . S
C3810 C3808 1.394 . S
C3810 C3811 1.369 . S
C3810 C3814 1.531 . S
C3811 C3810 1.369 . S
C3811 C3812 1.410 . S
C3811 C3819 1.503 . S
C3812 C3811 1.410 . S
C3812 C3813 1.392 . S
C3812 C3815 1.511 . S
C3813 C3809 1.376 . S
C3813 C3812 1.392 . S
C3813 H3825 0.929 . S
C3814 C3810 1.531 . S
C3814 H3826 0.960 . S
C3814 H3827 0.962 1_655 S
C3814 H3828 0.960 . S
C3815 C3812 1.511 . S
C3815 H3829 0.961 . S
C3815 H3830 0.961 . S
C3815 H3831 0.961 . S
C3816 C3817 1.370 . S
C3816 C3818 1.363 . S
C3816 H3832 0.931 1_655 S
C3817 C3816 1.370 . S
C3817 C3821 1.408 . S
C3818 C3816 1.363 . S
C3818 C3819 1.370 . S
C3818 C3822 1.524 . S
C3819 C3811 1.503 . S
C3819 C3818 1.370 . S
C3819 C3820 1.403 . S
C3820 C3819 1.403 . S
C3820 C3821 1.404 . S
C3820 C3823 1.539 . S
C3821 C3817 1.408 . S
C3821 C3820 1.404 . S
C3821 H3833 0.930 . S
C3822 C3818 1.524 . S
C3822 H3834 0.956 . S
C3822 H3835 0.961 . S
C3822 H3836 0.961 . S
C3823 C3820 1.539 . S
C3823 H3837 0.958 . S
C3823 H3838 0.961 . S
C3823 H3839 0.960 . S
H3824 C3808 0.931 . S
H3825 C3813 0.929 . S
H3826 C3814 0.960 . S
H3827 C3814 0.962 1_455 S
H3828 C3814 0.960 . S
H3829 C3815 0.961 . S
H3830 C3815 0.961 . S
H3831 C3815 0.961 . S
H3832 C3816 0.931 1_455 S
H3833 C3821 0.930 . S
H3834 C3822 0.956 . S
H3835 C3822 0.961 . S
H3836 C3822 0.961 . S
H3837 C3823 0.958 . S
H3838 C3823 0.961 . S
H3839 C3823 0.960 . S
C3840 C3841 1.391 . S
C3840 C3842 1.394 . S
C3840 H3856 0.931 . S
C3841 C3840 1.391 . S
C3841 C3845 1.376 . S
C3842 C3840 1.394 . S
C3842 C3843 1.369 . S
C3842 C3846 1.531 . S
C3843 C3842 1.369 . S
C3843 C3844 1.410 . S
C3843 C3851 1.503 . S
C3844 C3843 1.410 . S
C3844 C3845 1.392 . S
C3844 C3847 1.511 . S
C3845 C3841 1.376 . S
C3845 C3844 1.392 . S
C3845 H3857 0.929 . S
C3846 C3842 1.531 . S
C3846 H3858 0.960 . S
C3846 H3859 0.962 . S
C3846 H3860 0.960 . S
C3847 C3844 1.511 . S
C3847 H3861 0.961 . S
C3847 H3862 0.961 . S
C3847 H3863 0.961 . S
C3848 C3849 1.370 . S
C3848 C3850 1.363 . S
C3848 H3864 0.931 . S
C3849 C3848 1.370 . S
C3849 C3853 1.408 . S
C3850 C3848 1.363 . S
C3850 C3851 1.370 . S
C3850 C3854 1.524 . S
C3851 C3843 1.503 . S
C3851 C3850 1.370 . S
C3851 C3852 1.403 . S
C3852 C3851 1.403 . S
C3852 C3853 1.404 . S
C3852 C3855 1.539 . S
C3853 C3849 1.408 . S
C3853 C3852 1.404 . S
C3853 H3865 0.930 . S
C3854 C3850 1.524 . S
C3854 H3866 0.956 . S
C3854 H3867 0.961 . S
C3854 H3868 0.961 . S
C3855 C3852 1.539 . S
C3855 H3869 0.958 . S
C3855 H3870 0.961 . S
C3855 H3871 0.960 . S
H3856 C3840 0.931 . S
H3857 C3845 0.929 . S
H3858 C3846 0.960 . S
H3859 C3846 0.962 . S
H3860 C3846 0.960 . S
H3861 C3847 0.961 . S
H3862 C3847 0.961 . S
H3863 C3847 0.961 . S
H3864 C3848 0.931 . S
H3865 C3853 0.930 . S
H3866 C3854 0.956 . S
H3867 C3854 0.961 . S
H3868 C3854 0.961 . S
H3869 C3855 0.958 . S
H3870 C3855 0.961 . S
H3871 C3855 0.960 . S
C3872 C3873 1.391 . S
C3872 C3874 1.394 . S
C3872 H3888 0.931 . S
C3873 C3872 1.391 . S
C3873 C3877 1.376 . S
C3874 C3872 1.394 . S
C3874 C3875 1.369 . S
C3874 C3878 1.531 . S
C3875 C3874 1.369 . S
C3875 C3876 1.410 . S
C3875 C3883 1.503 . S
C3876 C3875 1.410 . S
C3876 C3877 1.392 . S
C3876 C3879 1.511 . S
C3877 C3873 1.376 . S
C3877 C3876 1.392 . S
C3877 H3889 0.929 . S
C3878 C3874 1.531 . S
C3878 H3890 0.960 . S
C3878 H3891 0.962 . S
C3878 H3892 0.960 . S
C3879 C3876 1.511 . S
C3879 H3893 0.961 . S
C3879 H3894 0.961 . S
C3879 H3895 0.961 . S
C3880 C3881 1.370 . S
C3880 C3882 1.363 . S
C3880 H3896 0.931 . S
C3881 C3880 1.370 . S
C3881 C3885 1.408 . S
C3882 C3880 1.363 . S
C3882 C3883 1.370 . S
C3882 C3886 1.524 . S
C3883 C3875 1.503 . S
C3883 C3882 1.370 . S
C3883 C3884 1.403 . S
C3884 C3883 1.403 . S
C3884 C3885 1.404 . S
C3884 C3887 1.539 . S
C3885 C3881 1.408 . S
C3885 C3884 1.404 . S
C3885 H3897 0.930 . S
C3886 C3882 1.524 . S
C3886 H3898 0.956 . S
C3886 H3899 0.961 . S
C3886 H3900 0.961 . S
C3887 C3884 1.539 . S
C3887 H3901 0.958 . S
C3887 H3902 0.961 . S
C3887 H3903 0.960 . S
H3888 C3872 0.931 . S
H3889 C3877 0.929 . S
H3890 C3878 0.960 . S
H3891 C3878 0.962 . S
H3892 C3878 0.960 . S
H3893 C3879 0.961 . S
H3894 C3879 0.961 . S
H3895 C3879 0.961 . S
H3896 C3880 0.931 . S
H3897 C3885 0.930 . S
H3898 C3886 0.956 . S
H3899 C3886 0.961 . S
H3900 C3886 0.961 . S
H3901 C3887 0.958 . S
H3902 C3887 0.961 . S
H3903 C3887 0.960 . S
C3904 C3905 1.391 . S
C3904 C3906 1.394 . S
C3904 H3920 0.931 . S
C3905 C3904 1.391 . S
C3905 C3909 1.376 . S
C3906 C3904 1.394 . S
C3906 C3907 1.369 . S
C3906 C3910 1.531 . S
C3907 C3906 1.369 . S
C3907 C3908 1.410 . S
C3907 C3915 1.503 . S
C3908 C3907 1.410 . S
C3908 C3909 1.392 . S
C3908 C3911 1.511 . S
C3909 C3905 1.376 . S
C3909 C3908 1.392 . S
C3909 H3921 0.929 . S
C3910 C3906 1.531 . S
C3910 H3922 0.960 . S
C3910 H3923 0.962 . S
C3910 H3924 0.960 . S
C3911 C3908 1.511 . S
C3911 H3925 0.961 . S
C3911 H3926 0.961 . S
C3911 H3927 0.961 . S
C3912 C3913 1.370 . S
C3912 C3914 1.363 . S
C3912 H3928 0.931 . S
C3913 C3912 1.370 . S
C3913 C3917 1.408 . S
C3914 C3912 1.363 . S
C3914 C3915 1.370 . S
C3914 C3918 1.524 . S
C3915 C3907 1.503 . S
C3915 C3914 1.370 . S
C3915 C3916 1.403 . S
C3916 C3915 1.403 . S
C3916 C3917 1.404 . S
C3916 C3919 1.539 . S
C3917 C3913 1.408 . S
C3917 C3916 1.404 . S
C3917 H3929 0.930 . S
C3918 C3914 1.524 . S
C3918 H3930 0.956 . S
C3918 H3931 0.961 . S
C3918 H3932 0.961 . S
C3919 C3916 1.539 . S
C3919 H3933 0.958 . S
C3919 H3934 0.961 . S
C3919 H3935 0.960 . S
H3920 C3904 0.931 . S
H3921 C3909 0.929 . S
H3922 C3910 0.960 . S
H3923 C3910 0.962 . S
H3924 C3910 0.960 . S
H3925 C3911 0.961 . S
H3926 C3911 0.961 . S
H3927 C3911 0.961 . S
H3928 C3912 0.931 . S
H3929 C3917 0.930 . S
H3930 C3918 0.956 . S
H3931 C3918 0.961 . S
H3932 C3918 0.961 . S
H3933 C3919 0.958 . S
H3934 C3919 0.961 . S
H3935 C3919 0.960 . S
C3936 C3937 1.391 . S
C3936 C3938 1.394 . S
C3936 H3952 0.931 . S
C3937 C3936 1.391 . S
C3937 C3941 1.376 . S
C3938 C3936 1.394 . S
C3938 C3939 1.369 . S
C3938 C3942 1.531 . S
C3939 C3938 1.369 . S
C3939 C3940 1.410 . S
C3939 C3947 1.503 . S
C3940 C3939 1.410 . S
C3940 C3941 1.392 . S
C3940 C3943 1.511 . S
C3941 C3937 1.376 . S
C3941 C3940 1.392 . S
C3941 H3953 0.929 . S
C3942 C3938 1.531 . S
C3942 H3954 0.960 . S
C3942 H3955 0.962 . S
C3942 H3956 0.960 . S
C3943 C3940 1.511 . S
C3943 H3957 0.961 . S
C3943 H3958 0.961 . S
C3943 H3959 0.961 . S
C3944 C3945 1.370 . S
C3944 C3946 1.363 . S
C3944 H3960 0.931 . S
C3945 C3944 1.370 . S
C3945 C3949 1.408 . S
C3946 C3944 1.363 . S
C3946 C3947 1.370 . S
C3946 C3950 1.524 . S
C3947 C3939 1.503 . S
C3947 C3946 1.370 . S
C3947 C3948 1.403 . S
C3948 C3947 1.403 . S
C3948 C3949 1.404 . S
C3948 C3951 1.539 . S
C3949 C3945 1.408 . S
C3949 C3948 1.404 . S
C3949 H3961 0.930 . S
C3950 C3946 1.524 . S
C3950 H3962 0.956 . S
C3950 H3963 0.961 . S
C3950 H3964 0.961 . S
C3951 C3948 1.539 . S
C3951 H3965 0.958 . S
C3951 H3966 0.961 . S
C3951 H3967 0.960 . S
H3952 C3936 0.931 . S
H3953 C3941 0.929 . S
H3954 C3942 0.960 . S
H3955 C3942 0.962 . S
H3956 C3942 0.960 . S
H3957 C3943 0.961 . S
H3958 C3943 0.961 . S
H3959 C3943 0.961 . S
H3960 C3944 0.931 . S
H3961 C3949 0.930 . S
H3962 C3950 0.956 . S
H3963 C3950 0.961 . S
H3964 C3950 0.961 . S
H3965 C3951 0.958 . S
H3966 C3951 0.961 . S
H3967 C3951 0.960 . S
C3968 C3969 1.391 . S
C3968 C3970 1.394 . S
C3968 H3984 0.931 . S
C3969 C3968 1.391 . S
C3969 C3973 1.376 . S
C3970 C3968 1.394 . S
C3970 C3971 1.369 . S
C3970 C3974 1.531 . S
C3971 C3970 1.369 . S
C3971 C3972 1.410 . S
C3971 C3979 1.503 . S
C3972 C3971 1.410 . S
C3972 C3973 1.392 . S
C3972 C3975 1.511 . S
C3973 C3969 1.376 . S
C3973 C3972 1.392 . S
C3973 H3985 0.929 . S
C3974 C3970 1.531 . S
C3974 H3986 0.960 . S
C3974 H3987 0.962 . S
C3974 H3988 0.960 . S
C3975 C3972 1.511 . S
C3975 H3989 0.961 . S
C3975 H3990 0.961 . S
C3975 H3991 0.961 . S
C3976 C3977 1.370 . S
C3976 C3978 1.363 . S
C3976 H3992 0.931 . S
C3977 C3976 1.370 . S
C3977 C3981 1.408 . S
C3978 C3976 1.363 . S
C3978 C3979 1.370 . S
C3978 C3982 1.524 . S
C3979 C3971 1.503 . S
C3979 C3978 1.370 . S
C3979 C3980 1.403 . S
C3980 C3979 1.403 . S
C3980 C3981 1.404 . S
C3980 C3983 1.539 . S
C3981 C3977 1.408 . S
C3981 C3980 1.404 . S
C3981 H3993 0.930 . S
C3982 C3978 1.524 . S
C3982 H3994 0.956 . S
C3982 H3995 0.961 . S
C3982 H3996 0.961 . S
C3983 C3980 1.539 . S
C3983 H3997 0.958 . S
C3983 H3998 0.961 . S
C3983 H3999 0.960 . S
H3984 C3968 0.931 . S
H3985 C3973 0.929 . S
H3986 C3974 0.960 . S
H3987 C3974 0.962 . S
H3988 C3974 0.960 . S
H3989 C3975 0.961 . S
H3990 C3975 0.961 . S
H3991 C3975 0.961 . S
H3992 C3976 0.931 . S
H3993 C3981 0.930 . S
H3994 C3982 0.956 . S
H3995 C3982 0.961 . S
H3996 C3982 0.961 . S
H3997 C3983 0.958 . S
H3998 C3983 0.961 . S
H3999 C3983 0.960 . S
C4000 C4001 1.391 . S
C4000 C4002 1.394 . S
C4000 H4016 0.931 . S
C4001 C4000 1.391 . S
C4001 C4005 1.376 . S
C4002 C4000 1.394 . S
C4002 C4003 1.369 . S
C4002 C4006 1.531 . S
C4003 C4002 1.369 . S
C4003 C4004 1.410 . S
C4003 C4011 1.503 . S
C4004 C4003 1.410 . S
C4004 C4005 1.392 . S
C4004 C4007 1.511 . S
C4005 C4001 1.376 . S
C4005 C4004 1.392 . S
C4005 H4017 0.929 . S
C4006 C4002 1.531 . S
C4006 H4018 0.960 . S
C4006 H4019 0.962 . S
C4006 H4020 0.960 . S
C4007 C4004 1.511 . S
C4007 H4021 0.961 . S
C4007 H4022 0.961 . S
C4007 H4023 0.961 . S
C4008 C4009 1.370 . S
C4008 C4010 1.363 . S
C4008 H4024 0.931 . S
C4009 C4008 1.370 . S
C4009 C4013 1.408 . S
C4010 C4008 1.363 . S
C4010 C4011 1.370 . S
C4010 C4014 1.524 . S
C4011 C4003 1.503 . S
C4011 C4010 1.370 . S
C4011 C4012 1.403 . S
C4012 C4011 1.403 . S
C4012 C4013 1.404 . S
C4012 C4015 1.539 . S
C4013 C4009 1.408 . S
C4013 C4012 1.404 . S
C4013 H4025 0.930 . S
C4014 C4010 1.524 . S
C4014 H4026 0.956 . S
C4014 H4027 0.961 . S
C4014 H4028 0.961 . S
C4015 C4012 1.539 . S
C4015 H4029 0.958 . S
C4015 H4030 0.961 . S
C4015 H4031 0.960 . S
H4016 C4000 0.931 . S
H4017 C4005 0.929 . S
H4018 C4006 0.960 . S
H4019 C4006 0.962 . S
H4020 C4006 0.960 . S
H4021 C4007 0.961 . S
H4022 C4007 0.961 . S
H4023 C4007 0.961 . S
H4024 C4008 0.931 . S
H4025 C4013 0.930 . S
H4026 C4014 0.956 . S
H4027 C4014 0.961 . S
H4028 C4014 0.961 . S
H4029 C4015 0.958 . S
H4030 C4015 0.961 . S
H4031 C4015 0.960 . S
C4032 C4033 1.391 . S
C4032 C4034 1.394 . S
C4032 H4048 0.931 . S
C4033 C4032 1.391 . S
C4033 C4037 1.376 . S
C4034 C4032 1.394 . S
C4034 C4035 1.369 . S
C4034 C4038 1.531 . S
C4035 C4034 1.369 . S
C4035 C4036 1.410 . S
C4035 C4043 1.503 . S
C4036 C4035 1.410 . S
C4036 C4037 1.392 . S
C4036 C4039 1.511 . S
C4037 C4033 1.376 . S
C4037 C4036 1.392 . S
C4037 H4049 0.929 . S
C4038 C4034 1.531 . S
C4038 H4050 0.960 . S
C4038 H4051 0.962 . S
C4038 H4052 0.960 . S
C4039 C4036 1.511 . S
C4039 H4053 0.961 . S
C4039 H4054 0.961 . S
C4039 H4055 0.961 . S
C4040 C4041 1.370 . S
C4040 C4042 1.363 . S
C4040 H4056 0.931 . S
C4041 C4040 1.370 . S
C4041 C4045 1.408 . S
C4042 C4040 1.363 . S
C4042 C4043 1.370 . S
C4042 C4046 1.524 . S
C4043 C4035 1.503 . S
C4043 C4042 1.370 . S
C4043 C4044 1.403 . S
C4044 C4043 1.403 . S
C4044 C4045 1.404 . S
C4044 C4047 1.539 . S
C4045 C4041 1.408 . S
C4045 C4044 1.404 . S
C4045 H4057 0.930 1_565 S
C4046 C4042 1.524 . S
C4046 H4058 0.956 . S
C4046 H4059 0.961 . S
C4046 H4060 0.961 . S
C4047 C4044 1.539 . S
C4047 H4061 0.958 . S
C4047 H4062 0.961 1_565 S
C4047 H4063 0.960 . S
H4048 C4032 0.931 . S
H4049 C4037 0.929 . S
H4050 C4038 0.960 . S
H4051 C4038 0.962 . S
H4052 C4038 0.960 . S
H4053 C4039 0.961 . S
H4054 C4039 0.961 . S
H4055 C4039 0.961 . S
H4056 C4040 0.931 . S
H4057 C4045 0.930 1_545 S
H4058 C4046 0.956 . S
H4059 C4046 0.961 . S
H4060 C4046 0.961 . S
H4061 C4047 0.958 . S
H4062 C4047 0.961 1_545 S
H4063 C4047 0.960 . S
C4064 C4065 1.391 . S
C4064 C4066 1.394 . S
C4064 H4080 0.931 . S
C4065 C4064 1.391 . S
C4065 C4069 1.376 . S
C4066 C4064 1.394 . S
C4066 C4067 1.369 . S
C4066 C4070 1.531 . S
C4067 C4066 1.369 . S
C4067 C4068 1.410 . S
C4067 C4075 1.503 . S
C4068 C4067 1.410 . S
C4068 C4069 1.392 . S
C4068 C4071 1.511 . S
C4069 C4065 1.376 . S
C4069 C4068 1.392 . S
C4069 H4081 0.929 . S
C4070 C4066 1.531 . S
C4070 H4082 0.960 . S
C4070 H4083 0.962 . S
C4070 H4084 0.960 . S
C4071 C4068 1.511 . S
C4071 H4085 0.961 . S
C4071 H4086 0.961 . S
C4071 H4087 0.961 . S
C4072 C4073 1.370 . S
C4072 C4074 1.363 . S
C4072 H4088 0.931 . S
C4073 C4072 1.370 . S
C4073 C4077 1.408 . S
C4074 C4072 1.363 . S
C4074 C4075 1.370 . S
C4074 C4078 1.524 . S
C4075 C4067 1.503 . S
C4075 C4074 1.370 . S
C4075 C4076 1.403 . S
C4076 C4075 1.403 . S
C4076 C4077 1.404 . S
C4076 C4079 1.539 . S
C4077 C4073 1.408 . S
C4077 C4076 1.404 . S
C4077 H4089 0.930 . S
C4078 C4074 1.524 . S
C4078 H4090 0.956 . S
C4078 H4091 0.961 . S
C4078 H4092 0.961 . S
C4079 C4076 1.539 . S
C4079 H4093 0.958 . S
C4079 H4094 0.961 . S
C4079 H4095 0.960 . S
H4080 C4064 0.931 . S
H4081 C4069 0.929 . S
H4082 C4070 0.960 . S
H4083 C4070 0.962 . S
H4084 C4070 0.960 . S
H4085 C4071 0.961 . S
H4086 C4071 0.961 . S
H4087 C4071 0.961 . S
H4088 C4072 0.931 . S
H4089 C4077 0.930 . S
H4090 C4078 0.956 . S
H4091 C4078 0.961 . S
H4092 C4078 0.961 . S
H4093 C4079 0.958 . S
H4094 C4079 0.961 . S
H4095 C4079 0.960 . S
C4096 C4097 1.391 . S
C4096 C4098 1.394 . S
C4096 H4112 0.931 . S
C4097 C4096 1.391 . S
C4097 C4101 1.376 . S
C4098 C4096 1.394 . S
C4098 C4099 1.369 . S
C4098 C4102 1.531 . S
C4099 C4098 1.369 . S
C4099 C4100 1.410 . S
C4099 C4107 1.503 . S
C4100 C4099 1.410 . S
C4100 C4101 1.392 . S
C4100 C4103 1.511 . S
C4101 C4097 1.376 . S
C4101 C4100 1.392 . S
C4101 H4113 0.929 . S
C4102 C4098 1.531 . S
C4102 H4114 0.960 . S
C4102 H4115 0.962 . S
C4102 H4116 0.960 . S
C4103 C4100 1.511 . S
C4103 H4117 0.961 . S
C4103 H4118 0.961 . S
C4103 H4119 0.961 . S
C4104 C4105 1.370 . S
C4104 C4106 1.363 . S
C4104 H4120 0.931 1_554 S
C4105 C4104 1.370 . S
C4105 C4109 1.408 . S
C4106 C4104 1.363 . S
C4106 C4107 1.370 . S
C4106 C4110 1.524 1_554 S
C4107 C4099 1.503 . S
C4107 C4106 1.370 . S
C4107 C4108 1.403 . S
C4108 C4107 1.403 . S
C4108 C4109 1.404 . S
C4108 C4111 1.539 . S
C4109 C4105 1.408 . S
C4109 C4108 1.404 . S
C4109 H4121 0.930 . S
C4110 C4106 1.524 1_556 S
C4110 H4122 0.956 . S
C4110 H4123 0.961 . S
C4110 H4124 0.961 . S
C4111 C4108 1.539 . S
C4111 H4125 0.958 . S
C4111 H4126 0.961 . S
C4111 H4127 0.960 . S
H4112 C4096 0.931 . S
H4113 C4101 0.929 . S
H4114 C4102 0.960 . S
H4115 C4102 0.962 . S
H4116 C4102 0.960 . S
H4117 C4103 0.961 . S
H4118 C4103 0.961 . S
H4119 C4103 0.961 . S
H4120 C4104 0.931 1_556 S
H4121 C4109 0.930 . S
H4122 C4110 0.956 . S
H4123 C4110 0.961 . S
H4124 C4110 0.961 . S
H4125 C4111 0.958 . S
H4126 C4111 0.961 . S
H4127 C4111 0.960 . S
C4128 C4129 1.391 . S
C4128 C4130 1.394 . S
C4128 H4144 0.931 . S
C4129 C4128 1.391 . S
C4129 C4133 1.376 . S
C4130 C4128 1.394 . S
C4130 C4131 1.369 . S
C4130 C4134 1.531 . S
C4131 C4130 1.369 . S
C4131 C4132 1.410 . S
C4131 C4139 1.503 . S
C4132 C4131 1.410 . S
C4132 C4133 1.392 . S
C4132 C4135 1.511 . S
C4133 C4129 1.376 . S
C4133 C4132 1.392 . S
C4133 H4145 0.929 . S
C4134 C4130 1.531 . S
C4134 H4146 0.960 . S
C4134 H4147 0.962 . S
C4134 H4148 0.960 . S
C4135 C4132 1.511 . S
C4135 H4149 0.961 . S
C4135 H4150 0.961 . S
C4135 H4151 0.961 . S
C4136 C4137 1.370 . S
C4136 C4138 1.363 . S
C4136 H4152 0.931 . S
C4137 C4136 1.370 . S
C4137 C4141 1.408 . S
C4138 C4136 1.363 . S
C4138 C4139 1.370 . S
C4138 C4142 1.524 . S
C4139 C4131 1.503 . S
C4139 C4138 1.370 . S
C4139 C4140 1.403 . S
C4140 C4139 1.403 . S
C4140 C4141 1.404 . S
C4140 C4143 1.539 . S
C4141 C4137 1.408 . S
C4141 C4140 1.404 . S
C4141 H4153 0.930 . S
C4142 C4138 1.524 . S
C4142 H4154 0.956 . S
C4142 H4155 0.961 . S
C4142 H4156 0.961 . S
C4143 C4140 1.539 . S
C4143 H4157 0.958 . S
C4143 H4158 0.961 . S
C4143 H4159 0.960 . S
H4144 C4128 0.931 . S
H4145 C4133 0.929 . S
H4146 C4134 0.960 . S
H4147 C4134 0.962 . S
H4148 C4134 0.960 . S
H4149 C4135 0.961 . S
H4150 C4135 0.961 . S
H4151 C4135 0.961 . S
H4152 C4136 0.931 . S
H4153 C4141 0.930 . S
H4154 C4142 0.956 . S
H4155 C4142 0.961 . S
H4156 C4142 0.961 . S
H4157 C4143 0.958 . S
H4158 C4143 0.961 . S
H4159 C4143 0.960 . S
C4160 C4161 1.391 . S
C4160 C4162 1.394 . S
C4160 H4176 0.931 . S
C4161 C4160 1.391 . S
C4161 C4165 1.376 . S
C4162 C4160 1.394 . S
C4162 C4163 1.369 . S
C4162 C4166 1.531 . S
C4163 C4162 1.369 . S
C4163 C4164 1.410 . S
C4163 C4171 1.503 . S
C4164 C4163 1.410 . S
C4164 C4165 1.392 . S
C4164 C4167 1.511 . S
C4165 C4161 1.376 . S
C4165 C4164 1.392 . S
C4165 H4177 0.929 . S
C4166 C4162 1.531 . S
C4166 H4178 0.960 . S
C4166 H4179 0.962 . S
C4166 H4180 0.960 . S
C4167 C4164 1.511 . S
C4167 H4181 0.961 . S
C4167 H4182 0.961 . S
C4167 H4183 0.961 . S
C4168 C4169 1.370 1_556 S
C4168 C4170 1.363 1_556 S
C4168 H4184 0.931 . S
C4169 C4168 1.370 1_554 S
C4169 C4173 1.408 . S
C4170 C4168 1.363 1_554 S
C4170 C4171 1.370 . S
C4170 C4174 1.524 1_554 S
C4171 C4163 1.503 . S
C4171 C4170 1.370 . S
C4171 C4172 1.403 . S
C4172 C4171 1.403 . S
C4172 C4173 1.404 . S
C4172 C4175 1.539 . S
C4173 C4169 1.408 . S
C4173 C4172 1.404 . S
C4173 H4185 0.930 . S
C4174 C4170 1.524 1_556 S
C4174 H4186 0.956 . S
C4174 H4187 0.961 . S
C4174 H4188 0.961 . S
C4175 C4172 1.539 . S
C4175 H4189 0.958 . S
C4175 H4190 0.961 . S
C4175 H4191 0.960 . S
H4176 C4160 0.931 . S
H4177 C4165 0.929 . S
H4178 C4166 0.960 . S
H4179 C4166 0.962 . S
H4180 C4166 0.960 . S
H4181 C4167 0.961 . S
H4182 C4167 0.961 . S
H4183 C4167 0.961 . S
H4184 C4168 0.931 . S
H4185 C4173 0.930 . S
H4186 C4174 0.956 . S
H4187 C4174 0.961 . S
H4188 C4174 0.961 . S
H4189 C4175 0.958 . S
H4190 C4175 0.961 . S
H4191 C4175 0.960 . S
C4192 C4193 1.391 . S
C4192 C4194 1.394 . S
C4192 H4208 0.931 . S
C4193 C4192 1.391 . S
C4193 C4197 1.376 . S
C4194 C4192 1.394 . S
C4194 C4195 1.369 . S
C4194 C4198 1.531 . S
C4195 C4194 1.369 . S
C4195 C4196 1.410 . S
C4195 C4203 1.503 . S
C4196 C4195 1.410 . S
C4196 C4197 1.392 . S
C4196 C4199 1.511 . S
C4197 C4193 1.376 . S
C4197 C4196 1.392 . S
C4197 H4209 0.929 . S
C4198 C4194 1.531 . S
C4198 H4210 0.960 . S
C4198 H4211 0.962 . S
C4198 H4212 0.960 . S
C4199 C4196 1.511 . S
C4199 H4213 0.961 . S
C4199 H4214 0.961 . S
C4199 H4215 0.961 . S
C4200 C4201 1.370 . S
C4200 C4202 1.363 . S
C4200 H4216 0.931 . S
C4201 C4200 1.370 . S
C4201 C4205 1.408 . S
C4202 C4200 1.363 . S
C4202 C4203 1.370 . S
C4202 C4206 1.524 . S
C4203 C4195 1.503 . S
C4203 C4202 1.370 . S
C4203 C4204 1.403 . S
C4204 C4203 1.403 . S
C4204 C4205 1.404 . S
C4204 C4207 1.539 . S
C4205 C4201 1.408 . S
C4205 C4204 1.404 . S
C4205 H4217 0.930 . S
C4206 C4202 1.524 . S
C4206 H4218 0.956 . S
C4206 H4219 0.961 . S
C4206 H4220 0.961 . S
C4207 C4204 1.539 . S
C4207 H4221 0.958 . S
C4207 H4222 0.961 . S
C4207 H4223 0.960 . S
H4208 C4192 0.931 . S
H4209 C4197 0.929 . S
H4210 C4198 0.960 . S
H4211 C4198 0.962 . S
H4212 C4198 0.960 . S
H4213 C4199 0.961 . S
H4214 C4199 0.961 . S
H4215 C4199 0.961 . S
H4216 C4200 0.931 . S
H4217 C4205 0.930 . S
H4218 C4206 0.956 . S
H4219 C4206 0.961 . S
H4220 C4206 0.961 . S
H4221 C4207 0.958 . S
H4222 C4207 0.961 . S
H4223 C4207 0.960 . S
C4224 C4225 1.391 . S
C4224 C4226 1.394 . S
C4224 H4240 0.931 . S
C4225 C4224 1.391 . S
C4225 C4229 1.376 . S
C4226 C4224 1.394 . S
C4226 C4227 1.369 . S
C4226 C4230 1.531 . S
C4227 C4226 1.369 . S
C4227 C4228 1.410 . S
C4227 C4235 1.503 . S
C4228 C4227 1.410 . S
C4228 C4229 1.392 . S
C4228 C4231 1.511 . S
C4229 C4225 1.376 . S
C4229 C4228 1.392 . S
C4229 H4241 0.929 . S
C4230 C4226 1.531 . S
C4230 H4242 0.960 . S
C4230 H4243 0.962 . S
C4230 H4244 0.960 . S
C4231 C4228 1.511 . S
C4231 H4245 0.961 . S
C4231 H4246 0.961 . S
C4231 H4247 0.961 . S
C4232 C4233 1.370 . S
C4232 C4234 1.363 . S
C4232 H4248 0.931 . S
C4233 C4232 1.370 . S
C4233 C4237 1.408 . S
C4234 C4232 1.363 . S
C4234 C4235 1.370 . S
C4234 C4238 1.524 . S
C4235 C4227 1.503 . S
C4235 C4234 1.370 . S
C4235 C4236 1.403 . S
C4236 C4235 1.403 . S
C4236 C4237 1.404 . S
C4236 C4239 1.539 . S
C4237 C4233 1.408 . S
C4237 C4236 1.404 . S
C4237 H4249 0.930 . S
C4238 C4234 1.524 . S
C4238 H4250 0.956 . S
C4238 H4251 0.961 . S
C4238 H4252 0.961 . S
C4239 C4236 1.539 . S
C4239 H4253 0.958 . S
C4239 H4254 0.961 . S
C4239 H4255 0.960 . S
H4240 C4224 0.931 . S
H4241 C4229 0.929 . S
H4242 C4230 0.960 . S
H4243 C4230 0.962 . S
H4244 C4230 0.960 . S
H4245 C4231 0.961 . S
H4246 C4231 0.961 . S
H4247 C4231 0.961 . S
H4248 C4232 0.931 . S
H4249 C4237 0.930 . S
H4250 C4238 0.956 . S
H4251 C4238 0.961 . S
H4252 C4238 0.961 . S
H4253 C4239 0.958 . S
H4254 C4239 0.961 . S
H4255 C4239 0.960 . S
C1185 C255 1.378 . S
C1193 C868 1.200 1_556 S
C1217 C147 1.461 . S
C1225 C903 1.424 . S
C1249 C184 1.041 . S
C1257 C908 0.986 . S
C1289 C933 1.360 . S
C1281 C220 1.446 . S
C1313 C40 1.408 . S
C1321 C953 1.328 . S
C1353 C968 1.045 . S
C1345 C74 1.109 . S
C1385 C1003 1.484 . S
C1377 C110 1.521 . S
C1409 C14 1.335 . S
C1417 C1008 1.156 . S
C1449 C883 1.526 1_655 S
C1441 C579 1.608 . S
C1473 C616 1.022 . S
C1481 C893 0.998 . S
C1513 C923 1.472 . S
C1505 C687 1.495 . S
C1545 C928 1.157 . S
C1537 C436 1.234 . S
C1569 C580 1.206 . S
C1577 C948 1.142 . S
C1609 C983 1.452 . S
C1601 C615 1.482 . S
C1641 C993 0.975 . S
C1633 C688 1.056 . S
C1673 C1023 1.531 . S
C1665 C435 1.574 . S
C1705 C873 1.297 . S
C1697 C410 1.415 . S
C1729 C722 1.778 1_554 S
C1737 C1043 1.763 . S
C1769 C1053 1.507 . S
C1761 C842 1.571 . S
C1801 C1068 1.040 . S
C1793 C794 1.080 . S
C1825 C302 1.440 . S
C1833 C1013 1.307 . S
C1857 C338 1.557 . S
C1865 C913 1.466 . S
C1889 C830 1.828 . S
C1897 C1103 1.817 . S
C1929 C1108 1.022 . S
C1921 C758 1.121 . S
C1961 C866 1.217 . S
C1953 C158 1.241 . S
C1993 C1122 1.431 . S
C1985 C254 1.462 . S
C2017 C218 1.075 . S
C2025 C906 1.010 . S
C2049 C194 1.395 . S
C2057 C1096 1.337 . S
C2089 C956 1.290 . S
C2081 C3 1.392 . S
C2113 C111 1.012 . S
C2121 C1046 0.952 . S
C2153 C1002 1.445 1_556 S
C2145 C76 1.475 . S
C2185 C1126 1.217 . S
C2177 C50 1.325 . S
C2217 C882 1.481 . S
C2209 C364 1.579 . S
C2249 C1116 0.983 . S
C2241 C795 1.008 . S
C2273 C292 1.446 . S
C2281 C922 1.412 . S
C2305 C723 1.191 . S
C2313 C1086 1.059 . S
C2337 C363 1.198 . S
C2345 C946 1.065 . S
C2377 C1062 1.428 . S
C2369 C796 1.455 . S
C2401 C291 1.013 . S
C2409 C996 1.000 1_565 S
C2433 C724 1.595 . S
C2441 C1142 1.535 . S
C2465 C482 1.311 . S
C2473 C876 1.317 1_556 S
C2497 C434 1.755 . S
C2505 C1042 1.747 . S
C2529 C662 1.494 . S
C2537 C976 1.462 . S
C2561 C614 1.074 . S
C2569 C1066 1.023 . S
C2601 C1136 1.315 . S
C2593 C698 1.348 . S
C2625 C554 1.475 . S
C2633 C916 1.456 . S
C2665 C942 1.739 . S
C2657 C650 1.756 . S
C2697 C886 0.989 . S
C2689 C506 1.096 . S
C2721 C183 1.372 . S
C2729 C1148 1.205 . S
C2761 C1123 1.445 . S
C2753 C219 1.466 . S
C2785 C256 1.063 . S
C2793 C1168 0.948 . S
C2817 C148 1.446 . S
C2825 C1093 1.362 . S
C2849 C122 1.413 . S
C2857 C1033 1.399 . S
C2889 C1048 1.015 . S
C2881 C2 1.061 . S
C2921 C1083 1.382 . S
C2913 C39 1.399 . S
C2953 C1128 1.261 . S
C2945 C86 1.383 . S
C2985 C1163 1.571 . S
C2977 C651 1.609 . S
C3009 C472 1.043 . S
C3017 C1113 1.026 . S
C3049 C1183 1.446 . S
C3041 C507 1.488 . S
C3081 C1088 1.153 . S
C3073 C544 1.215 . S
C3113 C1028 1.140 . S
C3105 C652 1.207 . S
C3137 C471 1.456 . S
C3145 C1063 1.407 . S
C3177 C1073 0.983 . S
C3169 C508 1.019 . S
C3201 C543 1.605 . S
C3209 C1143 1.545 . S
C3241 C1153 1.347 . S
C3233 C806 1.398 . S
C3265 C326 1.759 . S
C3273 C963 1.747 . S
C3305 C973 1.458 . S
C3297 C374 1.536 . S
C3337 C988 1.055 . S
C3329 C398 1.105 . S
C3369 C1133 1.310 . S
C3361 C770 1.443 . S
C3393 C734 1.540 1_554 S
C3401 C1173 1.469 . S
C3433 C943 1.793 . S
C3425 C362 1.810 . S
C3465 C888 1.069 . S
C3457 C290 1.146 . S
C3489 C230 1.332 . S
C3497 C1146 1.166 . S
C3529 C902 1.445 . S
C3521 C182 1.477 . S
C3553 C146 1.064 . S
C3561 C1166 0.952 . S
C3585 C266 1.339 . S
C3593 C936 1.353 . S
C3617 C75 1.438 . S
C3625 C1036 1.364 . S
C3657 C966 1.013 . S
C3649 C38 1.122 . S
C3681 C4 1.397 . S
C3689 C1082 1.370 . S
C3713 C112 1.344 . S
C3721 C1006 1.199 . S
C3753 C1162 1.493 . S
C3745 C832 1.583 . S
C3777 C399 1.022 . S
C3785 C896 0.989 . S
C3817 C1182 1.399 1_655 S
C3809 C760 1.432 . S
C3841 C327 1.187 . S
C3849 C926 1.059 . S
C3873 C831 1.213 . S
C3881 C1026 1.118 . S
C3913 C982 1.427 . S
C3905 C400 1.459 . S
C3937 C759 1.022 . S
C3945 C1076 0.998 . S
C3977 C1022 1.511 . S
C3969 C328 1.593 . S
C4009 C1156 1.309 . S
C4001 C626 1.327 . S
C4041 C962 1.753 . S
C4033 C542 1.773 . S
C4065 C590 1.416 . S
C4073 C1056 1.441 . S
C4105 C986 1.022 . S
C4097 C470 1.071 . S
C4129 C518 1.315 . S
C4137 C1016 1.327 . S
C4161 C446 1.492 . S
C4169 C1176 1.429 . S
C4201 C1102 1.758 . S
C4193 C578 1.771 . S
C4233 C1106 1.020 . S
C4225 C686 1.070 . S
