# Generated by pormake.
# Topology gar, (4,6)-cn, num edge types: 1
# Building blocks:
#     Node 0, Type 0, BuildingBlock: QUQFOY_clean_sbu_3, # of connection points: 4
#     Node 1, Type 0, BuildingBlock: QUQFOY_clean_sbu_3, # of connection points: 4
#     Node 2, Type 0, BuildingBlock: QUQFOY_clean_sbu_3, # of connection points: 4
#     Node 3, Type 0, BuildingBlock: QUQFOY_clean_sbu_3, # of connection points: 4
#     Node 4, Type 0, BuildingBlock: QUQFOY_clean_sbu_3, # of connection points: 4
#     Node 5, Type 0, BuildingBlock: QUQFOY_clean_sbu_3, # of connection points: 4
#     Node 6, Type 0, BuildingBlock: QUQFOY_clean_sbu_3, # of connection points: 4
#     Node 7, Type 0, BuildingBlock: QUQFOY_clean_sbu_3, # of connection points: 4
#     Node 8, Type 0, BuildingBlock: QUQFOY_clean_sbu_3, # of connection points: 4
#     Node 9, Type 0, BuildingBlock: QUQFOY_clean_sbu_3, # of connection points: 4
#     Node 10, Type 0, BuildingBlock: QUQFOY_clean_sbu_3, # of connection points: 4
#     Node 11, Type 0, BuildingBlock: QUQFOY_clean_sbu_3, # of connection points: 4
#     Node 12, Type 0, BuildingBlock: QUQFOY_clean_sbu_3, # of connection points: 4
#     Node 13, Type 0, BuildingBlock: QUQFOY_clean_sbu_3, # of connection points: 4
#     Node 14, Type 0, BuildingBlock: QUQFOY_clean_sbu_3, # of connection points: 4
#     Node 15, Type 0, BuildingBlock: QUQFOY_clean_sbu_3, # of connection points: 4
#     Node 16, Type 0, BuildingBlock: QUQFOY_clean_sbu_3, # of connection points: 4
#     Node 17, Type 0, BuildingBlock: QUQFOY_clean_sbu_3, # of connection points: 4
#     Node 18, Type 0, BuildingBlock: QUQFOY_clean_sbu_3, # of connection points: 4
#     Node 19, Type 0, BuildingBlock: QUQFOY_clean_sbu_3, # of connection points: 4
#     Node 20, Type 0, BuildingBlock: QUQFOY_clean_sbu_3, # of connection points: 4
#     Node 21, Type 0, BuildingBlock: QUQFOY_clean_sbu_3, # of connection points: 4
#     Node 22, Type 0, BuildingBlock: QUQFOY_clean_sbu_3, # of connection points: 4
#     Node 23, Type 0, BuildingBlock: QUQFOY_clean_sbu_3, # of connection points: 4
#     Node 24, Type 1, BuildingBlock: CUKXOW_clean_sbu_0, # of connection points: 6
#     Node 25, Type 1, BuildingBlock: CUKXOW_clean_sbu_0, # of connection points: 6
#     Node 26, Type 1, BuildingBlock: CUKXOW_clean_sbu_0, # of connection points: 6
#     Node 27, Type 1, BuildingBlock: CUKXOW_clean_sbu_0, # of connection points: 6
#     Node 28, Type 1, BuildingBlock: CUKXOW_clean_sbu_0, # of connection points: 6
#     Node 29, Type 1, BuildingBlock: CUKXOW_clean_sbu_0, # of connection points: 6
#     Node 30, Type 1, BuildingBlock: CUKXOW_clean_sbu_0, # of connection points: 6
#     Node 31, Type 1, BuildingBlock: CUKXOW_clean_sbu_0, # of connection points: 6
#     Node 32, Type 1, BuildingBlock: CUKXOW_clean_sbu_0, # of connection points: 6
#     Node 33, Type 1, BuildingBlock: CUKXOW_clean_sbu_0, # of connection points: 6
#     Node 34, Type 1, BuildingBlock: CUKXOW_clean_sbu_0, # of connection points: 6
#     Node 35, Type 1, BuildingBlock: CUKXOW_clean_sbu_0, # of connection points: 6
#     Node 36, Type 1, BuildingBlock: CUKXOW_clean_sbu_0, # of connection points: 6
#     Node 37, Type 1, BuildingBlock: CUKXOW_clean_sbu_0, # of connection points: 6
#     Node 38, Type 1, BuildingBlock: CUKXOW_clean_sbu_0, # of connection points: 6
#     Node 39, Type 1, BuildingBlock: CUKXOW_clean_sbu_0, # of connection points: 6
#     Edge 40, Type (0, 1), None
#     Edge 41, Type (0, 1), None
#     Edge 42, Type (0, 1), None
#     Edge 43, Type (0, 1), None
#     Edge 44, Type (0, 1), None
#     Edge 45, Type (0, 1), None
#     Edge 46, Type (0, 1), None
#     Edge 47, Type (0, 1), None
#     Edge 48, Type (0, 1), None
#     Edge 49, Type (0, 1), None
#     Edge 50, Type (0, 1), None
#     Edge 51, Type (0, 1), None
#     Edge 52, Type (0, 1), None
#     Edge 53, Type (0, 1), None
#     Edge 54, Type (0, 1), None
#     Edge 55, Type (0, 1), None
#     Edge 56, Type (0, 1), None
#     Edge 57, Type (0, 1), None
#     Edge 58, Type (0, 1), None
#     Edge 59, Type (0, 1), None
#     Edge 60, Type (0, 1), None
#     Edge 61, Type (0, 1), None
#     Edge 62, Type (0, 1), None
#     Edge 63, Type (0, 1), None
#     Edge 64, Type (0, 1), None
#     Edge 65, Type (0, 1), None
#     Edge 66, Type (0, 1), None
#     Edge 67, Type (0, 1), None
#     Edge 68, Type (0, 1), None
#     Edge 69, Type (0, 1), None
#     Edge 70, Type (0, 1), None
#     Edge 71, Type (0, 1), None
#     Edge 72, Type (0, 1), None
#     Edge 73, Type (0, 1), None
#     Edge 74, Type (0, 1), None
#     Edge 75, Type (0, 1), None
#     Edge 76, Type (0, 1), None
#     Edge 77, Type (0, 1), None
#     Edge 78, Type (0, 1), None
#     Edge 79, Type (0, 1), None
#     Edge 80, Type (0, 1), None
#     Edge 81, Type (0, 1), None
#     Edge 82, Type (0, 1), None
#     Edge 83, Type (0, 1), None
#     Edge 84, Type (0, 1), None
#     Edge 85, Type (0, 1), None
#     Edge 86, Type (0, 1), None
#     Edge 87, Type (0, 1), None
#     Edge 88, Type (0, 1), None
#     Edge 89, Type (0, 1), None
#     Edge 90, Type (0, 1), None
#     Edge 91, Type (0, 1), None
#     Edge 92, Type (0, 1), None
#     Edge 93, Type (0, 1), None
#     Edge 94, Type (0, 1), None
#     Edge 95, Type (0, 1), None
#     Edge 96, Type (0, 1), None
#     Edge 97, Type (0, 1), None
#     Edge 98, Type (0, 1), None
#     Edge 99, Type (0, 1), None
#     Edge 100, Type (0, 1), None
#     Edge 101, Type (0, 1), None
#     Edge 102, Type (0, 1), None
#     Edge 103, Type (0, 1), None
#     Edge 104, Type (0, 1), None
#     Edge 105, Type (0, 1), None
#     Edge 106, Type (0, 1), None
#     Edge 107, Type (0, 1), None
#     Edge 108, Type (0, 1), None
#     Edge 109, Type (0, 1), None
#     Edge 110, Type (0, 1), None
#     Edge 111, Type (0, 1), None
#     Edge 112, Type (0, 1), None
#     Edge 113, Type (0, 1), None
#     Edge 114, Type (0, 1), None
#     Edge 115, Type (0, 1), None
#     Edge 116, Type (0, 1), None
#     Edge 117, Type (0, 1), None
#     Edge 118, Type (0, 1), None
#     Edge 119, Type (0, 1), None
#     Edge 120, Type (0, 1), None
#     Edge 121, Type (0, 1), None
#     Edge 122, Type (0, 1), None
#     Edge 123, Type (0, 1), None
#     Edge 124, Type (0, 1), None
#     Edge 125, Type (0, 1), None
#     Edge 126, Type (0, 1), None
#     Edge 127, Type (0, 1), None
#     Edge 128, Type (0, 1), None
#     Edge 129, Type (0, 1), None
#     Edge 130, Type (0, 1), None
#     Edge 131, Type (0, 1), None
#     Edge 132, Type (0, 1), None
#     Edge 133, Type (0, 1), None
#     Edge 134, Type (0, 1), None
#     Edge 135, Type (0, 1), None
# Relax obj value: 0.149
# Max RMSD: 0.283
# Mean RMSD: 0.126
data_MOF--net-gar--node1-QUQFOY_clean_sbu_3--node2-CUKXOW_clean_sbu_0--edge1-none
_symmetry_space_group_name_H-M    P1
_symmetry_Int_Tables_number       1
_symmetry_cell_setting            triclinic
loop_
_symmetry_equiv_pos_as_xyz
'x, y, z'
_cell_length_a     26.369362
_cell_length_b     25.547912
_cell_length_c     25.259508
_cell_angle_alpha  96.58335
_cell_angle_beta   93.577695
_cell_angle_gamma 97.023514
loop_
_atom_site_label
_atom_site_type_symbol
_atom_site_fract_x
_atom_site_fract_y
_atom_site_fract_z
_atom_type_partial_charge
C0 C 0.94586 0.28326 0.38238 0.0
O1 O 0.98029 0.31661 0.36764 0.0
Cd2 Cd 0.06881 0.32104 0.38382 0.0
O3 O 0.95514 0.25197 0.41641 0.0
Cd4 Cd 0.03599 0.25143 0.46547 0.0
C5 C 0.05482 0.38477 0.49925 0.0
O6 O 0.05472 0.22657 0.37555 0.0
O7 O 0.11805 0.2273 0.432 0.0
O8 O 0.99456 0.17478 0.49925 0.0
C9 C 0.09791 0.21292 0.38477 0.0
O10 O 0.08761 0.38463 0.46456 0.0
C11 C 0.02846 0.17669 0.53772 0.0
O12 O 0.02683 0.34205 0.50455 0.0
O13 O 0.06397 0.21563 0.54472 0.0
C14 C 0.93844 0.82574 0.72187 0.0
O15 O 0.96046 0.79025 0.74184 0.0
Cd16 Cd 0.02215 0.74451 0.70294 0.0
O17 O 0.94462 0.8368 0.67428 0.0
Cd18 Cd -0.00193 0.81786 0.59706 0.0
C19 C 0.97891 0.68489 0.57169 0.0
O20 O 0.05078 0.82318 0.67172 0.0
O21 O 0.0927 0.82207 0.60124 0.0
O22 O 0.03332 0.89314 0.55703 0.0
C23 C 0.09286 0.82326 0.65159 0.0
O24 O 0.99076 0.68494 0.62138 0.0
C25 C 0.99142 0.9001 0.53361 0.0
O26 O 0.98004 0.72783 0.55064 0.0
O27 O 0.9517 0.86851 0.5394 0.0
C28 C 0.44586 0.78325 0.88238 0.0
O29 O 0.48029 0.81661 0.86764 0.0
Cd30 Cd 0.56881 0.82104 0.88383 0.0
O31 O 0.45514 0.75197 0.91641 0.0
Cd32 Cd 0.53599 0.75142 0.96547 0.0
C33 C 0.55482 0.88476 -0.00075 0.0
O34 O 0.55472 0.72657 0.87555 0.0
O35 O 0.61805 0.7273 0.93199 0.0
O36 O 0.49456 0.67478 -0.00076 0.0
C37 C 0.59792 0.71292 0.88476 0.0
O38 O 0.58761 0.88462 0.96457 0.0
C39 C 0.52846 0.67668 0.03771 0.0
O40 O 0.52683 0.84204 0.00455 0.0
O41 O 0.56397 0.71563 0.04471 0.0
C42 C 0.43844 0.32574 0.22187 0.0
O43 O 0.46047 0.29026 0.24185 0.0
Cd44 Cd 0.52216 0.24451 0.20295 0.0
O45 O 0.44461 0.3368 0.17429 0.0
Cd46 Cd 0.49807 0.31785 0.09706 0.0
C47 C 0.47891 0.18488 0.07171 0.0
O48 O 0.55078 0.32318 0.17173 0.0
O49 O 0.5927 0.32206 0.10124 0.0
O50 O 0.53332 0.39313 0.05704 0.0
C51 C 0.59286 0.32326 0.1516 0.0
O52 O 0.49077 0.18494 0.12139 0.0
C53 C 0.49142 0.4001 0.03361 0.0
O54 O 0.48004 0.22782 0.05065 0.0
O55 O 0.4517 0.36851 0.03939 0.0
C56 C 0.89682 0.75251 0.27191 0.0
O57 O 0.92158 0.71685 0.28711 0.0
Cd58 Cd 0.9871 0.72199 0.2241 0.0
O59 O 0.91612 0.78048 0.23783 0.0
Cd60 Cd 0.00329 0.77442 0.19738 0.0
C61 C 0.00935 0.65369 0.12825 0.0
O62 O 0.07312 0.75366 0.26344 0.0
O63 O 0.08523 0.83075 0.23549 0.0
O64 O 0.00156 0.85957 0.1696 0.0
C65 C 0.10245 0.79707 0.26263 0.0
O66 O 0.98606 0.6388 0.16731 0.0
C67 C 0.98931 0.84375 0.1204 0.0
O68 O 0.02283 0.70297 0.12784 0.0
O69 O 0.98428 0.79419 0.1053 0.0
C70 C 0.41272 0.7857 0.28451 0.0
O71 O 0.43676 0.82884 0.27353 0.0
Cd72 Cd 0.52349 0.86459 0.30572 0.0
O73 O 0.43374 0.75949 0.3181 0.0
Cd74 Cd 0.52187 0.78326 0.37264 0.0
C75 C 0.50924 0.90428 0.43288 0.0
O76 O 0.57225 0.79066 0.29335 0.0
O77 O 0.61877 0.80345 0.36751 0.0
O78 O 0.50797 0.69445 0.39631 0.0
C79 C 0.61663 0.79656 0.31694 0.0
O80 O 0.52727 0.922 0.39199 0.0
C81 C 0.52442 0.70668 0.44517 0.0
O82 O 0.4977 0.85491 0.43305 0.0
O83 O 0.54232 0.75462 0.46049 0.0
C84 C 0.39682 0.25251 0.77191 0.0
O85 O 0.42157 0.21685 0.78711 0.0
Cd86 Cd 0.48709 0.22198 0.7241 0.0
O87 O 0.41611 0.28048 0.73782 0.0
Cd88 Cd 0.50329 0.27442 0.69738 0.0
C89 C 0.50933 0.15369 0.62824 0.0
O90 O 0.57311 0.25365 0.76344 0.0
O91 O 0.58523 0.33075 0.73549 0.0
O92 O 0.50155 0.35957 0.6696 0.0
C93 C 0.60244 0.29706 0.76263 0.0
O94 O 0.48605 0.1388 0.6673 0.0
C95 C 0.48931 0.34374 0.6204 0.0
O96 O 0.52282 0.20296 0.62784 0.0
O97 O 0.48428 0.29419 0.60529 0.0
C98 C 0.91271 0.2857 0.78451 0.0
O99 O 0.93675 0.32884 0.77352 0.0
Cd100 Cd 0.02348 0.36458 0.80571 0.0
O101 O 0.93374 0.25949 0.8181 0.0
Cd102 Cd 0.02186 0.28326 0.87264 0.0
C103 C 0.00924 0.40428 0.93288 0.0
O104 O 0.07224 0.29066 0.79335 0.0
O105 O 0.11877 0.30345 0.8675 0.0
O106 O 0.00797 0.19445 0.89631 0.0
C107 C 0.11662 0.29656 0.81694 0.0
O108 O 0.02727 0.42201 0.89199 0.0
C109 C 0.02441 0.20668 0.94517 0.0
O110 O -0.0023 0.35492 0.93305 0.0
O111 O 0.04232 0.25462 0.96049 0.0
C112 C 0.47912 0.09088 0.3864 0.0
O113 O 0.51229 0.10237 0.35413 0.0
Cd114 Cd 0.44388 0.09299 0.28149 0.0
O115 O 0.43211 0.0858 0.36861 0.0
Cd116 Cd 0.40681 0.09764 0.26406 0.0
C117 C 0.35595 0.99223 0.28139 0.0
O118 O 0.48606 0.11281 0.20791 0.0
O119 O 0.43465 0.04333 0.17772 0.0
O120 O 0.37451 0.18655 0.27712 0.0
C121 C 0.475 0.07412 0.17155 0.0
O122 O 0.40455 0.99858 0.2878 0.0
C123 C 0.33128 0.17067 0.251 0.0
O124 O 0.33475 0.02999 0.26669 0.0
O125 O 0.32549 0.1237 0.22722 0.0
C126 C 0.31067 0.04099 0.52668 0.0
O127 O 0.2744 0.00888 0.5397 0.0
Cd128 Cd 0.18932 0.02519 0.5377 0.0
O129 O 0.30355 0.08202 0.50399 0.0
Cd130 Cd 0.23984 0.1346 0.46818 0.0
C131 C 0.22037 0.15477 0.59753 0.0
O132 O 0.17855 0.05689 0.45529 0.0
O133 O 0.14658 0.12669 0.43955 0.0
O134 O 0.28637 0.18205 0.40215 0.0
C135 C 0.13887 0.07881 0.44845 0.0
O136 O 0.20172 0.10671 0.5992 0.0
C137 C 0.27683 0.22765 0.42269 0.0
O138 O 0.23663 0.17162 0.55589 0.0
O139 O 0.25033 0.22874 0.4629 0.0
C140 C 0.07158 0.99583 0.88962 0.0
O141 O 0.04957 0.02193 0.85739 0.0
Cd142 Cd 0.08263 0.05767 0.78403 0.0
O143 O 0.11747 0.98588 0.88388 0.0
Cd144 Cd 0.17894 0.99882 0.8108 0.0
C145 C 0.19886 0.13554 0.82924 0.0
O146 O 0.11127 0.98052 0.74253 0.0
O147 O 0.18072 0.02155 0.71886 0.0
O148 O 0.203 0.91273 0.77573 0.0
C149 C 0.13611 0.99711 0.70555 0.0
O150 O 0.1519 0.13237 0.81227 0.0
C151 C 0.24645 0.91897 0.80131 0.0
O152 O 0.21958 0.09332 0.83279 0.0
O153 O 0.2581 0.96125 0.83361 0.0
C154 C 0.3009 0.95482 0.00953 0.0
O155 O 0.27356 0.96776 0.97124 0.0
Cd156 Cd 0.18284 0.96117 0.96415 0.0
O157 O 0.28099 0.93185 0.04684 0.0
Cd158 Cd 0.19273 0.88977 0.05504 0.0
C159 C 0.18811 0.83936 0.91576 0.0
O160 O 0.16571 0.98125 0.05646 0.0
O161 O 0.10258 0.92353 0.06528 0.0
O162 O 0.2378 0.87177 0.14254 0.0
C163 C 0.11891 0.97247 0.06476 0.0
O164 O 0.16255 0.87681 0.9065 0.0
C165 C 0.2143 0.82522 0.14256 0.0
O166 O 0.20542 0.83685 0.96376 0.0
O167 O 0.17887 0.8104 0.10531 0.0
C168 C 0.38415 0.51403 0.12053 0.0
O169 O 0.35757 0.5519 0.12293 0.0
Cd170 Cd 0.29046 0.53454 0.05441 0.0
O171 O 0.36128 0.46665 0.11459 0.0
Cd172 Cd 0.26759 0.43411 0.10865 0.0
C173 C 0.29426 0.40607 0.98965 0.0
O174 O 0.22244 0.51212 0.10524 0.0
O175 O 0.20304 0.44728 0.04134 0.0
O176 O 0.24381 0.39587 0.18889 0.0
C177 C 0.19731 0.49361 0.06139 0.0
O178 O 0.29393 0.45574 0.98771 0.0
C179 C 0.22989 0.34912 0.16496 0.0
O180 O 0.29106 0.38604 0.03288 0.0
O181 O 0.23271 0.3425 0.11492 0.0
C182 C 0.87637 0.06271 0.00166 0.0
O183 O 0.84647 0.04797 0.03604 0.0
Cd184 Cd 0.77939 0.081 0.08157 0.0
O185 O 0.87253 0.10661 0.98153 0.0
Cd186 Cd 0.80494 0.17819 0.99499 0.0
C187 C 0.8127 0.21221 0.1374 0.0
O188 O 0.7407 0.10536 0.00505 0.0
O189 O 0.71158 0.17985 0.00315 0.0
O190 O 0.77598 0.20002 0.90347 0.0
C191 C 0.70322 0.13118 0.00886 0.0
O192 O 0.80364 0.16304 0.14257 0.0
C193 C 0.79526 0.24858 0.91032 0.0
O194 O 0.81491 0.22755 0.0908 0.0
O195 O 0.82311 0.26359 0.95369 0.0
C196 C 0.02359 0.53172 0.3777 0.0
O197 O 0.00741 0.55883 0.34248 0.0
Cd198 Cd 0.02635 0.55761 0.24906 0.0
O199 O 0.05496 0.49796 0.36637 0.0
Cd200 Cd 0.10213 0.4667 0.28342 0.0
C201 C 0.15697 0.58796 0.25762 0.0
O202 O 0.02652 0.46706 0.21753 0.0
O203 O 0.09426 0.4489 0.18216 0.0
O204 O 0.13867 0.38126 0.29986 0.0
C205 C 0.04829 0.45795 0.1749 0.0
O206 O 0.11378 0.59949 0.24041 0.0
C207 C 0.18485 0.40449 0.30665 0.0
O208 O 0.1604 0.547 0.28072 0.0
O209 O 0.19103 0.45394 0.30355 0.0
C210 C 0.88415 0.01403 0.62053 0.0
O211 O 0.85756 0.05191 0.62294 0.0
Cd212 Cd 0.79045 0.03454 0.55442 0.0
O213 O 0.86128 0.96665 0.61459 0.0
Cd214 Cd 0.76758 0.93411 0.60864 0.0
C215 C 0.79427 0.90607 0.48965 0.0
O216 O 0.72243 0.01212 0.60523 0.0
O217 O 0.70305 0.94728 0.54133 0.0
O218 O 0.7438 0.89587 0.68889 0.0
C219 C 0.6973 0.99361 0.56137 0.0
O220 O 0.79394 0.95575 0.48771 0.0
C221 C 0.72989 0.84913 0.66496 0.0
O222 O 0.79106 0.88604 0.53288 0.0
O223 O 0.7327 0.84251 0.61492 0.0
C224 C 0.91906 0.04324 0.33337 0.0
O225 O 0.93961 0.01448 0.29877 0.0
Cd226 Cd 0.91783 0.99596 0.20768 0.0
O227 O 0.88007 0.06538 0.32177 0.0
Cd228 Cd 0.83094 0.05996 0.23689 0.0
C229 C 0.80871 0.92529 0.23557 0.0
O230 O 0.90989 0.08621 0.19375 0.0
O231 O 0.85245 0.03332 0.14383 0.0
O232 O 0.80676 0.14503 0.27815 0.0
C233 C 0.89644 0.0608 0.14834 0.0
O234 O 0.84618 0.92419 0.20626 0.0
C235 C 0.76323 0.14062 0.25257 0.0
O236 O 0.79682 0.9695 0.25657 0.0
O237 O 0.75103 0.09933 0.21882 0.0
C238 C 0.37637 0.56271 0.50166 0.0
O239 O 0.34647 0.54797 0.53604 0.0
Cd240 Cd 0.27939 0.581 0.58157 0.0
O241 O 0.37254 0.60662 0.48153 0.0
Cd242 Cd 0.30495 0.67819 0.49498 0.0
C243 C 0.3127 0.71221 0.6374 0.0
O244 O 0.2407 0.60537 0.50504 0.0
O245 O 0.21158 0.67985 0.50314 0.0
O246 O 0.27599 0.70003 0.40346 0.0
C247 C 0.20322 0.63118 0.50885 0.0
O248 O 0.30363 0.66304 0.64257 0.0
C249 C 0.29527 0.74859 0.41031 0.0
O250 O 0.31491 0.72755 0.5908 0.0
O251 O 0.32312 0.76359 0.45369 0.0
C252 C 0.41907 0.54323 0.83336 0.0
O253 O 0.43961 0.51448 0.79877 0.0
Cd254 Cd 0.41783 0.49596 0.70768 0.0
O255 O 0.38007 0.56538 0.82177 0.0
Cd256 Cd 0.33094 0.55996 0.73689 0.0
C257 C 0.30871 0.42528 0.73557 0.0
O258 O 0.40989 0.5862 0.69375 0.0
O259 O 0.35245 0.53331 0.64383 0.0
O260 O 0.30676 0.64502 0.77815 0.0
C261 C 0.39644 0.5608 0.64834 0.0
O262 O 0.34618 0.42418 0.70626 0.0
C263 C 0.26323 0.64061 0.75257 0.0
O264 O 0.29681 0.4695 0.75657 0.0
O265 O 0.25103 0.59932 0.71882 0.0
C266 C 0.52359 0.03171 0.87771 0.0
O267 O 0.50741 0.05882 0.84249 0.0
Cd268 Cd 0.52635 0.0576 0.74907 0.0
O269 O 0.55496 0.99795 0.86638 0.0
Cd270 Cd 0.60213 0.9667 0.78343 0.0
C271 C 0.65696 0.08796 0.75762 0.0
O272 O 0.52652 0.96705 0.71753 0.0
O273 O 0.59427 0.94892 0.68217 0.0
O274 O 0.63867 0.88126 0.79986 0.0
C275 C 0.5483 0.95795 0.6749 0.0
O276 O 0.61377 0.09948 0.74041 0.0
C277 C 0.68485 0.90449 0.80665 0.0
O278 O 0.6604 0.047 0.78073 0.0
O279 O 0.69103 0.95394 0.80356 0.0
C280 C 0.81068 0.541 0.02667 0.0
O281 O 0.77441 0.50889 0.0397 0.0
Cd282 Cd 0.68933 0.52519 0.0377 0.0
O283 O 0.80355 0.58203 0.00398 0.0
Cd284 Cd 0.73984 0.63461 0.96818 0.0
C285 C 0.72037 0.65477 0.09753 0.0
O286 O 0.67856 0.5569 0.95529 0.0
O287 O 0.64658 0.62669 0.93955 0.0
O288 O 0.78638 0.68205 0.90215 0.0
C289 C 0.63888 0.57881 0.94845 0.0
O290 O 0.70173 0.60672 0.0992 0.0
C291 C 0.77683 0.72765 0.92269 0.0
O292 O 0.73663 0.67162 0.05589 0.0
O293 O 0.75033 0.72875 0.9629 0.0
C294 C 0.97915 0.59088 0.8864 0.0
O295 O 0.01233 0.60231 0.85411 0.0
Cd296 Cd 0.94391 0.59294 0.78148 0.0
O297 O 0.93215 0.58585 0.86862 0.0
Cd298 Cd 0.90683 0.59765 0.76406 0.0
C299 C 0.85597 0.49222 0.78141 0.0
O300 O 0.98607 0.61281 0.70791 0.0
O301 O 0.93466 0.54334 0.67772 0.0
O302 O 0.87452 0.68656 0.77711 0.0
C303 C 0.97501 0.57413 0.67154 0.0
O304 O 0.90457 0.49854 0.78779 0.0
C305 C 0.83128 0.67067 0.75099 0.0
O306 O 0.83478 0.52999 0.76673 0.0
O307 O 0.8255 0.62369 0.72723 0.0
C308 C 0.8009 0.45482 0.50953 0.0
O309 O 0.77356 0.46776 0.47124 0.0
Cd310 Cd 0.68284 0.46117 0.46415 0.0
O311 O 0.78099 0.43185 0.54684 0.0
Cd312 Cd 0.69273 0.38977 0.55504 0.0
C313 C 0.68811 0.33937 0.41576 0.0
O314 O 0.66571 0.48125 0.55647 0.0
O315 O 0.60258 0.42353 0.56528 0.0
O316 O 0.7378 0.37177 0.64254 0.0
C317 C 0.61891 0.47247 0.56476 0.0
O318 O 0.66255 0.37682 0.4065 0.0
C319 C 0.7143 0.32522 0.64256 0.0
O320 O 0.70542 0.33686 0.46376 0.0
O321 O 0.67887 0.3104 0.60531 0.0
C322 C 0.57158 0.49583 0.38963 0.0
O323 O 0.54958 0.52193 0.3574 0.0
Cd324 Cd 0.58263 0.55768 0.28404 0.0
O325 O 0.61748 0.48589 0.38388 0.0
Cd326 Cd 0.67894 0.49883 0.3108 0.0
C327 C 0.69887 0.63555 0.32925 0.0
O328 O 0.61127 0.48052 0.24253 0.0
O329 O 0.68072 0.52156 0.21886 0.0
O330 O 0.703 0.41274 0.27573 0.0
C331 C 0.63612 0.49711 0.20556 0.0
O332 O 0.65191 0.63238 0.31227 0.0
C333 C 0.74645 0.41898 0.30131 0.0
O334 O 0.71959 0.59333 0.33279 0.0
O335 O 0.7581 0.46126 0.33361 0.0
Tb336 Tb 0.02204 0.08352 0.03488 0.0
C337 C 0.05127 0.99888 0.94197 0.0
Tb338 Tb 0.97592 0.96134 0.02632 0.0
O339 O 0.10083 0.06565 0.05753 0.0
O340 O 0.03727 0.01343 0.06514 0.0
O341 O 0.05172 0.04867 0.9634 0.0
C342 C 0.98336 0.88304 0.08399 0.0
O343 O 0.02578 0.95675 0.95972 0.0
C344 C 0.91262 0.02373 0.98574 0.0
C345 C 0.93526 0.04905 0.1104 0.0
O346 O 0.96496 0.87564 0.03373 0.0
O347 O -0.00352 0.93291 0.1001 0.0
O348 O 0.89985 0.97332 0.99144 0.0
O349 O 0.96093 0.03075 0.9957 0.0
O350 O 0.93327 0.99837 0.08942 0.0
O351 O 0.9681 0.08891 0.09753 0.0
C352 C 0.02182 0.16601 0.98128 0.0
O353 O 0.04484 0.16853 0.02937 0.0
O354 O -0.00197 0.119 0.96604 0.0
C355 C 0.08555 0.0169 0.06634 0.0
Tb356 Tb 0.27542 0.84595 0.29156 0.0
C357 C 0.35739 0.77388 0.26561 0.0
Tb358 Tb 0.24341 0.72761 0.25952 0.0
O359 O 0.30844 0.83403 0.37175 0.0
O360 O 0.25195 0.77905 0.33164 0.0
O361 O 0.33609 0.81379 0.24912 0.0
C362 C 0.20208 0.62709 0.25825 0.0
O363 O 0.32738 0.73061 0.27432 0.0
C364 C 0.22712 0.78898 0.18282 0.0
C365 C 0.15781 0.80061 0.28065 0.0
O366 O 0.21469 0.64946 0.21648 0.0
O367 O 0.21701 0.66019 0.30057 0.0
O368 O 0.20164 0.74289 0.18547 0.0
O369 O 0.26434 0.79544 0.21824 0.0
O370 O 0.17371 0.75467 0.28815 0.0
O371 O 0.19105 0.84414 0.2783 0.0
C372 C 0.32548 0.94251 0.28961 0.0
O373 O 0.27588 0.93033 0.28067 0.0
O374 O 0.3454 0.9019 0.30283 0.0
C375 C 0.28544 0.78615 0.37052 0.0
Tb376 Tb 0.56506 0.04218 0.52923 0.0
C377 C 0.5299 0.97581 0.62362 0.0
Tb378 Tb 0.45765 0.0127 0.53838 0.0
O379 O 0.5601 0.12574 0.55517 0.0
O380 O 0.51416 0.06546 0.58634 0.0
O381 O 0.56393 0.98451 0.58828 0.0
C382 C 0.36238 0.03098 0.53765 0.0
O383 O 0.4837 0.99065 0.61638 0.0
C384 C 0.49828 0.94059 0.47879 0.0
C385 C 0.494 0.07632 0.44012 0.0
O386 O 0.3767 0.98458 0.54165 0.0
O387 O 0.40128 0.06685 0.53746 0.0
O388 O 0.46092 0.92934 0.50848 0.0
O389 O 0.50799 0.99004 0.48113 0.0
O390 O 0.45647 0.05892 0.46909 0.0
O391 O 0.54261 0.07148 0.45401 0.0
C392 C 0.66032 0.02234 0.53654 0.0
O393 O 0.64401 0.06321 0.5619 0.0
O394 O 0.62497 0.9977 0.50157 0.0
C395 C 0.52348 0.11495 0.58603 0.0
Tb396 Tb 0.27665 0.30538 0.85109 0.0
C397 C 0.28588 0.37494 0.75279 0.0
Tb398 Tb 0.23935 0.25605 0.73423 0.0
O399 O 0.35714 0.28816 0.85118 0.0
O400 O 0.30785 0.26973 0.78417 0.0
O401 O 0.28076 0.37387 0.8048 0.0
C402 C 0.22588 0.19148 0.64537 0.0
O403 O 0.27763 0.33176 0.71735 0.0
C404 C 0.16147 0.28868 0.7859 0.0
C405 C 0.2316 0.18604 0.8258 0.0
O406 O 0.24689 0.24068 0.64911 0.0
O407 O 0.21304 0.17866 0.69106 0.0
O408 O 0.158 0.26949 0.7359 0.0
O409 O 0.20793 0.29153 0.80187 0.0
O410 O 0.25022 0.18997 0.77891 0.0
O411 O 0.23061 0.22921 0.86063 0.0
C412 C 0.28992 0.37013 0.94076 0.0
O413 O 0.28747 0.31866 0.93794 0.0
O414 O 0.28166 0.3845 0.89395 0.0
C415 C 0.35353 0.26892 0.80121 0.0
Tb416 Tb 0.9771 0.04062 0.48414 0.0
C417 C 0.92955 0.0229 0.59144 0.0
Tb418 Tb 0.04945 0.03481 0.57995 0.0
O419 O 0.9462 0.95763 0.48429 0.0
O420 O 0.02303 0.98468 0.50929 0.0
O421 O 0.92263 0.04132 0.54461 0.0
C422 C 0.10803 0.0054 0.657 0.0
O423 O 0.9748 0.01321 0.6116 0.0
C424 C 0.03073 0.1316 0.56731 0.0
C425 C 0.09254 0.06008 0.47351 0.0
O426 O 0.06111 0.98476 0.64279 0.0
O427 O 0.12159 0.04287 0.62862 0.0
O428 O 0.07197 0.12167 0.59275 0.0
O429 O 0.00155 0.089 0.55633 0.0
O430 O 0.09613 0.02881 0.51159 0.0
O431 O 0.04974 0.07988 0.46342 0.0
C432 C 0.93964 0.04639 0.3876 0.0
O433 O 0.97523 0.01863 0.40004 0.0
O434 O 0.92388 0.07205 0.42985 0.0
C435 C 0.98867 0.94541 0.50478 0.0
Tb436 Tb 0.30527 0.78298 0.81069 0.0
C437 C 0.20774 0.80871 0.86886 0.0
Tb438 Tb 0.20841 0.77942 0.74205 0.0
O439 O 0.30673 0.86742 0.83907 0.0
O440 O 0.27315 0.8357 0.76414 0.0
O441 O 0.2524 0.78965 0.87481 0.0
C442 C 0.13429 0.80796 0.683 0.0
O443 O 0.18594 0.81219 0.82057 0.0
C444 C 0.2312 0.68424 0.75693 0.0
C445 C 0.30331 0.74948 0.68442 0.0
O446 O 0.1279 0.78239 0.72415 0.0
O447 O 0.18208 0.81771 0.67483 0.0
O448 O 0.20096 0.69321 0.7174 0.0
O449 O 0.24004 0.72639 0.78933 0.0
O450 O 0.26159 0.77288 0.67956 0.0
O451 O 0.32412 0.74393 0.73251 0.0
C452 C 0.39553 0.78026 0.85681 0.0
O453 O 0.38603 0.80797 0.81856 0.0
O454 O 0.35446 0.7515 0.86838 0.0
C455 C 0.27938 0.87678 0.79794 0.0
Tb456 Tb 0.45311 0.0135 0.01601 0.0
C457 C 0.53903 0.93594 0.01954 0.0
Tb458 Tb 0.56189 0.06099 0.04027 0.0
O459 O 0.45539 0.04432 0.93785 0.0
O460 O 0.51952 0.01846 0.97122 0.0
O461 O 0.48889 0.93998 0.0161 0.0
C462 C 0.65355 0.10693 0.02206 0.0
O463 O 0.57482 0.97802 0.02696 0.0
C464 C 0.50888 0.06597 0.12661 0.0
C465 C 0.47763 0.13437 0.03806 0.0
O466 O 0.64563 0.06927 0.05246 0.0
O467 O 0.61043 0.11888 0.0029 0.0
O468 O 0.55119 0.09637 0.12209 0.0
O469 O 0.50291 0.03009 0.08697 0.0
O470 O 0.521 0.12539 0.0177 0.0
O471 O 0.4449 0.09422 0.04787 0.0
C472 C 0.356 0.96937 0.01112 0.0
O473 O 0.37917 0.98688 0.97191 0.0
O474 O 0.38779 0.97468 0.05314 0.0
C475 C 0.50258 0.03756 0.93114 0.0
Tb476 Tb 0.20671 0.24605 0.28971 0.0
C477 C 0.27926 0.27258 0.39143 0.0
Tb478 Tb 0.30941 0.32267 0.29227 0.0
O479 O 0.23959 0.18286 0.23992 0.0
O480 O 0.28625 0.24006 0.29028 0.0
O481 O 0.23425 0.28085 0.37092 0.0
C482 C 0.39713 0.34481 0.25012 0.0
O483 O 0.32002 0.28479 0.36498 0.0
C484 C 0.23079 0.37649 0.31243 0.0
C485 C 0.23049 0.30387 0.19494 0.0
O486 O 0.39244 0.33982 0.30049 0.0
O487 O 0.35236 0.34145 0.22531 0.0
O488 O 0.27818 0.39896 0.31355 0.0
O489 O 0.23285 0.32747 0.30464 0.0
O490 O 0.27677 0.29516 0.21114 0.0
O491 O 0.19111 0.28874 0.22208 0.0
C492 C 0.12983 0.20495 0.34053 0.0
O493 O 0.12492 0.22988 0.29864 0.0
O494 O 0.17712 0.19798 0.349 0.0
C495 C 0.28727 0.20184 0.25475 0.0
Tb496 Tb 0.47711 0.54061 0.98413 0.0
C497 C 0.42955 0.52289 0.09143 0.0
Tb498 Tb 0.54946 0.5348 0.07995 0.0
O499 O 0.4462 0.45762 0.98428 0.0
O500 O 0.52303 0.48468 0.00929 0.0
O501 O 0.42264 0.54132 0.04461 0.0
C502 C 0.60803 0.50541 0.157 0.0
O503 O 0.4748 0.5132 0.1116 0.0
C504 C 0.53074 0.63159 0.06731 0.0
C505 C 0.59255 0.56007 0.97351 0.0
O506 O 0.56111 0.48476 0.1428 0.0
O507 O 0.6216 0.54286 0.12862 0.0
O508 O 0.57197 0.62166 0.09274 0.0
O509 O 0.50156 0.589 0.05633 0.0
O510 O 0.59614 0.5288 0.01158 0.0
O511 O 0.54975 0.57987 0.96341 0.0
C512 C 0.43964 0.54638 0.88759 0.0
O513 O 0.47524 0.51863 0.90003 0.0
O514 O 0.42388 0.57204 0.92984 0.0
C515 C 0.48867 0.4454 0.00477 0.0
Tb516 Tb 0.80527 0.28299 0.31069 0.0
C517 C 0.70775 0.30871 0.36886 0.0
Tb518 Tb 0.70841 0.27942 0.24205 0.0
O519 O 0.80674 0.36743 0.33907 0.0
O520 O 0.77315 0.33571 0.26414 0.0
O521 O 0.7524 0.28966 0.37481 0.0
C522 C 0.63429 0.30796 0.183 0.0
O523 O 0.68594 0.3122 0.32057 0.0
C524 C 0.73121 0.18424 0.25694 0.0
C525 C 0.80331 0.24949 0.18443 0.0
O526 O 0.62791 0.28239 0.22415 0.0
O527 O 0.68208 0.31771 0.17483 0.0
O528 O 0.70097 0.19321 0.2174 0.0
O529 O 0.74004 0.22639 0.28934 0.0
O530 O 0.76159 0.27288 0.17957 0.0
O531 O 0.82412 0.24394 0.23252 0.0
C532 C 0.89553 0.28026 0.35681 0.0
O533 O 0.88604 0.30798 0.31856 0.0
O534 O 0.85446 0.25151 0.36838 0.0
C535 C 0.77938 0.37679 0.29794 0.0
Tb536 Tb 0.95311 0.51351 0.516 0.0
C537 C 0.03903 0.43595 0.51953 0.0
Tb538 Tb 0.06189 0.561 0.54026 0.0
O539 O 0.95538 0.54432 0.43784 0.0
O540 O 0.01952 0.51846 0.47121 0.0
O541 O 0.98889 0.43999 0.51609 0.0
C542 C 0.15355 0.60694 0.52205 0.0
O543 O 0.07483 0.47803 0.52695 0.0
C544 C 0.00888 0.56598 0.6266 0.0
C545 C 0.97763 0.63437 0.53804 0.0
O546 O 0.14563 0.56928 0.55245 0.0
O547 O 0.11044 0.61889 0.50288 0.0
O548 O 0.05119 0.59638 0.62207 0.0
O549 O 0.00291 0.5301 0.58696 0.0
O550 O 0.021 0.6254 0.51768 0.0
O551 O 0.9449 0.59423 0.54785 0.0
C552 C 0.856 0.46937 0.51112 0.0
O553 O 0.87917 0.48688 0.4719 0.0
O554 O 0.8878 0.47468 0.55313 0.0
C555 C 0.00257 0.53757 0.43113 0.0
Tb556 Tb 0.77666 0.80539 0.35109 0.0
C557 C 0.78588 0.87495 0.25279 0.0
Tb558 Tb 0.73935 0.75606 0.23423 0.0
O559 O 0.85715 0.78817 0.35118 0.0
O560 O 0.80786 0.76973 0.28417 0.0
O561 O 0.78076 0.87388 0.3048 0.0
C562 C 0.72588 0.69149 0.14537 0.0
O563 O 0.77763 0.83177 0.21736 0.0
C564 C 0.66148 0.78868 0.2859 0.0
C565 C 0.73161 0.68605 0.32581 0.0
O566 O 0.74689 0.74069 0.14911 0.0
O567 O 0.71304 0.67867 0.19107 0.0
O568 O 0.658 0.76949 0.2359 0.0
O569 O 0.70793 0.79153 0.30187 0.0
O570 O 0.75022 0.68998 0.27892 0.0
O571 O 0.73062 0.72922 0.36063 0.0
C572 C 0.78993 0.87014 0.44076 0.0
O573 O 0.78747 0.81867 0.43794 0.0
O574 O 0.78168 0.88451 0.39395 0.0
C575 C 0.85354 0.76892 0.30121 0.0
Tb576 Tb 0.77542 0.34595 0.79156 0.0
C577 C 0.85738 0.27387 0.76561 0.0
Tb578 Tb 0.74341 0.2276 0.75952 0.0
O579 O 0.80843 0.33402 0.87176 0.0
O580 O 0.75194 0.27904 0.83164 0.0
O581 O 0.83608 0.31378 0.74912 0.0
C582 C 0.70208 0.12708 0.75825 0.0
O583 O 0.82738 0.2306 0.77432 0.0
C584 C 0.72712 0.28898 0.68283 0.0
C585 C 0.6578 0.30061 0.78065 0.0
O586 O 0.71468 0.14946 0.71648 0.0
O587 O 0.71701 0.16018 0.80057 0.0
O588 O 0.70164 0.24289 0.68547 0.0
O589 O 0.76434 0.29544 0.71825 0.0
O590 O 0.6737 0.25466 0.78815 0.0
O591 O 0.69104 0.34413 0.7783 0.0
C592 C 0.8255 0.44249 0.78961 0.0
O593 O 0.77589 0.43033 0.78069 0.0
O594 O 0.84541 0.40188 0.80283 0.0
C595 C 0.78543 0.28615 0.87052 0.0
Tb596 Tb 0.70671 0.74605 0.7897 0.0
C597 C 0.77926 0.77258 0.89142 0.0
Tb598 Tb 0.80941 0.82267 0.79227 0.0
O599 O 0.73959 0.68285 0.73992 0.0
O600 O 0.78625 0.74006 0.79028 0.0
O601 O 0.73425 0.78085 0.87092 0.0
C602 C 0.89713 0.84481 0.75011 0.0
O603 O 0.82002 0.78479 0.86497 0.0
C604 C 0.73079 0.87649 0.81243 0.0
C605 C 0.73048 0.80387 0.69494 0.0
O606 O 0.89244 0.83982 0.80048 0.0
O607 O 0.85237 0.84145 0.72531 0.0
O608 O 0.77818 0.89896 0.81355 0.0
O609 O 0.73285 0.82746 0.80463 0.0
O610 O 0.77677 0.79517 0.71113 0.0
O611 O 0.69111 0.78874 0.72207 0.0
C612 C 0.62983 0.70495 0.84052 0.0
O613 O 0.62492 0.72988 0.79863 0.0
O614 O 0.67712 0.69798 0.84899 0.0
C615 C 0.78727 0.70184 0.75475 0.0
Tb616 Tb 0.52204 0.58352 0.53488 0.0
C617 C 0.55128 0.49888 0.44197 0.0
Tb618 Tb 0.47592 0.46134 0.52631 0.0
O619 O 0.60083 0.56565 0.55754 0.0
O620 O 0.53727 0.51343 0.56514 0.0
O621 O 0.55172 0.54867 0.4634 0.0
C622 C 0.48336 0.38304 0.58398 0.0
O623 O 0.52578 0.45675 0.45972 0.0
C624 C 0.41262 0.52373 0.48574 0.0
C625 C 0.43526 0.54904 0.6104 0.0
O626 O 0.46496 0.37564 0.53373 0.0
O627 O 0.49648 0.43291 0.60009 0.0
O628 O 0.39985 0.47332 0.49144 0.0
O629 O 0.46094 0.53075 0.4957 0.0
O630 O 0.43327 0.49836 0.58941 0.0
O631 O 0.4681 0.58891 0.59753 0.0
C632 C 0.52182 0.66601 0.48128 0.0
O633 O 0.54484 0.66853 0.52937 0.0
O634 O 0.49803 0.619 0.46604 0.0
C635 C 0.58555 0.5169 0.56634 0.0
Tb636 Tb 0.06507 0.54218 0.02924 0.0
C637 C 0.0299 0.47581 0.12361 0.0
Tb638 Tb 0.95766 0.51272 0.03837 0.0
O639 O 0.06012 0.62574 0.05517 0.0
O640 O 0.01416 0.56547 0.08634 0.0
O641 O 0.06393 0.4845 0.08828 0.0
C642 C 0.86239 0.53099 0.03764 0.0
O643 O 0.98371 0.49066 0.11638 0.0
C644 C -0.00171 0.4406 0.97879 0.0
C645 C 0.99403 0.57633 0.94012 0.0
O646 O 0.87671 0.48459 0.04164 0.0
O647 O 0.90128 0.56686 0.03744 0.0
O648 O 0.96093 0.42935 0.00847 0.0
O649 O 0.008 0.49005 0.98113 0.0
O650 O 0.95649 0.55894 0.96909 0.0
O651 O 0.04264 0.57148 0.95401 0.0
C652 C 0.16033 0.52234 0.03656 0.0
O653 O 0.14402 0.56321 0.06191 0.0
O654 O 0.12498 0.4977 0.00158 0.0
C655 C 0.02349 0.61495 0.08603 0.0
loop_
_geom_bond_atom_site_label_1
_geom_bond_atom_site_label_2
_geom_bond_distance
_geom_bond_site_symmetry_2
_ccdc_geom_bond_type
C0 O1 1.306 . S
C0 O3 1.160 . S
O1 C0 1.306 . S
O1 Cd2 2.228 1_655 S
Cd2 O1 2.228 1_455 S
Cd2 O6 2.273 . S
Cd2 O10 2.277 . S
O3 C0 1.160 . S
O3 Cd4 2.203 1_655 S
Cd4 O3 2.203 1_455 S
Cd4 O6 2.411 . S
Cd4 O7 2.333 . S
Cd4 O8 2.352 . S
Cd4 O12 2.277 . S
Cd4 O13 2.356 . S
C5 O10 1.209 . S
C5 O12 1.226 . S
O6 Cd2 2.273 . S
O6 Cd4 2.411 . S
O6 C9 1.320 . S
O7 Cd4 2.333 . S
O7 C9 1.214 . S
O8 Cd4 2.352 . S
O8 C11 1.258 . S
C9 O6 1.320 . S
C9 O7 1.214 . S
O10 Cd2 2.277 . S
O10 C5 1.209 . S
C11 O8 1.258 . S
C11 O13 1.282 . S
O12 Cd4 2.277 . S
O12 C5 1.226 . S
O13 Cd4 2.356 . S
O13 C11 1.282 . S
C14 O15 1.306 . S
C14 O17 1.160 . S
O15 C14 1.306 . S
O15 Cd16 2.228 1_655 S
Cd16 O15 2.228 1_455 S
Cd16 O20 2.273 . S
Cd16 O24 2.277 1_455 S
O17 C14 1.160 . S
O17 Cd18 2.203 1_655 S
Cd18 O17 2.203 1_455 S
Cd18 O20 2.411 . S
Cd18 O21 2.333 . S
Cd18 O22 2.352 . S
Cd18 O26 2.277 1_455 S
Cd18 O27 2.356 . S
C19 O24 1.209 . S
C19 O26 1.226 . S
O20 Cd16 2.273 . S
O20 Cd18 2.411 . S
O20 C23 1.320 . S
O21 Cd18 2.333 . S
O21 C23 1.214 . S
O22 Cd18 2.352 . S
O22 C25 1.258 . S
C23 O20 1.320 . S
C23 O21 1.214 . S
O24 Cd16 2.277 1_655 S
O24 C19 1.209 . S
C25 O22 1.258 . S
C25 O27 1.282 . S
O26 Cd18 2.277 1_655 S
O26 C19 1.226 . S
O27 Cd18 2.356 . S
O27 C25 1.282 . S
C28 O29 1.306 . S
C28 O31 1.160 . S
O29 C28 1.306 . S
O29 Cd30 2.228 . S
Cd30 O29 2.228 . S
Cd30 O34 2.273 . S
Cd30 O38 2.277 . S
O31 C28 1.160 . S
O31 Cd32 2.203 . S
Cd32 O31 2.203 . S
Cd32 O34 2.411 . S
Cd32 O35 2.333 . S
Cd32 O36 2.352 . S
Cd32 O40 2.288 . S
Cd32 O41 2.356 1_556 S
C33 O38 1.209 . S
C33 O40 1.240 . S
O34 Cd30 2.273 . S
O34 Cd32 2.411 . S
O34 C37 1.320 . S
O35 Cd32 2.333 . S
O35 C37 1.214 . S
O36 Cd32 2.352 . S
O36 C39 1.258 . S
C37 O34 1.320 . S
C37 O35 1.214 . S
O38 Cd30 2.277 . S
O38 C33 1.209 . S
C39 O36 1.258 . S
C39 O41 1.282 1_556 S
O40 Cd32 2.288 . S
O40 C33 1.240 . S
O41 Cd32 2.356 1_554 S
O41 C39 1.282 1_554 S
C42 O43 1.306 . S
C42 O45 1.160 . S
O43 C42 1.306 . S
O43 Cd44 2.228 . S
Cd44 O43 2.228 . S
Cd44 O48 2.273 . S
Cd44 O52 2.277 . S
O45 C42 1.160 . S
O45 Cd46 2.203 . S
Cd46 O45 2.203 . S
Cd46 O48 2.411 . S
Cd46 O49 2.333 . S
Cd46 O50 2.352 . S
Cd46 O54 2.277 . S
Cd46 O55 2.356 . S
C47 O52 1.209 . S
C47 O54 1.226 . S
O48 Cd44 2.273 . S
O48 Cd46 2.411 . S
O48 C51 1.320 . S
O49 Cd46 2.333 . S
O49 C51 1.214 . S
O50 Cd46 2.352 . S
O50 C53 1.258 . S
C51 O48 1.320 . S
C51 O49 1.214 . S
O52 Cd44 2.277 . S
O52 C47 1.209 . S
C53 O50 1.258 . S
C53 O55 1.282 . S
O54 Cd46 2.277 . S
O54 C47 1.226 . S
O55 Cd46 2.356 . S
O55 C53 1.282 . S
C56 O57 1.306 . S
C56 O59 1.160 . S
O57 C56 1.306 . S
O57 Cd58 2.228 1_655 S
Cd58 O57 2.228 1_455 S
Cd58 O62 2.273 . S
Cd58 O66 2.277 . S
O59 C56 1.160 . S
O59 Cd60 2.203 1_655 S
Cd60 O59 2.203 1_455 S
Cd60 O62 2.411 . S
Cd60 O63 2.333 . S
Cd60 O64 2.352 . S
Cd60 O68 2.277 1_455 S
Cd60 O69 2.356 . S
C61 O66 1.209 1_655 S
C61 O68 1.226 . S
O62 Cd58 2.273 . S
O62 Cd60 2.411 . S
O62 C65 1.320 . S
O63 Cd60 2.333 . S
O63 C65 1.214 . S
O64 Cd60 2.352 . S
O64 C67 1.258 . S
C65 O62 1.320 . S
C65 O63 1.214 . S
O66 Cd58 2.277 . S
O66 C61 1.209 1_455 S
C67 O64 1.258 . S
C67 O69 1.282 . S
O68 Cd60 2.277 1_655 S
O68 C61 1.226 . S
O69 Cd60 2.356 . S
O69 C67 1.282 . S
C70 O71 1.306 . S
C70 O73 1.160 . S
O71 C70 1.306 . S
O71 Cd72 2.228 . S
Cd72 O71 2.228 . S
Cd72 O76 2.273 . S
Cd72 O80 2.277 . S
O73 C70 1.160 . S
O73 Cd74 2.203 . S
Cd74 O73 2.203 . S
Cd74 O76 2.411 . S
Cd74 O77 2.333 . S
Cd74 O78 2.352 . S
Cd74 O82 2.277 . S
Cd74 O83 2.356 . S
C75 O80 1.209 . S
C75 O82 1.226 . S
O76 Cd72 2.273 . S
O76 Cd74 2.411 . S
O76 C79 1.320 . S
O77 Cd74 2.333 . S
O77 C79 1.214 . S
O78 Cd74 2.352 . S
O78 C81 1.258 . S
C79 O76 1.320 . S
C79 O77 1.214 . S
O80 Cd72 2.277 . S
O80 C75 1.209 . S
C81 O78 1.258 . S
C81 O83 1.282 . S
O82 Cd74 2.277 . S
O82 C75 1.226 . S
O83 Cd74 2.356 . S
O83 C81 1.282 . S
C84 O85 1.306 . S
C84 O87 1.160 . S
O85 C84 1.306 . S
O85 Cd86 2.228 . S
Cd86 O85 2.228 . S
Cd86 O90 2.273 . S
Cd86 O94 2.277 . S
O87 C84 1.160 . S
O87 Cd88 2.203 . S
Cd88 O87 2.203 . S
Cd88 O90 2.411 . S
Cd88 O91 2.333 . S
Cd88 O92 2.352 . S
Cd88 O96 2.277 . S
Cd88 O97 2.356 . S
C89 O94 1.209 . S
C89 O96 1.226 . S
O90 Cd86 2.273 . S
O90 Cd88 2.411 . S
O90 C93 1.320 . S
O91 Cd88 2.333 . S
O91 C93 1.214 . S
O92 Cd88 2.352 . S
O92 C95 1.258 . S
C93 O90 1.320 . S
C93 O91 1.214 . S
O94 Cd86 2.277 . S
O94 C89 1.209 . S
C95 O92 1.258 . S
C95 O97 1.282 . S
O96 Cd88 2.277 . S
O96 C89 1.226 . S
O97 Cd88 2.356 . S
O97 C95 1.282 . S
C98 O99 1.306 . S
C98 O101 1.160 . S
O99 C98 1.306 . S
O99 Cd100 2.228 1_655 S
Cd100 O99 2.228 1_455 S
Cd100 O104 2.273 . S
Cd100 O108 2.277 . S
O101 C98 1.160 . S
O101 Cd102 2.203 1_655 S
Cd102 O101 2.203 1_455 S
Cd102 O104 2.411 . S
Cd102 O105 2.333 . S
Cd102 O106 2.352 . S
Cd102 O110 2.277 . S
Cd102 O111 2.356 . S
C103 O108 1.209 . S
C103 O110 1.226 . S
O104 Cd100 2.273 . S
O104 Cd102 2.411 . S
O104 C107 1.320 . S
O105 Cd102 2.333 . S
O105 C107 1.214 . S
O106 Cd102 2.352 . S
O106 C109 1.258 . S
C107 O104 1.320 . S
C107 O105 1.214 . S
O108 Cd100 2.277 . S
O108 C103 1.209 . S
C109 O106 1.258 . S
C109 O111 1.282 . S
O110 Cd102 2.277 . S
O110 C103 1.226 . S
O111 Cd102 2.356 . S
O111 C109 1.282 . S
C112 O113 1.306 . S
C112 O115 1.160 . S
O113 C112 1.306 . S
O113 Cd114 2.228 1_545 S
Cd114 O113 2.228 1_565 S
Cd114 O118 2.273 1_565 S
Cd114 O122 2.277 . S
O115 C112 1.160 . S
O115 Cd116 2.203 . S
Cd116 O115 2.203 . S
Cd116 O118 2.411 . S
Cd116 O119 2.333 . S
Cd116 O120 2.352 . S
Cd116 O124 2.277 1_545 S
Cd116 O125 2.356 . S
C117 O122 1.209 . S
C117 O124 1.226 . S
O118 Cd114 2.273 1_545 S
O118 Cd116 2.411 . S
O118 C121 1.320 . S
O119 Cd116 2.333 . S
O119 C121 1.214 . S
O120 Cd116 2.352 . S
O120 C123 1.258 . S
C121 O118 1.320 . S
C121 O119 1.214 . S
O122 Cd114 2.277 . S
O122 C117 1.209 . S
C123 O120 1.258 . S
C123 O125 1.282 . S
O124 Cd116 2.277 1_565 S
O124 C117 1.226 . S
O125 Cd116 2.356 . S
O125 C123 1.282 . S
C126 O127 1.306 . S
C126 O129 1.160 . S
O127 C126 1.306 . S
O127 Cd128 2.228 . S
Cd128 O127 2.228 . S
Cd128 O132 2.273 . S
Cd128 O136 2.277 . S
O129 C126 1.160 . S
O129 Cd130 2.203 . S
Cd130 O129 2.203 . S
Cd130 O132 2.411 . S
Cd130 O133 2.333 . S
Cd130 O134 2.352 . S
Cd130 O138 2.277 . S
Cd130 O139 2.356 . S
C131 O136 1.209 . S
C131 O138 1.226 . S
O132 Cd128 2.273 . S
O132 Cd130 2.411 . S
O132 C135 1.320 . S
O133 Cd130 2.333 . S
O133 C135 1.214 . S
O134 Cd130 2.352 . S
O134 C137 1.258 . S
C135 O132 1.320 . S
C135 O133 1.214 . S
O136 Cd128 2.277 . S
O136 C131 1.209 . S
C137 O134 1.258 . S
C137 O139 1.282 . S
O138 Cd130 2.277 . S
O138 C131 1.226 . S
O139 Cd130 2.356 . S
O139 C137 1.282 . S
C140 O141 1.306 . S
C140 O143 1.160 . S
O141 C140 1.306 . S
O141 Cd142 2.228 . S
Cd142 O141 2.228 . S
Cd142 O146 2.273 . S
Cd142 O150 2.277 . S
O143 C140 1.160 . S
O143 Cd144 2.203 . S
Cd144 O143 2.203 . S
Cd144 O146 2.411 . S
Cd144 O147 2.333 1_545 S
Cd144 O148 2.352 1_545 S
Cd144 O152 2.277 . S
Cd144 O153 2.356 1_545 S
C145 O150 1.209 . S
C145 O152 1.226 . S
O146 Cd142 2.273 . S
O146 Cd144 2.411 . S
O146 C149 1.320 1_545 S
O147 Cd144 2.333 1_565 S
O147 C149 1.214 . S
O148 Cd144 2.352 1_565 S
O148 C151 1.258 . S
C149 O146 1.320 1_565 S
C149 O147 1.214 . S
O150 Cd142 2.277 . S
O150 C145 1.209 . S
C151 O148 1.258 . S
C151 O153 1.282 . S
O152 Cd144 2.277 . S
O152 C145 1.226 . S
O153 Cd144 2.356 1_565 S
O153 C151 1.282 . S
C154 O155 1.306 . S
C154 O157 1.160 . S
O155 C154 1.306 . S
O155 Cd156 2.228 1_554 S
Cd156 O155 2.228 1_556 S
Cd156 O160 2.273 1_556 S
Cd156 O164 2.277 . S
O157 C154 1.160 . S
O157 Cd158 2.203 . S
Cd158 O157 2.203 . S
Cd158 O160 2.411 . S
Cd158 O161 2.333 . S
Cd158 O162 2.352 . S
Cd158 O166 2.277 1_554 S
Cd158 O167 2.356 . S
C159 O164 1.209 . S
C159 O166 1.226 . S
O160 Cd156 2.273 1_554 S
O160 Cd158 2.411 . S
O160 C163 1.320 . S
O161 Cd158 2.333 . S
O161 C163 1.214 . S
O162 Cd158 2.352 . S
O162 C165 1.258 . S
C163 O160 1.320 . S
C163 O161 1.214 . S
O164 Cd156 2.277 . S
O164 C159 1.209 . S
C165 O162 1.258 . S
C165 O167 1.282 . S
O166 Cd158 2.277 1_556 S
O166 C159 1.226 . S
O167 Cd158 2.356 . S
O167 C165 1.282 . S
C168 O169 1.306 . S
C168 O171 1.160 . S
O169 C168 1.306 . S
O169 Cd170 2.228 1_554 S
Cd170 O169 2.228 1_556 S
Cd170 O174 2.273 1_556 S
Cd170 O178 2.277 . S
O171 C168 1.160 . S
O171 Cd172 2.203 . S
Cd172 O171 2.203 . S
Cd172 O174 2.411 . S
Cd172 O175 2.333 . S
Cd172 O176 2.352 . S
Cd172 O180 2.277 1_554 S
Cd172 O181 2.356 . S
C173 O178 1.209 . S
C173 O180 1.226 . S
O174 Cd170 2.273 1_554 S
O174 Cd172 2.411 . S
O174 C177 1.320 . S
O175 Cd172 2.333 . S
O175 C177 1.214 . S
O176 Cd172 2.352 . S
O176 C179 1.258 . S
C177 O174 1.320 . S
C177 O175 1.214 . S
O178 Cd170 2.277 . S
O178 C173 1.209 . S
C179 O176 1.258 . S
C179 O181 1.282 . S
O180 Cd172 2.277 1_556 S
O180 C173 1.226 . S
O181 Cd172 2.356 . S
O181 C179 1.282 . S
C182 O183 1.306 . S
C182 O185 1.160 . S
O183 C182 1.306 . S
O183 Cd184 2.228 . S
Cd184 O183 2.228 . S
Cd184 O188 2.273 . S
Cd184 O192 2.277 . S
O185 C182 1.160 . S
O185 Cd186 2.203 . S
Cd186 O185 2.203 . S
Cd186 O188 2.411 . S
Cd186 O189 2.333 . S
Cd186 O190 2.352 1_554 S
Cd186 O194 2.277 . S
Cd186 O195 2.356 1_554 S
C187 O192 1.209 . S
C187 O194 1.226 . S
O188 Cd184 2.273 . S
O188 Cd186 2.411 . S
O188 C191 1.320 . S
O189 Cd186 2.333 . S
O189 C191 1.214 . S
O190 Cd186 2.352 1_556 S
O190 C193 1.258 . S
C191 O188 1.320 . S
C191 O189 1.214 . S
O192 Cd184 2.277 . S
O192 C187 1.209 . S
C193 O190 1.258 . S
C193 O195 1.282 . S
O194 Cd186 2.277 . S
O194 C187 1.226 . S
O195 Cd186 2.356 1_556 S
O195 C193 1.282 . S
C196 O197 1.306 . S
C196 O199 1.160 . S
O197 C196 1.306 . S
O197 Cd198 2.228 . S
Cd198 O197 2.228 . S
Cd198 O202 2.273 . S
Cd198 O206 2.277 . S
O199 C196 1.160 . S
O199 Cd200 2.203 . S
Cd200 O199 2.203 . S
Cd200 O202 2.411 . S
Cd200 O203 2.333 . S
Cd200 O204 2.352 . S
Cd200 O208 2.277 . S
Cd200 O209 2.356 . S
C201 O206 1.209 . S
C201 O208 1.226 . S
O202 Cd198 2.273 . S
O202 Cd200 2.411 . S
O202 C205 1.320 . S
O203 Cd200 2.333 . S
O203 C205 1.214 . S
O204 Cd200 2.352 . S
O204 C207 1.258 . S
C205 O202 1.320 . S
C205 O203 1.214 . S
O206 Cd198 2.277 . S
O206 C201 1.209 . S
C207 O204 1.258 . S
C207 O209 1.282 . S
O208 Cd200 2.277 . S
O208 C201 1.226 . S
O209 Cd200 2.356 . S
O209 C207 1.282 . S
C210 O211 1.306 . S
C210 O213 1.160 . S
O211 C210 1.306 . S
O211 Cd212 2.230 . S
Cd212 O211 2.230 . S
Cd212 O216 2.275 . S
Cd212 O220 2.283 . S
O213 C210 1.160 . S
O213 Cd214 2.203 . S
Cd214 O213 2.203 . S
Cd214 O216 2.411 . S
Cd214 O217 2.333 . S
Cd214 O218 2.352 . S
Cd214 O222 2.277 . S
Cd214 O223 2.356 . S
C215 O220 1.209 . S
C215 O222 1.226 . S
O216 Cd212 2.275 . S
O216 Cd214 2.411 . S
O216 C219 1.320 . S
O217 Cd214 2.333 . S
O217 C219 1.214 . S
O218 Cd214 2.352 . S
O218 C221 1.258 . S
C219 O216 1.320 . S
C219 O217 1.214 . S
O220 Cd212 2.283 . S
O220 C215 1.209 . S
C221 O218 1.258 . S
C221 O223 1.282 . S
O222 Cd214 2.277 . S
O222 C215 1.226 . S
O223 Cd214 2.356 . S
O223 C221 1.282 . S
C224 O225 1.306 . S
C224 O227 1.160 . S
O225 C224 1.306 . S
O225 Cd226 2.228 1_545 S
Cd226 O225 2.228 1_565 S
Cd226 O230 2.273 1_565 S
Cd226 O234 2.277 . S
O227 C224 1.160 . S
O227 Cd228 2.203 . S
Cd228 O227 2.203 . S
Cd228 O230 2.411 . S
Cd228 O231 2.333 . S
Cd228 O232 2.352 . S
Cd228 O236 2.277 1_545 S
Cd228 O237 2.356 . S
C229 O234 1.209 . S
C229 O236 1.226 . S
O230 Cd226 2.273 1_545 S
O230 Cd228 2.411 . S
O230 C233 1.320 . S
O231 Cd228 2.333 . S
O231 C233 1.214 . S
O232 Cd228 2.352 . S
O232 C235 1.258 . S
C233 O230 1.320 . S
C233 O231 1.214 . S
O234 Cd226 2.277 . S
O234 C229 1.209 . S
C235 O232 1.258 . S
C235 O237 1.282 . S
O236 Cd228 2.277 1_565 S
O236 C229 1.226 . S
O237 Cd228 2.356 . S
O237 C235 1.282 . S
C238 O239 1.306 . S
C238 O241 1.160 . S
O239 C238 1.306 . S
O239 Cd240 2.228 . S
Cd240 O239 2.228 . S
Cd240 O244 2.273 . S
Cd240 O248 2.277 . S
O241 C238 1.160 . S
O241 Cd242 2.203 . S
Cd242 O241 2.203 . S
Cd242 O244 2.411 . S
Cd242 O245 2.333 . S
Cd242 O246 2.352 . S
Cd242 O250 2.277 . S
Cd242 O251 2.356 . S
C243 O248 1.209 . S
C243 O250 1.226 . S
O244 Cd240 2.273 . S
O244 Cd242 2.411 . S
O244 C247 1.320 . S
O245 Cd242 2.333 . S
O245 C247 1.214 . S
O246 Cd242 2.352 . S
O246 C249 1.258 . S
C247 O244 1.320 . S
C247 O245 1.214 . S
O248 Cd240 2.277 . S
O248 C243 1.209 . S
C249 O246 1.258 . S
C249 O251 1.282 . S
O250 Cd242 2.277 . S
O250 C243 1.226 . S
O251 Cd242 2.356 . S
O251 C249 1.282 . S
C252 O253 1.306 . S
C252 O255 1.160 . S
O253 C252 1.306 . S
O253 Cd254 2.228 . S
Cd254 O253 2.228 . S
Cd254 O258 2.273 . S
Cd254 O262 2.277 . S
O255 C252 1.160 . S
O255 Cd256 2.203 . S
Cd256 O255 2.203 . S
Cd256 O258 2.411 . S
Cd256 O259 2.333 . S
Cd256 O260 2.352 . S
Cd256 O264 2.277 . S
Cd256 O265 2.356 . S
C257 O262 1.209 . S
C257 O264 1.226 . S
O258 Cd254 2.273 . S
O258 Cd256 2.411 . S
O258 C261 1.320 . S
O259 Cd256 2.333 . S
O259 C261 1.214 . S
O260 Cd256 2.352 . S
O260 C263 1.258 . S
C261 O258 1.320 . S
C261 O259 1.214 . S
O262 Cd254 2.277 . S
O262 C257 1.209 . S
C263 O260 1.258 . S
C263 O265 1.282 . S
O264 Cd256 2.277 . S
O264 C257 1.226 . S
O265 Cd256 2.356 . S
O265 C263 1.282 . S
C266 O267 1.306 . S
C266 O269 1.153 1_545 S
O267 C266 1.306 . S
O267 Cd268 2.228 . S
Cd268 O267 2.228 . S
Cd268 O272 2.273 1_545 S
Cd268 O276 2.277 . S
O269 C266 1.153 1_565 S
O269 Cd270 2.203 . S
Cd270 O269 2.203 . S
Cd270 O272 2.411 . S
Cd270 O273 2.333 . S
Cd270 O274 2.352 . S
Cd270 O278 2.277 1_565 S
Cd270 O279 2.356 . S
C271 O276 1.209 . S
C271 O278 1.226 . S
O272 Cd268 2.273 1_565 S
O272 Cd270 2.411 . S
O272 C275 1.320 . S
O273 Cd270 2.333 . S
O273 C275 1.214 . S
O274 Cd270 2.352 . S
O274 C277 1.258 . S
C275 O272 1.320 . S
C275 O273 1.214 . S
O276 Cd268 2.277 . S
O276 C271 1.209 . S
C277 O274 1.258 . S
C277 O279 1.282 . S
O278 Cd270 2.277 1_545 S
O278 C271 1.226 . S
O279 Cd270 2.356 . S
O279 C277 1.282 . S
C280 O281 1.306 . S
C280 O283 1.160 1_554 S
O281 C280 1.306 . S
O281 Cd282 2.228 . S
Cd282 O281 2.228 . S
Cd282 O286 2.273 1_554 S
Cd282 O290 2.277 . S
O283 C280 1.160 1_556 S
O283 Cd284 2.203 . S
Cd284 O283 2.203 . S
Cd284 O286 2.411 . S
Cd284 O287 2.333 . S
Cd284 O288 2.352 . S
Cd284 O292 2.277 1_556 S
Cd284 O293 2.356 . S
C285 O290 1.209 . S
C285 O292 1.226 . S
O286 Cd282 2.273 1_556 S
O286 Cd284 2.411 . S
O286 C289 1.320 . S
O287 Cd284 2.333 . S
O287 C289 1.214 . S
O288 Cd284 2.352 . S
O288 C291 1.258 . S
C289 O286 1.320 . S
C289 O287 1.214 . S
O290 Cd282 2.277 . S
O290 C285 1.209 . S
C291 O288 1.258 . S
C291 O293 1.282 . S
O292 Cd284 2.277 1_554 S
O292 C285 1.226 . S
O293 Cd284 2.356 . S
O293 C291 1.282 . S
C294 O295 1.316 . S
C294 O297 1.160 . S
O295 C294 1.316 . S
O295 Cd296 2.225 1_655 S
Cd296 O295 2.225 1_455 S
Cd296 O300 2.273 1_455 S
Cd296 O304 2.277 1_455 S
O297 C294 1.160 . S
O297 Cd298 2.203 . S
Cd298 O297 2.203 . S
Cd298 O300 2.411 . S
Cd298 O301 2.333 . S
Cd298 O302 2.352 . S
Cd298 O306 2.277 . S
Cd298 O307 2.356 . S
C299 O304 1.209 . S
C299 O306 1.226 . S
O300 Cd296 2.273 1_655 S
O300 Cd298 2.411 . S
O300 C303 1.320 . S
O301 Cd298 2.333 . S
O301 C303 1.214 . S
O302 Cd298 2.352 . S
O302 C305 1.258 . S
C303 O300 1.320 . S
C303 O301 1.214 . S
O304 Cd296 2.277 1_655 S
O304 C299 1.209 . S
C305 O302 1.258 . S
C305 O307 1.282 . S
O306 Cd298 2.277 . S
O306 C299 1.226 . S
O307 Cd298 2.356 . S
O307 C305 1.282 . S
C308 O309 1.306 . S
C308 O311 1.160 . S
O309 C308 1.306 . S
O309 Cd310 2.228 . S
Cd310 O309 2.228 . S
Cd310 O314 2.273 . S
Cd310 O318 2.277 . S
O311 C308 1.160 . S
O311 Cd312 2.203 . S
Cd312 O311 2.203 . S
Cd312 O314 2.411 . S
Cd312 O315 2.333 . S
Cd312 O316 2.352 . S
Cd312 O320 2.277 . S
Cd312 O321 2.356 . S
C313 O318 1.209 . S
C313 O320 1.226 . S
O314 Cd310 2.273 . S
O314 Cd312 2.411 . S
O314 C317 1.320 . S
O315 Cd312 2.333 . S
O315 C317 1.214 . S
O316 Cd312 2.352 . S
O316 C319 1.258 . S
C317 O314 1.320 . S
C317 O315 1.214 . S
O318 Cd310 2.277 . S
O318 C313 1.209 . S
C319 O316 1.258 . S
C319 O321 1.282 . S
O320 Cd312 2.277 . S
O320 C313 1.226 . S
O321 Cd312 2.356 . S
O321 C319 1.282 . S
C322 O323 1.306 . S
C322 O325 1.160 . S
O323 C322 1.306 . S
O323 Cd324 2.228 . S
Cd324 O323 2.228 . S
Cd324 O328 2.273 . S
Cd324 O332 2.277 . S
O325 C322 1.160 . S
O325 Cd326 2.203 . S
Cd326 O325 2.203 . S
Cd326 O328 2.411 . S
Cd326 O329 2.333 . S
Cd326 O330 2.352 . S
Cd326 O334 2.277 . S
Cd326 O335 2.356 . S
C327 O332 1.209 . S
C327 O334 1.226 . S
O328 Cd324 2.273 . S
O328 Cd326 2.411 . S
O328 C331 1.320 . S
O329 Cd326 2.333 . S
O329 C331 1.214 . S
O330 Cd326 2.352 . S
O330 C333 1.258 . S
C331 O328 1.320 . S
C331 O329 1.214 . S
O332 Cd324 2.277 . S
O332 C327 1.209 . S
C333 O330 1.258 . S
C333 O335 1.282 . S
O334 Cd326 2.277 . S
O334 C327 1.226 . S
O335 Cd326 2.356 . S
O335 C333 1.282 . S
Tb336 O339 2.453 . S
Tb336 O340 2.596 . S
Tb336 O341 2.374 1_554 S
Tb336 O349 2.343 1_455 S
Tb336 O351 2.353 . S
Tb336 O353 2.427 . S
Tb336 O354 2.513 1_554 S
C337 O341 1.251 . S
C337 O343 1.263 1_545 S
Tb338 O340 2.343 1_665 S
Tb338 O343 2.353 1_654 S
Tb338 O346 2.427 . S
Tb338 O347 2.513 . S
Tb338 O348 2.453 1_564 S
Tb338 O349 2.596 1_565 S
Tb338 O350 2.374 1_565 S
O339 Tb336 2.453 . S
O339 C355 1.245 . S
O340 Tb336 2.596 . S
O340 Tb338 2.343 1_445 S
O340 C355 1.259 . S
O341 Tb336 2.374 1_556 S
O341 C337 1.251 . S
C342 O346 1.275 1_455 S
C342 O347 1.246 1_455 S
O343 C337 1.263 1_565 S
O343 Tb338 2.353 1_456 S
C344 O348 1.245 1_554 S
C344 O349 1.259 . S
C345 O350 1.250 . S
C345 O351 1.263 1_655 S
O346 Tb338 2.427 . S
O346 C342 1.275 1_655 S
O347 Tb338 2.513 . S
O347 C342 1.246 1_655 S
O348 Tb338 2.453 1_546 S
O348 C344 1.245 1_556 S
O349 Tb336 2.343 1_655 S
O349 Tb338 2.596 1_545 S
O349 C344 1.259 . S
O350 Tb338 2.374 1_545 S
O350 C345 1.250 . S
O351 Tb336 2.353 . S
O351 C345 1.263 1_455 S
C352 O353 1.275 . S
C352 O354 1.246 1_554 S
O353 Tb336 2.427 . S
O353 C352 1.275 . S
O354 Tb336 2.513 1_556 S
O354 C352 1.246 1_556 S
C355 O339 1.245 . S
C355 O340 1.259 . S
Tb356 O359 2.453 . S
Tb356 O360 2.596 . S
Tb356 O361 2.374 . S
Tb356 O369 2.343 . S
Tb356 O371 2.353 . S
Tb356 O373 2.427 . S
Tb356 O374 2.513 . S
C357 O361 1.251 . S
C357 O363 1.263 . S
Tb358 O360 2.343 . S
Tb358 O363 2.353 . S
Tb358 O366 2.427 . S
Tb358 O367 2.513 . S
Tb358 O368 2.453 . S
Tb358 O369 2.596 . S
Tb358 O370 2.374 . S
O359 Tb356 2.453 . S
O359 C375 1.245 . S
O360 Tb356 2.596 . S
O360 Tb358 2.343 . S
O360 C375 1.259 . S
O361 Tb356 2.374 . S
O361 C357 1.251 . S
C362 O366 1.275 . S
C362 O367 1.246 . S
O363 C357 1.263 . S
O363 Tb358 2.353 . S
C364 O368 1.245 . S
C364 O369 1.259 . S
C365 O370 1.250 . S
C365 O371 1.263 . S
O366 Tb358 2.427 . S
O366 C362 1.275 . S
O367 Tb358 2.513 . S
O367 C362 1.246 . S
O368 Tb358 2.453 . S
O368 C364 1.245 . S
O369 Tb356 2.343 . S
O369 Tb358 2.596 . S
O369 C364 1.259 . S
O370 Tb358 2.374 . S
O370 C365 1.250 . S
O371 Tb356 2.353 . S
O371 C365 1.263 . S
C372 O373 1.275 . S
C372 O374 1.246 . S
O373 Tb356 2.427 . S
O373 C372 1.275 . S
O374 Tb356 2.513 . S
O374 C372 1.246 . S
C375 O359 1.245 . S
C375 O360 1.259 . S
Tb376 O379 2.453 . S
Tb376 O380 2.596 . S
Tb376 O381 2.374 . S
Tb376 O389 2.343 1_545 S
Tb376 O391 2.353 . S
Tb376 O393 2.427 . S
Tb376 O394 2.513 1_545 S
C377 O381 1.251 . S
C377 O383 1.263 1_545 S
Tb378 O380 2.343 . S
Tb378 O383 2.353 1_545 S
Tb378 O386 2.427 . S
Tb378 O387 2.513 . S
Tb378 O388 2.453 1_545 S
Tb378 O389 2.596 1_545 S
Tb378 O390 2.374 . S
O379 Tb376 2.453 . S
O379 C395 1.245 . S
O380 Tb376 2.596 . S
O380 Tb378 2.343 . S
O380 C395 1.259 . S
O381 Tb376 2.374 . S
O381 C377 1.251 . S
C382 O386 1.275 . S
C382 O387 1.246 . S
O383 C377 1.263 1_565 S
O383 Tb378 2.353 1_565 S
C384 O388 1.245 . S
C384 O389 1.259 . S
C385 O390 1.250 . S
C385 O391 1.263 . S
O386 Tb378 2.427 . S
O386 C382 1.275 . S
O387 Tb378 2.513 . S
O387 C382 1.246 . S
O388 Tb378 2.453 1_565 S
O388 C384 1.245 . S
O389 Tb376 2.343 1_565 S
O389 Tb378 2.596 1_565 S
O389 C384 1.259 . S
O390 Tb378 2.374 . S
O390 C385 1.250 . S
O391 Tb376 2.353 . S
O391 C385 1.263 . S
C392 O393 1.275 1_565 S
C392 O394 1.246 . S
O393 Tb376 2.427 . S
O393 C392 1.275 1_545 S
O394 Tb376 2.513 1_565 S
O394 C392 1.246 . S
C395 O379 1.245 . S
C395 O380 1.259 . S
Tb396 O399 2.453 . S
Tb396 O400 2.596 . S
Tb396 O401 2.374 . S
Tb396 O409 2.343 . S
Tb396 O411 2.353 . S
Tb396 O413 2.427 . S
Tb396 O414 2.513 . S
C397 O401 1.251 . S
C397 O403 1.263 . S
Tb398 O400 2.343 . S
Tb398 O403 2.353 . S
Tb398 O406 2.427 . S
Tb398 O407 2.513 . S
Tb398 O408 2.453 . S
Tb398 O409 2.596 . S
Tb398 O410 2.374 . S
O399 Tb396 2.453 . S
O399 C415 1.245 . S
O400 Tb396 2.596 . S
O400 Tb398 2.343 . S
O400 C415 1.259 . S
O401 Tb396 2.374 . S
O401 C397 1.251 . S
C402 O406 1.275 . S
C402 O407 1.246 . S
O403 C397 1.263 . S
O403 Tb398 2.353 . S
C404 O408 1.245 . S
C404 O409 1.259 . S
C405 O410 1.250 . S
C405 O411 1.263 . S
O406 Tb398 2.427 . S
O406 C402 1.275 . S
O407 Tb398 2.513 . S
O407 C402 1.246 . S
O408 Tb398 2.453 . S
O408 C404 1.245 . S
O409 Tb396 2.343 . S
O409 Tb398 2.596 . S
O409 C404 1.259 . S
O410 Tb398 2.374 . S
O410 C405 1.250 . S
O411 Tb396 2.353 . S
O411 C405 1.263 . S
C412 O413 1.275 . S
C412 O414 1.246 . S
O413 Tb396 2.427 . S
O413 C412 1.275 . S
O414 Tb396 2.513 . S
O414 C412 1.246 . S
C415 O399 1.245 . S
C415 O400 1.259 . S
Tb416 O419 2.457 . S
Tb416 O420 2.597 . S
Tb416 O421 2.365 1_455 S
Tb416 O429 2.341 1_565 S
Tb416 O431 2.363 1_565 S
Tb416 O433 2.428 1_565 S
Tb416 O434 2.505 1_465 S
C417 O421 1.254 . S
C417 O423 1.251 1_565 S
Tb418 O420 2.343 1_545 S
Tb418 O423 2.353 1_455 S
Tb418 O426 2.427 . S
Tb418 O427 2.513 . S
Tb418 O428 2.453 . S
Tb418 O429 2.596 . S
Tb418 O430 2.374 . S
O419 Tb416 2.457 . S
O419 C435 1.245 . S
O420 Tb416 2.597 . S
O420 Tb418 2.343 1_565 S
O420 C435 1.259 . S
O421 Tb416 2.365 1_655 S
O421 C417 1.254 . S
C422 O426 1.275 . S
C422 O427 1.246 . S
O423 C417 1.251 1_545 S
O423 Tb418 2.353 1_655 S
C424 O428 1.245 . S
C424 O429 1.259 . S
C425 O430 1.250 . S
C425 O431 1.263 . S
O426 Tb418 2.427 . S
O426 C422 1.275 . S
O427 Tb418 2.513 . S
O427 C422 1.246 . S
O428 Tb418 2.453 . S
O428 C424 1.245 . S
O429 Tb416 2.341 1_545 S
O429 Tb418 2.596 . S
O429 C424 1.259 . S
O430 Tb418 2.374 . S
O430 C425 1.250 . S
O431 Tb416 2.363 1_545 S
O431 C425 1.263 . S
C432 O433 1.275 1_655 S
C432 O434 1.246 . S
O433 Tb416 2.428 1_545 S
O433 C432 1.275 1_455 S
O434 Tb416 2.505 1_645 S
O434 C432 1.246 . S
C435 O419 1.245 . S
C435 O420 1.259 . S
Tb436 O439 2.453 . S
Tb436 O440 2.596 . S
Tb436 O441 2.374 . S
Tb436 O449 2.343 . S
Tb436 O451 2.353 . S
Tb436 O453 2.427 . S
Tb436 O454 2.513 . S
C437 O441 1.251 . S
C437 O443 1.263 . S
Tb438 O440 2.343 . S
Tb438 O443 2.353 . S
Tb438 O446 2.427 . S
Tb438 O447 2.513 . S
Tb438 O448 2.453 . S
Tb438 O449 2.596 . S
Tb438 O450 2.374 . S
O439 Tb436 2.453 . S
O439 C455 1.245 . S
O440 Tb436 2.596 . S
O440 Tb438 2.343 . S
O440 C455 1.259 . S
O441 Tb436 2.374 . S
O441 C437 1.251 . S
C442 O446 1.275 . S
C442 O447 1.246 . S
O443 C437 1.263 . S
O443 Tb438 2.353 . S
C444 O448 1.245 . S
C444 O449 1.259 . S
C445 O450 1.250 . S
C445 O451 1.263 . S
O446 Tb438 2.427 . S
O446 C442 1.275 . S
O447 Tb438 2.513 . S
O447 C442 1.246 . S
O448 Tb438 2.453 . S
O448 C444 1.245 . S
O449 Tb436 2.343 . S
O449 Tb438 2.596 . S
O449 C444 1.259 . S
O450 Tb438 2.374 . S
O450 C445 1.250 . S
O451 Tb436 2.353 . S
O451 C445 1.263 . S
C452 O453 1.275 . S
C452 O454 1.246 . S
O453 Tb436 2.427 . S
O453 C452 1.275 . S
O454 Tb436 2.513 . S
O454 C452 1.246 . S
C455 O439 1.245 . S
C455 O440 1.259 . S
Tb456 O459 2.453 . S
Tb456 O460 2.596 . S
Tb456 O461 2.374 1_545 S
Tb456 O469 2.343 1_556 S
Tb456 O471 2.353 1_556 S
Tb456 O473 2.427 1_556 S
Tb456 O474 2.513 1_546 S
C457 O461 1.251 1_554 S
C457 O463 1.263 . S
Tb458 O460 2.343 1_554 S
Tb458 O463 2.353 1_545 S
Tb458 O466 2.427 . S
Tb458 O467 2.513 . S
Tb458 O468 2.453 . S
Tb458 O469 2.596 . S
Tb458 O470 2.374 . S
O459 Tb456 2.453 . S
O459 C475 1.245 . S
O460 Tb456 2.596 . S
O460 Tb458 2.343 1_556 S
O460 C475 1.259 . S
O461 Tb456 2.374 1_565 S
O461 C457 1.251 1_556 S
C462 O466 1.275 . S
C462 O467 1.246 . S
O463 C457 1.263 . S
O463 Tb458 2.353 1_565 S
C464 O468 1.245 . S
C464 O469 1.259 . S
C465 O470 1.250 . S
C465 O471 1.263 . S
O466 Tb458 2.427 . S
O466 C462 1.275 . S
O467 Tb458 2.513 . S
O467 C462 1.246 . S
O468 Tb458 2.453 . S
O468 C464 1.245 . S
O469 Tb456 2.343 1_554 S
O469 Tb458 2.596 . S
O469 C464 1.259 . S
O470 Tb458 2.374 . S
O470 C465 1.250 . S
O471 Tb456 2.353 1_554 S
O471 C465 1.263 . S
C472 O473 1.275 1_565 S
C472 O474 1.246 . S
O473 Tb456 2.427 1_554 S
O473 C472 1.275 1_545 S
O474 Tb456 2.513 1_564 S
O474 C472 1.246 . S
C475 O459 1.245 . S
C475 O460 1.259 . S
Tb476 O479 2.453 . S
Tb476 O480 2.596 . S
Tb476 O481 2.374 . S
Tb476 O489 2.343 . S
Tb476 O491 2.353 . S
Tb476 O493 2.427 . S
Tb476 O494 2.513 . S
C477 O481 1.251 . S
C477 O483 1.263 . S
Tb478 O480 2.343 . S
Tb478 O483 2.353 . S
Tb478 O486 2.427 . S
Tb478 O487 2.513 . S
Tb478 O488 2.453 . S
Tb478 O489 2.596 . S
Tb478 O490 2.374 . S
O479 Tb476 2.453 . S
O479 C495 1.245 . S
O480 Tb476 2.596 . S
O480 Tb478 2.343 . S
O480 C495 1.259 . S
O481 Tb476 2.374 . S
O481 C477 1.251 . S
C482 O486 1.275 . S
C482 O487 1.246 . S
O483 C477 1.263 . S
O483 Tb478 2.353 . S
C484 O488 1.245 . S
C484 O489 1.259 . S
C485 O490 1.250 . S
C485 O491 1.263 . S
O486 Tb478 2.427 . S
O486 C482 1.275 . S
O487 Tb478 2.513 . S
O487 C482 1.246 . S
O488 Tb478 2.453 . S
O488 C484 1.245 . S
O489 Tb476 2.343 . S
O489 Tb478 2.596 . S
O489 C484 1.259 . S
O490 Tb478 2.374 . S
O490 C485 1.250 . S
O491 Tb476 2.353 . S
O491 C485 1.263 . S
C492 O493 1.275 . S
C492 O494 1.246 . S
O493 Tb476 2.427 . S
O493 C492 1.275 . S
O494 Tb476 2.513 . S
O494 C492 1.246 . S
C495 O479 1.245 . S
C495 O480 1.259 . S
Tb496 O499 2.453 1_556 S
Tb496 O500 2.596 1_556 S
Tb496 O501 2.374 1_556 S
Tb496 O509 2.343 1_556 S
Tb496 O511 2.353 . S
Tb496 O513 2.427 . S
Tb496 O514 2.513 . S
C497 O501 1.251 . S
C497 O503 1.263 . S
Tb498 O500 2.343 . S
Tb498 O503 2.353 . S
Tb498 O506 2.427 . S
Tb498 O507 2.513 . S
Tb498 O508 2.453 . S
Tb498 O509 2.596 . S
Tb498 O510 2.374 . S
O499 Tb496 2.453 1_554 S
O499 C515 1.245 . S
O500 Tb496 2.596 1_554 S
O500 Tb498 2.343 . S
O500 C515 1.259 . S
O501 Tb496 2.374 1_554 S
O501 C497 1.251 . S
C502 O506 1.275 . S
C502 O507 1.246 . S
O503 C497 1.263 . S
O503 Tb498 2.353 . S
C504 O508 1.245 . S
C504 O509 1.259 . S
C505 O510 1.250 . S
C505 O511 1.263 1_554 S
O506 Tb498 2.427 . S
O506 C502 1.275 . S
O507 Tb498 2.513 . S
O507 C502 1.246 . S
O508 Tb498 2.453 . S
O508 C504 1.245 . S
O509 Tb496 2.343 1_554 S
O509 Tb498 2.596 . S
O509 C504 1.259 . S
O510 Tb498 2.374 . S
O510 C505 1.250 . S
O511 Tb496 2.353 . S
O511 C505 1.263 1_556 S
C512 O513 1.275 . S
C512 O514 1.246 . S
O513 Tb496 2.427 . S
O513 C512 1.275 . S
O514 Tb496 2.513 . S
O514 C512 1.246 . S
C515 O499 1.245 . S
C515 O500 1.259 . S
Tb516 O519 2.453 . S
Tb516 O520 2.596 . S
Tb516 O521 2.374 . S
Tb516 O529 2.343 . S
Tb516 O531 2.353 . S
Tb516 O533 2.427 . S
Tb516 O534 2.513 . S
C517 O521 1.251 . S
C517 O523 1.263 . S
Tb518 O520 2.343 . S
Tb518 O523 2.353 . S
Tb518 O526 2.427 . S
Tb518 O527 2.513 . S
Tb518 O528 2.453 . S
Tb518 O529 2.596 . S
Tb518 O530 2.374 . S
O519 Tb516 2.453 . S
O519 C535 1.245 . S
O520 Tb516 2.596 . S
O520 Tb518 2.343 . S
O520 C535 1.259 . S
O521 Tb516 2.374 . S
O521 C517 1.251 . S
C522 O526 1.275 . S
C522 O527 1.246 . S
O523 C517 1.263 . S
O523 Tb518 2.353 . S
C524 O528 1.245 . S
C524 O529 1.259 . S
C525 O530 1.250 . S
C525 O531 1.263 . S
O526 Tb518 2.427 . S
O526 C522 1.275 . S
O527 Tb518 2.513 . S
O527 C522 1.246 . S
O528 Tb518 2.453 . S
O528 C524 1.245 . S
O529 Tb516 2.343 . S
O529 Tb518 2.596 . S
O529 C524 1.259 . S
O530 Tb518 2.374 . S
O530 C525 1.250 . S
O531 Tb516 2.353 . S
O531 C525 1.263 . S
C532 O533 1.275 . S
C532 O534 1.246 . S
O533 Tb516 2.427 . S
O533 C532 1.275 . S
O534 Tb516 2.513 . S
O534 C532 1.246 . S
C535 O519 1.245 . S
C535 O520 1.259 . S
Tb536 O539 2.453 . S
Tb536 O540 2.596 1_655 S
Tb536 O541 2.374 . S
Tb536 O549 2.343 . S
Tb536 O551 2.353 . S
Tb536 O553 2.427 . S
Tb536 O554 2.513 . S
C537 O541 1.251 1_455 S
C537 O543 1.263 . S
Tb538 O540 2.343 . S
Tb538 O543 2.353 . S
Tb538 O546 2.427 . S
Tb538 O547 2.513 . S
Tb538 O548 2.453 . S
Tb538 O549 2.596 1_455 S
Tb538 O550 2.374 . S
O539 Tb536 2.453 . S
O539 C555 1.245 1_655 S
O540 Tb536 2.596 1_455 S
O540 Tb538 2.343 . S
O540 C555 1.259 . S
O541 Tb536 2.374 . S
O541 C537 1.251 1_655 S
C542 O546 1.275 . S
C542 O547 1.246 . S
O543 C537 1.263 . S
O543 Tb538 2.353 . S
C544 O548 1.245 1_655 S
C544 O549 1.259 . S
C545 O550 1.249 1_655 S
C545 O551 1.264 . S
O546 Tb538 2.427 . S
O546 C542 1.275 . S
O547 Tb538 2.513 . S
O547 C542 1.246 . S
O548 Tb538 2.453 . S
O548 C544 1.245 1_455 S
O549 Tb536 2.343 . S
O549 Tb538 2.596 1_655 S
O549 C544 1.259 . S
O550 Tb538 2.374 . S
O550 C545 1.249 1_455 S
O551 Tb536 2.353 . S
O551 C545 1.264 . S
C552 O553 1.275 . S
C552 O554 1.246 . S
O553 Tb536 2.427 . S
O553 C552 1.275 . S
O554 Tb536 2.513 . S
O554 C552 1.246 . S
C555 O539 1.245 1_455 S
C555 O540 1.259 . S
Tb556 O559 2.453 . S
Tb556 O560 2.596 . S
Tb556 O561 2.374 . S
Tb556 O569 2.343 . S
Tb556 O571 2.353 . S
Tb556 O573 2.427 . S
Tb556 O574 2.513 . S
C557 O561 1.251 . S
C557 O563 1.263 . S
Tb558 O560 2.343 . S
Tb558 O563 2.353 . S
Tb558 O566 2.427 . S
Tb558 O567 2.513 . S
Tb558 O568 2.453 . S
Tb558 O569 2.596 . S
Tb558 O570 2.374 . S
O559 Tb556 2.453 . S
O559 C575 1.245 . S
O560 Tb556 2.596 . S
O560 Tb558 2.343 . S
O560 C575 1.259 . S
O561 Tb556 2.374 . S
O561 C557 1.251 . S
C562 O566 1.275 . S
C562 O567 1.246 . S
O563 C557 1.263 . S
O563 Tb558 2.353 . S
C564 O568 1.245 . S
C564 O569 1.259 . S
C565 O570 1.250 . S
C565 O571 1.263 . S
O566 Tb558 2.427 . S
O566 C562 1.275 . S
O567 Tb558 2.513 . S
O567 C562 1.246 . S
O568 Tb558 2.453 . S
O568 C564 1.245 . S
O569 Tb556 2.343 . S
O569 Tb558 2.596 . S
O569 C564 1.259 . S
O570 Tb558 2.374 . S
O570 C565 1.250 . S
O571 Tb556 2.353 . S
O571 C565 1.263 . S
C572 O573 1.275 . S
C572 O574 1.246 . S
O573 Tb556 2.427 . S
O573 C572 1.275 . S
O574 Tb556 2.513 . S
O574 C572 1.246 . S
C575 O559 1.245 . S
C575 O560 1.259 . S
Tb576 O579 2.453 . S
Tb576 O580 2.596 . S
Tb576 O581 2.374 . S
Tb576 O589 2.343 . S
Tb576 O591 2.353 . S
Tb576 O593 2.427 . S
Tb576 O594 2.513 . S
C577 O581 1.251 . S
C577 O583 1.263 . S
Tb578 O580 2.343 . S
Tb578 O583 2.353 . S
Tb578 O586 2.427 . S
Tb578 O587 2.513 . S
Tb578 O588 2.453 . S
Tb578 O589 2.596 . S
Tb578 O590 2.374 . S
O579 Tb576 2.453 . S
O579 C595 1.245 . S
O580 Tb576 2.596 . S
O580 Tb578 2.343 . S
O580 C595 1.259 . S
O581 Tb576 2.374 . S
O581 C577 1.251 . S
C582 O586 1.275 . S
C582 O587 1.246 . S
O583 C577 1.263 . S
O583 Tb578 2.353 . S
C584 O588 1.245 . S
C584 O589 1.259 . S
C585 O590 1.250 . S
C585 O591 1.263 . S
O586 Tb578 2.427 . S
O586 C582 1.275 . S
O587 Tb578 2.513 . S
O587 C582 1.246 . S
O588 Tb578 2.453 . S
O588 C584 1.245 . S
O589 Tb576 2.343 . S
O589 Tb578 2.596 . S
O589 C584 1.259 . S
O590 Tb578 2.374 . S
O590 C585 1.250 . S
O591 Tb576 2.353 . S
O591 C585 1.263 . S
C592 O593 1.275 . S
C592 O594 1.246 . S
O593 Tb576 2.427 . S
O593 C592 1.275 . S
O594 Tb576 2.513 . S
O594 C592 1.246 . S
C595 O579 1.245 . S
C595 O580 1.259 . S
Tb596 O599 2.453 . S
Tb596 O600 2.596 . S
Tb596 O601 2.374 . S
Tb596 O609 2.343 . S
Tb596 O611 2.353 . S
Tb596 O613 2.427 . S
Tb596 O614 2.513 . S
C597 O601 1.251 . S
C597 O603 1.263 . S
Tb598 O600 2.343 . S
Tb598 O603 2.353 . S
Tb598 O606 2.427 . S
Tb598 O607 2.513 . S
Tb598 O608 2.453 . S
Tb598 O609 2.596 . S
Tb598 O610 2.374 . S
O599 Tb596 2.453 . S
O599 C615 1.245 . S
O600 Tb596 2.596 . S
O600 Tb598 2.343 . S
O600 C615 1.259 . S
O601 Tb596 2.374 . S
O601 C597 1.251 . S
C602 O606 1.275 . S
C602 O607 1.246 . S
O603 C597 1.263 . S
O603 Tb598 2.353 . S
C604 O608 1.245 . S
C604 O609 1.259 . S
C605 O610 1.250 . S
C605 O611 1.263 . S
O606 Tb598 2.427 . S
O606 C602 1.275 . S
O607 Tb598 2.513 . S
O607 C602 1.246 . S
O608 Tb598 2.453 . S
O608 C604 1.245 . S
O609 Tb596 2.343 . S
O609 Tb598 2.596 . S
O609 C604 1.259 . S
O610 Tb598 2.374 . S
O610 C605 1.250 . S
O611 Tb596 2.353 . S
O611 C605 1.263 . S
C612 O613 1.275 . S
C612 O614 1.246 . S
O613 Tb596 2.427 . S
O613 C612 1.275 . S
O614 Tb596 2.513 . S
O614 C612 1.246 . S
C615 O599 1.245 . S
C615 O600 1.259 . S
Tb616 O619 2.453 . S
Tb616 O620 2.596 . S
Tb616 O621 2.374 . S
Tb616 O629 2.343 . S
Tb616 O631 2.353 . S
Tb616 O633 2.427 . S
Tb616 O634 2.513 . S
C617 O621 1.251 . S
C617 O623 1.263 . S
Tb618 O620 2.343 . S
Tb618 O623 2.353 . S
Tb618 O626 2.427 . S
Tb618 O627 2.513 . S
Tb618 O628 2.453 . S
Tb618 O629 2.596 . S
Tb618 O630 2.374 . S
O619 Tb616 2.453 . S
O619 C635 1.245 . S
O620 Tb616 2.596 . S
O620 Tb618 2.343 . S
O620 C635 1.259 . S
O621 Tb616 2.374 . S
O621 C617 1.251 . S
C622 O626 1.275 . S
C622 O627 1.246 . S
O623 C617 1.263 . S
O623 Tb618 2.353 . S
C624 O628 1.245 . S
C624 O629 1.259 . S
C625 O630 1.250 . S
C625 O631 1.263 . S
O626 Tb618 2.427 . S
O626 C622 1.275 . S
O627 Tb618 2.513 . S
O627 C622 1.246 . S
O628 Tb618 2.453 . S
O628 C624 1.245 . S
O629 Tb616 2.343 . S
O629 Tb618 2.596 . S
O629 C624 1.259 . S
O630 Tb618 2.374 . S
O630 C625 1.250 . S
O631 Tb616 2.353 . S
O631 C625 1.263 . S
C632 O633 1.275 . S
C632 O634 1.246 . S
O633 Tb616 2.427 . S
O633 C632 1.275 . S
O634 Tb616 2.513 . S
O634 C632 1.246 . S
C635 O619 1.245 . S
C635 O620 1.259 . S
Tb636 O639 2.453 . S
Tb636 O640 2.596 . S
Tb636 O641 2.374 . S
Tb636 O649 2.343 . S
Tb636 O651 2.353 1_554 S
Tb636 O653 2.427 1_554 S
Tb636 O654 2.513 . S
C637 O641 1.251 . S
C637 O643 1.263 1_455 S
Tb638 O640 2.343 1_655 S
Tb638 O643 2.353 . S
Tb638 O646 2.427 . S
Tb638 O647 2.513 . S
Tb638 O648 2.452 1_554 S
Tb638 O649 2.596 1_655 S
Tb638 O650 2.374 1_554 S
O639 Tb636 2.453 . S
O639 C655 1.245 . S
O640 Tb636 2.596 . S
O640 Tb638 2.343 1_455 S
O640 C655 1.259 . S
O641 Tb636 2.374 . S
O641 C637 1.251 . S
C642 O646 1.275 . S
C642 O647 1.246 . S
O643 C637 1.263 1_655 S
O643 Tb638 2.353 . S
C644 O648 1.246 . S
C644 O649 1.259 1_656 S
C645 O650 1.250 1_455 S
C645 O651 1.263 . S
O646 Tb638 2.427 . S
O646 C642 1.275 . S
O647 Tb638 2.513 . S
O647 C642 1.246 . S
O648 Tb638 2.452 1_556 S
O648 C644 1.246 . S
O649 Tb636 2.343 . S
O649 Tb638 2.596 1_455 S
O649 C644 1.259 1_454 S
O650 Tb638 2.374 1_556 S
O650 C645 1.250 1_655 S
O651 Tb636 2.353 1_556 S
O651 C645 1.263 . S
C652 O653 1.275 1_554 S
C652 O654 1.246 . S
O653 Tb636 2.427 1_556 S
O653 C652 1.275 1_556 S
O654 Tb636 2.513 . S
O654 C652 1.246 . S
C655 O639 1.245 . S
C655 O640 1.259 . S
C109 C352 1.732 1_556 S
C65 C365 1.620 . S
C75 C384 1.809 . S
C415 C84 2.160 . S
C25 C435 1.724 . S
C452 C28 1.093 . S
C465 C47 1.530 . S
C9 C492 2.034 . S
C345 C233 1.751 . S
C249 C375 2.017 . S
C377 C275 2.068 1_545 S
C412 C173 0.897 . S
C224 C432 1.259 . S
C445 C243 2.079 . S
C475 C266 1.622 . S
C485 C179 1.383 . S
C355 C163 2.232 1_545 S
C289 C505 1.812 1_556 S
C535 C333 1.989 . S
C552 C308 1.194 . S
C123 C495 2.441 . S
C126 C382 1.678 . S
C327 C565 2.047 . S
C592 C299 1.814 . S
C342 C67 1.662 . S
C577 C98 1.633 . S
C89 C395 1.803 . S
C79 C564 2.179 . S
C424 C11 1.763 . S
C51 C522 1.255 . S
C457 C33 1.557 1_554 S
C602 C14 1.743 . S
C337 C140 1.547 . S
C584 C319 2.109 . S
C112 C385 1.982 . S
C285 C562 0.883 . S
C149 C422 1.418 1_565 S
C517 C313 2.107 . S
C121 C464 1.812 . S
C291 C597 1.334 . S
C182 C344 2.124 . S
C168 C497 1.720 . S
C263 C444 2.098 . S
C247 C542 1.356 . S
C604 C277 2.374 . S
C219 C392 1.895 . S
C397 C257 2.092 . S
C362 C201 1.726 . S
C81 C632 1.732 . S
C585 C93 1.620 . S
C103 C644 1.809 1_455 S
C56 C575 2.160 . S
C53 C515 1.724 . S
C532 C0 1.093 . S
C545 C19 1.531 . S
C612 C37 2.034 . S
C625 C261 1.751 . S
C193 C595 2.017 . S
C637 C205 2.068 . S
C572 C215 0.897 . S
C512 C252 1.259 . S
C187 C525 2.079 . S
C555 C196 1.622 . S
C221 C605 1.384 . S
C635 C317 2.232 . S
C135 C425 1.813 . S
C455 C151 1.989 . S
C472 C154 1.194 . S
C615 C305 2.441 . S
C280 C642 1.676 . S
C405 C145 2.047 . S
C372 C117 1.814 . S
C95 C622 1.662 . S
C357 C70 1.633 . S
C61 C655 1.803 1_655 S
C107 C404 2.179 . S
C39 C504 1.763 1_556 S
C442 C23 1.255 . S
C5 C537 1.557 . S
C42 C482 1.743 . S
C617 C322 1.547 . S
C165 C364 2.109 . S
C645 C294 1.982 1_455 S
C131 C402 0.884 . S
C331 C502 1.418 . S
C437 C159 2.107 . S
C303 C544 1.812 . S
C477 C137 1.333 . S
C624 C238 2.124 . S
C417 C210 1.728 . S
C235 C524 2.097 . S
C462 C191 1.356 . S
C207 C484 2.374 . S
C177 C652 1.895 . S
C557 C229 2.092 . S
C582 C271 1.726 . S
