# Generated by pormake.
# Topology gar, (4,6)-cn, num edge types: 1
# Building blocks:
#     Node 0, Type 0, BuildingBlock: KUFVIS_clean_sbu_0, # of connection points: 4
#     Node 1, Type 0, BuildingBlock: KUFVIS_clean_sbu_0, # of connection points: 4
#     Node 2, Type 0, BuildingBlock: KUFVIS_clean_sbu_0, # of connection points: 4
#     Node 3, Type 0, BuildingBlock: KUFVIS_clean_sbu_0, # of connection points: 4
#     Node 4, Type 0, BuildingBlock: KUFVIS_clean_sbu_0, # of connection points: 4
#     Node 5, Type 0, BuildingBlock: KUFVIS_clean_sbu_0, # of connection points: 4
#     Node 6, Type 0, BuildingBlock: KUFVIS_clean_sbu_0, # of connection points: 4
#     Node 7, Type 0, BuildingBlock: KUFVIS_clean_sbu_0, # of connection points: 4
#     Node 8, Type 0, BuildingBlock: KUFVIS_clean_sbu_0, # of connection points: 4
#     Node 9, Type 0, BuildingBlock: KUFVIS_clean_sbu_0, # of connection points: 4
#     Node 10, Type 0, BuildingBlock: KUFVIS_clean_sbu_0, # of connection points: 4
#     Node 11, Type 0, BuildingBlock: KUFVIS_clean_sbu_0, # of connection points: 4
#     Node 12, Type 0, BuildingBlock: KUFVIS_clean_sbu_0, # of connection points: 4
#     Node 13, Type 0, BuildingBlock: KUFVIS_clean_sbu_0, # of connection points: 4
#     Node 14, Type 0, BuildingBlock: KUFVIS_clean_sbu_0, # of connection points: 4
#     Node 15, Type 0, BuildingBlock: KUFVIS_clean_sbu_0, # of connection points: 4
#     Node 16, Type 0, BuildingBlock: KUFVIS_clean_sbu_0, # of connection points: 4
#     Node 17, Type 0, BuildingBlock: KUFVIS_clean_sbu_0, # of connection points: 4
#     Node 18, Type 0, BuildingBlock: KUFVIS_clean_sbu_0, # of connection points: 4
#     Node 19, Type 0, BuildingBlock: KUFVIS_clean_sbu_0, # of connection points: 4
#     Node 20, Type 0, BuildingBlock: KUFVIS_clean_sbu_0, # of connection points: 4
#     Node 21, Type 0, BuildingBlock: KUFVIS_clean_sbu_0, # of connection points: 4
#     Node 22, Type 0, BuildingBlock: KUFVIS_clean_sbu_0, # of connection points: 4
#     Node 23, Type 0, BuildingBlock: KUFVIS_clean_sbu_0, # of connection points: 4
#     Node 24, Type 1, BuildingBlock: PAMTOO_clean_sbu_0, # of connection points: 6
#     Node 25, Type 1, BuildingBlock: PAMTOO_clean_sbu_0, # of connection points: 6
#     Node 26, Type 1, BuildingBlock: PAMTOO_clean_sbu_0, # of connection points: 6
#     Node 27, Type 1, BuildingBlock: PAMTOO_clean_sbu_0, # of connection points: 6
#     Node 28, Type 1, BuildingBlock: PAMTOO_clean_sbu_0, # of connection points: 6
#     Node 29, Type 1, BuildingBlock: PAMTOO_clean_sbu_0, # of connection points: 6
#     Node 30, Type 1, BuildingBlock: PAMTOO_clean_sbu_0, # of connection points: 6
#     Node 31, Type 1, BuildingBlock: PAMTOO_clean_sbu_0, # of connection points: 6
#     Node 32, Type 1, BuildingBlock: PAMTOO_clean_sbu_0, # of connection points: 6
#     Node 33, Type 1, BuildingBlock: PAMTOO_clean_sbu_0, # of connection points: 6
#     Node 34, Type 1, BuildingBlock: PAMTOO_clean_sbu_0, # of connection points: 6
#     Node 35, Type 1, BuildingBlock: PAMTOO_clean_sbu_0, # of connection points: 6
#     Node 36, Type 1, BuildingBlock: PAMTOO_clean_sbu_0, # of connection points: 6
#     Node 37, Type 1, BuildingBlock: PAMTOO_clean_sbu_0, # of connection points: 6
#     Node 38, Type 1, BuildingBlock: PAMTOO_clean_sbu_0, # of connection points: 6
#     Node 39, Type 1, BuildingBlock: PAMTOO_clean_sbu_0, # of connection points: 6
#     Edge 40, Type (0, 1), BuildingBlock: TEMPAE_clean_linker_10, # of connection points: 2
#     Edge 41, Type (0, 1), BuildingBlock: TEMPAE_clean_linker_10, # of connection points: 2
#     Edge 42, Type (0, 1), BuildingBlock: TEMPAE_clean_linker_10, # of connection points: 2
#     Edge 43, Type (0, 1), BuildingBlock: TEMPAE_clean_linker_10, # of connection points: 2
#     Edge 44, Type (0, 1), BuildingBlock: TEMPAE_clean_linker_10, # of connection points: 2
#     Edge 45, Type (0, 1), BuildingBlock: TEMPAE_clean_linker_10, # of connection points: 2
#     Edge 46, Type (0, 1), BuildingBlock: TEMPAE_clean_linker_10, # of connection points: 2
#     Edge 47, Type (0, 1), BuildingBlock: TEMPAE_clean_linker_10, # of connection points: 2
#     Edge 48, Type (0, 1), BuildingBlock: TEMPAE_clean_linker_10, # of connection points: 2
#     Edge 49, Type (0, 1), BuildingBlock: TEMPAE_clean_linker_10, # of connection points: 2
#     Edge 50, Type (0, 1), BuildingBlock: TEMPAE_clean_linker_10, # of connection points: 2
#     Edge 51, Type (0, 1), BuildingBlock: TEMPAE_clean_linker_10, # of connection points: 2
#     Edge 52, Type (0, 1), BuildingBlock: TEMPAE_clean_linker_10, # of connection points: 2
#     Edge 53, Type (0, 1), BuildingBlock: TEMPAE_clean_linker_10, # of connection points: 2
#     Edge 54, Type (0, 1), BuildingBlock: TEMPAE_clean_linker_10, # of connection points: 2
#     Edge 55, Type (0, 1), BuildingBlock: TEMPAE_clean_linker_10, # of connection points: 2
#     Edge 56, Type (0, 1), BuildingBlock: TEMPAE_clean_linker_10, # of connection points: 2
#     Edge 57, Type (0, 1), BuildingBlock: TEMPAE_clean_linker_10, # of connection points: 2
#     Edge 58, Type (0, 1), BuildingBlock: TEMPAE_clean_linker_10, # of connection points: 2
#     Edge 59, Type (0, 1), BuildingBlock: TEMPAE_clean_linker_10, # of connection points: 2
#     Edge 60, Type (0, 1), BuildingBlock: TEMPAE_clean_linker_10, # of connection points: 2
#     Edge 61, Type (0, 1), BuildingBlock: TEMPAE_clean_linker_10, # of connection points: 2
#     Edge 62, Type (0, 1), BuildingBlock: TEMPAE_clean_linker_10, # of connection points: 2
#     Edge 63, Type (0, 1), BuildingBlock: TEMPAE_clean_linker_10, # of connection points: 2
#     Edge 64, Type (0, 1), BuildingBlock: TEMPAE_clean_linker_10, # of connection points: 2
#     Edge 65, Type (0, 1), BuildingBlock: TEMPAE_clean_linker_10, # of connection points: 2
#     Edge 66, Type (0, 1), BuildingBlock: TEMPAE_clean_linker_10, # of connection points: 2
#     Edge 67, Type (0, 1), BuildingBlock: TEMPAE_clean_linker_10, # of connection points: 2
#     Edge 68, Type (0, 1), BuildingBlock: TEMPAE_clean_linker_10, # of connection points: 2
#     Edge 69, Type (0, 1), BuildingBlock: TEMPAE_clean_linker_10, # of connection points: 2
#     Edge 70, Type (0, 1), BuildingBlock: TEMPAE_clean_linker_10, # of connection points: 2
#     Edge 71, Type (0, 1), BuildingBlock: TEMPAE_clean_linker_10, # of connection points: 2
#     Edge 72, Type (0, 1), BuildingBlock: TEMPAE_clean_linker_10, # of connection points: 2
#     Edge 73, Type (0, 1), BuildingBlock: TEMPAE_clean_linker_10, # of connection points: 2
#     Edge 74, Type (0, 1), BuildingBlock: TEMPAE_clean_linker_10, # of connection points: 2
#     Edge 75, Type (0, 1), BuildingBlock: TEMPAE_clean_linker_10, # of connection points: 2
#     Edge 76, Type (0, 1), BuildingBlock: TEMPAE_clean_linker_10, # of connection points: 2
#     Edge 77, Type (0, 1), BuildingBlock: TEMPAE_clean_linker_10, # of connection points: 2
#     Edge 78, Type (0, 1), BuildingBlock: TEMPAE_clean_linker_10, # of connection points: 2
#     Edge 79, Type (0, 1), BuildingBlock: TEMPAE_clean_linker_10, # of connection points: 2
#     Edge 80, Type (0, 1), BuildingBlock: TEMPAE_clean_linker_10, # of connection points: 2
#     Edge 81, Type (0, 1), BuildingBlock: TEMPAE_clean_linker_10, # of connection points: 2
#     Edge 82, Type (0, 1), BuildingBlock: TEMPAE_clean_linker_10, # of connection points: 2
#     Edge 83, Type (0, 1), BuildingBlock: TEMPAE_clean_linker_10, # of connection points: 2
#     Edge 84, Type (0, 1), BuildingBlock: TEMPAE_clean_linker_10, # of connection points: 2
#     Edge 85, Type (0, 1), BuildingBlock: TEMPAE_clean_linker_10, # of connection points: 2
#     Edge 86, Type (0, 1), BuildingBlock: TEMPAE_clean_linker_10, # of connection points: 2
#     Edge 87, Type (0, 1), BuildingBlock: TEMPAE_clean_linker_10, # of connection points: 2
#     Edge 88, Type (0, 1), BuildingBlock: TEMPAE_clean_linker_10, # of connection points: 2
#     Edge 89, Type (0, 1), BuildingBlock: TEMPAE_clean_linker_10, # of connection points: 2
#     Edge 90, Type (0, 1), BuildingBlock: TEMPAE_clean_linker_10, # of connection points: 2
#     Edge 91, Type (0, 1), BuildingBlock: TEMPAE_clean_linker_10, # of connection points: 2
#     Edge 92, Type (0, 1), BuildingBlock: TEMPAE_clean_linker_10, # of connection points: 2
#     Edge 93, Type (0, 1), BuildingBlock: TEMPAE_clean_linker_10, # of connection points: 2
#     Edge 94, Type (0, 1), BuildingBlock: TEMPAE_clean_linker_10, # of connection points: 2
#     Edge 95, Type (0, 1), BuildingBlock: TEMPAE_clean_linker_10, # of connection points: 2
#     Edge 96, Type (0, 1), BuildingBlock: TEMPAE_clean_linker_10, # of connection points: 2
#     Edge 97, Type (0, 1), BuildingBlock: TEMPAE_clean_linker_10, # of connection points: 2
#     Edge 98, Type (0, 1), BuildingBlock: TEMPAE_clean_linker_10, # of connection points: 2
#     Edge 99, Type (0, 1), BuildingBlock: TEMPAE_clean_linker_10, # of connection points: 2
#     Edge 100, Type (0, 1), BuildingBlock: TEMPAE_clean_linker_10, # of connection points: 2
#     Edge 101, Type (0, 1), BuildingBlock: TEMPAE_clean_linker_10, # of connection points: 2
#     Edge 102, Type (0, 1), BuildingBlock: TEMPAE_clean_linker_10, # of connection points: 2
#     Edge 103, Type (0, 1), BuildingBlock: TEMPAE_clean_linker_10, # of connection points: 2
#     Edge 104, Type (0, 1), BuildingBlock: TEMPAE_clean_linker_10, # of connection points: 2
#     Edge 105, Type (0, 1), BuildingBlock: TEMPAE_clean_linker_10, # of connection points: 2
#     Edge 106, Type (0, 1), BuildingBlock: TEMPAE_clean_linker_10, # of connection points: 2
#     Edge 107, Type (0, 1), BuildingBlock: TEMPAE_clean_linker_10, # of connection points: 2
#     Edge 108, Type (0, 1), BuildingBlock: TEMPAE_clean_linker_10, # of connection points: 2
#     Edge 109, Type (0, 1), BuildingBlock: TEMPAE_clean_linker_10, # of connection points: 2
#     Edge 110, Type (0, 1), BuildingBlock: TEMPAE_clean_linker_10, # of connection points: 2
#     Edge 111, Type (0, 1), BuildingBlock: TEMPAE_clean_linker_10, # of connection points: 2
#     Edge 112, Type (0, 1), BuildingBlock: TEMPAE_clean_linker_10, # of connection points: 2
#     Edge 113, Type (0, 1), BuildingBlock: TEMPAE_clean_linker_10, # of connection points: 2
#     Edge 114, Type (0, 1), BuildingBlock: TEMPAE_clean_linker_10, # of connection points: 2
#     Edge 115, Type (0, 1), BuildingBlock: TEMPAE_clean_linker_10, # of connection points: 2
#     Edge 116, Type (0, 1), BuildingBlock: TEMPAE_clean_linker_10, # of connection points: 2
#     Edge 117, Type (0, 1), BuildingBlock: TEMPAE_clean_linker_10, # of connection points: 2
#     Edge 118, Type (0, 1), BuildingBlock: TEMPAE_clean_linker_10, # of connection points: 2
#     Edge 119, Type (0, 1), BuildingBlock: TEMPAE_clean_linker_10, # of connection points: 2
#     Edge 120, Type (0, 1), BuildingBlock: TEMPAE_clean_linker_10, # of connection points: 2
#     Edge 121, Type (0, 1), BuildingBlock: TEMPAE_clean_linker_10, # of connection points: 2
#     Edge 122, Type (0, 1), BuildingBlock: TEMPAE_clean_linker_10, # of connection points: 2
#     Edge 123, Type (0, 1), BuildingBlock: TEMPAE_clean_linker_10, # of connection points: 2
#     Edge 124, Type (0, 1), BuildingBlock: TEMPAE_clean_linker_10, # of connection points: 2
#     Edge 125, Type (0, 1), BuildingBlock: TEMPAE_clean_linker_10, # of connection points: 2
#     Edge 126, Type (0, 1), BuildingBlock: TEMPAE_clean_linker_10, # of connection points: 2
#     Edge 127, Type (0, 1), BuildingBlock: TEMPAE_clean_linker_10, # of connection points: 2
#     Edge 128, Type (0, 1), BuildingBlock: TEMPAE_clean_linker_10, # of connection points: 2
#     Edge 129, Type (0, 1), BuildingBlock: TEMPAE_clean_linker_10, # of connection points: 2
#     Edge 130, Type (0, 1), BuildingBlock: TEMPAE_clean_linker_10, # of connection points: 2
#     Edge 131, Type (0, 1), BuildingBlock: TEMPAE_clean_linker_10, # of connection points: 2
#     Edge 132, Type (0, 1), BuildingBlock: TEMPAE_clean_linker_10, # of connection points: 2
#     Edge 133, Type (0, 1), BuildingBlock: TEMPAE_clean_linker_10, # of connection points: 2
#     Edge 134, Type (0, 1), BuildingBlock: TEMPAE_clean_linker_10, # of connection points: 2
#     Edge 135, Type (0, 1), BuildingBlock: TEMPAE_clean_linker_10, # of connection points: 2
# Relax obj value: 0.138
# Max RMSD: 0.269
# Mean RMSD: 0.155
data_MOF--net-gar--node1-KUFVIS_clean_sbu_0--node2-PAMTOO_clean_sbu_0--edge1-TEMPAE_clean_linker_10
_symmetry_space_group_name_H-M    P1
_symmetry_Int_Tables_number       1
_symmetry_cell_setting            triclinic
loop_
_symmetry_equiv_pos_as_xyz
'x, y, z'
_cell_length_a     59.706186
_cell_length_b     60.41075
_cell_length_c     59.34563
_cell_angle_alpha  96.561928
_cell_angle_beta   96.185355
_cell_angle_gamma 104.76147
loop_
_atom_site_label
_atom_site_type_symbol
_atom_site_fract_x
_atom_site_fract_y
_atom_site_fract_z
_atom_type_partial_charge
Mn0 Mn 0.04189 0.30975 0.37197 0.0
Mn1 Mn 0.04228 0.34331 0.33033 0.0
C2 C 1.00564 0.31379 0.3542 0.0
C3 C 0.04233 0.27548 0.38778 0.0
C4 C 0.05249 0.36325 0.38114 0.0
O5 O 0.07508 0.31252 0.36182 0.0
O6 O 0.07291 0.3343 0.33396 0.0
C7 C 0.04252 0.30818 0.29119 0.0
N8 N 0.03259 0.32404 0.3012 0.0
C9 C 1.00298 0.31708 0.26836 0.0
C10 C 0.01299 0.30081 0.25765 0.0
C11 C 0.03278 0.29628 0.26917 0.0
C12 C 0.01334 0.32829 0.2904 0.0
H13 H 0.05773 0.30459 0.29992 0.0
C14 C 0.08385 0.32244 0.34546 0.0
O15 O 0.05068 0.29593 0.39938 0.0
O16 O 0.03407 0.27461 0.36637 0.0
N17 N 0.01447 0.35307 0.32381 0.0
C18 C 1.00641 0.3687 0.33677 0.0
C19 C 0.98682 0.37527 0.32764 0.0
C20 C 0.97585 0.3659 0.30523 0.0
C21 C 0.98424 0.34965 0.29231 0.0
C22 C 1.00396 0.3439 0.30224 0.0
H23 H 0.0149 0.37625 0.3539 0.0
O24 O 0.00791 0.30763 0.37439 0.0
O25 O 0.02479 0.31705 0.34456 0.0
O26 O 0.05036 0.3436 0.38784 0.0
O27 O 0.05147 0.36546 0.35988 0.0
C28 C 0.97383 0.33897 0.26995 0.0
C29 C 0.98307 0.32255 0.25806 0.0
H30 H 1.00556 0.29163 0.24064 0.0
H31 H 0.04055 0.28367 0.26106 0.0
H32 H 0.98034 0.38772 0.33776 0.0
H33 H 0.96108 0.37143 0.29808 0.0
H34 H 0.95858 0.3431 0.2618 0.0
H35 H 0.97473 0.31423 0.241 0.0
Mn36 Mn 0.02071 0.74445 0.69066 0.0
Mn37 Mn 0.03695 0.78575 0.73729 0.0
C38 C 0.06087 0.75704 0.70821 0.0
C39 C 0.00965 0.70578 0.67022 0.0
C40 C 0.02864 0.79685 0.6889 0.0
O41 O 0.98806 0.74467 0.70195 0.0
O42 O 1.00185 0.77225 0.73271 0.0
C43 C 0.02489 0.75502 0.77219 0.0
N44 N 0.0408 0.77152 0.76407 0.0
C45 C 0.07002 0.77399 0.79622 0.0
C46 C 0.05387 0.75719 0.80506 0.0
C47 C 0.03125 0.74758 0.79292 0.0
C48 C 0.06273 0.78057 0.77539 0.0
H49 H 0.00752 0.74758 0.76289 0.0
C50 C 0.98463 0.75769 0.71947 0.0
O51 O 1.00584 0.72317 0.66107 0.0
O52 O 0.01751 0.71027 0.69202 0.0
N53 N 0.06972 0.80068 0.74456 0.0
C54 C 0.08346 0.81606 0.73325 0.0
C55 C 0.10655 0.82744 0.74318 0.0
C56 C 0.11521 0.82305 0.76467 0.0
C57 C 0.1009 0.80689 0.77582 0.0
C58 C 0.07794 0.79628 0.76522 0.0
H59 H 0.07678 0.81981 0.7169 0.0
O60 O 0.05469 0.74775 0.68694 0.0
O61 O 0.04318 0.75894 0.71894 0.0
O62 O 0.02261 0.7758 0.67931 0.0
O63 O 0.03425 0.80257 0.71059 0.0
C64 C 0.10846 0.80095 0.79707 0.0
C65 C 0.09309 0.78437 0.80716 0.0
H66 H 0.05869 0.75145 0.82107 0.0
H67 H 0.01874 0.7345 0.79956 0.0
H68 H 0.11756 0.8398 0.73442 0.0
H69 H 0.13284 0.83228 0.77249 0.0
H70 H 0.12613 0.80884 0.80567 0.0
H71 H 0.09921 0.77969 0.82333 0.0
Mn72 Mn 0.54451 0.81191 0.8727 0.0
Mn73 Mn 0.54431 0.84493 0.83063 0.0
C74 C 0.50793 0.81476 0.85429 0.0
C75 C 0.54558 0.77792 0.889 0.0
C76 C 0.55274 0.86523 0.88134 0.0
O77 O 0.5782 0.81568 0.8631 0.0
O78 O 0.57548 0.83691 0.83488 0.0
C79 C 0.54611 0.80984 0.79207 0.0
N80 N 0.53553 0.82537 0.8016 0.0
C81 C 0.50643 0.81753 0.76822 0.0
C82 C 0.51713 0.80159 0.758 0.0
C83 C 0.53699 0.79766 0.77003 0.0
C84 C 0.51619 0.829 0.79031 0.0
H85 H 0.56138 0.8067 0.80119 0.0
C86 C 0.58684 0.82556 0.84665 0.0
O87 O 0.55333 0.79849 0.90047 0.0
O88 O 0.53774 0.7768 0.86744 0.0
N89 N 0.51606 0.85375 0.82336 0.0
C90 C 0.50738 0.86923 0.83581 0.0
C91 C 0.48776 0.87535 0.82604 0.0
C92 C 0.47739 0.8657 0.80353 0.0
C93 C 0.48636 0.84956 0.79115 0.0
C94 C 0.50611 0.8443 0.80168 0.0
H95 H 0.51542 0.87705 0.853 0.0
O96 O 0.51022 0.80872 0.87453 0.0
O97 O 0.52726 0.81849 0.8449 0.0
O98 O 0.55151 0.84581 0.88833 0.0
O99 O 0.55229 0.86729 0.86006 0.0
C100 C 0.47652 0.83857 0.76875 0.0
C101 C 0.48643 0.82241 0.75737 0.0
H102 H 0.51019 0.79222 0.74096 0.0
H103 H 0.54529 0.78532 0.7623 0.0
H104 H 0.48083 0.88772 0.83575 0.0
H105 H 0.46266 0.87095 0.79587 0.0
H106 H 0.46122 0.84227 0.76018 0.0
H107 H 0.47854 0.81386 0.74025 0.0
Mn108 Mn 0.51636 0.24139 0.19234 0.0
Mn109 Mn 0.4743 0.23446 0.14692 0.0
C110 C 0.49917 0.20412 0.16956 0.0
C111 C 0.55766 0.24833 0.20765 0.0
C112 C 0.46461 0.24381 0.19642 0.0
O113 O 0.52142 0.27472 0.18398 0.0
O114 O 0.49422 0.26679 0.15248 0.0
C115 C 0.50342 0.24151 0.10967 0.0
N116 N 0.48581 0.22799 0.11882 0.0
C117 C 0.47427 0.20052 0.08423 0.0
C118 C 0.49229 0.2141 0.0744 0.0
C119 C 0.5071 0.23457 0.08728 0.0
C120 C 0.472 0.20789 0.10688 0.0
H121 H 0.51439 0.25758 0.1193 0.0
C122 C 0.51101 0.2808 0.16653 0.0
O123 O 0.54208 0.25172 0.22035 0.0
O124 O 0.54944 0.24144 0.1862 0.0
N125 N 0.4539 0.20382 0.13954 0.0
C126 C 0.43767 0.19249 0.15172 0.0
C127 C 0.42207 0.1712 0.14164 0.0
C128 C 0.42291 0.16215 0.11896 0.0
C129 C 0.43952 0.17434 0.10666 0.0
C130 C 0.45506 0.19511 0.11783 0.0
H131 H 0.43655 0.19968 0.16894 0.0
O132 O 0.50876 0.20613 0.19066 0.0
O133 O 0.49907 0.22383 0.16302 0.0
O134 O 0.48498 0.24354 0.20625 0.0
O135 O 0.4598 0.24084 0.17461 0.0
C136 C 0.44094 0.167 0.08361 0.0
C137 C 0.45821 0.18016 0.07235 0.0
H138 H 0.49488 0.20903 0.05698 0.0
H139 H 0.52102 0.24517 0.07981 0.0
H140 H 0.4092 0.16197 0.1512 0.0
H141 H 0.41061 0.1459 0.11111 0.0
H142 H 0.42889 0.15122 0.07437 0.0
H143 H 0.45921 0.17427 0.05464 0.0
Mn144 Mn 0.08518 0.80984 0.12234 0.0
Mn145 Mn 0.04119 0.7926 0.07798 0.0
C146 C 0.07196 0.7698 0.10581 0.0
C147 C 0.12493 0.82164 0.1411 0.0
C148 C 0.03229 0.80044 0.12696 0.0
O149 O 0.08469 0.84164 0.11058 0.0
O150 O 0.053 0.82754 0.08386 0.0
C151 C 0.07005 0.80776 0.0421 0.0
N152 N 0.05464 0.79085 0.05026 0.0
C153 C 0.05191 0.76369 0.01642 0.0
C154 C 0.06767 0.78085 0.0076 0.0
C155 C 0.07687 0.80294 0.02055 0.0
C156 C 0.04597 0.76944 0.03809 0.0
H157 H 0.07706 0.82479 0.05194 0.0
C158 C 0.069 0.84477 0.09538 0.0
O159 O 0.10774 0.82551 0.15098 0.0
O160 O 0.11953 0.81291 0.11953 0.0
N161 N 0.02729 0.76006 0.06953 0.0
C162 C 0.01274 0.74531 0.08075 0.0
C163 C 1.00187 0.72256 0.07005 0.0
C164 C 1.00582 0.71532 0.04784 0.0
C165 C 0.02096 0.73075 0.03669 0.0
C166 C 0.03118 0.75325 0.04814 0.0
H167 H 0.00931 0.75091 0.09766 0.0
O168 O 0.08219 0.7766 0.12674 0.0
O169 O 0.06943 0.78685 0.09469 0.0
O170 O 0.05395 0.80841 0.13523 0.0
O171 O 0.02545 0.79324 0.10564 0.0
C172 C 0.02629 0.7247 0.01465 0.0
C173 C 0.04189 0.74111 0.00459 0.0
H174 H 0.07288 0.77723 0.99094 0.0
H175 H 0.08909 0.81625 0.01389 0.0
H176 H 0.99023 0.71071 0.07876 0.0
H177 H 0.99697 0.69794 0.03943 0.0
H178 H 0.01869 0.70739 0.0054 0.0
H179 H 0.04609 0.73617 0.98776 0.0
Mn180 Mn 0.50208 0.76853 0.44801 0.0
Mn181 Mn 0.50824 0.80031 0.40363 0.0
C182 C 0.4681 0.77101 0.4233 0.0
C183 C 0.50316 0.7321 0.46321 0.0
C184 C 0.51071 0.82323 0.45284 0.0
O185 O 0.53714 0.77366 0.4444 0.0
O186 O 0.53781 0.79412 0.41521 0.0
C187 C 0.51702 0.76305 0.37178 0.0
N188 N 0.50511 0.77915 0.37629 0.0
C189 C 0.48779 0.77349 0.33694 0.0
C190 C 0.49985 0.75685 0.3318 0.0
C191 C 0.5143 0.75139 0.34939 0.0
C192 C 0.49022 0.78363 0.35981 0.0
H193 H 0.52869 0.75931 0.38512 0.0
C194 C 0.54778 0.78441 0.42962 0.0
O195 O 0.50687 0.7519 0.47613 0.0
O196 O 0.49789 0.73315 0.44162 0.0
N197 N 0.48229 0.80884 0.38877 0.0
C198 C 0.4741 0.82717 0.39595 0.0
C199 C 0.46029 0.83566 0.38025 0.0
C200 C 0.45596 0.82604 0.35704 0.0
C201 C 0.46567 0.80814 0.34971 0.0
C202 C 0.4786 0.7998 0.36627 0.0
H203 H 0.47815 0.83535 0.41357 0.0
O204 O 0.46659 0.76405 0.44315 0.0
O205 O 0.48916 0.77527 0.41782 0.0
O206 O 0.50785 0.80438 0.46211 0.0
O207 O 0.51124 0.82306 0.43129 0.0
C208 C 0.46387 0.79895 0.32644 0.0
C209 C 0.47432 0.78116 0.32013 0.0
H210 H 0.49838 0.7484 0.31439 0.0
H211 H 0.52376 0.73865 0.34558 0.0
H212 H 0.45347 0.84999 0.38595 0.0
H213 H 0.44569 0.83296 0.34491 0.0
H214 H 0.45443 0.80543 0.31323 0.0
H215 H 0.47251 0.77403 0.30222 0.0
Mn216 Mn 0.57897 0.30365 0.62211 0.0
Mn217 Mn 0.53614 0.28607 0.57663 0.0
C218 C 0.56629 0.26356 0.60555 0.0
C219 C 0.61852 0.31564 0.64119 0.0
C220 C 0.52617 0.29529 0.62543 0.0
O221 O 0.57783 0.33542 0.61041 0.0
O222 O 0.54917 0.32085 0.58059 0.0
C223 C 0.56606 0.29772 0.54065 0.0
N224 N 0.55 0.28196 0.54943 0.0
C225 C 0.54762 0.25248 0.51768 0.0
C226 C 0.56402 0.26844 0.50819 0.0
C227 C 0.57335 0.29112 0.51979 0.0
C228 C 0.54119 0.26 0.53861 0.0
H229 H 0.57326 0.31516 0.54951 0.0
C230 C 0.56397 0.33826 0.59327 0.0
O231 O 0.60118 0.31937 0.65095 0.0
O232 O 0.61337 0.30716 0.61955 0.0
N233 N 0.52148 0.25352 0.57 0.0
C234 C 0.50628 0.2401 0.58175 0.0
C235 C 0.49503 0.21704 0.5723 0.0
C236 C 0.49936 0.2081 0.55082 0.0
C237 C 0.51533 0.22211 0.53919 0.0
C238 C 0.52579 0.24504 0.54932 0.0
H239 H 0.50256 0.247 0.5981 0.0
O240 O 0.57635 0.27037 0.62653 0.0
O241 O 0.56379 0.2806 0.59448 0.0
O242 O 0.54764 0.30176 0.6344 0.0
O243 O 0.51983 0.28906 0.60387 0.0
C244 C 0.52118 0.21427 0.5179 0.0
C245 C 0.53747 0.22939 0.50725 0.0
H246 H 0.56963 0.26344 0.49207 0.0
H247 H 0.58609 0.30351 0.51263 0.0
H248 H 0.48281 0.20627 0.58141 0.0
H249 H 0.4902 0.19049 0.54334 0.0
H250 H 0.51343 0.19659 0.50967 0.0
H251 H 0.54205 0.22309 0.49102 0.0
Mn252 Mn 1.00105 0.27253 0.95007 0.0
Mn253 Mn 1.00598 0.3053 0.90623 0.0
C254 C 0.96644 0.27489 0.92603 0.0
C255 C 1.00245 0.23588 0.96497 0.0
C256 C 0.01089 0.32727 0.9562 0.0
O257 O 0.03588 0.27777 0.94516 0.0
O258 O 0.03536 0.29755 0.91537 0.0
C259 C 0.01253 0.27019 0.87032 0.0
N260 N 1.00123 0.28612 0.87734 0.0
C261 C 0.98308 0.28489 0.83888 0.0
C262 C 0.99443 0.26839 0.83119 0.0
C263 C 0.00905 0.26084 0.84703 0.0
C264 C 0.98663 0.29298 0.86239 0.0
H265 H 0.02436 0.26494 0.88237 0.0
C266 C 0.04574 0.28781 0.92949 0.0
O267 O 1.00663 0.25572 0.97792 0.0
O268 O 0.99667 0.23702 0.94348 0.0
N269 N 0.97972 0.31512 0.89435 0.0
C270 C 0.97049 0.33145 0.90455 0.0
C271 C 0.95607 0.34138 0.89104 0.0
C272 C 0.9513 0.33449 0.8672 0.0
C273 C 0.96107 0.31776 0.85705 0.0
C274 C 0.9755 0.30864 0.87135 0.0
H275 H 0.9747 0.33738 0.92275 0.0
O276 O 0.96559 0.26812 0.94603 0.0
O277 O 0.98737 0.27946 0.92011 0.0
O278 O 0.0071 0.30822 0.9651 0.0
O279 O 0.0112 0.32719 0.93474 0.0
C280 C 0.95764 0.31031 0.83323 0.0
C281 C 0.96853 0.29378 0.82416 0.0
H282 H 0.99211 0.26146 0.81318 0.0
H283 H 0.01796 0.2482 0.84123 0.0
H284 H 0.94887 0.35456 0.89896 0.0
H285 H 0.94038 0.34238 0.8568 0.0
H286 H 0.94659 0.3171 0.82175 0.0
H287 H 0.96558 0.28801 0.80586 0.0
Mn288 Mn 0.42168 0.05048 0.31421 0.0
Mn289 Mn 0.38339 0.03171 0.35025 0.0
C290 C 0.41483 0.01294 0.32244 0.0
C291 C 0.43177 0.05605 0.27821 0.0
C292 C 0.43187 0.06396 0.36597 0.0
O293 O 0.40219 0.07368 0.31447 0.0
O294 O 0.3759 0.05776 0.33669 0.0
C295 C 0.33986 0.01366 0.31702 0.0
N296 N 0.35529 0.01048 0.33417 0.0
C297 C 0.33064 0.9727 0.33631 0.0
C298 C 0.3142 0.9758 0.31907 0.0
C299 C 0.31897 0.99625 0.30918 0.0
C300 C 0.35124 0.99055 0.34323 0.0
H301 H 0.34354 0.02928 0.30931 0.0
C302 C 0.38361 0.0726 0.32366 0.0
O303 O 0.44424 0.06863 0.29669 0.0
O304 O 0.41258 0.04102 0.28056 0.0
N305 N 0.38836 0.00601 0.36416 0.0
C306 C 0.40686 0.00504 0.37925 0.0
C307 C 0.40548 0.98521 0.38985 0.0
C308 C 0.38498 0.9668 0.38514 0.0
C309 C 0.36623 0.96817 0.36944 0.0
C310 C 0.36875 0.98821 0.35917 0.0
H311 H 0.42244 0.01935 0.38333 0.0
O312 O 0.43434 0.02289 0.31557 0.0
O313 O 0.40025 0.02542 0.32474 0.0
O314 O 0.43819 0.06433 0.34626 0.0
O315 O 0.41152 0.05296 0.36925 0.0
C316 C 0.34517 0.95041 0.36351 0.0
C317 C 0.3275 0.95255 0.34676 0.0
H318 H 0.29803 0.96244 0.31303 0.0
H319 H 0.30655 0.99862 0.29561 0.0
H320 H 0.42006 0.98424 0.40187 0.0
H321 H 0.3839 0.95161 0.3935 0.0
H322 H 0.34246 0.93492 0.37156 0.0
H323 H 0.31163 0.93854 0.34196 0.0
Mn324 Mn 0.2739 0.19755 0.52361 0.0
Mn325 Mn 0.26947 0.15176 0.483 0.0
C326 C 0.23737 0.17119 0.50912 0.0
C327 C 0.27749 0.21379 0.56327 0.0
C328 C 0.27848 0.20112 0.47201 0.0
O329 O 0.30751 0.19353 0.527 0.0
O330 O 0.30168 0.1624 0.49979 0.0
C331 C 0.27669 0.11731 0.51277 0.0
N332 N 0.26324 0.12371 0.49603 0.0
C333 C 0.235 0.08647 0.49005 0.0
C334 C 0.24855 0.07946 0.5072 0.0
C335 C 0.26943 0.09499 0.5187 0.0
C336 C 0.243 0.10899 0.48505 0.0
H337 H 0.29288 0.1291 0.52148 0.0
C338 C 0.31465 0.17772 0.51587 0.0
O339 O 0.28281 0.22662 0.54745 0.0
O340 O 0.27099 0.19173 0.55622 0.0
N341 N 0.23888 0.13956 0.46588 0.0
C342 C 0.227 0.14962 0.45104 0.0
C343 C 0.20522 0.13672 0.43886 0.0
C344 C 0.19611 0.11355 0.44179 0.0
C345 C 0.20871 0.10358 0.45712 0.0
C346 C 0.23011 0.11738 0.46906 0.0
H347 H 0.23409 0.16734 0.44853 0.0
O348 O 0.23873 0.19226 0.51792 0.0
O349 O 0.25734 0.16664 0.50822 0.0
O350 O 0.27797 0.2109 0.49236 0.0
O351 O 0.27566 0.17936 0.46728 0.0
C352 C 0.20087 0.08051 0.46109 0.0
C353 C 0.21384 0.07203 0.47773 0.0
H354 H 0.24305 0.06223 0.51175 0.0
H355 H 0.27998 0.08973 0.53197 0.0
H356 H 0.19557 0.14457 0.4271 0.0
H357 H 0.17937 0.10361 0.43227 0.0
H358 H 0.18473 0.06921 0.4516 0.0
H359 H 0.20733 0.05442 0.481 0.0
Mn360 Mn 0.1299 0.05069 0.79478 0.0
Mn361 Mn 0.17661 0.0569 0.83522 0.0
C362 C 0.15563 0.08738 0.80883 0.0
C363 C 0.11325 0.04614 0.75518 0.0
C364 C 0.12675 0.04716 0.84655 0.0
O365 O 0.13479 0.01772 0.79192 0.0
O366 O 0.1666 0.02485 0.81878 0.0
C367 C 0.21165 0.05039 0.80518 0.0
N368 N 0.2049 0.06358 0.82194 0.0
C369 C 0.24207 0.09223 0.82757 0.0
C370 C 0.24946 0.07896 0.81039 0.0
C371 C 0.23412 0.05801 0.79906 0.0
C372 C 0.21939 0.08389 0.83274 0.0
H373 H 0.20002 0.03415 0.7966 0.0
C374 C 0.15121 0.01136 0.80304 0.0
O375 O 0.10042 0.04087 0.77117 0.0
O376 O 0.13556 0.05307 0.76204 0.0
N377 N 0.18828 0.08741 0.85205 0.0
C378 C 0.17781 0.09896 0.86692 0.0
C379 C 0.19044 0.12073 0.87896 0.0
C380 C 0.21378 0.13018 0.87588 0.0
C381 C 0.22416 0.11791 0.86052 0.0
C382 C 0.21061 0.09649 0.84872 0.0
H383 H 0.15998 0.09161 0.86957 0.0
O384 O 0.13422 0.08532 0.79997 0.0
O385 O 0.16095 0.068 0.8099 0.0
O386 O 0.11666 0.0471 0.82622 0.0
O387 O 0.14881 0.05034 0.85119 0.0
C388 C 0.24742 0.12609 0.85641 0.0
C389 C 0.25628 0.11343 0.83973 0.0
H390 H 0.26682 0.08473 0.80571 0.0
H391 H 0.23968 0.04768 0.78577 0.0
H392 H 0.18228 0.13012 0.89073 0.0
H393 H 0.22351 0.14691 0.8853 0.0
H394 H 0.25857 0.14226 0.86581 0.0
H395 H 0.27402 0.1202 0.83634 0.0
Mn396 Mn 0.26105 0.90053 1.00103 0.0
Mn397 Mn 0.26137 0.9398 0.96513 0.0
C398 C 0.29497 0.91719 0.98705 0.0
C399 C 0.26576 0.8903 0.03723 0.0
C400 C 0.24143 0.88823 0.95019 0.0
O401 O 0.23192 0.91059 0.00627 0.0
O402 O 0.23412 0.93713 0.98225 0.0
C403 C 0.27014 0.98179 0.99952 0.0
N404 N 0.27647 0.97009 0.98134 0.0
C405 C 0.30956 0.00223 0.9801 0.0
C406 C 0.30333 0.01467 0.99872 0.0
C407 C 0.28357 0.00436 0.00852 0.0
C408 C 0.29556 0.97977 0.97191 0.0
H409 H 0.25497 0.97398 0.00712 0.0
C410 C 0.22444 0.92612 0.99748 0.0
O411 O 0.25307 0.87558 0.02007 0.0
O412 O 0.2748 0.91128 0.03357 0.0
N413 N 0.28728 0.9444 0.94817 0.0
C414 C 0.29193 0.9295 0.93142 0.0
C415 C 0.31161 0.93687 0.9204 0.0
C416 C 0.32614 0.95954 0.92654 0.0
C417 C 0.32098 0.97456 0.94381 0.0
C418 C 0.30122 0.96621 0.95428 0.0
H419 H 0.2808 0.91208 0.92656 0.0
O420 O 0.29203 0.89718 0.994 0.0
O421 O 0.2778 0.92666 0.98823 0.0
O422 O 0.24553 0.88253 0.96986 0.0
O423 O 0.24621 0.90923 0.94653 0.0
C424 C 0.33477 0.99744 0.95116 0.0
C425 C 0.32922 0.01119 0.96945 0.0
H426 H 0.31365 0.03208 0.00572 0.0
H427 H 0.2787 0.0138 0.02296 0.0
H428 H 0.31553 0.92513 0.90717 0.0
H429 H 0.3413 0.96517 0.918 0.0
H430 H 0.34982 0.00456 0.94299 0.0
H431 H 0.34027 0.02858 0.97526 0.0
Mn432 Mn 0.29982 0.37767 0.04614 0.0
Mn433 Mn 0.30216 0.4208 0.01348 0.0
C434 C 0.33638 0.40207 0.04115 0.0
C435 C 0.29563 0.36375 0.08247 0.0
C436 C 0.29382 0.37048 0.99246 0.0
O437 O 0.2662 0.38148 0.04378 0.0
O438 O 0.27104 0.41061 0.02285 0.0
C439 C 0.29689 0.45641 0.04965 0.0
N440 N 0.30867 0.44981 0.03282 0.0
C441 C 0.33271 0.48869 0.03481 0.0
C442 C 0.32094 0.49595 0.05225 0.0
C443 C 0.30308 0.47969 0.05984 0.0
C444 C 0.32635 0.46513 0.02592 0.0
H445 H 0.28275 0.44404 0.05508 0.0
C446 C 0.25858 0.39632 0.03373 0.0
O447 O 0.2901 0.34999 0.06307 0.0
O448 O 0.3038 0.38548 0.0809 0.0
N449 N 0.3308 0.43343 0.00234 0.0
C450 C 0.3401 0.42357 0.98513 0.0
C451 C 0.35689 0.43765 0.97434 0.0
C452 C 0.36361 0.46173 0.98106 0.0
C453 C 0.35439 0.47143 0.99929 0.0
C454 C 0.33762 0.45656 0.00929 0.0
H455 H 0.33414 0.40521 0.97912 0.0
O456 O 0.33474 0.38193 0.04759 0.0
O457 O 0.31675 0.40766 0.03824 0.0
O458 O 0.29456 0.36201 0.01144 0.0
O459 O 0.29582 0.39194 0.99192 0.0
C460 C 0.36062 0.49536 0.00746 0.0
C461 C 0.35015 0.50392 0.02553 0.0
H462 H 0.32534 0.51398 0.05979 0.0
H463 H 0.29382 0.48516 0.0732 0.0
H464 H 0.36413 0.43005 0.96043 0.0
H465 H 0.37603 0.47259 0.97218 0.0
H466 H 0.37352 0.50733 1.00002 0.0
H467 H 0.35529 0.52229 0.03185 0.0
Mn468 Mn 0.76397 0.15238 0.0518 0.0
Mn469 Mn 0.74484 0.11228 0.00433 0.0
C470 C 0.7243 0.13663 0.0401 0.0
C471 C 0.77725 0.16622 0.09024 0.0
C472 C 0.76225 0.16319 0.00273 0.0
O473 O 0.79288 0.14144 0.04745 0.0
O474 O 0.7781 0.1156 0.01554 0.0
C475 C 0.74804 0.07099 0.02567 0.0
N476 N 0.7354 0.08208 0.01279 0.0
C477 C 0.70295 0.04794 0.0034 0.0
C478 C 0.71559 0.03612 0.01659 0.0
C479 C 0.73817 0.04775 0.02791 0.0
C480 C 0.71349 0.07121 0.00226 0.0
H481 H 0.76555 0.07977 0.03404 0.0
C482 C 0.79485 0.12648 0.03136 0.0
O483 O 0.78258 0.17869 0.0743 0.0
O484 O 0.76451 0.14497 0.08392 0.0
N485 N 0.71297 0.10677 0.99106 0.0
C486 C 0.703 0.12084 0.97942 0.0
C487 C 0.68073 0.11174 0.96652 0.0
C488 C 0.66909 0.08824 0.9655 0.0
C489 C 0.67945 0.07421 0.97803 0.0
C490 C 0.70176 0.0842 0.99041 0.0
H491 H 0.71221 0.13874 0.97952 0.0
O492 O 0.73217 0.15681 0.05265 0.0
O493 O 0.73981 0.12597 0.03469 0.0
O494 O 0.76737 0.16888 0.02421 0.0
O495 O 0.75355 0.14236 0.99312 0.0
C496 C 0.66872 0.05062 0.97841 0.0
C497 C 0.68035 0.03756 0.9913 0.0
H498 H 0.70814 0.01812 0.01814 0.0
H499 H 0.74804 0.03874 0.0381 0.0
H500 H 0.67274 0.12269 0.95702 0.0
H501 H 0.65214 0.08121 0.95511 0.0
H502 H 0.65147 0.04238 0.96898 0.0
H503 H 0.67179 0.01954 0.99172 0.0
Mn504 Mn 0.178 0.56026 0.26161 0.0
Mn505 Mn 0.23164 0.58409 0.2927 0.0
C506 C 0.19139 0.59989 0.27138 0.0
C507 C 0.15316 0.54521 0.2274 0.0
C508 C 0.18865 0.56293 0.31349 0.0
O509 O 0.19297 0.53368 0.25908 0.0
O510 O 0.22868 0.55225 0.27819 0.0
C511 C 0.25922 0.58616 0.25399 0.0
N512 N 0.25368 0.59665 0.27334 0.0
C513 C 0.28481 0.63102 0.27372 0.0
C514 C 0.29109 0.6205 0.25395 0.0
C515 C 0.27806 0.59806 0.24389 0.0
C516 C 0.26553 0.61851 0.28265 0.0
H517 H 0.24936 0.56884 0.24639 0.0
C518 C 0.21405 0.5345 0.2663 0.0
O519 O 0.14743 0.53945 0.2468 0.0
O520 O 0.17376 0.55925 0.22775 0.0
N521 N 0.23815 0.61508 0.30807 0.0
C522 C 0.22939 0.62294 0.32673 0.0
C523 C 0.24053 0.645 0.33898 0.0
C524 C 0.26064 0.65868 0.33203 0.0
C525 C 0.26918 0.65038 0.31263 0.0
C526 C 0.25752 0.62816 0.30127 0.0
H527 H 0.21438 0.61222 0.33258 0.0
O528 O 0.16925 0.58984 0.26543 0.0
O529 O 0.20552 0.58663 0.27054 0.0
O530 O 0.17463 0.55726 0.29479 0.0
O531 O 0.21053 0.5723 0.31469 0.0
C532 C 0.28908 0.66309 0.30438 0.0
C533 C 0.29679 0.65349 0.28483 0.0
H534 H 0.30576 0.62954 0.24625 0.0
H535 H 0.28268 0.58987 0.22854 0.0
H536 H 0.23385 0.65133 0.35395 0.0
H537 H 0.26947 0.67549 0.34178 0.0
H538 H 0.29844 0.68035 0.31282 0.0
H539 H 0.31187 0.66356 0.27842 0.0
Mn540 Mn 0.80105 0.87711 0.54277 0.0
Mn541 Mn 0.80275 0.92018 0.51018 0.0
C542 C 0.83728 0.90233 0.5384 0.0
C543 C 0.79695 0.86311 0.57894 0.0
C544 C 0.79577 0.87001 0.48929 0.0
O545 O 0.76701 0.87981 0.5397 0.0
O546 O 0.7716 0.90941 0.51934 0.0
C547 C 0.79647 0.95549 0.54608 0.0
N548 N 0.80863 0.94915 0.52947 0.0
C549 C 0.83242 0.98819 0.5319 0.0
C550 C 0.82024 0.9952 0.5491 0.0
C551 C 0.80231 0.97873 0.55635 0.0
C552 C 0.82634 0.96468 0.52288 0.0
H553 H 0.78229 0.94296 0.55126 0.0
C554 C 0.75921 0.89469 0.52988 0.0
O555 O 0.79256 0.8493 0.55961 0.0
O556 O 0.80383 0.88498 0.57734 0.0
N557 N 0.83145 0.93327 0.49936 0.0
C558 C 0.84121 0.92365 0.48238 0.0
C559 C 0.85823 0.93794 0.472 0.0
C560 C 0.86471 0.96199 0.47889 0.0
C561 C 0.85497 0.97145 0.49686 0.0
C562 C 0.83801 0.95637 0.50645 0.0
H563 H 0.83549 0.9053 0.47626 0.0
O564 O 0.83607 0.88233 0.54496 0.0
O565 O 0.8174 0.90741 0.53513 0.0
O566 O 0.79684 0.8616 0.50825 0.0
O567 O 0.79705 0.89135 0.48869 0.0
C568 C 0.86092 0.99534 0.50516 0.0
C569 C 0.84999 0.00364 0.52299 0.0
H570 H 0.82439 0.01319 0.55673 0.0
H571 H 0.79274 0.984 0.56953 0.0
H572 H 0.86586 0.93053 0.45829 0.0
H573 H 0.87731 0.97302 0.47032 0.0
H574 H 0.87395 0.00746 0.49802 0.0
H575 H 0.85492 0.02198 0.52943 0.0
Mn576 Mn 0.94587 0.02261 0.27333 0.0
Mn577 Mn 0.90225 0.02004 0.30634 0.0
C578 C 0.92043 0.98638 0.27721 0.0
C579 C 0.9601 0.02748 0.23696 0.0
C580 C 0.95307 0.02714 0.32691 0.0
O581 O 0.9429 0.05628 0.27729 0.0
O582 O 0.91287 0.05105 0.29771 0.0
C583 C 0.86642 0.02628 0.27088 0.0
N584 N 0.87293 0.01419 0.28725 0.0
C585 C 0.83352 0.99054 0.28498 0.0
C586 C 0.82633 0.00264 0.26801 0.0
C587 C 0.8429 0.02046 0.26079 0.0
C588 C 0.85732 0.99656 0.29377 0.0
H589 H 0.87903 0.04038 0.26574 0.0
C590 C 0.92772 0.06366 0.2874 0.0
O591 O 0.97399 0.03156 0.25624 0.0
O592 O 0.93802 0.02044 0.2387 0.0
N593 N 0.88922 0.99146 0.3168 0.0
C594 C 0.89905 0.9818 0.33357 0.0
C595 C 0.88468 0.96497 0.344 0.0
C596 C 0.86035 0.95856 0.33736 0.0
C597 C 0.85067 0.96816 0.31957 0.0
C598 C 0.86584 0.98497 0.30993 0.0
H599 H 0.91761 0.98748 0.33953 0.0
O600 O 0.94065 0.98785 0.27039 0.0
O601 O 0.91527 0.00599 0.28099 0.0
O602 O 0.96161 0.02637 0.30785 0.0
O603 O 0.93146 0.02569 0.32762 0.0
C604 C 0.8265 0.96227 0.31151 0.0
C605 C 0.81799 0.97309 0.29388 0.0
H606 H 0.80812 0.99852 0.26055 0.0
H607 H 0.83748 0.02997 0.24779 0.0
H608 H 0.89226 0.95743 0.35757 0.0
H609 H 0.84926 0.94611 0.34599 0.0
H610 H 0.8143 0.94935 0.31867 0.0
H611 H 0.79943 0.9682 0.28762 0.0
Mn612 Mn 0.28004 0.6663 0.54382 0.0
Mn613 Mn 0.26606 0.62484 0.49736 0.0
C614 C 0.24183 0.64425 0.53281 0.0
C615 C 0.29182 0.68208 0.58216 0.0
C616 C 0.27391 0.67523 0.49399 0.0
O617 O 0.31164 0.66075 0.53996 0.0
O618 O 0.30027 0.63507 0.50746 0.0
C619 C 0.28007 0.58813 0.51984 0.0
N620 N 0.26365 0.5954 0.50718 0.0
C621 C 0.237 0.55725 0.50062 0.0
C622 C 0.2536 0.54935 0.51364 0.0
C623 C 0.27517 0.56489 0.5234 0.0
C624 C 0.24268 0.5807 0.49809 0.0
H625 H 0.29681 0.59992 0.52705 0.0
C626 C 0.31593 0.64786 0.52335 0.0
O627 O 0.29487 0.69454 0.56585 0.0
O628 O 0.28255 0.6599 0.57627 0.0
N629 N 0.23364 0.61282 0.48529 0.0
C630 C 0.21945 0.6233 0.47345 0.0
C631 C 0.19751 0.61002 0.46198 0.0
C632 C 0.19057 0.58608 0.46245 0.0
C633 C 0.20529 0.57573 0.47505 0.0
C634 C 0.22695 0.58984 0.48613 0.0
H635 H 0.22503 0.64157 0.47241 0.0
O636 O 0.24646 0.66485 0.54443 0.0
O637 O 0.25965 0.63704 0.52764 0.0
O638 O 0.27997 0.6818 0.51534 0.0
O639 O 0.26759 0.65404 0.48505 0.0
C640 C 0.19946 0.55193 0.47682 0.0
C641 C 0.21516 0.54276 0.48987 0.0
H642 H 0.25 0.53138 0.51619 0.0
H643 H 0.28811 0.55892 0.53341 0.0
H644 H 0.18616 0.61814 0.45245 0.0
H645 H 0.17384 0.57582 0.45315 0.0
H646 H 0.18286 0.54056 0.46836 0.0
H647 H 0.21034 0.5245 0.49136 0.0
Mn648 Mn 0.44651 0.52148 0.77325 0.0
Mn649 Mn 0.40303 0.52089 0.80607 0.0
C650 C 0.4205 0.48597 0.77783 0.0
C651 C 0.46063 0.52517 0.7368 0.0
C652 C 0.45364 0.52717 0.82682 0.0
O653 O 0.4443 0.55531 0.77634 0.0
O654 O 0.41424 0.55151 0.79668 0.0
C655 C 0.36759 0.52707 0.77017 0.0
N656 N 0.37379 0.51519 0.78688 0.0
C657 C 0.33417 0.49209 0.78467 0.0
C658 C 0.32729 0.50399 0.76738 0.0
C659 C 0.34412 0.52143 0.75996 0.0
C660 C 0.35792 0.49793 0.79362 0.0
H661 H 0.3804 0.54085 0.76484 0.0
C662 C 0.42934 0.56339 0.78608 0.0
O663 O 0.47461 0.52939 0.75605 0.0
O664 O 0.43854 0.51861 0.73864 0.0
N665 N 0.38948 0.49276 0.81711 0.0
C666 C 0.39903 0.48317 0.83411 0.0
C667 C 0.3844 0.4666 0.8446 0.0
C668 C 0.3601 0.4604 0.83781 0.0
C669 C 0.3507 0.46998 0.81983 0.0
C670 C 0.36613 0.48648 0.81011 0.0
H671 H 0.41758 0.48867 0.84015 0.0
O672 O 0.44064 0.48676 0.77108 0.0
O673 O 0.41575 0.50583 0.78112 0.0
O674 O 0.46216 0.52569 0.8078 0.0
O675 O 0.43216 0.5264 0.82745 0.0
C676 C 0.32657 0.4643 0.81162 0.0
C677 C 0.31837 0.475 0.79373 0.0
H678 H 0.30913 0.5 0.7598 0.0
H679 H 0.33895 0.53078 0.7467 0.0
H680 H 0.39176 0.45909 0.85833 0.0
H681 H 0.34881 0.44816 0.84648 0.0
H682 H 0.31418 0.45164 0.81887 0.0
H683 H 0.29983 0.47027 0.78736 0.0
Mn684 Mn 0.66769 0.04897 0.77056 0.0
Mn685 Mn 0.71727 0.06488 0.80848 0.0
C686 C 0.68912 0.08722 0.77818 0.0
C687 C 0.6454 0.03615 0.73463 0.0
C688 C 0.67029 0.05897 0.82301 0.0
O689 O 0.67456 0.01805 0.77259 0.0
O690 O 0.70394 0.03087 0.80188 0.0
C691 C 0.74512 0.04568 0.77684 0.0
N692 N 0.74239 0.06368 0.79134 0.0
C693 C 0.78053 0.08724 0.78766 0.0
C694 C 0.78377 0.06896 0.77271 0.0
C695 C 0.76591 0.04813 0.76717 0.0
C696 C 0.75923 0.08394 0.79637 0.0
H697 H 0.7316 0.02955 0.77274 0.0
C698 C 0.68902 0.01463 0.78823 0.0
O699 O 0.63626 0.03335 0.75329 0.0
O700 O 0.66784 0.04549 0.73678 0.0
N701 N 0.73317 0.09691 0.81748 0.0
C702 C 0.7276 0.11255 0.83277 0.0
C703 C 0.7441 0.13378 0.84115 0.0
C704 C 0.76614 0.13877 0.83369 0.0
C705 C 0.77154 0.12242 0.81803 0.0
C706 C 0.75458 0.10134 0.81066 0.0
H707 H 0.71087 0.10864 0.83892 0.0
O708 O 0.66696 0.08142 0.77041 0.0
O709 O 0.6987 0.07037 0.78103 0.0
O710 O 0.65924 0.05015 0.80309 0.0
O711 O 0.69247 0.06697 0.8272 0.0
C712 C 0.79328 0.12601 0.80982 0.0
C713 C 0.79767 0.10853 0.79443 0.0
H714 H 0.7999 0.0707 0.76543 0.0
H715 H 0.76827 0.03393 0.75566 0.0
H716 H 0.73994 0.14616 0.85355 0.0
H717 H 0.77896 0.15504 0.84039 0.0
H718 H 0.8067 0.1422 0.81515 0.0
H719 H 0.81437 0.11156 0.78808 0.0
Mn720 Mn 0.77103 0.69816 0.02066 0.0
Mn721 Mn 0.76617 0.6526 0.97969 0.0
C722 C 0.73442 0.67187 0.00643 0.0
C723 C 0.77521 0.71413 0.06038 0.0
C724 C 0.77539 0.70211 0.9692 0.0
O725 O 0.80465 0.69422 0.02347 0.0
O726 O 0.79839 0.66293 0.99637 0.0
C727 C 0.7732 0.61766 0.00892 0.0
N728 N 0.75977 0.62436 0.9924 0.0
C729 C 0.73129 0.58726 0.98613 0.0
C730 C 0.74481 0.57994 0.00306 0.0
C731 C 0.7658 0.59526 0.01459 0.0
C732 C 0.73943 0.60986 0.98138 0.0
H733 H 0.78948 0.62929 0.01764 0.0
C734 C 0.81159 0.67831 0.01228 0.0
O735 O 0.78027 0.72709 0.04461 0.0
O736 O 0.7686 0.69209 0.05322 0.0
N737 N 0.73549 0.64077 0.96268 0.0
C738 C 0.72364 0.65114 0.94813 0.0
C739 C 0.70175 0.63851 0.93601 0.0
C740 C 0.69248 0.61528 0.93869 0.0
C741 C 0.70506 0.605 0.95373 0.0
C742 C 0.72658 0.61855 0.96563 0.0
H743 H 0.73086 0.6689 0.94582 0.0
O744 O 0.73584 0.6929 0.01544 0.0
O745 O 0.75436 0.66737 0.00517 0.0
O746 O 0.77475 0.71173 0.98956 0.0
O747 O 0.7726 0.68038 0.96426 0.0
C748 C 0.69706 0.58186 0.95744 0.0
C749 C 0.71002 0.57307 0.97381 0.0
H750 H 0.7392 0.56264 0.00742 0.0
H751 H 0.77633 0.58975 0.0277 0.0
H752 H 0.69213 0.64659 0.92448 0.0
H753 H 0.67565 0.60555 0.92921 0.0
H754 H 0.6808 0.57076 0.94798 0.0
H755 H 0.70339 0.55541 0.97689 0.0
Mn756 Mn 0.91596 0.5473 0.81341 0.0
Mn757 Mn 0.87717 0.54596 0.8506 0.0
C758 C 0.89958 0.51347 0.82687 0.0
C759 C 0.92466 0.54249 0.7765 0.0
C760 C 0.92945 0.56547 0.86451 0.0
O761 O 0.90558 0.57615 0.80935 0.0
O762 O 0.88004 0.57375 0.83489 0.0
C763 C 0.83443 0.539 0.81723 0.0
N764 N 0.84633 0.53182 0.8346 0.0
C765 C 0.81372 0.49885 0.83478 0.0
C766 C 0.80109 0.50596 0.81698 0.0
C767 C 0.81153 0.52609 0.80813 0.0
C768 C 0.83649 0.51241 0.84315 0.0
H769 H 0.84234 0.55444 0.81033 0.0
C770 C 0.89056 0.58361 0.81945 0.0
O771 O 0.94027 0.55512 0.79308 0.0
O772 O 0.90378 0.53382 0.78114 0.0
N773 N 0.87238 0.51947 0.86625 0.0
C774 C 0.88755 0.51389 0.88204 0.0
C775 C 0.88008 0.49376 0.89199 0.0
C776 C 0.85709 0.47964 0.8857 0.0
C777 C 0.84182 0.48569 0.86935 0.0
C778 C 0.85025 0.50592 0.85997 0.0
H779 H 0.90528 0.52457 0.88682 0.0
O780 O 0.91966 0.51655 0.81947 0.0
O781 O 0.89004 0.5305 0.82658 0.0
O782 O 0.93495 0.56246 0.84446 0.0
O783 O 0.90836 0.56001 0.86871 0.0
C784 C 0.81865 0.47228 0.8618 0.0
C785 C 0.80467 0.47873 0.84438 0.0
H786 H 0.78343 0.49602 0.80988 0.0
H787 H 0.80193 0.53164 0.79433 0.0
H788 H 0.89204 0.48911 0.90445 0.0
H789 H 0.85141 0.46408 0.89336 0.0
H790 H 0.81149 0.45682 0.86911 0.0
H791 H 0.78705 0.468 0.83838 0.0
Mn792 Mn 0.78356 0.41336 0.50752 0.0
Mn793 Mn 0.779 0.45081 0.47049 0.0
C794 C 0.81548 0.43097 0.49123 0.0
C795 C 0.79096 0.40441 0.54402 0.0
C796 C 0.76029 0.39886 0.45776 0.0
O797 O 0.75441 0.42247 0.51444 0.0
O798 O 0.75341 0.44811 0.48971 0.0
C799 C 0.78855 0.49392 0.5035 0.0
N800 N 0.79407 0.48173 0.48513 0.0
C801 C 0.82628 0.51389 0.4816 0.0
C802 C 0.82085 0.52681 0.50039 0.0
C803 C 0.80194 0.51675 0.51142 0.0
C804 C 0.81225 0.49124 0.47441 0.0
H805 H 0.77409 0.48628 0.51211 0.0
C806 C 0.74568 0.43742 0.50596 0.0
O807 O 0.77815 0.38903 0.52744 0.0
O808 O 0.79892 0.42531 0.53957 0.0
N809 N 0.80339 0.45527 0.45162 0.0
C810 C 0.80745 0.43992 0.43491 0.0
C811 C 0.82638 0.44698 0.42284 0.0
C812 C 0.84085 0.46974 0.42798 0.0
C813 C 0.8363 0.48523 0.44521 0.0
C814 C 0.81718 0.47723 0.45666 0.0
H815 H 0.79645 0.42237 0.43093 0.0
O816 O 0.81436 0.41135 0.49865 0.0
O817 O 0.79768 0.43929 0.49317 0.0
O818 O 0.7667 0.3941 0.47732 0.0
O819 O 0.76357 0.41956 0.45339 0.0
C820 C 0.8502 0.50819 0.45169 0.0
C821 C 0.84528 0.52247 0.46996 0.0
H822 H 0.83122 0.54438 0.50663 0.0
H823 H 0.79771 0.52657 0.52601 0.0
H824 H 0.82984 0.43488 0.40965 0.0
H825 H 0.85553 0.47508 0.41872 0.0
H826 H 0.86489 0.51495 0.44291 0.0
H827 H 0.85639 0.53995 0.47507 0.0
Mn828 Mn 0.62957 0.55102 0.29471 0.0
Mn829 Mn 0.67559 0.55671 0.33576 0.0
C830 C 0.65548 0.58761 0.3091 0.0
C831 C 0.6132 0.54681 0.25509 0.0
C832 C 0.62533 0.54649 0.34615 0.0
O833 O 0.6346 0.5181 0.29159 0.0
O834 O 0.66607 0.52481 0.31886 0.0
C835 C 0.71158 0.55091 0.30663 0.0
N836 N 0.70428 0.56385 0.32318 0.0
C837 C 0.74117 0.59297 0.32948 0.0
C838 C 0.74912 0.57996 0.31254 0.0
C839 C 0.7342 0.5589 0.30098 0.0
C840 C 0.71839 0.58425 0.33423 0.0
H841 H 0.70026 0.5346 0.29786 0.0
C842 C 0.65094 0.5116 0.30272 0.0
O843 O 0.60028 0.54138 0.27096 0.0
O844 O 0.6355 0.55374 0.26206 0.0
N845 N 0.6867 0.58712 0.35291 0.0
C846 C 0.6757 0.59841 0.36744 0.0
C847 C 0.68784 0.62029 0.37958 0.0
C848 C 0.71123 0.63012 0.37691 0.0
C849 C 0.72216 0.61812 0.36188 0.0
C850 C 0.70908 0.59657 0.34998 0.0
H851 H 0.65781 0.59079 0.36972 0.0
O852 O 0.63411 0.58572 0.30018 0.0
O853 O 0.66051 0.5681 0.31025 0.0
O854 O 0.61573 0.54698 0.32578 0.0
O855 O 0.64734 0.54958 0.35116 0.0
C856 C 0.74549 0.62673 0.35816 0.0
C857 C 0.75492 0.6143 0.34179 0.0
H858 H 0.76658 0.58603 0.30818 0.0
H859 H 0.74018 0.54877 0.28785 0.0
H860 H 0.67925 0.62947 0.39109 0.0
H861 H 0.72058 0.64695 0.38638 0.0
H862 H 0.75625 0.64306 0.36759 0.0
H863 H 0.77271 0.62138 0.3387 0.0
Dy864 Dy 0.06161 0.05839 0.0526 0.0
Dy865 Dy 0.01294 0.02818 0.02562 0.0
C866 C 0.05618 0.03971 0.99706 0.0
O867 O 0.04925 0.08739 0.03852 0.0
O868 O 0.0121 0.06604 0.02313 0.0
O869 O 0.09844 0.07456 0.05326 0.0
O870 O 0.08405 0.07272 0.08495 0.0
O871 O 0.0098 0.0285 0.06339 0.0
O872 O 0.03628 0.0627 0.0775 0.0
O873 O 0.03084 0.99959 0.03052 0.0
O874 O 0.0592 0.0211 0.05914 0.0
O875 O 0.97964 0.00395 0.02667 0.0
O876 O 0.986 0.01943 0.9962 0.0
C877 C 0.02848 0.0862 0.02736 0.0
O878 O 0.0685 0.05341 0.0156 0.0
O879 O 0.03516 0.02645 0.9977 0.0
C880 C 0.119 0.06158 0.08218 0.0
C881 C 0.14271 0.02692 0.07874 0.0
C882 C 0.15293 0.04899 0.0733 0.0
C883 C 0.14111 0.06619 0.07497 0.0
C884 C 0.11016 0.04047 0.09021 0.0
C885 C 0.12186 0.02323 0.08838 0.0
C886 C 0.10297 0.07534 0.07531 0.0
C887 C 0.01883 0.04544 0.08042 0.0
C888 C 0.04754 0.00068 0.04746 0.0
C889 C 0.94956 0.0176 0.00896 0.0
C890 C 0.91735 0.04327 0.01762 0.0
C891 C 0.92105 0.02719 0.03192 0.0
C892 C 0.93697 0.01441 0.02759 0.0
C893 C 0.94451 0.03243 0.99372 0.0
C894 C 0.92862 0.04521 0.99807 0.0
C895 C 0.97021 0.00853 0.00754 0.0
H896 H 0.16896 0.0523 0.06574 0.0
H897 H 0.14818 0.08223 0.06853 0.0
H898 H 0.09319 0.03642 0.096 0.0
H899 H 0.11381 0.00648 0.09302 0.0
H900 H 0.9125 0.02527 0.04705 0.0
H901 H 0.94032 0.00298 0.03956 0.0
H902 H 0.95367 0.03507 0.97905 0.0
H903 H 0.92558 0.05705 0.98643 0.0
Dy904 Dy 0.31049 0.79607 0.26209 0.0
Dy905 Dy 0.28867 0.81757 0.30465 0.0
C906 C 0.33089 0.84832 0.28518 0.0
O907 O 0.32712 0.78328 0.29228 0.0
O908 O 0.31931 0.807 0.32205 0.0
O909 O 0.33952 0.79271 0.24434 0.0
O910 O 0.30415 0.77461 0.22907 0.0
O911 O 0.27732 0.7798 0.30451 0.0
O912 O 0.27806 0.7697 0.26634 0.0
O913 O 0.26223 0.81229 0.27291 0.0
O914 O 0.28795 0.81736 0.24713 0.0
O915 O 0.25828 0.82156 0.31949 0.0
O916 O 0.29286 0.84095 0.33614 0.0
C917 C 0.33056 0.79213 0.31423 0.0
O918 O 0.33599 0.82981 0.2762 0.0
O919 O 0.31042 0.84752 0.2915 0.0
C920 C 0.32828 0.79454 0.20553 0.0
C921 C 0.3213 0.81859 0.16875 0.0
C922 C 0.33114 0.83077 0.1906 0.0
C923 C 0.33453 0.81886 0.20885 0.0
C924 C 0.31998 0.78236 0.18341 0.0
C925 C 0.31658 0.79433 0.16506 0.0
C926 C 0.32571 0.78234 0.22552 0.0
C927 C 0.27012 0.76522 0.28553 0.0
C928 C 0.26686 0.81635 0.25237 0.0
C929 C 0.2658 0.82436 0.3597 0.0
C930 C 0.26345 0.79823 0.39598 0.0
C931 C 0.24539 0.79219 0.37735 0.0
C932 C 0.2465 0.80519 0.35938 0.0
C933 C 0.28243 0.83187 0.37954 0.0
C934 C 0.28131 0.81884 0.39751 0.0
C935 C 0.27076 0.83375 0.33835 0.0
H936 H 0.3352 0.84948 0.19381 0.0
H937 H 0.34065 0.82871 0.22581 0.0
H938 H 0.3147 0.7636 0.1806 0.0
H939 H 0.30886 0.78454 0.14836 0.0
H940 H 0.23138 0.7764 0.37575 0.0
H941 H 0.23315 0.79915 0.34452 0.0
H942 H 0.29725 0.84683 0.38044 0.0
H943 H 0.29516 0.82411 0.41199 0.0
Dy944 Dy 0.51372 0.03749 0.54521 0.0
Dy945 Dy 0.56895 0.04415 0.53853 0.0
C946 C 0.53257 0.0501 0.49936 0.0
O947 O 0.51605 0.00013 0.53866 0.0
O948 O 0.54991 0.00732 0.5221 0.0
O949 O 0.47731 0.03024 0.53065 0.0
O950 O 0.48755 0.04142 0.56693 0.0
O951 O 0.5617 0.02406 0.56712 0.0
O952 O 0.53417 0.04019 0.57991 0.0
O953 O 0.56766 0.07962 0.55638 0.0
O954 O 0.52867 0.07587 0.54559 0.0
O955 O 0.60524 0.05249 0.55362 0.0
O956 O 0.59531 0.04033 0.51717 0.0
C957 C 0.53114 0.99258 0.52703 0.0
O958 O 0.51703 0.03536 0.50809 0.0
O959 O 0.5536 0.05969 0.51046 0.0
C960 C 0.45765 0.05534 0.54868 0.0
C961 C 0.43153 0.08858 0.5464 0.0
C962 C 0.45246 0.0913 0.53672 0.0
C963 C 0.46534 0.07487 0.53783 0.0
C964 C 0.43706 0.05273 0.55865 0.0
C965 C 0.42417 0.06912 0.55755 0.0
C966 C 0.47089 0.03766 0.54973 0.0
C967 C 0.55064 0.02975 0.58366 0.0
C968 C 0.54985 0.08903 0.55393 0.0
C969 C 0.62484 0.02681 0.53644 0.0
C970 C 0.64952 0.99241 0.53867 0.0
C971 C 0.62926 0.99095 0.54925 0.0
C972 C 0.61703 0.00791 0.54809 0.0
C973 C 0.6449 0.0283 0.52577 0.0
C974 C 0.65706 0.01133 0.52683 0.0
C975 C 0.6118 0.04455 0.5347 0.0
H976 H 0.45863 0.10585 0.52779 0.0
H977 H 0.48121 0.07731 0.53002 0.0
H978 H 0.43087 0.03793 0.56726 0.0
H979 H 0.40842 0.06655 0.56555 0.0
H980 H 0.62294 0.97686 0.55869 0.0
H981 H 0.60146 0.00624 0.55631 0.0
H982 H 0.65108 0.04255 0.51645 0.0
H983 H 0.67223 0.0129 0.51802 0.0
Dy984 Dy 0.31205 0.27704 0.78353 0.0
Dy985 Dy 0.26122 0.2898 0.77948 0.0
C986 C 0.30903 0.32646 0.77414 0.0
O987 O 0.31027 0.29538 0.81881 0.0
O988 O 0.27043 0.28581 0.81618 0.0
O989 O 0.34965 0.2882 0.79326 0.0
O990 O 0.33309 0.25335 0.77615 0.0
O991 O 0.25355 0.25137 0.77603 0.0
O992 O 0.28711 0.24781 0.79618 0.0
O993 O 0.26786 0.28503 0.74233 0.0
O994 O 0.29467 0.26385 0.74727 0.0
O995 O 0.22347 0.2808 0.77038 0.0
O996 O 0.2417 0.31404 0.78987 0.0
C997 C 0.29115 0.29371 0.82862 0.0
O998 O 0.3167 0.30889 0.76688 0.0
O999 O 0.28982 0.32321 0.78373 0.0
C1000 C 0.37013 0.27233 0.76576 0.0
C1001 C 0.40323 0.2777 0.73407 0.0
C1002 C 0.40253 0.29652 0.75011 0.0
C1003 C 0.38628 0.29387 0.76573 0.0
C1004 C 0.37086 0.25349 0.74979 0.0
C1005 C 0.3871 0.25614 0.73416 0.0
C1006 C 0.35281 0.26941 0.78242 0.0
C1007 C 0.26476 0.23939 0.78779 0.0
C1008 C 0.28047 0.27178 0.73376 0.0
C1009 C 0.20461 0.29587 0.79955 0.0
C1010 C 0.17287 0.29054 0.83245 0.0
C1011 C 0.19167 0.28033 0.83369 0.0
C1012 C 0.20731 0.28293 0.81743 0.0
C1013 C 0.18601 0.30613 0.79828 0.0
C1014 C 0.17036 0.30351 0.81446 0.0
C1015 C 0.2214 0.29932 0.78262 0.0
H1016 H 0.41482 0.31331 0.7509 0.0
H1017 H 0.38648 0.30878 0.77784 0.0
H1018 H 0.35879 0.23662 0.74931 0.0
H1019 H 0.38683 0.24127 0.72196 0.0
H1020 H 0.19418 0.27005 0.84707 0.0
H1021 H 0.22153 0.27483 0.81882 0.0
H1022 H 0.18365 0.31635 0.7848 0.0
H1023 H 0.15646 0.31202 0.81305 0.0
Dy1024 Dy 0.04946 0.01093 0.53528 0.0
Dy1025 Dy 0.03494 0.06048 0.53958 0.0
C1026 C 0.99892 0.01245 0.54419 0.0
O1027 O 0.03094 0.0123 0.49998 0.0
O1028 O 0.03909 0.05169 0.50276 0.0
O1029 O 0.03902 0.97371 0.52551 0.0
O1030 O 0.07398 0.99081 0.54272 0.0
O1031 O 0.07385 0.06926 0.5428 0.0
O1032 O 0.0786 0.03637 0.52276 0.0
O1033 O 0.03989 0.05388 0.57663 0.0
O1034 O 0.06227 0.02822 0.57157 0.0
O1035 O 0.0429 0.09777 0.54853 0.0
O1036 O 0.00911 0.07864 0.53012 0.0
C1037 C 0.03186 0.03111 0.49027 0.0
O1038 O 0.01694 0.00547 0.55172 0.0
O1039 O 1.00188 0.03134 0.53458 0.0
C1040 C 0.05553 0.95412 0.55252 0.0
C1041 C 0.04962 0.92113 0.58363 0.0
C1042 C 0.04221 0.94144 0.58765 0.0
C1043 C 0.04515 0.95773 0.57231 0.0
C1044 C 0.06303 0.934 0.54847 0.0
C1045 C 0.06014 0.91773 0.5638 0.0
C1046 C 0.05831 0.97102 0.53597 0.0
C1047 C 0.08643 0.05861 0.53106 0.0
C1048 C 0.0537 0.04184 0.58512 0.0
C1049 C 0.02561 0.11559 0.51967 0.0
C1050 C 0.02835 0.14705 0.48695 0.0
C1051 C 0.04843 0.14111 0.49625 0.0
C1052 C 0.04708 0.12557 0.51231 0.0
C1053 C 1.00556 0.12134 0.51033 0.0
C1054 C 0.00687 0.13675 0.49419 0.0
C1055 C 0.02365 0.09903 0.53671 0.0
H1056 H 0.03433 0.94491 0.6028 0.0
H1057 H 0.03928 0.97316 0.57589 0.0
H1058 H 0.07101 0.93077 0.53331 0.0
H1059 H 0.06582 0.90225 0.55988 0.0
H1060 H 0.06537 0.14878 0.49146 0.0
H1061 H 0.0629 0.12147 0.51902 0.0
H1062 H 0.98875 0.11382 0.5155 0.0
H1063 H 0.99089 0.14041 0.48724 0.0
Dy1064 Dy 0.2877 0.8091 0.77304 0.0
Dy1065 Dy 0.2814 0.7555 0.7828 0.0
C1066 C 0.27286 0.79294 0.81959 0.0
O1067 O 0.32535 0.80674 0.77987 0.0
O1068 O 0.31814 0.77567 0.79972 0.0
O1069 O 0.29671 0.846 0.78531 0.0
O1070 O 0.2822 0.83308 0.74994 0.0
O1071 O 0.30208 0.7613 0.75422 0.0
O1072 O 0.28498 0.78682 0.7393 0.0
O1073 O 0.24567 0.7558 0.76389 0.0
O1074 O 0.24897 0.79455 0.77275 0.0
O1075 O 0.27321 0.7192 0.7686 0.0
O1076 O 0.28531 0.73029 0.80494 0.0
C1077 C 0.33307 0.79329 0.79328 0.0
O1078 O 0.28762 0.80813 0.81048 0.0
O1079 O 0.26454 0.77143 0.80965 0.0
C1080 C 0.2701 0.86462 0.768 0.0
C1081 C 0.23781 0.89199 0.77158 0.0
C1082 C 0.26135 0.90063 0.78194 0.0
C1083 C 0.27724 0.88718 0.78007 0.0
C1084 C 0.24653 0.85568 0.75798 0.0
C1085 C 0.23063 0.8692 0.75969 0.0
C1086 C 0.28738 0.85075 0.7662 0.0
C1087 C 0.29565 0.77044 0.73665 0.0
C1088 C 0.23594 0.77334 0.76512 0.0
C1089 C 0.2991 0.70023 0.78633 0.0
C1090 C 0.33285 0.6746 0.78262 0.0
C1091 C 0.33938 0.69769 0.79371 0.0
C1092 C 0.32275 0.71034 0.79547 0.0
C1093 C 0.29255 0.67732 0.7751 0.0
C1094 C 0.30917 0.66469 0.77322 0.0
C1095 C 0.2813 0.71348 0.7878 0.0
H1096 H 0.26757 0.9178 0.79175 0.0
H1097 H 0.2952 0.89444 0.78816 0.0
H1098 H 0.24035 0.83825 0.74871 0.0
H1099 H 0.2128 0.86186 0.75133 0.0
H1100 H 0.35729 0.70594 0.80141 0.0
H1101 H 0.3284 0.72804 0.80406 0.0
H1102 H 0.27452 0.66919 0.76766 0.0
H1103 H 0.30344 0.64716 0.76417 0.0
Dy1104 Dy 0.50429 0.04088 0.00349 0.0
Dy1105 Dy 0.51545 0.01334 0.04518 0.0
C1106 C 0.52052 0.99341 0.99354 0.0
O1107 O 0.47 0.0255 0.01364 0.0
O1108 O 0.48008 0.99444 0.02561 0.0
O1109 O 0.48637 0.04247 0.97029 0.0
O1110 O 0.5117 0.07293 0.98955 0.0
O1111 O 0.50388 0.04278 0.06318 0.0
O1112 O 0.50553 0.06614 0.0351 0.0
O1113 O 0.54584 0.04444 0.0474 0.0
O1114 O 0.54231 0.04444 0.00901 0.0
O1115 O 0.53919 0.00328 0.06968 0.0
O1116 O 0.5017 0.98964 0.06795 0.0
C1117 C 0.46417 0.00415 0.01762 0.0
O1118 O 0.50726 0.00635 0.98609 0.0
O1119 O 0.5287 0.9959 0.01553 0.0
C1120 C 0.51438 0.06502 0.95094 0.0
C1121 C 0.55239 0.07009 0.92617 0.0
C1122 C 0.53916 0.04796 0.92876 0.0
C1123 C 0.52038 0.04544 0.94109 0.0
C1124 C 0.52644 0.08705 0.94687 0.0
C1125 C 0.54535 0.08958 0.9345 0.0
C1126 C 0.50002 0.06301 0.96955 0.0
C1127 C 0.50358 0.06281 0.05647 0.0
C1128 C 0.55485 0.05074 0.02923 0.0
C1129 C 0.52302 0.00104 0.10426 0.0
C1130 C 0.51168 0.01881 0.14606 0.0
C1131 C 0.52488 0.03372 0.13294 0.0
C1132 C 0.53042 0.02493 0.11214 0.0
C1133 C 0.5116 0.98595 0.11824 0.0
C1134 C 0.506 0.99477 0.13906 0.0
C1135 C 0.52214 0.99266 0.07992 0.0
H1136 H 0.5439 0.03261 0.92198 0.0
H1137 H 0.51159 0.02823 0.94413 0.0
H1138 H 0.5223 0.10237 0.95462 0.0
H1139 H 0.55525 0.10681 0.93261 0.0
H1140 H 0.52984 0.05226 0.1382 0.0
H1141 H 0.53901 0.03696 0.1015 0.0
H1142 H 0.50545 0.96751 0.11227 0.0
H1143 H 0.49571 0.98288 0.1488 0.0
Dy1144 Dy 0.26503 0.26118 0.26692 0.0
Dy1145 Dy 0.29426 0.31111 0.29121 0.0
C1146 C 0.28522 0.2702 0.32144 0.0
O1147 O 0.23606 0.27904 0.27184 0.0
O1148 O 0.25732 0.30789 0.30006 0.0
O1149 O 0.23731 0.23 0.26668 0.0
O1150 O 0.25911 0.23209 0.23998 0.0
O1151 O 0.27941 0.31728 0.25629 0.0
O1152 O 0.27236 0.28075 0.23715 0.0
O1153 O 0.32178 0.29754 0.2748 0.0
O1154 O 0.30301 0.25905 0.26947 0.0
O1155 O 0.3203 0.34323 0.29085 0.0
O1156 O 0.30181 0.3385 0.32001 0.0
C1157 C 0.23678 0.29546 0.28894 0.0
O1158 O 0.26825 0.25917 0.3049 0.0
O1159 O 0.30085 0.28875 0.31793 0.0
C1160 C 0.2543 0.19994 0.25873 0.0
C1161 C 0.27675 0.16735 0.27318 0.0
C1162 C 0.28406 0.19045 0.28382 0.0
C1163 C 0.27281 0.20638 0.27686 0.0
C1164 C 0.24665 0.17694 0.2479 0.0
C1165 C 0.25778 0.16062 0.2552 0.0
C1166 C 0.24508 0.21839 0.2509 0.0
C1167 C 0.27605 0.3031 0.2369 0.0
C1168 C 0.32206 0.27588 0.26906 0.0
C1169 C 0.30503 0.37276 0.30474 0.0
C1170 C 0.28697 0.40855 0.2918 0.0
C1171 C 0.2736 0.38552 0.28588 0.0
C1172 C 0.28253 0.3678 0.29235 0.0
C1173 C 0.31841 0.39574 0.31109 0.0
C1174 C 0.3093 0.41368 0.30477 0.0
C1175 C 0.31442 0.35335 0.30897 0.0
H1176 H 0.29901 0.19657 0.29716 0.0
H1177 H 0.27912 0.22405 0.28535 0.0
H1178 H 0.23246 0.17175 0.23374 0.0
H1179 H 0.2517 0.14288 0.24671 0.0
H1180 H 0.2562 0.38123 0.27623 0.0
H1181 H 0.27198 0.35012 0.28728 0.0
H1182 H 0.33588 0.39975 0.3205 0.0
H1183 H 0.31981 0.43143 0.30951 0.0
Dy1184 Dy 0.5486 0.51067 0.03551 0.0
Dy1185 Dy 0.53379 0.56026 0.03948 0.0
C1186 C 0.49802 0.51212 0.04484 0.0
O1187 O 0.5299 0.51181 1.00025 0.0
O1188 O 0.53825 0.55118 0.00281 0.0
O1189 O 0.53842 0.47335 0.02581 0.0
O1190 O 0.5734 0.49086 0.04289 0.0
O1191 O 0.57269 0.56904 0.04275 0.0
O1192 O 0.57747 0.53618 0.0227 0.0
O1193 O 0.53902 0.55399 0.07663 0.0
O1194 O 0.56145 0.52832 0.07168 0.0
O1195 O 0.54144 0.59752 0.0487 0.0
O1196 O 0.50834 0.57845 0.02885 0.0
C1197 C 0.53096 0.53057 0.99042 0.0
O1198 O 0.51614 0.50509 0.05206 0.0
O1199 O 0.50075 0.53107 0.03531 0.0
C1200 C 0.55551 0.45336 0.05236 0.0
C1201 C 0.55059 0.41895 0.08215 0.0
C1202 C 0.54036 0.41339 0.05895 0.0
C1203 C 0.54283 0.4303 0.04432 0.0
C1204 C 0.56567 0.45908 0.07556 0.0
C1205 C 0.56324 0.44214 0.09022 0.0
C1206 C 0.55784 0.47095 0.03633 0.0
C1207 C 0.58523 0.55844 0.03091 0.0
C1208 C 0.55293 0.54205 0.08516 0.0
C1209 C 0.52539 0.61581 0.01937 0.0
C1210 C 0.52955 0.64828 0.98749 0.0
C1211 C 0.54943 0.64281 0.99799 0.0
C1212 C 0.54739 0.62681 0.01365 0.0
C1213 C 0.50554 0.62109 0.00882 0.0
C1214 C 0.50755 0.63699 0.9931 0.0
C1215 C 0.52267 0.59885 0.03609 0.0
H1216 H 0.53009 0.39595 0.05205 0.0
H1217 H 0.53472 0.42533 0.0266 0.0
H1218 H 0.57559 0.47666 0.0824 0.0
H1219 H 0.57159 0.44719 0.10784 0.0
H1220 H 0.56673 0.65122 0.99447 0.0
H1221 H 0.56309 0.62314 0.02133 0.0
H1222 H 0.48834 0.61285 0.01272 0.0
H1223 H 0.49173 0.64024 0.9852 0.0
Dy1224 Dy 0.78491 0.30762 0.27316 0.0
Dy1225 Dy 0.77939 0.25558 0.28799 0.0
C1226 C 0.77209 0.29596 0.32228 0.0
O1227 O 0.82269 0.30543 0.28023 0.0
O1228 O 0.8162 0.27678 0.30312 0.0
O1229 O 0.79565 0.34502 0.28159 0.0
O1230 O 0.77684 0.32907 0.24824 0.0
O1231 O 0.79954 0.25919 0.25891 0.0
O1232 O 0.78177 0.28264 0.24116 0.0
O1233 O 0.74339 0.25422 0.26876 0.0
O1234 O 0.74626 0.29311 0.27368 0.0
O1235 O 0.77045 0.21872 0.27665 0.0
O1236 O 0.78553 0.23245 0.31191 0.0
C1237 C 0.83081 0.29332 0.29494 0.0
O1238 O 0.78518 0.31033 0.31093 0.0
O1239 O 0.76398 0.27378 0.31457 0.0
C1240 C 0.76817 0.36292 0.2649 0.0
C1241 C 0.73709 0.39145 0.26909 0.0
C1242 C 0.73362 0.37089 0.27897 0.0
C1243 C 0.74898 0.35681 0.2769 0.0
C1244 C 0.77158 0.38322 0.25485 0.0
C1245 C 0.75627 0.3973 0.2569 0.0
C1246 C 0.78454 0.34821 0.26262 0.0
C1247 C 0.79218 0.26598 0.24016 0.0
C1248 C 0.73348 0.27152 0.26773 0.0
C1249 C 0.798 0.20139 0.29393 0.0
C1250 C 0.8317 0.1758 0.28962 0.0
C1251 C 0.8332 0.19589 0.27924 0.0
C1252 C 0.81661 0.20856 0.28145 0.0
C1253 C 0.79651 0.18155 0.30448 0.0
C1254 C 0.81316 0.16895 0.30242 0.0
C1255 C 0.78015 0.21446 0.2959 0.0
H1256 H 0.7193 0.36586 0.2887 0.0
H1257 H 0.74594 0.34121 0.2848 0.0
H1258 H 0.78615 0.38821 0.24537 0.0
H1259 H 0.75938 0.41272 0.24872 0.0
H1260 H 0.84696 0.2017 0.26906 0.0
H1261 H 0.81826 0.22391 0.27327 0.0
H1262 H 0.78244 0.17577 0.31435 0.0
H1263 H 0.81157 0.15392 0.3111 0.0
Dy1264 Dy 0.02993 0.54791 0.50725 0.0
Dy1265 Dy 0.03322 0.5183 0.54878 0.0
C1266 C 0.03659 0.49634 0.49779 0.0
O1267 O 0.99306 0.53728 0.51304 0.0
O1268 O 0.99645 0.50615 0.53064 0.0
O1269 O 0.01833 0.55227 0.47262 0.0
O1270 O 0.0446 0.5799 0.49475 0.0
O1271 O 0.01877 0.54732 0.5629 0.0
O1272 O 0.03314 0.5733 0.53947 0.0
O1273 O 0.06842 0.5436 0.55138 0.0
O1274 O 0.06551 0.54326 0.51311 0.0
O1275 O 0.04728 0.51539 0.58303 0.0
O1276 O 0.02216 0.48606 0.56219 0.0
C1277 C 0.9837 0.51763 0.51995 0.0
O1278 O 0.02531 0.51097 0.49064 0.0
O1279 O 0.04531 0.49875 0.51962 0.0
C1280 C 0.05297 0.5691 0.45866 0.0
C1281 C 0.09253 0.56797 0.4371 0.0
C1282 C 0.08288 0.55029 0.44948 0.0
C1283 C 0.06314 0.55067 0.45972 0.0
C1284 C 0.06231 0.58686 0.44637 0.0
C1285 C 0.08177 0.58613 0.43535 0.0
C1286 C 0.03544 0.57099 0.47369 0.0
C1287 C 0.02447 0.56873 0.55846 0.0
C1288 C 0.07828 0.54775 0.53313 0.0
C1289 C 0.01763 0.49406 0.6006 0.0
C1290 C 0.99015 0.49541 0.63612 0.0
C1291 C 0.98931 0.50941 0.61886 0.0
C1292 C 1.00262 0.50846 0.60118 0.0
C1293 C 0.01833 0.47962 0.61735 0.0
C1294 C 1.00451 0.48014 0.63494 0.0
C1295 C 0.03282 0.49512 0.58276 0.0
H1296 H 0.09076 0.53628 0.45176 0.0
H1297 H 0.05634 0.53684 0.46926 0.0
H1298 H 0.05488 0.6014 0.44565 0.0
H1299 H 0.08831 0.59979 0.42549 0.0
H1300 H 0.979 0.52179 0.61931 0.0
H1301 H 1.00157 0.51947 0.58822 0.0
H1302 H 0.0297 0.46822 0.61698 0.0
H1303 H 1.00531 0.46882 0.64772 0.0
Dy1304 Dy 0.81386 0.77578 0.28098 0.0
Dy1305 Dy 0.76288 0.78835 0.27766 0.0
C1306 C 0.81064 0.82538 0.27234 0.0
O1307 O 0.81225 0.79411 0.31629 0.0
O1308 O 0.77248 0.78388 0.31405 0.0
O1309 O 0.85136 0.78682 0.2914 0.0
O1310 O 0.8352 0.75259 0.2726 0.0
O1311 O 0.75547 0.74988 0.27345 0.0
O1312 O 0.78902 0.74628 0.29354 0.0
O1313 O 0.76895 0.78393 0.2404 0.0
O1314 O 0.79636 0.76326 0.24465 0.0
O1315 O 0.72489 0.77877 0.26984 0.0
O1316 O 0.74341 0.81263 0.28792 0.0
C1317 C 0.79324 0.79213 0.32628 0.0
O1318 O 0.8184 0.80795 0.26482 0.0
O1319 O 0.79146 0.82188 0.28203 0.0
C1320 C 0.87286 0.77236 0.26398 0.0
C1321 C 0.90772 0.77927 0.2341 0.0
C1322 C 0.90516 0.79786 0.24934 0.0
C1323 C 0.88805 0.79446 0.26405 0.0
C1324 C 0.87539 0.75377 0.24879 0.0
C1325 C 0.89249 0.75717 0.23405 0.0
C1326 C 0.85483 0.76852 0.2799 0.0
C1327 C 0.76664 0.73785 0.2852 0.0
C1328 C 0.78171 0.77103 0.2315 0.0
C1329 C 0.70701 0.79427 0.29983 0.0
C1330 C 0.67543 0.78864 0.33304 0.0
C1331 C 0.69923 0.80085 0.3394 0.0
C1332 C 0.71477 0.80357 0.32308 0.0
C1333 C 0.6834 0.78185 0.29348 0.0
C1334 C 0.66788 0.779 0.3098 0.0
C1335 C 0.72314 0.79743 0.2821 0.0
H1336 H 0.91669 0.81507 0.25024 0.0
H1337 H 0.88685 0.80923 0.27558 0.0
H1338 H 0.86411 0.7365 0.24829 0.0
H1339 H 0.89359 0.74243 0.22243 0.0
H1340 H 0.70585 0.8088 0.35695 0.0
H1341 H 0.73286 0.81316 0.32871 0.0
H1342 H 0.67689 0.77433 0.27578 0.0
H1343 H 0.64993 0.76905 0.30412 0.0
Dy1344 Dy 0.80878 0.29531 0.76376 0.0
Dy1345 Dy 0.7795 0.3058 0.80415 0.0
C1346 C 0.81354 0.3464 0.78778 0.0
O1347 O 0.82483 0.28184 0.79395 0.0
O1348 O 0.8156 0.30636 0.8214 0.0
O1349 O 0.84224 0.29881 0.75179 0.0
O1350 O 0.81028 0.28128 0.72898 0.0
O1351 O 0.77715 0.26837 0.80137 0.0
O1352 O 0.7815 0.26222 0.76361 0.0
O1353 O 0.75394 0.2997 0.77167 0.0
O1354 O 0.78077 0.31027 0.7475 0.0
O1355 O 0.74864 0.29779 0.82081 0.0
O1356 O 0.77764 0.3276 0.83493 0.0
C1357 C 0.82812 0.29213 0.81533 0.0
O1358 O 0.82506 0.33181 0.7807 0.0
O1359 O 0.79194 0.33903 0.79144 0.0
C1360 C 0.83889 0.30714 0.71403 0.0
C1361 C 0.84009 0.33678 0.68072 0.0
C1362 C 0.84262 0.34564 0.70404 0.0
C1363 C 0.84192 0.33093 0.72054 0.0
C1364 C 0.83796 0.29848 0.69093 0.0
C1365 C 0.83862 0.31323 0.67435 0.0
C1366 C 0.83263 0.29115 0.7306 0.0
C1367 C 0.77419 0.25451 0.78203 0.0
C1368 C 0.75898 0.306 0.75188 0.0
C1369 C 0.76101 0.30361 0.85996 0.0
C1370 C 0.7657 0.28275 0.89933 0.0
C1371 C 0.77797 0.27857 0.88114 0.0
C1372 C 0.77568 0.28893 0.86171 0.0
C1373 C 0.74893 0.30826 0.87808 0.0
C1374 C 0.75125 0.29782 0.89777 0.0
C1375 C 0.75854 0.31321 0.83871 0.0
H1376 H 0.84401 0.36375 0.70943 0.0
H1377 H 0.84241 0.33797 0.73826 0.0
H1378 H 0.83531 0.28013 0.68558 0.0
H1379 H 0.83641 0.3059 0.65646 0.0
H1380 H 0.78875 0.26661 0.88153 0.0
H1381 H 0.78503 0.28508 0.84777 0.0
H1382 H 0.73758 0.31962 0.87689 0.0
H1383 H 0.74162 0.3013 0.9116 0.0
Dy1384 Dy 0.76874 0.76552 0.76476 0.0
Dy1385 Dy 0.7989 0.81525 0.79023 0.0
C1386 C 0.78732 0.77296 0.8201 0.0
O1387 O 0.73914 0.77933 0.77652 0.0
O1388 O 0.76094 0.81493 0.7951 0.0
O1389 O 0.74282 0.7326 0.76209 0.0
O1390 O 0.76367 0.73968 0.73489 0.0
O1391 O 0.79959 0.81543 0.75219 0.0
O1392 O 0.76483 0.7893 0.73873 0.0
O1393 O 0.8288 0.80089 0.78066 0.0
O1394 O 0.80699 0.76528 0.76209 0.0
O1395 O 0.81105 0.85093 0.78585 0.0
O1396 O 0.81834 0.8408 0.81903 0.0
C1397 C 0.7404 0.79924 0.78914 0.0
O1398 O 0.77465 0.75962 0.8016 0.0
O1399 O 0.7996 0.79423 0.81924 0.0
C1400 C 0.76119 0.70452 0.74845 0.0
C1401 C 0.79271 0.67783 0.75639 0.0
C1402 C 0.78532 0.6893 0.77484 0.0
C1403 C 0.76966 0.70244 0.77094 0.0
C1404 C 0.76739 0.69177 0.72994 0.0
C1405 C 0.78298 0.67833 0.73391 0.0
C1406 C 0.75089 0.72373 0.74466 0.0
C1407 C 0.78235 0.80622 0.7354 0.0
C1408 C 0.8276 0.78071 0.76863 0.0
C1409 C 0.80774 0.87585 0.81703 0.0
C1410 C 0.77817 0.90514 0.821 0.0
C1411 C 0.799 0.91202 0.81149 0.0
C1412 C 0.81371 0.89751 0.80962 0.0
C1413 C 0.78811 0.86983 0.82841 0.0
C1414 C 0.77355 0.88449 0.83057 0.0
C1415 C 0.81815 0.85797 0.80759 0.0
H1416 H 0.79238 0.68881 0.79233 0.0
H1417 H 0.76544 0.71215 0.78563 0.0
H1418 H 0.76136 0.6934 0.71248 0.0
H1419 H 0.78846 0.66944 0.71947 0.0
H1420 H 0.80305 0.92772 0.8038 0.0
H1421 H 0.8286 0.90229 0.8005 0.0
H1422 H 0.78303 0.85308 0.83411 0.0
H1423 H 0.75799 0.87906 0.83853 0.0
Dy1424 Dy 0.55888 0.55265 0.55033 0.0
Dy1425 Dy 0.50828 0.52406 0.52475 0.0
C1426 C 0.55156 0.53488 0.49484 0.0
O1427 O 0.54683 0.582 0.53642 0.0
O1428 O 0.50909 0.56203 0.52152 0.0
O1429 O 0.59449 0.57341 0.55183 0.0
O1430 O 0.58191 0.56265 0.58262 0.0
O1431 O 0.50839 0.52253 0.56268 0.0
O1432 O 0.53387 0.55736 0.57548 0.0
O1433 O 0.52215 0.4939 0.53347 0.0
O1434 O 0.5579 0.51465 0.55336 0.0
O1435 O 0.47227 0.51226 0.52962 0.0
O1436 O 0.48194 0.50593 0.49593 0.0
C1437 C 0.52617 0.58164 0.52553 0.0
O1438 O 0.56542 0.54629 0.51363 0.0
O1439 O 0.52954 0.52388 0.49542 0.0
C1440 C 0.62006 0.56059 0.57702 0.0
C1441 C 0.65309 0.5345 0.5764 0.0
C1442 C 0.65557 0.55382 0.56475 0.0
C1443 C 0.63929 0.5668 0.56517 0.0
C1444 C 0.61857 0.5424 0.59014 0.0
C1445 C 0.63497 0.52955 0.58987 0.0
C1446 C 0.60026 0.57085 0.57297 0.0
C1447 C 0.51728 0.53983 0.57931 0.0
C1448 C 0.54204 0.49454 0.54606 0.0
C1449 C 0.44712 0.51732 0.49952 0.0
C1450 C 0.4192 0.5483 0.49821 0.0
C1451 C 0.41154 0.52743 0.50696 0.0
C1452 C 0.42542 0.51202 0.50757 0.0
C1453 C 0.45369 0.53704 0.48877 0.0
C1454 C 0.43971 0.55231 0.48796 0.0
C1455 C 0.46482 0.50609 0.50783 0.0
H1456 H 0.66918 0.55806 0.55404 0.0
H1457 H 0.64092 0.58079 0.55501 0.0
H1458 H 0.60409 0.53726 0.59967 0.0
H1459 H 0.63284 0.51508 0.59943 0.0
H1460 H 0.39578 0.52387 0.51497 0.0
H1461 H 0.42021 0.49704 0.5162 0.0
H1462 H 0.47045 0.54163 0.48259 0.0
H1463 H 0.4456 0.56791 0.48049 0.0
Dy1464 Dy 0.01442 0.54324 0.04395 0.0
Dy1465 Dy 0.06975 0.54888 0.03807 0.0
C1466 C 0.03478 0.55986 0.99974 0.0
O1467 O 0.01501 0.50823 0.02487 0.0
O1468 O 0.05334 0.51044 0.03689 0.0
O1469 O 0.97794 0.53496 0.02907 0.0
O1470 O 0.98828 0.54672 0.06556 0.0
O1471 O 0.06644 0.55345 0.07507 0.0
O1472 O 0.03002 0.52911 0.07318 0.0
O1473 O 0.06844 0.58665 0.04402 0.0
O1474 O 0.03299 0.58086 0.05793 0.0
O1475 O 0.10579 0.55537 0.05345 0.0
O1476 O 0.09617 0.54373 0.01715 0.0
C1477 C 0.03217 0.49805 0.02743 0.0
O1478 O 0.0217 0.56332 0.01532 0.0
O1479 O 0.05132 0.54948 0.00333 0.0
C1480 C 0.95779 0.55986 0.04683 0.0
C1481 C 0.93067 0.5922 0.04381 0.0
C1482 C 0.95322 0.59873 0.05663 0.0
C1483 C 0.96663 0.5828 0.05805 0.0
C1484 C 0.93546 0.55336 0.03387 0.0
C1485 C 0.92211 0.56929 0.0323 0.0
C1486 C 0.97161 0.54265 0.0482 0.0
C1487 C 0.05079 0.53959 0.08443 0.0
C1488 C 0.05262 0.59492 0.05379 0.0
C1489 C 0.1248 0.52905 0.03652 0.0
C1490 C 0.14903 0.49439 0.0396 0.0
C1491 C 0.12893 0.49354 0.05034 0.0
C1492 C 0.11695 0.51065 0.04878 0.0
C1493 C 0.14461 0.52985 0.02561 0.0
C1494 C 0.15655 0.51275 0.02708 0.0
C1495 C 0.11238 0.54728 0.03472 0.0
H1496 H 0.96042 0.61607 0.06589 0.0
H1497 H 0.9839 0.58845 0.06804 0.0
H1498 H 0.92831 0.53589 0.02485 0.0
H1499 H 0.90513 0.56365 0.0218 0.0
H1500 H 0.12264 0.47985 0.06026 0.0
H1501 H 0.10159 0.50955 0.05726 0.0
H1502 H 0.15085 0.54373 0.01586 0.0
H1503 H 0.17157 0.51382 0.01813 0.0
C1504 C 0.0069 0.21164 0.99779 0.0
C1505 C 1.00505 0.21348 0.97414 0.0
C1506 C 0.00973 0.19119 0.00657 0.0
C1507 C 0.01144 0.1715 0.99174 0.0
C1508 C 0.0097 0.17332 0.96785 0.0
C1509 C 1.00634 0.19379 0.95948 0.0
C1510 C 0.01086 0.19068 0.03199 0.0
C1511 C 0.01179 0.1536 0.95094 0.0
C1512 C 0.04228 0.12769 0.0173 0.0
C1513 C 0.02376 0.10814 0.01876 0.0
C1514 C 0.03858 0.14783 0.00855 0.0
C1515 C 0.01559 0.14951 1.00115 0.0
C1516 C 0.99675 0.12994 0.00283 0.0
C1517 C 1.00099 0.10976 0.01121 0.0
C1518 C 0.05958 0.16737 0.00692 0.0
C1519 C 0.97183 0.13036 0.99597 0.0
H1520 H 1.00596 0.2263 0.00964 0.0
H1521 H 1.00516 0.1945 0.94124 0.0
H1522 H 0.9974 0.17542 0.0353 0.0
H1523 H 0.02816 0.18888 0.03908 0.0
H1524 H 0.00807 0.20656 0.04131 0.0
H1525 H 0.01032 0.15737 0.93303 0.0
H1526 H 0.0289 0.14992 0.95533 0.0
H1527 H 0.99795 0.13768 0.95193 0.0
H1528 H 0.06004 0.12715 0.02267 0.0
H1529 H 0.98625 0.09521 0.01203 0.0
H1530 H 0.05882 0.18342 0.01757 0.0
H1531 H 0.05943 0.17088 0.98896 0.0
H1532 H 0.07634 0.16352 0.01263 0.0
H1533 H 0.96795 0.14461 0.00706 0.0
H1534 H 0.95904 0.11382 0.99741 0.0
H1535 H 0.96934 0.13387 0.97806 0.0
C1536 C 0.16212 0.8089 0.14874 0.0
C1537 C 0.14841 0.82384 0.15485 0.0
C1538 C 0.18225 0.80822 0.16345 0.0
C1539 C 0.18953 0.82326 0.18469 0.0
C1540 C 0.1765 0.83931 0.19023 0.0
C1541 C 0.156 0.83907 0.17562 0.0
C1542 C 0.19532 0.79077 0.1566 0.0
C1543 C 0.18411 0.85669 0.21183 0.0
C1544 C 0.224 0.80706 0.23615 0.0
C1545 C 0.24745 0.81825 0.23474 0.0
C1546 C 0.20536 0.80807 0.21975 0.0
C1547 C 0.20979 0.82139 0.20167 0.0
C1548 C 0.23348 0.83293 0.20026 0.0
C1549 C 0.25192 0.83079 0.2164 0.0
C1550 C 0.1808 0.79446 0.22163 0.0
C1551 C 0.23975 0.84754 0.18173 0.0
H1552 H 0.15645 0.79688 0.13292 0.0
H1553 H 0.14572 0.85077 0.18059 0.0
H1554 H 0.2136 0.79988 0.15502 0.0
H1555 H 0.19604 0.77955 0.17007 0.0
H1556 H 0.18708 0.77967 0.14004 0.0
H1557 H 0.17378 0.8696 0.21257 0.0
H1558 H 0.18208 0.84764 0.22703 0.0
H1559 H 0.20292 0.86596 0.21298 0.0
H1560 H 0.22019 0.79695 0.24992 0.0
H1561 H 0.26988 0.83943 0.21489 0.0
H1562 H 0.17276 0.7831 0.20518 0.0
H1563 H 0.16984 0.80644 0.22504 0.0
H1564 H 0.18035 0.78357 0.23554 0.0
H1565 H 0.2439 0.83677 0.16717 0.0
H1566 H 0.25556 0.86212 0.18811 0.0
H1567 H 0.22535 0.85471 0.17529 0.0
C1568 C 0.51595 0.85179 0.49067 0.0
C1569 C 0.51309 0.84708 0.46654 0.0
C1570 C 0.51862 0.87459 0.50246 0.0
C1571 C 0.51805 0.89344 0.49009 0.0
C1572 C 0.5148 0.88861 0.46583 0.0
C1573 C 0.51268 0.86603 0.45462 0.0
C1574 C 0.52243 0.87859 0.52827 0.0
C1575 C 0.51368 0.90749 0.45145 0.0
C1576 C 0.50544 0.95055 0.51607 0.0
C1577 C 0.52757 0.96679 0.51913 0.0
C1578 C 0.50218 0.92674 0.5074 0.0
C1579 C 0.5215 0.91832 0.50197 0.0
C1580 C 0.54398 0.93452 0.5059 0.0
C1581 C 0.54665 0.95825 0.51406 0.0
C1582 C 0.47778 0.91068 0.50327 0.0
C1583 C 0.56538 0.92691 0.501 0.0
H1584 H 0.51646 0.83777 0.50041 0.0
H1585 H 0.5107 0.86337 0.43609 0.0
H1586 H 0.53948 0.8915 0.5346 0.0
H1587 H 0.50864 0.88586 0.53473 0.0
H1588 H 0.52226 0.86244 0.53559 0.0
H1589 H 0.5097 0.90086 0.43281 0.0
H1590 H 0.50005 0.91592 0.45628 0.0
H1591 H 0.53064 0.92101 0.4547 0.0
H1592 H 0.49044 0.95658 0.51979 0.0
H1593 H 0.56395 0.97023 0.51649 0.0
H1594 H 0.47731 0.89521 0.51184 0.0
H1595 H 0.47252 0.90451 0.48463 0.0
H1596 H 0.46475 0.91922 0.50958 0.0
H1597 H 0.566 0.91134 0.50906 0.0
H1598 H 0.58186 0.9407 0.50736 0.0
H1599 H 0.5645 0.92211 0.48226 0.0
C1600 C 0.51389 0.30153 0.66461 0.0
C1601 C 0.50772 0.29396 0.64091 0.0
C1602 C 0.49687 0.29934 0.67956 0.0
C1603 C 0.47292 0.28923 0.67078 0.0
C1604 C 0.46651 0.28179 0.64687 0.0
C1605 C 0.48389 0.28426 0.63228 0.0
C1606 C 0.50459 0.30761 0.70486 0.0
C1607 C 0.44126 0.27088 0.6367 0.0
C1608 C 0.43192 0.26309 0.71201 0.0
C1609 C 0.42082 0.28051 0.71752 0.0
C1610 C 0.44868 0.26562 0.69678 0.0
C1611 C 0.45469 0.28612 0.68667 0.0
C1612 C 0.44348 0.30372 0.69202 0.0
C1613 C 0.42676 0.30072 0.7073 0.0
C1614 C 0.46015 0.2464 0.69168 0.0
C1615 C 0.44921 0.32581 0.68164 0.0
H1616 H 0.53215 0.30907 0.67162 0.0
H1617 H 0.47876 0.27823 0.61409 0.0
H1618 H 0.49546 0.32054 0.71093 0.0
H1619 H 0.49974 0.29288 0.71459 0.0
H1620 H 0.52377 0.31555 0.70898 0.0
H1621 H 0.43902 0.26644 0.61775 0.0
H1622 H 0.43432 0.25486 0.64407 0.0
H1623 H 0.43051 0.28282 0.64112 0.0
H1624 H 0.42783 0.24753 0.71996 0.0
H1625 H 0.41814 0.31419 0.71105 0.0
H1626 H 0.47932 0.25292 0.69713 0.0
H1627 H 0.45734 0.2404 0.67295 0.0
H1628 H 0.45326 0.23135 0.7005 0.0
H1629 H 0.4681 0.33483 0.68636 0.0
H1630 H 0.4389 0.33779 0.68738 0.0
H1631 H 0.44569 0.32177 0.66267 0.0
C1632 C 0.04002 0.83902 0.68328 0.0
C1633 C 0.03029 0.81557 0.67401 0.0
C1634 C 0.04294 0.85662 0.66923 0.0
C1635 C 0.03588 0.85085 0.64521 0.0
C1636 C 0.02568 0.8273 0.6358 0.0
C1637 C 0.02308 0.81004 0.65021 0.0
C1638 C 0.05395 0.88142 0.68009 0.0
C1639 C 0.01778 0.82024 0.61037 0.0
C1640 C 0.02565 0.89768 0.60987 0.0
C1641 C 0.04628 0.90349 0.59986 0.0
C1642 C 0.02211 0.88079 0.6247 0.0
C1643 C 0.0396 0.86933 0.62986 0.0
C1644 C 0.06055 0.87528 0.62001 0.0
C1645 C 0.06361 0.89216 0.60519 0.0
C1646 C 0.99945 0.87501 0.63464 0.0
C1647 C 0.07979 0.86372 0.62508 0.0
H1648 H 0.04578 0.84367 0.70155 0.0
H1649 H 0.01551 0.7921 0.6427 0.0
H1650 H 0.07038 0.88842 0.67308 0.0
H1651 H 0.04205 0.89224 0.67586 0.0
H1652 H 0.05803 0.88319 0.69903 0.0
H1653 H 0.00953 0.80135 0.60575 0.0
H1654 H 1.00504 0.82962 0.60443 0.0
H1655 H 0.03297 0.82507 0.60095 0.0
H1656 H 0.01198 0.906 0.60575 0.0
H1657 H 0.07977 0.89666 0.59793 0.0
H1658 H 1.0031 0.87764 0.65363 0.0
H1659 H 0.99005 0.8565 0.62902 0.0
H1660 H 0.98776 0.88573 0.62938 0.0
H1661 H 0.08561 0.86636 0.64382 0.0
H1662 H 0.09517 0.87049 0.61641 0.0
H1663 H 0.07309 0.84479 0.61942 0.0
C1664 C 0.474 0.80252 0.82093 0.0
C1665 C 0.48374 0.81463 0.84296 0.0
C1666 C 0.4502 0.79989 0.81175 0.0
C1667 C 0.43516 0.80917 0.82489 0.0
C1668 C 0.44511 0.82163 0.84704 0.0
C1669 C 0.46887 0.82396 0.85575 0.0
C1670 C 0.44097 0.78655 0.78811 0.0
C1671 C 0.43041 0.83212 0.86194 0.0
C1672 C 0.37607 0.81673 0.79628 0.0
C1673 C 0.35925 0.79755 0.80122 0.0
C1674 C 0.40047 0.82063 0.80364 0.0
C1675 C 0.40894 0.80495 0.81617 0.0
C1676 C 0.39202 0.78543 0.82101 0.0
C1677 C 0.36774 0.78209 0.81369 0.0
C1678 C 0.41724 0.84167 0.79788 0.0
C1679 C 0.39957 0.76796 0.83411 0.0
H1680 H 0.48481 0.79447 0.81106 0.0
H1681 H 0.47584 0.83299 0.87292 0.0
H1682 H 0.42707 0.77071 0.78922 0.0
H1683 H 0.43295 0.79712 0.77732 0.0
H1684 H 0.4549 0.78144 0.77951 0.0
H1685 H 0.44081 0.84233 0.87817 0.0
H1686 H 0.4222 0.84356 0.85255 0.0
H1687 H 0.41607 0.8182 0.86617 0.0
H1688 H 0.37017 0.8289 0.78668 0.0
H1689 H 0.35533 0.76713 0.81778 0.0
H1690 H 0.42892 0.83611 0.78646 0.0
H1691 H 0.42831 0.85195 0.81374 0.0
H1692 H 0.40816 0.85295 0.78917 0.0
H1693 H 0.4124 0.76104 0.82536 0.0
H1694 H 0.3846 0.75326 0.83583 0.0
H1695 H 0.40841 0.77647 0.8515 0.0
C1696 C 0.48032 0.16242 0.15029 0.0
C1697 C 0.49824 0.18312 0.15266 0.0
C1698 C 0.47996 0.14279 0.13439 0.0
C1699 C 0.49883 0.14304 0.12156 0.0
C1700 C 0.51732 0.16379 0.12452 0.0
C1701 C 0.5165 0.18354 0.13948 0.0
C1702 C 0.45892 0.12206 0.13072 0.0
C1703 C 0.53814 0.16516 0.1119 0.0
C1704 C 0.50827 0.0842 0.09721 0.0
C1705 C 0.50153 0.08264 0.07346 0.0
C1706 C 0.50764 0.10362 0.11289 0.0
C1707 C 0.49933 0.12188 0.10499 0.0
C1708 C 0.4923 0.12009 0.08103 0.0
C1709 C 0.49358 0.10081 0.06577 0.0
C1710 C 0.51652 0.10493 0.13792 0.0
C1711 C 0.48254 0.13806 0.07115 0.0
H1712 H 0.46628 0.16171 0.16054 0.0
H1713 H 0.53062 0.19929 0.14134 0.0
H1714 H 0.46432 0.10614 0.13302 0.0
H1715 H 0.44612 0.12401 0.14256 0.0
H1716 H 0.45009 0.11968 0.11282 0.0
H1717 H 0.55209 0.18157 0.11764 0.0
H1718 H 0.54558 0.15041 0.11448 0.0
H1719 H 0.53255 0.16391 0.09325 0.0
H1720 H 0.51471 0.07052 0.10353 0.0
H1721 H 0.48805 0.0999 0.0476 0.0
H1722 H 0.50192 0.104 0.14816 0.0
H1723 H 0.52973 0.12173 0.14417 0.0
H1724 H 0.52456 0.09073 0.14116 0.0
H1725 H 0.49051 0.15558 0.0809 0.0
H1726 H 0.46347 0.13335 0.07183 0.0
H1727 H 0.48513 0.13856 0.05294 0.0
C1728 C 0.11919 0.30467 0.34819 0.0
C1729 C 0.107 0.31915 0.33816 0.0
C1730 C 0.13993 0.30067 0.34044 0.0
C1731 C 0.14939 0.31127 0.32197 0.0
C1732 C 0.13727 0.32601 0.31192 0.0
C1733 C 0.11659 0.32966 0.31995 0.0
C1734 C 0.1517 0.28482 0.35201 0.0
C1735 C 0.1461 0.33796 0.29237 0.0
C1736 C 0.21504 0.3178 0.31448 0.0
C1737 C 0.2142 0.29972 0.29674 0.0
C1738 C 0.1945 0.32164 0.32268 0.0
C1739 C 0.17183 0.30714 0.31329 0.0
C1740 C 0.17083 0.2889 0.29533 0.0
C1741 C 0.19169 0.28548 0.28737 0.0
C1742 C 0.19715 0.34141 0.34163 0.0
C1743 C 0.14754 0.27277 0.28446 0.0
H1744 H 0.11236 0.29614 0.36208 0.0
H1745 H 0.10775 0.34079 0.31165 0.0
H1746 H 0.15226 0.27009 0.33928 0.0
H1747 H 0.17006 0.29424 0.35912 0.0
H1748 H 0.14256 0.27789 0.3661 0.0
H1749 H 0.1351 0.34904 0.28636 0.0
H1750 H 0.16432 0.34889 0.29776 0.0
H1751 H 0.14645 0.3249 0.27776 0.0
H1752 H 0.23196 0.32911 0.32216 0.0
H1753 H 0.19029 0.27135 0.27383 0.0
H1754 H 0.18964 0.33471 0.35661 0.0
H1755 H 0.18726 0.35346 0.33581 0.0
H1756 H 0.21573 0.35126 0.34724 0.0
H1757 H 0.13849 0.26401 0.29771 0.0
H1758 H 0.14935 0.2594 0.27082 0.0
H1759 H 0.13619 0.28279 0.27691 0.0
C1760 C 0.95411 0.03337 0.19506 0.0
C1761 C 0.96892 0.03085 0.21418 0.0
C1762 C 0.96215 0.03675 0.17369 0.0
C1763 C 0.98555 0.03703 0.17072 0.0
C1764 C 1.00052 0.03429 0.18994 0.0
C1765 C 0.9922 0.03159 0.21131 0.0
C1766 C 0.9455 0.04014 0.15421 0.0
C1767 C 0.02534 0.03377 0.18783 0.0
C1768 C 0.99837 0.02216 0.10902 0.0
C1769 C 0.01016 0.04378 0.1035 0.0
C1770 C 0.99068 0.01975 0.13064 0.0
C1771 C 0.9941 0.03949 0.14747 0.0
C1772 C 1.0057 0.06145 0.1419 0.0
C1773 C 0.01383 0.06327 0.12031 0.0
C1774 C 0.9791 0.99587 0.13557 0.0
C1775 C 0.00936 0.08315 0.15874 0.0
H1776 H 0.93616 0.03303 0.19688 0.0
H1777 H 1.00391 0.02959 0.22573 0.0
H1778 H 0.9533 0.05643 0.14762 0.0
H1779 H 0.94245 0.02576 0.13986 0.0
H1780 H 0.92835 0.04085 0.15945 0.0
H1781 H 0.03476 0.0312 0.20409 0.0
H1782 H 0.02534 0.01958 0.1742 0.0
H1783 H 0.03513 0.0502 0.18273 0.0
H1784 H 0.99553 0.00683 0.09649 0.0
H1785 H 0.02281 0.0801 0.11648 0.0
H1786 H 0.96099 0.99486 0.13898 0.0
H1787 H 0.98874 0.9923 0.1512 0.0
H1788 H 0.97841 0.98214 0.12116 0.0
H1789 H 0.9923 0.08467 0.16357 0.0
H1790 H 0.0178 0.09899 0.15172 0.0
H1791 H 0.02047 0.08225 0.17465 0.0
C1792 C 0.27768 0.71644 0.48943 0.0
C1793 C 0.27317 0.69327 0.47931 0.0
C1794 C 0.27606 0.73379 0.47618 0.0
C1795 C 0.26994 0.72789 0.45219 0.0
C1796 C 0.26563 0.70466 0.44172 0.0
C1797 C 0.26721 0.68755 0.45545 0.0
C1798 C 0.28089 0.75844 0.48787 0.0
C1799 C 0.25929 0.69792 0.41608 0.0
C1800 C 0.24551 0.7694 0.42043 0.0
C1801 C 0.2653 0.78149 0.41188 0.0
C1802 C 0.24674 0.75178 0.43355 0.0
C1803 C 0.26827 0.74623 0.43813 0.0
C1804 C 0.28839 0.75864 0.42986 0.0
C1805 C 0.28663 0.77608 0.41673 0.0
C1806 C 0.22503 0.73902 0.4424 0.0
C1807 C 0.31164 0.75316 0.43437 0.0
H1808 H 0.28226 0.7211 0.50785 0.0
H1809 H 0.26369 0.66971 0.4475 0.0
H1810 H 0.29572 0.76973 0.48126 0.0
H1811 H 0.2654 0.76505 0.48397 0.0
H1812 H 0.2852 0.76007 0.50678 0.0
H1813 H 0.25648 0.67909 0.41063 0.0
H1814 H 0.24311 0.70268 0.41016 0.0
H1815 H 0.27341 0.70758 0.40736 0.0
H1816 H 0.22904 0.77362 0.41668 0.0
H1817 H 0.30183 0.78499 0.40963 0.0
H1818 H 0.22821 0.74093 0.46138 0.0
H1819 H 0.22074 0.72026 0.43584 0.0
H1820 H 0.20965 0.74543 0.43724 0.0
H1821 H 0.31587 0.75169 0.45271 0.0
H1822 H 0.32618 0.76655 0.42963 0.0
H1823 H 0.3107 0.73626 0.42423 0.0
C1824 C 0.63874 0.04126 0.69355 0.0
C1825 C 0.63039 0.03117 0.71218 0.0
C1826 C 0.62378 0.03923 0.67305 0.0
C1827 C 0.60001 0.02647 0.67105 0.0
C1828 C 0.59171 0.01545 0.68949 0.0
C1829 C 0.60697 0.0181 0.70993 0.0
C1830 C 0.63325 0.05135 0.65379 0.0
C1831 C 0.56664 0.00126 0.68777 0.0
C1832 C 0.5591 0.04236 0.62598 0.0
C1833 C 0.55915 0.02641 0.60694 0.0
C1834 C 0.57157 0.042 0.64735 0.0
C1835 C 0.58391 0.02501 0.64968 0.0
C1836 C 0.5825 0.00784 0.63087 0.0
C1837 C 0.57031 0.00888 0.60967 0.0
C1838 C 0.57282 0.06071 0.66699 0.0
C1839 C 0.59495 0.98914 0.63276 0.0
H1840 H 0.65677 0.05151 0.69526 0.0
H1841 H 0.60045 0.01021 0.72429 0.0
H1842 H 0.63071 0.03866 0.63805 0.0
H1843 H 0.62349 0.06412 0.64979 0.0
H1844 H 0.65217 0.06053 0.65807 0.0
H1845 H 0.56333 0.99264 0.70312 0.0
H1846 H 0.55473 0.01253 0.68578 0.0
H1847 H 0.56209 0.98783 0.67238 0.0
H1848 H 0.55062 0.05602 0.62384 0.0
H1849 H 0.5702 0.9964 0.59496 0.0
H1850 H 0.59093 0.07223 0.67096 0.0
H1851 H 0.5686 0.05303 0.68263 0.0
H1852 H 0.56069 0.0714 0.663 0.0
H1853 H 0.61412 0.99687 0.63444 0.0
H1854 H 0.58963 0.97546 0.61753 0.0
H1855 H 0.59138 0.98098 0.6483 0.0
C1856 C 0.29529 0.33357 0.96695 0.0
C1857 C 0.29185 0.35587 0.96941 0.0
C1858 C 0.29554 0.32141 0.94499 0.0
C1859 C 0.29238 0.33167 0.92484 0.0
C1860 C 0.28851 0.35394 0.92729 0.0
C1861 C 0.28823 0.36556 0.94921 0.0
C1862 C 0.29954 0.29766 0.94336 0.0
C1863 C 0.28495 0.3658 0.90663 0.0
C1864 C 0.31334 0.31403 0.86782 0.0
C1865 C 0.29231 0.30142 0.85398 0.0
C1866 C 0.31381 0.32305 0.89109 0.0
C1867 C 0.29279 0.31941 0.9011 0.0
C1868 C 0.27168 0.30598 0.88741 0.0
C1869 C 0.2717 0.29728 0.86425 0.0
C1870 C 0.33675 0.33731 0.90474 0.0
C1871 C 0.24876 0.3015 0.89695 0.0
H1872 H 0.29827 0.3258 0.98217 0.0
H1873 H 0.28543 0.38266 0.95046 0.0
H1874 H 0.28493 0.28499 0.93175 0.0
H1875 H 0.31581 0.29782 0.93587 0.0
H1876 H 0.30103 0.29167 0.96034 0.0
H1877 H 0.2822 0.38316 0.91131 0.0
H1878 H 0.3004 0.36784 0.89743 0.0
H1879 H 0.26956 0.35503 0.89452 0.0
H1880 H 0.3294 0.31748 0.8603 0.0
H1881 H 0.25527 0.28752 0.85403 0.0
H1882 H 0.33968 0.33095 0.92132 0.0
H1883 H 0.33619 0.35555 0.90867 0.0
H1884 H 0.35182 0.33692 0.89538 0.0
H1885 H 0.25048 0.29456 0.91338 0.0
H1886 H 0.23425 0.28911 0.88491 0.0
H1887 H 0.24397 0.31799 0.90058 0.0
C1888 C 0.95774 0.03134 0.37015 0.0
C1889 C 0.96776 0.02867 0.34986 0.0
C1890 C 0.96965 0.03118 0.39196 0.0
C1891 C 0.9926 0.02841 0.3942 0.0
C1892 C 1.00314 0.02603 0.37394 0.0
C1893 C 0.99067 0.02615 0.35211 0.0
C1894 C 0.95745 0.03386 0.41272 0.0
C1895 C 0.02757 0.02316 0.37534 0.0
C1896 C 0.02711 0.05002 0.4547 0.0
C1897 C 0.02392 0.02969 0.46492 0.0
C1898 C 0.0181 0.04968 0.43158 0.0
C1899 C 1.00531 0.02849 0.41786 0.0
C1900 C 1.00266 0.00779 0.42781 0.0
C1901 C 0.01197 0.00861 0.45104 0.0
C1902 C 0.02154 0.07228 0.4221 0.0
C1903 C 0.98912 0.98476 0.41413 0.0
H1904 H 0.94016 0.03338 0.36911 0.0
H1905 H 0.99874 0.02393 0.33681 0.0
H1906 H 0.95627 0.01864 0.42183 0.0
H1907 H 0.96772 0.04936 0.42488 0.0
H1908 H 0.93951 0.03563 0.40819 0.0
H1909 H 0.03357 0.02184 0.35828 0.0
H1910 H 0.03997 0.03805 0.38679 0.0
H1911 H 0.02825 0.00734 0.38292 0.0
H1912 H 0.03632 0.0665 0.46496 0.0
H1913 H 0.00924 0.99275 0.45851 0.0
H1914 H 1.00443 0.07621 0.41868 0.0
H1915 H 0.02854 0.07094 0.40557 0.0
H1916 H 0.03366 0.08697 0.43409 0.0
H1917 H 0.9704 0.98439 0.4104 0.0
H1918 H 0.99039 0.97004 0.42339 0.0
H1919 H 0.99561 0.9823 0.39745 0.0
C1920 C 0.28393 0.68374 0.62276 0.0
C1921 C 0.29656 0.69358 0.60615 0.0
C1922 C 0.28519 0.69662 0.64437 0.0
C1923 C 0.29966 0.71967 0.64944 0.0
C1924 C 0.31345 0.72914 0.63315 0.0
C1925 C 0.31162 0.71602 0.61165 0.0
C1926 C 0.27021 0.68596 0.66135 0.0
C1927 C 0.32946 0.75344 0.63807 0.0
C1928 C 0.28363 0.76101 0.69419 0.0
C1929 C 0.2985 0.76003 0.71375 0.0
C1930 C 0.28397 0.74809 0.67304 0.0
C1931 C 0.29978 0.73418 0.67146 0.0
C1932 C 0.31553 0.73397 0.69095 0.0
C1933 C 0.31462 0.7468 0.71187 0.0
C1934 C 0.26688 0.74869 0.65258 0.0
C1935 C 0.33293 0.71972 0.68986 0.0
H1936 H 0.27214 0.66647 0.61848 0.0
H1937 H 0.32151 0.72364 0.59885 0.0
H1938 H 0.28115 0.68711 0.67801 0.0
H1939 H 0.25716 0.69573 0.66451 0.0
H1940 H 0.26078 0.66752 0.65523 0.0
H1941 H 0.34035 0.75755 0.62427 0.0
H1942 H 0.31891 0.76606 0.63989 0.0
H1943 H 0.34121 0.75587 0.65449 0.0
H1944 H 0.27103 0.77105 0.69562 0.0
H1945 H 0.32627 0.7461 0.72694 0.0
H1946 H 0.25507 0.73109 0.64659 0.0
H1947 H 0.2764 0.7541 0.63821 0.0
H1948 H 0.25604 0.76072 0.65654 0.0
H1949 H 0.34367 0.72412 0.67603 0.0
H1950 H 0.3235 0.70107 0.68568 0.0
H1951 H 0.34481 0.72245 0.70628 0.0
C1952 C 0.66536 0.07753 0.86138 0.0
C1953 C 0.65636 0.06091 0.84182 0.0
C1954 C 0.65122 0.08105 0.87811 0.0
C1955 C 0.62772 0.06748 0.87516 0.0
C1956 C 0.61893 0.04995 0.85601 0.0
C1957 C 0.63333 0.04696 0.83952 0.0
C1958 C 0.66112 0.09991 0.89834 0.0
C1959 C 0.59405 0.03478 0.85255 0.0
C1960 C 0.5896 0.05973 0.92177 0.0
C1961 C 0.57395 0.07253 0.91555 0.0
C1962 C 0.60845 0.05925 0.90981 0.0
C1963 C 0.61167 0.072 0.89132 0.0
C1964 C 0.59709 0.08648 0.88623 0.0
C1965 C 0.57829 0.08654 0.89843 0.0
C1966 C 0.62375 0.04376 0.91586 0.0
C1967 C 0.60031 0.1006 0.86683 0.0
H1968 H 0.68316 0.08836 0.86325 0.0
H1969 H 0.6264 0.03386 0.8246 0.0
H1970 H 0.65366 0.1147 0.89614 0.0
H1971 H 0.65622 0.09372 0.91447 0.0
H1972 H 0.68049 0.10626 0.90009 0.0
H1973 H 0.59038 0.02116 0.83736 0.0
H1974 H 0.5905 0.02628 0.8679 0.0
H1975 H 0.58167 0.04554 0.85026 0.0
H1976 H 0.58661 0.04941 0.93552 0.0
H1977 H 0.56628 0.09657 0.89376 0.0
H1978 H 0.64248 0.0527 0.91607 0.0
H1979 H 0.61925 0.02815 0.90266 0.0
H1980 H 0.62136 0.03807 0.9328 0.0
H1981 H 0.61897 0.11014 0.86766 0.0
H1982 H 0.58964 0.11322 0.86709 0.0
H1983 H 0.59505 0.08887 0.85023 0.0
C1984 C 0.30823 0.36579 0.12519 0.0
C1985 C 0.29244 0.3552 0.10523 0.0
C1986 C 0.30569 0.35768 0.14657 0.0
C1987 C 0.28623 0.33907 0.14865 0.0
C1988 C 0.26989 0.32876 0.12861 0.0
C1989 C 0.27345 0.33653 0.10724 0.0
C1990 C 0.32422 0.36875 0.16688 0.0
C1991 C 0.24839 0.30957 0.12977 0.0
C1992 C 0.28845 0.30195 0.19739 0.0
C1993 C 0.27808 0.31238 0.21435 0.0
C1994 C 0.29163 0.3107 0.17644 0.0
C1995 C 0.28338 0.32995 0.17146 0.0
C1996 C 0.27247 0.34031 0.18839 0.0
C1997 C 0.27045 0.3318 0.20968 0.0
C1998 C 0.30431 0.29951 0.15977 0.0
C1999 C 0.26255 0.36024 0.18388 0.0
H2000 H 0.32303 0.38012 0.12396 0.0
H2001 H 0.26096 0.32831 0.0921 0.0
H2002 H 0.31642 0.37666 0.18075 0.0
H2003 H 0.33154 0.35536 0.17383 0.0
H2004 H 0.33877 0.38233 0.1624 0.0
H2005 H 0.23635 0.30463 0.11329 0.0
H2006 H 0.25354 0.29406 0.13423 0.0
H2007 H 0.23877 0.315 0.14345 0.0
H2008 H 0.29478 0.28719 0.2008 0.0
H2009 H 0.26241 0.34007 0.22252 0.0
H2010 H 0.31925 0.31277 0.1555 0.0
H2011 H 0.2924 0.29178 0.14357 0.0
H2012 H 0.31103 0.28574 0.16668 0.0
H2013 H 0.27674 0.37531 0.1815 0.0
H2014 H 0.2535 0.36564 0.19808 0.0
H2015 H 0.24996 0.35531 0.16778 0.0
C2016 C 0.19863 0.92713 0.02804 0.0
C2017 C 0.20593 0.93442 0.00772 0.0
C2018 C 0.18531 0.93866 0.04068 0.0
C2019 C 0.17924 0.95789 0.03283 0.0
C2020 C 0.18488 0.96408 0.01143 0.0
C2021 C 0.19806 0.95222 0.9991 0.0
C2022 C 0.17928 0.93131 0.06325 0.0
C2023 C 0.17855 0.98439 0.00233 0.0
C2024 C 0.13644 0.98716 0.05768 0.0
C2025 C 0.15177 0.00715 0.07084 0.0
C2026 C 0.14502 0.97019 0.04611 0.0
C2027 C 0.16947 0.97327 0.04794 0.0
C2028 C 0.18491 0.99261 0.06247 0.0
C2029 C 0.17585 0.00939 0.07368 0.0
C2030 C 0.12803 0.94993 0.03063 0.0
C2031 C 0.21111 0.99639 0.06501 0.0
H2032 H 0.20444 0.91331 0.03483 0.0
H2033 H 0.20333 0.95784 0.9833 0.0
H2034 H 0.19127 0.94357 0.07748 0.0
H2035 H 0.16118 0.93173 0.06545 0.0
H2036 H 0.18103 0.91364 0.06473 0.0
H2037 H 0.18201 0.98542 0.98441 0.0
H2038 H 0.1598 0.98327 0.00299 0.0
H2039 H 0.18895 0.0007 0.01324 0.0
H2040 H 0.11777 0.98546 0.05521 0.0
H2041 H 0.18768 0.02473 0.08399 0.0
H2042 H 0.13264 0.93358 0.03289 0.0
H2043 H 0.12897 0.95243 0.0125 0.0
H2044 H 0.10969 0.9481 0.03383 0.0
H2045 H 0.21578 0.98061 0.06939 0.0
H2046 H 0.22053 0.01119 0.07843 0.0
H2047 H 0.21738 0.99986 0.04848 0.0
C2048 C 0.71348 0.63397 0.01691 0.0
C2049 C 0.71258 0.6531 0.00582 0.0
C2050 C 0.69303 0.61694 0.01882 0.0
C2051 C 0.6709 0.61923 0.00988 0.0
C2052 C 0.66991 0.63824 0.99811 0.0
C2053 C 0.69074 0.65509 0.99645 0.0
C2054 C 0.69508 0.59691 0.03117 0.0
C2055 C 0.64678 0.64108 0.98782 0.0
C2056 C 0.61733 0.56706 0.00621 0.0
C2057 C 0.60793 0.57283 0.02599 0.0
C2058 C 0.63742 0.58213 1.00037 0.0
C2059 C 0.64891 0.60318 0.01502 0.0
C2060 C 0.63966 0.6088 0.03525 0.0
C2061 C 0.61928 0.59374 0.04035 0.0
C2062 C 0.64629 0.57518 0.97861 0.0
C2063 C 0.65126 0.63084 0.05158 0.0
H2064 H 0.73025 0.63269 0.02479 0.0
H2065 H 0.68995 0.66994 0.98805 0.0
H2066 H 0.6862 0.59733 0.04665 0.0
H2067 H 0.68622 0.58032 0.01992 0.0
H2068 H 0.71359 0.5972 0.0365 0.0
H2069 H 0.64899 0.65561 0.97761 0.0
H2070 H 0.63653 0.62489 0.9766 0.0
H2071 H 0.63641 0.64435 1.00165 0.0
H2072 H 0.60857 0.55109 0.99488 0.0
H2073 H 0.61219 0.5984 0.05571 0.0
H2074 H 0.65982 0.56612 0.9828 0.0
H2075 H 0.65416 0.59045 0.97052 0.0
H2076 H 0.6321 0.56308 0.966 0.0
H2077 H 0.64194 0.63268 0.06662 0.0
H2078 H 0.65195 0.64604 0.04255 0.0
H2079 H 0.66957 0.63118 0.05784 0.0
C2080 C 0.65536 0.48052 0.27275 0.0
C2081 C 0.65509 0.48864 0.29581 0.0
C2082 C 0.66593 0.46265 0.26667 0.0
C2083 C 0.67636 0.45258 0.28405 0.0
C2084 C 0.67444 0.45954 0.30722 0.0
C2085 C 0.66398 0.47746 0.31277 0.0
C2086 C 0.66744 0.45577 0.24176 0.0
C2087 C 0.68496 0.44926 0.32638 0.0
C2088 C 0.6969 0.39783 0.27126 0.0
C2089 C 0.72116 0.40699 0.27188 0.0
C2090 C 0.68199 0.41234 0.27449 0.0
C2091 C 0.69142 0.43672 0.27851 0.0
C2092 C 0.7158 0.44607 0.27877 0.0
C2093 C 0.73028 0.43119 0.27551 0.0
C2094 C 0.65616 0.40157 0.27402 0.0
C2095 C 0.72676 0.47191 0.28309 0.0
H2096 H 0.64892 0.48929 0.25955 0.0
H2097 H 0.66392 0.48367 0.33064 0.0
H2098 H 0.68569 0.46269 0.2385 0.0
H2099 H 0.66286 0.43666 0.23737 0.0
H2100 H 0.65572 0.46257 0.23022 0.0
H2101 H 0.67971 0.45457 0.34313 0.0
H2102 H 0.67962 0.43009 0.3226 0.0
H2103 H 0.70433 0.45499 0.32795 0.0
H2104 H 0.68949 0.37922 0.26814 0.0
H2105 H 0.74895 0.4386 0.27641 0.0
H2106 H 0.64585 0.40883 0.26157 0.0
H2107 H 0.65112 0.4058 0.29111 0.0
H2108 H 0.65129 0.38245 0.26936 0.0
H2109 H 0.71778 0.48046 0.27078 0.0
H2110 H 0.74571 0.47651 0.28154 0.0
H2111 H 0.72462 0.47903 0.30057 0.0
C2112 C 0.84575 0.46796 0.50327 0.0
C2113 C 0.8385 0.44619 0.48968 0.0
C2114 C 0.86888 0.48147 0.50552 0.0
C2115 C 0.8852 0.47269 0.49429 0.0
C2116 C 0.87766 0.45123 0.47954 0.0
C2117 C 0.85433 0.43802 0.47763 0.0
C2118 C 0.87616 0.50441 0.52112 0.0
C2119 C 0.89452 0.44169 0.46682 0.0
C2120 C 0.9456 0.51325 0.49559 0.0
C2121 C 0.95834 0.50695 0.51388 0.0
C2122 C 0.92184 0.50192 0.48858 0.0
C2123 C 0.91052 0.48435 0.50057 0.0
C2124 C 0.92325 0.47818 0.51928 0.0
C2125 C 0.94706 0.48945 0.5256 0.0
C2126 C 0.90895 0.50906 0.46859 0.0
C2127 C 0.91171 0.45971 0.5327 0.0
H2128 H 0.83358 0.47394 0.51309 0.0
H2129 H 0.84862 0.42105 0.46731 0.0
H2130 H 0.88828 0.50338 0.53628 0.0
H2131 H 0.88566 0.5182 0.5121 0.0
H2132 H 0.86096 0.50949 0.52718 0.0
H2133 H 0.88538 0.42632 0.45393 0.0
H2134 H 0.90496 0.45514 0.45801 0.0
H2135 H 0.90692 0.4366 0.47918 0.0
H2136 H 0.9543 0.52668 0.48638 0.0
H2137 H 0.95683 0.4846 0.53981 0.0
H2138 H 0.89919 0.52114 0.47523 0.0
H2139 H 0.89619 0.49392 0.45784 0.0
H2140 H 0.92115 0.5181 0.45762 0.0
H2141 H 0.89708 0.46456 0.5402 0.0
H2142 H 0.92412 0.45699 0.54678 0.0
H2143 H 0.90419 0.44305 0.52112 0.0
C2144 C 0.34436 0.07973 0.31869 0.0
C2145 C 0.36833 0.08719 0.317 0.0
C2146 C 0.32876 0.0916 0.31043 0.0
C2147 C 0.33747 0.11216 0.30132 0.0
C2148 C 0.36172 0.12032 0.30019 0.0
C2149 C 0.37687 0.10744 0.30766 0.0
C2150 C 0.30292 0.08198 0.31127 0.0
C2151 C 0.37162 0.14273 0.29135 0.0
C2152 C 0.29547 0.13524 0.26426 0.0
C2153 C 0.29006 0.15114 0.28046 0.0
C2154 C 0.31067 0.12211 0.27085 0.0
C2155 C 0.32117 0.12557 0.29398 0.0
C2156 C 0.31541 0.14121 0.31046 0.0
C2157 C 0.29945 0.15331 0.3036 0.0
C2158 C 0.3157 0.10475 0.25306 0.0
C2159 C 0.32651 0.1456 0.33526 0.0
H2160 H 0.33752 0.06416 0.32595 0.0
H2161 H 0.39537 0.11331 0.30641 0.0
H2162 H 0.29674 0.09399 0.32307 0.0
H2163 H 0.2928 0.08031 0.29405 0.0
H2164 H 0.29886 0.06476 0.31713 0.0
H2165 H 0.39093 0.14689 0.29203 0.0
H2166 H 0.36364 0.14175 0.27337 0.0
H2167 H 0.36721 0.15716 0.30164 0.0
H2168 H 0.28843 0.13355 0.24635 0.0
H2169 H 0.29481 0.16504 0.31636 0.0
H2170 H 0.31206 0.08747 0.25875 0.0
H2171 H 0.33447 0.10992 0.25098 0.0
H2172 H 0.30506 0.10321 0.23611 0.0
H2173 H 0.32155 0.12955 0.34307 0.0
H2174 H 0.32119 0.15944 0.34557 0.0
H2175 H 0.34587 0.15068 0.33637 0.0
C2176 C 0.35003 0.16646 0.50581 0.0
C2177 C 0.33809 0.1743 0.52284 0.0
C2178 C 0.36802 0.15595 0.5111 0.0
C2179 C 0.37423 0.15293 0.53404 0.0
C2180 C 0.36361 0.16258 0.55159 0.0
C2181 C 0.34567 0.17321 0.54579 0.0
C2182 C 0.37891 0.14627 0.49179 0.0
C2183 C 0.36975 0.15996 0.57628 0.0
C2184 C 0.39251 0.09753 0.53996 0.0
C2185 C 0.41704 0.10545 0.54431 0.0
C2186 C 0.37853 0.11287 0.5373 0.0
C2187 C 0.38917 0.13694 0.53893 0.0
C2188 C 0.41391 0.14519 0.5437 0.0
C2189 C 0.42751 0.12939 0.54626 0.0
C2190 C 0.35226 0.10317 0.53211 0.0
C2191 C 0.42604 0.17065 0.54567 0.0
H2192 H 0.3442 0.16717 0.48802 0.0
H2193 H 0.33631 0.17887 0.559 0.0
H2194 H 0.39822 0.15084 0.49621 0.0
H2195 H 0.37244 0.1271 0.48892 0.0
H2196 H 0.37457 0.1527 0.47551 0.0
H2197 H 0.36308 0.17155 0.58815 0.0
H2198 H 0.36193 0.14181 0.57873 0.0
H2199 H 0.38898 0.16373 0.58097 0.0
H2200 H 0.38414 0.07912 0.53803 0.0
H2201 H 0.4464 0.13584 0.54989 0.0
H2202 H 0.34593 0.10653 0.51489 0.0
H2203 H 0.34366 0.1119 0.54471 0.0
H2204 H 0.34661 0.08423 0.5325 0.0
H2205 H 0.42346 0.1765 0.52876 0.0
H2206 H 0.44513 0.17455 0.5515 0.0
H2207 H 0.41832 0.18087 0.55783 0.0
C2208 C 0.67142 0.63097 0.31908 0.0
C2209 C 0.67406 0.60956 0.30972 0.0
C2210 C 0.68797 0.65189 0.31737 0.0
C2211 C 0.70737 0.65147 0.30556 0.0
C2212 C 0.71033 0.62979 0.29662 0.0
C2213 C 0.69358 0.60923 0.2986 0.0
C2214 C 0.6844 0.67451 0.32769 0.0
C2215 C 0.73078 0.62832 0.2842 0.0
C2216 C 0.73184 0.70317 0.27543 0.0
C2217 C 0.75273 0.71497 0.28987 0.0
C2218 C 0.71717 0.68258 0.28034 0.0
C2219 C 0.72314 0.67355 0.30047 0.0
C2220 C 0.7442 0.68546 0.31517 0.0
C2221 C 0.75889 0.70577 0.30953 0.0
C2222 C 0.69514 0.67054 0.26393 0.0
C2223 C 0.75151 0.67683 0.33682 0.0
H2224 H 0.65626 0.63135 0.3275 0.0
H2225 H 0.69539 0.5928 0.29073 0.0
H2226 H 0.70059 0.68506 0.33887 0.0
H2227 H 0.68074 0.68454 0.31386 0.0
H2228 H 0.66967 0.67193 0.33793 0.0
H2229 H 0.73099 0.61016 0.27882 0.0
H2230 H 0.73011 0.63703 0.26876 0.0
H2231 H 0.74742 0.63747 0.29544 0.0
H2232 H 0.72687 0.71009 0.26017 0.0
H2233 H 0.77485 0.71483 0.32092 0.0
H2234 H 0.67962 0.66941 0.27291 0.0
H2235 H 0.69536 0.65258 0.25766 0.0
H2236 H 0.69307 0.67964 0.24892 0.0
H2237 H 0.7637 0.69094 0.34939 0.0
H2238 H 0.76079 0.66354 0.33245 0.0
H2239 H 0.73618 0.66892 0.34504 0.0
C2240 C 0.86353 0.48239 0.81251 0.0
C2241 C 0.88531 0.48975 0.82637 0.0
C2242 C 0.85118 0.45899 0.8081 0.0
C2243 C 0.86107 0.44262 0.8176 0.0
C2244 C 0.88254 0.45012 0.83259 0.0
C2245 C 0.89467 0.47369 0.83652 0.0
C2246 C 0.82811 0.45172 0.79239 0.0
C2247 C 0.89297 0.43317 0.84387 0.0
C2248 C 0.81975 0.38295 0.81409 0.0
C2249 C 0.82583 0.37092 0.79513 0.0
C2250 C 0.83176 0.40602 0.82226 0.0
C2251 C 0.84963 0.41759 0.81059 0.0
C2252 C 0.85583 0.40551 0.79135 0.0
C2253 C 0.84407 0.3821 0.78407 0.0
C2254 C 0.82467 0.41793 0.84298 0.0
C2255 C 0.87452 0.41743 0.77819 0.0
H2256 H 0.85666 0.49482 0.80417 0.0
H2257 H 0.91165 0.47952 0.84709 0.0
H2258 H 0.82947 0.44019 0.77693 0.0
H2259 H 0.81423 0.4418 0.80117 0.0
H2260 H 0.82264 0.46675 0.78686 0.0
H2261 H 0.90872 0.442 0.85654 0.0
H2262 H 0.8798 0.42222 0.85269 0.0
H2263 H 0.89794 0.42149 0.83067 0.0
H2264 H 0.80585 0.37417 0.82291 0.0
H2265 H 0.84877 0.3727 0.76945 0.0
H2266 H 0.83959 0.43152 0.85317 0.0
H2267 H 0.81726 0.40537 0.85432 0.0
H2268 H 0.81087 0.4261 0.83712 0.0
H2269 H 0.87727 0.40554 0.76366 0.0
H2270 H 0.89134 0.42463 0.78977 0.0
H2271 H 0.86957 0.43214 0.77135 0.0
C2272 C 0.04607 0.87365 0.08524 0.0
C2273 C 0.06796 0.86904 0.09047 0.0
C2274 C 0.04383 0.89527 0.07922 0.0
C2275 C 0.06386 0.91325 0.07702 0.0
C2276 C 0.08614 0.90882 0.0825 0.0
C2277 C 0.08788 0.8872 0.08934 0.0
C2278 C 0.01971 0.89895 0.0756 0.0
C2279 C 0.10864 0.92645 0.08092 0.0
C2280 C 0.05013 0.95846 0.03882 0.0
C2281 C 0.05263 0.97853 0.05467 0.0
C2282 C 0.05483 0.93789 0.04561 0.0
C2283 C 0.06108 0.93624 0.06916 0.0
C2284 C 0.06373 0.95654 0.08518 0.0
C2285 C 0.05998 0.97721 0.07781 0.0
C2286 C 0.05358 0.91796 0.02732 0.0
C2287 C 0.07039 0.95641 0.11038 0.0
H2288 H 0.03036 0.8602 0.08614 0.0
H2289 H 0.105 0.88432 0.09304 0.0
H2290 H 0.01962 0.91566 0.08553 0.0
H2291 H 0.01464 0.89978 0.05726 0.0
H2292 H 1.00626 0.88484 0.08086 0.0
H2293 H 0.11993 0.93069 0.09782 0.0
H2294 H 0.11826 0.91879 0.06856 0.0
H2295 H 0.10609 0.94271 0.07554 0.0
H2296 H 0.04494 0.95896 0.02086 0.0
H2297 H 0.06218 0.99231 0.09046 0.0
H2298 H 0.03808 0.90346 0.02801 0.0
H2299 H 0.06932 0.9115 0.03029 0.0
H2300 H 0.05229 0.92292 0.00987 0.0
H2301 H 0.0583 0.94157 0.1161 0.0
H2302 H 0.07002 0.97267 0.12098 0.0
H2303 H 0.0883 0.95419 0.11345 0.0
C2304 C 0.92602 0.28215 0.92017 0.0
C2305 C 0.94447 0.27554 0.91087 0.0
C2306 C 0.90536 0.28283 0.90616 0.0
C2307 C 0.90309 0.27779 0.88178 0.0
C2308 C 0.92115 0.26968 0.87255 0.0
C2309 C 0.94099 0.26807 0.88715 0.0
C2310 C 0.88612 0.28899 0.91791 0.0
C2311 C 0.9197 0.2625 0.84713 0.0
C2312 C 0.84851 0.2659 0.83526 0.0
C2313 C 0.84654 0.28821 0.8328 0.0
C2314 C 0.86547 0.26215 0.85207 0.0
C2315 C 0.88243 0.28125 0.86597 0.0
C2316 C 0.87971 0.30383 0.86392 0.0
C2317 C 0.86182 0.30686 0.84778 0.0
C2318 C 0.86377 0.23741 0.85538 0.0
C2319 C 0.89498 0.3254 0.8788 0.0
H2320 H 0.9277 0.2869 0.93857 0.0
H2321 H 0.95405 0.26107 0.87988 0.0
H2322 H 0.89064 0.30802 0.92298 0.0
H2323 H 0.86888 0.28322 0.90685 0.0
H2324 H 0.88453 0.28108 0.93388 0.0
H2325 H 0.91381 0.27505 0.83728 0.0
H2326 H 0.90699 0.24533 0.84184 0.0
H2327 H 0.93665 0.2607 0.84237 0.0
H2328 H 0.83616 0.25115 0.82455 0.0
H2329 H 0.86014 0.32417 0.84658 0.0
H2330 H 0.87661 0.23569 0.86957 0.0
H2331 H 0.86598 0.22751 0.83921 0.0
H2332 H 0.84594 0.22917 0.85907 0.0
H2333 H 0.88434 0.33226 0.89064 0.0
H2334 H 0.90121 0.33901 0.8681 0.0
H2335 H 0.91017 0.32253 0.88913 0.0
C2336 C 0.55335 0.22074 0.6089 0.0
C2337 C 0.56156 0.23811 0.59549 0.0
C2338 C 0.55158 0.19699 0.60172 0.0
C2339 C 0.55838 0.18972 0.58045 0.0
C2340 C 0.56654 0.20718 0.5667 0.0
C2341 C 0.56834 0.23093 0.57444 0.0
C2342 C 0.54267 0.17959 0.61722 0.0
C2343 C 0.57375 0.2008 0.54381 0.0
C2344 C 0.57383 0.13043 0.57221 0.0
C2345 C 0.55297 0.11505 0.56023 0.0
C2346 C 0.57594 0.15451 0.57857 0.0
C2347 C 0.55687 0.16403 0.57284 0.0
C2348 C 0.53594 0.14854 0.56052 0.0
C2349 C 0.53428 0.12468 0.55447 0.0
C2350 C 0.59862 0.16979 0.59183 0.0
C2351 C 0.51509 0.15717 0.55344 0.0
H2352 H 0.54849 0.22583 0.62539 0.0
H2353 H 0.57566 0.244 0.56422 0.0
H2354 H 0.55615 0.17058 0.6219 0.0
H2355 H 0.53807 0.18774 0.63319 0.0
H2356 H 0.52693 0.16624 0.60808 0.0
H2357 H 0.57919 0.21603 0.53481 0.0
H2358 H 0.58848 0.19282 0.54617 0.0
H2359 H 0.55901 0.18775 0.53274 0.0
H2360 H 0.58851 0.12362 0.57694 0.0
H2361 H 0.51803 0.11346 0.54508 0.0
H2362 H 0.59543 0.17733 0.60875 0.0
H2363 H 0.60566 0.18441 0.58256 0.0
H2364 H 0.61204 0.16021 0.59464 0.0
H2365 H 0.51075 0.16731 0.56833 0.0
H2366 H 0.49936 0.14289 0.54594 0.0
H2367 H 0.5195 0.16879 0.54045 0.0
C2368 C 0.5755 0.76253 0.4166 0.0
C2369 C 0.57173 0.78356 0.42565 0.0
C2370 C 0.5942 0.76206 0.40398 0.0
C2371 C 0.60965 0.78313 0.40044 0.0
C2372 C 0.60708 0.80429 0.41136 0.0
C2373 C 0.5881 0.80424 0.42357 0.0
C2374 C 0.59607 0.73906 0.39269 0.0
C2375 C 0.62316 0.8272 0.40848 0.0
C2376 C 0.66548 0.78431 0.37327 0.0
C2377 C 0.65847 0.78641 0.35034 0.0
C2378 C 0.64983 0.78286 0.38966 0.0
C2379 C 0.62642 0.78334 0.38313 0.0
C2380 C 0.61913 0.78506 0.35999 0.0
C2381 C 0.63516 0.7867 0.34404 0.0
C2382 C 0.65844 0.7811 0.41406 0.0
C2383 C 0.59438 0.7856 0.35209 0.0
H2384 H 0.56256 0.7465 0.41749 0.0
H2385 H 0.58502 0.82057 0.43007 0.0
H2386 H 0.58968 0.73684 0.37409 0.0
H2387 H 0.61454 0.73834 0.39454 0.0
H2388 H 0.58549 0.72437 0.39999 0.0
H2389 H 0.62102 0.84174 0.42057 0.0
H2390 H 0.64169 0.82673 0.41119 0.0
H2391 H 0.61929 0.83071 0.39074 0.0
H2392 H 0.68323 0.78367 0.37847 0.0
H2393 H 0.62943 0.78874 0.32664 0.0
H2394 H 0.64737 0.7654 0.4194 0.0
H2395 H 0.65697 0.79624 0.42569 0.0
H2396 H 0.67694 0.78035 0.41637 0.0
H2397 H 0.58172 0.77026 0.35634 0.0
H2398 H 0.59108 0.78585 0.33335 0.0
H2399 H 0.59087 0.80119 0.36119 0.0
C2400 C 0.02615 0.23286 0.39042 0.0
C2401 C 0.0415 0.25461 0.39939 0.0
C2402 C 0.02371 0.21401 0.40297 0.0
C2403 C 0.0371 0.21686 0.42492 0.0
C2404 C 0.05325 0.23856 0.43357 0.0
C2405 C 0.05513 0.25707 0.42084 0.0
C2406 C 1.00619 0.19128 0.3931 0.0
C2407 C 0.06816 0.24249 0.45666 0.0
C2408 C 0.01598 0.17985 0.4707 0.0
C2409 C 0.02983 0.16417 0.47017 0.0
C2410 C 0.01759 0.19641 0.45558 0.0
C2411 C 0.03362 0.19772 0.43949 0.0
C2412 C 0.04741 0.18177 0.43857 0.0
C2413 C 0.04531 0.16522 0.45378 0.0
C2414 C 1.00248 0.21297 0.45728 0.0
C2415 C 0.06481 0.1825 0.42183 0.0
H2416 H 0.01544 0.23078 0.37397 0.0
H2417 H 0.06716 0.27372 0.42794 0.0
H2418 H 0.01468 0.17695 0.39314 0.0
H2419 H 0.99204 0.18763 0.40394 0.0
H2420 H 0.99822 0.19131 0.37531 0.0
H2421 H 0.08084 0.2599 0.46038 0.0
H2422 H 0.0568 0.24069 0.47033 0.0
H2423 H 0.07799 0.22923 0.45748 0.0
H2424 H 1.0042 0.17963 0.48339 0.0
H2425 H 0.05584 0.15305 0.45276 0.0
H2426 H 0.99277 0.21277 0.4402 0.0
H2427 H 0.01369 0.23086 0.46306 0.0
H2428 H 0.98969 0.20868 0.46946 0.0
H2429 H 0.05602 0.18143 0.40414 0.0
H2430 H 0.07336 0.16821 0.42236 0.0
H2431 H 0.07856 0.19922 0.42578 0.0
C2432 C 0.59145 0.25552 0.24066 0.0
C2433 C 0.58333 0.25159 0.21696 0.0
C2434 C 0.61532 0.25803 0.24936 0.0
C2435 C 0.63209 0.25693 0.2342 0.0
C2436 C 0.62398 0.2531 0.21026 0.0
C2437 C 0.59998 0.25034 0.20205 0.0
C2438 C 0.6226 0.26182 0.27494 0.0
C2439 C 0.64077 0.25209 0.19316 0.0
C2440 C 0.69798 0.28602 0.25587 0.0
C2441 C 0.70736 0.26728 0.25951 0.0
C2442 C 0.67393 0.28291 0.24781 0.0
C2443 C 0.65807 0.26042 0.24326 0.0
C2444 C 0.66732 0.24139 0.2471 0.0
C2445 C 0.69161 0.24498 0.25496 0.0
C2446 C 0.66554 0.30391 0.24392 0.0
C2447 C 0.65147 0.21708 0.24289 0.0
H2448 H 0.57904 0.25644 0.25254 0.0
H2449 H 0.59428 0.24735 0.18373 0.0
H2450 H 0.63087 0.24823 0.27982 0.0
H2451 H 0.63586 0.27873 0.28026 0.0
H2452 H 0.60759 0.26154 0.28456 0.0
H2453 H 0.63199 0.24902 0.17517 0.0
H2454 H 0.65484 0.26857 0.19589 0.0
H2455 H 0.64926 0.23806 0.19574 0.0
H2456 H 0.70957 0.30341 0.25909 0.0
H2457 H 0.69824 0.23023 0.25761 0.0
H2458 H 0.65149 0.30511 0.25441 0.0
H2459 H 0.65796 0.30224 0.22569 0.0
H2460 H 0.67983 0.32026 0.2483 0.0
H2461 H 0.6369 0.21594 0.25324 0.0
H2462 H 0.6609 0.20414 0.24725 0.0
H2463 H 0.64355 0.2125 0.22462 0.0
C2464 C 0.54081 0.88101 0.91833 0.0
C2465 C 0.55115 0.88533 0.89843 0.0
C2466 C 0.53629 0.89885 0.93337 0.0
C2467 C 0.54279 0.92214 0.92914 0.0
C2468 C 0.55389 0.9268 0.90946 0.0
C2469 C 0.55751 0.90844 0.89424 0.0
C2470 C 0.52382 0.89255 0.9535 0.0
C2471 C 0.56188 0.95125 0.90438 0.0
C2472 C 0.51148 0.96525 0.95622 0.0
C2473 C 0.52648 0.97566 0.97673 0.0
C2474 C 0.51654 0.94803 0.94072 0.0
C2475 C 0.53759 0.94133 0.94515 0.0
C2476 C 0.55313 0.95235 0.96551 0.0
C2477 C 0.54725 0.96891 0.98109 0.0
C2478 C 0.49895 0.93655 0.9198 0.0
C2479 C 0.57612 0.94664 0.97087 0.0
H2480 H 0.53529 0.86335 0.92178 0.0
H2481 H 0.56532 0.91222 0.87897 0.0
H2482 H 0.53484 0.90188 0.96974 0.0
H2483 H 0.50737 0.89797 0.95236 0.0
H2484 H 0.51949 0.87368 0.95433 0.0
H2485 H 0.57192 0.95241 0.88965 0.0
H2486 H 0.54651 0.958 0.90044 0.0
H2487 H 0.573 0.96267 0.91965 0.0
H2488 H 0.49536 0.97011 0.95253 0.0
H2489 H 0.5592 0.9769 0.99664 0.0
H2490 H 0.49314 0.91762 0.92006 0.0
H2491 H 0.50713 0.93914 0.90406 0.0
H2492 H 0.48333 0.94339 0.91877 0.0
H2493 H 0.57288 0.92836 0.97379 0.0
H2494 H 0.58715 0.95789 0.9863 0.0
H2495 H 0.58601 0.94858 0.9561 0.0
C2496 C 0.94069 0.75594 0.70897 0.0
C2497 C 0.95998 0.75702 0.7255 0.0
C2498 C 0.91892 0.75883 0.71523 0.0
C2499 C 0.91545 0.76231 0.73872 0.0
C2500 C 0.93459 0.76244 0.75534 0.0
C2501 C 0.95632 0.76031 0.74866 0.0
C2502 C 0.89974 0.75896 0.69657 0.0
C2503 C 0.93225 0.76511 0.78049 0.0
C2504 C 0.86983 0.79379 0.7595 0.0
C2505 C 0.85007 0.77567 0.76129 0.0
C2506 C 0.89051 0.7897 0.75178 0.0
C2507 C 0.89252 0.76676 0.74604 0.0
C2508 C 0.87269 0.74834 0.74804 0.0
C2509 C 0.85193 0.75294 0.75523 0.0
C2510 C 0.91031 0.8102 0.74953 0.0
C2511 C 0.87352 0.72354 0.74317 0.0
H2512 H 0.94293 0.75388 0.69105 0.0
H2513 H 0.97072 0.76134 0.76187 0.0
H2514 H 0.88351 0.74559 0.69791 0.0
H2515 H 0.89572 0.77597 0.6987 0.0
H2516 H 0.9046 0.7557 0.67919 0.0
H2517 H 0.94771 0.76291 0.79128 0.0
H2518 H 0.93013 0.78252 0.78609 0.0
H2519 H 0.91638 0.75219 0.78355 0.0
H2520 H 0.869 0.81146 0.76371 0.0
H2521 H 0.83718 0.73855 0.75645 0.0
H2522 H 0.91503 0.8085 0.73195 0.0
H2523 H 0.92604 0.81069 0.76158 0.0
H2524 H 0.9058 0.82687 0.75314 0.0
H2525 H 0.88062 0.72039 0.72694 0.0
H2526 H 0.85599 0.71116 0.74203 0.0
H2527 H 0.88542 0.71992 0.75712 0.0
C2528 C 0.12069 0.03209 0.88394 0.0
C2529 C 0.11315 0.04364 0.86651 0.0
C2530 C 0.11058 0.03069 0.90439 0.0
C2531 C 0.0926 0.04157 0.90819 0.0
C2532 C 0.08456 0.05295 0.89049 0.0
C2533 C 0.0947 0.05365 0.86986 0.0
C2534 C 0.11957 0.01788 0.92219 0.0
C2535 C 0.06575 0.06512 0.89369 0.0
C2536 C 0.05482 0.02314 0.95532 0.0
C2537 C 0.06581 0.03993 0.97446 0.0
C2538 C 0.06313 0.02355 0.93382 0.0
C2539 C 0.08284 0.0414 0.93087 0.0
C2540 C 0.09389 0.05851 0.95006 0.0
C2541 C 0.08543 0.05749 0.97147 0.0
C2542 C 0.05091 0.00463 0.91426 0.0
C2543 C 0.11475 0.07804 0.94799 0.0
H2544 H 0.13488 0.02423 0.88169 0.0
H2545 H 0.0889 0.06292 0.85681 0.0
H2546 H 0.12797 0.03013 0.93799 0.0
H2547 H 0.10482 0.00472 0.92687 0.0
H2548 H 0.13252 0.00909 0.91614 0.0
H2549 H 0.06077 0.07252 0.87822 0.0
H2550 H 0.04994 0.05294 0.89782 0.0
H2551 H 0.07198 0.07932 0.90839 0.0
H2552 H 0.03968 0.00944 0.95715 0.0
H2553 H 0.09407 0.07074 0.98585 0.0
H2554 H 0.06339 0.99511 0.90849 0.0
H2555 H 0.04471 0.01225 0.89945 0.0
H2556 H 0.03571 0.99208 0.91907 0.0
H2557 H 0.12946 0.071 0.94371 0.0
H2558 H 0.12076 0.09062 0.96402 0.0
H2559 H 0.11033 0.08738 0.93381 0.0
C2560 C 0.81566 0.41282 0.58237 0.0
C2561 C 0.79764 0.39778 0.5664 0.0
C2562 C 0.82391 0.40555 0.60254 0.0
C2563 C 0.81375 0.38282 0.60675 0.0
C2564 C 0.79493 0.36793 0.5911 0.0
C2565 C 0.78714 0.37559 0.57109 0.0
C2566 C 0.84395 0.42187 0.61892 0.0
C2567 C 0.78348 0.34364 0.59515 0.0
C2568 C 0.84656 0.3505 0.64311 0.0
C2569 C 0.83601 0.35126 0.66305 0.0
C2570 C 0.8404 0.36186 0.62506 0.0
C2571 C 0.82318 0.37406 0.62702 0.0
C2572 C 0.81329 0.37579 0.64753 0.0
C2573 C 0.81984 0.36435 0.66532 0.0
C2574 C 0.85143 0.3598 0.60346 0.0
C2575 C 0.79477 0.38851 0.65019 0.0
H2576 H 0.82386 0.42998 0.57878 0.0
H2577 H 0.77311 0.36396 0.55885 0.0
H2578 H 0.8393 0.42334 0.63653 0.0
H2579 H 0.85946 0.4149 0.61947 0.0
H2580 H 0.84888 0.43945 0.61391 0.0
H2581 H 0.76836 0.33466 0.58181 0.0
H2582 H 0.79643 0.33333 0.59526 0.0
H2583 H 0.77731 0.34402 0.61213 0.0
H2584 H 0.85921 0.34056 0.64144 0.0
H2585 H 0.81137 0.3647 0.68058 0.0
H2586 H 0.85806 0.37711 0.59833 0.0
H2587 H 0.83805 0.34913 0.58926 0.0
H2588 H 0.86611 0.35167 0.60552 0.0
H2589 H 0.80033 0.40591 0.64495 0.0
H2590 H 0.79088 0.39053 0.66809 0.0
H2591 H 0.77838 0.37882 0.63883 0.0
C2592 C 0.47385 0.07833 0.38332 0.0
C2593 C 0.4501 0.07331 0.38615 0.0
C2594 C 0.49117 0.08033 0.40191 0.0
C2595 C 0.48452 0.07755 0.42377 0.0
C2596 C 0.46108 0.07577 0.42727 0.0
C2597 C 0.44406 0.07351 0.40834 0.0
C2598 C 0.51604 0.08258 0.39757 0.0
C2599 C 0.45349 0.07362 0.45057 0.0
C2600 C 0.51064 0.04089 0.46037 0.0
C2601 C 0.52474 0.05752 0.47797 0.0
C2602 C 0.49863 0.04744 0.44186 0.0
C2603 C 0.50035 0.07121 0.44137 0.0
C2604 C 0.51557 0.08818 0.45856 0.0
C2605 C 0.52782 0.08109 0.4767 0.0
C2606 C 0.48298 0.02877 0.42358 0.0
C2607 C 0.51759 0.11363 0.45884 0.0
H2608 H 0.47882 0.07866 0.36629 0.0
H2609 H 0.42583 0.0702 0.41077 0.0
H2610 H 0.52869 0.09417 0.41179 0.0
H2611 H 0.51944 0.06529 0.39651 0.0
H2612 H 0.5193 0.08935 0.38124 0.0
H2613 H 0.43604 0.07679 0.45131 0.0
H2614 H 0.45247 0.05588 0.45446 0.0
H2615 H 0.46638 0.08596 0.4641 0.0
H2616 H 0.50831 0.02268 0.46157 0.0
H2617 H 0.53843 0.09388 0.49067 0.0
H2618 H 0.48659 0.03263 0.40629 0.0
H2619 H 0.46438 0.02816 0.42459 0.0
H2620 H 0.48533 0.01137 0.42544 0.0
H2621 H 0.5175 0.11835 0.44132 0.0
H2622 H 0.53376 0.12455 0.46985 0.0
H2623 H 0.50234 0.1177 0.46578 0.0
C2624 C 0.76666 0.70901 0.10062 0.0
C2625 C 0.77591 0.72371 0.08516 0.0
C2626 C 0.76668 0.71749 0.12386 0.0
C2627 C 0.77644 0.74138 0.13234 0.0
C2628 C 0.78578 0.75634 0.1168 0.0
C2629 C 0.78528 0.74741 0.09351 0.0
C2630 C 0.75636 0.70075 0.13945 0.0
C2631 C 0.79668 0.78181 0.12488 0.0
C2632 C 0.76129 0.7658 0.19025 0.0
C2633 C 0.78028 0.76469 0.20589 0.0
C2634 C 0.75987 0.75857 0.16636 0.0
C2635 C 0.77799 0.75029 0.15762 0.0
C2636 C 0.79744 0.74975 0.17333 0.0
C2637 C 0.79826 0.75674 0.19701 0.0
C2638 C 0.73868 0.75932 0.15048 0.0
C2639 C 0.81741 0.74147 0.16516 0.0
H2640 H 0.7592 0.69071 0.09452 0.0
H2641 H 0.79245 0.75903 0.08188 0.0
H2642 H 0.77018 0.70004 0.15322 0.0
H2643 H 0.7428 0.70677 0.14785 0.0
H2644 H 0.74834 0.68297 0.13012 0.0
H2645 H 0.80261 0.79134 0.11072 0.0
H2646 H 0.78393 0.78961 0.13279 0.0
H2647 H 0.81193 0.78422 0.13826 0.0
H2648 H 0.74726 0.77183 0.1967 0.0
H2649 H 0.81322 0.75595 0.20866 0.0
H2650 H 0.72922 0.74156 0.14196 0.0
H2651 H 0.74414 0.76974 0.13681 0.0
H2652 H 0.72641 0.76679 0.15964 0.0
H2653 H 0.81099 0.72303 0.15728 0.0
H2654 H 0.83184 0.74316 0.17928 0.0
H2655 H 0.82457 0.75148 0.15177 0.0
C2656 C 0.11778 0.05468 0.71483 0.0
C2657 C 0.1032 0.0455 0.73055 0.0
C2658 C 0.10885 0.05487 0.69179 0.0
C2659 C 0.08461 0.04543 0.68374 0.0
C2660 C 0.06976 0.03613 0.69952 0.0
C2661 C 0.07914 0.0364 0.72261 0.0
C2662 C 0.12552 0.06511 0.67594 0.0
C2663 C 0.04391 0.02559 0.69191 0.0
C2664 C 0.0593 0.0614 0.62679 0.0
C2665 C 0.06013 0.04278 0.61064 0.0
C2666 C 0.06688 0.06243 0.65054 0.0
C2667 C 0.07518 0.04425 0.65864 0.0
C2668 C 0.07533 0.02513 0.64243 0.0
C2669 C 0.06805 0.02473 0.6189 0.0
C2670 C 0.06651 0.08327 0.66695 0.0
C2671 C 0.08354 0.00509 0.64988 0.0
H2672 H 0.13635 0.06194 0.7206 0.0
H2673 H 0.06759 0.02929 0.73443 0.0
H2674 H 0.12584 0.05152 0.66182 0.0
H2675 H 0.11945 0.07873 0.66804 0.0
H2676 H 0.14364 0.07278 0.68494 0.0
H2677 H 0.03453 0.01957 0.7062 0.0
H2678 H 0.03599 0.0384 0.68458 0.0
H2679 H 0.04115 0.01065 0.67819 0.0
H2680 H 0.05332 0.07549 0.62081 0.0
H2681 H 0.06859 0.01004 0.60685 0.0
H2682 H 0.0846 0.09246 0.67516 0.0
H2683 H 0.05625 0.07775 0.68081 0.0
H2684 H 0.05888 0.09558 0.65829 0.0
H2685 H 0.10234 0.01113 0.65716 0.0
H2686 H 0.08122 0.99084 0.6355 0.0
H2687 H 0.07379 0.99809 0.66356 0.0
C2688 C 0.7467 0.38371 0.41609 0.0
C2689 C 0.75203 0.37945 0.43852 0.0
C2690 C 0.74483 0.36672 0.39725 0.0
C2691 C 0.74866 0.34516 0.40098 0.0
C2692 C 0.75145 0.33989 0.42354 0.0
C2693 C 0.75293 0.35706 0.44206 0.0
C2694 C 0.74111 0.37273 0.37338 0.0
C2695 C 0.75551 0.31709 0.42827 0.0
C2696 C 0.74351 0.29971 0.34926 0.0
C2697 C 0.76641 0.30575 0.34404 0.0
C2698 C 0.73733 0.31206 0.36808 0.0
C2699 C 0.75464 0.33046 0.38201 0.0
C2700 C 0.77805 0.33569 0.37738 0.0
C2701 C 0.78356 0.32343 0.3583 0.0
C2702 C 0.71215 0.30626 0.37226 0.0
C2703 C 0.7972 0.35482 0.39211 0.0
H2704 H 0.74552 0.40078 0.41314 0.0
H2705 H 0.75663 0.35336 0.45931 0.0
H2706 H 0.75807 0.37672 0.36658 0.0
H2707 H 0.72894 0.3579 0.36166 0.0
H2708 H 0.73403 0.38804 0.37317 0.0
H2709 H 0.75294 0.31398 0.44603 0.0
H2710 H 0.74364 0.30248 0.41608 0.0
H2711 H 0.77374 0.31717 0.426 0.0
H2712 H 0.7302 0.28623 0.33794 0.0
H2713 H 0.80128 0.328 0.3542 0.0
H2714 H 0.7042 0.31997 0.36712 0.0
H2715 H 0.71093 0.3057 0.39071 0.0
H2716 H 0.70172 0.28941 0.36228 0.0
H2717 H 0.79354 0.37177 0.39074 0.0
H2718 H 0.81472 0.3556 0.38702 0.0
H2719 H 0.79776 0.35231 0.41037 0.0
C2720 C 0.46329 0.07076 0.25505 0.0
C2721 C 0.44109 0.05627 0.25615 0.0
C2722 C 0.47484 0.06765 0.23606 0.0
C2723 C 0.46382 0.04971 0.21778 0.0
C2724 C 0.44061 0.03638 0.21792 0.0
C2725 C 0.42949 0.03979 0.23717 0.0
C2726 C 0.49948 0.08238 0.23641 0.0
C2727 C 0.4281 0.01744 0.19843 0.0
C2728 C 0.48986 0.04553 0.16239 0.0
C2729 C 0.5014 0.02828 0.1653 0.0
C2730 C 0.47771 0.05294 0.1794 0.0
C2731 C 0.47743 0.04308 0.1999 0.0
C2732 C 0.48967 0.02618 0.20321 0.0
C2733 C 0.50141 0.01889 0.18579 0.0
C2734 C 0.4649 0.07099 0.17524 0.0
C2735 C 0.48992 0.01541 0.22495 0.0
H2736 H 0.47228 0.08368 0.26959 0.0
H2737 H 0.41225 0.02867 0.23784 0.0
H2738 H 0.51191 0.07168 0.23883 0.0
H2739 H 0.50149 0.08898 0.21985 0.0
H2740 H 0.50445 0.09733 0.25043 0.0
H2741 H 0.40929 0.01054 0.19989 0.0
H2742 H 0.42956 0.02393 0.18175 0.0
H2743 H 0.43645 0.00299 0.19833 0.0
H2744 H 0.48957 0.05261 0.14641 0.0
H2745 H 0.51043 0.00566 0.18808 0.0
H2746 H 0.47409 0.08748 0.18649 0.0
H2747 H 0.44685 0.06559 0.1795 0.0
H2748 H 0.46394 0.07427 0.15717 0.0
H2749 H 0.49654 0.02909 0.24006 0.0
H2750 H 0.50101 0.00317 0.22517 0.0
H2751 H 0.47185 0.00591 0.22683 0.0
C2752 C 0.7919 0.70879 0.93247 0.0
C2753 C 0.77966 0.71596 0.94968 0.0
C2754 C 0.79421 0.7193 0.91245 0.0
C2755 C 0.7836 0.73734 0.90883 0.0
C2756 C 0.77159 0.74506 0.92634 0.0
C2757 C 0.76997 0.7345 0.94657 0.0
C2758 C 0.80764 0.71061 0.89484 0.0
C2759 C 0.75963 0.76391 0.9233 0.0
C2760 C 0.80331 0.77492 0.86218 0.0
C2761 C 0.78674 0.76389 0.84285 0.0
C2762 C 0.80245 0.76669 0.88363 0.0
C2763 C 0.78427 0.74716 0.88631 0.0
C2764 C 0.76732 0.7362 0.86693 0.0
C2765 C 0.76888 0.74446 0.8456 0.0
C2766 C 0.82129 0.77872 0.90341 0.0
C2767 C 0.74738 0.71561 0.86871 0.0
H2768 H 0.79959 0.69458 0.93456 0.0
H2769 H 0.76024 0.74008 0.95947 0.0
H2770 H 0.79558 0.70236 0.87884 0.0
H2771 H 0.82108 0.72529 0.89048 0.0
H2772 H 0.81642 0.69779 0.9009 0.0
H2773 H 0.75198 0.76882 0.93874 0.0
H2774 H 0.7722 0.7795 0.91943 0.0
H2775 H 0.74544 0.75797 0.90848 0.0
H2776 H 0.81721 0.78991 0.8605 0.0
H2777 H 0.75576 0.73581 0.83105 0.0
H2778 H 0.83084 0.76635 0.90914 0.0
H2779 H 0.81334 0.78475 0.91816 0.0
H2780 H 0.83408 0.7938 0.89882 0.0
H2781 H 0.75434 0.70095 0.87281 0.0
H2782 H 0.73482 0.70982 0.8526 0.0
H2783 H 0.7378 0.71993 0.88287 0.0
C2784 C 0.8215 0.10892 0.01067 0.0
C2785 C 0.81704 0.12 0.03112 0.0
C2786 C 0.84032 0.09918 0.01039 0.0
C2787 C 0.85511 0.10058 0.03107 0.0
C2788 C 0.85169 0.11306 0.05152 0.0
C2789 C 0.83261 0.12269 0.05132 0.0
C2790 C 0.8435 0.08619 0.98815 0.0
C2791 C 0.86733 0.11508 0.07382 0.0
C2792 C 0.88057 0.04946 0.0303 0.0
C2793 C 0.90232 0.05852 0.02336 0.0
C2794 C 0.86558 0.06346 0.03434 0.0
C2795 C 0.87257 0.08704 0.03132 0.0
C2796 C 0.89502 0.09657 0.02551 0.0
C2797 C 0.90964 0.08216 0.02157 0.0
C2798 C 0.84173 0.05269 0.04054 0.0
C2799 C 0.90313 0.12166 0.02231 0.0
H2800 H 0.80975 0.10714 0.99491 0.0
H2801 H 0.82924 0.13128 0.06715 0.0
H2802 H 0.86178 0.09232 0.9847 0.0
H2803 H 0.84006 0.06748 0.98949 0.0
H2804 H 0.83154 0.08821 0.97331 0.0
H2805 H 0.86461 0.12816 0.08724 0.0
H2806 H 0.86359 0.09809 0.08011 0.0
H2807 H 0.88601 0.1198 0.07131 0.0
H2808 H 0.87489 0.0312 0.03171 0.0
H2809 H 0.92673 0.08931 0.01677 0.0
H2810 H 0.82807 0.052 0.02603 0.0
H2811 H 0.8383 0.06338 0.05557 0.0
H2812 H 0.83995 0.03484 0.04451 0.0
H2813 H 0.89339 0.12438 0.00632 0.0
H2814 H 0.92214 0.12713 0.02112 0.0
H2815 H 0.89941 0.13302 0.03667 0.0
C2816 C 0.37734 0.41071 0.03108 0.0
C2817 C 0.3597 0.41845 0.04063 0.0
C2818 C 0.39983 0.42579 0.0315 0.0
C2819 C 0.40505 0.4492 0.042 0.0
C2820 C 0.38723 0.457 0.05174 0.0
C2821 C 0.36497 0.4415 0.0512 0.0
C2822 C 0.41802 0.41668 0.02059 0.0
C2823 C 0.39171 0.48173 0.06291 0.0
C2824 C 0.46932 0.48286 0.06218 0.0
C2825 C 0.47415 0.49687 0.045 0.0
C2826 C 0.44693 0.46752 0.06158 0.0
C2827 C 0.42912 0.46546 0.04296 0.0
C2828 C 0.4344 0.47915 0.02533 0.0
C2829 C 0.45648 0.49502 0.02686 0.0
C2830 C 0.44237 0.45343 0.08084 0.0
C2831 C 0.41677 0.47733 0.00476 0.0
H2832 H 0.37349 0.39283 0.02316 0.0
H2833 H 0.35172 0.44737 0.05937 0.0
H2834 H 0.43352 0.41866 0.03354 0.0
H2835 H 0.41126 0.39816 0.01299 0.0
H2836 H 0.42403 0.42692 0.00694 0.0
H2837 H 0.37604 0.48519 0.06954 0.0
H2838 H 0.4063 0.48582 0.0773 0.0
H2839 H 0.3971 0.49363 0.05035 0.0
H2840 H 0.483 0.48406 0.0762 0.0
H2841 H 0.46018 0.50547 0.01332 0.0
H2842 H 0.43727 0.4347 0.07397 0.0
H2843 H 0.42754 0.45708 0.08895 0.0
H2844 H 0.4579 0.45715 0.0942 0.0
H2845 H 0.40687 0.45905 0.99878 0.0
H2846 H 0.42499 0.4846 0.99032 0.0
H2847 H 0.40455 0.48737 0.00979 0.0
C2848 C 0.42526 0.60132 0.80297 0.0
C2849 C 0.42632 0.58655 0.78332 0.0
C2850 C 0.41325 0.61848 0.80176 0.0
C2851 C 0.40161 0.62074 0.78039 0.0
C2852 C 0.40442 0.60724 0.76021 0.0
C2853 C 0.4168 0.59033 0.76192 0.0
C2854 C 0.41112 0.6326 0.82372 0.0
C2855 C 0.39241 0.60899 0.73705 0.0
C2856 C 0.34422 0.63714 0.78339 0.0
C2857 C 0.35048 0.66077 0.78123 0.0
C2858 C 0.36053 0.62395 0.78258 0.0
C2859 C 0.38394 0.63454 0.77973 0.0
C2860 C 0.3904 0.65832 0.77732 0.0
C2861 C 0.37365 0.6711 0.77805 0.0
C2862 C 0.35275 0.59865 0.78523 0.0
C2863 C 0.4151 0.67032 0.77424 0.0
H2864 H 0.43218 0.59814 0.81959 0.0
H2865 H 0.41698 0.57855 0.74675 0.0
H2866 H 0.41374 0.65105 0.82162 0.0
H2867 H 0.39326 0.62619 0.82818 0.0
H2868 H 0.42396 0.63143 0.83824 0.0
H2869 H 0.39954 0.60062 0.72287 0.0
H2870 H 0.37344 0.60029 0.73562 0.0
H2871 H 0.39422 0.62734 0.73491 0.0
H2872 H 0.32659 0.62894 0.78624 0.0
H2873 H 0.37873 0.68921 0.776 0.0
H2874 H 0.3626 0.59558 0.80098 0.0
H2875 H 0.35662 0.58785 0.77052 0.0
H2876 H 0.33374 0.59274 0.78631 0.0
H2877 H 0.4274 0.66977 0.78945 0.0
H2878 H 0.41722 0.68867 0.77186 0.0
H2879 H 0.42021 0.66115 0.75918 0.0
C2880 C 0.21563 0.60582 0.53576 0.0
C2881 C 0.21828 0.62844 0.53101 0.0
C2882 C 0.19342 0.59114 0.53633 0.0
C2883 C 0.1735 0.59961 0.53279 0.0
C2884 C 0.17612 0.62253 0.52806 0.0
C2885 C 0.19855 0.63671 0.52728 0.0
C2886 C 0.19132 0.56671 0.54103 0.0
C2887 C 0.15526 0.63212 0.52402 0.0
C2888 C 0.11346 0.5582 0.514 0.0
C2889 C 0.10353 0.55857 0.53433 0.0
C2890 C 0.13628 0.57116 0.51339 0.0
C2891 C 0.14983 0.58449 0.53372 0.0
C2892 C 0.14032 0.58412 0.55462 0.0
C2893 C 0.11716 0.5711 0.55469 0.0
C2894 C 0.14567 0.57084 0.49086 0.0
C2895 C 0.15427 0.59822 0.57664 0.0
H2896 H 0.23103 0.59979 0.5396 0.0
H2897 H 0.20072 0.65437 0.52398 0.0
H2898 H 0.18327 0.56398 0.55684 0.0
H2899 H 0.17967 0.5542 0.52677 0.0
H2900 H 0.20854 0.56274 0.54309 0.0
H2901 H 0.16033 0.65036 0.52078 0.0
H2902 H 0.14286 0.62149 0.5091 0.0
H2903 H 0.14579 0.63123 0.53913 0.0
H2904 H 0.10313 0.54821 0.49826 0.0
H2905 H 0.10948 0.57149 0.57041 0.0
H2906 H 0.15181 0.58871 0.48691 0.0
H2907 H 0.13252 0.56035 0.47637 0.0
H2908 H 0.16078 0.56342 0.49224 0.0
H2909 H 0.17132 0.59413 0.57988 0.0
H2910 H 0.14485 0.59505 0.59162 0.0
H2911 H 0.15808 0.61691 0.57514 0.0
C2912 C 0.69781 0.97853 0.77273 0.0
C2913 C 0.69053 0.99116 0.79037 0.0
C2914 C 0.70767 0.96048 0.7773 0.0
C2915 C 0.70992 0.95508 0.79992 0.0
C2916 C 0.69976 0.96588 0.81694 0.0
C2917 C 0.69044 0.98411 0.81203 0.0
C2918 C 0.71803 0.94908 0.75863 0.0
C2919 C 0.70108 0.96002 0.841 0.0
C2920 C 0.73653 0.90592 0.81121 0.0
C2921 C 0.76016 0.91798 0.81825 0.0
C2922 C 0.71975 0.91768 0.80548 0.0
C2923 C 0.72682 0.94203 0.80682 0.0
C2924 C 0.75051 0.95433 0.81454 0.0
C2925 C 0.76683 0.94217 0.82033 0.0
C2926 C 0.69459 0.90397 0.79787 0.0
C2927 C 0.7588 0.98037 0.81612 0.0
H2928 H 0.698 0.98423 0.75606 0.0
H2929 H 0.68473 0.99402 0.82561 0.0
H2930 H 0.73738 0.95593 0.76179 0.0
H2931 H 0.7138 0.93011 0.75867 0.0
H2932 H 0.71164 0.95245 0.74141 0.0
H2933 H 0.68878 0.96674 0.85083 0.0
H2934 H 0.69708 0.94101 0.84075 0.0
H2935 H 0.7191 0.9678 0.85015 0.0
H2936 H 0.73125 0.88718 0.80929 0.0
H2937 H 0.78497 0.95159 0.82606 0.0
H2938 H 0.68653 0.91057 0.78324 0.0
H2939 H 0.6844 0.90568 0.81222 0.0
H2940 H 0.693 0.8853 0.79279 0.0
H2941 H 0.75504 0.98556 0.79907 0.0
H2942 H 0.77786 0.98723 0.82221 0.0
H2943 H 0.74923 0.98868 0.82805 0.0
C2944 C 0.7299 0.90379 0.55394 0.0
C2945 C 0.73572 0.8979 0.53221 0.0
C2946 C 0.7128 0.91593 0.55664 0.0
C2947 C 0.70143 0.92239 0.53716 0.0
C2948 C 0.70565 0.91436 0.51507 0.0
C2949 C 0.72269 0.90225 0.5129 0.0
C2950 C 0.70853 0.92367 0.58048 0.0
C2951 C 0.69404 0.92065 0.49376 0.0
C2952 C 0.65103 0.95081 0.53862 0.0
C2953 C 0.66276 0.97438 0.53983 0.0
C2954 C 0.66335 0.93373 0.53872 0.0
C2955 C 0.68803 0.94024 0.53977 0.0
C2956 C 0.7 0.96402 0.54157 0.0
C2957 C 0.6873 0.9807 0.54172 0.0
C2958 C 0.64989 0.90867 0.53703 0.0
C2959 C 0.72629 0.97185 0.54269 0.0
H2960 H 0.7402 0.9009 0.56896 0.0
H2961 H 0.72731 0.89794 0.49608 0.0
H2962 H 0.71793 0.94224 0.58573 0.0
H2963 H 0.68964 0.92186 0.58099 0.0
H2964 H 0.71488 0.91365 0.59314 0.0
H2965 H 0.69675 0.9106 0.47788 0.0
H2966 H 0.67497 0.91765 0.49408 0.0
H2967 H 0.70144 0.93934 0.49305 0.0
H2968 H 0.6321 0.94555 0.53696 0.0
H2969 H 0.6967 0.99881 0.54324 0.0
H2970 H 0.65785 0.90039 0.55035 0.0
H2971 H 0.65072 0.8992 0.52013 0.0
H2972 H 0.63121 0.90665 0.53899 0.0
H2973 H 0.73487 0.96549 0.55718 0.0
H2974 H 0.73307 0.99099 0.54482 0.0
H2975 H 0.7315 0.9644 0.52675 0.0
C2976 C 0.41074 0.44587 0.78852 0.0
C2977 C 0.40343 0.46332 0.77865 0.0
C2978 C 0.39517 0.42384 0.78818 0.0
C2979 C 0.37169 0.41886 0.77733 0.0
C2980 C 0.36427 0.43652 0.76732 0.0
C2981 C 0.38025 0.45836 0.76789 0.0
C2982 C 0.40389 0.40583 0.7994 0.0
C2983 C 0.3395 0.43224 0.75569 0.0
C2984 C 0.33846 0.35512 0.75699 0.0
C2985 C 0.32388 0.35028 0.77389 0.0
C2986 C 0.35371 0.37738 0.75764 0.0
C2987 C 0.35509 0.39511 0.77605 0.0
C2988 C 0.34068 0.38993 0.79331 0.0
C2989 C 0.32494 0.36791 0.79174 0.0
C2990 C 0.36852 0.38188 0.73872 0.0
C2991 C 0.34184 0.40756 0.81363 0.0
H2992 H 0.42872 0.44949 0.79661 0.0
H2993 H 0.37471 0.4715 0.75953 0.0
H2994 H 0.39285 0.39974 0.81255 0.0
H2995 H 0.40246 0.39058 0.78645 0.0
H2996 H 0.42237 0.41254 0.80768 0.0
H2997 H 0.33634 0.4478 0.74905 0.0
H2998 H 0.33566 0.41784 0.74123 0.0
H2999 H 0.32704 0.42694 0.76792 0.0
H3000 H 0.33786 0.34149 0.74318 0.0
H3001 H 0.31404 0.36422 0.80507 0.0
H3002 H 0.38733 0.38676 0.74593 0.0
H3003 H 0.36519 0.39662 0.73062 0.0
H3004 H 0.36495 0.36654 0.72528 0.0
H3005 H 0.33266 0.39988 0.82738 0.0
H3006 H 0.33335 0.42056 0.80782 0.0
H3007 H 0.36031 0.4163 0.82084 0.0
C3008 C 0.18608 0.63814 0.28597 0.0
C3009 C 0.19943 0.62521 0.27527 0.0
C3010 C 0.1926 0.66238 0.28823 0.0
C3011 C 0.21348 0.67376 0.28041 0.0
C3012 C 0.22667 0.66059 0.26912 0.0
C3013 C 0.21895 0.63645 0.26601 0.0
C3014 C 0.17721 0.67556 0.29907 0.0
C3015 C 0.24904 0.67188 0.26036 0.0
C3016 C 0.23696 0.73282 0.2654 0.0
C3017 C 0.25223 0.74352 0.2855 0.0
C3018 C 0.22126 0.71108 0.26459 0.0
C3019 C 0.22205 0.69934 0.28384 0.0
C3020 C 0.23527 0.71139 0.30496 0.0
C3021 C 0.2502 0.73349 0.30552 0.0
C3022 C 0.20468 0.70046 0.24276 0.0
C3023 C 0.23407 0.70148 0.32711 0.0
H3024 H 0.17039 0.62929 0.29238 0.0
H3025 H 0.22819 0.62631 0.25628 0.0
H3026 H 0.18332 0.68011 0.31775 0.0
H3027 H 0.17778 0.6918 0.29181 0.0
H3028 H 0.15874 0.66489 0.29673 0.0
H3029 H 0.25834 0.65913 0.25429 0.0
H3030 H 0.24514 0.68075 0.24571 0.0
H3031 H 0.26092 0.68508 0.27397 0.0
H3032 H 0.23745 0.74127 0.25022 0.0
H3033 H 0.26108 0.74241 0.32144 0.0
H3034 H 0.18967 0.68638 0.24561 0.0
H3035 H 0.21416 0.69339 0.22988 0.0
H3036 H 0.19781 0.7139 0.23532 0.0
H3037 H 0.22688 0.68248 0.32457 0.0
H3038 H 0.22255 0.70916 0.33715 0.0
H3039 H 0.2516 0.70633 0.33764 0.0
C3040 C 0.51013 0.69135 0.45821 0.0
C3041 C 0.50589 0.70985 0.47243 0.0
C3042 C 0.51366 0.67101 0.46666 0.0
C3043 C 0.51237 0.66804 0.49006 0.0
C3044 C 0.50765 0.68649 0.50439 0.0
C3045 C 0.5049 0.70697 0.49565 0.0
C3046 C 0.51909 0.65265 0.45039 0.0
C3047 C 0.50524 0.68452 0.52915 0.0
C3048 C 0.50022 0.60524 0.5067 0.0
C3049 C 0.52229 0.60393 0.51699 0.0
C3050 C 0.49684 0.62559 0.49807 0.0
C3051 C 0.51581 0.64584 0.49941 0.0
C3052 C 0.5381 0.64459 0.50968 0.0
C3053 C 0.541 0.6241 0.51826 0.0
C3054 C 0.47269 0.62554 0.48756 0.0
C3055 C 0.55924 0.66497 0.51133 0.0
H3056 H 0.51122 0.69296 0.44034 0.0
H3057 H 0.50161 0.72072 0.5071 0.0
H3058 H 0.53596 0.6496 0.45711 0.0
H3059 H 0.50539 0.63606 0.44906 0.0
H3060 H 0.52022 0.65748 0.43296 0.0
H3061 H 0.50119 0.69988 0.53817 0.0
H3062 H 0.49108 0.66886 0.53025 0.0
H3063 H 0.52166 0.68247 0.53822 0.0
H3064 H 0.48537 0.59024 0.50535 0.0
H3065 H 0.55827 0.62386 0.52581 0.0
H3066 H 0.47317 0.63156 0.47061 0.0
H3067 H 0.46611 0.63778 0.49868 0.0
H3068 H 0.46017 0.60817 0.48526 0.0
H3069 H 0.56171 0.66947 0.49398 0.0
H3070 H 0.57548 0.66149 0.51925 0.0
H3071 H 0.55649 0.68031 0.52166 0.0
C3072 C 0.64894 0.33169 0.67647 0.0
C3073 C 0.64176 0.31737 0.65513 0.0
C3074 C 0.66911 0.33125 0.6912 0.0
C3075 C 0.68229 0.3155 0.68505 0.0
C3076 C 0.67533 0.30127 0.66333 0.0
C3077 C 0.6555 0.30261 0.64861 0.0
C3078 C 0.67598 0.34731 0.7137 0.0
C3079 C 0.68817 0.28374 0.65605 0.0
C3080 C 0.7442 0.32267 0.71742 0.0
C3081 C 0.73963 0.30834 0.73443 0.0
C3082 C 0.72591 0.32535 0.70146 0.0
C3083 C 0.70229 0.31292 0.70189 0.0
C3084 C 0.69772 0.29806 0.71874 0.0
C3085 C 0.71622 0.29624 0.73485 0.0
C3086 C 0.73184 0.34187 0.68439 0.0
C3087 C 0.67315 0.28387 0.71971 0.0
H3088 H 0.63854 0.34312 0.68185 0.0
H3089 H 0.65003 0.29115 0.63242 0.0
H3090 H 0.67321 0.33714 0.72806 0.0
H3091 H 0.69485 0.35665 0.71591 0.0
H3092 H 0.66566 0.36022 0.71495 0.0
H3093 H 0.68139 0.27467 0.63833 0.0
H3094 H 0.70712 0.29226 0.65706 0.0
H3095 H 0.68638 0.27067 0.66793 0.0
H3096 H 0.7621 0.33224 0.71687 0.0
H3097 H 0.71233 0.28495 0.74768 0.0
H3098 H 0.72247 0.35546 0.6867 0.0
H3099 H 0.7259 0.33257 0.66668 0.0
H3100 H 0.75092 0.35034 0.68621 0.0
H3101 H 0.66191 0.29547 0.72355 0.0
H3102 H 0.67254 0.2722 0.73293 0.0
H3103 H 0.66552 0.27324 0.7028 0.0
C3104 C 0.00939 0.35563 0.99238 0.0
C3105 C 0.01479 0.35141 0.96999 0.0
C3106 C 0.01163 0.37863 0.00347 0.0
C3107 C 0.01945 0.39829 0.99217 0.0
C3108 C 0.02523 0.39405 0.96981 0.0
C3109 C 0.02293 0.37116 0.95928 0.0
C3110 C 1.00533 0.3819 0.0273 0.0
C3111 C 0.0337 0.41383 0.95668 0.0
C3112 C 1.00653 0.45788 0.00782 0.0
C3113 C 0.02811 0.47208 0.0196 0.0
C3114 C 1.00323 0.43393 0.99967 0.0
C3115 C 0.02182 0.42329 0.00324 0.0
C3116 C 0.04346 0.43745 0.01557 0.0
C3117 C 0.0463 0.4613 0.02344 0.0
C3118 C 0.97984 0.42009 0.98661 0.0
C3119 C 0.06402 0.42753 0.02001 0.0
H3120 H 1.00297 0.34097 1.0011 0.0
H3121 H 0.02745 0.36883 0.94213 0.0
H3122 H 0.02037 0.39386 0.039 0.0
H3123 H 0.99058 0.38998 0.02716 0.0
H3124 H 1.00022 0.3653 0.03423 0.0
H3125 H 0.03756 0.40788 0.93947 0.0
H3126 H 0.02027 0.42346 0.95449 0.0
H3127 H 0.04979 0.42616 0.96644 0.0
H3128 H 0.99219 0.46557 0.00456 0.0
H3129 H 0.06312 0.47164 0.03248 0.0
H3130 H 0.97321 0.40412 0.99417 0.0
H3131 H 0.98186 0.41466 0.96861 0.0
H3132 H 0.96659 0.43009 0.98656 0.0
H3133 H 0.0588 0.41169 0.02815 0.0
H3134 H 0.0791 0.44005 0.03123 0.0
H3135 H 0.06982 0.42241 0.00353 0.0
C3136 C 0.02038 0.80664 0.16645 0.0
C3137 C 0.01414 0.79855 0.14285 0.0
C3138 C 1.00346 0.80411 0.18156 0.0
C3139 C 0.97959 0.79312 0.17303 0.0
C3140 C 0.97315 0.78507 0.14923 0.0
C3141 C 0.99039 0.7879 0.13452 0.0
C3142 C 0.01117 0.81304 0.20674 0.0
C3143 C 0.94801 0.7732 0.13929 0.0
C3144 C 0.93853 0.76624 0.21394 0.0
C3145 C 0.92624 0.78289 0.2185 0.0
C3146 C 0.9559 0.76939 0.19936 0.0
C3147 C 0.96138 0.78974 0.18896 0.0
C3148 C 0.94914 0.80666 0.19353 0.0
C3149 C 0.9318 0.80304 0.20813 0.0
C3150 C 0.96841 0.75086 0.19505 0.0
C3151 C 0.95427 0.82859 0.18283 0.0
H3152 H 0.03858 0.81489 0.17322 0.0
H3153 H 0.98518 0.78146 0.1164 0.0
H3154 H 1.00157 0.82565 0.2125 0.0
H3155 H 0.00689 0.79855 0.21685 0.0
H3156 H 0.03026 0.82157 0.21067 0.0
H3157 H 0.94575 0.76819 0.12041 0.0
H3158 H 0.94166 0.7574 0.1472 0.0
H3159 H 0.93677 0.78477 0.14328 0.0
H3160 H 0.93479 0.75077 0.22204 0.0
H3161 H 0.92231 0.81593 0.21114 0.0
H3162 H 0.98751 0.75825 0.20038 0.0
H3163 H 0.96571 0.74425 0.17646 0.0
H3164 H 0.96224 0.73606 0.20443 0.0
H3165 H 0.97307 0.83801 0.18735 0.0
H3166 H 0.94366 0.84031 0.18846 0.0
H3167 H 0.95062 0.82426 0.16389 0.0
C3168 C 0.54234 0.3173 0.16346 0.0
C3169 C 0.51869 0.30475 0.16057 0.0
C3170 C 0.5496 0.33758 0.15326 0.0
C3171 C 0.53283 0.34554 0.13991 0.0
C3172 C 0.50884 0.33365 0.13819 0.0
C3173 C 0.50215 0.31356 0.14845 0.0
C3174 C 0.57533 0.34977 0.15578 0.0
C3175 C 0.49021 0.34136 0.12437 0.0
C3176 C 0.54486 0.40553 0.12075 0.0
C3177 C 0.5479 0.4006 0.09769 0.0
C3178 C 0.54106 0.38811 0.13502 0.0
C3179 C 0.5401 0.36501 0.12614 0.0
C3180 C 0.54389 0.36008 0.10313 0.0
C3181 C 0.54779 0.37782 0.08932 0.0
C3182 C 0.53722 0.3943 0.15939 0.0
C3183 C 0.54305 0.33581 0.0928 0.0
H3184 H 0.55531 0.31059 0.17257 0.0
H3185 H 0.48379 0.30414 0.14619 0.0
H3186 H 0.58179 0.34688 0.13915 0.0
H3187 H 0.57832 0.36871 0.16046 0.0
H3188 H 0.58579 0.34341 0.16895 0.0
H3189 H 0.47225 0.33135 0.12613 0.0
H3190 H 0.492 0.35999 0.12981 0.0
H3191 H 0.49239 0.33917 0.10599 0.0
H3192 H 0.5447 0.42291 0.12754 0.0
H3193 H 0.55066 0.37374 0.07179 0.0
H3194 H 0.54836 0.38735 0.17136 0.0
H3195 H 0.51874 0.38629 0.16127 0.0
H3196 H 0.54113 0.4133 0.16456 0.0
H3197 H 0.55516 0.32886 0.10366 0.0
H3198 H 0.54779 0.335 0.07518 0.0
H3199 H 0.52516 0.3243 0.09211 0.0
C3200 C 0.97159 0.30191 0.32104 0.0
C3201 C 0.98153 0.31399 0.34303 0.0
C3202 C 0.94782 0.29954 0.31199 0.0
C3203 C 0.93303 0.30908 0.32522 0.0
C3204 C 0.94318 0.32154 0.34732 0.0
C3205 C 0.9669 0.3236 0.35591 0.0
C3206 C 0.93835 0.28617 0.28839 0.0
C3207 C 0.92872 0.33225 0.36232 0.0
C3208 C 0.87377 0.31666 0.29709 0.0
C3209 C 0.85706 0.29759 0.30235 0.0
C3210 C 0.89821 0.32054 0.3042 0.0
C3211 C 0.90679 0.30492 0.31675 0.0
C3212 C 0.88997 0.28549 0.32184 0.0
C3213 C 0.86567 0.28216 0.31477 0.0
C3214 C 0.91492 0.34153 0.29826 0.0
C3215 C 0.89765 0.26809 0.33494 0.0
H3216 H 0.98221 0.29364 0.3111 0.0
H3217 H 0.97403 0.33261 0.37306 0.0
H3218 H 0.92443 0.27038 0.28963 0.0
H3219 H 0.9303 0.29675 0.27765 0.0
H3220 H 0.95215 0.28095 0.27966 0.0
H3221 H 0.93931 0.34258 0.37842 0.0
H3222 H 0.92042 0.34363 0.35293 0.0
H3223 H 0.91444 0.31844 0.36682 0.0
H3224 H 0.86774 0.3288 0.28754 0.0
H3225 H 0.85333 0.26719 0.31895 0.0
H3226 H 0.92699 0.33596 0.28733 0.0
H3227 H 0.92562 0.35218 0.31412 0.0
H3228 H 0.9058 0.35244 0.28901 0.0
H3229 H 0.91017 0.26091 0.32594 0.0
H3230 H 0.8827 0.25354 0.33707 0.0
H3231 H 0.90689 0.27672 0.35217 0.0
C3232 C 0.02364 0.66971 0.66205 0.0
C3233 C 0.00881 0.68333 0.65556 0.0
C3234 C 0.02582 0.65065 0.6469 0.0
C3235 C 0.01239 0.64437 0.62471 0.0
C3236 C 0.99663 0.65748 0.6185 0.0
C3237 C 0.99534 0.67687 0.63371 0.0
C3238 C 0.0433 0.63782 0.65432 0.0
C3239 C 0.98137 0.65131 0.59549 0.0
C3240 C 0.03374 0.61122 0.57544 0.0
C3241 C 0.02123 0.58806 0.57532 0.0
C3242 C 0.03132 0.62944 0.5915 0.0
C3243 C 0.01548 0.6248 0.60773 0.0
C3244 C 1.00259 0.60146 0.6075 0.0
C3245 C 1.00583 0.58349 0.59164 0.0
C3246 C 0.046 0.65375 0.59125 0.0
C3247 C 0.98507 0.59543 0.62387 0.0
H3248 H 0.03448 0.67463 0.67864 0.0
H3249 H 0.98389 0.6872 0.62834 0.0
H3250 H 0.03458 0.61907 0.65292 0.0
H3251 H 0.05691 0.63971 0.6428 0.0
H3252 H 0.052 0.64429 0.67223 0.0
H3253 H 0.96853 0.66171 0.59396 0.0
H3254 H 0.99242 0.65425 0.58167 0.0
H3255 H 0.97171 0.63268 0.59263 0.0
H3256 H 0.04586 0.61513 0.56317 0.0
H3257 H 0.99595 0.56578 0.59182 0.0
H3258 H 0.05632 0.66095 0.6084 0.0
H3259 H 0.03452 0.66507 0.58742 0.0
H3260 H 0.05823 0.6545 0.57833 0.0
H3261 H 0.99389 0.60078 0.64181 0.0
H3262 H 0.97614 0.57661 0.62141 0.0
H3263 H 0.97165 0.60506 0.62145 0.0
C3264 C 0.62436 0.81089 0.85121 0.0
C3265 C 0.6103 0.82276 0.83942 0.0
C3266 C 0.64543 0.80741 0.84365 0.0
C3267 C 0.65326 0.81563 0.82343 0.0
C3268 C 0.63922 0.82772 0.81158 0.0
C3269 C 0.61837 0.83108 0.81956 0.0
C3270 C 0.65939 0.79473 0.85742 0.0
C3271 C 0.64595 0.8368 0.78993 0.0
C3272 C 0.7186 0.82395 0.8126 0.0
C3273 C 0.71802 0.80384 0.79748 0.0
C3274 C 0.69814 0.82784 0.82116 0.0
C3275 C 0.67576 0.8115 0.8146 0.0
C3276 C 0.67504 0.7913 0.7992 0.0
C3277 C 0.69578 0.78773 0.79107 0.0
C3278 C 0.70052 0.84975 0.83729 0.0
C3279 C 0.65211 0.77322 0.79115 0.0
H3280 H 0.61883 0.80413 0.86645 0.0
H3281 H 0.60809 0.84008 0.8098 0.0
H3282 H 0.66031 0.77878 0.8467 0.0
H3283 H 0.67761 0.80571 0.86269 0.0
H3284 H 0.65172 0.78989 0.87299 0.0
H3285 H 0.63487 0.84774 0.78377 0.0
H3286 H 0.66452 0.84709 0.79272 0.0
H3287 H 0.64416 0.82204 0.77627 0.0
H3288 H 0.73524 0.83677 0.81802 0.0
H3289 H 0.69449 0.77205 0.77955 0.0
H3290 H 0.6915 0.84581 0.85234 0.0
H3291 H 0.69205 0.86132 0.82839 0.0
H3292 H 0.71908 0.85919 0.84346 0.0
H3293 H 0.64459 0.76641 0.80608 0.0
H3294 H 0.65404 0.75853 0.77916 0.0
H3295 H 0.63938 0.78114 0.78243 0.0
C3296 C 0.45432 0.52983 0.69466 0.0
C3297 C 0.46932 0.52796 0.71393 0.0
C3298 C 0.46219 0.53267 0.67316 0.0
C3299 C 0.48564 0.53311 0.67027 0.0
C3300 C 0.50081 0.53104 0.68965 0.0
C3301 C 0.49263 0.52882 0.71112 0.0
C3302 C 0.44532 0.53529 0.65346 0.0
C3303 C 0.52572 0.53079 0.68762 0.0
C3304 C 0.49817 0.51699 0.60881 0.0
C3305 C 0.50935 0.5385 0.60267 0.0
C3306 C 0.49082 0.51501 0.6306 0.0
C3307 C 0.49402 0.53507 0.64695 0.0
C3308 C 0.5051 0.5569 0.6408 0.0
C3309 C 0.51286 0.55831 0.61903 0.0
C3310 C 0.47973 0.49127 0.63619 0.0
C3311 C 0.50853 0.57889 0.65716 0.0
H3312 H 0.43634 0.52938 0.69644 0.0
H3313 H 0.50448 0.52733 0.72569 0.0
H3314 H 0.45281 0.55141 0.64645 0.0
H3315 H 0.44249 0.52064 0.63943 0.0
H3316 H 0.42811 0.53584 0.65861 0.0
H3317 H 0.53533 0.52883 0.70405 0.0
H3318 H 0.52588 0.51632 0.67437 0.0
H3319 H 0.53523 0.54706 0.68202 0.0
H3320 H 0.49545 0.50144 0.5966 0.0
H3321 H 0.52136 0.57506 0.61468 0.0
H3322 H 0.46157 0.49003 0.63954 0.0
H3323 H 0.48956 0.48832 0.65203 0.0
H3324 H 0.47929 0.47728 0.62213 0.0
H3325 H 0.49139 0.58037 0.66179 0.0
H3326 H 0.51685 0.59455 0.64979 0.0
H3327 H 0.51964 0.57844 0.67324 0.0
C3328 C 0.76996 0.20508 0.99945 0.0
C3329 C 0.76512 0.18208 0.98869 0.0
C3330 C 0.771 0.22322 0.98665 0.0
C3331 C 0.76737 0.21828 0.96251 0.0
C3332 C 0.76313 0.19525 0.95146 0.0
C3333 C 0.7619 0.17734 0.96472 0.0
C3334 C 0.77531 0.24758 0.99894 0.0
C3335 C 0.75953 0.18952 0.92565 0.0
C3336 C 0.74604 0.25837 0.92642 0.0
C3337 C 0.76672 0.26961 0.91872 0.0
C3338 C 0.74617 0.24223 0.94153 0.0
C3339 C 0.76744 0.23714 0.94877 0.0
C3340 C 0.78857 0.2494 0.94209 0.0
C3341 C 0.78799 0.26573 0.92732 0.0
C3342 C 0.72339 0.22976 0.9488 0.0
C3343 C 0.81157 0.24437 0.9495 0.0
H3344 H 0.77237 0.20895 0.01798 0.0
H3345 H 0.75822 0.15964 0.95631 0.0
H3346 H 0.79059 0.25929 0.99339 0.0
H3347 H 0.75995 0.2542 0.99443 0.0
H3348 H 0.77854 0.24856 0.01786 0.0
H3349 H 0.75745 0.17089 0.91978 0.0
H3350 H 0.74369 0.1941 0.91836 0.0
H3351 H 0.77461 0.19991 0.91862 0.0
H3352 H 0.72956 0.2612 0.91967 0.0
H3353 H 0.80407 0.27475 0.92166 0.0
H3354 H 0.72535 0.23048 0.9677 0.0
H3355 H 0.71853 0.21125 0.94117 0.0
H3356 H 0.70886 0.23724 0.94336 0.0
H3357 H 0.81476 0.24551 0.96841 0.0
H3358 H 0.8266 0.25646 0.94391 0.0
H3359 H 0.81086 0.22644 0.94211 0.0
C3360 C 0.14296 0.5424 0.18507 0.0
C3361 C 0.13605 0.53788 0.20627 0.0
C3362 C 0.12634 0.53853 0.16546 0.0
C3363 C 0.10224 0.53031 0.16723 0.0
C3364 C 0.09527 0.52442 0.18828 0.0
C3365 C 0.1123 0.52816 0.20756 0.0
C3366 C 0.13449 0.54456 0.14315 0.0
C3367 C 0.06976 0.51567 0.19083 0.0
C3368 C 0.06564 0.55375 0.12517 0.0
C3369 C 0.058 0.53512 0.1074 0.0
C3370 C 0.07858 0.55175 0.14557 0.0
C3371 C 0.08452 0.53078 0.14785 0.0
C3372 C 0.07557 0.51143 0.13043 0.0
C3373 C 0.06222 0.51382 0.11033 0.0
C3374 C 0.08739 0.57266 0.16392 0.0
C3375 C 0.08171 0.48888 0.13213 0.0
H3376 H 0.16132 0.54967 0.18395 0.0
H3377 H 0.10684 0.52455 0.2239 0.0
H3378 H 0.12603 0.53025 0.12896 0.0
H3379 H 0.12933 0.56016 0.13891 0.0
H3380 H 0.15378 0.54813 0.14397 0.0
H3381 H 0.06741 0.50886 0.20729 0.0
H3382 H 0.06135 0.53002 0.19021 0.0
H3383 H 0.06047 0.50181 0.17651 0.0
H3384 H 0.06254 0.57027 0.12258 0.0
H3385 H 0.05668 0.49963 0.09623 0.0
H3386 H 0.10657 0.57967 0.16458 0.0
H3387 H 0.08416 0.56778 0.18098 0.0
H3388 H 0.07894 0.5866 0.16068 0.0
H3389 H 0.10006 0.4909 0.129 0.0
H3390 H 0.07018 0.47454 0.11933 0.0
H3391 H 0.08044 0.48405 0.14951 0.0
C3392 C 0.79089 0.8651 0.44609 0.0
C3393 C 0.7942 0.85546 0.46636 0.0
C3394 C 0.79124 0.85332 0.42428 0.0
C3395 C 0.79487 0.83095 0.42208 0.0
C3396 C 0.7978 0.82077 0.44231 0.0
C3397 C 0.79747 0.83309 0.46413 0.0
C3398 C 0.78793 0.86506 0.40349 0.0
C3399 C 0.80152 0.79692 0.4409 0.0
C3400 C 0.77391 0.79617 0.36184 0.0
C3401 C 0.79451 0.80001 0.35157 0.0
C3402 C 0.77397 0.80512 0.38491 0.0
C3403 C 0.79516 0.81845 0.39849 0.0
C3404 C 0.81618 0.82175 0.38851 0.0
C3405 C 0.81562 0.81252 0.36531 0.0
C3406 C 0.75104 0.80107 0.39443 0.0
C3407 C 0.83921 0.83589 0.4021 0.0
H3408 H 0.78826 0.88226 0.44717 0.0
H3409 H 0.80019 0.82535 0.47944 0.0
H3410 H 0.80338 0.86678 0.39431 0.0
H3411 H 0.77247 0.85437 0.39141 0.0
H3412 H 0.78543 0.88254 0.408 0.0
H3413 H 0.80311 0.79113 0.45796 0.0
H3414 H 0.78672 0.78427 0.4295 0.0
H3415 H 0.81764 0.79675 0.43325 0.0
H3416 H 0.7574 0.78652 0.35166 0.0
H3417 H 0.83167 0.81573 0.35776 0.0
H3418 H 0.74622 0.81763 0.39732 0.0
H3419 H 0.75273 0.7948 0.41122 0.0
H3420 H 0.73656 0.78833 0.38267 0.0
H3421 H 0.83889 0.85422 0.40582 0.0
H3422 H 0.85424 0.83516 0.39279 0.0
H3423 H 0.84201 0.82968 0.41879 0.0
C3424 C 0.45824 0.53194 0.87006 0.0
C3425 C 0.46818 0.52863 0.84981 0.0
C3426 C 0.46994 0.53161 0.89191 0.0
C3427 C 0.49255 0.52802 0.89422 0.0
C3428 C 0.50302 0.52502 0.87402 0.0
C3429 C 0.49076 0.52531 0.85214 0.0
C3430 C 0.45784 0.53496 0.91263 0.0
C3431 C 0.52712 0.5213 0.87552 0.0
C3432 C 0.52714 0.54932 0.95467 0.0
C3433 C 0.52324 0.52908 0.96504 0.0
C3434 C 0.51835 0.54901 0.9315 0.0
C3435 C 0.50503 0.52794 0.91792 0.0
C3436 C 0.50167 0.50729 0.92803 0.0
C3437 C 0.5108 0.50808 0.9513 0.0
C3438 C 0.52258 0.57153 0.92183 0.0
C3439 C 0.48753 0.4844 0.9145 0.0
H3440 H 0.4409 0.53459 0.86893 0.0
H3441 H 0.49874 0.52258 0.83688 0.0
H3442 H 0.45612 0.51978 0.92187 0.0
H3443 H 0.46849 0.55037 0.92469 0.0
H3444 H 0.44014 0.53729 0.90803 0.0
H3445 H 0.53311 0.51961 0.85848 0.0
H3446 H 0.53986 0.53598 0.88693 0.0
H3447 H 0.52719 0.50541 0.8832 0.0
H3448 H 0.53676 0.56573 0.96483 0.0
H3449 H 0.50753 0.49229 0.95892 0.0
H3450 H 0.50579 0.57607 0.91837 0.0
H3451 H 0.52948 0.56974 0.90529 0.0
H3452 H 0.53508 0.58604 0.93371 0.0
H3453 H 0.46899 0.48462 0.9107 0.0
H3454 H 0.48824 0.46965 0.92388 0.0
H3455 H 0.49395 0.48151 0.89784 0.0
C3456 C 0.80196 0.19762 0.11984 0.0
C3457 C 0.78353 0.1773 0.1143 0.0
C3458 C 0.80526 0.21175 0.14097 0.0
C3459 C 0.78969 0.2054 0.1569 0.0
C3460 C 0.772 0.18411 0.15205 0.0
C3461 C 0.76916 0.17019 0.13072 0.0
C3462 C 0.82453 0.23414 0.14562 0.0
C3463 C 0.75523 0.17672 0.1688 0.0
C3464 C 0.80648 0.23616 0.21799 0.0
C3465 C 0.79339 0.25248 0.21816 0.0
C3466 C 0.80545 0.22072 0.19819 0.0
C3467 C 0.79114 0.22175 0.178 0.0
C3468 C 0.77848 0.23867 0.17779 0.0
C3469 C 0.77977 0.25389 0.19793 0.0
C3470 C 0.81933 0.20305 0.19904 0.0
C3471 C 0.76318 0.24036 0.15642 0.0
H3472 H 0.81321 0.20306 0.10719 0.0
H3473 H 0.75482 0.15456 0.12638 0.0
H3474 H 0.81674 0.24899 0.14607 0.0
H3475 H 0.83508 0.23575 0.16259 0.0
H3476 H 0.83639 0.23549 0.13235 0.0
H3477 H 0.74387 0.15881 0.16337 0.0
H3478 H 0.76498 0.17774 0.18606 0.0
H3479 H 0.74392 0.18866 0.17036 0.0
H3480 H 0.81722 0.23506 0.23352 0.0
H3481 H 0.76953 0.26635 0.198 0.0
H3482 H 0.8315 0.20508 0.18608 0.0
H3483 H 0.80735 0.18533 0.19474 0.0
H3484 H 0.82964 0.20459 0.21617 0.0
H3485 H 0.77376 0.24328 0.14223 0.0
H3486 H 0.75466 0.25461 0.15905 0.0
H3487 H 0.74938 0.22383 0.15093 0.0
C3488 C 0.19203 0.5626 0.35605 0.0
C3489 C 0.17831 0.56134 0.33494 0.0
C3490 C 0.18222 0.56316 0.37655 0.0
C3491 C 0.15847 0.56327 0.37577 0.0
C3492 C 0.14463 0.56194 0.35449 0.0
C3493 C 0.15463 0.56065 0.33439 0.0
C3494 C 0.19736 0.56407 0.3989 0.0
C3495 C 0.11926 0.56234 0.35289 0.0
C3496 C 0.11573 0.54532 0.41608 0.0
C3497 C 0.11306 0.56684 0.42531 0.0
C3498 C 0.13308 0.54395 0.40235 0.0
C3499 C 0.14734 0.56452 0.3968 0.0
C3500 C 0.14631 0.58625 0.40771 0.0
C3501 C 0.12938 0.58713 0.42216 0.0
C3502 C 0.13446 0.52044 0.39188 0.0
C3503 C 0.16152 0.60857 0.40239 0.0
H3504 H 0.21039 0.56325 0.35657 0.0
H3505 H 0.14396 0.56002 0.31822 0.0
H3506 H 0.20363 0.58222 0.40763 0.0
H3507 H 0.18741 0.5536 0.41058 0.0
H3508 H 0.21293 0.55779 0.3961 0.0
H3509 H 0.11137 0.56238 0.33507 0.0
H3510 H 0.10885 0.54697 0.35927 0.0
H3511 H 0.11773 0.57795 0.36377 0.0
H3512 H 0.10341 0.52939 0.41825 0.0
H3513 H 0.12825 0.60381 0.43009 0.0
H3514 H 0.15294 0.52028 0.3913 0.0
H3515 H 0.12527 0.51632 0.37402 0.0
H3516 H 0.12614 0.50662 0.40157 0.0
H3517 H 0.18003 0.60806 0.40368 0.0
H3518 H 0.16042 0.62386 0.4141 0.0
H3519 H 0.15592 0.61079 0.38453 0.0
C3520 C 0.79385 0.83153 0.60432 0.0
C3521 C 0.79412 0.85444 0.60167 0.0
C3522 C 0.7917 0.82337 0.6257 0.0
C3523 C 0.78905 0.83816 0.64509 0.0
C3524 C 0.78885 0.86118 0.64235 0.0
C3525 C 0.79169 0.86907 0.62095 0.0
C3526 C 0.79268 0.79894 0.62763 0.0
C3527 C 0.78554 0.87757 0.66209 0.0
C3528 C 0.76374 0.81037 0.69582 0.0
C3529 C 0.78372 0.81429 0.71223 0.0
C3530 C 0.76513 0.8182 0.6742 0.0
C3531 C 0.78712 0.82979 0.66827 0.0
C3532 C 0.80736 0.83345 0.68468 0.0
C3533 C 0.80539 0.826 0.70634 0.0
C3534 C 0.74293 0.81427 0.65774 0.0
C3535 C 0.83129 0.84512 0.67927 0.0
H3536 H 0.7958 0.82001 0.58972 0.0
H3537 H 0.79168 0.88674 0.61923 0.0
H3538 H 0.80734 0.79918 0.64093 0.0
H3539 H 0.77632 0.78908 0.63311 0.0
H3540 H 0.79509 0.78963 0.6112 0.0
H3541 H 0.78449 0.89446 0.65702 0.0
H3542 H 0.76928 0.8697 0.669 0.0
H3543 H 0.80029 0.88076 0.67617 0.0
H3544 H 0.74687 0.80147 0.70002 0.0
H3545 H 0.82106 0.82904 0.71862 0.0
H3546 H 0.74382 0.80345 0.64164 0.0
H3547 H 0.74099 0.83107 0.65319 0.0
H3548 H 0.72714 0.80563 0.66498 0.0
H3549 H 0.83474 0.83564 0.66344 0.0
H3550 H 0.84543 0.84596 0.6934 0.0
H3551 H 0.83202 0.86298 0.67601 0.0
C3552 C 0.72945 0.44651 0.54172 0.0
C3553 C 0.72843 0.44591 0.51791 0.0
C3554 C 0.71717 0.45933 0.55424 0.0
C3555 C 0.70332 0.47143 0.54258 0.0
C3556 C 0.70083 0.46941 0.51838 0.0
C3557 C 0.71365 0.45688 0.50634 0.0
C3558 C 0.71973 0.46072 0.57998 0.0
C3559 C 0.68531 0.48124 0.5053 0.0
C3560 C 0.65689 0.49414 0.56828 0.0
C3561 C 0.66748 0.51809 0.57208 0.0
C3562 C 0.66893 0.47846 0.56021 0.0
C3563 C 0.69202 0.48697 0.55553 0.0
C3564 C 0.70345 0.51091 0.56098 0.0
C3565 C 0.69104 0.5262 0.56924 0.0
C3566 C 0.65613 0.45303 0.55532 0.0
C3567 C 0.72836 0.52052 0.55687 0.0
H3568 H 0.741 0.43818 0.55077 0.0
H3569 H 0.71273 0.45631 0.48792 0.0
H3570 H 0.72801 0.47888 0.5881 0.0
H3571 H 0.70223 0.45537 0.58555 0.0
H3572 H 0.7305 0.4496 0.58638 0.0
H3573 H 0.68418 0.47678 0.48645 0.0
H3574 H 0.6674 0.47627 0.51001 0.0
H3575 H 0.69219 0.50029 0.50996 0.0
H3576 H 0.63869 0.48765 0.57033 0.0
H3577 H 0.69954 0.54462 0.57269 0.0
H3578 H 0.6679 0.44162 0.55335 0.0
H3579 H 0.64363 0.44973 0.53927 0.0
H3580 H 0.64597 0.44807 0.56941 0.0
H3581 H 0.73975 0.51045 0.56424 0.0
H3582 H 0.73556 0.53903 0.5644 0.0
H3583 H 0.72908 0.51894 0.53816 0.0
C3584 C 0.2159 0.13333 0.51936 0.0
C3585 C 0.21539 0.15249 0.50819 0.0
C3586 C 0.19525 0.11639 0.52095 0.0
C3587 C 0.17331 0.11881 0.51158 0.0
C3588 C 0.17273 0.13784 0.49972 0.0
C3589 C 0.19374 0.15459 0.4984 0.0
C3590 C 0.19688 0.09633 0.53343 0.0
C3591 C 0.14983 0.14078 0.48892 0.0
C3592 C 0.1192 0.06696 0.50706 0.0
C3593 C 0.10938 0.07288 0.52652 0.0
C3594 C 0.13964 0.08185 0.50162 0.0
C3595 C 0.15104 0.10288 0.51635 0.0
C3596 C 0.14136 0.10864 0.53627 0.0
C3597 C 0.12066 0.09376 0.54096 0.0
C3598 C 0.14897 0.07473 0.4802 0.0
C3599 C 0.15285 0.13064 0.55269 0.0
H3600 H 0.23251 0.13194 0.52755 0.0
H3601 H 0.19324 0.16946 0.48991 0.0
H3602 H 0.18777 0.0969 0.54874 0.0
H3603 H 0.18802 0.07977 0.52215 0.0
H3604 H 0.21529 0.09647 0.53903 0.0
H3605 H 0.15238 0.15531 0.4787 0.0
H3606 H 0.13969 0.12461 0.47761 0.0
H3607 H 0.13917 0.14413 0.50248 0.0
H3608 H 0.11054 0.051 0.49567 0.0
H3609 H 0.11326 0.09853 0.55609 0.0
H3610 H 0.16215 0.06537 0.48478 0.0
H3611 H 0.15739 0.08992 0.47228 0.0
H3612 H 0.13492 0.06282 0.46732 0.0
H3613 H 0.17102 0.13085 0.5593 0.0
H3614 H 0.14323 0.13257 0.56749 0.0
H3615 H 0.15388 0.14586 0.54362 0.0
C3616 C 0.16579 0.97831 0.81375 0.0
C3617 C 0.15504 0.98812 0.79673 0.0
C3618 C 0.1759 0.96016 0.80817 0.0
C3619 C 0.17526 0.95132 0.7849 0.0
C3620 C 0.16267 0.95977 0.76767 0.0
C3621 C 0.15273 0.97812 0.77377 0.0
C3622 C 0.18895 0.9518 0.82722 0.0
C3623 C 0.1611 0.95056 0.74267 0.0
C3624 C 0.22883 0.9308 0.77318 0.0
C3625 C 0.22104 0.90679 0.77323 0.0
C3626 C 0.21389 0.94523 0.77613 0.0
C3627 C 0.19025 0.93556 0.77885 0.0
C3628 C 0.1819 0.91125 0.77788 0.0
C3629 C 0.19737 0.89722 0.77528 0.0
C3630 C 0.2237 0.97103 0.77711 0.0
C3631 C 0.15681 0.90007 0.78038 0.0
H3632 H 0.16757 0.98583 0.83156 0.0
H3633 H 0.14467 0.98568 0.76048 0.0
H3634 H 0.18371 0.93262 0.82522 0.0
H3635 H 0.20802 0.95741 0.82638 0.0
H3636 H 0.18584 0.95868 0.84443 0.0
H3637 H 0.14755 0.95582 0.73183 0.0
H3638 H 0.17823 0.95733 0.73681 0.0
H3639 H 0.15705 0.9314 0.74003 0.0
H3640 H 0.2468 0.93847 0.77098 0.0
H3641 H 0.19099 0.87879 0.77552 0.0
H3642 H 0.22298 0.98 0.79431 0.0
H3643 H 0.21298 0.97761 0.7644 0.0
H3644 H 0.24213 0.97577 0.77369 0.0
H3645 H 0.15405 0.90413 0.7984 0.0
H3646 H 0.15208 0.88095 0.77569 0.0
H3647 H 0.14472 0.90703 0.76949 0.0
C3648 C 0.33434 0.92137 0.97502 0.0
C3649 C 0.3189 0.93103 0.98629 0.0
C3650 C 0.35823 0.93306 0.97757 0.0
C3651 C 0.36679 0.95449 0.99226 0.0
C3652 C 0.35101 0.96467 0.00295 0.0
C3653 C 0.32726 0.9527 0.99997 0.0
C3654 C 0.37441 0.92229 0.96503 0.0
C3655 C 0.35933 0.98775 0.01828 0.0
C3656 C 0.4295 0.97249 0.02233 0.0
C3657 C 0.43971 0.99041 0.0106 0.0
C3658 C 0.40579 0.9603 0.01621 0.0
C3659 C 0.39234 0.96579 0.99753 0.0
C3660 C 0.40303 0.98311 0.98496 0.0
C3661 C 0.42646 0.99548 0.99192 0.0
C3662 C 0.39494 0.94212 0.03022 0.0
C3663 C 0.38978 0.98952 0.96476 0.0
H3664 H 0.32778 0.90449 0.9646 0.0
H3665 H 0.31537 0.95983 0.0092 0.0
H3666 H 0.38461 0.93491 0.95521 0.0
H3667 H 0.38711 0.91777 0.97754 0.0
H3668 H 0.36477 0.9064 0.95302 0.0
H3669 H 0.3447 0.99342 0.02498 0.0
H3670 H 0.37198 0.9867 0.03299 0.0
H3671 H 0.36856 0.00116 0.00867 0.0
H3672 H 0.43981 0.96856 0.03676 0.0
H3673 H 0.43444 0.00914 0.98257 0.0
H3674 H 0.38674 0.9254 0.01896 0.0
H3675 H 0.38089 0.94736 0.03848 0.0
H3676 H 0.40793 0.93943 0.04377 0.0
H3677 H 0.40153 0.99563 0.95214 0.0
H3678 H 0.38271 0.00401 0.97099 0.0
H3679 H 0.37508 0.97487 0.95589 0.0
C3680 C 0.88873 0.61045 0.79044 0.0
C3681 C 0.88232 0.60266 0.81085 0.0
C3682 C 0.8774 0.62502 0.77975 0.0
C3683 C 0.85924 0.63179 0.78969 0.0
C3684 C 0.85383 0.62529 0.81105 0.0
C3685 C 0.86551 0.61091 0.82141 0.0
C3686 C 0.88392 0.63199 0.75719 0.0
C3687 C 0.83469 0.63236 0.82233 0.0
C3688 C 0.8328 0.67938 0.77398 0.0
C3689 C 0.81145 0.6665 0.7611 0.0
C3690 C 0.84954 0.66848 0.78191 0.0
C3691 C 0.84448 0.6441 0.7772 0.0
C3692 C 0.82355 0.6312 0.76292 0.0
C3693 C 0.80728 0.64264 0.75487 0.0
C3694 C 0.87187 0.68289 0.79658 0.0
C3695 C 0.81755 0.60515 0.75754 0.0
H3696 H 0.90177 0.60428 0.78215 0.0
H3697 H 0.86058 0.60524 0.8373 0.0
H3698 H 0.87003 0.62202 0.7431 0.0
H3699 H 0.88529 0.65061 0.7569 0.0
H3700 H 0.90076 0.6286 0.75371 0.0
H3701 H 0.8336 0.627 0.83957 0.0
H3702 H 0.83764 0.65139 0.8241 0.0
H3703 H 0.81756 0.62435 0.81144 0.0
H3704 H 0.83601 0.69794 0.77852 0.0
H3705 H 0.79071 0.6328 0.74489 0.0
H3706 H 0.88716 0.67749 0.79124 0.0
H3707 H 0.8711 0.68021 0.8147 0.0
H3708 H 0.87472 0.70165 0.79567 0.0
H3709 H 0.83245 0.59967 0.75132 0.0
H3710 H 0.80182 0.59797 0.74442 0.0
H3711 H 0.81416 0.59749 0.77339 0.0
C3712 C 0.84459 0.67693 0.04191 0.0
C3713 C 0.83516 0.67501 0.01884 0.0
C3714 C 0.86306 0.66713 0.04815 0.0
C3715 C 0.87217 0.6551 0.03095 0.0
C3716 C 0.86403 0.65499 0.00762 0.0
C3717 C 0.84575 0.66495 1.0019 0.0
C3718 C 0.87154 0.66812 0.07321 0.0
C3719 C 0.87314 0.64253 0.98861 0.0
C3720 C 0.92618 0.63252 0.04123 0.0
C3721 C 0.91604 0.60901 0.04237 0.0
C3722 C 0.91233 0.64808 0.03871 0.0
C3723 C 0.88765 0.63997 0.03697 0.0
C3724 C 0.87739 0.61647 0.03884 0.0
C3725 C 0.89165 0.60142 0.04167 0.0
C3726 C 0.92408 0.67301 0.03712 0.0
C3727 C 0.85118 0.60695 0.03704 0.0
H3728 H 0.83642 0.68448 0.05512 0.0
H3729 H 0.83864 0.6635 0.98402 0.0
H3730 H 0.86418 0.65106 0.07857 0.0
H3731 H 0.89089 0.67188 0.07634 0.0
H3732 H 0.86607 0.68145 0.08412 0.0
H3733 H 0.86693 0.64619 0.97146 0.0
H3734 H 0.89254 0.64756 0.99125 0.0
H3735 H 0.86716 0.62359 0.98876 0.0
H3736 H 0.94494 0.6387 0.0416 0.0
H3737 H 0.88356 0.58354 0.04317 0.0
H3738 H 0.91687 0.6848 0.04815 0.0
H3739 H 0.92058 0.67627 0.01923 0.0
H3740 H 0.94334 0.67742 0.04222 0.0
H3741 H 0.8442 0.61735 0.04975 0.0
H3742 H 0.84599 0.58858 0.03988 0.0
H3743 H 0.84275 0.60816 0.01978 0.0
C3744 C 0.19354 0.10984 0.79882 0.0
C3745 C 0.1739 0.10956 0.80992 0.0
C3746 C 0.21004 0.13071 0.79737 0.0
C3747 C 0.20667 0.15203 0.80682 0.0
C3748 C 0.18718 0.15181 0.81864 0.0
C3749 C 0.17087 0.1306 0.81981 0.0
C3750 C 0.23067 0.12998 0.78496 0.0
C3751 C 0.18325 0.17405 0.82955 0.0
C3752 C 0.2574 0.207 0.81165 0.0
C3753 C 0.25101 0.21642 0.79223 0.0
C3754 C 0.243 0.1864 0.81697 0.0
C3755 C 0.22204 0.17445 0.80217 0.0
C3756 C 0.21581 0.18375 0.78229 0.0
C3757 C 0.23019 0.20462 0.77771 0.0
C3758 C 0.25062 0.17749 0.83834 0.0
C3759 C 0.19386 0.17166 0.7658 0.0
H3760 H 0.19562 0.09367 0.79057 0.0
H3761 H 0.15563 0.13046 0.82825 0.0
H3762 H 0.22976 0.13886 0.76965 0.0
H3763 H 0.24719 0.13934 0.79629 0.0
H3764 H 0.23132 0.11199 0.77937 0.0
H3765 H 0.16848 0.17093 0.83972 0.0
H3766 H 0.19934 0.18455 0.84092 0.0
H3767 H 0.17947 0.18441 0.81606 0.0
H3768 H 0.27333 0.21607 0.82308 0.0
H3769 H 0.22507 0.21172 0.76262 0.0
H3770 H 0.26103 0.16527 0.83376 0.0
H3771 H 0.23545 0.16831 0.84607 0.0
H3772 H 0.26193 0.19173 0.85139 0.0
H3773 H 0.19441 0.15391 0.75913 0.0
H3774 H 0.19154 0.18105 0.75105 0.0
H3775 H 0.17831 0.16999 0.77484 0.0
C3776 C 0.38413 0.9768 0.30779 0.0
C3777 C 0.40667 0.98755 0.31925 0.0
C3778 C 0.37589 0.95275 0.30298 0.0
C3779 C 0.39102 0.93902 0.30879 0.0
C3780 C 0.41421 0.94977 0.31964 0.0
C3781 C 0.42178 0.97406 0.32487 0.0
C3782 C 0.35083 0.9421 0.29186 0.0
C3783 C 0.43084 0.9357 0.32595 0.0
C3784 C 0.35414 0.88035 0.31445 0.0
C3785 C 0.34948 0.86988 0.2916 0.0
C3786 C 0.37044 0.90188 0.32112 0.0
C3787 C 0.38158 0.91349 0.30426 0.0
C3788 C 0.37884 0.90174 0.28163 0.0
C3789 C 0.36272 0.87986 0.2755 0.0
C3790 C 0.37536 0.91188 0.34616 0.0
C3791 C 0.39183 0.91288 0.26361 0.0
H3792 H 0.37295 0.98727 0.30217 0.0
H3793 H 0.43947 0.9825 0.3332 0.0
H3794 H 0.35028 0.9315 0.27518 0.0
H3795 H 0.3413 0.93047 0.30294 0.0
H3796 H 0.34138 0.95533 0.28873 0.0
H3797 H 0.44926 0.94651 0.32993 0.0
H3798 H 0.42605 0.92775 0.34132 0.0
H3799 H 0.42959 0.92147 0.31187 0.0
H3800 H 0.3448 0.87176 0.32712 0.0
H3801 H 0.35962 0.87116 0.25798 0.0
H3802 H 0.38178 0.93095 0.34904 0.0
H3803 H 0.38912 0.90502 0.35464 0.0
H3804 H 0.3596 0.90641 0.35468 0.0
H3805 H 0.38323 0.92565 0.25719 0.0
H3806 H 0.392 0.8999 0.24881 0.0
H3807 H 0.41014 0.9223 0.27097 0.0
C3808 C 0.56767 0.38227 0.60365 0.0
C3809 C 0.56384 0.3624 0.58713 0.0
C3810 C 0.56456 0.40379 0.59768 0.0
C3811 C 0.55789 0.40632 0.57444 0.0
C3812 C 0.55503 0.38658 0.55768 0.0
C3813 C 0.55751 0.36518 0.56416 0.0
C3814 C 0.56811 0.42389 0.61644 0.0
C3815 C 0.5496 0.38811 0.53258 0.0
C3816 C 0.52758 0.45341 0.5564 0.0
C3817 C 0.54626 0.47197 0.55312 0.0
C3818 C 0.53116 0.43271 0.56391 0.0
C3819 C 0.554 0.42931 0.56752 0.0
C3820 C 0.57285 0.44789 0.56382 0.0
C3821 C 0.56889 0.46886 0.55739 0.0
C3822 C 0.51029 0.41451 0.56842 0.0
C3823 C 0.5976 0.44602 0.56647 0.0
H3824 H 0.57232 0.38081 0.62147 0.0
H3825 H 0.55452 0.35039 0.55093 0.0
H3826 H 0.58292 0.43828 0.61383 0.0
H3827 H 0.55227 0.43036 0.61571 0.0
H3828 H 0.57185 0.41918 0.63373 0.0
H3829 H 0.54967 0.37207 0.52142 0.0
H3830 H 0.53217 0.3913 0.52903 0.0
H3831 H 0.56267 0.40292 0.52793 0.0
H3832 H 0.50996 0.4553 0.55369 0.0
H3833 H 0.58372 0.48274 0.55518 0.0
H3834 H 0.51359 0.41007 0.5859 0.0
H3835 H 0.50748 0.39847 0.55612 0.0
H3836 H 0.49402 0.42028 0.56687 0.0
H3837 H 0.60686 0.45551 0.5834 0.0
H3838 H 0.60685 0.45426 0.55306 0.0
H3839 H 0.59872 0.42789 0.5652 0.0
C3840 C 0.43651 0.7907 0.412 0.0
C3841 C 0.44669 0.77236 0.40791 0.0
C3842 C 0.41717 0.79282 0.39699 0.0
C3843 C 0.40567 0.77484 0.37847 0.0
C3844 C 0.4145 0.75493 0.37605 0.0
C3845 C 0.43525 0.75444 0.38999 0.0
C3846 C 0.40955 0.81475 0.40111 0.0
C3847 C 0.40233 0.73376 0.35883 0.0
C3848 C 0.34608 0.78404 0.35346 0.0
C3849 C 0.34869 0.7861 0.33046 0.0
C3850 C 0.3635 0.77885 0.3687 0.0
C3851 C 0.38525 0.77727 0.36155 0.0
C3852 C 0.38739 0.77877 0.33796 0.0
C3853 C 0.36918 0.78273 0.32294 0.0
C3854 C 0.35754 0.77415 0.39206 0.0
C3855 C 0.40865 0.77625 0.32763 0.0
H3856 H 0.44449 0.80418 0.4264 0.0
H3857 H 0.44217 0.73957 0.3872 0.0
H3858 H 0.39536 0.81204 0.41192 0.0
H3859 H 0.42406 0.82933 0.41054 0.0
H3860 H 0.40307 0.81992 0.38481 0.0
H3861 H 0.40202 0.71785 0.36664 0.0
H3862 H 0.38408 0.73333 0.3523 0.0
H3863 H 0.4124 0.73317 0.34421 0.0
H3864 H 0.33005 0.78585 0.3595 0.0
H3865 H 0.37144 0.78394 0.30518 0.0
H3866 H 0.3708 0.76801 0.40226 0.0
H3867 H 0.3405 0.76079 0.39008 0.0
H3868 H 0.35516 0.79005 0.40171 0.0
H3869 H 0.42352 0.77657 0.34048 0.0
H3870 H 0.41408 0.79026 0.31714 0.0
H3871 H 0.40407 0.75963 0.31581 0.0
C3872 C 0.07132 0.73675 0.07377 0.0
C3873 C 0.06698 0.74427 0.09584 0.0
C3874 C 0.06871 0.71288 0.06573 0.0
C3875 C 0.06268 0.69573 0.08031 0.0
C3876 C 0.05872 0.70337 0.10274 0.0
C3877 C 0.06081 0.72715 0.11006 0.0
C3878 C 0.07233 0.706 0.04146 0.0
C3879 C 0.05248 0.68633 0.11927 0.0
C3880 C 0.03637 0.63002 0.05786 0.0
C3881 C 0.05589 0.62091 0.05969 0.0
C3882 C 0.03836 0.65399 0.06378 0.0
C3883 C 0.06048 0.66995 0.07241 0.0
C3884 C 0.08031 0.66081 0.07441 0.0
C3885 C 0.07787 0.63673 0.06771 0.0
C3886 C 0.0166 0.66211 0.05989 0.0
C3887 C 0.10416 0.67641 0.08436 0.0
H3888 H 0.07721 0.7496 0.06284 0.0
H3889 H 0.05788 0.73247 0.12732 0.0
H3890 H 0.08656 0.69727 0.04136 0.0
H3891 H 0.05616 0.6934 0.03212 0.0
H3892 H 0.07678 0.72108 0.0321 0.0
H3893 H 0.051 0.6949 0.13643 0.0
H3894 H 0.03555 0.67347 0.11237 0.0
H3895 H 0.06594 0.6767 0.12127 0.0
H3896 H 0.01927 0.61831 0.05138 0.0
H3897 H 0.09316 0.63017 0.06946 0.0
H3898 H 0.01624 0.66882 0.04327 0.0
H3899 H 0.01638 0.67624 0.07347 0.0
H3900 H 1.00045 0.64778 0.05898 0.0
H3901 H 0.10923 0.69057 0.07401 0.0
H3902 H 0.11785 0.66692 0.08508 0.0
H3903 H 0.10365 0.68456 0.10197 0.0
C3904 C 0.07426 0.26596 0.91799 0.0
C3905 C 0.0696 0.28712 0.92497 0.0
C3906 C 0.09299 0.26499 0.9055 0.0
C3907 C 0.10736 0.28566 0.89983 0.0
C3908 C 0.10383 0.30715 0.90858 0.0
C3909 C 0.08503 0.30758 0.92089 0.0
C3910 C 0.09613 0.24169 0.89679 0.0
C3911 C 0.1186 0.32969 0.90324 0.0
C3912 C 0.16363 0.28829 0.8731 0.0
C3913 C 0.15597 0.28784 0.84973 0.0
C3914 C 0.148 0.28681 0.8895 0.0
C3915 C 0.12401 0.28491 0.88255 0.0
C3916 C 0.11608 0.28385 0.85893 0.0
C3917 C 0.13203 0.28528 0.84293 0.0
C3918 C 0.15729 0.28793 0.91439 0.0
C3919 C 0.09071 0.28176 0.85056 0.0
H3920 H 0.06211 0.25003 0.92052 0.0
H3921 H 0.08131 0.32397 0.92589 0.0
H3922 H 0.08945 0.23721 0.8782 0.0
H3923 H 0.11493 0.24211 0.89896 0.0
H3924 H 0.08651 0.22783 0.90573 0.0
H3925 H 0.1156 0.34494 0.91355 0.0
H3926 H 0.13746 0.3305 0.90647 0.0
H3927 H 0.11431 0.33084 0.88481 0.0
H3928 H 0.18203 0.29044 0.87874 0.0
H3929 H 0.12566 0.28439 0.82496 0.0
H3930 H 0.14657 0.27335 0.92166 0.0
H3931 H 0.15603 0.30418 0.9243 0.0
H3932 H 0.17584 0.28735 0.91685 0.0
H3933 H 0.07927 0.26644 0.85615 0.0
H3934 H 0.08707 0.28016 0.8316 0.0
H3935 H 0.08585 0.29723 0.85819 0.0
C3936 C 0.53042 0.73506 0.8914 0.0
C3937 C 0.54471 0.75717 0.9009 0.0
C3938 C 0.52787 0.71621 0.90397 0.0
C3939 C 0.54006 0.71939 0.92655 0.0
C3940 C 0.55511 0.7415 0.93583 0.0
C3941 C 0.55714 0.75999 0.92302 0.0
C3942 C 0.51155 0.69305 0.89337 0.0
C3943 C 0.56871 0.74583 0.95962 0.0
C3944 C 0.51708 0.68083 0.97068 0.0
C3945 C 0.53171 0.66588 0.97111 0.0
C3946 C 0.51915 0.6977 0.95585 0.0
C3947 C 0.53643 0.70009 0.941 0.0
C3948 C 0.55109 0.68494 0.9411 0.0
C3949 C 0.54853 0.66807 0.956 0.0
C3950 C 0.50309 0.71338 0.95647 0.0
C3951 C 0.56982 0.6868 0.9257 0.0
H3952 H 0.52062 0.73265 0.87442 0.0
H3953 H 0.56833 0.77691 0.93059 0.0
H3954 H 0.52078 0.67931 0.89403 0.0
H3955 H 0.49674 0.6886 0.90334 0.0
H3956 H 0.50438 0.69293 0.87528 0.0
H3957 H 0.58064 0.76361 0.96391 0.0
H3958 H 0.55641 0.74332 0.97244 0.0
H3959 H 0.57922 0.73322 0.96124 0.0
H3960 H 0.50425 0.67977 0.98239 0.0
H3961 H 0.55974 0.65651 0.95572 0.0
H3962 H 0.49418 0.71294 0.93896 0.0
H3963 H 0.51347 0.7315 0.96267 0.0
H3964 H 0.48959 0.70843 0.96783 0.0
H3965 H 0.56201 0.68543 0.9076 0.0
H3966 H 0.57918 0.67318 0.92704 0.0
H3967 H 0.58278 0.70399 0.93026 0.0
C3968 C 0.09267 0.7544 0.73998 0.0
C3969 C 0.0863 0.76143 0.71893 0.0
C3970 C 0.11646 0.7561 0.74844 0.0
C3971 C 0.13476 0.76434 0.73538 0.0
C3972 C 0.1283 0.77128 0.71406 0.0
C3973 C 0.10449 0.76968 0.7062 0.0
C3974 C 0.12198 0.74878 0.77136 0.0
C3975 C 0.14661 0.78018 0.69924 0.0
C3976 C 0.19973 0.78843 0.76338 0.0
C3977 C 0.20973 0.76999 0.75814 0.0
C3978 C 0.17574 0.78667 0.75654 0.0
C3979 C 0.16052 0.76591 0.74385 0.0
C3980 C 0.17041 0.7471 0.73861 0.0
C3981 C 0.1946 0.74928 0.74583 0.0
C3982 C 0.16667 0.80722 0.7632 0.0
C3983 C 0.15544 0.72466 0.7249 0.0
H3984 H 0.07896 0.747 0.74964 0.0
H3985 H 0.10002 0.77471 0.68971 0.0
H3986 H 0.13023 0.73431 0.76924 0.0
H3987 H 0.13474 0.76334 0.78289 0.0
H3988 H 0.10612 0.74318 0.77973 0.0
H3989 H 0.13899 0.78466 0.68302 0.0
H3990 H 0.15977 0.79581 0.70873 0.0
H3991 H 0.156 0.76692 0.69499 0.0
H3992 H 0.21076 0.80457 0.77299 0.0
H3993 H 0.20174 0.73483 0.74144 0.0
H3994 H 0.15442 0.80282 0.7758 0.0
H3995 H 0.15688 0.81142 0.74804 0.0
H3996 H 0.18089 0.82285 0.77102 0.0
H3997 H 0.14019 0.71759 0.73358 0.0
H3998 H 0.1653 0.71146 0.72249 0.0
H3999 H 0.1485 0.72783 0.7078 0.0
C4000 C 0.04332 0.37994 0.41908 0.0
C4001 C 0.05306 0.38369 0.39878 0.0
C4002 C 0.04116 0.39839 0.43494 0.0
C4003 C 0.04953 0.42164 0.43111 0.0
C4004 C 0.06003 0.42567 0.41099 0.0
C4005 C 0.06127 0.40677 0.39496 0.0
C4006 C 0.02919 0.39285 0.45555 0.0
C4007 C 0.0699 0.45002 0.4063 0.0
C4008 C 0.02393 0.46814 0.46067 0.0
C4009 C 0.04003 0.47734 0.48073 0.0
C4010 C 0.02678 0.4502 0.44455 0.0
C4011 C 0.0467 0.44149 0.44789 0.0
C4012 C 0.06333 0.45117 0.46784 0.0
C4013 C 0.05963 0.46857 0.48408 0.0
C4014 C 0.00811 0.44019 0.42411 0.0
C4015 C 0.08521 0.44322 0.47201 0.0
H4016 H 0.03647 0.36233 0.42225 0.0
H4017 H 0.06872 0.41009 0.37942 0.0
H4018 H 0.04119 0.40126 0.47153 0.0
H4019 H 0.01371 0.39986 0.45537 0.0
H4020 H 0.02335 0.37395 0.45605 0.0
H4021 H 0.07925 0.45047 0.39109 0.0
H4022 H 0.05557 0.45841 0.40335 0.0
H4023 H 0.08219 0.46045 0.4214 0.0
H4024 H 0.0087 0.47465 0.45779 0.0
H4025 H 0.07241 0.47565 0.49926 0.0
H4026 H 1.00091 0.42133 0.42407 0.0
H4027 H 0.01577 0.44236 0.40803 0.0
H4028 H 0.9935 0.44848 0.42404 0.0
H4029 H 0.08051 0.42474 0.47438 0.0
H4030 H 0.09725 0.45346 0.48738 0.0
H4031 H 0.09464 0.44464 0.45688 0.0
C4032 C 0.4236 0.24926 0.19735 0.0
C4033 C 0.4448 0.24792 0.20968 0.0
C4034 C 0.40459 0.25333 0.20813 0.0
C4035 C 0.4059 0.25616 0.23236 0.0
C4036 C 0.42708 0.25468 0.24511 0.0
C4037 C 0.4461 0.25071 0.23379 0.0
C4038 C 0.38296 0.25481 0.19333 0.0
C4039 C 0.42969 0.25734 0.27088 0.0
C4040 C 0.3635 0.28856 0.25813 0.0
C4041 C 0.34416 0.27062 0.26126 0.0
C4042 C 0.38365 0.28417 0.24958 0.0
C4043 C 0.38526 0.26112 0.24389 0.0
C4044 C 0.36604 0.24292 0.24752 0.0
C4045 C 0.34597 0.2478 0.25593 0.0
C4046 C 0.40307 0.30442 0.24602 0.0
C4047 C 0.36643 0.21804 0.24206 0.0
H4048 H 0.4217 0.24725 0.17881 0.0
H4049 H 0.46198 0.24978 0.24388 0.0
H4050 H 0.36743 0.24159 0.19657 0.0
H4051 H 0.37982 0.272 0.1978 0.0
H4052 H 0.38437 0.25218 0.17476 0.0
H4053 H 0.44668 0.25517 0.27852 0.0
H4054 H 0.42833 0.27472 0.27785 0.0
H4055 H 0.41528 0.24439 0.27633 0.0
H4056 H 0.36276 0.30631 0.26194 0.0
H4057 H 0.33149 0.23356 0.2581 0.0
H4058 H 0.40453 0.30376 0.22749 0.0
H4059 H 0.42005 0.30343 0.25487 0.0
H4060 H 0.40012 0.32131 0.25243 0.0
H4061 H 0.36593 0.21351 0.22333 0.0
H4062 H 0.35138 0.20588 0.24756 0.0
H4063 H 0.38291 0.21556 0.25058 0.0
C4064 C 0.5926 0.55225 0.36889 0.0
C4065 C 0.61109 0.54227 0.36562 0.0
C4066 C 0.58169 0.55071 0.38906 0.0
C4067 C 0.58892 0.53842 0.40635 0.0
C4068 C 0.60691 0.52753 0.40255 0.0
C4069 C 0.61785 0.52985 0.38263 0.0
C4070 C 0.56302 0.56305 0.3923 0.0
C4071 C 0.61505 0.51375 0.41986 0.0
C4072 C 0.58113 0.55268 0.4697 0.0
C4073 C 0.561 0.53542 0.47212 0.0
C4074 C 0.58986 0.55419 0.44847 0.0
C4075 C 0.57868 0.53776 0.42883 0.0
C4076 C 0.55843 0.52018 0.43116 0.0
C4077 C 0.54973 0.5194 0.45252 0.0
C4078 C 0.61116 0.57354 0.44708 0.0
C4079 C 0.54611 0.50187 0.41112 0.0
H4080 H 0.58735 0.56217 0.35617 0.0
H4081 H 0.63204 0.52198 0.38044 0.0
H4082 H 0.54693 0.55085 0.39588 0.0
H4083 H 0.56915 0.57686 0.40736 0.0
H4084 H 0.55853 0.571 0.37705 0.0
H4085 H 0.62774 0.50471 0.41363 0.0
H4086 H 0.62352 0.52541 0.43601 0.0
H4087 H 0.59987 0.5007 0.42401 0.0
H4088 H 0.58997 0.56541 0.48443 0.0
H4089 H 0.5342 0.50596 0.45392 0.0
H4090 H 0.60732 0.58333 0.43309 0.0
H4091 H 0.62576 0.56627 0.44295 0.0
H4092 H 0.61706 0.58578 0.46336 0.0
H4093 H 0.54044 0.51008 0.39654 0.0
H4094 H 0.53056 0.48944 0.41548 0.0
H4095 H 0.55838 0.49214 0.40525 0.0
C4096 C 0.25859 0.86201 0.06476 0.0
C4097 C 0.2721 0.88265 0.05909 0.0
C4098 C 0.26625 0.85279 0.08383 0.0
C4099 C 0.28817 0.86424 0.09708 0.0
C4100 C 0.30146 0.88555 0.09193 0.0
C4101 C 0.29311 0.89465 0.07308 0.0
C4102 C 0.25128 0.83042 0.08935 0.0
C4103 C 0.32489 0.89822 0.10576 0.0
C4104 C 0.30123 0.8472 0.15546 0.0
C4105 C 0.31389 0.83104 0.15052 0.0
C4106 C 0.29314 0.85854 0.13832 0.0
C4107 C 0.29764 0.85338 0.1157 0.0
C4108 C 0.31073 0.83735 0.11066 0.0
C4109 C 0.31863 0.82627 0.12817 0.0
C4110 C 0.27916 0.87543 0.14435 0.0
C4111 C 0.31619 0.83177 0.08675 0.0
H4112 H 0.24226 0.85281 0.054 0.0
H4113 H 0.30365 0.91056 0.06863 0.0
H4114 H 0.26046 0.81667 0.08708 0.0
H4115 H 0.24834 0.83258 0.10753 0.0
H4116 H 0.23403 0.82453 0.07827 0.0
H4117 H 0.3326 0.91505 0.10005 0.0
H4118 H 0.3231 0.90144 0.12417 0.0
H4119 H 0.33726 0.88737 0.10421 0.0
H4120 H 0.29713 0.85058 0.17267 0.0
H4121 H 0.32854 0.81389 0.12441 0.0
H4122 H 0.26029 0.86686 0.13873 0.0
H4123 H 0.28391 0.89082 0.13551 0.0
H4124 H 0.28179 0.88142 0.16308 0.0
H4125 H 0.2997 0.82385 0.07484 0.0
H4126 H 0.32741 0.81966 0.08591 0.0
H4127 H 0.32522 0.8479 0.08056 0.0
C4128 C 0.97204 0.58004 0.88059 0.0
C4129 C 0.94858 0.57242 0.88413 0.0
C4130 C 0.99041 0.58225 0.89831 0.0
C4131 C 0.98513 0.5761 0.9198 0.0
C4132 C 0.96155 0.56981 0.92389 0.0
C4133 C 0.94361 0.56846 0.90612 0.0
C4134 C 0.01536 0.58999 0.89365 0.0
C4135 C 0.95513 0.56302 0.94658 0.0
C4136 C 0.02209 0.54918 0.95797 0.0
C4137 C 0.02872 0.56621 0.97725 0.0
C4138 C 0.00932 0.55286 0.93814 0.0
C4139 C 1.00376 0.57429 0.93762 0.0
C4140 C 0.01288 0.59242 0.95618 0.0
C4141 C 0.02488 0.58799 0.97603 0.0
C4142 C 0.99968 0.53299 0.91881 0.0
C4143 C 0.00817 0.61579 0.95593 0.0
H4144 H 0.97608 0.58348 0.86375 0.0
H4145 H 0.9256 0.56286 0.90917 0.0
H4146 H 0.02656 0.60218 0.9084 0.0
H4147 H 0.02248 0.57477 0.89114 0.0
H4148 H 0.01662 0.5985 0.87802 0.0
H4149 H 0.93597 0.5589 0.94704 0.0
H4150 H 0.96114 0.54761 0.94992 0.0
H4151 H 0.96399 0.57721 0.96074 0.0
H4152 H 0.0249 0.53228 0.95915 0.0
H4153 H 0.03013 0.60114 0.99108 0.0
H4154 H 1.00267 0.53881 0.90207 0.0
H4155 H 0.98048 0.52641 0.91846 0.0
H4156 H 0.00767 0.51847 0.92074 0.0
H4157 H 0.00939 0.62132 0.9388 0.0
H4158 H 0.02062 0.62922 0.96897 0.0
H4159 H 0.99019 0.61473 0.95978 0.0
C4160 C 0.26816 0.20894 0.60339 0.0
C4161 C 0.27772 0.22353 0.58795 0.0
C4162 C 0.2677 0.21757 0.6265 0.0
C4163 C 0.27727 0.24149 0.6349 0.0
C4164 C 0.28693 0.25634 0.6194 0.0
C4165 C 0.2869 0.24728 0.59623 0.0
C4166 C 0.25704 0.20092 0.64203 0.0
C4167 C 0.29765 0.28186 0.62739 0.0
C4168 C 0.26084 0.26626 0.69212 0.0
C4169 C 0.27955 0.2653 0.70821 0.0
C4170 C 0.25992 0.25886 0.66832 0.0
C4171 C 0.27828 0.25057 0.66011 0.0
C4172 C 0.29744 0.25019 0.67626 0.0
C4173 C 0.29775 0.25733 0.69984 0.0
C4174 C 0.23899 0.25945 0.65197 0.0
C4175 C 0.31767 0.24195 0.66869 0.0
H4176 H 0.26083 0.19061 0.59736 0.0
H4177 H 0.29431 0.25882 0.58463 0.0
H4178 H 0.27062 0.20035 0.6561 0.0
H4179 H 0.24326 0.20693 0.65002 0.0
H4180 H 0.24923 0.18309 0.63275 0.0
H4181 H 0.3039 0.29129 0.61327 0.0
H4182 H 0.28469 0.28966 0.63486 0.0
H4183 H 0.31265 0.28439 0.64109 0.0
H4184 H 0.24663 0.27229 0.69816 0.0
H4185 H 0.31252 0.25665 0.71183 0.0
H4186 H 0.22972 0.24163 0.64346 0.0
H4187 H 0.24475 0.26979 0.63832 0.0
H4188 H 0.22648 0.26691 0.66073 0.0
H4189 H 0.31143 0.22347 0.66094 0.0
H4190 H 0.33185 0.24381 0.68311 0.0
H4191 H 0.3251 0.25186 0.65535 0.0
C4192 C 0.61772 0.55556 0.21479 0.0
C4193 C 0.60318 0.54627 0.23048 0.0
C4194 C 0.60874 0.55579 0.19176 0.0
C4195 C 0.58449 0.54628 0.18374 0.0
C4196 C 0.56969 0.53688 0.1995 0.0
C4197 C 0.57912 0.5371 0.22255 0.0
C4198 C 0.62534 0.56613 0.17591 0.0
C4199 C 0.54385 0.52626 0.19192 0.0
C4200 C 0.55876 0.56189 0.12677 0.0
C4201 C 0.55956 0.54321 0.11068 0.0
C4202 C 0.56653 0.56307 0.15051 0.0
C4203 C 0.57502 0.54501 0.15864 0.0
C4204 C 0.57517 0.52586 0.14249 0.0
C4205 C 0.56767 0.52529 0.11899 0.0
C4206 C 0.56613 0.58394 0.16686 0.0
C4207 C 0.58359 0.50594 0.14998 0.0
H4208 H 0.63628 0.56287 0.22055 0.0
H4209 H 0.5676 0.52991 0.23436 0.0
H4210 H 0.62573 0.55256 0.16179 0.0
H4211 H 0.61917 0.57969 0.16801 0.0
H4212 H 0.64346 0.57389 0.1849 0.0
H4213 H 0.5345 0.52025 0.20623 0.0
H4214 H 0.53588 0.53901 0.18454 0.0
H4215 H 0.54113 0.5113 0.17824 0.0
H4216 H 0.55263 0.57588 0.12076 0.0
H4217 H 0.56818 0.51056 0.107 0.0
H4218 H 0.58421 0.5932 0.17503 0.0
H4219 H 0.55592 0.57844 0.18077 0.0
H4220 H 0.55841 0.59618 0.15818 0.0
H4221 H 0.60234 0.51216 0.15745 0.0
H4222 H 0.58156 0.49178 0.13558 0.0
H4223 H 0.57375 0.49877 0.16352 0.0
C4224 C 0.23505 0.84689 0.93342 0.0
C4225 C 0.23494 0.86956 0.93022 0.0
C4226 C 0.23633 0.83069 0.91506 0.0
C4227 C 0.23711 0.83723 0.89298 0.0
C4228 C 0.23378 0.85895 0.88912 0.0
C4229 C 0.23285 0.87496 0.90784 0.0
C4230 C 0.23962 0.80763 0.91987 0.0
C4231 C 0.23372 0.86625 0.86563 0.0
C4232 C 0.2791 0.8186 0.85657 0.0
C4233 C 0.26399 0.80133 0.84011 0.0
C4234 C 0.27054 0.82969 0.87437 0.0
C4235 C 0.24615 0.82372 0.87536 0.0
C4236 C 0.23085 0.80575 0.85915 0.0
C4237 C 0.24004 0.79456 0.84175 0.0
C4238 C 0.28755 0.84842 0.89163 0.0
C4239 C 0.20474 0.79927 0.85933 0.0
H4240 H 0.2362 0.8423 0.95055 0.0
H4241 H 0.23227 0.89224 0.90508 0.0
H4242 H 0.2295 0.79349 0.90614 0.0
H4243 H 0.25839 0.80814 0.92034 0.0
H4244 H 0.23424 0.80346 0.93658 0.0
H4245 H 0.2265 0.88139 0.86461 0.0
H4246 H 0.25192 0.87107 0.86164 0.0
H4247 H 0.22334 0.8518 0.85232 0.0
H4248 H 0.29762 0.8238 0.8552 0.0
H4249 H 0.22832 0.78149 0.82867 0.0
H4250 H 0.28524 0.84493 0.90931 0.0
H4251 H 0.28408 0.86538 0.88995 0.0
H4252 H 0.30606 0.8498 0.88933 0.0
H4253 H 0.20054 0.79796 0.87697 0.0
H4254 H 0.19582 0.7826 0.84817 0.0
H4255 H 0.19751 0.81298 0.85303 0.0
C4256 C 0.9212 0.51266 0.74317 0.0
C4257 C 0.93113 0.5354 0.75421 0.0
C4258 C 0.9292 0.50432 0.72346 0.0
C4259 C 0.94692 0.5194 0.71421 0.0
C4260 C 0.9562 0.54273 0.72471 0.0
C4261 C 0.94851 0.55034 0.74495 0.0
C4262 C 0.9195 0.47914 0.71323 0.0
C4263 C 0.97455 0.5595 0.71481 0.0
C4264 C 0.98733 0.49721 0.67813 0.0
C4265 C 0.97729 0.4982 0.65591 0.0
C4266 C 0.97692 0.50295 0.69723 0.0
C4267 C 0.95644 0.5106 0.69406 0.0
C4268 C 0.94571 0.51082 0.67171 0.0
C4269 C 0.95597 0.50409 0.65289 0.0
C4270 C 0.98836 0.5017 0.72085 0.0
C4271 C 0.92408 0.51927 0.6677 0.0
H4272 H 0.90799 0.50102 0.75063 0.0
H4273 H 0.95611 0.56793 0.75357 0.0
H4274 H 0.91276 0.47749 0.69479 0.0
H4275 H 0.9337 0.47033 0.71445 0.0
H4276 H 0.90518 0.46995 0.72205 0.0
H4277 H 0.97839 0.57747 0.72388 0.0
H4278 H 0.99101 0.55411 0.71599 0.0
H4279 H 0.96869 0.55938 0.69639 0.0
H4280 H 1.00385 0.49289 0.68079 0.0
H4281 H 0.94762 0.5042 0.63578 0.0
H4282 H 0.97519 0.49236 0.73075 0.0
H4283 H 0.99597 0.51944 0.73034 0.0
H4284 H 1.00252 0.49286 0.7202 0.0
H4285 H 0.90995 0.5095 0.67631 0.0
H4286 H 0.91743 0.51757 0.64919 0.0
H4287 H 0.92813 0.53775 0.67528 0.0
C4288 C 0.27478 0.23478 0.45032 0.0
C4289 C 0.28231 0.21472 0.45216 0.0
C4290 C 0.27601 0.24542 0.43009 0.0
C4291 C 0.28536 0.23615 0.4112 0.0
C4292 C 0.29382 0.21649 0.41345 0.0
C4293 C 0.29205 0.20607 0.43357 0.0
C4294 C 0.26649 0.26612 0.42862 0.0
C4295 C 0.30426 0.20595 0.39425 0.0
C4296 C 0.26666 0.2444 0.3491 0.0
C4297 C 0.28562 0.26189 0.34462 0.0
C4298 C 0.26612 0.2365 0.37066 0.0
C4299 C 0.28513 0.24591 0.3886 0.0
C4300 C 0.30435 0.26358 0.38424 0.0
C4301 C 0.3043 0.27141 0.36253 0.0
C4302 C 0.24512 0.21781 0.37415 0.0
C4303 C 0.32523 0.274 0.40247 0.0
H4304 H 0.26704 0.24163 0.46429 0.0
H4305 H 0.29814 0.19073 0.43461 0.0
H4306 H 0.27981 0.28056 0.42374 0.0
H4307 H 0.25109 0.26159 0.41504 0.0
H4308 H 0.26113 0.27221 0.44504 0.0
H4309 H 0.31165 0.19179 0.39918 0.0
H4310 H 0.29064 0.19886 0.37909 0.0
H4311 H 0.31832 0.2194 0.38895 0.0
H4312 H 0.25196 0.23685 0.3357 0.0
H4313 H 0.31908 0.2849 0.35955 0.0
H4314 H 0.23775 0.22355 0.38947 0.0
H4315 H 0.25048 0.20203 0.37733 0.0
H4316 H 0.23115 0.21317 0.35912 0.0
H4317 H 0.31955 0.28111 0.41828 0.0
H4318 H 0.33848 0.28803 0.39687 0.0
H4319 H 0.33361 0.26037 0.40697 0.0
C4320 C 0.34863 0.63552 0.54225 0.0
C4321 C 0.33926 0.64417 0.52362 0.0
C4322 C 0.36546 0.62327 0.53964 0.0
C4323 C 0.3732 0.62014 0.51805 0.0
C4324 C 0.36596 0.6315 0.50019 0.0
C4325 C 0.34875 0.64315 0.50309 0.0
C4326 C 0.37289 0.61152 0.55914 0.0
C4327 C 0.37446 0.62927 0.47721 0.0
C4328 C 0.42071 0.58946 0.51139 0.0
C4329 C 0.40742 0.56688 0.50226 0.0
C4330 C 0.40993 0.60711 0.51664 0.0
C4331 C 0.38525 0.60193 0.51286 0.0
C4332 C 0.37171 0.57909 0.50385 0.0
C4333 C 0.38299 0.56186 0.49858 0.0
C4334 C 0.42497 0.63123 0.52604 0.0
C4335 C 0.34528 0.57282 0.4999 0.0
H4336 H 0.34101 0.63611 0.55802 0.0
H4337 H 0.34138 0.64988 0.48871 0.0
H4338 H 0.36385 0.59274 0.55542 0.0
H4339 H 0.39199 0.61337 0.56102 0.0
H4340 H 0.36844 0.61862 0.57567 0.0
H4341 H 0.37042 0.64222 0.4667 0.0
H4342 H 0.39362 0.63141 0.47941 0.0
H4343 H 0.36584 0.61172 0.46766 0.0
H4344 H 0.43958 0.5932 0.515 0.0
H4345 H 0.3727 0.5444 0.49162 0.0
H4346 H 0.44326 0.63138 0.53218 0.0
H4347 H 0.41773 0.63913 0.54038 0.0
H4348 H 0.42528 0.64232 0.51235 0.0
H4349 H 0.33859 0.57716 0.51611 0.0
H4350 H 0.33737 0.55413 0.49344 0.0
H4351 H 0.33924 0.58302 0.48729 0.0
C4352 C 0.87817 0.91144 0.52842 0.0
C4353 C 0.8604 0.91897 0.53794 0.0
C4354 C 0.90063 0.92662 0.52913 0.0
C4355 C 0.90569 0.94989 0.53994 0.0
C4356 C 0.88773 0.95751 0.5496 0.0
C4357 C 0.86547 0.94192 0.54872 0.0
C4358 C 0.91898 0.91772 0.51828 0.0
C4359 C 0.89208 0.98211 0.5611 0.0
C4360 C 0.96989 0.98299 0.56091 0.0
C4361 C 0.97499 0.99727 0.54401 0.0
C4362 C 0.9474 0.96778 0.56001 0.0
C4363 C 0.92977 0.96616 0.54135 0.0
C4364 C 0.93529 0.98016 0.52402 0.0
C4365 C 0.95749 0.99587 0.52584 0.0
C4366 C 0.94253 0.95336 0.57897 0.0
C4367 C 0.91781 0.97875 0.50343 0.0
H4368 H 0.87444 0.89362 0.52034 0.0
H4369 H 0.85208 0.9476 0.55684 0.0
H4370 H 0.92534 0.92834 0.50501 0.0
H4371 H 0.93425 0.91933 0.5314 0.0
H4372 H 0.91224 0.89933 0.51022 0.0
H4373 H 0.87628 0.98543 0.56758 0.0
H4374 H 0.90648 0.98598 0.57566 0.0
H4375 H 0.89769 0.99427 0.54884 0.0
H4376 H 0.98345 0.98388 0.57496 0.0
H4377 H 0.9614 0.00655 0.51251 0.0
H4378 H 0.93745 0.9347 0.57184 0.0
H4379 H 0.9276 0.95691 0.58699 0.0
H4380 H 0.95791 0.95686 0.59247 0.0
H4381 H 0.92602 0.98703 0.48946 0.0
H4382 H 0.90501 0.98793 0.50878 0.0
H4383 H 0.90851 0.96047 0.49667 0.0
C4384 C 0.92166 0.09988 0.30642 0.0
C4385 C 0.92457 0.08709 0.28619 0.0
C4386 C 0.90959 0.11703 0.30591 0.0
C4387 C 0.90006 0.12161 0.28459 0.0
C4388 C 0.90491 0.11032 0.26406 0.0
C4389 C 0.91706 0.09311 0.2651 0.0
C4390 C 0.90506 0.12854 0.32827 0.0
C4391 C 0.89549 0.11487 0.24095 0.0
C4392 C 0.84225 0.1377 0.28521 0.0
C4393 C 0.84925 0.16197 0.28711 0.0
C4394 C 0.8585 0.12447 0.28378 0.0
C4395 C 0.88252 0.1356 0.28398 0.0
C4396 C 0.88967 0.16 0.28518 0.0
C4397 C 0.87305 0.17286 0.28684 0.0
C4398 C 0.84996 0.09851 0.28257 0.0
C4399 C 0.91499 0.1726 0.28525 0.0
H4400 H 0.92709 0.09503 0.32276 0.0
H4401 H 0.91873 0.08296 0.24939 0.0
H4402 H 0.90839 0.14747 0.3284 0.0
H4403 H 0.88641 0.12161 0.33029 0.0
H4404 H 0.91611 0.12543 0.34325 0.0
H4405 H 0.90424 0.10825 0.22708 0.0
H4406 H 0.87647 0.10614 0.2371 0.0
H4407 H 0.89773 0.13367 0.24088 0.0
H4408 H 0.82394 0.12892 0.28483 0.0
H4409 H 0.87887 0.19156 0.2885 0.0
H4410 H 0.85835 0.09306 0.29781 0.0
H4411 H 0.855 0.08976 0.26721 0.0
H4412 H 0.83067 0.0924 0.28187 0.0
H4413 H 0.92555 0.17112 0.3013 0.0
H4414 H 0.91743 0.19125 0.28398 0.0
H4415 H 0.92199 0.1646 0.27078 0.0
C4416 C 0.68269 0.13764 0.03387 0.0
C4417 C 0.69911 0.12493 0.03688 0.0
C4418 C 0.6587 0.12709 0.03292 0.0
C4419 C 0.65109 0.10325 0.03473 0.0
C4420 C 0.66768 0.09038 0.03772 0.0
C4421 C 0.69155 0.10157 0.0394 0.0
C4422 C 0.64151 0.14139 0.03003 0.0
C4423 C 0.66022 0.06481 0.03914 0.0
C4424 C 0.59247 0.07509 0.05237 0.0
C4425 C 0.57919 0.06497 0.03106 0.0
C4426 C 0.61568 0.08856 0.05379 0.0
C4427 C 0.6258 0.09157 0.03343 0.0
C4428 C 0.61208 0.08205 0.01191 0.0
C4429 C 0.58905 0.06882 0.01101 0.0
C4430 C 0.62941 0.09942 0.07702 0.0
C4431 C 0.62164 0.08456 0.98961 0.0
H4432 H 0.68866 0.15589 0.03248 0.0
H4433 H 0.70435 0.0921 0.04301 0.0
H4434 H 0.62965 0.13475 0.01359 0.0
H4435 H 0.63048 0.13988 0.04398 0.0
H4436 H 0.65036 0.15997 0.03014 0.0
H4437 H 0.67532 0.05724 0.041 0.0
H4438 H 0.65061 0.0617 0.05396 0.0
H4439 H 0.64809 0.05553 0.02347 0.0
H4440 H 0.58477 0.0725 0.06792 0.0
H4441 H 0.5789 0.06117 0.9944 0.0
H4442 H 0.63741 0.11816 0.07712 0.0
H4443 H 0.64388 0.09138 0.08081 0.0
H4444 H 0.61833 0.09733 0.09094 0.0
H4445 H 0.60772 0.08457 0.97558 0.0
H4446 H 0.62826 0.06936 0.98492 0.0
H4447 H 0.63601 0.10056 0.99075 0.0
C4448 C 0.2084 0.49214 0.26478 0.0
C4449 C 0.22233 0.5138 0.262 0.0
C4450 C 0.21822 0.47352 0.26626 0.0
C4451 C 0.24229 0.47681 0.26449 0.0
C4452 C 0.25573 0.49802 0.25939 0.0
C4453 C 0.24561 0.51639 0.25845 0.0
C4454 C 0.20342 0.45108 0.27177 0.0
C4455 C 0.2813 0.502 0.25688 0.0
C4456 C 0.27576 0.44506 0.30066 0.0
C4457 C 0.27713 0.42694 0.28447 0.0
C4458 C 0.26425 0.46134 0.29432 0.0
C4459 C 0.25423 0.45948 0.27118 0.0
C4460 C 0.25611 0.44153 0.25464 0.0
C4461 C 0.26748 0.42533 0.26154 0.0
C4462 C 0.26249 0.48031 0.31243 0.0
C4463 C 0.246 0.43936 0.22979 0.0
H4464 H 0.1904 0.49025 0.26759 0.0
H4465 H 0.2563 0.53314 0.25607 0.0
H4466 H 0.20615 0.43607 0.26089 0.0
H4467 H 0.20873 0.44945 0.28988 0.0
H4468 H 0.18449 0.45019 0.26936 0.0
H4469 H 0.28813 0.51799 0.24937 0.0
H4470 H 0.29166 0.50367 0.27397 0.0
H4471 H 0.28417 0.4871 0.24593 0.0
H4472 H 0.28303 0.44604 0.31841 0.0
H4473 H 0.26873 0.41127 0.24906 0.0
H4474 H 0.24384 0.4796 0.31324 0.0
H4475 H 0.27103 0.49748 0.30792 0.0
H4476 H 0.27083 0.47898 0.3297 0.0
H4477 H 0.22682 0.43695 0.22825 0.0
H4478 H 0.24939 0.42459 0.21903 0.0
H4479 H 0.25357 0.4555 0.22287 0.0
C4480 C 0.22209 0.40374 0.01648 0.0
C4481 C 0.2352 0.39984 0.03598 0.0
C4482 C 0.20501 0.41585 0.01832 0.0
C4483 C 0.20085 0.42438 0.04027 0.0
C4484 C 0.21234 0.41843 0.05999 0.0
C4485 C 0.22946 0.40626 0.05762 0.0
C4486 C 0.19325 0.42157 0.99676 0.0
C4487 C 0.20817 0.42675 0.08371 0.0
C4488 C 0.18676 0.48265 0.04321 0.0
C4489 C 0.16222 0.47639 0.0414 0.0
C4490 C 0.19944 0.46598 0.04359 0.0
C4491 C 0.18746 0.44227 0.04241 0.0
C4492 C 0.16279 0.43586 0.04148 0.0
C4493 C 0.15048 0.45292 0.04087 0.0
C4494 C 0.22572 0.47372 0.04458 0.0
C4495 C 0.14932 0.41089 0.04045 0.0
H4496 H 0.22664 0.39902 0.99972 0.0
H4497 H 0.23982 0.40371 0.07278 0.0
H4498 H 0.1742 0.41859 0.99713 0.0
H4499 H 0.20059 0.44016 0.99559 0.0
H4500 H 0.19591 0.41114 0.9811 0.0
H4501 H 0.21458 0.41705 0.09667 0.0
H4502 H 0.21757 0.44535 0.08854 0.0
H4503 H 0.18928 0.425 0.08422 0.0
H4504 H 0.19616 0.5007 0.04423 0.0
H4505 H 0.13155 0.44773 0.03932 0.0
H4506 H 0.23085 0.46589 0.02878 0.0
H4507 H 0.23436 0.46771 0.05929 0.0
H4508 H 0.23251 0.49284 0.04626 0.0
H4509 H 0.15002 0.401 0.02372 0.0
H4510 H 0.13068 0.40901 0.04249 0.0
H4511 H 0.15738 0.40296 0.05402 0.0
C4512 C 0.88044 0.95814 0.2672 0.0
C4513 C 0.90375 0.96334 0.27768 0.0
C4514 C 0.86478 0.93606 0.26647 0.0
C4515 C 0.87264 0.91838 0.276 0.0
C4516 C 0.89627 0.92359 0.28651 0.0
C4517 C 0.91151 0.94585 0.28704 0.0
C4518 C 0.83984 0.93158 0.25523 0.0
C4519 C 0.90547 0.90559 0.29723 0.0
C4520 C 0.82662 0.86672 0.29042 0.0
C4521 C 0.82538 0.84933 0.27227 0.0
C4522 C 0.84223 0.88884 0.29211 0.0
C4523 C 0.85631 0.89443 0.27466 0.0
C4524 C 0.85477 0.87694 0.25597 0.0
C4525 C 0.83969 0.85454 0.25521 0.0
C4526 C 0.84355 0.90614 0.31274 0.0
C4527 C 0.8692 0.88182 0.23685 0.0
H4528 H 0.87452 0.97129 0.25921 0.0
H4529 H 0.92958 0.94965 0.29491 0.0
H4530 H 0.83594 0.91732 0.24063 0.0
H4531 H 0.82766 0.92599 0.26762 0.0
H4532 H 0.83633 0.94714 0.24887 0.0
H4533 H 0.92407 0.91241 0.30515 0.0
H4534 H 0.89483 0.89928 0.31059 0.0
H4535 H 0.90392 0.89047 0.28407 0.0
H4536 H 0.81596 0.86275 0.30389 0.0
H4537 H 0.83897 0.84111 0.24116 0.0
H4538 H 0.86203 0.91537 0.31945 0.0
H4539 H 0.83517 0.89806 0.32671 0.0
H4540 H 0.83426 0.91876 0.30745 0.0
H4541 H 0.86554 0.89659 0.22903 0.0
H4542 H 0.86562 0.86662 0.22324 0.0
H4543 H 0.8881 0.88685 0.24378 0.0
C4544 C 0.72451 0.11783 0.77333 0.0
C4545 C 0.70237 0.11167 0.78026 0.0
C4546 C 0.73658 0.14117 0.77417 0.0
C4547 C 0.72547 0.15858 0.78047 0.0
C4548 C 0.70259 0.15233 0.7864 0.0
C4549 C 0.69149 0.12895 0.78659 0.0
C4550 C 0.7613 0.14721 0.7686 0.0
C4551 C 0.68988 0.17031 0.79256 0.0
C4552 C 0.76146 0.22036 0.80166 0.0
C4553 C 0.76225 0.22988 0.78127 0.0
C4554 C 0.74931 0.19734 0.80178 0.0
C4555 C 0.73776 0.18333 0.78088 0.0
C4556 C 0.73792 0.1931 0.76025 0.0
C4557 C 0.75054 0.21621 0.76064 0.0
C4558 C 0.74918 0.18871 0.82461 0.0
C4559 C 0.72404 0.17943 0.73797 0.0
H4560 H 0.73232 0.10439 0.76718 0.0
H4561 H 0.67405 0.12412 0.79136 0.0
H4562 H 0.76244 0.15662 0.75362 0.0
H4563 H 0.77317 0.15891 0.78329 0.0
H4564 H 0.76765 0.13162 0.76475 0.0
H4565 H 0.67124 0.1624 0.79406 0.0
H4566 H 0.69853 0.18098 0.80919 0.0
H4567 H 0.69064 0.1821 0.77945 0.0
H4568 H 0.77038 0.23093 0.81771 0.0
H4569 H 0.75065 0.22376 0.74492 0.0
H4570 H 0.73648 0.17173 0.82406 0.0
H4571 H 0.74498 0.20136 0.83747 0.0
H4572 H 0.76701 0.18759 0.83073 0.0
H4573 H 0.73116 0.16476 0.73249 0.0
H4574 H 0.7243 0.19021 0.72399 0.0
H4575 H 0.70558 0.172 0.74037 0.0
loop_
_geom_bond_atom_site_label_1
_geom_bond_atom_site_label_2
_geom_bond_distance
_geom_bond_site_symmetry_2
_ccdc_geom_bond_type
Mn0 O5 2.095 . S
Mn0 O15 2.162 . S
Mn0 O16 2.297 . S
Mn0 O24 2.385 1_455 S
Mn0 O25 2.209 . S
Mn0 O26 2.094 . S
Mn1 O6 2.121 . S
Mn1 N8 2.257 . S
Mn1 N17 2.282 . S
Mn1 O25 2.215 . S
Mn1 O27 2.117 . S
C2 O24 1.234 . S
C2 O25 1.283 1_655 S
C3 O15 1.281 . S
C3 O16 1.236 . S
C4 O26 1.240 . S
C4 O27 1.264 . S
O5 Mn0 2.095 . S
O5 C14 1.250 . S
O6 Mn1 2.121 . S
O6 C14 1.258 . S
C7 N8 1.326 . S
C7 C11 1.460 . S
C7 H13 0.929 . S
N8 Mn1 2.257 . S
N8 C7 1.326 . S
N8 C12 1.362 . S
C9 C10 1.258 1_655 S
C9 C12 1.431 1_655 S
C9 C29 1.449 . S
C10 C9 1.258 1_455 S
C10 C11 1.477 . S
C10 H30 0.931 1_455 S
C11 C7 1.460 . S
C11 C10 1.477 . S
C11 H31 0.930 . S
C12 N8 1.362 . S
C12 C9 1.431 1_455 S
C12 C22 1.476 1_455 S
H13 C7 0.929 . S
C14 O5 1.250 . S
C14 O6 1.258 . S
O15 Mn0 2.162 . S
O15 C3 1.281 . S
O16 Mn0 2.297 . S
O16 C3 1.236 . S
N17 Mn1 2.282 . S
N17 C18 1.328 1_455 S
N17 C22 1.318 1_455 S
C18 N17 1.328 1_655 S
C18 C19 1.457 . S
C18 H23 0.928 . S
C19 C18 1.457 . S
C19 C20 1.291 . S
C19 H32 0.931 . S
C20 C19 1.291 . S
C20 C21 1.373 . S
C20 H33 0.929 . S
C21 C20 1.373 . S
C21 C22 1.396 . S
C21 C28 1.403 . S
C22 C12 1.476 1_655 S
C22 N17 1.318 1_655 S
C22 C21 1.396 . S
H23 C18 0.928 . S
O24 Mn0 2.385 1_655 S
O24 C2 1.234 . S
O25 Mn0 2.209 . S
O25 Mn1 2.215 . S
O25 C2 1.283 1_455 S
O26 Mn0 2.094 . S
O26 C4 1.240 . S
O27 Mn1 2.117 . S
O27 C4 1.264 . S
C28 C21 1.403 . S
C28 C29 1.399 . S
C28 H34 0.929 . S
C29 C9 1.449 . S
C29 C28 1.399 . S
C29 H35 0.930 . S
H30 C10 0.931 1_655 S
H31 C11 0.930 . S
H32 C19 0.931 . S
H33 C20 0.929 . S
H34 C28 0.929 . S
H35 C29 0.930 . S
Mn36 O41 2.095 1_455 S
Mn36 O51 2.162 . S
Mn36 O52 2.297 . S
Mn36 O60 2.385 . S
Mn36 O61 2.209 . S
Mn36 O62 2.094 . S
Mn37 O42 2.121 . S
Mn37 N44 2.257 . S
Mn37 N53 2.282 . S
Mn37 O61 2.215 . S
Mn37 O63 2.117 . S
C38 O60 1.234 . S
C38 O61 1.283 . S
C39 O51 1.281 . S
C39 O52 1.236 . S
C40 O62 1.240 . S
C40 O63 1.264 . S
O41 Mn36 2.095 1_655 S
O41 C50 1.250 . S
O42 Mn37 2.121 . S
O42 C50 1.258 1_455 S
C43 N44 1.326 . S
C43 C47 1.460 . S
C43 H49 0.929 . S
N44 Mn37 2.257 . S
N44 C43 1.326 . S
N44 C48 1.362 . S
C45 C46 1.258 . S
C45 C48 1.431 . S
C45 C65 1.449 . S
C46 C45 1.258 . S
C46 C47 1.477 . S
C46 H66 0.931 . S
C47 C43 1.460 . S
C47 C46 1.477 . S
C47 H67 0.930 . S
C48 N44 1.362 . S
C48 C45 1.431 . S
C48 C58 1.476 . S
H49 C43 0.929 . S
C50 O41 1.250 . S
C50 O42 1.258 1_655 S
O51 Mn36 2.162 . S
O51 C39 1.281 . S
O52 Mn36 2.297 . S
O52 C39 1.236 . S
N53 Mn37 2.282 . S
N53 C54 1.328 . S
N53 C58 1.318 . S
C54 N53 1.328 . S
C54 C55 1.457 . S
C54 H59 0.929 . S
C55 C54 1.457 . S
C55 C56 1.291 . S
C55 H68 0.931 . S
C56 C55 1.291 . S
C56 C57 1.373 . S
C56 H69 0.929 . S
C57 C56 1.373 . S
C57 C58 1.396 . S
C57 C64 1.403 . S
C58 C48 1.476 . S
C58 N53 1.318 . S
C58 C57 1.396 . S
H59 C54 0.929 . S
O60 Mn36 2.385 . S
O60 C38 1.234 . S
O61 Mn36 2.209 . S
O61 Mn37 2.215 . S
O61 C38 1.283 . S
O62 Mn36 2.094 . S
O62 C40 1.240 . S
O63 Mn37 2.117 . S
O63 C40 1.264 . S
C64 C57 1.403 . S
C64 C65 1.399 . S
C64 H70 0.929 . S
C65 C45 1.449 . S
C65 C64 1.399 . S
C65 H71 0.930 . S
H66 C46 0.931 . S
H67 C47 0.930 . S
H68 C55 0.931 . S
H69 C56 0.929 . S
H70 C64 0.929 . S
H71 C65 0.930 . S
Mn72 O77 2.095 . S
Mn72 O87 2.162 . S
Mn72 O88 2.297 . S
Mn72 O96 2.385 . S
Mn72 O97 2.209 . S
Mn72 O98 2.094 . S
Mn73 O78 2.121 . S
Mn73 N80 2.257 . S
Mn73 N89 2.282 . S
Mn73 O97 2.215 . S
Mn73 O99 2.117 . S
C74 O96 1.234 . S
C74 O97 1.283 . S
C75 O87 1.281 . S
C75 O88 1.236 . S
C76 O98 1.240 . S
C76 O99 1.264 . S
O77 Mn72 2.095 . S
O77 C86 1.250 . S
O78 Mn73 2.121 . S
O78 C86 1.258 . S
C79 N80 1.326 . S
C79 C83 1.460 . S
C79 H85 0.929 . S
N80 Mn73 2.257 . S
N80 C79 1.326 . S
N80 C84 1.362 . S
C81 C82 1.258 . S
C81 C84 1.431 . S
C81 C101 1.449 . S
C82 C81 1.258 . S
C82 C83 1.477 . S
C82 H102 0.931 . S
C83 C79 1.460 . S
C83 C82 1.477 . S
C83 H103 0.930 . S
C84 N80 1.362 . S
C84 C81 1.431 . S
C84 C94 1.476 . S
H85 C79 0.929 . S
C86 O77 1.250 . S
C86 O78 1.258 . S
O87 Mn72 2.162 . S
O87 C75 1.281 . S
O88 Mn72 2.297 . S
O88 C75 1.236 . S
N89 Mn73 2.282 . S
N89 C90 1.328 . S
N89 C94 1.318 . S
C90 N89 1.328 . S
C90 C91 1.457 . S
C90 H95 0.929 . S
C91 C90 1.457 . S
C91 C92 1.291 . S
C91 H104 0.931 . S
C92 C91 1.291 . S
C92 C93 1.373 . S
C92 H105 0.929 . S
C93 C92 1.373 . S
C93 C94 1.396 . S
C93 C100 1.403 . S
C94 C84 1.476 . S
C94 N89 1.318 . S
C94 C93 1.396 . S
H95 C90 0.929 . S
O96 Mn72 2.385 . S
O96 C74 1.234 . S
O97 Mn72 2.209 . S
O97 Mn73 2.215 . S
O97 C74 1.283 . S
O98 Mn72 2.094 . S
O98 C76 1.240 . S
O99 Mn73 2.117 . S
O99 C76 1.264 . S
C100 C93 1.403 . S
C100 C101 1.399 . S
C100 H106 0.929 . S
C101 C81 1.449 . S
C101 C100 1.399 . S
C101 H107 0.930 . S
H102 C82 0.931 . S
H103 C83 0.930 . S
H104 C91 0.931 . S
H105 C92 0.929 . S
H106 C100 0.929 . S
H107 C101 0.930 . S
Mn108 O113 2.095 . S
Mn108 O123 2.162 . S
Mn108 O124 2.297 . S
Mn108 O132 2.385 . S
Mn108 O133 2.209 . S
Mn108 O134 2.094 . S
Mn109 O114 2.121 . S
Mn109 N116 2.257 . S
Mn109 N125 2.282 . S
Mn109 O133 2.215 . S
Mn109 O135 2.117 . S
C110 O132 1.234 . S
C110 O133 1.283 . S
C111 O123 1.281 . S
C111 O124 1.236 . S
C112 O134 1.240 . S
C112 O135 1.264 . S
O113 Mn108 2.095 . S
O113 C122 1.250 . S
O114 Mn109 2.121 . S
O114 C122 1.258 . S
C115 N116 1.326 . S
C115 C119 1.460 . S
C115 H121 0.929 . S
N116 Mn109 2.257 . S
N116 C115 1.326 . S
N116 C120 1.362 . S
C117 C118 1.258 . S
C117 C120 1.431 . S
C117 C137 1.449 . S
C118 C117 1.258 . S
C118 C119 1.477 . S
C118 H138 0.931 . S
C119 C115 1.460 . S
C119 C118 1.477 . S
C119 H139 0.930 . S
C120 N116 1.362 . S
C120 C117 1.431 . S
C120 C130 1.476 . S
H121 C115 0.929 . S
C122 O113 1.250 . S
C122 O114 1.258 . S
O123 Mn108 2.162 . S
O123 C111 1.281 . S
O124 Mn108 2.297 . S
O124 C111 1.236 . S
N125 Mn109 2.282 . S
N125 C126 1.328 . S
N125 C130 1.318 . S
C126 N125 1.328 . S
C126 C127 1.457 . S
C126 H131 0.929 . S
C127 C126 1.457 . S
C127 C128 1.291 . S
C127 H140 0.931 . S
C128 C127 1.291 . S
C128 C129 1.373 . S
C128 H141 0.929 . S
C129 C128 1.373 . S
C129 C130 1.396 . S
C129 C136 1.403 . S
C130 C120 1.476 . S
C130 N125 1.318 . S
C130 C129 1.396 . S
H131 C126 0.929 . S
O132 Mn108 2.385 . S
O132 C110 1.234 . S
O133 Mn108 2.209 . S
O133 Mn109 2.215 . S
O133 C110 1.283 . S
O134 Mn108 2.094 . S
O134 C112 1.240 . S
O135 Mn109 2.117 . S
O135 C112 1.264 . S
C136 C129 1.403 . S
C136 C137 1.399 . S
C136 H142 0.929 . S
C137 C117 1.449 . S
C137 C136 1.399 . S
C137 H143 0.930 . S
H138 C118 0.931 . S
H139 C119 0.930 . S
H140 C127 0.931 . S
H141 C128 0.929 . S
H142 C136 0.929 . S
H143 C137 0.930 . S
Mn144 O149 2.095 . S
Mn144 O159 2.162 . S
Mn144 O160 2.297 . S
Mn144 O168 2.385 . S
Mn144 O169 2.209 . S
Mn144 O170 2.094 . S
Mn145 O150 2.121 . S
Mn145 N152 2.257 . S
Mn145 N161 2.276 1_455 S
Mn145 O169 2.215 . S
Mn145 O171 2.117 . S
C146 O168 1.234 . S
C146 O169 1.283 . S
C147 O159 1.281 . S
C147 O160 1.236 . S
C148 O170 1.240 . S
C148 O171 1.264 . S
O149 Mn144 2.095 . S
O149 C158 1.250 . S
O150 Mn145 2.121 . S
O150 C158 1.258 . S
C151 N152 1.326 . S
C151 C155 1.460 1_554 S
C151 H157 0.929 . S
N152 Mn145 2.257 . S
N152 C151 1.326 . S
N152 C156 1.362 . S
C153 C154 1.258 . S
C153 C156 1.431 1_556 S
C153 C173 1.449 1_455 S
C154 C153 1.258 . S
C154 C155 1.477 . S
C154 H174 0.931 . S
C155 C151 1.460 1_556 S
C155 C154 1.477 . S
C155 H175 0.930 . S
C156 N152 1.362 . S
C156 C153 1.431 1_554 S
C156 C166 1.476 1_455 S
H157 C151 0.929 . S
C158 O149 1.250 . S
C158 O150 1.258 . S
O159 Mn144 2.162 . S
O159 C147 1.281 . S
O160 Mn144 2.297 . S
O160 C147 1.236 . S
N161 Mn145 2.276 1_655 S
N161 C162 1.336 . S
N161 C166 1.315 . S
C162 N161 1.336 . S
C162 C163 1.457 . S
C162 H167 0.929 . S
C163 C162 1.457 . S
C163 C164 1.291 . S
C163 H176 0.931 . S
C164 C163 1.291 . S
C164 C165 1.373 . S
C164 H177 0.929 . S
C165 C164 1.373 . S
C165 C166 1.396 . S
C165 C172 1.403 . S
C166 C156 1.476 1_655 S
C166 N161 1.315 . S
C166 C165 1.396 . S
H167 C162 0.929 . S
O168 Mn144 2.385 . S
O168 C146 1.234 . S
O169 Mn144 2.209 . S
O169 Mn145 2.215 . S
O169 C146 1.283 . S
O170 Mn144 2.094 . S
O170 C148 1.240 . S
O171 Mn145 2.117 . S
O171 C148 1.264 . S
C172 C165 1.403 . S
C172 C173 1.399 1_554 S
C172 H178 0.929 . S
C173 C153 1.449 1_655 S
C173 C172 1.399 1_556 S
C173 H179 0.930 . S
H174 C154 0.931 . S
H175 C155 0.930 . S
H176 C163 0.931 . S
H177 C164 0.929 . S
H178 C172 0.929 . S
H179 C173 0.930 . S
Mn180 O185 2.095 . S
Mn180 O195 2.162 . S
Mn180 O196 2.297 . S
Mn180 O204 2.385 . S
Mn180 O205 2.209 . S
Mn180 O206 2.094 . S
Mn181 O186 2.121 . S
Mn181 N188 2.257 . S
Mn181 N197 2.282 . S
Mn181 O205 2.215 . S
Mn181 O207 2.117 . S
C182 O204 1.234 . S
C182 O205 1.283 . S
C183 O195 1.281 . S
C183 O196 1.236 . S
C184 O206 1.240 . S
C184 O207 1.264 . S
O185 Mn180 2.095 . S
O185 C194 1.250 . S
O186 Mn181 2.121 . S
O186 C194 1.258 . S
C187 N188 1.326 . S
C187 C191 1.460 . S
C187 H193 0.929 . S
N188 Mn181 2.257 . S
N188 C187 1.326 . S
N188 C192 1.362 . S
C189 C190 1.258 . S
C189 C192 1.431 . S
C189 C209 1.449 . S
C190 C189 1.258 . S
C190 C191 1.477 . S
C190 H210 0.931 . S
C191 C187 1.460 . S
C191 C190 1.477 . S
C191 H211 0.930 . S
C192 N188 1.362 . S
C192 C189 1.431 . S
C192 C202 1.476 . S
H193 C187 0.929 . S
C194 O185 1.250 . S
C194 O186 1.258 . S
O195 Mn180 2.162 . S
O195 C183 1.281 . S
O196 Mn180 2.297 . S
O196 C183 1.236 . S
N197 Mn181 2.282 . S
N197 C198 1.328 . S
N197 C202 1.318 . S
C198 N197 1.328 . S
C198 C199 1.457 . S
C198 H203 0.929 . S
C199 C198 1.457 . S
C199 C200 1.291 . S
C199 H212 0.931 . S
C200 C199 1.291 . S
C200 C201 1.373 . S
C200 H213 0.929 . S
C201 C200 1.373 . S
C201 C202 1.396 . S
C201 C208 1.403 . S
C202 C192 1.476 . S
C202 N197 1.318 . S
C202 C201 1.396 . S
H203 C198 0.929 . S
O204 Mn180 2.385 . S
O204 C182 1.234 . S
O205 Mn180 2.209 . S
O205 Mn181 2.215 . S
O205 C182 1.283 . S
O206 Mn180 2.094 . S
O206 C184 1.240 . S
O207 Mn181 2.117 . S
O207 C184 1.264 . S
C208 C201 1.403 . S
C208 C209 1.399 . S
C208 H214 0.929 . S
C209 C189 1.449 . S
C209 C208 1.399 . S
C209 H215 0.930 . S
H210 C190 0.931 . S
H211 C191 0.930 . S
H212 C199 0.931 . S
H213 C200 0.929 . S
H214 C208 0.929 . S
H215 C209 0.930 . S
Mn216 O221 2.095 . S
Mn216 O231 2.162 . S
Mn216 O232 2.297 . S
Mn216 O240 2.385 . S
Mn216 O241 2.209 . S
Mn216 O242 2.094 . S
Mn217 O222 2.121 . S
Mn217 N224 2.257 . S
Mn217 N233 2.282 . S
Mn217 O241 2.215 . S
Mn217 O243 2.117 . S
C218 O240 1.234 . S
C218 O241 1.283 . S
C219 O231 1.281 . S
C219 O232 1.236 . S
C220 O242 1.240 . S
C220 O243 1.264 . S
O221 Mn216 2.095 . S
O221 C230 1.250 . S
O222 Mn217 2.121 . S
O222 C230 1.258 . S
C223 N224 1.326 . S
C223 C227 1.460 . S
C223 H229 0.929 . S
N224 Mn217 2.257 . S
N224 C223 1.326 . S
N224 C228 1.362 . S
C225 C226 1.258 . S
C225 C228 1.431 . S
C225 C245 1.449 . S
C226 C225 1.258 . S
C226 C227 1.477 . S
C226 H246 0.931 . S
C227 C223 1.460 . S
C227 C226 1.477 . S
C227 H247 0.930 . S
C228 N224 1.362 . S
C228 C225 1.431 . S
C228 C238 1.476 . S
H229 C223 0.929 . S
C230 O221 1.250 . S
C230 O222 1.258 . S
O231 Mn216 2.162 . S
O231 C219 1.281 . S
O232 Mn216 2.297 . S
O232 C219 1.236 . S
N233 Mn217 2.282 . S
N233 C234 1.328 . S
N233 C238 1.318 . S
C234 N233 1.328 . S
C234 C235 1.457 . S
C234 H239 0.929 . S
C235 C234 1.457 . S
C235 C236 1.291 . S
C235 H248 0.931 . S
C236 C235 1.291 . S
C236 C237 1.373 . S
C236 H249 0.929 . S
C237 C236 1.373 . S
C237 C238 1.396 . S
C237 C244 1.403 . S
C238 C228 1.476 . S
C238 N233 1.318 . S
C238 C237 1.396 . S
H239 C234 0.929 . S
O240 Mn216 2.385 . S
O240 C218 1.234 . S
O241 Mn216 2.209 . S
O241 Mn217 2.215 . S
O241 C218 1.283 . S
O242 Mn216 2.094 . S
O242 C220 1.240 . S
O243 Mn217 2.117 . S
O243 C220 1.264 . S
C244 C237 1.403 . S
C244 C245 1.399 . S
C244 H250 0.929 . S
C245 C225 1.449 . S
C245 C244 1.399 . S
C245 H251 0.930 . S
H246 C226 0.931 . S
H247 C227 0.930 . S
H248 C235 0.931 . S
H249 C236 0.929 . S
H250 C244 0.929 . S
H251 C245 0.930 . S
Mn252 O257 2.059 1_655 S
Mn252 O267 2.156 . S
Mn252 O268 2.291 . S
Mn252 O276 2.425 . S
Mn252 O277 2.226 . S
Mn252 O278 2.100 1_655 S
Mn253 O258 2.119 1_655 S
Mn253 N260 2.257 . S
Mn253 N269 2.284 . S
Mn253 O277 2.215 . S
Mn253 O279 2.117 1_655 S
C254 O276 1.234 . S
C254 O277 1.283 . S
C255 O267 1.281 . S
C255 O268 1.236 . S
C256 O278 1.240 . S
C256 O279 1.264 . S
O257 Mn252 2.059 1_455 S
O257 C266 1.250 . S
O258 Mn253 2.119 1_455 S
O258 C266 1.258 . S
C259 N260 1.326 . S
C259 C263 1.460 . S
C259 H265 0.929 1_655 S
N260 Mn253 2.257 . S
N260 C259 1.326 . S
N260 C264 1.362 . S
C261 C262 1.258 . S
C261 C264 1.431 . S
C261 C281 1.449 . S
C262 C261 1.258 . S
C262 C263 1.477 . S
C262 H282 0.931 . S
C263 C259 1.460 . S
C263 C262 1.477 . S
C263 H283 0.930 . S
C264 N260 1.362 . S
C264 C261 1.431 . S
C264 C274 1.476 . S
H265 C259 0.929 1_455 S
C266 O257 1.250 . S
C266 O258 1.258 . S
O267 Mn252 2.156 . S
O267 C255 1.281 . S
O268 Mn252 2.291 . S
O268 C255 1.236 . S
N269 Mn253 2.284 . S
N269 C270 1.328 . S
N269 C274 1.318 . S
C270 N269 1.328 . S
C270 C271 1.457 . S
C270 H275 0.929 . S
C271 C270 1.457 . S
C271 C272 1.291 . S
C271 H284 0.931 . S
C272 C271 1.291 . S
C272 C273 1.373 . S
C272 H285 0.929 . S
C273 C272 1.373 . S
C273 C274 1.396 . S
C273 C280 1.403 . S
C274 C264 1.476 . S
C274 N269 1.318 . S
C274 C273 1.396 . S
H275 C270 0.929 . S
O276 Mn252 2.425 . S
O276 C254 1.234 . S
O277 Mn252 2.226 . S
O277 Mn253 2.215 . S
O277 C254 1.283 . S
O278 Mn252 2.100 1_455 S
O278 C256 1.240 . S
O279 Mn253 2.117 1_455 S
O279 C256 1.264 . S
C280 C273 1.403 . S
C280 C281 1.399 . S
C280 H286 0.929 . S
C281 C261 1.449 . S
C281 C280 1.399 . S
C281 H287 0.930 . S
H282 C262 0.931 . S
H283 C263 0.930 . S
H284 C271 0.931 . S
H285 C272 0.929 . S
H286 C280 0.929 . S
H287 C281 0.930 . S
Mn288 O293 2.095 . S
Mn288 O303 2.162 . S
Mn288 O304 2.297 1_545 S
Mn288 O312 2.385 1_545 S
Mn288 O313 2.209 1_545 S
Mn288 O314 2.094 . S
Mn289 O294 2.121 1_565 S
Mn289 N296 2.257 . S
Mn289 N305 2.282 . S
Mn289 O313 2.215 . S
Mn289 O315 2.117 1_565 S
C290 O312 1.234 . S
C290 O313 1.283 . S
C291 O303 1.281 . S
C291 O304 1.236 1_545 S
C292 O314 1.240 . S
C292 O315 1.264 . S
O293 Mn288 2.095 . S
O293 C302 1.250 . S
O294 Mn289 2.121 1_545 S
O294 C302 1.258 . S
C295 N296 1.326 . S
C295 C299 1.460 . S
C295 H301 0.929 . S
N296 Mn289 2.257 . S
N296 C295 1.326 . S
N296 C300 1.362 . S
C297 C298 1.258 . S
C297 C300 1.431 . S
C297 C317 1.449 . S
C298 C297 1.258 . S
C298 C299 1.477 . S
C298 H318 0.931 . S
C299 C295 1.460 . S
C299 C298 1.477 . S
C299 H319 0.930 . S
C300 N296 1.362 . S
C300 C297 1.431 . S
C300 C310 1.476 . S
H301 C295 0.929 . S
C302 O293 1.250 . S
C302 O294 1.258 . S
O303 Mn288 2.162 . S
O303 C291 1.281 . S
O304 Mn288 2.297 1_565 S
O304 C291 1.236 1_565 S
N305 Mn289 2.282 . S
N305 C306 1.328 . S
N305 C310 1.318 . S
C306 N305 1.328 . S
C306 C307 1.457 . S
C306 H311 0.929 . S
C307 C306 1.457 . S
C307 C308 1.291 . S
C307 H320 0.931 . S
C308 C307 1.291 . S
C308 C309 1.373 . S
C308 H321 0.929 . S
C309 C308 1.373 . S
C309 C310 1.396 . S
C309 C316 1.403 . S
C310 C300 1.476 . S
C310 N305 1.318 . S
C310 C309 1.396 . S
H311 C306 0.929 . S
O312 Mn288 2.385 1_565 S
O312 C290 1.234 . S
O313 Mn288 2.209 1_565 S
O313 Mn289 2.215 . S
O313 C290 1.283 . S
O314 Mn288 2.094 . S
O314 C292 1.240 . S
O315 Mn289 2.117 1_545 S
O315 C292 1.264 . S
C316 C309 1.403 . S
C316 C317 1.399 . S
C316 H322 0.929 . S
C317 C297 1.449 . S
C317 C316 1.399 . S
C317 H323 0.930 . S
H318 C298 0.931 . S
H319 C299 0.930 . S
H320 C307 0.931 . S
H321 C308 0.929 . S
H322 C316 0.929 . S
H323 C317 0.930 . S
Mn324 O329 2.095 . S
Mn324 O339 2.162 . S
Mn324 O340 2.297 . S
Mn324 O348 2.385 . S
Mn324 O349 2.209 . S
Mn324 O350 2.094 . S
Mn325 O330 2.121 . S
Mn325 N332 2.257 . S
Mn325 N341 2.282 . S
Mn325 O349 2.215 . S
Mn325 O351 2.117 . S
C326 O348 1.234 . S
C326 O349 1.283 . S
C327 O339 1.281 . S
C327 O340 1.236 . S
C328 O350 1.240 . S
C328 O351 1.264 . S
O329 Mn324 2.095 . S
O329 C338 1.250 . S
O330 Mn325 2.121 . S
O330 C338 1.258 . S
C331 N332 1.326 . S
C331 C335 1.460 . S
C331 H337 0.929 . S
N332 Mn325 2.257 . S
N332 C331 1.326 . S
N332 C336 1.362 . S
C333 C334 1.258 . S
C333 C336 1.431 . S
C333 C353 1.449 . S
C334 C333 1.258 . S
C334 C335 1.477 . S
C334 H354 0.931 . S
C335 C331 1.460 . S
C335 C334 1.477 . S
C335 H355 0.930 . S
C336 N332 1.362 . S
C336 C333 1.431 . S
C336 C346 1.476 . S
H337 C331 0.929 . S
C338 O329 1.250 . S
C338 O330 1.258 . S
O339 Mn324 2.162 . S
O339 C327 1.281 . S
O340 Mn324 2.297 . S
O340 C327 1.236 . S
N341 Mn325 2.282 . S
N341 C342 1.328 . S
N341 C346 1.318 . S
C342 N341 1.328 . S
C342 C343 1.457 . S
C342 H347 0.929 . S
C343 C342 1.457 . S
C343 C344 1.291 . S
C343 H356 0.931 . S
C344 C343 1.291 . S
C344 C345 1.373 . S
C344 H357 0.929 . S
C345 C344 1.373 . S
C345 C346 1.396 . S
C345 C352 1.403 . S
C346 C336 1.476 . S
C346 N341 1.318 . S
C346 C345 1.396 . S
H347 C342 0.929 . S
O348 Mn324 2.385 . S
O348 C326 1.234 . S
O349 Mn324 2.209 . S
O349 Mn325 2.215 . S
O349 C326 1.283 . S
O350 Mn324 2.094 . S
O350 C328 1.240 . S
O351 Mn325 2.117 . S
O351 C328 1.264 . S
C352 C345 1.403 . S
C352 C353 1.399 . S
C352 H358 0.929 . S
C353 C333 1.449 . S
C353 C352 1.399 . S
C353 H359 0.930 . S
H354 C334 0.931 . S
H355 C335 0.930 . S
H356 C343 0.931 . S
H357 C344 0.929 . S
H358 C352 0.929 . S
H359 C353 0.930 . S
Mn360 O365 2.095 . S
Mn360 O375 2.162 . S
Mn360 O376 2.297 . S
Mn360 O384 2.385 . S
Mn360 O385 2.209 . S
Mn360 O386 2.094 . S
Mn361 O366 2.121 . S
Mn361 N368 2.257 . S
Mn361 N377 2.282 . S
Mn361 O385 2.215 . S
Mn361 O387 2.117 . S
C362 O384 1.234 . S
C362 O385 1.283 . S
C363 O375 1.281 . S
C363 O376 1.236 . S
C364 O386 1.240 . S
C364 O387 1.264 . S
O365 Mn360 2.095 . S
O365 C374 1.250 . S
O366 Mn361 2.121 . S
O366 C374 1.258 . S
C367 N368 1.326 . S
C367 C371 1.460 . S
C367 H373 0.929 . S
N368 Mn361 2.257 . S
N368 C367 1.326 . S
N368 C372 1.362 . S
C369 C370 1.258 . S
C369 C372 1.431 . S
C369 C389 1.449 . S
C370 C369 1.258 . S
C370 C371 1.477 . S
C370 H390 0.931 . S
C371 C367 1.460 . S
C371 C370 1.477 . S
C371 H391 0.930 . S
C372 N368 1.362 . S
C372 C369 1.431 . S
C372 C382 1.476 . S
H373 C367 0.929 . S
C374 O365 1.250 . S
C374 O366 1.258 . S
O375 Mn360 2.162 . S
O375 C363 1.281 . S
O376 Mn360 2.297 . S
O376 C363 1.236 . S
N377 Mn361 2.282 . S
N377 C378 1.328 . S
N377 C382 1.318 . S
C378 N377 1.328 . S
C378 C379 1.457 . S
C378 H383 0.929 . S
C379 C378 1.457 . S
C379 C380 1.291 . S
C379 H392 0.931 . S
C380 C379 1.291 . S
C380 C381 1.373 . S
C380 H393 0.929 . S
C381 C380 1.373 . S
C381 C382 1.396 . S
C381 C388 1.403 . S
C382 C372 1.476 . S
C382 N377 1.318 . S
C382 C381 1.396 . S
H383 C378 0.929 . S
O384 Mn360 2.385 . S
O384 C362 1.234 . S
O385 Mn360 2.209 . S
O385 Mn361 2.215 . S
O385 C362 1.283 . S
O386 Mn360 2.094 . S
O386 C364 1.240 . S
O387 Mn361 2.117 . S
O387 C364 1.264 . S
C388 C381 1.403 . S
C388 C389 1.399 . S
C388 H394 0.929 . S
C389 C369 1.449 . S
C389 C388 1.399 . S
C389 H395 0.930 . S
H390 C370 0.931 . S
H391 C371 0.930 . S
H392 C379 0.931 . S
H393 C380 0.929 . S
H394 C388 0.929 . S
H395 C389 0.930 . S
Mn396 O401 2.095 1_554 S
Mn396 O411 2.162 . S
Mn396 O412 2.297 . S
Mn396 O420 2.385 . S
Mn396 O421 2.210 . S
Mn396 O422 2.094 1_554 S
Mn397 O402 2.121 . S
Mn397 N404 2.257 . S
Mn397 N413 2.282 . S
Mn397 O421 2.210 1_556 S
Mn397 O423 2.117 . S
C398 O420 1.234 . S
C398 O421 1.284 . S
C399 O411 1.281 . S
C399 O412 1.236 . S
C400 O422 1.240 . S
C400 O423 1.264 . S
O401 Mn396 2.095 1_556 S
O401 C410 1.250 . S
O402 Mn397 2.121 . S
O402 C410 1.258 . S
C403 N404 1.326 1_545 S
C403 C407 1.460 . S
C403 H409 0.929 1_545 S
N404 Mn397 2.257 . S
N404 C403 1.326 1_565 S
N404 C408 1.362 . S
C405 C406 1.258 . S
C405 C408 1.431 1_545 S
C405 C425 1.449 . S
C406 C405 1.258 . S
C406 C407 1.477 . S
C406 H426 0.931 . S
C407 C403 1.460 . S
C407 C406 1.477 . S
C407 H427 0.933 . S
C408 N404 1.362 . S
C408 C405 1.431 1_565 S
C408 C418 1.476 . S
H409 C403 0.929 1_565 S
C410 O401 1.250 . S
C410 O402 1.258 . S
O411 Mn396 2.162 . S
O411 C399 1.281 . S
O412 Mn396 2.297 . S
O412 C399 1.236 . S
N413 Mn397 2.282 . S
N413 C414 1.328 . S
N413 C418 1.318 . S
C414 N413 1.328 . S
C414 C415 1.457 . S
C414 H419 0.929 . S
C415 C414 1.457 . S
C415 C416 1.291 . S
C415 H428 0.931 . S
C416 C415 1.291 . S
C416 C417 1.373 . S
C416 H429 0.929 . S
C417 C416 1.373 . S
C417 C418 1.396 . S
C417 C424 1.403 1_565 S
C418 C408 1.476 . S
C418 N413 1.318 . S
C418 C417 1.396 . S
H419 C414 0.929 . S
O420 Mn396 2.385 . S
O420 C398 1.234 . S
O421 Mn396 2.210 . S
O421 Mn397 2.210 1_554 S
O421 C398 1.284 . S
O422 Mn396 2.094 1_556 S
O422 C400 1.240 . S
O423 Mn397 2.117 . S
O423 C400 1.264 . S
C424 C417 1.403 1_545 S
C424 C425 1.399 . S
C424 H430 0.929 . S
C425 C405 1.449 . S
C425 C424 1.399 . S
C425 H431 0.930 . S
H426 C406 0.931 . S
H427 C407 0.933 . S
H428 C415 0.931 . S
H429 C416 0.929 . S
H430 C424 0.929 . S
H431 C425 0.930 . S
Mn432 O437 2.095 . S
Mn432 O447 2.162 . S
Mn432 O448 2.297 . S
Mn432 O456 2.385 . S
Mn432 O457 2.209 . S
Mn432 O458 2.094 . S
Mn433 O438 2.121 . S
Mn433 N440 2.257 . S
Mn433 N449 2.282 1_554 S
Mn433 O457 2.215 . S
Mn433 O459 2.117 1_554 S
C434 O456 1.234 . S
C434 O457 1.283 . S
C435 O447 1.281 . S
C435 O448 1.236 . S
C436 O458 1.240 1_556 S
C436 O459 1.264 . S
O437 Mn432 2.095 . S
O437 C446 1.250 . S
O438 Mn433 2.121 . S
O438 C446 1.258 . S
C439 N440 1.326 . S
C439 C443 1.460 . S
C439 H445 0.929 . S
N440 Mn433 2.257 . S
N440 C439 1.326 . S
N440 C444 1.362 . S
C441 C442 1.258 . S
C441 C444 1.431 . S
C441 C461 1.468 . S
C442 C441 1.258 . S
C442 C443 1.477 . S
C442 H462 0.931 . S
C443 C439 1.460 . S
C443 C442 1.477 . S
C443 H463 0.930 . S
C444 N440 1.362 . S
C444 C441 1.431 . S
C444 C454 1.476 1_554 S
H445 C439 0.929 . S
C446 O437 1.250 . S
C446 O438 1.258 . S
O447 Mn432 2.162 . S
O447 C435 1.281 . S
O448 Mn432 2.297 . S
O448 C435 1.236 . S
N449 Mn433 2.282 1_556 S
N449 C450 1.328 . S
N449 C454 1.318 . S
C450 N449 1.328 . S
C450 C451 1.457 . S
C450 H455 0.929 . S
C451 C450 1.457 . S
C451 C452 1.291 . S
C451 H464 0.931 . S
C452 C451 1.291 . S
C452 C453 1.373 . S
C452 H465 0.929 . S
C453 C452 1.373 . S
C453 C454 1.396 . S
C453 C460 1.403 . S
C454 C444 1.476 1_556 S
C454 N449 1.318 . S
C454 C453 1.396 . S
H455 C450 0.929 . S
O456 Mn432 2.385 . S
O456 C434 1.234 . S
O457 Mn432 2.209 . S
O457 Mn433 2.215 . S
O457 C434 1.283 . S
O458 Mn432 2.094 . S
O458 C436 1.240 1_554 S
O459 Mn433 2.117 1_556 S
O459 C436 1.264 . S
C460 C453 1.403 . S
C460 C461 1.384 1_556 S
C460 H466 0.929 . S
C461 C441 1.468 . S
C461 C460 1.384 1_554 S
C461 H467 0.928 . S
H462 C442 0.931 . S
H463 C443 0.930 . S
H464 C451 0.931 . S
H465 C452 0.929 . S
H466 C460 0.929 . S
H467 C461 0.928 . S
Mn468 O473 2.095 . S
Mn468 O483 2.162 . S
Mn468 O484 2.297 . S
Mn468 O492 2.385 . S
Mn468 O493 2.209 . S
Mn468 O494 2.094 . S
Mn469 O474 2.121 . S
Mn469 N476 2.257 . S
Mn469 N485 2.282 . S
Mn469 O493 2.215 . S
Mn469 O495 2.117 . S
C470 O492 1.234 . S
C470 O493 1.283 . S
C471 O483 1.281 . S
C471 O484 1.236 . S
C472 O494 1.240 . S
C472 O495 1.264 . S
O473 Mn468 2.095 . S
O473 C482 1.250 . S
O474 Mn469 2.121 . S
O474 C482 1.258 . S
C475 N476 1.326 . S
C475 C479 1.460 . S
C475 H481 0.929 . S
N476 Mn469 2.257 . S
N476 C475 1.326 . S
N476 C480 1.362 . S
C477 C478 1.258 . S
C477 C480 1.431 . S
C477 C497 1.438 1_554 S
C478 C477 1.258 . S
C478 C479 1.477 . S
C478 H498 0.931 . S
C479 C475 1.460 . S
C479 C478 1.477 . S
C479 H499 0.930 . S
C480 N476 1.362 . S
C480 C477 1.431 . S
C480 C490 1.476 . S
H481 C475 0.929 . S
C482 O473 1.250 . S
C482 O474 1.258 . S
O483 Mn468 2.162 . S
O483 C471 1.281 . S
O484 Mn468 2.297 . S
O484 C471 1.236 . S
N485 Mn469 2.282 . S
N485 C486 1.328 1_554 S
N485 C490 1.318 . S
C486 N485 1.328 1_556 S
C486 C487 1.457 . S
C486 H491 0.929 . S
C487 C486 1.457 . S
C487 C488 1.291 . S
C487 H500 0.931 . S
C488 C487 1.291 . S
C488 C489 1.373 . S
C488 H501 0.929 . S
C489 C488 1.373 . S
C489 C490 1.396 1_556 S
C489 C496 1.403 . S
C490 C480 1.476 . S
C490 N485 1.318 . S
C490 C489 1.396 1_554 S
H491 C486 0.929 . S
O492 Mn468 2.385 . S
O492 C470 1.234 . S
O493 Mn468 2.209 . S
O493 Mn469 2.215 . S
O493 C470 1.283 . S
O494 Mn468 2.094 . S
O494 C472 1.240 . S
O495 Mn469 2.117 . S
O495 C472 1.264 . S
C496 C489 1.403 . S
C496 C497 1.412 . S
C496 H502 0.929 . S
C497 C477 1.438 1_556 S
C497 C496 1.412 . S
C497 H503 0.928 . S
H498 C478 0.931 . S
H499 C479 0.930 . S
H500 C487 0.931 . S
H501 C488 0.929 . S
H502 C496 0.929 . S
H503 C497 0.928 . S
Mn504 O509 2.095 . S
Mn504 O519 2.162 . S
Mn504 O520 2.297 . S
Mn504 O528 2.385 . S
Mn504 O529 2.209 . S
Mn504 O530 2.094 . S
Mn505 O510 2.121 . S
Mn505 N512 2.257 . S
Mn505 N521 2.282 . S
Mn505 O529 2.215 . S
Mn505 O531 2.117 . S
C506 O528 1.234 . S
C506 O529 1.283 . S
C507 O519 1.281 . S
C507 O520 1.236 . S
C508 O530 1.240 . S
C508 O531 1.264 . S
O509 Mn504 2.095 . S
O509 C518 1.250 . S
O510 Mn505 2.121 . S
O510 C518 1.258 . S
C511 N512 1.326 . S
C511 C515 1.460 . S
C511 H517 0.929 . S
N512 Mn505 2.257 . S
N512 C511 1.326 . S
N512 C516 1.362 . S
C513 C514 1.258 . S
C513 C516 1.431 . S
C513 C533 1.449 . S
C514 C513 1.258 . S
C514 C515 1.477 . S
C514 H534 0.931 . S
C515 C511 1.460 . S
C515 C514 1.477 . S
C515 H535 0.930 . S
C516 N512 1.362 . S
C516 C513 1.431 . S
C516 C526 1.476 . S
H517 C511 0.929 . S
C518 O509 1.250 . S
C518 O510 1.258 . S
O519 Mn504 2.162 . S
O519 C507 1.281 . S
O520 Mn504 2.297 . S
O520 C507 1.236 . S
N521 Mn505 2.282 . S
N521 C522 1.328 . S
N521 C526 1.318 . S
C522 N521 1.328 . S
C522 C523 1.457 . S
C522 H527 0.929 . S
C523 C522 1.457 . S
C523 C524 1.291 . S
C523 H536 0.931 . S
C524 C523 1.291 . S
C524 C525 1.373 . S
C524 H537 0.929 . S
C525 C524 1.373 . S
C525 C526 1.396 . S
C525 C532 1.403 . S
C526 C516 1.476 . S
C526 N521 1.318 . S
C526 C525 1.396 . S
H527 C522 0.929 . S
O528 Mn504 2.385 . S
O528 C506 1.234 . S
O529 Mn504 2.209 . S
O529 Mn505 2.215 . S
O529 C506 1.283 . S
O530 Mn504 2.094 . S
O530 C508 1.240 . S
O531 Mn505 2.117 . S
O531 C508 1.264 . S
C532 C525 1.403 . S
C532 C533 1.399 . S
C532 H538 0.929 . S
C533 C513 1.449 . S
C533 C532 1.399 . S
C533 H539 0.930 . S
H534 C514 0.931 . S
H535 C515 0.930 . S
H536 C523 0.931 . S
H537 C524 0.929 . S
H538 C532 0.929 . S
H539 C533 0.930 . S
Mn540 O545 2.095 . S
Mn540 O555 2.162 . S
Mn540 O556 2.297 . S
Mn540 O564 2.385 . S
Mn540 O565 2.209 . S
Mn540 O566 2.094 . S
Mn541 O546 2.121 . S
Mn541 N548 2.257 . S
Mn541 N557 2.282 . S
Mn541 O565 2.215 . S
Mn541 O567 2.117 . S
C542 O564 1.234 . S
C542 O565 1.283 . S
C543 O555 1.281 . S
C543 O556 1.236 . S
C544 O566 1.240 . S
C544 O567 1.264 . S
O545 Mn540 2.095 . S
O545 C554 1.250 . S
O546 Mn541 2.121 . S
O546 C554 1.258 . S
C547 N548 1.326 . S
C547 C551 1.460 . S
C547 H553 0.929 . S
N548 Mn541 2.257 . S
N548 C547 1.326 . S
N548 C552 1.362 . S
C549 C550 1.258 . S
C549 C552 1.431 . S
C549 C569 1.449 . S
C550 C549 1.258 . S
C550 C551 1.477 . S
C550 H570 0.931 1_565 S
C551 C547 1.460 . S
C551 C550 1.477 . S
C551 H571 0.930 . S
C552 N548 1.362 . S
C552 C549 1.431 . S
C552 C562 1.476 . S
H553 C547 0.929 . S
C554 O545 1.250 . S
C554 O546 1.258 . S
O555 Mn540 2.162 . S
O555 C543 1.281 . S
O556 Mn540 2.297 . S
O556 C543 1.236 . S
N557 Mn541 2.282 . S
N557 C558 1.328 . S
N557 C562 1.318 . S
C558 N557 1.328 . S
C558 C559 1.457 . S
C558 H563 0.929 . S
C559 C558 1.457 . S
C559 C560 1.291 . S
C559 H572 0.931 . S
C560 C559 1.291 . S
C560 C561 1.373 . S
C560 H573 0.929 . S
C561 C560 1.373 . S
C561 C562 1.396 . S
C561 C568 1.403 . S
C562 C552 1.476 . S
C562 N557 1.318 . S
C562 C561 1.396 . S
H563 C558 0.929 . S
O564 Mn540 2.385 . S
O564 C542 1.234 . S
O565 Mn540 2.209 . S
O565 Mn541 2.215 . S
O565 C542 1.283 . S
O566 Mn540 2.094 . S
O566 C544 1.240 . S
O567 Mn541 2.117 . S
O567 C544 1.264 . S
C568 C561 1.403 . S
C568 C569 1.399 . S
C568 H574 0.929 . S
C569 C549 1.449 . S
C569 C568 1.399 . S
C569 H575 0.930 1_565 S
H570 C550 0.931 1_545 S
H571 C551 0.930 . S
H572 C559 0.931 . S
H573 C560 0.929 . S
H574 C568 0.929 . S
H575 C569 0.930 1_545 S
Mn576 O581 2.095 . S
Mn576 O591 2.162 . S
Mn576 O592 2.297 . S
Mn576 O600 2.385 1_545 S
Mn576 O601 2.209 . S
Mn576 O602 2.094 . S
Mn577 O582 2.121 . S
Mn577 N584 2.257 . S
Mn577 N593 2.282 1_545 S
Mn577 O601 2.215 . S
Mn577 O603 2.117 . S
C578 O600 1.234 . S
C578 O601 1.283 1_565 S
C579 O591 1.281 . S
C579 O592 1.236 . S
C580 O602 1.240 . S
C580 O603 1.264 . S
O581 Mn576 2.095 . S
O581 C590 1.250 . S
O582 Mn577 2.121 . S
O582 C590 1.258 . S
C583 N584 1.326 . S
C583 C587 1.460 . S
C583 H589 0.929 . S
N584 Mn577 2.257 . S
N584 C583 1.326 . S
N584 C588 1.362 1_545 S
C585 C586 1.258 . S
C585 C588 1.431 . S
C585 C605 1.449 . S
C586 C585 1.258 . S
C586 C587 1.477 1_565 S
C586 H606 0.931 . S
C587 C583 1.460 . S
C587 C586 1.477 1_545 S
C587 H607 0.930 . S
C588 N584 1.362 1_565 S
C588 C585 1.431 . S
C588 C598 1.476 . S
H589 C583 0.929 . S
C590 O581 1.250 . S
C590 O582 1.258 . S
O591 Mn576 2.162 . S
O591 C579 1.281 . S
O592 Mn576 2.297 . S
O592 C579 1.236 . S
N593 Mn577 2.282 1_565 S
N593 C594 1.328 . S
N593 C598 1.318 . S
C594 N593 1.328 . S
C594 C595 1.457 . S
C594 H599 0.929 . S
C595 C594 1.457 . S
C595 C596 1.291 . S
C595 H608 0.931 . S
C596 C595 1.291 . S
C596 C597 1.373 . S
C596 H609 0.929 . S
C597 C596 1.373 . S
C597 C598 1.396 . S
C597 C604 1.403 . S
C598 C588 1.476 . S
C598 N593 1.318 . S
C598 C597 1.396 . S
H599 C594 0.929 . S
O600 Mn576 2.385 1_565 S
O600 C578 1.234 . S
O601 Mn576 2.209 . S
O601 Mn577 2.215 . S
O601 C578 1.283 1_545 S
O602 Mn576 2.094 . S
O602 C580 1.240 . S
O603 Mn577 2.117 . S
O603 C580 1.264 . S
C604 C597 1.403 . S
C604 C605 1.399 . S
C604 H610 0.929 . S
C605 C585 1.449 . S
C605 C604 1.399 . S
C605 H611 0.930 . S
H606 C586 0.931 . S
H607 C587 0.930 . S
H608 C595 0.931 . S
H609 C596 0.929 . S
H610 C604 0.929 . S
H611 C605 0.930 . S
Mn612 O617 2.095 . S
Mn612 O627 2.162 . S
Mn612 O628 2.297 . S
Mn612 O636 2.385 . S
Mn612 O637 2.209 . S
Mn612 O638 2.094 . S
Mn613 O618 2.121 . S
Mn613 N620 2.257 . S
Mn613 N629 2.282 . S
Mn613 O637 2.215 . S
Mn613 O639 2.117 . S
C614 O636 1.234 . S
C614 O637 1.283 . S
C615 O627 1.281 . S
C615 O628 1.236 . S
C616 O638 1.240 . S
C616 O639 1.264 . S
O617 Mn612 2.095 . S
O617 C626 1.250 . S
O618 Mn613 2.121 . S
O618 C626 1.258 . S
C619 N620 1.326 . S
C619 C623 1.460 . S
C619 H625 0.929 . S
N620 Mn613 2.257 . S
N620 C619 1.326 . S
N620 C624 1.362 . S
C621 C622 1.258 . S
C621 C624 1.431 . S
C621 C641 1.449 . S
C622 C621 1.258 . S
C622 C623 1.477 . S
C622 H642 0.931 . S
C623 C619 1.460 . S
C623 C622 1.477 . S
C623 H643 0.930 . S
C624 N620 1.362 . S
C624 C621 1.431 . S
C624 C634 1.476 . S
H625 C619 0.929 . S
C626 O617 1.250 . S
C626 O618 1.258 . S
O627 Mn612 2.162 . S
O627 C615 1.281 . S
O628 Mn612 2.297 . S
O628 C615 1.236 . S
N629 Mn613 2.282 . S
N629 C630 1.328 . S
N629 C634 1.318 . S
C630 N629 1.328 . S
C630 C631 1.457 . S
C630 H635 0.929 . S
C631 C630 1.457 . S
C631 C632 1.291 . S
C631 H644 0.931 . S
C632 C631 1.291 . S
C632 C633 1.373 . S
C632 H645 0.929 . S
C633 C632 1.373 . S
C633 C634 1.396 . S
C633 C640 1.403 . S
C634 C624 1.476 . S
C634 N629 1.318 . S
C634 C633 1.396 . S
H635 C630 0.929 . S
O636 Mn612 2.385 . S
O636 C614 1.234 . S
O637 Mn612 2.209 . S
O637 Mn613 2.215 . S
O637 C614 1.283 . S
O638 Mn612 2.094 . S
O638 C616 1.240 . S
O639 Mn613 2.117 . S
O639 C616 1.264 . S
C640 C633 1.403 . S
C640 C641 1.399 . S
C640 H646 0.929 . S
C641 C621 1.449 . S
C641 C640 1.399 . S
C641 H647 0.930 . S
H642 C622 0.931 . S
H643 C623 0.930 . S
H644 C631 0.931 . S
H645 C632 0.929 . S
H646 C640 0.929 . S
H647 C641 0.930 . S
Mn648 O653 2.095 . S
Mn648 O663 2.162 . S
Mn648 O664 2.297 . S
Mn648 O672 2.385 . S
Mn648 O673 2.209 . S
Mn648 O674 2.094 . S
Mn649 O654 2.121 . S
Mn649 N656 2.257 . S
Mn649 N665 2.282 . S
Mn649 O673 2.215 . S
Mn649 O675 2.117 . S
C650 O672 1.234 . S
C650 O673 1.283 . S
C651 O663 1.281 . S
C651 O664 1.236 . S
C652 O674 1.240 . S
C652 O675 1.264 . S
O653 Mn648 2.095 . S
O653 C662 1.250 . S
O654 Mn649 2.121 . S
O654 C662 1.258 . S
C655 N656 1.326 . S
C655 C659 1.460 . S
C655 H661 0.929 . S
N656 Mn649 2.257 . S
N656 C655 1.326 . S
N656 C660 1.362 . S
C657 C658 1.258 . S
C657 C660 1.431 . S
C657 C677 1.449 . S
C658 C657 1.258 . S
C658 C659 1.477 . S
C658 H678 0.931 . S
C659 C655 1.460 . S
C659 C658 1.477 . S
C659 H679 0.930 . S
C660 N656 1.362 . S
C660 C657 1.431 . S
C660 C670 1.476 . S
H661 C655 0.929 . S
C662 O653 1.250 . S
C662 O654 1.258 . S
O663 Mn648 2.162 . S
O663 C651 1.281 . S
O664 Mn648 2.297 . S
O664 C651 1.236 . S
N665 Mn649 2.282 . S
N665 C666 1.328 . S
N665 C670 1.318 . S
C666 N665 1.328 . S
C666 C667 1.457 . S
C666 H671 0.929 . S
C667 C666 1.457 . S
C667 C668 1.291 . S
C667 H680 0.931 . S
C668 C667 1.291 . S
C668 C669 1.373 . S
C668 H681 0.929 . S
C669 C668 1.373 . S
C669 C670 1.396 . S
C669 C676 1.403 . S
C670 C660 1.476 . S
C670 N665 1.318 . S
C670 C669 1.396 . S
H671 C666 0.929 . S
O672 Mn648 2.385 . S
O672 C650 1.234 . S
O673 Mn648 2.209 . S
O673 Mn649 2.215 . S
O673 C650 1.283 . S
O674 Mn648 2.094 . S
O674 C652 1.240 . S
O675 Mn649 2.117 . S
O675 C652 1.264 . S
C676 C669 1.403 . S
C676 C677 1.399 . S
C676 H682 0.929 . S
C677 C657 1.449 . S
C677 C676 1.399 . S
C677 H683 0.930 . S
H678 C658 0.931 . S
H679 C659 0.930 . S
H680 C667 0.931 . S
H681 C668 0.929 . S
H682 C676 0.929 . S
H683 C677 0.930 . S
Mn684 O689 2.095 . S
Mn684 O699 2.162 . S
Mn684 O700 2.297 . S
Mn684 O708 2.385 . S
Mn684 O709 2.209 . S
Mn684 O710 2.094 . S
Mn685 O690 2.121 . S
Mn685 N692 2.257 . S
Mn685 N701 2.282 . S
Mn685 O709 2.215 . S
Mn685 O711 2.117 . S
C686 O708 1.234 . S
C686 O709 1.283 . S
C687 O699 1.281 . S
C687 O700 1.236 . S
C688 O710 1.240 . S
C688 O711 1.264 . S
O689 Mn684 2.095 . S
O689 C698 1.250 . S
O690 Mn685 2.121 . S
O690 C698 1.258 . S
C691 N692 1.326 . S
C691 C695 1.460 . S
C691 H697 0.929 . S
N692 Mn685 2.257 . S
N692 C691 1.326 . S
N692 C696 1.362 . S
C693 C694 1.258 . S
C693 C696 1.431 . S
C693 C713 1.449 . S
C694 C693 1.258 . S
C694 C695 1.477 . S
C694 H714 0.931 . S
C695 C691 1.460 . S
C695 C694 1.477 . S
C695 H715 0.930 . S
C696 N692 1.362 . S
C696 C693 1.431 . S
C696 C706 1.476 . S
H697 C691 0.929 . S
C698 O689 1.250 . S
C698 O690 1.258 . S
O699 Mn684 2.162 . S
O699 C687 1.281 . S
O700 Mn684 2.297 . S
O700 C687 1.236 . S
N701 Mn685 2.282 . S
N701 C702 1.328 . S
N701 C706 1.318 . S
C702 N701 1.328 . S
C702 C703 1.457 . S
C702 H707 0.929 . S
C703 C702 1.457 . S
C703 C704 1.291 . S
C703 H716 0.931 . S
C704 C703 1.291 . S
C704 C705 1.373 . S
C704 H717 0.929 . S
C705 C704 1.373 . S
C705 C706 1.396 . S
C705 C712 1.403 . S
C706 C696 1.476 . S
C706 N701 1.318 . S
C706 C705 1.396 . S
H707 C702 0.929 . S
O708 Mn684 2.385 . S
O708 C686 1.234 . S
O709 Mn684 2.209 . S
O709 Mn685 2.215 . S
O709 C686 1.283 . S
O710 Mn684 2.094 . S
O710 C688 1.240 . S
O711 Mn685 2.117 . S
O711 C688 1.264 . S
C712 C705 1.403 . S
C712 C713 1.399 . S
C712 H718 0.929 . S
C713 C693 1.449 . S
C713 C712 1.399 . S
C713 H719 0.930 . S
H714 C694 0.931 . S
H715 C695 0.930 . S
H716 C703 0.931 . S
H717 C704 0.929 . S
H718 C712 0.929 . S
H719 C713 0.930 . S
Mn720 O725 2.095 . S
Mn720 O735 2.162 . S
Mn720 O736 2.297 . S
Mn720 O744 2.385 . S
Mn720 O745 2.209 . S
Mn720 O746 2.094 . S
Mn721 O726 2.121 1_556 S
Mn721 N728 2.257 . S
Mn721 N737 2.282 . S
Mn721 O745 2.215 1_556 S
Mn721 O747 2.117 . S
C722 O744 1.234 . S
C722 O745 1.283 . S
C723 O735 1.281 . S
C723 O736 1.236 . S
C724 O746 1.240 1_556 S
C724 O747 1.264 . S
O725 Mn720 2.095 . S
O725 C734 1.250 . S
O726 Mn721 2.121 1_554 S
O726 C734 1.258 . S
C727 N728 1.326 . S
C727 C731 1.460 . S
C727 H733 0.929 1_556 S
N728 Mn721 2.257 . S
N728 C727 1.326 . S
N728 C732 1.362 . S
C729 C730 1.258 . S
C729 C732 1.431 . S
C729 C749 1.449 . S
C730 C729 1.258 . S
C730 C731 1.477 . S
C730 H750 0.931 . S
C731 C727 1.460 . S
C731 C730 1.477 . S
C731 H751 0.930 1_556 S
C732 N728 1.362 . S
C732 C729 1.431 . S
C732 C742 1.476 . S
H733 C727 0.929 1_554 S
C734 O725 1.250 . S
C734 O726 1.258 . S
O735 Mn720 2.162 . S
O735 C723 1.281 . S
O736 Mn720 2.297 . S
O736 C723 1.236 . S
N737 Mn721 2.282 . S
N737 C738 1.328 . S
N737 C742 1.318 . S
C738 N737 1.328 . S
C738 C739 1.457 . S
C738 H743 0.929 . S
C739 C738 1.457 . S
C739 C740 1.291 . S
C739 H752 0.931 . S
C740 C739 1.291 . S
C740 C741 1.373 . S
C740 H753 0.929 . S
C741 C740 1.373 . S
C741 C742 1.396 . S
C741 C748 1.403 . S
C742 C732 1.476 . S
C742 N737 1.318 . S
C742 C741 1.396 . S
H743 C738 0.929 . S
O744 Mn720 2.385 . S
O744 C722 1.234 . S
O745 Mn720 2.209 . S
O745 Mn721 2.215 1_554 S
O745 C722 1.283 . S
O746 Mn720 2.094 . S
O746 C724 1.240 1_554 S
O747 Mn721 2.117 . S
O747 C724 1.264 . S
C748 C741 1.403 . S
C748 C749 1.399 . S
C748 H754 0.929 . S
C749 C729 1.449 . S
C749 C748 1.399 . S
C749 H755 0.930 . S
H750 C730 0.931 . S
H751 C731 0.930 1_554 S
H752 C739 0.931 . S
H753 C740 0.929 . S
H754 C748 0.929 . S
H755 C749 0.930 . S
Mn756 O761 2.095 . S
Mn756 O771 2.162 . S
Mn756 O772 2.297 . S
Mn756 O780 2.385 . S
Mn756 O781 2.209 . S
Mn756 O782 2.094 . S
Mn757 O762 2.121 . S
Mn757 N764 2.257 . S
Mn757 N773 2.282 . S
Mn757 O781 2.215 . S
Mn757 O783 2.117 . S
C758 O780 1.234 . S
C758 O781 1.283 . S
C759 O771 1.281 . S
C759 O772 1.236 . S
C760 O782 1.240 . S
C760 O783 1.264 . S
O761 Mn756 2.095 . S
O761 C770 1.250 . S
O762 Mn757 2.121 . S
O762 C770 1.258 . S
C763 N764 1.326 . S
C763 C767 1.460 . S
C763 H769 0.929 . S
N764 Mn757 2.257 . S
N764 C763 1.326 . S
N764 C768 1.362 . S
C765 C766 1.258 . S
C765 C768 1.431 . S
C765 C785 1.449 . S
C766 C765 1.258 . S
C766 C767 1.477 . S
C766 H786 0.931 . S
C767 C763 1.460 . S
C767 C766 1.477 . S
C767 H787 0.930 . S
C768 N764 1.362 . S
C768 C765 1.431 . S
C768 C778 1.476 . S
H769 C763 0.929 . S
C770 O761 1.250 . S
C770 O762 1.258 . S
O771 Mn756 2.162 . S
O771 C759 1.281 . S
O772 Mn756 2.297 . S
O772 C759 1.236 . S
N773 Mn757 2.282 . S
N773 C774 1.328 . S
N773 C778 1.318 . S
C774 N773 1.328 . S
C774 C775 1.457 . S
C774 H779 0.929 . S
C775 C774 1.457 . S
C775 C776 1.291 . S
C775 H788 0.931 . S
C776 C775 1.291 . S
C776 C777 1.373 . S
C776 H789 0.929 . S
C777 C776 1.373 . S
C777 C778 1.396 . S
C777 C784 1.403 . S
C778 C768 1.476 . S
C778 N773 1.318 . S
C778 C777 1.396 . S
H779 C774 0.929 . S
O780 Mn756 2.385 . S
O780 C758 1.234 . S
O781 Mn756 2.209 . S
O781 Mn757 2.215 . S
O781 C758 1.283 . S
O782 Mn756 2.094 . S
O782 C760 1.240 . S
O783 Mn757 2.117 . S
O783 C760 1.264 . S
C784 C777 1.403 . S
C784 C785 1.399 . S
C784 H790 0.929 . S
C785 C765 1.449 . S
C785 C784 1.399 . S
C785 H791 0.930 . S
H786 C766 0.931 . S
H787 C767 0.930 . S
H788 C775 0.931 . S
H789 C776 0.929 . S
H790 C784 0.929 . S
H791 C785 0.930 . S
Mn792 O797 2.095 . S
Mn792 O807 2.162 . S
Mn792 O808 2.297 . S
Mn792 O816 2.385 . S
Mn792 O817 2.209 . S
Mn792 O818 2.094 . S
Mn793 O798 2.121 . S
Mn793 N800 2.257 . S
Mn793 N809 2.282 . S
Mn793 O817 2.215 . S
Mn793 O819 2.117 . S
C794 O816 1.234 . S
C794 O817 1.283 . S
C795 O807 1.281 . S
C795 O808 1.236 . S
C796 O818 1.240 . S
C796 O819 1.264 . S
O797 Mn792 2.095 . S
O797 C806 1.250 . S
O798 Mn793 2.121 . S
O798 C806 1.258 . S
C799 N800 1.326 . S
C799 C803 1.460 . S
C799 H805 0.929 . S
N800 Mn793 2.257 . S
N800 C799 1.326 . S
N800 C804 1.362 . S
C801 C802 1.258 . S
C801 C804 1.431 . S
C801 C821 1.449 . S
C802 C801 1.258 . S
C802 C803 1.477 . S
C802 H822 0.931 . S
C803 C799 1.460 . S
C803 C802 1.477 . S
C803 H823 0.930 . S
C804 N800 1.362 . S
C804 C801 1.431 . S
C804 C814 1.476 . S
H805 C799 0.929 . S
C806 O797 1.250 . S
C806 O798 1.258 . S
O807 Mn792 2.162 . S
O807 C795 1.281 . S
O808 Mn792 2.297 . S
O808 C795 1.236 . S
N809 Mn793 2.282 . S
N809 C810 1.328 . S
N809 C814 1.318 . S
C810 N809 1.328 . S
C810 C811 1.457 . S
C810 H815 0.929 . S
C811 C810 1.457 . S
C811 C812 1.291 . S
C811 H824 0.931 . S
C812 C811 1.291 . S
C812 C813 1.373 . S
C812 H825 0.929 . S
C813 C812 1.373 . S
C813 C814 1.396 . S
C813 C820 1.403 . S
C814 C804 1.476 . S
C814 N809 1.318 . S
C814 C813 1.396 . S
H815 C810 0.929 . S
O816 Mn792 2.385 . S
O816 C794 1.234 . S
O817 Mn792 2.209 . S
O817 Mn793 2.215 . S
O817 C794 1.283 . S
O818 Mn792 2.094 . S
O818 C796 1.240 . S
O819 Mn793 2.117 . S
O819 C796 1.264 . S
C820 C813 1.403 . S
C820 C821 1.399 . S
C820 H826 0.929 . S
C821 C801 1.449 . S
C821 C820 1.399 . S
C821 H827 0.930 . S
H822 C802 0.931 . S
H823 C803 0.930 . S
H824 C811 0.931 . S
H825 C812 0.929 . S
H826 C820 0.929 . S
H827 C821 0.930 . S
Mn828 O833 2.095 . S
Mn828 O843 2.162 . S
Mn828 O844 2.297 . S
Mn828 O852 2.385 . S
Mn828 O853 2.209 . S
Mn828 O854 2.094 . S
Mn829 O834 2.121 . S
Mn829 N836 2.257 . S
Mn829 N845 2.282 . S
Mn829 O853 2.215 . S
Mn829 O855 2.117 . S
C830 O852 1.234 . S
C830 O853 1.283 . S
C831 O843 1.281 . S
C831 O844 1.236 . S
C832 O854 1.240 . S
C832 O855 1.264 . S
O833 Mn828 2.095 . S
O833 C842 1.250 . S
O834 Mn829 2.121 . S
O834 C842 1.258 . S
C835 N836 1.326 . S
C835 C839 1.460 . S
C835 H841 0.929 . S
N836 Mn829 2.257 . S
N836 C835 1.326 . S
N836 C840 1.362 . S
C837 C838 1.258 . S
C837 C840 1.431 . S
C837 C857 1.449 . S
C838 C837 1.258 . S
C838 C839 1.477 . S
C838 H858 0.931 . S
C839 C835 1.460 . S
C839 C838 1.477 . S
C839 H859 0.930 . S
C840 N836 1.362 . S
C840 C837 1.431 . S
C840 C850 1.476 . S
H841 C835 0.929 . S
C842 O833 1.250 . S
C842 O834 1.258 . S
O843 Mn828 2.162 . S
O843 C831 1.281 . S
O844 Mn828 2.297 . S
O844 C831 1.236 . S
N845 Mn829 2.282 . S
N845 C846 1.328 . S
N845 C850 1.318 . S
C846 N845 1.328 . S
C846 C847 1.457 . S
C846 H851 0.929 . S
C847 C846 1.457 . S
C847 C848 1.291 . S
C847 H860 0.931 . S
C848 C847 1.291 . S
C848 C849 1.373 . S
C848 H861 0.929 . S
C849 C848 1.373 . S
C849 C850 1.396 . S
C849 C856 1.403 . S
C850 C840 1.476 . S
C850 N845 1.318 . S
C850 C849 1.396 . S
H851 C846 0.929 . S
O852 Mn828 2.385 . S
O852 C830 1.234 . S
O853 Mn828 2.209 . S
O853 Mn829 2.215 . S
O853 C830 1.283 . S
O854 Mn828 2.094 . S
O854 C832 1.240 . S
O855 Mn829 2.117 . S
O855 C832 1.264 . S
C856 C849 1.403 . S
C856 C857 1.399 . S
C856 H862 0.929 . S
C857 C837 1.449 . S
C857 C856 1.399 . S
C857 H863 0.930 . S
H858 C838 0.931 . S
H859 C839 0.930 . S
H860 C847 0.931 . S
H861 C848 0.929 . S
H862 C856 0.929 . S
H863 C857 0.930 . S
Dy864 O867 2.307 . S
Dy864 O869 2.395 . S
Dy864 O870 2.379 . S
Dy864 O872 2.339 . S
Dy864 O874 2.298 . S
Dy864 O878 2.275 . S
Dy864 C886 2.738 . S
Dy865 O868 2.298 1_655 S
Dy865 O871 2.275 1_655 S
Dy865 O873 2.307 1_645 S
Dy865 O875 2.395 . S
Dy865 O876 2.379 1_554 S
Dy865 O879 2.339 1_654 S
Dy865 C895 2.738 . S
C866 O878 1.254 1_556 S
C866 O879 1.257 . S
O867 Dy864 2.307 . S
O867 C877 1.266 . S
O868 Dy865 2.298 1_455 S
O868 C877 1.236 . S
O869 Dy864 2.395 . S
O869 C886 1.255 . S
O870 Dy864 2.379 . S
O870 C886 1.249 . S
O871 Dy865 2.275 1_455 S
O871 C887 1.254 . S
O872 Dy864 2.339 . S
O872 C887 1.257 . S
O873 Dy865 2.307 1_465 S
O873 C888 1.266 . S
O874 Dy864 2.298 . S
O874 C888 1.236 1_545 S
O875 Dy865 2.395 . S
O875 C895 1.255 . S
O876 Dy865 2.379 1_556 S
O876 C895 1.249 1_556 S
C877 O867 1.266 . S
C877 O868 1.236 . S
O878 Dy864 2.275 . S
O878 C866 1.254 1_554 S
O879 Dy865 2.339 1_456 S
O879 C866 1.257 . S
C880 C883 1.344 . S
C880 C884 1.328 . S
C880 C886 1.516 . S
C881 C882 1.304 1_545 S
C881 C885 1.323 . S
C882 C881 1.304 1_565 S
C882 C883 1.371 1_565 S
C882 H896 0.930 . S
C883 C880 1.344 . S
C883 C882 1.371 1_545 S
C883 H897 0.931 1_545 S
C884 C880 1.328 . S
C884 C885 1.433 . S
C884 H898 0.931 . S
C885 C881 1.323 . S
C885 C884 1.433 . S
C885 H899 0.933 . S
C886 Dy864 2.738 . S
C886 O869 1.255 . S
C886 O870 1.249 . S
C886 C880 1.516 . S
C887 O871 1.254 . S
C887 O872 1.257 . S
C888 O873 1.266 . S
C888 O874 1.236 1_565 S
C889 C892 1.344 . S
C889 C893 1.328 1_554 S
C889 C895 1.516 . S
C890 C891 1.304 . S
C890 C894 1.323 1_554 S
C891 C890 1.304 . S
C891 C892 1.371 . S
C891 H900 0.930 . S
C892 C889 1.344 . S
C892 C891 1.371 . S
C892 H901 0.931 . S
C893 C889 1.328 1_556 S
C893 C894 1.433 . S
C893 H902 0.931 . S
C894 C890 1.323 1_556 S
C894 C893 1.433 . S
C894 H903 0.933 . S
C895 Dy865 2.738 . S
C895 O875 1.255 . S
C895 O876 1.249 1_554 S
C895 C889 1.516 . S
H896 C882 0.930 . S
H897 C883 0.931 1_565 S
H898 C884 0.931 . S
H899 C885 0.933 . S
H900 C891 0.930 . S
H901 C892 0.931 . S
H902 C893 0.931 . S
H903 C894 0.933 . S
Dy904 O907 2.307 . S
Dy904 O909 2.395 . S
Dy904 O910 2.379 . S
Dy904 O912 2.339 . S
Dy904 O914 2.298 . S
Dy904 O918 2.275 . S
Dy904 C926 2.738 . S
Dy905 O908 2.298 . S
Dy905 O911 2.275 . S
Dy905 O913 2.307 . S
Dy905 O915 2.395 . S
Dy905 O916 2.379 . S
Dy905 O919 2.339 . S
Dy905 C935 2.738 . S
C906 O918 1.254 . S
C906 O919 1.257 . S
O907 Dy904 2.307 . S
O907 C917 1.266 . S
O908 Dy905 2.298 . S
O908 C917 1.236 . S
O909 Dy904 2.395 . S
O909 C926 1.255 . S
O910 Dy904 2.379 . S
O910 C926 1.249 . S
O911 Dy905 2.275 . S
O911 C927 1.254 . S
O912 Dy904 2.339 . S
O912 C927 1.257 . S
O913 Dy905 2.307 . S
O913 C928 1.266 . S
O914 Dy904 2.298 . S
O914 C928 1.236 . S
O915 Dy905 2.395 . S
O915 C935 1.255 . S
O916 Dy905 2.379 . S
O916 C935 1.249 . S
C917 O907 1.266 . S
C917 O908 1.236 . S
O918 Dy904 2.275 . S
O918 C906 1.254 . S
O919 Dy905 2.339 . S
O919 C906 1.257 . S
C920 C923 1.344 . S
C920 C924 1.328 . S
C920 C926 1.516 . S
C921 C922 1.304 . S
C921 C925 1.323 . S
C922 C921 1.304 . S
C922 C923 1.371 . S
C922 H936 0.930 . S
C923 C920 1.344 . S
C923 C922 1.371 . S
C923 H937 0.931 . S
C924 C920 1.328 . S
C924 C925 1.433 . S
C924 H938 0.931 . S
C925 C921 1.323 . S
C925 C924 1.433 . S
C925 H939 0.933 . S
C926 Dy904 2.738 . S
C926 O909 1.255 . S
C926 O910 1.249 . S
C926 C920 1.516 . S
C927 O911 1.254 . S
C927 O912 1.257 . S
C928 O913 1.266 . S
C928 O914 1.236 . S
C929 C932 1.344 . S
C929 C933 1.328 . S
C929 C935 1.516 . S
C930 C931 1.304 . S
C930 C934 1.323 . S
C931 C930 1.304 . S
C931 C932 1.371 . S
C931 H940 0.930 . S
C932 C929 1.344 . S
C932 C931 1.371 . S
C932 H941 0.931 . S
C933 C929 1.328 . S
C933 C934 1.433 . S
C933 H942 0.931 . S
C934 C930 1.323 . S
C934 C933 1.433 . S
C934 H943 0.933 . S
C935 Dy905 2.738 . S
C935 O915 1.255 . S
C935 O916 1.249 . S
C935 C929 1.516 . S
H936 C922 0.930 . S
H937 C923 0.931 . S
H938 C924 0.931 . S
H939 C925 0.933 . S
H940 C931 0.930 . S
H941 C932 0.931 . S
H942 C933 0.931 . S
H943 C934 0.933 . S
Dy944 O947 2.307 . S
Dy944 O949 2.395 . S
Dy944 O950 2.379 . S
Dy944 O952 2.339 . S
Dy944 O954 2.298 . S
Dy944 O958 2.275 . S
Dy944 C966 2.738 . S
Dy945 O948 2.298 . S
Dy945 O951 2.275 . S
Dy945 O953 2.307 . S
Dy945 O955 2.395 . S
Dy945 O956 2.379 . S
Dy945 O959 2.339 . S
Dy945 C975 2.738 . S
C946 O958 1.254 . S
C946 O959 1.257 . S
O947 Dy944 2.307 . S
O947 C957 1.266 1_545 S
O948 Dy945 2.298 . S
O948 C957 1.236 1_545 S
O949 Dy944 2.395 . S
O949 C966 1.255 . S
O950 Dy944 2.379 . S
O950 C966 1.249 . S
O951 Dy945 2.275 . S
O951 C967 1.254 . S
O952 Dy944 2.339 . S
O952 C967 1.257 . S
O953 Dy945 2.307 . S
O953 C968 1.266 . S
O954 Dy944 2.298 . S
O954 C968 1.236 . S
O955 Dy945 2.395 . S
O955 C975 1.255 . S
O956 Dy945 2.379 . S
O956 C975 1.249 . S
C957 O947 1.266 1_565 S
C957 O948 1.236 1_565 S
O958 Dy944 2.275 . S
O958 C946 1.254 . S
O959 Dy945 2.339 . S
O959 C946 1.257 . S
C960 C963 1.344 . S
C960 C964 1.328 . S
C960 C966 1.516 . S
C961 C962 1.304 . S
C961 C965 1.323 . S
C962 C961 1.304 . S
C962 C963 1.371 . S
C962 H976 0.930 . S
C963 C960 1.344 . S
C963 C962 1.371 . S
C963 H977 0.931 . S
C964 C960 1.328 . S
C964 C965 1.433 . S
C964 H978 0.931 . S
C965 C961 1.323 . S
C965 C964 1.433 . S
C965 H979 0.933 . S
C966 Dy944 2.738 . S
C966 O949 1.255 . S
C966 O950 1.249 . S
C966 C960 1.516 . S
C967 O951 1.254 . S
C967 O952 1.257 . S
C968 O953 1.266 . S
C968 O954 1.236 . S
C969 C972 1.327 1_545 S
C969 C973 1.328 . S
C969 C975 1.516 . S
C970 C971 1.304 . S
C970 C974 1.323 . S
C971 C970 1.304 . S
C971 C972 1.388 . S
C971 H980 0.930 . S
C972 C969 1.327 1_565 S
C972 C971 1.388 . S
C972 H981 0.931 . S
C973 C969 1.328 . S
C973 C974 1.433 1_545 S
C973 H982 0.931 . S
C974 C970 1.323 . S
C974 C973 1.433 1_565 S
C974 H983 0.933 . S
C975 Dy945 2.738 . S
C975 O955 1.255 . S
C975 O956 1.249 . S
C975 C969 1.516 . S
H976 C962 0.930 . S
H977 C963 0.931 . S
H978 C964 0.931 . S
H979 C965 0.933 . S
H980 C971 0.930 . S
H981 C972 0.931 . S
H982 C973 0.931 . S
H983 C974 0.933 . S
Dy984 O987 2.307 . S
Dy984 O989 2.395 . S
Dy984 O990 2.379 . S
Dy984 O992 2.339 . S
Dy984 O994 2.298 . S
Dy984 O998 2.275 . S
Dy984 C1006 2.738 . S
Dy985 O988 2.298 . S
Dy985 O991 2.275 . S
Dy985 O993 2.307 . S
Dy985 O995 2.395 . S
Dy985 O996 2.379 . S
Dy985 O999 2.339 . S
Dy985 C1015 2.738 . S
C986 O998 1.254 . S
C986 O999 1.257 . S
O987 Dy984 2.307 . S
O987 C997 1.266 . S
O988 Dy985 2.298 . S
O988 C997 1.236 . S
O989 Dy984 2.395 . S
O989 C1006 1.255 . S
O990 Dy984 2.379 . S
O990 C1006 1.249 . S
O991 Dy985 2.275 . S
O991 C1007 1.254 . S
O992 Dy984 2.339 . S
O992 C1007 1.257 . S
O993 Dy985 2.307 . S
O993 C1008 1.266 . S
O994 Dy984 2.298 . S
O994 C1008 1.236 . S
O995 Dy985 2.395 . S
O995 C1015 1.255 . S
O996 Dy985 2.379 . S
O996 C1015 1.249 . S
C997 O987 1.266 . S
C997 O988 1.236 . S
O998 Dy984 2.275 . S
O998 C986 1.254 . S
O999 Dy985 2.339 . S
O999 C986 1.257 . S
C1000 C1003 1.344 . S
C1000 C1004 1.328 . S
C1000 C1006 1.516 . S
C1001 C1002 1.304 . S
C1001 C1005 1.323 . S
C1002 C1001 1.304 . S
C1002 C1003 1.371 . S
C1002 H1016 0.930 . S
C1003 C1000 1.344 . S
C1003 C1002 1.371 . S
C1003 H1017 0.931 . S
C1004 C1000 1.328 . S
C1004 C1005 1.433 . S
C1004 H1018 0.931 . S
C1005 C1001 1.323 . S
C1005 C1004 1.433 . S
C1005 H1019 0.933 . S
C1006 Dy984 2.738 . S
C1006 O989 1.255 . S
C1006 O990 1.249 . S
C1006 C1000 1.516 . S
C1007 O991 1.254 . S
C1007 O992 1.257 . S
C1008 O993 1.266 . S
C1008 O994 1.236 . S
C1009 C1012 1.344 . S
C1009 C1013 1.328 . S
C1009 C1015 1.516 . S
C1010 C1011 1.304 . S
C1010 C1014 1.323 . S
C1011 C1010 1.304 . S
C1011 C1012 1.371 . S
C1011 H1020 0.930 . S
C1012 C1009 1.344 . S
C1012 C1011 1.371 . S
C1012 H1021 0.931 . S
C1013 C1009 1.328 . S
C1013 C1014 1.433 . S
C1013 H1022 0.931 . S
C1014 C1010 1.323 . S
C1014 C1013 1.433 . S
C1014 H1023 0.933 . S
C1015 Dy985 2.738 . S
C1015 O995 1.255 . S
C1015 O996 1.249 . S
C1015 C1009 1.516 . S
H1016 C1002 0.930 . S
H1017 C1003 0.931 . S
H1018 C1004 0.931 . S
H1019 C1005 0.933 . S
H1020 C1011 0.930 . S
H1021 C1012 0.931 . S
H1022 C1013 0.931 . S
H1023 C1014 0.933 . S
Dy1024 O1027 2.307 . S
Dy1024 O1029 2.395 1_545 S
Dy1024 O1030 2.379 1_545 S
Dy1024 O1032 2.339 . S
Dy1024 O1034 2.298 . S
Dy1024 O1038 2.275 . S
Dy1024 C1046 2.738 1_545 S
Dy1025 O1028 2.298 . S
Dy1025 O1031 2.275 . S
Dy1025 O1033 2.307 . S
Dy1025 O1035 2.395 . S
Dy1025 O1036 2.379 1_455 S
Dy1025 O1039 2.339 1_455 S
Dy1025 C1055 2.738 . S
C1026 O1038 1.254 1_655 S
C1026 O1039 1.257 . S
O1027 Dy1024 2.307 . S
O1027 C1037 1.266 . S
O1028 Dy1025 2.298 . S
O1028 C1037 1.236 . S
O1029 Dy1024 2.395 1_565 S
O1029 C1046 1.255 . S
O1030 Dy1024 2.379 1_565 S
O1030 C1046 1.249 . S
O1031 Dy1025 2.275 . S
O1031 C1047 1.254 . S
O1032 Dy1024 2.339 . S
O1032 C1047 1.257 . S
O1033 Dy1025 2.307 . S
O1033 C1048 1.266 . S
O1034 Dy1024 2.298 . S
O1034 C1048 1.236 . S
O1035 Dy1025 2.395 . S
O1035 C1055 1.255 . S
O1036 Dy1025 2.379 1_655 S
O1036 C1055 1.249 1_655 S
C1037 O1027 1.266 . S
C1037 O1028 1.236 . S
O1038 Dy1024 2.275 . S
O1038 C1026 1.254 1_455 S
O1039 Dy1025 2.339 1_655 S
O1039 C1026 1.257 . S
C1040 C1043 1.344 . S
C1040 C1044 1.328 . S
C1040 C1046 1.516 . S
C1041 C1042 1.304 . S
C1041 C1045 1.323 . S
C1042 C1041 1.304 . S
C1042 C1043 1.371 . S
C1042 H1056 0.930 . S
C1043 C1040 1.344 . S
C1043 C1042 1.371 . S
C1043 H1057 0.931 . S
C1044 C1040 1.328 . S
C1044 C1045 1.433 . S
C1044 H1058 0.931 . S
C1045 C1041 1.323 . S
C1045 C1044 1.433 . S
C1045 H1059 0.933 . S
C1046 Dy1024 2.738 1_565 S
C1046 O1029 1.255 . S
C1046 O1030 1.249 . S
C1046 C1040 1.516 . S
C1047 O1031 1.254 . S
C1047 O1032 1.257 . S
C1048 O1033 1.266 . S
C1048 O1034 1.236 . S
C1049 C1052 1.344 . S
C1049 C1053 1.328 1_455 S
C1049 C1055 1.516 . S
C1050 C1051 1.304 . S
C1050 C1054 1.323 1_455 S
C1051 C1050 1.304 . S
C1051 C1052 1.371 . S
C1051 H1060 0.930 . S
C1052 C1049 1.344 . S
C1052 C1051 1.371 . S
C1052 H1061 0.931 . S
C1053 C1049 1.328 1_655 S
C1053 C1054 1.433 . S
C1053 H1062 0.931 . S
C1054 C1050 1.323 1_655 S
C1054 C1053 1.433 . S
C1054 H1063 0.933 . S
C1055 Dy1025 2.738 . S
C1055 O1035 1.255 . S
C1055 O1036 1.249 1_455 S
C1055 C1049 1.516 . S
H1056 C1042 0.930 . S
H1057 C1043 0.931 . S
H1058 C1044 0.931 . S
H1059 C1045 0.933 . S
H1060 C1051 0.930 . S
H1061 C1052 0.931 . S
H1062 C1053 0.931 . S
H1063 C1054 0.933 . S
Dy1064 O1067 2.307 . S
Dy1064 O1069 2.395 . S
Dy1064 O1070 2.379 . S
Dy1064 O1072 2.339 . S
Dy1064 O1074 2.298 . S
Dy1064 O1078 2.275 . S
Dy1064 C1086 2.738 . S
Dy1065 O1068 2.298 . S
Dy1065 O1071 2.275 . S
Dy1065 O1073 2.307 . S
Dy1065 O1075 2.395 . S
Dy1065 O1076 2.379 . S
Dy1065 O1079 2.339 . S
Dy1065 C1095 2.738 . S
C1066 O1078 1.254 . S
C1066 O1079 1.257 . S
O1067 Dy1064 2.307 . S
O1067 C1077 1.266 . S
O1068 Dy1065 2.298 . S
O1068 C1077 1.236 . S
O1069 Dy1064 2.395 . S
O1069 C1086 1.255 . S
O1070 Dy1064 2.379 . S
O1070 C1086 1.249 . S
O1071 Dy1065 2.275 . S
O1071 C1087 1.254 . S
O1072 Dy1064 2.339 . S
O1072 C1087 1.257 . S
O1073 Dy1065 2.307 . S
O1073 C1088 1.266 . S
O1074 Dy1064 2.298 . S
O1074 C1088 1.236 . S
O1075 Dy1065 2.395 . S
O1075 C1095 1.255 . S
O1076 Dy1065 2.379 . S
O1076 C1095 1.249 . S
C1077 O1067 1.266 . S
C1077 O1068 1.236 . S
O1078 Dy1064 2.275 . S
O1078 C1066 1.254 . S
O1079 Dy1065 2.339 . S
O1079 C1066 1.257 . S
C1080 C1083 1.344 . S
C1080 C1084 1.328 . S
C1080 C1086 1.516 . S
C1081 C1082 1.304 . S
C1081 C1085 1.323 . S
C1082 C1081 1.304 . S
C1082 C1083 1.371 . S
C1082 H1096 0.930 . S
C1083 C1080 1.344 . S
C1083 C1082 1.371 . S
C1083 H1097 0.931 . S
C1084 C1080 1.328 . S
C1084 C1085 1.433 . S
C1084 H1098 0.931 . S
C1085 C1081 1.323 . S
C1085 C1084 1.433 . S
C1085 H1099 0.933 . S
C1086 Dy1064 2.738 . S
C1086 O1069 1.255 . S
C1086 O1070 1.249 . S
C1086 C1080 1.516 . S
C1087 O1071 1.254 . S
C1087 O1072 1.257 . S
C1088 O1073 1.266 . S
C1088 O1074 1.236 . S
C1089 C1092 1.344 . S
C1089 C1093 1.328 . S
C1089 C1095 1.516 . S
C1090 C1091 1.304 . S
C1090 C1094 1.323 . S
C1091 C1090 1.304 . S
C1091 C1092 1.371 . S
C1091 H1100 0.930 . S
C1092 C1089 1.344 . S
C1092 C1091 1.371 . S
C1092 H1101 0.931 . S
C1093 C1089 1.328 . S
C1093 C1094 1.433 . S
C1093 H1102 0.931 . S
C1094 C1090 1.323 . S
C1094 C1093 1.433 . S
C1094 H1103 0.933 . S
C1095 Dy1065 2.738 . S
C1095 O1075 1.255 . S
C1095 O1076 1.249 . S
C1095 C1089 1.516 . S
H1096 C1082 0.930 . S
H1097 C1083 0.931 . S
H1098 C1084 0.931 . S
H1099 C1085 0.933 . S
H1100 C1091 0.930 . S
H1101 C1092 0.931 . S
H1102 C1093 0.931 . S
H1103 C1094 0.933 . S
Dy1104 O1107 2.307 . S
Dy1104 O1109 2.395 1_554 S
Dy1104 O1110 2.379 1_554 S
Dy1104 O1112 2.339 . S
Dy1104 O1114 2.298 . S
Dy1104 O1118 2.275 . S
Dy1104 C1126 2.738 1_554 S
Dy1105 O1108 2.298 . S
Dy1105 O1111 2.275 . S
Dy1105 O1113 2.307 . S
Dy1105 O1115 2.395 . S
Dy1105 O1116 2.379 . S
Dy1105 O1119 2.339 1_545 S
Dy1105 C1135 2.738 . S
C1106 O1118 1.254 . S
C1106 O1119 1.257 1_545 S
O1107 Dy1104 2.307 . S
O1107 C1117 1.266 . S
O1108 Dy1105 2.298 . S
O1108 C1117 1.236 . S
O1109 Dy1104 2.395 1_556 S
O1109 C1126 1.255 . S
O1110 Dy1104 2.379 1_556 S
O1110 C1126 1.249 . S
O1111 Dy1105 2.275 . S
O1111 C1127 1.254 . S
O1112 Dy1104 2.339 . S
O1112 C1127 1.257 . S
O1113 Dy1105 2.307 . S
O1113 C1128 1.266 . S
O1114 Dy1104 2.298 . S
O1114 C1128 1.236 . S
O1115 Dy1105 2.395 . S
O1115 C1135 1.255 . S
O1116 Dy1105 2.379 . S
O1116 C1135 1.249 . S
C1117 O1107 1.266 . S
C1117 O1108 1.236 . S
O1118 Dy1104 2.275 . S
O1118 C1106 1.254 . S
O1119 Dy1105 2.339 1_565 S
O1119 C1106 1.257 1_565 S
C1120 C1123 1.344 . S
C1120 C1124 1.328 . S
C1120 C1126 1.516 . S
C1121 C1122 1.304 . S
C1121 C1125 1.323 . S
C1122 C1121 1.304 . S
C1122 C1123 1.371 . S
C1122 H1136 0.930 . S
C1123 C1120 1.344 . S
C1123 C1122 1.371 . S
C1123 H1137 0.931 . S
C1124 C1120 1.328 . S
C1124 C1125 1.433 . S
C1124 H1138 0.931 . S
C1125 C1121 1.323 . S
C1125 C1124 1.433 . S
C1125 H1139 0.933 . S
C1126 Dy1104 2.738 1_556 S
C1126 O1109 1.255 . S
C1126 O1110 1.249 . S
C1126 C1120 1.516 . S
C1127 O1111 1.254 . S
C1127 O1112 1.257 . S
C1128 O1113 1.266 . S
C1128 O1114 1.236 . S
C1129 C1132 1.344 . S
C1129 C1133 1.328 1_545 S
C1129 C1135 1.516 . S
C1130 C1131 1.304 1_565 S
C1130 C1134 1.323 . S
C1131 C1130 1.304 1_545 S
C1131 C1132 1.371 . S
C1131 H1140 0.930 . S
C1132 C1129 1.344 . S
C1132 C1131 1.371 . S
C1132 H1141 0.931 . S
C1133 C1129 1.328 1_565 S
C1133 C1134 1.433 . S
C1133 H1142 0.931 . S
C1134 C1130 1.323 . S
C1134 C1133 1.433 . S
C1134 H1143 0.933 . S
C1135 Dy1105 2.738 . S
C1135 O1115 1.255 . S
C1135 O1116 1.249 . S
C1135 C1129 1.516 . S
H1136 C1122 0.930 . S
H1137 C1123 0.931 . S
H1138 C1124 0.931 . S
H1139 C1125 0.933 . S
H1140 C1131 0.930 . S
H1141 C1132 0.931 . S
H1142 C1133 0.931 . S
H1143 C1134 0.933 . S
Dy1144 O1147 2.307 . S
Dy1144 O1149 2.395 . S
Dy1144 O1150 2.379 . S
Dy1144 O1152 2.339 . S
Dy1144 O1154 2.298 . S
Dy1144 O1158 2.275 . S
Dy1144 C1166 2.738 . S
Dy1145 O1148 2.298 . S
Dy1145 O1151 2.275 . S
Dy1145 O1153 2.307 . S
Dy1145 O1155 2.395 . S
Dy1145 O1156 2.379 . S
Dy1145 O1159 2.339 . S
Dy1145 C1175 2.738 . S
C1146 O1158 1.254 . S
C1146 O1159 1.257 . S
O1147 Dy1144 2.307 . S
O1147 C1157 1.266 . S
O1148 Dy1145 2.298 . S
O1148 C1157 1.236 . S
O1149 Dy1144 2.395 . S
O1149 C1166 1.255 . S
O1150 Dy1144 2.379 . S
O1150 C1166 1.249 . S
O1151 Dy1145 2.275 . S
O1151 C1167 1.254 . S
O1152 Dy1144 2.339 . S
O1152 C1167 1.257 . S
O1153 Dy1145 2.307 . S
O1153 C1168 1.266 . S
O1154 Dy1144 2.298 . S
O1154 C1168 1.236 . S
O1155 Dy1145 2.395 . S
O1155 C1175 1.255 . S
O1156 Dy1145 2.379 . S
O1156 C1175 1.249 . S
C1157 O1147 1.266 . S
C1157 O1148 1.236 . S
O1158 Dy1144 2.275 . S
O1158 C1146 1.254 . S
O1159 Dy1145 2.339 . S
O1159 C1146 1.257 . S
C1160 C1163 1.344 . S
C1160 C1164 1.328 . S
C1160 C1166 1.516 . S
C1161 C1162 1.304 . S
C1161 C1165 1.323 . S
C1162 C1161 1.304 . S
C1162 C1163 1.371 . S
C1162 H1176 0.930 . S
C1163 C1160 1.344 . S
C1163 C1162 1.371 . S
C1163 H1177 0.931 . S
C1164 C1160 1.328 . S
C1164 C1165 1.433 . S
C1164 H1178 0.931 . S
C1165 C1161 1.323 . S
C1165 C1164 1.433 . S
C1165 H1179 0.933 . S
C1166 Dy1144 2.738 . S
C1166 O1149 1.255 . S
C1166 O1150 1.249 . S
C1166 C1160 1.516 . S
C1167 O1151 1.254 . S
C1167 O1152 1.257 . S
C1168 O1153 1.266 . S
C1168 O1154 1.236 . S
C1169 C1172 1.344 . S
C1169 C1173 1.328 . S
C1169 C1175 1.516 . S
C1170 C1171 1.304 . S
C1170 C1174 1.323 . S
C1171 C1170 1.304 . S
C1171 C1172 1.371 . S
C1171 H1180 0.930 . S
C1172 C1169 1.344 . S
C1172 C1171 1.371 . S
C1172 H1181 0.931 . S
C1173 C1169 1.328 . S
C1173 C1174 1.433 . S
C1173 H1182 0.931 . S
C1174 C1170 1.323 . S
C1174 C1173 1.433 . S
C1174 H1183 0.933 . S
C1175 Dy1145 2.738 . S
C1175 O1155 1.255 . S
C1175 O1156 1.249 . S
C1175 C1169 1.516 . S
H1176 C1162 0.930 . S
H1177 C1163 0.931 . S
H1178 C1164 0.931 . S
H1179 C1165 0.933 . S
H1180 C1171 0.930 . S
H1181 C1172 0.931 . S
H1182 C1173 0.931 . S
H1183 C1174 0.933 . S
Dy1184 O1187 2.307 1_554 S
Dy1184 O1189 2.395 . S
Dy1184 O1190 2.379 . S
Dy1184 O1192 2.339 . S
Dy1184 O1194 2.298 . S
Dy1184 O1198 2.275 . S
Dy1184 C1206 2.738 . S
Dy1185 O1188 2.298 1_554 S
Dy1185 O1191 2.275 . S
Dy1185 O1193 2.307 . S
Dy1185 O1195 2.395 . S
Dy1185 O1196 2.379 . S
Dy1185 O1199 2.339 . S
Dy1185 C1215 2.738 . S
C1186 O1198 1.254 . S
C1186 O1199 1.257 . S
O1187 Dy1184 2.307 1_556 S
O1187 C1197 1.266 . S
O1188 Dy1185 2.298 1_556 S
O1188 C1197 1.236 . S
O1189 Dy1184 2.395 . S
O1189 C1206 1.255 . S
O1190 Dy1184 2.379 . S
O1190 C1206 1.249 . S
O1191 Dy1185 2.275 . S
O1191 C1207 1.254 . S
O1192 Dy1184 2.339 . S
O1192 C1207 1.257 . S
O1193 Dy1185 2.307 . S
O1193 C1208 1.266 . S
O1194 Dy1184 2.298 . S
O1194 C1208 1.236 . S
O1195 Dy1185 2.395 . S
O1195 C1215 1.255 . S
O1196 Dy1185 2.379 . S
O1196 C1215 1.249 . S
C1197 O1187 1.266 . S
C1197 O1188 1.236 . S
O1198 Dy1184 2.275 . S
O1198 C1186 1.254 . S
O1199 Dy1185 2.339 . S
O1199 C1186 1.257 . S
C1200 C1203 1.344 . S
C1200 C1204 1.328 . S
C1200 C1206 1.516 . S
C1201 C1202 1.304 . S
C1201 C1205 1.323 . S
C1202 C1201 1.304 . S
C1202 C1203 1.371 . S
C1202 H1216 0.930 . S
C1203 C1200 1.344 . S
C1203 C1202 1.371 . S
C1203 H1217 0.931 . S
C1204 C1200 1.328 . S
C1204 C1205 1.433 . S
C1204 H1218 0.931 . S
C1205 C1201 1.323 . S
C1205 C1204 1.433 . S
C1205 H1219 0.933 . S
C1206 Dy1184 2.738 . S
C1206 O1189 1.255 . S
C1206 O1190 1.249 . S
C1206 C1200 1.516 . S
C1207 O1191 1.254 . S
C1207 O1192 1.257 . S
C1208 O1193 1.266 . S
C1208 O1194 1.236 . S
C1209 C1212 1.344 . S
C1209 C1213 1.328 . S
C1209 C1215 1.516 1_556 S
C1210 C1211 1.304 . S
C1210 C1214 1.323 . S
C1211 C1210 1.304 . S
C1211 C1212 1.371 . S
C1211 H1220 0.930 . S
C1212 C1209 1.344 . S
C1212 C1211 1.371 . S
C1212 H1221 0.931 . S
C1213 C1209 1.328 . S
C1213 C1214 1.433 . S
C1213 H1222 0.931 1_556 S
C1214 C1210 1.323 . S
C1214 C1213 1.433 . S
C1214 H1223 0.933 . S
C1215 Dy1185 2.738 . S
C1215 O1195 1.255 . S
C1215 O1196 1.249 . S
C1215 C1209 1.516 1_554 S
H1216 C1202 0.930 . S
H1217 C1203 0.931 . S
H1218 C1204 0.931 . S
H1219 C1205 0.933 . S
H1220 C1211 0.930 . S
H1221 C1212 0.931 . S
H1222 C1213 0.931 1_554 S
H1223 C1214 0.933 . S
Dy1224 O1227 2.307 . S
Dy1224 O1229 2.395 . S
Dy1224 O1230 2.379 . S
Dy1224 O1232 2.339 . S
Dy1224 O1234 2.298 . S
Dy1224 O1238 2.275 . S
Dy1224 C1246 2.738 . S
Dy1225 O1228 2.298 . S
Dy1225 O1231 2.275 . S
Dy1225 O1233 2.307 . S
Dy1225 O1235 2.395 . S
Dy1225 O1236 2.379 . S
Dy1225 O1239 2.339 . S
Dy1225 C1255 2.738 . S
C1226 O1238 1.254 . S
C1226 O1239 1.257 . S
O1227 Dy1224 2.307 . S
O1227 C1237 1.266 . S
O1228 Dy1225 2.298 . S
O1228 C1237 1.236 . S
O1229 Dy1224 2.395 . S
O1229 C1246 1.255 . S
O1230 Dy1224 2.379 . S
O1230 C1246 1.249 . S
O1231 Dy1225 2.275 . S
O1231 C1247 1.254 . S
O1232 Dy1224 2.339 . S
O1232 C1247 1.257 . S
O1233 Dy1225 2.307 . S
O1233 C1248 1.266 . S
O1234 Dy1224 2.298 . S
O1234 C1248 1.236 . S
O1235 Dy1225 2.395 . S
O1235 C1255 1.255 . S
O1236 Dy1225 2.379 . S
O1236 C1255 1.249 . S
C1237 O1227 1.266 . S
C1237 O1228 1.236 . S
O1238 Dy1224 2.275 . S
O1238 C1226 1.254 . S
O1239 Dy1225 2.339 . S
O1239 C1226 1.257 . S
C1240 C1243 1.344 . S
C1240 C1244 1.328 . S
C1240 C1246 1.516 . S
C1241 C1242 1.304 . S
C1241 C1245 1.323 . S
C1242 C1241 1.304 . S
C1242 C1243 1.371 . S
C1242 H1256 0.930 . S
C1243 C1240 1.344 . S
C1243 C1242 1.371 . S
C1243 H1257 0.931 . S
C1244 C1240 1.328 . S
C1244 C1245 1.433 . S
C1244 H1258 0.931 . S
C1245 C1241 1.323 . S
C1245 C1244 1.433 . S
C1245 H1259 0.933 . S
C1246 Dy1224 2.738 . S
C1246 O1229 1.255 . S
C1246 O1230 1.249 . S
C1246 C1240 1.516 . S
C1247 O1231 1.254 . S
C1247 O1232 1.257 . S
C1248 O1233 1.266 . S
C1248 O1234 1.236 . S
C1249 C1252 1.344 . S
C1249 C1253 1.328 . S
C1249 C1255 1.516 . S
C1250 C1251 1.304 . S
C1250 C1254 1.323 . S
C1251 C1250 1.304 . S
C1251 C1252 1.371 . S
C1251 H1260 0.930 . S
C1252 C1249 1.344 . S
C1252 C1251 1.371 . S
C1252 H1261 0.931 . S
C1253 C1249 1.328 . S
C1253 C1254 1.433 . S
C1253 H1262 0.931 . S
C1254 C1250 1.323 . S
C1254 C1253 1.433 . S
C1254 H1263 0.933 . S
C1255 Dy1225 2.738 . S
C1255 O1235 1.255 . S
C1255 O1236 1.249 . S
C1255 C1249 1.516 . S
H1256 C1242 0.930 . S
H1257 C1243 0.931 . S
H1258 C1244 0.931 . S
H1259 C1245 0.933 . S
H1260 C1251 0.930 . S
H1261 C1252 0.931 . S
H1262 C1253 0.931 . S
H1263 C1254 0.933 . S
Dy1264 O1267 2.307 1_455 S
Dy1264 O1269 2.395 . S
Dy1264 O1270 2.379 . S
Dy1264 O1272 2.339 . S
Dy1264 O1274 2.298 . S
Dy1264 O1278 2.275 . S
Dy1264 C1286 2.738 . S
Dy1265 O1268 2.298 1_455 S
Dy1265 O1271 2.275 . S
Dy1265 O1273 2.307 . S
Dy1265 O1275 2.395 . S
Dy1265 O1276 2.379 . S
Dy1265 O1279 2.339 . S
Dy1265 C1295 2.738 . S
C1266 O1278 1.254 . S
C1266 O1279 1.257 . S
O1267 Dy1264 2.307 1_655 S
O1267 C1277 1.266 . S
O1268 Dy1265 2.298 1_655 S
O1268 C1277 1.236 . S
O1269 Dy1264 2.395 . S
O1269 C1286 1.255 . S
O1270 Dy1264 2.379 . S
O1270 C1286 1.249 . S
O1271 Dy1265 2.275 . S
O1271 C1287 1.254 . S
O1272 Dy1264 2.339 . S
O1272 C1287 1.257 . S
O1273 Dy1265 2.307 . S
O1273 C1288 1.266 . S
O1274 Dy1264 2.298 . S
O1274 C1288 1.236 . S
O1275 Dy1265 2.395 . S
O1275 C1295 1.255 . S
O1276 Dy1265 2.379 . S
O1276 C1295 1.249 . S
C1277 O1267 1.266 . S
C1277 O1268 1.236 . S
O1278 Dy1264 2.275 . S
O1278 C1266 1.254 . S
O1279 Dy1265 2.339 . S
O1279 C1266 1.257 . S
C1280 C1283 1.344 . S
C1280 C1284 1.328 . S
C1280 C1286 1.516 . S
C1281 C1282 1.304 . S
C1281 C1285 1.323 . S
C1282 C1281 1.304 . S
C1282 C1283 1.371 . S
C1282 H1296 0.930 . S
C1283 C1280 1.344 . S
C1283 C1282 1.371 . S
C1283 H1297 0.931 . S
C1284 C1280 1.328 . S
C1284 C1285 1.433 . S
C1284 H1298 0.931 . S
C1285 C1281 1.323 . S
C1285 C1284 1.433 . S
C1285 H1299 0.933 . S
C1286 Dy1264 2.738 . S
C1286 O1269 1.255 . S
C1286 O1270 1.249 . S
C1286 C1280 1.516 . S
C1287 O1271 1.254 . S
C1287 O1272 1.257 . S
C1288 O1273 1.266 . S
C1288 O1274 1.236 . S
C1289 C1292 1.344 . S
C1289 C1293 1.328 . S
C1289 C1295 1.516 1_655 S
C1290 C1291 1.304 . S
C1290 C1294 1.323 . S
C1291 C1290 1.304 . S
C1291 C1292 1.371 . S
C1291 H1300 0.930 . S
C1292 C1289 1.344 . S
C1292 C1291 1.371 . S
C1292 H1301 0.931 . S
C1293 C1289 1.328 . S
C1293 C1294 1.433 . S
C1293 H1302 0.931 1_655 S
C1294 C1290 1.323 . S
C1294 C1293 1.433 . S
C1294 H1303 0.933 . S
C1295 Dy1265 2.738 . S
C1295 O1275 1.255 . S
C1295 O1276 1.249 . S
C1295 C1289 1.516 1_455 S
H1296 C1282 0.930 . S
H1297 C1283 0.931 . S
H1298 C1284 0.931 . S
H1299 C1285 0.933 . S
H1300 C1291 0.930 . S
H1301 C1292 0.931 . S
H1302 C1293 0.931 1_455 S
H1303 C1294 0.933 . S
Dy1304 O1307 2.307 . S
Dy1304 O1309 2.395 . S
Dy1304 O1310 2.379 . S
Dy1304 O1312 2.339 . S
Dy1304 O1314 2.298 . S
Dy1304 O1318 2.275 . S
Dy1304 C1326 2.738 . S
Dy1305 O1308 2.298 . S
Dy1305 O1311 2.275 . S
Dy1305 O1313 2.307 . S
Dy1305 O1315 2.395 . S
Dy1305 O1316 2.379 . S
Dy1305 O1319 2.339 . S
Dy1305 C1335 2.738 . S
C1306 O1318 1.254 . S
C1306 O1319 1.257 . S
O1307 Dy1304 2.307 . S
O1307 C1317 1.266 . S
O1308 Dy1305 2.298 . S
O1308 C1317 1.236 . S
O1309 Dy1304 2.395 . S
O1309 C1326 1.255 . S
O1310 Dy1304 2.379 . S
O1310 C1326 1.249 . S
O1311 Dy1305 2.275 . S
O1311 C1327 1.254 . S
O1312 Dy1304 2.339 . S
O1312 C1327 1.257 . S
O1313 Dy1305 2.307 . S
O1313 C1328 1.266 . S
O1314 Dy1304 2.298 . S
O1314 C1328 1.236 . S
O1315 Dy1305 2.395 . S
O1315 C1335 1.255 . S
O1316 Dy1305 2.379 . S
O1316 C1335 1.249 . S
C1317 O1307 1.266 . S
C1317 O1308 1.236 . S
O1318 Dy1304 2.275 . S
O1318 C1306 1.254 . S
O1319 Dy1305 2.339 . S
O1319 C1306 1.257 . S
C1320 C1323 1.344 . S
C1320 C1324 1.328 . S
C1320 C1326 1.516 . S
C1321 C1322 1.304 . S
C1321 C1325 1.323 . S
C1322 C1321 1.304 . S
C1322 C1323 1.371 . S
C1322 H1336 0.930 . S
C1323 C1320 1.344 . S
C1323 C1322 1.371 . S
C1323 H1337 0.931 . S
C1324 C1320 1.328 . S
C1324 C1325 1.433 . S
C1324 H1338 0.931 . S
C1325 C1321 1.323 . S
C1325 C1324 1.433 . S
C1325 H1339 0.933 . S
C1326 Dy1304 2.738 . S
C1326 O1309 1.255 . S
C1326 O1310 1.249 . S
C1326 C1320 1.516 . S
C1327 O1311 1.254 . S
C1327 O1312 1.257 . S
C1328 O1313 1.266 . S
C1328 O1314 1.236 . S
C1329 C1332 1.344 . S
C1329 C1333 1.328 . S
C1329 C1335 1.516 . S
C1330 C1331 1.304 . S
C1330 C1334 1.323 . S
C1331 C1330 1.304 . S
C1331 C1332 1.371 . S
C1331 H1340 0.930 . S
C1332 C1329 1.344 . S
C1332 C1331 1.371 . S
C1332 H1341 0.931 . S
C1333 C1329 1.328 . S
C1333 C1334 1.433 . S
C1333 H1342 0.931 . S
C1334 C1330 1.323 . S
C1334 C1333 1.433 . S
C1334 H1343 0.933 . S
C1335 Dy1305 2.738 . S
C1335 O1315 1.255 . S
C1335 O1316 1.249 . S
C1335 C1329 1.516 . S
H1336 C1322 0.930 . S
H1337 C1323 0.931 . S
H1338 C1324 0.931 . S
H1339 C1325 0.933 . S
H1340 C1331 0.930 . S
H1341 C1332 0.931 . S
H1342 C1333 0.931 . S
H1343 C1334 0.933 . S
Dy1344 O1347 2.307 . S
Dy1344 O1349 2.395 . S
Dy1344 O1350 2.379 . S
Dy1344 O1352 2.339 . S
Dy1344 O1354 2.298 . S
Dy1344 O1358 2.275 . S
Dy1344 C1366 2.738 . S
Dy1345 O1348 2.298 . S
Dy1345 O1351 2.275 . S
Dy1345 O1353 2.307 . S
Dy1345 O1355 2.395 . S
Dy1345 O1356 2.379 . S
Dy1345 O1359 2.339 . S
Dy1345 C1375 2.738 . S
C1346 O1358 1.254 . S
C1346 O1359 1.257 . S
O1347 Dy1344 2.307 . S
O1347 C1357 1.266 . S
O1348 Dy1345 2.298 . S
O1348 C1357 1.236 . S
O1349 Dy1344 2.395 . S
O1349 C1366 1.255 . S
O1350 Dy1344 2.379 . S
O1350 C1366 1.249 . S
O1351 Dy1345 2.275 . S
O1351 C1367 1.254 . S
O1352 Dy1344 2.339 . S
O1352 C1367 1.257 . S
O1353 Dy1345 2.307 . S
O1353 C1368 1.266 . S
O1354 Dy1344 2.298 . S
O1354 C1368 1.236 . S
O1355 Dy1345 2.395 . S
O1355 C1375 1.255 . S
O1356 Dy1345 2.379 . S
O1356 C1375 1.249 . S
C1357 O1347 1.266 . S
C1357 O1348 1.236 . S
O1358 Dy1344 2.275 . S
O1358 C1346 1.254 . S
O1359 Dy1345 2.339 . S
O1359 C1346 1.257 . S
C1360 C1363 1.344 . S
C1360 C1364 1.328 . S
C1360 C1366 1.516 . S
C1361 C1362 1.304 . S
C1361 C1365 1.323 . S
C1362 C1361 1.304 . S
C1362 C1363 1.371 . S
C1362 H1376 0.930 . S
C1363 C1360 1.344 . S
C1363 C1362 1.371 . S
C1363 H1377 0.931 . S
C1364 C1360 1.328 . S
C1364 C1365 1.433 . S
C1364 H1378 0.931 . S
C1365 C1361 1.323 . S
C1365 C1364 1.433 . S
C1365 H1379 0.933 . S
C1366 Dy1344 2.738 . S
C1366 O1349 1.255 . S
C1366 O1350 1.249 . S
C1366 C1360 1.516 . S
C1367 O1351 1.254 . S
C1367 O1352 1.257 . S
C1368 O1353 1.266 . S
C1368 O1354 1.236 . S
C1369 C1372 1.344 . S
C1369 C1373 1.328 . S
C1369 C1375 1.516 . S
C1370 C1371 1.304 . S
C1370 C1374 1.323 . S
C1371 C1370 1.304 . S
C1371 C1372 1.371 . S
C1371 H1380 0.930 . S
C1372 C1369 1.344 . S
C1372 C1371 1.371 . S
C1372 H1381 0.931 . S
C1373 C1369 1.328 . S
C1373 C1374 1.433 . S
C1373 H1382 0.931 . S
C1374 C1370 1.323 . S
C1374 C1373 1.433 . S
C1374 H1383 0.933 . S
C1375 Dy1345 2.738 . S
C1375 O1355 1.255 . S
C1375 O1356 1.249 . S
C1375 C1369 1.516 . S
H1376 C1362 0.930 . S
H1377 C1363 0.931 . S
H1378 C1364 0.931 . S
H1379 C1365 0.933 . S
H1380 C1371 0.930 . S
H1381 C1372 0.931 . S
H1382 C1373 0.931 . S
H1383 C1374 0.933 . S
Dy1384 O1387 2.307 . S
Dy1384 O1389 2.395 . S
Dy1384 O1390 2.379 . S
Dy1384 O1392 2.339 . S
Dy1384 O1394 2.298 . S
Dy1384 O1398 2.275 . S
Dy1384 C1406 2.738 . S
Dy1385 O1388 2.298 . S
Dy1385 O1391 2.275 . S
Dy1385 O1393 2.307 . S
Dy1385 O1395 2.395 . S
Dy1385 O1396 2.379 . S
Dy1385 O1399 2.339 . S
Dy1385 C1415 2.738 . S
C1386 O1398 1.254 . S
C1386 O1399 1.257 . S
O1387 Dy1384 2.307 . S
O1387 C1397 1.266 . S
O1388 Dy1385 2.298 . S
O1388 C1397 1.236 . S
O1389 Dy1384 2.395 . S
O1389 C1406 1.255 . S
O1390 Dy1384 2.379 . S
O1390 C1406 1.249 . S
O1391 Dy1385 2.275 . S
O1391 C1407 1.254 . S
O1392 Dy1384 2.339 . S
O1392 C1407 1.257 . S
O1393 Dy1385 2.307 . S
O1393 C1408 1.266 . S
O1394 Dy1384 2.298 . S
O1394 C1408 1.236 . S
O1395 Dy1385 2.395 . S
O1395 C1415 1.255 . S
O1396 Dy1385 2.379 . S
O1396 C1415 1.249 . S
C1397 O1387 1.266 . S
C1397 O1388 1.236 . S
O1398 Dy1384 2.275 . S
O1398 C1386 1.254 . S
O1399 Dy1385 2.339 . S
O1399 C1386 1.257 . S
C1400 C1403 1.344 . S
C1400 C1404 1.328 . S
C1400 C1406 1.516 . S
C1401 C1402 1.304 . S
C1401 C1405 1.323 . S
C1402 C1401 1.304 . S
C1402 C1403 1.371 . S
C1402 H1416 0.930 . S
C1403 C1400 1.344 . S
C1403 C1402 1.371 . S
C1403 H1417 0.931 . S
C1404 C1400 1.328 . S
C1404 C1405 1.433 . S
C1404 H1418 0.931 . S
C1405 C1401 1.323 . S
C1405 C1404 1.433 . S
C1405 H1419 0.933 . S
C1406 Dy1384 2.738 . S
C1406 O1389 1.255 . S
C1406 O1390 1.249 . S
C1406 C1400 1.516 . S
C1407 O1391 1.254 . S
C1407 O1392 1.257 . S
C1408 O1393 1.266 . S
C1408 O1394 1.236 . S
C1409 C1412 1.344 . S
C1409 C1413 1.328 . S
C1409 C1415 1.516 . S
C1410 C1411 1.304 . S
C1410 C1414 1.323 . S
C1411 C1410 1.304 . S
C1411 C1412 1.371 . S
C1411 H1420 0.930 . S
C1412 C1409 1.344 . S
C1412 C1411 1.371 . S
C1412 H1421 0.931 . S
C1413 C1409 1.328 . S
C1413 C1414 1.433 . S
C1413 H1422 0.931 . S
C1414 C1410 1.323 . S
C1414 C1413 1.433 . S
C1414 H1423 0.933 . S
C1415 Dy1385 2.738 . S
C1415 O1395 1.255 . S
C1415 O1396 1.249 . S
C1415 C1409 1.516 . S
H1416 C1402 0.930 . S
H1417 C1403 0.931 . S
H1418 C1404 0.931 . S
H1419 C1405 0.933 . S
H1420 C1411 0.930 . S
H1421 C1412 0.931 . S
H1422 C1413 0.931 . S
H1423 C1414 0.933 . S
Dy1424 O1427 2.307 . S
Dy1424 O1429 2.395 . S
Dy1424 O1430 2.379 . S
Dy1424 O1432 2.339 . S
Dy1424 O1434 2.298 . S
Dy1424 O1438 2.275 . S
Dy1424 C1446 2.738 . S
Dy1425 O1428 2.298 . S
Dy1425 O1431 2.275 . S
Dy1425 O1433 2.307 . S
Dy1425 O1435 2.395 . S
Dy1425 O1436 2.379 . S
Dy1425 O1439 2.339 . S
Dy1425 C1455 2.738 . S
C1426 O1438 1.254 . S
C1426 O1439 1.257 . S
O1427 Dy1424 2.307 . S
O1427 C1437 1.266 . S
O1428 Dy1425 2.298 . S
O1428 C1437 1.236 . S
O1429 Dy1424 2.395 . S
O1429 C1446 1.255 . S
O1430 Dy1424 2.379 . S
O1430 C1446 1.249 . S
O1431 Dy1425 2.275 . S
O1431 C1447 1.254 . S
O1432 Dy1424 2.339 . S
O1432 C1447 1.257 . S
O1433 Dy1425 2.307 . S
O1433 C1448 1.266 . S
O1434 Dy1424 2.298 . S
O1434 C1448 1.236 . S
O1435 Dy1425 2.395 . S
O1435 C1455 1.255 . S
O1436 Dy1425 2.379 . S
O1436 C1455 1.249 . S
C1437 O1427 1.266 . S
C1437 O1428 1.236 . S
O1438 Dy1424 2.275 . S
O1438 C1426 1.254 . S
O1439 Dy1425 2.339 . S
O1439 C1426 1.257 . S
C1440 C1443 1.344 . S
C1440 C1444 1.328 . S
C1440 C1446 1.516 . S
C1441 C1442 1.304 . S
C1441 C1445 1.323 . S
C1442 C1441 1.304 . S
C1442 C1443 1.371 . S
C1442 H1456 0.930 . S
C1443 C1440 1.344 . S
C1443 C1442 1.371 . S
C1443 H1457 0.931 . S
C1444 C1440 1.328 . S
C1444 C1445 1.433 . S
C1444 H1458 0.931 . S
C1445 C1441 1.323 . S
C1445 C1444 1.433 . S
C1445 H1459 0.933 . S
C1446 Dy1424 2.738 . S
C1446 O1429 1.255 . S
C1446 O1430 1.249 . S
C1446 C1440 1.516 . S
C1447 O1431 1.254 . S
C1447 O1432 1.257 . S
C1448 O1433 1.266 . S
C1448 O1434 1.236 . S
C1449 C1452 1.344 . S
C1449 C1453 1.328 . S
C1449 C1455 1.516 . S
C1450 C1451 1.304 . S
C1450 C1454 1.323 . S
C1451 C1450 1.304 . S
C1451 C1452 1.371 . S
C1451 H1460 0.930 . S
C1452 C1449 1.344 . S
C1452 C1451 1.371 . S
C1452 H1461 0.931 . S
C1453 C1449 1.328 . S
C1453 C1454 1.433 . S
C1453 H1462 0.931 . S
C1454 C1450 1.323 . S
C1454 C1453 1.433 . S
C1454 H1463 0.933 . S
C1455 Dy1425 2.738 . S
C1455 O1435 1.255 . S
C1455 O1436 1.249 . S
C1455 C1449 1.516 . S
H1456 C1442 0.930 . S
H1457 C1443 0.931 . S
H1458 C1444 0.931 . S
H1459 C1445 0.933 . S
H1460 C1451 0.930 . S
H1461 C1452 0.931 . S
H1462 C1453 0.931 . S
H1463 C1454 0.933 . S
Dy1464 O1467 2.307 . S
Dy1464 O1469 2.395 1_455 S
Dy1464 O1470 2.379 1_455 S
Dy1464 O1472 2.339 . S
Dy1464 O1474 2.298 . S
Dy1464 O1478 2.275 . S
Dy1464 C1486 2.738 1_455 S
Dy1465 O1468 2.298 . S
Dy1465 O1471 2.275 . S
Dy1465 O1473 2.307 . S
Dy1465 O1475 2.395 . S
Dy1465 O1476 2.379 1_554 S
Dy1465 O1479 2.339 1_554 S
Dy1465 C1495 2.738 . S
C1466 O1478 1.254 1_556 S
C1466 O1479 1.257 . S
O1467 Dy1464 2.307 . S
O1467 C1477 1.266 . S
O1468 Dy1465 2.298 . S
O1468 C1477 1.236 . S
O1469 Dy1464 2.395 1_655 S
O1469 C1486 1.255 . S
O1470 Dy1464 2.379 1_655 S
O1470 C1486 1.249 . S
O1471 Dy1465 2.275 . S
O1471 C1487 1.254 . S
O1472 Dy1464 2.339 . S
O1472 C1487 1.257 . S
O1473 Dy1465 2.307 . S
O1473 C1488 1.266 . S
O1474 Dy1464 2.298 . S
O1474 C1488 1.236 . S
O1475 Dy1465 2.395 . S
O1475 C1495 1.255 . S
O1476 Dy1465 2.379 1_556 S
O1476 C1495 1.249 1_556 S
C1477 O1467 1.266 . S
C1477 O1468 1.236 . S
O1478 Dy1464 2.275 . S
O1478 C1466 1.254 1_554 S
O1479 Dy1465 2.339 1_556 S
O1479 C1466 1.257 . S
C1480 C1483 1.344 . S
C1480 C1484 1.328 . S
C1480 C1486 1.516 . S
C1481 C1482 1.304 . S
C1481 C1485 1.323 . S
C1482 C1481 1.304 . S
C1482 C1483 1.371 . S
C1482 H1496 0.930 . S
C1483 C1480 1.344 . S
C1483 C1482 1.371 . S
C1483 H1497 0.931 . S
C1484 C1480 1.328 . S
C1484 C1485 1.433 . S
C1484 H1498 0.931 . S
C1485 C1481 1.323 . S
C1485 C1484 1.433 . S
C1485 H1499 0.933 . S
C1486 Dy1464 2.738 1_655 S
C1486 O1469 1.255 . S
C1486 O1470 1.249 . S
C1486 C1480 1.516 . S
C1487 O1471 1.254 . S
C1487 O1472 1.257 . S
C1488 O1473 1.266 . S
C1488 O1474 1.236 . S
C1489 C1492 1.344 . S
C1489 C1493 1.328 1_554 S
C1489 C1495 1.516 . S
C1490 C1491 1.304 . S
C1490 C1494 1.323 1_554 S
C1491 C1490 1.304 . S
C1491 C1492 1.371 . S
C1491 H1500 0.930 . S
C1492 C1489 1.344 . S
C1492 C1491 1.371 . S
C1492 H1501 0.931 . S
C1493 C1489 1.328 1_556 S
C1493 C1494 1.433 . S
C1493 H1502 0.931 . S
C1494 C1490 1.323 1_556 S
C1494 C1493 1.433 . S
C1494 H1503 0.933 . S
C1495 Dy1465 2.738 . S
C1495 O1475 1.255 . S
C1495 O1476 1.249 1_554 S
C1495 C1489 1.516 . S
H1496 C1482 0.930 . S
H1497 C1483 0.931 . S
H1498 C1484 0.931 . S
H1499 C1485 0.933 . S
H1500 C1491 0.930 . S
H1501 C1492 0.931 . S
H1502 C1493 0.931 . S
H1503 C1494 0.933 . S
C1504 C1505 1.391 1_454 S
C1504 C1506 1.394 . S
C1504 H1520 0.931 . S
C1505 C1504 1.391 1_656 S
C1505 C1509 1.376 . S
C1506 C1504 1.394 . S
C1506 C1507 1.369 . S
C1506 C1510 1.531 . S
C1507 C1506 1.369 . S
C1507 C1508 1.410 1_454 S
C1507 C1515 1.503 . S
C1508 C1507 1.410 1_656 S
C1508 C1509 1.392 . S
C1508 C1511 1.511 . S
C1509 C1505 1.376 . S
C1509 C1508 1.392 . S
C1509 H1521 0.929 . S
C1510 C1506 1.531 . S
C1510 H1522 0.960 . S
C1510 H1523 0.962 . S
C1510 H1524 0.960 . S
C1511 C1508 1.511 . S
C1511 H1525 0.961 . S
C1511 H1526 0.961 . S
C1511 H1527 0.961 . S
C1512 C1513 1.370 . S
C1512 C1514 1.363 . S
C1512 H1528 0.931 . S
C1513 C1512 1.370 . S
C1513 C1517 1.408 1_455 S
C1514 C1512 1.363 . S
C1514 C1515 1.370 . S
C1514 C1518 1.510 1_554 S
C1515 C1507 1.503 . S
C1515 C1514 1.370 . S
C1515 C1516 1.403 1_455 S
C1516 C1515 1.403 1_655 S
C1516 C1517 1.404 . S
C1516 C1519 1.539 . S
C1517 C1513 1.408 1_655 S
C1517 C1516 1.404 . S
C1517 H1529 0.930 . S
C1518 C1514 1.510 1_556 S
C1518 H1530 0.943 1_556 S
C1518 H1531 0.984 . S
C1518 H1532 0.965 . S
C1519 C1516 1.539 . S
C1519 H1533 0.958 . S
C1519 H1534 0.961 . S
C1519 H1535 0.960 . S
H1520 C1504 0.931 . S
H1521 C1509 0.929 . S
H1522 C1510 0.960 . S
H1523 C1510 0.962 . S
H1524 C1510 0.960 . S
H1525 C1511 0.961 . S
H1526 C1511 0.961 . S
H1527 C1511 0.961 . S
H1528 C1512 0.931 . S
H1529 C1517 0.930 . S
H1530 C1518 0.943 1_554 S
H1531 C1518 0.984 . S
H1532 C1518 0.965 . S
H1533 C1519 0.958 . S
H1534 C1519 0.961 . S
H1535 C1519 0.960 . S
C1536 C1537 1.391 . S
C1536 C1538 1.394 . S
C1536 H1552 0.931 . S
C1537 C1536 1.391 . S
C1537 C1541 1.376 . S
C1538 C1536 1.394 . S
C1538 C1539 1.369 . S
C1538 C1542 1.531 . S
C1539 C1538 1.369 . S
C1539 C1540 1.410 . S
C1539 C1547 1.503 . S
C1540 C1539 1.410 . S
C1540 C1541 1.392 . S
C1540 C1543 1.511 . S
C1541 C1537 1.376 . S
C1541 C1540 1.392 . S
C1541 H1553 0.929 . S
C1542 C1538 1.531 . S
C1542 H1554 0.960 . S
C1542 H1555 0.962 . S
C1542 H1556 0.960 . S
C1543 C1540 1.511 . S
C1543 H1557 0.961 . S
C1543 H1558 0.961 . S
C1543 H1559 0.961 . S
C1544 C1545 1.370 . S
C1544 C1546 1.363 . S
C1544 H1560 0.931 . S
C1545 C1544 1.370 . S
C1545 C1549 1.408 . S
C1546 C1544 1.363 . S
C1546 C1547 1.370 . S
C1546 C1550 1.524 . S
C1547 C1539 1.503 . S
C1547 C1546 1.370 . S
C1547 C1548 1.403 . S
C1548 C1547 1.403 . S
C1548 C1549 1.404 . S
C1548 C1551 1.539 . S
C1549 C1545 1.408 . S
C1549 C1548 1.404 . S
C1549 H1561 0.930 . S
C1550 C1546 1.524 . S
C1550 H1562 0.956 . S
C1550 H1563 0.961 . S
C1550 H1564 0.961 . S
C1551 C1548 1.539 . S
C1551 H1565 0.958 . S
C1551 H1566 0.961 . S
C1551 H1567 0.960 . S
H1552 C1536 0.931 . S
H1553 C1541 0.929 . S
H1554 C1542 0.960 . S
H1555 C1542 0.962 . S
H1556 C1542 0.960 . S
H1557 C1543 0.961 . S
H1558 C1543 0.961 . S
H1559 C1543 0.961 . S
H1560 C1544 0.931 . S
H1561 C1549 0.930 . S
H1562 C1550 0.956 . S
H1563 C1550 0.961 . S
H1564 C1550 0.961 . S
H1565 C1551 0.958 . S
H1566 C1551 0.961 . S
H1567 C1551 0.960 . S
C1568 C1569 1.391 . S
C1568 C1570 1.394 . S
C1568 H1584 0.931 . S
C1569 C1568 1.391 . S
C1569 C1573 1.376 . S
C1570 C1568 1.394 . S
C1570 C1571 1.369 . S
C1570 C1574 1.531 . S
C1571 C1570 1.369 . S
C1571 C1572 1.410 . S
C1571 C1579 1.503 . S
C1572 C1571 1.410 . S
C1572 C1573 1.392 . S
C1572 C1575 1.511 . S
C1573 C1569 1.376 . S
C1573 C1572 1.392 . S
C1573 H1585 0.929 . S
C1574 C1570 1.531 . S
C1574 H1586 0.960 . S
C1574 H1587 0.962 . S
C1574 H1588 0.960 . S
C1575 C1572 1.511 . S
C1575 H1589 0.961 . S
C1575 H1590 0.961 . S
C1575 H1591 0.961 . S
C1576 C1577 1.370 . S
C1576 C1578 1.363 . S
C1576 H1592 0.931 . S
C1577 C1576 1.370 . S
C1577 C1581 1.408 . S
C1578 C1576 1.363 . S
C1578 C1579 1.370 . S
C1578 C1582 1.524 . S
C1579 C1571 1.503 . S
C1579 C1578 1.370 . S
C1579 C1580 1.403 . S
C1580 C1579 1.403 . S
C1580 C1581 1.404 . S
C1580 C1583 1.539 . S
C1581 C1577 1.408 . S
C1581 C1580 1.404 . S
C1581 H1593 0.930 . S
C1582 C1578 1.524 . S
C1582 H1594 0.956 . S
C1582 H1595 0.961 . S
C1582 H1596 0.961 . S
C1583 C1580 1.539 . S
C1583 H1597 0.958 . S
C1583 H1598 0.961 . S
C1583 H1599 0.960 . S
H1584 C1568 0.931 . S
H1585 C1573 0.929 . S
H1586 C1574 0.960 . S
H1587 C1574 0.962 . S
H1588 C1574 0.960 . S
H1589 C1575 0.961 . S
H1590 C1575 0.961 . S
H1591 C1575 0.961 . S
H1592 C1576 0.931 . S
H1593 C1581 0.930 . S
H1594 C1582 0.956 . S
H1595 C1582 0.961 . S
H1596 C1582 0.961 . S
H1597 C1583 0.958 . S
H1598 C1583 0.961 . S
H1599 C1583 0.960 . S
C1600 C1601 1.391 . S
C1600 C1602 1.394 . S
C1600 H1616 0.931 . S
C1601 C1600 1.391 . S
C1601 C1605 1.376 . S
C1602 C1600 1.394 . S
C1602 C1603 1.369 . S
C1602 C1606 1.531 . S
C1603 C1602 1.369 . S
C1603 C1604 1.410 . S
C1603 C1611 1.503 . S
C1604 C1603 1.410 . S
C1604 C1605 1.392 . S
C1604 C1607 1.511 . S
C1605 C1601 1.376 . S
C1605 C1604 1.392 . S
C1605 H1617 0.929 . S
C1606 C1602 1.531 . S
C1606 H1618 0.960 . S
C1606 H1619 0.962 . S
C1606 H1620 0.960 . S
C1607 C1604 1.511 . S
C1607 H1621 0.961 . S
C1607 H1622 0.961 . S
C1607 H1623 0.961 . S
C1608 C1609 1.370 . S
C1608 C1610 1.363 . S
C1608 H1624 0.931 . S
C1609 C1608 1.370 . S
C1609 C1613 1.408 . S
C1610 C1608 1.363 . S
C1610 C1611 1.370 . S
C1610 C1614 1.524 . S
C1611 C1603 1.503 . S
C1611 C1610 1.370 . S
C1611 C1612 1.403 . S
C1612 C1611 1.403 . S
C1612 C1613 1.404 . S
C1612 C1615 1.539 . S
C1613 C1609 1.408 . S
C1613 C1612 1.404 . S
C1613 H1625 0.930 . S
C1614 C1610 1.524 . S
C1614 H1626 0.956 . S
C1614 H1627 0.961 . S
C1614 H1628 0.961 . S
C1615 C1612 1.539 . S
C1615 H1629 0.958 . S
C1615 H1630 0.961 . S
C1615 H1631 0.960 . S
H1616 C1600 0.931 . S
H1617 C1605 0.929 . S
H1618 C1606 0.960 . S
H1619 C1606 0.962 . S
H1620 C1606 0.960 . S
H1621 C1607 0.961 . S
H1622 C1607 0.961 . S
H1623 C1607 0.961 . S
H1624 C1608 0.931 . S
H1625 C1613 0.930 . S
H1626 C1614 0.956 . S
H1627 C1614 0.961 . S
H1628 C1614 0.961 . S
H1629 C1615 0.958 . S
H1630 C1615 0.961 . S
H1631 C1615 0.960 . S
C1632 C1633 1.391 . S
C1632 C1634 1.394 . S
C1632 H1648 0.931 . S
C1633 C1632 1.391 . S
C1633 C1637 1.376 . S
C1634 C1632 1.394 . S
C1634 C1635 1.369 . S
C1634 C1638 1.531 . S
C1635 C1634 1.369 . S
C1635 C1636 1.410 . S
C1635 C1643 1.503 . S
C1636 C1635 1.410 . S
C1636 C1637 1.392 . S
C1636 C1639 1.511 . S
C1637 C1633 1.376 . S
C1637 C1636 1.392 . S
C1637 H1649 0.929 . S
C1638 C1634 1.531 . S
C1638 H1650 0.960 . S
C1638 H1651 0.962 . S
C1638 H1652 0.960 . S
C1639 C1636 1.511 . S
C1639 H1653 0.961 . S
C1639 H1654 0.961 . S
C1639 H1655 0.961 . S
C1640 C1641 1.370 . S
C1640 C1642 1.363 . S
C1640 H1656 0.931 . S
C1641 C1640 1.370 . S
C1641 C1645 1.408 . S
C1642 C1640 1.363 . S
C1642 C1643 1.370 . S
C1642 C1646 1.524 . S
C1643 C1635 1.503 . S
C1643 C1642 1.370 . S
C1643 C1644 1.403 . S
C1644 C1643 1.403 . S
C1644 C1645 1.404 . S
C1644 C1647 1.539 . S
C1645 C1641 1.408 . S
C1645 C1644 1.404 . S
C1645 H1657 0.930 . S
C1646 C1642 1.524 . S
C1646 H1658 0.956 . S
C1646 H1659 0.961 . S
C1646 H1660 0.961 1_455 S
C1647 C1644 1.539 . S
C1647 H1661 0.958 . S
C1647 H1662 0.961 . S
C1647 H1663 0.960 . S
H1648 C1632 0.931 . S
H1649 C1637 0.929 . S
H1650 C1638 0.960 . S
H1651 C1638 0.962 . S
H1652 C1638 0.960 . S
H1653 C1639 0.961 . S
H1654 C1639 0.961 . S
H1655 C1639 0.961 . S
H1656 C1640 0.931 . S
H1657 C1645 0.930 . S
H1658 C1646 0.956 . S
H1659 C1646 0.961 . S
H1660 C1646 0.961 1_655 S
H1661 C1647 0.958 . S
H1662 C1647 0.961 . S
H1663 C1647 0.960 . S
C1664 C1665 1.391 . S
C1664 C1666 1.394 . S
C1664 H1680 0.931 . S
C1665 C1664 1.391 . S
C1665 C1669 1.376 . S
C1666 C1664 1.394 . S
C1666 C1667 1.369 . S
C1666 C1670 1.531 . S
C1667 C1666 1.369 . S
C1667 C1668 1.410 . S
C1667 C1675 1.503 . S
C1668 C1667 1.410 . S
C1668 C1669 1.392 . S
C1668 C1671 1.511 . S
C1669 C1665 1.376 . S
C1669 C1668 1.392 . S
C1669 H1681 0.929 . S
C1670 C1666 1.531 . S
C1670 H1682 0.960 . S
C1670 H1683 0.962 . S
C1670 H1684 0.960 . S
C1671 C1668 1.511 . S
C1671 H1685 0.961 . S
C1671 H1686 0.961 . S
C1671 H1687 0.961 . S
C1672 C1673 1.370 . S
C1672 C1674 1.363 . S
C1672 H1688 0.931 . S
C1673 C1672 1.370 . S
C1673 C1677 1.408 . S
C1674 C1672 1.363 . S
C1674 C1675 1.370 . S
C1674 C1678 1.524 . S
C1675 C1667 1.503 . S
C1675 C1674 1.370 . S
C1675 C1676 1.403 . S
C1676 C1675 1.403 . S
C1676 C1677 1.404 . S
C1676 C1679 1.539 . S
C1677 C1673 1.408 . S
C1677 C1676 1.404 . S
C1677 H1689 0.930 . S
C1678 C1674 1.524 . S
C1678 H1690 0.956 . S
C1678 H1691 0.961 . S
C1678 H1692 0.961 . S
C1679 C1676 1.539 . S
C1679 H1693 0.958 . S
C1679 H1694 0.961 . S
C1679 H1695 0.960 . S
H1680 C1664 0.931 . S
H1681 C1669 0.929 . S
H1682 C1670 0.960 . S
H1683 C1670 0.962 . S
H1684 C1670 0.960 . S
H1685 C1671 0.961 . S
H1686 C1671 0.961 . S
H1687 C1671 0.961 . S
H1688 C1672 0.931 . S
H1689 C1677 0.930 . S
H1690 C1678 0.956 . S
H1691 C1678 0.961 . S
H1692 C1678 0.961 . S
H1693 C1679 0.958 . S
H1694 C1679 0.961 . S
H1695 C1679 0.960 . S
C1696 C1697 1.391 . S
C1696 C1698 1.394 . S
C1696 H1712 0.931 . S
C1697 C1696 1.391 . S
C1697 C1701 1.376 . S
C1698 C1696 1.394 . S
C1698 C1699 1.369 . S
C1698 C1702 1.531 . S
C1699 C1698 1.369 . S
C1699 C1700 1.410 . S
C1699 C1707 1.503 . S
C1700 C1699 1.410 . S
C1700 C1701 1.392 . S
C1700 C1703 1.511 . S
C1701 C1697 1.376 . S
C1701 C1700 1.392 . S
C1701 H1713 0.929 . S
C1702 C1698 1.531 . S
C1702 H1714 0.960 . S
C1702 H1715 0.962 . S
C1702 H1716 0.960 . S
C1703 C1700 1.511 . S
C1703 H1717 0.961 . S
C1703 H1718 0.961 . S
C1703 H1719 0.961 . S
C1704 C1705 1.370 . S
C1704 C1706 1.363 . S
C1704 H1720 0.931 . S
C1705 C1704 1.370 . S
C1705 C1709 1.408 . S
C1706 C1704 1.363 . S
C1706 C1707 1.370 . S
C1706 C1710 1.524 . S
C1707 C1699 1.503 . S
C1707 C1706 1.370 . S
C1707 C1708 1.403 . S
C1708 C1707 1.403 . S
C1708 C1709 1.404 . S
C1708 C1711 1.539 . S
C1709 C1705 1.408 . S
C1709 C1708 1.404 . S
C1709 H1721 0.930 . S
C1710 C1706 1.524 . S
C1710 H1722 0.956 . S
C1710 H1723 0.961 . S
C1710 H1724 0.961 . S
C1711 C1708 1.539 . S
C1711 H1725 0.958 . S
C1711 H1726 0.961 . S
C1711 H1727 0.960 . S
H1712 C1696 0.931 . S
H1713 C1701 0.929 . S
H1714 C1702 0.960 . S
H1715 C1702 0.962 . S
H1716 C1702 0.960 . S
H1717 C1703 0.961 . S
H1718 C1703 0.961 . S
H1719 C1703 0.961 . S
H1720 C1704 0.931 . S
H1721 C1709 0.930 . S
H1722 C1710 0.956 . S
H1723 C1710 0.961 . S
H1724 C1710 0.961 . S
H1725 C1711 0.958 . S
H1726 C1711 0.961 . S
H1727 C1711 0.960 . S
C1728 C1729 1.391 . S
C1728 C1730 1.394 . S
C1728 H1744 0.931 . S
C1729 C1728 1.391 . S
C1729 C1733 1.376 . S
C1730 C1728 1.394 . S
C1730 C1731 1.369 . S
C1730 C1734 1.531 . S
C1731 C1730 1.369 . S
C1731 C1732 1.410 . S
C1731 C1739 1.503 . S
C1732 C1731 1.410 . S
C1732 C1733 1.392 . S
C1732 C1735 1.511 . S
C1733 C1729 1.376 . S
C1733 C1732 1.392 . S
C1733 H1745 0.929 . S
C1734 C1730 1.531 . S
C1734 H1746 0.960 . S
C1734 H1747 0.962 . S
C1734 H1748 0.960 . S
C1735 C1732 1.511 . S
C1735 H1749 0.961 . S
C1735 H1750 0.961 . S
C1735 H1751 0.961 . S
C1736 C1737 1.370 . S
C1736 C1738 1.363 . S
C1736 H1752 0.931 . S
C1737 C1736 1.370 . S
C1737 C1741 1.408 . S
C1738 C1736 1.363 . S
C1738 C1739 1.370 . S
C1738 C1742 1.524 . S
C1739 C1731 1.503 . S
C1739 C1738 1.370 . S
C1739 C1740 1.403 . S
C1740 C1739 1.403 . S
C1740 C1741 1.404 . S
C1740 C1743 1.539 . S
C1741 C1737 1.408 . S
C1741 C1740 1.404 . S
C1741 H1753 0.930 . S
C1742 C1738 1.524 . S
C1742 H1754 0.956 . S
C1742 H1755 0.961 . S
C1742 H1756 0.961 . S
C1743 C1740 1.539 . S
C1743 H1757 0.958 . S
C1743 H1758 0.961 . S
C1743 H1759 0.960 . S
H1744 C1728 0.931 . S
H1745 C1733 0.929 . S
H1746 C1734 0.960 . S
H1747 C1734 0.962 . S
H1748 C1734 0.960 . S
H1749 C1735 0.961 . S
H1750 C1735 0.961 . S
H1751 C1735 0.961 . S
H1752 C1736 0.931 . S
H1753 C1741 0.930 . S
H1754 C1742 0.956 . S
H1755 C1742 0.961 . S
H1756 C1742 0.961 . S
H1757 C1743 0.958 . S
H1758 C1743 0.961 . S
H1759 C1743 0.960 . S
C1760 C1761 1.391 . S
C1760 C1762 1.394 . S
C1760 H1776 0.931 . S
C1761 C1760 1.391 . S
C1761 C1765 1.376 . S
C1762 C1760 1.394 . S
C1762 C1763 1.369 . S
C1762 C1766 1.531 . S
C1763 C1762 1.369 . S
C1763 C1764 1.410 . S
C1763 C1771 1.503 . S
C1764 C1763 1.410 . S
C1764 C1765 1.392 . S
C1764 C1767 1.511 1_655 S
C1765 C1761 1.376 . S
C1765 C1764 1.392 . S
C1765 H1777 0.929 . S
C1766 C1762 1.531 . S
C1766 H1778 0.960 . S
C1766 H1779 0.962 . S
C1766 H1780 0.960 . S
C1767 C1764 1.511 1_455 S
C1767 H1781 0.961 1_545 S
C1767 H1782 0.961 . S
C1767 H1783 0.961 . S
C1768 C1769 1.370 1_655 S
C1768 C1770 1.363 . S
C1768 H1784 0.931 . S
C1769 C1768 1.370 1_455 S
C1769 C1773 1.408 . S
C1770 C1768 1.363 . S
C1770 C1771 1.370 . S
C1770 C1774 1.524 . S
C1771 C1763 1.503 . S
C1771 C1770 1.370 . S
C1771 C1772 1.403 1_655 S
C1772 C1771 1.403 1_455 S
C1772 C1773 1.404 . S
C1772 C1775 1.539 . S
C1773 C1769 1.408 . S
C1773 C1772 1.404 . S
C1773 H1785 0.930 . S
C1774 C1770 1.524 . S
C1774 H1786 0.956 . S
C1774 H1787 0.961 1_545 S
C1774 H1788 0.961 1_545 S
C1775 C1772 1.539 . S
C1775 H1789 0.958 . S
C1775 H1790 0.961 . S
C1775 H1791 0.960 . S
H1776 C1760 0.931 . S
H1777 C1765 0.929 . S
H1778 C1766 0.960 . S
H1779 C1766 0.962 . S
H1780 C1766 0.960 . S
H1781 C1767 0.961 1_565 S
H1782 C1767 0.961 . S
H1783 C1767 0.961 . S
H1784 C1768 0.931 . S
H1785 C1773 0.930 . S
H1786 C1774 0.956 . S
H1787 C1774 0.961 1_565 S
H1788 C1774 0.961 1_565 S
H1789 C1775 0.958 . S
H1790 C1775 0.961 . S
H1791 C1775 0.960 . S
C1792 C1793 1.391 . S
C1792 C1794 1.394 . S
C1792 H1808 0.931 . S
C1793 C1792 1.391 . S
C1793 C1797 1.376 . S
C1794 C1792 1.394 . S
C1794 C1795 1.369 . S
C1794 C1798 1.531 . S
C1795 C1794 1.369 . S
C1795 C1796 1.410 . S
C1795 C1803 1.503 . S
C1796 C1795 1.410 . S
C1796 C1797 1.392 . S
C1796 C1799 1.511 . S
C1797 C1793 1.376 . S
C1797 C1796 1.392 . S
C1797 H1809 0.929 . S
C1798 C1794 1.531 . S
C1798 H1810 0.960 . S
C1798 H1811 0.962 . S
C1798 H1812 0.960 . S
C1799 C1796 1.511 . S
C1799 H1813 0.961 . S
C1799 H1814 0.961 . S
C1799 H1815 0.961 . S
C1800 C1801 1.370 . S
C1800 C1802 1.363 . S
C1800 H1816 0.931 . S
C1801 C1800 1.370 . S
C1801 C1805 1.408 . S
C1802 C1800 1.363 . S
C1802 C1803 1.370 . S
C1802 C1806 1.524 . S
C1803 C1795 1.503 . S
C1803 C1802 1.370 . S
C1803 C1804 1.403 . S
C1804 C1803 1.403 . S
C1804 C1805 1.404 . S
C1804 C1807 1.539 . S
C1805 C1801 1.408 . S
C1805 C1804 1.404 . S
C1805 H1817 0.930 . S
C1806 C1802 1.524 . S
C1806 H1818 0.956 . S
C1806 H1819 0.961 . S
C1806 H1820 0.961 . S
C1807 C1804 1.539 . S
C1807 H1821 0.958 . S
C1807 H1822 0.961 . S
C1807 H1823 0.960 . S
H1808 C1792 0.931 . S
H1809 C1797 0.929 . S
H1810 C1798 0.960 . S
H1811 C1798 0.962 . S
H1812 C1798 0.960 . S
H1813 C1799 0.961 . S
H1814 C1799 0.961 . S
H1815 C1799 0.961 . S
H1816 C1800 0.931 . S
H1817 C1805 0.930 . S
H1818 C1806 0.956 . S
H1819 C1806 0.961 . S
H1820 C1806 0.961 . S
H1821 C1807 0.958 . S
H1822 C1807 0.961 . S
H1823 C1807 0.960 . S
C1824 C1825 1.391 . S
C1824 C1826 1.394 . S
C1824 H1840 0.931 . S
C1825 C1824 1.391 . S
C1825 C1829 1.376 . S
C1826 C1824 1.394 . S
C1826 C1827 1.369 . S
C1826 C1830 1.531 . S
C1827 C1826 1.369 . S
C1827 C1828 1.410 . S
C1827 C1835 1.503 . S
C1828 C1827 1.410 . S
C1828 C1829 1.392 . S
C1828 C1831 1.511 . S
C1829 C1825 1.376 . S
C1829 C1828 1.392 . S
C1829 H1841 0.929 . S
C1830 C1826 1.531 . S
C1830 H1842 0.960 . S
C1830 H1843 0.962 . S
C1830 H1844 0.960 . S
C1831 C1828 1.511 . S
C1831 H1845 0.961 . S
C1831 H1846 0.961 . S
C1831 H1847 0.961 . S
C1832 C1833 1.370 . S
C1832 C1834 1.363 . S
C1832 H1848 0.931 . S
C1833 C1832 1.370 . S
C1833 C1837 1.408 . S
C1834 C1832 1.363 . S
C1834 C1835 1.370 . S
C1834 C1838 1.524 . S
C1835 C1827 1.503 . S
C1835 C1834 1.370 . S
C1835 C1836 1.403 . S
C1836 C1835 1.403 . S
C1836 C1837 1.404 . S
C1836 C1839 1.539 . S
C1837 C1833 1.408 . S
C1837 C1836 1.404 . S
C1837 H1849 0.930 . S
C1838 C1834 1.524 . S
C1838 H1850 0.956 . S
C1838 H1851 0.961 . S
C1838 H1852 0.961 . S
C1839 C1836 1.539 . S
C1839 H1853 0.958 . S
C1839 H1854 0.961 1_545 S
C1839 H1855 0.960 . S
H1840 C1824 0.931 . S
H1841 C1829 0.929 . S
H1842 C1830 0.960 . S
H1843 C1830 0.962 . S
H1844 C1830 0.960 . S
H1845 C1831 0.961 . S
H1846 C1831 0.961 . S
H1847 C1831 0.961 . S
H1848 C1832 0.931 . S
H1849 C1837 0.930 . S
H1850 C1838 0.956 . S
H1851 C1838 0.961 . S
H1852 C1838 0.961 . S
H1853 C1839 0.958 . S
H1854 C1839 0.961 1_565 S
H1855 C1839 0.960 . S
C1856 C1857 1.391 . S
C1856 C1858 1.394 . S
C1856 H1872 0.931 . S
C1857 C1856 1.391 . S
C1857 C1861 1.376 . S
C1858 C1856 1.394 . S
C1858 C1859 1.369 . S
C1858 C1862 1.531 . S
C1859 C1858 1.369 . S
C1859 C1860 1.410 . S
C1859 C1867 1.503 . S
C1860 C1859 1.410 . S
C1860 C1861 1.392 . S
C1860 C1863 1.511 . S
C1861 C1857 1.376 . S
C1861 C1860 1.392 . S
C1861 H1873 0.929 . S
C1862 C1858 1.531 . S
C1862 H1874 0.960 . S
C1862 H1875 0.962 . S
C1862 H1876 0.960 . S
C1863 C1860 1.511 . S
C1863 H1877 0.961 . S
C1863 H1878 0.961 . S
C1863 H1879 0.961 . S
C1864 C1865 1.370 . S
C1864 C1866 1.363 . S
C1864 H1880 0.931 . S
C1865 C1864 1.370 . S
C1865 C1869 1.408 . S
C1866 C1864 1.363 . S
C1866 C1867 1.370 . S
C1866 C1870 1.524 . S
C1867 C1859 1.503 . S
C1867 C1866 1.370 . S
C1867 C1868 1.403 . S
C1868 C1867 1.403 . S
C1868 C1869 1.404 . S
C1868 C1871 1.539 . S
C1869 C1865 1.408 . S
C1869 C1868 1.404 . S
C1869 H1881 0.930 . S
C1870 C1866 1.524 . S
C1870 H1882 0.956 . S
C1870 H1883 0.961 . S
C1870 H1884 0.961 . S
C1871 C1868 1.539 . S
C1871 H1885 0.958 . S
C1871 H1886 0.961 . S
C1871 H1887 0.960 . S
H1872 C1856 0.931 . S
H1873 C1861 0.929 . S
H1874 C1862 0.960 . S
H1875 C1862 0.962 . S
H1876 C1862 0.960 . S
H1877 C1863 0.961 . S
H1878 C1863 0.961 . S
H1879 C1863 0.961 . S
H1880 C1864 0.931 . S
H1881 C1869 0.930 . S
H1882 C1870 0.956 . S
H1883 C1870 0.961 . S
H1884 C1870 0.961 . S
H1885 C1871 0.958 . S
H1886 C1871 0.961 . S
H1887 C1871 0.960 . S
C1888 C1889 1.391 . S
C1888 C1890 1.394 . S
C1888 H1904 0.931 . S
C1889 C1888 1.391 . S
C1889 C1893 1.376 . S
C1890 C1888 1.394 . S
C1890 C1891 1.369 . S
C1890 C1894 1.531 . S
C1891 C1890 1.369 . S
C1891 C1892 1.410 1_655 S
C1891 C1899 1.510 . S
C1892 C1891 1.410 1_455 S
C1892 C1893 1.392 1_455 S
C1892 C1895 1.511 . S
C1893 C1889 1.376 . S
C1893 C1892 1.392 1_655 S
C1893 H1905 0.929 1_655 S
C1894 C1890 1.531 . S
C1894 H1906 0.937 1_545 S
C1894 H1907 0.962 . S
C1894 H1908 0.960 1_545 S
C1895 C1892 1.511 . S
C1895 H1909 0.961 . S
C1895 H1910 0.961 . S
C1895 H1911 0.961 . S
C1896 C1897 1.370 . S
C1896 C1898 1.363 1_455 S
C1896 H1912 0.951 . S
C1897 C1896 1.370 . S
C1897 C1901 1.408 . S
C1898 C1896 1.363 1_655 S
C1898 C1899 1.384 . S
C1898 C1902 1.524 . S
C1899 C1891 1.510 . S
C1899 C1898 1.384 . S
C1899 C1900 1.383 1_655 S
C1900 C1899 1.383 1_455 S
C1900 C1901 1.404 . S
C1900 C1903 1.539 1_545 S
C1901 C1897 1.408 . S
C1901 C1900 1.404 . S
C1901 H1913 0.930 . S
C1902 C1898 1.524 . S
C1902 H1914 0.956 . S
C1902 H1915 0.961 . S
C1902 H1916 0.961 . S
C1903 C1900 1.539 1_565 S
C1903 H1917 0.958 . S
C1903 H1918 0.961 . S
C1903 H1919 0.960 1_565 S
H1904 C1888 0.931 . S
H1905 C1893 0.929 1_455 S
H1906 C1894 0.937 1_565 S
H1907 C1894 0.962 . S
H1908 C1894 0.960 1_565 S
H1909 C1895 0.961 . S
H1910 C1895 0.961 . S
H1911 C1895 0.961 . S
H1912 C1896 0.951 . S
H1913 C1901 0.930 . S
H1914 C1902 0.956 . S
H1915 C1902 0.961 . S
H1916 C1902 0.961 . S
H1917 C1903 0.958 . S
H1918 C1903 0.961 . S
H1919 C1903 0.960 1_545 S
C1920 C1921 1.391 . S
C1920 C1922 1.394 . S
C1920 H1936 0.931 . S
C1921 C1920 1.391 . S
C1921 C1925 1.376 . S
C1922 C1920 1.394 . S
C1922 C1923 1.369 . S
C1922 C1926 1.531 . S
C1923 C1922 1.369 . S
C1923 C1924 1.410 . S
C1923 C1931 1.503 . S
C1924 C1923 1.410 . S
C1924 C1925 1.392 . S
C1924 C1927 1.511 . S
C1925 C1921 1.376 . S
C1925 C1924 1.392 . S
C1925 H1937 0.929 . S
C1926 C1922 1.531 . S
C1926 H1938 0.960 . S
C1926 H1939 0.962 . S
C1926 H1940 0.960 . S
C1927 C1924 1.511 . S
C1927 H1941 0.961 . S
C1927 H1942 0.961 . S
C1927 H1943 0.961 . S
C1928 C1929 1.370 . S
C1928 C1930 1.363 . S
C1928 H1944 0.931 . S
C1929 C1928 1.370 . S
C1929 C1933 1.408 . S
C1930 C1928 1.363 . S
C1930 C1931 1.370 . S
C1930 C1934 1.524 . S
C1931 C1923 1.503 . S
C1931 C1930 1.370 . S
C1931 C1932 1.403 . S
C1932 C1931 1.403 . S
C1932 C1933 1.404 . S
C1932 C1935 1.539 . S
C1933 C1929 1.408 . S
C1933 C1932 1.404 . S
C1933 H1945 0.930 . S
C1934 C1930 1.524 . S
C1934 H1946 0.956 . S
C1934 H1947 0.961 . S
C1934 H1948 0.961 . S
C1935 C1932 1.539 . S
C1935 H1949 0.958 . S
C1935 H1950 0.961 . S
C1935 H1951 0.960 . S
H1936 C1920 0.931 . S
H1937 C1925 0.929 . S
H1938 C1926 0.960 . S
H1939 C1926 0.962 . S
H1940 C1926 0.960 . S
H1941 C1927 0.961 . S
H1942 C1927 0.961 . S
H1943 C1927 0.961 . S
H1944 C1928 0.931 . S
H1945 C1933 0.930 . S
H1946 C1934 0.956 . S
H1947 C1934 0.961 . S
H1948 C1934 0.961 . S
H1949 C1935 0.958 . S
H1950 C1935 0.961 . S
H1951 C1935 0.960 . S
C1952 C1953 1.391 . S
C1952 C1954 1.394 . S
C1952 H1968 0.931 . S
C1953 C1952 1.391 . S
C1953 C1957 1.376 . S
C1954 C1952 1.394 . S
C1954 C1955 1.369 . S
C1954 C1958 1.531 . S
C1955 C1954 1.369 . S
C1955 C1956 1.410 . S
C1955 C1963 1.503 . S
C1956 C1955 1.410 . S
C1956 C1957 1.392 . S
C1956 C1959 1.511 . S
C1957 C1953 1.376 . S
C1957 C1956 1.392 . S
C1957 H1969 0.929 . S
C1958 C1954 1.531 . S
C1958 H1970 0.960 . S
C1958 H1971 0.962 . S
C1958 H1972 0.960 . S
C1959 C1956 1.511 . S
C1959 H1973 0.961 . S
C1959 H1974 0.961 . S
C1959 H1975 0.961 . S
C1960 C1961 1.370 . S
C1960 C1962 1.363 . S
C1960 H1976 0.931 . S
C1961 C1960 1.370 . S
C1961 C1965 1.408 . S
C1962 C1960 1.363 . S
C1962 C1963 1.370 . S
C1962 C1966 1.524 . S
C1963 C1955 1.503 . S
C1963 C1962 1.370 . S
C1963 C1964 1.403 . S
C1964 C1963 1.403 . S
C1964 C1965 1.404 . S
C1964 C1967 1.539 . S
C1965 C1961 1.408 . S
C1965 C1964 1.404 . S
C1965 H1977 0.930 . S
C1966 C1962 1.524 . S
C1966 H1978 0.956 . S
C1966 H1979 0.961 . S
C1966 H1980 0.961 . S
C1967 C1964 1.539 . S
C1967 H1981 0.958 . S
C1967 H1982 0.961 . S
C1967 H1983 0.960 . S
H1968 C1952 0.931 . S
H1969 C1957 0.929 . S
H1970 C1958 0.960 . S
H1971 C1958 0.962 . S
H1972 C1958 0.960 . S
H1973 C1959 0.961 . S
H1974 C1959 0.961 . S
H1975 C1959 0.961 . S
H1976 C1960 0.931 . S
H1977 C1965 0.930 . S
H1978 C1966 0.956 . S
H1979 C1966 0.961 . S
H1980 C1966 0.961 . S
H1981 C1967 0.958 . S
H1982 C1967 0.961 . S
H1983 C1967 0.960 . S
C1984 C1985 1.391 . S
C1984 C1986 1.394 . S
C1984 H2000 0.931 . S
C1985 C1984 1.391 . S
C1985 C1989 1.376 . S
C1986 C1984 1.394 . S
C1986 C1987 1.369 . S
C1986 C1990 1.531 . S
C1987 C1986 1.369 . S
C1987 C1988 1.410 . S
C1987 C1995 1.503 . S
C1988 C1987 1.410 . S
C1988 C1989 1.392 . S
C1988 C1991 1.511 . S
C1989 C1985 1.376 . S
C1989 C1988 1.392 . S
C1989 H2001 0.929 . S
C1990 C1986 1.531 . S
C1990 H2002 0.960 . S
C1990 H2003 0.962 . S
C1990 H2004 0.960 . S
C1991 C1988 1.511 . S
C1991 H2005 0.961 . S
C1991 H2006 0.961 . S
C1991 H2007 0.961 . S
C1992 C1993 1.370 . S
C1992 C1994 1.363 . S
C1992 H2008 0.931 . S
C1993 C1992 1.370 . S
C1993 C1997 1.408 . S
C1994 C1992 1.363 . S
C1994 C1995 1.370 . S
C1994 C1998 1.524 . S
C1995 C1987 1.503 . S
C1995 C1994 1.370 . S
C1995 C1996 1.403 . S
C1996 C1995 1.403 . S
C1996 C1997 1.404 . S
C1996 C1999 1.539 . S
C1997 C1993 1.408 . S
C1997 C1996 1.404 . S
C1997 H2009 0.930 . S
C1998 C1994 1.524 . S
C1998 H2010 0.956 . S
C1998 H2011 0.961 . S
C1998 H2012 0.961 . S
C1999 C1996 1.539 . S
C1999 H2013 0.958 . S
C1999 H2014 0.961 . S
C1999 H2015 0.960 . S
H2000 C1984 0.931 . S
H2001 C1989 0.929 . S
H2002 C1990 0.960 . S
H2003 C1990 0.962 . S
H2004 C1990 0.960 . S
H2005 C1991 0.961 . S
H2006 C1991 0.961 . S
H2007 C1991 0.961 . S
H2008 C1992 0.931 . S
H2009 C1997 0.930 . S
H2010 C1998 0.956 . S
H2011 C1998 0.961 . S
H2012 C1998 0.961 . S
H2013 C1999 0.958 . S
H2014 C1999 0.961 . S
H2015 C1999 0.960 . S
C2016 C2017 1.391 . S
C2016 C2018 1.394 . S
C2016 H2032 0.931 . S
C2017 C2016 1.391 . S
C2017 C2021 1.376 1_554 S
C2018 C2016 1.394 . S
C2018 C2019 1.369 . S
C2018 C2022 1.531 . S
C2019 C2018 1.369 . S
C2019 C2020 1.410 . S
C2019 C2027 1.503 . S
C2020 C2019 1.410 . S
C2020 C2021 1.392 1_554 S
C2020 C2023 1.511 1_554 S
C2021 C2017 1.376 1_556 S
C2021 C2020 1.392 1_556 S
C2021 H2033 0.929 . S
C2022 C2018 1.531 . S
C2022 H2034 0.960 . S
C2022 H2035 0.962 . S
C2022 H2036 0.960 . S
C2023 C2020 1.511 1_556 S
C2023 H2037 0.961 . S
C2023 H2038 0.961 . S
C2023 H2039 0.961 1_566 S
C2024 C2025 1.370 . S
C2024 C2026 1.363 . S
C2024 H2040 0.931 . S
C2025 C2024 1.370 . S
C2025 C2029 1.408 1_565 S
C2026 C2024 1.363 . S
C2026 C2027 1.370 . S
C2026 C2030 1.524 . S
C2027 C2019 1.503 . S
C2027 C2026 1.370 . S
C2027 C2028 1.403 . S
C2028 C2027 1.403 . S
C2028 C2029 1.404 1_565 S
C2028 C2031 1.539 1_565 S
C2029 C2025 1.408 1_545 S
C2029 C2028 1.404 1_545 S
C2029 H2041 0.930 . S
C2030 C2026 1.524 . S
C2030 H2042 0.956 . S
C2030 H2043 0.961 1_554 S
C2030 H2044 0.961 1_554 S
C2031 C2028 1.539 1_545 S
C2031 H2045 0.963 . S
C2031 H2046 0.961 . S
C2031 H2047 0.960 . S
H2032 C2016 0.931 . S
H2033 C2021 0.929 . S
H2034 C2022 0.960 . S
H2035 C2022 0.962 . S
H2036 C2022 0.960 . S
H2037 C2023 0.961 . S
H2038 C2023 0.961 . S
H2039 C2023 0.961 1_544 S
H2040 C2024 0.931 . S
H2041 C2029 0.930 . S
H2042 C2030 0.956 . S
H2043 C2030 0.961 1_556 S
H2044 C2030 0.961 1_556 S
H2045 C2031 0.963 . S
H2046 C2031 0.961 . S
H2047 C2031 0.960 . S
C2048 C2049 1.391 . S
C2048 C2050 1.394 . S
C2048 H2064 0.931 . S
C2049 C2048 1.391 . S
C2049 C2053 1.376 . S
C2050 C2048 1.394 . S
C2050 C2051 1.369 . S
C2050 C2054 1.531 . S
C2051 C2050 1.369 . S
C2051 C2052 1.410 . S
C2051 C2059 1.503 . S
C2052 C2051 1.410 . S
C2052 C2053 1.392 . S
C2052 C2055 1.511 1_554 S
C2053 C2049 1.376 . S
C2053 C2052 1.392 . S
C2053 H2065 0.929 1_554 S
C2054 C2050 1.531 . S
C2054 H2066 0.960 . S
C2054 H2067 0.962 . S
C2054 H2068 0.960 . S
C2055 C2052 1.511 1_556 S
C2055 H2069 0.961 . S
C2055 H2070 0.961 . S
C2055 H2071 0.961 . S
C2056 C2057 1.370 . S
C2056 C2058 1.363 . S
C2056 H2072 0.931 . S
C2057 C2056 1.370 . S
C2057 C2061 1.408 . S
C2058 C2056 1.363 . S
C2058 C2059 1.370 . S
C2058 C2062 1.524 . S
C2059 C2051 1.503 . S
C2059 C2058 1.370 . S
C2059 C2060 1.403 . S
C2060 C2059 1.403 . S
C2060 C2061 1.404 . S
C2060 C2063 1.539 . S
C2061 C2057 1.408 . S
C2061 C2060 1.404 . S
C2061 H2073 0.930 . S
C2062 C2058 1.524 . S
C2062 H2074 0.956 . S
C2062 H2075 0.961 . S
C2062 H2076 0.961 . S
C2063 C2060 1.539 . S
C2063 H2077 0.958 . S
C2063 H2078 0.961 . S
C2063 H2079 0.960 . S
H2064 C2048 0.931 . S
H2065 C2053 0.929 1_556 S
H2066 C2054 0.960 . S
H2067 C2054 0.962 . S
H2068 C2054 0.960 . S
H2069 C2055 0.961 . S
H2070 C2055 0.961 . S
H2071 C2055 0.961 . S
H2072 C2056 0.931 . S
H2073 C2061 0.930 . S
H2074 C2062 0.956 . S
H2075 C2062 0.961 . S
H2076 C2062 0.961 . S
H2077 C2063 0.958 . S
H2078 C2063 0.961 . S
H2079 C2063 0.960 . S
C2080 C2081 1.391 . S
C2080 C2082 1.394 . S
C2080 H2096 0.931 . S
C2081 C2080 1.391 . S
C2081 C2085 1.376 . S
C2082 C2080 1.394 . S
C2082 C2083 1.369 . S
C2082 C2086 1.531 . S
C2083 C2082 1.369 . S
C2083 C2084 1.410 . S
C2083 C2091 1.503 . S
C2084 C2083 1.410 . S
C2084 C2085 1.392 . S
C2084 C2087 1.511 . S
C2085 C2081 1.376 . S
C2085 C2084 1.392 . S
C2085 H2097 0.929 . S
C2086 C2082 1.531 . S
C2086 H2098 0.960 . S
C2086 H2099 0.962 . S
C2086 H2100 0.960 . S
C2087 C2084 1.511 . S
C2087 H2101 0.961 . S
C2087 H2102 0.961 . S
C2087 H2103 0.961 . S
C2088 C2089 1.370 . S
C2088 C2090 1.363 . S
C2088 H2104 0.931 . S
C2089 C2088 1.370 . S
C2089 C2093 1.408 . S
C2090 C2088 1.363 . S
C2090 C2091 1.370 . S
C2090 C2094 1.524 . S
C2091 C2083 1.503 . S
C2091 C2090 1.370 . S
C2091 C2092 1.403 . S
C2092 C2091 1.403 . S
C2092 C2093 1.404 . S
C2092 C2095 1.539 . S
C2093 C2089 1.408 . S
C2093 C2092 1.404 . S
C2093 H2105 0.930 . S
C2094 C2090 1.524 . S
C2094 H2106 0.956 . S
C2094 H2107 0.961 . S
C2094 H2108 0.961 . S
C2095 C2092 1.539 . S
C2095 H2109 0.958 . S
C2095 H2110 0.961 . S
C2095 H2111 0.960 . S
H2096 C2080 0.931 . S
H2097 C2085 0.929 . S
H2098 C2086 0.960 . S
H2099 C2086 0.962 . S
H2100 C2086 0.960 . S
H2101 C2087 0.961 . S
H2102 C2087 0.961 . S
H2103 C2087 0.961 . S
H2104 C2088 0.931 . S
H2105 C2093 0.930 . S
H2106 C2094 0.956 . S
H2107 C2094 0.961 . S
H2108 C2094 0.961 . S
H2109 C2095 0.958 . S
H2110 C2095 0.961 . S
H2111 C2095 0.960 . S
C2112 C2113 1.391 . S
C2112 C2114 1.394 . S
C2112 H2128 0.931 . S
C2113 C2112 1.391 . S
C2113 C2117 1.376 . S
C2114 C2112 1.394 . S
C2114 C2115 1.369 . S
C2114 C2118 1.531 . S
C2115 C2114 1.369 . S
C2115 C2116 1.410 . S
C2115 C2123 1.503 . S
C2116 C2115 1.410 . S
C2116 C2117 1.392 . S
C2116 C2119 1.511 . S
C2117 C2113 1.376 . S
C2117 C2116 1.392 . S
C2117 H2129 0.929 . S
C2118 C2114 1.531 . S
C2118 H2130 0.960 . S
C2118 H2131 0.962 . S
C2118 H2132 0.960 . S
C2119 C2116 1.511 . S
C2119 H2133 0.961 . S
C2119 H2134 0.961 . S
C2119 H2135 0.961 . S
C2120 C2121 1.370 . S
C2120 C2122 1.363 . S
C2120 H2136 0.931 . S
C2121 C2120 1.370 . S
C2121 C2125 1.408 . S
C2122 C2120 1.363 . S
C2122 C2123 1.370 . S
C2122 C2126 1.524 . S
C2123 C2115 1.503 . S
C2123 C2122 1.370 . S
C2123 C2124 1.403 . S
C2124 C2123 1.403 . S
C2124 C2125 1.404 . S
C2124 C2127 1.539 . S
C2125 C2121 1.408 . S
C2125 C2124 1.404 . S
C2125 H2137 0.930 . S
C2126 C2122 1.524 . S
C2126 H2138 0.956 . S
C2126 H2139 0.961 . S
C2126 H2140 0.961 . S
C2127 C2124 1.539 . S
C2127 H2141 0.958 . S
C2127 H2142 0.961 . S
C2127 H2143 0.960 . S
H2128 C2112 0.931 . S
H2129 C2117 0.929 . S
H2130 C2118 0.960 . S
H2131 C2118 0.962 . S
H2132 C2118 0.960 . S
H2133 C2119 0.961 . S
H2134 C2119 0.961 . S
H2135 C2119 0.961 . S
H2136 C2120 0.931 . S
H2137 C2125 0.930 . S
H2138 C2126 0.956 . S
H2139 C2126 0.961 . S
H2140 C2126 0.961 . S
H2141 C2127 0.958 . S
H2142 C2127 0.961 . S
H2143 C2127 0.960 . S
C2144 C2145 1.391 . S
C2144 C2146 1.394 . S
C2144 H2160 0.931 . S
C2145 C2144 1.391 . S
C2145 C2149 1.376 . S
C2146 C2144 1.394 . S
C2146 C2147 1.369 . S
C2146 C2150 1.531 . S
C2147 C2146 1.369 . S
C2147 C2148 1.410 . S
C2147 C2155 1.503 . S
C2148 C2147 1.410 . S
C2148 C2149 1.392 . S
C2148 C2151 1.511 . S
C2149 C2145 1.376 . S
C2149 C2148 1.392 . S
C2149 H2161 0.929 . S
C2150 C2146 1.531 . S
C2150 H2162 0.960 . S
C2150 H2163 0.962 . S
C2150 H2164 0.960 . S
C2151 C2148 1.511 . S
C2151 H2165 0.961 . S
C2151 H2166 0.961 . S
C2151 H2167 0.961 . S
C2152 C2153 1.370 . S
C2152 C2154 1.363 . S
C2152 H2168 0.931 . S
C2153 C2152 1.370 . S
C2153 C2157 1.408 . S
C2154 C2152 1.363 . S
C2154 C2155 1.370 . S
C2154 C2158 1.524 . S
C2155 C2147 1.503 . S
C2155 C2154 1.370 . S
C2155 C2156 1.403 . S
C2156 C2155 1.403 . S
C2156 C2157 1.404 . S
C2156 C2159 1.539 . S
C2157 C2153 1.408 . S
C2157 C2156 1.404 . S
C2157 H2169 0.930 . S
C2158 C2154 1.524 . S
C2158 H2170 0.956 . S
C2158 H2171 0.961 . S
C2158 H2172 0.961 . S
C2159 C2156 1.539 . S
C2159 H2173 0.958 . S
C2159 H2174 0.961 . S
C2159 H2175 0.960 . S
H2160 C2144 0.931 . S
H2161 C2149 0.929 . S
H2162 C2150 0.960 . S
H2163 C2150 0.962 . S
H2164 C2150 0.960 . S
H2165 C2151 0.961 . S
H2166 C2151 0.961 . S
H2167 C2151 0.961 . S
H2168 C2152 0.931 . S
H2169 C2157 0.930 . S
H2170 C2158 0.956 . S
H2171 C2158 0.961 . S
H2172 C2158 0.961 . S
H2173 C2159 0.958 . S
H2174 C2159 0.961 . S
H2175 C2159 0.960 . S
C2176 C2177 1.391 . S
C2176 C2178 1.394 . S
C2176 H2192 0.931 . S
C2177 C2176 1.391 . S
C2177 C2181 1.376 . S
C2178 C2176 1.394 . S
C2178 C2179 1.369 . S
C2178 C2182 1.531 . S
C2179 C2178 1.369 . S
C2179 C2180 1.410 . S
C2179 C2187 1.503 . S
C2180 C2179 1.410 . S
C2180 C2181 1.392 . S
C2180 C2183 1.511 . S
C2181 C2177 1.376 . S
C2181 C2180 1.392 . S
C2181 H2193 0.929 . S
C2182 C2178 1.531 . S
C2182 H2194 0.960 . S
C2182 H2195 0.962 . S
C2182 H2196 0.960 . S
C2183 C2180 1.511 . S
C2183 H2197 0.961 . S
C2183 H2198 0.961 . S
C2183 H2199 0.961 . S
C2184 C2185 1.370 . S
C2184 C2186 1.363 . S
C2184 H2200 0.931 . S
C2185 C2184 1.370 . S
C2185 C2189 1.408 . S
C2186 C2184 1.363 . S
C2186 C2187 1.370 . S
C2186 C2190 1.524 . S
C2187 C2179 1.503 . S
C2187 C2186 1.370 . S
C2187 C2188 1.403 . S
C2188 C2187 1.403 . S
C2188 C2189 1.404 . S
C2188 C2191 1.539 . S
C2189 C2185 1.408 . S
C2189 C2188 1.404 . S
C2189 H2201 0.930 . S
C2190 C2186 1.524 . S
C2190 H2202 0.956 . S
C2190 H2203 0.961 . S
C2190 H2204 0.961 . S
C2191 C2188 1.539 . S
C2191 H2205 0.958 . S
C2191 H2206 0.961 . S
C2191 H2207 0.960 . S
H2192 C2176 0.931 . S
H2193 C2181 0.929 . S
H2194 C2182 0.960 . S
H2195 C2182 0.962 . S
H2196 C2182 0.960 . S
H2197 C2183 0.961 . S
H2198 C2183 0.961 . S
H2199 C2183 0.961 . S
H2200 C2184 0.931 . S
H2201 C2189 0.930 . S
H2202 C2190 0.956 . S
H2203 C2190 0.961 . S
H2204 C2190 0.961 . S
H2205 C2191 0.958 . S
H2206 C2191 0.961 . S
H2207 C2191 0.960 . S
C2208 C2209 1.391 . S
C2208 C2210 1.394 . S
C2208 H2224 0.931 . S
C2209 C2208 1.391 . S
C2209 C2213 1.376 . S
C2210 C2208 1.394 . S
C2210 C2211 1.369 . S
C2210 C2214 1.531 . S
C2211 C2210 1.369 . S
C2211 C2212 1.410 . S
C2211 C2219 1.503 . S
C2212 C2211 1.410 . S
C2212 C2213 1.392 . S
C2212 C2215 1.511 . S
C2213 C2209 1.376 . S
C2213 C2212 1.392 . S
C2213 H2225 0.929 . S
C2214 C2210 1.531 . S
C2214 H2226 0.960 . S
C2214 H2227 0.962 . S
C2214 H2228 0.960 . S
C2215 C2212 1.511 . S
C2215 H2229 0.961 . S
C2215 H2230 0.961 . S
C2215 H2231 0.961 . S
C2216 C2217 1.370 . S
C2216 C2218 1.363 . S
C2216 H2232 0.931 . S
C2217 C2216 1.370 . S
C2217 C2221 1.408 . S
C2218 C2216 1.363 . S
C2218 C2219 1.370 . S
C2218 C2222 1.524 . S
C2219 C2211 1.503 . S
C2219 C2218 1.370 . S
C2219 C2220 1.403 . S
C2220 C2219 1.403 . S
C2220 C2221 1.404 . S
C2220 C2223 1.539 . S
C2221 C2217 1.408 . S
C2221 C2220 1.404 . S
C2221 H2233 0.930 . S
C2222 C2218 1.524 . S
C2222 H2234 0.956 . S
C2222 H2235 0.961 . S
C2222 H2236 0.961 . S
C2223 C2220 1.539 . S
C2223 H2237 0.958 . S
C2223 H2238 0.961 . S
C2223 H2239 0.960 . S
H2224 C2208 0.931 . S
H2225 C2213 0.929 . S
H2226 C2214 0.960 . S
H2227 C2214 0.962 . S
H2228 C2214 0.960 . S
H2229 C2215 0.961 . S
H2230 C2215 0.961 . S
H2231 C2215 0.961 . S
H2232 C2216 0.931 . S
H2233 C2221 0.930 . S
H2234 C2222 0.956 . S
H2235 C2222 0.961 . S
H2236 C2222 0.961 . S
H2237 C2223 0.958 . S
H2238 C2223 0.961 . S
H2239 C2223 0.960 . S
C2240 C2241 1.391 . S
C2240 C2242 1.394 . S
C2240 H2256 0.931 . S
C2241 C2240 1.391 . S
C2241 C2245 1.376 . S
C2242 C2240 1.394 . S
C2242 C2243 1.369 . S
C2242 C2246 1.531 . S
C2243 C2242 1.369 . S
C2243 C2244 1.410 . S
C2243 C2251 1.503 . S
C2244 C2243 1.410 . S
C2244 C2245 1.392 . S
C2244 C2247 1.511 . S
C2245 C2241 1.376 . S
C2245 C2244 1.392 . S
C2245 H2257 0.929 . S
C2246 C2242 1.531 . S
C2246 H2258 0.960 . S
C2246 H2259 0.962 . S
C2246 H2260 0.960 . S
C2247 C2244 1.511 . S
C2247 H2261 0.961 . S
C2247 H2262 0.961 . S
C2247 H2263 0.961 . S
C2248 C2249 1.370 . S
C2248 C2250 1.363 . S
C2248 H2264 0.931 . S
C2249 C2248 1.370 . S
C2249 C2253 1.408 . S
C2250 C2248 1.363 . S
C2250 C2251 1.370 . S
C2250 C2254 1.524 . S
C2251 C2243 1.503 . S
C2251 C2250 1.370 . S
C2251 C2252 1.403 . S
C2252 C2251 1.403 . S
C2252 C2253 1.404 . S
C2252 C2255 1.539 . S
C2253 C2249 1.408 . S
C2253 C2252 1.404 . S
C2253 H2265 0.930 . S
C2254 C2250 1.524 . S
C2254 H2266 0.956 . S
C2254 H2267 0.961 . S
C2254 H2268 0.961 . S
C2255 C2252 1.539 . S
C2255 H2269 0.958 . S
C2255 H2270 0.961 . S
C2255 H2271 0.960 . S
H2256 C2240 0.931 . S
H2257 C2245 0.929 . S
H2258 C2246 0.960 . S
H2259 C2246 0.962 . S
H2260 C2246 0.960 . S
H2261 C2247 0.961 . S
H2262 C2247 0.961 . S
H2263 C2247 0.961 . S
H2264 C2248 0.931 . S
H2265 C2253 0.930 . S
H2266 C2254 0.956 . S
H2267 C2254 0.961 . S
H2268 C2254 0.961 . S
H2269 C2255 0.958 . S
H2270 C2255 0.961 . S
H2271 C2255 0.960 . S
C2272 C2273 1.391 . S
C2272 C2274 1.394 . S
C2272 H2288 0.931 . S
C2273 C2272 1.391 . S
C2273 C2277 1.376 . S
C2274 C2272 1.394 . S
C2274 C2275 1.369 . S
C2274 C2278 1.531 . S
C2275 C2274 1.369 . S
C2275 C2276 1.410 . S
C2275 C2283 1.503 . S
C2276 C2275 1.410 . S
C2276 C2277 1.392 . S
C2276 C2279 1.511 . S
C2277 C2273 1.376 . S
C2277 C2276 1.392 . S
C2277 H2289 0.929 . S
C2278 C2274 1.531 . S
C2278 H2290 0.960 . S
C2278 H2291 0.968 . S
C2278 H2292 0.960 . S
C2279 C2276 1.511 . S
C2279 H2293 0.961 . S
C2279 H2294 0.961 . S
C2279 H2295 0.961 . S
C2280 C2281 1.370 . S
C2280 C2282 1.363 . S
C2280 H2296 0.931 . S
C2281 C2280 1.370 . S
C2281 C2285 1.408 . S
C2282 C2280 1.363 . S
C2282 C2283 1.370 . S
C2282 C2286 1.524 . S
C2283 C2275 1.503 . S
C2283 C2282 1.370 . S
C2283 C2284 1.403 . S
C2284 C2283 1.403 . S
C2284 C2285 1.404 . S
C2284 C2287 1.539 . S
C2285 C2281 1.408 . S
C2285 C2284 1.404 . S
C2285 H2297 0.930 . S
C2286 C2282 1.524 . S
C2286 H2298 0.956 . S
C2286 H2299 0.961 . S
C2286 H2300 0.948 1_554 S
C2287 C2284 1.539 . S
C2287 H2301 0.958 . S
C2287 H2302 0.961 . S
C2287 H2303 0.960 . S
H2288 C2272 0.931 . S
H2289 C2277 0.929 . S
H2290 C2278 0.960 . S
H2291 C2278 0.968 . S
H2292 C2278 0.960 . S
H2293 C2279 0.961 . S
H2294 C2279 0.961 . S
H2295 C2279 0.961 . S
H2296 C2280 0.931 . S
H2297 C2285 0.930 . S
H2298 C2286 0.956 . S
H2299 C2286 0.961 . S
H2300 C2286 0.948 1_556 S
H2301 C2287 0.958 . S
H2302 C2287 0.961 . S
H2303 C2287 0.960 . S
C2304 C2305 1.391 . S
C2304 C2306 1.394 . S
C2304 H2320 0.931 . S
C2305 C2304 1.391 . S
C2305 C2309 1.376 . S
C2306 C2304 1.394 . S
C2306 C2307 1.369 . S
C2306 C2310 1.531 . S
C2307 C2306 1.369 . S
C2307 C2308 1.410 . S
C2307 C2315 1.503 . S
C2308 C2307 1.410 . S
C2308 C2309 1.392 . S
C2308 C2311 1.511 . S
C2309 C2305 1.376 . S
C2309 C2308 1.392 . S
C2309 H2321 0.929 . S
C2310 C2306 1.531 . S
C2310 H2322 0.960 . S
C2310 H2323 0.962 . S
C2310 H2324 0.960 . S
C2311 C2308 1.511 . S
C2311 H2325 0.961 . S
C2311 H2326 0.961 . S
C2311 H2327 0.961 . S
C2312 C2313 1.370 . S
C2312 C2314 1.363 . S
C2312 H2328 0.931 . S
C2313 C2312 1.370 . S
C2313 C2317 1.408 . S
C2314 C2312 1.363 . S
C2314 C2315 1.370 . S
C2314 C2318 1.524 . S
C2315 C2307 1.503 . S
C2315 C2314 1.370 . S
C2315 C2316 1.403 . S
C2316 C2315 1.403 . S
C2316 C2317 1.404 . S
C2316 C2319 1.539 . S
C2317 C2313 1.408 . S
C2317 C2316 1.404 . S
C2317 H2329 0.930 . S
C2318 C2314 1.524 . S
C2318 H2330 0.956 . S
C2318 H2331 0.961 . S
C2318 H2332 0.961 . S
C2319 C2316 1.539 . S
C2319 H2333 0.958 . S
C2319 H2334 0.961 . S
C2319 H2335 0.960 . S
H2320 C2304 0.931 . S
H2321 C2309 0.929 . S
H2322 C2310 0.960 . S
H2323 C2310 0.962 . S
H2324 C2310 0.960 . S
H2325 C2311 0.961 . S
H2326 C2311 0.961 . S
H2327 C2311 0.961 . S
H2328 C2312 0.931 . S
H2329 C2317 0.930 . S
H2330 C2318 0.956 . S
H2331 C2318 0.961 . S
H2332 C2318 0.961 . S
H2333 C2319 0.958 . S
H2334 C2319 0.961 . S
H2335 C2319 0.960 . S
C2336 C2337 1.391 . S
C2336 C2338 1.394 . S
C2336 H2352 0.931 . S
C2337 C2336 1.391 . S
C2337 C2341 1.376 . S
C2338 C2336 1.394 . S
C2338 C2339 1.369 . S
C2338 C2342 1.531 . S
C2339 C2338 1.369 . S
C2339 C2340 1.410 . S
C2339 C2347 1.503 . S
C2340 C2339 1.410 . S
C2340 C2341 1.392 . S
C2340 C2343 1.511 . S
C2341 C2337 1.376 . S
C2341 C2340 1.392 . S
C2341 H2353 0.929 . S
C2342 C2338 1.531 . S
C2342 H2354 0.960 . S
C2342 H2355 0.962 . S
C2342 H2356 0.960 . S
C2343 C2340 1.511 . S
C2343 H2357 0.961 . S
C2343 H2358 0.961 . S
C2343 H2359 0.961 . S
C2344 C2345 1.370 . S
C2344 C2346 1.363 . S
C2344 H2360 0.931 . S
C2345 C2344 1.370 . S
C2345 C2349 1.408 . S
C2346 C2344 1.363 . S
C2346 C2347 1.370 . S
C2346 C2350 1.524 . S
C2347 C2339 1.503 . S
C2347 C2346 1.370 . S
C2347 C2348 1.403 . S
C2348 C2347 1.403 . S
C2348 C2349 1.404 . S
C2348 C2351 1.539 . S
C2349 C2345 1.408 . S
C2349 C2348 1.404 . S
C2349 H2361 0.930 . S
C2350 C2346 1.524 . S
C2350 H2362 0.956 . S
C2350 H2363 0.961 . S
C2350 H2364 0.961 . S
C2351 C2348 1.539 . S
C2351 H2365 0.958 . S
C2351 H2366 0.961 . S
C2351 H2367 0.960 . S
H2352 C2336 0.931 . S
H2353 C2341 0.929 . S
H2354 C2342 0.960 . S
H2355 C2342 0.962 . S
H2356 C2342 0.960 . S
H2357 C2343 0.961 . S
H2358 C2343 0.961 . S
H2359 C2343 0.961 . S
H2360 C2344 0.931 . S
H2361 C2349 0.930 . S
H2362 C2350 0.956 . S
H2363 C2350 0.961 . S
H2364 C2350 0.961 . S
H2365 C2351 0.958 . S
H2366 C2351 0.961 . S
H2367 C2351 0.960 . S
C2368 C2369 1.391 . S
C2368 C2370 1.394 . S
C2368 H2384 0.931 . S
C2369 C2368 1.391 . S
C2369 C2373 1.376 . S
C2370 C2368 1.394 . S
C2370 C2371 1.369 . S
C2370 C2374 1.531 . S
C2371 C2370 1.369 . S
C2371 C2372 1.410 . S
C2371 C2379 1.503 . S
C2372 C2371 1.410 . S
C2372 C2373 1.392 . S
C2372 C2375 1.511 . S
C2373 C2369 1.376 . S
C2373 C2372 1.392 . S
C2373 H2385 0.929 . S
C2374 C2370 1.531 . S
C2374 H2386 0.960 . S
C2374 H2387 0.962 . S
C2374 H2388 0.960 . S
C2375 C2372 1.511 . S
C2375 H2389 0.961 . S
C2375 H2390 0.961 . S
C2375 H2391 0.961 . S
C2376 C2377 1.370 . S
C2376 C2378 1.363 . S
C2376 H2392 0.931 . S
C2377 C2376 1.370 . S
C2377 C2381 1.408 . S
C2378 C2376 1.363 . S
C2378 C2379 1.370 . S
C2378 C2382 1.524 . S
C2379 C2371 1.503 . S
C2379 C2378 1.370 . S
C2379 C2380 1.403 . S
C2380 C2379 1.403 . S
C2380 C2381 1.404 . S
C2380 C2383 1.539 . S
C2381 C2377 1.408 . S
C2381 C2380 1.404 . S
C2381 H2393 0.930 . S
C2382 C2378 1.524 . S
C2382 H2394 0.956 . S
C2382 H2395 0.961 . S
C2382 H2396 0.961 . S
C2383 C2380 1.539 . S
C2383 H2397 0.958 . S
C2383 H2398 0.961 . S
C2383 H2399 0.960 . S
H2384 C2368 0.931 . S
H2385 C2373 0.929 . S
H2386 C2374 0.960 . S
H2387 C2374 0.962 . S
H2388 C2374 0.960 . S
H2389 C2375 0.961 . S
H2390 C2375 0.961 . S
H2391 C2375 0.961 . S
H2392 C2376 0.931 . S
H2393 C2381 0.930 . S
H2394 C2382 0.956 . S
H2395 C2382 0.961 . S
H2396 C2382 0.961 . S
H2397 C2383 0.958 . S
H2398 C2383 0.961 . S
H2399 C2383 0.960 . S
C2400 C2401 1.391 . S
C2400 C2402 1.394 . S
C2400 H2416 0.931 1_455 S
C2401 C2400 1.391 . S
C2401 C2405 1.376 . S
C2402 C2400 1.394 . S
C2402 C2403 1.369 . S
C2402 C2406 1.531 1_455 S
C2403 C2402 1.369 . S
C2403 C2404 1.410 . S
C2403 C2411 1.503 . S
C2404 C2403 1.410 . S
C2404 C2405 1.392 . S
C2404 C2407 1.511 . S
C2405 C2401 1.376 . S
C2405 C2404 1.392 . S
C2405 H2417 0.929 . S
C2406 C2402 1.531 1_655 S
C2406 H2418 0.960 . S
C2406 H2419 0.962 . S
C2406 H2420 0.960 . S
C2407 C2404 1.511 . S
C2407 H2421 0.961 . S
C2407 H2422 0.961 . S
C2407 H2423 0.961 . S
C2408 C2409 1.367 1_655 S
C2408 C2410 1.363 1_655 S
C2408 H2424 0.935 . S
C2409 C2408 1.367 1_455 S
C2409 C2413 1.408 . S
C2410 C2408 1.363 1_455 S
C2410 C2411 1.370 . S
C2410 C2414 1.546 . S
C2411 C2403 1.503 . S
C2411 C2410 1.370 . S
C2411 C2412 1.403 . S
C2412 C2411 1.403 . S
C2412 C2413 1.404 . S
C2412 C2415 1.539 . S
C2413 C2409 1.408 . S
C2413 C2412 1.404 . S
C2413 H2425 0.930 . S
C2414 C2410 1.546 . S
C2414 H2426 0.922 1_455 S
C2414 H2427 0.994 . S
C2414 H2428 0.942 1_455 S
C2415 C2412 1.539 . S
C2415 H2429 0.958 . S
C2415 H2430 0.961 . S
C2415 H2431 0.960 . S
H2416 C2400 0.931 1_655 S
H2417 C2405 0.929 . S
H2418 C2406 0.960 . S
H2419 C2406 0.962 . S
H2420 C2406 0.960 . S
H2421 C2407 0.961 . S
H2422 C2407 0.961 . S
H2423 C2407 0.961 . S
H2424 C2408 0.935 . S
H2425 C2413 0.930 . S
H2426 C2414 0.922 1_655 S
H2427 C2414 0.994 . S
H2428 C2414 0.942 1_655 S
H2429 C2415 0.958 . S
H2430 C2415 0.961 . S
H2431 C2415 0.960 . S
C2432 C2433 1.391 . S
C2432 C2434 1.394 . S
C2432 H2448 0.931 . S
C2433 C2432 1.391 . S
C2433 C2437 1.376 . S
C2434 C2432 1.394 . S
C2434 C2435 1.369 . S
C2434 C2438 1.531 . S
C2435 C2434 1.369 . S
C2435 C2436 1.410 . S
C2435 C2443 1.503 . S
C2436 C2435 1.410 . S
C2436 C2437 1.392 . S
C2436 C2439 1.511 . S
C2437 C2433 1.376 . S
C2437 C2436 1.392 . S
C2437 H2449 0.929 . S
C2438 C2434 1.531 . S
C2438 H2450 0.960 . S
C2438 H2451 0.962 . S
C2438 H2452 0.960 . S
C2439 C2436 1.511 . S
C2439 H2453 0.961 . S
C2439 H2454 0.961 . S
C2439 H2455 0.961 . S
C2440 C2441 1.370 . S
C2440 C2442 1.363 . S
C2440 H2456 0.931 . S
C2441 C2440 1.370 . S
C2441 C2445 1.408 . S
C2442 C2440 1.363 . S
C2442 C2443 1.370 . S
C2442 C2446 1.524 . S
C2443 C2435 1.503 . S
C2443 C2442 1.370 . S
C2443 C2444 1.403 . S
C2444 C2443 1.403 . S
C2444 C2445 1.404 . S
C2444 C2447 1.539 . S
C2445 C2441 1.408 . S
C2445 C2444 1.404 . S
C2445 H2457 0.930 . S
C2446 C2442 1.524 . S
C2446 H2458 0.956 . S
C2446 H2459 0.961 . S
C2446 H2460 0.961 . S
C2447 C2444 1.539 . S
C2447 H2461 0.958 . S
C2447 H2462 0.961 . S
C2447 H2463 0.960 . S
H2448 C2432 0.931 . S
H2449 C2437 0.929 . S
H2450 C2438 0.960 . S
H2451 C2438 0.962 . S
H2452 C2438 0.960 . S
H2453 C2439 0.961 . S
H2454 C2439 0.961 . S
H2455 C2439 0.961 . S
H2456 C2440 0.931 . S
H2457 C2445 0.930 . S
H2458 C2446 0.956 . S
H2459 C2446 0.961 . S
H2460 C2446 0.961 . S
H2461 C2447 0.958 . S
H2462 C2447 0.961 . S
H2463 C2447 0.960 . S
C2464 C2465 1.391 . S
C2464 C2466 1.394 . S
C2464 H2480 0.931 . S
C2465 C2464 1.391 . S
C2465 C2469 1.376 . S
C2466 C2464 1.394 . S
C2466 C2467 1.369 . S
C2466 C2470 1.531 . S
C2467 C2466 1.369 . S
C2467 C2468 1.410 . S
C2467 C2475 1.503 . S
C2468 C2467 1.410 . S
C2468 C2469 1.392 . S
C2468 C2471 1.511 . S
C2469 C2465 1.376 . S
C2469 C2468 1.392 . S
C2469 H2481 0.929 . S
C2470 C2466 1.531 . S
C2470 H2482 0.960 . S
C2470 H2483 0.962 . S
C2470 H2484 0.960 . S
C2471 C2468 1.511 . S
C2471 H2485 0.961 . S
C2471 H2486 0.961 . S
C2471 H2487 0.961 . S
C2472 C2473 1.370 . S
C2472 C2474 1.363 . S
C2472 H2488 0.931 . S
C2473 C2472 1.370 . S
C2473 C2477 1.408 . S
C2474 C2472 1.363 . S
C2474 C2475 1.370 . S
C2474 C2478 1.524 . S
C2475 C2467 1.503 . S
C2475 C2474 1.370 . S
C2475 C2476 1.403 . S
C2476 C2475 1.403 . S
C2476 C2477 1.404 . S
C2476 C2479 1.539 . S
C2477 C2473 1.408 . S
C2477 C2476 1.404 . S
C2477 H2489 0.930 1_556 S
C2478 C2474 1.524 . S
C2478 H2490 0.956 . S
C2478 H2491 0.961 . S
C2478 H2492 0.961 . S
C2479 C2476 1.539 . S
C2479 H2493 0.958 . S
C2479 H2494 0.961 . S
C2479 H2495 0.960 . S
H2480 C2464 0.931 . S
H2481 C2469 0.929 . S
H2482 C2470 0.960 . S
H2483 C2470 0.962 . S
H2484 C2470 0.960 . S
H2485 C2471 0.961 . S
H2486 C2471 0.961 . S
H2487 C2471 0.961 . S
H2488 C2472 0.931 . S
H2489 C2477 0.930 1_554 S
H2490 C2478 0.956 . S
H2491 C2478 0.961 . S
H2492 C2478 0.961 . S
H2493 C2479 0.958 . S
H2494 C2479 0.961 . S
H2495 C2479 0.960 . S
C2496 C2497 1.391 . S
C2496 C2498 1.394 . S
C2496 H2512 0.931 . S
C2497 C2496 1.391 . S
C2497 C2501 1.376 . S
C2498 C2496 1.394 . S
C2498 C2499 1.369 . S
C2498 C2502 1.531 . S
C2499 C2498 1.369 . S
C2499 C2500 1.410 . S
C2499 C2507 1.503 . S
C2500 C2499 1.410 . S
C2500 C2501 1.392 . S
C2500 C2503 1.511 . S
C2501 C2497 1.376 . S
C2501 C2500 1.392 . S
C2501 H2513 0.929 . S
C2502 C2498 1.531 . S
C2502 H2514 0.960 . S
C2502 H2515 0.962 . S
C2502 H2516 0.960 . S
C2503 C2500 1.511 . S
C2503 H2517 0.961 . S
C2503 H2518 0.961 . S
C2503 H2519 0.961 . S
C2504 C2505 1.370 . S
C2504 C2506 1.363 . S
C2504 H2520 0.931 . S
C2505 C2504 1.370 . S
C2505 C2509 1.408 . S
C2506 C2504 1.363 . S
C2506 C2507 1.370 . S
C2506 C2510 1.524 . S
C2507 C2499 1.503 . S
C2507 C2506 1.370 . S
C2507 C2508 1.403 . S
C2508 C2507 1.403 . S
C2508 C2509 1.404 . S
C2508 C2511 1.539 . S
C2509 C2505 1.408 . S
C2509 C2508 1.404 . S
C2509 H2521 0.930 . S
C2510 C2506 1.524 . S
C2510 H2522 0.956 . S
C2510 H2523 0.961 . S
C2510 H2524 0.961 . S
C2511 C2508 1.539 . S
C2511 H2525 0.958 . S
C2511 H2526 0.961 . S
C2511 H2527 0.960 . S
H2512 C2496 0.931 . S
H2513 C2501 0.929 . S
H2514 C2502 0.960 . S
H2515 C2502 0.962 . S
H2516 C2502 0.960 . S
H2517 C2503 0.961 . S
H2518 C2503 0.961 . S
H2519 C2503 0.961 . S
H2520 C2504 0.931 . S
H2521 C2509 0.930 . S
H2522 C2510 0.956 . S
H2523 C2510 0.961 . S
H2524 C2510 0.961 . S
H2525 C2511 0.958 . S
H2526 C2511 0.961 . S
H2527 C2511 0.960 . S
C2528 C2529 1.391 . S
C2528 C2530 1.394 . S
C2528 H2544 0.931 . S
C2529 C2528 1.391 . S
C2529 C2533 1.376 . S
C2530 C2528 1.394 . S
C2530 C2531 1.369 . S
C2530 C2534 1.531 . S
C2531 C2530 1.369 . S
C2531 C2532 1.410 . S
C2531 C2539 1.503 . S
C2532 C2531 1.410 . S
C2532 C2533 1.392 . S
C2532 C2535 1.511 . S
C2533 C2529 1.376 . S
C2533 C2532 1.392 . S
C2533 H2545 0.929 . S
C2534 C2530 1.531 . S
C2534 H2546 0.960 1_545 S
C2534 H2547 0.962 . S
C2534 H2548 0.960 1_545 S
C2535 C2532 1.511 . S
C2535 H2549 0.961 . S
C2535 H2550 0.961 . S
C2535 H2551 0.961 . S
C2536 C2537 1.370 . S
C2536 C2538 1.363 . S
C2536 H2552 0.931 . S
C2537 C2536 1.370 . S
C2537 C2541 1.408 . S
C2538 C2536 1.363 . S
C2538 C2539 1.370 . S
C2538 C2542 1.524 . S
C2539 C2531 1.503 . S
C2539 C2538 1.370 . S
C2539 C2540 1.403 . S
C2540 C2539 1.403 . S
C2540 C2541 1.404 . S
C2540 C2543 1.539 1_545 S
C2541 C2537 1.408 . S
C2541 C2540 1.404 . S
C2541 H2553 0.888 1_545 S
C2542 C2538 1.524 . S
C2542 H2554 0.956 . S
C2542 H2555 0.961 . S
C2542 H2556 0.961 . S
C2543 C2540 1.539 1_565 S
C2543 H2557 0.958 . S
C2543 H2558 0.961 . S
C2543 H2559 0.960 1_565 S
H2544 C2528 0.931 . S
H2545 C2533 0.929 . S
H2546 C2534 0.960 1_565 S
H2547 C2534 0.962 . S
H2548 C2534 0.960 1_565 S
H2549 C2535 0.961 . S
H2550 C2535 0.961 . S
H2551 C2535 0.961 . S
H2552 C2536 0.931 . S
H2553 C2541 0.888 1_565 S
H2554 C2542 0.956 . S
H2555 C2542 0.961 . S
H2556 C2542 0.961 . S
H2557 C2543 0.958 . S
H2558 C2543 0.961 . S
H2559 C2543 0.960 1_545 S
C2560 C2561 1.391 . S
C2560 C2562 1.394 . S
C2560 H2576 0.931 . S
C2561 C2560 1.391 . S
C2561 C2565 1.376 . S
C2562 C2560 1.394 . S
C2562 C2563 1.369 . S
C2562 C2566 1.531 . S
C2563 C2562 1.369 . S
C2563 C2564 1.410 . S
C2563 C2571 1.503 . S
C2564 C2563 1.410 . S
C2564 C2565 1.392 . S
C2564 C2567 1.511 . S
C2565 C2561 1.376 . S
C2565 C2564 1.392 . S
C2565 H2577 0.929 . S
C2566 C2562 1.531 . S
C2566 H2578 0.960 . S
C2566 H2579 0.962 . S
C2566 H2580 0.960 . S
C2567 C2564 1.511 . S
C2567 H2581 0.961 . S
C2567 H2582 0.961 . S
C2567 H2583 0.961 . S
C2568 C2569 1.370 . S
C2568 C2570 1.363 . S
C2568 H2584 0.931 . S
C2569 C2568 1.370 . S
C2569 C2573 1.408 . S
C2570 C2568 1.363 . S
C2570 C2571 1.370 . S
C2570 C2574 1.524 . S
C2571 C2563 1.503 . S
C2571 C2570 1.370 . S
C2571 C2572 1.403 . S
C2572 C2571 1.403 . S
C2572 C2573 1.404 . S
C2572 C2575 1.539 . S
C2573 C2569 1.408 . S
C2573 C2572 1.404 . S
C2573 H2585 0.930 . S
C2574 C2570 1.524 . S
C2574 H2586 0.956 . S
C2574 H2587 0.961 . S
C2574 H2588 0.961 . S
C2575 C2572 1.539 . S
C2575 H2589 0.958 . S
C2575 H2590 0.961 . S
C2575 H2591 0.960 . S
H2576 C2560 0.931 . S
H2577 C2565 0.929 . S
H2578 C2566 0.960 . S
H2579 C2566 0.962 . S
H2580 C2566 0.960 . S
H2581 C2567 0.961 . S
H2582 C2567 0.961 . S
H2583 C2567 0.961 . S
H2584 C2568 0.931 . S
H2585 C2573 0.930 . S
H2586 C2574 0.956 . S
H2587 C2574 0.961 . S
H2588 C2574 0.961 . S
H2589 C2575 0.958 . S
H2590 C2575 0.961 . S
H2591 C2575 0.960 . S
C2592 C2593 1.391 . S
C2592 C2594 1.394 . S
C2592 H2608 0.931 . S
C2593 C2592 1.391 . S
C2593 C2597 1.376 . S
C2594 C2592 1.394 . S
C2594 C2595 1.369 . S
C2594 C2598 1.531 . S
C2595 C2594 1.369 . S
C2595 C2596 1.410 . S
C2595 C2603 1.503 . S
C2596 C2595 1.410 . S
C2596 C2597 1.392 . S
C2596 C2599 1.511 . S
C2597 C2593 1.376 . S
C2597 C2596 1.392 . S
C2597 H2609 0.929 . S
C2598 C2594 1.531 . S
C2598 H2610 0.960 . S
C2598 H2611 0.962 1_545 S
C2598 H2612 0.960 . S
C2599 C2596 1.511 . S
C2599 H2613 0.961 . S
C2599 H2614 0.961 . S
C2599 H2615 0.961 . S
C2600 C2601 1.370 . S
C2600 C2602 1.363 . S
C2600 H2616 0.931 . S
C2601 C2600 1.370 . S
C2601 C2605 1.408 . S
C2602 C2600 1.363 . S
C2602 C2603 1.370 . S
C2602 C2606 1.524 1_545 S
C2603 C2595 1.503 . S
C2603 C2602 1.370 . S
C2603 C2604 1.403 . S
C2604 C2603 1.403 . S
C2604 C2605 1.404 . S
C2604 C2607 1.539 . S
C2605 C2601 1.408 . S
C2605 C2604 1.404 . S
C2605 H2617 0.930 . S
C2606 C2602 1.524 1_565 S
C2606 H2618 0.956 . S
C2606 H2619 0.961 . S
C2606 H2620 0.961 . S
C2607 C2604 1.539 . S
C2607 H2621 0.958 . S
C2607 H2622 0.961 . S
C2607 H2623 0.960 . S
H2608 C2592 0.931 . S
H2609 C2597 0.929 . S
H2610 C2598 0.960 . S
H2611 C2598 0.962 1_565 S
H2612 C2598 0.960 . S
H2613 C2599 0.961 . S
H2614 C2599 0.961 . S
H2615 C2599 0.961 . S
H2616 C2600 0.931 . S
H2617 C2605 0.930 . S
H2618 C2606 0.956 . S
H2619 C2606 0.961 . S
H2620 C2606 0.961 . S
H2621 C2607 0.958 . S
H2622 C2607 0.961 . S
H2623 C2607 0.960 . S
C2624 C2625 1.391 . S
C2624 C2626 1.394 . S
C2624 H2640 0.931 . S
C2625 C2624 1.391 . S
C2625 C2629 1.376 . S
C2626 C2624 1.394 . S
C2626 C2627 1.369 . S
C2626 C2630 1.531 . S
C2627 C2626 1.369 . S
C2627 C2628 1.410 . S
C2627 C2635 1.503 . S
C2628 C2627 1.410 . S
C2628 C2629 1.392 . S
C2628 C2631 1.511 . S
C2629 C2625 1.376 . S
C2629 C2628 1.392 . S
C2629 H2641 0.929 . S
C2630 C2626 1.531 . S
C2630 H2642 0.960 . S
C2630 H2643 0.962 . S
C2630 H2644 0.960 . S
C2631 C2628 1.511 . S
C2631 H2645 0.961 . S
C2631 H2646 0.961 . S
C2631 H2647 0.961 . S
C2632 C2633 1.370 . S
C2632 C2634 1.363 . S
C2632 H2648 0.931 . S
C2633 C2632 1.370 . S
C2633 C2637 1.408 . S
C2634 C2632 1.363 . S
C2634 C2635 1.370 . S
C2634 C2638 1.524 . S
C2635 C2627 1.503 . S
C2635 C2634 1.370 . S
C2635 C2636 1.403 . S
C2636 C2635 1.403 . S
C2636 C2637 1.404 . S
C2636 C2639 1.539 . S
C2637 C2633 1.408 . S
C2637 C2636 1.404 . S
C2637 H2649 0.930 . S
C2638 C2634 1.524 . S
C2638 H2650 0.956 . S
C2638 H2651 0.961 . S
C2638 H2652 0.961 . S
C2639 C2636 1.539 . S
C2639 H2653 0.958 . S
C2639 H2654 0.961 . S
C2639 H2655 0.960 . S
H2640 C2624 0.931 . S
H2641 C2629 0.929 . S
H2642 C2630 0.960 . S
H2643 C2630 0.962 . S
H2644 C2630 0.960 . S
H2645 C2631 0.961 . S
H2646 C2631 0.961 . S
H2647 C2631 0.961 . S
H2648 C2632 0.931 . S
H2649 C2637 0.930 . S
H2650 C2638 0.956 . S
H2651 C2638 0.961 . S
H2652 C2638 0.961 . S
H2653 C2639 0.958 . S
H2654 C2639 0.961 . S
H2655 C2639 0.960 . S
C2656 C2657 1.391 . S
C2656 C2658 1.394 . S
C2656 H2672 0.931 . S
C2657 C2656 1.391 . S
C2657 C2661 1.376 . S
C2658 C2656 1.394 . S
C2658 C2659 1.369 . S
C2658 C2662 1.531 . S
C2659 C2658 1.369 . S
C2659 C2660 1.410 . S
C2659 C2667 1.503 . S
C2660 C2659 1.410 . S
C2660 C2661 1.392 . S
C2660 C2663 1.511 . S
C2661 C2657 1.376 . S
C2661 C2660 1.392 . S
C2661 H2673 0.929 . S
C2662 C2658 1.531 . S
C2662 H2674 0.960 . S
C2662 H2675 0.962 . S
C2662 H2676 0.960 . S
C2663 C2660 1.511 . S
C2663 H2677 0.961 . S
C2663 H2678 0.961 . S
C2663 H2679 0.961 . S
C2664 C2665 1.370 . S
C2664 C2666 1.363 . S
C2664 H2680 0.931 . S
C2665 C2664 1.370 . S
C2665 C2669 1.408 . S
C2666 C2664 1.363 . S
C2666 C2667 1.370 . S
C2666 C2670 1.524 . S
C2667 C2659 1.503 . S
C2667 C2666 1.370 . S
C2667 C2668 1.403 . S
C2668 C2667 1.403 . S
C2668 C2669 1.404 . S
C2668 C2671 1.539 1_545 S
C2669 C2665 1.408 . S
C2669 C2668 1.404 . S
C2669 H2681 0.930 . S
C2670 C2666 1.524 . S
C2670 H2682 0.956 . S
C2670 H2683 0.961 . S
C2670 H2684 0.961 . S
C2671 C2668 1.539 1_565 S
C2671 H2685 0.958 . S
C2671 H2686 0.961 . S
C2671 H2687 0.963 . S
H2672 C2656 0.931 . S
H2673 C2661 0.929 . S
H2674 C2662 0.960 . S
H2675 C2662 0.962 . S
H2676 C2662 0.960 . S
H2677 C2663 0.961 . S
H2678 C2663 0.961 . S
H2679 C2663 0.961 . S
H2680 C2664 0.931 . S
H2681 C2669 0.930 . S
H2682 C2670 0.956 . S
H2683 C2670 0.961 . S
H2684 C2670 0.961 . S
H2685 C2671 0.958 . S
H2686 C2671 0.961 . S
H2687 C2671 0.963 . S
C2688 C2689 1.391 . S
C2688 C2690 1.394 . S
C2688 H2704 0.931 . S
C2689 C2688 1.391 . S
C2689 C2693 1.376 . S
C2690 C2688 1.394 . S
C2690 C2691 1.369 . S
C2690 C2694 1.531 . S
C2691 C2690 1.369 . S
C2691 C2692 1.410 . S
C2691 C2699 1.503 . S
C2692 C2691 1.410 . S
C2692 C2693 1.392 . S
C2692 C2695 1.511 . S
C2693 C2689 1.376 . S
C2693 C2692 1.392 . S
C2693 H2705 0.929 . S
C2694 C2690 1.531 . S
C2694 H2706 0.960 . S
C2694 H2707 0.962 . S
C2694 H2708 0.960 . S
C2695 C2692 1.511 . S
C2695 H2709 0.961 . S
C2695 H2710 0.961 . S
C2695 H2711 0.961 . S
C2696 C2697 1.370 . S
C2696 C2698 1.363 . S
C2696 H2712 0.931 . S
C2697 C2696 1.370 . S
C2697 C2701 1.408 . S
C2698 C2696 1.363 . S
C2698 C2699 1.370 . S
C2698 C2702 1.524 . S
C2699 C2691 1.503 . S
C2699 C2698 1.370 . S
C2699 C2700 1.403 . S
C2700 C2699 1.403 . S
C2700 C2701 1.404 . S
C2700 C2703 1.539 . S
C2701 C2697 1.408 . S
C2701 C2700 1.404 . S
C2701 H2713 0.930 . S
C2702 C2698 1.524 . S
C2702 H2714 0.956 . S
C2702 H2715 0.961 . S
C2702 H2716 0.961 . S
C2703 C2700 1.539 . S
C2703 H2717 0.958 . S
C2703 H2718 0.961 . S
C2703 H2719 0.960 . S
H2704 C2688 0.931 . S
H2705 C2693 0.929 . S
H2706 C2694 0.960 . S
H2707 C2694 0.962 . S
H2708 C2694 0.960 . S
H2709 C2695 0.961 . S
H2710 C2695 0.961 . S
H2711 C2695 0.961 . S
H2712 C2696 0.931 . S
H2713 C2701 0.930 . S
H2714 C2702 0.956 . S
H2715 C2702 0.961 . S
H2716 C2702 0.961 . S
H2717 C2703 0.958 . S
H2718 C2703 0.961 . S
H2719 C2703 0.960 . S
C2720 C2721 1.392 . S
C2720 C2722 1.394 . S
C2720 H2736 0.931 . S
C2721 C2720 1.392 . S
C2721 C2725 1.373 1_545 S
C2722 C2720 1.394 . S
C2722 C2723 1.369 1_545 S
C2722 C2726 1.531 . S
C2723 C2722 1.369 1_565 S
C2723 C2724 1.410 . S
C2723 C2731 1.503 . S
C2724 C2723 1.410 . S
C2724 C2725 1.392 . S
C2724 C2727 1.511 . S
C2725 C2721 1.373 1_565 S
C2725 C2724 1.392 . S
C2725 H2737 0.929 . S
C2726 C2722 1.531 . S
C2726 H2738 0.960 . S
C2726 H2739 0.962 . S
C2726 H2740 0.960 . S
C2727 C2724 1.511 . S
C2727 H2741 0.961 . S
C2727 H2742 0.961 . S
C2727 H2743 0.961 . S
C2728 C2729 1.370 1_545 S
C2728 C2730 1.363 . S
C2728 H2744 0.931 . S
C2729 C2728 1.370 1_565 S
C2729 C2733 1.408 . S
C2730 C2728 1.363 . S
C2730 C2731 1.370 1_545 S
C2730 C2734 1.524 . S
C2731 C2723 1.503 . S
C2731 C2730 1.370 1_565 S
C2731 C2732 1.403 . S
C2732 C2731 1.403 . S
C2732 C2733 1.404 . S
C2732 C2735 1.539 . S
C2733 C2729 1.408 . S
C2733 C2732 1.404 . S
C2733 H2745 0.930 . S
C2734 C2730 1.524 . S
C2734 H2746 0.956 . S
C2734 H2747 0.961 . S
C2734 H2748 0.961 . S
C2735 C2732 1.539 . S
C2735 H2749 0.958 . S
C2735 H2750 0.961 . S
C2735 H2751 0.960 . S
H2736 C2720 0.931 . S
H2737 C2725 0.929 . S
H2738 C2726 0.960 . S
H2739 C2726 0.962 . S
H2740 C2726 0.960 . S
H2741 C2727 0.961 . S
H2742 C2727 0.961 . S
H2743 C2727 0.961 . S
H2744 C2728 0.931 . S
H2745 C2733 0.930 . S
H2746 C2734 0.956 . S
H2747 C2734 0.961 . S
H2748 C2734 0.961 . S
H2749 C2735 0.958 . S
H2750 C2735 0.961 . S
H2751 C2735 0.960 . S
C2752 C2753 1.391 . S
C2752 C2754 1.394 . S
C2752 H2768 0.931 . S
C2753 C2752 1.391 . S
C2753 C2757 1.376 . S
C2754 C2752 1.394 . S
C2754 C2755 1.369 . S
C2754 C2758 1.531 . S
C2755 C2754 1.369 . S
C2755 C2756 1.410 . S
C2755 C2763 1.503 . S
C2756 C2755 1.410 . S
C2756 C2757 1.392 . S
C2756 C2759 1.511 . S
C2757 C2753 1.376 . S
C2757 C2756 1.392 . S
C2757 H2769 0.929 . S
C2758 C2754 1.531 . S
C2758 H2770 0.960 . S
C2758 H2771 0.962 . S
C2758 H2772 0.960 . S
C2759 C2756 1.511 . S
C2759 H2773 0.961 . S
C2759 H2774 0.961 . S
C2759 H2775 0.961 . S
C2760 C2761 1.370 . S
C2760 C2762 1.363 . S
C2760 H2776 0.931 . S
C2761 C2760 1.370 . S
C2761 C2765 1.408 . S
C2762 C2760 1.363 . S
C2762 C2763 1.370 . S
C2762 C2766 1.524 . S
C2763 C2755 1.503 . S
C2763 C2762 1.370 . S
C2763 C2764 1.403 . S
C2764 C2763 1.403 . S
C2764 C2765 1.404 . S
C2764 C2767 1.539 . S
C2765 C2761 1.408 . S
C2765 C2764 1.404 . S
C2765 H2777 0.930 . S
C2766 C2762 1.524 . S
C2766 H2778 0.956 . S
C2766 H2779 0.961 . S
C2766 H2780 0.961 . S
C2767 C2764 1.539 . S
C2767 H2781 0.958 . S
C2767 H2782 0.961 . S
C2767 H2783 0.960 . S
H2768 C2752 0.931 . S
H2769 C2757 0.929 . S
H2770 C2758 0.960 . S
H2771 C2758 0.962 . S
H2772 C2758 0.960 . S
H2773 C2759 0.961 . S
H2774 C2759 0.961 . S
H2775 C2759 0.961 . S
H2776 C2760 0.931 . S
H2777 C2765 0.930 . S
H2778 C2766 0.956 . S
H2779 C2766 0.961 . S
H2780 C2766 0.961 . S
H2781 C2767 0.958 . S
H2782 C2767 0.961 . S
H2783 C2767 0.960 . S
C2784 C2785 1.391 . S
C2784 C2786 1.394 . S
C2784 H2800 0.931 . S
C2785 C2784 1.391 . S
C2785 C2789 1.376 . S
C2786 C2784 1.394 . S
C2786 C2787 1.369 . S
C2786 C2790 1.531 . S
C2787 C2786 1.369 . S
C2787 C2788 1.410 . S
C2787 C2795 1.503 . S
C2788 C2787 1.410 . S
C2788 C2789 1.392 . S
C2788 C2791 1.511 . S
C2789 C2785 1.376 . S
C2789 C2788 1.392 . S
C2789 H2801 0.929 . S
C2790 C2786 1.531 . S
C2790 H2802 0.960 . S
C2790 H2803 0.962 . S
C2790 H2804 0.960 . S
C2791 C2788 1.511 . S
C2791 H2805 0.961 . S
C2791 H2806 0.961 . S
C2791 H2807 0.961 . S
C2792 C2793 1.370 . S
C2792 C2794 1.363 . S
C2792 H2808 0.931 . S
C2793 C2792 1.370 . S
C2793 C2797 1.408 1_554 S
C2794 C2792 1.363 . S
C2794 C2795 1.370 . S
C2794 C2798 1.524 . S
C2795 C2787 1.503 . S
C2795 C2794 1.370 . S
C2795 C2796 1.403 . S
C2796 C2795 1.403 . S
C2796 C2797 1.404 1_554 S
C2796 C2799 1.539 1_554 S
C2797 C2793 1.408 1_556 S
C2797 C2796 1.404 1_556 S
C2797 H2809 0.930 . S
C2798 C2794 1.524 . S
C2798 H2810 0.956 . S
C2798 H2811 0.961 . S
C2798 H2812 0.961 . S
C2799 C2796 1.539 1_556 S
C2799 H2813 0.958 . S
C2799 H2814 0.961 . S
C2799 H2815 0.960 . S
H2800 C2784 0.931 . S
H2801 C2789 0.929 . S
H2802 C2790 0.960 . S
H2803 C2790 0.962 . S
H2804 C2790 0.960 . S
H2805 C2791 0.961 . S
H2806 C2791 0.961 . S
H2807 C2791 0.961 . S
H2808 C2792 0.931 . S
H2809 C2797 0.930 . S
H2810 C2798 0.956 . S
H2811 C2798 0.961 . S
H2812 C2798 0.961 . S
H2813 C2799 0.958 . S
H2814 C2799 0.961 . S
H2815 C2799 0.960 . S
C2816 C2817 1.391 . S
C2816 C2818 1.394 . S
C2816 H2832 0.931 . S
C2817 C2816 1.391 . S
C2817 C2821 1.376 . S
C2818 C2816 1.394 . S
C2818 C2819 1.369 . S
C2818 C2822 1.531 1_554 S
C2819 C2818 1.369 . S
C2819 C2820 1.410 . S
C2819 C2827 1.503 . S
C2820 C2819 1.410 . S
C2820 C2821 1.392 . S
C2820 C2823 1.511 . S
C2821 C2817 1.376 . S
C2821 C2820 1.392 . S
C2821 H2833 0.929 . S
C2822 C2818 1.531 1_556 S
C2822 H2834 0.960 . S
C2822 H2835 0.962 . S
C2822 H2836 0.960 . S
C2823 C2820 1.511 . S
C2823 H2837 0.961 . S
C2823 H2838 0.961 . S
C2823 H2839 0.961 . S
C2824 C2825 1.370 . S
C2824 C2826 1.363 . S
C2824 H2840 0.931 . S
C2825 C2824 1.370 . S
C2825 C2829 1.408 . S
C2826 C2824 1.363 . S
C2826 C2827 1.370 . S
C2826 C2830 1.524 . S
C2827 C2819 1.503 . S
C2827 C2826 1.370 . S
C2827 C2828 1.403 . S
C2828 C2827 1.403 . S
C2828 C2829 1.404 . S
C2828 C2831 1.539 . S
C2829 C2825 1.408 . S
C2829 C2828 1.404 . S
C2829 H2841 0.930 . S
C2830 C2826 1.524 . S
C2830 H2842 0.956 . S
C2830 H2843 0.961 . S
C2830 H2844 0.961 . S
C2831 C2828 1.539 . S
C2831 H2845 0.958 . S
C2831 H2846 0.961 . S
C2831 H2847 0.960 . S
H2832 C2816 0.931 . S
H2833 C2821 0.929 . S
H2834 C2822 0.960 . S
H2835 C2822 0.962 . S
H2836 C2822 0.960 . S
H2837 C2823 0.961 . S
H2838 C2823 0.961 . S
H2839 C2823 0.961 . S
H2840 C2824 0.931 . S
H2841 C2829 0.930 . S
H2842 C2830 0.956 . S
H2843 C2830 0.961 . S
H2844 C2830 0.961 . S
H2845 C2831 0.958 . S
H2846 C2831 0.961 . S
H2847 C2831 0.960 . S
C2848 C2849 1.391 . S
C2848 C2850 1.394 . S
C2848 H2864 0.931 . S
C2849 C2848 1.391 . S
C2849 C2853 1.376 . S
C2850 C2848 1.394 . S
C2850 C2851 1.369 . S
C2850 C2854 1.531 . S
C2851 C2850 1.369 . S
C2851 C2852 1.410 . S
C2851 C2859 1.503 . S
C2852 C2851 1.410 . S
C2852 C2853 1.392 . S
C2852 C2855 1.511 . S
C2853 C2849 1.376 . S
C2853 C2852 1.392 . S
C2853 H2865 0.929 . S
C2854 C2850 1.531 . S
C2854 H2866 0.960 . S
C2854 H2867 0.962 . S
C2854 H2868 0.960 . S
C2855 C2852 1.511 . S
C2855 H2869 0.961 . S
C2855 H2870 0.961 . S
C2855 H2871 0.961 . S
C2856 C2857 1.370 . S
C2856 C2858 1.363 . S
C2856 H2872 0.931 . S
C2857 C2856 1.370 . S
C2857 C2861 1.408 . S
C2858 C2856 1.363 . S
C2858 C2859 1.370 . S
C2858 C2862 1.524 . S
C2859 C2851 1.503 . S
C2859 C2858 1.370 . S
C2859 C2860 1.403 . S
C2860 C2859 1.403 . S
C2860 C2861 1.404 . S
C2860 C2863 1.539 . S
C2861 C2857 1.408 . S
C2861 C2860 1.404 . S
C2861 H2873 0.930 . S
C2862 C2858 1.524 . S
C2862 H2874 0.956 . S
C2862 H2875 0.961 . S
C2862 H2876 0.961 . S
C2863 C2860 1.539 . S
C2863 H2877 0.958 . S
C2863 H2878 0.961 . S
C2863 H2879 0.960 . S
H2864 C2848 0.931 . S
H2865 C2853 0.929 . S
H2866 C2854 0.960 . S
H2867 C2854 0.962 . S
H2868 C2854 0.960 . S
H2869 C2855 0.961 . S
H2870 C2855 0.961 . S
H2871 C2855 0.961 . S
H2872 C2856 0.931 . S
H2873 C2861 0.930 . S
H2874 C2862 0.956 . S
H2875 C2862 0.961 . S
H2876 C2862 0.961 . S
H2877 C2863 0.958 . S
H2878 C2863 0.961 . S
H2879 C2863 0.960 . S
C2880 C2881 1.391 . S
C2880 C2882 1.394 . S
C2880 H2896 0.931 . S
C2881 C2880 1.391 . S
C2881 C2885 1.376 . S
C2882 C2880 1.394 . S
C2882 C2883 1.369 . S
C2882 C2886 1.531 . S
C2883 C2882 1.369 . S
C2883 C2884 1.410 . S
C2883 C2891 1.503 . S
C2884 C2883 1.410 . S
C2884 C2885 1.392 . S
C2884 C2887 1.511 . S
C2885 C2881 1.376 . S
C2885 C2884 1.392 . S
C2885 H2897 0.929 . S
C2886 C2882 1.531 . S
C2886 H2898 0.960 . S
C2886 H2899 0.962 . S
C2886 H2900 0.960 . S
C2887 C2884 1.511 . S
C2887 H2901 0.961 . S
C2887 H2902 0.961 . S
C2887 H2903 0.961 . S
C2888 C2889 1.370 . S
C2888 C2890 1.363 . S
C2888 H2904 0.931 . S
C2889 C2888 1.370 . S
C2889 C2893 1.408 . S
C2890 C2888 1.363 . S
C2890 C2891 1.370 . S
C2890 C2894 1.524 . S
C2891 C2883 1.503 . S
C2891 C2890 1.370 . S
C2891 C2892 1.403 . S
C2892 C2891 1.403 . S
C2892 C2893 1.404 . S
C2892 C2895 1.539 . S
C2893 C2889 1.408 . S
C2893 C2892 1.404 . S
C2893 H2905 0.930 . S
C2894 C2890 1.524 . S
C2894 H2906 0.956 . S
C2894 H2907 0.961 . S
C2894 H2908 0.961 . S
C2895 C2892 1.539 . S
C2895 H2909 0.958 . S
C2895 H2910 0.961 . S
C2895 H2911 0.960 . S
H2896 C2880 0.931 . S
H2897 C2885 0.929 . S
H2898 C2886 0.960 . S
H2899 C2886 0.962 . S
H2900 C2886 0.960 . S
H2901 C2887 0.961 . S
H2902 C2887 0.961 . S
H2903 C2887 0.961 . S
H2904 C2888 0.931 . S
H2905 C2893 0.930 . S
H2906 C2894 0.956 . S
H2907 C2894 0.961 . S
H2908 C2894 0.961 . S
H2909 C2895 0.958 . S
H2910 C2895 0.961 . S
H2911 C2895 0.960 . S
C2912 C2913 1.391 . S
C2912 C2914 1.394 1_545 S
C2912 H2928 0.931 . S
C2913 C2912 1.391 . S
C2913 C2917 1.376 . S
C2914 C2912 1.394 1_565 S
C2914 C2915 1.369 . S
C2914 C2918 1.531 . S
C2915 C2914 1.369 . S
C2915 C2916 1.410 1_565 S
C2915 C2923 1.503 . S
C2916 C2915 1.410 1_545 S
C2916 C2917 1.392 . S
C2916 C2919 1.511 . S
C2917 C2913 1.376 . S
C2917 C2916 1.392 . S
C2917 H2929 0.929 . S
C2918 C2914 1.531 . S
C2918 H2930 0.960 . S
C2918 H2931 0.962 . S
C2918 H2932 0.960 . S
C2919 C2916 1.511 . S
C2919 H2933 0.961 . S
C2919 H2934 0.961 . S
C2919 H2935 0.961 . S
C2920 C2921 1.370 . S
C2920 C2922 1.363 . S
C2920 H2936 0.931 . S
C2921 C2920 1.370 . S
C2921 C2925 1.408 . S
C2922 C2920 1.363 . S
C2922 C2923 1.370 . S
C2922 C2926 1.524 . S
C2923 C2915 1.503 . S
C2923 C2922 1.370 . S
C2923 C2924 1.403 . S
C2924 C2923 1.403 . S
C2924 C2925 1.404 . S
C2924 C2927 1.539 . S
C2925 C2921 1.408 . S
C2925 C2924 1.404 . S
C2925 H2937 0.930 . S
C2926 C2922 1.524 . S
C2926 H2938 0.956 . S
C2926 H2939 0.961 . S
C2926 H2940 0.961 . S
C2927 C2924 1.539 . S
C2927 H2941 0.958 . S
C2927 H2942 0.961 . S
C2927 H2943 0.960 1_565 S
H2928 C2912 0.931 . S
H2929 C2917 0.929 . S
H2930 C2918 0.960 . S
H2931 C2918 0.962 . S
H2932 C2918 0.960 . S
H2933 C2919 0.961 . S
H2934 C2919 0.961 . S
H2935 C2919 0.961 . S
H2936 C2920 0.931 . S
H2937 C2925 0.930 . S
H2938 C2926 0.956 . S
H2939 C2926 0.961 . S
H2940 C2926 0.961 . S
H2941 C2927 0.958 . S
H2942 C2927 0.961 . S
H2943 C2927 0.960 1_545 S
C2944 C2945 1.391 . S
C2944 C2946 1.394 . S
C2944 H2960 0.931 . S
C2945 C2944 1.391 . S
C2945 C2949 1.376 . S
C2946 C2944 1.394 . S
C2946 C2947 1.369 . S
C2946 C2950 1.531 . S
C2947 C2946 1.369 . S
C2947 C2948 1.410 . S
C2947 C2955 1.503 . S
C2948 C2947 1.410 . S
C2948 C2949 1.392 . S
C2948 C2951 1.511 . S
C2949 C2945 1.376 . S
C2949 C2948 1.392 . S
C2949 H2961 0.929 . S
C2950 C2946 1.531 . S
C2950 H2962 0.960 . S
C2950 H2963 0.962 . S
C2950 H2964 0.960 . S
C2951 C2948 1.511 . S
C2951 H2965 0.961 . S
C2951 H2966 0.961 . S
C2951 H2967 0.961 . S
C2952 C2953 1.370 . S
C2952 C2954 1.363 . S
C2952 H2968 0.931 . S
C2953 C2952 1.370 . S
C2953 C2957 1.408 . S
C2954 C2952 1.363 . S
C2954 C2955 1.370 . S
C2954 C2958 1.524 . S
C2955 C2947 1.503 . S
C2955 C2954 1.370 . S
C2955 C2956 1.403 . S
C2956 C2955 1.403 . S
C2956 C2957 1.404 . S
C2956 C2959 1.539 . S
C2957 C2953 1.408 . S
C2957 C2956 1.404 . S
C2957 H2969 0.930 . S
C2958 C2954 1.524 . S
C2958 H2970 0.956 . S
C2958 H2971 0.961 . S
C2958 H2972 0.961 . S
C2959 C2956 1.539 . S
C2959 H2973 0.958 . S
C2959 H2974 0.961 . S
C2959 H2975 0.960 . S
H2960 C2944 0.931 . S
H2961 C2949 0.929 . S
H2962 C2950 0.960 . S
H2963 C2950 0.962 . S
H2964 C2950 0.960 . S
H2965 C2951 0.961 . S
H2966 C2951 0.961 . S
H2967 C2951 0.961 . S
H2968 C2952 0.931 . S
H2969 C2957 0.930 . S
H2970 C2958 0.956 . S
H2971 C2958 0.961 . S
H2972 C2958 0.961 . S
H2973 C2959 0.958 . S
H2974 C2959 0.961 . S
H2975 C2959 0.960 . S
C2976 C2977 1.391 . S
C2976 C2978 1.394 . S
C2976 H2992 0.931 . S
C2977 C2976 1.391 . S
C2977 C2981 1.376 . S
C2978 C2976 1.394 . S
C2978 C2979 1.369 . S
C2978 C2982 1.531 . S
C2979 C2978 1.369 . S
C2979 C2980 1.410 . S
C2979 C2987 1.503 . S
C2980 C2979 1.410 . S
C2980 C2981 1.392 . S
C2980 C2983 1.511 . S
C2981 C2977 1.376 . S
C2981 C2980 1.392 . S
C2981 H2993 0.929 . S
C2982 C2978 1.531 . S
C2982 H2994 0.960 . S
C2982 H2995 0.962 . S
C2982 H2996 0.960 . S
C2983 C2980 1.511 . S
C2983 H2997 0.961 . S
C2983 H2998 0.961 . S
C2983 H2999 0.961 . S
C2984 C2985 1.370 . S
C2984 C2986 1.363 . S
C2984 H3000 0.931 . S
C2985 C2984 1.370 . S
C2985 C2989 1.408 . S
C2986 C2984 1.363 . S
C2986 C2987 1.370 . S
C2986 C2990 1.524 . S
C2987 C2979 1.503 . S
C2987 C2986 1.370 . S
C2987 C2988 1.403 . S
C2988 C2987 1.403 . S
C2988 C2989 1.404 . S
C2988 C2991 1.539 . S
C2989 C2985 1.408 . S
C2989 C2988 1.404 . S
C2989 H3001 0.930 . S
C2990 C2986 1.524 . S
C2990 H3002 0.956 . S
C2990 H3003 0.961 . S
C2990 H3004 0.961 . S
C2991 C2988 1.539 . S
C2991 H3005 0.958 . S
C2991 H3006 0.961 . S
C2991 H3007 0.960 . S
H2992 C2976 0.931 . S
H2993 C2981 0.929 . S
H2994 C2982 0.960 . S
H2995 C2982 0.962 . S
H2996 C2982 0.960 . S
H2997 C2983 0.961 . S
H2998 C2983 0.961 . S
H2999 C2983 0.961 . S
H3000 C2984 0.931 . S
H3001 C2989 0.930 . S
H3002 C2990 0.956 . S
H3003 C2990 0.961 . S
H3004 C2990 0.961 . S
H3005 C2991 0.958 . S
H3006 C2991 0.961 . S
H3007 C2991 0.960 . S
C3008 C3009 1.391 . S
C3008 C3010 1.394 . S
C3008 H3024 0.931 . S
C3009 C3008 1.391 . S
C3009 C3013 1.376 . S
C3010 C3008 1.394 . S
C3010 C3011 1.369 . S
C3010 C3014 1.531 . S
C3011 C3010 1.369 . S
C3011 C3012 1.410 . S
C3011 C3019 1.503 . S
C3012 C3011 1.410 . S
C3012 C3013 1.392 . S
C3012 C3015 1.511 . S
C3013 C3009 1.376 . S
C3013 C3012 1.392 . S
C3013 H3025 0.929 . S
C3014 C3010 1.531 . S
C3014 H3026 0.960 . S
C3014 H3027 0.962 . S
C3014 H3028 0.960 . S
C3015 C3012 1.511 . S
C3015 H3029 0.961 . S
C3015 H3030 0.961 . S
C3015 H3031 0.961 . S
C3016 C3017 1.370 . S
C3016 C3018 1.363 . S
C3016 H3032 0.931 . S
C3017 C3016 1.370 . S
C3017 C3021 1.408 . S
C3018 C3016 1.363 . S
C3018 C3019 1.370 . S
C3018 C3022 1.524 . S
C3019 C3011 1.503 . S
C3019 C3018 1.370 . S
C3019 C3020 1.403 . S
C3020 C3019 1.403 . S
C3020 C3021 1.404 . S
C3020 C3023 1.539 . S
C3021 C3017 1.408 . S
C3021 C3020 1.404 . S
C3021 H3033 0.930 . S
C3022 C3018 1.524 . S
C3022 H3034 0.956 . S
C3022 H3035 0.961 . S
C3022 H3036 0.961 . S
C3023 C3020 1.539 . S
C3023 H3037 0.958 . S
C3023 H3038 0.961 . S
C3023 H3039 0.960 . S
H3024 C3008 0.931 . S
H3025 C3013 0.929 . S
H3026 C3014 0.960 . S
H3027 C3014 0.962 . S
H3028 C3014 0.960 . S
H3029 C3015 0.961 . S
H3030 C3015 0.961 . S
H3031 C3015 0.961 . S
H3032 C3016 0.931 . S
H3033 C3021 0.930 . S
H3034 C3022 0.956 . S
H3035 C3022 0.961 . S
H3036 C3022 0.961 . S
H3037 C3023 0.958 . S
H3038 C3023 0.961 . S
H3039 C3023 0.960 . S
C3040 C3041 1.391 . S
C3040 C3042 1.394 . S
C3040 H3056 0.931 . S
C3041 C3040 1.391 . S
C3041 C3045 1.376 . S
C3042 C3040 1.394 . S
C3042 C3043 1.369 . S
C3042 C3046 1.531 . S
C3043 C3042 1.369 . S
C3043 C3044 1.410 . S
C3043 C3051 1.503 . S
C3044 C3043 1.410 . S
C3044 C3045 1.392 . S
C3044 C3047 1.511 . S
C3045 C3041 1.376 . S
C3045 C3044 1.392 . S
C3045 H3057 0.929 . S
C3046 C3042 1.531 . S
C3046 H3058 0.960 . S
C3046 H3059 0.962 . S
C3046 H3060 0.960 . S
C3047 C3044 1.511 . S
C3047 H3061 0.961 . S
C3047 H3062 0.961 . S
C3047 H3063 0.961 . S
C3048 C3049 1.370 . S
C3048 C3050 1.363 . S
C3048 H3064 0.931 . S
C3049 C3048 1.370 . S
C3049 C3053 1.408 . S
C3050 C3048 1.363 . S
C3050 C3051 1.370 . S
C3050 C3054 1.524 . S
C3051 C3043 1.503 . S
C3051 C3050 1.370 . S
C3051 C3052 1.403 . S
C3052 C3051 1.403 . S
C3052 C3053 1.404 . S
C3052 C3055 1.539 . S
C3053 C3049 1.408 . S
C3053 C3052 1.404 . S
C3053 H3065 0.930 . S
C3054 C3050 1.524 . S
C3054 H3066 0.956 . S
C3054 H3067 0.961 . S
C3054 H3068 0.961 . S
C3055 C3052 1.539 . S
C3055 H3069 0.958 . S
C3055 H3070 0.961 . S
C3055 H3071 0.960 . S
H3056 C3040 0.931 . S
H3057 C3045 0.929 . S
H3058 C3046 0.960 . S
H3059 C3046 0.962 . S
H3060 C3046 0.960 . S
H3061 C3047 0.961 . S
H3062 C3047 0.961 . S
H3063 C3047 0.961 . S
H3064 C3048 0.931 . S
H3065 C3053 0.930 . S
H3066 C3054 0.956 . S
H3067 C3054 0.961 . S
H3068 C3054 0.961 . S
H3069 C3055 0.958 . S
H3070 C3055 0.961 . S
H3071 C3055 0.960 . S
C3072 C3073 1.391 . S
C3072 C3074 1.394 . S
C3072 H3088 0.931 . S
C3073 C3072 1.391 . S
C3073 C3077 1.376 . S
C3074 C3072 1.394 . S
C3074 C3075 1.369 . S
C3074 C3078 1.531 . S
C3075 C3074 1.369 . S
C3075 C3076 1.410 . S
C3075 C3083 1.503 . S
C3076 C3075 1.410 . S
C3076 C3077 1.392 . S
C3076 C3079 1.511 . S
C3077 C3073 1.376 . S
C3077 C3076 1.392 . S
C3077 H3089 0.929 . S
C3078 C3074 1.531 . S
C3078 H3090 0.960 . S
C3078 H3091 0.962 . S
C3078 H3092 0.960 . S
C3079 C3076 1.511 . S
C3079 H3093 0.961 . S
C3079 H3094 0.961 . S
C3079 H3095 0.961 . S
C3080 C3081 1.370 . S
C3080 C3082 1.363 . S
C3080 H3096 0.931 . S
C3081 C3080 1.370 . S
C3081 C3085 1.408 . S
C3082 C3080 1.363 . S
C3082 C3083 1.370 . S
C3082 C3086 1.524 . S
C3083 C3075 1.503 . S
C3083 C3082 1.370 . S
C3083 C3084 1.403 . S
C3084 C3083 1.403 . S
C3084 C3085 1.404 . S
C3084 C3087 1.539 . S
C3085 C3081 1.408 . S
C3085 C3084 1.404 . S
C3085 H3097 0.930 . S
C3086 C3082 1.524 . S
C3086 H3098 0.956 . S
C3086 H3099 0.961 . S
C3086 H3100 0.961 . S
C3087 C3084 1.539 . S
C3087 H3101 0.958 . S
C3087 H3102 0.961 . S
C3087 H3103 0.960 . S
H3088 C3072 0.931 . S
H3089 C3077 0.929 . S
H3090 C3078 0.960 . S
H3091 C3078 0.962 . S
H3092 C3078 0.960 . S
H3093 C3079 0.961 . S
H3094 C3079 0.961 . S
H3095 C3079 0.961 . S
H3096 C3080 0.931 . S
H3097 C3085 0.930 . S
H3098 C3086 0.956 . S
H3099 C3086 0.961 . S
H3100 C3086 0.961 . S
H3101 C3087 0.958 . S
H3102 C3087 0.961 . S
H3103 C3087 0.960 . S
C3104 C3105 1.391 1_554 S
C3104 C3106 1.394 . S
C3104 H3120 0.931 . S
C3105 C3104 1.391 1_556 S
C3105 C3109 1.376 . S
C3106 C3104 1.394 . S
C3106 C3107 1.369 . S
C3106 C3110 1.531 . S
C3107 C3106 1.369 . S
C3107 C3108 1.410 1_554 S
C3107 C3115 1.503 . S
C3108 C3107 1.410 1_556 S
C3108 C3109 1.392 . S
C3108 C3111 1.511 . S
C3109 C3105 1.376 . S
C3109 C3108 1.392 . S
C3109 H3121 0.929 . S
C3110 C3106 1.531 . S
C3110 H3122 0.960 . S
C3110 H3123 0.962 . S
C3110 H3124 0.960 . S
C3111 C3108 1.511 . S
C3111 H3125 0.961 . S
C3111 H3126 0.961 . S
C3111 H3127 0.961 . S
C3112 C3113 1.370 . S
C3112 C3114 1.363 . S
C3112 H3128 0.931 1_455 S
C3113 C3112 1.370 . S
C3113 C3117 1.408 . S
C3114 C3112 1.363 . S
C3114 C3115 1.370 . S
C3114 C3118 1.524 1_455 S
C3115 C3107 1.503 . S
C3115 C3114 1.370 . S
C3115 C3116 1.403 . S
C3116 C3115 1.403 . S
C3116 C3117 1.404 . S
C3116 C3119 1.539 . S
C3117 C3113 1.408 . S
C3117 C3116 1.404 . S
C3117 H3129 0.930 . S
C3118 C3114 1.524 1_655 S
C3118 H3130 0.956 . S
C3118 H3131 0.961 1_554 S
C3118 H3132 0.961 . S
C3119 C3116 1.539 . S
C3119 H3133 0.958 . S
C3119 H3134 0.961 . S
C3119 H3135 0.960 1_554 S
H3120 C3104 0.931 . S
H3121 C3109 0.929 . S
H3122 C3110 0.960 . S
H3123 C3110 0.962 . S
H3124 C3110 0.960 . S
H3125 C3111 0.961 . S
H3126 C3111 0.961 . S
H3127 C3111 0.961 . S
H3128 C3112 0.931 1_655 S
H3129 C3117 0.930 . S
H3130 C3118 0.956 . S
H3131 C3118 0.961 1_556 S
H3132 C3118 0.961 . S
H3133 C3119 0.958 . S
H3134 C3119 0.961 . S
H3135 C3119 0.960 1_556 S
C3136 C3137 1.397 1_455 S
C3136 C3138 1.362 1_455 S
C3136 H3152 0.957 . S
C3137 C3136 1.397 1_655 S
C3137 C3141 1.376 . S
C3138 C3136 1.362 1_655 S
C3138 C3139 1.369 . S
C3138 C3142 1.531 . S
C3139 C3138 1.369 . S
C3139 C3140 1.410 . S
C3139 C3147 1.503 . S
C3140 C3139 1.410 . S
C3140 C3141 1.392 . S
C3140 C3143 1.511 . S
C3141 C3137 1.376 . S
C3141 C3140 1.392 . S
C3141 H3153 0.929 . S
C3142 C3138 1.531 . S
C3142 H3154 0.960 . S
C3142 H3155 0.962 . S
C3142 H3156 0.960 . S
C3143 C3140 1.511 . S
C3143 H3157 0.961 . S
C3143 H3158 0.961 . S
C3143 H3159 0.961 . S
C3144 C3145 1.370 . S
C3144 C3146 1.363 . S
C3144 H3160 0.931 . S
C3145 C3144 1.370 . S
C3145 C3149 1.408 . S
C3146 C3144 1.363 . S
C3146 C3147 1.370 . S
C3146 C3150 1.524 . S
C3147 C3139 1.503 . S
C3147 C3146 1.370 . S
C3147 C3148 1.403 . S
C3148 C3147 1.403 . S
C3148 C3149 1.404 . S
C3148 C3151 1.539 . S
C3149 C3145 1.408 . S
C3149 C3148 1.404 . S
C3149 H3161 0.930 . S
C3150 C3146 1.524 . S
C3150 H3162 0.956 . S
C3150 H3163 0.961 . S
C3150 H3164 0.961 . S
C3151 C3148 1.539 . S
C3151 H3165 0.958 . S
C3151 H3166 0.961 . S
C3151 H3167 0.960 . S
H3152 C3136 0.957 . S
H3153 C3141 0.929 . S
H3154 C3142 0.960 . S
H3155 C3142 0.962 . S
H3156 C3142 0.960 . S
H3157 C3143 0.961 . S
H3158 C3143 0.961 . S
H3159 C3143 0.961 . S
H3160 C3144 0.931 . S
H3161 C3149 0.930 . S
H3162 C3150 0.956 . S
H3163 C3150 0.961 . S
H3164 C3150 0.961 . S
H3165 C3151 0.958 . S
H3166 C3151 0.961 . S
H3167 C3151 0.960 . S
C3168 C3169 1.391 . S
C3168 C3170 1.394 . S
C3168 H3184 0.931 . S
C3169 C3168 1.391 . S
C3169 C3173 1.376 . S
C3170 C3168 1.394 . S
C3170 C3171 1.369 . S
C3170 C3174 1.531 . S
C3171 C3170 1.369 . S
C3171 C3172 1.410 . S
C3171 C3179 1.503 . S
C3172 C3171 1.410 . S
C3172 C3173 1.392 . S
C3172 C3175 1.511 . S
C3173 C3169 1.376 . S
C3173 C3172 1.392 . S
C3173 H3185 0.929 . S
C3174 C3170 1.531 . S
C3174 H3186 0.960 . S
C3174 H3187 0.962 . S
C3174 H3188 0.960 . S
C3175 C3172 1.511 . S
C3175 H3189 0.961 . S
C3175 H3190 0.961 . S
C3175 H3191 0.961 . S
C3176 C3177 1.370 . S
C3176 C3178 1.363 . S
C3176 H3192 0.931 . S
C3177 C3176 1.370 . S
C3177 C3181 1.408 . S
C3178 C3176 1.363 . S
C3178 C3179 1.370 . S
C3178 C3182 1.524 . S
C3179 C3171 1.503 . S
C3179 C3178 1.370 . S
C3179 C3180 1.403 . S
C3180 C3179 1.403 . S
C3180 C3181 1.404 . S
C3180 C3183 1.539 . S
C3181 C3177 1.408 . S
C3181 C3180 1.404 . S
C3181 H3193 0.930 . S
C3182 C3178 1.524 . S
C3182 H3194 0.956 . S
C3182 H3195 0.961 . S
C3182 H3196 0.961 . S
C3183 C3180 1.539 . S
C3183 H3197 0.958 . S
C3183 H3198 0.961 . S
C3183 H3199 0.960 . S
H3184 C3168 0.931 . S
H3185 C3173 0.929 . S
H3186 C3174 0.960 . S
H3187 C3174 0.962 . S
H3188 C3174 0.960 . S
H3189 C3175 0.961 . S
H3190 C3175 0.961 . S
H3191 C3175 0.961 . S
H3192 C3176 0.931 . S
H3193 C3181 0.930 . S
H3194 C3182 0.956 . S
H3195 C3182 0.961 . S
H3196 C3182 0.961 . S
H3197 C3183 0.958 . S
H3198 C3183 0.961 . S
H3199 C3183 0.960 . S
C3200 C3201 1.391 . S
C3200 C3202 1.394 . S
C3200 H3216 0.931 . S
C3201 C3200 1.391 . S
C3201 C3205 1.376 . S
C3202 C3200 1.394 . S
C3202 C3203 1.369 . S
C3202 C3206 1.531 . S
C3203 C3202 1.369 . S
C3203 C3204 1.410 . S
C3203 C3211 1.503 . S
C3204 C3203 1.410 . S
C3204 C3205 1.392 . S
C3204 C3207 1.511 . S
C3205 C3201 1.376 . S
C3205 C3204 1.392 . S
C3205 H3217 0.929 . S
C3206 C3202 1.531 . S
C3206 H3218 0.960 . S
C3206 H3219 0.962 . S
C3206 H3220 0.960 . S
C3207 C3204 1.511 . S
C3207 H3221 0.961 . S
C3207 H3222 0.961 . S
C3207 H3223 0.961 . S
C3208 C3209 1.370 . S
C3208 C3210 1.363 . S
C3208 H3224 0.931 . S
C3209 C3208 1.370 . S
C3209 C3213 1.408 . S
C3210 C3208 1.363 . S
C3210 C3211 1.370 . S
C3210 C3214 1.524 . S
C3211 C3203 1.503 . S
C3211 C3210 1.370 . S
C3211 C3212 1.403 . S
C3212 C3211 1.403 . S
C3212 C3213 1.404 . S
C3212 C3215 1.539 . S
C3213 C3209 1.408 . S
C3213 C3212 1.404 . S
C3213 H3225 0.930 . S
C3214 C3210 1.524 . S
C3214 H3226 0.956 . S
C3214 H3227 0.961 . S
C3214 H3228 0.961 . S
C3215 C3212 1.539 . S
C3215 H3229 0.958 . S
C3215 H3230 0.961 . S
C3215 H3231 0.960 . S
H3216 C3200 0.931 . S
H3217 C3205 0.929 . S
H3218 C3206 0.960 . S
H3219 C3206 0.962 . S
H3220 C3206 0.960 . S
H3221 C3207 0.961 . S
H3222 C3207 0.961 . S
H3223 C3207 0.961 . S
H3224 C3208 0.931 . S
H3225 C3213 0.930 . S
H3226 C3214 0.956 . S
H3227 C3214 0.961 . S
H3228 C3214 0.961 . S
H3229 C3215 0.958 . S
H3230 C3215 0.961 . S
H3231 C3215 0.960 . S
C3232 C3233 1.391 . S
C3232 C3234 1.394 . S
C3232 H3248 0.931 . S
C3233 C3232 1.391 . S
C3233 C3237 1.376 . S
C3234 C3232 1.394 . S
C3234 C3235 1.369 . S
C3234 C3238 1.531 . S
C3235 C3234 1.369 . S
C3235 C3236 1.410 . S
C3235 C3243 1.503 . S
C3236 C3235 1.410 . S
C3236 C3237 1.392 . S
C3236 C3239 1.511 . S
C3237 C3233 1.376 . S
C3237 C3236 1.392 . S
C3237 H3249 0.929 . S
C3238 C3234 1.531 . S
C3238 H3250 0.960 . S
C3238 H3251 0.962 . S
C3238 H3252 0.960 . S
C3239 C3236 1.511 . S
C3239 H3253 0.961 . S
C3239 H3254 0.961 . S
C3239 H3255 0.961 1_455 S
C3240 C3241 1.370 . S
C3240 C3242 1.363 . S
C3240 H3256 0.931 . S
C3241 C3240 1.370 . S
C3241 C3245 1.389 1_455 S
C3242 C3240 1.363 . S
C3242 C3243 1.370 . S
C3242 C3246 1.524 . S
C3243 C3235 1.503 . S
C3243 C3242 1.370 . S
C3243 C3244 1.403 1_455 S
C3244 C3243 1.403 1_655 S
C3244 C3245 1.412 . S
C3244 C3247 1.539 . S
C3245 C3241 1.389 1_655 S
C3245 C3244 1.412 . S
C3245 H3257 0.941 . S
C3246 C3242 1.524 . S
C3246 H3258 0.956 . S
C3246 H3259 0.961 . S
C3246 H3260 0.961 . S
C3247 C3244 1.539 . S
C3247 H3261 0.958 . S
C3247 H3262 0.961 . S
C3247 H3263 0.960 . S
H3248 C3232 0.931 . S
H3249 C3237 0.929 . S
H3250 C3238 0.960 . S
H3251 C3238 0.962 . S
H3252 C3238 0.960 . S
H3253 C3239 0.961 . S
H3254 C3239 0.961 . S
H3255 C3239 0.961 1_655 S
H3256 C3240 0.931 . S
H3257 C3245 0.941 . S
H3258 C3246 0.956 . S
H3259 C3246 0.961 . S
H3260 C3246 0.961 . S
H3261 C3247 0.958 . S
H3262 C3247 0.961 . S
H3263 C3247 0.960 . S
C3264 C3265 1.391 . S
C3264 C3266 1.394 . S
C3264 H3280 0.931 . S
C3265 C3264 1.391 . S
C3265 C3269 1.376 . S
C3266 C3264 1.394 . S
C3266 C3267 1.369 . S
C3266 C3270 1.531 . S
C3267 C3266 1.369 . S
C3267 C3268 1.410 . S
C3267 C3275 1.503 . S
C3268 C3267 1.410 . S
C3268 C3269 1.392 . S
C3268 C3271 1.511 . S
C3269 C3265 1.376 . S
C3269 C3268 1.392 . S
C3269 H3281 0.929 . S
C3270 C3266 1.531 . S
C3270 H3282 0.960 . S
C3270 H3283 0.962 . S
C3270 H3284 0.960 . S
C3271 C3268 1.511 . S
C3271 H3285 0.961 . S
C3271 H3286 0.961 . S
C3271 H3287 0.961 . S
C3272 C3273 1.370 . S
C3272 C3274 1.363 . S
C3272 H3288 0.931 . S
C3273 C3272 1.370 . S
C3273 C3277 1.408 . S
C3274 C3272 1.363 . S
C3274 C3275 1.370 . S
C3274 C3278 1.524 . S
C3275 C3267 1.503 . S
C3275 C3274 1.370 . S
C3275 C3276 1.403 . S
C3276 C3275 1.403 . S
C3276 C3277 1.404 . S
C3276 C3279 1.539 . S
C3277 C3273 1.408 . S
C3277 C3276 1.404 . S
C3277 H3289 0.930 . S
C3278 C3274 1.524 . S
C3278 H3290 0.956 . S
C3278 H3291 0.961 . S
C3278 H3292 0.961 . S
C3279 C3276 1.539 . S
C3279 H3293 0.958 . S
C3279 H3294 0.961 . S
C3279 H3295 0.960 . S
H3280 C3264 0.931 . S
H3281 C3269 0.929 . S
H3282 C3270 0.960 . S
H3283 C3270 0.962 . S
H3284 C3270 0.960 . S
H3285 C3271 0.961 . S
H3286 C3271 0.961 . S
H3287 C3271 0.961 . S
H3288 C3272 0.931 . S
H3289 C3277 0.930 . S
H3290 C3278 0.956 . S
H3291 C3278 0.961 . S
H3292 C3278 0.961 . S
H3293 C3279 0.958 . S
H3294 C3279 0.961 . S
H3295 C3279 0.960 . S
C3296 C3297 1.391 . S
C3296 C3298 1.394 . S
C3296 H3312 0.931 . S
C3297 C3296 1.391 . S
C3297 C3301 1.376 . S
C3298 C3296 1.394 . S
C3298 C3299 1.369 . S
C3298 C3302 1.531 . S
C3299 C3298 1.369 . S
C3299 C3300 1.410 . S
C3299 C3307 1.503 . S
C3300 C3299 1.410 . S
C3300 C3301 1.392 . S
C3300 C3303 1.511 . S
C3301 C3297 1.376 . S
C3301 C3300 1.392 . S
C3301 H3313 0.929 . S
C3302 C3298 1.531 . S
C3302 H3314 0.960 . S
C3302 H3315 0.962 . S
C3302 H3316 0.960 . S
C3303 C3300 1.511 . S
C3303 H3317 0.961 . S
C3303 H3318 0.961 . S
C3303 H3319 0.961 . S
C3304 C3305 1.370 . S
C3304 C3306 1.363 . S
C3304 H3320 0.931 . S
C3305 C3304 1.370 . S
C3305 C3309 1.408 . S
C3306 C3304 1.363 . S
C3306 C3307 1.370 . S
C3306 C3310 1.524 . S
C3307 C3299 1.503 . S
C3307 C3306 1.370 . S
C3307 C3308 1.403 . S
C3308 C3307 1.403 . S
C3308 C3309 1.404 . S
C3308 C3311 1.539 . S
C3309 C3305 1.408 . S
C3309 C3308 1.404 . S
C3309 H3321 0.930 . S
C3310 C3306 1.524 . S
C3310 H3322 0.956 . S
C3310 H3323 0.961 . S
C3310 H3324 0.961 . S
C3311 C3308 1.539 . S
C3311 H3325 0.958 . S
C3311 H3326 0.961 . S
C3311 H3327 0.960 . S
H3312 C3296 0.931 . S
H3313 C3301 0.929 . S
H3314 C3302 0.960 . S
H3315 C3302 0.962 . S
H3316 C3302 0.960 . S
H3317 C3303 0.961 . S
H3318 C3303 0.961 . S
H3319 C3303 0.961 . S
H3320 C3304 0.931 . S
H3321 C3309 0.930 . S
H3322 C3310 0.956 . S
H3323 C3310 0.961 . S
H3324 C3310 0.961 . S
H3325 C3311 0.958 . S
H3326 C3311 0.961 . S
H3327 C3311 0.960 . S
C3328 C3329 1.391 . S
C3328 C3330 1.394 1_554 S
C3328 H3344 0.931 . S
C3329 C3328 1.391 . S
C3329 C3333 1.376 1_554 S
C3330 C3328 1.394 1_556 S
C3330 C3331 1.369 . S
C3330 C3334 1.531 . S
C3331 C3330 1.369 . S
C3331 C3332 1.410 . S
C3331 C3339 1.503 . S
C3332 C3331 1.410 . S
C3332 C3333 1.392 . S
C3332 C3335 1.511 . S
C3333 C3329 1.376 1_556 S
C3333 C3332 1.392 . S
C3333 H3345 0.929 . S
C3334 C3330 1.531 . S
C3334 H3346 0.980 . S
C3334 H3347 0.977 . S
C3334 H3348 0.927 1_556 S
C3335 C3332 1.511 . S
C3335 H3349 0.961 . S
C3335 H3350 0.961 . S
C3335 H3351 0.961 . S
C3336 C3337 1.370 . S
C3336 C3338 1.363 . S
C3336 H3352 0.931 . S
C3337 C3336 1.370 . S
C3337 C3341 1.408 . S
C3338 C3336 1.363 . S
C3338 C3339 1.370 . S
C3338 C3342 1.524 . S
C3339 C3331 1.503 . S
C3339 C3338 1.370 . S
C3339 C3340 1.403 . S
C3340 C3339 1.403 . S
C3340 C3341 1.404 . S
C3340 C3343 1.539 . S
C3341 C3337 1.408 . S
C3341 C3340 1.404 . S
C3341 H3353 0.930 . S
C3342 C3338 1.524 . S
C3342 H3354 0.956 . S
C3342 H3355 0.961 . S
C3342 H3356 0.961 . S
C3343 C3340 1.539 . S
C3343 H3357 0.958 . S
C3343 H3358 0.961 . S
C3343 H3359 0.960 . S
H3344 C3328 0.931 . S
H3345 C3333 0.929 . S
H3346 C3334 0.980 . S
H3347 C3334 0.977 . S
H3348 C3334 0.927 1_554 S
H3349 C3335 0.961 . S
H3350 C3335 0.961 . S
H3351 C3335 0.961 . S
H3352 C3336 0.931 . S
H3353 C3341 0.930 . S
H3354 C3342 0.956 . S
H3355 C3342 0.961 . S
H3356 C3342 0.961 . S
H3357 C3343 0.958 . S
H3358 C3343 0.961 . S
H3359 C3343 0.960 . S
C3360 C3361 1.391 . S
C3360 C3362 1.394 . S
C3360 H3376 0.931 . S
C3361 C3360 1.391 . S
C3361 C3365 1.376 . S
C3362 C3360 1.394 . S
C3362 C3363 1.369 . S
C3362 C3366 1.531 . S
C3363 C3362 1.369 . S
C3363 C3364 1.410 . S
C3363 C3371 1.503 . S
C3364 C3363 1.410 . S
C3364 C3365 1.392 . S
C3364 C3367 1.511 . S
C3365 C3361 1.376 . S
C3365 C3364 1.392 . S
C3365 H3377 0.929 . S
C3366 C3362 1.531 . S
C3366 H3378 0.960 . S
C3366 H3379 0.962 . S
C3366 H3380 0.960 . S
C3367 C3364 1.511 . S
C3367 H3381 0.961 . S
C3367 H3382 0.961 . S
C3367 H3383 0.961 . S
C3368 C3369 1.370 . S
C3368 C3370 1.363 . S
C3368 H3384 0.931 . S
C3369 C3368 1.370 . S
C3369 C3373 1.408 . S
C3370 C3368 1.363 . S
C3370 C3371 1.370 . S
C3370 C3374 1.524 . S
C3371 C3363 1.503 . S
C3371 C3370 1.370 . S
C3371 C3372 1.403 . S
C3372 C3371 1.403 . S
C3372 C3373 1.404 . S
C3372 C3375 1.539 . S
C3373 C3369 1.408 . S
C3373 C3372 1.404 . S
C3373 H3385 0.930 . S
C3374 C3370 1.524 . S
C3374 H3386 0.956 . S
C3374 H3387 0.961 . S
C3374 H3388 0.961 . S
C3375 C3372 1.539 . S
C3375 H3389 0.958 . S
C3375 H3390 0.961 . S
C3375 H3391 0.960 . S
H3376 C3360 0.931 . S
H3377 C3365 0.929 . S
H3378 C3366 0.960 . S
H3379 C3366 0.962 . S
H3380 C3366 0.960 . S
H3381 C3367 0.961 . S
H3382 C3367 0.961 . S
H3383 C3367 0.961 . S
H3384 C3368 0.931 . S
H3385 C3373 0.930 . S
H3386 C3374 0.956 . S
H3387 C3374 0.961 . S
H3388 C3374 0.961 . S
H3389 C3375 0.958 . S
H3390 C3375 0.961 . S
H3391 C3375 0.960 . S
C3392 C3393 1.391 . S
C3392 C3394 1.394 . S
C3392 H3408 0.931 . S
C3393 C3392 1.391 . S
C3393 C3397 1.376 . S
C3394 C3392 1.394 . S
C3394 C3395 1.369 . S
C3394 C3398 1.531 . S
C3395 C3394 1.369 . S
C3395 C3396 1.410 . S
C3395 C3403 1.503 . S
C3396 C3395 1.410 . S
C3396 C3397 1.392 . S
C3396 C3399 1.511 . S
C3397 C3393 1.376 . S
C3397 C3396 1.392 . S
C3397 H3409 0.929 . S
C3398 C3394 1.531 . S
C3398 H3410 0.960 . S
C3398 H3411 0.962 . S
C3398 H3412 0.960 . S
C3399 C3396 1.511 . S
C3399 H3413 0.961 . S
C3399 H3414 0.961 . S
C3399 H3415 0.961 . S
C3400 C3401 1.370 . S
C3400 C3402 1.363 . S
C3400 H3416 0.931 . S
C3401 C3400 1.370 . S
C3401 C3405 1.408 . S
C3402 C3400 1.363 . S
C3402 C3403 1.370 . S
C3402 C3406 1.524 . S
C3403 C3395 1.503 . S
C3403 C3402 1.370 . S
C3403 C3404 1.403 . S
C3404 C3403 1.403 . S
C3404 C3405 1.404 . S
C3404 C3407 1.539 . S
C3405 C3401 1.408 . S
C3405 C3404 1.404 . S
C3405 H3417 0.930 . S
C3406 C3402 1.524 . S
C3406 H3418 0.956 . S
C3406 H3419 0.961 . S
C3406 H3420 0.961 . S
C3407 C3404 1.539 . S
C3407 H3421 0.958 . S
C3407 H3422 0.961 . S
C3407 H3423 0.960 . S
H3408 C3392 0.931 . S
H3409 C3397 0.929 . S
H3410 C3398 0.960 . S
H3411 C3398 0.962 . S
H3412 C3398 0.960 . S
H3413 C3399 0.961 . S
H3414 C3399 0.961 . S
H3415 C3399 0.961 . S
H3416 C3400 0.931 . S
H3417 C3405 0.930 . S
H3418 C3406 0.956 . S
H3419 C3406 0.961 . S
H3420 C3406 0.961 . S
H3421 C3407 0.958 . S
H3422 C3407 0.961 . S
H3423 C3407 0.960 . S
C3424 C3425 1.391 . S
C3424 C3426 1.394 . S
C3424 H3440 0.931 . S
C3425 C3424 1.391 . S
C3425 C3429 1.376 . S
C3426 C3424 1.394 . S
C3426 C3427 1.369 . S
C3426 C3430 1.531 . S
C3427 C3426 1.369 . S
C3427 C3428 1.410 . S
C3427 C3435 1.503 . S
C3428 C3427 1.410 . S
C3428 C3429 1.392 . S
C3428 C3431 1.511 . S
C3429 C3425 1.376 . S
C3429 C3428 1.392 . S
C3429 H3441 0.929 . S
C3430 C3426 1.531 . S
C3430 H3442 0.960 . S
C3430 H3443 0.962 . S
C3430 H3444 0.960 . S
C3431 C3428 1.511 . S
C3431 H3445 0.961 . S
C3431 H3446 0.961 . S
C3431 H3447 0.961 . S
C3432 C3433 1.370 . S
C3432 C3434 1.363 . S
C3432 H3448 0.931 . S
C3433 C3432 1.370 . S
C3433 C3437 1.408 . S
C3434 C3432 1.363 . S
C3434 C3435 1.370 . S
C3434 C3438 1.524 . S
C3435 C3427 1.503 . S
C3435 C3434 1.370 . S
C3435 C3436 1.403 . S
C3436 C3435 1.403 . S
C3436 C3437 1.404 . S
C3436 C3439 1.539 . S
C3437 C3433 1.408 . S
C3437 C3436 1.404 . S
C3437 H3449 0.930 . S
C3438 C3434 1.524 . S
C3438 H3450 0.956 . S
C3438 H3451 0.961 . S
C3438 H3452 0.961 . S
C3439 C3436 1.539 . S
C3439 H3453 0.958 . S
C3439 H3454 0.961 . S
C3439 H3455 0.960 . S
H3440 C3424 0.931 . S
H3441 C3429 0.929 . S
H3442 C3430 0.960 . S
H3443 C3430 0.962 . S
H3444 C3430 0.960 . S
H3445 C3431 0.961 . S
H3446 C3431 0.961 . S
H3447 C3431 0.961 . S
H3448 C3432 0.931 . S
H3449 C3437 0.930 . S
H3450 C3438 0.956 . S
H3451 C3438 0.961 . S
H3452 C3438 0.961 . S
H3453 C3439 0.958 . S
H3454 C3439 0.961 . S
H3455 C3439 0.960 . S
C3456 C3457 1.391 . S
C3456 C3458 1.394 . S
C3456 H3472 0.931 . S
C3457 C3456 1.391 . S
C3457 C3461 1.376 . S
C3458 C3456 1.394 . S
C3458 C3459 1.369 . S
C3458 C3462 1.531 . S
C3459 C3458 1.369 . S
C3459 C3460 1.410 . S
C3459 C3467 1.503 . S
C3460 C3459 1.410 . S
C3460 C3461 1.392 . S
C3460 C3463 1.511 . S
C3461 C3457 1.376 . S
C3461 C3460 1.392 . S
C3461 H3473 0.929 . S
C3462 C3458 1.531 . S
C3462 H3474 0.960 . S
C3462 H3475 0.962 . S
C3462 H3476 0.960 . S
C3463 C3460 1.511 . S
C3463 H3477 0.961 . S
C3463 H3478 0.961 . S
C3463 H3479 0.961 . S
C3464 C3465 1.370 . S
C3464 C3466 1.363 . S
C3464 H3480 0.931 . S
C3465 C3464 1.370 . S
C3465 C3469 1.408 . S
C3466 C3464 1.363 . S
C3466 C3467 1.370 . S
C3466 C3470 1.524 . S
C3467 C3459 1.503 . S
C3467 C3466 1.370 . S
C3467 C3468 1.403 . S
C3468 C3467 1.403 . S
C3468 C3469 1.404 . S
C3468 C3471 1.539 . S
C3469 C3465 1.408 . S
C3469 C3468 1.404 . S
C3469 H3481 0.930 . S
C3470 C3466 1.524 . S
C3470 H3482 0.956 . S
C3470 H3483 0.961 . S
C3470 H3484 0.961 . S
C3471 C3468 1.539 . S
C3471 H3485 0.958 . S
C3471 H3486 0.961 . S
C3471 H3487 0.960 . S
H3472 C3456 0.931 . S
H3473 C3461 0.929 . S
H3474 C3462 0.960 . S
H3475 C3462 0.962 . S
H3476 C3462 0.960 . S
H3477 C3463 0.961 . S
H3478 C3463 0.961 . S
H3479 C3463 0.961 . S
H3480 C3464 0.931 . S
H3481 C3469 0.930 . S
H3482 C3470 0.956 . S
H3483 C3470 0.961 . S
H3484 C3470 0.961 . S
H3485 C3471 0.958 . S
H3486 C3471 0.961 . S
H3487 C3471 0.960 . S
C3488 C3489 1.391 . S
C3488 C3490 1.394 . S
C3488 H3504 0.931 . S
C3489 C3488 1.391 . S
C3489 C3493 1.376 . S
C3490 C3488 1.394 . S
C3490 C3491 1.369 . S
C3490 C3494 1.531 . S
C3491 C3490 1.369 . S
C3491 C3492 1.410 . S
C3491 C3499 1.503 . S
C3492 C3491 1.410 . S
C3492 C3493 1.392 . S
C3492 C3495 1.511 . S
C3493 C3489 1.376 . S
C3493 C3492 1.392 . S
C3493 H3505 0.929 . S
C3494 C3490 1.531 . S
C3494 H3506 0.960 . S
C3494 H3507 0.962 . S
C3494 H3508 0.960 . S
C3495 C3492 1.511 . S
C3495 H3509 0.961 . S
C3495 H3510 0.961 . S
C3495 H3511 0.961 . S
C3496 C3497 1.370 . S
C3496 C3498 1.363 . S
C3496 H3512 0.931 . S
C3497 C3496 1.370 . S
C3497 C3501 1.408 . S
C3498 C3496 1.363 . S
C3498 C3499 1.370 . S
C3498 C3502 1.524 . S
C3499 C3491 1.503 . S
C3499 C3498 1.370 . S
C3499 C3500 1.403 . S
C3500 C3499 1.403 . S
C3500 C3501 1.404 . S
C3500 C3503 1.539 . S
C3501 C3497 1.408 . S
C3501 C3500 1.404 . S
C3501 H3513 0.930 . S
C3502 C3498 1.524 . S
C3502 H3514 0.956 . S
C3502 H3515 0.961 . S
C3502 H3516 0.961 . S
C3503 C3500 1.539 . S
C3503 H3517 0.958 . S
C3503 H3518 0.961 . S
C3503 H3519 0.960 . S
H3504 C3488 0.931 . S
H3505 C3493 0.929 . S
H3506 C3494 0.960 . S
H3507 C3494 0.962 . S
H3508 C3494 0.960 . S
H3509 C3495 0.961 . S
H3510 C3495 0.961 . S
H3511 C3495 0.961 . S
H3512 C3496 0.931 . S
H3513 C3501 0.930 . S
H3514 C3502 0.956 . S
H3515 C3502 0.961 . S
H3516 C3502 0.961 . S
H3517 C3503 0.958 . S
H3518 C3503 0.961 . S
H3519 C3503 0.960 . S
C3520 C3521 1.391 . S
C3520 C3522 1.394 . S
C3520 H3536 0.931 . S
C3521 C3520 1.391 . S
C3521 C3525 1.376 . S
C3522 C3520 1.394 . S
C3522 C3523 1.369 . S
C3522 C3526 1.531 . S
C3523 C3522 1.369 . S
C3523 C3524 1.410 . S
C3523 C3531 1.503 . S
C3524 C3523 1.410 . S
C3524 C3525 1.392 . S
C3524 C3527 1.511 . S
C3525 C3521 1.376 . S
C3525 C3524 1.392 . S
C3525 H3537 0.929 . S
C3526 C3522 1.531 . S
C3526 H3538 0.960 . S
C3526 H3539 0.962 . S
C3526 H3540 0.960 . S
C3527 C3524 1.511 . S
C3527 H3541 0.961 . S
C3527 H3542 0.961 . S
C3527 H3543 0.961 . S
C3528 C3529 1.370 . S
C3528 C3530 1.363 . S
C3528 H3544 0.931 . S
C3529 C3528 1.370 . S
C3529 C3533 1.408 . S
C3530 C3528 1.363 . S
C3530 C3531 1.370 . S
C3530 C3534 1.524 . S
C3531 C3523 1.503 . S
C3531 C3530 1.370 . S
C3531 C3532 1.403 . S
C3532 C3531 1.403 . S
C3532 C3533 1.404 . S
C3532 C3535 1.539 . S
C3533 C3529 1.408 . S
C3533 C3532 1.404 . S
C3533 H3545 0.930 . S
C3534 C3530 1.524 . S
C3534 H3546 0.956 . S
C3534 H3547 0.961 . S
C3534 H3548 0.961 . S
C3535 C3532 1.539 . S
C3535 H3549 0.958 . S
C3535 H3550 0.961 . S
C3535 H3551 0.960 . S
H3536 C3520 0.931 . S
H3537 C3525 0.929 . S
H3538 C3526 0.960 . S
H3539 C3526 0.962 . S
H3540 C3526 0.960 . S
H3541 C3527 0.961 . S
H3542 C3527 0.961 . S
H3543 C3527 0.961 . S
H3544 C3528 0.931 . S
H3545 C3533 0.930 . S
H3546 C3534 0.956 . S
H3547 C3534 0.961 . S
H3548 C3534 0.961 . S
H3549 C3535 0.958 . S
H3550 C3535 0.961 . S
H3551 C3535 0.960 . S
C3552 C3553 1.391 . S
C3552 C3554 1.394 . S
C3552 H3568 0.931 . S
C3553 C3552 1.391 . S
C3553 C3557 1.376 . S
C3554 C3552 1.394 . S
C3554 C3555 1.369 . S
C3554 C3558 1.531 . S
C3555 C3554 1.369 . S
C3555 C3556 1.410 . S
C3555 C3563 1.503 . S
C3556 C3555 1.410 . S
C3556 C3557 1.392 . S
C3556 C3559 1.511 . S
C3557 C3553 1.376 . S
C3557 C3556 1.392 . S
C3557 H3569 0.929 . S
C3558 C3554 1.531 . S
C3558 H3570 0.960 . S
C3558 H3571 0.962 . S
C3558 H3572 0.960 . S
C3559 C3556 1.511 . S
C3559 H3573 0.961 . S
C3559 H3574 0.961 . S
C3559 H3575 0.961 . S
C3560 C3561 1.370 . S
C3560 C3562 1.363 . S
C3560 H3576 0.931 . S
C3561 C3560 1.370 . S
C3561 C3565 1.408 . S
C3562 C3560 1.363 . S
C3562 C3563 1.370 . S
C3562 C3566 1.524 . S
C3563 C3555 1.503 . S
C3563 C3562 1.370 . S
C3563 C3564 1.403 . S
C3564 C3563 1.403 . S
C3564 C3565 1.404 . S
C3564 C3567 1.539 . S
C3565 C3561 1.408 . S
C3565 C3564 1.404 . S
C3565 H3577 0.930 . S
C3566 C3562 1.524 . S
C3566 H3578 0.956 . S
C3566 H3579 0.961 . S
C3566 H3580 0.961 . S
C3567 C3564 1.539 . S
C3567 H3581 0.958 . S
C3567 H3582 0.961 . S
C3567 H3583 0.960 . S
H3568 C3552 0.931 . S
H3569 C3557 0.929 . S
H3570 C3558 0.960 . S
H3571 C3558 0.962 . S
H3572 C3558 0.960 . S
H3573 C3559 0.961 . S
H3574 C3559 0.961 . S
H3575 C3559 0.961 . S
H3576 C3560 0.931 . S
H3577 C3565 0.930 . S
H3578 C3566 0.956 . S
H3579 C3566 0.961 . S
H3580 C3566 0.961 . S
H3581 C3567 0.958 . S
H3582 C3567 0.961 . S
H3583 C3567 0.960 . S
C3584 C3585 1.391 . S
C3584 C3586 1.394 . S
C3584 H3600 0.931 . S
C3585 C3584 1.391 . S
C3585 C3589 1.376 . S
C3586 C3584 1.394 . S
C3586 C3587 1.369 . S
C3586 C3590 1.531 . S
C3587 C3586 1.369 . S
C3587 C3588 1.410 . S
C3587 C3595 1.503 . S
C3588 C3587 1.410 . S
C3588 C3589 1.392 . S
C3588 C3591 1.511 . S
C3589 C3585 1.376 . S
C3589 C3588 1.392 . S
C3589 H3601 0.929 . S
C3590 C3586 1.531 . S
C3590 H3602 0.960 . S
C3590 H3603 0.962 . S
C3590 H3604 0.960 . S
C3591 C3588 1.511 . S
C3591 H3605 0.961 . S
C3591 H3606 0.961 . S
C3591 H3607 0.961 . S
C3592 C3593 1.370 . S
C3592 C3594 1.363 . S
C3592 H3608 0.931 . S
C3593 C3592 1.370 . S
C3593 C3597 1.408 . S
C3594 C3592 1.363 . S
C3594 C3595 1.370 . S
C3594 C3598 1.524 . S
C3595 C3587 1.503 . S
C3595 C3594 1.370 . S
C3595 C3596 1.403 . S
C3596 C3595 1.403 . S
C3596 C3597 1.404 . S
C3596 C3599 1.539 . S
C3597 C3593 1.408 . S
C3597 C3596 1.404 . S
C3597 H3609 0.930 . S
C3598 C3594 1.524 . S
C3598 H3610 0.956 . S
C3598 H3611 0.961 . S
C3598 H3612 0.961 . S
C3599 C3596 1.539 . S
C3599 H3613 0.958 . S
C3599 H3614 0.961 . S
C3599 H3615 0.960 . S
H3600 C3584 0.931 . S
H3601 C3589 0.929 . S
H3602 C3590 0.960 . S
H3603 C3590 0.962 . S
H3604 C3590 0.960 . S
H3605 C3591 0.961 . S
H3606 C3591 0.961 . S
H3607 C3591 0.961 . S
H3608 C3592 0.931 . S
H3609 C3597 0.930 . S
H3610 C3598 0.956 . S
H3611 C3598 0.961 . S
H3612 C3598 0.961 . S
H3613 C3599 0.958 . S
H3614 C3599 0.961 . S
H3615 C3599 0.960 . S
C3616 C3617 1.391 . S
C3616 C3618 1.394 . S
C3616 H3632 0.931 . S
C3617 C3616 1.391 . S
C3617 C3621 1.376 . S
C3618 C3616 1.394 . S
C3618 C3619 1.369 . S
C3618 C3622 1.531 . S
C3619 C3618 1.369 . S
C3619 C3620 1.410 . S
C3619 C3627 1.503 . S
C3620 C3619 1.410 . S
C3620 C3621 1.392 . S
C3620 C3623 1.511 . S
C3621 C3617 1.376 . S
C3621 C3620 1.392 . S
C3621 H3633 0.929 1_565 S
C3622 C3618 1.531 . S
C3622 H3634 0.960 . S
C3622 H3635 0.962 . S
C3622 H3636 0.960 . S
C3623 C3620 1.511 . S
C3623 H3637 0.961 . S
C3623 H3638 0.961 . S
C3623 H3639 0.961 . S
C3624 C3625 1.370 . S
C3624 C3626 1.363 . S
C3624 H3640 0.931 . S
C3625 C3624 1.370 . S
C3625 C3629 1.408 . S
C3626 C3624 1.363 . S
C3626 C3627 1.370 . S
C3626 C3630 1.524 . S
C3627 C3619 1.503 . S
C3627 C3626 1.370 . S
C3627 C3628 1.403 . S
C3628 C3627 1.403 . S
C3628 C3629 1.404 . S
C3628 C3631 1.539 . S
C3629 C3625 1.408 . S
C3629 C3628 1.404 . S
C3629 H3641 0.930 . S
C3630 C3626 1.524 . S
C3630 H3642 0.956 . S
C3630 H3643 0.961 . S
C3630 H3644 0.961 . S
C3631 C3628 1.539 . S
C3631 H3645 0.958 . S
C3631 H3646 0.961 . S
C3631 H3647 0.960 . S
H3632 C3616 0.931 . S
H3633 C3621 0.929 1_545 S
H3634 C3622 0.960 . S
H3635 C3622 0.962 . S
H3636 C3622 0.960 . S
H3637 C3623 0.961 . S
H3638 C3623 0.961 . S
H3639 C3623 0.961 . S
H3640 C3624 0.931 . S
H3641 C3629 0.930 . S
H3642 C3630 0.956 . S
H3643 C3630 0.961 . S
H3644 C3630 0.961 . S
H3645 C3631 0.958 . S
H3646 C3631 0.961 . S
H3647 C3631 0.960 . S
C3648 C3649 1.391 . S
C3648 C3650 1.394 . S
C3648 H3664 0.931 . S
C3649 C3648 1.391 . S
C3649 C3653 1.381 . S
C3650 C3648 1.394 . S
C3650 C3651 1.369 . S
C3650 C3654 1.531 . S
C3651 C3650 1.369 . S
C3651 C3652 1.410 . S
C3651 C3659 1.503 . S
C3652 C3651 1.410 . S
C3652 C3653 1.391 . S
C3652 C3655 1.511 1_564 S
C3653 C3649 1.381 . S
C3653 C3652 1.391 . S
C3653 H3665 0.925 1_554 S
C3654 C3650 1.531 . S
C3654 H3666 0.960 . S
C3654 H3667 0.962 . S
C3654 H3668 0.960 . S
C3655 C3652 1.511 1_546 S
C3655 H3669 0.958 1_556 S
C3655 H3670 0.961 1_556 S
C3655 H3671 0.961 . S
C3656 C3657 1.370 . S
C3656 C3658 1.363 . S
C3656 H3672 0.931 . S
C3657 C3656 1.370 . S
C3657 C3661 1.408 . S
C3658 C3656 1.363 . S
C3658 C3659 1.370 1_545 S
C3658 C3662 1.524 . S
C3659 C3651 1.503 . S
C3659 C3658 1.370 1_565 S
C3659 C3660 1.403 1_554 S
C3660 C3659 1.403 1_556 S
C3660 C3661 1.404 1_566 S
C3660 C3663 1.539 . S
C3661 C3657 1.408 . S
C3661 C3660 1.404 1_544 S
C3661 H3673 0.930 1_554 S
C3662 C3658 1.524 . S
C3662 H3674 0.956 1_545 S
C3662 H3675 0.961 . S
C3662 H3676 0.961 . S
C3663 C3660 1.539 . S
C3663 H3677 0.958 . S
C3663 H3678 0.961 . S
C3663 H3679 0.960 . S
H3664 C3648 0.931 . S
H3665 C3653 0.925 1_556 S
H3666 C3654 0.960 . S
H3667 C3654 0.962 . S
H3668 C3654 0.960 . S
H3669 C3655 0.958 1_554 S
H3670 C3655 0.961 1_554 S
H3671 C3655 0.961 . S
H3672 C3656 0.931 . S
H3673 C3661 0.930 1_556 S
H3674 C3662 0.956 1_565 S
H3675 C3662 0.961 . S
H3676 C3662 0.961 . S
H3677 C3663 0.958 . S
H3678 C3663 0.961 . S
H3679 C3663 0.960 . S
C3680 C3681 1.391 . S
C3680 C3682 1.394 . S
C3680 H3696 0.931 . S
C3681 C3680 1.391 . S
C3681 C3685 1.376 . S
C3682 C3680 1.394 . S
C3682 C3683 1.369 . S
C3682 C3686 1.531 . S
C3683 C3682 1.369 . S
C3683 C3684 1.410 . S
C3683 C3691 1.503 . S
C3684 C3683 1.410 . S
C3684 C3685 1.392 . S
C3684 C3687 1.511 . S
C3685 C3681 1.376 . S
C3685 C3684 1.392 . S
C3685 H3697 0.929 . S
C3686 C3682 1.531 . S
C3686 H3698 0.960 . S
C3686 H3699 0.962 . S
C3686 H3700 0.960 . S
C3687 C3684 1.511 . S
C3687 H3701 0.961 . S
C3687 H3702 0.961 . S
C3687 H3703 0.961 . S
C3688 C3689 1.370 . S
C3688 C3690 1.363 . S
C3688 H3704 0.931 . S
C3689 C3688 1.370 . S
C3689 C3693 1.408 . S
C3690 C3688 1.363 . S
C3690 C3691 1.370 . S
C3690 C3694 1.524 . S
C3691 C3683 1.503 . S
C3691 C3690 1.370 . S
C3691 C3692 1.403 . S
C3692 C3691 1.403 . S
C3692 C3693 1.404 . S
C3692 C3695 1.539 . S
C3693 C3689 1.408 . S
C3693 C3692 1.404 . S
C3693 H3705 0.930 . S
C3694 C3690 1.524 . S
C3694 H3706 0.956 . S
C3694 H3707 0.961 . S
C3694 H3708 0.961 . S
C3695 C3692 1.539 . S
C3695 H3709 0.958 . S
C3695 H3710 0.961 . S
C3695 H3711 0.960 . S
H3696 C3680 0.931 . S
H3697 C3685 0.929 . S
H3698 C3686 0.960 . S
H3699 C3686 0.962 . S
H3700 C3686 0.960 . S
H3701 C3687 0.961 . S
H3702 C3687 0.961 . S
H3703 C3687 0.961 . S
H3704 C3688 0.931 . S
H3705 C3693 0.930 . S
H3706 C3694 0.956 . S
H3707 C3694 0.961 . S
H3708 C3694 0.961 . S
H3709 C3695 0.958 . S
H3710 C3695 0.961 . S
H3711 C3695 0.960 . S
C3712 C3713 1.391 . S
C3712 C3714 1.394 . S
C3712 H3728 0.931 . S
C3713 C3712 1.391 . S
C3713 C3717 1.376 . S
C3714 C3712 1.394 . S
C3714 C3715 1.369 . S
C3714 C3718 1.531 . S
C3715 C3714 1.369 . S
C3715 C3716 1.410 . S
C3715 C3723 1.503 . S
C3716 C3715 1.410 . S
C3716 C3717 1.392 . S
C3716 C3719 1.511 . S
C3717 C3713 1.376 . S
C3717 C3716 1.392 . S
C3717 H3729 0.929 . S
C3718 C3714 1.531 . S
C3718 H3730 0.960 . S
C3718 H3731 0.962 . S
C3718 H3732 0.960 . S
C3719 C3716 1.511 . S
C3719 H3733 0.961 . S
C3719 H3734 0.961 . S
C3719 H3735 0.961 . S
C3720 C3721 1.370 . S
C3720 C3722 1.363 . S
C3720 H3736 0.931 . S
C3721 C3720 1.370 . S
C3721 C3725 1.408 . S
C3722 C3720 1.363 . S
C3722 C3723 1.370 . S
C3722 C3726 1.524 . S
C3723 C3715 1.503 . S
C3723 C3722 1.370 . S
C3723 C3724 1.403 . S
C3724 C3723 1.403 . S
C3724 C3725 1.404 . S
C3724 C3727 1.539 . S
C3725 C3721 1.408 . S
C3725 C3724 1.404 . S
C3725 H3737 0.930 . S
C3726 C3722 1.524 . S
C3726 H3738 0.956 . S
C3726 H3739 0.961 . S
C3726 H3740 0.952 1_554 S
C3727 C3724 1.539 . S
C3727 H3741 0.958 . S
C3727 H3742 0.961 . S
C3727 H3743 0.960 . S
H3728 C3712 0.931 . S
H3729 C3717 0.929 . S
H3730 C3718 0.960 . S
H3731 C3718 0.962 . S
H3732 C3718 0.960 . S
H3733 C3719 0.961 . S
H3734 C3719 0.961 . S
H3735 C3719 0.961 . S
H3736 C3720 0.931 . S
H3737 C3725 0.930 . S
H3738 C3726 0.956 . S
H3739 C3726 0.961 . S
H3740 C3726 0.952 1_556 S
H3741 C3727 0.958 . S
H3742 C3727 0.961 . S
H3743 C3727 0.960 . S
C3744 C3745 1.391 . S
C3744 C3746 1.394 . S
C3744 H3760 0.931 . S
C3745 C3744 1.391 . S
C3745 C3749 1.376 . S
C3746 C3744 1.394 . S
C3746 C3747 1.369 . S
C3746 C3750 1.531 . S
C3747 C3746 1.369 . S
C3747 C3748 1.410 . S
C3747 C3755 1.503 . S
C3748 C3747 1.410 . S
C3748 C3749 1.392 . S
C3748 C3751 1.511 . S
C3749 C3745 1.376 . S
C3749 C3748 1.392 . S
C3749 H3761 0.929 . S
C3750 C3746 1.531 . S
C3750 H3762 0.960 . S
C3750 H3763 0.962 . S
C3750 H3764 0.960 . S
C3751 C3748 1.511 . S
C3751 H3765 0.961 . S
C3751 H3766 0.961 . S
C3751 H3767 0.961 . S
C3752 C3753 1.370 . S
C3752 C3754 1.363 . S
C3752 H3768 0.931 . S
C3753 C3752 1.370 . S
C3753 C3757 1.408 . S
C3754 C3752 1.363 . S
C3754 C3755 1.370 . S
C3754 C3758 1.524 . S
C3755 C3747 1.503 . S
C3755 C3754 1.370 . S
C3755 C3756 1.403 . S
C3756 C3755 1.403 . S
C3756 C3757 1.404 . S
C3756 C3759 1.539 . S
C3757 C3753 1.408 . S
C3757 C3756 1.404 . S
C3757 H3769 0.930 . S
C3758 C3754 1.524 . S
C3758 H3770 0.956 . S
C3758 H3771 0.961 . S
C3758 H3772 0.961 . S
C3759 C3756 1.539 . S
C3759 H3773 0.958 . S
C3759 H3774 0.961 . S
C3759 H3775 0.960 . S
H3760 C3744 0.931 . S
H3761 C3749 0.929 . S
H3762 C3750 0.960 . S
H3763 C3750 0.962 . S
H3764 C3750 0.960 . S
H3765 C3751 0.961 . S
H3766 C3751 0.961 . S
H3767 C3751 0.961 . S
H3768 C3752 0.931 . S
H3769 C3757 0.930 . S
H3770 C3758 0.956 . S
H3771 C3758 0.961 . S
H3772 C3758 0.961 . S
H3773 C3759 0.958 . S
H3774 C3759 0.961 . S
H3775 C3759 0.960 . S
C3776 C3777 1.391 . S
C3776 C3778 1.394 . S
C3776 H3792 0.931 . S
C3777 C3776 1.391 . S
C3777 C3781 1.376 . S
C3778 C3776 1.394 . S
C3778 C3779 1.369 . S
C3778 C3782 1.531 . S
C3779 C3778 1.369 . S
C3779 C3780 1.410 . S
C3779 C3787 1.503 . S
C3780 C3779 1.410 . S
C3780 C3781 1.392 . S
C3780 C3783 1.511 . S
C3781 C3777 1.376 . S
C3781 C3780 1.392 . S
C3781 H3793 0.929 . S
C3782 C3778 1.531 . S
C3782 H3794 0.960 . S
C3782 H3795 0.962 . S
C3782 H3796 0.960 . S
C3783 C3780 1.511 . S
C3783 H3797 0.961 . S
C3783 H3798 0.961 . S
C3783 H3799 0.961 . S
C3784 C3785 1.370 . S
C3784 C3786 1.363 . S
C3784 H3800 0.931 . S
C3785 C3784 1.370 . S
C3785 C3789 1.408 . S
C3786 C3784 1.363 . S
C3786 C3787 1.370 . S
C3786 C3790 1.524 . S
C3787 C3779 1.503 . S
C3787 C3786 1.370 . S
C3787 C3788 1.403 . S
C3788 C3787 1.403 . S
C3788 C3789 1.404 . S
C3788 C3791 1.539 . S
C3789 C3785 1.408 . S
C3789 C3788 1.404 . S
C3789 H3801 0.930 . S
C3790 C3786 1.524 . S
C3790 H3802 0.956 . S
C3790 H3803 0.961 . S
C3790 H3804 0.961 . S
C3791 C3788 1.539 . S
C3791 H3805 0.958 . S
C3791 H3806 0.961 . S
C3791 H3807 0.960 . S
H3792 C3776 0.931 . S
H3793 C3781 0.929 . S
H3794 C3782 0.960 . S
H3795 C3782 0.962 . S
H3796 C3782 0.960 . S
H3797 C3783 0.961 . S
H3798 C3783 0.961 . S
H3799 C3783 0.961 . S
H3800 C3784 0.931 . S
H3801 C3789 0.930 . S
H3802 C3790 0.956 . S
H3803 C3790 0.961 . S
H3804 C3790 0.961 . S
H3805 C3791 0.958 . S
H3806 C3791 0.961 . S
H3807 C3791 0.960 . S
C3808 C3809 1.391 . S
C3808 C3810 1.394 . S
C3808 H3824 0.931 . S
C3809 C3808 1.391 . S
C3809 C3813 1.376 . S
C3810 C3808 1.394 . S
C3810 C3811 1.369 . S
C3810 C3814 1.531 . S
C3811 C3810 1.369 . S
C3811 C3812 1.410 . S
C3811 C3819 1.503 . S
C3812 C3811 1.410 . S
C3812 C3813 1.392 . S
C3812 C3815 1.511 . S
C3813 C3809 1.376 . S
C3813 C3812 1.392 . S
C3813 H3825 0.929 . S
C3814 C3810 1.531 . S
C3814 H3826 0.960 . S
C3814 H3827 0.962 . S
C3814 H3828 0.960 . S
C3815 C3812 1.511 . S
C3815 H3829 0.961 . S
C3815 H3830 0.961 . S
C3815 H3831 0.961 . S
C3816 C3817 1.370 . S
C3816 C3818 1.363 . S
C3816 H3832 0.931 . S
C3817 C3816 1.370 . S
C3817 C3821 1.408 . S
C3818 C3816 1.363 . S
C3818 C3819 1.370 . S
C3818 C3822 1.524 . S
C3819 C3811 1.503 . S
C3819 C3818 1.370 . S
C3819 C3820 1.403 . S
C3820 C3819 1.403 . S
C3820 C3821 1.404 . S
C3820 C3823 1.539 . S
C3821 C3817 1.408 . S
C3821 C3820 1.404 . S
C3821 H3833 0.930 . S
C3822 C3818 1.524 . S
C3822 H3834 0.956 . S
C3822 H3835 0.961 . S
C3822 H3836 0.961 . S
C3823 C3820 1.539 . S
C3823 H3837 0.958 . S
C3823 H3838 0.961 . S
C3823 H3839 0.960 . S
H3824 C3808 0.931 . S
H3825 C3813 0.929 . S
H3826 C3814 0.960 . S
H3827 C3814 0.962 . S
H3828 C3814 0.960 . S
H3829 C3815 0.961 . S
H3830 C3815 0.961 . S
H3831 C3815 0.961 . S
H3832 C3816 0.931 . S
H3833 C3821 0.930 . S
H3834 C3822 0.956 . S
H3835 C3822 0.961 . S
H3836 C3822 0.961 . S
H3837 C3823 0.958 . S
H3838 C3823 0.961 . S
H3839 C3823 0.960 . S
C3840 C3841 1.391 . S
C3840 C3842 1.394 . S
C3840 H3856 0.931 . S
C3841 C3840 1.391 . S
C3841 C3845 1.376 . S
C3842 C3840 1.394 . S
C3842 C3843 1.369 . S
C3842 C3846 1.531 . S
C3843 C3842 1.369 . S
C3843 C3844 1.410 . S
C3843 C3851 1.503 . S
C3844 C3843 1.410 . S
C3844 C3845 1.392 . S
C3844 C3847 1.511 . S
C3845 C3841 1.376 . S
C3845 C3844 1.392 . S
C3845 H3857 0.929 . S
C3846 C3842 1.531 . S
C3846 H3858 0.960 . S
C3846 H3859 0.962 . S
C3846 H3860 0.960 . S
C3847 C3844 1.511 . S
C3847 H3861 0.961 . S
C3847 H3862 0.961 . S
C3847 H3863 0.961 . S
C3848 C3849 1.370 . S
C3848 C3850 1.363 . S
C3848 H3864 0.931 . S
C3849 C3848 1.370 . S
C3849 C3853 1.408 . S
C3850 C3848 1.363 . S
C3850 C3851 1.370 . S
C3850 C3854 1.524 . S
C3851 C3843 1.503 . S
C3851 C3850 1.370 . S
C3851 C3852 1.403 . S
C3852 C3851 1.403 . S
C3852 C3853 1.404 . S
C3852 C3855 1.539 . S
C3853 C3849 1.408 . S
C3853 C3852 1.404 . S
C3853 H3865 0.930 . S
C3854 C3850 1.524 . S
C3854 H3866 0.956 . S
C3854 H3867 0.961 . S
C3854 H3868 0.961 . S
C3855 C3852 1.539 . S
C3855 H3869 0.958 . S
C3855 H3870 0.961 . S
C3855 H3871 0.960 . S
H3856 C3840 0.931 . S
H3857 C3845 0.929 . S
H3858 C3846 0.960 . S
H3859 C3846 0.962 . S
H3860 C3846 0.960 . S
H3861 C3847 0.961 . S
H3862 C3847 0.961 . S
H3863 C3847 0.961 . S
H3864 C3848 0.931 . S
H3865 C3853 0.930 . S
H3866 C3854 0.956 . S
H3867 C3854 0.961 . S
H3868 C3854 0.961 . S
H3869 C3855 0.958 . S
H3870 C3855 0.961 . S
H3871 C3855 0.960 . S
C3872 C3873 1.391 . S
C3872 C3874 1.394 . S
C3872 H3888 0.931 . S
C3873 C3872 1.391 . S
C3873 C3877 1.376 . S
C3874 C3872 1.394 . S
C3874 C3875 1.369 . S
C3874 C3878 1.531 . S
C3875 C3874 1.369 . S
C3875 C3876 1.410 . S
C3875 C3883 1.503 . S
C3876 C3875 1.410 . S
C3876 C3877 1.392 . S
C3876 C3879 1.511 . S
C3877 C3873 1.376 . S
C3877 C3876 1.392 . S
C3877 H3889 0.929 . S
C3878 C3874 1.531 . S
C3878 H3890 0.960 . S
C3878 H3891 0.962 . S
C3878 H3892 0.960 . S
C3879 C3876 1.511 . S
C3879 H3893 0.961 . S
C3879 H3894 0.961 . S
C3879 H3895 0.961 . S
C3880 C3881 1.370 . S
C3880 C3882 1.363 . S
C3880 H3896 0.931 . S
C3881 C3880 1.370 . S
C3881 C3885 1.408 . S
C3882 C3880 1.363 . S
C3882 C3883 1.370 . S
C3882 C3886 1.524 . S
C3883 C3875 1.503 . S
C3883 C3882 1.370 . S
C3883 C3884 1.403 . S
C3884 C3883 1.403 . S
C3884 C3885 1.404 . S
C3884 C3887 1.539 . S
C3885 C3881 1.408 . S
C3885 C3884 1.404 . S
C3885 H3897 0.930 . S
C3886 C3882 1.524 . S
C3886 H3898 0.956 . S
C3886 H3899 0.961 . S
C3886 H3900 0.961 1_455 S
C3887 C3884 1.539 . S
C3887 H3901 0.958 . S
C3887 H3902 0.961 . S
C3887 H3903 0.960 . S
H3888 C3872 0.931 . S
H3889 C3877 0.929 . S
H3890 C3878 0.960 . S
H3891 C3878 0.962 . S
H3892 C3878 0.960 . S
H3893 C3879 0.961 . S
H3894 C3879 0.961 . S
H3895 C3879 0.961 . S
H3896 C3880 0.931 . S
H3897 C3885 0.930 . S
H3898 C3886 0.956 . S
H3899 C3886 0.961 . S
H3900 C3886 0.961 1_655 S
H3901 C3887 0.958 . S
H3902 C3887 0.961 . S
H3903 C3887 0.960 . S
C3904 C3905 1.391 . S
C3904 C3906 1.394 . S
C3904 H3920 0.931 . S
C3905 C3904 1.391 . S
C3905 C3909 1.376 . S
C3906 C3904 1.394 . S
C3906 C3907 1.369 . S
C3906 C3910 1.531 . S
C3907 C3906 1.369 . S
C3907 C3908 1.410 . S
C3907 C3915 1.503 . S
C3908 C3907 1.410 . S
C3908 C3909 1.392 . S
C3908 C3911 1.511 . S
C3909 C3905 1.376 . S
C3909 C3908 1.392 . S
C3909 H3921 0.929 . S
C3910 C3906 1.531 . S
C3910 H3922 0.960 . S
C3910 H3923 0.962 . S
C3910 H3924 0.960 . S
C3911 C3908 1.511 . S
C3911 H3925 0.961 . S
C3911 H3926 0.961 . S
C3911 H3927 0.961 . S
C3912 C3913 1.370 . S
C3912 C3914 1.363 . S
C3912 H3928 0.931 . S
C3913 C3912 1.370 . S
C3913 C3917 1.408 . S
C3914 C3912 1.363 . S
C3914 C3915 1.370 . S
C3914 C3918 1.524 . S
C3915 C3907 1.503 . S
C3915 C3914 1.370 . S
C3915 C3916 1.403 . S
C3916 C3915 1.403 . S
C3916 C3917 1.404 . S
C3916 C3919 1.539 . S
C3917 C3913 1.408 . S
C3917 C3916 1.404 . S
C3917 H3929 0.930 . S
C3918 C3914 1.524 . S
C3918 H3930 0.956 . S
C3918 H3931 0.961 . S
C3918 H3932 0.961 . S
C3919 C3916 1.539 . S
C3919 H3933 0.958 . S
C3919 H3934 0.961 . S
C3919 H3935 0.960 . S
H3920 C3904 0.931 . S
H3921 C3909 0.929 . S
H3922 C3910 0.960 . S
H3923 C3910 0.962 . S
H3924 C3910 0.960 . S
H3925 C3911 0.961 . S
H3926 C3911 0.961 . S
H3927 C3911 0.961 . S
H3928 C3912 0.931 . S
H3929 C3917 0.930 . S
H3930 C3918 0.956 . S
H3931 C3918 0.961 . S
H3932 C3918 0.961 . S
H3933 C3919 0.958 . S
H3934 C3919 0.961 . S
H3935 C3919 0.960 . S
C3936 C3937 1.391 . S
C3936 C3938 1.394 . S
C3936 H3952 0.931 . S
C3937 C3936 1.391 . S
C3937 C3941 1.376 . S
C3938 C3936 1.394 . S
C3938 C3939 1.369 . S
C3938 C3942 1.531 . S
C3939 C3938 1.369 . S
C3939 C3940 1.410 . S
C3939 C3947 1.503 . S
C3940 C3939 1.410 . S
C3940 C3941 1.392 . S
C3940 C3943 1.511 . S
C3941 C3937 1.376 . S
C3941 C3940 1.392 . S
C3941 H3953 0.929 . S
C3942 C3938 1.531 . S
C3942 H3954 0.960 . S
C3942 H3955 0.962 . S
C3942 H3956 0.960 . S
C3943 C3940 1.511 . S
C3943 H3957 0.961 . S
C3943 H3958 0.961 . S
C3943 H3959 0.961 . S
C3944 C3945 1.370 . S
C3944 C3946 1.363 . S
C3944 H3960 0.931 . S
C3945 C3944 1.370 . S
C3945 C3949 1.408 . S
C3946 C3944 1.363 . S
C3946 C3947 1.370 . S
C3946 C3950 1.524 . S
C3947 C3939 1.503 . S
C3947 C3946 1.370 . S
C3947 C3948 1.403 . S
C3948 C3947 1.403 . S
C3948 C3949 1.404 . S
C3948 C3951 1.539 . S
C3949 C3945 1.408 . S
C3949 C3948 1.404 . S
C3949 H3961 0.930 . S
C3950 C3946 1.524 . S
C3950 H3962 0.956 . S
C3950 H3963 0.961 . S
C3950 H3964 0.961 . S
C3951 C3948 1.539 . S
C3951 H3965 0.958 . S
C3951 H3966 0.961 . S
C3951 H3967 0.960 . S
H3952 C3936 0.931 . S
H3953 C3941 0.929 . S
H3954 C3942 0.960 . S
H3955 C3942 0.962 . S
H3956 C3942 0.960 . S
H3957 C3943 0.961 . S
H3958 C3943 0.961 . S
H3959 C3943 0.961 . S
H3960 C3944 0.931 . S
H3961 C3949 0.930 . S
H3962 C3950 0.956 . S
H3963 C3950 0.961 . S
H3964 C3950 0.961 . S
H3965 C3951 0.958 . S
H3966 C3951 0.961 . S
H3967 C3951 0.960 . S
C3968 C3969 1.391 . S
C3968 C3970 1.394 . S
C3968 H3984 0.931 . S
C3969 C3968 1.391 . S
C3969 C3973 1.376 . S
C3970 C3968 1.394 . S
C3970 C3971 1.369 . S
C3970 C3974 1.531 . S
C3971 C3970 1.369 . S
C3971 C3972 1.410 . S
C3971 C3979 1.503 . S
C3972 C3971 1.410 . S
C3972 C3973 1.392 . S
C3972 C3975 1.511 . S
C3973 C3969 1.376 . S
C3973 C3972 1.392 . S
C3973 H3985 0.929 . S
C3974 C3970 1.531 . S
C3974 H3986 0.960 . S
C3974 H3987 0.962 . S
C3974 H3988 0.960 . S
C3975 C3972 1.511 . S
C3975 H3989 0.961 . S
C3975 H3990 0.961 . S
C3975 H3991 0.961 . S
C3976 C3977 1.370 . S
C3976 C3978 1.363 . S
C3976 H3992 0.931 . S
C3977 C3976 1.370 . S
C3977 C3981 1.408 . S
C3978 C3976 1.363 . S
C3978 C3979 1.370 . S
C3978 C3982 1.524 . S
C3979 C3971 1.503 . S
C3979 C3978 1.370 . S
C3979 C3980 1.403 . S
C3980 C3979 1.403 . S
C3980 C3981 1.404 . S
C3980 C3983 1.539 . S
C3981 C3977 1.408 . S
C3981 C3980 1.404 . S
C3981 H3993 0.930 . S
C3982 C3978 1.524 . S
C3982 H3994 0.956 . S
C3982 H3995 0.961 . S
C3982 H3996 0.961 . S
C3983 C3980 1.539 . S
C3983 H3997 0.958 . S
C3983 H3998 0.961 . S
C3983 H3999 0.960 . S
H3984 C3968 0.931 . S
H3985 C3973 0.929 . S
H3986 C3974 0.960 . S
H3987 C3974 0.962 . S
H3988 C3974 0.960 . S
H3989 C3975 0.961 . S
H3990 C3975 0.961 . S
H3991 C3975 0.961 . S
H3992 C3976 0.931 . S
H3993 C3981 0.930 . S
H3994 C3982 0.956 . S
H3995 C3982 0.961 . S
H3996 C3982 0.961 . S
H3997 C3983 0.958 . S
H3998 C3983 0.961 . S
H3999 C3983 0.960 . S
C4000 C4001 1.391 . S
C4000 C4002 1.394 . S
C4000 H4016 0.931 . S
C4001 C4000 1.391 . S
C4001 C4005 1.376 . S
C4002 C4000 1.394 . S
C4002 C4003 1.369 . S
C4002 C4006 1.531 . S
C4003 C4002 1.369 . S
C4003 C4004 1.410 . S
C4003 C4011 1.503 . S
C4004 C4003 1.410 . S
C4004 C4005 1.392 . S
C4004 C4007 1.511 . S
C4005 C4001 1.376 . S
C4005 C4004 1.392 . S
C4005 H4017 0.929 . S
C4006 C4002 1.531 . S
C4006 H4018 0.960 . S
C4006 H4019 0.962 1_455 S
C4006 H4020 0.960 1_455 S
C4007 C4004 1.511 . S
C4007 H4021 0.961 . S
C4007 H4022 0.961 . S
C4007 H4023 0.961 . S
C4008 C4009 1.370 . S
C4008 C4010 1.363 . S
C4008 H4024 0.931 . S
C4009 C4008 1.370 . S
C4009 C4013 1.408 . S
C4010 C4008 1.363 . S
C4010 C4011 1.370 . S
C4010 C4014 1.524 . S
C4011 C4003 1.503 . S
C4011 C4010 1.370 . S
C4011 C4012 1.403 . S
C4012 C4011 1.403 . S
C4012 C4013 1.404 . S
C4012 C4015 1.539 . S
C4013 C4009 1.408 . S
C4013 C4012 1.404 . S
C4013 H4025 0.930 . S
C4014 C4010 1.524 . S
C4014 H4026 0.956 . S
C4014 H4027 0.961 . S
C4014 H4028 0.961 . S
C4015 C4012 1.539 . S
C4015 H4029 0.958 . S
C4015 H4030 0.961 . S
C4015 H4031 0.960 . S
H4016 C4000 0.931 . S
H4017 C4005 0.929 . S
H4018 C4006 0.960 . S
H4019 C4006 0.962 1_655 S
H4020 C4006 0.960 1_655 S
H4021 C4007 0.961 . S
H4022 C4007 0.961 . S
H4023 C4007 0.961 . S
H4024 C4008 0.931 . S
H4025 C4013 0.930 . S
H4026 C4014 0.956 . S
H4027 C4014 0.961 . S
H4028 C4014 0.961 . S
H4029 C4015 0.958 . S
H4030 C4015 0.961 . S
H4031 C4015 0.960 . S
C4032 C4033 1.391 . S
C4032 C4034 1.394 . S
C4032 H4048 0.931 . S
C4033 C4032 1.391 . S
C4033 C4037 1.376 . S
C4034 C4032 1.394 . S
C4034 C4035 1.369 . S
C4034 C4038 1.531 . S
C4035 C4034 1.369 . S
C4035 C4036 1.410 . S
C4035 C4043 1.503 . S
C4036 C4035 1.410 . S
C4036 C4037 1.392 . S
C4036 C4039 1.511 . S
C4037 C4033 1.376 . S
C4037 C4036 1.392 . S
C4037 H4049 0.929 . S
C4038 C4034 1.531 . S
C4038 H4050 0.960 . S
C4038 H4051 0.962 . S
C4038 H4052 0.960 . S
C4039 C4036 1.511 . S
C4039 H4053 0.961 . S
C4039 H4054 0.961 . S
C4039 H4055 0.961 . S
C4040 C4041 1.370 . S
C4040 C4042 1.363 . S
C4040 H4056 0.931 . S
C4041 C4040 1.370 . S
C4041 C4045 1.408 . S
C4042 C4040 1.363 . S
C4042 C4043 1.370 . S
C4042 C4046 1.524 . S
C4043 C4035 1.503 . S
C4043 C4042 1.370 . S
C4043 C4044 1.403 . S
C4044 C4043 1.403 . S
C4044 C4045 1.404 . S
C4044 C4047 1.539 . S
C4045 C4041 1.408 . S
C4045 C4044 1.404 . S
C4045 H4057 0.930 . S
C4046 C4042 1.524 . S
C4046 H4058 0.956 . S
C4046 H4059 0.961 . S
C4046 H4060 0.961 . S
C4047 C4044 1.539 . S
C4047 H4061 0.958 . S
C4047 H4062 0.961 . S
C4047 H4063 0.960 . S
H4048 C4032 0.931 . S
H4049 C4037 0.929 . S
H4050 C4038 0.960 . S
H4051 C4038 0.962 . S
H4052 C4038 0.960 . S
H4053 C4039 0.961 . S
H4054 C4039 0.961 . S
H4055 C4039 0.961 . S
H4056 C4040 0.931 . S
H4057 C4045 0.930 . S
H4058 C4046 0.956 . S
H4059 C4046 0.961 . S
H4060 C4046 0.961 . S
H4061 C4047 0.958 . S
H4062 C4047 0.961 . S
H4063 C4047 0.960 . S
C4064 C4065 1.391 . S
C4064 C4066 1.394 . S
C4064 H4080 0.931 . S
C4065 C4064 1.391 . S
C4065 C4069 1.376 . S
C4066 C4064 1.394 . S
C4066 C4067 1.369 . S
C4066 C4070 1.531 . S
C4067 C4066 1.369 . S
C4067 C4068 1.410 . S
C4067 C4075 1.503 . S
C4068 C4067 1.410 . S
C4068 C4069 1.392 . S
C4068 C4071 1.511 . S
C4069 C4065 1.376 . S
C4069 C4068 1.392 . S
C4069 H4081 0.929 . S
C4070 C4066 1.531 . S
C4070 H4082 0.960 . S
C4070 H4083 0.962 . S
C4070 H4084 0.960 . S
C4071 C4068 1.511 . S
C4071 H4085 0.961 . S
C4071 H4086 0.961 . S
C4071 H4087 0.961 . S
C4072 C4073 1.370 . S
C4072 C4074 1.363 . S
C4072 H4088 0.931 . S
C4073 C4072 1.370 . S
C4073 C4077 1.408 . S
C4074 C4072 1.363 . S
C4074 C4075 1.370 . S
C4074 C4078 1.524 . S
C4075 C4067 1.503 . S
C4075 C4074 1.370 . S
C4075 C4076 1.403 . S
C4076 C4075 1.403 . S
C4076 C4077 1.404 . S
C4076 C4079 1.539 . S
C4077 C4073 1.408 . S
C4077 C4076 1.404 . S
C4077 H4089 0.930 . S
C4078 C4074 1.524 . S
C4078 H4090 0.956 . S
C4078 H4091 0.961 . S
C4078 H4092 0.961 . S
C4079 C4076 1.539 . S
C4079 H4093 0.958 . S
C4079 H4094 0.961 . S
C4079 H4095 0.960 . S
H4080 C4064 0.931 . S
H4081 C4069 0.929 . S
H4082 C4070 0.960 . S
H4083 C4070 0.962 . S
H4084 C4070 0.960 . S
H4085 C4071 0.961 . S
H4086 C4071 0.961 . S
H4087 C4071 0.961 . S
H4088 C4072 0.931 . S
H4089 C4077 0.930 . S
H4090 C4078 0.956 . S
H4091 C4078 0.961 . S
H4092 C4078 0.961 . S
H4093 C4079 0.958 . S
H4094 C4079 0.961 . S
H4095 C4079 0.960 . S
C4096 C4097 1.391 . S
C4096 C4098 1.394 . S
C4096 H4112 0.931 . S
C4097 C4096 1.391 . S
C4097 C4101 1.376 . S
C4098 C4096 1.394 . S
C4098 C4099 1.369 . S
C4098 C4102 1.531 . S
C4099 C4098 1.369 . S
C4099 C4100 1.410 . S
C4099 C4107 1.503 . S
C4100 C4099 1.410 . S
C4100 C4101 1.392 . S
C4100 C4103 1.511 . S
C4101 C4097 1.376 . S
C4101 C4100 1.392 . S
C4101 H4113 0.929 . S
C4102 C4098 1.531 . S
C4102 H4114 0.960 . S
C4102 H4115 0.962 . S
C4102 H4116 0.960 . S
C4103 C4100 1.511 . S
C4103 H4117 0.961 . S
C4103 H4118 0.961 . S
C4103 H4119 0.961 . S
C4104 C4105 1.370 . S
C4104 C4106 1.363 . S
C4104 H4120 0.931 . S
C4105 C4104 1.370 . S
C4105 C4109 1.408 . S
C4106 C4104 1.363 . S
C4106 C4107 1.370 . S
C4106 C4110 1.524 . S
C4107 C4099 1.503 . S
C4107 C4106 1.370 . S
C4107 C4108 1.403 . S
C4108 C4107 1.403 . S
C4108 C4109 1.404 . S
C4108 C4111 1.539 . S
C4109 C4105 1.408 . S
C4109 C4108 1.404 . S
C4109 H4121 0.930 . S
C4110 C4106 1.524 . S
C4110 H4122 0.956 . S
C4110 H4123 0.961 . S
C4110 H4124 0.961 . S
C4111 C4108 1.539 . S
C4111 H4125 0.958 . S
C4111 H4126 0.961 . S
C4111 H4127 0.960 . S
H4112 C4096 0.931 . S
H4113 C4101 0.929 . S
H4114 C4102 0.960 . S
H4115 C4102 0.962 . S
H4116 C4102 0.960 . S
H4117 C4103 0.961 . S
H4118 C4103 0.961 . S
H4119 C4103 0.961 . S
H4120 C4104 0.931 . S
H4121 C4109 0.930 . S
H4122 C4110 0.956 . S
H4123 C4110 0.961 . S
H4124 C4110 0.961 . S
H4125 C4111 0.958 . S
H4126 C4111 0.961 . S
H4127 C4111 0.960 . S
C4128 C4129 1.391 . S
C4128 C4130 1.394 . S
C4128 H4144 0.931 . S
C4129 C4128 1.391 . S
C4129 C4133 1.376 . S
C4130 C4128 1.394 . S
C4130 C4131 1.369 . S
C4130 C4134 1.531 . S
C4131 C4130 1.369 . S
C4131 C4132 1.410 . S
C4131 C4139 1.503 . S
C4132 C4131 1.410 . S
C4132 C4133 1.392 . S
C4132 C4135 1.511 . S
C4133 C4129 1.376 . S
C4133 C4132 1.392 . S
C4133 H4145 0.929 . S
C4134 C4130 1.531 . S
C4134 H4146 0.960 . S
C4134 H4147 0.962 . S
C4134 H4148 0.960 . S
C4135 C4132 1.511 . S
C4135 H4149 0.961 . S
C4135 H4150 0.961 . S
C4135 H4151 0.961 . S
C4136 C4137 1.370 . S
C4136 C4138 1.363 1_455 S
C4136 H4152 0.931 . S
C4137 C4136 1.370 . S
C4137 C4141 1.408 1_455 S
C4138 C4136 1.363 1_655 S
C4138 C4139 1.370 . S
C4138 C4142 1.524 . S
C4139 C4131 1.503 . S
C4139 C4138 1.370 . S
C4139 C4140 1.403 . S
C4140 C4139 1.403 . S
C4140 C4141 1.404 . S
C4140 C4143 1.539 . S
C4141 C4137 1.408 1_655 S
C4141 C4140 1.404 . S
C4141 H4153 0.930 . S
C4142 C4138 1.524 . S
C4142 H4154 0.956 . S
C4142 H4155 0.961 . S
C4142 H4156 0.961 1_655 S
C4143 C4140 1.539 . S
C4143 H4157 0.958 . S
C4143 H4158 0.961 . S
C4143 H4159 0.960 . S
H4144 C4128 0.931 . S
H4145 C4133 0.929 . S
H4146 C4134 0.960 . S
H4147 C4134 0.962 . S
H4148 C4134 0.960 . S
H4149 C4135 0.961 . S
H4150 C4135 0.961 . S
H4151 C4135 0.961 . S
H4152 C4136 0.931 . S
H4153 C4141 0.930 . S
H4154 C4142 0.956 . S
H4155 C4142 0.961 . S
H4156 C4142 0.961 1_455 S
H4157 C4143 0.958 . S
H4158 C4143 0.961 . S
H4159 C4143 0.960 . S
C4160 C4161 1.391 . S
C4160 C4162 1.394 . S
C4160 H4176 0.931 . S
C4161 C4160 1.391 . S
C4161 C4165 1.376 . S
C4162 C4160 1.394 . S
C4162 C4163 1.369 . S
C4162 C4166 1.531 . S
C4163 C4162 1.369 . S
C4163 C4164 1.410 . S
C4163 C4171 1.503 . S
C4164 C4163 1.410 . S
C4164 C4165 1.392 . S
C4164 C4167 1.511 . S
C4165 C4161 1.376 . S
C4165 C4164 1.392 . S
C4165 H4177 0.929 . S
C4166 C4162 1.531 . S
C4166 H4178 0.960 . S
C4166 H4179 0.962 . S
C4166 H4180 0.960 . S
C4167 C4164 1.511 . S
C4167 H4181 0.961 . S
C4167 H4182 0.961 . S
C4167 H4183 0.961 . S
C4168 C4169 1.370 . S
C4168 C4170 1.363 . S
C4168 H4184 0.931 . S
C4169 C4168 1.370 . S
C4169 C4173 1.408 . S
C4170 C4168 1.363 . S
C4170 C4171 1.370 . S
C4170 C4174 1.524 . S
C4171 C4163 1.503 . S
C4171 C4170 1.370 . S
C4171 C4172 1.403 . S
C4172 C4171 1.403 . S
C4172 C4173 1.404 . S
C4172 C4175 1.539 . S
C4173 C4169 1.408 . S
C4173 C4172 1.404 . S
C4173 H4185 0.930 . S
C4174 C4170 1.524 . S
C4174 H4186 0.956 . S
C4174 H4187 0.961 . S
C4174 H4188 0.961 . S
C4175 C4172 1.539 . S
C4175 H4189 0.958 . S
C4175 H4190 0.961 . S
C4175 H4191 0.960 . S
H4176 C4160 0.931 . S
H4177 C4165 0.929 . S
H4178 C4166 0.960 . S
H4179 C4166 0.962 . S
H4180 C4166 0.960 . S
H4181 C4167 0.961 . S
H4182 C4167 0.961 . S
H4183 C4167 0.961 . S
H4184 C4168 0.931 . S
H4185 C4173 0.930 . S
H4186 C4174 0.956 . S
H4187 C4174 0.961 . S
H4188 C4174 0.961 . S
H4189 C4175 0.958 . S
H4190 C4175 0.961 . S
H4191 C4175 0.960 . S
C4192 C4193 1.391 . S
C4192 C4194 1.394 . S
C4192 H4208 0.931 . S
C4193 C4192 1.391 . S
C4193 C4197 1.376 . S
C4194 C4192 1.394 . S
C4194 C4195 1.369 . S
C4194 C4198 1.531 . S
C4195 C4194 1.369 . S
C4195 C4196 1.410 . S
C4195 C4203 1.503 . S
C4196 C4195 1.410 . S
C4196 C4197 1.392 . S
C4196 C4199 1.511 . S
C4197 C4193 1.376 . S
C4197 C4196 1.392 . S
C4197 H4209 0.929 . S
C4198 C4194 1.531 . S
C4198 H4210 0.960 . S
C4198 H4211 0.962 . S
C4198 H4212 0.960 . S
C4199 C4196 1.511 . S
C4199 H4213 0.961 . S
C4199 H4214 0.961 . S
C4199 H4215 0.961 . S
C4200 C4201 1.370 . S
C4200 C4202 1.363 . S
C4200 H4216 0.931 . S
C4201 C4200 1.370 . S
C4201 C4205 1.408 . S
C4202 C4200 1.363 . S
C4202 C4203 1.370 . S
C4202 C4206 1.524 . S
C4203 C4195 1.503 . S
C4203 C4202 1.370 . S
C4203 C4204 1.403 . S
C4204 C4203 1.403 . S
C4204 C4205 1.404 . S
C4204 C4207 1.539 . S
C4205 C4201 1.408 . S
C4205 C4204 1.404 . S
C4205 H4217 0.930 . S
C4206 C4202 1.524 . S
C4206 H4218 0.956 . S
C4206 H4219 0.961 . S
C4206 H4220 0.961 . S
C4207 C4204 1.539 . S
C4207 H4221 0.958 . S
C4207 H4222 0.961 . S
C4207 H4223 0.960 . S
H4208 C4192 0.931 . S
H4209 C4197 0.929 . S
H4210 C4198 0.960 . S
H4211 C4198 0.962 . S
H4212 C4198 0.960 . S
H4213 C4199 0.961 . S
H4214 C4199 0.961 . S
H4215 C4199 0.961 . S
H4216 C4200 0.931 . S
H4217 C4205 0.930 . S
H4218 C4206 0.956 . S
H4219 C4206 0.961 . S
H4220 C4206 0.961 . S
H4221 C4207 0.958 . S
H4222 C4207 0.961 . S
H4223 C4207 0.960 . S
C4224 C4225 1.391 . S
C4224 C4226 1.394 . S
C4224 H4240 0.931 . S
C4225 C4224 1.391 . S
C4225 C4229 1.376 . S
C4226 C4224 1.394 . S
C4226 C4227 1.369 . S
C4226 C4230 1.531 . S
C4227 C4226 1.369 . S
C4227 C4228 1.410 . S
C4227 C4235 1.503 . S
C4228 C4227 1.410 . S
C4228 C4229 1.392 . S
C4228 C4231 1.511 . S
C4229 C4225 1.376 . S
C4229 C4228 1.392 . S
C4229 H4241 0.929 . S
C4230 C4226 1.531 . S
C4230 H4242 0.960 . S
C4230 H4243 0.962 . S
C4230 H4244 0.960 . S
C4231 C4228 1.511 . S
C4231 H4245 0.961 . S
C4231 H4246 0.961 . S
C4231 H4247 0.961 . S
C4232 C4233 1.370 . S
C4232 C4234 1.363 . S
C4232 H4248 0.931 . S
C4233 C4232 1.370 . S
C4233 C4237 1.408 . S
C4234 C4232 1.363 . S
C4234 C4235 1.370 . S
C4234 C4238 1.524 . S
C4235 C4227 1.503 . S
C4235 C4234 1.370 . S
C4235 C4236 1.403 . S
C4236 C4235 1.403 . S
C4236 C4237 1.404 . S
C4236 C4239 1.539 . S
C4237 C4233 1.408 . S
C4237 C4236 1.404 . S
C4237 H4249 0.930 . S
C4238 C4234 1.524 . S
C4238 H4250 0.956 . S
C4238 H4251 0.961 . S
C4238 H4252 0.961 . S
C4239 C4236 1.539 . S
C4239 H4253 0.958 . S
C4239 H4254 0.961 . S
C4239 H4255 0.960 . S
H4240 C4224 0.931 . S
H4241 C4229 0.929 . S
H4242 C4230 0.960 . S
H4243 C4230 0.962 . S
H4244 C4230 0.960 . S
H4245 C4231 0.961 . S
H4246 C4231 0.961 . S
H4247 C4231 0.961 . S
H4248 C4232 0.931 . S
H4249 C4237 0.930 . S
H4250 C4238 0.956 . S
H4251 C4238 0.961 . S
H4252 C4238 0.961 . S
H4253 C4239 0.958 . S
H4254 C4239 0.961 . S
H4255 C4239 0.960 . S
C4256 C4257 1.391 . S
C4256 C4258 1.394 . S
C4256 H4272 0.931 . S
C4257 C4256 1.391 . S
C4257 C4261 1.376 . S
C4258 C4256 1.394 . S
C4258 C4259 1.369 . S
C4258 C4262 1.531 . S
C4259 C4258 1.369 . S
C4259 C4260 1.410 . S
C4259 C4267 1.503 . S
C4260 C4259 1.410 . S
C4260 C4261 1.392 . S
C4260 C4263 1.511 . S
C4261 C4257 1.376 . S
C4261 C4260 1.392 . S
C4261 H4273 0.929 . S
C4262 C4258 1.531 . S
C4262 H4274 0.960 . S
C4262 H4275 0.962 . S
C4262 H4276 0.960 . S
C4263 C4260 1.511 . S
C4263 H4277 0.961 . S
C4263 H4278 0.961 . S
C4263 H4279 0.961 . S
C4264 C4265 1.370 . S
C4264 C4266 1.363 . S
C4264 H4280 0.931 . S
C4265 C4264 1.370 . S
C4265 C4269 1.408 . S
C4266 C4264 1.363 . S
C4266 C4267 1.370 . S
C4266 C4270 1.524 . S
C4267 C4259 1.503 . S
C4267 C4266 1.370 . S
C4267 C4268 1.403 . S
C4268 C4267 1.403 . S
C4268 C4269 1.404 . S
C4268 C4271 1.539 . S
C4269 C4265 1.408 . S
C4269 C4268 1.404 . S
C4269 H4281 0.930 . S
C4270 C4266 1.524 . S
C4270 H4282 0.956 . S
C4270 H4283 0.961 . S
C4270 H4284 0.961 . S
C4271 C4268 1.539 . S
C4271 H4285 0.958 . S
C4271 H4286 0.961 . S
C4271 H4287 0.960 . S
H4272 C4256 0.931 . S
H4273 C4261 0.929 . S
H4274 C4262 0.960 . S
H4275 C4262 0.962 . S
H4276 C4262 0.960 . S
H4277 C4263 0.961 . S
H4278 C4263 0.961 . S
H4279 C4263 0.961 . S
H4280 C4264 0.931 . S
H4281 C4269 0.930 . S
H4282 C4270 0.956 . S
H4283 C4270 0.961 . S
H4284 C4270 0.961 . S
H4285 C4271 0.958 . S
H4286 C4271 0.961 . S
H4287 C4271 0.960 . S
C4288 C4289 1.391 . S
C4288 C4290 1.394 . S
C4288 H4304 0.931 . S
C4289 C4288 1.391 . S
C4289 C4293 1.376 . S
C4290 C4288 1.394 . S
C4290 C4291 1.369 . S
C4290 C4294 1.531 . S
C4291 C4290 1.369 . S
C4291 C4292 1.410 . S
C4291 C4299 1.503 . S
C4292 C4291 1.410 . S
C4292 C4293 1.392 . S
C4292 C4295 1.511 . S
C4293 C4289 1.376 . S
C4293 C4292 1.392 . S
C4293 H4305 0.929 . S
C4294 C4290 1.531 . S
C4294 H4306 0.960 . S
C4294 H4307 0.962 . S
C4294 H4308 0.960 . S
C4295 C4292 1.511 . S
C4295 H4309 0.961 . S
C4295 H4310 0.961 . S
C4295 H4311 0.961 . S
C4296 C4297 1.370 . S
C4296 C4298 1.363 . S
C4296 H4312 0.931 . S
C4297 C4296 1.370 . S
C4297 C4301 1.408 . S
C4298 C4296 1.363 . S
C4298 C4299 1.370 . S
C4298 C4302 1.524 . S
C4299 C4291 1.503 . S
C4299 C4298 1.370 . S
C4299 C4300 1.403 . S
C4300 C4299 1.403 . S
C4300 C4301 1.404 . S
C4300 C4303 1.539 . S
C4301 C4297 1.408 . S
C4301 C4300 1.404 . S
C4301 H4313 0.930 . S
C4302 C4298 1.524 . S
C4302 H4314 0.956 . S
C4302 H4315 0.961 . S
C4302 H4316 0.961 . S
C4303 C4300 1.539 . S
C4303 H4317 0.958 . S
C4303 H4318 0.961 . S
C4303 H4319 0.960 . S
H4304 C4288 0.931 . S
H4305 C4293 0.929 . S
H4306 C4294 0.960 . S
H4307 C4294 0.962 . S
H4308 C4294 0.960 . S
H4309 C4295 0.961 . S
H4310 C4295 0.961 . S
H4311 C4295 0.961 . S
H4312 C4296 0.931 . S
H4313 C4301 0.930 . S
H4314 C4302 0.956 . S
H4315 C4302 0.961 . S
H4316 C4302 0.961 . S
H4317 C4303 0.958 . S
H4318 C4303 0.961 . S
H4319 C4303 0.960 . S
C4320 C4321 1.391 . S
C4320 C4322 1.394 . S
C4320 H4336 0.931 . S
C4321 C4320 1.391 . S
C4321 C4325 1.376 . S
C4322 C4320 1.394 . S
C4322 C4323 1.369 . S
C4322 C4326 1.531 . S
C4323 C4322 1.369 . S
C4323 C4324 1.410 . S
C4323 C4331 1.503 . S
C4324 C4323 1.410 . S
C4324 C4325 1.392 . S
C4324 C4327 1.511 . S
C4325 C4321 1.376 . S
C4325 C4324 1.392 . S
C4325 H4337 0.929 . S
C4326 C4322 1.531 . S
C4326 H4338 0.960 . S
C4326 H4339 0.962 . S
C4326 H4340 0.960 . S
C4327 C4324 1.511 . S
C4327 H4341 0.961 . S
C4327 H4342 0.961 . S
C4327 H4343 0.961 . S
C4328 C4329 1.370 . S
C4328 C4330 1.363 . S
C4328 H4344 0.931 . S
C4329 C4328 1.370 . S
C4329 C4333 1.408 . S
C4330 C4328 1.363 . S
C4330 C4331 1.370 . S
C4330 C4334 1.524 . S
C4331 C4323 1.503 . S
C4331 C4330 1.370 . S
C4331 C4332 1.403 . S
C4332 C4331 1.403 . S
C4332 C4333 1.404 . S
C4332 C4335 1.539 . S
C4333 C4329 1.408 . S
C4333 C4332 1.404 . S
C4333 H4345 0.930 . S
C4334 C4330 1.524 . S
C4334 H4346 0.956 . S
C4334 H4347 0.961 . S
C4334 H4348 0.961 . S
C4335 C4332 1.539 . S
C4335 H4349 0.958 . S
C4335 H4350 0.961 . S
C4335 H4351 0.960 . S
H4336 C4320 0.931 . S
H4337 C4325 0.929 . S
H4338 C4326 0.960 . S
H4339 C4326 0.962 . S
H4340 C4326 0.960 . S
H4341 C4327 0.961 . S
H4342 C4327 0.961 . S
H4343 C4327 0.961 . S
H4344 C4328 0.931 . S
H4345 C4333 0.930 . S
H4346 C4334 0.956 . S
H4347 C4334 0.961 . S
H4348 C4334 0.961 . S
H4349 C4335 0.958 . S
H4350 C4335 0.961 . S
H4351 C4335 0.960 . S
C4352 C4353 1.391 . S
C4352 C4354 1.394 . S
C4352 H4368 0.931 . S
C4353 C4352 1.391 . S
C4353 C4357 1.376 . S
C4354 C4352 1.394 . S
C4354 C4355 1.369 . S
C4354 C4358 1.531 . S
C4355 C4354 1.369 . S
C4355 C4356 1.410 . S
C4355 C4363 1.503 . S
C4356 C4355 1.410 . S
C4356 C4357 1.392 . S
C4356 C4359 1.511 . S
C4357 C4353 1.376 . S
C4357 C4356 1.392 . S
C4357 H4369 0.929 . S
C4358 C4354 1.531 . S
C4358 H4370 0.960 . S
C4358 H4371 0.962 . S
C4358 H4372 0.960 . S
C4359 C4356 1.511 . S
C4359 H4373 0.961 . S
C4359 H4374 0.961 . S
C4359 H4375 0.961 . S
C4360 C4361 1.360 1_565 S
C4360 C4362 1.363 . S
C4360 H4376 0.931 . S
C4361 C4360 1.360 1_545 S
C4361 C4365 1.406 1_545 S
C4362 C4360 1.363 . S
C4362 C4363 1.370 . S
C4362 C4366 1.524 . S
C4363 C4355 1.503 . S
C4363 C4362 1.370 . S
C4363 C4364 1.403 . S
C4364 C4363 1.403 . S
C4364 C4365 1.404 . S
C4364 C4367 1.539 . S
C4365 C4361 1.406 1_565 S
C4365 C4364 1.404 . S
C4365 H4377 0.930 . S
C4366 C4362 1.524 . S
C4366 H4378 0.956 . S
C4366 H4379 0.961 . S
C4366 H4380 0.961 . S
C4367 C4364 1.539 . S
C4367 H4381 0.958 . S
C4367 H4382 0.961 . S
C4367 H4383 0.960 . S
H4368 C4352 0.931 . S
H4369 C4357 0.929 . S
H4370 C4358 0.960 . S
H4371 C4358 0.962 . S
H4372 C4358 0.960 . S
H4373 C4359 0.961 . S
H4374 C4359 0.961 . S
H4375 C4359 0.961 . S
H4376 C4360 0.931 . S
H4377 C4365 0.930 . S
H4378 C4366 0.956 . S
H4379 C4366 0.961 . S
H4380 C4366 0.961 . S
H4381 C4367 0.958 . S
H4382 C4367 0.961 . S
H4383 C4367 0.960 . S
C4384 C4385 1.391 . S
C4384 C4386 1.394 . S
C4384 H4400 0.931 . S
C4385 C4384 1.391 . S
C4385 C4389 1.376 . S
C4386 C4384 1.394 . S
C4386 C4387 1.369 . S
C4386 C4390 1.531 . S
C4387 C4386 1.369 . S
C4387 C4388 1.410 . S
C4387 C4395 1.503 . S
C4388 C4387 1.410 . S
C4388 C4389 1.392 . S
C4388 C4391 1.511 . S
C4389 C4385 1.376 . S
C4389 C4388 1.392 . S
C4389 H4401 0.929 . S
C4390 C4386 1.531 . S
C4390 H4402 0.960 . S
C4390 H4403 0.962 . S
C4390 H4404 0.960 . S
C4391 C4388 1.511 . S
C4391 H4405 0.961 . S
C4391 H4406 0.961 . S
C4391 H4407 0.961 . S
C4392 C4393 1.370 . S
C4392 C4394 1.363 . S
C4392 H4408 0.931 . S
C4393 C4392 1.370 . S
C4393 C4397 1.408 . S
C4394 C4392 1.363 . S
C4394 C4395 1.370 . S
C4394 C4398 1.524 . S
C4395 C4387 1.503 . S
C4395 C4394 1.370 . S
C4395 C4396 1.403 . S
C4396 C4395 1.403 . S
C4396 C4397 1.404 . S
C4396 C4399 1.539 . S
C4397 C4393 1.408 . S
C4397 C4396 1.404 . S
C4397 H4409 0.930 . S
C4398 C4394 1.524 . S
C4398 H4410 0.956 . S
C4398 H4411 0.961 . S
C4398 H4412 0.961 . S
C4399 C4396 1.539 . S
C4399 H4413 0.958 . S
C4399 H4414 0.961 . S
C4399 H4415 0.960 . S
H4400 C4384 0.931 . S
H4401 C4389 0.929 . S
H4402 C4390 0.960 . S
H4403 C4390 0.962 . S
H4404 C4390 0.960 . S
H4405 C4391 0.961 . S
H4406 C4391 0.961 . S
H4407 C4391 0.961 . S
H4408 C4392 0.931 . S
H4409 C4397 0.930 . S
H4410 C4398 0.956 . S
H4411 C4398 0.961 . S
H4412 C4398 0.961 . S
H4413 C4399 0.958 . S
H4414 C4399 0.961 . S
H4415 C4399 0.960 . S
C4416 C4417 1.391 . S
C4416 C4418 1.394 . S
C4416 H4432 0.931 . S
C4417 C4416 1.391 . S
C4417 C4421 1.376 . S
C4418 C4416 1.394 . S
C4418 C4419 1.369 . S
C4418 C4422 1.531 . S
C4419 C4418 1.369 . S
C4419 C4420 1.410 . S
C4419 C4427 1.503 . S
C4420 C4419 1.410 . S
C4420 C4421 1.392 . S
C4420 C4423 1.511 . S
C4421 C4417 1.376 . S
C4421 C4420 1.392 . S
C4421 H4433 0.929 . S
C4422 C4418 1.531 . S
C4422 H4434 0.960 . S
C4422 H4435 0.962 . S
C4422 H4436 0.960 . S
C4423 C4420 1.511 . S
C4423 H4437 0.961 . S
C4423 H4438 0.961 . S
C4423 H4439 0.961 . S
C4424 C4425 1.370 . S
C4424 C4426 1.363 . S
C4424 H4440 0.931 . S
C4425 C4424 1.370 . S
C4425 C4429 1.408 . S
C4426 C4424 1.363 . S
C4426 C4427 1.370 . S
C4426 C4430 1.524 . S
C4427 C4419 1.503 . S
C4427 C4426 1.370 . S
C4427 C4428 1.403 . S
C4428 C4427 1.403 . S
C4428 C4429 1.404 . S
C4428 C4431 1.539 . S
C4429 C4425 1.408 . S
C4429 C4428 1.404 . S
C4429 H4441 0.930 . S
C4430 C4426 1.524 . S
C4430 H4442 0.956 . S
C4430 H4443 0.961 . S
C4430 H4444 0.961 . S
C4431 C4428 1.539 . S
C4431 H4445 0.958 1_554 S
C4431 H4446 0.961 1_554 S
C4431 H4447 0.960 . S
H4432 C4416 0.931 . S
H4433 C4421 0.929 . S
H4434 C4422 0.960 . S
H4435 C4422 0.962 . S
H4436 C4422 0.960 . S
H4437 C4423 0.961 . S
H4438 C4423 0.961 . S
H4439 C4423 0.961 . S
H4440 C4424 0.931 . S
H4441 C4429 0.930 . S
H4442 C4430 0.956 . S
H4443 C4430 0.961 . S
H4444 C4430 0.961 . S
H4445 C4431 0.958 1_556 S
H4446 C4431 0.961 1_556 S
H4447 C4431 0.960 . S
C4448 C4449 1.391 . S
C4448 C4450 1.394 . S
C4448 H4464 0.931 . S
C4449 C4448 1.391 . S
C4449 C4453 1.376 . S
C4450 C4448 1.394 . S
C4450 C4451 1.369 . S
C4450 C4454 1.531 . S
C4451 C4450 1.369 . S
C4451 C4452 1.410 . S
C4451 C4459 1.503 . S
C4452 C4451 1.410 . S
C4452 C4453 1.392 . S
C4452 C4455 1.511 . S
C4453 C4449 1.376 . S
C4453 C4452 1.392 . S
C4453 H4465 0.929 . S
C4454 C4450 1.531 . S
C4454 H4466 0.960 . S
C4454 H4467 0.962 . S
C4454 H4468 0.960 . S
C4455 C4452 1.511 . S
C4455 H4469 0.961 . S
C4455 H4470 0.961 . S
C4455 H4471 0.961 . S
C4456 C4457 1.370 . S
C4456 C4458 1.363 . S
C4456 H4472 0.931 . S
C4457 C4456 1.370 . S
C4457 C4461 1.408 . S
C4458 C4456 1.363 . S
C4458 C4459 1.370 . S
C4458 C4462 1.524 . S
C4459 C4451 1.503 . S
C4459 C4458 1.370 . S
C4459 C4460 1.403 . S
C4460 C4459 1.403 . S
C4460 C4461 1.404 . S
C4460 C4463 1.539 . S
C4461 C4457 1.408 . S
C4461 C4460 1.404 . S
C4461 H4473 0.930 . S
C4462 C4458 1.524 . S
C4462 H4474 0.956 . S
C4462 H4475 0.961 . S
C4462 H4476 0.961 . S
C4463 C4460 1.539 . S
C4463 H4477 0.958 . S
C4463 H4478 0.961 . S
C4463 H4479 0.960 . S
H4464 C4448 0.931 . S
H4465 C4453 0.929 . S
H4466 C4454 0.960 . S
H4467 C4454 0.962 . S
H4468 C4454 0.960 . S
H4469 C4455 0.961 . S
H4470 C4455 0.961 . S
H4471 C4455 0.961 . S
H4472 C4456 0.931 . S
H4473 C4461 0.930 . S
H4474 C4462 0.956 . S
H4475 C4462 0.961 . S
H4476 C4462 0.961 . S
H4477 C4463 0.958 . S
H4478 C4463 0.961 . S
H4479 C4463 0.960 . S
C4480 C4481 1.391 . S
C4480 C4482 1.394 . S
C4480 H4496 0.931 1_554 S
C4481 C4480 1.391 . S
C4481 C4485 1.376 . S
C4482 C4480 1.394 . S
C4482 C4483 1.369 . S
C4482 C4486 1.531 1_554 S
C4483 C4482 1.369 . S
C4483 C4484 1.410 . S
C4483 C4491 1.503 . S
C4484 C4483 1.410 . S
C4484 C4485 1.392 . S
C4484 C4487 1.511 . S
C4485 C4481 1.376 . S
C4485 C4484 1.392 . S
C4485 H4497 0.929 . S
C4486 C4482 1.531 1_556 S
C4486 H4498 0.960 . S
C4486 H4499 0.962 . S
C4486 H4500 0.960 . S
C4487 C4484 1.511 . S
C4487 H4501 0.961 . S
C4487 H4502 0.961 . S
C4487 H4503 0.961 . S
C4488 C4489 1.370 . S
C4488 C4490 1.363 . S
C4488 H4504 0.931 . S
C4489 C4488 1.370 . S
C4489 C4493 1.408 1_554 S
C4490 C4488 1.363 . S
C4490 C4491 1.370 . S
C4490 C4494 1.524 . S
C4491 C4483 1.503 . S
C4491 C4490 1.370 . S
C4491 C4492 1.403 1_554 S
C4492 C4491 1.403 1_556 S
C4492 C4493 1.404 . S
C4492 C4495 1.539 . S
C4493 C4489 1.408 1_556 S
C4493 C4492 1.404 . S
C4493 H4505 0.930 . S
C4494 C4490 1.524 . S
C4494 H4506 0.956 . S
C4494 H4507 0.961 . S
C4494 H4508 0.961 . S
C4495 C4492 1.539 . S
C4495 H4509 0.958 . S
C4495 H4510 0.961 . S
C4495 H4511 0.960 1_556 S
H4496 C4480 0.931 1_556 S
H4497 C4485 0.929 . S
H4498 C4486 0.960 . S
H4499 C4486 0.962 . S
H4500 C4486 0.960 . S
H4501 C4487 0.961 . S
H4502 C4487 0.961 . S
H4503 C4487 0.961 . S
H4504 C4488 0.931 . S
H4505 C4493 0.930 . S
H4506 C4494 0.956 . S
H4507 C4494 0.961 . S
H4508 C4494 0.961 . S
H4509 C4495 0.958 . S
H4510 C4495 0.961 . S
H4511 C4495 0.960 1_554 S
C4512 C4513 1.391 . S
C4512 C4514 1.394 . S
C4512 H4528 0.931 . S
C4513 C4512 1.391 . S
C4513 C4517 1.376 . S
C4514 C4512 1.394 . S
C4514 C4515 1.369 . S
C4514 C4518 1.531 . S
C4515 C4514 1.369 . S
C4515 C4516 1.410 . S
C4515 C4523 1.503 . S
C4516 C4515 1.410 . S
C4516 C4517 1.392 . S
C4516 C4519 1.511 . S
C4517 C4513 1.376 . S
C4517 C4516 1.392 . S
C4517 H4529 0.929 . S
C4518 C4514 1.531 . S
C4518 H4530 0.960 . S
C4518 H4531 0.962 . S
C4518 H4532 0.960 . S
C4519 C4516 1.511 . S
C4519 H4533 0.961 . S
C4519 H4534 0.961 . S
C4519 H4535 0.961 . S
C4520 C4521 1.370 . S
C4520 C4522 1.363 . S
C4520 H4536 0.931 . S
C4521 C4520 1.370 . S
C4521 C4525 1.408 . S
C4522 C4520 1.363 . S
C4522 C4523 1.370 . S
C4522 C4526 1.524 . S
C4523 C4515 1.503 . S
C4523 C4522 1.370 . S
C4523 C4524 1.403 . S
C4524 C4523 1.403 . S
C4524 C4525 1.404 . S
C4524 C4527 1.539 . S
C4525 C4521 1.408 . S
C4525 C4524 1.404 . S
C4525 H4537 0.930 . S
C4526 C4522 1.524 . S
C4526 H4538 0.956 . S
C4526 H4539 0.961 . S
C4526 H4540 0.961 . S
C4527 C4524 1.539 . S
C4527 H4541 0.958 . S
C4527 H4542 0.961 . S
C4527 H4543 0.960 . S
H4528 C4512 0.931 . S
H4529 C4517 0.929 . S
H4530 C4518 0.960 . S
H4531 C4518 0.962 . S
H4532 C4518 0.960 . S
H4533 C4519 0.961 . S
H4534 C4519 0.961 . S
H4535 C4519 0.961 . S
H4536 C4520 0.931 . S
H4537 C4525 0.930 . S
H4538 C4526 0.956 . S
H4539 C4526 0.961 . S
H4540 C4526 0.961 . S
H4541 C4527 0.958 . S
H4542 C4527 0.961 . S
H4543 C4527 0.960 . S
C4544 C4545 1.391 . S
C4544 C4546 1.394 . S
C4544 H4560 0.931 . S
C4545 C4544 1.391 . S
C4545 C4549 1.376 . S
C4546 C4544 1.394 . S
C4546 C4547 1.369 . S
C4546 C4550 1.531 . S
C4547 C4546 1.369 . S
C4547 C4548 1.410 . S
C4547 C4555 1.503 . S
C4548 C4547 1.410 . S
C4548 C4549 1.392 . S
C4548 C4551 1.511 . S
C4549 C4545 1.376 . S
C4549 C4548 1.392 . S
C4549 H4561 0.929 . S
C4550 C4546 1.531 . S
C4550 H4562 0.960 . S
C4550 H4563 0.962 . S
C4550 H4564 0.960 . S
C4551 C4548 1.511 . S
C4551 H4565 0.961 . S
C4551 H4566 0.961 . S
C4551 H4567 0.961 . S
C4552 C4553 1.370 . S
C4552 C4554 1.363 . S
C4552 H4568 0.931 . S
C4553 C4552 1.370 . S
C4553 C4557 1.408 . S
C4554 C4552 1.363 . S
C4554 C4555 1.370 . S
C4554 C4558 1.524 . S
C4555 C4547 1.503 . S
C4555 C4554 1.370 . S
C4555 C4556 1.403 . S
C4556 C4555 1.403 . S
C4556 C4557 1.404 . S
C4556 C4559 1.539 . S
C4557 C4553 1.408 . S
C4557 C4556 1.404 . S
C4557 H4569 0.930 . S
C4558 C4554 1.524 . S
C4558 H4570 0.956 . S
C4558 H4571 0.961 . S
C4558 H4572 0.961 . S
C4559 C4556 1.539 . S
C4559 H4573 0.958 . S
C4559 H4574 0.961 . S
C4559 H4575 0.960 . S
H4560 C4544 0.931 . S
H4561 C4549 0.929 . S
H4562 C4550 0.960 . S
H4563 C4550 0.962 . S
H4564 C4550 0.960 . S
H4565 C4551 0.961 . S
H4566 C4551 0.961 . S
H4567 C4551 0.961 . S
H4568 C4552 0.931 . S
H4569 C4557 0.930 . S
H4570 C4558 0.956 . S
H4571 C4558 0.961 . S
H4572 C4558 0.961 . S
H4573 C4559 0.958 . S
H4574 C4559 0.961 . S
H4575 C4559 0.960 . S
C1505 C255 2.142 . S
C1513 C877 2.120 . S
C1537 C147 2.051 . S
C1545 C928 2.078 . S
C1569 C184 1.545 . S
C1577 C957 1.546 . S
C1609 C1001 1.436 . S
C1601 C220 1.491 . S
C1633 C40 1.318 . S
C1641 C1041 1.305 . S
C1673 C1077 1.654 . S
C1665 C74 1.649 . S
C1705 C1127 1.870 . S
C1697 C110 1.859 . S
C1729 C14 2.276 . S
C1737 C1157 2.230 . S
C1769 C887 1.947 . S
C1761 C579 1.965 . S
C1793 C616 0.572 . S
C1801 C930 0.631 . S
C1833 C967 1.284 . S
C1825 C687 1.266 . S
C1865 C997 1.478 . S
C1857 C436 1.478 . S
C1889 C580 1.476 . S
C1897 C1037 1.495 . S
C1929 C1087 0.912 . S
C1921 C615 0.922 . S
C1961 C1121 0.876 . S
C1953 C688 0.858 . S
C1993 C1167 1.940 . S
C1985 C435 1.949 . S
C2025 C881 1.129 1_565 S
C2017 C410 1.135 1_554 S
C2049 C722 1.752 . S
C2057 C1207 1.754 . S
C2089 C1241 1.466 . S
C2081 C842 1.457 . S
C2121 C1277 0.887 . S
C2113 C794 0.884 . S
C2145 C302 1.448 . S
C2153 C1161 1.366 . S
C2177 C338 1.526 . S
C2185 C961 1.475 . S
C2209 C830 1.697 . S
C2217 C1327 1.695 . S
C2249 C1346 0.375 . S
C2241 C758 0.341 . S
C2281 C888 2.094 . S
C2273 C158 2.013 . S
C2313 C1357 2.026 . S
C2305 C254 2.041 . S
C2337 C218 1.542 . S
C2345 C968 1.548 . S
C2369 C194 1.337 . S
C2377 C1330 1.433 . S
C2409 C1050 1.275 . S
C2401 C3 1.343 . S
C2433 C111 1.497 . S
C2441 C1248 1.478 . S
C2473 C1106 1.833 1_566 S
C2465 C76 1.823 . S
C2505 C1408 2.300 . S
C2497 C50 2.226 . S
C2537 C866 1.913 . S
C2529 C364 1.918 . S
C2569 C1361 0.583 . S
C2561 C795 0.632 . S
C2593 C292 1.232 . S
C2601 C946 1.232 . S
C2625 C723 1.401 . S
C2633 C1328 1.385 . S
C2657 C363 1.471 . S
C2665 C1048 1.457 . S
C2697 C1226 0.885 . S
C2689 C796 0.882 . S
C2721 C291 0.814 . S
C2729 C1130 0.843 . S
C2753 C724 1.936 . S
C2761 C1386 1.915 . S
C2785 C482 1.038 . S
C2793 C890 1.167 . S
C2817 C434 1.707 . S
C2825 C1186 1.702 . S
C2849 C662 1.423 . S
C2857 C1090 1.429 . S
C2881 C614 0.905 . S
C2889 C1288 0.884 . S
C2921 C1410 1.375 . S
C2913 C698 1.335 . S
C2945 C554 1.391 . S
C2953 C970 1.514 . S
C2985 C986 1.638 . S
C2977 C650 1.632 . S
C3017 C927 0.338 . S
C3009 C506 0.315 . S
C3041 C183 2.111 . S
C3049 C1437 2.127 . S
C3081 C1368 2.075 . S
C3073 C219 2.039 . S
C3105 C256 1.523 . S
C3113 C1477 1.536 . S
C3137 C148 1.496 1_655 S
C3145 C1321 1.427 . S
C3169 C122 1.307 . S
C3177 C1201 1.330 . S
C3209 C1237 1.576 . S
C3201 C2 1.564 . S
C3241 C1287 1.787 . S
C3233 C39 1.756 . S
C3273 C1397 2.299 . S
C3265 C86 2.343 . S
C3305 C1447 1.958 . S
C3297 C651 1.974 . S
C3329 C472 0.578 . S
C3337 C1370 0.613 . S
C3369 C1487 1.264 . S
C3361 C507 1.239 . S
C3401 C1317 1.473 . S
C3393 C544 1.438 . S
C3433 C1197 1.492 . S
C3425 C652 1.474 . S
C3457 C471 0.872 . S
C3465 C1247 0.876 . S
C3497 C1281 0.845 . S
C3489 C508 0.827 . S
C3521 C543 1.981 . S
C3529 C1407 1.949 . S
C3561 C1441 1.114 . S
C3553 C806 1.161 . S
C3585 C326 1.724 . S
C3593 C1047 1.728 . S
C3625 C1081 1.436 . S
C3617 C374 1.477 1_565 S
C3657 C1117 0.905 . S
C3649 C398 0.921 . S
C3689 C1401 1.390 . S
C3681 C770 1.436 . S
C3713 C734 1.501 . S
C3721 C1481 1.480 . S
C3753 C1007 1.678 . S
C3745 C362 1.672 . S
C3785 C906 0.388 . S
C3777 C290 0.444 . S
C3809 C230 2.033 . S
C3817 C1448 2.100 . S
C3849 C917 2.044 . S
C3841 C182 2.048 . S
C3873 C146 1.509 . S
C3881 C1488 1.538 . S
C3905 C266 1.333 . S
C3913 C1010 1.433 . S
C3937 C75 1.376 . S
C3945 C1210 1.310 . S
C3977 C1088 1.633 . S
C3969 C38 1.620 . S
C4001 C4 1.741 . S
C4009 C1266 1.767 . S
C4033 C112 2.238 . S
C4041 C1168 2.209 . S
C4073 C1426 1.914 . S
C4065 C832 1.926 . S
C4097 C399 0.576 . S
C4105 C921 0.654 . S
C4137 C1466 1.224 . S
C4129 C760 1.238 . S
C4161 C327 1.396 . S
C4169 C1008 1.381 . S
C4193 C831 1.495 . S
C4201 C1208 1.480 . S
C4233 C1066 0.901 . S
C4225 C400 0.906 . S
C4257 C759 0.874 . S
C4265 C1290 0.838 . S
C4297 C1146 1.921 . S
C4289 C328 1.952 . S
C4329 C1450 1.160 . S
C4321 C626 1.125 . S
C4361 C1026 1.725 . S
C4353 C542 1.708 . S
C4385 C590 1.330 . S
C4393 C1250 1.421 . S
C4425 C1128 0.914 . S
C4417 C470 0.907 . S
C4449 C518 1.343 . S
C4457 C1170 1.340 . S
C4481 C446 1.443 . S
C4489 C1490 1.487 . S
C4521 C1306 1.658 . S
C4513 C578 1.664 . S
C4553 C1367 0.246 . S
C4545 C686 0.265 . S
