# Generated by pormake.
# Topology bcu-b, (8,8)-cn, num edge types: 1
# Building blocks:
#     Node 0, Type 0, BuildingBlock: TAGTUT_clean_sbu_3, # of connection points: 8
#     Node 1, Type 1, BuildingBlock: TAGTUT_clean_sbu_1, # of connection points: 8
#     Edge 2, Type (0, 1), BuildingBlock: ZUJKAS_clean_linker_0, # of connection points: 2
#     Edge 3, Type (0, 1), BuildingBlock: ZUJKAS_clean_linker_0, # of connection points: 2
#     Edge 4, Type (0, 1), BuildingBlock: ZUJKAS_clean_linker_0, # of connection points: 2
#     Edge 5, Type (0, 1), BuildingBlock: ZUJKAS_clean_linker_0, # of connection points: 2
#     Edge 6, Type (0, 1), BuildingBlock: ZUJKAS_clean_linker_0, # of connection points: 2
#     Edge 7, Type (0, 1), BuildingBlock: ZUJKAS_clean_linker_0, # of connection points: 2
#     Edge 8, Type (0, 1), BuildingBlock: ZUJKAS_clean_linker_0, # of connection points: 2
#     Edge 9, Type (0, 1), BuildingBlock: ZUJKAS_clean_linker_0, # of connection points: 2
# Relax obj value: 0.021
# Max RMSD: 0.091
# Mean RMSD: 0.081
data_MOF--net-bcu-b--node1-TAGTUT_clean_sbu_3--node2-TAGTUT_clean_sbu_1--edge1-ZUJKAS_clean_linker_0
_symmetry_space_group_name_H-M    P1
_symmetry_Int_Tables_number       1
_symmetry_cell_setting            triclinic
loop_
_symmetry_equiv_pos_as_xyz
'x, y, z'
_cell_length_a     25.010316
_cell_length_b     24.006644
_cell_length_c     26.29451
_cell_angle_alpha  91.266349
_cell_angle_beta   91.853783
_cell_angle_gamma 107.39232
loop_
_atom_site_label
_atom_site_type_symbol
_atom_site_fract_x
_atom_site_fract_y
_atom_site_fract_z
_atom_type_partial_charge
C0 C 0.08834 0.09857 0.07727 0.0
C1 C 0.15469 0.90511 0.07633 0.0
C2 C 0.09765 0.89361 0.92015 0.0
Mg3 Mg 0.98917 0.12413 0.00629 0.0
Mg4 Mg 0.88073 0.01335 0.96771 0.0
O5 O 0.95882 0.04827 0.96628 0.0
Mg6 Mg 0.00618 0.00363 -0.00174 0.0
O7 O 0.05694 0.96328 0.03102 0.0
Mg8 Mg 0.13024 0.01008 0.00327 0.0
Mg9 Mg 0.03794 0.88209 0.02 0.0
C10 C 0.91913 0.90964 0.91872 0.0
O11 O 0.93576 0.94824 0.04645 0.0
O12 O 0.93132 0.15966 0.9512 0.0
O13 O 0.95204 0.86064 0.04492 0.0
O14 O 0.91909 0.10283 0.0628 0.0
O15 O 0.86017 0.08012 0.92608 0.0
O16 O 0.85115 0.02051 0.04339 0.0
O17 O 0.07885 0.05518 0.95265 0.0
O18 O 0.06215 0.14159 0.95202 0.0
C19 C 0.09219 0.10867 0.93987 0.0
C20 C 0.88496 0.1352 0.92559 0.0
O21 O 0.96977 0.93224 0.93635 0.0
O22 O 0.17195 0.95608 0.05705 0.0
O23 O 0.87898 0.93044 0.93009 0.0
O24 O 0.12731 0.94348 0.93822 0.0
O25 O 0.10476 0.87094 0.06769 0.0
O26 O 0.05564 0.86254 0.94337 0.0
O27 O 0.03905 0.0772 0.05677 0.0
O28 O 0.12844 0.07788 0.06596 0.0
C29 C 0.87351 0.06454 0.07329 0.0
C30 C 0.92152 0.89354 0.05595 0.0
C31 C 0.39276 0.63641 0.57577 0.0
C32 C 0.43223 0.62597 0.41882 0.0
C33 C 0.39634 0.39508 0.45331 0.0
Mg34 Mg 0.50057 0.63699 0.52046 0.0
O35 O 0.47128 0.55617 0.52655 0.0
Mg36 Mg 0.39147 0.51762 0.50319 0.0
Mg37 Mg 0.50603 0.49993 0.49411 0.0
O38 O 0.53996 0.44245 0.46306 0.0
Mg39 Mg 0.51007 0.3641 0.48124 0.0
Mg40 Mg 0.62064 0.48204 0.48339 0.0
C41 C 0.61521 0.605 0.54084 0.0
C42 C 0.5801 0.55919 0.39892 0.0
O43 O 0.36824 0.58669 0.55356 0.0
O44 O 0.44493 0.66322 0.57071 0.0
O45 O 0.39841 0.57844 0.43417 0.0
O46 O 0.47631 0.65405 0.44501 0.0
O47 O 0.5884 0.64326 0.53994 0.0
O48 O 0.59087 0.55081 0.5292 0.0
C49 C 0.42935 0.43698 0.58647 0.0
O50 O 0.47591 0.44472 0.56425 0.0
O51 O 0.39196 0.46011 0.5709 0.0
O52 O 0.63932 0.40656 0.43519 0.0
O53 O 0.56018 0.33046 0.4315 0.0
O54 O 0.61873 0.42982 0.55498 0.0
C55 C 0.61107 0.35438 0.41959 0.0
O56 O 0.54034 0.35567 0.55825 0.0
O57 O 0.42165 0.3563 0.46132 0.0
C58 C 0.5873 0.3869 0.57809 0.0
O59 O 0.42208 0.45002 0.45801 0.0
O60 O 0.53529 0.55427 0.4233 0.0
O61 O 0.61701 0.53505 0.41363 0.0
H62 H 0.01212 0.13593 0.13018 0.0
H63 H 0.03209 0.20909 0.20061 0.0
H64 H 0.20946 0.24079 0.18242 0.0
H65 H 0.18993 0.16905 0.11237 0.0
H66 H 0.08754 0.20184 0.28999 0.0
H67 H 0.2009 0.40533 0.20029 0.0
H68 H 0.15625 0.34312 0.16377 0.0
H69 H 0.22857 0.34855 0.17893 0.0
C70 C 0.05526 0.15963 0.14055 0.0
C71 C 0.09943 0.14672 0.11585 0.0
C72 C 0.06659 0.20128 0.18074 0.0
C73 C 0.12224 0.2312 0.19609 0.0
C74 C 0.16618 0.21948 0.17034 0.0
H75 H 0.33036 0.28332 0.433 0.0
H76 H 0.24386 0.25279 0.38168 0.0
C77 C 0.15495 0.17787 0.13061 0.0
C78 C 0.13599 0.26928 0.24265 0.0
H79 H 0.23698 0.3915 0.2865 0.0
C80 C 0.11879 0.24434 0.28944 0.0
C81 C 0.17497 0.32565 0.24221 0.0
C82 C 0.19061 0.35737 0.19345 0.0
C83 C 0.14563 0.27071 0.33536 0.0
C84 C 0.19155 0.32215 0.33393 0.0
C85 C 0.20286 0.35118 0.28785 0.0
C86 C 0.23511 0.33964 0.3758 0.0
C87 C 0.12666 0.24127 0.38448 0.0
C88 C 0.25919 0.39868 0.3905 0.0
C89 C 0.30991 0.41658 0.41905 0.0
C90 C 0.33737 0.37567 0.43344 0.0
C91 C 0.31063 0.31611 0.42245 0.0
C92 C 0.26039 0.29838 0.39354 0.0
H93 H 0.08024 0.22291 0.38351 0.0
H94 H 0.14419 0.20423 0.38908 0.0
H95 H 0.14027 0.27188 0.41796 0.0
H96 H 0.24067 0.43139 0.37713 0.0
H97 H 0.3291 0.4628 0.42698 0.0
H98 H 0.91954 0.13716 0.15426 0.0
H99 H 0.87041 0.17455 0.21866 0.0
H100 H 0.71269 0.05827 0.1598 0.0
H101 H 0.76193 0.01998 0.09456 0.0
H102 H 0.78285 0.22661 0.17974 0.0
H103 H 0.7094 0.05533 0.32285 0.0
H104 H 0.77014 0.05994 0.28581 0.0
H105 H 0.70132 0.03407 0.25616 0.0
C106 C 0.87454 0.1183 0.15557 0.0
C107 C 0.84455 0.07612 0.11875 0.0
C108 C 0.84656 0.1398 0.19252 0.0
C109 C 0.78805 0.11941 0.19374 0.0
C110 C 0.75802 0.07424 0.15957 0.0
H111 H 0.5605 0.24916 0.37079 0.0
H112 H 0.60284 0.19229 0.31602 0.0
C113 C 0.78618 0.05241 0.12238 0.0
C114 C 0.75892 0.15116 0.22626 0.0
H115 H 0.68664 0.14314 0.33503 0.0
C116 C 0.76166 0.20841 0.21367 0.0
C117 C 0.7311 0.12695 0.27008 0.0
C118 C 0.72771 0.06576 0.28501 0.0
C119 C 0.73744 0.24241 0.24394 0.0
C120 C 0.71104 0.219 0.28881 0.0
C121 C 0.70739 0.16121 0.30089 0.0
C122 C 0.6862 0.25358 0.32314 0.0
C123 C 0.73954 0.30268 0.22702 0.0
C124 C 0.71917 0.30683 0.34588 0.0
C125 C 0.69498 0.33996 0.37703 0.0
C126 C 0.63747 0.32001 0.38653 0.0
C127 C 0.60491 0.26607 0.36436 0.0
C128 C 0.62904 0.23327 0.33306 0.0
H129 H 0.74668 0.30741 0.18564 0.0
H130 H 0.70007 0.31274 0.23521 0.0
H131 H 0.77473 0.3355 0.24787 0.0
H132 H 0.76367 0.32275 0.3396 0.0
H133 H 0.72139 0.38093 0.39385 0.0
H134 H 0.86266 0.77814 0.05834 0.0
H135 H 0.77958 0.73366 0.10584 0.0
H136 H 0.77588 0.90433 0.15748 0.0
H137 H 0.86143 0.94891 0.11255 0.0
H138 H 0.77001 0.83684 0.23384 0.0
H139 H 0.61582 0.71126 0.0881 0.0
H140 H 0.68001 0.69361 0.08186 0.0
H141 H 0.67853 0.76726 0.07166 0.0
C142 C 0.84386 0.80632 0.07931 0.0
C143 C 0.86831 0.8672 0.08117 0.0
C144 C 0.79568 0.78084 0.10578 0.0
C145 C 0.77039 0.81567 0.13408 0.0
C146 C 0.79401 0.87662 0.13511 0.0
H147 H 0.54476 0.65351 0.37676 0.0
H148 H 0.57545 0.72137 0.30768 0.0
C149 C 0.84266 0.90213 0.10904 0.0
C150 C 0.72471 0.78759 0.16816 0.0
H151 H 0.6082 0.66953 0.17353 0.0
C152 C 0.73354 0.80157 0.2205 0.0
C153 C 0.67678 0.74192 0.15079 0.0
C154 C 0.66201 0.72822 0.09491 0.0
C155 C 0.69893 0.76745 0.25615 0.0
C156 C 0.65451 0.71825 0.23886 0.0
C157 C 0.64273 0.70709 0.18652 0.0
C158 C 0.62691 0.67311 0.27454 0.0
C159 C 0.71275 0.78126 0.31221 0.0
C160 C 0.64437 0.62296 0.27754 0.0
C161 C 0.62702 0.58453 0.31686 0.0
C162 C 0.5915 0.59538 0.3536 0.0
C163 C 0.57139 0.6438 0.34868 0.0
C164 C 0.58911 0.68265 0.30944 0.0
H165 H 0.75001 0.8201 0.31928 0.0
H166 H 0.67646 0.78968 0.33057 0.0
H167 H 0.72086 0.74329 0.33076 0.0
H168 H 0.67377 0.61516 0.25095 0.0
H169 H 0.64289 0.5473 0.31944 0.0
H170 H 0.13012 0.80157 0.12431 0.0
H171 H 0.19294 0.76181 0.17379 0.0
H172 H 0.33028 0.91665 0.15079 0.0
H173 H 0.26715 0.95763 0.10071 0.0
H174 H 0.29424 0.74109 0.13975 0.0
H175 H 0.32973 0.89484 0.30814 0.0
H176 H 0.27172 0.88591 0.26284 0.0
H177 H 0.34146 0.92553 0.24615 0.0
C178 C 0.17358 0.82767 0.1297 0.0
C179 C 0.19347 0.88305 0.1084 0.0
C180 C 0.20949 0.80459 0.15798 0.0
C181 C 0.26613 0.83625 0.16599 0.0
C182 C 0.28647 0.89174 0.14531 0.0
H183 H 0.49135 0.72842 0.37675 0.0
H184 H 0.45985 0.77963 0.3084 0.0
C185 C 0.25038 0.91504 0.11672 0.0
C186 C 0.30297 0.81004 0.19611 0.0
H187 H 0.36762 0.81675 0.31329 0.0
C188 C 0.31103 0.758 0.17745 0.0
C189 C 0.3249 0.83237 0.2451 0.0
C190 C 0.31649 0.88755 0.26717 0.0
C191 C 0.33897 0.72665 0.20717 0.0
C192 C 0.35834 0.74736 0.2572 0.0
C193 C 0.35259 0.80085 0.27494 0.0
C194 C 0.38088 0.71246 0.29327 0.0
C195 C 0.34692 0.67136 0.18488 0.0
C196 C 0.34744 0.657 0.30681 0.0
C197 C 0.36547 0.62723 0.34571 0.0
C198 C 0.41706 0.6527 0.37228 0.0
C199 C 0.45142 0.70727 0.35715 0.0
C200 C 0.43345 0.73683 0.31812 0.0
H201 H 0.34711 0.67195 0.14264 0.0
H202 H 0.38668 0.66482 0.19952 0.0
H203 H 0.3116 0.63349 0.19547 0.0
H204 H 0.30619 0.63782 0.28891 0.0
H205 H 0.3378 0.58548 0.35642 0.0
H206 H 0.18308 0.94915 0.86009 0.0
H207 H 0.22528 0.90518 0.79415 0.0
H208 H 0.09847 0.74002 0.80965 0.0
H209 H 0.05559 0.78357 0.87604 0.0
H210 H 0.2641 0.80578 0.82023 0.0
H211 H 0.11503 0.76059 0.65179 0.0
H212 H 0.11632 0.81569 0.70021 0.0
H213 H 0.08618 0.73986 0.71286 0.0
C214 C 0.16334 0.90372 0.84894 0.0
C215 C 0.11638 0.86962 0.87395 0.0
C216 C 0.18756 0.87876 0.81115 0.0
C217 C 0.16502 0.81947 0.79719 0.0
C218 C 0.11614 0.78605 0.81966 0.0
H219 H 0.28643 0.58635 0.60743 0.0
H220 H 0.23123 0.63064 0.66107 0.0
C221 C 0.09184 0.81098 0.85771 0.0
C222 C 0.19665 0.7915 0.76382 0.0
H223 H 0.19384 0.72574 0.64701 0.0
C224 C 0.24891 0.78841 0.78226 0.0
C225 C 0.1762 0.76838 0.71473 0.0
C226 C 0.12051 0.7714 0.69331 0.0
C227 C 0.28138 0.76248 0.75294 0.0
C228 C 0.26167 0.74048 0.70325 0.0
C229 C 0.20901 0.74301 0.68499 0.0
C230 C 0.29505 0.71437 0.66988 0.0
C231 C 0.33587 0.75774 0.77599 0.0
C232 C 0.34906 0.747 0.65655 0.0
C233 C 0.38104 0.72168 0.62629 0.0
C234 C 0.35923 0.66344 0.60814 0.0
C235 C 0.30462 0.63128 0.62077 0.0
C236 C 0.27288 0.65653 0.65135 0.0
H237 H 0.33683 0.76097 0.81826 0.0
H238 H 0.3429 0.71583 0.76431 0.0
H239 H 0.3711 0.79406 0.76278 0.0
H240 H 0.36648 0.79217 0.6695 0.0
H241 H 0.42264 0.74791 0.61682 0.0
H242 H 0.13718 0.22221 0.91525 0.0
H243 H 0.21729 0.2636 0.86339 0.0
H244 H 0.2443 0.09492 0.8477 0.0
H245 H 0.16298 0.05245 0.89935 0.0
H246 H 0.33177 0.2665 0.87485 0.0
H247 H 0.22439 0.14177 0.69977 0.0
H248 H 0.18647 0.14686 0.75603 0.0
H249 H 0.23183 0.10141 0.75502 0.0
C250 C 0.16009 0.1937 0.90106 0.0
C251 C 0.14321 0.1338 0.91104 0.0
C252 C 0.20616 0.21759 0.87163 0.0
C253 C 0.23638 0.18225 0.85141 0.0
C254 C 0.22106 0.12277 0.86255 0.0
H255 H 0.44841 0.33187 0.59906 0.0
H256 H 0.41798 0.26488 0.66871 0.0
C257 C 0.17471 0.09866 0.89216 0.0
C258 C 0.28142 0.20826 0.81625 0.0
H259 H 0.3052 0.21959 0.68937 0.0
C260 C 0.32681 0.25541 0.83439 0.0
C261 C 0.27507 0.19331 0.76359 0.0
C262 C 0.22679 0.14329 0.74207 0.0
C263 C 0.36369 0.29066 0.80081 0.0
C264 C 0.35432 0.27878 0.74788 0.0
C265 C 0.31201 0.22866 0.73005 0.0
C266 C 0.3814 0.32222 0.71034 0.0
C267 C 0.41081 0.34185 0.8221 0.0
C268 C 0.37119 0.37663 0.71087 0.0
C269 C 0.38873 0.41481 0.67134 0.0
C270 C 0.41705 0.3994 0.63073 0.0
C271 C 0.42866 0.34567 0.63085 0.0
C272 C 0.41074 0.30717 0.67031 0.0
H273 H 0.42433 0.33358 0.86115 0.0
H274 H 0.44753 0.35152 0.79749 0.0
H275 H 0.39603 0.38103 0.8244 0.0
H276 H 0.34729 0.38847 0.74066 0.0
H277 H 0.37887 0.45581 0.67185 0.0
H278 H 0.91978 0.2544 0.91177 0.0
H279 H 0.86905 0.3113 0.86406 0.0
H280 H 0.73599 0.15336 0.82476 0.0
H281 H 0.78537 0.09669 0.87157 0.0
H282 H 0.83242 0.29495 0.75823 0.0
H283 H 0.65294 0.26343 0.88378 0.0
H284 H 0.71841 0.25214 0.90453 0.0
H285 H 0.66717 0.1965 0.867 0.0
C286 C 0.87971 0.23189 0.893 0.0
C287 C 0.85672 0.17094 0.89578 0.0
C288 C 0.85074 0.26444 0.86595 0.0
C289 C 0.7982 0.23657 0.84195 0.0
C290 C 0.77577 0.17589 0.84409 0.0
H291 H 0.55589 0.28143 0.62474 0.0
H292 H 0.60689 0.25156 0.69515 0.0
C293 C 0.80453 0.1435 0.87066 0.0
C294 C 0.76729 0.26946 0.81206 0.0
H295 H 0.63883 0.2914 0.79833 0.0
C296 C 0.79056 0.29535 0.76742 0.0
C297 C 0.71254 0.26943 0.82413 0.0
C298 C 0.68644 0.24436 0.87274 0.0
C299 C 0.75934 0.31841 0.733 0.0
C300 C 0.70378 0.3165 0.74419 0.0
C301 C 0.68128 0.29257 0.78979 0.0
C302 C 0.66784 0.33674 0.70762 0.0
C303 C 0.78511 0.3419 0.68374 0.0
C304 C 0.68352 0.39506 0.69326 0.0
C305 C 0.6548 0.41206 0.65306 0.0
C306 C 0.60945 0.37113 0.62676 0.0
C307 C 0.59079 0.31384 0.64407 0.0
C308 C 0.61995 0.29673 0.68419 0.0
H309 H 0.82301 0.32848 0.67608 0.0
H310 H 0.75445 0.32669 0.65112 0.0
H311 H 0.79773 0.39033 0.6859 0.0
H312 H 0.71947 0.42692 0.71174 0.0
H313 H 0.66965 0.45685 0.64126 0.0
H314 H 0.81684 0.83488 0.88919 0.0
H315 H 0.79561 0.76099 0.82067 0.0
H316 H 0.97218 0.79693 0.79534 0.0
H317 H 0.99348 0.87356 0.86223 0.0
H318 H 0.91911 0.79806 0.70965 0.0
H319 H 0.80149 0.5984 0.80146 0.0
H320 H 0.77165 0.65459 0.81961 0.0
H321 H 0.84367 0.66177 0.83807 0.0
C322 C 0.85129 0.8265 0.86967 0.0
C323 C 0.90695 0.85978 0.8816 0.0
C324 C 0.83914 0.78351 0.83089 0.0
C325 C 0.88236 0.77216 0.8036 0.0
C326 C 0.93818 0.80417 0.81638 0.0
H327 H 0.68062 0.53643 0.57007 0.0
H328 H 0.76682 0.56745 0.6235 0.0
C329 C 0.95034 0.84765 0.85499 0.0
C330 C 0.86785 0.733 0.75754 0.0
H331 H 0.76712 0.61036 0.71365 0.0
C332 C 0.88717 0.75604 0.71058 0.0
C333 C 0.8281 0.67701 0.7583 0.0
C334 C 0.81072 0.64638 0.80727 0.0
C335 C 0.86207 0.72832 0.66456 0.0
C336 C 0.81548 0.67753 0.66581 0.0
C337 C 0.80173 0.6503 0.7124 0.0
C338 C 0.77366 0.65948 0.62262 0.0
C339 C 0.88367 0.75567 0.61528 0.0
C340 C 0.74998 0.7009 0.60257 0.0
C341 C 0.70097 0.68329 0.572 0.0
C342 C 0.67389 0.6237 0.56142 0.0
C343 C 0.70013 0.58256 0.57778 0.0
C344 C 0.74951 0.60028 0.60836 0.0
H345 H 0.93014 0.77333 0.61781 0.0
H346 H 0.8711 0.72393 0.58249 0.0
H347 H 0.86708 0.79296 0.60824 0.0
H348 H 0.76663 0.74666 0.61386 0.0
H349 H 0.68228 0.71629 0.55973 0.0
loop_
_geom_bond_atom_site_label_1
_geom_bond_atom_site_label_2
_geom_bond_distance
_geom_bond_site_symmetry_2
_ccdc_geom_bond_type
C0 O27 1.312 . S
C0 O28 1.208 . S
C1 O22 1.331 . S
C1 O25 1.244 . S
C2 O24 1.264 . S
C2 O26 1.273 . S
Mg3 O5 1.936 1_554 S
Mg3 O12 2.081 1_554 S
Mg3 O14 2.023 . S
Mg3 O18 2.031 1_654 S
Mg3 O27 2.291 1_655 S
Mg4 O5 1.963 . S
Mg4 O15 1.942 . S
Mg4 O16 1.955 1_556 S
Mg4 O23 1.986 1_545 S
O5 Mg3 1.936 1_556 S
O5 Mg4 1.963 . S
O5 Mg6 1.915 1_546 S
Mg6 O5 1.915 1_564 S
Mg6 O7 1.915 1_655 S
Mg6 O11 2.013 . S
Mg6 O17 2.114 1_664 S
Mg6 O21 2.013 1_554 S
Mg6 O27 2.114 1_665 S
O7 Mg6 1.915 1_455 S
O7 Mg8 1.936 . S
O7 Mg9 1.963 . S
Mg8 O7 1.936 . S
Mg8 O17 2.291 1_564 S
Mg8 O22 2.081 . S
Mg8 O24 2.023 1_554 S
Mg8 O28 2.031 1_565 S
Mg9 O7 1.963 . S
Mg9 O13 1.986 1_455 S
Mg9 O25 1.942 . S
Mg9 O26 1.955 1_554 S
C10 O21 1.191 . S
C10 O23 1.307 . S
O11 Mg6 2.013 . S
O11 C30 1.191 . S
O12 Mg3 2.081 1_556 S
O12 C20 1.331 . S
O13 Mg9 1.986 1_655 S
O13 C30 1.307 . S
O14 Mg3 2.023 . S
O14 C29 1.264 . S
O15 Mg4 1.942 . S
O15 C20 1.244 . S
O16 Mg4 1.955 1_554 S
O16 C29 1.273 . S
O17 Mg6 2.114 1_446 S
O17 Mg8 2.291 1_546 S
O17 C19 1.312 . S
O18 Mg3 2.031 1_456 S
O18 C19 1.208 . S
C19 O17 1.312 . S
C19 O18 1.208 . S
C20 O12 1.331 . S
C20 O15 1.244 . S
O21 Mg6 2.013 1_556 S
O21 C10 1.191 . S
O22 C1 1.331 . S
O22 Mg8 2.081 . S
O23 Mg4 1.986 1_565 S
O23 C10 1.307 . S
O24 C2 1.264 . S
O24 Mg8 2.023 1_556 S
O25 C1 1.244 . S
O25 Mg9 1.942 . S
O26 C2 1.273 . S
O26 Mg9 1.955 1_556 S
O27 C0 1.312 . S
O27 Mg3 2.291 1_455 S
O27 Mg6 2.114 1_445 S
O28 C0 1.208 . S
O28 Mg8 2.031 1_545 S
C29 O14 1.264 . S
C29 O16 1.273 . S
C30 O11 1.191 . S
C30 O13 1.307 . S
C31 O43 1.241 . S
C31 O44 1.280 . S
C32 O45 1.277 . S
C32 O46 1.245 . S
C33 O57 1.247 . S
C33 O59 1.289 . S
Mg34 O35 1.926 . S
Mg34 O44 1.984 . S
Mg34 O46 1.988 . S
Mg34 O47 2.061 . S
O35 Mg34 1.926 . S
O35 Mg36 1.986 . S
O35 Mg37 1.917 . S
Mg36 O35 1.986 . S
Mg36 O43 2.042 . S
Mg36 O45 2.041 . S
Mg36 O51 2.038 . S
Mg36 O59 2.238 . S
Mg37 O35 1.917 . S
Mg37 O38 1.917 . S
Mg37 O48 2.106 . S
Mg37 O50 2.079 . S
Mg37 O59 2.106 . S
Mg37 O60 2.079 . S
O38 Mg37 1.917 . S
O38 Mg39 1.926 . S
O38 Mg40 1.986 . S
Mg39 O38 1.926 . S
Mg39 O53 1.984 . S
Mg39 O56 1.988 . S
Mg39 O57 2.061 . S
Mg40 O38 1.986 . S
Mg40 O48 2.238 . S
Mg40 O52 2.042 . S
Mg40 O54 2.041 . S
Mg40 O61 2.038 . S
C41 O47 1.247 . S
C41 O48 1.289 . S
C42 O60 1.245 . S
C42 O61 1.274 . S
O43 C31 1.241 . S
O43 Mg36 2.042 . S
O44 C31 1.280 . S
O44 Mg34 1.984 . S
O45 C32 1.277 . S
O45 Mg36 2.041 . S
O46 C32 1.245 . S
O46 Mg34 1.988 . S
O47 Mg34 2.061 . S
O47 C41 1.247 . S
O48 Mg37 2.106 . S
O48 Mg40 2.238 . S
O48 C41 1.289 . S
C49 O50 1.245 . S
C49 O51 1.274 . S
O50 Mg37 2.079 . S
O50 C49 1.245 . S
O51 Mg36 2.038 . S
O51 C49 1.274 . S
O52 Mg40 2.042 . S
O52 C55 1.241 . S
O53 Mg39 1.984 . S
O53 C55 1.280 . S
O54 Mg40 2.041 . S
O54 C58 1.277 . S
C55 O52 1.241 . S
C55 O53 1.280 . S
O56 Mg39 1.988 . S
O56 C58 1.245 . S
O57 C33 1.247 . S
O57 Mg39 2.061 . S
C58 O54 1.277 . S
C58 O56 1.245 . S
O59 C33 1.289 . S
O59 Mg36 2.238 . S
O59 Mg37 2.106 . S
O60 Mg37 2.079 . S
O60 C42 1.245 . S
O61 Mg40 2.038 . S
O61 C42 1.274 . S
H62 C70 0.929 . S
H63 C72 0.930 . S
H64 C74 0.930 . S
H65 C77 0.929 . S
H66 C80 0.930 . S
H67 C82 0.960 . S
H68 C82 0.960 . S
H69 C82 0.960 . S
C70 H62 0.929 . S
C70 C71 1.377 . S
C70 C72 1.384 . S
C71 C70 1.377 . S
C71 C77 1.390 . S
C72 H63 0.930 . S
C72 C70 1.384 . S
C72 C73 1.372 . S
C73 C72 1.372 . S
C73 C74 1.400 . S
C73 C78 1.490 . S
C74 H64 0.930 . S
C74 C73 1.400 . S
C74 C77 1.386 . S
H75 C91 0.930 . S
H76 C92 0.931 . S
C77 H65 0.929 . S
C77 C71 1.390 . S
C77 C74 1.386 . S
C78 C73 1.490 . S
C78 C80 1.395 . S
C78 C81 1.403 . S
H79 C85 0.930 . S
C80 H66 0.930 . S
C80 C78 1.395 . S
C80 C83 1.403 . S
C81 C78 1.403 . S
C81 C82 1.524 . S
C81 C85 1.400 . S
C82 H67 0.960 . S
C82 H68 0.960 . S
C82 H69 0.960 . S
C82 C81 1.524 . S
C83 C80 1.403 . S
C83 C84 1.392 . S
C83 C87 1.495 . S
C84 C83 1.392 . S
C84 C85 1.385 . S
C84 C86 1.478 . S
C85 H79 0.930 . S
C85 C81 1.400 . S
C85 C84 1.385 . S
C86 C84 1.478 . S
C86 C88 1.381 . S
C86 C92 1.383 . S
C87 C83 1.495 . S
C87 H93 0.959 . S
C87 H94 0.961 . S
C87 H95 0.960 . S
C88 C86 1.381 . S
C88 C89 1.394 . S
C88 H96 0.930 . S
C89 C88 1.394 . S
C89 C90 1.383 . S
C89 H97 0.929 . S
C90 C89 1.383 . S
C90 C91 1.377 . S
C91 H75 0.930 . S
C91 C90 1.377 . S
C91 C92 1.379 . S
C92 H76 0.931 . S
C92 C86 1.383 . S
C92 C91 1.379 . S
H93 C87 0.959 . S
H94 C87 0.961 . S
H95 C87 0.960 . S
H96 C88 0.930 . S
H97 C89 0.929 . S
H98 C106 0.929 . S
H99 C108 0.930 . S
H100 C110 0.930 . S
H101 C113 0.929 . S
H102 C116 0.930 . S
H103 C118 0.960 . S
H104 C118 0.960 . S
H105 C118 0.960 . S
C106 H98 0.929 . S
C106 C107 1.377 . S
C106 C108 1.384 . S
C107 C106 1.377 . S
C107 C113 1.390 . S
C108 H99 0.930 . S
C108 C106 1.384 . S
C108 C109 1.372 . S
C109 C108 1.372 . S
C109 C110 1.400 . S
C109 C114 1.490 . S
C110 H100 0.930 . S
C110 C109 1.400 . S
C110 C113 1.386 . S
H111 C127 0.930 . S
H112 C128 0.931 . S
C113 H101 0.929 . S
C113 C107 1.390 . S
C113 C110 1.386 . S
C114 C109 1.490 . S
C114 C116 1.395 . S
C114 C117 1.403 . S
H115 C121 0.930 . S
C116 H102 0.930 . S
C116 C114 1.395 . S
C116 C119 1.403 . S
C117 C114 1.403 . S
C117 C118 1.524 . S
C117 C121 1.400 . S
C118 H103 0.960 . S
C118 H104 0.960 . S
C118 H105 0.960 . S
C118 C117 1.524 . S
C119 C116 1.403 . S
C119 C120 1.392 . S
C119 C123 1.495 . S
C120 C119 1.392 . S
C120 C121 1.385 . S
C120 C122 1.478 . S
C121 H115 0.930 . S
C121 C117 1.400 . S
C121 C120 1.385 . S
C122 C120 1.478 . S
C122 C124 1.381 . S
C122 C128 1.383 . S
C123 C119 1.495 . S
C123 H129 0.959 . S
C123 H130 0.961 . S
C123 H131 0.960 . S
C124 C122 1.381 . S
C124 C125 1.394 . S
C124 H132 0.930 . S
C125 C124 1.394 . S
C125 C126 1.383 . S
C125 H133 0.929 . S
C126 C125 1.383 . S
C126 C127 1.377 . S
C127 H111 0.930 . S
C127 C126 1.377 . S
C127 C128 1.379 . S
C128 H112 0.931 . S
C128 C122 1.383 . S
C128 C127 1.379 . S
H129 C123 0.959 . S
H130 C123 0.961 . S
H131 C123 0.960 . S
H132 C124 0.930 . S
H133 C125 0.929 . S
H134 C142 0.929 . S
H135 C144 0.930 . S
H136 C146 0.930 . S
H137 C149 0.929 . S
H138 C152 0.930 . S
H139 C154 0.960 . S
H140 C154 0.960 . S
H141 C154 0.960 . S
C142 H134 0.929 . S
C142 C143 1.377 . S
C142 C144 1.384 . S
C143 C142 1.377 . S
C143 C149 1.390 . S
C144 H135 0.930 . S
C144 C142 1.384 . S
C144 C145 1.372 . S
C145 C144 1.372 . S
C145 C146 1.400 . S
C145 C150 1.490 . S
C146 H136 0.930 . S
C146 C145 1.400 . S
C146 C149 1.386 . S
H147 C163 0.930 . S
H148 C164 0.931 . S
C149 H137 0.929 . S
C149 C143 1.390 . S
C149 C146 1.386 . S
C150 C145 1.490 . S
C150 C152 1.395 . S
C150 C153 1.403 . S
H151 C157 0.930 . S
C152 H138 0.930 . S
C152 C150 1.395 . S
C152 C155 1.403 . S
C153 C150 1.403 . S
C153 C154 1.524 . S
C153 C157 1.400 . S
C154 H139 0.960 . S
C154 H140 0.960 . S
C154 H141 0.960 . S
C154 C153 1.524 . S
C155 C152 1.403 . S
C155 C156 1.392 . S
C155 C159 1.495 . S
C156 C155 1.392 . S
C156 C157 1.385 . S
C156 C158 1.478 . S
C157 H151 0.930 . S
C157 C153 1.400 . S
C157 C156 1.385 . S
C158 C156 1.478 . S
C158 C160 1.381 . S
C158 C164 1.383 . S
C159 C155 1.495 . S
C159 H165 0.959 . S
C159 H166 0.961 . S
C159 H167 0.960 . S
C160 C158 1.381 . S
C160 C161 1.394 . S
C160 H168 0.930 . S
C161 C160 1.394 . S
C161 C162 1.383 . S
C161 H169 0.929 . S
C162 C161 1.383 . S
C162 C163 1.377 . S
C163 H147 0.930 . S
C163 C162 1.377 . S
C163 C164 1.379 . S
C164 H148 0.931 . S
C164 C158 1.383 . S
C164 C163 1.379 . S
H165 C159 0.959 . S
H166 C159 0.961 . S
H167 C159 0.960 . S
H168 C160 0.930 . S
H169 C161 0.929 . S
H170 C178 0.929 . S
H171 C180 0.930 . S
H172 C182 0.930 . S
H173 C185 0.929 . S
H174 C188 0.930 . S
H175 C190 0.960 . S
H176 C190 0.960 . S
H177 C190 0.960 . S
C178 H170 0.929 . S
C178 C179 1.377 . S
C178 C180 1.384 . S
C179 C178 1.377 . S
C179 C185 1.390 . S
C180 H171 0.930 . S
C180 C178 1.384 . S
C180 C181 1.372 . S
C181 C180 1.372 . S
C181 C182 1.400 . S
C181 C186 1.490 . S
C182 H172 0.930 . S
C182 C181 1.400 . S
C182 C185 1.386 . S
H183 C199 0.930 . S
H184 C200 0.931 . S
C185 H173 0.929 . S
C185 C179 1.390 . S
C185 C182 1.386 . S
C186 C181 1.490 . S
C186 C188 1.395 . S
C186 C189 1.403 . S
H187 C193 0.930 . S
C188 H174 0.930 . S
C188 C186 1.395 . S
C188 C191 1.403 . S
C189 C186 1.403 . S
C189 C190 1.524 . S
C189 C193 1.400 . S
C190 H175 0.960 . S
C190 H176 0.960 . S
C190 H177 0.960 . S
C190 C189 1.524 . S
C191 C188 1.403 . S
C191 C192 1.392 . S
C191 C195 1.495 . S
C192 C191 1.392 . S
C192 C193 1.385 . S
C192 C194 1.478 . S
C193 H187 0.930 . S
C193 C189 1.400 . S
C193 C192 1.385 . S
C194 C192 1.478 . S
C194 C196 1.381 . S
C194 C200 1.383 . S
C195 C191 1.495 . S
C195 H201 0.959 . S
C195 H202 0.961 . S
C195 H203 0.960 . S
C196 C194 1.381 . S
C196 C197 1.394 . S
C196 H204 0.930 . S
C197 C196 1.394 . S
C197 C198 1.383 . S
C197 H205 0.929 . S
C198 C197 1.383 . S
C198 C199 1.377 . S
C199 H183 0.930 . S
C199 C198 1.377 . S
C199 C200 1.379 . S
C200 H184 0.931 . S
C200 C194 1.383 . S
C200 C199 1.379 . S
H201 C195 0.959 . S
H202 C195 0.961 . S
H203 C195 0.960 . S
H204 C196 0.930 . S
H205 C197 0.929 . S
H206 C214 0.929 . S
H207 C216 0.930 . S
H208 C218 0.930 . S
H209 C221 0.929 . S
H210 C224 0.930 . S
H211 C226 0.960 . S
H212 C226 0.960 . S
H213 C226 0.960 . S
C214 H206 0.929 . S
C214 C215 1.377 . S
C214 C216 1.384 . S
C215 C214 1.377 . S
C215 C221 1.390 . S
C216 H207 0.930 . S
C216 C214 1.384 . S
C216 C217 1.372 . S
C217 C216 1.372 . S
C217 C218 1.400 . S
C217 C222 1.490 . S
C218 H208 0.930 . S
C218 C217 1.400 . S
C218 C221 1.386 . S
H219 C235 0.930 . S
H220 C236 0.931 . S
C221 H209 0.929 . S
C221 C215 1.390 . S
C221 C218 1.386 . S
C222 C217 1.490 . S
C222 C224 1.395 . S
C222 C225 1.403 . S
H223 C229 0.930 . S
C224 H210 0.930 . S
C224 C222 1.395 . S
C224 C227 1.403 . S
C225 C222 1.403 . S
C225 C226 1.524 . S
C225 C229 1.400 . S
C226 H211 0.960 . S
C226 H212 0.960 . S
C226 H213 0.960 . S
C226 C225 1.524 . S
C227 C224 1.403 . S
C227 C228 1.392 . S
C227 C231 1.495 . S
C228 C227 1.392 . S
C228 C229 1.385 . S
C228 C230 1.478 . S
C229 H223 0.930 . S
C229 C225 1.400 . S
C229 C228 1.385 . S
C230 C228 1.478 . S
C230 C232 1.381 . S
C230 C236 1.383 . S
C231 C227 1.495 . S
C231 H237 0.959 . S
C231 H238 0.961 . S
C231 H239 0.960 . S
C232 C230 1.381 . S
C232 C233 1.394 . S
C232 H240 0.930 . S
C233 C232 1.394 . S
C233 C234 1.383 . S
C233 H241 0.929 . S
C234 C233 1.383 . S
C234 C235 1.377 . S
C235 H219 0.930 . S
C235 C234 1.377 . S
C235 C236 1.379 . S
C236 H220 0.931 . S
C236 C230 1.383 . S
C236 C235 1.379 . S
H237 C231 0.959 . S
H238 C231 0.961 . S
H239 C231 0.960 . S
H240 C232 0.930 . S
H241 C233 0.929 . S
H242 C250 0.929 . S
H243 C252 0.930 . S
H244 C254 0.930 . S
H245 C257 0.929 . S
H246 C260 0.930 . S
H247 C262 0.960 . S
H248 C262 0.960 . S
H249 C262 0.960 . S
C250 H242 0.929 . S
C250 C251 1.377 . S
C250 C252 1.384 . S
C251 C250 1.377 . S
C251 C257 1.390 . S
C252 H243 0.930 . S
C252 C250 1.384 . S
C252 C253 1.372 . S
C253 C252 1.372 . S
C253 C254 1.400 . S
C253 C258 1.490 . S
C254 H244 0.930 . S
C254 C253 1.400 . S
C254 C257 1.386 . S
H255 C271 0.930 . S
H256 C272 0.931 . S
C257 H245 0.929 . S
C257 C251 1.390 . S
C257 C254 1.386 . S
C258 C253 1.490 . S
C258 C260 1.395 . S
C258 C261 1.403 . S
H259 C265 0.930 . S
C260 H246 0.930 . S
C260 C258 1.395 . S
C260 C263 1.403 . S
C261 C258 1.403 . S
C261 C262 1.524 . S
C261 C265 1.400 . S
C262 H247 0.960 . S
C262 H248 0.960 . S
C262 H249 0.960 . S
C262 C261 1.524 . S
C263 C260 1.403 . S
C263 C264 1.392 . S
C263 C267 1.495 . S
C264 C263 1.392 . S
C264 C265 1.385 . S
C264 C266 1.478 . S
C265 H259 0.930 . S
C265 C261 1.400 . S
C265 C264 1.385 . S
C266 C264 1.478 . S
C266 C268 1.381 . S
C266 C272 1.383 . S
C267 C263 1.495 . S
C267 H273 0.959 . S
C267 H274 0.961 . S
C267 H275 0.960 . S
C268 C266 1.381 . S
C268 C269 1.394 . S
C268 H276 0.930 . S
C269 C268 1.394 . S
C269 C270 1.383 . S
C269 H277 0.929 . S
C270 C269 1.383 . S
C270 C271 1.377 . S
C271 H255 0.930 . S
C271 C270 1.377 . S
C271 C272 1.379 . S
C272 H256 0.931 . S
C272 C266 1.383 . S
C272 C271 1.379 . S
H273 C267 0.959 . S
H274 C267 0.961 . S
H275 C267 0.960 . S
H276 C268 0.930 . S
H277 C269 0.929 . S
H278 C286 0.929 . S
H279 C288 0.930 . S
H280 C290 0.930 . S
H281 C293 0.929 . S
H282 C296 0.930 . S
H283 C298 0.960 . S
H284 C298 0.960 . S
H285 C298 0.960 . S
C286 H278 0.929 . S
C286 C287 1.377 . S
C286 C288 1.384 . S
C287 C286 1.377 . S
C287 C293 1.390 . S
C288 H279 0.930 . S
C288 C286 1.384 . S
C288 C289 1.372 . S
C289 C288 1.372 . S
C289 C290 1.400 . S
C289 C294 1.490 . S
C290 H280 0.930 . S
C290 C289 1.400 . S
C290 C293 1.386 . S
H291 C307 0.930 . S
H292 C308 0.931 . S
C293 H281 0.929 . S
C293 C287 1.390 . S
C293 C290 1.386 . S
C294 C289 1.490 . S
C294 C296 1.395 . S
C294 C297 1.403 . S
H295 C301 0.930 . S
C296 H282 0.930 . S
C296 C294 1.395 . S
C296 C299 1.403 . S
C297 C294 1.403 . S
C297 C298 1.524 . S
C297 C301 1.400 . S
C298 H283 0.960 . S
C298 H284 0.960 . S
C298 H285 0.960 . S
C298 C297 1.524 . S
C299 C296 1.403 . S
C299 C300 1.392 . S
C299 C303 1.495 . S
C300 C299 1.392 . S
C300 C301 1.385 . S
C300 C302 1.478 . S
C301 H295 0.930 . S
C301 C297 1.400 . S
C301 C300 1.385 . S
C302 C300 1.478 . S
C302 C304 1.381 . S
C302 C308 1.383 . S
C303 C299 1.495 . S
C303 H309 0.959 . S
C303 H310 0.961 . S
C303 H311 0.960 . S
C304 C302 1.381 . S
C304 C305 1.394 . S
C304 H312 0.930 . S
C305 C304 1.394 . S
C305 C306 1.383 . S
C305 H313 0.929 . S
C306 C305 1.383 . S
C306 C307 1.377 . S
C307 H291 0.930 . S
C307 C306 1.377 . S
C307 C308 1.379 . S
C308 H292 0.931 . S
C308 C302 1.383 . S
C308 C307 1.379 . S
H309 C303 0.959 . S
H310 C303 0.961 . S
H311 C303 0.960 . S
H312 C304 0.930 . S
H313 C305 0.929 . S
H314 C322 0.929 . S
H315 C324 0.930 . S
H316 C326 0.930 . S
H317 C329 0.929 . S
H318 C332 0.930 . S
H319 C334 0.960 . S
H320 C334 0.960 . S
H321 C334 0.960 . S
C322 H314 0.929 . S
C322 C323 1.377 . S
C322 C324 1.384 . S
C323 C322 1.377 . S
C323 C329 1.390 . S
C324 H315 0.930 . S
C324 C322 1.384 . S
C324 C325 1.372 . S
C325 C324 1.372 . S
C325 C326 1.400 . S
C325 C330 1.490 . S
C326 H316 0.930 . S
C326 C325 1.400 . S
C326 C329 1.386 . S
H327 C343 0.930 . S
H328 C344 0.931 . S
C329 H317 0.929 . S
C329 C323 1.390 . S
C329 C326 1.386 . S
C330 C325 1.490 . S
C330 C332 1.395 . S
C330 C333 1.403 . S
H331 C337 0.930 . S
C332 H318 0.930 . S
C332 C330 1.395 . S
C332 C335 1.403 . S
C333 C330 1.403 . S
C333 C334 1.524 . S
C333 C337 1.400 . S
C334 H319 0.960 . S
C334 H320 0.960 . S
C334 H321 0.960 . S
C334 C333 1.524 . S
C335 C332 1.403 . S
C335 C336 1.392 . S
C335 C339 1.495 . S
C336 C335 1.392 . S
C336 C337 1.385 . S
C336 C338 1.478 . S
C337 H331 0.930 . S
C337 C333 1.400 . S
C337 C336 1.385 . S
C338 C336 1.478 . S
C338 C340 1.381 . S
C338 C344 1.383 . S
C339 C335 1.495 . S
C339 H345 0.959 . S
C339 H346 0.961 . S
C339 H347 0.960 . S
C340 C338 1.381 . S
C340 C341 1.394 . S
C340 H348 0.930 . S
C341 C340 1.394 . S
C341 C342 1.383 . S
C341 H349 0.929 . S
C342 C341 1.383 . S
C342 C343 1.377 . S
C343 H327 0.930 . S
C343 C342 1.377 . S
C343 C344 1.379 . S
C344 H328 0.931 . S
C344 C338 1.383 . S
C344 C343 1.379 . S
H345 C339 0.959 . S
H346 C339 0.961 . S
H347 C339 0.960 . S
H348 C340 0.930 . S
H349 C341 0.929 . S
C71 C0 0.939 . S
C90 C33 0.923 . S
C107 C29 1.745 . S
C126 C55 1.726 . S
C143 C30 1.304 . S
C162 C42 1.259 . S
C179 C1 1.739 . S
C198 C32 1.748 . S
C215 C2 1.743 . S
C234 C31 1.721 . S
C270 C49 1.357 . S
C251 C19 1.336 . S
C287 C20 1.745 . S
C306 C58 1.719 . S
C342 C41 0.886 . S
C323 C10 0.893 . S
