# Generated by pormake.
# Topology eea, (3,6)-cn, num edge types: 1
# Building blocks:
#     Node 0, Type 0, BuildingBlock: WUSLED_clean_sbu_0, # of connection points: 3
#     Node 1, Type 0, BuildingBlock: WUSLED_clean_sbu_0, # of connection points: 3
#     Node 2, Type 0, BuildingBlock: WUSLED_clean_sbu_0, # of connection points: 3
#     Node 3, Type 0, BuildingBlock: WUSLED_clean_sbu_0, # of connection points: 3
#     Node 4, Type 0, BuildingBlock: WUSLED_clean_sbu_0, # of connection points: 3
#     Node 5, Type 0, BuildingBlock: WUSLED_clean_sbu_0, # of connection points: 3
#     Node 6, Type 0, BuildingBlock: WUSLED_clean_sbu_0, # of connection points: 3
#     Node 7, Type 0, BuildingBlock: WUSLED_clean_sbu_0, # of connection points: 3
#     Node 8, Type 0, BuildingBlock: WUSLED_clean_sbu_0, # of connection points: 3
#     Node 9, Type 0, BuildingBlock: WUSLED_clean_sbu_0, # of connection points: 3
#     Node 10, Type 0, BuildingBlock: WUSLED_clean_sbu_0, # of connection points: 3
#     Node 11, Type 0, BuildingBlock: WUSLED_clean_sbu_0, # of connection points: 3
#     Node 12, Type 0, BuildingBlock: WUSLED_clean_sbu_0, # of connection points: 3
#     Node 13, Type 0, BuildingBlock: WUSLED_clean_sbu_0, # of connection points: 3
#     Node 14, Type 0, BuildingBlock: WUSLED_clean_sbu_0, # of connection points: 3
#     Node 15, Type 0, BuildingBlock: WUSLED_clean_sbu_0, # of connection points: 3
#     Node 16, Type 0, BuildingBlock: WUSLED_clean_sbu_0, # of connection points: 3
#     Node 17, Type 0, BuildingBlock: WUSLED_clean_sbu_0, # of connection points: 3
#     Node 18, Type 1, BuildingBlock: CUWYAW_clean_sbu_0, # of connection points: 6
#     Node 19, Type 1, BuildingBlock: CUWYAW_clean_sbu_0, # of connection points: 6
#     Node 20, Type 1, BuildingBlock: CUWYAW_clean_sbu_0, # of connection points: 6
#     Node 21, Type 1, BuildingBlock: CUWYAW_clean_sbu_0, # of connection points: 6
#     Node 22, Type 1, BuildingBlock: CUWYAW_clean_sbu_0, # of connection points: 6
#     Node 23, Type 1, BuildingBlock: CUWYAW_clean_sbu_0, # of connection points: 6
#     Node 24, Type 1, BuildingBlock: CUWYAW_clean_sbu_0, # of connection points: 6
#     Node 25, Type 1, BuildingBlock: CUWYAW_clean_sbu_0, # of connection points: 6
#     Node 26, Type 1, BuildingBlock: CUWYAW_clean_sbu_0, # of connection points: 6
#     Edge 27, Type (0, 1), BuildingBlock: EZIPEK_clean_linker_0, # of connection points: 2
#     Edge 28, Type (0, 1), BuildingBlock: EZIPEK_clean_linker_0, # of connection points: 2
#     Edge 29, Type (0, 1), BuildingBlock: EZIPEK_clean_linker_0, # of connection points: 2
#     Edge 30, Type (0, 1), BuildingBlock: EZIPEK_clean_linker_0, # of connection points: 2
#     Edge 31, Type (0, 1), BuildingBlock: EZIPEK_clean_linker_0, # of connection points: 2
#     Edge 32, Type (0, 1), BuildingBlock: EZIPEK_clean_linker_0, # of connection points: 2
#     Edge 33, Type (0, 1), BuildingBlock: EZIPEK_clean_linker_0, # of connection points: 2
#     Edge 34, Type (0, 1), BuildingBlock: EZIPEK_clean_linker_0, # of connection points: 2
#     Edge 35, Type (0, 1), BuildingBlock: EZIPEK_clean_linker_0, # of connection points: 2
#     Edge 36, Type (0, 1), BuildingBlock: EZIPEK_clean_linker_0, # of connection points: 2
#     Edge 37, Type (0, 1), BuildingBlock: EZIPEK_clean_linker_0, # of connection points: 2
#     Edge 38, Type (0, 1), BuildingBlock: EZIPEK_clean_linker_0, # of connection points: 2
#     Edge 39, Type (0, 1), BuildingBlock: EZIPEK_clean_linker_0, # of connection points: 2
#     Edge 40, Type (0, 1), BuildingBlock: EZIPEK_clean_linker_0, # of connection points: 2
#     Edge 41, Type (0, 1), BuildingBlock: EZIPEK_clean_linker_0, # of connection points: 2
#     Edge 42, Type (0, 1), BuildingBlock: EZIPEK_clean_linker_0, # of connection points: 2
#     Edge 43, Type (0, 1), BuildingBlock: EZIPEK_clean_linker_0, # of connection points: 2
#     Edge 44, Type (0, 1), BuildingBlock: EZIPEK_clean_linker_0, # of connection points: 2
#     Edge 45, Type (0, 1), BuildingBlock: EZIPEK_clean_linker_0, # of connection points: 2
#     Edge 46, Type (0, 1), BuildingBlock: EZIPEK_clean_linker_0, # of connection points: 2
#     Edge 47, Type (0, 1), BuildingBlock: EZIPEK_clean_linker_0, # of connection points: 2
#     Edge 48, Type (0, 1), BuildingBlock: EZIPEK_clean_linker_0, # of connection points: 2
#     Edge 49, Type (0, 1), BuildingBlock: EZIPEK_clean_linker_0, # of connection points: 2
#     Edge 50, Type (0, 1), BuildingBlock: EZIPEK_clean_linker_0, # of connection points: 2
#     Edge 51, Type (0, 1), BuildingBlock: EZIPEK_clean_linker_0, # of connection points: 2
#     Edge 52, Type (0, 1), BuildingBlock: EZIPEK_clean_linker_0, # of connection points: 2
#     Edge 53, Type (0, 1), BuildingBlock: EZIPEK_clean_linker_0, # of connection points: 2
#     Edge 54, Type (0, 1), BuildingBlock: EZIPEK_clean_linker_0, # of connection points: 2
#     Edge 55, Type (0, 1), BuildingBlock: EZIPEK_clean_linker_0, # of connection points: 2
#     Edge 56, Type (0, 1), BuildingBlock: EZIPEK_clean_linker_0, # of connection points: 2
#     Edge 57, Type (0, 1), BuildingBlock: EZIPEK_clean_linker_0, # of connection points: 2
#     Edge 58, Type (0, 1), BuildingBlock: EZIPEK_clean_linker_0, # of connection points: 2
#     Edge 59, Type (0, 1), BuildingBlock: EZIPEK_clean_linker_0, # of connection points: 2
#     Edge 60, Type (0, 1), BuildingBlock: EZIPEK_clean_linker_0, # of connection points: 2
#     Edge 61, Type (0, 1), BuildingBlock: EZIPEK_clean_linker_0, # of connection points: 2
#     Edge 62, Type (0, 1), BuildingBlock: EZIPEK_clean_linker_0, # of connection points: 2
#     Edge 63, Type (0, 1), BuildingBlock: EZIPEK_clean_linker_0, # of connection points: 2
#     Edge 64, Type (0, 1), BuildingBlock: EZIPEK_clean_linker_0, # of connection points: 2
#     Edge 65, Type (0, 1), BuildingBlock: EZIPEK_clean_linker_0, # of connection points: 2
#     Edge 66, Type (0, 1), BuildingBlock: EZIPEK_clean_linker_0, # of connection points: 2
#     Edge 67, Type (0, 1), BuildingBlock: EZIPEK_clean_linker_0, # of connection points: 2
#     Edge 68, Type (0, 1), BuildingBlock: EZIPEK_clean_linker_0, # of connection points: 2
#     Edge 69, Type (0, 1), BuildingBlock: EZIPEK_clean_linker_0, # of connection points: 2
#     Edge 70, Type (0, 1), BuildingBlock: EZIPEK_clean_linker_0, # of connection points: 2
#     Edge 71, Type (0, 1), BuildingBlock: EZIPEK_clean_linker_0, # of connection points: 2
#     Edge 72, Type (0, 1), BuildingBlock: EZIPEK_clean_linker_0, # of connection points: 2
#     Edge 73, Type (0, 1), BuildingBlock: EZIPEK_clean_linker_0, # of connection points: 2
#     Edge 74, Type (0, 1), BuildingBlock: EZIPEK_clean_linker_0, # of connection points: 2
#     Edge 75, Type (0, 1), BuildingBlock: EZIPEK_clean_linker_0, # of connection points: 2
#     Edge 76, Type (0, 1), BuildingBlock: EZIPEK_clean_linker_0, # of connection points: 2
#     Edge 77, Type (0, 1), BuildingBlock: EZIPEK_clean_linker_0, # of connection points: 2
#     Edge 78, Type (0, 1), BuildingBlock: EZIPEK_clean_linker_0, # of connection points: 2
#     Edge 79, Type (0, 1), BuildingBlock: EZIPEK_clean_linker_0, # of connection points: 2
#     Edge 80, Type (0, 1), BuildingBlock: EZIPEK_clean_linker_0, # of connection points: 2
# Relax obj value: 0.035
# Max RMSD: 0.128
# Mean RMSD: 0.085
data_MOF--net-eea--node1-WUSLED_clean_sbu_0--node2-CUWYAW_clean_sbu_0--edge1-EZIPEK_clean_linker_0
_symmetry_space_group_name_H-M    P1
_symmetry_Int_Tables_number       1
_symmetry_cell_setting            triclinic
loop_
_symmetry_equiv_pos_as_xyz
'x, y, z'
_cell_length_a     52.59411
_cell_length_b     52.092976
_cell_length_c     76.265477
_cell_angle_alpha  92.922972
_cell_angle_beta   93.221483
_cell_angle_gamma 119.83614
loop_
_atom_site_label
_atom_site_type_symbol
_atom_site_fract_x
_atom_site_fract_y
_atom_site_fract_z
_atom_type_partial_charge
C0 C 0.23643 0.18004 0.39423 0.0
C1 C 0.23548 0.20035 0.40665 0.0
C2 C 0.2267 0.22537 0.38296 0.0
C3 C 0.2306 0.22287 0.40104 0.0
C4 C 0.22857 0.20563 0.37059 0.0
C5 C 0.23338 0.1831 0.3762 0.0
U6 U 0.25332 0.13999 0.42972 0.0
O7 O 0.2301 0.09278 0.43468 0.0
O8 O 0.27614 0.11425 0.42857 0.0
C9 C 0.2526 0.08937 0.43156 0.0
C10 C 0.23932 0.15489 0.39983 0.0
C11 C 0.24563 0.06265 0.42012 0.0
C12 C 0.23615 0.036 0.3912 0.0
C13 C 0.24365 0.06216 0.40165 0.0
C14 C 0.23269 1.01078 0.41758 0.0
C15 C 0.23047 1.01012 0.39914 0.0
C16 C 0.24025 0.03687 0.42799 0.0
C17 C 0.27588 0.17373 0.4772 0.0
C18 C 0.28418 0.14696 0.49993 0.0
C19 C 0.29278 0.19669 0.50722 0.0
C20 C 0.28431 0.19789 0.4897 0.0
C21 C 0.29287 0.17127 0.51242 0.0
C22 C 0.27577 0.1482 0.48241 0.0
C23 C 0.26753 0.17541 0.45876 0.0
O24 O 0.26619 0.16091 0.40486 0.0
O25 O 0.21978 0.13788 0.41024 0.0
O26 O 0.24021 0.15598 0.45284 0.0
O27 O 0.28664 0.17789 0.4476 0.0
H28 H 0.23785 0.19837 0.42064 0.0
H29 H 0.22909 0.23785 0.41076 0.0
H30 H 0.22548 0.20716 0.3566 0.0
H31 H 0.23407 0.16765 0.36644 0.0
H32 H 0.23434 0.03577 0.37697 0.0
H33 H 0.2476 0.08183 0.39536 0.0
H34 H 0.22822 0.99097 0.4239 0.0
H35 H 0.24161 0.03684 0.44222 0.0
H36 H 0.2842 0.12722 0.50374 0.0
H37 H 0.29949 0.21564 0.5167 0.0
H38 H 0.28453 0.21775 0.48588 0.0
H39 H 0.26934 0.12935 0.47289 0.0
C40 C 0.96925 0.1869 0.40717 0.0
C41 C 0.99531 0.20085 0.41864 0.0
C42 C 1.02181 0.23277 0.39607 0.0
C43 C 1.02143 0.22355 0.41308 0.0
C44 C 0.99553 0.21962 0.38489 0.0
C45 C 0.96951 0.19684 0.39039 0.0
U46 U 0.913 0.14399 0.43995 0.0
O47 O 0.86475 0.11631 0.43576 0.0
O48 O 0.89116 0.09651 0.44434 0.0
C49 C 0.86482 0.09189 0.43925 0.0
C50 C 0.94209 0.16097 0.41194 0.0
C51 C 0.8463 0.06533 0.42692 0.0
C52 C 0.82856 0.04063 0.39724 0.0
C53 C 0.84655 0.06639 0.40855 0.0
C54 C 0.81009 1.01262 0.42252 0.0
C55 C 0.81027 1.01359 0.40419 0.0
C56 C 0.82795 0.03831 0.43379 0.0
C57 C 0.92186 0.17647 0.48723 0.0
C58 C 0.89417 0.14666 0.51019 0.0
C59 C 0.92035 0.20043 0.51502 0.0
C60 C 0.93007 0.20235 0.49818 0.0
C61 C 0.90237 0.17258 0.52115 0.0
C62 C 0.90373 0.14858 0.4933 0.0
C63 C 0.93202 0.17886 0.46947 0.0
O64 O 0.94565 0.1443 0.42309 0.0
O65 O 0.92022 0.16546 0.41506 0.0
O66 O 0.91485 0.18051 0.45692 0.0
O67 O 0.94163 0.16077 0.46482 0.0
H68 H 0.99568 0.19372 0.43169 0.0
H69 H 0.04152 0.23335 0.42186 0.0
H70 H 0.99543 0.22636 0.37169 0.0
H71 H 0.9497 0.18642 0.38134 0.0
H72 H 0.82905 0.04169 0.38311 0.0
H73 H 0.86066 0.08702 0.403 0.0
H74 H 0.79619 0.99192 0.42809 0.0
H75 H 0.82749 0.03708 0.44792 0.0
H76 H 0.88023 0.12499 0.51469 0.0
H77 H 0.92679 0.22064 0.52329 0.0
H78 H 0.94393 0.22404 0.49368 0.0
H79 H 0.89696 0.12834 0.48499 0.0
C80 C 0.86751 0.80446 0.40713 0.0
C81 C 0.83888 0.77975 0.40369 0.0
C82 C 0.81997 0.812 0.3954 0.0
C83 C 0.81533 0.78352 0.39784 0.0
C84 C 0.84839 0.83668 0.39899 0.0
C85 C 0.87195 0.83293 0.40473 0.0
U86 U 0.91172 0.78589 0.44072 0.0
O87 O 0.93549 0.76152 0.43711 0.0
O88 O 0.95964 0.80833 0.44781 0.0
C89 C 0.96136 0.78521 0.44176 0.0
C90 C 0.89308 0.80102 0.4126 0.0
C91 C 0.98467 0.79141 0.4299 0.0
C92 C 1.00058 0.78604 0.40122 0.0
C93 C 0.97799 0.78091 0.41192 0.0
C94 C 0.03679 0.81292 0.42616 0.0
C95 C 0.03013 0.80198 0.4083 0.0
C96 C 1.01424 0.80762 0.43686 0.0
C97 C 0.88056 0.76268 0.4855 0.0
C98 C 0.9033 0.74935 0.50929 0.0
C99 C 0.85734 0.74852 0.51273 0.0
C100 C 0.85757 0.75767 0.49582 0.0
C101 C 0.88016 0.74429 0.51958 0.0
C102 C 0.90351 0.75854 0.49231 0.0
C103 C 0.87984 0.77204 0.46771 0.0
O104 O 0.9119 0.82048 0.42522 0.0
O105 O 0.88782 0.77384 0.41429 0.0
O106 O 0.87579 0.75266 0.45457 0.0
O107 O 0.90001 0.79936 0.4654 0.0
H108 H 0.83465 0.75748 0.40531 0.0
H109 H 0.79355 0.76422 0.39501 0.0
H110 H 0.85239 0.85881 0.39708 0.0
H111 H 0.89376 0.85231 0.40713 0.0
H112 H 0.99504 0.77735 0.38749 0.0
H113 H 0.95536 0.76848 0.40618 0.0
H114 H 0.05946 0.82519 0.43186 0.0
H115 H 1.0199 0.81591 0.45067 0.0
H116 H 0.92102 0.74607 0.51439 0.0
H117 H 0.83931 0.74464 0.52047 0.0
H118 H 0.83969 0.76076 0.49076 0.0
H119 H 0.92143 0.7623 0.48448 0.0
C120 C 0.07216 0.23257 0.63748 0.0
C121 C 0.05815 0.24677 0.62994 0.0
C122 C 0.02443 0.23273 0.65334 0.0
C123 C 0.03402 0.24606 0.63742 0.0
C124 C 0.03635 0.21509 0.65906 0.0
C125 C 0.06028 0.21571 0.6516 0.0
U126 U 0.13027 0.25044 0.60388 0.0
O127 O 0.1786 0.27488 0.60939 0.0
O128 O 0.15562 0.22823 0.59849 0.0
C129 C 0.18076 0.25135 0.60505 0.0
C130 C 0.09955 0.23558 0.63139 0.0
C131 C 0.1992 0.24535 0.61756 0.0
C132 C 0.20478 0.21769 0.64082 0.0
C133 C 0.18683 0.22434 0.62994 0.0
C134 C 0.24768 0.25367 0.62752 0.0
C135 C 0.23527 0.23209 0.63951 0.0
C136 C 0.22976 0.26021 0.61662 0.0
C137 C 0.12275 0.27398 0.55807 0.0
C138 C 0.16296 0.29524 0.53928 0.0
C139 C 0.11321 0.27952 0.52732 0.0
C140 C 0.10305 0.2706 0.54375 0.0
C141 C 0.14323 0.29202 0.525 0.0
C142 C 0.15278 0.28618 0.55571 0.0
C143 C 0.11163 0.26471 0.57532 0.0
O144 O 0.09672 0.2161 0.61866 0.0
O145 O 0.12054 0.26278 0.62956 0.0
O146 O 0.12671 0.28381 0.58904 0.0
O147 O 0.1039 0.23719 0.57814 0.0
H148 H 0.06594 0.25856 0.61833 0.0
H149 H 0.02319 0.25576 0.63026 0.0
H150 H 0.0275 0.20063 0.66946 0.0
H151 H 0.0698 0.20324 0.65708 0.0
H152 H 0.19486 0.20092 0.64997 0.0
H153 H 0.1633 0.21271 0.63094 0.0
H154 H 0.27114 0.26488 0.6263 0.0
H155 H 0.23972 0.27649 0.60718 0.0
H156 H 0.18621 0.30482 0.5377 0.0
H157 H 0.09771 0.2769 0.51643 0.0
H158 H 0.07981 0.26115 0.54531 0.0
H159 H 0.16832 0.28881 0.56657 0.0
C160 C 0.81186 0.85912 0.65091 0.0
C161 C 0.79979 0.83142 0.64104 0.0
C162 C 0.82227 0.81465 0.66308 0.0
C163 C 0.80494 0.80926 0.64711 0.0
C164 C 0.83427 0.84234 0.67286 0.0
C165 C 0.82908 0.86436 0.66684 0.0
U166 U 0.78811 0.89674 0.61628 0.0
O167 O 0.76574 0.92255 0.62001 0.0
O168 O 0.81023 0.94401 0.61133 0.0
C169 C 0.78863 0.94751 0.61645 0.0
C170 C 0.80724 0.8831 0.64494 0.0
C171 C 0.79741 0.97375 0.6289 0.0
C172 C 0.81037 0.99844 0.65865 0.0
C173 C 0.80168 0.97299 0.64717 0.0
C174 C 0.81065 0.0256 0.63371 0.0
C175 C 0.815 0.02492 0.65196 0.0
C176 C 0.80188 1.00018 0.62227 0.0
C177 C 0.75792 0.8613 0.56895 0.0
C178 C 0.7612 0.8863 0.54232 0.0
C179 C 0.72288 0.83508 0.54321 0.0
C180 C 0.73342 0.83551 0.56056 0.0
C181 C 0.73685 0.86039 0.53391 0.0
C182 C 0.77158 0.88682 0.55973 0.0
C183 C 0.76917 0.86091 0.58711 0.0
O184 O 0.82457 0.89907 0.63328 0.0
O185 O 0.77977 0.8765 0.64151 0.0
O186 O 0.75207 0.85879 0.59955 0.0
O187 O 0.79715 0.88007 0.59174 0.0
H188 H 0.78653 0.82702 0.62867 0.0
H189 H 0.79562 0.78805 0.63936 0.0
H190 H 0.84775 0.84691 0.68517 0.0
H191 H 0.83862 0.8856 0.6746 0.0
H192 H 0.81381 0.99762 0.6727 0.0
H193 H 0.79845 0.95281 0.65253 0.0
H194 H 0.81426 0.04588 0.62833 0.0
H195 H 0.79875 1.0012 0.60821 0.0
H196 H 0.7722 0.90607 0.53538 0.0
H197 H 0.70401 0.81492 0.53696 0.0
H198 H 0.72254 0.81561 0.56742 0.0
H199 H 0.79039 0.90709 0.56589 0.0
C200 C 0.07415 0.85802 0.64411 0.0
C201 C 0.0598 0.8295 0.63524 0.0
C202 C 0.02627 0.80997 0.65861 0.0
C203 C 0.03565 0.80604 0.64208 0.0
C204 C 0.03863 0.83981 0.66588 0.0
C205 C 0.06263 0.86319 0.65907 0.0
U206 U 0.1307 0.89702 0.61025 0.0
O207 O 0.15537 0.94455 0.60597 0.0
O208 O 0.17908 0.92206 0.61466 0.0
C209 C 0.18096 0.94734 0.61112 0.0
C210 C 0.10126 0.88264 0.63832 0.0
C211 C 0.20073 0.97337 0.62353 0.0
C212 C 0.2141 1.00072 0.65253 0.0
C213 C 0.1947 0.97562 0.64107 0.0
C214 C 0.24563 0.0214 0.62903 0.0
C215 C 0.23968 0.02378 0.64655 0.0
C216 C 0.2263 0.99639 0.61762 0.0
C217 C 0.12146 0.86232 0.56333 0.0
C218 C 0.15964 0.88459 0.54329 0.0
C219 C 0.11277 0.84108 0.53295 0.0
C220 C 0.10299 0.84078 0.54968 0.0
C221 C 0.14118 0.86293 0.52966 0.0
C222 C 0.14983 0.88432 0.56002 0.0
C223 C 0.11093 0.86151 0.58091 0.0
O224 O 0.12239 0.87686 0.63545 0.0
O225 O 0.09781 0.89835 0.62645 0.0
O226 O 0.10316 0.88133 0.58489 0.0
O227 O 0.12674 0.85891 0.59393 0.0
H228 H 0.06728 0.82533 0.62303 0.0
H229 H 0.02451 0.78526 0.63395 0.0
H230 H 0.02995 0.84567 0.67691 0.0
H231 H 0.07236 0.88541 0.66562 0.0
H232 H 0.20917 1.00222 0.66601 0.0
H233 H 0.17507 0.95804 0.64586 0.0
H234 H 0.26522 0.03897 0.6242 0.0
H235 H 0.23131 0.99502 0.60413 0.0
H236 H 0.18163 0.9016 0.54096 0.0
H237 H 0.09827 0.8242 0.52258 0.0
H238 H 0.08103 0.82367 0.55199 0.0
H239 H 0.16437 0.90118 0.57038 0.0
C240 C 0.90296 0.51441 0.72877 0.0
C241 C 0.90067 0.53378 0.74126 0.0
C242 C 0.8936 0.56006 0.71772 0.0
C243 C 0.89594 0.55644 0.73575 0.0
C244 C 0.89677 0.54127 0.70531 0.0
C245 C 0.90139 0.51857 0.7108 0.0
U246 U 0.92015 0.47386 0.76381 0.0
O247 O 0.89675 0.42652 0.76855 0.0
O248 O 0.94273 0.44794 0.76229 0.0
C249 C 0.91905 0.42299 0.76503 0.0
C250 C 0.90579 0.48912 0.73418 0.0
C251 C 0.9117 0.3965 0.75318 0.0
C252 C 0.91006 0.37264 0.72453 0.0
C253 C 0.91733 0.39836 0.73535 0.0
C254 C 0.89131 0.34301 0.74918 0.0
C255 C 0.89694 0.34483 0.7314 0.0
C256 C 0.8987 0.36867 0.75999 0.0
C257 C 0.94368 0.50751 0.81133 0.0
C258 C 0.95649 0.48289 0.83349 0.0
C259 C 0.95681 0.52861 0.84182 0.0
C260 C 0.94812 0.52972 0.82434 0.0
C261 C 0.96116 0.50527 0.84647 0.0
C262 C 0.94776 0.48398 0.816 0.0
C263 C 0.93494 0.50912 0.79296 0.0
O264 O 0.93267 0.49496 0.73897 0.0
O265 O 0.8864 0.4721 0.74465 0.0
O266 O 0.90752 0.48971 0.78724 0.0
O267 O 0.95378 0.5116 0.78162 0.0
H268 H 0.90191 0.53096 0.7552 0.0
H269 H 0.89342 0.5707 0.74549 0.0
H270 H 0.89489 0.54369 0.69135 0.0
H271 H 0.90314 0.50387 0.701 0.0
H272 H 0.91437 0.37434 0.7108 0.0
H273 H 0.92722 0.41959 0.7298 0.0
H274 H 0.88107 0.32169 0.75464 0.0
H275 H 0.89416 0.36678 0.77369 0.0
H276 H 0.95981 0.46476 0.83689 0.0
H277 H 0.96039 0.54606 0.85171 0.0
H278 H 0.94502 0.54799 0.82094 0.0
H279 H 0.94436 0.46662 0.80611 0.0
C280 C 0.6368 0.51923 0.74005 0.0
C281 C 0.66357 0.53282 0.75086 0.0
C282 C 0.68874 0.56432 0.72779 0.0
C283 C 0.68935 0.55514 0.74474 0.0
C284 C 0.66187 0.55137 0.71722 0.0
C285 C 0.63617 0.52898 0.72329 0.0
U286 U 0.58011 0.47779 0.77332 0.0
O287 O 0.53184 0.45058 0.76875 0.0
O288 O 0.5576 0.43035 0.77783 0.0
C289 C 0.53147 0.42602 0.77245 0.0
C290 C 0.6097 0.49386 0.74541 0.0
C291 C 0.51307 0.39948 0.76009 0.0
C292 C 0.49714 0.37435 0.73046 0.0
C293 C 0.51482 0.40016 0.74179 0.0
C294 C 0.47595 0.34706 0.75558 0.0
C295 C 0.47767 0.34764 0.73732 0.0
C296 C 0.4935 0.37281 0.76688 0.0
C297 C 0.5878 0.51068 0.82048 0.0
C298 C 0.54771 0.49446 0.83937 0.0
C299 C 0.59831 0.52179 0.85231 0.0
C300 C 0.60809 0.52348 0.83548 0.0
C301 C 0.56805 0.50739 0.85437 0.0
C302 C 0.5575 0.49595 0.82256 0.0
C303 C 0.59858 0.51266 0.80285 0.0
O304 O 0.61319 0.47771 0.75697 0.0
O305 O 0.58796 0.49871 0.74824 0.0
O306 O 0.58242 0.51485 0.78986 0.0
O307 O 0.60784 0.49412 0.79865 0.0
H308 H 0.66469 0.52582 0.76387 0.0
H309 H 0.70989 0.56489 0.75309 0.0
H310 H 0.66096 0.55815 0.70412 0.0
H311 H 0.61583 0.51881 0.71471 0.0
H312 H 0.49881 0.3751 0.71638 0.0
H313 H 0.52989 0.42052 0.73632 0.0
H314 H 0.46114 0.32662 0.76109 0.0
H315 H 0.49191 0.37187 0.78096 0.0
H316 H 0.52429 0.48321 0.84071 0.0
H317 H 0.61431 0.53181 0.86373 0.0
H318 H 0.63153 0.5348 0.83417 0.0
H319 H 0.5414 0.48566 0.8112 0.0
C320 C 0.53393 0.13368 0.73967 0.0
C321 C 0.50546 0.1093 0.73492 0.0
C322 C 0.48732 0.14269 0.72784 0.0
C323 C 0.48238 0.1138 0.72904 0.0
C324 C 0.51556 0.16703 0.73273 0.0
C325 C 0.53866 0.16257 0.73851 0.0
U326 U 0.5771 0.11367 0.77321 0.0
O327 O 0.59993 0.08834 0.76929 0.0
O328 O 0.62481 0.13485 0.78041 0.0
C329 C 0.62601 0.11144 0.77434 0.0
C330 C 0.55907 0.12944 0.7451 0.0
C331 C 0.64926 0.1174 0.76257 0.0
C332 C 0.66916 0.12919 0.73413 0.0
C333 C 0.64622 0.12249 0.74486 0.0
C334 C 0.69821 0.12556 0.75867 0.0
C335 C 0.69537 0.13094 0.74103 0.0
C336 C 0.67531 0.11881 0.76935 0.0
C337 C 0.54492 0.09182 0.81817 0.0
C338 C 0.56244 0.0729 0.84164 0.0
C339 C 0.52257 0.08265 0.84588 0.0
C340 C 0.52431 0.09208 0.82895 0.0
C341 C 0.54147 0.07284 0.85231 0.0
C342 C 0.56418 0.08239 0.82462 0.0
C343 C 0.54523 0.10099 0.80022 0.0
O344 O 0.5783 0.14867 0.75766 0.0
O345 O 0.55306 0.10203 0.74683 0.0
O346 O 0.54086 0.08122 0.78723 0.0
O347 O 0.56599 0.12802 0.79786 0.0
H348 H 0.50102 0.08673 0.73551 0.0
H349 H 0.46076 0.09476 0.72519 0.0
H350 H 0.51981 0.18948 0.73176 0.0
H351 H 0.56036 0.18176 0.74189 0.0
H352 H 0.66672 0.13351 0.72058 0.0
H353 H 0.6263 0.12163 0.73942 0.0
H354 H 0.71835 0.12702 0.76424 0.0
H355 H 0.67808 0.11504 0.78299 0.0
H356 H 0.5771 0.06526 0.84639 0.0
H357 H 0.50621 0.08264 0.8539 0.0
H358 H 0.50928 0.09928 0.82418 0.0
H359 H 0.58025 0.08208 0.81646 0.0
C360 C 0.74528 0.56586 0.97289 0.0
C361 C 0.73335 0.58335 0.96739 0.0
C362 C 0.69209 0.55716 0.9849 0.0
C363 C 0.70695 0.57907 0.97341 0.0
C364 C 0.70387 0.53954 0.99025 0.0
C365 C 0.7303 0.54392 0.98431 0.0
U366 U 0.80232 0.5865 0.93896 0.0
O367 O 0.85071 0.6115 0.94319 0.0
O368 O 0.82783 0.56513 0.93183 0.0
C369 C 0.85306 0.5883 0.93819 0.0
C370 C 0.7733 0.57015 0.96705 0.0
C371 C 0.87161 0.5819 0.95028 0.0
C372 C 0.8825 0.56895 0.97884 0.0
C373 C 0.86496 0.57573 0.9677 0.0
C374 C 0.91347 0.57453 0.95528 0.0
C375 C 0.90681 0.56822 0.97265 0.0
C376 C 0.896 0.58136 0.94418 0.0
C377 C 0.78736 0.60981 0.89403 0.0
C378 C 0.82085 0.62554 0.87096 0.0
C379 C 0.77314 0.62182 0.86614 0.0
C380 C 0.76678 0.61258 0.88301 0.0
C381 C 0.8002 0.62844 0.86 0.0
C382 C 0.81445 0.61624 0.88792 0.0
C383 C 0.77991 0.60025 0.91179 0.0
O384 O 0.77099 0.55119 0.95415 0.0
O385 O 0.79372 0.59768 0.96533 0.0
O386 O 0.7966 0.61957 0.92508 0.0
O387 O 0.77373 0.57298 0.91409 0.0
H388 H 0.74445 0.6003 0.9585 0.0
H389 H 0.69804 0.59274 0.9691 0.0
H390 H 0.69261 0.52246 0.99904 0.0
H391 H 0.7391 0.53017 0.98866 0.0
H392 H 0.87698 0.56396 0.99219 0.0
H393 H 0.84611 0.57593 0.9726 0.0
H394 H 0.93205 0.57391 0.95028 0.0
H395 H 0.90139 0.58597 0.93076 0.0
H396 H 0.84187 0.63062 0.86642 0.0
H397 H 0.75699 0.62399 0.85787 0.0
H398 H 0.74577 0.60768 0.8875 0.0
H399 H 0.83059 0.61418 0.89626 0.0
C400 C 0.47611 0.19379 0.97935 0.0
C401 C 0.47962 0.17489 0.96715 0.0
C402 C 0.48786 0.15001 0.99113 0.0
C403 C 0.48554 0.15317 0.97302 0.0
C404 C 0.48373 0.16848 1.00326 0.0
C405 C 0.47794 0.19023 0.9974 0.0
U406 U 0.44971 0.2297 0.94531 0.0
O407 O 0.42647 0.25455 0.94941 0.0
O408 O 0.47012 0.27651 0.9396 0.0
C409 C 0.44864 0.27963 0.94535 0.0
C410 C 0.47126 0.21778 0.97367 0.0
C411 C 0.4579 0.30576 0.95795 0.0
C412 C 0.47611 0.3313 0.98738 0.0
C413 C 0.46655 0.3059 0.97572 0.0
C414 C 0.46837 0.35661 0.96364 0.0
C415 C 0.47721 0.35684 0.98138 0.0
C416 C 0.45874 0.3312 0.95201 0.0
C417 C 0.4153 0.19064 0.89932 0.0
C418 C 0.39677 0.21165 0.87785 0.0
C419 C 0.39195 0.16379 0.87076 0.0
C420 C 0.40642 0.16603 0.88722 0.0
C421 C 0.38432 0.18532 0.8662 0.0
C422 C 0.41121 0.21388 0.89434 0.0
C423 C 0.42908 0.19193 0.91693 0.0
O424 O 0.48752 0.23336 0.96148 0.0
O425 O 0.44366 0.21113 0.97109 0.0
O426 O 0.41332 0.19019 0.93007 0.0
O427 O 0.45696 0.21249 0.92024 0.0
H428 H 0.47816 0.17719 0.95315 0.0
H429 H 0.48867 0.13907 0.9635 0.0
H430 H 0.48546 0.16633 1.01727 0.0
H431 H 0.47524 0.20455 1.007 0.0
H432 H 0.48305 0.33121 1.00101 0.0
H433 H 0.46618 0.28649 0.98052 0.0
H434 H 0.46927 0.3762 0.95878 0.0
H435 H 0.45223 0.3315 0.93832 0.0
H436 H 0.39632 0.23124 0.87444 0.0
H437 H 0.38748 0.14517 0.86167 0.0
H438 H 0.4108 0.14849 0.89046 0.0
H439 H 0.41938 0.23389 0.90317 0.0
C440 C 0.73982 0.19304 0.97621 0.0
C441 C 0.73134 0.16308 0.97188 0.0
C442 C 0.68639 0.14707 0.98633 0.0
C443 C 0.70483 0.14027 0.97696 0.0
C444 C 0.69464 0.17691 0.99044 0.0
C445 C 0.72117 0.19969 0.98546 0.0
U446 U 0.79922 0.23209 0.9443 0.0
O447 O 0.82445 0.27959 0.93991 0.0
O448 O 0.84748 0.25674 0.94928 0.0
C449 C 0.84969 0.28218 0.94573 0.0
C450 C 0.76814 0.21771 0.97165 0.0
C451 C 0.86897 0.30828 0.95831 0.0
C452 C 0.89352 0.33068 0.98761 0.0
C453 C 0.87396 0.30556 0.97626 0.0
C454 C 0.90291 0.36157 0.96335 0.0
C455 C 0.9082 0.3588 0.98119 0.0
C456 C 0.8835 0.3365 0.952 0.0
C457 C 0.79016 0.19697 0.89746 0.0
C458 C 0.82875 0.21789 0.8776 0.0
C459 C 0.78067 0.17642 0.8669 0.0
C460 C 0.77104 0.17632 0.88365 0.0
C461 C 0.80959 0.19718 0.86379 0.0
C462 C 0.81907 0.21784 0.89434 0.0
C463 C 0.77961 0.19656 0.91498 0.0
O464 O 0.78932 0.2117 0.96941 0.0
O465 O 0.7663 0.23447 0.95991 0.0
O466 O 0.77222 0.21673 0.91876 0.0
O467 O 0.79511 0.19379 0.92812 0.0
H468 H 0.74522 0.1573 0.96467 0.0
H469 H 0.69872 0.11733 0.97362 0.0
H470 H 0.68063 0.18254 0.99763 0.0
H471 H 0.72725 0.22259 0.98894 0.0
H472 H 0.8973 0.32821 1.00137 0.0
H473 H 0.86296 0.28406 0.98146 0.0
H474 H 0.914 0.38312 0.9582 0.0
H475 H 0.88001 0.33909 0.93822 0.0
H476 H 0.85113 0.23407 0.87539 0.0
H477 H 0.76564 0.16031 0.85638 0.0
H478 H 0.74865 0.16012 0.88582 0.0
H479 H 0.83411 0.23402 0.90484 0.0
C480 C 0.56219 0.84491 0.06369 0.0
C481 C 0.56105 0.8645 0.07656 0.0
C482 C 0.55292 0.89105 0.05363 0.0
C483 C 0.55635 0.88739 0.07155 0.0
C484 C 0.55488 0.87197 0.04079 0.0
C485 C 0.55945 0.84901 0.0458 0.0
U486 U 0.58035 0.80532 0.09851 0.0
O487 O 0.55784 0.7582 0.10363 0.0
O488 O 0.60378 0.78022 0.09726 0.0
C489 C 0.58051 0.75518 0.10033 0.0
C490 C 0.56535 0.81969 0.06876 0.0
C491 C 0.57372 0.72863 0.08881 0.0
C492 C 0.56571 0.70265 0.05983 0.0
C493 C 0.57238 0.72849 0.07035 0.0
C494 C 0.5615 0.67701 0.08611 0.0
C495 C 0.56017 0.67676 0.0677 0.0
C496 C 0.56823 0.70276 0.09659 0.0
C497 C 0.60371 0.84001 0.14581 0.0
C498 C 0.62185 0.81936 0.1678 0.0
C499 C 0.61163 0.85844 0.17667 0.0
C500 C 0.60294 0.85914 0.15911 0.0
C501 C 0.62126 0.83865 0.18108 0.0
C502 C 0.61302 0.81995 0.15025 0.0
C503 C 0.59468 0.84105 0.1274 0.0
O504 O 0.59238 0.82592 0.0735 0.0
O505 O 0.54615 0.80243 0.07925 0.0
O506 O 0.56735 0.82114 0.12179 0.0
O507 O 0.61356 0.84377 0.11602 0.0
H508 H 0.56324 0.86173 0.09045 0.0
H509 H 0.5548 0.90188 0.0816 0.0
H510 H 0.55217 0.87447 0.02691 0.0
H511 H 0.56034 0.83414 0.03571 0.0
H512 H 0.56478 0.70277 0.04561 0.0
H513 H 0.57645 0.74825 0.06412 0.0
H514 H 0.5573 0.65722 0.09237 0.0
H515 H 0.56912 0.70247 0.1108 0.0
H516 H 0.62925 0.80397 0.17102 0.0
H517 H 0.61112 0.87349 0.1868 0.0
H518 H 0.59572 0.87467 0.15591 0.0
H519 H 0.61358 0.80489 0.14014 0.0
C520 C 0.30169 0.85085 0.07315 0.0
C521 C 0.32032 0.87581 0.08494 0.0
C522 C 0.35412 0.89714 0.06237 0.0
C523 C 0.3464 0.89885 0.07957 0.0
C524 C 0.33527 0.87234 0.05057 0.0
C525 C 0.30924 0.84937 0.05594 0.0
U526 U 0.2466 0.81145 0.10717 0.0
O527 O 0.1983 0.78417 0.10339 0.0
O528 O 0.22446 0.76436 0.11245 0.0
C529 C 0.19819 0.75978 0.1072 0.0
C530 C 0.27475 0.8258 0.07863 0.0
C531 C 0.17994 0.73325 0.09484 0.0
C532 C 0.16463 0.70833 0.06516 0.0
C533 C 0.18207 0.73404 0.07658 0.0
C534 C 0.14289 0.68085 0.09013 0.0
C535 C 0.14502 0.68157 0.0719 0.0
C536 C 0.16022 0.70653 0.10152 0.0
C537 C 0.25613 0.84609 0.1539 0.0
C538 C 0.22821 0.81727 0.17713 0.0
C539 C 0.25484 0.87109 0.18137 0.0
C540 C 0.26457 0.87233 0.16455 0.0
C541 C 0.23663 0.84354 0.18778 0.0
C542 C 0.23777 0.81852 0.16028 0.0
C543 C 0.26624 0.84771 0.13614 0.0
O544 O 0.27886 0.8104 0.09045 0.0
O545 O 0.25338 0.83111 0.08174 0.0
O546 O 0.24911 0.84901 0.12341 0.0
O547 O 0.27561 0.82927 0.13188 0.0
H548 H 0.31484 0.87728 0.0983 0.0
H549 H 0.36074 0.91782 0.08885 0.0
H550 H 0.34091 0.87063 0.03729 0.0
H551 H 0.29513 0.83026 0.04668 0.0
H552 H 0.16661 0.70918 0.05111 0.0
H553 H 0.19728 0.75445 0.0712 0.0
H554 H 0.12796 0.66035 0.09554 0.0
H555 H 0.15834 0.70552 0.11558 0.0
H556 H 0.21409 0.79583 0.18184 0.0
H557 H 0.26145 0.89157 0.18938 0.0
H558 H 0.27861 0.89379 0.15983 0.0
H559 H 0.23081 0.798 0.15221 0.0
C560 C 0.20204 0.46632 0.07225 0.0
C561 C 0.19111 0.47922 0.08409 0.0
C562 C 0.1553 0.47521 0.06091 0.0
C563 C 0.16799 0.48378 0.07842 0.0
C564 C 0.16567 0.46156 0.04923 0.0
C565 C 0.18892 0.45724 0.05486 0.0
U566 U 0.24585 0.44799 0.10601 0.0
O567 O 0.26881 0.42267 0.10216 0.0
O568 O 0.29344 0.46927 0.11321 0.0
C569 C 0.29481 0.446 0.10702 0.0
C570 C 0.22732 0.46258 0.07762 0.0
C571 C 0.31801 0.45199 0.09516 0.0
C572 C 0.35091 0.48191 0.07395 0.0
C573 C 0.32729 0.47517 0.08405 0.0
C574 C 0.35548 0.44165 0.08533 0.0
C575 C 0.36533 0.46539 0.07469 0.0
C576 C 0.33202 0.43504 0.09552 0.0
C577 C 0.21553 0.42724 0.15136 0.0
C578 C 0.22298 0.3975 0.17244 0.0
C579 C 0.20283 0.42852 0.1814 0.0
C580 C 0.20484 0.43813 0.16451 0.0
C581 C 0.21145 0.40782 0.18541 0.0
C582 C 0.22511 0.40722 0.1555 0.0
C583 C 0.2148 0.4359 0.13332 0.0
O584 O 0.24673 0.48223 0.08996 0.0
O585 O 0.221 0.43523 0.07978 0.0
O586 O 0.20994 0.41595 0.12033 0.0
O587 O 0.23505 0.46298 0.1306 0.0
H588 H 0.20069 0.48616 0.09763 0.0
H589 H 0.16029 0.49439 0.08759 0.0
H590 H 0.15617 0.45486 0.03567 0.0
H591 H 0.19694 0.44714 0.04555 0.0
H592 H 0.35831 0.50035 0.06583 0.0
H593 H 0.31672 0.48846 0.08347 0.0
H594 H 0.36648 0.42877 0.08609 0.0
H595 H 0.3252 0.41708 0.10398 0.0
H596 H 0.22962 0.38141 0.17532 0.0
H597 H 0.19378 0.43661 0.19124 0.0
H598 H 0.19733 0.45354 0.16157 0.0
H599 H 0.23354 0.3986 0.14557 0.0
C600 C 0.40805 0.90567 0.30467 0.0
C601 C 0.3811 0.88935 0.29413 0.0
C602 C 0.35521 0.89642 0.3177 0.0
C603 C 0.35487 0.8847 0.30063 0.0
C604 C 0.3822 0.91349 0.32799 0.0
C605 C 0.40836 0.918 0.32154 0.0
U606 U 0.46642 0.92255 0.27146 0.0
O607 O 0.51469 0.94598 0.27674 0.0
O608 O 0.49079 0.89933 0.26587 0.0
C609 C 0.51626 0.92215 0.27222 0.0
C610 C 0.43577 0.90861 0.29901 0.0
C611 C 0.53425 0.91544 0.28458 0.0
C612 C 0.54383 0.90126 0.31306 0.0
C613 C 0.52671 0.90842 0.30178 0.0
C614 C 0.57614 0.90825 0.29007 0.0
C615 C 0.56859 0.90103 0.30721 0.0
C616 C 0.55911 0.91543 0.27885 0.0
C617 C 0.45801 0.94578 0.22556 0.0
C618 C 0.49734 0.96634 0.20612 0.0
C619 C 0.44761 0.95258 0.1952 0.0
C620 C 0.43803 0.94343 0.21171 0.0
C621 C 0.47735 0.96429 0.19234 0.0
C622 C 0.48772 0.95706 0.22262 0.0
C623 C 0.44756 0.93682 0.24298 0.0
O624 O 0.43337 0.88883 0.2866 0.0
O625 O 0.45696 0.93571 0.29715 0.0
O626 O 0.46327 0.95604 0.25653 0.0
O627 O 0.43959 0.90928 0.24587 0.0
H628 H 0.3802 0.87963 0.28105 0.0
H629 H 0.33422 0.87143 0.29252 0.0
H630 H 0.38289 0.92266 0.3412 0.0
H631 H 0.42882 0.93057 0.32993 0.0
H632 H 0.53761 0.89556 0.32622 0.0
H633 H 0.50751 0.90822 0.30639 0.0
H634 H 0.59507 0.90803 0.28533 0.0
H635 H 0.5652 0.9207 0.26562 0.0
H636 H 0.52037 0.97533 0.20412 0.0
H637 H 0.43193 0.95088 0.18472 0.0
H638 H 0.41504 0.93474 0.21371 0.0
H639 H 0.50346 0.95894 0.23313 0.0
C640 C 0.14266 0.52154 0.31373 0.0
C641 C 0.15209 0.50637 0.30244 0.0
C642 C 0.15378 0.47771 0.32628 0.0
C643 C 0.15769 0.48463 0.30871 0.0
C644 C 0.14353 0.49222 0.33735 0.0
C645 C 0.13806 0.51398 0.33113 0.0
U646 U 0.11849 0.5598 0.27986 0.0
O647 O 0.13984 0.60685 0.27468 0.0
O648 O 0.09593 0.58536 0.28418 0.0
C649 C 0.11842 0.61029 0.28025 0.0
C650 C 0.13871 0.54615 0.30805 0.0
C651 C 0.12748 0.63665 0.29265 0.0
C652 C 0.15648 0.6693 0.31878 0.0
C653 C 0.14738 0.64346 0.30759 0.0
C654 C 0.12553 0.68147 0.3004 0.0
C655 C 0.1457 0.68853 0.31519 0.0
C656 C 0.11651 0.65571 0.28921 0.0
C657 C 0.08416 0.52237 0.23356 0.0
C658 C 0.06687 0.54484 0.21238 0.0
C659 C 0.06028 0.49632 0.2049 0.0
C660 C 0.07453 0.4978 0.2213 0.0
C661 C 0.05363 0.51864 0.20057 0.0
C662 C 0.08108 0.5463 0.2288 0.0
C663 C 0.09759 0.52283 0.25113 0.0
O664 O 0.15551 0.56195 0.29611 0.0
O665 O 0.11138 0.54036 0.3054 0.0
O666 O 0.08179 0.52106 0.26425 0.0
O667 O 0.12559 0.54288 0.25464 0.0
H668 H 0.15568 0.51169 0.28893 0.0
H669 H 0.16565 0.47367 0.3 0.0
H670 H 0.14049 0.48723 0.35095 0.0
H671 H 0.1308 0.52538 0.34004 0.0
H672 H 0.17207 0.67445 0.33014 0.0
H673 H 0.15606 0.62898 0.31048 0.0
H674 H 0.11703 0.69607 0.29744 0.0
H675 H 0.10115 0.65082 0.27775 0.0
H676 H 0.0672 0.56488 0.20914 0.0
H677 H 0.05516 0.47763 0.19568 0.0
H678 H 0.07812 0.47969 0.22436 0.0
H679 H 0.08983 0.56625 0.23776 0.0
C680 C 0.4088 0.51886 0.30869 0.0
C681 C 0.38217 0.51065 0.29883 0.0
C682 C 0.35499 0.46841 0.31641 0.0
C683 C 0.35574 0.48654 0.30294 0.0
C684 C 0.38164 0.47902 0.3273 0.0
C685 C 0.40809 0.50329 0.32327 0.0
U686 U 0.46839 0.56179 0.27755 0.0
O687 O 0.49321 0.60962 0.27426 0.0
O688 O 0.51672 0.58687 0.28286 0.0
C689 C 0.51866 0.61231 0.27967 0.0
C690 C 0.43708 0.54457 0.30475 0.0
C691 C 0.53781 0.63794 0.29247 0.0
C692 C 0.54795 0.66609 0.32096 0.0
C693 C 0.52957 0.64085 0.30934 0.0
C694 C 0.58296 0.6855 0.29903 0.0
C695 C 0.5747 0.68866 0.31581 0.0
C696 C 0.56465 0.66034 0.28746 0.0
C697 C 0.45981 0.52965 0.22976 0.0
C698 C 0.49911 0.54873 0.21024 0.0
C699 C 0.44939 0.51201 0.19859 0.0
C700 C 0.43983 0.51161 0.2154 0.0
C701 C 0.47912 0.53045 0.19592 0.0
C702 C 0.48951 0.54841 0.22705 0.0
C703 C 0.44935 0.52827 0.24743 0.0
O704 O 0.45841 0.53902 0.30199 0.0
O705 O 0.4355 0.56257 0.29382 0.0
O706 O 0.44166 0.54797 0.2519 0.0
O707 O 0.4649 0.52486 0.26025 0.0
H708 H 0.38156 0.52316 0.28805 0.0
H709 H 0.3361 0.48331 0.29563 0.0
H710 H 0.38244 0.4693 0.33933 0.0
H711 H 0.42804 0.51017 0.33175 0.0
H712 H 0.54124 0.66819 0.33387 0.0
H713 H 0.5089 0.62378 0.31342 0.0
H714 H 0.60347 0.70268 0.29483 0.0
H715 H 0.57133 0.65848 0.27449 0.0
H716 H 0.52212 0.5631 0.2084 0.0
H717 H 0.43369 0.49776 0.1877 0.0
H718 H 0.41684 0.49703 0.21722 0.0
H719 H 0.50526 0.56258 0.23795 0.0
C720 C 0.55186 0.04387 0.07654 0.0
Eu721 Eu 0.53423 0.03625 0.04303 0.0
C722 C 0.5397 0.03078 0.09293 0.0
C723 C 0.51011 0.02064 0.09575 0.0
C724 C 0.49936 1.00904 0.11163 0.0
C725 C 0.51796 1.00715 0.12481 0.0
C726 C 0.54731 1.01666 0.12183 0.0
C727 C 0.55809 0.02844 0.10603 0.0
C728 C 0.51838 0.06847 0.02296 0.0
C729 C 0.46424 0.98415 0.03679 0.0
C730 C 0.48938 0.99765 0.97165 0.0
Eu731 Eu 0.50647 1.00666 1.00528 0.0
C732 C 0.50106 1.01052 0.955 0.0
C733 C 0.51188 0.99674 0.9437 0.0
C734 C 0.52102 1.00741 0.9274 0.0
C735 C 0.51921 0.03185 0.92201 0.0
C736 C 0.50902 0.04607 0.93338 0.0
C737 C 0.50001 0.03552 0.94973 0.0
C738 C 0.52219 0.97448 0.02539 0.0
C739 C 0.57635 0.05942 1.01164 0.0
O740 O 0.55581 0.02691 0.06509 0.0
O741 O 0.54125 0.05911 0.06911 0.0
O742 O 0.53942 0.07991 0.03575 0.0
O743 O 0.5046 0.04044 0.02305 0.0
O744 O 0.48736 1.00278 0.04772 0.0
O745 O 0.46524 0.98274 1.01944 0.0
O746 O 0.48356 1.01347 0.98288 0.0
O747 O 0.50124 0.98379 0.97944 0.0
O748 O 0.50085 0.96305 1.01281 0.0
O749 O 0.53617 1.0025 0.02518 0.0
O750 O 0.55309 0.04121 1.00064 0.0
O751 O 0.57544 0.0602 0.02899 0.0
H752 H 0.49539 0.02191 0.08576 0.0
H753 H 0.47663 1.0017 0.1137 0.0
H754 H 0.56193 1.01533 0.13186 0.0
H755 H 0.58091 0.03595 0.10407 0.0
H756 H 0.51275 0.97733 0.94729 0.0
H757 H 0.52876 0.99613 0.91876 0.0
H758 H 0.50742 0.06493 0.9294 0.0
H759 H 0.49169 0.0466 0.95805 0.0
C760 C 1.0092 0.53497 0.07331 0.0
Eu761 Eu 1.0179 0.52193 0.04159 0.0
C762 C 1.0132 0.52916 0.09173 0.0
C763 C 0.99093 0.52333 0.10285 0.0
C764 C 0.99491 0.51977 0.12066 0.0
C765 C 1.02135 0.52219 0.12768 0.0
C766 C 0.0435 0.52748 0.11654 0.0
C767 C 0.03943 0.53085 0.09866 0.0
C768 C 0.99229 0.46785 0.02287 0.0
C769 C 0.06661 0.50315 0.03488 0.0
C770 C 0.04306 0.51662 0.97103 0.0
Eu771 Eu 0.03777 0.52282 1.0045 0.0
C772 C 0.02745 0.51337 0.95354 0.0
C773 C 0.02996 0.53846 0.94586 0.0
C774 C 1.01754 0.53572 0.9287 0.0
C775 C 1.00243 0.50794 0.91891 0.0
C776 C 0.99928 0.48273 0.92659 0.0
C777 C 1.01178 0.48544 0.94376 0.0
C778 C 0.07377 0.57148 0.0272 0.0
C779 C 0.98603 0.53842 1.00988 0.0
O780 O 0.03314 0.55149 0.06571 0.0
O781 O 0.98879 0.51278 0.06269 0.0
O782 O 0.99885 0.472 0.03983 0.0
O783 O 0.99787 0.49204 1.01687 0.0
O784 O 0.05808 0.51674 0.04628 0.0
O785 O 0.05677 0.49774 1.01802 0.0
O786 O 0.0315 0.49418 0.98078 0.0
O787 O 0.05442 0.5424 0.98027 0.0
O788 O 0.08324 0.56007 1.01558 0.0
O789 O 0.04608 0.55764 0.02564 0.0
O790 O 1.00256 0.53465 0.99881 0.0
O791 O 0.98791 0.53509 0.02692 0.0
H792 H 0.97059 0.522 0.09781 0.0
H793 H 0.97756 0.51561 0.12907 0.0
H794 H 0.06398 0.52929 0.12173 0.0
H795 H 0.05695 0.53523 0.09035 0.0
H796 H 0.04209 0.56036 0.95291 0.0
H797 H 1.02023 0.55539 0.92291 0.0
H798 H 0.98777 0.46114 0.91914 0.0
H799 H 1.00976 0.46579 0.94923 0.0
C800 C 0.49194 0.49823 0.97397 0.0
Eu801 Eu 0.51204 0.51425 1.0071 0.0
C802 C 0.50353 0.49894 0.9567 0.0
C803 C 0.4902 0.50397 0.94184 0.0
C804 C 0.50105 0.50519 0.92538 0.0
C805 C 0.52543 0.50142 0.92355 0.0
C806 C 0.53881 0.49637 0.9384 0.0
C807 C 0.52793 0.49515 0.95486 0.0
C808 C 0.53084 0.5666 0.02655 0.0
C809 C 0.58234 0.53378 1.01246 0.0
C810 C 0.56009 0.53729 0.07823 0.0
Eu811 Eu 0.54205 0.51981 0.04493 0.0
C812 C 0.54695 0.53477 0.09509 0.0
C813 C 0.51773 0.51284 0.09682 0.0
C814 C 0.50558 0.51134 0.1129 0.0
C815 C 0.52245 0.53188 0.12737 0.0
C816 C 0.55153 0.55392 0.12555 0.0
C817 C 0.56368 0.55533 0.10953 0.0
C818 C 0.52295 0.46736 0.02599 0.0
C819 C 0.47129 0.49826 0.03944 0.0
O820 O 0.49346 0.48027 0.98487 0.0
O821 O 0.49858 0.52397 0.98188 0.0
O822 O 0.50947 0.55557 1.01399 0.0
O823 O 0.54344 0.55129 0.02631 0.0
O824 O 0.55843 0.52578 1.0017 0.0
O825 O 0.58245 0.53586 0.0299 0.0
O826 O 0.55555 0.55327 0.06716 0.0
O827 O 0.55755 0.513 0.07047 0.0
O828 O 0.5446 0.47848 0.03841 0.0
O829 O 0.51022 0.4826 0.02592 0.0
O830 O 0.49488 0.50468 0.05003 0.0
O831 O 0.47173 0.49888 0.0221 0.0
H832 H 0.47143 0.50704 0.94298 0.0
H833 H 0.4905 0.50915 0.91406 0.0
H834 H 0.55768 0.49346 0.93723 0.0
H835 H 0.53857 0.49131 0.96614 0.0
H836 H 0.50434 0.49696 0.08577 0.0
H837 H 0.48307 0.49426 0.11407 0.0
H838 H 0.56482 0.56994 0.13657 0.0
H839 H 0.58615 0.57255 0.10839 0.0
C840 C 0.22077 0.36744 0.40904 0.0
Eu841 Eu 0.20294 0.36371 0.37589 0.0
C842 C 0.20812 0.35432 0.42532 0.0
C843 C 0.17876 0.34545 0.42808 0.0
C844 C 0.16767 0.33447 0.44402 0.0
C845 C 0.18571 0.33202 0.45733 0.0
C846 C 0.2148 0.34026 0.45441 0.0
C847 C 0.22593 0.35137 0.43853 0.0
C848 C 0.18694 0.39894 0.3594 0.0
C849 C 0.13171 0.31521 0.36846 0.0
C850 C 0.15646 0.33646 0.30493 0.0
Eu851 Eu 0.17392 0.33973 0.338 0.0
C852 C 0.1692 0.34714 0.28816 0.0
C853 C 0.16615 0.32657 0.27437 0.0
C854 C 0.17551 0.33594 0.25787 0.0
C855 C 0.1878 0.366 0.25485 0.0
C856 C 0.19182 0.38677 0.26874 0.0
C857 C 0.18264 0.37746 0.28526 0.0
C858 C 0.19059 0.30513 0.35481 0.0
C859 C 0.24495 0.38832 0.34439 0.0
O860 O 0.22225 0.34974 0.39684 0.0
O861 O 0.2125 0.38519 0.40254 0.0
O862 O 0.20903 0.40888 0.3714 0.0
O863 O 0.17272 0.37083 0.35815 0.0
O864 O 0.15599 0.32723 0.37951 0.0
O865 O 0.13243 0.32019 0.35166 0.0
O866 O 0.15839 0.35643 0.31692 0.0
O867 O 0.16062 0.31605 0.31166 0.0
O868 O 0.16731 0.29463 0.34367 0.0
O869 O 0.20487 0.33318 0.35563 0.0
O870 O 0.22104 0.37214 0.33342 0.0
O871 O 0.24425 0.38798 0.36175 0.0
H872 H 0.16456 0.34738 0.41804 0.0
H873 H 0.14515 0.32815 0.44605 0.0
H874 H 0.229 0.3385 0.46455 0.0
H875 H 0.24858 0.35804 0.43664 0.0
H876 H 0.15577 0.30311 0.27621 0.0
H877 H 0.17221 0.31962 0.24727 0.0
H878 H 0.20125 0.41005 0.26662 0.0
H879 H 0.18534 0.39393 0.29558 0.0
C880 C 0.67301 0.86794 0.40758 0.0
Eu881 Eu 0.68017 0.85439 0.37557 0.0
C882 C 0.68171 0.86459 0.42575 0.0
C883 C 0.66048 0.85301 0.43791 0.0
C884 C 0.6686 0.85101 0.45538 0.0
C885 C 0.69816 0.86087 0.46102 0.0
C886 C 0.71934 0.87206 0.44883 0.0
C887 C 0.7112 0.87377 0.43134 0.0
C888 C 0.65404 0.79985 0.35737 0.0
C889 C 0.72878 0.83589 0.36877 0.0
C890 C 0.70247 0.84563 0.30484 0.0
Eu891 Eu 0.69858 0.85393 0.3383 0.0
C892 C 0.68642 0.84205 0.28758 0.0
C893 C 0.67508 0.8607 0.28359 0.0
C894 C 0.66283 0.85904 0.26652 0.0
C895 C 0.66149 0.83852 0.25331 0.0
C896 C 0.67167 0.81908 0.25746 0.0
C897 C 0.68416 0.82091 0.27448 0.0
C898 C 0.73591 0.90308 0.36029 0.0
C899 C 0.64736 0.87016 0.34402 0.0
O900 O 0.69421 0.8862 0.39859 0.0
O901 O 0.65341 0.84374 0.39798 0.0
O902 O 0.662 0.80453 0.37419 0.0
O903 O 0.65909 0.82378 0.3512 0.0
O904 O 0.72098 0.85039 0.37998 0.0
O905 O 0.7179 0.8293 0.35208 0.0
O906 O 0.6905 0.82377 0.31495 0.0
O907 O 0.71466 0.87187 0.31362 0.0
O908 O 0.74458 0.89107 0.34851 0.0
O909 O 0.7082 0.88953 0.3592 0.0
O910 O 0.6643 0.86712 0.33294 0.0
O911 O 0.64892 0.8661 0.36098 0.0
H912 H 0.63765 0.8458 0.43392 0.0
H913 H 0.65193 0.84223 0.46458 0.0
H914 H 0.74223 0.87968 0.45292 0.0
H915 H 0.72807 0.88262 0.42226 0.0
H916 H 0.67638 0.87707 0.2935 0.0
H917 H 0.65499 0.87414 0.2635 0.0
H918 H 0.67077 0.80314 0.24739 0.0
H919 H 0.69277 0.80635 0.2773 0.0
C920 C 0.15795 0.83002 0.30698 0.0
Eu921 Eu 0.17473 0.84405 0.34061 0.0
C922 C 0.17146 0.83304 0.2901 0.0
C923 C 0.17205 0.85374 0.27875 0.0
C924 C 0.18354 0.85601 0.26243 0.0
C925 C 0.19439 0.8374 0.25707 0.0
C926 C 0.19403 0.81681 0.26837 0.0
C927 C 0.1827 0.81464 0.28475 0.0
C928 C 0.19193 0.89692 0.35901 0.0
C929 C 0.24557 0.86758 0.34754 0.0
C930 C 0.22081 0.8665 0.41176 0.0
Eu931 Eu 0.20327 0.85167 0.37821 0.0
C932 C 0.20794 0.86531 0.42862 0.0
C933 C 0.17955 0.84242 0.4312 0.0
C934 C 0.16792 0.84174 0.44737 0.0
C935 C 0.1845 0.86401 0.46112 0.0
C936 C 0.21273 0.88701 0.45848 0.0
C937 C 0.22435 0.88764 0.44235 0.0
C938 C 0.18573 0.79872 0.35943 0.0
C939 C 0.13268 0.82822 0.37154 0.0
O940 O 0.15956 0.8118 0.31761 0.0
O941 O 0.16186 0.85441 0.31543 0.0
O942 O 0.16865 0.88333 0.34782 0.0
O943 O 0.20587 0.883 0.35908 0.0
O944 O 0.22123 0.85346 0.33659 0.0
O945 O 0.2448 0.87372 0.36446 0.0
O946 O 0.21969 0.8847 0.40096 0.0
O947 O 0.21511 0.84121 0.40363 0.0
O948 O 0.20892 0.81194 0.37073 0.0
O949 O 0.17209 0.81289 0.35967 0.0
O950 O 0.1571 0.84255 0.38238 0.0
O951 O 0.13322 0.82205 0.35457 0.0
H952 H 0.16332 0.86801 0.28241 0.0
H953 H 0.18358 0.87197 0.25385 0.0
H954 H 0.20226 0.80223 0.26442 0.0
H955 H 0.18246 0.79833 0.29311 0.0
H956 H 0.16648 0.82506 0.42077 0.0
H957 H 0.14608 0.82384 0.4492 0.0
H958 H 0.2258 0.90435 0.46896 0.0
H959 H 0.24623 0.90554 0.44059 0.0
C960 C 0.88215 0.70045 0.74554 0.0
Eu961 Eu 0.86893 0.69799 0.71177 0.0
C962 C 0.8663 0.689 0.76129 0.0
C963 C 0.8754 0.70731 0.77707 0.0
C964 C 0.86043 0.69717 0.79206 0.0
C965 C 0.83483 0.66876 0.79167 0.0
C966 C 0.828 0.64959 0.77607 0.0
C967 C 0.84283 0.65982 0.761 0.0
C968 C 0.85359 0.73394 0.69511 0.0
C969 C 0.79899 0.6494 0.7016 0.0
C970 C 0.83024 0.67511 0.63954 0.0
Eu971 Eu 0.84506 0.678 0.67311 0.0
C972 C 0.84284 0.68736 0.62301 0.0
C973 C 0.86283 0.68079 0.61521 0.0
C974 C 0.87223 0.69051 0.59875 0.0
C975 C 0.86182 0.70693 0.5899 0.0
C976 C 0.84257 0.71418 0.59786 0.0
C977 C 0.8331 0.70442 0.61425 0.0
C978 C 0.85996 0.64173 0.68967 0.0
C979 C 0.91527 0.72554 0.68342 0.0
O980 O 0.88191 0.68093 0.73392 0.0
O981 O 0.87868 0.7208 0.73822 0.0
O982 O 0.8757 0.74367 0.70705 0.0
O983 O 0.83975 0.70593 0.6934 0.0
O984 O 0.82213 0.66027 0.71339 0.0
O985 O 0.80162 0.65641 0.68512 0.0
O986 O 0.82891 0.69336 0.6514 0.0
O987 O 0.8371 0.65663 0.64648 0.0
O988 O 0.83775 0.63224 0.67783 0.0
O989 O 0.87411 0.66977 0.69142 0.0
O990 O 0.89219 0.71579 0.67161 0.0
O991 O 0.9122 0.71806 0.69979 0.0
H992 H 0.89437 0.72952 0.77786 0.0
H993 H 0.86969 0.71187 0.80405 0.0
H994 H 0.81194 0.62631 0.77513 0.0
H995 H 0.83615 0.64465 0.7492 0.0
H996 H 0.87073 0.66767 0.62162 0.0
H997 H 0.8871 0.68472 0.59274 0.0
H998 H 0.83431 0.7268 0.59118 0.0
H999 H 0.81758 0.70964 0.6199 0.0
C1000 C 0.3394 0.19964 0.73869 0.0
Eu1001 Eu 0.34888 0.18727 0.70703 0.0
C1002 C 0.34347 0.19386 0.75712 0.0
C1003 C 0.32091 0.1873 0.76813 0.0
C1004 C 0.32493 0.18387 0.78596 0.0
C1005 C 0.35169 0.18715 0.7931 0.0
C1006 C 0.37411 0.19312 0.78206 0.0
C1007 C 0.37001 0.19636 0.76416 0.0
C1008 C 0.32348 0.13323 0.6882 0.0
C1009 C 0.39779 0.16879 0.70076 0.0
C1010 C 0.37571 0.18338 0.63691 0.0
Eu1011 Eu 0.36926 0.18853 0.67028 0.0
C1012 C 0.3605 0.18016 0.61931 0.0
C1013 C 0.37116 0.20467 0.60919 0.0
C1014 C 0.35845 0.20187 0.59212 0.0
C1015 C 0.33499 0.17445 0.58478 0.0
C1016 C 0.324 0.14992 0.59483 0.0
C1017 C 0.33664 0.15273 0.612 0.0
C1018 C 0.40521 0.23707 0.69311 0.0
C1019 C 0.31689 0.20333 0.67519 0.0
O1020 O 0.36329 0.21666 0.73119 0.0
O1021 O 0.31941 0.17729 0.72799 0.0
O1022 O 0.3305 0.13738 0.70512 0.0
O1023 O 0.32897 0.15744 0.68225 0.0
O1024 O 0.38923 0.18254 0.712 0.0
O1025 O 0.38798 0.16324 0.68389 0.0
O1026 O 0.36458 0.16073 0.64653 0.0
O1027 O 0.38594 0.20892 0.64622 0.0
O1028 O 0.41466 0.22545 0.68162 0.0
O1029 O 0.37751 0.2234 0.69142 0.0
O1030 O 0.33361 0.19961 0.66425 0.0
O1031 O 0.31884 0.2003 0.69227 0.0
H1032 H 0.30032 0.18534 0.763 0.0
H1033 H 0.30737 0.17917 0.79429 0.0
H1034 H 0.39484 0.1956 0.78734 0.0
H1035 H 0.38775 0.20129 0.75593 0.0
H1036 H 0.38971 0.22597 0.61437 0.0
H1037 H 0.36727 0.22098 0.5845 0.0
H1038 H 0.30596 0.12856 0.58929 0.0
H1039 H 0.32804 0.13336 0.61939 0.0
C1040 C 0.82621 0.15948 0.64101 0.0
Eu1041 Eu 0.8436 0.17878 0.67414 0.0
C1042 C 0.83916 0.16208 0.62395 0.0
C1043 C 0.84078 0.18348 0.61282 0.0
C1044 C 0.85177 0.18528 0.59638 0.0
C1045 C 0.86112 0.16557 0.5907 0.0
C1046 C 0.85965 0.14422 0.60173 0.0
C1047 C 0.84873 0.14244 0.61822 0.0
C1048 C 0.86053 0.23288 0.69048 0.0
C1049 C 0.91505 0.20544 0.68188 0.0
C1050 C 0.88945 0.20833 0.74558 0.0
Eu1051 Eu 0.87204 0.18921 0.71246 0.0
C1052 C 0.87669 0.20494 0.76258 0.0
C1053 C 0.84979 0.17977 0.76524 0.0
C1054 C 0.83794 0.17742 0.78148 0.0
C1055 C 0.85274 0.20032 0.79515 0.0
C1056 C 0.87946 0.22551 0.79242 0.0
C1057 C 0.89136 0.22778 0.77625 0.0
C1058 C 0.8551 0.13562 0.69522 0.0
C1059 C 0.80109 0.16501 0.70551 0.0
O1060 O 0.83114 0.14433 0.65259 0.0
O1061 O 0.82727 0.18334 0.64831 0.0
O1062 O 0.83937 0.21979 0.67788 0.0
O1063 O 0.87389 0.21847 0.69211 0.0
O1064 O 0.89116 0.19087 0.67056 0.0
O1065 O 0.91344 0.21129 0.69872 0.0
O1066 O 0.88231 0.22239 0.73435 0.0
O1067 O 0.8896 0.18518 0.73809 0.0
O1068 O 0.87812 0.14944 0.70665 0.0
O1069 O 0.8412 0.14955 0.69456 0.0
O1070 O 0.82469 0.17453 0.71678 0.0
O1071 O 0.80213 0.16261 0.6882 0.0
H1072 H 0.83325 0.19869 0.61671 0.0
H1073 H 0.85265 0.20181 0.58799 0.0
H1074 H 0.86668 0.12875 0.59749 0.0
H1075 H 0.8475 0.12549 0.62636 0.0
H1076 H 0.83798 0.16205 0.75477 0.0
H1077 H 0.81724 0.15787 0.78338 0.0
H1078 H 0.8911 0.24338 0.80282 0.0
H1079 H 0.912 0.24745 0.77438 0.0
C1080 C 0.38255 0.94143 0.04532 0.0
C1081 C 0.38248 0.92083 0.05679 0.0
C1082 C 0.43635 0.9453 0.05784 0.0
C1083 C 0.43625 0.96358 0.0445 0.0
N1084 N 0.40912 0.97979 0.02602 0.0
N1085 N 0.40847 0.90022 0.07214 0.0
C1086 C 0.40924 0.96172 0.03834 0.0
C1087 C 0.40916 0.92216 0.06269 0.0
N1088 N 0.35723 0.9423 0.04167 0.0
N1089 N 0.4622 0.94973 0.06607 0.0
H1090 H 0.38911 0.8829 0.07607 0.0
H1091 H 0.42668 0.89766 0.0748 0.0
H1092 H 0.48292 0.96367 0.0621 0.0
H1093 H 0.46323 0.94036 0.07765 0.0
H1094 H 0.35617 0.95867 0.03495 0.0
H1095 H 0.33739 0.92781 0.04659 0.0
H1096 H 0.39013 0.97675 1.019 0.0
H1097 H 0.42829 0.9977 0.0225 0.0
C1098 C 0.13953 0.50429 0.04253 0.0
C1099 C 0.13235 0.48213 0.0544 0.0
C1100 C 0.08235 0.47459 0.05424 0.0
C1101 C 0.08878 0.4949 0.0411 0.0
N1102 N 0.12224 0.52459 1.02021 0.0
N1103 N 0.09583 0.44266 0.06948 0.0
C1104 C 0.11691 0.50825 0.03441 0.0
C1105 C 0.10346 0.46634 0.05974 0.0
N1106 N 0.16829 0.52257 0.03958 0.0
N1107 N 0.05605 0.46302 0.06143 0.0
H1108 H 0.11067 0.43597 0.07371 0.0
H1109 H 0.07433 0.42813 0.07216 0.0
H1110 H 0.03909 0.46651 0.05689 0.0
H1111 H 0.05161 0.45126 0.07257 0.0
H1112 H 0.17529 0.54141 0.03274 0.0
H1113 H 0.18565 0.52075 0.04546 0.0
H1114 H 0.14106 0.53159 1.01356 0.0
H1115 H 0.10706 0.52918 1.01402 0.0
C1116 C 0.57555 0.64246 0.05401 0.0
C1117 C 0.553 0.64906 0.05685 0.0
C1118 C 0.51598 0.60037 0.04225 0.0
C1119 C 0.53864 0.59371 0.03879 0.0
N1120 N 0.58909 0.60567 0.04655 0.0
N1121 N 0.50262 0.63701 0.05166 0.0
C1122 C 0.56821 0.61396 0.04607 0.0
C1123 C 0.52347 0.62877 0.05039 0.0
N1124 N 0.60431 0.66404 0.05833 0.0
N1125 N 0.48699 0.57867 0.0392 0.0
H1126 H 0.507 0.6571 0.05816 0.0
H1127 H 0.48158 0.62522 0.04508 0.0
H1128 H 0.48004 0.55671 0.03497 0.0
H1129 H 0.4696 0.58108 0.0431 0.0
H1130 H 0.62214 0.66244 0.05439 0.0
H1131 H 0.6105 0.68493 0.06447 0.0
H1132 H 0.60987 0.61821 0.05336 0.0
H1133 H 0.58498 0.5847 0.04231 0.0
C1134 C 0.91936 0.40385 1.00107 0.0
C1135 C 0.92923 0.38557 0.9931 0.0
C1136 C 0.97899 0.41833 1.00767 0.0
C1137 C 0.97005 0.43848 1.01383 0.0
N1138 N 0.93183 0.45063 1.01726 0.0
N1139 N 0.96857 0.37607 0.98743 0.0
C1140 C 0.9402 0.43125 1.01081 0.0
C1141 C 0.95907 0.39291 0.9961 0.0
N1142 N 0.88993 0.39457 0.99964 0.0
N1143 N 1.0063 0.42316 1.01325 0.0
H1144 H 0.9545 0.35689 0.9792 0.0
H1145 H 0.99065 0.38215 0.98738 0.0
H1146 H 1.02114 0.44126 0.02197 0.0
H1147 H 1.01325 0.40792 1.01064 0.0
H1148 H 0.88064 0.40514 1.00648 0.0
H1149 H 0.8742 0.37486 0.99241 0.0
H1150 H 0.91154 0.44879 1.01378 0.0
H1151 H 0.94576 0.4696 0.02569 0.0
C1152 C 0.63687 0.52831 0.98321 0.0
C1153 C 0.66388 0.55222 0.99121 0.0
C1154 C 0.6369 0.56719 1.01049 0.0
C1155 C 0.61019 0.54073 1.00447 0.0
N1156 N 0.58559 0.494 0.98605 0.0
N1157 N 0.69019 0.59253 1.01399 0.0
C1158 C 0.61033 0.5208 0.99097 0.0
C1159 C 0.66407 0.5711 1.00532 0.0
N1160 N 0.63651 0.51305 0.96797 0.0
N1161 N 0.63618 0.58953 1.02018 0.0
H1162 H 0.71059 0.59648 1.01037 0.0
H1163 H 0.69152 0.60472 0.02562 0.0
H1164 H 0.61649 0.58855 0.02265 0.0
H1165 H 0.65467 0.61034 0.02369 0.0
H1166 H 0.6172 0.49775 0.96035 0.0
H1167 H 0.65556 0.51765 0.96205 0.0
H1168 H 0.58547 0.47729 0.97789 0.0
H1169 H 0.5656 0.48713 0.99128 0.0
C1170 C 0.47324 0.09835 0.99879 0.0
C1171 C 0.49566 0.12803 0.99751 0.0
C1172 C 0.53294 0.11664 1.0094 0.0
C1173 C 0.51033 0.08717 1.01193 0.0
N1174 N 0.4598 0.04792 1.00357 0.0
N1175 N 0.54634 0.16672 1.00284 0.0
C1176 C 0.48072 0.07735 1.00504 0.0
C1177 C 0.52537 0.13743 1.00304 0.0
N1178 N 0.44445 0.0906 0.99486 0.0
N1179 N 0.56192 0.1243 1.01188 0.0
H1180 H 0.54209 0.1823 0.99736 0.0
H1181 H 0.5675 0.17622 1.00916 0.0
H1182 H 0.56889 0.10959 1.0153 0.0
H1183 H 0.57925 0.14407 1.00841 0.0
H1184 H 0.42664 0.07087 0.99799 0.0
H1185 H 0.43815 0.10496 0.98967 0.0
H1186 H 0.43909 0.03923 0.99676 0.0
H1187 H 0.46363 0.03123 1.0072 0.0
C1188 C 0.63131 0.11475 0.98213 0.0
C1189 C 0.65833 0.123 0.99195 0.0
C1190 C 0.63182 0.08507 1.01205 0.0
C1191 C 0.60446 0.08017 1.00409 0.0
N1192 N 0.57885 0.09404 0.98229 0.0
N1193 N 0.68442 0.11861 1.01756 0.0
C1194 C 0.6043 0.09577 0.9892 0.0
C1195 C 0.65861 0.10892 1.0073 0.0
N1196 N 0.63143 0.12482 0.9659 0.0
N1197 N 0.63239 0.06583 0.02335 0.0
H1198 H 0.70462 0.13559 1.01434 0.0
H1199 H 0.68536 0.11142 0.02996 0.0
H1200 H 0.61344 0.04667 0.02595 0.0
H1201 H 0.65172 0.06677 0.02832 0.0
H1202 H 0.61259 0.11678 0.95717 0.0
H1203 H 0.65078 0.13915 0.96046 0.0
H1204 H 0.57837 0.10759 0.97286 0.0
H1205 H 0.55847 0.08166 0.9871 0.0
C1206 C 0.91979 0.5303 0.98174 0.0
C1207 C 0.92485 0.5597 0.98403 0.0
C1208 C 0.96621 0.5732 1.00627 0.0
C1209 C 0.96338 0.54489 1.00234 0.0
N1210 N 0.93859 0.49672 0.98572 0.0
N1211 N 0.95349 0.60992 0.99749 0.0
C1212 C 0.94037 0.52345 0.98995 0.0
C1213 C 0.94805 0.58131 0.99619 0.0
N1214 N 0.89489 0.50877 0.97196 0.0
N1215 N 0.98643 0.59241 1.01952 0.0
H1216 H 0.94025 0.61646 0.99062 0.0
H1217 H 0.97203 0.62762 1.00449 0.0
H1218 H 1.00093 0.58779 0.02667 0.0
H1219 H 0.9876 0.61207 0.02431 0.0
H1220 H 0.88814 0.48624 0.97128 0.0
H1221 H 0.87945 0.51307 0.96565 0.0
H1222 H 0.92488 0.48174 0.97521 0.0
H1223 H 0.95203 0.49001 0.99214 0.0
C1224 C 0.4694 0.39106 1.002 0.0
C1225 C 0.48899 0.38438 0.99352 0.0
C1226 C 0.53131 0.43026 1.00798 0.0
C1227 C 0.51159 0.43791 1.0157 0.0
N1228 N 0.46312 0.42026 0.02524 0.0
N1229 N 0.53812 0.3986 0.98658 0.0
C1230 C 0.4809 0.41695 1.01403 0.0
C1231 C 0.51983 0.40406 0.9962 0.0
N1232 N 0.43968 0.37295 0.99822 0.0
N1233 N 0.56102 0.44732 1.01229 0.0
H1234 H 0.53074 0.37941 0.97809 0.0
H1235 H 0.56026 0.41398 0.98588 0.0
H1236 H 0.57121 0.46807 1.01937 0.0
H1237 H 0.57589 0.44037 1.00943 0.0
H1238 H 0.42427 0.37859 1.00208 0.0
H1239 H 0.4304 0.35309 0.99012 0.0
H1240 H 0.4412 0.40425 0.026 0.0
H1241 H 0.47103 0.43736 0.03535 0.0
C1242 C 0.1369 0.63293 0.05823 0.0
C1243 C 0.12731 0.65391 0.05995 0.0
C1244 C 0.08525 0.62299 0.03818 0.0
C1245 C 0.09271 0.60021 0.03813 0.0
N1246 N 0.12399 0.58222 0.04991 0.0
N1247 N 0.09031 0.66741 0.05356 0.0
C1248 C 0.11821 0.6049 0.04857 0.0
C1249 C 0.10085 0.64848 0.05052 0.0
N1250 N 0.16421 0.64005 0.06555 0.0
N1251 N 0.06456 0.62125 0.02575 0.0
H1252 H 0.10145 0.68666 0.06222 0.0
H1253 H 0.06945 0.66277 0.04861 0.0
H1254 H 0.05399 0.60403 1.0157 0.0
H1255 H 0.06025 0.6385 0.02413 0.0
H1256 H 0.17388 0.62715 0.06305 0.0
H1257 H 0.17836 0.66019 0.07295 0.0
H1258 H 0.14007 0.58313 0.05895 0.0
H1259 H 0.11118 0.56148 0.04301 0.0
C1260 C 0.38984 0.45999 0.04845 0.0
C1261 C 0.39207 0.4742 0.06526 0.0
C1262 C 0.445 0.50688 0.06378 0.0
C1263 C 0.44356 0.49041 0.04783 0.0
N1264 N 0.41467 0.44712 0.02697 0.0
N1265 N 0.42235 0.50761 0.09044 0.0
C1266 C 0.41596 0.46593 0.0406 0.0
C1267 C 0.41983 0.49656 0.07337 0.0
N1268 N 0.3627 0.44093 0.03989 0.0
N1269 N 0.4699 0.53321 0.06948 0.0
H1270 H 0.40435 0.50131 0.0978 0.0
H1271 H 0.44254 0.52107 0.09779 0.0
H1272 H 0.48879 0.54264 0.06284 0.0
H1273 H 0.47084 0.54751 0.07989 0.0
H1274 H 0.35957 0.4325 0.02678 0.0
H1275 H 0.34313 0.43549 0.04544 0.0
H1276 H 0.39565 0.42718 0.02258 0.0
H1277 H 0.43307 0.44963 0.02112 0.0
C1278 C 0.56789 0.94325 0.04695 0.0
C1279 C 0.54531 0.91364 0.04827 0.0
C1280 C 0.50793 0.92624 0.03855 0.0
C1281 C 0.53058 0.95558 0.03587 0.0
N1282 N 0.5816 0.99415 0.04325 0.0
N1283 N 0.49415 0.87578 0.04436 0.0
C1284 C 0.56044 0.96481 0.04175 0.0
C1285 C 0.51542 0.90492 0.04395 0.0
N1286 N 0.59668 0.95039 0.04984 0.0
N1287 N 0.47908 0.9192 0.03702 0.0
H1288 H 0.49841 0.85981 0.04921 0.0
H1289 H 0.47256 0.86677 0.03883 0.0
H1290 H 0.47232 0.93424 0.03402 0.0
H1291 H 0.46184 0.8996 0.04074 0.0
H1292 H 0.61438 0.97017 0.04667 0.0
H1293 H 0.60296 0.93552 0.0542 0.0
H1294 H 0.60281 1.0024 0.04922 0.0
H1295 H 0.57755 1.01112 0.04061 0.0
C1296 C 0.0622 0.24362 0.3766 0.0
C1297 C 0.05011 0.25422 0.38928 0.0
C1298 C 0.09221 0.30479 0.38898 0.0
C1299 C 0.10294 0.29455 0.37514 0.0
N1300 N 0.09475 0.25473 0.35355 0.0
N1301 N 0.05104 0.29525 0.40591 0.0
C1302 C 0.08684 0.26418 0.36822 0.0
C1303 C 0.06448 0.28493 0.39509 0.0
N1304 N 0.05093 0.21369 0.37312 0.0
N1305 N 0.10838 0.33356 0.39623 0.0
H1306 H 0.03086 0.28133 0.41067 0.0
H1307 H 0.05863 0.31772 0.40912 0.0
H1308 H 0.12746 0.34948 0.39124 0.0
H1309 H 0.10378 0.34135 0.40777 0.0
H1310 H 0.06102 0.20462 0.36565 0.0
H1311 H 0.0331 0.19779 0.37911 0.0
H1312 H 0.08158 0.23386 0.34672 0.0
H1313 H 0.11325 0.26823 0.34727 0.0
C1314 C 0.77266 0.81231 0.39876 0.0
C1315 C 0.79543 0.81606 0.38822 0.0
C1316 C 0.7754 0.8339 0.36515 0.0
C1317 C 0.75109 0.8278 0.37503 0.0
N1318 N 0.72316 0.8039 0.39928 0.0
N1319 N 0.81431 0.82331 0.35971 0.0
C1320 C 0.74873 0.81492 0.3913 0.0
C1321 C 0.79545 0.82459 0.37088 0.0
N1322 N 0.77427 0.80712 0.41606 0.0
N1323 N 0.78065 0.85015 0.35091 0.0
H1324 H 0.82925 0.81644 0.36338 0.0
H1325 H 0.81308 0.82617 0.34633 0.0
H1326 H 0.76753 0.85859 0.34641 0.0
H1327 H 0.79991 0.85799 0.34463 0.0
H1328 H 0.76001 0.80751 0.42488 0.0
H1329 H 0.79139 0.80496 0.42199 0.0
H1330 H 0.71929 0.79178 0.41025 0.0
H1331 H 0.70456 0.80391 0.39384 0.0
C1332 C 0.24168 0.97613 0.38066 0.0
C1333 C 0.22074 0.98175 0.38825 0.0
C1334 C 0.18159 0.93114 0.37808 0.0
C1335 C 0.202 0.92623 0.36908 0.0
N1336 N 0.25037 0.94697 0.35864 0.0
N1337 N 0.17004 0.96686 0.39144 0.0
C1338 C 0.23182 0.94949 0.36955 0.0
C1339 C 0.19046 0.95993 0.38609 0.0
N1340 N 0.27106 0.99601 0.38433 0.0
N1341 N 0.15414 0.90798 0.37988 0.0
H1342 H 0.17569 0.98761 0.39757 0.0
H1343 H 0.14745 0.95299 0.3884 0.0
H1344 H 0.14695 0.8864 0.37474 0.0
H1345 H 0.13955 0.90953 0.38796 0.0
H1346 H 0.28745 0.99154 0.38088 0.0
H1347 H 0.27907 1.01606 0.39207 0.0
H1348 H 0.2714 0.96436 0.35717 0.0
H1349 H 0.24376 0.92866 0.3496 0.0
C1350 C 0.58621 0.73838 0.33009 0.0
C1351 C 0.59399 0.71605 0.32779 0.0
C1352 C 0.64092 0.74804 0.34582 0.0
C1353 C 0.63267 0.77 0.34844 0.0
N1354 N 0.59377 0.78183 0.34789 0.0
N1355 N 0.62577 0.69686 0.33613 0.0
C1356 C 0.60422 0.76395 0.34197 0.0
C1357 C 0.6205 0.72007 0.33648 0.0
N1358 N 0.56216 0.73572 0.32046 0.0
N1359 N 0.66853 0.75422 0.3518 0.0
H1360 H 0.61131 0.67615 0.3294 0.0
H1361 H 0.64312 0.69723 0.34363 0.0
H1362 H 0.68344 0.77372 0.35948 0.0
H1363 H 0.67729 0.74078 0.34843 0.0
H1364 H 0.55749 0.75293 0.32008 0.0
H1365 H 0.54823 0.71726 0.31169 0.0
H1366 H 0.57212 0.77688 0.34497 0.0
H1367 H 0.60581 0.80007 0.35718 0.0
C1368 C 0.31103 0.90304 0.31962 0.0
C1369 C 0.32718 0.88935 0.32531 0.0
C1370 C 0.29227 0.86493 0.34727 0.0
C1371 C 0.27441 0.87627 0.34046 0.0
N1372 N 0.26553 0.90427 0.31902 0.0
N1373 N 0.3304 0.85296 0.34211 0.0
C1374 C 0.28337 0.89467 0.32624 0.0
C1375 C 0.31709 0.8692 0.33851 0.0
N1376 N 0.32273 0.92494 0.30842 0.0
N1377 N 0.28572 0.85 0.3621 0.0
H1378 H 0.34845 0.85516 0.33589 0.0
H1379 H 0.32192 0.83531 0.34999 0.0
H1380 H 0.2669 0.84438 0.36846 0.0
H1381 H 0.30011 0.84486 0.3689 0.0
H1382 H 0.31381 0.93823 0.3053 0.0
H1383 H 0.34283 0.93156 0.30328 0.0
H1384 H 0.26883 0.91416 0.3072 0.0
H1385 H 0.24643 0.90105 0.3243 0.0
C1386 C 0.1402 0.42773 0.33666 0.0
C1387 C 0.16224 0.45672 0.33358 0.0
C1388 C 0.20033 0.44625 0.34505 0.0
C1389 C 0.17817 0.41843 0.35014 0.0
N1390 N 0.12667 0.38656 0.35444 0.0
N1391 N 0.21311 0.49564 0.33754 0.0
C1392 C 0.14794 0.41002 0.34682 0.0
C1393 C 0.19226 0.46656 0.33853 0.0
N1394 N 0.11179 0.41703 0.32984 0.0
N1395 N 0.22908 0.45309 0.34578 0.0
H1396 H 0.20827 0.51116 0.33255 0.0
H1397 H 0.23478 0.505 0.34304 0.0
H1398 H 0.23637 0.43895 0.34993 0.0
H1399 H 0.24538 0.47147 0.34037 0.0
H1400 H 0.09536 0.39493 0.33004 0.0
H1401 H 0.10531 0.42956 0.32254 0.0
H1402 H 0.10475 0.38134 0.35375 0.0
H1403 H 0.13121 0.37452 0.3633 0.0
C1404 C 0.29886 0.43335 0.31158 0.0
C1405 C 0.32637 0.44109 0.32047 0.0
C1406 C 0.29954 0.40628 0.34234 0.0
C1407 C 0.27334 0.40638 0.33634 0.0
N1408 N 0.24978 0.42304 0.31484 0.0
N1409 N 0.34748 0.41537 0.33505 0.0
C1410 C 0.27343 0.42068 0.32082 0.0
C1411 C 0.3256 0.42223 0.33351 0.0
N1412 N 0.29589 0.43278 0.29367 0.0
N1413 N 0.29966 0.39049 0.35607 0.0
H1414 H 0.36381 0.42245 0.32633 0.0
H1415 H 0.34722 0.39961 0.34301 0.0
H1416 H 0.28069 0.37504 0.36131 0.0
H1417 H 0.31897 0.39332 0.36256 0.0
H1418 H 0.27553 0.42469 0.28644 0.0
H1419 H 0.31304 0.43595 0.28613 0.0
H1420 H 0.25054 0.43529 0.30426 0.0
H1421 H 0.23073 0.41562 0.32124 0.0
C1422 C 0.58164 0.86288 0.31565 0.0
C1423 C 0.5862 0.89201 0.31861 0.0
C1424 C 0.62701 0.90466 0.34113 0.0
C1425 C 0.62473 0.87675 0.33655 0.0
N1426 N 0.60122 0.82979 0.31862 0.0
N1427 N 0.61385 0.94149 0.33323 0.0
C1428 C 0.60232 0.85594 0.32362 0.0
C1429 C 0.60885 0.91306 0.33126 0.0
N1430 N 0.55712 0.84166 0.30544 0.0
N1431 N 0.64679 0.92329 0.35472 0.0
H1432 H 0.60058 0.94818 0.32655 0.0
H1433 H 0.63206 0.95895 0.34062 0.0
H1434 H 0.66147 0.91865 0.36163 0.0
H1435 H 0.64746 0.94248 0.35997 0.0
H1436 H 0.55071 0.81921 0.30426 0.0
H1437 H 0.54161 0.84603 0.29932 0.0
H1438 H 0.58801 0.8155 0.30773 0.0
H1439 H 0.61483 0.82299 0.3247 0.0
C1440 C 0.18375 0.74165 0.32477 0.0
C1441 C 0.15603 0.71651 0.32671 0.0
C1442 C 0.14693 0.74545 0.3494 0.0
C1443 C 0.17571 0.77009 0.34845 0.0
N1444 N 0.22321 0.78984 0.33693 0.0
N1445 N 0.11281 0.69263 0.3424 0.0
C1446 C 0.19465 0.76758 0.3367 0.0
C1447 C 0.13801 0.71794 0.33942 0.0
N1448 N 0.19921 0.74115 0.31104 0.0
N1449 N 0.12806 0.74817 0.35991 0.0
H1450 H 0.10545 0.6722 0.33523 0.0
H1451 H 0.10037 0.69118 0.35284 0.0
H1452 H 0.13439 0.76664 0.36873 0.0
H1453 H 0.10567 0.73271 0.35932 0.0
H1454 H 0.21771 0.75991 0.30751 0.0
H1455 H 0.19216 0.72249 0.30216 0.0
H1456 H 0.23901 0.7878 0.33033 0.0
H1457 H 0.23187 0.80971 0.34476 0.0
C1458 C 0.80134 0.96501 0.38982 0.0
C1459 C 0.79179 0.98592 0.39233 0.0
C1460 C 0.7481 0.9547 0.3717 0.0
C1461 C 0.75562 0.93195 0.37096 0.0
N1462 N 0.78803 0.91427 0.38126 0.0
N1463 N 0.75415 0.99906 0.38775 0.0
C1464 C 0.78198 0.93684 0.38047 0.0
C1465 C 0.76457 0.98027 0.38389 0.0
N1466 N 0.82923 0.97234 0.39607 0.0
N1467 N 0.72644 0.95288 0.36002 0.0
H1468 H 0.76586 0.01834 0.39634 0.0
H1469 H 0.73291 0.99425 0.38358 0.0
H1470 H 0.71523 0.93572 0.35 0.0
H1471 H 0.72193 0.97009 0.35891 0.0
H1472 H 0.83871 0.95948 0.39292 0.0
H1473 H 0.84394 0.99261 0.40317 0.0
H1474 H 0.80484 0.91538 0.38975 0.0
H1475 H 0.77489 0.89342 0.37452 0.0
C1476 C 0.06267 0.82643 0.38411 0.0
C1477 C 0.05428 0.80624 0.39733 0.0
C1478 C 0.09628 0.79914 0.39293 0.0
C1479 C 0.10411 0.81843 0.37916 0.0
N1480 N 0.09109 0.84558 0.3592 0.0
N1481 N 0.05848 0.76788 0.41125 0.0
C1482 C 0.08599 0.83032 0.37387 0.0
C1483 C 0.06971 0.79092 0.4008 0.0
N1484 N 0.04945 0.84312 0.38198 0.0
N1485 N 0.11441 0.78896 0.39877 0.0
H1486 H 0.0389 0.76103 0.41709 0.0
H1487 H 0.06692 0.75371 0.41277 0.0
H1488 H 0.13334 0.79303 0.39294 0.0
H1489 H 0.11183 0.77815 0.41022 0.0
H1490 H 0.05695 0.86078 0.37411 0.0
H1491 H 0.03235 0.84097 0.38922 0.0
H1492 H 0.07663 0.85176 0.35362 0.0
H1493 H 0.1086 0.8502 0.35173 0.0
C1494 C 0.18882 0.24064 0.37734 0.0
C1495 C 0.2183 0.24707 0.37686 0.0
C1496 C 0.22982 0.29124 0.36135 0.0
C1497 C 0.20092 0.28618 0.36312 0.0
N1498 N 0.15512 0.25942 0.3763 0.0
N1499 N 0.26835 0.28123 0.3715 0.0
C1500 C 0.18105 0.2618 0.37211 0.0
C1501 C 0.2393 0.27331 0.36986 0.0
N1502 N 0.16791 0.21382 0.38223 0.0
N1503 N 0.2476 0.31176 0.3506 0.0
H1504 H 0.27593 0.26839 0.37747 0.0
H1505 H 0.28513 0.30169 0.36838 0.0
H1506 H 0.24119 0.32435 0.34338 0.0
H1507 H 0.26767 0.31424 0.34744 0.0
H1508 H 0.14545 0.20645 0.38078 0.0
H1509 H 0.17265 0.19775 0.38636 0.0
H1510 H 0.14122 0.24407 0.3845 0.0
H1511 H 0.14892 0.27476 0.37308 0.0
C1512 C 0.72852 0.57702 0.70738 0.0
C1513 C 0.71648 0.58649 0.72072 0.0
C1514 C 0.7585 0.63731 0.72158 0.0
C1515 C 0.76948 0.6283 0.70728 0.0
N1516 N 0.76188 0.59028 0.68457 0.0
N1517 N 0.71696 0.62637 0.73842 0.0
C1518 C 0.75343 0.59845 0.69948 0.0
C1519 C 0.73065 0.61686 0.72726 0.0
N1520 N 0.71708 0.54731 0.70286 0.0
N1521 N 0.77471 0.6654 0.72986 0.0
H1522 H 0.6966 0.61206 0.74284 0.0
H1523 H 0.72445 0.64868 0.74213 0.0
H1524 H 0.79404 0.68187 0.72542 0.0
H1525 H 0.76989 0.67196 0.74175 0.0
H1526 H 0.72704 0.53881 0.69484 0.0
H1527 H 0.69908 0.53084 0.70844 0.0
H1528 H 0.74893 0.56995 0.67713 0.0
H1529 H 0.78077 0.60441 0.67876 0.0
C1530 C 0.43969 0.14266 0.73058 0.0
C1531 C 0.46337 0.14761 0.72055 0.0
C1532 C 0.44506 0.16772 0.69792 0.0
C1533 C 0.41986 0.16045 0.70718 0.0
N1534 N 0.39004 0.13415 0.73024 0.0
N1535 N 0.4847 0.1581 0.69281 0.0
C1536 C 0.41627 0.14598 0.72295 0.0
C1537 C 0.46481 0.15802 0.70363 0.0
N1538 N 0.43991 0.13559 0.74758 0.0
N1539 N 0.45135 0.18538 0.68431 0.0
H1540 H 0.49949 0.15105 0.69647 0.0
H1541 H 0.48455 0.16235 0.67961 0.0
H1542 H 0.43839 0.19402 0.67985 0.0
H1543 H 0.47119 0.19407 0.67858 0.0
H1544 H 0.42493 0.135 0.75615 0.0
H1545 H 0.45659 0.13281 0.75359 0.0
H1546 H 0.38528 0.1209 0.74072 0.0
H1547 H 0.37185 0.13476 0.72464 0.0
C1548 C 0.85829 0.29929 0.71291 0.0
C1549 C 0.88803 0.31725 0.71989 0.0
C1550 C 0.90046 0.28321 0.70439 0.0
C1551 C 0.86999 0.26262 0.69984 0.0
N1552 N 0.81922 0.2504 0.70162 0.0
N1553 N 0.93708 0.32473 0.7242 0.0
C1554 C 0.84868 0.27056 0.70444 0.0
C1555 C 0.90901 0.30871 0.71623 0.0
N1556 N 0.83925 0.30986 0.71419 0.0
N1557 N 0.92133 0.27968 0.69647 0.0
H1558 H 0.94439 0.34398 0.73262 0.0
H1559 H 0.95233 0.31756 0.72355 0.0
H1560 H 0.91613 0.26329 0.68628 0.0
H1561 H 0.94371 0.29536 0.69826 0.0
H1562 H 0.81823 0.29938 0.70754 0.0
H1563 H 0.84536 0.33057 0.72059 0.0
H1564 H 0.80312 0.25405 0.70656 0.0
H1565 H 0.81056 0.22869 0.69611 0.0
C1566 C 0.28739 0.05416 0.6658 0.0
C1567 C 0.26029 0.05073 0.65851 0.0
C1568 C 0.27243 0.09841 0.67402 0.0
C1569 C 0.30115 0.10382 0.67918 0.0
N1570 N 0.33659 0.08733 0.68005 0.0
N1571 N 0.22826 0.07102 0.65392 0.0
C1572 C 0.30875 0.08171 0.67521 0.0
C1573 C 0.25309 0.0732 0.6622 0.0
N1574 N 0.29233 0.0308 0.66407 0.0
N1575 N 0.26312 0.11662 0.68108 0.0
H1576 H 0.2133 0.05276 0.64531 0.0
H1577 H 0.22372 0.08835 0.65448 0.0
H1578 H 0.2763 0.13472 0.69026 0.0
H1579 H 0.24147 0.11213 0.67919 0.0
H1580 H 0.31023 0.03066 0.67052 0.0
H1581 H 0.27722 1.01042 0.65721 0.0
H1582 H 0.3448 0.07385 0.67571 0.0
H1583 H 0.35215 0.10646 0.68779 0.0
C1584 C 0.99454 0.22345 0.68008 0.0
C1585 C 1.00062 0.23429 0.66325 0.0
C1586 C 0.95381 0.23426 0.66127 0.0
C1587 C 0.94477 0.21612 0.67561 0.0
N1588 N 0.9574 0.19239 0.6984 0.0
N1589 N 0.99611 0.27177 0.64857 0.0
C1590 C 0.96548 0.21074 0.6851 0.0
C1591 C 0.98307 0.24582 0.65639 0.0
N1592 N 1.0172 0.22886 0.69214 0.0
N1593 N 0.93505 0.24137 0.65257 0.0
H1594 H 1.019 0.2849 0.6492 0.0
H1595 H 0.98508 0.28273 0.64453 0.0
H1596 H 0.91465 0.23634 0.65669 0.0
H1597 H 0.93951 0.25133 0.64075 0.0
H1598 H 1.01427 0.22393 0.70521 0.0
H1599 H 0.03914 0.24193 0.68958 0.0
H1600 H 0.97129 0.18574 0.70433 0.0
H1601 H 0.9362 0.18153 0.70236 0.0
C1602 C 0.80842 0.76944 0.67957 0.0
C1603 C 0.82865 0.79176 0.66961 0.0
C1604 C 0.86507 0.77642 0.67634 0.0
C1605 C 0.84454 0.75322 0.68586 0.0
N1606 N 0.79511 0.72528 0.69468 0.0
N1607 N 0.87346 0.81275 0.65534 0.0
C1608 C 0.81564 0.74883 0.68674 0.0
C1609 C 0.85614 0.79408 0.66705 0.0
N1610 N 0.78285 0.76886 0.68288 0.0
N1611 N 0.89335 0.78201 0.67634 0.0
H1612 H 0.86768 0.82613 0.6484 0.0
H1613 H 0.89217 0.81309 0.65125 0.0
H1614 H 0.90056 0.76879 0.68198 0.0
H1615 H 0.91028 0.8009 0.67171 0.0
H1616 H 0.76879 0.75577 0.69185 0.0
H1617 H 0.77648 0.78301 0.67746 0.0
H1618 H 0.77278 0.71848 0.6936 0.0
H1619 H 0.79992 0.7114 0.7017 0.0
C1620 C 0.99471 0.78918 0.68447 0.0
C1621 C 1.00203 0.78439 0.66747 0.0
C1622 C 0.9558 0.73642 0.66343 0.0
C1623 C 0.94551 0.74527 0.67816 0.0
N1624 N 0.95602 0.78205 0.70251 0.0
N1625 N 0.99936 0.74248 0.65092 0.0
C1626 C 0.9653 0.772 0.68878 0.0
C1627 C 0.98536 0.75487 0.65937 0.0
N1628 N 1.01654 0.80698 0.69733 0.0
N1629 N 0.93789 0.71017 0.65347 0.0
H1630 H 0.02231 0.75318 0.65166 0.0
H1631 H 0.98899 0.72021 0.64603 0.0
H1632 H 0.91716 0.69443 0.65673 0.0
H1633 H 0.94335 0.70477 0.64144 0.0
H1634 H 1.01267 0.80906 0.71044 0.0
H1635 H 0.03874 0.81615 0.69523 0.0
H1636 H 0.96923 0.80293 0.70936 0.0
H1637 H 0.93452 0.77106 0.70601 0.0
C1638 C 0.25582 0.19815 0.64342 0.0
C1639 C 0.25418 0.22329 0.64979 0.0
C1640 C 0.29342 0.23541 0.67328 0.0
C1641 C 0.29397 0.20935 0.66745 0.0
N1642 N 0.27127 0.16254 0.64943 0.0
N1643 N 0.2672 0.26282 0.67245 0.0
C1644 C 0.27384 0.18972 0.65324 0.0
C1645 C 0.27165 0.24094 0.66529 0.0
N1646 N 0.24101 0.18292 0.62762 0.0
N1647 N 0.31466 0.25572 0.68571 0.0
H1648 H 0.25174 0.26768 0.66678 0.0
H1649 H 0.27698 0.27442 0.68472 0.0
H1650 H 0.33112 0.25269 0.69178 0.0
H1651 H 0.31747 0.27667 0.68902 0.0
H1652 H 0.24428 0.16681 0.6212 0.0
H1653 H 0.22705 0.18792 0.62017 0.0
H1654 H 0.25474 0.14596 0.64059 0.0
H1655 H 0.28394 0.15538 0.65629 0.0
C1656 C 0.80538 0.05692 0.67338 0.0
C1657 C 0.82555 0.05247 0.66393 0.0
C1658 C 0.86517 0.10265 0.67471 0.0
C1659 C 0.84542 0.10653 0.68505 0.0
N1660 N 0.79872 0.08444 0.69751 0.0
N1661 N 0.87562 0.06846 0.6582 0.0
C1662 C 0.81603 0.08285 0.68528 0.0
C1663 C 0.85576 0.07455 0.66541 0.0
N1664 N 0.77594 0.03673 0.67066 0.0
N1665 N 0.89247 0.12614 0.67302 0.0
H1666 H 0.86953 0.04828 0.6511 0.0
H1667 H 0.89833 0.08233 0.66053 0.0
H1668 H 0.90041 0.14698 0.67964 0.0
H1669 H 0.90636 0.1257 0.66395 0.0
H1670 H 0.75986 0.04045 0.67558 0.0
H1671 H 0.76739 1.01719 0.66233 0.0
H1672 H 0.77815 0.0667 0.69949 0.0
H1673 H 0.80606 0.10247 0.70694 0.0
C1674 C 0.43296 0.31438 0.71631 0.0
C1675 C 0.45963 0.31986 0.72547 0.0
C1676 C 0.45002 0.27058 0.71421 0.0
C1677 C 0.42431 0.26585 0.70399 0.0
N1678 N 0.39602 0.28694 0.69186 0.0
N1679 N 0.49648 0.30584 0.73074 0.0
C1680 C 0.41697 0.28872 0.70412 0.0
C1681 C 0.46904 0.29874 0.72368 0.0
N1682 N 0.4226 0.33343 0.71946 0.0
N1683 N 0.45577 0.24785 0.71552 0.0
H1684 H 0.51086 0.32606 0.73799 0.0
H1685 H 0.50599 0.29281 0.72816 0.0
H1686 H 0.44284 0.22701 0.70872 0.0
H1687 H 0.472 0.24884 0.72447 0.0
H1688 H 0.40163 0.32879 0.71474 0.0
H1689 H 0.43402 0.35281 0.72799 0.0
H1690 H 0.39177 0.30424 0.6903 0.0
H1691 H 0.38519 0.26967 0.68187 0.0
C1692 C 0.74425 0.16986 0.73263 0.0
C1693 C 0.72078 0.14011 0.73023 0.0
C1694 C 0.74768 0.12773 0.70915 0.0
C1695 C 0.77264 0.15678 0.71307 0.0
N1696 N 0.79558 0.20463 0.73034 0.0
N1697 N 0.70034 0.08981 0.71752 0.0
C1698 C 0.77115 0.17759 0.7253 0.0
C1699 C 0.72241 0.11885 0.7187 0.0
N1700 N 0.74055 0.19101 0.7416 0.0
N1701 N 0.74819 0.10835 0.69659 0.0
H1702 H 0.68126 0.08271 0.72394 0.0
H1703 H 0.70159 0.07237 0.71115 0.0
H1704 H 0.7668 0.11259 0.69036 0.0
H1705 H 0.72962 0.08849 0.69156 0.0
H1706 H 0.75541 0.21372 0.74202 0.0
H1707 H 0.72126 0.18617 0.74731 0.0
H1708 H 0.79693 0.21862 0.74105 0.0
H1709 H 0.81532 0.21272 0.72462 0.0
C1710 C 0.8558 0.57494 0.71065 0.0
C1711 C 0.88562 0.58206 0.71165 0.0
C1712 C 0.8989 0.62797 0.69764 0.0
C1713 C 0.86941 0.62204 0.69792 0.0
N1714 N 0.82143 0.59281 0.70828 0.0
N1715 N 0.93653 0.61765 0.70922 0.0
C1716 C 0.84832 0.59632 0.70543 0.0
C1717 C 0.90749 0.60937 0.70616 0.0
N1718 N 0.83439 0.54733 0.71419 0.0
N1719 N 0.91826 0.65006 0.68829 0.0
H1720 H 0.94352 0.60434 0.71518 0.0
H1721 H 0.95368 0.63871 0.7073 0.0
H1722 H 0.91271 0.6633 0.68111 0.0
H1723 H 0.939 0.65331 0.68612 0.0
H1724 H 0.81197 0.5396 0.71159 0.0
H1725 H 0.8389 0.53114 0.71837 0.0
H1726 H 0.80641 0.57635 0.7155 0.0
H1727 H 0.81525 0.60813 0.70498 0.0
C1728 C 0.48501 0.95486 0.16088 0.0
C1729 C 0.48769 0.97519 0.17499 0.0
C1730 C 0.51133 1.01656 0.15643 0.0
C1731 C 0.50704 0.99601 0.14201 0.0
N1732 N 0.48677 0.94549 0.12955 0.0
N1733 N 0.49953 0.02453 0.18581 0.0
C1734 C 0.49296 0.96509 0.14397 0.0
C1735 C 0.49982 1.00584 0.17266 0.0
N1736 N 0.47563 0.92595 0.16384 0.0
N1737 N 0.52693 0.0464 0.15468 0.0
H1738 H 0.49185 0.01763 0.198 0.0
H1739 H 0.50487 0.04634 0.18429 0.0
H1740 H 0.53462 0.05509 0.14282 0.0
H1741 H 0.53396 0.06266 0.1652 0.0
H1742 H 0.47618 0.91068 0.15476 0.0
H1743 H 0.46915 0.91761 0.17596 0.0
H1744 H 0.47367 0.92256 0.12956 0.0
H1745 H 0.49309 0.95224 0.1171 0.0
C1746 C 0.03262 0.53959 0.17757 0.0
C1747 C 0.03625 0.51593 0.18311 0.0
C1748 C 1.02135 0.49246 0.15274 0.0
C1749 C 0.02576 0.51966 0.14682 0.0
N1750 N 0.03549 0.5697 0.1539 0.0
N1751 N 1.00949 0.46266 0.17749 0.0
C1752 C 0.0312 0.54336 0.15932 0.0
C1753 C 0.02368 0.48991 0.17116 0.0
N1754 N 0.02513 0.55489 0.18921 0.0
N1755 N 1.01501 0.46907 0.14086 0.0
H1756 H 1.00629 0.46048 0.19084 0.0
H1757 H 0.9975 0.44285 0.16941 0.0
H1758 H 1.01187 0.46958 0.12729 0.0
H1759 H 1.01476 0.44995 0.14454 0.0
H1760 H 1.01964 0.57065 0.1855 0.0
H1761 H 1.02002 0.54832 0.20185 0.0
H1762 H 0.04219 0.58839 0.1627 0.0
H1763 H 0.03465 0.5735 0.14064 0.0
C1764 C 0.50238 0.51252 0.17417 0.0
C1765 C 0.48943 0.53015 0.17814 0.0
C1766 C 0.49469 0.54576 0.14804 0.0
C1767 C 0.50998 0.53026 0.14461 0.0
N1768 N 0.53099 0.50108 0.15461 0.0
N1769 N 0.47584 0.56602 0.16982 0.0
C1770 C 0.51451 0.5142 0.15774 0.0
C1771 C 0.48618 0.54738 0.1653 0.0
N1772 N 0.50234 0.49355 0.18594 0.0
N1773 N 0.48792 0.55854 0.13469 0.0
H1774 H 0.46896 0.56741 0.18223 0.0
H1775 H 0.47597 0.58164 0.1618 0.0
H1776 H 0.49448 0.55848 0.12204 0.0
H1777 H 0.47404 0.56732 0.13571 0.0
H1778 H 0.50838 0.47767 0.18312 0.0
H1779 H 0.49411 0.49208 0.19821 0.0
H1780 H 0.53817 0.49212 0.16428 0.0
H1781 H 0.53918 0.50075 0.14251 0.0
C1782 C 1.00159 0.51467 0.86949 0.0
C1783 C 0.97139 0.50473 0.86494 0.0
C1784 C 0.96147 0.4974 0.8959 0.0
C1785 C 0.99131 0.50568 0.90024 0.0
N1786 N 0.03873 0.51735 0.89105 0.0
N1787 N 0.92156 0.4822 0.87292 0.0
C1788 C 1.01107 0.51287 0.88698 0.0
C1789 C 0.951 0.49479 0.87791 0.0
N1790 N 1.02139 0.52682 0.85724 0.0
N1791 N 0.94342 0.49291 0.90904 0.0
H1792 H 0.91317 0.48021 0.85989 0.0
H1793 H 0.90527 0.47164 0.8814 0.0
H1794 H 0.95018 0.49398 0.92231 0.0
H1795 H 0.92243 0.49015 0.90698 0.0
H1796 H 0.0441 0.5376 0.86024 0.0
H1797 H 1.01527 0.52821 0.84423 0.0
H1798 H 0.05307 0.5194 0.88163 0.0
H1799 H 0.04661 0.51662 0.90377 0.0
C1800 C 0.56121 0.53201 0.88157 0.0
C1801 C 0.5576 0.50592 0.87226 0.0
C1802 C 0.53123 0.47651 0.89611 0.0
C1803 C 0.53701 0.50297 0.90602 0.0
N1804 N 0.56197 0.5565 0.90966 0.0
N1805 N 0.54391 0.45428 0.87191 0.0
C1806 C 0.55332 0.53092 0.89917 0.0
C1807 C 0.54392 0.4784 0.87989 0.0
N1808 N 0.57113 0.55758 0.87335 0.0
N1809 N 0.51282 0.44951 0.90192 0.0
H1810 H 0.55314 0.45483 0.86009 0.0
H1811 H 0.53711 0.43452 0.87775 0.0
H1812 H 0.50326 0.44722 0.91379 0.0
H1813 H 0.50509 0.4294 0.89435 0.0
H1814 H 0.57119 0.57638 0.87875 0.0
H1815 H 0.57695 0.55925 0.86043 0.0
H1816 H 0.5766 0.57757 0.9061 0.0
H1817 H 0.55655 0.55658 0.92261 0.0
C1818 C 0.51395 0.03267 0.87197 0.0
C1819 C 0.53799 0.06126 0.86998 0.0
C1820 C 0.55243 0.0685 0.90183 0.0
C1821 C 0.52634 0.04153 0.90402 0.0
N1822 N 0.48005 0.99973 0.89153 0.0
N1823 N 0.57881 0.10785 0.88295 0.0
C1824 C 0.50656 0.02398 0.88917 0.0
C1825 C 0.55702 0.07955 0.8849 0.0
N1826 N 0.49845 1.01363 0.85736 0.0
N1827 N 0.57307 0.08317 0.91587 0.0
H1828 H 0.58319 0.11644 0.87072 0.0
H1829 H 0.59125 0.12347 0.89352 0.0
H1830 H 0.57035 0.07571 0.92845 0.0
H1831 H 0.59386 0.10128 0.91481 0.0
H1832 H 0.48272 0.99138 0.85794 0.0
H1833 H 0.50322 0.01929 0.84454 0.0
H1834 H 0.46334 0.98807 0.88139 0.0
H1835 H 0.47364 0.99264 0.9039 0.0
C1836 C 0.15315 0.28164 0.49429 0.0
C1837 C 0.15408 0.30221 0.50762 0.0
C1838 C 0.17715 0.34255 0.48831 0.0
C1839 C 0.17445 0.32163 0.47459 0.0
N1840 N 0.15676 0.27093 0.46344 0.0
N1841 N 0.16315 0.35122 0.51686 0.0
C1842 C 0.16155 0.29104 0.47728 0.0
C1843 C 0.16505 0.33242 0.5045 0.0
N1844 N 0.14496 0.25332 0.49807 0.0
N1845 N 0.19195 0.37221 0.486 0.0
H1846 H 0.15505 0.34479 0.52902 0.0
H1847 H 0.16757 0.37255 0.51465 0.0
H1848 H 0.20034 0.38042 0.47417 0.0
H1849 H 0.19775 0.38889 0.4961 0.0
H1850 H 0.14687 0.23813 0.48965 0.0
H1851 H 0.13811 0.24552 0.51025 0.0
H1852 H 0.14455 0.24801 0.46391 0.0
H1853 H 0.16327 0.27711 0.45093 0.0
C1854 C 0.71269 0.87686 0.51116 0.0
C1855 C 0.72611 0.8598 0.51528 0.0
C1856 C 0.71746 0.8404 0.48417 0.0
C1857 C 0.70715 0.86001 0.47979 0.0
N1858 N 0.69981 0.9008 0.48873 0.0
N1859 N 0.74588 0.82915 0.5053 0.0
C1860 C 0.70604 0.87931 0.49319 0.0
C1861 C 0.72973 0.84255 0.50167 0.0
N1862 N 0.70547 0.89003 0.52442 0.0
N1863 N 0.71474 0.81911 0.47174 0.0
H1864 H 0.75551 0.83044 0.51789 0.0
H1865 H 0.75196 0.81902 0.49559 0.0
H1866 H 0.70559 0.81663 0.45884 0.0
H1867 H 0.71901 0.8022 0.47463 0.0
H1868 H 0.69285 0.90008 0.52222 0.0
H1869 H 0.70972 0.88851 0.53773 0.0
H1870 H 0.70183 0.91753 0.49778 0.0
H1871 H 0.69521 0.90365 0.47573 0.0
C1872 C 0.14636 0.87813 0.49861 0.0
C1873 C 0.15173 0.86287 0.51195 0.0
C1874 C 0.17834 0.84843 0.49203 0.0
C1875 C 0.17262 0.86312 0.47849 0.0
N1876 N 0.14836 0.88897 0.46787 0.0
N1877 N 0.17247 0.83306 0.52144 0.0
C1878 C 0.15582 0.87718 0.48151 0.0
C1879 C 0.16749 0.84789 0.50863 0.0
N1880 N 0.13304 0.89427 0.50252 0.0
N1881 N 0.19407 0.83445 0.48949 0.0
H1882 H 0.16494 0.83183 0.5339 0.0
H1883 H 0.18404 0.82183 0.51947 0.0
H1884 H 0.20294 0.83343 0.47774 0.0
H1885 H 0.20294 0.83343 0.47774 0.0
H1886 H 0.13113 0.90851 0.49416 0.0
H1887 H 0.12528 0.89486 0.51474 0.0
H1888 H 0.13366 0.89679 0.46848 0.0
H1889 H 0.15555 0.88933 0.45536 0.0
C1890 C 0.6617 0.85691 0.2056 0.0
C1891 C 0.63144 0.83862 0.19963 0.0
C1892 C 0.62049 0.8218 0.22919 0.0
C1893 C 0.65101 0.83859 0.23484 0.0
N1894 N 0.70126 0.86964 0.22837 0.0
N1895 N 0.58231 0.80118 0.2047 0.0
C1896 C 0.6718 0.85546 0.22301 0.0
C1897 C 0.61088 0.82038 0.21115 0.0
N1898 N 0.68062 0.87622 0.19472 0.0
N1899 N 0.60073 0.80768 0.24117 0.0
H1900 H 0.57436 0.80012 0.19168 0.0
H1901 H 0.56688 0.78493 0.21182 0.0
H1902 H 0.60708 0.8074 0.25434 0.0
H1903 H 0.57804 0.79783 0.23845 0.0
H1904 H 0.70219 0.8926 0.19883 0.0
H1905 H 0.67421 0.87731 0.18171 0.0
H1906 H 0.71769 0.8793 0.21988 0.0
H1907 H 0.70951 0.87023 0.24124 0.0
C1908 C 0.19583 0.83271 0.2071 0.0
C1909 C 0.22594 0.84216 0.20558 0.0
C1910 C 0.23591 0.85109 0.23782 0.0
C1911 C 0.20534 0.83892 0.23935 0.0
N1912 N 0.15547 0.81313 0.22561 0.0
N1913 N 0.27384 0.85563 0.21944 0.0
C1914 C 0.18507 0.82832 0.22402 0.0
C1915 C 0.2458 0.85007 0.22094 0.0
N1916 N 0.1777 0.82891 0.19243 0.0
N1917 N 0.25558 0.86448 0.25242 0.0
H1918 H 0.28185 0.85497 0.20732 0.0
H1919 H 0.28833 0.85837 0.2302 0.0
H1920 H 0.24918 0.86571 0.26499 0.0
H1921 H 0.27828 0.87656 0.25186 0.0
H1922 H 0.1564 0.82521 0.19295 0.0
H1923 H 0.18479 0.83214 0.17981 0.0
H1924 H 0.13968 0.80207 0.21493 0.0
H1925 H 0.14667 0.80923 0.23777 0.0
C1926 C 0.17682 0.3751 0.20625 0.0
C1927 C 0.2061 0.39539 0.20282 0.0
C1928 C 0.22391 0.3929 0.23279 0.0
C1929 C 0.1943 0.37546 0.23678 0.0
N1930 N 0.14232 0.35403 0.22822 0.0
N1931 N 0.25744 0.42634 0.21315 0.0
C1932 C 0.17066 0.36755 0.22374 0.0
C1933 C 0.2297 0.40497 0.21616 0.0
N1934 N 0.15494 0.36254 0.19268 0.0
N1935 N 0.2464 0.39732 0.24474 0.0
H1936 H 0.26253 0.43535 0.20106 0.0
H1937 H 0.27495 0.43668 0.22294 0.0
H1938 H 0.24288 0.38876 0.25701 0.0
H1939 H 0.2683 0.4073 0.24197 0.0
H1940 H 0.13381 0.34522 0.19405 0.0
H1941 H 0.1586 0.36745 0.17965 0.0
H1942 H 0.12455 0.35081 0.21974 0.0
H1943 H 0.13676 0.34842 0.24094 0.0
C1944 C 0.82092 0.66986 0.84009 0.0
C1945 C 0.80669 0.63897 0.84214 0.0
C1946 C 0.79745 0.62869 0.81003 0.0
C1947 C 0.81817 0.65884 0.80811 0.0
N1948 N 0.82821 0.70694 0.82003 0.0
N1949 N 0.78094 0.5884 0.82876 0.0
C1950 C 0.824 0.67948 0.82282 0.0
C1951 C 0.79482 0.61819 0.82702 0.0
N1952 N 0.83182 0.69006 0.85457 0.0
N1953 N 0.77627 0.61196 0.79665 0.0
H1954 H 0.77819 0.57972 0.84099 0.0
H1955 H 0.77429 0.57264 0.81795 0.0
H1956 H 0.77308 0.62159 0.78568 0.0
H1957 H 0.75913 0.5905 0.79785 0.0
H1958 H 0.84514 0.71282 0.85375 0.0
H1959 H 0.8293 0.68392 0.86744 0.0
H1960 H 0.82978 0.7221 0.8301 0.0
H1961 H 0.82613 0.71276 0.80735 0.0
C1962 C 0.36205 0.20473 0.84296 0.0
C1963 C 0.36677 0.1818 0.84864 0.0
C1964 C 0.3528 0.15814 0.81831 0.0
C1965 C 0.35616 0.18489 0.81227 0.0
N1966 N 0.36389 0.23425 0.81916 0.0
N1967 N 0.34178 0.12856 0.84314 0.0
C1968 C 0.36057 0.20832 0.82468 0.0
C1969 C 0.35516 0.15579 0.83676 0.0
N1970 N 0.35368 0.21939 0.85447 0.0
N1971 N 0.34744 0.13499 0.80653 0.0
H1972 H 0.33847 0.12631 0.85648 0.0
H1973 H 0.33047 0.10866 0.83509 0.0
H1974 H 0.34428 0.1353 0.79293 0.0
H1975 H 0.348 0.11631 0.8103 0.0
H1976 H 0.34739 0.23451 0.85064 0.0
H1977 H 0.34873 0.21282 0.86714 0.0
H1978 H 0.36985 0.25282 0.8279 0.0
H1979 H 0.36302 0.23792 0.80588 0.0
C1980 C 0.81313 0.21136 0.83261 0.0
C1981 C 0.81987 0.19715 0.846 0.0
C1982 C 0.84847 0.18527 0.82612 0.0
C1983 C 0.84042 0.19809 0.81245 0.0
N1984 N 0.81178 0.21938 0.80155 0.0
N1985 N 0.83989 0.16662 0.85501 0.0
C1986 C 0.82171 0.20994 0.81537 0.0
C1987 C 0.83641 0.18296 0.84261 0.0
N1988 N 0.79936 0.22705 0.83655 0.0
N1989 N 0.86824 0.17598 0.82346 0.0
H1990 H 0.83175 0.1648 0.86733 0.0
H1991 H 0.84887 0.15304 0.85269 0.0
H1992 H 0.87672 0.17634 0.81138 0.0
H1993 H 0.87775 0.16972 0.83346 0.0
H1994 H 0.79673 0.24069 0.82801 0.0
H1995 H 0.79236 0.22821 0.84895 0.0
H1996 H 0.79556 0.22519 0.80229 0.0
H1997 H 0.81817 0.21932 0.78885 0.0
C1998 C 0.33118 0.17395 0.53483 0.0
C1999 C 0.30288 0.17048 0.5309 0.0
C2000 C 0.29551 0.16986 0.56241 0.0
C2001 C 0.32299 0.17142 0.56619 0.0
N2002 N 0.36428 0.16886 0.55591 0.0
N2003 N 0.25585 0.15974 0.54031 0.0
C2004 C 0.34002 0.17163 0.55235 0.0
C2005 C 0.28434 0.16682 0.54452 0.0
N2006 N 0.35006 0.18062 0.52197 0.0
N2007 N 0.28061 0.1724 0.5759 0.0
H2008 H 0.24698 0.15744 0.52736 0.0
H2009 H 0.24031 0.1537 0.54946 0.0
H2010 H 0.28795 0.17438 0.58916 0.0
H2011 H 0.26216 0.17479 0.57401 0.0
H2012 H 0.37212 0.18675 0.52448 0.0
H2013 H 0.34443 0.18248 0.50896 0.0
H2014 H 0.3758 0.16572 0.54616 0.0
H2015 H 0.37137 0.16698 0.56858 0.0
C2016 C 0.91185 0.17805 0.55423 0.0
C2017 C 0.89183 0.17054 0.53901 0.0
C2018 C 0.85126 0.1566 0.5577 0.0
C2019 C 0.87174 0.16687 0.57291 0.0
N2020 N 0.92207 0.1917 0.58578 0.0
N2021 N 0.84348 0.15753 0.52618 0.0
C2022 C 0.90222 0.1788 0.57122 0.0
C2023 C 0.86177 0.16113 0.54072 0.0
N2024 N 0.93981 0.18354 0.55248 0.0
N2025 N 0.82172 0.14173 0.55947 0.0
H2026 H 0.85036 0.16082 0.51351 0.0
H2027 H 0.82222 0.15388 0.52685 0.0
H2028 H 0.81315 0.13791 0.57169 0.0
H2029 H 0.80572 0.13089 0.54887 0.0
H2030 H 0.95442 0.186 0.5631 0.0
H2031 H 0.94763 0.18309 0.54026 0.0
H2032 H 0.94476 0.20369 0.58514 0.0
H2033 H 0.91585 0.19258 0.59845 0.0
C2034 C 0.89508 0.75473 0.55226 0.0
C2035 C 0.87906 0.73393 0.53747 0.0
C2036 C 0.85338 0.69473 0.55704 0.0
C2037 C 0.86969 0.71541 0.57183 0.0
N2038 N 0.91005 0.76302 0.58371 0.0
N2039 N 0.84801 0.68316 0.52535 0.0
C2040 C 0.89188 0.74479 0.56948 0.0
C2041 C 0.85982 0.70357 0.53975 0.0
N2042 N 0.91234 0.78416 0.54989 0.0
N2043 N 0.83088 0.66706 0.55953 0.0
H2044 H 0.8522 0.68897 0.5125 0.0
H2045 H 0.8362 0.6603 0.52616 0.0
H2046 H 0.8259 0.65949 0.57198 0.0
H2047 H 0.81586 0.65224 0.54938 0.0
H2048 H 0.92186 0.80095 0.56019 0.0
H2049 H 0.91573 0.79213 0.53746 0.0
H2050 H 0.92854 0.78366 0.58274 0.0
H2051 H 0.90805 0.75642 0.59649 0.0
loop_
_geom_bond_atom_site_label_1
_geom_bond_atom_site_label_2
_geom_bond_distance
_geom_bond_site_symmetry_2
_ccdc_geom_bond_type
C0 C1 1.264 . S
C0 C5 1.479 . S
C0 C10 1.465 . S
C1 C0 1.264 . S
C1 C3 1.339 . S
C1 H28 0.931 . S
C2 C3 1.395 . S
C2 C4 1.320 . S
C3 C1 1.339 . S
C3 C2 1.395 . S
C3 H29 0.929 . S
C4 C2 1.320 . S
C4 C5 1.405 . S
C4 H30 0.930 . S
C5 C0 1.479 . S
C5 C4 1.405 . S
C5 H31 0.931 . S
U6 O7 2.454 . S
U6 O8 2.458 . S
U6 C9 2.984 . S
U6 C10 2.847 . S
U6 C23 2.882 . S
U6 O24 2.441 . S
U6 O25 2.420 . S
U6 O26 2.455 . S
U6 O27 2.449 . S
O7 U6 2.454 . S
O7 C9 1.353 . S
O8 U6 2.458 . S
O8 C9 1.286 . S
C9 U6 2.984 . S
C9 O7 1.353 . S
C9 O8 1.286 . S
C9 C11 1.363 . S
C10 C0 1.465 . S
C10 U6 2.847 . S
C10 O24 1.249 . S
C10 O25 1.202 . S
C11 C9 1.363 . S
C11 C13 1.408 . S
C11 C16 1.342 . S
C12 C13 1.310 . S
C12 C15 1.461 . S
C12 H32 0.932 . S
C13 C11 1.408 . S
C13 C12 1.310 . S
C13 H33 0.930 . S
C14 C15 1.474 . S
C14 C16 1.285 . S
C14 H34 0.929 . S
C15 C12 1.461 . S
C15 C14 1.474 . S
C16 C11 1.342 . S
C16 C14 1.285 . S
C16 H35 0.930 . S
C17 C20 1.424 . S
C17 C22 1.245 . S
C17 C23 1.428 . S
C18 C21 1.260 . S
C18 C22 1.477 . S
C18 H36 0.932 . S
C19 C20 1.384 . S
C19 C21 1.479 . S
C19 H37 0.929 . S
C20 C17 1.424 . S
C20 C19 1.384 . S
C20 H38 0.928 . S
C21 C18 1.260 . S
C21 C19 1.479 . S
C22 C17 1.245 . S
C22 C18 1.477 . S
C22 H39 0.932 . S
C23 U6 2.882 . S
C23 C17 1.428 . S
C23 O26 1.301 . S
C23 O27 1.282 . S
O24 U6 2.441 . S
O24 C10 1.249 . S
O25 U6 2.420 . S
O25 C10 1.202 . S
O26 U6 2.455 . S
O26 C23 1.301 . S
O27 U6 2.449 . S
O27 C23 1.282 . S
H28 C1 0.931 . S
H29 C3 0.929 . S
H30 C4 0.930 . S
H31 C5 0.931 . S
H32 C12 0.932 . S
H33 C13 0.930 . S
H34 C14 0.929 . S
H35 C16 0.930 . S
H36 C18 0.932 . S
H37 C19 0.929 . S
H38 C20 0.928 . S
H39 C22 0.932 . S
C40 C41 1.264 . S
C40 C45 1.479 . S
C40 C50 1.465 . S
C41 C40 1.264 . S
C41 C43 1.339 . S
C41 H68 0.931 . S
C42 C43 1.395 . S
C42 C44 1.320 . S
C43 C41 1.339 . S
C43 C42 1.395 . S
C43 H69 0.929 . S
C44 C42 1.320 . S
C44 C45 1.405 . S
C44 H70 0.930 . S
C45 C40 1.479 . S
C45 C44 1.405 . S
C45 H71 0.931 . S
U46 O47 2.454 . S
U46 O48 2.458 . S
U46 C49 2.984 . S
U46 C50 2.847 . S
U46 C63 2.882 . S
U46 O64 2.441 . S
U46 O65 2.420 . S
U46 O66 2.455 . S
U46 O67 2.449 . S
O47 U46 2.454 . S
O47 C49 1.353 . S
O48 U46 2.458 . S
O48 C49 1.286 . S
C49 U46 2.984 . S
C49 O47 1.353 . S
C49 O48 1.286 . S
C49 C51 1.363 . S
C50 C40 1.465 . S
C50 U46 2.847 . S
C50 O64 1.249 . S
C50 O65 1.202 . S
C51 C49 1.363 . S
C51 C53 1.408 . S
C51 C56 1.342 . S
C52 C53 1.310 . S
C52 C55 1.461 . S
C52 H72 0.932 . S
C53 C51 1.408 . S
C53 C52 1.310 . S
C53 H73 0.930 . S
C54 C55 1.474 . S
C54 C56 1.285 . S
C54 H74 0.929 . S
C55 C52 1.461 . S
C55 C54 1.474 . S
C56 C51 1.342 . S
C56 C54 1.285 . S
C56 H75 0.930 . S
C57 C60 1.424 . S
C57 C62 1.245 . S
C57 C63 1.428 . S
C58 C61 1.260 . S
C58 C62 1.477 . S
C58 H76 0.932 . S
C59 C60 1.384 . S
C59 C61 1.479 . S
C59 H77 0.929 . S
C60 C57 1.424 . S
C60 C59 1.384 . S
C60 H78 0.928 . S
C61 C58 1.260 . S
C61 C59 1.479 . S
C62 C57 1.245 . S
C62 C58 1.477 . S
C62 H79 0.932 . S
C63 U46 2.882 . S
C63 C57 1.428 . S
C63 O66 1.301 . S
C63 O67 1.282 . S
O64 U46 2.441 . S
O64 C50 1.249 . S
O65 U46 2.420 . S
O65 C50 1.202 . S
O66 U46 2.455 . S
O66 C63 1.301 . S
O67 U46 2.449 . S
O67 C63 1.282 . S
H68 C41 0.931 . S
H69 C43 0.929 . S
H70 C44 0.930 . S
H71 C45 0.931 . S
H72 C52 0.932 . S
H73 C53 0.930 . S
H74 C54 0.929 . S
H75 C56 0.930 . S
H76 C58 0.932 . S
H77 C59 0.929 . S
H78 C60 0.928 . S
H79 C62 0.932 . S
C80 C81 1.264 . S
C80 C85 1.479 . S
C80 C90 1.465 . S
C81 C80 1.264 . S
C81 C83 1.339 . S
C81 H108 0.931 . S
C82 C83 1.395 . S
C82 C84 1.320 . S
C83 C81 1.339 . S
C83 C82 1.395 . S
C83 H109 0.929 . S
C84 C82 1.320 . S
C84 C85 1.405 . S
C84 H110 0.930 . S
C85 C80 1.479 . S
C85 C84 1.405 . S
C85 H111 0.931 . S
U86 O87 2.454 . S
U86 O88 2.458 . S
U86 C89 2.984 . S
U86 C90 2.847 . S
U86 C103 2.882 . S
U86 O104 2.441 . S
U86 O105 2.420 . S
U86 O106 2.455 . S
U86 O107 2.449 . S
O87 U86 2.454 . S
O87 C89 1.353 . S
O88 U86 2.458 . S
O88 C89 1.286 . S
C89 U86 2.984 . S
C89 O87 1.353 . S
C89 O88 1.286 . S
C89 C91 1.363 . S
C90 C80 1.465 . S
C90 U86 2.847 . S
C90 O104 1.249 . S
C90 O105 1.202 . S
C91 C89 1.363 . S
C91 C93 1.408 . S
C91 C96 1.342 . S
C92 C93 1.310 . S
C92 C95 1.461 1_655 S
C92 H112 0.932 . S
C93 C91 1.408 . S
C93 C92 1.310 . S
C93 H113 0.930 . S
C94 C95 1.480 . S
C94 C96 1.251 1_455 S
C94 H114 0.960 . S
C95 C92 1.461 1_455 S
C95 C94 1.480 . S
C96 C91 1.342 . S
C96 C94 1.251 1_655 S
C96 H115 0.930 . S
C97 C100 1.424 . S
C97 C102 1.245 . S
C97 C103 1.428 . S
C98 C101 1.260 . S
C98 C102 1.477 . S
C98 H116 0.932 . S
C99 C100 1.384 . S
C99 C101 1.479 . S
C99 H117 0.929 . S
C100 C97 1.424 . S
C100 C99 1.384 . S
C100 H118 0.928 . S
C101 C98 1.260 . S
C101 C99 1.479 . S
C102 C97 1.245 . S
C102 C98 1.477 . S
C102 H119 0.932 . S
C103 U86 2.882 . S
C103 C97 1.428 . S
C103 O106 1.301 . S
C103 O107 1.282 . S
O104 U86 2.441 . S
O104 C90 1.249 . S
O105 U86 2.420 . S
O105 C90 1.202 . S
O106 U86 2.455 . S
O106 C103 1.301 . S
O107 U86 2.449 . S
O107 C103 1.282 . S
H108 C81 0.931 . S
H109 C83 0.929 . S
H110 C84 0.930 . S
H111 C85 0.931 . S
H112 C92 0.932 . S
H113 C93 0.930 . S
H114 C94 0.960 . S
H115 C96 0.930 . S
H116 C98 0.932 . S
H117 C99 0.929 . S
H118 C100 0.928 . S
H119 C102 0.932 . S
C120 C121 1.264 . S
C120 C125 1.479 . S
C120 C130 1.465 . S
C121 C120 1.264 . S
C121 C123 1.339 . S
C121 H148 0.931 . S
C122 C123 1.395 1_655 S
C122 C124 1.320 1_655 S
C123 C121 1.339 . S
C123 C122 1.395 1_455 S
C123 H149 0.929 1_455 S
C124 C122 1.320 1_455 S
C124 C125 1.405 . S
C124 H150 0.930 . S
C125 C120 1.479 . S
C125 C124 1.405 . S
C125 H151 0.931 . S
U126 O127 2.454 . S
U126 O128 2.458 . S
U126 C129 2.984 . S
U126 C130 2.847 . S
U126 C143 2.882 . S
U126 O144 2.441 . S
U126 O145 2.420 . S
U126 O146 2.455 . S
U126 O147 2.449 . S
O127 U126 2.454 . S
O127 C129 1.353 . S
O128 U126 2.458 . S
O128 C129 1.286 . S
C129 U126 2.984 . S
C129 O127 1.353 . S
C129 O128 1.286 . S
C129 C131 1.363 . S
C130 C120 1.465 . S
C130 U126 2.847 . S
C130 O144 1.249 . S
C130 O145 1.202 . S
C131 C129 1.363 . S
C131 C133 1.408 . S
C131 C136 1.342 . S
C132 C133 1.310 . S
C132 C135 1.461 . S
C132 H152 0.932 . S
C133 C131 1.408 . S
C133 C132 1.310 . S
C133 H153 0.930 . S
C134 C135 1.474 . S
C134 C136 1.285 . S
C134 H154 0.929 . S
C135 C132 1.461 . S
C135 C134 1.474 . S
C136 C131 1.342 . S
C136 C134 1.285 . S
C136 H155 0.930 . S
C137 C140 1.424 . S
C137 C142 1.245 . S
C137 C143 1.428 . S
C138 C141 1.260 . S
C138 C142 1.477 . S
C138 H156 0.932 . S
C139 C140 1.384 . S
C139 C141 1.479 . S
C139 H157 0.929 . S
C140 C137 1.424 . S
C140 C139 1.384 . S
C140 H158 0.928 . S
C141 C138 1.260 . S
C141 C139 1.479 . S
C142 C137 1.245 . S
C142 C138 1.477 . S
C142 H159 0.932 . S
C143 U126 2.882 . S
C143 C137 1.428 . S
C143 O146 1.301 . S
C143 O147 1.282 . S
O144 U126 2.441 . S
O144 C130 1.249 . S
O145 U126 2.420 . S
O145 C130 1.202 . S
O146 U126 2.455 . S
O146 C143 1.301 . S
O147 U126 2.449 . S
O147 C143 1.282 . S
H148 C121 0.931 . S
H149 C123 0.929 1_655 S
H150 C124 0.930 . S
H151 C125 0.931 . S
H152 C132 0.932 . S
H153 C133 0.930 . S
H154 C134 0.929 . S
H155 C136 0.930 . S
H156 C138 0.932 . S
H157 C139 0.929 . S
H158 C140 0.928 . S
H159 C142 0.932 . S
C160 C161 1.264 . S
C160 C165 1.479 . S
C160 C170 1.465 . S
C161 C160 1.264 . S
C161 C163 1.339 . S
C161 H188 0.931 . S
C162 C163 1.395 . S
C162 C164 1.320 . S
C163 C161 1.339 . S
C163 C162 1.395 . S
C163 H189 0.929 . S
C164 C162 1.320 . S
C164 C165 1.405 . S
C164 H190 0.930 . S
C165 C160 1.479 . S
C165 C164 1.405 . S
C165 H191 0.931 . S
U166 O167 2.454 . S
U166 O168 2.458 . S
U166 C169 2.984 . S
U166 C170 2.847 . S
U166 C183 2.882 . S
U166 O184 2.441 . S
U166 O185 2.420 . S
U166 O186 2.455 . S
U166 O187 2.449 . S
O167 U166 2.454 . S
O167 C169 1.353 . S
O168 U166 2.458 . S
O168 C169 1.286 . S
C169 U166 2.984 . S
C169 O167 1.353 . S
C169 O168 1.286 . S
C169 C171 1.363 . S
C170 C160 1.465 . S
C170 U166 2.847 . S
C170 O184 1.249 . S
C170 O185 1.202 . S
C171 C169 1.363 . S
C171 C173 1.408 . S
C171 C176 1.342 . S
C172 C173 1.310 . S
C172 C175 1.461 . S
C172 H192 0.932 . S
C173 C171 1.408 . S
C173 C172 1.310 . S
C173 H193 0.930 . S
C174 C175 1.474 . S
C174 C176 1.285 . S
C174 H194 0.929 . S
C175 C172 1.461 . S
C175 C174 1.474 . S
C176 C171 1.342 . S
C176 C174 1.285 . S
C176 H195 0.930 . S
C177 C180 1.424 . S
C177 C182 1.245 . S
C177 C183 1.428 . S
C178 C181 1.260 . S
C178 C182 1.477 . S
C178 H196 0.932 . S
C179 C180 1.384 . S
C179 C181 1.479 . S
C179 H197 0.929 . S
C180 C177 1.424 . S
C180 C179 1.384 . S
C180 H198 0.928 . S
C181 C178 1.260 . S
C181 C179 1.479 . S
C182 C177 1.245 . S
C182 C178 1.477 . S
C182 H199 0.932 . S
C183 U166 2.882 . S
C183 C177 1.428 . S
C183 O186 1.301 . S
C183 O187 1.282 . S
O184 U166 2.441 . S
O184 C170 1.249 . S
O185 U166 2.420 . S
O185 C170 1.202 . S
O186 U166 2.455 . S
O186 C183 1.301 . S
O187 U166 2.449 . S
O187 C183 1.282 . S
H188 C161 0.931 . S
H189 C163 0.929 . S
H190 C164 0.930 . S
H191 C165 0.931 . S
H192 C172 0.932 . S
H193 C173 0.930 . S
H194 C174 0.929 . S
H195 C176 0.930 . S
H196 C178 0.932 . S
H197 C179 0.929 . S
H198 C180 0.928 . S
H199 C182 0.932 . S
C200 C201 1.264 . S
C200 C205 1.479 . S
C200 C210 1.465 . S
C201 C200 1.264 . S
C201 C203 1.339 . S
C201 H228 0.931 . S
C202 C203 1.395 . S
C202 C204 1.320 . S
C203 C201 1.339 . S
C203 C202 1.395 . S
C203 H229 0.929 1_455 S
C204 C202 1.320 . S
C204 C205 1.405 . S
C204 H230 0.930 . S
C205 C200 1.479 . S
C205 C204 1.405 . S
C205 H231 0.931 . S
U206 O207 2.454 . S
U206 O208 2.458 . S
U206 C209 2.984 . S
U206 C210 2.847 . S
U206 C223 2.882 . S
U206 O224 2.441 . S
U206 O225 2.420 . S
U206 O226 2.455 . S
U206 O227 2.449 . S
O207 U206 2.454 . S
O207 C209 1.353 . S
O208 U206 2.458 . S
O208 C209 1.286 . S
C209 U206 2.984 . S
C209 O207 1.353 . S
C209 O208 1.286 . S
C209 C211 1.363 . S
C210 C200 1.465 . S
C210 U206 2.847 . S
C210 O224 1.249 . S
C210 O225 1.202 . S
C211 C209 1.363 . S
C211 C213 1.408 . S
C211 C216 1.342 . S
C212 C213 1.310 . S
C212 C215 1.461 . S
C212 H232 0.932 . S
C213 C211 1.408 . S
C213 C212 1.310 . S
C213 H233 0.930 . S
C214 C215 1.474 . S
C214 C216 1.285 . S
C214 H234 0.929 . S
C215 C212 1.461 . S
C215 C214 1.474 . S
C216 C211 1.342 . S
C216 C214 1.285 . S
C216 H235 0.930 . S
C217 C220 1.424 . S
C217 C222 1.245 . S
C217 C223 1.428 . S
C218 C221 1.260 . S
C218 C222 1.477 . S
C218 H236 0.932 . S
C219 C220 1.384 . S
C219 C221 1.479 . S
C219 H237 0.929 . S
C220 C217 1.424 . S
C220 C219 1.384 . S
C220 H238 0.928 . S
C221 C218 1.260 . S
C221 C219 1.479 . S
C222 C217 1.245 . S
C222 C218 1.477 . S
C222 H239 0.932 . S
C223 U206 2.882 . S
C223 C217 1.428 . S
C223 O226 1.301 . S
C223 O227 1.282 . S
O224 U206 2.441 . S
O224 C210 1.249 . S
O225 U206 2.420 . S
O225 C210 1.202 . S
O226 U206 2.455 . S
O226 C223 1.301 . S
O227 U206 2.449 . S
O227 C223 1.282 . S
H228 C201 0.931 . S
H229 C203 0.929 1_655 S
H230 C204 0.930 . S
H231 C205 0.931 . S
H232 C212 0.932 . S
H233 C213 0.930 . S
H234 C214 0.929 . S
H235 C216 0.930 . S
H236 C218 0.932 . S
H237 C219 0.929 . S
H238 C220 0.928 . S
H239 C222 0.932 . S
C240 C241 1.264 . S
C240 C245 1.479 . S
C240 C250 1.465 . S
C241 C240 1.264 . S
C241 C243 1.339 . S
C241 H268 0.931 . S
C242 C243 1.395 . S
C242 C244 1.320 . S
C243 C241 1.339 . S
C243 C242 1.395 . S
C243 H269 0.929 . S
C244 C242 1.320 . S
C244 C245 1.405 . S
C244 H270 0.930 . S
C245 C240 1.479 . S
C245 C244 1.405 . S
C245 H271 0.931 . S
U246 O247 2.454 . S
U246 O248 2.458 . S
U246 C249 2.984 . S
U246 C250 2.847 . S
U246 C263 2.882 . S
U246 O264 2.441 . S
U246 O265 2.420 . S
U246 O266 2.455 . S
U246 O267 2.449 . S
O247 U246 2.454 . S
O247 C249 1.353 . S
O248 U246 2.458 . S
O248 C249 1.286 . S
C249 U246 2.984 . S
C249 O247 1.353 . S
C249 O248 1.286 . S
C249 C251 1.363 . S
C250 C240 1.465 . S
C250 U246 2.847 . S
C250 O264 1.249 . S
C250 O265 1.202 . S
C251 C249 1.363 . S
C251 C253 1.408 . S
C251 C256 1.342 . S
C252 C253 1.310 . S
C252 C255 1.461 . S
C252 H272 0.932 . S
C253 C251 1.408 . S
C253 C252 1.310 . S
C253 H273 0.930 . S
C254 C255 1.474 . S
C254 C256 1.285 . S
C254 H274 0.929 . S
C255 C252 1.461 . S
C255 C254 1.474 . S
C256 C251 1.342 . S
C256 C254 1.285 . S
C256 H275 0.930 . S
C257 C260 1.424 . S
C257 C262 1.245 . S
C257 C263 1.428 . S
C258 C261 1.260 . S
C258 C262 1.477 . S
C258 H276 0.932 . S
C259 C260 1.384 . S
C259 C261 1.479 . S
C259 H277 0.929 . S
C260 C257 1.424 . S
C260 C259 1.384 . S
C260 H278 0.928 . S
C261 C258 1.260 . S
C261 C259 1.479 . S
C262 C257 1.245 . S
C262 C258 1.477 . S
C262 H279 0.932 . S
C263 U246 2.882 . S
C263 C257 1.428 . S
C263 O266 1.301 . S
C263 O267 1.282 . S
O264 U246 2.441 . S
O264 C250 1.249 . S
O265 U246 2.420 . S
O265 C250 1.202 . S
O266 U246 2.455 . S
O266 C263 1.301 . S
O267 U246 2.449 . S
O267 C263 1.282 . S
H268 C241 0.931 . S
H269 C243 0.929 . S
H270 C244 0.930 . S
H271 C245 0.931 . S
H272 C252 0.932 . S
H273 C253 0.930 . S
H274 C254 0.929 . S
H275 C256 0.930 . S
H276 C258 0.932 . S
H277 C259 0.929 . S
H278 C260 0.928 . S
H279 C262 0.932 . S
C280 C281 1.264 . S
C280 C285 1.479 . S
C280 C290 1.465 . S
C281 C280 1.264 . S
C281 C283 1.339 . S
C281 H308 0.931 . S
C282 C283 1.395 . S
C282 C284 1.320 . S
C283 C281 1.339 . S
C283 C282 1.395 . S
C283 H309 0.929 . S
C284 C282 1.320 . S
C284 C285 1.405 . S
C284 H310 0.930 . S
C285 C280 1.479 . S
C285 C284 1.405 . S
C285 H311 0.931 . S
U286 O287 2.454 . S
U286 O288 2.458 . S
U286 C289 2.984 . S
U286 C290 2.847 . S
U286 C303 2.882 . S
U286 O304 2.441 . S
U286 O305 2.420 . S
U286 O306 2.455 . S
U286 O307 2.449 . S
O287 U286 2.454 . S
O287 C289 1.353 . S
O288 U286 2.458 . S
O288 C289 1.286 . S
C289 U286 2.984 . S
C289 O287 1.353 . S
C289 O288 1.286 . S
C289 C291 1.363 . S
C290 C280 1.465 . S
C290 U286 2.847 . S
C290 O304 1.249 . S
C290 O305 1.202 . S
C291 C289 1.363 . S
C291 C293 1.408 . S
C291 C296 1.342 . S
C292 C293 1.310 . S
C292 C295 1.461 . S
C292 H312 0.932 . S
C293 C291 1.408 . S
C293 C292 1.310 . S
C293 H313 0.930 . S
C294 C295 1.474 . S
C294 C296 1.285 . S
C294 H314 0.929 . S
C295 C292 1.461 . S
C295 C294 1.474 . S
C296 C291 1.342 . S
C296 C294 1.285 . S
C296 H315 0.930 . S
C297 C300 1.424 . S
C297 C302 1.245 . S
C297 C303 1.428 . S
C298 C301 1.260 . S
C298 C302 1.477 . S
C298 H316 0.932 . S
C299 C300 1.384 . S
C299 C301 1.479 . S
C299 H317 0.929 . S
C300 C297 1.424 . S
C300 C299 1.384 . S
C300 H318 0.928 . S
C301 C298 1.260 . S
C301 C299 1.479 . S
C302 C297 1.245 . S
C302 C298 1.477 . S
C302 H319 0.932 . S
C303 U286 2.882 . S
C303 C297 1.428 . S
C303 O306 1.301 . S
C303 O307 1.282 . S
O304 U286 2.441 . S
O304 C290 1.249 . S
O305 U286 2.420 . S
O305 C290 1.202 . S
O306 U286 2.455 . S
O306 C303 1.301 . S
O307 U286 2.449 . S
O307 C303 1.282 . S
H308 C281 0.931 . S
H309 C283 0.929 . S
H310 C284 0.930 . S
H311 C285 0.931 . S
H312 C292 0.932 . S
H313 C293 0.930 . S
H314 C294 0.929 . S
H315 C296 0.930 . S
H316 C298 0.932 . S
H317 C299 0.929 . S
H318 C300 0.928 . S
H319 C302 0.932 . S
C320 C321 1.264 . S
C320 C325 1.479 . S
C320 C330 1.465 . S
C321 C320 1.264 . S
C321 C323 1.339 . S
C321 H348 0.931 . S
C322 C323 1.395 . S
C322 C324 1.320 . S
C323 C321 1.339 . S
C323 C322 1.395 . S
C323 H349 0.929 . S
C324 C322 1.320 . S
C324 C325 1.405 . S
C324 H350 0.930 . S
C325 C320 1.479 . S
C325 C324 1.405 . S
C325 H351 0.931 . S
U326 O327 2.454 . S
U326 O328 2.458 . S
U326 C329 2.984 . S
U326 C330 2.847 . S
U326 C343 2.882 . S
U326 O344 2.441 . S
U326 O345 2.420 . S
U326 O346 2.455 . S
U326 O347 2.449 . S
O327 U326 2.454 . S
O327 C329 1.353 . S
O328 U326 2.458 . S
O328 C329 1.286 . S
C329 U326 2.984 . S
C329 O327 1.353 . S
C329 O328 1.286 . S
C329 C331 1.363 . S
C330 C320 1.465 . S
C330 U326 2.847 . S
C330 O344 1.249 . S
C330 O345 1.202 . S
C331 C329 1.363 . S
C331 C333 1.408 . S
C331 C336 1.342 . S
C332 C333 1.310 . S
C332 C335 1.461 . S
C332 H352 0.932 . S
C333 C331 1.408 . S
C333 C332 1.310 . S
C333 H353 0.930 . S
C334 C335 1.474 . S
C334 C336 1.285 . S
C334 H354 0.929 . S
C335 C332 1.461 . S
C335 C334 1.474 . S
C336 C331 1.342 . S
C336 C334 1.285 . S
C336 H355 0.930 . S
C337 C340 1.424 . S
C337 C342 1.245 . S
C337 C343 1.428 . S
C338 C341 1.260 . S
C338 C342 1.477 . S
C338 H356 0.932 . S
C339 C340 1.384 . S
C339 C341 1.479 . S
C339 H357 0.929 . S
C340 C337 1.424 . S
C340 C339 1.384 . S
C340 H358 0.928 . S
C341 C338 1.260 . S
C341 C339 1.479 . S
C342 C337 1.245 . S
C342 C338 1.477 . S
C342 H359 0.932 . S
C343 U326 2.882 . S
C343 C337 1.428 . S
C343 O346 1.301 . S
C343 O347 1.282 . S
O344 U326 2.441 . S
O344 C330 1.249 . S
O345 U326 2.420 . S
O345 C330 1.202 . S
O346 U326 2.455 . S
O346 C343 1.301 . S
O347 U326 2.449 . S
O347 C343 1.282 . S
H348 C321 0.931 . S
H349 C323 0.929 . S
H350 C324 0.930 . S
H351 C325 0.931 . S
H352 C332 0.932 . S
H353 C333 0.930 . S
H354 C334 0.929 . S
H355 C336 0.930 . S
H356 C338 0.932 . S
H357 C339 0.929 . S
H358 C340 0.928 . S
H359 C342 0.932 . S
C360 C361 1.264 . S
C360 C365 1.479 . S
C360 C370 1.465 . S
C361 C360 1.264 . S
C361 C363 1.339 . S
C361 H388 0.931 . S
C362 C363 1.395 . S
C362 C364 1.320 . S
C363 C361 1.339 . S
C363 C362 1.395 . S
C363 H389 0.929 . S
C364 C362 1.320 . S
C364 C365 1.405 . S
C364 H390 0.930 . S
C365 C360 1.479 . S
C365 C364 1.405 . S
C365 H391 0.931 . S
U366 O367 2.454 . S
U366 O368 2.458 . S
U366 C369 2.984 . S
U366 C370 2.847 . S
U366 C383 2.882 . S
U366 O384 2.441 . S
U366 O385 2.420 . S
U366 O386 2.455 . S
U366 O387 2.449 . S
O367 U366 2.454 . S
O367 C369 1.353 . S
O368 U366 2.458 . S
O368 C369 1.286 . S
C369 U366 2.984 . S
C369 O367 1.353 . S
C369 O368 1.286 . S
C369 C371 1.363 . S
C370 C360 1.465 . S
C370 U366 2.847 . S
C370 O384 1.249 . S
C370 O385 1.202 . S
C371 C369 1.363 . S
C371 C373 1.408 . S
C371 C376 1.342 . S
C372 C373 1.310 . S
C372 C375 1.461 . S
C372 H392 0.932 . S
C373 C371 1.408 . S
C373 C372 1.310 . S
C373 H393 0.930 . S
C374 C375 1.474 . S
C374 C376 1.285 . S
C374 H394 0.929 . S
C375 C372 1.461 . S
C375 C374 1.474 . S
C376 C371 1.342 . S
C376 C374 1.285 . S
C376 H395 0.930 . S
C377 C380 1.424 . S
C377 C382 1.245 . S
C377 C383 1.428 . S
C378 C381 1.260 . S
C378 C382 1.477 . S
C378 H396 0.932 . S
C379 C380 1.384 . S
C379 C381 1.479 . S
C379 H397 0.929 . S
C380 C377 1.424 . S
C380 C379 1.384 . S
C380 H398 0.928 . S
C381 C378 1.260 . S
C381 C379 1.479 . S
C382 C377 1.245 . S
C382 C378 1.477 . S
C382 H399 0.932 . S
C383 U366 2.882 . S
C383 C377 1.428 . S
C383 O386 1.301 . S
C383 O387 1.282 . S
O384 U366 2.441 . S
O384 C370 1.249 . S
O385 U366 2.420 . S
O385 C370 1.202 . S
O386 U366 2.455 . S
O386 C383 1.301 . S
O387 U366 2.449 . S
O387 C383 1.282 . S
H388 C361 0.931 . S
H389 C363 0.929 . S
H390 C364 0.930 . S
H391 C365 0.931 . S
H392 C372 0.932 . S
H393 C373 0.930 . S
H394 C374 0.929 . S
H395 C376 0.930 . S
H396 C378 0.932 . S
H397 C379 0.929 . S
H398 C380 0.928 . S
H399 C382 0.932 . S
C400 C401 1.264 . S
C400 C405 1.479 . S
C400 C410 1.465 . S
C401 C400 1.264 . S
C401 C403 1.339 . S
C401 H428 0.931 . S
C402 C403 1.395 . S
C402 C404 1.320 . S
C403 C401 1.339 . S
C403 C402 1.395 . S
C403 H429 0.929 . S
C404 C402 1.320 . S
C404 C405 1.405 . S
C404 H430 0.930 1_556 S
C405 C400 1.479 . S
C405 C404 1.405 . S
C405 H431 0.931 . S
U406 O407 2.454 . S
U406 O408 2.458 . S
U406 C409 2.984 . S
U406 C410 2.847 . S
U406 C423 2.882 . S
U406 O424 2.441 . S
U406 O425 2.420 . S
U406 O426 2.455 . S
U406 O427 2.449 . S
O407 U406 2.454 . S
O407 C409 1.353 . S
O408 U406 2.458 . S
O408 C409 1.286 . S
C409 U406 2.984 . S
C409 O407 1.353 . S
C409 O408 1.286 . S
C409 C411 1.363 . S
C410 C400 1.465 . S
C410 U406 2.847 . S
C410 O424 1.249 . S
C410 O425 1.202 . S
C411 C409 1.363 . S
C411 C413 1.408 . S
C411 C416 1.342 . S
C412 C413 1.322 . S
C412 C415 1.476 . S
C412 H432 0.905 1_556 S
C413 C411 1.408 . S
C413 C412 1.322 . S
C413 H433 0.930 . S
C414 C415 1.474 . S
C414 C416 1.285 . S
C414 H434 0.929 . S
C415 C412 1.476 . S
C415 C414 1.474 . S
C416 C411 1.342 . S
C416 C414 1.285 . S
C416 H435 0.930 . S
C417 C420 1.424 . S
C417 C422 1.245 . S
C417 C423 1.428 . S
C418 C421 1.260 . S
C418 C422 1.477 . S
C418 H436 0.932 . S
C419 C420 1.384 . S
C419 C421 1.479 . S
C419 H437 0.929 . S
C420 C417 1.424 . S
C420 C419 1.384 . S
C420 H438 0.928 . S
C421 C418 1.260 . S
C421 C419 1.479 . S
C422 C417 1.245 . S
C422 C418 1.477 . S
C422 H439 0.932 . S
C423 U406 2.882 . S
C423 C417 1.428 . S
C423 O426 1.301 . S
C423 O427 1.282 . S
O424 U406 2.441 . S
O424 C410 1.249 . S
O425 U406 2.420 . S
O425 C410 1.202 . S
O426 U406 2.455 . S
O426 C423 1.301 . S
O427 U406 2.449 . S
O427 C423 1.282 . S
H428 C401 0.931 . S
H429 C403 0.929 . S
H430 C404 0.930 1_554 S
H431 C405 0.931 . S
H432 C412 0.905 1_554 S
H433 C413 0.930 . S
H434 C414 0.929 . S
H435 C416 0.930 . S
H436 C418 0.932 . S
H437 C419 0.929 . S
H438 C420 0.928 . S
H439 C422 0.932 . S
C440 C441 1.264 . S
C440 C445 1.479 . S
C440 C450 1.465 . S
C441 C440 1.264 . S
C441 C443 1.339 . S
C441 H468 0.931 . S
C442 C443 1.395 . S
C442 C444 1.320 . S
C443 C441 1.339 . S
C443 C442 1.395 . S
C443 H469 0.929 . S
C444 C442 1.320 . S
C444 C445 1.405 . S
C444 H470 0.930 . S
C445 C440 1.479 . S
C445 C444 1.405 . S
C445 H471 0.931 . S
U446 O447 2.454 . S
U446 O448 2.458 . S
U446 C449 2.984 . S
U446 C450 2.847 . S
U446 C463 2.882 . S
U446 O464 2.441 . S
U446 O465 2.420 . S
U446 O466 2.455 . S
U446 O467 2.449 . S
O447 U446 2.454 . S
O447 C449 1.353 . S
O448 U446 2.458 . S
O448 C449 1.286 . S
C449 U446 2.984 . S
C449 O447 1.353 . S
C449 O448 1.286 . S
C449 C451 1.363 . S
C450 C440 1.465 . S
C450 U446 2.847 . S
C450 O464 1.249 . S
C450 O465 1.202 . S
C451 C449 1.363 . S
C451 C453 1.408 . S
C451 C456 1.342 . S
C452 C453 1.310 . S
C452 C455 1.461 . S
C452 H472 0.932 1_556 S
C453 C451 1.408 . S
C453 C452 1.310 . S
C453 H473 0.930 . S
C454 C455 1.474 . S
C454 C456 1.285 . S
C454 H474 0.929 . S
C455 C452 1.461 . S
C455 C454 1.474 . S
C456 C451 1.342 . S
C456 C454 1.285 . S
C456 H475 0.930 . S
C457 C460 1.424 . S
C457 C462 1.245 . S
C457 C463 1.428 . S
C458 C461 1.260 . S
C458 C462 1.477 . S
C458 H476 0.932 . S
C459 C460 1.384 . S
C459 C461 1.479 . S
C459 H477 0.929 . S
C460 C457 1.424 . S
C460 C459 1.384 . S
C460 H478 0.928 . S
C461 C458 1.260 . S
C461 C459 1.479 . S
C462 C457 1.245 . S
C462 C458 1.477 . S
C462 H479 0.932 . S
C463 U446 2.882 . S
C463 C457 1.428 . S
C463 O466 1.301 . S
C463 O467 1.282 . S
O464 U446 2.441 . S
O464 C450 1.249 . S
O465 U446 2.420 . S
O465 C450 1.202 . S
O466 U446 2.455 . S
O466 C463 1.301 . S
O467 U446 2.449 . S
O467 C463 1.282 . S
H468 C441 0.931 . S
H469 C443 0.929 . S
H470 C444 0.930 . S
H471 C445 0.931 . S
H472 C452 0.932 1_554 S
H473 C453 0.930 . S
H474 C454 0.929 . S
H475 C456 0.930 . S
H476 C458 0.932 . S
H477 C459 0.929 . S
H478 C460 0.928 . S
H479 C462 0.932 . S
C480 C481 1.264 . S
C480 C485 1.479 . S
C480 C490 1.465 . S
C481 C480 1.264 . S
C481 C483 1.339 . S
C481 H508 0.931 . S
C482 C483 1.395 . S
C482 C484 1.320 . S
C483 C481 1.339 . S
C483 C482 1.395 . S
C483 H509 0.929 . S
C484 C482 1.320 . S
C484 C485 1.405 . S
C484 H510 0.930 . S
C485 C480 1.479 . S
C485 C484 1.405 . S
C485 H511 0.931 . S
U486 O487 2.454 . S
U486 O488 2.458 . S
U486 C489 2.984 . S
U486 C490 2.847 . S
U486 C503 2.882 . S
U486 O504 2.441 . S
U486 O505 2.420 . S
U486 O506 2.455 . S
U486 O507 2.449 . S
O487 U486 2.454 . S
O487 C489 1.353 . S
O488 U486 2.458 . S
O488 C489 1.286 . S
C489 U486 2.984 . S
C489 O487 1.353 . S
C489 O488 1.286 . S
C489 C491 1.363 . S
C490 C480 1.465 . S
C490 U486 2.847 . S
C490 O504 1.249 . S
C490 O505 1.202 . S
C491 C489 1.363 . S
C491 C493 1.408 . S
C491 C496 1.342 . S
C492 C493 1.310 . S
C492 C495 1.461 . S
C492 H512 0.932 1_554 S
C493 C491 1.408 . S
C493 C492 1.310 . S
C493 H513 0.930 . S
C494 C495 1.474 . S
C494 C496 1.285 . S
C494 H514 0.929 . S
C495 C492 1.461 . S
C495 C494 1.474 . S
C496 C491 1.342 . S
C496 C494 1.285 . S
C496 H515 0.930 . S
C497 C500 1.424 . S
C497 C502 1.245 . S
C497 C503 1.428 . S
C498 C501 1.260 . S
C498 C502 1.477 . S
C498 H516 0.932 . S
C499 C500 1.384 . S
C499 C501 1.479 . S
C499 H517 0.929 . S
C500 C497 1.424 . S
C500 C499 1.384 . S
C500 H518 0.928 . S
C501 C498 1.260 . S
C501 C499 1.479 . S
C502 C497 1.245 . S
C502 C498 1.477 . S
C502 H519 0.932 . S
C503 U486 2.882 . S
C503 C497 1.428 . S
C503 O506 1.301 . S
C503 O507 1.282 . S
O504 U486 2.441 . S
O504 C490 1.249 . S
O505 U486 2.420 . S
O505 C490 1.202 . S
O506 U486 2.455 . S
O506 C503 1.301 . S
O507 U486 2.449 . S
O507 C503 1.282 . S
H508 C481 0.931 . S
H509 C483 0.929 . S
H510 C484 0.930 . S
H511 C485 0.931 . S
H512 C492 0.932 1_556 S
H513 C493 0.930 . S
H514 C494 0.929 . S
H515 C496 0.930 . S
H516 C498 0.932 . S
H517 C499 0.929 . S
H518 C500 0.928 . S
H519 C502 0.932 . S
C520 C521 1.264 . S
C520 C525 1.479 . S
C520 C530 1.465 . S
C521 C520 1.264 . S
C521 C523 1.339 . S
C521 H548 0.931 . S
C522 C523 1.395 . S
C522 C524 1.320 . S
C523 C521 1.339 . S
C523 C522 1.395 . S
C523 H549 0.929 . S
C524 C522 1.320 . S
C524 C525 1.405 . S
C524 H550 0.930 . S
C525 C520 1.479 . S
C525 C524 1.405 . S
C525 H551 0.931 . S
U526 O527 2.454 . S
U526 O528 2.458 . S
U526 C529 2.984 . S
U526 C530 2.847 . S
U526 C543 2.882 . S
U526 O544 2.441 . S
U526 O545 2.420 . S
U526 O546 2.455 . S
U526 O547 2.449 . S
O527 U526 2.454 . S
O527 C529 1.353 . S
O528 U526 2.458 . S
O528 C529 1.286 . S
C529 U526 2.984 . S
C529 O527 1.353 . S
C529 O528 1.286 . S
C529 C531 1.363 . S
C530 C520 1.465 . S
C530 U526 2.847 . S
C530 O544 1.249 . S
C530 O545 1.202 . S
C531 C529 1.363 . S
C531 C533 1.408 . S
C531 C536 1.342 . S
C532 C533 1.310 . S
C532 C535 1.461 . S
C532 H552 0.932 . S
C533 C531 1.408 . S
C533 C532 1.310 . S
C533 H553 0.930 . S
C534 C535 1.474 . S
C534 C536 1.285 . S
C534 H554 0.929 . S
C535 C532 1.461 . S
C535 C534 1.474 . S
C536 C531 1.342 . S
C536 C534 1.285 . S
C536 H555 0.930 . S
C537 C540 1.424 . S
C537 C542 1.245 . S
C537 C543 1.428 . S
C538 C541 1.260 . S
C538 C542 1.477 . S
C538 H556 0.932 . S
C539 C540 1.384 . S
C539 C541 1.479 . S
C539 H557 0.929 . S
C540 C537 1.424 . S
C540 C539 1.384 . S
C540 H558 0.928 . S
C541 C538 1.260 . S
C541 C539 1.479 . S
C542 C537 1.245 . S
C542 C538 1.477 . S
C542 H559 0.932 . S
C543 U526 2.882 . S
C543 C537 1.428 . S
C543 O546 1.301 . S
C543 O547 1.282 . S
O544 U526 2.441 . S
O544 C530 1.249 . S
O545 U526 2.420 . S
O545 C530 1.202 . S
O546 U526 2.455 . S
O546 C543 1.301 . S
O547 U526 2.449 . S
O547 C543 1.282 . S
H548 C521 0.931 . S
H549 C523 0.929 . S
H550 C524 0.930 . S
H551 C525 0.931 . S
H552 C532 0.932 . S
H553 C533 0.930 . S
H554 C534 0.929 . S
H555 C536 0.930 . S
H556 C538 0.932 . S
H557 C539 0.929 . S
H558 C540 0.928 . S
H559 C542 0.932 . S
C560 C561 1.264 . S
C560 C565 1.479 . S
C560 C570 1.465 . S
C561 C560 1.264 . S
C561 C563 1.339 . S
C561 H588 0.931 . S
C562 C563 1.395 . S
C562 C564 1.320 . S
C563 C561 1.339 . S
C563 C562 1.395 . S
C563 H589 0.929 . S
C564 C562 1.320 . S
C564 C565 1.405 . S
C564 H590 0.930 . S
C565 C560 1.479 . S
C565 C564 1.405 . S
C565 H591 0.931 . S
U566 O567 2.454 . S
U566 O568 2.458 . S
U566 C569 2.984 . S
U566 C570 2.847 . S
U566 C583 2.882 . S
U566 O584 2.441 . S
U566 O585 2.420 . S
U566 O586 2.455 . S
U566 O587 2.449 . S
O567 U566 2.454 . S
O567 C569 1.353 . S
O568 U566 2.458 . S
O568 C569 1.286 . S
C569 U566 2.984 . S
C569 O567 1.353 . S
C569 O568 1.286 . S
C569 C571 1.363 . S
C570 C560 1.465 . S
C570 U566 2.847 . S
C570 O584 1.249 . S
C570 O585 1.202 . S
C571 C569 1.363 . S
C571 C573 1.408 . S
C571 C576 1.342 . S
C572 C573 1.310 . S
C572 C575 1.461 . S
C572 H592 0.932 . S
C573 C571 1.408 . S
C573 C572 1.310 . S
C573 H593 0.930 . S
C574 C575 1.474 . S
C574 C576 1.285 . S
C574 H594 0.929 . S
C575 C572 1.461 . S
C575 C574 1.474 . S
C576 C571 1.342 . S
C576 C574 1.285 . S
C576 H595 0.930 . S
C577 C580 1.424 . S
C577 C582 1.245 . S
C577 C583 1.428 . S
C578 C581 1.260 . S
C578 C582 1.477 . S
C578 H596 0.932 . S
C579 C580 1.384 . S
C579 C581 1.479 . S
C579 H597 0.929 . S
C580 C577 1.424 . S
C580 C579 1.384 . S
C580 H598 0.928 . S
C581 C578 1.260 . S
C581 C579 1.479 . S
C582 C577 1.245 . S
C582 C578 1.477 . S
C582 H599 0.932 . S
C583 U566 2.882 . S
C583 C577 1.428 . S
C583 O586 1.301 . S
C583 O587 1.282 . S
O584 U566 2.441 . S
O584 C570 1.249 . S
O585 U566 2.420 . S
O585 C570 1.202 . S
O586 U566 2.455 . S
O586 C583 1.301 . S
O587 U566 2.449 . S
O587 C583 1.282 . S
H588 C561 0.931 . S
H589 C563 0.929 . S
H590 C564 0.930 . S
H591 C565 0.931 . S
H592 C572 0.932 . S
H593 C573 0.930 . S
H594 C574 0.929 . S
H595 C576 0.930 . S
H596 C578 0.932 . S
H597 C579 0.929 . S
H598 C580 0.928 . S
H599 C582 0.932 . S
C600 C601 1.264 . S
C600 C605 1.479 . S
C600 C610 1.465 . S
C601 C600 1.264 . S
C601 C603 1.339 . S
C601 H628 0.931 . S
C602 C603 1.395 . S
C602 C604 1.320 . S
C603 C601 1.339 . S
C603 C602 1.395 . S
C603 H629 0.929 . S
C604 C602 1.320 . S
C604 C605 1.405 . S
C604 H630 0.930 . S
C605 C600 1.479 . S
C605 C604 1.405 . S
C605 H631 0.931 . S
U606 O607 2.454 . S
U606 O608 2.458 . S
U606 C609 2.984 . S
U606 C610 2.847 . S
U606 C623 2.882 . S
U606 O624 2.441 . S
U606 O625 2.420 . S
U606 O626 2.455 . S
U606 O627 2.449 . S
O607 U606 2.454 . S
O607 C609 1.353 . S
O608 U606 2.458 . S
O608 C609 1.286 . S
C609 U606 2.984 . S
C609 O607 1.353 . S
C609 O608 1.286 . S
C609 C611 1.363 . S
C610 C600 1.465 . S
C610 U606 2.847 . S
C610 O624 1.249 . S
C610 O625 1.202 . S
C611 C609 1.363 . S
C611 C613 1.408 . S
C611 C616 1.342 . S
C612 C613 1.310 . S
C612 C615 1.461 . S
C612 H632 0.932 . S
C613 C611 1.408 . S
C613 C612 1.310 . S
C613 H633 0.930 . S
C614 C615 1.474 . S
C614 C616 1.285 . S
C614 H634 0.929 . S
C615 C612 1.461 . S
C615 C614 1.474 . S
C616 C611 1.342 . S
C616 C614 1.285 . S
C616 H635 0.930 . S
C617 C620 1.424 . S
C617 C622 1.245 . S
C617 C623 1.428 . S
C618 C621 1.260 . S
C618 C622 1.477 . S
C618 H636 0.932 . S
C619 C620 1.384 . S
C619 C621 1.479 . S
C619 H637 0.929 . S
C620 C617 1.424 . S
C620 C619 1.384 . S
C620 H638 0.928 . S
C621 C618 1.260 . S
C621 C619 1.479 . S
C622 C617 1.245 . S
C622 C618 1.477 . S
C622 H639 0.932 . S
C623 U606 2.882 . S
C623 C617 1.428 . S
C623 O626 1.301 . S
C623 O627 1.282 . S
O624 U606 2.441 . S
O624 C610 1.249 . S
O625 U606 2.420 . S
O625 C610 1.202 . S
O626 U606 2.455 . S
O626 C623 1.301 . S
O627 U606 2.449 . S
O627 C623 1.282 . S
H628 C601 0.931 . S
H629 C603 0.929 . S
H630 C604 0.930 . S
H631 C605 0.931 . S
H632 C612 0.932 . S
H633 C613 0.930 . S
H634 C614 0.929 . S
H635 C616 0.930 . S
H636 C618 0.932 . S
H637 C619 0.929 . S
H638 C620 0.928 . S
H639 C622 0.932 . S
C640 C641 1.264 . S
C640 C645 1.479 . S
C640 C650 1.465 . S
C641 C640 1.264 . S
C641 C643 1.339 . S
C641 H668 0.931 . S
C642 C643 1.395 . S
C642 C644 1.320 . S
C643 C641 1.339 . S
C643 C642 1.395 . S
C643 H669 0.929 . S
C644 C642 1.320 . S
C644 C645 1.405 . S
C644 H670 0.930 . S
C645 C640 1.479 . S
C645 C644 1.405 . S
C645 H671 0.931 . S
U646 O647 2.454 . S
U646 O648 2.458 . S
U646 C649 2.984 . S
U646 C650 2.847 . S
U646 C663 2.882 . S
U646 O664 2.441 . S
U646 O665 2.420 . S
U646 O666 2.455 . S
U646 O667 2.449 . S
O647 U646 2.454 . S
O647 C649 1.353 . S
O648 U646 2.458 . S
O648 C649 1.286 . S
C649 U646 2.984 . S
C649 O647 1.353 . S
C649 O648 1.286 . S
C649 C651 1.363 . S
C650 C640 1.465 . S
C650 U646 2.847 . S
C650 O664 1.249 . S
C650 O665 1.202 . S
C651 C649 1.363 . S
C651 C653 1.408 . S
C651 C656 1.342 . S
C652 C653 1.310 . S
C652 C655 1.461 . S
C652 H672 0.932 . S
C653 C651 1.408 . S
C653 C652 1.310 . S
C653 H673 0.930 . S
C654 C655 1.474 . S
C654 C656 1.285 . S
C654 H674 0.929 . S
C655 C652 1.461 . S
C655 C654 1.474 . S
C656 C651 1.342 . S
C656 C654 1.285 . S
C656 H675 0.930 . S
C657 C660 1.424 . S
C657 C662 1.245 . S
C657 C663 1.428 . S
C658 C661 1.260 . S
C658 C662 1.477 1_655 S
C658 H676 0.932 . S
C659 C660 1.384 1_655 S
C659 C661 1.479 . S
C659 H677 0.929 . S
C660 C657 1.424 . S
C660 C659 1.384 1_455 S
C660 H678 0.928 . S
C661 C658 1.260 . S
C661 C659 1.479 . S
C662 C657 1.245 . S
C662 C658 1.477 1_455 S
C662 H679 0.932 . S
C663 U646 2.882 . S
C663 C657 1.428 . S
C663 O666 1.301 . S
C663 O667 1.282 . S
O664 U646 2.441 . S
O664 C650 1.249 . S
O665 U646 2.420 . S
O665 C650 1.202 . S
O666 U646 2.455 . S
O666 C663 1.301 . S
O667 U646 2.449 . S
O667 C663 1.282 . S
H668 C641 0.931 . S
H669 C643 0.929 . S
H670 C644 0.930 . S
H671 C645 0.931 . S
H672 C652 0.932 . S
H673 C653 0.930 . S
H674 C654 0.929 . S
H675 C656 0.930 . S
H676 C658 0.932 . S
H677 C659 0.929 . S
H678 C660 0.928 . S
H679 C662 0.932 . S
C680 C681 1.264 . S
C680 C685 1.479 . S
C680 C690 1.465 . S
C681 C680 1.264 . S
C681 C683 1.339 . S
C681 H708 0.931 . S
C682 C683 1.395 . S
C682 C684 1.320 . S
C683 C681 1.339 . S
C683 C682 1.395 . S
C683 H709 0.929 . S
C684 C682 1.320 . S
C684 C685 1.405 . S
C684 H710 0.930 . S
C685 C680 1.479 . S
C685 C684 1.405 . S
C685 H711 0.931 . S
U686 O687 2.454 . S
U686 O688 2.458 . S
U686 C689 2.984 . S
U686 C690 2.847 . S
U686 C703 2.882 . S
U686 O704 2.441 . S
U686 O705 2.420 . S
U686 O706 2.455 . S
U686 O707 2.449 . S
O687 U686 2.454 . S
O687 C689 1.353 . S
O688 U686 2.458 . S
O688 C689 1.286 . S
C689 U686 2.984 . S
C689 O687 1.353 . S
C689 O688 1.286 . S
C689 C691 1.363 . S
C690 C680 1.465 . S
C690 U686 2.847 . S
C690 O704 1.249 . S
C690 O705 1.202 . S
C691 C689 1.363 . S
C691 C693 1.408 . S
C691 C696 1.342 . S
C692 C693 1.310 . S
C692 C695 1.461 . S
C692 H712 0.932 . S
C693 C691 1.408 . S
C693 C692 1.310 . S
C693 H713 0.930 . S
C694 C695 1.474 . S
C694 C696 1.285 . S
C694 H714 0.929 . S
C695 C692 1.461 . S
C695 C694 1.474 . S
C696 C691 1.342 . S
C696 C694 1.285 . S
C696 H715 0.930 . S
C697 C700 1.424 . S
C697 C702 1.245 . S
C697 C703 1.428 . S
C698 C701 1.260 . S
C698 C702 1.477 . S
C698 H716 0.932 . S
C699 C700 1.384 . S
C699 C701 1.479 . S
C699 H717 0.929 . S
C700 C697 1.424 . S
C700 C699 1.384 . S
C700 H718 0.928 . S
C701 C698 1.260 . S
C701 C699 1.479 . S
C702 C697 1.245 . S
C702 C698 1.477 . S
C702 H719 0.932 . S
C703 U686 2.882 . S
C703 C697 1.428 . S
C703 O706 1.301 . S
C703 O707 1.282 . S
O704 U686 2.441 . S
O704 C690 1.249 . S
O705 U686 2.420 . S
O705 C690 1.202 . S
O706 U686 2.455 . S
O706 C703 1.301 . S
O707 U686 2.449 . S
O707 C703 1.282 . S
H708 C681 0.931 . S
H709 C683 0.929 . S
H710 C684 0.930 . S
H711 C685 0.931 . S
H712 C692 0.932 . S
H713 C693 0.930 . S
H714 C694 0.929 . S
H715 C696 0.930 . S
H716 C698 0.932 . S
H717 C699 0.929 . S
H718 C700 0.928 . S
H719 C702 0.932 . S
C720 Eu721 2.835 . S
C720 C722 1.500 . S
C720 O740 1.257 1_545 S
C720 O741 1.260 . S
Eu721 C720 2.835 . S
Eu721 O740 2.473 1_545 S
Eu721 O741 2.480 . S
Eu721 O742 2.430 . S
Eu721 O743 2.670 1_554 S
Eu721 O744 2.394 1_545 S
Eu721 O749 2.355 1_545 S
Eu721 O751 2.374 . S
C722 C720 1.500 . S
C722 C723 1.377 . S
C722 C727 1.377 1_545 S
C723 C722 1.377 . S
C723 C724 1.395 . S
C723 H752 0.931 . S
C724 C723 1.395 . S
C724 C725 1.383 1_545 S
C724 H753 0.931 . S
C725 C724 1.383 1_565 S
C725 C726 1.394 . S
C726 C725 1.394 . S
C726 C727 1.378 . S
C726 H754 0.931 . S
C727 C722 1.377 1_565 S
C727 C726 1.378 . S
C727 H755 0.931 . S
C728 O742 1.259 . S
C728 O743 1.270 1_554 S
C729 O744 1.251 . S
C729 O745 1.189 1_554 S
C730 Eu731 2.835 . S
C730 C732 1.500 . S
C730 O746 1.257 1_565 S
C730 O747 1.260 . S
Eu731 C730 2.835 . S
Eu731 O743 2.355 1_565 S
Eu731 O745 2.420 . S
Eu731 O746 2.473 1_565 S
Eu731 O747 2.480 . S
Eu731 O748 2.430 . S
Eu731 O749 2.670 1_556 S
Eu731 O750 2.394 1_565 S
C732 C730 1.500 . S
C732 C733 1.377 . S
C732 C737 1.377 1_565 S
C733 C732 1.377 . S
C733 C734 1.395 . S
C733 H756 0.931 . S
C734 C733 1.395 . S
C734 C735 1.383 1_565 S
C734 H757 0.931 . S
C735 C734 1.383 1_545 S
C735 C736 1.394 . S
C736 C735 1.394 . S
C736 C737 1.378 . S
C736 H758 0.931 . S
C737 C732 1.377 1_545 S
C737 C736 1.378 . S
C737 H759 0.931 . S
C738 O748 1.259 1_554 S
C738 O749 1.270 . S
C739 O750 1.251 . S
C739 O751 1.251 1_556 S
O740 C720 1.257 1_565 S
O740 Eu721 2.473 1_565 S
O741 C720 1.260 . S
O741 Eu721 2.480 . S
O742 Eu721 2.430 . S
O742 C728 1.259 . S
O743 Eu721 2.670 1_556 S
O743 C728 1.270 1_556 S
O743 Eu731 2.355 1_545 S
O744 Eu721 2.394 1_565 S
O744 C729 1.251 . S
O745 C729 1.189 1_556 S
O745 Eu731 2.420 . S
O746 C730 1.257 1_545 S
O746 Eu731 2.473 1_545 S
O747 C730 1.260 . S
O747 Eu731 2.480 . S
O748 Eu731 2.430 . S
O748 C738 1.259 1_556 S
O749 Eu721 2.355 1_565 S
O749 Eu731 2.670 1_554 S
O749 C738 1.270 . S
O750 Eu731 2.394 1_545 S
O750 C739 1.251 . S
O751 Eu721 2.374 . S
O751 C739 1.251 1_554 S
H752 C723 0.931 . S
H753 C724 0.931 . S
H754 C726 0.931 . S
H755 C727 0.931 . S
H756 C733 0.931 . S
H757 C734 0.931 . S
H758 C736 0.931 . S
H759 C737 0.931 . S
C760 Eu761 2.835 . S
C760 C762 1.500 1_655 S
C760 O780 1.257 1_655 S
C760 O781 1.260 . S
Eu761 C760 2.835 . S
Eu761 O780 2.473 1_655 S
Eu761 O781 2.480 . S
Eu761 O782 2.430 . S
Eu761 O783 2.670 1_554 S
Eu761 O784 2.394 1_655 S
Eu761 O789 2.355 1_655 S
Eu761 O791 2.374 . S
C762 C760 1.500 1_455 S
C762 C763 1.377 1_455 S
C762 C767 1.377 . S
C763 C762 1.377 1_655 S
C763 C764 1.395 . S
C763 H792 0.931 . S
C764 C763 1.395 . S
C764 C765 1.383 1_655 S
C764 H793 0.931 . S
C765 C764 1.383 1_455 S
C765 C766 1.394 . S
C766 C765 1.394 . S
C766 C767 1.378 . S
C766 H794 0.931 . S
C767 C762 1.377 . S
C767 C766 1.378 . S
C767 H795 0.931 . S
C768 O782 1.259 1_556 S
C768 O783 1.270 . S
C769 O784 1.251 . S
C769 O785 1.251 . S
C770 Eu771 2.835 . S
C770 C772 1.500 1_455 S
C770 O786 1.257 1_455 S
C770 O787 1.260 . S
Eu771 C770 2.835 . S
Eu771 O783 2.355 1_455 S
Eu771 O785 2.374 1_556 S
Eu771 O786 2.473 1_455 S
Eu771 O787 2.480 . S
Eu771 O788 2.430 . S
Eu771 O789 2.670 1_556 S
Eu771 O790 2.394 1_455 S
C772 C770 1.500 1_655 S
C772 C773 1.377 1_655 S
C772 C777 1.377 . S
C773 C772 1.377 1_455 S
C773 C774 1.395 . S
C773 H796 0.931 . S
C774 C773 1.395 . S
C774 C775 1.383 1_455 S
C774 H797 0.931 . S
C775 C774 1.383 1_655 S
C775 C776 1.394 . S
C776 C775 1.394 . S
C776 C777 1.378 . S
C776 H798 0.931 . S
C777 C772 1.377 . S
C777 C776 1.378 . S
C777 H799 0.931 . S
C778 O788 1.259 1_554 S
C778 O789 1.270 . S
C779 O790 1.251 . S
C779 O791 1.251 1_556 S
O780 C760 1.257 1_455 S
O780 Eu761 2.473 1_455 S
O781 C760 1.260 . S
O781 Eu761 2.480 . S
O782 Eu761 2.430 . S
O782 C768 1.259 1_554 S
O783 Eu761 2.670 1_556 S
O783 C768 1.270 . S
O783 Eu771 2.355 1_655 S
O784 Eu761 2.394 1_455 S
O784 C769 1.251 . S
O785 C769 1.251 . S
O785 Eu771 2.374 1_554 S
O786 C770 1.257 1_655 S
O786 Eu771 2.473 1_655 S
O787 C770 1.260 . S
O787 Eu771 2.480 . S
O788 Eu771 2.430 . S
O788 C778 1.259 1_556 S
O789 Eu761 2.355 1_455 S
O789 Eu771 2.670 1_554 S
O789 C778 1.270 . S
O790 Eu771 2.394 1_655 S
O790 C779 1.251 . S
O791 Eu761 2.374 . S
O791 C779 1.251 1_554 S
H792 C763 0.931 . S
H793 C764 0.931 . S
H794 C766 0.931 . S
H795 C767 0.931 . S
H796 C773 0.931 . S
H797 C774 0.931 . S
H798 C776 0.931 . S
H799 C777 0.931 . S
C800 Eu801 2.835 . S
C800 C802 1.500 . S
C800 O820 1.257 . S
C800 O821 1.260 . S
Eu801 C800 2.835 . S
Eu801 O820 2.473 . S
Eu801 O821 2.480 . S
Eu801 O822 2.430 . S
Eu801 O823 2.670 1_556 S
Eu801 O824 2.394 . S
Eu801 O829 2.355 . S
Eu801 O831 2.374 1_556 S
C802 C800 1.500 . S
C802 C803 1.377 . S
C802 C807 1.377 . S
C803 C802 1.377 . S
C803 C804 1.395 . S
C803 H832 0.931 . S
C804 C803 1.395 . S
C804 C805 1.383 . S
C804 H833 0.931 . S
C805 C804 1.383 . S
C805 C806 1.394 . S
C806 C805 1.394 . S
C806 C807 1.378 . S
C806 H834 0.931 . S
C807 C802 1.377 . S
C807 C806 1.378 . S
C807 H835 0.931 . S
C808 O822 1.259 1_554 S
C808 O823 1.270 . S
C809 O824 1.251 . S
C809 O825 1.251 1_556 S
C810 Eu811 2.835 . S
C810 C812 1.500 . S
C810 O826 1.257 . S
C810 O827 1.260 . S
Eu811 C810 2.835 . S
Eu811 O823 2.355 . S
Eu811 O825 2.374 . S
Eu811 O826 2.473 . S
Eu811 O827 2.480 . S
Eu811 O828 2.430 . S
Eu811 O829 2.670 1_554 S
Eu811 O830 2.394 . S
C812 C810 1.500 . S
C812 C813 1.377 . S
C812 C817 1.377 . S
C813 C812 1.377 . S
C813 C814 1.395 . S
C813 H836 0.931 . S
C814 C813 1.395 . S
C814 C815 1.383 . S
C814 H837 0.931 . S
C815 C814 1.383 . S
C815 C816 1.394 . S
C816 C815 1.394 . S
C816 C817 1.378 . S
C816 H838 0.931 . S
C817 C812 1.377 . S
C817 C816 1.378 . S
C817 H839 0.931 . S
C818 O828 1.201 1_556 S
C818 O829 1.296 . S
C819 O830 1.251 . S
C819 O831 1.251 . S
O820 C800 1.257 . S
O820 Eu801 2.473 . S
O821 C800 1.260 . S
O821 Eu801 2.480 . S
O822 Eu801 2.430 . S
O822 C808 1.259 1_556 S
O823 Eu801 2.670 1_554 S
O823 C808 1.270 . S
O823 Eu811 2.355 . S
O824 Eu801 2.394 . S
O824 C809 1.251 . S
O825 C809 1.251 1_554 S
O825 Eu811 2.374 . S
O826 C810 1.257 . S
O826 Eu811 2.473 . S
O827 C810 1.260 . S
O827 Eu811 2.480 . S
O828 Eu811 2.430 . S
O828 C818 1.201 1_554 S
O829 Eu801 2.355 . S
O829 Eu811 2.670 1_556 S
O829 C818 1.296 . S
O830 Eu811 2.394 . S
O830 C819 1.251 . S
O831 Eu801 2.374 1_554 S
O831 C819 1.251 . S
H832 C803 0.931 . S
H833 C804 0.931 . S
H834 C806 0.931 . S
H835 C807 0.931 . S
H836 C813 0.931 . S
H837 C814 0.931 . S
H838 C816 0.931 . S
H839 C817 0.931 . S
C840 Eu841 2.835 . S
C840 C842 1.500 . S
C840 O860 1.257 . S
C840 O861 1.260 . S
Eu841 C840 2.835 . S
Eu841 O860 2.473 . S
Eu841 O861 2.480 . S
Eu841 O862 2.430 . S
Eu841 O863 2.670 . S
Eu841 O864 2.394 . S
Eu841 O869 2.355 . S
Eu841 O871 2.374 . S
C842 C840 1.500 . S
C842 C843 1.377 . S
C842 C847 1.377 . S
C843 C842 1.377 . S
C843 C844 1.395 . S
C843 H872 0.931 . S
C844 C843 1.395 . S
C844 C845 1.383 . S
C844 H873 0.931 . S
C845 C844 1.383 . S
C845 C846 1.394 . S
C846 C845 1.394 . S
C846 C847 1.378 . S
C846 H874 0.931 . S
C847 C842 1.377 . S
C847 C846 1.378 . S
C847 H875 0.931 . S
C848 O862 1.259 . S
C848 O863 1.270 . S
C849 O864 1.251 . S
C849 O865 1.251 . S
C850 Eu851 2.835 . S
C850 C852 1.500 . S
C850 O866 1.257 . S
C850 O867 1.260 . S
Eu851 C850 2.835 . S
Eu851 O863 2.355 . S
Eu851 O865 2.374 . S
Eu851 O866 2.473 . S
Eu851 O867 2.480 . S
Eu851 O868 2.430 . S
Eu851 O869 2.670 . S
Eu851 O870 2.394 . S
C852 C850 1.500 . S
C852 C853 1.377 . S
C852 C857 1.377 . S
C853 C852 1.377 . S
C853 C854 1.395 . S
C853 H876 0.931 . S
C854 C853 1.395 . S
C854 C855 1.383 . S
C854 H877 0.931 . S
C855 C854 1.383 . S
C855 C856 1.394 . S
C856 C855 1.394 . S
C856 C857 1.378 . S
C856 H878 0.931 . S
C857 C852 1.377 . S
C857 C856 1.378 . S
C857 H879 0.931 . S
C858 O868 1.259 . S
C858 O869 1.270 . S
C859 O870 1.251 . S
C859 O871 1.251 . S
O860 C840 1.257 . S
O860 Eu841 2.473 . S
O861 C840 1.260 . S
O861 Eu841 2.480 . S
O862 Eu841 2.430 . S
O862 C848 1.259 . S
O863 Eu841 2.670 . S
O863 C848 1.270 . S
O863 Eu851 2.355 . S
O864 Eu841 2.394 . S
O864 C849 1.251 . S
O865 C849 1.251 . S
O865 Eu851 2.374 . S
O866 C850 1.257 . S
O866 Eu851 2.473 . S
O867 C850 1.260 . S
O867 Eu851 2.480 . S
O868 Eu851 2.430 . S
O868 C858 1.259 . S
O869 Eu841 2.355 . S
O869 Eu851 2.670 . S
O869 C858 1.270 . S
O870 Eu851 2.394 . S
O870 C859 1.251 . S
O871 Eu841 2.374 . S
O871 C859 1.251 . S
H872 C843 0.931 . S
H873 C844 0.931 . S
H874 C846 0.931 . S
H875 C847 0.931 . S
H876 C853 0.931 . S
H877 C854 0.931 . S
H878 C856 0.931 . S
H879 C857 0.931 . S
C880 Eu881 2.835 . S
C880 C882 1.500 . S
C880 O900 1.257 . S
C880 O901 1.260 . S
Eu881 C880 2.835 . S
Eu881 O900 2.473 . S
Eu881 O901 2.480 . S
Eu881 O902 2.430 . S
Eu881 O903 2.670 . S
Eu881 O904 2.394 . S
Eu881 O909 2.355 . S
Eu881 O911 2.374 . S
C882 C880 1.500 . S
C882 C883 1.377 . S
C882 C887 1.377 . S
C883 C882 1.377 . S
C883 C884 1.395 . S
C883 H912 0.931 . S
C884 C883 1.395 . S
C884 C885 1.383 . S
C884 H913 0.931 . S
C885 C884 1.383 . S
C885 C886 1.394 . S
C886 C885 1.394 . S
C886 C887 1.378 . S
C886 H914 0.931 . S
C887 C882 1.377 . S
C887 C886 1.378 . S
C887 H915 0.931 . S
C888 O902 1.259 . S
C888 O903 1.270 . S
C889 O904 1.251 . S
C889 O905 1.251 . S
C890 Eu891 2.835 . S
C890 C892 1.500 . S
C890 O906 1.257 . S
C890 O907 1.260 . S
Eu891 C890 2.835 . S
Eu891 O903 2.355 . S
Eu891 O905 2.374 . S
Eu891 O906 2.473 . S
Eu891 O907 2.480 . S
Eu891 O908 2.430 . S
Eu891 O909 2.670 . S
Eu891 O910 2.394 . S
C892 C890 1.500 . S
C892 C893 1.377 . S
C892 C897 1.377 . S
C893 C892 1.377 . S
C893 C894 1.395 . S
C893 H916 0.931 . S
C894 C893 1.395 . S
C894 C895 1.383 . S
C894 H917 0.931 . S
C895 C894 1.383 . S
C895 C896 1.394 . S
C896 C895 1.394 . S
C896 C897 1.378 . S
C896 H918 0.931 . S
C897 C892 1.377 . S
C897 C896 1.378 . S
C897 H919 0.931 . S
C898 O908 1.259 . S
C898 O909 1.270 . S
C899 O910 1.251 . S
C899 O911 1.251 . S
O900 C880 1.257 . S
O900 Eu881 2.473 . S
O901 C880 1.260 . S
O901 Eu881 2.480 . S
O902 Eu881 2.430 . S
O902 C888 1.259 . S
O903 Eu881 2.670 . S
O903 C888 1.270 . S
O903 Eu891 2.355 . S
O904 Eu881 2.394 . S
O904 C889 1.251 . S
O905 C889 1.251 . S
O905 Eu891 2.374 . S
O906 C890 1.257 . S
O906 Eu891 2.473 . S
O907 C890 1.260 . S
O907 Eu891 2.480 . S
O908 Eu891 2.430 . S
O908 C898 1.259 . S
O909 Eu881 2.355 . S
O909 Eu891 2.670 . S
O909 C898 1.270 . S
O910 Eu891 2.394 . S
O910 C899 1.251 . S
O911 Eu881 2.374 . S
O911 C899 1.251 . S
H912 C883 0.931 . S
H913 C884 0.931 . S
H914 C886 0.931 . S
H915 C887 0.931 . S
H916 C893 0.931 . S
H917 C894 0.931 . S
H918 C896 0.931 . S
H919 C897 0.931 . S
C920 Eu921 2.835 . S
C920 C922 1.500 . S
C920 O940 1.257 . S
C920 O941 1.260 . S
Eu921 C920 2.835 . S
Eu921 O940 2.473 . S
Eu921 O941 2.480 . S
Eu921 O942 2.430 . S
Eu921 O943 2.670 . S
Eu921 O944 2.394 . S
Eu921 O949 2.355 . S
Eu921 O951 2.374 . S
C922 C920 1.500 . S
C922 C923 1.377 . S
C922 C927 1.377 . S
C923 C922 1.377 . S
C923 C924 1.395 . S
C923 H952 0.931 . S
C924 C923 1.395 . S
C924 C925 1.383 . S
C924 H953 0.931 . S
C925 C924 1.383 . S
C925 C926 1.394 . S
C926 C925 1.394 . S
C926 C927 1.378 . S
C926 H954 0.931 . S
C927 C922 1.377 . S
C927 C926 1.378 . S
C927 H955 0.931 . S
C928 O942 1.259 . S
C928 O943 1.270 . S
C929 O944 1.251 . S
C929 O945 1.251 . S
C930 Eu931 2.835 . S
C930 C932 1.500 . S
C930 O946 1.257 . S
C930 O947 1.260 . S
Eu931 C930 2.835 . S
Eu931 O943 2.355 . S
Eu931 O945 2.374 . S
Eu931 O946 2.473 . S
Eu931 O947 2.480 . S
Eu931 O948 2.430 . S
Eu931 O949 2.670 . S
Eu931 O950 2.394 . S
C932 C930 1.500 . S
C932 C933 1.377 . S
C932 C937 1.377 . S
C933 C932 1.377 . S
C933 C934 1.395 . S
C933 H956 0.931 . S
C934 C933 1.395 . S
C934 C935 1.383 . S
C934 H957 0.931 . S
C935 C934 1.383 . S
C935 C936 1.394 . S
C936 C935 1.394 . S
C936 C937 1.378 . S
C936 H958 0.931 . S
C937 C932 1.377 . S
C937 C936 1.378 . S
C937 H959 0.931 . S
C938 O948 1.259 . S
C938 O949 1.270 . S
C939 O950 1.251 . S
C939 O951 1.251 . S
O940 C920 1.257 . S
O940 Eu921 2.473 . S
O941 C920 1.260 . S
O941 Eu921 2.480 . S
O942 Eu921 2.430 . S
O942 C928 1.259 . S
O943 Eu921 2.670 . S
O943 C928 1.270 . S
O943 Eu931 2.355 . S
O944 Eu921 2.394 . S
O944 C929 1.251 . S
O945 C929 1.251 . S
O945 Eu931 2.374 . S
O946 C930 1.257 . S
O946 Eu931 2.473 . S
O947 C930 1.260 . S
O947 Eu931 2.480 . S
O948 Eu931 2.430 . S
O948 C938 1.259 . S
O949 Eu921 2.355 . S
O949 Eu931 2.670 . S
O949 C938 1.270 . S
O950 Eu931 2.394 . S
O950 C939 1.251 . S
O951 Eu921 2.374 . S
O951 C939 1.251 . S
H952 C923 0.931 . S
H953 C924 0.931 . S
H954 C926 0.931 . S
H955 C927 0.931 . S
H956 C933 0.931 . S
H957 C934 0.931 . S
H958 C936 0.931 . S
H959 C937 0.931 . S
C960 Eu961 2.835 . S
C960 C962 1.500 . S
C960 O980 1.257 . S
C960 O981 1.260 . S
Eu961 C960 2.835 . S
Eu961 O980 2.473 . S
Eu961 O981 2.480 . S
Eu961 O982 2.430 . S
Eu961 O983 2.670 . S
Eu961 O984 2.394 . S
Eu961 O989 2.355 . S
Eu961 O991 2.374 . S
C962 C960 1.500 . S
C962 C963 1.377 . S
C962 C967 1.377 . S
C963 C962 1.377 . S
C963 C964 1.395 . S
C963 H992 0.931 . S
C964 C963 1.395 . S
C964 C965 1.383 . S
C964 H993 0.931 . S
C965 C964 1.383 . S
C965 C966 1.394 . S
C966 C965 1.394 . S
C966 C967 1.378 . S
C966 H994 0.931 . S
C967 C962 1.377 . S
C967 C966 1.378 . S
C967 H995 0.931 . S
C968 O982 1.259 . S
C968 O983 1.270 . S
C969 O984 1.251 . S
C969 O985 1.251 . S
C970 Eu971 2.835 . S
C970 C972 1.500 . S
C970 O986 1.257 . S
C970 O987 1.260 . S
Eu971 C970 2.835 . S
Eu971 O983 2.355 . S
Eu971 O985 2.374 . S
Eu971 O986 2.473 . S
Eu971 O987 2.480 . S
Eu971 O988 2.430 . S
Eu971 O989 2.670 . S
Eu971 O990 2.394 . S
C972 C970 1.500 . S
C972 C973 1.377 . S
C972 C977 1.377 . S
C973 C972 1.377 . S
C973 C974 1.395 . S
C973 H996 0.931 . S
C974 C973 1.395 . S
C974 C975 1.383 . S
C974 H997 0.931 . S
C975 C974 1.383 . S
C975 C976 1.394 . S
C976 C975 1.394 . S
C976 C977 1.378 . S
C976 H998 0.931 . S
C977 C972 1.377 . S
C977 C976 1.378 . S
C977 H999 0.931 . S
C978 O988 1.259 . S
C978 O989 1.270 . S
C979 O990 1.251 . S
C979 O991 1.251 . S
O980 C960 1.257 . S
O980 Eu961 2.473 . S
O981 C960 1.260 . S
O981 Eu961 2.480 . S
O982 Eu961 2.430 . S
O982 C968 1.259 . S
O983 Eu961 2.670 . S
O983 C968 1.270 . S
O983 Eu971 2.355 . S
O984 Eu961 2.394 . S
O984 C969 1.251 . S
O985 C969 1.251 . S
O985 Eu971 2.374 . S
O986 C970 1.257 . S
O986 Eu971 2.473 . S
O987 C970 1.260 . S
O987 Eu971 2.480 . S
O988 Eu971 2.430 . S
O988 C978 1.259 . S
O989 Eu961 2.355 . S
O989 Eu971 2.670 . S
O989 C978 1.270 . S
O990 Eu971 2.394 . S
O990 C979 1.251 . S
O991 Eu961 2.374 . S
O991 C979 1.251 . S
H992 C963 0.931 . S
H993 C964 0.931 . S
H994 C966 0.931 . S
H995 C967 0.931 . S
H996 C973 0.931 . S
H997 C974 0.931 . S
H998 C976 0.931 . S
H999 C977 0.931 . S
C1000 Eu1001 2.835 . S
C1000 C1002 1.500 . S
C1000 O1020 1.257 . S
C1000 O1021 1.260 . S
Eu1001 C1000 2.835 . S
Eu1001 O1020 2.473 . S
Eu1001 O1021 2.480 . S
Eu1001 O1022 2.430 . S
Eu1001 O1023 2.670 . S
Eu1001 O1024 2.394 . S
Eu1001 O1029 2.355 . S
Eu1001 O1031 2.374 . S
C1002 C1000 1.500 . S
C1002 C1003 1.377 . S
C1002 C1007 1.377 . S
C1003 C1002 1.377 . S
C1003 C1004 1.395 . S
C1003 H1032 0.931 . S
C1004 C1003 1.395 . S
C1004 C1005 1.383 . S
C1004 H1033 0.931 . S
C1005 C1004 1.383 . S
C1005 C1006 1.394 . S
C1006 C1005 1.394 . S
C1006 C1007 1.378 . S
C1006 H1034 0.931 . S
C1007 C1002 1.377 . S
C1007 C1006 1.378 . S
C1007 H1035 0.931 . S
C1008 O1022 1.259 . S
C1008 O1023 1.270 . S
C1009 O1024 1.251 . S
C1009 O1025 1.251 . S
C1010 Eu1011 2.835 . S
C1010 C1012 1.500 . S
C1010 O1026 1.257 . S
C1010 O1027 1.260 . S
Eu1011 C1010 2.835 . S
Eu1011 O1023 2.355 . S
Eu1011 O1025 2.374 . S
Eu1011 O1026 2.473 . S
Eu1011 O1027 2.480 . S
Eu1011 O1028 2.430 . S
Eu1011 O1029 2.670 . S
Eu1011 O1030 2.394 . S
C1012 C1010 1.500 . S
C1012 C1013 1.377 . S
C1012 C1017 1.377 . S
C1013 C1012 1.377 . S
C1013 C1014 1.395 . S
C1013 H1036 0.931 . S
C1014 C1013 1.395 . S
C1014 C1015 1.383 . S
C1014 H1037 0.931 . S
C1015 C1014 1.383 . S
C1015 C1016 1.394 . S
C1016 C1015 1.394 . S
C1016 C1017 1.378 . S
C1016 H1038 0.931 . S
C1017 C1012 1.377 . S
C1017 C1016 1.378 . S
C1017 H1039 0.931 . S
C1018 O1028 1.259 . S
C1018 O1029 1.270 . S
C1019 O1030 1.251 . S
C1019 O1031 1.251 . S
O1020 C1000 1.257 . S
O1020 Eu1001 2.473 . S
O1021 C1000 1.260 . S
O1021 Eu1001 2.480 . S
O1022 Eu1001 2.430 . S
O1022 C1008 1.259 . S
O1023 Eu1001 2.670 . S
O1023 C1008 1.270 . S
O1023 Eu1011 2.355 . S
O1024 Eu1001 2.394 . S
O1024 C1009 1.251 . S
O1025 C1009 1.251 . S
O1025 Eu1011 2.374 . S
O1026 C1010 1.257 . S
O1026 Eu1011 2.473 . S
O1027 C1010 1.260 . S
O1027 Eu1011 2.480 . S
O1028 Eu1011 2.430 . S
O1028 C1018 1.259 . S
O1029 Eu1001 2.355 . S
O1029 Eu1011 2.670 . S
O1029 C1018 1.270 . S
O1030 Eu1011 2.394 . S
O1030 C1019 1.251 . S
O1031 Eu1001 2.374 . S
O1031 C1019 1.251 . S
H1032 C1003 0.931 . S
H1033 C1004 0.931 . S
H1034 C1006 0.931 . S
H1035 C1007 0.931 . S
H1036 C1013 0.931 . S
H1037 C1014 0.931 . S
H1038 C1016 0.931 . S
H1039 C1017 0.931 . S
C1040 Eu1041 2.835 . S
C1040 C1042 1.500 . S
C1040 O1060 1.257 . S
C1040 O1061 1.260 . S
Eu1041 C1040 2.835 . S
Eu1041 O1060 2.473 . S
Eu1041 O1061 2.480 . S
Eu1041 O1062 2.430 . S
Eu1041 O1063 2.670 . S
Eu1041 O1064 2.394 . S
Eu1041 O1069 2.355 . S
Eu1041 O1071 2.374 . S
C1042 C1040 1.500 . S
C1042 C1043 1.377 . S
C1042 C1047 1.377 . S
C1043 C1042 1.377 . S
C1043 C1044 1.395 . S
C1043 H1072 0.931 . S
C1044 C1043 1.395 . S
C1044 C1045 1.383 . S
C1044 H1073 0.931 . S
C1045 C1044 1.383 . S
C1045 C1046 1.394 . S
C1046 C1045 1.394 . S
C1046 C1047 1.378 . S
C1046 H1074 0.931 . S
C1047 C1042 1.377 . S
C1047 C1046 1.378 . S
C1047 H1075 0.931 . S
C1048 O1062 1.259 . S
C1048 O1063 1.270 . S
C1049 O1064 1.251 . S
C1049 O1065 1.251 . S
C1050 Eu1051 2.835 . S
C1050 C1052 1.500 . S
C1050 O1066 1.257 . S
C1050 O1067 1.260 . S
Eu1051 C1050 2.835 . S
Eu1051 O1063 2.355 . S
Eu1051 O1065 2.374 . S
Eu1051 O1066 2.473 . S
Eu1051 O1067 2.480 . S
Eu1051 O1068 2.430 . S
Eu1051 O1069 2.670 . S
Eu1051 O1070 2.394 . S
C1052 C1050 1.500 . S
C1052 C1053 1.377 . S
C1052 C1057 1.377 . S
C1053 C1052 1.377 . S
C1053 C1054 1.395 . S
C1053 H1076 0.931 . S
C1054 C1053 1.395 . S
C1054 C1055 1.383 . S
C1054 H1077 0.931 . S
C1055 C1054 1.383 . S
C1055 C1056 1.394 . S
C1056 C1055 1.394 . S
C1056 C1057 1.378 . S
C1056 H1078 0.931 . S
C1057 C1052 1.377 . S
C1057 C1056 1.378 . S
C1057 H1079 0.931 . S
C1058 O1068 1.259 . S
C1058 O1069 1.270 . S
C1059 O1070 1.251 . S
C1059 O1071 1.251 . S
O1060 C1040 1.257 . S
O1060 Eu1041 2.473 . S
O1061 C1040 1.260 . S
O1061 Eu1041 2.480 . S
O1062 Eu1041 2.430 . S
O1062 C1048 1.259 . S
O1063 Eu1041 2.670 . S
O1063 C1048 1.270 . S
O1063 Eu1051 2.355 . S
O1064 Eu1041 2.394 . S
O1064 C1049 1.251 . S
O1065 C1049 1.251 . S
O1065 Eu1051 2.374 . S
O1066 C1050 1.257 . S
O1066 Eu1051 2.473 . S
O1067 C1050 1.260 . S
O1067 Eu1051 2.480 . S
O1068 Eu1051 2.430 . S
O1068 C1058 1.259 . S
O1069 Eu1041 2.355 . S
O1069 Eu1051 2.670 . S
O1069 C1058 1.270 . S
O1070 Eu1051 2.394 . S
O1070 C1059 1.251 . S
O1071 Eu1041 2.374 . S
O1071 C1059 1.251 . S
H1072 C1043 0.931 . S
H1073 C1044 0.931 . S
H1074 C1046 0.931 . S
H1075 C1047 0.931 . S
H1076 C1053 0.931 . S
H1077 C1054 0.931 . S
H1078 C1056 0.931 . S
H1079 C1057 0.931 . S
C1080 C1081 1.363 . S
C1080 C1086 1.379 . S
C1080 N1088 1.356 . S
C1081 C1080 1.363 . S
C1081 C1087 1.363 . S
C1082 C1083 1.363 . S
C1082 C1087 1.379 . S
C1082 N1089 1.356 . S
C1083 C1082 1.363 . S
C1083 C1086 1.363 . S
N1084 C1086 1.356 1_556 S
N1084 H1096 0.984 . S
N1084 H1097 0.985 . S
N1085 C1087 1.356 . S
N1085 H1090 0.984 . S
N1085 H1091 0.985 . S
C1086 C1080 1.379 . S
C1086 C1083 1.363 . S
C1086 N1084 1.356 1_554 S
C1087 C1081 1.363 . S
C1087 C1082 1.379 . S
C1087 N1085 1.356 . S
N1088 C1080 1.356 . S
N1088 H1094 0.984 1_554 S
N1088 H1095 0.984 . S
N1089 C1082 1.356 . S
N1089 H1092 0.984 . S
N1089 H1093 0.985 . S
H1090 N1085 0.984 . S
H1091 N1085 0.985 . S
H1092 N1089 0.984 . S
H1093 N1089 0.985 . S
H1094 N1088 0.984 1_556 S
H1095 N1088 0.984 . S
H1096 N1084 0.984 . S
H1097 N1084 0.985 . S
C1098 C1099 1.363 . S
C1098 C1104 1.379 . S
C1098 N1106 1.356 . S
C1099 C1098 1.363 . S
C1099 C1105 1.363 . S
C1100 C1101 1.363 . S
C1100 C1105 1.379 . S
C1100 N1107 1.356 . S
C1101 C1100 1.363 . S
C1101 C1104 1.363 . S
N1102 C1104 1.356 . S
N1102 H1114 0.984 . S
N1102 H1115 0.985 . S
N1103 C1105 1.356 . S
N1103 H1108 0.984 . S
N1103 H1109 0.985 . S
C1104 C1098 1.379 . S
C1104 C1101 1.363 . S
C1104 N1102 1.356 . S
C1105 C1099 1.363 . S
C1105 C1100 1.379 . S
C1105 N1103 1.356 . S
N1106 C1098 1.356 . S
N1106 H1112 0.984 . S
N1106 H1113 0.984 . S
N1107 C1100 1.356 . S
N1107 H1110 0.984 . S
N1107 H1111 0.985 . S
H1108 N1103 0.984 . S
H1109 N1103 0.985 . S
H1110 N1107 0.984 . S
H1111 N1107 0.985 . S
H1112 N1106 0.984 . S
H1113 N1106 0.984 . S
H1114 N1102 0.984 . S
H1115 N1102 0.985 . S
C1116 C1117 1.363 . S
C1116 C1122 1.379 . S
C1116 N1124 1.356 . S
C1117 C1116 1.363 . S
C1117 C1123 1.390 . S
C1118 C1119 1.414 . S
C1118 C1123 1.376 . S
C1118 N1125 1.328 1_554 S
C1119 C1118 1.414 . S
C1119 C1122 1.363 . S
N1120 C1122 1.356 . S
N1120 H1132 0.984 . S
N1120 H1133 0.985 . S
N1121 C1123 1.329 1_556 S
N1121 H1126 0.984 . S
N1121 H1127 0.985 . S
C1122 C1116 1.379 . S
C1122 C1119 1.363 . S
C1122 N1120 1.356 . S
C1123 C1117 1.390 . S
C1123 C1118 1.376 . S
C1123 N1121 1.329 1_554 S
N1124 C1116 1.356 . S
N1124 H1130 0.984 . S
N1124 H1131 0.984 . S
N1125 C1118 1.328 1_556 S
N1125 H1128 0.984 . S
N1125 H1129 0.985 . S
H1126 N1121 0.984 . S
H1127 N1121 0.985 . S
H1128 N1125 0.984 . S
H1129 N1125 0.985 . S
H1130 N1124 0.984 . S
H1131 N1124 0.984 . S
H1132 N1120 0.984 . S
H1133 N1120 0.985 . S
C1134 C1135 1.363 1_554 S
C1134 C1140 1.379 . S
C1134 N1142 1.356 . S
C1135 C1134 1.363 1_556 S
C1135 C1141 1.363 . S
C1136 C1137 1.363 . S
C1136 C1141 1.379 . S
C1136 N1143 1.356 . S
C1137 C1136 1.363 . S
C1137 C1140 1.363 1_556 S
N1138 C1140 1.356 . S
N1138 H1150 0.984 . S
N1138 H1151 0.985 . S
N1139 C1141 1.356 . S
N1139 H1144 0.984 . S
N1139 H1145 0.985 . S
C1140 C1134 1.379 . S
C1140 C1137 1.363 1_554 S
C1140 N1138 1.356 . S
C1141 C1135 1.363 . S
C1141 C1136 1.379 . S
C1141 N1139 1.356 . S
N1142 C1134 1.356 . S
N1142 H1148 0.984 . S
N1142 H1149 0.984 . S
N1143 C1136 1.356 . S
N1143 H1146 0.984 . S
N1143 H1147 0.985 . S
H1144 N1139 0.984 . S
H1145 N1139 0.985 . S
H1146 N1143 0.984 . S
H1147 N1143 0.985 . S
H1148 N1142 0.984 . S
H1149 N1142 0.984 . S
H1150 N1138 0.984 . S
H1151 N1138 0.985 . S
C1152 C1153 1.363 . S
C1152 C1158 1.379 . S
C1152 N1160 1.356 . S
C1153 C1152 1.363 . S
C1153 C1159 1.363 . S
C1154 C1155 1.363 . S
C1154 C1159 1.379 . S
C1154 N1161 1.356 1_556 S
C1155 C1154 1.363 . S
C1155 C1158 1.363 . S
N1156 C1158 1.356 . S
N1156 H1168 0.984 . S
N1156 H1169 0.985 . S
N1157 C1159 1.356 . S
N1157 H1162 0.984 . S
N1157 H1163 0.985 1_556 S
C1158 C1152 1.379 . S
C1158 C1155 1.363 . S
C1158 N1156 1.356 . S
C1159 C1153 1.363 . S
C1159 C1154 1.379 . S
C1159 N1157 1.356 . S
N1160 C1152 1.356 . S
N1160 H1166 0.984 . S
N1160 H1167 0.984 . S
N1161 C1154 1.356 1_554 S
N1161 H1164 0.984 . S
N1161 H1165 0.985 . S
H1162 N1157 0.984 . S
H1163 N1157 0.985 1_554 S
H1164 N1161 0.984 . S
H1165 N1161 0.985 . S
H1166 N1160 0.984 . S
H1167 N1160 0.984 . S
H1168 N1156 0.984 . S
H1169 N1156 0.985 . S
C1170 C1171 1.363 . S
C1170 C1176 1.379 . S
C1170 N1178 1.356 . S
C1171 C1170 1.363 . S
C1171 C1177 1.363 . S
C1172 C1173 1.360 1_554 S
C1172 C1177 1.378 1_554 S
C1172 N1179 1.360 . S
C1173 C1172 1.360 1_556 S
C1173 C1176 1.363 . S
N1174 C1176 1.356 . S
N1174 H1186 0.984 1_545 S
N1174 H1187 0.985 . S
N1175 C1177 1.356 1_554 S
N1175 H1180 0.978 1_554 S
N1175 H1181 0.985 . S
C1176 C1170 1.379 . S
C1176 C1173 1.363 . S
C1176 N1174 1.356 . S
C1177 C1171 1.363 . S
C1177 C1172 1.378 1_556 S
C1177 N1175 1.356 1_556 S
N1178 C1170 1.356 . S
N1178 H1184 0.984 1_545 S
N1178 H1185 0.984 . S
N1179 C1172 1.360 . S
N1179 H1182 0.984 . S
N1179 H1183 0.985 . S
H1180 N1175 0.978 1_556 S
H1181 N1175 0.985 . S
H1182 N1179 0.984 . S
H1183 N1179 0.985 . S
H1184 N1178 0.984 1_565 S
H1185 N1178 0.984 . S
H1186 N1174 0.984 1_565 S
H1187 N1174 0.985 . S
C1188 C1189 1.363 . S
C1188 C1194 1.379 . S
C1188 N1196 1.356 . S
C1189 C1188 1.363 . S
C1189 C1195 1.363 . S
C1190 C1191 1.363 . S
C1190 C1195 1.379 . S
C1190 N1197 1.356 1_556 S
C1191 C1190 1.363 . S
C1191 C1194 1.363 . S
N1192 C1194 1.356 . S
N1192 H1204 0.984 . S
N1192 H1205 0.985 . S
N1193 C1195 1.356 1_554 S
N1193 H1198 0.984 1_554 S
N1193 H1199 0.985 . S
C1194 C1188 1.379 . S
C1194 C1191 1.363 . S
C1194 N1192 1.356 . S
C1195 C1189 1.363 . S
C1195 C1190 1.379 . S
C1195 N1193 1.356 1_556 S
N1196 C1188 1.356 . S
N1196 H1202 0.984 . S
N1196 H1203 0.984 . S
N1197 C1190 1.356 1_554 S
N1197 H1200 0.984 . S
N1197 H1201 0.985 . S
H1198 N1193 0.984 1_556 S
H1199 N1193 0.985 . S
H1200 N1197 0.984 . S
H1201 N1197 0.985 . S
H1202 N1196 0.984 . S
H1203 N1196 0.984 . S
H1204 N1192 0.984 . S
H1205 N1192 0.985 . S
C1206 C1207 1.363 . S
C1206 C1212 1.379 . S
C1206 N1214 1.356 . S
C1207 C1206 1.363 . S
C1207 C1213 1.363 . S
C1208 C1209 1.363 . S
C1208 C1213 1.379 . S
C1208 N1215 1.356 . S
C1209 C1208 1.363 . S
C1209 C1212 1.363 . S
N1210 C1212 1.356 . S
N1210 H1222 0.984 . S
N1210 H1223 0.985 . S
N1211 C1213 1.356 . S
N1211 H1216 0.984 . S
N1211 H1217 0.985 . S
C1212 C1206 1.379 . S
C1212 C1209 1.363 . S
C1212 N1210 1.356 . S
C1213 C1207 1.363 . S
C1213 C1208 1.379 . S
C1213 N1211 1.356 . S
N1214 C1206 1.356 . S
N1214 H1220 0.984 . S
N1214 H1221 0.984 . S
N1215 C1208 1.356 . S
N1215 H1218 0.984 . S
N1215 H1219 0.985 1_556 S
H1216 N1211 0.984 . S
H1217 N1211 0.985 . S
H1218 N1215 0.984 . S
H1219 N1215 0.985 1_554 S
H1220 N1214 0.984 . S
H1221 N1214 0.984 . S
H1222 N1210 0.984 . S
H1223 N1210 0.985 . S
C1224 C1225 1.363 1_554 S
C1224 C1230 1.387 . S
C1224 N1232 1.356 . S
C1225 C1224 1.363 1_556 S
C1225 C1231 1.363 . S
C1226 C1227 1.363 . S
C1226 C1231 1.379 . S
C1226 N1233 1.356 . S
C1227 C1226 1.363 . S
C1227 C1230 1.337 1_556 S
N1228 C1230 1.370 . S
N1228 H1240 0.984 . S
N1228 H1241 0.985 . S
N1229 C1231 1.356 . S
N1229 H1234 0.984 . S
N1229 H1235 0.985 . S
C1230 C1224 1.387 . S
C1230 C1227 1.337 1_554 S
C1230 N1228 1.370 . S
C1231 C1225 1.363 . S
C1231 C1226 1.379 . S
C1231 N1229 1.356 . S
N1232 C1224 1.356 . S
N1232 H1238 0.984 . S
N1232 H1239 0.984 . S
N1233 C1226 1.356 . S
N1233 H1236 0.984 . S
N1233 H1237 0.985 . S
H1234 N1229 0.984 . S
H1235 N1229 0.985 . S
H1236 N1233 0.984 . S
H1237 N1233 0.985 . S
H1238 N1232 0.984 . S
H1239 N1232 0.984 . S
H1240 N1228 0.984 . S
H1241 N1228 0.985 . S
C1242 C1243 1.363 . S
C1242 C1248 1.379 . S
C1242 N1250 1.356 . S
C1243 C1242 1.363 . S
C1243 C1249 1.363 . S
C1244 C1245 1.363 . S
C1244 C1249 1.379 . S
C1244 N1251 1.356 1_554 S
C1245 C1244 1.363 . S
C1245 C1248 1.363 . S
N1246 C1248 1.356 . S
N1246 H1258 0.984 . S
N1246 H1259 0.985 . S
N1247 C1249 1.356 1_556 S
N1247 H1252 0.984 1_556 S
N1247 H1253 0.985 . S
C1248 C1242 1.379 . S
C1248 C1245 1.363 . S
C1248 N1246 1.356 . S
C1249 C1243 1.363 . S
C1249 C1244 1.379 . S
C1249 N1247 1.356 1_554 S
N1250 C1242 1.356 . S
N1250 H1256 0.984 . S
N1250 H1257 0.984 . S
N1251 C1244 1.356 1_556 S
N1251 H1254 0.984 . S
N1251 H1255 0.985 . S
H1252 N1247 0.984 1_554 S
H1253 N1247 0.985 . S
H1254 N1251 0.984 . S
H1255 N1251 0.985 . S
H1256 N1250 0.984 . S
H1257 N1250 0.984 . S
H1258 N1246 0.984 . S
H1259 N1246 0.985 . S
C1260 C1261 1.363 . S
C1260 C1266 1.379 . S
C1260 N1268 1.356 . S
C1261 C1260 1.363 . S
C1261 C1267 1.363 . S
C1262 C1263 1.363 . S
C1262 C1267 1.379 . S
C1262 N1269 1.356 . S
C1263 C1262 1.363 . S
C1263 C1266 1.363 . S
N1264 C1266 1.298 1_556 S
N1264 H1276 1.034 . S
N1264 H1277 0.996 . S
N1265 C1267 1.356 . S
N1265 H1270 0.984 . S
N1265 H1271 0.985 . S
C1266 C1260 1.379 . S
C1266 C1263 1.363 . S
C1266 N1264 1.298 1_554 S
C1267 C1261 1.363 . S
C1267 C1262 1.379 . S
C1267 N1265 1.356 . S
N1268 C1260 1.356 . S
N1268 H1274 0.984 . S
N1268 H1275 0.984 . S
N1269 C1262 1.356 . S
N1269 H1272 0.984 . S
N1269 H1273 0.985 . S
H1270 N1265 0.984 . S
H1271 N1265 0.985 . S
H1272 N1269 0.984 . S
H1273 N1269 0.985 . S
H1274 N1268 0.984 . S
H1275 N1268 0.984 . S
H1276 N1264 1.034 . S
H1277 N1264 0.996 . S
C1278 C1279 1.363 . S
C1278 C1284 1.379 . S
C1278 N1286 1.356 . S
C1279 C1278 1.363 . S
C1279 C1285 1.363 . S
C1280 C1281 1.363 . S
C1280 C1285 1.379 . S
C1280 N1287 1.356 1_554 S
C1281 C1280 1.363 . S
C1281 C1284 1.363 . S
N1282 C1284 1.356 . S
N1282 H1294 0.984 . S
N1282 H1295 0.985 . S
N1283 C1285 1.356 1_556 S
N1283 H1288 0.966 1_556 S
N1283 H1289 0.985 . S
C1284 C1278 1.379 . S
C1284 C1281 1.363 . S
C1284 N1282 1.356 . S
C1285 C1279 1.363 . S
C1285 C1280 1.379 . S
C1285 N1283 1.356 1_554 S
N1286 C1278 1.356 . S
N1286 H1292 0.984 . S
N1286 H1293 0.984 . S
N1287 C1280 1.356 1_556 S
N1287 H1290 0.984 . S
N1287 H1291 0.985 . S
H1288 N1283 0.966 1_554 S
H1289 N1283 0.985 . S
H1290 N1287 0.984 . S
H1291 N1287 0.985 . S
H1292 N1286 0.984 . S
H1293 N1286 0.984 . S
H1294 N1282 0.984 . S
H1295 N1282 0.985 . S
C1296 C1297 1.363 . S
C1296 C1302 1.379 . S
C1296 N1304 1.356 . S
C1297 C1296 1.363 . S
C1297 C1303 1.363 . S
C1298 C1299 1.363 . S
C1298 C1303 1.379 . S
C1298 N1305 1.356 . S
C1299 C1298 1.363 . S
C1299 C1302 1.363 . S
N1300 C1302 1.356 . S
N1300 H1312 0.984 . S
N1300 H1313 0.985 . S
N1301 C1303 1.356 . S
N1301 H1306 0.984 . S
N1301 H1307 0.985 . S
C1302 C1296 1.379 . S
C1302 C1299 1.363 . S
C1302 N1300 1.356 . S
C1303 C1297 1.363 . S
C1303 C1298 1.379 . S
C1303 N1301 1.356 . S
N1304 C1296 1.356 . S
N1304 H1310 0.984 1_455 S
N1304 H1311 0.984 1_455 S
N1305 C1298 1.356 . S
N1305 H1308 0.984 . S
N1305 H1309 0.985 . S
H1306 N1301 0.984 . S
H1307 N1301 0.985 . S
H1308 N1305 0.984 . S
H1309 N1305 0.985 . S
H1310 N1304 0.984 1_655 S
H1311 N1304 0.984 1_655 S
H1312 N1300 0.984 . S
H1313 N1300 0.985 . S
C1314 C1315 1.363 . S
C1314 C1320 1.379 . S
C1314 N1322 1.356 . S
C1315 C1314 1.363 . S
C1315 C1321 1.363 . S
C1316 C1317 1.363 . S
C1316 C1321 1.379 . S
C1316 N1323 1.356 . S
C1317 C1316 1.363 . S
C1317 C1320 1.363 . S
N1318 C1320 1.356 . S
N1318 H1330 0.984 . S
N1318 H1331 0.985 . S
N1319 C1321 1.356 . S
N1319 H1324 0.984 . S
N1319 H1325 0.985 . S
C1320 C1314 1.379 . S
C1320 C1317 1.363 . S
C1320 N1318 1.356 . S
C1321 C1315 1.363 . S
C1321 C1316 1.379 . S
C1321 N1319 1.356 . S
N1322 C1314 1.356 . S
N1322 H1328 0.984 . S
N1322 H1329 0.984 . S
N1323 C1316 1.356 . S
N1323 H1326 0.984 . S
N1323 H1327 0.985 . S
H1324 N1319 0.984 . S
H1325 N1319 0.985 . S
H1326 N1323 0.984 . S
H1327 N1323 0.985 . S
H1328 N1322 0.984 . S
H1329 N1322 0.984 . S
H1330 N1318 0.984 . S
H1331 N1318 0.985 . S
C1332 C1333 1.363 . S
C1332 C1338 1.379 . S
C1332 N1340 1.356 . S
C1333 C1332 1.363 . S
C1333 C1339 1.363 . S
C1334 C1335 1.363 . S
C1334 C1339 1.379 . S
C1334 N1341 1.356 . S
C1335 C1334 1.363 . S
C1335 C1338 1.363 . S
N1336 C1338 1.356 . S
N1336 H1348 0.984 . S
N1336 H1349 0.985 . S
N1337 C1339 1.356 . S
N1337 H1342 0.984 1_565 S
N1337 H1343 0.985 . S
C1338 C1332 1.379 . S
C1338 C1335 1.363 . S
C1338 N1336 1.356 . S
C1339 C1333 1.363 . S
C1339 C1334 1.379 . S
C1339 N1337 1.356 . S
N1340 C1332 1.356 . S
N1340 H1346 0.984 . S
N1340 H1347 0.984 1_565 S
N1341 C1334 1.356 . S
N1341 H1344 0.984 . S
N1341 H1345 0.985 . S
H1342 N1337 0.984 1_545 S
H1343 N1337 0.985 . S
H1344 N1341 0.984 . S
H1345 N1341 0.985 . S
H1346 N1340 0.984 . S
H1347 N1340 0.984 1_545 S
H1348 N1336 0.984 . S
H1349 N1336 0.985 . S
C1350 C1351 1.363 . S
C1350 C1356 1.379 . S
C1350 N1358 1.356 . S
C1351 C1350 1.363 . S
C1351 C1357 1.363 . S
C1352 C1353 1.363 . S
C1352 C1357 1.379 . S
C1352 N1359 1.356 . S
C1353 C1352 1.363 . S
C1353 C1356 1.363 . S
N1354 C1356 1.356 . S
N1354 H1366 0.984 . S
N1354 H1367 0.985 . S
N1355 C1357 1.356 . S
N1355 H1360 0.984 . S
N1355 H1361 0.985 . S
C1356 C1350 1.379 . S
C1356 C1353 1.363 . S
C1356 N1354 1.356 . S
C1357 C1351 1.363 . S
C1357 C1352 1.379 . S
C1357 N1355 1.356 . S
N1358 C1350 1.356 . S
N1358 H1364 0.984 . S
N1358 H1365 0.984 . S
N1359 C1352 1.356 . S
N1359 H1362 0.984 . S
N1359 H1363 0.985 . S
H1360 N1355 0.984 . S
H1361 N1355 0.985 . S
H1362 N1359 0.984 . S
H1363 N1359 0.985 . S
H1364 N1358 0.984 . S
H1365 N1358 0.984 . S
H1366 N1354 0.984 . S
H1367 N1354 0.985 . S
C1368 C1369 1.363 . S
C1368 C1374 1.379 . S
C1368 N1376 1.356 . S
C1369 C1368 1.363 . S
C1369 C1375 1.363 . S
C1370 C1371 1.363 . S
C1370 C1375 1.379 . S
C1370 N1377 1.356 . S
C1371 C1370 1.363 . S
C1371 C1374 1.363 . S
N1372 C1374 1.356 . S
N1372 H1384 0.984 . S
N1372 H1385 0.985 . S
N1373 C1375 1.356 . S
N1373 H1378 0.984 . S
N1373 H1379 0.985 . S
C1374 C1368 1.379 . S
C1374 C1371 1.363 . S
C1374 N1372 1.356 . S
C1375 C1369 1.363 . S
C1375 C1370 1.379 . S
C1375 N1373 1.356 . S
N1376 C1368 1.356 . S
N1376 H1382 0.984 . S
N1376 H1383 0.984 . S
N1377 C1370 1.356 . S
N1377 H1380 0.984 . S
N1377 H1381 0.985 . S
H1378 N1373 0.984 . S
H1379 N1373 0.985 . S
H1380 N1377 0.984 . S
H1381 N1377 0.985 . S
H1382 N1376 0.984 . S
H1383 N1376 0.984 . S
H1384 N1372 0.984 . S
H1385 N1372 0.985 . S
C1386 C1387 1.363 . S
C1386 C1392 1.379 . S
C1386 N1394 1.356 . S
C1387 C1386 1.363 . S
C1387 C1393 1.363 . S
C1388 C1389 1.363 . S
C1388 C1393 1.379 . S
C1388 N1395 1.356 . S
C1389 C1388 1.363 . S
C1389 C1392 1.363 . S
N1390 C1392 1.356 . S
N1390 H1402 0.984 . S
N1390 H1403 0.985 . S
N1391 C1393 1.356 . S
N1391 H1396 0.984 . S
N1391 H1397 0.985 . S
C1392 C1386 1.379 . S
C1392 C1389 1.363 . S
C1392 N1390 1.356 . S
C1393 C1387 1.363 . S
C1393 C1388 1.379 . S
C1393 N1391 1.356 . S
N1394 C1386 1.356 . S
N1394 H1400 0.984 . S
N1394 H1401 0.984 . S
N1395 C1388 1.356 . S
N1395 H1398 0.984 . S
N1395 H1399 0.985 . S
H1396 N1391 0.984 . S
H1397 N1391 0.985 . S
H1398 N1395 0.984 . S
H1399 N1395 0.985 . S
H1400 N1394 0.984 . S
H1401 N1394 0.984 . S
H1402 N1390 0.984 . S
H1403 N1390 0.985 . S
C1404 C1405 1.363 . S
C1404 C1410 1.379 . S
C1404 N1412 1.356 . S
C1405 C1404 1.363 . S
C1405 C1411 1.363 . S
C1406 C1407 1.363 . S
C1406 C1411 1.379 . S
C1406 N1413 1.356 . S
C1407 C1406 1.363 . S
C1407 C1410 1.363 . S
N1408 C1410 1.356 . S
N1408 H1420 0.984 . S
N1408 H1421 0.985 . S
N1409 C1411 1.356 . S
N1409 H1414 0.984 . S
N1409 H1415 0.985 . S
C1410 C1404 1.379 . S
C1410 C1407 1.363 . S
C1410 N1408 1.356 . S
C1411 C1405 1.363 . S
C1411 C1406 1.379 . S
C1411 N1409 1.356 . S
N1412 C1404 1.356 . S
N1412 H1418 0.984 . S
N1412 H1419 0.984 . S
N1413 C1406 1.356 . S
N1413 H1416 0.984 . S
N1413 H1417 0.985 . S
H1414 N1409 0.984 . S
H1415 N1409 0.985 . S
H1416 N1413 0.984 . S
H1417 N1413 0.985 . S
H1418 N1412 0.984 . S
H1419 N1412 0.984 . S
H1420 N1408 0.984 . S
H1421 N1408 0.985 . S
C1422 C1423 1.363 . S
C1422 C1428 1.379 . S
C1422 N1430 1.356 . S
C1423 C1422 1.363 . S
C1423 C1429 1.363 . S
C1424 C1425 1.363 . S
C1424 C1429 1.379 . S
C1424 N1431 1.356 . S
C1425 C1424 1.363 . S
C1425 C1428 1.363 . S
N1426 C1428 1.356 . S
N1426 H1438 0.984 . S
N1426 H1439 0.985 . S
N1427 C1429 1.356 . S
N1427 H1432 0.984 . S
N1427 H1433 0.985 . S
C1428 C1422 1.379 . S
C1428 C1425 1.363 . S
C1428 N1426 1.356 . S
C1429 C1423 1.363 . S
C1429 C1424 1.379 . S
C1429 N1427 1.356 . S
N1430 C1422 1.356 . S
N1430 H1436 0.984 . S
N1430 H1437 0.984 . S
N1431 C1424 1.356 . S
N1431 H1434 0.984 . S
N1431 H1435 0.985 . S
H1432 N1427 0.984 . S
H1433 N1427 0.985 . S
H1434 N1431 0.984 . S
H1435 N1431 0.985 . S
H1436 N1430 0.984 . S
H1437 N1430 0.984 . S
H1438 N1426 0.984 . S
H1439 N1426 0.985 . S
C1440 C1441 1.363 . S
C1440 C1446 1.379 . S
C1440 N1448 1.356 . S
C1441 C1440 1.363 . S
C1441 C1447 1.363 . S
C1442 C1443 1.363 . S
C1442 C1447 1.379 . S
C1442 N1449 1.356 . S
C1443 C1442 1.363 . S
C1443 C1446 1.363 . S
N1444 C1446 1.356 . S
N1444 H1456 0.984 . S
N1444 H1457 0.985 . S
N1445 C1447 1.356 . S
N1445 H1450 0.984 . S
N1445 H1451 0.985 . S
C1446 C1440 1.379 . S
C1446 C1443 1.363 . S
C1446 N1444 1.356 . S
C1447 C1441 1.363 . S
C1447 C1442 1.379 . S
C1447 N1445 1.356 . S
N1448 C1440 1.356 . S
N1448 H1454 0.984 . S
N1448 H1455 0.984 . S
N1449 C1442 1.356 . S
N1449 H1452 0.984 . S
N1449 H1453 0.985 . S
H1450 N1445 0.984 . S
H1451 N1445 0.985 . S
H1452 N1449 0.984 . S
H1453 N1449 0.985 . S
H1454 N1448 0.984 . S
H1455 N1448 0.984 . S
H1456 N1444 0.984 . S
H1457 N1444 0.985 . S
C1458 C1459 1.363 . S
C1458 C1464 1.379 . S
C1458 N1466 1.356 . S
C1459 C1458 1.363 . S
C1459 C1465 1.363 . S
C1460 C1461 1.363 . S
C1460 C1465 1.379 . S
C1460 N1467 1.356 . S
C1461 C1460 1.363 . S
C1461 C1464 1.363 . S
N1462 C1464 1.356 . S
N1462 H1474 0.984 . S
N1462 H1475 0.985 . S
N1463 C1465 1.356 . S
N1463 H1468 0.984 1_565 S
N1463 H1469 0.985 . S
C1464 C1458 1.379 . S
C1464 C1461 1.363 . S
C1464 N1462 1.356 . S
C1465 C1459 1.363 . S
C1465 C1460 1.379 . S
C1465 N1463 1.356 . S
N1466 C1458 1.356 . S
N1466 H1472 0.984 . S
N1466 H1473 0.984 1_565 S
N1467 C1460 1.356 . S
N1467 H1470 0.984 . S
N1467 H1471 0.985 . S
H1468 N1463 0.984 1_545 S
H1469 N1463 0.985 . S
H1470 N1467 0.984 . S
H1471 N1467 0.985 . S
H1472 N1466 0.984 . S
H1473 N1466 0.984 1_545 S
H1474 N1462 0.984 . S
H1475 N1462 0.985 . S
C1476 C1477 1.363 . S
C1476 C1482 1.379 . S
C1476 N1484 1.356 . S
C1477 C1476 1.363 . S
C1477 C1483 1.363 . S
C1478 C1479 1.363 . S
C1478 C1483 1.379 . S
C1478 N1485 1.356 . S
C1479 C1478 1.363 . S
C1479 C1482 1.363 . S
N1480 C1482 1.356 . S
N1480 H1492 0.984 . S
N1480 H1493 0.985 . S
N1481 C1483 1.356 . S
N1481 H1486 0.984 . S
N1481 H1487 0.985 . S
C1482 C1476 1.379 . S
C1482 C1479 1.363 . S
C1482 N1480 1.356 . S
C1483 C1477 1.363 . S
C1483 C1478 1.379 . S
C1483 N1481 1.356 . S
N1484 C1476 1.356 . S
N1484 H1490 0.984 . S
N1484 H1491 0.984 . S
N1485 C1478 1.356 . S
N1485 H1488 0.984 . S
N1485 H1489 0.985 . S
H1486 N1481 0.984 . S
H1487 N1481 0.985 . S
H1488 N1485 0.984 . S
H1489 N1485 0.985 . S
H1490 N1484 0.984 . S
H1491 N1484 0.984 . S
H1492 N1480 0.984 . S
H1493 N1480 0.985 . S
C1494 C1495 1.363 . S
C1494 C1500 1.379 . S
C1494 N1502 1.356 . S
C1495 C1494 1.363 . S
C1495 C1501 1.363 . S
C1496 C1497 1.363 . S
C1496 C1501 1.379 . S
C1496 N1503 1.356 . S
C1497 C1496 1.363 . S
C1497 C1500 1.363 . S
N1498 C1500 1.356 . S
N1498 H1510 0.984 . S
N1498 H1511 0.985 . S
N1499 C1501 1.356 . S
N1499 H1504 0.984 . S
N1499 H1505 0.985 . S
C1500 C1494 1.379 . S
C1500 C1497 1.363 . S
C1500 N1498 1.356 . S
C1501 C1495 1.363 . S
C1501 C1496 1.379 . S
C1501 N1499 1.356 . S
N1502 C1494 1.356 . S
N1502 H1508 0.984 . S
N1502 H1509 0.984 . S
N1503 C1496 1.356 . S
N1503 H1506 0.984 . S
N1503 H1507 0.985 . S
H1504 N1499 0.984 . S
H1505 N1499 0.985 . S
H1506 N1503 0.984 . S
H1507 N1503 0.985 . S
H1508 N1502 0.984 . S
H1509 N1502 0.984 . S
H1510 N1498 0.984 . S
H1511 N1498 0.985 . S
C1512 C1513 1.363 . S
C1512 C1518 1.379 . S
C1512 N1520 1.356 . S
C1513 C1512 1.363 . S
C1513 C1519 1.363 . S
C1514 C1515 1.363 . S
C1514 C1519 1.379 . S
C1514 N1521 1.356 . S
C1515 C1514 1.363 . S
C1515 C1518 1.363 . S
N1516 C1518 1.356 . S
N1516 H1528 0.984 . S
N1516 H1529 0.985 . S
N1517 C1519 1.356 . S
N1517 H1522 0.984 . S
N1517 H1523 0.985 . S
C1518 C1512 1.379 . S
C1518 C1515 1.363 . S
C1518 N1516 1.356 . S
C1519 C1513 1.363 . S
C1519 C1514 1.379 . S
C1519 N1517 1.356 . S
N1520 C1512 1.356 . S
N1520 H1526 0.984 . S
N1520 H1527 0.984 . S
N1521 C1514 1.356 . S
N1521 H1524 0.984 . S
N1521 H1525 0.985 . S
H1522 N1517 0.984 . S
H1523 N1517 0.985 . S
H1524 N1521 0.984 . S
H1525 N1521 0.985 . S
H1526 N1520 0.984 . S
H1527 N1520 0.984 . S
H1528 N1516 0.984 . S
H1529 N1516 0.985 . S
C1530 C1531 1.363 . S
C1530 C1536 1.379 . S
C1530 N1538 1.356 . S
C1531 C1530 1.363 . S
C1531 C1537 1.363 . S
C1532 C1533 1.363 . S
C1532 C1537 1.379 . S
C1532 N1539 1.356 . S
C1533 C1532 1.363 . S
C1533 C1536 1.363 . S
N1534 C1536 1.356 . S
N1534 H1546 0.984 . S
N1534 H1547 0.985 . S
N1535 C1537 1.356 . S
N1535 H1540 0.984 . S
N1535 H1541 0.985 . S
C1536 C1530 1.379 . S
C1536 C1533 1.363 . S
C1536 N1534 1.356 . S
C1537 C1531 1.363 . S
C1537 C1532 1.379 . S
C1537 N1535 1.356 . S
N1538 C1530 1.356 . S
N1538 H1544 0.984 . S
N1538 H1545 0.984 . S
N1539 C1532 1.356 . S
N1539 H1542 0.984 . S
N1539 H1543 0.985 . S
H1540 N1535 0.984 . S
H1541 N1535 0.985 . S
H1542 N1539 0.984 . S
H1543 N1539 0.985 . S
H1544 N1538 0.984 . S
H1545 N1538 0.984 . S
H1546 N1534 0.984 . S
H1547 N1534 0.985 . S
C1548 C1549 1.363 . S
C1548 C1554 1.379 . S
C1548 N1556 1.356 . S
C1549 C1548 1.363 . S
C1549 C1555 1.363 . S
C1550 C1551 1.363 . S
C1550 C1555 1.379 . S
C1550 N1557 1.356 . S
C1551 C1550 1.363 . S
C1551 C1554 1.363 . S
N1552 C1554 1.356 . S
N1552 H1564 0.984 . S
N1552 H1565 0.985 . S
N1553 C1555 1.356 . S
N1553 H1558 0.984 . S
N1553 H1559 0.985 . S
C1554 C1548 1.379 . S
C1554 C1551 1.363 . S
C1554 N1552 1.356 . S
C1555 C1549 1.363 . S
C1555 C1550 1.379 . S
C1555 N1553 1.356 . S
N1556 C1548 1.356 . S
N1556 H1562 0.984 . S
N1556 H1563 0.984 . S
N1557 C1550 1.356 . S
N1557 H1560 0.984 . S
N1557 H1561 0.985 . S
H1558 N1553 0.984 . S
H1559 N1553 0.985 . S
H1560 N1557 0.984 . S
H1561 N1557 0.985 . S
H1562 N1556 0.984 . S
H1563 N1556 0.984 . S
H1564 N1552 0.984 . S
H1565 N1552 0.985 . S
C1566 C1567 1.363 . S
C1566 C1572 1.379 . S
C1566 N1574 1.356 . S
C1567 C1566 1.363 . S
C1567 C1573 1.363 . S
C1568 C1569 1.363 . S
C1568 C1573 1.379 . S
C1568 N1575 1.356 . S
C1569 C1568 1.363 . S
C1569 C1572 1.363 . S
N1570 C1572 1.356 . S
N1570 H1582 0.984 . S
N1570 H1583 0.985 . S
N1571 C1573 1.356 . S
N1571 H1576 0.984 1_545 S
N1571 H1577 0.985 . S
C1572 C1566 1.379 . S
C1572 C1569 1.363 . S
C1572 N1570 1.356 . S
C1573 C1567 1.363 . S
C1573 C1568 1.379 . S
C1573 N1571 1.356 . S
N1574 C1566 1.356 . S
N1574 H1580 0.984 . S
N1574 H1581 0.984 1_545 S
N1575 C1568 1.356 . S
N1575 H1578 0.984 . S
N1575 H1579 0.985 . S
H1576 N1571 0.984 1_565 S
H1577 N1571 0.985 . S
H1578 N1575 0.984 . S
H1579 N1575 0.985 . S
H1580 N1574 0.984 . S
H1581 N1574 0.984 1_565 S
H1582 N1570 0.984 . S
H1583 N1570 0.985 . S
C1584 C1585 1.363 . S
C1584 C1590 1.379 . S
C1584 N1592 1.356 . S
C1585 C1584 1.363 . S
C1585 C1591 1.363 . S
C1586 C1587 1.363 . S
C1586 C1591 1.379 . S
C1586 N1593 1.356 . S
C1587 C1586 1.363 . S
C1587 C1590 1.363 . S
N1588 C1590 1.356 . S
N1588 H1600 0.984 . S
N1588 H1601 0.985 . S
N1589 C1591 1.356 . S
N1589 H1594 0.984 . S
N1589 H1595 0.985 . S
C1590 C1584 1.379 . S
C1590 C1587 1.363 . S
C1590 N1588 1.356 . S
C1591 C1585 1.363 . S
C1591 C1586 1.379 . S
C1591 N1589 1.356 . S
N1592 C1584 1.356 . S
N1592 H1598 0.984 . S
N1592 H1599 0.984 1_655 S
N1593 C1586 1.356 . S
N1593 H1596 0.984 . S
N1593 H1597 0.985 . S
H1594 N1589 0.984 . S
H1595 N1589 0.985 . S
H1596 N1593 0.984 . S
H1597 N1593 0.985 . S
H1598 N1592 0.984 . S
H1599 N1592 0.984 1_455 S
H1600 N1588 0.984 . S
H1601 N1588 0.985 . S
C1602 C1603 1.363 . S
C1602 C1608 1.379 . S
C1602 N1610 1.356 . S
C1603 C1602 1.363 . S
C1603 C1609 1.363 . S
C1604 C1605 1.363 . S
C1604 C1609 1.379 . S
C1604 N1611 1.356 . S
C1605 C1604 1.363 . S
C1605 C1608 1.363 . S
N1606 C1608 1.356 . S
N1606 H1618 0.984 . S
N1606 H1619 0.985 . S
N1607 C1609 1.356 . S
N1607 H1612 0.984 . S
N1607 H1613 0.985 . S
C1608 C1602 1.379 . S
C1608 C1605 1.363 . S
C1608 N1606 1.356 . S
C1609 C1603 1.363 . S
C1609 C1604 1.379 . S
C1609 N1607 1.356 . S
N1610 C1602 1.356 . S
N1610 H1616 0.984 . S
N1610 H1617 0.984 . S
N1611 C1604 1.356 . S
N1611 H1614 0.984 . S
N1611 H1615 0.985 . S
H1612 N1607 0.984 . S
H1613 N1607 0.985 . S
H1614 N1611 0.984 . S
H1615 N1611 0.985 . S
H1616 N1610 0.984 . S
H1617 N1610 0.984 . S
H1618 N1606 0.984 . S
H1619 N1606 0.985 . S
C1620 C1621 1.363 . S
C1620 C1626 1.379 . S
C1620 N1628 1.356 . S
C1621 C1620 1.363 . S
C1621 C1627 1.363 . S
C1622 C1623 1.363 . S
C1622 C1627 1.379 . S
C1622 N1629 1.356 . S
C1623 C1622 1.363 . S
C1623 C1626 1.363 . S
N1624 C1626 1.356 . S
N1624 H1636 0.984 . S
N1624 H1637 0.985 . S
N1625 C1627 1.356 . S
N1625 H1630 0.984 . S
N1625 H1631 0.985 . S
C1626 C1620 1.379 . S
C1626 C1623 1.363 . S
C1626 N1624 1.356 . S
C1627 C1621 1.363 . S
C1627 C1622 1.379 . S
C1627 N1625 1.356 . S
N1628 C1620 1.356 . S
N1628 H1634 0.984 1_655 S
N1628 H1635 0.984 1_655 S
N1629 C1622 1.356 . S
N1629 H1632 0.984 . S
N1629 H1633 0.985 . S
H1630 N1625 0.984 . S
H1631 N1625 0.985 . S
H1632 N1629 0.984 . S
H1633 N1629 0.985 . S
H1634 N1628 0.984 1_455 S
H1635 N1628 0.984 1_455 S
H1636 N1624 0.984 . S
H1637 N1624 0.985 . S
C1638 C1639 1.363 . S
C1638 C1644 1.379 . S
C1638 N1646 1.356 . S
C1639 C1638 1.363 . S
C1639 C1645 1.363 . S
C1640 C1641 1.363 . S
C1640 C1645 1.379 . S
C1640 N1647 1.356 . S
C1641 C1640 1.363 . S
C1641 C1644 1.363 . S
N1642 C1644 1.356 . S
N1642 H1654 0.984 . S
N1642 H1655 0.985 . S
N1643 C1645 1.356 . S
N1643 H1648 0.984 . S
N1643 H1649 0.985 . S
C1644 C1638 1.379 . S
C1644 C1641 1.363 . S
C1644 N1642 1.356 . S
C1645 C1639 1.363 . S
C1645 C1640 1.379 . S
C1645 N1643 1.356 . S
N1646 C1638 1.356 . S
N1646 H1652 0.984 . S
N1646 H1653 0.984 . S
N1647 C1640 1.356 . S
N1647 H1650 0.984 . S
N1647 H1651 0.985 . S
H1648 N1643 0.984 . S
H1649 N1643 0.985 . S
H1650 N1647 0.984 . S
H1651 N1647 0.985 . S
H1652 N1646 0.984 . S
H1653 N1646 0.984 . S
H1654 N1642 0.984 . S
H1655 N1642 0.985 . S
C1656 C1657 1.363 . S
C1656 C1662 1.379 . S
C1656 N1664 1.356 . S
C1657 C1656 1.363 . S
C1657 C1663 1.363 . S
C1658 C1659 1.363 . S
C1658 C1663 1.379 . S
C1658 N1665 1.356 . S
C1659 C1658 1.363 . S
C1659 C1662 1.363 . S
N1660 C1662 1.356 . S
N1660 H1672 0.984 . S
N1660 H1673 0.985 . S
N1661 C1663 1.356 1_565 S
N1661 H1666 0.984 . S
N1661 H1667 0.985 . S
C1662 C1656 1.379 . S
C1662 C1659 1.363 . S
C1662 N1660 1.356 . S
C1663 C1657 1.363 . S
C1663 C1658 1.379 . S
C1663 N1661 1.356 1_545 S
N1664 C1656 1.356 . S
N1664 H1670 0.984 . S
N1664 H1671 0.984 1_545 S
N1665 C1658 1.356 . S
N1665 H1668 0.984 . S
N1665 H1669 0.985 . S
H1666 N1661 0.984 . S
H1667 N1661 0.985 . S
H1668 N1665 0.984 . S
H1669 N1665 0.985 . S
H1670 N1664 0.984 . S
H1671 N1664 0.984 1_565 S
H1672 N1660 0.984 . S
H1673 N1660 0.985 . S
C1674 C1675 1.363 . S
C1674 C1680 1.379 . S
C1674 N1682 1.356 . S
C1675 C1674 1.363 . S
C1675 C1681 1.363 . S
C1676 C1677 1.363 . S
C1676 C1681 1.379 . S
C1676 N1683 1.356 . S
C1677 C1676 1.363 . S
C1677 C1680 1.363 . S
N1678 C1680 1.356 . S
N1678 H1690 0.984 . S
N1678 H1691 0.985 . S
N1679 C1681 1.356 . S
N1679 H1684 0.984 . S
N1679 H1685 0.985 . S
C1680 C1674 1.379 . S
C1680 C1677 1.363 . S
C1680 N1678 1.356 . S
C1681 C1675 1.363 . S
C1681 C1676 1.379 . S
C1681 N1679 1.356 . S
N1682 C1674 1.356 . S
N1682 H1688 0.984 . S
N1682 H1689 0.984 . S
N1683 C1676 1.356 . S
N1683 H1686 0.984 . S
N1683 H1687 0.985 . S
H1684 N1679 0.984 . S
H1685 N1679 0.985 . S
H1686 N1683 0.984 . S
H1687 N1683 0.985 . S
H1688 N1682 0.984 . S
H1689 N1682 0.984 . S
H1690 N1678 0.984 . S
H1691 N1678 0.985 . S
C1692 C1693 1.363 . S
C1692 C1698 1.379 . S
C1692 N1700 1.356 . S
C1693 C1692 1.363 . S
C1693 C1699 1.363 . S
C1694 C1695 1.363 . S
C1694 C1699 1.379 . S
C1694 N1701 1.356 . S
C1695 C1694 1.363 . S
C1695 C1698 1.363 . S
N1696 C1698 1.356 . S
N1696 H1708 0.984 . S
N1696 H1709 0.985 . S
N1697 C1699 1.356 . S
N1697 H1702 0.984 . S
N1697 H1703 0.985 . S
C1698 C1692 1.379 . S
C1698 C1695 1.363 . S
C1698 N1696 1.356 . S
C1699 C1693 1.363 . S
C1699 C1694 1.379 . S
C1699 N1697 1.356 . S
N1700 C1692 1.356 . S
N1700 H1706 0.984 . S
N1700 H1707 0.984 . S
N1701 C1694 1.356 . S
N1701 H1704 0.984 . S
N1701 H1705 0.985 . S
H1702 N1697 0.984 . S
H1703 N1697 0.985 . S
H1704 N1701 0.984 . S
H1705 N1701 0.985 . S
H1706 N1700 0.984 . S
H1707 N1700 0.984 . S
H1708 N1696 0.984 . S
H1709 N1696 0.985 . S
C1710 C1711 1.363 . S
C1710 C1716 1.379 . S
C1710 N1718 1.356 . S
C1711 C1710 1.363 . S
C1711 C1717 1.363 . S
C1712 C1713 1.363 . S
C1712 C1717 1.379 . S
C1712 N1719 1.356 . S
C1713 C1712 1.363 . S
C1713 C1716 1.363 . S
N1714 C1716 1.356 . S
N1714 H1726 0.984 . S
N1714 H1727 0.985 . S
N1715 C1717 1.356 . S
N1715 H1720 0.984 . S
N1715 H1721 0.985 . S
C1716 C1710 1.379 . S
C1716 C1713 1.363 . S
C1716 N1714 1.356 . S
C1717 C1711 1.363 . S
C1717 C1712 1.379 . S
C1717 N1715 1.356 . S
N1718 C1710 1.356 . S
N1718 H1724 0.984 . S
N1718 H1725 0.984 . S
N1719 C1712 1.356 . S
N1719 H1722 0.984 . S
N1719 H1723 0.985 . S
H1720 N1715 0.984 . S
H1721 N1715 0.985 . S
H1722 N1719 0.984 . S
H1723 N1719 0.985 . S
H1724 N1718 0.984 . S
H1725 N1718 0.984 . S
H1726 N1714 0.984 . S
H1727 N1714 0.985 . S
C1728 C1729 1.363 . S
C1728 C1734 1.379 . S
C1728 N1736 1.356 . S
C1729 C1728 1.363 . S
C1729 C1735 1.363 1_565 S
C1730 C1731 1.363 1_545 S
C1730 C1735 1.379 . S
C1730 N1737 1.356 . S
C1731 C1730 1.363 1_565 S
C1731 C1734 1.363 . S
N1732 C1734 1.356 . S
N1732 H1744 0.984 . S
N1732 H1745 0.985 . S
N1733 C1735 1.356 . S
N1733 H1738 0.984 . S
N1733 H1739 0.985 . S
C1734 C1728 1.379 . S
C1734 C1731 1.363 . S
C1734 N1732 1.356 . S
C1735 C1729 1.363 1_545 S
C1735 C1730 1.379 . S
C1735 N1733 1.356 . S
N1736 C1728 1.356 . S
N1736 H1742 0.984 . S
N1736 H1743 0.984 . S
N1737 C1730 1.356 . S
N1737 H1740 0.984 . S
N1737 H1741 0.985 . S
H1738 N1733 0.984 . S
H1739 N1733 0.985 . S
H1740 N1737 0.984 . S
H1741 N1737 0.985 . S
H1742 N1736 0.984 . S
H1743 N1736 0.984 . S
H1744 N1732 0.984 . S
H1745 N1732 0.985 . S
C1746 C1747 1.355 . S
C1746 C1752 1.379 . S
C1746 N1754 1.356 1_455 S
C1747 C1746 1.355 . S
C1747 C1753 1.378 . S
C1748 C1749 1.363 . S
C1748 C1753 1.379 . S
C1748 N1755 1.356 . S
C1749 C1748 1.363 . S
C1749 C1752 1.363 . S
N1750 C1752 1.356 . S
N1750 H1762 0.984 . S
N1750 H1763 0.985 . S
N1751 C1753 1.356 . S
N1751 H1756 0.984 1_455 S
N1751 H1757 0.985 . S
C1752 C1746 1.379 . S
C1752 C1749 1.363 . S
C1752 N1750 1.356 . S
C1753 C1747 1.378 . S
C1753 C1748 1.379 . S
C1753 N1751 1.356 . S
N1754 C1746 1.356 1_655 S
N1754 H1760 0.984 . S
N1754 H1761 0.984 . S
N1755 C1748 1.356 . S
N1755 H1758 0.984 . S
N1755 H1759 0.985 . S
H1756 N1751 0.984 1_655 S
H1757 N1751 0.985 . S
H1758 N1755 0.984 . S
H1759 N1755 0.985 . S
H1760 N1754 0.984 . S
H1761 N1754 0.984 . S
H1762 N1750 0.984 . S
H1763 N1750 0.985 . S
C1764 C1765 1.363 . S
C1764 C1770 1.379 . S
C1764 N1772 1.356 . S
C1765 C1764 1.363 . S
C1765 C1771 1.363 . S
C1766 C1767 1.363 . S
C1766 C1771 1.379 . S
C1766 N1773 1.356 . S
C1767 C1766 1.363 . S
C1767 C1770 1.363 . S
N1768 C1770 1.356 . S
N1768 H1780 0.984 . S
N1768 H1781 0.985 . S
N1769 C1771 1.356 . S
N1769 H1774 0.984 . S
N1769 H1775 0.985 . S
C1770 C1764 1.379 . S
C1770 C1767 1.363 . S
C1770 N1768 1.356 . S
C1771 C1765 1.363 . S
C1771 C1766 1.379 . S
C1771 N1769 1.356 . S
N1772 C1764 1.356 . S
N1772 H1778 0.984 . S
N1772 H1779 0.984 . S
N1773 C1766 1.356 . S
N1773 H1776 0.984 . S
N1773 H1777 0.985 . S
H1774 N1769 0.984 . S
H1775 N1769 0.985 . S
H1776 N1773 0.984 . S
H1777 N1773 0.985 . S
H1778 N1772 0.984 . S
H1779 N1772 0.984 . S
H1780 N1768 0.984 . S
H1781 N1768 0.985 . S
C1782 C1783 1.379 . S
C1782 C1788 1.379 . S
C1782 N1790 1.356 . S
C1783 C1782 1.379 . S
C1783 C1789 1.340 1_455 S
C1784 C1785 1.363 . S
C1784 C1789 1.379 . S
C1784 N1791 1.356 . S
C1785 C1784 1.363 . S
C1785 C1788 1.363 1_655 S
N1786 C1788 1.356 . S
N1786 H1798 0.984 . S
N1786 H1799 0.985 . S
N1787 C1789 1.356 . S
N1787 H1792 0.984 . S
N1787 H1793 0.985 . S
C1788 C1782 1.379 . S
C1788 C1785 1.363 1_455 S
C1788 N1786 1.356 . S
C1789 C1783 1.340 1_655 S
C1789 C1784 1.379 . S
C1789 N1787 1.356 . S
N1790 C1782 1.356 . S
N1790 H1796 0.984 . S
N1790 H1797 0.984 . S
N1791 C1784 1.356 . S
N1791 H1794 0.984 . S
N1791 H1795 0.985 . S
H1792 N1787 0.984 . S
H1793 N1787 0.985 . S
H1794 N1791 0.984 . S
H1795 N1791 0.985 . S
H1796 N1790 0.984 . S
H1797 N1790 0.984 . S
H1798 N1786 0.984 . S
H1799 N1786 0.985 . S
C1800 C1801 1.363 . S
C1800 C1806 1.379 . S
C1800 N1808 1.356 . S
C1801 C1800 1.363 . S
C1801 C1807 1.363 . S
C1802 C1803 1.363 . S
C1802 C1807 1.379 . S
C1802 N1809 1.356 . S
C1803 C1802 1.363 . S
C1803 C1806 1.363 . S
N1804 C1806 1.356 . S
N1804 H1816 0.984 . S
N1804 H1817 0.985 . S
N1805 C1807 1.356 . S
N1805 H1810 0.984 . S
N1805 H1811 0.985 . S
C1806 C1800 1.379 . S
C1806 C1803 1.363 . S
C1806 N1804 1.356 . S
C1807 C1801 1.363 . S
C1807 C1802 1.379 . S
C1807 N1805 1.356 . S
N1808 C1800 1.356 . S
N1808 H1814 0.984 . S
N1808 H1815 0.984 . S
N1809 C1802 1.356 . S
N1809 H1812 0.984 . S
N1809 H1813 0.985 . S
H1810 N1805 0.984 . S
H1811 N1805 0.985 . S
H1812 N1809 0.984 . S
H1813 N1809 0.985 . S
H1814 N1808 0.984 . S
H1815 N1808 0.984 . S
H1816 N1804 0.984 . S
H1817 N1804 0.985 . S
C1818 C1819 1.358 1_565 S
C1818 C1824 1.381 . S
C1818 N1826 1.357 . S
C1819 C1818 1.358 1_545 S
C1819 C1825 1.363 . S
C1820 C1821 1.363 . S
C1820 C1825 1.379 . S
C1820 N1827 1.356 . S
C1821 C1820 1.363 . S
C1821 C1824 1.363 1_545 S
N1822 C1824 1.356 . S
N1822 H1834 0.984 . S
N1822 H1835 0.985 . S
N1823 C1825 1.356 . S
N1823 H1828 0.984 . S
N1823 H1829 0.985 . S
C1824 C1818 1.381 . S
C1824 C1821 1.363 1_565 S
C1824 N1822 1.356 . S
C1825 C1819 1.363 . S
C1825 C1820 1.379 . S
C1825 N1823 1.356 . S
N1826 C1818 1.357 . S
N1826 H1832 0.984 . S
N1826 H1833 0.984 . S
N1827 C1820 1.356 . S
N1827 H1830 0.984 . S
N1827 H1831 0.985 . S
H1828 N1823 0.984 . S
H1829 N1823 0.985 . S
H1830 N1827 0.984 . S
H1831 N1827 0.985 . S
H1832 N1826 0.984 . S
H1833 N1826 0.984 . S
H1834 N1822 0.984 . S
H1835 N1822 0.985 . S
C1836 C1837 1.363 . S
C1836 C1842 1.379 . S
C1836 N1844 1.356 . S
C1837 C1836 1.363 . S
C1837 C1843 1.363 . S
C1838 C1839 1.363 . S
C1838 C1843 1.379 . S
C1838 N1845 1.356 . S
C1839 C1838 1.363 . S
C1839 C1842 1.363 . S
N1840 C1842 1.356 . S
N1840 H1852 0.984 . S
N1840 H1853 0.985 . S
N1841 C1843 1.356 . S
N1841 H1846 0.984 . S
N1841 H1847 0.985 . S
C1842 C1836 1.379 . S
C1842 C1839 1.363 . S
C1842 N1840 1.356 . S
C1843 C1837 1.363 . S
C1843 C1838 1.379 . S
C1843 N1841 1.356 . S
N1844 C1836 1.356 . S
N1844 H1850 0.984 . S
N1844 H1851 0.984 . S
N1845 C1838 1.356 . S
N1845 H1848 0.984 . S
N1845 H1849 0.985 . S
H1846 N1841 0.984 . S
H1847 N1841 0.985 . S
H1848 N1845 0.984 . S
H1849 N1845 0.985 . S
H1850 N1844 0.984 . S
H1851 N1844 0.984 . S
H1852 N1840 0.984 . S
H1853 N1840 0.985 . S
C1854 C1855 1.363 . S
C1854 C1860 1.379 . S
C1854 N1862 1.356 . S
C1855 C1854 1.363 . S
C1855 C1861 1.363 . S
C1856 C1857 1.363 . S
C1856 C1861 1.379 . S
C1856 N1863 1.356 . S
C1857 C1856 1.363 . S
C1857 C1860 1.363 . S
N1858 C1860 1.356 . S
N1858 H1870 0.984 . S
N1858 H1871 0.985 . S
N1859 C1861 1.356 . S
N1859 H1864 0.984 . S
N1859 H1865 0.985 . S
C1860 C1854 1.379 . S
C1860 C1857 1.363 . S
C1860 N1858 1.356 . S
C1861 C1855 1.363 . S
C1861 C1856 1.379 . S
C1861 N1859 1.356 . S
N1862 C1854 1.356 . S
N1862 H1868 0.984 . S
N1862 H1869 0.984 . S
N1863 C1856 1.356 . S
N1863 H1866 0.984 . S
N1863 H1867 0.985 . S
H1864 N1859 0.984 . S
H1865 N1859 0.985 . S
H1866 N1863 0.984 . S
H1867 N1863 0.985 . S
H1868 N1862 0.984 . S
H1869 N1862 0.984 . S
H1870 N1858 0.984 . S
H1871 N1858 0.985 . S
C1872 C1873 1.363 . S
C1872 C1878 1.379 . S
C1872 N1880 1.356 . S
C1873 C1872 1.363 . S
C1873 C1879 1.363 . S
C1874 C1875 1.363 . S
C1874 C1879 1.379 . S
C1874 N1881 1.356 . S
C1875 C1874 1.363 . S
C1875 C1878 1.363 . S
N1876 C1878 1.356 . S
N1876 H1888 0.984 . S
N1876 H1889 0.985 . S
N1877 C1879 1.356 . S
N1877 H1882 0.984 . S
N1877 H1883 0.985 . S
C1878 C1872 1.379 . S
C1878 C1875 1.363 . S
C1878 N1876 1.356 . S
C1879 C1873 1.363 . S
C1879 C1874 1.379 . S
C1879 N1877 1.356 . S
N1880 C1872 1.356 . S
N1880 H1886 0.984 . S
N1880 H1887 0.984 . S
N1881 C1874 1.356 . S
N1881 H1884 0.984 . S
N1881 H1885 0.985 . S
H1882 N1877 0.984 . S
H1883 N1877 0.985 . S
H1884 N1881 0.984 . S
H1885 N1881 0.985 . S
H1886 N1880 0.984 . S
H1887 N1880 0.984 . S
H1888 N1876 0.984 . S
H1889 N1876 0.985 . S
C1890 C1891 1.363 . S
C1890 C1896 1.379 . S
C1890 N1898 1.356 . S
C1891 C1890 1.363 . S
C1891 C1897 1.363 . S
C1892 C1893 1.363 . S
C1892 C1897 1.379 . S
C1892 N1899 1.356 . S
C1893 C1892 1.363 . S
C1893 C1896 1.363 . S
N1894 C1896 1.356 . S
N1894 H1906 0.984 . S
N1894 H1907 0.985 . S
N1895 C1897 1.356 . S
N1895 H1900 0.984 . S
N1895 H1901 0.985 . S
C1896 C1890 1.379 . S
C1896 C1893 1.363 . S
C1896 N1894 1.356 . S
C1897 C1891 1.363 . S
C1897 C1892 1.379 . S
C1897 N1895 1.356 . S
N1898 C1890 1.356 . S
N1898 H1904 0.984 . S
N1898 H1905 0.984 . S
N1899 C1892 1.356 . S
N1899 H1902 0.984 . S
N1899 H1903 0.985 . S
H1900 N1895 0.984 . S
H1901 N1895 0.985 . S
H1902 N1899 0.984 . S
H1903 N1899 0.985 . S
H1904 N1898 0.984 . S
H1905 N1898 0.984 . S
H1906 N1894 0.984 . S
H1907 N1894 0.985 . S
C1908 C1909 1.363 . S
C1908 C1914 1.379 . S
C1908 N1916 1.356 . S
C1909 C1908 1.363 . S
C1909 C1915 1.363 . S
C1910 C1911 1.363 . S
C1910 C1915 1.379 . S
C1910 N1917 1.356 . S
C1911 C1910 1.363 . S
C1911 C1914 1.363 . S
N1912 C1914 1.356 . S
N1912 H1924 0.984 . S
N1912 H1925 0.985 . S
N1913 C1915 1.356 . S
N1913 H1918 0.984 . S
N1913 H1919 0.985 . S
C1914 C1908 1.379 . S
C1914 C1911 1.363 . S
C1914 N1912 1.356 . S
C1915 C1909 1.363 . S
C1915 C1910 1.379 . S
C1915 N1913 1.356 . S
N1916 C1908 1.356 . S
N1916 H1922 0.984 . S
N1916 H1923 0.984 . S
N1917 C1910 1.356 . S
N1917 H1920 0.984 . S
N1917 H1921 0.985 . S
H1918 N1913 0.984 . S
H1919 N1913 0.985 . S
H1920 N1917 0.984 . S
H1921 N1917 0.985 . S
H1922 N1916 0.984 . S
H1923 N1916 0.984 . S
H1924 N1912 0.984 . S
H1925 N1912 0.985 . S
C1926 C1927 1.363 . S
C1926 C1932 1.379 . S
C1926 N1934 1.356 . S
C1927 C1926 1.363 . S
C1927 C1933 1.363 . S
C1928 C1929 1.363 . S
C1928 C1933 1.379 . S
C1928 N1935 1.356 . S
C1929 C1928 1.363 . S
C1929 C1932 1.363 . S
N1930 C1932 1.356 . S
N1930 H1942 0.984 . S
N1930 H1943 0.985 . S
N1931 C1933 1.356 . S
N1931 H1936 0.984 . S
N1931 H1937 0.985 . S
C1932 C1926 1.379 . S
C1932 C1929 1.363 . S
C1932 N1930 1.356 . S
C1933 C1927 1.363 . S
C1933 C1928 1.379 . S
C1933 N1931 1.356 . S
N1934 C1926 1.356 . S
N1934 H1940 0.984 . S
N1934 H1941 0.984 . S
N1935 C1928 1.356 . S
N1935 H1938 0.984 . S
N1935 H1939 0.985 . S
H1936 N1931 0.984 . S
H1937 N1931 0.985 . S
H1938 N1935 0.984 . S
H1939 N1935 0.985 . S
H1940 N1934 0.984 . S
H1941 N1934 0.984 . S
H1942 N1930 0.984 . S
H1943 N1930 0.985 . S
C1944 C1945 1.363 . S
C1944 C1950 1.379 . S
C1944 N1952 1.356 . S
C1945 C1944 1.363 . S
C1945 C1951 1.363 . S
C1946 C1947 1.363 . S
C1946 C1951 1.379 . S
C1946 N1953 1.356 . S
C1947 C1946 1.363 . S
C1947 C1950 1.363 . S
N1948 C1950 1.356 . S
N1948 H1960 0.984 . S
N1948 H1961 0.985 . S
N1949 C1951 1.356 . S
N1949 H1954 0.984 . S
N1949 H1955 0.985 . S
C1950 C1944 1.379 . S
C1950 C1947 1.363 . S
C1950 N1948 1.356 . S
C1951 C1945 1.363 . S
C1951 C1946 1.379 . S
C1951 N1949 1.356 . S
N1952 C1944 1.356 . S
N1952 H1958 0.984 . S
N1952 H1959 0.984 . S
N1953 C1946 1.356 . S
N1953 H1956 0.984 . S
N1953 H1957 0.985 . S
H1954 N1949 0.984 . S
H1955 N1949 0.985 . S
H1956 N1953 0.984 . S
H1957 N1953 0.985 . S
H1958 N1952 0.984 . S
H1959 N1952 0.984 . S
H1960 N1948 0.984 . S
H1961 N1948 0.985 . S
C1962 C1963 1.363 . S
C1962 C1968 1.379 . S
C1962 N1970 1.356 . S
C1963 C1962 1.363 . S
C1963 C1969 1.363 . S
C1964 C1965 1.363 . S
C1964 C1969 1.379 . S
C1964 N1971 1.356 . S
C1965 C1964 1.363 . S
C1965 C1968 1.363 . S
N1966 C1968 1.356 . S
N1966 H1978 0.984 . S
N1966 H1979 0.985 . S
N1967 C1969 1.356 . S
N1967 H1972 0.984 . S
N1967 H1973 0.985 . S
C1968 C1962 1.379 . S
C1968 C1965 1.363 . S
C1968 N1966 1.356 . S
C1969 C1963 1.363 . S
C1969 C1964 1.379 . S
C1969 N1967 1.356 . S
N1970 C1962 1.356 . S
N1970 H1976 0.984 . S
N1970 H1977 0.984 . S
N1971 C1964 1.356 . S
N1971 H1974 0.984 . S
N1971 H1975 0.985 . S
H1972 N1967 0.984 . S
H1973 N1967 0.985 . S
H1974 N1971 0.984 . S
H1975 N1971 0.985 . S
H1976 N1970 0.984 . S
H1977 N1970 0.984 . S
H1978 N1966 0.984 . S
H1979 N1966 0.985 . S
C1980 C1981 1.363 . S
C1980 C1986 1.379 . S
C1980 N1988 1.356 . S
C1981 C1980 1.363 . S
C1981 C1987 1.363 . S
C1982 C1983 1.363 . S
C1982 C1987 1.379 . S
C1982 N1989 1.356 . S
C1983 C1982 1.363 . S
C1983 C1986 1.363 . S
N1984 C1986 1.356 . S
N1984 H1996 0.984 . S
N1984 H1997 0.985 . S
N1985 C1987 1.356 . S
N1985 H1990 0.984 . S
N1985 H1991 0.985 . S
C1986 C1980 1.379 . S
C1986 C1983 1.363 . S
C1986 N1984 1.356 . S
C1987 C1981 1.363 . S
C1987 C1982 1.379 . S
C1987 N1985 1.356 . S
N1988 C1980 1.356 . S
N1988 H1994 0.984 . S
N1988 H1995 0.984 . S
N1989 C1982 1.356 . S
N1989 H1992 0.984 . S
N1989 H1993 0.985 . S
H1990 N1985 0.984 . S
H1991 N1985 0.985 . S
H1992 N1989 0.984 . S
H1993 N1989 0.985 . S
H1994 N1988 0.984 . S
H1995 N1988 0.984 . S
H1996 N1984 0.984 . S
H1997 N1984 0.985 . S
C1998 C1999 1.363 . S
C1998 C2004 1.379 . S
C1998 N2006 1.356 . S
C1999 C1998 1.363 . S
C1999 C2005 1.363 . S
C2000 C2001 1.363 . S
C2000 C2005 1.379 . S
C2000 N2007 1.356 . S
C2001 C2000 1.363 . S
C2001 C2004 1.363 . S
N2002 C2004 1.356 . S
N2002 H2014 0.984 . S
N2002 H2015 0.985 . S
N2003 C2005 1.356 . S
N2003 H2008 0.984 . S
N2003 H2009 0.985 . S
C2004 C1998 1.379 . S
C2004 C2001 1.363 . S
C2004 N2002 1.356 . S
C2005 C1999 1.363 . S
C2005 C2000 1.379 . S
C2005 N2003 1.356 . S
N2006 C1998 1.356 . S
N2006 H2012 0.984 . S
N2006 H2013 0.984 . S
N2007 C2000 1.356 . S
N2007 H2010 0.984 . S
N2007 H2011 0.985 . S
H2008 N2003 0.984 . S
H2009 N2003 0.985 . S
H2010 N2007 0.984 . S
H2011 N2007 0.985 . S
H2012 N2006 0.984 . S
H2013 N2006 0.984 . S
H2014 N2002 0.984 . S
H2015 N2002 0.985 . S
C2016 C2017 1.363 . S
C2016 C2022 1.379 . S
C2016 N2024 1.356 . S
C2017 C2016 1.363 . S
C2017 C2023 1.363 . S
C2018 C2019 1.363 . S
C2018 C2023 1.379 . S
C2018 N2025 1.356 . S
C2019 C2018 1.363 . S
C2019 C2022 1.363 . S
N2020 C2022 1.356 . S
N2020 H2032 0.984 . S
N2020 H2033 0.985 . S
N2021 C2023 1.356 . S
N2021 H2026 0.984 . S
N2021 H2027 0.985 . S
C2022 C2016 1.379 . S
C2022 C2019 1.363 . S
C2022 N2020 1.356 . S
C2023 C2017 1.363 . S
C2023 C2018 1.379 . S
C2023 N2021 1.356 . S
N2024 C2016 1.356 . S
N2024 H2030 0.984 . S
N2024 H2031 0.984 . S
N2025 C2018 1.356 . S
N2025 H2028 0.984 . S
N2025 H2029 0.985 . S
H2026 N2021 0.984 . S
H2027 N2021 0.985 . S
H2028 N2025 0.984 . S
H2029 N2025 0.985 . S
H2030 N2024 0.984 . S
H2031 N2024 0.984 . S
H2032 N2020 0.984 . S
H2033 N2020 0.985 . S
C2034 C2035 1.363 . S
C2034 C2040 1.379 . S
C2034 N2042 1.356 . S
C2035 C2034 1.363 . S
C2035 C2041 1.363 . S
C2036 C2037 1.363 . S
C2036 C2041 1.379 . S
C2036 N2043 1.356 . S
C2037 C2036 1.363 . S
C2037 C2040 1.363 . S
N2038 C2040 1.356 . S
N2038 H2050 0.984 . S
N2038 H2051 0.985 . S
N2039 C2041 1.356 . S
N2039 H2044 0.984 . S
N2039 H2045 0.985 . S
C2040 C2034 1.379 . S
C2040 C2037 1.363 . S
C2040 N2038 1.356 . S
C2041 C2035 1.363 . S
C2041 C2036 1.379 . S
C2041 N2039 1.356 . S
N2042 C2034 1.356 . S
N2042 H2048 0.984 . S
N2042 H2049 0.984 . S
N2043 C2036 1.356 . S
N2043 H2046 0.984 . S
N2043 H2047 0.985 . S
H2044 N2039 0.984 . S
H2045 N2039 0.985 . S
H2046 N2043 0.984 . S
H2047 N2043 0.985 . S
H2048 N2042 0.984 . S
H2049 N2042 0.984 . S
H2050 N2038 0.984 . S
H2051 N2038 0.985 . S
C1081 C522 1.829 . S
C1083 C729 1.752 . S
C1099 C562 1.832 . S
C1101 C769 1.765 . S
C1117 C495 1.872 . S
C1119 C808 1.924 . S
C1135 C455 1.683 . S
C1137 C768 1.708 . S
C1155 C809 1.520 . S
C1153 C362 1.562 . S
C1171 C402 1.674 . S
C1173 C728 1.680 1_556 S
C1191 C739 1.775 . S
C1189 C442 1.719 . S
C1209 C779 1.743 . S
C1207 C375 1.780 . S
C1225 C415 1.890 . S
C1227 C818 1.934 . S
C1243 C535 1.696 . S
C1245 C778 1.709 . S
C1261 C575 1.521 . S
C1263 C819 1.493 . S
C1281 C738 1.705 . S
C1279 C482 1.548 . S
C1299 C849 1.751 . S
C1297 C42 1.828 1_455 S
C1315 C82 1.832 . S
C1317 C889 1.765 . S
C1333 C15 1.873 1_565 S
C1335 C928 1.924 . S
C1351 C695 1.683 . S
C1353 C888 1.708 . S
C1369 C602 1.562 . S
C1371 C929 1.520 . S
C1387 C642 1.674 . S
C1389 C848 1.680 . S
C1405 C682 1.719 . S
C1407 C859 1.775 . S
C1423 C615 1.780 . S
C1425 C899 1.742 . S
C1443 C938 1.926 . S
C1441 C655 1.890 . S
C1459 C55 1.696 1_565 S
C1461 C898 1.709 . S
C1479 C939 1.494 . S
C1477 C95 1.522 . S
C1495 C2 1.548 . S
C1497 C858 1.706 . S
C1515 C969 1.751 . S
C1513 C282 1.829 . S
C1531 C322 1.832 . S
C1533 C1009 1.765 . S
C1551 C1048 1.924 . S
C1549 C255 1.873 . S
C1569 C1008 1.708 . S
C1567 C215 1.683 1_545 S
C1587 C1049 1.520 . S
C1585 C122 1.562 . S
C1603 C162 1.675 . S
C1605 C968 1.680 . S
C1621 C202 1.719 1_655 S
C1623 C979 1.774 . S
C1639 C135 1.780 . S
C1641 C1019 1.742 . S
C1659 C1058 1.927 . S
C1657 C175 1.891 1_545 S
C1675 C295 1.696 . S
C1677 C1018 1.709 . S
C1693 C335 1.521 . S
C1695 C1059 1.493 . S
C1711 C242 1.548 . S
C1713 C978 1.705 . S
C1729 C621 1.360 . S
C1731 C725 1.358 . S
C1749 C765 1.890 . S
C1747 C661 1.901 1_455 S
C1765 C701 1.568 . S
C1767 C815 1.633 . S
C1783 C261 1.811 1_455 S
C1785 C775 1.905 . S
C1801 C301 1.616 . S
C1803 C805 1.615 . S
C1821 C735 1.356 . S
C1819 C341 1.361 . S
C1837 C141 1.360 . S
C1839 C845 1.358 . S
C1855 C181 1.906 . S
C1857 C885 1.891 . S
C1873 C221 1.568 . S
C1875 C935 1.633 . S
C1891 C501 1.810 . S
C1893 C895 1.905 . S
C1911 C925 1.615 . S
C1909 C541 1.616 . S
C1927 C581 1.361 . S
C1929 C855 1.356 . S
C1945 C381 1.360 . S
C1947 C965 1.358 . S
C1963 C421 1.906 . S
C1965 C1005 1.890 . S
C1983 C1055 1.633 . S
C1981 C461 1.568 . S
C1999 C21 1.811 . S
C2001 C1015 1.905 . S
C2017 C61 1.616 . S
C2019 C1045 1.615 . S
C2035 C101 1.361 . S
C2037 C975 1.356 . S
