# Generated by pormake.
# Topology cor, (4,6)-cn, num edge types: 1
# Building blocks:
#     Node 0, Type 0, BuildingBlock: KUFVIS_clean_sbu_0, # of connection points: 4
#     Node 1, Type 0, BuildingBlock: KUFVIS_clean_sbu_0, # of connection points: 4
#     Node 2, Type 0, BuildingBlock: KUFVIS_clean_sbu_0, # of connection points: 4
#     Node 3, Type 0, BuildingBlock: KUFVIS_clean_sbu_0, # of connection points: 4
#     Node 4, Type 0, BuildingBlock: KUFVIS_clean_sbu_0, # of connection points: 4
#     Node 5, Type 0, BuildingBlock: KUFVIS_clean_sbu_0, # of connection points: 4
#     Node 6, Type 0, BuildingBlock: KUFVIS_clean_sbu_0, # of connection points: 4
#     Node 7, Type 0, BuildingBlock: KUFVIS_clean_sbu_0, # of connection points: 4
#     Node 8, Type 0, BuildingBlock: KUFVIS_clean_sbu_0, # of connection points: 4
#     Node 9, Type 0, BuildingBlock: KUFVIS_clean_sbu_0, # of connection points: 4
#     Node 10, Type 0, BuildingBlock: KUFVIS_clean_sbu_0, # of connection points: 4
#     Node 11, Type 0, BuildingBlock: KUFVIS_clean_sbu_0, # of connection points: 4
#     Node 12, Type 0, BuildingBlock: KUFVIS_clean_sbu_0, # of connection points: 4
#     Node 13, Type 0, BuildingBlock: KUFVIS_clean_sbu_0, # of connection points: 4
#     Node 14, Type 0, BuildingBlock: KUFVIS_clean_sbu_0, # of connection points: 4
#     Node 15, Type 0, BuildingBlock: KUFVIS_clean_sbu_0, # of connection points: 4
#     Node 16, Type 0, BuildingBlock: KUFVIS_clean_sbu_0, # of connection points: 4
#     Node 17, Type 0, BuildingBlock: KUFVIS_clean_sbu_0, # of connection points: 4
#     Node 18, Type 1, BuildingBlock: MIDCAF_clean_sbu_0, # of connection points: 6
#     Node 19, Type 1, BuildingBlock: MIDCAF_clean_sbu_0, # of connection points: 6
#     Node 20, Type 1, BuildingBlock: MIDCAF_clean_sbu_0, # of connection points: 6
#     Node 21, Type 1, BuildingBlock: MIDCAF_clean_sbu_0, # of connection points: 6
#     Node 22, Type 1, BuildingBlock: MIDCAF_clean_sbu_0, # of connection points: 6
#     Node 23, Type 1, BuildingBlock: MIDCAF_clean_sbu_0, # of connection points: 6
#     Node 24, Type 1, BuildingBlock: MIDCAF_clean_sbu_0, # of connection points: 6
#     Node 25, Type 1, BuildingBlock: MIDCAF_clean_sbu_0, # of connection points: 6
#     Node 26, Type 1, BuildingBlock: MIDCAF_clean_sbu_0, # of connection points: 6
#     Node 27, Type 1, BuildingBlock: MIDCAF_clean_sbu_0, # of connection points: 6
#     Node 28, Type 1, BuildingBlock: MIDCAF_clean_sbu_0, # of connection points: 6
#     Node 29, Type 1, BuildingBlock: MIDCAF_clean_sbu_0, # of connection points: 6
#     Edge 30, Type (0, 1), BuildingBlock: KIFKEQ_clean_linker_1, # of connection points: 2
#     Edge 31, Type (0, 1), BuildingBlock: KIFKEQ_clean_linker_1, # of connection points: 2
#     Edge 32, Type (0, 1), BuildingBlock: KIFKEQ_clean_linker_1, # of connection points: 2
#     Edge 33, Type (0, 1), BuildingBlock: KIFKEQ_clean_linker_1, # of connection points: 2
#     Edge 34, Type (0, 1), BuildingBlock: KIFKEQ_clean_linker_1, # of connection points: 2
#     Edge 35, Type (0, 1), BuildingBlock: KIFKEQ_clean_linker_1, # of connection points: 2
#     Edge 36, Type (0, 1), BuildingBlock: KIFKEQ_clean_linker_1, # of connection points: 2
#     Edge 37, Type (0, 1), BuildingBlock: KIFKEQ_clean_linker_1, # of connection points: 2
#     Edge 38, Type (0, 1), BuildingBlock: KIFKEQ_clean_linker_1, # of connection points: 2
#     Edge 39, Type (0, 1), BuildingBlock: KIFKEQ_clean_linker_1, # of connection points: 2
#     Edge 40, Type (0, 1), BuildingBlock: KIFKEQ_clean_linker_1, # of connection points: 2
#     Edge 41, Type (0, 1), BuildingBlock: KIFKEQ_clean_linker_1, # of connection points: 2
#     Edge 42, Type (0, 1), BuildingBlock: KIFKEQ_clean_linker_1, # of connection points: 2
#     Edge 43, Type (0, 1), BuildingBlock: KIFKEQ_clean_linker_1, # of connection points: 2
#     Edge 44, Type (0, 1), BuildingBlock: KIFKEQ_clean_linker_1, # of connection points: 2
#     Edge 45, Type (0, 1), BuildingBlock: KIFKEQ_clean_linker_1, # of connection points: 2
#     Edge 46, Type (0, 1), BuildingBlock: KIFKEQ_clean_linker_1, # of connection points: 2
#     Edge 47, Type (0, 1), BuildingBlock: KIFKEQ_clean_linker_1, # of connection points: 2
#     Edge 48, Type (0, 1), BuildingBlock: KIFKEQ_clean_linker_1, # of connection points: 2
#     Edge 49, Type (0, 1), BuildingBlock: KIFKEQ_clean_linker_1, # of connection points: 2
#     Edge 50, Type (0, 1), BuildingBlock: KIFKEQ_clean_linker_1, # of connection points: 2
#     Edge 51, Type (0, 1), BuildingBlock: KIFKEQ_clean_linker_1, # of connection points: 2
#     Edge 52, Type (0, 1), BuildingBlock: KIFKEQ_clean_linker_1, # of connection points: 2
#     Edge 53, Type (0, 1), BuildingBlock: KIFKEQ_clean_linker_1, # of connection points: 2
#     Edge 54, Type (0, 1), BuildingBlock: KIFKEQ_clean_linker_1, # of connection points: 2
#     Edge 55, Type (0, 1), BuildingBlock: KIFKEQ_clean_linker_1, # of connection points: 2
#     Edge 56, Type (0, 1), BuildingBlock: KIFKEQ_clean_linker_1, # of connection points: 2
#     Edge 57, Type (0, 1), BuildingBlock: KIFKEQ_clean_linker_1, # of connection points: 2
#     Edge 58, Type (0, 1), BuildingBlock: KIFKEQ_clean_linker_1, # of connection points: 2
#     Edge 59, Type (0, 1), BuildingBlock: KIFKEQ_clean_linker_1, # of connection points: 2
#     Edge 60, Type (0, 1), BuildingBlock: KIFKEQ_clean_linker_1, # of connection points: 2
#     Edge 61, Type (0, 1), BuildingBlock: KIFKEQ_clean_linker_1, # of connection points: 2
#     Edge 62, Type (0, 1), BuildingBlock: KIFKEQ_clean_linker_1, # of connection points: 2
#     Edge 63, Type (0, 1), BuildingBlock: KIFKEQ_clean_linker_1, # of connection points: 2
#     Edge 64, Type (0, 1), BuildingBlock: KIFKEQ_clean_linker_1, # of connection points: 2
#     Edge 65, Type (0, 1), BuildingBlock: KIFKEQ_clean_linker_1, # of connection points: 2
#     Edge 66, Type (0, 1), BuildingBlock: KIFKEQ_clean_linker_1, # of connection points: 2
#     Edge 67, Type (0, 1), BuildingBlock: KIFKEQ_clean_linker_1, # of connection points: 2
#     Edge 68, Type (0, 1), BuildingBlock: KIFKEQ_clean_linker_1, # of connection points: 2
#     Edge 69, Type (0, 1), BuildingBlock: KIFKEQ_clean_linker_1, # of connection points: 2
#     Edge 70, Type (0, 1), BuildingBlock: KIFKEQ_clean_linker_1, # of connection points: 2
#     Edge 71, Type (0, 1), BuildingBlock: KIFKEQ_clean_linker_1, # of connection points: 2
#     Edge 72, Type (0, 1), BuildingBlock: KIFKEQ_clean_linker_1, # of connection points: 2
#     Edge 73, Type (0, 1), BuildingBlock: KIFKEQ_clean_linker_1, # of connection points: 2
#     Edge 74, Type (0, 1), BuildingBlock: KIFKEQ_clean_linker_1, # of connection points: 2
#     Edge 75, Type (0, 1), BuildingBlock: KIFKEQ_clean_linker_1, # of connection points: 2
#     Edge 76, Type (0, 1), BuildingBlock: KIFKEQ_clean_linker_1, # of connection points: 2
#     Edge 77, Type (0, 1), BuildingBlock: KIFKEQ_clean_linker_1, # of connection points: 2
#     Edge 78, Type (0, 1), BuildingBlock: KIFKEQ_clean_linker_1, # of connection points: 2
#     Edge 79, Type (0, 1), BuildingBlock: KIFKEQ_clean_linker_1, # of connection points: 2
#     Edge 80, Type (0, 1), BuildingBlock: KIFKEQ_clean_linker_1, # of connection points: 2
#     Edge 81, Type (0, 1), BuildingBlock: KIFKEQ_clean_linker_1, # of connection points: 2
#     Edge 82, Type (0, 1), BuildingBlock: KIFKEQ_clean_linker_1, # of connection points: 2
#     Edge 83, Type (0, 1), BuildingBlock: KIFKEQ_clean_linker_1, # of connection points: 2
#     Edge 84, Type (0, 1), BuildingBlock: KIFKEQ_clean_linker_1, # of connection points: 2
#     Edge 85, Type (0, 1), BuildingBlock: KIFKEQ_clean_linker_1, # of connection points: 2
#     Edge 86, Type (0, 1), BuildingBlock: KIFKEQ_clean_linker_1, # of connection points: 2
#     Edge 87, Type (0, 1), BuildingBlock: KIFKEQ_clean_linker_1, # of connection points: 2
#     Edge 88, Type (0, 1), BuildingBlock: KIFKEQ_clean_linker_1, # of connection points: 2
#     Edge 89, Type (0, 1), BuildingBlock: KIFKEQ_clean_linker_1, # of connection points: 2
#     Edge 90, Type (0, 1), BuildingBlock: KIFKEQ_clean_linker_1, # of connection points: 2
#     Edge 91, Type (0, 1), BuildingBlock: KIFKEQ_clean_linker_1, # of connection points: 2
#     Edge 92, Type (0, 1), BuildingBlock: KIFKEQ_clean_linker_1, # of connection points: 2
#     Edge 93, Type (0, 1), BuildingBlock: KIFKEQ_clean_linker_1, # of connection points: 2
#     Edge 94, Type (0, 1), BuildingBlock: KIFKEQ_clean_linker_1, # of connection points: 2
#     Edge 95, Type (0, 1), BuildingBlock: KIFKEQ_clean_linker_1, # of connection points: 2
#     Edge 96, Type (0, 1), BuildingBlock: KIFKEQ_clean_linker_1, # of connection points: 2
#     Edge 97, Type (0, 1), BuildingBlock: KIFKEQ_clean_linker_1, # of connection points: 2
#     Edge 98, Type (0, 1), BuildingBlock: KIFKEQ_clean_linker_1, # of connection points: 2
#     Edge 99, Type (0, 1), BuildingBlock: KIFKEQ_clean_linker_1, # of connection points: 2
#     Edge 100, Type (0, 1), BuildingBlock: KIFKEQ_clean_linker_1, # of connection points: 2
#     Edge 101, Type (0, 1), BuildingBlock: KIFKEQ_clean_linker_1, # of connection points: 2
# Relax obj value: 0.120
# Max RMSD: 0.161
# Mean RMSD: 0.124
data_MOF--net-cor--node1-KUFVIS_clean_sbu_0--node2-MIDCAF_clean_sbu_0--edge1-KIFKEQ_clean_linker_1
_symmetry_space_group_name_H-M    P1
_symmetry_Int_Tables_number       1
_symmetry_cell_setting            triclinic
loop_
_symmetry_equiv_pos_as_xyz
'x, y, z'
_cell_length_a     38.955576
_cell_length_b     38.946014
_cell_length_c     101.23467
_cell_angle_alpha  89.727851
_cell_angle_beta   90.568411
_cell_angle_gamma 120.07173
loop_
_atom_site_label
_atom_site_type_symbol
_atom_site_fract_x
_atom_site_fract_y
_atom_site_fract_z
_atom_type_partial_charge
Mn0 Mn 0.75408 0.03109 0.26817 0.0
Mn1 Mn 0.83816 0.1195 0.27229 0.0
C2 C 0.80004 0.03866 0.28433 0.0
C3 C 0.68744 0.98529 0.27298 0.0
C4 C 0.82641 0.06386 0.24973 0.0
O5 O 0.74086 0.06914 0.25844 0.0
O6 O 0.79822 0.12631 0.262 0.0
C7 C 0.80563 0.15681 0.28976 0.0
N8 N 0.83268 0.14515 0.2875 0.0
C9 C 0.86443 0.17077 0.30853 0.0
C10 C 0.83705 0.18328 0.31105 0.0
C11 C 0.80748 0.17618 0.30163 0.0
C12 C 0.86121 0.15175 0.2965 0.0
H13 H 0.78283 0.15134 0.28254 0.0
C14 C 0.7633 0.10659 0.25695 0.0
O15 O 0.7038 0.98362 0.26207 0.0
O16 O 0.70922 0.0147 0.28082 0.0
N17 N 0.87945 0.11753 0.28204 0.0
C18 C 0.90234 0.10192 0.27835 0.0
C19 C 0.93269 0.10548 0.28684 0.0
C20 C 0.93946 0.12541 0.29895 0.0
C21 C 0.91589 0.14174 0.30245 0.0
C22 C 0.8862 0.1374 0.29356 0.0
H23 H 0.89724 0.0866 0.26904 0.0
O24 O 0.7753 0.00388 0.2796 0.0
O25 O 0.79747 0.06821 0.27939 0.0
O26 O 0.7915 0.03687 0.25297 0.0
O27 O 0.84696 0.09538 0.25651 0.0
C28 C 0.92019 0.1615 0.31451 0.0
C29 C 0.89441 0.1759 0.31756 0.0
H30 H 0.83828 0.19809 0.32022 0.0
H31 H 0.78614 0.18559 0.30353 0.0
H32 H 0.95076 0.09281 0.28407 0.0
H33 H 0.96268 0.1278 0.30553 0.0
H34 H 0.94292 0.16538 0.32157 0.0
H35 H 0.89768 0.19057 0.32694 0.0
Mn36 Mn 0.99996 0.73997 0.25554 0.0
Mn37 Mn 0.08144 0.83031 0.25476 0.0
C38 C 1.00186 0.78839 0.24184 0.0
C39 C 0.96259 0.67602 0.24743 0.0
C40 C 0.02327 0.80154 0.27751 0.0
O41 O 0.04239 0.72989 0.26347 0.0
O42 O 0.09596 0.79131 0.26183 0.0
C43 C 0.12662 0.81614 0.23428 0.0
N44 N 0.10887 0.83648 0.23859 0.0
C45 C 0.12676 0.87586 0.21877 0.0
C46 C 0.14545 0.85549 0.21415 0.0
C47 C 0.14533 0.82548 0.22194 0.0
C48 C 0.10886 0.86546 0.23119 0.0
H49 H 0.12639 0.79288 0.2402 0.0
C50 C 0.07945 0.75444 0.26497 0.0
O51 O 0.95718 0.68495 0.25929 0.0
O52 O 0.99104 0.70371 0.2406 0.0
N53 N 0.07083 0.87003 0.24793 0.0
C54 C 0.04934 0.88503 0.25344 0.0
C55 C 0.04533 0.91442 0.24668 0.0
C56 C 0.06346 0.92808 0.23436 0.0
C57 C 0.08552 0.91227 0.2289 0.0
C58 C 0.08874 0.88325 0.23614 0.0
H59 H 0.03513 0.87443 0.26287 0.0
O60 O 0.96808 0.75951 0.24584 0.0
O61 O 0.0332 0.78851 0.24641 0.0
O62 O 0.99901 0.76783 0.27254 0.0
O63 O 0.05487 0.82705 0.27168 0.0
C64 C 0.10383 0.92363 0.21647 0.0
C65 C 0.1245 0.90549 0.21142 0.0
H66 H 0.15965 0.8624 0.2046 0.0
H67 H 0.1595 0.80948 0.21841 0.0
H68 H 0.02813 0.92637 0.25093 0.0
H69 H 0.05998 0.95048 0.22912 0.0
H70 H 0.10175 0.9459 0.21063 0.0
H71 H 0.13803 0.91413 0.20178 0.0
Mn72 Mn 0.29571 0.28827 0.27009 0.0
Mn73 Mn 0.30084 0.20422 0.27219 0.0
C74 C 0.25769 0.23956 0.28544 0.0
C75 C 0.31702 0.35385 0.27691 0.0
C76 C 0.25865 0.2205 0.24975 0.0
O77 O 0.34684 0.30297 0.26013 0.0
O78 O 0.34863 0.24649 0.26344 0.0
C79 C 0.3681 0.23173 0.291 0.0
N80 N 0.32975 0.20545 0.28768 0.0
C81 C 0.32117 0.16685 0.30727 0.0
C82 C 0.36066 0.19339 0.31088 0.0
C83 C 0.38417 0.22605 0.30273 0.0
C84 C 0.30681 0.17404 0.29547 0.0
H85 H 0.38624 0.25676 0.28471 0.0
C86 C 0.36286 0.28145 0.25861 0.0
O87 O 0.29855 0.33998 0.26574 0.0
O88 O 0.32494 0.33043 0.28375 0.0
N89 N 0.25614 0.16069 0.2804 0.0
C90 C 0.218 0.13951 0.27593 0.0
C91 C 0.19012 0.1067 0.28322 0.0
C92 C 0.20188 0.09573 0.29491 0.0
C93 C 0.24143 0.11776 0.29924 0.0
C94 C 0.26784 0.15019 0.29158 0.0
H95 H 0.20895 0.14777 0.26691 0.0
O96 O 0.24751 0.26497 0.28153 0.0
O97 O 0.2896 0.24313 0.28018 0.0
O98 O 0.26353 0.25344 0.25415 0.0
O99 O 0.27073 0.19977 0.25589 0.0
C100 C 0.25557 0.10919 0.31094 0.0
C101 C 0.29534 0.13385 0.315 0.0
H102 H 0.37314 0.18915 0.31993 0.0
H103 H 0.41463 0.24674 0.30547 0.0
H104 H 0.15965 0.08987 0.27982 0.0
H105 H 0.18025 0.07052 0.30054 0.0
H106 H 0.236 0.08396 0.31697 0.0
H107 H 0.30566 0.12735 0.32413 0.0
Mn108 Mn 0.28839 0.03504 0.7553 0.0
Mn109 Mn 0.20308 0.95282 0.74705 0.0
C110 C 0.247 0.03807 0.73945 0.0
C111 C 0.35528 0.07884 0.7507 0.0
C112 C 0.21324 0.99871 0.77231 0.0
O113 O 0.29695 0.99117 0.76274 0.0
O114 O 0.23877 0.93791 0.75666 0.0
C115 C 0.23589 0.92088 0.72752 0.0
N116 N 0.21049 0.93412 0.7305 0.0
C117 C 0.1865 0.92489 0.70805 0.0
C118 C 0.21221 0.9109 0.70477 0.0
C119 C 0.23702 0.90891 0.71454 0.0
C120 C 0.18645 0.93611 0.72117 0.0
H121 H 0.25523 0.91963 0.73498 0.0
C122 C 0.27278 0.95374 0.76247 0.0
O123 O 0.34079 0.0787 0.76225 0.0
O124 O 0.33195 0.0516 0.7425 0.0
N125 N 0.16621 0.96315 0.73772 0.0
C126 C 0.14426 0.97874 0.74241 0.0
C127 C 0.11837 0.98343 0.73381 0.0
C128 C 0.11525 0.97196 0.72052 0.0
C129 C 0.13784 0.9556 0.71596 0.0
C130 C 0.16282 0.95125 0.72501 0.0
H131 H 0.14676 0.98784 0.7526 0.0
O132 O 0.272 0.06964 0.74585 0.0
O133 O 0.24654 0.00552 0.74273 0.0
O134 O 0.24951 0.02548 0.7705 0.0
O135 O 0.19312 0.97096 0.76399 0.0
C136 C 0.13705 0.94406 0.70274 0.0
C137 C 0.16141 0.92877 0.69879 0.0
H138 H 0.21338 0.90189 0.69475 0.0
H139 H 0.25709 0.89834 0.71207 0.0
H140 H 0.10106 0.99611 0.73741 0.0
H141 H 0.09559 0.97604 0.71388 0.0
H142 H 0.11817 0.94726 0.6955 0.0
H143 H 0.16089 0.92044 0.68856 0.0
Mn144 Mn 0.02256 0.28999 0.75266 0.0
Mn145 Mn 0.10447 0.28639 0.74488 0.0
C146 C 0.01787 0.24136 0.73857 0.0
C147 C 0.97746 0.31104 0.74719 0.0
C148 C 0.06221 0.25653 0.77101 0.0
O149 O 0.06687 0.34456 0.75852 0.0
O150 O 0.11968 0.33891 0.75291 0.0
C151 C 0.13226 0.34599 0.72343 0.0
N152 N 0.12043 0.30842 0.72761 0.0
C153 C 0.12726 0.28857 0.70577 0.0
C154 C 0.13979 0.32713 0.70125 0.0
C155 C 0.14227 0.35595 0.71012 0.0
C156 C 0.11792 0.28046 0.71916 0.0
H157 H 0.13388 0.36811 0.7302 0.0
C158 C 0.10429 0.3581 0.75805 0.0
O159 O 0.97956 0.29978 0.75915 0.0
O160 O 0.00352 0.3131 0.73894 0.0
N161 N 0.09427 0.23744 0.73709 0.0
C162 C 0.08087 0.20147 0.74299 0.0
C163 C 0.07621 0.16922 0.73544 0.0
C164 C 0.08559 0.17435 0.72194 0.0
C165 C 0.09997 0.21182 0.71615 0.0
C166 C 0.1044 0.24296 0.72421 0.0
H167 H 0.07343 0.19735 0.75334 0.0
O168 O 0.98712 0.23655 0.74493 0.0
O169 O 0.05067 0.27465 0.74068 0.0
O170 O 0.03473 0.2649 0.76882 0.0
O171 O 0.08894 0.26258 0.76258 0.0
C172 C 0.10952 0.21938 0.70267 0.0
C173 C 0.12309 0.25771 0.69747 0.0
H174 H 0.14732 0.33488 0.69097 0.0
H175 H 0.15172 0.38572 0.70669 0.0
H176 H 0.06515 0.14041 0.73998 0.0
H177 H 0.08151 0.1493 0.71611 0.0
H178 H 0.10616 0.19583 0.69618 0.0
H179 H 0.12999 0.26306 0.68706 0.0
Mn180 Mn 0.75554 0.76276 0.75937 0.0
Mn181 Mn 0.84467 0.77358 0.76726 0.0
C182 C 0.79855 0.81334 0.77342 0.0
C183 C 0.6887 0.737 0.76516 0.0
C184 C 0.82684 0.79842 0.74073 0.0
O185 O 0.74933 0.70945 0.75346 0.0
O186 O 0.809 0.71951 0.76024 0.0
C187 C 0.81884 0.71768 0.78977 0.0
N188 N 0.84238 0.75486 0.78489 0.0
C189 C 0.87271 0.77916 0.80619 0.0
C190 C 0.84896 0.74106 0.81144 0.0
C191 C 0.82186 0.71021 0.8032 0.0
C192 C 0.86841 0.78479 0.79274 0.0
H193 H 0.79785 0.69398 0.78347 0.0
C194 C 0.77503 0.69824 0.75469 0.0
O195 O 0.70064 0.74868 0.75315 0.0
O196 O 0.71464 0.73721 0.77325 0.0
N197 N 0.88231 0.8247 0.77412 0.0
C198 C 0.90255 0.8598 0.76753 0.0
C199 C 0.93081 0.89376 0.77437 0.0
C200 C 0.93812 0.89119 0.78785 0.0
C201 C 0.91735 0.85459 0.79436 0.0
C202 C 0.88987 0.82169 0.787 0.0
H203 H 0.89705 0.86187 0.75717 0.0
O204 O 0.7706 0.81571 0.76723 0.0
O205 O 0.80043 0.78156 0.77117 0.0
O206 O 0.79102 0.78959 0.74308 0.0
O207 O 0.84904 0.79391 0.74913 0.0
C208 C 0.92256 0.84952 0.80788 0.0
C209 C 0.90014 0.81187 0.8138 0.0
H210 H 0.85111 0.73521 0.8218 0.0
H211 H 0.8033 0.68078 0.80719 0.0
H212 H 0.94678 0.92187 0.76927 0.0
H213 H 0.95964 0.91752 0.79312 0.0
H214 H 0.94343 0.87447 0.81384 0.0
H215 H 0.90407 0.80845 0.82424 0.0
Mn216 Mn 0.41741 0.35143 0.59509 0.0
Mn217 Mn 0.50319 0.43589 0.6014 0.0
C218 C 0.4638 0.35012 0.60912 0.0
C219 C 0.3517 0.30693 0.60103 0.0
C220 C 0.48597 0.39091 0.57551 0.0
O221 O 0.40597 0.39443 0.58863 0.0
O222 O 0.46322 0.44924 0.59448 0.0
C223 C 0.47702 0.46544 0.62379 0.0
N224 N 0.50198 0.45385 0.61882 0.0
C225 C 0.53694 0.46647 0.63956 0.0
C226 C 0.51178 0.4788 0.64489 0.0
C227 C 0.48166 0.47823 0.63697 0.0
C228 C 0.5311 0.45436 0.62634 0.0
H229 H 0.45375 0.46484 0.61773 0.0
C230 C 0.42848 0.43214 0.58918 0.0
O231 O 0.36413 0.30749 0.5891 0.0
O232 O 0.37657 0.33374 0.60908 0.0
N233 N 0.54442 0.42724 0.60802 0.0
C234 C 0.56444 0.41203 0.60161 0.0
C235 C 0.59467 0.40916 0.60829 0.0
C236 C 0.60413 0.42215 0.62144 0.0
C237 C 0.58336 0.43805 0.62778 0.0
C238 C 0.55372 0.44042 0.62059 0.0
H239 H 0.55712 0.40186 0.59152 0.0
O240 O 0.43722 0.318 0.60333 0.0
O241 O 0.46255 0.38222 0.60643 0.0
O242 O 0.45212 0.36148 0.57859 0.0
O243 O 0.50723 0.41957 0.58336 0.0
C244 C 0.59023 0.45073 0.64105 0.0
C245 C 0.56703 0.46493 0.64693 0.0
H246 H 0.51506 0.48841 0.65508 0.0
H247 H 0.46199 0.48751 0.64103 0.0
H248 H 0.6105 0.39676 0.60334 0.0
H249 H 0.62715 0.41945 0.62661 0.0
H250 H 0.61283 0.44908 0.64687 0.0
H251 H 0.57221 0.47405 0.65719 0.0
Mn252 Mn 0.67296 0.07272 0.59169 0.0
Mn253 Mn 0.75512 0.15881 0.58433 0.0
C254 C 0.67002 0.11528 0.57642 0.0
C255 C 0.62954 0.00614 0.58637 0.0
C256 C 0.70934 0.14625 0.60966 0.0
O257 O 0.71669 0.06374 0.59897 0.0
O258 O 0.76982 0.12245 0.59344 0.0
C259 C 0.78754 0.12785 0.56431 0.0
N260 N 0.77431 0.153 0.56767 0.0
C261 C 0.78551 0.18017 0.5457 0.0
C262 C 0.7995 0.15472 0.54202 0.0
C263 C 0.80047 0.12842 0.55137 0.0
C264 C 0.77323 0.17841 0.55875 0.0
H265 H 0.78812 0.10746 0.57146 0.0
C266 C 0.75404 0.08816 0.59895 0.0
O267 O 0.62932 0.0199 0.59805 0.0
O268 O 0.65672 0.03011 0.57837 0.0
N269 N 0.74505 0.19653 0.57553 0.0
C270 C 0.72919 0.21791 0.58053 0.0
C271 C 0.72527 0.24501 0.57236 0.0
C272 C 0.7379 0.25002 0.55918 0.0
C273 C 0.75456 0.22802 0.55431 0.0
C274 C 0.75797 0.20165 0.56294 0.0
H275 H 0.71931 0.21402 0.59064 0.0
O276 O 0.6384 0.08973 0.58256 0.0
O277 O 0.70259 0.1156 0.57959 0.0
O278 O 0.68247 0.11017 0.60748 0.0
O279 O 0.73672 0.16715 0.60143 0.0
C280 C 0.76735 0.23076 0.54119 0.0
C281 C 0.78271 0.20677 0.53687 0.0
H282 H 0.80931 0.15491 0.53203 0.0
H283 H 0.81106 0.10856 0.54859 0.0
H284 H 0.71236 0.26187 0.57619 0.0
H285 H 0.73448 0.27068 0.55287 0.0
H286 H 0.76506 0.25087 0.53428 0.0
H287 H 0.79197 0.20878 0.5267 0.0
Mn288 Mn 0.9602 0.62278 0.5982 0.0
Mn289 Mn 0.96262 0.54151 0.60814 0.0
C290 C 0.92003 0.58488 0.61526 0.0
C291 C 0.98262 0.6903 0.60026 0.0
C292 C 0.92104 0.54408 0.583 0.0
O293 O 0.01111 0.63085 0.58996 0.0
O294 O 0.01098 0.57621 0.59751 0.0
C295 C 0.03086 0.58047 0.6266 0.0
N296 N 0.992 0.55334 0.62433 0.0
C297 C 0.98238 0.53315 0.64713 0.0
C298 C 0.02239 0.5607 0.6497 0.0
C299 C 0.04671 0.58448 0.6394 0.0
C300 C 0.96834 0.53027 0.63416 0.0
H301 H 0.04954 0.59897 0.61872 0.0
C302 C 0.02608 0.60825 0.59064 0.0
O303 O 0.96513 0.67118 0.58949 0.0
O304 O 0.98929 0.67077 0.60933 0.0
N305 N 0.91777 0.5055 0.61838 0.0
C306 C 0.87946 0.4818 0.61436 0.0
C307 C 0.85099 0.45688 0.62356 0.0
C308 C 0.86224 0.45644 0.63676 0.0
C309 C 0.90196 0.48076 0.64062 0.0
C310 C 0.92907 0.50476 0.631 0.0
H311 H 0.87065 0.48223 0.60424 0.0
O312 O 0.91137 0.60776 0.60844 0.0
O313 O 0.95209 0.58466 0.6118 0.0
O314 O 0.92852 0.57982 0.58427 0.0
O315 O 0.93149 0.52669 0.59154 0.0
C316 C 0.91556 0.48274 0.6537 0.0
C317 C 0.95573 0.50895 0.65695 0.0
H318 H 0.03467 0.56406 0.65957 0.0
H319 H 0.07756 0.60594 0.64132 0.0
H320 H 0.82039 0.43823 0.62051 0.0
H321 H 0.84012 0.4375 0.64386 0.0
H322 H 0.89526 0.46459 0.66136 0.0
H323 H 0.96572 0.51055 0.66707 0.0
Mn324 Mn 0.94645 0.34703 0.08633 0.0
Mn325 Mn 0.85708 0.2658 0.08118 0.0
C326 C 0.90026 0.35039 0.07279 0.0
C327 C 0.01219 0.38951 0.08005 0.0
C328 C 0.87689 0.31477 0.10595 0.0
O329 O 0.95617 0.30304 0.09279 0.0
O330 O 0.89402 0.25153 0.09019 0.0
C331 C 0.88391 0.22934 0.06121 0.0
N332 N 0.85976 0.24365 0.06468 0.0
C333 C 0.82969 0.23013 0.04304 0.0
C334 C 0.85407 0.215 0.03925 0.0
C335 C 0.88132 0.21464 0.04837 0.0
C336 C 0.83349 0.2442 0.05598 0.0
H337 H 0.90506 0.22927 0.06816 0.0
C338 C 0.92995 0.26659 0.09432 0.0
O339 O 1.00062 0.38953 0.09206 0.0
O340 O 0.9864 0.36305 0.0721 0.0
N341 N 0.81818 0.27486 0.07273 0.0
C342 C 0.79708 0.29073 0.07794 0.0
C343 C 0.76872 0.29357 0.07006 0.0
C344 C 0.76209 0.27972 0.05697 0.0
C345 C 0.78355 0.2627 0.05193 0.0
C346 C 0.81117 0.26035 0.06028 0.0
H347 H 0.80219 0.30152 0.08798 0.0
O348 O 0.92835 0.38206 0.07834 0.0
O349 O 0.89993 0.3174 0.07533 0.0
O350 O 0.91315 0.33894 0.10303 0.0
O351 O 0.85242 0.28769 0.09811 0.0
C352 C 0.77901 0.24845 0.03889 0.0
C353 C 0.80212 0.23224 0.03444 0.0
H354 H 0.85229 0.2038 0.02934 0.0
H355 H 0.90036 0.20318 0.0455 0.0
H356 H 0.75217 0.30661 0.07404 0.0
H357 H 0.74048 0.28234 0.05088 0.0
H358 H 0.75805 0.25009 0.03217 0.0
H359 H 0.79857 0.22165 0.02437 0.0
Mn360 Mn 0.69252 0.63325 0.08737 0.0
Mn361 Mn 0.77337 0.6247 0.08233 0.0
C362 C 0.68782 0.58299 0.07406 0.0
C363 C 0.6493 0.65593 0.0811 0.0
C364 C 0.72566 0.59706 0.1074 0.0
O365 O 0.73729 0.68726 0.0934 0.0
O366 O 0.78897 0.67755 0.09024 0.0
C367 C 0.80918 0.68519 0.06128 0.0
N368 N 0.79492 0.64723 0.06551 0.0
C369 C 0.80972 0.62817 0.0447 0.0
C370 C 0.82479 0.66714 0.04014 0.0
C371 C 0.82446 0.69575 0.04846 0.0
C372 C 0.7951 0.61947 0.05759 0.0
H373 H 0.80884 0.70721 0.06764 0.0
C374 C 0.77423 0.6986 0.09428 0.0
O375 O 0.65062 0.64517 0.09318 0.0
O376 O 0.67522 0.65656 0.07303 0.0
N377 N 0.76325 0.57545 0.07484 0.0
C378 C 0.74578 0.5388 0.08052 0.0
C379 C 0.74259 0.50653 0.07335 0.0
C380 C 0.7578 0.51234 0.06049 0.0
C381 C 0.7762 0.55045 0.05494 0.0
C382 C 0.77864 0.58151 0.06258 0.0
H383 H 0.73399 0.53419 0.09039 0.0
O384 O 0.6568 0.57995 0.07975 0.0
O385 O 0.72129 0.61559 0.07638 0.0
O386 O 0.70098 0.60837 0.10425 0.0
O387 O 0.75289 0.60031 0.09968 0.0
C388 C 0.79131 0.55866 0.04201 0.0
C389 C 0.80802 0.59748 0.03689 0.0
H390 H 0.83641 0.67536 0.03023 0.0
H391 H 0.83588 0.72584 0.04499 0.0
H392 H 0.72832 0.4772 0.0777 0.0
H393 H 0.75492 0.4873 0.05495 0.0
H394 H 0.7897 0.53522 0.03585 0.0
H395 H 0.81909 0.60332 0.02687 0.0
Mn396 Mn 0.41207 0.08696 0.093 0.0
Mn397 Mn 0.49589 0.08714 0.10149 0.0
C398 C 0.45346 0.12911 0.10927 0.0
C399 C 0.34536 0.06642 0.09744 0.0
C400 C 0.48917 0.12713 0.07673 0.0
O401 O 0.40157 0.03415 0.08534 0.0
O402 O 0.46035 0.03937 0.09074 0.0
C403 C 0.45951 0.01763 0.11934 0.0
N404 N 0.48612 0.05672 0.1173 0.0
C405 C 0.51038 0.06457 0.13967 0.0
C406 C 0.48338 0.02435 0.142 0.0
C407 C 0.45777 1.00081 0.1318 0.0
C408 C 0.5108 0.07966 0.12705 0.0
H409 H 0.43976 0.99944 0.11153 0.0
C410 C 0.42615 0.02144 0.08508 0.0
O411 O 0.3609 0.08157 0.08604 0.0
O412 O 0.36736 0.06019 0.10558 0.0
N413 N 0.53271 0.13148 0.11194 0.0
C414 C 0.55541 0.17019 0.1083 0.0
C415 C 0.58183 0.19797 0.11751 0.0
C416 C 0.58489 0.1856 0.1303 0.0
C417 C 0.56146 0.14553 0.13378 0.0
C418 C 0.53565 0.11921 0.12419 0.0
H419 H 0.55298 0.17986 0.09851 0.0
O420 O 0.43003 0.13761 0.10271 0.0
O421 O 0.45281 0.09664 0.10587 0.0
O422 O 0.45233 0.11635 0.0779 0.0
O423 O 0.50856 0.11946 0.08536 0.0
C424 C 0.56227 0.13078 0.14644 0.0
C425 C 0.53661 0.09038 0.14941 0.0
H426 H 0.48188 0.01128 0.1516 0.0
H427 H 0.43674 0.96978 0.13353 0.0
H428 H 0.59971 0.22886 0.11476 0.0
H429 H 0.60511 0.20715 0.1374 0.0
H430 H 0.58218 0.15037 0.15402 0.0
H431 H 0.53709 0.07953 0.15924 0.0
Mn432 Mn 0.08314 0.68543 0.92709 0.0
Mn433 Mn 0.17219 0.76633 0.93297 0.0
C434 C 0.12674 0.68234 0.94207 0.0
C435 C 0.0165 0.64477 0.93273 0.0
C436 C 0.15292 0.71763 0.90787 0.0
O437 O 0.07585 0.73048 0.91983 0.0
O438 O 0.13583 0.78289 0.925 0.0
C439 C 0.14892 0.80287 0.95403 0.0
N440 N 0.17157 0.78745 0.9499 0.0
C441 C 0.20389 0.79921 0.97113 0.0
C442 C 0.18108 0.81545 0.97559 0.0
C443 C 0.15344 0.81722 0.96701 0.0
C444 C 0.19825 0.7856 0.95808 0.0
H445 H 0.12753 0.8041 0.94747 0.0
C446 C 0.10095 0.76775 0.91989 0.0
O447 O 0.02906 0.64346 0.92099 0.0
O448 O 0.04188 0.67143 0.94073 0.0
N449 N 0.20976 0.75396 0.94068 0.0
C450 C 0.22755 0.73518 0.93509 0.0
C451 C 0.25509 0.72972 0.94251 0.0
C452 C 0.26413 0.74373 0.95557 0.0
C453 C 0.24557 0.76316 0.96108 0.0
C454 C 0.21856 0.76795 0.95318 0.0
H455 H 0.22053 0.72422 0.92507 0.0
O456 O 0.09945 0.65034 0.9364 0.0
O457 O 0.12814 0.71513 0.9385 0.0
O458 O 0.11772 0.69105 0.91101 0.0
O459 O 0.17575 0.74654 0.91541 0.0
C460 C 0.25229 0.77734 0.97417 0.0
C461 C 0.23145 0.79533 0.97919 0.0
H462 H 0.1843 0.82632 0.98562 0.0
H463 H 0.13558 0.82952 0.9704 0.0
H464 H 0.26919 0.71459 0.9382 0.0
H465 H 0.28512 0.73916 0.9613 0.0
H466 H 0.273 0.77402 0.98052 0.0
H467 H 0.23644 0.80557 0.98934 0.0
Mn468 Mn 0.35129 0.42493 0.91989 0.0
Mn469 Mn 0.43459 0.51238 0.91499 0.0
C470 C 0.35162 0.46982 0.9048 0.0
C471 C 0.30796 0.35902 0.91412 0.0
C472 C 0.38403 0.49491 0.93931 0.0
O473 O 0.3938 0.41476 0.92765 0.0
O474 O 0.44786 0.47464 0.92392 0.0
C475 C 0.47201 0.48586 0.8953 0.0
N476 N 0.45747 0.50991 0.89867 0.0
C477 C 0.47286 0.54097 0.87727 0.0
C478 C 0.48822 0.51668 0.87358 0.0
C479 C 0.48775 0.48899 0.88264 0.0
C480 C 0.45783 0.53671 0.89005 0.0
H481 H 0.47149 0.4644 0.90221 0.0
C482 C 0.43108 0.43923 0.92862 0.0
O483 O 0.30728 0.37232 0.92581 0.0
O484 O 0.33562 0.38314 0.90623 0.0
N485 N 0.42549 0.55106 0.90644 0.0
C486 C 0.40741 0.57052 0.91129 0.0
C487 C 0.40425 0.59844 0.90332 0.0
C488 C 0.41981 0.60613 0.89049 0.0
C489 C 0.4385 0.5859 0.88576 0.0
C490 C 0.441 0.5586 0.89418 0.0
H491 H 0.39522 0.56451 0.92112 0.0
O492 O 0.31877 0.44381 0.91027 0.0
O493 O 0.38338 0.46954 0.90871 0.0
O494 O 0.35807 0.45957 0.93602 0.0
O495 O 0.41299 0.51792 0.93192 0.0
C496 C 0.4541 0.59121 0.87293 0.0
C497 C 0.47121 0.56872 0.86868 0.0
H498 H 0.50015 0.51882 0.8638 0.0
H499 H 0.49937 0.47001 0.87984 0.0
H500 H 0.38968 0.61385 0.90703 0.0
H501 H 0.41699 0.62741 0.88433 0.0
H502 H 0.45257 0.61209 0.86619 0.0
H503 H 0.48257 0.57265 0.85873 0.0
Mn504 Mn 0.6156 0.95634 0.93137 0.0
Mn505 Mn 0.60493 0.86613 0.93667 0.0
C506 C 0.56907 0.91283 0.9462 0.0
C507 C 0.64163 0.0228 0.93738 0.0
C508 C 0.57445 0.88626 0.91195 0.0
O509 O 0.66751 0.96337 0.92404 0.0
O510 O 0.6564 0.9015 0.92794 0.0
C511 C 0.66872 0.88953 0.95668 0.0
N512 N 0.62981 0.86715 0.95314 0.0
C513 C 0.61309 0.83537 0.97442 0.0
C514 C 0.65303 0.85794 0.97827 0.0
C515 C 0.68094 0.88519 0.96937 0.0
C516 C 0.60269 0.84093 0.96164 0.0
H517 H 0.69023 0.91055 0.94987 0.0
C518 C 0.6774 0.93666 0.92325 0.0
O519 O 0.62754 0.01038 0.92557 0.0
O520 O 0.64345 0.99743 0.94524 0.0
N521 N 0.55634 0.82933 0.94506 0.0
C522 C 0.51875 0.81136 0.94002 0.0
C523 C 0.48708 0.784 0.9478 0.0
C524 C 0.49444 0.77521 0.96064 0.0
C525 C 0.53344 0.79383 0.96556 0.0
C526 C 0.56379 0.82076 0.95734 0.0
H527 H 0.513 0.81807 0.93016 0.0
O528 O 0.56446 0.94022 0.94058 0.0
O529 O 0.60003 0.911 0.94261 0.0
O530 O 0.58646 0.92239 0.91502 0.0
O531 O 0.57819 0.86217 0.91963 0.0
C532 C 0.54332 0.78711 0.97836 0.0
C533 C 0.5831 0.80796 0.98281 0.0
H534 H 0.66256 0.85477 0.98807 0.0
H535 H 0.7118 0.90282 0.97229 0.0
H536 H 0.45707 0.76979 0.94394 0.0
H537 H 0.46992 0.75429 0.96665 0.0
H538 H 0.52049 0.76638 0.98494 0.0
H539 H 0.59024 0.80297 0.99274 0.0
Mn540 Mn 0.61763 0.67333 0.4192 0.0
Mn541 Mn 0.52737 0.59078 0.41552 0.0
C542 C 0.57089 0.67343 0.40481 0.0
C543 C 0.68478 0.71251 0.41323 0.0
C544 C 0.54824 0.64593 0.43883 0.0
O545 O 0.6266 0.63082 0.42769 0.0
O546 O 0.56494 0.57894 0.42495 0.0
C547 C 0.55382 0.55117 0.39665 0.0
N548 N 0.52892 0.56492 0.39974 0.0
C549 C 0.49389 0.5419 0.37906 0.0
C550 C 0.51902 0.52729 0.37566 0.0
C551 C 0.54921 0.53209 0.38448 0.0
C552 C 0.50017 0.56098 0.39126 0.0
H553 H 0.57699 0.55476 0.40342 0.0
C554 C 0.60036 0.59453 0.42949 0.0
O555 O 0.67202 0.71604 0.42467 0.0
O556 O 0.6588 0.68546 0.40543 0.0
N557 N 0.48667 0.59637 0.4068 0.0
C558 C 0.46419 0.61101 0.41178 0.0
C559 C 0.43227 0.60805 0.40428 0.0
C560 C 0.42326 0.58931 0.39189 0.0
C561 C 0.44595 0.57324 0.38718 0.0
C562 C 0.47729 0.57696 0.39511 0.0
H563 H 0.47069 0.62498 0.42137 0.0
O564 O 0.59999 0.70642 0.40931 0.0
O565 O 0.5702 0.64114 0.40861 0.0
O566 O 0.58417 0.66996 0.43545 0.0
O567 O 0.52385 0.6164 0.43177 0.0
C568 C 0.43874 0.55369 0.37492 0.0
C569 C 0.46289 0.53832 0.37082 0.0
H570 H 0.51546 0.51241 0.36631 0.0
H571 H 0.5688 0.521 0.38192 0.0
H572 H 0.41465 0.62017 0.40805 0.0
H573 H 0.39878 0.5873 0.3861 0.0
H574 H 0.41477 0.55043 0.36855 0.0
H575 H 0.45724 0.52361 0.36133 0.0
Mn576 Mn 0.37344 0.96563 0.41739 0.0
Mn577 Mn 0.45906 0.96372 0.41468 0.0
C578 C 0.38014 0.92633 0.40149 0.0
C579 C 0.33095 0.99035 0.41173 0.0
C580 C 0.40079 0.92219 0.43671 0.0
O581 O 0.4129 0.01571 0.42756 0.0
O582 O 0.46771 0.01064 0.42487 0.0
C583 C 0.50072 0.03391 0.39734 0.0
N584 N 0.48692 0.9947 0.39966 0.0
C585 C 0.51235 0.98732 0.37895 0.0
C586 C 0.52704 0.0277 0.37636 0.0
C587 C 0.5211 0.05106 0.38558 0.0
C588 C 0.49219 0.97188 0.39082 0.0
H589 H 0.49614 0.0519 0.4044 0.0
C590 C 0.44963 0.02752 0.4297 0.0
O591 O 0.32732 0.9715 0.4227 0.0
O592 O 0.36044 0.99649 0.40428 0.0
N593 N 0.45517 0.91959 0.40517 0.0
C594 C 0.43886 0.88112 0.40916 0.0
C595 C 0.44243 0.8538 0.40112 0.0
C596 C 0.46303 0.86641 0.38914 0.0
C597 C 0.47994 0.90625 0.38532 0.0
C598 C 0.47583 0.9322 0.39382 0.0
H599 H 0.42327 0.87138 0.41841 0.0
O600 O 0.34529 0.91777 0.40558 0.0
O601 O 0.40986 0.95706 0.40693 0.0
O602 O 0.37567 0.9323 0.43293 0.0
O603 O 0.43219 0.93086 0.43029 0.0
C604 C 0.50057 0.92123 0.3734 0.0
C605 C 0.51658 0.96169 0.37018 0.0
H606 H 0.54276 0.04104 0.3673 0.0
H607 H 0.53222 0.08221 0.38362 0.0
H608 H 0.42938 0.82313 0.40415 0.0
H609 H 0.46572 0.84524 0.38299 0.0
H610 H 0.50399 0.90182 0.36658 0.0
H611 H 0.53203 0.97278 0.36093 0.0
Mn612 Mn 0.07454 0.40696 0.42421 0.0
Mn613 Mn 0.15801 0.4034 0.42973 0.0
C614 C 0.12267 0.45165 0.43859 0.0
C615 C 0.01046 0.38985 0.43067 0.0
C616 C 0.14395 0.43835 0.40477 0.0
O617 O 0.059 0.35171 0.41741 0.0
O618 O 0.11603 0.35209 0.42197 0.0
C619 C 0.12806 0.34242 0.45078 0.0
N620 N 0.15468 0.37967 0.44659 0.0
C621 C 0.18824 0.39599 0.46767 0.0
C622 C 0.16142 0.35766 0.47216 0.0
C623 C 0.13117 0.33079 0.46368 0.0
C624 C 0.18389 0.40577 0.45468 0.0
H625 H 0.10456 0.32178 0.44434 0.0
C626 C 0.08025 0.33516 0.41749 0.0
O627 O 0.02247 0.40188 0.4187 0.0
O628 O 0.03436 0.3849 0.43834 0.0
N629 N 0.20036 0.4508 0.43739 0.0
C630 C 0.22186 0.48751 0.43189 0.0
C631 C 0.25234 0.51832 0.43927 0.0
C632 C 0.26047 0.51107 0.45221 0.0
C633 C 0.23801 0.47303 0.45765 0.0
C634 C 0.20817 0.44341 0.44979 0.0
H635 H 0.21547 0.49336 0.42201 0.0
O636 O 0.09784 0.46002 0.4329 0.0
O637 O 0.1191 0.41766 0.43544 0.0
O638 O 0.10932 0.43181 0.40776 0.0
O639 O 0.16462 0.42919 0.41233 0.0
C640 C 0.2435 0.46358 0.47066 0.0
C641 C 0.21858 0.42511 0.47568 0.0
H642 H 0.16353 0.34867 0.48214 0.0
H643 H 0.11018 0.30125 0.4671 0.0
H644 H 0.26939 0.54765 0.43503 0.0
H645 H 0.28374 0.53501 0.45792 0.0
H646 H 0.26639 0.48586 0.47695 0.0
H647 H 0.22267 0.4184 0.48577 0.0
Zn648 Zn 0.02234 0.03858 0.13224 0.0
Zn649 Zn 0.03302 0.02661 0.1753 0.0
Zn650 Zn 0.02803 0.03076 0.15432 0.0
C651 C 0.02721 0.96092 0.16799 0.0
C652 C 0.09851 0.09136 0.17072 0.0
O653 O 0.99919 0.06783 0.1519 0.0
O654 O 0.02119 0.08847 0.1318 0.0
C655 C 0.9668 0.96053 0.13685 0.0
O656 O 0.00545 0.96778 0.15996 0.0
O657 O 0.05426 0.98965 0.17436 0.0
O658 O 0.07004 0.08401 0.17823 0.0
O659 O 0.09184 0.0686 0.16063 0.0
O660 O 0.97162 0.98836 0.12925 0.0
O661 O 0.98983 0.96864 0.147 0.0
O662 O 0.09078 0.05763 0.14687 0.0
O663 O 0.07121 0.041 0.12628 0.0
C664 C 0.09871 0.05364 0.1348 0.0
O665 O 0.99039 0.05105 0.16476 0.0
O666 O 0.97637 0.00507 0.17973 0.0
C667 C 0.0048 0.0912 0.14208 0.0
C668 C 0.96859 0.02979 0.17443 0.0
Zn669 Zn 0.01419 0.00234 0.34976 0.0
Zn670 Zn 0.02024 0.00113 0.39549 0.0
Zn671 Zn 0.01782 0.00327 0.37124 0.0
C672 C 0.00284 0.06137 0.38886 0.0
C673 C 0.95913 0.92592 0.38811 0.0
O674 O 0.98839 0.94062 0.36391 0.0
O675 O 0.02826 0.96088 0.34686 0.0
C676 C 0.08494 0.06324 0.35427 0.0
O677 O 0.99936 0.04646 0.37725 0.0
O678 O 0.01285 0.04745 0.3985 0.0
O679 O 0.97399 0.94717 0.39828 0.0
O680 O 0.97371 0.94026 0.37665 0.0
O681 O 0.05547 0.05857 0.34757 0.0
O682 O 0.07951 0.03812 0.36351 0.0
O683 O 0.98377 0.03263 0.36429 0.0
O684 O 0.95771 0.98794 0.34857 0.0
C685 C 0.95679 0.01454 0.35534 0.0
O686 O 0.08165 0.0229 0.37609 0.0
O687 O 0.07482 0.00955 0.39743 0.0
C688 C 0.00446 0.93287 0.35415 0.0
C689 C 0.09638 0.02026 0.38728 0.0
Zn690 Zn 0.01419 0.02834 0.89239 0.0
Zn691 Zn 0.02005 0.02598 0.82262 0.0
Zn692 Zn 0.01718 0.02678 0.86854 0.0
C693 C 0.0466 0.0861 0.8471 0.0
C694 C 0.95825 0.9942 0.84694 0.0
O695 O 0.04201 0.98863 0.87438 0.0
O696 O 0.02663 0.98533 0.89543 0.0
C697 C 0.0679 0.10584 0.88504 0.0
O698 O 0.04696 0.08734 0.85975 0.0
O699 O 0.03142 0.05169 0.84189 0.0
O700 O 0.99234 0.01398 0.8416 0.0
O701 O 0.95735 0.99487 0.85957 0.0
O702 O 0.05528 0.08453 0.89527 0.0
O703 O 0.05532 0.09029 0.87355 0.0
O704 O 0.95273 1.00012 0.87312 0.0
O705 O 0.9582 0.01304 0.89452 0.0
C706 C 0.93689 0.99985 0.88427 0.0
O707 O 0.0501 0.99855 0.86072 0.0
O708 O 0.03053 0.01205 0.8422 0.0
C709 C 0.03896 0.97356 0.88596 0.0
C710 C 0.05166 0.99994 0.84808 0.0
Zn711 Zn 0.01681 0.99595 0.68462 0.0
Zn712 Zn 0.0117 0.02131 0.62585 0.0
Zn713 Zn 0.01934 0.01592 0.64861 0.0
C714 C 0.00262 0.9491 0.62675 0.0
C715 C 0.08727 0.08221 0.63194 0.0
O716 O 0.99061 0.04134 0.66087 0.0
O717 O 0.98638 0.02488 0.68239 0.0
C718 C 0.99781 0.94627 0.66389 0.0
O719 O 0.99749 0.95653 0.63874 0.0
O720 O 0.01442 0.97639 0.61826 0.0
O721 O 0.05909 0.07435 0.62398 0.0
O722 O 0.08058 0.05988 0.64215 0.0
O723 O 0.02857 0.97458 0.66879 0.0
O724 O 0.98895 0.95214 0.65229 0.0
O725 O 0.08106 0.04629 0.65585 0.0
O726 O 0.07315 0.0289 0.6773 0.0
C727 C 0.09522 0.04701 0.6675 0.0
O728 O 0.97753 0.03839 0.64695 0.0
O729 O 0.95874 0.01612 0.62669 0.0
C730 C 0.98035 0.04272 0.67289 0.0
C731 C 0.95319 0.02983 0.6372 0.0
Zn732 Zn 0.69351 0.35642 0.52445 0.0
Zn733 Zn 0.6872 0.35346 0.46336 0.0
Zn734 Zn 0.69654 0.35732 0.48835 0.0
C735 C 0.76766 0.38407 0.46692 0.0
C736 C 0.64318 0.27622 0.47318 0.0
O737 O 0.66545 0.38697 0.49791 0.0
O738 O 0.66275 0.38281 0.52022 0.0
C739 C 0.75918 0.38936 0.50502 0.0
O740 O 0.75659 0.38103 0.47906 0.0
O741 O 0.74256 0.37457 0.45767 0.0
O742 O 0.65092 0.29552 0.46253 0.0
O743 O 0.65853 0.29394 0.48416 0.0
O744 O 0.72471 0.37024 0.50918 0.0
O745 O 0.76173 0.39048 0.49254 0.0
O746 O 0.6693 0.29759 0.4983 0.0
O747 O 0.66453 0.29854 0.52055 0.0
C748 C 0.65877 0.27999 0.50968 0.0
O749 O 0.66888 0.3933 0.4838 0.0
O750 O 0.66387 0.38789 0.46203 0.0
C751 C 0.65449 0.39338 0.50929 0.0
C752 C 0.65909 0.40188 0.47261 0.0
Zn753 Zn 0.69171 0.35556 0.72609 0.0
Zn754 Zn 0.70617 0.3674 0.66599 0.0
Zn755 Zn 0.69047 0.35749 0.70128 0.0
C756 C 0.63296 0.33723 0.68263 0.0
C757 C 0.74646 0.43923 0.68297 0.0
O758 O 0.72536 0.32864 0.70618 0.0
O759 O 0.72639 0.33232 0.72795 0.0
C760 C 0.61248 0.31074 0.71999 0.0
O761 O 0.62697 0.33187 0.69496 0.0
O762 O 0.66796 0.34943 0.67947 0.0
O763 O 0.74112 0.42209 0.67187 0.0
O764 O 0.72919 0.42055 0.69377 0.0
O765 O 0.63506 0.32156 0.72998 0.0
O766 O 0.62712 0.32223 0.70834 0.0
O767 O 0.71959 0.42088 0.70748 0.0
O768 O 0.715 0.41293 0.72913 0.0
C769 C 0.72467 0.43555 0.71921 0.0
O770 O 0.71421 0.32089 0.69177 0.0
O771 O 0.72654 0.33092 0.6699 0.0
C772 C 0.7372 0.3231 0.71749 0.0
C773 C 0.72593 0.31367 0.68067 0.0
Zn774 Zn 0.67898 0.34843 0.21904 0.0
Zn775 Zn 0.67819 0.35173 0.17542 0.0
Zn776 Zn 0.68036 0.3516 0.19688 0.0
C777 C 0.68665 0.42084 0.18117 0.0
C778 C 0.61038 0.28931 0.18167 0.0
O779 O 0.70132 0.30999 0.20237 0.0
O780 O 0.66455 0.29155 0.22018 0.0
C781 C 0.74521 0.41798 0.2126 0.0
O782 O 0.70665 0.41421 0.19002 0.0
O783 O 0.66088 0.39192 0.17451 0.0
O784 O 0.63816 0.2942 0.17419 0.0
O785 O 0.61758 0.31512 0.19076 0.0
O786 O 0.73563 0.38994 0.22071 0.0
O787 O 0.72229 0.41274 0.20267 0.0
O788 O 0.61849 0.33234 0.20273 0.0
O789 O 0.63827 0.36419 0.22161 0.0
C790 C 0.61159 0.34771 0.21288 0.0
O791 O 0.7161 0.32565 0.18971 0.0
O792 O 0.73555 0.3693 0.17368 0.0
C793 C 0.68494 0.28528 0.21194 0.0
C794 C 0.741 0.34526 0.18052 0.0
Zn795 Zn 0.70626 0.37855 0.01984 0.0
Zn796 Zn 0.67981 0.35598 0.96033 0.0
Zn797 Zn 0.68697 0.35837 0.9838 0.0
C798 C 0.67211 0.28344 0.96741 0.0
C799 C 0.75551 0.41608 0.96384 0.0
O800 O 0.65429 0.38315 0.99397 0.0
O801 O 0.65141 0.34909 0.01142 0.0
C802 C 0.66395 0.2914 1.00531 0.0
O803 O 0.66845 0.29522 0.97893 0.0
O804 O 0.67931 0.30607 0.95761 0.0
O805 O 0.72927 0.40399 0.95488 0.0
O806 O 0.74643 0.40057 0.97544 0.0
O807 O 0.67688 0.31853 0.01412 0.0
O808 O 0.66553 0.29994 0.99292 0.0
O809 O 0.74919 0.39344 0.98957 0.0
O810 O 0.73739 0.42069 1.00628 0.0
C811 C 0.76067 0.41199 1.00061 0.0
O812 O 0.64265 0.37738 0.97994 0.0
O813 O 0.62878 0.35511 0.95947 0.0
C814 C 0.64551 0.37523 1.00623 0.0
C815 C 0.62094 0.36911 0.96946 0.0
Zn816 Zn 0.35588 0.69208 0.83544 0.0
Zn817 Zn 0.36113 0.70274 0.79114 0.0
Zn818 Zn 0.35873 0.69589 0.81422 0.0
C819 C 0.43607 0.71843 0.79785 0.0
C820 C 0.3021 0.62485 0.79621 0.0
O821 O 0.32007 0.71835 0.82236 0.0
O822 O 0.29775 0.67094 0.8372 0.0
C823 C 0.42353 0.75667 0.83188 0.0
O824 O 0.42291 0.72114 0.80922 0.0
O825 O 0.41299 0.70678 0.78797 0.0
O826 O 0.31117 0.65164 0.78762 0.0
O827 O 0.32114 0.63373 0.8073 0.0
O828 O 0.39283 0.74976 0.8381 0.0
O829 O 0.42007 0.73308 0.82239 0.0
O830 O 0.3346 0.63275 0.82043 0.0
O831 O 0.37711 0.65541 0.83694 0.0
C832 C 0.35391 0.62669 0.8297 0.0
O833 O 0.33362 0.7354 0.80977 0.0
O834 O 0.36022 0.75289 0.79004 0.0
C835 C 0.29413 0.69736 0.83117 0.0
C836 C 0.34293 0.75828 0.7996 0.0
Zn837 Zn 0.34403 0.6771 0.05893 0.0
Zn838 Zn 0.35012 0.68263 0.01358 0.0
Zn839 Zn 0.34792 0.68049 0.03488 0.0
C840 C 0.28249 0.67741 0.01741 0.0
C841 C 0.41183 0.74943 0.01925 0.0
O842 O 0.38766 0.65727 0.04059 0.0
O843 O 0.38926 0.66781 0.06206 0.0
C844 C 0.26831 0.62321 0.05045 0.0
O845 O 0.28678 0.65648 0.0265 0.0
O846 O 0.31275 0.70284 0.01133 0.0
O847 O 0.40805 0.72056 0.01252 0.0
O848 O 0.38557 0.74304 0.02806 0.0
O849 O 0.28951 0.63233 0.06076 0.0
O850 O 0.28376 0.64025 0.03938 0.0
O851 O 0.37109 0.74322 0.04077 0.0
O852 O 0.35098 0.73074 0.06142 0.0
C853 C 0.36483 0.75487 0.05191 0.0
O854 O 0.37378 0.64442 0.02743 0.0
O855 O 0.32987 0.62498 0.01136 0.0
C856 C 0.40211 0.65813 0.05218 0.0
C857 C 0.35446 0.61984 0.01801 0.0
Zn858 Zn 0.34102 0.67658 0.55136 0.0
Zn859 Zn 0.35502 0.68872 0.50852 0.0
Zn860 Zn 0.35059 0.68434 0.52965 0.0
C861 C 0.35775 0.75454 0.51432 0.0
C862 C 0.28794 0.62306 0.5112 0.0
O863 O 0.37454 0.6453 0.5356 0.0
O864 O 0.33357 0.62232 0.55234 0.0
C865 C 0.40384 0.7512 0.54906 0.0
O866 O 0.37634 0.74803 0.52374 0.0
O867 O 0.33393 0.72566 0.50724 0.0
O868 O 0.31887 0.63146 0.50486 0.0
O869 O 0.29035 0.64575 0.52084 0.0
O870 O 0.39244 0.72183 0.5567 0.0
O871 O 0.38722 0.74579 0.53758 0.0
O872 O 0.28514 0.65829 0.53315 0.0
O873 O 0.29475 0.68382 0.55309 0.0
C874 C 0.27203 0.66787 0.54332 0.0
O875 O 0.3906 0.66241 0.52287 0.0
O876 O 0.41341 0.71024 0.50823 0.0
C877 C 0.35741 0.61923 0.54476 0.0
C878 C 0.41744 0.68433 0.51446 0.0
Zn879 Zn 0.34998 0.67656 0.29052 0.0
Zn880 Zn 0.31879 0.70091 0.33043 0.0
Zn881 Zn 0.348 0.68916 0.31367 0.0
C882 C 0.37506 0.68039 0.34018 0.0
C883 C 0.28125 0.62153 0.32941 0.0
O884 O 0.29512 0.6864 0.30618 0.0
O885 O 0.29756 0.67283 0.28535 0.0
C886 C 0.4199 0.75101 0.29745 0.0
O887 O 0.36183 0.6592 0.32958 0.0
O888 O 0.36316 0.70455 0.3427 0.0
O889 O 0.26959 0.64666 0.32925 0.0
O890 O 0.31681 0.63278 0.32545 0.0
O891 O 0.4011 0.72851 0.28781 0.0
O892 O 0.40546 0.74137 0.30911 0.0
O893 O 0.35031 0.63377 0.31598 0.0
O894 O 0.35277 0.62692 0.29435 0.0
C895 C 0.35258 0.6146 0.30597 0.0
O896 O 0.3836 0.7504 0.32121 0.0
O897 O 0.32871 0.75277 0.32255 0.0
C898 C 0.28014 0.67966 0.2946 0.0
C899 C 0.36624 0.7706 0.32334 0.0
H900 H 0.27592 0.17826 0.2325 0.0
H901 H 0.20309 0.23211 0.23648 0.0
H902 H 0.24911 0.15521 0.21052 0.0
H903 H 0.17393 0.20679 0.21472 0.0
H904 H 0.1316 0.17064 0.17412 0.0
H905 H 0.17761 0.20774 0.19201 0.0
H906 H 0.19468 0.10783 0.19955 0.0
H907 H 0.15086 0.07248 0.18115 0.0
C908 C 0.25364 0.18472 0.22872 0.0
C909 C 0.24123 0.20659 0.23635 0.0
C910 C 0.2381 0.17135 0.21606 0.0
C911 C 0.20888 0.17859 0.21067 0.0
C912 C 0.19686 0.20105 0.21828 0.0
C913 C 0.21319 0.21527 0.23088 0.0
C914 C 0.14726 0.15779 0.17911 0.0
C915 C 0.13824 0.11898 0.17608 0.0
C916 C 0.17277 0.17855 0.18967 0.0
C917 C 0.18913 0.16056 0.19767 0.0
C918 C 0.1831 0.12317 0.19372 0.0
C919 C 0.15822 0.10283 0.18298 0.0
H920 H 0.90244 0.1098 0.24079 0.0
H921 H 0.78914 0.00905 0.22992 0.0
H922 H 0.9304 0.10388 0.22014 0.0
H923 H 0.81694 0.0038 0.20907 0.0
H924 H 0.8998 0.97384 0.18497 0.0
H925 H 0.86178 0.98359 0.20185 0.0
H926 H 0.93233 0.11052 0.19638 0.0
H927 H 0.97122 0.10035 0.1795 0.0
C928 C 0.88334 0.08648 0.23397 0.0
C929 C 0.84355 0.05962 0.23715 0.0
C930 C 0.89933 0.08342 0.222 0.0
C931 C 0.87598 0.0535 0.21282 0.0
C932 C 0.836 0.02699 0.21592 0.0
C933 C 0.82004 0.02993 0.22793 0.0
C934 C 0.90632 0.0038 0.18705 0.0
C935 C 0.93855 0.03634 0.18096 0.0
C936 C 0.88447 0.00945 0.19676 0.0
C937 C 0.89431 0.04789 0.20071 0.0
C938 C 0.92443 0.08049 0.19378 0.0
C939 C 0.9463 0.07474 0.18394 0.0
H940 H 0.96373 0.82933 0.23604 0.0
H941 H 0.03969 0.79007 0.21947 0.0
H942 H 0.96398 0.86073 0.21499 0.0
H943 H 0.03904 0.81992 0.19832 0.0
H944 H 0.07679 0.93278 0.17259 0.0
H945 H 0.06667 0.88392 0.1893 0.0
H946 H 0.94354 0.85203 0.19218 0.0
H947 H 0.95423 0.90179 0.17538 0.0
C948 C 0.98041 0.82748 0.22785 0.0
C949 C 0.0029 0.80876 0.22944 0.0
C950 C 0.98012 0.84484 0.21573 0.0
C951 C 1.00151 0.84286 0.20489 0.0
C952 C 0.02273 0.82263 0.20645 0.0
C953 C 0.02336 0.80576 0.21859 0.0
C954 C 0.04708 0.91389 0.17631 0.0
C955 C 0.01633 0.92103 0.17273 0.0
C956 C 0.04128 0.88604 0.18603 0.0
C957 C 0.00457 0.86484 0.19244 0.0
C958 C 0.9725 0.86868 0.18771 0.0
C959 C 0.97831 0.8965 0.17786 0.0
H960 H 0.29294 0.23176 0.30778 0.0
H961 H 0.17883 0.19357 0.28964 0.0
H962 H 0.26008 0.19191 0.32752 0.0
H963 H 0.14608 0.15518 0.30947 0.0
H964 H 0.1059 0.13969 0.35155 0.0
H965 H 0.15466 0.18548 0.33586 0.0
H966 H 0.1989 0.10483 0.33068 0.0
H967 H 0.14936 0.05832 0.34636 0.0
C968 C 0.26086 0.2142 0.30795 0.0
C969 C 0.23828 0.2143 0.29703 0.0
C970 C 0.2422 0.19181 0.31924 0.0
C971 C 0.20068 0.17046 0.31993 0.0
C972 C 0.17819 0.17135 0.30912 0.0
C973 C 0.19682 0.19319 0.2978 0.0
C974 C 0.12739 0.13263 0.34758 0.0
C975 C 0.12403 0.0956 0.35017 0.0
C976 C 0.15495 0.15863 0.33851 0.0
C977 C 0.17995 0.14825 0.33194 0.0
C978 C 0.17987 0.11337 0.33565 0.0
C979 C 0.1519 0.08702 0.34473 0.0
H980 H 0.80394 0.07621 0.30748 0.0
H981 H 0.84568 0.00527 0.28849 0.0
H982 H 0.83979 0.07772 0.32787 0.0
H983 H 0.88048 0.00589 0.30888 0.0
H984 H 0.87814 0.96753 0.35205 0.0
H985 H 0.83802 0.97893 0.33587 0.0
H986 H 0.9326 0.09959 0.33097 0.0
H987 H 0.9731 0.08817 0.34726 0.0
C988 C 0.82147 0.06169 0.30761 0.0
C989 C 0.82343 0.04189 0.2963 0.0
C990 C 0.84163 0.06234 0.31926 0.0
C991 C 0.86309 0.04227 0.31982 0.0
C992 C 0.86438 0.0219 0.30859 0.0
C993 C 0.84455 0.02151 0.29697 0.0
C994 C 0.88951 0.99715 0.34809 0.0
C995 C 0.92855 0.02706 0.35098 0.0
C996 C 0.86671 0.00352 0.33875 0.0
C997 C 0.88245 0.03998 0.33216 0.0
C998 C 0.91981 0.07135 0.33604 0.0
C999 C 0.94277 0.06495 0.34546 0.0
H1000 H 0.95382 0.76392 0.29165 0.0
H1001 H 0.07462 0.86137 0.29376 0.0
H1002 H 0.94142 0.78126 0.31366 0.0
H1003 H 0.06223 0.87838 0.31553 0.0
H1004 H 0.93768 0.88214 0.34081 0.0
H1005 H 0.93776 0.83936 0.32325 0.0
H1006 H 0.04794 0.85356 0.33859 0.0
H1007 H 0.04802 0.89692 0.35591 0.0
C1008 C 0.97777 0.78883 0.29681 0.0
C1009 C 0.0152 0.81137 0.29088 0.0
C1010 C 0.97063 0.79867 0.30942 0.0
C1011 C 1.00097 0.83079 0.31643 0.0
C1012 C 0.03843 0.85287 0.31055 0.0
C1013 C 0.0454 0.84341 0.29795 0.0
C1014 C 0.96046 0.87392 0.34093 0.0
C1015 C 0.99278 0.89265 0.34971 0.0
C1016 C 0.96081 0.84979 0.33076 0.0
C1017 C 0.99352 0.84413 0.32931 0.0
C1018 C 0.02278 0.85814 0.33929 0.0
C1019 C 0.02246 0.88232 0.34938 0.0
H1020 H 0.79338 0.79164 0.79902 0.0
H1021 H 0.84534 0.89354 0.77339 0.0
H1022 H 0.82291 0.83436 0.81818 0.0
H1023 H 0.87818 0.93654 0.79226 0.0
H1024 H 0.92226 0.01307 0.82753 0.0
H1025 H 0.87732 0.96857 0.81058 0.0
H1026 H 0.87925 0.87001 0.8299 0.0
H1027 H 0.92101 0.91437 0.84731 0.0
C1028 C 0.81189 0.82333 0.79754 0.0
C1029 C 0.81829 0.83942 0.78479 0.0
C1030 C 0.82903 0.84796 0.80851 0.0
C1031 C 0.85359 0.8893 0.80696 0.0
C1032 C 0.859 0.90519 0.79407 0.0
C1033 C 0.84078 0.88056 0.78316 0.0
C1034 C 0.91152 0.98154 0.82834 0.0
C1035 C 0.92416 0.96681 0.83879 0.0
C1036 C 0.88647 0.95601 0.81847 0.0
C1037 C 0.87498 0.91541 0.81854 0.0
C1038 C 0.88658 0.90069 0.82943 0.0
C1039 C 0.91056 0.92609 0.83951 0.0
H1040 H 0.24463 0.04772 0.79402 0.0
H1041 H 0.13585 0.94876 0.77897 0.0
H1042 H 0.21079 0.04571 0.81447 0.0
H1043 H 0.10226 0.9473 0.79916 0.0
H1044 H 0.053 0.93392 0.83966 0.0
H1045 H 0.0965 0.93245 0.82253 0.0
H1046 H 0.16062 0.06068 0.82149 0.0
H1047 H 0.11775 0.06169 0.83866 0.0
C1048 C 0.21357 0.02563 0.79503 0.0
C1049 C 0.19308 0.99855 0.78476 0.0
C1050 C 0.19415 0.02444 0.80677 0.0
C1051 C 0.1538 0.99612 0.80854 0.0
C1052 C 0.13351 0.96895 0.79831 0.0
C1053 C 0.15281 0.97013 0.78661 0.0
C1054 C 0.07738 0.9616 0.83606 0.0
C1055 C 0.08264 0.99789 0.84056 0.0
C1056 C 0.10194 0.96089 0.82614 0.0
C1057 C 0.13193 0.9965 0.82052 0.0
C1058 C 0.13832 0.03273 0.82565 0.0
C1059 C 0.1138 0.03336 0.83551 0.0
H1060 H 0.12327 0.24837 0.78067 0.0
H1061 H 0.00592 0.22517 0.7907 0.0
H1062 H 0.12586 0.21572 0.80078 0.0
H1063 H 0.00845 0.19155 0.81093 0.0
H1064 H 0.08377 0.09871 0.82387 0.0
H1065 H 0.0907 0.14575 0.80682 0.0
H1066 H 0.04248 0.19771 0.83311 0.0
H1067 H 0.03553 0.14987 0.85037 0.0
C1068 C 0.09793 0.23638 0.78717 0.0
C1069 C 0.06403 0.23887 0.78389 0.0
C1070 C 0.09953 0.21766 0.79874 0.0
C1071 C 0.06724 0.20065 0.8074 0.0
C1072 C 0.03396 0.20463 0.80451 0.0
C1073 C 0.03238 0.2236 0.79286 0.0
C1074 C 0.07569 0.1209 0.82615 0.0
C1075 C 0.05937 0.12088 0.83844 0.0
C1076 C 0.07963 0.14791 0.81637 0.0
C1077 C 0.06696 0.17542 0.81856 0.0
C1078 C 0.05222 0.17666 0.8311 0.0
C1079 C 0.04878 0.14975 0.84103 0.0
H1080 H 0.81457 0.84663 0.72344 0.0
H1081 H 0.87836 0.78315 0.72809 0.0
H1082 H 0.85156 0.87711 0.70307 0.0
H1083 H 0.9139 0.81213 0.7078 0.0
H1084 H 0.91584 0.9099 0.66246 0.0
H1085 H 0.86867 0.86907 0.67972 0.0
H1086 H 0.96609 0.87832 0.70326 0.0
H1087 H 0.01228 0.91795 0.68617 0.0
C1088 C 0.83585 0.83862 0.71998 0.0
C1089 C 0.84421 0.81322 0.72751 0.0
C1090 C 0.8569 0.85589 0.7083 0.0
C1091 C 0.88629 0.84765 0.70393 0.0
C1092 C 0.89234 0.82003 0.71103 0.0
C1093 C 0.87187 0.80335 0.72268 0.0
C1094 C 0.92681 0.90229 0.67121 0.0
C1095 C 0.9677 0.91686 0.67295 0.0
C1096 C 0.89993 0.87937 0.68115 0.0
C1097 C 0.91352 0.87026 0.69288 0.0
C1098 C 0.95433 0.88403 0.69431 0.0
C1099 C 0.98093 0.90691 0.68451 0.0
H1100 H 0.20368 0.07403 0.73545 0.0
H1101 H 0.25747 0.01625 0.7151 0.0
H1102 H 0.18069 0.0863 0.71445 0.0
H1103 H 0.23632 0.02998 0.69387 0.0
H1104 H 0.13407 0.00728 0.66404 0.0
H1105 H 0.17974 0.00942 0.68088 0.0
H1106 H 0.1964 0.12175 0.69466 0.0
H1107 H 0.14846 0.11781 0.6782 0.0
C1108 C 0.2105 0.06399 0.7264 0.0
C1109 C 0.23083 0.04288 0.72684 0.0
C1110 C 0.19807 0.07166 0.71431 0.0
C1111 C 0.20691 0.05954 0.70232 0.0
C1112 C 0.22848 0.0394 0.70284 0.0
C1113 C 0.24035 0.03122 0.71498 0.0
C1114 C 0.14949 0.03367 0.67012 0.0
C1115 C 0.13749 0.06216 0.66993 0.0
C1116 C 0.17535 0.03466 0.67998 0.0
C1117 C 0.19042 0.06486 0.68959 0.0
C1118 C 0.18395 0.09709 0.6878 0.0
C1119 C 0.15742 0.09558 0.6781 0.0
H1120 H 0.98406 0.16167 0.73943 0.0
H1121 H 0.03437 0.26098 0.71266 0.0
H1122 H 0.96757 0.11617 0.72095 0.0
H1123 H 0.01631 0.21557 0.69388 0.0
H1124 H 0.0248 0.12094 0.66776 0.0
H1125 H 0.03203 0.17243 0.68293 0.0
H1126 H 0.92537 0.08696 0.70297 0.0
H1127 H 0.9202 0.03508 0.68832 0.0
C1128 C 0.99167 0.17362 0.72952 0.0
C1129 C 0.01172 0.21465 0.72745 0.0
C1130 C 0.98158 0.1476 0.71886 0.0
C1131 C 0.99003 0.16195 0.70579 0.0
C1132 C 0.00963 0.20329 0.70376 0.0
C1133 C 0.02025 0.22936 0.71449 0.0
C1134 C 1.00184 0.11366 0.675 0.0
C1135 C 0.97203 0.07405 0.67692 0.0
C1136 C 0.00618 0.14317 0.68383 0.0
C1137 C 0.98016 0.13366 0.69455 0.0
C1138 C 0.947 0.09509 0.6952 0.0
C1139 C 0.94331 0.06546 0.68659 0.0
H1140 H 0.89154 0.56772 0.5622 0.0
H1141 H 0.90677 0.4706 0.57567 0.0
H1142 H 0.85991 0.53093 0.54196 0.0
H1143 H 0.87633 0.43469 0.55543 0.0
H1144 H 0.7664 0.36302 0.52877 0.0
H1145 H 0.80985 0.40155 0.54681 0.0
H1146 H 0.86923 0.50324 0.52103 0.0
H1147 H 0.82467 0.46398 0.50279 0.0
C1148 C 0.88831 0.53867 0.56086 0.0
C1149 C 0.90123 0.52198 0.57071 0.0
C1150 C 0.87065 0.51781 0.54917 0.0
C1151 C 0.86557 0.47985 0.54707 0.0
C1152 C 0.8793 0.46364 0.55679 0.0
C1153 C 0.89673 0.4843 0.56845 0.0
C1154 C 0.78946 0.3933 0.52685 0.0
C1155 C 0.79232 0.41056 0.51441 0.0
C1156 C 0.81445 0.41545 0.5372 0.0
C1157 C 0.8429 0.45562 0.53542 0.0
C1158 C 0.84728 0.47244 0.52274 0.0
C1159 C 0.82228 0.44993 0.51226 0.0
H1160 H 0.4791 0.33099 0.55939 0.0
H1161 H 0.5279 0.45774 0.5611 0.0
H1162 H 0.51344 0.33852 0.53855 0.0
H1163 H 0.56049 0.46531 0.54005 0.0
H1164 H 0.66667 0.46104 0.52061 0.0
H1165 H 0.61693 0.46278 0.53425 0.0
H1166 H 0.52621 0.35516 0.51567 0.0
H1167 H 0.57699 0.35344 0.50215 0.0
C1168 C 0.49637 0.36031 0.55514 0.0
C1169 C 0.50162 0.39381 0.56202 0.0
C1170 C 0.51582 0.36472 0.54311 0.0
C1171 C 0.54033 0.4027 0.53762 0.0
C1172 C 0.54282 0.43575 0.54408 0.0
C1173 C 0.52409 0.4314 0.55617 0.0
C1174 C 0.63577 0.43925 0.51882 0.0
C1175 C 0.62571 0.40708 0.51038 0.0
C1176 C 0.60702 0.43984 0.5268 0.0
C1177 C 0.56749 0.40828 0.52643 0.0
C1178 C 0.55653 0.37931 0.51651 0.0
C1179 C 0.58547 0.37886 0.50849 0.0
H1180 H 0.694 0.11024 0.55176 0.0
H1181 H 0.63266 0.1575 0.57366 0.0
H1182 H 0.68155 0.13574 0.53118 0.0
H1183 H 0.62104 0.18403 0.55336 0.0
H1184 H 0.5888 0.22043 0.51862 0.0
H1185 H 0.58581 0.16876 0.53304 0.0
H1186 H 0.70287 0.19752 0.52035 0.0
H1187 H 0.70462 0.24765 0.50553 0.0
C1188 C 0.67843 0.12674 0.55214 0.0
C1189 C 0.66548 0.13335 0.56426 0.0
C1190 C 0.67093 0.14096 0.54038 0.0
C1191 C 0.64991 0.16163 0.54053 0.0
C1192 C 0.63641 0.1674 0.55274 0.0
C1193 C 0.64363 0.15291 0.56443 0.0
C1194 C 0.61262 0.21372 0.51827 0.0
C1195 C 0.64708 0.23813 0.51112 0.0
C1196 C 0.61143 0.18483 0.52678 0.0
C1197 C 0.64502 0.18052 0.52839 0.0
C1198 C 0.67671 0.20043 0.51956 0.0
C1199 C 0.67754 0.22887 0.51088 0.0
H1200 H 0.95214 0.59398 0.64002 0.0
H1201 H 0.84093 0.54306 0.61881 0.0
H1202 H 0.91636 0.57321 0.66105 0.0
H1203 H 0.8051 0.52237 0.63958 0.0
H1204 H 0.74155 0.50292 0.67482 0.0
H1205 H 0.79108 0.54856 0.65934 0.0
H1206 H 0.87274 0.5117 0.67327 0.0
H1207 H 0.82345 0.46712 0.68897 0.0
C1208 C 0.92002 0.5776 0.63989 0.0
C1209 C 0.89912 0.56865 0.62782 0.0
C1210 C 0.89955 0.56624 0.6519 0.0
C1211 C 0.85783 0.54667 0.65206 0.0
C1212 C 0.83722 0.53824 0.63991 0.0
C1213 C 0.85763 0.54944 0.62798 0.0
C1214 C 0.77111 0.50684 0.67528 0.0
C1215 C 0.77833 0.48084 0.68288 0.0
C1216 C 0.79919 0.53216 0.66613 0.0
C1217 C 0.83508 0.53216 0.66459 0.0
C1218 C 0.84516 0.51196 0.67401 0.0
C1219 C 0.81708 0.48689 0.68324 0.0
H1220 H 0.4696 0.37648 0.63437 0.0
H1221 H 0.50583 0.31219 0.60897 0.0
H1222 H 0.50659 0.36905 0.65282 0.0
H1223 H 0.54092 0.30262 0.6274 0.0
H1224 H 0.64214 0.33999 0.6562 0.0
H1225 H 0.59965 0.34191 0.63919 0.0
H1226 H 0.51274 0.32534 0.66852 0.0
H1227 H 0.55726 0.32549 0.68598 0.0
C1228 C 0.48598 0.36117 0.63275 0.0
C1229 C 0.48694 0.34684 0.62014 0.0
C1230 C 0.50639 0.3561 0.64336 0.0
C1231 C 0.52739 0.33579 0.64159 0.0
C1232 C 0.5262 0.31952 0.62907 0.0
C1233 C 0.5061 0.32489 0.61849 0.0
C1234 C 0.61399 0.33661 0.65913 0.0
C1235 C 0.60328 0.33285 0.67251 0.0
C1236 C 0.58925 0.33728 0.64928 0.0
C1237 C 0.55249 0.3335 0.65239 0.0
C1238 C 0.54105 0.32869 0.66577 0.0
C1239 C 0.56626 0.32833 0.67576 0.0
H1240 H 0.67051 0.11085 0.6329 0.0
H1241 H 0.75322 0.22457 0.61594 0.0
H1242 H 0.67916 0.14278 0.65449 0.0
H1243 H 0.76132 0.25597 0.63712 0.0
H1244 H 0.7923 0.31179 0.67413 0.0
H1245 H 0.7897 0.26268 0.65869 0.0
H1246 H 0.66411 0.18903 0.66571 0.0
H1247 H 0.66752 0.23738 0.68162 0.0
C1248 C 0.69026 0.14258 0.63372 0.0
C1249 C 0.71118 0.16503 0.62263 0.0
C1250 C 0.69543 0.16083 0.64612 0.0
C1251 C 0.72175 0.20185 0.64768 0.0
C1252 C 0.74193 0.22413 0.6365 0.0
C1253 C 0.7368 0.20608 0.62422 0.0
C1254 C 0.76482 0.28381 0.67307 0.0
C1255 C 0.73009 0.27849 0.67899 0.0
C1256 C 0.763 0.25604 0.66396 0.0
C1257 C 0.72627 0.22279 0.66047 0.0
C1258 C 0.69282 0.21444 0.66801 0.0
C1259 C 0.69487 0.24198 0.67731 0.0
H1260 H 0.44606 0.09437 0.13318 0.0
H1261 H 0.49363 0.20809 0.11402 0.0
H1262 H 0.4699 0.12732 0.15458 0.0
H1263 H 0.51792 0.24133 0.13527 0.0
H1264 H 0.54976 0.29891 0.17302 0.0
H1265 H 0.50031 0.25451 0.15692 0.0
H1266 H 0.53413 0.16636 0.1649 0.0
H1267 H 0.58354 0.2109 0.18074 0.0
C1268 C 0.46219 0.12649 0.13358 0.0
C1269 C 0.46964 0.14894 0.12199 0.0
C1270 C 0.47534 0.14532 0.14582 0.0
C1271 C 0.49561 0.18696 0.14667 0.0
C1272 C 0.50173 0.20921 0.13504 0.0
C1273 C 0.48849 0.19033 0.12284 0.0
C1274 C 0.54492 0.26916 0.17184 0.0
C1275 C 0.57035 0.25818 0.178 0.0
C1276 C 0.51718 0.24401 0.16245 0.0
C1277 C 0.51449 0.20758 0.15925 0.0
C1278 C 0.53586 0.19441 0.16695 0.0
C1279 C 0.56388 0.21972 0.17616 0.0
H1280 H 0.80099 0.27259 0.11506 0.0
H1281 H 0.91973 0.36055 0.12722 0.0
H1282 H 0.77641 0.27528 0.13667 0.0
H1283 H 0.89498 0.36261 0.14912 0.0
H1284 H 0.81568 0.3989 0.1738 0.0
H1285 H 0.85498 0.38797 0.15773 0.0
H1286 H 0.77412 0.26152 0.16004 0.0
H1287 H 0.73418 0.27297 0.17607 0.0
C1288 C 0.82203 0.2923 0.12238 0.0
C1289 C 0.86235 0.31676 0.11928 0.0
C1290 C 0.80794 0.29338 0.1349 0.0
C1291 C 0.83372 0.31887 0.14473 0.0
C1292 C 0.87425 0.34273 0.14176 0.0
C1293 C 0.8884 0.34171 0.12918 0.0
C1294 C 0.80739 0.36864 0.17134 0.0
C1295 C 0.77177 0.3368 0.17602 0.0
C1296 C 0.82991 0.36231 0.16208 0.0
C1297 C 0.81712 0.32393 0.15729 0.0
C1298 C 0.78421 0.29156 0.1633 0.0
C1299 C 0.76167 0.29797 0.17264 0.0
H1300 H 0.67971 0.59292 0.12854 0.0
H1301 H 0.76709 0.56214 0.11652 0.0
H1302 H 0.67588 0.56306 0.15015 0.0
H1303 H 0.76248 0.53162 0.13781 0.0
H1304 H 0.76037 0.48462 0.17681 0.0
H1305 H 0.77433 0.53805 0.16114 0.0
H1306 H 0.64888 0.49733 0.15829 0.0
H1307 H 0.63553 0.44529 0.17412 0.0
C1308 C 0.6981 0.57984 0.13048 0.0
C1309 C 0.72338 0.57962 0.12069 0.0
C1310 C 0.69599 0.5628 0.1429 0.0
C1311 C 0.71898 0.54499 0.14581 0.0
C1312 C 0.74496 0.54577 0.13611 0.0
C1313 C 0.74719 0.56288 0.12377 0.0
C1314 C 0.73617 0.48859 0.17336 0.0
C1315 C 0.69689 0.46081 0.1766 0.0
C1316 C 0.74399 0.51869 0.16418 0.0
C1317 C 0.71261 0.52135 0.15812 0.0
C1318 C 0.67386 0.49641 0.16268 0.0
C1319 C 0.66613 0.46649 0.1718 0.0
H1320 H 0.46126 0.12069 0.05114 0.0
H1321 H 0.56775 0.18036 0.07495 0.0
H1322 H 0.50083 0.14922 0.03117 0.0
H1323 H 0.60668 0.21004 0.05542 0.0
H1324 H 0.68019 0.24479 0.02113 0.0
H1325 H 0.63397 0.19795 0.03713 0.0
H1326 H 0.53839 0.20693 0.01851 0.0
H1327 H 0.58447 0.25145 1.002 0.0
C1328 C 0.49295 0.14047 0.05213 0.0
C1329 C 0.5113 0.1482 0.06466 0.0
C1330 C 0.51576 0.1567 0.04068 0.0
C1331 C 0.55737 0.18135 0.04152 0.0
C1332 C 0.57513 0.19005 0.05416 0.0
C1333 C 0.55258 0.17349 0.06548 0.0
C1334 C 0.64886 0.23476 0.02001 0.0
C1335 C 0.63585 0.25138 0.01024 0.0
C1336 C 0.62238 0.20874 0.02941 0.0
C1337 C 0.58252 0.19984 0.02955 0.0
C1338 C 0.56872 0.21303 0.01886 0.0
C1339 C 0.59512 0.23829 0.00924 0.0
H1340 H 0.85801 0.38804 0.07387 0.0
H1341 H 0.89396 0.32591 0.04734 0.0
H1342 H 0.826 0.40251 0.05558 0.0
H1343 H 0.86321 0.34141 0.02879 0.0
H1344 H 0.7693 0.34625 1.00139 0.0
H1345 H 0.80213 0.32913 0.01877 0.0
H1346 H 0.84355 0.4438 0.03686 0.0
H1347 H 0.80919 0.45987 0.01985 0.0
C1348 C 0.85866 0.37723 0.06408 0.0
C1349 C 0.87723 0.35488 0.06202 0.0
C1350 C 0.84082 0.38589 0.05356 0.0
C1351 C 0.84232 0.37352 0.04063 0.0
C1352 C 0.86102 0.35104 0.03861 0.0
C1353 C 0.8785 0.34201 0.0492 0.0
C1354 C 0.78625 0.36809 1.00892 0.0
C1355 C 0.78699 0.40454 0.00926 0.0
C1356 C 0.80495 0.35824 0.01892 0.0
C1357 C 0.82505 0.38482 0.02936 0.0
C1358 C 0.82747 0.42212 0.02921 0.0
C1359 C 0.80833 0.43165 0.01936 0.0
H1360 H 0.71714 0.59656 0.0489 0.0
H1361 H 0.6411 0.50372 0.07569 0.0
H1362 H 0.70466 0.54704 0.03188 0.0
H1363 H 0.62534 0.45457 0.05856 0.0
H1364 H 0.63993 0.3706 0.03284 0.0
H1365 H 0.6513 0.42147 0.0484 0.0
H1366 H 0.66239 0.50012 0.01633 0.0
H1367 H 0.65415 0.44911 1.00042 0.0
C1368 C 0.69824 0.56541 0.05117 0.0
C1369 C 0.68204 0.55362 0.06383 0.0
C1370 C 0.69019 0.53702 0.04132 0.0
C1371 C 0.66456 0.49633 0.04382 0.0
C1372 C 0.64658 0.4852 0.05632 0.0
C1373 C 0.65536 0.5134 0.06618 0.0
C1374 C 0.64462 0.39861 0.02898 0.0
C1375 C 0.64639 0.40567 0.01529 0.0
C1376 C 0.65076 0.42797 0.03802 0.0
C1377 C 0.65747 0.46522 0.03378 0.0
C1378 C 0.65787 0.47206 0.02004 0.0
C1379 C 0.6526 0.44264 0.01089 0.0
H1380 H 0.53798 0.80996 0.90277 0.0
H1381 H 0.57418 0.92969 0.89045 0.0
H1382 H 0.51362 0.78613 0.88062 0.0
H1383 H 0.55044 0.90579 0.86808 0.0
H1384 H 0.44463 0.83151 0.83854 0.0
H1385 H 0.48859 0.86787 0.85681 0.0
H1386 H 0.53061 0.78411 0.85797 0.0
H1387 H 0.48546 0.74715 0.83973 0.0
C1388 C 0.54094 0.83133 0.89532 0.0
C1389 C 0.55779 0.87179 0.8985 0.0
C1390 C 0.52744 0.81767 0.88251 0.0
C1391 C 0.53048 0.84403 0.87244 0.0
C1392 C 0.54745 0.88456 0.87558 0.0
C1393 C 0.56089 0.89826 0.88844 0.0
C1394 C 0.46478 0.82207 0.84226 0.0
C1395 C 0.46167 0.78655 0.83774 0.0
C1396 C 0.48988 0.84279 0.85284 0.0
C1397 C 0.51241 0.82836 0.85916 0.0
C1398 C 0.51286 0.79548 0.85355 0.0
C1399 C 0.48769 0.77474 0.8429 0.0
H1400 H 0.19948 0.78033 0.89216 0.0
H1401 H 0.14004 0.65258 0.89357 0.0
H1402 H 0.22625 0.77995 0.87062 0.0
H1403 H 0.16909 0.65185 0.87245 0.0
H1404 H 0.2144 0.65138 0.83327 0.0
H1405 H 0.17412 0.65879 0.85004 0.0
H1406 H 0.27438 0.77288 0.86074 0.0
H1407 H 0.31291 0.76626 0.84328 0.0
C1408 C 0.19246 0.75209 0.88787 0.0
C1409 C 0.168 0.71648 0.8946 0.0
C1410 C 0.208 0.75182 0.8755 0.0
C1411 C 0.20043 0.71594 0.86964 0.0
C1412 C 0.1752 0.68019 0.87635 0.0
C1413 C 0.15877 0.68047 0.88859 0.0
C1414 C 0.22687 0.67892 0.83877 0.0
C1415 C 0.2665 0.70849 0.83689 0.0
C1416 C 0.20418 0.68283 0.84865 0.0
C1417 C 0.2211 0.71584 0.8572 0.0
C1418 C 0.2598 0.74702 0.85444 0.0
C1419 C 0.28207 0.7435 0.8443 0.0
H1420 H 0.38286 0.46602 0.88143 0.0
H1421 H 0.31302 0.51038 0.89948 0.0
H1422 H 0.37648 0.49161 0.86002 0.0
H1423 H 0.30704 0.53684 0.87816 0.0
H1424 H 0.28373 0.56748 0.83881 0.0
H1425 H 0.27891 0.52119 0.85611 0.0
H1426 H 0.40119 0.55454 0.84954 0.0
H1427 H 0.40556 0.6003 0.83238 0.0
C1428 C 0.36669 0.48192 0.88081 0.0
C1429 C 0.3497 0.48768 0.89214 0.0
C1430 C 0.36269 0.49624 0.86854 0.0
C1431 C 0.34115 0.51626 0.8673 0.0
C1432 C 0.32326 0.52099 0.87865 0.0
C1433 C 0.32714 0.50644 0.89091 0.0
C1434 C 0.30873 0.56305 0.84057 0.0
C1435 C 0.34493 0.5872 0.83424 0.0
C1436 C 0.30635 0.53729 0.8507 0.0
C1437 C 0.34009 0.53513 0.85455 0.0
C1438 C 0.37467 0.55553 0.84697 0.0
C1439 C 0.37709 0.58145 0.83696 0.0
H1440 H 0.48958 0.8743 0.95073 0.0
H1441 H 0.60275 0.91515 0.9699 0.0
H1442 H 0.45595 0.84631 0.97162 0.0
H1443 H 0.56971 0.88871 0.99093 0.0
H1444 H 0.49021 0.77771 0.01701 0.0
H1445 H 0.53211 0.82629 1.00077 0.0
H1446 H 0.44107 0.85683 0.99355 0.0
H1447 H 0.39915 0.80778 0.01002 0.0
C1448 C 0.50715 0.87735 0.95948 0.0
C1449 C 0.54847 0.89533 0.95868 0.0
C1450 C 0.48805 0.86193 0.9715 0.0
C1451 C 0.51005 0.86518 0.98305 0.0
C1452 C 0.55169 0.885 0.98226 0.0
C1453 C 0.57065 0.89993 0.97021 0.0
C1454 C 0.48009 0.79634 0.01244 0.0
C1455 C 0.44161 0.78916 0.01475 0.0
C1456 C 0.50392 0.82396 1.00297 0.0
C1457 C 0.48943 0.84449 0.99543 0.0
C1458 C 0.45269 0.84064 0.99889 0.0
C1459 C 0.42898 0.81322 1.00853 0.0
H1460 H 0.16638 0.64229 0.94649 0.0
H1461 H 0.12358 0.71159 0.96592 0.0
H1462 H 0.19318 0.63438 0.96752 0.0
H1463 H 0.14914 0.70299 0.98705 0.0
H1464 H 0.25661 0.72937 0.01474 0.0
H1465 H 0.21147 0.72647 0.99752 0.0
H1466 H 0.1791 0.60511 0.98919 0.0
H1467 H 0.22486 0.60848 1.00659 0.0
C1468 C 0.1628 0.6558 0.95531 0.0
C1469 C 0.14446 0.67885 0.95456 0.0
C1470 C 0.17754 0.65082 0.9674 0.0
C1471 C 0.17331 0.66798 0.97905 0.0
C1472 C 0.15349 0.68981 0.97829 0.0
C1473 C 0.13912 0.69504 0.96619 0.0
C1474 C 0.23824 0.70143 0.00969 0.0
C1475 C 0.24393 0.66908 0.01203 0.0
C1476 C 0.21261 0.69983 0.99968 0.0
C1477 C 0.1925 0.66595 0.99164 0.0
C1478 C 0.19494 0.63204 0.99497 0.0
C1479 C 0.22042 0.63357 1.00513 0.0
H1480 H 0.34123 0.4509 0.96055 0.0
H1481 H 0.42376 0.57119 0.94863 0.0
H1482 H 0.34062 0.47401 0.98282 0.0
H1483 H 0.42212 0.59447 0.97073 0.0
H1484 H 0.42776 0.63296 0.0114 0.0
H1485 H 0.43923 0.59753 0.99363 0.0
H1486 H 0.31443 0.50935 0.99344 0.0
H1487 H 0.3037 0.54413 0.01127 0.0
C1488 C 0.35897 0.48234 0.96263 0.0
C1489 C 0.38218 0.50922 0.95272 0.0
C1490 C 0.35877 0.4956 0.97545 0.0
C1491 C 0.38147 0.53615 0.97867 0.0
C1492 C 0.40496 0.56293 0.96876 0.0
C1493 C 0.40545 0.54963 0.95599 0.0
C1494 C 0.40339 0.60477 1.00805 0.0
C1495 C 0.36486 0.59122 0.01265 0.0
C1496 C 0.40969 0.5849 0.99766 0.0
C1497 C 0.37753 0.55119 0.99178 0.0
C1498 C 0.33999 0.5351 0.99763 0.0
C1499 C 0.33378 0.55492 1.00796 0.0
H1500 H 0.12234 0.42176 0.46291 0.0
H1501 H 0.16714 0.53155 0.44142 0.0
H1502 H 0.15312 0.45875 0.48324 0.0
H1503 H 0.19772 0.56882 0.46171 0.0
H1504 H 0.22711 0.62933 0.50053 0.0
H1505 H 0.18097 0.58427 0.48372 0.0
H1506 H 0.2212 0.50116 0.4919 0.0
H1507 H 0.26733 0.54636 0.50847 0.0
C1508 C 0.13951 0.45385 0.46252 0.0
C1509 C 0.14393 0.47391 0.45054 0.0
C1510 C 0.15664 0.47502 0.47417 0.0
C1511 C 0.17768 0.51674 0.47413 0.0
C1512 C 0.18121 0.53672 0.46214 0.0
C1513 C 0.16424 0.51549 0.4505 0.0
C1514 C 0.22452 0.60054 0.49916 0.0
C1515 C 0.25032 0.59099 0.50586 0.0
C1516 C 0.19874 0.57509 0.48937 0.0
C1517 C 0.19815 0.53957 0.48626 0.0
C1518 C 0.22098 0.52828 0.494 0.0
C1519 C 0.24711 0.55395 0.50361 0.0
H1520 H 0.47244 0.60654 0.44815 0.0
H1521 H 0.59183 0.69516 0.4594 0.0
H1522 H 0.44878 0.61201 0.46963 0.0
H1523 H 0.56802 0.70003 0.48118 0.0
H1524 H 0.49188 0.73729 0.50699 0.0
H1525 H 0.5291 0.72566 0.49028 0.0
H1526 H 0.44736 0.59949 0.49295 0.0
H1527 H 0.40942 0.61163 0.50958 0.0
C1528 C 0.49381 0.62709 0.45523 0.0
C1529 C 0.5341 0.65069 0.45193 0.0
C1530 C 0.48023 0.62978 0.46768 0.0
C1531 C 0.50648 0.65608 0.47727 0.0
C1532 C 0.54689 0.67953 0.47404 0.0
C1533 C 0.56053 0.67689 0.46152 0.0
C1534 C 0.48292 0.70692 0.50444 0.0
C1535 C 0.44755 0.6754 0.50945 0.0
C1536 C 0.50423 0.7002 0.49479 0.0
C1537 C 0.49061 0.66172 0.48994 0.0
C1538 C 0.45804 0.62965 0.49621 0.0
C1539 C 0.43667 0.63644 0.50592 0.0
H1540 H 0.35219 0.91719 0.45699 0.0
H1541 H 0.43805 0.88319 0.44621 0.0
H1542 H 0.34711 0.88893 0.47891 0.0
H1543 H 0.43197 0.85372 0.46789 0.0
H1544 H 0.43181 0.81537 0.50853 0.0
H1545 H 0.44521 0.86366 0.49092 0.0
H1546 H 0.32056 0.82713 0.48931 0.0
H1547 H 0.30796 0.78041 0.50707 0.0
C1548 C 0.36961 0.90323 0.45922 0.0
C1549 C 0.39525 0.90219 0.44974 0.0
C1550 C 0.36684 0.88712 0.47185 0.0
C1551 C 0.38934 0.86917 0.47533 0.0
C1552 C 0.41488 0.86811 0.46579 0.0
C1553 C 0.41794 0.88453 0.45323 0.0
C1554 C 0.40783 0.81948 0.50493 0.0
C1555 C 0.36887 0.79424 0.50918 0.0
C1556 C 0.41523 0.84642 0.49458 0.0
C1557 C 0.38377 0.84851 0.48832 0.0
C1558 C 0.34566 0.8266 0.49377 0.0
C1559 C 0.33838 0.79989 0.50408 0.0
H1560 H 0.22251 0.47842 0.39829 0.0
H1561 H 0.10625 0.44317 0.38236 0.0
H1562 H 0.25274 0.51469 0.37819 0.0
H1563 H 0.13628 0.4774 0.3618 0.0
H1564 H 0.20442 0.58967 0.33672 0.0
H1565 H 0.17005 0.54041 0.35352 0.0
H1566 H 0.26792 0.51777 0.35593 0.0
H1567 H 0.30363 0.56952 0.33943 0.0
C1568 C 0.20328 0.4779 0.39039 0.0
C1569 C 0.1619 0.45837 0.39206 0.0
C1570 C 0.22069 0.49841 0.37872 0.0
C1571 C 0.19722 0.49941 0.36823 0.0
C1572 C 0.15562 0.47833 0.36971 0.0
C1573 C 0.13825 0.45848 0.38151 0.0
C1574 C 0.21847 0.57376 0.34064 0.0
C1575 C 0.25714 0.58412 0.33687 0.0
C1576 C 0.19846 0.54503 0.3503 0.0
C1577 C 0.2162 0.52518 0.35639 0.0
C1578 C 0.25361 0.53312 0.35178 0.0
C1579 C 0.27394 0.56239 0.34215 0.0
H1580 H 0.52582 0.70758 0.40761 0.0
H1581 H 0.55534 0.64304 0.37988 0.0
H1582 H 0.47822 0.70782 0.39192 0.0
H1583 H 0.50935 0.64509 0.36364 0.0
H1584 H 0.3938 0.62095 0.34262 0.0
H1585 H 0.44205 0.61933 0.35798 0.0
H1586 H 0.47116 0.73494 0.37275 0.0
H1587 H 0.42208 0.73534 0.35814 0.0
C1588 C 0.52226 0.69382 0.39803 0.0
C1589 C 0.54303 0.67419 0.39505 0.0
C1590 C 0.49527 0.69422 0.38894 0.0
C1591 C 0.48959 0.67635 0.37641 0.0
C1592 C 0.51208 0.65834 0.37325 0.0
C1593 C 0.53853 0.65726 0.3825 0.0
C1594 C 0.41039 0.64572 0.34927 0.0
C1595 C 0.4037 0.67795 0.34931 0.0
C1596 C 0.43828 0.64502 0.35801 0.0
C1597 C 0.46041 0.67682 0.3668 0.0
C1598 C 0.45406 0.70929 0.36651 0.0
C1599 C 0.42591 0.70964 0.35802 0.0
H1600 H 0.35232 0.84795 0.39653 0.0
H1601 H 0.41579 0.96406 0.3788 0.0
H1602 H 0.36022 0.8185 0.37617 0.0
H1603 H 0.42252 0.93451 0.35828 0.0
H1604 H 0.3515 0.83194 0.323 0.0
H1605 H 0.36146 0.8756 0.34175 0.0
H1606 H 0.429 0.83097 0.36197 0.0
H1607 H 0.42066 0.78866 0.34303 0.0
C1608 C 0.36795 0.86705 0.38827 0.0
C1609 C 0.38438 0.90823 0.38929 0.0
C1610 C 0.37266 0.85035 0.37669 0.0
C1611 C 0.39256 0.87442 0.36578 0.0
C1612 C 0.40753 0.91546 0.36662 0.0
C1613 C 0.4037 0.93226 0.37832 0.0
C1614 C 0.37028 0.83305 0.33115 0.0
C1615 C 0.38531 0.8069 0.33154 0.0
C1616 C 0.37563 0.85773 0.34192 0.0
C1617 C 0.39536 0.85601 0.35336 0.0
C1618 C 0.41346 0.83259 0.35329 0.0
C1619 C 0.40906 0.80873 0.34237 0.0
H1620 H 0.30504 0.10153 0.08726 0.0
H1621 H 0.30156 0.02472 0.11871 0.0
H1622 H 0.24966 0.10416 0.09717 0.0
H1623 H 0.24502 0.02576 0.12836 0.0
H1624 H 0.16277 0.05961 0.14924 0.0
H1625 H 0.22324 0.064 0.14018 0.0
H1626 H 0.18226 0.06797 0.10067 0.0
H1627 H 0.12415 0.06562 0.10959 0.0
C1628 C 0.29174 0.08433 0.0961 0.0
C1629 C 0.3075 0.06259 0.10209 0.0
C1630 C 0.25996 0.08591 0.10186 0.0
C1631 C 0.24261 0.06529 0.11368 0.0
C1632 C 0.2579 0.04275 0.11946 0.0
C1633 C 0.28999 0.0416 0.11378 0.0
C1634 C 0.16733 0.06233 0.13866 0.0
C1635 C 0.13841 0.06204 0.13018 0.0
C1636 C 0.2017 0.0643 0.13342 0.0
C1637 C 0.20781 0.06605 0.11961 0.0
C1638 C 0.17937 0.06725 0.1113 0.0
C1639 C 0.14555 0.06553 0.11649 0.0
H1640 H 0.87891 0.20251 0.10883 0.0
H1641 H 0.00298 0.27415 0.09926 0.0
H1642 H 0.89407 0.1635 0.12399 0.0
H1643 H 0.01817 0.23344 0.11387 0.0
H1644 H 0.04427 0.17094 0.14524 0.0
H1645 H 0.02457 0.21582 0.13531 0.0
H1646 H 0.91071 0.11479 0.12487 0.0
H1647 H 0.92999 0.07093 0.13553 0.0
C1648 C 0.90945 0.20943 0.10976 0.0
C1649 C 0.93971 0.24117 0.10268 0.0
C1650 C 0.9182 0.18697 0.11851 0.0
C1651 C 0.9574 0.19499 0.12026 0.0
C1652 C 0.9877 0.22672 0.11308 0.0
C1653 C 0.979 0.24979 0.10452 0.0
C1654 C 0.01428 0.15882 0.14145 0.0
C1655 C 0.98826 0.1177 0.14139 0.0
C1656 C 0.00327 0.18435 0.13544 0.0
C1657 C 0.96635 0.16909 0.12891 0.0
C1658 C 0.93924 0.12803 0.12983 0.0
C1659 C 0.95006 0.10269 0.13607 0.0
H1660 H 0.85441 0.73241 0.09869 0.0
H1661 H 0.75552 0.7506 0.10602 0.0
H1662 H 0.89813 0.79265 0.11099 0.0
H1663 H 0.79926 0.81051 0.11848 0.0
H1664 H 0.89993 0.94029 0.12292 0.0
H1665 H 0.85269 0.87629 0.11371 0.0
H1666 H 0.91415 0.82351 0.13323 0.0
H1667 H 0.96243 0.88875 0.14246 0.0
C1668 C 0.84189 0.74919 0.1029 0.0
C1669 C 0.80131 0.73663 0.10121 0.0
C1670 C 0.86698 0.78355 0.11012 0.0
C1671 C 0.85229 0.80642 0.1158 0.0
C1672 C 0.81173 0.79384 0.11415 0.0
C1673 C 0.7866 0.75945 0.10696 0.0
C1674 C 0.90321 0.915 0.12543 0.0
C1675 C 0.93519 0.9197 0.13334 0.0
C1676 C 0.87585 0.87812 0.12018 0.0
C1677 C 0.8796 0.84465 0.12263 0.0
C1678 C 0.91068 0.84884 0.13102 0.0
C1679 C 0.9381 0.88603 0.13642 0.0
H1680 H 0.10347 0.28156 0.42342 0.0
H1681 H 0.0184 0.29563 0.39975 0.0
H1682 H 0.07614 0.21414 0.41519 0.0
H1683 H 0.9915 0.22765 0.39125 0.0
H1684 H 0.01414 0.12077 0.37135 0.0
H1685 H 0.02718 0.1875 0.37739 0.0
H1686 H 1.00011 0.15037 0.41798 0.0
H1687 H 0.98664 0.08428 0.41206 0.0
C1688 C 0.07903 0.27038 0.41642 0.0
C1689 C 0.06303 0.29404 0.41231 0.0
C1690 C 0.06336 0.2317 0.41172 0.0
C1691 C 0.03171 0.21576 0.40261 0.0
C1692 C 0.01596 0.23937 0.39825 0.0
C1693 C 0.03121 0.27808 0.40318 0.0
C1694 C 0.00954 0.1265 0.38145 0.0
C1695 C 0.99989 0.0974 0.39126 0.0
C1696 C 0.01713 0.16467 0.38491 0.0
C1697 C 0.0152 0.17408 0.39819 0.0
C1698 C 1.00221 0.14397 0.40771 0.0
C1699 C 0.99446 0.1061 0.40428 0.0
H1700 H 0.7186 0.71476 0.38931 0.0
H1701 H 0.74535 0.77159 0.42751 0.0
H1702 H 0.78635 0.76096 0.38215 0.0
H1703 H 0.81248 0.81798 0.42035 0.0
H1704 H 0.93908 0.87787 0.40954 0.0
H1705 H 0.87415 0.82242 0.41498 0.0
H1706 H 0.83013 0.83079 0.37647 0.0
H1707 H 0.89604 0.88609 0.3709 0.0
C1708 C 0.73897 0.73698 0.39621 0.0
C1709 C 0.7265 0.73932 0.40902 0.0
C1710 C 0.77778 0.76365 0.39206 0.0
C1711 C 0.80518 0.79322 0.40066 0.0
C1712 C 0.79262 0.79521 0.4135 0.0
C1713 C 0.75392 0.76869 0.41762 0.0
C1714 C 0.91582 0.86731 0.4021 0.0
C1715 C 0.92271 0.88661 0.38982 0.0
C1716 C 0.87836 0.83573 0.40528 0.0
C1717 C 0.84641 0.82265 0.39632 0.0
C1718 C 0.85396 0.84002 0.38364 0.0
C1719 C 0.8918 0.87165 0.3804 0.0
H1720 H 0.3249 0.02185 0.38796 0.0
H1721 H 0.26847 0.98321 0.42588 0.0
H1722 H 0.27278 0.03586 0.38081 0.0
H1723 H 0.21652 0.99647 0.41875 0.0
H1724 H 0.14437 0.05098 0.40863 0.0
H1725 H 0.20473 0.04968 0.41376 0.0
H1726 H 0.20131 0.00217 0.375 0.0
H1727 H 0.14079 0.00462 0.36972 0.0
C1728 C 0.3016 0.01665 0.39481 0.0
C1729 C 0.30107 0.0016 0.40754 0.0
C1730 C 0.27154 0.0244 0.39067 0.0
C1731 C 0.2404 0.01759 0.3992 0.0
C1732 C 0.2403 0.0029 0.41196 0.0
C1733 C 0.27011 0.99505 0.41605 0.0
C1734 C 0.15691 0.04103 0.40107 0.0
C1735 C 0.13754 0.02755 0.3888 0.0
C1736 C 0.19141 0.03991 0.40407 0.0
C1737 C 0.20748 0.02476 0.39496 0.0
C1738 C 0.18979 0.01394 0.38229 0.0
C1739 C 0.15516 0.01543 0.37922 0.0
H1740 H 0.6984 0.88307 0.91531 0.0
H1741 H 0.73755 0.00836 0.91382 0.0
H1742 H 0.75599 0.89454 0.90295 0.0
H1743 H 0.79655 0.02 0.90164 0.0
H1744 H 0.88893 0.0247 0.87289 0.0
H1745 H 0.82283 0.0084 0.88077 0.0
H1746 H 0.82494 0.92414 0.90824 0.0
H1747 H 0.8899 0.94019 0.90031 0.0
C1748 C 0.71946 0.91325 0.91246 0.0
C1749 C 0.7135 0.94492 0.91581 0.0
C1750 C 0.75258 0.91976 0.90531 0.0
C1751 C 0.78113 0.9582 0.90138 0.0
C1752 C 0.7749 0.98993 0.90441 0.0
C1753 C 0.74134 0.98334 0.91152 0.0
C1754 C 0.87431 0.00164 0.88024 0.0
C1755 C 0.89396 0.98314 0.88587 0.0
C1756 C 0.8369 0.9928 0.88492 0.0
C1757 C 0.81865 0.96512 0.8952 0.0
C1758 C 0.8377 0.94518 0.90021 0.0
C1759 C 0.87491 0.95423 0.89564 0.0
H1760 H 0.15125 0.8442 0.91225 0.0
H1761 H 0.02719 0.75385 0.91208 0.0
H1762 H 0.13479 0.89039 0.90163 0.0
H1763 H 0.01087 0.80049 0.90143 0.0
H1764 H 1.00171 0.91548 0.90388 0.0
H1765 H 0.01505 0.86307 0.91006 0.0
H1766 H 0.10579 0.90296 0.8803 0.0
H1767 H 0.09188 0.95601 0.87389 0.0
C1768 C 0.12042 0.83409 0.90994 0.0
C1769 C 0.09044 0.79536 0.91321 0.0
C1770 C 0.11114 0.8605 0.90367 0.0
C1771 C 0.07161 0.84906 0.90066 0.0
C1772 C 0.04164 0.81015 0.90367 0.0
C1773 C 0.05097 0.78348 0.9098 0.0
C1774 C 0.02436 0.91304 0.89854 0.0
C1775 C 0.04616 0.94022 0.88851 0.0
C1776 C 0.0317 0.88267 0.90202 0.0
C1777 C 0.06142 0.87885 0.89568 0.0
C1778 C 0.08275 0.90536 0.88538 0.0
C1779 C 0.0748 0.93558 0.88169 0.0
H1780 H 0.25163 0.29737 0.92859 0.0
H1781 H 0.28986 0.33447 0.88855 0.0
H1782 H 0.19334 0.23795 0.92029 0.0
H1783 H 0.23062 0.27631 0.88019 0.0
H1784 H 0.13522 0.14651 0.87048 0.0
H1785 H 0.19529 0.20743 0.87714 0.0
H1786 H 0.13241 0.21901 0.91025 0.0
H1787 H 0.07362 0.15718 0.90396 0.0
C1788 C 0.24763 0.29271 0.91801 0.0
C1789 C 0.27533 0.32056 0.90925 0.0
C1790 C 0.2139 0.25891 0.91321 0.0
C1791 C 0.20661 0.25254 0.89951 0.0
C1792 C 0.23515 0.27989 0.89077 0.0
C1793 C 0.26921 0.31334 0.89559 0.0
C1794 C 0.13418 0.16277 0.87897 0.0
C1795 C 0.09998 0.14723 0.88674 0.0
C1796 C 0.16864 0.19761 0.88286 0.0
C1797 C 0.1692 0.21779 0.89447 0.0
C1798 C 0.13374 0.20363 0.90156 0.0
C1799 C 0.09975 0.16855 0.89783 0.0
H1800 H 0.95853 0.73383 0.58563 0.0
H1801 H 0.0211 0.737 0.62149 0.0
H1802 H 0.96115 0.79537 0.59212 0.0
H1803 H 0.02447 0.79884 0.62784 0.0
H1804 H 0.98435 0.88388 0.6423 0.0
H1805 H 0.98037 0.82189 0.63541 0.0
H1806 H 0.00609 0.86509 0.59528 0.0
H1807 H 0.00906 0.92612 0.60202 0.0
C1808 C 0.97354 0.74807 0.59476 0.0
C1809 C 0.98959 0.73055 0.60304 0.0
C1810 C 0.97497 0.7833 0.59851 0.0
C1811 C 0.9926 0.80179 0.6106 0.0
C1812 C 0.00989 0.78492 0.61862 0.0
C1813 C 0.00838 0.74972 0.61489 0.0
C1814 C 0.98875 0.87996 0.632 0.0
C1815 C 0.9971 0.91007 0.62274 0.0
C1816 C 0.98682 0.84458 0.62806 0.0
C1817 C 0.99316 0.83862 0.61479 0.0
C1818 C 1.00065 0.86844 0.60553 0.0
C1819 C 0.00254 0.90361 0.60945 0.0
H1820 H 0.32424 0.29357 0.62633 0.0
H1821 H 0.29145 0.24725 0.58667 0.0
H1822 H 0.2619 0.23899 0.63458 0.0
H1823 H 0.22911 0.19263 0.59496 0.0
H1824 H 0.10463 0.13321 0.61148 0.0
H1825 H 0.16822 0.18662 0.60454 0.0
H1826 H 0.22492 0.16367 0.63753 0.0
H1827 H 0.16005 0.10899 0.64466 0.0
C1828 C 0.30363 0.27187 0.61935 0.0
C1829 C 0.31267 0.27501 0.60579 0.0
C1830 C 0.26812 0.24035 0.62413 0.0
C1831 C 0.24059 0.21144 0.61546 0.0
C1832 C 0.24959 0.21463 0.6019 0.0
C1833 C 0.28526 0.24596 0.59713 0.0
C1834 C 0.13042 0.13918 0.61736 0.0
C1835 C 0.12701 0.11631 0.62863 0.0
C1836 C 0.16707 0.16988 0.61327 0.0
C1837 C 0.20173 0.17907 0.62033 0.0
C1838 C 0.19862 0.15719 0.63186 0.0
C1839 C 0.16155 0.12591 0.63595 0.0
H1840 H 0.83501 0.13126 0.60081 0.0
H1841 H 0.73361 0.02304 0.61467 0.0
H1842 H 0.87869 0.11703 0.61405 0.0
H1843 H 0.77762 0.00916 0.62811 0.0
H1844 H 0.87842 0.97622 0.63052 0.0
H1845 H 0.82676 0.99011 0.62359 0.0
H1846 H 0.89919 0.1115 0.63667 0.0
H1847 H 0.95142 0.0972 0.64357 0.0
C1848 C 0.82192 0.10443 0.6067 0.0
C1849 C 0.78067 0.07811 0.60653 0.0
C1850 C 0.84703 0.0966 0.61446 0.0
C1851 C 0.83166 0.06221 0.62228 0.0
C1852 C 0.79043 0.03591 0.62218 0.0
C1853 C 0.76522 0.04376 0.61441 0.0
C1854 C 0.88262 0.00547 0.63238 0.0
C1855 C 0.91878 0.03572 0.63751 0.0
C1856 C 0.853 0.01348 0.6284 0.0
C1857 C 0.8591 0.05209 0.62934 0.0
C1858 C 0.89394 0.08158 0.63561 0.0
C1859 C 0.92359 0.07337 0.63974 0.0
H1860 H 0.99316 0.38979 0.45654 0.0
H1861 H 0.94682 0.38628 0.41735 0.0
H1862 H 0.9386 0.3939 0.46605 0.0
H1863 H 0.89019 0.38765 0.4269 0.0
H1864 H 0.81028 0.42463 0.44549 0.0
H1865 H 0.86982 0.42724 0.43706 0.0
H1866 H 0.87276 0.36167 0.47127 0.0
H1867 H 0.81474 0.36165 0.48001 0.0
C1868 C 0.9707 0.38897 0.44994 0.0
C1869 C 0.97425 0.38755 0.43617 0.0
C1870 C 0.93915 0.39122 0.45543 0.0
C1871 C 0.90966 0.39128 0.44733 0.0
C1872 C 0.91269 0.38871 0.43352 0.0
C1873 C 0.94487 0.38734 0.428 0.0
C1874 C 0.82446 0.41181 0.45136 0.0
C1875 C 0.8081 0.39317 0.46344 0.0
C1876 C 0.85822 0.41261 0.44641 0.0
C1877 C 0.87595 0.39387 0.45327 0.0
C1878 C 0.86046 0.37681 0.4657 0.0
C1879 C 0.82717 0.37686 0.47078 0.0
H1880 H 0.67296 0.60324 0.43676 0.0
H1881 H 0.54673 0.52935 0.44275 0.0
H1882 H 0.68441 0.55834 0.45085 0.0
H1883 H 0.5582 0.48591 0.45694 0.0
H1884 H 0.59321 0.38864 0.4597 0.0
H1885 H 0.57874 0.43868 0.45147 0.0
H1886 H 0.67865 0.52877 0.47359 0.0
H1887 H 0.69304 0.47775 0.48188 0.0
C1888 C 0.6478 0.57774 0.44114 0.0
C1889 C 0.60894 0.56926 0.43831 0.0
C1890 C 0.65433 0.55232 0.44933 0.0
C1891 C 0.62211 0.51837 0.4549 0.0
C1892 C 0.58357 0.51133 0.4526 0.0
C1893 C 0.57706 0.53622 0.44437 0.0
C1894 C 0.61109 0.41888 0.46321 0.0
C1895 C 0.64395 0.42946 0.47147 0.0
C1896 C 0.60297 0.44766 0.45847 0.0
C1897 C 0.62781 0.48781 0.46178 0.0
C1898 C 0.65928 0.4981 0.47077 0.0
C1899 C 0.66712 0.46895 0.47568 0.0
H1900 H 0.50872 0.03457 0.4456 0.0
H1901 H 0.44271 0.09317 0.43557 0.0
H1902 H 0.55206 0.08926 0.45992 0.0
H1903 H 0.48736 0.14918 0.44985 0.0
H1904 H 0.56643 0.23858 0.48095 0.0
H1905 H 0.51415 0.17378 0.47275 0.0
H1906 H 0.60355 0.1559 0.45427 0.0
H1907 H 0.65501 0.22015 0.46243 0.0
C1908 C 0.50349 0.0593 0.44644 0.0
C1909 C 0.4729 0.06007 0.43917 0.0
C1910 C 0.52833 0.0906 0.45471 0.0
C1911 C 0.52361 0.12384 0.45587 0.0
C1912 C 0.49163 0.12382 0.4492 0.0
C1913 C 0.46626 0.092 0.44096 0.0
C1914 C 0.57472 0.21977 0.47563 0.0
C1915 C 0.61457 0.23365 0.4725 0.0
C1916 C 0.54487 0.18313 0.47075 0.0
C1917 C 0.55465 0.15984 0.46278 0.0
C1918 C 0.59493 0.1728 0.4605 0.0
C1919 C 0.62452 0.20945 0.46524 0.0
H1920 H 0.82607 0.66969 0.75394 0.0
H1921 H 0.70859 0.64137 0.74103 0.0
H1922 H 0.81797 0.61103 0.74316 0.0
H1923 H 0.69999 0.58082 0.73046 0.0
H1924 H 0.71133 0.48813 0.70473 0.0
H1925 H 0.72365 0.55347 0.71229 0.0
H1926 H 0.78046 0.54185 0.74754 0.0
H1927 H 0.76892 0.4781 0.73997 0.0
C1928 C 0.79816 0.65076 0.74893 0.0
C1929 C 0.76774 0.66033 0.74857 0.0
C1930 C 0.79358 0.61689 0.7427 0.0
C1931 C 0.75824 0.5909 0.736 0.0
C1932 C 0.72777 0.60041 0.73544 0.0
C1933 C 0.73248 0.63482 0.74165 0.0
C1934 C 0.72748 0.50031 0.71388 0.0
C1935 C 0.73932 0.47812 0.72174 0.0
C1936 C 0.73394 0.53734 0.71832 0.0
C1937 C 0.75282 0.55288 0.73058 0.0
C1938 C 0.76623 0.53125 0.73801 0.0
C1939 C 0.75961 0.49455 0.73366 0.0
H1940 H 0.41656 0.13754 0.76528 0.0
H1941 H 0.38044 0.09535 0.72537 0.0
H1942 H 0.47682 0.19455 0.75685 0.0
H1943 H 0.43862 0.15303 0.71689 0.0
H1944 H 0.56712 0.24259 0.70617 0.0
H1945 H 0.50559 0.18546 0.71362 0.0
H1946 H 0.50166 0.2548 0.74625 0.0
H1947 H 0.56454 0.31067 0.73919 0.0
C1948 C 0.42154 0.14041 0.75473 0.0
C1949 C 0.39385 0.11174 0.74604 0.0
C1950 C 0.45582 0.17343 0.74982 0.0
C1951 C 0.46277 0.17901 0.73609 0.0
C1952 C 0.43506 0.14984 0.72749 0.0
C1953 C 0.40139 0.11658 0.73239 0.0
C1954 C 0.55238 0.24577 0.71471 0.0
C1955 C 0.57039 0.28099 0.72207 0.0
C1956 C 0.5171 0.21292 0.71908 0.0
C1957 C 0.49863 0.21491 0.73076 0.0
C1958 C 0.51543 0.25139 0.7375 0.0
C1959 C 0.5511 0.2838 0.73331 0.0
H1960 H 0.95973 0.31895 0.72171 0.0
H1961 H 0.91794 0.31116 0.76156 0.0
H1962 H 0.90009 0.3161 0.7131 0.0
H1963 H 0.85885 0.31054 0.75299 0.0
H1964 H 0.74039 0.27356 0.73564 0.0
H1965 H 0.79875 0.26999 0.74223 0.0
H1966 H 0.86404 0.34824 0.70998 0.0
H1967 H 0.80458 0.34967 0.70303 0.0
C1968 C 0.93813 0.3175 0.72868 0.0
C1969 C 0.94365 0.31526 0.74236 0.0
C1970 C 0.90377 0.31591 0.72371 0.0
C1971 C 0.87408 0.31259 0.73227 0.0
C1972 C 0.88039 0.31194 0.74601 0.0
C1973 C 0.9146 0.31291 0.75099 0.0
C1974 C 0.7669 0.28882 0.7297 0.0
C1975 C 0.76797 0.31174 0.7188 0.0
C1976 C 0.80069 0.28751 0.73364 0.0
C1977 C 0.83677 0.30984 0.72694 0.0
C1978 C 0.83696 0.33056 0.71543 0.0
C1979 C 0.80277 0.33121 0.71134 0.0
H1980 H 0.40967 0.3554 0.24734 0.0
H1981 H 0.39496 0.23783 0.2499 0.0
H1982 H 0.46641 0.37537 0.23265 0.0
H1983 H 0.45068 0.25767 0.23548 0.0
H1984 H 0.53809 0.29026 0.20406 0.0
H1985 H 0.4741 0.2778 0.21256 0.0
H1986 H 0.53419 0.38488 0.23591 0.0
H1987 H 0.59753 0.39738 0.22739 0.0
C1988 C 0.41838 0.33388 0.24479 0.0
C1989 C 0.39792 0.29518 0.24996 0.0
C1990 C 0.45068 0.34522 0.23634 0.0
C1991 C 0.46264 0.31789 0.23276 0.0
C1992 C 0.44173 0.27919 0.23777 0.0
C1993 C 0.41002 0.26805 0.24626 0.0
C1994 C 0.53738 0.31164 0.21069 0.0
C1995 C 0.5727 0.34428 0.21529 0.0
C1996 C 0.50087 0.30447 0.21562 0.0
C1997 C 0.49924 0.33007 0.22508 0.0
C1998 C 0.53437 0.36467 0.22863 0.0
C1999 C 0.5707 0.37161 0.22383 0.0
H2000 H 0.80557 0.18461 0.24979 0.0
H2001 H 0.69071 0.07924 0.24461 0.0
H2002 H 0.78466 0.22176 0.23593 0.0
H2003 H 0.66988 0.11687 0.23052 0.0
H2004 H 0.63777 0.21784 0.22546 0.0
H2005 H 0.65519 0.17032 0.23419 0.0
H2006 H 0.76623 0.22985 0.21325 0.0
H2007 H 0.74877 0.27808 0.20457 0.0
C2008 C 0.77583 0.16919 0.24566 0.0
C2009 C 0.7497 0.12884 0.24847 0.0
C2010 C 0.76404 0.19052 0.23753 0.0
C2011 C 0.72573 0.17226 0.232 0.0
C2012 C 0.69961 0.13182 0.23466 0.0
C2013 C 0.71151 0.11029 0.24276 0.0
C2014 C 0.66556 0.22032 0.22247 0.0
C2015 C 0.6922 0.25203 0.21449 0.0
C2016 C 0.67543 0.19287 0.22743 0.0
C2017 C 0.71233 0.19658 0.22458 0.0
C2018 C 0.7378 0.22659 0.21578 0.0
C2019 C 0.72771 0.25399 0.21071 0.0
H2020 H 0.90866 0.6087 0.25999 0.0
H2021 H 0.95352 0.65663 0.22129 0.0
H2022 H 0.8589 0.54653 0.24985 0.0
H2023 H 0.90329 0.59432 0.21116 0.0
H2024 H 0.76776 0.49212 0.20247 0.0
H2025 H 0.82457 0.55538 0.20987 0.0
H2026 H 0.86093 0.49195 0.2363 0.0
H2027 H 0.8052 0.42949 0.22896 0.0
C2028 C 0.90811 0.6058 0.24934 0.0
C2029 C 0.93503 0.63733 0.24143 0.0
C2030 C 0.8797 0.57029 0.24354 0.0
C2031 C 0.87738 0.56585 0.22974 0.0
C2032 C 0.90443 0.59723 0.22181 0.0
C2033 C 0.9333 0.63262 0.22763 0.0
C2034 C 0.7884 0.49181 0.20964 0.0
C2035 C 0.7817 0.45599 0.21529 0.0
C2036 C 0.82078 0.52786 0.21387 0.0
C2037 C 0.84655 0.52831 0.2238 0.0
C2038 C 0.84103 0.49237 0.22882 0.0
C2039 C 0.80908 0.45664 0.22459 0.0
H2040 H 0.66087 0.05153 0.96264 0.0
H2041 H 0.63986 0.08227 0.92352 0.0
H2042 H 0.66872 0.11371 0.97125 0.0
H2043 H 0.64736 0.14401 0.93212 0.0
H2044 H 0.70726 0.26803 0.94742 0.0
H2045 H 0.70178 0.20588 0.94107 0.0
H2046 H 0.62914 0.14897 0.97513 0.0
H2047 H 0.63499 0.2127 0.98173 0.0
C2048 C 0.65831 0.07172 0.95584 0.0
C2049 C 0.65018 0.06214 0.94233 0.0
C2050 C 0.66232 0.10708 0.96083 0.0
C2051 C 0.65865 0.1338 0.9524 0.0
C2052 C 0.65082 0.12428 0.93888 0.0
C2053 C 0.64659 0.08891 0.93392 0.0
C2054 C 0.68999 0.24243 0.95365 0.0
C2055 C 0.6708 0.24522 0.96496 0.0
C2056 C 0.68682 0.20665 0.94994 0.0
C2057 C 0.66427 0.17224 0.95738 0.0
C2058 C 0.6466 0.17507 0.96914 0.0
C2059 C 0.64988 0.21141 0.97293 0.0
H2060 H 0.99435 0.62383 0.95821 0.0
H2061 H 0.95005 0.59553 0.91818 0.0
H2062 H 0.93327 0.56824 0.96632 0.0
H2063 H 0.88742 0.54139 0.92629 0.0
H2064 H 0.7957 0.42288 0.94152 0.0
H2065 H 0.85838 0.47841 0.9344 0.0
H2066 H 0.86718 0.53926 0.97105 0.0
H2067 H 0.8055 0.48177 0.97847 0.0
C2068 C 0.97104 0.60622 0.95115 0.0
C2069 C 0.97705 0.61402 0.93753 0.0
C2070 C 0.93575 0.57424 0.95582 0.0
C2071 C 0.90504 0.5496 0.94703 0.0
C2072 C 0.91059 0.55867 0.93341 0.0
C2073 C 0.94635 0.59011 0.92871 0.0
C2074 C 0.8115 0.44794 0.94813 0.0
C2075 C 0.79592 0.44805 0.96055 0.0
C2076 C 0.84723 0.48021 0.94396 0.0
C2077 C 0.86792 0.51417 0.95196 0.0
C2078 C 0.85263 0.51373 0.9646 0.0
C2079 C 0.81722 0.48079 0.96891 0.0
H2080 H 0.51127 0.48269 0.93301 0.0
H2081 H 0.408 0.36958 0.94206 0.0
H2082 H 0.55234 0.46484 0.94625 0.0
H2083 H 0.44931 0.35204 0.95549 0.0
H2084 H 0.54953 0.31926 0.95886 0.0
H2085 H 0.50037 0.3356 0.95099 0.0
H2086 H 0.56732 0.4517 0.96884 0.0
H2087 H 0.61713 0.43501 0.97669 0.0
C2088 C 0.4972 0.45402 0.93784 0.0
C2089 C 0.45624 0.42743 0.93632 0.0
C2090 C 0.52078 0.44403 0.9456 0.0
C2091 C 0.50411 0.40717 0.95204 0.0
C2092 C 0.46312 0.38064 0.95062 0.0
C2093 C 0.43947 0.39065 0.94286 0.0
C2094 C 0.55309 0.34784 0.96147 0.0
C2095 C 0.5871 0.37596 0.96833 0.0
C2096 C 0.52485 0.35721 0.95697 0.0
C2097 C 0.53014 0.39515 0.95912 0.0
C2098 C 0.56274 0.42238 0.96687 0.0
C2099 C 0.59096 0.41275 0.97152 0.0
H2100 H 0.66384 0.72495 0.79069 0.0
H2101 H 0.62629 0.73436 0.75124 0.0
H2102 H 0.60584 0.72378 0.79974 0.0
H2103 H 0.5668 0.73108 0.76023 0.0
H2104 H 0.48578 0.76615 0.77906 0.0
H2105 H 0.54649 0.7695 0.77156 0.0
H2106 H 0.53751 0.69021 0.80312 0.0
H2107 H 0.47758 0.68888 0.81098 0.0
C2108 C 0.64269 0.72589 0.78389 0.0
C2109 C 0.64989 0.72989 0.7702 0.0
C2110 C 0.60918 0.72512 0.78912 0.0
C2111 C 0.58151 0.72788 0.78082 0.0
C2112 C 0.58786 0.73004 0.76704 0.0
C2113 C 0.62174 0.73134 0.76181 0.0
C2114 C 0.49757 0.75043 0.78462 0.0
C2115 C 0.47732 0.72767 0.79569 0.0
C2116 C 0.53199 0.75164 0.78016 0.0
C2117 C 0.54672 0.7293 0.78646 0.0
C2118 C 0.52741 0.70801 0.79799 0.0
C2119 C 0.49316 0.70739 0.80259 0.0
H2120 H 0.22835 0.87287 0.76514 0.0
H2121 H 0.34086 0.97379 0.77666 0.0
H2122 H 0.24514 0.82902 0.77721 0.0
H2123 H 0.3573 0.92974 0.78889 0.0
H2124 H 0.39117 0.83061 0.78956 0.0
H2125 H 0.37404 0.87988 0.7826 0.0
H2126 H 0.25745 0.80919 0.79937 0.0
H2127 H 0.275 0.75923 0.80638 0.0
C2128 C 0.25664 0.88583 0.77027 0.0
C2129 C 0.28343 0.927 0.76975 0.0
C2130 C 0.26601 0.86062 0.77736 0.0
C2131 C 0.30248 0.87581 0.78408 0.0
C2132 C 0.32904 0.91701 0.78374 0.0
C2133 C 0.31964 0.94227 0.77669 0.0
C2134 C 0.36217 0.82602 0.79206 0.0
C2135 C 0.33431 0.79105 0.79844 0.0
C2136 C 0.35239 0.85439 0.78811 0.0
C2137 C 0.31425 0.8484 0.7903 0.0
C2138 C 0.28696 0.81443 0.7974 0.0
C2139 C 0.29706 0.78606 0.80154 0.0
H2140 H 0.08718 0.41394 0.76755 0.0
H2141 H 0.18341 0.38968 0.76361 0.0
H2142 H 0.13214 0.47623 0.7788 0.0
H2143 H 0.22802 0.45175 0.77483 0.0
H2144 H 0.29096 0.55272 0.80509 0.0
H2145 H 0.2409 0.48652 0.79703 0.0
H2146 H 0.19045 0.5401 0.77191 0.0
H2147 H 0.23993 0.60537 0.7798 0.0
C2148 C 0.11784 0.42182 0.76905 0.0
C2149 C 0.13161 0.39681 0.76452 0.0
C2150 C 0.1436 0.45749 0.77553 0.0
C2151 C 0.18363 0.46884 0.77778 0.0
C2152 C 0.19726 0.44364 0.77342 0.0
C2153 C 0.17169 0.40823 0.76682 0.0
C2154 C 0.26876 0.55012 0.798 0.0
C2155 C 0.2696 0.58423 0.79299 0.0
C2156 C 0.2403 0.51235 0.79332 0.0
C2157 C 0.21178 0.50809 0.78377 0.0
C2158 C 0.21169 0.5422 0.77931 0.0
C2159 C 0.2403 0.57968 0.78379 0.0
H2160 H 0.47621 0.99582 0.07708 0.0
H2161 H 0.35262 0.96347 0.07627 0.0
H2162 H 0.45954 0.93363 0.06631 0.0
H2163 H 0.33602 0.90094 0.0654 0.0
H2164 H 0.32496 0.77586 0.06856 0.0
H2165 H 0.33789 0.84183 0.07404 0.0
H2166 H 0.43233 0.89216 0.0455 0.0
H2167 H 0.41905 0.8251 0.03988 0.0
C2168 C 0.44544 0.97557 0.07453 0.0
C2169 C 0.41563 0.98444 0.07775 0.0
C2170 C 0.43603 0.9401 0.06819 0.0
C2171 C 0.39651 0.91237 0.065 0.0
C2172 C 0.36677 0.92171 0.0678 0.0
C2173 C 0.37625 0.95749 0.07404 0.0
C2174 C 0.34829 0.8009 0.06333 0.0
C2175 C 0.37138 0.79535 0.05391 0.0
C2176 C 0.35539 0.83874 0.06639 0.0
C2177 C 0.38609 0.87223 0.06022 0.0
C2178 C 0.40852 0.8668 0.05045 0.0
C2179 C 0.40091 0.82854 0.0472 0.0
H2180 H 0.07455 0.44738 0.0942 0.0
H2181 H 0.03672 0.40442 0.05445 0.0
H2182 H 0.13439 0.50407 0.08557 0.0
H2183 H 0.09561 0.46191 0.04574 0.0
H2184 H 0.22751 0.55424 0.03639 0.0
H2185 H 0.16546 0.49561 0.04315 0.0
H2186 H 0.15357 0.56399 0.07447 0.0
H2187 H 0.21616 0.62135 0.06806 0.0
C2188 C 0.07911 0.44994 0.08362 0.0
C2189 C 0.05084 0.42139 0.07504 0.0
C2190 C 0.1132 0.48276 0.07862 0.0
C2191 C 0.11964 0.48819 0.06489 0.0
C2192 C 0.09192 0.45881 0.05635 0.0
C2193 C 0.05804 0.42577 0.06136 0.0
C2194 C 0.21083 0.55679 0.04445 0.0
C2195 C 0.22636 0.59218 0.05169 0.0
C2196 C 0.17542 0.52319 0.04842 0.0
C2197 C 0.15485 0.52463 0.05961 0.0
C2198 C 0.16914 0.56119 0.06612 0.0
C2199 C 0.20464 0.59435 0.0623 0.0
H2200 H 0.59569 0.66559 0.09555 0.0
H2201 H 0.62687 0.65608 0.05548 0.0
H2202 H 0.53622 0.66488 0.0875 0.0
H2203 H 0.56641 0.65316 0.04742 0.0
H2204 H 0.46768 0.68208 0.03675 0.0
H2205 H 0.52955 0.6846 0.04333 0.0
H2206 H 0.4737 0.62085 0.07916 0.0
H2207 H 0.41323 0.62056 0.07287 0.0
C2208 C 0.58992 0.66355 0.08501 0.0
C2209 C 0.61604 0.66092 0.07618 0.0
C2210 C 0.55545 0.66255 0.08036 0.0
C2211 C 0.54573 0.65806 0.06677 0.0
C2212 C 0.57274 0.65687 0.05792 0.0
C2213 C 0.60754 0.65853 0.06256 0.0
C2214 C 0.46859 0.66792 0.04588 0.0
C2215 C 0.43578 0.65123 0.05432 0.0
C2216 C 0.50411 0.66947 0.04972 0.0
C2217 C 0.50724 0.65382 0.06199 0.0
C2218 C 0.4732 0.63461 0.0699 0.0
C2219 C 0.43818 0.63378 0.06619 0.0
H2220 H 0.06291 0.66873 0.57265 0.0
H2221 H 0.06729 0.56827 0.58904 0.0
H2222 H 0.11659 0.68118 0.55772 0.0
H2223 H 0.12147 0.58129 0.57428 0.0
H2224 H 0.20344 0.59614 0.54142 0.0
H2225 H 0.13982 0.58051 0.55127 0.0
H2226 H 0.18646 0.70509 0.55932 0.0
H2227 H 0.24908 0.72022 0.54943 0.0
C2228 C 0.07547 0.64946 0.57318 0.0
C2229 C 0.0608 0.61765 0.58218 0.0
C2230 C 0.10623 0.65654 0.56456 0.0
C2231 C 0.12324 0.63207 0.56469 0.0
C2232 C 0.10857 0.60026 0.57368 0.0
C2233 C 0.0778 0.59315 0.5823 0.0
C2234 C 0.19923 0.62015 0.54477 0.0
C2235 C 0.23087 0.65937 0.54459 0.0
C2236 C 0.16315 0.61124 0.55063 0.0
C2237 C 0.1582 0.64149 0.55631 0.0
C2238 C 0.18892 0.68102 0.55501 0.0
C2239 C 0.22484 0.68978 0.54928 0.0
H2240 H 0.36086 0.40924 0.57436 0.0
H2241 H 0.46853 0.51331 0.58753 0.0
H2242 H 0.34426 0.45123 0.56097 0.0
H2243 H 0.45158 0.55505 0.57429 0.0
H2244 H 0.42785 0.61983 0.54157 0.0
H2245 H 0.44481 0.5721 0.55121 0.0
H2246 H 0.32405 0.50002 0.56447 0.0
H2247 H 0.30735 0.547 0.55483 0.0
C2248 C 0.3808 0.44104 0.57454 0.0
C2249 C 0.41595 0.45775 0.58213 0.0
C2250 C 0.37135 0.46512 0.5668 0.0
C2251 C 0.39683 0.50651 0.56643 0.0
C2252 C 0.43173 0.52324 0.57411 0.0
C2253 C 0.44113 0.49923 0.58187 0.0
C2254 C 0.40484 0.59318 0.54622 0.0
C2255 C 0.36642 0.58726 0.54756 0.0
C2256 C 0.41457 0.56611 0.55188 0.0
C2257 C 0.38588 0.5325 0.55879 0.0
C2258 C 0.34685 0.52536 0.55921 0.0
C2259 C 0.3373 0.55243 0.5537 0.0
H2260 H 0.55932 0.95485 0.59839 0.0
H2261 H 0.62619 0.97074 0.56286 0.0
H2262 H 0.50315 0.89575 0.5888 0.0
H2263 H 0.57044 0.91133 0.55338 0.0
H2264 H 0.44829 0.82219 0.53549 0.0
H2265 H 0.50269 0.88458 0.54458 0.0
H2266 H 0.48504 0.82952 0.58296 0.0
H2267 H 0.43124 0.7688 0.57418 0.0
C2268 C 0.5623 0.94533 0.58864 0.0
C2269 C 0.59734 0.96734 0.58146 0.0
C2270 C 0.53005 0.91155 0.58309 0.0
C2271 C 0.53213 0.89887 0.57025 0.0
C2272 C 0.56747 0.9206 0.56317 0.0
C2273 C 0.59965 0.95437 0.56871 0.0
C2274 C 0.45592 0.82374 0.54587 0.0
C2275 C 0.43542 0.79038 0.55404 0.0
C2276 C 0.4872 0.8593 0.55108 0.0
C2277 C 0.49823 0.86211 0.56454 0.0
C2278 C 0.47713 0.82884 0.57264 0.0
C2279 C 0.4463 0.7937 0.5675 0.0
H2280 H 0.2836 0.39804 0.2692 0.0
H2281 H 0.3682 0.39753 0.29695 0.0
H2282 H 0.2926 0.45913 0.27917 0.0
H2283 H 0.37788 0.45938 0.30673 0.0
H2284 H 0.4124 0.59797 0.3044 0.0
H2285 H 0.40494 0.53343 0.29857 0.0
H2286 H 0.27802 0.47908 0.30229 0.0
H2287 H 0.28576 0.54343 0.30845 0.0
C2288 C 0.30446 0.41118 0.27733 0.0
C2289 C 0.32526 0.3929 0.28224 0.0
C2290 C 0.30931 0.44599 0.28314 0.0
C2291 C 0.33564 0.46388 0.29384 0.0
C2292 C 0.3573 0.44625 0.29853 0.0
C2293 C 0.3518 0.4109 0.2929 0.0
C2294 C 0.38314 0.57181 0.3046 0.0
C2295 C 0.34973 0.57544 0.3072 0.0
C2296 C 0.3788 0.53495 0.30113 0.0
C2297 C 0.34084 0.50126 0.29979 0.0
C2298 C 0.30762 0.50455 0.30313 0.0
C2299 C 0.31205 0.54122 0.30686 0.0
H2300 H 0.6447 0.98071 0.29506 0.0
H2301 H 0.63893 0.91699 0.25956 0.0
H2302 H 0.57954 0.92632 0.30157 0.0
H2303 H 0.57492 0.86244 0.26619 0.0
H2304 H 0.44564 0.78681 0.27367 0.0
H2305 H 0.50817 0.84488 0.26823 0.0
H2306 H 0.54397 0.85828 0.30929 0.0
H2307 H 0.47981 0.80012 0.31486 0.0
C2308 C 0.62949 0.95518 0.28862 0.0
C2309 C 0.64695 0.95342 0.27672 0.0
C2310 C 0.59226 0.92379 0.29242 0.0
C2311 C 0.5716 0.88984 0.28442 0.0
C2312 C 0.5893 0.8883 0.27252 0.0
C2313 C 0.62626 0.91964 0.26871 0.0
C2314 C 0.46667 0.80205 0.28161 0.0
C2315 C 0.45778 0.78832 0.29471 0.0
C2316 C 0.50286 0.83541 0.27845 0.0
C2317 C 0.53177 0.85607 0.28824 0.0
C2318 C 0.52247 0.84324 0.30146 0.0
C2319 C 0.48577 0.80979 0.30467 0.0
H2320 H 0.0661 0.67823 0.26516 0.0
H2321 H 0.15114 0.79775 0.27732 0.0
H2322 H 0.1106 0.65538 0.27344 0.0
H2323 H 0.19507 0.77477 0.28568 0.0
H2324 H 0.24809 0.71384 0.30996 0.0
H2325 H 0.19596 0.7285 0.3038 0.0
H2326 H 0.1805 0.66943 0.26642 0.0
H2327 H 0.23297 0.65511 0.27246 0.0
C2328 C 0.09404 0.69952 0.26971 0.0
C2329 C 0.10515 0.73984 0.27053 0.0
C2330 C 0.11952 0.68645 0.27439 0.0
C2331 C 0.15619 0.71329 0.28024 0.0
C2332 C 0.16681 0.75336 0.28135 0.0
C2333 C 0.14175 0.76653 0.27647 0.0
C2334 C 0.23319 0.70342 0.30051 0.0
C2335 C 0.2449 0.68357 0.29165 0.0
C2336 C 0.20349 0.712 0.29697 0.0
C2337 C 0.1844 0.70031 0.2846 0.0
C2338 C 0.19459 0.67862 0.27604 0.0
C2339 C 0.22474 0.67058 0.27949 0.0
loop_
_geom_bond_atom_site_label_1
_geom_bond_atom_site_label_2
_geom_bond_distance
_geom_bond_site_symmetry_2
_ccdc_geom_bond_type
Mn0 O5 2.095 . S
Mn0 O15 2.162 1_545 S
Mn0 O16 2.297 1_545 S
Mn0 O24 2.385 1_545 S
Mn0 O25 2.209 . S
Mn0 O26 2.094 1_545 S
Mn1 O6 2.121 . S
Mn1 N8 2.257 . S
Mn1 N17 2.282 . S
Mn1 O25 2.215 . S
Mn1 O27 2.117 . S
C2 O24 1.234 1_545 S
C2 O25 1.283 . S
C3 O15 1.281 . S
C3 O16 1.236 . S
C4 O26 1.240 1_545 S
C4 O27 1.264 . S
O5 Mn0 2.095 . S
O5 C14 1.250 . S
O6 Mn1 2.121 . S
O6 C14 1.258 . S
C7 N8 1.326 . S
C7 C11 1.460 . S
C7 H13 0.929 . S
N8 Mn1 2.257 . S
N8 C7 1.326 . S
N8 C12 1.362 . S
C9 C10 1.258 . S
C9 C12 1.431 . S
C9 C29 1.449 . S
C10 C9 1.258 . S
C10 C11 1.477 . S
C10 H30 0.931 . S
C11 C7 1.460 . S
C11 C10 1.477 . S
C11 H31 0.930 . S
C12 N8 1.362 . S
C12 C9 1.431 . S
C12 C22 1.476 . S
H13 C7 0.929 . S
C14 O5 1.250 . S
C14 O6 1.258 . S
O15 Mn0 2.162 1_565 S
O15 C3 1.281 . S
O16 Mn0 2.297 1_565 S
O16 C3 1.236 . S
N17 Mn1 2.282 . S
N17 C18 1.328 . S
N17 C22 1.318 . S
C18 N17 1.328 . S
C18 C19 1.457 . S
C18 H23 0.929 . S
C19 C18 1.457 . S
C19 C20 1.291 . S
C19 H32 0.931 . S
C20 C19 1.291 . S
C20 C21 1.373 . S
C20 H33 0.929 . S
C21 C20 1.373 . S
C21 C22 1.396 . S
C21 C28 1.403 . S
C22 C12 1.476 . S
C22 N17 1.318 . S
C22 C21 1.396 . S
H23 C18 0.929 . S
O24 Mn0 2.385 1_565 S
O24 C2 1.234 1_565 S
O25 Mn0 2.209 . S
O25 Mn1 2.215 . S
O25 C2 1.283 . S
O26 Mn0 2.094 1_565 S
O26 C4 1.240 1_565 S
O27 Mn1 2.117 . S
O27 C4 1.264 . S
C28 C21 1.403 . S
C28 C29 1.399 . S
C28 H34 0.929 . S
C29 C9 1.449 . S
C29 C28 1.399 . S
C29 H35 0.930 . S
H30 C10 0.931 . S
H31 C11 0.930 . S
H32 C19 0.931 . S
H33 C20 0.929 . S
H34 C28 0.929 . S
H35 C29 0.930 . S
Mn36 O41 2.095 . S
Mn36 O51 2.162 1_455 S
Mn36 O52 2.297 1_455 S
Mn36 O60 2.385 1_455 S
Mn36 O61 2.209 . S
Mn36 O62 2.094 1_455 S
Mn37 O42 2.121 . S
Mn37 N44 2.257 . S
Mn37 N53 2.282 . S
Mn37 O61 2.215 . S
Mn37 O63 2.117 . S
C38 O60 1.234 1_455 S
C38 O61 1.283 . S
C39 O51 1.281 . S
C39 O52 1.236 . S
C40 O62 1.240 1_455 S
C40 O63 1.264 . S
O41 Mn36 2.095 . S
O41 C50 1.250 . S
O42 Mn37 2.121 . S
O42 C50 1.258 . S
C43 N44 1.326 . S
C43 C47 1.460 . S
C43 H49 0.929 . S
N44 Mn37 2.257 . S
N44 C43 1.326 . S
N44 C48 1.362 . S
C45 C46 1.258 . S
C45 C48 1.431 . S
C45 C65 1.449 . S
C46 C45 1.258 . S
C46 C47 1.477 . S
C46 H66 0.931 . S
C47 C43 1.460 . S
C47 C46 1.477 . S
C47 H67 0.930 . S
C48 N44 1.362 . S
C48 C45 1.431 . S
C48 C58 1.476 . S
H49 C43 0.929 . S
C50 O41 1.250 . S
C50 O42 1.258 . S
O51 Mn36 2.162 1_655 S
O51 C39 1.281 . S
O52 Mn36 2.297 1_655 S
O52 C39 1.236 . S
N53 Mn37 2.282 . S
N53 C54 1.328 . S
N53 C58 1.318 . S
C54 N53 1.328 . S
C54 C55 1.457 . S
C54 H59 0.929 . S
C55 C54 1.457 . S
C55 C56 1.291 . S
C55 H68 0.931 . S
C56 C55 1.291 . S
C56 C57 1.373 . S
C56 H69 0.929 . S
C57 C56 1.373 . S
C57 C58 1.396 . S
C57 C64 1.403 . S
C58 C48 1.476 . S
C58 N53 1.318 . S
C58 C57 1.396 . S
H59 C54 0.929 . S
O60 Mn36 2.385 1_655 S
O60 C38 1.234 1_655 S
O61 Mn36 2.209 . S
O61 Mn37 2.215 . S
O61 C38 1.283 . S
O62 Mn36 2.094 1_655 S
O62 C40 1.240 1_655 S
O63 Mn37 2.117 . S
O63 C40 1.264 . S
C64 C57 1.403 . S
C64 C65 1.399 . S
C64 H70 0.929 . S
C65 C45 1.449 . S
C65 C64 1.399 . S
C65 H71 0.930 . S
H66 C46 0.931 . S
H67 C47 0.930 . S
H68 C55 0.931 . S
H69 C56 0.929 . S
H70 C64 0.929 . S
H71 C65 0.930 . S
Mn72 O77 2.095 . S
Mn72 O87 2.162 . S
Mn72 O88 2.297 . S
Mn72 O96 2.385 . S
Mn72 O97 2.209 . S
Mn72 O98 2.094 . S
Mn73 O78 2.121 . S
Mn73 N80 2.257 . S
Mn73 N89 2.282 . S
Mn73 O97 2.215 . S
Mn73 O99 2.117 . S
C74 O96 1.234 . S
C74 O97 1.283 . S
C75 O87 1.281 . S
C75 O88 1.236 . S
C76 O98 1.240 . S
C76 O99 1.264 . S
O77 Mn72 2.095 . S
O77 C86 1.250 . S
O78 Mn73 2.121 . S
O78 C86 1.258 . S
C79 N80 1.326 . S
C79 C83 1.460 . S
C79 H85 0.929 . S
N80 Mn73 2.257 . S
N80 C79 1.326 . S
N80 C84 1.362 . S
C81 C82 1.258 . S
C81 C84 1.431 . S
C81 C101 1.449 . S
C82 C81 1.258 . S
C82 C83 1.477 . S
C82 H102 0.931 . S
C83 C79 1.460 . S
C83 C82 1.477 . S
C83 H103 0.930 . S
C84 N80 1.362 . S
C84 C81 1.431 . S
C84 C94 1.476 . S
H85 C79 0.929 . S
C86 O77 1.250 . S
C86 O78 1.258 . S
O87 Mn72 2.162 . S
O87 C75 1.281 . S
O88 Mn72 2.297 . S
O88 C75 1.236 . S
N89 Mn73 2.282 . S
N89 C90 1.328 . S
N89 C94 1.318 . S
C90 N89 1.328 . S
C90 C91 1.457 . S
C90 H95 0.929 . S
C91 C90 1.457 . S
C91 C92 1.291 . S
C91 H104 0.931 . S
C92 C91 1.291 . S
C92 C93 1.373 . S
C92 H105 0.929 . S
C93 C92 1.373 . S
C93 C94 1.396 . S
C93 C100 1.403 . S
C94 C84 1.476 . S
C94 N89 1.318 . S
C94 C93 1.396 . S
H95 C90 0.929 . S
O96 Mn72 2.385 . S
O96 C74 1.234 . S
O97 Mn72 2.209 . S
O97 Mn73 2.215 . S
O97 C74 1.283 . S
O98 Mn72 2.094 . S
O98 C76 1.240 . S
O99 Mn73 2.117 . S
O99 C76 1.264 . S
C100 C93 1.403 . S
C100 C101 1.399 . S
C100 H106 0.929 . S
C101 C81 1.449 . S
C101 C100 1.399 . S
C101 H107 0.930 . S
H102 C82 0.931 . S
H103 C83 0.930 . S
H104 C91 0.931 . S
H105 C92 0.929 . S
H106 C100 0.929 . S
H107 C101 0.930 . S
Mn108 O113 2.095 1_545 S
Mn108 O123 2.162 . S
Mn108 O124 2.297 . S
Mn108 O132 2.385 . S
Mn108 O133 2.209 1_545 S
Mn108 O134 2.094 . S
Mn109 O114 2.121 . S
Mn109 N116 2.257 . S
Mn109 N125 2.282 . S
Mn109 O133 2.215 . S
Mn109 O135 2.117 . S
C110 O132 1.234 . S
C110 O133 1.283 1_545 S
C111 O123 1.281 . S
C111 O124 1.236 . S
C112 O134 1.240 . S
C112 O135 1.264 1_545 S
O113 Mn108 2.095 1_565 S
O113 C122 1.250 . S
O114 Mn109 2.121 . S
O114 C122 1.258 . S
C115 N116 1.326 . S
C115 C119 1.460 . S
C115 H121 0.929 . S
N116 Mn109 2.257 . S
N116 C115 1.326 . S
N116 C120 1.362 . S
C117 C118 1.258 . S
C117 C120 1.431 . S
C117 C137 1.449 . S
C118 C117 1.258 . S
C118 C119 1.477 . S
C118 H138 0.931 . S
C119 C115 1.460 . S
C119 C118 1.477 . S
C119 H139 0.930 . S
C120 N116 1.362 . S
C120 C117 1.431 . S
C120 C130 1.476 . S
H121 C115 0.929 . S
C122 O113 1.250 . S
C122 O114 1.258 . S
O123 Mn108 2.162 . S
O123 C111 1.281 . S
O124 Mn108 2.297 . S
O124 C111 1.236 . S
N125 Mn109 2.282 . S
N125 C126 1.328 . S
N125 C130 1.318 . S
C126 N125 1.328 . S
C126 C127 1.457 . S
C126 H131 0.929 . S
C127 C126 1.457 . S
C127 C128 1.291 . S
C127 H140 0.931 . S
C128 C127 1.291 . S
C128 C129 1.373 . S
C128 H141 0.929 . S
C129 C128 1.373 . S
C129 C130 1.396 . S
C129 C136 1.403 . S
C130 C120 1.476 . S
C130 N125 1.318 . S
C130 C129 1.396 . S
H131 C126 0.929 . S
O132 Mn108 2.385 . S
O132 C110 1.234 . S
O133 Mn108 2.209 1_565 S
O133 Mn109 2.215 . S
O133 C110 1.283 1_565 S
O134 Mn108 2.094 . S
O134 C112 1.240 . S
O135 Mn109 2.117 . S
O135 C112 1.264 1_565 S
C136 C129 1.403 . S
C136 C137 1.399 . S
C136 H142 0.929 . S
C137 C117 1.449 . S
C137 C136 1.399 . S
C137 H143 0.930 . S
H138 C118 0.931 . S
H139 C119 0.930 . S
H140 C127 0.931 . S
H141 C128 0.929 . S
H142 C136 0.929 . S
H143 C137 0.930 . S
Mn144 O149 2.095 . S
Mn144 O159 2.162 1_455 S
Mn144 O160 2.297 1_455 S
Mn144 O168 2.385 1_455 S
Mn144 O169 2.209 . S
Mn144 O170 2.094 1_455 S
Mn145 O150 2.121 . S
Mn145 N152 2.257 . S
Mn145 N161 2.282 . S
Mn145 O169 2.215 . S
Mn145 O171 2.117 . S
C146 O168 1.234 1_455 S
C146 O169 1.283 . S
C147 O159 1.281 . S
C147 O160 1.236 . S
C148 O170 1.240 1_455 S
C148 O171 1.264 . S
O149 Mn144 2.095 . S
O149 C158 1.250 . S
O150 Mn145 2.121 . S
O150 C158 1.258 . S
C151 N152 1.326 . S
C151 C155 1.460 . S
C151 H157 0.929 . S
N152 Mn145 2.257 . S
N152 C151 1.326 . S
N152 C156 1.362 . S
C153 C154 1.258 . S
C153 C156 1.431 . S
C153 C173 1.449 . S
C154 C153 1.258 . S
C154 C155 1.477 . S
C154 H174 0.931 . S
C155 C151 1.460 . S
C155 C154 1.477 . S
C155 H175 0.930 . S
C156 N152 1.362 . S
C156 C153 1.431 . S
C156 C166 1.476 . S
H157 C151 0.929 . S
C158 O149 1.250 . S
C158 O150 1.258 . S
O159 Mn144 2.162 1_655 S
O159 C147 1.281 . S
O160 Mn144 2.297 1_655 S
O160 C147 1.236 . S
N161 Mn145 2.282 . S
N161 C162 1.328 . S
N161 C166 1.318 . S
C162 N161 1.328 . S
C162 C163 1.457 . S
C162 H167 0.929 . S
C163 C162 1.457 . S
C163 C164 1.291 . S
C163 H176 0.931 . S
C164 C163 1.291 . S
C164 C165 1.373 . S
C164 H177 0.929 . S
C165 C164 1.373 . S
C165 C166 1.396 . S
C165 C172 1.403 . S
C166 C156 1.476 . S
C166 N161 1.318 . S
C166 C165 1.396 . S
H167 C162 0.929 . S
O168 Mn144 2.385 1_655 S
O168 C146 1.234 1_655 S
O169 Mn144 2.209 . S
O169 Mn145 2.215 . S
O169 C146 1.283 . S
O170 Mn144 2.094 1_655 S
O170 C148 1.240 1_655 S
O171 Mn145 2.117 . S
O171 C148 1.264 . S
C172 C165 1.403 . S
C172 C173 1.399 . S
C172 H178 0.929 . S
C173 C153 1.449 . S
C173 C172 1.399 . S
C173 H179 0.930 . S
H174 C154 0.931 . S
H175 C155 0.930 . S
H176 C163 0.931 . S
H177 C164 0.929 . S
H178 C172 0.929 . S
H179 C173 0.930 . S
Mn180 O185 2.095 . S
Mn180 O195 2.162 . S
Mn180 O196 2.297 . S
Mn180 O204 2.385 . S
Mn180 O205 2.209 . S
Mn180 O206 2.094 . S
Mn181 O186 2.121 . S
Mn181 N188 2.257 . S
Mn181 N197 2.282 . S
Mn181 O205 2.215 . S
Mn181 O207 2.117 . S
C182 O204 1.234 . S
C182 O205 1.283 . S
C183 O195 1.281 . S
C183 O196 1.236 . S
C184 O206 1.240 . S
C184 O207 1.264 . S
O185 Mn180 2.095 . S
O185 C194 1.250 . S
O186 Mn181 2.121 . S
O186 C194 1.258 . S
C187 N188 1.326 . S
C187 C191 1.460 . S
C187 H193 0.929 . S
N188 Mn181 2.257 . S
N188 C187 1.326 . S
N188 C192 1.362 . S
C189 C190 1.258 . S
C189 C192 1.431 . S
C189 C209 1.449 . S
C190 C189 1.258 . S
C190 C191 1.477 . S
C190 H210 0.931 . S
C191 C187 1.460 . S
C191 C190 1.477 . S
C191 H211 0.930 . S
C192 N188 1.362 . S
C192 C189 1.431 . S
C192 C202 1.476 . S
H193 C187 0.929 . S
C194 O185 1.250 . S
C194 O186 1.258 . S
O195 Mn180 2.162 . S
O195 C183 1.281 . S
O196 Mn180 2.297 . S
O196 C183 1.236 . S
N197 Mn181 2.282 . S
N197 C198 1.328 . S
N197 C202 1.318 . S
C198 N197 1.328 . S
C198 C199 1.457 . S
C198 H203 0.929 . S
C199 C198 1.457 . S
C199 C200 1.291 . S
C199 H212 0.931 . S
C200 C199 1.291 . S
C200 C201 1.373 . S
C200 H213 0.929 . S
C201 C200 1.373 . S
C201 C202 1.396 . S
C201 C208 1.403 . S
C202 C192 1.476 . S
C202 N197 1.318 . S
C202 C201 1.396 . S
H203 C198 0.929 . S
O204 Mn180 2.385 . S
O204 C182 1.234 . S
O205 Mn180 2.209 . S
O205 Mn181 2.215 . S
O205 C182 1.283 . S
O206 Mn180 2.094 . S
O206 C184 1.240 . S
O207 Mn181 2.117 . S
O207 C184 1.264 . S
C208 C201 1.403 . S
C208 C209 1.399 . S
C208 H214 0.929 . S
C209 C189 1.449 . S
C209 C208 1.399 . S
C209 H215 0.930 . S
H210 C190 0.931 . S
H211 C191 0.930 . S
H212 C199 0.931 . S
H213 C200 0.929 . S
H214 C208 0.929 . S
H215 C209 0.930 . S
Mn216 O221 2.095 . S
Mn216 O231 2.162 . S
Mn216 O232 2.297 . S
Mn216 O240 2.385 . S
Mn216 O241 2.209 . S
Mn216 O242 2.094 . S
Mn217 O222 2.121 . S
Mn217 N224 2.257 . S
Mn217 N233 2.282 . S
Mn217 O241 2.215 . S
Mn217 O243 2.117 . S
C218 O240 1.234 . S
C218 O241 1.283 . S
C219 O231 1.281 . S
C219 O232 1.236 . S
C220 O242 1.240 . S
C220 O243 1.264 . S
O221 Mn216 2.095 . S
O221 C230 1.250 . S
O222 Mn217 2.121 . S
O222 C230 1.258 . S
C223 N224 1.326 . S
C223 C227 1.460 . S
C223 H229 0.929 . S
N224 Mn217 2.257 . S
N224 C223 1.326 . S
N224 C228 1.362 . S
C225 C226 1.258 . S
C225 C228 1.431 . S
C225 C245 1.449 . S
C226 C225 1.258 . S
C226 C227 1.477 . S
C226 H246 0.931 . S
C227 C223 1.460 . S
C227 C226 1.477 . S
C227 H247 0.930 . S
C228 N224 1.362 . S
C228 C225 1.431 . S
C228 C238 1.476 . S
H229 C223 0.929 . S
C230 O221 1.250 . S
C230 O222 1.258 . S
O231 Mn216 2.162 . S
O231 C219 1.281 . S
O232 Mn216 2.297 . S
O232 C219 1.236 . S
N233 Mn217 2.282 . S
N233 C234 1.328 . S
N233 C238 1.318 . S
C234 N233 1.328 . S
C234 C235 1.457 . S
C234 H239 0.929 . S
C235 C234 1.457 . S
C235 C236 1.291 . S
C235 H248 0.931 . S
C236 C235 1.291 . S
C236 C237 1.373 . S
C236 H249 0.929 . S
C237 C236 1.373 . S
C237 C238 1.396 . S
C237 C244 1.403 . S
C238 C228 1.476 . S
C238 N233 1.318 . S
C238 C237 1.396 . S
H239 C234 0.929 . S
O240 Mn216 2.385 . S
O240 C218 1.234 . S
O241 Mn216 2.209 . S
O241 Mn217 2.215 . S
O241 C218 1.283 . S
O242 Mn216 2.094 . S
O242 C220 1.240 . S
O243 Mn217 2.117 . S
O243 C220 1.264 . S
C244 C237 1.403 . S
C244 C245 1.399 . S
C244 H250 0.929 . S
C245 C225 1.449 . S
C245 C244 1.399 . S
C245 H251 0.930 . S
H246 C226 0.931 . S
H247 C227 0.930 . S
H248 C235 0.931 . S
H249 C236 0.929 . S
H250 C244 0.929 . S
H251 C245 0.930 . S
Mn252 O257 2.095 . S
Mn252 O267 2.162 . S
Mn252 O268 2.297 . S
Mn252 O276 2.385 . S
Mn252 O277 2.209 . S
Mn252 O278 2.094 . S
Mn253 O258 2.121 . S
Mn253 N260 2.257 . S
Mn253 N269 2.282 . S
Mn253 O277 2.215 . S
Mn253 O279 2.117 . S
C254 O276 1.234 . S
C254 O277 1.283 . S
C255 O267 1.281 1_565 S
C255 O268 1.236 1_565 S
C256 O278 1.240 . S
C256 O279 1.264 . S
O257 Mn252 2.095 . S
O257 C266 1.250 . S
O258 Mn253 2.121 . S
O258 C266 1.258 . S
C259 N260 1.326 . S
C259 C263 1.460 . S
C259 H265 0.929 . S
N260 Mn253 2.257 . S
N260 C259 1.326 . S
N260 C264 1.362 . S
C261 C262 1.258 . S
C261 C264 1.431 . S
C261 C281 1.449 . S
C262 C261 1.258 . S
C262 C263 1.477 . S
C262 H282 0.931 . S
C263 C259 1.460 . S
C263 C262 1.477 . S
C263 H283 0.930 . S
C264 N260 1.362 . S
C264 C261 1.431 . S
C264 C274 1.476 . S
H265 C259 0.929 . S
C266 O257 1.250 . S
C266 O258 1.258 . S
O267 Mn252 2.162 . S
O267 C255 1.281 1_545 S
O268 Mn252 2.297 . S
O268 C255 1.236 1_545 S
N269 Mn253 2.282 . S
N269 C270 1.328 . S
N269 C274 1.318 . S
C270 N269 1.328 . S
C270 C271 1.457 . S
C270 H275 0.929 . S
C271 C270 1.457 . S
C271 C272 1.291 . S
C271 H284 0.931 . S
C272 C271 1.291 . S
C272 C273 1.373 . S
C272 H285 0.929 . S
C273 C272 1.373 . S
C273 C274 1.396 . S
C273 C280 1.403 . S
C274 C264 1.476 . S
C274 N269 1.318 . S
C274 C273 1.396 . S
H275 C270 0.929 . S
O276 Mn252 2.385 . S
O276 C254 1.234 . S
O277 Mn252 2.209 . S
O277 Mn253 2.215 . S
O277 C254 1.283 . S
O278 Mn252 2.094 . S
O278 C256 1.240 . S
O279 Mn253 2.117 . S
O279 C256 1.264 . S
C280 C273 1.403 . S
C280 C281 1.399 . S
C280 H286 0.929 . S
C281 C261 1.449 . S
C281 C280 1.399 . S
C281 H287 0.930 . S
H282 C262 0.931 . S
H283 C263 0.930 . S
H284 C271 0.931 . S
H285 C272 0.929 . S
H286 C280 0.929 . S
H287 C281 0.930 . S
Mn288 O293 2.095 1_655 S
Mn288 O303 2.162 . S
Mn288 O304 2.297 . S
Mn288 O312 2.385 . S
Mn288 O313 2.209 . S
Mn288 O314 2.094 . S
Mn289 O294 2.121 1_655 S
Mn289 N296 2.257 . S
Mn289 N305 2.282 . S
Mn289 O313 2.215 . S
Mn289 O315 2.117 . S
C290 O312 1.234 . S
C290 O313 1.283 . S
C291 O303 1.281 . S
C291 O304 1.236 . S
C292 O314 1.240 . S
C292 O315 1.264 . S
O293 Mn288 2.095 1_455 S
O293 C302 1.250 . S
O294 Mn289 2.121 1_455 S
O294 C302 1.258 . S
C295 N296 1.326 1_455 S
C295 C299 1.460 . S
C295 H301 0.929 . S
N296 Mn289 2.257 . S
N296 C295 1.326 1_655 S
N296 C300 1.362 . S
C297 C298 1.258 . S
C297 C300 1.431 . S
C297 C317 1.449 . S
C298 C297 1.258 . S
C298 C299 1.477 1_655 S
C298 H318 0.940 . S
C299 C295 1.460 . S
C299 C298 1.477 1_455 S
C299 H319 0.930 . S
C300 N296 1.362 . S
C300 C297 1.431 . S
C300 C310 1.476 . S
H301 C295 0.929 . S
C302 O293 1.250 . S
C302 O294 1.258 . S
O303 Mn288 2.162 . S
O303 C291 1.281 . S
O304 Mn288 2.297 . S
O304 C291 1.236 . S
N305 Mn289 2.282 . S
N305 C306 1.328 . S
N305 C310 1.318 . S
C306 N305 1.328 . S
C306 C307 1.457 . S
C306 H311 0.929 . S
C307 C306 1.457 . S
C307 C308 1.291 . S
C307 H320 0.931 . S
C308 C307 1.291 . S
C308 C309 1.373 . S
C308 H321 0.929 . S
C309 C308 1.373 . S
C309 C310 1.396 . S
C309 C316 1.403 . S
C310 C300 1.476 . S
C310 N305 1.318 . S
C310 C309 1.396 . S
H311 C306 0.929 . S
O312 Mn288 2.385 . S
O312 C290 1.234 . S
O313 Mn288 2.209 . S
O313 Mn289 2.215 . S
O313 C290 1.283 . S
O314 Mn288 2.094 . S
O314 C292 1.240 . S
O315 Mn289 2.117 . S
O315 C292 1.264 . S
C316 C309 1.403 . S
C316 C317 1.399 . S
C316 H322 0.929 . S
C317 C297 1.449 . S
C317 C316 1.399 . S
C317 H323 0.930 . S
H318 C298 0.940 . S
H319 C299 0.930 . S
H320 C307 0.931 . S
H321 C308 0.929 . S
H322 C316 0.929 . S
H323 C317 0.930 . S
Mn324 O329 2.095 . S
Mn324 O339 2.162 1_655 S
Mn324 O340 2.297 1_655 S
Mn324 O348 2.385 . S
Mn324 O349 2.209 . S
Mn324 O350 2.094 . S
Mn325 O330 2.121 . S
Mn325 N332 2.257 . S
Mn325 N341 2.282 . S
Mn325 O349 2.215 . S
Mn325 O351 2.117 . S
C326 O348 1.234 . S
C326 O349 1.283 . S
C327 O339 1.281 . S
C327 O340 1.236 . S
C328 O350 1.240 . S
C328 O351 1.264 . S
O329 Mn324 2.095 . S
O329 C338 1.250 . S
O330 Mn325 2.121 . S
O330 C338 1.258 . S
C331 N332 1.326 . S
C331 C335 1.460 . S
C331 H337 0.929 . S
N332 Mn325 2.257 . S
N332 C331 1.326 . S
N332 C336 1.362 . S
C333 C334 1.258 . S
C333 C336 1.431 . S
C333 C353 1.449 . S
C334 C333 1.258 . S
C334 C335 1.477 . S
C334 H354 0.931 . S
C335 C331 1.460 . S
C335 C334 1.477 . S
C335 H355 0.930 . S
C336 N332 1.362 . S
C336 C333 1.431 . S
C336 C346 1.476 . S
H337 C331 0.929 . S
C338 O329 1.250 . S
C338 O330 1.258 . S
O339 Mn324 2.162 1_455 S
O339 C327 1.281 . S
O340 Mn324 2.297 1_455 S
O340 C327 1.236 . S
N341 Mn325 2.282 . S
N341 C342 1.328 . S
N341 C346 1.318 . S
C342 N341 1.328 . S
C342 C343 1.457 . S
C342 H347 0.929 . S
C343 C342 1.457 . S
C343 C344 1.291 . S
C343 H356 0.931 . S
C344 C343 1.291 . S
C344 C345 1.373 . S
C344 H357 0.929 . S
C345 C344 1.373 . S
C345 C346 1.396 . S
C345 C352 1.403 . S
C346 C336 1.476 . S
C346 N341 1.318 . S
C346 C345 1.396 . S
H347 C342 0.929 . S
O348 Mn324 2.385 . S
O348 C326 1.234 . S
O349 Mn324 2.209 . S
O349 Mn325 2.215 . S
O349 C326 1.283 . S
O350 Mn324 2.094 . S
O350 C328 1.240 . S
O351 Mn325 2.117 . S
O351 C328 1.264 . S
C352 C345 1.403 . S
C352 C353 1.399 . S
C352 H358 0.929 . S
C353 C333 1.449 . S
C353 C352 1.399 . S
C353 H359 0.930 . S
H354 C334 0.931 . S
H355 C335 0.930 . S
H356 C343 0.931 . S
H357 C344 0.929 . S
H358 C352 0.929 . S
H359 C353 0.930 . S
Mn360 O365 2.095 . S
Mn360 O375 2.162 . S
Mn360 O376 2.297 . S
Mn360 O384 2.385 . S
Mn360 O385 2.209 . S
Mn360 O386 2.094 . S
Mn361 O366 2.121 . S
Mn361 N368 2.257 . S
Mn361 N377 2.282 . S
Mn361 O385 2.215 . S
Mn361 O387 2.117 . S
C362 O384 1.234 . S
C362 O385 1.283 . S
C363 O375 1.281 . S
C363 O376 1.236 . S
C364 O386 1.240 . S
C364 O387 1.264 . S
O365 Mn360 2.095 . S
O365 C374 1.250 . S
O366 Mn361 2.121 . S
O366 C374 1.258 . S
C367 N368 1.326 . S
C367 C371 1.460 . S
C367 H373 0.929 . S
N368 Mn361 2.257 . S
N368 C367 1.326 . S
N368 C372 1.362 . S
C369 C370 1.258 . S
C369 C372 1.431 . S
C369 C389 1.449 . S
C370 C369 1.258 . S
C370 C371 1.477 . S
C370 H390 0.931 . S
C371 C367 1.460 . S
C371 C370 1.477 . S
C371 H391 0.930 . S
C372 N368 1.362 . S
C372 C369 1.431 . S
C372 C382 1.476 . S
H373 C367 0.929 . S
C374 O365 1.250 . S
C374 O366 1.258 . S
O375 Mn360 2.162 . S
O375 C363 1.281 . S
O376 Mn360 2.297 . S
O376 C363 1.236 . S
N377 Mn361 2.282 . S
N377 C378 1.328 . S
N377 C382 1.318 . S
C378 N377 1.328 . S
C378 C379 1.457 . S
C378 H383 0.929 . S
C379 C378 1.457 . S
C379 C380 1.291 . S
C379 H392 0.931 . S
C380 C379 1.291 . S
C380 C381 1.373 . S
C380 H393 0.929 . S
C381 C380 1.373 . S
C381 C382 1.396 . S
C381 C388 1.403 . S
C382 C372 1.476 . S
C382 N377 1.318 . S
C382 C381 1.396 . S
H383 C378 0.929 . S
O384 Mn360 2.385 . S
O384 C362 1.234 . S
O385 Mn360 2.209 . S
O385 Mn361 2.215 . S
O385 C362 1.283 . S
O386 Mn360 2.094 . S
O386 C364 1.240 . S
O387 Mn361 2.117 . S
O387 C364 1.264 . S
C388 C381 1.403 . S
C388 C389 1.399 . S
C388 H394 0.929 . S
C389 C369 1.449 . S
C389 C388 1.399 . S
C389 H395 0.930 . S
H390 C370 0.931 . S
H391 C371 0.930 . S
H392 C379 0.931 . S
H393 C380 0.929 . S
H394 C388 0.929 . S
H395 C389 0.930 . S
Mn396 O401 2.095 . S
Mn396 O411 2.162 . S
Mn396 O412 2.297 . S
Mn396 O420 2.385 . S
Mn396 O421 2.209 . S
Mn396 O422 2.094 . S
Mn397 O402 2.121 . S
Mn397 N404 2.257 . S
Mn397 N413 2.282 . S
Mn397 O421 2.215 . S
Mn397 O423 2.117 . S
C398 O420 1.234 . S
C398 O421 1.283 . S
C399 O411 1.281 . S
C399 O412 1.236 . S
C400 O422 1.240 . S
C400 O423 1.264 . S
O401 Mn396 2.095 . S
O401 C410 1.250 . S
O402 Mn397 2.121 . S
O402 C410 1.258 . S
C403 N404 1.326 . S
C403 C407 1.460 . S
C403 H409 0.929 1_545 S
N404 Mn397 2.257 . S
N404 C403 1.326 . S
N404 C408 1.362 . S
C405 C406 1.258 . S
C405 C408 1.431 . S
C405 C425 1.449 . S
C406 C405 1.258 . S
C406 C407 1.477 . S
C406 H426 0.931 . S
C407 C403 1.460 . S
C407 C406 1.477 . S
C407 H427 0.930 1_545 S
C408 N404 1.362 . S
C408 C405 1.431 . S
C408 C418 1.476 . S
H409 C403 0.929 1_565 S
C410 O401 1.250 . S
C410 O402 1.258 . S
O411 Mn396 2.162 . S
O411 C399 1.281 . S
O412 Mn396 2.297 . S
O412 C399 1.236 . S
N413 Mn397 2.282 . S
N413 C414 1.328 . S
N413 C418 1.318 . S
C414 N413 1.328 . S
C414 C415 1.457 . S
C414 H419 0.929 . S
C415 C414 1.457 . S
C415 C416 1.291 . S
C415 H428 0.931 . S
C416 C415 1.291 . S
C416 C417 1.373 . S
C416 H429 0.929 . S
C417 C416 1.373 . S
C417 C418 1.396 . S
C417 C424 1.403 . S
C418 C408 1.476 . S
C418 N413 1.318 . S
C418 C417 1.396 . S
H419 C414 0.929 . S
O420 Mn396 2.385 . S
O420 C398 1.234 . S
O421 Mn396 2.209 . S
O421 Mn397 2.215 . S
O421 C398 1.283 . S
O422 Mn396 2.094 . S
O422 C400 1.240 . S
O423 Mn397 2.117 . S
O423 C400 1.264 . S
C424 C417 1.403 . S
C424 C425 1.399 . S
C424 H430 0.929 . S
C425 C405 1.449 . S
C425 C424 1.399 . S
C425 H431 0.930 . S
H426 C406 0.931 . S
H427 C407 0.930 1_565 S
H428 C415 0.931 . S
H429 C416 0.929 . S
H430 C424 0.929 . S
H431 C425 0.930 . S
Mn432 O437 2.095 . S
Mn432 O447 2.162 . S
Mn432 O448 2.297 . S
Mn432 O456 2.385 . S
Mn432 O457 2.209 . S
Mn432 O458 2.094 . S
Mn433 O438 2.121 . S
Mn433 N440 2.257 . S
Mn433 N449 2.282 . S
Mn433 O457 2.215 . S
Mn433 O459 2.117 . S
C434 O456 1.234 . S
C434 O457 1.283 . S
C435 O447 1.281 1_655 S
C435 O448 1.236 1_655 S
C436 O458 1.240 . S
C436 O459 1.264 . S
O437 Mn432 2.095 . S
O437 C446 1.250 . S
O438 Mn433 2.121 . S
O438 C446 1.258 . S
C439 N440 1.326 . S
C439 C443 1.460 . S
C439 H445 0.929 . S
N440 Mn433 2.257 . S
N440 C439 1.326 . S
N440 C444 1.362 . S
C441 C442 1.258 . S
C441 C444 1.431 . S
C441 C461 1.449 . S
C442 C441 1.258 . S
C442 C443 1.477 . S
C442 H462 0.931 . S
C443 C439 1.460 . S
C443 C442 1.477 . S
C443 H463 0.930 . S
C444 N440 1.362 . S
C444 C441 1.431 . S
C444 C454 1.476 . S
H445 C439 0.929 . S
C446 O437 1.250 . S
C446 O438 1.258 . S
O447 Mn432 2.162 . S
O447 C435 1.281 1_455 S
O448 Mn432 2.297 . S
O448 C435 1.236 1_455 S
N449 Mn433 2.282 . S
N449 C450 1.328 . S
N449 C454 1.318 . S
C450 N449 1.328 . S
C450 C451 1.457 . S
C450 H455 0.929 . S
C451 C450 1.457 . S
C451 C452 1.291 . S
C451 H464 0.931 . S
C452 C451 1.291 . S
C452 C453 1.373 . S
C452 H465 0.929 . S
C453 C452 1.373 . S
C453 C454 1.396 . S
C453 C460 1.403 . S
C454 C444 1.476 . S
C454 N449 1.318 . S
C454 C453 1.396 . S
H455 C450 0.929 . S
O456 Mn432 2.385 . S
O456 C434 1.234 . S
O457 Mn432 2.209 . S
O457 Mn433 2.215 . S
O457 C434 1.283 . S
O458 Mn432 2.094 . S
O458 C436 1.240 . S
O459 Mn433 2.117 . S
O459 C436 1.264 . S
C460 C453 1.403 . S
C460 C461 1.399 . S
C460 H466 0.929 . S
C461 C441 1.449 . S
C461 C460 1.399 . S
C461 H467 0.930 . S
H462 C442 0.931 . S
H463 C443 0.930 . S
H464 C451 0.931 . S
H465 C452 0.929 . S
H466 C460 0.929 . S
H467 C461 0.930 . S
Mn468 O473 2.095 . S
Mn468 O483 2.162 . S
Mn468 O484 2.297 . S
Mn468 O492 2.385 . S
Mn468 O493 2.209 . S
Mn468 O494 2.094 . S
Mn469 O474 2.121 . S
Mn469 N476 2.257 . S
Mn469 N485 2.282 . S
Mn469 O493 2.215 . S
Mn469 O495 2.117 . S
C470 O492 1.234 . S
C470 O493 1.283 . S
C471 O483 1.281 . S
C471 O484 1.236 . S
C472 O494 1.240 . S
C472 O495 1.264 . S
O473 Mn468 2.095 . S
O473 C482 1.250 . S
O474 Mn469 2.121 . S
O474 C482 1.258 . S
C475 N476 1.326 . S
C475 C479 1.460 . S
C475 H481 0.929 . S
N476 Mn469 2.257 . S
N476 C475 1.326 . S
N476 C480 1.362 . S
C477 C478 1.258 . S
C477 C480 1.431 . S
C477 C497 1.449 . S
C478 C477 1.258 . S
C478 C479 1.477 . S
C478 H498 0.931 . S
C479 C475 1.460 . S
C479 C478 1.477 . S
C479 H499 0.930 . S
C480 N476 1.362 . S
C480 C477 1.431 . S
C480 C490 1.476 . S
H481 C475 0.929 . S
C482 O473 1.250 . S
C482 O474 1.258 . S
O483 Mn468 2.162 . S
O483 C471 1.281 . S
O484 Mn468 2.297 . S
O484 C471 1.236 . S
N485 Mn469 2.282 . S
N485 C486 1.328 . S
N485 C490 1.318 . S
C486 N485 1.328 . S
C486 C487 1.457 . S
C486 H491 0.929 . S
C487 C486 1.457 . S
C487 C488 1.291 . S
C487 H500 0.931 . S
C488 C487 1.291 . S
C488 C489 1.373 . S
C488 H501 0.929 . S
C489 C488 1.373 . S
C489 C490 1.396 . S
C489 C496 1.403 . S
C490 C480 1.476 . S
C490 N485 1.318 . S
C490 C489 1.396 . S
H491 C486 0.929 . S
O492 Mn468 2.385 . S
O492 C470 1.234 . S
O493 Mn468 2.209 . S
O493 Mn469 2.215 . S
O493 C470 1.283 . S
O494 Mn468 2.094 . S
O494 C472 1.240 . S
O495 Mn469 2.117 . S
O495 C472 1.264 . S
C496 C489 1.403 . S
C496 C497 1.399 . S
C496 H502 0.929 . S
C497 C477 1.449 . S
C497 C496 1.399 . S
C497 H503 0.930 . S
H498 C478 0.931 . S
H499 C479 0.930 . S
H500 C487 0.931 . S
H501 C488 0.929 . S
H502 C496 0.929 . S
H503 C497 0.930 . S
Mn504 O509 2.095 . S
Mn504 O519 2.162 1_565 S
Mn504 O520 2.297 1_565 S
Mn504 O528 2.385 . S
Mn504 O529 2.209 . S
Mn504 O530 2.094 . S
Mn505 O510 2.121 . S
Mn505 N512 2.257 . S
Mn505 N521 2.282 . S
Mn505 O529 2.215 . S
Mn505 O531 2.117 . S
C506 O528 1.234 . S
C506 O529 1.283 . S
C507 O519 1.281 . S
C507 O520 1.236 . S
C508 O530 1.240 . S
C508 O531 1.264 . S
O509 Mn504 2.095 . S
O509 C518 1.250 . S
O510 Mn505 2.121 . S
O510 C518 1.258 . S
C511 N512 1.326 . S
C511 C515 1.460 . S
C511 H517 0.929 . S
N512 Mn505 2.257 . S
N512 C511 1.326 . S
N512 C516 1.362 . S
C513 C514 1.258 . S
C513 C516 1.431 . S
C513 C533 1.449 . S
C514 C513 1.258 . S
C514 C515 1.477 . S
C514 H534 0.931 . S
C515 C511 1.460 . S
C515 C514 1.477 . S
C515 H535 0.930 . S
C516 N512 1.362 . S
C516 C513 1.431 . S
C516 C526 1.476 . S
H517 C511 0.929 . S
C518 O509 1.250 . S
C518 O510 1.258 . S
O519 Mn504 2.162 1_545 S
O519 C507 1.281 . S
O520 Mn504 2.297 1_545 S
O520 C507 1.236 . S
N521 Mn505 2.282 . S
N521 C522 1.328 . S
N521 C526 1.318 . S
C522 N521 1.328 . S
C522 C523 1.457 . S
C522 H527 0.929 . S
C523 C522 1.457 . S
C523 C524 1.291 . S
C523 H536 0.931 . S
C524 C523 1.291 . S
C524 C525 1.373 . S
C524 H537 0.929 . S
C525 C524 1.373 . S
C525 C526 1.396 . S
C525 C532 1.403 . S
C526 C516 1.476 . S
C526 N521 1.318 . S
C526 C525 1.396 . S
H527 C522 0.929 . S
O528 Mn504 2.385 . S
O528 C506 1.234 . S
O529 Mn504 2.209 . S
O529 Mn505 2.215 . S
O529 C506 1.283 . S
O530 Mn504 2.094 . S
O530 C508 1.240 . S
O531 Mn505 2.117 . S
O531 C508 1.264 . S
C532 C525 1.403 . S
C532 C533 1.399 . S
C532 H538 0.929 . S
C533 C513 1.449 . S
C533 C532 1.399 . S
C533 H539 0.930 . S
H534 C514 0.931 . S
H535 C515 0.930 . S
H536 C523 0.931 . S
H537 C524 0.929 . S
H538 C532 0.929 . S
H539 C533 0.930 . S
Mn540 O545 2.095 . S
Mn540 O555 2.162 . S
Mn540 O556 2.297 . S
Mn540 O564 2.385 . S
Mn540 O565 2.209 . S
Mn540 O566 2.094 . S
Mn541 O546 2.121 . S
Mn541 N548 2.257 . S
Mn541 N557 2.282 . S
Mn541 O565 2.215 . S
Mn541 O567 2.117 . S
C542 O564 1.234 . S
C542 O565 1.283 . S
C543 O555 1.281 . S
C543 O556 1.236 . S
C544 O566 1.240 . S
C544 O567 1.264 . S
O545 Mn540 2.095 . S
O545 C554 1.250 . S
O546 Mn541 2.121 . S
O546 C554 1.258 . S
C547 N548 1.326 . S
C547 C551 1.460 . S
C547 H553 0.929 . S
N548 Mn541 2.257 . S
N548 C547 1.326 . S
N548 C552 1.362 . S
C549 C550 1.258 . S
C549 C552 1.431 . S
C549 C569 1.449 . S
C550 C549 1.258 . S
C550 C551 1.477 . S
C550 H570 0.931 . S
C551 C547 1.460 . S
C551 C550 1.477 . S
C551 H571 0.930 . S
C552 N548 1.362 . S
C552 C549 1.431 . S
C552 C562 1.476 . S
H553 C547 0.929 . S
C554 O545 1.250 . S
C554 O546 1.258 . S
O555 Mn540 2.162 . S
O555 C543 1.281 . S
O556 Mn540 2.297 . S
O556 C543 1.236 . S
N557 Mn541 2.282 . S
N557 C558 1.328 . S
N557 C562 1.318 . S
C558 N557 1.328 . S
C558 C559 1.457 . S
C558 H563 0.929 . S
C559 C558 1.457 . S
C559 C560 1.291 . S
C559 H572 0.931 . S
C560 C559 1.291 . S
C560 C561 1.373 . S
C560 H573 0.929 . S
C561 C560 1.373 . S
C561 C562 1.396 . S
C561 C568 1.403 . S
C562 C552 1.476 . S
C562 N557 1.318 . S
C562 C561 1.396 . S
H563 C558 0.929 . S
O564 Mn540 2.385 . S
O564 C542 1.234 . S
O565 Mn540 2.209 . S
O565 Mn541 2.215 . S
O565 C542 1.283 . S
O566 Mn540 2.094 . S
O566 C544 1.240 . S
O567 Mn541 2.117 . S
O567 C544 1.264 . S
C568 C561 1.403 . S
C568 C569 1.399 . S
C568 H574 0.929 . S
C569 C549 1.449 . S
C569 C568 1.399 . S
C569 H575 0.930 . S
H570 C550 0.931 . S
H571 C551 0.930 . S
H572 C559 0.931 . S
H573 C560 0.929 . S
H574 C568 0.929 . S
H575 C569 0.930 . S
Mn576 O581 2.095 1_565 S
Mn576 O591 2.162 . S
Mn576 O592 2.297 . S
Mn576 O600 2.385 . S
Mn576 O601 2.209 . S
Mn576 O602 2.094 . S
Mn577 O582 2.121 1_565 S
Mn577 N584 2.257 . S
Mn577 N593 2.282 . S
Mn577 O601 2.215 . S
Mn577 O603 2.117 . S
C578 O600 1.234 . S
C578 O601 1.283 . S
C579 O591 1.281 . S
C579 O592 1.236 . S
C580 O602 1.240 . S
C580 O603 1.264 . S
O581 Mn576 2.095 1_545 S
O581 C590 1.250 . S
O582 Mn577 2.121 1_545 S
O582 C590 1.258 . S
C583 N584 1.326 1_545 S
C583 C587 1.460 . S
C583 H589 0.929 . S
N584 Mn577 2.257 . S
N584 C583 1.326 1_565 S
N584 C588 1.362 . S
C585 C586 1.258 . S
C585 C588 1.431 . S
C585 C605 1.449 . S
C586 C585 1.258 . S
C586 C587 1.477 1_565 S
C586 H606 0.931 . S
C587 C583 1.460 . S
C587 C586 1.477 1_545 S
C587 H607 0.930 . S
C588 N584 1.362 . S
C588 C585 1.431 . S
C588 C598 1.476 . S
H589 C583 0.929 . S
C590 O581 1.250 . S
C590 O582 1.258 . S
O591 Mn576 2.162 . S
O591 C579 1.281 . S
O592 Mn576 2.297 . S
O592 C579 1.236 . S
N593 Mn577 2.282 . S
N593 C594 1.328 . S
N593 C598 1.318 . S
C594 N593 1.328 . S
C594 C595 1.457 . S
C594 H599 0.929 . S
C595 C594 1.457 . S
C595 C596 1.291 . S
C595 H608 0.931 . S
C596 C595 1.291 . S
C596 C597 1.373 . S
C596 H609 0.929 . S
C597 C596 1.373 . S
C597 C598 1.396 . S
C597 C604 1.403 . S
C598 C588 1.476 . S
C598 N593 1.318 . S
C598 C597 1.396 . S
H599 C594 0.929 . S
O600 Mn576 2.385 . S
O600 C578 1.234 . S
O601 Mn576 2.209 . S
O601 Mn577 2.215 . S
O601 C578 1.283 . S
O602 Mn576 2.094 . S
O602 C580 1.240 . S
O603 Mn577 2.117 . S
O603 C580 1.264 . S
C604 C597 1.403 . S
C604 C605 1.399 . S
C604 H610 0.929 . S
C605 C585 1.449 . S
C605 C604 1.399 . S
C605 H611 0.930 . S
H606 C586 0.931 . S
H607 C587 0.930 . S
H608 C595 0.931 . S
H609 C596 0.929 . S
H610 C604 0.929 . S
H611 C605 0.930 . S
Mn612 O617 2.095 . S
Mn612 O627 2.162 . S
Mn612 O628 2.297 . S
Mn612 O636 2.385 . S
Mn612 O637 2.209 . S
Mn612 O638 2.094 . S
Mn613 O618 2.121 . S
Mn613 N620 2.257 . S
Mn613 N629 2.282 . S
Mn613 O637 2.215 . S
Mn613 O639 2.117 . S
C614 O636 1.234 . S
C614 O637 1.283 . S
C615 O627 1.281 1_655 S
C615 O628 1.236 1_655 S
C616 O638 1.240 . S
C616 O639 1.264 . S
O617 Mn612 2.095 . S
O617 C626 1.250 . S
O618 Mn613 2.121 . S
O618 C626 1.258 . S
C619 N620 1.326 . S
C619 C623 1.460 . S
C619 H625 0.929 . S
N620 Mn613 2.257 . S
N620 C619 1.326 . S
N620 C624 1.362 . S
C621 C622 1.258 . S
C621 C624 1.431 . S
C621 C641 1.449 . S
C622 C621 1.258 . S
C622 C623 1.477 . S
C622 H642 0.931 . S
C623 C619 1.460 . S
C623 C622 1.477 . S
C623 H643 0.930 . S
C624 N620 1.362 . S
C624 C621 1.431 . S
C624 C634 1.476 . S
H625 C619 0.929 . S
C626 O617 1.250 . S
C626 O618 1.258 . S
O627 Mn612 2.162 . S
O627 C615 1.281 1_455 S
O628 Mn612 2.297 . S
O628 C615 1.236 1_455 S
N629 Mn613 2.282 . S
N629 C630 1.328 . S
N629 C634 1.318 . S
C630 N629 1.328 . S
C630 C631 1.457 . S
C630 H635 0.929 . S
C631 C630 1.457 . S
C631 C632 1.291 . S
C631 H644 0.931 . S
C632 C631 1.291 . S
C632 C633 1.373 . S
C632 H645 0.929 . S
C633 C632 1.373 . S
C633 C634 1.396 . S
C633 C640 1.403 . S
C634 C624 1.476 . S
C634 N629 1.318 . S
C634 C633 1.396 . S
H635 C630 0.929 . S
O636 Mn612 2.385 . S
O636 C614 1.234 . S
O637 Mn612 2.209 . S
O637 Mn613 2.215 . S
O637 C614 1.283 . S
O638 Mn612 2.094 . S
O638 C616 1.240 . S
O639 Mn613 2.117 . S
O639 C616 1.264 . S
C640 C633 1.403 . S
C640 C641 1.399 . S
C640 H646 0.929 . S
C641 C621 1.449 . S
C641 C640 1.399 . S
C641 H647 0.930 . S
H642 C622 0.931 . S
H643 C623 0.930 . S
H644 C631 0.931 . S
H645 C632 0.929 . S
H646 C640 0.929 . S
H647 C641 0.930 . S
Zn648 O654 1.920 1_455 S
Zn648 O660 1.898 1_445 S
Zn648 O663 1.905 . S
Zn649 O657 1.905 1_545 S
Zn649 O658 1.898 . S
Zn649 O666 1.920 1_455 S
Zn650 O653 2.080 . S
Zn650 O656 2.114 1_545 S
Zn650 O659 2.120 . S
Zn650 O661 2.120 1_445 S
Zn650 O662 2.114 . S
Zn650 O665 2.080 1_455 S
C651 O656 1.166 . S
C651 O657 1.182 . S
C652 O658 1.167 . S
C652 O659 1.299 . S
O653 Zn650 2.080 . S
O653 C667 1.305 1_455 S
O654 Zn648 1.920 1_655 S
O654 C667 1.234 . S
C655 O660 1.167 . S
C655 O661 1.299 . S
O656 Zn650 2.114 1_565 S
O656 C651 1.166 . S
O657 Zn649 1.905 1_565 S
O657 C651 1.182 . S
O658 Zn649 1.898 . S
O658 C652 1.167 . S
O659 Zn650 2.120 . S
O659 C652 1.299 . S
O660 Zn648 1.898 1_665 S
O660 C655 1.167 . S
O661 Zn650 2.120 1_665 S
O661 C655 1.299 . S
O662 Zn650 2.114 . S
O662 C664 1.166 . S
O663 Zn648 1.905 . S
O663 C664 1.182 . S
C664 O662 1.166 . S
C664 O663 1.182 . S
O665 Zn650 2.080 1_655 S
O665 C668 1.305 . S
O666 Zn649 1.920 1_655 S
O666 C668 1.234 . S
C667 O653 1.305 1_655 S
C667 O654 1.234 . S
C668 O665 1.305 . S
C668 O666 1.234 . S
Zn669 O675 1.920 1_545 S
Zn669 O681 1.898 . S
Zn669 O684 1.905 1_455 S
Zn670 O678 1.905 . S
Zn670 O679 1.898 1_445 S
Zn670 O687 1.920 . S
Zn671 O674 2.080 1_545 S
Zn671 O677 2.114 . S
Zn671 O680 2.120 1_445 S
Zn671 O682 2.120 . S
Zn671 O683 2.114 1_455 S
Zn671 O686 2.080 . S
C672 O677 1.166 . S
C672 O678 1.182 . S
C673 O679 1.167 . S
C673 O680 1.299 . S
O674 Zn671 2.080 1_565 S
O674 C688 1.305 . S
O675 Zn669 1.920 1_565 S
O675 C688 1.234 . S
C676 O681 1.167 . S
C676 O682 1.299 . S
O677 Zn671 2.114 . S
O677 C672 1.166 . S
O678 Zn670 1.905 . S
O678 C672 1.182 . S
O679 Zn670 1.898 1_665 S
O679 C673 1.167 . S
O680 Zn671 2.120 1_665 S
O680 C673 1.299 . S
O681 Zn669 1.898 . S
O681 C676 1.167 . S
O682 Zn671 2.120 . S
O682 C676 1.299 . S
O683 Zn671 2.114 1_655 S
O683 C685 1.166 . S
O684 Zn669 1.905 1_655 S
O684 C685 1.182 . S
C685 O683 1.166 . S
C685 O684 1.182 . S
O686 Zn671 2.080 . S
O686 C689 1.305 . S
O687 Zn670 1.920 . S
O687 C689 1.234 . S
C688 O674 1.305 . S
C688 O675 1.234 . S
C689 O686 1.305 . S
C689 O687 1.234 . S
Zn690 O696 1.920 1_545 S
Zn690 O702 1.898 . S
Zn690 O705 1.905 1_445 S
Zn691 O699 1.905 . S
Zn691 O700 1.898 1_445 S
Zn691 O708 1.920 1_545 S
Zn692 O695 2.080 1_545 S
Zn692 O698 2.114 . S
Zn692 O701 2.120 1_445 S
Zn692 O703 2.120 . S
Zn692 O704 2.114 1_455 S
Zn692 O707 2.080 . S
C693 O698 1.166 . S
C693 O699 1.182 . S
C694 O700 1.167 . S
C694 O701 1.299 . S
O695 Zn692 2.080 1_565 S
O695 C709 1.305 . S
O696 Zn690 1.920 1_565 S
O696 C709 1.234 . S
C697 O702 1.167 . S
C697 O703 1.299 . S
O698 Zn692 2.114 . S
O698 C693 1.166 . S
O699 Zn691 1.905 . S
O699 C693 1.182 . S
O700 Zn691 1.898 1_665 S
O700 C694 1.167 . S
O701 Zn692 2.120 1_665 S
O701 C694 1.299 . S
O702 Zn690 1.898 . S
O702 C697 1.167 . S
O703 Zn692 2.120 . S
O703 C697 1.299 . S
O704 Zn692 2.114 1_655 S
O704 C706 1.166 1_545 S
O705 Zn690 1.905 1_665 S
O705 C706 1.182 . S
C706 O704 1.166 1_565 S
C706 O705 1.182 . S
O707 Zn692 2.080 . S
O707 C710 1.305 . S
O708 Zn691 1.920 1_565 S
O708 C710 1.234 1_565 S
C709 O695 1.305 . S
C709 O696 1.234 . S
C710 O707 1.305 . S
C710 O708 1.234 1_545 S
Zn711 O717 1.920 . S
Zn711 O723 1.898 1_445 S
Zn711 O726 1.905 . S
Zn712 O720 1.905 1_445 S
Zn712 O721 1.898 . S
Zn712 O729 1.920 1_455 S
Zn713 O716 2.080 . S
Zn713 O719 2.114 1_545 S
Zn713 O722 2.120 . S
Zn713 O724 2.120 1_445 S
Zn713 O725 2.114 . S
Zn713 O728 2.080 1_455 S
C714 O719 1.166 . S
C714 O720 1.182 1_455 S
C715 O721 1.167 . S
C715 O722 1.299 . S
O716 Zn713 2.080 . S
O716 C730 1.305 . S
O717 Zn711 1.920 . S
O717 C730 1.234 . S
C718 O723 1.167 . S
C718 O724 1.299 . S
O719 Zn713 2.114 1_565 S
O719 C714 1.166 . S
O720 Zn712 1.905 1_665 S
O720 C714 1.182 1_655 S
O721 Zn712 1.898 . S
O721 C715 1.167 . S
O722 Zn713 2.120 . S
O722 C715 1.299 . S
O723 Zn711 1.898 1_665 S
O723 C718 1.167 . S
O724 Zn713 2.120 1_665 S
O724 C718 1.299 . S
O725 Zn713 2.114 . S
O725 C727 1.166 . S
O726 Zn711 1.905 . S
O726 C727 1.182 . S
C727 O725 1.166 . S
C727 O726 1.182 . S
O728 Zn713 2.080 1_655 S
O728 C731 1.305 . S
O729 Zn712 1.920 1_655 S
O729 C731 1.234 . S
C730 O716 1.305 . S
C730 O717 1.234 . S
C731 O728 1.305 . S
C731 O729 1.234 . S
Zn732 O738 1.920 . S
Zn732 O744 1.898 . S
Zn732 O747 1.905 . S
Zn733 O741 1.905 . S
Zn733 O742 1.898 . S
Zn733 O750 1.920 . S
Zn734 O737 2.080 . S
Zn734 O740 2.114 . S
Zn734 O743 2.120 . S
Zn734 O745 2.120 . S
Zn734 O746 2.114 . S
Zn734 O749 2.080 . S
C735 O740 1.166 . S
C735 O741 1.182 . S
C736 O742 1.167 . S
C736 O743 1.299 . S
O737 Zn734 2.080 . S
O737 C751 1.305 . S
O738 Zn732 1.920 . S
O738 C751 1.234 . S
C739 O744 1.167 . S
C739 O745 1.299 . S
O740 Zn734 2.114 . S
O740 C735 1.166 . S
O741 Zn733 1.905 . S
O741 C735 1.182 . S
O742 Zn733 1.898 . S
O742 C736 1.167 . S
O743 Zn734 2.120 . S
O743 C736 1.299 . S
O744 Zn732 1.898 . S
O744 C739 1.167 . S
O745 Zn734 2.120 . S
O745 C739 1.299 . S
O746 Zn734 2.114 . S
O746 C748 1.166 . S
O747 Zn732 1.905 . S
O747 C748 1.182 . S
C748 O746 1.166 . S
C748 O747 1.182 . S
O749 Zn734 2.080 . S
O749 C752 1.305 . S
O750 Zn733 1.920 . S
O750 C752 1.234 . S
C751 O737 1.305 . S
C751 O738 1.234 . S
C752 O749 1.305 . S
C752 O750 1.234 . S
Zn753 O759 1.920 . S
Zn753 O765 1.898 . S
Zn753 O768 1.905 . S
Zn754 O762 1.905 . S
Zn754 O763 1.898 . S
Zn754 O771 1.920 . S
Zn755 O758 2.080 . S
Zn755 O761 2.114 . S
Zn755 O764 2.120 . S
Zn755 O766 2.120 . S
Zn755 O767 2.114 . S
Zn755 O770 2.080 . S
C756 O761 1.166 . S
C756 O762 1.182 . S
C757 O763 1.167 . S
C757 O764 1.299 . S
O758 Zn755 2.080 . S
O758 C772 1.305 . S
O759 Zn753 1.920 . S
O759 C772 1.234 . S
C760 O765 1.167 . S
C760 O766 1.299 . S
O761 Zn755 2.114 . S
O761 C756 1.166 . S
O762 Zn754 1.905 . S
O762 C756 1.182 . S
O763 Zn754 1.898 . S
O763 C757 1.167 . S
O764 Zn755 2.120 . S
O764 C757 1.299 . S
O765 Zn753 1.898 . S
O765 C760 1.167 . S
O766 Zn755 2.120 . S
O766 C760 1.299 . S
O767 Zn755 2.114 . S
O767 C769 1.166 . S
O768 Zn753 1.905 . S
O768 C769 1.182 . S
C769 O767 1.166 . S
C769 O768 1.182 . S
O770 Zn755 2.080 . S
O770 C773 1.305 . S
O771 Zn754 1.920 . S
O771 C773 1.234 . S
C772 O758 1.305 . S
C772 O759 1.234 . S
C773 O770 1.305 . S
C773 O771 1.234 . S
Zn774 O780 1.920 . S
Zn774 O786 1.898 . S
Zn774 O789 1.905 . S
Zn775 O783 1.905 . S
Zn775 O784 1.898 . S
Zn775 O792 1.920 . S
Zn776 O779 2.080 . S
Zn776 O782 2.114 . S
Zn776 O785 2.120 . S
Zn776 O787 2.120 . S
Zn776 O788 2.114 . S
Zn776 O791 2.080 . S
C777 O782 1.166 . S
C777 O783 1.182 . S
C778 O784 1.167 . S
C778 O785 1.299 . S
O779 Zn776 2.080 . S
O779 C793 1.305 . S
O780 Zn774 1.920 . S
O780 C793 1.234 . S
C781 O786 1.167 . S
C781 O787 1.299 . S
O782 Zn776 2.114 . S
O782 C777 1.166 . S
O783 Zn775 1.905 . S
O783 C777 1.182 . S
O784 Zn775 1.898 . S
O784 C778 1.167 . S
O785 Zn776 2.120 . S
O785 C778 1.299 . S
O786 Zn774 1.898 . S
O786 C781 1.167 . S
O787 Zn776 2.120 . S
O787 C781 1.299 . S
O788 Zn776 2.114 . S
O788 C790 1.166 . S
O789 Zn774 1.905 . S
O789 C790 1.182 . S
C790 O788 1.166 . S
C790 O789 1.182 . S
O791 Zn776 2.080 . S
O791 C794 1.305 . S
O792 Zn775 1.920 . S
O792 C794 1.234 . S
C793 O779 1.305 . S
C793 O780 1.234 . S
C794 O791 1.305 . S
C794 O792 1.234 . S
Zn795 O801 1.920 . S
Zn795 O807 1.898 . S
Zn795 O810 1.905 . S
Zn796 O804 1.905 . S
Zn796 O805 1.898 . S
Zn796 O813 1.920 . S
Zn797 O800 2.080 . S
Zn797 O803 2.114 . S
Zn797 O806 2.120 . S
Zn797 O808 2.120 . S
Zn797 O809 2.114 . S
Zn797 O812 2.080 . S
C798 O803 1.166 . S
C798 O804 1.182 . S
C799 O805 1.167 . S
C799 O806 1.299 . S
O800 Zn797 2.080 . S
O800 C814 1.305 1_556 S
O801 Zn795 1.920 . S
O801 C814 1.234 . S
C802 O807 1.167 . S
C802 O808 1.299 1_554 S
O803 Zn797 2.114 . S
O803 C798 1.166 . S
O804 Zn796 1.905 . S
O804 C798 1.182 . S
O805 Zn796 1.898 . S
O805 C799 1.167 . S
O806 Zn797 2.120 . S
O806 C799 1.299 . S
O807 Zn795 1.898 . S
O807 C802 1.167 . S
O808 Zn797 2.120 . S
O808 C802 1.299 1_556 S
O809 Zn797 2.114 . S
O809 C811 1.166 1_556 S
O810 Zn795 1.905 . S
O810 C811 1.182 . S
C811 O809 1.166 1_554 S
C811 O810 1.182 . S
O812 Zn797 2.080 . S
O812 C815 1.305 . S
O813 Zn796 1.920 . S
O813 C815 1.234 . S
C814 O800 1.305 1_554 S
C814 O801 1.234 . S
C815 O812 1.305 . S
C815 O813 1.234 . S
Zn816 O822 1.920 . S
Zn816 O828 1.898 . S
Zn816 O831 1.905 . S
Zn817 O825 1.905 . S
Zn817 O826 1.898 . S
Zn817 O834 1.920 . S
Zn818 O821 2.080 . S
Zn818 O824 2.114 . S
Zn818 O827 2.120 . S
Zn818 O829 2.120 . S
Zn818 O830 2.114 . S
Zn818 O833 2.080 . S
C819 O824 1.166 . S
C819 O825 1.182 . S
C820 O826 1.167 . S
C820 O827 1.299 . S
O821 Zn818 2.080 . S
O821 C835 1.305 . S
O822 Zn816 1.920 . S
O822 C835 1.234 . S
C823 O828 1.167 . S
C823 O829 1.299 . S
O824 Zn818 2.114 . S
O824 C819 1.166 . S
O825 Zn817 1.905 . S
O825 C819 1.182 . S
O826 Zn817 1.898 . S
O826 C820 1.167 . S
O827 Zn818 2.120 . S
O827 C820 1.299 . S
O828 Zn816 1.898 . S
O828 C823 1.167 . S
O829 Zn818 2.120 . S
O829 C823 1.299 . S
O830 Zn818 2.114 . S
O830 C832 1.166 . S
O831 Zn816 1.905 . S
O831 C832 1.182 . S
C832 O830 1.166 . S
C832 O831 1.182 . S
O833 Zn818 2.080 . S
O833 C836 1.305 . S
O834 Zn817 1.920 . S
O834 C836 1.234 . S
C835 O821 1.305 . S
C835 O822 1.234 . S
C836 O833 1.305 . S
C836 O834 1.234 . S
Zn837 O843 1.920 . S
Zn837 O849 1.898 . S
Zn837 O852 1.905 . S
Zn838 O846 1.905 . S
Zn838 O847 1.898 . S
Zn838 O855 1.920 . S
Zn839 O842 2.080 . S
Zn839 O845 2.114 . S
Zn839 O848 2.120 . S
Zn839 O850 2.120 . S
Zn839 O851 2.114 . S
Zn839 O854 2.080 . S
C840 O845 1.166 1_556 S
C840 O846 1.182 . S
C841 O847 1.167 . S
C841 O848 1.299 1_556 S
O842 Zn839 2.080 . S
O842 C856 1.305 . S
O843 Zn837 1.920 . S
O843 C856 1.234 . S
C844 O849 1.167 . S
C844 O850 1.299 . S
O845 Zn839 2.114 . S
O845 C840 1.166 1_554 S
O846 Zn838 1.905 . S
O846 C840 1.182 . S
O847 Zn838 1.898 . S
O847 C841 1.167 . S
O848 Zn839 2.120 . S
O848 C841 1.299 1_554 S
O849 Zn837 1.898 . S
O849 C844 1.167 . S
O850 Zn839 2.120 . S
O850 C844 1.299 . S
O851 Zn839 2.114 . S
O851 C853 1.166 . S
O852 Zn837 1.905 . S
O852 C853 1.182 . S
C853 O851 1.166 . S
C853 O852 1.182 . S
O854 Zn839 2.080 . S
O854 C857 1.305 1_554 S
O855 Zn838 1.920 . S
O855 C857 1.234 . S
C856 O842 1.305 . S
C856 O843 1.234 . S
C857 O854 1.305 1_556 S
C857 O855 1.234 . S
Zn858 O864 1.920 . S
Zn858 O870 1.898 . S
Zn858 O873 1.905 . S
Zn859 O867 1.905 . S
Zn859 O868 1.898 . S
Zn859 O876 1.920 . S
Zn860 O863 2.080 . S
Zn860 O866 2.114 . S
Zn860 O869 2.120 . S
Zn860 O871 2.120 . S
Zn860 O872 2.114 . S
Zn860 O875 2.080 . S
C861 O866 1.166 . S
C861 O867 1.182 . S
C862 O868 1.167 . S
C862 O869 1.299 . S
O863 Zn860 2.080 . S
O863 C877 1.305 . S
O864 Zn858 1.920 . S
O864 C877 1.234 . S
C865 O870 1.167 . S
C865 O871 1.299 . S
O866 Zn860 2.114 . S
O866 C861 1.166 . S
O867 Zn859 1.905 . S
O867 C861 1.182 . S
O868 Zn859 1.898 . S
O868 C862 1.167 . S
O869 Zn860 2.120 . S
O869 C862 1.299 . S
O870 Zn858 1.898 . S
O870 C865 1.167 . S
O871 Zn860 2.120 . S
O871 C865 1.299 . S
O872 Zn860 2.114 . S
O872 C874 1.166 . S
O873 Zn858 1.905 . S
O873 C874 1.182 . S
C874 O872 1.166 . S
C874 O873 1.182 . S
O875 Zn860 2.080 . S
O875 C878 1.305 . S
O876 Zn859 1.920 . S
O876 C878 1.234 . S
C877 O863 1.305 . S
C877 O864 1.234 . S
C878 O875 1.305 . S
C878 O876 1.234 . S
Zn879 O885 1.920 . S
Zn879 O891 1.898 . S
Zn879 O894 1.905 . S
Zn880 O888 1.905 . S
Zn880 O889 1.898 . S
Zn880 O897 1.920 . S
Zn881 O884 2.080 . S
Zn881 O887 2.114 . S
Zn881 O890 2.120 . S
Zn881 O892 2.120 . S
Zn881 O893 2.114 . S
Zn881 O896 2.080 . S
C882 O887 1.166 . S
C882 O888 1.182 . S
C883 O889 1.167 . S
C883 O890 1.299 . S
O884 Zn881 2.080 . S
O884 C898 1.305 . S
O885 Zn879 1.920 . S
O885 C898 1.234 . S
C886 O891 1.167 . S
C886 O892 1.299 . S
O887 Zn881 2.114 . S
O887 C882 1.166 . S
O888 Zn880 1.905 . S
O888 C882 1.182 . S
O889 Zn880 1.898 . S
O889 C883 1.167 . S
O890 Zn881 2.120 . S
O890 C883 1.299 . S
O891 Zn879 1.898 . S
O891 C886 1.167 . S
O892 Zn881 2.120 . S
O892 C886 1.299 . S
O893 Zn881 2.114 . S
O893 C895 1.166 . S
O894 Zn879 1.905 . S
O894 C895 1.182 . S
C895 O893 1.166 . S
C895 O894 1.182 . S
O896 Zn881 2.080 . S
O896 C899 1.305 . S
O897 Zn880 1.920 . S
O897 C899 1.234 . S
C898 O884 1.305 . S
C898 O885 1.234 . S
C899 O896 1.305 . S
C899 O897 1.234 . S
H900 C908 0.950 . S
H901 C913 0.950 . S
H902 C910 0.950 . S
H903 C912 0.950 . S
H904 C914 0.950 . S
H905 C916 0.950 . S
H906 C918 0.950 . S
H907 C919 0.950 . S
C908 H900 0.950 . S
C908 C909 1.386 . S
C908 C910 1.391 . S
C909 C908 1.386 . S
C909 C913 1.393 . S
C910 H902 0.950 . S
C910 C908 1.391 . S
C910 C911 1.400 . S
C911 C910 1.400 . S
C911 C912 1.398 . S
C911 C917 1.491 . S
C912 H903 0.950 . S
C912 C911 1.398 . S
C912 C913 1.391 . S
C913 H901 0.950 . S
C913 C909 1.393 . S
C913 C912 1.391 . S
C914 H904 0.950 . S
C914 C915 1.386 . S
C914 C916 1.391 . S
C915 C914 1.386 . S
C915 C919 1.393 . S
C916 H905 0.950 . S
C916 C914 1.391 . S
C916 C917 1.400 . S
C917 C911 1.491 . S
C917 C916 1.400 . S
C917 C918 1.398 . S
C918 H906 0.950 . S
C918 C917 1.398 . S
C918 C919 1.391 . S
C919 H907 0.950 . S
C919 C915 1.393 . S
C919 C918 1.391 . S
H920 C928 0.950 . S
H921 C933 0.950 . S
H922 C930 0.950 . S
H923 C932 0.950 . S
H924 C934 0.950 1_565 S
H925 C936 0.950 . S
H926 C938 0.950 . S
H927 C939 0.950 . S
C928 H920 0.950 . S
C928 C929 1.386 . S
C928 C930 1.391 . S
C929 C928 1.386 . S
C929 C933 1.393 1_545 S
C930 H922 0.950 . S
C930 C928 1.391 . S
C930 C931 1.400 . S
C931 C930 1.400 . S
C931 C932 1.398 1_545 S
C931 C937 1.491 . S
C932 H923 0.950 . S
C932 C931 1.398 1_565 S
C932 C933 1.391 . S
C933 H921 0.950 . S
C933 C929 1.393 1_565 S
C933 C932 1.391 . S
C934 H924 0.950 1_545 S
C934 C935 1.386 . S
C934 C936 1.391 1_545 S
C935 C934 1.386 . S
C935 C939 1.393 . S
C936 H925 0.950 . S
C936 C934 1.391 1_565 S
C936 C937 1.400 1_565 S
C937 C931 1.491 . S
C937 C936 1.400 1_545 S
C937 C938 1.398 . S
C938 H926 0.950 . S
C938 C937 1.398 . S
C938 C939 1.391 . S
C939 H927 0.950 . S
C939 C935 1.393 . S
C939 C938 1.391 . S
H940 C948 0.950 . S
H941 C953 0.950 . S
H942 C950 0.950 . S
H943 C952 0.950 . S
H944 C954 0.950 . S
H945 C956 0.950 . S
H946 C958 0.950 . S
H947 C959 0.950 . S
C948 H940 0.950 . S
C948 C949 1.386 1_655 S
C948 C950 1.391 . S
C949 C948 1.386 1_455 S
C949 C953 1.393 . S
C950 H942 0.950 . S
C950 C948 1.391 . S
C950 C951 1.400 1_655 S
C951 C950 1.400 1_455 S
C951 C952 1.398 . S
C951 C957 1.491 . S
C952 H943 0.950 . S
C952 C951 1.398 . S
C952 C953 1.391 . S
C953 H941 0.950 . S
C953 C949 1.393 . S
C953 C952 1.391 . S
C954 H944 0.950 . S
C954 C955 1.386 . S
C954 C956 1.391 . S
C955 C954 1.386 . S
C955 C959 1.393 1_455 S
C956 H945 0.950 . S
C956 C954 1.391 . S
C956 C957 1.400 . S
C957 C951 1.491 . S
C957 C956 1.400 . S
C957 C958 1.398 1_455 S
C958 H946 0.950 . S
C958 C957 1.398 1_655 S
C958 C959 1.391 . S
C959 H947 0.950 . S
C959 C955 1.393 1_655 S
C959 C958 1.391 . S
H960 C968 0.950 . S
H961 C973 0.950 . S
H962 C970 0.950 . S
H963 C972 0.950 . S
H964 C974 0.950 . S
H965 C976 0.950 . S
H966 C978 0.950 . S
H967 C979 0.950 . S
C968 H960 0.950 . S
C968 C969 1.386 . S
C968 C970 1.391 . S
C969 C968 1.386 . S
C969 C973 1.393 . S
C970 H962 0.950 . S
C970 C968 1.391 . S
C970 C971 1.400 . S
C971 C970 1.400 . S
C971 C972 1.398 . S
C971 C977 1.491 . S
C972 H963 0.950 . S
C972 C971 1.398 . S
C972 C973 1.391 . S
C973 H961 0.950 . S
C973 C969 1.393 . S
C973 C972 1.391 . S
C974 H964 0.950 . S
C974 C975 1.386 . S
C974 C976 1.391 . S
C975 C974 1.386 . S
C975 C979 1.393 . S
C976 H965 0.950 . S
C976 C974 1.391 . S
C976 C977 1.400 . S
C977 C971 1.491 . S
C977 C976 1.400 . S
C977 C978 1.398 . S
C978 H966 0.950 . S
C978 C977 1.398 . S
C978 C979 1.391 . S
C979 H967 0.950 . S
C979 C975 1.393 . S
C979 C978 1.391 . S
H980 C988 0.950 . S
H981 C993 0.950 . S
H982 C990 0.950 . S
H983 C992 0.950 . S
H984 C994 0.950 . S
H985 C996 0.950 . S
H986 C998 0.950 . S
H987 C999 0.950 . S
C988 H980 0.950 . S
C988 C989 1.386 . S
C988 C990 1.391 . S
C989 C988 1.386 . S
C989 C993 1.393 1_545 S
C990 H982 0.950 . S
C990 C988 1.391 . S
C990 C991 1.400 . S
C991 C990 1.400 . S
C991 C992 1.398 1_545 S
C991 C997 1.491 . S
C992 H983 0.950 . S
C992 C991 1.398 1_565 S
C992 C993 1.391 . S
C993 H981 0.950 . S
C993 C989 1.393 1_565 S
C993 C992 1.391 . S
C994 H984 0.950 . S
C994 C995 1.386 1_565 S
C994 C996 1.391 . S
C995 C994 1.386 1_545 S
C995 C999 1.393 . S
C996 H985 0.950 . S
C996 C994 1.391 . S
C996 C997 1.400 1_565 S
C997 C991 1.491 . S
C997 C996 1.400 1_545 S
C997 C998 1.398 . S
C998 H986 0.950 . S
C998 C997 1.398 . S
C998 C999 1.391 . S
C999 H987 0.950 . S
C999 C995 1.393 . S
C999 C998 1.391 . S
H1000 C1008 0.950 . S
H1001 C1013 0.950 . S
H1002 C1010 0.950 . S
H1003 C1012 0.950 . S
H1004 C1014 0.950 . S
H1005 C1016 0.950 . S
H1006 C1018 0.950 . S
H1007 C1019 0.950 . S
C1008 H1000 0.950 . S
C1008 C1009 1.386 . S
C1008 C1010 1.391 . S
C1009 C1008 1.386 . S
C1009 C1013 1.393 1_455 S
C1010 H1002 0.950 . S
C1010 C1008 1.391 . S
C1010 C1011 1.400 . S
C1011 C1010 1.400 . S
C1011 C1012 1.398 1_455 S
C1011 C1017 1.491 . S
C1012 H1003 0.950 . S
C1012 C1011 1.398 1_655 S
C1012 C1013 1.391 . S
C1013 H1001 0.950 . S
C1013 C1009 1.393 1_655 S
C1013 C1012 1.391 . S
C1014 H1004 0.950 . S
C1014 C1015 1.386 1_655 S
C1014 C1016 1.391 . S
C1015 C1014 1.386 1_455 S
C1015 C1019 1.393 . S
C1016 H1005 0.950 . S
C1016 C1014 1.391 . S
C1016 C1017 1.400 1_655 S
C1017 C1011 1.491 . S
C1017 C1016 1.400 1_455 S
C1017 C1018 1.398 . S
C1018 H1006 0.950 . S
C1018 C1017 1.398 . S
C1018 C1019 1.391 . S
C1019 H1007 0.950 . S
C1019 C1015 1.393 . S
C1019 C1018 1.391 . S
H1020 C1028 0.950 . S
H1021 C1033 0.950 . S
H1022 C1030 0.950 . S
H1023 C1032 0.950 . S
H1024 C1034 0.950 . S
H1025 C1036 0.950 . S
H1026 C1038 0.950 . S
H1027 C1039 0.950 . S
C1028 H1020 0.950 . S
C1028 C1029 1.386 . S
C1028 C1030 1.391 . S
C1029 C1028 1.386 . S
C1029 C1033 1.393 . S
C1030 H1022 0.950 . S
C1030 C1028 1.391 . S
C1030 C1031 1.400 . S
C1031 C1030 1.400 . S
C1031 C1032 1.398 . S
C1031 C1037 1.491 . S
C1032 H1023 0.950 . S
C1032 C1031 1.398 . S
C1032 C1033 1.391 . S
C1033 H1021 0.950 . S
C1033 C1029 1.393 . S
C1033 C1032 1.391 . S
C1034 H1024 0.950 . S
C1034 C1035 1.386 . S
C1034 C1036 1.391 . S
C1035 C1034 1.386 . S
C1035 C1039 1.393 . S
C1036 H1025 0.950 . S
C1036 C1034 1.391 . S
C1036 C1037 1.400 . S
C1037 C1031 1.491 . S
C1037 C1036 1.400 . S
C1037 C1038 1.398 . S
C1038 H1026 0.950 . S
C1038 C1037 1.398 . S
C1038 C1039 1.391 . S
C1039 H1027 0.950 . S
C1039 C1035 1.393 . S
C1039 C1038 1.391 . S
H1040 C1048 0.950 . S
H1041 C1053 0.950 . S
H1042 C1050 0.950 . S
H1043 C1052 0.950 . S
H1044 C1054 0.950 . S
H1045 C1056 0.950 . S
H1046 C1058 0.950 . S
H1047 C1059 0.950 . S
C1048 H1040 0.950 . S
C1048 C1049 1.386 . S
C1048 C1050 1.391 . S
C1049 C1048 1.386 . S
C1049 C1053 1.393 1_545 S
C1050 H1042 0.950 . S
C1050 C1048 1.391 . S
C1050 C1051 1.400 . S
C1051 C1050 1.400 . S
C1051 C1052 1.398 1_545 S
C1051 C1057 1.491 . S
C1052 H1043 0.950 . S
C1052 C1051 1.398 1_565 S
C1052 C1053 1.391 . S
C1053 H1041 0.950 . S
C1053 C1049 1.393 1_565 S
C1053 C1052 1.391 . S
C1054 H1044 0.950 . S
C1054 C1055 1.386 . S
C1054 C1056 1.391 . S
C1055 C1054 1.386 . S
C1055 C1059 1.393 1_565 S
C1056 H1045 0.950 . S
C1056 C1054 1.391 . S
C1056 C1057 1.400 1_565 S
C1057 C1051 1.491 . S
C1057 C1056 1.400 1_545 S
C1057 C1058 1.398 . S
C1058 H1046 0.950 . S
C1058 C1057 1.398 . S
C1058 C1059 1.391 . S
C1059 H1047 0.950 . S
C1059 C1055 1.393 1_545 S
C1059 C1058 1.391 . S
H1060 C1068 0.950 1_655 S
H1061 C1073 0.950 . S
H1062 C1070 0.950 . S
H1063 C1072 0.950 . S
H1064 C1074 0.950 . S
H1065 C1076 0.950 . S
H1066 C1078 0.950 . S
H1067 C1079 0.950 . S
C1068 H1060 0.950 1_455 S
C1068 C1069 1.386 . S
C1068 C1070 1.391 . S
C1069 C1068 1.386 . S
C1069 C1073 1.393 . S
C1070 H1062 0.950 . S
C1070 C1068 1.391 . S
C1070 C1071 1.400 . S
C1071 C1070 1.400 . S
C1071 C1072 1.398 . S
C1071 C1077 1.491 . S
C1072 H1063 0.950 . S
C1072 C1071 1.398 . S
C1072 C1073 1.391 . S
C1073 H1061 0.950 . S
C1073 C1069 1.393 . S
C1073 C1072 1.391 . S
C1074 H1064 0.950 . S
C1074 C1075 1.386 . S
C1074 C1076 1.391 . S
C1075 C1074 1.386 . S
C1075 C1079 1.393 . S
C1076 H1065 0.950 . S
C1076 C1074 1.391 . S
C1076 C1077 1.400 . S
C1077 C1071 1.491 . S
C1077 C1076 1.400 . S
C1077 C1078 1.398 . S
C1078 H1066 0.950 . S
C1078 C1077 1.398 . S
C1078 C1079 1.391 . S
C1079 H1067 0.950 . S
C1079 C1075 1.393 . S
C1079 C1078 1.391 . S
H1080 C1088 0.950 . S
H1081 C1093 0.950 . S
H1082 C1090 0.950 . S
H1083 C1092 0.950 . S
H1084 C1094 0.950 . S
H1085 C1096 0.950 . S
H1086 C1098 0.950 . S
H1087 C1099 0.950 . S
C1088 H1080 0.950 . S
C1088 C1089 1.386 . S
C1088 C1090 1.391 . S
C1089 C1088 1.386 . S
C1089 C1093 1.393 . S
C1090 H1082 0.950 . S
C1090 C1088 1.391 . S
C1090 C1091 1.400 . S
C1091 C1090 1.400 . S
C1091 C1092 1.398 . S
C1091 C1097 1.491 . S
C1092 H1083 0.950 . S
C1092 C1091 1.398 . S
C1092 C1093 1.391 . S
C1093 H1081 0.950 . S
C1093 C1089 1.393 . S
C1093 C1092 1.391 . S
C1094 H1084 0.950 . S
C1094 C1095 1.386 . S
C1094 C1096 1.391 . S
C1095 C1094 1.386 . S
C1095 C1099 1.393 . S
C1096 H1085 0.950 . S
C1096 C1094 1.391 . S
C1096 C1097 1.400 . S
C1097 C1091 1.491 . S
C1097 C1096 1.400 . S
C1097 C1098 1.398 . S
C1098 H1086 0.950 . S
C1098 C1097 1.398 . S
C1098 C1099 1.391 . S
C1099 H1087 0.950 . S
C1099 C1095 1.393 . S
C1099 C1098 1.391 . S
H1100 C1108 0.950 . S
H1101 C1113 0.950 . S
H1102 C1110 0.950 . S
H1103 C1112 0.965 . S
H1104 C1114 0.950 1_565 S
H1105 C1116 0.950 1_565 S
H1106 C1118 0.950 . S
H1107 C1119 0.950 . S
C1108 H1100 0.950 . S
C1108 C1109 1.386 . S
C1108 C1110 1.391 . S
C1109 C1108 1.386 . S
C1109 C1113 1.393 1_545 S
C1110 H1102 0.950 . S
C1110 C1108 1.391 . S
C1110 C1111 1.400 . S
C1111 C1110 1.400 . S
C1111 C1112 1.368 1_545 S
C1111 C1117 1.491 . S
C1112 H1103 0.965 . S
C1112 C1111 1.368 1_565 S
C1112 C1113 1.406 . S
C1113 H1101 0.950 . S
C1113 C1109 1.393 1_565 S
C1113 C1112 1.406 . S
C1114 H1104 0.950 1_545 S
C1114 C1115 1.386 . S
C1114 C1116 1.391 . S
C1115 C1114 1.386 . S
C1115 C1119 1.393 . S
C1116 H1105 0.950 1_545 S
C1116 C1114 1.391 . S
C1116 C1117 1.400 . S
C1117 C1111 1.491 . S
C1117 C1116 1.400 . S
C1117 C1118 1.398 . S
C1118 H1106 0.950 . S
C1118 C1117 1.398 . S
C1118 C1119 1.391 . S
C1119 H1107 0.950 . S
C1119 C1115 1.393 . S
C1119 C1118 1.391 . S
H1120 C1128 0.950 . S
H1121 C1133 0.950 . S
H1122 C1130 0.950 . S
H1123 C1132 0.950 . S
H1124 C1134 0.950 . S
H1125 C1136 0.950 . S
H1126 C1138 0.950 . S
H1127 C1139 0.950 . S
C1128 H1120 0.950 . S
C1128 C1129 1.386 1_655 S
C1128 C1130 1.391 . S
C1129 C1128 1.386 1_455 S
C1129 C1133 1.393 . S
C1130 H1122 0.950 . S
C1130 C1128 1.391 . S
C1130 C1131 1.400 1_655 S
C1131 C1130 1.400 1_455 S
C1131 C1132 1.398 . S
C1131 C1137 1.491 . S
C1132 H1123 0.950 . S
C1132 C1131 1.398 . S
C1132 C1133 1.391 . S
C1133 H1121 0.950 . S
C1133 C1129 1.393 . S
C1133 C1132 1.391 . S
C1134 H1124 0.950 . S
C1134 C1135 1.386 . S
C1134 C1136 1.391 . S
C1135 C1134 1.386 . S
C1135 C1139 1.393 1_455 S
C1136 H1125 0.950 . S
C1136 C1134 1.391 . S
C1136 C1137 1.400 . S
C1137 C1131 1.491 . S
C1137 C1136 1.400 . S
C1137 C1138 1.398 1_455 S
C1138 H1126 0.950 . S
C1138 C1137 1.398 1_655 S
C1138 C1139 1.391 . S
C1139 H1127 0.950 . S
C1139 C1135 1.393 1_655 S
C1139 C1138 1.391 . S
H1140 C1148 0.950 . S
H1141 C1153 0.950 . S
H1142 C1150 0.950 . S
H1143 C1152 0.950 . S
H1144 C1154 0.950 . S
H1145 C1156 0.950 . S
H1146 C1158 0.950 . S
H1147 C1159 0.950 . S
C1148 H1140 0.950 . S
C1148 C1149 1.386 . S
C1148 C1150 1.391 . S
C1149 C1148 1.386 . S
C1149 C1153 1.393 . S
C1150 H1142 0.950 . S
C1150 C1148 1.391 . S
C1150 C1151 1.400 . S
C1151 C1150 1.400 . S
C1151 C1152 1.398 . S
C1151 C1157 1.491 . S
C1152 H1143 0.950 . S
C1152 C1151 1.398 . S
C1152 C1153 1.391 . S
C1153 H1141 0.950 . S
C1153 C1149 1.393 . S
C1153 C1152 1.391 . S
C1154 H1144 0.950 . S
C1154 C1155 1.386 . S
C1154 C1156 1.391 . S
C1155 C1154 1.386 . S
C1155 C1159 1.393 . S
C1156 H1145 0.950 . S
C1156 C1154 1.391 . S
C1156 C1157 1.400 . S
C1157 C1151 1.491 . S
C1157 C1156 1.400 . S
C1157 C1158 1.398 . S
C1158 H1146 0.950 . S
C1158 C1157 1.398 . S
C1158 C1159 1.391 . S
C1159 H1147 0.950 . S
C1159 C1155 1.393 . S
C1159 C1158 1.391 . S
H1160 C1168 0.950 . S
H1161 C1173 0.950 . S
H1162 C1170 0.950 . S
H1163 C1172 0.950 . S
H1164 C1174 0.950 . S
H1165 C1176 0.950 . S
H1166 C1178 0.950 . S
H1167 C1179 0.950 . S
C1168 H1160 0.950 . S
C1168 C1169 1.386 . S
C1168 C1170 1.391 . S
C1169 C1168 1.386 . S
C1169 C1173 1.393 . S
C1170 H1162 0.950 . S
C1170 C1168 1.391 . S
C1170 C1171 1.400 . S
C1171 C1170 1.400 . S
C1171 C1172 1.398 . S
C1171 C1177 1.491 . S
C1172 H1163 0.950 . S
C1172 C1171 1.398 . S
C1172 C1173 1.391 . S
C1173 H1161 0.950 . S
C1173 C1169 1.393 . S
C1173 C1172 1.391 . S
C1174 H1164 0.950 . S
C1174 C1175 1.386 . S
C1174 C1176 1.391 . S
C1175 C1174 1.386 . S
C1175 C1179 1.393 . S
C1176 H1165 0.950 . S
C1176 C1174 1.391 . S
C1176 C1177 1.400 . S
C1177 C1171 1.491 . S
C1177 C1176 1.400 . S
C1177 C1178 1.398 . S
C1178 H1166 0.950 . S
C1178 C1177 1.398 . S
C1178 C1179 1.391 . S
C1179 H1167 0.950 . S
C1179 C1175 1.393 . S
C1179 C1178 1.391 . S
H1180 C1188 0.950 . S
H1181 C1193 0.950 . S
H1182 C1190 0.950 . S
H1183 C1192 0.950 . S
H1184 C1194 0.950 . S
H1185 C1196 0.950 . S
H1186 C1198 0.950 . S
H1187 C1199 0.950 . S
C1188 H1180 0.950 . S
C1188 C1189 1.386 . S
C1188 C1190 1.391 . S
C1189 C1188 1.386 . S
C1189 C1193 1.393 . S
C1190 H1182 0.950 . S
C1190 C1188 1.391 . S
C1190 C1191 1.400 . S
C1191 C1190 1.400 . S
C1191 C1192 1.398 . S
C1191 C1197 1.491 . S
C1192 H1183 0.950 . S
C1192 C1191 1.398 . S
C1192 C1193 1.391 . S
C1193 H1181 0.950 . S
C1193 C1189 1.393 . S
C1193 C1192 1.391 . S
C1194 H1184 0.950 . S
C1194 C1195 1.386 . S
C1194 C1196 1.391 . S
C1195 C1194 1.386 . S
C1195 C1199 1.393 . S
C1196 H1185 0.950 . S
C1196 C1194 1.391 . S
C1196 C1197 1.400 . S
C1197 C1191 1.491 . S
C1197 C1196 1.400 . S
C1197 C1198 1.398 . S
C1198 H1186 0.950 . S
C1198 C1197 1.398 . S
C1198 C1199 1.391 . S
C1199 H1187 0.950 . S
C1199 C1195 1.393 . S
C1199 C1198 1.391 . S
H1200 C1208 0.950 . S
H1201 C1213 0.950 . S
H1202 C1210 0.950 . S
H1203 C1212 0.950 . S
H1204 C1214 0.950 . S
H1205 C1216 0.950 . S
H1206 C1218 0.950 . S
H1207 C1219 0.950 . S
C1208 H1200 0.950 . S
C1208 C1209 1.386 . S
C1208 C1210 1.391 . S
C1209 C1208 1.386 . S
C1209 C1213 1.393 . S
C1210 H1202 0.950 . S
C1210 C1208 1.391 . S
C1210 C1211 1.400 . S
C1211 C1210 1.400 . S
C1211 C1212 1.398 . S
C1211 C1217 1.491 . S
C1212 H1203 0.950 . S
C1212 C1211 1.398 . S
C1212 C1213 1.391 . S
C1213 H1201 0.950 . S
C1213 C1209 1.393 . S
C1213 C1212 1.391 . S
C1214 H1204 0.950 . S
C1214 C1215 1.386 . S
C1214 C1216 1.391 . S
C1215 C1214 1.386 . S
C1215 C1219 1.393 . S
C1216 H1205 0.950 . S
C1216 C1214 1.391 . S
C1216 C1217 1.400 . S
C1217 C1211 1.491 . S
C1217 C1216 1.400 . S
C1217 C1218 1.398 . S
C1218 H1206 0.950 . S
C1218 C1217 1.398 . S
C1218 C1219 1.391 . S
C1219 H1207 0.950 . S
C1219 C1215 1.393 . S
C1219 C1218 1.391 . S
H1220 C1228 0.950 . S
H1221 C1233 0.950 . S
H1222 C1230 0.950 . S
H1223 C1232 0.950 . S
H1224 C1234 0.950 . S
H1225 C1236 0.950 . S
H1226 C1238 0.950 . S
H1227 C1239 0.950 . S
C1228 H1220 0.950 . S
C1228 C1229 1.386 . S
C1228 C1230 1.391 . S
C1229 C1228 1.386 . S
C1229 C1233 1.393 . S
C1230 H1222 0.950 . S
C1230 C1228 1.391 . S
C1230 C1231 1.400 . S
C1231 C1230 1.400 . S
C1231 C1232 1.398 . S
C1231 C1237 1.491 . S
C1232 H1223 0.950 . S
C1232 C1231 1.398 . S
C1232 C1233 1.391 . S
C1233 H1221 0.950 . S
C1233 C1229 1.393 . S
C1233 C1232 1.391 . S
C1234 H1224 0.950 . S
C1234 C1235 1.386 . S
C1234 C1236 1.391 . S
C1235 C1234 1.386 . S
C1235 C1239 1.393 . S
C1236 H1225 0.950 . S
C1236 C1234 1.391 . S
C1236 C1237 1.400 . S
C1237 C1231 1.491 . S
C1237 C1236 1.400 . S
C1237 C1238 1.398 . S
C1238 H1226 0.950 . S
C1238 C1237 1.398 . S
C1238 C1239 1.391 . S
C1239 H1227 0.950 . S
C1239 C1235 1.393 . S
C1239 C1238 1.391 . S
H1240 C1248 0.950 . S
H1241 C1253 0.950 . S
H1242 C1250 0.950 . S
H1243 C1252 0.950 . S
H1244 C1254 0.950 . S
H1245 C1256 0.950 . S
H1246 C1258 0.950 . S
H1247 C1259 0.950 . S
C1248 H1240 0.950 . S
C1248 C1249 1.386 . S
C1248 C1250 1.391 . S
C1249 C1248 1.386 . S
C1249 C1253 1.393 . S
C1250 H1242 0.950 . S
C1250 C1248 1.391 . S
C1250 C1251 1.400 . S
C1251 C1250 1.400 . S
C1251 C1252 1.398 . S
C1251 C1257 1.491 . S
C1252 H1243 0.950 . S
C1252 C1251 1.398 . S
C1252 C1253 1.391 . S
C1253 H1241 0.950 . S
C1253 C1249 1.393 . S
C1253 C1252 1.391 . S
C1254 H1244 0.950 . S
C1254 C1255 1.386 . S
C1254 C1256 1.391 . S
C1255 C1254 1.386 . S
C1255 C1259 1.393 . S
C1256 H1245 0.950 . S
C1256 C1254 1.391 . S
C1256 C1257 1.400 . S
C1257 C1251 1.491 . S
C1257 C1256 1.400 . S
C1257 C1258 1.398 . S
C1258 H1246 0.950 . S
C1258 C1257 1.398 . S
C1258 C1259 1.391 . S
C1259 H1247 0.950 . S
C1259 C1255 1.393 . S
C1259 C1258 1.391 . S
H1260 C1268 0.950 . S
H1261 C1273 0.950 . S
H1262 C1270 0.950 . S
H1263 C1272 0.950 . S
H1264 C1274 0.950 . S
H1265 C1276 0.950 . S
H1266 C1278 0.950 . S
H1267 C1279 0.950 . S
C1268 H1260 0.950 . S
C1268 C1269 1.386 . S
C1268 C1270 1.391 . S
C1269 C1268 1.386 . S
C1269 C1273 1.393 . S
C1270 H1262 0.950 . S
C1270 C1268 1.391 . S
C1270 C1271 1.400 . S
C1271 C1270 1.400 . S
C1271 C1272 1.398 . S
C1271 C1277 1.491 . S
C1272 H1263 0.950 . S
C1272 C1271 1.398 . S
C1272 C1273 1.391 . S
C1273 H1261 0.950 . S
C1273 C1269 1.393 . S
C1273 C1272 1.391 . S
C1274 H1264 0.950 . S
C1274 C1275 1.386 . S
C1274 C1276 1.391 . S
C1275 C1274 1.386 . S
C1275 C1279 1.393 . S
C1276 H1265 0.950 . S
C1276 C1274 1.391 . S
C1276 C1277 1.400 . S
C1277 C1271 1.491 . S
C1277 C1276 1.400 . S
C1277 C1278 1.398 . S
C1278 H1266 0.950 . S
C1278 C1277 1.398 . S
C1278 C1279 1.391 . S
C1279 H1267 0.950 . S
C1279 C1275 1.393 . S
C1279 C1278 1.391 . S
H1280 C1288 0.950 . S
H1281 C1293 0.950 . S
H1282 C1290 0.950 . S
H1283 C1292 0.950 . S
H1284 C1294 0.950 . S
H1285 C1296 0.950 . S
H1286 C1298 0.950 . S
H1287 C1299 0.950 . S
C1288 H1280 0.950 . S
C1288 C1289 1.386 . S
C1288 C1290 1.391 . S
C1289 C1288 1.386 . S
C1289 C1293 1.393 . S
C1290 H1282 0.950 . S
C1290 C1288 1.391 . S
C1290 C1291 1.400 . S
C1291 C1290 1.400 . S
C1291 C1292 1.398 . S
C1291 C1297 1.491 . S
C1292 H1283 0.950 . S
C1292 C1291 1.398 . S
C1292 C1293 1.391 . S
C1293 H1281 0.950 . S
C1293 C1289 1.393 . S
C1293 C1292 1.391 . S
C1294 H1284 0.950 . S
C1294 C1295 1.386 . S
C1294 C1296 1.391 . S
C1295 C1294 1.386 . S
C1295 C1299 1.393 . S
C1296 H1285 0.950 . S
C1296 C1294 1.391 . S
C1296 C1297 1.400 . S
C1297 C1291 1.491 . S
C1297 C1296 1.400 . S
C1297 C1298 1.398 . S
C1298 H1286 0.950 . S
C1298 C1297 1.398 . S
C1298 C1299 1.391 . S
C1299 H1287 0.950 . S
C1299 C1295 1.393 . S
C1299 C1298 1.391 . S
H1300 C1308 0.950 . S
H1301 C1313 0.950 . S
H1302 C1310 0.950 . S
H1303 C1312 0.950 . S
H1304 C1314 0.950 . S
H1305 C1316 0.950 . S
H1306 C1318 0.950 . S
H1307 C1319 0.950 . S
C1308 H1300 0.950 . S
C1308 C1309 1.386 . S
C1308 C1310 1.391 . S
C1309 C1308 1.386 . S
C1309 C1313 1.393 . S
C1310 H1302 0.950 . S
C1310 C1308 1.391 . S
C1310 C1311 1.400 . S
C1311 C1310 1.400 . S
C1311 C1312 1.398 . S
C1311 C1317 1.491 . S
C1312 H1303 0.950 . S
C1312 C1311 1.398 . S
C1312 C1313 1.391 . S
C1313 H1301 0.950 . S
C1313 C1309 1.393 . S
C1313 C1312 1.391 . S
C1314 H1304 0.950 . S
C1314 C1315 1.386 . S
C1314 C1316 1.391 . S
C1315 C1314 1.386 . S
C1315 C1319 1.393 . S
C1316 H1305 0.950 . S
C1316 C1314 1.391 . S
C1316 C1317 1.400 . S
C1317 C1311 1.491 . S
C1317 C1316 1.400 . S
C1317 C1318 1.398 . S
C1318 H1306 0.950 . S
C1318 C1317 1.398 . S
C1318 C1319 1.391 . S
C1319 H1307 0.950 . S
C1319 C1315 1.393 . S
C1319 C1318 1.391 . S
H1320 C1328 0.950 . S
H1321 C1333 0.950 . S
H1322 C1330 0.950 . S
H1323 C1332 0.950 . S
H1324 C1334 0.950 . S
H1325 C1336 0.950 . S
H1326 C1338 0.950 . S
H1327 C1339 0.950 1_556 S
C1328 H1320 0.950 . S
C1328 C1329 1.386 . S
C1328 C1330 1.391 . S
C1329 C1328 1.386 . S
C1329 C1333 1.393 . S
C1330 H1322 0.950 . S
C1330 C1328 1.391 . S
C1330 C1331 1.400 . S
C1331 C1330 1.400 . S
C1331 C1332 1.398 . S
C1331 C1337 1.491 . S
C1332 H1323 0.950 . S
C1332 C1331 1.398 . S
C1332 C1333 1.391 . S
C1333 H1321 0.950 . S
C1333 C1329 1.393 . S
C1333 C1332 1.391 . S
C1334 H1324 0.950 . S
C1334 C1335 1.386 . S
C1334 C1336 1.391 . S
C1335 C1334 1.386 . S
C1335 C1339 1.393 . S
C1336 H1325 0.950 . S
C1336 C1334 1.391 . S
C1336 C1337 1.400 . S
C1337 C1331 1.491 . S
C1337 C1336 1.400 . S
C1337 C1338 1.398 . S
C1338 H1326 0.950 . S
C1338 C1337 1.398 . S
C1338 C1339 1.391 . S
C1339 H1327 0.950 1_554 S
C1339 C1335 1.393 . S
C1339 C1338 1.391 . S
H1340 C1348 0.950 . S
H1341 C1353 0.950 . S
H1342 C1350 0.950 . S
H1343 C1352 0.950 . S
H1344 C1354 0.950 . S
H1345 C1356 0.950 . S
H1346 C1358 0.950 . S
H1347 C1359 0.950 . S
C1348 H1340 0.950 . S
C1348 C1349 1.386 . S
C1348 C1350 1.391 . S
C1349 C1348 1.386 . S
C1349 C1353 1.393 . S
C1350 H1342 0.950 . S
C1350 C1348 1.391 . S
C1350 C1351 1.400 . S
C1351 C1350 1.400 . S
C1351 C1352 1.398 . S
C1351 C1357 1.491 . S
C1352 H1343 0.950 . S
C1352 C1351 1.398 . S
C1352 C1353 1.391 . S
C1353 H1341 0.950 . S
C1353 C1349 1.393 . S
C1353 C1352 1.391 . S
C1354 H1344 0.950 . S
C1354 C1355 1.386 . S
C1354 C1356 1.391 . S
C1355 C1354 1.386 . S
C1355 C1359 1.393 . S
C1356 H1345 0.950 . S
C1356 C1354 1.391 . S
C1356 C1357 1.400 . S
C1357 C1351 1.491 . S
C1357 C1356 1.400 . S
C1357 C1358 1.398 . S
C1358 H1346 0.950 . S
C1358 C1357 1.398 . S
C1358 C1359 1.391 . S
C1359 H1347 0.950 . S
C1359 C1355 1.393 . S
C1359 C1358 1.391 . S
H1360 C1368 0.950 . S
H1361 C1373 0.950 . S
H1362 C1370 0.950 . S
H1363 C1372 0.950 . S
H1364 C1374 0.950 . S
H1365 C1376 0.950 . S
H1366 C1378 0.950 . S
H1367 C1379 0.950 1_556 S
C1368 H1360 0.950 . S
C1368 C1369 1.386 . S
C1368 C1370 1.391 . S
C1369 C1368 1.386 . S
C1369 C1373 1.393 . S
C1370 H1362 0.950 . S
C1370 C1368 1.391 . S
C1370 C1371 1.400 . S
C1371 C1370 1.400 . S
C1371 C1372 1.398 . S
C1371 C1377 1.491 . S
C1372 H1363 0.950 . S
C1372 C1371 1.398 . S
C1372 C1373 1.391 . S
C1373 H1361 0.950 . S
C1373 C1369 1.393 . S
C1373 C1372 1.391 . S
C1374 H1364 0.950 . S
C1374 C1375 1.386 . S
C1374 C1376 1.391 . S
C1375 C1374 1.386 . S
C1375 C1379 1.393 . S
C1376 H1365 0.950 . S
C1376 C1374 1.391 . S
C1376 C1377 1.400 . S
C1377 C1371 1.491 . S
C1377 C1376 1.400 . S
C1377 C1378 1.398 . S
C1378 H1366 0.950 . S
C1378 C1377 1.398 . S
C1378 C1379 1.391 . S
C1379 H1367 0.950 1_554 S
C1379 C1375 1.393 . S
C1379 C1378 1.391 . S
H1380 C1388 0.950 . S
H1381 C1393 0.950 . S
H1382 C1390 0.950 . S
H1383 C1392 0.950 . S
H1384 C1394 0.950 . S
H1385 C1396 0.950 . S
H1386 C1398 0.950 . S
H1387 C1399 0.950 . S
C1388 H1380 0.950 . S
C1388 C1389 1.386 . S
C1388 C1390 1.391 . S
C1389 C1388 1.386 . S
C1389 C1393 1.393 . S
C1390 H1382 0.950 . S
C1390 C1388 1.391 . S
C1390 C1391 1.400 . S
C1391 C1390 1.400 . S
C1391 C1392 1.398 . S
C1391 C1397 1.491 . S
C1392 H1383 0.950 . S
C1392 C1391 1.398 . S
C1392 C1393 1.391 . S
C1393 H1381 0.950 . S
C1393 C1389 1.393 . S
C1393 C1392 1.391 . S
C1394 H1384 0.950 . S
C1394 C1395 1.386 . S
C1394 C1396 1.391 . S
C1395 C1394 1.386 . S
C1395 C1399 1.393 . S
C1396 H1385 0.950 . S
C1396 C1394 1.391 . S
C1396 C1397 1.400 . S
C1397 C1391 1.491 . S
C1397 C1396 1.400 . S
C1397 C1398 1.398 . S
C1398 H1386 0.950 . S
C1398 C1397 1.398 . S
C1398 C1399 1.391 . S
C1399 H1387 0.950 . S
C1399 C1395 1.393 . S
C1399 C1398 1.391 . S
H1400 C1408 0.950 . S
H1401 C1413 0.950 . S
H1402 C1410 0.950 . S
H1403 C1412 0.950 . S
H1404 C1414 0.950 . S
H1405 C1416 0.950 . S
H1406 C1418 0.950 . S
H1407 C1419 0.950 . S
C1408 H1400 0.950 . S
C1408 C1409 1.386 . S
C1408 C1410 1.391 . S
C1409 C1408 1.386 . S
C1409 C1413 1.393 . S
C1410 H1402 0.950 . S
C1410 C1408 1.391 . S
C1410 C1411 1.400 . S
C1411 C1410 1.400 . S
C1411 C1412 1.398 . S
C1411 C1417 1.491 . S
C1412 H1403 0.950 . S
C1412 C1411 1.398 . S
C1412 C1413 1.391 . S
C1413 H1401 0.950 . S
C1413 C1409 1.393 . S
C1413 C1412 1.391 . S
C1414 H1404 0.950 . S
C1414 C1415 1.386 . S
C1414 C1416 1.391 . S
C1415 C1414 1.386 . S
C1415 C1419 1.393 . S
C1416 H1405 0.950 . S
C1416 C1414 1.391 . S
C1416 C1417 1.400 . S
C1417 C1411 1.491 . S
C1417 C1416 1.400 . S
C1417 C1418 1.398 . S
C1418 H1406 0.950 . S
C1418 C1417 1.398 . S
C1418 C1419 1.391 . S
C1419 H1407 0.950 . S
C1419 C1415 1.393 . S
C1419 C1418 1.391 . S
H1420 C1428 0.950 . S
H1421 C1433 0.950 . S
H1422 C1430 0.950 . S
H1423 C1432 0.950 . S
H1424 C1434 0.950 . S
H1425 C1436 0.950 . S
H1426 C1438 0.950 . S
H1427 C1439 0.950 . S
C1428 H1420 0.950 . S
C1428 C1429 1.386 . S
C1428 C1430 1.391 . S
C1429 C1428 1.386 . S
C1429 C1433 1.393 . S
C1430 H1422 0.950 . S
C1430 C1428 1.391 . S
C1430 C1431 1.400 . S
C1431 C1430 1.400 . S
C1431 C1432 1.398 . S
C1431 C1437 1.491 . S
C1432 H1423 0.950 . S
C1432 C1431 1.398 . S
C1432 C1433 1.391 . S
C1433 H1421 0.950 . S
C1433 C1429 1.393 . S
C1433 C1432 1.391 . S
C1434 H1424 0.950 . S
C1434 C1435 1.386 . S
C1434 C1436 1.391 . S
C1435 C1434 1.386 . S
C1435 C1439 1.393 . S
C1436 H1425 0.950 . S
C1436 C1434 1.391 . S
C1436 C1437 1.400 . S
C1437 C1431 1.491 . S
C1437 C1436 1.400 . S
C1437 C1438 1.398 . S
C1438 H1426 0.950 . S
C1438 C1437 1.398 . S
C1438 C1439 1.391 . S
C1439 H1427 0.950 . S
C1439 C1435 1.393 . S
C1439 C1438 1.391 . S
H1440 C1448 0.950 . S
H1441 C1453 0.950 . S
H1442 C1450 0.950 . S
H1443 C1452 0.950 . S
H1444 C1454 0.950 1_554 S
H1445 C1456 0.950 . S
H1446 C1458 0.950 . S
H1447 C1459 0.950 . S
C1448 H1440 0.950 . S
C1448 C1449 1.386 . S
C1448 C1450 1.391 . S
C1449 C1448 1.386 . S
C1449 C1453 1.393 . S
C1450 H1442 0.950 . S
C1450 C1448 1.391 . S
C1450 C1451 1.400 . S
C1451 C1450 1.400 . S
C1451 C1452 1.398 . S
C1451 C1457 1.491 . S
C1452 H1443 0.950 . S
C1452 C1451 1.398 . S
C1452 C1453 1.391 . S
C1453 H1441 0.950 . S
C1453 C1449 1.393 . S
C1453 C1452 1.391 . S
C1454 H1444 0.950 1_556 S
C1454 C1455 1.386 . S
C1454 C1456 1.391 . S
C1455 C1454 1.386 . S
C1455 C1459 1.393 . S
C1456 H1445 0.950 . S
C1456 C1454 1.391 . S
C1456 C1457 1.400 . S
C1457 C1451 1.491 . S
C1457 C1456 1.400 . S
C1457 C1458 1.398 . S
C1458 H1446 0.950 . S
C1458 C1457 1.398 . S
C1458 C1459 1.391 . S
C1459 H1447 0.950 . S
C1459 C1455 1.393 . S
C1459 C1458 1.391 . S
H1460 C1468 0.950 . S
H1461 C1473 0.950 . S
H1462 C1470 0.950 . S
H1463 C1472 0.950 . S
H1464 C1474 0.950 . S
H1465 C1476 0.950 . S
H1466 C1478 0.950 . S
H1467 C1479 0.949 . S
C1468 H1460 0.950 . S
C1468 C1469 1.386 . S
C1468 C1470 1.391 . S
C1469 C1468 1.386 . S
C1469 C1473 1.393 . S
C1470 H1462 0.950 . S
C1470 C1468 1.391 . S
C1470 C1471 1.400 . S
C1471 C1470 1.400 . S
C1471 C1472 1.398 . S
C1471 C1477 1.491 . S
C1472 H1463 0.950 . S
C1472 C1471 1.398 . S
C1472 C1473 1.391 . S
C1473 H1461 0.950 . S
C1473 C1469 1.393 . S
C1473 C1472 1.391 . S
C1474 H1464 0.950 . S
C1474 C1475 1.386 . S
C1474 C1476 1.391 . S
C1475 C1474 1.386 . S
C1475 C1479 1.393 . S
C1476 H1465 0.950 . S
C1476 C1474 1.391 . S
C1476 C1477 1.400 . S
C1477 C1471 1.491 . S
C1477 C1476 1.400 . S
C1477 C1478 1.398 . S
C1478 H1466 0.950 . S
C1478 C1477 1.398 . S
C1478 C1479 1.391 . S
C1479 H1467 0.949 . S
C1479 C1475 1.393 . S
C1479 C1478 1.391 . S
H1480 C1488 0.950 . S
H1481 C1493 0.950 . S
H1482 C1490 0.950 . S
H1483 C1492 0.950 . S
H1484 C1494 0.950 . S
H1485 C1496 0.950 . S
H1486 C1498 0.950 . S
H1487 C1499 0.923 1_554 S
C1488 H1480 0.950 . S
C1488 C1489 1.386 . S
C1488 C1490 1.391 . S
C1489 C1488 1.386 . S
C1489 C1493 1.393 . S
C1490 H1482 0.950 . S
C1490 C1488 1.391 . S
C1490 C1491 1.400 . S
C1491 C1490 1.400 . S
C1491 C1492 1.398 . S
C1491 C1497 1.491 . S
C1492 H1483 0.950 . S
C1492 C1491 1.398 . S
C1492 C1493 1.391 . S
C1493 H1481 0.950 . S
C1493 C1489 1.393 . S
C1493 C1492 1.391 . S
C1494 H1484 0.950 . S
C1494 C1495 1.386 . S
C1494 C1496 1.391 . S
C1495 C1494 1.386 . S
C1495 C1499 1.393 . S
C1496 H1485 0.950 . S
C1496 C1494 1.391 . S
C1496 C1497 1.400 . S
C1497 C1491 1.491 . S
C1497 C1496 1.400 . S
C1497 C1498 1.398 . S
C1498 H1486 0.950 . S
C1498 C1497 1.398 . S
C1498 C1499 1.391 . S
C1499 H1487 0.923 1_556 S
C1499 C1495 1.393 . S
C1499 C1498 1.391 . S
H1500 C1508 0.950 . S
H1501 C1513 0.950 . S
H1502 C1510 0.950 . S
H1503 C1512 0.950 . S
H1504 C1514 0.950 . S
H1505 C1516 0.950 . S
H1506 C1518 0.950 . S
H1507 C1519 0.950 . S
C1508 H1500 0.950 . S
C1508 C1509 1.386 . S
C1508 C1510 1.391 . S
C1509 C1508 1.386 . S
C1509 C1513 1.393 . S
C1510 H1502 0.950 . S
C1510 C1508 1.391 . S
C1510 C1511 1.400 . S
C1511 C1510 1.400 . S
C1511 C1512 1.398 . S
C1511 C1517 1.491 . S
C1512 H1503 0.950 . S
C1512 C1511 1.398 . S
C1512 C1513 1.391 . S
C1513 H1501 0.950 . S
C1513 C1509 1.393 . S
C1513 C1512 1.391 . S
C1514 H1504 0.950 . S
C1514 C1515 1.386 . S
C1514 C1516 1.391 . S
C1515 C1514 1.386 . S
C1515 C1519 1.393 . S
C1516 H1505 0.950 . S
C1516 C1514 1.391 . S
C1516 C1517 1.400 . S
C1517 C1511 1.491 . S
C1517 C1516 1.400 . S
C1517 C1518 1.398 . S
C1518 H1506 0.950 . S
C1518 C1517 1.398 . S
C1518 C1519 1.391 . S
C1519 H1507 0.950 . S
C1519 C1515 1.393 . S
C1519 C1518 1.391 . S
H1520 C1528 0.950 . S
H1521 C1533 0.950 . S
H1522 C1530 0.950 . S
H1523 C1532 0.950 . S
H1524 C1534 0.950 . S
H1525 C1536 0.950 . S
H1526 C1538 0.950 . S
H1527 C1539 0.950 . S
C1528 H1520 0.950 . S
C1528 C1529 1.386 . S
C1528 C1530 1.391 . S
C1529 C1528 1.386 . S
C1529 C1533 1.393 . S
C1530 H1522 0.950 . S
C1530 C1528 1.391 . S
C1530 C1531 1.400 . S
C1531 C1530 1.400 . S
C1531 C1532 1.398 . S
C1531 C1537 1.491 . S
C1532 H1523 0.950 . S
C1532 C1531 1.398 . S
C1532 C1533 1.391 . S
C1533 H1521 0.950 . S
C1533 C1529 1.393 . S
C1533 C1532 1.391 . S
C1534 H1524 0.950 . S
C1534 C1535 1.386 . S
C1534 C1536 1.391 . S
C1535 C1534 1.386 . S
C1535 C1539 1.393 . S
C1536 H1525 0.950 . S
C1536 C1534 1.391 . S
C1536 C1537 1.400 . S
C1537 C1531 1.491 . S
C1537 C1536 1.400 . S
C1537 C1538 1.398 . S
C1538 H1526 0.950 . S
C1538 C1537 1.398 . S
C1538 C1539 1.391 . S
C1539 H1527 0.950 . S
C1539 C1535 1.393 . S
C1539 C1538 1.391 . S
H1540 C1548 0.950 . S
H1541 C1553 0.950 . S
H1542 C1550 0.950 . S
H1543 C1552 0.950 . S
H1544 C1554 0.950 . S
H1545 C1556 0.950 . S
H1546 C1558 0.950 . S
H1547 C1559 0.950 . S
C1548 H1540 0.950 . S
C1548 C1549 1.386 . S
C1548 C1550 1.391 . S
C1549 C1548 1.386 . S
C1549 C1553 1.393 . S
C1550 H1542 0.950 . S
C1550 C1548 1.391 . S
C1550 C1551 1.400 . S
C1551 C1550 1.400 . S
C1551 C1552 1.398 . S
C1551 C1557 1.491 . S
C1552 H1543 0.950 . S
C1552 C1551 1.398 . S
C1552 C1553 1.391 . S
C1553 H1541 0.950 . S
C1553 C1549 1.393 . S
C1553 C1552 1.391 . S
C1554 H1544 0.950 . S
C1554 C1555 1.386 . S
C1554 C1556 1.391 . S
C1555 C1554 1.386 . S
C1555 C1559 1.393 . S
C1556 H1545 0.950 . S
C1556 C1554 1.391 . S
C1556 C1557 1.400 . S
C1557 C1551 1.491 . S
C1557 C1556 1.400 . S
C1557 C1558 1.398 . S
C1558 H1546 0.950 . S
C1558 C1557 1.398 . S
C1558 C1559 1.391 . S
C1559 H1547 0.950 . S
C1559 C1555 1.393 . S
C1559 C1558 1.391 . S
H1560 C1568 0.950 . S
H1561 C1573 0.950 . S
H1562 C1570 0.950 . S
H1563 C1572 0.950 . S
H1564 C1574 0.950 . S
H1565 C1576 0.950 . S
H1566 C1578 0.950 . S
H1567 C1579 0.950 . S
C1568 H1560 0.950 . S
C1568 C1569 1.386 . S
C1568 C1570 1.391 . S
C1569 C1568 1.386 . S
C1569 C1573 1.393 . S
C1570 H1562 0.950 . S
C1570 C1568 1.391 . S
C1570 C1571 1.400 . S
C1571 C1570 1.400 . S
C1571 C1572 1.398 . S
C1571 C1577 1.491 . S
C1572 H1563 0.950 . S
C1572 C1571 1.398 . S
C1572 C1573 1.391 . S
C1573 H1561 0.950 . S
C1573 C1569 1.393 . S
C1573 C1572 1.391 . S
C1574 H1564 0.950 . S
C1574 C1575 1.386 . S
C1574 C1576 1.391 . S
C1575 C1574 1.386 . S
C1575 C1579 1.393 . S
C1576 H1565 0.950 . S
C1576 C1574 1.391 . S
C1576 C1577 1.400 . S
C1577 C1571 1.491 . S
C1577 C1576 1.400 . S
C1577 C1578 1.398 . S
C1578 H1566 0.950 . S
C1578 C1577 1.398 . S
C1578 C1579 1.391 . S
C1579 H1567 0.950 . S
C1579 C1575 1.393 . S
C1579 C1578 1.391 . S
H1580 C1588 0.950 . S
H1581 C1593 0.950 . S
H1582 C1590 0.950 . S
H1583 C1592 0.950 . S
H1584 C1594 0.950 . S
H1585 C1596 0.950 . S
H1586 C1598 0.950 . S
H1587 C1599 0.950 . S
C1588 H1580 0.950 . S
C1588 C1589 1.386 . S
C1588 C1590 1.391 . S
C1589 C1588 1.386 . S
C1589 C1593 1.393 . S
C1590 H1582 0.950 . S
C1590 C1588 1.391 . S
C1590 C1591 1.400 . S
C1591 C1590 1.400 . S
C1591 C1592 1.398 . S
C1591 C1597 1.491 . S
C1592 H1583 0.950 . S
C1592 C1591 1.398 . S
C1592 C1593 1.391 . S
C1593 H1581 0.950 . S
C1593 C1589 1.393 . S
C1593 C1592 1.391 . S
C1594 H1584 0.950 . S
C1594 C1595 1.386 . S
C1594 C1596 1.391 . S
C1595 C1594 1.386 . S
C1595 C1599 1.393 . S
C1596 H1585 0.950 . S
C1596 C1594 1.391 . S
C1596 C1597 1.400 . S
C1597 C1591 1.491 . S
C1597 C1596 1.400 . S
C1597 C1598 1.398 . S
C1598 H1586 0.950 . S
C1598 C1597 1.398 . S
C1598 C1599 1.391 . S
C1599 H1587 0.950 . S
C1599 C1595 1.393 . S
C1599 C1598 1.391 . S
H1600 C1608 0.950 . S
H1601 C1613 0.950 . S
H1602 C1610 0.950 . S
H1603 C1612 0.950 . S
H1604 C1614 0.950 . S
H1605 C1616 0.950 . S
H1606 C1618 0.950 . S
H1607 C1619 0.950 . S
C1608 H1600 0.950 . S
C1608 C1609 1.386 . S
C1608 C1610 1.391 . S
C1609 C1608 1.386 . S
C1609 C1613 1.393 . S
C1610 H1602 0.950 . S
C1610 C1608 1.391 . S
C1610 C1611 1.400 . S
C1611 C1610 1.400 . S
C1611 C1612 1.398 . S
C1611 C1617 1.491 . S
C1612 H1603 0.950 . S
C1612 C1611 1.398 . S
C1612 C1613 1.391 . S
C1613 H1601 0.950 . S
C1613 C1609 1.393 . S
C1613 C1612 1.391 . S
C1614 H1604 0.950 . S
C1614 C1615 1.386 . S
C1614 C1616 1.391 . S
C1615 C1614 1.386 . S
C1615 C1619 1.393 . S
C1616 H1605 0.950 . S
C1616 C1614 1.391 . S
C1616 C1617 1.400 . S
C1617 C1611 1.491 . S
C1617 C1616 1.400 . S
C1617 C1618 1.398 . S
C1618 H1606 0.950 . S
C1618 C1617 1.398 . S
C1618 C1619 1.391 . S
C1619 H1607 0.950 . S
C1619 C1615 1.393 . S
C1619 C1618 1.391 . S
H1620 C1628 0.950 1_565 S
H1621 C1633 0.950 . S
H1622 C1630 0.950 1_565 S
H1623 C1632 0.950 . S
H1624 C1634 0.950 . S
H1625 C1636 0.950 . S
H1626 C1638 0.950 1_565 S
H1627 C1639 0.950 1_565 S
C1628 H1620 0.950 1_545 S
C1628 C1629 1.386 . S
C1628 C1630 1.391 . S
C1629 C1628 1.386 . S
C1629 C1633 1.393 . S
C1630 H1622 0.950 1_545 S
C1630 C1628 1.391 . S
C1630 C1631 1.400 . S
C1631 C1630 1.400 . S
C1631 C1632 1.398 . S
C1631 C1637 1.491 . S
C1632 H1623 0.950 . S
C1632 C1631 1.398 . S
C1632 C1633 1.391 . S
C1633 H1621 0.950 . S
C1633 C1629 1.393 . S
C1633 C1632 1.391 . S
C1634 H1624 0.950 . S
C1634 C1635 1.386 . S
C1634 C1636 1.391 . S
C1635 C1634 1.386 . S
C1635 C1639 1.393 . S
C1636 H1625 0.950 . S
C1636 C1634 1.391 . S
C1636 C1637 1.400 . S
C1637 C1631 1.491 . S
C1637 C1636 1.400 . S
C1637 C1638 1.398 . S
C1638 H1626 0.950 1_545 S
C1638 C1637 1.398 . S
C1638 C1639 1.391 . S
C1639 H1627 0.950 1_545 S
C1639 C1635 1.393 . S
C1639 C1638 1.391 . S
H1640 C1648 0.950 . S
H1641 C1653 0.950 1_455 S
H1642 C1650 0.950 . S
H1643 C1652 0.950 1_455 S
H1644 C1654 0.950 . S
H1645 C1656 0.950 . S
H1646 C1658 0.950 . S
H1647 C1659 0.950 . S
C1648 H1640 0.950 . S
C1648 C1649 1.386 . S
C1648 C1650 1.391 . S
C1649 C1648 1.386 . S
C1649 C1653 1.393 . S
C1650 H1642 0.950 . S
C1650 C1648 1.391 . S
C1650 C1651 1.400 . S
C1651 C1650 1.400 . S
C1651 C1652 1.398 . S
C1651 C1657 1.491 . S
C1652 H1643 0.950 1_655 S
C1652 C1651 1.398 . S
C1652 C1653 1.391 . S
C1653 H1641 0.950 1_655 S
C1653 C1649 1.393 . S
C1653 C1652 1.391 . S
C1654 H1644 0.950 . S
C1654 C1655 1.386 1_455 S
C1654 C1656 1.391 . S
C1655 C1654 1.386 1_655 S
C1655 C1659 1.393 . S
C1656 H1645 0.950 . S
C1656 C1654 1.391 . S
C1656 C1657 1.400 1_455 S
C1657 C1651 1.491 . S
C1657 C1656 1.400 1_655 S
C1657 C1658 1.398 . S
C1658 H1646 0.950 . S
C1658 C1657 1.398 . S
C1658 C1659 1.391 . S
C1659 H1647 0.950 . S
C1659 C1655 1.393 . S
C1659 C1658 1.391 . S
H1660 C1668 0.950 . S
H1661 C1673 0.950 . S
H1662 C1670 0.950 . S
H1663 C1672 0.950 . S
H1664 C1674 0.950 . S
H1665 C1676 0.950 . S
H1666 C1678 0.950 . S
H1667 C1679 0.950 . S
C1668 H1660 0.950 . S
C1668 C1669 1.386 . S
C1668 C1670 1.391 . S
C1669 C1668 1.386 . S
C1669 C1673 1.393 . S
C1670 H1662 0.950 . S
C1670 C1668 1.391 . S
C1670 C1671 1.400 . S
C1671 C1670 1.400 . S
C1671 C1672 1.398 . S
C1671 C1677 1.491 . S
C1672 H1663 0.950 . S
C1672 C1671 1.398 . S
C1672 C1673 1.391 . S
C1673 H1661 0.950 . S
C1673 C1669 1.393 . S
C1673 C1672 1.391 . S
C1674 H1664 0.950 . S
C1674 C1675 1.386 . S
C1674 C1676 1.391 . S
C1675 C1674 1.386 . S
C1675 C1679 1.393 . S
C1676 H1665 0.950 . S
C1676 C1674 1.391 . S
C1676 C1677 1.400 . S
C1677 C1671 1.491 . S
C1677 C1676 1.400 . S
C1677 C1678 1.398 . S
C1678 H1666 0.950 . S
C1678 C1677 1.398 . S
C1678 C1679 1.391 . S
C1679 H1667 0.950 . S
C1679 C1675 1.393 . S
C1679 C1678 1.391 . S
H1680 C1688 0.950 . S
H1681 C1693 0.950 . S
H1682 C1690 0.950 . S
H1683 C1692 0.950 . S
H1684 C1694 0.950 . S
H1685 C1696 0.950 . S
H1686 C1698 0.950 . S
H1687 C1699 0.950 . S
C1688 H1680 0.950 . S
C1688 C1689 1.386 . S
C1688 C1690 1.391 . S
C1689 C1688 1.386 . S
C1689 C1693 1.393 . S
C1690 H1682 0.950 . S
C1690 C1688 1.391 . S
C1690 C1691 1.400 . S
C1691 C1690 1.400 . S
C1691 C1692 1.398 . S
C1691 C1697 1.491 . S
C1692 H1683 0.950 . S
C1692 C1691 1.398 . S
C1692 C1693 1.391 . S
C1693 H1681 0.950 . S
C1693 C1689 1.393 . S
C1693 C1692 1.391 . S
C1694 H1684 0.950 . S
C1694 C1695 1.386 . S
C1694 C1696 1.391 . S
C1695 C1694 1.386 . S
C1695 C1699 1.393 . S
C1696 H1685 0.950 . S
C1696 C1694 1.391 . S
C1696 C1697 1.400 . S
C1697 C1691 1.491 . S
C1697 C1696 1.400 . S
C1697 C1698 1.398 . S
C1698 H1686 0.950 . S
C1698 C1697 1.398 . S
C1698 C1699 1.391 . S
C1699 H1687 0.950 . S
C1699 C1695 1.393 . S
C1699 C1698 1.391 . S
H1700 C1708 0.950 . S
H1701 C1713 0.950 . S
H1702 C1710 0.950 . S
H1703 C1712 0.950 . S
H1704 C1714 0.950 . S
H1705 C1716 0.950 . S
H1706 C1718 0.950 . S
H1707 C1719 0.950 . S
C1708 H1700 0.950 . S
C1708 C1709 1.386 . S
C1708 C1710 1.391 . S
C1709 C1708 1.386 . S
C1709 C1713 1.393 . S
C1710 H1702 0.950 . S
C1710 C1708 1.391 . S
C1710 C1711 1.400 . S
C1711 C1710 1.400 . S
C1711 C1712 1.398 . S
C1711 C1717 1.491 . S
C1712 H1703 0.950 . S
C1712 C1711 1.398 . S
C1712 C1713 1.391 . S
C1713 H1701 0.950 . S
C1713 C1709 1.393 . S
C1713 C1712 1.391 . S
C1714 H1704 0.950 . S
C1714 C1715 1.386 . S
C1714 C1716 1.391 . S
C1715 C1714 1.386 . S
C1715 C1719 1.393 . S
C1716 H1705 0.950 . S
C1716 C1714 1.391 . S
C1716 C1717 1.400 . S
C1717 C1711 1.491 . S
C1717 C1716 1.400 . S
C1717 C1718 1.398 . S
C1718 H1706 0.950 . S
C1718 C1717 1.398 . S
C1718 C1719 1.391 . S
C1719 H1707 0.950 . S
C1719 C1715 1.393 . S
C1719 C1718 1.391 . S
H1720 C1728 0.950 . S
H1721 C1733 0.950 . S
H1722 C1730 0.950 . S
H1723 C1732 0.950 . S
H1724 C1734 0.950 . S
H1725 C1736 0.950 . S
H1726 C1738 0.950 . S
H1727 C1739 0.950 . S
C1728 H1720 0.950 . S
C1728 C1729 1.386 . S
C1728 C1730 1.391 . S
C1729 C1728 1.386 . S
C1729 C1733 1.393 1_565 S
C1730 H1722 0.950 . S
C1730 C1728 1.391 . S
C1730 C1731 1.400 . S
C1731 C1730 1.400 . S
C1731 C1732 1.398 1_565 S
C1731 C1737 1.491 . S
C1732 H1723 0.950 . S
C1732 C1731 1.398 1_545 S
C1732 C1733 1.391 . S
C1733 H1721 0.950 . S
C1733 C1729 1.393 1_545 S
C1733 C1732 1.391 . S
C1734 H1724 0.950 . S
C1734 C1735 1.387 . S
C1734 C1736 1.391 . S
C1735 C1734 1.387 . S
C1735 C1739 1.391 1_545 S
C1736 H1725 0.950 . S
C1736 C1734 1.391 . S
C1736 C1737 1.400 1_545 S
C1737 C1731 1.491 . S
C1737 C1736 1.400 1_565 S
C1737 C1738 1.398 . S
C1738 H1726 0.950 . S
C1738 C1737 1.398 . S
C1738 C1739 1.391 . S
C1739 H1727 0.950 . S
C1739 C1735 1.391 1_565 S
C1739 C1738 1.391 . S
H1740 C1748 0.950 . S
H1741 C1753 0.950 . S
H1742 C1750 0.950 . S
H1743 C1752 0.950 . S
H1744 C1754 0.950 . S
H1745 C1756 0.950 . S
H1746 C1758 0.950 . S
H1747 C1759 0.950 . S
C1748 H1740 0.950 . S
C1748 C1749 1.386 . S
C1748 C1750 1.391 . S
C1749 C1748 1.386 . S
C1749 C1753 1.393 1_565 S
C1750 H1742 0.950 . S
C1750 C1748 1.391 . S
C1750 C1751 1.400 . S
C1751 C1750 1.400 . S
C1751 C1752 1.398 1_565 S
C1751 C1757 1.491 . S
C1752 H1743 0.950 . S
C1752 C1751 1.398 1_545 S
C1752 C1753 1.391 . S
C1753 H1741 0.950 . S
C1753 C1749 1.393 1_545 S
C1753 C1752 1.391 . S
C1754 H1744 0.950 . S
C1754 C1755 1.386 1_545 S
C1754 C1756 1.391 . S
C1755 C1754 1.386 1_565 S
C1755 C1759 1.393 . S
C1756 H1745 0.950 . S
C1756 C1754 1.391 . S
C1756 C1757 1.400 1_545 S
C1757 C1751 1.491 . S
C1757 C1756 1.400 1_565 S
C1757 C1758 1.398 . S
C1758 H1746 0.950 . S
C1758 C1757 1.398 . S
C1758 C1759 1.391 . S
C1759 H1747 0.950 . S
C1759 C1755 1.393 . S
C1759 C1758 1.391 . S
H1760 C1768 0.950 . S
H1761 C1773 0.950 1_655 S
H1762 C1770 0.950 . S
H1763 C1772 0.950 1_655 S
H1764 C1774 0.950 1_655 S
H1765 C1776 0.950 1_655 S
H1766 C1778 0.950 . S
H1767 C1779 0.950 . S
C1768 H1760 0.950 . S
C1768 C1769 1.386 . S
C1768 C1770 1.391 . S
C1769 C1768 1.386 . S
C1769 C1773 1.393 . S
C1770 H1762 0.950 . S
C1770 C1768 1.391 . S
C1770 C1771 1.400 . S
C1771 C1770 1.400 . S
C1771 C1772 1.398 . S
C1771 C1777 1.491 . S
C1772 H1763 0.950 1_455 S
C1772 C1771 1.398 . S
C1772 C1773 1.391 . S
C1773 H1761 0.950 1_455 S
C1773 C1769 1.393 . S
C1773 C1772 1.391 . S
C1774 H1764 0.950 1_455 S
C1774 C1775 1.386 . S
C1774 C1776 1.391 . S
C1775 C1774 1.386 . S
C1775 C1779 1.393 . S
C1776 H1765 0.950 1_455 S
C1776 C1774 1.391 . S
C1776 C1777 1.400 . S
C1777 C1771 1.491 . S
C1777 C1776 1.400 . S
C1777 C1778 1.398 . S
C1778 H1766 0.950 . S
C1778 C1777 1.398 . S
C1778 C1779 1.391 . S
C1779 H1767 0.950 . S
C1779 C1775 1.393 . S
C1779 C1778 1.391 . S
H1780 C1788 0.950 . S
H1781 C1793 0.950 . S
H1782 C1790 0.950 . S
H1783 C1792 0.950 . S
H1784 C1794 0.950 . S
H1785 C1796 0.950 . S
H1786 C1798 0.950 . S
H1787 C1799 0.950 . S
C1788 H1780 0.950 . S
C1788 C1789 1.386 . S
C1788 C1790 1.391 . S
C1789 C1788 1.386 . S
C1789 C1793 1.393 . S
C1790 H1782 0.950 . S
C1790 C1788 1.391 . S
C1790 C1791 1.400 . S
C1791 C1790 1.400 . S
C1791 C1792 1.398 . S
C1791 C1797 1.491 . S
C1792 H1783 0.950 . S
C1792 C1791 1.398 . S
C1792 C1793 1.391 . S
C1793 H1781 0.950 . S
C1793 C1789 1.393 . S
C1793 C1792 1.391 . S
C1794 H1784 0.950 . S
C1794 C1795 1.386 . S
C1794 C1796 1.391 . S
C1795 C1794 1.386 . S
C1795 C1799 1.393 . S
C1796 H1785 0.950 . S
C1796 C1794 1.391 . S
C1796 C1797 1.400 . S
C1797 C1791 1.491 . S
C1797 C1796 1.400 . S
C1797 C1798 1.398 . S
C1798 H1786 0.950 . S
C1798 C1797 1.398 . S
C1798 C1799 1.391 . S
C1799 H1787 0.950 . S
C1799 C1795 1.393 . S
C1799 C1798 1.391 . S
H1800 C1808 0.950 . S
H1801 C1813 0.950 . S
H1802 C1810 0.950 . S
H1803 C1812 0.950 . S
H1804 C1814 0.950 . S
H1805 C1816 0.950 . S
H1806 C1818 0.950 . S
H1807 C1819 0.950 . S
C1808 H1800 0.950 . S
C1808 C1809 1.386 1_455 S
C1808 C1810 1.391 . S
C1809 C1808 1.386 1_655 S
C1809 C1813 1.393 . S
C1810 H1802 0.950 . S
C1810 C1808 1.391 . S
C1810 C1811 1.400 1_455 S
C1811 C1810 1.400 1_655 S
C1811 C1812 1.398 . S
C1811 C1817 1.491 . S
C1812 H1803 0.950 . S
C1812 C1811 1.398 . S
C1812 C1813 1.391 . S
C1813 H1801 0.950 . S
C1813 C1809 1.393 . S
C1813 C1812 1.391 . S
C1814 H1804 0.950 . S
C1814 C1815 1.386 . S
C1814 C1816 1.391 . S
C1815 C1814 1.386 . S
C1815 C1819 1.393 1_655 S
C1816 H1805 0.950 . S
C1816 C1814 1.391 . S
C1816 C1817 1.400 . S
C1817 C1811 1.491 . S
C1817 C1816 1.400 . S
C1817 C1818 1.398 1_655 S
C1818 H1806 0.950 . S
C1818 C1817 1.398 1_455 S
C1818 C1819 1.391 . S
C1819 H1807 0.950 . S
C1819 C1815 1.393 1_455 S
C1819 C1818 1.391 . S
H1820 C1828 0.950 . S
H1821 C1833 0.950 . S
H1822 C1830 0.950 . S
H1823 C1832 0.950 . S
H1824 C1834 0.950 . S
H1825 C1836 0.950 . S
H1826 C1838 0.950 . S
H1827 C1839 0.950 . S
C1828 H1820 0.950 . S
C1828 C1829 1.386 . S
C1828 C1830 1.391 . S
C1829 C1828 1.386 . S
C1829 C1833 1.393 . S
C1830 H1822 0.950 . S
C1830 C1828 1.391 . S
C1830 C1831 1.400 . S
C1831 C1830 1.400 . S
C1831 C1832 1.398 . S
C1831 C1837 1.491 . S
C1832 H1823 0.950 . S
C1832 C1831 1.398 . S
C1832 C1833 1.391 . S
C1833 H1821 0.950 . S
C1833 C1829 1.393 . S
C1833 C1832 1.391 . S
C1834 H1824 0.950 . S
C1834 C1835 1.386 . S
C1834 C1836 1.391 . S
C1835 C1834 1.386 . S
C1835 C1839 1.393 . S
C1836 H1825 0.950 . S
C1836 C1834 1.391 . S
C1836 C1837 1.400 . S
C1837 C1831 1.491 . S
C1837 C1836 1.400 . S
C1837 C1838 1.398 . S
C1838 H1826 0.950 . S
C1838 C1837 1.398 . S
C1838 C1839 1.391 . S
C1839 H1827 0.950 . S
C1839 C1835 1.393 . S
C1839 C1838 1.391 . S
H1840 C1848 0.950 . S
H1841 C1853 0.950 . S
H1842 C1850 0.950 . S
H1843 C1852 0.950 . S
H1844 C1854 0.950 1_565 S
H1845 C1856 0.940 1_565 S
H1846 C1858 0.950 . S
H1847 C1859 0.950 . S
C1848 H1840 0.950 . S
C1848 C1849 1.386 . S
C1848 C1850 1.391 . S
C1849 C1848 1.386 . S
C1849 C1853 1.393 . S
C1850 H1842 0.950 . S
C1850 C1848 1.391 . S
C1850 C1851 1.400 . S
C1851 C1850 1.400 . S
C1851 C1852 1.398 . S
C1851 C1857 1.491 . S
C1852 H1843 0.950 . S
C1852 C1851 1.398 . S
C1852 C1853 1.391 . S
C1853 H1841 0.950 . S
C1853 C1849 1.393 . S
C1853 C1852 1.391 . S
C1854 H1844 0.950 1_545 S
C1854 C1855 1.386 . S
C1854 C1856 1.391 . S
C1855 C1854 1.386 . S
C1855 C1859 1.393 . S
C1856 H1845 0.940 1_545 S
C1856 C1854 1.391 . S
C1856 C1857 1.400 . S
C1857 C1851 1.491 . S
C1857 C1856 1.400 . S
C1857 C1858 1.398 . S
C1858 H1846 0.950 . S
C1858 C1857 1.398 . S
C1858 C1859 1.391 . S
C1859 H1847 0.950 . S
C1859 C1855 1.393 . S
C1859 C1858 1.391 . S
H1860 C1868 0.950 . S
H1861 C1873 0.950 . S
H1862 C1870 0.950 . S
H1863 C1872 0.950 . S
H1864 C1874 0.950 . S
H1865 C1876 0.950 . S
H1866 C1878 0.950 . S
H1867 C1879 0.950 . S
C1868 H1860 0.950 . S
C1868 C1869 1.386 . S
C1868 C1870 1.391 . S
C1869 C1868 1.386 . S
C1869 C1873 1.393 . S
C1870 H1862 0.950 . S
C1870 C1868 1.391 . S
C1870 C1871 1.400 . S
C1871 C1870 1.400 . S
C1871 C1872 1.398 . S
C1871 C1877 1.491 . S
C1872 H1863 0.950 . S
C1872 C1871 1.398 . S
C1872 C1873 1.391 . S
C1873 H1861 0.950 . S
C1873 C1869 1.393 . S
C1873 C1872 1.391 . S
C1874 H1864 0.950 . S
C1874 C1875 1.386 . S
C1874 C1876 1.391 . S
C1875 C1874 1.386 . S
C1875 C1879 1.393 . S
C1876 H1865 0.950 . S
C1876 C1874 1.391 . S
C1876 C1877 1.400 . S
C1877 C1871 1.491 . S
C1877 C1876 1.400 . S
C1877 C1878 1.398 . S
C1878 H1866 0.950 . S
C1878 C1877 1.398 . S
C1878 C1879 1.391 . S
C1879 H1867 0.950 . S
C1879 C1875 1.393 . S
C1879 C1878 1.391 . S
H1880 C1888 0.950 . S
H1881 C1893 0.950 . S
H1882 C1890 0.950 . S
H1883 C1892 0.950 . S
H1884 C1894 0.950 . S
H1885 C1896 0.950 . S
H1886 C1898 0.950 . S
H1887 C1899 0.950 . S
C1888 H1880 0.950 . S
C1888 C1889 1.386 . S
C1888 C1890 1.391 . S
C1889 C1888 1.386 . S
C1889 C1893 1.393 . S
C1890 H1882 0.950 . S
C1890 C1888 1.391 . S
C1890 C1891 1.400 . S
C1891 C1890 1.400 . S
C1891 C1892 1.398 . S
C1891 C1897 1.491 . S
C1892 H1883 0.950 . S
C1892 C1891 1.398 . S
C1892 C1893 1.391 . S
C1893 H1881 0.950 . S
C1893 C1889 1.393 . S
C1893 C1892 1.391 . S
C1894 H1884 0.950 . S
C1894 C1895 1.386 . S
C1894 C1896 1.391 . S
C1895 C1894 1.386 . S
C1895 C1899 1.393 . S
C1896 H1885 0.950 . S
C1896 C1894 1.391 . S
C1896 C1897 1.400 . S
C1897 C1891 1.491 . S
C1897 C1896 1.400 . S
C1897 C1898 1.398 . S
C1898 H1886 0.950 . S
C1898 C1897 1.398 . S
C1898 C1899 1.391 . S
C1899 H1887 0.950 . S
C1899 C1895 1.393 . S
C1899 C1898 1.391 . S
H1900 C1908 0.950 . S
H1901 C1913 0.950 . S
H1902 C1910 0.950 . S
H1903 C1912 0.950 . S
H1904 C1914 0.950 . S
H1905 C1916 0.950 . S
H1906 C1918 0.950 . S
H1907 C1919 0.950 . S
C1908 H1900 0.950 . S
C1908 C1909 1.386 . S
C1908 C1910 1.391 . S
C1909 C1908 1.386 . S
C1909 C1913 1.393 . S
C1910 H1902 0.950 . S
C1910 C1908 1.391 . S
C1910 C1911 1.400 . S
C1911 C1910 1.400 . S
C1911 C1912 1.398 . S
C1911 C1917 1.491 . S
C1912 H1903 0.950 . S
C1912 C1911 1.398 . S
C1912 C1913 1.391 . S
C1913 H1901 0.950 . S
C1913 C1909 1.393 . S
C1913 C1912 1.391 . S
C1914 H1904 0.950 . S
C1914 C1915 1.386 . S
C1914 C1916 1.391 . S
C1915 C1914 1.386 . S
C1915 C1919 1.393 . S
C1916 H1905 0.950 . S
C1916 C1914 1.391 . S
C1916 C1917 1.400 . S
C1917 C1911 1.491 . S
C1917 C1916 1.400 . S
C1917 C1918 1.398 . S
C1918 H1906 0.950 . S
C1918 C1917 1.398 . S
C1918 C1919 1.391 . S
C1919 H1907 0.950 . S
C1919 C1915 1.393 . S
C1919 C1918 1.391 . S
H1920 C1928 0.950 . S
H1921 C1933 0.950 . S
H1922 C1930 0.950 . S
H1923 C1932 0.950 . S
H1924 C1934 0.950 . S
H1925 C1936 0.950 . S
H1926 C1938 0.950 . S
H1927 C1939 0.950 . S
C1928 H1920 0.950 . S
C1928 C1929 1.386 . S
C1928 C1930 1.391 . S
C1929 C1928 1.386 . S
C1929 C1933 1.393 . S
C1930 H1922 0.950 . S
C1930 C1928 1.391 . S
C1930 C1931 1.400 . S
C1931 C1930 1.400 . S
C1931 C1932 1.398 . S
C1931 C1937 1.491 . S
C1932 H1923 0.950 . S
C1932 C1931 1.398 . S
C1932 C1933 1.391 . S
C1933 H1921 0.950 . S
C1933 C1929 1.393 . S
C1933 C1932 1.391 . S
C1934 H1924 0.950 . S
C1934 C1935 1.386 . S
C1934 C1936 1.391 . S
C1935 C1934 1.386 . S
C1935 C1939 1.393 . S
C1936 H1925 0.950 . S
C1936 C1934 1.391 . S
C1936 C1937 1.400 . S
C1937 C1931 1.491 . S
C1937 C1936 1.400 . S
C1937 C1938 1.398 . S
C1938 H1926 0.950 . S
C1938 C1937 1.398 . S
C1938 C1939 1.391 . S
C1939 H1927 0.950 . S
C1939 C1935 1.393 . S
C1939 C1938 1.391 . S
H1940 C1948 0.950 . S
H1941 C1953 0.950 . S
H1942 C1950 0.950 . S
H1943 C1952 0.950 . S
H1944 C1954 0.950 . S
H1945 C1956 0.950 . S
H1946 C1958 0.950 . S
H1947 C1959 0.950 . S
C1948 H1940 0.950 . S
C1948 C1949 1.386 . S
C1948 C1950 1.391 . S
C1949 C1948 1.386 . S
C1949 C1953 1.393 . S
C1950 H1942 0.950 . S
C1950 C1948 1.391 . S
C1950 C1951 1.400 . S
C1951 C1950 1.400 . S
C1951 C1952 1.398 . S
C1951 C1957 1.491 . S
C1952 H1943 0.950 . S
C1952 C1951 1.398 . S
C1952 C1953 1.391 . S
C1953 H1941 0.950 . S
C1953 C1949 1.393 . S
C1953 C1952 1.391 . S
C1954 H1944 0.950 . S
C1954 C1955 1.386 . S
C1954 C1956 1.391 . S
C1955 C1954 1.386 . S
C1955 C1959 1.393 . S
C1956 H1945 0.950 . S
C1956 C1954 1.391 . S
C1956 C1957 1.400 . S
C1957 C1951 1.491 . S
C1957 C1956 1.400 . S
C1957 C1958 1.398 . S
C1958 H1946 0.950 . S
C1958 C1957 1.398 . S
C1958 C1959 1.391 . S
C1959 H1947 0.950 . S
C1959 C1955 1.393 . S
C1959 C1958 1.391 . S
H1960 C1968 0.950 . S
H1961 C1973 0.950 . S
H1962 C1970 0.950 . S
H1963 C1972 0.950 . S
H1964 C1974 0.950 . S
H1965 C1976 0.950 . S
H1966 C1978 0.950 . S
H1967 C1979 0.950 . S
C1968 H1960 0.950 . S
C1968 C1969 1.386 . S
C1968 C1970 1.391 . S
C1969 C1968 1.386 . S
C1969 C1973 1.393 . S
C1970 H1962 0.950 . S
C1970 C1968 1.391 . S
C1970 C1971 1.400 . S
C1971 C1970 1.400 . S
C1971 C1972 1.398 . S
C1971 C1977 1.491 . S
C1972 H1963 0.950 . S
C1972 C1971 1.398 . S
C1972 C1973 1.391 . S
C1973 H1961 0.950 . S
C1973 C1969 1.393 . S
C1973 C1972 1.391 . S
C1974 H1964 0.950 . S
C1974 C1975 1.386 . S
C1974 C1976 1.391 . S
C1975 C1974 1.386 . S
C1975 C1979 1.393 . S
C1976 H1965 0.950 . S
C1976 C1974 1.391 . S
C1976 C1977 1.400 . S
C1977 C1971 1.491 . S
C1977 C1976 1.400 . S
C1977 C1978 1.398 . S
C1978 H1966 0.950 . S
C1978 C1977 1.398 . S
C1978 C1979 1.391 . S
C1979 H1967 0.950 . S
C1979 C1975 1.393 . S
C1979 C1978 1.391 . S
H1980 C1988 0.950 . S
H1981 C1993 0.950 . S
H1982 C1990 0.950 . S
H1983 C1992 0.950 . S
H1984 C1994 0.950 . S
H1985 C1996 0.950 . S
H1986 C1998 0.950 . S
H1987 C1999 0.950 . S
C1988 H1980 0.950 . S
C1988 C1989 1.386 . S
C1988 C1990 1.391 . S
C1989 C1988 1.386 . S
C1989 C1993 1.393 . S
C1990 H1982 0.950 . S
C1990 C1988 1.391 . S
C1990 C1991 1.400 . S
C1991 C1990 1.400 . S
C1991 C1992 1.398 . S
C1991 C1997 1.491 . S
C1992 H1983 0.950 . S
C1992 C1991 1.398 . S
C1992 C1993 1.391 . S
C1993 H1981 0.950 . S
C1993 C1989 1.393 . S
C1993 C1992 1.391 . S
C1994 H1984 0.950 . S
C1994 C1995 1.386 . S
C1994 C1996 1.391 . S
C1995 C1994 1.386 . S
C1995 C1999 1.393 . S
C1996 H1985 0.950 . S
C1996 C1994 1.391 . S
C1996 C1997 1.400 . S
C1997 C1991 1.491 . S
C1997 C1996 1.400 . S
C1997 C1998 1.398 . S
C1998 H1986 0.950 . S
C1998 C1997 1.398 . S
C1998 C1999 1.391 . S
C1999 H1987 0.950 . S
C1999 C1995 1.393 . S
C1999 C1998 1.391 . S
H2000 C2008 0.950 . S
H2001 C2013 0.950 . S
H2002 C2010 0.950 . S
H2003 C2012 0.950 . S
H2004 C2014 0.950 . S
H2005 C2016 0.950 . S
H2006 C2018 0.950 . S
H2007 C2019 0.950 . S
C2008 H2000 0.950 . S
C2008 C2009 1.386 . S
C2008 C2010 1.391 . S
C2009 C2008 1.386 . S
C2009 C2013 1.393 . S
C2010 H2002 0.950 . S
C2010 C2008 1.391 . S
C2010 C2011 1.400 . S
C2011 C2010 1.400 . S
C2011 C2012 1.398 . S
C2011 C2017 1.491 . S
C2012 H2003 0.950 . S
C2012 C2011 1.398 . S
C2012 C2013 1.391 . S
C2013 H2001 0.950 . S
C2013 C2009 1.393 . S
C2013 C2012 1.391 . S
C2014 H2004 0.950 . S
C2014 C2015 1.386 . S
C2014 C2016 1.391 . S
C2015 C2014 1.386 . S
C2015 C2019 1.393 . S
C2016 H2005 0.950 . S
C2016 C2014 1.391 . S
C2016 C2017 1.400 . S
C2017 C2011 1.491 . S
C2017 C2016 1.400 . S
C2017 C2018 1.398 . S
C2018 H2006 0.950 . S
C2018 C2017 1.398 . S
C2018 C2019 1.391 . S
C2019 H2007 0.950 . S
C2019 C2015 1.393 . S
C2019 C2018 1.391 . S
H2020 C2028 0.950 . S
H2021 C2033 0.950 . S
H2022 C2030 0.950 . S
H2023 C2032 0.950 . S
H2024 C2034 0.950 . S
H2025 C2036 0.950 . S
H2026 C2038 0.950 . S
H2027 C2039 0.950 . S
C2028 H2020 0.950 . S
C2028 C2029 1.386 . S
C2028 C2030 1.391 . S
C2029 C2028 1.386 . S
C2029 C2033 1.393 . S
C2030 H2022 0.950 . S
C2030 C2028 1.391 . S
C2030 C2031 1.400 . S
C2031 C2030 1.400 . S
C2031 C2032 1.398 . S
C2031 C2037 1.491 . S
C2032 H2023 0.950 . S
C2032 C2031 1.398 . S
C2032 C2033 1.391 . S
C2033 H2021 0.950 . S
C2033 C2029 1.393 . S
C2033 C2032 1.391 . S
C2034 H2024 0.950 . S
C2034 C2035 1.386 . S
C2034 C2036 1.391 . S
C2035 C2034 1.386 . S
C2035 C2039 1.393 . S
C2036 H2025 0.950 . S
C2036 C2034 1.391 . S
C2036 C2037 1.400 . S
C2037 C2031 1.491 . S
C2037 C2036 1.400 . S
C2037 C2038 1.398 . S
C2038 H2026 0.950 . S
C2038 C2037 1.398 . S
C2038 C2039 1.391 . S
C2039 H2027 0.950 . S
C2039 C2035 1.393 . S
C2039 C2038 1.391 . S
H2040 C2048 0.950 . S
H2041 C2053 0.950 . S
H2042 C2050 0.950 . S
H2043 C2052 0.950 . S
H2044 C2054 0.950 . S
H2045 C2056 0.950 . S
H2046 C2058 0.950 . S
H2047 C2059 0.950 . S
C2048 H2040 0.950 . S
C2048 C2049 1.386 . S
C2048 C2050 1.391 . S
C2049 C2048 1.386 . S
C2049 C2053 1.393 . S
C2050 H2042 0.950 . S
C2050 C2048 1.391 . S
C2050 C2051 1.400 . S
C2051 C2050 1.400 . S
C2051 C2052 1.398 . S
C2051 C2057 1.491 . S
C2052 H2043 0.950 . S
C2052 C2051 1.398 . S
C2052 C2053 1.391 . S
C2053 H2041 0.950 . S
C2053 C2049 1.393 . S
C2053 C2052 1.391 . S
C2054 H2044 0.950 . S
C2054 C2055 1.386 . S
C2054 C2056 1.391 . S
C2055 C2054 1.386 . S
C2055 C2059 1.393 . S
C2056 H2045 0.950 . S
C2056 C2054 1.391 . S
C2056 C2057 1.400 . S
C2057 C2051 1.491 . S
C2057 C2056 1.400 . S
C2057 C2058 1.398 . S
C2058 H2046 0.950 . S
C2058 C2057 1.398 . S
C2058 C2059 1.391 . S
C2059 H2047 0.950 . S
C2059 C2055 1.393 . S
C2059 C2058 1.391 . S
H2060 C2068 0.950 . S
H2061 C2073 0.950 . S
H2062 C2070 0.950 . S
H2063 C2072 0.950 . S
H2064 C2074 0.950 . S
H2065 C2076 0.950 . S
H2066 C2078 0.950 . S
H2067 C2079 0.950 . S
C2068 H2060 0.950 . S
C2068 C2069 1.386 . S
C2068 C2070 1.391 . S
C2069 C2068 1.386 . S
C2069 C2073 1.393 . S
C2070 H2062 0.950 . S
C2070 C2068 1.391 . S
C2070 C2071 1.400 . S
C2071 C2070 1.400 . S
C2071 C2072 1.398 . S
C2071 C2077 1.491 . S
C2072 H2063 0.950 . S
C2072 C2071 1.398 . S
C2072 C2073 1.391 . S
C2073 H2061 0.950 . S
C2073 C2069 1.393 . S
C2073 C2072 1.391 . S
C2074 H2064 0.950 . S
C2074 C2075 1.386 . S
C2074 C2076 1.391 . S
C2075 C2074 1.386 . S
C2075 C2079 1.393 . S
C2076 H2065 0.950 . S
C2076 C2074 1.391 . S
C2076 C2077 1.400 . S
C2077 C2071 1.491 . S
C2077 C2076 1.400 . S
C2077 C2078 1.398 . S
C2078 H2066 0.950 . S
C2078 C2077 1.398 . S
C2078 C2079 1.391 . S
C2079 H2067 0.950 . S
C2079 C2075 1.393 . S
C2079 C2078 1.391 . S
H2080 C2088 0.950 . S
H2081 C2093 0.950 . S
H2082 C2090 0.950 . S
H2083 C2092 0.950 . S
H2084 C2094 0.950 . S
H2085 C2096 0.950 . S
H2086 C2098 0.950 . S
H2087 C2099 0.950 . S
C2088 H2080 0.950 . S
C2088 C2089 1.386 . S
C2088 C2090 1.391 . S
C2089 C2088 1.386 . S
C2089 C2093 1.393 . S
C2090 H2082 0.950 . S
C2090 C2088 1.391 . S
C2090 C2091 1.400 . S
C2091 C2090 1.400 . S
C2091 C2092 1.398 . S
C2091 C2097 1.491 . S
C2092 H2083 0.950 . S
C2092 C2091 1.398 . S
C2092 C2093 1.391 . S
C2093 H2081 0.950 . S
C2093 C2089 1.393 . S
C2093 C2092 1.391 . S
C2094 H2084 0.950 . S
C2094 C2095 1.386 . S
C2094 C2096 1.391 . S
C2095 C2094 1.386 . S
C2095 C2099 1.393 . S
C2096 H2085 0.950 . S
C2096 C2094 1.391 . S
C2096 C2097 1.400 . S
C2097 C2091 1.491 . S
C2097 C2096 1.400 . S
C2097 C2098 1.398 . S
C2098 H2086 0.950 . S
C2098 C2097 1.398 . S
C2098 C2099 1.391 . S
C2099 H2087 0.950 . S
C2099 C2095 1.393 . S
C2099 C2098 1.391 . S
H2100 C2108 0.950 . S
H2101 C2113 0.950 . S
H2102 C2110 0.950 . S
H2103 C2112 0.950 . S
H2104 C2114 0.950 . S
H2105 C2116 0.950 . S
H2106 C2118 0.950 . S
H2107 C2119 0.950 . S
C2108 H2100 0.950 . S
C2108 C2109 1.386 . S
C2108 C2110 1.391 . S
C2109 C2108 1.386 . S
C2109 C2113 1.393 . S
C2110 H2102 0.950 . S
C2110 C2108 1.391 . S
C2110 C2111 1.400 . S
C2111 C2110 1.400 . S
C2111 C2112 1.398 . S
C2111 C2117 1.491 . S
C2112 H2103 0.950 . S
C2112 C2111 1.398 . S
C2112 C2113 1.391 . S
C2113 H2101 0.950 . S
C2113 C2109 1.393 . S
C2113 C2112 1.391 . S
C2114 H2104 0.950 . S
C2114 C2115 1.386 . S
C2114 C2116 1.391 . S
C2115 C2114 1.386 . S
C2115 C2119 1.393 . S
C2116 H2105 0.950 . S
C2116 C2114 1.391 . S
C2116 C2117 1.400 . S
C2117 C2111 1.491 . S
C2117 C2116 1.400 . S
C2117 C2118 1.398 . S
C2118 H2106 0.950 . S
C2118 C2117 1.398 . S
C2118 C2119 1.391 . S
C2119 H2107 0.950 . S
C2119 C2115 1.393 . S
C2119 C2118 1.391 . S
H2120 C2128 0.950 . S
H2121 C2133 0.950 . S
H2122 C2130 0.950 . S
H2123 C2132 0.950 . S
H2124 C2134 0.950 . S
H2125 C2136 0.950 . S
H2126 C2138 0.950 . S
H2127 C2139 0.950 . S
C2128 H2120 0.950 . S
C2128 C2129 1.386 . S
C2128 C2130 1.391 . S
C2129 C2128 1.386 . S
C2129 C2133 1.393 . S
C2130 H2122 0.950 . S
C2130 C2128 1.391 . S
C2130 C2131 1.400 . S
C2131 C2130 1.400 . S
C2131 C2132 1.398 . S
C2131 C2137 1.491 . S
C2132 H2123 0.950 . S
C2132 C2131 1.398 . S
C2132 C2133 1.391 . S
C2133 H2121 0.950 . S
C2133 C2129 1.393 . S
C2133 C2132 1.391 . S
C2134 H2124 0.950 . S
C2134 C2135 1.386 . S
C2134 C2136 1.391 . S
C2135 C2134 1.386 . S
C2135 C2139 1.393 . S
C2136 H2125 0.950 . S
C2136 C2134 1.391 . S
C2136 C2137 1.400 . S
C2137 C2131 1.491 . S
C2137 C2136 1.400 . S
C2137 C2138 1.398 . S
C2138 H2126 0.950 . S
C2138 C2137 1.398 . S
C2138 C2139 1.391 . S
C2139 H2127 0.950 . S
C2139 C2135 1.393 . S
C2139 C2138 1.391 . S
H2140 C2148 0.950 . S
H2141 C2153 0.950 . S
H2142 C2150 0.950 . S
H2143 C2152 0.950 . S
H2144 C2154 0.950 . S
H2145 C2156 0.950 . S
H2146 C2158 0.950 . S
H2147 C2159 0.950 . S
C2148 H2140 0.950 . S
C2148 C2149 1.386 . S
C2148 C2150 1.391 . S
C2149 C2148 1.386 . S
C2149 C2153 1.393 . S
C2150 H2142 0.950 . S
C2150 C2148 1.391 . S
C2150 C2151 1.400 . S
C2151 C2150 1.400 . S
C2151 C2152 1.398 . S
C2151 C2157 1.491 . S
C2152 H2143 0.950 . S
C2152 C2151 1.398 . S
C2152 C2153 1.391 . S
C2153 H2141 0.950 . S
C2153 C2149 1.393 . S
C2153 C2152 1.391 . S
C2154 H2144 0.950 . S
C2154 C2155 1.386 . S
C2154 C2156 1.391 . S
C2155 C2154 1.386 . S
C2155 C2159 1.393 . S
C2156 H2145 0.950 . S
C2156 C2154 1.391 . S
C2156 C2157 1.400 . S
C2157 C2151 1.491 . S
C2157 C2156 1.400 . S
C2157 C2158 1.398 . S
C2158 H2146 0.950 . S
C2158 C2157 1.398 . S
C2158 C2159 1.391 . S
C2159 H2147 0.950 . S
C2159 C2155 1.393 . S
C2159 C2158 1.391 . S
H2160 C2168 0.950 . S
H2161 C2173 0.950 . S
H2162 C2170 0.950 . S
H2163 C2172 0.950 . S
H2164 C2174 0.950 . S
H2165 C2176 0.950 . S
H2166 C2178 0.950 . S
H2167 C2179 0.950 . S
C2168 H2160 0.950 . S
C2168 C2169 1.386 . S
C2168 C2170 1.391 . S
C2169 C2168 1.386 . S
C2169 C2173 1.393 . S
C2170 H2162 0.950 . S
C2170 C2168 1.391 . S
C2170 C2171 1.400 . S
C2171 C2170 1.400 . S
C2171 C2172 1.398 . S
C2171 C2177 1.491 . S
C2172 H2163 0.950 . S
C2172 C2171 1.398 . S
C2172 C2173 1.391 . S
C2173 H2161 0.950 . S
C2173 C2169 1.393 . S
C2173 C2172 1.391 . S
C2174 H2164 0.950 . S
C2174 C2175 1.386 . S
C2174 C2176 1.391 . S
C2175 C2174 1.386 . S
C2175 C2179 1.393 . S
C2176 H2165 0.950 . S
C2176 C2174 1.391 . S
C2176 C2177 1.400 . S
C2177 C2171 1.491 . S
C2177 C2176 1.400 . S
C2177 C2178 1.398 . S
C2178 H2166 0.950 . S
C2178 C2177 1.398 . S
C2178 C2179 1.391 . S
C2179 H2167 0.950 . S
C2179 C2175 1.393 . S
C2179 C2178 1.391 . S
H2180 C2188 0.950 . S
H2181 C2193 0.950 . S
H2182 C2190 0.950 . S
H2183 C2192 0.950 . S
H2184 C2194 0.950 . S
H2185 C2196 0.950 . S
H2186 C2198 0.950 . S
H2187 C2199 0.950 . S
C2188 H2180 0.950 . S
C2188 C2189 1.386 . S
C2188 C2190 1.391 . S
C2189 C2188 1.386 . S
C2189 C2193 1.393 . S
C2190 H2182 0.950 . S
C2190 C2188 1.391 . S
C2190 C2191 1.400 . S
C2191 C2190 1.400 . S
C2191 C2192 1.398 . S
C2191 C2197 1.491 . S
C2192 H2183 0.950 . S
C2192 C2191 1.398 . S
C2192 C2193 1.391 . S
C2193 H2181 0.950 . S
C2193 C2189 1.393 . S
C2193 C2192 1.391 . S
C2194 H2184 0.950 . S
C2194 C2195 1.386 . S
C2194 C2196 1.391 . S
C2195 C2194 1.386 . S
C2195 C2199 1.393 . S
C2196 H2185 0.950 . S
C2196 C2194 1.391 . S
C2196 C2197 1.400 . S
C2197 C2191 1.491 . S
C2197 C2196 1.400 . S
C2197 C2198 1.398 . S
C2198 H2186 0.950 . S
C2198 C2197 1.398 . S
C2198 C2199 1.391 . S
C2199 H2187 0.950 . S
C2199 C2195 1.393 . S
C2199 C2198 1.391 . S
H2200 C2208 0.950 . S
H2201 C2213 0.950 . S
H2202 C2210 0.950 . S
H2203 C2212 0.950 . S
H2204 C2214 0.950 . S
H2205 C2216 0.950 . S
H2206 C2218 0.950 . S
H2207 C2219 0.950 . S
C2208 H2200 0.950 . S
C2208 C2209 1.386 . S
C2208 C2210 1.391 . S
C2209 C2208 1.386 . S
C2209 C2213 1.393 . S
C2210 H2202 0.950 . S
C2210 C2208 1.391 . S
C2210 C2211 1.400 . S
C2211 C2210 1.400 . S
C2211 C2212 1.398 . S
C2211 C2217 1.491 . S
C2212 H2203 0.950 . S
C2212 C2211 1.398 . S
C2212 C2213 1.391 . S
C2213 H2201 0.950 . S
C2213 C2209 1.393 . S
C2213 C2212 1.391 . S
C2214 H2204 0.950 . S
C2214 C2215 1.386 . S
C2214 C2216 1.391 . S
C2215 C2214 1.386 . S
C2215 C2219 1.393 . S
C2216 H2205 0.950 . S
C2216 C2214 1.391 . S
C2216 C2217 1.400 . S
C2217 C2211 1.491 . S
C2217 C2216 1.400 . S
C2217 C2218 1.398 . S
C2218 H2206 0.950 . S
C2218 C2217 1.398 . S
C2218 C2219 1.391 . S
C2219 H2207 0.950 . S
C2219 C2215 1.393 . S
C2219 C2218 1.391 . S
H2220 C2228 0.950 . S
H2221 C2233 0.950 . S
H2222 C2230 0.950 . S
H2223 C2232 0.950 . S
H2224 C2234 0.950 . S
H2225 C2236 0.950 . S
H2226 C2238 0.950 . S
H2227 C2239 0.950 . S
C2228 H2220 0.950 . S
C2228 C2229 1.386 . S
C2228 C2230 1.391 . S
C2229 C2228 1.386 . S
C2229 C2233 1.393 . S
C2230 H2222 0.950 . S
C2230 C2228 1.391 . S
C2230 C2231 1.400 . S
C2231 C2230 1.400 . S
C2231 C2232 1.398 . S
C2231 C2237 1.491 . S
C2232 H2223 0.950 . S
C2232 C2231 1.398 . S
C2232 C2233 1.391 . S
C2233 H2221 0.950 . S
C2233 C2229 1.393 . S
C2233 C2232 1.391 . S
C2234 H2224 0.950 . S
C2234 C2235 1.386 . S
C2234 C2236 1.391 . S
C2235 C2234 1.386 . S
C2235 C2239 1.393 . S
C2236 H2225 0.950 . S
C2236 C2234 1.391 . S
C2236 C2237 1.400 . S
C2237 C2231 1.491 . S
C2237 C2236 1.400 . S
C2237 C2238 1.398 . S
C2238 H2226 0.950 . S
C2238 C2237 1.398 . S
C2238 C2239 1.391 . S
C2239 H2227 0.950 . S
C2239 C2235 1.393 . S
C2239 C2238 1.391 . S
H2240 C2248 0.950 . S
H2241 C2253 0.950 . S
H2242 C2250 0.950 . S
H2243 C2252 0.950 . S
H2244 C2254 0.950 . S
H2245 C2256 0.950 . S
H2246 C2258 0.950 . S
H2247 C2259 0.950 . S
C2248 H2240 0.950 . S
C2248 C2249 1.386 . S
C2248 C2250 1.391 . S
C2249 C2248 1.386 . S
C2249 C2253 1.393 . S
C2250 H2242 0.950 . S
C2250 C2248 1.391 . S
C2250 C2251 1.400 . S
C2251 C2250 1.400 . S
C2251 C2252 1.398 . S
C2251 C2257 1.491 . S
C2252 H2243 0.950 . S
C2252 C2251 1.398 . S
C2252 C2253 1.391 . S
C2253 H2241 0.950 . S
C2253 C2249 1.393 . S
C2253 C2252 1.391 . S
C2254 H2244 0.950 . S
C2254 C2255 1.386 . S
C2254 C2256 1.391 . S
C2255 C2254 1.386 . S
C2255 C2259 1.393 . S
C2256 H2245 0.950 . S
C2256 C2254 1.391 . S
C2256 C2257 1.400 . S
C2257 C2251 1.491 . S
C2257 C2256 1.400 . S
C2257 C2258 1.398 . S
C2258 H2246 0.950 . S
C2258 C2257 1.398 . S
C2258 C2259 1.391 . S
C2259 H2247 0.950 . S
C2259 C2255 1.393 . S
C2259 C2258 1.391 . S
H2260 C2268 0.950 . S
H2261 C2273 0.950 . S
H2262 C2270 0.950 . S
H2263 C2272 0.950 . S
H2264 C2274 0.950 . S
H2265 C2276 0.950 . S
H2266 C2278 0.950 . S
H2267 C2279 0.950 . S
C2268 H2260 0.950 . S
C2268 C2269 1.386 . S
C2268 C2270 1.391 . S
C2269 C2268 1.386 . S
C2269 C2273 1.393 . S
C2270 H2262 0.950 . S
C2270 C2268 1.391 . S
C2270 C2271 1.400 . S
C2271 C2270 1.400 . S
C2271 C2272 1.398 . S
C2271 C2277 1.491 . S
C2272 H2263 0.950 . S
C2272 C2271 1.398 . S
C2272 C2273 1.391 . S
C2273 H2261 0.950 . S
C2273 C2269 1.393 . S
C2273 C2272 1.391 . S
C2274 H2264 0.950 . S
C2274 C2275 1.386 . S
C2274 C2276 1.391 . S
C2275 C2274 1.386 . S
C2275 C2279 1.393 . S
C2276 H2265 0.950 . S
C2276 C2274 1.391 . S
C2276 C2277 1.400 . S
C2277 C2271 1.491 . S
C2277 C2276 1.400 . S
C2277 C2278 1.398 . S
C2278 H2266 0.950 . S
C2278 C2277 1.398 . S
C2278 C2279 1.391 . S
C2279 H2267 0.950 . S
C2279 C2275 1.393 . S
C2279 C2278 1.391 . S
H2280 C2288 0.950 . S
H2281 C2293 0.950 . S
H2282 C2290 0.950 . S
H2283 C2292 0.950 . S
H2284 C2294 0.950 . S
H2285 C2296 0.950 . S
H2286 C2298 0.950 . S
H2287 C2299 0.950 . S
C2288 H2280 0.950 . S
C2288 C2289 1.386 . S
C2288 C2290 1.391 . S
C2289 C2288 1.386 . S
C2289 C2293 1.393 . S
C2290 H2282 0.950 . S
C2290 C2288 1.391 . S
C2290 C2291 1.400 . S
C2291 C2290 1.400 . S
C2291 C2292 1.398 . S
C2291 C2297 1.491 . S
C2292 H2283 0.950 . S
C2292 C2291 1.398 . S
C2292 C2293 1.391 . S
C2293 H2281 0.950 . S
C2293 C2289 1.393 . S
C2293 C2292 1.391 . S
C2294 H2284 0.950 . S
C2294 C2295 1.386 . S
C2294 C2296 1.391 . S
C2295 C2294 1.386 . S
C2295 C2299 1.393 . S
C2296 H2285 0.950 . S
C2296 C2294 1.391 . S
C2296 C2297 1.400 . S
C2297 C2291 1.491 . S
C2297 C2296 1.400 . S
C2297 C2298 1.398 . S
C2298 H2286 0.950 . S
C2298 C2297 1.398 . S
C2298 C2299 1.391 . S
C2299 H2287 0.950 . S
C2299 C2295 1.393 . S
C2299 C2298 1.391 . S
H2300 C2308 0.950 . S
H2301 C2313 0.950 . S
H2302 C2310 0.950 . S
H2303 C2312 0.950 . S
H2304 C2314 0.950 . S
H2305 C2316 0.950 . S
H2306 C2318 0.950 . S
H2307 C2319 0.950 . S
C2308 H2300 0.950 . S
C2308 C2309 1.386 . S
C2308 C2310 1.391 . S
C2309 C2308 1.386 . S
C2309 C2313 1.393 . S
C2310 H2302 0.950 . S
C2310 C2308 1.391 . S
C2310 C2311 1.400 . S
C2311 C2310 1.400 . S
C2311 C2312 1.398 . S
C2311 C2317 1.491 . S
C2312 H2303 0.950 . S
C2312 C2311 1.398 . S
C2312 C2313 1.391 . S
C2313 H2301 0.950 . S
C2313 C2309 1.393 . S
C2313 C2312 1.391 . S
C2314 H2304 0.950 . S
C2314 C2315 1.386 . S
C2314 C2316 1.391 . S
C2315 C2314 1.386 . S
C2315 C2319 1.393 . S
C2316 H2305 0.950 . S
C2316 C2314 1.391 . S
C2316 C2317 1.400 . S
C2317 C2311 1.491 . S
C2317 C2316 1.400 . S
C2317 C2318 1.398 . S
C2318 H2306 0.950 . S
C2318 C2317 1.398 . S
C2318 C2319 1.391 . S
C2319 H2307 0.950 . S
C2319 C2315 1.393 . S
C2319 C2318 1.391 . S
H2320 C2328 0.950 . S
H2321 C2333 0.950 . S
H2322 C2330 0.950 . S
H2323 C2332 0.950 . S
H2324 C2334 0.950 . S
H2325 C2336 0.950 . S
H2326 C2338 0.950 . S
H2327 C2339 0.950 . S
C2328 H2320 0.950 . S
C2328 C2329 1.386 . S
C2328 C2330 1.391 . S
C2329 C2328 1.386 . S
C2329 C2333 1.393 . S
C2330 H2322 0.950 . S
C2330 C2328 1.391 . S
C2330 C2331 1.400 . S
C2331 C2330 1.400 . S
C2331 C2332 1.398 . S
C2331 C2337 1.491 . S
C2332 H2323 0.950 . S
C2332 C2331 1.398 . S
C2332 C2333 1.391 . S
C2333 H2321 0.950 . S
C2333 C2329 1.393 . S
C2333 C2332 1.391 . S
C2334 H2324 0.950 . S
C2334 C2335 1.386 . S
C2334 C2336 1.391 . S
C2335 C2334 1.386 . S
C2335 C2339 1.393 . S
C2336 H2325 0.950 . S
C2336 C2334 1.391 . S
C2336 C2337 1.400 . S
C2337 C2331 1.491 . S
C2337 C2336 1.400 . S
C2337 C2338 1.398 . S
C2338 H2326 0.950 . S
C2338 C2337 1.398 . S
C2338 C2339 1.391 . S
C2339 H2327 0.950 . S
C2339 C2335 1.393 . S
C2339 C2338 1.391 . S
C909 C76 1.220 . S
C915 C652 1.103 . S
C929 C4 1.220 . S
C935 C668 1.099 . S
C955 C651 1.219 . S
C949 C38 1.352 . S
C975 C676 1.155 . S
C969 C74 1.351 . S
C989 C2 1.299 . S
C995 C685 1.126 . S
C1015 C688 1.084 . S
C1009 C40 1.183 . S
C1029 C182 1.347 . S
C1035 C694 1.190 . S
C1055 C710 1.120 1_565 S
C1049 C112 1.245 . S
C1075 C693 1.097 . S
C1069 C148 1.221 . S
C1089 C184 1.200 . S
C1095 C718 1.058 . S
C1115 C727 1.148 . S
C1109 C110 1.315 . S
C1135 C730 1.123 . S
C1129 C146 1.307 . S
C1155 C739 1.054 . S
C1149 C292 1.238 . S
C1175 C751 1.055 . S
C1169 C220 1.229 . S
C1195 C748 1.177 . S
C1189 C254 1.342 . S
C1209 C290 1.337 . S
C1215 C757 1.161 . S
C1235 C756 1.161 . S
C1229 C218 1.282 . S
C1249 C256 1.183 . S
C1255 C773 1.034 . S
C1275 C778 1.193 . S
C1269 C398 1.329 . S
C1295 C794 1.066 . S
C1289 C328 1.242 . S
C1309 C364 1.206 . S
C1315 C777 1.073 . S
C1335 C802 1.092 . S
C1329 C400 1.212 . S
C1355 C811 1.160 . S
C1349 C326 1.330 . S
C1369 C362 1.308 . S
C1375 C814 1.163 . S
C1389 C508 1.232 . S
C1395 C823 1.103 . S
C1415 C835 1.089 . S
C1409 C436 1.207 . S
C1435 C832 1.184 . S
C1429 C470 1.339 . S
C1449 C506 1.353 . S
C1455 C841 1.200 . S
C1475 C840 1.171 . S
C1469 C434 1.284 . S
C1489 C472 1.188 . S
C1495 C857 1.026 . S
C1515 C862 1.180 . S
C1509 C614 1.326 . S
C1535 C878 1.077 . S
C1529 C544 1.237 . S
C1549 C580 1.219 . S
C1555 C861 1.102 . S
C1575 C883 1.037 . S
C1569 C616 1.209 . S
C1595 C882 1.146 . S
C1589 C542 1.320 . S
C1615 C899 1.141 . S
C1609 C578 1.287 . S
C1635 C664 1.429 . S
C1629 C399 1.536 . S
C1649 C338 1.525 . S
C1655 C667 1.519 . S
C1675 C655 1.445 . S
C1669 C374 1.474 . S
C1689 C626 1.494 . S
C1695 C672 1.456 . S
C1709 C543 1.619 . S
C1715 C673 1.506 . S
C1735 C689 1.408 . S
C1729 C579 1.487 . S
C1755 C706 1.537 . S
C1749 C518 1.568 . S
C1775 C709 1.373 . S
C1769 C446 1.403 . S
C1789 C471 1.562 . S
C1795 C697 1.447 . S
C1815 C714 1.489 1_655 S
C1809 C291 1.589 . S
C1829 C219 1.491 . S
C1835 C715 1.386 . S
C1849 C266 1.510 . S
C1855 C731 1.477 . S
C1869 C615 1.531 . S
C1875 C735 1.428 . S
C1889 C554 1.530 . S
C1895 C752 1.503 . S
C1915 C736 1.443 . S
C1909 C590 1.458 . S
C1935 C769 1.466 . S
C1929 C194 1.480 . S
C1955 C760 1.525 . S
C1949 C111 1.625 . S
C1969 C147 1.490 . S
C1975 C772 1.380 . S
C1995 C790 1.556 . S
C1989 C86 1.565 . S
C2015 C793 1.373 . S
C2009 C14 1.403 . S
C2029 C39 1.557 . S
C2035 C781 1.469 . S
C2055 C798 1.482 . S
C2049 C507 1.595 . S
C2075 C799 1.391 . S
C2069 C435 1.490 . S
C2095 C815 1.483 . S
C2089 C482 1.504 . S
C2115 C819 1.425 . S
C2109 C183 1.532 . S
C2135 C836 1.531 . S
C2129 C122 1.550 . S
C2149 C158 1.443 . S
C2155 C820 1.418 . S
C2169 C410 1.504 1_565 S
C2175 C853 1.474 . S
C2189 C327 1.626 . S
C2195 C844 1.514 . S
C2215 C856 1.413 . S
C2209 C363 1.489 . S
C2229 C302 1.576 . S
C2235 C874 1.550 . S
C2249 C230 1.420 . S
C2255 C877 1.408 . S
C2275 C865 1.458 . S
C2269 C255 1.556 . S
C2295 C895 1.476 . S
C2289 C75 1.590 . S
C2315 C886 1.385 . S
C2309 C3 1.491 . S
C2329 C50 1.529 . S
C2335 C898 1.511 . S
