# Generated by pormake.
# Topology gar, (4,6)-cn, num edge types: 1
# Building blocks:
#     Node 0, Type 0, BuildingBlock: CEKHIL_clean_sbu_0, # of connection points: 4
#     Node 1, Type 0, BuildingBlock: CEKHIL_clean_sbu_0, # of connection points: 4
#     Node 2, Type 0, BuildingBlock: CEKHIL_clean_sbu_0, # of connection points: 4
#     Node 3, Type 0, BuildingBlock: CEKHIL_clean_sbu_0, # of connection points: 4
#     Node 4, Type 0, BuildingBlock: CEKHIL_clean_sbu_0, # of connection points: 4
#     Node 5, Type 0, BuildingBlock: CEKHIL_clean_sbu_0, # of connection points: 4
#     Node 6, Type 0, BuildingBlock: CEKHIL_clean_sbu_0, # of connection points: 4
#     Node 7, Type 0, BuildingBlock: CEKHIL_clean_sbu_0, # of connection points: 4
#     Node 8, Type 0, BuildingBlock: CEKHIL_clean_sbu_0, # of connection points: 4
#     Node 9, Type 0, BuildingBlock: CEKHIL_clean_sbu_0, # of connection points: 4
#     Node 10, Type 0, BuildingBlock: CEKHIL_clean_sbu_0, # of connection points: 4
#     Node 11, Type 0, BuildingBlock: CEKHIL_clean_sbu_0, # of connection points: 4
#     Node 12, Type 0, BuildingBlock: CEKHIL_clean_sbu_0, # of connection points: 4
#     Node 13, Type 0, BuildingBlock: CEKHIL_clean_sbu_0, # of connection points: 4
#     Node 14, Type 0, BuildingBlock: CEKHIL_clean_sbu_0, # of connection points: 4
#     Node 15, Type 0, BuildingBlock: CEKHIL_clean_sbu_0, # of connection points: 4
#     Node 16, Type 0, BuildingBlock: CEKHIL_clean_sbu_0, # of connection points: 4
#     Node 17, Type 0, BuildingBlock: CEKHIL_clean_sbu_0, # of connection points: 4
#     Node 18, Type 0, BuildingBlock: CEKHIL_clean_sbu_0, # of connection points: 4
#     Node 19, Type 0, BuildingBlock: CEKHIL_clean_sbu_0, # of connection points: 4
#     Node 20, Type 0, BuildingBlock: CEKHIL_clean_sbu_0, # of connection points: 4
#     Node 21, Type 0, BuildingBlock: CEKHIL_clean_sbu_0, # of connection points: 4
#     Node 22, Type 0, BuildingBlock: CEKHIL_clean_sbu_0, # of connection points: 4
#     Node 23, Type 0, BuildingBlock: CEKHIL_clean_sbu_0, # of connection points: 4
#     Node 24, Type 1, BuildingBlock: CUKXOW_clean_sbu_0, # of connection points: 6
#     Node 25, Type 1, BuildingBlock: CUKXOW_clean_sbu_0, # of connection points: 6
#     Node 26, Type 1, BuildingBlock: CUKXOW_clean_sbu_0, # of connection points: 6
#     Node 27, Type 1, BuildingBlock: CUKXOW_clean_sbu_0, # of connection points: 6
#     Node 28, Type 1, BuildingBlock: CUKXOW_clean_sbu_0, # of connection points: 6
#     Node 29, Type 1, BuildingBlock: CUKXOW_clean_sbu_0, # of connection points: 6
#     Node 30, Type 1, BuildingBlock: CUKXOW_clean_sbu_0, # of connection points: 6
#     Node 31, Type 1, BuildingBlock: CUKXOW_clean_sbu_0, # of connection points: 6
#     Node 32, Type 1, BuildingBlock: CUKXOW_clean_sbu_0, # of connection points: 6
#     Node 33, Type 1, BuildingBlock: CUKXOW_clean_sbu_0, # of connection points: 6
#     Node 34, Type 1, BuildingBlock: CUKXOW_clean_sbu_0, # of connection points: 6
#     Node 35, Type 1, BuildingBlock: CUKXOW_clean_sbu_0, # of connection points: 6
#     Node 36, Type 1, BuildingBlock: CUKXOW_clean_sbu_0, # of connection points: 6
#     Node 37, Type 1, BuildingBlock: CUKXOW_clean_sbu_0, # of connection points: 6
#     Node 38, Type 1, BuildingBlock: CUKXOW_clean_sbu_0, # of connection points: 6
#     Node 39, Type 1, BuildingBlock: CUKXOW_clean_sbu_0, # of connection points: 6
#     Edge 40, Type (0, 1), BuildingBlock: KIFKEQ_clean_linker_1, # of connection points: 2
#     Edge 41, Type (0, 1), BuildingBlock: KIFKEQ_clean_linker_1, # of connection points: 2
#     Edge 42, Type (0, 1), BuildingBlock: KIFKEQ_clean_linker_1, # of connection points: 2
#     Edge 43, Type (0, 1), BuildingBlock: KIFKEQ_clean_linker_1, # of connection points: 2
#     Edge 44, Type (0, 1), BuildingBlock: KIFKEQ_clean_linker_1, # of connection points: 2
#     Edge 45, Type (0, 1), BuildingBlock: KIFKEQ_clean_linker_1, # of connection points: 2
#     Edge 46, Type (0, 1), BuildingBlock: KIFKEQ_clean_linker_1, # of connection points: 2
#     Edge 47, Type (0, 1), BuildingBlock: KIFKEQ_clean_linker_1, # of connection points: 2
#     Edge 48, Type (0, 1), BuildingBlock: KIFKEQ_clean_linker_1, # of connection points: 2
#     Edge 49, Type (0, 1), BuildingBlock: KIFKEQ_clean_linker_1, # of connection points: 2
#     Edge 50, Type (0, 1), BuildingBlock: KIFKEQ_clean_linker_1, # of connection points: 2
#     Edge 51, Type (0, 1), BuildingBlock: KIFKEQ_clean_linker_1, # of connection points: 2
#     Edge 52, Type (0, 1), BuildingBlock: KIFKEQ_clean_linker_1, # of connection points: 2
#     Edge 53, Type (0, 1), BuildingBlock: KIFKEQ_clean_linker_1, # of connection points: 2
#     Edge 54, Type (0, 1), BuildingBlock: KIFKEQ_clean_linker_1, # of connection points: 2
#     Edge 55, Type (0, 1), BuildingBlock: KIFKEQ_clean_linker_1, # of connection points: 2
#     Edge 56, Type (0, 1), BuildingBlock: KIFKEQ_clean_linker_1, # of connection points: 2
#     Edge 57, Type (0, 1), BuildingBlock: KIFKEQ_clean_linker_1, # of connection points: 2
#     Edge 58, Type (0, 1), BuildingBlock: KIFKEQ_clean_linker_1, # of connection points: 2
#     Edge 59, Type (0, 1), BuildingBlock: KIFKEQ_clean_linker_1, # of connection points: 2
#     Edge 60, Type (0, 1), BuildingBlock: KIFKEQ_clean_linker_1, # of connection points: 2
#     Edge 61, Type (0, 1), BuildingBlock: KIFKEQ_clean_linker_1, # of connection points: 2
#     Edge 62, Type (0, 1), BuildingBlock: KIFKEQ_clean_linker_1, # of connection points: 2
#     Edge 63, Type (0, 1), BuildingBlock: KIFKEQ_clean_linker_1, # of connection points: 2
#     Edge 64, Type (0, 1), BuildingBlock: KIFKEQ_clean_linker_1, # of connection points: 2
#     Edge 65, Type (0, 1), BuildingBlock: KIFKEQ_clean_linker_1, # of connection points: 2
#     Edge 66, Type (0, 1), BuildingBlock: KIFKEQ_clean_linker_1, # of connection points: 2
#     Edge 67, Type (0, 1), BuildingBlock: KIFKEQ_clean_linker_1, # of connection points: 2
#     Edge 68, Type (0, 1), BuildingBlock: KIFKEQ_clean_linker_1, # of connection points: 2
#     Edge 69, Type (0, 1), BuildingBlock: KIFKEQ_clean_linker_1, # of connection points: 2
#     Edge 70, Type (0, 1), BuildingBlock: KIFKEQ_clean_linker_1, # of connection points: 2
#     Edge 71, Type (0, 1), BuildingBlock: KIFKEQ_clean_linker_1, # of connection points: 2
#     Edge 72, Type (0, 1), BuildingBlock: KIFKEQ_clean_linker_1, # of connection points: 2
#     Edge 73, Type (0, 1), BuildingBlock: KIFKEQ_clean_linker_1, # of connection points: 2
#     Edge 74, Type (0, 1), BuildingBlock: KIFKEQ_clean_linker_1, # of connection points: 2
#     Edge 75, Type (0, 1), BuildingBlock: KIFKEQ_clean_linker_1, # of connection points: 2
#     Edge 76, Type (0, 1), BuildingBlock: KIFKEQ_clean_linker_1, # of connection points: 2
#     Edge 77, Type (0, 1), BuildingBlock: KIFKEQ_clean_linker_1, # of connection points: 2
#     Edge 78, Type (0, 1), BuildingBlock: KIFKEQ_clean_linker_1, # of connection points: 2
#     Edge 79, Type (0, 1), BuildingBlock: KIFKEQ_clean_linker_1, # of connection points: 2
#     Edge 80, Type (0, 1), BuildingBlock: KIFKEQ_clean_linker_1, # of connection points: 2
#     Edge 81, Type (0, 1), BuildingBlock: KIFKEQ_clean_linker_1, # of connection points: 2
#     Edge 82, Type (0, 1), BuildingBlock: KIFKEQ_clean_linker_1, # of connection points: 2
#     Edge 83, Type (0, 1), BuildingBlock: KIFKEQ_clean_linker_1, # of connection points: 2
#     Edge 84, Type (0, 1), BuildingBlock: KIFKEQ_clean_linker_1, # of connection points: 2
#     Edge 85, Type (0, 1), BuildingBlock: KIFKEQ_clean_linker_1, # of connection points: 2
#     Edge 86, Type (0, 1), BuildingBlock: KIFKEQ_clean_linker_1, # of connection points: 2
#     Edge 87, Type (0, 1), BuildingBlock: KIFKEQ_clean_linker_1, # of connection points: 2
#     Edge 88, Type (0, 1), BuildingBlock: KIFKEQ_clean_linker_1, # of connection points: 2
#     Edge 89, Type (0, 1), BuildingBlock: KIFKEQ_clean_linker_1, # of connection points: 2
#     Edge 90, Type (0, 1), BuildingBlock: KIFKEQ_clean_linker_1, # of connection points: 2
#     Edge 91, Type (0, 1), BuildingBlock: KIFKEQ_clean_linker_1, # of connection points: 2
#     Edge 92, Type (0, 1), BuildingBlock: KIFKEQ_clean_linker_1, # of connection points: 2
#     Edge 93, Type (0, 1), BuildingBlock: KIFKEQ_clean_linker_1, # of connection points: 2
#     Edge 94, Type (0, 1), BuildingBlock: KIFKEQ_clean_linker_1, # of connection points: 2
#     Edge 95, Type (0, 1), BuildingBlock: KIFKEQ_clean_linker_1, # of connection points: 2
#     Edge 96, Type (0, 1), BuildingBlock: KIFKEQ_clean_linker_1, # of connection points: 2
#     Edge 97, Type (0, 1), BuildingBlock: KIFKEQ_clean_linker_1, # of connection points: 2
#     Edge 98, Type (0, 1), BuildingBlock: KIFKEQ_clean_linker_1, # of connection points: 2
#     Edge 99, Type (0, 1), BuildingBlock: KIFKEQ_clean_linker_1, # of connection points: 2
#     Edge 100, Type (0, 1), BuildingBlock: KIFKEQ_clean_linker_1, # of connection points: 2
#     Edge 101, Type (0, 1), BuildingBlock: KIFKEQ_clean_linker_1, # of connection points: 2
#     Edge 102, Type (0, 1), BuildingBlock: KIFKEQ_clean_linker_1, # of connection points: 2
#     Edge 103, Type (0, 1), BuildingBlock: KIFKEQ_clean_linker_1, # of connection points: 2
#     Edge 104, Type (0, 1), BuildingBlock: KIFKEQ_clean_linker_1, # of connection points: 2
#     Edge 105, Type (0, 1), BuildingBlock: KIFKEQ_clean_linker_1, # of connection points: 2
#     Edge 106, Type (0, 1), BuildingBlock: KIFKEQ_clean_linker_1, # of connection points: 2
#     Edge 107, Type (0, 1), BuildingBlock: KIFKEQ_clean_linker_1, # of connection points: 2
#     Edge 108, Type (0, 1), BuildingBlock: KIFKEQ_clean_linker_1, # of connection points: 2
#     Edge 109, Type (0, 1), BuildingBlock: KIFKEQ_clean_linker_1, # of connection points: 2
#     Edge 110, Type (0, 1), BuildingBlock: KIFKEQ_clean_linker_1, # of connection points: 2
#     Edge 111, Type (0, 1), BuildingBlock: KIFKEQ_clean_linker_1, # of connection points: 2
#     Edge 112, Type (0, 1), BuildingBlock: KIFKEQ_clean_linker_1, # of connection points: 2
#     Edge 113, Type (0, 1), BuildingBlock: KIFKEQ_clean_linker_1, # of connection points: 2
#     Edge 114, Type (0, 1), BuildingBlock: KIFKEQ_clean_linker_1, # of connection points: 2
#     Edge 115, Type (0, 1), BuildingBlock: KIFKEQ_clean_linker_1, # of connection points: 2
#     Edge 116, Type (0, 1), BuildingBlock: KIFKEQ_clean_linker_1, # of connection points: 2
#     Edge 117, Type (0, 1), BuildingBlock: KIFKEQ_clean_linker_1, # of connection points: 2
#     Edge 118, Type (0, 1), BuildingBlock: KIFKEQ_clean_linker_1, # of connection points: 2
#     Edge 119, Type (0, 1), BuildingBlock: KIFKEQ_clean_linker_1, # of connection points: 2
#     Edge 120, Type (0, 1), BuildingBlock: KIFKEQ_clean_linker_1, # of connection points: 2
#     Edge 121, Type (0, 1), BuildingBlock: KIFKEQ_clean_linker_1, # of connection points: 2
#     Edge 122, Type (0, 1), BuildingBlock: KIFKEQ_clean_linker_1, # of connection points: 2
#     Edge 123, Type (0, 1), BuildingBlock: KIFKEQ_clean_linker_1, # of connection points: 2
#     Edge 124, Type (0, 1), BuildingBlock: KIFKEQ_clean_linker_1, # of connection points: 2
#     Edge 125, Type (0, 1), BuildingBlock: KIFKEQ_clean_linker_1, # of connection points: 2
#     Edge 126, Type (0, 1), BuildingBlock: KIFKEQ_clean_linker_1, # of connection points: 2
#     Edge 127, Type (0, 1), BuildingBlock: KIFKEQ_clean_linker_1, # of connection points: 2
#     Edge 128, Type (0, 1), BuildingBlock: KIFKEQ_clean_linker_1, # of connection points: 2
#     Edge 129, Type (0, 1), BuildingBlock: KIFKEQ_clean_linker_1, # of connection points: 2
#     Edge 130, Type (0, 1), BuildingBlock: KIFKEQ_clean_linker_1, # of connection points: 2
#     Edge 131, Type (0, 1), BuildingBlock: KIFKEQ_clean_linker_1, # of connection points: 2
#     Edge 132, Type (0, 1), BuildingBlock: KIFKEQ_clean_linker_1, # of connection points: 2
#     Edge 133, Type (0, 1), BuildingBlock: KIFKEQ_clean_linker_1, # of connection points: 2
#     Edge 134, Type (0, 1), BuildingBlock: KIFKEQ_clean_linker_1, # of connection points: 2
#     Edge 135, Type (0, 1), BuildingBlock: KIFKEQ_clean_linker_1, # of connection points: 2
# Relax obj value: 0.109
# Max RMSD: 0.222
# Mean RMSD: 0.120
data_MOF--net-gar--node1-CEKHIL_clean_sbu_0--node2-CUKXOW_clean_sbu_0--edge1-KIFKEQ_clean_linker_1
_symmetry_space_group_name_H-M    P1
_symmetry_Int_Tables_number       1
_symmetry_cell_setting            triclinic
loop_
_symmetry_equiv_pos_as_xyz
'x, y, z'
_cell_length_a     56.291334
_cell_length_b     54.183946
_cell_length_c     53.866999
_cell_angle_alpha  93.701925
_cell_angle_beta   95.149162
_cell_angle_gamma 98.569838
loop_
_atom_site_label
_atom_site_type_symbol
_atom_site_fract_x
_atom_site_fract_y
_atom_site_fract_z
_atom_type_partial_charge
Co0 Co 0.04082 0.28168 0.42203 0.0
O1 O 0.07333 0.27415 0.42209 0.0
O2 O 0.04547 0.26805 0.38947 0.0
C3 C 0.05036 0.32004 0.44219 0.0
O4 O 1.00647 0.28758 0.41324 0.0
Co5 Co 0.01532 0.29185 0.46965 0.0
O6 O 0.98816 0.29889 0.44658 0.0
C7 C 0.02188 0.24027 0.45347 0.0
C8 C 0.06737 0.26688 0.39855 0.0
C9 C 0.98841 0.29456 0.42311 0.0
O10 O 0.02957 0.24735 0.43288 0.0
O11 O 0.01697 0.25534 0.47089 0.0
O12 O 0.05231 0.31692 0.41835 0.0
O13 O 0.04455 0.29991 0.45326 0.0
Co14 Co 1.00296 0.80025 0.61126 0.0
O15 O 0.9688 0.80074 0.60934 0.0
O16 O 0.99139 0.79158 0.64242 0.0
C17 C 0.01213 0.83664 0.59415 0.0
O18 O 0.038 0.79896 0.62152 0.0
Co19 Co 0.03247 0.7995 0.56556 0.0
O20 O 0.06152 0.80447 0.59034 0.0
C21 C 0.99853 0.75494 0.57529 0.0
C22 C 0.97039 0.79503 0.63246 0.0
C23 C 0.05881 0.80187 0.61329 0.0
O24 O 0.99721 0.76422 0.59763 0.0
O25 O 1.00942 0.76718 0.55896 0.0
O26 O 1.00909 0.83658 0.6178 0.0
O27 O 1.00836 0.81511 0.58159 0.0
Co28 Co 0.54011 0.78405 0.92489 0.0
O29 O 0.57285 0.77737 0.92573 0.0
O30 O 0.54549 0.77036 0.89267 0.0
C31 C 0.54879 0.82228 0.94506 0.0
O32 O 0.50584 0.78918 0.91526 0.0
Co33 Co 0.51281 0.79328 0.97109 0.0
O34 O 0.487 0.80222 0.94736 0.0
C35 C 0.52059 0.74204 0.95523 0.0
C36 C 0.56736 0.76971 0.90221 0.0
C37 C 0.48771 0.79708 0.92408 0.0
O38 O 0.52916 0.74969 0.93529 0.0
O39 O 0.51447 0.75663 0.97237 0.0
O40 O 0.55115 0.81926 0.9213 0.0
O41 O 0.54285 0.80213 0.95611 0.0
Co42 Co 0.50117 0.29772 0.11152 0.0
O43 O 0.46776 0.30172 0.11182 0.0
O44 O 0.49009 0.28839 0.14277 0.0
C45 C 0.51304 0.33445 0.09594 0.0
O46 O 0.53572 0.29248 0.11949 0.0
Co47 Co 0.52833 0.29697 0.06382 0.0
O48 O 0.55792 0.3024 0.08797 0.0
C49 C 0.4926 0.25351 0.07347 0.0
C50 C 0.46957 0.29444 0.13436 0.0
C51 C 0.55609 0.29701 0.11047 0.0
O52 O 0.49187 0.26241 0.09608 0.0
O53 O 0.50404 0.26555 0.05735 0.0
O54 O 0.5109 0.33372 0.11974 0.0
O55 O 0.50672 0.31361 0.08248 0.0
Co56 Co 0.99722 0.77583 0.16418 0.0
O57 O 0.96214 0.76933 0.15848 0.0
O58 O 0.98278 0.7652 0.19422 0.0
C59 C 0.99988 0.81276 0.14586 0.0
O60 O 0.03328 0.7821 0.17832 0.0
Co61 Co 0.03094 0.78396 0.12173 0.0
O62 O 0.05645 0.79692 0.14907 0.0
C63 C 0.00995 0.73226 0.1322 0.0
C64 C 0.96178 0.76488 0.18182 0.0
C65 C 0.05395 0.79158 0.17146 0.0
O66 O 0.99998 0.74012 0.15136 0.0
O67 O 0.0214 0.74679 0.11796 0.0
O68 O 0.99555 0.81188 0.16911 0.0
O69 O 1.00187 0.79165 0.13454 0.0
Co70 Co 0.53927 0.80395 0.37596 0.0
O71 O 0.57449 0.80978 0.37996 0.0
O72 O 0.55242 0.79305 0.34551 0.0
C73 C 0.53493 0.84188 0.39438 0.0
O74 O 0.50272 0.79598 0.36368 0.0
Co75 Co 0.50837 0.80495 0.42127 0.0
O76 O 0.48025 0.80064 0.39572 0.0
C77 C 0.53743 0.76469 0.41285 0.0
C78 C 0.57386 0.80036 0.35708 0.0
C79 C 0.48205 0.79598 0.37253 0.0
O80 O 0.5393 0.76989 0.38994 0.0
O81 O 0.52846 0.7784 0.42863 0.0
O82 O 0.53889 0.83992 0.37092 0.0
O83 O 0.535 0.82171 0.40554 0.0
Co84 Co 0.49356 0.27306 0.66641 0.0
O85 O 0.45843 0.26769 0.66177 0.0
O86 O 0.47988 0.26258 0.69677 0.0
C87 C 0.49753 0.31019 0.64856 0.0
O88 O 0.52972 0.27798 0.67962 0.0
Co89 Co 0.52628 0.27981 0.62285 0.0
O90 O 0.5528 0.2912 0.64968 0.0
C91 C 0.49924 0.22987 0.63033 0.0
C92 C 0.45868 0.26279 0.68507 0.0
C93 C 0.55043 0.28649 0.67227 0.0
O94 O 0.49437 0.23726 0.65241 0.0
O95 O 0.50931 0.24463 0.61539 0.0
O96 O 0.49338 0.30942 0.67189 0.0
O97 O 0.49829 0.2889 0.63699 0.0
Co98 Co 0.03467 0.30355 0.87399 0.0
O99 O 0.06975 0.30857 0.88009 0.0
O100 O 0.04921 0.29382 0.84412 0.0
C101 C 0.02953 0.34094 0.89274 0.0
O102 O 0.99871 0.29659 0.85956 0.0
Co103 Co 1.00127 0.30261 0.91737 0.0
O104 O 0.97464 0.30029 0.89038 0.0
C105 C 0.02615 0.25954 0.90617 0.0
C106 C 0.07015 0.30028 0.85697 0.0
C107 C 0.97758 0.29647 0.86735 0.0
O108 O 0.03312 0.26852 0.88593 0.0
O109 O 0.01503 0.27114 0.92175 0.0
O110 O 0.03552 0.33966 0.86997 0.0
O111 O 0.02874 0.32049 0.9037 0.0
Co112 Co 0.40813 0.08094 0.25955 0.0
O113 O 0.40892 0.11696 0.25674 0.0
O114 O 0.37761 0.08797 0.24441 0.0
C115 C 0.42503 0.08377 0.3002 0.0
O116 O 0.39756 0.04333 0.26019 0.0
Co117 Co 0.45108 0.05277 0.27156 0.0
O118 O 0.42623 0.02565 0.28058 0.0
C119 C 0.43974 0.0659 0.21929 0.0
C120 C 0.38633 0.1116 0.24771 0.0
C121 C 0.40459 0.02485 0.27105 0.0
O122 O 0.42133 0.07595 0.22545 0.0
O123 O 0.45376 0.05681 0.23513 0.0
O124 O 0.40234 0.08536 0.29501 0.0
O125 O 0.43703 0.0821 0.281 0.0
Co126 Co 0.27744 0.15485 0.48729 0.0
O127 O 0.31111 0.15728 0.49921 0.0
O128 O 0.28412 0.12279 0.49705 0.0
C129 C 0.28445 0.1769 0.45392 0.0
O130 O 0.24172 0.14405 0.47585 0.0
Co131 Co 0.25055 0.20043 0.47928 0.0
O132 O 0.22223 0.17568 0.46546 0.0
C133 C 0.26631 0.187 0.53016 0.0
C134 C 0.30632 0.1336 0.50266 0.0
C135 C 0.22254 0.15248 0.46767 0.0
O136 O 0.26985 0.16515 0.52187 0.0
O137 O 0.26125 0.20393 0.51593 0.0
O138 O 0.28574 0.15305 0.45248 0.0
O139 O 0.2795 0.18617 0.47499 0.0
Co140 Co 0.15975 1.00198 0.80295 0.0
O141 O 0.15829 0.96599 0.79763 0.0
O142 O 0.19046 0.99396 0.79427 0.0
C143 C 0.14087 1.0003 0.83839 0.0
O144 O 0.16953 0.04013 0.8072 0.0
Co145 Co 0.11537 0.02924 0.80579 0.0
O146 O 0.1387 0.06047 0.81463 0.0
C147 C 0.12588 1.00511 0.7578 0.0
C148 C 0.18075 0.97056 0.79308 0.0
C149 C 0.16098 0.06049 0.8121 0.0
O150 O 0.14754 1.00343 0.76675 0.0
O151 O 0.11004 0.01221 0.77114 0.0
O152 O 0.16401 0.99996 0.83948 0.0
O153 O 0.13016 1.00121 0.81646 0.0
Co154 Co 0.22589 0.89925 0.0237 0.0
O155 O 0.19104 0.89859 0.02359 0.0
O156 O 0.21829 0.93092 0.03793 0.0
C157 C 0.22508 0.88233 0.98329 0.0
O158 O 0.26267 0.90904 0.02537 0.0
Co159 Co 0.25008 0.85196 0.01573 0.0
O160 O 0.27961 0.87612 0.0124 0.0
C161 C 0.23296 0.86329 0.06493 0.0
C162 C 0.19557 0.92171 0.03299 0.0
C163 C 0.28106 0.89933 0.01909 0.0
O164 O 0.22847 0.88492 0.05834 0.0
O165 O 0.2394 0.84693 0.04978 0.0
O166 O 0.22385 0.90592 0.98798 0.0
O167 O 0.22476 0.8695 1.00265 0.0
Co168 Co 0.26516 0.42572 0.0416 0.0
O169 O 0.23238 0.42024 0.02651 0.0
O170 O 0.2496 0.4541 0.05045 0.0
C171 C 0.28111 0.41342 0.00701 0.0
O172 O 0.29889 0.43889 0.05872 0.0
Co173 Co 0.29513 0.38198 0.04557 0.0
O174 O 0.32266 0.40922 0.05485 0.0
C175 C 0.25358 0.38443 0.07462 0.0
C176 C 0.23078 0.44234 0.03641 0.0
C177 C 0.31973 0.43165 0.06074 0.0
O178 O 0.25454 0.40793 0.07157 0.0
O179 O 0.26633 0.37043 0.0634 0.0
O180 O 0.27623 0.43609 0.00988 0.0
O181 O 0.27466 0.39887 0.02398 0.0
Co182 Co 0.81257 0.16848 1.003 0.0
O183 O 0.84752 0.1695 1.00316 0.0
O184 O 0.82227 0.13629 0.01019 0.0
C185 C 0.80686 0.18783 0.96659 0.0
O186 O 0.77597 0.15859 1.00332 0.0
Co187 Co 0.78758 0.21605 0.00504 0.0
O188 O 0.75707 0.19189 0.99827 0.0
C189 C 0.81236 0.20164 0.05143 0.0
C190 C 0.84436 0.14597 0.00754 0.0
C191 C 0.75655 0.16851 1.00036 0.0
O192 O 0.81557 0.18058 0.04031 0.0
O193 O 0.80399 0.21892 0.0399 0.0
O194 O 0.80871 0.16416 0.96597 0.0
O195 O 0.81044 0.19918 0.98867 0.0
Co196 Co 0.12441 0.48799 0.28647 0.0
O197 O 0.12205 0.45143 0.28374 0.0
O198 O 0.15353 0.47777 0.27543 0.0
C199 C 0.10933 0.49101 0.32459 0.0
O200 O 0.13618 0.52563 0.28808 0.0
Co201 Co 0.08288 0.51894 0.29241 0.0
O202 O 0.10838 0.54876 0.29884 0.0
C203 C 0.08912 0.49551 0.24218 0.0
C204 C 0.14397 0.45474 0.27726 0.0
C205 C 0.12975 0.54692 0.29381 0.0
O206 O 0.10918 0.48832 0.25038 0.0
O207 O 0.07585 0.50571 0.25662 0.0
O208 O 0.13184 0.48854 0.32326 0.0
O209 O 0.09679 0.4905 0.30335 0.0
Co210 Co 0.76356 0.92458 0.54292 0.0
O211 O 0.73036 0.92106 0.52973 0.0
O212 O 0.75045 0.95478 0.55188 0.0
C213 C 0.77634 0.90992 0.50742 0.0
O214 O 0.79865 0.9354 0.55774 0.0
Co215 Co 0.7893 0.87761 0.54592 0.0
O216 O 0.81883 0.90285 0.55235 0.0
C217 C 0.75082 0.88517 0.57781 0.0
C218 C 0.73061 0.9438 0.53893 0.0
C219 C 0.81843 0.92596 0.55812 0.0
O220 O 0.75355 0.90864 0.57411 0.0
O221 O 0.76141 0.86938 0.56607 0.0
O222 O 0.77326 0.93319 0.51024 0.0
O223 O 0.76991 0.89619 0.52504 0.0
Co224 Co 0.87235 0.0629 0.24526 0.0
O225 O 0.8759 0.09892 0.24928 0.0
O226 O 0.84231 0.07439 0.23369 0.0
C227 C 0.88994 0.05955 0.28389 0.0
O228 O 0.86161 0.02455 0.24026 0.0
Co229 Co 0.91769 0.03582 0.24972 0.0
O230 O 0.89332 0.00652 0.25415 0.0
C231 C 0.90692 0.06335 0.20555 0.0
C232 C 0.85329 0.0969 0.24114 0.0
C233 C 0.8709 1.00529 0.24715 0.0
O234 O 0.88522 0.06449 0.21114 0.0
O235 O 0.92286 0.055 0.21972 0.0
O236 O 0.86719 0.06167 0.2808 0.0
O237 O 0.90114 0.06096 0.26414 0.0
Co238 Co 0.31408 0.66715 0.50465 0.0
O239 O 0.34913 0.66817 0.50521 0.0
O240 O 0.32383 0.63516 0.51258 0.0
C241 C 0.30898 0.68628 0.46793 0.0
O242 O 0.27742 0.65704 0.50465 0.0
Co243 Co 0.28858 0.71428 0.50557 0.0
O244 O 0.25814 0.68997 0.49906 0.0
C245 C 0.31299 0.70077 0.55258 0.0
C246 C 0.34597 0.64479 0.5101 0.0
C247 C 0.25784 0.66668 0.50148 0.0
O248 O 0.31664 0.6797 0.54184 0.0
O249 O 0.30449 0.71773 0.54066 0.0
O250 O 0.3106 0.66256 0.46753 0.0
O251 O 0.31211 0.69771 0.48996 0.0
Co252 Co 0.37127 0.56072 0.74977 0.0
O253 O 0.37396 0.59654 0.75454 0.0
O254 O 0.34146 0.57176 0.73657 0.0
C255 C 0.38639 0.55665 0.78912 0.0
O256 O 0.36151 0.52246 0.74356 0.0
Co257 Co 0.41712 0.53527 0.75622 0.0
O258 O 0.39307 0.50512 0.75903 0.0
C259 C 0.40819 0.56339 0.71213 0.0
C260 C 0.35175 0.59427 0.74495 0.0
C261 C 0.37085 0.50341 0.75087 0.0
O262 O 0.38606 0.56361 0.7167 0.0
O263 O 0.4238 0.55533 0.72699 0.0
O264 O 0.36361 0.55795 0.78439 0.0
O265 O 0.39926 0.55932 0.77062 0.0
Co266 Co 0.62647 0.98709 0.78537 0.0
O267 O 0.62544 0.95074 0.78565 0.0
O268 O 0.65652 0.9771 0.77654 0.0
C269 C 0.60993 0.99265 0.82249 0.0
O270 O 0.63681 0.02474 0.78418 0.0
Co271 Co 0.58273 0.01565 0.78541 0.0
O272 O 0.60689 0.04679 0.79013 0.0
C273 C 0.59164 0.98812 0.73865 0.0
C274 C 0.64755 0.95419 0.77972 0.0
C275 C 0.62889 0.04573 0.787 0.0
O276 O 0.61246 0.98417 0.74859 0.0
O277 O 0.57657 0.99789 0.7511 0.0
O278 O 0.6327 0.99073 0.82238 0.0
O279 O 0.59793 0.98985 0.80072 0.0
Co280 Co 0.77243 0.6448 0.9816 0.0
O281 O 0.80623 0.65026 0.99373 0.0
O282 O 0.78044 0.61563 0.99687 0.0
C283 C 0.77725 0.65975 0.94415 0.0
O284 O 0.73702 0.63133 0.9715 0.0
Co285 Co 0.74363 0.68729 0.96676 0.0
O286 O 0.71597 0.66022 0.95678 0.0
C287 C 0.76058 0.68261 0.0196 0.0
C288 C 0.8023 0.62771 1.00103 0.0
C289 C 0.71731 0.63788 0.96212 0.0
O290 O 0.7647 0.66023 0.0143 0.0
O291 O 0.75464 0.69705 1.00297 0.0
O292 O 0.78049 0.63689 0.94753 0.0
O293 O 0.77275 0.67289 0.96342 0.0
Co294 Co 0.90611 0.58002 0.75947 0.0
O295 O 0.90716 0.61608 0.75689 0.0
O296 O 0.87547 0.58747 0.74492 0.0
C297 C 0.92375 0.58256 0.79973 0.0
O298 O 0.89535 0.54239 0.76061 0.0
Co299 Co 0.94976 0.55217 0.77 0.0
O300 O 0.92544 0.52346 0.7765 0.0
C301 C 0.93725 0.56557 0.71829 0.0
C302 C 0.88445 0.61104 0.74826 0.0
C303 C 0.90326 0.52316 0.76912 0.0
O304 O 0.91859 0.57492 0.72491 0.0
O305 O 0.95196 0.55696 0.73374 0.0
O306 O 0.90107 0.58449 0.7951 0.0
O307 O 0.93535 0.58101 0.78023 0.0
Co308 Co 0.72451 0.40079 0.52067 0.0
O309 O 0.68975 0.39994 0.52253 0.0
O310 O 0.71732 0.43246 0.53522 0.0
C311 C 0.72185 0.38387 0.48005 0.0
O312 O 0.7612 0.4109 0.52058 0.0
Co313 Co 0.74903 0.35396 0.51017 0.0
O314 O 0.77794 0.37849 0.5059 0.0
C315 C 0.73768 0.3667 0.56189 0.0
C316 C 0.69452 0.42321 0.53146 0.0
C317 C 0.77945 0.40153 0.51333 0.0
O318 O 0.72925 0.38663 0.55525 0.0
O319 O 0.74489 0.35121 0.54638 0.0
O320 O 0.72059 0.4074 0.485 0.0
O321 O 0.72266 0.37104 0.49937 0.0
Co322 Co 0.66245 0.50532 0.30656 0.0
O323 O 0.66172 0.46949 0.30114 0.0
O324 O 0.69311 0.49804 0.2966 0.0
C325 C 0.64515 0.50333 0.34306 0.0
O326 O 0.67089 0.54372 0.31036 0.0
Co327 Co 0.61622 0.5297 0.3107 0.0
O328 O 0.63824 0.56213 0.31536 0.0
C329 C 0.6266 0.50672 0.26232 0.0
C330 C 0.68382 0.47451 0.29562 0.0
C331 C 0.66076 0.56343 0.31333 0.0
O332 O 0.64872 0.5063 0.27069 0.0
O333 O 0.61063 0.51239 0.27625 0.0
O334 O 0.66832 0.50363 0.34308 0.0
O335 O 0.63352 0.5035 0.32146 0.0
Tb336 Tb 0.03353 0.06327 0.01915 0.0
C337 C 0.03369 0.02049 0.9751 0.0
Tb338 Tb 0.01067 0.00915 0.02544 0.0
O339 O 0.06826 0.05855 0.03992 0.0
O340 O 0.04545 0.02831 0.02187 0.0
O341 O 0.03432 0.04461 0.98193 0.0
C342 C 1.00714 0.96662 0.04838 0.0
O343 O 0.02693 1.00277 0.99028 0.0
C344 C 0.97978 0.03835 0.00805 0.0
C345 C 0.01081 0.05248 0.06947 0.0
O346 O 0.99454 0.96971 0.02758 0.0
O347 O 0.02156 0.98721 0.05574 0.0
O348 O 0.97607 0.01395 1.00442 0.0
O349 O 0.99869 0.04402 0.02284 0.0
O350 O 0.00968 0.02822 0.06265 0.0
O351 O 0.01792 0.07009 0.05437 0.0
C352 C 0.03617 0.10501 0.99512 0.0
O353 O 0.05025 0.10217 0.01501 0.0
O354 O 0.02071 0.08478 0.98955 0.0
C355 C 0.06437 0.03412 0.03662 0.0
Tb356 Tb 0.27384 0.8147 0.27945 0.0
C357 C 0.31505 0.77948 0.28095 0.0
Tb358 Tb 0.25989 0.75435 0.26597 0.0
O359 O 0.27624 0.81161 0.32089 0.0
O360 O 0.26754 0.78113 0.29617 0.0
O361 O 0.30918 0.80232 0.27906 0.0
C362 C 0.24037 0.70849 0.27587 0.0
O363 O 0.29888 0.75842 0.27812 0.0
C364 C 0.26219 0.78074 0.22578 0.0
C365 C 0.21892 0.79036 0.26289 0.0
O366 O 0.25524 0.71331 0.25891 0.0
O367 O 0.23695 0.72939 0.28715 0.0
O368 O 0.25769 0.75629 0.22474 0.0
O369 O 0.26619 0.78785 0.24871 0.0
O370 O 0.22455 0.76732 0.2642 0.0
O371 O 0.23518 0.81127 0.26688 0.0
C372 C 0.29224 0.86213 0.27413 0.0
O373 O 0.27828 0.85484 0.29116 0.0
O374 O 0.29531 0.84278 0.25993 0.0
C375 C 0.2715 0.78722 0.31915 0.0
Tb376 Tb 0.53911 0.03625 0.51095 0.0
C377 C 0.52681 0.01301 0.56318 0.0
Tb378 Tb 0.48743 0.02934 0.52522 0.0
O379 O 0.54252 0.07705 0.5188 0.0
O380 O 0.52023 0.05239 0.53811 0.0
O381 O 0.54215 0.01716 0.5459 0.0
C382 C 0.44551 0.04231 0.53652 0.0
O383 O 0.50436 0.01815 0.56006 0.0
C384 C 0.49987 0.99034 0.50135 0.0
C385 C 0.49969 0.05175 0.47271 0.0
O386 O 0.44794 0.02144 0.52443 0.0
O387 O 0.46666 0.05541 0.54261 0.0
O388 O 0.48373 0.98863 0.51733 0.0
O389 O 0.50629 0.01306 0.49808 0.0
O390 O 0.48503 0.04975 0.49089 0.0
O391 O 0.52154 0.04496 0.47533 0.0
C392 C 0.58131 0.02212 0.50246 0.0
O393 O 0.57821 0.04506 0.50816 0.0
O394 O 0.56061 0.0077 0.50068 0.0
C395 C 0.52643 0.0751 0.53482 0.0
Tb396 Tb 0.27649 0.28703 0.80429 0.0
C397 C 0.28103 0.32989 0.76599 0.0
Tb398 Tb 0.2596 0.27373 0.75128 0.0
O399 O 0.30828 0.26827 0.80082 0.0
O400 O 0.29393 0.28553 0.77092 0.0
O401 O 0.28003 0.32406 0.78946 0.0
C402 C 0.25765 0.25005 0.70631 0.0
O403 O 0.27642 0.31227 0.74714 0.0
C404 C 0.22611 0.28888 0.77718 0.0
C405 C 0.25327 0.23141 0.79049 0.0
O406 O 0.24396 0.26633 0.71236 0.0
O407 O 0.2725 0.24746 0.72537 0.0
O408 O 0.22737 0.29158 0.7535 0.0
O409 O 0.24184 0.27581 0.78442 0.0
O410 O 0.25404 0.23673 0.76677 0.0
O411 O 0.25897 0.24919 0.80911 0.0
C412 C 0.28147 0.31141 0.84935 0.0
O413 O 0.29606 0.29686 0.84154 0.0
O414 O 0.26392 0.31153 0.83215 0.0
C415 C 0.30955 0.27214 0.77739 0.0
Tb416 Tb 1.00897 0.03485 0.48956 0.0
C417 C 0.97958 0.01898 0.5339 0.0
Tb418 Tb 0.03682 0.03474 0.54159 0.0
O419 O 0.99884 0.99423 0.48768 0.0
O420 O 0.03092 0.0117 0.50784 0.0
O421 O 0.97897 0.02926 0.5122 0.0
C422 C 0.05742 0.0239 0.58519 0.0
O423 O 1.00021 0.01637 0.54692 0.0
C424 C 0.02812 0.07834 0.5283 0.0
C425 C 0.06587 0.05182 0.49706 0.0
O426 O 0.04134 0.03862 0.58245 0.0
O427 O 0.06191 0.01525 0.5634 0.0
O428 O 0.0466 0.07559 0.54353 0.0
O429 O 0.0148 0.05757 0.52342 0.0
O430 O 0.06689 0.04192 0.51901 0.0
O431 O 0.04514 0.05331 0.48372 0.0
C432 C 0.98703 0.04379 0.44607 0.0
O433 O 1.00124 0.02724 0.44918 0.0
O434 O 0.98555 0.05574 0.4674 0.0
C435 C 0.01727 0.9911 0.50272 0.0
Tb436 Tb 0.29686 0.78991 0.78042 0.0
C437 C 0.2569 0.80219 0.81548 0.0
Tb438 Tb 0.24348 0.78216 0.758 0.0
O439 O 0.29823 0.83036 0.78671 0.0
O440 O 0.27414 0.81 0.75876 0.0
O441 O 0.27914 0.79698 0.81415 0.0
C442 C 0.20244 0.79109 0.73462 0.0
O443 O 0.24031 0.79894 0.79577 0.0
C444 C 0.25979 0.74049 0.76779 0.0
C445 C 0.28364 0.76894 0.7233 0.0
O446 O 0.20384 0.77563 0.75204 0.0
O447 O 0.22391 0.80132 0.73075 0.0
O448 O 0.24055 0.74132 0.7528 0.0
O449 O 0.26631 0.76197 0.77916 0.0
O450 O 0.26117 0.77365 0.72442 0.0
O451 O 0.30021 0.77296 0.74298 0.0
C452 C 0.33951 0.78525 0.80331 0.0
O453 O 0.33629 0.79871 0.78451 0.0
O454 O 0.31883 0.77403 0.80868 0.0
C455 C 0.27984 0.83126 0.77065 0.0
Tb456 Tb 0.49241 0.02273 0.0124 0.0
C457 C 0.53462 0.99173 0.01823 0.0
Tb458 Tb 0.54479 0.05094 0.02009 0.0
O459 O 0.49818 1.00498 0.97621 0.0
O460 O 0.51838 0.03939 0.98915 0.0
O461 O 0.51186 0.99259 0.02231 0.0
C462 C 0.5904 0.07145 0.0148 0.0
O463 O 0.54997 0.01192 0.01446 0.0
C464 C 0.52079 0.05156 0.06014 0.0
C465 C 0.50237 0.08195 0.0159 0.0
O466 O 0.58374 0.05812 0.03293 0.0
O467 O 0.57141 0.07314 0.99989 0.0
O468 O 0.53887 0.0684 0.05656 0.0
O469 O 0.51902 0.03401 0.0431 0.0
O470 O 0.52515 0.08135 0.0117 0.0
O471 O 0.48696 0.06155 0.01881 0.0
C472 C 0.44666 1.00188 0.01651 0.0
O473 O 0.4536 0.01616 0.99918 0.0
O474 O 0.46545 0.99958 0.03147 0.0
C475 C 0.51637 0.02152 0.97234 0.0
Tb476 Tb 0.23805 0.26541 0.26679 0.0
C477 C 0.28013 0.2817 0.3099 0.0
Tb478 Tb 0.28802 0.29396 0.25537 0.0
O479 O 0.24574 0.23128 0.2459 0.0
O480 O 0.27332 0.25743 0.26345 0.0
O481 O 0.2566 0.28 0.30331 0.0
C482 C 0.32982 0.29577 0.23619 0.0
O483 O 0.2964 0.28503 0.29356 0.0
C484 C 0.25818 0.32596 0.26612 0.0
C485 C 0.24241 0.28728 0.21517 0.0
O486 O 0.3253 0.31196 0.25343 0.0
O487 O 0.31087 0.27909 0.22975 0.0
O488 O 0.28038 0.33279 0.26118 0.0
O489 O 0.25492 0.30239 0.26534 0.0
O490 O 0.2662 0.28838 0.21917 0.0
O491 O 0.22756 0.28152 0.23241 0.0
C492 C 0.19897 0.24966 0.2894 0.0
O493 O 0.19871 0.25941 0.26799 0.0
O494 O 0.22103 0.24848 0.29765 0.0
C495 C 0.26908 0.23768 0.2493 0.0
Tb496 Tb 0.50569 0.53024 0.9947 0.0
C497 C 0.47655 0.52923 0.04263 0.0
Tb498 Tb 0.53397 0.53873 0.04802 0.0
O499 O 0.51853 0.49366 0.98897 0.0
O500 O 0.51484 0.50912 0.02413 0.0
O501 O 0.47623 0.53196 0.01819 0.0
C502 C 0.5562 0.53014 0.09137 0.0
O503 O 0.49684 0.52956 0.05759 0.0
C504 C 0.52979 0.57907 0.02509 0.0
C505 C 0.56206 0.54235 1.00009 0.0
O506 O 0.54148 0.54641 0.08852 0.0
O507 O 0.55829 0.51879 0.06989 0.0
O508 O 0.54699 0.57804 0.04261 0.0
O509 O 0.51485 0.55928 0.02358 0.0
O510 O 0.56228 0.53536 0.0233 0.0
O511 O 0.54188 0.54485 0.9865 0.0
C512 C 0.47896 0.53428 0.95241 0.0
O513 O 0.49909 0.54865 0.96049 0.0
O514 O 0.47379 0.51752 0.9681 0.0
C515 C 0.52258 0.49169 0.01284 0.0
Tb516 Tb 0.79717 0.29233 0.2786 0.0
C517 C 0.75642 0.30504 0.31293 0.0
Tb518 Tb 0.74285 0.28237 0.25618 0.0
O519 O 0.79921 0.33336 0.28031 0.0
O520 O 0.7731 0.31032 0.25668 0.0
O521 O 0.77913 0.30128 0.31168 0.0
C522 C 0.70268 0.28988 0.22993 0.0
O523 O 0.73949 0.29986 0.29356 0.0
C524 C 0.76032 0.24182 0.26813 0.0
C525 C 0.78384 0.26823 0.22256 0.0
O526 O 0.70326 0.27796 0.25019 0.0
O527 O 0.72449 0.29775 0.22498 0.0
O528 O 0.74023 0.24146 0.25399 0.0
O529 O 0.76691 0.264 0.27773 0.0
O530 O 0.76117 0.27245 0.22342 0.0
O531 O 0.80054 0.2734 0.24209 0.0
C532 C 0.83864 0.28777 0.30417 0.0
O533 O 0.83682 0.29773 0.28285 0.0
O534 O 0.81731 0.27994 0.31051 0.0
C535 C 0.77928 0.33258 0.2659 0.0
Tb536 Tb 0.99315 0.52176 0.51428 0.0
C537 C 0.03431 0.48897 0.51813 0.0
Tb538 Tb 0.04649 0.54823 0.52257 0.0
O539 O 0.9983 0.50502 0.47747 0.0
O540 O 0.01969 0.53836 0.49174 0.0
O541 O 0.01162 0.4903 0.5223 0.0
C542 C 0.09221 0.56826 0.51688 0.0
O543 O 0.05037 0.50901 0.51555 0.0
C544 C 0.0224 0.54845 0.56263 0.0
C545 C 1.00535 0.58096 0.51963 0.0
O546 O 0.08557 0.55496 0.53507 0.0
O547 O 0.07314 0.57009 0.50213 0.0
O548 O 0.04112 0.56477 0.55964 0.0
O549 O 0.02004 0.53144 0.54496 0.0
O550 O 0.02797 0.57964 0.51528 0.0
O551 O 0.98919 0.56094 0.52193 0.0
C552 C 0.94684 0.50218 0.51746 0.0
O553 O 0.95444 0.51711 0.50091 0.0
O554 O 0.96531 0.49854 0.53224 0.0
C555 C 0.01709 0.52108 0.47427 0.0
Tb556 Tb 0.77705 0.78833 0.30064 0.0
C557 C 0.78394 0.82993 0.26123 0.0
Tb558 Tb 0.76054 0.77409 0.24248 0.0
O559 O 0.81544 0.78342 0.2993 0.0
O560 O 0.79171 0.77793 0.26788 0.0
O561 O 0.78162 0.82452 0.2847 0.0
C562 C 0.76192 0.755 0.19621 0.0
O563 O 0.77915 0.81271 0.24188 0.0
C564 C 0.72422 0.78507 0.26761 0.0
C565 C 0.75026 0.73343 0.28255 0.0
O566 O 0.75293 0.7751 0.20214 0.0
O567 O 0.7701 0.74574 0.21629 0.0
O568 O 0.7223 0.77936 0.24356 0.0
O569 O 0.74596 0.78467 0.27521 0.0
O570 O 0.75217 0.73803 0.25869 0.0
O571 O 0.75692 0.75068 0.3017 0.0
C572 C 0.7781 0.81121 0.34571 0.0
O573 O 0.78263 0.78851 0.3415 0.0
O574 O 0.77242 0.82039 0.32479 0.0
C575 C 0.81353 0.77778 0.27527 0.0
Tb576 Tb 0.7701 0.31262 0.77757 0.0
C577 C 0.81267 0.27922 0.77341 0.0
Tb578 Tb 0.75724 0.25648 0.76243 0.0
O579 O 0.76223 0.3068 0.81656 0.0
O580 O 0.7734 0.27907 0.79452 0.0
O581 O 0.80597 0.30179 0.77366 0.0
C582 C 0.7367 0.20964 0.76866 0.0
O583 O 0.79646 0.25835 0.7716 0.0
C584 C 0.76249 0.28524 0.72469 0.0
C585 C 0.71475 0.2904 0.76539 0.0
O586 O 0.74784 0.21638 0.74938 0.0
O587 O 0.73759 0.22912 0.78418 0.0
O588 O 0.76584 0.26187 0.72377 0.0
O589 O 0.75423 0.29002 0.74512 0.0
O590 O 0.72125 0.2677 0.76504 0.0
O591 O 0.73113 0.31113 0.76779 0.0
C592 C 0.791 0.3598 0.77368 0.0
O593 O 0.79143 0.34073 0.75801 0.0
O594 O 0.77822 0.35247 0.79162 0.0
C595 C 0.76558 0.28346 0.8152 0.0
Tb596 Tb 0.73906 0.76833 0.77111 0.0
C597 C 0.78538 0.77203 0.80657 0.0
Tb598 Tb 0.78736 0.79054 0.75362 0.0
O599 O 0.7471 0.72964 0.76849 0.0
O600 O 0.76408 0.75589 0.74759 0.0
O601 O 0.76349 0.77829 0.80497 0.0
C602 C 0.82769 0.79455 0.73126 0.0
O603 O 0.79802 0.77253 0.78702 0.0
C604 C 0.76175 0.82469 0.76907 0.0
C605 C 0.73927 0.79058 0.71906 0.0
O606 O 0.82636 0.80356 0.75402 0.0
O607 O 0.8066 0.78369 0.72156 0.0
O608 O 0.77931 0.82904 0.75508 0.0
O609 O 0.76222 0.80329 0.77706 0.0
O610 O 0.76269 0.78951 0.72 0.0
O611 O 0.72628 0.7853 0.73789 0.0
C612 C 0.69845 0.75747 0.79262 0.0
O613 O 0.69969 0.76614 0.77076 0.0
O614 O 0.71982 0.75516 0.80207 0.0
C615 C 0.76473 0.73432 0.75484 0.0
Tb616 Tb 0.53086 0.56386 0.52043 0.0
C617 C 0.54075 0.52018 0.48289 0.0
Tb618 Tb 0.51337 0.50803 0.53049 0.0
O619 O 0.5692 0.5594 0.52477 0.0
O620 O 0.5442 0.53552 0.54105 0.0
O621 O 0.53644 0.54357 0.48585 0.0
C622 C 0.51168 0.46474 0.55187 0.0
O623 O 0.53432 0.50293 0.49858 0.0
C624 C 0.47834 0.53273 0.51393 0.0
C625 C 0.50366 0.55209 0.56822 0.0
O626 O 0.5035 0.46688 0.52876 0.0
O627 O 0.52082 0.48669 0.5623 0.0
O628 O 0.47465 0.51145 0.52391 0.0
O629 O 0.5004 0.53628 0.51002 0.0
O630 O 0.50683 0.52837 0.56472 0.0
O631 O 0.51098 0.56945 0.553 0.0
C632 C 0.53363 0.60777 0.50031 0.0
O633 O 0.54502 0.60407 0.52159 0.0
O634 O 0.52032 0.58706 0.49106 0.0
C635 C 0.56594 0.53871 0.53579 0.0
Tb636 Tb 0.0397 0.53524 0.00979 0.0
C637 C 0.02778 0.51406 0.06284 0.0
Tb638 Tb 0.98841 0.5305 0.02492 0.0
O639 O 0.04497 0.57609 0.01773 0.0
O640 O 0.02186 0.55261 0.03726 0.0
O641 O 0.04282 0.51675 0.04511 0.0
C642 C 0.94906 0.54914 0.03568 0.0
O643 O 1.00589 0.52068 0.06007 0.0
C644 C 0.99903 0.49054 1.0011 0.0
C645 C 1.00012 0.55042 0.97111 0.0
O646 O 0.95063 0.52534 0.03386 0.0
O647 O 0.96949 0.56189 0.03171 0.0
O648 O 0.98251 0.48959 0.01665 0.0
O649 O 1.00621 0.51305 0.99777 0.0
O650 O 0.98505 0.54769 0.98884 0.0
O651 O 0.02229 0.54444 0.97418 0.0
C652 C 0.08077 0.51931 1.00016 0.0
O653 O 0.07854 0.54255 0.0056 0.0
O654 O 0.05981 0.50549 0.99937 0.0
C655 C 0.02895 0.57515 0.03382 0.0
H656 H 0.99157 0.22128 0.91193 0.0
H657 H 0.06888 0.24188 0.91606 0.0
H658 H 0.99639 0.18299 0.93166 0.0
H659 H 0.07396 0.20309 0.93603 0.0
H660 H 0.06572 0.15081 1.00378 0.0
H661 H 0.06574 0.18669 0.97799 0.0
H662 H 0.01034 0.14298 0.92558 0.0
H663 H 0.00995 0.10782 0.95133 0.0
C664 C 0.00964 0.2171 0.91638 0.0
C665 C 0.02984 0.23419 0.91214 0.0
C666 C 0.01245 0.19521 0.92776 0.0
C667 C 0.03558 0.18998 0.9355 0.0
C668 C 0.05592 0.2067 0.93042 0.0
C669 C 0.05306 0.22863 0.91867 0.0
C670 C 0.05367 0.14899 0.98669 0.0
C671 C 0.03759 0.12671 0.97975 0.0
C672 C 0.05382 0.16938 0.97182 0.0
C673 C 0.03791 0.16772 0.94981 0.0
C674 C 0.02255 0.14504 0.94258 0.0
C675 C 0.02233 0.12487 0.95739 0.0
H676 H 0.09736 0.82025 0.16714 0.0
H677 H 0.06198 0.7693 0.21563 0.0
H678 H 0.1356 0.82129 0.19218 0.0
H679 H 0.10057 0.77061 0.24115 0.0
H680 H 0.17947 0.75306 0.25599 0.0
H681 H 0.13889 0.75537 0.23734 0.0
H682 H 0.1592 0.83466 0.23153 0.0
H683 H 0.19998 0.83231 0.24981 0.0
C684 C 0.09762 0.80951 0.18341 0.0
C685 C 0.07643 0.7946 0.18921 0.0
C686 C 0.11967 0.81025 0.19795 0.0
C687 C 0.1214 0.79599 0.21877 0.0
C688 C 0.10006 0.78165 0.22512 0.0
C689 C 0.07784 0.78107 0.21061 0.0
C690 C 0.1753 0.7711 0.25103 0.0
C691 C 0.19327 0.79248 0.25438 0.0
C692 C 0.15185 0.77244 0.24043 0.0
C693 C 0.14561 0.79516 0.2327 0.0
C694 C 0.16333 0.81672 0.23688 0.0
C695 C 0.18677 0.81542 0.24759 0.0
H696 H 0.53281 0.84856 0.44411 0.0
H697 H 0.52652 0.88727 0.37676 0.0
H698 H 0.52452 0.88461 0.46853 0.0
H699 H 0.51743 0.92387 0.40161 0.0
H700 H 0.52622 0.99247 0.46098 0.0
H701 H 0.53459 0.95752 0.4338 0.0
H702 H 0.49164 0.90579 0.47606 0.0
H703 H 0.48415 0.94062 0.50367 0.0
C704 C 0.52944 0.86478 0.43439 0.0
C705 C 0.53013 0.86489 0.40835 0.0
C706 C 0.5245 0.88551 0.4485 0.0
C707 C 0.51987 0.9071 0.4371 0.0
C708 C 0.52096 0.90755 0.41104 0.0
C709 C 0.52607 0.8866 0.39676 0.0
C710 C 0.51878 0.97358 0.46456 0.0
C711 C 0.50486 0.96923 0.48474 0.0
C712 C 0.52332 0.95357 0.44877 0.0
C713 C 0.51396 0.92875 0.45276 0.0
C714 C 0.49958 0.92458 0.47267 0.0
C715 C 0.49518 0.94454 0.48849 0.0
H716 H 0.4118 0.25936 0.66448 0.0
H717 H 0.45448 0.26134 0.7354 0.0
H718 H 0.37545 0.25925 0.68593 0.0
H719 H 0.41835 0.26221 0.75704 0.0
H720 H 0.34664 0.24642 0.7903 0.0
H721 H 0.38158 0.24139 0.7677 0.0
H722 H 0.35498 0.28499 0.7099 0.0
H723 H 0.31973 0.28907 0.73212 0.0
C724 C 0.41344 0.25966 0.68469 0.0
C725 C 0.43617 0.26031 0.69814 0.0
C726 C 0.39253 0.25986 0.6971 0.0
C727 C 0.39367 0.26097 0.72343 0.0
C728 C 0.41642 0.26102 0.73681 0.0
C729 C 0.4373 0.2606 0.72436 0.0
C730 C 0.34821 0.25476 0.77266 0.0
C731 C 0.33038 0.26819 0.76308 0.0
C732 C 0.36841 0.25206 0.75972 0.0
C733 C 0.37148 0.26285 0.73683 0.0
C734 C 0.35333 0.27601 0.72717 0.0
C735 C 0.33308 0.27855 0.74004 0.0
H736 H 0.01146 0.84044 0.54428 0.0
H737 H 0.02422 0.88485 0.61521 0.0
H738 H 0.01503 0.8785 0.52236 0.0
H739 H 0.02832 0.92319 0.59287 0.0
H740 H 0.05641 0.97944 0.53038 0.0
H741 H 0.05791 0.94277 0.5547 0.0
H742 H 0.98401 0.91427 0.52669 0.0
H743 H 0.98206 0.95143 0.50366 0.0
C744 C 0.01544 0.85833 0.5552 0.0
C745 C 0.01735 0.85975 0.58146 0.0
C746 C 0.01745 0.88002 0.54262 0.0
C747 C 0.02182 0.90349 0.55605 0.0
C748 C 0.02501 0.90511 0.58227 0.0
C749 C 0.0226 0.8833 0.59496 0.0
C750 C 0.04039 0.96561 0.53 0.0
C751 C 0.01898 0.96842 0.51574 0.0
C752 C 0.04132 0.94466 0.54366 0.0
C753 C 0.02103 0.92603 0.54251 0.0
C754 C 0.99984 0.92854 0.52775 0.0
C755 C 0.99878 0.94966 0.51454 0.0
H756 H 0.44158 0.80138 0.93435 0.0
H757 H 0.48601 0.7958 0.87336 0.0
H758 H 0.40606 0.79914 0.90416 0.0
H759 H 0.45059 0.79317 0.84345 0.0
H760 H 0.38325 0.81257 0.798 0.0
H761 H 0.4196 0.81779 0.82758 0.0
H762 H 0.38293 0.76539 0.874 0.0
H763 H 0.34666 0.76039 0.84464 0.0
C764 C 0.44381 0.79996 0.91457 0.0
C765 C 0.46655 0.79856 0.90627 0.0
C766 C 0.42349 0.79845 0.89731 0.0
C767 C 0.42559 0.79572 0.8715 0.0
C768 C 0.44846 0.79538 0.86322 0.0
C769 C 0.46871 0.79675 0.88041 0.0
C770 C 0.38314 0.80197 0.81438 0.0
C771 C 0.36227 0.78611 0.81913 0.0
C772 C 0.40386 0.805 0.83131 0.0
C773 C 0.40392 0.79225 0.85323 0.0
C774 C 0.3832 0.77584 0.85752 0.0
C775 C 0.36257 0.77277 0.8406 0.0
H776 H 0.47381 0.23323 0.02718 0.0
H777 H 0.49004 0.21432 0.10291 0.0
H778 H 0.46928 0.18901 0.01241 0.0
H779 H 0.48577 0.17009 0.08787 0.0
H780 H 0.53192 0.12649 0.02657 0.0
H781 H 0.52099 0.16609 0.04179 0.0
H782 H 0.44583 0.13327 0.03429 0.0
H783 H 0.45662 0.09295 0.01923 0.0
C784 C 0.47549 0.21952 0.04075 0.0
C785 C 0.48261 0.22713 0.06611 0.0
C786 C 0.47274 0.1943 0.0323 0.0
C787 C 0.47717 0.17648 0.04909 0.0
C788 C 0.48199 0.18368 0.07475 0.0
C789 C 0.48444 0.20892 0.0833 0.0
C790 C 0.51299 0.12763 0.02772 0.0
C791 C 0.49511 0.10658 0.02155 0.0
C792 C 0.50683 0.15023 0.03667 0.0
C793 C 0.4827 0.15233 0.03936 0.0
C794 C 0.46458 0.13176 0.03249 0.0
C795 C 0.47077 0.10889 0.02376 0.0
H796 H 0.10608 0.24351 0.41084 0.0
H797 H 0.06821 0.27351 0.3494 0.0
H798 H 0.13598 0.23282 0.38355 0.0
H799 H 0.09885 0.26507 0.32267 0.0
H800 H 0.15085 0.24085 0.27337 0.0
H801 H 0.11737 0.23891 0.29934 0.0
H802 H 0.16853 0.25056 0.36567 0.0
H803 H 0.20135 0.25013 0.33965 0.0
C804 C 0.10431 0.24792 0.39149 0.0
C805 C 0.08499 0.25936 0.38218 0.0
C806 C 0.12151 0.242 0.37582 0.0
C807 C 0.12017 0.24823 0.35075 0.0
C808 C 0.10043 0.25935 0.34154 0.0
C809 C 0.0829 0.26449 0.35697 0.0
C810 C 0.15469 0.24242 0.29353 0.0
C811 C 0.17853 0.2457 0.30457 0.0
C812 C 0.13558 0.24162 0.3085 0.0
C813 C 0.14004 0.24503 0.3348 0.0
C814 C 0.16406 0.24742 0.34565 0.0
C815 C 0.18303 0.24739 0.3307 0.0
H816 H 0.89433 0.03645 0.16103 0.0
H817 H 0.93899 0.10316 0.19643 0.0
H818 H 0.91984 0.03712 0.1265 0.0
H819 H 0.96442 0.10408 0.16184 0.0
H820 H 0.99705 0.0977 0.08351 0.0
H821 H 0.9678 0.10491 0.1133 0.0
H822 H 0.96398 0.02847 0.13259 0.0
H823 H 0.99328 0.0213 0.10355 0.0
C824 C 0.90876 0.05204 0.16069 0.0
C825 C 0.91451 0.06996 0.18112 0.0
C826 C 0.92362 0.05221 0.14119 0.0
C827 C 0.94436 0.0704 0.14178 0.0
C828 C 0.94856 0.08987 0.16089 0.0
C829 C 0.93387 0.0895 0.18054 0.0
C830 C 0.99042 0.08261 0.09455 0.0
C831 C 0.99751 0.05888 0.09101 0.0
C832 C 0.97347 0.08669 0.11138 0.0
C833 C 0.9631 0.06702 0.12466 0.0
C834 C 0.97113 0.04377 0.12204 0.0
C835 C 0.9882 0.03978 0.10559 0.0
H836 H 0.31552 0.73653 0.46388 0.0
H837 H 0.28891 0.66663 0.42056 0.0
H838 H 0.30606 0.75939 0.42806 0.0
H839 H 0.27789 0.68958 0.38461 0.0
H840 H 0.27989 0.7382 0.31707 0.0
H841 H 0.28868 0.71327 0.35196 0.0
H842 H 0.27724 0.77386 0.40362 0.0
H843 H 0.27003 0.799 0.36875 0.0
C844 C 0.30735 0.72598 0.44667 0.0
C845 C 0.30298 0.69967 0.44524 0.0
C846 C 0.3016 0.7392 0.42598 0.0
C847 C 0.29072 0.72667 0.40306 0.0
C848 C 0.28644 0.70018 0.40161 0.0
C849 C 0.29264 0.68689 0.42234 0.0
C850 C 0.2791 0.74608 0.33589 0.0
C851 C 0.27428 0.77068 0.34005 0.0
C852 C 0.2841 0.73169 0.35608 0.0
C853 C 0.28411 0.74135 0.38109 0.0
C854 C 0.2783 0.76571 0.38496 0.0
C855 C 0.27381 0.78019 0.36484 0.0
H856 H 0.61875 1.00077 0.70004 0.0
H857 H 0.54791 0.96703 0.71558 0.0
H858 H 0.60321 1.00402 0.6566 0.0
H859 H 0.5325 0.96922 0.67224 0.0
H860 H 0.50495 0.0104 0.60677 0.0
H861 H 0.5217 1.00045 0.64745 0.0
H862 H 0.58684 0.98651 0.61598 0.0
H863 H 0.5703 0.99724 0.5754 0.0
C864 C 0.6001 0.99312 0.69392 0.0
C865 C 0.58459 0.98358 0.71125 0.0
C866 C 0.59106 0.9951 0.66898 0.0
C867 C 0.56634 0.9874 0.66078 0.0
C868 C 0.55141 0.97611 0.67783 0.0
C869 C 0.56034 0.97445 0.70267 0.0
C870 C 0.52274 1.00497 0.6084 0.0
C871 C 0.53617 1.00468 0.58764 0.0
C872 C 0.5324 0.99909 0.63184 0.0
C873 C 0.55575 0.99252 0.63529 0.0
C874 C 0.56899 0.99176 0.61434 0.0
C875 C 0.55936 0.99777 0.59092 0.0
H876 H 0.29994 0.37052 1.00125 0.0
H877 H 0.28203 0.43316 0.96162 0.0
H878 H 0.30508 0.34823 0.96201 0.0
H879 H 0.28757 0.41087 0.92209 0.0
H880 H 0.25356 0.34496 0.86394 0.0
H881 H 0.26034 0.37372 0.90131 0.0
H882 H 0.32593 0.34494 0.92374 0.0
H883 H 0.31892 0.31578 0.88612 0.0
C884 C 0.29779 0.37981 0.98417 0.0
C885 C 0.29013 0.40333 0.98434 0.0
C886 C 0.3009 0.36709 0.9617 0.0
C887 C 0.29632 0.37765 0.939 0.0
C888 C 0.29082 0.40217 0.93937 0.0
C889 C 0.28782 0.41498 0.96194 0.0
C890 C 0.26944 0.34479 0.87684 0.0
C891 C 0.28561 0.32805 0.87239 0.0
C892 C 0.27352 0.36152 0.89804 0.0
C893 C 0.29384 0.36179 0.91526 0.0
C894 C 0.31015 0.34511 0.91072 0.0
C895 C 0.30609 0.32839 0.88935 0.0
H896 H 0.87278 0.05886 0.33006 0.0
H897 H 0.93642 0.05254 0.29224 0.0
H898 H 0.89576 0.05472 0.37012 0.0
H899 H 0.95915 0.04889 0.33177 0.0
H900 H 0.9862 0.01663 0.40199 0.0
H901 H 0.96095 0.01904 0.36336 0.0
H902 H 0.9301 0.07914 0.39851 0.0
H903 H 0.95517 0.07631 0.43751 0.0
C904 C 0.89156 0.05648 0.3303 0.0
C905 C 0.90278 0.05592 0.30807 0.0
C906 C 0.90473 0.0543 0.35317 0.0
C907 C 0.92922 0.05142 0.35401 0.0
C908 C 0.94024 0.05069 0.33169 0.0
C909 C 0.92718 0.05289 0.30902 0.0
C910 C 0.9741 0.03042 0.40141 0.0
C911 C 0.97268 0.04641 0.42256 0.0
C912 C 0.95965 0.03181 0.37933 0.0
C913 C 0.94358 0.0493 0.37793 0.0
C914 C 0.94212 0.06528 0.39917 0.0
C915 C 0.9566 0.06385 0.42134 0.0
H916 H 0.33944 0.74085 0.5803 0.0
H917 H 0.2902 0.67316 0.58669 0.0
H918 H 0.33415 0.75562 0.62304 0.0
H919 H 0.2844 0.68815 0.62942 0.0
H920 H 0.25322 0.7443 0.68383 0.0
H921 H 0.26373 0.72454 0.64508 0.0
H922 H 0.33938 0.74746 0.66937 0.0
H923 H 0.32891 0.76694 0.70841 0.0
C924 C 0.3282 0.72869 0.59123 0.0
C925 C 0.31568 0.70557 0.58028 0.0
C926 C 0.325 0.73725 0.61569 0.0
C927 C 0.30865 0.72323 0.62965 0.0
C928 C 0.297 0.69952 0.61914 0.0
C929 C 0.30063 0.6907 0.59481 0.0
C930 C 0.27212 0.74521 0.68097 0.0
C931 C 0.29018 0.75748 0.69929 0.0
C932 C 0.27815 0.7336 0.65881 0.0
C933 C 0.30243 0.73425 0.65409 0.0
C934 C 0.32051 0.74661 0.67234 0.0
C935 C 0.31448 0.7578 0.69474 0.0
H936 H 0.63059 0.01038 0.87032 0.0
H937 H 0.56177 0.98727 0.82677 0.0
H938 H 0.60948 0.01878 0.90745 0.0
H939 H 0.541 0.99511 0.86355 0.0
H940 H 0.51442 0.98059 0.94015 0.0
H941 H 0.53825 0.97455 0.9053 0.0
H942 H 0.57812 0.04895 0.92249 0.0
H943 H 0.55334 0.05541 0.95706 0.0
C944 C 0.61104 0.00705 0.86865 0.0
C945 C 0.59793 0.99805 0.84551 0.0
C946 C 0.59895 0.01199 0.88987 0.0
C947 C 0.57352 0.00751 0.88853 0.0
C948 C 0.56056 0.99858 0.86536 0.0
C949 C 0.57254 0.99414 0.8442 0.0
C950 C 0.52823 0.99576 0.9366 0.0
C951 C 0.53202 0.01848 0.95165 0.0
C952 C 0.54194 0.99224 0.91657 0.0
C953 C 0.56016 0.01122 0.91104 0.0
C954 C 0.56442 0.03383 0.92639 0.0
C955 C 0.5503 0.03752 0.9463 0.0
H956 H 0.22604 0.33898 0.0682 0.0
H957 H 0.24862 0.4023 0.1223 0.0
H958 H 0.21325 0.31304 0.10134 0.0
H959 H 0.23586 0.37614 0.15571 0.0
H960 H 0.20998 0.31957 0.21069 0.0
H961 H 0.20258 0.34417 0.17485 0.0
H962 H 0.24747 0.30261 0.13277 0.0
H963 H 0.25535 0.27874 0.16863 0.0
C964 C 0.22737 0.34757 0.08711 0.0
C965 C 0.23867 0.37245 0.09288 0.0
C966 C 0.22006 0.33272 0.10602 0.0
C967 C 0.224 0.3425 0.13103 0.0
C968 C 0.23257 0.36822 0.13651 0.0
C969 C 0.23987 0.38318 0.11745 0.0
C970 C 0.21753 0.31519 0.19343 0.0
C971 C 0.23312 0.29723 0.19219 0.0
C972 C 0.21345 0.32936 0.17309 0.0
C973 C 0.22437 0.32519 0.1511 0.0
C974 C 0.23854 0.30596 0.14939 0.0
C975 C 0.2431 0.29232 0.16986 0.0
H976 H 0.14905 0.91316 0.01068 0.0
H977 H 0.19768 0.96615 0.0616 0.0
H978 H 0.11818 0.93993 0.01248 0.0
H979 H 0.16632 0.9924 0.06499 0.0
H980 H 0.11344 0.0475 0.04907 0.0
H981 H 0.14456 0.02065 0.04895 0.0
H982 H 0.08919 0.95587 0.03117 0.0
H983 H 0.05865 0.98309 0.02937 0.0
C984 C 0.153 0.93035 0.02273 0.0
C985 C 0.17595 0.93735 0.03601 0.0
C986 C 0.13509 0.94584 0.02396 0.0
C987 C 0.13921 0.96876 0.03899 0.0
C988 C 0.16216 0.97539 0.05273 0.0
C989 C 0.18026 0.96012 0.05104 0.0
C990 C 0.10797 0.02749 0.04529 0.0
C991 C 0.08341 0.01755 0.0394 0.0
C992 C 0.12591 0.01187 0.04534 0.0
C993 C 0.11991 0.98563 0.03993 0.0
C994 C 0.09511 0.9758 0.03482 0.0
C995 C 0.0773 0.99148 0.03421 0.0
H996 H 0.71243 0.58899 0.97363 0.0
H997 H 0.67108 0.64515 0.94767 0.0
H998 H 0.67514 0.5614 0.97852 0.0
H999 H 0.6339 0.61766 0.95297 0.0
H1000 H 0.60775 0.54378 0.02302 0.0
H1001 H 0.64545 0.56314 0.00885 0.0
H1002 H 0.6069 0.57848 0.93996 0.0
H1003 H 0.56908 0.55948 0.95423 0.0
C1004 C 0.69542 0.59534 0.96855 0.0
C1005 C 0.69481 0.61948 0.96055 0.0
C1006 C 0.67405 0.57953 0.97151 0.0
C1007 C 0.65158 0.58745 0.96645 0.0
C1008 C 0.6509 0.6109 0.95687 0.0
C1009 C 0.67227 0.62673 0.95393 0.0
C1010 C 0.60731 0.55086 1.00466 0.0
C1011 C 0.58532 0.55031 0.98992 0.0
C1012 C 0.62899 0.56186 0.99647 0.0
C1013 C 0.62914 0.57254 0.97334 0.0
C1014 C 0.60732 0.57075 0.95802 0.0
C1015 C 0.58565 0.55974 0.96619 0.0
H1016 H 0.73185 0.47383 0.30688 0.0
H1017 H 0.66712 0.42969 0.26929 0.0
H1018 H 0.75434 0.43989 0.29821 0.0
H1019 H 0.68978 0.39644 0.25822 0.0
H1020 H 0.72985 0.32998 0.26249 0.0
H1021 H 0.70712 0.36389 0.26893 0.0
H1022 H 0.77337 0.41689 0.27338 0.0
H1023 H 0.79602 0.38229 0.26949 0.0
C1024 C 0.72257 0.45694 0.29626 0.0
C1025 C 0.69775 0.45434 0.28887 0.0
C1026 C 0.73553 0.43738 0.29096 0.0
C1027 C 0.72422 0.41492 0.27729 0.0
C1028 C 0.69934 0.41284 0.26933 0.0
C1029 C 0.68624 0.43208 0.27544 0.0
C1030 C 0.7395 0.34882 0.26465 0.0
C1031 C 0.76475 0.35332 0.26557 0.0
C1032 C 0.72638 0.3686 0.26825 0.0
C1033 C 0.7381 0.39369 0.27202 0.0
C1034 C 0.76341 0.39809 0.2715 0.0
C1035 C 0.77652 0.37819 0.26883 0.0
H1036 H 0.82356 0.38644 0.51261 0.0
H1037 H 0.79005 0.45313 0.51649 0.0
H1038 H 0.8631 0.41213 0.51454 0.0
H1039 H 0.83 0.47897 0.5182 0.0
H1040 H 0.90577 0.5104 0.48986 0.0
H1041 H 0.86467 0.48746 0.48969 0.0
H1042 H 0.89027 0.44235 0.54646 0.0
H1043 H 0.93109 0.46535 0.5468 0.0
C1044 C 0.82457 0.40661 0.51381 0.0
C1045 C 0.8035 0.41766 0.51441 0.0
C1046 C 0.84733 0.42135 0.51507 0.0
C1047 C 0.84974 0.4476 0.51663 0.0
C1048 C 0.82872 0.45878 0.51692 0.0
C1049 C 0.80586 0.44398 0.51606 0.0
C1050 C 0.90251 0.49573 0.50244 0.0
C1051 C 0.92166 0.48959 0.51826 0.0
C1052 C 0.87898 0.48268 0.50242 0.0
C1053 C 0.87422 0.46297 0.51795 0.0
C1054 C 0.89336 0.45723 0.53408 0.0
C1055 C 0.91674 0.47048 0.53435 0.0
H1056 H 0.33732 0.10407 0.23773 0.0
H1057 H 0.39857 0.16315 0.24992 0.0
H1058 H 0.31016 0.13477 0.23618 0.0
H1059 H 0.37136 0.1943 0.24699 0.0
H1060 H 0.31579 0.24327 0.27025 0.0
H1061 H 0.34439 0.21396 0.26765 0.0
H1062 H 0.29248 0.16436 0.21611 0.0
H1063 H 0.26344 0.19334 0.22001 0.0
C1064 C 0.34508 0.12371 0.23956 0.0
C1065 C 0.37026 0.13102 0.24398 0.0
C1066 C 0.32937 0.14151 0.23849 0.0
C1067 C 0.33822 0.16738 0.24145 0.0
C1068 C 0.36356 0.17469 0.2451 0.0
C1069 C 0.37931 0.15679 0.24652 0.0
C1070 C 0.31051 0.22614 0.25826 0.0
C1071 C 0.28719 0.2206 0.24548 0.0
C1072 C 0.32709 0.20927 0.25658 0.0
C1073 C 0.32103 0.18636 0.24178 0.0
C1074 C 0.29788 0.18135 0.22825 0.0
C1075 C 0.28118 0.19811 0.23024 0.0
H1076 H 0.35449 0.15067 0.51259 0.0
H1077 H 0.30128 0.08451 0.5133 0.0
H1078 H 0.38634 0.12688 0.52499 0.0
H1079 H 0.33319 0.06073 0.52642 0.0
H1080 H 0.40107 0.0229 0.51306 0.0
H1081 H 0.36591 0.04432 0.50833 0.0
H1082 H 0.40372 0.1061 0.55841 0.0
H1083 H 0.43904 0.08498 0.56241 0.0
C1084 C 0.34957 0.13111 0.51573 0.0
C1085 C 0.3254 0.11945 0.51184 0.0
C1086 C 0.36782 0.11747 0.52306 0.0
C1087 C 0.36234 0.09187 0.5268 0.0
C1088 C 0.33806 0.08034 0.52345 0.0
C1089 C 0.31978 0.09399 0.51603 0.0
C1090 C 0.4016 0.04079 0.52347 0.0
C1091 C 0.42276 0.05242 0.5379 0.0
C1092 C 0.38145 0.05308 0.52081 0.0
C1093 C 0.38213 0.07714 0.53268 0.0
C1094 C 0.4028 0.08787 0.54855 0.0
C1095 C 0.42294 0.07568 0.55104 0.0
H1096 H 0.71027 0.57772 0.32024 0.0
H1097 H 0.64373 0.60635 0.30201 0.0
H1098 H 0.73324 0.61878 0.31397 0.0
H1099 H 0.66664 0.64674 0.29517 0.0
H1100 H 0.71863 0.69953 0.25134 0.0
H1101 H 0.69809 0.65861 0.26049 0.0
H1102 H 0.73564 0.66822 0.33467 0.0
H1103 H 0.75585 0.70967 0.32583 0.0
C1104 C 0.70054 0.59273 0.3151 0.0
C1105 C 0.67511 0.58866 0.31174 0.0
C1106 C 0.71369 0.61621 0.31154 0.0
C1107 C 0.70169 0.63586 0.30393 0.0
C1108 C 0.67635 0.63189 0.30089 0.0
C1109 C 0.66325 0.60873 0.30499 0.0
C1110 C 0.72268 0.69293 0.26957 0.0
C1111 C 0.73888 0.70795 0.28786 0.0
C1112 C 0.71083 0.66952 0.27482 0.0
C1113 C 0.71527 0.66026 0.29828 0.0
C1114 C 0.73196 0.67488 0.31639 0.0
C1115 C 0.74342 0.69863 0.31135 0.0
H1116 H 0.91345 0.47551 0.77153 0.0
H1117 H 0.85398 0.51762 0.76889 0.0
H1118 H 0.88517 0.43686 0.7726 0.0
H1119 H 0.82571 0.4788 0.77034 0.0
H1120 H 0.79049 0.40331 0.80283 0.0
H1121 H 0.81691 0.44366 0.80176 0.0
H1122 H 0.85106 0.41232 0.74114 0.0
H1123 H 0.8246 0.37246 0.74189 0.0
C1124 C 0.89437 0.47656 0.77128 0.0
C1125 C 0.88601 0.49969 0.77002 0.0
C1126 C 0.87817 0.45439 0.77181 0.0
C1127 C 0.85324 0.45482 0.77152 0.0
C1128 C 0.84484 0.47794 0.77071 0.0
C1129 C 0.86103 0.50011 0.76971 0.0
C1130 C 0.80349 0.40521 0.78915 0.0
C1131 C 0.8055 0.38477 0.77247 0.0
C1132 C 0.81855 0.42825 0.78851 0.0
C1133 C 0.83616 0.43104 0.77148 0.0
C1134 C 0.83785 0.41065 0.75463 0.0
C1135 C 0.8226 0.38787 0.75499 0.0
H1136 H 0.99809 0.86094 0.16436 0.0
H1137 H 1.00457 0.8166 0.09644 0.0
H1138 H 0.9988 0.89823 0.14076 0.0
H1139 H 1.0053 0.8536 0.07306 0.0
H1140 H 0.9803 0.92027 0.0349 0.0
H1141 H 0.97799 0.88324 0.05908 0.0
H1142 H 0.02769 0.92536 0.11792 0.0
H1143 H 0.02992 0.9621 0.09391 0.0
C1144 C 0.99977 0.85918 0.14447 0.0
C1145 C 1.00133 0.83583 0.13232 0.0
C1146 C 1.0002 0.8805 0.13095 0.0
C1147 C 1.00195 0.87883 0.10497 0.0
C1148 C 1.00356 0.85547 0.09293 0.0
C1149 C 1.00336 0.83429 0.10643 0.0
C1150 C 0.99067 0.92153 0.053 0.0
C1151 C 1.0053 0.944 0.06249 0.0
C1152 C 0.98943 0.90037 0.06682 0.0
C1153 C 1.00263 0.90139 0.09048 0.0
C1154 C 0.01707 0.92401 0.09995 0.0
C1155 C 0.01846 0.94501 0.08609 0.0
H1156 H 0.97073 0.3062 0.81749 0.0
H1157 H 0.93346 0.27384 0.8771 0.0
H1158 H 0.93232 0.29944 0.79036 0.0
H1159 H 0.89565 0.26694 0.85028 0.0
H1160 H 0.83293 0.24068 0.79298 0.0
H1161 H 0.87427 0.24224 0.81203 0.0
H1162 H 0.89283 0.31727 0.78996 0.0
H1163 H 0.85152 0.31577 0.77091 0.0
C1164 C 0.95449 0.29736 0.82468 0.0
C1165 C 0.95521 0.29073 0.84954 0.0
C1166 C 0.93247 0.29358 0.80921 0.0
C1167 C 0.91084 0.28254 0.81808 0.0
C1168 C 0.91189 0.27518 0.84264 0.0
C1169 C 0.93363 0.27936 0.85813 0.0
C1170 C 0.84594 0.25728 0.79159 0.0
C1171 C 0.83876 0.27812 0.78046 0.0
C1172 C 0.86964 0.25826 0.80272 0.0
C1173 C 0.88689 0.27999 0.80277 0.0
C1174 C 0.88013 0.3002 0.79018 0.0
C1175 C 0.85635 0.29934 0.77932 0.0
H1176 H 0.4764 0.2111 0.58565 0.0
H1177 H 0.51316 0.18924 0.65249 0.0
H1178 H 0.48049 0.17163 0.56335 0.0
H1179 H 0.51729 0.14932 0.63003 0.0
H1180 H 0.50675 0.07337 0.57935 0.0
H1181 H 0.49546 0.10816 0.60481 0.0
H1182 H 0.51951 0.15891 0.55039 0.0
H1183 H 0.53091 0.12421 0.52509 0.0
C1184 C 0.48457 0.19738 0.59583 0.0
C1185 C 0.4944 0.2032 0.62082 0.0
C1186 C 0.4872 0.17491 0.58296 0.0
C1187 C 0.49971 0.15764 0.59475 0.0
C1188 C 0.50759 0.16234 0.62045 0.0
C1189 C 0.50502 0.18504 0.6334 0.0
C1190 C 0.50952 0.09198 0.57282 0.0
C1191 C 0.51958 0.09612 0.55015 0.0
C1192 C 0.50317 0.11187 0.58746 0.0
C1193 C 0.5064 0.13622 0.57954 0.0
C1194 C 0.51647 0.14028 0.55684 0.0
C1195 C 0.52314 0.12048 0.54241 0.0
H1196 H 0.57817 0.77721 0.31123 0.0
H1197 H 0.62095 0.81838 0.3753 0.0
H1198 H 0.61475 0.77369 0.29121 0.0
H1199 H 0.65768 0.81571 0.35492 0.0
H1200 H 0.72183 0.78725 0.31897 0.0
H1201 H 0.68607 0.7906 0.34128 0.0
H1202 H 0.64456 0.79631 0.27097 0.0
H1203 H 0.67973 0.79207 0.24906 0.0
C1204 C 0.5954 0.78568 0.32101 0.0
C1205 C 0.59646 0.79817 0.34488 0.0
C1206 C 0.61653 0.78384 0.30942 0.0
C1207 C 0.63951 0.79463 0.32116 0.0
C1208 C 0.64054 0.8069 0.34523 0.0
C1209 C 0.61936 0.8086 0.3569 0.0
C1210 C 0.70505 0.78937 0.30842 0.0
C1211 C 0.70365 0.7893 0.28221 0.0
C1212 C 0.68447 0.79135 0.32118 0.0
C1213 C 0.66201 0.79341 0.30805 0.0
C1214 C 0.66109 0.79405 0.28188 0.0
C1215 C 0.68146 0.79189 0.26924 0.0
H1216 H 0.04912 0.20578 0.4374 0.0
H1217 H 0.9898 0.21508 0.48098 0.0
H1218 H 0.04955 0.16386 0.452 0.0
H1219 H 0.99018 0.17347 0.49536 0.0
H1220 H 0.98746 0.09112 0.50529 0.0
H1221 H 0.98406 0.12753 0.48135 0.0
H1222 H 0.06107 0.15137 0.49604 0.0
H1223 H 0.06443 0.11475 0.51966 0.0
C1224 C 0.03583 0.19861 0.44957 0.0
C1225 C 0.01957 0.21365 0.45828 0.0
C1226 C 0.03619 0.17479 0.45804 0.0
C1227 C 0.02001 0.16559 0.47491 0.0
C1228 C 1.00275 0.18004 0.48224 0.0
C1229 C 1.00263 0.20389 0.47413 0.0
C1230 C 1.00363 0.10406 0.50312 0.0
C1231 C 0.02615 0.10037 0.5143 0.0
C1232 C 1.0017 0.12483 0.48951 0.0
C1233 C 0.02232 0.14214 0.48679 0.0
C1234 C 0.04495 0.13811 0.49758 0.0
C1235 C 0.04683 0.11744 0.51138 0.0
H1236 H 0.60075 0.3248 0.11077 0.0
H1237 H 0.56041 0.26686 0.14835 0.0
H1238 H 0.63578 0.32499 0.14091 0.0
H1239 H 0.59568 0.26576 0.17751 0.0
H1240 H 0.65558 0.28342 0.24041 0.0
H1241 H 0.62009 0.28656 0.21178 0.0
H1242 H 0.66627 0.3029 0.15294 0.0
H1243 H 0.7014 0.3014 0.18197 0.0
C1244 C 0.59959 0.31178 0.12521 0.0
C1245 C 0.57797 0.2958 0.12723 0.0
C1246 C 0.61965 0.3118 0.1425 0.0
C1247 C 0.61867 0.29539 0.1618 0.0
C1248 C 0.59705 0.27909 0.16338 0.0
C1249 C 0.57688 0.27949 0.14646 0.0
C1250 C 0.65797 0.28791 0.2214 0.0
C1251 C 0.68109 0.29222 0.21335 0.0
C1252 C 0.63769 0.28951 0.20489 0.0
C1253 C 0.64019 0.2949 0.17988 0.0
C1254 C 0.66352 0.29925 0.17208 0.0
C1255 C 0.68371 0.29819 0.18869 0.0
H1256 H 0.54384 0.83283 0.99419 0.0
H1257 H 0.55831 0.86785 0.92612 0.0
H1258 H 0.54494 0.87386 0.01602 0.0
H1259 H 0.55903 0.90891 0.9479 0.0
H1260 H 0.5109 0.94664 0.02902 0.0
H1261 H 0.51793 0.90546 0.01361 0.0
H1262 H 0.58137 0.93922 0.98149 0.0
H1263 H 0.57417 0.98059 0.99656 0.0
C1264 C 0.54737 0.84931 0.98392 0.0
C1265 C 0.55081 0.84719 0.9584 0.0
C1266 C 0.54797 0.87277 0.99643 0.0
C1267 C 0.55204 0.89455 0.98367 0.0
C1268 C 0.55619 0.89245 0.95831 0.0
C1269 C 0.55557 0.86896 0.94578 0.0
C1270 C 0.52664 0.94529 0.01914 0.0
C1271 C 0.54184 0.96689 0.01382 0.0
C1272 C 0.53073 0.92166 0.01039 0.0
C1273 C 0.55005 0.91919 0.99611 0.0
C1274 C 0.56614 0.94066 0.99215 0.0
C1275 C 0.56213 0.96431 1.00101 0.0
H1276 H 0.96918 0.78563 0.68153 0.0
H1277 H 0.92505 0.80315 0.6171 0.0
H1278 H 0.93519 0.78619 0.70662 0.0
H1279 H 0.89134 0.80411 0.64225 0.0
H1280 H 0.82976 0.77334 0.68526 0.0
H1281 H 0.86475 0.7731 0.66219 0.0
H1282 H 0.90971 0.81638 0.72394 0.0
H1283 H 0.87425 0.81622 0.74752 0.0
C1284 C 0.95222 0.78954 0.67273 0.0
C1285 C 0.94966 0.79417 0.64732 0.0
C1286 C 0.93289 0.7901 0.68716 0.0
C1287 C 0.9107 0.79521 0.67637 0.0
C1288 C 0.9082 0.79984 0.65097 0.0
C1289 C 0.92748 0.79929 0.63657 0.0
C1290 C 0.84709 0.78287 0.69396 0.0
C1291 C 0.84938 0.79498 0.71806 0.0
C1292 C 0.86709 0.78281 0.68068 0.0
C1293 C 0.88985 0.79494 0.69117 0.0
C1294 C 0.89231 0.80681 0.71549 0.0
C1295 C 0.87212 0.80686 0.72889 0.0
H1296 H 0.09547 0.97632 0.83928 0.0
H1297 H 0.15393 0.02205 0.8862 0.0
H1298 H 0.0692 0.9781 0.8729 0.0
H1299 H 0.12718 0.0245 0.91977 0.0
H1300 H 0.05743 0.05374 0.94643 0.0
H1301 H 0.08502 0.04575 0.91585 0.0
H1302 H 0.06822 0.96642 0.92295 0.0
H1303 H 0.04089 0.9743 0.95475 0.0
C1304 C 0.10277 0.98649 0.85697 0.0
C1305 C 0.1267 0.99913 0.86019 0.0
C1306 C 0.08776 0.98737 0.87618 0.0
C1307 C 0.09618 1.00143 0.89882 0.0
C1308 C 0.12034 0.01349 0.90241 0.0
C1309 C 0.13563 0.01205 0.88333 0.0
C1310 C 0.05931 0.03448 0.94152 0.0
C1311 C 0.04685 0.01463 0.95324 0.0
C1312 C 0.07539 0.03001 0.92414 0.0
C1313 C 0.07909 0.00558 0.9175 0.0
C1314 C 0.06583 0.9855 0.92807 0.0
C1315 C 0.05004 0.99 0.94605 0.0
H1316 H 0.77837 0.35454 0.58449 0.0
H1317 H 0.70656 0.36542 0.59959 0.0
H1318 H 0.78462 0.33719 0.62456 0.0
H1319 H 0.71275 0.34753 0.64028 0.0
H1320 H 0.74218 0.32819 0.72044 0.0
H1321 H 0.73595 0.35096 0.68305 0.0
H1322 H 0.76972 0.29787 0.64078 0.0
H1323 H 0.77593 0.27532 0.67802 0.0
C1324 C 0.76395 0.35355 0.59663 0.0
C1325 C 0.74192 0.36134 0.5887 0.0
C1326 C 0.76748 0.34331 0.6196 0.0
C1327 C 0.74905 0.3403 0.6356 0.0
C1328 C 0.72739 0.34948 0.62846 0.0
C1329 C 0.72384 0.35988 0.60521 0.0
C1330 C 0.74839 0.32148 0.70317 0.0
C1331 C 0.7597 0.29993 0.7023 0.0
C1332 C 0.74464 0.33446 0.68166 0.0
C1333 C 0.75238 0.32645 0.65875 0.0
C1334 C 0.76379 0.30494 0.65807 0.0
C1335 C 0.76733 0.29188 0.67945 0.0
H1336 H 0.40223 0.07381 0.34243 0.0
H1337 H 0.47285 0.08682 0.31624 0.0
H1338 H 0.4205 0.06699 0.38378 0.0
H1339 H 0.49132 0.08128 0.35768 0.0
H1340 H 0.51685 0.04466 0.42703 0.0
H1341 H 0.49886 0.05268 0.38615 0.0
H1342 H 0.44257 0.08386 0.42108 0.0
H1343 H 0.46007 0.0747 0.46184 0.0
C1344 C 0.4217 0.07554 0.34559 0.0
C1345 C 0.43602 0.08082 0.32594 0.0
C1346 C 0.43229 0.07177 0.36945 0.0
C1347 C 0.45759 0.07348 0.37447 0.0
C1348 C 0.47183 0.07921 0.35474 0.0
C1349 C 0.46121 0.08263 0.33088 0.0
C1350 C 0.50076 0.05344 0.42604 0.0
C1351 C 0.49001 0.05902 0.44788 0.0
C1352 C 0.49038 0.05817 0.40245 0.0
C1353 C 0.46903 0.06896 0.3999 0.0
C1354 C 0.45865 0.07508 0.42192 0.0
C1355 C 0.46887 0.07004 0.44547 0.0
H1356 H 0.7592 0.65646 0.06157 0.0
H1357 H 0.76696 0.73145 0.03717 0.0
H1358 H 0.76005 0.67366 0.10481 0.0
H1359 H 0.76858 0.74853 0.08009 0.0
H1360 H 0.74063 0.76922 0.15343 0.0
H1361 H 0.74098 0.75079 0.11103 0.0
H1362 H 0.78555 0.69822 0.13915 0.0
H1363 H 0.78445 0.71626 0.18172 0.0
C1364 C 0.76134 0.67657 0.06546 0.0
C1365 C 0.76265 0.69257 0.04597 0.0
C1366 C 0.76192 0.68644 0.0902 0.0
C1367 C 0.76406 0.71245 0.09581 0.0
C1368 C 0.76626 0.72838 0.07634 0.0
C1369 C 0.76544 0.71857 0.05173 0.0
C1370 C 0.75048 0.75374 0.15049 0.0
C1371 C 0.76251 0.74412 0.17069 0.0
C1372 C 0.75082 0.74325 0.12623 0.0
C1373 C 0.76343 0.72312 0.12172 0.0
C1374 C 0.77546 0.71351 0.14204 0.0
C1375 C 0.77496 0.72391 0.16635 0.0
H1376 H 0.15326 0.01388 0.71855 0.0
H1377 H 0.08138 0.98559 0.73622 0.0
H1378 H 0.13752 0.01492 0.6746 0.0
H1379 H 0.06589 0.98651 0.69274 0.0
H1380 H 0.04502 0.0365 0.63112 0.0
H1381 H 0.0633 0.02696 0.67138 0.0
H1382 H 0.11377 0.98861 0.63416 0.0
H1383 H 0.09517 0.99806 0.59351 0.0
C1384 C 0.13433 0.00716 0.7129 0.0
C1385 C 0.11844 1.00011 0.73078 0.0
C1386 C 0.12533 0.00779 0.68784 0.0
C1387 C 0.10043 1.00132 0.68053 0.0
C1388 C 0.08507 0.9921 0.69804 0.0
C1389 C 0.09397 0.99153 0.72288 0.0
C1390 C 0.05996 0.02598 0.63151 0.0
C1391 C 0.06868 0.01796 0.60931 0.0
C1392 C 0.07034 0.02041 0.6545 0.0
C1393 C 0.0898 0.00686 0.6558 0.0
C1394 C 0.09879 0.99907 0.6336 0.0
C1395 C 0.08814 1.00441 0.61045 0.0
H1396 H 0.71194 0.33473 0.46207 0.0
H1397 H 0.73969 0.40802 0.44066 0.0
H1398 H 0.71882 0.31611 0.42113 0.0
H1399 H 0.74734 0.38922 0.39996 0.0
H1400 H 0.78638 0.3366 0.34784 0.0
H1401 H 0.77675 0.35635 0.38704 0.0
H1402 H 0.70302 0.31946 0.37234 0.0
H1403 H 0.71243 0.30023 0.3325 0.0
C1404 C 0.71945 0.34689 0.4486 0.0
C1405 C 0.72518 0.3729 0.45465 0.0
C1406 C 0.72331 0.3362 0.42511 0.0
C1407 C 0.73363 0.35115 0.40726 0.0
C1408 C 0.7394 0.37718 0.4133 0.0
C1409 C 0.73492 0.38796 0.43657 0.0
C1410 C 0.76808 0.33266 0.35289 0.0
C1411 C 0.75022 0.31667 0.33698 0.0
C1412 C 0.76255 0.34414 0.37532 0.0
C1413 C 0.73912 0.33952 0.38284 0.0
C1414 C 0.72125 0.32337 0.3671 0.0
C1415 C 0.72664 0.31239 0.34426 0.0
H1416 H 0.4547 0.02609 0.19623 0.0
H1417 H 0.43865 0.0997 0.18258 0.0
H1418 H 0.47082 0.02271 0.1561 0.0
H1419 H 0.45484 0.09629 0.14169 0.0
H1420 H 0.51824 0.09288 0.09075 0.0
H1421 H 0.4945 0.09638 0.12624 0.0
H1422 H 0.46327 0.01846 0.11145 0.0
H1423 H 0.48763 0.01494 0.07631 0.0
C1424 C 0.45422 0.04146 0.18438 0.0
C1425 C 0.44541 0.06322 0.19275 0.0
C1426 C 0.46339 0.03944 0.16116 0.0
C1427 C 0.46433 0.05922 0.14545 0.0
C1428 C 0.45466 0.08073 0.15335 0.0
C1429 C 0.44512 0.08263 0.17667 0.0
C1430 C 0.5062 0.07651 0.095 0.0
C1431 C 0.50493 0.05357 0.08072 0.0
C1432 C 0.49235 0.07859 0.11526 0.0
C1433 C 0.47688 0.05773 0.12196 0.0
C1434 C 0.47513 0.03492 0.10714 0.0
C1435 C 0.48895 0.03289 0.0868 0.0
H1436 H 0.74462 0.68442 0.92147 0.0
H1437 H 0.81416 0.6619 0.91436 0.0
H1438 H 0.75085 0.71225 0.88828 0.0
H1439 H 0.82106 0.69075 0.88141 0.0
H1440 H 0.80907 0.7317 0.80693 0.0
H1441 H 0.80846 0.7018 0.83907 0.0
H1442 H 0.7761 0.75179 0.88683 0.0
H1443 H 0.77582 0.78099 0.85437 0.0
C1444 C 0.7611 0.68518 0.9124 0.0
C1445 C 0.77889 0.6711 0.92029 0.0
C1446 C 0.76488 0.70141 0.89368 0.0
C1447 C 0.78682 0.70437 0.88281 0.0
C1448 C 0.80404 0.68899 0.88955 0.0
C1449 C 0.80005 0.67236 0.90819 0.0
C1450 C 0.8026 0.73662 0.82466 0.0
C1451 C 0.79233 0.75853 0.82821 0.0
C1452 C 0.8021 0.71941 0.84299 0.0
C1453 C 0.79152 0.72406 0.86514 0.0
C1454 C 0.78359 0.74724 0.86958 0.0
C1455 C 0.78375 0.76417 0.85119 0.0
H1456 H 0.89227 0.16095 1.00116 0.0
H1457 H 0.84238 0.09584 0.01456 0.0
H1458 H 0.92459 0.13553 0.99986 0.0
H1459 H 0.87474 0.07045 0.01377 0.0
H1460 H 0.93231 0.02551 0.98811 0.0
H1461 H 0.90013 0.05137 0.98773 0.0
H1462 H 0.95094 0.11373 0.02382 0.0
H1463 H 0.98299 0.08803 0.02363 0.0
C1464 C 0.88819 0.14123 1.00405 0.0
C1465 C 0.86457 0.1306 0.00803 0.0
C1466 C 0.90685 0.12656 1.00339 0.0
C1467 C 0.90257 0.10067 0.00663 0.0
C1468 C 0.87891 0.09012 0.01076 0.0
C1469 C 0.86027 0.10481 0.01146 0.0
C1470 C 0.93665 0.04482 0.99572 0.0
C1471 C 0.96037 0.05459 0.00584 0.0
C1472 C 0.91808 0.05968 0.99576 0.0
C1473 C 0.92261 0.08485 0.00588 0.0
C1474 C 0.94653 0.09466 0.01556 0.0
C1475 C 0.96503 0.0798 0.01555 0.0
H1476 H 0.36496 0.42322 0.07679 0.0
H1477 H 0.32423 0.48264 0.05967 0.0
H1478 H 0.40232 0.45257 0.07909 0.0
H1479 H 0.36183 0.51219 0.06226 0.0
H1480 H 0.4319 0.53395 0.02092 0.0
H1481 H 0.39314 0.51489 0.03279 0.0
H1482 H 0.42883 0.49031 0.099 0.0
H1483 H 0.46786 0.50917 0.08695 0.0
C1484 C 0.36393 0.4427 0.07415 0.0
C1485 C 0.34162 0.4505 0.06767 0.0
C1486 C 0.38539 0.45961 0.07568 0.0
C1487 C 0.38505 0.48468 0.07063 0.0
C1488 C 0.36265 0.49292 0.06598 0.0
C1489 C 0.34111 0.476 0.06464 0.0
C1490 C 0.4315 0.52499 0.03832 0.0
C1491 C 0.45302 0.52271 0.05276 0.0
C1492 C 0.4092 0.51422 0.04524 0.0
C1493 C 0.40793 0.50084 0.0667 0.0
C1494 C 0.42929 0.50025 0.08219 0.0
C1495 C 0.45163 0.51117 0.07534 0.0
H1496 H 0.30776 0.59991 0.72063 0.0
H1497 H 0.36557 0.63763 0.77403 0.0
H1498 H 0.28591 0.63538 0.72598 0.0
H1499 H 0.34342 0.67194 0.78075 0.0
H1500 H 0.30895 0.74125 0.77405 0.0
H1501 H 0.33094 0.70681 0.76663 0.0
H1502 H 0.2633 0.65622 0.75129 0.0
H1503 H 0.24153 0.69145 0.75722 0.0
C1504 C 0.31577 0.61575 0.73351 0.0
C1505 C 0.3385 0.61599 0.7467 0.0
C1506 C 0.30314 0.63605 0.73687 0.0
C1507 C 0.31271 0.65684 0.75391 0.0
C1508 C 0.33549 0.65683 0.76701 0.0
C1509 C 0.34825 0.63691 0.76324 0.0
C1510 C 0.2988 0.7228 0.76959 0.0
C1511 C 0.27351 0.71914 0.76665 0.0
C1512 C 0.31143 0.7028 0.76522 0.0
C1513 C 0.29909 0.67832 0.75835 0.0
C1514 C 0.27365 0.67467 0.75599 0.0
C1515 C 0.26109 0.69486 0.75978 0.0
H1516 H 0.21281 0.67908 0.49077 0.0
H1517 H 0.24838 0.61776 0.51384 0.0
H1518 H 0.17377 0.65417 0.4941 0.0
H1519 H 0.209 0.59257 0.51686 0.0
H1520 H 0.13419 0.56797 0.54716 0.0
H1521 H 0.17458 0.59033 0.54244 0.0
H1522 H 0.14651 0.61825 0.47428 0.0
H1523 H 0.10637 0.59627 0.47923 0.0
C1524 C 0.21237 0.66019 0.49636 0.0
C1525 C 0.23393 0.65053 0.502 0.0
C1526 C 0.18986 0.64579 0.49815 0.0
C1527 C 0.1881 0.62126 0.50572 0.0
C1528 C 0.20962 0.61146 0.5112 0.0
C1529 C 0.23223 0.62586 0.50926 0.0
C1530 C 0.13675 0.5788 0.53114 0.0
C1531 C 0.11707 0.58051 0.51367 0.0
C1532 C 0.15991 0.59152 0.52834 0.0
C1533 C 0.16387 0.60631 0.50806 0.0
C1534 C 0.14416 0.60745 0.49035 0.0
C1535 C 0.12112 0.59473 0.49312 0.0
H1536 H 0.68772 0.95359 0.75515 0.0
H1537 H 0.64149 0.90819 0.79973 0.0
H1538 H 0.71369 0.92186 0.7531 0.0
H1539 H 0.66849 0.87672 0.7993 0.0
H1540 H 0.71395 0.81502 0.77926 0.0
H1541 H 0.68526 0.84478 0.78091 0.0
H1542 H 0.74317 0.9051 0.7732 0.0
H1543 H 0.77075 0.87509 0.76941 0.0
C1544 C 0.68318 0.9368 0.76473 0.0
C1545 C 0.66248 0.93358 0.77764 0.0
C1546 C 0.69838 0.91853 0.76388 0.0
C1547 C 0.6939 0.89652 0.77654 0.0
C1548 C 0.67279 0.89311 0.78912 0.0
C1549 C 0.65723 0.91127 0.78948 0.0
C1550 C 0.72041 0.83466 0.77797 0.0
C1551 C 0.7446 0.84259 0.77394 0.0
C1552 C 0.70395 0.85192 0.77901 0.0
C1553 C 0.7114 0.87773 0.77667 0.0
C1554 C 0.73606 0.88553 0.77403 0.0
C1555 C 0.75217 0.86826 0.77225 0.0
H1556 H 0.69481 0.93009 0.50155 0.0
H1557 H 0.71988 0.9873 0.5616 0.0
H1558 H 0.66089 0.95099 0.4898 0.0
H1559 H 0.68481 0.00784 0.55061 0.0
H1560 H 0.62712 0.04852 0.51323 0.0
H1561 H 0.66464 0.03099 0.52085 0.0
H1562 H 0.62431 0.95641 0.5044 0.0
H1563 H 0.58761 0.9739 0.49578 0.0
C1564 C 0.69287 0.94703 0.51251 0.0
C1565 C 0.70984 0.95686 0.53275 0.0
C1566 C 0.67331 0.95903 0.50578 0.0
C1567 C 0.6698 0.98097 0.51943 0.0
C1568 C 0.68702 0.9911 0.53952 0.0
C1569 C 0.70697 0.97923 0.54601 0.0
C1570 C 0.62655 0.02843 0.51073 0.0
C1571 C 0.60454 0.01256 0.50377 0.0
C1572 C 0.64793 0.01836 0.51541 0.0
C1573 C 0.64759 0.99224 0.51332 0.0
C1574 C 0.62552 0.97659 0.50576 0.0
C1575 C 0.60435 0.98663 0.50088 0.0
H1576 H 0.32675 0.48488 0.72377 0.0
H1577 H 0.3803 0.46519 0.77845 0.0
H1578 H 0.30238 0.44329 0.7253 0.0
H1579 H 0.3561 0.42448 0.78009 0.0
H1580 H 0.29446 0.36921 0.80113 0.0
H1581 H 0.31375 0.41134 0.79555 0.0
H1582 H 0.30807 0.39381 0.71581 0.0
H1583 H 0.28876 0.35094 0.72128 0.0
C1584 C 0.33332 0.47179 0.73606 0.0
C1585 C 0.35554 0.47844 0.75093 0.0
C1586 C 0.31945 0.44798 0.73682 0.0
C1587 C 0.32731 0.43069 0.75291 0.0
C1588 C 0.34946 0.43743 0.76766 0.0
C1589 C 0.36341 0.46081 0.76658 0.0
C1590 C 0.29703 0.37418 0.78229 0.0
C1591 C 0.29024 0.3564 0.76167 0.0
C1592 C 0.30813 0.39844 0.77914 0.0
C1593 C 0.3126 0.40584 0.75528 0.0
C1594 C 0.30477 0.38863 0.73442 0.0
C1595 C 0.2938 0.36407 0.73759 0.0
H1596 H 0.17691 0.55099 0.28301 0.0
H1597 H 0.12288 0.59565 0.30276 0.0
H1598 H 0.20535 0.58909 0.28008 0.0
H1599 H 0.15109 0.6336 0.29931 0.0
H1600 H 0.21248 0.69774 0.31335 0.0
H1601 H 0.18741 0.65832 0.31927 0.0
H1602 H 0.21253 0.62389 0.254 0.0
H1603 H 0.23818 0.66349 0.24849 0.0
C1604 C 0.17107 0.5689 0.2868 0.0
C1605 C 0.14752 0.57014 0.29317 0.0
C1606 C 0.18737 0.59078 0.28493 0.0
C1607 C 0.18059 0.61449 0.28944 0.0
C1608 C 0.15713 0.61571 0.29607 0.0
C1609 C 0.14085 0.59387 0.29794 0.0
C1610 C 0.21283 0.68168 0.30039 0.0
C1611 C 0.22719 0.68371 0.28038 0.0
C1612 C 0.1983 0.6591 0.30367 0.0
C1613 C 0.19763 0.63793 0.28693 0.0
C1614 C 0.21269 0.63974 0.26736 0.0
C1615 C 0.22735 0.66242 0.26413 0.0
H1616 H 0.55714 0.7595 0.45925 0.0
H1617 H 0.53294 0.71766 0.38832 0.0
H1618 H 0.55909 0.72105 0.47915 0.0
H1619 H 0.53581 0.67853 0.40818 0.0
H1620 H 0.50633 0.61828 0.45946 0.0
H1621 H 0.51233 0.65516 0.43587 0.0
H1622 H 0.57597 0.68498 0.48599 0.0
H1623 H 0.56916 0.6484 0.5102 0.0
C1624 C 0.55291 0.74196 0.44773 0.0
C1625 C 0.54458 0.74156 0.42228 0.0
C1626 C 0.55417 0.7198 0.45916 0.0
C1627 C 0.54727 0.69652 0.44545 0.0
C1628 C 0.54077 0.69613 0.41945 0.0
C1629 C 0.53946 0.71851 0.40794 0.0
C1630 C 0.52153 0.63282 0.46548 0.0
C1631 C 0.5371 0.6307 0.48684 0.0
C1632 C 0.52521 0.65382 0.45172 0.0
C1633 C 0.54473 0.67312 0.45883 0.0
C1634 C 0.56054 0.6707 0.48009 0.0
C1635 C 0.55666 0.64979 0.49404 0.0
H1636 H 0.59419 0.31395 0.6669 0.0
H1637 H 0.5579 0.26637 0.7177 0.0
H1638 H 0.63202 0.31653 0.69312 0.0
H1639 H 0.59611 0.26914 0.74426 0.0
H1640 H 0.67578 0.25274 0.76092 0.0
H1641 H 0.63503 0.25376 0.74184 0.0
H1642 H 0.65405 0.33269 0.73321 0.0
H1643 H 0.69495 0.33164 0.75201 0.0
C1644 C 0.59418 0.30421 0.68385 0.0
C1645 C 0.57287 0.28983 0.69003 0.0
C1646 C 0.61596 0.30587 0.69905 0.0
C1647 C 0.61727 0.29306 0.7209 0.0
C1648 C 0.59586 0.27911 0.72748 0.0
C1649 C 0.57389 0.27766 0.71233 0.0
C1650 C 0.67122 0.27045 0.75537 0.0
C1651 C 0.68886 0.29208 0.75792 0.0
C1652 C 0.64772 0.27104 0.74448 0.0
C1653 C 0.6412 0.29324 0.73568 0.0
C1654 C 0.65849 0.31515 0.73939 0.0
C1655 C 0.68195 0.3146 0.75041 0.0
H1656 H 0.05091 0.3896 0.89107 0.0
H1657 H 0.99493 0.3436 0.92421 0.0
H1658 H 0.0445 0.426 0.91743 0.0
H1659 H 0.98712 0.37982 0.94911 0.0
H1660 H 0.99326 0.44129 0.01045 0.0
H1661 H 1.00101 0.406 0.98367 0.0
H1662 H 0.02188 0.45634 0.92744 0.0
H1663 H 0.01575 0.49159 0.9552 0.0
C1664 C 0.03682 0.38745 0.90356 0.0
C1665 C 0.02351 0.36378 0.90569 0.0
C1666 C 0.03304 0.40833 0.91871 0.0
C1667 C 0.01545 0.40608 0.93592 0.0
C1668 C 1.00142 0.38243 0.93693 0.0
C1669 C 1.00566 0.36157 0.92234 0.0
C1670 C 0.99961 0.44469 0.99239 0.0
C1671 C 1.00386 0.4691 0.9849 0.0
C1672 C 1.00386 0.42443 0.97681 0.0
C1673 C 0.01184 0.42798 0.95297 0.0
C1674 C 0.01612 0.45262 0.94565 0.0
C1675 C 0.01243 0.47292 0.96152 0.0
H1676 H 0.91816 0.77641 0.16352 0.0
H1677 H 0.95344 0.74945 0.22844 0.0
H1678 H 0.88228 0.77829 0.1851 0.0
H1679 H 0.91704 0.74982 0.24973 0.0
H1680 H 0.86043 0.77977 0.29295 0.0
H1681 H 0.89492 0.77503 0.27019 0.0
H1682 H 0.84785 0.76061 0.20113 0.0
H1683 H 0.81356 0.76726 0.22416 0.0
C1684 C 0.91808 0.77033 0.18228 0.0
C1685 C 0.93885 0.76283 0.1942 0.0
C1686 C 0.89729 0.77129 0.19474 0.0
C1687 C 0.89637 0.76445 0.21951 0.0
C1688 C 0.91693 0.75597 0.23101 0.0
C1689 C 0.93788 0.75543 0.21867 0.0
C1690 C 0.85739 0.77552 0.27288 0.0
C1691 C 0.83404 0.77359 0.26048 0.0
C1692 C 0.8773 0.77251 0.25971 0.0
C1693 C 0.87461 0.76708 0.23356 0.0
C1694 C 0.85106 0.765 0.22114 0.0
C1695 C 0.83114 0.76844 0.23439 0.0
H1696 H 0.51053 0.34094 0.0465 0.0
H1697 H 0.53557 0.37955 0.11891 0.0
H1698 H 0.51989 0.37951 0.02674 0.0
H1699 H 0.5464 0.41832 0.09891 0.0
H1700 H 0.51808 0.4832 0.0609 0.0
H1701 H 0.52293 0.44592 0.08146 0.0
H1702 H 0.54618 0.41312 0.01413 0.0
H1703 H 0.54029 0.45087 0.99301 0.0
C1704 C 0.5186 0.35765 0.05816 0.0
C1705 C 0.52185 0.35743 0.0843 0.0
C1706 C 0.52428 0.37978 0.04675 0.0
C1707 C 0.53369 0.40218 0.06119 0.0
C1708 C 0.53862 0.40152 0.08726 0.0
C1709 C 0.53249 0.37937 0.09875 0.0
C1710 C 0.52468 0.46826 0.05053 0.0
C1711 C 0.52866 0.4698 0.02528 0.0
C1712 C 0.52771 0.44685 0.06248 0.0
C1713 C 0.53494 0.42637 0.04953 0.0
C1714 C 0.54022 0.42843 0.02455 0.0
C1715 C 0.53694 0.44997 0.01244 0.0
H1716 H 0.98581 0.3133 0.37754 0.0
H1717 H 0.94213 0.2777 0.43088 0.0
H1718 H 0.94982 0.31289 0.34867 0.0
H1719 H 0.90638 0.27511 0.4015 0.0
H1720 H 0.84229 0.29151 0.35435 0.0
H1721 H 0.87841 0.29564 0.3832 0.0
H1722 H 0.92111 0.28912 0.32074 0.0
H1723 H 0.88471 0.28732 0.29185 0.0
C1724 C 0.9684 0.30533 0.38297 0.0
C1725 C 0.96656 0.29582 0.40645 0.0
C1726 C 0.94777 0.30475 0.36633 0.0
C1727 C 0.92495 0.29389 0.37252 0.0
C1728 C 0.92336 0.28428 0.39614 0.0
C1729 C 0.94387 0.28562 0.41304 0.0
C1730 C 0.85946 0.29095 0.34685 0.0
C1731 C 0.86084 0.28896 0.32098 0.0
C1732 C 0.88024 0.29312 0.36341 0.0
C1733 C 0.90292 0.29245 0.35453 0.0
C1734 C 0.90416 0.29019 0.32843 0.0
C1735 C 0.88332 0.28888 0.3118 0.0
H1736 H 0.99737 0.71667 0.60579 0.0
H1737 H 0.98037 0.73305 0.52936 0.0
H1738 H 0.99297 0.67206 0.59218 0.0
H1739 H 0.9755 0.68842 0.51602 0.0
H1740 H 0.96044 0.59523 0.5186 0.0
H1741 H 0.95115 0.63633 0.53359 0.0
H1742 H 0.02718 0.66295 0.55199 0.0
H1743 H 0.03663 0.62273 0.53665 0.0
C1744 C 0.99169 0.71064 0.58632 0.0
C1745 C 0.98956 0.72823 0.56854 0.0
C1746 C 0.98915 0.6852 0.57859 0.0
C1747 C 0.98385 0.67711 0.55315 0.0
C1748 C 0.97932 0.69437 0.53575 0.0
C1749 C 0.9823 0.71982 0.54338 0.0
C1750 C 0.97512 0.61001 0.5256 0.0
C1751 C 0.99925 0.60591 0.52617 0.0
C1752 C 0.96978 0.63329 0.53427 0.0
C1753 C 0.98851 0.65233 0.54418 0.0
C1754 C 0.01252 0.64828 0.54463 0.0
C1755 C 0.01787 0.62538 0.53554 0.0
H1756 H 0.55953 0.74987 0.85394 0.0
H1757 H 0.61582 0.77284 0.91452 0.0
H1758 H 0.58978 0.7419 0.82604 0.0
H1759 H 0.64609 0.76536 0.88651 0.0
H1760 H 0.69493 0.73536 0.83586 0.0
H1761 H 0.66168 0.73319 0.86198 0.0
H1762 H 0.62084 0.76884 0.80678 0.0
H1763 H 0.65409 0.77046 0.78033 0.0
C1764 C 0.57836 0.753 0.86135 0.0
C1765 C 0.58539 0.76216 0.88635 0.0
C1766 C 0.59564 0.74855 0.84533 0.0
C1767 C 0.62026 0.75317 0.85403 0.0
C1768 C 0.6272 0.76134 0.87932 0.0
C1769 C 0.60991 0.76574 0.89536 0.0
C1770 C 0.67867 0.74236 0.82915 0.0
C1771 C 0.67702 0.75329 0.80626 0.0
C1772 C 0.65971 0.74123 0.84414 0.0
C1773 C 0.63882 0.75113 0.83658 0.0
C1774 C 0.63668 0.76089 0.81301 0.0
C1775 C 0.65568 0.76192 0.79792 0.0
H1776 H 0.38857 0.54504 0.66525 0.0
H1777 H 0.44762 0.59634 0.70517 0.0
H1778 H 0.40999 0.54639 0.62752 0.0
H1779 H 0.46881 0.59809 0.66748 0.0
H1780 H 0.49558 0.59849 0.58733 0.0
H1781 H 0.46851 0.6069 0.61927 0.0
H1782 H 0.4499 0.52754 0.6255 0.0
H1783 H 0.47686 0.5191 0.59455 0.0
C1784 C 0.40556 0.55752 0.66559 0.0
C1785 C 0.41645 0.57063 0.68802 0.0
C1786 C 0.41793 0.55812 0.64412 0.0
C1787 C 0.44118 0.57217 0.64469 0.0
C1788 C 0.4509 0.58724 0.66644 0.0
C1789 C 0.43876 0.58625 0.68799 0.0
C1790 C 0.48583 0.5829 0.59568 0.0
C1791 C 0.48871 0.55815 0.58852 0.0
C1792 C 0.47024 0.58771 0.61379 0.0
C1793 C 0.45678 0.56782 0.6245 0.0
C1794 C 0.45962 0.54321 0.61721 0.0
C1795 C 0.47543 0.53845 0.59965 0.0
H1796 H 0.80522 0.23772 0.96389 0.0
H1797 H 0.792 0.16774 0.91828 0.0
H1798 H 0.79411 0.25974 0.92774 0.0
H1799 H 0.7799 0.18962 0.88201 0.0
H1800 H 0.78442 0.23981 0.81639 0.0
H1801 H 0.79351 0.21651 0.85226 0.0
H1802 H 0.7632 0.26869 0.89954 0.0
H1803 H 0.75502 0.29256 0.86355 0.0
C1804 C 0.79973 0.22694 0.94613 0.0
C1805 C 0.79961 0.20089 0.94409 0.0
C1806 C 0.7931 0.23962 0.92529 0.0
C1807 C 0.7859 0.22667 0.90162 0.0
C1808 C 0.78563 0.20049 0.89967 0.0
C1809 C 0.79246 0.18782 0.92056 0.0
C1810 C 0.77956 0.24627 0.83442 0.0
C1811 C 0.76906 0.26819 0.83703 0.0
C1812 C 0.78467 0.23274 0.85511 0.0
C1813 C 0.77929 0.24055 0.87917 0.0
C1814 C 0.76815 0.26219 0.88158 0.0
C1815 C 0.76321 0.27584 0.86085 0.0
H1816 H 0.10944 0.47622 0.20089 0.0
H1817 H 0.04919 0.51171 0.22096 0.0
H1818 H 0.09468 0.47637 0.15643 0.0
H1819 H 0.03549 0.51273 0.17779 0.0
H1820 H 1.00155 0.49815 0.1008 0.0
H1821 H 0.01647 0.4888 0.14237 0.0
H1822 H 0.08979 0.50358 0.12294 0.0
H1823 H 0.07467 0.51179 0.08082 0.0
C1824 C 0.09311 0.48389 0.19598 0.0
C1825 C 0.08058 0.49376 0.21482 0.0
C1826 C 0.08469 0.48414 0.17047 0.0
C1827 C 0.06359 0.49429 0.16329 0.0
C1828 C 0.05129 0.50404 0.18225 0.0
C1829 C 0.05946 0.50363 0.20736 0.0
C1830 C 0.02084 0.49915 0.10526 0.0
C1831 C 0.03685 0.50607 0.08748 0.0
C1832 C 0.02949 0.49392 0.12924 0.0
C1833 C 0.05449 0.49594 0.13643 0.0
C1834 C 0.07047 0.5017 0.11823 0.0
C1835 C 0.06175 0.50659 0.09404 0.0
H1836 H 0.79866 0.86917 0.50196 0.0
H1837 H 0.76852 0.92483 0.46073 0.0
H1838 H 0.80359 0.84611 0.46289 0.0
H1839 H 0.77182 0.90116 0.4217 0.0
H1840 H 0.7894 0.86123 0.35314 0.0
H1841 H 0.79495 0.88682 0.3925 0.0
H1842 H 0.77904 0.82 0.4318 0.0
H1843 H 0.77533 0.79436 0.39222 0.0
C1844 C 0.79332 0.87654 0.48445 0.0
C1845 C 0.78316 0.89864 0.48419 0.0
C1846 C 0.79586 0.86321 0.46208 0.0
C1847 C 0.78772 0.87145 0.43906 0.0
C1848 C 0.77862 0.89432 0.43896 0.0
C1849 C 0.77664 0.90794 0.46133 0.0
C1850 C 0.78726 0.85207 0.37029 0.0
C1851 C 0.7817 0.82595 0.36984 0.0
C1852 C 0.79032 0.86673 0.39285 0.0
C1853 C 0.78716 0.8556 0.41541 0.0
C1854 C 0.78201 0.82927 0.41489 0.0
C1855 C 0.77961 0.81453 0.39226 0.0
H1856 H 0.37271 0.52142 0.8212 0.0
H1857 H 0.42554 0.58579 0.81281 0.0
H1858 H 0.39475 0.51489 0.86093 0.0
H1859 H 0.44645 0.58098 0.85316 0.0
H1860 H 0.4952 0.55325 0.91091 0.0
H1861 H 0.47193 0.55759 0.87174 0.0
H1862 H 0.40641 0.52685 0.90261 0.0
H1863 H 0.43042 0.52059 0.94112 0.0
C1864 C 0.38877 0.53446 0.82827 0.0
C1865 C 0.39765 0.55397 0.81416 0.0
C1866 C 0.40138 0.53087 0.85105 0.0
C1867 C 0.42272 0.54718 0.86031 0.0
C1868 C 0.4307 0.56742 0.84642 0.0
C1869 C 0.41857 0.57045 0.82341 0.0
C1870 C 0.47582 0.54733 0.90916 0.0
C1871 C 0.46452 0.53667 0.92888 0.0
C1872 C 0.46234 0.55005 0.8868 0.0
C1873 C 0.43705 0.54301 0.88393 0.0
C1874 C 0.4258 0.53222 0.90384 0.0
C1875 C 0.43949 0.52877 0.926 0.0
H1876 H 0.83858 0.24171 0.07933 0.0
H1877 H 0.7907 0.17302 0.08552 0.0
H1878 H 0.83376 0.25566 0.12241 0.0
H1879 H 0.78537 0.18717 0.12864 0.0
H1880 H 0.75357 0.24225 0.18373 0.0
H1881 H 0.76415 0.22267 0.14498 0.0
H1882 H 0.83971 0.24731 0.16853 0.0
H1883 H 0.82918 0.26667 0.20761 0.0
C1884 C 0.82775 0.22917 0.09027 0.0
C1885 C 0.81541 0.20603 0.07915 0.0
C1886 C 0.82483 0.23724 0.11494 0.0
C1887 C 0.80897 0.22269 0.12898 0.0
C1888 C 0.79759 0.19894 0.11831 0.0
C1889 C 0.80094 0.19062 0.09374 0.0
C1890 C 0.77247 0.24352 0.18075 0.0
C1891 C 0.79048 0.25631 0.19884 0.0
C1892 C 0.77854 0.23202 0.15857 0.0
C1893 C 0.8028 0.23327 0.1536 0.0
C1894 C 0.82085 0.246 0.1717 0.0
C1895 C 0.81479 0.25711 0.19412 0.0
H1896 H 0.06171 0.4841 0.33062 0.0
H1897 H 0.13143 0.50848 0.37206 0.0
H1898 H 0.04196 0.4919 0.36803 0.0
H1899 H 0.11127 0.51683 0.40995 0.0
H1900 H 0.05394 0.5547 0.45855 0.0
H1901 H 0.07916 0.54734 0.42455 0.0
H1902 H 0.04112 0.47183 0.41044 0.0
H1903 H 0.01679 0.47883 0.44462 0.0
C1904 C 0.07289 0.49116 0.34777 0.0
C1905 C 0.09821 0.49553 0.34829 0.0
C1906 C 0.0615 0.49559 0.36927 0.0
C1907 C 0.07499 0.50494 0.39201 0.0
C1908 C 0.10037 0.50969 0.39266 0.0
C1909 C 0.11191 0.50475 0.37105 0.0
C1910 C 0.05147 0.53638 0.44864 0.0
C1911 C 0.03343 0.51734 0.45448 0.0
C1912 C 0.06584 0.53218 0.42909 0.0
C1913 C 0.06211 0.509 0.41472 0.0
C1914 C 0.04437 0.48994 0.42098 0.0
C1915 C 0.03035 0.49401 0.44057 0.0
H1916 H 0.75119 0.90442 0.62612 0.0
H1917 H 0.71836 0.84292 0.57331 0.0
H1918 H 0.73768 0.8802 0.66057 0.0
H1919 H 0.70454 0.81897 0.60746 0.0
H1920 H 0.71237 0.8283 0.71868 0.0
H1921 H 0.70493 0.85364 0.68338 0.0
H1922 H 0.73623 0.80279 0.63558 0.0
H1923 H 0.74405 0.77813 0.67072 0.0
C1924 C 0.74008 0.88626 0.62186 0.0
C1925 C 0.73613 0.87527 0.59725 0.0
C1926 C 0.73232 0.87239 0.64152 0.0
C1927 C 0.72047 0.84753 0.63663 0.0
C1928 C 0.71393 0.83794 0.61174 0.0
C1929 C 0.72181 0.85164 0.59223 0.0
C1930 C 0.71672 0.82212 0.70033 0.0
C1931 C 0.72859 0.80124 0.69718 0.0
C1932 C 0.71267 0.8367 0.68027 0.0
C1933 C 0.71993 0.83015 0.65676 0.0
C1934 C 0.73007 0.80811 0.65336 0.0
C1935 C 0.7346 0.79397 0.67343 0.0
H1936 H 0.69995 0.47338 0.54616 0.0
H1937 H 0.6449 0.4095 0.52423 0.0
H1938 H 0.66895 0.50022 0.54859 0.0
H1939 H 0.61372 0.43647 0.52648 0.0
H1940 H 0.5625 0.49091 0.55318 0.0
H1941 H 0.59261 0.4626 0.55348 0.0
H1942 H 0.64115 0.51805 0.52111 0.0
H1943 H 0.61111 0.546 0.52085 0.0
C1944 C 0.68121 0.46495 0.54201 0.0
C1945 C 0.67511 0.43913 0.53498 0.0
C1946 C 0.66332 0.48047 0.54321 0.0
C1947 C 0.6386 0.47077 0.53753 0.0
C1948 C 0.63243 0.44477 0.53118 0.0
C1949 C 0.6504 0.42923 0.52982 0.0
C1950 C 0.57949 0.49705 0.54615 0.0
C1951 C 0.58412 0.52091 0.53709 0.0
C1952 C 0.59689 0.48073 0.54621 0.0
C1953 C 0.61963 0.48789 0.53746 0.0
C1954 C 0.62417 0.51181 0.52845 0.0
C1955 C 0.60677 0.52792 0.52821 0.0
H1956 H 0.21547 0.10166 0.4706 0.0
H1957 H 0.17691 0.16361 0.45731 0.0
H1958 H 0.17734 0.07446 0.47297 0.0
H1959 H 0.13889 0.13652 0.46022 0.0
H1960 H 0.07174 0.07906 0.45628 0.0
H1961 H 0.10937 0.10054 0.44347 0.0
H1962 H 0.14932 0.07213 0.50471 0.0
H1963 H 0.11192 0.05029 0.51719 0.0
C1964 C 0.19888 0.10942 0.46777 0.0
C1965 C 0.19935 0.13497 0.46411 0.0
C1966 C 0.17701 0.09384 0.46931 0.0
C1967 C 0.15509 0.1034 0.46723 0.0
C1968 C 0.15542 0.12848 0.4618 0.0
C1969 C 0.17728 0.14408 0.46021 0.0
C1970 C 0.08858 0.07708 0.46679 0.0
C1971 C 0.08877 0.06301 0.48785 0.0
C1972 C 0.11014 0.08952 0.45951 0.0
C1973 C 0.13237 0.08811 0.47307 0.0
C1974 C 0.13258 0.07334 0.4936 0.0
C1975 C 0.11106 0.06096 0.5009 0.0
H1976 H 0.16372 0.9213 0.77788 0.0
H1977 H 0.22971 0.97367 0.79587 0.0
H1978 H 0.18742 0.88748 0.77034 0.0
H1979 H 0.25322 0.93983 0.78891 0.0
H1980 H 0.28036 0.86552 0.80957 0.0
H1981 H 0.25616 0.89909 0.81321 0.0
H1982 H 0.22102 0.87671 0.73898 0.0
H1983 H 0.24656 0.8439 0.73471 0.0
C1984 C 0.18325 0.9256 0.78016 0.0
C1985 C 0.19485 0.95015 0.78754 0.0
C1986 C 0.19677 0.90628 0.77571 0.0
C1987 C 0.22213 0.91106 0.7791 0.0
C1988 C 0.23369 0.93562 0.78626 0.0
C1989 C 0.22022 0.95499 0.79018 0.0
C1990 C 0.26758 0.86778 0.79391 0.0
C1991 C 0.26487 0.85155 0.77205 0.0
C1992 C 0.25371 0.887 0.79605 0.0
C1993 C 0.23661 0.89039 0.77647 0.0
C1994 C 0.23382 0.87423 0.75453 0.0
C1995 C 0.24813 0.85522 0.7522 0.0
H1996 H 0.29102 0.95074 0.01972 0.0
H1997 H 0.32549 0.88464 0.01969 0.0
H1998 H 0.33058 0.97684 0.01971 0.0
H1999 H 0.36473 0.91064 0.01987 0.0
H2000 H 0.43249 0.96648 0.04795 0.0
H2001 H 0.3922 0.94285 0.04939 0.0
H2002 H 0.36424 0.98397 0.99031 0.0
H2003 H 0.4048 0.00755 0.98872 0.0
C2004 C 0.30699 0.94177 0.01985 0.0
C2005 C 0.305 0.91555 0.01974 0.0
C2006 C 0.32962 0.95672 0.01969 0.0
C2007 C 0.35081 0.94582 0.01987 0.0
C2008 C 0.34881 0.91966 0.01999 0.0
C2009 C 0.32624 0.90473 0.01975 0.0
C2010 C 0.41774 0.97057 0.03534 0.0
C2011 C 0.42182 0.98878 0.01813 0.0
C2012 C 0.39467 0.95696 0.0361 0.0
C2013 C 0.37502 0.96143 0.01988 0.0
C2014 C 0.37897 0.98018 1.00314 0.0
C2015 C 0.40218 0.9936 1.00215 0.0
H2016 H 0.89457 0.6616 0.76325 0.0
H2017 H 0.83794 0.60507 0.72667 0.0
H2018 H 0.86638 0.69201 0.763 0.0
H2019 H 0.81005 0.63535 0.72592 0.0
H2020 H 0.75901 0.68419 0.75869 0.0
H2021 H 0.78846 0.65581 0.75509 0.0
H2022 H 0.8416 0.7173 0.73913 0.0
H2023 H 0.81198 0.74571 0.74348 0.0
C2024 C 0.87626 0.65575 0.75471 0.0
C2025 C 0.86859 0.63076 0.74508 0.0
C2026 C 0.86004 0.67324 0.75454 0.0
C2027 C 0.83567 0.66622 0.74474 0.0
C2028 C 0.82841 0.64146 0.73418 0.0
C2029 C 0.84455 0.62406 0.7344 0.0
C2030 C 0.7769 0.69165 0.75413 0.0
C2031 C 0.78287 0.71726 0.75074 0.0
C2032 C 0.79385 0.67529 0.75193 0.0
C2033 C 0.81755 0.684 0.7465 0.0
C2034 C 0.82361 0.70974 0.74328 0.0
C2035 C 0.80647 0.72609 0.74532 0.0
H2036 H 0.8432 0.6504 0.02917 0.0
H2037 H 0.80568 0.57819 0.99826 0.0
H2038 H 0.87733 0.63102 0.04485 0.0
H2039 H 0.84039 0.5589 0.01202 0.0
H2040 H 0.90368 0.52631 0.04361 0.0
H2041 H 0.86679 0.54535 0.04172 0.0
H2042 H 0.90859 0.61608 0.02806 0.0
H2043 H 0.94495 0.59755 0.03169 0.0
C2044 C 0.84236 0.63035 0.02571 0.0
C2045 C 0.82204 0.6158 0.0123 0.0
C2046 C 0.86196 0.6192 0.03452 0.0
C2047 C 0.86199 0.59336 0.02931 0.0
C2048 C 0.84108 0.57873 0.01675 0.0
C2049 C 0.8212 0.58981 0.00861 0.0
C2050 C 0.90483 0.54604 0.04078 0.0
C2051 C 0.92704 0.56043 0.03765 0.0
C2052 C 0.88373 0.55695 0.03945 0.0
C2053 C 0.88449 0.58231 0.03451 0.0
C2054 C 0.90706 0.59672 0.03239 0.0
C2055 C 0.92803 0.58598 0.0342 0.0
H2056 H 0.15271 0.10684 0.82965 0.0
H2057 H 0.2057 0.06995 0.79504 0.0
H2058 H 0.17717 0.14742 0.82625 0.0
H2059 H 0.2301 0.11061 0.79162 0.0
H2060 H 0.24572 0.18873 0.75883 0.0
H2061 H 0.22555 0.1472 0.7664 0.0
H2062 H 0.21674 0.17399 0.84172 0.0
H2063 H 0.23697 0.2156 0.83421 0.0
C2064 C 0.1697 0.10732 0.82158 0.0
C2065 C 0.17714 0.08502 0.81258 0.0
C2066 C 0.18379 0.13063 0.81973 0.0
C2067 C 0.20556 0.13231 0.80855 0.0
C2068 C 0.21332 0.11001 0.80011 0.0
C2069 C 0.19939 0.08667 0.80225 0.0
C2070 C 0.23972 0.18575 0.7771 0.0
C2071 C 0.24297 0.20559 0.79588 0.0
C2072 C 0.22825 0.16187 0.78148 0.0
C2073 C 0.21945 0.15725 0.80465 0.0
C2074 C 0.22311 0.17696 0.82359 0.0
C2075 C 0.23487 0.20078 0.81932 0.0
H2076 H 0.36395 0.00856 0.23913 0.0
H2077 H 0.40531 0.98875 0.30431 0.0
H2078 H 0.33501 0.97021 0.23979 0.0
H2079 H 0.37596 0.95063 0.3052 0.0
H2080 H 0.30213 0.89979 0.31149 0.0
H2081 H 0.32871 0.94002 0.31108 0.0
H2082 H 0.33913 0.92187 0.23402 0.0
H2083 H 0.31313 0.88146 0.23463 0.0
C2084 C 0.36679 0.99611 0.25368 0.0
C2085 C 0.38699 1.00165 0.27162 0.0
C2086 C 0.35025 0.97415 0.254 0.0
C2087 C 0.35322 0.95755 0.27259 0.0
C2088 C 0.37316 0.96324 0.29078 0.0
C2089 C 0.39003 0.98494 0.29015 0.0
C2090 C 0.30986 0.90459 0.2944 0.0
C2091 C 0.3056 0.8876 0.27308 0.0
C2092 C 0.32518 0.92746 0.29423 0.0
C2093 C 0.33601 0.93395 0.27255 0.0
C2094 C 0.33093 0.91735 0.25094 0.0
C2095 C 0.31609 0.89427 0.2513 0.0
H2096 H 0.49402 0.35832 0.66602 0.0
H2097 H 0.50791 0.31435 0.60063 0.0
H2098 H 0.49702 0.39557 0.64228 0.0
H2099 H 0.51128 0.35131 0.57724 0.0
H2100 H 0.49012 0.41696 0.53499 0.0
H2101 H 0.48652 0.37981 0.55893 0.0
H2102 H 0.52638 0.42396 0.62318 0.0
H2103 H 0.52955 0.46084 0.59949 0.0
C2104 C 0.49792 0.35665 0.64671 0.0
C2105 C 0.50072 0.33339 0.63526 0.0
C2106 C 0.49967 0.37796 0.63308 0.0
C2107 C 0.50423 0.37641 0.60774 0.0
C2108 C 0.50731 0.35315 0.59651 0.0
C2109 C 0.50559 0.33197 0.61007 0.0
C2110 C 0.49813 0.41859 0.55418 0.0
C2111 C 0.51009 0.44174 0.56536 0.0
C2112 C 0.49615 0.39736 0.56791 0.0
C2113 C 0.50608 0.39892 0.59307 0.0
C2114 C 0.51816 0.42213 0.60405 0.0
C2115 C 0.52015 0.44324 0.59037 0.0
H2116 H 0.43796 0.77566 0.385 0.0
H2117 H 0.47346 0.80296 0.32215 0.0
H2118 H 0.39925 0.76888 0.35969 0.0
H2119 H 0.43422 0.79628 0.29657 0.0
H2120 H 0.35482 0.81443 0.27689 0.0
H2121 H 0.39603 0.81557 0.29593 0.0
H2122 H 0.37533 0.74326 0.32351 0.0
H2123 H 0.33399 0.74208 0.30443 0.0
C2124 C 0.43756 0.78007 0.36565 0.0
C2125 C 0.45895 0.79 0.35571 0.0
C2126 C 0.41527 0.77597 0.35103 0.0
C2127 C 0.41347 0.78198 0.32601 0.0
C2128 C 0.4349 0.79153 0.31581 0.0
C2129 C 0.45742 0.79523 0.33041 0.0
C2130 C 0.35909 0.79853 0.28663 0.0
C2131 C 0.34092 0.77817 0.28911 0.0
C2132 C 0.38284 0.79916 0.29747 0.0
C2133 C 0.38909 0.77961 0.31144 0.0
C2134 C 0.37116 0.75877 0.31309 0.0
C2135 C 0.34745 0.75799 0.30194 0.0
H2136 H 0.04954 0.71058 0.1305 0.0
H2137 H 0.97189 0.69419 0.11802 0.0
H2138 H 0.05272 0.67097 0.10789 0.0
H2139 H 0.97505 0.65393 0.09538 0.0
H2140 H 1.00036 0.57466 0.07248 0.0
H2141 H 0.99347 0.61039 0.09977 0.0
H2142 H 0.04096 0.65993 0.05986 0.0
H2143 H 0.04719 0.62446 0.03207 0.0
C2144 C 0.0331 0.69799 0.12369 0.0
C2145 C 0.01047 0.70534 0.1262 0.0
C2146 C 0.03494 0.67547 0.11048 0.0
C2147 C 0.01417 0.6596 0.09947 0.0
C2148 C 0.99136 0.66586 0.10367 0.0
C2149 C 0.98951 0.68872 0.11684 0.0
C2150 C 1.00899 0.59325 0.06925 0.0
C2151 C 0.02418 0.59678 0.04994 0.0
C2152 C 1.00506 0.61366 0.08494 0.0
C2153 C 0.01677 0.6379 0.08205 0.0
C2154 C 0.03185 0.6414 0.06267 0.0
C2155 C 0.03539 0.62112 0.04672 0.0
H2156 H 0.1164 0.30985 0.8803 0.0
H2157 H 0.0765 0.28673 0.80832 0.0
H2158 H 0.15428 0.30773 0.86189 0.0
H2159 H 0.11428 0.28436 0.78995 0.0
H2160 H 0.18653 0.30824 0.75919 0.0
H2161 H 0.14948 0.31111 0.77873 0.0
H2162 H 0.17858 0.27871 0.84374 0.0
H2163 H 0.21586 0.27606 0.82411 0.0
C2164 C 0.11567 0.30424 0.86055 0.0
C2165 C 0.0933 0.29853 0.84582 0.0
C2166 C 0.13745 0.30289 0.84999 0.0
C2167 C 0.13752 0.29596 0.82433 0.0
C2168 C 0.11509 0.29014 0.80967 0.0
C2169 C 0.09333 0.29134 0.82026 0.0
C2170 C 0.18509 0.30182 0.77771 0.0
C2171 C 0.20418 0.29185 0.79003 0.0
C2172 C 0.16371 0.30329 0.78888 0.0
C2173 C 0.16077 0.29496 0.81281 0.0
C2174 C 0.18014 0.28548 0.82539 0.0
C2175 C 0.20153 0.28388 0.81412 0.0
H2176 H 0.54855 0.70918 0.9377 0.0
H2177 H 0.48934 0.71485 0.98252 0.0
H2178 H 0.54978 0.66658 0.94986 0.0
H2179 H 0.49037 0.67222 0.99424 0.0
H2180 H 0.48994 0.58826 0.99712 0.0
H2181 H 0.48585 0.62545 0.97448 0.0
H2182 H 0.56119 0.65409 0.99582 0.0
H2183 H 0.56519 0.61715 0.01873 0.0
C2184 C 0.53545 0.70111 0.94964 0.0
C2185 C 0.519 0.71531 0.95941 0.0
C2186 C 0.53623 0.67685 0.95661 0.0
C2187 C 0.5202 0.66633 0.97296 0.0
C2188 C 0.50278 0.67995 0.98145 0.0
C2189 C 0.50232 0.70434 0.9749 0.0
C2190 C 0.50564 0.60242 0.99669 0.0
C2191 C 0.52779 0.6002 0.00983 0.0
C2192 C 0.5033 0.62356 0.98377 0.0
C2193 C 0.52322 0.64246 0.98347 0.0
C2194 C 0.54566 0.6396 0.99562 0.0
C2195 C 0.54789 0.61867 0.00888 0.0
H2196 H 0.05907 0.79841 0.66357 0.0
H2197 H 0.10649 0.80478 0.60458 0.0
H2198 H 0.09331 0.79709 0.69388 0.0
H2199 H 0.14086 0.80304 0.63517 0.0
H2200 H 0.19906 0.82484 0.70026 0.0
H2201 H 0.1642 0.82844 0.67125 0.0
H2202 H 0.12187 0.76845 0.7046 0.0
H2203 H 0.15685 0.76515 0.73398 0.0
C2204 C 0.0768 0.79948 0.65699 0.0
C2205 C 0.08002 0.80165 0.63155 0.0
C2206 C 0.0964 0.79858 0.67443 0.0
C2207 C 0.11971 0.79986 0.6669 0.0
C2208 C 0.12307 0.80227 0.64154 0.0
C2209 C 0.1034 0.80316 0.62401 0.0
C2210 C 0.18223 0.81258 0.70152 0.0
C2211 C 0.18055 0.79464 0.71922 0.0
C2212 C 0.16236 0.81451 0.68479 0.0
C2213 C 0.14043 0.79854 0.68546 0.0
C2214 C 0.13854 0.78111 0.70375 0.0
C2215 C 0.15848 0.77919 0.72054 0.0
H2216 H 0.04444 0.33047 0.49108 0.0
H2217 H 0.05918 0.36579 0.42324 0.0
H2218 H 0.04397 0.37127 0.51265 0.0
H2219 H 0.05849 0.40671 0.44487 0.0
H2220 H 0.07351 0.478 0.49571 0.0
H2221 H 0.08036 0.43699 0.47925 0.0
H2222 H 0.01615 0.40253 0.50957 0.0
H2223 H 1.00936 0.44345 0.52628 0.0
C2224 C 0.04771 0.34697 0.4808 0.0
C2225 C 0.05169 0.34496 0.45541 0.0
C2226 C 0.04737 0.37031 0.49317 0.0
C2227 C 0.05112 0.39212 0.48044 0.0
C2228 C 0.05581 0.3902 0.45523 0.0
C2229 C 0.05606 0.3668 0.4428 0.0
C2230 C 0.06116 0.46164 0.49942 0.0
C2231 C 0.04084 0.46399 0.51228 0.0
C2232 C 0.06497 0.43819 0.48974 0.0
C2233 C 0.04868 0.41663 0.49293 0.0
C2234 C 0.02911 0.41882 0.50696 0.0
C2235 C 0.02519 0.44228 0.51648 0.0
H2236 H 0.43183 0.32044 0.12939 0.0
H2237 H 0.4629 0.26878 0.17563 0.0
H2238 H 0.39987 0.32191 0.15721 0.0
H2239 H 0.43056 0.26985 0.20304 0.0
H2240 H 0.34627 0.25591 0.21534 0.0
H2241 H 0.38183 0.256 0.1924 0.0
H2242 H 0.39935 0.33619 0.2074 0.0
H2243 H 0.36396 0.33604 0.23113 0.0
C2244 C 0.43171 0.30929 0.14538 0.0
C2245 C 0.44971 0.2944 0.15034 0.0
C2246 C 0.41363 0.31035 0.16137 0.0
C2247 C 0.41303 0.29615 0.18224 0.0
C2248 C 0.43082 0.28102 0.18706 0.0
C2249 C 0.4492 0.28037 0.17138 0.0
C2250 C 0.35794 0.2735 0.21402 0.0
C2251 C 0.35251 0.296 0.22481 0.0
C2252 C 0.37823 0.27351 0.20102 0.0
C2253 C 0.39308 0.2961 0.19814 0.0
C2254 C 0.38799 0.31859 0.20939 0.0
C2255 C 0.36794 0.3185 0.22298 0.0
H2256 H 0.66185 0.52036 0.39176 0.0
H2257 H 0.59851 0.48348 0.34513 0.0
H2258 H 0.63768 0.52157 0.4276 0.0
H2259 H 0.57475 0.48419 0.38075 0.0
H2260 H 0.54426 0.47495 0.45771 0.0
H2261 H 0.57168 0.4677 0.42575 0.0
H2262 H 0.6015 0.54623 0.43356 0.0
H2263 H 0.57412 0.55359 0.46465 0.0
C2264 C 0.64296 0.51214 0.3893 0.0
C2265 C 0.63201 0.50206 0.36566 0.0
C2266 C 0.62914 0.51284 0.40972 0.0
C2267 C 0.60435 0.5029 0.40691 0.0
C2268 C 0.59381 0.49174 0.38353 0.0
C2269 C 0.60742 0.49155 0.36311 0.0
C2270 C 0.55663 0.49059 0.45248 0.0
C2271 C 0.55664 0.51488 0.46333 0.0
C2272 C 0.57236 0.48646 0.43433 0.0
C2273 C 0.58884 0.50641 0.42736 0.0
C2274 C 0.58922 0.53048 0.43875 0.0
C2275 C 0.57323 0.53469 0.45632 0.0
H2276 H 0.25534 0.88911 0.10892 0.0
H2277 H 0.21007 0.82023 0.08001 0.0
H2278 H 0.26258 0.87126 0.14932 0.0
H2279 H 0.21654 0.80271 0.12005 0.0
H2280 H 0.25852 0.76464 0.17685 0.0
H2281 H 0.24963 0.78701 0.14036 0.0
H2282 H 0.24829 0.8539 0.18803 0.0
H2283 H 0.25759 0.83116 0.22492 0.0
C2284 C 0.24619 0.87055 0.11148 0.0
C2285 C 0.232 0.85616 0.09122 0.0
C2286 C 0.25048 0.86018 0.13461 0.0
C2287 C 0.24069 0.83518 0.13797 0.0
C2288 C 0.22507 0.82168 0.11816 0.0
C2289 C 0.221 0.83189 0.0952 0.0
C2290 C 0.25653 0.78418 0.17965 0.0
C2291 C 0.25894 0.79605 0.20391 0.0
C2292 C 0.25115 0.79705 0.15862 0.0
C2293 C 0.24772 0.82231 0.16099 0.0
C2294 C 0.25081 0.83452 0.18531 0.0
C2295 C 0.25626 0.82151 0.20652 0.0
H2296 H 0.97172 0.58481 0.81466 0.0
H2297 H 0.90171 0.57285 0.84237 0.0
H2298 H 0.99081 0.57901 0.85578 0.0
H2299 H 0.92057 0.56577 0.88334 0.0
H2300 H 0.96115 0.57408 0.96057 0.0
H2301 H 0.9434 0.58316 0.91996 0.0
H2302 H 0.99842 0.55032 0.8844 0.0
H2303 H 0.01674 0.54236 0.92525 0.0
C2304 C 0.96036 0.5808 0.82956 0.0
C2305 C 0.93516 0.57938 0.82518 0.0
C2306 C 0.97133 0.57723 0.85322 0.0
C2307 C 0.95742 0.57178 0.87324 0.0
C2308 C 0.93212 0.57038 0.86875 0.0
C2309 C 0.92118 0.57429 0.84512 0.0
C2310 C 0.96961 0.56901 0.94409 0.0
C2311 C 0.99047 0.55754 0.94629 0.0
C2312 C 0.95924 0.574 0.92063 0.0
C2313 C 0.96917 0.56736 0.8985 0.0
C2314 C 0.9903 0.55616 0.90082 0.0
C2315 C 1.00086 0.55149 0.92435 0.0
H2316 H 0.27391 0.23359 0.55329 0.0
H2317 H 0.26157 0.15544 0.56819 0.0
H2318 H 0.27067 0.24565 0.59674 0.0
H2319 H 0.25848 0.1679 0.61241 0.0
H2320 H 0.28365 0.21376 0.6932 0.0
H2321 H 0.28596 0.19512 0.65098 0.0
H2322 H 0.23321 0.23886 0.62175 0.0
H2323 H 0.23087 0.25744 0.66382 0.0
C2324 C 0.27056 0.21893 0.56588 0.0
C2325 C 0.26747 0.19352 0.55724 0.0
C2326 C 0.26865 0.2259 0.59074 0.0
C2327 C 0.26373 0.20766 0.60759 0.0
C2328 C 0.26207 0.18222 0.59952 0.0
C2329 C 0.26389 0.17514 0.57437 0.0
C2330 C 0.27235 0.2191 0.67773 0.0
C2331 C 0.2573 0.2372 0.68151 0.0
C2332 C 0.27357 0.20833 0.65373 0.0
C2333 C 0.25991 0.21578 0.6333 0.0
C2334 C 0.24407 0.23305 0.63731 0.0
C2335 C 0.24272 0.24365 0.66127 0.0
H2336 H 0.58157 0.48912 0.24064 0.0
H2337 H 0.65382 0.51606 0.223 0.0
H2338 H 0.56591 0.49259 0.19769 0.0
H2339 H 0.63788 0.51927 0.17948 0.0
H2340 H 0.59209 0.50196 0.09866 0.0
H2341 H 0.61137 0.49215 0.1388 0.0
H2342 H 0.56627 0.53608 0.17779 0.0
H2343 H 0.54736 0.54619 0.1379 0.0
C2344 C 0.5942 0.49526 0.22742 0.0
C2345 C 0.61887 0.50279 0.23526 0.0
C2346 C 0.58518 0.49729 0.20288 0.0
C2347 C 0.60064 0.5067 0.18557 0.0
C2348 C 0.62564 0.51206 0.19265 0.0
C2349 C 0.63474 0.51013 0.21744 0.0
C2350 C 0.58645 0.50959 0.11587 0.0
C2351 C 0.56825 0.52478 0.11532 0.0
C2352 C 0.5975 0.50403 0.13871 0.0
C2353 C 0.59013 0.51322 0.16123 0.0
C2354 C 0.57207 0.52857 0.1606 0.0
C2355 C 0.56133 0.53444 0.13785 0.0
H2356 H 0.21433 0.83312 0.96547 0.0
H2357 H 0.24364 0.90585 0.94387 0.0
H2358 H 0.22056 0.81412 0.92445 0.0
H2359 H 0.25067 0.88664 0.90311 0.0
H2360 H 0.28785 0.83233 0.85061 0.0
H2361 H 0.27908 0.85236 0.89007 0.0
H2362 H 0.20445 0.81834 0.87541 0.0
H2363 H 0.21303 0.79889 0.83528 0.0
C2364 C 0.2221 0.84507 0.95196 0.0
C2365 C 0.22843 0.87105 0.95799 0.0
C2366 C 0.22557 0.83417 0.92842 0.0
C2367 C 0.2361 0.84884 0.91047 0.0
C2368 C 0.24254 0.87481 0.91652 0.0
C2369 C 0.23845 0.88583 0.93984 0.0
C2370 C 0.26954 0.82903 0.85576 0.0
C2371 C 0.25118 0.81379 0.83978 0.0
C2372 C 0.26451 0.8407 0.87832 0.0
C2373 C 0.24108 0.83697 0.88593 0.0
C2374 C 0.2227 0.82154 0.87012 0.0
C2375 C 0.22761 0.81042 0.84713 0.0
H2376 H 0.94745 0.5241 0.69391 0.0
H2377 H 0.94017 0.6008 0.68295 0.0
H2378 H 0.96472 0.52021 0.65445 0.0
H2379 H 0.95733 0.59693 0.64265 0.0
H2380 H 0.0213 0.58962 0.59407 0.0
H2381 H 0.99632 0.59401 0.62835 0.0
H2382 H 0.96067 0.51786 0.61031 0.0
H2383 H 0.98648 0.51333 0.57663 0.0
C2384 C 0.94895 0.54002 0.68263 0.0
C2385 C 0.94231 0.56274 0.6916 0.0
C2386 C 0.95885 0.53776 0.65983 0.0
C2387 C 0.96269 0.55824 0.64513 0.0
C2388 C 0.95497 0.58077 0.65352 0.0
C2389 C 0.94479 0.58296 0.67645 0.0
C2390 C 1.00807 0.57381 0.59739 0.0
C2391 C 1.00595 0.55106 0.58258 0.0
C2392 C 0.99348 0.57644 0.61694 0.0
C2393 C 0.97632 0.55633 0.62238 0.0
C2394 C 0.9738 0.53374 0.60704 0.0
C2395 C 0.98844 0.53114 0.58747 0.0
H2396 H 0.2863 0.22696 0.45726 0.0
H2397 H 0.29106 0.16456 0.40463 0.0
H2398 H 0.29021 0.25527 0.42449 0.0
H2399 H 0.29482 0.1935 0.37127 0.0
H2400 H 0.31803 0.25742 0.32222 0.0
H2401 H 0.32244 0.23235 0.35804 0.0
H2402 H 0.26143 0.25951 0.38748 0.0
H2403 H 0.25697 0.28441 0.35183 0.0
C2404 C 0.2882 0.21922 0.43862 0.0
C2405 C 0.28799 0.19339 0.43341 0.0
C2406 C 0.29049 0.23556 0.41989 0.0
C2407 C 0.29264 0.22656 0.3954 0.0
C2408 C 0.29335 0.20088 0.39014 0.0
C2409 C 0.29101 0.18433 0.40909 0.0
C2410 C 0.30612 0.25871 0.33681 0.0
C2411 C 0.28718 0.27293 0.33435 0.0
C2412 C 0.30841 0.24404 0.35704 0.0
C2413 C 0.2921 0.24377 0.37526 0.0
C2414 C 0.27431 0.25942 0.3737 0.0
C2415 C 0.27182 0.27379 0.35338 0.0
H2416 H 0.39188 0.65624 0.49557 0.0
H2417 H 0.3461 0.59826 0.52758 0.0
H2418 H 0.42367 0.6301 0.49529 0.0
H2419 H 0.37808 0.57259 0.5286 0.0
H2420 H 0.4296 0.52006 0.50799 0.0
H2421 H 0.39861 0.54688 0.50671 0.0
H2422 H 0.45402 0.61212 0.51551 0.0
H2423 H 0.48484 0.5849 0.51575 0.0
C2424 C 0.38868 0.63801 0.50289 0.0
C2425 C 0.36623 0.62945 0.51151 0.0
C2426 C 0.40708 0.62292 0.50286 0.0
C2427 C 0.40384 0.59876 0.51173 0.0
C2428 C 0.38146 0.59059 0.52092 0.0
C2429 C 0.363 0.60553 0.52061 0.0
C2430 C 0.43519 0.54015 0.50934 0.0
C2431 C 0.45991 0.55014 0.51148 0.0
C2432 C 0.41729 0.55573 0.50894 0.0
C2433 C 0.42334 0.58209 0.51123 0.0
C2434 C 0.44821 0.59208 0.51323 0.0
C2435 C 0.46613 0.57637 0.51326 0.0
H2436 H 0.86282 0.91245 0.56862 0.0
H2437 H 0.82769 0.97723 0.55805 0.0
H2438 H 0.90189 0.93803 0.56777 0.0
H2439 H 0.86712 1.00312 0.55782 0.0
H2440 H 0.97173 0.99061 0.57373 0.0
H2441 H 0.9329 0.97154 0.58616 0.0
H2442 H 0.89591 0.00567 0.52689 0.0
H2443 H 0.93441 0.02509 0.51489 0.0
C2444 C 0.86344 0.93231 0.56671 0.0
C2445 C 0.84203 0.94269 0.56302 0.0
C2446 C 0.88595 0.94706 0.56641 0.0
C2447 C 0.88768 0.9726 0.56242 0.0
C2448 C 0.86639 0.98339 0.56052 0.0
C2449 C 0.84379 0.9686 0.56087 0.0
C2450 C 0.9553 0.99435 0.56362 0.0
C2451 C 0.95623 0.0092 0.54316 0.0
C2452 C 0.93304 0.98334 0.57068 0.0
C2453 C 0.91125 0.98699 0.55749 0.0
C2454 C 0.91225 1.00271 0.53773 0.0
C2455 C 0.93443 0.01365 0.53066 0.0
H2456 H 0.80932 0.1034 0.21772 0.0
H2457 H 0.86792 0.13988 0.27081 0.0
H2458 H 0.78776 0.1388 0.22426 0.0
H2459 H 0.84595 0.1742 0.27888 0.0
H2460 H 0.80972 0.24339 0.27611 0.0
H2461 H 0.83244 0.20954 0.26763 0.0
H2462 H 0.7654 0.15833 0.25006 0.0
H2463 H 0.74307 0.19282 0.25663 0.0
C2464 C 0.81756 0.11897 0.23083 0.0
C2465 C 0.84039 0.11885 0.24358 0.0
C2466 C 0.80507 0.13924 0.23491 0.0
C2467 C 0.81481 0.15965 0.25238 0.0
C2468 C 0.83781 0.15938 0.26493 0.0
C2469 C 0.85047 0.13948 0.26038 0.0
C2470 C 0.79991 0.2249 0.27063 0.0
C2471 C 0.77461 0.22089 0.267 0.0
C2472 C 0.81295 0.20525 0.26577 0.0
C2473 C 0.80098 0.18081 0.25784 0.0
C2474 C 0.77554 0.17678 0.25531 0.0
C2475 C 0.76262 0.19657 0.2595 0.0
H2476 H 0.71179 0.18157 0.98982 0.0
H2477 H 0.74662 0.11946 0.01211 0.0
H2478 H 0.67255 0.15696 0.99285 0.0
H2479 H 0.70703 0.0946 0.01483 0.0
H2480 H 0.63215 0.07077 0.04517 0.0
H2481 H 0.67269 0.0928 0.0406 0.0
H2482 H 0.64509 0.12127 0.97254 0.0
H2483 H 0.60478 0.09961 0.97733 0.0
C2484 C 0.71114 0.16257 0.99517 0.0
C2485 C 0.73253 0.15259 1.0007 0.0
C2486 C 0.68852 0.14836 0.99679 0.0
C2487 C 0.68652 0.12372 1.00406 0.0
C2488 C 0.70787 0.11359 0.0094 0.0
C2489 C 0.73058 0.1278 0.00764 0.0
C2490 C 0.63485 0.08167 0.0292 0.0
C2491 C 0.61527 0.08363 0.01172 0.0
C2492 C 0.65809 0.09418 0.02649 0.0
C2493 C 0.6622 0.109 0.00628 0.0
C2494 C 0.64259 0.11042 0.98856 0.0
C2495 C 0.61946 0.0979 0.99124 0.0
H2496 H 0.13555 0.40669 0.29242 0.0
H2497 H 0.1853 0.45565 0.25438 0.0
H2498 H 0.16206 0.37472 0.29054 0.0
H2499 H 0.2111 0.42369 0.25146 0.0
H2500 H 0.2672 0.37648 0.27332 0.0
H2501 H 0.23881 0.40591 0.27587 0.0
H2502 H 0.17951 0.34437 0.26724 0.0
H2503 H 0.20848 0.31473 0.26587 0.0
C2504 C 0.15193 0.41048 0.28327 0.0
C2505 C 0.15833 0.43388 0.27372 0.0
C2506 C 0.16718 0.39208 0.28213 0.0
C2507 C 0.18917 0.39653 0.27123 0.0
C2508 C 0.19486 0.41961 0.26075 0.0
C2509 C 0.17984 0.43799 0.26217 0.0
C2510 C 0.24811 0.36917 0.27215 0.0
C2511 C 0.24017 0.34323 0.2693 0.0
C2512 C 0.23167 0.38614 0.27332 0.0
C2513 C 0.20656 0.37781 0.27126 0.0
C2514 C 0.1986 0.35169 0.269 0.0
C2515 C 0.21521 0.33461 0.26813 0.0
H2516 H 0.21903 0.48548 0.05814 0.0
H2517 H 0.194 0.426 1.00026 0.0
H2518 H 0.18351 0.50497 0.04687 0.0
H2519 H 0.15928 0.44587 0.98827 0.0
H2520 H 0.12688 0.54495 0.00847 0.0
H2521 H 0.16408 0.52697 0.01578 0.0
H2522 H 0.12262 0.45261 1.00279 0.0
H2523 H 0.08601 0.47057 0.99454 0.0
C2524 C 0.20598 0.47664 0.04297 0.0
C2525 C 0.20915 0.45408 0.03028 0.0
C2526 C 0.18577 0.48793 0.0363 0.0
C2527 C 0.16846 0.47702 0.01663 0.0
C2528 C 0.17193 0.4546 1.00381 0.0
C2529 C 0.19191 0.4432 0.01066 0.0
C2530 C 0.12594 0.52479 0.00665 0.0
C2531 C 0.10365 0.50914 1.00089 0.0
C2532 C 0.14715 0.51446 0.01115 0.0
C2533 C 0.14639 0.48831 0.01009 0.0
C2534 C 0.12406 0.4728 1.00345 0.0
C2535 C 0.103 0.4831 0.99878 0.0
H2536 H 0.82713 0.98579 0.21967 0.0
H2537 H 0.88005 0.96823 0.27627 0.0
H2538 H 0.80366 0.94366 0.22106 0.0
H2539 H 0.85683 0.92701 0.27771 0.0
H2540 H 0.79713 0.86894 0.29684 0.0
H2541 H 0.81528 0.91153 0.29183 0.0
H2542 H 0.8104 0.89508 0.21198 0.0
H2543 H 0.79206 0.85171 0.21685 0.0
C2544 C 0.83369 0.97309 0.23243 0.0
C2545 C 0.85552 0.98045 0.24781 0.0
C2546 C 0.82037 0.94896 0.23309 0.0
C2547 C 0.82839 0.93204 0.24955 0.0
C2548 C 0.85005 0.9396 0.26496 0.0
C2549 C 0.86343 0.96329 0.26402 0.0
C2550 C 0.79966 0.87418 0.27808 0.0
C2551 C 0.79329 0.85655 0.25726 0.0
C2552 C 0.81012 0.89874 0.27526 0.0
C2553 C 0.81444 0.90667 0.25155 0.0
C2554 C 0.80718 0.88954 0.2305 0.0
C2555 C 0.79682 0.86466 0.23333 0.0
H2556 H 0.67495 0.0513 0.77279 0.0
H2557 H 0.62108 0.09405 0.79698 0.0
H2558 H 0.70199 0.09013 0.76856 0.0
H2559 H 0.64808 0.13277 0.7926 0.0
H2560 H 0.71137 0.19649 0.80749 0.0
H2561 H 0.68633 0.15674 0.81243 0.0
H2562 H 0.70544 0.12648 0.74211 0.0
H2563 H 0.73075 0.16656 0.73722 0.0
C2564 C 0.66886 0.06893 0.77732 0.0
C2565 C 0.64577 0.06943 0.78531 0.0
C2566 C 0.68434 0.09122 0.77469 0.0
C2567 C 0.67725 0.1146 0.78023 0.0
C2568 C 0.65426 0.1151 0.78843 0.0
C2569 C 0.63871 0.09285 0.79085 0.0
C2570 C 0.71036 0.18133 0.79311 0.0
C2571 C 0.72297 0.18468 0.77191 0.0
C2572 C 0.69586 0.15857 0.79589 0.0
C2573 C 0.69366 0.13844 0.77758 0.0
C2574 C 0.70682 0.14155 0.75664 0.0
C2575 C 0.72127 0.1645 0.75378 0.0
loop_
_geom_bond_atom_site_label_1
_geom_bond_atom_site_label_2
_geom_bond_distance
_geom_bond_site_symmetry_2
_ccdc_geom_bond_type
Co0 O1 2.216 . S
Co0 O2 2.091 . S
Co0 O4 2.004 1_455 S
Co0 O10 2.021 . S
Co0 O12 2.137 . S
Co0 O13 2.244 . S
O1 Co0 2.216 . S
O1 C8 1.247 . S
O2 Co0 2.091 . S
O2 C8 1.261 . S
C3 O12 1.247 . S
C3 O13 1.272 . S
O4 Co0 2.004 1_655 S
O4 C9 1.259 . S
Co5 O6 2.061 . S
Co5 O11 2.052 1_655 S
Co5 O13 2.135 1_655 S
O6 Co5 2.061 . S
O6 C9 1.235 . S
C7 O10 1.238 . S
C7 O11 1.241 . S
C8 O1 1.247 . S
C8 O2 1.261 . S
C9 O4 1.259 . S
C9 O6 1.235 . S
O10 Co0 2.021 . S
O10 C7 1.238 . S
O11 Co5 2.052 1_455 S
O11 C7 1.241 . S
O12 Co0 2.137 . S
O12 C3 1.247 . S
O13 Co0 2.244 . S
O13 C3 1.272 . S
O13 Co5 2.135 1_455 S
Co14 O15 2.216 . S
Co14 O16 2.091 . S
Co14 O18 2.004 1_655 S
Co14 O24 2.021 . S
Co14 O26 2.137 . S
Co14 O27 2.244 1_655 S
O15 Co14 2.216 . S
O15 C22 1.247 . S
O16 Co14 2.091 . S
O16 C22 1.261 . S
C17 O26 1.247 1_455 S
C17 O27 1.272 . S
O18 Co14 2.004 1_455 S
O18 C23 1.259 . S
Co19 O20 2.061 . S
Co19 O25 2.052 . S
Co19 O27 2.135 . S
O20 Co19 2.061 . S
O20 C23 1.235 . S
C21 O24 1.254 . S
C21 O25 1.220 1_655 S
C22 O15 1.247 . S
C22 O16 1.261 . S
C23 O18 1.259 . S
C23 O20 1.235 . S
O24 Co14 2.021 . S
O24 C21 1.254 . S
O25 Co19 2.052 . S
O25 C21 1.220 1_455 S
O26 Co14 2.137 . S
O26 C17 1.247 1_655 S
O27 Co14 2.244 1_455 S
O27 C17 1.272 . S
O27 Co19 2.135 . S
Co28 O29 2.216 . S
Co28 O30 2.091 . S
Co28 O32 2.004 . S
Co28 O38 2.021 . S
Co28 O40 2.137 . S
Co28 O41 2.244 . S
O29 Co28 2.216 . S
O29 C36 1.247 . S
O30 Co28 2.091 . S
O30 C36 1.261 . S
C31 O40 1.247 . S
C31 O41 1.272 . S
O32 Co28 2.004 . S
O32 C37 1.259 . S
Co33 O34 2.061 . S
Co33 O39 2.052 . S
Co33 O41 2.135 . S
O34 Co33 2.061 . S
O34 C37 1.235 . S
C35 O38 1.238 . S
C35 O39 1.241 . S
C36 O29 1.247 . S
C36 O30 1.261 . S
C37 O32 1.259 . S
C37 O34 1.235 . S
O38 Co28 2.021 . S
O38 C35 1.238 . S
O39 Co33 2.052 . S
O39 C35 1.241 . S
O40 Co28 2.137 . S
O40 C31 1.247 . S
O41 Co28 2.244 . S
O41 C31 1.272 . S
O41 Co33 2.135 . S
Co42 O43 2.216 . S
Co42 O44 2.091 . S
Co42 O46 2.004 . S
Co42 O52 2.021 . S
Co42 O54 2.137 . S
Co42 O55 2.244 . S
O43 Co42 2.216 . S
O43 C50 1.247 . S
O44 Co42 2.091 . S
O44 C50 1.261 . S
C45 O54 1.247 . S
C45 O55 1.272 . S
O46 Co42 2.004 . S
O46 C51 1.259 . S
Co47 O48 2.061 . S
Co47 O53 2.052 . S
Co47 O55 2.135 . S
O48 Co47 2.061 . S
O48 C51 1.235 . S
C49 O52 1.238 . S
C49 O53 1.241 . S
C50 O43 1.247 . S
C50 O44 1.261 . S
C51 O46 1.259 . S
C51 O48 1.235 . S
O52 Co42 2.021 . S
O52 C49 1.238 . S
O53 Co47 2.052 . S
O53 C49 1.241 . S
O54 Co42 2.137 . S
O54 C45 1.247 . S
O55 Co42 2.244 . S
O55 C45 1.272 . S
O55 Co47 2.135 . S
Co56 O57 2.216 1_455 S
Co56 O58 2.091 1_455 S
Co56 O60 2.004 . S
Co56 O66 2.021 . S
Co56 O68 2.137 . S
Co56 O69 2.244 . S
O57 Co56 2.216 1_655 S
O57 C64 1.247 . S
O58 Co56 2.091 1_655 S
O58 C64 1.261 . S
C59 O68 1.247 . S
C59 O69 1.272 . S
O60 Co56 2.004 . S
O60 C65 1.259 . S
Co61 O62 2.061 . S
Co61 O67 2.052 . S
Co61 O69 2.135 . S
O62 Co61 2.061 . S
O62 C65 1.235 . S
C63 O66 1.238 . S
C63 O67 1.241 . S
C64 O57 1.247 . S
C64 O58 1.261 . S
C65 O60 1.259 . S
C65 O62 1.235 . S
O66 Co56 2.021 . S
O66 C63 1.238 . S
O67 Co61 2.052 . S
O67 C63 1.241 . S
O68 Co56 2.137 . S
O68 C59 1.247 . S
O69 Co56 2.244 . S
O69 C59 1.272 . S
O69 Co61 2.135 . S
Co70 O71 2.216 . S
Co70 O72 2.091 . S
Co70 O74 2.004 . S
Co70 O80 2.021 . S
Co70 O82 2.137 . S
Co70 O83 2.244 . S
O71 Co70 2.216 . S
O71 C78 1.247 . S
O72 Co70 2.091 . S
O72 C78 1.261 . S
C73 O82 1.247 . S
C73 O83 1.272 . S
O74 Co70 2.004 . S
O74 C79 1.259 . S
Co75 O76 2.061 . S
Co75 O81 2.052 . S
Co75 O83 2.135 . S
O76 Co75 2.061 . S
O76 C79 1.235 . S
C77 O80 1.238 . S
C77 O81 1.241 . S
C78 O71 1.247 . S
C78 O72 1.261 . S
C79 O74 1.259 . S
C79 O76 1.235 . S
O80 Co70 2.021 . S
O80 C77 1.238 . S
O81 Co75 2.052 . S
O81 C77 1.241 . S
O82 Co70 2.137 . S
O82 C73 1.247 . S
O83 Co70 2.244 . S
O83 C73 1.272 . S
O83 Co75 2.135 . S
Co84 O85 2.216 . S
Co84 O86 2.091 . S
Co84 O88 2.004 . S
Co84 O94 2.021 . S
Co84 O96 2.137 . S
Co84 O97 2.244 . S
O85 Co84 2.216 . S
O85 C92 1.247 . S
O86 Co84 2.091 . S
O86 C92 1.261 . S
C87 O96 1.247 . S
C87 O97 1.272 . S
O88 Co84 2.004 . S
O88 C93 1.259 . S
Co89 O90 2.061 . S
Co89 O95 2.052 . S
Co89 O97 2.135 . S
O90 Co89 2.061 . S
O90 C93 1.235 . S
C91 O94 1.238 . S
C91 O95 1.241 . S
C92 O85 1.247 . S
C92 O86 1.261 . S
C93 O88 1.259 . S
C93 O90 1.235 . S
O94 Co84 2.021 . S
O94 C91 1.238 . S
O95 Co89 2.052 . S
O95 C91 1.241 . S
O96 Co84 2.137 . S
O96 C87 1.247 . S
O97 Co84 2.244 . S
O97 C87 1.272 . S
O97 Co89 2.135 . S
Co98 O99 2.216 . S
Co98 O100 2.091 . S
Co98 O102 2.004 1_455 S
Co98 O108 2.021 . S
Co98 O110 2.137 . S
Co98 O111 2.244 . S
O99 Co98 2.216 . S
O99 C106 1.247 . S
O100 Co98 2.091 . S
O100 C106 1.261 . S
C101 O110 1.247 . S
C101 O111 1.272 . S
O102 Co98 2.004 1_655 S
O102 C107 1.259 . S
Co103 O104 2.061 . S
Co103 O109 2.052 . S
Co103 O111 2.135 1_655 S
O104 Co103 2.061 . S
O104 C107 1.235 . S
C105 O108 1.238 . S
C105 O109 1.241 1_455 S
C106 O99 1.247 . S
C106 O100 1.261 . S
C107 O102 1.259 . S
C107 O104 1.235 . S
O108 Co98 2.021 . S
O108 C105 1.238 . S
O109 Co103 2.052 . S
O109 C105 1.241 1_655 S
O110 Co98 2.137 . S
O110 C101 1.247 . S
O111 Co98 2.244 . S
O111 C101 1.272 . S
O111 Co103 2.135 1_455 S
Co112 O113 2.216 . S
Co112 O114 2.091 . S
Co112 O116 2.004 . S
Co112 O122 2.021 . S
Co112 O124 2.137 . S
Co112 O125 2.244 . S
O113 Co112 2.216 . S
O113 C120 1.247 . S
O114 Co112 2.091 . S
O114 C120 1.261 . S
C115 O124 1.247 . S
C115 O125 1.272 . S
O116 Co112 2.004 . S
O116 C121 1.259 1_545 S
Co117 O118 2.061 1_545 S
Co117 O123 2.052 . S
Co117 O125 2.135 . S
O118 Co117 2.061 1_565 S
O118 C121 1.235 . S
C119 O122 1.238 . S
C119 O123 1.241 . S
C120 O113 1.247 . S
C120 O114 1.261 . S
C121 O116 1.259 1_565 S
C121 O118 1.235 . S
O122 Co112 2.021 . S
O122 C119 1.238 . S
O123 Co117 2.052 . S
O123 C119 1.241 . S
O124 Co112 2.137 . S
O124 C115 1.247 . S
O125 Co112 2.244 . S
O125 C115 1.272 . S
O125 Co117 2.135 . S
Co126 O127 2.216 . S
Co126 O128 2.091 . S
Co126 O130 2.004 . S
Co126 O136 2.021 . S
Co126 O138 2.137 . S
Co126 O139 2.244 . S
O127 Co126 2.216 . S
O127 C134 1.247 . S
O128 Co126 2.091 . S
O128 C134 1.261 . S
C129 O138 1.247 . S
C129 O139 1.272 . S
O130 Co126 2.004 . S
O130 C135 1.259 . S
Co131 O132 2.061 . S
Co131 O137 2.052 . S
Co131 O139 2.135 . S
O132 Co131 2.061 . S
O132 C135 1.235 . S
C133 O136 1.238 . S
C133 O137 1.241 . S
C134 O127 1.247 . S
C134 O128 1.261 . S
C135 O130 1.259 . S
C135 O132 1.235 . S
O136 Co126 2.021 . S
O136 C133 1.238 . S
O137 Co131 2.052 . S
O137 C133 1.241 . S
O138 Co126 2.137 . S
O138 C129 1.247 . S
O139 Co126 2.244 . S
O139 C129 1.272 . S
O139 Co131 2.135 . S
Co140 O141 2.216 . S
Co140 O142 2.091 . S
Co140 O144 2.004 1_565 S
Co140 O150 2.021 . S
Co140 O152 2.137 . S
Co140 O153 2.244 1_565 S
O141 Co140 2.216 . S
O141 C148 1.247 . S
O142 Co140 2.091 . S
O142 C148 1.261 . S
C143 O152 1.241 1_545 S
C143 O153 1.276 . S
O144 Co140 2.004 1_545 S
O144 C149 1.259 . S
Co145 O146 2.061 . S
Co145 O151 2.052 . S
Co145 O153 2.135 . S
O146 Co145 2.061 . S
O146 C149 1.235 . S
C147 O150 1.236 . S
C147 O151 1.244 1_565 S
C148 O141 1.247 . S
C148 O142 1.261 . S
C149 O144 1.259 . S
C149 O146 1.235 . S
O150 Co140 2.021 . S
O150 C147 1.236 . S
O151 Co145 2.052 . S
O151 C147 1.244 1_545 S
O152 Co140 2.137 . S
O152 C143 1.241 1_565 S
O153 Co140 2.244 1_545 S
O153 C143 1.276 . S
O153 Co145 2.135 . S
Co154 O155 2.216 . S
Co154 O156 2.091 . S
Co154 O158 2.004 . S
Co154 O164 2.021 . S
Co154 O166 2.137 1_554 S
Co154 O167 2.244 . S
O155 Co154 2.216 . S
O155 C162 1.247 . S
O156 Co154 2.091 . S
O156 C162 1.261 . S
C157 O166 1.247 . S
C157 O167 1.272 1_556 S
O158 Co154 2.004 . S
O158 C163 1.259 . S
Co159 O160 2.061 . S
Co159 O165 2.052 . S
Co159 O167 2.135 . S
O160 Co159 2.061 . S
O160 C163 1.235 . S
C161 O164 1.238 . S
C161 O165 1.241 . S
C162 O155 1.247 . S
C162 O156 1.261 . S
C163 O158 1.259 . S
C163 O160 1.235 . S
O164 Co154 2.021 . S
O164 C161 1.238 . S
O165 Co159 2.052 . S
O165 C161 1.241 . S
O166 Co154 2.137 1_556 S
O166 C157 1.247 . S
O167 Co154 2.244 . S
O167 C157 1.272 1_554 S
O167 Co159 2.135 . S
Co168 O169 2.216 . S
Co168 O170 2.091 . S
Co168 O172 2.004 . S
Co168 O178 2.021 . S
Co168 O180 2.137 1_554 S
Co168 O181 2.244 . S
O169 Co168 2.216 . S
O169 C176 1.247 . S
O170 Co168 2.091 . S
O170 C176 1.261 . S
C171 O180 1.247 . S
C171 O181 1.272 1_556 S
O172 Co168 2.004 . S
O172 C177 1.259 . S
Co173 O174 2.061 . S
Co173 O179 2.052 . S
Co173 O181 2.135 . S
O174 Co173 2.061 . S
O174 C177 1.235 . S
C175 O178 1.238 . S
C175 O179 1.241 . S
C176 O169 1.247 . S
C176 O170 1.261 . S
C177 O172 1.259 . S
C177 O174 1.235 . S
O178 Co168 2.021 . S
O178 C175 1.238 . S
O179 Co173 2.052 . S
O179 C175 1.241 . S
O180 Co168 2.137 1_556 S
O180 C171 1.247 . S
O181 Co168 2.244 . S
O181 C171 1.272 1_554 S
O181 Co173 2.135 . S
Co182 O183 2.216 1_556 S
Co182 O184 2.091 . S
Co182 O186 2.004 . S
Co182 O192 2.021 1_556 S
Co182 O194 2.137 . S
Co182 O195 2.244 . S
O183 Co182 2.216 1_554 S
O183 C190 1.248 . S
O184 Co182 2.091 . S
O184 C190 1.261 1_556 S
C185 O194 1.247 . S
C185 O195 1.272 . S
O186 Co182 2.004 . S
O186 C191 1.259 . S
Co187 O188 2.060 . S
Co187 O193 2.044 1_556 S
Co187 O195 2.140 . S
O188 Co187 2.060 . S
O188 C191 1.235 . S
C189 O192 1.238 . S
C189 O193 1.241 . S
C190 O183 1.248 . S
C190 O184 1.261 1_554 S
C191 O186 1.259 . S
C191 O188 1.235 . S
O192 Co182 2.021 1_554 S
O192 C189 1.238 . S
O193 Co187 2.044 1_554 S
O193 C189 1.241 . S
O194 Co182 2.137 . S
O194 C185 1.247 . S
O195 Co182 2.244 . S
O195 C185 1.272 . S
O195 Co187 2.140 . S
Co196 O197 2.216 . S
Co196 O198 2.091 . S
Co196 O200 2.004 . S
Co196 O206 2.021 . S
Co196 O208 2.137 . S
Co196 O209 2.244 . S
O197 Co196 2.216 . S
O197 C204 1.247 . S
O198 Co196 2.091 . S
O198 C204 1.261 . S
C199 O208 1.247 . S
C199 O209 1.272 . S
O200 Co196 2.004 . S
O200 C205 1.259 . S
Co201 O202 2.061 . S
Co201 O207 2.052 . S
Co201 O209 2.135 . S
O202 Co201 2.061 . S
O202 C205 1.235 . S
C203 O206 1.238 . S
C203 O207 1.241 . S
C204 O197 1.247 . S
C204 O198 1.261 . S
C205 O200 1.259 . S
C205 O202 1.235 . S
O206 Co196 2.021 . S
O206 C203 1.238 . S
O207 Co201 2.052 . S
O207 C203 1.241 . S
O208 Co196 2.137 . S
O208 C199 1.247 . S
O209 Co196 2.244 . S
O209 C199 1.272 . S
O209 Co201 2.135 . S
Co210 O211 2.216 . S
Co210 O212 2.091 . S
Co210 O214 2.004 . S
Co210 O220 2.021 . S
Co210 O222 2.137 . S
Co210 O223 2.244 . S
O211 Co210 2.216 . S
O211 C218 1.247 . S
O212 Co210 2.091 . S
O212 C218 1.261 . S
C213 O222 1.247 . S
C213 O223 1.272 . S
O214 Co210 2.004 . S
O214 C219 1.259 . S
Co215 O216 2.061 . S
Co215 O221 2.052 . S
Co215 O223 2.135 . S
O216 Co215 2.061 . S
O216 C219 1.235 . S
C217 O220 1.238 . S
C217 O221 1.241 . S
C218 O211 1.247 . S
C218 O212 1.261 . S
C219 O214 1.259 . S
C219 O216 1.235 . S
O220 Co210 2.021 . S
O220 C217 1.238 . S
O221 Co215 2.052 . S
O221 C217 1.241 . S
O222 Co210 2.137 . S
O222 C213 1.247 . S
O223 Co210 2.244 . S
O223 C213 1.272 . S
O223 Co215 2.135 . S
Co224 O225 2.216 . S
Co224 O226 2.091 . S
Co224 O228 2.004 . S
Co224 O234 2.021 . S
Co224 O236 2.137 . S
Co224 O237 2.244 . S
O225 Co224 2.216 . S
O225 C232 1.247 . S
O226 Co224 2.091 . S
O226 C232 1.261 . S
C227 O236 1.247 . S
C227 O237 1.272 . S
O228 Co224 2.004 . S
O228 C233 1.259 . S
Co229 O230 2.061 . S
Co229 O235 2.052 . S
Co229 O237 2.135 . S
O230 Co229 2.061 . S
O230 C233 1.235 . S
C231 O234 1.238 . S
C231 O235 1.241 . S
C232 O225 1.247 . S
C232 O226 1.261 . S
C233 O228 1.259 . S
C233 O230 1.235 . S
O234 Co224 2.021 . S
O234 C231 1.238 . S
O235 Co229 2.052 . S
O235 C231 1.241 . S
O236 Co224 2.137 . S
O236 C227 1.247 . S
O237 Co224 2.244 . S
O237 C227 1.272 . S
O237 Co229 2.135 . S
Co238 O239 2.216 . S
Co238 O240 2.091 . S
Co238 O242 2.004 . S
Co238 O248 2.021 . S
Co238 O250 2.137 . S
Co238 O251 2.244 . S
O239 Co238 2.216 . S
O239 C246 1.247 . S
O240 Co238 2.091 . S
O240 C246 1.261 . S
C241 O250 1.247 . S
C241 O251 1.272 . S
O242 Co238 2.004 . S
O242 C247 1.259 . S
Co243 O244 2.061 . S
Co243 O249 2.052 . S
Co243 O251 2.135 . S
O244 Co243 2.061 . S
O244 C247 1.235 . S
C245 O248 1.238 . S
C245 O249 1.241 . S
C246 O239 1.247 . S
C246 O240 1.261 . S
C247 O242 1.259 . S
C247 O244 1.235 . S
O248 Co238 2.021 . S
O248 C245 1.238 . S
O249 Co243 2.052 . S
O249 C245 1.241 . S
O250 Co238 2.137 . S
O250 C241 1.247 . S
O251 Co238 2.244 . S
O251 C241 1.272 . S
O251 Co243 2.135 . S
Co252 O253 2.216 . S
Co252 O254 2.091 . S
Co252 O256 2.004 . S
Co252 O262 2.021 . S
Co252 O264 2.137 . S
Co252 O265 2.244 . S
O253 Co252 2.216 . S
O253 C260 1.247 . S
O254 Co252 2.091 . S
O254 C260 1.261 . S
C255 O264 1.247 . S
C255 O265 1.272 . S
O256 Co252 2.004 . S
O256 C261 1.259 . S
Co257 O258 2.061 . S
Co257 O263 2.052 . S
Co257 O265 2.135 . S
O258 Co257 2.061 . S
O258 C261 1.235 . S
C259 O262 1.238 . S
C259 O263 1.241 . S
C260 O253 1.247 . S
C260 O254 1.261 . S
C261 O256 1.259 . S
C261 O258 1.235 . S
O262 Co252 2.021 . S
O262 C259 1.238 . S
O263 Co257 2.052 . S
O263 C259 1.241 . S
O264 Co252 2.137 . S
O264 C255 1.247 . S
O265 Co252 2.244 . S
O265 C255 1.272 . S
O265 Co257 2.135 . S
Co266 O267 2.216 1_545 S
Co266 O268 2.091 1_545 S
Co266 O270 2.004 . S
Co266 O276 2.021 . S
Co266 O278 2.137 . S
Co266 O279 2.244 . S
O267 Co266 2.216 1_565 S
O267 C274 1.247 . S
O268 Co266 2.091 1_565 S
O268 C274 1.261 . S
C269 O278 1.247 . S
C269 O279 1.272 . S
O270 Co266 2.004 . S
O270 C275 1.259 . S
Co271 O272 2.061 . S
Co271 O277 2.052 . S
Co271 O279 2.135 . S
O272 Co271 2.061 . S
O272 C275 1.235 . S
C273 O276 1.238 . S
C273 O277 1.241 . S
C274 O267 1.247 . S
C274 O268 1.261 . S
C275 O270 1.259 . S
C275 O272 1.235 . S
O276 Co266 2.021 . S
O276 C273 1.238 . S
O277 Co271 2.052 . S
O277 C273 1.241 . S
O278 Co266 2.137 . S
O278 C269 1.247 . S
O279 Co266 2.244 . S
O279 C269 1.272 . S
O279 Co271 2.135 . S
Co280 O281 2.216 1_556 S
Co280 O282 2.091 1_556 S
Co280 O284 2.004 . S
Co280 O290 2.021 1_556 S
Co280 O292 2.137 . S
Co280 O293 2.244 . S
O281 Co280 2.216 1_554 S
O281 C288 1.247 . S
O282 Co280 2.091 1_554 S
O282 C288 1.261 . S
C283 O292 1.247 . S
C283 O293 1.272 . S
O284 Co280 2.004 . S
O284 C289 1.259 . S
Co285 O286 2.060 . S
Co285 O291 2.052 . S
Co285 O293 2.135 1_554 S
O286 Co285 2.060 . S
O286 C289 1.233 1_554 S
C287 O290 1.238 . S
C287 O291 1.241 . S
C288 O281 1.247 . S
C288 O282 1.261 . S
C289 O284 1.259 . S
C289 O286 1.233 1_556 S
O290 Co280 2.021 1_554 S
O290 C287 1.238 . S
O291 Co285 2.052 . S
O291 C287 1.241 . S
O292 Co280 2.137 . S
O292 C283 1.247 . S
O293 Co280 2.244 . S
O293 C283 1.272 . S
O293 Co285 2.135 1_556 S
Co294 O295 2.216 . S
Co294 O296 2.091 . S
Co294 O298 2.004 . S
Co294 O304 2.021 . S
Co294 O306 2.137 . S
Co294 O307 2.244 . S
O295 Co294 2.216 . S
O295 C302 1.247 . S
O296 Co294 2.091 . S
O296 C302 1.261 . S
C297 O306 1.247 . S
C297 O307 1.272 . S
O298 Co294 2.004 . S
O298 C303 1.259 . S
Co299 O300 2.061 . S
Co299 O305 2.052 . S
Co299 O307 2.135 . S
O300 Co299 2.061 . S
O300 C303 1.235 . S
C301 O304 1.238 . S
C301 O305 1.241 . S
C302 O295 1.247 . S
C302 O296 1.261 . S
C303 O298 1.259 . S
C303 O300 1.235 . S
O304 Co294 2.021 . S
O304 C301 1.238 . S
O305 Co299 2.052 . S
O305 C301 1.241 . S
O306 Co294 2.137 . S
O306 C297 1.247 . S
O307 Co294 2.244 . S
O307 C297 1.272 . S
O307 Co299 2.135 . S
Co308 O309 2.216 . S
Co308 O310 2.091 . S
Co308 O312 2.004 . S
Co308 O318 2.021 . S
Co308 O320 2.137 . S
Co308 O321 2.244 . S
O309 Co308 2.216 . S
O309 C316 1.247 . S
O310 Co308 2.091 . S
O310 C316 1.261 . S
C311 O320 1.247 . S
C311 O321 1.272 . S
O312 Co308 2.004 . S
O312 C317 1.259 . S
Co313 O314 2.061 . S
Co313 O319 2.052 . S
Co313 O321 2.135 . S
O314 Co313 2.061 . S
O314 C317 1.235 . S
C315 O318 1.238 . S
C315 O319 1.241 . S
C316 O309 1.247 . S
C316 O310 1.261 . S
C317 O312 1.259 . S
C317 O314 1.235 . S
O318 Co308 2.021 . S
O318 C315 1.238 . S
O319 Co313 2.052 . S
O319 C315 1.241 . S
O320 Co308 2.137 . S
O320 C311 1.247 . S
O321 Co308 2.244 . S
O321 C311 1.272 . S
O321 Co313 2.135 . S
Co322 O323 2.216 . S
Co322 O324 2.091 . S
Co322 O326 2.004 . S
Co322 O332 2.021 . S
Co322 O334 2.137 . S
Co322 O335 2.244 . S
O323 Co322 2.216 . S
O323 C330 1.247 . S
O324 Co322 2.091 . S
O324 C330 1.261 . S
C325 O334 1.247 . S
C325 O335 1.272 . S
O326 Co322 2.004 . S
O326 C331 1.259 . S
Co327 O328 2.061 . S
Co327 O333 2.052 . S
Co327 O335 2.135 . S
O328 Co327 2.061 . S
O328 C331 1.235 . S
C329 O332 1.238 . S
C329 O333 1.241 . S
C330 O323 1.247 . S
C330 O324 1.261 . S
C331 O326 1.259 . S
C331 O328 1.235 . S
O332 Co322 2.021 . S
O332 C329 1.238 . S
O333 Co327 2.052 . S
O333 C329 1.241 . S
O334 Co322 2.137 . S
O334 C325 1.247 . S
O335 Co322 2.244 . S
O335 C325 1.272 . S
O335 Co327 2.135 . S
Tb336 O339 2.453 . S
Tb336 O340 2.596 . S
Tb336 O341 2.374 1_554 S
Tb336 O349 2.343 1_455 S
Tb336 O351 2.353 . S
Tb336 O353 2.427 . S
Tb336 O354 2.513 1_554 S
C337 O341 1.251 . S
C337 O343 1.263 . S
Tb338 O340 2.343 1_665 S
Tb338 O343 2.353 1_664 S
Tb338 O346 2.427 1_655 S
Tb338 O347 2.513 1_655 S
Tb338 O348 2.453 1_564 S
Tb338 O349 2.596 1_565 S
Tb338 O350 2.374 1_565 S
O339 Tb336 2.453 . S
O339 C355 1.245 . S
O340 Tb336 2.596 . S
O340 Tb338 2.343 1_445 S
O340 C355 1.259 . S
O341 Tb336 2.374 1_556 S
O341 C337 1.251 . S
C342 O346 1.275 . S
C342 O347 1.246 . S
O343 C337 1.263 . S
O343 Tb338 2.353 1_446 S
C344 O348 1.245 1_554 S
C344 O349 1.259 . S
C345 O350 1.250 . S
C345 O351 1.263 1_655 S
O346 Tb338 2.427 1_455 S
O346 C342 1.275 . S
O347 Tb338 2.513 1_455 S
O347 C342 1.246 . S
O348 Tb338 2.453 1_546 S
O348 C344 1.245 1_556 S
O349 Tb336 2.343 1_655 S
O349 Tb338 2.596 1_545 S
O349 C344 1.259 . S
O350 Tb338 2.374 1_545 S
O350 C345 1.250 . S
O351 Tb336 2.353 . S
O351 C345 1.263 1_455 S
C352 O353 1.310 . S
C352 O354 1.222 1_554 S
O353 Tb336 2.427 . S
O353 C352 1.310 . S
O354 Tb336 2.513 1_556 S
O354 C352 1.222 1_556 S
C355 O339 1.245 . S
C355 O340 1.259 . S
Tb356 O359 2.453 . S
Tb356 O360 2.596 . S
Tb356 O361 2.374 . S
Tb356 O369 2.343 . S
Tb356 O371 2.353 . S
Tb356 O373 2.427 . S
Tb356 O374 2.513 . S
C357 O361 1.251 . S
C357 O363 1.263 . S
Tb358 O360 2.343 . S
Tb358 O363 2.353 . S
Tb358 O366 2.427 . S
Tb358 O367 2.513 . S
Tb358 O368 2.453 . S
Tb358 O369 2.596 . S
Tb358 O370 2.374 . S
O359 Tb356 2.453 . S
O359 C375 1.245 . S
O360 Tb356 2.596 . S
O360 Tb358 2.343 . S
O360 C375 1.259 . S
O361 Tb356 2.374 . S
O361 C357 1.251 . S
C362 O366 1.275 . S
C362 O367 1.246 . S
O363 C357 1.263 . S
O363 Tb358 2.353 . S
C364 O368 1.245 . S
C364 O369 1.259 . S
C365 O370 1.250 . S
C365 O371 1.263 . S
O366 Tb358 2.427 . S
O366 C362 1.275 . S
O367 Tb358 2.513 . S
O367 C362 1.246 . S
O368 Tb358 2.453 . S
O368 C364 1.245 . S
O369 Tb356 2.343 . S
O369 Tb358 2.596 . S
O369 C364 1.259 . S
O370 Tb358 2.374 . S
O370 C365 1.250 . S
O371 Tb356 2.353 . S
O371 C365 1.263 . S
C372 O373 1.275 . S
C372 O374 1.246 . S
O373 Tb356 2.427 . S
O373 C372 1.275 . S
O374 Tb356 2.513 . S
O374 C372 1.246 . S
C375 O359 1.245 . S
C375 O360 1.259 . S
Tb376 O379 2.453 . S
Tb376 O380 2.596 . S
Tb376 O381 2.374 . S
Tb376 O389 2.343 . S
Tb376 O391 2.353 . S
Tb376 O393 2.427 . S
Tb376 O394 2.513 . S
C377 O381 1.251 . S
C377 O383 1.263 . S
Tb378 O380 2.343 . S
Tb378 O383 2.353 . S
Tb378 O386 2.427 . S
Tb378 O387 2.513 . S
Tb378 O388 2.453 1_545 S
Tb378 O389 2.596 . S
Tb378 O390 2.374 . S
O379 Tb376 2.453 . S
O379 C395 1.245 . S
O380 Tb376 2.596 . S
O380 Tb378 2.343 . S
O380 C395 1.259 . S
O381 Tb376 2.374 . S
O381 C377 1.251 . S
C382 O386 1.275 . S
C382 O387 1.246 . S
O383 C377 1.263 . S
O383 Tb378 2.353 . S
C384 O388 1.245 . S
C384 O389 1.259 1_565 S
C385 O390 1.250 . S
C385 O391 1.263 . S
O386 Tb378 2.427 . S
O386 C382 1.275 . S
O387 Tb378 2.513 . S
O387 C382 1.246 . S
O388 Tb378 2.453 1_565 S
O388 C384 1.245 . S
O389 Tb376 2.343 . S
O389 Tb378 2.596 . S
O389 C384 1.259 1_545 S
O390 Tb378 2.374 . S
O390 C385 1.250 . S
O391 Tb376 2.353 . S
O391 C385 1.263 . S
C392 O393 1.297 . S
C392 O394 1.248 . S
O393 Tb376 2.427 . S
O393 C392 1.297 . S
O394 Tb376 2.513 . S
O394 C392 1.248 . S
C395 O379 1.245 . S
C395 O380 1.259 . S
Tb396 O399 2.453 . S
Tb396 O400 2.596 . S
Tb396 O401 2.374 . S
Tb396 O409 2.343 . S
Tb396 O411 2.353 . S
Tb396 O413 2.427 . S
Tb396 O414 2.513 . S
C397 O401 1.251 . S
C397 O403 1.263 . S
Tb398 O400 2.343 . S
Tb398 O403 2.353 . S
Tb398 O406 2.427 . S
Tb398 O407 2.513 . S
Tb398 O408 2.453 . S
Tb398 O409 2.596 . S
Tb398 O410 2.374 . S
O399 Tb396 2.453 . S
O399 C415 1.245 . S
O400 Tb396 2.596 . S
O400 Tb398 2.343 . S
O400 C415 1.259 . S
O401 Tb396 2.374 . S
O401 C397 1.251 . S
C402 O406 1.275 . S
C402 O407 1.246 . S
O403 C397 1.263 . S
O403 Tb398 2.353 . S
C404 O408 1.245 . S
C404 O409 1.259 . S
C405 O410 1.250 . S
C405 O411 1.263 . S
O406 Tb398 2.427 . S
O406 C402 1.275 . S
O407 Tb398 2.513 . S
O407 C402 1.246 . S
O408 Tb398 2.453 . S
O408 C404 1.245 . S
O409 Tb396 2.343 . S
O409 Tb398 2.596 . S
O409 C404 1.259 . S
O410 Tb398 2.374 . S
O410 C405 1.250 . S
O411 Tb396 2.353 . S
O411 C405 1.263 . S
C412 O413 1.275 . S
C412 O414 1.246 . S
O413 Tb396 2.427 . S
O413 C412 1.275 . S
O414 Tb396 2.513 . S
O414 C412 1.246 . S
C415 O399 1.245 . S
C415 O400 1.259 . S
Tb416 O419 2.453 1_545 S
Tb416 O420 2.596 . S
Tb416 O421 2.374 1_455 S
Tb416 O429 2.343 . S
Tb416 O431 2.353 . S
Tb416 O433 2.427 . S
Tb416 O434 2.513 1_455 S
C417 O421 1.251 . S
C417 O423 1.263 . S
Tb418 O420 2.343 . S
Tb418 O423 2.353 1_455 S
Tb418 O426 2.427 . S
Tb418 O427 2.513 . S
Tb418 O428 2.453 . S
Tb418 O429 2.596 . S
Tb418 O430 2.374 . S
O419 Tb416 2.453 1_565 S
O419 C435 1.245 . S
O420 Tb416 2.596 . S
O420 Tb418 2.343 . S
O420 C435 1.259 1_545 S
O421 Tb416 2.374 1_655 S
O421 C417 1.251 . S
C422 O426 1.275 . S
C422 O427 1.246 . S
O423 C417 1.263 . S
O423 Tb418 2.353 1_655 S
C424 O428 1.245 . S
C424 O429 1.259 . S
C425 O430 1.250 . S
C425 O431 1.263 . S
O426 Tb418 2.427 . S
O426 C422 1.275 . S
O427 Tb418 2.513 . S
O427 C422 1.246 . S
O428 Tb418 2.453 . S
O428 C424 1.245 . S
O429 Tb416 2.343 . S
O429 Tb418 2.596 . S
O429 C424 1.259 . S
O430 Tb418 2.374 . S
O430 C425 1.250 . S
O431 Tb416 2.353 . S
O431 C425 1.263 . S
C432 O433 1.275 1_655 S
C432 O434 1.246 . S
O433 Tb416 2.427 . S
O433 C432 1.275 1_455 S
O434 Tb416 2.513 1_655 S
O434 C432 1.246 . S
C435 O419 1.245 . S
C435 O420 1.259 1_565 S
Tb436 O439 2.453 . S
Tb436 O440 2.596 . S
Tb436 O441 2.374 . S
Tb436 O449 2.343 . S
Tb436 O451 2.353 . S
Tb436 O453 2.427 . S
Tb436 O454 2.513 . S
C437 O441 1.251 . S
C437 O443 1.263 . S
Tb438 O440 2.343 . S
Tb438 O443 2.353 . S
Tb438 O446 2.427 . S
Tb438 O447 2.513 . S
Tb438 O448 2.453 . S
Tb438 O449 2.596 . S
Tb438 O450 2.374 . S
O439 Tb436 2.453 . S
O439 C455 1.245 . S
O440 Tb436 2.596 . S
O440 Tb438 2.343 . S
O440 C455 1.259 . S
O441 Tb436 2.374 . S
O441 C437 1.251 . S
C442 O446 1.275 . S
C442 O447 1.246 . S
O443 C437 1.263 . S
O443 Tb438 2.353 . S
C444 O448 1.245 . S
C444 O449 1.259 . S
C445 O450 1.250 . S
C445 O451 1.263 . S
O446 Tb438 2.427 . S
O446 C442 1.275 . S
O447 Tb438 2.513 . S
O447 C442 1.246 . S
O448 Tb438 2.453 . S
O448 C444 1.245 . S
O449 Tb436 2.343 . S
O449 Tb438 2.596 . S
O449 C444 1.259 . S
O450 Tb438 2.374 . S
O450 C445 1.250 . S
O451 Tb436 2.353 . S
O451 C445 1.263 . S
C452 O453 1.275 . S
C452 O454 1.246 . S
O453 Tb436 2.427 . S
O453 C452 1.275 . S
O454 Tb436 2.513 . S
O454 C452 1.246 . S
C455 O439 1.245 . S
C455 O440 1.259 . S
Tb456 O459 2.453 . S
Tb456 O460 2.596 . S
Tb456 O461 2.374 1_545 S
Tb456 O469 2.343 1_556 S
Tb456 O471 2.353 1_556 S
Tb456 O473 2.427 1_556 S
Tb456 O474 2.513 1_546 S
C457 O461 1.261 . S
C457 O463 1.234 1_556 S
Tb458 O460 2.343 1_554 S
Tb458 O463 2.353 1_545 S
Tb458 O466 2.427 . S
Tb458 O467 2.513 . S
Tb458 O468 2.453 . S
Tb458 O469 2.596 . S
Tb458 O470 2.374 . S
O459 Tb456 2.453 . S
O459 C475 1.245 . S
O460 Tb456 2.596 . S
O460 Tb458 2.343 1_556 S
O460 C475 1.259 . S
O461 Tb456 2.374 1_565 S
O461 C457 1.261 . S
C462 O466 1.275 . S
C462 O467 1.246 . S
O463 C457 1.234 1_554 S
O463 Tb458 2.353 1_565 S
C464 O468 1.245 . S
C464 O469 1.259 . S
C465 O470 1.250 . S
C465 O471 1.263 . S
O466 Tb458 2.427 . S
O466 C462 1.275 . S
O467 Tb458 2.513 . S
O467 C462 1.246 . S
O468 Tb458 2.453 . S
O468 C464 1.245 . S
O469 Tb456 2.343 1_554 S
O469 Tb458 2.596 . S
O469 C464 1.259 . S
O470 Tb458 2.374 . S
O470 C465 1.250 . S
O471 Tb456 2.353 1_554 S
O471 C465 1.263 . S
C472 O473 1.275 . S
C472 O474 1.246 1_545 S
O473 Tb456 2.427 1_554 S
O473 C472 1.275 . S
O474 Tb456 2.513 1_564 S
O474 C472 1.246 1_565 S
C475 O459 1.245 . S
C475 O460 1.259 . S
Tb476 O479 2.453 . S
Tb476 O480 2.596 . S
Tb476 O481 2.374 . S
Tb476 O489 2.343 . S
Tb476 O491 2.353 . S
Tb476 O493 2.427 . S
Tb476 O494 2.513 . S
C477 O481 1.251 . S
C477 O483 1.263 . S
Tb478 O480 2.343 . S
Tb478 O483 2.353 . S
Tb478 O486 2.427 . S
Tb478 O487 2.513 . S
Tb478 O488 2.453 . S
Tb478 O489 2.596 . S
Tb478 O490 2.374 . S
O479 Tb476 2.453 . S
O479 C495 1.245 . S
O480 Tb476 2.596 . S
O480 Tb478 2.343 . S
O480 C495 1.259 . S
O481 Tb476 2.374 . S
O481 C477 1.251 . S
C482 O486 1.275 . S
C482 O487 1.246 . S
O483 C477 1.263 . S
O483 Tb478 2.353 . S
C484 O488 1.245 . S
C484 O489 1.259 . S
C485 O490 1.250 . S
C485 O491 1.263 . S
O486 Tb478 2.427 . S
O486 C482 1.275 . S
O487 Tb478 2.513 . S
O487 C482 1.246 . S
O488 Tb478 2.453 . S
O488 C484 1.245 . S
O489 Tb476 2.343 . S
O489 Tb478 2.596 . S
O489 C484 1.259 . S
O490 Tb478 2.374 . S
O490 C485 1.250 . S
O491 Tb476 2.353 . S
O491 C485 1.263 . S
C492 O493 1.275 . S
C492 O494 1.246 . S
O493 Tb476 2.427 . S
O493 C492 1.275 . S
O494 Tb476 2.513 . S
O494 C492 1.246 . S
C495 O479 1.245 . S
C495 O480 1.259 . S
Tb496 O499 2.453 1_556 S
Tb496 O500 2.596 1_556 S
Tb496 O501 2.391 . S
Tb496 O509 2.343 . S
Tb496 O511 2.353 . S
Tb496 O513 2.427 . S
Tb496 O514 2.513 . S
C497 O501 1.220 1_554 S
C497 O503 1.263 . S
Tb498 O500 2.343 . S
Tb498 O503 2.353 . S
Tb498 O506 2.427 . S
Tb498 O507 2.513 . S
Tb498 O508 2.453 . S
Tb498 O509 2.596 1_554 S
Tb498 O510 2.374 . S
O499 Tb496 2.453 1_554 S
O499 C515 1.245 . S
O500 Tb496 2.596 1_554 S
O500 Tb498 2.343 . S
O500 C515 1.259 . S
O501 Tb496 2.391 . S
O501 C497 1.220 1_556 S
C502 O506 1.275 . S
C502 O507 1.246 . S
O503 C497 1.263 . S
O503 Tb498 2.353 . S
C504 O508 1.245 . S
C504 O509 1.259 1_554 S
C505 O510 1.250 . S
C505 O511 1.263 1_554 S
O506 Tb498 2.427 . S
O506 C502 1.275 . S
O507 Tb498 2.513 . S
O507 C502 1.246 . S
O508 Tb498 2.453 . S
O508 C504 1.245 . S
O509 Tb496 2.343 . S
O509 Tb498 2.596 1_556 S
O509 C504 1.259 1_556 S
O510 Tb498 2.374 . S
O510 C505 1.250 . S
O511 Tb496 2.353 . S
O511 C505 1.263 1_556 S
C512 O513 1.275 . S
C512 O514 1.246 . S
O513 Tb496 2.427 . S
O513 C512 1.275 . S
O514 Tb496 2.513 . S
O514 C512 1.246 . S
C515 O499 1.245 . S
C515 O500 1.259 . S
Tb516 O519 2.453 . S
Tb516 O520 2.596 . S
Tb516 O521 2.374 . S
Tb516 O529 2.343 . S
Tb516 O531 2.353 . S
Tb516 O533 2.427 . S
Tb516 O534 2.513 . S
C517 O521 1.251 . S
C517 O523 1.263 . S
Tb518 O520 2.343 . S
Tb518 O523 2.353 . S
Tb518 O526 2.427 . S
Tb518 O527 2.513 . S
Tb518 O528 2.453 . S
Tb518 O529 2.596 . S
Tb518 O530 2.374 . S
O519 Tb516 2.453 . S
O519 C535 1.245 . S
O520 Tb516 2.596 . S
O520 Tb518 2.343 . S
O520 C535 1.259 . S
O521 Tb516 2.374 . S
O521 C517 1.251 . S
C522 O526 1.275 . S
C522 O527 1.246 . S
O523 C517 1.263 . S
O523 Tb518 2.353 . S
C524 O528 1.245 . S
C524 O529 1.259 . S
C525 O530 1.250 . S
C525 O531 1.263 . S
O526 Tb518 2.427 . S
O526 C522 1.275 . S
O527 Tb518 2.513 . S
O527 C522 1.246 . S
O528 Tb518 2.453 . S
O528 C524 1.245 . S
O529 Tb516 2.343 . S
O529 Tb518 2.596 . S
O529 C524 1.259 . S
O530 Tb518 2.374 . S
O530 C525 1.250 . S
O531 Tb516 2.353 . S
O531 C525 1.263 . S
C532 O533 1.275 . S
C532 O534 1.246 . S
O533 Tb516 2.427 . S
O533 C532 1.275 . S
O534 Tb516 2.513 . S
O534 C532 1.246 . S
C535 O519 1.245 . S
C535 O520 1.259 . S
Tb536 O539 2.458 . S
Tb536 O540 2.596 1_655 S
Tb536 O541 2.374 . S
Tb536 O549 2.343 . S
Tb536 O551 2.353 . S
Tb536 O553 2.427 . S
Tb536 O554 2.513 . S
C537 O541 1.251 1_455 S
C537 O543 1.263 . S
Tb538 O540 2.343 . S
Tb538 O543 2.353 . S
Tb538 O546 2.427 . S
Tb538 O547 2.513 . S
Tb538 O548 2.453 . S
Tb538 O549 2.596 1_455 S
Tb538 O550 2.374 . S
O539 Tb536 2.458 . S
O539 C555 1.237 1_655 S
O540 Tb536 2.596 1_455 S
O540 Tb538 2.343 . S
O540 C555 1.259 . S
O541 Tb536 2.374 . S
O541 C537 1.251 1_655 S
C542 O546 1.275 . S
C542 O547 1.246 . S
O543 C537 1.263 . S
O543 Tb538 2.353 . S
C544 O548 1.245 1_655 S
C544 O549 1.259 . S
C545 O550 1.250 . S
C545 O551 1.263 1_455 S
O546 Tb538 2.427 . S
O546 C542 1.275 . S
O547 Tb538 2.513 . S
O547 C542 1.246 . S
O548 Tb538 2.453 . S
O548 C544 1.245 1_455 S
O549 Tb536 2.343 . S
O549 Tb538 2.596 1_655 S
O549 C544 1.259 . S
O550 Tb538 2.374 . S
O550 C545 1.250 . S
O551 Tb536 2.353 . S
O551 C545 1.263 1_655 S
C552 O553 1.275 . S
C552 O554 1.246 . S
O553 Tb536 2.427 . S
O553 C552 1.275 . S
O554 Tb536 2.513 . S
O554 C552 1.246 . S
C555 O539 1.237 1_455 S
C555 O540 1.259 . S
Tb556 O559 2.453 . S
Tb556 O560 2.596 . S
Tb556 O561 2.374 . S
Tb556 O569 2.343 . S
Tb556 O571 2.353 . S
Tb556 O573 2.427 . S
Tb556 O574 2.513 . S
C557 O561 1.251 . S
C557 O563 1.263 . S
Tb558 O560 2.343 . S
Tb558 O563 2.353 . S
Tb558 O566 2.427 . S
Tb558 O567 2.513 . S
Tb558 O568 2.453 . S
Tb558 O569 2.596 . S
Tb558 O570 2.374 . S
O559 Tb556 2.453 . S
O559 C575 1.245 . S
O560 Tb556 2.596 . S
O560 Tb558 2.343 . S
O560 C575 1.259 . S
O561 Tb556 2.374 . S
O561 C557 1.251 . S
C562 O566 1.275 . S
C562 O567 1.246 . S
O563 C557 1.263 . S
O563 Tb558 2.353 . S
C564 O568 1.245 . S
C564 O569 1.259 . S
C565 O570 1.250 . S
C565 O571 1.263 . S
O566 Tb558 2.427 . S
O566 C562 1.275 . S
O567 Tb558 2.513 . S
O567 C562 1.246 . S
O568 Tb558 2.453 . S
O568 C564 1.245 . S
O569 Tb556 2.343 . S
O569 Tb558 2.596 . S
O569 C564 1.259 . S
O570 Tb558 2.374 . S
O570 C565 1.250 . S
O571 Tb556 2.353 . S
O571 C565 1.263 . S
C572 O573 1.275 . S
C572 O574 1.246 . S
O573 Tb556 2.427 . S
O573 C572 1.275 . S
O574 Tb556 2.513 . S
O574 C572 1.246 . S
C575 O559 1.245 . S
C575 O560 1.259 . S
Tb576 O579 2.453 . S
Tb576 O580 2.596 . S
Tb576 O581 2.374 . S
Tb576 O589 2.343 . S
Tb576 O591 2.353 . S
Tb576 O593 2.427 . S
Tb576 O594 2.513 . S
C577 O581 1.251 . S
C577 O583 1.263 . S
Tb578 O580 2.343 . S
Tb578 O583 2.353 . S
Tb578 O586 2.427 . S
Tb578 O587 2.513 . S
Tb578 O588 2.453 . S
Tb578 O589 2.596 . S
Tb578 O590 2.374 . S
O579 Tb576 2.453 . S
O579 C595 1.245 . S
O580 Tb576 2.596 . S
O580 Tb578 2.343 . S
O580 C595 1.259 . S
O581 Tb576 2.374 . S
O581 C577 1.251 . S
C582 O586 1.275 . S
C582 O587 1.246 . S
O583 C577 1.263 . S
O583 Tb578 2.353 . S
C584 O588 1.245 . S
C584 O589 1.259 . S
C585 O590 1.250 . S
C585 O591 1.263 . S
O586 Tb578 2.427 . S
O586 C582 1.275 . S
O587 Tb578 2.513 . S
O587 C582 1.246 . S
O588 Tb578 2.453 . S
O588 C584 1.245 . S
O589 Tb576 2.343 . S
O589 Tb578 2.596 . S
O589 C584 1.259 . S
O590 Tb578 2.374 . S
O590 C585 1.250 . S
O591 Tb576 2.353 . S
O591 C585 1.263 . S
C592 O593 1.275 . S
C592 O594 1.246 . S
O593 Tb576 2.427 . S
O593 C592 1.275 . S
O594 Tb576 2.513 . S
O594 C592 1.246 . S
C595 O579 1.245 . S
C595 O580 1.259 . S
Tb596 O599 2.453 . S
Tb596 O600 2.596 . S
Tb596 O601 2.374 . S
Tb596 O609 2.343 . S
Tb596 O611 2.353 . S
Tb596 O613 2.427 . S
Tb596 O614 2.513 . S
C597 O601 1.251 . S
C597 O603 1.263 . S
Tb598 O600 2.343 . S
Tb598 O603 2.353 . S
Tb598 O606 2.427 . S
Tb598 O607 2.513 . S
Tb598 O608 2.453 . S
Tb598 O609 2.596 . S
Tb598 O610 2.374 . S
O599 Tb596 2.453 . S
O599 C615 1.245 . S
O600 Tb596 2.596 . S
O600 Tb598 2.343 . S
O600 C615 1.259 . S
O601 Tb596 2.374 . S
O601 C597 1.251 . S
C602 O606 1.275 . S
C602 O607 1.246 . S
O603 C597 1.263 . S
O603 Tb598 2.353 . S
C604 O608 1.245 . S
C604 O609 1.259 . S
C605 O610 1.250 . S
C605 O611 1.263 . S
O606 Tb598 2.427 . S
O606 C602 1.275 . S
O607 Tb598 2.513 . S
O607 C602 1.246 . S
O608 Tb598 2.453 . S
O608 C604 1.245 . S
O609 Tb596 2.343 . S
O609 Tb598 2.596 . S
O609 C604 1.259 . S
O610 Tb598 2.374 . S
O610 C605 1.250 . S
O611 Tb596 2.353 . S
O611 C605 1.263 . S
C612 O613 1.275 . S
C612 O614 1.246 . S
O613 Tb596 2.427 . S
O613 C612 1.275 . S
O614 Tb596 2.513 . S
O614 C612 1.246 . S
C615 O599 1.245 . S
C615 O600 1.259 . S
Tb616 O619 2.453 . S
Tb616 O620 2.596 . S
Tb616 O621 2.374 . S
Tb616 O629 2.343 . S
Tb616 O631 2.353 . S
Tb616 O633 2.427 . S
Tb616 O634 2.513 . S
C617 O621 1.251 . S
C617 O623 1.263 . S
Tb618 O620 2.343 . S
Tb618 O623 2.353 . S
Tb618 O626 2.427 . S
Tb618 O627 2.513 . S
Tb618 O628 2.453 . S
Tb618 O629 2.596 . S
Tb618 O630 2.374 . S
O619 Tb616 2.453 . S
O619 C635 1.245 . S
O620 Tb616 2.596 . S
O620 Tb618 2.343 . S
O620 C635 1.259 . S
O621 Tb616 2.374 . S
O621 C617 1.251 . S
C622 O626 1.275 . S
C622 O627 1.246 . S
O623 C617 1.263 . S
O623 Tb618 2.353 . S
C624 O628 1.245 . S
C624 O629 1.259 . S
C625 O630 1.250 . S
C625 O631 1.263 . S
O626 Tb618 2.427 . S
O626 C622 1.275 . S
O627 Tb618 2.513 . S
O627 C622 1.246 . S
O628 Tb618 2.453 . S
O628 C624 1.245 . S
O629 Tb616 2.343 . S
O629 Tb618 2.596 . S
O629 C624 1.259 . S
O630 Tb618 2.374 . S
O630 C625 1.250 . S
O631 Tb616 2.353 . S
O631 C625 1.263 . S
C632 O633 1.275 . S
C632 O634 1.246 . S
O633 Tb616 2.427 . S
O633 C632 1.275 . S
O634 Tb616 2.513 . S
O634 C632 1.246 . S
C635 O619 1.245 . S
C635 O620 1.259 . S
Tb636 O639 2.453 . S
Tb636 O640 2.596 . S
Tb636 O641 2.374 . S
Tb636 O649 2.343 . S
Tb636 O651 2.353 1_554 S
Tb636 O653 2.427 1_554 S
Tb636 O654 2.513 . S
C637 O641 1.251 . S
C637 O643 1.263 1_455 S
Tb638 O640 2.343 1_655 S
Tb638 O643 2.353 . S
Tb638 O646 2.427 . S
Tb638 O647 2.513 . S
Tb638 O648 2.453 . S
Tb638 O649 2.596 1_655 S
Tb638 O650 2.374 1_554 S
O639 Tb636 2.453 . S
O639 C655 1.245 . S
O640 Tb636 2.596 . S
O640 Tb638 2.343 1_455 S
O640 C655 1.259 . S
O641 Tb636 2.374 . S
O641 C637 1.251 . S
C642 O646 1.275 . S
C642 O647 1.246 . S
O643 C637 1.263 1_655 S
O643 Tb638 2.353 . S
C644 O648 1.288 1_556 S
C644 O649 1.243 1_656 S
C645 O650 1.250 . S
C645 O651 1.263 1_655 S
O646 Tb638 2.427 . S
O646 C642 1.275 . S
O647 Tb638 2.513 . S
O647 C642 1.246 . S
O648 Tb638 2.453 . S
O648 C644 1.288 1_554 S
O649 Tb636 2.343 . S
O649 Tb638 2.596 1_455 S
O649 C644 1.243 1_454 S
O650 Tb638 2.374 1_556 S
O650 C645 1.250 . S
O651 Tb636 2.353 1_556 S
O651 C645 1.263 1_455 S
C652 O653 1.277 . S
C652 O654 1.243 1_556 S
O653 Tb636 2.427 1_556 S
O653 C652 1.277 . S
O654 Tb636 2.513 . S
O654 C652 1.243 1_554 S
C655 O639 1.245 . S
C655 O640 1.259 . S
H656 C664 0.950 . S
H657 C669 0.950 . S
H658 C666 0.950 . S
H659 C668 0.950 . S
H660 C670 0.950 1_554 S
H661 C672 0.950 . S
H662 C674 0.950 . S
H663 C675 0.950 . S
C664 H656 0.950 . S
C664 C665 1.386 1_655 S
C664 C666 1.391 . S
C665 C664 1.386 1_455 S
C665 C669 1.393 . S
C666 H658 0.950 . S
C666 C664 1.391 . S
C666 C667 1.400 1_655 S
C667 C666 1.400 1_455 S
C667 C668 1.398 . S
C667 C673 1.491 . S
C668 H659 0.950 . S
C668 C667 1.398 . S
C668 C669 1.391 . S
C669 H657 0.950 . S
C669 C665 1.393 . S
C669 C668 1.391 . S
C670 H660 0.950 1_556 S
C670 C671 1.386 . S
C670 C672 1.391 . S
C671 C670 1.386 . S
C671 C675 1.393 1_455 S
C672 H661 0.950 . S
C672 C670 1.391 . S
C672 C673 1.400 . S
C673 C667 1.491 . S
C673 C672 1.400 . S
C673 C674 1.398 1_455 S
C674 H662 0.950 . S
C674 C673 1.398 1_655 S
C674 C675 1.391 . S
C675 H663 0.950 . S
C675 C671 1.393 1_655 S
C675 C674 1.391 . S
H676 C684 0.950 . S
H677 C689 0.950 . S
H678 C686 0.950 . S
H679 C688 0.950 . S
H680 C690 0.950 . S
H681 C692 0.950 . S
H682 C694 0.950 . S
H683 C695 0.950 . S
C684 H676 0.950 . S
C684 C685 1.386 . S
C684 C686 1.391 . S
C685 C684 1.386 . S
C685 C689 1.393 . S
C686 H678 0.950 . S
C686 C684 1.391 . S
C686 C687 1.400 . S
C687 C686 1.400 . S
C687 C688 1.398 . S
C687 C693 1.491 . S
C688 H679 0.950 . S
C688 C687 1.398 . S
C688 C689 1.391 . S
C689 H677 0.950 . S
C689 C685 1.393 . S
C689 C688 1.391 . S
C690 H680 0.950 . S
C690 C691 1.386 . S
C690 C692 1.391 . S
C691 C690 1.386 . S
C691 C695 1.393 . S
C692 H681 0.950 . S
C692 C690 1.391 . S
C692 C693 1.400 . S
C693 C687 1.491 . S
C693 C692 1.400 . S
C693 C694 1.398 . S
C694 H682 0.950 . S
C694 C693 1.398 . S
C694 C695 1.391 . S
C695 H683 0.950 . S
C695 C691 1.393 . S
C695 C694 1.391 . S
H696 C704 0.950 . S
H697 C709 0.950 . S
H698 C706 0.950 . S
H699 C708 0.950 . S
H700 C710 0.950 . S
H701 C712 0.950 . S
H702 C714 0.950 . S
H703 C715 0.950 . S
C704 H696 0.950 . S
C704 C705 1.386 . S
C704 C706 1.391 . S
C705 C704 1.386 . S
C705 C709 1.393 . S
C706 H698 0.950 . S
C706 C704 1.391 . S
C706 C707 1.400 . S
C707 C706 1.400 . S
C707 C708 1.398 . S
C707 C713 1.491 . S
C708 H699 0.950 . S
C708 C707 1.398 . S
C708 C709 1.391 . S
C709 H697 0.950 . S
C709 C705 1.393 . S
C709 C708 1.391 . S
C710 H700 0.950 . S
C710 C711 1.386 . S
C710 C712 1.391 . S
C711 C710 1.386 . S
C711 C715 1.393 . S
C712 H701 0.950 . S
C712 C710 1.391 . S
C712 C713 1.400 . S
C713 C707 1.491 . S
C713 C712 1.400 . S
C713 C714 1.398 . S
C714 H702 0.950 . S
C714 C713 1.398 . S
C714 C715 1.391 . S
C715 H703 0.950 . S
C715 C711 1.393 . S
C715 C714 1.391 . S
H716 C724 0.950 . S
H717 C729 0.950 . S
H718 C726 0.950 . S
H719 C728 0.950 . S
H720 C730 0.950 . S
H721 C732 0.950 . S
H722 C734 0.950 . S
H723 C735 0.950 . S
C724 H716 0.950 . S
C724 C725 1.386 . S
C724 C726 1.391 . S
C725 C724 1.386 . S
C725 C729 1.393 . S
C726 H718 0.950 . S
C726 C724 1.391 . S
C726 C727 1.400 . S
C727 C726 1.400 . S
C727 C728 1.398 . S
C727 C733 1.491 . S
C728 H719 0.950 . S
C728 C727 1.398 . S
C728 C729 1.391 . S
C729 H717 0.950 . S
C729 C725 1.393 . S
C729 C728 1.391 . S
C730 H720 0.950 . S
C730 C731 1.386 . S
C730 C732 1.391 . S
C731 C730 1.386 . S
C731 C735 1.393 . S
C732 H721 0.950 . S
C732 C730 1.391 . S
C732 C733 1.400 . S
C733 C727 1.491 . S
C733 C732 1.400 . S
C733 C734 1.398 . S
C734 H722 0.950 . S
C734 C733 1.398 . S
C734 C735 1.391 . S
C735 H723 0.950 . S
C735 C731 1.393 . S
C735 C734 1.391 . S
H736 C744 0.950 1_655 S
H737 C749 0.950 . S
H738 C746 0.951 . S
H739 C748 0.950 . S
H740 C750 0.950 . S
H741 C752 0.950 . S
H742 C754 0.950 . S
H743 C755 0.950 . S
C744 H736 0.950 1_455 S
C744 C745 1.386 . S
C744 C746 1.391 . S
C745 C744 1.386 . S
C745 C749 1.393 . S
C746 H738 0.951 . S
C746 C744 1.391 . S
C746 C747 1.400 . S
C747 C746 1.400 . S
C747 C748 1.398 . S
C747 C753 1.491 . S
C748 H739 0.950 . S
C748 C747 1.398 . S
C748 C749 1.391 . S
C749 H737 0.950 . S
C749 C745 1.393 . S
C749 C748 1.391 . S
C750 H740 0.950 . S
C750 C751 1.386 . S
C750 C752 1.391 . S
C751 C750 1.386 . S
C751 C755 1.393 . S
C752 H741 0.950 . S
C752 C750 1.391 . S
C752 C753 1.400 . S
C753 C747 1.491 . S
C753 C752 1.400 . S
C753 C754 1.398 . S
C754 H742 0.950 . S
C754 C753 1.398 . S
C754 C755 1.391 . S
C755 H743 0.950 . S
C755 C751 1.393 . S
C755 C754 1.391 . S
H756 C764 0.950 . S
H757 C769 0.950 . S
H758 C766 0.950 . S
H759 C768 0.950 . S
H760 C770 0.950 . S
H761 C772 0.950 . S
H762 C774 0.950 . S
H763 C775 0.950 . S
C764 H756 0.950 . S
C764 C765 1.386 . S
C764 C766 1.391 . S
C765 C764 1.386 . S
C765 C769 1.393 . S
C766 H758 0.950 . S
C766 C764 1.391 . S
C766 C767 1.400 . S
C767 C766 1.400 . S
C767 C768 1.398 . S
C767 C773 1.491 . S
C768 H759 0.950 . S
C768 C767 1.398 . S
C768 C769 1.391 . S
C769 H757 0.950 . S
C769 C765 1.393 . S
C769 C768 1.391 . S
C770 H760 0.950 . S
C770 C771 1.386 . S
C770 C772 1.391 . S
C771 C770 1.386 . S
C771 C775 1.393 . S
C772 H761 0.950 . S
C772 C770 1.391 . S
C772 C773 1.400 . S
C773 C767 1.491 . S
C773 C772 1.400 . S
C773 C774 1.398 . S
C774 H762 0.950 . S
C774 C773 1.398 . S
C774 C775 1.391 . S
C775 H763 0.950 . S
C775 C771 1.393 . S
C775 C774 1.391 . S
H776 C784 0.950 . S
H777 C789 0.950 . S
H778 C786 0.950 . S
H779 C788 0.950 . S
H780 C790 0.950 . S
H781 C792 0.950 . S
H782 C794 0.950 . S
H783 C795 0.950 . S
C784 H776 0.950 . S
C784 C785 1.386 . S
C784 C786 1.391 . S
C785 C784 1.386 . S
C785 C789 1.393 . S
C786 H778 0.950 . S
C786 C784 1.391 . S
C786 C787 1.400 . S
C787 C786 1.400 . S
C787 C788 1.398 . S
C787 C793 1.491 . S
C788 H779 0.950 . S
C788 C787 1.398 . S
C788 C789 1.391 . S
C789 H777 0.950 . S
C789 C785 1.393 . S
C789 C788 1.391 . S
C790 H780 0.950 . S
C790 C791 1.386 . S
C790 C792 1.391 . S
C791 C790 1.386 . S
C791 C795 1.393 . S
C792 H781 0.950 . S
C792 C790 1.391 . S
C792 C793 1.400 . S
C793 C787 1.491 . S
C793 C792 1.400 . S
C793 C794 1.398 . S
C794 H782 0.950 . S
C794 C793 1.398 . S
C794 C795 1.391 . S
C795 H783 0.950 . S
C795 C791 1.393 . S
C795 C794 1.391 . S
H796 C804 0.950 . S
H797 C809 0.950 . S
H798 C806 0.950 . S
H799 C808 0.950 . S
H800 C810 0.950 . S
H801 C812 0.950 . S
H802 C814 0.950 . S
H803 C815 0.950 . S
C804 H796 0.950 . S
C804 C805 1.386 . S
C804 C806 1.391 . S
C805 C804 1.386 . S
C805 C809 1.393 . S
C806 H798 0.950 . S
C806 C804 1.391 . S
C806 C807 1.400 . S
C807 C806 1.400 . S
C807 C808 1.398 . S
C807 C813 1.491 . S
C808 H799 0.950 . S
C808 C807 1.398 . S
C808 C809 1.391 . S
C809 H797 0.950 . S
C809 C805 1.393 . S
C809 C808 1.391 . S
C810 H800 0.950 . S
C810 C811 1.386 . S
C810 C812 1.391 . S
C811 C810 1.386 . S
C811 C815 1.393 . S
C812 H801 0.950 . S
C812 C810 1.391 . S
C812 C813 1.400 . S
C813 C807 1.491 . S
C813 C812 1.400 . S
C813 C814 1.398 . S
C814 H802 0.950 . S
C814 C813 1.398 . S
C814 C815 1.391 . S
C815 H803 0.950 . S
C815 C811 1.393 . S
C815 C814 1.391 . S
H816 C824 0.950 . S
H817 C829 0.950 . S
H818 C826 0.950 . S
H819 C828 0.950 . S
H820 C830 0.950 1_455 S
H821 C832 0.950 . S
H822 C834 0.950 . S
H823 C835 0.950 . S
C824 H816 0.950 . S
C824 C825 1.386 . S
C824 C826 1.391 . S
C825 C824 1.386 . S
C825 C829 1.393 . S
C826 H818 0.950 . S
C826 C824 1.391 . S
C826 C827 1.400 . S
C827 C826 1.400 . S
C827 C828 1.398 . S
C827 C833 1.491 . S
C828 H819 0.950 . S
C828 C827 1.398 . S
C828 C829 1.391 . S
C829 H817 0.950 . S
C829 C825 1.393 . S
C829 C828 1.391 . S
C830 H820 0.950 1_655 S
C830 C831 1.386 . S
C830 C832 1.391 . S
C831 C830 1.386 . S
C831 C835 1.393 . S
C832 H821 0.950 . S
C832 C830 1.391 . S
C832 C833 1.400 . S
C833 C827 1.491 . S
C833 C832 1.400 . S
C833 C834 1.398 . S
C834 H822 0.950 . S
C834 C833 1.398 . S
C834 C835 1.391 . S
C835 H823 0.950 . S
C835 C831 1.393 . S
C835 C834 1.391 . S
H836 C844 0.950 . S
H837 C849 0.950 . S
H838 C846 0.950 . S
H839 C848 0.950 . S
H840 C850 0.950 . S
H841 C852 0.950 . S
H842 C854 0.950 . S
H843 C855 0.950 . S
C844 H836 0.950 . S
C844 C845 1.386 . S
C844 C846 1.391 . S
C845 C844 1.386 . S
C845 C849 1.393 . S
C846 H838 0.950 . S
C846 C844 1.391 . S
C846 C847 1.400 . S
C847 C846 1.400 . S
C847 C848 1.398 . S
C847 C853 1.491 . S
C848 H839 0.950 . S
C848 C847 1.398 . S
C848 C849 1.391 . S
C849 H837 0.950 . S
C849 C845 1.393 . S
C849 C848 1.391 . S
C850 H840 0.950 . S
C850 C851 1.386 . S
C850 C852 1.391 . S
C851 C850 1.386 . S
C851 C855 1.393 . S
C852 H841 0.950 . S
C852 C850 1.391 . S
C852 C853 1.400 . S
C853 C847 1.491 . S
C853 C852 1.400 . S
C853 C854 1.398 . S
C854 H842 0.950 . S
C854 C853 1.398 . S
C854 C855 1.391 . S
C855 H843 0.950 . S
C855 C851 1.393 . S
C855 C854 1.391 . S
H856 C864 0.950 . S
H857 C869 0.953 . S
H858 C866 0.950 . S
H859 C868 0.950 . S
H860 C870 0.950 . S
H861 C872 0.950 . S
H862 C874 0.950 . S
H863 C875 0.950 . S
C864 H856 0.950 . S
C864 C865 1.386 . S
C864 C866 1.391 . S
C865 C864 1.386 . S
C865 C869 1.393 . S
C866 H858 0.950 . S
C866 C864 1.391 . S
C866 C867 1.400 . S
C867 C866 1.400 . S
C867 C868 1.398 . S
C867 C873 1.491 . S
C868 H859 0.950 . S
C868 C867 1.398 . S
C868 C869 1.391 . S
C869 H857 0.953 . S
C869 C865 1.393 . S
C869 C868 1.391 . S
C870 H860 0.950 . S
C870 C871 1.386 . S
C870 C872 1.391 . S
C871 C870 1.386 . S
C871 C875 1.393 . S
C872 H861 0.950 . S
C872 C870 1.391 . S
C872 C873 1.400 . S
C873 C867 1.491 . S
C873 C872 1.400 . S
C873 C874 1.398 . S
C874 H862 0.950 . S
C874 C873 1.398 . S
C874 C875 1.391 . S
C875 H863 0.950 . S
C875 C871 1.393 . S
C875 C874 1.391 . S
H876 C884 0.950 . S
H877 C889 0.950 . S
H878 C886 0.950 . S
H879 C888 0.950 . S
H880 C890 0.950 . S
H881 C892 0.950 . S
H882 C894 0.950 . S
H883 C895 0.950 . S
C884 H876 0.950 . S
C884 C885 1.386 . S
C884 C886 1.391 . S
C885 C884 1.386 . S
C885 C889 1.393 . S
C886 H878 0.950 . S
C886 C884 1.391 . S
C886 C887 1.400 . S
C887 C886 1.400 . S
C887 C888 1.398 . S
C887 C893 1.491 . S
C888 H879 0.950 . S
C888 C887 1.398 . S
C888 C889 1.391 . S
C889 H877 0.950 . S
C889 C885 1.393 . S
C889 C888 1.391 . S
C890 H880 0.950 . S
C890 C891 1.386 . S
C890 C892 1.391 . S
C891 C890 1.386 . S
C891 C895 1.393 . S
C892 H881 0.950 . S
C892 C890 1.391 . S
C892 C893 1.400 . S
C893 C887 1.491 . S
C893 C892 1.400 . S
C893 C894 1.398 . S
C894 H882 0.950 . S
C894 C893 1.398 . S
C894 C895 1.391 . S
C895 H883 0.950 . S
C895 C891 1.393 . S
C895 C894 1.391 . S
H896 C904 0.950 . S
H897 C909 0.950 . S
H898 C906 0.950 . S
H899 C908 0.950 . S
H900 C910 0.950 1_455 S
H901 C912 0.950 . S
H902 C914 0.950 . S
H903 C915 0.950 . S
C904 H896 0.950 . S
C904 C905 1.386 . S
C904 C906 1.391 . S
C905 C904 1.386 . S
C905 C909 1.393 . S
C906 H898 0.950 . S
C906 C904 1.391 . S
C906 C907 1.400 . S
C907 C906 1.400 . S
C907 C908 1.398 . S
C907 C913 1.491 . S
C908 H899 0.950 . S
C908 C907 1.398 . S
C908 C909 1.391 . S
C909 H897 0.950 . S
C909 C905 1.393 . S
C909 C908 1.391 . S
C910 H900 0.950 1_655 S
C910 C911 1.386 . S
C910 C912 1.391 . S
C911 C910 1.386 . S
C911 C915 1.393 . S
C912 H901 0.950 . S
C912 C910 1.391 . S
C912 C913 1.400 . S
C913 C907 1.491 . S
C913 C912 1.400 . S
C913 C914 1.398 . S
C914 H902 0.950 . S
C914 C913 1.398 . S
C914 C915 1.391 . S
C915 H903 0.950 . S
C915 C911 1.393 . S
C915 C914 1.391 . S
H916 C924 0.950 . S
H917 C929 0.950 . S
H918 C926 0.950 . S
H919 C928 0.950 . S
H920 C930 0.950 . S
H921 C932 0.950 . S
H922 C934 0.950 . S
H923 C935 0.950 . S
C924 H916 0.950 . S
C924 C925 1.386 . S
C924 C926 1.391 . S
C925 C924 1.386 . S
C925 C929 1.393 . S
C926 H918 0.950 . S
C926 C924 1.391 . S
C926 C927 1.400 . S
C927 C926 1.400 . S
C927 C928 1.398 . S
C927 C933 1.491 . S
C928 H919 0.950 . S
C928 C927 1.398 . S
C928 C929 1.391 . S
C929 H917 0.950 . S
C929 C925 1.393 . S
C929 C928 1.391 . S
C930 H920 0.950 . S
C930 C931 1.386 . S
C930 C932 1.391 . S
C931 C930 1.386 . S
C931 C935 1.393 . S
C932 H921 0.950 . S
C932 C930 1.391 . S
C932 C933 1.400 . S
C933 C927 1.491 . S
C933 C932 1.400 . S
C933 C934 1.398 . S
C934 H922 0.950 . S
C934 C933 1.398 . S
C934 C935 1.391 . S
C935 H923 0.950 . S
C935 C931 1.393 . S
C935 C934 1.391 . S
H936 C944 0.950 . S
H937 C949 0.950 . S
H938 C946 0.962 . S
H939 C948 0.950 . S
H940 C950 0.950 . S
H941 C952 0.950 . S
H942 C954 0.950 1_565 S
H943 C955 0.950 1_565 S
C944 H936 0.950 . S
C944 C945 1.386 1_565 S
C944 C946 1.394 . S
C945 C944 1.386 1_545 S
C945 C949 1.393 . S
C946 H938 0.962 . S
C946 C944 1.394 . S
C946 C947 1.385 1_565 S
C947 C946 1.385 1_545 S
C947 C948 1.398 . S
C947 C953 1.491 . S
C948 H939 0.950 . S
C948 C947 1.398 . S
C948 C949 1.391 . S
C949 H937 0.950 . S
C949 C945 1.393 . S
C949 C948 1.391 . S
C950 H940 0.950 . S
C950 C951 1.386 . S
C950 C952 1.391 . S
C951 C950 1.386 . S
C951 C955 1.393 . S
C952 H941 0.950 . S
C952 C950 1.391 . S
C952 C953 1.400 . S
C953 C947 1.491 . S
C953 C952 1.400 . S
C953 C954 1.398 . S
C954 H942 0.950 1_545 S
C954 C953 1.398 . S
C954 C955 1.391 . S
C955 H943 0.950 1_545 S
C955 C951 1.393 . S
C955 C954 1.391 . S
H956 C964 0.950 . S
H957 C969 0.950 . S
H958 C966 0.950 . S
H959 C968 0.950 . S
H960 C970 0.950 . S
H961 C972 0.950 . S
H962 C974 0.950 . S
H963 C975 0.950 . S
C964 H956 0.950 . S
C964 C965 1.386 . S
C964 C966 1.391 . S
C965 C964 1.386 . S
C965 C969 1.393 . S
C966 H958 0.950 . S
C966 C964 1.391 . S
C966 C967 1.400 . S
C967 C966 1.400 . S
C967 C968 1.398 . S
C967 C973 1.491 . S
C968 H959 0.950 . S
C968 C967 1.398 . S
C968 C969 1.391 . S
C969 H957 0.950 . S
C969 C965 1.393 . S
C969 C968 1.391 . S
C970 H960 0.950 . S
C970 C971 1.386 . S
C970 C972 1.391 . S
C971 C970 1.386 . S
C971 C975 1.393 . S
C972 H961 0.950 . S
C972 C970 1.391 . S
C972 C973 1.400 . S
C973 C967 1.491 . S
C973 C972 1.400 . S
C973 C974 1.398 . S
C974 H962 0.950 . S
C974 C973 1.398 . S
C974 C975 1.391 . S
C975 H963 0.950 . S
C975 C971 1.393 . S
C975 C974 1.391 . S
H976 C984 0.950 1_556 S
H977 C989 0.950 . S
H978 C986 0.950 1_556 S
H979 C988 0.950 . S
H980 C990 0.950 1_545 S
H981 C992 0.950 . S
H982 C994 0.950 1_556 S
H983 C995 0.950 1_556 S
C984 H976 0.950 1_554 S
C984 C985 1.386 . S
C984 C986 1.391 . S
C985 C984 1.386 . S
C985 C989 1.393 . S
C986 H978 0.950 1_554 S
C986 C984 1.391 . S
C986 C987 1.400 . S
C987 C986 1.400 . S
C987 C988 1.398 . S
C987 C993 1.491 . S
C988 H979 0.950 . S
C988 C987 1.398 . S
C988 C989 1.391 . S
C989 H977 0.950 . S
C989 C985 1.393 . S
C989 C988 1.391 . S
C990 H980 0.950 1_565 S
C990 C991 1.386 1_565 S
C990 C992 1.391 . S
C991 C990 1.386 1_545 S
C991 C995 1.393 1_545 S
C992 H981 0.950 . S
C992 C990 1.391 . S
C992 C993 1.400 . S
C993 C987 1.491 . S
C993 C992 1.400 . S
C993 C994 1.398 . S
C994 H982 0.950 1_554 S
C994 C993 1.398 . S
C994 C995 1.391 . S
C995 H983 0.950 1_554 S
C995 C991 1.393 1_565 S
C995 C994 1.391 . S
H996 C1004 0.950 . S
H997 C1009 0.950 . S
H998 C1006 0.950 . S
H999 C1008 0.950 . S
H1000 C1010 0.950 . S
H1001 C1012 0.950 . S
H1002 C1014 0.950 . S
H1003 C1015 0.950 . S
C1004 H996 0.950 . S
C1004 C1005 1.386 . S
C1004 C1006 1.391 . S
C1005 C1004 1.386 . S
C1005 C1009 1.393 1_556 S
C1006 H998 0.950 . S
C1006 C1004 1.391 . S
C1006 C1007 1.400 . S
C1007 C1006 1.400 . S
C1007 C1008 1.398 1_556 S
C1007 C1013 1.495 . S
C1008 H999 0.950 . S
C1008 C1007 1.398 1_554 S
C1008 C1009 1.391 . S
C1009 H997 0.950 . S
C1009 C1005 1.393 1_554 S
C1009 C1008 1.391 . S
C1010 H1000 0.950 . S
C1010 C1011 1.411 . S
C1010 C1012 1.391 . S
C1011 C1010 1.411 . S
C1011 C1015 1.362 1_554 S
C1012 H1001 0.950 . S
C1012 C1010 1.391 . S
C1012 C1013 1.374 1_554 S
C1013 C1007 1.495 . S
C1013 C1012 1.374 1_556 S
C1013 C1014 1.420 . S
C1014 H1002 0.950 . S
C1014 C1013 1.420 . S
C1014 C1015 1.391 . S
C1015 H1003 0.950 . S
C1015 C1011 1.362 1_556 S
C1015 C1014 1.391 . S
H1016 C1024 0.950 . S
H1017 C1029 0.950 . S
H1018 C1026 0.950 . S
H1019 C1028 0.950 . S
H1020 C1030 0.950 . S
H1021 C1032 0.950 . S
H1022 C1034 0.950 . S
H1023 C1035 0.950 . S
C1024 H1016 0.950 . S
C1024 C1025 1.386 . S
C1024 C1026 1.391 . S
C1025 C1024 1.386 . S
C1025 C1029 1.393 . S
C1026 H1018 0.950 . S
C1026 C1024 1.391 . S
C1026 C1027 1.400 . S
C1027 C1026 1.400 . S
C1027 C1028 1.398 . S
C1027 C1033 1.491 . S
C1028 H1019 0.950 . S
C1028 C1027 1.398 . S
C1028 C1029 1.391 . S
C1029 H1017 0.950 . S
C1029 C1025 1.393 . S
C1029 C1028 1.391 . S
C1030 H1020 0.950 . S
C1030 C1031 1.386 . S
C1030 C1032 1.391 . S
C1031 C1030 1.386 . S
C1031 C1035 1.393 . S
C1032 H1021 0.950 . S
C1032 C1030 1.391 . S
C1032 C1033 1.400 . S
C1033 C1027 1.491 . S
C1033 C1032 1.400 . S
C1033 C1034 1.398 . S
C1034 H1022 0.950 . S
C1034 C1033 1.398 . S
C1034 C1035 1.391 . S
C1035 H1023 0.950 . S
C1035 C1031 1.393 . S
C1035 C1034 1.391 . S
H1036 C1044 0.950 . S
H1037 C1049 0.950 . S
H1038 C1046 0.950 . S
H1039 C1048 0.950 . S
H1040 C1050 0.950 . S
H1041 C1052 0.950 . S
H1042 C1054 0.950 . S
H1043 C1055 0.950 . S
C1044 H1036 0.950 . S
C1044 C1045 1.386 . S
C1044 C1046 1.391 . S
C1045 C1044 1.386 . S
C1045 C1049 1.393 . S
C1046 H1038 0.950 . S
C1046 C1044 1.391 . S
C1046 C1047 1.400 . S
C1047 C1046 1.400 . S
C1047 C1048 1.398 . S
C1047 C1053 1.491 . S
C1048 H1039 0.950 . S
C1048 C1047 1.398 . S
C1048 C1049 1.391 . S
C1049 H1037 0.950 . S
C1049 C1045 1.393 . S
C1049 C1048 1.391 . S
C1050 H1040 0.950 . S
C1050 C1051 1.386 . S
C1050 C1052 1.391 . S
C1051 C1050 1.386 . S
C1051 C1055 1.393 . S
C1052 H1041 0.950 . S
C1052 C1050 1.391 . S
C1052 C1053 1.400 . S
C1053 C1047 1.491 . S
C1053 C1052 1.400 . S
C1053 C1054 1.398 . S
C1054 H1042 0.950 . S
C1054 C1053 1.398 . S
C1054 C1055 1.391 . S
C1055 H1043 0.950 . S
C1055 C1051 1.393 . S
C1055 C1054 1.391 . S
H1056 C1064 0.950 . S
H1057 C1069 0.950 . S
H1058 C1066 0.950 . S
H1059 C1068 0.950 . S
H1060 C1070 0.950 . S
H1061 C1072 0.950 . S
H1062 C1074 0.950 . S
H1063 C1075 0.950 . S
C1064 H1056 0.950 . S
C1064 C1065 1.386 . S
C1064 C1066 1.391 . S
C1065 C1064 1.386 . S
C1065 C1069 1.393 . S
C1066 H1058 0.950 . S
C1066 C1064 1.391 . S
C1066 C1067 1.400 . S
C1067 C1066 1.400 . S
C1067 C1068 1.398 . S
C1067 C1073 1.491 . S
C1068 H1059 0.950 . S
C1068 C1067 1.398 . S
C1068 C1069 1.391 . S
C1069 H1057 0.950 . S
C1069 C1065 1.393 . S
C1069 C1068 1.391 . S
C1070 H1060 0.950 . S
C1070 C1071 1.386 . S
C1070 C1072 1.391 . S
C1071 C1070 1.386 . S
C1071 C1075 1.393 . S
C1072 H1061 0.950 . S
C1072 C1070 1.391 . S
C1072 C1073 1.400 . S
C1073 C1067 1.491 . S
C1073 C1072 1.400 . S
C1073 C1074 1.398 . S
C1074 H1062 0.950 . S
C1074 C1073 1.398 . S
C1074 C1075 1.391 . S
C1075 H1063 0.950 . S
C1075 C1071 1.393 . S
C1075 C1074 1.391 . S
H1076 C1084 0.950 . S
H1077 C1089 0.950 . S
H1078 C1086 0.950 . S
H1079 C1088 0.950 . S
H1080 C1090 0.950 . S
H1081 C1092 0.950 . S
H1082 C1094 0.950 . S
H1083 C1095 0.950 . S
C1084 H1076 0.950 . S
C1084 C1085 1.386 . S
C1084 C1086 1.391 . S
C1085 C1084 1.386 . S
C1085 C1089 1.393 . S
C1086 H1078 0.950 . S
C1086 C1084 1.391 . S
C1086 C1087 1.400 . S
C1087 C1086 1.400 . S
C1087 C1088 1.398 . S
C1087 C1093 1.491 . S
C1088 H1079 0.950 . S
C1088 C1087 1.398 . S
C1088 C1089 1.391 . S
C1089 H1077 0.950 . S
C1089 C1085 1.393 . S
C1089 C1088 1.391 . S
C1090 H1080 0.950 . S
C1090 C1091 1.386 . S
C1090 C1092 1.391 . S
C1091 C1090 1.386 . S
C1091 C1095 1.393 . S
C1092 H1081 0.950 . S
C1092 C1090 1.391 . S
C1092 C1093 1.400 . S
C1093 C1087 1.491 . S
C1093 C1092 1.400 . S
C1093 C1094 1.398 . S
C1094 H1082 0.950 . S
C1094 C1093 1.398 . S
C1094 C1095 1.391 . S
C1095 H1083 0.950 . S
C1095 C1091 1.393 . S
C1095 C1094 1.391 . S
H1096 C1104 0.950 . S
H1097 C1109 0.950 . S
H1098 C1106 0.950 . S
H1099 C1108 0.950 . S
H1100 C1110 0.950 . S
H1101 C1112 0.950 . S
H1102 C1114 0.950 . S
H1103 C1115 0.950 . S
C1104 H1096 0.950 . S
C1104 C1105 1.386 . S
C1104 C1106 1.391 . S
C1105 C1104 1.386 . S
C1105 C1109 1.393 . S
C1106 H1098 0.950 . S
C1106 C1104 1.391 . S
C1106 C1107 1.400 . S
C1107 C1106 1.400 . S
C1107 C1108 1.398 . S
C1107 C1113 1.491 . S
C1108 H1099 0.950 . S
C1108 C1107 1.398 . S
C1108 C1109 1.391 . S
C1109 H1097 0.950 . S
C1109 C1105 1.393 . S
C1109 C1108 1.391 . S
C1110 H1100 0.950 . S
C1110 C1111 1.386 . S
C1110 C1112 1.391 . S
C1111 C1110 1.386 . S
C1111 C1115 1.393 . S
C1112 H1101 0.950 . S
C1112 C1110 1.391 . S
C1112 C1113 1.400 . S
C1113 C1107 1.491 . S
C1113 C1112 1.400 . S
C1113 C1114 1.398 . S
C1114 H1102 0.950 . S
C1114 C1113 1.398 . S
C1114 C1115 1.391 . S
C1115 H1103 0.950 . S
C1115 C1111 1.393 . S
C1115 C1114 1.391 . S
H1116 C1124 0.950 . S
H1117 C1129 0.950 . S
H1118 C1126 0.950 . S
H1119 C1128 0.950 . S
H1120 C1130 0.950 . S
H1121 C1132 0.950 . S
H1122 C1134 0.950 . S
H1123 C1135 0.950 . S
C1124 H1116 0.950 . S
C1124 C1125 1.386 . S
C1124 C1126 1.391 . S
C1125 C1124 1.386 . S
C1125 C1129 1.393 . S
C1126 H1118 0.950 . S
C1126 C1124 1.391 . S
C1126 C1127 1.400 . S
C1127 C1126 1.400 . S
C1127 C1128 1.398 . S
C1127 C1133 1.491 . S
C1128 H1119 0.950 . S
C1128 C1127 1.398 . S
C1128 C1129 1.391 . S
C1129 H1117 0.950 . S
C1129 C1125 1.393 . S
C1129 C1128 1.391 . S
C1130 H1120 0.950 . S
C1130 C1131 1.386 . S
C1130 C1132 1.391 . S
C1131 C1130 1.386 . S
C1131 C1135 1.393 . S
C1132 H1121 0.950 . S
C1132 C1130 1.391 . S
C1132 C1133 1.400 . S
C1133 C1127 1.491 . S
C1133 C1132 1.400 . S
C1133 C1134 1.398 . S
C1134 H1122 0.950 . S
C1134 C1133 1.398 . S
C1134 C1135 1.391 . S
C1135 H1123 0.950 . S
C1135 C1131 1.393 . S
C1135 C1134 1.391 . S
H1136 C1144 0.950 . S
H1137 C1149 0.949 . S
H1138 C1146 0.950 . S
H1139 C1148 0.944 1_655 S
H1140 C1150 0.965 . S
H1141 C1152 0.962 . S
H1142 C1154 0.950 . S
H1143 C1155 0.950 . S
C1144 H1136 0.950 . S
C1144 C1145 1.386 . S
C1144 C1146 1.391 . S
C1145 C1144 1.386 . S
C1145 C1149 1.394 1_455 S
C1146 H1138 0.950 . S
C1146 C1144 1.391 . S
C1146 C1147 1.400 . S
C1147 C1146 1.400 . S
C1147 C1148 1.403 . S
C1147 C1153 1.491 . S
C1148 H1139 0.944 1_455 S
C1148 C1147 1.403 . S
C1148 C1149 1.392 1_455 S
C1149 H1137 0.949 . S
C1149 C1145 1.394 1_655 S
C1149 C1148 1.392 1_655 S
C1150 H1140 0.965 . S
C1150 C1151 1.374 1_655 S
C1150 C1152 1.391 . S
C1151 C1150 1.374 1_455 S
C1151 C1155 1.393 . S
C1152 H1141 0.962 . S
C1152 C1150 1.391 . S
C1152 C1153 1.386 1_655 S
C1153 C1147 1.491 . S
C1153 C1152 1.386 1_455 S
C1153 C1154 1.398 . S
C1154 H1142 0.950 . S
C1154 C1153 1.398 . S
C1154 C1155 1.391 . S
C1155 H1143 0.950 . S
C1155 C1151 1.393 . S
C1155 C1154 1.391 . S
H1156 C1164 0.950 . S
H1157 C1169 0.950 . S
H1158 C1166 0.950 . S
H1159 C1168 0.950 . S
H1160 C1170 0.950 . S
H1161 C1172 0.950 . S
H1162 C1174 0.950 . S
H1163 C1175 0.950 . S
C1164 H1156 0.950 . S
C1164 C1165 1.386 . S
C1164 C1166 1.391 . S
C1165 C1164 1.386 . S
C1165 C1169 1.393 . S
C1166 H1158 0.950 . S
C1166 C1164 1.391 . S
C1166 C1167 1.400 . S
C1167 C1166 1.400 . S
C1167 C1168 1.398 . S
C1167 C1173 1.491 . S
C1168 H1159 0.950 . S
C1168 C1167 1.398 . S
C1168 C1169 1.391 . S
C1169 H1157 0.950 . S
C1169 C1165 1.393 . S
C1169 C1168 1.391 . S
C1170 H1160 0.950 . S
C1170 C1171 1.386 . S
C1170 C1172 1.391 . S
C1171 C1170 1.386 . S
C1171 C1175 1.393 . S
C1172 H1161 0.950 . S
C1172 C1170 1.391 . S
C1172 C1173 1.400 . S
C1173 C1167 1.491 . S
C1173 C1172 1.400 . S
C1173 C1174 1.398 . S
C1174 H1162 0.950 . S
C1174 C1173 1.398 . S
C1174 C1175 1.391 . S
C1175 H1163 0.950 . S
C1175 C1171 1.393 . S
C1175 C1174 1.391 . S
H1176 C1184 0.950 . S
H1177 C1189 0.950 . S
H1178 C1186 0.950 . S
H1179 C1188 0.950 . S
H1180 C1190 0.950 . S
H1181 C1192 0.950 . S
H1182 C1194 0.950 . S
H1183 C1195 0.950 . S
C1184 H1176 0.950 . S
C1184 C1185 1.386 . S
C1184 C1186 1.391 . S
C1185 C1184 1.386 . S
C1185 C1189 1.393 . S
C1186 H1178 0.950 . S
C1186 C1184 1.391 . S
C1186 C1187 1.400 . S
C1187 C1186 1.400 . S
C1187 C1188 1.398 . S
C1187 C1193 1.491 . S
C1188 H1179 0.950 . S
C1188 C1187 1.398 . S
C1188 C1189 1.391 . S
C1189 H1177 0.950 . S
C1189 C1185 1.393 . S
C1189 C1188 1.391 . S
C1190 H1180 0.950 . S
C1190 C1191 1.386 . S
C1190 C1192 1.391 . S
C1191 C1190 1.386 . S
C1191 C1195 1.393 . S
C1192 H1181 0.950 . S
C1192 C1190 1.391 . S
C1192 C1193 1.400 . S
C1193 C1187 1.491 . S
C1193 C1192 1.400 . S
C1193 C1194 1.398 . S
C1194 H1182 0.950 . S
C1194 C1193 1.398 . S
C1194 C1195 1.391 . S
C1195 H1183 0.950 . S
C1195 C1191 1.393 . S
C1195 C1194 1.391 . S
H1196 C1204 0.950 . S
H1197 C1209 0.950 . S
H1198 C1206 0.950 . S
H1199 C1208 0.950 . S
H1200 C1210 0.950 . S
H1201 C1212 0.950 . S
H1202 C1214 0.950 . S
H1203 C1215 0.950 . S
C1204 H1196 0.950 . S
C1204 C1205 1.386 . S
C1204 C1206 1.391 . S
C1205 C1204 1.386 . S
C1205 C1209 1.393 . S
C1206 H1198 0.950 . S
C1206 C1204 1.391 . S
C1206 C1207 1.400 . S
C1207 C1206 1.400 . S
C1207 C1208 1.398 . S
C1207 C1213 1.491 . S
C1208 H1199 0.950 . S
C1208 C1207 1.398 . S
C1208 C1209 1.391 . S
C1209 H1197 0.950 . S
C1209 C1205 1.393 . S
C1209 C1208 1.391 . S
C1210 H1200 0.950 . S
C1210 C1211 1.386 . S
C1210 C1212 1.391 . S
C1211 C1210 1.386 . S
C1211 C1215 1.393 . S
C1212 H1201 0.950 . S
C1212 C1210 1.391 . S
C1212 C1213 1.400 . S
C1213 C1207 1.491 . S
C1213 C1212 1.400 . S
C1213 C1214 1.398 . S
C1214 H1202 0.950 . S
C1214 C1213 1.398 . S
C1214 C1215 1.391 . S
C1215 H1203 0.950 . S
C1215 C1211 1.393 . S
C1215 C1214 1.391 . S
H1216 C1224 0.950 . S
H1217 C1229 0.950 . S
H1218 C1226 0.950 . S
H1219 C1228 0.950 . S
H1220 C1230 0.950 . S
H1221 C1232 0.950 . S
H1222 C1234 0.950 . S
H1223 C1235 0.950 . S
C1224 H1216 0.950 . S
C1224 C1225 1.386 . S
C1224 C1226 1.391 . S
C1225 C1224 1.386 . S
C1225 C1229 1.393 1_455 S
C1226 H1218 0.950 . S
C1226 C1224 1.391 . S
C1226 C1227 1.400 . S
C1227 C1226 1.400 . S
C1227 C1228 1.398 1_455 S
C1227 C1233 1.491 . S
C1228 H1219 0.950 . S
C1228 C1227 1.398 1_655 S
C1228 C1229 1.391 . S
C1229 H1217 0.950 . S
C1229 C1225 1.393 1_655 S
C1229 C1228 1.391 . S
C1230 H1220 0.950 . S
C1230 C1231 1.386 1_655 S
C1230 C1232 1.391 . S
C1231 C1230 1.386 1_455 S
C1231 C1235 1.393 . S
C1232 H1221 0.950 . S
C1232 C1230 1.391 . S
C1232 C1233 1.400 1_655 S
C1233 C1227 1.491 . S
C1233 C1232 1.400 1_455 S
C1233 C1234 1.398 . S
C1234 H1222 0.950 . S
C1234 C1233 1.398 . S
C1234 C1235 1.391 . S
C1235 H1223 0.950 . S
C1235 C1231 1.393 . S
C1235 C1234 1.391 . S
H1236 C1244 0.950 . S
H1237 C1249 0.950 . S
H1238 C1246 0.950 . S
H1239 C1248 0.950 . S
H1240 C1250 0.950 . S
H1241 C1252 0.950 . S
H1242 C1254 0.950 . S
H1243 C1255 0.950 . S
C1244 H1236 0.950 . S
C1244 C1245 1.386 . S
C1244 C1246 1.391 . S
C1245 C1244 1.386 . S
C1245 C1249 1.393 . S
C1246 H1238 0.950 . S
C1246 C1244 1.391 . S
C1246 C1247 1.400 . S
C1247 C1246 1.400 . S
C1247 C1248 1.398 . S
C1247 C1253 1.491 . S
C1248 H1239 0.950 . S
C1248 C1247 1.398 . S
C1248 C1249 1.391 . S
C1249 H1237 0.950 . S
C1249 C1245 1.393 . S
C1249 C1248 1.391 . S
C1250 H1240 0.950 . S
C1250 C1251 1.386 . S
C1250 C1252 1.391 . S
C1251 C1250 1.386 . S
C1251 C1255 1.393 . S
C1252 H1241 0.950 . S
C1252 C1250 1.391 . S
C1252 C1253 1.400 . S
C1253 C1247 1.491 . S
C1253 C1252 1.400 . S
C1253 C1254 1.398 . S
C1254 H1242 0.950 . S
C1254 C1253 1.398 . S
C1254 C1255 1.391 . S
C1255 H1243 0.950 . S
C1255 C1251 1.393 . S
C1255 C1254 1.391 . S
H1256 C1264 0.950 . S
H1257 C1269 0.950 . S
H1258 C1266 0.950 . S
H1259 C1268 0.950 . S
H1260 C1270 0.950 . S
H1261 C1272 0.950 . S
H1262 C1274 0.950 . S
H1263 C1275 0.950 1_554 S
C1264 H1256 0.950 . S
C1264 C1265 1.386 . S
C1264 C1266 1.391 . S
C1265 C1264 1.386 . S
C1265 C1269 1.393 . S
C1266 H1258 0.950 . S
C1266 C1264 1.391 . S
C1266 C1267 1.400 . S
C1267 C1266 1.400 . S
C1267 C1268 1.398 . S
C1267 C1273 1.491 . S
C1268 H1259 0.950 . S
C1268 C1267 1.398 . S
C1268 C1269 1.391 . S
C1269 H1257 0.950 . S
C1269 C1265 1.393 . S
C1269 C1268 1.391 . S
C1270 H1260 0.950 . S
C1270 C1271 1.386 . S
C1270 C1272 1.391 . S
C1271 C1270 1.386 . S
C1271 C1275 1.393 . S
C1272 H1261 0.950 . S
C1272 C1270 1.391 . S
C1272 C1273 1.400 . S
C1273 C1267 1.491 . S
C1273 C1272 1.400 . S
C1273 C1274 1.398 . S
C1274 H1262 0.950 . S
C1274 C1273 1.398 . S
C1274 C1275 1.391 . S
C1275 H1263 0.950 1_556 S
C1275 C1271 1.393 . S
C1275 C1274 1.391 . S
H1276 C1284 0.950 . S
H1277 C1289 0.950 . S
H1278 C1286 0.950 . S
H1279 C1288 0.950 . S
H1280 C1290 0.950 . S
H1281 C1292 0.950 . S
H1282 C1294 0.950 . S
H1283 C1295 0.950 . S
C1284 H1276 0.950 . S
C1284 C1285 1.386 . S
C1284 C1286 1.391 . S
C1285 C1284 1.386 . S
C1285 C1289 1.393 . S
C1286 H1278 0.950 . S
C1286 C1284 1.391 . S
C1286 C1287 1.400 . S
C1287 C1286 1.400 . S
C1287 C1288 1.398 . S
C1287 C1293 1.491 . S
C1288 H1279 0.950 . S
C1288 C1287 1.398 . S
C1288 C1289 1.391 . S
C1289 H1277 0.950 . S
C1289 C1285 1.393 . S
C1289 C1288 1.391 . S
C1290 H1280 0.950 . S
C1290 C1291 1.386 . S
C1290 C1292 1.391 . S
C1291 C1290 1.386 . S
C1291 C1295 1.393 . S
C1292 H1281 0.950 . S
C1292 C1290 1.391 . S
C1292 C1293 1.400 . S
C1293 C1287 1.491 . S
C1293 C1292 1.400 . S
C1293 C1294 1.398 . S
C1294 H1282 0.950 . S
C1294 C1293 1.398 . S
C1294 C1295 1.391 . S
C1295 H1283 0.950 . S
C1295 C1291 1.393 . S
C1295 C1294 1.391 . S
H1296 C1304 0.950 . S
H1297 C1309 0.950 . S
H1298 C1306 0.950 1_565 S
H1299 C1308 0.950 . S
H1300 C1310 0.950 . S
H1301 C1312 0.950 . S
H1302 C1314 0.950 . S
H1303 C1315 0.950 . S
C1304 H1296 0.950 . S
C1304 C1305 1.388 1_565 S
C1304 C1306 1.391 1_565 S
C1305 C1304 1.388 1_545 S
C1305 C1309 1.394 . S
C1306 H1298 0.950 1_545 S
C1306 C1304 1.391 1_545 S
C1306 C1307 1.400 . S
C1307 C1306 1.400 . S
C1307 C1308 1.398 . S
C1307 C1313 1.491 . S
C1308 H1299 0.950 . S
C1308 C1307 1.398 . S
C1308 C1309 1.391 . S
C1309 H1297 0.950 . S
C1309 C1305 1.394 . S
C1309 C1308 1.391 . S
C1310 H1300 0.950 . S
C1310 C1311 1.386 . S
C1310 C1312 1.391 . S
C1311 C1310 1.386 . S
C1311 C1315 1.393 . S
C1312 H1301 0.950 . S
C1312 C1310 1.391 . S
C1312 C1313 1.400 . S
C1313 C1307 1.491 . S
C1313 C1312 1.400 . S
C1313 C1314 1.398 . S
C1314 H1302 0.950 . S
C1314 C1313 1.398 . S
C1314 C1315 1.391 . S
C1315 H1303 0.950 . S
C1315 C1311 1.393 . S
C1315 C1314 1.391 . S
H1316 C1324 0.950 . S
H1317 C1329 0.950 . S
H1318 C1326 0.950 . S
H1319 C1328 0.950 . S
H1320 C1330 0.950 . S
H1321 C1332 0.950 . S
H1322 C1334 0.950 . S
H1323 C1335 0.950 . S
C1324 H1316 0.950 . S
C1324 C1325 1.386 . S
C1324 C1326 1.391 . S
C1325 C1324 1.386 . S
C1325 C1329 1.393 . S
C1326 H1318 0.950 . S
C1326 C1324 1.391 . S
C1326 C1327 1.400 . S
C1327 C1326 1.400 . S
C1327 C1328 1.398 . S
C1327 C1333 1.491 . S
C1328 H1319 0.950 . S
C1328 C1327 1.398 . S
C1328 C1329 1.391 . S
C1329 H1317 0.950 . S
C1329 C1325 1.393 . S
C1329 C1328 1.391 . S
C1330 H1320 0.950 . S
C1330 C1331 1.386 . S
C1330 C1332 1.391 . S
C1331 C1330 1.386 . S
C1331 C1335 1.393 . S
C1332 H1321 0.950 . S
C1332 C1330 1.391 . S
C1332 C1333 1.400 . S
C1333 C1327 1.491 . S
C1333 C1332 1.400 . S
C1333 C1334 1.398 . S
C1334 H1322 0.950 . S
C1334 C1333 1.398 . S
C1334 C1335 1.391 . S
C1335 H1323 0.950 . S
C1335 C1331 1.393 . S
C1335 C1334 1.391 . S
H1336 C1344 0.950 . S
H1337 C1349 0.950 . S
H1338 C1346 0.950 . S
H1339 C1348 0.950 . S
H1340 C1350 0.950 . S
H1341 C1352 0.950 . S
H1342 C1354 0.950 . S
H1343 C1355 0.950 . S
C1344 H1336 0.950 . S
C1344 C1345 1.386 . S
C1344 C1346 1.391 . S
C1345 C1344 1.386 . S
C1345 C1349 1.393 . S
C1346 H1338 0.950 . S
C1346 C1344 1.391 . S
C1346 C1347 1.400 . S
C1347 C1346 1.400 . S
C1347 C1348 1.398 . S
C1347 C1353 1.491 . S
C1348 H1339 0.950 . S
C1348 C1347 1.398 . S
C1348 C1349 1.391 . S
C1349 H1337 0.950 . S
C1349 C1345 1.393 . S
C1349 C1348 1.391 . S
C1350 H1340 0.950 . S
C1350 C1351 1.386 . S
C1350 C1352 1.391 . S
C1351 C1350 1.386 . S
C1351 C1355 1.393 . S
C1352 H1341 0.950 . S
C1352 C1350 1.391 . S
C1352 C1353 1.400 . S
C1353 C1347 1.491 . S
C1353 C1352 1.400 . S
C1353 C1354 1.398 . S
C1354 H1342 0.950 . S
C1354 C1353 1.398 . S
C1354 C1355 1.391 . S
C1355 H1343 0.950 . S
C1355 C1351 1.393 . S
C1355 C1354 1.391 . S
H1356 C1364 0.950 . S
H1357 C1369 0.950 . S
H1358 C1366 0.950 . S
H1359 C1368 0.950 . S
H1360 C1370 0.950 . S
H1361 C1372 0.950 . S
H1362 C1374 0.950 . S
H1363 C1375 0.950 . S
C1364 H1356 0.950 . S
C1364 C1365 1.386 . S
C1364 C1366 1.391 . S
C1365 C1364 1.386 . S
C1365 C1369 1.393 . S
C1366 H1358 0.950 . S
C1366 C1364 1.391 . S
C1366 C1367 1.400 . S
C1367 C1366 1.400 . S
C1367 C1368 1.398 . S
C1367 C1373 1.491 . S
C1368 H1359 0.950 . S
C1368 C1367 1.398 . S
C1368 C1369 1.391 . S
C1369 H1357 0.950 . S
C1369 C1365 1.393 . S
C1369 C1368 1.391 . S
C1370 H1360 0.950 . S
C1370 C1371 1.386 . S
C1370 C1372 1.391 . S
C1371 C1370 1.386 . S
C1371 C1375 1.393 . S
C1372 H1361 0.950 . S
C1372 C1370 1.391 . S
C1372 C1373 1.400 . S
C1373 C1367 1.491 . S
C1373 C1372 1.400 . S
C1373 C1374 1.398 . S
C1374 H1362 0.950 . S
C1374 C1373 1.398 . S
C1374 C1375 1.391 . S
C1375 H1363 0.950 . S
C1375 C1371 1.393 . S
C1375 C1374 1.391 . S
H1376 C1384 0.950 . S
H1377 C1389 0.950 . S
H1378 C1386 0.950 . S
H1379 C1388 0.950 . S
H1380 C1390 0.950 . S
H1381 C1392 0.950 . S
H1382 C1394 0.950 . S
H1383 C1395 0.950 . S
C1384 H1376 0.950 . S
C1384 C1385 1.386 . S
C1384 C1386 1.391 . S
C1385 C1384 1.386 . S
C1385 C1389 1.393 1_565 S
C1386 H1378 0.950 . S
C1386 C1384 1.391 . S
C1386 C1387 1.400 1_565 S
C1387 C1386 1.400 1_545 S
C1387 C1388 1.398 . S
C1387 C1393 1.491 . S
C1388 H1379 0.950 . S
C1388 C1387 1.398 . S
C1388 C1389 1.391 . S
C1389 H1377 0.950 . S
C1389 C1385 1.393 1_545 S
C1389 C1388 1.391 . S
C1390 H1380 0.950 . S
C1390 C1391 1.386 . S
C1390 C1392 1.391 . S
C1391 C1390 1.386 . S
C1391 C1395 1.393 . S
C1392 H1381 0.950 . S
C1392 C1390 1.391 . S
C1392 C1393 1.400 . S
C1393 C1387 1.491 . S
C1393 C1392 1.400 . S
C1393 C1394 1.398 . S
C1394 H1382 0.950 . S
C1394 C1393 1.398 . S
C1394 C1395 1.391 . S
C1395 H1383 0.950 . S
C1395 C1391 1.393 . S
C1395 C1394 1.391 . S
H1396 C1404 0.950 . S
H1397 C1409 0.950 . S
H1398 C1406 0.950 . S
H1399 C1408 0.950 . S
H1400 C1410 0.950 . S
H1401 C1412 0.950 . S
H1402 C1414 0.950 . S
H1403 C1415 0.950 . S
C1404 H1396 0.950 . S
C1404 C1405 1.386 . S
C1404 C1406 1.391 . S
C1405 C1404 1.386 . S
C1405 C1409 1.393 . S
C1406 H1398 0.950 . S
C1406 C1404 1.391 . S
C1406 C1407 1.400 . S
C1407 C1406 1.400 . S
C1407 C1408 1.398 . S
C1407 C1413 1.491 . S
C1408 H1399 0.950 . S
C1408 C1407 1.398 . S
C1408 C1409 1.391 . S
C1409 H1397 0.950 . S
C1409 C1405 1.393 . S
C1409 C1408 1.391 . S
C1410 H1400 0.950 . S
C1410 C1411 1.386 . S
C1410 C1412 1.391 . S
C1411 C1410 1.386 . S
C1411 C1415 1.393 . S
C1412 H1401 0.950 . S
C1412 C1410 1.391 . S
C1412 C1413 1.400 . S
C1413 C1407 1.491 . S
C1413 C1412 1.400 . S
C1413 C1414 1.398 . S
C1414 H1402 0.950 . S
C1414 C1413 1.398 . S
C1414 C1415 1.391 . S
C1415 H1403 0.950 . S
C1415 C1411 1.393 . S
C1415 C1414 1.391 . S
H1416 C1424 0.950 . S
H1417 C1429 0.950 . S
H1418 C1426 0.950 . S
H1419 C1428 0.950 . S
H1420 C1430 0.950 . S
H1421 C1432 0.950 . S
H1422 C1434 0.950 . S
H1423 C1435 0.950 . S
C1424 H1416 0.950 . S
C1424 C1425 1.386 . S
C1424 C1426 1.391 . S
C1425 C1424 1.386 . S
C1425 C1429 1.393 . S
C1426 H1418 0.950 . S
C1426 C1424 1.391 . S
C1426 C1427 1.400 . S
C1427 C1426 1.400 . S
C1427 C1428 1.398 . S
C1427 C1433 1.491 . S
C1428 H1419 0.950 . S
C1428 C1427 1.398 . S
C1428 C1429 1.391 . S
C1429 H1417 0.950 . S
C1429 C1425 1.393 . S
C1429 C1428 1.391 . S
C1430 H1420 0.950 . S
C1430 C1431 1.386 . S
C1430 C1432 1.391 . S
C1431 C1430 1.386 . S
C1431 C1435 1.393 . S
C1432 H1421 0.950 . S
C1432 C1430 1.391 . S
C1432 C1433 1.400 . S
C1433 C1427 1.491 . S
C1433 C1432 1.400 . S
C1433 C1434 1.398 . S
C1434 H1422 0.950 . S
C1434 C1433 1.398 . S
C1434 C1435 1.391 . S
C1435 H1423 0.950 . S
C1435 C1431 1.393 . S
C1435 C1434 1.391 . S
H1436 C1444 0.950 . S
H1437 C1449 0.950 . S
H1438 C1446 0.950 . S
H1439 C1448 0.950 . S
H1440 C1450 0.950 . S
H1441 C1452 0.950 . S
H1442 C1454 0.950 . S
H1443 C1455 0.950 . S
C1444 H1436 0.950 . S
C1444 C1445 1.386 . S
C1444 C1446 1.391 . S
C1445 C1444 1.386 . S
C1445 C1449 1.393 . S
C1446 H1438 0.950 . S
C1446 C1444 1.391 . S
C1446 C1447 1.400 . S
C1447 C1446 1.400 . S
C1447 C1448 1.398 . S
C1447 C1453 1.491 . S
C1448 H1439 0.950 . S
C1448 C1447 1.398 . S
C1448 C1449 1.391 . S
C1449 H1437 0.950 . S
C1449 C1445 1.393 . S
C1449 C1448 1.391 . S
C1450 H1440 0.950 . S
C1450 C1451 1.386 . S
C1450 C1452 1.391 . S
C1451 C1450 1.386 . S
C1451 C1455 1.393 . S
C1452 H1441 0.950 . S
C1452 C1450 1.391 . S
C1452 C1453 1.400 . S
C1453 C1447 1.491 . S
C1453 C1452 1.400 . S
C1453 C1454 1.398 . S
C1454 H1442 0.950 . S
C1454 C1453 1.398 . S
C1454 C1455 1.391 . S
C1455 H1443 0.950 . S
C1455 C1451 1.393 . S
C1455 C1454 1.391 . S
H1456 C1464 0.950 . S
H1457 C1469 0.950 . S
H1458 C1466 0.950 . S
H1459 C1468 0.950 . S
H1460 C1470 0.950 . S
H1461 C1472 0.950 . S
H1462 C1474 0.950 . S
H1463 C1475 0.950 . S
C1464 H1456 0.950 . S
C1464 C1465 1.386 . S
C1464 C1466 1.391 . S
C1465 C1464 1.386 . S
C1465 C1469 1.393 1_554 S
C1466 H1458 0.950 . S
C1466 C1464 1.391 . S
C1466 C1467 1.400 . S
C1467 C1466 1.400 . S
C1467 C1468 1.398 1_554 S
C1467 C1473 1.491 . S
C1468 H1459 0.950 . S
C1468 C1467 1.398 1_556 S
C1468 C1469 1.391 . S
C1469 H1457 0.950 . S
C1469 C1465 1.393 1_556 S
C1469 C1468 1.391 . S
C1470 H1460 0.950 . S
C1470 C1471 1.386 1_556 S
C1470 C1472 1.391 . S
C1471 C1470 1.386 1_554 S
C1471 C1475 1.393 . S
C1472 H1461 0.950 . S
C1472 C1470 1.391 . S
C1472 C1473 1.400 1_556 S
C1473 C1467 1.491 . S
C1473 C1472 1.400 1_554 S
C1473 C1474 1.398 . S
C1474 H1462 0.950 . S
C1474 C1473 1.398 . S
C1474 C1475 1.391 . S
C1475 H1463 0.950 . S
C1475 C1471 1.393 . S
C1475 C1474 1.391 . S
H1476 C1484 0.950 . S
H1477 C1489 0.950 1_556 S
H1478 C1486 0.950 . S
H1479 C1488 0.950 1_556 S
H1480 C1490 0.950 1_556 S
H1481 C1492 0.950 1_556 S
H1482 C1494 0.950 . S
H1483 C1495 0.950 . S
C1484 H1476 0.950 . S
C1484 C1485 1.386 . S
C1484 C1486 1.391 . S
C1485 C1484 1.386 . S
C1485 C1489 1.393 . S
C1486 H1478 0.950 . S
C1486 C1484 1.391 . S
C1486 C1487 1.400 . S
C1487 C1486 1.400 . S
C1487 C1488 1.398 . S
C1487 C1493 1.491 . S
C1488 H1479 0.950 1_554 S
C1488 C1487 1.398 . S
C1488 C1489 1.391 . S
C1489 H1477 0.950 1_554 S
C1489 C1485 1.393 . S
C1489 C1488 1.391 . S
C1490 H1480 0.950 1_554 S
C1490 C1491 1.386 . S
C1490 C1492 1.391 . S
C1491 C1490 1.386 . S
C1491 C1495 1.393 . S
C1492 H1481 0.950 1_554 S
C1492 C1490 1.391 . S
C1492 C1493 1.400 . S
C1493 C1487 1.491 . S
C1493 C1492 1.400 . S
C1493 C1494 1.398 . S
C1494 H1482 0.950 . S
C1494 C1493 1.398 . S
C1494 C1495 1.391 . S
C1495 H1483 0.950 . S
C1495 C1491 1.393 . S
C1495 C1494 1.391 . S
H1496 C1504 0.950 . S
H1497 C1509 0.950 . S
H1498 C1506 0.950 . S
H1499 C1508 0.950 . S
H1500 C1510 0.950 . S
H1501 C1512 0.950 . S
H1502 C1514 0.950 . S
H1503 C1515 0.950 . S
C1504 H1496 0.950 . S
C1504 C1505 1.386 . S
C1504 C1506 1.391 . S
C1505 C1504 1.386 . S
C1505 C1509 1.393 . S
C1506 H1498 0.950 . S
C1506 C1504 1.391 . S
C1506 C1507 1.400 . S
C1507 C1506 1.400 . S
C1507 C1508 1.398 . S
C1507 C1513 1.491 . S
C1508 H1499 0.950 . S
C1508 C1507 1.398 . S
C1508 C1509 1.391 . S
C1509 H1497 0.950 . S
C1509 C1505 1.393 . S
C1509 C1508 1.391 . S
C1510 H1500 0.950 . S
C1510 C1511 1.386 . S
C1510 C1512 1.391 . S
C1511 C1510 1.386 . S
C1511 C1515 1.393 . S
C1512 H1501 0.950 . S
C1512 C1510 1.391 . S
C1512 C1513 1.400 . S
C1513 C1507 1.491 . S
C1513 C1512 1.400 . S
C1513 C1514 1.398 . S
C1514 H1502 0.950 . S
C1514 C1513 1.398 . S
C1514 C1515 1.391 . S
C1515 H1503 0.950 . S
C1515 C1511 1.393 . S
C1515 C1514 1.391 . S
H1516 C1524 0.950 . S
H1517 C1529 0.950 . S
H1518 C1526 0.950 . S
H1519 C1528 0.950 . S
H1520 C1530 0.950 . S
H1521 C1532 0.950 . S
H1522 C1534 0.950 . S
H1523 C1535 0.950 . S
C1524 H1516 0.950 . S
C1524 C1525 1.386 . S
C1524 C1526 1.391 . S
C1525 C1524 1.386 . S
C1525 C1529 1.393 . S
C1526 H1518 0.950 . S
C1526 C1524 1.391 . S
C1526 C1527 1.400 . S
C1527 C1526 1.400 . S
C1527 C1528 1.398 . S
C1527 C1533 1.491 . S
C1528 H1519 0.950 . S
C1528 C1527 1.398 . S
C1528 C1529 1.391 . S
C1529 H1517 0.950 . S
C1529 C1525 1.393 . S
C1529 C1528 1.391 . S
C1530 H1520 0.950 . S
C1530 C1531 1.386 . S
C1530 C1532 1.391 . S
C1531 C1530 1.386 . S
C1531 C1535 1.393 . S
C1532 H1521 0.950 . S
C1532 C1530 1.391 . S
C1532 C1533 1.400 . S
C1533 C1527 1.491 . S
C1533 C1532 1.400 . S
C1533 C1534 1.398 . S
C1534 H1522 0.950 . S
C1534 C1533 1.398 . S
C1534 C1535 1.391 . S
C1535 H1523 0.950 . S
C1535 C1531 1.393 . S
C1535 C1534 1.391 . S
H1536 C1544 0.950 . S
H1537 C1549 0.950 . S
H1538 C1546 0.950 . S
H1539 C1548 0.950 . S
H1540 C1550 0.950 . S
H1541 C1552 0.950 . S
H1542 C1554 0.950 . S
H1543 C1555 0.950 . S
C1544 H1536 0.950 . S
C1544 C1545 1.386 . S
C1544 C1546 1.391 . S
C1545 C1544 1.386 . S
C1545 C1549 1.393 . S
C1546 H1538 0.950 . S
C1546 C1544 1.391 . S
C1546 C1547 1.400 . S
C1547 C1546 1.400 . S
C1547 C1548 1.398 . S
C1547 C1553 1.491 . S
C1548 H1539 0.950 . S
C1548 C1547 1.398 . S
C1548 C1549 1.391 . S
C1549 H1537 0.950 . S
C1549 C1545 1.393 . S
C1549 C1548 1.391 . S
C1550 H1540 0.950 . S
C1550 C1551 1.386 . S
C1550 C1552 1.391 . S
C1551 C1550 1.386 . S
C1551 C1555 1.393 . S
C1552 H1541 0.950 . S
C1552 C1550 1.391 . S
C1552 C1553 1.400 . S
C1553 C1547 1.491 . S
C1553 C1552 1.400 . S
C1553 C1554 1.398 . S
C1554 H1542 0.950 . S
C1554 C1553 1.398 . S
C1554 C1555 1.391 . S
C1555 H1543 0.950 . S
C1555 C1551 1.393 . S
C1555 C1554 1.391 . S
H1556 C1564 0.950 . S
H1557 C1569 0.950 . S
H1558 C1566 0.950 . S
H1559 C1568 0.950 . S
H1560 C1570 0.950 1_545 S
H1561 C1572 0.950 . S
H1562 C1574 0.950 . S
H1563 C1575 0.950 . S
C1564 H1556 0.950 . S
C1564 C1565 1.386 . S
C1564 C1566 1.391 . S
C1565 C1564 1.386 . S
C1565 C1569 1.393 . S
C1566 H1558 0.950 . S
C1566 C1564 1.391 . S
C1566 C1567 1.400 . S
C1567 C1566 1.400 . S
C1567 C1568 1.398 . S
C1567 C1573 1.491 . S
C1568 H1559 0.950 . S
C1568 C1567 1.398 . S
C1568 C1569 1.391 . S
C1569 H1557 0.950 . S
C1569 C1565 1.393 . S
C1569 C1568 1.391 . S
C1570 H1560 0.950 1_565 S
C1570 C1571 1.386 . S
C1570 C1572 1.391 . S
C1571 C1570 1.386 . S
C1571 C1575 1.393 . S
C1572 H1561 0.950 . S
C1572 C1570 1.391 . S
C1572 C1573 1.400 . S
C1573 C1567 1.491 . S
C1573 C1572 1.400 . S
C1573 C1574 1.398 . S
C1574 H1562 0.950 . S
C1574 C1573 1.398 . S
C1574 C1575 1.391 . S
C1575 H1563 0.950 . S
C1575 C1571 1.393 . S
C1575 C1574 1.391 . S
H1576 C1584 0.950 . S
H1577 C1589 0.950 . S
H1578 C1586 0.950 . S
H1579 C1588 0.950 . S
H1580 C1590 0.950 . S
H1581 C1592 0.950 . S
H1582 C1594 0.950 . S
H1583 C1595 0.950 . S
C1584 H1576 0.950 . S
C1584 C1585 1.386 . S
C1584 C1586 1.391 . S
C1585 C1584 1.386 . S
C1585 C1589 1.393 . S
C1586 H1578 0.950 . S
C1586 C1584 1.391 . S
C1586 C1587 1.400 . S
C1587 C1586 1.400 . S
C1587 C1588 1.398 . S
C1587 C1593 1.491 . S
C1588 H1579 0.950 . S
C1588 C1587 1.398 . S
C1588 C1589 1.391 . S
C1589 H1577 0.950 . S
C1589 C1585 1.393 . S
C1589 C1588 1.391 . S
C1590 H1580 0.950 . S
C1590 C1591 1.386 . S
C1590 C1592 1.391 . S
C1591 C1590 1.386 . S
C1591 C1595 1.393 . S
C1592 H1581 0.950 . S
C1592 C1590 1.391 . S
C1592 C1593 1.400 . S
C1593 C1587 1.491 . S
C1593 C1592 1.400 . S
C1593 C1594 1.398 . S
C1594 H1582 0.950 . S
C1594 C1593 1.398 . S
C1594 C1595 1.391 . S
C1595 H1583 0.950 . S
C1595 C1591 1.393 . S
C1595 C1594 1.391 . S
H1596 C1604 0.950 . S
H1597 C1609 0.950 . S
H1598 C1606 0.950 . S
H1599 C1608 0.950 . S
H1600 C1610 0.950 . S
H1601 C1612 0.950 . S
H1602 C1614 0.950 . S
H1603 C1615 0.950 . S
C1604 H1596 0.950 . S
C1604 C1605 1.386 . S
C1604 C1606 1.391 . S
C1605 C1604 1.386 . S
C1605 C1609 1.393 . S
C1606 H1598 0.950 . S
C1606 C1604 1.391 . S
C1606 C1607 1.400 . S
C1607 C1606 1.400 . S
C1607 C1608 1.398 . S
C1607 C1613 1.491 . S
C1608 H1599 0.950 . S
C1608 C1607 1.398 . S
C1608 C1609 1.391 . S
C1609 H1597 0.950 . S
C1609 C1605 1.393 . S
C1609 C1608 1.391 . S
C1610 H1600 0.950 . S
C1610 C1611 1.386 . S
C1610 C1612 1.391 . S
C1611 C1610 1.386 . S
C1611 C1615 1.393 . S
C1612 H1601 0.950 . S
C1612 C1610 1.391 . S
C1612 C1613 1.400 . S
C1613 C1607 1.491 . S
C1613 C1612 1.400 . S
C1613 C1614 1.398 . S
C1614 H1602 0.950 . S
C1614 C1613 1.398 . S
C1614 C1615 1.391 . S
C1615 H1603 0.950 . S
C1615 C1611 1.393 . S
C1615 C1614 1.391 . S
H1616 C1624 0.950 . S
H1617 C1629 0.950 . S
H1618 C1626 0.950 . S
H1619 C1628 0.950 . S
H1620 C1630 0.950 . S
H1621 C1632 0.950 . S
H1622 C1634 0.950 . S
H1623 C1635 0.950 . S
C1624 H1616 0.950 . S
C1624 C1625 1.386 . S
C1624 C1626 1.391 . S
C1625 C1624 1.386 . S
C1625 C1629 1.393 . S
C1626 H1618 0.950 . S
C1626 C1624 1.391 . S
C1626 C1627 1.400 . S
C1627 C1626 1.400 . S
C1627 C1628 1.398 . S
C1627 C1633 1.491 . S
C1628 H1619 0.950 . S
C1628 C1627 1.398 . S
C1628 C1629 1.391 . S
C1629 H1617 0.950 . S
C1629 C1625 1.393 . S
C1629 C1628 1.391 . S
C1630 H1620 0.950 . S
C1630 C1631 1.386 . S
C1630 C1632 1.391 . S
C1631 C1630 1.386 . S
C1631 C1635 1.393 . S
C1632 H1621 0.950 . S
C1632 C1630 1.391 . S
C1632 C1633 1.400 . S
C1633 C1627 1.491 . S
C1633 C1632 1.400 . S
C1633 C1634 1.398 . S
C1634 H1622 0.950 . S
C1634 C1633 1.398 . S
C1634 C1635 1.391 . S
C1635 H1623 0.950 . S
C1635 C1631 1.393 . S
C1635 C1634 1.391 . S
H1636 C1644 0.950 . S
H1637 C1649 0.950 . S
H1638 C1646 0.950 . S
H1639 C1648 0.950 . S
H1640 C1650 0.950 . S
H1641 C1652 0.950 . S
H1642 C1654 0.950 . S
H1643 C1655 0.950 . S
C1644 H1636 0.950 . S
C1644 C1645 1.386 . S
C1644 C1646 1.391 . S
C1645 C1644 1.386 . S
C1645 C1649 1.393 . S
C1646 H1638 0.950 . S
C1646 C1644 1.391 . S
C1646 C1647 1.400 . S
C1647 C1646 1.400 . S
C1647 C1648 1.398 . S
C1647 C1653 1.491 . S
C1648 H1639 0.950 . S
C1648 C1647 1.398 . S
C1648 C1649 1.391 . S
C1649 H1637 0.950 . S
C1649 C1645 1.393 . S
C1649 C1648 1.391 . S
C1650 H1640 0.950 . S
C1650 C1651 1.386 . S
C1650 C1652 1.391 . S
C1651 C1650 1.386 . S
C1651 C1655 1.393 . S
C1652 H1641 0.950 . S
C1652 C1650 1.391 . S
C1652 C1653 1.400 . S
C1653 C1647 1.491 . S
C1653 C1652 1.400 . S
C1653 C1654 1.398 . S
C1654 H1642 0.950 . S
C1654 C1653 1.398 . S
C1654 C1655 1.391 . S
C1655 H1643 0.950 . S
C1655 C1651 1.393 . S
C1655 C1654 1.391 . S
H1656 C1664 0.950 . S
H1657 C1669 0.950 . S
H1658 C1666 0.950 . S
H1659 C1668 0.950 . S
H1660 C1670 0.950 . S
H1661 C1672 0.950 . S
H1662 C1674 0.950 . S
H1663 C1675 0.950 . S
C1664 H1656 0.950 . S
C1664 C1665 1.386 . S
C1664 C1666 1.391 . S
C1665 C1664 1.386 . S
C1665 C1669 1.393 1_455 S
C1666 H1658 0.950 . S
C1666 C1664 1.391 . S
C1666 C1667 1.400 . S
C1667 C1666 1.400 . S
C1667 C1668 1.398 1_455 S
C1667 C1673 1.491 . S
C1668 H1659 0.950 . S
C1668 C1667 1.398 1_655 S
C1668 C1669 1.391 . S
C1669 H1657 0.950 . S
C1669 C1665 1.393 1_655 S
C1669 C1668 1.391 . S
C1670 H1660 0.950 . S
C1670 C1671 1.386 1_655 S
C1670 C1672 1.391 . S
C1671 C1670 1.386 1_455 S
C1671 C1675 1.393 . S
C1672 H1661 0.950 . S
C1672 C1670 1.391 . S
C1672 C1673 1.400 1_655 S
C1673 C1667 1.491 . S
C1673 C1672 1.400 1_455 S
C1673 C1674 1.398 . S
C1674 H1662 0.950 . S
C1674 C1673 1.398 . S
C1674 C1675 1.391 . S
C1675 H1663 0.950 . S
C1675 C1671 1.393 . S
C1675 C1674 1.391 . S
H1676 C1684 0.950 . S
H1677 C1689 0.950 . S
H1678 C1686 0.950 . S
H1679 C1688 0.950 . S
H1680 C1690 0.950 . S
H1681 C1692 0.950 . S
H1682 C1694 0.950 . S
H1683 C1695 0.950 . S
C1684 H1676 0.950 . S
C1684 C1685 1.386 . S
C1684 C1686 1.391 . S
C1685 C1684 1.386 . S
C1685 C1689 1.393 . S
C1686 H1678 0.950 . S
C1686 C1684 1.391 . S
C1686 C1687 1.400 . S
C1687 C1686 1.400 . S
C1687 C1688 1.398 . S
C1687 C1693 1.491 . S
C1688 H1679 0.950 . S
C1688 C1687 1.398 . S
C1688 C1689 1.391 . S
C1689 H1677 0.950 . S
C1689 C1685 1.393 . S
C1689 C1688 1.391 . S
C1690 H1680 0.950 . S
C1690 C1691 1.386 . S
C1690 C1692 1.391 . S
C1691 C1690 1.386 . S
C1691 C1695 1.393 . S
C1692 H1681 0.950 . S
C1692 C1690 1.391 . S
C1692 C1693 1.400 . S
C1693 C1687 1.491 . S
C1693 C1692 1.400 . S
C1693 C1694 1.398 . S
C1694 H1682 0.950 . S
C1694 C1693 1.398 . S
C1694 C1695 1.391 . S
C1695 H1683 0.950 . S
C1695 C1691 1.393 . S
C1695 C1694 1.391 . S
H1696 C1704 0.950 . S
H1697 C1709 0.950 . S
H1698 C1706 0.950 . S
H1699 C1708 0.950 . S
H1700 C1710 0.950 . S
H1701 C1712 0.950 . S
H1702 C1714 0.950 . S
H1703 C1715 0.950 . S
C1704 H1696 0.950 . S
C1704 C1705 1.386 . S
C1704 C1706 1.391 . S
C1705 C1704 1.386 . S
C1705 C1709 1.393 . S
C1706 H1698 0.950 . S
C1706 C1704 1.391 . S
C1706 C1707 1.400 . S
C1707 C1706 1.400 . S
C1707 C1708 1.398 . S
C1707 C1713 1.491 . S
C1708 H1699 0.950 . S
C1708 C1707 1.398 . S
C1708 C1709 1.391 . S
C1709 H1697 0.950 . S
C1709 C1705 1.393 . S
C1709 C1708 1.391 . S
C1710 H1700 0.950 . S
C1710 C1711 1.386 . S
C1710 C1712 1.391 . S
C1711 C1710 1.386 . S
C1711 C1715 1.393 . S
C1712 H1701 0.950 . S
C1712 C1710 1.391 . S
C1712 C1713 1.400 . S
C1713 C1707 1.491 . S
C1713 C1712 1.400 . S
C1713 C1714 1.398 . S
C1714 H1702 0.950 . S
C1714 C1713 1.398 . S
C1714 C1715 1.391 . S
C1715 H1703 0.950 . S
C1715 C1711 1.393 . S
C1715 C1714 1.391 . S
H1716 C1724 0.950 . S
H1717 C1729 0.950 . S
H1718 C1726 0.950 . S
H1719 C1728 0.950 . S
H1720 C1730 0.950 . S
H1721 C1732 0.950 . S
H1722 C1734 0.950 . S
H1723 C1735 0.950 . S
C1724 H1716 0.950 . S
C1724 C1725 1.386 . S
C1724 C1726 1.391 . S
C1725 C1724 1.386 . S
C1725 C1729 1.393 . S
C1726 H1718 0.950 . S
C1726 C1724 1.391 . S
C1726 C1727 1.400 . S
C1727 C1726 1.400 . S
C1727 C1728 1.398 . S
C1727 C1733 1.491 . S
C1728 H1719 0.950 . S
C1728 C1727 1.398 . S
C1728 C1729 1.391 . S
C1729 H1717 0.950 . S
C1729 C1725 1.393 . S
C1729 C1728 1.391 . S
C1730 H1720 0.950 . S
C1730 C1731 1.386 . S
C1730 C1732 1.391 . S
C1731 C1730 1.386 . S
C1731 C1735 1.393 . S
C1732 H1721 0.950 . S
C1732 C1730 1.391 . S
C1732 C1733 1.400 . S
C1733 C1727 1.491 . S
C1733 C1732 1.400 . S
C1733 C1734 1.398 . S
C1734 H1722 0.950 . S
C1734 C1733 1.398 . S
C1734 C1735 1.391 . S
C1735 H1723 0.950 . S
C1735 C1731 1.393 . S
C1735 C1734 1.391 . S
H1736 C1744 0.950 . S
H1737 C1749 0.950 . S
H1738 C1746 0.950 . S
H1739 C1748 0.950 . S
H1740 C1750 0.950 . S
H1741 C1752 0.950 . S
H1742 C1754 0.950 . S
H1743 C1755 0.950 . S
C1744 H1736 0.950 . S
C1744 C1745 1.386 1_455 S
C1744 C1746 1.391 . S
C1745 C1744 1.386 1_655 S
C1745 C1749 1.393 . S
C1746 H1738 0.950 . S
C1746 C1744 1.391 . S
C1746 C1747 1.400 1_455 S
C1747 C1746 1.400 1_655 S
C1747 C1748 1.398 . S
C1747 C1753 1.491 . S
C1748 H1739 0.950 . S
C1748 C1747 1.398 . S
C1748 C1749 1.391 . S
C1749 H1737 0.950 . S
C1749 C1745 1.393 . S
C1749 C1748 1.391 . S
C1750 H1740 0.950 . S
C1750 C1751 1.386 . S
C1750 C1752 1.391 . S
C1751 C1750 1.386 . S
C1751 C1755 1.393 1_655 S
C1752 H1741 0.950 . S
C1752 C1750 1.391 . S
C1752 C1753 1.400 . S
C1753 C1747 1.491 . S
C1753 C1752 1.400 . S
C1753 C1754 1.398 1_655 S
C1754 H1742 0.950 . S
C1754 C1753 1.398 1_455 S
C1754 C1755 1.391 . S
C1755 H1743 0.950 . S
C1755 C1751 1.393 1_455 S
C1755 C1754 1.391 . S
H1756 C1764 0.950 . S
H1757 C1769 0.950 . S
H1758 C1766 0.950 . S
H1759 C1768 0.950 . S
H1760 C1770 0.950 . S
H1761 C1772 0.950 . S
H1762 C1774 0.950 . S
H1763 C1775 0.950 . S
C1764 H1756 0.950 . S
C1764 C1765 1.386 . S
C1764 C1766 1.391 . S
C1765 C1764 1.386 . S
C1765 C1769 1.393 . S
C1766 H1758 0.950 . S
C1766 C1764 1.391 . S
C1766 C1767 1.400 . S
C1767 C1766 1.400 . S
C1767 C1768 1.398 . S
C1767 C1773 1.491 . S
C1768 H1759 0.950 . S
C1768 C1767 1.398 . S
C1768 C1769 1.391 . S
C1769 H1757 0.950 . S
C1769 C1765 1.393 . S
C1769 C1768 1.391 . S
C1770 H1760 0.950 . S
C1770 C1771 1.386 . S
C1770 C1772 1.391 . S
C1771 C1770 1.386 . S
C1771 C1775 1.393 . S
C1772 H1761 0.950 . S
C1772 C1770 1.391 . S
C1772 C1773 1.400 . S
C1773 C1767 1.491 . S
C1773 C1772 1.400 . S
C1773 C1774 1.398 . S
C1774 H1762 0.950 . S
C1774 C1773 1.398 . S
C1774 C1775 1.391 . S
C1775 H1763 0.950 . S
C1775 C1771 1.393 . S
C1775 C1774 1.391 . S
H1776 C1784 0.950 . S
H1777 C1789 0.950 . S
H1778 C1786 0.950 . S
H1779 C1788 0.950 . S
H1780 C1790 0.950 . S
H1781 C1792 0.950 . S
H1782 C1794 0.950 . S
H1783 C1795 0.950 . S
C1784 H1776 0.950 . S
C1784 C1785 1.386 . S
C1784 C1786 1.391 . S
C1785 C1784 1.386 . S
C1785 C1789 1.393 . S
C1786 H1778 0.950 . S
C1786 C1784 1.391 . S
C1786 C1787 1.400 . S
C1787 C1786 1.400 . S
C1787 C1788 1.398 . S
C1787 C1793 1.491 . S
C1788 H1779 0.950 . S
C1788 C1787 1.398 . S
C1788 C1789 1.391 . S
C1789 H1777 0.950 . S
C1789 C1785 1.393 . S
C1789 C1788 1.391 . S
C1790 H1780 0.950 . S
C1790 C1791 1.386 . S
C1790 C1792 1.391 . S
C1791 C1790 1.386 . S
C1791 C1795 1.393 . S
C1792 H1781 0.950 . S
C1792 C1790 1.391 . S
C1792 C1793 1.400 . S
C1793 C1787 1.491 . S
C1793 C1792 1.400 . S
C1793 C1794 1.398 . S
C1794 H1782 0.950 . S
C1794 C1793 1.398 . S
C1794 C1795 1.391 . S
C1795 H1783 0.950 . S
C1795 C1791 1.393 . S
C1795 C1794 1.391 . S
H1796 C1804 0.950 . S
H1797 C1809 0.950 . S
H1798 C1806 0.950 . S
H1799 C1808 0.950 . S
H1800 C1810 0.950 . S
H1801 C1812 0.950 . S
H1802 C1814 0.950 . S
H1803 C1815 0.950 . S
C1804 H1796 0.950 . S
C1804 C1805 1.386 . S
C1804 C1806 1.391 . S
C1805 C1804 1.386 . S
C1805 C1809 1.393 . S
C1806 H1798 0.950 . S
C1806 C1804 1.391 . S
C1806 C1807 1.400 . S
C1807 C1806 1.400 . S
C1807 C1808 1.398 . S
C1807 C1813 1.491 . S
C1808 H1799 0.950 . S
C1808 C1807 1.398 . S
C1808 C1809 1.391 . S
C1809 H1797 0.950 . S
C1809 C1805 1.393 . S
C1809 C1808 1.391 . S
C1810 H1800 0.950 . S
C1810 C1811 1.386 . S
C1810 C1812 1.391 . S
C1811 C1810 1.386 . S
C1811 C1815 1.393 . S
C1812 H1801 0.950 . S
C1812 C1810 1.391 . S
C1812 C1813 1.400 . S
C1813 C1807 1.491 . S
C1813 C1812 1.400 . S
C1813 C1814 1.398 . S
C1814 H1802 0.950 . S
C1814 C1813 1.398 . S
C1814 C1815 1.391 . S
C1815 H1803 0.950 . S
C1815 C1811 1.393 . S
C1815 C1814 1.391 . S
H1816 C1824 0.950 . S
H1817 C1829 0.950 . S
H1818 C1826 0.950 . S
H1819 C1828 0.950 . S
H1820 C1830 0.950 . S
H1821 C1832 0.950 . S
H1822 C1834 0.950 . S
H1823 C1835 0.950 . S
C1824 H1816 0.950 . S
C1824 C1825 1.386 . S
C1824 C1826 1.391 . S
C1825 C1824 1.386 . S
C1825 C1829 1.393 . S
C1826 H1818 0.950 . S
C1826 C1824 1.391 . S
C1826 C1827 1.400 . S
C1827 C1826 1.400 . S
C1827 C1828 1.398 . S
C1827 C1833 1.491 . S
C1828 H1819 0.950 . S
C1828 C1827 1.398 . S
C1828 C1829 1.391 . S
C1829 H1817 0.950 . S
C1829 C1825 1.393 . S
C1829 C1828 1.391 . S
C1830 H1820 0.950 . S
C1830 C1831 1.386 . S
C1830 C1832 1.391 . S
C1831 C1830 1.386 . S
C1831 C1835 1.393 . S
C1832 H1821 0.950 . S
C1832 C1830 1.391 . S
C1832 C1833 1.400 . S
C1833 C1827 1.491 . S
C1833 C1832 1.400 . S
C1833 C1834 1.398 . S
C1834 H1822 0.950 . S
C1834 C1833 1.398 . S
C1834 C1835 1.391 . S
C1835 H1823 0.950 . S
C1835 C1831 1.393 . S
C1835 C1834 1.391 . S
H1836 C1844 0.950 . S
H1837 C1849 0.950 . S
H1838 C1846 0.950 . S
H1839 C1848 0.950 . S
H1840 C1850 0.950 . S
H1841 C1852 0.950 . S
H1842 C1854 0.950 . S
H1843 C1855 0.950 . S
C1844 H1836 0.950 . S
C1844 C1845 1.386 . S
C1844 C1846 1.391 . S
C1845 C1844 1.386 . S
C1845 C1849 1.393 . S
C1846 H1838 0.950 . S
C1846 C1844 1.391 . S
C1846 C1847 1.400 . S
C1847 C1846 1.400 . S
C1847 C1848 1.398 . S
C1847 C1853 1.491 . S
C1848 H1839 0.950 . S
C1848 C1847 1.398 . S
C1848 C1849 1.391 . S
C1849 H1837 0.950 . S
C1849 C1845 1.393 . S
C1849 C1848 1.391 . S
C1850 H1840 0.950 . S
C1850 C1851 1.386 . S
C1850 C1852 1.391 . S
C1851 C1850 1.386 . S
C1851 C1855 1.393 . S
C1852 H1841 0.950 . S
C1852 C1850 1.391 . S
C1852 C1853 1.400 . S
C1853 C1847 1.491 . S
C1853 C1852 1.400 . S
C1853 C1854 1.398 . S
C1854 H1842 0.950 . S
C1854 C1853 1.398 . S
C1854 C1855 1.391 . S
C1855 H1843 0.950 . S
C1855 C1851 1.393 . S
C1855 C1854 1.391 . S
H1856 C1864 0.950 . S
H1857 C1869 0.950 . S
H1858 C1866 0.950 . S
H1859 C1868 0.950 . S
H1860 C1870 0.950 . S
H1861 C1872 0.950 . S
H1862 C1874 0.950 . S
H1863 C1875 0.950 . S
C1864 H1856 0.950 . S
C1864 C1865 1.386 . S
C1864 C1866 1.391 . S
C1865 C1864 1.386 . S
C1865 C1869 1.393 . S
C1866 H1858 0.950 . S
C1866 C1864 1.391 . S
C1866 C1867 1.400 . S
C1867 C1866 1.400 . S
C1867 C1868 1.398 . S
C1867 C1873 1.491 . S
C1868 H1859 0.950 . S
C1868 C1867 1.398 . S
C1868 C1869 1.391 . S
C1869 H1857 0.950 . S
C1869 C1865 1.393 . S
C1869 C1868 1.391 . S
C1870 H1860 0.950 . S
C1870 C1871 1.386 . S
C1870 C1872 1.391 . S
C1871 C1870 1.386 . S
C1871 C1875 1.393 . S
C1872 H1861 0.950 . S
C1872 C1870 1.391 . S
C1872 C1873 1.400 . S
C1873 C1867 1.491 . S
C1873 C1872 1.400 . S
C1873 C1874 1.398 . S
C1874 H1862 0.950 . S
C1874 C1873 1.398 . S
C1874 C1875 1.391 . S
C1875 H1863 0.950 . S
C1875 C1871 1.393 . S
C1875 C1874 1.391 . S
H1876 C1884 0.950 . S
H1877 C1889 0.950 . S
H1878 C1886 0.950 . S
H1879 C1888 0.950 . S
H1880 C1890 0.950 . S
H1881 C1892 0.950 . S
H1882 C1894 0.950 . S
H1883 C1895 0.950 . S
C1884 H1876 0.950 . S
C1884 C1885 1.386 . S
C1884 C1886 1.391 . S
C1885 C1884 1.386 . S
C1885 C1889 1.393 . S
C1886 H1878 0.950 . S
C1886 C1884 1.391 . S
C1886 C1887 1.400 . S
C1887 C1886 1.400 . S
C1887 C1888 1.398 . S
C1887 C1893 1.491 . S
C1888 H1879 0.950 . S
C1888 C1887 1.398 . S
C1888 C1889 1.391 . S
C1889 H1877 0.950 . S
C1889 C1885 1.393 . S
C1889 C1888 1.391 . S
C1890 H1880 0.950 . S
C1890 C1891 1.386 . S
C1890 C1892 1.391 . S
C1891 C1890 1.386 . S
C1891 C1895 1.393 . S
C1892 H1881 0.950 . S
C1892 C1890 1.391 . S
C1892 C1893 1.400 . S
C1893 C1887 1.491 . S
C1893 C1892 1.400 . S
C1893 C1894 1.398 . S
C1894 H1882 0.950 . S
C1894 C1893 1.398 . S
C1894 C1895 1.391 . S
C1895 H1883 0.950 . S
C1895 C1891 1.393 . S
C1895 C1894 1.391 . S
H1896 C1904 0.950 . S
H1897 C1909 0.950 . S
H1898 C1906 0.950 . S
H1899 C1908 0.950 . S
H1900 C1910 0.950 . S
H1901 C1912 0.950 . S
H1902 C1914 0.950 . S
H1903 C1915 0.950 . S
C1904 H1896 0.950 . S
C1904 C1905 1.386 . S
C1904 C1906 1.391 . S
C1905 C1904 1.386 . S
C1905 C1909 1.393 . S
C1906 H1898 0.950 . S
C1906 C1904 1.391 . S
C1906 C1907 1.400 . S
C1907 C1906 1.400 . S
C1907 C1908 1.398 . S
C1907 C1913 1.491 . S
C1908 H1899 0.950 . S
C1908 C1907 1.398 . S
C1908 C1909 1.391 . S
C1909 H1897 0.950 . S
C1909 C1905 1.393 . S
C1909 C1908 1.391 . S
C1910 H1900 0.950 . S
C1910 C1911 1.386 . S
C1910 C1912 1.391 . S
C1911 C1910 1.386 . S
C1911 C1915 1.393 . S
C1912 H1901 0.950 . S
C1912 C1910 1.391 . S
C1912 C1913 1.400 . S
C1913 C1907 1.491 . S
C1913 C1912 1.400 . S
C1913 C1914 1.398 . S
C1914 H1902 0.950 . S
C1914 C1913 1.398 . S
C1914 C1915 1.391 . S
C1915 H1903 0.950 . S
C1915 C1911 1.393 . S
C1915 C1914 1.391 . S
H1916 C1924 0.950 . S
H1917 C1929 0.950 . S
H1918 C1926 0.950 . S
H1919 C1928 0.950 . S
H1920 C1930 0.950 . S
H1921 C1932 0.950 . S
H1922 C1934 0.950 . S
H1923 C1935 0.950 . S
C1924 H1916 0.950 . S
C1924 C1925 1.386 . S
C1924 C1926 1.391 . S
C1925 C1924 1.386 . S
C1925 C1929 1.393 . S
C1926 H1918 0.950 . S
C1926 C1924 1.391 . S
C1926 C1927 1.400 . S
C1927 C1926 1.400 . S
C1927 C1928 1.398 . S
C1927 C1933 1.491 . S
C1928 H1919 0.950 . S
C1928 C1927 1.398 . S
C1928 C1929 1.391 . S
C1929 H1917 0.950 . S
C1929 C1925 1.393 . S
C1929 C1928 1.391 . S
C1930 H1920 0.950 . S
C1930 C1931 1.386 . S
C1930 C1932 1.391 . S
C1931 C1930 1.386 . S
C1931 C1935 1.393 . S
C1932 H1921 0.950 . S
C1932 C1930 1.391 . S
C1932 C1933 1.400 . S
C1933 C1927 1.491 . S
C1933 C1932 1.400 . S
C1933 C1934 1.398 . S
C1934 H1922 0.950 . S
C1934 C1933 1.398 . S
C1934 C1935 1.391 . S
C1935 H1923 0.950 . S
C1935 C1931 1.393 . S
C1935 C1934 1.391 . S
H1936 C1944 0.950 . S
H1937 C1949 0.950 . S
H1938 C1946 0.950 . S
H1939 C1948 0.950 . S
H1940 C1950 0.950 . S
H1941 C1952 0.950 . S
H1942 C1954 0.950 . S
H1943 C1955 0.950 . S
C1944 H1936 0.950 . S
C1944 C1945 1.386 . S
C1944 C1946 1.391 . S
C1945 C1944 1.386 . S
C1945 C1949 1.393 . S
C1946 H1938 0.950 . S
C1946 C1944 1.391 . S
C1946 C1947 1.400 . S
C1947 C1946 1.400 . S
C1947 C1948 1.398 . S
C1947 C1953 1.491 . S
C1948 H1939 0.950 . S
C1948 C1947 1.398 . S
C1948 C1949 1.391 . S
C1949 H1937 0.950 . S
C1949 C1945 1.393 . S
C1949 C1948 1.391 . S
C1950 H1940 0.950 . S
C1950 C1951 1.386 . S
C1950 C1952 1.391 . S
C1951 C1950 1.386 . S
C1951 C1955 1.393 . S
C1952 H1941 0.950 . S
C1952 C1950 1.391 . S
C1952 C1953 1.400 . S
C1953 C1947 1.491 . S
C1953 C1952 1.400 . S
C1953 C1954 1.398 . S
C1954 H1942 0.950 . S
C1954 C1953 1.398 . S
C1954 C1955 1.391 . S
C1955 H1943 0.950 . S
C1955 C1951 1.393 . S
C1955 C1954 1.391 . S
H1956 C1964 0.950 . S
H1957 C1969 0.950 . S
H1958 C1966 0.950 . S
H1959 C1968 0.950 . S
H1960 C1970 0.950 . S
H1961 C1972 0.950 . S
H1962 C1974 0.950 . S
H1963 C1975 0.950 . S
C1964 H1956 0.950 . S
C1964 C1965 1.386 . S
C1964 C1966 1.391 . S
C1965 C1964 1.386 . S
C1965 C1969 1.393 . S
C1966 H1958 0.950 . S
C1966 C1964 1.391 . S
C1966 C1967 1.400 . S
C1967 C1966 1.400 . S
C1967 C1968 1.398 . S
C1967 C1973 1.491 . S
C1968 H1959 0.950 . S
C1968 C1967 1.398 . S
C1968 C1969 1.391 . S
C1969 H1957 0.950 . S
C1969 C1965 1.393 . S
C1969 C1968 1.391 . S
C1970 H1960 0.950 . S
C1970 C1971 1.386 . S
C1970 C1972 1.391 . S
C1971 C1970 1.386 . S
C1971 C1975 1.393 . S
C1972 H1961 0.950 . S
C1972 C1970 1.391 . S
C1972 C1973 1.400 . S
C1973 C1967 1.491 . S
C1973 C1972 1.400 . S
C1973 C1974 1.398 . S
C1974 H1962 0.950 . S
C1974 C1973 1.398 . S
C1974 C1975 1.391 . S
C1975 H1963 0.950 . S
C1975 C1971 1.393 . S
C1975 C1974 1.391 . S
H1976 C1984 0.950 . S
H1977 C1989 0.950 . S
H1978 C1986 0.950 . S
H1979 C1988 0.950 . S
H1980 C1990 0.950 . S
H1981 C1992 0.950 . S
H1982 C1994 0.950 . S
H1983 C1995 0.950 . S
C1984 H1976 0.950 . S
C1984 C1985 1.386 . S
C1984 C1986 1.391 . S
C1985 C1984 1.386 . S
C1985 C1989 1.393 . S
C1986 H1978 0.950 . S
C1986 C1984 1.391 . S
C1986 C1987 1.400 . S
C1987 C1986 1.400 . S
C1987 C1988 1.398 . S
C1987 C1993 1.491 . S
C1988 H1979 0.950 . S
C1988 C1987 1.398 . S
C1988 C1989 1.391 . S
C1989 H1977 0.950 . S
C1989 C1985 1.393 . S
C1989 C1988 1.391 . S
C1990 H1980 0.950 . S
C1990 C1991 1.386 . S
C1990 C1992 1.391 . S
C1991 C1990 1.386 . S
C1991 C1995 1.393 . S
C1992 H1981 0.950 . S
C1992 C1990 1.391 . S
C1992 C1993 1.400 . S
C1993 C1987 1.491 . S
C1993 C1992 1.400 . S
C1993 C1994 1.398 . S
C1994 H1982 0.950 . S
C1994 C1993 1.398 . S
C1994 C1995 1.391 . S
C1995 H1983 0.950 . S
C1995 C1991 1.393 . S
C1995 C1994 1.391 . S
H1996 C2004 0.960 . S
H1997 C2009 0.950 . S
H1998 C2006 0.950 1_556 S
H1999 C2008 0.950 . S
H2000 C2010 0.950 . S
H2001 C2012 0.950 . S
H2002 C2014 0.950 1_556 S
H2003 C2015 0.950 1_556 S
C2004 H1996 0.960 . S
C2004 C2005 1.386 . S
C2004 C2006 1.391 . S
C2005 C2004 1.386 . S
C2005 C2009 1.393 . S
C2006 H1998 0.950 1_554 S
C2006 C2004 1.391 . S
C2006 C2007 1.400 . S
C2007 C2006 1.400 . S
C2007 C2008 1.398 . S
C2007 C2013 1.491 . S
C2008 H1999 0.950 . S
C2008 C2007 1.398 . S
C2008 C2009 1.391 . S
C2009 H1997 0.950 . S
C2009 C2005 1.393 . S
C2009 C2008 1.391 . S
C2010 H2000 0.950 . S
C2010 C2011 1.386 1_565 S
C2010 C2012 1.391 . S
C2011 C2010 1.386 1_545 S
C2011 C2015 1.393 . S
C2012 H2001 0.950 . S
C2012 C2010 1.391 . S
C2012 C2013 1.400 . S
C2013 C2007 1.491 . S
C2013 C2012 1.400 . S
C2013 C2014 1.398 . S
C2014 H2002 0.950 1_554 S
C2014 C2013 1.398 . S
C2014 C2015 1.391 1_565 S
C2015 H2003 0.950 1_554 S
C2015 C2011 1.393 . S
C2015 C2014 1.391 1_545 S
H2016 C2024 0.950 . S
H2017 C2029 0.950 . S
H2018 C2026 0.950 . S
H2019 C2028 0.950 . S
H2020 C2030 0.950 . S
H2021 C2032 0.950 . S
H2022 C2034 0.950 . S
H2023 C2035 0.950 . S
C2024 H2016 0.950 . S
C2024 C2025 1.386 . S
C2024 C2026 1.391 . S
C2025 C2024 1.386 . S
C2025 C2029 1.393 . S
C2026 H2018 0.950 . S
C2026 C2024 1.391 . S
C2026 C2027 1.400 . S
C2027 C2026 1.400 . S
C2027 C2028 1.398 . S
C2027 C2033 1.491 . S
C2028 H2019 0.950 . S
C2028 C2027 1.398 . S
C2028 C2029 1.391 . S
C2029 H2017 0.950 . S
C2029 C2025 1.393 . S
C2029 C2028 1.391 . S
C2030 H2020 0.950 . S
C2030 C2031 1.386 . S
C2030 C2032 1.391 . S
C2031 C2030 1.386 . S
C2031 C2035 1.393 . S
C2032 H2021 0.950 . S
C2032 C2030 1.391 . S
C2032 C2033 1.400 . S
C2033 C2027 1.491 . S
C2033 C2032 1.400 . S
C2033 C2034 1.398 . S
C2034 H2022 0.950 . S
C2034 C2033 1.398 . S
C2034 C2035 1.391 . S
C2035 H2023 0.950 . S
C2035 C2031 1.393 . S
C2035 C2034 1.391 . S
H2036 C2044 0.950 1_556 S
H2037 C2049 0.950 . S
H2038 C2046 0.950 . S
H2039 C2048 0.950 . S
H2040 C2050 0.950 . S
H2041 C2052 0.950 . S
H2042 C2054 0.950 . S
H2043 C2055 0.950 . S
C2044 H2036 0.950 1_554 S
C2044 C2045 1.386 . S
C2044 C2046 1.391 . S
C2045 C2044 1.386 . S
C2045 C2049 1.393 . S
C2046 H2038 0.950 . S
C2046 C2044 1.391 . S
C2046 C2047 1.400 . S
C2047 C2046 1.400 . S
C2047 C2048 1.398 . S
C2047 C2053 1.491 . S
C2048 H2039 0.950 . S
C2048 C2047 1.398 . S
C2048 C2049 1.391 . S
C2049 H2037 0.950 . S
C2049 C2045 1.393 . S
C2049 C2048 1.391 . S
C2050 H2040 0.950 . S
C2050 C2051 1.386 . S
C2050 C2052 1.391 . S
C2051 C2050 1.386 . S
C2051 C2055 1.393 . S
C2052 H2041 0.950 . S
C2052 C2050 1.391 . S
C2052 C2053 1.400 . S
C2053 C2047 1.491 . S
C2053 C2052 1.400 . S
C2053 C2054 1.398 . S
C2054 H2042 0.950 . S
C2054 C2053 1.398 . S
C2054 C2055 1.391 . S
C2055 H2043 0.950 . S
C2055 C2051 1.393 . S
C2055 C2054 1.391 . S
H2056 C2064 0.950 . S
H2057 C2069 0.950 . S
H2058 C2066 0.950 . S
H2059 C2068 0.950 . S
H2060 C2070 0.950 . S
H2061 C2072 0.950 . S
H2062 C2074 0.950 . S
H2063 C2075 0.950 . S
C2064 H2056 0.950 . S
C2064 C2065 1.386 . S
C2064 C2066 1.391 . S
C2065 C2064 1.386 . S
C2065 C2069 1.393 . S
C2066 H2058 0.950 . S
C2066 C2064 1.391 . S
C2066 C2067 1.400 . S
C2067 C2066 1.400 . S
C2067 C2068 1.398 . S
C2067 C2073 1.491 . S
C2068 H2059 0.950 . S
C2068 C2067 1.398 . S
C2068 C2069 1.391 . S
C2069 H2057 0.950 . S
C2069 C2065 1.393 . S
C2069 C2068 1.391 . S
C2070 H2060 0.950 . S
C2070 C2071 1.386 . S
C2070 C2072 1.391 . S
C2071 C2070 1.386 . S
C2071 C2075 1.393 . S
C2072 H2061 0.950 . S
C2072 C2070 1.391 . S
C2072 C2073 1.400 . S
C2073 C2067 1.491 . S
C2073 C2072 1.400 . S
C2073 C2074 1.398 . S
C2074 H2062 0.950 . S
C2074 C2073 1.398 . S
C2074 C2075 1.391 . S
C2075 H2063 0.950 . S
C2075 C2071 1.393 . S
C2075 C2074 1.391 . S
H2076 C2084 0.950 . S
H2077 C2089 0.950 . S
H2078 C2086 0.950 . S
H2079 C2088 0.950 . S
H2080 C2090 0.950 . S
H2081 C2092 0.950 . S
H2082 C2094 0.950 . S
H2083 C2095 0.950 . S
C2084 H2076 0.950 . S
C2084 C2085 1.386 . S
C2084 C2086 1.391 . S
C2085 C2084 1.386 . S
C2085 C2089 1.393 . S
C2086 H2078 0.950 . S
C2086 C2084 1.391 . S
C2086 C2087 1.400 . S
C2087 C2086 1.400 . S
C2087 C2088 1.398 . S
C2087 C2093 1.491 . S
C2088 H2079 0.950 . S
C2088 C2087 1.398 . S
C2088 C2089 1.391 . S
C2089 H2077 0.950 . S
C2089 C2085 1.393 . S
C2089 C2088 1.391 . S
C2090 H2080 0.950 . S
C2090 C2091 1.386 . S
C2090 C2092 1.391 . S
C2091 C2090 1.386 . S
C2091 C2095 1.393 . S
C2092 H2081 0.950 . S
C2092 C2090 1.391 . S
C2092 C2093 1.400 . S
C2093 C2087 1.491 . S
C2093 C2092 1.400 . S
C2093 C2094 1.398 . S
C2094 H2082 0.950 . S
C2094 C2093 1.398 . S
C2094 C2095 1.391 . S
C2095 H2083 0.950 . S
C2095 C2091 1.393 . S
C2095 C2094 1.391 . S
H2096 C2104 0.950 . S
H2097 C2109 0.950 . S
H2098 C2106 0.950 . S
H2099 C2108 0.950 . S
H2100 C2110 0.950 . S
H2101 C2112 0.950 . S
H2102 C2114 0.950 . S
H2103 C2115 0.950 . S
C2104 H2096 0.950 . S
C2104 C2105 1.386 . S
C2104 C2106 1.391 . S
C2105 C2104 1.386 . S
C2105 C2109 1.393 . S
C2106 H2098 0.950 . S
C2106 C2104 1.391 . S
C2106 C2107 1.400 . S
C2107 C2106 1.400 . S
C2107 C2108 1.398 . S
C2107 C2113 1.491 . S
C2108 H2099 0.950 . S
C2108 C2107 1.398 . S
C2108 C2109 1.391 . S
C2109 H2097 0.950 . S
C2109 C2105 1.393 . S
C2109 C2108 1.391 . S
C2110 H2100 0.950 . S
C2110 C2111 1.386 . S
C2110 C2112 1.391 . S
C2111 C2110 1.386 . S
C2111 C2115 1.393 . S
C2112 H2101 0.950 . S
C2112 C2110 1.391 . S
C2112 C2113 1.400 . S
C2113 C2107 1.491 . S
C2113 C2112 1.400 . S
C2113 C2114 1.398 . S
C2114 H2102 0.950 . S
C2114 C2113 1.398 . S
C2114 C2115 1.391 . S
C2115 H2103 0.950 . S
C2115 C2111 1.393 . S
C2115 C2114 1.391 . S
H2116 C2124 0.950 . S
H2117 C2129 0.950 . S
H2118 C2126 0.950 . S
H2119 C2128 0.950 . S
H2120 C2130 0.950 . S
H2121 C2132 0.950 . S
H2122 C2134 0.950 . S
H2123 C2135 0.950 . S
C2124 H2116 0.950 . S
C2124 C2125 1.386 . S
C2124 C2126 1.391 . S
C2125 C2124 1.386 . S
C2125 C2129 1.393 . S
C2126 H2118 0.950 . S
C2126 C2124 1.391 . S
C2126 C2127 1.400 . S
C2127 C2126 1.400 . S
C2127 C2128 1.398 . S
C2127 C2133 1.491 . S
C2128 H2119 0.950 . S
C2128 C2127 1.398 . S
C2128 C2129 1.391 . S
C2129 H2117 0.950 . S
C2129 C2125 1.393 . S
C2129 C2128 1.391 . S
C2130 H2120 0.950 . S
C2130 C2131 1.386 . S
C2130 C2132 1.391 . S
C2131 C2130 1.386 . S
C2131 C2135 1.393 . S
C2132 H2121 0.950 . S
C2132 C2130 1.391 . S
C2132 C2133 1.400 . S
C2133 C2127 1.491 . S
C2133 C2132 1.400 . S
C2133 C2134 1.398 . S
C2134 H2122 0.950 . S
C2134 C2133 1.398 . S
C2134 C2135 1.391 . S
C2135 H2123 0.950 . S
C2135 C2131 1.393 . S
C2135 C2134 1.391 . S
H2136 C2144 0.950 . S
H2137 C2149 0.950 . S
H2138 C2146 0.950 . S
H2139 C2148 0.950 . S
H2140 C2150 0.950 . S
H2141 C2152 0.950 . S
H2142 C2154 0.950 . S
H2143 C2155 0.950 . S
C2144 H2136 0.950 . S
C2144 C2145 1.386 . S
C2144 C2146 1.391 . S
C2145 C2144 1.386 . S
C2145 C2149 1.393 1_455 S
C2146 H2138 0.950 . S
C2146 C2144 1.391 . S
C2146 C2147 1.400 . S
C2147 C2146 1.400 . S
C2147 C2148 1.398 1_455 S
C2147 C2153 1.491 . S
C2148 H2139 0.950 . S
C2148 C2147 1.398 1_655 S
C2148 C2149 1.391 . S
C2149 H2137 0.950 . S
C2149 C2145 1.393 1_655 S
C2149 C2148 1.391 . S
C2150 H2140 0.950 . S
C2150 C2151 1.386 1_655 S
C2150 C2152 1.391 . S
C2151 C2150 1.386 1_455 S
C2151 C2155 1.393 . S
C2152 H2141 0.950 . S
C2152 C2150 1.391 . S
C2152 C2153 1.400 1_655 S
C2153 C2147 1.491 . S
C2153 C2152 1.400 1_455 S
C2153 C2154 1.398 . S
C2154 H2142 0.950 . S
C2154 C2153 1.398 . S
C2154 C2155 1.391 . S
C2155 H2143 0.950 . S
C2155 C2151 1.393 . S
C2155 C2154 1.391 . S
H2156 C2164 0.950 . S
H2157 C2169 0.950 . S
H2158 C2166 0.950 . S
H2159 C2168 0.950 . S
H2160 C2170 0.950 . S
H2161 C2172 0.950 . S
H2162 C2174 0.950 . S
H2163 C2175 0.950 . S
C2164 H2156 0.950 . S
C2164 C2165 1.386 . S
C2164 C2166 1.391 . S
C2165 C2164 1.386 . S
C2165 C2169 1.393 . S
C2166 H2158 0.950 . S
C2166 C2164 1.391 . S
C2166 C2167 1.400 . S
C2167 C2166 1.400 . S
C2167 C2168 1.398 . S
C2167 C2173 1.491 . S
C2168 H2159 0.950 . S
C2168 C2167 1.398 . S
C2168 C2169 1.391 . S
C2169 H2157 0.950 . S
C2169 C2165 1.393 . S
C2169 C2168 1.391 . S
C2170 H2160 0.950 . S
C2170 C2171 1.386 . S
C2170 C2172 1.391 . S
C2171 C2170 1.386 . S
C2171 C2175 1.393 . S
C2172 H2161 0.950 . S
C2172 C2170 1.391 . S
C2172 C2173 1.400 . S
C2173 C2167 1.491 . S
C2173 C2172 1.400 . S
C2173 C2174 1.398 . S
C2174 H2162 0.950 . S
C2174 C2173 1.398 . S
C2174 C2175 1.391 . S
C2175 H2163 0.950 . S
C2175 C2171 1.393 . S
C2175 C2174 1.391 . S
H2176 C2184 0.950 . S
H2177 C2189 0.950 . S
H2178 C2186 0.950 . S
H2179 C2188 0.950 . S
H2180 C2190 0.950 . S
H2181 C2192 0.950 . S
H2182 C2194 0.950 . S
H2183 C2195 0.950 1_554 S
C2184 H2176 0.950 . S
C2184 C2185 1.386 . S
C2184 C2186 1.391 . S
C2185 C2184 1.386 . S
C2185 C2189 1.393 . S
C2186 H2178 0.950 . S
C2186 C2184 1.391 . S
C2186 C2187 1.400 . S
C2187 C2186 1.400 . S
C2187 C2188 1.398 . S
C2187 C2193 1.491 . S
C2188 H2179 0.950 . S
C2188 C2187 1.398 . S
C2188 C2189 1.391 . S
C2189 H2177 0.950 . S
C2189 C2185 1.393 . S
C2189 C2188 1.391 . S
C2190 H2180 0.950 . S
C2190 C2191 1.386 . S
C2190 C2192 1.391 . S
C2191 C2190 1.386 . S
C2191 C2195 1.393 . S
C2192 H2181 0.950 . S
C2192 C2190 1.391 . S
C2192 C2193 1.400 . S
C2193 C2187 1.491 . S
C2193 C2192 1.400 . S
C2193 C2194 1.398 . S
C2194 H2182 0.950 . S
C2194 C2193 1.398 . S
C2194 C2195 1.391 . S
C2195 H2183 0.950 1_556 S
C2195 C2191 1.393 . S
C2195 C2194 1.391 . S
H2196 C2204 0.950 . S
H2197 C2209 0.950 . S
H2198 C2206 0.950 . S
H2199 C2208 0.950 . S
H2200 C2210 0.950 . S
H2201 C2212 0.950 . S
H2202 C2214 0.950 . S
H2203 C2215 0.950 . S
C2204 H2196 0.950 . S
C2204 C2205 1.386 . S
C2204 C2206 1.391 . S
C2205 C2204 1.386 . S
C2205 C2209 1.393 . S
C2206 H2198 0.950 . S
C2206 C2204 1.391 . S
C2206 C2207 1.400 . S
C2207 C2206 1.400 . S
C2207 C2208 1.398 . S
C2207 C2213 1.491 . S
C2208 H2199 0.950 . S
C2208 C2207 1.398 . S
C2208 C2209 1.391 . S
C2209 H2197 0.950 . S
C2209 C2205 1.393 . S
C2209 C2208 1.391 . S
C2210 H2200 0.950 . S
C2210 C2211 1.386 . S
C2210 C2212 1.391 . S
C2211 C2210 1.386 . S
C2211 C2215 1.393 . S
C2212 H2201 0.950 . S
C2212 C2210 1.391 . S
C2212 C2213 1.400 . S
C2213 C2207 1.491 . S
C2213 C2212 1.400 . S
C2213 C2214 1.398 . S
C2214 H2202 0.950 . S
C2214 C2213 1.398 . S
C2214 C2215 1.391 . S
C2215 H2203 0.950 . S
C2215 C2211 1.393 . S
C2215 C2214 1.391 . S
H2216 C2224 0.950 1_655 S
H2217 C2229 0.950 . S
H2218 C2226 0.950 1_655 S
H2219 C2228 0.950 . S
H2220 C2230 0.950 . S
H2221 C2232 0.950 . S
H2222 C2234 0.949 . S
H2223 C2235 0.950 . S
C2224 H2216 0.950 1_455 S
C2224 C2225 1.386 . S
C2224 C2226 1.391 . S
C2225 C2224 1.386 . S
C2225 C2229 1.393 . S
C2226 H2218 0.950 1_455 S
C2226 C2224 1.391 . S
C2226 C2227 1.400 . S
C2227 C2226 1.400 . S
C2227 C2228 1.398 . S
C2227 C2233 1.491 . S
C2228 H2219 0.950 . S
C2228 C2227 1.398 . S
C2228 C2229 1.391 . S
C2229 H2217 0.950 . S
C2229 C2225 1.393 . S
C2229 C2228 1.391 . S
C2230 H2220 0.950 . S
C2230 C2231 1.386 . S
C2230 C2232 1.391 . S
C2231 C2230 1.386 . S
C2231 C2235 1.393 1_455 S
C2232 H2221 0.950 . S
C2232 C2230 1.391 . S
C2232 C2233 1.400 . S
C2233 C2227 1.491 . S
C2233 C2232 1.400 . S
C2233 C2234 1.399 1_455 S
C2234 H2222 0.949 . S
C2234 C2233 1.399 1_655 S
C2234 C2235 1.390 . S
C2235 H2223 0.950 . S
C2235 C2231 1.393 1_655 S
C2235 C2234 1.390 . S
H2236 C2244 0.950 . S
H2237 C2249 0.950 . S
H2238 C2246 0.950 . S
H2239 C2248 0.950 . S
H2240 C2250 0.950 . S
H2241 C2252 0.950 . S
H2242 C2254 0.950 . S
H2243 C2255 0.950 . S
C2244 H2236 0.950 . S
C2244 C2245 1.386 . S
C2244 C2246 1.391 . S
C2245 C2244 1.386 . S
C2245 C2249 1.393 . S
C2246 H2238 0.950 . S
C2246 C2244 1.391 . S
C2246 C2247 1.400 . S
C2247 C2246 1.400 . S
C2247 C2248 1.398 . S
C2247 C2253 1.491 . S
C2248 H2239 0.950 . S
C2248 C2247 1.398 . S
C2248 C2249 1.391 . S
C2249 H2237 0.950 . S
C2249 C2245 1.393 . S
C2249 C2248 1.391 . S
C2250 H2240 0.950 . S
C2250 C2251 1.386 . S
C2250 C2252 1.391 . S
C2251 C2250 1.386 . S
C2251 C2255 1.393 . S
C2252 H2241 0.950 . S
C2252 C2250 1.391 . S
C2252 C2253 1.400 . S
C2253 C2247 1.491 . S
C2253 C2252 1.400 . S
C2253 C2254 1.398 . S
C2254 H2242 0.950 . S
C2254 C2253 1.398 . S
C2254 C2255 1.391 . S
C2255 H2243 0.950 . S
C2255 C2251 1.393 . S
C2255 C2254 1.391 . S
H2256 C2264 0.950 . S
H2257 C2269 0.950 . S
H2258 C2266 0.950 . S
H2259 C2268 0.950 . S
H2260 C2270 0.950 . S
H2261 C2272 0.950 . S
H2262 C2274 0.950 . S
H2263 C2275 0.950 . S
C2264 H2256 0.950 . S
C2264 C2265 1.386 . S
C2264 C2266 1.391 . S
C2265 C2264 1.386 . S
C2265 C2269 1.393 . S
C2266 H2258 0.950 . S
C2266 C2264 1.391 . S
C2266 C2267 1.400 . S
C2267 C2266 1.400 . S
C2267 C2268 1.398 . S
C2267 C2273 1.491 . S
C2268 H2259 0.950 . S
C2268 C2267 1.398 . S
C2268 C2269 1.391 . S
C2269 H2257 0.950 . S
C2269 C2265 1.393 . S
C2269 C2268 1.391 . S
C2270 H2260 0.950 . S
C2270 C2271 1.386 . S
C2270 C2272 1.391 . S
C2271 C2270 1.386 . S
C2271 C2275 1.393 . S
C2272 H2261 0.950 . S
C2272 C2270 1.391 . S
C2272 C2273 1.400 . S
C2273 C2267 1.491 . S
C2273 C2272 1.400 . S
C2273 C2274 1.398 . S
C2274 H2262 0.950 . S
C2274 C2273 1.398 . S
C2274 C2275 1.391 . S
C2275 H2263 0.950 . S
C2275 C2271 1.393 . S
C2275 C2274 1.391 . S
H2276 C2284 0.950 . S
H2277 C2289 0.950 . S
H2278 C2286 0.950 . S
H2279 C2288 0.950 . S
H2280 C2290 0.950 . S
H2281 C2292 0.950 . S
H2282 C2294 0.950 . S
H2283 C2295 0.950 . S
C2284 H2276 0.950 . S
C2284 C2285 1.386 . S
C2284 C2286 1.391 . S
C2285 C2284 1.386 . S
C2285 C2289 1.393 . S
C2286 H2278 0.950 . S
C2286 C2284 1.391 . S
C2286 C2287 1.400 . S
C2287 C2286 1.400 . S
C2287 C2288 1.398 . S
C2287 C2293 1.491 . S
C2288 H2279 0.950 . S
C2288 C2287 1.398 . S
C2288 C2289 1.391 . S
C2289 H2277 0.950 . S
C2289 C2285 1.393 . S
C2289 C2288 1.391 . S
C2290 H2280 0.950 . S
C2290 C2291 1.386 . S
C2290 C2292 1.391 . S
C2291 C2290 1.386 . S
C2291 C2295 1.393 . S
C2292 H2281 0.950 . S
C2292 C2290 1.391 . S
C2292 C2293 1.400 . S
C2293 C2287 1.491 . S
C2293 C2292 1.400 . S
C2293 C2294 1.398 . S
C2294 H2282 0.950 . S
C2294 C2293 1.398 . S
C2294 C2295 1.391 . S
C2295 H2283 0.950 . S
C2295 C2291 1.393 . S
C2295 C2294 1.391 . S
H2296 C2304 0.950 . S
H2297 C2309 0.950 . S
H2298 C2306 0.950 . S
H2299 C2308 0.950 . S
H2300 C2310 0.950 . S
H2301 C2312 0.950 . S
H2302 C2314 0.950 . S
H2303 C2315 0.950 1_455 S
C2304 H2296 0.950 . S
C2304 C2305 1.386 . S
C2304 C2306 1.391 . S
C2305 C2304 1.386 . S
C2305 C2309 1.393 . S
C2306 H2298 0.950 . S
C2306 C2304 1.391 . S
C2306 C2307 1.400 . S
C2307 C2306 1.400 . S
C2307 C2308 1.398 . S
C2307 C2313 1.491 . S
C2308 H2299 0.950 . S
C2308 C2307 1.398 . S
C2308 C2309 1.391 . S
C2309 H2297 0.950 . S
C2309 C2305 1.393 . S
C2309 C2308 1.391 . S
C2310 H2300 0.950 . S
C2310 C2311 1.386 . S
C2310 C2312 1.391 . S
C2311 C2310 1.386 . S
C2311 C2315 1.393 . S
C2312 H2301 0.950 . S
C2312 C2310 1.391 . S
C2312 C2313 1.400 . S
C2313 C2307 1.491 . S
C2313 C2312 1.400 . S
C2313 C2314 1.398 . S
C2314 H2302 0.950 . S
C2314 C2313 1.398 . S
C2314 C2315 1.391 . S
C2315 H2303 0.950 1_655 S
C2315 C2311 1.393 . S
C2315 C2314 1.391 . S
H2316 C2324 0.950 . S
H2317 C2329 0.950 . S
H2318 C2326 0.950 . S
H2319 C2328 0.950 . S
H2320 C2330 0.950 . S
H2321 C2332 0.950 . S
H2322 C2334 0.950 . S
H2323 C2335 0.950 . S
C2324 H2316 0.950 . S
C2324 C2325 1.386 . S
C2324 C2326 1.391 . S
C2325 C2324 1.386 . S
C2325 C2329 1.393 . S
C2326 H2318 0.950 . S
C2326 C2324 1.391 . S
C2326 C2327 1.400 . S
C2327 C2326 1.400 . S
C2327 C2328 1.398 . S
C2327 C2333 1.491 . S
C2328 H2319 0.950 . S
C2328 C2327 1.398 . S
C2328 C2329 1.391 . S
C2329 H2317 0.950 . S
C2329 C2325 1.393 . S
C2329 C2328 1.391 . S
C2330 H2320 0.950 . S
C2330 C2331 1.386 . S
C2330 C2332 1.391 . S
C2331 C2330 1.386 . S
C2331 C2335 1.393 . S
C2332 H2321 0.950 . S
C2332 C2330 1.391 . S
C2332 C2333 1.400 . S
C2333 C2327 1.491 . S
C2333 C2332 1.400 . S
C2333 C2334 1.398 . S
C2334 H2322 0.950 . S
C2334 C2333 1.398 . S
C2334 C2335 1.391 . S
C2335 H2323 0.950 . S
C2335 C2331 1.393 . S
C2335 C2334 1.391 . S
H2336 C2344 0.950 . S
H2337 C2349 0.950 . S
H2338 C2346 0.950 . S
H2339 C2348 0.950 . S
H2340 C2350 0.950 . S
H2341 C2352 0.950 . S
H2342 C2354 0.950 . S
H2343 C2355 0.950 . S
C2344 H2336 0.950 . S
C2344 C2345 1.386 . S
C2344 C2346 1.391 . S
C2345 C2344 1.386 . S
C2345 C2349 1.393 . S
C2346 H2338 0.950 . S
C2346 C2344 1.391 . S
C2346 C2347 1.400 . S
C2347 C2346 1.400 . S
C2347 C2348 1.398 . S
C2347 C2353 1.491 . S
C2348 H2339 0.950 . S
C2348 C2347 1.398 . S
C2348 C2349 1.391 . S
C2349 H2337 0.950 . S
C2349 C2345 1.393 . S
C2349 C2348 1.391 . S
C2350 H2340 0.950 . S
C2350 C2351 1.386 . S
C2350 C2352 1.391 . S
C2351 C2350 1.386 . S
C2351 C2355 1.393 . S
C2352 H2341 0.950 . S
C2352 C2350 1.391 . S
C2352 C2353 1.400 . S
C2353 C2347 1.491 . S
C2353 C2352 1.400 . S
C2353 C2354 1.398 . S
C2354 H2342 0.950 . S
C2354 C2353 1.398 . S
C2354 C2355 1.391 . S
C2355 H2343 0.950 . S
C2355 C2351 1.393 . S
C2355 C2354 1.391 . S
H2356 C2364 0.950 . S
H2357 C2369 0.950 . S
H2358 C2366 0.950 . S
H2359 C2368 0.950 . S
H2360 C2370 0.950 . S
H2361 C2372 0.950 . S
H2362 C2374 0.950 . S
H2363 C2375 0.950 . S
C2364 H2356 0.950 . S
C2364 C2365 1.386 . S
C2364 C2366 1.391 . S
C2365 C2364 1.386 . S
C2365 C2369 1.393 . S
C2366 H2358 0.950 . S
C2366 C2364 1.391 . S
C2366 C2367 1.400 . S
C2367 C2366 1.400 . S
C2367 C2368 1.398 . S
C2367 C2373 1.491 . S
C2368 H2359 0.950 . S
C2368 C2367 1.398 . S
C2368 C2369 1.391 . S
C2369 H2357 0.950 . S
C2369 C2365 1.393 . S
C2369 C2368 1.391 . S
C2370 H2360 0.950 . S
C2370 C2371 1.386 . S
C2370 C2372 1.391 . S
C2371 C2370 1.386 . S
C2371 C2375 1.393 . S
C2372 H2361 0.950 . S
C2372 C2370 1.391 . S
C2372 C2373 1.400 . S
C2373 C2367 1.491 . S
C2373 C2372 1.400 . S
C2373 C2374 1.398 . S
C2374 H2362 0.950 . S
C2374 C2373 1.398 . S
C2374 C2375 1.391 . S
C2375 H2363 0.950 . S
C2375 C2371 1.393 . S
C2375 C2374 1.391 . S
H2376 C2384 0.950 . S
H2377 C2389 0.950 . S
H2378 C2386 0.950 . S
H2379 C2388 0.950 . S
H2380 C2390 0.950 1_455 S
H2381 C2392 0.950 . S
H2382 C2394 0.950 . S
H2383 C2395 0.950 . S
C2384 H2376 0.950 . S
C2384 C2385 1.386 . S
C2384 C2386 1.391 . S
C2385 C2384 1.386 . S
C2385 C2389 1.393 . S
C2386 H2378 0.950 . S
C2386 C2384 1.391 . S
C2386 C2387 1.400 . S
C2387 C2386 1.400 . S
C2387 C2388 1.398 . S
C2387 C2393 1.491 . S
C2388 H2379 0.950 . S
C2388 C2387 1.398 . S
C2388 C2389 1.391 . S
C2389 H2377 0.950 . S
C2389 C2385 1.393 . S
C2389 C2388 1.391 . S
C2390 H2380 0.950 1_655 S
C2390 C2391 1.386 . S
C2390 C2392 1.391 . S
C2391 C2390 1.386 . S
C2391 C2395 1.393 . S
C2392 H2381 0.950 . S
C2392 C2390 1.391 . S
C2392 C2393 1.400 . S
C2393 C2387 1.491 . S
C2393 C2392 1.400 . S
C2393 C2394 1.398 . S
C2394 H2382 0.950 . S
C2394 C2393 1.398 . S
C2394 C2395 1.391 . S
C2395 H2383 0.950 . S
C2395 C2391 1.393 . S
C2395 C2394 1.391 . S
H2396 C2404 0.950 . S
H2397 C2409 0.950 . S
H2398 C2406 0.950 . S
H2399 C2408 0.950 . S
H2400 C2410 0.950 . S
H2401 C2412 0.950 . S
H2402 C2414 0.950 . S
H2403 C2415 0.950 . S
C2404 H2396 0.950 . S
C2404 C2405 1.386 . S
C2404 C2406 1.391 . S
C2405 C2404 1.386 . S
C2405 C2409 1.393 . S
C2406 H2398 0.950 . S
C2406 C2404 1.391 . S
C2406 C2407 1.400 . S
C2407 C2406 1.400 . S
C2407 C2408 1.398 . S
C2407 C2413 1.491 . S
C2408 H2399 0.950 . S
C2408 C2407 1.398 . S
C2408 C2409 1.391 . S
C2409 H2397 0.950 . S
C2409 C2405 1.393 . S
C2409 C2408 1.391 . S
C2410 H2400 0.950 . S
C2410 C2411 1.386 . S
C2410 C2412 1.391 . S
C2411 C2410 1.386 . S
C2411 C2415 1.393 . S
C2412 H2401 0.950 . S
C2412 C2410 1.391 . S
C2412 C2413 1.400 . S
C2413 C2407 1.491 . S
C2413 C2412 1.400 . S
C2413 C2414 1.398 . S
C2414 H2402 0.950 . S
C2414 C2413 1.398 . S
C2414 C2415 1.391 . S
C2415 H2403 0.950 . S
C2415 C2411 1.393 . S
C2415 C2414 1.391 . S
H2416 C2424 0.950 . S
H2417 C2429 0.950 . S
H2418 C2426 0.950 . S
H2419 C2428 0.950 . S
H2420 C2430 0.950 . S
H2421 C2432 0.950 . S
H2422 C2434 0.950 . S
H2423 C2435 0.950 . S
C2424 H2416 0.950 . S
C2424 C2425 1.386 . S
C2424 C2426 1.391 . S
C2425 C2424 1.386 . S
C2425 C2429 1.393 . S
C2426 H2418 0.950 . S
C2426 C2424 1.391 . S
C2426 C2427 1.400 . S
C2427 C2426 1.400 . S
C2427 C2428 1.398 . S
C2427 C2433 1.491 . S
C2428 H2419 0.950 . S
C2428 C2427 1.398 . S
C2428 C2429 1.391 . S
C2429 H2417 0.950 . S
C2429 C2425 1.393 . S
C2429 C2428 1.391 . S
C2430 H2420 0.950 . S
C2430 C2431 1.386 . S
C2430 C2432 1.391 . S
C2431 C2430 1.386 . S
C2431 C2435 1.393 . S
C2432 H2421 0.950 . S
C2432 C2430 1.391 . S
C2432 C2433 1.400 . S
C2433 C2427 1.491 . S
C2433 C2432 1.400 . S
C2433 C2434 1.398 . S
C2434 H2422 0.950 . S
C2434 C2433 1.398 . S
C2434 C2435 1.391 . S
C2435 H2423 0.950 . S
C2435 C2431 1.393 . S
C2435 C2434 1.391 . S
H2436 C2444 0.950 . S
H2437 C2449 0.950 . S
H2438 C2446 0.950 . S
H2439 C2448 0.950 . S
H2440 C2450 0.950 . S
H2441 C2452 0.950 . S
H2442 C2454 0.950 . S
H2443 C2455 0.950 . S
C2444 H2436 0.950 . S
C2444 C2445 1.386 . S
C2444 C2446 1.391 . S
C2445 C2444 1.386 . S
C2445 C2449 1.393 . S
C2446 H2438 0.950 . S
C2446 C2444 1.391 . S
C2446 C2447 1.400 . S
C2447 C2446 1.400 . S
C2447 C2448 1.398 . S
C2447 C2453 1.491 . S
C2448 H2439 0.950 . S
C2448 C2447 1.398 . S
C2448 C2449 1.391 . S
C2449 H2437 0.950 . S
C2449 C2445 1.393 . S
C2449 C2448 1.391 . S
C2450 H2440 0.950 . S
C2450 C2451 1.386 1_545 S
C2450 C2452 1.391 1_545 S
C2451 C2450 1.386 1_565 S
C2451 C2455 1.393 . S
C2452 H2441 0.950 . S
C2452 C2450 1.391 1_565 S
C2452 C2453 1.400 . S
C2453 C2447 1.491 . S
C2453 C2452 1.400 . S
C2453 C2454 1.398 . S
C2454 H2442 0.950 . S
C2454 C2453 1.398 . S
C2454 C2455 1.391 . S
C2455 H2443 0.950 . S
C2455 C2451 1.393 . S
C2455 C2454 1.391 . S
H2456 C2464 0.950 . S
H2457 C2469 0.950 . S
H2458 C2466 0.950 . S
H2459 C2468 0.950 . S
H2460 C2470 0.950 . S
H2461 C2472 0.950 . S
H2462 C2474 0.950 . S
H2463 C2475 0.950 . S
C2464 H2456 0.950 . S
C2464 C2465 1.386 . S
C2464 C2466 1.391 . S
C2465 C2464 1.386 . S
C2465 C2469 1.393 . S
C2466 H2458 0.950 . S
C2466 C2464 1.391 . S
C2466 C2467 1.400 . S
C2467 C2466 1.400 . S
C2467 C2468 1.398 . S
C2467 C2473 1.491 . S
C2468 H2459 0.950 . S
C2468 C2467 1.398 . S
C2468 C2469 1.391 . S
C2469 H2457 0.950 . S
C2469 C2465 1.393 . S
C2469 C2468 1.391 . S
C2470 H2460 0.950 . S
C2470 C2471 1.386 . S
C2470 C2472 1.391 . S
C2471 C2470 1.386 . S
C2471 C2475 1.393 . S
C2472 H2461 0.950 . S
C2472 C2470 1.391 . S
C2472 C2473 1.400 . S
C2473 C2467 1.491 . S
C2473 C2472 1.400 . S
C2473 C2474 1.398 . S
C2474 H2462 0.950 . S
C2474 C2473 1.398 . S
C2474 C2475 1.391 . S
C2475 H2463 0.950 . S
C2475 C2471 1.393 . S
C2475 C2474 1.391 . S
H2476 C2484 0.950 . S
H2477 C2489 0.950 . S
H2478 C2486 0.950 . S
H2479 C2488 0.950 . S
H2480 C2490 0.950 . S
H2481 C2492 0.950 . S
H2482 C2494 0.950 . S
H2483 C2495 0.950 . S
C2484 H2476 0.950 . S
C2484 C2485 1.386 . S
C2484 C2486 1.391 . S
C2485 C2484 1.386 . S
C2485 C2489 1.393 1_556 S
C2486 H2478 0.950 . S
C2486 C2484 1.391 . S
C2486 C2487 1.422 . S
C2487 C2486 1.422 . S
C2487 C2488 1.381 1_556 S
C2487 C2493 1.486 1_556 S
C2488 H2479 0.950 . S
C2488 C2487 1.381 1_554 S
C2488 C2489 1.391 . S
C2489 H2477 0.950 . S
C2489 C2485 1.393 1_554 S
C2489 C2488 1.391 . S
C2490 H2480 0.950 . S
C2490 C2491 1.386 . S
C2490 C2492 1.391 . S
C2491 C2490 1.386 . S
C2491 C2495 1.393 1_554 S
C2492 H2481 0.950 . S
C2492 C2490 1.391 . S
C2492 C2493 1.400 . S
C2493 C2487 1.486 1_554 S
C2493 C2492 1.400 . S
C2493 C2494 1.398 1_554 S
C2494 H2482 0.950 . S
C2494 C2493 1.398 1_556 S
C2494 C2495 1.391 . S
C2495 H2483 0.950 . S
C2495 C2491 1.393 1_556 S
C2495 C2494 1.391 . S
H2496 C2504 0.950 . S
H2497 C2509 0.950 . S
H2498 C2506 0.950 . S
H2499 C2508 0.950 . S
H2500 C2510 0.950 . S
H2501 C2512 0.950 . S
H2502 C2514 0.950 . S
H2503 C2515 0.950 . S
C2504 H2496 0.950 . S
C2504 C2505 1.386 . S
C2504 C2506 1.391 . S
C2505 C2504 1.386 . S
C2505 C2509 1.393 . S
C2506 H2498 0.950 . S
C2506 C2504 1.391 . S
C2506 C2507 1.400 . S
C2507 C2506 1.400 . S
C2507 C2508 1.398 . S
C2507 C2513 1.491 . S
C2508 H2499 0.950 . S
C2508 C2507 1.398 . S
C2508 C2509 1.391 . S
C2509 H2497 0.950 . S
C2509 C2505 1.393 . S
C2509 C2508 1.391 . S
C2510 H2500 0.950 . S
C2510 C2511 1.386 . S
C2510 C2512 1.391 . S
C2511 C2510 1.386 . S
C2511 C2515 1.393 . S
C2512 H2501 0.950 . S
C2512 C2510 1.391 . S
C2512 C2513 1.400 . S
C2513 C2507 1.491 . S
C2513 C2512 1.400 . S
C2513 C2514 1.398 . S
C2514 H2502 0.950 . S
C2514 C2513 1.398 . S
C2514 C2515 1.391 . S
C2515 H2503 0.950 . S
C2515 C2511 1.393 . S
C2515 C2514 1.391 . S
H2516 C2524 0.950 . S
H2517 C2529 0.979 . S
H2518 C2526 0.950 . S
H2519 C2528 0.950 . S
H2520 C2530 0.950 . S
H2521 C2532 0.950 . S
H2522 C2534 0.950 . S
H2523 C2535 0.950 . S
C2524 H2516 0.950 . S
C2524 C2525 1.386 . S
C2524 C2526 1.391 . S
C2525 C2524 1.386 . S
C2525 C2529 1.358 1_554 S
C2526 H2518 0.950 . S
C2526 C2524 1.391 . S
C2526 C2527 1.400 . S
C2527 C2526 1.400 . S
C2527 C2528 1.398 1_554 S
C2527 C2533 1.491 . S
C2528 H2519 0.950 . S
C2528 C2527 1.398 1_556 S
C2528 C2529 1.397 . S
C2529 H2517 0.979 . S
C2529 C2525 1.358 1_556 S
C2529 C2528 1.397 . S
C2530 H2520 0.950 . S
C2530 C2531 1.386 . S
C2530 C2532 1.391 . S
C2531 C2530 1.386 . S
C2531 C2535 1.393 1_556 S
C2532 H2521 0.950 . S
C2532 C2530 1.391 . S
C2532 C2533 1.400 1_556 S
C2533 C2527 1.491 . S
C2533 C2532 1.400 1_554 S
C2533 C2534 1.398 . S
C2534 H2522 0.950 . S
C2534 C2533 1.398 . S
C2534 C2535 1.391 . S
C2535 H2523 0.950 . S
C2535 C2531 1.393 1_554 S
C2535 C2534 1.391 . S
H2536 C2544 0.950 . S
H2537 C2549 0.950 . S
H2538 C2546 0.950 . S
H2539 C2548 0.950 . S
H2540 C2550 0.950 . S
H2541 C2552 0.950 . S
H2542 C2554 0.950 . S
H2543 C2555 0.950 . S
C2544 H2536 0.950 . S
C2544 C2545 1.386 . S
C2544 C2546 1.391 . S
C2545 C2544 1.386 . S
C2545 C2549 1.393 . S
C2546 H2538 0.950 . S
C2546 C2544 1.391 . S
C2546 C2547 1.400 . S
C2547 C2546 1.400 . S
C2547 C2548 1.398 . S
C2547 C2553 1.491 . S
C2548 H2539 0.950 . S
C2548 C2547 1.398 . S
C2548 C2549 1.391 . S
C2549 H2537 0.950 . S
C2549 C2545 1.393 . S
C2549 C2548 1.391 . S
C2550 H2540 0.950 . S
C2550 C2551 1.386 . S
C2550 C2552 1.391 . S
C2551 C2550 1.386 . S
C2551 C2555 1.393 . S
C2552 H2541 0.950 . S
C2552 C2550 1.391 . S
C2552 C2553 1.400 . S
C2553 C2547 1.491 . S
C2553 C2552 1.400 . S
C2553 C2554 1.398 . S
C2554 H2542 0.950 . S
C2554 C2553 1.398 . S
C2554 C2555 1.391 . S
C2555 H2543 0.950 . S
C2555 C2551 1.393 . S
C2555 C2554 1.391 . S
H2556 C2564 0.950 . S
H2557 C2569 0.950 . S
H2558 C2566 0.950 . S
H2559 C2568 0.950 . S
H2560 C2570 0.950 . S
H2561 C2572 0.950 . S
H2562 C2574 0.950 . S
H2563 C2575 0.950 . S
C2564 H2556 0.950 . S
C2564 C2565 1.386 . S
C2564 C2566 1.391 . S
C2565 C2564 1.386 . S
C2565 C2569 1.393 . S
C2566 H2558 0.950 . S
C2566 C2564 1.391 . S
C2566 C2567 1.400 . S
C2567 C2566 1.400 . S
C2567 C2568 1.398 . S
C2567 C2573 1.491 . S
C2568 H2559 0.950 . S
C2568 C2567 1.398 . S
C2568 C2569 1.391 . S
C2569 H2557 0.950 . S
C2569 C2565 1.393 . S
C2569 C2568 1.391 . S
C2570 H2560 0.950 . S
C2570 C2571 1.386 . S
C2570 C2572 1.391 . S
C2571 C2570 1.386 . S
C2571 C2575 1.393 . S
C2572 H2561 0.950 . S
C2572 C2570 1.391 . S
C2572 C2573 1.400 . S
C2573 C2567 1.491 . S
C2573 C2572 1.400 . S
C2573 C2574 1.398 . S
C2574 H2562 0.950 . S
C2574 C2573 1.398 . S
C2574 C2575 1.391 . S
C2575 H2563 0.950 . S
C2575 C2571 1.393 . S
C2575 C2574 1.391 . S
C665 C105 1.257 . S
C671 C352 1.238 1_556 S
C685 C65 1.343 . S
C691 C365 1.326 . S
C705 C73 1.362 . S
C711 C384 1.330 . S
C731 C415 1.908 . S
C725 C92 1.947 . S
C745 C17 1.797 . S
C751 C435 1.761 . S
C771 C452 0.875 . S
C765 C37 0.869 . S
C791 C465 1.510 . S
C785 C49 1.447 . S
C805 C8 1.015 . S
C811 C492 1.003 . S
C831 C345 1.215 . S
C825 C231 1.200 . S
C845 C241 1.475 . S
C851 C375 1.446 . S
C871 C377 1.688 . S
C865 C273 1.684 . S
C891 C412 0.844 . S
C885 C171 0.872 . S
C905 C227 1.122 . S
C911 C432 1.116 . S
C931 C445 1.776 . S
C925 C245 1.699 . S
C951 C475 1.275 . S
C945 C269 1.313 . S
C971 C485 1.207 . S
C965 C175 1.183 . S
C991 C355 1.594 . S
C985 C162 1.627 . S
C1005 C289 1.793 . S
C1011 C505 1.795 . S
C1031 C535 1.621 . S
C1025 C330 1.629 . S
C1051 C552 1.193 . S
C1045 C317 1.200 . S
C1065 C120 1.889 . S
C1071 C495 1.894 . S
C1085 C134 1.266 . S
C1091 C382 1.217 . S
C1105 C331 1.821 . S
C1111 C565 1.818 . S
C1131 C592 0.966 . S
C1125 C303 0.968 . S
C1151 C342 1.241 . S
C1145 C59 1.299 . S
C1171 C577 1.343 . S
C1165 C107 1.366 . S
C1185 C91 1.335 . S
C1191 C395 1.384 . S
C1205 C78 1.985 . S
C1211 C564 1.941 . S
C1231 C424 1.802 . S
C1225 C7 1.783 . S
C1245 C51 0.912 . S
C1251 C522 0.883 . S
C1271 C457 1.536 . S
C1265 C31 1.532 . S
C1291 C602 1.030 . S
C1285 C22 1.033 . S
C1311 C337 1.238 . S
C1305 C143 1.265 . S
C1331 C584 1.471 . S
C1325 C315 1.449 . S
C1345 C115 1.757 . S
C1351 C385 1.704 . S
C1365 C287 0.904 . S
C1371 C562 0.887 . S
C1385 C147 1.135 . S
C1391 C422 1.142 . S
C1411 C517 1.790 . S
C1405 C311 1.793 . S
C1425 C119 1.307 . S
C1431 C464 1.328 . S
C1445 C283 1.243 . S
C1451 C597 1.207 . S
C1465 C190 1.647 . S
C1471 C344 1.636 . S
C1485 C177 1.806 . S
C1491 C497 1.806 . S
C1505 C260 1.640 . S
C1511 C444 1.640 . S
C1525 C247 1.247 . S
C1531 C542 1.215 . S
C1551 C604 1.910 . S
C1545 C274 1.925 . S
C1565 C218 1.288 . S
C1571 C392 1.230 1_565 S
C1591 C397 1.835 . S
C1585 C261 1.840 . S
C1611 C362 1.003 . S
C1605 C205 1.004 . S
C1625 C77 1.233 . S
C1631 C632 1.230 . S
C1651 C585 1.331 . S
C1645 C93 1.342 . S
C1665 C101 1.357 . S
C1671 C644 1.318 1_455 S
C1685 C64 1.946 . S
C1691 C575 1.911 . S
C1705 C45 1.798 . S
C1711 C515 1.770 . S
C1731 C532 0.860 . S
C1725 C9 0.883 . S
C1751 C545 1.507 1_655 S
C1745 C21 1.465 . S
C1771 C612 0.997 . S
C1765 C36 1.025 . S
C1791 C625 1.231 . S
C1785 C259 1.193 . S
C1805 C185 1.475 . S
C1811 C595 1.455 . S
C1831 C637 1.675 . S
C1825 C203 1.671 . S
C1851 C572 0.844 . S
C1845 C213 0.872 . S
C1871 C512 1.110 . S
C1865 C255 1.124 . S
C1885 C189 1.704 . S
C1891 C525 1.768 . S
C1911 C555 1.298 . S
C1905 C199 1.317 . S
C1925 C217 1.199 . S
C1931 C605 1.199 . S
C1951 C635 1.599 . S
C1945 C316 1.624 . S
C1965 C135 1.787 . S
C1971 C425 1.783 . S
C1991 C455 1.628 . S
C1985 C148 1.620 . S
C2011 C472 1.175 . S
C2005 C163 1.210 . S
C2031 C615 1.897 . S
C2025 C302 1.892 . S
C2045 C288 1.267 . S
C2051 C642 1.217 . S
C2071 C405 1.810 . S
C2065 C149 1.819 . S
C2091 C372 0.961 . S
C2085 C121 0.980 . S
C2105 C87 1.301 . S
C2111 C622 1.244 . S
C2131 C357 1.360 . S
C2125 C79 1.361 . S
C2145 C63 1.354 . S
C2151 C655 1.371 . S
C2165 C106 1.984 . S
C2171 C404 1.944 . S
C2185 C35 1.784 . S
C2191 C504 1.800 1_556 S
C2211 C442 0.904 . S
C2205 C23 0.901 . S
C2225 C3 1.532 . S
C2231 C537 1.519 . S
C2245 C50 1.047 . S
C2251 C482 1.024 . S
C2271 C617 1.257 . S
C2265 C325 1.263 . S
C2285 C161 1.459 . S
C2291 C364 1.487 . S
C2311 C645 1.714 . S
C2305 C297 1.763 . S
C2325 C133 0.871 . S
C2331 C402 0.902 . S
C2345 C329 1.112 . S
C2351 C502 1.166 . S
C2371 C437 1.790 . S
C2365 C157 1.793 . S
C2385 C301 1.306 . S
C2391 C544 1.328 . S
C2411 C477 1.223 . S
C2405 C129 1.246 . S
C2431 C624 1.631 . S
C2425 C246 1.652 . S
C2451 C417 1.812 1_565 S
C2445 C219 1.812 . S
C2465 C232 1.635 . S
C2471 C524 1.644 . S
C2491 C462 1.216 . S
C2485 C191 1.246 . S
C2505 C204 1.922 . S
C2511 C484 1.913 . S
C2525 C176 1.269 . S
C2531 C652 1.251 . S
C2551 C557 1.835 . S
C2545 C233 1.841 1_565 S
C2571 C582 1.001 . S
C2565 C275 1.007 . S
