# Generated by pormake.
# Topology anh, (6,3)-cn, num edge types: 1
# Building blocks:
#     Node 0, Type 0, BuildingBlock: BETDIP_clean_sbu_0, # of connection points: 6
#     Node 1, Type 0, BuildingBlock: BETDIP_clean_sbu_0, # of connection points: 6
#     Node 2, Type 0, BuildingBlock: BETDIP_clean_sbu_0, # of connection points: 6
#     Node 3, Type 1, BuildingBlock: OLANEW_clean_sbu_2, # of connection points: 3
#     Node 4, Type 1, BuildingBlock: OLANEW_clean_sbu_2, # of connection points: 3
#     Node 5, Type 1, BuildingBlock: OLANEW_clean_sbu_2, # of connection points: 3
#     Node 6, Type 1, BuildingBlock: OLANEW_clean_sbu_2, # of connection points: 3
#     Node 7, Type 1, BuildingBlock: OLANEW_clean_sbu_2, # of connection points: 3
#     Node 8, Type 1, BuildingBlock: OLANEW_clean_sbu_2, # of connection points: 3
#     Edge 9, Type (0, 1), BuildingBlock: XUDNAN_clean_linker_2, # of connection points: 2
#     Edge 10, Type (0, 1), BuildingBlock: XUDNAN_clean_linker_2, # of connection points: 2
#     Edge 11, Type (0, 1), BuildingBlock: XUDNAN_clean_linker_2, # of connection points: 2
#     Edge 12, Type (0, 1), BuildingBlock: XUDNAN_clean_linker_2, # of connection points: 2
#     Edge 13, Type (0, 1), BuildingBlock: XUDNAN_clean_linker_2, # of connection points: 2
#     Edge 14, Type (0, 1), BuildingBlock: XUDNAN_clean_linker_2, # of connection points: 2
#     Edge 15, Type (0, 1), BuildingBlock: XUDNAN_clean_linker_2, # of connection points: 2
#     Edge 16, Type (0, 1), BuildingBlock: XUDNAN_clean_linker_2, # of connection points: 2
#     Edge 17, Type (0, 1), BuildingBlock: XUDNAN_clean_linker_2, # of connection points: 2
#     Edge 18, Type (0, 1), BuildingBlock: XUDNAN_clean_linker_2, # of connection points: 2
#     Edge 19, Type (0, 1), BuildingBlock: XUDNAN_clean_linker_2, # of connection points: 2
#     Edge 20, Type (0, 1), BuildingBlock: XUDNAN_clean_linker_2, # of connection points: 2
#     Edge 21, Type (0, 1), BuildingBlock: XUDNAN_clean_linker_2, # of connection points: 2
#     Edge 22, Type (0, 1), BuildingBlock: XUDNAN_clean_linker_2, # of connection points: 2
#     Edge 23, Type (0, 1), BuildingBlock: XUDNAN_clean_linker_2, # of connection points: 2
#     Edge 24, Type (0, 1), BuildingBlock: XUDNAN_clean_linker_2, # of connection points: 2
#     Edge 25, Type (0, 1), BuildingBlock: XUDNAN_clean_linker_2, # of connection points: 2
#     Edge 26, Type (0, 1), BuildingBlock: XUDNAN_clean_linker_2, # of connection points: 2
# Relax obj value: 0.227
# Max RMSD: 0.127
# Mean RMSD: 0.113
data_MOF--net-anh--node1-BETDIP_clean_sbu_0--node2-OLANEW_clean_sbu_2--edge1-XUDNAN_clean_linker_2
_symmetry_space_group_name_H-M    P1
_symmetry_Int_Tables_number       1
_symmetry_cell_setting            triclinic
loop_
_symmetry_equiv_pos_as_xyz
'x, y, z'
_cell_length_a     37.158784
_cell_length_b     37.207532
_cell_length_c     50.033299
_cell_angle_alpha  89.350814
_cell_angle_beta   90.267839
_cell_angle_gamma 119.49307
loop_
_atom_site_label
_atom_site_type_symbol
_atom_site_fract_x
_atom_site_fract_y
_atom_site_fract_z
_atom_type_partial_charge
Tb0 Tb 0.04998 0.58658 0.17907 0.0
Tb1 Tb 1.01033 0.49184 0.17872 0.0
C2 C 0.09623 0.66098 0.18842 0.0
C3 C 0.13988 0.68755 0.18154 0.0
C4 C 0.17051 0.67993 0.19234 0.0
C5 C 0.21179 0.70575 0.18578 0.0
C6 C 0.22298 0.73946 0.1684 0.0
C7 C 0.19224 0.74534 0.15616 0.0
C8 C 0.15091 0.7196 0.16281 0.0
C9 C 0.03245 0.55238 0.13177 0.0
C10 C 0.1084 0.54347 0.17535 0.0
C11 C 0.96849 0.42247 0.15818 0.0
C12 C 0.9237 0.39348 0.15732 0.0
C13 C 0.90006 0.39685 0.13639 0.0
C14 C 0.85729 0.37251 0.1363 0.0
C15 C 0.83717 0.34342 0.15676 0.0
C16 C 0.86083 0.33922 0.17737 0.0
C17 C 0.90374 0.36418 0.17771 0.0
C18 C 0.0156 0.5173 0.22907 0.0
C19 C 0.95357 0.53596 0.17942 0.0
O20 O 0.08786 0.63181 0.20623 0.0
O21 O 0.07116 0.64808 0.16795 0.0
O22 O 0.04518 0.54147 0.15187 0.0
O23 O 0.03153 0.58582 0.13733 0.0
O24 O 0.10485 0.57754 0.17628 0.0
O25 O 0.07525 0.50587 0.17606 0.0
O26 O 0.97931 0.45741 0.14578 0.0
O27 O 0.98789 0.42765 0.18112 0.0
O28 O 0.02547 0.5383 0.20762 0.0
O29 O 1.00144 0.47915 0.22209 0.0
O30 O 0.95687 0.50248 0.17524 0.0
O31 O 0.98606 0.57216 0.18495 0.0
H32 H 0.16284 0.65469 0.20628 0.0
H33 H 0.23519 0.70067 0.19531 0.0
H34 H 0.20031 0.7714 0.14287 0.0
H35 H 0.12763 0.72535 0.15379 0.0
H36 H 0.9145 0.41902 0.12024 0.0
H37 H 0.84 0.37686 0.12031 0.0
H38 H 0.84628 0.31636 0.19312 0.0
H39 H 0.92115 0.36072 0.19399 0.0
Tb40 Tb 0.56473 0.00866 0.51752 0.0
Tb41 Tb 0.51606 0.04832 0.51203 0.0
C42 C 0.59137 0.96028 0.52782 0.0
C43 C 0.57442 0.91655 0.52063 0.0
C44 C 0.55016 0.88547 0.53916 0.0
C45 C 0.53528 0.84418 0.53299 0.0
C46 C 0.54459 0.83327 0.50828 0.0
C47 C 0.56691 0.86386 0.48912 0.0
C48 C 0.58171 0.90534 0.49522 0.0
C49 C 0.55224 0.02417 0.46776 0.0
C50 C 0.46537 0.95274 0.51348 0.0
C51 C 0.48931 0.0946 0.49588 0.0
C52 C 0.50599 0.13932 0.49628 0.0
C53 C 0.50017 0.15908 0.47402 0.0
C54 C 0.51223 0.20095 0.47506 0.0
C55 C 0.53 0.22312 0.49843 0.0
C56 C 0.53866 0.20414 0.51994 0.0
C57 C 0.52707 0.16244 0.51879 0.0
C58 C 0.52602 0.03227 0.56266 0.0
C59 C 0.61535 0.10355 0.5142 0.0
O60 O 0.56975 0.96835 0.54492 0.0
O61 O 0.60526 0.98685 0.50802 0.0
O62 O 0.52639 0.01026 0.48627 0.0
O63 O 0.58624 0.02689 0.47628 0.0
O64 O 0.50048 0.95564 0.52229 0.0
O65 O 0.46514 0.98605 0.50432 0.0
O66 O 0.50924 0.08209 0.48057 0.0
O67 O 0.47933 0.07544 0.51904 0.0
O68 O 0.55353 0.04597 0.54468 0.0
O69 O 0.4929 0.03023 0.55263 0.0
O70 O 0.57996 0.10058 0.5062 0.0
O71 O 0.616 0.07093 0.52429 0.0
H72 H 0.5437 0.89307 0.55875 0.0
H73 H 0.51859 0.82079 0.54815 0.0
H74 H 0.57496 0.85586 0.47016 0.0
H75 H 0.59992 0.92858 0.48035 0.0
H76 H 0.48475 0.14174 0.45631 0.0
H77 H 0.50515 0.21528 0.4584 0.0
H78 H 0.55229 0.22102 0.53813 0.0
H79 H 0.5329 0.14794 0.5359 0.0
Tb80 Tb 0.48346 0.48996 0.84751 0.0
Tb81 Tb 0.5724 0.53257 0.84642 0.0
C82 C 0.41092 0.46829 0.86031 0.0
C83 C 0.38411 0.48486 0.85223 0.0
C84 C 0.3606 0.49088 0.87155 0.0
C85 C 0.33282 0.50392 0.86385 0.0
C86 C 0.3281 0.51065 0.83669 0.0
C87 C 0.35354 0.50721 0.81753 0.0
C88 C 0.38178 0.49479 0.82529 0.0
C89 C 0.51392 0.50225 0.79868 0.0
C90 C 0.5332 0.59013 0.84177 0.0
C91 C 0.6475 0.55987 0.83644 0.0
C92 C 0.67533 0.54319 0.83128 0.0
C93 C 0.6865 0.54008 0.80492 0.0
C94 C 0.71619 0.52827 0.80014 0.0
C95 C 0.73453 0.51914 0.82167 0.0
C96 C 0.72255 0.52095 0.84791 0.0
C97 C 0.69332 0.53308 0.85272 0.0
C98 C 0.54049 0.52329 0.8949 0.0
C99 C 0.52295 0.43386 0.84219 0.0
O100 O 0.44261 0.49269 0.8751 0.0
O101 O 0.42049 0.4504 0.84144 0.0
O102 O 0.52753 0.52659 0.81799 0.0
O103 O 0.47929 0.47053 0.80575 0.0
O104 O 0.49714 0.55603 0.84624 0.0
O105 O 0.56716 0.58752 0.839 0.0
O106 O 0.61991 0.55356 0.81807 0.0
O107 O 0.63251 0.55495 0.86064 0.0
O108 O 0.52774 0.49618 0.87688 0.0
O109 O 0.57258 0.55623 0.88611 0.0
O110 O 0.55762 0.46866 0.83712 0.0
O111 O 0.48987 0.43473 0.85086 0.0
H112 H 0.36276 0.48418 0.89245 0.0
H113 H 0.31319 0.50621 0.8789 0.0
H114 H 0.35039 0.51256 0.79653 0.0
H115 H 0.40068 0.49158 0.81011 0.0
H116 H 0.67325 0.54796 0.78805 0.0
H117 H 0.72555 0.52725 0.77982 0.0
H118 H 0.7371 0.51455 0.86473 0.0
H119 H 0.68579 0.53562 0.87325 0.0
O120 O 0.50664 0.04472 0.2632 0.0
Cd121 Cd 0.49407 0.05643 0.21665 0.0
O122 O 0.56631 0.04462 0.26318 0.0
Cd123 Cd 0.56902 0.04522 0.22003 0.0
O124 O 0.52017 1.00231 0.19431 0.0
C125 C 0.49184 0.97394 0.20831 0.0
O126 O 0.49733 0.9732 0.23422 0.0
C127 C 0.5356 0.04273 0.27556 0.0
C128 C 0.55964 0.125 0.19318 0.0
O129 O 0.5375 0.12904 0.21113 0.0
O130 O 0.55084 0.08866 0.1861 0.0
O131 O 0.62579 0.57251 0.60194 0.0
Cd132 Cd 0.63712 0.58175 0.55355 0.0
O133 O 0.56319 0.52571 0.59108 0.0
Cd134 Cd 0.49602 0.497 0.59292 0.0
O135 O 0.48442 0.5362 0.56526 0.0
C136 C 0.51069 0.57399 0.56884 0.0
O137 O 0.53613 0.58363 0.58919 0.0
C138 C 0.58906 0.5468 0.60904 0.0
C139 C 0.59671 0.50488 0.52999 0.0
O140 O 0.63567 0.52277 0.53449 0.0
O141 O 0.57701 0.52399 0.53564 0.0
O142 O 0.03423 0.53113 0.92748 0.0
Cd143 Cd 0.0149 0.5253 0.88065 0.0
O144 O 0.99547 0.46435 0.927 0.0
Cd145 Cd 0.9431 0.40859 0.9429 0.0
O146 O 0.90592 0.41812 0.91253 0.0
C147 C 0.91147 0.45464 0.91044 0.0
O148 O 0.93316 0.48197 0.92868 0.0
C149 C 0.01725 0.49703 0.94012 0.0
C150 C 0.07443 0.51669 0.85414 0.0
O151 O 0.03994 0.48449 0.85983 0.0
O152 O 0.07938 0.55231 0.85987 0.0
O153 O 0.06945 0.56362 0.44235 0.0
Cd154 Cd 0.14455 0.62453 0.43717 0.0
O155 O 1.00847 0.50733 0.43637 0.0
Cd156 Cd 0.95106 0.45122 0.45419 0.0
O157 O 0.89513 0.39583 0.47386 0.0
C158 C 0.86908 0.36329 0.46145 0.0
O159 O 0.87446 0.36119 0.43571 0.0
C160 C 0.04069 0.53881 0.42643 0.0
C161 C 0.20687 0.6949 0.46671 0.0
O162 O 0.19234 0.69902 0.4443 0.0
O163 O 0.19036 0.65815 0.47657 0.0
O164 O 0.53164 0.97537 0.76475 0.0
Cd165 Cd 0.53091 0.93228 0.80586 0.0
O166 O 0.53014 0.03172 0.77813 0.0
Cd167 Cd 0.52905 0.09323 0.78158 0.0
O168 O 0.52287 0.15166 0.7861 0.0
C169 C 0.5345 0.17649 0.80597 0.0
O170 O 0.55236 0.16905 0.82635 0.0
C171 C 0.53173 0.00937 0.75911 0.0
C172 C 0.53211 0.8547 0.80715 0.0
O173 O 0.49947 0.85598 0.81374 0.0
O174 O 0.56288 0.88868 0.79887 0.0
O175 O 0.56639 0.53182 0.09651 0.0
Cd176 Cd 0.61772 0.5466 0.13545 0.0
O177 O 0.50809 0.5308 0.10922 0.0
Cd178 Cd 0.4461 0.53116 0.1109 0.0
O179 O 0.39167 0.54287 0.11974 0.0
C180 C 0.35784 0.51915 0.13225 0.0
O181 O 0.35183 0.48328 0.14121 0.0
C182 C 0.53075 0.52803 0.09083 0.0
C183 C 0.6871 0.53186 0.14311 0.0
O184 O 0.65043 0.50655 0.15141 0.0
O185 O 0.69129 0.56303 0.12936 0.0
H186 H 0.13544 0.48562 0.18024 0.0
H187 H 0.17676 0.6123 0.15581 0.0
H188 H 0.24403 0.62019 0.14232 0.0
H189 H 0.23629 0.50717 0.20738 0.0
H190 H 0.23033 0.45831 0.197 0.0
H191 H 0.18541 0.46271 0.20495 0.0
H192 H 0.15475 0.4345 0.15829 0.0
H193 H 0.19959 0.43015 0.15013 0.0
H194 H 0.18456 0.45986 0.12878 0.0
H195 H 0.30707 0.61324 0.12905 0.0
H196 H 0.36059 0.59343 0.12048 0.0
H197 H 0.28029 0.47255 0.15529 0.0
C198 C 0.15871 0.51513 0.17223 0.0
C199 C 0.15028 0.54831 0.16922 0.0
C200 C 0.18203 0.58636 0.15863 0.0
C201 C 0.22054 0.59115 0.15074 0.0
C202 C 0.22771 0.55785 0.15377 0.0
C203 C 0.19783 0.52074 0.16464 0.0
C204 C 0.21382 0.49013 0.16634 0.0
C205 C 0.21662 0.47891 0.19566 0.0
C206 C 0.18655 0.45137 0.1499 0.0
C207 C 0.25673 0.51526 0.154 0.0
C208 C 0.26421 0.55431 0.1469 0.0
C209 C 0.30149 0.58277 0.13474 0.0
C210 C 0.33184 0.57119 0.12987 0.0
C211 C 0.3252 0.5314 0.13714 0.0
C212 C 0.28683 0.50328 0.14943 0.0
H213 H 0.66199 0.14081 0.46926 0.0
H214 H 0.65678 0.15815 0.55424 0.0
H215 H 0.72057 0.22653 0.55073 0.0
H216 H 0.7743 0.18787 0.46592 0.0
H217 H 0.77795 0.21058 0.43334 0.0
H218 H 0.73194 0.16357 0.4427 0.0
H219 H 0.68748 0.19796 0.43205 0.0
H220 H 0.73333 0.2451 0.42272 0.0
H221 H 0.69936 0.24572 0.44808 0.0
H222 H 0.78609 0.29524 0.53698 0.0
H223 H 0.84609 0.35445 0.51502 0.0
H224 H 0.80913 0.29069 0.43932 0.0
C225 C 0.6744 0.15906 0.48711 0.0
C226 C 0.65437 0.14418 0.51208 0.0
C227 C 0.67166 0.16887 0.53497 0.0
C228 C 0.70789 0.20783 0.53311 0.0
C229 C 0.72703 0.22173 0.50819 0.0
C230 C 0.71093 0.19779 0.48563 0.0
C231 C 0.73772 0.2192 0.46132 0.0
C232 C 0.75659 0.19378 0.45017 0.0
C233 C 0.71299 0.22748 0.43978 0.0
C234 C 0.77091 0.25924 0.47346 0.0
C235 C 0.76443 0.26027 0.50053 0.0
C236 C 0.79131 0.29446 0.51579 0.0
C237 C 0.82546 0.32812 0.50311 0.0
C238 C 0.83282 0.32771 0.47532 0.0
C239 C 0.80481 0.29245 0.46055 0.0
H240 H 0.49045 0.62959 0.86186 0.0
H241 H 0.58287 0.64309 0.80378 0.0
H242 H 0.58969 0.70887 0.78846 0.0
H243 H 0.4414 0.67693 0.82413 0.0
H244 H 0.43744 0.70574 0.85162 0.0
H245 H 0.43786 0.65818 0.85795 0.0
H246 H 0.49996 0.69609 0.88987 0.0
H247 H 0.4998 0.74384 0.88368 0.0
H248 H 0.54613 0.74091 0.878 0.0
H249 H 0.58846 0.77346 0.77902 0.0
H250 H 0.58047 0.8353 0.77689 0.0
H251 H 0.49072 0.78569 0.84136 0.0
C252 C 0.5118 0.64633 0.84579 0.0
C253 C 0.53557 0.63032 0.83375 0.0
C254 C 0.5639 0.65394 0.81323 0.0
C255 C 0.56814 0.69167 0.80433 0.0
C256 C 0.54466 0.70667 0.81647 0.0
C257 C 0.51745 0.68529 0.83702 0.0
C258 C 0.49825 0.71058 0.84745 0.0
C259 C 0.45092 0.68641 0.84513 0.0
C260 C 0.51182 0.72362 0.87648 0.0
C261 C 0.51732 0.74816 0.82856 0.0
C262 C 0.54448 0.74518 0.8112 0.0
C263 C 0.56721 0.77616 0.79247 0.0
C264 C 0.56246 0.81133 0.79141 0.0
C265 C 0.53475 0.81561 0.80867 0.0
C266 C 0.51168 0.78324 0.82751 0.0
H267 H 0.92476 0.57671 0.14618 0.0
H268 H 0.88646 0.48423 0.20915 0.0
H269 H 0.81534 0.47371 0.20671 0.0
H270 H 0.86087 0.62141 0.16329 0.0
H271 H 0.84761 0.62632 0.12924 0.0
H272 H 0.89587 0.62783 0.13647 0.0
H273 H 0.87684 0.56786 0.10367 0.0
H274 H 0.82841 0.56603 0.09639 0.0
H275 H 0.82886 0.52027 0.10807 0.0
H276 H 0.74784 0.47241 0.1972 0.0
H277 H 0.68891 0.47991 0.1815 0.0
H278 H 0.76849 0.57214 0.1234 0.0
C279 C 0.90142 0.55469 0.15968 0.0
C280 C 0.91138 0.53175 0.17829 0.0
C281 C 0.8797 0.50235 0.19499 0.0
C282 C 0.83915 0.49616 0.19369 0.0
C283 C 0.83015 0.51892 0.17509 0.0
C284 C 0.86027 0.54739 0.15819 0.0
C285 C 0.84156 0.56614 0.13913 0.0
C286 C 0.86274 0.61323 0.14223 0.0
C287 C 0.84408 0.55439 0.1101 0.0
C288 C 0.79672 0.5451 0.14869 0.0
C289 C 0.79087 0.51758 0.16924 0.0
C290 C 0.75216 0.49382 0.18109 0.0
C291 C 0.71864 0.49823 0.17189 0.0
C292 C 0.72347 0.5265 0.15106 0.0
C293 C 0.7634 0.55023 0.13934 0.0
H294 H 0.41553 0.91648 0.46981 0.0
H295 H 0.4283 0.89552 0.55372 0.0
H296 H 0.36297 0.82835 0.55188 0.0
H297 H 0.30656 0.87171 0.46582 0.0
H298 H 0.30154 0.84696 0.43417 0.0
H299 H 0.34884 0.89314 0.44229 0.0
H300 H 0.3905 0.85531 0.43416 0.0
H301 H 0.34337 0.80901 0.4258 0.0
H302 H 0.37636 0.80773 0.45186 0.0
H303 H 0.29382 0.76218 0.54016 0.0
H304 H 0.23191 0.70391 0.51964 0.0
H305 H 0.2657 0.76762 0.44307 0.0
C306 C 0.40442 0.89776 0.48781 0.0
C307 C 0.42681 0.91155 0.51205 0.0
C308 C 0.4117 0.88569 0.53498 0.0
C309 C 0.3745 0.84747 0.53409 0.0
C310 C 0.35297 0.83477 0.50989 0.0
C311 C 0.36792 0.85898 0.48706 0.0
C312 C 0.34038 0.83749 0.46321 0.0
C313 C 0.32331 0.86391 0.45064 0.0
C314 C 0.36406 0.82677 0.44253 0.0
C315 C 0.30628 0.79851 0.4763 0.0
C316 C 0.31429 0.79707 0.50318 0.0
C317 C 0.28752 0.76325 0.51911 0.0
C318 C 0.25225 0.73017 0.50726 0.0
C319 C 0.24331 0.73099 0.4797 0.0
C320 C 0.27093 0.76603 0.46425 0.0
H321 H 0.54955 0.38402 0.86767 0.0
H322 H 0.48829 0.39351 0.7963 0.0
H323 H 0.48407 0.32935 0.77909 0.0
H324 H 0.6101 0.34506 0.83716 0.0
H325 H 0.60365 0.30948 0.8639 0.0
H326 H 0.60115 0.35559 0.87083 0.0
H327 H 0.52876 0.31153 0.89212 0.0
H328 H 0.53111 0.26525 0.88539 0.0
H329 H 0.48829 0.27059 0.87312 0.0
H330 H 0.48848 0.26411 0.76891 0.0
H331 H 0.49885 0.20328 0.76756 0.0
H332 H 0.55564 0.23451 0.84602 0.0
C333 C 0.53502 0.37234 0.84852 0.0
C334 C 0.51909 0.39378 0.83333 0.0
C335 C 0.50041 0.3775 0.80834 0.0
C336 C 0.49798 0.34106 0.79838 0.0
C337 C 0.51401 0.32059 0.8137 0.0
C338 C 0.53181 0.33544 0.8384 0.0
C339 C 0.54617 0.30718 0.85099 0.0
C340 C 0.59306 0.33074 0.85601 0.0
C341 C 0.52216 0.28748 0.87695 0.0
C342 C 0.53476 0.27484 0.82932 0.0
C343 C 0.51604 0.283 0.80801 0.0
C344 C 0.50298 0.25747 0.7856 0.0
C345 C 0.50904 0.22283 0.78498 0.0
C346 C 0.52808 0.21357 0.8066 0.0
C347 C 0.54098 0.24031 0.82904 0.0
H348 H 0.58905 0.80628 0.5341 0.0
H349 H 0.48803 0.76795 0.47811 0.0
H350 H 0.47427 0.69541 0.48182 0.0
H351 H 0.62293 0.73043 0.51612 0.0
H352 H 0.63294 0.72456 0.55074 0.0
H353 H 0.63962 0.77326 0.53859 0.0
H354 H 0.58955 0.77146 0.5752 0.0
H355 H 0.58241 0.72284 0.58738 0.0
H356 H 0.53822 0.72755 0.57741 0.0
H357 H 0.46506 0.62596 0.49848 0.0
H358 H 0.46107 0.56793 0.52574 0.0
H359 H 0.56795 0.65497 0.57107 0.0
C360 C 0.56499 0.78269 0.52192 0.0
C361 C 0.53974 0.792 0.50572 0.0
C362 C 0.50785 0.76087 0.4904 0.0
C363 C 0.49997 0.71985 0.49241 0.0
C364 C 0.52453 0.71123 0.50968 0.0
C365 C 0.55666 0.74213 0.52395 0.0
C366 C 0.57507 0.72525 0.54391 0.0
C367 C 0.62032 0.73918 0.5369 0.0
C368 C 0.57103 0.73749 0.57265 0.0
C369 C 0.54747 0.67972 0.53951 0.0
C370 C 0.51885 0.6719 0.51947 0.0
C371 C 0.48776 0.63177 0.51389 0.0
C372 C 0.48554 0.59908 0.52956 0.0
C373 C 0.51394 0.60702 0.55068 0.0
C374 C 0.54573 0.64776 0.5551 0.0
H375 H 0.73342 0.44651 0.82651 0.0
H376 H 0.81331 0.57691 0.81174 0.0
H377 H 0.87419 0.56994 0.8232 0.0
H378 H 0.77118 0.43833 0.88088 0.0
H379 H 0.76989 0.38955 0.87724 0.0
H380 H 0.73524 0.40006 0.85813 0.0
H381 H 0.76251 0.38671 0.81401 0.0
H382 H 0.79696 0.37496 0.83293 0.0
H383 H 0.81718 0.41398 0.80699 0.0
H384 H 0.91902 0.55498 0.85113 0.0
H385 H 0.94743 0.53077 0.88719 0.0
H386 H 0.84123 0.40809 0.88198 0.0
C387 C 0.76414 0.4727 0.82389 0.0
C388 C 0.76936 0.51193 0.8178 0.0
C389 C 0.80933 0.54646 0.81569 0.0
C390 C 0.84395 0.54272 0.82224 0.0
C391 C 0.83778 0.50405 0.83025 0.0
C392 C 0.79895 0.46919 0.83014 0.0
C393 C 0.79956 0.43298 0.84379 0.0
C394 C 0.76709 0.41423 0.86634 0.0
C395 C 0.79372 0.40021 0.8232 0.0
C396 C 0.84313 0.45423 0.85465 0.0
C397 C 0.86506 0.49492 0.84595 0.0
C398 C 0.90301 0.52277 0.85711 0.0
C399 C 0.91864 0.50889 0.87782 0.0
C400 C 0.89649 0.46749 0.88702 0.0
C401 C 0.85906 0.43958 0.8747 0.0
H402 H 0.27128 0.77532 0.21085 0.0
H403 H 0.26968 0.78032 0.12425 0.0
H404 H 0.33869 0.84357 0.12467 0.0
H405 H 0.31581 0.88263 0.2201 0.0
H406 H 0.34556 0.88374 0.24895 0.0
H407 H 0.29759 0.83783 0.24158 0.0
H408 H 0.33447 0.7941 0.24092 0.0
H409 H 0.38227 0.83953 0.24921 0.0
H410 H 0.37932 0.81028 0.21999 0.0
H411 H 0.40709 0.90689 0.13537 0.0
H412 H 0.47141 0.96271 0.15504 0.0
H413 H 0.42449 0.91483 0.2345 0.0
C414 C 0.28595 0.78903 0.19192 0.0
C415 C 0.26596 0.77289 0.16749 0.0
C416 C 0.28514 0.79237 0.14312 0.0
C417 C 0.32398 0.82821 0.14321 0.0
C418 C 0.34244 0.84392 0.16784 0.0
C419 C 0.32404 0.82474 0.1917 0.0
C420 C 0.34919 0.84805 0.21555 0.0
C421 C 0.32564 0.86402 0.23253 0.0
C422 C 0.36209 0.8214 0.23239 0.0
C423 C 0.38556 0.88286 0.20142 0.0
C424 C 0.38099 0.88038 0.17395 0.0
C425 C 0.41114 0.90909 0.15684 0.0
C426 C 0.44748 0.94056 0.16816 0.0
C427 C 0.45308 0.9426 0.19621 0.0
C428 C 0.42133 0.91382 0.21295 0.0
H429 H 0.58495 0.29921 0.47747 0.0
H430 H 0.47786 0.23474 0.52894 0.0
H431 H 0.4775 0.29992 0.53684 0.0
H432 H 0.63696 0.38683 0.51696 0.0
H433 H 0.65766 0.42353 0.4897 0.0
H434 H 0.64598 0.37108 0.48488 0.0
H435 H 0.59881 0.36512 0.44493 0.0
H436 H 0.60978 0.41749 0.44991 0.0
H437 H 0.55705 0.37593 0.44975 0.0
H438 H 0.48991 0.37082 0.5409 0.0
H439 H 0.52113 0.44603 0.54694 0.0
H440 H 0.6235 0.46629 0.49577 0.0
C441 C 0.56126 0.29911 0.49005 0.0
C442 C 0.53119 0.26251 0.50253 0.0
C443 C 0.50091 0.26289 0.51926 0.0
C444 C 0.50025 0.29952 0.52362 0.0
C445 C 0.53018 0.33533 0.51108 0.0
C446 C 0.56051 0.33569 0.49493 0.0
C447 C 0.59147 0.37928 0.48625 0.0
C448 C 0.63561 0.39084 0.49499 0.0
C449 C 0.58913 0.38477 0.45591 0.0
C450 C 0.57512 0.40328 0.50141 0.0
C451 C 0.53876 0.37712 0.51462 0.0
C452 C 0.51818 0.39176 0.5305 0.0
C453 C 0.536 0.43443 0.53372 0.0
C454 C 0.57453 0.46158 0.52176 0.0
C455 C 0.59387 0.44593 0.50497 0.0
H456 H 0.30563 0.56536 0.85486 0.0
H457 H 0.26915 0.46226 0.80141 0.0
H458 H 0.20032 0.45622 0.79619 0.0
H459 H 0.21645 0.52538 0.88947 0.0
H460 H 0.21442 0.57239 0.89365 0.0
H461 H 0.26342 0.57456 0.88929 0.0
H462 H 0.28039 0.62354 0.84835 0.0
H463 H 0.23196 0.62282 0.85301 0.0
H464 H 0.24396 0.60902 0.82118 0.0
H465 H 0.1321 0.45161 0.80506 0.0
H466 H 0.07197 0.45749 0.82077 0.0
H467 H 0.15468 0.56638 0.86572 0.0
C468 C 0.2836 0.54271 0.84123 0.0
C469 C 0.29232 0.51448 0.82836 0.0
C470 C 0.26291 0.48456 0.81103 0.0
C471 C 0.22376 0.48074 0.8081 0.0
C472 C 0.2152 0.50767 0.8222 0.0
C473 C 0.24467 0.53887 0.83781 0.0
C474 C 0.22677 0.56164 0.85251 0.0
C475 C 0.23048 0.55825 0.88302 0.0
C476 C 0.24697 0.60694 0.84319 0.0
C477 C 0.18242 0.53752 0.84341 0.0
C478 C 0.17616 0.50628 0.82612 0.0
C479 C 0.13673 0.47693 0.81772 0.0
C480 C 0.10288 0.48031 0.8268 0.0
C481 C 0.10919 0.51316 0.84364 0.0
C482 C 0.14936 0.54198 0.85196 0.0
H483 H 0.78359 0.31733 0.19917 0.0
H484 H 0.78838 0.30813 0.11292 0.0
H485 H 0.71398 0.25796 0.11239 0.0
H486 H 0.72284 0.21313 0.21001 0.0
H487 H 0.69361 0.21681 0.23745 0.0
H488 H 0.74506 0.2582 0.23086 0.0
H489 H 0.71805 0.31032 0.22707 0.0
H490 H 0.66641 0.26922 0.23409 0.0
H491 H 0.67654 0.30038 0.20425 0.0
H492 H 0.64388 0.19983 0.12182 0.0
H493 H 0.58037 0.14101 0.14067 0.0
H494 H 0.62025 0.18839 0.22045 0.0
C495 C 0.7689 0.30519 0.18012 0.0
C496 C 0.7918 0.31663 0.15612 0.0
C497 C 0.77137 0.30031 0.13156 0.0
C498 C 0.72912 0.27168 0.13104 0.0
C499 C 0.70782 0.25987 0.1552 0.0
C500 C 0.72687 0.27641 0.17927 0.0
C501 C 0.69827 0.25529 0.20264 0.0
C502 C 0.716 0.23464 0.22132 0.0
C503 C 0.68928 0.28562 0.2179 0.0
C504 C 0.66045 0.22359 0.18797 0.0
C505 C 0.66658 0.22676 0.1606 0.0
C506 C 0.63809 0.1977 0.14311 0.0
C507 C 0.60238 0.16441 0.15392 0.0
C508 C 0.59548 0.16116 0.18179 0.0
C509 C 0.62448 0.19129 0.19896 0.0
H510 H 0.02946 0.58884 0.08477 0.0
H511 H 0.03902 0.48513 0.11676 0.0
H512 H 0.03003 0.4563 0.07155 0.0
H513 H 0.96249 0.54495 0.03037 0.0
H514 H 0.9925 0.58628 0.00706 0.0
H515 H 0.99522 0.59669 0.04227 0.0
H516 H 0.07487 0.62783 0.0412 0.0
H517 H 0.07244 0.61786 0.00589 0.0
H518 H 0.09652 0.59762 0.02817 0.0
H519 H 0.0144 0.43655 0.02287 0.0
H520 H 1.01002 0.43504 0.97341 0.0
H521 H 0.02497 0.55827 0.97292 0.0
C522 C 0.02909 0.55978 0.08227 0.0
C523 C 0.03119 0.53724 0.10449 0.0
C524 C 0.03363 0.50092 0.10029 0.0
C525 C 0.02935 0.48471 0.07461 0.0
C526 C 0.0256 0.50681 0.0532 0.0
C527 C 0.02749 0.54452 0.05664 0.0
C528 C 0.0287 0.56484 0.03007 0.0
C529 C 0.99255 0.57368 0.0273 0.0
C530 C 0.07061 0.60438 0.02611 0.0
C531 C 0.02426 0.53139 0.01127 0.0
C532 C 0.0223 0.49804 0.02497 0.0
C533 C 0.01667 0.46278 0.01185 0.0
C534 C 1.01392 0.46206 0.98386 0.0
C535 C 0.01749 0.49663 0.9695 0.0
C536 C 0.02259 0.53158 0.98344 0.0
H537 H 0.56206 0.08311 0.43147 0.0
H538 H 0.5154 0.95177 0.44179 0.0
H539 H 0.49894 0.94126 0.39351 0.0
H540 H 0.48419 0.07147 0.37837 0.0
H541 H 0.52151 0.11732 0.36087 0.0
H542 H 0.52434 0.11369 0.39672 0.0
H543 H 0.60012 0.12904 0.39258 0.0
H544 H 0.59747 0.13242 0.35682 0.0
H545 H 0.61166 0.0968 0.3717 0.0
H546 H 0.49781 0.94655 0.34425 0.0
H547 H 0.50726 0.96663 0.29638 0.0
H548 H 0.55131 0.09409 0.3177 0.0
C549 C 0.54778 0.05219 0.42342 0.0
C550 C 0.54022 0.01816 0.43975 0.0
C551 C 0.52148 0.978 0.42913 0.0
C552 C 0.51186 0.9718 0.40193 0.0
C553 C 0.52056 1.0061 0.386 0.0
C554 C 0.5374 0.04544 0.39636 0.0
C555 C 0.54561 0.07716 0.37458 0.0
C556 C 0.51722 0.09602 0.37783 0.0
C557 C 0.59144 0.11081 0.37389 0.0
C558 C 0.53381 0.04995 0.35022 0.0
C559 C 0.51869 0.00895 0.35734 0.0
C560 C 0.50877 0.97835 0.33839 0.0
C561 C 0.51455 0.99 0.3114 0.0
C562 C 0.53003 0.03171 0.30385 0.0
C563 C 0.53924 0.06199 0.32332 0.0
H564 H 0.50365 0.45422 0.75481 0.0
H565 H 0.55039 0.58069 0.77975 0.0
H566 H 0.56996 0.60495 0.73331 0.0
H567 H 0.58574 0.47903 0.70749 0.0
H568 H 0.55325 0.4404 0.68377 0.0
H569 H 0.5407 0.4326 0.71885 0.0
H570 H 0.46787 0.42226 0.70843 0.0
H571 H 0.48026 0.43034 0.67332 0.0
H572 H 0.46309 0.46178 0.69019 0.0
H573 H 0.58757 0.61616 0.68523 0.0
H574 H 0.60415 0.61392 0.63772 0.0
H575 H 0.54555 0.48044 0.64255 0.0
C576 C 0.5177 0.48692 0.75031 0.0
C577 C 0.5255 0.51573 0.77074 0.0
C578 C 0.54449 0.55831 0.76437 0.0
C579 C 0.55545 0.57231 0.73803 0.0
C580 C 0.54758 0.54332 0.7183 0.0
C581 C 0.52946 0.50155 0.72403 0.0
C582 C 0.52693 0.47741 0.69918 0.0
C583 C 0.55321 0.4561 0.70253 0.0
C584 C 0.48184 0.4461 0.69238 0.0
C585 C 0.54575 0.51209 0.67857 0.0
C586 C 0.55762 0.54984 0.69018 0.0
C587 C 0.57813 0.5868 0.67582 0.0
C588 C 0.58747 0.58527 0.64893 0.0
C589 C 0.57579 0.54706 0.63665 0.0
C590 C 0.55405 0.50994 0.65149 0.0
H591 H 0.54145 0.98557 0.59955 0.0
H592 H 0.52772 0.09419 0.59107 0.0
H593 H 0.53161 0.10244 0.64012 0.0
H594 H 0.47864 0.94438 0.65623 0.0
H595 H 0.50955 0.92568 0.67273 0.0
H596 H 0.51084 0.93069 0.63687 0.0
H597 H 0.59029 0.97754 0.63806 0.0
H598 H 0.58936 0.97234 0.67396 0.0
H599 H 0.61264 0.02291 0.65863 0.0
H600 H 0.53037 0.09552 0.68998 0.0
H601 H 0.52683 0.0756 0.73728 0.0
H602 H 0.54142 0.97117 0.71474 0.0
C603 C 0.54044 0.01167 0.60811 0.0
C604 C 0.53488 0.0397 0.59159 0.0
C605 C 0.53247 0.07278 0.60342 0.0
C606 C 0.53457 0.07764 0.63126 0.0
C607 C 0.53904 0.04907 0.64715 0.0
C608 C 0.54237 0.01691 0.63608 0.0
C609 C 0.54484 0.98943 0.65795 0.0
C610 C 0.50881 0.94491 0.65581 0.0
C611 C 0.58678 0.99064 0.6571 0.0
C612 C 0.54103 0.01045 0.68288 0.0
C613 C 0.53816 0.045 0.67613 0.0
C614 C 0.53314 0.06879 0.69554 0.0
C615 C 0.53117 0.05718 0.72257 0.0
C616 C 0.53411 0.02195 0.73025 0.0
C617 C 0.53919 0.99843 0.70986 0.0
H618 H 0.57831 0.57607 0.93595 0.0
H619 H 0.47391 0.45585 0.91873 0.0
H620 H 0.45514 0.44602 0.96698 0.0
H621 H 0.60822 0.54766 0.99556 0.0
H622 H 0.62378 0.59606 0.01191 0.0
H623 H 0.62569 0.59438 0.97607 0.0
H624 H 0.57903 0.62795 0.97226 0.0
H625 H 0.57681 0.62953 0.00818 0.0
H626 H 0.52971 0.60412 0.98905 0.0
H627 H 0.44977 0.44982 0.01885 0.0
H628 H 0.46233 0.46368 0.06754 0.0
H629 H 0.57272 0.57933 0.04951 0.0
C630 C 0.5512 0.54777 0.94222 0.0
C631 C 0.52747 0.51678 0.9235 0.0
C632 C 0.4925 0.48008 0.93268 0.0
C633 C 0.48157 0.47435 0.96006 0.0
C634 C 0.50598 0.50558 0.97805 0.0
C635 C 0.54023 0.54147 0.96933 0.0
C636 C 0.56317 0.56944 0.99247 0.0
C637 C 0.60785 0.57732 0.9941 0.0
C638 C 0.56211 0.61017 0.99035 0.0
C639 C 0.53737 0.54342 0.01582 0.0
C640 C 0.50384 0.50708 0.00725 0.0
C641 C 0.47589 0.4783 0.0256 0.0
C642 C 0.48303 0.48649 0.05323 0.0
C643 C 0.51824 0.52275 0.06223 0.0
C644 C 0.54531 0.55157 0.04317 0.0
H645 H 0.98913 0.46875 0.27361 0.0
H646 H 0.06063 0.59702 0.24935 0.0
H647 H 0.07725 0.61703 0.29683 0.0
H648 H 0.94492 0.48602 0.33268 0.0
H649 H 0.94646 0.44513 0.35142 0.0
H650 H 0.94149 0.44205 0.31559 0.0
H651 H 1.00629 0.43321 0.31259 0.0
H652 H 1.01174 0.43665 0.3484 0.0
H653 H 0.05416 0.47142 0.32731 0.0
H654 H 0.0882 0.62157 0.34857 0.0
H655 H 0.08618 0.61126 0.39776 0.0
H656 H 1.00369 0.48014 0.38739 0.0
C657 C 1.00821 0.50117 0.27819 0.0
C658 C 0.02393 0.53133 0.25749 0.0
C659 C 0.04848 0.57331 0.26459 0.0
C660 C 0.0581 0.58489 0.29165 0.0
C661 C 0.04253 0.55413 0.31153 0.0
C662 C 0.01759 0.51315 0.30499 0.0
C663 C 1.00369 0.48581 0.3298 0.0
C664 C 0.95633 0.46344 0.33253 0.0
C665 C 0.01994 0.45495 0.3295 0.0
C666 C 0.02444 0.51762 0.35154 0.0
C667 C 0.04728 0.55687 0.3407 0.0
C668 C 0.07009 0.59093 0.3571 0.0
C669 C 0.06895 0.58477 0.3851 0.0
C670 C 0.04464 0.54494 0.39665 0.0
C671 C 0.02234 0.51107 0.37938 0.0
loop_
_geom_bond_atom_site_label_1
_geom_bond_atom_site_label_2
_geom_bond_distance
_geom_bond_site_symmetry_2
_ccdc_geom_bond_type
Tb0 C2 2.809 . S
Tb0 O20 2.484 . S
Tb0 O21 2.440 . S
Tb0 O22 2.660 . S
Tb0 O23 2.409 . S
Tb0 O24 2.378 . S
Tb0 O28 2.325 . S
Tb0 O31 2.341 1_455 S
Tb1 C11 2.809 . S
Tb1 O22 2.328 1_655 S
Tb1 O25 2.341 1_655 S
Tb1 O26 2.484 . S
Tb1 O27 2.440 . S
Tb1 O28 2.658 1_655 S
Tb1 O29 2.409 . S
Tb1 O30 2.378 . S
C2 Tb0 2.809 . S
C2 C3 1.514 . S
C2 O20 1.248 . S
C2 O21 1.266 . S
C3 C2 1.514 . S
C3 C4 1.359 . S
C3 C8 1.348 . S
C4 C3 1.359 . S
C4 C5 1.380 . S
C4 H32 0.929 . S
C5 C4 1.380 . S
C5 C6 1.347 . S
C5 H33 0.931 . S
C6 C5 1.347 . S
C6 C7 1.369 . S
C7 C6 1.369 . S
C7 C8 1.408 . S
C7 H34 0.930 . S
C8 C3 1.348 . S
C8 C7 1.408 . S
C8 H35 0.930 . S
C9 O22 1.285 . S
C9 O23 1.254 . S
C10 O24 1.236 . S
C10 O25 1.266 . S
C11 Tb1 2.809 . S
C11 C12 1.514 . S
C11 O26 1.248 . S
C11 O27 1.266 . S
C12 C11 1.514 . S
C12 C13 1.359 . S
C12 C17 1.348 . S
C13 C12 1.359 . S
C13 C14 1.380 . S
C13 H36 0.929 . S
C14 C13 1.380 . S
C14 C15 1.347 . S
C14 H37 0.931 . S
C15 C14 1.347 . S
C15 C16 1.369 . S
C16 C15 1.369 . S
C16 C17 1.408 . S
C16 H38 0.930 . S
C17 C12 1.348 . S
C17 C16 1.408 . S
C17 H39 0.930 . S
C18 O28 1.281 . S
C18 O29 1.254 1_455 S
C19 O30 1.236 . S
C19 O31 1.266 . S
O20 Tb0 2.484 . S
O20 C2 1.248 . S
O21 Tb0 2.440 . S
O21 C2 1.266 . S
O22 Tb0 2.660 . S
O22 Tb1 2.328 1_455 S
O22 C9 1.285 . S
O23 Tb0 2.409 . S
O23 C9 1.254 . S
O24 Tb0 2.378 . S
O24 C10 1.236 . S
O25 Tb1 2.341 1_455 S
O25 C10 1.266 . S
O26 Tb1 2.484 . S
O26 C11 1.248 . S
O27 Tb1 2.440 . S
O27 C11 1.266 . S
O28 Tb0 2.325 . S
O28 Tb1 2.658 1_455 S
O28 C18 1.281 . S
O29 Tb1 2.409 . S
O29 C18 1.254 1_655 S
O30 Tb1 2.378 . S
O30 C19 1.236 . S
O31 Tb0 2.341 1_655 S
O31 C19 1.266 . S
H32 C4 0.929 . S
H33 C5 0.931 . S
H34 C7 0.930 . S
H35 C8 0.930 . S
H36 C13 0.929 . S
H37 C14 0.931 . S
H38 C16 0.930 . S
H39 C17 0.930 . S
Tb40 C42 2.809 . S
Tb40 O60 2.484 . S
Tb40 O61 2.440 . S
Tb40 O62 2.658 1_565 S
Tb40 O63 2.409 . S
Tb40 O64 2.378 . S
Tb40 O68 2.325 1_565 S
Tb40 O71 2.341 1_565 S
Tb41 C51 2.809 . S
Tb41 O62 2.325 . S
Tb41 O65 2.341 1_545 S
Tb41 O66 2.484 . S
Tb41 O67 2.440 . S
Tb41 O68 2.658 . S
Tb41 O69 2.409 . S
Tb41 O70 2.378 . S
C42 Tb40 2.809 . S
C42 C43 1.514 . S
C42 O60 1.248 . S
C42 O61 1.266 . S
C43 C42 1.514 . S
C43 C44 1.359 . S
C43 C48 1.348 . S
C44 C43 1.359 . S
C44 C45 1.380 . S
C44 H72 0.929 . S
C45 C44 1.380 . S
C45 C46 1.347 . S
C45 H73 0.931 . S
C46 C45 1.347 . S
C46 C47 1.369 . S
C47 C46 1.369 . S
C47 C48 1.408 . S
C47 H74 0.930 . S
C48 C43 1.348 . S
C48 C47 1.408 . S
C48 H75 0.930 . S
C49 O62 1.281 . S
C49 O63 1.252 1_545 S
C50 O64 1.236 . S
C50 O65 1.266 . S
C51 Tb41 2.809 . S
C51 C52 1.514 . S
C51 O66 1.248 . S
C51 O67 1.266 . S
C52 C51 1.514 . S
C52 C53 1.359 . S
C52 C57 1.348 . S
C53 C52 1.359 . S
C53 C54 1.380 . S
C53 H76 0.929 . S
C54 C53 1.380 . S
C54 C55 1.347 . S
C54 H77 0.931 . S
C55 C54 1.347 . S
C55 C56 1.369 . S
C56 C55 1.369 . S
C56 C57 1.408 . S
C56 H78 0.930 . S
C57 C52 1.348 . S
C57 C56 1.408 . S
C57 H79 0.930 . S
C58 O68 1.281 . S
C58 O69 1.254 . S
C59 O70 1.236 . S
C59 O71 1.266 . S
O60 Tb40 2.484 . S
O60 C42 1.248 . S
O61 Tb40 2.440 . S
O61 C42 1.266 . S
O62 Tb40 2.658 1_545 S
O62 Tb41 2.325 . S
O62 C49 1.281 . S
O63 Tb40 2.409 . S
O63 C49 1.252 1_565 S
O64 Tb40 2.378 . S
O64 C50 1.236 . S
O65 Tb41 2.341 1_565 S
O65 C50 1.266 . S
O66 Tb41 2.484 . S
O66 C51 1.248 . S
O67 Tb41 2.440 . S
O67 C51 1.266 . S
O68 Tb40 2.325 1_545 S
O68 Tb41 2.658 . S
O68 C58 1.281 . S
O69 Tb41 2.409 . S
O69 C58 1.254 . S
O70 Tb41 2.378 . S
O70 C59 1.236 . S
O71 Tb40 2.341 1_545 S
O71 C59 1.266 . S
H72 C44 0.929 . S
H73 C45 0.931 . S
H74 C47 0.930 . S
H75 C48 0.930 . S
H76 C53 0.929 . S
H77 C54 0.931 . S
H78 C56 0.930 . S
H79 C57 0.930 . S
Tb80 C82 2.809 . S
Tb80 O100 2.484 . S
Tb80 O101 2.440 . S
Tb80 O102 2.658 . S
Tb80 O103 2.409 . S
Tb80 O104 2.378 . S
Tb80 O108 2.325 . S
Tb80 O111 2.341 . S
Tb81 C91 2.809 . S
Tb81 O102 2.325 . S
Tb81 O105 2.341 . S
Tb81 O106 2.484 . S
Tb81 O107 2.440 . S
Tb81 O108 2.658 . S
Tb81 O109 2.409 . S
Tb81 O110 2.378 . S
C82 Tb80 2.809 . S
C82 C83 1.514 . S
C82 O100 1.248 . S
C82 O101 1.266 . S
C83 C82 1.514 . S
C83 C84 1.359 . S
C83 C88 1.348 . S
C84 C83 1.359 . S
C84 C85 1.380 . S
C84 H112 0.929 . S
C85 C84 1.380 . S
C85 C86 1.347 . S
C85 H113 0.931 . S
C86 C85 1.347 . S
C86 C87 1.369 . S
C87 C86 1.369 . S
C87 C88 1.408 . S
C87 H114 0.930 . S
C88 C83 1.348 . S
C88 C87 1.408 . S
C88 H115 0.930 . S
C89 O102 1.281 . S
C89 O103 1.254 . S
C90 O104 1.236 . S
C90 O105 1.266 . S
C91 Tb81 2.809 . S
C91 C92 1.514 . S
C91 O106 1.248 . S
C91 O107 1.266 . S
C92 C91 1.514 . S
C92 C93 1.359 . S
C92 C97 1.348 . S
C93 C92 1.359 . S
C93 C94 1.380 . S
C93 H116 0.929 . S
C94 C93 1.380 . S
C94 C95 1.347 . S
C94 H117 0.931 . S
C95 C94 1.347 . S
C95 C96 1.369 . S
C96 C95 1.369 . S
C96 C97 1.408 . S
C96 H118 0.930 . S
C97 C92 1.348 . S
C97 C96 1.408 . S
C97 H119 0.930 . S
C98 O108 1.281 . S
C98 O109 1.254 . S
C99 O110 1.236 . S
C99 O111 1.266 . S
O100 Tb80 2.484 . S
O100 C82 1.248 . S
O101 Tb80 2.440 . S
O101 C82 1.266 . S
O102 Tb80 2.658 . S
O102 Tb81 2.325 . S
O102 C89 1.281 . S
O103 Tb80 2.409 . S
O103 C89 1.254 . S
O104 Tb80 2.378 . S
O104 C90 1.236 . S
O105 Tb81 2.341 . S
O105 C90 1.266 . S
O106 Tb81 2.484 . S
O106 C91 1.248 . S
O107 Tb81 2.440 . S
O107 C91 1.266 . S
O108 Tb80 2.325 . S
O108 Tb81 2.658 . S
O108 C98 1.281 . S
O109 Tb81 2.409 . S
O109 C98 1.254 . S
O110 Tb81 2.378 . S
O110 C99 1.236 . S
O111 Tb80 2.341 . S
O111 C99 1.266 . S
H112 C84 0.929 . S
H113 C85 0.931 . S
H114 C87 0.930 . S
H115 C88 0.930 . S
H116 C93 0.929 . S
H117 C94 0.931 . S
H118 C96 0.930 . S
H119 C97 0.930 . S
O120 Cd121 2.300 . S
O120 C127 1.275 . S
Cd121 O120 2.300 . S
Cd121 O129 2.381 . S
Cd121 O130 2.378 . S
O122 Cd123 2.385 1_545 S
O122 C127 1.255 . S
Cd123 O122 2.385 1_565 S
Cd123 O124 2.317 . S
O124 Cd123 2.317 . S
O124 C125 1.232 . S
C125 O124 1.232 . S
C125 O126 1.218 . S
O126 C125 1.218 . S
C127 O120 1.275 . S
C127 O122 1.255 . S
C128 O129 1.258 . S
C128 O130 1.256 . S
O129 Cd121 2.381 . S
O129 C128 1.258 . S
O130 Cd121 2.378 . S
O130 C128 1.256 . S
O131 Cd132 2.300 . S
O131 C138 1.275 . S
Cd132 O131 2.300 . S
Cd132 O140 2.381 . S
Cd132 O141 2.378 . S
O133 Cd134 2.385 . S
O133 C138 1.255 . S
Cd134 O133 2.385 . S
Cd134 O135 2.317 . S
O135 Cd134 2.317 . S
O135 C136 1.232 . S
C136 O135 1.232 . S
C136 O137 1.218 . S
O137 C136 1.218 . S
C138 O131 1.275 . S
C138 O133 1.255 . S
C139 O140 1.258 . S
C139 O141 1.256 . S
O140 Cd132 2.381 . S
O140 C139 1.258 . S
O141 Cd132 2.378 . S
O141 C139 1.256 . S
O142 Cd143 2.300 . S
O142 C149 1.275 1_455 S
Cd143 O142 2.300 . S
Cd143 O151 2.381 . S
Cd143 O152 2.378 . S
O144 Cd145 2.385 . S
O144 C149 1.255 . S
Cd145 O144 2.385 . S
Cd145 O146 2.317 . S
O146 Cd145 2.317 . S
O146 C147 1.232 . S
C147 O146 1.232 . S
C147 O148 1.218 . S
O148 C147 1.218 . S
C149 O142 1.275 1_655 S
C149 O144 1.255 . S
C150 O151 1.258 . S
C150 O152 1.256 . S
O151 Cd143 2.381 . S
O151 C150 1.258 . S
O152 Cd143 2.378 . S
O152 C150 1.256 . S
O153 Cd154 2.300 . S
O153 C160 1.275 . S
Cd154 O153 2.300 . S
Cd154 O162 2.381 . S
Cd154 O163 2.378 . S
O155 Cd156 2.385 . S
O155 C160 1.255 1_655 S
Cd156 O155 2.385 . S
Cd156 O157 2.317 . S
O157 Cd156 2.317 . S
O157 C158 1.232 . S
C158 O157 1.232 . S
C158 O159 1.218 . S
O159 C158 1.218 . S
C160 O153 1.275 . S
C160 O155 1.255 1_455 S
C161 O162 1.258 . S
C161 O163 1.256 . S
O162 Cd154 2.381 . S
O162 C161 1.258 . S
O163 Cd154 2.378 . S
O163 C161 1.256 . S
O164 Cd165 2.300 . S
O164 C171 1.275 1_565 S
Cd165 O164 2.300 . S
Cd165 O173 2.381 . S
Cd165 O174 2.378 . S
O166 Cd167 2.385 . S
O166 C171 1.255 . S
Cd167 O166 2.385 . S
Cd167 O168 2.317 . S
O168 Cd167 2.317 . S
O168 C169 1.232 . S
C169 O168 1.232 . S
C169 O170 1.218 . S
O170 C169 1.218 . S
C171 O164 1.275 1_545 S
C171 O166 1.255 . S
C172 O173 1.258 . S
C172 O174 1.256 . S
O173 Cd165 2.381 . S
O173 C172 1.258 . S
O174 Cd165 2.378 . S
O174 C172 1.256 . S
O175 Cd176 2.300 . S
O175 C182 1.275 . S
Cd176 O175 2.300 . S
Cd176 O184 2.381 . S
Cd176 O185 2.378 . S
O177 Cd178 2.385 . S
O177 C182 1.255 . S
Cd178 O177 2.385 . S
Cd178 O179 2.317 . S
O179 Cd178 2.317 . S
O179 C180 1.232 . S
C180 O179 1.232 . S
C180 O181 1.218 . S
O181 C180 1.218 . S
C182 O175 1.275 . S
C182 O177 1.255 . S
C183 O184 1.258 . S
C183 O185 1.256 . S
O184 Cd176 2.381 . S
O184 C183 1.258 . S
O185 Cd176 2.378 . S
O185 C183 1.256 . S
H186 C198 0.930 . S
H187 C200 0.930 . S
H188 C201 0.930 . S
H189 C205 0.959 . S
H190 C205 0.959 . S
H191 C205 0.961 . S
H192 C206 0.960 . S
H193 C206 0.961 . S
H194 C206 0.959 . S
H195 C209 0.929 . S
H196 C210 0.931 . S
H197 C212 0.930 . S
C198 H186 0.930 . S
C198 C199 1.399 . S
C198 C203 1.399 . S
C199 C198 1.399 . S
C199 C200 1.376 . S
C200 H187 0.930 . S
C200 C199 1.376 . S
C200 C201 1.388 . S
C201 H188 0.930 . S
C201 C200 1.388 . S
C201 C202 1.390 . S
C202 C201 1.390 . S
C202 C203 1.394 . S
C202 C208 1.465 . S
C203 C198 1.399 . S
C203 C202 1.394 . S
C203 C204 1.516 . S
C204 C203 1.516 . S
C204 C205 1.502 . S
C204 C206 1.561 . S
C204 C207 1.526 . S
C205 H189 0.959 . S
C205 H190 0.959 . S
C205 H191 0.961 . S
C205 C204 1.502 . S
C206 H192 0.960 . S
C206 H193 0.961 . S
C206 H194 0.959 . S
C206 C204 1.561 . S
C207 C204 1.526 . S
C207 C208 1.396 . S
C207 C212 1.390 . S
C208 C202 1.465 . S
C208 C207 1.396 . S
C208 C209 1.399 . S
C209 H195 0.929 . S
C209 C208 1.399 . S
C209 C210 1.385 . S
C210 H196 0.931 . S
C210 C209 1.385 . S
C210 C211 1.389 . S
C211 C210 1.389 . S
C211 C212 1.387 . S
C212 H197 0.930 . S
C212 C207 1.390 . S
C212 C211 1.387 . S
H213 C225 0.930 . S
H214 C227 0.930 . S
H215 C228 0.930 . S
H216 C232 0.959 . S
H217 C232 0.959 . S
H218 C232 0.961 . S
H219 C233 0.960 . S
H220 C233 0.961 . S
H221 C233 0.959 . S
H222 C236 0.929 . S
H223 C237 0.931 . S
H224 C239 0.930 . S
C225 H213 0.930 . S
C225 C226 1.399 . S
C225 C230 1.399 . S
C226 C225 1.399 . S
C226 C227 1.376 . S
C227 H214 0.930 . S
C227 C226 1.376 . S
C227 C228 1.388 . S
C228 H215 0.930 . S
C228 C227 1.388 . S
C228 C229 1.390 . S
C229 C228 1.390 . S
C229 C230 1.394 . S
C229 C235 1.465 . S
C230 C225 1.399 . S
C230 C229 1.394 . S
C230 C231 1.516 . S
C231 C230 1.516 . S
C231 C232 1.502 . S
C231 C233 1.561 . S
C231 C234 1.526 . S
C232 H216 0.959 . S
C232 H217 0.959 . S
C232 H218 0.961 . S
C232 C231 1.502 . S
C233 H219 0.960 . S
C233 H220 0.961 . S
C233 H221 0.959 . S
C233 C231 1.561 . S
C234 C231 1.526 . S
C234 C235 1.396 . S
C234 C239 1.390 . S
C235 C229 1.465 . S
C235 C234 1.396 . S
C235 C236 1.399 . S
C236 H222 0.929 . S
C236 C235 1.399 . S
C236 C237 1.385 . S
C237 H223 0.931 . S
C237 C236 1.385 . S
C237 C238 1.389 . S
C238 C237 1.389 . S
C238 C239 1.387 . S
C239 H224 0.930 . S
C239 C234 1.390 . S
C239 C238 1.387 . S
H240 C252 0.930 . S
H241 C254 0.930 . S
H242 C255 0.930 . S
H243 C259 0.959 . S
H244 C259 0.959 . S
H245 C259 0.961 . S
H246 C260 0.960 . S
H247 C260 0.961 . S
H248 C260 0.959 . S
H249 C263 0.929 . S
H250 C264 0.931 . S
H251 C266 0.930 . S
C252 H240 0.930 . S
C252 C253 1.399 . S
C252 C257 1.399 . S
C253 C252 1.399 . S
C253 C254 1.376 . S
C254 H241 0.930 . S
C254 C253 1.376 . S
C254 C255 1.388 . S
C255 H242 0.930 . S
C255 C254 1.388 . S
C255 C256 1.390 . S
C256 C255 1.390 . S
C256 C257 1.394 . S
C256 C262 1.465 . S
C257 C252 1.399 . S
C257 C256 1.394 . S
C257 C258 1.516 . S
C258 C257 1.516 . S
C258 C259 1.502 . S
C258 C260 1.561 . S
C258 C261 1.526 . S
C259 H243 0.959 . S
C259 H244 0.959 . S
C259 H245 0.961 . S
C259 C258 1.502 . S
C260 H246 0.960 . S
C260 H247 0.961 . S
C260 H248 0.959 . S
C260 C258 1.561 . S
C261 C258 1.526 . S
C261 C262 1.396 . S
C261 C266 1.390 . S
C262 C256 1.465 . S
C262 C261 1.396 . S
C262 C263 1.399 . S
C263 H249 0.929 . S
C263 C262 1.399 . S
C263 C264 1.385 . S
C264 H250 0.931 . S
C264 C263 1.385 . S
C264 C265 1.389 . S
C265 C264 1.389 . S
C265 C266 1.387 . S
C266 H251 0.930 . S
C266 C261 1.390 . S
C266 C265 1.387 . S
H267 C279 0.930 . S
H268 C281 0.930 . S
H269 C282 0.930 . S
H270 C286 0.959 . S
H271 C286 0.959 . S
H272 C286 0.961 . S
H273 C287 0.960 . S
H274 C287 0.961 . S
H275 C287 0.959 . S
H276 C290 0.929 . S
H277 C291 0.931 . S
H278 C293 0.930 . S
C279 H267 0.930 . S
C279 C280 1.399 . S
C279 C284 1.399 . S
C280 C279 1.399 . S
C280 C281 1.376 . S
C281 H268 0.930 . S
C281 C280 1.376 . S
C281 C282 1.388 . S
C282 H269 0.930 . S
C282 C281 1.388 . S
C282 C283 1.390 . S
C283 C282 1.390 . S
C283 C284 1.394 . S
C283 C289 1.465 . S
C284 C279 1.399 . S
C284 C283 1.394 . S
C284 C285 1.516 . S
C285 C284 1.516 . S
C285 C286 1.502 . S
C285 C287 1.561 . S
C285 C288 1.526 . S
C286 H270 0.959 . S
C286 H271 0.959 . S
C286 H272 0.961 . S
C286 C285 1.502 . S
C287 H273 0.960 . S
C287 H274 0.961 . S
C287 H275 0.959 . S
C287 C285 1.561 . S
C288 C285 1.526 . S
C288 C289 1.396 . S
C288 C293 1.390 . S
C289 C283 1.465 . S
C289 C288 1.396 . S
C289 C290 1.399 . S
C290 H276 0.929 . S
C290 C289 1.399 . S
C290 C291 1.385 . S
C291 H277 0.931 . S
C291 C290 1.385 . S
C291 C292 1.389 . S
C292 C291 1.389 . S
C292 C293 1.387 . S
C293 H278 0.930 . S
C293 C288 1.390 . S
C293 C292 1.387 . S
H294 C306 0.930 . S
H295 C308 0.930 . S
H296 C309 0.930 . S
H297 C313 0.959 . S
H298 C313 0.959 . S
H299 C313 0.961 . S
H300 C314 0.960 . S
H301 C314 0.961 . S
H302 C314 0.959 . S
H303 C317 0.929 . S
H304 C318 0.931 . S
H305 C320 0.930 . S
C306 H294 0.930 . S
C306 C307 1.399 . S
C306 C311 1.399 . S
C307 C306 1.399 . S
C307 C308 1.376 . S
C308 H295 0.930 . S
C308 C307 1.376 . S
C308 C309 1.388 . S
C309 H296 0.930 . S
C309 C308 1.388 . S
C309 C310 1.390 . S
C310 C309 1.390 . S
C310 C311 1.394 . S
C310 C316 1.465 . S
C311 C306 1.399 . S
C311 C310 1.394 . S
C311 C312 1.516 . S
C312 C311 1.516 . S
C312 C313 1.502 . S
C312 C314 1.561 . S
C312 C315 1.526 . S
C313 H297 0.959 . S
C313 H298 0.959 . S
C313 H299 0.961 . S
C313 C312 1.502 . S
C314 H300 0.960 . S
C314 H301 0.961 . S
C314 H302 0.959 . S
C314 C312 1.561 . S
C315 C312 1.526 . S
C315 C316 1.396 . S
C315 C320 1.390 . S
C316 C310 1.465 . S
C316 C315 1.396 . S
C316 C317 1.399 . S
C317 H303 0.929 . S
C317 C316 1.399 . S
C317 C318 1.385 . S
C318 H304 0.931 . S
C318 C317 1.385 . S
C318 C319 1.389 . S
C319 C318 1.389 . S
C319 C320 1.387 . S
C320 H305 0.930 . S
C320 C315 1.390 . S
C320 C319 1.387 . S
H321 C333 0.930 . S
H322 C335 0.930 . S
H323 C336 0.930 . S
H324 C340 0.959 . S
H325 C340 0.959 . S
H326 C340 0.961 . S
H327 C341 0.960 . S
H328 C341 0.961 . S
H329 C341 0.959 . S
H330 C344 0.929 . S
H331 C345 0.931 . S
H332 C347 0.930 . S
C333 H321 0.930 . S
C333 C334 1.399 . S
C333 C338 1.399 . S
C334 C333 1.399 . S
C334 C335 1.376 . S
C335 H322 0.930 . S
C335 C334 1.376 . S
C335 C336 1.388 . S
C336 H323 0.930 . S
C336 C335 1.388 . S
C336 C337 1.390 . S
C337 C336 1.390 . S
C337 C338 1.394 . S
C337 C343 1.465 . S
C338 C333 1.399 . S
C338 C337 1.394 . S
C338 C339 1.516 . S
C339 C338 1.516 . S
C339 C340 1.502 . S
C339 C341 1.561 . S
C339 C342 1.526 . S
C340 H324 0.959 . S
C340 H325 0.959 . S
C340 H326 0.961 . S
C340 C339 1.502 . S
C341 H327 0.960 . S
C341 H328 0.961 . S
C341 H329 0.959 . S
C341 C339 1.561 . S
C342 C339 1.526 . S
C342 C343 1.396 . S
C342 C347 1.390 . S
C343 C337 1.465 . S
C343 C342 1.396 . S
C343 C344 1.399 . S
C344 H330 0.929 . S
C344 C343 1.399 . S
C344 C345 1.385 . S
C345 H331 0.931 . S
C345 C344 1.385 . S
C345 C346 1.389 . S
C346 C345 1.389 . S
C346 C347 1.387 . S
C347 H332 0.930 . S
C347 C342 1.390 . S
C347 C346 1.387 . S
H348 C360 0.930 . S
H349 C362 0.930 . S
H350 C363 0.930 . S
H351 C367 0.959 . S
H352 C367 0.959 . S
H353 C367 0.961 . S
H354 C368 0.960 . S
H355 C368 0.961 . S
H356 C368 0.959 . S
H357 C371 0.929 . S
H358 C372 0.931 . S
H359 C374 0.930 . S
C360 H348 0.930 . S
C360 C361 1.399 . S
C360 C365 1.399 . S
C361 C360 1.399 . S
C361 C362 1.376 . S
C362 H349 0.930 . S
C362 C361 1.376 . S
C362 C363 1.388 . S
C363 H350 0.930 . S
C363 C362 1.388 . S
C363 C364 1.390 . S
C364 C363 1.390 . S
C364 C365 1.394 . S
C364 C370 1.465 . S
C365 C360 1.399 . S
C365 C364 1.394 . S
C365 C366 1.516 . S
C366 C365 1.516 . S
C366 C367 1.502 . S
C366 C368 1.561 . S
C366 C369 1.526 . S
C367 H351 0.959 . S
C367 H352 0.959 . S
C367 H353 0.961 . S
C367 C366 1.502 . S
C368 H354 0.960 . S
C368 H355 0.961 . S
C368 H356 0.959 . S
C368 C366 1.561 . S
C369 C366 1.526 . S
C369 C370 1.396 . S
C369 C374 1.390 . S
C370 C364 1.465 . S
C370 C369 1.396 . S
C370 C371 1.399 . S
C371 H357 0.929 . S
C371 C370 1.399 . S
C371 C372 1.385 . S
C372 H358 0.931 . S
C372 C371 1.385 . S
C372 C373 1.389 . S
C373 C372 1.389 . S
C373 C374 1.387 . S
C374 H359 0.930 . S
C374 C369 1.390 . S
C374 C373 1.387 . S
H375 C387 0.930 . S
H376 C389 0.930 . S
H377 C390 0.930 . S
H378 C394 0.959 . S
H379 C394 0.959 . S
H380 C394 0.961 . S
H381 C395 0.960 . S
H382 C395 0.961 . S
H383 C395 0.959 . S
H384 C398 0.929 . S
H385 C399 0.931 . S
H386 C401 0.930 . S
C387 H375 0.930 . S
C387 C388 1.399 . S
C387 C392 1.399 . S
C388 C387 1.399 . S
C388 C389 1.376 . S
C389 H376 0.930 . S
C389 C388 1.376 . S
C389 C390 1.388 . S
C390 H377 0.930 . S
C390 C389 1.388 . S
C390 C391 1.390 . S
C391 C390 1.390 . S
C391 C392 1.394 . S
C391 C397 1.465 . S
C392 C387 1.399 . S
C392 C391 1.394 . S
C392 C393 1.516 . S
C393 C392 1.516 . S
C393 C394 1.502 . S
C393 C395 1.561 . S
C393 C396 1.526 . S
C394 H378 0.959 . S
C394 H379 0.959 . S
C394 H380 0.961 . S
C394 C393 1.502 . S
C395 H381 0.960 . S
C395 H382 0.961 . S
C395 H383 0.959 . S
C395 C393 1.561 . S
C396 C393 1.526 . S
C396 C397 1.396 . S
C396 C401 1.390 . S
C397 C391 1.465 . S
C397 C396 1.396 . S
C397 C398 1.399 . S
C398 H384 0.929 . S
C398 C397 1.399 . S
C398 C399 1.385 . S
C399 H385 0.931 . S
C399 C398 1.385 . S
C399 C400 1.389 . S
C400 C399 1.389 . S
C400 C401 1.387 . S
C401 H386 0.930 . S
C401 C396 1.390 . S
C401 C400 1.387 . S
H402 C414 0.930 . S
H403 C416 0.930 . S
H404 C417 0.930 . S
H405 C421 0.959 . S
H406 C421 0.959 . S
H407 C421 0.961 . S
H408 C422 0.960 . S
H409 C422 0.961 . S
H410 C422 0.959 . S
H411 C425 0.929 . S
H412 C426 0.931 . S
H413 C428 0.930 . S
C414 H402 0.930 . S
C414 C415 1.399 . S
C414 C419 1.399 . S
C415 C414 1.399 . S
C415 C416 1.376 . S
C416 H403 0.930 . S
C416 C415 1.376 . S
C416 C417 1.388 . S
C417 H404 0.930 . S
C417 C416 1.388 . S
C417 C418 1.390 . S
C418 C417 1.390 . S
C418 C419 1.394 . S
C418 C424 1.465 . S
C419 C414 1.399 . S
C419 C418 1.394 . S
C419 C420 1.516 . S
C420 C419 1.516 . S
C420 C421 1.502 . S
C420 C422 1.561 . S
C420 C423 1.526 . S
C421 H405 0.959 . S
C421 H406 0.959 . S
C421 H407 0.961 . S
C421 C420 1.502 . S
C422 H408 0.960 . S
C422 H409 0.961 . S
C422 H410 0.959 . S
C422 C420 1.561 . S
C423 C420 1.526 . S
C423 C424 1.396 . S
C423 C428 1.390 . S
C424 C418 1.465 . S
C424 C423 1.396 . S
C424 C425 1.399 . S
C425 H411 0.929 . S
C425 C424 1.399 . S
C425 C426 1.385 . S
C426 H412 0.931 . S
C426 C425 1.385 . S
C426 C427 1.389 . S
C427 C426 1.389 . S
C427 C428 1.387 . S
C428 H413 0.930 . S
C428 C423 1.390 . S
C428 C427 1.387 . S
H429 C441 0.930 . S
H430 C443 0.930 . S
H431 C444 0.930 . S
H432 C448 0.959 . S
H433 C448 0.959 . S
H434 C448 0.961 . S
H435 C449 0.960 . S
H436 C449 0.961 . S
H437 C449 0.959 . S
H438 C452 0.929 . S
H439 C453 0.931 . S
H440 C455 0.930 . S
C441 H429 0.930 . S
C441 C442 1.399 . S
C441 C446 1.399 . S
C442 C441 1.399 . S
C442 C443 1.376 . S
C443 H430 0.930 . S
C443 C442 1.376 . S
C443 C444 1.388 . S
C444 H431 0.930 . S
C444 C443 1.388 . S
C444 C445 1.390 . S
C445 C444 1.390 . S
C445 C446 1.394 . S
C445 C451 1.465 . S
C446 C441 1.399 . S
C446 C445 1.394 . S
C446 C447 1.516 . S
C447 C446 1.516 . S
C447 C448 1.502 . S
C447 C449 1.561 . S
C447 C450 1.526 . S
C448 H432 0.959 . S
C448 H433 0.959 . S
C448 H434 0.961 . S
C448 C447 1.502 . S
C449 H435 0.960 . S
C449 H436 0.961 . S
C449 H437 0.959 . S
C449 C447 1.561 . S
C450 C447 1.526 . S
C450 C451 1.396 . S
C450 C455 1.390 . S
C451 C445 1.465 . S
C451 C450 1.396 . S
C451 C452 1.399 . S
C452 H438 0.929 . S
C452 C451 1.399 . S
C452 C453 1.385 . S
C453 H439 0.931 . S
C453 C452 1.385 . S
C453 C454 1.389 . S
C454 C453 1.389 . S
C454 C455 1.387 . S
C455 H440 0.930 . S
C455 C450 1.390 . S
C455 C454 1.387 . S
H456 C468 0.930 . S
H457 C470 0.930 . S
H458 C471 0.930 . S
H459 C475 0.959 . S
H460 C475 0.959 . S
H461 C475 0.961 . S
H462 C476 0.960 . S
H463 C476 0.961 . S
H464 C476 0.959 . S
H465 C479 0.929 . S
H466 C480 0.931 . S
H467 C482 0.930 . S
C468 H456 0.930 . S
C468 C469 1.399 . S
C468 C473 1.399 . S
C469 C468 1.399 . S
C469 C470 1.376 . S
C470 H457 0.930 . S
C470 C469 1.376 . S
C470 C471 1.388 . S
C471 H458 0.930 . S
C471 C470 1.388 . S
C471 C472 1.390 . S
C472 C471 1.390 . S
C472 C473 1.394 . S
C472 C478 1.465 . S
C473 C468 1.399 . S
C473 C472 1.394 . S
C473 C474 1.516 . S
C474 C473 1.516 . S
C474 C475 1.502 . S
C474 C476 1.561 . S
C474 C477 1.526 . S
C475 H459 0.959 . S
C475 H460 0.959 . S
C475 H461 0.961 . S
C475 C474 1.502 . S
C476 H462 0.960 . S
C476 H463 0.961 . S
C476 H464 0.959 . S
C476 C474 1.561 . S
C477 C474 1.526 . S
C477 C478 1.396 . S
C477 C482 1.390 . S
C478 C472 1.465 . S
C478 C477 1.396 . S
C478 C479 1.399 . S
C479 H465 0.929 . S
C479 C478 1.399 . S
C479 C480 1.385 . S
C480 H466 0.931 . S
C480 C479 1.385 . S
C480 C481 1.389 . S
C481 C480 1.389 . S
C481 C482 1.387 . S
C482 H467 0.930 . S
C482 C477 1.390 . S
C482 C481 1.387 . S
H483 C495 0.930 . S
H484 C497 0.930 . S
H485 C498 0.930 . S
H486 C502 0.959 . S
H487 C502 0.959 . S
H488 C502 0.961 . S
H489 C503 0.960 . S
H490 C503 0.961 . S
H491 C503 0.959 . S
H492 C506 0.929 . S
H493 C507 0.931 . S
H494 C509 0.930 . S
C495 H483 0.930 . S
C495 C496 1.399 . S
C495 C500 1.399 . S
C496 C495 1.399 . S
C496 C497 1.376 . S
C497 H484 0.930 . S
C497 C496 1.376 . S
C497 C498 1.388 . S
C498 H485 0.930 . S
C498 C497 1.388 . S
C498 C499 1.390 . S
C499 C498 1.390 . S
C499 C500 1.394 . S
C499 C505 1.465 . S
C500 C495 1.399 . S
C500 C499 1.394 . S
C500 C501 1.516 . S
C501 C500 1.516 . S
C501 C502 1.502 . S
C501 C503 1.561 . S
C501 C504 1.526 . S
C502 H486 0.959 . S
C502 H487 0.959 . S
C502 H488 0.961 . S
C502 C501 1.502 . S
C503 H489 0.960 . S
C503 H490 0.961 . S
C503 H491 0.959 . S
C503 C501 1.561 . S
C504 C501 1.526 . S
C504 C505 1.396 . S
C504 C509 1.390 . S
C505 C499 1.465 . S
C505 C504 1.396 . S
C505 C506 1.399 . S
C506 H492 0.929 . S
C506 C505 1.399 . S
C506 C507 1.385 . S
C507 H493 0.931 . S
C507 C506 1.385 . S
C507 C508 1.389 . S
C508 C507 1.389 . S
C508 C509 1.387 . S
C509 H494 0.930 . S
C509 C504 1.390 . S
C509 C508 1.387 . S
H510 C522 0.930 . S
H511 C524 0.930 . S
H512 C525 0.930 . S
H513 C529 0.959 1_655 S
H514 C529 0.959 . S
H515 C529 0.961 . S
H516 C530 0.960 . S
H517 C530 0.961 . S
H518 C530 0.959 . S
H519 C533 0.929 1_554 S
H520 C534 0.931 . S
H521 C536 0.930 . S
C522 H510 0.930 . S
C522 C523 1.399 . S
C522 C527 1.399 . S
C523 C522 1.399 . S
C523 C524 1.376 1_455 S
C524 H511 0.930 . S
C524 C523 1.376 1_655 S
C524 C525 1.388 . S
C525 H512 0.930 . S
C525 C524 1.388 . S
C525 C526 1.390 1_655 S
C526 C525 1.390 1_455 S
C526 C527 1.394 . S
C526 C532 1.465 1_455 S
C527 C522 1.399 . S
C527 C526 1.394 . S
C527 C528 1.516 . S
C528 C527 1.516 . S
C528 C529 1.502 . S
C528 C530 1.561 . S
C528 C531 1.522 1_554 S
C529 H513 0.959 1_455 S
C529 H514 0.959 . S
C529 H515 0.961 . S
C529 C528 1.502 . S
C530 H516 0.960 . S
C530 H517 0.961 . S
C530 H518 0.959 . S
C530 C528 1.561 . S
C531 C528 1.522 1_556 S
C531 C532 1.394 1_456 S
C531 C536 1.395 . S
C532 C526 1.465 1_655 S
C532 C531 1.394 1_654 S
C532 C533 1.399 1_554 S
C533 H519 0.929 1_556 S
C533 C532 1.399 1_556 S
C533 C534 1.385 . S
C534 H520 0.931 . S
C534 C533 1.385 . S
C534 C535 1.389 . S
C535 C534 1.389 . S
C535 C536 1.387 1_655 S
C536 H521 0.930 . S
C536 C531 1.395 . S
C536 C535 1.387 1_455 S
H537 C549 0.930 . S
H538 C551 0.930 . S
H539 C552 0.930 . S
H540 C556 0.959 . S
H541 C556 0.959 . S
H542 C556 0.961 . S
H543 C557 0.960 . S
H544 C557 0.961 . S
H545 C557 0.959 . S
H546 C560 0.929 . S
H547 C561 0.931 . S
H548 C563 0.930 . S
C549 H537 0.930 . S
C549 C550 1.399 . S
C549 C554 1.399 . S
C550 C549 1.399 . S
C550 C551 1.376 1_545 S
C551 H538 0.930 . S
C551 C550 1.376 1_565 S
C551 C552 1.388 . S
C552 H539 0.930 . S
C552 C551 1.388 . S
C552 C553 1.390 1_565 S
C553 C552 1.390 1_545 S
C553 C554 1.394 . S
C553 C559 1.465 . S
C554 C549 1.399 . S
C554 C553 1.394 . S
C554 C555 1.516 . S
C555 C554 1.516 . S
C555 C556 1.502 . S
C555 C557 1.561 . S
C555 C558 1.526 . S
C556 H540 0.959 . S
C556 H541 0.959 . S
C556 H542 0.961 . S
C556 C555 1.502 . S
C557 H543 0.960 . S
C557 H544 0.961 . S
C557 H545 0.959 . S
C557 C555 1.561 . S
C558 C555 1.526 . S
C558 C559 1.396 . S
C558 C563 1.390 . S
C559 C553 1.465 . S
C559 C558 1.396 . S
C559 C560 1.399 1_545 S
C560 H546 0.929 . S
C560 C559 1.399 1_565 S
C560 C561 1.385 . S
C561 H547 0.931 . S
C561 C560 1.385 . S
C561 C562 1.389 1_565 S
C562 C561 1.389 1_545 S
C562 C563 1.387 . S
C563 H548 0.930 . S
C563 C558 1.390 . S
C563 C562 1.387 . S
H564 C576 0.930 . S
H565 C578 0.930 . S
H566 C579 0.930 . S
H567 C583 0.959 . S
H568 C583 0.959 . S
H569 C583 0.961 . S
H570 C584 0.960 . S
H571 C584 0.961 . S
H572 C584 0.959 . S
H573 C587 0.929 . S
H574 C588 0.931 . S
H575 C590 0.930 . S
C576 H564 0.930 . S
C576 C577 1.399 . S
C576 C581 1.399 . S
C577 C576 1.399 . S
C577 C578 1.376 . S
C578 H565 0.930 . S
C578 C577 1.376 . S
C578 C579 1.388 . S
C579 H566 0.930 . S
C579 C578 1.388 . S
C579 C580 1.390 . S
C580 C579 1.390 . S
C580 C581 1.394 . S
C580 C586 1.465 . S
C581 C576 1.399 . S
C581 C580 1.394 . S
C581 C582 1.516 . S
C582 C581 1.516 . S
C582 C583 1.502 . S
C582 C584 1.561 . S
C582 C585 1.526 . S
C583 H567 0.959 . S
C583 H568 0.959 . S
C583 H569 0.961 . S
C583 C582 1.502 . S
C584 H570 0.960 . S
C584 H571 0.961 . S
C584 H572 0.959 . S
C584 C582 1.561 . S
C585 C582 1.526 . S
C585 C586 1.396 . S
C585 C590 1.390 . S
C586 C580 1.465 . S
C586 C585 1.396 . S
C586 C587 1.399 . S
C587 H573 0.929 . S
C587 C586 1.399 . S
C587 C588 1.385 . S
C588 H574 0.931 . S
C588 C587 1.385 . S
C588 C589 1.389 . S
C589 C588 1.389 . S
C589 C590 1.387 . S
C590 H575 0.930 . S
C590 C585 1.390 . S
C590 C589 1.387 . S
H591 C603 0.930 . S
H592 C605 0.930 . S
H593 C606 0.930 . S
H594 C610 0.959 . S
H595 C610 0.959 . S
H596 C610 0.961 . S
H597 C611 0.960 . S
H598 C611 0.961 . S
H599 C611 0.959 1_545 S
H600 C614 0.929 . S
H601 C615 0.931 . S
H602 C617 0.930 . S
C603 H591 0.930 . S
C603 C604 1.399 1_565 S
C603 C608 1.399 1_565 S
C604 C603 1.399 1_545 S
C604 C605 1.376 . S
C605 H592 0.930 . S
C605 C604 1.376 . S
C605 C606 1.388 . S
C606 H593 0.930 . S
C606 C605 1.388 . S
C606 C607 1.390 . S
C607 C606 1.390 . S
C607 C608 1.394 . S
C607 C613 1.465 . S
C608 C603 1.399 1_545 S
C608 C607 1.394 . S
C608 C609 1.516 1_545 S
C609 C608 1.516 1_565 S
C609 C610 1.502 . S
C609 C611 1.561 . S
C609 C612 1.526 1_565 S
C610 H594 0.959 . S
C610 H595 0.959 . S
C610 H596 0.961 . S
C610 C609 1.502 . S
C611 H597 0.960 . S
C611 H598 0.961 . S
C611 H599 0.959 1_565 S
C611 C609 1.561 . S
C612 C609 1.526 1_545 S
C612 C613 1.396 . S
C612 C617 1.390 1_545 S
C613 C607 1.465 . S
C613 C612 1.396 . S
C613 C614 1.399 . S
C614 H600 0.929 . S
C614 C613 1.399 . S
C614 C615 1.385 . S
C615 H601 0.931 . S
C615 C614 1.385 . S
C615 C616 1.389 . S
C616 C615 1.389 . S
C616 C617 1.387 1_545 S
C617 H602 0.930 . S
C617 C612 1.390 1_565 S
C617 C616 1.387 1_565 S
H618 C630 0.930 . S
H619 C632 0.930 . S
H620 C633 0.930 . S
H621 C637 0.959 . S
H622 C637 0.959 . S
H623 C637 0.961 . S
H624 C638 0.960 . S
H625 C638 0.961 . S
H626 C638 0.959 . S
H627 C641 0.929 . S
H628 C642 0.931 . S
H629 C644 0.930 . S
C630 H618 0.930 . S
C630 C631 1.399 . S
C630 C635 1.399 . S
C631 C630 1.399 . S
C631 C632 1.376 . S
C632 H619 0.930 . S
C632 C631 1.376 . S
C632 C633 1.388 . S
C633 H620 0.930 . S
C633 C632 1.388 . S
C633 C634 1.390 . S
C634 C633 1.390 . S
C634 C635 1.394 . S
C634 C640 1.465 . S
C635 C630 1.399 . S
C635 C634 1.394 . S
C635 C636 1.516 . S
C636 C635 1.516 . S
C636 C637 1.502 . S
C636 C638 1.561 . S
C636 C639 1.526 1_556 S
C637 H621 0.959 . S
C637 H622 0.959 . S
C637 H623 0.961 . S
C637 C636 1.502 . S
C638 H624 0.960 . S
C638 H625 0.961 . S
C638 H626 0.959 . S
C638 C636 1.561 . S
C639 C636 1.526 1_554 S
C639 C640 1.396 1_554 S
C639 C644 1.390 . S
C640 C634 1.465 . S
C640 C639 1.396 1_556 S
C640 C641 1.399 1_556 S
C641 H627 0.929 . S
C641 C640 1.399 1_554 S
C641 C642 1.385 . S
C642 H628 0.931 . S
C642 C641 1.385 . S
C642 C643 1.389 . S
C643 C642 1.389 . S
C643 C644 1.387 . S
C644 H629 0.930 . S
C644 C639 1.390 . S
C644 C643 1.387 . S
H645 C657 0.930 1_655 S
H646 C659 0.930 . S
H647 C660 0.930 . S
H648 C664 0.959 . S
H649 C664 0.959 . S
H650 C664 0.961 . S
H651 C665 0.960 . S
H652 C665 0.961 . S
H653 C665 0.959 . S
H654 C668 0.929 . S
H655 C669 0.931 . S
H656 C671 0.930 1_655 S
C657 H645 0.930 1_455 S
C657 C658 1.399 . S
C657 C662 1.399 . S
C658 C657 1.399 . S
C658 C659 1.376 . S
C659 H646 0.930 . S
C659 C658 1.376 . S
C659 C660 1.388 . S
C660 H647 0.930 . S
C660 C659 1.388 . S
C660 C661 1.390 . S
C661 C660 1.390 . S
C661 C662 1.394 . S
C661 C667 1.465 . S
C662 C657 1.399 . S
C662 C661 1.394 . S
C662 C663 1.516 1_455 S
C663 C662 1.516 1_655 S
C663 C664 1.502 . S
C663 C665 1.561 1_655 S
C663 C666 1.526 1_655 S
C664 H648 0.959 . S
C664 H649 0.959 . S
C664 H650 0.961 . S
C664 C663 1.502 . S
C665 H651 0.960 . S
C665 H652 0.961 . S
C665 H653 0.959 . S
C665 C663 1.561 1_455 S
C666 C663 1.526 1_455 S
C666 C667 1.396 . S
C666 C671 1.390 . S
C667 C661 1.465 . S
C667 C666 1.396 . S
C667 C668 1.399 . S
C668 H654 0.929 . S
C668 C667 1.399 . S
C668 C669 1.385 . S
C669 H655 0.931 . S
C669 C668 1.385 . S
C669 C670 1.389 . S
C670 C669 1.389 . S
C670 C671 1.387 . S
C671 H656 0.930 1_455 S
C671 C666 1.390 . S
C671 C670 1.387 . S
C199 C10 3.165 . S
C211 C180 2.799 . S
C226 C59 3.244 . S
C238 C158 2.895 . S
C253 C90 2.878 . S
C265 C172 2.810 . S
C280 C19 2.950 . S
C292 C183 2.902 . S
C319 C161 2.845 . S
C307 C50 2.894 . S
C346 C169 2.895 . S
C334 C99 3.240 . S
C361 C46 0.612 . S
C373 C136 0.631 . S
C388 C95 0.492 . S
C400 C147 0.782 . S
C415 C6 0.582 . S
C427 C125 0.781 . S
C454 C139 0.126 . S
C442 C55 0.210 . S
C481 C150 0.363 . S
C469 C86 0.297 . S
C496 C15 0.393 . S
C508 C128 0.372 . S
C535 C149 1.143 . S
C523 C9 1.228 . S
C550 C49 1.171 . S
C562 C127 1.166 . S
C577 C89 1.200 . S
C589 C138 1.217 . S
C616 C171 1.690 . S
C604 C58 1.628 . S
C643 C182 1.701 . S
C631 C98 1.716 . S
C658 C18 1.684 . S
C670 C160 1.626 . S
