# Generated by pormake.
# Topology iac, (4,6)-cn, num edge types: 1
# Building blocks:
#     Node 0, Type 0, BuildingBlock: AZAVOO_clean_sbu_0, # of connection points: 4
#     Node 1, Type 0, BuildingBlock: AZAVOO_clean_sbu_0, # of connection points: 4
#     Node 2, Type 0, BuildingBlock: AZAVOO_clean_sbu_0, # of connection points: 4
#     Node 3, Type 0, BuildingBlock: AZAVOO_clean_sbu_0, # of connection points: 4
#     Node 4, Type 0, BuildingBlock: AZAVOO_clean_sbu_0, # of connection points: 4
#     Node 5, Type 0, BuildingBlock: AZAVOO_clean_sbu_0, # of connection points: 4
#     Node 6, Type 0, BuildingBlock: AZAVOO_clean_sbu_0, # of connection points: 4
#     Node 7, Type 0, BuildingBlock: AZAVOO_clean_sbu_0, # of connection points: 4
#     Node 8, Type 0, BuildingBlock: AZAVOO_clean_sbu_0, # of connection points: 4
#     Node 9, Type 0, BuildingBlock: AZAVOO_clean_sbu_0, # of connection points: 4
#     Node 10, Type 0, BuildingBlock: AZAVOO_clean_sbu_0, # of connection points: 4
#     Node 11, Type 0, BuildingBlock: AZAVOO_clean_sbu_0, # of connection points: 4
#     Node 12, Type 0, BuildingBlock: AZAVOO_clean_sbu_0, # of connection points: 4
#     Node 13, Type 0, BuildingBlock: AZAVOO_clean_sbu_0, # of connection points: 4
#     Node 14, Type 0, BuildingBlock: AZAVOO_clean_sbu_0, # of connection points: 4
#     Node 15, Type 0, BuildingBlock: AZAVOO_clean_sbu_0, # of connection points: 4
#     Node 16, Type 0, BuildingBlock: AZAVOO_clean_sbu_0, # of connection points: 4
#     Node 17, Type 0, BuildingBlock: AZAVOO_clean_sbu_0, # of connection points: 4
#     Node 18, Type 0, BuildingBlock: AZAVOO_clean_sbu_0, # of connection points: 4
#     Node 19, Type 0, BuildingBlock: AZAVOO_clean_sbu_0, # of connection points: 4
#     Node 20, Type 0, BuildingBlock: AZAVOO_clean_sbu_0, # of connection points: 4
#     Node 21, Type 0, BuildingBlock: AZAVOO_clean_sbu_0, # of connection points: 4
#     Node 22, Type 0, BuildingBlock: AZAVOO_clean_sbu_0, # of connection points: 4
#     Node 23, Type 0, BuildingBlock: AZAVOO_clean_sbu_0, # of connection points: 4
#     Node 24, Type 1, BuildingBlock: JUFBIX_clean_sbu_0, # of connection points: 6
#     Node 25, Type 1, BuildingBlock: JUFBIX_clean_sbu_0, # of connection points: 6
#     Node 26, Type 1, BuildingBlock: JUFBIX_clean_sbu_0, # of connection points: 6
#     Node 27, Type 1, BuildingBlock: JUFBIX_clean_sbu_0, # of connection points: 6
#     Node 28, Type 1, BuildingBlock: JUFBIX_clean_sbu_0, # of connection points: 6
#     Node 29, Type 1, BuildingBlock: JUFBIX_clean_sbu_0, # of connection points: 6
#     Node 30, Type 1, BuildingBlock: JUFBIX_clean_sbu_0, # of connection points: 6
#     Node 31, Type 1, BuildingBlock: JUFBIX_clean_sbu_0, # of connection points: 6
#     Node 32, Type 1, BuildingBlock: JUFBIX_clean_sbu_0, # of connection points: 6
#     Node 33, Type 1, BuildingBlock: JUFBIX_clean_sbu_0, # of connection points: 6
#     Node 34, Type 1, BuildingBlock: JUFBIX_clean_sbu_0, # of connection points: 6
#     Node 35, Type 1, BuildingBlock: JUFBIX_clean_sbu_0, # of connection points: 6
#     Node 36, Type 1, BuildingBlock: JUFBIX_clean_sbu_0, # of connection points: 6
#     Node 37, Type 1, BuildingBlock: JUFBIX_clean_sbu_0, # of connection points: 6
#     Node 38, Type 1, BuildingBlock: JUFBIX_clean_sbu_0, # of connection points: 6
#     Node 39, Type 1, BuildingBlock: JUFBIX_clean_sbu_0, # of connection points: 6
#     Edge 40, Type (0, 1), BuildingBlock: AJUNOK_clean_linker_0, # of connection points: 2
#     Edge 41, Type (0, 1), BuildingBlock: AJUNOK_clean_linker_0, # of connection points: 2
#     Edge 42, Type (0, 1), BuildingBlock: AJUNOK_clean_linker_0, # of connection points: 2
#     Edge 43, Type (0, 1), BuildingBlock: AJUNOK_clean_linker_0, # of connection points: 2
#     Edge 44, Type (0, 1), BuildingBlock: AJUNOK_clean_linker_0, # of connection points: 2
#     Edge 45, Type (0, 1), BuildingBlock: AJUNOK_clean_linker_0, # of connection points: 2
#     Edge 46, Type (0, 1), BuildingBlock: AJUNOK_clean_linker_0, # of connection points: 2
#     Edge 47, Type (0, 1), BuildingBlock: AJUNOK_clean_linker_0, # of connection points: 2
#     Edge 48, Type (0, 1), BuildingBlock: AJUNOK_clean_linker_0, # of connection points: 2
#     Edge 49, Type (0, 1), BuildingBlock: AJUNOK_clean_linker_0, # of connection points: 2
#     Edge 50, Type (0, 1), BuildingBlock: AJUNOK_clean_linker_0, # of connection points: 2
#     Edge 51, Type (0, 1), BuildingBlock: AJUNOK_clean_linker_0, # of connection points: 2
#     Edge 52, Type (0, 1), BuildingBlock: AJUNOK_clean_linker_0, # of connection points: 2
#     Edge 53, Type (0, 1), BuildingBlock: AJUNOK_clean_linker_0, # of connection points: 2
#     Edge 54, Type (0, 1), BuildingBlock: AJUNOK_clean_linker_0, # of connection points: 2
#     Edge 55, Type (0, 1), BuildingBlock: AJUNOK_clean_linker_0, # of connection points: 2
#     Edge 56, Type (0, 1), BuildingBlock: AJUNOK_clean_linker_0, # of connection points: 2
#     Edge 57, Type (0, 1), BuildingBlock: AJUNOK_clean_linker_0, # of connection points: 2
#     Edge 58, Type (0, 1), BuildingBlock: AJUNOK_clean_linker_0, # of connection points: 2
#     Edge 59, Type (0, 1), BuildingBlock: AJUNOK_clean_linker_0, # of connection points: 2
#     Edge 60, Type (0, 1), BuildingBlock: AJUNOK_clean_linker_0, # of connection points: 2
#     Edge 61, Type (0, 1), BuildingBlock: AJUNOK_clean_linker_0, # of connection points: 2
#     Edge 62, Type (0, 1), BuildingBlock: AJUNOK_clean_linker_0, # of connection points: 2
#     Edge 63, Type (0, 1), BuildingBlock: AJUNOK_clean_linker_0, # of connection points: 2
#     Edge 64, Type (0, 1), BuildingBlock: AJUNOK_clean_linker_0, # of connection points: 2
#     Edge 65, Type (0, 1), BuildingBlock: AJUNOK_clean_linker_0, # of connection points: 2
#     Edge 66, Type (0, 1), BuildingBlock: AJUNOK_clean_linker_0, # of connection points: 2
#     Edge 67, Type (0, 1), BuildingBlock: AJUNOK_clean_linker_0, # of connection points: 2
#     Edge 68, Type (0, 1), BuildingBlock: AJUNOK_clean_linker_0, # of connection points: 2
#     Edge 69, Type (0, 1), BuildingBlock: AJUNOK_clean_linker_0, # of connection points: 2
#     Edge 70, Type (0, 1), BuildingBlock: AJUNOK_clean_linker_0, # of connection points: 2
#     Edge 71, Type (0, 1), BuildingBlock: AJUNOK_clean_linker_0, # of connection points: 2
#     Edge 72, Type (0, 1), BuildingBlock: AJUNOK_clean_linker_0, # of connection points: 2
#     Edge 73, Type (0, 1), BuildingBlock: AJUNOK_clean_linker_0, # of connection points: 2
#     Edge 74, Type (0, 1), BuildingBlock: AJUNOK_clean_linker_0, # of connection points: 2
#     Edge 75, Type (0, 1), BuildingBlock: AJUNOK_clean_linker_0, # of connection points: 2
#     Edge 76, Type (0, 1), BuildingBlock: AJUNOK_clean_linker_0, # of connection points: 2
#     Edge 77, Type (0, 1), BuildingBlock: AJUNOK_clean_linker_0, # of connection points: 2
#     Edge 78, Type (0, 1), BuildingBlock: AJUNOK_clean_linker_0, # of connection points: 2
#     Edge 79, Type (0, 1), BuildingBlock: AJUNOK_clean_linker_0, # of connection points: 2
#     Edge 80, Type (0, 1), BuildingBlock: AJUNOK_clean_linker_0, # of connection points: 2
#     Edge 81, Type (0, 1), BuildingBlock: AJUNOK_clean_linker_0, # of connection points: 2
#     Edge 82, Type (0, 1), BuildingBlock: AJUNOK_clean_linker_0, # of connection points: 2
#     Edge 83, Type (0, 1), BuildingBlock: AJUNOK_clean_linker_0, # of connection points: 2
#     Edge 84, Type (0, 1), BuildingBlock: AJUNOK_clean_linker_0, # of connection points: 2
#     Edge 85, Type (0, 1), BuildingBlock: AJUNOK_clean_linker_0, # of connection points: 2
#     Edge 86, Type (0, 1), BuildingBlock: AJUNOK_clean_linker_0, # of connection points: 2
#     Edge 87, Type (0, 1), BuildingBlock: AJUNOK_clean_linker_0, # of connection points: 2
#     Edge 88, Type (0, 1), BuildingBlock: AJUNOK_clean_linker_0, # of connection points: 2
#     Edge 89, Type (0, 1), BuildingBlock: AJUNOK_clean_linker_0, # of connection points: 2
#     Edge 90, Type (0, 1), BuildingBlock: AJUNOK_clean_linker_0, # of connection points: 2
#     Edge 91, Type (0, 1), BuildingBlock: AJUNOK_clean_linker_0, # of connection points: 2
#     Edge 92, Type (0, 1), BuildingBlock: AJUNOK_clean_linker_0, # of connection points: 2
#     Edge 93, Type (0, 1), BuildingBlock: AJUNOK_clean_linker_0, # of connection points: 2
#     Edge 94, Type (0, 1), BuildingBlock: AJUNOK_clean_linker_0, # of connection points: 2
#     Edge 95, Type (0, 1), BuildingBlock: AJUNOK_clean_linker_0, # of connection points: 2
#     Edge 96, Type (0, 1), BuildingBlock: AJUNOK_clean_linker_0, # of connection points: 2
#     Edge 97, Type (0, 1), BuildingBlock: AJUNOK_clean_linker_0, # of connection points: 2
#     Edge 98, Type (0, 1), BuildingBlock: AJUNOK_clean_linker_0, # of connection points: 2
#     Edge 99, Type (0, 1), BuildingBlock: AJUNOK_clean_linker_0, # of connection points: 2
#     Edge 100, Type (0, 1), BuildingBlock: AJUNOK_clean_linker_0, # of connection points: 2
#     Edge 101, Type (0, 1), BuildingBlock: AJUNOK_clean_linker_0, # of connection points: 2
#     Edge 102, Type (0, 1), BuildingBlock: AJUNOK_clean_linker_0, # of connection points: 2
#     Edge 103, Type (0, 1), BuildingBlock: AJUNOK_clean_linker_0, # of connection points: 2
#     Edge 104, Type (0, 1), BuildingBlock: AJUNOK_clean_linker_0, # of connection points: 2
#     Edge 105, Type (0, 1), BuildingBlock: AJUNOK_clean_linker_0, # of connection points: 2
#     Edge 106, Type (0, 1), BuildingBlock: AJUNOK_clean_linker_0, # of connection points: 2
#     Edge 107, Type (0, 1), BuildingBlock: AJUNOK_clean_linker_0, # of connection points: 2
#     Edge 108, Type (0, 1), BuildingBlock: AJUNOK_clean_linker_0, # of connection points: 2
#     Edge 109, Type (0, 1), BuildingBlock: AJUNOK_clean_linker_0, # of connection points: 2
#     Edge 110, Type (0, 1), BuildingBlock: AJUNOK_clean_linker_0, # of connection points: 2
#     Edge 111, Type (0, 1), BuildingBlock: AJUNOK_clean_linker_0, # of connection points: 2
#     Edge 112, Type (0, 1), BuildingBlock: AJUNOK_clean_linker_0, # of connection points: 2
#     Edge 113, Type (0, 1), BuildingBlock: AJUNOK_clean_linker_0, # of connection points: 2
#     Edge 114, Type (0, 1), BuildingBlock: AJUNOK_clean_linker_0, # of connection points: 2
#     Edge 115, Type (0, 1), BuildingBlock: AJUNOK_clean_linker_0, # of connection points: 2
#     Edge 116, Type (0, 1), BuildingBlock: AJUNOK_clean_linker_0, # of connection points: 2
#     Edge 117, Type (0, 1), BuildingBlock: AJUNOK_clean_linker_0, # of connection points: 2
#     Edge 118, Type (0, 1), BuildingBlock: AJUNOK_clean_linker_0, # of connection points: 2
#     Edge 119, Type (0, 1), BuildingBlock: AJUNOK_clean_linker_0, # of connection points: 2
#     Edge 120, Type (0, 1), BuildingBlock: AJUNOK_clean_linker_0, # of connection points: 2
#     Edge 121, Type (0, 1), BuildingBlock: AJUNOK_clean_linker_0, # of connection points: 2
#     Edge 122, Type (0, 1), BuildingBlock: AJUNOK_clean_linker_0, # of connection points: 2
#     Edge 123, Type (0, 1), BuildingBlock: AJUNOK_clean_linker_0, # of connection points: 2
#     Edge 124, Type (0, 1), BuildingBlock: AJUNOK_clean_linker_0, # of connection points: 2
#     Edge 125, Type (0, 1), BuildingBlock: AJUNOK_clean_linker_0, # of connection points: 2
#     Edge 126, Type (0, 1), BuildingBlock: AJUNOK_clean_linker_0, # of connection points: 2
#     Edge 127, Type (0, 1), BuildingBlock: AJUNOK_clean_linker_0, # of connection points: 2
#     Edge 128, Type (0, 1), BuildingBlock: AJUNOK_clean_linker_0, # of connection points: 2
#     Edge 129, Type (0, 1), BuildingBlock: AJUNOK_clean_linker_0, # of connection points: 2
#     Edge 130, Type (0, 1), BuildingBlock: AJUNOK_clean_linker_0, # of connection points: 2
#     Edge 131, Type (0, 1), BuildingBlock: AJUNOK_clean_linker_0, # of connection points: 2
#     Edge 132, Type (0, 1), BuildingBlock: AJUNOK_clean_linker_0, # of connection points: 2
#     Edge 133, Type (0, 1), BuildingBlock: AJUNOK_clean_linker_0, # of connection points: 2
#     Edge 134, Type (0, 1), BuildingBlock: AJUNOK_clean_linker_0, # of connection points: 2
#     Edge 135, Type (0, 1), BuildingBlock: AJUNOK_clean_linker_0, # of connection points: 2
# Relax obj value: 0.283
# Max RMSD: 0.238
# Mean RMSD: 0.175
data_MOF--net-iac--node1-AZAVOO_clean_sbu_0--node2-JUFBIX_clean_sbu_0--edge1-AJUNOK_clean_linker_0
_symmetry_space_group_name_H-M    P1
_symmetry_Int_Tables_number       1
_symmetry_cell_setting            triclinic
loop_
_symmetry_equiv_pos_as_xyz
'x, y, z'
_cell_length_a     41.461697
_cell_length_b     40.415301
_cell_length_c     41.000367
_cell_angle_alpha  91.31343
_cell_angle_beta   87.296645
_cell_angle_gamma 89.253038
loop_
_atom_site_label
_atom_site_type_symbol
_atom_site_fract_x
_atom_site_fract_y
_atom_site_fract_z
_atom_type_partial_charge
Mg0 Mg 0.03748 0.29306 0.17493 0.0
O1 O 0.03776 0.24244 0.1427 0.0
O2 O 0.99366 0.245 0.11369 0.0
Mg3 Mg 0.96367 0.29265 0.12778 0.0
C4 C 0.019 0.22946 0.12189 0.0
C5 C 0.10414 0.30623 0.21106 0.0
O6 O 0.08678 0.33261 0.21997 0.0
O7 O 0.04787 0.33212 0.13192 0.0
O8 O 1.00016 0.3313 0.10877 0.0
O9 O 0.0057 0.26877 0.21521 0.0
O10 O 0.98582 0.2963 0.17547 0.0
C11 C 0.02815 0.34375 0.11134 0.0
C12 C 0.98048 0.28005 0.20158 0.0
O13 O 0.092 0.28539 0.19111 0.0
Mg14 Mg 0.058 0.76621 0.41065 0.0
O15 O 0.03719 0.8075 0.44466 0.0
O16 O 0.98704 0.79244 0.46 0.0
Mg17 Mg 0.97629 0.74293 0.43569 0.0
C18 C 0.01039 0.81266 0.46078 0.0
C19 C 0.11746 0.77007 0.38277 0.0
O20 O 0.10354 0.74176 0.37628 0.0
O21 O 0.06608 0.73497 0.45365 0.0
O22 O 0.01548 0.71905 0.46602 0.0
O23 O 0.04082 0.78936 0.36726 0.0
O24 O 0.01266 0.75365 0.39717 0.0
C25 C 0.04578 0.71853 0.47065 0.0
C26 C 0.01461 0.77309 0.37265 0.0
O27 O 0.10752 0.7867 0.40801 0.0
Mg28 Mg 0.53186 0.79933 0.67009 0.0
O29 O 0.53215 0.75113 0.63411 0.0
O30 O 0.48919 0.75724 0.60379 0.0
Mg31 Mg 0.45866 0.80347 0.62094 0.0
C32 C 0.51407 0.74059 0.61141 0.0
C33 C 0.6009 0.81182 0.70387 0.0
O34 O 0.58585 0.84003 0.71117 0.0
O35 O 0.54288 0.84139 0.63053 0.0
O36 O 0.49563 0.84341 0.60654 0.0
O37 O 0.49879 0.77465 0.70932 0.0
O38 O 0.48011 0.80169 0.66878 0.0
C39 C 0.52365 0.85515 0.61079 0.0
C40 C 0.47399 0.78522 0.69456 0.0
O41 O 0.58646 0.79053 0.68618 0.0
Mg42 Mg 0.55424 0.24388 0.89007 0.0
O43 O 0.52416 0.28644 0.91398 0.0
O44 O 0.47641 0.26772 0.93229 0.0
Mg45 Mg 0.47482 0.21314 0.91715 0.0
C46 C 0.49667 0.29099 0.92882 0.0
C47 C 0.59599 0.30223 0.8718 0.0
O48 O 0.56829 0.31015 0.85961 0.0
O49 O 0.56305 0.22443 0.94016 0.0
O50 O 0.51425 0.20403 0.95329 0.0
O51 O 0.53583 0.25202 0.84151 0.0
O52 O 0.51249 0.21955 0.87822 0.0
C53 C 0.54362 0.20949 0.95965 0.0
C54 C 0.5124 0.23274 0.84991 0.0
O55 O 0.59782 0.27652 0.889 0.0
Mg56 Mg 0.15501 0.99719 0.33513 0.0
O57 O 0.18398 0.04452 0.33775 0.0
O58 O 0.21613 0.03862 0.3796 0.0
Mg59 Mg 0.20492 0.99047 0.40535 0.0
C60 C 0.20641 0.05477 0.35545 0.0
C61 C 0.11214 1.00041 0.27978 0.0
O62 O 0.0947 0.98848 0.30428 0.0
O63 O 0.19989 0.97047 0.31577 0.0
O64 O 0.22872 0.96374 0.35983 0.0
O65 O 0.11598 0.01969 0.36665 0.0
O66 O 0.15701 0.99048 0.38453 0.0
C67 C 0.22491 0.95974 0.32921 0.0
C68 C 0.13116 0.00797 0.39084 0.0
O69 O 0.141 0.00852 0.28447 0.0
Mg70 Mg 0.27454 0.92343 0.54809 0.0
O71 O 0.27352 0.8826 0.50828 0.0
O72 O 0.32175 0.85663 0.50976 0.0
Mg73 Mg 0.35276 0.88164 0.54673 0.0
C74 C 0.29373 0.85984 0.49849 0.0
C75 C 0.21657 0.9492 0.57964 0.0
O76 O 0.24157 0.95874 0.59584 0.0
O77 O 0.26968 0.88525 0.58557 0.0
O78 O 0.3182 0.86093 0.58645 0.0
O79 O 0.29139 0.95912 0.5119 0.0
O80 O 0.32288 0.92603 0.53931 0.0
C81 C 0.28883 0.86425 0.59693 0.0
C82 C 0.32005 0.94781 0.51704 0.0
O83 O 0.2213 0.93159 0.55371 0.0
Mg84 Mg 0.4054 0.0826 0.78292 0.0
O85 O 0.38082 0.03261 0.78803 0.0
O86 O 0.35458 0.03585 0.83714 0.0
Mg87 Mg 0.36618 0.08331 0.86403 0.0
C88 C 0.3617 0.02084 0.81 0.0
C89 C 0.4253 0.09967 0.71497 0.0
O90 O 0.43203 0.12586 0.73285 0.0
O91 O 0.35662 0.10485 0.77728 0.0
O92 O 0.33355 0.10856 0.82739 0.0
O93 O 0.45039 0.06291 0.80082 0.0
O94 O 0.4111 0.08548 0.83273 0.0
C95 C 0.33282 0.11282 0.79663 0.0
C96 C 0.43871 0.0701 0.83001 0.0
O97 O 0.41185 0.07534 0.72874 0.0
Mg98 Mg 0.29465 0.15246 0.02813 0.0
O99 O 0.29233 0.18824 0.07664 0.0
O100 O 0.33589 0.21991 0.07101 0.0
Mg101 Mg 0.36755 0.20447 0.02457 0.0
C102 C 0.31061 0.21121 0.08762 0.0
C103 C 0.23203 0.10432 0.03959 0.0
O104 O 0.25594 0.08384 0.04501 0.0
O105 O 0.28547 0.19244 0.98614 0.0
O106 O 0.33309 0.21752 0.98347 0.0
O107 O 0.3264 0.1146 0.05464 0.0
O108 O 0.34663 0.15472 0.02628 0.0
C109 C 0.30552 0.21223 0.97172 0.0
C110 C 0.35194 0.12948 0.04368 0.0
O111 O 0.23906 0.1345 0.03323 0.0
Mg112 Mg 0.7649 0.44085 0.07154 0.0
O113 O 0.78115 0.40294 0.03157 0.0
O114 O 0.83465 0.39631 0.03341 0.0
Mg115 Mg 0.8516 0.42818 0.07551 0.0
C116 C 0.80783 0.38952 0.02095 0.0
C117 C 0.6969 0.43399 0.09416 0.0
O118 O 0.71267 0.44095 0.12046 0.0
O119 O 0.76998 0.40159 0.10809 0.0
O120 O 0.82326 0.39366 0.11016 0.0
O121 O 0.77327 0.48082 0.03663 0.0
O122 O 0.80956 0.46099 0.06981 0.0
C123 C 0.79421 0.38665 0.11897 0.0
C124 C 0.80261 0.47982 0.04612 0.0
O125 O 0.71286 0.42864 0.06735 0.0
Mg126 Mg 0.92205 0.57305 0.27455 0.0
O127 O 0.88948 0.52951 0.28567 0.0
O128 O 0.86503 0.54088 0.33467 0.0
Mg129 Mg 0.88308 0.58937 0.35481 0.0
C130 C 0.86959 0.52251 0.30911 0.0
C131 C 0.93501 0.58347 0.20454 0.0
O132 O 0.93796 0.61249 0.21916 0.0
O133 O 0.87822 0.60265 0.26498 0.0
O134 O 0.85543 0.61435 0.31423 0.0
O135 O 0.96226 0.54747 0.296 0.0
O136 O 0.92737 0.58085 0.32368 0.0
C137 C 0.85591 0.6161 0.28312 0.0
C138 C 0.95116 0.5599 0.32378 0.0
O139 O 0.92699 0.55889 0.22161 0.0
Mg140 Mg 0.79612 0.65534 0.51933 0.0
O141 O 0.79448 0.69053 0.56781 0.0
O142 O 0.83869 0.7214 0.563 0.0
Mg143 Mg 0.87039 0.70532 0.51682 0.0
C144 C 0.81302 0.71303 0.57916 0.0
C145 C 0.72781 0.61986 0.50446 0.0
O146 O 0.7458 0.61112 0.47837 0.0
O147 O 0.78766 0.69631 0.47818 0.0
O148 O 0.83606 0.71976 0.47591 0.0
O149 O 0.82555 0.61575 0.54532 0.0
O150 O 0.84831 0.65613 0.51896 0.0
C151 C 0.80833 0.71567 0.46408 0.0
C152 C 0.85187 0.63039 0.53627 0.0
O153 O 0.74041 0.63878 0.52589 0.0
Mg154 Mg 0.66073 0.48809 0.8105 0.0
O155 O 0.67617 0.54132 0.81979 0.0
O156 O 0.69592 0.54419 0.86945 0.0
Mg157 Mg 0.69335 0.49317 0.89172 0.0
C158 C 0.68867 0.55761 0.84286 0.0
C159 C 0.6321 0.5217 0.75404 0.0
O160 O 0.6209 0.53902 0.77969 0.0
O161 O 0.71317 0.47381 0.80155 0.0
O162 O 0.73093 0.4742 0.85219 0.0
O163 O 0.61238 0.49864 0.83344 0.0
O164 O 0.65416 0.48006 0.85998 0.0
C165 C 0.73558 0.46929 0.82136 0.0
C166 C 0.62474 0.49061 0.86056 0.0
O167 O 0.65335 0.49936 0.75775 0.0
Mg168 Mg 0.02464 0.78155 0.89112 0.0
O169 O 0.02925 0.83158 0.92305 0.0
O170 O 0.98685 0.83227 0.95819 0.0
Mg171 Mg 0.95226 0.78944 0.94369 0.0
C172 C 0.01314 0.84518 0.9474 0.0
C173 C 0.09031 0.76414 0.85182 0.0
O174 O 0.07072 0.7416 0.84089 0.0
O175 O 0.03346 0.74294 0.93331 0.0
O176 O 0.98484 0.74571 0.95894 0.0
O177 O 0.99616 0.80699 0.85163 0.0
O178 O 0.97239 0.78197 0.8925 0.0
C179 C 0.01246 0.73143 0.95413 0.0
C180 C 0.96945 0.79704 0.86544 0.0
O181 O 0.07923 0.7847 0.87383 0.0
Mg182 Mg 0.99535 0.32494 0.69478 0.0
O183 O 0.01701 0.28751 0.65771 0.0
O184 O 0.97943 0.27538 0.62236 0.0
Mg185 Mg 0.93314 0.30373 0.63835 0.0
C186 C 0.00801 0.27224 0.63226 0.0
C187 C 0.05032 0.35443 0.73508 0.0
O188 O 0.02549 0.36619 0.75302 0.0
O189 O 0.99737 0.36364 0.65717 0.0
O190 O 0.95747 0.35243 0.62395 0.0
O191 O 0.97934 0.28498 0.72719 0.0
O192 O 0.94997 0.30648 0.68889 0.0
C193 C 0.9807 0.37042 0.63286 0.0
C194 C 0.9529 0.28511 0.71151 0.0
O195 O 0.04541 0.33709 0.70965 0.0
Mg196 Mg 0.52879 0.28719 0.39297 0.0
O197 O 0.53201 0.33885 0.42109 0.0
O198 O 0.48924 0.34216 0.45583 0.0
Mg199 Mg 0.4556 0.29778 0.44438 0.0
C200 C 0.51548 0.35428 0.444 0.0
C201 C 0.5952 0.27195 0.35357 0.0
O202 O 0.57633 0.25014 0.34019 0.0
O203 O 0.5379 0.2533 0.43832 0.0
O204 O 0.48908 0.25689 0.4636 0.0
O205 O 0.50102 0.30988 0.35175 0.0
O206 O 0.47702 0.28745 0.39423 0.0
C207 C 0.51719 0.24339 0.46023 0.0
C208 C 0.47428 0.30105 0.36638 0.0
O209 O 0.58333 0.29053 0.37685 0.0
Mg210 Mg 0.49265 0.80395 0.16865 0.0
O211 O 0.5108 0.76778 0.12912 0.0
O212 O 0.47534 0.76512 0.09012 0.0
Mg213 Mg 0.43266 0.79898 0.10724 0.0
C214 C 0.5022 0.75664 0.10169 0.0
C215 C 0.55669 0.8268 0.20114 0.0
O216 O 0.54194 0.85559 0.20591 0.0
O217 O 0.50325 0.84633 0.13618 0.0
O218 O 0.46356 0.84564 0.10127 0.0
O219 O 0.46892 0.76408 0.1956 0.0
O220 O 0.44521 0.79475 0.15914 0.0
C221 C 0.48838 0.85907 0.11299 0.0
C222 C 0.44352 0.77098 0.17965 0.0
O223 O 0.54251 0.80349 0.18677 0.0
Mg224 Mg 0.88781 0.10789 0.78295 0.0
O225 O 0.87374 0.05422 0.7821 0.0
O226 O 0.85265 0.04116 0.83098 0.0
Mg227 Mg 0.85381 0.08746 0.86358 0.0
C228 C 0.86091 0.03346 0.80139 0.0
C229 C 0.92502 0.11599 0.72234 0.0
O230 O 0.93666 0.13662 0.74392 0.0
O231 O 0.83529 0.12136 0.78046 0.0
O232 O 0.81636 0.11121 0.83117 0.0
O233 O 0.93542 0.09403 0.79895 0.0
O234 O 0.89361 0.1074 0.83285 0.0
C235 C 0.81224 0.12109 0.80221 0.0
C236 C 0.92303 0.09689 0.82841 0.0
O237 O 0.8976 0.10351 0.72883 0.0
Mg238 Mg 0.82234 0.14925 0.51641 0.0
O239 O 0.81237 0.19059 0.55299 0.0
O240 O 0.85135 0.2276 0.55268 0.0
Mg241 Mg 0.88918 0.20671 0.51442 0.0
C242 C 0.82407 0.21734 0.5636 0.0
C243 C 0.76605 0.11038 0.54478 0.0
O244 O 0.79102 0.09246 0.55258 0.0
O245 O 0.81065 0.18252 0.47562 0.0
O246 O 0.85418 0.21481 0.47351 0.0
O247 O 0.848 0.12136 0.55208 0.0
O248 O 0.87217 0.1549 0.51688 0.0
C249 C 0.82744 0.20523 0.46241 0.0
C250 C 0.87429 0.13367 0.53965 0.0
O251 O 0.77059 0.13512 0.52665 0.0
Mg252 Mg 0.67313 0.98824 0.328 0.0
O253 O 0.69025 0.04036 0.32561 0.0
O254 O 0.72219 0.04993 0.36706 0.0
Mg255 Mg 0.71442 0.00771 0.40265 0.0
C256 C 0.70996 0.05834 0.34048 0.0
C257 C 0.63368 0.9873 0.26886 0.0
O258 O 0.61566 0.97143 0.29041 0.0
O259 O 0.72403 0.97153 0.31831 0.0
O260 O 0.74668 0.9763 0.36671 0.0
O261 O 0.62755 0.00417 0.35119 0.0
O262 O 0.67098 0.99062 0.37817 0.0
C263 C 0.74768 0.96717 0.33662 0.0
C264 C 0.64147 1.0012 0.37859 0.0
O265 O 0.66277 0.99311 0.27503 0.0
Mg266 Mg 0.7949 0.93067 0.0228 0.0
O267 O 0.78372 0.89081 0.98197 0.0
O268 O 0.83033 0.86261 0.97607 0.0
Mg269 Mg 0.86728 0.87821 0.01518 0.0
C270 C 0.80186 0.86891 0.96678 0.0
C271 C 0.72978 0.96697 0.05278 0.0
O272 O 0.75031 0.9787 0.07341 0.0
O273 O 0.7928 0.89451 0.06851 0.0
O274 O 0.83682 0.86256 0.06135 0.0
O275 O 0.82432 0.96971 0.04931 0.0
O276 O 0.84695 0.92939 0.01967 0.0
C277 C 0.8111 0.87105 0.07813 0.0
C278 C 0.85063 0.95562 0.03749 0.0
O279 O 0.74019 0.94622 0.03063 0.0
Mg280 Mg 0.32121 0.65195 0.99926 0.0
O281 O 0.3075 0.69424 0.03337 0.0
O282 O 0.34628 0.73142 0.03539 0.0
Mg283 Mg 0.38811 0.7085 1.00338 0.0
C284 C 0.31789 0.72185 0.04331 0.0
C285 C 0.26464 0.6094 0.01607 0.0
O286 O 0.28956 0.58966 0.01969 0.0
O287 O 0.31428 0.68495 0.95768 0.0
O288 O 0.35782 0.71728 0.95911 0.0
O289 O 0.34255 0.62436 0.03785 0.0
O290 O 0.3701 0.65694 1.00412 0.0
C291 C 0.33196 0.70785 0.94612 0.0
C292 C 0.37005 0.63502 0.02646 0.0
O293 O 0.26935 0.63767 1.00408 0.0
Mg294 Mg 0.17623 0.47356 0.81164 0.0
O295 O 0.19314 0.52611 0.80812 0.0
O296 O 0.21933 0.53962 0.8525 0.0
Mg297 Mg 0.21452 0.49685 0.88737 0.0
C298 C 0.20991 0.54624 0.82422 0.0
C299 C 0.13607 0.47169 0.75367 0.0
O300 O 0.11983 0.45403 0.77521 0.0
O301 O 0.22816 0.4578 0.80301 0.0
O302 O 0.24909 0.46805 0.85161 0.0
O303 O 0.12981 0.48924 0.83492 0.0
O304 O 0.17295 0.47657 0.86218 0.0
C305 C 0.25165 0.45705 0.8221 0.0
C306 C 0.14335 0.48672 0.86256 0.0
O307 O 0.16545 0.47768 0.75855 0.0
Mg308 Mg 0.29524 0.4296 0.54025 0.0
O309 O 0.29202 0.39899 0.48954 0.0
O310 O 0.33392 0.36406 0.4875 0.0
Mg311 Mg 0.36633 0.37686 0.5313 0.0
C312 C 0.30841 0.37531 0.47502 0.0
C313 C 0.22747 0.46491 0.56034 0.0
O314 O 0.24472 0.47401 0.58499 0.0
O315 O 0.2837 0.38536 0.5765 0.0
O316 O 0.33081 0.35814 0.57261 0.0
O317 O 0.32525 0.47052 0.51587 0.0
O318 O 0.3476 0.4288 0.53948 0.0
C319 C 0.30266 0.36259 0.58639 0.0
C320 C 0.3515 0.45645 0.52477 0.0
O321 O 0.24079 0.44595 0.53806 0.0
Mg322 Mg 0.38789 0.60948 0.25789 0.0
O323 O 0.3757 0.55625 0.26607 0.0
O324 O 0.35355 0.54988 0.31596 0.0
Mg325 Mg 0.35203 0.60095 0.3403 0.0
C326 C 0.36311 0.53813 0.28799 0.0
C327 C 0.42619 0.60215 0.19597 0.0
O328 O 0.4414 0.62381 0.21379 0.0
O329 O 0.3351 0.61952 0.2517 0.0
O330 O 0.31518 0.61677 0.30305 0.0
O331 O 0.43554 0.60139 0.27686 0.0
O332 O 0.39299 0.61721 0.30821 0.0
C333 C 0.31145 0.62151 0.27271 0.0
C334 C 0.42293 0.60778 0.30575 0.0
O335 O 0.39771 0.59443 0.20515 0.0
Co336 Co 0.03573 0.04437 0.01517 0.0
C337 C 0.03 0.09125 0.06812 0.0
Co338 Co 0.04211 0.02224 0.06225 0.0
C339 C 0.01068 0.05655 0.95293 0.0
C340 C 0.0432 0.0942 0.96785 0.0
N341 N 0.0308 0.06475 0.97647 0.0
N342 N 0.00972 0.07999 0.93032 0.0
C343 C 0.02989 0.10384 0.93949 0.0
H344 H 0.99536 0.03505 0.9535 0.0
H345 H 0.05933 0.10863 0.9823 0.0
C346 C 0.04562 0.97526 0.00884 0.0
N347 N 0.04696 1.00228 0.10138 0.0
C348 C 0.06368 0.01306 0.12679 0.0
C349 C 0.03301 0.97406 0.11134 0.0
N350 N 0.06075 0.99258 0.15219 0.0
C351 C 0.04142 0.96805 0.14263 0.0
C352 C 0.97802 0.01869 0.04276 0.0
O353 O 0.04304 1.00138 0.99215 0.0
O354 O 0.04804 0.97912 0.03963 0.0
O355 O 0.99647 0.01285 0.06588 0.0
O356 O 0.98968 0.03413 0.01824 0.0
O357 O 0.03554 0.06572 0.08488 0.0
H358 H 0.0171 0.95924 0.09707 0.0
H359 H 0.07679 0.03604 0.12701 0.0
O360 O 0.0276 0.08686 0.03752 0.0
O361 O 0.08175 0.05492 0.01233 0.0
O362 O 0.08825 0.03134 0.05887 0.0
C363 C 0.10022 0.04791 0.03524 0.0
H364 H 0.03345 0.12713 0.92738 0.0
H365 H 0.03374 0.94741 0.15734 0.0
Co366 Co 0.27227 0.78323 0.28353 0.0
C367 C 0.24322 0.72884 0.25652 0.0
Co368 Co 0.25137 0.79266 0.23655 0.0
C369 C 0.27666 0.79519 0.35127 0.0
C370 C 0.30607 0.75331 0.33612 0.0
N371 N 0.28563 0.77616 0.32499 0.0
N372 N 0.29053 0.7855 0.37854 0.0
C373 C 0.30937 0.75917 0.36906 0.0
H374 H 0.26048 0.81625 0.35021 0.0
H375 H 0.31836 0.73422 0.32116 0.0
C376 C 0.27905 0.84752 0.26573 0.0
N377 N 0.23837 0.80037 0.19501 0.0
C378 C 0.24554 0.7793 0.16985 0.0
C379 C 0.22821 0.82842 0.18118 0.0
N380 N 0.24142 0.79307 0.14084 0.0
C381 C 0.2305 0.8241 0.14759 0.0
C382 C 0.20821 0.80572 0.28582 0.0
O383 O 0.28786 0.82634 0.28592 0.0
O384 O 0.26317 0.83785 0.24159 0.0
O385 O 0.20945 0.80343 0.25484 0.0
O386 O 0.23278 0.79825 0.30127 0.0
O387 O 0.23945 0.74739 0.2324 0.0
H388 H 0.22219 0.85129 0.1944 0.0
H389 H 0.25712 0.7554 0.17256 0.0
O390 O 0.25642 0.74032 0.28158 0.0
O391 O 0.31185 0.76809 0.26561 0.0
O392 O 0.29362 0.78145 0.21844 0.0
C393 C 0.31613 0.7698 0.23496 0.0
H394 H 0.32555 0.7459 0.38422 0.0
H395 H 0.22652 0.84281 0.12968 0.0
Co396 Co 0.51003 0.04912 0.53089 0.0
C397 C 0.53096 0.11446 0.52367 0.0
Co398 Co 0.55272 0.05911 0.55815 0.0
C399 C 0.45277 0.01881 0.5103 0.0
C400 C 0.47215 0.05164 0.47448 0.0
N401 N 0.47655 0.04036 0.50476 0.0
N402 N 0.4338 0.01599 0.48471 0.0
C403 C 0.44558 0.03672 0.46208 0.0
H404 H 0.44943 0.00532 0.5327 0.0
H405 H 0.48777 0.06893 0.4619 0.0
C406 C 0.53202 0.99283 0.56408 0.0
N407 N 0.5873 0.06847 0.58259 0.0
C408 C 0.61429 0.08298 0.57102 0.0
C409 C 0.59338 0.06004 0.61337 0.0
N410 N 0.63734 0.08341 0.59291 0.0
C411 C 0.62446 0.06909 0.61977 0.0
C412 C 0.49386 0.0715 0.59214 0.0
O413 O 0.5115 1.00321 0.54433 0.0
O414 O 0.55206 0.01373 0.57473 0.0
O415 O 0.52434 0.07375 0.59311 0.0
O416 O 0.48155 0.06005 0.56656 0.0
O417 O 0.55368 0.10441 0.54104 0.0
H418 H 0.57686 0.04692 0.62949 0.0
H419 H 0.61775 0.09113 0.54613 0.0
O420 O 0.50867 0.09435 0.51749 0.0
O421 O 0.53769 0.0382 0.49563 0.0
O422 O 0.58101 0.04438 0.52309 0.0
C423 C 0.56797 0.03638 0.49682 0.0
H424 H 0.43611 0.04024 0.43823 0.0
H425 H 0.63693 0.0645 0.64186 0.0
Co426 Co 0.31355 0.2757 0.77125 0.0
C427 C 0.28445 0.29922 0.71498 0.0
Co428 Co 0.26178 0.28557 0.77992 0.0
C429 C 0.37403 0.24278 0.77782 0.0
C430 C 0.37722 0.28107 0.74268 0.0
N431 N 0.35614 0.26502 0.76249 0.0
N432 N 0.40571 0.24506 0.76939 0.0
C433 C 0.40773 0.26896 0.74699 0.0
H434 H 0.36433 0.22697 0.79674 0.0
H435 H 0.37118 0.30205 0.72811 0.0
C436 C 0.29155 0.26216 0.83661 0.0
N437 N 0.21898 0.29634 0.78855 0.0
C438 C 0.20144 0.32064 0.77559 0.0
C439 C 0.19797 0.28024 0.80842 0.0
N440 N 0.17019 0.32002 0.78626 0.0
C441 C 0.16799 0.2948 0.80711 0.0
C442 C 0.2736 0.22215 0.76043 0.0
O443 O 0.31657 0.26276 0.81723 0.0
O444 O 0.26486 0.2716 0.82544 0.0
O445 O 0.25036 0.24184 0.7683 0.0
O446 O 0.30234 0.23257 0.7599 0.0
O447 O 0.25903 0.29992 0.73391 0.0
H448 H 0.20377 0.25848 0.82194 0.0
H449 H 0.21125 0.33788 0.75806 0.0
O450 O 0.3104 0.28849 0.72651 0.0
O451 O 0.3252 0.31902 0.78241 0.0
O452 O 0.27329 0.32874 0.79183 0.0
C453 C 0.30224 0.33865 0.79089 0.0
H454 H 0.42987 0.27953 0.73713 0.0
H455 H 0.14585 0.28618 0.81892 0.0
Co456 Co 0.03225 0.01598 0.57327 0.0
C457 C 0.01591 0.05103 0.6297 0.0
Co458 Co 0.0573 0.06349 0.57677 0.0
C459 C 0.02156 0.95006 0.54926 0.0
C460 C 0.98281 0.96676 0.58199 0.0
N461 N 0.01184 0.97573 0.56903 0.0
N462 N 0.9996 0.92584 0.54872 0.0
C463 C 0.97527 0.93603 0.56964 0.0
H464 H 0.04376 0.94964 0.5343 0.0
H465 H 0.96754 0.98194 0.5985 0.0
C466 C 0.07229 0.03085 0.51934 0.0
N467 N 0.07678 0.10401 0.58065 0.0
C468 C 0.06015 0.13235 0.58699 0.0
C469 C 0.10791 0.11321 0.57662 0.0
N470 N 0.07919 0.15887 0.58637 0.0
C471 C 0.1095 0.14727 0.58048 0.0
C472 C 0.09214 0.01063 0.59828 0.0
O473 O 0.05411 0.00905 0.53184 0.0
O474 O 0.07643 0.05784 0.53472 0.0
O475 O 0.09323 0.04171 0.59398 0.0
O476 O 0.06645 0.99525 0.59278 0.0
O477 O 0.0378 0.06999 0.61879 0.0
H478 H 0.12797 0.09638 0.57081 0.0
H479 H 0.03429 0.13371 0.59206 0.0
O480 O 0.01042 0.02426 0.61428 0.0
O481 O 0.99805 0.0362 0.55377 0.0
O482 O 0.02083 0.08425 0.55926 0.0
C483 C 0.99677 0.06731 0.55144 0.0
H484 H 0.95345 0.92253 0.57538 0.0
H485 H 0.1309 0.16229 0.57851 0.0
Co486 Co 0.28176 0.80262 0.7779 0.0
C487 C 0.22138 0.7748 0.79118 0.0
Co488 Co 0.27913 0.75174 0.75863 0.0
C489 C 0.29978 0.87159 0.78053 0.0
C490 C 0.26908 0.85711 0.82109 0.0
N491 N 0.28362 0.84562 0.79286 0.0
N492 N 0.29544 0.89884 0.79991 0.0
C493 C 0.27632 0.88975 0.82549 0.0
H494 H 0.31474 0.87045 0.75816 0.0
H495 H 0.25489 0.84237 0.83798 0.0
C496 C 0.33969 0.77852 0.7458 0.0
N497 N 0.2757 0.70812 0.74606 0.0
C498 C 0.26413 0.68558 0.76696 0.0
C499 C 0.2814 0.69131 0.71749 0.0
N500 N 0.26274 0.65539 0.75314 0.0
C501 C 0.27312 0.65854 0.72178 0.0
C502 C 0.26266 0.79635 0.71426 0.0
O503 O 0.32673 0.80338 0.76144 0.0
O504 O 0.32291 0.75275 0.74151 0.0
O505 O 0.26533 0.76545 0.71833 0.0
O506 O 0.26827 0.81657 0.73741 0.0
O507 O 0.23513 0.75057 0.77572 0.0
H508 H 0.29058 0.70218 0.6951 0.0
H509 H 0.25601 0.69131 0.79196 0.0
O510 O 0.23729 0.8012 0.79439 0.0
O511 O 0.2953 0.78914 0.81796 0.0
O512 O 0.29363 0.73826 0.79922 0.0
C513 C 0.29914 0.75858 0.82213 0.0
H514 H 0.26929 0.90524 0.8466 0.0
H515 H 0.27476 0.6387 0.70356 0.0
Co516 Co 0.5386 0.03956 0.03014 0.0
C517 C 0.59791 0.02345 0.053 0.0
Co518 Co 0.54111 0.05589 0.08124 0.0
C519 C 0.51723 0.04628 0.96597 0.0
C520 C 0.54098 0.99949 0.97116 0.0
N521 N 0.53369 0.02839 0.98707 0.0
N522 N 0.51292 0.02938 0.9379 0.0
C523 C 0.52827 1.00008 0.94073 0.0
H524 H 0.50778 0.07095 0.97153 0.0
H525 H 0.55326 0.97876 0.98162 0.0
C526 C 0.48176 0.07224 0.05826 0.0
N527 N 0.54677 0.06635 0.12443 0.0
C528 C 0.56033 0.04506 0.1446 0.0
C529 C 0.54363 0.09513 0.14176 0.0
N530 N 0.56591 0.05903 0.17362 0.0
C531 C 0.55575 0.0907 0.17227 0.0
C532 C 0.56071 0.10346 0.03907 0.0
O533 O 0.49554 0.05927 0.03256 0.0
O534 O 0.49702 0.07267 0.08451 0.0
O535 O 0.55531 0.09821 0.06917 0.0
O536 O 0.55581 0.0807 0.01809 0.0
O537 O 0.58522 0.03905 0.0778 0.0
H538 H 0.53452 0.11806 0.13238 0.0
H539 H 0.56817 0.02026 0.13744 0.0
O540 O 0.58128 0.02028 0.02789 0.0
O541 O 0.52158 0.9983 0.04213 0.0
O542 O 0.52677 0.01346 0.09312 0.0
C543 C 0.51974 0.99154 0.07214 0.0
H544 H 0.52883 0.97999 0.92278 0.0
H545 H 0.55767 0.10926 0.19151 0.0
Co546 Co 0.28863 0.26776 0.29301 0.0
C547 C 0.35265 0.29132 0.29732 0.0
Co548 Co 0.29577 0.31722 0.27415 0.0
C549 C 0.26672 0.20005 0.30594 0.0
C550 C 0.30037 0.21938 0.33923 0.0
N551 N 0.28452 0.22701 0.31233 0.0
N552 N 0.27144 0.176 0.32772 0.0
C553 C 0.2923 0.18836 0.34879 0.0
H554 H 0.25065 0.19812 0.28595 0.0
H555 H 0.31653 0.23559 0.35161 0.0
C556 C 0.23161 0.29497 0.26998 0.0
N557 N 0.30137 0.35784 0.25646 0.0
C558 C 0.31705 0.38283 0.27052 0.0
C559 C 0.29258 0.36928 0.22748 0.0
N560 N 0.31855 0.40944 0.25162 0.0
C561 C 0.30319 0.40129 0.22442 0.0
C562 C 0.30198 0.26538 0.2249 0.0
O563 O 0.24265 0.2694 0.28377 0.0
O564 O 0.25046 0.31926 0.26544 0.0
O565 O 0.30399 0.29644 0.23079 0.0
O566 O 0.29667 0.24677 0.24936 0.0
O567 O 0.34111 0.31591 0.28287 0.0
H568 H 0.27932 0.35531 0.20985 0.0
H569 H 0.32752 0.38149 0.29417 0.0
O570 O 0.33445 0.26661 0.30191 0.0
O571 O 0.28081 0.28874 0.33665 0.0
O572 O 0.28779 0.33808 0.3178 0.0
C573 C 0.28351 0.3197 0.34243 0.0
H574 H 0.30037 0.17625 0.37029 0.0
H575 H 0.29928 0.41751 0.20429 0.0
Co576 Co 0.51628 0.49738 0.03835 0.0
C577 C 0.50244 0.52972 0.09655 0.0
Co578 Co 0.54425 0.54314 0.04375 0.0
C579 C 0.50483 0.43256 0.01263 0.0
C580 C 0.46292 0.45216 0.03912 0.0
N581 N 0.49419 0.45856 0.0315 0.0
N582 N 0.48125 0.41075 0.00713 0.0
C583 C 0.45492 0.42266 0.02424 0.0
H584 H 0.5293 0.43015 1.00241 0.0
H585 H 0.44658 0.46866 0.05317 0.0
C586 C 0.55737 0.51306 0.98495 0.0
N587 N 0.56481 0.58296 0.0496 0.0
C588 C 0.54863 0.61073 0.05947 0.0
C589 C 0.59495 0.59303 0.04122 0.0
N590 N 0.56682 0.63783 0.05691 0.0
C591 C 0.59628 0.62704 0.04582 0.0
C592 C 0.57526 0.48867 0.06558 0.0
O593 O 0.53721 0.49226 0.99605 0.0
O594 O 0.5643 0.53798 1.00234 0.0
O595 O 0.57787 0.5197 0.0619 0.0
O596 O 0.55039 0.47367 0.05643 0.0
O597 O 0.52407 0.54861 0.08507 0.0
H598 H 0.61408 0.57704 0.03084 0.0
H599 H 0.52327 0.61133 0.0672 0.0
O600 O 0.49523 0.50377 0.08051 0.0
O601 O 0.48235 0.52101 0.02096 0.0
O602 O 0.50996 0.56623 0.02607 0.0
C603 C 0.48399 0.55216 0.01929 0.0
H604 H 0.43123 0.41167 0.02465 0.0
H605 H 0.61663 0.64268 0.03991 0.0
Co606 Co 0.79167 0.30295 0.29143 0.0
C607 C 0.72893 0.28022 0.30008 0.0
Co608 Co 0.78648 0.25347 0.27054 0.0
C609 C 0.80896 0.37144 0.29479 0.0
C610 C 0.78425 0.35513 0.33847 0.0
N611 N 0.79547 0.34473 0.3085 0.0
N612 N 0.80633 0.39816 0.31502 0.0
C613 C 0.79104 0.38798 0.3426 0.0
H614 H 0.82045 0.37129 0.27054 0.0
H615 H 0.7722 0.33966 0.35631 0.0
C616 C 0.84924 0.27638 0.26181 0.0
N617 N 0.78114 0.21079 0.25563 0.0
C618 C 0.75986 0.19054 0.27039 0.0
C619 C 0.79974 0.19087 0.2354 0.0
N620 N 0.76438 0.15894 0.26072 0.0
C621 C 0.78969 0.15861 0.23892 0.0
C622 C 0.77662 0.30137 0.22681 0.0
O623 O 0.83625 0.30263 0.27471 0.0
O624 O 0.83208 0.25066 0.25925 0.0
O625 O 0.77966 0.2702 0.22888 0.0
O626 O 0.77907 0.31993 0.2519 0.0
O627 O 0.74062 0.25677 0.28189 0.0
H628 H 0.82077 0.19878 0.22118 0.0
H629 H 0.74362 0.19807 0.29072 0.0
O630 O 0.74758 0.3034 0.30778 0.0
O631 O 0.80433 0.28612 0.33091 0.0
O632 O 0.79365 0.23669 0.31231 0.0
C633 C 0.80167 0.25549 0.33558 0.0
H634 H 0.78611 0.40289 0.3646 0.0
H635 H 0.80127 0.13658 0.22807 0.0
Co636 Co 0.03712 0.53821 0.53082 0.0
C637 C 0.09572 0.52113 0.556 0.0
Co638 Co 0.04008 0.55756 0.58126 0.0
C639 C 0.00948 0.52542 0.469 0.0
C640 C 0.06112 0.52508 0.46524 0.0
N641 N 0.0357 0.52728 0.48707 0.0
N642 N 0.01753 0.52313 0.43685 0.0
C643 C 0.04998 0.52238 0.43434 0.0
H644 H 0.98489 0.52789 0.47892 0.0
H645 H 0.08611 0.52795 0.47104 0.0
C646 C 0.98126 0.57431 0.55486 0.0
N647 N 0.04222 0.56735 0.62578 0.0
C648 C 0.06816 0.56153 0.64362 0.0
C649 C 0.01701 0.56858 0.64786 0.0
N650 N 0.0601 0.55684 0.67533 0.0
C651 C 0.02792 0.56195 0.67826 0.0
C652 C 0.06214 0.60242 0.54008 0.0
O653 O 0.99421 0.55784 0.53077 0.0
O654 O 0.99709 0.57773 0.58061 0.0
O655 O 0.05766 0.59804 0.57045 0.0
O656 O 0.05524 0.57964 0.51972 0.0
O657 O 0.08326 0.53732 0.58049 0.0
H658 H 0.99191 0.56964 0.64184 0.0
H659 H 0.09206 0.55617 0.63316 0.0
O660 O 0.07925 0.51846 0.53092 0.0
O661 O 0.01912 0.49731 0.54228 0.0
O662 O 0.02215 0.51692 0.59228 0.0
C663 C 0.01482 0.49368 0.57282 0.0
H664 H 0.06448 0.52299 0.4117 0.0
H665 H 0.01289 0.55739 0.69997 0.0
Co666 Co 0.82234 0.7897 0.26737 0.0
C667 C 0.79522 0.81042 0.20898 0.0
Co668 Co 0.76949 0.78962 0.27082 0.0
C669 C 0.88643 0.77422 0.28394 0.0
C670 C 0.88564 0.81032 0.24663 0.0
N671 N 0.86659 0.78958 0.26401 0.0
N672 N 0.91664 0.78559 0.2808 0.0
C673 C 0.91661 0.80786 0.25698 0.0
H674 H 0.87857 0.757 0.30238 0.0
H675 H 0.87712 0.82831 0.2298 0.0
C676 C 0.79695 0.76925 0.32989 0.0
N677 N 0.72518 0.78981 0.27459 0.0
C678 C 0.7037 0.80794 0.25865 0.0
C679 C 0.70723 0.76849 0.29238 0.0
N680 N 0.67324 0.79843 0.26566 0.0
C681 C 0.67527 0.77377 0.28694 0.0
C682 C 0.79593 0.73037 0.24957 0.0
O683 O 0.82286 0.77454 0.3129 0.0
O684 O 0.77046 0.77485 0.31641 0.0
O685 O 0.76912 0.74485 0.25651 0.0
O686 O 0.82202 0.746 0.25225 0.0
O687 O 0.76873 0.80485 0.22503 0.0
H688 H 0.71679 0.74893 0.30683 0.0
H689 H 0.71029 0.82611 0.24062 0.0
O690 O 0.82137 0.80462 0.22296 0.0
O691 O 0.82323 0.8334 0.28248 0.0
O692 O 0.77014 0.834 0.2853 0.0
C693 C 0.79679 0.84853 0.28862 0.0
H694 H 0.93667 0.82348 0.24994 0.0
H695 H 0.65521 0.75919 0.29609 0.0
Co696 Co 0.78385 0.29293 0.81383 0.0
C697 C 0.75345 0.23705 0.79089 0.0
Co698 Co 0.76543 0.2978 0.7648 0.0
C699 C 0.79306 0.31229 0.87971 0.0
C700 C 0.81238 0.26362 0.86941 0.0
N701 N 0.79689 0.28902 0.85581 0.0
N702 N 0.80571 0.30269 0.90764 0.0
C703 C 0.8179 0.27201 0.90143 0.0
H704 H 0.78169 0.33621 0.8765 0.0
H705 H 0.81927 0.2406 0.85683 0.0
C706 C 0.79541 0.35404 0.78816 0.0
N707 N 0.75333 0.30171 0.72226 0.0
C708 C 0.76035 0.27856 0.69881 0.0
C709 C 0.74435 0.3288 0.70607 0.0
N710 N 0.75701 0.29009 0.66868 0.0
C711 C 0.74712 0.32181 0.6729 0.0
C712 C 0.72069 0.31712 0.81241 0.0
O713 O 0.80042 0.33616 0.81248 0.0
O714 O 0.78064 0.34167 0.76446 0.0
O715 O 0.72443 0.31348 0.78154 0.0
O716 O 0.74393 0.30995 0.83011 0.0
O717 O 0.75022 0.25381 0.76544 0.0
H718 H 0.73891 0.35277 0.71742 0.0
H719 H 0.77119 0.25477 0.70352 0.0
O720 O 0.76711 0.25003 0.81503 0.0
O721 O 0.82376 0.27569 0.79768 0.0
O722 O 0.80655 0.28193 0.74863 0.0
C723 C 0.82855 0.27272 0.76703 0.0
H724 H 0.82962 0.2567 0.9188 0.0
H725 H 0.74414 0.33914 0.65348 0.0
Co726 Co 0.78537 0.76521 0.78439 0.0
C727 C 0.84944 0.78753 0.79233 0.0
Co728 Co 0.79376 0.81519 0.76696 0.0
C729 C 0.75424 0.7023 0.79841 0.0
C730 C 0.79544 0.71166 0.82663 0.0
N731 N 0.77864 0.72378 0.80197 0.0
N732 N 0.75508 0.67792 0.82031 0.0
C733 C 0.78118 0.6835 0.83775 0.0
H734 H 0.73529 0.70535 0.78141 0.0
H735 H 0.81583 0.72337 0.83729 0.0
C736 C 0.72951 0.79499 0.75985 0.0
N737 N 0.80105 0.85655 0.75131 0.0
C738 C 0.81611 0.88058 0.76758 0.0
C739 C 0.79331 0.87 0.72285 0.0
N740 N 0.81801 0.90859 0.75071 0.0
C741 C 0.80375 0.90227 0.72244 0.0
C742 C 0.80134 0.76495 0.71677 0.0
O743 O 0.73972 0.76885 0.77326 0.0
O744 O 0.74905 0.81881 0.75621 0.0
O745 O 0.80361 0.79586 0.72337 0.0
O746 O 0.79475 0.7458 0.74052 0.0
O747 O 0.83857 0.81249 0.77793 0.0
H748 H 0.78052 0.85735 0.70396 0.0
H749 H 0.82546 0.87766 0.79159 0.0
O750 O 0.83099 0.7627 0.79544 0.0
O751 O 0.77629 0.78425 0.82794 0.0
O752 O 0.78398 0.83426 0.8108 0.0
C753 C 0.77869 0.81501 0.83457 0.0
H754 H 0.78893 0.66863 0.85765 0.0
H755 H 0.80015 0.91995 0.70347 0.0
Co756 Co 0.53133 0.55675 0.49934 0.0
C757 C 0.52547 0.60497 0.55139 0.0
Co758 Co 0.53974 0.53661 0.54707 0.0
C759 C 0.50219 0.57024 0.43858 0.0
C760 C 0.54274 0.60108 0.44697 0.0
N761 N 0.52541 0.57599 0.45981 0.0
N762 N 0.50463 0.59062 0.41319 0.0
C763 C 0.5301 0.60994 0.41806 0.0
H764 H 0.4836 0.55188 0.44176 0.0
H765 H 0.56272 0.61295 0.45831 0.0
C766 C 0.54412 0.48844 0.4954 0.0
N767 N 0.54618 0.51828 0.58673 0.0
C768 C 0.56607 0.52929 0.60948 0.0
C769 C 0.53189 0.49142 0.59966 0.0
N770 N 0.56457 0.5105 0.63604 0.0
C771 C 0.54307 0.48672 0.63031 0.0
C772 C 0.47505 0.52949 0.52791 0.0
O773 O 0.53882 0.51351 0.47793 0.0
O774 O 0.54765 0.49349 0.52585 0.0
O775 O 0.49408 0.52472 0.55096 0.0
O776 O 0.48573 0.54583 0.5036 0.0
O777 O 0.53129 0.57989 0.56862 0.0
H778 H 0.51439 0.47636 0.58767 0.0
H779 H 0.5809 0.55102 0.60696 0.0
O780 O 0.5234 0.59999 0.52074 0.0
O781 O 0.57688 0.56701 0.49487 0.0
O782 O 0.58579 0.54823 0.54291 0.0
C783 C 0.59647 0.56258 0.51732 0.0
H784 H 0.53817 0.6297 0.40239 0.0
H785 H 0.53607 0.46749 0.64707 0.0
Co786 Co 0.0115 0.53066 0.01689 0.0
C787 C 0.02973 0.59735 0.00847 0.0
Co788 Co 0.0543 0.54339 0.04324 0.0
C789 C 0.94725 0.51078 0.00881 0.0
C790 C 0.96777 0.53011 0.96452 0.0
N791 N 0.97506 0.52134 0.99496 0.0
N792 N 0.92263 0.51392 0.98894 0.0
C793 C 0.93524 0.52551 0.96074 0.0
H794 H 0.9445 0.50328 0.03397 0.0
H795 H 0.9844 0.54159 0.94723 0.0
C796 C 0.03536 0.47642 0.05168 0.0
N797 N 0.09086 0.55344 0.06426 0.0
C798 C 0.1154 0.57036 0.0506 0.0
C799 C 0.10112 0.54386 0.09337 0.0
N800 N 0.14072 0.57174 0.06972 0.0
C801 C 0.1322 0.55484 0.09664 0.0
C802 C 0.99872 0.55492 0.07983 0.0
O803 O 0.01413 0.48522 0.03188 0.0
O804 O 0.05536 0.49826 0.06056 0.0
O805 O 0.02905 0.55811 0.07986 0.0
O806 O 0.98596 0.5428 0.05486 0.0
O807 O 0.053 0.58864 0.02577 0.0
H808 H 0.08749 0.5287 0.11034 0.0
H809 H 0.11552 0.57961 0.02601 0.0
O810 O 0.00873 0.57574 1.00222 0.0
O811 O 0.03672 0.51884 0.97941 0.0
O812 O 0.07993 0.52871 0.00647 0.0
C813 C 0.06714 0.5195 0.98041 0.0
H814 H 0.92155 0.53255 0.94009 0.0
H815 H 0.14769 0.54987 0.11653 0.0
C816 C 0.01102 0.18477 0.07845 0.0
C817 C 0.0245 0.19439 0.10821 0.0
C818 C 0.01292 0.15179 0.06605 0.0
C819 C 0.02772 0.12607 0.083 0.0
H820 H 0.99869 0.203 0.0644 0.0
H821 H 1.00224 0.14636 0.04295 0.0
S822 S 0.06712 0.13722 0.16205 0.0
N823 N 0.05377 0.17476 0.15414 0.0
N824 N 0.05671 0.11305 0.13134 0.0
C825 C 0.04138 0.1352 0.11281 0.0
C826 C 0.03998 0.16908 0.12519 0.0
C827 C 0.13407 0.77391 0.32413 0.0
C828 C 0.13678 0.78566 0.35653 0.0
C829 C 0.1542 0.78541 0.29877 0.0
C830 C 0.17793 0.80862 0.30521 0.0
H831 H 0.11733 0.75449 0.31842 0.0
H832 H 0.15369 0.77321 0.27498 0.0
S833 S 0.19026 0.85247 0.38392 0.0
N834 N 0.16118 0.826 0.39241 0.0
N835 N 0.19947 0.84742 0.34447 0.0
C836 C 0.1782 0.82357 0.33651 0.0
C837 C 0.15765 0.81192 0.36239 0.0
C838 C 0.54916 0.9127 0.61131 0.0
C839 C 0.53072 0.88841 0.5956 0.0
C840 C 0.55012 0.94601 0.60076 0.0
C841 C 0.53254 0.95682 0.57408 0.0
H842 H 0.56179 0.90637 0.63289 0.0
H843 H 0.56401 0.96366 0.61432 0.0
S844 S 0.48362 0.90235 0.52195 0.0
N845 N 0.49685 0.87745 0.54987 0.0
N846 N 0.49841 0.93906 0.53056 0.0
C847 C 0.51527 0.93237 0.55733 0.0
C848 C 0.51445 0.89862 0.5679 0.0
C849 C 0.45349 0.23052 0.84264 0.0
C850 C 0.48507 0.22918 0.8289 0.0
C851 C 0.4272 0.23313 0.82279 0.0
C852 C 0.43174 0.23423 0.78855 0.0
H853 H 0.44906 0.23202 0.86884 0.0
H854 H 0.40349 0.23678 0.83459 0.0
S855 S 0.50948 0.22452 0.74079 0.0
N856 N 0.5195 0.22448 0.77932 0.0
N857 N 0.46974 0.22846 0.74178 0.0
C858 C 0.46305 0.22983 0.77454 0.0
C859 C 0.48986 0.22761 0.79479 0.0
C860 C 0.03424 0.85503 0.49715 0.0
C861 C 0.00691 0.84203 0.48272 0.0
C862 C 0.03145 0.88189 0.51924 0.0
C863 C 1.00131 0.89695 0.52753 0.0
H864 H 0.05793 0.84404 0.4918 0.0
H865 H 0.05309 0.89088 0.53004 0.0
S866 S 0.92274 0.87391 0.49428 0.0
N867 N 0.94891 0.84692 0.47713 0.0
N868 N 0.94382 0.89809 0.51802 0.0
C869 C 0.97382 0.88449 0.5129 0.0
C870 C 0.97661 0.85689 0.49061 0.0
C871 C 0.43089 0.79313 0.73946 0.0
C872 C 0.44014 0.781 0.70784 0.0
C873 C 0.39837 0.7928 0.7514 0.0
C874 C 0.37393 0.77936 0.73258 0.0
H875 H 0.44879 0.80392 0.75475 0.0
H876 H 0.39237 0.80282 0.7757 0.0
S877 S 0.38553 0.74378 0.6485 0.0
N878 N 0.42208 0.75533 0.65797 0.0
N879 N 0.36154 0.75324 0.68078 0.0
C880 C 0.38304 0.76652 0.70119 0.0
C881 C 0.41594 0.76777 0.68872 0.0
C882 C 0.58226 0.16935 0.98047 0.0
C883 C 0.55642 0.19171 0.98704 0.0
C884 C 0.58637 0.14201 1.00023 0.0
C885 C 0.56541 0.13709 0.02753 0.0
H886 H 0.59677 0.17057 0.95785 0.0
H887 H 0.60396 0.12305 0.99238 0.0
S888 S 0.49894 0.1929 0.05894 0.0
N889 N 0.51303 0.21029 0.02519 0.0
N890 N 0.52169 0.15959 0.0633 0.0
C891 C 0.54259 0.16186 0.03691 0.0
C892 C 0.53783 0.18914 0.01631 0.0
C893 C 0.15325 0.32972 0.23695 0.0
C894 C 0.13694 0.3017 0.22521 0.0
C895 C 0.18318 0.3271 0.25178 0.0
C896 C 0.19828 0.29624 0.25655 0.0
H897 H 0.14292 0.35423 0.2344 0.0
H898 H 0.19462 0.34968 0.25963 0.0
S899 S 0.16609 0.2148 0.23076 0.0
N900 N 0.13865 0.24173 0.21949 0.0
N901 N 0.19435 0.23673 0.24795 0.0
C902 C 0.18218 0.26786 0.24528 0.0
C903 C 0.15183 0.27059 0.22948 0.0
C904 C 0.06729 0.99079 0.24271 0.0
C905 C 0.09907 1.00129 0.24694 0.0
C906 C 0.05487 0.9885 0.21172 0.0
C907 C 0.07364 0.9968 0.1838 0.0
H908 H 0.05193 0.98368 0.26341 0.0
H909 H 0.03037 0.98007 0.20954 0.0
S910 S 0.1579 0.02649 0.18131 0.0
N911 N 0.14884 0.02097 0.22043 0.0
N912 N 0.12526 0.01637 0.16201 0.0
C913 C 0.10513 0.00815 0.18757 0.0
C914 C 0.11791 0.01046 0.21919 0.0
C915 C 0.27891 0.85451 0.44114 0.0
C916 C 0.28693 0.83917 0.46996 0.0
C917 C 0.27967 0.83666 0.41157 0.0
C918 C 0.28779 0.80259 0.40985 0.0
H919 H 0.27413 0.88094 0.44103 0.0
H920 H 0.27528 0.85028 0.38979 0.0
S921 S 0.3056 0.7503 0.48028 0.0
N922 N 0.30054 0.78801 0.49624 0.0
N923 N 0.29997 0.75362 0.44087 0.0
C924 C 0.29371 0.78658 0.43915 0.0
C925 C 0.2937 0.80507 0.46917 0.0
C926 C 0.46755 0.11263 0.67256 0.0
C927 C 0.43914 0.09579 0.68139 0.0
C928 C 0.48457 0.10526 0.64304 0.0
C929 C 0.47339 0.08133 0.62106 0.0
H930 H 0.47773 0.13037 0.68926 0.0
H931 H 0.50706 0.11787 0.63776 0.0
S932 S 0.39815 0.03323 0.63099 0.0
N933 N 0.39907 0.05613 0.66482 0.0
N934 N 0.43081 0.04276 0.60875 0.0
C935 C 0.44391 0.06586 0.62859 0.0
C936 C 0.42684 0.07295 0.65896 0.0
C937 C 0.32618 0.2391 0.9192 0.0
C938 C 0.29975 0.22646 0.93813 0.0
C939 C 0.32327 0.25032 0.88696 0.0
C940 C 0.29357 0.25035 0.87157 0.0
H941 H 0.34995 0.23974 0.92905 0.0
H942 H 0.3447 0.25918 0.87399 0.0
S943 S 0.21634 0.22014 0.90933 0.0
N944 N 0.24249 0.21461 0.93798 0.0
N945 N 0.23679 0.23643 0.87822 0.0
C946 C 0.26671 0.23824 0.89017 0.0
C947 C 0.26983 0.22617 0.92298 0.0
C948 C 0.10326 0.04445 0.43299 0.0
C949 C 0.11867 0.01411 0.42448 0.0
C950 C 0.08888 0.04998 0.4642 0.0
C951 C 0.0886 0.02492 0.48734 0.0
H952 H 0.10223 0.06399 0.41539 0.0
H953 H 0.07713 0.07364 0.46996 0.0
S954 S 0.12618 0.94144 0.47735 0.0
N955 N 0.13378 0.95912 0.44192 0.0
N956 N 0.10559 0.96921 0.50036 0.0
C957 C 0.10412 0.9946 0.47929 0.0
C958 C 0.11954 0.98928 0.44785 0.0
C959 C 0.29007 0.81267 0.62861 0.0
C960 C 0.27689 0.84435 0.62425 0.0
C961 C 0.28204 0.79511 0.6567 0.0
C962 C 0.26124 0.80915 0.68144 0.0
H963 H 0.30761 0.80196 0.61085 0.0
H964 H 0.29437 0.77174 0.66027 0.0
S965 S 0.21732 0.88933 0.68 0.0
N966 N 0.23914 0.88738 0.64525 0.0
N967 N 0.22508 0.85456 0.69868 0.0
C968 C 0.24613 0.83962 0.67636 0.0
C969 C 0.25374 0.85725 0.64753 0.0
C970 C 0.4857 0.04152 0.85324 0.0
C971 C 0.45659 0.0597 0.85856 0.0
C972 C 0.50381 0.03154 0.87927 0.0
C973 C 0.49361 0.03941 0.91161 0.0
H974 H 0.49483 0.03498 0.82872 0.0
H975 H 0.52624 0.018 0.87406 0.0
S976 S 0.41829 0.08444 0.93925 0.0
N977 N 0.41819 0.08445 0.89902 0.0
N978 N 0.45163 0.06444 0.94797 0.0
C979 C 0.46432 0.05697 0.91748 0.0
C980 C 0.44596 0.06741 0.89094 0.0
C981 C 0.29285 0.20761 0.1485 0.0
C982 C 0.30533 0.22622 0.12204 0.0
C983 C 0.2923 0.21995 0.18141 0.0
C984 C 0.30383 0.25177 0.18973 0.0
H985 H 0.28434 0.18279 0.14393 0.0
H986 H 0.2826 0.20434 0.20051 0.0
S987 S 0.33759 0.3114 0.12975 0.0
N988 N 0.32873 0.27883 0.10702 0.0
N989 N 0.3272 0.30186 0.1677 0.0
C990 C 0.31564 0.27083 0.16336 0.0
C991 C 0.31654 0.25817 0.13006 0.0
C992 C 0.17414 0.10425 0.01991 0.0
C993 C 0.1979 0.091 0.03967 0.0
C994 C 0.14319 0.08976 0.01793 0.0
C995 C 0.13414 0.06161 0.03602 0.0
H996 H 0.17969 0.12559 0.00528 0.0
H997 H 0.12602 0.10109 1.00233 0.0
S998 S 0.18682 0.01777 0.09231 0.0
N999 N 0.20954 0.04794 0.07808 0.0
N1000 N 0.15193 0.02167 0.07491 0.0
C1001 C 0.15752 0.04853 0.05622 0.0
C1002 C 0.18908 0.06289 0.05786 0.0
C1003 C 0.64428 0.42827 0.06829 0.0
C1004 C 0.66235 0.44216 0.09322 0.0
C1005 C 0.61433 0.44187 0.06113 0.0
C1006 C 0.60213 0.47012 0.07826 0.0
H1007 H 0.65422 0.40805 0.05299 0.0
H1008 H 0.60191 0.43184 0.04051 0.0
S1009 S 0.63741 0.51277 0.1487 0.0
N1010 N 0.66369 0.48303 0.13781 0.0
N1011 N 0.60778 0.50913 0.1234 0.0
C1012 C 0.61858 0.4826 0.1048 0.0
C1013 C 0.64866 0.46837 0.11263 0.0
C1014 C 0.86633 0.46307 0.29291 0.0
C1015 C 0.85153 0.49168 0.30718 0.0
C1016 C 0.85081 0.43261 0.29433 0.0
C1017 C 0.82003 0.43003 0.30985 0.0
H1018 H 0.89059 0.46393 0.28195 0.0
H1019 H 0.86356 0.41072 0.28461 0.0
S1020 S 0.76874 0.49883 0.34522 0.0
N1021 N 0.80295 0.51644 0.33354 0.0
N1022 N 0.77355 0.45912 0.33558 0.0
C1023 C 0.80414 0.45885 0.32214 0.0
C1024 C 0.81998 0.48975 0.32095 0.0
C1025 C 0.89201 0.58306 0.53588 0.0
C1026 C 0.88453 0.6166 0.54332 0.0
C1027 C 0.9232 0.5697 0.53977 0.0
C1028 C 0.94804 0.58892 0.55246 0.0
H1029 H 0.87384 0.5672 0.52596 0.0
H1030 H 0.92791 0.54399 0.53283 0.0
S1031 S 0.94099 0.67782 0.57668 0.0
N1032 N 0.90483 0.6687 0.56401 0.0
N1033 N 0.96274 0.64326 0.57282 0.0
C1034 C 0.94068 0.62226 0.56079 0.0
C1035 C 0.90919 0.63617 0.55581 0.0
C1036 C 0.20675 0.11213 0.33364 0.0
C1037 C 0.22349 0.08511 0.34625 0.0
C1038 C 0.22281 0.14154 0.32603 0.0
C1039 C 0.25607 0.14451 0.33046 0.0
H1040 H 0.18096 0.11092 0.33068 0.0
H1041 H 0.20897 0.16246 0.31795 0.0
S1042 S 0.31166 0.07875 0.35691 0.0
N1043 N 0.27562 0.06186 0.35914 0.0
N1044 N 0.30582 0.11662 0.34393 0.0
C1045 C 0.27331 0.11688 0.34097 0.0
C1046 C 0.25699 0.08729 0.34914 0.0
C1047 C 0.37918 0.94719 0.50517 0.0
C1048 C 0.34879 0.96142 0.50013 0.0
C1049 C 0.40735 0.96405 0.49706 0.0
C1050 C 0.40606 0.99557 0.48361 0.0
H1051 H 0.38138 0.92395 0.51744 0.0
H1052 H 0.43027 0.95345 0.50341 0.0
S1053 S 0.33313 0.04071 0.45925 0.0
N1054 N 0.31928 0.00648 0.47574 0.0
N1055 N 0.37281 0.03838 0.46096 0.0
C1056 C 0.37623 0.00847 0.47496 0.0
C1057 C 0.34736 0.99127 0.48315 0.0
C1058 C 0.80531 0.6502 0.28672 0.0
C1059 C 0.8322 0.63771 0.26791 0.0
C1060 C 0.78834 0.67806 0.27687 0.0
C1061 C 0.79838 0.69441 0.24839 0.0
H1062 H 0.79916 0.64037 0.31054 0.0
H1063 H 0.77051 0.68945 0.29394 0.0
S1064 S 0.86046 0.6661 0.18597 0.0
N1065 N 0.86251 0.63902 0.21537 0.0
N1066 N 0.83131 0.69246 0.19802 0.0
C1067 C 0.82159 0.67924 0.22699 0.0
C1068 C 0.83852 0.65055 0.23657 0.0
C1069 C 0.78319 0.43386 0.8322 0.0
C1070 C 0.76481 0.45043 0.80942 0.0
C1071 C 0.79935 0.40417 0.82345 0.0
C1072 C 0.7973 0.39039 0.7918 0.0
H1073 H 0.78158 0.44118 0.85782 0.0
H1074 H 0.80922 0.38986 0.84276 0.0
S1075 S 0.76688 0.43306 0.72012 0.0
N1076 N 0.75627 0.45768 0.75162 0.0
N1077 N 0.78679 0.40171 0.73523 0.0
C1078 C 0.78591 0.41077 0.7674 0.0
C1079 C 0.7694 0.44097 0.77627 0.0
C1080 C 0.03874 0.90289 0.9452 0.0
C1081 C 0.0243 0.8772 0.96346 0.0
C1082 C 0.04621 0.93407 0.95979 0.0
C1083 C 0.04068 0.94091 0.99365 0.0
H1084 H 0.04321 0.89936 0.91911 0.0
H1085 H 0.05612 0.95312 0.94427 0.0
S1086 S 0.00452 0.88179 0.05284 0.0
N1087 N 0.00532 0.86113 0.01761 0.0
N1088 N 0.02027 0.91817 0.04483 0.0
C1089 C 0.02721 0.91496 0.01221 0.0
C1090 C 0.01883 0.88371 0.99726 0.0
C1091 C 0.91885 0.26785 0.75881 0.0
C1092 C 0.92414 0.26828 0.72473 0.0
C1093 C 0.88759 0.26565 0.77276 0.0
C1094 C 0.86087 0.26371 0.75294 0.0
H1095 H 0.93833 0.27302 0.77481 0.0
H1096 H 0.88424 0.26877 0.79902 0.0
S1097 S 0.86384 0.25084 0.66299 0.0
N1098 N 0.90173 0.25703 0.672 0.0
N1099 N 0.84267 0.2529 0.69814 0.0
C1100 C 0.86653 0.25854 0.71912 0.0
C1101 C 0.89838 0.26083 0.70498 0.0
C1102 C 0.4961 0.19512 0.4924 0.0
C1103 C 0.52303 0.2123 0.47919 0.0
C1104 C 0.49924 0.16422 0.50717 0.0
C1105 C 0.52954 0.1489 0.51047 0.0
H1106 H 0.47189 0.20499 0.49031 0.0
H1107 H 0.47747 0.15201 0.51584 0.0
S1108 S 0.60827 0.18327 0.48193 0.0
N1109 N 0.58155 0.21131 0.47136 0.0
N1110 N 0.58744 0.15382 0.50023 0.0
C1111 C 0.55693 0.16609 0.49861 0.0
C1112 C 0.55369 0.19747 0.48272 0.0
C1113 C 0.60452 0.84526 0.23166 0.0
C1114 C 0.58823 0.81999 0.21515 0.0
C1115 C 0.63304 0.83838 0.24748 0.0
C1116 C 0.64569 0.80606 0.24752 0.0
H1117 H 0.59492 0.87034 0.23294 0.0
H1118 H 0.64474 0.85808 0.26058 0.0
S1119 S 0.61474 0.73179 0.20566 0.0
N1120 N 0.58883 0.76163 0.19801 0.0
N1121 N 0.64207 0.74929 0.22809 0.0
C1122 C 0.63056 0.78096 0.23019 0.0
C1123 C 0.60189 0.78779 0.21387 0.0
C1124 C 0.05864 0.23767 0.63112 0.0
C1125 C 0.03054 0.24781 0.61568 0.0
C1126 C 0.07692 0.21013 0.6194 0.0
C1127 C 0.06773 0.1921 0.59188 0.0
H1128 H 0.06544 0.24963 0.65364 0.0
H1129 H 0.09667 0.20126 0.63337 0.0
S1130 S 1.00072 0.21185 0.53875 0.0
N1131 N 0.99774 0.24033 0.56831 0.0
N1132 N 0.03223 0.18851 0.54673 0.0
C1133 C 0.04182 0.20378 0.57444 0.0
C1134 C 0.02316 0.23168 0.58622 0.0
C1135 C 0.64288 0.25076 0.31851 0.0
C1136 C 0.62946 0.27494 0.34072 0.0
C1137 C 0.67471 0.25289 0.30535 0.0
C1138 C 0.69471 0.27945 0.31354 0.0
H1139 H 0.62875 0.22971 0.31124 0.0
H1140 H 0.6837 0.23334 0.28868 0.0
S1141 S 0.67134 0.34981 0.3702 0.0
N1142 N 0.63887 0.32661 0.37009 0.0
N1143 N 0.69842 0.33078 0.34533 0.0
C1144 C 0.68158 0.30396 0.33561 0.0
C1145 C 0.64914 0.30166 0.34919 0.0
C1146 C 0.48509 0.90539 0.07367 0.0
C1147 C 0.49836 0.89202 0.1016 0.0
C1148 C 0.49221 0.93763 0.06408 0.0
C1149 C 0.51233 0.95776 0.08242 0.0
H1150 H 0.46887 0.89099 0.05923 0.0
H1151 H 0.48145 0.94705 0.04251 0.0
S1152 S 0.55507 0.93412 0.15612 0.0
N1153 N 0.53412 0.90123 0.14644 0.0
N1154 N 0.54703 0.96162 0.12845 0.0
C1155 C 0.52628 0.94455 0.10991 0.0
C1156 C 0.51946 0.91171 0.11946 0.0
C1157 C 0.91438 0.77295 0.85505 0.0
C1158 C 0.9383 0.79655 0.84752 0.0
C1159 C 0.88663 0.76939 0.83646 0.0
C1160 C 0.88095 0.78955 0.80956 0.0
H1161 H 0.91738 0.75647 0.87519 0.0
H1162 H 0.86916 0.75096 0.84373 0.0
S1163 S 0.93524 0.85614 0.77998 0.0
N1164 N 0.95388 0.84075 0.81109 0.0
N1165 N 0.90175 0.8348 0.77705 0.0
C1166 C 0.90442 0.81363 0.80208 0.0
C1167 C 0.93295 0.8169 0.8207 0.0
C1168 C 0.94088 0.11063 0.88368 0.0
C1169 C 0.94274 0.08952 0.85596 0.0
C1170 C 0.96295 0.10728 0.90813 0.0
C1171 C 0.98679 0.08231 0.90575 0.0
H1172 H 0.92329 0.13072 0.88575 0.0
H1173 H 0.9617 0.1244 0.92888 0.0
S1174 S 0.99966 0.01891 0.83995 0.0
N1175 N 0.96905 0.04174 0.82842 0.0
N1176 N 0.00987 0.03493 0.87538 0.0
C1177 C 0.98788 0.06008 0.87914 0.0
C1178 C 0.96595 0.06385 0.85388 0.0
C1179 C 0.8122 0.2701 0.59585 0.0
C1180 C 0.80502 0.23671 0.58916 0.0
C1181 C 0.79486 0.28837 0.62056 0.0
C1182 C 0.77003 0.27377 0.63949 0.0
H1183 H 0.83163 0.28207 0.58229 0.0
H1184 H 0.80193 0.31353 0.62599 0.0
S1185 S 0.7403 0.18823 0.63113 0.0
N1186 N 0.76993 0.19049 0.60298 0.0
N1187 N 0.73803 0.22506 0.64941 0.0
C1188 C 0.76196 0.24094 0.63254 0.0
C1189 C 0.77927 0.22236 0.60737 0.0
C1190 C 0.63842 0.02264 0.43605 0.0
C1191 C 0.62328 0.00868 0.40921 0.0
C1192 C 0.62052 0.03104 0.46489 0.0
C1193 C 0.58713 0.02538 0.46755 0.0
H1194 H 0.66395 0.02799 0.43448 0.0
H1195 H 0.63273 0.04268 0.48484 0.0
S1196 S 0.53741 0.98516 0.40517 0.0
N1197 N 0.57399 0.98691 0.38772 0.0
N1198 N 0.54031 1.00205 0.44189 0.0
C1199 C 0.57212 0.01003 0.4412 0.0
C1200 C 0.59024 1.00185 0.41196 0.0
C1201 C 0.82915 0.83507 0.12409 0.0
C1202 C 0.80457 0.8545 0.11081 0.0
C1203 C 0.82544 0.82073 0.15511 0.0
C1204 C 0.79671 0.82433 0.17482 0.0
H1205 H 0.85211 0.83137 0.1107 0.0
H1206 H 0.84565 0.80675 0.16383 0.0
S1207 S 0.72404 0.87174 0.15201 0.0
N1208 N 0.74979 0.87599 0.12042 0.0
N1209 N 0.74267 0.84855 0.17818 0.0
C1210 C 0.7715 0.84299 0.16173 0.0
C1211 C 0.77546 0.85814 0.1301 0.0
C1212 C 0.98075 0.10506 0.69887 0.0
C1213 C 0.9473 0.09994 0.69741 0.0
C1214 C 1.00296 0.08766 0.67805 0.0
C1215 C 0.99266 0.0643 0.65508 0.0
H1216 H 0.99007 0.12241 0.71649 0.0
H1217 H 0.02842 0.0929 0.67963 0.0
S1218 S 0.9077 0.04387 0.63913 0.0
N1219 N 0.90488 0.0711 0.66978 0.0
N1220 N 0.94671 0.03846 0.63046 0.0
C1221 C 0.95929 0.05912 0.65302 0.0
C1222 C 0.93661 0.07699 0.67416 0.0
C1223 C 0.8293 0.24956 0.42152 0.0
C1224 C 0.81769 0.21864 0.43127 0.0
C1225 C 0.82376 0.26132 0.39055 0.0
C1226 C 0.80677 0.24239 0.36806 0.0
H1227 H 0.84319 0.26463 0.43778 0.0
H1228 H 0.83342 0.28519 0.38401 0.0
S1229 S 0.77005 0.16036 0.38199 0.0
N1230 N 0.78736 0.16971 0.4164 0.0
N1231 N 0.7771 0.19189 0.35793 0.0
C1232 C 0.79438 0.21173 0.37765 0.0
C1233 C 0.79971 0.19987 0.40939 0.0
C1234 C 0.5875 0.99487 0.23305 0.0
C1235 C 0.61803 0.00504 0.24263 0.0
C1236 C 0.5702 0.01329 0.21115 0.0
C1237 C 0.58245 0.04285 0.19867 0.0
H1238 H 0.5768 0.97256 0.24263 0.0
H1239 H 0.54703 0.00445 0.20377 0.0
S1240 S 0.66165 0.07959 0.21409 0.0
N1241 N 0.66035 0.04618 0.23656 0.0
N1242 N 0.62713 0.0808 0.19558 0.0
C1243 C 0.61293 0.05322 0.20754 0.0
C1244 C 0.63094 0.03425 0.22943 0.0
C1245 C 0.77584 0.87212 0.91174 0.0
C1246 C 0.79178 0.85326 0.93496 0.0
C1247 C 0.77096 0.85962 0.8797 0.0
C1248 C 0.78077 0.82724 0.8696 0.0
H1249 H 0.76847 0.89741 0.91782 0.0
H1250 H 0.75981 0.87567 0.86254 0.0
S1251 S 0.82281 0.76722 0.92099 0.0
N1252 N 0.81712 0.80027 0.94513 0.0
N1253 N 0.80684 0.77652 0.88618 0.0
C1254 C 0.79569 0.8078 0.893 0.0
C1255 C 0.80146 0.82081 0.92519 0.0
C1256 C 0.9096 0.9557 0.05219 0.0
C1257 C 0.88274 0.97215 0.03993 0.0
C1258 C 0.93983 0.97142 0.05409 0.0
C1259 C 0.9449 0.00382 0.04268 0.0
H1260 H 0.90718 0.93062 0.06064 0.0
H1261 H 0.95969 0.95767 0.06375 0.0
S1262 S 0.88278 0.05704 0.00703 0.0
N1263 N 0.86338 0.02275 0.01615 0.0
N1264 N 0.92024 0.05126 0.01799 0.0
C1265 C 0.91836 0.0202 0.02986 0.0
C1266 C 0.88736 0.00467 0.02895 0.0
C1267 C 0.42944 0.62748 0.02197 0.0
C1268 C 0.39886 0.61389 0.02817 0.0
C1269 C 0.45677 0.6071 0.01716 0.0
C1270 C 0.4544 0.57242 0.01802 0.0
H1271 H 0.43218 0.65403 0.02035 0.0
H1272 H 0.47997 0.61864 0.01307 0.0
S1273 S 0.37921 0.52449 0.0308 0.0
N1274 N 0.36738 0.56361 0.03349 0.0
N1275 N 0.41869 0.52533 0.02396 0.0
C1276 C 0.42378 0.55849 0.02346 0.0
C1277 C 0.39605 0.57924 0.02891 0.0
C1278 C 0.21194 0.58313 0.77601 0.0
C1279 C 0.22268 0.57556 0.8072 0.0
C1280 C 0.22612 0.6083 0.75757 0.0
C1281 C 0.25137 0.6268 0.76978 0.0
H1282 H 0.1925 0.56941 0.76561 0.0
H1283 H 0.21678 0.61397 0.73408 0.0
S1284 S 0.28939 0.61687 0.849 0.0
N1285 N 0.26085 0.5888 0.84892 0.0
N1286 N 0.28734 0.63588 0.81395 0.0
C1287 C 0.26251 0.61957 0.80063 0.0
C1288 C 0.24815 0.59409 0.81948 0.0
C1289 C 0.1794 0.49737 0.58472 0.0
C1290 C 0.19342 0.47784 0.55862 0.0
C1291 C 0.14799 0.51092 0.58377 0.0
C1292 C 0.12892 0.50578 0.5566 0.0
H1293 H 0.19284 0.50249 0.60624 0.0
H1294 H 0.13876 0.52579 0.60453 0.0
S1295 S 0.15358 0.45589 0.48194 0.0
N1296 N 0.18516 0.45364 0.50489 0.0
N1297 N 0.12643 0.47894 0.50301 0.0
C1298 C 0.14246 0.48599 0.53042 0.0
C1299 C 0.1745 0.4721 0.53144 0.0
C1300 C 0.83401 0.97909 0.80795 0.0
C1301 C 0.85251 1.00046 0.78821 0.0
C1302 C 0.82295 0.94916 0.79544 0.0
C1303 C 0.82986 0.93943 0.76274 0.0
H1304 H 0.82733 0.98575 0.83313 0.0
H1305 H 0.80826 0.93378 0.81132 0.0
S1306 S 0.87974 0.98427 0.70149 0.0
N1307 N 0.87903 0.00844 0.73455 0.0
N1308 N 0.85791 0.95181 0.71137 0.0
C1309 C 0.84895 0.95985 0.74287 0.0
C1310 C 0.86045 0.9904 0.75557 0.0
C1311 C 0.70797 0.12586 0.5541 0.0
C1312 C 0.73356 0.10364 0.55912 0.0
C1313 C 0.67686 0.11998 0.56695 0.0
C1314 C 0.67022 0.09186 0.58542 0.0
H1315 H 0.71179 0.14776 0.53975 0.0
H1316 H 0.65755 0.13708 0.56169 0.0
S1317 S 0.7285 0.02641 0.60647 0.0
N1318 N 0.75022 0.05273 0.58479 0.0
N1319 N 0.69138 0.04182 0.60865 0.0
C1320 C 0.69559 0.06997 0.59157 0.0
C1321 C 0.72736 0.0758 0.57841 0.0
C1322 C 0.29388 0.41699 0.83632 0.0
C1323 C 0.27965 0.43587 0.81221 0.0
C1324 C 0.30734 0.38583 0.82833 0.0
C1325 C 0.30763 0.37367 0.79609 0.0
H1326 H 0.29037 0.4238 0.86196 0.0
H1327 H 0.31333 0.3696 0.84791 0.0
S1328 S 0.28465 0.41855 0.723 0.0
N1329 N 0.27502 0.44421 0.754 0.0
N1330 N 0.30088 0.38554 0.73911 0.0
C1331 C 0.29958 0.39494 0.7712 0.0
C1332 C 0.28548 0.42639 0.77927 0.0
C1333 C 0.27978 0.65055 0.23159 0.0
C1334 C 0.28083 0.63675 0.26282 0.0
C1335 C 0.26023 0.67829 0.22662 0.0
C1336 C 0.24182 0.69278 0.25291 0.0
H1337 H 0.29724 0.64307 0.21225 0.0
H1338 H 0.26411 0.69153 0.2041 0.0
S1339 S 0.22426 0.6564 0.33359 0.0
N1340 N 0.25253 0.63195 0.31598 0.0
N1341 N 0.21647 0.68475 0.30657 0.0
C1342 C 0.23671 0.67443 0.28121 0.0
C1343 C 0.25639 0.64615 0.28634 0.0
C1344 C 0.53261 0.67978 0.61162 0.0
C1345 C 0.5196 0.70674 0.59495 0.0
C1346 C 0.53401 0.64716 0.59778 0.0
C1347 C 0.52289 0.63978 0.56632 0.0
H1348 H 0.54094 0.68367 0.63603 0.0
H1349 H 0.54403 0.62754 0.61191 0.0
S1350 S 0.48803 0.70153 0.51153 0.0
N1351 N 0.49616 0.72344 0.54454 0.0
N1352 N 0.49928 0.66316 0.5187 0.0
C1353 C 0.51053 0.6667 0.54916 0.0
C1354 C 0.50875 0.69971 0.56337 0.0
C1355 C 0.65374 0.31489 0.8771 0.0
C1356 C 0.62614 0.31676 0.85873 0.0
C1357 C 0.68442 0.31873 0.86236 0.0
C1358 C 0.68859 0.32381 0.82852 0.0
H1359 H 0.65177 0.3081 0.90253 0.0
H1360 H 0.70501 0.31486 0.87721 0.0
S1361 S 0.62349 0.33841 0.77138 0.0
N1362 N 0.60433 0.33029 0.80645 0.0
N1363 N 0.66234 0.33678 0.77847 0.0
C1364 C 0.66103 0.32965 0.81074 0.0
C1365 C 0.62964 0.32628 0.82595 0.0
C1366 C 0.0543 0.4008 0.105 0.0
C1367 C 0.03466 0.37544 0.09279 0.0
C1368 C 0.05512 0.43286 0.09126 0.0
C1369 C 0.03623 0.44139 0.06467 0.0
H1370 H 0.06807 0.39639 0.12631 0.0
H1371 H 0.06998 0.45146 0.10232 0.0
S1372 S 0.98334 0.38325 0.0211 0.0
N1373 N 0.99793 0.36091 0.05035 0.0
N1374 N 0.99922 0.42023 0.02527 0.0
C1375 C 0.01765 0.4158 0.05142 0.0
C1376 C 0.01695 0.38328 0.0652 0.0
C1377 C 0.99661 0.77203 0.31635 0.0
C1378 C 0.9889 0.77568 0.34999 0.0
C1379 C 0.97274 0.7751 0.29369 0.0
C1380 C 0.94074 0.78211 0.3042 0.0
H1381 H 0.02121 0.76654 0.30756 0.0
H1382 H 0.97916 0.77189 0.26789 0.0
S1383 S 0.90968 0.79909 0.38937 0.0
N1384 N 0.94817 0.78941 0.39268 0.0
N1385 N 0.90319 0.79634 0.34995 0.0
C1386 C 0.93301 0.78692 0.33776 0.0
C1387 C 0.95721 0.78335 0.36079 0.0
C1388 C 0.46957 0.32434 0.9746 0.0
C1389 C 0.48992 0.32308 0.94609 0.0
C1390 C 0.46633 0.35326 0.99406 0.0
C1391 C 0.48324 0.38199 0.9857 0.0
H1392 H 0.45708 0.30243 0.98277 0.0
H1393 H 0.45138 0.35281 0.01641 0.0
S1394 S 0.53536 0.39328 0.91071 0.0
N1395 N 0.52455 0.35414 0.9087 0.0
N1396 N 0.5178 0.40868 0.94482 0.0
C1397 C 0.50219 0.38165 0.95628 0.0
C1398 C 0.50567 0.35216 0.93659 0.0
C1399 C 0.92502 0.30418 0.2141 0.0
C1400 C 0.94704 0.27756 0.21669 0.0
C1401 C 0.89393 0.30391 0.22951 0.0
C1402 C 0.88302 0.27655 0.24735 0.0
H1403 H 0.9321 0.32583 0.20056 0.0
H1404 H 0.87803 0.32507 0.22683 0.0
S1405 S 0.9305 0.19999 0.26075 0.0
N1406 N 0.95549 0.22302 0.2387 0.0
N1407 N 0.89655 0.22174 0.26611 0.0
C1408 C 0.90447 0.24946 0.2496 0.0
C1409 C 0.93657 0.25018 0.23475 0.0
C1410 C 0.04225 0.69008 0.52347 0.0
C1411 C 0.0579 0.69392 0.49274 0.0
C1412 C 0.04737 0.66153 0.5412 0.0
C1413 C 0.06732 0.63571 0.52801 0.0
H1414 H 0.02443 0.70818 0.53281 0.0
H1415 H 0.033 0.65824 0.56364 0.0
S1416 S 0.11665 0.63576 0.45044 0.0
N1417 N 0.09716 0.67171 0.45172 0.0
N1418 N 0.10545 0.61713 0.4845 0.0
C1419 C 0.08511 0.64048 0.49866 0.0
C1420 C 0.08067 0.66994 0.48107 0.0
C1421 C 0.65231 0.83312 0.72716 0.0
C1422 C 0.63392 0.80581 0.71719 0.0
C1423 C 0.68258 0.82922 0.7411 0.0
C1424 C 0.69609 0.79773 0.74664 0.0
H1425 H 0.64335 0.85808 0.72397 0.0
H1426 H 0.69551 0.85131 0.74774 0.0
S1427 S 0.65824 0.71768 0.72533 0.0
N1428 N 0.632 0.74577 0.7139 0.0
N1429 N 0.68836 0.73842 0.7406 0.0
C1430 C 0.67796 0.77006 0.73703 0.0
C1431 C 0.6472 0.77408 0.7222 0.0
C1432 C 0.63165 0.51335 0.69363 0.0
C1433 C 0.61524 0.52272 0.7233 0.0
C1434 C 0.61504 0.51029 0.66477 0.0
C1435 C 0.58156 0.51568 0.66507 0.0
H1436 H 0.65732 0.50786 0.69285 0.0
H1437 H 0.62812 0.5027 0.6423 0.0
S1438 S 0.52747 0.54135 0.73552 0.0
N1439 N 0.5636 0.53846 0.75064 0.0
N1440 N 0.53264 0.53165 0.69626 0.0
C1441 C 0.56499 0.5256 0.69415 0.0
C1442 C 0.58182 0.52945 0.72337 0.0
C1443 C 0.77977 0.36299 0.97473 0.0
C1444 C 0.80759 0.36566 0.99296 0.0
C1445 C 0.77917 0.34179 0.94735 0.0
C1446 C 0.8062 0.32218 0.93731 0.0
H1447 H 0.75837 0.37783 0.9812 0.0
H1448 H 0.75742 0.34083 0.93375 0.0
S1449 S 0.88479 0.31903 0.97661 0.0
N1450 N 0.8628 0.346 0.9992 0.0
N1451 N 0.86141 0.30632 0.94748 0.0
C1452 C 0.83394 0.32393 0.95553 0.0
C1453 C 0.83472 0.34568 0.98337 0.0
C1454 C 0.97076 0.59949 0.1576 0.0
C1455 C 0.94696 0.57835 0.17049 0.0
C1456 C 0.98676 0.59221 0.12755 0.0
C1457 C 0.97886 0.56408 0.10911 0.0
H1458 H 0.97838 0.62086 0.17155 0.0
H1459 H 0.00596 0.60827 0.11904 0.0
S1460 S 0.91623 0.50262 0.1304 0.0
N1461 N 0.91474 0.52933 0.16157 0.0
N1462 N 0.94448 0.51611 0.10443 0.0
C1463 C 0.95378 0.54383 0.12064 0.0
C1464 C 0.93788 0.55087 0.15158 0.0
C1465 C 0.82936 0.74509 0.41314 0.0
C1466 C 0.80292 0.73097 0.43085 0.0
C1467 C 0.82698 0.7571 0.38117 0.0
C1468 C 0.79793 0.75654 0.36469 0.0
H1469 H 0.85277 0.74627 0.42373 0.0
H1470 H 0.8484 0.76684 0.3691 0.0
S1471 S 0.7208 0.7227 0.39914 0.0
N1472 N 0.74621 0.71723 0.42847 0.0
N1473 N 0.74156 0.74056 0.36915 0.0
C1474 C 0.77099 0.74301 0.38209 0.0
C1475 C 0.77353 0.73015 0.4147 0.0
C1476 C 0.59694 0.47004 0.91056 0.0
C1477 C 0.60688 0.49675 0.89153 0.0
C1478 C 0.58002 0.47552 0.94056 0.0
C1479 C 0.57339 0.50789 0.95255 0.0
H1480 H 0.60219 0.44484 0.90215 0.0
H1481 H 0.57286 0.45436 0.95481 0.0
S1482 S 0.59495 0.58592 0.91137 0.0
N1483 N 0.609 0.55629 0.88593 0.0
N1484 N 0.57798 0.56693 0.94291 0.0
C1485 C 0.5834 0.53477 0.93358 0.0
C1486 C 0.59999 0.5291 0.90281 0.0
C1487 C 0.76018 0.36429 0.16446 0.0
C1488 C 0.78804 0.36134 0.14355 0.0
C1489 C 0.75507 0.34275 0.19024 0.0
C1490 C 0.77709 0.31701 0.1952 0.0
H1491 H 0.74306 0.38448 0.16204 0.0
H1492 H 0.73463 0.34719 0.20731 0.0
S1493 S 0.85209 0.29663 0.1458 0.0
N1494 N 0.83683 0.32937 0.12831 0.0
N1495 N 0.82661 0.28824 0.17658 0.0
C1496 C 0.80391 0.31237 0.17336 0.0
C1497 C 0.80958 0.33478 0.14754 0.0
C1498 C 0.9855 0.52106 0.35351 0.0
C1499 C 0.96488 0.54906 0.35431 0.0
C1500 C 1.00145 0.51174 0.38116 0.0
C1501 C 0.99708 0.52984 0.4106 0.0
H1502 H 0.99006 0.50662 0.33114 0.0
H1503 H 0.01804 0.49078 0.37938 0.0
S1504 S 0.94561 0.60485 0.42594 0.0
N1505 N 0.9407 0.59457 0.3873 0.0
N1506 N 0.97063 0.57675 0.4394 0.0
C1507 C 0.97572 0.55718 0.4122 0.0
C1508 C 0.9596 0.56686 0.38397 0.0
C1509 C 0.79326 0.70905 0.63923 0.0
C1510 C 0.8074 0.72763 0.61359 0.0
C1511 C 0.79191 0.72082 0.67227 0.0
C1512 C 0.80422 0.75203 0.6815 0.0
H1513 H 0.78399 0.68469 0.63392 0.0
H1514 H 0.78091 0.70529 0.69075 0.0
S1515 S 0.84247 0.8113 0.62388 0.0
N1516 N 0.83332 0.77949 0.60025 0.0
N1517 N 0.83024 0.80155 0.66129 0.0
C1518 C 0.81775 0.77109 0.65596 0.0
C1519 C 0.81949 0.75896 0.6225 0.0
C1520 C 0.67895 0.59945 0.53891 0.0
C1521 C 0.69378 0.60662 0.50817 0.0
C1522 C 0.64814 0.58438 0.54179 0.0
C1523 C 0.63037 0.57626 0.51412 0.0
H1524 H 0.69151 0.6049 0.56092 0.0
H1525 H 0.63795 0.57953 0.566 0.0
S1526 S 0.65768 0.59074 0.42801 0.0
N1527 N 0.68757 0.60458 0.44951 0.0
N1528 N 0.63035 0.57726 0.45491 0.0
C1529 C 0.64485 0.58373 0.48337 0.0
C1530 C 0.67621 0.59855 0.48043 0.0
C1531 C 0.18077 0.99332 0.60482 0.0
C1532 C 0.18423 0.96183 0.58969 0.0
C1533 C 0.1503 0.00814 0.61025 0.0
C1534 C 0.12234 0.99162 0.60135 0.0
H1535 H 0.20183 0.0075 0.61065 0.0
H1536 H 0.14881 0.03337 0.61979 0.0
S1537 S 0.11859 0.90602 0.56648 0.0
N1538 N 0.15748 0.91287 0.56964 0.0
N1539 N 0.09992 0.94006 0.58067 0.0
C1540 C 0.12541 0.95876 0.58905 0.0
C1541 C 0.1565 0.94405 0.58288 0.0
C1542 C 0.36063 0.96166 0.79124 0.0
C1543 C 0.34423 0.99049 0.80288 0.0
C1544 C 0.34413 0.93171 0.78839 0.0
C1545 C 0.3109 0.93015 0.79684 0.0
H1546 H 0.38647 0.9619 0.78593 0.0
H1547 H 0.35767 0.9094 0.7813 0.0
S1548 S 0.25634 1.00036 0.82203 0.0
N1549 N 0.29256 0.01676 0.81855 0.0
N1550 N 0.26157 0.96067 0.81251 0.0
C1551 C 0.294 0.95942 0.80594 0.0
C1552 C 0.31071 0.98961 0.80915 0.0
C1553 C 0.39156 0.09343 0.07318 0.0
C1554 C 0.3857 0.1171 0.04921 0.0
C1555 C 0.42279 0.07981 0.07697 0.0
C1556 C 0.44932 0.08862 0.05638 0.0
H1557 H 0.37179 0.08508 0.08898 0.0
H1558 H 0.42596 0.06146 0.09543 0.0
S1559 S 0.44811 0.15053 0.99105 0.0
N1560 N 0.41033 0.14974 0.0057 0.0
N1561 N 0.46806 0.12344 0.01223 0.0
C1562 C 0.444 0.11252 0.03277 0.0
C1563 C 0.41253 0.12693 0.02936 0.0
C1564 C 0.70735 0.60181 0.80498 0.0
C1565 C 0.69913 0.59187 0.83703 0.0
C1566 C 0.72385 0.63137 0.79935 0.0
C1567 C 0.73255 0.65175 0.82556 0.0
H1568 H 0.70294 0.58569 0.78423 0.0
H1569 H 0.73172 0.63722 0.77461 0.0
S1570 S 0.71023 0.64084 0.91319 0.0
N1571 N 0.69628 0.6076 0.89474 0.0
N1572 N 0.72721 0.66311 0.88397 0.0
C1573 C 0.72184 0.64368 0.85733 0.0
C1574 C 0.70511 0.61372 0.86312 0.0
C1575 C 0.83896 0.482 0.99684 0.0
C1576 C 0.82869 0.4954 0.02756 0.0
C1577 C 0.86913 0.49018 0.98268 0.0
C1578 C 0.88937 0.51181 0.99907 0.0
H1579 H 0.8248 0.46327 0.98501 0.0
H1580 H 0.87771 0.47776 0.96017 0.0
S1581 S 0.87048 0.55769 0.07704 0.0
N1582 N 0.83885 0.534 0.07194 0.0
N1583 N 0.89521 0.55017 0.04488 0.0
C1584 C 0.8779 0.52756 0.0283 0.0
C1585 C 0.84755 0.51903 0.04277 0.0
C1586 C 0.28279 0.14776 0.80479 0.0
C1587 C 0.30565 0.13153 0.78333 0.0
C1588 C 0.26471 0.17468 0.79432 0.0
C1589 C 0.26994 0.18646 0.76255 0.0
H1590 H 0.2814 0.14224 0.83054 0.0
H1591 H 0.25111 0.18959 0.81265 0.0
S1592 S 0.31682 0.14491 0.69418 0.0
N1593 N 0.32418 0.12261 0.72632 0.0
N1594 N 0.29148 0.17458 0.70761 0.0
C1595 C 0.28747 0.16653 0.73954 0.0
C1596 C 0.30543 0.13879 0.74984 0.0
C1597 C 0.26973 0.91791 0.32534 0.0
C1598 C 0.24801 0.93836 0.30951 0.0
C1599 C 0.28458 0.89067 0.30896 0.0
C1600 C 0.27775 0.88273 0.27637 0.0
H1601 H 0.27303 0.92095 0.35129 0.0
H1602 H 0.29835 0.87373 0.32318 0.0
S1603 S 0.23267 0.93564 0.22096 0.0
N1604 N 0.22798 0.9544 0.2571 0.0
N1605 N 0.25564 0.90275 0.22647 0.0
C1606 C 0.26077 0.90621 0.25886 0.0
C1607 C 0.24573 0.93409 0.27549 0.0
C1608 C 0.51979 0.39705 0.4899 0.0
C1609 C 0.52603 0.3877 0.45679 0.0
C1610 C 0.5273 0.42888 0.50223 0.0
C1611 C 0.54062 0.45354 0.48196 0.0
H1612 H 0.50872 0.37962 0.50653 0.0
H1613 H 0.52134 0.4346 0.52776 0.0
S1614 S 0.56178 0.44226 0.39334 0.0
N1615 N 0.5473 0.40599 0.40408 0.0
N1616 N 0.55997 0.4659 0.42682 0.0
C1617 C 0.54716 0.44453 0.44882 0.0
C1618 C 0.54033 0.41173 0.43642 0.0
C1619 C 0.406 0.75578 0.22517 0.0
C1620 C 0.41178 0.75936 0.19141 0.0
C1621 C 0.37455 0.75678 0.23893 0.0
C1622 C 0.34796 0.76125 0.21932 0.0
H1623 H 0.42582 0.75539 0.24146 0.0
H1624 H 0.37136 0.75647 0.26531 0.0
S1625 S 0.3505 0.76055 0.12884 0.0
N1626 N 0.38875 0.75947 0.13817 0.0
N1627 N 0.32924 0.76128 0.16392 0.0
C1628 C 0.35335 0.76032 0.18521 0.0
C1629 C 0.38544 0.75935 0.17126 0.0
C1630 C 0.04854 0.68406 0.97391 0.0
C1631 C 0.01756 0.69814 0.96996 0.0
C1632 C 0.05263 0.6521 0.98727 0.0
C1633 C 0.02593 0.63227 0.99638 0.0
H1634 H 0.06983 0.69778 0.96659 0.0
H1635 H 0.0769 0.6425 0.98962 0.0
S1636 S 0.93971 0.65685 0.99142 0.0
N1637 N 0.9597 0.6889 0.97721 0.0
N1638 N 0.96752 0.62967 1.00098 0.0
C1639 C 0.99502 0.64609 0.99266 0.0
C1640 C 0.99081 0.67863 0.97986 0.0
C1641 C 0.08683 0.3548 0.78156 0.0
C1642 C 0.08303 0.35464 0.74767 0.0
C1643 C 0.11642 0.3459 0.79416 0.0
C1644 C 0.1432 0.33707 0.77333 0.0
H1645 H 0.06627 0.35919 0.79848 0.0
H1646 H 0.11791 0.34395 0.82034 0.0
S1647 S 0.14715 0.33901 0.68281 0.0
N1648 N 0.10953 0.34978 0.69356 0.0
N1649 N 0.16514 0.33291 0.71727 0.0
C1650 C 0.14056 0.34015 0.73948 0.0
C1651 C 0.1104 0.34899 0.72664 0.0
C1652 C 0.50825 0.70873 0.0624 0.0
C1653 C 0.5223 0.73026 0.0849 0.0
C1654 C 0.52419 0.67963 0.05141 0.0
C1655 C 0.5548 0.67105 0.06227 0.0
H1656 H 0.48394 0.7132 0.05476 0.0
H1657 H 0.51182 0.66281 0.03552 0.0
S1658 S 0.60473 0.72174 0.11598 0.0
N1659 N 0.5708 0.74331 0.11386 0.0
N1660 N 0.60041 0.68807 0.09309 0.0
C1661 C 0.57043 0.69366 0.08223 0.0
C1662 C 0.55421 0.72338 0.09363 0.0
C1663 C 0.14209 0.79539 0.84016 0.0
C1664 C 0.12412 0.76617 0.83726 0.0
C1665 C 0.17322 0.79813 0.82501 0.0
C1666 C 0.18792 0.7717 0.80642 0.0
H1667 H 0.13186 0.81657 0.85383 0.0
H1668 H 0.18584 0.82122 0.82796 0.0
S1669 S 0.15204 0.68894 0.79287 0.0
N1670 N 0.12417 0.70972 0.81527 0.0
N1671 N 0.18216 0.71477 0.78718 0.0
C1672 C 0.17038 0.74216 0.80382 0.0
C1673 C 0.13872 0.73943 0.81909 0.0
C1674 C 1.00059 0.42754 0.63447 0.0
C1675 C 0.9876 0.40153 0.61629 0.0
C1676 C 0.00849 0.45729 0.62008 0.0
C1677 C 0.00407 0.46225 0.58674 0.0
H1678 H 0.00474 0.42501 0.66021 0.0
H1679 H 0.01879 0.47629 0.63534 0.0
S1680 S 0.97001 0.40211 0.52846 0.0
N1681 N 0.96974 0.38257 0.56344 0.0
N1682 N 0.98513 0.43899 0.53592 0.0
C1683 C 0.99067 0.43666 0.56819 0.0
C1684 C 0.98222 0.40619 0.5831 0.0
C1685 C 0.41905 0.27744 0.35795 0.0
C1686 C 0.44293 0.3006 0.34919 0.0
C1687 C 0.39081 0.27384 0.34032 0.0
C1688 C 0.38461 0.29359 0.31329 0.0
H1689 H 0.42244 0.26133 0.3783 0.0
H1690 H 0.37339 0.25571 0.34846 0.0
S1691 S 0.43869 0.35889 0.28071 0.0
N1692 N 0.45812 0.34388 0.31151 0.0
N1693 N 0.40483 0.33794 0.27923 0.0
C1694 C 0.40805 0.31724 0.30455 0.0
C1695 C 0.43715 0.32049 0.32218 0.0
C1696 C 0.47452 0.59058 0.32921 0.0
C1697 C 0.44254 0.6026 0.33441 0.0
C1698 C 0.49457 0.58628 0.3552 0.0
C1699 C 0.48317 0.59318 0.38725 0.0
H1700 H 0.48447 0.58481 0.30481 0.0
H1701 H 0.51919 0.57761 0.35034 0.0
S1702 S 0.40257 0.62597 0.41477 0.0
N1703 N 0.40117 0.6225 0.37464 0.0
N1704 N 0.43895 0.6128 0.42359 0.0
C1705 C 0.45145 0.60475 0.39318 0.0
C1706 C 0.43108 0.60988 0.36668 0.0
C1707 C 0.26917 0.72786 0.08082 0.0
C1708 C 0.29576 0.74273 0.06463 0.0
C1709 C 0.24933 0.74569 0.10352 0.0
C1710 C 0.25508 0.77907 0.11082 0.0
H1711 H 0.26446 0.70175 0.07723 0.0
H1712 H 0.23054 0.73278 0.11713 0.0
S1713 S 0.31855 0.83095 0.07224 0.0
N1714 N 0.32441 0.79402 0.05469 0.0
N1715 N 0.28722 0.82734 0.09829 0.0
C1716 C 0.2799 0.79505 0.09312 0.0
C1717 C 0.30026 0.77688 0.06982 0.0
C1718 C 0.09398 0.50939 0.8919 0.0
C1719 C 0.12517 0.49555 0.89327 0.0
C1720 C 0.07528 0.51678 0.92032 0.0
C1721 C 0.08729 0.51102 0.95112 0.0
H1722 H 0.0837 0.51443 0.86868 0.0
H1723 H 0.05139 0.52745 0.91813 0.0
S1724 S 0.16667 0.47394 0.96845 0.0
N1725 N 0.1666 0.47497 0.92823 0.0
N1726 N 0.13166 0.49022 0.98182 0.0
C1727 C 0.11838 0.49738 0.95307 0.0
C1728 C 0.13729 0.48927 0.92407 0.0
C1729 C 0.26974 0.35383 0.64035 0.0
C1730 C 0.29416 0.34308 0.61698 0.0
C1731 C 0.26534 0.33866 0.67126 0.0
C1732 C 0.28531 0.31214 0.68047 0.0
H1733 H 0.25473 0.37507 0.63536 0.0
H1734 H 0.24715 0.34884 0.68863 0.0
S1735 S 0.34995 0.27147 0.62726 0.0
N1736 N 0.3363 0.30152 0.60484 0.0
N1737 N 0.32843 0.27399 0.66213 0.0
C1738 C 0.30862 0.30018 0.65676 0.0
C1739 C 0.31291 0.31529 0.62539 0.0
C1740 C 0.47852 0.5833 0.16955 0.0
C1741 C 0.44462 0.5818 0.17095 0.0
C1742 C 0.49716 0.56389 0.14712 0.0
C1743 C 0.48274 0.54222 0.12504 0.0
H1744 H 0.49098 0.59979 0.18575 0.0
H1745 H 0.52313 0.56687 0.14618 0.0
S1746 S 0.39501 0.52834 0.11889 0.0
N1747 N 0.3973 0.55604 0.1489 0.0
N1748 N 0.43264 0.51974 0.10616 0.0
C1749 C 0.44895 0.53951 0.12675 0.0
C1750 C 0.42981 0.55936 0.14976 0.0
C1751 C 0.30604 0.70285 0.89331 0.0
C1752 C 0.32333 0.72214 0.91524 0.0
C1753 C 0.29875 0.71482 0.86298 0.0
C1754 C 0.30813 0.7466 0.85377 0.0
H1755 H 0.29852 0.67808 0.89936 0.0
H1756 H 0.28527 0.69921 0.84685 0.0
S1757 S 0.35295 0.80731 0.90274 0.0
N1758 N 0.34919 0.77473 0.92612 0.0
N1759 N 0.33509 0.7975 0.86876 0.0
C1760 C 0.32505 0.76641 0.87555 0.0
C1761 C 0.33281 0.75406 0.90641 0.0
C1762 C 0.08457 0.48772 0.72882 0.0
C1763 C 0.11799 0.49241 0.73115 0.0
C1764 C 0.06559 0.50962 0.71171 0.0
C1765 C 0.07921 0.53716 0.69621 0.0
H1766 H 0.07276 0.46713 0.74063 0.0
H1767 H 0.04017 0.50445 0.70997 0.0
S1768 S 0.16539 0.56059 0.69404 0.0
N1769 N 0.164 0.52659 0.71562 0.0
N1770 N 0.12797 0.56791 0.68384 0.0
C1771 C 0.11256 0.54205 0.69796 0.0
C1772 C 0.13203 0.51963 0.71523 0.0
C1773 C 0.28806 0.38079 0.41698 0.0
C1774 C 0.29869 0.36073 0.44233 0.0
C1775 C 0.2825 0.36756 0.38521 0.0
C1776 C 0.28623 0.33335 0.3773 0.0
H1777 H 0.28525 0.40723 0.42129 0.0
H1778 H 0.2756 0.38444 0.36654 0.0
S1779 S 0.31193 0.26968 0.43533 0.0
N1780 N 0.31196 0.30457 0.45705 0.0
N1781 N 0.30031 0.27981 0.39888 0.0
C1782 C 0.2957 0.313 0.40293 0.0
C1783 C 0.30221 0.32658 0.43483 0.0
C1784 C 0.40772 0.46621 0.54527 0.0
C1785 C 0.38346 0.4744 0.52364 0.0
C1786 C 0.43643 0.48469 0.54719 0.0
C1787 C 0.44278 0.51219 0.52727 0.0
H1788 H 0.40428 0.44563 0.56148 0.0
H1789 H 0.45407 0.47691 0.56421 0.0
S1790 S 0.38789 0.54368 0.46551 0.0
N1791 N 0.36832 0.51212 0.48147 0.0
N1792 N 0.4221 0.546 0.48444 0.0
C1793 C 0.41895 0.52036 0.50516 0.0
C1794 C 0.38949 0.5018 0.50353 0.0
C1795 C 0.93411 0.13474 0.542 0.0
C1796 C 0.90522 0.11707 0.54432 0.0
C1797 C 0.96394 0.11833 0.5432 0.0
C1798 C 0.96571 0.08369 0.54584 0.0
H1799 H 0.93362 0.16137 0.53943 0.0
H1800 H 0.98569 0.13289 0.54232 0.0
S1801 S 0.89653 0.02602 0.54962 0.0
N1802 N 0.87993 0.06318 0.54778 0.0
N1803 N 0.93578 0.03218 0.54901 0.0
C1804 C 0.93683 0.06573 0.54713 0.0
C1805 C 0.9066 0.08249 0.54672 0.0
C1806 C 0.75705 0.08814 0.31709 0.0
C1807 C 0.72339 0.08614 0.32243 0.0
C1808 C 0.77046 0.11072 0.2951 0.0
C1809 C 0.75056 0.13207 0.27821 0.0
H1810 H 0.77304 0.07151 0.32925 0.0
H1811 H 0.79647 0.11225 0.29197 0.0
S1812 S 0.6613 0.13771 0.28498 0.0
N1813 N 0.67059 0.10759 0.3096 0.0
N1814 N 0.69602 0.15092 0.26905 0.0
C1815 C 0.71699 0.13062 0.28374 0.0
C1816 C 0.70333 0.1074 0.30568 0.0
C1817 C 0.67659 0.97705 0.02639 0.0
C1818 C 0.6956 0.97994 0.05391 0.0
C1819 C 0.64526 0.99114 0.02626 0.0
C1820 C 0.63133 0.00864 0.05373 0.0
H1821 H 0.6862 0.96434 0.00442 0.0
H1822 H 0.63194 0.98839 0.00429 0.0
S1823 S 0.66991 0.02122 0.13308 0.0
N1824 N 0.69729 1.0004 0.11007 0.0
N1825 N 0.63884 0.02651 0.10994 0.0
C1826 C 0.64982 0.01102 0.08171 0.0
C1827 C 0.68174 0.99682 0.08177 0.0
C1828 C 0.33729 0.48456 0.30149 0.0
C1829 C 0.35555 0.50353 0.27919 0.0
C1830 C 0.32566 0.45366 0.29232 0.0
C1831 C 0.33171 0.44068 0.26056 0.0
H1832 H 0.33098 0.49398 0.32593 0.0
H1833 H 0.31095 0.4402 0.30992 0.0
S1834 S 0.38173 0.47775 0.19422 0.0
N1835 N 0.38182 0.50524 0.22462 0.0
N1836 N 0.35943 0.44695 0.20775 0.0
C1837 C 0.35103 0.45842 0.23843 0.0
C1838 C 0.3632 0.48986 0.24771 0.0
C1839 C 0.229 0.57127 0.04765 0.0
C1840 C 0.23252 0.60061 0.02998 0.0
C1841 C 0.1992 0.56277 0.06224 0.0
C1842 C 0.17195 0.58321 0.05947 0.0
H1843 H 0.24933 0.55458 0.05018 0.0
H1844 H 0.19713 0.53949 0.07467 0.0
S1845 S 0.16821 0.66336 0.01771 0.0
N1846 N 0.20611 0.65074 0.01179 0.0
N1847 N 0.15015 0.63446 0.03941 0.0
C1848 C 0.17516 0.61288 0.04263 0.0
C1849 C 0.20543 0.62165 0.02779 0.0
C1850 C 0.7755 0.93762 0.29 0.0
C1851 C 0.77341 0.94444 0.32389 0.0
C1852 C 0.78639 0.9068 0.27792 0.0
C1853 C 0.79662 0.88283 0.29932 0.0
H1854 H 0.76494 0.95448 0.27315 0.0
H1855 H 0.78409 0.90069 0.25225 0.0
S1856 S 0.806 0.89206 0.38817 0.0
N1857 N 0.78973 0.92751 0.37751 0.0
N1858 N 0.81115 0.86958 0.35412 0.0
C1859 C 0.79993 0.89116 0.33222 0.0
C1860 C 0.78839 0.92237 0.34473 0.0
C1861 C 0.76466 0.15435 0.82295 0.0
C1862 C 0.78248 0.13997 0.79607 0.0
C1863 C 0.74863 0.18465 0.81993 0.0
C1864 C 0.74995 0.20092 0.78998 0.0
H1865 H 0.76697 0.14501 0.8473 0.0
H1866 H 0.73957 0.19758 0.84201 0.0
S1867 S 0.77957 0.16525 0.70991 0.0
N1868 N 0.79027 0.13788 0.73682 0.0
N1869 N 0.75976 0.19487 0.73116 0.0
C1870 C 0.76064 0.18284 0.76178 0.0
C1871 C 0.77725 0.15213 0.76486 0.0
loop_
_geom_bond_atom_site_label_1
_geom_bond_atom_site_label_2
_geom_bond_distance
_geom_bond_site_symmetry_2
_ccdc_geom_bond_type
Mg0 O1 2.028 . S
Mg0 O7 1.986 . S
Mg0 O9 2.114 . S
Mg0 O10 2.251 1_455 S
Mg0 O13 2.010 . S
O1 Mg0 2.028 . S
O1 C4 1.250 . S
O2 Mg3 2.028 1_455 S
O2 C4 1.248 . S
Mg3 O2 2.028 1_655 S
Mg3 O8 2.032 1_655 S
Mg3 O10 2.079 . S
C4 O1 1.250 . S
C4 O2 1.248 . S
C5 O6 1.264 . S
C5 O13 1.249 . S
O6 C5 1.264 . S
O7 Mg0 1.986 . S
O7 C11 1.246 . S
O8 Mg3 2.032 1_455 S
O8 C11 1.259 . S
O9 Mg0 2.114 . S
O9 C12 1.252 1_455 S
O10 Mg0 2.251 1_655 S
O10 Mg3 2.079 . S
O10 C12 1.273 . S
C11 O7 1.246 . S
C11 O8 1.259 . S
C12 O9 1.252 1_655 S
C12 O10 1.273 . S
O13 Mg0 2.010 . S
O13 C5 1.249 . S
Mg14 O15 2.028 . S
Mg14 O21 1.986 . S
Mg14 O23 2.114 . S
Mg14 O24 2.251 . S
Mg14 O27 2.010 . S
O15 Mg14 2.028 . S
O15 C18 1.250 . S
O16 Mg17 2.028 1_455 S
O16 C18 1.248 . S
Mg17 O16 2.028 1_655 S
Mg17 O22 2.032 1_655 S
Mg17 O24 2.079 1_655 S
C18 O15 1.250 . S
C18 O16 1.248 . S
C19 O20 1.264 . S
C19 O27 1.249 . S
O20 C19 1.264 . S
O21 Mg14 1.986 . S
O21 C25 1.246 . S
O22 Mg17 2.032 1_455 S
O22 C25 1.259 . S
O23 Mg14 2.114 . S
O23 C26 1.252 . S
O24 Mg14 2.251 . S
O24 Mg17 2.079 1_455 S
O24 C26 1.273 . S
C25 O21 1.246 . S
C25 O22 1.259 . S
C26 O23 1.252 . S
C26 O24 1.273 . S
O27 Mg14 2.010 . S
O27 C19 1.249 . S
Mg28 O29 2.028 . S
Mg28 O35 1.986 . S
Mg28 O37 2.114 . S
Mg28 O38 2.251 . S
Mg28 O41 2.010 . S
O29 Mg28 2.028 . S
O29 C32 1.250 . S
O30 Mg31 2.028 . S
O30 C32 1.248 . S
Mg31 O30 2.028 . S
Mg31 O36 2.032 . S
Mg31 O38 2.079 . S
C32 O29 1.250 . S
C32 O30 1.248 . S
C33 O34 1.264 . S
C33 O41 1.249 . S
O34 C33 1.264 . S
O35 Mg28 1.986 . S
O35 C39 1.246 . S
O36 Mg31 2.032 . S
O36 C39 1.259 . S
O37 Mg28 2.114 . S
O37 C40 1.252 . S
O38 Mg28 2.251 . S
O38 Mg31 2.079 . S
O38 C40 1.273 . S
C39 O35 1.246 . S
C39 O36 1.259 . S
C40 O37 1.252 . S
C40 O38 1.273 . S
O41 Mg28 2.010 . S
O41 C33 1.249 . S
Mg42 O43 2.028 . S
Mg42 O49 1.986 . S
Mg42 O51 2.114 . S
Mg42 O52 2.251 . S
Mg42 O55 2.010 . S
O43 Mg42 2.028 . S
O43 C46 1.250 . S
O44 Mg45 2.028 . S
O44 C46 1.248 . S
Mg45 O44 2.028 . S
Mg45 O50 2.032 . S
Mg45 O52 2.079 . S
C46 O43 1.250 . S
C46 O44 1.248 . S
C47 O48 1.264 . S
C47 O55 1.249 . S
O48 C47 1.264 . S
O49 Mg42 1.986 . S
O49 C53 1.246 . S
O50 Mg45 2.032 . S
O50 C53 1.259 . S
O51 Mg42 2.114 . S
O51 C54 1.252 . S
O52 Mg42 2.251 . S
O52 Mg45 2.079 . S
O52 C54 1.273 . S
C53 O49 1.246 . S
C53 O50 1.259 . S
C54 O51 1.252 . S
C54 O52 1.273 . S
O55 Mg42 2.010 . S
O55 C47 1.249 . S
Mg56 O57 2.028 1_565 S
Mg56 O63 1.986 . S
Mg56 O65 2.114 1_565 S
Mg56 O66 2.251 . S
Mg56 O69 2.010 . S
O57 Mg56 2.028 1_545 S
O57 C60 1.250 . S
O58 Mg59 2.053 . S
O58 C60 1.248 . S
Mg59 O58 2.053 . S
Mg59 O64 2.010 1_545 S
Mg59 O66 2.076 1_545 S
C60 O57 1.250 . S
C60 O58 1.248 . S
C61 O62 1.264 . S
C61 O69 1.249 . S
O62 C61 1.264 . S
O63 Mg56 1.986 . S
O63 C67 1.246 . S
O64 Mg59 2.010 1_565 S
O64 C67 1.259 . S
O65 Mg56 2.114 1_545 S
O65 C68 1.252 . S
O66 Mg56 2.251 . S
O66 Mg59 2.076 1_565 S
O66 C68 1.273 1_565 S
C67 O63 1.246 . S
C67 O64 1.259 . S
C68 O65 1.252 . S
C68 O66 1.273 1_545 S
O69 Mg56 2.010 . S
O69 C61 1.249 . S
Mg70 O71 2.028 . S
Mg70 O77 1.986 . S
Mg70 O79 2.114 . S
Mg70 O80 2.251 . S
Mg70 O83 2.010 . S
O71 Mg70 2.028 . S
O71 C74 1.250 . S
O72 Mg73 2.028 . S
O72 C74 1.248 . S
Mg73 O72 2.028 . S
Mg73 O78 2.032 . S
Mg73 O80 2.079 . S
C74 O71 1.250 . S
C74 O72 1.248 . S
C75 O76 1.264 . S
C75 O83 1.249 . S
O76 C75 1.264 . S
O77 Mg70 1.986 . S
O77 C81 1.246 . S
O78 Mg73 2.032 . S
O78 C81 1.259 . S
O79 Mg70 2.114 . S
O79 C82 1.252 . S
O80 Mg70 2.251 . S
O80 Mg73 2.079 . S
O80 C82 1.273 . S
C81 O77 1.246 . S
C81 O78 1.259 . S
C82 O79 1.252 . S
C82 O80 1.273 . S
O83 Mg70 2.010 . S
O83 C75 1.249 . S
Mg84 O85 2.028 . S
Mg84 O91 1.986 . S
Mg84 O93 2.114 . S
Mg84 O94 2.251 . S
Mg84 O97 2.010 . S
O85 Mg84 2.028 . S
O85 C88 1.250 . S
O86 Mg87 2.028 . S
O86 C88 1.248 . S
Mg87 O86 2.028 . S
Mg87 O92 2.032 . S
Mg87 O94 2.079 . S
C88 O85 1.250 . S
C88 O86 1.248 . S
C89 O90 1.264 . S
C89 O97 1.249 . S
O90 C89 1.264 . S
O91 Mg84 1.986 . S
O91 C95 1.246 . S
O92 Mg87 2.032 . S
O92 C95 1.259 . S
O93 Mg84 2.114 . S
O93 C96 1.252 . S
O94 Mg84 2.251 . S
O94 Mg87 2.079 . S
O94 C96 1.273 . S
C95 O91 1.246 . S
C95 O92 1.259 . S
C96 O93 1.252 . S
C96 O94 1.273 . S
O97 Mg84 2.010 . S
O97 C89 1.249 . S
Mg98 O99 2.028 . S
Mg98 O105 1.986 1_554 S
Mg98 O107 2.114 . S
Mg98 O108 2.251 . S
Mg98 O111 2.010 . S
O99 Mg98 2.028 . S
O99 C102 1.250 . S
O100 Mg101 2.028 . S
O100 C102 1.248 . S
Mg101 O100 2.028 . S
Mg101 O106 2.039 . S
Mg101 O108 2.079 . S
C102 O99 1.250 . S
C102 O100 1.248 . S
C103 O104 1.264 . S
C103 O111 1.249 . S
O104 C103 1.264 . S
O105 Mg98 1.986 1_556 S
O105 C109 1.246 . S
O106 Mg101 2.039 . S
O106 C109 1.255 1_554 S
O107 Mg98 2.114 . S
O107 C110 1.252 . S
O108 Mg98 2.251 . S
O108 Mg101 2.079 . S
O108 C110 1.273 . S
C109 O105 1.246 . S
C109 O106 1.255 1_556 S
C110 O107 1.252 . S
C110 O108 1.273 . S
O111 Mg98 2.010 . S
O111 C103 1.249 . S
Mg112 O113 2.028 . S
Mg112 O119 1.986 . S
Mg112 O121 2.114 . S
Mg112 O122 2.251 . S
Mg112 O125 2.010 . S
O113 Mg112 2.028 . S
O113 C116 1.250 . S
O114 Mg115 2.028 . S
O114 C116 1.248 . S
Mg115 O114 2.028 . S
Mg115 O120 2.032 . S
Mg115 O122 2.079 . S
C116 O113 1.250 . S
C116 O114 1.248 . S
C117 O118 1.264 . S
C117 O125 1.249 . S
O118 C117 1.264 . S
O119 Mg112 1.986 . S
O119 C123 1.246 . S
O120 Mg115 2.032 . S
O120 C123 1.259 . S
O121 Mg112 2.114 . S
O121 C124 1.252 . S
O122 Mg112 2.251 . S
O122 Mg115 2.079 . S
O122 C124 1.273 . S
C123 O119 1.246 . S
C123 O120 1.259 . S
C124 O121 1.252 . S
C124 O122 1.273 . S
O125 Mg112 2.010 . S
O125 C117 1.249 . S
Mg126 O127 2.028 . S
Mg126 O133 1.986 . S
Mg126 O135 2.114 . S
Mg126 O136 2.251 . S
Mg126 O139 2.010 . S
O127 Mg126 2.028 . S
O127 C130 1.250 . S
O128 Mg129 2.028 . S
O128 C130 1.248 . S
Mg129 O128 2.028 . S
Mg129 O134 2.032 . S
Mg129 O136 2.079 . S
C130 O127 1.250 . S
C130 O128 1.248 . S
C131 O132 1.264 . S
C131 O139 1.249 . S
O132 C131 1.264 . S
O133 Mg126 1.986 . S
O133 C137 1.246 . S
O134 Mg129 2.032 . S
O134 C137 1.259 . S
O135 Mg126 2.114 . S
O135 C138 1.252 . S
O136 Mg126 2.251 . S
O136 Mg129 2.079 . S
O136 C138 1.273 . S
C137 O133 1.246 . S
C137 O134 1.259 . S
C138 O135 1.252 . S
C138 O136 1.273 . S
O139 Mg126 2.010 . S
O139 C131 1.249 . S
Mg140 O141 2.028 . S
Mg140 O147 1.986 . S
Mg140 O149 2.114 . S
Mg140 O150 2.251 . S
Mg140 O153 2.010 . S
O141 Mg140 2.028 . S
O141 C144 1.250 . S
O142 Mg143 2.028 . S
O142 C144 1.248 . S
Mg143 O142 2.028 . S
Mg143 O148 2.032 . S
Mg143 O150 2.079 . S
C144 O141 1.250 . S
C144 O142 1.248 . S
C145 O146 1.264 . S
C145 O153 1.249 . S
O146 C145 1.264 . S
O147 Mg140 1.986 . S
O147 C151 1.246 . S
O148 Mg143 2.032 . S
O148 C151 1.259 . S
O149 Mg140 2.114 . S
O149 C152 1.252 . S
O150 Mg140 2.251 . S
O150 Mg143 2.079 . S
O150 C152 1.273 . S
C151 O147 1.246 . S
C151 O148 1.259 . S
C152 O149 1.252 . S
C152 O150 1.273 . S
O153 Mg140 2.010 . S
O153 C145 1.249 . S
Mg154 O155 2.028 . S
Mg154 O161 1.986 . S
Mg154 O163 2.114 . S
Mg154 O164 2.251 . S
Mg154 O167 2.010 . S
O155 Mg154 2.028 . S
O155 C158 1.250 . S
O156 Mg157 2.028 . S
O156 C158 1.248 . S
Mg157 O156 2.028 . S
Mg157 O162 2.032 . S
Mg157 O164 2.079 . S
C158 O155 1.250 . S
C158 O156 1.248 . S
C159 O160 1.264 . S
C159 O167 1.249 . S
O160 C159 1.264 . S
O161 Mg154 1.986 . S
O161 C165 1.246 . S
O162 Mg157 2.032 . S
O162 C165 1.259 . S
O163 Mg154 2.114 . S
O163 C166 1.252 . S
O164 Mg154 2.251 . S
O164 Mg157 2.079 . S
O164 C166 1.273 . S
C165 O161 1.246 . S
C165 O162 1.259 . S
C166 O163 1.252 . S
C166 O164 1.273 . S
O167 Mg154 2.010 . S
O167 C159 1.249 . S
Mg168 O169 2.028 . S
Mg168 O175 1.986 . S
Mg168 O177 2.133 . S
Mg168 O178 2.251 1_455 S
Mg168 O181 2.010 . S
O169 Mg168 2.028 . S
O169 C172 1.250 . S
O170 Mg171 2.028 . S
O170 C172 1.248 1_655 S
Mg171 O170 2.028 . S
Mg171 O176 2.032 . S
Mg171 O178 2.079 . S
C172 O169 1.250 . S
C172 O170 1.248 1_455 S
C173 O174 1.264 . S
C173 O181 1.249 . S
O174 C173 1.264 . S
O175 Mg168 1.986 . S
O175 C179 1.246 . S
O176 Mg171 2.032 . S
O176 C179 1.259 1_655 S
O177 Mg168 2.133 . S
O177 C180 1.224 1_455 S
O178 Mg168 2.251 1_655 S
O178 Mg171 2.079 . S
O178 C180 1.273 . S
C179 O175 1.246 . S
C179 O176 1.259 1_455 S
C180 O177 1.224 1_655 S
C180 O178 1.273 . S
O181 Mg168 2.010 . S
O181 C173 1.249 . S
Mg182 O183 2.028 1_655 S
Mg182 O189 1.986 1_655 S
Mg182 O191 2.114 . S
Mg182 O192 2.251 . S
Mg182 O195 2.010 1_655 S
O183 Mg182 2.028 1_455 S
O183 C186 1.250 1_455 S
O184 Mg185 2.028 . S
O184 C186 1.248 . S
Mg185 O184 2.028 . S
Mg185 O190 2.032 . S
Mg185 O192 2.079 . S
C186 O183 1.250 1_655 S
C186 O184 1.248 . S
C187 O188 1.264 . S
C187 O195 1.249 . S
O188 C187 1.264 . S
O189 Mg182 1.986 1_455 S
O189 C193 1.246 1_455 S
O190 Mg185 2.032 . S
O190 C193 1.259 . S
O191 Mg182 2.114 . S
O191 C194 1.252 . S
O192 Mg182 2.251 . S
O192 Mg185 2.079 . S
O192 C194 1.273 . S
C193 O189 1.246 1_655 S
C193 O190 1.259 . S
C194 O191 1.252 . S
C194 O192 1.273 . S
O195 Mg182 2.010 1_455 S
O195 C187 1.249 . S
Mg196 O197 2.028 . S
Mg196 O203 1.986 . S
Mg196 O205 2.114 . S
Mg196 O206 2.251 . S
Mg196 O209 2.010 . S
O197 Mg196 2.028 . S
O197 C200 1.250 . S
O198 Mg199 2.028 . S
O198 C200 1.248 . S
Mg199 O198 2.028 . S
Mg199 O204 2.032 . S
Mg199 O206 2.079 . S
C200 O197 1.250 . S
C200 O198 1.248 . S
C201 O202 1.264 . S
C201 O209 1.249 . S
O202 C201 1.264 . S
O203 Mg196 1.986 . S
O203 C207 1.246 . S
O204 Mg199 2.032 . S
O204 C207 1.259 . S
O205 Mg196 2.114 . S
O205 C208 1.252 . S
O206 Mg196 2.251 . S
O206 Mg199 2.079 . S
O206 C208 1.273 . S
C207 O203 1.246 . S
C207 O204 1.259 . S
C208 O205 1.252 . S
C208 O206 1.273 . S
O209 Mg196 2.010 . S
O209 C201 1.249 . S
Mg210 O211 2.028 . S
Mg210 O217 1.986 . S
Mg210 O219 2.114 . S
Mg210 O220 2.251 . S
Mg210 O223 2.010 . S
O211 Mg210 2.028 . S
O211 C214 1.250 . S
O212 Mg213 2.028 . S
O212 C214 1.248 . S
Mg213 O212 2.028 . S
Mg213 O218 2.032 . S
Mg213 O220 2.079 . S
C214 O211 1.250 . S
C214 O212 1.248 . S
C215 O216 1.264 . S
C215 O223 1.249 . S
O216 C215 1.264 . S
O217 Mg210 1.986 . S
O217 C221 1.246 . S
O218 Mg213 2.032 . S
O218 C221 1.259 . S
O219 Mg210 2.114 . S
O219 C222 1.252 . S
O220 Mg210 2.251 . S
O220 Mg213 2.079 . S
O220 C222 1.273 . S
C221 O217 1.246 . S
C221 O218 1.259 . S
C222 O219 1.252 . S
C222 O220 1.273 . S
O223 Mg210 2.010 . S
O223 C215 1.249 . S
Mg224 O225 2.028 . S
Mg224 O231 1.986 . S
Mg224 O233 2.114 . S
Mg224 O234 2.251 . S
Mg224 O237 2.010 . S
O225 Mg224 2.028 . S
O225 C228 1.250 . S
O226 Mg227 2.028 . S
O226 C228 1.248 . S
Mg227 O226 2.028 . S
Mg227 O232 2.032 . S
Mg227 O234 2.079 . S
C228 O225 1.250 . S
C228 O226 1.248 . S
C229 O230 1.264 . S
C229 O237 1.249 . S
O230 C229 1.264 . S
O231 Mg224 1.986 . S
O231 C235 1.246 . S
O232 Mg227 2.032 . S
O232 C235 1.259 . S
O233 Mg224 2.114 . S
O233 C236 1.252 . S
O234 Mg224 2.251 . S
O234 Mg227 2.079 . S
O234 C236 1.273 . S
C235 O231 1.246 . S
C235 O232 1.259 . S
C236 O233 1.252 . S
C236 O234 1.273 . S
O237 Mg224 2.010 . S
O237 C229 1.249 . S
Mg238 O239 2.028 . S
Mg238 O245 1.986 . S
Mg238 O247 2.114 . S
Mg238 O248 2.251 . S
Mg238 O251 2.010 . S
O239 Mg238 2.028 . S
O239 C242 1.250 . S
O240 Mg241 2.028 . S
O240 C242 1.248 . S
Mg241 O240 2.028 . S
Mg241 O246 2.032 . S
Mg241 O248 2.079 . S
C242 O239 1.250 . S
C242 O240 1.248 . S
C243 O244 1.264 . S
C243 O251 1.249 . S
O244 C243 1.264 . S
O245 Mg238 1.986 . S
O245 C249 1.246 . S
O246 Mg241 2.032 . S
O246 C249 1.259 . S
O247 Mg238 2.114 . S
O247 C250 1.252 . S
O248 Mg238 2.251 . S
O248 Mg241 2.079 . S
O248 C250 1.273 . S
C249 O245 1.246 . S
C249 O246 1.259 . S
C250 O247 1.252 . S
C250 O248 1.273 . S
O251 Mg238 2.010 . S
O251 C243 1.249 . S
Mg252 O253 2.028 1_565 S
Mg252 O259 1.986 . S
Mg252 O261 2.114 1_565 S
Mg252 O262 2.253 . S
Mg252 O265 2.010 . S
O253 Mg252 2.028 1_545 S
O253 C256 1.250 . S
O254 Mg255 2.028 . S
O254 C256 1.248 . S
Mg255 O254 2.028 . S
Mg255 O260 2.032 1_545 S
Mg255 O262 2.076 1_545 S
C256 O253 1.250 . S
C256 O254 1.248 . S
C257 O258 1.263 . S
C257 O265 1.249 . S
O258 C257 1.263 . S
O259 Mg252 1.986 . S
O259 C263 1.246 . S
O260 Mg255 2.032 1_565 S
O260 C263 1.259 . S
O261 Mg252 2.114 1_545 S
O261 C264 1.252 . S
O262 Mg252 2.253 . S
O262 Mg255 2.076 1_565 S
O262 C264 1.262 1_565 S
C263 O259 1.246 . S
C263 O260 1.259 . S
C264 O261 1.252 . S
C264 O262 1.262 1_545 S
O265 Mg252 2.010 . S
O265 C257 1.249 . S
Mg266 O267 2.028 . S
Mg266 O273 1.986 . S
Mg266 O275 2.114 . S
Mg266 O276 2.251 . S
Mg266 O279 2.010 . S
O267 Mg266 2.028 . S
O267 C270 1.250 1_554 S
O268 Mg269 2.028 1_556 S
O268 C270 1.248 . S
Mg269 O268 2.028 1_554 S
Mg269 O274 2.032 . S
Mg269 O276 2.079 . S
C270 O267 1.250 1_556 S
C270 O268 1.248 . S
C271 O272 1.264 . S
C271 O279 1.249 . S
O272 C271 1.264 . S
O273 Mg266 1.986 . S
O273 C277 1.246 . S
O274 Mg269 2.032 . S
O274 C277 1.259 . S
O275 Mg266 2.114 . S
O275 C278 1.252 . S
O276 Mg266 2.251 . S
O276 Mg269 2.079 . S
O276 C278 1.273 . S
C277 O273 1.246 . S
C277 O274 1.259 . S
C278 O275 1.252 . S
C278 O276 1.273 . S
O279 Mg266 2.010 . S
O279 C271 1.249 . S
Mg280 O281 2.028 1_556 S
Mg280 O287 1.986 . S
Mg280 O289 2.114 1_556 S
Mg280 O290 2.251 . S
Mg280 O293 2.010 . S
O281 Mg280 2.028 1_554 S
O281 C284 1.250 . S
O282 Mg283 2.028 1_554 S
O282 C284 1.248 . S
Mg283 O282 2.028 1_556 S
Mg283 O288 2.032 . S
Mg283 O290 2.079 . S
C284 O281 1.250 . S
C284 O282 1.248 . S
C285 O286 1.264 . S
C285 O293 1.249 . S
O286 C285 1.264 . S
O287 Mg280 1.986 . S
O287 C291 1.246 . S
O288 Mg283 2.032 . S
O288 C291 1.259 . S
O289 Mg280 2.114 1_554 S
O289 C292 1.257 . S
O290 Mg280 2.251 . S
O290 Mg283 2.079 . S
O290 C292 1.266 1_556 S
C291 O287 1.246 . S
C291 O288 1.259 . S
C292 O289 1.257 . S
C292 O290 1.266 1_554 S
O293 Mg280 2.010 . S
O293 C285 1.249 . S
Mg294 O295 2.028 . S
Mg294 O301 1.986 . S
Mg294 O303 2.114 . S
Mg294 O304 2.251 . S
Mg294 O307 2.010 . S
O295 Mg294 2.028 . S
O295 C298 1.250 . S
O296 Mg297 2.028 . S
O296 C298 1.248 . S
Mg297 O296 2.028 . S
Mg297 O302 2.032 . S
Mg297 O304 2.079 . S
C298 O295 1.250 . S
C298 O296 1.248 . S
C299 O300 1.264 . S
C299 O307 1.249 . S
O300 C299 1.264 . S
O301 Mg294 1.986 . S
O301 C305 1.246 . S
O302 Mg297 2.032 . S
O302 C305 1.259 . S
O303 Mg294 2.114 . S
O303 C306 1.252 . S
O304 Mg294 2.251 . S
O304 Mg297 2.079 . S
O304 C306 1.273 . S
C305 O301 1.246 . S
C305 O302 1.259 . S
C306 O303 1.252 . S
C306 O304 1.273 . S
O307 Mg294 2.010 . S
O307 C299 1.249 . S
Mg308 O309 2.028 . S
Mg308 O315 1.986 . S
Mg308 O317 2.114 . S
Mg308 O318 2.251 . S
Mg308 O321 2.010 . S
O309 Mg308 2.028 . S
O309 C312 1.250 . S
O310 Mg311 2.028 . S
O310 C312 1.248 . S
Mg311 O310 2.028 . S
Mg311 O316 2.032 . S
Mg311 O318 2.079 . S
C312 O309 1.250 . S
C312 O310 1.248 . S
C313 O314 1.264 . S
C313 O321 1.249 . S
O314 C313 1.264 . S
O315 Mg308 1.986 . S
O315 C319 1.246 . S
O316 Mg311 2.032 . S
O316 C319 1.259 . S
O317 Mg308 2.114 . S
O317 C320 1.252 . S
O318 Mg308 2.251 . S
O318 Mg311 2.079 . S
O318 C320 1.273 . S
C319 O315 1.246 . S
C319 O316 1.259 . S
C320 O317 1.252 . S
C320 O318 1.273 . S
O321 Mg308 2.010 . S
O321 C313 1.249 . S
Mg322 O323 2.028 . S
Mg322 O329 1.986 . S
Mg322 O331 2.114 . S
Mg322 O332 2.251 . S
Mg322 O335 2.010 . S
O323 Mg322 2.028 . S
O323 C326 1.250 . S
O324 Mg325 2.028 . S
O324 C326 1.248 . S
Mg325 O324 2.028 . S
Mg325 O330 2.032 . S
Mg325 O332 2.079 . S
C326 O323 1.250 . S
C326 O324 1.248 . S
C327 O328 1.264 . S
C327 O335 1.249 . S
O328 C327 1.264 . S
O329 Mg322 1.986 . S
O329 C333 1.246 . S
O330 Mg325 2.032 . S
O330 C333 1.259 . S
O331 Mg322 2.114 . S
O331 C334 1.252 . S
O332 Mg322 2.251 . S
O332 Mg325 2.079 . S
O332 C334 1.273 . S
C333 O329 1.246 . S
C333 O330 1.259 . S
C334 O331 1.252 . S
C334 O332 1.273 . S
O335 Mg322 2.010 . S
O335 C327 1.249 . S
Co336 N341 2.054 . S
Co336 O353 2.020 1_545 S
Co336 O356 2.063 1_456 S
Co336 O360 2.119 1_556 S
Co336 O361 2.020 . S
C337 O357 1.259 . S
C337 O360 1.258 . S
Co338 N347 2.057 . S
Co338 O354 2.117 1_545 S
Co338 O355 2.020 1_455 S
Co338 O357 2.021 . S
Co338 O362 2.062 . S
C339 N341 1.316 1_655 S
C339 N342 1.347 . S
C339 H344 0.933 . S
C340 N341 1.375 1_655 S
C340 C343 1.350 . S
C340 H345 0.930 . S
N341 Co336 2.054 . S
N341 C339 1.316 1_455 S
N341 C340 1.375 1_455 S
N342 C339 1.347 . S
N342 C343 1.373 . S
C343 C340 1.350 . S
C343 N342 1.373 . S
C343 H364 0.931 . S
H344 C339 0.933 . S
H345 C340 0.930 . S
C346 O353 1.259 1_554 S
C346 O354 1.258 . S
N347 Co338 2.057 . S
N347 C348 1.316 . S
N347 C349 1.375 1_545 S
C348 N347 1.316 . S
C348 N350 1.347 1_545 S
C348 H359 0.931 . S
C349 N347 1.375 1_565 S
C349 C351 1.350 . S
C349 H358 0.930 . S
N350 C348 1.347 1_565 S
N350 C351 1.373 . S
C351 C349 1.350 . S
C351 N350 1.373 . S
C351 H365 0.931 . S
C352 O355 1.256 . S
C352 O356 1.255 . S
O353 Co336 2.020 1_565 S
O353 C346 1.259 1_556 S
O354 Co338 2.117 1_565 S
O354 C346 1.258 . S
O355 Co338 2.020 1_655 S
O355 C352 1.256 . S
O356 Co336 2.063 1_654 S
O356 C352 1.255 . S
O357 C337 1.259 . S
O357 Co338 2.021 . S
H358 C349 0.930 . S
H359 C348 0.931 . S
O360 Co336 2.119 1_554 S
O360 C337 1.258 . S
O361 Co336 2.020 . S
O361 C363 1.250 1_556 S
O362 Co338 2.062 . S
O362 C363 1.255 . S
C363 O361 1.250 1_554 S
C363 O362 1.255 . S
H364 C343 0.931 . S
H365 C351 0.931 . S
Co366 N371 2.057 . S
Co366 O383 2.021 . S
Co366 O386 2.062 . S
Co366 O390 2.117 . S
Co366 O391 2.020 . S
C367 O387 1.259 . S
C367 O390 1.258 . S
Co368 N377 2.057 . S
Co368 O384 2.117 . S
Co368 O385 2.020 . S
Co368 O387 2.021 . S
Co368 O392 2.062 . S
C369 N371 1.316 . S
C369 N372 1.347 . S
C369 H374 0.931 . S
C370 N371 1.375 . S
C370 C373 1.350 . S
C370 H375 0.930 . S
N371 Co366 2.057 . S
N371 C369 1.316 . S
N371 C370 1.375 . S
N372 C369 1.347 . S
N372 C373 1.373 . S
C373 C370 1.350 . S
C373 N372 1.373 . S
C373 H394 0.931 . S
H374 C369 0.931 . S
H375 C370 0.930 . S
C376 O383 1.259 . S
C376 O384 1.258 . S
N377 Co368 2.057 . S
N377 C378 1.316 . S
N377 C379 1.375 . S
C378 N377 1.316 . S
C378 N380 1.347 . S
C378 H389 0.931 . S
C379 N377 1.375 . S
C379 C381 1.350 . S
C379 H388 0.930 . S
N380 C378 1.347 . S
N380 C381 1.373 . S
C381 C379 1.350 . S
C381 N380 1.373 . S
C381 H395 0.931 . S
C382 O385 1.256 . S
C382 O386 1.255 . S
O383 Co366 2.021 . S
O383 C376 1.259 . S
O384 Co368 2.117 . S
O384 C376 1.258 . S
O385 Co368 2.020 . S
O385 C382 1.256 . S
O386 Co366 2.062 . S
O386 C382 1.255 . S
O387 C367 1.259 . S
O387 Co368 2.021 . S
H388 C379 0.930 . S
H389 C378 0.931 . S
O390 Co366 2.117 . S
O390 C367 1.258 . S
O391 Co366 2.020 . S
O391 C393 1.256 . S
O392 Co368 2.062 . S
O392 C393 1.255 . S
C393 O391 1.256 . S
C393 O392 1.255 . S
H394 C373 0.931 . S
H395 C381 0.931 . S
Co396 N401 2.057 . S
Co396 O413 2.021 1_545 S
Co396 O416 2.062 . S
Co396 O420 2.117 . S
Co396 O421 2.020 . S
C397 O417 1.259 . S
C397 O420 1.258 . S
Co398 N407 2.057 . S
Co398 O414 2.097 1_545 S
Co398 O415 2.020 . S
Co398 O417 2.021 . S
Co398 O422 2.062 . S
C399 N401 1.316 1_565 S
C399 N402 1.347 . S
C399 H404 0.931 . S
C400 N401 1.375 . S
C400 C403 1.350 . S
C400 H405 0.930 . S
N401 Co396 2.057 . S
N401 C399 1.316 1_545 S
N401 C400 1.375 . S
N402 C399 1.347 . S
N402 C403 1.373 1_565 S
C403 C400 1.350 . S
C403 N402 1.373 1_545 S
C403 H424 0.931 . S
H404 C399 0.931 . S
H405 C400 0.930 . S
C406 O413 1.259 . S
C406 O414 1.274 . S
N407 Co398 2.057 . S
N407 C408 1.316 . S
N407 C409 1.375 . S
C408 N407 1.316 . S
C408 N410 1.347 . S
C408 H419 0.931 . S
C409 N407 1.375 . S
C409 C411 1.350 . S
C409 H418 0.930 . S
N410 C408 1.347 . S
N410 C411 1.373 . S
C411 C409 1.350 . S
C411 N410 1.373 . S
C411 H425 0.931 . S
C412 O415 1.256 . S
C412 O416 1.255 . S
O413 Co396 2.021 1_565 S
O413 C406 1.259 . S
O414 Co398 2.097 1_565 S
O414 C406 1.274 . S
O415 Co398 2.020 . S
O415 C412 1.256 . S
O416 Co396 2.062 . S
O416 C412 1.255 . S
O417 C397 1.259 . S
O417 Co398 2.021 . S
H418 C409 0.930 . S
H419 C408 0.931 . S
O420 Co396 2.117 . S
O420 C397 1.258 . S
O421 Co396 2.020 . S
O421 C423 1.256 . S
O422 Co398 2.062 . S
O422 C423 1.255 . S
C423 O421 1.256 . S
C423 O422 1.255 . S
H424 C403 0.931 . S
H425 C411 0.931 . S
Co426 N431 2.057 . S
Co426 O443 2.021 . S
Co426 O446 2.062 . S
Co426 O450 2.117 . S
Co426 O451 2.020 . S
C427 O447 1.259 . S
C427 O450 1.258 . S
Co428 N437 2.057 . S
Co428 O444 2.117 . S
Co428 O445 2.020 . S
Co428 O447 2.021 . S
Co428 O452 2.062 . S
C429 N431 1.316 . S
C429 N432 1.347 . S
C429 H434 0.931 . S
C430 N431 1.375 . S
C430 C433 1.350 . S
C430 H435 0.930 . S
N431 Co426 2.057 . S
N431 C429 1.316 . S
N431 C430 1.375 . S
N432 C429 1.347 . S
N432 C433 1.373 . S
C433 C430 1.350 . S
C433 N432 1.373 . S
C433 H454 0.931 . S
H434 C429 0.931 . S
H435 C430 0.930 . S
C436 O443 1.259 . S
C436 O444 1.258 . S
N437 Co428 2.057 . S
N437 C438 1.316 . S
N437 C439 1.375 . S
C438 N437 1.316 . S
C438 N440 1.347 . S
C438 H449 0.931 . S
C439 N437 1.375 . S
C439 C441 1.350 . S
C439 H448 0.930 . S
N440 C438 1.347 . S
N440 C441 1.373 . S
C441 C439 1.350 . S
C441 N440 1.373 . S
C441 H455 0.931 . S
C442 O445 1.256 . S
C442 O446 1.255 . S
O443 Co426 2.021 . S
O443 C436 1.259 . S
O444 Co428 2.117 . S
O444 C436 1.258 . S
O445 Co428 2.020 . S
O445 C442 1.256 . S
O446 Co426 2.062 . S
O446 C442 1.255 . S
O447 C427 1.259 . S
O447 Co428 2.021 . S
H448 C439 0.930 . S
H449 C438 0.931 . S
O450 Co426 2.117 . S
O450 C427 1.258 . S
O451 Co426 2.020 . S
O451 C453 1.256 . S
O452 Co428 2.062 . S
O452 C453 1.255 . S
C453 O451 1.256 . S
C453 O452 1.255 . S
H454 C433 0.931 . S
H455 C441 0.931 . S
Co456 N461 2.057 1_545 S
Co456 O473 2.021 . S
Co456 O476 2.062 1_545 S
Co456 O480 2.117 . S
Co456 O481 2.020 1_455 S
C457 O477 1.259 . S
C457 O480 1.258 . S
Co458 N467 2.057 . S
Co458 O474 2.117 . S
Co458 O475 2.020 . S
Co458 O477 2.021 . S
Co458 O482 2.062 1_455 S
C459 N461 1.316 . S
C459 N462 1.347 . S
C459 H464 0.931 . S
C460 N461 1.375 1_655 S
C460 C463 1.350 . S
C460 H465 0.930 . S
N461 Co456 2.057 1_565 S
N461 C459 1.316 . S
N461 C460 1.375 1_455 S
N462 C459 1.347 . S
N462 C463 1.373 1_455 S
C463 C460 1.350 . S
C463 N462 1.373 1_655 S
C463 H484 0.931 . S
H464 C459 0.931 . S
H465 C460 0.930 . S
C466 O473 1.259 . S
C466 O474 1.258 . S
N467 Co458 2.057 . S
N467 C468 1.316 . S
N467 C469 1.375 . S
C468 N467 1.316 . S
C468 N470 1.347 . S
C468 H479 0.931 . S
C469 N467 1.375 . S
C469 C471 1.350 . S
C469 H478 0.930 . S
N470 C468 1.347 . S
N470 C471 1.373 . S
C471 C469 1.350 . S
C471 N470 1.373 . S
C471 H485 0.931 . S
C472 O475 1.256 . S
C472 O476 1.255 1_545 S
O473 Co456 2.021 . S
O473 C466 1.259 . S
O474 Co458 2.117 . S
O474 C466 1.258 . S
O475 Co458 2.020 . S
O475 C472 1.256 . S
O476 Co456 2.062 1_565 S
O476 C472 1.255 1_565 S
O477 C457 1.259 . S
O477 Co458 2.021 . S
H478 C469 0.930 . S
H479 C468 0.931 . S
O480 Co456 2.117 . S
O480 C457 1.258 . S
O481 Co456 2.020 1_655 S
O481 C483 1.256 . S
O482 Co458 2.062 1_655 S
O482 C483 1.255 . S
C483 O481 1.256 . S
C483 O482 1.255 . S
H484 C463 0.931 . S
H485 C471 0.931 . S
Co486 N491 2.057 . S
Co486 O503 2.021 . S
Co486 O506 2.062 . S
Co486 O510 2.117 . S
Co486 O511 2.020 . S
C487 O507 1.259 . S
C487 O510 1.258 . S
Co488 N497 2.057 . S
Co488 O504 2.117 . S
Co488 O505 2.020 . S
Co488 O507 2.021 . S
Co488 O512 2.062 . S
C489 N491 1.316 . S
C489 N492 1.347 . S
C489 H494 0.931 . S
C490 N491 1.375 . S
C490 C493 1.350 . S
C490 H495 0.930 . S
N491 Co486 2.057 . S
N491 C489 1.316 . S
N491 C490 1.375 . S
N492 C489 1.347 . S
N492 C493 1.373 . S
C493 C490 1.350 . S
C493 N492 1.373 . S
C493 H514 0.931 . S
H494 C489 0.931 . S
H495 C490 0.930 . S
C496 O503 1.259 . S
C496 O504 1.258 . S
N497 Co488 2.057 . S
N497 C498 1.316 . S
N497 C499 1.375 . S
C498 N497 1.316 . S
C498 N500 1.347 . S
C498 H509 0.931 . S
C499 N497 1.375 . S
C499 C501 1.350 . S
C499 H508 0.930 . S
N500 C498 1.347 . S
N500 C501 1.373 . S
C501 C499 1.350 . S
C501 N500 1.373 . S
C501 H515 0.931 . S
C502 O505 1.256 . S
C502 O506 1.255 . S
O503 Co486 2.021 . S
O503 C496 1.259 . S
O504 Co488 2.117 . S
O504 C496 1.258 . S
O505 Co488 2.020 . S
O505 C502 1.256 . S
O506 Co486 2.062 . S
O506 C502 1.255 . S
O507 C487 1.259 . S
O507 Co488 2.021 . S
H508 C499 0.930 . S
H509 C498 0.931 . S
O510 Co486 2.117 . S
O510 C487 1.258 . S
O511 Co486 2.020 . S
O511 C513 1.256 . S
O512 Co488 2.062 . S
O512 C513 1.255 . S
C513 O511 1.256 . S
C513 O512 1.255 . S
H514 C493 0.931 . S
H515 C501 0.931 . S
Co516 N521 2.057 1_554 S
Co516 O533 2.021 . S
Co516 O536 2.062 1_554 S
Co516 O540 2.117 . S
Co516 O541 2.020 1_545 S
C517 O537 1.259 . S
C517 O540 1.258 . S
Co518 N527 2.057 . S
Co518 O534 2.117 . S
Co518 O535 2.020 . S
Co518 O537 2.021 . S
Co518 O542 2.083 . S
C519 N521 1.316 . S
C519 N522 1.347 . S
C519 H524 0.931 . S
C520 N521 1.375 1_565 S
C520 C523 1.350 . S
C520 H525 0.930 . S
N521 Co516 2.057 1_556 S
N521 C519 1.316 . S
N521 C520 1.375 1_545 S
N522 C519 1.347 . S
N522 C523 1.373 1_545 S
C523 C520 1.350 . S
C523 N522 1.373 1_565 S
C523 H544 0.931 . S
H524 C519 0.931 . S
H525 C520 0.930 . S
C526 O533 1.259 . S
C526 O534 1.258 . S
N527 Co518 2.057 . S
N527 C528 1.316 . S
N527 C529 1.375 . S
C528 N527 1.316 . S
C528 N530 1.347 . S
C528 H539 0.931 . S
C529 N527 1.375 . S
C529 C531 1.350 . S
C529 H538 0.930 . S
N530 C528 1.347 . S
N530 C531 1.373 . S
C531 C529 1.350 . S
C531 N530 1.373 . S
C531 H545 0.931 . S
C532 O535 1.256 . S
C532 O536 1.255 1_554 S
O533 Co516 2.021 . S
O533 C526 1.259 . S
O534 Co518 2.117 . S
O534 C526 1.258 . S
O535 Co518 2.020 . S
O535 C532 1.256 . S
O536 Co516 2.062 1_556 S
O536 C532 1.255 1_556 S
O537 C517 1.259 . S
O537 Co518 2.021 . S
H538 C529 0.930 . S
H539 C528 0.931 . S
O540 Co516 2.117 . S
O540 C517 1.258 . S
O541 Co516 2.020 1_565 S
O541 C543 1.256 . S
O542 Co518 2.083 . S
O542 C543 1.240 1_545 S
C543 O541 1.256 . S
C543 O542 1.240 1_565 S
H544 C523 0.931 . S
H545 C531 0.931 . S
Co546 N551 2.057 . S
Co546 O563 2.021 . S
Co546 O566 2.062 . S
Co546 O570 2.117 . S
Co546 O571 2.020 . S
C547 O567 1.259 . S
C547 O570 1.258 . S
Co548 N557 2.057 . S
Co548 O564 2.117 . S
Co548 O565 2.020 . S
Co548 O567 2.021 . S
Co548 O572 2.062 . S
C549 N551 1.316 . S
C549 N552 1.347 . S
C549 H554 0.931 . S
C550 N551 1.375 . S
C550 C553 1.350 . S
C550 H555 0.930 . S
N551 Co546 2.057 . S
N551 C549 1.316 . S
N551 C550 1.375 . S
N552 C549 1.347 . S
N552 C553 1.373 . S
C553 C550 1.350 . S
C553 N552 1.373 . S
C553 H574 0.931 . S
H554 C549 0.931 . S
H555 C550 0.930 . S
C556 O563 1.259 . S
C556 O564 1.258 . S
N557 Co548 2.057 . S
N557 C558 1.316 . S
N557 C559 1.375 . S
C558 N557 1.316 . S
C558 N560 1.347 . S
C558 H569 0.931 . S
C559 N557 1.375 . S
C559 C561 1.350 . S
C559 H568 0.930 . S
N560 C558 1.347 . S
N560 C561 1.373 . S
C561 C559 1.350 . S
C561 N560 1.373 . S
C561 H575 0.931 . S
C562 O565 1.256 . S
C562 O566 1.255 . S
O563 Co546 2.021 . S
O563 C556 1.259 . S
O564 Co548 2.117 . S
O564 C556 1.258 . S
O565 Co548 2.020 . S
O565 C562 1.256 . S
O566 Co546 2.062 . S
O566 C562 1.255 . S
O567 C547 1.259 . S
O567 Co548 2.021 . S
H568 C559 0.930 . S
H569 C558 0.931 . S
O570 Co546 2.117 . S
O570 C547 1.258 . S
O571 Co546 2.020 . S
O571 C573 1.256 . S
O572 Co548 2.062 . S
O572 C573 1.255 . S
C573 O571 1.256 . S
C573 O572 1.255 . S
H574 C553 0.931 . S
H575 C561 0.931 . S
Co576 N581 2.057 . S
Co576 O593 2.021 1_554 S
Co576 O596 2.062 . S
Co576 O600 2.117 . S
Co576 O601 2.020 . S
C577 O597 1.259 . S
C577 O600 1.258 . S
Co578 N587 2.057 . S
Co578 O594 2.117 1_554 S
Co578 O595 2.020 . S
Co578 O597 2.021 . S
Co578 O602 2.062 . S
C579 N581 1.316 1_556 S
C579 N582 1.347 . S
C579 H584 0.931 . S
C580 N581 1.375 . S
C580 C583 1.350 . S
C580 H585 0.930 . S
N581 Co576 2.057 . S
N581 C579 1.316 1_554 S
N581 C580 1.375 . S
N582 C579 1.347 . S
N582 C583 1.373 1_556 S
C583 C580 1.350 . S
C583 N582 1.373 1_554 S
C583 H604 0.931 . S
H584 C579 0.931 . S
H585 C580 0.930 . S
C586 O593 1.259 . S
C586 O594 1.258 . S
N587 Co578 2.057 . S
N587 C588 1.316 . S
N587 C589 1.375 . S
C588 N587 1.316 . S
C588 N590 1.347 . S
C588 H599 0.931 . S
C589 N587 1.375 . S
C589 C591 1.350 . S
C589 H598 0.930 . S
N590 C588 1.347 . S
N590 C591 1.373 . S
C591 C589 1.350 . S
C591 N590 1.373 . S
C591 H605 0.931 . S
C592 O595 1.256 . S
C592 O596 1.255 . S
O593 Co576 2.021 1_556 S
O593 C586 1.259 . S
O594 Co578 2.117 1_556 S
O594 C586 1.258 . S
O595 Co578 2.020 . S
O595 C592 1.256 . S
O596 Co576 2.062 . S
O596 C592 1.255 . S
O597 C577 1.259 . S
O597 Co578 2.021 . S
H598 C589 0.930 . S
H599 C588 0.931 . S
O600 Co576 2.117 . S
O600 C577 1.258 . S
O601 Co576 2.020 . S
O601 C603 1.256 . S
O602 Co578 2.062 . S
O602 C603 1.255 . S
C603 O601 1.256 . S
C603 O602 1.255 . S
H604 C583 0.931 . S
H605 C591 0.931 . S
Co606 N611 2.057 . S
Co606 O623 2.021 . S
Co606 O626 2.062 . S
Co606 O630 2.117 . S
Co606 O631 2.020 . S
C607 O627 1.259 . S
C607 O630 1.258 . S
Co608 N617 2.057 . S
Co608 O624 2.117 . S
Co608 O625 2.020 . S
Co608 O627 2.021 . S
Co608 O632 2.062 . S
C609 N611 1.316 . S
C609 N612 1.347 . S
C609 H614 0.931 . S
C610 N611 1.375 . S
C610 C613 1.350 . S
C610 H615 0.930 . S
N611 Co606 2.057 . S
N611 C609 1.316 . S
N611 C610 1.375 . S
N612 C609 1.347 . S
N612 C613 1.373 . S
C613 C610 1.350 . S
C613 N612 1.373 . S
C613 H634 0.931 . S
H614 C609 0.931 . S
H615 C610 0.930 . S
C616 O623 1.259 . S
C616 O624 1.258 . S
N617 Co608 2.057 . S
N617 C618 1.316 . S
N617 C619 1.375 . S
C618 N617 1.316 . S
C618 N620 1.347 . S
C618 H629 0.931 . S
C619 N617 1.375 . S
C619 C621 1.350 . S
C619 H628 0.930 . S
N620 C618 1.347 . S
N620 C621 1.373 . S
C621 C619 1.350 . S
C621 N620 1.373 . S
C621 H635 0.931 . S
C622 O625 1.256 . S
C622 O626 1.255 . S
O623 Co606 2.021 . S
O623 C616 1.259 . S
O624 Co608 2.117 . S
O624 C616 1.258 . S
O625 Co608 2.020 . S
O625 C622 1.256 . S
O626 Co606 2.062 . S
O626 C622 1.255 . S
O627 C607 1.259 . S
O627 Co608 2.021 . S
H628 C619 0.930 . S
H629 C618 0.931 . S
O630 Co606 2.117 . S
O630 C607 1.258 . S
O631 Co606 2.020 . S
O631 C633 1.256 . S
O632 Co608 2.062 . S
O632 C633 1.255 . S
C633 O631 1.256 . S
C633 O632 1.255 . S
H634 C613 0.931 . S
H635 C621 0.931 . S
Co636 N641 2.057 . S
Co636 O653 2.021 1_455 S
Co636 O656 2.062 . S
Co636 O660 2.117 . S
Co636 O661 2.020 . S
C637 O657 1.259 . S
C637 O660 1.258 . S
Co638 N647 2.057 . S
Co638 O654 2.117 1_455 S
Co638 O655 2.020 . S
Co638 O657 2.021 . S
Co638 O662 2.062 . S
C639 N641 1.316 1_655 S
C639 N642 1.347 . S
C639 H644 0.931 . S
C640 N641 1.375 . S
C640 C643 1.350 . S
C640 H645 0.930 . S
N641 Co636 2.057 . S
N641 C639 1.316 1_455 S
N641 C640 1.375 . S
N642 C639 1.347 . S
N642 C643 1.373 1_655 S
C643 C640 1.350 . S
C643 N642 1.373 1_455 S
C643 H664 0.931 . S
H644 C639 0.931 . S
H645 C640 0.930 . S
C646 O653 1.259 . S
C646 O654 1.258 . S
N647 Co638 2.057 . S
N647 C648 1.316 . S
N647 C649 1.375 . S
C648 N647 1.316 . S
C648 N650 1.347 . S
C648 H659 0.931 . S
C649 N647 1.375 . S
C649 C651 1.350 . S
C649 H658 0.930 . S
N650 C648 1.347 . S
N650 C651 1.373 . S
C651 C649 1.350 . S
C651 N650 1.373 . S
C651 H665 0.931 . S
C652 O655 1.256 . S
C652 O656 1.255 . S
O653 Co636 2.021 1_655 S
O653 C646 1.259 . S
O654 Co638 2.117 1_655 S
O654 C646 1.258 . S
O655 Co638 2.020 . S
O655 C652 1.256 . S
O656 Co636 2.062 . S
O656 C652 1.255 . S
O657 C637 1.259 . S
O657 Co638 2.021 . S
H658 C649 0.930 . S
H659 C648 0.931 . S
O660 Co636 2.117 . S
O660 C637 1.258 . S
O661 Co636 2.020 . S
O661 C663 1.256 . S
O662 Co638 2.062 . S
O662 C663 1.255 . S
C663 O661 1.256 . S
C663 O662 1.255 . S
H664 C643 0.931 . S
H665 C651 0.931 . S
Co666 N671 2.057 . S
Co666 O683 2.021 . S
Co666 O686 2.062 . S
Co666 O690 2.117 . S
Co666 O691 2.020 . S
C667 O687 1.259 . S
C667 O690 1.258 . S
Co668 N677 2.057 . S
Co668 O684 2.117 . S
Co668 O685 2.020 . S
Co668 O687 2.021 . S
Co668 O692 2.062 . S
C669 N671 1.316 . S
C669 N672 1.347 . S
C669 H674 0.931 . S
C670 N671 1.375 . S
C670 C673 1.350 . S
C670 H675 0.930 . S
N671 Co666 2.057 . S
N671 C669 1.316 . S
N671 C670 1.375 . S
N672 C669 1.347 . S
N672 C673 1.373 . S
C673 C670 1.350 . S
C673 N672 1.373 . S
C673 H694 0.931 . S
H674 C669 0.931 . S
H675 C670 0.930 . S
C676 O683 1.259 . S
C676 O684 1.258 . S
N677 Co668 2.057 . S
N677 C678 1.316 . S
N677 C679 1.375 . S
C678 N677 1.316 . S
C678 N680 1.347 . S
C678 H689 0.931 . S
C679 N677 1.375 . S
C679 C681 1.350 . S
C679 H688 0.930 . S
N680 C678 1.347 . S
N680 C681 1.373 . S
C681 C679 1.350 . S
C681 N680 1.373 . S
C681 H695 0.931 . S
C682 O685 1.256 . S
C682 O686 1.255 . S
O683 Co666 2.021 . S
O683 C676 1.259 . S
O684 Co668 2.117 . S
O684 C676 1.258 . S
O685 Co668 2.020 . S
O685 C682 1.256 . S
O686 Co666 2.062 . S
O686 C682 1.255 . S
O687 C667 1.259 . S
O687 Co668 2.021 . S
H688 C679 0.930 . S
H689 C678 0.931 . S
O690 Co666 2.117 . S
O690 C667 1.258 . S
O691 Co666 2.020 . S
O691 C693 1.256 . S
O692 Co668 2.062 . S
O692 C693 1.255 . S
C693 O691 1.256 . S
C693 O692 1.255 . S
H694 C673 0.931 . S
H695 C681 0.931 . S
Co696 N701 2.057 . S
Co696 O713 2.021 . S
Co696 O716 2.062 . S
Co696 O720 2.117 . S
Co696 O721 2.020 . S
C697 O717 1.259 . S
C697 O720 1.258 . S
Co698 N707 2.057 . S
Co698 O714 2.117 . S
Co698 O715 2.020 . S
Co698 O717 2.021 . S
Co698 O722 2.062 . S
C699 N701 1.316 . S
C699 N702 1.347 . S
C699 H704 0.931 . S
C700 N701 1.375 . S
C700 C703 1.350 . S
C700 H705 0.930 . S
N701 Co696 2.057 . S
N701 C699 1.316 . S
N701 C700 1.375 . S
N702 C699 1.347 . S
N702 C703 1.373 . S
C703 C700 1.350 . S
C703 N702 1.373 . S
C703 H724 0.931 . S
H704 C699 0.931 . S
H705 C700 0.930 . S
C706 O713 1.259 . S
C706 O714 1.258 . S
N707 Co698 2.057 . S
N707 C708 1.316 . S
N707 C709 1.375 . S
C708 N707 1.316 . S
C708 N710 1.347 . S
C708 H719 0.931 . S
C709 N707 1.375 . S
C709 C711 1.350 . S
C709 H718 0.930 . S
N710 C708 1.347 . S
N710 C711 1.373 . S
C711 C709 1.350 . S
C711 N710 1.373 . S
C711 H725 0.931 . S
C712 O715 1.256 . S
C712 O716 1.255 . S
O713 Co696 2.021 . S
O713 C706 1.259 . S
O714 Co698 2.117 . S
O714 C706 1.258 . S
O715 Co698 2.020 . S
O715 C712 1.256 . S
O716 Co696 2.062 . S
O716 C712 1.255 . S
O717 C697 1.259 . S
O717 Co698 2.021 . S
H718 C709 0.930 . S
H719 C708 0.931 . S
O720 Co696 2.117 . S
O720 C697 1.258 . S
O721 Co696 2.020 . S
O721 C723 1.256 . S
O722 Co698 2.062 . S
O722 C723 1.255 . S
C723 O721 1.256 . S
C723 O722 1.255 . S
H724 C703 0.931 . S
H725 C711 0.931 . S
Co726 N731 2.057 . S
Co726 O743 2.021 . S
Co726 O746 2.062 . S
Co726 O750 2.117 . S
Co726 O751 2.020 . S
C727 O747 1.259 . S
C727 O750 1.258 . S
Co728 N737 2.057 . S
Co728 O744 2.117 . S
Co728 O745 2.020 . S
Co728 O747 2.021 . S
Co728 O752 2.062 . S
C729 N731 1.316 . S
C729 N732 1.347 . S
C729 H734 0.931 . S
C730 N731 1.375 . S
C730 C733 1.350 . S
C730 H735 0.930 . S
N731 Co726 2.057 . S
N731 C729 1.316 . S
N731 C730 1.375 . S
N732 C729 1.347 . S
N732 C733 1.373 . S
C733 C730 1.350 . S
C733 N732 1.373 . S
C733 H754 0.931 . S
H734 C729 0.931 . S
H735 C730 0.930 . S
C736 O743 1.259 . S
C736 O744 1.258 . S
N737 Co728 2.057 . S
N737 C738 1.316 . S
N737 C739 1.375 . S
C738 N737 1.316 . S
C738 N740 1.347 . S
C738 H749 0.931 . S
C739 N737 1.375 . S
C739 C741 1.350 . S
C739 H748 0.930 . S
N740 C738 1.347 . S
N740 C741 1.373 . S
C741 C739 1.350 . S
C741 N740 1.373 . S
C741 H755 0.931 . S
C742 O745 1.256 . S
C742 O746 1.255 . S
O743 Co726 2.021 . S
O743 C736 1.259 . S
O744 Co728 2.117 . S
O744 C736 1.258 . S
O745 Co728 2.020 . S
O745 C742 1.256 . S
O746 Co726 2.062 . S
O746 C742 1.255 . S
O747 C727 1.259 . S
O747 Co728 2.021 . S
H748 C739 0.930 . S
H749 C738 0.931 . S
O750 Co726 2.117 . S
O750 C727 1.258 . S
O751 Co726 2.020 . S
O751 C753 1.256 . S
O752 Co728 2.062 . S
O752 C753 1.255 . S
C753 O751 1.256 . S
C753 O752 1.255 . S
H754 C733 0.931 . S
H755 C741 0.931 . S
Co756 N761 2.057 . S
Co756 O773 2.021 . S
Co756 O776 2.062 . S
Co756 O780 2.117 . S
Co756 O781 2.020 . S
C757 O777 1.259 . S
C757 O780 1.258 . S
Co758 N767 2.057 . S
Co758 O774 2.117 . S
Co758 O775 2.020 . S
Co758 O777 2.021 . S
Co758 O782 2.062 . S
C759 N761 1.316 . S
C759 N762 1.347 . S
C759 H764 0.931 . S
C760 N761 1.375 . S
C760 C763 1.350 . S
C760 H765 0.930 . S
N761 Co756 2.057 . S
N761 C759 1.316 . S
N761 C760 1.375 . S
N762 C759 1.347 . S
N762 C763 1.373 . S
C763 C760 1.350 . S
C763 N762 1.373 . S
C763 H784 0.931 . S
H764 C759 0.931 . S
H765 C760 0.930 . S
C766 O773 1.259 . S
C766 O774 1.258 . S
N767 Co758 2.057 . S
N767 C768 1.316 . S
N767 C769 1.375 . S
C768 N767 1.316 . S
C768 N770 1.347 . S
C768 H779 0.931 . S
C769 N767 1.375 . S
C769 C771 1.350 . S
C769 H778 0.930 . S
N770 C768 1.347 . S
N770 C771 1.373 . S
C771 C769 1.350 . S
C771 N770 1.373 . S
C771 H785 0.931 . S
C772 O775 1.256 . S
C772 O776 1.255 . S
O773 Co756 2.021 . S
O773 C766 1.259 . S
O774 Co758 2.117 . S
O774 C766 1.258 . S
O775 Co758 2.020 . S
O775 C772 1.256 . S
O776 Co756 2.062 . S
O776 C772 1.255 . S
O777 C757 1.259 . S
O777 Co758 2.021 . S
H778 C769 0.930 . S
H779 C768 0.931 . S
O780 Co756 2.117 . S
O780 C757 1.258 . S
O781 Co756 2.020 . S
O781 C783 1.256 . S
O782 Co758 2.062 . S
O782 C783 1.255 . S
C783 O781 1.256 . S
C783 O782 1.255 . S
H784 C763 0.931 . S
H785 C771 0.931 . S
Co786 N791 2.053 . S
Co786 O803 2.022 1_655 S
Co786 O806 2.061 . S
Co786 O810 2.117 . S
Co786 O811 2.022 1_654 S
C787 O807 1.259 . S
C787 O810 1.256 1_455 S
Co788 N797 2.057 . S
Co788 O804 2.117 . S
Co788 O805 2.020 . S
Co788 O807 2.021 . S
Co788 O812 2.062 1_554 S
C789 N791 1.316 . S
C789 N792 1.347 . S
C789 H794 0.931 . S
C790 N791 1.375 1_556 S
C790 C793 1.350 . S
C790 H795 0.930 . S
N791 Co786 2.053 . S
N791 C789 1.316 . S
N791 C790 1.375 1_554 S
N792 C789 1.347 . S
N792 C793 1.373 1_554 S
C793 C790 1.350 . S
C793 N792 1.373 1_556 S
C793 H814 0.931 . S
H794 C789 0.931 . S
H795 C790 0.930 . S
C796 O803 1.259 . S
C796 O804 1.258 . S
N797 Co788 2.057 . S
N797 C798 1.316 . S
N797 C799 1.375 . S
C798 N797 1.316 . S
C798 N800 1.347 . S
C798 H809 0.931 . S
C799 N797 1.375 . S
C799 C801 1.350 . S
C799 H808 0.930 . S
N800 C798 1.347 . S
N800 C801 1.373 . S
C801 C799 1.350 . S
C801 N800 1.373 . S
C801 H815 0.931 . S
C802 O805 1.256 . S
C802 O806 1.255 1_455 S
O803 Co786 2.022 1_455 S
O803 C796 1.259 . S
O804 Co788 2.117 . S
O804 C796 1.258 . S
O805 Co788 2.020 . S
O805 C802 1.256 . S
O806 Co786 2.061 . S
O806 C802 1.255 1_655 S
O807 C787 1.259 . S
O807 Co788 2.021 . S
H808 C799 0.930 . S
H809 C798 0.931 . S
O810 Co786 2.117 . S
O810 C787 1.256 1_655 S
O811 Co786 2.022 1_456 S
O811 C813 1.256 . S
O812 Co788 2.062 1_556 S
O812 C813 1.255 . S
C813 O811 1.256 . S
C813 O812 1.255 . S
H814 C793 0.931 . S
H815 C801 0.931 . S
C816 C817 1.369 . S
C816 C818 1.419 . S
C816 H820 0.930 . S
C817 C816 1.369 . S
C817 C826 1.429 . S
C818 C816 1.419 . S
C818 C819 1.363 . S
C818 H821 0.929 1_455 S
C819 C818 1.363 . S
C819 C825 1.428 . S
H820 C816 0.930 . S
H821 C818 0.929 1_655 S
S822 N823 1.613 . S
S822 N824 1.610 . S
N823 S822 1.613 . S
N823 C826 1.350 . S
N824 S822 1.610 . S
N824 C825 1.351 . S
C825 C819 1.428 . S
C825 N824 1.351 . S
C825 C826 1.434 . S
C826 C817 1.429 . S
C826 N823 1.350 . S
C826 C825 1.434 . S
C827 C828 1.369 . S
C827 C829 1.419 . S
C827 H831 0.930 . S
C828 C827 1.369 . S
C828 C837 1.429 . S
C829 C827 1.419 . S
C829 C830 1.363 . S
C829 H832 0.929 . S
C830 C829 1.363 . S
C830 C836 1.428 . S
H831 C827 0.930 . S
H832 C829 0.929 . S
S833 N834 1.613 . S
S833 N835 1.610 . S
N834 S833 1.613 . S
N834 C837 1.350 . S
N835 S833 1.610 . S
N835 C836 1.351 . S
C836 C830 1.428 . S
C836 N835 1.351 . S
C836 C837 1.434 . S
C837 C828 1.429 . S
C837 N834 1.350 . S
C837 C836 1.434 . S
C838 C839 1.369 . S
C838 C840 1.419 . S
C838 H842 0.930 . S
C839 C838 1.369 . S
C839 C848 1.429 . S
C840 C838 1.419 . S
C840 C841 1.363 . S
C840 H843 0.929 . S
C841 C840 1.363 . S
C841 C847 1.428 . S
H842 C838 0.930 . S
H843 C840 0.929 . S
S844 N845 1.613 . S
S844 N846 1.610 . S
N845 S844 1.613 . S
N845 C848 1.350 . S
N846 S844 1.610 . S
N846 C847 1.351 . S
C847 C841 1.428 . S
C847 N846 1.351 . S
C847 C848 1.434 . S
C848 C839 1.429 . S
C848 N845 1.350 . S
C848 C847 1.434 . S
C849 C850 1.369 . S
C849 C851 1.419 . S
C849 H853 0.930 . S
C850 C849 1.369 . S
C850 C859 1.429 . S
C851 C849 1.419 . S
C851 C852 1.363 . S
C851 H854 0.929 . S
C852 C851 1.363 . S
C852 C858 1.428 . S
H853 C849 0.930 . S
H854 C851 0.929 . S
S855 N856 1.613 . S
S855 N857 1.610 . S
N856 S855 1.613 . S
N856 C859 1.350 . S
N857 S855 1.610 . S
N857 C858 1.351 . S
C858 C852 1.428 . S
C858 N857 1.351 . S
C858 C859 1.434 . S
C859 C850 1.429 . S
C859 N856 1.350 . S
C859 C858 1.434 . S
C860 C861 1.369 . S
C860 C862 1.419 . S
C860 H864 0.930 . S
C861 C860 1.369 . S
C861 C870 1.429 . S
C862 C860 1.419 . S
C862 C863 1.363 . S
C862 H865 0.929 . S
C863 C862 1.363 . S
C863 C869 1.428 . S
H864 C860 0.930 . S
H865 C862 0.929 . S
S866 N867 1.613 1_655 S
S866 N868 1.610 . S
N867 S866 1.613 1_455 S
N867 C870 1.350 . S
N868 S866 1.610 . S
N868 C869 1.351 1_655 S
C869 C863 1.428 . S
C869 N868 1.351 1_455 S
C869 C870 1.434 . S
C870 C861 1.429 . S
C870 N867 1.350 . S
C870 C869 1.434 . S
C871 C872 1.369 . S
C871 C873 1.419 . S
C871 H875 0.930 . S
C872 C871 1.369 . S
C872 C881 1.429 . S
C873 C871 1.419 . S
C873 C874 1.363 . S
C873 H876 0.929 . S
C874 C873 1.363 . S
C874 C880 1.428 . S
H875 C871 0.930 . S
H876 C873 0.929 . S
S877 N878 1.613 . S
S877 N879 1.610 . S
N878 S877 1.613 . S
N878 C881 1.350 . S
N879 S877 1.610 . S
N879 C880 1.351 . S
C880 C874 1.428 . S
C880 N879 1.351 . S
C880 C881 1.434 . S
C881 C872 1.429 . S
C881 N878 1.350 . S
C881 C880 1.434 . S
C882 C883 1.369 . S
C882 C884 1.419 . S
C882 H886 0.930 . S
C883 C882 1.369 . S
C883 C892 1.429 . S
C884 C882 1.419 . S
C884 C885 1.363 . S
C884 H887 0.929 . S
C885 C884 1.363 . S
C885 C891 1.428 . S
H886 C882 0.930 . S
H887 C884 0.929 . S
S888 N889 1.613 1_554 S
S888 N890 1.610 . S
N889 S888 1.613 1_556 S
N889 C892 1.350 . S
N890 S888 1.610 . S
N890 C891 1.351 1_554 S
C891 C885 1.428 . S
C891 N890 1.351 1_556 S
C891 C892 1.434 . S
C892 C883 1.429 . S
C892 N889 1.350 . S
C892 C891 1.434 . S
C893 C894 1.369 . S
C893 C895 1.419 . S
C893 H897 0.930 . S
C894 C893 1.369 . S
C894 C903 1.429 . S
C895 C893 1.419 . S
C895 C896 1.363 . S
C895 H898 0.929 . S
C896 C895 1.363 . S
C896 C902 1.428 . S
H897 C893 0.930 . S
H898 C895 0.929 . S
S899 N900 1.613 . S
S899 N901 1.610 . S
N900 S899 1.613 . S
N900 C903 1.350 . S
N901 S899 1.610 . S
N901 C902 1.351 . S
C902 C896 1.428 . S
C902 N901 1.351 . S
C902 C903 1.434 . S
C903 C894 1.429 . S
C903 N900 1.350 . S
C903 C902 1.434 . S
C904 C905 1.369 1_565 S
C904 C906 1.419 . S
C904 H908 0.930 . S
C905 C904 1.369 1_545 S
C905 C914 1.429 . S
C906 C904 1.419 . S
C906 C907 1.357 1_565 S
C906 H909 0.929 . S
C907 C906 1.357 1_545 S
C907 C913 1.436 . S
H908 C904 0.930 . S
H909 C906 0.929 . S
S910 N911 1.613 . S
S910 N912 1.610 . S
N911 S910 1.613 . S
N911 C914 1.350 . S
N912 S910 1.610 . S
N912 C913 1.351 . S
C913 C907 1.436 . S
C913 N912 1.351 . S
C913 C914 1.434 . S
C914 C905 1.429 . S
C914 N911 1.350 . S
C914 C913 1.434 . S
C915 C916 1.369 . S
C915 C917 1.419 . S
C915 H919 0.930 . S
C916 C915 1.369 . S
C916 C925 1.429 . S
C917 C915 1.419 . S
C917 C918 1.363 . S
C917 H920 0.929 . S
C918 C917 1.363 . S
C918 C924 1.428 . S
H919 C915 0.930 . S
H920 C917 0.929 . S
S921 N922 1.613 . S
S921 N923 1.610 . S
N922 S921 1.613 . S
N922 C925 1.350 . S
N923 S921 1.610 . S
N923 C924 1.351 . S
C924 C918 1.428 . S
C924 N923 1.351 . S
C924 C925 1.434 . S
C925 C916 1.429 . S
C925 N922 1.350 . S
C925 C924 1.434 . S
C926 C927 1.369 . S
C926 C928 1.419 . S
C926 H930 0.930 . S
C927 C926 1.369 . S
C927 C936 1.429 . S
C928 C926 1.419 . S
C928 C929 1.363 . S
C928 H931 0.929 . S
C929 C928 1.363 . S
C929 C935 1.428 . S
H930 C926 0.930 . S
H931 C928 0.929 . S
S932 N933 1.613 1_565 S
S932 N934 1.610 1_565 S
N933 S932 1.613 1_545 S
N933 C936 1.350 . S
N934 S932 1.610 1_545 S
N934 C935 1.351 . S
C935 C929 1.428 . S
C935 N934 1.351 . S
C935 C936 1.434 . S
C936 C927 1.429 . S
C936 N933 1.350 . S
C936 C935 1.434 . S
C937 C938 1.369 . S
C937 C939 1.419 . S
C937 H941 0.930 . S
C938 C937 1.369 . S
C938 C947 1.429 . S
C939 C937 1.419 . S
C939 C940 1.363 . S
C939 H942 0.929 . S
C940 C939 1.363 . S
C940 C946 1.428 . S
H941 C937 0.930 . S
H942 C939 0.929 . S
S943 N944 1.613 . S
S943 N945 1.610 . S
N944 S943 1.613 . S
N944 C947 1.350 . S
N945 S943 1.610 . S
N945 C946 1.351 . S
C946 C940 1.428 . S
C946 N945 1.351 . S
C946 C947 1.434 . S
C947 C938 1.429 . S
C947 N944 1.350 . S
C947 C946 1.434 . S
C948 C949 1.369 . S
C948 C950 1.419 . S
C948 H952 0.930 . S
C949 C948 1.369 . S
C949 C958 1.429 1_545 S
C950 C948 1.419 . S
C950 C951 1.363 . S
C950 H953 0.929 . S
C951 C950 1.363 . S
C951 C957 1.428 . S
H952 C948 0.930 . S
H953 C950 0.929 . S
S954 N955 1.613 . S
S954 N956 1.610 . S
N955 S954 1.613 . S
N955 C958 1.350 . S
N956 S954 1.610 . S
N956 C957 1.351 1_565 S
C957 C951 1.428 . S
C957 N956 1.351 1_545 S
C957 C958 1.434 1_545 S
C958 C949 1.429 1_565 S
C958 N955 1.350 . S
C958 C957 1.434 1_565 S
C959 C960 1.369 . S
C959 C961 1.419 . S
C959 H963 0.930 . S
C960 C959 1.369 . S
C960 C969 1.429 . S
C961 C959 1.419 . S
C961 C962 1.363 . S
C961 H964 0.929 . S
C962 C961 1.363 . S
C962 C968 1.428 . S
H963 C959 0.930 . S
H964 C961 0.929 . S
S965 N966 1.613 . S
S965 N967 1.610 . S
N966 S965 1.613 . S
N966 C969 1.350 . S
N967 S965 1.610 . S
N967 C968 1.351 . S
C968 C962 1.428 . S
C968 N967 1.351 . S
C968 C969 1.434 . S
C969 C960 1.429 . S
C969 N966 1.350 . S
C969 C968 1.434 . S
C970 C971 1.369 . S
C970 C972 1.419 . S
C970 H974 0.930 . S
C971 C970 1.369 . S
C971 C980 1.429 . S
C972 C970 1.419 . S
C972 C973 1.363 . S
C972 H975 0.929 . S
C973 C972 1.363 . S
C973 C979 1.428 . S
H974 C970 0.930 . S
H975 C972 0.929 . S
S976 N977 1.613 . S
S976 N978 1.610 . S
N977 S976 1.613 . S
N977 C980 1.350 . S
N978 S976 1.610 . S
N978 C979 1.351 . S
C979 C973 1.428 . S
C979 N978 1.351 . S
C979 C980 1.434 . S
C980 C971 1.429 . S
C980 N977 1.350 . S
C980 C979 1.434 . S
C981 C982 1.369 . S
C981 C983 1.419 . S
C981 H985 0.930 . S
C982 C981 1.369 . S
C982 C991 1.429 . S
C983 C981 1.419 . S
C983 C984 1.363 . S
C983 H986 0.929 . S
C984 C983 1.363 . S
C984 C990 1.428 . S
H985 C981 0.930 . S
H986 C983 0.929 . S
S987 N988 1.613 . S
S987 N989 1.610 . S
N988 S987 1.613 . S
N988 C991 1.350 . S
N989 S987 1.610 . S
N989 C990 1.351 . S
C990 C984 1.428 . S
C990 N989 1.351 . S
C990 C991 1.434 . S
C991 C982 1.429 . S
C991 N988 1.350 . S
C991 C990 1.434 . S
C992 C993 1.369 . S
C992 C994 1.419 . S
C992 H996 0.930 . S
C993 C992 1.369 . S
C993 C1002 1.429 . S
C994 C992 1.419 . S
C994 C995 1.363 . S
C994 H997 0.948 . S
C995 C994 1.363 . S
C995 C1001 1.428 . S
H996 C992 0.930 . S
H997 C994 0.948 . S
S998 N999 1.613 . S
S998 N1000 1.610 . S
N999 S998 1.613 . S
N999 C1002 1.350 . S
N1000 S998 1.610 . S
N1000 C1001 1.351 . S
C1001 C995 1.428 . S
C1001 N1000 1.351 . S
C1001 C1002 1.434 . S
C1002 C993 1.429 . S
C1002 N999 1.350 . S
C1002 C1001 1.434 . S
C1003 C1004 1.369 . S
C1003 C1005 1.419 . S
C1003 H1007 0.930 . S
C1004 C1003 1.369 . S
C1004 C1013 1.429 . S
C1005 C1003 1.419 . S
C1005 C1006 1.363 . S
C1005 H1008 0.929 . S
C1006 C1005 1.363 . S
C1006 C1012 1.428 . S
H1007 C1003 0.930 . S
H1008 C1005 0.929 . S
S1009 N1010 1.613 . S
S1009 N1011 1.610 . S
N1010 S1009 1.613 . S
N1010 C1013 1.350 . S
N1011 S1009 1.610 . S
N1011 C1012 1.351 . S
C1012 C1006 1.428 . S
C1012 N1011 1.351 . S
C1012 C1013 1.434 . S
C1013 C1004 1.429 . S
C1013 N1010 1.350 . S
C1013 C1012 1.434 . S
C1014 C1015 1.369 . S
C1014 C1016 1.419 . S
C1014 H1018 0.930 . S
C1015 C1014 1.369 . S
C1015 C1024 1.429 . S
C1016 C1014 1.419 . S
C1016 C1017 1.363 . S
C1016 H1019 0.929 . S
C1017 C1016 1.363 . S
C1017 C1023 1.428 . S
H1018 C1014 0.930 . S
H1019 C1016 0.929 . S
S1020 N1021 1.613 . S
S1020 N1022 1.610 . S
N1021 S1020 1.613 . S
N1021 C1024 1.350 . S
N1022 S1020 1.610 . S
N1022 C1023 1.351 . S
C1023 C1017 1.428 . S
C1023 N1022 1.351 . S
C1023 C1024 1.434 . S
C1024 C1015 1.429 . S
C1024 N1021 1.350 . S
C1024 C1023 1.434 . S
C1025 C1026 1.369 . S
C1025 C1027 1.419 . S
C1025 H1029 0.930 . S
C1026 C1025 1.369 . S
C1026 C1035 1.429 . S
C1027 C1025 1.419 . S
C1027 C1028 1.363 . S
C1027 H1030 0.929 . S
C1028 C1027 1.363 . S
C1028 C1034 1.428 . S
H1029 C1025 0.930 . S
H1030 C1027 0.929 . S
S1031 N1032 1.613 . S
S1031 N1033 1.610 . S
N1032 S1031 1.613 . S
N1032 C1035 1.350 . S
N1033 S1031 1.610 . S
N1033 C1034 1.351 . S
C1034 C1028 1.428 . S
C1034 N1033 1.351 . S
C1034 C1035 1.434 . S
C1035 C1026 1.429 . S
C1035 N1032 1.350 . S
C1035 C1034 1.434 . S
C1036 C1037 1.369 . S
C1036 C1038 1.419 . S
C1036 H1040 0.930 . S
C1037 C1036 1.369 . S
C1037 C1046 1.429 . S
C1038 C1036 1.419 . S
C1038 C1039 1.363 . S
C1038 H1041 0.929 . S
C1039 C1038 1.363 . S
C1039 C1045 1.428 . S
H1040 C1036 0.930 . S
H1041 C1038 0.929 . S
S1042 N1043 1.613 . S
S1042 N1044 1.610 . S
N1043 S1042 1.613 . S
N1043 C1046 1.350 . S
N1044 S1042 1.610 . S
N1044 C1045 1.351 . S
C1045 C1039 1.428 . S
C1045 N1044 1.351 . S
C1045 C1046 1.434 . S
C1046 C1037 1.429 . S
C1046 N1043 1.350 . S
C1046 C1045 1.434 . S
C1047 C1048 1.369 . S
C1047 C1049 1.419 . S
C1047 H1051 0.930 . S
C1048 C1047 1.369 . S
C1048 C1057 1.429 . S
C1049 C1047 1.419 . S
C1049 C1050 1.363 . S
C1049 H1052 0.929 . S
C1050 C1049 1.363 . S
C1050 C1056 1.428 1_565 S
H1051 C1047 0.930 . S
H1052 C1049 0.929 . S
S1053 N1054 1.613 . S
S1053 N1055 1.610 . S
N1054 S1053 1.613 . S
N1054 C1057 1.350 1_545 S
N1055 S1053 1.610 . S
N1055 C1056 1.351 . S
C1056 C1050 1.428 1_545 S
C1056 N1055 1.351 . S
C1056 C1057 1.434 1_545 S
C1057 C1048 1.429 . S
C1057 N1054 1.350 1_565 S
C1057 C1056 1.434 1_565 S
C1058 C1059 1.369 . S
C1058 C1060 1.419 . S
C1058 H1062 0.930 . S
C1059 C1058 1.369 . S
C1059 C1068 1.429 . S
C1060 C1058 1.419 . S
C1060 C1061 1.363 . S
C1060 H1063 0.929 . S
C1061 C1060 1.363 . S
C1061 C1067 1.428 . S
H1062 C1058 0.930 . S
H1063 C1060 0.929 . S
S1064 N1065 1.613 . S
S1064 N1066 1.610 . S
N1065 S1064 1.613 . S
N1065 C1068 1.350 . S
N1066 S1064 1.610 . S
N1066 C1067 1.351 . S
C1067 C1061 1.428 . S
C1067 N1066 1.351 . S
C1067 C1068 1.434 . S
C1068 C1059 1.429 . S
C1068 N1065 1.350 . S
C1068 C1067 1.434 . S
C1069 C1070 1.369 . S
C1069 C1071 1.419 . S
C1069 H1073 0.930 . S
C1070 C1069 1.369 . S
C1070 C1079 1.429 . S
C1071 C1069 1.419 . S
C1071 C1072 1.363 . S
C1071 H1074 0.929 . S
C1072 C1071 1.363 . S
C1072 C1078 1.428 . S
H1073 C1069 0.930 . S
H1074 C1071 0.929 . S
S1075 N1076 1.613 . S
S1075 N1077 1.610 . S
N1076 S1075 1.613 . S
N1076 C1079 1.350 . S
N1077 S1075 1.610 . S
N1077 C1078 1.351 . S
C1078 C1072 1.428 . S
C1078 N1077 1.351 . S
C1078 C1079 1.434 . S
C1079 C1070 1.429 . S
C1079 N1076 1.350 . S
C1079 C1078 1.434 . S
C1080 C1081 1.369 . S
C1080 C1082 1.419 . S
C1080 H1084 0.930 1_455 S
C1081 C1080 1.369 . S
C1081 C1090 1.429 . S
C1082 C1080 1.419 . S
C1082 C1083 1.363 . S
C1082 H1085 0.929 . S
C1083 C1082 1.363 . S
C1083 C1089 1.426 1_556 S
H1084 C1080 0.930 1_655 S
H1085 C1082 0.929 . S
S1086 N1087 1.607 1_554 S
S1086 N1088 1.610 . S
N1087 S1086 1.607 1_556 S
N1087 C1090 1.354 . S
N1088 S1086 1.610 . S
N1088 C1089 1.356 . S
C1089 C1083 1.426 1_554 S
C1089 N1088 1.356 . S
C1089 C1090 1.431 1_554 S
C1090 C1081 1.429 . S
C1090 N1087 1.354 . S
C1090 C1089 1.431 1_556 S
C1091 C1092 1.369 . S
C1091 C1093 1.419 . S
C1091 H1095 0.930 . S
C1092 C1091 1.369 . S
C1092 C1101 1.429 . S
C1093 C1091 1.419 . S
C1093 C1094 1.363 . S
C1093 H1096 0.929 . S
C1094 C1093 1.363 . S
C1094 C1100 1.428 . S
H1095 C1091 0.930 . S
H1096 C1093 0.929 . S
S1097 N1098 1.613 . S
S1097 N1099 1.610 . S
N1098 S1097 1.613 . S
N1098 C1101 1.350 . S
N1099 S1097 1.610 . S
N1099 C1100 1.351 . S
C1100 C1094 1.428 . S
C1100 N1099 1.351 . S
C1100 C1101 1.434 . S
C1101 C1092 1.429 . S
C1101 N1098 1.350 . S
C1101 C1100 1.434 . S
C1102 C1103 1.369 . S
C1102 C1104 1.419 . S
C1102 H1106 0.930 . S
C1103 C1102 1.369 . S
C1103 C1112 1.429 . S
C1104 C1102 1.419 . S
C1104 C1105 1.363 . S
C1104 H1107 0.929 . S
C1105 C1104 1.363 . S
C1105 C1111 1.428 . S
H1106 C1102 0.930 . S
H1107 C1104 0.929 . S
S1108 N1109 1.613 . S
S1108 N1110 1.610 . S
N1109 S1108 1.613 . S
N1109 C1112 1.350 . S
N1110 S1108 1.610 . S
N1110 C1111 1.351 . S
C1111 C1105 1.428 . S
C1111 N1110 1.351 . S
C1111 C1112 1.434 . S
C1112 C1103 1.429 . S
C1112 N1109 1.350 . S
C1112 C1111 1.434 . S
C1113 C1114 1.369 . S
C1113 C1115 1.419 . S
C1113 H1117 0.930 . S
C1114 C1113 1.369 . S
C1114 C1123 1.429 . S
C1115 C1113 1.419 . S
C1115 C1116 1.363 . S
C1115 H1118 0.929 . S
C1116 C1115 1.363 . S
C1116 C1122 1.428 . S
H1117 C1113 0.930 . S
H1118 C1115 0.929 . S
S1119 N1120 1.613 . S
S1119 N1121 1.610 . S
N1120 S1119 1.613 . S
N1120 C1123 1.350 . S
N1121 S1119 1.610 . S
N1121 C1122 1.351 . S
C1122 C1116 1.428 . S
C1122 N1121 1.351 . S
C1122 C1123 1.434 . S
C1123 C1114 1.429 . S
C1123 N1120 1.350 . S
C1123 C1122 1.434 . S
C1124 C1125 1.369 . S
C1124 C1126 1.419 . S
C1124 H1128 0.930 1_455 S
C1125 C1124 1.369 . S
C1125 C1134 1.429 . S
C1126 C1124 1.419 . S
C1126 C1127 1.363 . S
C1126 H1129 0.929 . S
C1127 C1126 1.363 . S
C1127 C1133 1.428 . S
H1128 C1124 0.930 1_655 S
H1129 C1126 0.929 . S
S1130 N1131 1.613 . S
S1130 N1132 1.610 . S
N1131 S1130 1.613 . S
N1131 C1134 1.350 . S
N1132 S1130 1.610 . S
N1132 C1133 1.351 . S
C1133 C1127 1.428 . S
C1133 N1132 1.351 . S
C1133 C1134 1.434 . S
C1134 C1125 1.429 . S
C1134 N1131 1.350 . S
C1134 C1133 1.434 . S
C1135 C1136 1.369 . S
C1135 C1137 1.419 . S
C1135 H1139 0.930 . S
C1136 C1135 1.369 . S
C1136 C1145 1.429 . S
C1137 C1135 1.419 . S
C1137 C1138 1.363 . S
C1137 H1140 0.929 . S
C1138 C1137 1.363 . S
C1138 C1144 1.428 . S
H1139 C1135 0.930 . S
H1140 C1137 0.929 . S
S1141 N1142 1.613 . S
S1141 N1143 1.610 . S
N1142 S1141 1.613 . S
N1142 C1145 1.350 . S
N1143 S1141 1.610 . S
N1143 C1144 1.351 . S
C1144 C1138 1.428 . S
C1144 N1143 1.351 . S
C1144 C1145 1.434 . S
C1145 C1136 1.429 . S
C1145 N1142 1.350 . S
C1145 C1144 1.434 . S
C1146 C1147 1.369 . S
C1146 C1148 1.419 . S
C1146 H1150 0.930 . S
C1147 C1146 1.369 . S
C1147 C1156 1.429 . S
C1148 C1146 1.419 . S
C1148 C1149 1.363 . S
C1148 H1151 0.929 . S
C1149 C1148 1.363 . S
C1149 C1155 1.428 . S
H1150 C1146 0.930 . S
H1151 C1148 0.929 . S
S1152 N1153 1.613 . S
S1152 N1154 1.610 . S
N1153 S1152 1.613 . S
N1153 C1156 1.350 . S
N1154 S1152 1.610 . S
N1154 C1155 1.351 . S
C1155 C1149 1.428 . S
C1155 N1154 1.351 . S
C1155 C1156 1.434 . S
C1156 C1147 1.429 . S
C1156 N1153 1.350 . S
C1156 C1155 1.434 . S
C1157 C1158 1.369 . S
C1157 C1159 1.419 . S
C1157 H1161 0.930 . S
C1158 C1157 1.369 . S
C1158 C1167 1.429 . S
C1159 C1157 1.419 . S
C1159 C1160 1.363 . S
C1159 H1162 0.929 . S
C1160 C1159 1.363 . S
C1160 C1166 1.428 . S
H1161 C1157 0.930 . S
H1162 C1159 0.929 . S
S1163 N1164 1.613 . S
S1163 N1165 1.610 . S
N1164 S1163 1.613 . S
N1164 C1167 1.350 . S
N1165 S1163 1.610 . S
N1165 C1166 1.351 . S
C1166 C1160 1.428 . S
C1166 N1165 1.351 . S
C1166 C1167 1.434 . S
C1167 C1158 1.429 . S
C1167 N1164 1.350 . S
C1167 C1166 1.434 . S
C1168 C1169 1.369 . S
C1168 C1170 1.419 . S
C1168 H1172 0.930 . S
C1169 C1168 1.369 . S
C1169 C1178 1.429 . S
C1170 C1168 1.419 . S
C1170 C1171 1.363 . S
C1170 H1173 0.929 . S
C1171 C1170 1.363 . S
C1171 C1177 1.428 . S
H1172 C1168 0.930 . S
H1173 C1170 0.929 . S
S1174 N1175 1.613 1_455 S
S1174 N1176 1.610 . S
N1175 S1174 1.613 1_655 S
N1175 C1178 1.350 . S
N1176 S1174 1.610 . S
N1176 C1177 1.351 1_455 S
C1177 C1171 1.428 . S
C1177 N1176 1.351 1_655 S
C1177 C1178 1.434 . S
C1178 C1169 1.429 . S
C1178 N1175 1.350 . S
C1178 C1177 1.434 . S
C1179 C1180 1.369 . S
C1179 C1181 1.419 . S
C1179 H1183 0.930 . S
C1180 C1179 1.369 . S
C1180 C1189 1.429 . S
C1181 C1179 1.419 . S
C1181 C1182 1.363 . S
C1181 H1184 0.929 . S
C1182 C1181 1.363 . S
C1182 C1188 1.428 . S
H1183 C1179 0.930 . S
H1184 C1181 0.929 . S
S1185 N1186 1.613 . S
S1185 N1187 1.610 . S
N1186 S1185 1.613 . S
N1186 C1189 1.350 . S
N1187 S1185 1.610 . S
N1187 C1188 1.351 . S
C1188 C1182 1.428 . S
C1188 N1187 1.351 . S
C1188 C1189 1.434 . S
C1189 C1180 1.429 . S
C1189 N1186 1.350 . S
C1189 C1188 1.434 . S
C1190 C1191 1.369 . S
C1190 C1192 1.419 . S
C1190 H1194 0.930 . S
C1191 C1190 1.369 . S
C1191 C1200 1.429 1_545 S
C1192 C1190 1.419 . S
C1192 C1193 1.363 . S
C1192 H1195 0.929 . S
C1193 C1192 1.363 . S
C1193 C1199 1.428 1_545 S
H1194 C1190 0.930 . S
H1195 C1192 0.929 . S
S1196 N1197 1.613 . S
S1196 N1198 1.610 . S
N1197 S1196 1.613 . S
N1197 C1200 1.350 . S
N1198 S1196 1.610 . S
N1198 C1199 1.351 . S
C1199 C1193 1.428 1_565 S
C1199 N1198 1.351 . S
C1199 C1200 1.434 . S
C1200 C1191 1.429 1_565 S
C1200 N1197 1.350 . S
C1200 C1199 1.434 . S
C1201 C1202 1.369 . S
C1201 C1203 1.419 . S
C1201 H1205 0.930 . S
C1202 C1201 1.369 . S
C1202 C1211 1.429 . S
C1203 C1201 1.419 . S
C1203 C1204 1.363 . S
C1203 H1206 0.929 . S
C1204 C1203 1.363 . S
C1204 C1210 1.428 . S
H1205 C1201 0.930 . S
H1206 C1203 0.929 . S
S1207 N1208 1.613 . S
S1207 N1209 1.610 . S
N1208 S1207 1.613 . S
N1208 C1211 1.350 . S
N1209 S1207 1.610 . S
N1209 C1210 1.351 . S
C1210 C1204 1.428 . S
C1210 N1209 1.351 . S
C1210 C1211 1.434 . S
C1211 C1202 1.429 . S
C1211 N1208 1.350 . S
C1211 C1210 1.434 . S
C1212 C1213 1.369 . S
C1212 C1214 1.423 . S
C1212 H1216 0.930 . S
C1213 C1212 1.369 . S
C1213 C1222 1.429 . S
C1214 C1212 1.423 . S
C1214 C1215 1.367 . S
C1214 H1217 0.920 1_655 S
C1215 C1214 1.367 . S
C1215 C1221 1.428 . S
H1216 C1212 0.930 . S
H1217 C1214 0.920 1_455 S
S1218 N1219 1.613 1_565 S
S1218 N1220 1.610 . S
N1219 S1218 1.613 1_545 S
N1219 C1222 1.350 . S
N1220 S1218 1.610 . S
N1220 C1221 1.351 1_565 S
C1221 C1215 1.428 . S
C1221 N1220 1.351 1_545 S
C1221 C1222 1.434 . S
C1222 C1213 1.429 . S
C1222 N1219 1.350 . S
C1222 C1221 1.434 . S
C1223 C1224 1.369 . S
C1223 C1225 1.419 . S
C1223 H1227 0.930 . S
C1224 C1223 1.369 . S
C1224 C1233 1.429 . S
C1225 C1223 1.419 . S
C1225 C1226 1.363 . S
C1225 H1228 0.929 . S
C1226 C1225 1.363 . S
C1226 C1232 1.428 . S
H1227 C1223 0.930 . S
H1228 C1225 0.929 . S
S1229 N1230 1.613 . S
S1229 N1231 1.610 . S
N1230 S1229 1.613 . S
N1230 C1233 1.350 . S
N1231 S1229 1.610 . S
N1231 C1232 1.351 . S
C1232 C1226 1.428 . S
C1232 N1231 1.351 . S
C1232 C1233 1.434 . S
C1233 C1224 1.429 . S
C1233 N1230 1.350 . S
C1233 C1232 1.434 . S
C1234 C1235 1.369 . S
C1234 C1236 1.419 . S
C1234 H1238 0.930 1_545 S
C1235 C1234 1.369 . S
C1235 C1244 1.429 . S
C1236 C1234 1.419 . S
C1236 C1237 1.363 . S
C1236 H1239 0.929 . S
C1237 C1236 1.363 . S
C1237 C1243 1.428 . S
H1238 C1234 0.930 1_565 S
H1239 C1236 0.929 . S
S1240 N1241 1.613 . S
S1240 N1242 1.610 . S
N1241 S1240 1.613 . S
N1241 C1244 1.350 . S
N1242 S1240 1.610 . S
N1242 C1243 1.351 . S
C1243 C1237 1.428 . S
C1243 N1242 1.351 . S
C1243 C1244 1.434 . S
C1244 C1235 1.429 . S
C1244 N1241 1.350 . S
C1244 C1243 1.434 . S
C1245 C1246 1.369 . S
C1245 C1247 1.419 . S
C1245 H1249 0.930 . S
C1246 C1245 1.369 . S
C1246 C1255 1.429 . S
C1247 C1245 1.419 . S
C1247 C1248 1.363 . S
C1247 H1250 0.929 . S
C1248 C1247 1.363 . S
C1248 C1254 1.428 . S
H1249 C1245 0.930 . S
H1250 C1247 0.929 . S
S1251 N1252 1.613 . S
S1251 N1253 1.610 . S
N1252 S1251 1.613 . S
N1252 C1255 1.350 . S
N1253 S1251 1.610 . S
N1253 C1254 1.351 . S
C1254 C1248 1.428 . S
C1254 N1253 1.351 . S
C1254 C1255 1.434 . S
C1255 C1246 1.429 . S
C1255 N1252 1.350 . S
C1255 C1254 1.434 . S
C1256 C1257 1.369 . S
C1256 C1258 1.419 . S
C1256 H1260 0.930 . S
C1257 C1256 1.369 . S
C1257 C1266 1.429 1_565 S
C1258 C1256 1.419 . S
C1258 C1259 1.363 1_565 S
C1258 H1261 0.929 . S
C1259 C1258 1.363 1_545 S
C1259 C1265 1.428 . S
H1260 C1256 0.930 . S
H1261 C1258 0.929 . S
S1262 N1263 1.613 . S
S1262 N1264 1.610 . S
N1263 S1262 1.613 . S
N1263 C1266 1.350 . S
N1264 S1262 1.610 . S
N1264 C1265 1.351 . S
C1265 C1259 1.428 . S
C1265 N1264 1.351 . S
C1265 C1266 1.434 . S
C1266 C1257 1.429 1_545 S
C1266 N1263 1.350 . S
C1266 C1265 1.434 . S
C1267 C1268 1.369 . S
C1267 C1269 1.419 . S
C1267 H1271 0.930 . S
C1268 C1267 1.369 . S
C1268 C1277 1.429 1_554 S
C1269 C1267 1.419 . S
C1269 C1270 1.363 . S
C1269 H1272 0.929 . S
C1270 C1269 1.363 . S
C1270 C1276 1.428 1_554 S
H1271 C1267 0.930 . S
H1272 C1269 0.929 . S
S1273 N1274 1.613 . S
S1273 N1275 1.610 . S
N1274 S1273 1.613 . S
N1274 C1277 1.350 . S
N1275 S1273 1.610 . S
N1275 C1276 1.351 . S
C1276 C1270 1.428 1_556 S
C1276 N1275 1.351 . S
C1276 C1277 1.434 . S
C1277 C1268 1.429 1_556 S
C1277 N1274 1.350 . S
C1277 C1276 1.434 . S
C1278 C1279 1.369 . S
C1278 C1280 1.419 . S
C1278 H1282 0.930 . S
C1279 C1278 1.369 . S
C1279 C1288 1.429 . S
C1280 C1278 1.419 . S
C1280 C1281 1.363 . S
C1280 H1283 0.929 . S
C1281 C1280 1.363 . S
C1281 C1287 1.428 . S
H1282 C1278 0.930 . S
H1283 C1280 0.929 . S
S1284 N1285 1.613 . S
S1284 N1286 1.610 . S
N1285 S1284 1.613 . S
N1285 C1288 1.350 . S
N1286 S1284 1.610 . S
N1286 C1287 1.351 . S
C1287 C1281 1.428 . S
C1287 N1286 1.351 . S
C1287 C1288 1.434 . S
C1288 C1279 1.429 . S
C1288 N1285 1.350 . S
C1288 C1287 1.434 . S
C1289 C1290 1.369 . S
C1289 C1291 1.419 . S
C1289 H1293 0.930 . S
C1290 C1289 1.369 . S
C1290 C1299 1.429 . S
C1291 C1289 1.419 . S
C1291 C1292 1.363 . S
C1291 H1294 0.929 . S
C1292 C1291 1.363 . S
C1292 C1298 1.428 . S
H1293 C1289 0.930 . S
H1294 C1291 0.929 . S
S1295 N1296 1.613 . S
S1295 N1297 1.610 . S
N1296 S1295 1.613 . S
N1296 C1299 1.350 . S
N1297 S1295 1.610 . S
N1297 C1298 1.351 . S
C1298 C1292 1.428 . S
C1298 N1297 1.351 . S
C1298 C1299 1.434 . S
C1299 C1290 1.429 . S
C1299 N1296 1.350 . S
C1299 C1298 1.434 . S
C1300 C1301 1.380 . S
C1300 C1302 1.419 . S
C1300 H1304 0.930 . S
C1301 C1300 1.380 . S
C1301 C1310 1.439 . S
C1302 C1300 1.419 . S
C1302 C1303 1.363 . S
C1302 H1305 0.929 . S
C1303 C1302 1.363 . S
C1303 C1309 1.428 . S
H1304 C1300 0.930 . S
H1305 C1302 0.929 . S
S1306 N1307 1.613 . S
S1306 N1308 1.610 . S
N1307 S1306 1.613 . S
N1307 C1310 1.350 . S
N1308 S1306 1.610 . S
N1308 C1309 1.351 . S
C1309 C1303 1.428 . S
C1309 N1308 1.351 . S
C1309 C1310 1.434 . S
C1310 C1301 1.439 . S
C1310 N1307 1.350 . S
C1310 C1309 1.434 . S
C1311 C1312 1.369 . S
C1311 C1313 1.419 . S
C1311 H1315 0.930 . S
C1312 C1311 1.369 . S
C1312 C1321 1.429 . S
C1313 C1311 1.419 . S
C1313 C1314 1.363 . S
C1313 H1316 0.929 . S
C1314 C1313 1.363 . S
C1314 C1320 1.428 . S
H1315 C1311 0.930 . S
H1316 C1313 0.929 . S
S1317 N1318 1.613 . S
S1317 N1319 1.610 . S
N1318 S1317 1.613 . S
N1318 C1321 1.350 . S
N1319 S1317 1.610 . S
N1319 C1320 1.351 . S
C1320 C1314 1.428 . S
C1320 N1319 1.351 . S
C1320 C1321 1.434 . S
C1321 C1312 1.429 . S
C1321 N1318 1.350 . S
C1321 C1320 1.434 . S
C1322 C1323 1.369 . S
C1322 C1324 1.419 . S
C1322 H1326 0.930 . S
C1323 C1322 1.369 . S
C1323 C1332 1.429 . S
C1324 C1322 1.419 . S
C1324 C1325 1.363 . S
C1324 H1327 0.929 . S
C1325 C1324 1.363 . S
C1325 C1331 1.428 . S
H1326 C1322 0.930 . S
H1327 C1324 0.929 . S
S1328 N1329 1.613 . S
S1328 N1330 1.610 . S
N1329 S1328 1.613 . S
N1329 C1332 1.350 . S
N1330 S1328 1.610 . S
N1330 C1331 1.351 . S
C1331 C1325 1.428 . S
C1331 N1330 1.351 . S
C1331 C1332 1.434 . S
C1332 C1323 1.429 . S
C1332 N1329 1.350 . S
C1332 C1331 1.434 . S
C1333 C1334 1.369 . S
C1333 C1335 1.419 . S
C1333 H1337 0.930 . S
C1334 C1333 1.369 . S
C1334 C1343 1.429 . S
C1335 C1333 1.419 . S
C1335 C1336 1.363 . S
C1335 H1338 0.929 . S
C1336 C1335 1.363 . S
C1336 C1342 1.428 . S
H1337 C1333 0.930 . S
H1338 C1335 0.929 . S
S1339 N1340 1.613 . S
S1339 N1341 1.610 . S
N1340 S1339 1.613 . S
N1340 C1343 1.350 . S
N1341 S1339 1.610 . S
N1341 C1342 1.351 . S
C1342 C1336 1.428 . S
C1342 N1341 1.351 . S
C1342 C1343 1.434 . S
C1343 C1334 1.429 . S
C1343 N1340 1.350 . S
C1343 C1342 1.434 . S
C1344 C1345 1.369 . S
C1344 C1346 1.419 . S
C1344 H1348 0.930 . S
C1345 C1344 1.369 . S
C1345 C1354 1.429 . S
C1346 C1344 1.419 . S
C1346 C1347 1.363 . S
C1346 H1349 0.929 . S
C1347 C1346 1.363 . S
C1347 C1353 1.428 . S
H1348 C1344 0.930 . S
H1349 C1346 0.929 . S
S1350 N1351 1.613 . S
S1350 N1352 1.610 . S
N1351 S1350 1.613 . S
N1351 C1354 1.350 . S
N1352 S1350 1.610 . S
N1352 C1353 1.351 . S
C1353 C1347 1.428 . S
C1353 N1352 1.351 . S
C1353 C1354 1.434 . S
C1354 C1345 1.429 . S
C1354 N1351 1.350 . S
C1354 C1353 1.434 . S
C1355 C1356 1.369 . S
C1355 C1357 1.419 . S
C1355 H1359 0.930 . S
C1356 C1355 1.369 . S
C1356 C1365 1.429 . S
C1357 C1355 1.419 . S
C1357 C1358 1.363 . S
C1357 H1360 0.929 . S
C1358 C1357 1.363 . S
C1358 C1364 1.428 . S
H1359 C1355 0.930 . S
H1360 C1357 0.929 . S
S1361 N1362 1.613 . S
S1361 N1363 1.610 . S
N1362 S1361 1.613 . S
N1362 C1365 1.350 . S
N1363 S1361 1.610 . S
N1363 C1364 1.351 . S
C1364 C1358 1.428 . S
C1364 N1363 1.351 . S
C1364 C1365 1.434 . S
C1365 C1356 1.429 . S
C1365 N1362 1.350 . S
C1365 C1364 1.434 . S
C1366 C1367 1.369 . S
C1366 C1368 1.419 . S
C1366 H1370 0.930 . S
C1367 C1366 1.369 . S
C1367 C1376 1.429 . S
C1368 C1366 1.419 . S
C1368 C1369 1.363 . S
C1368 H1371 0.929 . S
C1369 C1368 1.363 . S
C1369 C1375 1.428 . S
H1370 C1366 0.930 . S
H1371 C1368 0.929 . S
S1372 N1373 1.613 . S
S1372 N1374 1.610 1_655 S
N1373 S1372 1.613 . S
N1373 C1376 1.350 1_655 S
N1374 S1372 1.610 1_455 S
N1374 C1375 1.351 . S
C1375 C1369 1.428 . S
C1375 N1374 1.351 . S
C1375 C1376 1.434 . S
C1376 C1367 1.429 . S
C1376 N1373 1.350 1_455 S
C1376 C1375 1.434 . S
C1377 C1378 1.369 . S
C1377 C1379 1.419 . S
C1377 H1381 0.930 . S
C1378 C1377 1.369 . S
C1378 C1387 1.429 . S
C1379 C1377 1.419 . S
C1379 C1380 1.363 . S
C1379 H1382 0.929 . S
C1380 C1379 1.363 . S
C1380 C1386 1.428 . S
H1381 C1377 0.930 . S
H1382 C1379 0.929 . S
S1383 N1384 1.613 . S
S1383 N1385 1.610 . S
N1384 S1383 1.613 . S
N1384 C1387 1.350 . S
N1385 S1383 1.610 . S
N1385 C1386 1.351 . S
C1386 C1380 1.428 . S
C1386 N1385 1.351 . S
C1386 C1387 1.434 . S
C1387 C1378 1.429 . S
C1387 N1384 1.350 . S
C1387 C1386 1.434 . S
C1388 C1389 1.369 . S
C1388 C1390 1.419 . S
C1388 H1392 0.930 . S
C1389 C1388 1.369 . S
C1389 C1398 1.429 . S
C1390 C1388 1.419 . S
C1390 C1391 1.363 . S
C1390 H1393 0.929 1_556 S
C1391 C1390 1.363 . S
C1391 C1397 1.428 . S
H1392 C1388 0.930 . S
H1393 C1390 0.929 1_554 S
S1394 N1395 1.613 . S
S1394 N1396 1.610 . S
N1395 S1394 1.613 . S
N1395 C1398 1.350 . S
N1396 S1394 1.610 . S
N1396 C1397 1.351 . S
C1397 C1391 1.428 . S
C1397 N1396 1.351 . S
C1397 C1398 1.434 . S
C1398 C1389 1.429 . S
C1398 N1395 1.350 . S
C1398 C1397 1.434 . S
C1399 C1400 1.369 . S
C1399 C1401 1.419 . S
C1399 H1403 0.930 . S
C1400 C1399 1.369 . S
C1400 C1409 1.429 . S
C1401 C1399 1.419 . S
C1401 C1402 1.363 . S
C1401 H1404 0.929 . S
C1402 C1401 1.363 . S
C1402 C1408 1.428 . S
H1403 C1399 0.930 . S
H1404 C1401 0.929 . S
S1405 N1406 1.613 . S
S1405 N1407 1.610 . S
N1406 S1405 1.613 . S
N1406 C1409 1.350 . S
N1407 S1405 1.610 . S
N1407 C1408 1.351 . S
C1408 C1402 1.428 . S
C1408 N1407 1.351 . S
C1408 C1409 1.434 . S
C1409 C1400 1.429 . S
C1409 N1406 1.350 . S
C1409 C1408 1.434 . S
C1410 C1411 1.369 . S
C1410 C1412 1.419 . S
C1410 H1414 0.930 . S
C1411 C1410 1.369 . S
C1411 C1420 1.429 . S
C1412 C1410 1.419 . S
C1412 C1413 1.363 . S
C1412 H1415 0.929 . S
C1413 C1412 1.363 . S
C1413 C1419 1.428 . S
H1414 C1410 0.930 . S
H1415 C1412 0.929 . S
S1416 N1417 1.613 1_655 S
S1416 N1418 1.610 . S
N1417 S1416 1.613 1_455 S
N1417 C1420 1.350 . S
N1418 S1416 1.610 . S
N1418 C1419 1.351 1_655 S
C1419 C1413 1.428 . S
C1419 N1418 1.351 1_455 S
C1419 C1420 1.434 . S
C1420 C1411 1.429 . S
C1420 N1417 1.350 . S
C1420 C1419 1.434 . S
C1421 C1422 1.369 . S
C1421 C1423 1.419 . S
C1421 H1425 0.930 . S
C1422 C1421 1.369 . S
C1422 C1431 1.429 . S
C1423 C1421 1.419 . S
C1423 C1424 1.363 . S
C1423 H1426 0.929 . S
C1424 C1423 1.363 . S
C1424 C1430 1.428 . S
H1425 C1421 0.930 . S
H1426 C1423 0.929 . S
S1427 N1428 1.613 . S
S1427 N1429 1.610 . S
N1428 S1427 1.613 . S
N1428 C1431 1.350 . S
N1429 S1427 1.610 . S
N1429 C1430 1.351 . S
C1430 C1424 1.428 . S
C1430 N1429 1.351 . S
C1430 C1431 1.434 . S
C1431 C1422 1.429 . S
C1431 N1428 1.350 . S
C1431 C1430 1.434 . S
C1432 C1433 1.369 . S
C1432 C1434 1.419 . S
C1432 H1436 0.930 . S
C1433 C1432 1.369 . S
C1433 C1442 1.429 . S
C1434 C1432 1.419 . S
C1434 C1435 1.363 . S
C1434 H1437 0.929 . S
C1435 C1434 1.363 . S
C1435 C1441 1.428 . S
H1436 C1432 0.930 . S
H1437 C1434 0.929 . S
S1438 N1439 1.613 . S
S1438 N1440 1.610 . S
N1439 S1438 1.613 . S
N1439 C1442 1.350 . S
N1440 S1438 1.610 . S
N1440 C1441 1.351 . S
C1441 C1435 1.428 . S
C1441 N1440 1.351 . S
C1441 C1442 1.434 . S
C1442 C1433 1.429 . S
C1442 N1439 1.350 . S
C1442 C1441 1.434 . S
C1443 C1444 1.369 . S
C1443 C1445 1.419 . S
C1443 H1447 0.930 . S
C1444 C1443 1.369 . S
C1444 C1453 1.429 . S
C1445 C1443 1.419 . S
C1445 C1446 1.363 . S
C1445 H1448 0.929 . S
C1446 C1445 1.363 . S
C1446 C1452 1.428 . S
H1447 C1443 0.930 . S
H1448 C1445 0.929 . S
S1449 N1450 1.613 1_556 S
S1449 N1451 1.610 . S
N1450 S1449 1.613 1_554 S
N1450 C1453 1.350 1_554 S
N1451 S1449 1.610 . S
N1451 C1452 1.351 . S
C1452 C1446 1.428 . S
C1452 N1451 1.351 . S
C1452 C1453 1.434 . S
C1453 C1444 1.429 . S
C1453 N1450 1.350 1_556 S
C1453 C1452 1.434 . S
C1454 C1455 1.369 . S
C1454 C1456 1.419 . S
C1454 H1458 0.930 . S
C1455 C1454 1.369 . S
C1455 C1464 1.429 . S
C1456 C1454 1.419 . S
C1456 C1457 1.363 . S
C1456 H1459 0.929 . S
C1457 C1456 1.363 . S
C1457 C1463 1.428 . S
H1458 C1454 0.930 . S
H1459 C1456 0.929 . S
S1460 N1461 1.613 . S
S1460 N1462 1.610 . S
N1461 S1460 1.613 . S
N1461 C1464 1.350 . S
N1462 S1460 1.610 . S
N1462 C1463 1.351 . S
C1463 C1457 1.428 . S
C1463 N1462 1.351 . S
C1463 C1464 1.434 . S
C1464 C1455 1.429 . S
C1464 N1461 1.350 . S
C1464 C1463 1.434 . S
C1465 C1466 1.369 . S
C1465 C1467 1.419 . S
C1465 H1469 0.930 . S
C1466 C1465 1.369 . S
C1466 C1475 1.429 . S
C1467 C1465 1.419 . S
C1467 C1468 1.363 . S
C1467 H1470 0.929 . S
C1468 C1467 1.363 . S
C1468 C1474 1.428 . S
H1469 C1465 0.930 . S
H1470 C1467 0.929 . S
S1471 N1472 1.613 . S
S1471 N1473 1.610 . S
N1472 S1471 1.613 . S
N1472 C1475 1.350 . S
N1473 S1471 1.610 . S
N1473 C1474 1.351 . S
C1474 C1468 1.428 . S
C1474 N1473 1.351 . S
C1474 C1475 1.434 . S
C1475 C1466 1.429 . S
C1475 N1472 1.350 . S
C1475 C1474 1.434 . S
C1476 C1477 1.369 . S
C1476 C1478 1.419 . S
C1476 H1480 0.930 . S
C1477 C1476 1.369 . S
C1477 C1486 1.429 . S
C1478 C1476 1.419 . S
C1478 C1479 1.363 . S
C1478 H1481 0.929 . S
C1479 C1478 1.363 . S
C1479 C1485 1.428 . S
H1480 C1476 0.930 . S
H1481 C1478 0.929 . S
S1482 N1483 1.613 . S
S1482 N1484 1.610 . S
N1483 S1482 1.613 . S
N1483 C1486 1.350 . S
N1484 S1482 1.610 . S
N1484 C1485 1.351 . S
C1485 C1479 1.428 . S
C1485 N1484 1.351 . S
C1485 C1486 1.434 . S
C1486 C1477 1.429 . S
C1486 N1483 1.350 . S
C1486 C1485 1.434 . S
C1487 C1488 1.369 . S
C1487 C1489 1.419 . S
C1487 H1491 0.930 . S
C1488 C1487 1.369 . S
C1488 C1497 1.429 . S
C1489 C1487 1.419 . S
C1489 C1490 1.363 . S
C1489 H1492 0.929 . S
C1490 C1489 1.363 . S
C1490 C1496 1.428 . S
H1491 C1487 0.930 . S
H1492 C1489 0.929 . S
S1493 N1494 1.613 . S
S1493 N1495 1.610 . S
N1494 S1493 1.613 . S
N1494 C1497 1.350 . S
N1495 S1493 1.610 . S
N1495 C1496 1.351 . S
C1496 C1490 1.428 . S
C1496 N1495 1.351 . S
C1496 C1497 1.434 . S
C1497 C1488 1.429 . S
C1497 N1494 1.350 . S
C1497 C1496 1.434 . S
C1498 C1499 1.369 . S
C1498 C1500 1.419 . S
C1498 H1502 0.930 . S
C1499 C1498 1.369 . S
C1499 C1508 1.429 . S
C1500 C1498 1.419 . S
C1500 C1501 1.363 . S
C1500 H1503 0.929 . S
C1501 C1500 1.363 . S
C1501 C1507 1.428 . S
H1502 C1498 0.930 . S
H1503 C1500 0.929 . S
S1504 N1505 1.613 . S
S1504 N1506 1.610 . S
N1505 S1504 1.613 . S
N1505 C1508 1.350 . S
N1506 S1504 1.610 . S
N1506 C1507 1.351 . S
C1507 C1501 1.428 . S
C1507 N1506 1.351 . S
C1507 C1508 1.434 . S
C1508 C1499 1.429 . S
C1508 N1505 1.350 . S
C1508 C1507 1.434 . S
C1509 C1510 1.369 . S
C1509 C1511 1.419 . S
C1509 H1513 0.930 . S
C1510 C1509 1.369 . S
C1510 C1519 1.429 . S
C1511 C1509 1.419 . S
C1511 C1512 1.363 . S
C1511 H1514 0.929 . S
C1512 C1511 1.363 . S
C1512 C1518 1.428 . S
H1513 C1509 0.930 . S
H1514 C1511 0.929 . S
S1515 N1516 1.613 . S
S1515 N1517 1.610 . S
N1516 S1515 1.613 . S
N1516 C1519 1.350 . S
N1517 S1515 1.610 . S
N1517 C1518 1.351 . S
C1518 C1512 1.428 . S
C1518 N1517 1.351 . S
C1518 C1519 1.434 . S
C1519 C1510 1.429 . S
C1519 N1516 1.350 . S
C1519 C1518 1.434 . S
C1520 C1521 1.369 . S
C1520 C1522 1.419 . S
C1520 H1524 0.930 . S
C1521 C1520 1.369 . S
C1521 C1530 1.429 . S
C1522 C1520 1.419 . S
C1522 C1523 1.363 . S
C1522 H1525 0.929 . S
C1523 C1522 1.363 . S
C1523 C1529 1.428 . S
H1524 C1520 0.930 . S
H1525 C1522 0.929 . S
S1526 N1527 1.613 . S
S1526 N1528 1.610 . S
N1527 S1526 1.613 . S
N1527 C1530 1.350 . S
N1528 S1526 1.610 . S
N1528 C1529 1.351 . S
C1529 C1523 1.428 . S
C1529 N1528 1.351 . S
C1529 C1530 1.434 . S
C1530 C1521 1.429 . S
C1530 N1527 1.350 . S
C1530 C1529 1.434 . S
C1531 C1532 1.369 . S
C1531 C1533 1.419 1_565 S
C1531 H1535 0.930 . S
C1532 C1531 1.369 . S
C1532 C1541 1.429 . S
C1533 C1531 1.419 1_545 S
C1533 C1534 1.363 . S
C1533 H1536 0.929 . S
C1534 C1533 1.363 . S
C1534 C1540 1.428 1_545 S
H1535 C1531 0.930 . S
H1536 C1533 0.929 . S
S1537 N1538 1.613 . S
S1537 N1539 1.610 . S
N1538 S1537 1.613 . S
N1538 C1541 1.350 . S
N1539 S1537 1.610 . S
N1539 C1540 1.351 . S
C1540 C1534 1.428 1_565 S
C1540 N1539 1.351 . S
C1540 C1541 1.434 . S
C1541 C1532 1.429 . S
C1541 N1538 1.350 . S
C1541 C1540 1.434 . S
C1542 C1543 1.369 . S
C1542 C1544 1.419 . S
C1542 H1546 0.930 . S
C1543 C1542 1.369 . S
C1543 C1552 1.429 . S
C1544 C1542 1.419 . S
C1544 C1545 1.363 . S
C1544 H1547 0.929 . S
C1545 C1544 1.363 . S
C1545 C1551 1.428 . S
H1546 C1542 0.930 . S
H1547 C1544 0.929 . S
S1548 N1549 1.613 . S
S1548 N1550 1.610 1_545 S
N1549 S1548 1.613 . S
N1549 C1552 1.350 1_545 S
N1550 S1548 1.610 1_565 S
N1550 C1551 1.351 . S
C1551 C1545 1.428 . S
C1551 N1550 1.351 . S
C1551 C1552 1.434 . S
C1552 C1543 1.429 . S
C1552 N1549 1.350 1_565 S
C1552 C1551 1.434 . S
C1553 C1554 1.369 . S
C1553 C1555 1.419 . S
C1553 H1557 0.930 . S
C1554 C1553 1.369 . S
C1554 C1563 1.429 . S
C1555 C1553 1.419 . S
C1555 C1556 1.363 . S
C1555 H1558 0.929 . S
C1556 C1555 1.363 . S
C1556 C1562 1.428 . S
H1557 C1553 0.930 . S
H1558 C1555 0.929 . S
S1559 N1560 1.613 . S
S1559 N1561 1.610 . S
N1560 S1559 1.613 . S
N1560 C1563 1.350 1_556 S
N1561 S1559 1.610 . S
N1561 C1562 1.351 1_556 S
C1562 C1556 1.428 . S
C1562 N1561 1.351 1_554 S
C1562 C1563 1.434 . S
C1563 C1554 1.429 . S
C1563 N1560 1.350 1_554 S
C1563 C1562 1.434 . S
C1564 C1565 1.369 . S
C1564 C1566 1.419 . S
C1564 H1568 0.930 . S
C1565 C1564 1.369 . S
C1565 C1574 1.429 . S
C1566 C1564 1.419 . S
C1566 C1567 1.363 . S
C1566 H1569 0.929 . S
C1567 C1566 1.363 . S
C1567 C1573 1.428 . S
H1568 C1564 0.930 . S
H1569 C1566 0.929 . S
S1570 N1571 1.613 . S
S1570 N1572 1.610 . S
N1571 S1570 1.613 . S
N1571 C1574 1.350 . S
N1572 S1570 1.610 . S
N1572 C1573 1.351 . S
C1573 C1567 1.428 . S
C1573 N1572 1.351 . S
C1573 C1574 1.434 . S
C1574 C1565 1.429 . S
C1574 N1571 1.350 . S
C1574 C1573 1.434 . S
C1575 C1576 1.369 . S
C1575 C1577 1.419 . S
C1575 H1579 0.930 . S
C1576 C1575 1.369 . S
C1576 C1585 1.429 . S
C1577 C1575 1.419 . S
C1577 C1578 1.363 . S
C1577 H1580 0.929 1_554 S
C1578 C1577 1.363 . S
C1578 C1584 1.428 . S
H1579 C1575 0.930 . S
H1580 C1577 0.929 1_556 S
S1581 N1582 1.613 . S
S1581 N1583 1.610 . S
N1582 S1581 1.613 . S
N1582 C1585 1.350 . S
N1583 S1581 1.610 . S
N1583 C1584 1.351 . S
C1584 C1578 1.428 . S
C1584 N1583 1.351 . S
C1584 C1585 1.434 . S
C1585 C1576 1.429 . S
C1585 N1582 1.350 . S
C1585 C1584 1.434 . S
C1586 C1587 1.369 . S
C1586 C1588 1.419 . S
C1586 H1590 0.930 . S
C1587 C1586 1.369 . S
C1587 C1596 1.429 . S
C1588 C1586 1.419 . S
C1588 C1589 1.363 . S
C1588 H1591 0.929 . S
C1589 C1588 1.363 . S
C1589 C1595 1.428 . S
H1590 C1586 0.930 . S
H1591 C1588 0.929 . S
S1592 N1593 1.613 . S
S1592 N1594 1.610 . S
N1593 S1592 1.613 . S
N1593 C1596 1.350 . S
N1594 S1592 1.610 . S
N1594 C1595 1.351 . S
C1595 C1589 1.428 . S
C1595 N1594 1.351 . S
C1595 C1596 1.434 . S
C1596 C1587 1.429 . S
C1596 N1593 1.350 . S
C1596 C1595 1.434 . S
C1597 C1598 1.369 . S
C1597 C1599 1.419 . S
C1597 H1601 0.930 . S
C1598 C1597 1.369 . S
C1598 C1607 1.429 . S
C1599 C1597 1.419 . S
C1599 C1600 1.363 . S
C1599 H1602 0.929 . S
C1600 C1599 1.363 . S
C1600 C1606 1.428 . S
H1601 C1597 0.930 . S
H1602 C1599 0.929 . S
S1603 N1604 1.613 . S
S1603 N1605 1.610 . S
N1604 S1603 1.613 . S
N1604 C1607 1.350 . S
N1605 S1603 1.610 . S
N1605 C1606 1.351 . S
C1606 C1600 1.428 . S
C1606 N1605 1.351 . S
C1606 C1607 1.434 . S
C1607 C1598 1.429 . S
C1607 N1604 1.350 . S
C1607 C1606 1.434 . S
C1608 C1609 1.369 . S
C1608 C1610 1.419 . S
C1608 H1612 0.930 . S
C1609 C1608 1.369 . S
C1609 C1618 1.429 . S
C1610 C1608 1.419 . S
C1610 C1611 1.363 . S
C1610 H1613 0.929 . S
C1611 C1610 1.363 . S
C1611 C1617 1.428 . S
H1612 C1608 0.930 . S
H1613 C1610 0.929 . S
S1614 N1615 1.613 . S
S1614 N1616 1.610 . S
N1615 S1614 1.613 . S
N1615 C1618 1.350 . S
N1616 S1614 1.610 . S
N1616 C1617 1.351 . S
C1617 C1611 1.428 . S
C1617 N1616 1.351 . S
C1617 C1618 1.434 . S
C1618 C1609 1.429 . S
C1618 N1615 1.350 . S
C1618 C1617 1.434 . S
C1619 C1620 1.369 . S
C1619 C1621 1.419 . S
C1619 H1623 0.930 . S
C1620 C1619 1.369 . S
C1620 C1629 1.429 . S
C1621 C1619 1.419 . S
C1621 C1622 1.363 . S
C1621 H1624 0.929 . S
C1622 C1621 1.363 . S
C1622 C1628 1.428 . S
H1623 C1619 0.930 . S
H1624 C1621 0.929 . S
S1625 N1626 1.613 . S
S1625 N1627 1.610 . S
N1626 S1625 1.613 . S
N1626 C1629 1.350 . S
N1627 S1625 1.610 . S
N1627 C1628 1.351 . S
C1628 C1622 1.428 . S
C1628 N1627 1.351 . S
C1628 C1629 1.434 . S
C1629 C1620 1.429 . S
C1629 N1626 1.350 . S
C1629 C1628 1.434 . S
C1630 C1631 1.367 1_554 S
C1630 C1632 1.419 . S
C1630 H1634 0.932 . S
C1631 C1630 1.367 1_556 S
C1631 C1640 1.429 . S
C1632 C1630 1.419 . S
C1632 C1633 1.363 1_554 S
C1632 H1635 0.929 . S
C1633 C1632 1.363 1_556 S
C1633 C1639 1.428 . S
H1634 C1630 0.932 . S
H1635 C1632 0.929 . S
S1636 N1637 1.613 1_655 S
S1636 N1638 1.610 1_655 S
N1637 S1636 1.613 1_455 S
N1637 C1640 1.350 . S
N1638 S1636 1.610 1_455 S
N1638 C1639 1.351 . S
C1639 C1633 1.428 . S
C1639 N1638 1.351 . S
C1639 C1640 1.434 . S
C1640 C1631 1.429 . S
C1640 N1637 1.350 . S
C1640 C1639 1.434 . S
C1641 C1642 1.369 . S
C1641 C1643 1.419 . S
C1641 H1645 0.930 . S
C1642 C1641 1.369 . S
C1642 C1651 1.429 . S
C1643 C1641 1.419 . S
C1643 C1644 1.363 . S
C1643 H1646 0.929 . S
C1644 C1643 1.363 . S
C1644 C1650 1.428 . S
H1645 C1641 0.930 . S
H1646 C1643 0.929 . S
S1647 N1648 1.613 . S
S1647 N1649 1.610 . S
N1648 S1647 1.613 . S
N1648 C1651 1.350 . S
N1649 S1647 1.610 . S
N1649 C1650 1.351 . S
C1650 C1644 1.428 . S
C1650 N1649 1.351 . S
C1650 C1651 1.434 . S
C1651 C1642 1.429 . S
C1651 N1648 1.350 . S
C1651 C1650 1.434 . S
C1652 C1653 1.369 . S
C1652 C1654 1.419 . S
C1652 H1656 0.930 . S
C1653 C1652 1.369 . S
C1653 C1662 1.429 . S
C1654 C1652 1.419 . S
C1654 C1655 1.363 . S
C1654 H1657 0.929 . S
C1655 C1654 1.363 . S
C1655 C1661 1.428 . S
H1656 C1652 0.930 . S
H1657 C1654 0.929 . S
S1658 N1659 1.613 . S
S1658 N1660 1.610 . S
N1659 S1658 1.613 . S
N1659 C1662 1.350 . S
N1660 S1658 1.610 . S
N1660 C1661 1.351 . S
C1661 C1655 1.428 . S
C1661 N1660 1.351 . S
C1661 C1662 1.434 . S
C1662 C1653 1.429 . S
C1662 N1659 1.350 . S
C1662 C1661 1.434 . S
C1663 C1664 1.369 . S
C1663 C1665 1.419 . S
C1663 H1667 0.930 . S
C1664 C1663 1.369 . S
C1664 C1673 1.429 . S
C1665 C1663 1.419 . S
C1665 C1666 1.363 . S
C1665 H1668 0.929 . S
C1666 C1665 1.363 . S
C1666 C1672 1.428 . S
H1667 C1663 0.930 . S
H1668 C1665 0.929 . S
S1669 N1670 1.613 . S
S1669 N1671 1.610 . S
N1670 S1669 1.613 . S
N1670 C1673 1.350 . S
N1671 S1669 1.610 . S
N1671 C1672 1.351 . S
C1672 C1666 1.428 . S
C1672 N1671 1.351 . S
C1672 C1673 1.434 . S
C1673 C1664 1.429 . S
C1673 N1670 1.350 . S
C1673 C1672 1.434 . S
C1674 C1675 1.369 . S
C1674 C1676 1.419 . S
C1674 H1678 0.930 . S
C1675 C1674 1.369 . S
C1675 C1684 1.429 1_655 S
C1676 C1674 1.419 . S
C1676 C1677 1.363 1_655 S
C1676 H1679 0.929 . S
C1677 C1676 1.363 1_455 S
C1677 C1683 1.428 . S
H1678 C1674 0.930 . S
H1679 C1676 0.929 . S
S1680 N1681 1.613 . S
S1680 N1682 1.610 . S
N1681 S1680 1.613 . S
N1681 C1684 1.350 . S
N1682 S1680 1.610 . S
N1682 C1683 1.351 . S
C1683 C1677 1.428 . S
C1683 N1682 1.351 . S
C1683 C1684 1.434 . S
C1684 C1675 1.429 1_455 S
C1684 N1681 1.350 . S
C1684 C1683 1.434 . S
C1685 C1686 1.369 . S
C1685 C1687 1.419 . S
C1685 H1689 0.930 . S
C1686 C1685 1.369 . S
C1686 C1695 1.429 . S
C1687 C1685 1.419 . S
C1687 C1688 1.363 . S
C1687 H1690 0.929 . S
C1688 C1687 1.363 . S
C1688 C1694 1.428 . S
H1689 C1685 0.930 . S
H1690 C1687 0.929 . S
S1691 N1692 1.613 . S
S1691 N1693 1.610 . S
N1692 S1691 1.613 . S
N1692 C1695 1.350 . S
N1693 S1691 1.610 . S
N1693 C1694 1.351 . S
C1694 C1688 1.428 . S
C1694 N1693 1.351 . S
C1694 C1695 1.434 . S
C1695 C1686 1.429 . S
C1695 N1692 1.350 . S
C1695 C1694 1.434 . S
C1696 C1697 1.369 . S
C1696 C1698 1.419 . S
C1696 H1700 0.930 . S
C1697 C1696 1.369 . S
C1697 C1706 1.429 . S
C1698 C1696 1.419 . S
C1698 C1699 1.363 . S
C1698 H1701 0.929 . S
C1699 C1698 1.363 . S
C1699 C1705 1.428 . S
H1700 C1696 0.930 . S
H1701 C1698 0.929 . S
S1702 N1703 1.613 . S
S1702 N1704 1.610 . S
N1703 S1702 1.613 . S
N1703 C1706 1.350 . S
N1704 S1702 1.610 . S
N1704 C1705 1.351 . S
C1705 C1699 1.428 . S
C1705 N1704 1.351 . S
C1705 C1706 1.434 . S
C1706 C1697 1.429 . S
C1706 N1703 1.350 . S
C1706 C1705 1.434 . S
C1707 C1708 1.369 . S
C1707 C1709 1.419 . S
C1707 H1711 0.930 . S
C1708 C1707 1.369 . S
C1708 C1717 1.429 . S
C1709 C1707 1.419 . S
C1709 C1710 1.363 . S
C1709 H1712 0.929 . S
C1710 C1709 1.363 . S
C1710 C1716 1.428 . S
H1711 C1707 0.930 . S
H1712 C1709 0.929 . S
S1713 N1714 1.613 . S
S1713 N1715 1.610 . S
N1714 S1713 1.613 . S
N1714 C1717 1.350 . S
N1715 S1713 1.610 . S
N1715 C1716 1.351 . S
C1716 C1710 1.428 . S
C1716 N1715 1.351 . S
C1716 C1717 1.434 . S
C1717 C1708 1.429 . S
C1717 N1714 1.350 . S
C1717 C1716 1.434 . S
C1718 C1719 1.369 . S
C1718 C1720 1.419 . S
C1718 H1722 0.930 . S
C1719 C1718 1.369 . S
C1719 C1728 1.429 . S
C1720 C1718 1.419 . S
C1720 C1721 1.363 . S
C1720 H1723 0.929 . S
C1721 C1720 1.363 . S
C1721 C1727 1.428 . S
H1722 C1718 0.930 . S
H1723 C1720 0.929 . S
S1724 N1725 1.613 . S
S1724 N1726 1.610 . S
N1725 S1724 1.613 . S
N1725 C1728 1.350 . S
N1726 S1724 1.610 . S
N1726 C1727 1.351 . S
C1727 C1721 1.428 . S
C1727 N1726 1.351 . S
C1727 C1728 1.434 . S
C1728 C1719 1.429 . S
C1728 N1725 1.350 . S
C1728 C1727 1.434 . S
C1729 C1730 1.369 . S
C1729 C1731 1.419 . S
C1729 H1733 0.930 . S
C1730 C1729 1.369 . S
C1730 C1739 1.429 . S
C1731 C1729 1.419 . S
C1731 C1732 1.363 . S
C1731 H1734 0.929 . S
C1732 C1731 1.363 . S
C1732 C1738 1.428 . S
H1733 C1729 0.930 . S
H1734 C1731 0.929 . S
S1735 N1736 1.613 . S
S1735 N1737 1.610 . S
N1736 S1735 1.613 . S
N1736 C1739 1.350 . S
N1737 S1735 1.610 . S
N1737 C1738 1.351 . S
C1738 C1732 1.428 . S
C1738 N1737 1.351 . S
C1738 C1739 1.434 . S
C1739 C1730 1.429 . S
C1739 N1736 1.350 . S
C1739 C1738 1.434 . S
C1740 C1741 1.369 . S
C1740 C1742 1.419 . S
C1740 H1744 0.930 . S
C1741 C1740 1.369 . S
C1741 C1750 1.429 . S
C1742 C1740 1.419 . S
C1742 C1743 1.363 . S
C1742 H1745 0.929 . S
C1743 C1742 1.363 . S
C1743 C1749 1.428 . S
H1744 C1740 0.930 . S
H1745 C1742 0.929 . S
S1746 N1747 1.613 . S
S1746 N1748 1.610 . S
N1747 S1746 1.613 . S
N1747 C1750 1.350 . S
N1748 S1746 1.610 . S
N1748 C1749 1.351 . S
C1749 C1743 1.428 . S
C1749 N1748 1.351 . S
C1749 C1750 1.434 . S
C1750 C1741 1.429 . S
C1750 N1747 1.350 . S
C1750 C1749 1.434 . S
C1751 C1752 1.369 . S
C1751 C1753 1.419 . S
C1751 H1755 0.930 . S
C1752 C1751 1.369 . S
C1752 C1761 1.429 . S
C1753 C1751 1.419 . S
C1753 C1754 1.363 . S
C1753 H1756 0.929 . S
C1754 C1753 1.363 . S
C1754 C1760 1.428 . S
H1755 C1751 0.930 . S
H1756 C1753 0.929 . S
S1757 N1758 1.613 . S
S1757 N1759 1.610 . S
N1758 S1757 1.613 . S
N1758 C1761 1.350 . S
N1759 S1757 1.610 . S
N1759 C1760 1.351 . S
C1760 C1754 1.428 . S
C1760 N1759 1.351 . S
C1760 C1761 1.434 . S
C1761 C1752 1.429 . S
C1761 N1758 1.350 . S
C1761 C1760 1.434 . S
C1762 C1763 1.369 . S
C1762 C1764 1.419 . S
C1762 H1766 0.930 . S
C1763 C1762 1.369 . S
C1763 C1772 1.429 . S
C1764 C1762 1.419 . S
C1764 C1765 1.363 . S
C1764 H1767 0.929 . S
C1765 C1764 1.363 . S
C1765 C1771 1.428 . S
H1766 C1762 0.930 . S
H1767 C1764 0.929 . S
S1768 N1769 1.613 . S
S1768 N1770 1.610 . S
N1769 S1768 1.613 . S
N1769 C1772 1.350 . S
N1770 S1768 1.610 . S
N1770 C1771 1.351 . S
C1771 C1765 1.428 . S
C1771 N1770 1.351 . S
C1771 C1772 1.434 . S
C1772 C1763 1.429 . S
C1772 N1769 1.350 . S
C1772 C1771 1.434 . S
C1773 C1774 1.369 . S
C1773 C1775 1.419 . S
C1773 H1777 0.930 . S
C1774 C1773 1.369 . S
C1774 C1783 1.429 . S
C1775 C1773 1.419 . S
C1775 C1776 1.363 . S
C1775 H1778 0.929 . S
C1776 C1775 1.363 . S
C1776 C1782 1.428 . S
H1777 C1773 0.930 . S
H1778 C1775 0.929 . S
S1779 N1780 1.613 . S
S1779 N1781 1.610 . S
N1780 S1779 1.613 . S
N1780 C1783 1.350 . S
N1781 S1779 1.610 . S
N1781 C1782 1.351 . S
C1782 C1776 1.428 . S
C1782 N1781 1.351 . S
C1782 C1783 1.434 . S
C1783 C1774 1.429 . S
C1783 N1780 1.350 . S
C1783 C1782 1.434 . S
C1784 C1785 1.369 . S
C1784 C1786 1.419 . S
C1784 H1788 0.930 . S
C1785 C1784 1.369 . S
C1785 C1794 1.429 . S
C1786 C1784 1.419 . S
C1786 C1787 1.363 . S
C1786 H1789 0.929 . S
C1787 C1786 1.363 . S
C1787 C1793 1.428 . S
H1788 C1784 0.930 . S
H1789 C1786 0.929 . S
S1790 N1791 1.613 . S
S1790 N1792 1.610 . S
N1791 S1790 1.613 . S
N1791 C1794 1.350 . S
N1792 S1790 1.610 . S
N1792 C1793 1.351 . S
C1793 C1787 1.428 . S
C1793 N1792 1.351 . S
C1793 C1794 1.434 . S
C1794 C1785 1.429 . S
C1794 N1791 1.350 . S
C1794 C1793 1.434 . S
C1795 C1796 1.369 . S
C1795 C1797 1.419 . S
C1795 H1799 0.930 . S
C1796 C1795 1.369 . S
C1796 C1805 1.429 . S
C1797 C1795 1.419 . S
C1797 C1798 1.363 . S
C1797 H1800 0.929 . S
C1798 C1797 1.363 . S
C1798 C1804 1.428 . S
H1799 C1795 0.930 . S
H1800 C1797 0.929 . S
S1801 N1802 1.613 . S
S1801 N1803 1.610 . S
N1802 S1801 1.613 . S
N1802 C1805 1.350 . S
N1803 S1801 1.610 . S
N1803 C1804 1.351 . S
C1804 C1798 1.428 . S
C1804 N1803 1.351 . S
C1804 C1805 1.434 . S
C1805 C1796 1.429 . S
C1805 N1802 1.350 . S
C1805 C1804 1.434 . S
C1806 C1807 1.369 . S
C1806 C1808 1.419 . S
C1806 H1810 0.930 . S
C1807 C1806 1.369 . S
C1807 C1816 1.429 . S
C1808 C1806 1.419 . S
C1808 C1809 1.363 . S
C1808 H1811 0.929 . S
C1809 C1808 1.363 . S
C1809 C1815 1.428 . S
H1810 C1806 0.930 . S
H1811 C1808 0.929 . S
S1812 N1813 1.613 . S
S1812 N1814 1.610 . S
N1813 S1812 1.613 . S
N1813 C1816 1.350 . S
N1814 S1812 1.610 . S
N1814 C1815 1.351 . S
C1815 C1809 1.428 . S
C1815 N1814 1.351 . S
C1815 C1816 1.434 . S
C1816 C1807 1.429 . S
C1816 N1813 1.350 . S
C1816 C1815 1.434 . S
C1817 C1818 1.369 . S
C1817 C1819 1.419 . S
C1817 H1821 0.930 . S
C1818 C1817 1.369 . S
C1818 C1827 1.429 1_565 S
C1819 C1817 1.419 . S
C1819 C1820 1.363 . S
C1819 H1822 0.929 . S
C1820 C1819 1.363 . S
C1820 C1826 1.428 1_565 S
H1821 C1817 0.930 . S
H1822 C1819 0.929 . S
S1823 N1824 1.613 . S
S1823 N1825 1.610 . S
N1824 S1823 1.613 . S
N1824 C1827 1.350 . S
N1825 S1823 1.610 . S
N1825 C1826 1.351 . S
C1826 C1820 1.428 1_545 S
C1826 N1825 1.351 . S
C1826 C1827 1.434 . S
C1827 C1818 1.429 1_545 S
C1827 N1824 1.350 . S
C1827 C1826 1.434 . S
C1828 C1829 1.369 . S
C1828 C1830 1.419 . S
C1828 H1832 0.930 . S
C1829 C1828 1.369 . S
C1829 C1838 1.429 . S
C1830 C1828 1.419 . S
C1830 C1831 1.363 . S
C1830 H1833 0.929 . S
C1831 C1830 1.363 . S
C1831 C1837 1.428 . S
H1832 C1828 0.930 . S
H1833 C1830 0.929 . S
S1834 N1835 1.613 . S
S1834 N1836 1.610 . S
N1835 S1834 1.613 . S
N1835 C1838 1.350 . S
N1836 S1834 1.610 . S
N1836 C1837 1.351 . S
C1837 C1831 1.428 . S
C1837 N1836 1.351 . S
C1837 C1838 1.434 . S
C1838 C1829 1.429 . S
C1838 N1835 1.350 . S
C1838 C1837 1.434 . S
C1839 C1840 1.369 . S
C1839 C1841 1.419 . S
C1839 H1843 0.930 . S
C1840 C1839 1.369 . S
C1840 C1849 1.429 . S
C1841 C1839 1.419 . S
C1841 C1842 1.363 . S
C1841 H1844 0.929 . S
C1842 C1841 1.363 . S
C1842 C1848 1.428 . S
H1843 C1839 0.930 . S
H1844 C1841 0.929 . S
S1845 N1846 1.613 . S
S1845 N1847 1.610 1_556 S
N1846 S1845 1.613 . S
N1846 C1849 1.350 1_556 S
N1847 S1845 1.610 1_554 S
N1847 C1848 1.351 . S
C1848 C1842 1.428 . S
C1848 N1847 1.351 . S
C1848 C1849 1.434 . S
C1849 C1840 1.429 . S
C1849 N1846 1.350 1_554 S
C1849 C1848 1.434 . S
C1850 C1851 1.369 . S
C1850 C1852 1.419 . S
C1850 H1854 0.930 . S
C1851 C1850 1.369 . S
C1851 C1860 1.429 . S
C1852 C1850 1.419 . S
C1852 C1853 1.363 . S
C1852 H1855 0.929 . S
C1853 C1852 1.363 . S
C1853 C1859 1.428 . S
H1854 C1850 0.930 . S
H1855 C1852 0.929 . S
S1856 N1857 1.613 . S
S1856 N1858 1.610 . S
N1857 S1856 1.613 . S
N1857 C1860 1.350 . S
N1858 S1856 1.610 . S
N1858 C1859 1.351 . S
C1859 C1853 1.428 . S
C1859 N1858 1.351 . S
C1859 C1860 1.434 . S
C1860 C1851 1.429 . S
C1860 N1857 1.350 . S
C1860 C1859 1.434 . S
C1861 C1862 1.369 . S
C1861 C1863 1.419 . S
C1861 H1865 0.930 . S
C1862 C1861 1.369 . S
C1862 C1871 1.429 . S
C1863 C1861 1.419 . S
C1863 C1864 1.363 . S
C1863 H1866 0.929 . S
C1864 C1863 1.363 . S
C1864 C1870 1.428 . S
H1865 C1861 0.930 . S
H1866 C1863 0.929 . S
S1867 N1868 1.613 . S
S1867 N1869 1.610 . S
N1868 S1867 1.613 . S
N1868 C1871 1.350 . S
N1869 S1867 1.610 . S
N1869 C1870 1.351 . S
C1870 C1864 1.428 . S
C1870 N1869 1.351 . S
C1870 C1871 1.434 . S
C1871 C1862 1.429 . S
C1871 N1868 1.350 . S
C1871 C1870 1.434 . S
C819 C337 1.827 . S
C817 C4 1.793 . S
C828 C19 0.896 . S
C830 C382 0.977 . S
C839 C39 1.674 . S
C841 C406 1.637 . S
C852 N432 1.174 . S
C850 C54 1.153 . S
C861 C18 1.133 . S
C863 N462 1.255 . S
C874 C496 1.620 . S
C872 C40 1.653 . S
C885 C532 1.123 1_556 S
C883 C53 1.101 . S
C894 C5 1.440 . S
C896 C556 1.756 . S
C905 C61 0.862 1_545 S
C907 N350 0.983 1_545 S
C916 C74 1.182 . S
C918 N372 1.300 . S
C929 C412 0.926 . S
C927 C89 0.855 . S
C940 C436 1.772 . S
C938 C109 1.812 . S
C949 C68 1.187 . S
C951 C466 1.135 . S
C962 C502 1.170 . S
C960 C81 1.146 . S
C973 N522 1.189 . S
C971 C96 1.174 . S
C984 C562 1.860 . S
C982 C102 1.820 . S
C995 C363 1.685 . S
C993 C103 1.347 . S
C1006 C592 1.027 . S
C1004 C117 0.907 . S
C1015 C130 1.156 . S
C1017 N612 1.268 . S
C1028 C646 1.615 . S
C1026 C152 1.648 . S
C1037 C60 1.042 . S
C1039 N552 1.065 . S
C1050 N402 1.164 . S
C1048 C82 1.154 . S
C1059 C137 1.010 . S
C1061 C682 1.015 . S
C1072 C706 1.064 . S
C1070 C165 1.110 . S
C1081 C172 1.875 . S
C1083 C346 1.850 1_556 S
C1094 C723 1.017 . S
C1092 C194 1.029 . S
C1103 C207 1.662 . S
C1105 C397 1.651 . S
C1114 C215 1.101 . S
C1116 N680 1.159 . S
C1127 N470 1.297 . S
C1125 C186 1.300 1_455 S
C1138 C607 1.620 . S
C1136 C201 1.472 . S
C1149 C543 1.131 . S
C1147 C221 1.136 . S
C1160 C727 1.781 . S
C1158 C180 1.823 . S
C1171 N342 1.028 . S
C1169 C236 1.026 . S
C1180 C242 1.335 . S
C1182 N710 1.327 . S
C1193 C423 1.034 . S
C1191 C264 1.042 . S
C1202 C277 1.832 . S
C1204 C667 1.824 . S
C1213 C229 1.036 . S
C1215 C457 1.079 1_655 S
C1224 C249 1.152 . S
C1226 C633 1.150 . S
C1237 N530 1.187 . S
C1235 C257 1.125 1_545 S
C1246 C270 1.885 . S
C1248 C753 1.860 . S
C1257 C278 1.714 . S
C1259 C352 1.698 . S
C1268 C292 1.071 . S
C1270 C603 1.062 . S
C1279 C298 1.361 . S
C1281 N500 1.350 . S
C1290 C313 1.508 . S
C1292 C637 1.655 . S
C1303 N740 1.072 . S
C1301 C228 1.051 1_565 S
C1314 N410 1.112 . S
C1312 C243 1.053 . S
C1325 C453 1.037 . S
C1323 C305 1.041 . S
C1336 C367 0.997 . S
C1334 C333 1.006 . S
C1345 C32 1.785 . S
C1347 C757 1.831 . S
C1358 C712 0.977 . S
C1356 C47 0.886 . S
C1369 C796 1.637 . S
C1367 C11 1.674 . S
C1378 C26 1.154 1_655 S
C1380 N672 1.175 . S
C1389 C46 1.143 . S
C1391 N582 1.254 . S
C1402 C616 1.620 . S
C1400 C12 1.654 . S
C1413 C652 1.122 . S
C1411 C25 1.100 . S
C1424 C736 1.756 . S
C1422 C33 1.440 . S
C1435 N770 0.984 . S
C1433 C159 0.835 . S
C1444 C116 1.178 1_556 S
C1446 N702 1.302 . S
C1455 C131 0.850 . S
C1457 C802 0.926 1_655 S
C1468 C676 1.775 . S
C1466 C151 1.813 . S
C1479 C586 1.145 . S
C1477 C166 1.180 . S
C1488 C123 1.137 . S
C1490 C622 1.169 . S
C1501 N642 1.187 . S
C1499 C138 1.177 . S
C1510 C144 1.816 . S
C1512 C742 1.863 . S
C1523 C783 1.687 . S
C1521 C145 1.341 . S
C1534 C472 1.022 . S
C1532 C75 0.930 . S
C1545 N492 1.268 . S
C1543 C88 1.154 1_565 S
C1554 C110 1.650 . S
C1556 C526 1.612 . S
C1567 N732 1.066 . S
C1565 C158 1.041 . S
C1576 C124 1.155 . S
C1578 N792 1.163 . S
C1589 C442 1.012 . S
C1587 C95 1.003 . S
C1600 C376 1.063 . S
C1598 C67 1.111 . S
C1609 C200 1.875 . S
C1611 C766 1.851 . S
C1622 C393 1.020 . S
C1620 C222 1.027 . S
C1633 C787 1.654 1_556 S
C1631 C179 1.658 . S
C1642 C187 1.102 . S
C1644 N440 1.156 . S
C1653 C214 1.302 . S
C1655 N590 1.298 . S
C1664 C173 1.459 . S
C1666 C487 1.615 . S
C1675 C193 1.136 . S
C1677 C663 1.132 . S
C1686 C208 1.821 . S
C1688 C547 1.781 . S
C1699 N762 1.028 . S
C1697 C334 1.020 . S
C1708 C284 1.333 . S
C1710 N380 1.321 . S
C1721 C813 1.033 . S
C1719 C306 1.043 . S
C1730 C319 1.831 . S
C1732 C427 1.825 . S
C1741 C327 1.032 . S
C1743 C577 1.079 . S
C1754 C513 1.152 . S
C1752 C291 1.155 . S
C1763 C299 1.116 . S
C1765 N650 1.186 . S
C1776 C573 1.860 . S
C1774 C312 1.885 . S
C1787 C772 1.694 . S
C1785 C320 1.714 . S
C1798 C483 1.060 . S
C1796 C250 1.069 . S
C1807 C256 1.361 . S
C1809 N620 1.352 . S
C1820 C517 1.650 1_565 S
C1818 C271 1.494 . S
C1831 N560 1.073 . S
C1829 C326 1.070 . S
C1840 C285 1.061 1_554 S
C1842 N800 1.113 . S
C1853 C693 1.040 . S
C1851 C263 1.039 . S
C1864 C697 1.004 . S
C1862 C235 0.998 . S
