# Generated by pormake.
# Topology ocu, (6,8)-cn, num edge types: 1
# Building blocks:
#     Node 0, Type 0, BuildingBlock: KUMJIN_clean_sbu_0, # of connection points: 6
#     Node 1, Type 0, BuildingBlock: KUMJIN_clean_sbu_0, # of connection points: 6
#     Node 2, Type 0, BuildingBlock: KUMJIN_clean_sbu_0, # of connection points: 6
#     Node 3, Type 0, BuildingBlock: KUMJIN_clean_sbu_0, # of connection points: 6
#     Node 4, Type 0, BuildingBlock: KUMJIN_clean_sbu_0, # of connection points: 6
#     Node 5, Type 0, BuildingBlock: KUMJIN_clean_sbu_0, # of connection points: 6
#     Node 6, Type 0, BuildingBlock: KUMJIN_clean_sbu_0, # of connection points: 6
#     Node 7, Type 0, BuildingBlock: KUMJIN_clean_sbu_0, # of connection points: 6
#     Node 8, Type 1, BuildingBlock: AJUNOK_clean_sbu_0, # of connection points: 8
#     Node 9, Type 1, BuildingBlock: AJUNOK_clean_sbu_0, # of connection points: 8
#     Node 10, Type 1, BuildingBlock: AJUNOK_clean_sbu_0, # of connection points: 8
#     Node 11, Type 1, BuildingBlock: AJUNOK_clean_sbu_0, # of connection points: 8
#     Node 12, Type 1, BuildingBlock: AJUNOK_clean_sbu_0, # of connection points: 8
#     Node 13, Type 1, BuildingBlock: AJUNOK_clean_sbu_0, # of connection points: 8
#     Edge 14, Type (0, 1), BuildingBlock: CIFDUS_clean_linker_0, # of connection points: 2
#     Edge 15, Type (0, 1), BuildingBlock: CIFDUS_clean_linker_0, # of connection points: 2
#     Edge 16, Type (0, 1), BuildingBlock: CIFDUS_clean_linker_0, # of connection points: 2
#     Edge 17, Type (0, 1), BuildingBlock: CIFDUS_clean_linker_0, # of connection points: 2
#     Edge 18, Type (0, 1), BuildingBlock: CIFDUS_clean_linker_0, # of connection points: 2
#     Edge 19, Type (0, 1), BuildingBlock: CIFDUS_clean_linker_0, # of connection points: 2
#     Edge 20, Type (0, 1), BuildingBlock: CIFDUS_clean_linker_0, # of connection points: 2
#     Edge 21, Type (0, 1), BuildingBlock: CIFDUS_clean_linker_0, # of connection points: 2
#     Edge 22, Type (0, 1), BuildingBlock: CIFDUS_clean_linker_0, # of connection points: 2
#     Edge 23, Type (0, 1), BuildingBlock: CIFDUS_clean_linker_0, # of connection points: 2
#     Edge 24, Type (0, 1), BuildingBlock: CIFDUS_clean_linker_0, # of connection points: 2
#     Edge 25, Type (0, 1), BuildingBlock: CIFDUS_clean_linker_0, # of connection points: 2
#     Edge 26, Type (0, 1), BuildingBlock: CIFDUS_clean_linker_0, # of connection points: 2
#     Edge 27, Type (0, 1), BuildingBlock: CIFDUS_clean_linker_0, # of connection points: 2
#     Edge 28, Type (0, 1), BuildingBlock: CIFDUS_clean_linker_0, # of connection points: 2
#     Edge 29, Type (0, 1), BuildingBlock: CIFDUS_clean_linker_0, # of connection points: 2
#     Edge 30, Type (0, 1), BuildingBlock: CIFDUS_clean_linker_0, # of connection points: 2
#     Edge 31, Type (0, 1), BuildingBlock: CIFDUS_clean_linker_0, # of connection points: 2
#     Edge 32, Type (0, 1), BuildingBlock: CIFDUS_clean_linker_0, # of connection points: 2
#     Edge 33, Type (0, 1), BuildingBlock: CIFDUS_clean_linker_0, # of connection points: 2
#     Edge 34, Type (0, 1), BuildingBlock: CIFDUS_clean_linker_0, # of connection points: 2
#     Edge 35, Type (0, 1), BuildingBlock: CIFDUS_clean_linker_0, # of connection points: 2
#     Edge 36, Type (0, 1), BuildingBlock: CIFDUS_clean_linker_0, # of connection points: 2
#     Edge 37, Type (0, 1), BuildingBlock: CIFDUS_clean_linker_0, # of connection points: 2
#     Edge 38, Type (0, 1), BuildingBlock: CIFDUS_clean_linker_0, # of connection points: 2
#     Edge 39, Type (0, 1), BuildingBlock: CIFDUS_clean_linker_0, # of connection points: 2
#     Edge 40, Type (0, 1), BuildingBlock: CIFDUS_clean_linker_0, # of connection points: 2
#     Edge 41, Type (0, 1), BuildingBlock: CIFDUS_clean_linker_0, # of connection points: 2
#     Edge 42, Type (0, 1), BuildingBlock: CIFDUS_clean_linker_0, # of connection points: 2
#     Edge 43, Type (0, 1), BuildingBlock: CIFDUS_clean_linker_0, # of connection points: 2
#     Edge 44, Type (0, 1), BuildingBlock: CIFDUS_clean_linker_0, # of connection points: 2
#     Edge 45, Type (0, 1), BuildingBlock: CIFDUS_clean_linker_0, # of connection points: 2
#     Edge 46, Type (0, 1), BuildingBlock: CIFDUS_clean_linker_0, # of connection points: 2
#     Edge 47, Type (0, 1), BuildingBlock: CIFDUS_clean_linker_0, # of connection points: 2
#     Edge 48, Type (0, 1), BuildingBlock: CIFDUS_clean_linker_0, # of connection points: 2
#     Edge 49, Type (0, 1), BuildingBlock: CIFDUS_clean_linker_0, # of connection points: 2
#     Edge 50, Type (0, 1), BuildingBlock: CIFDUS_clean_linker_0, # of connection points: 2
#     Edge 51, Type (0, 1), BuildingBlock: CIFDUS_clean_linker_0, # of connection points: 2
#     Edge 52, Type (0, 1), BuildingBlock: CIFDUS_clean_linker_0, # of connection points: 2
#     Edge 53, Type (0, 1), BuildingBlock: CIFDUS_clean_linker_0, # of connection points: 2
#     Edge 54, Type (0, 1), BuildingBlock: CIFDUS_clean_linker_0, # of connection points: 2
#     Edge 55, Type (0, 1), BuildingBlock: CIFDUS_clean_linker_0, # of connection points: 2
#     Edge 56, Type (0, 1), BuildingBlock: CIFDUS_clean_linker_0, # of connection points: 2
#     Edge 57, Type (0, 1), BuildingBlock: CIFDUS_clean_linker_0, # of connection points: 2
#     Edge 58, Type (0, 1), BuildingBlock: CIFDUS_clean_linker_0, # of connection points: 2
#     Edge 59, Type (0, 1), BuildingBlock: CIFDUS_clean_linker_0, # of connection points: 2
#     Edge 60, Type (0, 1), BuildingBlock: CIFDUS_clean_linker_0, # of connection points: 2
#     Edge 61, Type (0, 1), BuildingBlock: CIFDUS_clean_linker_0, # of connection points: 2
# Relax obj value: 0.163
# Max RMSD: 0.265
# Mean RMSD: 0.201
data_MOF--net-ocu--node1-KUMJIN_clean_sbu_0--node2-AJUNOK_clean_sbu_0--edge1-CIFDUS_clean_linker_0
_symmetry_space_group_name_H-M    P1
_symmetry_Int_Tables_number       1
_symmetry_cell_setting            triclinic
loop_
_symmetry_equiv_pos_as_xyz
'x, y, z'
_cell_length_a     39.776285
_cell_length_b     39.044188
_cell_length_c     35.620314
_cell_angle_alpha  85.840015
_cell_angle_beta   106.24352
_cell_angle_gamma 116.13511
loop_
_atom_site_label
_atom_site_type_symbol
_atom_site_fract_x
_atom_site_fract_y
_atom_site_fract_z
_atom_type_partial_charge
Eu0 Eu 0.25637 0.21277 0.19494 0.0
C1 C 0.36386 0.32576 0.34198 0.0
C2 C 0.37015 0.28406 0.39447 0.0
C3 C 0.42133 0.34873 0.39799 0.0
C4 C 0.34927 0.29056 0.35782 0.0
C5 C 0.3996 0.35556 0.36232 0.0
C6 C 0.40666 0.31301 0.41401 0.0
C7 C 0.3878 0.39761 0.31263 0.0
N8 N 0.34188 0.33158 0.30778 0.0
C9 C 0.35249 0.36717 0.29364 0.0
C10 C 0.41173 0.39166 0.34685 0.0
Eu11 Eu 0.28266 0.27891 0.27732 0.0
N12 N 0.31348 0.26358 0.33868 0.0
C13 C 0.2957 0.23053 0.35584 0.0
C14 C 0.35306 0.24917 0.41104 0.0
C15 C 0.31543 0.22251 0.39187 0.0
H16 H 0.3341 0.37201 0.26727 0.0
H17 H 0.30153 0.19583 0.40488 0.0
H18 H 0.42325 0.30845 0.44206 0.0
H19 H 0.39649 0.4256 0.30088 0.0
H20 H 0.26649 0.20985 0.34152 0.0
H21 H 0.23814 0.30123 0.07193 0.0
H22 H 0.36815 0.24302 0.43911 0.0
H23 H 0.204 0.11893 0.20099 0.0
H24 H 0.27288 0.28474 0.13392 0.0
H25 H 0.14104 0.06676 0.16621 0.0
H26 H 0.44901 0.37116 0.41392 0.0
H27 H 0.17133 0.25525 0.03672 0.0
H28 H 0.11578 0.18984 0.03167 0.0
H29 H 0.43897 0.41532 0.36163 0.0
H30 H 0.08942 0.1259 0.05719 0.0
N31 N 0.22553 0.23071 0.13508 0.0
C32 C 0.24356 0.26456 0.11919 0.0
C33 C 0.18628 0.24801 0.0642 0.0
C34 C 0.1689 0.2124 0.07941 0.0
C35 C 0.22402 0.27399 0.08392 0.0
C36 C 0.18963 0.20442 0.11531 0.0
H37 H 0.09886 0.07959 0.10699 0.0
N38 N 0.19671 0.16121 0.16291 0.0
C39 C 0.15003 0.0953 0.15576 0.0
C40 C 0.17478 0.1685 0.12963 0.0
C41 C 0.18563 0.12493 0.17545 0.0
C42 C 0.12628 0.10268 0.12239 0.0
C43 C 0.13882 0.13947 0.10853 0.0
O44 O 0.28222 0.17376 0.19402 0.0
O45 O 0.29227 0.23101 0.25751 0.0
O46 O 0.33807 0.29562 0.26062 0.0
O47 O 0.3085 0.26966 0.19649 0.0
O48 O 0.26109 0.17297 0.24318 0.0
O49 O 0.2867 0.21618 0.15107 0.0
O50 O 0.25972 0.32043 0.2778 0.0
O51 O 0.2456 0.25888 0.21594 0.0
O52 O 0.20249 0.19131 0.2153 0.0
O53 O 0.23097 0.22223 0.27793 0.0
O54 O 0.27677 0.31675 0.22667 0.0
O55 O 0.24984 0.27586 0.3187 0.0
C56 C 0.28564 0.1982 0.27106 0.0
C57 C 0.28614 0.15853 0.13331 0.0
C58 C 0.30708 0.11743 0.10698 0.0
C59 C 0.31478 0.1464 0.13398 0.0
C60 C 0.27039 0.10109 0.07917 0.0
C61 C 0.24987 0.14195 0.10523 0.0
C62 C 0.2421 0.11337 0.07832 0.0
C63 C 0.33954 0.28999 0.2252 0.0
C64 C 0.29393 0.18718 0.16318 0.0
C65 C 0.11724 0.14775 0.07367 0.0
C66 C 0.13224 0.18416 0.05915 0.0
C67 C 0.24986 0.29048 0.20083 0.0
C68 C 0.25168 0.33412 0.33695 0.0
C69 C 0.22206 0.34479 0.3367 0.0
C70 C 0.22846 0.37239 0.36467 0.0
C71 C 0.26521 0.38948 0.39235 0.0
C72 C 0.28784 0.35133 0.36504 0.0
C73 C 0.29455 0.37896 0.39248 0.0
C74 C 0.20185 0.19659 0.25115 0.0
C75 C 0.24497 0.30619 0.30682 0.0
H76 H 0.34267 0.15895 0.15598 0.0
H77 H 0.26369 0.07909 0.0577 0.0
H78 H 0.22754 0.15096 0.1042 0.0
H79 H 0.21403 0.10064 0.05672 0.0
H80 H 0.19405 0.33134 0.31502 0.0
H81 H 0.27149 0.41137 0.41373 0.0
H82 H 0.31093 0.34359 0.36563 0.0
H83 H 0.32266 0.39239 0.4139 0.0
Eu84 Eu 0.80115 0.24053 0.23119 0.0
C85 C 0.70063 0.26993 0.31969 0.0
C86 C 0.63749 0.21526 0.30069 0.0
C87 C 0.66124 0.24621 0.36568 0.0
C88 C 0.6725 0.24114 0.29226 0.0
C89 C 0.69465 0.27355 0.3562 0.0
C90 C 0.63259 0.21723 0.33788 0.0
C91 C 0.75098 0.33479 0.36813 0.0
N92 N 0.73203 0.29656 0.30931 0.0
C93 C 0.75491 0.33022 0.33128 0.0
C94 C 0.7213 0.30577 0.38116 0.0
Eu95 Eu 0.74012 0.28532 0.24853 0.0
N96 N 0.67817 0.23992 0.25655 0.0
C97 C 0.64846 0.2148 0.22728 0.0
C98 C 0.608 0.18866 0.27128 0.0
C99 C 0.61337 0.18876 0.23431 0.0
H100 H 0.77596 0.35365 0.32017 0.0
H101 H 0.59042 0.16874 0.21108 0.0
H102 H 0.60626 0.19709 0.34503 0.0
H103 H 0.77027 0.361 0.38603 0.0
H104 H 0.65067 0.21439 0.19797 0.0
H105 H 0.95281 0.34968 0.25521 0.0
H106 H 0.58079 0.16835 0.27664 0.0
H107 H 0.74939 0.16969 0.16168 0.0
H108 H 0.89181 0.31309 0.27202 0.0
H109 H 0.75245 0.15031 0.09856 0.0
H110 H 0.65648 0.24821 0.39378 0.0
H111 H 0.95988 0.33636 0.19187 0.0
H112 H 0.93102 0.2971 0.12865 0.0
H113 H 0.71779 0.30958 0.40943 0.0
H114 H 0.87624 0.24377 0.08547 0.0
N115 N 0.86208 0.27932 0.21779 0.0
C116 C 0.89331 0.3067 0.24387 0.0
C117 C 0.9325 0.32 0.19893 0.0
C118 C 0.90124 0.29099 0.17299 0.0
C119 C 0.92859 0.32763 0.23465 0.0
C120 C 0.866 0.2707 0.18341 0.0
H121 H 0.80967 0.18899 0.07396 0.0
N122 N 0.80258 0.22032 0.17079 0.0
C123 C 0.77577 0.17598 0.11504 0.0
C124 C 0.83521 0.24066 0.15904 0.0
C125 C 0.77397 0.18713 0.15055 0.0
C126 C 0.80808 0.1979 0.10127 0.0
C127 C 0.83874 0.23014 0.12373 0.0
O128 O 0.80068 0.18473 0.23748 0.0
O129 O 0.75692 0.2378 0.25961 0.0
O130 O 0.78219 0.28528 0.30568 0.0
O131 O 0.83192 0.2843 0.28389 0.0
O132 O 0.74702 0.1865 0.23678 0.0
O133 O 0.84374 0.23187 0.27947 0.0
O134 O 0.74684 0.34382 0.24326 0.0
O135 O 0.78469 0.28812 0.22044 0.0
O136 O 0.762 0.24421 0.17254 0.0
O137 O 0.71244 0.24662 0.19291 0.0
O138 O 0.79278 0.3397 0.24103 0.0
O139 O 0.69469 0.29673 0.20843 0.0
C140 C 0.73473 0.20272 0.25647 0.0
C141 C 0.81556 0.17033 0.30358 0.0
C142 C 0.82822 0.16002 0.37367 0.0
C143 C 0.83454 0.18437 0.34265 0.0
C144 C 0.79862 0.12199 0.36424 0.0
C145 C 0.78688 0.13241 0.29525 0.0
C146 C 0.77787 0.10876 0.32554 0.0
C147 C 0.81898 0.29265 0.31086 0.0
C148 C 0.82659 0.19487 0.27155 0.0
C149 C 0.87314 0.25123 0.11262 0.0
C150 C 0.90438 0.28149 0.13726 0.0
C151 C 0.80584 0.32345 0.22239 0.0
C152 C 0.72286 0.3534 0.17681 0.0
C153 C 0.69898 0.33464 0.1404 0.0
C154 C 0.69915 0.35458 0.10613 0.0
C155 C 0.72877 0.39219 0.10803 0.0
C156 C 0.75189 0.39093 0.17834 0.0
C157 C 0.75555 0.40972 0.14382 0.0
C158 C 0.72559 0.23876 0.16601 0.0
C159 C 0.71643 0.33372 0.21278 0.0
H160 H 0.85551 0.214 0.34835 0.0
H161 H 0.79235 0.10111 0.38597 0.0
H162 H 0.77159 0.12085 0.26535 0.0
H163 H 0.75591 0.07943 0.31894 0.0
H164 H 0.67822 0.30496 0.13908 0.0
H165 H 0.73013 0.40911 0.0826 0.0
H166 H 0.77144 0.4058 0.20607 0.0
H167 H 0.77783 0.43874 0.14507 0.0
Eu168 Eu 0.74386 0.73939 0.27932 0.0
C169 C 0.82994 0.825 0.15551 0.0
C170 C 0.77577 0.82136 0.10107 0.0
C171 C 0.83966 0.87475 0.10886 0.0
C172 C 0.79098 0.80652 0.13544 0.0
C173 C 0.85506 0.85858 0.14167 0.0
C174 C 0.80003 0.85619 0.08862 0.0
C175 C 0.90931 0.85449 0.19011 0.0
N176 N 0.84398 0.8082 0.18651 0.0
C177 C 0.88317 0.82101 0.20241 0.0
C178 C 0.89513 0.87381 0.16008 0.0
Eu179 Eu 0.7986 0.75282 0.20743 0.0
N180 N 0.76874 0.77244 0.1477 0.0
C181 C 0.73191 0.75022 0.12493 0.0
C182 C 0.73715 0.79995 0.07931 0.0
C183 C 0.71537 0.7639 0.09093 0.0
H184 H 0.89408 0.80575 0.22533 0.0
H185 H 0.6858 0.7466 0.07373 0.0
H186 H 0.78877 0.86824 0.06254 0.0
H187 H 0.94033 0.86523 0.20365 0.0
H188 H 0.71444 0.72228 0.13322 0.0
H189 H 0.84947 0.73657 0.41504 0.0
H190 H 0.72435 0.81037 0.0528 0.0
H191 H 0.64717 0.69005 0.25449 0.0
H192 H 0.82651 0.7621 0.35354 0.0
H193 H 0.59644 0.63389 0.27492 0.0
H194 H 0.8584 0.9008 0.09805 0.0
H195 H 0.80452 0.67682 0.4372 0.0
H196 H 0.73672 0.62441 0.42697 0.0
H197 H 0.91542 0.89954 0.15031 0.0
H198 H 0.66778 0.59633 0.38879 0.0
N199 N 0.76906 0.71639 0.33903 0.0
C200 C 0.80637 0.73576 0.36215 0.0
C201 C 0.79425 0.68765 0.40969 0.0
C202 C 0.75549 0.66907 0.38712 0.0
C203 C 0.81965 0.72142 0.39736 0.0
C204 C 0.74359 0.6844 0.35153 0.0
H205 H 0.61515 0.59978 0.33222 0.0
N206 N 0.69415 0.68585 0.29773 0.0
C207 C 0.62685 0.6431 0.29051 0.0
C208 C 0.70488 0.66863 0.33018 0.0
C209 C 0.65565 0.67465 0.27879 0.0
C210 C 0.63754 0.62391 0.32283 0.0
C211 C 0.67688 0.63708 0.34361 0.0
O212 O 0.70429 0.76489 0.27769 0.0
O213 O 0.75668 0.76895 0.22464 0.0
O214 O 0.82908 0.80863 0.24294 0.0
O215 O 0.80342 0.78931 0.2966 0.0
O216 O 0.69877 0.73956 0.22475 0.0
O217 O 0.75578 0.77974 0.32627 0.0
O218 O 0.8406 0.7309 0.20761 0.0
O219 O 0.785 0.72308 0.26126 0.0
O220 O 0.71464 0.68242 0.24619 0.0
O221 O 0.74099 0.7009 0.19287 0.0
O222 O 0.84291 0.74975 0.26206 0.0
O223 O 0.78782 0.71317 0.1602 0.0
C224 C 0.72187 0.76185 0.20507 0.0
C225 C 0.70083 0.78191 0.33788 0.0
C226 C 0.66062 0.80514 0.35845 0.0
C227 C 0.68348 0.80706 0.33389 0.0
C228 C 0.6553 0.77806 0.38705 0.0
C229 C 0.69508 0.75485 0.36651 0.0
C230 C 0.67247 0.75307 0.39101 0.0
C231 C 0.82886 0.81379 0.27908 0.0
C232 C 0.7239 0.78371 0.31132 0.0
C233 C 0.68882 0.62067 0.37809 0.0
C234 C 0.72807 0.63665 0.39981 0.0
C235 C 0.81888 0.72779 0.28115 0.0
C236 C 0.84331 0.71359 0.14718 0.0
C237 C 0.85605 0.68536 0.14637 0.0
C238 C 0.87976 0.68827 0.12227 0.0
C239 C 0.89022 0.71974 0.09877 0.0
C240 C 0.85385 0.74461 0.12337 0.0
C241 C 0.87718 0.74758 0.09925 0.0
C242 C 0.716 0.67649 0.21076 0.0
C243 C 0.82077 0.7111 0.17449 0.0
H244 H 0.68761 0.82791 0.31169 0.0
H245 H 0.63787 0.77632 0.40631 0.0
H246 H 0.70802 0.73515 0.3699 0.0
H247 H 0.66819 0.73222 0.41312 0.0
H248 H 0.8482 0.66159 0.16511 0.0
H249 H 0.90809 0.72258 0.07962 0.0
H250 H 0.84428 0.76657 0.1236 0.0
H251 H 0.88529 0.77159 0.08093 0.0
Eu252 Eu 0.2855 0.72124 0.25051 0.0
C253 C 0.22015 0.83031 0.15149 0.0
C254 C 0.27905 0.88853 0.1549 0.0
C255 C 0.22227 0.87394 0.09897 0.0
C256 C 0.25835 0.85398 0.17078 0.0
C257 C 0.20126 0.84052 0.11593 0.0
C258 C 0.26115 0.89785 0.11839 0.0
C259 C 0.14138 0.78602 0.1187 0.0
N260 N 0.20067 0.79847 0.16882 0.0
C261 C 0.16147 0.7771 0.15395 0.0
C262 C 0.1615 0.81751 0.09923 0.0
Eu263 Eu 0.23639 0.78431 0.22757 0.0
N264 N 0.27444 0.84437 0.20626 0.0
C265 C 0.30994 0.86957 0.2289 0.0
C266 C 0.3166 0.91325 0.17682 0.0
C267 C 0.33184 0.90398 0.21427 0.0
H268 H 0.14592 0.75258 0.1688 0.0
H269 H 0.36044 0.92333 0.23191 0.0
H270 H 0.27672 0.92401 0.10548 0.0
H271 H 0.11047 0.76851 0.10648 0.0
H272 H 0.3221 0.86286 0.25792 0.0
H273 H 0.15982 0.58048 0.22904 0.0
H274 H 0.33351 0.94002 0.16562 0.0
H275 H 0.37135 0.74854 0.31726 0.0
H276 H 0.20164 0.64306 0.20972 0.0
H277 H 0.39958 0.73028 0.38224 0.0
H278 H 0.20842 0.88207 0.07142 0.0
H279 H 0.17906 0.56008 0.29579 0.0
H280 H 0.22928 0.57323 0.36095 0.0
H281 H 0.14589 0.82439 0.07195 0.0
H282 H 0.29462 0.6142 0.40296 0.0
N283 N 0.24421 0.65904 0.2653 0.0
C284 C 0.21075 0.6348 0.23892 0.0
C285 C 0.19765 0.58777 0.28749 0.0
C286 C 0.23308 0.6117 0.31359 0.0
C287 C 0.18677 0.59912 0.24976 0.0
C288 C 0.25613 0.64749 0.30134 0.0
H289 H 0.35863 0.67266 0.41099 0.0
N290 N 0.31472 0.70353 0.31114 0.0
C291 C 0.36931 0.71343 0.36671 0.0
C292 C 0.29259 0.67055 0.32507 0.0
C293 C 0.35325 0.72387 0.33018 0.0
C294 C 0.34609 0.68093 0.38284 0.0
C295 C 0.30746 0.65849 0.36156 0.0
O296 O 0.33924 0.72959 0.2387 0.0
O297 O 0.28414 0.77255 0.22026 0.0
O298 O 0.22181 0.75425 0.16936 0.0
O299 O 0.23969 0.70494 0.19103 0.0
O300 O 0.3378 0.77817 0.2545 0.0
O301 O 0.28478 0.68159 0.20996 0.0
O302 O 0.18743 0.77785 0.24817 0.0
O303 O 0.23801 0.73301 0.25669 0.0
O304 O 0.2984 0.75155 0.30796 0.0
O305 O 0.28504 0.80313 0.28469 0.0
O306 O 0.18362 0.72752 0.22582 0.0
O307 O 0.24277 0.82792 0.26754 0.0
C308 C 0.32012 0.79476 0.22963 0.0
C309 C 0.34264 0.67534 0.22024 0.0
C310 C 0.37251 0.64611 0.19153 0.0
C311 C 0.35301 0.66878 0.1882 0.0
C312 C 0.3822 0.63027 0.22721 0.0
C313 C 0.35216 0.65956 0.25602 0.0
C314 C 0.3722 0.63724 0.2595 0.0
C315 C 0.22278 0.72165 0.16342 0.0
C316 C 0.32236 0.69916 0.21523 0.0
C317 C 0.28391 0.62379 0.37481 0.0
C318 C 0.24673 0.60045 0.35087 0.0
C319 C 0.2023 0.71051 0.24848 0.0
C320 C 0.18588 0.8335 0.26571 0.0
C321 C 0.17572 0.8389 0.29859 0.0
C322 C 0.15338 0.85878 0.29581 0.0
C323 C 0.14152 0.8736 0.26013 0.0
C324 C 0.17446 0.84875 0.23022 0.0
C325 C 0.15228 0.86876 0.22751 0.0
C326 C 0.2995 0.78529 0.31295 0.0
C327 C 0.20667 0.81026 0.26876 0.0
H328 H 0.34534 0.68075 0.16044 0.0
H329 H 0.39722 0.61246 0.22991 0.0
H330 H 0.34412 0.66434 0.28101 0.0
H331 H 0.37966 0.62509 0.28707 0.0
H332 H 0.18458 0.82713 0.32607 0.0
H333 H 0.12427 0.88916 0.25769 0.0
H334 H 0.18237 0.84495 0.2047 0.0
H335 H 0.14328 0.88038 0.20008 0.0
Eu336 Eu 0.29348 0.73302 0.74079 0.0
C337 C 0.20853 0.78539 0.82093 0.0
C338 C 0.14036 0.74045 0.80006 0.0
C339 C 0.16925 0.76733 0.86701 0.0
C340 C 0.17679 0.76124 0.79209 0.0
C341 C 0.20401 0.79111 0.85757 0.0
C342 C 0.13748 0.74166 0.83829 0.0
C343 C 0.26331 0.84961 0.86789 0.0
N344 N 0.24166 0.80798 0.81091 0.0
C345 C 0.26716 0.84175 0.83201 0.0
C346 C 0.23278 0.82305 0.88178 0.0
Eu347 Eu 0.24591 0.79318 0.74938 0.0
N348 N 0.18025 0.76233 0.75509 0.0
C349 C 0.14706 0.74896 0.72434 0.0
C350 C 0.10742 0.72129 0.76892 0.0
C351 C 0.11058 0.72677 0.73074 0.0
H352 H 0.29132 0.86209 0.82178 0.0
H353 H 0.08482 0.71455 0.70617 0.0
H354 H 0.11004 0.72503 0.84515 0.0
H355 H 0.28392 0.87604 0.8848 0.0
H356 H 0.14822 0.75489 0.69451 0.0
H357 H 0.4402 0.85526 0.78068 0.0
H358 H 0.07905 0.70468 0.77383 0.0
H359 H 0.25049 0.67158 0.66078 0.0
H360 H 0.37455 0.81733 0.78533 0.0
H361 H 0.264 0.66207 0.60028 0.0
H362 H 0.16574 0.77045 0.89547 0.0
H363 H 0.46034 0.84304 0.72559 0.0
H364 H 0.44215 0.80805 0.66208 0.0
H365 H 0.23001 0.82905 0.9097 0.0
H366 H 0.39342 0.75829 0.61151 0.0
N367 N 0.3567 0.77868 0.73618 0.0
C368 C 0.3825 0.80894 0.76251 0.0
C369 C 0.43132 0.82484 0.72823 0.0
C370 C 0.4043 0.79596 0.69967 0.0
C371 C 0.42012 0.83174 0.75941 0.0
C372 C 0.36669 0.77295 0.70436 0.0
H373 H 0.32698 0.70484 0.58771 0.0
N374 N 0.30289 0.72308 0.6802 0.0
C375 C 0.28509 0.68593 0.62076 0.0
C376 C 0.33894 0.74501 0.67543 0.0
C377 C 0.2772 0.6921 0.65479 0.0
C378 C 0.32072 0.70997 0.61392 0.0
C379 C 0.34855 0.73925 0.64179 0.0
O380 O 0.26657 0.67041 0.74036 0.0
O381 O 0.244 0.73578 0.75655 0.0
O382 O 0.29464 0.79905 0.80596 0.0
O383 O 0.32651 0.76196 0.80043 0.0
O384 O 0.27281 0.70836 0.79461 0.0
O385 O 0.32951 0.70302 0.75327 0.0
O386 O 0.28235 0.85441 0.74691 0.0
O387 O 0.29409 0.79002 0.73054 0.0
O388 O 0.2406 0.71896 0.6882 0.0
O389 O 0.20409 0.7474 0.70151 0.0
O390 O 0.25505 0.80533 0.68885 0.0
O391 O 0.21926 0.83173 0.73034 0.0
C392 C 0.24459 0.7179 0.78744 0.0
C393 C 0.30594 0.64953 0.79009 0.0
C394 C 0.3482 0.64827 0.85416 0.0
C395 C 0.33774 0.66847 0.82258 0.0
C396 C 0.32295 0.60938 0.85535 0.0
C397 C 0.28116 0.61085 0.79155 0.0
C398 C 0.28919 0.59113 0.82457 0.0
C399 C 0.32121 0.78578 0.8201 0.0
C400 C 0.30042 0.66993 0.75422 0.0
C401 C 0.38577 0.76224 0.63723 0.0
C402 C 0.41359 0.79039 0.66614 0.0
C403 C 0.28634 0.80068 0.69603 0.0
C404 C 0.25303 0.88072 0.69299 0.0
C405 C 0.22217 0.86458 0.65889 0.0
C406 C 0.22083 0.88438 0.62435 0.0
C407 C 0.25278 0.91966 0.6236 0.0
C408 C 0.2845 0.91584 0.69161 0.0
C409 C 0.28455 0.93491 0.65686 0.0
C410 C 0.20898 0.72454 0.68023 0.0
C411 C 0.25221 0.86086 0.72986 0.0
H412 H 0.35592 0.6988 0.82231 0.0
H413 H 0.33006 0.5925 0.87894 0.0
H414 H 0.25609 0.59584 0.767 0.0
H415 H 0.2702 0.56114 0.82551 0.0
H416 H 0.19872 0.83664 0.65948 0.0
H417 H 0.25281 0.93622 0.59789 0.0
H418 H 0.30887 0.92855 0.71739 0.0
H419 H 0.30884 0.96214 0.65602 0.0
Eu420 Eu 0.24109 0.24377 0.77917 0.0
C421 C 0.32221 0.32004 0.65753 0.0
C422 C 0.26817 0.31573 0.60219 0.0
C423 C 0.33187 0.36939 0.61026 0.0
C424 C 0.28311 0.30108 0.63691 0.0
C425 C 0.34727 0.35349 0.64328 0.0
C426 C 0.29238 0.35062 0.58984 0.0
C427 C 0.40193 0.34962 0.69105 0.0
N428 N 0.33657 0.30368 0.68891 0.0
C429 C 0.37605 0.31662 0.70419 0.0
C430 C 0.38742 0.36872 0.66114 0.0
Eu431 Eu 0.29017 0.24697 0.70782 0.0
N432 N 0.26059 0.26672 0.64868 0.0
C433 C 0.22434 0.24411 0.62526 0.0
C434 C 0.22986 0.29398 0.5798 0.0
C435 C 0.20813 0.25771 0.59101 0.0
H436 H 0.38757 0.30217 0.72761 0.0
H437 H 0.17893 0.24011 0.57321 0.0
H438 H 0.28124 0.36245 0.56351 0.0
H439 H 0.43302 0.36038 0.70413 0.0
H440 H 0.20731 0.21582 0.63323 0.0
H441 H 0.36774 0.28145 0.90616 0.0
H442 H 0.21736 0.30429 0.55303 0.0
H443 H 0.14947 0.17699 0.76815 0.0
H444 H 0.32947 0.29015 0.84142 0.0
H445 H 0.1134 0.12098 0.80212 0.0
H446 H 0.3506 0.39532 0.59928 0.0
H447 H 0.33866 0.22356 0.94145 0.0
H448 H 0.28019 0.16263 0.94474 0.0
H449 H 0.40756 0.39422 0.6509 0.0
H450 H 0.21107 0.11893 0.91638 0.0
N451 N 0.28005 0.23742 0.84001 0.0
C452 C 0.31675 0.26481 0.85666 0.0
C453 C 0.3219 0.22717 0.91303 0.0
C454 C 0.28355 0.20002 0.89646 0.0
C455 C 0.33838 0.25996 0.89326 0.0
C456 C 0.26299 0.2061 0.85942 0.0
H457 H 0.14857 0.10337 0.86347 0.0
N458 N 0.20454 0.18923 0.80873 0.0
C459 C 0.14456 0.13746 0.81383 0.0
C460 C 0.2241 0.18127 0.84331 0.0
C461 C 0.165 0.16903 0.79464 0.0
C462 C 0.16455 0.1276 0.84842 0.0
C463 C 0.20465 0.14999 0.86399 0.0
O464 O 0.19406 0.25884 0.77875 0.0
O465 O 0.24543 0.26406 0.71886 0.0
O466 O 0.32893 0.29914 0.74959 0.0
O467 O 0.28159 0.30402 0.77112 0.0
O468 O 0.19063 0.22799 0.72566 0.0
O469 O 0.24817 0.28432 0.82371 0.0
O470 O 0.33807 0.23313 0.70933 0.0
O471 O 0.29505 0.24069 0.77304 0.0
O472 O 0.21806 0.1829 0.75572 0.0
O473 O 0.23249 0.19471 0.69569 0.0
O474 O 0.29603 0.19843 0.7423 0.0
O475 O 0.28701 0.21364 0.65904 0.0
C476 C 0.20874 0.25063 0.70212 0.0
C477 C 0.19143 0.27984 0.8379 0.0
C478 C 0.16023 0.30728 0.8689 0.0
C479 C 0.18117 0.3095 0.84193 0.0
C480 C 0.14894 0.27466 0.89077 0.0
C481 C 0.18011 0.24792 0.86044 0.0
C482 C 0.15873 0.24526 0.88645 0.0
C483 C 0.31678 0.31866 0.7666 0.0
C484 C 0.21328 0.28208 0.80971 0.0
C485 C 0.22544 0.14296 0.90017 0.0
C486 C 0.26481 0.16788 0.91634 0.0
C487 C 0.29964 0.21004 0.77652 0.0
C488 C 0.34624 0.21893 0.65 0.0
C489 C 0.35894 0.19073 0.64842 0.0
C490 C 0.38404 0.19485 0.6254 0.0
C491 C 0.39651 0.22813 0.60449 0.0
C492 C 0.35837 0.25126 0.6282 0.0
C493 C 0.38358 0.25588 0.60577 0.0
C494 C 0.21547 0.17163 0.72061 0.0
C495 C 0.32112 0.21426 0.67531 0.0
H496 H 0.19008 0.33442 0.82481 0.0
H497 H 0.13249 0.27194 0.91137 0.0
H498 H 0.18776 0.22504 0.85799 0.0
H499 H 0.1499 0.22038 0.90356 0.0
H500 H 0.34883 0.16544 0.6648 0.0
H501 H 0.4166 0.233 0.58731 0.0
H502 H 0.34851 0.27294 0.62857 0.0
H503 H 0.39327 0.28117 0.58937 0.0
Eu504 Eu 0.78651 0.22033 0.75546 0.0
C505 C 0.74419 0.33556 0.65114 0.0
C506 C 0.80501 0.39347 0.66225 0.0
C507 C 0.75742 0.37876 0.59857 0.0
C508 C 0.78022 0.35945 0.67608 0.0
C509 C 0.7321 0.34577 0.61254 0.0
C510 C 0.7938 0.40245 0.62329 0.0
C511 C 0.66907 0.29214 0.60508 0.0
N512 N 0.72005 0.3036 0.66502 0.0
C513 C 0.68214 0.28316 0.64334 0.0
C514 C 0.69437 0.32321 0.58935 0.0
Eu515 Eu 0.74583 0.29023 0.72998 0.0
N516 N 0.79044 0.35047 0.71399 0.0
C517 C 0.82377 0.37589 0.73985 0.0
C518 C 0.84007 0.41813 0.68817 0.0
C519 C 0.84915 0.40957 0.72722 0.0
H520 H 0.66227 0.2589 0.65517 0.0
H521 H 0.87577 0.42902 0.74775 0.0
H522 H 0.81267 0.42826 0.61227 0.0
H523 H 0.63947 0.27511 0.58779 0.0
H524 H 0.83181 0.37101 0.77043 0.0
H525 H 0.67202 0.08381 0.77791 0.0
H526 H 0.85983 0.44438 0.67858 0.0
H527 H 0.88191 0.26322 0.80961 0.0
H528 H 0.70368 0.13861 0.74101 0.0
H529 H 0.92246 0.25752 0.87331 0.0
H530 H 0.74873 0.38672 0.56892 0.0
H531 H 0.7059 0.07902 0.84632 0.0
H532 H 0.76664 0.10477 0.9022 0.0
H533 H 0.68411 0.33022 0.55967 0.0
H534 H 0.83492 0.15171 0.92787 0.0
N535 N 0.75424 0.1663 0.78869 0.0
C536 C 0.71864 0.13748 0.77105 0.0
C537 C 0.71982 0.10351 0.83039 0.0
C538 C 0.75751 0.13165 0.84732 0.0
C539 C 0.70064 0.10607 0.79179 0.0
C540 C 0.7744 0.16298 0.82529 0.0
H541 H 0.89328 0.20811 0.91706 0.0
N542 N 0.82914 0.21779 0.81668 0.0
C543 C 0.89167 0.23827 0.86431 0.0
C544 C 0.81299 0.18932 0.83963 0.0
C545 C 0.86833 0.24141 0.82803 0.0
C546 C 0.87507 0.21044 0.88896 0.0
C547 C 0.83548 0.18514 0.87655 0.0
O548 O 0.81269 0.21764 0.70997 0.0
O549 O 0.78848 0.27152 0.72284 0.0
O550 O 0.72581 0.24988 0.67737 0.0
O551 O 0.72797 0.19687 0.70887 0.0
O552 O 0.84157 0.27242 0.75139 0.0
O553 O 0.78526 0.16691 0.73867 0.0
O554 O 0.68649 0.27922 0.72677 0.0
O555 O 0.73527 0.23119 0.75092 0.0
O556 O 0.80523 0.25779 0.81103 0.0
O557 O 0.79571 0.31073 0.78474 0.0
O558 O 0.72409 0.26488 0.78273 0.0
O559 O 0.73624 0.33325 0.75451 0.0
C560 C 0.82464 0.29118 0.72925 0.0
C561 C 0.83775 0.17293 0.71672 0.0
C562 C 0.86725 0.14264 0.68821 0.0
C563 C 0.83591 0.15078 0.68642 0.0
C564 C 0.90032 0.15662 0.72081 0.0
C565 C 0.87082 0.18676 0.74902 0.0
C566 C 0.90197 0.17852 0.75108 0.0
C567 C 0.71692 0.21327 0.67707 0.0
C568 C 0.80531 0.18205 0.71376 0.0
C569 C 0.81815 0.15515 0.89937 0.0
C570 C 0.77926 0.12846 0.88478 0.0
C571 C 0.72348 0.23215 0.77991 0.0
C572 C 0.67338 0.33146 0.73704 0.0
C573 C 0.67565 0.35279 0.7682 0.0
C574 C 0.64934 0.36818 0.76429 0.0
C575 C 0.62097 0.36306 0.7286 0.0
C576 C 0.6452 0.3264 0.70116 0.0
C577 C 0.61927 0.34257 0.69694 0.0
C578 C 0.80828 0.2928 0.8142 0.0
C579 C 0.69844 0.31208 0.74532 0.0
H580 H 0.81042 0.1404 0.66128 0.0
H581 H 0.92467 0.15023 0.72304 0.0
H582 H 0.87259 0.20397 0.77242 0.0
H583 H 0.92742 0.18915 0.77614 0.0
H584 H 0.69674 0.35583 0.79632 0.0
H585 H 0.59993 0.37435 0.72552 0.0
H586 H 0.64262 0.30947 0.67691 0.0
H587 H 0.59724 0.3384 0.66944 0.0
Eu588 Eu 0.75544 0.71534 0.70037 0.0
C589 C 0.86342 0.82637 0.84625 0.0
C590 C 0.86607 0.78367 0.89864 0.0
C591 C 0.92059 0.84626 0.90256 0.0
C592 C 0.84654 0.79146 0.86189 0.0
C593 C 0.90022 0.85455 0.86687 0.0
C594 C 0.90357 0.81086 0.9184 0.0
C595 C 0.89214 0.89836 0.8176 0.0
N596 N 0.84266 0.83376 0.81214 0.0
C597 C 0.85565 0.86961 0.79843 0.0
C598 C 0.91477 0.89067 0.85171 0.0
Eu599 Eu 0.78141 0.7836 0.78107 0.0
N600 N 0.80991 0.76624 0.84254 0.0
C601 C 0.79004 0.73396 0.85964 0.0
C602 C 0.84671 0.74944 0.91515 0.0
C603 C 0.80829 0.72478 0.89584 0.0
H604 H 0.83803 0.8758 0.77235 0.0
H605 H 0.79268 0.69868 0.9088 0.0
H606 H 0.91912 0.80526 0.9465 0.0
H607 H 0.90267 0.92649 0.8062 0.0
H608 H 0.76028 0.71471 0.84516 0.0
H609 H 0.73374 0.79296 0.56901 0.0
H610 H 0.86069 0.74237 0.9433 0.0
H611 H 0.70483 0.62153 0.71141 0.0
H612 H 0.77023 0.7806 0.63252 0.0
H613 H 0.64087 0.56843 0.68121 0.0
H614 H 0.94903 0.86742 0.91868 0.0
H615 H 0.66545 0.74692 0.53863 0.0
H616 H 0.60936 0.68327 0.53982 0.0
H617 H 0.94288 0.9131 0.86672 0.0
H618 H 0.58403 0.62189 0.57041 0.0
N619 N 0.72263 0.72896 0.63904 0.0
C620 C 0.74033 0.76047 0.61985 0.0
C621 C 0.68123 0.7415 0.56671 0.0
C622 C 0.66416 0.70792 0.58525 0.0
C623 C 0.7198 0.76748 0.5837 0.0
C624 C 0.68606 0.70221 0.62171 0.0
H625 H 0.59584 0.57855 0.62275 0.0
N626 N 0.69516 0.66218 0.67216 0.0
C627 C 0.64903 0.5963 0.6692 0.0
C628 C 0.67186 0.66768 0.63878 0.0
C629 C 0.68518 0.62657 0.68641 0.0
C630 C 0.62367 0.60215 0.63626 0.0
C631 C 0.6353 0.63791 0.62007 0.0
O632 O 0.78479 0.67853 0.70362 0.0
O633 O 0.79182 0.73556 0.76275 0.0
O634 O 0.83538 0.80185 0.76114 0.0
O635 O 0.8062 0.77267 0.69807 0.0
O636 O 0.75915 0.6773 0.75049 0.0
O637 O 0.78203 0.71318 0.65459 0.0
O638 O 0.76038 0.82688 0.78071 0.0
O639 O 0.74514 0.76346 0.71889 0.0
O640 O 0.70099 0.69544 0.72004 0.0
O641 O 0.72781 0.72872 0.78129 0.0
O642 O 0.77619 0.82167 0.73112 0.0
O643 O 0.75017 0.78401 0.82303 0.0
C644 C 0.78452 0.70309 0.7775 0.0
C645 C 0.78323 0.65423 0.64419 0.0
C646 C 0.8027 0.61299 0.61497 0.0
C647 C 0.81273 0.64572 0.63853 0.0
C648 C 0.76286 0.58837 0.5992 0.0
C649 C 0.74414 0.63017 0.62587 0.0
C650 C 0.73403 0.59717 0.60423 0.0
C651 C 0.83582 0.79773 0.72493 0.0
C652 C 0.79268 0.68708 0.67023 0.0
C653 C 0.61235 0.64427 0.58501 0.0
C654 C 0.62677 0.67923 0.56761 0.0
C655 C 0.7512 0.79573 0.70407 0.0
C656 C 0.75462 0.84411 0.83987 0.0
C657 C 0.72462 0.85206 0.84493 0.0
C658 C 0.7333 0.88094 0.87277 0.0
C659 C 0.77233 0.90226 0.89432 0.0
C660 C 0.79307 0.86552 0.86233 0.0
C661 C 0.80186 0.8946 0.88908 0.0
C662 C 0.699 0.70265 0.75477 0.0
C663 C 0.74609 0.81452 0.81033 0.0
H664 H 0.84308 0.66474 0.65178 0.0
H665 H 0.75372 0.56216 0.58251 0.0
H666 H 0.72123 0.63667 0.62841 0.0
H667 H 0.70362 0.57833 0.59112 0.0
H668 H 0.69476 0.83547 0.82789 0.0
H669 H 0.78003 0.92494 0.91547 0.0
H670 H 0.81639 0.8599 0.85914 0.0
H671 H 0.83171 0.91118 0.90601 0.0
Cd672 Cd 0.97573 0.94835 0.52131 0.0
Cd673 Cd 0.05835 0.05548 0.45648 0.0
C674 C 1.0139 0.91626 0.4788 0.0
N675 N 0.98012 0.90192 0.4891 0.0
C676 C 0.98029 0.84085 0.49756 0.0
C677 C 0.01842 0.85685 0.49345 0.0
C678 C 0.03337 0.89398 0.48024 0.0
C679 C 0.96169 0.86438 0.49589 0.0
H680 H 0.02889 0.94652 0.47563 0.0
H681 H 0.93539 0.85401 0.5052 0.0
C682 C 0.98208 0.98173 0.43309 0.0
C683 C 0.98118 0.06326 0.45032 0.0
C684 C 0.95522 0.07492 0.45747 0.0
C685 C 0.96693 0.09946 0.49012 0.0
C686 C 1.00443 0.11111 0.51568 0.0
C687 C 0.02926 0.09758 0.50806 0.0
N688 N 0.01718 0.07403 0.47575 0.0
H689 H 0.97289 0.04697 0.42342 0.0
H690 H 0.0586 0.10718 0.52697 0.0
C691 C 0.07146 0.99545 0.41476 0.0
N692 N 0.08254 0.01196 0.45119 0.0
C693 C 0.12469 0.98166 0.47513 0.0
C694 C 0.11228 0.96319 0.43809 0.0
C695 C 0.0853 0.97026 0.40777 0.0
C696 C 0.10901 0.00594 0.4812 0.0
H697 H 0.0526 0.00255 0.39065 0.0
H698 H 0.11873 0.02056 0.50954 0.0
C699 C 0.07044 0.03388 0.5526 0.0
C700 C 0.96274 0.90902 0.58743 0.0
N701 N 0.93914 0.9771 0.53096 0.0
C702 C 0.963 -0.00059 0.56393 0.0
C703 C 0.95276 0.02332 0.57988 0.0
C704 C 0.91698 0.02392 0.56223 0.0
C705 C 0.89095 0.99811 0.53001 0.0
C706 C 0.90299 0.97492 0.51423 0.0
C707 C 0.09063 0.11108 0.40622 0.0
O708 O 0.99184 0.9878 0.4697 0.0
O709 O 1.0023 0.00649 0.41381 0.0
O710 O 0.08468 0.05669 0.52767 0.0
O711 O 0.03801 0.00457 0.54202 0.0
O712 O 0.93525 0.90514 0.55674 0.0
O713 O 0.99788 0.93056 0.58705 0.0
O714 O 0.11257 0.10553 0.43707 0.0
O715 O 0.05426 0.09295 0.40075 0.0
H716 H 0.99027 -0.00161 0.57806 0.0
H717 H 0.88368 0.95551 0.48909 0.0
H718 H 0.96713 0.81207 0.50688 0.0
H719 H 0.06259 0.908 0.47717 0.0
H720 H 0.92697 0.06664 0.43635 0.0
H721 H 1.01462 0.13105 0.54048 0.0
H722 H 0.14612 0.97736 0.49889 0.0
H723 H 0.07616 0.95759 0.37841 0.0
H724 H 0.97288 0.0414 0.6058 0.0
H725 H 0.8625 0.99706 0.51634 0.0
Cd726 Cd 0.51281 0.94807 0.05341 0.0
Cd727 Cd 0.52758 0.04229 0.93839 0.0
C728 C 0.58996 0.93224 0.09667 0.0
N729 N 0.5568 0.91833 0.06625 0.0
C730 C 0.5663 0.86272 0.05875 0.0
C731 C 0.59978 0.87541 0.09121 0.0
C732 C 0.61198 0.91137 0.10949 0.0
C733 C 0.54519 0.88445 0.04694 0.0
H734 H 0.5984 0.95879 0.11234 0.0
H735 H 0.51851 0.87338 0.02331 0.0
C736 C 0.47106 0.95516 0.95465 0.0
C737 C 0.45141 0.05437 0.88377 0.0
C738 C 0.42503 0.07013 0.86806 0.0
C739 C 0.42831 0.10278 0.88644 0.0
C740 C 0.45944 0.11877 0.92063 0.0
C741 C 0.48532 0.10198 0.93547 0.0
N742 N 0.48087 0.07006 0.91716 0.0
H743 H 0.4486 0.02969 0.86883 0.0
H744 H 0.50921 0.11478 0.96154 0.0
C745 C 0.53091 0.97711 0.8852 0.0
N746 N 0.5494 0.0008 0.91826 0.0
C747 C 0.60358 0.98569 0.93034 0.0
C748 C 0.58556 0.96113 0.89629 0.0
C749 C 0.54846 0.95679 0.87375 0.0
C750 C 0.58496 0.00514 0.94078 0.0
H751 H 0.50292 0.97453 0.86728 0.0
H752 H 0.59948 0.02475 0.96641 0.0
C753 C 0.57326 0.04279 0.04837 0.0
C754 C 0.46944 0.90373 0.10433 0.0
N755 N 0.48 0.98228 0.0652 0.0
C756 C 0.4953 0.01085 0.09357 0.0
C757 C 0.47205 0.02658 0.10109 0.0
C758 C 0.43255 0.01224 0.07972 0.0
C759 C 0.4179 0.98311 0.05037 0.0
C760 C 0.44214 0.96848 0.04376 0.0
C761 C 0.58494 0.09717 0.90495 0.0
O762 O 0.49794 0.96602 0.98638 0.0
O763 O 0.47218 0.97832 0.9275 0.0
O764 O 0.55866 0.04387 0.01158 0.0
O765 O 0.56274 0.01164 0.06582 0.0
O766 O 0.45578 0.8951 0.06742 0.0
O767 O 0.50369 0.93067 0.11653 0.0
O768 O 0.58856 0.09891 0.94153 0.0
O769 O 0.55357 0.07121 0.88393 0.0
H770 H 0.52513 0.02065 0.11126 0.0
H771 H 0.43043 0.94502 0.02242 0.0
H772 H 0.55573 0.83559 0.0431 0.0
H773 H 0.63713 0.92241 0.13481 0.0
H774 H 0.40244 0.05694 0.84118 0.0
H775 H 0.46354 0.14374 0.93618 0.0
H776 H 0.63247 0.99089 0.94827 0.0
H777 H 0.5332 0.93808 0.84742 0.0
H778 H 0.48445 0.04869 0.12431 0.0
H779 H 0.38779 0.97135 0.03289 0.0
Cd780 Cd 0.0164 0.45732 0.0564 0.0
Cd781 Cd 0.02274 0.54255 0.92717 0.0
C782 C 0.06684 0.41434 0.11277 0.0
N783 N 0.0602 0.42682 0.07583 0.0
C784 C 0.10227 0.40343 0.06106 0.0
C785 C 0.10984 0.39036 0.09908 0.0
C786 C 0.09137 0.39596 0.12492 0.0
C787 C 0.07731 0.42142 0.05001 0.0
H788 H 0.05314 0.41872 0.13308 0.0
H789 H 0.07163 0.43109 0.02068 0.0
C790 C 0.96777 0.45585 0.95391 0.0
C791 C 0.93995 0.55592 0.89592 0.0
C792 C 0.91792 0.57675 0.88167 0.0
C793 C 0.9365 0.61709 0.88218 0.0
C794 C 0.97722 0.63502 0.89881 0.0
C795 C 0.99798 0.61323 0.9129 0.0
N796 N 0.97949 0.57428 0.91097 0.0
H797 H 0.92546 0.52501 0.89366 0.0
H798 H 0.02935 0.62761 0.92436 0.0
C799 C 0.01862 0.47245 0.87449 0.0
N800 N 0.04078 0.49907 0.90493 0.0
C801 C 0.0925 0.48057 0.9149 0.0
C802 C 0.07036 0.45242 0.88393 0.0
C803 C 0.03285 0.44864 0.86357 0.0
C804 C 0.07709 0.50343 0.92495 0.0
H805 H 0.98991 0.46961 0.85874 0.0
H806 H 0.09434 0.52511 0.9487 0.0
C807 C 0.07824 0.544 0.03114 0.0
C808 C 0.95581 0.40985 0.09148 0.0
N809 N 1.00473 0.50487 0.07915 0.0
C810 C 0.02876 0.53113 0.10949 0.0
C811 C 0.0178 0.55786 0.11998 0.0
C812 C 0.9816 0.55705 0.09941 0.0
C813 C 0.95737 0.5292 0.06866 0.0
C814 C 0.96961 0.50344 0.05895 0.0
C815 C 0.0733 0.59386 0.8839 0.0
O816 O 0.99352 0.46825 0.98648 0.0
O817 O 0.96873 0.4779 0.92544 0.0
O818 O 0.05342 0.53665 -0.00239 0.0
O819 O 0.07266 0.51954 0.05742 0.0
O820 O 0.95154 0.40473 0.05507 0.0
O821 O 0.98863 0.43504 0.11113 0.0
O822 O 0.08315 0.59773 0.92126 0.0
O823 O 0.04015 0.56696 0.86753 0.0
H824 H 0.05638 0.53143 0.12543 0.0
H825 H 0.95103 0.4821 0.03512 0.0
H826 H 0.11535 0.3996 0.03979 0.0
H827 H 0.09649 0.387 0.15463 0.0
H828 H 0.88678 0.56123 0.86889 0.0
H829 H 0.99322 0.66585 0.90064 0.0
H830 H 0.12178 0.48536 0.93105 0.0
H831 H 1.0144 0.42719 0.83977 0.0
H832 H 0.03725 0.57871 0.14407 0.0
H833 H 0.92952 0.5278 0.05165 0.0
Cd834 Cd 0.48288 0.46951 0.0395 0.0
Cd835 Cd 0.56 0.53334 0.95083 0.0
C836 C 0.53909 0.43384 0.0358 0.0
N837 N 0.5009 0.42609 0.02272 0.0
C838 C 0.48376 0.36294 -0.00013 0.0
C839 C 0.52308 0.37049 0.01326 0.0
C840 C 0.55093 0.40651 0.03085 0.0
C841 C 0.47322 0.39175 0.00463 0.0
H842 H 0.56027 0.4605 0.05164 0.0
H843 H 0.44289 0.38628 -0.00445 0.0
C844 C 0.46027 0.47328 0.9328 0.0
C845 C 0.52251 0.58596 0.9341 0.0
C846 C 0.50805 0.61173 0.9366 0.0
C847 C 0.52725 0.63991 0.96734 0.0
C848 C 0.56227 0.64322 -0.00631 0.0
C849 C 0.5763 0.61686 0.98945 0.0
N850 N 0.555 0.58793 0.96115 0.0
H851 H 0.50698 0.56335 0.91124 0.0
H852 H 0.60326 0.61884 0.00921 0.0
C853 C 0.55615 0.4547 0.94582 0.0
N854 N 0.58439 0.48923 0.96234 0.0
C855 C 0.634 0.47113 0.96134 0.0
C856 C 0.60539 0.4372 0.93924 0.0
C857 C 0.56596 0.42825 0.9337 0.0
C858 C 0.62277 0.49749 0.97192 0.0
H859 H 0.52594 0.44939 0.93799 0.0
H860 H 0.64456 0.52568 0.98414 0.0
C861 C 0.56475 0.53058 0.04732 0.0
C862 C 0.4593 0.4342 0.10406 0.0
N863 N 0.45315 0.50903 0.02935 0.0
C864 C 0.47363 0.54191 0.0522 0.0
C865 C 0.45525 0.56343 0.05752 0.0
C866 C 0.41535 0.55107 0.03884 0.0
C867 C 0.39573 0.51864 0.01266 0.0
C868 C 0.41523 0.49743 0.00887 0.0
C869 C 0.58567 0.55879 0.88541 0.0
O870 O 0.45862 0.4661 0.96789 0.0
O871 O 0.49197 0.49427 0.92451 0.0
O872 O 0.54979 0.51855 0.01199 0.0
O873 O 0.54553 0.5142 0.0712 0.0
O874 O 0.44015 0.41886 0.06965 0.0
O875 O 0.48804 0.46672 0.10784 0.0
O876 O 0.60748 0.57345 0.91955 0.0
O877 O 0.55196 0.53139 0.88202 0.0
H878 H 0.50324 0.54947 0.06924 0.0
H879 H 0.39939 0.47033 -0.00781 0.0
H880 H 0.46165 0.33504 0.98701 0.0
H881 H 0.58144 0.4128 0.04255 0.0
H882 H 0.48099 0.60858 0.91572 0.0
H883 H 0.57784 0.66508 0.01741 0.0
H884 H 0.66474 0.47883 0.96717 0.0
H885 H 0.54266 0.40291 0.91668 0.0
H886 H 0.47147 0.58747 0.07889 0.0
H887 H 0.36497 0.5081 -0.00221 0.0
Cd888 Cd 0.02223 0.46162 0.56195 0.0
Cd889 Cd 0.02278 0.53522 0.42883 0.0
C890 C 0.07433 0.41963 0.61619 0.0
N891 N 0.06925 0.43368 0.57983 0.0
C892 C 0.11155 0.40981 0.5658 0.0
C893 C 0.11598 0.39407 0.60276 0.0
C894 C 0.09703 0.39954 0.62795 0.0
C895 C 0.08765 0.42915 0.55472 0.0
H896 H 0.06034 0.42328 0.63643 0.0
H897 H 0.08335 0.43993 0.52578 0.0
C898 C 0.97285 0.45039 0.459 0.0
C899 C 0.95387 0.55855 0.37412 0.0
C900 C 0.93106 0.57871 0.36178 0.0
C901 C 0.93043 0.60308 0.38859 0.0
C902 C 0.95181 0.60464 0.42798 0.0
C903 C 0.97415 0.58395 0.4391 0.0
N904 N 0.97551 0.5619 0.41214 0.0
H905 H 0.95547 0.54137 0.35278 0.0
H906 H 0.99161 0.58671 0.46909 0.0
C907 C 0.0349 0.46793 0.39028 0.0
N908 N 0.05089 0.49588 0.41942 0.0
C909 C 0.10856 0.4864 0.44019 0.0
C910 C 0.09292 0.45711 0.41076 0.0
C911 C 0.05556 0.44803 0.3854 0.0
C912 C 0.08704 0.50542 0.44396 0.0
H913 H 1.00636 0.46137 0.37059 0.0
H914 H 0.09952 0.52846 0.46612 0.0
C915 C 0.07189 0.55141 0.53595 0.0
C916 C 0.97231 0.41607 0.60783 0.0
N917 N 1.00135 0.50607 0.57892 0.0
C918 C 1.00721 0.51631 0.61682 0.0
C919 C 0.98815 0.53609 0.62596 0.0
C920 C 0.96364 0.54696 0.59589 0.0
C921 C 0.96073 0.53842 0.55692 0.0
C922 C 0.97912 0.51737 0.54916 0.0
C923 C 0.06319 0.57724 0.37453 0.0
O924 O 0.9984 0.4641 0.49135 0.0
O925 O 0.97427 0.47095 0.42937 0.0
O926 O 0.05224 0.5395 0.50074 0.0
O927 O 0.06919 0.52831 0.56355 0.0
O928 O 0.95976 0.41055 0.57057 0.0
O929 O 1.00732 0.44039 0.6219 0.0
O930 O 0.077 0.58765 0.41096 0.0
O931 O 0.03009 0.54849 0.3638 0.0
H932 H 0.02541 0.50781 0.64032 0.0
H933 H 0.97484 0.50927 0.5192 0.0
H934 H 0.12548 0.40622 0.54524 0.0
H935 H 0.09978 0.38831 0.6568 0.0
H936 H 0.91562 0.57667 0.33108 0.0
H937 H 0.95209 0.62251 0.45004 0.0
H938 H 0.13755 0.49507 0.45982 0.0
H939 H 0.04238 0.42566 0.36233 0.0
H940 H 0.99166 0.54129 0.65652 0.0
H941 H 0.94388 0.54718 0.53223 0.0
Cd942 Cd 0.51238 0.95587 0.54998 0.0
Cd943 Cd 0.5252 0.04011 0.41976 0.0
C944 C 0.56952 0.92535 0.6139 0.0
N945 N 0.55862 0.92796 0.57433 0.0
C946 C 0.59272 0.89179 0.56659 0.0
C947 C 0.60294 0.88735 0.60728 0.0
C948 C 0.59134 0.90514 0.63085 0.0
C949 C 0.57023 0.91188 0.55067 0.0
H950 H 0.56036 0.93814 0.63258 0.0
H951 H 0.56116 0.91362 0.51927 0.0
C952 C 0.47112 0.95138 0.44365 0.0
C953 C 0.44323 0.05375 0.3858 0.0
C954 C 0.42116 0.07458 0.37215 0.0
C955 C 0.43937 0.11495 0.3755 0.0
C956 C 0.47974 0.13286 0.39403 0.0
C957 C 0.50058 0.11103 0.40738 0.0
N958 N 0.48244 0.07212 0.40286 0.0
H959 H 0.4291 0.02292 0.38163 0.0
H960 H 0.53174 0.12538 0.4205 0.0
C961 C 0.53463 0.97846 0.36978 0.0
N962 N 0.54525 0.99521 0.40612 0.0
C963 C 0.58981 0.96786 0.43043 0.0
C964 C 0.58092 0.95156 0.39294 0.0
C965 C 0.55224 0.95641 0.36249 0.0
C966 C 0.5719 0.98988 0.43626 0.0
H967 H 0.51353 0.98329 0.34615 0.0
H968 H 0.5802 0.00369 0.46476 0.0
C969 C 0.56829 0.04656 0.52758 0.0
C970 C 0.45691 0.91059 0.592 0.0
N971 N 0.49269 0.00061 0.56548 0.0
C972 C 0.50794 0.0224 0.59967 0.0
C973 C 0.49311 0.04757 0.6057 0.0
C974 C 0.46231 0.05014 0.5763 0.0
C975 C 0.44667 0.0264 0.54194 0.0
C976 C 0.46231 0.00187 0.53716 0.0
C977 C 0.5762 0.08384 0.37253 0.0
O978 O 0.49272 0.96398 0.47812 0.0
O979 O 0.47393 0.97375 0.41538 0.0
O980 O 0.54892 0.03673 0.49194 0.0
O981 O 0.56271 0.02228 0.55405 0.0
O982 O 0.44843 0.90344 0.55516 0.0
O983 O 0.49076 0.93645 0.60798 0.0
O984 O 0.58785 0.08989 0.40975 0.0
O985 O 0.54093 0.05987 0.35813 0.0
H986 H 0.5318 0.02053 0.62205 0.0
H987 H 0.45005 0.98356 0.51073 0.0
H988 H 0.60071 0.8786 0.54703 0.0
H989 H 0.59883 0.90323 0.66234 0.0
H990 H 0.39033 0.05914 0.35776 0.0
H991 H 0.49538 0.16369 0.39799 0.0
H992 H 0.61092 0.96417 0.45507 0.0
H993 H 0.54451 0.94452 0.33308 0.0
H994 H 0.5062 0.06544 0.63258 0.0
H995 H 0.42236 0.02663 0.51886 0.0
H996 H 0.14777 0.20874 0.27023 0.0
H997 H 0.19006 0.12485 0.26786 0.0
H998 H 0.15835 0.08994 0.31762 0.0
H999 H 0.12762 0.08965 0.36861 0.0
H1000 H 0.08315 0.17198 0.37 0.0
H1001 H 0.10703 0.20193 0.31368 0.0
C1002 C 0.14828 0.1818 0.27944 0.0
C1003 C 0.1705 0.1688 0.26566 0.0
C1004 C 0.1311 0.16281 0.30874 0.0
C1005 C 0.17213 0.13452 0.2778 0.0
C1006 C 0.15478 0.11514 0.30675 0.0
C1007 C 0.12357 0.11437 0.35658 0.0
C1008 C 0.10572 0.13019 0.37397 0.0
C1009 C 0.13597 0.13021 0.32374 0.0
C1010 C 0.0984 0.16071 0.35751 0.0
C1011 C 0.11154 0.17737 0.32525 0.0
H1012 H 0.82144 0.1262 0.44402 0.0
H1013 H 0.9029 0.22271 0.39806 0.0
H1014 H 0.95642 0.2181 0.44612 0.0
H1015 H 0.97965 0.17237 0.48029 0.0
H1016 H 0.89469 0.06223 0.4989 0.0
H1017 H 0.84457 0.08414 0.4834 0.0
C1018 C 0.85078 0.14591 0.44363 0.0
C1019 C 0.85727 0.17123 0.41345 0.0
C1020 C 0.8818 0.13955 0.46718 0.0
C1021 C 0.8957 0.20025 0.4181 0.0
C1022 C 0.92704 0.19763 0.44579 0.0
C1023 C 0.95053 0.15406 0.48271 0.0
C1024 C 0.94119 0.1163 0.49302 0.0
C1025 C 0.92042 0.16494 0.46716 0.0
C1026 C 0.90306 0.09198 0.49411 0.0
C1027 C 0.8741 0.10439 0.48398 0.0
H1028 H 0.82719 0.84875 0.34035 0.0
H1029 H 0.90391 0.84876 0.27545 0.0
H1030 H 0.95929 0.89792 0.32099 0.0
H1031 H 0.98524 0.9423 0.37764 0.0
H1032 H 0.90986 0.94301 0.44351 0.0
H1033 H 0.85417 0.89073 0.39996 0.0
C1034 C 0.85603 0.85974 0.33611 0.0
C1035 C 0.86144 0.84601 0.30398 0.0
C1036 C 0.88775 0.88741 0.36289 0.0
C1037 C 0.89883 0.85998 0.29893 0.0
C1038 C 0.93059 0.88759 0.32539 0.0
C1039 C 0.95663 0.93061 0.38259 0.0
C1040 C 0.95093 0.94618 0.41305 0.0
C1041 C 0.92525 0.90161 0.35719 0.0
C1042 C 0.91433 0.93085 0.42011 0.0
C1043 C 0.88269 0.90148 0.39502 0.0
H1044 H 0.2 0.90796 0.35821 0.0
H1045 H 0.08249 0.82283 0.30889 0.0
H1046 H 0.06073 0.84202 0.35811 0.0
H1047 H 0.07282 0.89191 0.40466 0.0
H1048 H 0.18896 0.98127 0.44965 0.0
H1049 H 0.21418 0.95109 0.41385 0.0
C1050 C 0.16991 0.89311 0.35915 0.0
C1051 C 0.14254 0.86463 0.33005 0.0
C1052 C 0.1575 0.90532 0.38653 0.0
C1053 C 0.10366 0.84521 0.33102 0.0
C1054 C 0.09132 0.85619 0.35902 0.0
C1055 C 0.10383 0.90395 0.40753 0.0
C1056 C 0.129 0.93892 0.42893 0.0
C1057 C 0.11758 0.88754 0.38543 0.0
C1058 C 0.16916 0.95431 0.43316 0.0
C1059 C 0.18344 0.93733 0.41231 0.0
H1060 H 0.14608 0.84477 0.62857 0.0
H1061 H 0.21299 0.89206 0.54487 0.0
H1062 H 0.15285 0.87839 0.49293 0.0
H1063 H 0.08273 0.86172 0.47418 0.0
H1064 H 0.01883 0.81828 0.5608 0.0
H1065 H 0.07586 0.81769 0.60731 0.0
C1066 C 0.14793 0.85084 0.59885 0.0
C1067 C 0.18448 0.87009 0.5911 0.0
C1068 C 0.11342 0.84278 0.56921 0.0
C1069 C 0.18551 0.87828 0.55216 0.0
C1070 C 0.15105 0.8701 0.52228 0.0
C1071 C 0.08106 0.85147 0.50298 0.0
C1072 C 0.0466 0.84143 0.51403 0.0
C1073 C 0.11497 0.85373 0.53088 0.0
C1074 C 0.0446 0.82649 0.55099 0.0
C1075 C 0.07764 0.82685 0.57817 0.0
H1076 H 0.13793 0.13725 0.70305 0.0
H1077 H 0.23804 0.12069 0.70342 0.0
H1078 H 0.19762 0.06752 0.65427 0.0
H1079 H 0.13807 0.03849 0.59995 0.0
H1080 H 0.04066 0.06167 0.59454 0.0
H1081 H 0.0749 0.09898 0.65685 0.0
C1082 C 0.1502 0.12052 0.6937 0.0
C1083 C 0.19036 0.13226 0.70624 0.0
C1084 C 0.12726 0.0918 0.66378 0.0
C1085 C 0.20682 0.11148 0.69384 0.0
C1086 C 0.18387 0.08156 0.66545 0.0
C1087 C 0.12406 0.05053 0.61348 0.0
C1088 C 0.08693 0.04698 0.59368 0.0
C1089 C 0.14468 0.07333 0.64836 0.0
C1090 C 0.0688 0.06312 0.61037 0.0
C1091 C 0.0886 0.0849 0.64566 0.0
H1092 H 0.92228 0.15909 0.65109 0.0
H1093 H 0.80831 0.0741 0.65441 0.0
H1094 H 0.81082 0.03094 0.60977 0.0
H1095 H 0.85016 0.01413 0.57834 0.0
H1096 H 0.96588 0.09889 0.57973 0.0
H1097 H 0.95787 0.14547 0.61342 0.0
C1098 C 0.89789 0.13121 0.6417 0.0
C1099 C 0.86566 0.11924 0.65654 0.0
C1100 C 0.90003 0.10641 0.61713 0.0
C1101 C 0.83363 0.08363 0.64347 0.0
C1102 C 0.83516 0.05893 0.61818 0.0
C1103 C 0.87322 0.04298 0.58549 0.0
C1104 C 0.9088 0.05283 0.5774 0.0
C1105 C 0.8689 0.06945 0.6061 0.0
C1106 C 0.93853 0.09039 0.58657 0.0
C1107 C 0.93399 0.11711 0.60573 0.0
H1108 H 0.89888 0.79691 0.71128 0.0
H1109 H 0.83711 0.86534 0.70383 0.0
H1110 H 0.87615 0.91011 0.66419 0.0
H1111 H 0.92014 0.92358 0.62335 0.0
H1112 H 0.98201 0.85565 0.62894 0.0
H1113 H 0.9515 0.81709 0.67843 0.0
C1114 C 0.89517 0.82241 0.70198 0.0
C1115 C 0.86578 0.82839 0.71048 0.0
C1116 C 0.9174 0.84769 0.67868 0.0
C1117 C 0.86023 0.86086 0.69804 0.0
C1118 C 0.88224 0.88619 0.6751 0.0
C1119 C 0.92764 0.90094 0.63634 0.0
C1120 C 0.95278 0.89193 0.62289 0.0
C1121 C 0.90979 0.87903 0.66407 0.0
C1122 C 0.96269 0.86283 0.6394 0.0
C1123 C 0.94505 0.84075 0.66732 0.0
H1124 H 0.29646 0.04418 0.10145 0.0
H1125 H 0.38486 0.16069 0.11358 0.0
H1126 H 0.43237 0.13857 0.10848 0.0
H1127 H 0.44735 0.08603 0.09573 0.0
H1128 H 0.35814 0.9697 0.08413 0.0
H1129 H 0.31241 0.99196 0.09322 0.0
C1130 C 0.32613 0.06476 0.10294 0.0
C1131 C 0.33693 0.10404 0.10739 0.0
C1132 C 0.3531 0.05188 0.09966 0.0
C1133 C 0.37576 0.13027 0.11023 0.0
C1134 C 0.40289 0.11764 0.10707 0.0
C1135 C 0.41806 0.06553 0.09569 0.0
C1136 C 0.40609 0.02627 0.0885 0.0
C1137 C 0.39171 0.0785 0.10113 0.0
C1138 C 0.36794 0.00013 0.08855 0.0
C1139 C 0.34177 0.01278 0.09403 0.0
H1140 H 0.80638 0.30743 0.14929 0.0
H1141 H 0.87264 0.38779 0.24923 0.0
H1142 H 0.92457 0.42205 0.21733 0.0
H1143 H 0.95252 0.42709 0.16256 0.0
H1144 H 0.88611 0.3472 0.06196 0.0
H1145 H 0.83306 0.31441 0.09276 0.0
C1146 C 0.83238 0.33216 0.16421 0.0
C1147 C 0.83652 0.34416 0.20227 0.0
C1148 C 0.86204 0.35174 0.14555 0.0
C1149 C 0.86936 0.37749 0.22038 0.0
C1150 C 0.89901 0.39705 0.20213 0.0
C1151 C 0.92652 0.40242 0.14734 0.0
C1152 C 0.92359 0.38936 0.11012 0.0
C1153 C 0.89599 0.38401 0.16504 0.0
C1154 C 0.88929 0.35777 0.09065 0.0
C1155 C 0.85885 0.33912 0.10819 0.0
H1156 H 0.64925 0.74432 0.16028 0.0
H1157 H 0.7638 0.83857 0.19254 0.0
H1158 H 0.73673 0.88209 0.15898 0.0
H1159 H 0.67872 0.89395 0.12463 0.0
H1160 H 0.56452 0.79805 0.0964 0.0
H1161 H 0.59309 0.75517 0.12426 0.0
C1162 C 0.66851 0.77435 0.15953 0.0
C1163 C 0.70862 0.788 0.17884 0.0
C1164 C 0.65253 0.79919 0.14121 0.0
C1165 C 0.73297 0.82705 0.1776 0.0
C1166 C 0.71731 0.85202 0.15871 0.0
C1167 C 0.66006 0.86367 0.12445 0.0
C1168 C 0.61917 0.84964 0.10771 0.0
C1169 C 0.67686 0.8386 0.14116 0.0
C1170 C 0.5959 0.81006 0.10794 0.0
C1171 C 0.61226 0.7853 0.12424 0.0
H1172 H 0.23032 0.66397 0.13463 0.0
H1173 H 0.16558 0.73083 0.10513 0.0
H1174 H 0.11745 0.68375 0.05258 0.0
H1175 H 0.08657 0.61661 0.02615 0.0
H1176 H 0.15065 0.5493 0.05905 0.0
H1177 H 0.20682 0.60382 0.09798 0.0
C1178 C 0.20608 0.66868 0.11631 0.0
C1179 C 0.20035 0.69984 0.12523 0.0
C1180 C 0.17832 0.64118 0.0866 0.0
C1181 C 0.1698 0.70633 0.10004 0.0
C1182 C 0.14226 0.67937 0.06983 0.0
C1183 C 0.11352 0.61461 0.04049 0.0
C1184 C 0.11467 0.57922 0.04037 0.0
C1185 C 0.14502 0.64558 0.06443 0.0
C1186 C 0.14937 0.57646 0.05915 0.0
C1187 C 0.18127 0.60745 0.08168 0.0
H1188 H 0.31428 0.8194 0.88001 0.0
H1189 H 0.39281 0.7857 0.84904 0.0
H1190 H 0.44711 0.8306 0.89965 0.0
H1191 H 0.47426 0.8917 0.93751 0.0
H1192 H 0.39658 0.9347 0.95488 0.0
H1193 H 0.34044 0.87504 0.92582 0.0
C1194 C 0.3433 0.82263 0.88378 0.0
C1195 C 0.35002 0.8021 0.85841 0.0
C1196 C 0.37475 0.85069 0.91062 0.0
C1197 C 0.38704 0.80271 0.86686 0.0
C1198 C 0.41824 0.82856 0.89569 0.0
C1199 C 0.44494 0.88722 0.93591 0.0
C1200 C 0.43912 0.91683 0.94848 0.0
C1201 C 0.41285 0.85472 0.91541 0.0
C1202 C 0.4014 0.91169 0.9459 0.0
C1203 C 0.36934 0.87792 0.92863 0.0
H1204 H 0.12156 0.34182 0.81584 0.0
H1205 H 0.17742 0.343 0.9387 0.0
H1206 H 0.15535 0.38817 0.95398 0.0
H1207 H 0.11633 0.42346 0.93353 0.0
H1208 H 0.06052 0.42404 0.81084 0.0
H1209 H 0.08557 0.38161 0.79462 0.0
C1210 C 0.12936 0.35253 0.84581 0.0
C1211 C 0.15093 0.33886 0.87615 0.0
C1212 C 0.11593 0.37825 0.85457 0.0
C1213 C 0.16061 0.35281 0.9149 0.0
C1214 C 0.1479 0.37858 0.92368 0.0
C1215 C 0.11009 0.41499 0.90309 0.0
C1216 C 0.08632 0.4271 0.87358 0.0
C1217 C 0.1249 0.3909 0.89391 0.0
C1218 C 0.07809 0.41481 0.83441 0.0
C1219 C 0.09272 0.39073 0.82502 0.0
H1220 H 0.73084 0.22225 0.85654 0.0
H1221 H 0.65775 0.17127 0.74194 0.0
H1222 H 0.60877 0.12321 0.77086 0.0
H1223 H 0.58467 0.09932 0.82844 0.0
H1224 H 0.65627 0.15289 0.94304 0.0
H1225 H 0.70796 0.19629 0.91463 0.0
C1226 C 0.70451 0.19998 0.83818 0.0
C1227 C 0.69815 0.19931 0.79743 0.0
C1228 C 0.67605 0.17341 0.85499 0.0
C1229 C 0.66351 0.17142 0.77349 0.0
C1230 C 0.63543 0.14428 0.79001 0.0
C1231 C 0.61158 0.12047 0.84723 0.0
C1232 C 0.61634 0.12324 0.88773 0.0
C1233 C 0.64102 0.14557 0.83066 0.0
C1234 C 0.65161 0.1505 0.9117 0.0
C1235 C 0.68126 0.17523 0.89551 0.0
H1236 H 0.864 0.72745 0.78981 0.0
H1237 H 0.76555 0.64902 0.82898 0.0
H1238 H 0.80323 0.61609 0.86558 0.0
H1239 H 0.86242 0.60548 0.8822 0.0
H1240 H 0.96022 0.68168 0.84041 0.0
H1241 H 0.92509 0.71884 0.80974 0.0
C1242 C 0.85133 0.70406 0.80754 0.0
C1243 C 0.81213 0.69165 0.80754 0.0
C1244 C 0.87297 0.68398 0.82757 0.0
C1245 C 0.79585 0.65999 0.82927 0.0
C1246 C 0.8173 0.64072 0.84987 0.0
C1247 C 0.87621 0.63019 0.86644 0.0
C1248 C 0.91437 0.64035 0.86408 0.0
C1249 C 0.85559 0.6517 0.84843 0.0
C1250 C 0.93134 0.673 0.84358 0.0
C1251 C 0.91107 0.69441 0.8257 0.0
H1252 H 0.25132 0.34474 0.14781 0.0
H1253 H 0.17436 0.25663 0.20491 0.0
H1254 H 0.12447 0.27961 0.17942 0.0
H1255 H 0.10393 0.32766 0.14377 0.0
H1256 H 0.18016 0.41339 0.08376 0.0
H1257 H 0.22815 0.38812 0.10652 0.0
C1258 C 0.22317 0.32988 0.15371 0.0
C1259 C 0.21652 0.29849 0.17775 0.0
C1260 C 0.19434 0.34312 0.13855 0.0
C1261 C 0.18007 0.28012 0.18571 0.0
C1262 C 0.15162 0.29364 0.17147 0.0
C1263 C 0.131 0.34081 0.13557 0.0
C1264 C 0.13816 0.37282 0.11208 0.0
C1265 C 0.15862 0.32561 0.14838 0.0
C1266 C 0.17339 0.3888 0.10149 0.0
C1267 C 0.2011 0.37439 0.11469 0.0
H1268 H 0.16755 0.67237 0.76005 0.0
H1269 H 0.25771 0.73024 0.865 0.0
H1270 H 0.21194 0.69881 0.90449 0.0
H1271 H 0.14743 0.65104 0.90956 0.0
H1272 H 0.05826 0.59087 0.8044 0.0
H1273 H 0.1022 0.62674 0.7648 0.0
C1274 C 0.17677 0.67854 0.79148 0.0
C1275 C 0.21547 0.70416 0.80968 0.0
C1276 C 0.15063 0.65937 0.81406 0.0
C1277 C 0.22772 0.7111 0.85048 0.0
C1278 C 0.20166 0.69294 0.87303 0.0
C1279 C 0.13752 0.646 0.87797 0.0
C1280 C 0.09958 0.61811 0.86013 0.0
C1281 C 0.1632 0.66642 0.85524 0.0
C1282 C 0.08729 0.61203 0.81907 0.0
C1283 C 0.11245 0.63249 0.79629 0.0
H1284 H 0.28503 0.13879 0.79839 0.0
H1285 H 0.37277 0.25497 0.825 0.0
H1286 H 0.42011 0.23255 0.86382 0.0
H1287 H 0.43875 0.1788 0.88352 0.0
H1288 H 0.34988 0.0628 0.85279 0.0
H1289 H 0.3018 0.08608 0.82199 0.0
C1290 C 0.31414 0.1593 0.81396 0.0
C1291 C 0.32458 0.19868 0.81001 0.0
C1292 C 0.34172 0.146 0.83452 0.0
C1293 C 0.3631 0.22467 0.82894 0.0
C1294 C 0.39051 0.21167 0.85049 0.0
C1295 C 0.40878 0.15851 0.87062 0.0
C1296 C 0.3987 0.11872 0.87022 0.0
C1297 C 0.38054 0.17225 0.85255 0.0
C1298 C 0.35937 0.0934 0.85296 0.0
C1299 C 0.33147 0.10673 0.83551 0.0
H1300 H 0.87192 0.29639 0.87258 0.0
H1301 H 0.78512 0.33896 0.84107 0.0
H1302 H 0.82481 0.39084 0.89115 0.0
H1303 H 0.89062 0.4325 0.93035 0.0
H1304 H 0.97866 0.39172 0.9614 0.0
H1305 H 0.932 0.3302 0.92594 0.0
C1306 C 0.86116 0.3161 0.87764 0.0
C1307 C 0.82654 0.3148 0.85222 0.0
C1308 C 0.88468 0.34655 0.90603 0.0
C1309 C 0.81248 0.34026 0.85955 0.0
C1310 C 0.83511 0.36996 0.88815 0.0
C1311 C 0.89891 0.40942 0.93071 0.0
C1312 C 0.93771 0.41633 0.94759 0.0
C1313 C 0.87234 0.37481 0.90956 0.0
C1314 C 0.94865 0.38663 0.94836 0.0
C1315 C 0.92214 0.35171 0.92771 0.0
H1316 H 0.67607 0.8967 0.8217 0.0
H1317 H 0.72222 0.88351 0.94382 0.0
H1318 H 0.67916 0.9047 0.96146 0.0
H1319 H 0.63153 0.93071 0.94322 0.0
H1320 H 0.5865 0.94719 0.82178 0.0
H1321 H 0.62483 0.92014 0.80292 0.0
C1322 C 0.6761 0.89785 0.85204 0.0
C1323 C 0.70256 0.8887 0.88144 0.0
C1324 C 0.65148 0.9108 0.8622 0.0
C1325 C 0.70243 0.89065 0.92067 0.0
C1326 C 0.67781 0.90281 0.93082 0.0
C1327 C 0.63011 0.92862 0.91258 0.0
C1328 C 0.60629 0.94152 0.88415 0.0
C1329 C 0.65284 0.91375 0.90198 0.0
C1330 C 0.60426 0.93741 0.84447 0.0
C1331 C 0.62648 0.92214 0.83362 0.0
H1332 H 0.9532 0.69933 0.1265 0.0
H1333 H 0.83711 0.61061 0.11603 0.0
H1334 H 0.85871 0.56195 0.11002 0.0
H1335 H 0.90999 0.54493 0.10449 0.0
H1336 H 0.02602 0.63394 0.11477 0.0
H1337 H 1.00519 0.68207 0.12454 0.0
C1338 C 0.93265 0.66932 0.12288 0.0
C1339 C 0.89353 0.65863 0.12131 0.0
C1340 C 0.94529 0.64155 0.11947 0.0
C1341 C 0.86739 0.61959 0.11742 0.0
C1342 C 0.8797 0.59178 0.11381 0.0
C1343 C 0.93072 0.57487 0.10889 0.0
C1344 C 0.96949 0.5858 0.10866 0.0
C1345 C 0.91847 0.60247 0.11427 0.0
C1346 C 0.99613 0.62467 0.11512 0.0
C1347 C 0.98416 0.65226 0.12043 0.0
H1348 H 0.39633 0.84212 0.24523 0.0
H1349 H 0.2898 0.80094 0.15134 0.0
H1350 H 0.32667 0.83132 0.10382 0.0
H1351 H 0.39016 0.86496 0.0885 0.0
H1352 H 0.4963 0.90426 0.1832 0.0
H1353 H 0.45879 0.87857 0.23063 0.0
C1354 C 0.38117 0.84032 0.21439 0.0
C1355 C 0.34049 0.81936 0.20182 0.0
C1356 C 0.40263 0.85665 0.18723 0.0
C1357 C 0.32111 0.8172 0.16184 0.0
C1358 C 0.34225 0.83418 0.13459 0.0
C1359 C 0.405 0.86751 0.11948 0.0
C1360 C 0.44599 0.88581 0.13222 0.0
C1361 C 0.38315 0.85297 0.14683 0.0
C1362 C 0.46481 0.88986 0.17256 0.0
C1363 C 0.44339 0.87538 0.19977 0.0
H1364 H 0.68337 0.16948 0.18124 0.0
H1365 H 0.70442 0.24147 0.08509 0.0
H1366 H 0.65723 0.1865 0.03824 0.0
H1367 H 0.61108 0.11654 0.02632 0.0
H1368 H 0.60116 0.04695 0.12685 0.0
H1369 H 0.64428 0.10227 0.17035 0.0
C1370 C 0.67767 0.17316 0.15003 0.0
C1371 C 0.6966 0.2089 0.13632 0.0
C1372 C 0.65306 0.14169 0.12419 0.0
C1373 C 0.68957 0.21376 0.09593 0.0
C1374 C 0.66293 0.18243 0.0694 0.0
C1375 C 0.61857 0.11365 0.05769 0.0
C1376 C 0.60227 0.07755 0.07305 0.0
C1377 C 0.64469 0.14597 0.08332 0.0
C1378 C 0.61269 0.07419 0.11385 0.0
C1379 C 0.63738 0.10588 0.13907 0.0
H1380 H 0.6655 0.62561 0.75281 0.0
H1381 H 0.65924 0.72505 0.789 0.0
H1382 H 0.61785 0.68656 0.83007 0.0
H1383 H 0.59462 0.62792 0.86446 0.0
H1384 H 0.60188 0.52847 0.83015 0.0
H1385 H 0.63137 0.56336 0.77851 0.0
C1386 C 0.65336 0.63831 0.76798 0.0
C1387 C 0.66493 0.6778 0.76788 0.0
C1388 C 0.63078 0.61624 0.79248 0.0
C1389 C 0.65034 0.6945 0.78881 0.0
C1390 C 0.62707 0.67265 0.81248 0.0
C1391 C 0.6021 0.6139 0.84506 0.0
C1392 C 0.59727 0.57646 0.85099 0.0
C1393 C 0.61894 0.63405 0.81604 0.0
C1394 C 0.60609 0.55769 0.82585 0.0
C1395 C 0.62285 0.57758 0.79655 0.0
H1396 H 0.37231 0.63638 0.93202 0.0
H1397 H 0.41515 0.70021 0.83743 0.0
H1398 H 0.48133 0.71782 0.87566 0.0
H1399 H 0.52456 0.69902 0.92597 0.0
H1400 H 0.4819 0.62737 0.01541 0.0
H1401 H 0.41893 0.62928 0.98987 0.0
C1402 C 0.39612 0.65464 0.92002 0.0
C1403 C 0.38819 0.66609 0.88148 0.0
C1404 C 0.43461 0.66311 0.94137 0.0
C1405 C 0.4197 0.69085 0.86698 0.0
C1406 C 0.45797 0.70082 0.88876 0.0
C1407 C 0.50234 0.68617 0.94145 0.0
C1408 C 0.50708 0.66237 0.97176 0.0
C1409 C 0.46556 0.6851 0.92481 0.0
C1410 C 0.47845 0.64566 -0.00816 0.0
C1411 C 0.44223 0.64608 0.97671 0.0
H1412 H 0.30857 0.35099 0.82518 0.0
H1413 H 0.38618 0.37049 0.75387 0.0
H1414 H 0.43558 0.42643 0.79621 0.0
H1415 H 0.45965 0.46222 0.85887 0.0
H1416 H 0.38443 0.43563 0.9346 0.0
H1417 H 0.33037 0.39 0.88447 0.0
C1418 C 0.33598 0.36768 0.81831 0.0
C1419 C 0.34417 0.35601 0.78691 0.0
C1420 C 0.36457 0.39832 0.84378 0.0
C1421 C 0.37967 0.37827 0.77839 0.0
C1422 C 0.4078 0.41029 0.80256 0.0
C1423 C 0.43121 0.44711 0.86413 0.0
C1424 C 0.42601 0.45193 0.90048 0.0
C1425 C 0.40108 0.41944 0.83625 0.0
C1426 C 0.38911 0.43219 0.90692 0.0
C1427 C 0.3583 0.40602 0.87837 0.0
H1428 H 0.6022 0.33459 0.80995 0.0
H1429 H 0.69834 0.43959 0.79725 0.0
H1430 H 0.69789 0.4685 0.85597 0.0
H1431 H 0.66491 0.4656 0.90527 0.0
H1432 H 0.56713 0.36003 0.91602 0.0
H1433 H 0.5744 0.32936 0.86456 0.0
C1434 C 0.62285 0.36384 0.82018 0.0
C1435 C 0.64926 0.38571 0.79911 0.0
C1436 C 0.6225 0.37991 0.85377 0.0
C1437 C 0.67701 0.42299 0.81282 0.0
C1438 C 0.67692 0.43925 0.84638 0.0
C1439 C 0.64595 0.43553 0.89757 0.0
C1440 C 0.61563 0.41553 0.91523 0.0
C1441 C 0.64912 0.41821 0.86652 0.0
C1442 C 0.59099 0.37662 0.9037 0.0
C1443 C 0.59474 0.3589 0.87367 0.0
H1444 H 0.6241 0.30518 0.10598 0.0
H1445 H 0.69311 0.36953 0.02791 0.0
H1446 H 0.63488 0.36889 0.98159 0.0
H1447 H 0.57277 0.36994 0.97749 0.0
H1448 H 0.50589 0.30821 0.05641 0.0
H1449 H 0.55513 0.28625 0.08822 0.0
C1450 C 0.6269 0.31749 0.07818 0.0
C1451 C 0.6639 0.33965 0.07182 0.0
C1452 C 0.59347 0.31751 0.05201 0.0
C1453 C 0.66554 0.35436 0.03483 0.0
C1454 C 0.63211 0.35376 0.00809 0.0
C1455 C 0.56737 0.3488 -0.00108 0.0
C1456 C 0.53624 0.34071 0.01453 0.0
C1457 C 0.59683 0.3383 0.01813 0.0
C1458 C 0.52983 0.31469 0.04396 0.0
C1459 C 0.55839 0.30279 0.06258 0.0
H1460 H 0.71833 0.62602 0.16608 0.0
H1461 H 0.6421 0.66552 0.19395 0.0
H1462 H 0.59157 0.63286 0.13445 0.0
H1463 H 0.56892 0.59219 0.07627 0.0
H1464 H 0.63894 0.54234 0.0532 0.0
H1465 H 0.69438 0.58328 0.10687 0.0
C1466 C 0.69 0.62607 0.15959 0.0
C1467 C 0.68293 0.64657 0.18472 0.0
C1468 C 0.66143 0.60761 0.12517 0.0
C1469 C 0.64708 0.64811 0.17591 0.0
C1470 C 0.61882 0.63059 0.14133 0.0
C1471 C 0.59677 0.59117 0.08249 0.0
C1472 C 0.60041 0.5647 0.06158 0.0
C1473 C 0.6259 0.6106 0.11581 0.0
C1474 C 0.63621 0.56331 0.06891 0.0
C1475 C 0.66721 0.58565 0.10024 0.0
H1476 H 0.33301 0.58068 0.14767 0.0
H1477 H 0.42866 0.6927 0.15784 0.0
H1478 H 0.44519 0.6755 0.1028 0.0
H1479 H 0.43817 0.62534 0.0599 0.0
H1480 H 0.34437 0.51196 0.05307 0.0
H1481 H 0.31993 0.53349 0.09718 0.0
C1482 C 0.35722 0.60121 0.1374 0.0
C1483 C 0.38053 0.63723 0.15688 0.0
C1484 C 0.36642 0.59107 0.10617 0.0
C1485 C 0.41116 0.66444 0.14332 0.0
C1486 C 0.42037 0.65469 0.11193 0.0
C1487 C 0.41175 0.60559 0.06714 0.0
C1488 C 0.39362 0.56699 0.05364 0.0
C1489 C 0.39902 0.61759 0.09416 0.0
C1490 C 0.35899 0.5419 0.06281 0.0
C1491 C 0.34529 0.55399 0.08865 0.0
H1492 H 0.38915 0.36487 0.24155 0.0
H1493 H 0.36924 0.26204 0.18323 0.0
H1494 H 0.41209 0.29964 0.14327 0.0
H1495 H 0.44046 0.36071 0.11454 0.0
H1496 H 0.45864 0.46407 0.17038 0.0
H1497 H 0.43136 0.4275 0.22239 0.0
C1498 C 0.39561 0.35084 0.22137 0.0
C1499 C 0.37557 0.31116 0.21425 0.0
C1500 C 0.4188 0.37271 0.19739 0.0
C1501 C 0.38404 0.29285 0.18825 0.0
C1502 C 0.4082 0.31426 0.1653 0.0
C1503 C 0.43886 0.3751 0.13849 0.0
C1504 C 0.44954 0.41424 0.13829 0.0
C1505 C 0.42321 0.35406 0.16771 0.0
C1506 C 0.44927 0.43346 0.16989 0.0
C1507 C 0.43385 0.41268 0.19948 0.0
H1508 H 0.8751 0.6213 0.66187 0.0
H1509 H 0.79786 0.58481 0.54494 0.0
H1510 H 0.83944 0.56076 0.52956 0.0
H1511 H 0.89465 0.54587 0.54984 0.0
H1512 H 0.97819 0.58977 0.66295 0.0
H1513 H 0.93683 0.61404 0.6791 0.0
C1514 C 0.86767 0.60865 0.63285 0.0
C1515 C 0.83237 0.60385 0.60518 0.0
C1516 C 0.89254 0.59547 0.6235 0.0
C1517 C 0.8238 0.58766 0.56756 0.0
C1518 C 0.84779 0.57402 0.55849 0.0
C1519 C 0.90494 0.56162 0.57771 0.0
C1520 C 0.93996 0.56517 0.60498 0.0
C1521 C 0.88183 0.5771 0.58641 0.0
C1522 C 0.95114 0.58513 0.64133 0.0
C1523 C 0.92757 0.5996 0.65061 0.0
H1524 H 0.35787 0.85967 0.71469 0.0
H1525 H 0.27336 0.77822 0.62053 0.0
H1526 H 0.31822 0.8046 0.57912 0.0
H1527 H 0.38281 0.85068 0.57053 0.0
H1528 H 0.46717 0.93019 0.66718 0.0
H1529 H 0.4216 0.90459 0.70665 0.0
C1530 C 0.34968 0.84734 0.68532 0.0
C1531 C 0.31329 0.81605 0.67115 0.0
C1532 C 0.37564 0.8625 0.662 0.0
C1533 C 0.30183 0.80169 0.63231 0.0
C1534 C 0.32745 0.8168 0.60869 0.0
C1535 C 0.39123 0.86221 0.60026 0.0
C1536 C 0.42859 0.89235 0.61567 0.0
C1537 C 0.36472 0.84705 0.62336 0.0
C1538 C 0.43884 0.90695 0.65436 0.0
C1539 C 0.41266 0.89249 0.67706 0.0
H1540 H 0.23789 0.32394 0.67154 0.0
H1541 H 0.13124 0.22636 0.67697 0.0
H1542 H 0.09403 0.26154 0.64863 0.0
H1543 H 0.09067 0.32078 0.62485 0.0
H1544 H 0.19373 0.41616 0.60931 0.0
H1545 H 0.2326 0.38099 0.63704 0.0
C1546 C 0.20645 0.30996 0.66542 0.0
C1547 C 0.18786 0.2722 0.67703 0.0
C1548 C 0.1842 0.3301 0.64707 0.0
C1549 C 0.14687 0.25523 0.66894 0.0
C1550 C 0.12524 0.27541 0.65261 0.0
C1551 C 0.12159 0.33379 0.62716 0.0
C1552 C 0.1392 0.37133 0.61538 0.0
C1553 C 0.1435 0.313 0.6421 0.0
C1554 C 0.17931 0.38741 0.61822 0.0
C1555 C 0.20162 0.36728 0.63429 0.0
H1556 H 0.71948 0.18612 0.61089 0.0
H1557 H 0.6417 0.1875 0.67345 0.0
H1558 H 0.58577 0.1405 0.62543 0.0
H1559 H 0.56117 0.09238 0.57243 0.0
H1560 H 0.63821 0.08682 0.51158 0.0
H1561 H 0.69244 0.14344 0.55077 0.0
C1562 C 0.6901 0.17638 0.61331 0.0
C1563 C 0.68411 0.18913 0.64551 0.0
C1564 C 0.65829 0.14908 0.58584 0.0
C1565 C 0.64641 0.17715 0.64888 0.0
C1566 C 0.61462 0.15057 0.62147 0.0
C1567 C 0.58965 0.10441 0.56714 0.0
C1568 C 0.59635 0.0859 0.53992 0.0
C1569 C 0.62046 0.13539 0.59077 0.0
C1570 C 0.63288 0.1012 0.53258 0.0
C1571 C 0.66379 0.13308 0.55528 0.0
H1572 H 0.87027 0.28994 0.38086 0.0
H1573 H 0.83102 0.36465 0.30628 0.0
H1574 H 0.85958 0.41266 0.35896 0.0
H1575 H 0.90128 0.43692 0.42252 0.0
H1576 H 0.97051 0.38049 0.48351 0.0
H1577 H 0.92336 0.32055 0.44404 0.0
C1578 C 0.8687 0.31702 0.37639 0.0
C1579 C 0.84639 0.32308 0.34062 0.0
C1580 C 0.88979 0.34703 0.40571 0.0
C1581 C 0.84589 0.35861 0.33427 0.0
C1582 C 0.86221 0.38613 0.36443 0.0
C1583 C 0.90551 0.41111 0.42772 0.0
C1584 C 0.93937 0.41301 0.45452 0.0
C1585 C 0.88426 0.38068 0.40012 0.0
C1586 C 0.94448 0.37955 0.4624 0.0
C1587 C 0.91832 0.34581 0.439 0.0
H1588 H 0.69233 0.87533 0.39401 0.0
H1589 H 0.58751 0.79239 0.31601 0.0
H1590 H 0.55368 0.83163 0.31747 0.0
H1591 H 0.55256 0.88667 0.34606 0.0
H1592 H 0.65825 0.96988 0.42376 0.0
H1593 H 0.6929 0.93334 0.41771 0.0
C1594 C 0.66228 0.86634 0.37689 0.0
C1595 C 0.64225 0.83129 0.35493 0.0
C1596 C 0.64301 0.88874 0.37842 0.0
C1597 C 0.60331 0.81947 0.333 0.0
C1598 C 0.58401 0.84177 0.33402 0.0
C1599 C 0.58331 0.89716 0.36117 0.0
C1600 C 0.60243 0.93063 0.38599 0.0
C1601 C 0.60331 0.87606 0.35738 0.0
C1602 C 0.64236 0.94364 0.40538 0.0
C1603 C 0.66238 0.92292 0.40171 0.0
H1604 H 0.12994 0.65239 0.23229 0.0
H1605 H 0.23362 0.70997 0.32692 0.0
H1606 H 0.19998 0.67293 0.37431 0.0
H1607 H 0.13945 0.62805 0.38937 0.0
H1608 H 0.03581 0.56916 0.29485 0.0
H1609 H 0.07097 0.60258 0.247 0.0
C1610 C 0.14518 0.65628 0.26328 0.0
C1611 C 0.18414 0.68367 0.27612 0.0
C1612 C 0.12552 0.63504 0.29043 0.0
C1613 C 0.20377 0.68869 0.31626 0.0
C1614 C 0.18443 0.66774 0.34344 0.0
C1615 C 0.12456 0.62259 0.35831 0.0
C1616 C 0.0849 0.59687 0.34573 0.0
C1617 C 0.14503 0.64156 0.33094 0.0
C1618 C 0.06622 0.58933 0.30534 0.0
C1619 C 0.0863 0.60834 0.27793 0.0
H1620 H 0.36585 0.22559 0.28655 0.0
H1621 H 0.2659 0.14203 0.32008 0.0
H1622 H 0.30411 0.10947 0.35627 0.0
H1623 H 0.36422 0.10064 0.37358 0.0
H1624 H 0.46406 0.18246 0.33823 0.0
H1625 H 0.4282 0.21923 0.3083 0.0
C1626 C 0.35293 0.20111 0.30299 0.0
C1627 C 0.3131 0.18694 0.30133 0.0
C1628 C 0.375 0.18142 0.32291 0.0
C1629 C 0.29658 0.15413 0.32155 0.0
C1630 C 0.31837 0.13513 0.34191 0.0
C1631 C 0.37829 0.12651 0.35939 0.0
C1632 C 0.41714 0.13828 0.35842 0.0
C1633 C 0.35731 0.14775 0.3419 0.0
C1634 C 0.43454 0.17245 0.34012 0.0
C1635 C 0.41388 0.19362 0.32269 0.0
H1636 H 0.67745 0.78139 0.70579 0.0
H1637 H 0.76272 0.83963 0.64249 0.0
H1638 H 0.72315 0.87012 0.60428 0.0
H1639 H 0.6672 0.88574 0.59294 0.0
H1640 H 0.58665 0.83468 0.66292 0.0
H1641 H 0.62126 0.79715 0.69449 0.0
C1642 C 0.68651 0.79956 0.68253 0.0
C1643 C 0.72193 0.80595 0.67522 0.0
C1644 C 0.66482 0.81955 0.66255 0.0
C1645 C 0.73457 0.83215 0.64711 0.0
C1646 C 0.71222 0.85029 0.6257 0.0
C1647 C 0.65687 0.86605 0.61472 0.0
C1648 C 0.62405 0.86333 0.62526 0.0
C1649 C 0.67765 0.84497 0.63368 0.0
C1650 C 0.61184 0.83791 0.65421 0.0
C1651 C 0.6316 0.81614 0.67225 0.0
H1652 H 0.66495 0.13924 0.2406 0.0
H1653 H 0.75273 0.21943 0.33449 0.0
H1654 H 0.71281 0.18918 0.37938 0.0
H1655 H 0.65064 0.14222 0.3911 0.0
H1656 H 0.56126 0.06456 0.2957 0.0
H1657 H 0.60354 0.09143 0.25264 0.0
C1658 C 0.6753 0.14991 0.27092 0.0
C1659 C 0.71106 0.18241 0.28379 0.0
C1660 C 0.65168 0.1328 0.29646 0.0
C1661 C 0.72459 0.19542 0.32341 0.0
C1662 C 0.70188 0.17788 0.34925 0.0
C1663 C 0.64046 0.13113 0.36094 0.0
C1664 C 0.60258 0.10154 0.34677 0.0
C1665 C 0.66489 0.1471 0.33591 0.0
C1666 C 0.59003 0.08758 0.30748 0.0
C1667 C 0.61433 0.10274 0.28276 0.0
H1668 H 0.88124 0.73871 0.34289 0.0
H1669 H 0.77994 0.64976 0.26725 0.0
H1670 H 0.805 0.60291 0.29318 0.0
H1671 H 0.85879 0.58818 0.33459 0.0
H1672 H 0.95825 0.67795 0.4121 0.0
H1673 H 0.93062 0.72276 0.38908 0.0
C1674 C 0.86406 0.7088 0.33297 0.0
C1675 C 0.82837 0.69777 0.30364 0.0
C1676 C 0.87862 0.682 0.34826 0.0
C1677 C 0.80692 0.65899 0.29052 0.0
C1678 C 0.82159 0.63224 0.30505 0.0
C1679 C 0.87436 0.61748 0.34662 0.0
C1680 C 0.91093 0.62929 0.37526 0.0
C1681 C 0.8579 0.64352 0.33343 0.0
C1682 C 0.93011 0.66751 0.39051 0.0
C1683 C 0.91436 0.69343 0.37715 0.0
H1684 H 0.37257 0.79724 0.35112 0.0
H1685 H 0.28052 0.82529 0.35555 0.0
H1686 H 0.32618 0.87607 0.40618 0.0
H1687 H 0.39452 0.9206 0.43717 0.0
H1688 H 0.48662 0.89469 0.42801 0.0
H1689 H 0.43879 0.83406 0.39188 0.0
C1690 C 0.36213 0.81307 0.36458 0.0
C1691 C 0.32347 0.8076 0.35002 0.0
C1692 C 0.38881 0.84297 0.39232 0.0
C1693 C 0.31041 0.82935 0.3665 0.0
C1694 C 0.33649 0.8584 0.39521 0.0
C1695 C 0.40374 0.9007 0.42864 0.0
C1696 C 0.44349 0.91134 0.43512 0.0
C1697 C 0.37613 0.86676 0.40669 0.0
C1698 C 0.45585 0.88628 0.4236 0.0
C1699 C 0.42859 0.85197 0.40263 0.0
H1700 H 0.20928 0.3838 0.42846 0.0
H1701 H 0.17754 0.38646 0.30257 0.0
H1702 H 0.13064 0.41043 0.30512 0.0
H1703 H 0.10227 0.43538 0.34401 0.0
H1704 H 0.1354 0.43237 0.47001 0.0
H1705 H 0.17855 0.4046 0.46648 0.0
C1706 C 0.19222 0.38972 0.40152 0.0
C1707 C 0.1974 0.3838 0.36545 0.0
C1708 C 0.16577 0.40389 0.40326 0.0
C1709 C 0.17419 0.39067 0.33078 0.0
C1710 C 0.14751 0.40463 0.33225 0.0
C1711 C 0.1185 0.4281 0.37061 0.0
C1712 C 0.11595 0.43654 0.40729 0.0
C1713 C 0.1435 0.41197 0.36843 0.0
C1714 C 0.13736 0.42701 0.44146 0.0
C1715 C 0.16196 0.41092 0.43949 0.0
H1716 H 0.39473 0.17119 0.56144 0.0
H1717 H 0.40298 0.15042 0.68361 0.0
H1718 H 0.4271 0.10341 0.67937 0.0
H1719 H 0.44799 0.06948 0.6411 0.0
H1720 H 0.44273 0.09423 0.52 0.0
H1721 H 0.4161 0.13874 0.52407 0.0
C1722 C 0.40226 0.15687 0.5874 0.0
C1723 C 0.39733 0.16488 0.62288 0.0
C1724 C 0.41693 0.13055 0.58502 0.0
C1725 C 0.40614 0.14484 0.65576 0.0
C1726 C 0.42029 0.11811 0.65346 0.0
C1727 C 0.44131 0.08486 0.61573 0.0
C1728 C 0.44716 0.07815 0.58019 0.0
C1729 C 0.42621 0.11099 0.6183 0.0
C1730 C 0.43793 0.09815 0.54753 0.0
C1731 C 0.42284 0.12385 0.54984 0.0
H1732 H 0.89748 0.3466 0.74608 0.0
H1733 H 0.79435 0.29192 0.65032 0.0
H1734 H 0.8305 0.32674 0.60334 0.0
H1735 H 0.89362 0.36866 0.58957 0.0
H1736 H 0.99627 0.4219 0.68698 0.0
H1737 H 0.95834 0.39186 0.73292 0.0
C1738 C 0.88288 0.34294 0.71493 0.0
C1739 C 0.84348 0.31722 0.70158 0.0
C1740 C 0.90398 0.36231 0.68827 0.0
C1741 C 0.82466 0.3122 0.66122 0.0
C1742 C 0.84543 0.33176 0.63437 0.0
C1743 C 0.90759 0.37353 0.62082 0.0
C1744 C 0.94789 0.39691 0.63466 0.0
C1745 C 0.88546 0.35613 0.64751 0.0
C1746 C 0.96543 0.40358 0.67533 0.0
C1747 C 0.94376 0.38654 0.7018 0.0
H1748 H 0.20925 0.70542 0.60878 0.0
H1749 H 0.13476 0.68659 0.68343 0.0
H1750 H 0.08118 0.63616 0.63789 0.0
H1751 H 0.06012 0.5898 0.58456 0.0
H1752 H 0.13535 0.60224 0.51288 0.0
H1753 H 0.18401 0.66337 0.54868 0.0
C1754 C 0.18094 0.69072 0.61437 0.0
C1755 C 0.17557 0.69985 0.64898 0.0
C1756 C 0.15069 0.66053 0.58873 0.0
C1757 C 0.13903 0.68093 0.65631 0.0
C1758 C 0.10857 0.65166 0.63056 0.0
C1759 C 0.08673 0.60663 0.57612 0.0
C1760 C 0.09491 0.59198 0.54695 0.0
C1761 C 0.11466 0.64027 0.59771 0.0
C1762 C 0.12895 0.61349 0.53553 0.0
C1763 C 0.15675 0.64803 0.55623 0.0
loop_
_geom_bond_atom_site_label_1
_geom_bond_atom_site_label_2
_geom_bond_distance
_geom_bond_site_symmetry_2
_ccdc_geom_bond_type
Eu0 N31 2.657 . S
Eu0 N38 2.609 . S
Eu0 O44 2.558 . S
Eu0 O45 2.612 . S
Eu0 O47 2.339 . S
Eu0 O48 2.563 . S
Eu0 O49 2.419 . S
Eu0 O51 2.380 . S
Eu0 O52 2.432 . S
Eu0 C64 2.848 . S
C1 C4 1.429 . S
C1 C5 1.411 . S
C1 N8 1.377 . S
C2 C4 1.420 . S
C2 C6 1.423 . S
C2 C14 1.392 . S
C3 C5 1.420 . S
C3 C6 1.351 . S
C3 H26 0.931 . S
C4 C1 1.429 . S
C4 C2 1.420 . S
C4 N12 1.362 . S
C5 C1 1.411 . S
C5 C3 1.420 . S
C5 C10 1.395 . S
C6 C2 1.423 . S
C6 C3 1.351 . S
C6 H18 0.930 . S
C7 C9 1.400 . S
C7 C10 1.386 . S
C7 H19 0.930 . S
N8 C1 1.377 . S
N8 C9 1.321 . S
N8 Eu11 2.609 . S
C9 C7 1.400 . S
C9 N8 1.321 . S
C9 H16 0.930 . S
C10 C5 1.395 . S
C10 C7 1.386 . S
C10 H29 0.930 . S
Eu11 N8 2.609 . S
Eu11 N12 2.657 . S
Eu11 O45 2.380 . S
Eu11 O46 2.432 . S
Eu11 O50 2.558 . S
Eu11 O51 2.612 . S
Eu11 O53 2.339 . S
Eu11 O54 2.563 . S
Eu11 O55 2.419 . S
Eu11 C75 2.848 . S
N12 C4 1.362 . S
N12 Eu11 2.657 . S
N12 C13 1.334 . S
C13 N12 1.334 . S
C13 C15 1.413 . S
C13 H20 0.929 . S
C14 C2 1.392 . S
C14 C15 1.367 . S
C14 H22 0.930 . S
C15 C13 1.413 . S
C15 C14 1.367 . S
C15 H17 0.930 . S
H16 C9 0.930 . S
H17 C15 0.930 . S
H18 C6 0.930 . S
H19 C7 0.930 . S
H20 C13 0.929 . S
H21 C35 0.930 . S
H22 C14 0.930 . S
H23 C41 0.930 . S
H24 C32 0.929 . S
H25 C39 0.930 . S
H26 C3 0.931 . S
H27 C33 0.930 . S
H28 C66 0.930 . S
H29 C10 0.930 . S
H30 C65 0.931 . S
N31 Eu0 2.657 . S
N31 C32 1.334 . S
N31 C36 1.362 . S
C32 H24 0.929 . S
C32 N31 1.334 . S
C32 C35 1.413 . S
C33 H27 0.930 . S
C33 C34 1.392 . S
C33 C35 1.367 . S
C34 C33 1.392 . S
C34 C36 1.420 . S
C34 C66 1.423 . S
C35 H21 0.930 . S
C35 C32 1.413 . S
C35 C33 1.367 . S
C36 N31 1.362 . S
C36 C34 1.420 . S
C36 C40 1.429 . S
H37 C42 0.930 . S
N38 Eu0 2.609 . S
N38 C40 1.377 . S
N38 C41 1.321 . S
C39 H25 0.930 . S
C39 C41 1.400 . S
C39 C42 1.386 . S
C40 C36 1.429 . S
C40 N38 1.377 . S
C40 C43 1.411 . S
C41 H23 0.930 . S
C41 N38 1.321 . S
C41 C39 1.400 . S
C42 H37 0.930 . S
C42 C39 1.386 . S
C42 C43 1.395 . S
C43 C40 1.411 . S
C43 C42 1.395 . S
C43 C65 1.420 . S
O44 Eu0 2.558 . S
O44 C64 1.257 . S
O45 Eu0 2.612 . S
O45 Eu11 2.380 . S
O45 C56 1.276 . S
O46 Eu11 2.432 . S
O46 C63 1.264 . S
O47 Eu0 2.339 . S
O47 C63 1.254 . S
O48 Eu0 2.563 . S
O48 C56 1.235 . S
O49 Eu0 2.419 . S
O49 C64 1.249 . S
O50 Eu11 2.558 . S
O50 C75 1.257 . S
O51 Eu0 2.380 . S
O51 Eu11 2.612 . S
O51 C67 1.276 . S
O52 Eu0 2.432 . S
O52 C74 1.264 . S
O53 Eu11 2.339 . S
O53 C74 1.254 . S
O54 Eu11 2.563 . S
O54 C67 1.235 . S
O55 Eu11 2.419 . S
O55 C75 1.249 . S
C56 O45 1.276 . S
C56 O48 1.235 . S
C57 C59 1.393 . S
C57 C61 1.395 . S
C57 C64 1.492 . S
C58 C59 1.392 . S
C58 C60 1.386 . S
C59 C57 1.393 . S
C59 C58 1.392 . S
C59 H76 0.930 . S
C60 C58 1.386 . S
C60 C62 1.395 . S
C60 H77 0.930 . S
C61 C57 1.395 . S
C61 C62 1.379 . S
C61 H78 0.930 . S
C62 C60 1.395 . S
C62 C61 1.379 . S
C62 H79 0.930 . S
C63 O46 1.264 . S
C63 O47 1.254 . S
C64 Eu0 2.848 . S
C64 O44 1.257 . S
C64 O49 1.249 . S
C64 C57 1.492 . S
C65 H30 0.931 . S
C65 C43 1.420 . S
C65 C66 1.351 . S
C66 H28 0.930 . S
C66 C34 1.423 . S
C66 C65 1.351 . S
C67 O51 1.276 . S
C67 O54 1.235 . S
C68 C69 1.393 . S
C68 C72 1.395 . S
C68 C75 1.492 . S
C69 C68 1.393 . S
C69 C70 1.392 . S
C69 H80 0.930 . S
C70 C69 1.392 . S
C70 C71 1.386 . S
C71 C70 1.386 . S
C71 C73 1.395 . S
C71 H81 0.930 . S
C72 C68 1.395 . S
C72 C73 1.379 . S
C72 H82 0.930 . S
C73 C71 1.395 . S
C73 C72 1.379 . S
C73 H83 0.930 . S
C74 O52 1.264 . S
C74 O53 1.254 . S
C75 Eu11 2.848 . S
C75 O50 1.257 . S
C75 O55 1.249 . S
C75 C68 1.492 . S
H76 C59 0.930 . S
H77 C60 0.930 . S
H78 C61 0.930 . S
H79 C62 0.930 . S
H80 C69 0.930 . S
H81 C71 0.930 . S
H82 C72 0.930 . S
H83 C73 0.930 . S
Eu84 N115 2.657 . S
Eu84 N122 2.609 . S
Eu84 O128 2.558 . S
Eu84 O129 2.612 . S
Eu84 O131 2.339 . S
Eu84 O132 2.563 . S
Eu84 O133 2.419 . S
Eu84 O135 2.380 . S
Eu84 O136 2.432 . S
Eu84 C148 2.848 . S
C85 C88 1.429 . S
C85 C89 1.411 . S
C85 N92 1.377 . S
C86 C88 1.420 . S
C86 C90 1.423 . S
C86 C98 1.392 . S
C87 C89 1.420 . S
C87 C90 1.351 . S
C87 H110 0.931 . S
C88 C85 1.429 . S
C88 C86 1.420 . S
C88 N96 1.362 . S
C89 C85 1.411 . S
C89 C87 1.420 . S
C89 C94 1.395 . S
C90 C86 1.423 . S
C90 C87 1.351 . S
C90 H102 0.930 . S
C91 C93 1.400 . S
C91 C94 1.386 . S
C91 H103 0.930 . S
N92 C85 1.377 . S
N92 C93 1.321 . S
N92 Eu95 2.609 . S
C93 C91 1.400 . S
C93 N92 1.321 . S
C93 H100 0.930 . S
C94 C89 1.395 . S
C94 C91 1.386 . S
C94 H113 0.930 . S
Eu95 N92 2.609 . S
Eu95 N96 2.657 . S
Eu95 O129 2.380 . S
Eu95 O130 2.432 . S
Eu95 O134 2.558 . S
Eu95 O135 2.612 . S
Eu95 O137 2.339 . S
Eu95 O138 2.563 . S
Eu95 O139 2.419 . S
Eu95 C159 2.848 . S
N96 C88 1.362 . S
N96 Eu95 2.657 . S
N96 C97 1.334 . S
C97 N96 1.334 . S
C97 C99 1.413 . S
C97 H104 0.929 . S
C98 C86 1.392 . S
C98 C99 1.367 . S
C98 H106 0.930 . S
C99 C97 1.413 . S
C99 C98 1.367 . S
C99 H101 0.930 . S
H100 C93 0.930 . S
H101 C99 0.930 . S
H102 C90 0.930 . S
H103 C91 0.930 . S
H104 C97 0.929 . S
H105 C119 0.930 . S
H106 C98 0.930 . S
H107 C125 0.930 . S
H108 C116 0.929 . S
H109 C123 0.930 . S
H110 C87 0.931 . S
H111 C117 0.930 . S
H112 C150 0.930 . S
H113 C94 0.930 . S
H114 C149 0.931 . S
N115 Eu84 2.657 . S
N115 C116 1.334 . S
N115 C120 1.362 . S
C116 H108 0.929 . S
C116 N115 1.334 . S
C116 C119 1.413 . S
C117 H111 0.930 . S
C117 C118 1.392 . S
C117 C119 1.367 . S
C118 C117 1.392 . S
C118 C120 1.420 . S
C118 C150 1.423 . S
C119 H105 0.930 . S
C119 C116 1.413 . S
C119 C117 1.367 . S
C120 N115 1.362 . S
C120 C118 1.420 . S
C120 C124 1.429 . S
H121 C126 0.930 . S
N122 Eu84 2.609 . S
N122 C124 1.377 . S
N122 C125 1.321 . S
C123 H109 0.930 . S
C123 C125 1.400 . S
C123 C126 1.386 . S
C124 C120 1.429 . S
C124 N122 1.377 . S
C124 C127 1.411 . S
C125 H107 0.930 . S
C125 N122 1.321 . S
C125 C123 1.400 . S
C126 H121 0.930 . S
C126 C123 1.386 . S
C126 C127 1.395 . S
C127 C124 1.411 . S
C127 C126 1.395 . S
C127 C149 1.420 . S
O128 Eu84 2.558 . S
O128 C148 1.257 . S
O129 Eu84 2.612 . S
O129 Eu95 2.380 . S
O129 C140 1.276 . S
O130 Eu95 2.432 . S
O130 C147 1.264 . S
O131 Eu84 2.339 . S
O131 C147 1.254 . S
O132 Eu84 2.563 . S
O132 C140 1.235 . S
O133 Eu84 2.419 . S
O133 C148 1.249 . S
O134 Eu95 2.558 . S
O134 C159 1.257 . S
O135 Eu84 2.380 . S
O135 Eu95 2.612 . S
O135 C151 1.276 . S
O136 Eu84 2.432 . S
O136 C158 1.264 . S
O137 Eu95 2.339 . S
O137 C158 1.254 . S
O138 Eu95 2.563 . S
O138 C151 1.235 . S
O139 Eu95 2.419 . S
O139 C159 1.249 . S
C140 O129 1.276 . S
C140 O132 1.235 . S
C141 C143 1.393 . S
C141 C145 1.395 . S
C141 C148 1.492 . S
C142 C143 1.392 . S
C142 C144 1.386 . S
C143 C141 1.393 . S
C143 C142 1.392 . S
C143 H160 0.930 . S
C144 C142 1.386 . S
C144 C146 1.395 . S
C144 H161 0.930 . S
C145 C141 1.395 . S
C145 C146 1.379 . S
C145 H162 0.930 . S
C146 C144 1.395 . S
C146 C145 1.379 . S
C146 H163 0.930 . S
C147 O130 1.264 . S
C147 O131 1.254 . S
C148 Eu84 2.848 . S
C148 O128 1.257 . S
C148 O133 1.249 . S
C148 C141 1.492 . S
C149 H114 0.931 . S
C149 C127 1.420 . S
C149 C150 1.351 . S
C150 H112 0.930 . S
C150 C118 1.423 . S
C150 C149 1.351 . S
C151 O135 1.276 . S
C151 O138 1.235 . S
C152 C153 1.393 . S
C152 C156 1.395 . S
C152 C159 1.492 . S
C153 C152 1.393 . S
C153 C154 1.392 . S
C153 H164 0.930 . S
C154 C153 1.392 . S
C154 C155 1.386 . S
C155 C154 1.386 . S
C155 C157 1.395 . S
C155 H165 0.930 . S
C156 C152 1.395 . S
C156 C157 1.379 . S
C156 H166 0.930 . S
C157 C155 1.395 . S
C157 C156 1.379 . S
C157 H167 0.930 . S
C158 O136 1.264 . S
C158 O137 1.254 . S
C159 Eu95 2.848 . S
C159 O134 1.257 . S
C159 O139 1.249 . S
C159 C152 1.492 . S
H160 C143 0.930 . S
H161 C144 0.930 . S
H162 C145 0.930 . S
H163 C146 0.930 . S
H164 C153 0.930 . S
H165 C155 0.930 . S
H166 C156 0.930 . S
H167 C157 0.930 . S
Eu168 N199 2.657 . S
Eu168 N206 2.609 . S
Eu168 O212 2.558 . S
Eu168 O213 2.612 . S
Eu168 O215 2.339 . S
Eu168 O216 2.563 . S
Eu168 O217 2.419 . S
Eu168 O219 2.380 . S
Eu168 O220 2.432 . S
Eu168 C232 2.848 . S
C169 C172 1.429 . S
C169 C173 1.411 . S
C169 N176 1.377 . S
C170 C172 1.420 . S
C170 C174 1.423 . S
C170 C182 1.392 . S
C171 C173 1.420 . S
C171 C174 1.351 . S
C171 H194 0.931 . S
C172 C169 1.429 . S
C172 C170 1.420 . S
C172 N180 1.362 . S
C173 C169 1.411 . S
C173 C171 1.420 . S
C173 C178 1.395 . S
C174 C170 1.423 . S
C174 C171 1.351 . S
C174 H186 0.930 . S
C175 C177 1.400 . S
C175 C178 1.386 . S
C175 H187 0.930 . S
N176 C169 1.377 . S
N176 C177 1.321 . S
N176 Eu179 2.609 . S
C177 C175 1.400 . S
C177 N176 1.321 . S
C177 H184 0.930 . S
C178 C173 1.395 . S
C178 C175 1.386 . S
C178 H197 0.930 . S
Eu179 N176 2.609 . S
Eu179 N180 2.657 . S
Eu179 O213 2.380 . S
Eu179 O214 2.432 . S
Eu179 O218 2.558 . S
Eu179 O219 2.612 . S
Eu179 O221 2.339 . S
Eu179 O222 2.563 . S
Eu179 O223 2.419 . S
Eu179 C243 2.848 . S
N180 C172 1.362 . S
N180 Eu179 2.657 . S
N180 C181 1.334 . S
C181 N180 1.334 . S
C181 C183 1.413 . S
C181 H188 0.929 . S
C182 C170 1.392 . S
C182 C183 1.367 . S
C182 H190 0.930 . S
C183 C181 1.413 . S
C183 C182 1.367 . S
C183 H185 0.930 . S
H184 C177 0.930 . S
H185 C183 0.930 . S
H186 C174 0.930 . S
H187 C175 0.930 . S
H188 C181 0.929 . S
H189 C203 0.930 . S
H190 C182 0.930 . S
H191 C209 0.930 . S
H192 C200 0.929 . S
H193 C207 0.930 . S
H194 C171 0.931 . S
H195 C201 0.930 . S
H196 C234 0.930 . S
H197 C178 0.930 . S
H198 C233 0.931 . S
N199 Eu168 2.657 . S
N199 C200 1.334 . S
N199 C204 1.362 . S
C200 H192 0.929 . S
C200 N199 1.334 . S
C200 C203 1.413 . S
C201 H195 0.930 . S
C201 C202 1.392 . S
C201 C203 1.367 . S
C202 C201 1.392 . S
C202 C204 1.420 . S
C202 C234 1.423 . S
C203 H189 0.930 . S
C203 C200 1.413 . S
C203 C201 1.367 . S
C204 N199 1.362 . S
C204 C202 1.420 . S
C204 C208 1.429 . S
H205 C210 0.930 . S
N206 Eu168 2.609 . S
N206 C208 1.377 . S
N206 C209 1.321 . S
C207 H193 0.930 . S
C207 C209 1.400 . S
C207 C210 1.386 . S
C208 C204 1.429 . S
C208 N206 1.377 . S
C208 C211 1.411 . S
C209 H191 0.930 . S
C209 N206 1.321 . S
C209 C207 1.400 . S
C210 H205 0.930 . S
C210 C207 1.386 . S
C210 C211 1.395 . S
C211 C208 1.411 . S
C211 C210 1.395 . S
C211 C233 1.420 . S
O212 Eu168 2.558 . S
O212 C232 1.257 . S
O213 Eu168 2.612 . S
O213 Eu179 2.380 . S
O213 C224 1.276 . S
O214 Eu179 2.432 . S
O214 C231 1.264 . S
O215 Eu168 2.339 . S
O215 C231 1.254 . S
O216 Eu168 2.563 . S
O216 C224 1.235 . S
O217 Eu168 2.419 . S
O217 C232 1.249 . S
O218 Eu179 2.558 . S
O218 C243 1.257 . S
O219 Eu168 2.380 . S
O219 Eu179 2.612 . S
O219 C235 1.276 . S
O220 Eu168 2.432 . S
O220 C242 1.264 . S
O221 Eu179 2.339 . S
O221 C242 1.254 . S
O222 Eu179 2.563 . S
O222 C235 1.235 . S
O223 Eu179 2.419 . S
O223 C243 1.249 . S
C224 O213 1.276 . S
C224 O216 1.235 . S
C225 C227 1.393 . S
C225 C229 1.395 . S
C225 C232 1.492 . S
C226 C227 1.392 . S
C226 C228 1.386 . S
C227 C225 1.393 . S
C227 C226 1.392 . S
C227 H244 0.930 . S
C228 C226 1.386 . S
C228 C230 1.395 . S
C228 H245 0.930 . S
C229 C225 1.395 . S
C229 C230 1.379 . S
C229 H246 0.930 . S
C230 C228 1.395 . S
C230 C229 1.379 . S
C230 H247 0.930 . S
C231 O214 1.264 . S
C231 O215 1.254 . S
C232 Eu168 2.848 . S
C232 O212 1.257 . S
C232 O217 1.249 . S
C232 C225 1.492 . S
C233 H198 0.931 . S
C233 C211 1.420 . S
C233 C234 1.351 . S
C234 H196 0.930 . S
C234 C202 1.423 . S
C234 C233 1.351 . S
C235 O219 1.276 . S
C235 O222 1.235 . S
C236 C237 1.393 . S
C236 C240 1.395 . S
C236 C243 1.492 . S
C237 C236 1.393 . S
C237 C238 1.392 . S
C237 H248 0.930 . S
C238 C237 1.392 . S
C238 C239 1.386 . S
C239 C238 1.386 . S
C239 C241 1.395 . S
C239 H249 0.930 . S
C240 C236 1.395 . S
C240 C241 1.379 . S
C240 H250 0.930 . S
C241 C239 1.395 . S
C241 C240 1.379 . S
C241 H251 0.930 . S
C242 O220 1.264 . S
C242 O221 1.254 . S
C243 Eu179 2.848 . S
C243 O218 1.257 . S
C243 O223 1.249 . S
C243 C236 1.492 . S
H244 C227 0.930 . S
H245 C228 0.930 . S
H246 C229 0.930 . S
H247 C230 0.930 . S
H248 C237 0.930 . S
H249 C239 0.930 . S
H250 C240 0.930 . S
H251 C241 0.930 . S
Eu252 N283 2.657 . S
Eu252 N290 2.609 . S
Eu252 O296 2.558 . S
Eu252 O297 2.612 . S
Eu252 O299 2.339 . S
Eu252 O300 2.563 . S
Eu252 O301 2.419 . S
Eu252 O303 2.380 . S
Eu252 O304 2.432 . S
Eu252 C316 2.848 . S
C253 C256 1.429 . S
C253 C257 1.411 . S
C253 N260 1.377 . S
C254 C256 1.420 . S
C254 C258 1.423 . S
C254 C266 1.392 . S
C255 C257 1.420 . S
C255 C258 1.351 . S
C255 H278 0.931 . S
C256 C253 1.429 . S
C256 C254 1.420 . S
C256 N264 1.362 . S
C257 C253 1.411 . S
C257 C255 1.420 . S
C257 C262 1.395 . S
C258 C254 1.423 . S
C258 C255 1.351 . S
C258 H270 0.930 . S
C259 C261 1.400 . S
C259 C262 1.386 . S
C259 H271 0.930 . S
N260 C253 1.377 . S
N260 C261 1.321 . S
N260 Eu263 2.609 . S
C261 C259 1.400 . S
C261 N260 1.321 . S
C261 H268 0.930 . S
C262 C257 1.395 . S
C262 C259 1.386 . S
C262 H281 0.930 . S
Eu263 N260 2.609 . S
Eu263 N264 2.657 . S
Eu263 O297 2.380 . S
Eu263 O298 2.432 . S
Eu263 O302 2.558 . S
Eu263 O303 2.612 . S
Eu263 O305 2.339 . S
Eu263 O306 2.563 . S
Eu263 O307 2.419 . S
Eu263 C327 2.848 . S
N264 C256 1.362 . S
N264 Eu263 2.657 . S
N264 C265 1.334 . S
C265 N264 1.334 . S
C265 C267 1.413 . S
C265 H272 0.929 . S
C266 C254 1.392 . S
C266 C267 1.367 . S
C266 H274 0.930 . S
C267 C265 1.413 . S
C267 C266 1.367 . S
C267 H269 0.930 . S
H268 C261 0.930 . S
H269 C267 0.930 . S
H270 C258 0.930 . S
H271 C259 0.930 . S
H272 C265 0.929 . S
H273 C287 0.930 . S
H274 C266 0.930 . S
H275 C293 0.930 . S
H276 C284 0.929 . S
H277 C291 0.930 . S
H278 C255 0.931 . S
H279 C285 0.930 . S
H280 C318 0.930 . S
H281 C262 0.930 . S
H282 C317 0.931 . S
N283 Eu252 2.657 . S
N283 C284 1.334 . S
N283 C288 1.362 . S
C284 H276 0.929 . S
C284 N283 1.334 . S
C284 C287 1.413 . S
C285 H279 0.930 . S
C285 C286 1.392 . S
C285 C287 1.367 . S
C286 C285 1.392 . S
C286 C288 1.420 . S
C286 C318 1.423 . S
C287 H273 0.930 . S
C287 C284 1.413 . S
C287 C285 1.367 . S
C288 N283 1.362 . S
C288 C286 1.420 . S
C288 C292 1.429 . S
H289 C294 0.930 . S
N290 Eu252 2.609 . S
N290 C292 1.377 . S
N290 C293 1.321 . S
C291 H277 0.930 . S
C291 C293 1.400 . S
C291 C294 1.386 . S
C292 C288 1.429 . S
C292 N290 1.377 . S
C292 C295 1.411 . S
C293 H275 0.930 . S
C293 N290 1.321 . S
C293 C291 1.400 . S
C294 H289 0.930 . S
C294 C291 1.386 . S
C294 C295 1.395 . S
C295 C292 1.411 . S
C295 C294 1.395 . S
C295 C317 1.420 . S
O296 Eu252 2.558 . S
O296 C316 1.257 . S
O297 Eu252 2.612 . S
O297 Eu263 2.380 . S
O297 C308 1.276 . S
O298 Eu263 2.432 . S
O298 C315 1.264 . S
O299 Eu252 2.339 . S
O299 C315 1.254 . S
O300 Eu252 2.563 . S
O300 C308 1.235 . S
O301 Eu252 2.419 . S
O301 C316 1.249 . S
O302 Eu263 2.558 . S
O302 C327 1.257 . S
O303 Eu252 2.380 . S
O303 Eu263 2.612 . S
O303 C319 1.276 . S
O304 Eu252 2.432 . S
O304 C326 1.264 . S
O305 Eu263 2.339 . S
O305 C326 1.254 . S
O306 Eu263 2.563 . S
O306 C319 1.235 . S
O307 Eu263 2.419 . S
O307 C327 1.249 . S
C308 O297 1.276 . S
C308 O300 1.235 . S
C309 C311 1.393 . S
C309 C313 1.395 . S
C309 C316 1.492 . S
C310 C311 1.392 . S
C310 C312 1.386 . S
C311 C309 1.393 . S
C311 C310 1.392 . S
C311 H328 0.930 . S
C312 C310 1.386 . S
C312 C314 1.395 . S
C312 H329 0.930 . S
C313 C309 1.395 . S
C313 C314 1.379 . S
C313 H330 0.930 . S
C314 C312 1.395 . S
C314 C313 1.379 . S
C314 H331 0.930 . S
C315 O298 1.264 . S
C315 O299 1.254 . S
C316 Eu252 2.848 . S
C316 O296 1.257 . S
C316 O301 1.249 . S
C316 C309 1.492 . S
C317 H282 0.931 . S
C317 C295 1.420 . S
C317 C318 1.351 . S
C318 H280 0.930 . S
C318 C286 1.423 . S
C318 C317 1.351 . S
C319 O303 1.276 . S
C319 O306 1.235 . S
C320 C321 1.393 . S
C320 C324 1.395 . S
C320 C327 1.492 . S
C321 C320 1.393 . S
C321 C322 1.392 . S
C321 H332 0.930 . S
C322 C321 1.392 . S
C322 C323 1.386 . S
C323 C322 1.386 . S
C323 C325 1.395 . S
C323 H333 0.930 . S
C324 C320 1.395 . S
C324 C325 1.379 . S
C324 H334 0.930 . S
C325 C323 1.395 . S
C325 C324 1.379 . S
C325 H335 0.930 . S
C326 O304 1.264 . S
C326 O305 1.254 . S
C327 Eu263 2.848 . S
C327 O302 1.257 . S
C327 O307 1.249 . S
C327 C320 1.492 . S
H328 C311 0.930 . S
H329 C312 0.930 . S
H330 C313 0.930 . S
H331 C314 0.930 . S
H332 C321 0.930 . S
H333 C323 0.930 . S
H334 C324 0.930 . S
H335 C325 0.930 . S
Eu336 N367 2.657 . S
Eu336 N374 2.609 . S
Eu336 O380 2.558 . S
Eu336 O381 2.612 . S
Eu336 O383 2.339 . S
Eu336 O384 2.563 . S
Eu336 O385 2.419 . S
Eu336 O387 2.380 . S
Eu336 O388 2.432 . S
Eu336 C400 2.848 . S
C337 C340 1.429 . S
C337 C341 1.411 . S
C337 N344 1.377 . S
C338 C340 1.420 . S
C338 C342 1.423 . S
C338 C350 1.392 . S
C339 C341 1.420 . S
C339 C342 1.351 . S
C339 H362 0.931 . S
C340 C337 1.429 . S
C340 C338 1.420 . S
C340 N348 1.362 . S
C341 C337 1.411 . S
C341 C339 1.420 . S
C341 C346 1.395 . S
C342 C338 1.423 . S
C342 C339 1.351 . S
C342 H354 0.930 . S
C343 C345 1.400 . S
C343 C346 1.386 . S
C343 H355 0.930 . S
N344 C337 1.377 . S
N344 C345 1.321 . S
N344 Eu347 2.609 . S
C345 C343 1.400 . S
C345 N344 1.321 . S
C345 H352 0.930 . S
C346 C341 1.395 . S
C346 C343 1.386 . S
C346 H365 0.930 . S
Eu347 N344 2.609 . S
Eu347 N348 2.657 . S
Eu347 O381 2.380 . S
Eu347 O382 2.432 . S
Eu347 O386 2.558 . S
Eu347 O387 2.612 . S
Eu347 O389 2.339 . S
Eu347 O390 2.563 . S
Eu347 O391 2.419 . S
Eu347 C411 2.848 . S
N348 C340 1.362 . S
N348 Eu347 2.657 . S
N348 C349 1.334 . S
C349 N348 1.334 . S
C349 C351 1.413 . S
C349 H356 0.929 . S
C350 C338 1.392 . S
C350 C351 1.367 . S
C350 H358 0.930 . S
C351 C349 1.413 . S
C351 C350 1.367 . S
C351 H353 0.930 . S
H352 C345 0.930 . S
H353 C351 0.930 . S
H354 C342 0.930 . S
H355 C343 0.930 . S
H356 C349 0.929 . S
H357 C371 0.930 . S
H358 C350 0.930 . S
H359 C377 0.930 . S
H360 C368 0.929 . S
H361 C375 0.930 . S
H362 C339 0.931 . S
H363 C369 0.930 . S
H364 C402 0.930 . S
H365 C346 0.930 . S
H366 C401 0.931 . S
N367 Eu336 2.657 . S
N367 C368 1.334 . S
N367 C372 1.362 . S
C368 H360 0.929 . S
C368 N367 1.334 . S
C368 C371 1.413 . S
C369 H363 0.930 . S
C369 C370 1.392 . S
C369 C371 1.367 . S
C370 C369 1.392 . S
C370 C372 1.420 . S
C370 C402 1.423 . S
C371 H357 0.930 . S
C371 C368 1.413 . S
C371 C369 1.367 . S
C372 N367 1.362 . S
C372 C370 1.420 . S
C372 C376 1.429 . S
H373 C378 0.930 . S
N374 Eu336 2.609 . S
N374 C376 1.377 . S
N374 C377 1.321 . S
C375 H361 0.930 . S
C375 C377 1.400 . S
C375 C378 1.386 . S
C376 C372 1.429 . S
C376 N374 1.377 . S
C376 C379 1.411 . S
C377 H359 0.930 . S
C377 N374 1.321 . S
C377 C375 1.400 . S
C378 H373 0.930 . S
C378 C375 1.386 . S
C378 C379 1.395 . S
C379 C376 1.411 . S
C379 C378 1.395 . S
C379 C401 1.420 . S
O380 Eu336 2.558 . S
O380 C400 1.257 . S
O381 Eu336 2.612 . S
O381 Eu347 2.380 . S
O381 C392 1.276 . S
O382 Eu347 2.432 . S
O382 C399 1.264 . S
O383 Eu336 2.339 . S
O383 C399 1.254 . S
O384 Eu336 2.563 . S
O384 C392 1.235 . S
O385 Eu336 2.419 . S
O385 C400 1.249 . S
O386 Eu347 2.558 . S
O386 C411 1.257 . S
O387 Eu336 2.380 . S
O387 Eu347 2.612 . S
O387 C403 1.276 . S
O388 Eu336 2.432 . S
O388 C410 1.264 . S
O389 Eu347 2.339 . S
O389 C410 1.254 . S
O390 Eu347 2.563 . S
O390 C403 1.235 . S
O391 Eu347 2.419 . S
O391 C411 1.249 . S
C392 O381 1.276 . S
C392 O384 1.235 . S
C393 C395 1.393 . S
C393 C397 1.395 . S
C393 C400 1.492 . S
C394 C395 1.392 . S
C394 C396 1.386 . S
C395 C393 1.393 . S
C395 C394 1.392 . S
C395 H412 0.930 . S
C396 C394 1.386 . S
C396 C398 1.395 . S
C396 H413 0.930 . S
C397 C393 1.395 . S
C397 C398 1.379 . S
C397 H414 0.930 . S
C398 C396 1.395 . S
C398 C397 1.379 . S
C398 H415 0.930 . S
C399 O382 1.264 . S
C399 O383 1.254 . S
C400 Eu336 2.848 . S
C400 O380 1.257 . S
C400 O385 1.249 . S
C400 C393 1.492 . S
C401 H366 0.931 . S
C401 C379 1.420 . S
C401 C402 1.351 . S
C402 H364 0.930 . S
C402 C370 1.423 . S
C402 C401 1.351 . S
C403 O387 1.276 . S
C403 O390 1.235 . S
C404 C405 1.393 . S
C404 C408 1.395 . S
C404 C411 1.492 . S
C405 C404 1.393 . S
C405 C406 1.392 . S
C405 H416 0.930 . S
C406 C405 1.392 . S
C406 C407 1.386 . S
C407 C406 1.386 . S
C407 C409 1.395 . S
C407 H417 0.930 . S
C408 C404 1.395 . S
C408 C409 1.379 . S
C408 H418 0.930 . S
C409 C407 1.395 . S
C409 C408 1.379 . S
C409 H419 0.930 . S
C410 O388 1.264 . S
C410 O389 1.254 . S
C411 Eu347 2.848 . S
C411 O386 1.257 . S
C411 O391 1.249 . S
C411 C404 1.492 . S
H412 C395 0.930 . S
H413 C396 0.930 . S
H414 C397 0.930 . S
H415 C398 0.930 . S
H416 C405 0.930 . S
H417 C407 0.930 . S
H418 C408 0.930 . S
H419 C409 0.930 . S
Eu420 N451 2.657 . S
Eu420 N458 2.609 . S
Eu420 O464 2.558 . S
Eu420 O465 2.612 . S
Eu420 O467 2.339 . S
Eu420 O468 2.563 . S
Eu420 O469 2.419 . S
Eu420 O471 2.380 . S
Eu420 O472 2.432 . S
Eu420 C484 2.848 . S
C421 C424 1.429 . S
C421 C425 1.411 . S
C421 N428 1.377 . S
C422 C424 1.420 . S
C422 C426 1.423 . S
C422 C434 1.392 . S
C423 C425 1.420 . S
C423 C426 1.351 . S
C423 H446 0.931 . S
C424 C421 1.429 . S
C424 C422 1.420 . S
C424 N432 1.362 . S
C425 C421 1.411 . S
C425 C423 1.420 . S
C425 C430 1.395 . S
C426 C422 1.423 . S
C426 C423 1.351 . S
C426 H438 0.930 . S
C427 C429 1.400 . S
C427 C430 1.386 . S
C427 H439 0.930 . S
N428 C421 1.377 . S
N428 C429 1.321 . S
N428 Eu431 2.609 . S
C429 C427 1.400 . S
C429 N428 1.321 . S
C429 H436 0.930 . S
C430 C425 1.395 . S
C430 C427 1.386 . S
C430 H449 0.930 . S
Eu431 N428 2.609 . S
Eu431 N432 2.657 . S
Eu431 O465 2.380 . S
Eu431 O466 2.432 . S
Eu431 O470 2.558 . S
Eu431 O471 2.612 . S
Eu431 O473 2.339 . S
Eu431 O474 2.563 . S
Eu431 O475 2.419 . S
Eu431 C495 2.848 . S
N432 C424 1.362 . S
N432 Eu431 2.657 . S
N432 C433 1.334 . S
C433 N432 1.334 . S
C433 C435 1.413 . S
C433 H440 0.929 . S
C434 C422 1.392 . S
C434 C435 1.367 . S
C434 H442 0.930 . S
C435 C433 1.413 . S
C435 C434 1.367 . S
C435 H437 0.930 . S
H436 C429 0.930 . S
H437 C435 0.930 . S
H438 C426 0.930 . S
H439 C427 0.930 . S
H440 C433 0.929 . S
H441 C455 0.930 . S
H442 C434 0.930 . S
H443 C461 0.930 . S
H444 C452 0.929 . S
H445 C459 0.930 . S
H446 C423 0.931 . S
H447 C453 0.930 . S
H448 C486 0.930 . S
H449 C430 0.930 . S
H450 C485 0.931 . S
N451 Eu420 2.657 . S
N451 C452 1.334 . S
N451 C456 1.362 . S
C452 H444 0.929 . S
C452 N451 1.334 . S
C452 C455 1.413 . S
C453 H447 0.930 . S
C453 C454 1.392 . S
C453 C455 1.367 . S
C454 C453 1.392 . S
C454 C456 1.420 . S
C454 C486 1.423 . S
C455 H441 0.930 . S
C455 C452 1.413 . S
C455 C453 1.367 . S
C456 N451 1.362 . S
C456 C454 1.420 . S
C456 C460 1.429 . S
H457 C462 0.930 . S
N458 Eu420 2.609 . S
N458 C460 1.377 . S
N458 C461 1.321 . S
C459 H445 0.930 . S
C459 C461 1.400 . S
C459 C462 1.386 . S
C460 C456 1.429 . S
C460 N458 1.377 . S
C460 C463 1.411 . S
C461 H443 0.930 . S
C461 N458 1.321 . S
C461 C459 1.400 . S
C462 H457 0.930 . S
C462 C459 1.386 . S
C462 C463 1.395 . S
C463 C460 1.411 . S
C463 C462 1.395 . S
C463 C485 1.420 . S
O464 Eu420 2.558 . S
O464 C484 1.257 . S
O465 Eu420 2.612 . S
O465 Eu431 2.380 . S
O465 C476 1.276 . S
O466 Eu431 2.432 . S
O466 C483 1.264 . S
O467 Eu420 2.339 . S
O467 C483 1.254 . S
O468 Eu420 2.563 . S
O468 C476 1.235 . S
O469 Eu420 2.419 . S
O469 C484 1.249 . S
O470 Eu431 2.558 . S
O470 C495 1.257 . S
O471 Eu420 2.380 . S
O471 Eu431 2.612 . S
O471 C487 1.276 . S
O472 Eu420 2.432 . S
O472 C494 1.264 . S
O473 Eu431 2.339 . S
O473 C494 1.254 . S
O474 Eu431 2.563 . S
O474 C487 1.235 . S
O475 Eu431 2.419 . S
O475 C495 1.249 . S
C476 O465 1.276 . S
C476 O468 1.235 . S
C477 C479 1.393 . S
C477 C481 1.395 . S
C477 C484 1.492 . S
C478 C479 1.392 . S
C478 C480 1.386 . S
C479 C477 1.393 . S
C479 C478 1.392 . S
C479 H496 0.930 . S
C480 C478 1.386 . S
C480 C482 1.395 . S
C480 H497 0.930 . S
C481 C477 1.395 . S
C481 C482 1.379 . S
C481 H498 0.930 . S
C482 C480 1.395 . S
C482 C481 1.379 . S
C482 H499 0.930 . S
C483 O466 1.264 . S
C483 O467 1.254 . S
C484 Eu420 2.848 . S
C484 O464 1.257 . S
C484 O469 1.249 . S
C484 C477 1.492 . S
C485 H450 0.931 . S
C485 C463 1.420 . S
C485 C486 1.351 . S
C486 H448 0.930 . S
C486 C454 1.423 . S
C486 C485 1.351 . S
C487 O471 1.276 . S
C487 O474 1.235 . S
C488 C489 1.393 . S
C488 C492 1.395 . S
C488 C495 1.492 . S
C489 C488 1.393 . S
C489 C490 1.392 . S
C489 H500 0.930 . S
C490 C489 1.392 . S
C490 C491 1.386 . S
C491 C490 1.386 . S
C491 C493 1.395 . S
C491 H501 0.930 . S
C492 C488 1.395 . S
C492 C493 1.379 . S
C492 H502 0.930 . S
C493 C491 1.395 . S
C493 C492 1.379 . S
C493 H503 0.930 . S
C494 O472 1.264 . S
C494 O473 1.254 . S
C495 Eu431 2.848 . S
C495 O470 1.257 . S
C495 O475 1.249 . S
C495 C488 1.492 . S
H496 C479 0.930 . S
H497 C480 0.930 . S
H498 C481 0.930 . S
H499 C482 0.930 . S
H500 C489 0.930 . S
H501 C491 0.930 . S
H502 C492 0.930 . S
H503 C493 0.930 . S
Eu504 N535 2.657 . S
Eu504 N542 2.609 . S
Eu504 O548 2.558 . S
Eu504 O549 2.612 . S
Eu504 O551 2.339 . S
Eu504 O552 2.563 . S
Eu504 O553 2.419 . S
Eu504 O555 2.380 . S
Eu504 O556 2.432 . S
Eu504 C568 2.848 . S
C505 C508 1.429 . S
C505 C509 1.411 . S
C505 N512 1.377 . S
C506 C508 1.420 . S
C506 C510 1.423 . S
C506 C518 1.392 . S
C507 C509 1.420 . S
C507 C510 1.351 . S
C507 H530 0.931 . S
C508 C505 1.429 . S
C508 C506 1.420 . S
C508 N516 1.362 . S
C509 C505 1.411 . S
C509 C507 1.420 . S
C509 C514 1.395 . S
C510 C506 1.423 . S
C510 C507 1.351 . S
C510 H522 0.930 . S
C511 C513 1.400 . S
C511 C514 1.386 . S
C511 H523 0.930 . S
N512 C505 1.377 . S
N512 C513 1.321 . S
N512 Eu515 2.609 . S
C513 C511 1.400 . S
C513 N512 1.321 . S
C513 H520 0.930 . S
C514 C509 1.395 . S
C514 C511 1.386 . S
C514 H533 0.930 . S
Eu515 N512 2.609 . S
Eu515 N516 2.657 . S
Eu515 O549 2.380 . S
Eu515 O550 2.432 . S
Eu515 O554 2.558 . S
Eu515 O555 2.612 . S
Eu515 O557 2.339 . S
Eu515 O558 2.563 . S
Eu515 O559 2.419 . S
Eu515 C579 2.848 . S
N516 C508 1.362 . S
N516 Eu515 2.657 . S
N516 C517 1.334 . S
C517 N516 1.334 . S
C517 C519 1.413 . S
C517 H524 0.929 . S
C518 C506 1.392 . S
C518 C519 1.367 . S
C518 H526 0.930 . S
C519 C517 1.413 . S
C519 C518 1.367 . S
C519 H521 0.930 . S
H520 C513 0.930 . S
H521 C519 0.930 . S
H522 C510 0.930 . S
H523 C511 0.930 . S
H524 C517 0.929 . S
H525 C539 0.930 . S
H526 C518 0.930 . S
H527 C545 0.930 . S
H528 C536 0.929 . S
H529 C543 0.930 . S
H530 C507 0.931 . S
H531 C537 0.930 . S
H532 C570 0.930 . S
H533 C514 0.930 . S
H534 C569 0.931 . S
N535 Eu504 2.657 . S
N535 C536 1.334 . S
N535 C540 1.362 . S
C536 H528 0.929 . S
C536 N535 1.334 . S
C536 C539 1.413 . S
C537 H531 0.930 . S
C537 C538 1.392 . S
C537 C539 1.367 . S
C538 C537 1.392 . S
C538 C540 1.420 . S
C538 C570 1.423 . S
C539 H525 0.930 . S
C539 C536 1.413 . S
C539 C537 1.367 . S
C540 N535 1.362 . S
C540 C538 1.420 . S
C540 C544 1.429 . S
H541 C546 0.930 . S
N542 Eu504 2.609 . S
N542 C544 1.377 . S
N542 C545 1.321 . S
C543 H529 0.930 . S
C543 C545 1.400 . S
C543 C546 1.386 . S
C544 C540 1.429 . S
C544 N542 1.377 . S
C544 C547 1.411 . S
C545 H527 0.930 . S
C545 N542 1.321 . S
C545 C543 1.400 . S
C546 H541 0.930 . S
C546 C543 1.386 . S
C546 C547 1.395 . S
C547 C544 1.411 . S
C547 C546 1.395 . S
C547 C569 1.420 . S
O548 Eu504 2.558 . S
O548 C568 1.257 . S
O549 Eu504 2.612 . S
O549 Eu515 2.380 . S
O549 C560 1.276 . S
O550 Eu515 2.432 . S
O550 C567 1.264 . S
O551 Eu504 2.339 . S
O551 C567 1.254 . S
O552 Eu504 2.563 . S
O552 C560 1.235 . S
O553 Eu504 2.419 . S
O553 C568 1.249 . S
O554 Eu515 2.558 . S
O554 C579 1.257 . S
O555 Eu504 2.380 . S
O555 Eu515 2.612 . S
O555 C571 1.276 . S
O556 Eu504 2.432 . S
O556 C578 1.264 . S
O557 Eu515 2.339 . S
O557 C578 1.254 . S
O558 Eu515 2.563 . S
O558 C571 1.235 . S
O559 Eu515 2.419 . S
O559 C579 1.249 . S
C560 O549 1.276 . S
C560 O552 1.235 . S
C561 C563 1.393 . S
C561 C565 1.395 . S
C561 C568 1.492 . S
C562 C563 1.392 . S
C562 C564 1.386 . S
C563 C561 1.393 . S
C563 C562 1.392 . S
C563 H580 0.930 . S
C564 C562 1.386 . S
C564 C566 1.395 . S
C564 H581 0.930 . S
C565 C561 1.395 . S
C565 C566 1.379 . S
C565 H582 0.930 . S
C566 C564 1.395 . S
C566 C565 1.379 . S
C566 H583 0.930 . S
C567 O550 1.264 . S
C567 O551 1.254 . S
C568 Eu504 2.848 . S
C568 O548 1.257 . S
C568 O553 1.249 . S
C568 C561 1.492 . S
C569 H534 0.931 . S
C569 C547 1.420 . S
C569 C570 1.351 . S
C570 H532 0.930 . S
C570 C538 1.423 . S
C570 C569 1.351 . S
C571 O555 1.276 . S
C571 O558 1.235 . S
C572 C573 1.393 . S
C572 C576 1.395 . S
C572 C579 1.492 . S
C573 C572 1.393 . S
C573 C574 1.392 . S
C573 H584 0.930 . S
C574 C573 1.392 . S
C574 C575 1.386 . S
C575 C574 1.386 . S
C575 C577 1.395 . S
C575 H585 0.930 . S
C576 C572 1.395 . S
C576 C577 1.379 . S
C576 H586 0.930 . S
C577 C575 1.395 . S
C577 C576 1.379 . S
C577 H587 0.930 . S
C578 O556 1.264 . S
C578 O557 1.254 . S
C579 Eu515 2.848 . S
C579 O554 1.257 . S
C579 O559 1.249 . S
C579 C572 1.492 . S
H580 C563 0.930 . S
H581 C564 0.930 . S
H582 C565 0.930 . S
H583 C566 0.930 . S
H584 C573 0.930 . S
H585 C575 0.930 . S
H586 C576 0.930 . S
H587 C577 0.930 . S
Eu588 N619 2.657 . S
Eu588 N626 2.609 . S
Eu588 O632 2.558 . S
Eu588 O633 2.612 . S
Eu588 O635 2.339 . S
Eu588 O636 2.563 . S
Eu588 O637 2.419 . S
Eu588 O639 2.380 . S
Eu588 O640 2.432 . S
Eu588 C652 2.848 . S
C589 C592 1.429 . S
C589 C593 1.411 . S
C589 N596 1.377 . S
C590 C592 1.420 . S
C590 C594 1.423 . S
C590 C602 1.392 . S
C591 C593 1.420 . S
C591 C594 1.351 . S
C591 H614 0.931 . S
C592 C589 1.429 . S
C592 C590 1.420 . S
C592 N600 1.362 . S
C593 C589 1.411 . S
C593 C591 1.420 . S
C593 C598 1.395 . S
C594 C590 1.423 . S
C594 C591 1.351 . S
C594 H606 0.930 . S
C595 C597 1.400 . S
C595 C598 1.386 . S
C595 H607 0.930 . S
N596 C589 1.377 . S
N596 C597 1.321 . S
N596 Eu599 2.609 . S
C597 C595 1.400 . S
C597 N596 1.321 . S
C597 H604 0.930 . S
C598 C593 1.395 . S
C598 C595 1.386 . S
C598 H617 0.930 . S
Eu599 N596 2.609 . S
Eu599 N600 2.657 . S
Eu599 O633 2.380 . S
Eu599 O634 2.432 . S
Eu599 O638 2.558 . S
Eu599 O639 2.612 . S
Eu599 O641 2.339 . S
Eu599 O642 2.563 . S
Eu599 O643 2.419 . S
Eu599 C663 2.848 . S
N600 C592 1.362 . S
N600 Eu599 2.657 . S
N600 C601 1.334 . S
C601 N600 1.334 . S
C601 C603 1.413 . S
C601 H608 0.929 . S
C602 C590 1.392 . S
C602 C603 1.367 . S
C602 H610 0.930 . S
C603 C601 1.413 . S
C603 C602 1.367 . S
C603 H605 0.930 . S
H604 C597 0.930 . S
H605 C603 0.930 . S
H606 C594 0.930 . S
H607 C595 0.930 . S
H608 C601 0.929 . S
H609 C623 0.930 . S
H610 C602 0.930 . S
H611 C629 0.930 . S
H612 C620 0.929 . S
H613 C627 0.930 . S
H614 C591 0.931 . S
H615 C621 0.930 . S
H616 C654 0.930 . S
H617 C598 0.930 . S
H618 C653 0.931 . S
N619 Eu588 2.657 . S
N619 C620 1.334 . S
N619 C624 1.362 . S
C620 H612 0.929 . S
C620 N619 1.334 . S
C620 C623 1.413 . S
C621 H615 0.930 . S
C621 C622 1.392 . S
C621 C623 1.367 . S
C622 C621 1.392 . S
C622 C624 1.420 . S
C622 C654 1.423 . S
C623 H609 0.930 . S
C623 C620 1.413 . S
C623 C621 1.367 . S
C624 N619 1.362 . S
C624 C622 1.420 . S
C624 C628 1.429 . S
H625 C630 0.930 . S
N626 Eu588 2.609 . S
N626 C628 1.377 . S
N626 C629 1.321 . S
C627 H613 0.930 . S
C627 C629 1.400 . S
C627 C630 1.386 . S
C628 C624 1.429 . S
C628 N626 1.377 . S
C628 C631 1.411 . S
C629 H611 0.930 . S
C629 N626 1.321 . S
C629 C627 1.400 . S
C630 H625 0.930 . S
C630 C627 1.386 . S
C630 C631 1.395 . S
C631 C628 1.411 . S
C631 C630 1.395 . S
C631 C653 1.420 . S
O632 Eu588 2.558 . S
O632 C652 1.257 . S
O633 Eu588 2.612 . S
O633 Eu599 2.380 . S
O633 C644 1.276 . S
O634 Eu599 2.432 . S
O634 C651 1.264 . S
O635 Eu588 2.339 . S
O635 C651 1.254 . S
O636 Eu588 2.563 . S
O636 C644 1.235 . S
O637 Eu588 2.419 . S
O637 C652 1.249 . S
O638 Eu599 2.558 . S
O638 C663 1.257 . S
O639 Eu588 2.380 . S
O639 Eu599 2.612 . S
O639 C655 1.276 . S
O640 Eu588 2.432 . S
O640 C662 1.264 . S
O641 Eu599 2.339 . S
O641 C662 1.254 . S
O642 Eu599 2.563 . S
O642 C655 1.235 . S
O643 Eu599 2.419 . S
O643 C663 1.249 . S
C644 O633 1.276 . S
C644 O636 1.235 . S
C645 C647 1.393 . S
C645 C649 1.395 . S
C645 C652 1.492 . S
C646 C647 1.392 . S
C646 C648 1.386 . S
C647 C645 1.393 . S
C647 C646 1.392 . S
C647 H664 0.930 . S
C648 C646 1.386 . S
C648 C650 1.395 . S
C648 H665 0.930 . S
C649 C645 1.395 . S
C649 C650 1.379 . S
C649 H666 0.930 . S
C650 C648 1.395 . S
C650 C649 1.379 . S
C650 H667 0.930 . S
C651 O634 1.264 . S
C651 O635 1.254 . S
C652 Eu588 2.848 . S
C652 O632 1.257 . S
C652 O637 1.249 . S
C652 C645 1.492 . S
C653 H618 0.931 . S
C653 C631 1.420 . S
C653 C654 1.351 . S
C654 H616 0.930 . S
C654 C622 1.423 . S
C654 C653 1.351 . S
C655 O639 1.276 . S
C655 O642 1.235 . S
C656 C657 1.393 . S
C656 C660 1.395 . S
C656 C663 1.492 . S
C657 C656 1.393 . S
C657 C658 1.392 . S
C657 H668 0.930 . S
C658 C657 1.392 . S
C658 C659 1.386 . S
C659 C658 1.386 . S
C659 C661 1.395 . S
C659 H669 0.930 . S
C660 C656 1.395 . S
C660 C661 1.379 . S
C660 H670 0.930 . S
C661 C659 1.395 . S
C661 C660 1.379 . S
C661 H671 0.930 . S
C662 O640 1.264 . S
C662 O641 1.254 . S
C663 Eu599 2.848 . S
C663 O638 1.257 . S
C663 O643 1.249 . S
C663 C656 1.492 . S
H664 C647 0.930 . S
H665 C648 0.930 . S
H666 C649 0.930 . S
H667 C650 0.930 . S
H668 C657 0.930 . S
H669 C659 0.930 . S
H670 C660 0.930 . S
H671 C661 0.930 . S
Cd672 N675 2.334 1_655 S
Cd672 N701 2.304 1_565 S
Cd672 O708 2.268 . S
Cd672 O711 2.273 1_665 S
Cd672 O712 2.417 . S
Cd672 O713 2.330 . S
Cd673 N688 2.304 1_455 S
Cd673 N692 2.334 1_545 S
Cd673 O709 2.273 1_445 S
Cd673 O710 2.268 . S
Cd673 O714 2.417 . S
Cd673 O715 2.330 . S
C674 N675 1.332 . S
C674 C678 1.381 . S
C674 H680 0.931 . S
N675 Cd672 2.334 1_455 S
N675 C674 1.332 . S
N675 C679 1.328 . S
C676 C677 1.396 . S
C676 C679 1.378 . S
C676 H718 0.931 . S
C677 C676 1.396 . S
C677 C678 1.382 . S
C678 C674 1.381 . S
C678 C677 1.382 . S
C678 H719 0.930 . S
C679 N675 1.328 . S
C679 C676 1.378 . S
C679 H681 0.930 1_455 S
H680 C674 0.931 . S
H681 C679 0.930 1_655 S
C682 O708 1.238 . S
C682 O709 1.253 . S
C683 C684 1.379 . S
C683 N688 1.337 . S
C683 H689 0.929 . S
C684 C683 1.379 . S
C684 C685 1.380 . S
C684 H720 0.929 . S
C685 C684 1.380 . S
C685 C686 1.399 . S
C686 C685 1.399 . S
C686 C687 1.361 1_655 S
C686 H721 0.931 . S
C687 C686 1.361 1_455 S
C687 N688 1.344 1_455 S
C687 H690 0.940 . S
N688 Cd673 2.304 1_655 S
N688 C683 1.337 . S
N688 C687 1.344 1_655 S
H689 C683 0.929 . S
H690 C687 0.940 . S
C691 N692 1.332 . S
C691 C695 1.381 . S
C691 H697 0.931 . S
N692 Cd673 2.334 1_565 S
N692 C691 1.332 . S
N692 C696 1.328 1_565 S
C693 C694 1.396 . S
C693 C696 1.378 1_565 S
C693 H722 0.931 . S
C694 C693 1.396 . S
C694 C695 1.382 . S
C695 C691 1.381 . S
C695 C694 1.382 . S
C695 H723 0.930 . S
C696 N692 1.328 1_545 S
C696 C693 1.378 1_545 S
C696 H698 0.930 . S
H697 C691 0.931 . S
H698 C696 0.930 . S
C699 O710 1.238 . S
C699 O711 1.253 . S
C700 O712 1.239 . S
C700 O713 1.230 . S
N701 Cd672 2.304 1_545 S
N701 C702 1.337 . S
N701 C706 1.338 . S
C702 N701 1.337 . S
C702 C703 1.379 . S
C702 H716 0.929 . S
C703 C702 1.379 . S
C703 C704 1.380 . S
C703 H724 0.929 . S
C704 C703 1.380 . S
C704 C705 1.399 . S
C705 C704 1.399 . S
C705 C706 1.376 . S
C705 H725 0.931 . S
C706 N701 1.338 . S
C706 C705 1.376 . S
C706 H717 0.930 1_545 S
C707 O714 1.239 . S
C707 O715 1.230 . S
O708 Cd672 2.268 . S
O708 C682 1.238 . S
O709 Cd673 2.273 1_665 S
O709 C682 1.253 . S
O710 Cd673 2.268 . S
O710 C699 1.238 . S
O711 Cd672 2.273 1_445 S
O711 C699 1.253 . S
O712 Cd672 2.417 . S
O712 C700 1.239 . S
O713 Cd672 2.330 . S
O713 C700 1.230 . S
O714 Cd673 2.417 . S
O714 C707 1.239 . S
O715 Cd673 2.330 . S
O715 C707 1.230 . S
H716 C702 0.929 . S
H717 C706 0.930 1_565 S
H718 C676 0.931 . S
H719 C678 0.930 . S
H720 C684 0.929 . S
H721 C686 0.931 . S
H722 C693 0.931 . S
H723 C695 0.930 . S
H724 C703 0.929 . S
H725 C705 0.931 . S
Cd726 N729 2.334 . S
Cd726 N755 2.304 1_565 S
Cd726 O762 2.268 1_554 S
Cd726 O765 2.273 1_565 S
Cd726 O766 2.417 . S
Cd726 O767 2.330 . S
Cd727 N742 2.304 . S
Cd727 N746 2.334 1_545 S
Cd727 O763 2.273 1_545 S
Cd727 O764 2.268 1_556 S
Cd727 O768 2.417 . S
Cd727 O769 2.330 . S
C728 N729 1.332 . S
C728 C732 1.381 . S
C728 H734 0.931 . S
N729 Cd726 2.334 . S
N729 C728 1.332 . S
N729 C733 1.328 . S
C730 C731 1.396 . S
C730 C733 1.378 . S
C730 H772 0.931 . S
C731 C730 1.396 . S
C731 C732 1.382 . S
C732 C728 1.381 . S
C732 C731 1.382 . S
C732 H773 0.930 . S
C733 N729 1.328 . S
C733 C730 1.378 . S
C733 H735 0.928 . S
H734 C728 0.931 . S
H735 C733 0.928 . S
C736 O762 1.238 . S
C736 O763 1.253 . S
C737 C738 1.379 . S
C737 N742 1.337 . S
C737 H743 0.929 . S
C738 C737 1.379 . S
C738 C739 1.380 . S
C738 H774 0.929 . S
C739 C738 1.380 . S
C739 C740 1.399 . S
C740 C739 1.399 . S
C740 C741 1.376 . S
C740 H775 0.950 . S
C741 C740 1.376 . S
C741 N742 1.338 . S
C741 H744 0.930 1_556 S
N742 Cd727 2.304 . S
N742 C737 1.337 . S
N742 C741 1.338 . S
H743 C737 0.929 . S
H744 C741 0.930 1_554 S
C745 N746 1.332 . S
C745 C749 1.381 . S
C745 H751 0.931 . S
N746 Cd727 2.334 1_565 S
N746 C745 1.332 . S
N746 C750 1.328 1_565 S
C747 C748 1.398 . S
C747 C750 1.378 1_565 S
C747 H776 0.930 1_556 S
C748 C747 1.398 . S
C748 C749 1.382 . S
C749 C745 1.381 . S
C749 C748 1.382 . S
C749 H777 0.930 . S
C750 N746 1.328 1_545 S
C750 C747 1.378 1_545 S
C750 H752 0.930 1_556 S
H751 C745 0.931 . S
H752 C750 0.930 1_554 S
C753 O764 1.238 . S
C753 O765 1.253 . S
C754 O766 1.239 . S
C754 O767 1.230 . S
N755 Cd726 2.304 1_545 S
N755 C756 1.337 . S
N755 C760 1.338 . S
C756 N755 1.337 . S
C756 C757 1.379 . S
C756 H770 0.929 . S
C757 C756 1.379 . S
C757 C758 1.380 . S
C757 H778 0.929 . S
C758 C757 1.380 . S
C758 C759 1.405 . S
C759 C758 1.405 . S
C759 C760 1.375 . S
C759 H779 0.926 1_554 S
C760 N755 1.338 . S
C760 C759 1.375 . S
C760 H771 0.930 1_544 S
C761 O768 1.239 . S
C761 O769 1.230 . S
O762 Cd726 2.268 1_556 S
O762 C736 1.238 . S
O763 Cd727 2.273 1_565 S
O763 C736 1.253 . S
O764 Cd727 2.268 1_554 S
O764 C753 1.238 . S
O765 Cd726 2.273 1_545 S
O765 C753 1.253 . S
O766 Cd726 2.417 . S
O766 C754 1.239 . S
O767 Cd726 2.330 . S
O767 C754 1.230 . S
O768 Cd727 2.417 . S
O768 C761 1.239 . S
O769 Cd727 2.330 . S
O769 C761 1.230 . S
H770 C756 0.929 . S
H771 C760 0.930 1_566 S
H772 C730 0.931 . S
H773 C732 0.930 . S
H774 C738 0.929 . S
H775 C740 0.950 . S
H776 C747 0.930 1_554 S
H777 C749 0.930 . S
H778 C757 0.929 . S
H779 C759 0.926 1_556 S
Cd780 N783 2.334 1_655 S
Cd780 N809 2.304 . S
Cd780 O816 2.268 1_554 S
Cd780 O819 2.273 1_655 S
Cd780 O820 2.417 . S
Cd780 O821 2.330 . S
Cd781 N796 2.304 1_455 S
Cd781 N800 2.334 . S
Cd781 O817 2.273 1_455 S
Cd781 O818 2.268 1_556 S
Cd781 O822 2.417 . S
Cd781 O823 2.330 . S
C782 N783 1.332 . S
C782 C786 1.381 . S
C782 H788 0.931 . S
N783 Cd780 2.334 1_455 S
N783 C782 1.332 . S
N783 C787 1.328 . S
C784 C785 1.396 . S
C784 C787 1.378 . S
C784 H826 0.931 . S
C785 C784 1.396 . S
C785 C786 1.382 . S
C786 C782 1.381 . S
C786 C785 1.382 . S
C786 H827 0.930 . S
C787 N783 1.328 . S
C787 C784 1.378 . S
C787 H789 0.932 1_454 S
H788 C782 0.931 . S
H789 C787 0.932 1_656 S
C790 O816 1.238 . S
C790 O817 1.253 . S
C791 C792 1.379 . S
C791 N796 1.337 . S
C791 H797 0.929 . S
C792 C791 1.379 . S
C792 C793 1.380 . S
C792 H828 0.929 . S
C793 C792 1.380 . S
C793 C794 1.399 . S
C794 C793 1.399 . S
C794 C795 1.357 1_655 S
C794 H829 0.950 . S
C795 C794 1.357 1_455 S
C795 N796 1.345 1_455 S
C795 H798 0.942 1_556 S
N796 Cd781 2.304 1_655 S
N796 C791 1.337 . S
N796 C795 1.345 1_655 S
H797 C791 0.929 . S
H798 C795 0.942 1_554 S
C799 N800 1.332 . S
C799 C803 1.381 . S
C799 H805 0.931 . S
N800 Cd781 2.334 . S
N800 C799 1.332 . S
N800 C804 1.328 . S
C801 C802 1.398 . S
C801 C804 1.378 . S
C801 H830 0.930 1_556 S
C802 C801 1.398 . S
C802 C803 1.382 . S
C803 C799 1.381 . S
C803 C802 1.382 . S
C803 H831 0.930 . S
C804 N800 1.328 . S
C804 C801 1.378 . S
C804 H806 0.930 1_556 S
H805 C799 0.931 . S
H806 C804 0.930 1_554 S
C807 O818 1.238 . S
C807 O819 1.253 . S
C808 O820 1.239 . S
C808 O821 1.230 . S
N809 Cd780 2.304 . S
N809 C810 1.337 . S
N809 C814 1.338 . S
C810 N809 1.337 . S
C810 C811 1.379 . S
C810 H824 0.929 . S
C811 C810 1.379 . S
C811 C812 1.380 . S
C811 H832 0.929 . S
C812 C811 1.380 . S
C812 C813 1.405 . S
C813 C812 1.405 . S
C813 C814 1.375 . S
C813 H833 0.926 1_554 S
C814 N809 1.338 . S
C814 C813 1.375 . S
C814 H825 0.930 1_554 S
C815 O822 1.239 . S
C815 O823 1.230 . S
O816 Cd780 2.268 1_556 S
O816 C790 1.238 . S
O817 Cd781 2.273 1_655 S
O817 C790 1.253 . S
O818 Cd781 2.268 1_554 S
O818 C807 1.238 . S
O819 Cd780 2.273 1_455 S
O819 C807 1.253 . S
O820 Cd780 2.417 . S
O820 C808 1.239 . S
O821 Cd780 2.330 . S
O821 C808 1.230 . S
O822 Cd781 2.417 . S
O822 C815 1.239 . S
O823 Cd781 2.330 . S
O823 C815 1.230 . S
H824 C810 0.929 . S
H825 C814 0.930 1_556 S
H826 C784 0.931 . S
H827 C786 0.930 . S
H828 C792 0.929 . S
H829 C794 0.950 . S
H830 C801 0.930 1_554 S
H831 C803 0.930 . S
H832 C811 0.929 . S
H833 C813 0.926 1_556 S
Cd834 N837 2.334 . S
Cd834 N863 2.304 . S
Cd834 O870 2.268 1_554 S
Cd834 O873 2.273 . S
Cd834 O874 2.417 . S
Cd834 O875 2.330 . S
Cd835 N850 2.304 . S
Cd835 N854 2.334 . S
Cd835 O871 2.273 . S
Cd835 O872 2.268 1_556 S
Cd835 O876 2.417 . S
Cd835 O877 2.330 . S
C836 N837 1.332 . S
C836 C840 1.381 . S
C836 H842 0.931 . S
N837 Cd834 2.334 . S
N837 C836 1.332 . S
N837 C841 1.328 . S
C838 C839 1.396 . S
C838 C841 1.378 . S
C838 H880 0.931 . S
C839 C838 1.396 . S
C839 C840 1.382 . S
C840 C836 1.381 . S
C840 C839 1.382 . S
C840 H881 0.930 . S
C841 N837 1.328 . S
C841 C838 1.378 . S
C841 H843 0.931 1_554 S
H842 C836 0.931 . S
H843 C841 0.931 1_556 S
C844 O870 1.238 . S
C844 O871 1.253 . S
C845 C846 1.379 . S
C845 N850 1.337 . S
C845 H851 0.929 . S
C846 C845 1.379 . S
C846 C847 1.380 . S
C846 H882 0.929 . S
C847 C846 1.380 . S
C847 C848 1.399 . S
C848 C847 1.399 . S
C848 C849 1.376 . S
C848 H883 0.952 . S
C849 C848 1.376 . S
C849 N850 1.338 . S
C849 H852 0.930 1_556 S
N850 Cd835 2.304 . S
N850 C845 1.337 . S
N850 C849 1.338 . S
H851 C845 0.929 . S
H852 C849 0.930 1_554 S
C853 N854 1.332 . S
C853 C857 1.381 . S
C853 H859 0.931 . S
N854 Cd835 2.334 . S
N854 C853 1.332 . S
N854 C858 1.328 . S
C855 C856 1.399 . S
C855 C858 1.378 . S
C855 H884 0.929 1_556 S
C856 C855 1.399 . S
C856 C857 1.382 . S
C857 C853 1.381 . S
C857 C856 1.382 . S
C857 H885 0.930 . S
C858 N854 1.328 . S
C858 C855 1.378 . S
C858 H860 0.930 1_556 S
H859 C853 0.931 . S
H860 C858 0.930 1_554 S
C861 O872 1.238 . S
C861 O873 1.253 . S
C862 O874 1.239 . S
C862 O875 1.230 . S
N863 Cd834 2.304 . S
N863 C864 1.337 . S
N863 C868 1.338 . S
C864 N863 1.337 . S
C864 C865 1.379 . S
C864 H878 0.929 . S
C865 C864 1.379 . S
C865 C866 1.380 . S
C865 H886 0.929 . S
C866 C865 1.380 . S
C866 C867 1.404 . S
C867 C866 1.404 . S
C867 C868 1.375 . S
C867 H887 0.927 1_554 S
C868 N863 1.338 . S
C868 C867 1.375 . S
C868 H879 0.930 1_554 S
C869 O876 1.239 . S
C869 O877 1.230 . S
O870 Cd834 2.268 1_556 S
O870 C844 1.238 . S
O871 Cd835 2.273 . S
O871 C844 1.253 . S
O872 Cd835 2.268 1_554 S
O872 C861 1.238 . S
O873 Cd834 2.273 . S
O873 C861 1.253 . S
O874 Cd834 2.417 . S
O874 C862 1.239 . S
O875 Cd834 2.330 . S
O875 C862 1.230 . S
O876 Cd835 2.417 . S
O876 C869 1.239 . S
O877 Cd835 2.330 . S
O877 C869 1.230 . S
H878 C864 0.929 . S
H879 C868 0.930 1_556 S
H880 C838 0.931 . S
H881 C840 0.930 . S
H882 C846 0.929 . S
H883 C848 0.952 . S
H884 C855 0.929 1_554 S
H885 C857 0.930 . S
H886 C865 0.929 . S
H887 C867 0.927 1_556 S
Cd888 N891 2.334 1_655 S
Cd888 N917 2.304 . S
Cd888 O924 2.268 . S
Cd888 O927 2.273 1_655 S
Cd888 O928 2.417 . S
Cd888 O929 2.330 . S
Cd889 N904 2.304 1_455 S
Cd889 N908 2.334 . S
Cd889 O925 2.273 1_455 S
Cd889 O926 2.268 . S
Cd889 O930 2.417 . S
Cd889 O931 2.330 . S
C890 N891 1.332 . S
C890 C894 1.381 . S
C890 H896 0.931 . S
N891 Cd888 2.334 1_455 S
N891 C890 1.332 . S
N891 C895 1.328 . S
C892 C893 1.396 . S
C892 C895 1.378 . S
C892 H934 0.931 . S
C893 C892 1.396 . S
C893 C894 1.382 . S
C894 C890 1.381 . S
C894 C893 1.382 . S
C894 H935 0.930 . S
C895 N891 1.328 . S
C895 C892 1.378 . S
C895 H897 0.930 1_455 S
H896 C890 0.931 . S
H897 C895 0.930 1_655 S
C898 O924 1.238 . S
C898 O925 1.253 . S
C899 C900 1.379 . S
C899 N904 1.337 . S
C899 H905 0.929 . S
C900 C899 1.379 . S
C900 C901 1.380 . S
C900 H936 0.929 . S
C901 C900 1.380 . S
C901 C902 1.399 . S
C902 C901 1.399 . S
C902 C903 1.357 1_655 S
C902 H937 0.931 . S
C903 C902 1.357 1_455 S
C903 N904 1.345 1_455 S
C903 H906 0.943 . S
N904 Cd889 2.304 1_655 S
N904 C899 1.337 . S
N904 C903 1.345 1_655 S
H905 C899 0.929 . S
H906 C903 0.943 . S
C907 N908 1.332 . S
C907 C911 1.381 . S
C907 H913 0.931 . S
N908 Cd889 2.334 . S
N908 C907 1.332 . S
N908 C912 1.328 . S
C909 C910 1.396 . S
C909 C912 1.378 . S
C909 H938 0.931 . S
C910 C909 1.396 . S
C910 C911 1.382 . S
C911 C907 1.381 . S
C911 C910 1.382 . S
C911 H939 0.930 . S
C912 N908 1.328 . S
C912 C909 1.378 . S
C912 H914 0.930 . S
H913 C907 0.931 . S
H914 C912 0.930 . S
C915 O926 1.238 . S
C915 O927 1.253 . S
C916 O928 1.239 . S
C916 O929 1.230 . S
N917 Cd888 2.304 . S
N917 C918 1.337 . S
N917 C922 1.338 . S
C918 N917 1.337 . S
C918 C919 1.379 . S
C918 H932 0.929 . S
C919 C918 1.379 . S
C919 C920 1.380 . S
C919 H940 0.929 . S
C920 C919 1.380 . S
C920 C921 1.399 . S
C921 C920 1.399 . S
C921 C922 1.376 . S
C921 H941 0.931 . S
C922 N917 1.338 . S
C922 C921 1.376 . S
C922 H933 0.930 . S
C923 O930 1.239 . S
C923 O931 1.230 . S
O924 Cd888 2.268 . S
O924 C898 1.238 . S
O925 Cd889 2.273 1_655 S
O925 C898 1.253 . S
O926 Cd889 2.268 . S
O926 C915 1.238 . S
O927 Cd888 2.273 1_455 S
O927 C915 1.253 . S
O928 Cd888 2.417 . S
O928 C916 1.239 . S
O929 Cd888 2.330 . S
O929 C916 1.230 . S
O930 Cd889 2.417 . S
O930 C923 1.239 . S
O931 Cd889 2.330 . S
O931 C923 1.230 . S
H932 C918 0.929 . S
H933 C922 0.930 . S
H934 C892 0.931 . S
H935 C894 0.930 . S
H936 C900 0.929 . S
H937 C902 0.931 . S
H938 C909 0.931 . S
H939 C911 0.930 . S
H940 C919 0.929 . S
H941 C921 0.931 . S
Cd942 N945 2.334 . S
Cd942 N971 2.304 1_565 S
Cd942 O978 2.268 . S
Cd942 O981 2.273 1_565 S
Cd942 O982 2.417 . S
Cd942 O983 2.330 . S
Cd943 N958 2.304 . S
Cd943 N962 2.334 1_545 S
Cd943 O979 2.273 1_545 S
Cd943 O980 2.268 . S
Cd943 O984 2.417 . S
Cd943 O985 2.330 . S
C944 N945 1.332 . S
C944 C948 1.381 . S
C944 H950 0.931 . S
N945 Cd942 2.334 . S
N945 C944 1.332 . S
N945 C949 1.328 . S
C946 C947 1.396 . S
C946 C949 1.378 . S
C946 H988 0.931 . S
C947 C946 1.396 . S
C947 C948 1.382 . S
C948 C944 1.381 . S
C948 C947 1.382 . S
C948 H989 0.930 . S
C949 N945 1.328 . S
C949 C946 1.378 . S
C949 H951 0.930 . S
H950 C944 0.931 . S
H951 C949 0.930 . S
C952 O978 1.238 . S
C952 O979 1.253 . S
C953 C954 1.379 . S
C953 N958 1.337 . S
C953 H959 0.929 . S
C954 C953 1.379 . S
C954 C955 1.380 . S
C954 H990 0.929 . S
C955 C954 1.380 . S
C955 C956 1.399 . S
C956 C955 1.399 . S
C956 C957 1.376 . S
C956 H991 0.931 . S
C957 C956 1.376 . S
C957 N958 1.338 . S
C957 H960 0.930 . S
N958 Cd943 2.304 . S
N958 C953 1.337 . S
N958 C957 1.338 . S
H959 C953 0.929 . S
H960 C957 0.930 . S
C961 N962 1.332 . S
C961 C965 1.381 . S
C961 H967 0.931 . S
N962 Cd943 2.334 1_565 S
N962 C961 1.332 . S
N962 C966 1.328 1_565 S
C963 C964 1.396 . S
C963 C966 1.378 1_565 S
C963 H992 0.931 . S
C964 C963 1.396 . S
C964 C965 1.382 . S
C965 C961 1.381 . S
C965 C964 1.382 . S
C965 H993 0.930 . S
C966 N962 1.328 1_545 S
C966 C963 1.378 1_545 S
C966 H968 0.930 . S
H967 C961 0.931 . S
H968 C966 0.930 . S
C969 O980 1.238 . S
C969 O981 1.253 . S
C970 O982 1.239 . S
C970 O983 1.230 . S
N971 Cd942 2.304 1_545 S
N971 C972 1.337 . S
N971 C976 1.338 . S
C972 N971 1.337 . S
C972 C973 1.379 . S
C972 H986 0.929 . S
C973 C972 1.379 . S
C973 C974 1.380 . S
C973 H994 0.929 . S
C974 C973 1.380 . S
C974 C975 1.399 . S
C975 C974 1.399 . S
C975 C976 1.376 . S
C975 H995 0.931 . S
C976 N971 1.338 . S
C976 C975 1.376 . S
C976 H987 0.930 1_545 S
C977 O984 1.239 . S
C977 O985 1.230 . S
O978 Cd942 2.268 . S
O978 C952 1.238 . S
O979 Cd943 2.273 1_565 S
O979 C952 1.253 . S
O980 Cd943 2.268 . S
O980 C969 1.238 . S
O981 Cd942 2.273 1_545 S
O981 C969 1.253 . S
O982 Cd942 2.417 . S
O982 C970 1.239 . S
O983 Cd942 2.330 . S
O983 C970 1.230 . S
O984 Cd943 2.417 . S
O984 C977 1.239 . S
O985 Cd943 2.330 . S
O985 C977 1.230 . S
H986 C972 0.929 . S
H987 C976 0.930 1_565 S
H988 C946 0.931 . S
H989 C948 0.930 . S
H990 C954 0.929 . S
H991 C956 0.931 . S
H992 C963 0.931 . S
H993 C965 0.930 . S
H994 C973 0.929 . S
H995 C975 0.931 . S
H996 C1002 0.930 . S
H997 C1005 0.930 . S
H998 C1006 0.930 . S
H999 C1007 0.930 . S
H1000 C1010 0.930 . S
H1001 C1011 0.930 . S
C1002 H996 0.930 . S
C1002 C1003 1.355 . S
C1002 C1004 1.415 . S
C1003 C1002 1.355 . S
C1003 C1005 1.419 . S
C1004 C1002 1.415 . S
C1004 C1009 1.425 . S
C1004 C1011 1.409 . S
C1005 H997 0.930 . S
C1005 C1003 1.419 . S
C1005 C1006 1.362 . S
C1006 H998 0.930 . S
C1006 C1005 1.362 . S
C1006 C1009 1.409 . S
C1007 H999 0.930 . S
C1007 C1008 1.355 . S
C1007 C1009 1.415 . S
C1008 C1007 1.355 . S
C1008 C1010 1.419 . S
C1009 C1004 1.425 . S
C1009 C1006 1.409 . S
C1009 C1007 1.415 . S
C1010 H1000 0.930 . S
C1010 C1008 1.419 . S
C1010 C1011 1.362 . S
C1011 H1001 0.930 . S
C1011 C1004 1.409 . S
C1011 C1010 1.362 . S
H1012 C1018 0.930 . S
H1013 C1021 0.930 . S
H1014 C1022 0.930 . S
H1015 C1023 0.930 . S
H1016 C1026 0.930 . S
H1017 C1027 0.930 . S
C1018 H1012 0.930 . S
C1018 C1019 1.355 . S
C1018 C1020 1.415 . S
C1019 C1018 1.355 . S
C1019 C1021 1.419 . S
C1020 C1018 1.415 . S
C1020 C1025 1.425 . S
C1020 C1027 1.409 . S
C1021 H1013 0.930 . S
C1021 C1019 1.419 . S
C1021 C1022 1.362 . S
C1022 H1014 0.930 . S
C1022 C1021 1.362 . S
C1022 C1025 1.409 . S
C1023 H1015 0.930 . S
C1023 C1024 1.355 . S
C1023 C1025 1.415 . S
C1024 C1023 1.355 . S
C1024 C1026 1.419 . S
C1025 C1020 1.425 . S
C1025 C1022 1.409 . S
C1025 C1023 1.415 . S
C1026 H1016 0.930 . S
C1026 C1024 1.419 . S
C1026 C1027 1.362 . S
C1027 H1017 0.930 . S
C1027 C1020 1.409 . S
C1027 C1026 1.362 . S
H1028 C1034 0.930 . S
H1029 C1037 0.930 . S
H1030 C1038 0.930 . S
H1031 C1039 0.930 . S
H1032 C1042 0.930 . S
H1033 C1043 0.930 . S
C1034 H1028 0.930 . S
C1034 C1035 1.355 . S
C1034 C1036 1.415 . S
C1035 C1034 1.355 . S
C1035 C1037 1.419 . S
C1036 C1034 1.415 . S
C1036 C1041 1.425 . S
C1036 C1043 1.409 . S
C1037 H1029 0.930 . S
C1037 C1035 1.419 . S
C1037 C1038 1.362 . S
C1038 H1030 0.930 . S
C1038 C1037 1.362 . S
C1038 C1041 1.409 . S
C1039 H1031 0.930 . S
C1039 C1040 1.355 . S
C1039 C1041 1.415 . S
C1040 C1039 1.355 . S
C1040 C1042 1.419 . S
C1041 C1036 1.425 . S
C1041 C1038 1.409 . S
C1041 C1039 1.415 . S
C1042 H1032 0.930 . S
C1042 C1040 1.419 . S
C1042 C1043 1.362 . S
C1043 H1033 0.930 . S
C1043 C1036 1.409 . S
C1043 C1042 1.362 . S
H1044 C1050 0.930 . S
H1045 C1053 0.930 . S
H1046 C1054 0.930 . S
H1047 C1055 0.930 . S
H1048 C1058 0.930 . S
H1049 C1059 0.930 . S
C1050 H1044 0.930 . S
C1050 C1051 1.355 . S
C1050 C1052 1.415 . S
C1051 C1050 1.355 . S
C1051 C1053 1.419 . S
C1052 C1050 1.415 . S
C1052 C1057 1.425 . S
C1052 C1059 1.409 . S
C1053 H1045 0.930 . S
C1053 C1051 1.419 . S
C1053 C1054 1.362 . S
C1054 H1046 0.930 . S
C1054 C1053 1.362 . S
C1054 C1057 1.409 . S
C1055 H1047 0.930 . S
C1055 C1056 1.355 . S
C1055 C1057 1.415 . S
C1056 C1055 1.355 . S
C1056 C1058 1.419 . S
C1057 C1052 1.425 . S
C1057 C1054 1.409 . S
C1057 C1055 1.415 . S
C1058 H1048 0.930 . S
C1058 C1056 1.419 . S
C1058 C1059 1.362 . S
C1059 H1049 0.930 . S
C1059 C1052 1.409 . S
C1059 C1058 1.362 . S
H1060 C1066 0.930 . S
H1061 C1069 0.930 . S
H1062 C1070 0.930 . S
H1063 C1071 0.930 . S
H1064 C1074 0.930 . S
H1065 C1075 0.930 . S
C1066 H1060 0.930 . S
C1066 C1067 1.355 . S
C1066 C1068 1.415 . S
C1067 C1066 1.355 . S
C1067 C1069 1.419 . S
C1068 C1066 1.415 . S
C1068 C1073 1.425 . S
C1068 C1075 1.409 . S
C1069 H1061 0.930 . S
C1069 C1067 1.419 . S
C1069 C1070 1.362 . S
C1070 H1062 0.930 . S
C1070 C1069 1.362 . S
C1070 C1073 1.409 . S
C1071 H1063 0.930 . S
C1071 C1072 1.355 . S
C1071 C1073 1.415 . S
C1072 C1071 1.355 . S
C1072 C1074 1.419 . S
C1073 C1068 1.425 . S
C1073 C1070 1.409 . S
C1073 C1071 1.415 . S
C1074 H1064 0.930 . S
C1074 C1072 1.419 . S
C1074 C1075 1.362 . S
C1075 H1065 0.930 . S
C1075 C1068 1.409 . S
C1075 C1074 1.362 . S
H1076 C1082 0.930 . S
H1077 C1085 0.930 . S
H1078 C1086 0.930 . S
H1079 C1087 0.930 . S
H1080 C1090 0.930 . S
H1081 C1091 0.930 . S
C1082 H1076 0.930 . S
C1082 C1083 1.355 . S
C1082 C1084 1.415 . S
C1083 C1082 1.355 . S
C1083 C1085 1.419 . S
C1084 C1082 1.415 . S
C1084 C1089 1.425 . S
C1084 C1091 1.409 . S
C1085 H1077 0.930 . S
C1085 C1083 1.419 . S
C1085 C1086 1.362 . S
C1086 H1078 0.930 . S
C1086 C1085 1.362 . S
C1086 C1089 1.409 . S
C1087 H1079 0.930 . S
C1087 C1088 1.355 . S
C1087 C1089 1.415 . S
C1088 C1087 1.355 . S
C1088 C1090 1.419 . S
C1089 C1084 1.425 . S
C1089 C1086 1.409 . S
C1089 C1087 1.415 . S
C1090 H1080 0.930 . S
C1090 C1088 1.419 . S
C1090 C1091 1.362 . S
C1091 H1081 0.930 . S
C1091 C1084 1.409 . S
C1091 C1090 1.362 . S
H1092 C1098 0.930 . S
H1093 C1101 0.930 . S
H1094 C1102 0.930 . S
H1095 C1103 0.930 . S
H1096 C1106 0.930 . S
H1097 C1107 0.930 . S
C1098 H1092 0.930 . S
C1098 C1099 1.355 . S
C1098 C1100 1.415 . S
C1099 C1098 1.355 . S
C1099 C1101 1.419 . S
C1100 C1098 1.415 . S
C1100 C1105 1.425 . S
C1100 C1107 1.409 . S
C1101 H1093 0.930 . S
C1101 C1099 1.419 . S
C1101 C1102 1.362 . S
C1102 H1094 0.930 . S
C1102 C1101 1.362 . S
C1102 C1105 1.409 . S
C1103 H1095 0.930 . S
C1103 C1104 1.355 . S
C1103 C1105 1.415 . S
C1104 C1103 1.355 . S
C1104 C1106 1.419 . S
C1105 C1100 1.425 . S
C1105 C1102 1.409 . S
C1105 C1103 1.415 . S
C1106 H1096 0.930 . S
C1106 C1104 1.419 . S
C1106 C1107 1.362 . S
C1107 H1097 0.930 . S
C1107 C1100 1.409 . S
C1107 C1106 1.362 . S
H1108 C1114 0.930 . S
H1109 C1117 0.930 . S
H1110 C1118 0.930 . S
H1111 C1119 0.930 . S
H1112 C1122 0.930 . S
H1113 C1123 0.930 . S
C1114 H1108 0.930 . S
C1114 C1115 1.355 . S
C1114 C1116 1.415 . S
C1115 C1114 1.355 . S
C1115 C1117 1.419 . S
C1116 C1114 1.415 . S
C1116 C1121 1.425 . S
C1116 C1123 1.409 . S
C1117 H1109 0.930 . S
C1117 C1115 1.419 . S
C1117 C1118 1.362 . S
C1118 H1110 0.930 . S
C1118 C1117 1.362 . S
C1118 C1121 1.409 . S
C1119 H1111 0.930 . S
C1119 C1120 1.355 . S
C1119 C1121 1.415 . S
C1120 C1119 1.355 . S
C1120 C1122 1.419 . S
C1121 C1116 1.425 . S
C1121 C1118 1.409 . S
C1121 C1119 1.415 . S
C1122 H1112 0.930 . S
C1122 C1120 1.419 . S
C1122 C1123 1.362 . S
C1123 H1113 0.930 . S
C1123 C1116 1.409 . S
C1123 C1122 1.362 . S
H1124 C1130 0.930 . S
H1125 C1133 0.930 . S
H1126 C1134 0.930 . S
H1127 C1135 0.930 . S
H1128 C1138 0.930 . S
H1129 C1139 0.930 . S
C1130 H1124 0.930 . S
C1130 C1131 1.355 . S
C1130 C1132 1.415 . S
C1131 C1130 1.355 . S
C1131 C1133 1.419 . S
C1132 C1130 1.415 . S
C1132 C1137 1.425 . S
C1132 C1139 1.409 . S
C1133 H1125 0.930 . S
C1133 C1131 1.419 . S
C1133 C1134 1.362 . S
C1134 H1126 0.930 . S
C1134 C1133 1.362 . S
C1134 C1137 1.409 . S
C1135 H1127 0.930 . S
C1135 C1136 1.355 . S
C1135 C1137 1.415 . S
C1136 C1135 1.355 . S
C1136 C1138 1.419 . S
C1137 C1132 1.425 . S
C1137 C1134 1.409 . S
C1137 C1135 1.415 . S
C1138 H1128 0.930 . S
C1138 C1136 1.419 . S
C1138 C1139 1.362 . S
C1139 H1129 0.930 . S
C1139 C1132 1.409 . S
C1139 C1138 1.362 . S
H1140 C1146 0.930 . S
H1141 C1149 0.930 . S
H1142 C1150 0.930 . S
H1143 C1151 0.930 . S
H1144 C1154 0.930 . S
H1145 C1155 0.930 . S
C1146 H1140 0.930 . S
C1146 C1147 1.355 . S
C1146 C1148 1.415 . S
C1147 C1146 1.355 . S
C1147 C1149 1.419 . S
C1148 C1146 1.415 . S
C1148 C1153 1.425 . S
C1148 C1155 1.409 . S
C1149 H1141 0.930 . S
C1149 C1147 1.419 . S
C1149 C1150 1.362 . S
C1150 H1142 0.930 . S
C1150 C1149 1.362 . S
C1150 C1153 1.409 . S
C1151 H1143 0.930 . S
C1151 C1152 1.355 . S
C1151 C1153 1.415 . S
C1152 C1151 1.355 . S
C1152 C1154 1.419 . S
C1153 C1148 1.425 . S
C1153 C1150 1.409 . S
C1153 C1151 1.415 . S
C1154 H1144 0.930 . S
C1154 C1152 1.419 . S
C1154 C1155 1.362 . S
C1155 H1145 0.930 . S
C1155 C1148 1.409 . S
C1155 C1154 1.362 . S
H1156 C1162 0.930 . S
H1157 C1165 0.930 . S
H1158 C1166 0.930 . S
H1159 C1167 0.930 . S
H1160 C1170 0.930 . S
H1161 C1171 0.930 . S
C1162 H1156 0.930 . S
C1162 C1163 1.355 . S
C1162 C1164 1.415 . S
C1163 C1162 1.355 . S
C1163 C1165 1.419 . S
C1164 C1162 1.415 . S
C1164 C1169 1.425 . S
C1164 C1171 1.409 . S
C1165 H1157 0.930 . S
C1165 C1163 1.419 . S
C1165 C1166 1.362 . S
C1166 H1158 0.930 . S
C1166 C1165 1.362 . S
C1166 C1169 1.409 . S
C1167 H1159 0.930 . S
C1167 C1168 1.355 . S
C1167 C1169 1.415 . S
C1168 C1167 1.355 . S
C1168 C1170 1.419 . S
C1169 C1164 1.425 . S
C1169 C1166 1.409 . S
C1169 C1167 1.415 . S
C1170 H1160 0.930 . S
C1170 C1168 1.419 . S
C1170 C1171 1.362 . S
C1171 H1161 0.930 . S
C1171 C1164 1.409 . S
C1171 C1170 1.362 . S
H1172 C1178 0.930 . S
H1173 C1181 0.930 . S
H1174 C1182 0.930 . S
H1175 C1183 0.930 . S
H1176 C1186 0.930 . S
H1177 C1187 0.930 . S
C1178 H1172 0.930 . S
C1178 C1179 1.355 . S
C1178 C1180 1.415 . S
C1179 C1178 1.355 . S
C1179 C1181 1.419 . S
C1180 C1178 1.415 . S
C1180 C1185 1.425 . S
C1180 C1187 1.409 . S
C1181 H1173 0.930 . S
C1181 C1179 1.419 . S
C1181 C1182 1.362 . S
C1182 H1174 0.930 . S
C1182 C1181 1.362 . S
C1182 C1185 1.409 . S
C1183 H1175 0.930 . S
C1183 C1184 1.355 . S
C1183 C1185 1.415 . S
C1184 C1183 1.355 . S
C1184 C1186 1.419 . S
C1185 C1180 1.425 . S
C1185 C1182 1.409 . S
C1185 C1183 1.415 . S
C1186 H1176 0.930 . S
C1186 C1184 1.419 . S
C1186 C1187 1.362 . S
C1187 H1177 0.930 . S
C1187 C1180 1.409 . S
C1187 C1186 1.362 . S
H1188 C1194 0.930 . S
H1189 C1197 0.930 . S
H1190 C1198 0.930 . S
H1191 C1199 0.930 . S
H1192 C1202 0.930 . S
H1193 C1203 0.930 . S
C1194 H1188 0.930 . S
C1194 C1195 1.355 . S
C1194 C1196 1.415 . S
C1195 C1194 1.355 . S
C1195 C1197 1.419 . S
C1196 C1194 1.415 . S
C1196 C1201 1.425 . S
C1196 C1203 1.409 . S
C1197 H1189 0.930 . S
C1197 C1195 1.419 . S
C1197 C1198 1.362 . S
C1198 H1190 0.930 . S
C1198 C1197 1.362 . S
C1198 C1201 1.409 . S
C1199 H1191 0.930 . S
C1199 C1200 1.355 . S
C1199 C1201 1.415 . S
C1200 C1199 1.355 . S
C1200 C1202 1.419 . S
C1201 C1196 1.425 . S
C1201 C1198 1.409 . S
C1201 C1199 1.415 . S
C1202 H1192 0.930 . S
C1202 C1200 1.419 . S
C1202 C1203 1.362 . S
C1203 H1193 0.930 . S
C1203 C1196 1.409 . S
C1203 C1202 1.362 . S
H1204 C1210 0.930 . S
H1205 C1213 0.930 . S
H1206 C1214 0.930 . S
H1207 C1215 0.930 . S
H1208 C1218 0.930 . S
H1209 C1219 0.930 . S
C1210 H1204 0.930 . S
C1210 C1211 1.355 . S
C1210 C1212 1.415 . S
C1211 C1210 1.355 . S
C1211 C1213 1.419 . S
C1212 C1210 1.415 . S
C1212 C1217 1.425 . S
C1212 C1219 1.409 . S
C1213 H1205 0.930 . S
C1213 C1211 1.419 . S
C1213 C1214 1.362 . S
C1214 H1206 0.930 . S
C1214 C1213 1.362 . S
C1214 C1217 1.409 . S
C1215 H1207 0.930 . S
C1215 C1216 1.355 . S
C1215 C1217 1.415 . S
C1216 C1215 1.355 . S
C1216 C1218 1.419 . S
C1217 C1212 1.425 . S
C1217 C1214 1.409 . S
C1217 C1215 1.415 . S
C1218 H1208 0.930 . S
C1218 C1216 1.419 . S
C1218 C1219 1.362 . S
C1219 H1209 0.930 . S
C1219 C1212 1.409 . S
C1219 C1218 1.362 . S
H1220 C1226 0.930 . S
H1221 C1229 0.930 . S
H1222 C1230 0.930 . S
H1223 C1231 0.930 . S
H1224 C1234 0.930 . S
H1225 C1235 0.930 . S
C1226 H1220 0.930 . S
C1226 C1227 1.355 . S
C1226 C1228 1.415 . S
C1227 C1226 1.355 . S
C1227 C1229 1.419 . S
C1228 C1226 1.415 . S
C1228 C1233 1.425 . S
C1228 C1235 1.409 . S
C1229 H1221 0.930 . S
C1229 C1227 1.419 . S
C1229 C1230 1.362 . S
C1230 H1222 0.930 . S
C1230 C1229 1.362 . S
C1230 C1233 1.409 . S
C1231 H1223 0.930 . S
C1231 C1232 1.355 . S
C1231 C1233 1.415 . S
C1232 C1231 1.355 . S
C1232 C1234 1.419 . S
C1233 C1228 1.425 . S
C1233 C1230 1.409 . S
C1233 C1231 1.415 . S
C1234 H1224 0.930 . S
C1234 C1232 1.419 . S
C1234 C1235 1.362 . S
C1235 H1225 0.930 . S
C1235 C1228 1.409 . S
C1235 C1234 1.362 . S
H1236 C1242 0.930 . S
H1237 C1245 0.930 . S
H1238 C1246 0.930 . S
H1239 C1247 0.930 . S
H1240 C1250 0.930 . S
H1241 C1251 0.930 . S
C1242 H1236 0.930 . S
C1242 C1243 1.355 . S
C1242 C1244 1.415 . S
C1243 C1242 1.355 . S
C1243 C1245 1.419 . S
C1244 C1242 1.415 . S
C1244 C1249 1.425 . S
C1244 C1251 1.409 . S
C1245 H1237 0.930 . S
C1245 C1243 1.419 . S
C1245 C1246 1.362 . S
C1246 H1238 0.930 . S
C1246 C1245 1.362 . S
C1246 C1249 1.409 . S
C1247 H1239 0.930 . S
C1247 C1248 1.355 . S
C1247 C1249 1.415 . S
C1248 C1247 1.355 . S
C1248 C1250 1.419 . S
C1249 C1244 1.425 . S
C1249 C1246 1.409 . S
C1249 C1247 1.415 . S
C1250 H1240 0.930 . S
C1250 C1248 1.419 . S
C1250 C1251 1.362 . S
C1251 H1241 0.930 . S
C1251 C1244 1.409 . S
C1251 C1250 1.362 . S
H1252 C1258 0.930 . S
H1253 C1261 0.930 . S
H1254 C1262 0.930 . S
H1255 C1263 0.930 . S
H1256 C1266 0.930 . S
H1257 C1267 0.930 . S
C1258 H1252 0.930 . S
C1258 C1259 1.355 . S
C1258 C1260 1.415 . S
C1259 C1258 1.355 . S
C1259 C1261 1.419 . S
C1260 C1258 1.415 . S
C1260 C1265 1.425 . S
C1260 C1267 1.409 . S
C1261 H1253 0.930 . S
C1261 C1259 1.419 . S
C1261 C1262 1.362 . S
C1262 H1254 0.930 . S
C1262 C1261 1.362 . S
C1262 C1265 1.409 . S
C1263 H1255 0.930 . S
C1263 C1264 1.355 . S
C1263 C1265 1.415 . S
C1264 C1263 1.355 . S
C1264 C1266 1.419 . S
C1265 C1260 1.425 . S
C1265 C1262 1.409 . S
C1265 C1263 1.415 . S
C1266 H1256 0.930 . S
C1266 C1264 1.419 . S
C1266 C1267 1.362 . S
C1267 H1257 0.930 . S
C1267 C1260 1.409 . S
C1267 C1266 1.362 . S
H1268 C1274 0.930 . S
H1269 C1277 0.930 . S
H1270 C1278 0.930 . S
H1271 C1279 0.930 . S
H1272 C1282 0.930 . S
H1273 C1283 0.930 . S
C1274 H1268 0.930 . S
C1274 C1275 1.355 . S
C1274 C1276 1.415 . S
C1275 C1274 1.355 . S
C1275 C1277 1.419 . S
C1276 C1274 1.415 . S
C1276 C1281 1.425 . S
C1276 C1283 1.409 . S
C1277 H1269 0.930 . S
C1277 C1275 1.419 . S
C1277 C1278 1.362 . S
C1278 H1270 0.930 . S
C1278 C1277 1.362 . S
C1278 C1281 1.409 . S
C1279 H1271 0.930 . S
C1279 C1280 1.355 . S
C1279 C1281 1.415 . S
C1280 C1279 1.355 . S
C1280 C1282 1.419 . S
C1281 C1276 1.425 . S
C1281 C1278 1.409 . S
C1281 C1279 1.415 . S
C1282 H1272 0.930 . S
C1282 C1280 1.419 . S
C1282 C1283 1.362 . S
C1283 H1273 0.930 . S
C1283 C1276 1.409 . S
C1283 C1282 1.362 . S
H1284 C1290 0.930 . S
H1285 C1293 0.930 . S
H1286 C1294 0.930 . S
H1287 C1295 0.930 . S
H1288 C1298 0.930 . S
H1289 C1299 0.930 . S
C1290 H1284 0.930 . S
C1290 C1291 1.355 . S
C1290 C1292 1.415 . S
C1291 C1290 1.355 . S
C1291 C1293 1.419 . S
C1292 C1290 1.415 . S
C1292 C1297 1.425 . S
C1292 C1299 1.409 . S
C1293 H1285 0.930 . S
C1293 C1291 1.419 . S
C1293 C1294 1.362 . S
C1294 H1286 0.930 . S
C1294 C1293 1.362 . S
C1294 C1297 1.409 . S
C1295 H1287 0.930 . S
C1295 C1296 1.355 . S
C1295 C1297 1.415 . S
C1296 C1295 1.355 . S
C1296 C1298 1.419 . S
C1297 C1292 1.425 . S
C1297 C1294 1.409 . S
C1297 C1295 1.415 . S
C1298 H1288 0.930 . S
C1298 C1296 1.419 . S
C1298 C1299 1.362 . S
C1299 H1289 0.930 . S
C1299 C1292 1.409 . S
C1299 C1298 1.362 . S
H1300 C1306 0.930 . S
H1301 C1309 0.930 . S
H1302 C1310 0.930 . S
H1303 C1311 0.930 . S
H1304 C1314 0.930 . S
H1305 C1315 0.930 . S
C1306 H1300 0.930 . S
C1306 C1307 1.355 . S
C1306 C1308 1.415 . S
C1307 C1306 1.355 . S
C1307 C1309 1.419 . S
C1308 C1306 1.415 . S
C1308 C1313 1.425 . S
C1308 C1315 1.409 . S
C1309 H1301 0.930 . S
C1309 C1307 1.419 . S
C1309 C1310 1.362 . S
C1310 H1302 0.930 . S
C1310 C1309 1.362 . S
C1310 C1313 1.409 . S
C1311 H1303 0.930 . S
C1311 C1312 1.355 . S
C1311 C1313 1.415 . S
C1312 C1311 1.355 . S
C1312 C1314 1.419 . S
C1313 C1308 1.425 . S
C1313 C1310 1.409 . S
C1313 C1311 1.415 . S
C1314 H1304 0.930 . S
C1314 C1312 1.419 . S
C1314 C1315 1.362 . S
C1315 H1305 0.930 . S
C1315 C1308 1.409 . S
C1315 C1314 1.362 . S
H1316 C1322 0.930 . S
H1317 C1325 0.930 . S
H1318 C1326 0.930 . S
H1319 C1327 0.956 . S
H1320 C1330 0.930 . S
H1321 C1331 0.930 . S
C1322 H1316 0.930 . S
C1322 C1323 1.355 . S
C1322 C1324 1.415 . S
C1323 C1322 1.355 . S
C1323 C1325 1.419 . S
C1324 C1322 1.415 . S
C1324 C1329 1.425 . S
C1324 C1331 1.409 . S
C1325 H1317 0.930 . S
C1325 C1323 1.419 . S
C1325 C1326 1.362 . S
C1326 H1318 0.930 . S
C1326 C1325 1.362 . S
C1326 C1329 1.409 . S
C1327 H1319 0.956 . S
C1327 C1328 1.355 . S
C1327 C1329 1.415 . S
C1328 C1327 1.355 . S
C1328 C1330 1.419 . S
C1329 C1324 1.425 . S
C1329 C1326 1.409 . S
C1329 C1327 1.415 . S
C1330 H1320 0.930 . S
C1330 C1328 1.419 . S
C1330 C1331 1.362 . S
C1331 H1321 0.930 . S
C1331 C1324 1.409 . S
C1331 C1330 1.362 . S
H1332 C1338 0.930 . S
H1333 C1341 0.930 . S
H1334 C1342 0.930 . S
H1335 C1343 0.930 . S
H1336 C1346 0.930 . S
H1337 C1347 0.930 . S
C1338 H1332 0.930 . S
C1338 C1339 1.355 . S
C1338 C1340 1.415 . S
C1339 C1338 1.355 . S
C1339 C1341 1.419 . S
C1340 C1338 1.415 . S
C1340 C1345 1.425 . S
C1340 C1347 1.409 . S
C1341 H1333 0.930 . S
C1341 C1339 1.419 . S
C1341 C1342 1.362 . S
C1342 H1334 0.930 . S
C1342 C1341 1.362 . S
C1342 C1345 1.409 . S
C1343 H1335 0.930 . S
C1343 C1344 1.355 . S
C1343 C1345 1.415 . S
C1344 C1343 1.355 . S
C1344 C1346 1.419 . S
C1345 C1340 1.425 . S
C1345 C1342 1.409 . S
C1345 C1343 1.415 . S
C1346 H1336 0.930 . S
C1346 C1344 1.419 . S
C1346 C1347 1.362 . S
C1347 H1337 0.930 . S
C1347 C1340 1.409 . S
C1347 C1346 1.362 . S
H1348 C1354 0.930 . S
H1349 C1357 0.930 . S
H1350 C1358 0.930 . S
H1351 C1359 0.930 . S
H1352 C1362 0.930 . S
H1353 C1363 0.930 . S
C1354 H1348 0.930 . S
C1354 C1355 1.355 . S
C1354 C1356 1.415 . S
C1355 C1354 1.355 . S
C1355 C1357 1.419 . S
C1356 C1354 1.415 . S
C1356 C1361 1.425 . S
C1356 C1363 1.409 . S
C1357 H1349 0.930 . S
C1357 C1355 1.419 . S
C1357 C1358 1.362 . S
C1358 H1350 0.930 . S
C1358 C1357 1.362 . S
C1358 C1361 1.409 . S
C1359 H1351 0.930 . S
C1359 C1360 1.355 . S
C1359 C1361 1.415 . S
C1360 C1359 1.355 . S
C1360 C1362 1.419 . S
C1361 C1356 1.425 . S
C1361 C1358 1.409 . S
C1361 C1359 1.415 . S
C1362 H1352 0.930 . S
C1362 C1360 1.419 . S
C1362 C1363 1.362 . S
C1363 H1353 0.930 . S
C1363 C1356 1.409 . S
C1363 C1362 1.362 . S
H1364 C1370 0.930 . S
H1365 C1373 0.930 . S
H1366 C1374 0.930 . S
H1367 C1375 0.930 . S
H1368 C1378 0.930 . S
H1369 C1379 0.930 . S
C1370 H1364 0.930 . S
C1370 C1371 1.355 . S
C1370 C1372 1.415 . S
C1371 C1370 1.355 . S
C1371 C1373 1.419 . S
C1372 C1370 1.415 . S
C1372 C1377 1.425 . S
C1372 C1379 1.409 . S
C1373 H1365 0.930 . S
C1373 C1371 1.419 . S
C1373 C1374 1.362 . S
C1374 H1366 0.930 . S
C1374 C1373 1.362 . S
C1374 C1377 1.409 . S
C1375 H1367 0.930 . S
C1375 C1376 1.355 . S
C1375 C1377 1.415 . S
C1376 C1375 1.355 . S
C1376 C1378 1.419 . S
C1377 C1372 1.425 . S
C1377 C1374 1.409 . S
C1377 C1375 1.415 . S
C1378 H1368 0.930 . S
C1378 C1376 1.419 . S
C1378 C1379 1.362 . S
C1379 H1369 0.930 . S
C1379 C1372 1.409 . S
C1379 C1378 1.362 . S
H1380 C1386 0.930 . S
H1381 C1389 0.930 . S
H1382 C1390 0.930 . S
H1383 C1391 0.930 . S
H1384 C1394 0.930 . S
H1385 C1395 0.930 . S
C1386 H1380 0.930 . S
C1386 C1387 1.355 . S
C1386 C1388 1.415 . S
C1387 C1386 1.355 . S
C1387 C1389 1.419 . S
C1388 C1386 1.415 . S
C1388 C1393 1.425 . S
C1388 C1395 1.409 . S
C1389 H1381 0.930 . S
C1389 C1387 1.419 . S
C1389 C1390 1.362 . S
C1390 H1382 0.930 . S
C1390 C1389 1.362 . S
C1390 C1393 1.409 . S
C1391 H1383 0.930 . S
C1391 C1392 1.355 . S
C1391 C1393 1.415 . S
C1392 C1391 1.355 . S
C1392 C1394 1.419 . S
C1393 C1388 1.425 . S
C1393 C1390 1.409 . S
C1393 C1391 1.415 . S
C1394 H1384 0.930 . S
C1394 C1392 1.419 . S
C1394 C1395 1.362 . S
C1395 H1385 0.930 . S
C1395 C1388 1.409 . S
C1395 C1394 1.362 . S
H1396 C1402 0.930 . S
H1397 C1405 0.930 . S
H1398 C1406 0.930 . S
H1399 C1407 0.930 . S
H1400 C1410 0.930 1_554 S
H1401 C1411 0.930 . S
C1402 H1396 0.930 . S
C1402 C1403 1.355 . S
C1402 C1404 1.415 . S
C1403 C1402 1.355 . S
C1403 C1405 1.419 . S
C1404 C1402 1.415 . S
C1404 C1409 1.425 . S
C1404 C1411 1.409 . S
C1405 H1397 0.930 . S
C1405 C1403 1.419 . S
C1405 C1406 1.362 . S
C1406 H1398 0.930 . S
C1406 C1405 1.362 . S
C1406 C1409 1.409 . S
C1407 H1399 0.930 . S
C1407 C1408 1.355 . S
C1407 C1409 1.415 . S
C1408 C1407 1.355 . S
C1408 C1410 1.419 . S
C1409 C1404 1.425 . S
C1409 C1406 1.409 . S
C1409 C1407 1.415 . S
C1410 H1400 0.930 1_556 S
C1410 C1408 1.419 . S
C1410 C1411 1.362 . S
C1411 H1401 0.930 . S
C1411 C1404 1.409 . S
C1411 C1410 1.362 . S
H1412 C1418 0.930 . S
H1413 C1421 0.930 . S
H1414 C1422 0.930 . S
H1415 C1423 0.930 . S
H1416 C1426 0.930 . S
H1417 C1427 0.930 . S
C1418 H1412 0.930 . S
C1418 C1419 1.355 . S
C1418 C1420 1.415 . S
C1419 C1418 1.355 . S
C1419 C1421 1.419 . S
C1420 C1418 1.415 . S
C1420 C1425 1.425 . S
C1420 C1427 1.409 . S
C1421 H1413 0.930 . S
C1421 C1419 1.419 . S
C1421 C1422 1.362 . S
C1422 H1414 0.930 . S
C1422 C1421 1.362 . S
C1422 C1425 1.409 . S
C1423 H1415 0.930 . S
C1423 C1424 1.355 . S
C1423 C1425 1.415 . S
C1424 C1423 1.355 . S
C1424 C1426 1.419 . S
C1425 C1420 1.425 . S
C1425 C1422 1.409 . S
C1425 C1423 1.415 . S
C1426 H1416 0.930 . S
C1426 C1424 1.419 . S
C1426 C1427 1.362 . S
C1427 H1417 0.930 . S
C1427 C1420 1.409 . S
C1427 C1426 1.362 . S
H1428 C1434 0.930 . S
H1429 C1437 0.930 . S
H1430 C1438 0.930 . S
H1431 C1439 0.930 . S
H1432 C1442 0.930 . S
H1433 C1443 0.930 . S
C1434 H1428 0.930 . S
C1434 C1435 1.355 . S
C1434 C1436 1.415 . S
C1435 C1434 1.355 . S
C1435 C1437 1.419 . S
C1436 C1434 1.415 . S
C1436 C1441 1.425 . S
C1436 C1443 1.409 . S
C1437 H1429 0.930 . S
C1437 C1435 1.419 . S
C1437 C1438 1.362 . S
C1438 H1430 0.930 . S
C1438 C1437 1.362 . S
C1438 C1441 1.409 . S
C1439 H1431 0.930 . S
C1439 C1440 1.355 . S
C1439 C1441 1.415 . S
C1440 C1439 1.355 . S
C1440 C1442 1.419 . S
C1441 C1436 1.425 . S
C1441 C1438 1.409 . S
C1441 C1439 1.415 . S
C1442 H1432 0.930 . S
C1442 C1440 1.419 . S
C1442 C1443 1.362 . S
C1443 H1433 0.930 . S
C1443 C1436 1.409 . S
C1443 C1442 1.362 . S
H1444 C1450 0.930 . S
H1445 C1453 0.930 . S
H1446 C1454 0.930 . S
H1447 C1455 0.930 . S
H1448 C1458 0.930 . S
H1449 C1459 0.930 . S
C1450 H1444 0.930 . S
C1450 C1451 1.355 . S
C1450 C1452 1.415 . S
C1451 C1450 1.355 . S
C1451 C1453 1.419 . S
C1452 C1450 1.415 . S
C1452 C1457 1.425 . S
C1452 C1459 1.409 . S
C1453 H1445 0.930 . S
C1453 C1451 1.419 . S
C1453 C1454 1.362 . S
C1454 H1446 0.930 . S
C1454 C1453 1.362 . S
C1454 C1457 1.409 . S
C1455 H1447 0.930 . S
C1455 C1456 1.355 . S
C1455 C1457 1.415 . S
C1456 C1455 1.355 . S
C1456 C1458 1.419 . S
C1457 C1452 1.425 . S
C1457 C1454 1.409 . S
C1457 C1455 1.415 . S
C1458 H1448 0.930 . S
C1458 C1456 1.419 . S
C1458 C1459 1.362 . S
C1459 H1449 0.930 . S
C1459 C1452 1.409 . S
C1459 C1458 1.362 . S
H1460 C1466 0.930 . S
H1461 C1469 0.930 . S
H1462 C1470 0.930 . S
H1463 C1471 0.930 . S
H1464 C1474 0.930 . S
H1465 C1475 0.930 . S
C1466 H1460 0.930 . S
C1466 C1467 1.355 . S
C1466 C1468 1.415 . S
C1467 C1466 1.355 . S
C1467 C1469 1.419 . S
C1468 C1466 1.415 . S
C1468 C1473 1.425 . S
C1468 C1475 1.409 . S
C1469 H1461 0.930 . S
C1469 C1467 1.419 . S
C1469 C1470 1.362 . S
C1470 H1462 0.930 . S
C1470 C1469 1.362 . S
C1470 C1473 1.409 . S
C1471 H1463 0.930 . S
C1471 C1472 1.355 . S
C1471 C1473 1.415 . S
C1472 C1471 1.355 . S
C1472 C1474 1.419 . S
C1473 C1468 1.425 . S
C1473 C1470 1.409 . S
C1473 C1471 1.415 . S
C1474 H1464 0.930 . S
C1474 C1472 1.419 . S
C1474 C1475 1.362 . S
C1475 H1465 0.930 . S
C1475 C1468 1.409 . S
C1475 C1474 1.362 . S
H1476 C1482 0.930 . S
H1477 C1485 0.930 . S
H1478 C1486 0.930 . S
H1479 C1487 0.930 . S
H1480 C1490 0.930 . S
H1481 C1491 0.930 . S
C1482 H1476 0.930 . S
C1482 C1483 1.355 . S
C1482 C1484 1.415 . S
C1483 C1482 1.355 . S
C1483 C1485 1.419 . S
C1484 C1482 1.415 . S
C1484 C1489 1.425 . S
C1484 C1491 1.409 . S
C1485 H1477 0.930 . S
C1485 C1483 1.419 . S
C1485 C1486 1.362 . S
C1486 H1478 0.930 . S
C1486 C1485 1.362 . S
C1486 C1489 1.409 . S
C1487 H1479 0.930 . S
C1487 C1488 1.355 . S
C1487 C1489 1.415 . S
C1488 C1487 1.355 . S
C1488 C1490 1.419 . S
C1489 C1484 1.425 . S
C1489 C1486 1.409 . S
C1489 C1487 1.415 . S
C1490 H1480 0.930 . S
C1490 C1488 1.419 . S
C1490 C1491 1.362 . S
C1491 H1481 0.930 . S
C1491 C1484 1.409 . S
C1491 C1490 1.362 . S
H1492 C1498 0.930 . S
H1493 C1501 0.930 . S
H1494 C1502 0.930 . S
H1495 C1503 0.930 . S
H1496 C1506 0.930 . S
H1497 C1507 0.930 . S
C1498 H1492 0.930 . S
C1498 C1499 1.355 . S
C1498 C1500 1.415 . S
C1499 C1498 1.355 . S
C1499 C1501 1.419 . S
C1500 C1498 1.415 . S
C1500 C1505 1.425 . S
C1500 C1507 1.409 . S
C1501 H1493 0.930 . S
C1501 C1499 1.419 . S
C1501 C1502 1.362 . S
C1502 H1494 0.930 . S
C1502 C1501 1.362 . S
C1502 C1505 1.409 . S
C1503 H1495 0.930 . S
C1503 C1504 1.355 . S
C1503 C1505 1.415 . S
C1504 C1503 1.355 . S
C1504 C1506 1.419 . S
C1505 C1500 1.425 . S
C1505 C1502 1.409 . S
C1505 C1503 1.415 . S
C1506 H1496 0.930 . S
C1506 C1504 1.419 . S
C1506 C1507 1.362 . S
C1507 H1497 0.930 . S
C1507 C1500 1.409 . S
C1507 C1506 1.362 . S
H1508 C1514 0.930 . S
H1509 C1517 0.930 . S
H1510 C1518 0.930 . S
H1511 C1519 0.930 . S
H1512 C1522 0.930 . S
H1513 C1523 0.930 . S
C1514 H1508 0.930 . S
C1514 C1515 1.355 . S
C1514 C1516 1.415 . S
C1515 C1514 1.355 . S
C1515 C1517 1.419 . S
C1516 C1514 1.415 . S
C1516 C1521 1.425 . S
C1516 C1523 1.409 . S
C1517 H1509 0.930 . S
C1517 C1515 1.419 . S
C1517 C1518 1.362 . S
C1518 H1510 0.930 . S
C1518 C1517 1.362 . S
C1518 C1521 1.409 . S
C1519 H1511 0.930 . S
C1519 C1520 1.355 . S
C1519 C1521 1.415 . S
C1520 C1519 1.355 . S
C1520 C1522 1.419 . S
C1521 C1516 1.425 . S
C1521 C1518 1.409 . S
C1521 C1519 1.415 . S
C1522 H1512 0.930 . S
C1522 C1520 1.419 . S
C1522 C1523 1.362 . S
C1523 H1513 0.930 . S
C1523 C1516 1.409 . S
C1523 C1522 1.362 . S
H1524 C1530 0.930 . S
H1525 C1533 0.930 . S
H1526 C1534 0.930 . S
H1527 C1535 0.930 . S
H1528 C1538 0.930 . S
H1529 C1539 0.930 . S
C1530 H1524 0.930 . S
C1530 C1531 1.355 . S
C1530 C1532 1.415 . S
C1531 C1530 1.355 . S
C1531 C1533 1.419 . S
C1532 C1530 1.415 . S
C1532 C1537 1.425 . S
C1532 C1539 1.409 . S
C1533 H1525 0.930 . S
C1533 C1531 1.419 . S
C1533 C1534 1.362 . S
C1534 H1526 0.930 . S
C1534 C1533 1.362 . S
C1534 C1537 1.409 . S
C1535 H1527 0.930 . S
C1535 C1536 1.355 . S
C1535 C1537 1.415 . S
C1536 C1535 1.355 . S
C1536 C1538 1.419 . S
C1537 C1532 1.425 . S
C1537 C1534 1.409 . S
C1537 C1535 1.415 . S
C1538 H1528 0.930 . S
C1538 C1536 1.419 . S
C1538 C1539 1.362 . S
C1539 H1529 0.930 . S
C1539 C1532 1.409 . S
C1539 C1538 1.362 . S
H1540 C1546 0.930 . S
H1541 C1549 0.930 . S
H1542 C1550 0.930 . S
H1543 C1551 0.930 . S
H1544 C1554 0.930 . S
H1545 C1555 0.930 . S
C1546 H1540 0.930 . S
C1546 C1547 1.355 . S
C1546 C1548 1.415 . S
C1547 C1546 1.355 . S
C1547 C1549 1.419 . S
C1548 C1546 1.415 . S
C1548 C1553 1.425 . S
C1548 C1555 1.409 . S
C1549 H1541 0.930 . S
C1549 C1547 1.419 . S
C1549 C1550 1.362 . S
C1550 H1542 0.930 . S
C1550 C1549 1.362 . S
C1550 C1553 1.409 . S
C1551 H1543 0.930 . S
C1551 C1552 1.355 . S
C1551 C1553 1.415 . S
C1552 C1551 1.355 . S
C1552 C1554 1.419 . S
C1553 C1548 1.425 . S
C1553 C1550 1.409 . S
C1553 C1551 1.415 . S
C1554 H1544 0.930 . S
C1554 C1552 1.419 . S
C1554 C1555 1.362 . S
C1555 H1545 0.930 . S
C1555 C1548 1.409 . S
C1555 C1554 1.362 . S
H1556 C1562 0.930 . S
H1557 C1565 0.930 . S
H1558 C1566 0.930 . S
H1559 C1567 0.930 . S
H1560 C1570 0.930 . S
H1561 C1571 0.930 . S
C1562 H1556 0.930 . S
C1562 C1563 1.355 . S
C1562 C1564 1.415 . S
C1563 C1562 1.355 . S
C1563 C1565 1.419 . S
C1564 C1562 1.415 . S
C1564 C1569 1.425 . S
C1564 C1571 1.409 . S
C1565 H1557 0.930 . S
C1565 C1563 1.419 . S
C1565 C1566 1.362 . S
C1566 H1558 0.930 . S
C1566 C1565 1.362 . S
C1566 C1569 1.409 . S
C1567 H1559 0.930 . S
C1567 C1568 1.355 . S
C1567 C1569 1.415 . S
C1568 C1567 1.355 . S
C1568 C1570 1.419 . S
C1569 C1564 1.425 . S
C1569 C1566 1.409 . S
C1569 C1567 1.415 . S
C1570 H1560 0.930 . S
C1570 C1568 1.419 . S
C1570 C1571 1.362 . S
C1571 H1561 0.930 . S
C1571 C1564 1.409 . S
C1571 C1570 1.362 . S
H1572 C1578 0.930 . S
H1573 C1581 0.930 . S
H1574 C1582 0.930 . S
H1575 C1583 0.930 . S
H1576 C1586 0.930 . S
H1577 C1587 0.930 . S
C1578 H1572 0.930 . S
C1578 C1579 1.355 . S
C1578 C1580 1.415 . S
C1579 C1578 1.355 . S
C1579 C1581 1.419 . S
C1580 C1578 1.415 . S
C1580 C1585 1.425 . S
C1580 C1587 1.409 . S
C1581 H1573 0.930 . S
C1581 C1579 1.419 . S
C1581 C1582 1.362 . S
C1582 H1574 0.930 . S
C1582 C1581 1.362 . S
C1582 C1585 1.409 . S
C1583 H1575 0.930 . S
C1583 C1584 1.355 . S
C1583 C1585 1.415 . S
C1584 C1583 1.355 . S
C1584 C1586 1.419 . S
C1585 C1580 1.425 . S
C1585 C1582 1.409 . S
C1585 C1583 1.415 . S
C1586 H1576 0.930 . S
C1586 C1584 1.419 . S
C1586 C1587 1.362 . S
C1587 H1577 0.930 . S
C1587 C1580 1.409 . S
C1587 C1586 1.362 . S
H1588 C1594 0.930 . S
H1589 C1597 0.930 . S
H1590 C1598 0.930 . S
H1591 C1599 0.930 . S
H1592 C1602 0.930 . S
H1593 C1603 0.930 . S
C1594 H1588 0.930 . S
C1594 C1595 1.355 . S
C1594 C1596 1.415 . S
C1595 C1594 1.355 . S
C1595 C1597 1.419 . S
C1596 C1594 1.415 . S
C1596 C1601 1.425 . S
C1596 C1603 1.409 . S
C1597 H1589 0.930 . S
C1597 C1595 1.419 . S
C1597 C1598 1.362 . S
C1598 H1590 0.930 . S
C1598 C1597 1.362 . S
C1598 C1601 1.409 . S
C1599 H1591 0.930 . S
C1599 C1600 1.355 . S
C1599 C1601 1.415 . S
C1600 C1599 1.355 . S
C1600 C1602 1.419 . S
C1601 C1596 1.425 . S
C1601 C1598 1.409 . S
C1601 C1599 1.415 . S
C1602 H1592 0.930 . S
C1602 C1600 1.419 . S
C1602 C1603 1.362 . S
C1603 H1593 0.930 . S
C1603 C1596 1.409 . S
C1603 C1602 1.362 . S
H1604 C1610 0.930 . S
H1605 C1613 0.930 . S
H1606 C1614 0.930 . S
H1607 C1615 0.930 . S
H1608 C1618 0.930 . S
H1609 C1619 0.930 . S
C1610 H1604 0.930 . S
C1610 C1611 1.355 . S
C1610 C1612 1.415 . S
C1611 C1610 1.355 . S
C1611 C1613 1.419 . S
C1612 C1610 1.415 . S
C1612 C1617 1.425 . S
C1612 C1619 1.409 . S
C1613 H1605 0.930 . S
C1613 C1611 1.419 . S
C1613 C1614 1.362 . S
C1614 H1606 0.930 . S
C1614 C1613 1.362 . S
C1614 C1617 1.409 . S
C1615 H1607 0.930 . S
C1615 C1616 1.355 . S
C1615 C1617 1.415 . S
C1616 C1615 1.355 . S
C1616 C1618 1.419 . S
C1617 C1612 1.425 . S
C1617 C1614 1.409 . S
C1617 C1615 1.415 . S
C1618 H1608 0.930 . S
C1618 C1616 1.419 . S
C1618 C1619 1.362 . S
C1619 H1609 0.930 . S
C1619 C1612 1.409 . S
C1619 C1618 1.362 . S
H1620 C1626 0.930 . S
H1621 C1629 0.930 . S
H1622 C1630 0.930 . S
H1623 C1631 0.930 . S
H1624 C1634 0.930 . S
H1625 C1635 0.930 . S
C1626 H1620 0.930 . S
C1626 C1627 1.355 . S
C1626 C1628 1.415 . S
C1627 C1626 1.355 . S
C1627 C1629 1.419 . S
C1628 C1626 1.415 . S
C1628 C1633 1.425 . S
C1628 C1635 1.409 . S
C1629 H1621 0.930 . S
C1629 C1627 1.419 . S
C1629 C1630 1.362 . S
C1630 H1622 0.930 . S
C1630 C1629 1.362 . S
C1630 C1633 1.409 . S
C1631 H1623 0.930 . S
C1631 C1632 1.355 . S
C1631 C1633 1.415 . S
C1632 C1631 1.355 . S
C1632 C1634 1.419 . S
C1633 C1628 1.425 . S
C1633 C1630 1.409 . S
C1633 C1631 1.415 . S
C1634 H1624 0.930 . S
C1634 C1632 1.419 . S
C1634 C1635 1.362 . S
C1635 H1625 0.930 . S
C1635 C1628 1.409 . S
C1635 C1634 1.362 . S
H1636 C1642 0.930 . S
H1637 C1645 0.930 . S
H1638 C1646 0.930 . S
H1639 C1647 0.930 . S
H1640 C1650 0.930 . S
H1641 C1651 0.930 . S
C1642 H1636 0.930 . S
C1642 C1643 1.355 . S
C1642 C1644 1.415 . S
C1643 C1642 1.355 . S
C1643 C1645 1.419 . S
C1644 C1642 1.415 . S
C1644 C1649 1.425 . S
C1644 C1651 1.409 . S
C1645 H1637 0.930 . S
C1645 C1643 1.419 . S
C1645 C1646 1.362 . S
C1646 H1638 0.930 . S
C1646 C1645 1.362 . S
C1646 C1649 1.409 . S
C1647 H1639 0.930 . S
C1647 C1648 1.355 . S
C1647 C1649 1.415 . S
C1648 C1647 1.355 . S
C1648 C1650 1.419 . S
C1649 C1644 1.425 . S
C1649 C1646 1.409 . S
C1649 C1647 1.415 . S
C1650 H1640 0.930 . S
C1650 C1648 1.419 . S
C1650 C1651 1.362 . S
C1651 H1641 0.930 . S
C1651 C1644 1.409 . S
C1651 C1650 1.362 . S
H1652 C1658 0.930 . S
H1653 C1661 0.930 . S
H1654 C1662 0.930 . S
H1655 C1663 0.930 . S
H1656 C1666 0.930 . S
H1657 C1667 0.930 . S
C1658 H1652 0.930 . S
C1658 C1659 1.355 . S
C1658 C1660 1.415 . S
C1659 C1658 1.355 . S
C1659 C1661 1.419 . S
C1660 C1658 1.415 . S
C1660 C1665 1.425 . S
C1660 C1667 1.409 . S
C1661 H1653 0.930 . S
C1661 C1659 1.419 . S
C1661 C1662 1.362 . S
C1662 H1654 0.930 . S
C1662 C1661 1.362 . S
C1662 C1665 1.409 . S
C1663 H1655 0.930 . S
C1663 C1664 1.355 . S
C1663 C1665 1.415 . S
C1664 C1663 1.355 . S
C1664 C1666 1.419 . S
C1665 C1660 1.425 . S
C1665 C1662 1.409 . S
C1665 C1663 1.415 . S
C1666 H1656 0.930 . S
C1666 C1664 1.419 . S
C1666 C1667 1.362 . S
C1667 H1657 0.930 . S
C1667 C1660 1.409 . S
C1667 C1666 1.362 . S
H1668 C1674 0.930 . S
H1669 C1677 0.930 . S
H1670 C1678 0.930 . S
H1671 C1679 0.930 . S
H1672 C1682 0.930 . S
H1673 C1683 0.930 . S
C1674 H1668 0.930 . S
C1674 C1675 1.355 . S
C1674 C1676 1.415 . S
C1675 C1674 1.355 . S
C1675 C1677 1.419 . S
C1676 C1674 1.415 . S
C1676 C1681 1.425 . S
C1676 C1683 1.409 . S
C1677 H1669 0.930 . S
C1677 C1675 1.419 . S
C1677 C1678 1.362 . S
C1678 H1670 0.930 . S
C1678 C1677 1.362 . S
C1678 C1681 1.409 . S
C1679 H1671 0.930 . S
C1679 C1680 1.355 . S
C1679 C1681 1.415 . S
C1680 C1679 1.355 . S
C1680 C1682 1.419 . S
C1681 C1676 1.425 . S
C1681 C1678 1.409 . S
C1681 C1679 1.415 . S
C1682 H1672 0.930 . S
C1682 C1680 1.419 . S
C1682 C1683 1.362 . S
C1683 H1673 0.930 . S
C1683 C1676 1.409 . S
C1683 C1682 1.362 . S
H1684 C1690 0.930 . S
H1685 C1693 0.930 . S
H1686 C1694 0.930 . S
H1687 C1695 0.930 . S
H1688 C1698 0.930 . S
H1689 C1699 0.930 . S
C1690 H1684 0.930 . S
C1690 C1691 1.355 . S
C1690 C1692 1.415 . S
C1691 C1690 1.355 . S
C1691 C1693 1.419 . S
C1692 C1690 1.415 . S
C1692 C1697 1.425 . S
C1692 C1699 1.409 . S
C1693 H1685 0.930 . S
C1693 C1691 1.419 . S
C1693 C1694 1.362 . S
C1694 H1686 0.930 . S
C1694 C1693 1.362 . S
C1694 C1697 1.409 . S
C1695 H1687 0.930 . S
C1695 C1696 1.355 . S
C1695 C1697 1.415 . S
C1696 C1695 1.355 . S
C1696 C1698 1.419 . S
C1697 C1692 1.425 . S
C1697 C1694 1.409 . S
C1697 C1695 1.415 . S
C1698 H1688 0.930 . S
C1698 C1696 1.419 . S
C1698 C1699 1.362 . S
C1699 H1689 0.930 . S
C1699 C1692 1.409 . S
C1699 C1698 1.362 . S
H1700 C1706 0.930 . S
H1701 C1709 0.930 . S
H1702 C1710 0.930 . S
H1703 C1711 0.930 . S
H1704 C1714 0.930 . S
H1705 C1715 0.930 . S
C1706 H1700 0.930 . S
C1706 C1707 1.355 . S
C1706 C1708 1.415 . S
C1707 C1706 1.355 . S
C1707 C1709 1.419 . S
C1708 C1706 1.415 . S
C1708 C1713 1.425 . S
C1708 C1715 1.409 . S
C1709 H1701 0.930 . S
C1709 C1707 1.419 . S
C1709 C1710 1.362 . S
C1710 H1702 0.930 . S
C1710 C1709 1.362 . S
C1710 C1713 1.409 . S
C1711 H1703 0.930 . S
C1711 C1712 1.355 . S
C1711 C1713 1.415 . S
C1712 C1711 1.355 . S
C1712 C1714 1.419 . S
C1713 C1708 1.425 . S
C1713 C1710 1.409 . S
C1713 C1711 1.415 . S
C1714 H1704 0.930 . S
C1714 C1712 1.419 . S
C1714 C1715 1.362 . S
C1715 H1705 0.930 . S
C1715 C1708 1.409 . S
C1715 C1714 1.362 . S
H1716 C1722 0.930 . S
H1717 C1725 0.930 . S
H1718 C1726 0.930 . S
H1719 C1727 0.930 . S
H1720 C1730 0.930 . S
H1721 C1731 0.930 . S
C1722 H1716 0.930 . S
C1722 C1723 1.355 . S
C1722 C1724 1.415 . S
C1723 C1722 1.355 . S
C1723 C1725 1.419 . S
C1724 C1722 1.415 . S
C1724 C1729 1.425 . S
C1724 C1731 1.409 . S
C1725 H1717 0.930 . S
C1725 C1723 1.419 . S
C1725 C1726 1.362 . S
C1726 H1718 0.930 . S
C1726 C1725 1.362 . S
C1726 C1729 1.409 . S
C1727 H1719 0.930 . S
C1727 C1728 1.355 . S
C1727 C1729 1.415 . S
C1728 C1727 1.355 . S
C1728 C1730 1.419 . S
C1729 C1724 1.425 . S
C1729 C1726 1.409 . S
C1729 C1727 1.415 . S
C1730 H1720 0.930 . S
C1730 C1728 1.419 . S
C1730 C1731 1.362 . S
C1731 H1721 0.930 . S
C1731 C1724 1.409 . S
C1731 C1730 1.362 . S
H1732 C1738 0.930 . S
H1733 C1741 0.930 . S
H1734 C1742 0.930 . S
H1735 C1743 0.930 . S
H1736 C1746 0.930 . S
H1737 C1747 0.930 . S
C1738 H1732 0.930 . S
C1738 C1739 1.355 . S
C1738 C1740 1.415 . S
C1739 C1738 1.355 . S
C1739 C1741 1.419 . S
C1740 C1738 1.415 . S
C1740 C1745 1.425 . S
C1740 C1747 1.409 . S
C1741 H1733 0.930 . S
C1741 C1739 1.419 . S
C1741 C1742 1.362 . S
C1742 H1734 0.930 . S
C1742 C1741 1.362 . S
C1742 C1745 1.409 . S
C1743 H1735 0.930 . S
C1743 C1744 1.355 . S
C1743 C1745 1.415 . S
C1744 C1743 1.355 . S
C1744 C1746 1.419 . S
C1745 C1740 1.425 . S
C1745 C1742 1.409 . S
C1745 C1743 1.415 . S
C1746 H1736 0.930 . S
C1746 C1744 1.419 . S
C1746 C1747 1.362 . S
C1747 H1737 0.930 . S
C1747 C1740 1.409 . S
C1747 C1746 1.362 . S
H1748 C1754 0.930 . S
H1749 C1757 0.930 . S
H1750 C1758 0.930 . S
H1751 C1759 0.930 . S
H1752 C1762 0.930 . S
H1753 C1763 0.930 . S
C1754 H1748 0.930 . S
C1754 C1755 1.355 . S
C1754 C1756 1.415 . S
C1755 C1754 1.355 . S
C1755 C1757 1.419 . S
C1756 C1754 1.415 . S
C1756 C1761 1.425 . S
C1756 C1763 1.409 . S
C1757 H1749 0.930 . S
C1757 C1755 1.419 . S
C1757 C1758 1.362 . S
C1758 H1750 0.930 . S
C1758 C1757 1.362 . S
C1758 C1761 1.409 . S
C1759 H1751 0.930 . S
C1759 C1760 1.355 . S
C1759 C1761 1.415 . S
C1760 C1759 1.355 . S
C1760 C1762 1.419 . S
C1761 C1756 1.425 . S
C1761 C1758 1.409 . S
C1761 C1759 1.415 . S
C1762 H1752 0.930 . S
C1762 C1760 1.419 . S
C1762 C1763 1.362 . S
C1763 H1753 0.930 . S
C1763 C1756 1.409 . S
C1763 C1762 1.362 . S
C1008 C707 1.305 . S
C1003 C74 1.171 . S
C1024 C685 0.216 . S
C1019 C142 0.849 . S
C1040 C682 0.950 . S
C1035 C231 0.882 . S
C1051 C322 1.555 . S
C1056 C694 1.598 . S
C1067 C406 0.892 . S
C1072 C677 0.164 . S
C1088 C699 0.895 . S
C1083 C494 0.936 . S
C1099 C562 1.626 . S
C1104 C704 1.559 . S
C1115 C651 1.168 . S
C1120 C700 1.304 . S
C1136 C758 1.626 . S
C1131 C58 1.615 . S
C1147 C151 1.350 . S
C1152 C808 1.442 . S
C1168 C731 2.765 . S
C1163 C224 2.686 . S
C1184 C807 0.906 . S
C1179 C315 0.918 . S
C1195 C399 0.924 . S
C1200 C736 0.959 . S
C1216 C802 1.590 . S
C1211 C478 1.598 . S
C1227 C571 1.267 . S
C1232 C761 1.389 . S
C1243 C644 2.645 . S
C1248 C793 2.756 . S
C1259 C67 2.655 . S
C1264 C785 2.780 . S
C1275 C392 1.387 . S
C1280 C815 1.416 . S
C1296 C739 2.779 . S
C1291 C487 2.661 . S
C1312 C790 0.911 . S
C1307 C578 0.917 . S
C1323 C658 1.539 . S
C1328 C748 1.610 . S
C1339 C238 1.631 . S
C1344 C812 1.617 . S
C1360 C754 1.433 . S
C1355 C308 1.368 . S
C1371 C158 0.983 . S
C1376 C753 0.932 . S
C1387 C662 1.226 . S
C1392 C869 1.303 . S
C1403 C394 0.707 . S
C1408 C847 0.335 . S
C1424 C844 0.956 . S
C1419 C483 0.916 . S
C1440 C856 1.616 . S
C1435 C574 1.557 . S
C1451 C154 0.885 . S
C1456 C839 0.173 . S
C1472 C861 0.894 . S
C1467 C242 0.808 . S
C1483 C310 1.574 . S
C1488 C866 1.593 . S
C1499 C63 1.175 . S
C1504 C862 1.305 . S
C1515 C646 1.547 . S
C1520 C920 1.598 . S
C1536 C970 1.445 . S
C1531 C403 1.422 . S
C1547 C476 2.640 . S
C1552 C893 2.790 . S
C1563 C567 0.801 . S
C1568 C969 0.934 . S
C1584 C898 0.935 . S
C1579 C147 0.833 . S
C1595 C226 1.543 . S
C1600 C964 1.626 . S
C1616 C923 1.401 . S
C1611 C319 1.272 . S
C1632 C955 2.763 . S
C1627 C56 2.642 . S
C1648 C947 2.745 . S
C1643 C655 2.665 . S
C1659 C140 1.413 . S
C1664 C977 1.425 . S
C1675 C235 2.644 . S
C1680 C901 2.803 . S
C1696 C952 0.902 . S
C1691 C326 0.965 . S
C1707 C70 1.596 . S
C1712 C910 1.656 . S
C1723 C490 1.629 . S
C1728 C974 1.665 . S
C1744 C916 1.430 . S
C1739 C560 1.324 . S
C1760 C915 0.976 . S
C1755 C410 0.860 . S
