# Generated by pormake.
# Topology pts, (4,4)-cn, num edge types: 1
# Building blocks:
#     Node 0, Type 0, BuildingBlock: MUDLON_clean_sbu_0, # of connection points: 4
#     Node 1, Type 0, BuildingBlock: MUDLON_clean_sbu_0, # of connection points: 4
#     Node 2, Type 1, BuildingBlock: UXUYUI_clean_sbu_0, # of connection points: 4
#     Node 3, Type 1, BuildingBlock: UXUYUI_clean_sbu_0, # of connection points: 4
#     Edge 4, Type (0, 1), BuildingBlock: AJUNOK_clean_linker_0, # of connection points: 2
#     Edge 5, Type (0, 1), BuildingBlock: AJUNOK_clean_linker_0, # of connection points: 2
#     Edge 6, Type (0, 1), BuildingBlock: AJUNOK_clean_linker_0, # of connection points: 2
#     Edge 7, Type (0, 1), BuildingBlock: AJUNOK_clean_linker_0, # of connection points: 2
#     Edge 8, Type (0, 1), BuildingBlock: AJUNOK_clean_linker_0, # of connection points: 2
#     Edge 9, Type (0, 1), BuildingBlock: AJUNOK_clean_linker_0, # of connection points: 2
#     Edge 10, Type (0, 1), BuildingBlock: AJUNOK_clean_linker_0, # of connection points: 2
#     Edge 11, Type (0, 1), BuildingBlock: AJUNOK_clean_linker_0, # of connection points: 2
# Relax obj value: 0.040
# Max RMSD: 0.092
# Mean RMSD: 0.080
data_MOF--net-pts--node1-MUDLON_clean_sbu_0--node2-UXUYUI_clean_sbu_0--edge1-AJUNOK_clean_linker_0
_symmetry_space_group_name_H-M    P1
_symmetry_Int_Tables_number       1
_symmetry_cell_setting            triclinic
loop_
_symmetry_equiv_pos_as_xyz
'x, y, z'
_cell_length_a     22.277884
_cell_length_b     22.32979
_cell_length_c     37.606432
_cell_angle_alpha  90.020138
_cell_angle_beta   89.841981
_cell_angle_gamma 90.11452
loop_
_atom_site_label
_atom_site_type_symbol
_atom_site_fract_x
_atom_site_fract_y
_atom_site_fract_z
_atom_type_partial_charge
Mg0 Mg 0.51367 0.02029 1.01971 0.0
C1 C 0.395 0.07313 0.99615 0.0
O2 O 0.37862 0.05325 0.02754 0.0
C3 C 0.61831 1.00907 0.06182 0.0
O4 O 0.60053 0.95612 0.05077 0.0
C5 C 0.45548 0.99027 0.08827 0.0
O6 O 0.49354 0.03287 0.09667 0.0
O7 O 0.45595 0.97004 0.05655 0.0
O8 O 0.45074 0.07433 0.98856 0.0
O9 O 0.56627 0.97665 0.97798 0.0
C10 C 0.58303 0.01524 0.95499 0.0
O11 O 0.5627 0.0702 0.95791 0.0
O12 O 0.58739 0.05446 0.05249 0.0
Mg13 Mg 1.0139 0.51435 0.52433 0.0
C14 C 0.97813 0.56612 0.59549 0.0
O15 O 1.0088 0.51927 0.60599 0.0
C16 C 0.96871 0.45829 0.45649 0.0
O17 O 0.99522 0.50607 0.44346 0.0
C18 C 0.05698 0.6327 0.49512 0.0
O19 O 0.03867 0.64974 0.52674 0.0
O20 O 0.05965 0.57688 0.48845 0.0
O21 O 0.96628 0.57141 0.56251 0.0
O22 O 0.0667 0.45234 0.5565 0.0
C23 C 0.06943 0.39748 0.54745 0.0
O24 O 0.05335 0.38274 0.51506 0.0
O25 O 0.96183 0.45453 0.49005 0.0
Li26 Li 0.0196 0.07538 0.2968 0.0
Li27 Li 0.01918 0.96545 0.2998 0.0
Li28 Li 0.07616 0.01747 0.25305 0.0
Li29 Li 0.96832 0.01619 0.24963 0.0
C30 C 0.13126 0.04558 0.32591 0.0
N31 N 0.21667 0.09838 0.36897 0.0
C32 C 0.14894 0.01765 0.35745 0.0
C33 C 0.15661 0.10061 0.31648 0.0
C34 C 0.19231 0.04497 0.3788 0.0
C35 C 0.19982 0.12652 0.33853 0.0
C36 C 0.92505 0.02644 0.33529 0.0
C37 C 0.84134 0.04563 0.37444 0.0
N38 N 0.87843 0.04054 0.40295 0.0
C39 C 0.96231 0.02139 0.36498 0.0
C40 C 0.86406 0.03867 0.34002 0.0
C41 C 0.93792 0.02865 0.39895 0.0
C42 C 0.97695 0.19155 0.31175 0.0
N43 N 1.01096 0.14657 0.32536 0.0
C44 C 0.02075 0.19943 0.38046 0.0
C45 C 0.03283 0.1497 0.35908 0.0
C46 C 0.98512 0.24623 0.36729 0.0
C47 C 0.96369 0.24216 0.33227 0.0
H48 H 0.95918 0.18756 0.28511 0.0
H49 H 0.05862 0.11313 0.36984 0.0
C50 C 0.07777 0.87114 0.33401 0.0
N51 N 0.02303 0.89746 0.33081 0.0
C52 C 0.08677 0.82524 0.35869 0.0
C53 C 0.98226 0.83283 0.37546 0.0
C54 C 0.9751 0.87809 0.35014 0.0
C55 C 0.03888 0.80646 0.38027 0.0
H56 H 0.115 0.88723 0.31812 0.0
H57 H 0.93171 0.89882 0.34665 0.0
C58 C 0.05427 0.1193 0.22061 0.0
N59 N 0.12267 0.1833 0.17237 0.0
C60 C 0.06013 0.09915 0.18558 0.0
C61 C 0.08247 0.17244 0.23098 0.0
C62 C 0.09515 0.13199 0.16163 0.0
C63 C 0.11702 0.20406 0.20623 0.0
C64 C 0.9893 0.89467 0.24341 0.0
C65 C 1.0145 0.84434 0.22708 0.0
C66 C 0.93016 0.89194 0.25596 0.0
C67 C 0.97995 0.79248 0.22317 0.0
C68 C 0.89709 0.83927 0.25153 0.0
N69 N 0.92244 0.79105 0.23535 0.0
C70 C 0.19377 0.04979 0.22582 0.0
C71 C 0.14926 0.96272 0.20142 0.0
C72 C 0.24485 0.0417 0.20467 0.0
N73 N 0.14741 1.01019 0.22409 0.0
C74 C 0.19961 0.95267 0.17999 0.0
C75 C 0.24864 0.99206 0.18174 0.0
H76 H 0.1911 0.08802 0.24326 0.0
H77 H 0.11151 0.93252 0.19993 0.0
C78 C 0.84834 0.03778 0.22502 0.0
N79 N 0.90374 0.01686 0.21624 0.0
C80 C 0.80262 0.03935 0.19953 0.0
C81 C 0.87248 0.99958 0.15636 0.0
C82 C 0.91647 0.99807 0.1827 0.0
C83 C 0.81429 0.01949 0.16471 0.0
H84 H 0.83967 0.05319 0.25179 0.0
H85 H 0.96101 0.98205 0.17639 0.0
O86 O 0.08806 0.01991 0.30504 0.0
O87 O 0.94813 0.0206 0.30171 0.0
O88 O 0.02109 0.08718 0.24462 0.0
O89 O 0.02311 0.9455 0.24783 0.0
H90 H 0.12913 0.97553 0.36551 0.0
H91 H 0.14208 0.12371 0.29285 0.0
H92 H 0.20643 0.02382 0.40325 0.0
H93 H 0.21964 0.16922 0.33158 0.0
H94 H 0.79422 0.05515 0.37849 0.0
H95 H 1.00961 1.01202 0.36185 0.0
H96 H 0.83459 0.04287 0.31735 0.0
H97 H 0.9663 0.02491 0.42214 0.0
H98 H 0.03938 0.20128 0.407 0.0
H99 H 0.93609 0.27726 0.32108 0.0
H100 H 0.13113 0.80622 0.3618 0.0
H101 H 0.94417 0.81905 0.39147 0.0
H102 H 0.03874 0.05807 0.17714 0.0
H103 H 0.07785 0.18905 0.25787 0.0
H104 H 0.1006 0.11658 0.13454 0.0
H105 H 0.13936 0.2451 0.21393 0.0
H106 H 0.06042 0.84502 0.21769 0.0
H107 H 0.90973 0.92983 0.26903 0.0
H108 H 0.99893 0.75329 0.21054 0.0
H109 H 0.85128 0.8367 0.26103 0.0
H110 H 0.28071 0.07444 0.20597 0.0
H111 H 0.20038 0.91415 0.16248 0.0
H112 H 0.7584 0.05497 0.2071 0.0
H113 H 0.88399 0.9853 0.12968 0.0
Li114 Li 0.96042 0.01938 0.7886 0.0
Li115 Li 0.07282 1.01358 0.7959 0.0
Li116 Li 0.02431 0.06396 0.74319 0.0
Li117 Li 0.01851 0.95862 0.74847 0.0
C118 C 0.99164 0.12041 0.81942 0.0
N119 N 0.93214 0.18629 0.87071 0.0
C120 C 1.01378 0.12286 0.85413 0.0
C121 C 0.93949 0.1518 0.81073 0.0
C122 C 0.98301 0.15637 0.87969 0.0
C123 C 0.90996 0.18472 0.83706 0.0
C124 C 1.00373 0.8906 0.80541 0.0
C125 C 0.04333 0.79193 0.81625 0.0
N126 N 0.98787 0.76824 0.81056 0.0
C127 C 0.94705 0.86541 0.79986 0.0
C128 C 0.05228 0.85374 0.81378 0.0
C129 C 0.93998 0.80339 0.80251 0.0
C130 C 0.83385 1.013 0.80077 0.0
N131 N 0.88848 0.0179 0.81656 0.0
C132 C 0.84361 1.00847 0.87419 0.0
C133 C 0.89424 0.01508 0.85251 0.0
C134 C 0.78652 1.00359 0.85869 0.0
C135 C 0.78199 1.00626 0.82145 0.0
H136 H 0.83062 1.01292 0.77211 0.0
H137 H 0.93837 0.01723 0.86435 0.0
C138 C 0.17874 0.06353 0.82418 0.0
N139 N 0.13566 0.02142 0.83009 0.0
C140 C 0.22143 0.07636 0.85034 0.0
C141 C 0.17522 1.00152 0.88793 0.0
C142 C 0.13338 0.99017 0.86107 0.0
C143 C 0.21935 0.04595 0.88301 0.0
H144 H 0.17887 0.08832 0.79947 0.0
H145 H 0.09811 0.95757 0.8653 0.0
C146 C 0.92994 0.04209 0.70758 0.0
N147 N 0.88937 0.10415 0.64881 0.0
C148 C 0.95395 0.03022 0.67392 0.0
C149 C 0.88506 0.08531 0.71131 0.0
C150 C 0.93297 0.06218 0.64456 0.0
C151 C 0.86514 0.11618 0.68127 0.0
C152 C 0.13286 0.96742 0.72927 0.0
C153 C 0.12963 0.95457 0.69292 0.0
C154 C 0.17652 0.93955 0.75011 0.0
C155 C 0.17001 0.91377 0.67807 0.0
C156 C 0.21613 0.89907 0.73423 0.0
N157 N 0.21205 0.88709 0.69885 0.0
C158 C 0.08247 0.12119 0.68592 0.0
C159 C 1.00402 0.17958 0.71048 0.0
C160 C 0.09346 0.16444 0.65989 0.0
N161 N 0.03774 0.12883 0.71019 0.0
C162 C 1.01347 0.22411 0.68484 0.0
C163 C 0.05812 0.21631 0.65876 0.0
H164 H 0.10951 0.08121 0.68657 0.0
H165 H 0.96905 0.18505 0.73016 0.0
C166 C 0.95939 0.8771 0.70352 0.0
N167 N 1.0109 0.88387 0.72251 0.0
C168 C 0.94859 0.82479 0.6842 0.0
C169 C 0.04315 0.78588 0.70506 0.0
C170 C 0.05222 0.83911 0.72396 0.0
C171 C 0.99072 0.77829 0.6848 0.0
H172 H 0.92612 0.91217 0.70354 0.0
H173 H 0.09217 0.84446 0.73983 0.0
O174 O 0.02046 0.08694 0.79416 0.0
O175 O 1.01187 0.95096 0.80189 0.0
O176 O 0.95133 1.01248 0.73677 0.0
O177 O 0.09393 1.00745 0.74434 0.0
H178 H 0.05407 0.09891 0.86136 0.0
H179 H 0.92152 0.15004 0.78409 0.0
H180 H 0.99951 0.15848 0.90669 0.0
H181 H 0.86931 0.20887 0.83077 0.0
H182 H 0.08054 0.76275 0.82249 0.0
H183 H 0.90913 0.8934 0.79314 0.0
H184 H 0.09653 0.87261 0.81784 0.0
H185 H 0.89648 0.78318 0.79805 0.0
H186 H 0.84909 1.00783 0.90279 0.0
H187 H 0.73883 1.00238 0.80845 0.0
H188 H 0.25466 0.11089 0.84546 0.0
H189 H 0.17281 0.97604 0.91239 0.0
H190 H 0.98892 0.99716 0.67058 0.0
H191 H 0.86633 0.09557 0.73714 0.0
H192 H 0.95148 0.05376 0.61841 0.0
H193 H 0.83067 0.14998 0.6838 0.0
H194 H 0.09594 0.97536 0.6764 0.0
H195 H 0.17965 0.94876 0.77826 0.0
H196 H 0.1678 0.90318 0.65003 0.0
H197 H 0.25002 0.87706 0.75006 0.0
H198 H 0.12921 0.1573 0.64079 0.0
H199 H 0.98524 0.26354 0.68487 0.0
H200 H 0.90734 0.8205 0.66922 0.0
H201 H 0.07719 0.75137 0.70591 0.0
C202 C 0.34696 0.96706 0.09995 0.0
C203 C 0.4051 0.97783 0.11305 0.0
C204 C 0.29664 0.96961 0.12254 0.0
C205 C 0.30274 0.98254 0.15905 0.0
H206 H 0.33979 0.96029 0.07176 0.0
H207 H 0.25247 0.96428 0.11097 0.0
S208 S 0.44629 1.00245 0.20748 0.0
N209 N 0.46651 0.99418 0.16549 0.0
N210 N 0.37234 0.99744 0.20795 0.0
C211 C 0.36105 0.98867 0.17283 0.0
C212 C 0.41208 0.98655 0.14985 0.0
C213 C 0.07654 0.36607 0.61149 0.0
C214 C 0.07558 0.35019 0.57519 0.0
C215 C 0.07186 0.32257 0.63833 0.0
C216 C 0.06673 0.26137 0.63002 0.0
H217 H 0.0787 0.41267 0.61937 0.0
H218 H 0.07153 0.33705 0.66583 0.0
S219 S 0.06479 0.19527 0.53948 0.0
N220 N 0.07169 0.26797 0.53264 0.0
N221 N 0.06247 0.18675 0.58306 0.0
C222 C 0.0679 0.24455 0.59398 0.0
C223 C 0.07252 0.28876 0.56662 0.0
C224 C 0.68062 0.06477 0.10711 0.0
C225 C 0.67057 1.01327 0.08632 0.0
C226 C 0.72718 0.06672 0.13236 0.0
C227 C 0.76568 0.01746 0.13755 0.0
H228 H 0.65162 0.10336 0.10441 0.0
H229 H 0.73313 0.10713 0.1479 0.0
S230 S 0.75903 0.87221 0.08969 0.0
N231 N 0.70443 0.91225 0.07221 0.0
N232 N 0.79008 0.91563 0.12001 0.0
C233 C 0.75643 0.96607 0.11667 0.0
C234 C 0.70943 0.96407 0.09101 0.0
C235 C 0.95989 0.67567 0.60609 0.0
C236 C 0.97131 0.61818 0.61992 0.0
C237 C 0.96455 0.727 0.62749 0.0
C238 C 0.98069 0.72293 0.66357 0.0
H239 H 0.94995 0.68155 0.57814 0.0
H240 H 0.95781 0.77041 0.6153 0.0
S241 S 1.00536 0.58281 0.7143 0.0
N242 N 0.9926 0.5601 0.67322 0.0
N243 N 1.00087 0.65658 0.71324 0.0
C244 C 0.9885 0.66566 0.67828 0.0
C245 C 0.98375 0.61335 0.65656 0.0
C246 C 0.36724 0.07224 0.9314 0.0
C247 C 0.34947 0.07717 0.9673 0.0
C248 C 0.32487 0.06396 0.90421 0.0
C249 C 0.26306 0.06026 0.91178 0.0
H250 H 0.4144 0.07178 0.92432 0.0
H251 H 0.3409 0.0579 0.87723 0.0
S252 S 0.19225 0.08019 1.00042 0.0
N253 N 0.26502 0.08444 1.00826 0.0
N254 N 0.18576 0.06953 0.95716 0.0
C255 C 0.24445 0.06888 0.94719 0.0
C256 C 0.28749 0.07729 0.97489 0.0
C257 C 0.97622 0.40873 0.39693 0.0
C258 C 0.96162 0.40452 0.43336 0.0
C259 C 0.98143 0.35757 0.37551 0.0
C260 C 0.97237 0.29993 0.38958 0.0
H261 H 0.98631 0.45176 0.38502 0.0
H262 H 0.99535 0.36313 0.34809 0.0
S263 S 0.9246 0.26415 0.48181 0.0
N264 N 0.93187 0.33775 0.48152 0.0
N265 N 0.94142 0.2418 0.44113 0.0
C266 C 0.95411 0.2951 0.42534 0.0
C267 C 0.94858 0.34728 0.4472 0.0
C268 C 0.63395 0.04028 0.89795 0.0
C269 C 0.63027 1.00307 0.92811 0.0
C270 C 0.68343 0.03826 0.87494 0.0
C271 C 0.73168 0.9993 0.88129 0.0
H272 H 0.59914 0.07288 0.89266 0.0
H273 H 0.68507 0.06947 0.85291 0.0
S274 S 0.74182 0.88854 0.95463 0.0
N275 N 0.67737 0.92305 0.96173 0.0
N276 N 0.77053 0.91896 0.91831 0.0
C277 C 0.72739 0.95971 0.91038 0.0
C278 C 0.67658 0.96149 0.93375 0.0
C279 C 0.03889 0.73606 0.47201 0.0
C280 C 0.06032 0.67756 0.46587 0.0
C281 C 0.03264 0.77729 0.44421 0.0
C282 C 0.0484 0.76222 0.40916 0.0
H283 H 0.02469 0.74979 0.49834 0.0
H284 H 1.01485 0.82131 0.45017 0.0
S285 S 0.11026 0.61694 0.3787 0.0
N286 N 0.09986 0.60786 0.42188 0.0
N287 N 0.08877 0.68606 0.36975 0.0
C288 C 0.07214 0.70497 0.40267 0.0
C289 C 0.07793 0.66252 0.43096 0.0
loop_
_geom_bond_atom_site_label_1
_geom_bond_atom_site_label_2
_geom_bond_distance
_geom_bond_site_symmetry_2
_ccdc_geom_bond_type
Mg0 O7 2.165 . S
Mg0 O8 2.025 1_554 S
Mg0 O9 2.025 1_554 S
Mg0 O12 2.165 . S
C1 O2 1.313 . S
C1 O8 1.195 1_565 S
O2 C1 1.313 . S
C3 O4 1.245 . S
C3 O12 1.289 1_565 S
O4 C3 1.245 . S
C5 O6 1.245 . S
C5 O7 1.289 1_565 S
O6 C5 1.245 . S
O7 Mg0 2.165 . S
O7 C5 1.289 1_545 S
O8 Mg0 2.025 1_556 S
O8 C1 1.195 1_545 S
O9 Mg0 2.025 1_556 S
O9 C10 1.195 1_545 S
C10 O9 1.195 1_565 S
C10 O11 1.313 . S
O11 C10 1.313 . S
O12 Mg0 2.165 . S
O12 C3 1.289 1_545 S
Mg13 O20 2.141 . S
Mg13 O21 2.048 . S
Mg13 O22 2.048 . S
Mg13 O25 2.141 . S
C14 O15 1.313 . S
C14 O21 1.195 1_455 S
O15 C14 1.313 . S
C16 O17 1.245 . S
C16 O25 1.289 1_455 S
O17 C16 1.245 . S
C18 O19 1.245 . S
C18 O20 1.289 1_455 S
O19 C18 1.245 . S
O20 Mg13 2.141 . S
O20 C18 1.289 1_655 S
O21 Mg13 2.048 . S
O21 C14 1.195 1_655 S
O22 Mg13 2.048 . S
O22 C23 1.195 1_655 S
C23 O22 1.195 1_455 S
C23 O24 1.313 . S
O24 C23 1.313 . S
O25 Mg13 2.141 . S
O25 C16 1.289 1_655 S
Li26 N43 1.990 . S
Li26 O86 1.956 1_545 S
Li26 O87 1.970 1_455 S
Li26 O88 1.961 1_455 S
Li27 N51 1.990 . S
Li27 O86 1.970 1_655 S
Li27 O87 1.956 1_565 S
Li27 O89 1.961 1_655 S
Li28 N73 1.990 . S
Li28 O86 1.961 1_545 S
Li28 O88 1.956 1_455 S
Li28 O89 1.970 1_545 S
Li29 N79 1.990 . S
Li29 O87 1.961 1_565 S
Li29 O88 1.970 1_565 S
Li29 O89 1.956 1_655 S
C30 C32 1.348 1_545 S
C30 C33 1.356 . S
C30 O86 1.325 1_545 S
N31 C34 1.314 1_545 S
N31 C35 1.279 . S
C32 C30 1.348 1_565 S
C32 C34 1.353 . S
C32 H90 0.929 . S
C33 C30 1.356 . S
C33 C35 1.358 . S
C33 H91 0.930 . S
C34 N31 1.314 1_565 S
C34 C32 1.353 . S
C34 H92 0.930 . S
C35 N31 1.279 . S
C35 C33 1.358 . S
C35 H93 0.930 . S
C36 C39 1.348 . S
C36 C40 1.356 1_545 S
C36 O87 1.325 . S
C37 N38 1.279 . S
C37 C40 1.358 . S
C37 H94 0.930 . S
N38 C37 1.279 . S
N38 C41 1.314 1_565 S
C39 C36 1.348 . S
C39 C41 1.353 . S
C39 H95 0.929 . S
C40 C36 1.356 1_565 S
C40 C37 1.358 . S
C40 H96 0.930 . S
C41 N38 1.314 1_545 S
C41 C39 1.353 . S
C41 H97 0.930 . S
C42 N43 1.314 1_655 S
C42 C47 1.353 . S
C42 H48 0.930 . S
N43 Li26 1.990 . S
N43 C42 1.314 1_455 S
N43 C45 1.279 . S
C44 C45 1.358 . S
C44 C46 1.356 . S
C44 H98 0.930 . S
C45 N43 1.279 . S
C45 C44 1.358 . S
C45 H49 0.930 . S
C46 C44 1.356 . S
C46 C47 1.348 1_455 S
C47 C42 1.353 . S
C47 C46 1.348 1_655 S
C47 H99 0.929 . S
H48 C42 0.930 . S
H49 C45 0.930 . S
C50 N51 1.314 1_455 S
C50 C52 1.353 . S
C50 H56 0.930 . S
N51 Li27 1.990 . S
N51 C50 1.314 1_655 S
N51 C54 1.279 . S
C52 C50 1.353 . S
C52 C55 1.348 . S
C52 H100 0.929 . S
C53 C54 1.358 . S
C53 C55 1.356 1_655 S
C53 H101 0.930 . S
C54 N51 1.279 . S
C54 C53 1.358 . S
C54 H57 0.930 . S
C55 C52 1.348 . S
C55 C53 1.356 1_455 S
H56 C50 0.930 . S
H57 C54 0.930 . S
C58 C60 1.348 1_455 S
C58 C61 1.356 . S
C58 O88 1.325 1_455 S
N59 C62 1.314 1_455 S
N59 C63 1.279 . S
C60 C58 1.348 1_655 S
C60 C62 1.353 . S
C60 H102 0.929 . S
C61 C58 1.356 . S
C61 C63 1.358 . S
C61 H103 0.930 . S
C62 N59 1.314 1_655 S
C62 C60 1.353 . S
C62 H104 0.930 . S
C63 N59 1.279 . S
C63 C61 1.358 . S
C63 H105 0.930 . S
C64 C65 1.348 . S
C64 C66 1.356 1_455 S
C64 O89 1.325 . S
C65 C64 1.348 . S
C65 C67 1.353 . S
C65 H106 0.929 . S
C66 C64 1.356 1_655 S
C66 C68 1.358 . S
C66 H107 0.930 . S
C67 C65 1.353 . S
C67 N69 1.314 1_455 S
C67 H108 0.930 . S
C68 C66 1.358 . S
C68 N69 1.279 . S
C68 H109 0.930 . S
N69 C67 1.314 1_655 S
N69 C68 1.279 . S
C70 C72 1.353 . S
C70 N73 1.314 1_565 S
C70 H76 0.930 . S
C71 N73 1.279 . S
C71 C74 1.358 . S
C71 H77 0.930 . S
C72 C70 1.353 . S
C72 C75 1.348 1_565 S
C72 H110 0.929 . S
N73 Li28 1.990 . S
N73 C70 1.314 1_545 S
N73 C71 1.279 . S
C74 C71 1.358 . S
C74 C75 1.356 . S
C74 H111 0.930 . S
C75 C72 1.348 1_545 S
C75 C74 1.356 . S
H76 C70 0.930 . S
H77 C71 0.930 . S
C78 N79 1.314 1_545 S
C78 C80 1.353 . S
C78 H84 0.930 . S
N79 Li29 1.990 . S
N79 C78 1.314 1_565 S
N79 C82 1.279 . S
C80 C78 1.353 . S
C80 C83 1.348 . S
C80 H112 0.929 . S
C81 C82 1.358 . S
C81 C83 1.356 1_565 S
C81 H113 0.930 . S
C82 N79 1.279 . S
C82 C81 1.358 . S
C82 H85 0.930 . S
C83 C80 1.348 . S
C83 C81 1.356 1_545 S
H84 C78 0.930 . S
H85 C82 0.930 . S
O86 Li26 1.956 1_565 S
O86 Li27 1.970 1_455 S
O86 Li28 1.961 1_565 S
O86 C30 1.325 1_565 S
O87 Li26 1.970 1_655 S
O87 Li27 1.956 1_545 S
O87 Li29 1.961 1_545 S
O87 C36 1.325 . S
O88 Li26 1.961 1_655 S
O88 Li28 1.956 1_655 S
O88 Li29 1.970 1_545 S
O88 C58 1.325 1_655 S
O89 Li27 1.961 1_455 S
O89 Li28 1.970 1_565 S
O89 Li29 1.956 1_455 S
O89 C64 1.325 . S
H90 C32 0.929 . S
H91 C33 0.930 . S
H92 C34 0.930 . S
H93 C35 0.930 . S
H94 C37 0.930 . S
H95 C39 0.929 . S
H96 C40 0.930 . S
H97 C41 0.930 . S
H98 C44 0.930 . S
H99 C47 0.929 . S
H100 C52 0.929 . S
H101 C53 0.930 . S
H102 C60 0.929 . S
H103 C61 0.930 . S
H104 C62 0.930 . S
H105 C63 0.930 . S
H106 C65 0.929 . S
H107 C66 0.930 . S
H108 C67 0.930 . S
H109 C68 0.930 . S
H110 C72 0.929 . S
H111 C74 0.930 . S
H112 C80 0.929 . S
H113 C81 0.930 . S
Li114 N131 1.990 . S
Li114 O174 1.956 1_655 S
Li114 O175 1.970 1_545 S
Li114 O176 1.961 1_545 S
Li115 N139 1.990 . S
Li115 O174 1.970 1_565 S
Li115 O175 1.956 1_455 S
Li115 O177 1.961 1_565 S
Li116 N161 1.990 . S
Li116 O174 1.961 1_655 S
Li116 O176 1.956 1_545 S
Li116 O177 1.970 1_655 S
Li117 N167 1.990 . S
Li117 O175 1.961 1_455 S
Li117 O176 1.970 1_455 S
Li117 O177 1.956 1_565 S
C118 C120 1.348 . S
C118 C121 1.355 1_455 S
C118 O174 1.325 . S
N119 C122 1.314 1_655 S
N119 C123 1.279 . S
C120 C118 1.348 . S
C120 C122 1.353 . S
C120 H178 0.929 . S
C121 C118 1.355 1_655 S
C121 C123 1.358 . S
C121 H179 0.930 . S
C122 N119 1.314 1_455 S
C122 C120 1.353 . S
C122 H180 0.930 . S
C123 N119 1.279 . S
C123 C121 1.358 . S
C123 H181 0.930 . S
C124 C127 1.348 1_455 S
C124 C128 1.355 . S
C124 O175 1.325 1_455 S
C125 N126 1.279 . S
C125 C128 1.358 . S
C125 H182 0.930 . S
N126 C125 1.279 . S
N126 C129 1.314 1_455 S
C127 C124 1.348 1_655 S
C127 C129 1.353 . S
C127 H183 0.929 . S
C128 C124 1.355 . S
C128 C125 1.358 . S
C128 H184 0.930 . S
C129 N126 1.314 1_655 S
C129 C127 1.353 . S
C129 H185 0.930 . S
C130 N131 1.314 1_565 S
C130 C135 1.353 . S
C130 H136 0.930 . S
N131 Li114 1.990 . S
N131 C130 1.314 1_545 S
N131 C133 1.279 . S
C132 C133 1.358 . S
C132 C134 1.355 . S
C132 H186 0.930 . S
C133 N131 1.279 . S
C133 C132 1.358 . S
C133 H137 0.930 . S
C134 C132 1.355 . S
C134 C135 1.348 1_545 S
C135 C130 1.353 . S
C135 C134 1.348 1_565 S
C135 H187 0.929 . S
H136 C130 0.930 . S
H137 C133 0.930 . S
C138 N139 1.314 1_545 S
C138 C140 1.353 . S
C138 H144 0.930 . S
N139 Li115 1.990 . S
N139 C138 1.314 1_565 S
N139 C142 1.279 . S
C140 C138 1.353 . S
C140 C143 1.348 . S
C140 H188 0.929 . S
C141 C142 1.358 . S
C141 C143 1.355 1_565 S
C141 H189 0.930 . S
C142 N139 1.279 . S
C142 C141 1.358 . S
C142 H145 0.930 . S
C143 C140 1.348 . S
C143 C141 1.355 1_545 S
H144 C138 0.930 . S
H145 C142 0.930 . S
C146 C148 1.348 1_545 S
C146 C149 1.355 . S
C146 O176 1.325 1_545 S
N147 C150 1.314 1_545 S
N147 C151 1.279 . S
C148 C146 1.348 1_565 S
C148 C150 1.353 . S
C148 H190 0.929 . S
C149 C146 1.355 . S
C149 C151 1.358 . S
C149 H191 0.930 . S
C150 N147 1.314 1_565 S
C150 C148 1.353 . S
C150 H192 0.930 . S
C151 N147 1.279 . S
C151 C149 1.358 . S
C151 H193 0.930 . S
C152 C153 1.348 . S
C152 C154 1.355 1_545 S
C152 O177 1.325 . S
C153 C152 1.348 . S
C153 C155 1.353 . S
C153 H194 0.929 . S
C154 C152 1.355 1_565 S
C154 C156 1.358 . S
C154 H195 0.930 . S
C155 C153 1.353 . S
C155 N157 1.314 1_545 S
C155 H196 0.930 . S
C156 C154 1.358 . S
C156 N157 1.279 . S
C156 H197 0.930 . S
N157 C155 1.314 1_565 S
N157 C156 1.279 . S
C158 C160 1.353 . S
C158 N161 1.314 1_455 S
C158 H164 0.930 . S
C159 N161 1.279 . S
C159 C162 1.358 . S
C159 H165 0.930 . S
C160 C158 1.353 . S
C160 C163 1.348 . S
C160 H198 0.929 . S
N161 Li116 1.990 . S
N161 C158 1.314 1_655 S
N161 C159 1.279 . S
C162 C159 1.358 . S
C162 C163 1.355 1_655 S
C162 H199 0.930 . S
C163 C160 1.348 . S
C163 C162 1.355 1_455 S
H164 C158 0.930 . S
H165 C159 0.930 . S
C166 N167 1.314 1_655 S
C166 C168 1.353 . S
C166 H172 0.930 . S
N167 Li117 1.990 . S
N167 C166 1.314 1_455 S
N167 C170 1.279 . S
C168 C166 1.353 . S
C168 C171 1.348 1_655 S
C168 H200 0.929 . S
C169 C170 1.358 . S
C169 C171 1.355 . S
C169 H201 0.930 . S
C170 N167 1.279 . S
C170 C169 1.358 . S
C170 H173 0.930 . S
C171 C168 1.348 1_455 S
C171 C169 1.355 . S
H172 C166 0.930 . S
H173 C170 0.930 . S
O174 Li114 1.956 1_455 S
O174 Li115 1.970 1_545 S
O174 Li116 1.961 1_455 S
O174 C118 1.325 . S
O175 Li114 1.970 1_565 S
O175 Li115 1.956 1_655 S
O175 Li117 1.961 1_655 S
O175 C124 1.325 1_655 S
O176 Li114 1.961 1_565 S
O176 Li116 1.956 1_565 S
O176 Li117 1.970 1_655 S
O176 C146 1.325 1_565 S
O177 Li115 1.961 1_545 S
O177 Li116 1.970 1_455 S
O177 Li117 1.956 1_545 S
O177 C152 1.325 . S
H178 C120 0.929 . S
H179 C121 0.930 . S
H180 C122 0.930 . S
H181 C123 0.930 . S
H182 C125 0.930 . S
H183 C127 0.929 . S
H184 C128 0.930 . S
H185 C129 0.930 . S
H186 C132 0.930 . S
H187 C135 0.929 . S
H188 C140 0.929 . S
H189 C141 0.930 . S
H190 C148 0.929 . S
H191 C149 0.930 . S
H192 C150 0.930 . S
H193 C151 0.930 . S
H194 C153 0.929 . S
H195 C154 0.930 . S
H196 C155 0.930 . S
H197 C156 0.930 . S
H198 C160 0.929 . S
H199 C162 0.930 . S
H200 C168 0.929 . S
H201 C169 0.930 . S
C202 C203 1.356 1_545 S
C202 C204 1.419 . S
C202 H206 0.930 . S
C203 C202 1.356 1_565 S
C203 C212 1.442 . S
C204 C202 1.419 . S
C204 C205 1.363 1_545 S
C204 H207 0.929 . S
C205 C204 1.363 1_565 S
C205 C211 1.428 . S
H206 C202 0.930 . S
H207 C204 0.929 . S
S208 N209 1.613 . S
S208 N210 1.610 . S
N209 S208 1.613 . S
N209 C212 1.350 . S
N210 S208 1.610 . S
N210 C211 1.351 . S
C211 C205 1.428 . S
C211 N210 1.351 . S
C211 C212 1.434 . S
C212 C203 1.442 . S
C212 N209 1.350 . S
C212 C211 1.434 . S
C213 C214 1.352 1_655 S
C213 C215 1.419 . S
C213 H217 0.930 . S
C214 C213 1.352 1_455 S
C214 C223 1.446 . S
C215 C213 1.419 . S
C215 C216 1.363 1_655 S
C215 H218 0.929 . S
C216 C215 1.363 1_455 S
C216 C222 1.428 . S
H217 C213 0.930 . S
H218 C215 0.929 . S
S219 N220 1.613 . S
S219 N221 1.610 . S
N220 S219 1.613 . S
N220 C223 1.350 . S
N221 S219 1.610 . S
N221 C222 1.351 . S
C222 C216 1.428 . S
C222 N221 1.351 . S
C222 C223 1.434 . S
C223 C214 1.446 . S
C223 N220 1.350 . S
C223 C222 1.434 . S
C224 C225 1.364 1_545 S
C224 C226 1.419 . S
C224 H228 0.930 . S
C225 C224 1.364 1_565 S
C225 C234 1.434 . S
C226 C224 1.419 . S
C226 C227 1.372 . S
C226 H229 0.929 . S
C227 C226 1.372 . S
C227 C233 1.419 1_545 S
H228 C224 0.930 . S
H229 C226 0.929 . S
S230 N231 1.613 . S
S230 N232 1.610 . S
N231 S230 1.613 . S
N231 C234 1.350 . S
N232 S230 1.610 . S
N232 C233 1.351 . S
C233 C227 1.419 1_565 S
C233 N232 1.351 . S
C233 C234 1.434 . S
C234 C225 1.434 . S
C234 N231 1.350 . S
C234 C233 1.434 . S
C235 C236 1.366 1_655 S
C235 C237 1.419 . S
C235 H239 0.930 . S
C236 C235 1.366 1_455 S
C236 C245 1.432 . S
C237 C235 1.419 . S
C237 C238 1.372 . S
C237 H240 0.929 . S
C238 C237 1.372 . S
C238 C244 1.419 1_655 S
H239 C235 0.930 . S
H240 C237 0.929 . S
S241 N242 1.613 . S
S241 N243 1.610 . S
N242 S241 1.613 . S
N242 C245 1.350 . S
N243 S241 1.610 . S
N243 C244 1.351 . S
C244 C238 1.419 1_455 S
C244 N243 1.351 . S
C244 C245 1.434 . S
C245 C236 1.432 . S
C245 N242 1.350 . S
C245 C244 1.434 . S
C246 C247 1.369 1_545 S
C246 C248 1.419 . S
C246 H250 0.930 . S
C247 C246 1.369 1_565 S
C247 C256 1.429 . S
C248 C246 1.419 . S
C248 C249 1.367 . S
C248 H251 0.929 . S
C249 C248 1.367 . S
C249 C255 1.424 1_545 S
H250 C246 0.930 . S
H251 C248 0.929 . S
S252 N253 1.613 . S
S252 N254 1.610 . S
N253 S252 1.613 . S
N253 C256 1.350 . S
N254 S252 1.610 . S
N254 C255 1.351 . S
C255 C249 1.424 1_565 S
C255 N254 1.351 . S
C255 C256 1.434 . S
C256 C247 1.429 . S
C256 N253 1.350 . S
C256 C255 1.434 . S
C257 C258 1.369 1_655 S
C257 C259 1.419 . S
C257 H261 0.930 . S
C258 C257 1.369 1_455 S
C258 C267 1.429 . S
C259 C257 1.419 . S
C259 C260 1.364 . S
C259 H262 0.929 . S
C260 C259 1.364 . S
C260 C266 1.427 1_655 S
H261 C257 0.930 . S
H262 C259 0.929 . S
S263 N264 1.613 . S
S263 N265 1.610 . S
N264 S263 1.613 . S
N264 C267 1.350 . S
N265 S263 1.610 . S
N265 C266 1.351 . S
C266 C260 1.427 1_455 S
C266 N265 1.351 . S
C266 C267 1.434 . S
C267 C258 1.429 . S
C267 N264 1.350 . S
C267 C266 1.434 . S
C268 C269 1.369 1_565 S
C268 C270 1.419 . S
C268 H272 0.930 . S
C269 C268 1.369 1_545 S
C269 C278 1.429 . S
C270 C268 1.419 . S
C270 C271 1.365 . S
C270 H273 0.929 . S
C271 C270 1.365 . S
C271 C277 1.426 1_565 S
H272 C268 0.930 . S
H273 C270 0.929 . S
S274 N275 1.613 . S
S274 N276 1.610 . S
N275 S274 1.613 . S
N275 C278 1.350 . S
N276 S274 1.610 . S
N276 C277 1.351 . S
C277 C271 1.426 1_545 S
C277 N276 1.351 . S
C277 C278 1.434 . S
C278 C269 1.429 . S
C278 N275 1.350 . S
C278 C277 1.434 . S
C279 C280 1.368 . S
C279 C281 1.419 . S
C279 H283 0.930 . S
C280 C279 1.368 . S
C280 C289 1.430 1_455 S
C281 C279 1.419 . S
C281 C282 1.375 . S
C281 H284 0.929 . S
C282 C281 1.375 . S
C282 C288 1.417 1_455 S
H283 C279 0.930 . S
H284 C281 0.929 . S
S285 N286 1.613 . S
S285 N287 1.610 . S
N286 S285 1.613 . S
N286 C289 1.350 . S
N287 S285 1.610 . S
N287 C288 1.351 . S
C288 C282 1.417 1_655 S
C288 N287 1.351 . S
C288 C289 1.434 . S
C289 C280 1.430 1_655 S
C289 N286 1.350 . S
C289 C288 1.434 . S
C205 C75 1.429 1_565 S
C203 C5 1.419 . S
C216 C163 1.491 . S
C214 C23 1.489 . S
C227 C83 1.428 . S
C225 C3 1.423 . S
C238 C171 1.492 1_655 S
C236 C14 1.491 . S
C249 C143 1.490 . S
C247 C1 1.491 . S
C260 C46 1.427 1_655 S
C258 C16 1.424 . S
C271 C134 1.490 1_565 S
C269 C10 1.495 1_545 S
C280 C18 1.424 . S
C282 C55 1.432 . S
