# Generated by pormake.
# Topology pth, (4,4)-cn, num edge types: 1
# Building blocks:
#     Node 0, Type 0, BuildingBlock: AZAVOO_clean_sbu_0, # of connection points: 4
#     Node 1, Type 0, BuildingBlock: AZAVOO_clean_sbu_0, # of connection points: 4
#     Node 2, Type 0, BuildingBlock: AZAVOO_clean_sbu_0, # of connection points: 4
#     Node 3, Type 1, BuildingBlock: NAWXER_clean_sbu_0, # of connection points: 4
#     Node 4, Type 1, BuildingBlock: NAWXER_clean_sbu_0, # of connection points: 4
#     Node 5, Type 1, BuildingBlock: NAWXER_clean_sbu_0, # of connection points: 4
#     Edge 6, Type (0, 1), BuildingBlock: KIFKEQ_clean_linker_1, # of connection points: 2
#     Edge 7, Type (0, 1), BuildingBlock: KIFKEQ_clean_linker_1, # of connection points: 2
#     Edge 8, Type (0, 1), BuildingBlock: KIFKEQ_clean_linker_1, # of connection points: 2
#     Edge 9, Type (0, 1), BuildingBlock: KIFKEQ_clean_linker_1, # of connection points: 2
#     Edge 10, Type (0, 1), BuildingBlock: KIFKEQ_clean_linker_1, # of connection points: 2
#     Edge 11, Type (0, 1), BuildingBlock: KIFKEQ_clean_linker_1, # of connection points: 2
#     Edge 12, Type (0, 1), BuildingBlock: KIFKEQ_clean_linker_1, # of connection points: 2
#     Edge 13, Type (0, 1), BuildingBlock: KIFKEQ_clean_linker_1, # of connection points: 2
#     Edge 14, Type (0, 1), BuildingBlock: KIFKEQ_clean_linker_1, # of connection points: 2
#     Edge 15, Type (0, 1), BuildingBlock: KIFKEQ_clean_linker_1, # of connection points: 2
#     Edge 16, Type (0, 1), BuildingBlock: KIFKEQ_clean_linker_1, # of connection points: 2
#     Edge 17, Type (0, 1), BuildingBlock: KIFKEQ_clean_linker_1, # of connection points: 2
# Relax obj value: 0.079
# Max RMSD: 0.220
# Mean RMSD: 0.117
data_MOF--net-pth--node1-AZAVOO_clean_sbu_0--node2-NAWXER_clean_sbu_0--edge1-KIFKEQ_clean_linker_1
_symmetry_space_group_name_H-M    P1
_symmetry_Int_Tables_number       1
_symmetry_cell_setting            triclinic
loop_
_symmetry_equiv_pos_as_xyz
'x, y, z'
_cell_length_a     23.065112
_cell_length_b     23.547227
_cell_length_c     58.175756
_cell_angle_alpha  91.170054
_cell_angle_beta   93.238427
_cell_angle_gamma 122.1231
loop_
_atom_site_label
_atom_site_type_symbol
_atom_site_fract_x
_atom_site_fract_y
_atom_site_fract_z
_atom_type_partial_charge
Mg0 Mg 0.10449 0.10436 0.06528 0.0
O1 O 0.00919 0.01941 0.04442 0.0
O2 O 0.96561 0.06317 0.02083 0.0
Mg3 Mg 0.03661 0.17808 0.02533 0.0
C4 C 0.96446 0.01255 0.02884 0.0
C5 C 0.07676 0.96823 0.08536 0.0
O6 O 0.07106 0.95032 0.06343 0.0
O7 O 0.0447 0.1333 0.08756 0.0
O8 O 0.01433 0.18589 0.06271 0.0
O9 O 0.17072 0.11021 0.03685 0.0
O10 O 0.12218 0.16889 0.039 0.0
C11 C 0.01898 0.16872 0.08309 0.0
C12 C 0.15939 0.15395 0.02812 0.0
O13 O 0.09425 0.028 0.09114 0.0
Mg14 Mg 0.96676 0.04629 0.38906 0.0
O15 O 0.06529 0.07379 0.41041 0.0
O16 O 0.10387 0.16904 0.43141 0.0
Mg17 Mg 0.02611 0.20077 0.42498 0.0
C18 C 0.10899 0.11974 0.4251 0.0
C19 C 0.9958 0.93455 0.37511 0.0
O20 O 0.99388 0.92823 0.39749 0.0
O21 O 0.0198 0.13074 0.36437 0.0
O22 O 0.04266 0.21937 0.38689 0.0
O23 O 0.90338 0.98873 0.41831 0.0
O24 O 0.94543 0.0962 0.414 0.0
C25 C 0.03931 0.19258 0.36716 0.0
C26 C 0.9118 0.04493 0.42592 0.0
O27 O 0.98292 0.97602 0.36625 0.0
Mg28 Mg 0.0188 0.02006 0.72143 0.0
O29 O 0.1002 0.11092 0.74409 0.0
O30 O 0.05104 0.14415 0.76821 0.0
Mg31 Mg 0.93402 0.07295 0.76061 0.0
C32 C 0.10445 0.14975 0.76051 0.0
C33 C 0.16366 0.05804 0.70594 0.0
O34 O 0.1758 0.05858 0.72831 0.0
O35 O 0.98735 0.07942 0.69918 0.0
O36 O 0.92674 0.09896 0.72321 0.0
O37 O 0.01128 0.95019 0.74927 0.0
O38 O 0.94807 0.99425 0.74605 0.0
C39 C 0.94655 0.09908 0.70312 0.0
C40 C 0.96321 0.9566 0.75688 0.0
O41 O 0.10348 0.04007 0.69785 0.0
C42 C 0.07155 0.65301 0.26551 0.0
C43 C 0.05388 0.50806 0.19981 0.0
O44 O 0.12278 0.65665 0.25677 0.0
Zn45 Zn 0.0702 0.58593 0.23212 0.0
O46 O 0.01063 0.61144 0.25659 0.0
Zn47 Zn 0.95811 0.5378 0.22908 0.0
O48 O 0.90271 0.45696 0.24591 0.0
O49 O 0.01461 0.49868 0.25064 0.0
O50 O 0.99748 0.50046 0.20542 0.0
O51 O 0.11043 0.55341 0.2105 0.0
O52 O 0.0332 0.63257 0.21055 0.0
O53 O 0.91995 0.57754 0.20865 0.0
C54 C 0.95303 0.45396 0.25452 0.0
C55 C 0.97696 0.62635 0.20283 0.0
C56 C 0.57373 0.02891 0.58887 0.0
C57 C 0.42969 0.05422 0.52949 0.0
O58 O 0.51568 0.98022 0.5802 0.0
Zn59 Zn 0.49561 0.03494 0.56024 0.0
O60 O 0.59619 0.08891 0.5832 0.0
Zn61 Zn 0.56977 0.14385 0.56125 0.0
O62 O 0.55702 0.1998 0.58345 0.0
O63 O 0.48115 0.09112 0.58525 0.0
O64 O 0.4851 0.10855 0.53695 0.0
O65 O 0.41427 0.99914 0.53821 0.0
O66 O 0.57728 0.06728 0.53881 0.0
O67 O 0.64655 0.17787 0.54147 0.0
C68 C 0.50622 0.15186 0.59264 0.0
C69 C 0.6316 0.1205 0.53329 0.0
C70 C 0.46257 0.47559 0.91529 0.0
C71 C 0.62721 0.63805 0.86434 0.0
O72 O 0.45581 0.51985 0.90543 0.0
Zn73 Zn 0.54093 0.55993 0.88964 0.0
O74 O 0.51455 0.47144 0.91198 0.0
Zn75 Zn 0.60337 0.51495 0.89376 0.0
O76 O 0.67691 0.55338 0.9191 0.0
O77 O 0.61605 0.60074 0.91768 0.0
O78 O 0.64058 0.59522 0.87183 0.0
O79 O 0.57464 0.63726 0.87053 0.0
O80 O 0.51555 0.48114 0.86526 0.0
O81 O 0.5797 0.43847 0.87238 0.0
C82 C 0.66425 0.59591 0.92738 0.0
C83 C 0.53203 0.43872 0.86025 0.0
H84 H 0.9513 0.23461 0.08087 0.0
H85 H 0.06784 0.18669 0.12849 0.0
H86 H 0.96152 0.31726 0.10911 0.0
H87 H 0.07658 0.26877 0.15713 0.0
H88 H 0.15337 0.48239 0.18895 0.0
H89 H 0.13818 0.39279 0.16209 0.0
H90 H 0.92723 0.33197 0.1454 0.0
H91 H 0.94274 0.42147 0.17119 0.0
C92 C 0.97747 0.24033 0.09762 0.0
C93 C 0.00898 0.20413 0.10232 0.0
C94 C 0.9835 0.28796 0.11385 0.0
C95 C 0.02088 0.30047 0.13527 0.0
C96 C 0.04874 0.26133 0.14059 0.0
C97 C 0.0426 0.2134 0.12431 0.0
C98 C 0.10425 0.45043 0.17924 0.0
C99 C 0.04951 0.45937 0.18217 0.0
C100 C 0.09516 0.39855 0.16413 0.0
C101 C 0.03129 0.35498 0.15168 0.0
C102 C 0.97724 0.36486 0.15447 0.0
C103 C 0.98627 0.41635 0.16939 0.0
H104 H 0.96269 0.15091 0.45741 0.0
H105 H 0.78612 0.95239 0.43949 0.0
H106 H 0.89887 0.17086 0.48494 0.0
H107 H 0.72134 0.9723 0.46675 0.0
H108 H 0.63534 0.00828 0.52846 0.0
H109 H 0.70848 0.98875 0.50588 0.0
H110 H 0.80725 0.1918 0.48386 0.0
H111 H 0.7346 0.21233 0.50747 0.0
C112 C 0.9103 0.11134 0.45949 0.0
C113 C 0.87903 0.05039 0.44614 0.0
C114 C 0.87355 0.12293 0.47517 0.0
C115 C 0.80454 0.07383 0.47777 0.0
C116 C 0.77457 0.01123 0.46534 0.0
C117 C 0.81167 0.99951 0.44978 0.0
C118 C 0.67245 0.04899 0.51876 0.0
C119 C 0.67843 0.11172 0.51945 0.0
C120 C 0.7144 0.03755 0.50574 0.0
C121 C 0.76323 0.08825 0.4928 0.0
C122 C 0.77047 0.15171 0.49381 0.0
C123 C 0.72867 0.16349 0.50717 0.0
H124 H 0.85096 0.95225 0.771 0.0
H125 H 0.98115 0.8748 0.78572 0.0
H126 H 0.77258 0.87979 0.79807 0.0
H127 H 0.90313 0.8032 0.81392 0.0
H128 H 0.70616 0.62211 0.83568 0.0
H129 H 0.79277 0.70472 0.81252 0.0
H130 H 0.74737 0.85125 0.83621 0.0
H131 H 0.65792 0.76663 0.85881 0.0
C132 C 0.86397 0.92094 0.78049 0.0
C133 C 0.92239 0.91915 0.77609 0.0
C134 C 0.81878 0.87935 0.79619 0.0
C135 C 0.8309 0.83504 0.80812 0.0
C136 C 0.89134 0.8357 0.80464 0.0
C137 C 0.93647 0.87709 0.78866 0.0
C138 C 0.71439 0.67193 0.83585 0.0
C139 C 0.67516 0.68797 0.84898 0.0
C140 C 0.76482 0.71966 0.82279 0.0
C141 C 0.77812 0.78517 0.8227 0.0
C142 C 0.73824 0.80113 0.8357 0.0
C143 C 0.68684 0.75276 0.84859 0.0
H144 H 0.01893 0.83247 0.07858 0.0
H145 H 0.08898 0.98991 0.13222 0.0
H146 H 0.98545 0.74971 0.10784 0.0
H147 H 0.05499 0.90715 0.16133 0.0
H148 H 0.08091 0.75578 0.20298 0.0
H149 H 0.09903 0.83762 0.17501 0.0
H150 H 0.90269 0.69468 0.13901 0.0
H151 H 0.88441 0.6116 0.16738 0.0
C152 C 0.0272 0.84947 0.09659 0.0
C153 C 0.0574 0.91798 0.10306 0.0
C154 C 0.00721 0.80189 0.11332 0.0
C155 C 0.01745 0.82188 0.13688 0.0
C156 C 0.04689 0.89025 0.14331 0.0
C157 C 0.06646 0.93769 0.12662 0.0
C158 C 0.04106 0.74188 0.18927 0.0
C159 C 0.98132 0.67717 0.1873 0.0
C160 C 0.05135 0.78902 0.17331 0.0
C161 C 1.00243 0.77263 0.15476 0.0
C162 C 0.94152 0.70848 0.15306 0.0
C163 C 0.93073 0.66123 0.16936 0.0
H164 H 0.21352 0.20736 0.45666 0.0
H165 H 0.1237 0.01166 0.4215 0.0
H166 H 0.29127 0.18749 0.47996 0.0
H167 H 0.20212 0.99213 0.44484 0.0
H168 H 0.29566 0.95852 0.51387 0.0
H169 H 0.22082 0.97346 0.4863 0.0
H170 H 0.38884 0.17463 0.47625 0.0
H171 H 0.4626 0.16033 0.50361 0.0
C172 C 0.21091 0.16049 0.45364 0.0
C173 C 0.16213 0.11119 0.43718 0.0
C174 C 0.25563 0.14909 0.467 0.0
C175 C 0.25266 0.08805 0.46432 0.0
C176 C 0.20508 0.0393 0.44751 0.0
C177 C 0.16058 0.05087 0.434 0.0
C178 C 0.31659 0.00554 0.50556 0.0
C179 C 0.38479 0.05845 0.51121 0.0
C180 C 0.27389 0.01409 0.48974 0.0
C181 C 0.29874 0.07566 0.47935 0.0
C182 C 0.36768 0.12718 0.48431 0.0
C183 C 0.41004 0.11873 0.49999 0.0
H184 H 0.13259 0.20057 0.80516 0.0
H185 H 0.23102 0.20033 0.74416 0.0
H186 H 0.24444 0.26248 0.82714 0.0
H187 H 0.34319 0.26347 0.76621 0.0
H188 H 0.51886 0.45678 0.81501 0.0
H189 H 0.41744 0.38363 0.78862 0.0
H190 H 0.3383 0.23427 0.83936 0.0
H191 H 0.44074 0.30703 0.8655 0.0
C192 C 0.17811 0.21466 0.79634 0.0
C193 C 0.17283 0.19565 0.77289 0.0
C194 C 0.24204 0.24924 0.80901 0.0
C195 C 0.30224 0.26664 0.79844 0.0
C196 C 0.29749 0.25015 0.7748 0.0
C197 C 0.23334 0.21434 0.7622 0.0
C198 C 0.48148 0.40677 0.81996 0.0
C199 C 0.48813 0.38672 0.84202 0.0
C200 C 0.42316 0.36528 0.80499 0.0
C201 C 0.3697 0.30383 0.81212 0.0
C202 C 0.37865 0.2817 0.83354 0.0
C203 C 0.4377 0.32268 0.84832 0.0
H204 H 0.86317 0.14891 0.70365 0.0
H205 H 0.93307 0.05386 0.65819 0.0
H206 H 0.7701 0.12299 0.67498 0.0
H207 H 0.83906 0.0266 0.62979 0.0
H208 H 0.69132 0.04422 0.57698 0.0
H209 H 0.78863 0.06765 0.60324 0.0
H210 H 0.6629 0.02228 0.66075 0.0
H211 H 0.56593 1.0006 0.63419 0.0
C212 C 0.8597 0.12384 0.68734 0.0
C213 C 0.90542 0.103 0.68338 0.0
C214 C 0.80549 0.10784 0.67106 0.0
C215 C 0.79565 0.07065 0.65041 0.0
C216 C 0.84473 0.05484 0.64559 0.0
C217 C 0.89919 0.0711 0.66184 0.0
C218 C 0.68397 0.03672 0.59517 0.0
C219 C 0.62104 0.01921 0.60361 0.0
C220 C 0.73984 0.05072 0.61025 0.0
C221 C 0.73405 0.04804 0.63416 0.0
C222 C 0.6695 0.02622 0.64245 0.0
C223 C 0.61347 0.01222 0.62728 0.0
H224 H 0.96475 0.89695 0.0336 0.0
H225 H 0.8522 0.97392 -0.00115 0.0
H226 H 0.89092 0.78861 0.01233 0.0
H227 H 0.77854 0.86565 0.97768 0.0
H228 H 0.62088 0.6523 0.95714 0.0
H229 H 0.69037 0.74723 0.98474 0.0
H230 H 0.87032 0.74424 0.9703 0.0
H231 H 0.79995 0.64795 0.9424 0.0
C232 C 0.92379 0.89068 0.0217 0.0
C233 C 0.91458 0.94444 0.01798 0.0
C234 C 0.88186 0.82863 0.00937 0.0
C235 C 0.82907 0.81861 0.99331 0.0
C236 C 0.81843 0.87159 0.99012 0.0
C237 C 0.86079 0.93378 0.00222 0.0
C238 C 0.67512 0.67105 0.96009 0.0
C239 C 0.70521 0.64326 0.94736 0.0
C240 C 0.71492 0.72569 0.97584 0.0
C241 C 0.78596 0.75409 0.97933 0.0
C242 C 0.81556 0.72334 0.96793 0.0
C243 C 0.7754 0.66819 0.95202 0.0
H244 H 0.02456 0.94951 0.32976 0.0
H245 H 0.01489 0.83415 0.38787 0.0
H246 H 0.05763 0.88603 0.30603 0.0
H247 H 0.04801 0.77088 0.36411 0.0
H248 H 0.99587 0.6152 0.30217 0.0
H249 H 0.98753 0.6874 0.33059 0.0
H250 H 0.15226 0.86236 0.30142 0.0
H251 H 0.16089 0.78912 0.27288 0.0
C252 C 0.02965 0.91078 0.3375 0.0
C253 C 0.01631 0.89643 0.36066 0.0
C254 C 0.04942 0.87498 0.32397 0.0
C255 C 0.05569 0.82364 0.33323 0.0
C256 C 0.04335 0.80999 0.35647 0.0
C257 C 0.02423 0.84618 0.37005 0.0
C258 C 0.03169 0.66904 0.30228 0.0
C259 C 0.07923 0.69672 0.28547 0.0
C260 C 0.02694 0.71041 0.31855 0.0
C261 C 0.06887 0.78059 0.31814 0.0
C262 C 0.11894 0.80838 0.30201 0.0
C263 C 0.12451 0.76665 0.2859 0.0
H264 H 0.29811 0.10244 0.71796 0.0
H265 H 0.15861 0.0707 0.65924 0.0
H266 H 0.39193 0.14301 0.69285 0.0
H267 H 0.25243 0.11052 0.63411 0.0
H268 H 0.44157 0.22102 0.59495 0.0
H269 H 0.36351 0.2094 0.62418 0.0
H270 H 0.42002 0.0891 0.66298 0.0
H271 H 0.49719 0.10099 0.63398 0.0
C272 C 0.28736 0.10402 0.6997 0.0
C273 C 0.22057 0.0825 0.69058 0.0
C274 C 0.34124 0.12746 0.68532 0.0
C275 C 0.32976 0.13017 0.66148 0.0
C276 C 0.26329 0.11007 0.65244 0.0
C277 C 0.2093 0.08642 0.66682 0.0
C278 C 0.43903 0.19449 0.61023 0.0
C279 C 0.47576 0.16261 0.61249 0.0
C280 C 0.39374 0.18692 0.62676 0.0
C281 C 0.38513 0.14784 0.64582 0.0
C282 C 0.4258 0.12008 0.64871 0.0
C283 C 0.47016 0.12699 0.63214 0.0
H284 H 0.15134 0.25521 0.00996 0.0
H285 H 0.24073 0.13615 -0.00019 0.0
H286 H 0.21734 0.32784 0.98044 0.0
H287 H 0.30599 0.20845 0.96945 0.0
H288 H 0.48444 0.40601 0.94719 0.0
H289 H 0.40293 0.3207 0.97072 0.0
H290 H 0.24311 0.34673 0.94094 0.0
H291 H 0.32648 0.43464 0.91745 0.0
C292 C 0.1837 0.24326 0.00098 0.0
C293 C 0.19117 0.19002 0.00741 0.0
C294 C 0.22149 0.28507 0.9839 0.0
C295 C 0.26765 0.27466 0.97273 0.0
C296 C 0.27187 0.21873 0.97809 0.0
C297 C 0.23421 0.17697 0.99536 0.0
C298 C 0.43189 0.3937 0.94557 0.0
C299 C 0.41185 0.4271 0.93042 0.0
C300 C 0.38484 0.34399 0.95891 0.0
C301 C 0.31607 0.32575 0.95745 0.0
C302 C 0.29583 0.35966 0.94249 0.0
C303 C 0.34345 0.41014 0.92912 0.0
H304 H 0.98351 0.14174 0.32304 0.0
H305 H 0.09282 0.32712 0.36557 0.0
H306 H 0.95195 0.19656 0.29415 0.0
H307 H 0.06132 0.38146 0.33675 0.0
H308 H 0.92346 0.43485 0.29923 0.0
H309 H 0.94861 0.36802 0.32487 0.0
H310 H 0.99667 0.28838 0.26647 0.0
H311 H 0.97113 0.35504 0.24101 0.0
C312 C 1.0028 0.19468 0.32591 0.0
C313 C 0.04001 0.22977 0.3468 0.0
C314 C 0.984 0.22585 0.30945 0.0
C315 C 1.00207 0.29256 0.3136 0.0
C316 C 0.04455 0.32925 0.33346 0.0
C317 C 0.06353 0.29834 0.34982 0.0
C318 C 0.93638 0.40071 0.29186 0.0
C319 C 0.94392 0.39864 0.26821 0.0
C320 C 0.95217 0.36355 0.3065 0.0
C321 C 0.97593 0.32398 0.29769 0.0
C322 C 0.97845 0.31825 0.27376 0.0
C323 C 0.96317 0.35579 0.25918 0.0
loop_
_geom_bond_atom_site_label_1
_geom_bond_atom_site_label_2
_geom_bond_distance
_geom_bond_site_symmetry_2
_ccdc_geom_bond_type
Mg0 O1 2.028 . S
Mg0 O7 1.986 . S
Mg0 O9 2.114 . S
Mg0 O10 2.251 . S
Mg0 O13 2.010 . S
O1 Mg0 2.028 . S
O1 C4 1.250 1_455 S
O2 Mg3 2.028 1_655 S
O2 C4 1.248 . S
Mg3 O2 2.028 1_455 S
Mg3 O8 2.032 . S
Mg3 O10 2.079 . S
C4 O1 1.250 1_655 S
C4 O2 1.248 . S
C5 O6 1.264 1_565 S
C5 O13 1.249 1_565 S
O6 C5 1.264 1_545 S
O7 Mg0 1.986 . S
O7 C11 1.246 . S
O8 Mg3 2.032 . S
O8 C11 1.259 . S
O9 Mg0 2.114 . S
O9 C12 1.252 . S
O10 Mg0 2.251 . S
O10 Mg3 2.079 . S
O10 C12 1.273 . S
C11 O7 1.246 . S
C11 O8 1.259 . S
C12 O9 1.252 . S
C12 O10 1.273 . S
O13 Mg0 2.010 . S
O13 C5 1.249 1_545 S
Mg14 O15 2.028 1_655 S
Mg14 O21 1.986 1_655 S
Mg14 O23 2.114 1_545 S
Mg14 O24 2.251 . S
Mg14 O27 2.010 1_545 S
O15 Mg14 2.028 1_455 S
O15 C18 1.250 . S
O16 Mg17 2.028 . S
O16 C18 1.248 . S
Mg17 O16 2.028 . S
Mg17 O22 2.032 . S
Mg17 O24 2.079 1_455 S
C18 O15 1.250 . S
C18 O16 1.248 . S
C19 O20 1.264 . S
C19 O27 1.249 . S
O20 C19 1.264 . S
O21 Mg14 1.986 1_455 S
O21 C25 1.246 . S
O22 Mg17 2.032 . S
O22 C25 1.259 . S
O23 Mg14 2.114 1_565 S
O23 C26 1.252 1_565 S
O24 Mg14 2.251 . S
O24 Mg17 2.079 1_655 S
O24 C26 1.273 . S
C25 O21 1.246 . S
C25 O22 1.259 . S
C26 O23 1.252 1_545 S
C26 O24 1.273 . S
O27 Mg14 2.010 1_565 S
O27 C19 1.249 . S
Mg28 O29 2.028 . S
Mg28 O35 1.986 1_455 S
Mg28 O37 2.114 1_545 S
Mg28 O38 2.251 1_445 S
Mg28 O41 2.010 . S
O29 Mg28 2.028 . S
O29 C32 1.250 . S
O30 Mg31 2.028 1_455 S
O30 C32 1.248 . S
Mg31 O30 2.028 1_655 S
Mg31 O36 2.032 . S
Mg31 O38 2.079 1_545 S
C32 O29 1.250 . S
C32 O30 1.248 . S
C33 O34 1.266 . S
C33 O41 1.247 1_565 S
O34 C33 1.266 . S
O35 Mg28 1.986 1_655 S
O35 C39 1.246 . S
O36 Mg31 2.032 . S
O36 C39 1.259 . S
O37 Mg28 2.114 1_565 S
O37 C40 1.252 1_455 S
O38 Mg28 2.251 1_665 S
O38 Mg31 2.079 1_565 S
O38 C40 1.273 . S
C39 O35 1.246 . S
C39 O36 1.259 . S
C40 O37 1.252 1_655 S
C40 O38 1.273 . S
O41 Mg28 2.010 . S
O41 C33 1.247 1_545 S
C42 O44 1.247 . S
C42 O46 1.258 1_455 S
C43 O50 1.247 1_455 S
C43 O51 1.258 . S
O44 C42 1.247 . S
O44 Zn45 2.028 . S
Zn45 O44 2.028 . S
Zn45 O49 2.035 . S
Zn45 O51 2.035 . S
Zn45 O52 2.028 . S
O46 C42 1.258 1_655 S
O46 Zn47 2.035 . S
Zn47 O46 2.035 . S
Zn47 O48 2.028 . S
Zn47 O50 2.028 . S
Zn47 O53 2.035 . S
O48 Zn47 2.028 . S
O48 C54 1.247 1_655 S
O49 Zn45 2.035 . S
O49 C54 1.258 . S
O50 C43 1.247 1_655 S
O50 Zn47 2.028 . S
O51 C43 1.258 . S
O51 Zn45 2.035 . S
O52 Zn45 2.028 . S
O52 C55 1.247 . S
O53 Zn47 2.035 . S
O53 C55 1.258 1_655 S
C54 O48 1.247 1_455 S
C54 O49 1.258 . S
C55 O52 1.247 . S
C55 O53 1.258 1_455 S
C56 O58 1.247 . S
C56 O60 1.258 . S
C57 O64 1.247 . S
C57 O65 1.258 . S
O58 C56 1.247 . S
O58 Zn59 2.028 . S
Zn59 O58 2.028 . S
Zn59 O63 2.035 . S
Zn59 O65 2.035 . S
Zn59 O66 2.028 . S
O60 C56 1.258 . S
O60 Zn61 2.035 . S
Zn61 O60 2.035 . S
Zn61 O62 2.028 . S
Zn61 O64 2.028 . S
Zn61 O67 2.035 . S
O62 Zn61 2.028 . S
O62 C68 1.247 . S
O63 Zn59 2.035 . S
O63 C68 1.258 . S
O64 C57 1.247 . S
O64 Zn61 2.028 . S
O65 C57 1.258 . S
O65 Zn59 2.035 . S
O66 Zn59 2.028 . S
O66 C69 1.247 . S
O67 Zn61 2.035 . S
O67 C69 1.258 . S
C68 O62 1.247 . S
C68 O63 1.258 . S
C69 O66 1.247 . S
C69 O67 1.258 . S
C70 O72 1.247 . S
C70 O74 1.258 . S
C71 O78 1.247 . S
C71 O79 1.258 . S
O72 C70 1.247 . S
O72 Zn73 2.028 . S
Zn73 O72 2.028 . S
Zn73 O77 2.035 . S
Zn73 O79 2.035 . S
Zn73 O80 2.028 . S
O74 C70 1.258 . S
O74 Zn75 2.035 . S
Zn75 O74 2.035 . S
Zn75 O76 2.028 . S
Zn75 O78 2.028 . S
Zn75 O81 2.035 . S
O76 Zn75 2.028 . S
O76 C82 1.247 . S
O77 Zn73 2.035 . S
O77 C82 1.258 . S
O78 C71 1.247 . S
O78 Zn75 2.028 . S
O79 C71 1.258 . S
O79 Zn73 2.035 . S
O80 Zn73 2.028 . S
O80 C83 1.247 . S
O81 Zn75 2.035 . S
O81 C83 1.258 . S
C82 O76 1.247 . S
C82 O77 1.258 . S
C83 O80 1.247 . S
C83 O81 1.258 . S
H84 C92 0.950 . S
H85 C97 0.950 . S
H86 C94 0.950 . S
H87 C96 0.950 . S
H88 C98 0.950 . S
H89 C100 0.950 . S
H90 C102 0.950 . S
H91 C103 0.950 . S
C92 H84 0.950 . S
C92 C93 1.386 1_655 S
C92 C94 1.391 . S
C93 C92 1.386 1_455 S
C93 C97 1.393 . S
C94 H86 0.950 . S
C94 C92 1.391 . S
C94 C95 1.400 1_655 S
C95 C94 1.400 1_455 S
C95 C96 1.398 . S
C95 C101 1.491 . S
C96 H87 0.950 . S
C96 C95 1.398 . S
C96 C97 1.391 . S
C97 H85 0.950 . S
C97 C93 1.393 . S
C97 C96 1.391 . S
C98 H88 0.950 . S
C98 C99 1.386 . S
C98 C100 1.391 . S
C99 C98 1.386 . S
C99 C103 1.393 1_455 S
C100 H89 0.950 . S
C100 C98 1.391 . S
C100 C101 1.400 . S
C101 C95 1.491 . S
C101 C100 1.400 . S
C101 C102 1.398 1_455 S
C102 H90 0.950 . S
C102 C101 1.398 1_655 S
C102 C103 1.391 . S
C103 H91 0.950 . S
C103 C99 1.393 1_655 S
C103 C102 1.391 . S
H104 C112 0.950 . S
H105 C117 0.950 . S
H106 C114 0.950 . S
H107 C116 0.950 . S
H108 C118 0.950 1_565 S
H109 C120 0.950 1_565 S
H110 C122 0.950 . S
H111 C123 0.950 . S
C112 H104 0.950 . S
C112 C113 1.386 . S
C112 C114 1.391 . S
C113 C112 1.386 . S
C113 C117 1.393 1_545 S
C114 H106 0.950 . S
C114 C112 1.391 . S
C114 C115 1.400 . S
C115 C114 1.400 . S
C115 C116 1.398 1_545 S
C115 C121 1.491 . S
C116 H107 0.950 . S
C116 C115 1.398 1_565 S
C116 C117 1.391 . S
C117 H105 0.950 . S
C117 C113 1.393 1_565 S
C117 C116 1.391 . S
C118 H108 0.950 1_545 S
C118 C119 1.386 . S
C118 C120 1.391 . S
C119 C118 1.386 . S
C119 C123 1.393 . S
C120 H109 0.950 1_545 S
C120 C118 1.391 . S
C120 C121 1.400 . S
C121 C115 1.491 . S
C121 C120 1.400 . S
C121 C122 1.398 . S
C122 H110 0.950 . S
C122 C121 1.398 . S
C122 C123 1.391 . S
C123 H111 0.950 . S
C123 C119 1.393 . S
C123 C122 1.391 . S
H124 C132 0.950 . S
H125 C137 0.950 . S
H126 C134 0.950 . S
H127 C136 0.950 . S
H128 C138 0.950 . S
H129 C140 0.950 . S
H130 C142 0.950 . S
H131 C143 0.950 . S
C132 H124 0.950 . S
C132 C133 1.386 . S
C132 C134 1.391 . S
C133 C132 1.386 . S
C133 C137 1.393 . S
C134 H126 0.950 . S
C134 C132 1.391 . S
C134 C135 1.400 . S
C135 C134 1.400 . S
C135 C136 1.398 . S
C135 C141 1.491 . S
C136 H127 0.950 . S
C136 C135 1.398 . S
C136 C137 1.391 . S
C137 H125 0.950 . S
C137 C133 1.393 . S
C137 C136 1.391 . S
C138 H128 0.950 . S
C138 C139 1.386 . S
C138 C140 1.391 . S
C139 C138 1.386 . S
C139 C143 1.393 . S
C140 H129 0.950 . S
C140 C138 1.391 . S
C140 C141 1.400 . S
C141 C135 1.491 . S
C141 C140 1.400 . S
C141 C142 1.398 . S
C142 H130 0.950 . S
C142 C141 1.398 . S
C142 C143 1.391 . S
C143 H131 0.950 . S
C143 C139 1.393 . S
C143 C142 1.391 . S
H144 C152 0.950 . S
H145 C157 0.950 . S
H146 C154 0.950 . S
H147 C156 0.950 . S
H148 C158 0.950 1_655 S
H149 C160 0.950 . S
H150 C162 0.950 . S
H151 C163 0.950 . S
C152 H144 0.950 . S
C152 C153 1.386 . S
C152 C154 1.391 . S
C153 C152 1.386 . S
C153 C157 1.393 . S
C154 H146 0.950 . S
C154 C152 1.391 . S
C154 C155 1.400 . S
C155 C154 1.400 . S
C155 C156 1.398 . S
C155 C161 1.491 . S
C156 H147 0.950 . S
C156 C155 1.398 . S
C156 C157 1.391 . S
C157 H145 0.950 . S
C157 C153 1.393 . S
C157 C156 1.391 . S
C158 H148 0.950 1_455 S
C158 C159 1.386 . S
C158 C160 1.391 . S
C159 C158 1.386 . S
C159 C163 1.393 . S
C160 H149 0.950 . S
C160 C158 1.391 . S
C160 C161 1.400 . S
C161 C155 1.491 . S
C161 C160 1.400 . S
C161 C162 1.398 . S
C162 H150 0.950 . S
C162 C161 1.398 . S
C162 C163 1.391 . S
C163 H151 0.950 . S
C163 C159 1.393 . S
C163 C162 1.391 . S
H164 C172 0.950 . S
H165 C177 0.950 . S
H166 C174 0.950 . S
H167 C176 0.950 . S
H168 C178 0.950 . S
H169 C180 0.950 . S
H170 C182 0.950 . S
H171 C183 0.950 . S
C172 H164 0.950 . S
C172 C173 1.386 . S
C172 C174 1.391 . S
C173 C172 1.386 . S
C173 C177 1.393 . S
C174 H166 0.950 . S
C174 C172 1.391 . S
C174 C175 1.400 . S
C175 C174 1.400 . S
C175 C176 1.398 . S
C175 C181 1.491 . S
C176 H167 0.950 . S
C176 C175 1.398 . S
C176 C177 1.391 . S
C177 H165 0.950 . S
C177 C173 1.393 . S
C177 C176 1.391 . S
C178 H168 0.950 . S
C178 C179 1.386 . S
C178 C180 1.391 . S
C179 C178 1.386 . S
C179 C183 1.393 . S
C180 H169 0.950 . S
C180 C178 1.391 . S
C180 C181 1.400 . S
C181 C175 1.491 . S
C181 C180 1.400 . S
C181 C182 1.398 . S
C182 H170 0.950 . S
C182 C181 1.398 . S
C182 C183 1.391 . S
C183 H171 0.950 . S
C183 C179 1.393 . S
C183 C182 1.391 . S
H184 C192 0.950 . S
H185 C197 0.950 . S
H186 C194 0.950 . S
H187 C196 0.950 . S
H188 C198 0.950 . S
H189 C200 0.950 . S
H190 C202 0.950 . S
H191 C203 0.950 . S
C192 H184 0.950 . S
C192 C193 1.386 . S
C192 C194 1.391 . S
C193 C192 1.386 . S
C193 C197 1.393 . S
C194 H186 0.950 . S
C194 C192 1.391 . S
C194 C195 1.400 . S
C195 C194 1.400 . S
C195 C196 1.398 . S
C195 C201 1.491 . S
C196 H187 0.950 . S
C196 C195 1.398 . S
C196 C197 1.391 . S
C197 H185 0.950 . S
C197 C193 1.393 . S
C197 C196 1.391 . S
C198 H188 0.950 . S
C198 C199 1.386 . S
C198 C200 1.391 . S
C199 C198 1.386 . S
C199 C203 1.393 . S
C200 H189 0.950 . S
C200 C198 1.391 . S
C200 C201 1.400 . S
C201 C195 1.491 . S
C201 C200 1.400 . S
C201 C202 1.398 . S
C202 H190 0.950 . S
C202 C201 1.398 . S
C202 C203 1.391 . S
C203 H191 0.950 . S
C203 C199 1.393 . S
C203 C202 1.391 . S
H204 C212 0.950 . S
H205 C217 0.950 . S
H206 C214 0.950 . S
H207 C216 0.950 . S
H208 C218 0.950 . S
H209 C220 0.950 . S
H210 C222 0.950 . S
H211 C223 0.950 . S
C212 H204 0.950 . S
C212 C213 1.386 . S
C212 C214 1.391 . S
C213 C212 1.386 . S
C213 C217 1.393 . S
C214 H206 0.950 . S
C214 C212 1.391 . S
C214 C215 1.400 . S
C215 C214 1.400 . S
C215 C216 1.398 . S
C215 C221 1.491 . S
C216 H207 0.950 . S
C216 C215 1.398 . S
C216 C217 1.391 . S
C217 H205 0.950 . S
C217 C213 1.393 . S
C217 C216 1.391 . S
C218 H208 0.950 . S
C218 C219 1.386 . S
C218 C220 1.391 . S
C219 C218 1.386 . S
C219 C223 1.393 . S
C220 H209 0.950 . S
C220 C218 1.391 . S
C220 C221 1.400 . S
C221 C215 1.491 . S
C221 C220 1.400 . S
C221 C222 1.398 . S
C222 H210 0.950 . S
C222 C221 1.398 . S
C222 C223 1.391 . S
C223 H211 0.950 . S
C223 C219 1.393 . S
C223 C222 1.391 . S
H224 C232 0.950 . S
H225 C237 0.950 . S
H226 C234 0.950 . S
H227 C236 0.950 . S
H228 C238 0.950 . S
H229 C240 0.950 . S
H230 C242 0.950 . S
H231 C243 0.950 . S
C232 H224 0.950 . S
C232 C233 1.386 . S
C232 C234 1.391 1_554 S
C233 C232 1.386 . S
C233 C237 1.393 . S
C234 H226 0.950 . S
C234 C232 1.391 1_556 S
C234 C235 1.400 . S
C235 C234 1.400 . S
C235 C236 1.398 1_556 S
C235 C241 1.491 . S
C236 H227 0.950 . S
C236 C235 1.398 1_554 S
C236 C237 1.391 . S
C237 H225 0.950 . S
C237 C233 1.393 . S
C237 C236 1.391 . S
C238 H228 0.950 . S
C238 C239 1.386 . S
C238 C240 1.391 . S
C239 C238 1.386 . S
C239 C243 1.393 . S
C240 H229 0.950 . S
C240 C238 1.391 . S
C240 C241 1.400 . S
C241 C235 1.491 . S
C241 C240 1.400 . S
C241 C242 1.398 . S
C242 H230 0.950 . S
C242 C241 1.398 . S
C242 C243 1.391 . S
C243 H231 0.950 . S
C243 C239 1.393 . S
C243 C242 1.391 . S
H244 C252 0.950 . S
H245 C257 0.950 . S
H246 C254 0.950 . S
H247 C256 0.950 . S
H248 C258 0.950 . S
H249 C260 0.950 . S
H250 C262 0.950 . S
H251 C263 0.950 . S
C252 H244 0.950 . S
C252 C253 1.386 1_455 S
C252 C254 1.391 . S
C253 C252 1.386 1_655 S
C253 C257 1.393 . S
C254 H246 0.950 . S
C254 C252 1.391 . S
C254 C255 1.400 1_455 S
C255 C254 1.400 1_655 S
C255 C256 1.398 . S
C255 C261 1.491 1_655 S
C256 H247 0.950 . S
C256 C255 1.398 . S
C256 C257 1.391 . S
C257 H245 0.950 . S
C257 C253 1.393 . S
C257 C256 1.391 . S
C258 H248 0.950 . S
C258 C259 1.386 1_655 S
C258 C260 1.391 . S
C259 C258 1.386 1_455 S
C259 C263 1.393 . S
C260 H249 0.950 . S
C260 C258 1.391 . S
C260 C261 1.400 1_655 S
C261 C255 1.491 1_455 S
C261 C260 1.400 1_455 S
C261 C262 1.398 . S
C262 H250 0.950 . S
C262 C261 1.398 . S
C262 C263 1.391 . S
C263 H251 0.950 . S
C263 C259 1.393 . S
C263 C262 1.391 . S
H264 C272 0.950 . S
H265 C277 0.950 . S
H266 C274 0.950 . S
H267 C276 0.950 . S
H268 C278 0.950 . S
H269 C280 0.950 . S
H270 C282 0.950 1_565 S
H271 C283 0.950 1_565 S
C272 H264 0.950 . S
C272 C273 1.386 1_565 S
C272 C274 1.391 . S
C273 C272 1.386 1_545 S
C273 C277 1.393 . S
C274 H266 0.950 . S
C274 C272 1.391 . S
C274 C275 1.400 1_565 S
C275 C274 1.400 1_545 S
C275 C276 1.398 . S
C275 C281 1.491 . S
C276 H267 0.950 . S
C276 C275 1.398 . S
C276 C277 1.391 . S
C277 H265 0.950 . S
C277 C273 1.393 . S
C277 C276 1.391 . S
C278 H268 0.950 . S
C278 C279 1.386 . S
C278 C280 1.391 . S
C279 C278 1.386 . S
C279 C283 1.393 . S
C280 H269 0.950 . S
C280 C278 1.391 . S
C280 C281 1.400 . S
C281 C275 1.491 . S
C281 C280 1.400 . S
C281 C282 1.398 . S
C282 H270 0.950 1_545 S
C282 C281 1.398 . S
C282 C283 1.391 . S
C283 H271 0.950 1_545 S
C283 C279 1.393 . S
C283 C282 1.391 . S
H284 C292 0.950 . S
H285 C297 0.950 . S
H286 C294 0.950 . S
H287 C296 0.950 . S
H288 C298 0.950 . S
H289 C300 0.950 . S
H290 C302 0.950 . S
H291 C303 0.950 . S
C292 H284 0.950 . S
C292 C293 1.386 . S
C292 C294 1.391 1_554 S
C293 C292 1.386 . S
C293 C297 1.393 . S
C294 H286 0.950 . S
C294 C292 1.391 1_556 S
C294 C295 1.400 . S
C295 C294 1.400 . S
C295 C296 1.398 1_556 S
C295 C301 1.491 . S
C296 H287 0.950 . S
C296 C295 1.398 1_554 S
C296 C297 1.391 . S
C297 H285 0.950 . S
C297 C293 1.393 . S
C297 C296 1.391 . S
C298 H288 0.950 . S
C298 C299 1.386 . S
C298 C300 1.391 . S
C299 C298 1.386 . S
C299 C303 1.393 . S
C300 H289 0.950 . S
C300 C298 1.391 . S
C300 C301 1.400 . S
C301 C295 1.491 . S
C301 C300 1.400 . S
C301 C302 1.398 . S
C302 H290 0.950 . S
C302 C301 1.398 . S
C302 C303 1.391 . S
C303 H291 0.950 . S
C303 C299 1.393 . S
C303 C302 1.391 . S
H304 C312 0.950 . S
H305 C317 0.950 . S
H306 C314 0.950 1_655 S
H307 C316 0.950 . S
H308 C318 0.950 . S
H309 C320 0.950 . S
H310 C322 0.947 . S
H311 C323 0.950 1_655 S
C312 H304 0.950 . S
C312 C313 1.386 . S
C312 C314 1.391 . S
C313 C312 1.386 . S
C313 C317 1.393 . S
C314 H306 0.950 1_455 S
C314 C312 1.391 . S
C314 C315 1.400 . S
C315 C314 1.400 . S
C315 C316 1.398 . S
C315 C321 1.491 . S
C316 H307 0.950 . S
C316 C315 1.398 . S
C316 C317 1.391 . S
C317 H305 0.950 . S
C317 C313 1.393 . S
C317 C316 1.391 . S
C318 H308 0.950 . S
C318 C319 1.386 . S
C318 C320 1.391 . S
C319 C318 1.386 . S
C319 C323 1.393 . S
C320 H309 0.950 . S
C320 C318 1.391 . S
C320 C321 1.400 . S
C321 C315 1.491 . S
C321 C320 1.400 . S
C321 C322 1.398 . S
C322 H310 0.947 . S
C322 C321 1.398 . S
C322 C323 1.391 . S
C323 H311 0.950 1_455 S
C323 C319 1.393 . S
C323 C322 1.391 . S
C99 C43 1.398 . S
C93 C11 1.393 . S
C113 C26 1.500 . S
C119 C69 1.514 . S
C133 C40 1.392 . S
C139 C71 1.404 . S
C153 C5 1.197 . S
C159 C55 1.389 . S
C179 C57 1.516 . S
C173 C18 1.497 . S
C193 C32 1.376 . S
C199 C83 1.401 . S
C219 C56 1.288 . S
C213 C39 1.285 . S
C233 C4 1.403 1_565 S
C239 C82 1.415 . S
C259 C42 1.401 . S
C253 C19 1.250 . S
C279 C68 1.319 . S
C273 C33 1.134 1_545 S
C299 C70 1.419 . S
C293 C12 1.405 . S
C313 C25 1.385 . S
C319 C54 1.408 . S
