# Generated by pormake.
# Topology ocu, (6,8)-cn, num edge types: 1
# Building blocks:
#     Node 0, Type 0, BuildingBlock: BETDEL_clean_sbu_0, # of connection points: 6
#     Node 1, Type 0, BuildingBlock: BETDEL_clean_sbu_0, # of connection points: 6
#     Node 2, Type 0, BuildingBlock: BETDEL_clean_sbu_0, # of connection points: 6
#     Node 3, Type 0, BuildingBlock: BETDEL_clean_sbu_0, # of connection points: 6
#     Node 4, Type 0, BuildingBlock: BETDEL_clean_sbu_0, # of connection points: 6
#     Node 5, Type 0, BuildingBlock: BETDEL_clean_sbu_0, # of connection points: 6
#     Node 6, Type 0, BuildingBlock: BETDEL_clean_sbu_0, # of connection points: 6
#     Node 7, Type 0, BuildingBlock: BETDEL_clean_sbu_0, # of connection points: 6
#     Node 8, Type 1, BuildingBlock: AJUNOK_clean_sbu_0, # of connection points: 8
#     Node 9, Type 1, BuildingBlock: AJUNOK_clean_sbu_0, # of connection points: 8
#     Node 10, Type 1, BuildingBlock: AJUNOK_clean_sbu_0, # of connection points: 8
#     Node 11, Type 1, BuildingBlock: AJUNOK_clean_sbu_0, # of connection points: 8
#     Node 12, Type 1, BuildingBlock: AJUNOK_clean_sbu_0, # of connection points: 8
#     Node 13, Type 1, BuildingBlock: AJUNOK_clean_sbu_0, # of connection points: 8
#     Edge 14, Type (0, 1), BuildingBlock: CIFDUS_clean_linker_0, # of connection points: 2
#     Edge 15, Type (0, 1), BuildingBlock: CIFDUS_clean_linker_0, # of connection points: 2
#     Edge 16, Type (0, 1), BuildingBlock: CIFDUS_clean_linker_0, # of connection points: 2
#     Edge 17, Type (0, 1), BuildingBlock: CIFDUS_clean_linker_0, # of connection points: 2
#     Edge 18, Type (0, 1), BuildingBlock: CIFDUS_clean_linker_0, # of connection points: 2
#     Edge 19, Type (0, 1), BuildingBlock: CIFDUS_clean_linker_0, # of connection points: 2
#     Edge 20, Type (0, 1), BuildingBlock: CIFDUS_clean_linker_0, # of connection points: 2
#     Edge 21, Type (0, 1), BuildingBlock: CIFDUS_clean_linker_0, # of connection points: 2
#     Edge 22, Type (0, 1), BuildingBlock: CIFDUS_clean_linker_0, # of connection points: 2
#     Edge 23, Type (0, 1), BuildingBlock: CIFDUS_clean_linker_0, # of connection points: 2
#     Edge 24, Type (0, 1), BuildingBlock: CIFDUS_clean_linker_0, # of connection points: 2
#     Edge 25, Type (0, 1), BuildingBlock: CIFDUS_clean_linker_0, # of connection points: 2
#     Edge 26, Type (0, 1), BuildingBlock: CIFDUS_clean_linker_0, # of connection points: 2
#     Edge 27, Type (0, 1), BuildingBlock: CIFDUS_clean_linker_0, # of connection points: 2
#     Edge 28, Type (0, 1), BuildingBlock: CIFDUS_clean_linker_0, # of connection points: 2
#     Edge 29, Type (0, 1), BuildingBlock: CIFDUS_clean_linker_0, # of connection points: 2
#     Edge 30, Type (0, 1), BuildingBlock: CIFDUS_clean_linker_0, # of connection points: 2
#     Edge 31, Type (0, 1), BuildingBlock: CIFDUS_clean_linker_0, # of connection points: 2
#     Edge 32, Type (0, 1), BuildingBlock: CIFDUS_clean_linker_0, # of connection points: 2
#     Edge 33, Type (0, 1), BuildingBlock: CIFDUS_clean_linker_0, # of connection points: 2
#     Edge 34, Type (0, 1), BuildingBlock: CIFDUS_clean_linker_0, # of connection points: 2
#     Edge 35, Type (0, 1), BuildingBlock: CIFDUS_clean_linker_0, # of connection points: 2
#     Edge 36, Type (0, 1), BuildingBlock: CIFDUS_clean_linker_0, # of connection points: 2
#     Edge 37, Type (0, 1), BuildingBlock: CIFDUS_clean_linker_0, # of connection points: 2
#     Edge 38, Type (0, 1), BuildingBlock: CIFDUS_clean_linker_0, # of connection points: 2
#     Edge 39, Type (0, 1), BuildingBlock: CIFDUS_clean_linker_0, # of connection points: 2
#     Edge 40, Type (0, 1), BuildingBlock: CIFDUS_clean_linker_0, # of connection points: 2
#     Edge 41, Type (0, 1), BuildingBlock: CIFDUS_clean_linker_0, # of connection points: 2
#     Edge 42, Type (0, 1), BuildingBlock: CIFDUS_clean_linker_0, # of connection points: 2
#     Edge 43, Type (0, 1), BuildingBlock: CIFDUS_clean_linker_0, # of connection points: 2
#     Edge 44, Type (0, 1), BuildingBlock: CIFDUS_clean_linker_0, # of connection points: 2
#     Edge 45, Type (0, 1), BuildingBlock: CIFDUS_clean_linker_0, # of connection points: 2
#     Edge 46, Type (0, 1), BuildingBlock: CIFDUS_clean_linker_0, # of connection points: 2
#     Edge 47, Type (0, 1), BuildingBlock: CIFDUS_clean_linker_0, # of connection points: 2
#     Edge 48, Type (0, 1), BuildingBlock: CIFDUS_clean_linker_0, # of connection points: 2
#     Edge 49, Type (0, 1), BuildingBlock: CIFDUS_clean_linker_0, # of connection points: 2
#     Edge 50, Type (0, 1), BuildingBlock: CIFDUS_clean_linker_0, # of connection points: 2
#     Edge 51, Type (0, 1), BuildingBlock: CIFDUS_clean_linker_0, # of connection points: 2
#     Edge 52, Type (0, 1), BuildingBlock: CIFDUS_clean_linker_0, # of connection points: 2
#     Edge 53, Type (0, 1), BuildingBlock: CIFDUS_clean_linker_0, # of connection points: 2
#     Edge 54, Type (0, 1), BuildingBlock: CIFDUS_clean_linker_0, # of connection points: 2
#     Edge 55, Type (0, 1), BuildingBlock: CIFDUS_clean_linker_0, # of connection points: 2
#     Edge 56, Type (0, 1), BuildingBlock: CIFDUS_clean_linker_0, # of connection points: 2
#     Edge 57, Type (0, 1), BuildingBlock: CIFDUS_clean_linker_0, # of connection points: 2
#     Edge 58, Type (0, 1), BuildingBlock: CIFDUS_clean_linker_0, # of connection points: 2
#     Edge 59, Type (0, 1), BuildingBlock: CIFDUS_clean_linker_0, # of connection points: 2
#     Edge 60, Type (0, 1), BuildingBlock: CIFDUS_clean_linker_0, # of connection points: 2
#     Edge 61, Type (0, 1), BuildingBlock: CIFDUS_clean_linker_0, # of connection points: 2
# Relax obj value: 0.125
# Max RMSD: 0.253
# Mean RMSD: 0.188
data_MOF--net-ocu--node1-BETDEL_clean_sbu_0--node2-AJUNOK_clean_sbu_0--edge1-CIFDUS_clean_linker_0
_symmetry_space_group_name_H-M    P1
_symmetry_Int_Tables_number       1
_symmetry_cell_setting            triclinic
loop_
_symmetry_equiv_pos_as_xyz
'x, y, z'
_cell_length_a     37.423324
_cell_length_b     38.271335
_cell_length_c     30.942601
_cell_angle_alpha  99.434507
_cell_angle_beta   99.240941
_cell_angle_gamma 106.07726
loop_
_atom_site_label
_atom_site_type_symbol
_atom_site_fract_x
_atom_site_fract_y
_atom_site_fract_z
_atom_type_partial_charge
Dy0 Dy 0.27404 0.24081 0.29573 0.0
C1 C 0.19849 0.26192 0.12907 0.0
C2 C 0.31569 0.22219 0.3643 0.0
Dy3 Dy 0.22297 0.23173 0.19789 0.0
O4 O 0.3283 0.24971 0.34543 0.0
O5 O 0.27949 0.20617 0.34739 0.0
O6 O 0.30474 0.30006 0.29347 0.0
O7 O 0.28169 0.25898 0.23397 0.0
C8 C 0.29737 0.29343 0.24976 0.0
C9 C 0.18683 0.18342 0.2435 0.0
O10 O 0.26001 0.19703 0.17656 0.0
O11 O 0.28919 0.19758 0.24966 0.0
O12 O 0.18272 0.22798 0.13305 0.0
O13 O 0.22812 0.27816 0.16147 0.0
O14 O 0.17293 0.18361 0.20207 0.0
O15 O 0.21892 0.20809 0.25569 0.0
O16 O 0.23161 0.26735 0.3172 0.0
O17 O 0.20604 0.27331 0.24558 0.0
C18 C 0.28326 0.1862 0.20526 0.0
C19 C 0.20954 0.28032 0.29007 0.0
Dy20 Dy 0.7819 0.21951 0.27009 0.0
C21 C 0.67955 0.27252 0.16294 0.0
C22 C 0.829 0.20015 0.33076 0.0
Dy23 Dy 0.72389 0.25127 0.22471 0.0
O24 O 0.79301 0.18259 0.31576 0.0
O25 O 0.83984 0.22778 0.31155 0.0
O26 O 0.77256 0.17526 0.20775 0.0
O27 O 0.72812 0.19554 0.22103 0.0
C28 C 0.73837 0.17567 0.19201 0.0
C29 C 0.76619 0.29445 0.30332 0.0
O30 O 0.68868 0.21738 0.2635 0.0
O31 O 0.74115 0.21892 0.31563 0.0
O32 O 0.71596 0.28776 0.17706 0.0
O33 O 0.66683 0.24621 0.18354 0.0
O34 O 0.73224 0.2951 0.28695 0.0
O35 O 0.7771 0.27517 0.27433 0.0
O36 O 0.81723 0.2534 0.23174 0.0
O37 O 0.76478 0.25111 0.17939 0.0
C38 C 0.70403 0.21227 0.30264 0.0
C39 C 0.80195 0.25849 0.1927 0.0
Dy40 Dy 0.73655 0.75111 0.28767 0.0
C41 C 0.78565 0.68693 0.13371 0.0
C42 C 0.71316 0.78971 0.35459 0.0
Dy43 Dy 0.7618 0.72644 0.19919 0.0
O44 O 0.69239 0.75886 0.32674 0.0
O45 O 0.7473 0.79875 0.34693 0.0
O46 O 0.7045 0.69132 0.28292 0.0
O47 O 0.71022 0.71209 0.22422 0.0
C48 C 0.69878 0.68348 0.23939 0.0
C49 C 0.80225 0.79383 0.24734 0.0
O50 O 0.71784 0.75103 0.16989 0.0
O51 O 0.71409 0.78284 0.23936 0.0
O52 O 0.79959 0.72251 0.15038 0.0
O53 O 0.75679 0.67306 0.15102 0.0
O54 O 0.79735 0.78484 0.20399 0.0
O55 O 0.78853 0.76566 0.2626 0.0
O56 O 0.77949 0.72558 0.31742 0.0
O57 O 0.78649 0.69657 0.24829 0.0
C58 C 0.70629 0.77589 0.19468 0.0
C59 C 0.79267 0.70197 0.29289 0.0
Dy60 Dy 0.27582 0.69406 0.23035 0.0
C61 C 0.22118 0.80777 0.31038 0.0
C62 C 0.29776 0.64479 0.17669 0.0
Dy63 Dy 0.24032 0.7551 0.25831 0.0
O64 O 0.31989 0.67725 0.19945 0.0
O65 O 0.26406 0.63803 0.18547 0.0
O66 O 0.31299 0.70726 0.29957 0.0
O67 O 0.29621 0.74883 0.27408 0.0
C68 C 0.31174 0.74129 0.30897 0.0
C69 C 0.2043 0.70881 0.17919 0.0
O70 O 0.28577 0.78605 0.22849 0.0
O71 O 0.28893 0.73281 0.18384 0.0
O72 O 0.21523 0.80156 0.26685 0.0
O73 O 0.2378 0.78532 0.32557 0.0
O74 O 0.20177 0.74223 0.18981 0.0
O75 O 0.2201 0.70077 0.21354 0.0
O76 O 0.23851 0.66351 0.26959 0.0
O77 O 0.21651 0.7126 0.29633 0.0
C78 C 0.2963 0.76939 0.19411 0.0
C79 C 0.21889 0.67854 0.29476 0.0
Dy80 Dy 0.27081 0.71179 0.76291 0.0
C81 C 0.17331 0.78801 0.68934 0.0
C82 C 0.31059 0.67693 0.81183 0.0
Dy83 Dy 0.21966 0.75888 0.73788 0.0
O84 O 0.27507 0.66262 0.79147 0.0
O85 O 0.32492 0.70949 0.80361 0.0
O86 O 0.25654 0.67915 0.69105 0.0
O87 O 0.21735 0.7016 0.71656 0.0
C88 C 0.22438 0.6861 0.68135 0.0
C89 C 0.26619 0.78612 0.8194 0.0
O90 O 0.1801 0.71348 0.7597 0.0
O91 O 0.22892 0.70456 0.80752 0.0
O92 O 0.17253 0.78427 0.73017 0.0
O93 O 0.19974 0.77646 0.67533 0.0
O94 O 0.23487 0.79413 0.80822 0.0
O95 O 0.27295 0.76935 0.78473 0.0
O96 O 0.3113 0.75127 0.73444 0.0
O97 O 0.2666 0.77639 0.70146 0.0
C98 C 0.19228 0.70008 0.79393 0.0
C99 C 0.30104 0.77235 0.70801 0.0
Dy100 Dy 0.24694 0.24802 0.79142 0.0
C101 C 0.28681 0.18988 0.62745 0.0
C102 C 0.22534 0.28526 0.86074 0.0
Dy103 Dy 0.26926 0.22966 0.69811 0.0
O104 O 0.20665 0.25193 0.8371 0.0
O105 O 0.25729 0.29748 0.84818 0.0
O106 O 0.21493 0.18734 0.78191 0.0
O107 O 0.2203 0.21274 0.72659 0.0
C108 C 0.20973 0.18252 0.73848 0.0
C109 C 0.30719 0.29554 0.75073 0.0
O110 O 0.22187 0.25158 0.67428 0.0
O111 O 0.2195 0.2798 0.74611 0.0
O112 O 0.30189 0.22558 0.6435 0.0
O113 O 0.26064 0.17639 0.64862 0.0
O114 O 0.30164 0.2902 0.70721 0.0
O115 O 0.29614 0.2654 0.76289 0.0
O116 O 0.29176 0.22183 0.8152 0.0
O117 O 0.29835 0.19964 0.74285 0.0
C118 C 0.20999 0.2746 0.7014 0.0
C119 C 0.30569 0.20152 0.78698 0.0
Dy120 Dy 0.75622 0.21121 0.71829 0.0
C121 C 0.71677 0.31849 0.83992 0.0
C122 C 0.77585 0.1648 0.65688 0.0
Dy123 Dy 0.72603 0.27156 0.77052 0.0
O124 O 0.77037 0.1591 0.69583 0.0
O125 O 0.77027 0.19584 0.65117 0.0
O126 O 0.79626 0.21313 0.78334 0.0
O127 O 0.77851 0.25815 0.77505 0.0
C128 C 0.79593 0.24558 0.80345 0.0
C129 C 0.67633 0.22863 0.69525 0.0
O130 O 0.76822 0.30838 0.74063 0.0
O131 O 0.7842 0.26201 0.69527 0.0
O132 O 0.71788 0.32562 0.80024 0.0
O133 O 0.72102 0.2862 0.84151 0.0
O134 O 0.66664 0.249 0.72643 0.0
O135 O 0.71199 0.2368 0.70392 0.0
O136 O 0.70487 0.17676 0.73543 0.0
O137 O 0.71007 0.22074 0.79896 0.0
C138 C 0.78601 0.2973 0.70961 0.0
C139 C 0.69635 0.1864 0.7743 0.0
Dy140 Dy 0.77331 0.73184 0.78739 0.0
C141 C 0.68852 0.75699 0.63383 0.0
C142 C 0.80644 0.70311 0.85192 0.0
Dy143 Dy 0.72135 0.72839 0.69853 0.0
O144 O 0.81714 0.7382 0.85019 0.0
O145 O 0.77711 0.68479 0.81977 0.0
O146 O 0.81216 0.78874 0.78531 0.0
O147 O 0.78184 0.7501 0.72619 0.0
C148 C 0.80266 0.7832 0.74173 0.0
C149 C 0.69238 0.67591 0.74249 0.0
O150 O 0.76011 0.69914 0.67033 0.0
O151 O 0.78527 0.68752 0.73814 0.0
O152 O 0.67819 0.72177 0.63499 0.0
O153 O 0.71716 0.77548 0.66673 0.0
O154 O 0.68399 0.67106 0.69893 0.0
O155 O 0.71235 0.70925 0.75948 0.0
O156 O 0.73537 0.76194 0.81596 0.0
O157 O 0.70881 0.77224 0.74792 0.0
C158 C 0.78025 0.68207 0.69373 0.0
C159 C 0.71443 0.77827 0.79243 0.0
Cd160 Cd 0.97619 0.9586 0.55938 0.0
Cd161 Cd 0.0363 0.02336 0.45498 0.0
C162 C 0.0534 0.93864 0.54851 0.0
N163 N 0.01475 0.92419 0.53794 0.0
C164 C 0.0183 0.86301 0.51466 0.0
C165 C 0.05799 0.87692 0.5295 0.0
C166 C 0.07576 0.91536 0.54374 0.0
C167 C 0.99698 0.88751 0.51907 0.0
H168 H 0.06726 0.96754 0.56408 0.0
H169 H 0.96619 0.87689 0.51105 0.0
C170 C 0.95913 0.94852 0.43584 0.0
C171 C 0.9563 0.03725 0.42317 0.0
C172 C 0.92838 0.05455 0.42403 0.0
C173 C 0.93541 0.08731 0.45627 0.0
C174 C 0.97001 0.10146 0.48797 0.0
C175 C 0.997 0.08281 0.48623 0.0
N176 N 0.98959 0.05131 0.4544 0.0
H177 H 0.9517 0.01357 0.39632 0.0
H178 H 0.02454 0.09418 0.50879 0.0
C179 C 0.04925 0.95618 0.39448 0.0
N180 N 0.0624 0.97715 0.43696 0.0
C181 C 0.11343 0.95156 0.449 0.0
C182 C 0.1014 0.93107 0.40437 0.0
C183 C 0.06771 0.93198 0.37793 0.0
C184 C 0.0932 0.97475 0.46479 0.0
H185 H 0.02581 0.95982 0.37229 0.0
H186 H 0.10336 -0.00746 0.49809 0.0
C187 C 0.04609 0.02662 0.5712 0.0
C188 C 0.93419 0.91726 0.61556 0.0
N189 N 0.94739 0.00437 0.55446 0.0
C190 C 0.95911 0.034 0.58996 0.0
C191 C 0.93725 0.05763 0.5957 0.0
C192 C 0.9027 0.04996 0.56523 0.0
C193 C 0.89285 0.02145 0.52669 0.0
C194 C 0.91589 -0.00143 0.52196 0.0
C195 C 0.08524 0.07325 0.41322 0.0
O196 O 0.96488 0.95188 0.47811 0.0
O197 O 0.98168 0.97046 0.41835 0.0
O198 O 0.03254 0.0143 0.52964 0.0
O199 O 0.03189 0.00865 0.59854 0.0
O200 O 0.922 0.91003 0.57321 0.0
O201 O 0.96576 0.94287 0.63121 0.0
O202 O 0.09356 0.07616 0.45564 0.0
O203 O 0.05437 0.04841 0.39179 0.0
H204 H 0.98342 0.03743 0.61614 0.0
H205 H 0.90678 0.97437 0.4946 0.0
H206 H 0.00387 0.83328 0.50441 0.0
H207 H 0.10631 0.92676 0.55654 0.0
H208 H 0.90266 0.04388 0.3978 0.0
H209 H 0.97667 0.12742 0.51229 0.0
H210 H 0.13941 0.95164 0.47032 0.0
H211 H 0.05709 0.91599 0.34367 0.0
H212 H 0.9451 0.07915 0.62616 0.0
H213 H 0.86592 0.01465 0.50308 0.0
Cd214 Cd 0.47971 0.96961 0.06329 0.0
Cd215 Cd 0.51999 0.00138 0.93069 0.0
C216 C 0.55877 0.9501 0.10922 0.0
N217 N 0.52262 0.9346 0.08366 0.0
C218 C 0.5286 0.87331 0.08153 0.0
C219 C 0.56565 0.88833 0.10854 0.0
C220 C 0.58088 0.92745 0.12173 0.0
C221 C 0.50776 0.89687 0.06934 0.0
H222 H 0.57043 0.98 0.1208 0.0
H223 H 0.47924 0.8848 0.04882 0.0
C224 C 0.4485 0.94297 0.94383 0.0
C225 C 0.45579 0.02904 0.87029 0.0
C226 C 0.43184 0.05024 0.85893 0.0
C227 C 0.42682 0.07736 0.89218 0.0
C228 C 0.44598 0.08137 0.93675 0.0
C229 C 0.46968 0.05955 0.94664 0.0
N230 N 0.47447 0.03412 0.91353 0.0
H231 H 0.45995 0.00888 0.84429 0.0
H232 H 0.48497 0.06357 0.98078 0.0
C233 C 0.5341 0.9196 0.88815 0.0
N234 N 0.55183 0.95573 0.91065 0.0
C235 C 0.61283 0.94826 0.90494 0.0
C236 C 0.59542 0.91134 0.88072 0.0
C237 C 0.5555 0.89674 0.8732 0.0
C238 C 0.59059 0.9698 0.91995 0.0
H239 H 0.50334 0.90871 0.88049 0.0
H240 H 0.60439 -0.00162 0.93789 0.0
C241 C 0.54995 0.03245 0.05221 0.0
C242 C 0.42277 0.92353 0.09382 0.0
N243 N 0.44812 0.01603 0.0758 0.0
C244 C 0.46154 0.04517 0.11209 0.0
C245 C 0.43977 0.0688 0.12226 0.0
C246 C 0.40352 0.06251 0.09511 0.0
C247 C 0.39097 0.03274 0.05719 0.0
C248 C 0.41364 0.00979 0.04831 0.0
C249 C 0.57217 0.05248 0.89984 0.0
O250 O 0.47016 0.95918 0.98188 0.0
O251 O 0.45996 0.95093 0.90919 0.0
O252 O 0.53179 0.01425 0.01307 0.0
O253 O 0.53732 0.02279 0.08557 0.0
O254 O 0.42511 0.91621 0.05294 0.0
O255 O 0.4473 0.95211 0.12029 0.0
O256 O 0.57491 0.05448 0.94177 0.0
O257 O 0.54456 0.02686 0.87284 0.0
H258 H 0.48869 0.04946 0.13406 0.0
H259 H 0.40303 -0.01397 0.02027 0.0
H260 H 0.51565 0.84344 0.06997 0.0
H261 H 0.60914 0.94042 0.14283 0.0
H262 H 0.41739 0.0453 0.82422 0.0
H263 H 0.44367 0.10196 0.96374 0.0
H264 H 0.64348 0.96065 0.91149 0.0
H265 H 0.54089 0.8685 0.85425 0.0
H266 H 0.45113 0.09156 0.15153 0.0
H267 H 0.36318 0.0262 0.03548 0.0
Cd268 Cd 0.98073 0.45974 0.0568 0.0
Cd269 Cd 0.02108 0.49944 0.94121 0.0
C270 C 0.06006 0.43868 0.07449 0.0
N271 N 0.02477 0.42775 0.04729 0.0
C272 C 0.03162 0.369 0.01676 0.0
C273 C 0.06724 0.3785 0.0462 0.0
C274 C 0.082 0.41439 0.07435 0.0
C275 C 0.01064 0.39396 0.01828 0.0
H276 H 0.07026 0.46531 0.09812 0.0
H277 H 0.98203 0.38549 -0.00179 0.0
C278 C 0.9533 0.4295 0.93466 0.0
C279 C 0.93968 0.51614 0.93471 0.0
C280 C 0.9139 0.53588 0.92824 0.0
C281 C 0.92722 0.57397 0.92838 0.0
C282 C 0.96672 0.59193 0.93884 0.0
C283 C 0.99163 0.571 0.94554 0.0
N284 N 0.97773 0.53355 0.94188 0.0
H285 H 0.92891 0.4867 0.93225 0.0
H286 H 0.02204 0.58433 0.95151 0.0
C287 C 0.03969 0.42484 0.89882 0.0
N288 N 0.05045 0.45249 0.93649 0.0
C289 C 0.09943 0.42867 0.96711 0.0
C290 C 0.08856 0.39956 0.92881 0.0
C291 C 0.0581 0.39775 0.89453 0.0
C292 C 0.07973 0.45489 0.97037 0.0
H293 H 0.01733 0.42418 0.87155 0.0
H294 H 0.08816 0.47754 -0.00037 0.0
C295 C 0.04192 0.52967 0.05956 0.0
C296 C 0.94177 0.4093 0.10181 0.0
N297 N 0.94236 0.49945 0.05638 0.0
C298 C 0.95225 0.53102 0.08911 0.0
C299 C 0.9285 0.55345 0.0911 0.0
C300 C 0.89372 0.5429 0.05979 0.0
C301 C 0.88421 0.51023 0.02631 0.0
C302 C 0.9091 0.48884 0.02524 0.0
C303 C 0.07403 0.54947 0.90801 0.0
O304 O 0.96902 0.44633 0.975 0.0
O305 O 0.96618 0.44384 0.90389 0.0
O306 O 0.02794 0.50846 0.02103 0.0
O307 O 0.03174 0.51734 0.09267 0.0
O308 O 0.92947 0.40818 0.06074 0.0
O309 O 0.97184 0.43541 0.12269 0.0
O310 O 0.08097 0.5461 0.94838 0.0
O311 O 0.04248 0.52876 0.88266 0.0
H312 H 0.97805 0.5384 0.11461 0.0
H313 H 0.90149 0.46325 0.0002 0.0
H314 H 0.01928 0.34185 0.99422 0.0
H315 H 0.1091 0.42274 0.09803 0.0
H316 H 0.88368 0.52106 0.92133 0.0
H317 H 0.97824 0.62126 0.93919 0.0
H318 H 0.12282 0.43108 0.99422 0.0
H319 H 0.04941 0.37631 0.86395 0.0
H320 H 0.93654 0.57797 0.11806 0.0
H321 H 0.85763 0.5011 0.00157 0.0
Cd322 Cd 0.46692 0.44623 0.04749 0.0
Cd323 Cd 0.53777 0.52471 0.95817 0.0
C324 C 0.53343 0.41366 0.03537 0.0
N325 N 0.49488 0.40221 0.02753 0.0
C326 C 0.49255 0.3387 0.01928 0.0
C327 C 0.53252 0.34987 0.03176 0.0
C328 C 0.55303 0.38785 0.03779 0.0
C329 C 0.47418 0.36565 0.01888 0.0
H330 H 0.54903 0.44306 0.04372 0.0
H331 H 0.44351 0.35763 0.01436 0.0
C332 C 0.46677 0.45143 0.93041 0.0
C333 C 0.46159 0.54454 0.94477 0.0
C334 C 0.43748 0.56597 0.94034 0.0
C335 C 0.45055 0.60398 0.96135 0.0
C336 C 0.48756 0.61886 0.98846 0.0
C337 C 0.51132 0.59649 0.99062 0.0
N338 N 0.49799 0.56015 0.9686 0.0
H339 H 0.45175 0.51607 0.92636 0.0
H340 H 0.54091 0.60861 0.00775 0.0
C341 C 0.56697 0.45494 0.95575 0.0
N342 N 0.57872 0.49189 0.97491 0.0
C343 C 0.64274 0.49199 -0.00346 0.0
C344 C 0.63186 0.45455 0.97374 0.0
C345 C 0.59318 0.43545 0.95523 0.0
C346 C 0.61534 0.51033 -0.00324 0.0
H347 H 0.5378 0.44114 0.93811 0.0
H348 H 0.6237 0.53985 0.01135 0.0
C349 C 0.54082 0.51492 0.07259 0.0
C350 C 0.42282 0.40623 0.10159 0.0
N351 N 0.4374 0.4902 0.03778 0.0
C352 C 0.452 0.52264 0.06909 0.0
C353 C 0.43616 0.55111 0.06706 0.0
C354 C 0.40407 0.54568 0.03334 0.0
C355 C 0.38977 0.51216 0.00078 0.0
C356 C 0.40738 0.48458 0.00339 0.0
C357 C 0.58611 0.56992 0.91164 0.0
O358 O 0.47622 0.458 0.97289 0.0
O359 O 0.48681 0.47236 0.90942 0.0
O360 O 0.52961 0.50792 0.03036 0.0
O361 O 0.5236 0.49306 0.09467 0.0
O362 O 0.40781 0.40399 0.06075 0.0
O363 O 0.45695 0.42729 0.11655 0.0
O364 O 0.58985 0.57935 0.95404 0.0
O365 O 0.56004 0.53976 0.89137 0.0
H366 H 0.47508 0.52599 0.0968 0.0
H367 H 0.39651 0.45837 0.97895 0.0
H368 H 0.47553 0.30975 0.01333 0.0
H369 H 0.58375 0.39826 0.04838 0.0
H370 H 0.40982 0.55312 0.91788 0.0
H371 H 0.49884 0.64792 0.00558 0.0
H372 H 0.6724 0.50747 0.01106 0.0
H373 H 0.58375 0.40673 0.93676 0.0
H374 H 0.44715 0.576 0.09376 0.0
H375 H 0.36463 0.50699 0.97478 0.0
Cd376 Cd 0.98624 0.46942 0.56532 0.0
Cd377 Cd 0.01084 0.50075 0.42089 0.0
C378 C 0.06077 0.45869 0.63092 0.0
N379 N 0.03348 0.4417 0.59274 0.0
C380 C 0.05339 0.38672 0.58805 0.0
C381 C 0.08141 0.40314 0.62799 0.0
C382 C 0.08513 0.44002 0.64894 0.0
C383 C 0.02978 0.40646 0.57108 0.0
H384 H 0.06316 0.48652 0.64807 0.0
H385 H 0.0076 0.39312 0.54115 0.0
C386 C 0.94977 0.43532 0.4457 0.0
C387 C 0.93443 0.51298 0.36368 0.0
C388 C 0.90999 0.53218 0.34743 0.0
C389 C 0.91408 0.56872 0.36994 0.0
C390 C 0.94201 0.58399 0.41008 0.0
C391 C 0.96589 0.56377 0.42518 0.0
N392 N 0.9622 0.52912 0.40158 0.0
H393 H 0.93218 0.48571 0.34492 0.0
H394 H 0.98857 0.57649 0.45476 0.0
C395 C 0.02254 0.42928 0.35347 0.0
N396 N 0.03959 0.45573 0.39196 0.0
C397 C 0.095 0.43508 0.39841 0.0
C398 C 0.07851 0.4078 0.35831 0.0
C399 C 0.04145 0.40496 0.33614 0.0
C400 C 0.07506 0.45875 0.41457 0.0
H401 H 0.9944 0.4273 0.33581 0.0
H402 H 0.08829 0.48016 0.44488 0.0
C403 C 0.05128 0.5307 0.53992 0.0
C404 C 0.93483 0.41693 0.5943 0.0
N405 N 0.95141 0.5121 0.58327 0.0
C406 C 0.9668 0.54755 0.60864 0.0
C407 C 0.94306 0.56855 0.62123 0.0
C408 C 0.90316 0.5527 0.60829 0.0
C409 C 0.88835 0.51654 0.5811 0.0
C410 C 0.91295 0.49688 0.56875 0.0
C411 C 0.05981 0.55579 0.39242 0.0
O412 O 0.97026 0.45499 0.48317 0.0
O413 O 0.95741 0.44493 0.41005 0.0
O414 O 0.02832 0.51317 0.50298 0.0
O415 O 0.04326 0.52211 0.57593 0.0
O416 O 0.93853 0.41098 0.55377 0.0
O417 O 0.95582 0.44731 0.62102 0.0
O418 O 0.06777 0.55138 0.43232 0.0
O419 O 0.02937 0.53391 0.36593 0.0
H420 H 0.99737 0.55922 0.62024 0.0
H421 H 0.90122 0.46877 0.54858 0.0
H422 H 0.04872 0.35834 0.57072 0.0
H423 H 0.10652 0.45441 0.6793 0.0
H424 H 0.88862 0.51873 0.31679 0.0
H425 H 0.94673 0.61205 0.42855 0.0
H426 H 0.12356 0.43896 0.41657 0.0
H427 H 0.02708 0.38417 0.30553 0.0
H428 H 0.95572 0.59624 0.64246 0.0
H429 H 0.85787 0.50328 0.57002 0.0
Cd430 Cd 0.47428 0.95977 0.54544 0.0
Cd431 Cd 0.52024 0.01602 0.44067 0.0
C432 C 0.55609 0.94516 0.5581 0.0
N433 N 0.51829 0.92707 0.5423 0.0
C434 C 0.52921 0.86798 0.53799 0.0
C435 C 0.56798 0.88623 0.55723 0.0
C436 C 0.58153 0.92523 0.56516 0.0
C437 C 0.50465 0.88918 0.53078 0.0
H438 H 0.5667 0.97505 0.56742 0.0
H439 H 0.47435 0.87547 0.51871 0.0
C440 C 0.45854 0.9381 0.4217 0.0
C441 C 0.44096 0.03204 0.40839 0.0
C442 C 0.41477 0.05193 0.40666 0.0
C443 C 0.41955 0.08203 0.44203 0.0
C444 C 0.44972 0.09061 0.47926 0.0
C445 C 0.47497 0.06968 0.47985 0.0
N446 N 0.47048 0.0414 0.44449 0.0
H447 H 0.43883 0.01042 0.37992 0.0
H448 H 0.49928 0.07719 0.5074 0.0
C449 C 0.54736 0.94884 0.3945 0.0
N450 N 0.55551 0.97366 0.43433 0.0
C451 C 0.6012 0.94631 0.46567 0.0
C452 C 0.59133 0.91891 0.42582 0.0
C453 C 0.56442 0.92076 0.38978 0.0
C454 C 0.58256 0.97347 0.46934 0.0
H455 H 0.52724 0.95056 0.36632 0.0
H456 H 0.5894 -0.00583 0.50021 0.0
C457 C 0.54084 0.03174 0.56048 0.0
C458 C 0.42312 0.90908 0.58107 0.0
N459 N 0.44053 0.00316 0.54441 0.0
C460 C 0.45108 0.03519 0.57658 0.0
C461 C 0.42747 0.05771 0.57866 0.0
C462 C 0.39221 0.04654 0.5483 0.0
C463 C 0.38224 0.01382 0.51498 0.0
C464 C 0.40715 -0.00745 0.51343 0.0
C465 C 0.56082 0.07012 0.4008 0.0
O466 O 0.4665 0.95001 0.464 0.0
O467 O 0.47216 0.96011 0.39776 0.0
O468 O 0.52596 0.01721 0.51946 0.0
O469 O 0.52727 0.01493 0.58912 0.0
O470 O 0.41603 0.91103 0.54023 0.0
O471 O 0.45429 0.93107 0.60582 0.0
O472 O 0.57132 0.07148 0.44243 0.0
O473 O 0.53233 0.043 0.37834 0.0
H474 H 0.4769 0.04266 0.60199 0.0
H475 H 0.39911 0.96665 0.48872 0.0
H476 H 0.51755 0.83792 0.53162 0.0
H477 H 0.61137 0.9404 0.57906 0.0
H478 H 0.39227 0.04523 0.37695 0.0
H479 H 0.45441 0.11397 0.50683 0.0
H480 H 0.6224 0.9462 0.49388 0.0
H481 H 0.55691 0.90085 0.35799 0.0
H482 H 0.43571 0.0825 0.60528 0.0
H483 H 0.35509 0.00435 0.49122 0.0
H484 H 0.20337 0.18723 0.3349 0.0
H485 H 0.12412 0.12374 0.21152 0.0
H486 H 0.08645 0.08428 0.25274 0.0
H487 H 0.07437 0.06867 0.32345 0.0
H488 H 0.15244 0.13085 0.44808 0.0
H489 H 0.1922 0.16955 0.40697 0.0
C490 C 0.17822 0.1644 0.31712 0.0
C491 C 0.16677 0.15839 0.27006 0.0
C492 C 0.15622 0.14168 0.3413 0.0
C493 C 0.13367 0.12903 0.24762 0.0
C494 C 0.11199 0.10642 0.2712 0.0
C495 C 0.10006 0.09068 0.34183 0.0
C496 C 0.1101 0.09695 0.38897 0.0
C497 C 0.12271 0.1127 0.31802 0.0
C498 C 0.14378 0.12548 0.41189 0.0
C499 C 0.16658 0.14763 0.38833 0.0
H500 H 0.80752 0.14424 0.37235 0.0
H501 H 0.90538 0.23196 0.36296 0.0
H502 H 0.94727 0.20833 0.41133 0.0
H503 H 0.95618 0.15735 0.44563 0.0
H504 H 0.85869 0.06667 0.44888 0.0
H505 H 0.81594 0.09745 0.41453 0.0
C506 C 0.83798 0.15844 0.38146 0.0
C507 C 0.85371 0.18918 0.36375 0.0
C508 C 0.86166 0.14431 0.40828 0.0
C509 C 0.89297 0.20783 0.37596 0.0
C510 C 0.9168 0.19442 0.40357 0.0
C511 C 0.92554 0.14518 0.44044 0.0
C512 C 0.91028 0.11011 0.4497 0.0
C513 C 0.90151 0.16198 0.41862 0.0
C514 C 0.87069 0.09387 0.44201 0.0
C515 C 0.84642 0.11122 0.42204 0.0
H516 H 0.81076 0.82003 0.33483 0.0
H517 H 0.86084 0.8397 0.22168 0.0
H518 H 0.91482 0.88965 0.27108 0.0
H519 H 0.94799 0.92557 0.34647 0.0
H520 H 0.89633 0.907 0.45943 0.0
H521 H 0.8412 0.8591 0.40936 0.0
C522 C 0.83276 0.83608 0.32091 0.0
C523 C 0.8317 0.82689 0.27504 0.0
C524 C 0.86311 0.86466 0.34926 0.0
C525 C 0.86097 0.84692 0.25707 0.0
C526 C 0.89183 0.87519 0.28524 0.0
C527 C 0.92461 0.91118 0.36017 0.0
C528 C 0.92614 0.9195 0.40644 0.0
C529 C 0.89326 0.88395 0.33142 0.0
C530 C 0.89582 0.90067 0.42387 0.0
C531 C 0.86435 0.87346 0.39536 0.0
H532 H 0.19033 0.85715 0.2821 0.0
H533 H 0.21807 0.81374 0.39876 0.0
H534 H 0.18412 0.84955 0.43979 0.0
H535 H 0.14211 0.88927 0.43951 0.0
H536 H 0.11647 0.93275 0.32192 0.0
H537 H 0.15353 0.90013 0.28382 0.0
C538 C 0.18931 0.8559 0.31669 0.0
C539 C 0.20613 0.83287 0.33743 0.0
C540 C 0.16958 0.87596 0.33952 0.0
C541 C 0.20507 0.83148 0.38229 0.0
C542 C 0.18555 0.8517 0.40557 0.0
C543 C 0.14504 0.89183 0.40577 0.0
C544 C 0.12578 0.91249 0.38315 0.0
C545 C 0.16697 0.87341 0.3841 0.0
C546 C 0.12994 0.91589 0.33951 0.0
C547 C 0.15146 0.89763 0.3178 0.0
H548 H 0.1779 0.8056 0.60895 0.0
H549 H 0.10922 0.79986 0.70869 0.0
H550 H 0.064 0.82159 0.66301 0.0
H551 H 0.04627 0.84553 0.59759 0.0
H552 H 0.11773 0.85868 0.50152 0.0
H553 H 0.15955 0.82966 0.54222 0.0
C554 C 0.1529 0.80901 0.62041 0.0
C555 C 0.14664 0.80133 0.66189 0.0
C556 C 0.1275 0.82218 0.59439 0.0
C557 C 0.11448 0.80588 0.67685 0.0
C558 C 0.08861 0.81807 0.65073 0.0
C559 C 0.07039 0.84088 0.5849 0.0
C560 C 0.07861 0.85284 0.54619 0.0
C561 C 0.09502 0.82648 0.60971 0.0
C562 C 0.11066 0.84852 0.53073 0.0
C563 C 0.13463 0.83247 0.55426 0.0
H564 H 0.14634 0.17946 0.68551 0.0
H565 H 0.21941 0.11432 0.72006 0.0
H566 H 0.17797 0.06081 0.66077 0.0
H567 H 0.11754 0.03179 0.60509 0.0
H568 H 0.0406 0.09529 0.58142 0.0
H569 H 0.08779 0.15152 0.62877 0.0
C570 C 0.15287 0.15335 0.67996 0.0
C571 C 0.18463 0.14968 0.70694 0.0
C572 C 0.12894 0.12329 0.647 0.0
C573 C 0.19396 0.11657 0.69995 0.0
C574 C 0.17075 0.08649 0.66594 0.0
C575 C 0.11205 0.05842 0.60935 0.0
C576 C 0.07706 0.06061 0.58842 0.0
C577 C 0.13779 0.08942 0.63991 0.0
C578 C 0.06871 0.09424 0.59484 0.0
C579 C 0.09512 0.1259 0.62302 0.0
H580 H 0.79111 0.10262 0.66948 0.0
H581 H 0.79903 0.1785 0.58013 0.0
H582 H 0.83706 0.1472 0.54004 0.0
H583 H 0.87414 0.10246 0.53668 0.0
H584 H 0.86694 0.02898 0.62883 0.0
H585 H 0.82281 0.05537 0.66219 0.0
C586 C 0.80064 0.11192 0.64077 0.0
C587 C 0.79273 0.1428 0.62784 0.0
C588 C 0.82304 0.09456 0.61895 0.0
C589 C 0.80501 0.15467 0.59058 0.0
C590 C 0.82689 0.13698 0.56791 0.0
C591 C 0.86212 0.09195 0.56336 0.0
C592 C 0.87339 0.06412 0.58058 0.0
C593 C 0.83701 0.10756 0.58268 0.0
C594 C 0.85838 0.05062 0.61549 0.0
C595 C 0.83326 0.06562 0.63447 0.0
H596 H 0.86375 0.84759 0.76778 0.0
H597 H 0.78515 0.77114 0.6511 0.0
H598 H 0.81762 0.80611 0.60212 0.0
H599 H 0.86983 0.85701 0.59155 0.0
H600 H 0.95041 0.93253 0.70739 0.0
H601 H 0.91607 0.89955 0.75703 0.0
C602 C 0.8536 0.83885 0.73166 0.0
C603 C 0.82182 0.80686 0.71328 0.0
C604 C 0.87305 0.85881 0.70328 0.0
C605 C 0.80929 0.79576 0.66632 0.0
C606 C 0.82799 0.81567 0.63813 0.0
C607 C 0.87986 0.86633 0.62765 0.0
C608 C 0.91279 0.89717 0.64553 0.0
C609 C 0.86013 0.84701 0.65612 0.0
C610 C 0.92529 0.90877 0.69252 0.0
C611 C 0.90559 0.88993 0.72105 0.0
H612 H 0.28852 0.15773 0.11794 0.0
H613 H 0.33038 0.15927 0.25715 0.0
H614 H 0.37055 0.12288 0.23575 0.0
H615 H 0.39475 0.09003 0.17873 0.0
H616 H 0.35469 0.08684 0.03905 0.0
H617 H 0.31312 0.12336 0.05941 0.0
C618 C 0.30623 0.14992 0.14354 0.0
C619 C 0.30593 0.1617 0.18926 0.0
C620 C 0.32993 0.12838 0.13103 0.0
C621 C 0.32947 0.15108 0.22169 0.0
C622 C 0.3528 0.13007 0.20956 0.0
C623 C 0.37738 0.09764 0.15258 0.0
C624 C 0.37839 0.08564 0.10734 0.0
C625 C 0.35348 0.11867 0.16448 0.0
C626 C 0.35461 0.09526 0.07418 0.0
C627 C 0.33081 0.11639 0.08584 0.0
H628 H 0.8759 0.30036 0.22108 0.0
H629 H 0.78226 0.26172 0.10533 0.0
H630 H 0.81852 0.30453 0.0662 0.0
H631 H 0.87393 0.35658 0.06768 0.0
H632 H 0.96647 0.39777 0.18459 0.0
H633 H 0.93328 0.35018 0.22075 0.0
C634 C 0.86379 0.30069 0.18692 0.0
C635 C 0.82651 0.27812 0.16613 0.0
C636 C 0.88423 0.32621 0.16524 0.0
C637 C 0.81096 0.279 0.12202 0.0
C638 C 0.83152 0.30359 0.09974 0.0
C639 C 0.88693 0.35506 0.10101 0.0
C640 C 0.92226 0.38077 0.12373 0.0
C641 C 0.86767 0.32802 0.12157 0.0
C642 C 0.93894 0.37848 0.16677 0.0
C643 C 0.92012 0.35121 0.18731 0.0
H644 H 0.63092 0.76862 0.1864 0.0
H645 H 0.73364 0.83362 0.15572 0.0
H646 H 0.70008 0.87483 0.1273 0.0
H647 H 0.64133 0.89336 0.11265 0.0
H648 H 0.53806 0.82615 0.14067 0.0
H649 H 0.57153 0.78494 0.16784 0.0
C650 C 0.64572 0.79152 0.17285 0.0
C651 C 0.68461 0.79785 0.17267 0.0
C652 C 0.62604 0.81487 0.15612 0.0
C653 C 0.70358 0.82784 0.15552 0.0
C654 C 0.68441 0.85155 0.13955 0.0
C655 C 0.62617 0.86974 0.12477 0.0
C656 C 0.58703 0.86314 0.12453 0.0
C657 C 0.64563 0.84557 0.13996 0.0
C658 C 0.56796 0.83196 0.13997 0.0
C659 C 0.58717 0.80834 0.15576 0.0
H660 H 0.12916 0.69523 0.14781 0.0
H661 H 0.2242 0.65778 0.12504 0.0
H662 H 0.18086 0.59921 0.07671 0.0
H663 H 0.11577 0.55432 0.05424 0.0
H664 H 0.02124 0.59096 0.08184 0.0
H665 H 0.06392 0.65436 0.11374 0.0
C666 C 0.14024 0.67468 0.13099 0.0
C667 C 0.17948 0.6799 0.14066 0.0
C668 C 0.11506 0.64076 0.1045 0.0
C669 C 0.19385 0.65338 0.11897 0.0
C670 C 0.1691 0.62007 0.09129 0.0
C671 C 0.10463 0.57662 0.06595 0.0
C672 C 0.06581 0.56838 0.0663 0.0
C673 C 0.1296 0.61263 0.08586 0.0
C674 C 0.05126 0.59701 0.0817 0.0
C675 C 0.07564 0.63314 0.10008 0.0
H676 H 0.27849 0.85673 0.86445 0.0
H677 H 0.3231 0.76425 0.86032 0.0
H678 H 0.38359 0.80493 0.90848 0.0
H679 H 0.42742 0.8689 0.93759 0.0
H680 H 0.3841 0.96185 0.93559 0.0
H681 H 0.31936 0.91933 0.90514 0.0
C682 C 0.30106 0.84536 0.87537 0.0
C683 C 0.29702 0.80788 0.85816 0.0
C684 C 0.33615 0.86928 0.90163 0.0
C685 C 0.32625 0.7933 0.8724 0.0
C686 C 0.36075 0.81655 0.89989 0.0
C687 C 0.40344 0.87954 0.93197 0.0
C688 C 0.40995 0.91807 0.93889 0.0
C689 C 0.36671 0.85494 0.91258 0.0
C690 C 0.37922 0.93208 0.9309 0.0
C691 C 0.34237 0.90781 0.9131 0.0
H692 H 0.15202 0.26748 0.86904 0.0
H693 H 0.25831 0.35712 0.9086 0.0
H694 H 0.22558 0.39998 0.9381 0.0
H695 H 0.16549 0.41344 0.94397 0.0
H696 H 0.05902 0.32413 0.90003 0.0
H697 H 0.09297 0.27969 0.88074 0.0
C698 C 0.1682 0.2962 0.88506 0.0
C699 C 0.20755 0.30913 0.8867 0.0
C700 C 0.14898 0.32087 0.90044 0.0
C701 C 0.22803 0.34649 0.90712 0.0
C702 C 0.20926 0.37104 0.92368 0.0
C703 C 0.14985 0.38411 0.93108 0.0
C704 C 0.10977 0.37213 0.92308 0.0
C705 C 0.16956 0.3588 0.91927 0.0
C706 C 0.08983 0.3341 0.90591 0.0
C707 C 0.10923 0.30867 0.89498 0.0
H708 H 0.70687 0.17046 0.85537 0.0
H709 H 0.62722 0.14094 0.72811 0.0
H710 H 0.58089 0.09644 0.75626 0.0
H711 H 0.56329 0.06711 0.81748 0.0
H712 H 0.64367 0.0953 0.94432 0.0
H713 H 0.69021 0.13892 0.91569 0.0
C714 C 0.67937 0.15402 0.83401 0.0
C715 C 0.66995 0.15849 0.79015 0.0
C716 C 0.6534 0.12839 0.85018 0.0
C717 C 0.63471 0.13727 0.76203 0.0
C718 C 0.60835 0.1121 0.7781 0.0
C719 C 0.59104 0.08276 0.83876 0.0
C720 C 0.60013 0.0785 0.8829 0.0
C721 C 0.61742 0.10757 0.82216 0.0
C722 C 0.63604 0.09876 0.91035 0.0
C723 C 0.66261 0.12351 0.89402 0.0
H724 H 0.80172 0.63145 0.83029 0.0
H725 H 0.86388 0.7332 0.92795 0.0
H726 H 0.90611 0.7015 0.96258 0.0
H727 H 0.92714 0.64517 0.96161 0.0
H728 H 0.86678 0.54635 0.85783 0.0
H729 H 0.82221 0.57676 0.82883 0.0
C730 C 0.82415 0.64665 0.85961 0.0
C731 C 0.82956 0.68443 0.87692 0.0
C732 C 0.84887 0.62881 0.87786 0.0
C733 C 0.85915 0.70396 0.91431 0.0
C734 C 0.88333 0.6859 0.93386 0.0
C735 C 0.90417 0.63038 0.93274 0.0
C736 C 0.89996 0.59327 0.91249 0.0
C737 C 0.87885 0.64842 0.91536 0.0
C738 C 0.8701 0.57449 0.87496 0.0
C739 C 0.84469 0.59194 0.85805 0.0
H740 H 0.12341 0.24524 0.09176 0.0
H741 H 0.23281 0.32718 0.1078 0.0
H742 H 0.20188 0.36971 0.07879 0.0
H743 H 0.14342 0.38648 0.05775 0.0
H744 H 0.03415 0.30576 0.04746 0.0
H745 H 0.06512 0.26004 0.06466 0.0
C746 C 0.14045 0.27196 0.08761 0.0
C747 C 0.18027 0.28304 0.10167 0.0
C748 C 0.1224 0.29684 0.07256 0.0
C749 C 0.20205 0.31802 0.09697 0.0
C750 C 0.18437 0.34247 0.08074 0.0
C751 C 0.12642 0.35879 0.05895 0.0
C752 C 0.08651 0.34973 0.05138 0.0
C753 C 0.14451 0.3327 0.06995 0.0
C754 C 0.06488 0.31349 0.0525 0.0
C755 C 0.08259 0.2873 0.06271 0.0
H756 H 0.20808 0.66697 0.86221 0.0
H757 H 0.1145 0.67753 0.76901 0.0
H758 H 0.06948 0.63104 0.79583 0.0
H759 H 0.05715 0.58555 0.84354 0.0
H760 H 0.15072 0.57644 0.93775 0.0
H761 H 0.19563 0.62399 0.91206 0.0
C762 C 0.17783 0.6594 0.84795 0.0
C763 C 0.16468 0.67551 0.81351 0.0
C764 C 0.15225 0.63257 0.86319 0.0
C765 C 0.12536 0.66549 0.79557 0.0
C766 C 0.09962 0.63878 0.81068 0.0
C767 C 0.08742 0.59392 0.85817 0.0
C768 C 0.10089 0.57746 0.89196 0.0
C769 C 0.11284 0.62173 0.84394 0.0
C770 C 0.13993 0.58884 0.91151 0.0
C771 C 0.16551 0.61599 0.89694 0.0
H772 H 0.31677 0.17847 0.8681 0.0
H773 H 0.3529 0.17546 0.74213 0.0
H774 H 0.39249 0.13789 0.76307 0.0
H775 H 0.41737 0.10509 0.81603 0.0
H776 H 0.38118 0.10513 0.94156 0.0
H777 H 0.34233 0.1446 0.92225 0.0
C778 C 0.33352 0.16984 0.84542 0.0
C779 C 0.33139 0.18011 0.80337 0.0
C780 C 0.35658 0.14746 0.85755 0.0
C781 C 0.35336 0.16815 0.77454 0.0
C782 C 0.37628 0.14649 0.78648 0.0
C783 C 0.40071 0.1132 0.83915 0.0
C784 C 0.40252 0.10162 0.88029 0.0
C785 C 0.37799 0.1357 0.82767 0.0
C786 C 0.38107 0.11363 0.90986 0.0
C787 C 0.3585 0.13619 0.89869 0.0
H788 H 0.79521 0.31126 0.84858 0.0
H789 H 0.86421 0.23805 0.8417 0.0
H790 H 0.91957 0.28875 0.88806 0.0
H791 H 0.95021 0.35681 0.91843 0.0
H792 H 0.88011 0.42912 0.92287 0.0
H793 H 0.82311 0.37591 0.88992 0.0
C794 C 0.82201 0.30602 0.85852 0.0
C795 C 0.82576 0.27118 0.84144 0.0
C796 C 0.85364 0.33541 0.88408 0.0
C797 C 0.86066 0.26471 0.85442 0.0
C798 C 0.89239 0.29381 0.88052 0.0
C799 C 0.92227 0.36055 0.91336 0.0
C800 C 0.91913 0.39663 0.92319 0.0
C801 C 0.88958 0.32974 0.89371 0.0
C802 C 0.88306 0.40153 0.91593 0.0
C803 C 0.8505 0.37114 0.89686 0.0
H804 H 0.70185 0.84237 0.77608 0.0
H805 H 0.67684 0.7625 0.85897 0.0
H806 H 0.63617 0.79481 0.89195 0.0
H807 H 0.60702 0.84618 0.89705 0.0
H808 H 0.63722 0.929 0.81903 0.0
H809 H 0.67636 0.89565 0.78473 0.0
C810 C 0.68776 0.83228 0.80169 0.0
C811 C 0.69261 0.80013 0.81518 0.0
C812 C 0.66512 0.85162 0.82136 0.0
C813 C 0.67412 0.78745 0.84843 0.0
C814 C 0.6506 0.80582 0.8671 0.0
C815 C 0.62211 0.85676 0.87244 0.0
C816 C 0.61881 0.88988 0.86024 0.0
C817 C 0.64573 0.83793 0.85379 0.0
C818 C 0.63908 0.90354 0.82881 0.0
C819 C 0.66153 0.88447 0.80921 0.0
H820 H 0.76454 0.61151 0.10209 0.0
H821 H 0.85491 0.71352 0.11445 0.0
H822 H 0.8959 0.67807 0.09021 0.0
H823 H 0.90833 0.61806 0.07242 0.0
H824 H 0.81791 0.51582 0.05828 0.0
H825 H 0.77465 0.55116 0.07539 0.0
C826 C 0.79289 0.62591 0.09847 0.0
C827 C 0.80668 0.66508 0.11027 0.0
C828 C 0.8165 0.60527 0.08454 0.0
C829 C 0.84353 0.68338 0.1055 0.0
C830 C 0.86714 0.66312 0.09191 0.0
C831 C 0.87904 0.60357 0.0727 0.0
C832 C 0.86646 0.5644 0.06454 0.0
C833 C 0.85431 0.62407 0.08251 0.0
C834 C 0.82827 0.54595 0.06433 0.0
C835 C 0.80357 0.56616 0.07438 0.0
H836 H 0.30258 0.84086 0.19145 0.0
H837 H 0.34115 0.74915 0.13998 0.0
H838 H 0.38204 0.78865 0.10131 0.0
H839 H 0.40893 0.85011 0.08509 0.0
H840 H 0.37357 0.94256 0.14068 0.0
H841 H 0.32839 0.90169 0.17418 0.0
C842 C 0.31977 0.82948 0.17156 0.0
C843 C 0.31889 0.79228 0.16842 0.0
C844 C 0.34345 0.85237 0.14999 0.0
C845 C 0.34113 0.77771 0.14246 0.0
C846 C 0.36459 0.80026 0.1205 0.0
C847 C 0.39087 0.86094 0.10413 0.0
C848 C 0.39397 0.89878 0.11067 0.0
C849 C 0.36616 0.83766 0.12435 0.0
C850 C 0.3713 0.91326 0.13573 0.0
C851 C 0.34568 0.89002 0.15478 0.0
H852 H 0.67297 0.18122 0.14769 0.0
H853 H 0.74304 0.10895 0.15011 0.0
H854 H 0.69143 0.05857 0.09741 0.0
H855 H 0.62261 0.03227 0.06283 0.0
H856 H 0.55245 0.10441 0.06305 0.0
H857 H 0.60796 0.15814 0.10153 0.0
C858 C 0.67711 0.15467 0.1359 0.0
C859 C 0.71117 0.14834 0.15341 0.0
C860 C 0.64724 0.12591 0.10616 0.0
C861 C 0.71677 0.1142 0.13737 0.0
C862 C 0.68724 0.08539 0.10741 0.0
C863 C 0.62002 0.06008 0.06978 0.0
C864 C 0.58394 0.06481 0.06021 0.0
C865 C 0.6518 0.09046 0.09322 0.0
C866 C 0.58027 0.10056 0.06986 0.0
C867 C 0.61185 0.13108 0.09226 0.0
H868 H 0.69893 0.68715 0.83309 0.0
H869 H 0.63881 0.60774 0.7093 0.0
H870 H 0.60123 0.5677 0.7506 0.0
H871 H 0.58384 0.55621 0.82165 0.0
H872 H 0.64381 0.63573 0.94554 0.0
H873 H 0.68299 0.67459 0.90453 0.0
C874 C 0.67778 0.66096 0.8152 0.0
C875 C 0.67162 0.65053 0.76811 0.0
C876 C 0.65608 0.63813 0.8392 0.0
C877 C 0.64412 0.61647 0.74547 0.0
C878 C 0.62254 0.59358 0.7691 0.0
C879 C 0.60554 0.58199 0.83977 0.0
C880 C 0.61064 0.59304 0.88672 0.0
C881 C 0.62799 0.60429 0.81592 0.0
C882 C 0.63906 0.62653 0.90949 0.0
C883 C 0.66153 0.6488 0.88602 0.0
H884 H 0.38326 0.70571 0.85795 0.0
H885 H 0.28106 0.61327 0.83946 0.0
H886 H 0.314 0.58679 0.89402 0.0
H887 H 0.37312 0.58736 0.94131 0.0
H888 H 0.47718 0.67568 0.95065 0.0
H889 H 0.44153 0.70792 0.90859 0.0
C890 C 0.36827 0.67977 0.86594 0.0
C891 C 0.33024 0.66095 0.84431 0.0
C892 C 0.38745 0.66454 0.89664 0.0
C893 C 0.3107 0.62777 0.85528 0.0
C894 C 0.32938 0.61283 0.88667 0.0
C895 C 0.3881 0.61367 0.93419 0.0
C896 C 0.428 0.62833 0.9481 0.0
C897 C 0.36799 0.6306 0.90676 0.0
C898 C 0.44655 0.66345 0.94055 0.0
C899 C 0.42627 0.6817 0.91564 0.0
H900 H 0.34284 0.30139 0.83434 0.0
H901 H 0.3221 0.36626 0.737 0.0
H902 H 0.36716 0.42281 0.78815 0.0
H903 H 0.41824 0.45112 0.85609 0.0
H904 H 0.44076 0.3844 0.94976 0.0
H905 H 0.38917 0.33042 0.90431 0.0
C906 C 0.34785 0.32801 0.82455 0.0
C907 C 0.33013 0.33006 0.78207 0.0
C908 C 0.37435 0.35956 0.8531 0.0
C909 C 0.33636 0.36441 0.76951 0.0
C910 C 0.36195 0.3965 0.7986 0.0
C911 C 0.41142 0.42476 0.86651 0.0
C912 C 0.43313 0.421 0.90576 0.0
C913 C 0.38213 0.39402 0.83971 0.0
C914 C 0.42402 0.38737 0.91979 0.0
C915 C 0.39475 0.35668 0.89369 0.0
H916 H 0.73168 0.39305 0.85899 0.0
H917 H 0.6775 0.29284 0.90023 0.0
H918 H 0.65039 0.32782 0.95219 0.0
H919 H 0.63542 0.38534 0.97769 0.0
H920 H 0.69063 0.48567 0.93723 0.0
H921 H 0.72534 0.45268 0.89457 0.0
C922 C 0.7145 0.3792 0.88003 0.0
C923 C 0.70596 0.34067 0.87564 0.0
C924 C 0.69948 0.39951 0.91011 0.0
C925 C 0.68421 0.32268 0.90324 0.0
C926 C 0.66866 0.34257 0.93279 0.0
C927 C 0.65595 0.4001 0.96063 0.0
C928 C 0.66038 0.43765 0.9603 0.0
C929 C 0.67521 0.3808 0.93547 0.0
C930 C 0.68706 0.45676 0.93826 0.0
C931 C 0.7065 0.43782 0.91333 0.0
H932 H 0.60317 0.25369 0.14305 0.0
H933 H 0.7044 0.31759 0.10776 0.0
H934 H 0.66594 0.34174 0.05594 0.0
H935 H 0.60457 0.34924 0.027 0.0
H936 H 0.50523 0.29246 0.07234 0.0
H937 H 0.54142 0.25929 0.1115 0.0
C938 C 0.61663 0.27254 0.12354 0.0
C939 C 0.65626 0.28425 0.12921 0.0
C940 C 0.5946 0.28718 0.09513 0.0
C941 C 0.67374 0.30861 0.104 0.0
C942 C 0.65183 0.32231 0.07438 0.0
C943 C 0.59073 0.3296 0.04531 0.0
C944 C 0.55225 0.32389 0.0468 0.0
C945 C 0.61234 0.31253 0.07066 0.0
C946 C 0.53459 0.29728 0.06966 0.0
C947 C 0.55545 0.27862 0.09291 0.0
H948 H 0.63954 0.67531 0.17495 0.0
H949 H 0.70437 0.6144 0.24061 0.0
H950 H 0.66282 0.55561 0.19008 0.0
H951 H 0.60574 0.52198 0.12988 0.0
H952 H 0.53789 0.5833 0.07119 0.0
H953 H 0.58301 0.64221 0.11598 0.0
C954 C 0.64443 0.64903 0.17794 0.0
C955 C 0.67426 0.64839 0.21093 0.0
C956 C 0.62017 0.61592 0.1499 0.0
C957 C 0.68083 0.61477 0.21541 0.0
C958 C 0.65736 0.58148 0.18655 0.0
C959 C 0.60157 0.54846 0.12665 0.0
C960 C 0.57007 0.54926 0.09616 0.0
C961 C 0.62668 0.58175 0.15404 0.0
C962 C 0.56361 0.58302 0.09252 0.0
C963 C 0.58882 0.61635 0.1188 0.0
H964 H 0.35642 0.6678 0.13809 0.0
H965 H 0.25983 0.57296 0.13258 0.0
H966 H 0.27959 0.53519 0.07474 0.0
H967 H 0.33046 0.52713 0.03717 0.0
H968 H 0.42882 0.62147 0.04707 0.0
H969 H 0.40115 0.66235 0.09002 0.0
C970 C 0.33965 0.63888 0.12404 0.0
C971 C 0.30772 0.62246 0.14042 0.0
C972 C 0.3511 0.61768 0.0911 0.0
C973 C 0.28524 0.58557 0.12109 0.0
C974 C 0.29633 0.56419 0.08791 0.0
C975 C 0.34493 0.55693 0.04689 0.0
C976 C 0.38166 0.57137 0.03957 0.0
C977 C 0.32999 0.57965 0.07396 0.0
C978 C 0.40041 0.60993 0.05241 0.0
C979 C 0.38496 0.63311 0.07767 0.0
H980 H 0.36628 0.30057 0.23021 0.0
H981 H 0.27142 0.34349 0.21133 0.0
H982 H 0.30016 0.38044 0.16074 0.0
H983 H 0.35258 0.39988 0.12076 0.0
H984 H 0.45035 0.36176 0.14704 0.0
H985 H 0.4206 0.32378 0.19568 0.0
C986 C 0.35219 0.31833 0.21525 0.0
C987 C 0.31659 0.31894 0.22363 0.0
C988 C 0.36942 0.34019 0.1873 0.0
C989 C 0.29863 0.34224 0.20464 0.0
C990 C 0.31508 0.36335 0.17577 0.0
C991 C 0.3671 0.38305 0.13704 0.0
C992 C 0.40332 0.38309 0.12993 0.0
C993 C 0.35034 0.36228 0.16643 0.0
C994 C 0.42235 0.3619 0.1519 0.0
C995 C 0.40539 0.34025 0.17975 0.0
H996 H 0.78081 0.61096 0.69357 0.0
H997 H 0.83285 0.70839 0.6462 0.0
H998 H 0.87679 0.67825 0.61722 0.0
H999 H 0.90136 0.624 0.60639 0.0
H1000 H 0.84523 0.52484 0.64841 0.0
H1001 H 0.80196 0.55529 0.67764 0.0
C1002 C 0.80144 0.62529 0.67631 0.0
C1003 C 0.80338 0.6617 0.67166 0.0
C1004 C 0.82605 0.60739 0.65878 0.0
C1005 C 0.83039 0.6801 0.64948 0.0
C1006 C 0.85571 0.66295 0.6332 0.0
C1007 C 0.87967 0.60915 0.62201 0.0
C1008 C 0.87683 0.57218 0.62542 0.0
C1009 C 0.85402 0.62662 0.63785 0.0
C1010 C 0.84813 0.55321 0.64523 0.0
C1011 C 0.82335 0.57066 0.66208 0.0
H1012 H 0.28699 0.80003 0.63473 0.0
H1013 H 0.37866 0.79482 0.73515 0.0
H1014 H 0.42499 0.83726 0.70477 0.0
H1015 H 0.43884 0.87792 0.65143 0.0
H1016 H 0.34685 0.88057 0.5495 0.0
H1017 H 0.301 0.83722 0.57907 0.0
C1018 C 0.31713 0.80804 0.64986 0.0
C1019 C 0.32943 0.7946 0.68723 0.0
C1020 C 0.34341 0.8322 0.63223 0.0
C1021 C 0.36857 0.80474 0.70617 0.0
C1022 C 0.395 0.82917 0.68904 0.0
C1023 C 0.40873 0.86895 0.63585 0.0
C1024 C 0.39602 0.88252 0.59875 0.0
C1025 C 0.38266 0.84346 0.65245 0.0
C1026 C 0.35714 0.8704 0.57819 0.0
C1027 C 0.33096 0.84568 0.59504 0.0
H1028 H 0.18138 0.32637 0.74427 0.0
H1029 H 0.18247 0.26954 0.61214 0.0
H1030 H 0.14343 0.3036 0.57817 0.0
H1031 H 0.10971 0.35059 0.58535 0.0
H1032 H 0.10738 0.4064 0.71751 0.0
H1033 H 0.14632 0.37233 0.75141 0.0
C1034 C 0.17309 0.32131 0.70802 0.0
C1035 C 0.18525 0.29524 0.68105 0.0
C1036 C 0.15048 0.34121 0.6884 0.0
C1037 C 0.1739 0.28933 0.63406 0.0
C1038 C 0.15145 0.30891 0.61445 0.0
C1039 C 0.11733 0.3552 0.62159 0.0
C1040 C 0.10551 0.38166 0.64848 0.0
C1041 C 0.13964 0.33505 0.64121 0.0
C1042 C 0.11644 0.38711 0.69551 0.0
C1043 C 0.13858 0.36728 0.71514 0.0
H1044 H 0.68836 0.16722 0.64812 0.0
H1045 H 0.60268 0.22107 0.66402 0.0
H1046 H 0.55327 0.16574 0.61769 0.0
H1047 H 0.5332 0.09918 0.58364 0.0
H1048 H 0.61709 0.04275 0.57198 0.0
H1049 H 0.66844 0.10132 0.60691 0.0
C1050 C 0.65892 0.16685 0.64104 0.0
C1051 C 0.64889 0.19771 0.66036 0.0
C1052 C 0.63033 0.13419 0.61606 0.0
C1053 C 0.61085 0.19728 0.6502 0.0
C1054 C 0.58258 0.16564 0.62388 0.0
C1055 C 0.56279 0.10008 0.58763 0.0
C1056 C 0.57168 0.06725 0.57496 0.0
C1057 C 0.59177 0.13348 0.60833 0.0
C1058 C 0.60991 0.06811 0.58112 0.0
C1059 C 0.63914 0.10148 0.60122 0.0
H1060 H 0.83057 0.28775 0.34899 0.0
H1061 H 0.75929 0.35882 0.34857 0.0
H1062 H 0.80908 0.4078 0.40515 0.0
H1063 H 0.87745 0.4344 0.44067 0.0
H1064 H 0.94934 0.36399 0.43757 0.0
H1065 H 0.89455 0.31005 0.39781 0.0
C1066 C 0.82577 0.31367 0.36202 0.0
C1067 C 0.7921 0.32032 0.34382 0.0
C1068 C 0.85464 0.34166 0.39397 0.0
C1069 C 0.78543 0.35349 0.36165 0.0
C1070 C 0.81389 0.38147 0.3939 0.0
C1071 C 0.88054 0.40681 0.43313 0.0
C1072 C 0.91694 0.40276 0.44175 0.0
C1073 C 0.84929 0.37652 0.40847 0.0
C1074 C 0.92126 0.36732 0.43147 0.0
C1075 C 0.8901 0.33671 0.40816 0.0
H1076 H 0.63992 0.77781 0.36231 0.0
H1077 H 0.75159 0.85915 0.40643 0.0
H1078 H 0.72391 0.9058 0.43802 0.0
H1079 H 0.66698 0.92561 0.44363 0.0
H1080 H 0.55537 0.84459 0.39595 0.0
H1081 H 0.58385 0.79566 0.37566 0.0
C1082 C 0.65828 0.80552 0.37972 0.0
C1083 C 0.69768 0.81514 0.38175 0.0
C1084 C 0.64204 0.83242 0.39665 0.0
C1085 C 0.72114 0.85112 0.40438 0.0
C1086 C 0.70529 0.87786 0.4222 0.0
C1087 C 0.64903 0.89707 0.42968 0.0
C1088 C 0.60917 0.88875 0.42067 0.0
C1089 C 0.66564 0.8692 0.41713 0.0
C1090 C 0.58614 0.85171 0.40248 0.0
C1091 C 0.6024 0.82374 0.39091 0.0
H1092 H 0.14706 0.67369 0.29763 0.0
H1093 H 0.23847 0.63196 0.34492 0.0
H1094 H 0.19761 0.59285 0.38464 0.0
H1095 H 0.13481 0.56853 0.4021 0.0
H1096 H 0.04159 0.60454 0.34614 0.0
H1097 H 0.08434 0.64872 0.3137 0.0
C1098 C 0.15799 0.65621 0.31702 0.0
C1099 C 0.19538 0.6555 0.319 0.0
C1100 C 0.1341 0.6331 0.33799 0.0
C1101 C 0.20949 0.63251 0.34321 0.0
C1102 C 0.18629 0.6104 0.36586 0.0
C1103 C 0.12426 0.58652 0.38325 0.0
C1104 C 0.08571 0.58403 0.37646 0.0
C1105 C 0.14846 0.61023 0.36304 0.0
C1106 C 0.07149 0.60651 0.35148 0.0
C1107 C 0.09577 0.63152 0.33301 0.0
H1108 H 0.29454 0.15987 0.39786 0.0
H1109 H 0.39298 0.24498 0.38478 0.0
H1110 H 0.43442 0.21021 0.41153 0.0
H1111 H 0.44204 0.15257 0.43123 0.0
H1112 H 0.34388 0.06606 0.44138 0.0
H1113 H 0.30301 0.10457 0.42433 0.0
C1114 C 0.32515 0.17119 0.40197 0.0
C1115 C 0.34067 0.20497 0.38942 0.0
C1116 C 0.34882 0.15064 0.41665 0.0
C1117 C 0.38035 0.21919 0.39454 0.0
C1118 C 0.40407 0.19919 0.40954 0.0
C1119 C 0.41178 0.14258 0.43045 0.0
C1120 C 0.39573 0.10674 0.4374 0.0
C1121 C 0.38854 0.16447 0.41958 0.0
C1122 C 0.35655 0.09361 0.43584 0.0
C1123 C 0.3333 0.11557 0.42608 0.0
H1124 H 0.68426 0.82409 0.66432 0.0
H1125 H 0.63905 0.73101 0.55066 0.0
H1126 H 0.59802 0.76357 0.51509 0.0
H1127 H 0.57438 0.81871 0.51837 0.0
H1128 H 0.61723 0.90737 0.63768 0.0
H1129 H 0.65975 0.87609 0.66919 0.0
C1130 C 0.66579 0.811 0.63144 0.0
C1131 C 0.66498 0.77563 0.60963 0.0
C1132 C 0.64174 0.82906 0.61248 0.0
C1133 C 0.64021 0.7585 0.56774 0.0
C1134 C 0.61678 0.77704 0.54762 0.0
C1135 C 0.59306 0.83104 0.55121 0.0
C1136 C 0.59333 0.86585 0.57505 0.0
C1137 C 0.6171 0.81232 0.56995 0.0
C1138 C 0.61739 0.88134 0.61783 0.0
C1139 C 0.64154 0.86334 0.63615 0.0
H1140 H 0.62943 0.1724 0.27646 0.0
H1141 H 0.72428 0.211 0.39075 0.0
H1142 H 0.68693 0.17194 0.43284 0.0
H1143 H 0.62964 0.12244 0.43438 0.0
H1144 H 0.5364 0.08129 0.31825 0.0
H1145 H 0.57083 0.12586 0.27967 0.0
C1146 C 0.64162 0.17289 0.31091 0.0
C1147 C 0.67947 0.19434 0.33044 0.0
C1148 C 0.62049 0.14954 0.33435 0.0
C1149 C 0.69513 0.19449 0.37495 0.0
C1150 C 0.6739 0.17209 0.39898 0.0
C1151 C 0.61677 0.12353 0.40081 0.0
C1152 C 0.58083 0.09851 0.37898 0.0
C1153 C 0.63694 0.14874 0.37854 0.0
C1154 C 0.56434 0.10008 0.3355 0.0
C1155 C 0.5839 0.1256 0.31347 0.0
H1156 H 0.82341 0.65157 0.25295 0.0
H1157 H 0.81268 0.70292 0.38317 0.0
H1158 H 0.84883 0.66671 0.41854 0.0
H1159 H 0.8835 0.61973 0.41244 0.0
H1160 H 0.89394 0.56978 0.28129 0.0
H1161 H 0.85781 0.60577 0.24686 0.0
C1162 C 0.82889 0.65505 0.28913 0.0
C1163 C 0.81512 0.68026 0.31515 0.0
C1164 C 0.84965 0.63404 0.3093 0.0
C1165 C 0.82278 0.68395 0.36204 0.0
C1166 C 0.84352 0.66314 0.38237 0.0
C1167 C 0.87804 0.61677 0.37634 0.0
C1168 C 0.89134 0.59136 0.34973 0.0
C1169 C 0.85715 0.63801 0.35635 0.0
C1170 C 0.88355 0.58815 0.30289 0.0
C1171 C 0.86305 0.60907 0.28301 0.0
H1172 H 0.37696 0.78088 0.29511 0.0
H1173 H 0.30994 0.76914 0.39559 0.0
H1174 H 0.35259 0.82894 0.44318 0.0
H1175 H 0.40445 0.88826 0.45061 0.0
H1176 H 0.46575 0.90002 0.3442 0.0
H1177 H 0.43003 0.83674 0.30444 0.0
C1178 C 0.37251 0.79103 0.32809 0.0
C1179 C 0.34116 0.77091 0.34252 0.0
C1180 C 0.39569 0.82582 0.35364 0.0
C1181 C 0.33463 0.78423 0.38457 0.0
C1182 C 0.35866 0.81852 0.41133 0.0
C1183 C 0.41013 0.87665 0.41903 0.0
C1184 C 0.43737 0.89889 0.40016 0.0
C1185 C 0.38857 0.8402 0.39543 0.0
C1186 C 0.44453 0.8837 0.35914 0.0
C1187 C 0.42427 0.84741 0.33639 0.0
H1188 H 0.15925 0.30996 0.24618 0.0
H1189 H 0.21004 0.30384 0.37911 0.0
H1190 H 0.17436 0.34206 0.41168 0.0
H1191 H 0.12829 0.37724 0.40275 0.0
H1192 H 0.07837 0.38373 0.26961 0.0
H1193 H 0.11357 0.34513 0.23728 0.0
C1194 C 0.16265 0.31692 0.28232 0.0
C1195 C 0.18761 0.30383 0.30996 0.0
C1196 C 0.14187 0.33896 0.30101 0.0
C1197 C 0.19124 0.31333 0.35676 0.0
C1198 C 0.17075 0.33528 0.37552 0.0
C1199 C 0.12523 0.3705 0.36666 0.0
C1200 C 0.10023 0.38354 0.3389 0.0
C1201 C 0.14596 0.34832 0.34802 0.0
C1202 C 0.0966 0.3738 0.29209 0.0
C1203 C 0.11706 0.35185 0.27344 0.0
H1204 H 0.26807 0.11446 0.60692 0.0
H1205 H 0.34666 0.21437 0.58868 0.0
H1206 H 0.38522 0.17808 0.55888 0.0
H1207 H 0.40084 0.11917 0.54721 0.0
H1208 H 0.32221 0.01934 0.56515 0.0
H1209 H 0.27956 0.05428 0.58628 0.0
C1210 C 0.29313 0.12814 0.59541 0.0
C1211 C 0.30467 0.16705 0.60024 0.0
C1212 C 0.31555 0.10719 0.57911 0.0
C1213 C 0.33725 0.18443 0.58533 0.0
C1214 C 0.35948 0.16375 0.56864 0.0
C1215 C 0.37402 0.1051 0.555 0.0
C1216 C 0.36453 0.06691 0.55475 0.0
C1217 C 0.34961 0.12534 0.56685 0.0
C1218 C 0.3298 0.04874 0.56483 0.0
C1219 C 0.30554 0.06872 0.57707 0.0
H1220 H 0.81717 0.28413 0.63855 0.0
H1221 H 0.81147 0.37313 0.74045 0.0
H1222 H 0.85743 0.41839 0.71303 0.0
H1223 H 0.90071 0.43185 0.66195 0.0
H1224 H 0.90542 0.34252 0.56007 0.0
H1225 H 0.85826 0.29761 0.58637 0.0
C1226 C 0.82585 0.31342 0.65488 0.0
C1227 C 0.81122 0.32529 0.69167 0.0
C1228 C 0.85221 0.33896 0.63928 0.0
C1229 C 0.82238 0.36336 0.71201 0.0
C1230 C 0.84874 0.38917 0.69654 0.0
C1231 C 0.89142 0.4025 0.64571 0.0
C1232 C 0.90644 0.39015 0.60958 0.0
C1233 C 0.86413 0.37713 0.66058 0.0
C1234 C 0.89399 0.35237 0.58802 0.0
C1235 C 0.86716 0.32682 0.603 0.0
H1236 H 0.21797 0.62388 0.6191 0.0
H1237 H 0.16198 0.70552 0.65437 0.0
H1238 H 0.10378 0.66707 0.60113 0.0
H1239 H 0.06495 0.60434 0.55988 0.0
H1240 H 0.11816 0.5197 0.5301 0.0
H1241 H 0.1811 0.56483 0.56468 0.0
C1242 C 0.19337 0.63365 0.61391 0.0
C1243 C 0.19401 0.66721 0.64095 0.0
C1244 C 0.1592 0.61042 0.58459 0.0
C1245 C 0.16206 0.67971 0.63405 0.0
C1246 C 0.12862 0.65758 0.6038 0.0
C1247 C 0.0906 0.59643 0.55918 0.0
C1248 C 0.08738 0.55918 0.54261 0.0
C1249 C 0.12622 0.62201 0.58101 0.0
C1250 C 0.12037 0.54859 0.54234 0.0
C1251 C 0.15623 0.57425 0.56267 0.0
loop_
_geom_bond_atom_site_label_1
_geom_bond_atom_site_label_2
_geom_bond_distance
_geom_bond_site_symmetry_2
_ccdc_geom_bond_type
Dy0 O4 2.398 . S
Dy0 O5 2.491 . S
Dy0 O6 2.403 . S
Dy0 O7 2.664 . S
Dy0 O11 2.326 . S
Dy0 O15 2.310 . S
Dy0 O16 2.351 . S
C1 O12 1.185 . S
C1 O13 1.355 . S
C2 O4 1.185 . S
C2 O5 1.355 . S
Dy3 O7 2.310 . S
Dy3 O10 2.351 . S
Dy3 O12 2.398 . S
Dy3 O13 2.491 . S
Dy3 O14 2.403 . S
Dy3 O15 2.664 . S
Dy3 O17 2.326 . S
O4 Dy0 2.398 . S
O4 C2 1.185 . S
O5 Dy0 2.491 . S
O5 C2 1.355 . S
O6 Dy0 2.403 . S
O6 C8 1.254 . S
O7 Dy0 2.664 . S
O7 Dy3 2.310 . S
O7 C8 1.268 . S
C8 O6 1.254 . S
C8 O7 1.268 . S
C9 O14 1.254 . S
C9 O15 1.268 . S
O10 Dy3 2.351 . S
O10 C18 1.249 . S
O11 Dy0 2.326 . S
O11 C18 1.267 . S
O12 C1 1.185 . S
O12 Dy3 2.398 . S
O13 C1 1.355 . S
O13 Dy3 2.491 . S
O14 Dy3 2.403 . S
O14 C9 1.254 . S
O15 Dy0 2.310 . S
O15 Dy3 2.664 . S
O15 C9 1.268 . S
O16 Dy0 2.351 . S
O16 C19 1.249 . S
O17 Dy3 2.326 . S
O17 C19 1.267 . S
C18 O10 1.249 . S
C18 O11 1.267 . S
C19 O16 1.249 . S
C19 O17 1.267 . S
Dy20 O24 2.398 . S
Dy20 O25 2.491 . S
Dy20 O26 2.403 . S
Dy20 O27 2.664 . S
Dy20 O31 2.326 . S
Dy20 O35 2.310 . S
Dy20 O36 2.351 . S
C21 O32 1.185 . S
C21 O33 1.355 . S
C22 O24 1.185 . S
C22 O25 1.355 . S
Dy23 O27 2.310 . S
Dy23 O30 2.351 . S
Dy23 O32 2.398 . S
Dy23 O33 2.491 . S
Dy23 O34 2.403 . S
Dy23 O35 2.664 . S
Dy23 O37 2.326 . S
O24 Dy20 2.398 . S
O24 C22 1.185 . S
O25 Dy20 2.491 . S
O25 C22 1.355 . S
O26 Dy20 2.403 . S
O26 C28 1.254 . S
O27 Dy20 2.664 . S
O27 Dy23 2.310 . S
O27 C28 1.268 . S
C28 O26 1.254 . S
C28 O27 1.268 . S
C29 O34 1.254 . S
C29 O35 1.268 . S
O30 Dy23 2.351 . S
O30 C38 1.249 . S
O31 Dy20 2.326 . S
O31 C38 1.267 . S
O32 C21 1.185 . S
O32 Dy23 2.398 . S
O33 C21 1.355 . S
O33 Dy23 2.491 . S
O34 Dy23 2.403 . S
O34 C29 1.254 . S
O35 Dy20 2.310 . S
O35 Dy23 2.664 . S
O35 C29 1.268 . S
O36 Dy20 2.351 . S
O36 C39 1.249 . S
O37 Dy23 2.326 . S
O37 C39 1.267 . S
C38 O30 1.249 . S
C38 O31 1.267 . S
C39 O36 1.249 . S
C39 O37 1.267 . S
Dy40 O44 2.398 . S
Dy40 O45 2.491 . S
Dy40 O46 2.403 . S
Dy40 O47 2.664 . S
Dy40 O51 2.326 . S
Dy40 O55 2.310 . S
Dy40 O56 2.351 . S
C41 O52 1.185 . S
C41 O53 1.355 . S
C42 O44 1.185 . S
C42 O45 1.355 . S
Dy43 O47 2.310 . S
Dy43 O50 2.351 . S
Dy43 O52 2.398 . S
Dy43 O53 2.491 . S
Dy43 O54 2.403 . S
Dy43 O55 2.664 . S
Dy43 O57 2.326 . S
O44 Dy40 2.398 . S
O44 C42 1.185 . S
O45 Dy40 2.491 . S
O45 C42 1.355 . S
O46 Dy40 2.403 . S
O46 C48 1.254 . S
O47 Dy40 2.664 . S
O47 Dy43 2.310 . S
O47 C48 1.268 . S
C48 O46 1.254 . S
C48 O47 1.268 . S
C49 O54 1.254 . S
C49 O55 1.268 . S
O50 Dy43 2.351 . S
O50 C58 1.249 . S
O51 Dy40 2.326 . S
O51 C58 1.267 . S
O52 C41 1.185 . S
O52 Dy43 2.398 . S
O53 C41 1.355 . S
O53 Dy43 2.491 . S
O54 Dy43 2.403 . S
O54 C49 1.254 . S
O55 Dy40 2.310 . S
O55 Dy43 2.664 . S
O55 C49 1.268 . S
O56 Dy40 2.351 . S
O56 C59 1.249 . S
O57 Dy43 2.326 . S
O57 C59 1.267 . S
C58 O50 1.249 . S
C58 O51 1.267 . S
C59 O56 1.249 . S
C59 O57 1.267 . S
Dy60 O64 2.398 . S
Dy60 O65 2.491 . S
Dy60 O66 2.403 . S
Dy60 O67 2.664 . S
Dy60 O71 2.326 . S
Dy60 O75 2.310 . S
Dy60 O76 2.351 . S
C61 O72 1.185 . S
C61 O73 1.355 . S
C62 O64 1.185 . S
C62 O65 1.355 . S
Dy63 O67 2.310 . S
Dy63 O70 2.351 . S
Dy63 O72 2.398 . S
Dy63 O73 2.491 . S
Dy63 O74 2.403 . S
Dy63 O75 2.664 . S
Dy63 O77 2.326 . S
O64 Dy60 2.398 . S
O64 C62 1.185 . S
O65 Dy60 2.491 . S
O65 C62 1.355 . S
O66 Dy60 2.403 . S
O66 C68 1.254 . S
O67 Dy60 2.664 . S
O67 Dy63 2.310 . S
O67 C68 1.268 . S
C68 O66 1.254 . S
C68 O67 1.268 . S
C69 O74 1.254 . S
C69 O75 1.268 . S
O70 Dy63 2.351 . S
O70 C78 1.249 . S
O71 Dy60 2.326 . S
O71 C78 1.267 . S
O72 C61 1.185 . S
O72 Dy63 2.398 . S
O73 C61 1.355 . S
O73 Dy63 2.491 . S
O74 Dy63 2.403 . S
O74 C69 1.254 . S
O75 Dy60 2.310 . S
O75 Dy63 2.664 . S
O75 C69 1.268 . S
O76 Dy60 2.351 . S
O76 C79 1.249 . S
O77 Dy63 2.326 . S
O77 C79 1.267 . S
C78 O70 1.249 . S
C78 O71 1.267 . S
C79 O76 1.249 . S
C79 O77 1.267 . S
Dy80 O84 2.398 . S
Dy80 O85 2.491 . S
Dy80 O86 2.403 . S
Dy80 O87 2.664 . S
Dy80 O91 2.326 . S
Dy80 O95 2.310 . S
Dy80 O96 2.351 . S
C81 O92 1.185 . S
C81 O93 1.355 . S
C82 O84 1.185 . S
C82 O85 1.355 . S
Dy83 O87 2.310 . S
Dy83 O90 2.351 . S
Dy83 O92 2.398 . S
Dy83 O93 2.491 . S
Dy83 O94 2.403 . S
Dy83 O95 2.664 . S
Dy83 O97 2.326 . S
O84 Dy80 2.398 . S
O84 C82 1.185 . S
O85 Dy80 2.491 . S
O85 C82 1.355 . S
O86 Dy80 2.403 . S
O86 C88 1.254 . S
O87 Dy80 2.664 . S
O87 Dy83 2.310 . S
O87 C88 1.268 . S
C88 O86 1.254 . S
C88 O87 1.268 . S
C89 O94 1.254 . S
C89 O95 1.268 . S
O90 Dy83 2.351 . S
O90 C98 1.249 . S
O91 Dy80 2.326 . S
O91 C98 1.267 . S
O92 C81 1.185 . S
O92 Dy83 2.398 . S
O93 C81 1.355 . S
O93 Dy83 2.491 . S
O94 Dy83 2.403 . S
O94 C89 1.254 . S
O95 Dy80 2.310 . S
O95 Dy83 2.664 . S
O95 C89 1.268 . S
O96 Dy80 2.351 . S
O96 C99 1.249 . S
O97 Dy83 2.326 . S
O97 C99 1.267 . S
C98 O90 1.249 . S
C98 O91 1.267 . S
C99 O96 1.249 . S
C99 O97 1.267 . S
Dy100 O104 2.398 . S
Dy100 O105 2.491 . S
Dy100 O106 2.403 . S
Dy100 O107 2.664 . S
Dy100 O111 2.326 . S
Dy100 O115 2.310 . S
Dy100 O116 2.351 . S
C101 O112 1.185 . S
C101 O113 1.355 . S
C102 O104 1.185 . S
C102 O105 1.355 . S
Dy103 O107 2.310 . S
Dy103 O110 2.351 . S
Dy103 O112 2.398 . S
Dy103 O113 2.491 . S
Dy103 O114 2.403 . S
Dy103 O115 2.664 . S
Dy103 O117 2.326 . S
O104 Dy100 2.398 . S
O104 C102 1.185 . S
O105 Dy100 2.491 . S
O105 C102 1.355 . S
O106 Dy100 2.403 . S
O106 C108 1.254 . S
O107 Dy100 2.664 . S
O107 Dy103 2.310 . S
O107 C108 1.268 . S
C108 O106 1.254 . S
C108 O107 1.268 . S
C109 O114 1.254 . S
C109 O115 1.268 . S
O110 Dy103 2.351 . S
O110 C118 1.249 . S
O111 Dy100 2.326 . S
O111 C118 1.267 . S
O112 C101 1.185 . S
O112 Dy103 2.398 . S
O113 C101 1.355 . S
O113 Dy103 2.491 . S
O114 Dy103 2.403 . S
O114 C109 1.254 . S
O115 Dy100 2.310 . S
O115 Dy103 2.664 . S
O115 C109 1.268 . S
O116 Dy100 2.351 . S
O116 C119 1.249 . S
O117 Dy103 2.326 . S
O117 C119 1.267 . S
C118 O110 1.249 . S
C118 O111 1.267 . S
C119 O116 1.249 . S
C119 O117 1.267 . S
Dy120 O124 2.398 . S
Dy120 O125 2.491 . S
Dy120 O126 2.403 . S
Dy120 O127 2.664 . S
Dy120 O131 2.326 . S
Dy120 O135 2.310 . S
Dy120 O136 2.351 . S
C121 O132 1.185 . S
C121 O133 1.355 . S
C122 O124 1.185 . S
C122 O125 1.355 . S
Dy123 O127 2.310 . S
Dy123 O130 2.351 . S
Dy123 O132 2.398 . S
Dy123 O133 2.491 . S
Dy123 O134 2.403 . S
Dy123 O135 2.664 . S
Dy123 O137 2.326 . S
O124 Dy120 2.398 . S
O124 C122 1.185 . S
O125 Dy120 2.491 . S
O125 C122 1.355 . S
O126 Dy120 2.403 . S
O126 C128 1.254 . S
O127 Dy120 2.664 . S
O127 Dy123 2.310 . S
O127 C128 1.268 . S
C128 O126 1.254 . S
C128 O127 1.268 . S
C129 O134 1.254 . S
C129 O135 1.268 . S
O130 Dy123 2.351 . S
O130 C138 1.249 . S
O131 Dy120 2.326 . S
O131 C138 1.267 . S
O132 C121 1.185 . S
O132 Dy123 2.398 . S
O133 C121 1.355 . S
O133 Dy123 2.491 . S
O134 Dy123 2.403 . S
O134 C129 1.254 . S
O135 Dy120 2.310 . S
O135 Dy123 2.664 . S
O135 C129 1.268 . S
O136 Dy120 2.351 . S
O136 C139 1.249 . S
O137 Dy123 2.326 . S
O137 C139 1.267 . S
C138 O130 1.249 . S
C138 O131 1.267 . S
C139 O136 1.249 . S
C139 O137 1.267 . S
Dy140 O144 2.398 . S
Dy140 O145 2.491 . S
Dy140 O146 2.403 . S
Dy140 O147 2.664 . S
Dy140 O151 2.326 . S
Dy140 O155 2.310 . S
Dy140 O156 2.351 . S
C141 O152 1.185 . S
C141 O153 1.355 . S
C142 O144 1.185 . S
C142 O145 1.355 . S
Dy143 O147 2.310 . S
Dy143 O150 2.351 . S
Dy143 O152 2.398 . S
Dy143 O153 2.491 . S
Dy143 O154 2.403 . S
Dy143 O155 2.664 . S
Dy143 O157 2.326 . S
O144 Dy140 2.398 . S
O144 C142 1.185 . S
O145 Dy140 2.491 . S
O145 C142 1.355 . S
O146 Dy140 2.403 . S
O146 C148 1.254 . S
O147 Dy140 2.664 . S
O147 Dy143 2.310 . S
O147 C148 1.268 . S
C148 O146 1.254 . S
C148 O147 1.268 . S
C149 O154 1.254 . S
C149 O155 1.268 . S
O150 Dy143 2.351 . S
O150 C158 1.249 . S
O151 Dy140 2.326 . S
O151 C158 1.267 . S
O152 C141 1.185 . S
O152 Dy143 2.398 . S
O153 C141 1.355 . S
O153 Dy143 2.491 . S
O154 Dy143 2.403 . S
O154 C149 1.254 . S
O155 Dy140 2.310 . S
O155 Dy143 2.664 . S
O155 C149 1.268 . S
O156 Dy140 2.351 . S
O156 C159 1.249 . S
O157 Dy143 2.326 . S
O157 C159 1.267 . S
C158 O150 1.249 . S
C158 O151 1.267 . S
C159 O156 1.249 . S
C159 O157 1.267 . S
Cd160 N163 2.334 1_655 S
Cd160 N189 2.304 1_565 S
Cd160 O196 2.268 . S
Cd160 O199 2.273 1_665 S
Cd160 O200 2.417 . S
Cd160 O201 2.330 . S
Cd161 N176 2.304 1_455 S
Cd161 N180 2.334 1_545 S
Cd161 O197 2.273 1_445 S
Cd161 O198 2.268 . S
Cd161 O202 2.417 . S
Cd161 O203 2.330 . S
C162 N163 1.332 . S
C162 C166 1.381 . S
C162 H168 0.931 . S
N163 Cd160 2.334 1_455 S
N163 C162 1.332 . S
N163 C167 1.328 . S
C164 C165 1.396 . S
C164 C167 1.378 . S
C164 H206 0.931 . S
C165 C164 1.396 . S
C165 C166 1.382 . S
C166 C162 1.381 . S
C166 C165 1.382 . S
C166 H207 0.930 . S
C167 N163 1.328 . S
C167 C164 1.378 . S
C167 H169 0.930 1_455 S
H168 C162 0.931 . S
H169 C167 0.930 1_655 S
C170 O196 1.238 . S
C170 O197 1.253 . S
C171 C172 1.379 . S
C171 N176 1.337 . S
C171 H177 0.929 . S
C172 C171 1.379 . S
C172 C173 1.380 . S
C172 H208 0.929 . S
C173 C172 1.380 . S
C173 C174 1.399 . S
C174 C173 1.399 . S
C174 C175 1.376 . S
C174 H209 0.931 . S
C175 C174 1.376 . S
C175 N176 1.338 . S
C175 H178 0.930 1_655 S
N176 Cd161 2.304 1_655 S
N176 C171 1.337 . S
N176 C175 1.338 . S
H177 C171 0.929 . S
H178 C175 0.930 1_455 S
C179 N180 1.332 . S
C179 C183 1.381 . S
C179 H185 0.931 . S
N180 Cd161 2.334 1_565 S
N180 C179 1.332 . S
N180 C184 1.328 . S
C181 C182 1.396 . S
C181 C184 1.378 . S
C181 H210 0.931 . S
C182 C181 1.396 . S
C182 C183 1.382 . S
C183 C179 1.381 . S
C183 C182 1.382 . S
C183 H211 0.930 . S
C184 N180 1.328 . S
C184 C181 1.378 . S
C184 H186 0.930 1_565 S
H185 C179 0.931 . S
H186 C184 0.930 1_545 S
C187 O198 1.238 . S
C187 O199 1.253 . S
C188 O200 1.239 . S
C188 O201 1.230 . S
N189 Cd160 2.304 1_545 S
N189 C190 1.337 . S
N189 C194 1.338 . S
C190 N189 1.337 . S
C190 C191 1.379 . S
C190 H204 0.929 . S
C191 C190 1.379 . S
C191 C192 1.380 . S
C191 H212 0.929 . S
C192 C191 1.380 . S
C192 C193 1.399 . S
C193 C192 1.399 . S
C193 C194 1.376 . S
C193 H213 0.931 . S
C194 N189 1.338 . S
C194 C193 1.376 . S
C194 H205 0.930 1_545 S
C195 O202 1.239 . S
C195 O203 1.230 . S
O196 Cd160 2.268 . S
O196 C170 1.238 . S
O197 Cd161 2.273 1_665 S
O197 C170 1.253 . S
O198 Cd161 2.268 . S
O198 C187 1.238 . S
O199 Cd160 2.273 1_445 S
O199 C187 1.253 . S
O200 Cd160 2.417 . S
O200 C188 1.239 . S
O201 Cd160 2.330 . S
O201 C188 1.230 . S
O202 Cd161 2.417 . S
O202 C195 1.239 . S
O203 Cd161 2.330 . S
O203 C195 1.230 . S
H204 C190 0.929 . S
H205 C194 0.930 1_565 S
H206 C164 0.931 . S
H207 C166 0.930 . S
H208 C172 0.929 . S
H209 C174 0.931 . S
H210 C181 0.931 . S
H211 C183 0.930 . S
H212 C191 0.929 . S
H213 C193 0.931 . S
Cd214 N217 2.334 . S
Cd214 N243 2.304 1_565 S
Cd214 O250 2.268 1_554 S
Cd214 O253 2.273 1_565 S
Cd214 O254 2.417 . S
Cd214 O255 2.330 . S
Cd215 N230 2.304 . S
Cd215 N234 2.334 1_545 S
Cd215 O251 2.273 1_545 S
Cd215 O252 2.268 1_556 S
Cd215 O256 2.417 . S
Cd215 O257 2.330 . S
C216 N217 1.332 . S
C216 C220 1.381 . S
C216 H222 0.931 . S
N217 Cd214 2.334 . S
N217 C216 1.332 . S
N217 C221 1.328 . S
C218 C219 1.396 . S
C218 C221 1.378 . S
C218 H260 0.931 1_554 S
C219 C218 1.396 . S
C219 C220 1.382 . S
C220 C216 1.381 . S
C220 C219 1.382 . S
C220 H261 0.930 . S
C221 N217 1.328 . S
C221 C218 1.378 . S
C221 H223 0.930 1_554 S
H222 C216 0.931 . S
H223 C221 0.930 1_556 S
C224 O250 1.238 . S
C224 O251 1.253 . S
C225 C226 1.379 . S
C225 N230 1.337 . S
C225 H231 0.929 . S
C226 C225 1.379 . S
C226 C227 1.380 . S
C226 H262 0.929 . S
C227 C226 1.380 . S
C227 C228 1.399 . S
C228 C227 1.399 . S
C228 C229 1.376 . S
C228 H263 0.931 1_556 S
C229 C228 1.376 . S
C229 N230 1.338 . S
C229 H232 0.930 1_556 S
N230 Cd215 2.304 . S
N230 C225 1.337 . S
N230 C229 1.338 . S
H231 C225 0.929 . S
H232 C229 0.930 1_554 S
C233 N234 1.332 . S
C233 C237 1.381 . S
C233 H239 0.931 . S
N234 Cd215 2.334 1_565 S
N234 C233 1.332 . S
N234 C238 1.328 . S
C235 C236 1.396 . S
C235 C238 1.378 . S
C235 H264 0.931 1_556 S
C236 C235 1.396 . S
C236 C237 1.382 . S
C237 C233 1.381 . S
C237 C236 1.382 . S
C237 H265 0.930 . S
C238 N234 1.328 . S
C238 C235 1.378 . S
C238 H240 0.930 1_566 S
H239 C233 0.931 . S
H240 C238 0.930 1_544 S
C241 O252 1.238 . S
C241 O253 1.253 . S
C242 O254 1.239 . S
C242 O255 1.230 . S
N243 Cd214 2.304 1_545 S
N243 C244 1.337 . S
N243 C248 1.338 . S
C244 N243 1.337 . S
C244 C245 1.379 . S
C244 H258 0.929 . S
C245 C244 1.379 . S
C245 C246 1.380 . S
C245 H266 0.929 . S
C246 C245 1.380 . S
C246 C247 1.399 . S
C247 C246 1.399 . S
C247 C248 1.376 . S
C247 H267 0.931 1_554 S
C248 N243 1.338 . S
C248 C247 1.376 . S
C248 H259 0.930 1_544 S
C249 O256 1.239 . S
C249 O257 1.230 . S
O250 Cd214 2.268 1_556 S
O250 C224 1.238 . S
O251 Cd215 2.273 1_565 S
O251 C224 1.253 . S
O252 Cd215 2.268 1_554 S
O252 C241 1.238 . S
O253 Cd214 2.273 1_545 S
O253 C241 1.253 . S
O254 Cd214 2.417 . S
O254 C242 1.239 . S
O255 Cd214 2.330 . S
O255 C242 1.230 . S
O256 Cd215 2.417 . S
O256 C249 1.239 . S
O257 Cd215 2.330 . S
O257 C249 1.230 . S
H258 C244 0.929 . S
H259 C248 0.930 1_566 S
H260 C218 0.931 1_556 S
H261 C220 0.930 . S
H262 C226 0.929 . S
H263 C228 0.931 1_554 S
H264 C235 0.931 1_554 S
H265 C237 0.930 . S
H266 C245 0.929 . S
H267 C247 0.931 1_556 S
Cd268 N271 2.334 1_655 S
Cd268 N297 2.304 . S
Cd268 O304 2.268 1_554 S
Cd268 O307 2.273 1_655 S
Cd268 O308 2.417 . S
Cd268 O309 2.330 . S
Cd269 N284 2.304 1_455 S
Cd269 N288 2.334 . S
Cd269 O305 2.273 1_455 S
Cd269 O306 2.268 1_556 S
Cd269 O310 2.417 . S
Cd269 O311 2.330 . S
C270 N271 1.332 . S
C270 C274 1.381 . S
C270 H276 0.931 . S
N271 Cd268 2.334 1_455 S
N271 C270 1.332 . S
N271 C275 1.328 . S
C272 C273 1.396 . S
C272 C275 1.378 . S
C272 H314 0.931 1_554 S
C273 C272 1.396 . S
C273 C274 1.382 . S
C274 C270 1.381 . S
C274 C273 1.382 . S
C274 H315 0.930 . S
C275 N271 1.328 . S
C275 C272 1.378 . S
C275 H277 0.930 1_454 S
H276 C270 0.931 . S
H277 C275 0.930 1_656 S
C278 O304 1.238 . S
C278 O305 1.253 . S
C279 C280 1.379 . S
C279 N284 1.337 . S
C279 H285 0.929 . S
C280 C279 1.379 . S
C280 C281 1.380 . S
C280 H316 0.929 . S
C281 C280 1.380 . S
C281 C282 1.399 . S
C282 C281 1.399 . S
C282 C283 1.376 . S
C282 H317 0.931 1_556 S
C283 C282 1.376 . S
C283 N284 1.338 . S
C283 H286 0.930 1_656 S
N284 Cd269 2.304 1_655 S
N284 C279 1.337 . S
N284 C283 1.338 . S
H285 C279 0.929 . S
H286 C283 0.930 1_454 S
C287 N288 1.332 . S
C287 C291 1.381 . S
C287 H293 0.931 . S
N288 Cd269 2.334 . S
N288 C287 1.332 . S
N288 C292 1.328 . S
C289 C290 1.396 . S
C289 C292 1.378 . S
C289 H318 0.931 1_556 S
C290 C289 1.396 . S
C290 C291 1.382 . S
C291 C287 1.381 . S
C291 C290 1.382 . S
C291 H319 0.930 . S
C292 N288 1.328 . S
C292 C289 1.378 . S
C292 H294 0.930 1_556 S
H293 C287 0.931 . S
H294 C292 0.930 1_554 S
C295 O306 1.238 . S
C295 O307 1.253 . S
C296 O308 1.239 . S
C296 O309 1.230 . S
N297 Cd268 2.304 . S
N297 C298 1.337 . S
N297 C302 1.338 . S
C298 N297 1.337 . S
C298 C299 1.379 . S
C298 H312 0.929 . S
C299 C298 1.379 . S
C299 C300 1.380 . S
C299 H320 0.929 . S
C300 C299 1.380 . S
C300 C301 1.399 . S
C301 C300 1.399 . S
C301 C302 1.376 . S
C301 H321 0.931 1_554 S
C302 N297 1.338 . S
C302 C301 1.376 . S
C302 H313 0.930 1_554 S
C303 O310 1.239 . S
C303 O311 1.230 . S
O304 Cd268 2.268 1_556 S
O304 C278 1.238 . S
O305 Cd269 2.273 1_655 S
O305 C278 1.253 . S
O306 Cd269 2.268 1_554 S
O306 C295 1.238 . S
O307 Cd268 2.273 1_455 S
O307 C295 1.253 . S
O308 Cd268 2.417 . S
O308 C296 1.239 . S
O309 Cd268 2.330 . S
O309 C296 1.230 . S
O310 Cd269 2.417 . S
O310 C303 1.239 . S
O311 Cd269 2.330 . S
O311 C303 1.230 . S
H312 C298 0.929 . S
H313 C302 0.930 1_556 S
H314 C272 0.931 1_556 S
H315 C274 0.930 . S
H316 C280 0.929 . S
H317 C282 0.931 1_554 S
H318 C289 0.931 1_554 S
H319 C291 0.930 . S
H320 C299 0.929 . S
H321 C301 0.931 1_556 S
Cd322 N325 2.334 . S
Cd322 N351 2.304 . S
Cd322 O358 2.268 1_554 S
Cd322 O361 2.273 . S
Cd322 O362 2.417 . S
Cd322 O363 2.330 . S
Cd323 N338 2.304 . S
Cd323 N342 2.334 . S
Cd323 O359 2.273 . S
Cd323 O360 2.268 1_556 S
Cd323 O364 2.417 . S
Cd323 O365 2.330 . S
C324 N325 1.332 . S
C324 C328 1.381 . S
C324 H330 0.931 . S
N325 Cd322 2.334 . S
N325 C324 1.332 . S
N325 C329 1.328 . S
C326 C327 1.396 . S
C326 C329 1.378 . S
C326 H368 0.931 1_554 S
C327 C326 1.396 . S
C327 C328 1.382 . S
C328 C324 1.381 . S
C328 C327 1.382 . S
C328 H369 0.930 . S
C329 N325 1.328 . S
C329 C326 1.378 . S
C329 H331 0.930 1_554 S
H330 C324 0.931 . S
H331 C329 0.930 1_556 S
C332 O358 1.238 . S
C332 O359 1.253 . S
C333 C334 1.379 . S
C333 N338 1.337 . S
C333 H339 0.929 . S
C334 C333 1.379 . S
C334 C335 1.380 . S
C334 H370 0.929 . S
C335 C334 1.380 . S
C335 C336 1.399 . S
C336 C335 1.399 . S
C336 C337 1.376 . S
C336 H371 0.931 1_556 S
C337 C336 1.376 . S
C337 N338 1.338 . S
C337 H340 0.930 1_556 S
N338 Cd323 2.304 . S
N338 C333 1.337 . S
N338 C337 1.338 . S
H339 C333 0.929 . S
H340 C337 0.930 1_554 S
C341 N342 1.332 . S
C341 C345 1.381 . S
C341 H347 0.931 . S
N342 Cd323 2.334 . S
N342 C341 1.332 . S
N342 C346 1.328 . S
C343 C344 1.396 . S
C343 C346 1.378 . S
C343 H372 0.931 1_556 S
C344 C343 1.396 . S
C344 C345 1.382 . S
C345 C341 1.381 . S
C345 C344 1.382 . S
C345 H373 0.930 . S
C346 N342 1.328 . S
C346 C343 1.378 . S
C346 H348 0.930 1_556 S
H347 C341 0.931 . S
H348 C346 0.930 1_554 S
C349 O360 1.238 . S
C349 O361 1.253 . S
C350 O362 1.239 . S
C350 O363 1.230 . S
N351 Cd322 2.304 . S
N351 C352 1.337 . S
N351 C356 1.338 . S
C352 N351 1.337 . S
C352 C353 1.379 . S
C352 H366 0.929 . S
C353 C352 1.379 . S
C353 C354 1.380 . S
C353 H374 0.929 . S
C354 C353 1.380 . S
C354 C355 1.399 . S
C355 C354 1.399 . S
C355 C356 1.376 . S
C355 H375 0.931 1_554 S
C356 N351 1.338 . S
C356 C355 1.376 . S
C356 H367 0.930 1_554 S
C357 O364 1.239 . S
C357 O365 1.230 . S
O358 Cd322 2.268 1_556 S
O358 C332 1.238 . S
O359 Cd323 2.273 . S
O359 C332 1.253 . S
O360 Cd323 2.268 1_554 S
O360 C349 1.238 . S
O361 Cd322 2.273 . S
O361 C349 1.253 . S
O362 Cd322 2.417 . S
O362 C350 1.239 . S
O363 Cd322 2.330 . S
O363 C350 1.230 . S
O364 Cd323 2.417 . S
O364 C357 1.239 . S
O365 Cd323 2.330 . S
O365 C357 1.230 . S
H366 C352 0.929 . S
H367 C356 0.930 1_556 S
H368 C326 0.931 1_556 S
H369 C328 0.930 . S
H370 C334 0.929 . S
H371 C336 0.931 1_554 S
H372 C343 0.931 1_554 S
H373 C345 0.930 . S
H374 C353 0.929 . S
H375 C355 0.931 1_556 S
Cd376 N379 2.334 1_655 S
Cd376 N405 2.304 . S
Cd376 O412 2.268 . S
Cd376 O415 2.273 1_655 S
Cd376 O416 2.417 . S
Cd376 O417 2.330 . S
Cd377 N392 2.304 1_455 S
Cd377 N396 2.334 . S
Cd377 O413 2.273 1_455 S
Cd377 O414 2.268 . S
Cd377 O418 2.417 . S
Cd377 O419 2.330 . S
C378 N379 1.332 . S
C378 C382 1.381 . S
C378 H384 0.931 . S
N379 Cd376 2.334 1_455 S
N379 C378 1.332 . S
N379 C383 1.328 . S
C380 C381 1.396 . S
C380 C383 1.378 . S
C380 H422 0.931 . S
C381 C380 1.396 . S
C381 C382 1.382 . S
C382 C378 1.381 . S
C382 C381 1.382 . S
C382 H423 0.930 . S
C383 N379 1.328 . S
C383 C380 1.378 . S
C383 H385 0.930 1_455 S
H384 C378 0.931 . S
H385 C383 0.930 1_655 S
C386 O412 1.238 . S
C386 O413 1.253 . S
C387 C388 1.379 . S
C387 N392 1.337 . S
C387 H393 0.929 . S
C388 C387 1.379 . S
C388 C389 1.380 . S
C388 H424 0.929 . S
C389 C388 1.380 . S
C389 C390 1.399 . S
C390 C389 1.399 . S
C390 C391 1.376 . S
C390 H425 0.931 . S
C391 C390 1.376 . S
C391 N392 1.338 . S
C391 H394 0.930 1_655 S
N392 Cd377 2.304 1_655 S
N392 C387 1.337 . S
N392 C391 1.338 . S
H393 C387 0.929 . S
H394 C391 0.930 1_455 S
C395 N396 1.332 . S
C395 C399 1.381 . S
C395 H401 0.931 . S
N396 Cd377 2.334 . S
N396 C395 1.332 . S
N396 C400 1.328 . S
C397 C398 1.396 . S
C397 C400 1.378 . S
C397 H426 0.931 . S
C398 C397 1.396 . S
C398 C399 1.382 . S
C399 C395 1.381 . S
C399 C398 1.382 . S
C399 H427 0.930 . S
C400 N396 1.328 . S
C400 C397 1.378 . S
C400 H402 0.930 . S
H401 C395 0.931 . S
H402 C400 0.930 . S
C403 O414 1.238 . S
C403 O415 1.253 . S
C404 O416 1.239 . S
C404 O417 1.230 . S
N405 Cd376 2.304 . S
N405 C406 1.337 . S
N405 C410 1.338 . S
C406 N405 1.337 . S
C406 C407 1.379 . S
C406 H420 0.929 . S
C407 C406 1.379 . S
C407 C408 1.380 . S
C407 H428 0.929 . S
C408 C407 1.380 . S
C408 C409 1.399 . S
C409 C408 1.399 . S
C409 C410 1.376 . S
C409 H429 0.931 . S
C410 N405 1.338 . S
C410 C409 1.376 . S
C410 H421 0.930 . S
C411 O418 1.239 . S
C411 O419 1.230 . S
O412 Cd376 2.268 . S
O412 C386 1.238 . S
O413 Cd377 2.273 1_655 S
O413 C386 1.253 . S
O414 Cd377 2.268 . S
O414 C403 1.238 . S
O415 Cd376 2.273 1_455 S
O415 C403 1.253 . S
O416 Cd376 2.417 . S
O416 C404 1.239 . S
O417 Cd376 2.330 . S
O417 C404 1.230 . S
O418 Cd377 2.417 . S
O418 C411 1.239 . S
O419 Cd377 2.330 . S
O419 C411 1.230 . S
H420 C406 0.929 . S
H421 C410 0.930 . S
H422 C380 0.931 . S
H423 C382 0.930 . S
H424 C388 0.929 . S
H425 C390 0.931 . S
H426 C397 0.931 . S
H427 C399 0.930 . S
H428 C407 0.929 . S
H429 C409 0.931 . S
Cd430 N433 2.334 . S
Cd430 N459 2.304 1_565 S
Cd430 O466 2.268 . S
Cd430 O469 2.273 1_565 S
Cd430 O470 2.417 . S
Cd430 O471 2.330 . S
Cd431 N446 2.304 . S
Cd431 N450 2.334 1_545 S
Cd431 O467 2.273 1_545 S
Cd431 O468 2.268 . S
Cd431 O472 2.417 . S
Cd431 O473 2.330 . S
C432 N433 1.332 . S
C432 C436 1.381 . S
C432 H438 0.931 . S
N433 Cd430 2.334 . S
N433 C432 1.332 . S
N433 C437 1.328 . S
C434 C435 1.396 . S
C434 C437 1.378 . S
C434 H476 0.931 . S
C435 C434 1.396 . S
C435 C436 1.382 . S
C436 C432 1.381 . S
C436 C435 1.382 . S
C436 H477 0.930 . S
C437 N433 1.328 . S
C437 C434 1.378 . S
C437 H439 0.930 . S
H438 C432 0.931 . S
H439 C437 0.930 . S
C440 O466 1.238 . S
C440 O467 1.253 . S
C441 C442 1.379 . S
C441 N446 1.337 . S
C441 H447 0.929 . S
C442 C441 1.379 . S
C442 C443 1.380 . S
C442 H478 0.929 . S
C443 C442 1.380 . S
C443 C444 1.399 . S
C444 C443 1.399 . S
C444 C445 1.376 . S
C444 H479 0.931 . S
C445 C444 1.376 . S
C445 N446 1.338 . S
C445 H448 0.930 . S
N446 Cd431 2.304 . S
N446 C441 1.337 . S
N446 C445 1.338 . S
H447 C441 0.929 . S
H448 C445 0.930 . S
C449 N450 1.332 . S
C449 C453 1.381 . S
C449 H455 0.931 . S
N450 Cd431 2.334 1_565 S
N450 C449 1.332 . S
N450 C454 1.328 . S
C451 C452 1.396 . S
C451 C454 1.378 . S
C451 H480 0.931 . S
C452 C451 1.396 . S
C452 C453 1.382 . S
C453 C449 1.381 . S
C453 C452 1.382 . S
C453 H481 0.930 . S
C454 N450 1.328 . S
C454 C451 1.378 . S
C454 H456 0.930 1_565 S
H455 C449 0.931 . S
H456 C454 0.930 1_545 S
C457 O468 1.238 . S
C457 O469 1.253 . S
C458 O470 1.239 . S
C458 O471 1.230 . S
N459 Cd430 2.304 1_545 S
N459 C460 1.337 . S
N459 C464 1.338 . S
C460 N459 1.337 . S
C460 C461 1.379 . S
C460 H474 0.929 . S
C461 C460 1.379 . S
C461 C462 1.380 . S
C461 H482 0.929 . S
C462 C461 1.380 . S
C462 C463 1.399 . S
C463 C462 1.399 . S
C463 C464 1.376 . S
C463 H483 0.931 . S
C464 N459 1.338 . S
C464 C463 1.376 . S
C464 H475 0.930 1_545 S
C465 O472 1.239 . S
C465 O473 1.230 . S
O466 Cd430 2.268 . S
O466 C440 1.238 . S
O467 Cd431 2.273 1_565 S
O467 C440 1.253 . S
O468 Cd431 2.268 . S
O468 C457 1.238 . S
O469 Cd430 2.273 1_545 S
O469 C457 1.253 . S
O470 Cd430 2.417 . S
O470 C458 1.239 . S
O471 Cd430 2.330 . S
O471 C458 1.230 . S
O472 Cd431 2.417 . S
O472 C465 1.239 . S
O473 Cd431 2.330 . S
O473 C465 1.230 . S
H474 C460 0.929 . S
H475 C464 0.930 1_565 S
H476 C434 0.931 . S
H477 C436 0.930 . S
H478 C442 0.929 . S
H479 C444 0.931 . S
H480 C451 0.931 . S
H481 C453 0.930 . S
H482 C461 0.929 . S
H483 C463 0.931 . S
H484 C490 0.930 . S
H485 C493 0.930 . S
H486 C494 0.930 . S
H487 C495 0.930 . S
H488 C498 0.930 . S
H489 C499 0.930 . S
C490 H484 0.930 . S
C490 C491 1.355 . S
C490 C492 1.415 . S
C491 C490 1.355 . S
C491 C493 1.419 . S
C492 C490 1.415 . S
C492 C497 1.425 . S
C492 C499 1.409 . S
C493 H485 0.930 . S
C493 C491 1.419 . S
C493 C494 1.362 . S
C494 H486 0.930 . S
C494 C493 1.362 . S
C494 C497 1.409 . S
C495 H487 0.930 . S
C495 C496 1.355 . S
C495 C497 1.415 . S
C496 C495 1.355 . S
C496 C498 1.419 . S
C497 C492 1.425 . S
C497 C494 1.409 . S
C497 C495 1.415 . S
C498 H488 0.930 . S
C498 C496 1.419 . S
C498 C499 1.362 . S
C499 H489 0.930 . S
C499 C492 1.409 . S
C499 C498 1.362 . S
H500 C506 0.930 . S
H501 C509 0.930 . S
H502 C510 0.930 . S
H503 C511 0.930 . S
H504 C514 0.930 . S
H505 C515 0.930 . S
C506 H500 0.930 . S
C506 C507 1.355 . S
C506 C508 1.415 . S
C507 C506 1.355 . S
C507 C509 1.419 . S
C508 C506 1.415 . S
C508 C513 1.425 . S
C508 C515 1.409 . S
C509 H501 0.930 . S
C509 C507 1.419 . S
C509 C510 1.362 . S
C510 H502 0.930 . S
C510 C509 1.362 . S
C510 C513 1.409 . S
C511 H503 0.930 . S
C511 C512 1.355 . S
C511 C513 1.415 . S
C512 C511 1.355 . S
C512 C514 1.419 . S
C513 C508 1.425 . S
C513 C510 1.409 . S
C513 C511 1.415 . S
C514 H504 0.930 . S
C514 C512 1.419 . S
C514 C515 1.362 . S
C515 H505 0.930 . S
C515 C508 1.409 . S
C515 C514 1.362 . S
H516 C522 0.930 . S
H517 C525 0.930 . S
H518 C526 0.930 . S
H519 C527 0.930 . S
H520 C530 0.930 . S
H521 C531 0.930 . S
C522 H516 0.930 . S
C522 C523 1.355 . S
C522 C524 1.415 . S
C523 C522 1.355 . S
C523 C525 1.419 . S
C524 C522 1.415 . S
C524 C529 1.425 . S
C524 C531 1.409 . S
C525 H517 0.930 . S
C525 C523 1.419 . S
C525 C526 1.362 . S
C526 H518 0.930 . S
C526 C525 1.362 . S
C526 C529 1.409 . S
C527 H519 0.930 . S
C527 C528 1.355 . S
C527 C529 1.415 . S
C528 C527 1.355 . S
C528 C530 1.419 . S
C529 C524 1.425 . S
C529 C526 1.409 . S
C529 C527 1.415 . S
C530 H520 0.930 . S
C530 C528 1.419 . S
C530 C531 1.362 . S
C531 H521 0.930 . S
C531 C524 1.409 . S
C531 C530 1.362 . S
H532 C538 0.930 . S
H533 C541 0.930 . S
H534 C542 0.930 . S
H535 C543 0.930 . S
H536 C546 0.930 . S
H537 C547 0.930 . S
C538 H532 0.930 . S
C538 C539 1.355 . S
C538 C540 1.415 . S
C539 C538 1.355 . S
C539 C541 1.419 . S
C540 C538 1.415 . S
C540 C545 1.425 . S
C540 C547 1.409 . S
C541 H533 0.930 . S
C541 C539 1.419 . S
C541 C542 1.362 . S
C542 H534 0.930 . S
C542 C541 1.362 . S
C542 C545 1.409 . S
C543 H535 0.930 . S
C543 C544 1.355 . S
C543 C545 1.415 . S
C544 C543 1.355 . S
C544 C546 1.419 . S
C545 C540 1.425 . S
C545 C542 1.409 . S
C545 C543 1.415 . S
C546 H536 0.930 . S
C546 C544 1.419 . S
C546 C547 1.362 . S
C547 H537 0.930 . S
C547 C540 1.409 . S
C547 C546 1.362 . S
H548 C554 0.930 . S
H549 C557 0.930 . S
H550 C558 0.930 . S
H551 C559 0.930 . S
H552 C562 0.930 . S
H553 C563 0.930 . S
C554 H548 0.930 . S
C554 C555 1.355 . S
C554 C556 1.415 . S
C555 C554 1.355 . S
C555 C557 1.419 . S
C556 C554 1.415 . S
C556 C561 1.425 . S
C556 C563 1.409 . S
C557 H549 0.930 . S
C557 C555 1.419 . S
C557 C558 1.362 . S
C558 H550 0.930 . S
C558 C557 1.362 . S
C558 C561 1.409 . S
C559 H551 0.930 . S
C559 C560 1.355 . S
C559 C561 1.415 . S
C560 C559 1.355 . S
C560 C562 1.419 . S
C561 C556 1.425 . S
C561 C558 1.409 . S
C561 C559 1.415 . S
C562 H552 0.930 . S
C562 C560 1.419 . S
C562 C563 1.362 . S
C563 H553 0.930 . S
C563 C556 1.409 . S
C563 C562 1.362 . S
H564 C570 0.930 . S
H565 C573 0.930 . S
H566 C574 0.930 . S
H567 C575 0.930 . S
H568 C578 0.930 . S
H569 C579 0.930 . S
C570 H564 0.930 . S
C570 C571 1.355 . S
C570 C572 1.415 . S
C571 C570 1.355 . S
C571 C573 1.419 . S
C572 C570 1.415 . S
C572 C577 1.425 . S
C572 C579 1.409 . S
C573 H565 0.930 . S
C573 C571 1.419 . S
C573 C574 1.362 . S
C574 H566 0.930 . S
C574 C573 1.362 . S
C574 C577 1.409 . S
C575 H567 0.930 . S
C575 C576 1.355 . S
C575 C577 1.415 . S
C576 C575 1.355 . S
C576 C578 1.419 . S
C577 C572 1.425 . S
C577 C574 1.409 . S
C577 C575 1.415 . S
C578 H568 0.930 . S
C578 C576 1.419 . S
C578 C579 1.362 . S
C579 H569 0.930 . S
C579 C572 1.409 . S
C579 C578 1.362 . S
H580 C586 0.930 . S
H581 C589 0.930 . S
H582 C590 0.930 . S
H583 C591 0.930 . S
H584 C594 0.930 . S
H585 C595 0.930 . S
C586 H580 0.930 . S
C586 C587 1.355 . S
C586 C588 1.415 . S
C587 C586 1.355 . S
C587 C589 1.419 . S
C588 C586 1.415 . S
C588 C593 1.425 . S
C588 C595 1.409 . S
C589 H581 0.930 . S
C589 C587 1.419 . S
C589 C590 1.362 . S
C590 H582 0.930 . S
C590 C589 1.362 . S
C590 C593 1.409 . S
C591 H583 0.930 . S
C591 C592 1.355 . S
C591 C593 1.415 . S
C592 C591 1.355 . S
C592 C594 1.419 . S
C593 C588 1.425 . S
C593 C590 1.409 . S
C593 C591 1.415 . S
C594 H584 0.930 . S
C594 C592 1.419 . S
C594 C595 1.362 . S
C595 H585 0.930 . S
C595 C588 1.409 . S
C595 C594 1.362 . S
H596 C602 0.930 . S
H597 C605 0.930 . S
H598 C606 0.930 . S
H599 C607 0.930 . S
H600 C610 0.930 . S
H601 C611 0.930 . S
C602 H596 0.930 . S
C602 C603 1.355 . S
C602 C604 1.415 . S
C603 C602 1.355 . S
C603 C605 1.419 . S
C604 C602 1.415 . S
C604 C609 1.425 . S
C604 C611 1.409 . S
C605 H597 0.930 . S
C605 C603 1.419 . S
C605 C606 1.362 . S
C606 H598 0.930 . S
C606 C605 1.362 . S
C606 C609 1.409 . S
C607 H599 0.930 . S
C607 C608 1.355 . S
C607 C609 1.415 . S
C608 C607 1.355 . S
C608 C610 1.419 . S
C609 C604 1.425 . S
C609 C606 1.409 . S
C609 C607 1.415 . S
C610 H600 0.930 . S
C610 C608 1.419 . S
C610 C611 1.362 . S
C611 H601 0.930 . S
C611 C604 1.409 . S
C611 C610 1.362 . S
H612 C618 0.930 . S
H613 C621 0.930 . S
H614 C622 0.930 . S
H615 C623 0.930 . S
H616 C626 0.930 . S
H617 C627 0.930 . S
C618 H612 0.930 . S
C618 C619 1.355 . S
C618 C620 1.415 . S
C619 C618 1.355 . S
C619 C621 1.419 . S
C620 C618 1.415 . S
C620 C625 1.425 . S
C620 C627 1.409 . S
C621 H613 0.930 . S
C621 C619 1.419 . S
C621 C622 1.362 . S
C622 H614 0.930 . S
C622 C621 1.362 . S
C622 C625 1.409 . S
C623 H615 0.930 . S
C623 C624 1.355 . S
C623 C625 1.415 . S
C624 C623 1.355 . S
C624 C626 1.419 . S
C625 C620 1.425 . S
C625 C622 1.409 . S
C625 C623 1.415 . S
C626 H616 0.930 . S
C626 C624 1.419 . S
C626 C627 1.362 . S
C627 H617 0.930 . S
C627 C620 1.409 . S
C627 C626 1.362 . S
H628 C634 0.930 . S
H629 C637 0.930 . S
H630 C638 0.930 . S
H631 C639 0.930 . S
H632 C642 0.930 . S
H633 C643 0.930 . S
C634 H628 0.930 . S
C634 C635 1.355 . S
C634 C636 1.415 . S
C635 C634 1.355 . S
C635 C637 1.419 . S
C636 C634 1.415 . S
C636 C641 1.425 . S
C636 C643 1.409 . S
C637 H629 0.930 . S
C637 C635 1.419 . S
C637 C638 1.362 . S
C638 H630 0.930 . S
C638 C637 1.362 . S
C638 C641 1.409 . S
C639 H631 0.930 . S
C639 C640 1.355 . S
C639 C641 1.415 . S
C640 C639 1.355 . S
C640 C642 1.419 . S
C641 C636 1.425 . S
C641 C638 1.409 . S
C641 C639 1.415 . S
C642 H632 0.930 . S
C642 C640 1.419 . S
C642 C643 1.362 . S
C643 H633 0.930 . S
C643 C636 1.409 . S
C643 C642 1.362 . S
H644 C650 0.930 . S
H645 C653 0.930 . S
H646 C654 0.930 . S
H647 C655 0.930 . S
H648 C658 0.930 . S
H649 C659 0.930 . S
C650 H644 0.930 . S
C650 C651 1.355 . S
C650 C652 1.415 . S
C651 C650 1.355 . S
C651 C653 1.419 . S
C652 C650 1.415 . S
C652 C657 1.425 . S
C652 C659 1.409 . S
C653 H645 0.930 . S
C653 C651 1.419 . S
C653 C654 1.362 . S
C654 H646 0.930 . S
C654 C653 1.362 . S
C654 C657 1.409 . S
C655 H647 0.930 . S
C655 C656 1.355 . S
C655 C657 1.415 . S
C656 C655 1.355 . S
C656 C658 1.419 . S
C657 C652 1.425 . S
C657 C654 1.409 . S
C657 C655 1.415 . S
C658 H648 0.930 . S
C658 C656 1.419 . S
C658 C659 1.362 . S
C659 H649 0.930 . S
C659 C652 1.409 . S
C659 C658 1.362 . S
H660 C666 0.930 . S
H661 C669 0.930 . S
H662 C670 0.930 . S
H663 C671 0.930 . S
H664 C674 0.930 . S
H665 C675 0.930 . S
C666 H660 0.930 . S
C666 C667 1.355 . S
C666 C668 1.415 . S
C667 C666 1.355 . S
C667 C669 1.419 . S
C668 C666 1.415 . S
C668 C673 1.425 . S
C668 C675 1.409 . S
C669 H661 0.930 . S
C669 C667 1.419 . S
C669 C670 1.362 . S
C670 H662 0.930 . S
C670 C669 1.362 . S
C670 C673 1.409 . S
C671 H663 0.930 . S
C671 C672 1.355 . S
C671 C673 1.415 . S
C672 C671 1.355 . S
C672 C674 1.419 . S
C673 C668 1.425 . S
C673 C670 1.409 . S
C673 C671 1.415 . S
C674 H664 0.930 . S
C674 C672 1.419 . S
C674 C675 1.362 . S
C675 H665 0.930 . S
C675 C668 1.409 . S
C675 C674 1.362 . S
H676 C682 0.930 . S
H677 C685 0.930 . S
H678 C686 0.930 . S
H679 C687 0.930 . S
H680 C690 0.930 . S
H681 C691 0.930 . S
C682 H676 0.930 . S
C682 C683 1.355 . S
C682 C684 1.415 . S
C683 C682 1.355 . S
C683 C685 1.419 . S
C684 C682 1.415 . S
C684 C689 1.425 . S
C684 C691 1.409 . S
C685 H677 0.930 . S
C685 C683 1.419 . S
C685 C686 1.362 . S
C686 H678 0.930 . S
C686 C685 1.362 . S
C686 C689 1.409 . S
C687 H679 0.930 . S
C687 C688 1.355 . S
C687 C689 1.415 . S
C688 C687 1.355 . S
C688 C690 1.419 . S
C689 C684 1.425 . S
C689 C686 1.409 . S
C689 C687 1.415 . S
C690 H680 0.930 . S
C690 C688 1.419 . S
C690 C691 1.362 . S
C691 H681 0.930 . S
C691 C684 1.409 . S
C691 C690 1.362 . S
H692 C698 0.930 . S
H693 C701 0.930 . S
H694 C702 0.930 . S
H695 C703 0.930 . S
H696 C706 0.930 . S
H697 C707 0.930 . S
C698 H692 0.930 . S
C698 C699 1.355 . S
C698 C700 1.415 . S
C699 C698 1.355 . S
C699 C701 1.419 . S
C700 C698 1.415 . S
C700 C705 1.425 . S
C700 C707 1.409 . S
C701 H693 0.930 . S
C701 C699 1.419 . S
C701 C702 1.362 . S
C702 H694 0.930 . S
C702 C701 1.362 . S
C702 C705 1.409 . S
C703 H695 0.930 . S
C703 C704 1.355 . S
C703 C705 1.415 . S
C704 C703 1.355 . S
C704 C706 1.419 . S
C705 C700 1.425 . S
C705 C702 1.409 . S
C705 C703 1.415 . S
C706 H696 0.930 . S
C706 C704 1.419 . S
C706 C707 1.362 . S
C707 H697 0.930 . S
C707 C700 1.409 . S
C707 C706 1.362 . S
H708 C714 0.930 . S
H709 C717 0.930 . S
H710 C718 0.930 . S
H711 C719 0.930 . S
H712 C722 0.930 . S
H713 C723 0.930 . S
C714 H708 0.930 . S
C714 C715 1.355 . S
C714 C716 1.415 . S
C715 C714 1.355 . S
C715 C717 1.419 . S
C716 C714 1.415 . S
C716 C721 1.425 . S
C716 C723 1.409 . S
C717 H709 0.930 . S
C717 C715 1.419 . S
C717 C718 1.362 . S
C718 H710 0.930 . S
C718 C717 1.362 . S
C718 C721 1.409 . S
C719 H711 0.930 . S
C719 C720 1.355 . S
C719 C721 1.415 . S
C720 C719 1.355 . S
C720 C722 1.419 . S
C721 C716 1.425 . S
C721 C718 1.409 . S
C721 C719 1.415 . S
C722 H712 0.930 . S
C722 C720 1.419 . S
C722 C723 1.362 . S
C723 H713 0.930 . S
C723 C716 1.409 . S
C723 C722 1.362 . S
H724 C730 0.930 . S
H725 C733 0.930 . S
H726 C734 0.930 . S
H727 C735 0.930 . S
H728 C738 0.930 . S
H729 C739 0.930 . S
C730 H724 0.930 . S
C730 C731 1.355 . S
C730 C732 1.415 . S
C731 C730 1.355 . S
C731 C733 1.419 . S
C732 C730 1.415 . S
C732 C737 1.425 . S
C732 C739 1.409 . S
C733 H725 0.930 . S
C733 C731 1.419 . S
C733 C734 1.362 . S
C734 H726 0.930 . S
C734 C733 1.362 . S
C734 C737 1.409 . S
C735 H727 0.930 . S
C735 C736 1.355 . S
C735 C737 1.415 . S
C736 C735 1.355 . S
C736 C738 1.419 . S
C737 C732 1.425 . S
C737 C734 1.409 . S
C737 C735 1.415 . S
C738 H728 0.930 . S
C738 C736 1.419 . S
C738 C739 1.362 . S
C739 H729 0.930 . S
C739 C732 1.409 . S
C739 C738 1.362 . S
H740 C746 0.930 . S
H741 C749 0.930 . S
H742 C750 0.930 . S
H743 C751 0.930 . S
H744 C754 0.930 . S
H745 C755 0.930 . S
C746 H740 0.930 . S
C746 C747 1.355 . S
C746 C748 1.415 . S
C747 C746 1.355 . S
C747 C749 1.419 . S
C748 C746 1.415 . S
C748 C753 1.425 . S
C748 C755 1.409 . S
C749 H741 0.930 . S
C749 C747 1.419 . S
C749 C750 1.362 . S
C750 H742 0.930 . S
C750 C749 1.362 . S
C750 C753 1.409 . S
C751 H743 0.930 . S
C751 C752 1.355 . S
C751 C753 1.415 . S
C752 C751 1.355 . S
C752 C754 1.419 . S
C753 C748 1.425 . S
C753 C750 1.409 . S
C753 C751 1.415 . S
C754 H744 0.930 . S
C754 C752 1.419 . S
C754 C755 1.362 . S
C755 H745 0.930 . S
C755 C748 1.409 . S
C755 C754 1.362 . S
H756 C762 0.930 . S
H757 C765 0.930 . S
H758 C766 0.930 . S
H759 C767 0.930 . S
H760 C770 0.930 . S
H761 C771 0.930 . S
C762 H756 0.930 . S
C762 C763 1.355 . S
C762 C764 1.415 . S
C763 C762 1.355 . S
C763 C765 1.419 . S
C764 C762 1.415 . S
C764 C769 1.425 . S
C764 C771 1.409 . S
C765 H757 0.930 . S
C765 C763 1.419 . S
C765 C766 1.362 . S
C766 H758 0.930 . S
C766 C765 1.362 . S
C766 C769 1.409 . S
C767 H759 0.930 . S
C767 C768 1.355 . S
C767 C769 1.415 . S
C768 C767 1.355 . S
C768 C770 1.419 . S
C769 C764 1.425 . S
C769 C766 1.409 . S
C769 C767 1.415 . S
C770 H760 0.930 . S
C770 C768 1.419 . S
C770 C771 1.362 . S
C771 H761 0.930 . S
C771 C764 1.409 . S
C771 C770 1.362 . S
H772 C778 0.930 . S
H773 C781 0.930 . S
H774 C782 0.930 . S
H775 C783 0.930 . S
H776 C786 0.930 . S
H777 C787 0.930 . S
C778 H772 0.930 . S
C778 C779 1.355 . S
C778 C780 1.415 . S
C779 C778 1.355 . S
C779 C781 1.419 . S
C780 C778 1.415 . S
C780 C785 1.425 . S
C780 C787 1.409 . S
C781 H773 0.930 . S
C781 C779 1.419 . S
C781 C782 1.362 . S
C782 H774 0.930 . S
C782 C781 1.362 . S
C782 C785 1.409 . S
C783 H775 0.930 . S
C783 C784 1.355 . S
C783 C785 1.415 . S
C784 C783 1.355 . S
C784 C786 1.419 . S
C785 C780 1.425 . S
C785 C782 1.409 . S
C785 C783 1.415 . S
C786 H776 0.930 . S
C786 C784 1.419 . S
C786 C787 1.362 . S
C787 H777 0.930 . S
C787 C780 1.409 . S
C787 C786 1.362 . S
H788 C794 0.930 . S
H789 C797 0.930 . S
H790 C798 0.930 . S
H791 C799 0.930 . S
H792 C802 0.930 . S
H793 C803 0.930 . S
C794 H788 0.930 . S
C794 C795 1.355 . S
C794 C796 1.415 . S
C795 C794 1.355 . S
C795 C797 1.419 . S
C796 C794 1.415 . S
C796 C801 1.425 . S
C796 C803 1.409 . S
C797 H789 0.930 . S
C797 C795 1.419 . S
C797 C798 1.362 . S
C798 H790 0.930 . S
C798 C797 1.362 . S
C798 C801 1.409 . S
C799 H791 0.930 . S
C799 C800 1.355 . S
C799 C801 1.415 . S
C800 C799 1.355 . S
C800 C802 1.419 . S
C801 C796 1.425 . S
C801 C798 1.409 . S
C801 C799 1.415 . S
C802 H792 0.930 . S
C802 C800 1.419 . S
C802 C803 1.362 . S
C803 H793 0.930 . S
C803 C796 1.409 . S
C803 C802 1.362 . S
H804 C810 0.930 . S
H805 C813 0.930 . S
H806 C814 0.930 . S
H807 C815 0.930 . S
H808 C818 0.930 . S
H809 C819 0.930 . S
C810 H804 0.930 . S
C810 C811 1.355 . S
C810 C812 1.415 . S
C811 C810 1.355 . S
C811 C813 1.419 . S
C812 C810 1.415 . S
C812 C817 1.425 . S
C812 C819 1.409 . S
C813 H805 0.930 . S
C813 C811 1.419 . S
C813 C814 1.362 . S
C814 H806 0.930 . S
C814 C813 1.362 . S
C814 C817 1.409 . S
C815 H807 0.930 . S
C815 C816 1.355 . S
C815 C817 1.415 . S
C816 C815 1.355 . S
C816 C818 1.419 . S
C817 C812 1.425 . S
C817 C814 1.409 . S
C817 C815 1.415 . S
C818 H808 0.930 . S
C818 C816 1.419 . S
C818 C819 1.362 . S
C819 H809 0.930 . S
C819 C812 1.409 . S
C819 C818 1.362 . S
H820 C826 0.930 . S
H821 C829 0.930 . S
H822 C830 0.930 . S
H823 C831 0.930 . S
H824 C834 0.930 . S
H825 C835 0.930 . S
C826 H820 0.930 . S
C826 C827 1.355 . S
C826 C828 1.415 . S
C827 C826 1.355 . S
C827 C829 1.419 . S
C828 C826 1.415 . S
C828 C833 1.425 . S
C828 C835 1.409 . S
C829 H821 0.930 . S
C829 C827 1.419 . S
C829 C830 1.362 . S
C830 H822 0.930 . S
C830 C829 1.362 . S
C830 C833 1.409 . S
C831 H823 0.930 . S
C831 C832 1.355 . S
C831 C833 1.415 . S
C832 C831 1.355 . S
C832 C834 1.419 . S
C833 C828 1.425 . S
C833 C830 1.409 . S
C833 C831 1.415 . S
C834 H824 0.930 . S
C834 C832 1.419 . S
C834 C835 1.362 . S
C835 H825 0.930 . S
C835 C828 1.409 . S
C835 C834 1.362 . S
H836 C842 0.930 . S
H837 C845 0.930 . S
H838 C846 0.930 . S
H839 C847 0.930 . S
H840 C850 0.930 . S
H841 C851 0.930 . S
C842 H836 0.930 . S
C842 C843 1.355 . S
C842 C844 1.415 . S
C843 C842 1.355 . S
C843 C845 1.419 . S
C844 C842 1.415 . S
C844 C849 1.425 . S
C844 C851 1.409 . S
C845 H837 0.930 . S
C845 C843 1.419 . S
C845 C846 1.362 . S
C846 H838 0.930 . S
C846 C845 1.362 . S
C846 C849 1.409 . S
C847 H839 0.930 . S
C847 C848 1.355 . S
C847 C849 1.415 . S
C848 C847 1.355 . S
C848 C850 1.419 . S
C849 C844 1.425 . S
C849 C846 1.409 . S
C849 C847 1.415 . S
C850 H840 0.930 . S
C850 C848 1.419 . S
C850 C851 1.362 . S
C851 H841 0.930 . S
C851 C844 1.409 . S
C851 C850 1.362 . S
H852 C858 0.930 . S
H853 C861 0.930 . S
H854 C862 0.930 . S
H855 C863 0.930 . S
H856 C866 0.930 . S
H857 C867 0.930 . S
C858 H852 0.930 . S
C858 C859 1.355 . S
C858 C860 1.415 . S
C859 C858 1.355 . S
C859 C861 1.419 . S
C860 C858 1.415 . S
C860 C865 1.425 . S
C860 C867 1.409 . S
C861 H853 0.930 . S
C861 C859 1.419 . S
C861 C862 1.362 . S
C862 H854 0.930 . S
C862 C861 1.362 . S
C862 C865 1.409 . S
C863 H855 0.930 . S
C863 C864 1.355 . S
C863 C865 1.415 . S
C864 C863 1.355 . S
C864 C866 1.419 . S
C865 C860 1.425 . S
C865 C862 1.409 . S
C865 C863 1.415 . S
C866 H856 0.930 . S
C866 C864 1.419 . S
C866 C867 1.362 . S
C867 H857 0.930 . S
C867 C860 1.409 . S
C867 C866 1.362 . S
H868 C874 0.930 . S
H869 C877 0.930 . S
H870 C878 0.930 . S
H871 C879 0.930 . S
H872 C882 0.930 . S
H873 C883 0.930 . S
C874 H868 0.930 . S
C874 C875 1.355 . S
C874 C876 1.415 . S
C875 C874 1.355 . S
C875 C877 1.419 . S
C876 C874 1.415 . S
C876 C881 1.425 . S
C876 C883 1.409 . S
C877 H869 0.930 . S
C877 C875 1.419 . S
C877 C878 1.362 . S
C878 H870 0.930 . S
C878 C877 1.362 . S
C878 C881 1.409 . S
C879 H871 0.930 . S
C879 C880 1.355 . S
C879 C881 1.415 . S
C880 C879 1.355 . S
C880 C882 1.419 . S
C881 C876 1.425 . S
C881 C878 1.409 . S
C881 C879 1.415 . S
C882 H872 0.930 . S
C882 C880 1.419 . S
C882 C883 1.362 . S
C883 H873 0.930 . S
C883 C876 1.409 . S
C883 C882 1.362 . S
H884 C890 0.930 . S
H885 C893 0.930 . S
H886 C894 0.930 . S
H887 C895 0.930 . S
H888 C898 0.930 . S
H889 C899 0.930 . S
C890 H884 0.930 . S
C890 C891 1.355 . S
C890 C892 1.415 . S
C891 C890 1.355 . S
C891 C893 1.419 . S
C892 C890 1.415 . S
C892 C897 1.425 . S
C892 C899 1.409 . S
C893 H885 0.930 . S
C893 C891 1.419 . S
C893 C894 1.362 . S
C894 H886 0.930 . S
C894 C893 1.362 . S
C894 C897 1.409 . S
C895 H887 0.930 . S
C895 C896 1.355 . S
C895 C897 1.415 . S
C896 C895 1.355 . S
C896 C898 1.419 . S
C897 C892 1.425 . S
C897 C894 1.409 . S
C897 C895 1.415 . S
C898 H888 0.930 . S
C898 C896 1.419 . S
C898 C899 1.362 . S
C899 H889 0.930 . S
C899 C892 1.409 . S
C899 C898 1.362 . S
H900 C906 0.930 . S
H901 C909 0.930 . S
H902 C910 0.930 . S
H903 C911 0.930 . S
H904 C914 0.930 . S
H905 C915 0.930 . S
C906 H900 0.930 . S
C906 C907 1.355 . S
C906 C908 1.415 . S
C907 C906 1.355 . S
C907 C909 1.419 . S
C908 C906 1.415 . S
C908 C913 1.425 . S
C908 C915 1.409 . S
C909 H901 0.930 . S
C909 C907 1.419 . S
C909 C910 1.362 . S
C910 H902 0.930 . S
C910 C909 1.362 . S
C910 C913 1.409 . S
C911 H903 0.930 . S
C911 C912 1.355 . S
C911 C913 1.415 . S
C912 C911 1.355 . S
C912 C914 1.419 . S
C913 C908 1.425 . S
C913 C910 1.409 . S
C913 C911 1.415 . S
C914 H904 0.930 . S
C914 C912 1.419 . S
C914 C915 1.362 . S
C915 H905 0.930 . S
C915 C908 1.409 . S
C915 C914 1.362 . S
H916 C922 0.930 . S
H917 C925 0.930 . S
H918 C926 0.930 . S
H919 C927 0.930 . S
H920 C930 0.930 . S
H921 C931 0.930 . S
C922 H916 0.930 . S
C922 C923 1.355 . S
C922 C924 1.415 . S
C923 C922 1.355 . S
C923 C925 1.419 . S
C924 C922 1.415 . S
C924 C929 1.425 . S
C924 C931 1.409 . S
C925 H917 0.930 . S
C925 C923 1.419 . S
C925 C926 1.362 . S
C926 H918 0.930 . S
C926 C925 1.362 . S
C926 C929 1.409 . S
C927 H919 0.930 . S
C927 C928 1.355 . S
C927 C929 1.415 . S
C928 C927 1.355 . S
C928 C930 1.419 . S
C929 C924 1.425 . S
C929 C926 1.409 . S
C929 C927 1.415 . S
C930 H920 0.930 . S
C930 C928 1.419 . S
C930 C931 1.362 . S
C931 H921 0.930 . S
C931 C924 1.409 . S
C931 C930 1.362 . S
H932 C938 0.930 . S
H933 C941 0.930 . S
H934 C942 0.930 . S
H935 C943 0.930 . S
H936 C946 0.930 . S
H937 C947 0.930 . S
C938 H932 0.930 . S
C938 C939 1.355 . S
C938 C940 1.415 . S
C939 C938 1.355 . S
C939 C941 1.419 . S
C940 C938 1.415 . S
C940 C945 1.425 . S
C940 C947 1.409 . S
C941 H933 0.930 . S
C941 C939 1.419 . S
C941 C942 1.362 . S
C942 H934 0.930 . S
C942 C941 1.362 . S
C942 C945 1.409 . S
C943 H935 0.930 . S
C943 C944 1.355 . S
C943 C945 1.415 . S
C944 C943 1.355 . S
C944 C946 1.419 . S
C945 C940 1.425 . S
C945 C942 1.409 . S
C945 C943 1.415 . S
C946 H936 0.930 . S
C946 C944 1.419 . S
C946 C947 1.362 . S
C947 H937 0.930 . S
C947 C940 1.409 . S
C947 C946 1.362 . S
H948 C954 0.930 . S
H949 C957 0.930 . S
H950 C958 0.930 . S
H951 C959 0.930 . S
H952 C962 0.930 . S
H953 C963 0.930 . S
C954 H948 0.930 . S
C954 C955 1.355 . S
C954 C956 1.415 . S
C955 C954 1.355 . S
C955 C957 1.419 . S
C956 C954 1.415 . S
C956 C961 1.425 . S
C956 C963 1.409 . S
C957 H949 0.930 . S
C957 C955 1.419 . S
C957 C958 1.362 . S
C958 H950 0.930 . S
C958 C957 1.362 . S
C958 C961 1.409 . S
C959 H951 0.930 . S
C959 C960 1.355 . S
C959 C961 1.415 . S
C960 C959 1.355 . S
C960 C962 1.419 . S
C961 C956 1.425 . S
C961 C958 1.409 . S
C961 C959 1.415 . S
C962 H952 0.930 . S
C962 C960 1.419 . S
C962 C963 1.362 . S
C963 H953 0.930 . S
C963 C956 1.409 . S
C963 C962 1.362 . S
H964 C970 0.930 . S
H965 C973 0.930 . S
H966 C974 0.930 . S
H967 C975 0.930 . S
H968 C978 0.930 . S
H969 C979 0.930 . S
C970 H964 0.930 . S
C970 C971 1.355 . S
C970 C972 1.415 . S
C971 C970 1.355 . S
C971 C973 1.419 . S
C972 C970 1.415 . S
C972 C977 1.425 . S
C972 C979 1.409 . S
C973 H965 0.930 . S
C973 C971 1.419 . S
C973 C974 1.362 . S
C974 H966 0.930 . S
C974 C973 1.362 . S
C974 C977 1.409 . S
C975 H967 0.930 . S
C975 C976 1.355 . S
C975 C977 1.415 . S
C976 C975 1.355 . S
C976 C978 1.419 . S
C977 C972 1.425 . S
C977 C974 1.409 . S
C977 C975 1.415 . S
C978 H968 0.930 . S
C978 C976 1.419 . S
C978 C979 1.362 . S
C979 H969 0.930 . S
C979 C972 1.409 . S
C979 C978 1.362 . S
H980 C986 0.930 . S
H981 C989 0.930 . S
H982 C990 0.930 . S
H983 C991 0.930 . S
H984 C994 0.930 . S
H985 C995 0.930 . S
C986 H980 0.930 . S
C986 C987 1.355 . S
C986 C988 1.415 . S
C987 C986 1.355 . S
C987 C989 1.419 . S
C988 C986 1.415 . S
C988 C993 1.425 . S
C988 C995 1.409 . S
C989 H981 0.930 . S
C989 C987 1.419 . S
C989 C990 1.362 . S
C990 H982 0.930 . S
C990 C989 1.362 . S
C990 C993 1.409 . S
C991 H983 0.930 . S
C991 C992 1.355 . S
C991 C993 1.415 . S
C992 C991 1.355 . S
C992 C994 1.419 . S
C993 C988 1.425 . S
C993 C990 1.409 . S
C993 C991 1.415 . S
C994 H984 0.930 . S
C994 C992 1.419 . S
C994 C995 1.362 . S
C995 H985 0.930 . S
C995 C988 1.409 . S
C995 C994 1.362 . S
H996 C1002 0.930 . S
H997 C1005 0.930 . S
H998 C1006 0.930 . S
H999 C1007 0.930 . S
H1000 C1010 0.930 . S
H1001 C1011 0.930 . S
C1002 H996 0.930 . S
C1002 C1003 1.355 . S
C1002 C1004 1.415 . S
C1003 C1002 1.355 . S
C1003 C1005 1.419 . S
C1004 C1002 1.415 . S
C1004 C1009 1.425 . S
C1004 C1011 1.409 . S
C1005 H997 0.930 . S
C1005 C1003 1.419 . S
C1005 C1006 1.362 . S
C1006 H998 0.930 . S
C1006 C1005 1.362 . S
C1006 C1009 1.409 . S
C1007 H999 0.930 . S
C1007 C1008 1.355 . S
C1007 C1009 1.415 . S
C1008 C1007 1.355 . S
C1008 C1010 1.419 . S
C1009 C1004 1.425 . S
C1009 C1006 1.409 . S
C1009 C1007 1.415 . S
C1010 H1000 0.930 . S
C1010 C1008 1.419 . S
C1010 C1011 1.362 . S
C1011 H1001 0.930 . S
C1011 C1004 1.409 . S
C1011 C1010 1.362 . S
H1012 C1018 0.930 . S
H1013 C1021 0.930 . S
H1014 C1022 0.930 . S
H1015 C1023 0.930 . S
H1016 C1026 0.930 . S
H1017 C1027 0.930 . S
C1018 H1012 0.930 . S
C1018 C1019 1.355 . S
C1018 C1020 1.415 . S
C1019 C1018 1.355 . S
C1019 C1021 1.419 . S
C1020 C1018 1.415 . S
C1020 C1025 1.425 . S
C1020 C1027 1.409 . S
C1021 H1013 0.930 . S
C1021 C1019 1.419 . S
C1021 C1022 1.362 . S
C1022 H1014 0.930 . S
C1022 C1021 1.362 . S
C1022 C1025 1.409 . S
C1023 H1015 0.930 . S
C1023 C1024 1.355 . S
C1023 C1025 1.415 . S
C1024 C1023 1.355 . S
C1024 C1026 1.419 . S
C1025 C1020 1.425 . S
C1025 C1022 1.409 . S
C1025 C1023 1.415 . S
C1026 H1016 0.930 . S
C1026 C1024 1.419 . S
C1026 C1027 1.362 . S
C1027 H1017 0.930 . S
C1027 C1020 1.409 . S
C1027 C1026 1.362 . S
H1028 C1034 0.930 . S
H1029 C1037 0.930 . S
H1030 C1038 0.930 . S
H1031 C1039 0.930 . S
H1032 C1042 0.930 . S
H1033 C1043 0.930 . S
C1034 H1028 0.930 . S
C1034 C1035 1.355 . S
C1034 C1036 1.415 . S
C1035 C1034 1.355 . S
C1035 C1037 1.419 . S
C1036 C1034 1.415 . S
C1036 C1041 1.425 . S
C1036 C1043 1.409 . S
C1037 H1029 0.930 . S
C1037 C1035 1.419 . S
C1037 C1038 1.362 . S
C1038 H1030 0.930 . S
C1038 C1037 1.362 . S
C1038 C1041 1.409 . S
C1039 H1031 0.930 . S
C1039 C1040 1.355 . S
C1039 C1041 1.415 . S
C1040 C1039 1.355 . S
C1040 C1042 1.419 . S
C1041 C1036 1.425 . S
C1041 C1038 1.409 . S
C1041 C1039 1.415 . S
C1042 H1032 0.930 . S
C1042 C1040 1.419 . S
C1042 C1043 1.362 . S
C1043 H1033 0.930 . S
C1043 C1036 1.409 . S
C1043 C1042 1.362 . S
H1044 C1050 0.930 . S
H1045 C1053 0.930 . S
H1046 C1054 0.930 . S
H1047 C1055 0.930 . S
H1048 C1058 0.930 . S
H1049 C1059 0.930 . S
C1050 H1044 0.930 . S
C1050 C1051 1.355 . S
C1050 C1052 1.415 . S
C1051 C1050 1.355 . S
C1051 C1053 1.419 . S
C1052 C1050 1.415 . S
C1052 C1057 1.425 . S
C1052 C1059 1.409 . S
C1053 H1045 0.930 . S
C1053 C1051 1.419 . S
C1053 C1054 1.362 . S
C1054 H1046 0.930 . S
C1054 C1053 1.362 . S
C1054 C1057 1.409 . S
C1055 H1047 0.930 . S
C1055 C1056 1.355 . S
C1055 C1057 1.415 . S
C1056 C1055 1.355 . S
C1056 C1058 1.419 . S
C1057 C1052 1.425 . S
C1057 C1054 1.409 . S
C1057 C1055 1.415 . S
C1058 H1048 0.930 . S
C1058 C1056 1.419 . S
C1058 C1059 1.362 . S
C1059 H1049 0.930 . S
C1059 C1052 1.409 . S
C1059 C1058 1.362 . S
H1060 C1066 0.930 . S
H1061 C1069 0.930 . S
H1062 C1070 0.930 . S
H1063 C1071 0.930 . S
H1064 C1074 0.930 . S
H1065 C1075 0.930 . S
C1066 H1060 0.930 . S
C1066 C1067 1.355 . S
C1066 C1068 1.415 . S
C1067 C1066 1.355 . S
C1067 C1069 1.419 . S
C1068 C1066 1.415 . S
C1068 C1073 1.425 . S
C1068 C1075 1.409 . S
C1069 H1061 0.930 . S
C1069 C1067 1.419 . S
C1069 C1070 1.362 . S
C1070 H1062 0.930 . S
C1070 C1069 1.362 . S
C1070 C1073 1.409 . S
C1071 H1063 0.930 . S
C1071 C1072 1.355 . S
C1071 C1073 1.415 . S
C1072 C1071 1.355 . S
C1072 C1074 1.419 . S
C1073 C1068 1.425 . S
C1073 C1070 1.409 . S
C1073 C1071 1.415 . S
C1074 H1064 0.930 . S
C1074 C1072 1.419 . S
C1074 C1075 1.362 . S
C1075 H1065 0.930 . S
C1075 C1068 1.409 . S
C1075 C1074 1.362 . S
H1076 C1082 0.930 . S
H1077 C1085 0.930 . S
H1078 C1086 0.930 . S
H1079 C1087 0.930 . S
H1080 C1090 0.930 . S
H1081 C1091 0.930 . S
C1082 H1076 0.930 . S
C1082 C1083 1.355 . S
C1082 C1084 1.415 . S
C1083 C1082 1.355 . S
C1083 C1085 1.419 . S
C1084 C1082 1.415 . S
C1084 C1089 1.425 . S
C1084 C1091 1.409 . S
C1085 H1077 0.930 . S
C1085 C1083 1.419 . S
C1085 C1086 1.362 . S
C1086 H1078 0.930 . S
C1086 C1085 1.362 . S
C1086 C1089 1.409 . S
C1087 H1079 0.930 . S
C1087 C1088 1.355 . S
C1087 C1089 1.415 . S
C1088 C1087 1.355 . S
C1088 C1090 1.419 . S
C1089 C1084 1.425 . S
C1089 C1086 1.409 . S
C1089 C1087 1.415 . S
C1090 H1080 0.930 . S
C1090 C1088 1.419 . S
C1090 C1091 1.362 . S
C1091 H1081 0.930 . S
C1091 C1084 1.409 . S
C1091 C1090 1.362 . S
H1092 C1098 0.930 . S
H1093 C1101 0.930 . S
H1094 C1102 0.930 . S
H1095 C1103 0.930 . S
H1096 C1106 0.930 . S
H1097 C1107 0.930 . S
C1098 H1092 0.930 . S
C1098 C1099 1.355 . S
C1098 C1100 1.415 . S
C1099 C1098 1.355 . S
C1099 C1101 1.419 . S
C1100 C1098 1.415 . S
C1100 C1105 1.425 . S
C1100 C1107 1.409 . S
C1101 H1093 0.930 . S
C1101 C1099 1.419 . S
C1101 C1102 1.362 . S
C1102 H1094 0.930 . S
C1102 C1101 1.362 . S
C1102 C1105 1.409 . S
C1103 H1095 0.930 . S
C1103 C1104 1.355 . S
C1103 C1105 1.415 . S
C1104 C1103 1.355 . S
C1104 C1106 1.419 . S
C1105 C1100 1.425 . S
C1105 C1102 1.409 . S
C1105 C1103 1.415 . S
C1106 H1096 0.930 . S
C1106 C1104 1.419 . S
C1106 C1107 1.362 . S
C1107 H1097 0.930 . S
C1107 C1100 1.409 . S
C1107 C1106 1.362 . S
H1108 C1114 0.930 . S
H1109 C1117 0.930 . S
H1110 C1118 0.930 . S
H1111 C1119 0.930 . S
H1112 C1122 0.930 . S
H1113 C1123 0.930 . S
C1114 H1108 0.930 . S
C1114 C1115 1.355 . S
C1114 C1116 1.415 . S
C1115 C1114 1.355 . S
C1115 C1117 1.419 . S
C1116 C1114 1.415 . S
C1116 C1121 1.425 . S
C1116 C1123 1.409 . S
C1117 H1109 0.930 . S
C1117 C1115 1.419 . S
C1117 C1118 1.362 . S
C1118 H1110 0.930 . S
C1118 C1117 1.362 . S
C1118 C1121 1.409 . S
C1119 H1111 0.930 . S
C1119 C1120 1.355 . S
C1119 C1121 1.415 . S
C1120 C1119 1.355 . S
C1120 C1122 1.419 . S
C1121 C1116 1.425 . S
C1121 C1118 1.409 . S
C1121 C1119 1.415 . S
C1122 H1112 0.930 . S
C1122 C1120 1.419 . S
C1122 C1123 1.362 . S
C1123 H1113 0.930 . S
C1123 C1116 1.409 . S
C1123 C1122 1.362 . S
H1124 C1130 0.930 . S
H1125 C1133 0.930 . S
H1126 C1134 0.930 . S
H1127 C1135 0.930 . S
H1128 C1138 0.930 . S
H1129 C1139 0.930 . S
C1130 H1124 0.930 . S
C1130 C1131 1.355 . S
C1130 C1132 1.415 . S
C1131 C1130 1.355 . S
C1131 C1133 1.419 . S
C1132 C1130 1.415 . S
C1132 C1137 1.425 . S
C1132 C1139 1.409 . S
C1133 H1125 0.930 . S
C1133 C1131 1.419 . S
C1133 C1134 1.362 . S
C1134 H1126 0.930 . S
C1134 C1133 1.362 . S
C1134 C1137 1.409 . S
C1135 H1127 0.930 . S
C1135 C1136 1.355 . S
C1135 C1137 1.415 . S
C1136 C1135 1.355 . S
C1136 C1138 1.419 . S
C1137 C1132 1.425 . S
C1137 C1134 1.409 . S
C1137 C1135 1.415 . S
C1138 H1128 0.930 . S
C1138 C1136 1.419 . S
C1138 C1139 1.362 . S
C1139 H1129 0.930 . S
C1139 C1132 1.409 . S
C1139 C1138 1.362 . S
H1140 C1146 0.930 . S
H1141 C1149 0.930 . S
H1142 C1150 0.930 . S
H1143 C1151 0.930 . S
H1144 C1154 0.930 . S
H1145 C1155 0.930 . S
C1146 H1140 0.930 . S
C1146 C1147 1.355 . S
C1146 C1148 1.415 . S
C1147 C1146 1.355 . S
C1147 C1149 1.419 . S
C1148 C1146 1.415 . S
C1148 C1153 1.425 . S
C1148 C1155 1.409 . S
C1149 H1141 0.930 . S
C1149 C1147 1.419 . S
C1149 C1150 1.362 . S
C1150 H1142 0.930 . S
C1150 C1149 1.362 . S
C1150 C1153 1.409 . S
C1151 H1143 0.930 . S
C1151 C1152 1.355 . S
C1151 C1153 1.415 . S
C1152 C1151 1.355 . S
C1152 C1154 1.419 . S
C1153 C1148 1.425 . S
C1153 C1150 1.409 . S
C1153 C1151 1.415 . S
C1154 H1144 0.930 . S
C1154 C1152 1.419 . S
C1154 C1155 1.362 . S
C1155 H1145 0.930 . S
C1155 C1148 1.409 . S
C1155 C1154 1.362 . S
H1156 C1162 0.930 . S
H1157 C1165 0.930 . S
H1158 C1166 0.930 . S
H1159 C1167 0.930 . S
H1160 C1170 0.930 . S
H1161 C1171 0.930 . S
C1162 H1156 0.930 . S
C1162 C1163 1.355 . S
C1162 C1164 1.415 . S
C1163 C1162 1.355 . S
C1163 C1165 1.419 . S
C1164 C1162 1.415 . S
C1164 C1169 1.425 . S
C1164 C1171 1.409 . S
C1165 H1157 0.930 . S
C1165 C1163 1.419 . S
C1165 C1166 1.362 . S
C1166 H1158 0.930 . S
C1166 C1165 1.362 . S
C1166 C1169 1.409 . S
C1167 H1159 0.930 . S
C1167 C1168 1.355 . S
C1167 C1169 1.415 . S
C1168 C1167 1.355 . S
C1168 C1170 1.419 . S
C1169 C1164 1.425 . S
C1169 C1166 1.409 . S
C1169 C1167 1.415 . S
C1170 H1160 0.930 . S
C1170 C1168 1.419 . S
C1170 C1171 1.362 . S
C1171 H1161 0.930 . S
C1171 C1164 1.409 . S
C1171 C1170 1.362 . S
H1172 C1178 0.930 . S
H1173 C1181 0.930 . S
H1174 C1182 0.930 . S
H1175 C1183 0.930 . S
H1176 C1186 0.930 . S
H1177 C1187 0.930 . S
C1178 H1172 0.930 . S
C1178 C1179 1.355 . S
C1178 C1180 1.415 . S
C1179 C1178 1.355 . S
C1179 C1181 1.419 . S
C1180 C1178 1.415 . S
C1180 C1185 1.425 . S
C1180 C1187 1.409 . S
C1181 H1173 0.930 . S
C1181 C1179 1.419 . S
C1181 C1182 1.362 . S
C1182 H1174 0.930 . S
C1182 C1181 1.362 . S
C1182 C1185 1.409 . S
C1183 H1175 0.930 . S
C1183 C1184 1.355 . S
C1183 C1185 1.415 . S
C1184 C1183 1.355 . S
C1184 C1186 1.419 . S
C1185 C1180 1.425 . S
C1185 C1182 1.409 . S
C1185 C1183 1.415 . S
C1186 H1176 0.930 . S
C1186 C1184 1.419 . S
C1186 C1187 1.362 . S
C1187 H1177 0.930 . S
C1187 C1180 1.409 . S
C1187 C1186 1.362 . S
H1188 C1194 0.930 . S
H1189 C1197 0.930 . S
H1190 C1198 0.930 . S
H1191 C1199 0.930 . S
H1192 C1202 0.930 . S
H1193 C1203 0.930 . S
C1194 H1188 0.930 . S
C1194 C1195 1.355 . S
C1194 C1196 1.415 . S
C1195 C1194 1.355 . S
C1195 C1197 1.419 . S
C1196 C1194 1.415 . S
C1196 C1201 1.425 . S
C1196 C1203 1.409 . S
C1197 H1189 0.930 . S
C1197 C1195 1.419 . S
C1197 C1198 1.362 . S
C1198 H1190 0.930 . S
C1198 C1197 1.362 . S
C1198 C1201 1.409 . S
C1199 H1191 0.930 . S
C1199 C1200 1.355 . S
C1199 C1201 1.415 . S
C1200 C1199 1.355 . S
C1200 C1202 1.419 . S
C1201 C1196 1.425 . S
C1201 C1198 1.409 . S
C1201 C1199 1.415 . S
C1202 H1192 0.930 . S
C1202 C1200 1.419 . S
C1202 C1203 1.362 . S
C1203 H1193 0.930 . S
C1203 C1196 1.409 . S
C1203 C1202 1.362 . S
H1204 C1210 0.930 . S
H1205 C1213 0.930 . S
H1206 C1214 0.930 . S
H1207 C1215 0.930 . S
H1208 C1218 0.930 . S
H1209 C1219 0.930 . S
C1210 H1204 0.930 . S
C1210 C1211 1.355 . S
C1210 C1212 1.415 . S
C1211 C1210 1.355 . S
C1211 C1213 1.419 . S
C1212 C1210 1.415 . S
C1212 C1217 1.425 . S
C1212 C1219 1.409 . S
C1213 H1205 0.930 . S
C1213 C1211 1.419 . S
C1213 C1214 1.362 . S
C1214 H1206 0.930 . S
C1214 C1213 1.362 . S
C1214 C1217 1.409 . S
C1215 H1207 0.930 . S
C1215 C1216 1.355 . S
C1215 C1217 1.415 . S
C1216 C1215 1.355 . S
C1216 C1218 1.419 . S
C1217 C1212 1.425 . S
C1217 C1214 1.409 . S
C1217 C1215 1.415 . S
C1218 H1208 0.930 . S
C1218 C1216 1.419 . S
C1218 C1219 1.362 . S
C1219 H1209 0.930 . S
C1219 C1212 1.409 . S
C1219 C1218 1.362 . S
H1220 C1226 0.930 . S
H1221 C1229 0.930 . S
H1222 C1230 0.930 . S
H1223 C1231 0.930 . S
H1224 C1234 0.930 . S
H1225 C1235 0.930 . S
C1226 H1220 0.930 . S
C1226 C1227 1.355 . S
C1226 C1228 1.415 . S
C1227 C1226 1.355 . S
C1227 C1229 1.419 . S
C1228 C1226 1.415 . S
C1228 C1233 1.425 . S
C1228 C1235 1.409 . S
C1229 H1221 0.930 . S
C1229 C1227 1.419 . S
C1229 C1230 1.362 . S
C1230 H1222 0.930 . S
C1230 C1229 1.362 . S
C1230 C1233 1.409 . S
C1231 H1223 0.930 . S
C1231 C1232 1.355 . S
C1231 C1233 1.415 . S
C1232 C1231 1.355 . S
C1232 C1234 1.419 . S
C1233 C1228 1.425 . S
C1233 C1230 1.409 . S
C1233 C1231 1.415 . S
C1234 H1224 0.930 . S
C1234 C1232 1.419 . S
C1234 C1235 1.362 . S
C1235 H1225 0.930 . S
C1235 C1228 1.409 . S
C1235 C1234 1.362 . S
H1236 C1242 0.930 . S
H1237 C1245 0.930 . S
H1238 C1246 0.930 . S
H1239 C1247 0.930 . S
H1240 C1250 0.930 . S
H1241 C1251 0.930 . S
C1242 H1236 0.930 . S
C1242 C1243 1.355 . S
C1242 C1244 1.415 . S
C1243 C1242 1.355 . S
C1243 C1245 1.419 . S
C1244 C1242 1.415 . S
C1244 C1249 1.425 . S
C1244 C1251 1.409 . S
C1245 H1237 0.930 . S
C1245 C1243 1.419 . S
C1245 C1246 1.362 . S
C1246 H1238 0.930 . S
C1246 C1245 1.362 . S
C1246 C1249 1.409 . S
C1247 H1239 0.930 . S
C1247 C1248 1.355 . S
C1247 C1249 1.415 . S
C1248 C1247 1.355 . S
C1248 C1250 1.419 . S
C1249 C1244 1.425 . S
C1249 C1246 1.409 . S
C1249 C1247 1.415 . S
C1250 H1240 0.930 . S
C1250 C1248 1.419 . S
C1250 C1251 1.362 . S
C1251 H1241 0.930 . S
C1251 C1244 1.409 . S
C1251 C1250 1.362 . S
C496 C195 1.362 . S
C491 C9 1.337 . S
C512 C173 1.436 . S
C507 C22 1.469 . S
C528 C170 0.734 . S
C523 C49 0.651 . S
C539 C61 1.496 . S
C544 C182 1.424 . S
C555 C81 1.480 . S
C560 C165 1.487 . S
C576 C187 0.685 . S
C571 C108 0.747 . S
C587 C122 1.520 . S
C592 C192 1.435 . S
C603 C148 1.374 . S
C608 C188 1.388 . S
C624 C246 2.328 . S
C619 C18 2.328 . S
C635 C39 1.314 . S
C640 C296 1.366 . S
C656 C219 2.279 . S
C651 C58 2.321 . S
C672 C295 0.730 . S
C667 C69 0.788 . S
C683 C89 0.798 . S
C688 C224 0.731 . S
C704 C290 1.427 . S
C699 C102 1.476 . S
C715 C139 1.294 . S
C720 C249 1.361 . S
C731 C142 1.482 . S
C736 C281 1.420 . S
C747 C1 1.484 . S
C752 C273 1.423 . S
C763 C98 1.285 . S
C768 C303 1.361 . S
C784 C227 2.326 . S
C779 C119 2.318 . S
C800 C278 0.765 . S
C795 C128 0.696 . S
C811 C159 2.300 . S
C816 C236 2.285 . S
C827 C41 1.526 . S
C832 C300 1.492 . S
C848 C242 1.390 . S
C843 C78 1.338 . S
C859 C28 0.691 . S
C864 C241 0.758 . S
C875 C149 1.341 . S
C880 C357 1.362 . S
C891 C82 1.521 . S
C896 C335 1.441 . S
C912 C332 0.688 . S
C907 C109 0.747 . S
C928 C344 1.435 . S
C923 C121 1.526 . S
C939 C21 1.504 . S
C944 C327 1.407 . S
C960 C349 0.703 . S
C955 C48 0.732 . S
C971 C62 1.489 . S
C976 C354 1.444 . S
C987 C8 1.380 . S
C992 C350 1.376 . S
C1003 C158 2.300 . S
C1008 C408 2.301 . S
C1024 C458 1.365 . S
C1019 C99 1.292 . S
C1035 C118 2.293 . S
C1040 C381 2.270 . S
C1051 C129 0.723 . S
C1056 C457 0.742 . S
C1072 C386 0.741 . S
C1067 C29 0.696 . S
C1083 C42 1.486 . S
C1088 C452 1.445 . S
C1104 C411 1.396 . S
C1099 C79 1.343 . S
C1120 C443 1.484 . S
C1115 C2 1.522 . S
C1136 C435 1.438 . S
C1131 C141 1.498 . S
C1147 C38 1.356 . S
C1152 C465 1.398 . S
C1163 C59 2.321 . S
C1168 C389 2.288 . S
C1184 C440 0.743 . S
C1179 C68 0.778 . S
C1195 C19 2.319 . S
C1200 C398 2.285 . S
C1211 C101 1.500 . S
C1216 C462 1.448 . S
C1232 C404 1.359 . S
C1227 C138 1.278 . S
C1248 C403 0.741 . S
C1243 C88 0.800 . S
