# Generated by pormake.
# Topology pts, (4,4)-cn, num edge types: 1
# Building blocks:
#     Node 0, Type 0, BuildingBlock: NAWXER_clean_sbu_0, # of connection points: 4
#     Node 1, Type 0, BuildingBlock: NAWXER_clean_sbu_0, # of connection points: 4
#     Node 2, Type 1, BuildingBlock: UXUYUI_clean_sbu_0, # of connection points: 4
#     Node 3, Type 1, BuildingBlock: UXUYUI_clean_sbu_0, # of connection points: 4
#     Edge 4, Type (0, 1), BuildingBlock: FUNLAD_clean_linker_1, # of connection points: 2
#     Edge 5, Type (0, 1), BuildingBlock: FUNLAD_clean_linker_1, # of connection points: 2
#     Edge 6, Type (0, 1), BuildingBlock: FUNLAD_clean_linker_1, # of connection points: 2
#     Edge 7, Type (0, 1), BuildingBlock: FUNLAD_clean_linker_1, # of connection points: 2
#     Edge 8, Type (0, 1), BuildingBlock: FUNLAD_clean_linker_1, # of connection points: 2
#     Edge 9, Type (0, 1), BuildingBlock: FUNLAD_clean_linker_1, # of connection points: 2
#     Edge 10, Type (0, 1), BuildingBlock: FUNLAD_clean_linker_1, # of connection points: 2
#     Edge 11, Type (0, 1), BuildingBlock: FUNLAD_clean_linker_1, # of connection points: 2
# Relax obj value: 0.015
# Max RMSD: 0.059
# Mean RMSD: 0.051
data_MOF--net-pts--node1-NAWXER_clean_sbu_0--node2-UXUYUI_clean_sbu_0--edge1-FUNLAD_clean_linker_1
_symmetry_space_group_name_H-M    P1
_symmetry_Int_Tables_number       1
_symmetry_cell_setting            triclinic
loop_
_symmetry_equiv_pos_as_xyz
'x, y, z'
_cell_length_a     29.596835
_cell_length_b     29.63236
_cell_length_c     47.240282
_cell_angle_alpha  89.835231
_cell_angle_beta   89.934995
_cell_angle_gamma 90.2092
loop_
_atom_site_label
_atom_site_type_symbol
_atom_site_fract_x
_atom_site_fract_y
_atom_site_fract_z
_atom_type_partial_charge
C0 C 0.45345 0.04605 0.97987 0.0
C1 C 0.57204 0.04571 0.05135 0.0
O2 O 0.46507 1.00597 0.98711 0.0
Zn3 Zn 0.51255 0.9749 0.01555 0.0
O4 O 0.47294 0.07982 0.99104 0.0
Zn5 Zn 0.51262 0.04635 0.01571 0.0
O6 O 0.55919 0.0158 0.98647 0.0
O7 O 0.55139 0.94189 0.99016 0.0
O8 O 0.55251 0.07956 0.04037 0.0
O9 O 0.56028 1.00569 0.04402 0.0
O10 O 0.47356 0.94124 0.04072 0.0
O11 O 0.46603 0.01504 0.04487 0.0
C12 C 0.57056 0.97587 0.97889 0.0
C13 C 0.45455 0.97487 0.05221 0.0
C14 C 0.06011 0.56269 0.47643 0.0
C15 C 0.03922 0.44619 0.54874 0.0
O16 O 0.01876 0.55719 0.48382 0.0
Zn17 Zn 0.98007 0.5162 0.51231 0.0
O18 O 0.09061 0.53842 0.48761 0.0
Zn19 Zn 0.05121 0.50382 0.51246 0.0
O20 O 0.013 0.46352 0.48348 0.0
O21 O 0.94113 0.48243 0.48699 0.0
O22 O 0.07635 0.45838 0.53743 0.0
O23 O 1.00222 0.46507 0.54129 0.0
O24 O 0.95453 0.56125 0.53729 0.0
O25 O 0.02857 0.55429 0.54156 0.0
C26 C 0.97176 0.45836 0.47582 0.0
C27 C 0.99149 0.57315 0.54885 0.0
Li28 Li 1.01028 0.05191 0.2846 0.0
Li29 Li 1.01163 0.96883 0.28519 0.0
Li30 Li 0.05149 0.01353 0.24639 0.0
Li31 Li 0.97039 1.01069 0.24985 0.0
C32 C 0.09153 0.01675 0.31067 0.0
N33 N 0.14848 0.02562 0.35669 0.0
C34 C 0.07868 0.9998 0.33713 0.0
C35 C 0.13374 0.03757 0.30754 0.0
C36 C 0.10782 1.00481 0.36016 0.0
C37 C 0.16193 0.04192 0.33108 0.0
C38 C 0.9219 0.0336 0.29847 0.0
C39 C 0.8579 0.04649 0.32901 0.0
N40 N 0.8469 0.0835 0.31342 0.0
C41 C 0.90998 0.07182 0.28277 0.0
C42 C 0.89571 0.02085 0.32181 0.0
C43 C 0.87195 0.09657 0.29066 0.0
C44 C 0.99649 0.14527 0.29861 0.0
N45 N 1.00731 0.10389 0.30918 0.0
C46 C 1.00953 0.13384 0.35618 0.0
C47 C 0.01281 0.09757 0.33749 0.0
C48 C 0.99904 0.17693 0.34583 0.0
C49 C 0.99252 0.18246 0.31656 0.0
H50 H 0.99014 0.14955 0.27629 0.0
H51 H 0.01876 0.0642 0.34573 0.0
C52 C 0.05526 0.89322 0.30894 0.0
N53 N 0.01545 0.91585 0.30775 0.0
C54 C 0.05951 0.85493 0.32608 0.0
C55 C 0.98143 0.86367 0.34002 0.0
C56 C 0.97873 0.90178 0.32265 0.0
C57 C 0.02229 0.83992 0.3422 0.0
H58 H 0.08382 0.90518 0.29669 0.0
H59 H 0.94743 0.92033 0.32113 0.0
C60 C 0.03218 0.10262 0.23579 0.0
N61 N 0.08034 0.17935 0.22128 0.0
C62 C 0.01629 0.13131 0.21451 0.0
C63 C 0.07254 0.11296 0.24967 0.0
C64 C 0.04112 0.16995 0.20749 0.0
C65 C 0.09641 0.15189 0.24205 0.0
C66 C 0.98787 0.9346 0.22492 0.0
C67 C 0.99237 0.94263 0.1959 0.0
C68 C 0.95682 0.90246 0.23464 0.0
C69 C 0.96524 0.91856 0.17699 0.0
C70 C 0.93035 0.87907 0.21504 0.0
N71 N 0.93504 0.88757 0.18688 0.0
C72 C 0.14181 0.99504 0.23103 0.0
C73 C 0.09849 0.03132 0.19553 0.0
C74 C 0.17946 0.99389 0.21316 0.0
N75 N 0.10246 0.01356 0.22196 0.0
C76 C 0.13525 0.03097 0.17699 0.0
C77 C 0.17631 0.0117 0.18556 0.0
H78 H 0.1439 0.98106 0.25216 0.0
H79 H 0.06663 0.04555 0.18881 0.0
C80 C 0.87924 0.98793 0.23572 0.0
N81 N 0.91734 1.00951 0.22689 0.0
C82 C 0.84072 0.98758 0.21864 0.0
C83 C 0.88157 0.03126 0.18364 0.0
C84 C 0.91923 0.03078 0.2014 0.0
C85 C 0.84134 1.00983 0.19235 0.0
H86 H 0.87883 0.97091 0.25601 0.0
H87 H 0.95029 0.04697 0.19475 0.0
O88 O 0.06393 1.01123 0.28768 0.0
O89 O 0.95928 1.00897 0.29142 0.0
O90 O 1.00836 0.06444 0.24262 0.0
O91 O 0.01305 0.95879 0.2438 0.0
H92 H 0.04622 0.98355 0.34001 0.0
H93 H 0.14482 0.05004 0.28712 0.0
H94 H 0.09808 0.99218 0.3808 0.0
H95 H 0.19459 0.0581 0.32896 0.0
H96 H 0.83734 0.037 0.34703 0.0
H97 H 0.92984 0.08242 0.26471 0.0
H98 H 0.90459 0.99151 0.33429 0.0
H99 H 0.86237 0.12621 0.27869 0.0
H100 H 0.01438 0.1281 0.37863 0.0
H101 H 0.98496 0.21508 0.30741 0.0
H102 H 0.09152 0.83751 0.32633 0.0
H103 H 0.95188 0.85311 0.3519 0.0
H104 H 0.98507 0.12382 0.20355 0.0
H105 H 0.08511 0.09138 0.26625 0.0
H106 H 0.02921 0.19245 0.19106 0.0
H107 H 0.12767 0.16031 0.25267 0.0
H108 H 0.01615 0.96757 0.1881 0.0
H109 H 0.95287 0.89606 0.25708 0.0
H110 H 0.96809 0.92462 0.15447 0.0
H111 H 0.90596 0.85428 0.22224 0.0
H112 H 0.21053 0.9797 0.22119 0.0
H113 H 0.13147 0.04523 0.15598 0.0
H114 H 0.8106 0.97026 0.22598 0.0
H115 H 0.88462 0.04756 0.16323 0.0
Li116 Li 0.97145 0.01428 0.78274 0.0
Li117 Li 0.05572 1.00135 0.78297 0.0
Li118 Li 0.01667 0.04734 0.74498 0.0
Li119 Li 1.00658 0.96845 0.74672 0.0
C120 C 1.00871 0.08796 0.80724 0.0
N121 N 0.98131 0.14421 0.85047 0.0
C122 C 0.03263 0.08902 0.83273 0.0
C123 C 0.97101 0.11565 0.80368 0.0
C124 C 0.01822 0.11768 0.85434 0.0
C125 C 0.95763 0.14378 0.82581 0.0
C126 C 0.99448 0.9135 0.7904 0.0
C127 C 0.01482 0.8352 0.79551 0.0
N128 N 0.97077 0.8233 0.79194 0.0
C129 C 0.94939 0.90056 0.78688 0.0
C130 C 0.02751 0.88065 0.79481 0.0
C131 C 0.93809 0.85476 0.78768 0.0
C132 C 0.87844 0.01308 0.7977 0.0
N133 N 0.92108 0.01792 0.80795 0.0
C134 C 0.89302 0.02136 0.85538 0.0
C135 C 0.92896 0.02145 0.83621 0.0
C136 C 0.84867 0.01606 0.84548 0.0
C137 C 0.84148 0.01224 0.81615 0.0
H138 H 0.87316 1.00894 0.77522 0.0
H139 H 0.96324 0.02359 0.84394 0.0
C140 C 0.14239 0.02651 0.8009 0.0
N141 N 0.1073 0.99821 0.80661 0.0
C142 C 0.18018 0.02738 0.81858 0.0
C143 C 0.14521 0.96944 0.84742 0.0
C144 C 0.10792 0.96997 0.82931 0.0
C145 C 0.18165 0.99885 0.84241 0.0
H146 H 0.14077 0.04866 0.78269 0.0
H147 H 0.0792 0.94832 0.83357 0.0
C148 C 0.93877 0.04022 0.72166 0.0
N149 N 0.90107 0.09529 0.68078 0.0
C150 C 0.95108 0.03539 0.69325 0.0
C151 C 0.9071 0.07292 0.72925 0.0
C152 C 0.93173 0.06363 0.67291 0.0
C153 C 0.88842 0.10042 0.70827 0.0
C154 C 0.08957 0.97158 0.72521 0.0
C155 C 0.0806 0.96706 0.69629 0.0
C156 C 0.12398 0.94606 0.73757 0.0
C157 C 0.10596 0.9367 0.68028 0.0
C158 C 0.14863 0.91615 0.72082 0.0
N159 N 0.13915 0.91209 0.69277 0.0
C160 C 1.0023 0.13704 0.723 0.0
C161 C 0.05886 0.09391 0.70032 0.0
C162 C 1.00945 0.17283 0.70413 0.0
N163 N 0.02656 0.09835 0.72058 0.0
C164 C 0.06721 0.12876 0.6811 0.0
C165 C 0.04245 0.16891 0.68276 0.0
H166 H 0.97688 0.13994 0.7393 0.0
H167 H 0.07818 0.0632 0.69899 0.0
C168 C 0.957 0.91467 0.70877 0.0
N169 N 0.99581 0.9154 0.72413 0.0
C170 C 0.947 0.87816 0.69126 0.0
C171 C 0.01615 0.84261 0.70646 0.0
C172 C 0.02482 0.8799 0.72369 0.0
C173 C 0.97706 0.84182 0.6895 0.0
H174 H 0.93367 0.9425 0.71006 0.0
H175 H 0.05481 0.88045 0.73668 0.0
O176 O 0.02209 0.05981 0.78596 0.0
O177 O 1.00629 0.95808 0.78902 0.0
O178 O 0.95808 0.01343 0.74192 0.0
O179 O 0.06519 1.00116 0.74128 0.0
H180 H 0.0619 0.06781 0.83585 0.0
H181 H 0.95182 0.11484 0.78424 0.0
H182 H 0.03633 0.11878 0.8742 0.0
H183 H 0.92832 0.16516 0.82342 0.0
H184 H 0.04005 0.80936 0.79875 0.0
H185 H 0.9235 0.92559 0.78322 0.0
H186 H 0.06264 0.8901 0.79722 0.0
H187 H 0.90337 0.84421 0.78483 0.0
H188 H 0.89991 0.02428 0.87782 0.0
H189 H 0.80784 1.00891 0.80745 0.0
H190 H 0.20793 0.04979 0.81337 0.0
H191 H 0.14521 0.94685 0.86549 0.0
H192 H 0.97564 1.01038 0.68701 0.0
H193 H 0.89744 0.07748 0.75113 0.0
H194 H 0.94117 0.06044 0.65088 0.0
H195 H 0.86405 0.12602 0.71386 0.0
H196 H 0.05406 0.98642 0.68636 0.0
H197 H 0.13138 0.94902 0.7599 0.0
H198 H 0.09917 0.93265 0.65793 0.0
H199 H 0.17523 0.89606 0.73014 0.0
H200 H 0.98865 0.20254 0.70615 0.0
H201 H 0.09288 0.12427 0.66499 0.0
H202 H 0.91617 0.87861 0.67892 0.0
H203 H 0.03977 0.81489 0.70679 0.0
H204 H 0.40943 0.93326 0.07914 0.0
C205 C 0.41854 0.96767 0.07341 0.0
H206 H 0.40576 0.03696 0.08012 0.0
H207 H 0.21293 0.94677 0.12421 0.0
H208 H 0.20129 0.92562 0.07519 0.0
H209 H 0.26124 0.93759 0.03961 0.0
H210 H 0.33342 0.96997 0.0529 0.0
C211 C 0.39619 1.00239 0.08511 0.0
C212 C 0.35952 0.99542 0.10626 0.0
C213 C 0.31702 0.97763 0.09788 0.0
C214 C 0.28176 0.97249 0.11816 0.0
C215 C 0.24032 0.95289 0.1095 0.0
C216 C 0.23326 0.94036 0.08145 0.0
C217 C 0.26707 0.94696 0.06144 0.0
C218 C 0.30849 0.96538 0.06941 0.0
H219 H 0.21294 0.03436 0.14718 0.0
C220 C 0.21484 0.0117 0.1653 0.0
H221 H 0.25433 0.96077 0.18489 0.0
H222 H 0.43708 0.02974 0.12938 0.0
H223 H 0.44795 0.05284 0.17814 0.0
H224 H 0.38604 0.04613 0.21293 0.0
H225 H 0.31292 0.01612 0.19921 0.0
C226 C 0.25089 0.98433 0.16744 0.0
C227 C 0.28847 0.98681 0.14649 0.0
C228 C 0.33102 1.00428 0.15487 0.0
C229 C 0.36656 1.0086 0.13474 0.0
C230 C 0.40875 0.02615 0.14372 0.0
C231 C 0.41549 0.03946 0.17166 0.0
C232 C 0.38065 0.03564 0.19126 0.0
C233 C 0.33885 0.01831 0.1831 0.0
H234 H 1.00403 0.40231 0.57914 0.0
C235 C 0.03697 0.40979 0.56998 0.0
H236 H 0.10607 0.39186 0.56938 0.0
H237 H 0.08991 0.29845 0.69088 0.0
H238 H 0.13846 0.36241 0.7013 0.0
H239 H 0.15449 0.42026 0.66496 0.0
H240 H 0.12232 0.41436 0.61788 0.0
C241 C 0.07255 0.38462 0.57765 0.0
C242 C 0.06658 0.34736 0.5986 0.0
C243 C 0.08571 0.35125 0.62596 0.0
C244 C 0.076 0.31816 0.64702 0.0
C245 C 0.09572 0.32285 0.67417 0.0
C246 C 0.12372 0.35936 0.68043 0.0
C247 C 0.13277 0.39192 0.65996 0.0
C248 C 0.11407 0.38812 0.63302 0.0
H249 H 0.07177 0.19574 0.64299 0.0
C250 C 0.05136 0.20474 0.66129 0.0
H251 H 0.01831 0.25909 0.68168 0.0
H252 H 0.0307 0.32565 0.54694 0.0
H253 H 0.98049 0.26294 0.53669 0.0
H254 H 0.95861 0.20893 0.57416 0.0
H255 H 0.98746 0.2168 0.62187 0.0
C256 C 0.03629 0.24741 0.6631 0.0
C257 C 0.04708 0.28128 0.64069 0.0
C258 C 0.02844 0.27703 0.61314 0.0
C259 C 0.03919 0.30944 0.59189 0.0
C260 C 0.02206 0.30312 0.56418 0.0
C261 C 0.99347 0.26707 0.55795 0.0
C262 C 0.9813 0.23657 0.57902 0.0
C263 C 0.99841 0.24134 0.60631 0.0
H264 H 0.61866 0.08678 0.07737 0.0
C265 C 0.60924 0.05249 0.0717 0.0
H266 H 0.62464 0.98324 0.07598 0.0
H267 H 0.82902 1.01085 0.10752 0.0
H268 H 0.8356 0.98584 0.05883 0.0
H269 H 0.76811 0.97862 0.02856 0.0
H270 H 0.6936 0.99599 0.04682 0.0
C271 C 0.63262 0.01755 0.08237 0.0
C272 C 0.67316 0.02436 0.10046 0.0
C273 C 0.7165 0.01427 0.0894 0.0
C274 C 0.75547 0.01899 0.10674 0.0
C275 C 0.79831 1.00826 0.09521 0.0
C276 C 0.80258 0.9938 0.0673 0.0
C277 C 0.76458 0.98966 0.05027 0.0
C278 C 0.72198 0.99969 0.06106 0.0
H279 H 0.77448 0.98338 0.17924 0.0
C280 C 0.80003 1.00875 0.17442 0.0
H281 H 0.81611 0.06425 0.14768 0.0
H282 H 0.59486 0.04414 0.12876 0.0
H283 H 0.58854 0.07162 0.17691 0.0
H284 H 0.6565 0.08342 0.2062 0.0
H285 H 0.73114 0.0672 0.18766 0.0
C286 C 0.79204 0.03795 0.15313 0.0
C287 C 0.75103 0.03378 0.13511 0.0
C288 C 0.70777 0.04472 0.14603 0.0
C289 C 0.66869 0.03938 0.12881 0.0
C290 C 0.62576 0.04878 0.14061 0.0
C291 C 0.62163 0.06441 0.16828 0.0
C292 C 0.65988 0.07094 0.18479 0.0
C293 C 0.70252 0.06129 0.17392 0.0
H294 H 0.0261 0.61582 0.57995 0.0
C295 C 0.99352 0.60934 0.5701 0.0
H296 H 0.92526 0.62986 0.56757 0.0
H297 H 0.94183 0.72181 0.6896 0.0
H298 H 0.89009 0.66018 0.69955 0.0
H299 H 0.87144 0.60412 0.66283 0.0
H300 H 0.90465 0.60927 0.61593 0.0
C301 C 0.95842 0.63588 0.57668 0.0
C302 C 0.96448 0.67337 0.59731 0.0
C303 C 0.94369 0.67071 0.62431 0.0
C304 C 0.9539 0.7035 0.64534 0.0
C305 C 0.93437 0.69867 0.67257 0.0
C306 C 0.90482 0.66323 0.67864 0.0
C307 C 0.89436 0.63163 0.65798 0.0
C308 C 0.91364 0.63501 0.63114 0.0
H309 H 0.93206 0.80271 0.66119 0.0
C310 C 0.96607 0.80413 0.66989 0.0
H311 H 0.03131 0.77522 0.66748 0.0
H312 H 1.00481 0.69227 0.54632 0.0
H313 H 0.0564 0.75405 0.53625 0.0
H314 H 0.07483 0.81032 0.57284 0.0
H315 H 0.04217 0.80497 0.61981 0.0
C316 C 0.99621 0.77336 0.66104 0.0
C317 C 0.98417 0.73944 0.63908 0.0
C318 C 1.00378 0.74292 0.61176 0.0
C319 C 0.99354 0.71017 0.59075 0.0
C320 C 0.01255 0.71531 0.56338 0.0
C321 C 0.04182 0.75092 0.55719 0.0
C322 C 0.05223 0.78259 0.5778 0.0
C323 C 0.03335 0.77898 0.60473 0.0
H324 H 0.40905 0.08718 0.95243 0.0
C325 C 0.41703 0.05294 0.95899 0.0
H326 H 0.40158 0.98368 0.95446 0.0
H327 H 0.21205 0.0759 0.90748 0.0
H328 H 0.2023 0.10455 0.95519 0.0
H329 H 0.26241 0.09558 0.99088 0.0
H330 H 0.33272 0.05851 0.97907 0.0
C331 C 0.39315 0.01809 0.94852 0.0
C332 C 0.35668 0.02438 0.92721 0.0
C333 C 0.31549 0.0457 0.9347 0.0
C334 C 0.28034 0.04988 0.91434 0.0
C335 C 0.2397 0.07159 0.92221 0.0
C336 C 0.23363 0.08812 0.94952 0.0
C337 C 0.26751 0.08315 0.9696 0.0
C338 C 0.30791 0.06205 0.96245 0.0
H339 H 0.22626 0.96791 0.87461 0.0
C340 C 0.22076 0.99826 0.86209 0.0
H341 H 0.24214 0.06591 0.85562 0.0
H342 H 0.43152 0.98233 0.90577 0.0
H343 H 0.44034 0.9525 0.85834 0.0
H344 H 0.37883 0.95882 0.82336 0.0
H345 H 0.30808 0.99506 0.83562 0.0
C346 C 0.2482 0.03393 0.86616 0.0
C347 C 0.28589 0.03158 0.88689 0.0
C348 C 0.32699 1.01037 0.87938 0.0
C349 C 0.36242 1.00674 0.89956 0.0
C350 C 0.40328 0.98565 0.8914 0.0
C351 C 0.40887 0.9685 0.86419 0.0
C352 C 0.37425 0.97206 0.8445 0.0
C353 C 0.33376 0.99281 0.85185 0.0
H354 H 0.92498 0.41948 0.4484 0.0
C355 C 0.96011 0.42378 0.45455 0.0
H356 H 0.02742 0.40208 0.44868 0.0
H357 H 0.92606 0.2185 0.40323 0.0
H358 H 0.90026 0.20878 0.45165 0.0
H359 H 0.91273 0.26842 0.48716 0.0
H360 H 0.95008 0.33847 0.47434 0.0
C361 C 0.99209 0.39717 0.44321 0.0
C362 C 0.98187 0.36198 0.42175 0.0
C363 C 0.9608 0.32084 0.42983 0.0
C364 C 0.9554 0.28563 0.40966 0.0
C365 C 0.93264 0.2456 0.41797 0.0
C366 C 0.91738 0.23971 0.44564 0.0
C367 C 0.92426 0.27335 0.46561 0.0
C368 C 0.94566 0.3135 0.45793 0.0
H369 H 0.0146 0.21201 0.38593 0.0
C370 C 0.99638 0.21518 0.36603 0.0
H371 H 0.95265 0.25683 0.34205 0.0
H372 H 0.02094 0.43763 0.399 0.0
H373 H 0.04813 0.44679 0.35084 0.0
H374 H 0.0413 0.38479 0.31634 0.0
H375 H 1.00708 0.31338 0.32971 0.0
C376 C 0.97186 0.25266 0.36142 0.0
C377 C 0.97276 0.29094 0.38182 0.0
C378 C 0.99258 0.33258 0.37355 0.0
C379 C 0.99706 0.36813 0.39353 0.0
C380 C 0.01718 0.40932 0.38476 0.0
C381 C 0.03283 0.41508 0.35716 0.0
C382 C 0.02893 0.3802 0.33773 0.0
C383 C 1.00914 0.33936 0.3457 0.0
H384 H 0.61395 0.9353 0.95057 0.0
C385 C 0.60633 0.96939 0.95749 0.0
H386 H 0.6219 0.0387 0.95321 0.0
H387 H 0.8075 0.94348 0.90175 0.0
H388 H 0.81882 0.91326 0.94894 0.0
H389 H 0.76113 0.92338 0.98608 0.0
H390 H 0.69149 0.96303 0.97613 0.0
C391 C 0.63001 1.00442 0.94691 0.0
C392 C 0.66562 0.99862 0.92494 0.0
C393 C 0.707 0.97698 0.93156 0.0
C394 C 0.74129 0.97314 0.91055 0.0
C395 C 0.78119 0.94913 0.91723 0.0
C396 C 0.788 0.93132 0.9442 0.0
C397 C 0.75546 0.93689 0.96508 0.0
C398 C 0.71543 0.95949 0.95899 0.0
H399 H 0.8162 0.03184 0.88647 0.0
C400 C 0.811 0.01506 0.86627 0.0
H401 H 0.76603 0.97466 0.84233 0.0
H402 H 0.58963 0.04035 0.90495 0.0
H403 H 0.57921 0.07235 0.85812 0.0
H404 H 0.63999 0.06883 0.82243 0.0
H405 H 0.71145 0.03303 0.83328 0.0
C406 C 0.77207 0.9925 0.86201 0.0
C407 C 0.73508 0.99302 0.88345 0.0
C408 C 0.69354 0.0142 0.87678 0.0
C409 C 0.65876 0.01686 0.89751 0.0
C410 C 0.61747 0.03793 0.89017 0.0
C411 C 0.61097 0.05635 0.86333 0.0
C412 C 0.64516 0.05432 0.84323 0.0
C413 C 0.68603 0.03358 0.84974 0.0
H414 H 0.10746 0.6047 0.45107 0.0
C415 C 0.07206 0.59848 0.45586 0.0
H416 H 1.00462 0.61913 0.44942 0.0
H417 H 0.04135 0.82 0.41672 0.0
H418 H 0.01355 0.82842 0.46472 0.0
H419 H 1.00223 0.76195 0.49547 0.0
H420 H 0.01975 0.68676 0.4787 0.0
C421 C 0.03994 0.62437 0.44396 0.0
C422 C 0.05056 0.66423 0.42588 0.0
C423 C 0.04023 0.70799 0.43605 0.0
C424 C 0.04581 0.74625 0.41813 0.0
C425 C 0.03643 0.78965 0.42913 0.0
C426 C 0.02078 0.79501 0.45673 0.0
C427 C 0.01455 0.75759 0.47408 0.0
C428 C 0.02444 0.71457 0.46408 0.0
H429 H 0.99218 0.78693 0.36944 0.0
C430 C 0.02412 0.79987 0.36129 0.0
H431 H 0.09536 0.79124 0.36287 0.0
H432 H 0.07284 0.58508 0.39945 0.0
H433 H 0.101 0.57691 0.35156 0.0
H434 H 0.11164 0.64345 0.32073 0.0
H435 H 0.09383 0.71861 0.33759 0.0
C436 C 0.06246 0.77991 0.37011 0.0
C437 C 0.0608 0.74059 0.38983 0.0
C438 C 0.07277 0.69708 0.38 0.0
C439 C 0.06727 0.65875 0.39795 0.0
C440 C 0.07735 0.61547 0.38704 0.0
C441 C 0.09334 0.61026 0.3595 0.0
C442 C 0.09928 0.64772 0.34213 0.0
C443 C 0.08899 0.69067 0.35209 0.0
loop_
_geom_bond_atom_site_label_1
_geom_bond_atom_site_label_2
_geom_bond_distance
_geom_bond_site_symmetry_2
_ccdc_geom_bond_type
C0 O2 1.245 . S
C0 O4 1.259 1_565 S
C1 O8 1.251 . S
C1 O9 1.254 1_545 S
O2 C0 1.245 . S
O2 Zn3 2.028 1_556 S
Zn3 O2 2.028 1_554 S
Zn3 O7 2.035 1_554 S
Zn3 O9 2.035 . S
Zn3 O10 2.028 . S
O4 C0 1.259 1_545 S
O4 Zn5 2.035 1_556 S
Zn5 O4 2.035 1_554 S
Zn5 O6 2.028 1_554 S
Zn5 O8 2.028 . S
Zn5 O11 2.035 . S
O6 Zn5 2.028 1_556 S
O6 C12 1.251 . S
O7 Zn3 2.035 1_556 S
O7 C12 1.254 1_565 S
O8 C1 1.251 . S
O8 Zn5 2.028 . S
O9 C1 1.254 1_565 S
O9 Zn3 2.035 . S
O10 Zn3 2.028 . S
O10 C13 1.245 . S
O11 Zn5 2.035 . S
O11 C13 1.259 1_545 S
C12 O6 1.251 . S
C12 O7 1.254 1_545 S
C13 O10 1.245 . S
C13 O11 1.259 1_565 S
C14 O16 1.246 . S
C14 O18 1.259 1_655 S
C15 O22 1.251 . S
C15 O23 1.254 1_455 S
O16 C14 1.246 . S
O16 Zn17 2.028 . S
Zn17 O16 2.028 . S
Zn17 O21 2.035 . S
Zn17 O23 2.035 . S
Zn17 O24 2.028 . S
O18 C14 1.259 1_455 S
O18 Zn19 2.035 . S
Zn19 O18 2.035 . S
Zn19 O20 2.028 . S
Zn19 O22 2.028 . S
Zn19 O25 2.035 . S
O20 Zn19 2.028 . S
O20 C26 1.251 . S
O21 Zn17 2.035 . S
O21 C26 1.254 1_655 S
O22 C15 1.251 . S
O22 Zn19 2.028 . S
O23 C15 1.254 1_655 S
O23 Zn17 2.035 . S
O24 Zn17 2.028 . S
O24 C27 1.246 . S
O25 Zn19 2.035 . S
O25 C27 1.259 1_455 S
C26 O20 1.251 . S
C26 O21 1.254 1_455 S
C27 O24 1.246 . S
C27 O25 1.259 1_655 S
Li28 N45 1.990 . S
Li28 O88 1.956 1_545 S
Li28 O89 1.970 1_455 S
Li28 O90 1.961 1_455 S
Li29 N53 1.990 . S
Li29 O88 1.970 1_655 S
Li29 O89 1.956 1_565 S
Li29 O91 1.961 1_655 S
Li30 N75 1.990 . S
Li30 O88 1.961 1_545 S
Li30 O90 1.956 1_455 S
Li30 O91 1.970 1_545 S
Li31 N81 1.990 . S
Li31 O89 1.961 1_565 S
Li31 O90 1.970 1_565 S
Li31 O91 1.956 1_655 S
C32 C34 1.348 1_545 S
C32 C35 1.356 . S
C32 O88 1.325 1_545 S
N33 C36 1.314 1_545 S
N33 C37 1.279 . S
C34 C32 1.348 1_565 S
C34 C36 1.353 . S
C34 H92 0.929 . S
C35 C32 1.356 . S
C35 C37 1.358 . S
C35 H93 0.930 . S
C36 N33 1.314 1_565 S
C36 C34 1.353 . S
C36 H94 0.930 . S
C37 N33 1.279 . S
C37 C35 1.358 . S
C37 H95 0.930 . S
C38 C41 1.348 . S
C38 C42 1.356 1_545 S
C38 O89 1.325 . S
C39 N40 1.279 . S
C39 C42 1.358 . S
C39 H96 0.930 . S
N40 C39 1.279 . S
N40 C43 1.314 1_565 S
C41 C38 1.348 . S
C41 C43 1.353 . S
C41 H97 0.929 . S
C42 C38 1.356 1_565 S
C42 C39 1.358 . S
C42 H98 0.930 . S
C43 N40 1.314 1_545 S
C43 C41 1.353 . S
C43 H99 0.930 . S
C44 N45 1.314 1_655 S
C44 C49 1.353 . S
C44 H50 0.930 . S
N45 Li28 1.990 . S
N45 C44 1.314 1_455 S
N45 C47 1.279 . S
C46 C47 1.358 . S
C46 C48 1.356 . S
C46 H100 0.930 . S
C47 N45 1.279 . S
C47 C46 1.358 . S
C47 H51 0.930 . S
C48 C46 1.356 . S
C48 C49 1.348 1_455 S
C49 C44 1.353 . S
C49 C48 1.348 1_655 S
C49 H101 0.929 . S
H50 C44 0.930 . S
H51 C47 0.930 . S
C52 N53 1.314 1_455 S
C52 C54 1.353 . S
C52 H58 0.930 . S
N53 Li29 1.990 . S
N53 C52 1.314 1_655 S
N53 C56 1.279 . S
C54 C52 1.353 . S
C54 C57 1.348 . S
C54 H102 0.929 . S
C55 C56 1.358 . S
C55 C57 1.356 1_655 S
C55 H103 0.930 . S
C56 N53 1.279 . S
C56 C55 1.358 . S
C56 H59 0.930 . S
C57 C54 1.348 . S
C57 C55 1.356 1_455 S
H58 C52 0.930 . S
H59 C56 0.930 . S
C60 C62 1.348 1_455 S
C60 C63 1.356 . S
C60 O90 1.325 1_455 S
N61 C64 1.314 1_455 S
N61 C65 1.279 . S
C62 C60 1.348 1_655 S
C62 C64 1.353 . S
C62 H104 0.929 . S
C63 C60 1.356 . S
C63 C65 1.358 . S
C63 H105 0.930 . S
C64 N61 1.314 1_655 S
C64 C62 1.353 . S
C64 H106 0.930 . S
C65 N61 1.279 . S
C65 C63 1.358 . S
C65 H107 0.930 . S
C66 C67 1.348 . S
C66 C68 1.356 1_455 S
C66 O91 1.325 . S
C67 C66 1.348 . S
C67 C69 1.353 . S
C67 H108 0.929 . S
C68 C66 1.356 1_655 S
C68 C70 1.358 . S
C68 H109 0.930 . S
C69 C67 1.353 . S
C69 N71 1.314 1_455 S
C69 H110 0.930 . S
C70 C68 1.358 . S
C70 N71 1.279 . S
C70 H111 0.930 . S
N71 C69 1.314 1_655 S
N71 C70 1.279 . S
C72 C74 1.353 . S
C72 N75 1.314 1_565 S
C72 H78 0.930 . S
C73 N75 1.279 . S
C73 C76 1.358 . S
C73 H79 0.930 . S
C74 C72 1.353 . S
C74 C77 1.348 1_565 S
C74 H112 0.929 . S
N75 Li30 1.990 . S
N75 C72 1.314 1_545 S
N75 C73 1.279 . S
C76 C73 1.358 . S
C76 C77 1.356 . S
C76 H113 0.930 . S
C77 C74 1.348 1_545 S
C77 C76 1.356 . S
H78 C72 0.930 . S
H79 C73 0.930 . S
C80 N81 1.314 1_545 S
C80 C82 1.353 . S
C80 H86 0.930 . S
N81 Li31 1.990 . S
N81 C80 1.314 1_565 S
N81 C84 1.279 . S
C82 C80 1.353 . S
C82 C85 1.348 . S
C82 H114 0.929 . S
C83 C84 1.358 . S
C83 C85 1.356 1_565 S
C83 H115 0.930 . S
C84 N81 1.279 . S
C84 C83 1.358 . S
C84 H87 0.930 . S
C85 C82 1.348 . S
C85 C83 1.356 1_545 S
H86 C80 0.930 . S
H87 C84 0.930 . S
O88 Li28 1.956 1_565 S
O88 Li29 1.970 1_455 S
O88 Li30 1.961 1_565 S
O88 C32 1.325 1_565 S
O89 Li28 1.970 1_655 S
O89 Li29 1.956 1_545 S
O89 Li31 1.961 1_545 S
O89 C38 1.325 . S
O90 Li28 1.961 1_655 S
O90 Li30 1.956 1_655 S
O90 Li31 1.970 1_545 S
O90 C60 1.325 1_655 S
O91 Li29 1.961 1_455 S
O91 Li30 1.970 1_565 S
O91 Li31 1.956 1_455 S
O91 C66 1.325 . S
H92 C34 0.929 . S
H93 C35 0.930 . S
H94 C36 0.930 . S
H95 C37 0.930 . S
H96 C39 0.930 . S
H97 C41 0.929 . S
H98 C42 0.930 . S
H99 C43 0.930 . S
H100 C46 0.930 . S
H101 C49 0.929 . S
H102 C54 0.929 . S
H103 C55 0.930 . S
H104 C62 0.929 . S
H105 C63 0.930 . S
H106 C64 0.930 . S
H107 C65 0.930 . S
H108 C67 0.929 . S
H109 C68 0.930 . S
H110 C69 0.930 . S
H111 C70 0.930 . S
H112 C74 0.929 . S
H113 C76 0.930 . S
H114 C82 0.929 . S
H115 C83 0.930 . S
Li116 N133 1.990 . S
Li116 O176 1.956 1_655 S
Li116 O177 1.970 1_545 S
Li116 O178 1.961 1_545 S
Li117 N141 1.990 . S
Li117 O176 1.970 1_565 S
Li117 O177 1.956 1_455 S
Li117 O179 1.961 1_565 S
Li118 N163 1.990 . S
Li118 O176 1.961 1_655 S
Li118 O178 1.956 1_545 S
Li118 O179 1.970 1_655 S
Li119 N169 1.990 . S
Li119 O177 1.961 1_455 S
Li119 O178 1.970 1_455 S
Li119 O179 1.956 1_565 S
C120 C122 1.348 . S
C120 C123 1.356 1_455 S
C120 O176 1.325 . S
N121 C124 1.314 1_655 S
N121 C125 1.279 . S
C122 C120 1.348 . S
C122 C124 1.353 . S
C122 H180 0.929 . S
C123 C120 1.356 1_655 S
C123 C125 1.358 . S
C123 H181 0.930 . S
C124 N121 1.314 1_455 S
C124 C122 1.353 . S
C124 H182 0.930 . S
C125 N121 1.279 . S
C125 C123 1.358 . S
C125 H183 0.930 . S
C126 C129 1.348 1_455 S
C126 C130 1.356 . S
C126 O177 1.325 1_455 S
C127 N128 1.279 . S
C127 C130 1.358 . S
C127 H184 0.930 . S
N128 C127 1.279 . S
N128 C131 1.314 1_455 S
C129 C126 1.348 1_655 S
C129 C131 1.353 . S
C129 H185 0.929 . S
C130 C126 1.356 . S
C130 C127 1.358 . S
C130 H186 0.930 . S
C131 N128 1.314 1_655 S
C131 C129 1.353 . S
C131 H187 0.930 . S
C132 N133 1.314 1_565 S
C132 C137 1.353 . S
C132 H138 0.930 . S
N133 Li116 1.990 . S
N133 C132 1.314 1_545 S
N133 C135 1.279 . S
C134 C135 1.358 . S
C134 C136 1.356 . S
C134 H188 0.930 . S
C135 N133 1.279 . S
C135 C134 1.358 . S
C135 H139 0.930 . S
C136 C134 1.356 . S
C136 C137 1.348 1_545 S
C137 C132 1.353 . S
C137 C136 1.348 1_565 S
C137 H189 0.929 . S
H138 C132 0.930 . S
H139 C135 0.930 . S
C140 N141 1.314 1_545 S
C140 C142 1.353 . S
C140 H146 0.930 . S
N141 Li117 1.990 . S
N141 C140 1.314 1_565 S
N141 C144 1.279 . S
C142 C140 1.353 . S
C142 C145 1.348 . S
C142 H190 0.929 . S
C143 C144 1.358 . S
C143 C145 1.356 1_565 S
C143 H191 0.930 . S
C144 N141 1.279 . S
C144 C143 1.358 . S
C144 H147 0.930 . S
C145 C142 1.348 . S
C145 C143 1.356 1_545 S
H146 C140 0.930 . S
H147 C144 0.930 . S
C148 C150 1.348 1_545 S
C148 C151 1.356 . S
C148 O178 1.325 1_545 S
N149 C152 1.314 1_545 S
N149 C153 1.279 . S
C150 C148 1.348 1_565 S
C150 C152 1.353 . S
C150 H192 0.929 . S
C151 C148 1.356 . S
C151 C153 1.358 . S
C151 H193 0.930 . S
C152 N149 1.314 1_565 S
C152 C150 1.353 . S
C152 H194 0.930 . S
C153 N149 1.279 . S
C153 C151 1.358 . S
C153 H195 0.930 . S
C154 C155 1.348 . S
C154 C156 1.356 1_545 S
C154 O179 1.325 . S
C155 C154 1.348 . S
C155 C157 1.353 . S
C155 H196 0.929 . S
C156 C154 1.356 1_565 S
C156 C158 1.358 . S
C156 H197 0.930 . S
C157 C155 1.353 . S
C157 N159 1.314 1_545 S
C157 H198 0.930 . S
C158 C156 1.358 . S
C158 N159 1.279 . S
C158 H199 0.930 . S
N159 C157 1.314 1_565 S
N159 C158 1.279 . S
C160 C162 1.353 . S
C160 N163 1.314 1_455 S
C160 H166 0.930 . S
C161 N163 1.279 . S
C161 C164 1.358 . S
C161 H167 0.930 . S
C162 C160 1.353 . S
C162 C165 1.348 . S
C162 H200 0.929 . S
N163 Li118 1.990 . S
N163 C160 1.314 1_655 S
N163 C161 1.279 . S
C164 C161 1.358 . S
C164 C165 1.356 1_655 S
C164 H201 0.930 . S
C165 C162 1.348 . S
C165 C164 1.356 1_455 S
H166 C160 0.930 . S
H167 C161 0.930 . S
C168 N169 1.314 1_655 S
C168 C170 1.353 . S
C168 H174 0.930 . S
N169 Li119 1.990 . S
N169 C168 1.314 1_455 S
N169 C172 1.279 . S
C170 C168 1.353 . S
C170 C173 1.348 1_655 S
C170 H202 0.929 . S
C171 C172 1.358 . S
C171 C173 1.356 . S
C171 H203 0.930 . S
C172 N169 1.279 . S
C172 C171 1.358 . S
C172 H175 0.930 . S
C173 C170 1.348 1_455 S
C173 C171 1.356 . S
H174 C168 0.930 . S
H175 C172 0.930 . S
O176 Li116 1.956 1_455 S
O176 Li117 1.970 1_545 S
O176 Li118 1.961 1_455 S
O176 C120 1.325 . S
O177 Li116 1.970 1_565 S
O177 Li117 1.956 1_655 S
O177 Li119 1.961 1_655 S
O177 C126 1.325 1_655 S
O178 Li116 1.961 1_565 S
O178 Li118 1.956 1_565 S
O178 Li119 1.970 1_655 S
O178 C148 1.325 1_565 S
O179 Li117 1.961 1_545 S
O179 Li118 1.970 1_455 S
O179 Li119 1.956 1_545 S
O179 C154 1.325 . S
H180 C122 0.929 . S
H181 C123 0.930 . S
H182 C124 0.930 . S
H183 C125 0.930 . S
H184 C127 0.930 . S
H185 C129 0.929 . S
H186 C130 0.930 . S
H187 C131 0.930 . S
H188 C134 0.930 . S
H189 C137 0.929 . S
H190 C142 0.929 . S
H191 C143 0.930 . S
H192 C150 0.929 . S
H193 C151 0.930 . S
H194 C152 0.930 . S
H195 C153 0.930 . S
H196 C155 0.929 . S
H197 C156 0.930 . S
H198 C157 0.930 . S
H199 C158 0.930 . S
H200 C162 0.929 . S
H201 C164 0.930 . S
H202 C170 0.929 . S
H203 C171 0.930 . S
H204 C205 0.951 . S
C205 H204 0.951 . S
C205 C211 1.265 1_565 S
H206 C211 0.950 . S
H207 C215 0.949 . S
H208 C216 0.950 . S
H209 C217 0.951 . S
H210 C218 0.951 . S
C211 C205 1.265 1_545 S
C211 H206 0.950 . S
C211 C212 1.478 . S
C212 C211 1.478 . S
C212 C213 1.397 1_545 S
C212 C229 1.394 . S
C213 C212 1.397 1_565 S
C213 C214 1.438 . S
C213 C218 1.429 . S
C214 C213 1.438 . S
C214 C215 1.428 . S
C214 C227 1.394 . S
C215 H207 0.949 . S
C215 C214 1.428 . S
C215 C216 1.345 . S
C216 H208 0.950 . S
C216 C215 1.345 . S
C216 C217 1.424 . S
C217 H209 0.951 . S
C217 C216 1.424 . S
C217 C218 1.347 . S
C218 H210 0.951 . S
C218 C213 1.429 . S
C218 C217 1.347 . S
H219 C220 0.953 . S
C220 H219 0.953 . S
C220 C226 1.264 1_545 S
H221 C226 0.950 . S
H222 C230 0.949 . S
H223 C231 0.950 . S
H224 C232 0.951 . S
H225 C233 0.951 . S
C226 C220 1.264 1_565 S
C226 H221 0.950 . S
C226 C227 1.478 . S
C227 C214 1.394 . S
C227 C226 1.478 . S
C227 C228 1.397 1_565 S
C228 C227 1.397 1_545 S
C228 C229 1.438 . S
C228 C233 1.429 . S
C229 C212 1.394 . S
C229 C228 1.438 . S
C229 C230 1.428 . S
C230 H222 0.949 . S
C230 C229 1.428 . S
C230 C231 1.345 . S
C231 H223 0.950 . S
C231 C230 1.345 . S
C231 C232 1.424 . S
C232 H224 0.951 . S
C232 C231 1.424 . S
C232 C233 1.347 . S
C233 H225 0.951 . S
C233 C228 1.429 . S
C233 C232 1.347 . S
H234 C235 0.951 . S
C235 H234 0.951 . S
C235 C241 1.265 1_655 S
H236 C241 0.950 . S
H237 C245 0.949 . S
H238 C246 0.950 . S
H239 C247 0.951 . S
H240 C248 0.951 . S
C241 C235 1.265 1_455 S
C241 H236 0.950 . S
C241 C242 1.478 . S
C242 C241 1.478 . S
C242 C243 1.397 . S
C242 C259 1.394 1_455 S
C243 C242 1.397 . S
C243 C244 1.438 . S
C243 C248 1.429 . S
C244 C243 1.438 . S
C244 C245 1.428 . S
C244 C257 1.394 1_455 S
C245 H237 0.949 . S
C245 C244 1.428 . S
C245 C246 1.345 . S
C246 H238 0.950 . S
C246 C245 1.345 . S
C246 C247 1.424 . S
C247 H239 0.951 . S
C247 C246 1.424 . S
C247 C248 1.347 . S
C248 H240 0.951 . S
C248 C243 1.429 . S
C248 C247 1.347 . S
H249 C250 0.951 . S
C250 H249 0.951 . S
C250 C256 1.265 1_455 S
H251 C256 0.950 . S
H252 C260 0.949 . S
H253 C261 0.950 . S
H254 C262 0.951 . S
H255 C263 0.951 . S
C256 C250 1.265 1_655 S
C256 H251 0.950 . S
C256 C257 1.478 . S
C257 C244 1.394 1_655 S
C257 C256 1.478 . S
C257 C258 1.397 . S
C258 C257 1.397 . S
C258 C259 1.438 . S
C258 C263 1.429 . S
C259 C242 1.394 1_655 S
C259 C258 1.438 . S
C259 C260 1.428 . S
C260 H252 0.949 . S
C260 C259 1.428 . S
C260 C261 1.345 . S
C261 H253 0.950 . S
C261 C260 1.345 . S
C261 C262 1.424 . S
C262 H254 0.951 . S
C262 C261 1.424 . S
C262 C263 1.347 . S
C263 H255 0.951 . S
C263 C258 1.429 . S
C263 C262 1.347 . S
H264 C265 0.951 . S
C265 H264 0.951 . S
C265 C271 1.265 1_545 S
H266 C271 0.950 . S
H267 C275 0.949 . S
H268 C276 0.950 . S
H269 C277 0.951 . S
H270 C278 0.951 . S
C271 C265 1.265 1_565 S
C271 H266 0.950 . S
C271 C272 1.479 . S
C272 C271 1.479 . S
C272 C273 1.404 . S
C272 C289 1.387 1_565 S
C273 C272 1.404 . S
C273 C274 1.438 . S
C273 C278 1.429 . S
C274 C273 1.438 . S
C274 C275 1.428 . S
C274 C287 1.394 1_565 S
C275 H267 0.949 . S
C275 C274 1.428 . S
C275 C276 1.345 . S
C276 H268 0.950 . S
C276 C275 1.345 . S
C276 C277 1.424 . S
C277 H269 0.951 . S
C277 C276 1.424 . S
C277 C278 1.347 . S
C278 H270 0.951 . S
C278 C273 1.429 . S
C278 C277 1.347 . S
H279 C280 0.949 1_565 S
C280 H279 0.949 1_545 S
C280 C286 1.267 . S
H281 C286 0.950 . S
H282 C290 0.949 . S
H283 C291 0.950 . S
H284 C292 0.951 . S
H285 C293 0.951 . S
C286 C280 1.267 . S
C286 H281 0.950 . S
C286 C287 1.478 . S
C287 C274 1.394 1_545 S
C287 C286 1.478 . S
C287 C288 1.397 . S
C288 C287 1.397 . S
C288 C289 1.438 . S
C288 C293 1.429 . S
C289 C272 1.387 1_545 S
C289 C288 1.438 . S
C289 C290 1.428 . S
C290 H282 0.949 . S
C290 C289 1.428 . S
C290 C291 1.345 . S
C291 H283 0.950 . S
C291 C290 1.345 . S
C291 C292 1.424 . S
C292 H284 0.951 . S
C292 C291 1.424 . S
C292 C293 1.347 . S
C293 H285 0.951 . S
C293 C288 1.429 . S
C293 C292 1.347 . S
H294 C295 0.951 . S
C295 H294 0.951 . S
C295 C301 1.265 1_455 S
H296 C301 0.950 . S
H297 C305 0.949 . S
H298 C306 0.950 . S
H299 C307 0.951 . S
H300 C308 0.951 . S
C301 C295 1.265 1_655 S
C301 H296 0.950 . S
C301 C302 1.478 . S
C302 C301 1.478 . S
C302 C303 1.397 . S
C302 C319 1.394 1_655 S
C303 C302 1.397 . S
C303 C304 1.438 . S
C303 C308 1.429 . S
C304 C303 1.438 . S
C304 C305 1.428 . S
C304 C317 1.394 1_655 S
C305 H297 0.949 . S
C305 C304 1.428 . S
C305 C306 1.345 . S
C306 H298 0.950 . S
C306 C305 1.345 . S
C306 C307 1.424 . S
C307 H299 0.951 . S
C307 C306 1.424 . S
C307 C308 1.347 . S
C308 H300 0.951 . S
C308 C303 1.429 . S
C308 C307 1.347 . S
H309 C310 0.951 . S
C310 H309 0.951 . S
C310 C316 1.265 1_655 S
H311 C316 0.950 . S
H312 C320 0.949 . S
H313 C321 0.950 . S
H314 C322 0.951 . S
H315 C323 0.951 . S
C316 C310 1.265 1_455 S
C316 H311 0.950 . S
C316 C317 1.478 . S
C317 C304 1.394 1_455 S
C317 C316 1.478 . S
C317 C318 1.397 . S
C318 C317 1.397 . S
C318 C319 1.438 . S
C318 C323 1.429 . S
C319 C302 1.394 1_455 S
C319 C318 1.438 . S
C319 C320 1.428 . S
C320 H312 0.949 . S
C320 C319 1.428 . S
C320 C321 1.345 . S
C321 H313 0.950 . S
C321 C320 1.345 . S
C321 C322 1.424 . S
C322 H314 0.951 . S
C322 C321 1.424 . S
C322 C323 1.347 . S
C323 H315 0.951 . S
C323 C318 1.429 . S
C323 C322 1.347 . S
H324 C325 0.951 . S
C325 H324 0.951 . S
C325 C331 1.265 1_565 S
H326 C331 0.950 . S
H327 C335 0.949 . S
H328 C336 0.950 . S
H329 C337 0.951 . S
H330 C338 0.951 . S
C331 C325 1.265 1_545 S
C331 H326 0.950 . S
C331 C332 1.478 . S
C332 C331 1.478 . S
C332 C333 1.397 . S
C332 C349 1.394 1_545 S
C333 C332 1.397 . S
C333 C334 1.438 . S
C333 C338 1.429 . S
C334 C333 1.438 . S
C334 C335 1.428 . S
C334 C347 1.394 1_545 S
C335 H327 0.949 . S
C335 C334 1.428 . S
C335 C336 1.345 . S
C336 H328 0.950 . S
C336 C335 1.345 . S
C336 C337 1.424 . S
C337 H329 0.951 . S
C337 C336 1.424 . S
C337 C338 1.347 . S
C338 H330 0.951 . S
C338 C333 1.429 . S
C338 C337 1.347 . S
H339 C340 0.951 . S
C340 H339 0.951 . S
C340 C346 1.265 1_545 S
H341 C346 0.950 . S
H342 C350 0.949 . S
H343 C351 0.950 . S
H344 C352 0.951 . S
H345 C353 0.951 . S
C346 C340 1.265 1_565 S
C346 H341 0.950 . S
C346 C347 1.478 . S
C347 C334 1.394 1_565 S
C347 C346 1.478 . S
C347 C348 1.397 . S
C348 C347 1.397 . S
C348 C349 1.438 . S
C348 C353 1.429 . S
C349 C332 1.394 1_565 S
C349 C348 1.438 . S
C349 C350 1.428 . S
C350 H342 0.949 . S
C350 C349 1.428 . S
C350 C351 1.345 . S
C351 H343 0.950 . S
C351 C350 1.345 . S
C351 C352 1.424 . S
C352 H344 0.951 . S
C352 C351 1.424 . S
C352 C353 1.347 . S
C353 H345 0.951 . S
C353 C348 1.429 . S
C353 C352 1.347 . S
H354 C355 0.951 . S
C355 H354 0.951 . S
C355 C361 1.265 1_655 S
H356 C361 0.950 . S
H357 C365 0.949 . S
H358 C366 0.950 . S
H359 C367 0.951 . S
H360 C368 0.951 . S
C361 C355 1.265 1_455 S
C361 H356 0.950 . S
C361 C362 1.478 . S
C362 C361 1.478 . S
C362 C363 1.397 1_455 S
C362 C379 1.394 . S
C363 C362 1.397 1_655 S
C363 C364 1.438 . S
C363 C368 1.429 . S
C364 C363 1.438 . S
C364 C365 1.428 . S
C364 C377 1.394 . S
C365 H357 0.949 . S
C365 C364 1.428 . S
C365 C366 1.345 . S
C366 H358 0.950 . S
C366 C365 1.345 . S
C366 C367 1.424 . S
C367 H359 0.951 . S
C367 C366 1.424 . S
C367 C368 1.347 . S
C368 H360 0.951 . S
C368 C363 1.429 . S
C368 C367 1.347 . S
H369 C370 0.955 . S
C370 H369 0.955 . S
C370 C376 1.263 1_455 S
H371 C376 0.950 . S
H372 C380 0.949 . S
H373 C381 0.950 . S
H374 C382 0.951 . S
H375 C383 0.951 . S
C376 C370 1.263 1_655 S
C376 H371 0.950 . S
C376 C377 1.478 . S
C377 C364 1.394 . S
C377 C376 1.478 . S
C377 C378 1.397 1_655 S
C378 C377 1.397 1_455 S
C378 C379 1.438 . S
C378 C383 1.429 . S
C379 C362 1.394 . S
C379 C378 1.438 . S
C379 C380 1.428 . S
C380 H372 0.949 . S
C380 C379 1.428 . S
C380 C381 1.345 . S
C381 H373 0.950 . S
C381 C380 1.345 . S
C381 C382 1.424 . S
C382 H374 0.951 . S
C382 C381 1.424 . S
C382 C383 1.347 . S
C383 H375 0.951 . S
C383 C378 1.429 . S
C383 C382 1.347 . S
H384 C385 0.951 . S
C385 H384 0.951 . S
C385 C391 1.265 . S
H386 C391 0.951 . S
H387 C395 0.949 . S
H388 C396 0.950 . S
H389 C397 0.951 . S
H390 C398 0.951 . S
C391 C385 1.265 . S
C391 H386 0.951 . S
C391 C392 1.478 . S
C392 C391 1.478 . S
C392 C393 1.405 . S
C392 C409 1.385 1_565 S
C393 C392 1.405 . S
C393 C394 1.438 . S
C393 C398 1.429 . S
C394 C393 1.438 . S
C394 C395 1.428 . S
C394 C407 1.399 . S
C395 H387 0.949 . S
C395 C394 1.428 . S
C395 C396 1.345 . S
C396 H388 0.950 . S
C396 C395 1.345 . S
C396 C397 1.424 . S
C397 H389 0.951 . S
C397 C396 1.424 . S
C397 C398 1.347 . S
C398 H390 0.951 . S
C398 C393 1.429 . S
C398 C397 1.347 . S
H399 C400 0.951 . S
C400 H399 0.951 . S
C400 C406 1.265 1_565 S
H401 C406 0.949 . S
H402 C410 0.949 . S
H403 C411 0.950 . S
H404 C412 0.951 . S
H405 C413 0.951 . S
C406 C400 1.265 1_545 S
C406 H401 0.949 . S
C406 C407 1.478 1_545 S
C407 C394 1.399 . S
C407 C406 1.478 1_565 S
C407 C408 1.391 1_565 S
C408 C407 1.391 1_545 S
C408 C409 1.438 . S
C408 C413 1.429 . S
C409 C392 1.385 1_545 S
C409 C408 1.438 . S
C409 C410 1.428 . S
C410 H402 0.949 . S
C410 C409 1.428 . S
C410 C411 1.345 . S
C411 H403 0.950 . S
C411 C410 1.345 . S
C411 C412 1.424 . S
C412 H404 0.951 . S
C412 C411 1.424 . S
C412 C413 1.347 . S
C413 H405 0.951 . S
C413 C408 1.429 . S
C413 C412 1.347 . S
H414 C415 0.951 . S
C415 H414 0.951 . S
C415 C421 1.265 1_455 S
H416 C421 0.950 . S
H417 C425 0.949 . S
H418 C426 0.950 . S
H419 C427 0.951 . S
H420 C428 0.951 . S
C421 C415 1.265 1_655 S
C421 H416 0.950 . S
C421 C422 1.478 . S
C422 C421 1.478 . S
C422 C423 1.397 . S
C422 C439 1.394 1_655 S
C423 C422 1.397 . S
C423 C424 1.438 . S
C423 C428 1.429 . S
C424 C423 1.438 . S
C424 C425 1.428 . S
C424 C437 1.394 1_655 S
C425 H417 0.949 . S
C425 C424 1.428 . S
C425 C426 1.345 . S
C426 H418 0.950 . S
C426 C425 1.345 . S
C426 C427 1.424 . S
C427 H419 0.951 . S
C427 C426 1.424 . S
C427 C428 1.347 . S
C428 H420 0.951 . S
C428 C423 1.429 . S
C428 C427 1.347 . S
H429 C430 0.951 . S
C430 H429 0.951 . S
C430 C436 1.265 1_655 S
H431 C436 0.950 . S
H432 C440 0.949 . S
H433 C441 0.950 . S
H434 C442 0.951 . S
H435 C443 0.951 . S
C436 C430 1.265 1_455 S
C436 H431 0.950 . S
C436 C437 1.478 . S
C437 C424 1.394 1_455 S
C437 C436 1.478 . S
C437 C438 1.397 . S
C438 C437 1.397 . S
C438 C439 1.438 . S
C438 C443 1.429 . S
C439 C422 1.394 1_455 S
C439 C438 1.438 . S
C439 C440 1.428 . S
C440 H432 0.949 . S
C440 C439 1.428 . S
C440 C441 1.345 . S
C441 H433 0.950 . S
C441 C440 1.345 . S
C441 C442 1.424 . S
C442 H434 0.951 . S
C442 C441 1.424 . S
C442 C443 1.347 . S
C443 H435 0.951 . S
C443 C438 1.429 . S
C443 C442 1.347 . S
C220 C77 1.439 . S
C205 C13 1.435 . S
C250 C165 1.443 . S
C235 C15 1.442 1_655 S
C280 C85 1.454 . S
C265 C1 1.454 . S
C310 C173 1.452 1_655 S
C295 C27 1.450 1_455 S
C340 C145 1.441 . S
C325 C0 1.442 . S
C370 C48 1.438 . S
C355 C26 1.441 1_655 S
C400 C136 1.439 1_565 S
C385 C12 1.446 1_565 S
C415 C14 1.448 1_455 S
C430 C57 1.443 1_655 S
