# Generated by pormake.
# Topology ocu, (6,8)-cn, num edge types: 1
# Building blocks:
#     Node 0, Type 0, BuildingBlock: VOLQOD_clean_sbu_1, # of connection points: 6
#     Node 1, Type 0, BuildingBlock: VOLQOD_clean_sbu_1, # of connection points: 6
#     Node 2, Type 0, BuildingBlock: VOLQOD_clean_sbu_1, # of connection points: 6
#     Node 3, Type 0, BuildingBlock: VOLQOD_clean_sbu_1, # of connection points: 6
#     Node 4, Type 0, BuildingBlock: VOLQOD_clean_sbu_1, # of connection points: 6
#     Node 5, Type 0, BuildingBlock: VOLQOD_clean_sbu_1, # of connection points: 6
#     Node 6, Type 0, BuildingBlock: VOLQOD_clean_sbu_1, # of connection points: 6
#     Node 7, Type 0, BuildingBlock: VOLQOD_clean_sbu_1, # of connection points: 6
#     Node 8, Type 1, BuildingBlock: VETTIZ_charged_sbu_0, # of connection points: 8
#     Node 9, Type 1, BuildingBlock: VETTIZ_charged_sbu_0, # of connection points: 8
#     Node 10, Type 1, BuildingBlock: VETTIZ_charged_sbu_0, # of connection points: 8
#     Node 11, Type 1, BuildingBlock: VETTIZ_charged_sbu_0, # of connection points: 8
#     Node 12, Type 1, BuildingBlock: VETTIZ_charged_sbu_0, # of connection points: 8
#     Node 13, Type 1, BuildingBlock: VETTIZ_charged_sbu_0, # of connection points: 8
#     Edge 14, Type (0, 1), BuildingBlock: XUDNAN_clean_linker_2, # of connection points: 2
#     Edge 15, Type (0, 1), BuildingBlock: XUDNAN_clean_linker_2, # of connection points: 2
#     Edge 16, Type (0, 1), BuildingBlock: XUDNAN_clean_linker_2, # of connection points: 2
#     Edge 17, Type (0, 1), BuildingBlock: XUDNAN_clean_linker_2, # of connection points: 2
#     Edge 18, Type (0, 1), BuildingBlock: XUDNAN_clean_linker_2, # of connection points: 2
#     Edge 19, Type (0, 1), BuildingBlock: XUDNAN_clean_linker_2, # of connection points: 2
#     Edge 20, Type (0, 1), BuildingBlock: XUDNAN_clean_linker_2, # of connection points: 2
#     Edge 21, Type (0, 1), BuildingBlock: XUDNAN_clean_linker_2, # of connection points: 2
#     Edge 22, Type (0, 1), BuildingBlock: XUDNAN_clean_linker_2, # of connection points: 2
#     Edge 23, Type (0, 1), BuildingBlock: XUDNAN_clean_linker_2, # of connection points: 2
#     Edge 24, Type (0, 1), BuildingBlock: XUDNAN_clean_linker_2, # of connection points: 2
#     Edge 25, Type (0, 1), BuildingBlock: XUDNAN_clean_linker_2, # of connection points: 2
#     Edge 26, Type (0, 1), BuildingBlock: XUDNAN_clean_linker_2, # of connection points: 2
#     Edge 27, Type (0, 1), BuildingBlock: XUDNAN_clean_linker_2, # of connection points: 2
#     Edge 28, Type (0, 1), BuildingBlock: XUDNAN_clean_linker_2, # of connection points: 2
#     Edge 29, Type (0, 1), BuildingBlock: XUDNAN_clean_linker_2, # of connection points: 2
#     Edge 30, Type (0, 1), BuildingBlock: XUDNAN_clean_linker_2, # of connection points: 2
#     Edge 31, Type (0, 1), BuildingBlock: XUDNAN_clean_linker_2, # of connection points: 2
#     Edge 32, Type (0, 1), BuildingBlock: XUDNAN_clean_linker_2, # of connection points: 2
#     Edge 33, Type (0, 1), BuildingBlock: XUDNAN_clean_linker_2, # of connection points: 2
#     Edge 34, Type (0, 1), BuildingBlock: XUDNAN_clean_linker_2, # of connection points: 2
#     Edge 35, Type (0, 1), BuildingBlock: XUDNAN_clean_linker_2, # of connection points: 2
#     Edge 36, Type (0, 1), BuildingBlock: XUDNAN_clean_linker_2, # of connection points: 2
#     Edge 37, Type (0, 1), BuildingBlock: XUDNAN_clean_linker_2, # of connection points: 2
#     Edge 38, Type (0, 1), BuildingBlock: XUDNAN_clean_linker_2, # of connection points: 2
#     Edge 39, Type (0, 1), BuildingBlock: XUDNAN_clean_linker_2, # of connection points: 2
#     Edge 40, Type (0, 1), BuildingBlock: XUDNAN_clean_linker_2, # of connection points: 2
#     Edge 41, Type (0, 1), BuildingBlock: XUDNAN_clean_linker_2, # of connection points: 2
#     Edge 42, Type (0, 1), BuildingBlock: XUDNAN_clean_linker_2, # of connection points: 2
#     Edge 43, Type (0, 1), BuildingBlock: XUDNAN_clean_linker_2, # of connection points: 2
#     Edge 44, Type (0, 1), BuildingBlock: XUDNAN_clean_linker_2, # of connection points: 2
#     Edge 45, Type (0, 1), BuildingBlock: XUDNAN_clean_linker_2, # of connection points: 2
#     Edge 46, Type (0, 1), BuildingBlock: XUDNAN_clean_linker_2, # of connection points: 2
#     Edge 47, Type (0, 1), BuildingBlock: XUDNAN_clean_linker_2, # of connection points: 2
#     Edge 48, Type (0, 1), BuildingBlock: XUDNAN_clean_linker_2, # of connection points: 2
#     Edge 49, Type (0, 1), BuildingBlock: XUDNAN_clean_linker_2, # of connection points: 2
#     Edge 50, Type (0, 1), BuildingBlock: XUDNAN_clean_linker_2, # of connection points: 2
#     Edge 51, Type (0, 1), BuildingBlock: XUDNAN_clean_linker_2, # of connection points: 2
#     Edge 52, Type (0, 1), BuildingBlock: XUDNAN_clean_linker_2, # of connection points: 2
#     Edge 53, Type (0, 1), BuildingBlock: XUDNAN_clean_linker_2, # of connection points: 2
#     Edge 54, Type (0, 1), BuildingBlock: XUDNAN_clean_linker_2, # of connection points: 2
#     Edge 55, Type (0, 1), BuildingBlock: XUDNAN_clean_linker_2, # of connection points: 2
#     Edge 56, Type (0, 1), BuildingBlock: XUDNAN_clean_linker_2, # of connection points: 2
#     Edge 57, Type (0, 1), BuildingBlock: XUDNAN_clean_linker_2, # of connection points: 2
#     Edge 58, Type (0, 1), BuildingBlock: XUDNAN_clean_linker_2, # of connection points: 2
#     Edge 59, Type (0, 1), BuildingBlock: XUDNAN_clean_linker_2, # of connection points: 2
#     Edge 60, Type (0, 1), BuildingBlock: XUDNAN_clean_linker_2, # of connection points: 2
#     Edge 61, Type (0, 1), BuildingBlock: XUDNAN_clean_linker_2, # of connection points: 2
# Relax obj value: 0.154
# Max RMSD: 0.303
# Mean RMSD: 0.175
data_MOF--net-ocu--node1-VOLQOD_clean_sbu_1--node2-VETTIZ_charged_sbu_0--edge1-XUDNAN_clean_linker_2
_symmetry_space_group_name_H-M    P1
_symmetry_Int_Tables_number       1
_symmetry_cell_setting            triclinic
loop_
_symmetry_equiv_pos_as_xyz
'x, y, z'
_cell_length_a     38.449805
_cell_length_b     38.670765
_cell_length_c     38.358766
_cell_angle_alpha  90.097945
_cell_angle_beta   89.82132
_cell_angle_gamma 89.797109
loop_
_atom_site_label
_atom_site_type_symbol
_atom_site_fract_x
_atom_site_fract_y
_atom_site_fract_z
_atom_type_partial_charge
O0 O 0.32319 0.302 0.24695 0.0
Zn1 Zn 0.29563 0.27003 0.27875 0.0
O2 O 0.268 0.23775 0.25082 0.0
Zn3 Zn 0.22 0.23714 0.26692 0.0
Zn4 Zn 0.26833 0.25113 0.20227 0.0
Zn5 Zn 0.28793 0.19167 0.25493 0.0
O6 O 0.20829 0.19129 0.28744 0.0
O7 O 0.25642 0.15987 0.28192 0.0
O8 O 0.26463 0.29766 0.31158 0.0
O9 O 0.21361 0.27166 0.30535 0.0
O10 O 0.1855 0.25046 0.22963 0.0
O11 O 0.22121 0.26618 0.18704 0.0
O12 O 0.28387 0.21201 0.17122 0.0
O13 O 0.32971 0.24384 0.30898 0.0
O14 O 0.2995 0.171 0.20856 0.0
O15 O 0.33132 0.19265 0.28266 0.0
C16 C 0.32169 0.3074 0.21417 0.0
C17 C 0.22533 0.16352 0.29278 0.0
C18 C 0.19068 0.26342 0.19959 0.0
C19 C 0.23273 0.29413 0.32006 0.0
C20 C 0.29617 0.18208 0.17755 0.0
C21 C 0.34284 0.21378 0.30518 0.0
O22 O 0.30122 0.29044 0.19458 0.0
O23 O 0.74239 0.21014 0.2017 0.0
Zn24 Zn 0.77924 0.23159 0.23373 0.0
O25 O 0.75645 0.2641 0.26659 0.0
Zn26 Zn 0.76776 0.31073 0.25386 0.0
Zn27 Zn 0.70629 0.25944 0.26462 0.0
Zn28 Zn 0.77063 0.25727 0.31495 0.0
O29 O 0.78961 0.33595 0.29243 0.0
O30 O 0.79375 0.29923 0.33639 0.0
O31 O 0.81243 0.25778 0.20064 0.0
O32 O 0.80156 0.3125 0.21492 0.0
O33 O 0.72602 0.33776 0.24108 0.0
O34 O 0.6819 0.30487 0.25763 0.0
O35 O 0.68766 0.2379 0.30759 0.0
O36 O 0.80619 0.19467 0.2623 0.0
O37 O 0.73067 0.242 0.34577 0.0
O38 O 0.80441 0.21842 0.31544 0.0
C39 C 0.70921 0.21238 0.20153 0.0
C40 C 0.7988 0.32905 0.32335 0.0
C41 C 0.69368 0.33329 0.246 0.0
C42 C 0.81754 0.29018 0.19657 0.0
C43 C 0.69957 0.23378 0.33816 0.0
C44 C 0.81501 0.19506 0.29451 0.0
O45 O 0.69279 0.22985 0.22439 0.0
O46 O 0.71017 0.70219 0.25674 0.0
Zn47 Zn 0.74587 0.72665 0.28795 0.0
O48 O 0.77598 0.75817 0.26048 0.0
Zn49 Zn 0.8255 0.74692 0.2641 0.0
Zn50 Zn 0.76308 0.75611 0.21157 0.0
Zn51 Zn 0.76897 0.80512 0.27664 0.0
O52 O 0.85369 0.78769 0.28407 0.0
O53 O 0.81398 0.8296 0.28657 0.0
O54 O 0.77644 0.69051 0.31142 0.0
O55 O 0.82995 0.7068 0.29632 0.0
O56 O 0.84515 0.72929 0.21752 0.0
O57 O 0.80262 0.74182 0.18063 0.0
O58 O 0.73846 0.79914 0.19539 0.0
O59 O 0.71949 0.75284 0.32615 0.0
O60 O 0.73944 0.83159 0.24305 0.0
O61 O 0.74101 0.80569 0.32059 0.0
C62 C 0.70782 0.70149 0.22355 0.0
C63 C 0.84517 0.81908 0.29044 0.0
C64 C 0.83277 0.72953 0.18668 0.0
C65 C 0.8094 0.68651 0.31239 0.0
C66 C 0.72922 0.82618 0.21201 0.0
C67 C 0.72161 0.78418 0.33638 0.0
O68 O 0.7276 0.71966 0.20445 0.0
O69 O 0.29282 0.78109 0.31176 0.0
Zn70 Zn 0.25845 0.75557 0.28064 0.0
O71 O 0.23622 0.78832 0.24784 0.0
Zn72 Zn 0.1862 0.78768 0.25325 0.0
Zn73 Zn 0.25097 0.83483 0.25765 0.0
Zn74 Zn 0.24773 0.77765 0.19949 0.0
O75 O 0.16281 0.76717 0.21207 0.0
O76 O 0.20579 0.75934 0.17399 0.0
O77 O 0.2218 0.73331 0.31259 0.0
O78 O 0.17358 0.75978 0.29484 0.0
O79 O 0.16558 0.83399 0.26222 0.0
O80 O 0.2123 0.8653 0.27346 0.0
O81 O 0.27088 0.85702 0.21634 0.0
O82 O 0.28702 0.71959 0.25349 0.0
O83 O 0.26882 0.81863 0.17354 0.0
O84 O 0.28251 0.73939 0.19923 0.0
C85 C 0.30206 0.81272 0.31266 0.0
C86 C 0.17384 0.75703 0.18252 0.0
C87 C 0.17949 0.8621 0.27189 0.0
C88 C 0.18922 0.73943 0.31558 0.0
C89 C 0.2766 0.84862 0.18491 0.0
C90 C 0.29504 0.71806 0.22115 0.0
O91 O 0.28807 0.83529 0.29316 0.0
O92 O 0.22491 0.69636 0.7057 0.0
Zn93 Zn 0.2671 0.71434 0.73141 0.0
O94 O 0.25215 0.74491 0.77057 0.0
Zn95 Zn 0.27376 0.79004 0.76614 0.0
Zn96 Zn 0.20165 0.75063 0.77225 0.0
Zn97 Zn 0.26658 0.72516 0.81426 0.0
O98 O 0.30708 0.80042 0.80552 0.0
O99 O 0.30118 0.75448 0.83954 0.0
O100 O 0.2967 0.74007 0.69633 0.0
O101 O 0.30111 0.79124 0.7223 0.0
O102 O 0.23846 0.82781 0.75847 0.0
O103 O 0.18807 0.80001 0.76016 0.0
O104 O 0.17931 0.73186 0.8172 0.0
O105 O 0.29587 0.67371 0.74838 0.0
O106 O 0.22671 0.71539 0.84565 0.0
O107 O 0.29018 0.68046 0.80566 0.0
C108 C 0.19265 0.70305 0.7097 0.0
C109 C 0.31534 0.78334 0.83268 0.0
C110 C 0.20556 0.82751 0.75474 0.0
C111 C 0.30783 0.771 0.69701 0.0
C112 C 0.19386 0.71842 0.84382 0.0
C113 C 0.30109 0.66345 0.77944 0.0
O114 O 0.18176 0.72293 0.73382 0.0
O115 O 0.20567 0.20577 0.76498 0.0
Zn116 Zn 0.24087 0.23651 0.79099 0.0
O117 O 0.26162 0.2694 0.7576 0.0
Zn118 Zn 0.31137 0.26242 0.75179 0.0
Zn119 Zn 0.24028 0.26562 0.71227 0.0
Zn120 Zn 0.25512 0.31593 0.7741 0.0
O121 O 0.34021 0.29991 0.77433 0.0
O122 O 0.29864 0.3337 0.79577 0.0
O123 O 0.27933 0.20536 0.81152 0.0
O124 O 0.32413 0.22046 0.77785 0.0
O125 O 0.3255 0.25202 0.70221 0.0
O126 O 0.27386 0.24576 0.67751 0.0
O127 O 0.22496 0.31193 0.69413 0.0
O128 O 0.21424 0.2632 0.82958 0.0
O129 O 0.24032 0.34802 0.73632 0.0
O130 O 0.21846 0.3174 0.81063 0.0
C131 C 0.19107 0.20915 0.73524 0.0
C132 C 0.33061 0.32553 0.79295 0.0
C133 C 0.30684 0.24326 0.67629 0.0
C134 C 0.31075 0.20141 0.80118 0.0
C135 C 0.22786 0.34248 0.70618 0.0
C136 C 0.20606 0.29526 0.83167 0.0
O137 O 0.20029 0.23273 0.71402 0.0
O138 O 0.81192 0.24673 0.81279 0.0
Zn139 Zn 0.7796 0.21827 0.78357 0.0
O140 O 0.75227 0.24715 0.75134 0.0
Zn141 Zn 0.70379 0.24417 0.76376 0.0
Zn142 Zn 0.76682 0.29504 0.75456 0.0
Zn143 Zn 0.75758 0.2311 0.70347 0.0
O144 O 0.67427 0.23269 0.72228 0.0
O145 O 0.71233 0.21567 0.68212 0.0
O146 O 0.74922 0.18947 0.81445 0.0
O147 O 0.69645 0.20468 0.79637 0.0
O148 O 0.68714 0.2881 0.78654 0.0
O149 O 0.72744 0.32642 0.77117 0.0
O150 O 0.78888 0.31056 0.70946 0.0
O151 O 0.80951 0.18474 0.75699 0.0
O152 O 0.78059 0.26664 0.6731 0.0
O153 O 0.79112 0.19202 0.70253 0.0
C154 C 0.81984 0.2786 0.81122 0.0
C155 C 0.68108 0.21953 0.69255 0.0
C156 C 0.69847 0.31901 0.78566 0.0
C157 C 0.71637 0.18613 0.81503 0.0
C158 C 0.79285 0.29645 0.67963 0.0
C159 C 0.81025 0.17694 0.72482 0.0
O160 O 0.80477 0.29902 0.79004 0.0
O161 O 0.81347 0.82492 0.76112 0.0
Zn162 Zn 0.78746 0.78864 0.78931 0.0
O163 O 0.75661 0.76061 0.75966 0.0
Zn164 Zn 0.70844 0.77162 0.76999 0.0
Zn165 Zn 0.76533 0.77217 0.71196 0.0
Zn166 Zn 0.76472 0.71119 0.76475 0.0
O167 O 0.68189 0.72928 0.78296 0.0
O168 O 0.72249 0.68835 0.78698 0.0
O169 O 0.7604 0.81348 0.82701 0.0
O170 O 0.706 0.80231 0.81162 0.0
O171 O 0.68494 0.79812 0.73162 0.0
O172 O 0.72669 0.7988 0.69175 0.0
O173 O 0.77591 0.73217 0.68178 0.0
O174 O 0.82292 0.75743 0.81205 0.0
O175 O 0.77741 0.68801 0.71839 0.0
O176 O 0.80614 0.70478 0.79574 0.0
C177 C 0.81982 0.82453 0.72854 0.0
C178 C 0.69114 0.69869 0.79105 0.0
C179 C 0.6966 0.80764 0.70212 0.0
C180 C 0.72776 0.81678 0.83176 0.0
C181 C 0.78086 0.7003 0.68771 0.0
C182 C 0.82685 0.72468 0.81211 0.0
O183 O 0.8052 0.80333 0.70811 0.0
Fe184 Fe 0.01446 0.08977 0.50887 0.0
O185 O 0.01708 0.03953 0.49979 0.0
Fe186 Fe 0.05774 0.01306 0.52515 0.0
Fe187 Fe 0.97854 0.00699 0.51138 0.0
O188 O 0.02027 0.04022 0.50191 0.0
O189 O 0.01936 0.97974 0.53551 0.0
O190 O 0.01618 0.9791 0.53354 0.0
Fe191 Fe 0.02254 0.9296 0.52471 0.0
C192 C 0.96478 0.06315 0.5639 0.0
O193 O 0.97912 0.08653 0.46886 0.0
O194 O 0.94414 0.04075 0.48489 0.0
O195 O 0.06393 0.93384 0.49053 0.0
O196 O 0.06663 0.99011 0.47882 0.0
O197 O 0.09347 0.0506 0.50781 0.0
O198 O 0.05882 0.09042 0.47949 0.0
O199 O 0.98448 0.98207 0.46398 0.0
O200 O 0.98964 0.92788 0.48228 0.0
C201 C 0.08819 0.07444 0.4843 0.0
O202 O 0.05778 0.9322 0.56486 0.0
O203 O 0.09198 0.97941 0.552 0.0
O204 O 0.97262 0.08647 0.54191 0.0
O205 O 0.97068 0.03132 0.55828 0.0
C206 C 0.95119 0.06797 0.46599 0.0
C207 C 0.98206 0.94966 0.45868 0.0
C208 C 0.94869 0.94332 0.55003 0.0
O209 O 0.94313 0.96952 0.52929 0.0
O210 O 0.97828 0.92755 0.55422 0.0
C211 C 0.0724 0.95898 0.47092 0.0
O212 O 0.05049 0.03811 0.57212 0.0
O213 O 0.04691 0.09172 0.55162 0.0
C214 C 0.08477 0.9516 0.56995 0.0
C215 C 0.05343 0.07063 0.57624 0.0
Fe216 Fe 0.51652 0.9654 0.01303 0.0
O217 O 0.53416 0.00921 0.03391 0.0
Fe218 Fe 0.45 0.99352 0.95887 0.0
Fe219 Fe 0.58213 0.01524 0.04961 0.0
O220 O 0.49764 0.9965 0.97624 0.0
O221 O 0.49709 -0.00021 0.97602 0.0
O222 O 0.53396 0.01251 0.03337 0.0
Fe223 Fe 0.51455 0.04362 0.9968 0.0
C224 C 0.5543 0.95059 0.08335 0.0
O225 O 0.56096 0.95908 0.98422 0.0
O226 O 0.6008 0.97186 0.02424 0.0
O227 O 0.49105 0.07067 0.95525 0.0
O228 O 0.46684 0.02762 0.92148 0.0
O229 O 0.46947 0.94876 0.93758 0.0
O230 O 0.49489 0.92317 0.98553 0.0
O231 O 0.59915 0.04464 0.00775 0.0
O232 O 0.55821 0.03783 0.96728 0.0
C233 C 0.48062 0.92198 0.95466 0.0
O234 O 0.46999 0.04975 0.02576 0.0
O235 O 0.43076 0.03625 0.98497 0.0
O236 O 0.53955 0.93874 0.05514 0.0
O237 O 0.56531 0.982 0.08771 0.0
C238 C 0.59193 0.95768 0.99567 0.0
C239 C 0.58936 0.04401 0.97604 0.0
C240 C 0.5531 0.08721 0.05355 0.0
O241 O 0.56376 0.0605 0.07088 0.0
O242 O 0.53744 0.08591 0.02339 0.0
C243 C 0.47632 0.05933 0.92687 0.0
O244 O 0.43295 0.96296 -0.0006 0.0
O245 O 0.4718 0.97066 0.04189 0.0
C246 C 0.43912 0.05039 0.01378 0.0
C247 C 0.44133 0.96336 0.03145 0.0
Fe248 Fe 0.00585 0.53783 0.01243 0.0
O249 O 0.98452 0.49936 0.98525 0.0
Fe250 Fe 0.07588 0.49752 0.05354 0.0
Fe251 Fe 0.93485 0.49827 0.97358 0.0
O252 O 0.02643 0.50001 0.04128 0.0
O253 O 0.02635 0.4968 0.04142 0.0
O254 O 0.98447 0.49609 0.98537 0.0
Fe255 Fe 0.00463 0.45832 0.01449 0.0
C256 C 0.93377 0.54878 0.03644 0.0
O257 O 0.98158 0.57266 0.97835 0.0
O258 O 0.94973 0.53819 0.94116 0.0
O259 O 0.04666 0.45488 0.98108 0.0
O260 O 0.08935 0.45767 0.01993 0.0
O261 O 0.09075 0.53405 0.01749 0.0
O262 O 0.04793 0.53849 0.97897 0.0
O263 O 0.94895 0.45676 0.94278 0.0
O264 O 0.97926 0.42277 0.98188 0.0
C265 C 0.07861 0.54565 0.98894 0.0
O266 O 0.02849 0.42366 0.04904 0.0
O267 O 0.06044 0.45819 0.08637 0.0
O268 O 0.96419 0.54043 0.04614 0.0
O269 O 0.92113 0.53749 0.00794 0.0
C270 C 0.964 0.56742 0.94984 0.0
C271 C 0.96204 0.42741 0.953 0.0
C272 C 0.93245 0.45065 0.03817 0.0
O273 O 0.92023 0.46058 0.00902 0.0
O274 O 0.96274 0.4592 0.04792 0.0
C275 C 0.07715 0.44691 0.99107 0.0
O276 O 0.06272 0.54022 0.08355 0.0
O277 O 0.03067 0.57318 0.04476 0.0
C278 C 0.04629 0.42901 0.07737 0.0
C279 C 0.04907 0.56917 0.07284 0.0
Fe280 Fe 0.50884 0.51279 0.9755 0.0
O281 O 0.53719 0.49771 0.01615 0.0
Fe282 Fe 0.42707 0.52733 0.01203 0.0
Fe283 Fe 0.58771 0.50397 0.01812 0.0
O284 O 0.47762 0.53404 0.01144 0.0
O285 O 0.47762 0.53484 0.01473 0.0
O286 O 0.53706 0.49816 0.01937 0.0
Fe287 Fe 0.50577 0.51931 0.05545 0.0
C288 C 0.57172 0.46847 0.94959 0.0
O289 O 0.53555 0.55843 0.97182 0.0
O290 O 0.58942 0.53805 0.97674 0.0
O291 O 0.46889 0.54396 0.08811 0.0
O292 O 0.42737 0.56495 0.05015 0.0
O293 O 0.43022 0.55776 0.96794 0.0
O294 O 0.47496 0.53143 0.93727 0.0
O295 O 0.58739 0.54487 0.05255 0.0
O296 O 0.53299 0.56504 0.05567 0.0
C297 C 0.44718 0.55066 0.93935 0.0
O298 O 0.47926 0.4735 0.05835 0.0
O299 O 0.42502 0.49258 0.05292 0.0
O300 O 0.54537 0.48857 0.94277 0.0
O301 O 0.58679 0.46583 0.97983 0.0
C302 C 0.56781 0.56002 0.96475 0.0
C303 C 0.56538 0.56779 0.06194 0.0
C304 C 0.56639 0.47981 0.09086 0.0
O305 O 0.58426 0.47389 0.06251 0.0
O306 O 0.53908 0.49963 0.09336 0.0
C307 C 0.44244 0.56381 0.08045 0.0
O308 O 0.42822 0.48687 0.97731 0.0
O309 O 0.48241 0.46671 0.97662 0.0
C310 C 0.44688 0.47044 0.06403 0.0
C311 C 0.45039 0.46373 0.96912 0.0
Fe312 Fe 0.02119 0.46134 0.50773 0.0
O313 O 0.99133 0.49557 0.53315 0.0
Fe314 Fe 0.04111 0.50497 0.43085 0.0
Fe315 Fe 0.98763 0.49934 0.58403 0.0
O316 O 0.038 0.50298 0.48192 0.0
O317 O 0.03742 0.5065 0.48187 0.0
O318 O 0.99071 0.49885 0.53306 0.0
Fe319 Fe 0.00625 0.5401 0.50624 0.0
C320 C 0.97437 0.42397 0.56218 0.0
O321 O 0.06101 0.46724 0.54223 0.0
O322 O 0.03359 0.47382 0.59341 0.0
O323 O 0.02844 0.57953 0.4749 0.0
O324 O 0.06746 0.5501 0.43968 0.0
O325 O 0.08115 0.4707 0.44006 0.0
O326 O 0.05567 0.43113 0.47733 0.0
O327 O 0.01344 0.54538 0.58954 0.0
O328 O 0.0451 0.54996 0.54133 0.0
C329 C 0.08023 0.4412 0.45613 0.0
O330 O 0.96725 0.53154 0.47122 0.0
O331 O 0.99797 0.53608 0.42239 0.0
O332 O -0.0015 0.42193 0.53825 0.0
O333 O 0.9648 0.45194 0.57827 0.0
C334 C 0.06087 0.46853 0.57528 0.0
C335 C 0.03928 0.55742 0.57297 0.0
C336 C 0.94531 0.55903 0.55735 0.0
O337 O 0.94536 0.52937 0.57317 0.0
O338 O 0.96935 0.56941 0.53546 0.0
C339 C 0.05566 0.57809 0.45434 0.0
O340 O 0.01001 0.46244 0.423 0.0
O341 O 0.98175 0.45424 0.47318 0.0
C342 C 0.96923 0.53799 0.4389 0.0
C343 C 0.98372 0.45216 0.44026 0.0
Fe344 Fe 0.50351 0.96032 0.51449 0.0
O345 O 0.47501 -0.00234 0.53647 0.0
Fe346 Fe 0.53132 -0.00216 0.43687 0.0
Fe347 Fe 0.46765 0.00147 0.58698 0.0
O348 O 0.52575 -0.00155 0.48766 0.0
O349 O 0.52641 0.00156 0.48815 0.0
O350 O 0.47514 0.00073 0.53661 0.0
Fe351 Fe 0.49852 0.03897 0.51113 0.0
C352 C 0.44885 0.92842 0.56449 0.0
O353 O 0.5408 0.96607 0.55131 0.0
O354 O 0.50818 0.96823 0.5995 0.0
O355 O 0.52727 0.0743 0.48152 0.0
O356 O 0.56219 0.04062 0.44538 0.0
O357 O 0.56671 0.95919 0.44847 0.0
O358 O 0.53662 0.92547 0.48792 0.0
O359 O 0.49988 0.04289 0.59526 0.0
O360 O 0.53542 0.04491 0.54953 0.0
C361 C 0.5619 0.93071 0.4658 0.0
O362 O 0.46119 0.03527 0.47365 0.0
O363 O 0.49355 0.03422 0.42591 0.0
O364 O 0.47644 0.92439 0.54512 0.0
O365 O 0.43875 0.95762 0.57805 0.0
C366 C 0.53717 0.96314 0.58404 0.0
C367 C 0.5272 0.05409 0.58035 0.0
C368 C 0.43797 0.06754 0.55663 0.0
O369 O 0.43141 0.03887 0.57317 0.0
O370 O 0.46523 0.07337 0.53731 0.0
C371 C 0.55362 0.06959 0.46057 0.0
O372 O 0.49603 0.95794 0.42881 0.0
O373 O 0.46584 0.95379 0.47825 0.0
C374 C 0.46639 0.04386 0.44227 0.0
C375 C 0.47028 0.94659 0.44637 0.0
H376 H 0.15727 0.15621 0.30947 0.0
H377 H 0.25963 0.11457 0.33188 0.0
H378 H 0.23532 0.0828 0.38232 0.0
H379 H 0.13556 0.17538 0.39227 0.0
H380 H 0.09014 0.1645 0.38908 0.0
H381 H 0.11365 0.17762 0.35084 0.0
H382 H 0.09693 0.12074 0.31911 0.0
H383 H 0.07237 0.10786 0.35697 0.0
H384 H 0.10574 0.07976 0.33967 0.0
H385 H 0.20016 0.06239 0.43581 0.0
H386 H 0.15723 0.05268 0.48335 0.0
H387 H 0.08064 0.11127 0.42472 0.0
C388 C 0.17442 0.1395 0.32423 0.0
C389 C 0.21024 0.13781 0.31677 0.0
C390 C 0.23193 0.1159 0.33691 0.0
C391 C 0.21839 0.09792 0.36574 0.0
C392 C 0.18316 0.10189 0.37363 0.0
C393 C 0.16144 0.1217 0.35293 0.0
C394 C 0.12547 0.12479 0.36827 0.0
C395 C 0.11567 0.16282 0.37555 0.0
C396 C 0.09854 0.10723 0.3446 0.0
C397 C 0.13059 0.1049 0.40158 0.0
C398 C 0.16368 0.09127 0.40428 0.0
C399 C 0.17405 0.0727 0.43373 0.0
C400 C 0.14966 0.06759 0.46073 0.0
C401 C 0.11563 0.08153 0.45813 0.0
C402 C 0.10643 0.10047 0.42808 0.0
H403 H 0.87022 0.20518 0.33598 0.0
H404 H 0.80778 0.1243 0.2899 0.0
H405 H 0.83621 0.08108 0.32858 0.0
H406 H 0.95004 0.1527 0.34929 0.0
H407 H 0.9594 0.17479 0.38958 0.0
H408 H 0.93703 0.19718 0.3551 0.0
H409 H 0.88712 0.21213 0.39821 0.0
H410 H 0.90876 0.189 0.43255 0.0
H411 H 0.86491 0.17771 0.42068 0.0
H412 H 0.86755 0.04831 0.37896 0.0
H413 H 0.9033 0.02883 0.42922 0.0
H414 H 0.9438 0.13282 0.4401 0.0
C415 C 0.8634 0.17815 0.3332 0.0
C416 C 0.83726 0.16786 0.30974 0.0
C417 C 0.82839 0.13247 0.30721 0.0
C418 C 0.84413 0.10789 0.32937 0.0
C419 C 0.86886 0.11926 0.35344 0.0
C420 C 0.87891 0.15356 0.35475 0.0
C421 C 0.90477 0.16004 0.38354 0.0
C422 C 0.93989 0.17186 0.36847 0.0
C423 C 0.89051 0.18626 0.41031 0.0
C424 C 0.90731 0.12425 0.39895 0.0
C425 C 0.88653 0.10087 0.38152 0.0
C426 C 0.88419 0.06644 0.39241 0.0
C427 C 0.9043 0.05564 0.42118 0.0
C428 C 0.92651 0.07922 0.43851 0.0
C429 C 0.92743 0.11397 0.42728 0.0
H430 H 0.8973 0.80514 0.33737 0.0
H431 H 0.84876 0.88864 0.27985 0.0
H432 H 0.88454 0.93106 0.3118 0.0
H433 H 0.89574 0.84708 0.4174 0.0
H434 H 0.93665 0.83019 0.4328 0.0
H435 H 0.91183 0.80615 0.40142 0.0
H436 H 0.96501 0.80469 0.36072 0.0
H437 H 0.99043 0.83018 0.39062 0.0
H438 H 0.98443 0.84446 0.34629 0.0
H439 H 0.92063 0.96494 0.35448 0.0
H440 H 0.95243 0.98734 0.40556 0.0
H441 H 0.97625 0.88207 0.43689 0.0
C442 C 0.89516 0.83225 0.33066 0.0
C443 C 0.87072 0.84355 0.30562 0.0
C444 C 0.86762 0.87939 0.2986 0.0
C445 C 0.88789 0.90369 0.3166 0.0
C446 C 0.91105 0.89186 0.34184 0.0
C447 C 0.9148 0.85696 0.3489 0.0
C448 C 0.93867 0.85133 0.37984 0.0
C449 C 0.91957 0.83259 0.40961 0.0
C450 C 0.97161 0.83151 0.36872 0.0
C451 C 0.94694 0.88847 0.38963 0.0
C452 C 0.93122 0.91145 0.36705 0.0
C453 C 0.9334 0.94715 0.37208 0.0
C454 C 0.95152 0.95967 0.40126 0.0
C455 C 0.96685 0.93659 0.42547 0.0
C456 C 0.965 0.90053 0.41893 0.0
H457 H 0.11668 0.8526 0.30223 0.0
H458 H 0.19474 0.9304 0.28076 0.0
H459 H 0.16758 0.96893 0.32426 0.0
H460 H 0.04288 0.91614 0.33076 0.0
H461 H 0.02969 0.88687 0.36471 0.0
H462 H 0.0458 0.8701 0.32375 0.0
H463 H 0.09211 0.83426 0.3563 0.0
H464 H 0.07684 0.85057 0.39738 0.0
H465 H 0.12189 0.85575 0.38534 0.0
H466 H 0.14282 0.99184 0.37848 0.0
H467 H 0.11895 -0.00022 0.43764 0.0
H468 H 0.05991 0.90498 0.42706 0.0
C469 C 0.12676 0.87854 0.30522 0.0
C470 C 0.1576 0.88875 0.28819 0.0
C471 C 0.17095 0.92233 0.29352 0.0
C472 C 0.15563 0.94438 0.31809 0.0
C473 C 0.12703 0.93233 0.33682 0.0
C474 C 0.11218 0.90044 0.3302 0.0
C475 C 0.08603 0.89079 0.35813 0.0
C476 C 0.0489 0.89098 0.34343 0.0
C477 C 0.0948 0.8558 0.37528 0.0
C478 C 0.09115 0.92049 0.38308 0.0
C479 C 0.11379 0.94483 0.36966 0.0
C480 C 0.12442 0.9734 0.3889 0.0
C481 C 0.1111 0.97745 0.42256 0.0
C482 C 0.08808 0.95265 0.43677 0.0
C483 C 0.07792 0.92392 0.4168 0.0
H484 H 0.14012 0.82995 0.72689 0.0
H485 H 0.23426 0.89051 0.7379 0.0
H486 H 0.21217 0.93204 0.69434 0.0
H487 H 0.13563 0.83515 0.63853 0.0
H488 H 0.08892 0.83789 0.63566 0.0
H489 H 0.10875 0.81676 0.67229 0.0
H490 H 0.07596 0.85749 0.71501 0.0
H491 H 0.05533 0.8783 0.67847 0.0
H492 H 0.07928 0.90367 0.70964 0.0
H493 H 0.18239 0.96302 0.64311 0.0
H494 H 0.14655 0.98129 0.5926 0.0
H495 H 0.07411 0.89831 0.61538 0.0
C496 C 0.15559 0.85263 0.72129 0.0
C497 C 0.18885 0.85695 0.73619 0.0
C498 C 0.20852 0.88667 0.7272 0.0
C499 C 0.19624 0.9104 0.7023 0.0
C500 C 0.16414 0.90426 0.68671 0.0
C501 C 0.14389 0.87631 0.69634 0.0
C502 C 0.11191 0.87344 0.67371 0.0
C503 C 0.11131 0.83877 0.65388 0.0
C504 C 0.07865 0.87855 0.69551 0.0
C505 C 0.11776 0.90347 0.64921 0.0
C506 C 0.14771 0.92133 0.65715 0.0
C507 C 0.15867 0.94937 0.63695 0.0
C508 C 0.13827 0.95945 0.60815 0.0
C509 C 0.10751 0.94125 0.5996 0.0
C510 C 0.09743 0.91296 0.62074 0.0
H511 H 0.14124 0.21937 0.68607 0.0
H512 H 0.18299 0.14123 0.75534 0.0
H513 H 0.14651 0.09695 0.7264 0.0
H514 H 0.05163 0.18219 0.67916 0.0
H515 H 0.04853 0.19461 0.63402 0.0
H516 H 0.07367 0.22037 0.66388 0.0
H517 H 0.12749 0.21403 0.62345 0.0
H518 H 0.10271 0.18809 0.59369 0.0
H519 H 0.14265 0.1714 0.61164 0.0
H520 H 0.11178 0.05994 0.68314 0.0
H521 H 0.08076 0.03503 0.63249 0.0
H522 H 0.06129 0.13863 0.59361 0.0
C523 C 0.14205 0.19311 0.69583 0.0
C524 C 0.16491 0.18376 0.72301 0.0
C525 C 0.16536 0.14907 0.73483 0.0
C526 C 0.1448 0.12374 0.71845 0.0
C527 C 0.12345 0.13369 0.69077 0.0
C528 C 0.12153 0.16777 0.68008 0.0
C529 C 0.09867 0.17175 0.6483 0.0
C530 C 0.0662 0.19352 0.65687 0.0
C531 C 0.11911 0.18721 0.61747 0.0
C532 C 0.08924 0.1344 0.64168 0.0
C533 C 0.10333 0.11272 0.66655 0.0
C534 C 0.10008 0.07682 0.66397 0.0
C535 C 0.08241 0.06287 0.63507 0.0
C536 C 0.0684 0.08479 0.609 0.0
C537 C 0.07139 0.12101 0.61305 0.0
H538 H 0.8584 0.19461 0.67824 0.0
H539 H 0.82266 0.10888 0.74112 0.0
H540 H 0.86493 0.06998 0.71107 0.0
H541 H 0.86496 0.15261 0.60157 0.0
H542 H 0.90367 0.174 0.58629 0.0
H543 H 0.8754 0.19548 0.61677 0.0
H544 H 0.92681 0.20369 0.65958 0.0
H545 H 0.9555 0.18246 0.629 0.0
H546 H 0.952 0.16666 0.67304 0.0
H547 H 0.90476 0.03977 0.66745 0.0
H548 H 0.93973 0.02139 0.61641 0.0
H549 H 0.94887 0.1286 0.58427 0.0
C550 C 0.8602 0.16779 0.68622 0.0
C551 C 0.83768 0.15433 0.71162 0.0
C552 C 0.84018 0.11932 0.72167 0.0
C553 C 0.86404 0.09725 0.70484 0.0
C554 C 0.88539 0.11117 0.67891 0.0
C555 C 0.88404 0.14585 0.67021 0.0
C556 C 0.90737 0.15427 0.63978 0.0
C557 C 0.88659 0.16998 0.60933 0.0
C558 C 0.93719 0.17817 0.65104 0.0
C559 C 0.92058 0.11856 0.63122 0.0
C560 C 0.90825 0.09401 0.65429 0.0
C561 C 0.91505 0.05887 0.64963 0.0
C562 C 0.93466 0.04866 0.62042 0.0
C563 C 0.94664 0.07355 0.59614 0.0
C564 C 0.94009 0.10889 0.60226 0.0
H565 H 0.87246 0.81121 0.68489 0.0
H566 H 0.81434 0.89496 0.73257 0.0
H567 H 0.83903 0.93591 0.68926 0.0
H568 H 0.95047 0.86205 0.66006 0.0
H569 H 0.95545 0.83746 0.62039 0.0
H570 H 0.93691 0.8175 0.65848 0.0
H571 H 0.88299 0.8007 0.6217 0.0
H572 H 0.90055 0.82209 0.58397 0.0
H573 H 0.8582 0.83413 0.60033 0.0
H574 H 0.86546 0.96567 0.63537 0.0
H575 H 0.8994 0.98329 0.58318 0.0
H576 H 0.93726 0.87816 0.57177 0.0
C577 C 0.86617 0.83847 0.68708 0.0
C578 C 0.8422 0.8503 0.71216 0.0
C579 C 0.83353 0.88583 0.71394 0.0
C580 C 0.84697 0.90903 0.68916 0.0
C581 C 0.86901 0.896 0.66323 0.0
C582 C 0.87919 0.86165 0.66274 0.0
C583 C 0.90178 0.85332 0.63166 0.0
C584 C 0.93832 0.84194 0.64335 0.0
C585 C 0.88484 0.82595 0.60804 0.0
C586 C 0.90243 0.88819 0.61428 0.0
C587 C 0.88336 0.91261 0.63256 0.0
C588 C 0.88065 0.94676 0.62105 0.0
C589 C 0.89956 0.95645 0.59118 0.0
C590 C 0.9209 0.93202 0.5737 0.0
C591 C 0.92108 0.89732 0.58468 0.0
H592 H 0.3489 0.13508 0.17999 0.0
H593 H 0.2748 0.18269 0.1096 0.0
H594 H 0.30115 0.15066 0.06018 0.0
H595 H 0.42035 0.14263 0.12445 0.0
H596 H 0.44049 0.10233 0.13678 0.0
H597 H 0.41295 0.12494 0.16729 0.0
H598 H 0.37435 0.07042 0.17403 0.0
H599 H 0.4021 0.04755 0.1438 0.0
H600 H 0.35604 0.05049 0.13576 0.0
H601 H 0.33693 0.11527 0.01845 0.0
H602 H 0.38184 0.08186 0.98668 0.0
H603 H 0.43533 0.0617 0.08401 0.0
C604 C 0.33768 0.1381 0.15431 0.0
C605 C 0.30955 0.1609 0.14854 0.0
C606 C 0.29622 0.1651 0.11446 0.0
C607 C 0.31092 0.14697 0.08634 0.0
C608 C 0.33908 0.12515 0.09283 0.0
C609 C 0.35244 0.12077 0.12595 0.0
C610 C 0.38479 0.09837 0.1255 0.0
C611 C 0.41651 0.11827 0.13931 0.0
C612 C 0.37895 0.06472 0.14599 0.0
C613 C 0.38792 0.09136 0.08687 0.0
C614 C 0.36092 0.10642 0.06856 0.0
C615 C 0.35817 0.10335 0.03251 0.0
C616 C 0.38377 0.08442 0.01472 0.0
C617 C 0.41208 0.06956 0.03296 0.0
C618 C 0.4141 0.07309 0.06946 0.0
H619 H 0.86514 0.34172 0.20151 0.0
H620 H 0.81859 0.27032 0.12822 0.0
H621 H 0.84522 0.30269 0.07926 0.0
H622 H 0.85296 0.41632 0.15595 0.0
H623 H 0.894 0.43633 0.16602 0.0
H624 H 0.87558 0.4052 0.19551 0.0
H625 H 0.93159 0.3679 0.19195 0.0
H626 H 0.95062 0.39935 0.16304 0.0
H627 H 0.94809 0.35467 0.14993 0.0
H628 H 0.86828 0.34862 0.0388 0.0
H629 H 0.89476 0.39872 0.00925 0.0
H630 H 0.93045 0.43804 0.10885 0.0
C631 C 0.86166 0.33222 0.17516 0.0
C632 C 0.84015 0.3034 0.16847 0.0
C633 C 0.83555 0.29194 0.13379 0.0
C634 C 0.85033 0.31036 0.10589 0.0
C635 C 0.87027 0.33957 0.11331 0.0
C636 C 0.87692 0.34978 0.14717 0.0
C637 C 0.89837 0.38264 0.14811 0.0
C638 C 0.87905 0.41183 0.16754 0.0
C639 C 0.9343 0.37572 0.16421 0.0
C640 C 0.90136 0.39031 0.10952 0.0
C641 C 0.88486 0.36521 0.08991 0.0
C642 C 0.88185 0.36801 0.05386 0.0
C643 C 0.89661 0.39681 0.03736 0.0
C644 C 0.91453 0.42232 0.05681 0.0
C645 C 0.91704 0.41885 0.09336 0.0
H646 H 0.70131 0.82489 0.14589 0.0
H647 H 0.6926 0.87654 0.24629 0.0
H648 H 0.63971 0.90635 0.22636 0.0
H649 H 0.67468 0.89831 0.09505 0.0
H650 H 0.65178 0.87255 0.06342 0.0
H651 H 0.68815 0.85439 0.08649 0.0
H652 H 0.6488 0.80388 0.10687 0.0
H653 H 0.61203 0.82266 0.08474 0.0
H654 H 0.60938 0.81325 0.13068 0.0
H655 H 0.58871 0.93117 0.19613 0.0
H656 H 0.54945 0.9583 0.15333 0.0
H657 H 0.59037 0.89115 0.07241 0.0
C658 C 0.68845 0.84268 0.1636 0.0
C659 C 0.70113 0.8482 0.19773 0.0
C660 C 0.68358 0.87187 0.21998 0.0
C661 C 0.65319 0.88862 0.20909 0.0
C662 C 0.64071 0.8816 0.17582 0.0
C663 C 0.65816 0.85988 0.15306 0.0
C664 C 0.64051 0.85892 0.1178 0.0
C665 C 0.66524 0.87183 0.089 0.0
C666 C 0.62688 0.8225 0.10956 0.0
C667 C 0.6108 0.88405 0.12416 0.0
C668 C 0.61103 0.89619 0.15809 0.0
C669 C 0.58793 0.92159 0.16962 0.0
C670 C 0.56549 0.93659 0.14528 0.0
C671 C 0.56646 0.9262 0.10992 0.0
C672 C 0.5882 0.89852 0.09959 0.0
H673 H 0.18911 0.70071 0.14323 0.0
H674 H 0.10423 0.76821 0.1743 0.0
H675 H 0.06225 0.72861 0.14631 0.0
H676 H 0.15076 0.6683 0.05982 0.0
H677 H 0.16756 0.62541 0.06735 0.0
H678 H 0.19088 0.6625 0.08336 0.0
H679 H 0.18942 0.63626 0.14554 0.0
H680 H 0.16531 0.59963 0.12996 0.0
H681 H 0.14812 0.62562 0.16511 0.0
H682 H 0.02942 0.67938 0.11826 0.0
H683 H 0.00866 0.62369 0.09365 0.0
H684 H 0.11494 0.58651 0.08812 0.0
C685 C 0.16183 0.70782 0.14287 0.0
C686 C 0.1498 0.7377 0.16019 0.0
C687 C 0.11382 0.74556 0.16063 0.0
C688 C 0.08987 0.72326 0.14486 0.0
C689 C 0.10243 0.69314 0.12925 0.0
C690 C 0.13761 0.68546 0.12807 0.0
C691 C 0.14418 0.6497 0.11348 0.0
C692 C 0.16454 0.65161 0.07895 0.0
C693 C 0.16285 0.62645 0.14012 0.0
C694 C 0.10723 0.63811 0.10759 0.0
C695 C 0.08349 0.66374 0.11598 0.0
C696 C 0.04777 0.65906 0.11179 0.0
C697 C 0.03618 0.62743 0.09819 0.0
C698 C 0.06024 0.60083 0.09028 0.0
C699 C 0.09606 0.60621 0.09516 0.0
H700 H 0.3648 0.83167 0.81727 0.0
H701 H 0.32991 0.76308 0.89957 0.0
H702 H 0.37758 0.78367 0.93729 0.0
H703 H 0.45913 0.82289 0.83545 0.0
H704 H 0.46724 0.86764 0.82529 0.0
H705 H 0.43271 0.84479 0.80356 0.0
H706 H 0.38815 0.8913 0.82381 0.0
H707 H 0.42264 0.9145 0.84476 0.0
H708 H 0.3849 0.90175 0.86954 0.0
H709 H 0.42446 0.81719 0.96835 0.0
H710 H 0.46275 0.86337 0.99064 0.0
H711 H 0.46959 0.9066 0.88666 0.0
C712 C 0.36729 0.82079 0.84315 0.0
C713 C 0.34353 0.79593 0.85554 0.0
C714 C 0.34783 0.7822 0.88951 0.0
C715 C 0.37499 0.79351 0.91103 0.0
C716 C 0.39807 0.81802 0.89794 0.0
C717 C 0.39451 0.83137 0.8647 0.0
C718 C 0.42104 0.85922 0.85759 0.0
C719 C 0.44654 0.84794 0.82876 0.0
C720 C 0.40311 0.89371 0.84842 0.0
C721 C 0.43891 0.8608 0.89264 0.0
C722 C 0.42583 0.83643 0.91545 0.0
C723 C 0.43553 0.83582 0.95051 0.0
C724 C 0.45761 0.86197 0.96293 0.0
C725 C 0.46931 0.8884 0.94031 0.0
C726 C 0.46141 0.88643 0.90443 0.0
H727 H 0.15829 0.34713 0.8272 0.0
H728 H 0.20388 0.27438 0.89993 0.0
H729 H 0.17372 0.30426 0.94872 0.0
H730 H 0.16506 0.4209 0.87768 0.0
H731 H 0.1239 0.43967 0.86546 0.0
H732 H 0.14606 0.41075 0.836 0.0
H733 H 0.0918 0.37131 0.83345 0.0
H734 H 0.06918 0.40044 0.86248 0.0
H735 H 0.07307 0.35529 0.8734 0.0
H736 H 0.14568 0.34728 0.9897 0.0
H737 H 0.11467 0.39473 0.01967 0.0
H738 H 0.08329 0.43709 0.92002 0.0
C739 C 0.16122 0.33699 0.85334 0.0
C740 C 0.18333 0.30842 0.85993 0.0
C741 C 0.18673 0.29594 0.89437 0.0
C742 C 0.16988 0.31291 0.92219 0.0
C743 C 0.14917 0.34175 0.91489 0.0
C744 C 0.14403 0.35312 0.88119 0.0
C745 C 0.121 0.38508 0.88036 0.0
C746 C 0.14016 0.41591 0.8639 0.0
C747 C 0.08673 0.37757 0.8613 0.0
C748 C 0.11492 0.39071 0.91899 0.0
C749 C 0.1316 0.36553 0.93843 0.0
C750 C 0.13199 0.36668 0.9747 0.0
C751 C 0.11457 0.39394 0.9915 0.0
C752 C 0.09655 0.41952 0.97218 0.0
C753 C 0.09656 0.41768 0.93542 0.0
H754 H 0.71978 0.1732 0.88502 0.0
H755 H 0.67799 0.13516 0.78748 0.0
H756 H 0.64932 0.08723 0.81862 0.0
H757 H 0.72991 0.08741 0.92983 0.0
H758 H 0.71526 0.1046 0.97107 0.0
H759 H 0.73826 0.13196 0.94081 0.0
H760 H 0.68717 0.1759 0.94217 0.0
H761 H 0.66423 0.1488 0.97246 0.0
H762 H 0.64386 0.16127 0.93211 0.0
H763 H 0.62017 0.04851 0.85941 0.0
H764 H 0.58702 0.024 0.90839 0.0
H765 H 0.64501 0.08783 0.98084 0.0
C766 C 0.70527 0.15413 0.87038 0.0
C767 C 0.70117 0.15721 0.83405 0.0
C768 C 0.6813 0.13278 0.81543 0.0
C769 C 0.66529 0.10541 0.8328 0.0
C770 C 0.66924 0.10316 0.86878 0.0
C771 C 0.68842 0.12698 0.88752 0.0
C772 C 0.68428 0.12141 0.92641 0.0
C773 C 0.719 0.1107 0.943 0.0
C774 C 0.66896 0.15376 0.94432 0.0
C775 C 0.6587 0.09171 0.92646 0.0
C776 C 0.65119 0.08107 0.89289 0.0
C777 C 0.62615 0.05617 0.88586 0.0
C778 C 0.60737 0.04255 0.9138 0.0
C779 C 0.61356 0.05412 0.94824 0.0
C780 C 0.6403 0.07813 0.95478 0.0
H781 H 0.85005 0.65819 0.80774 0.0
H782 H 0.86924 0.75551 0.86071 0.0
H783 H 0.91476 0.72718 0.89618 0.0
H784 H 0.85449 0.60642 0.87931 0.0
H785 H 0.87551 0.57047 0.85783 0.0
H786 H 0.849 0.59976 0.83312 0.0
H787 H 0.90084 0.61148 0.79138 0.0
H788 H 0.92764 0.58218 0.81616 0.0
H789 H 0.94169 0.62602 0.80898 0.0
H790 H 0.95209 0.68616 0.9312 0.0
H791 H 0.976 0.63633 0.9635 0.0
H792 H 0.93266 0.56677 0.88609 0.0
C793 C 0.8642 0.67379 0.82635 0.0
C794 C 0.85603 0.70902 0.83155 0.0
C795 C 0.87515 0.72846 0.85622 0.0
C796 C 0.90115 0.71264 0.87636 0.0
C797 C 0.90804 0.67758 0.87102 0.0
C798 C 0.89024 0.65853 0.84637 0.0
C799 C 0.89996 0.62069 0.84773 0.0
C800 C 0.86784 0.59803 0.85495 0.0
C801 C 0.91865 0.60945 0.81406 0.0
C802 C 0.92461 0.62102 0.87829 0.0
C803 C 0.92961 0.6541 0.89098 0.0
C804 C 0.94889 0.66022 0.92109 0.0
C805 C 0.96238 0.63171 0.93927 0.0
C806 C 0.95609 0.59755 0.92745 0.0
C807 C 0.93808 0.59248 0.89585 0.0
H808 H 0.19567 0.30931 0.14666 0.0
H809 H 0.12007 0.25516 0.21038 0.0
H810 H 0.07261 0.28829 0.18201 0.0
H811 H 0.15829 0.38925 0.1561 0.0
H812 H 0.16882 0.4041 0.11283 0.0
H813 H 0.19561 0.37194 0.13336 0.0
H814 H 0.18623 0.33013 0.08112 0.0
H815 H 0.16005 0.3627 0.0602 0.0
H816 H 0.14259 0.32012 0.06741 0.0
H817 H 0.03364 0.33103 0.14789 0.0
H818 H 0.00881 0.38108 0.11523 0.0
H819 H 0.11231 0.409 0.08089 0.0
C820 C 0.16911 0.30355 0.15407 0.0
C821 C 0.16152 0.27934 0.18039 0.0
C822 C 0.12642 0.27344 0.18999 0.0
C823 C 0.09933 0.29205 0.17397 0.0
C824 C 0.10795 0.31653 0.1487 0.0
C825 C 0.14214 0.32224 0.13901 0.0
C826 C 0.14553 0.35241 0.11445 0.0
C827 C 0.1684 0.3811 0.13015 0.0
C828 C 0.1594 0.34061 0.07868 0.0
C829 C 0.10802 0.36343 0.11232 0.0
C830 C 0.08636 0.34211 0.13139 0.0
C831 C 0.05043 0.34782 0.13289 0.0
C832 C 0.03656 0.37617 0.11448 0.0
C833 C 0.05894 0.3986 0.09604 0.0
C834 C 0.09485 0.39205 0.09497 0.0
H835 H 0.13334 0.68038 0.83892 0.0
H836 H 0.21001 0.71834 0.91221 0.0
H837 H 0.18617 0.68029 0.95764 0.0
H838 H 0.06117 0.66705 0.90613 0.0
H839 H 0.04643 0.62827 0.88477 0.0
H840 H 0.06525 0.66279 0.85949 0.0
H841 H 0.11005 0.61956 0.83369 0.0
H842 H 0.09195 0.58511 0.85941 0.0
H843 H 0.13757 0.59516 0.8627 0.0
H844 H 0.16182 0.63265 0.99158 0.0
H845 H 0.13223 0.58235 0.01623 0.0
H846 H 0.06882 0.57402 0.92293 0.0
C847 C 0.14396 0.68174 0.865 0.0
C848 C 0.17329 0.7026 0.87223 0.0
C849 C 0.18739 0.70279 0.90627 0.0
C850 C 0.17409 0.68118 0.93221 0.0
C851 C 0.14646 0.6596 0.92386 0.0
C852 C 0.13089 0.66011 0.89143 0.0
C853 C 0.10307 0.63226 0.88902 0.0
C854 C 0.06683 0.64857 0.88459 0.0
C855 C 0.11117 0.60651 0.85945 0.0
C856 C 0.10666 0.61527 0.92455 0.0
C857 C 0.13182 0.63171 0.94409 0.0
C858 C 0.14162 0.61989 0.97682 0.0
C859 C 0.12483 0.5909 0.99042 0.0
C860 C 0.09817 0.5739 0.97153 0.0
C861 C 0.08903 0.58637 0.93804 0.0
H862 H 0.3301 0.19203 0.86943 0.0
H863 H 0.34493 0.15281 0.76449 0.0
H864 H 0.39358 0.11629 0.78469 0.0
H865 H 0.42016 0.19761 0.88991 0.0
H866 H 0.41571 0.18435 0.93472 0.0
H867 H 0.38017 0.20592 0.91317 0.0
H868 H 0.33865 0.15472 0.92702 0.0
H869 H 0.37385 0.13464 0.95027 0.0
H870 H 0.3521 0.11133 0.91596 0.0
H871 H 0.44099 0.08544 0.81518 0.0
H872 H 0.48007 0.05562 0.85644 0.0
H873 H 0.4371 0.11619 0.94155 0.0
C874 C 0.34292 0.17482 0.85112 0.0
C875 C 0.33346 0.17446 0.81561 0.0
C876 C 0.35155 0.15276 0.79193 0.0
C877 C 0.3794 0.13229 0.80307 0.0
C878 C 0.3891 0.13416 0.83792 0.0
C879 C 0.37119 0.15439 0.86179 0.0
C880 C 0.38755 0.15182 0.89764 0.0
C881 C 0.40173 0.18703 0.90955 0.0
C882 C 0.36148 0.13722 0.92427 0.0
C883 C 0.41694 0.12652 0.89021 0.0
C884 C 0.41754 0.11708 0.85544 0.0
C885 C 0.44106 0.09279 0.84242 0.0
C886 C 0.4634 0.07628 0.86589 0.0
C887 C 0.46215 0.08433 0.90184 0.0
C888 C 0.43948 0.1106 0.91395 0.0
H889 H 0.85205 0.34095 0.80553 0.0
H890 H 0.85028 0.24744 0.86794 0.0
H891 H 0.89482 0.2724 0.90689 0.0
H892 H 0.9462 0.35917 0.81555 0.0
H893 H 0.93855 0.40515 0.81749 0.0
H894 H 0.91023 0.37794 0.79213 0.0
H895 H 0.85682 0.40138 0.8264 0.0
H896 H 0.88488 0.42871 0.85157 0.0
H897 H 0.85642 0.39867 0.87332 0.0
H898 H 0.93393 0.31069 0.94288 0.0
H899 H 0.96188 0.35936 0.97363 0.0
H900 H 0.9388 0.42647 0.88604 0.0
C901 C 0.8613 0.32545 0.8271 0.0
C902 C 0.84761 0.29232 0.83379 0.0
C903 C 0.86047 0.2729 0.8623 0.0
C904 C 0.88589 0.28677 0.88443 0.0
C905 C 0.89851 0.31978 0.87729 0.0
C906 C 0.88673 0.33872 0.84914 0.0
C907 C 0.90207 0.37459 0.84856 0.0
C908 C 0.92567 0.37948 0.81653 0.0
C909 C 0.87334 0.40245 0.85008 0.0
C910 C 0.92302 0.37356 0.88177 0.0
C911 C 0.92128 0.34158 0.89771 0.0
C912 C 0.93607 0.33562 0.93031 0.0
C913 C 0.952 0.36341 0.94754 0.0
C914 C 0.95254 0.39671 0.93221 0.0
C915 C 0.93898 0.40131 0.89839 0.0
H916 H 0.66061 0.8371 0.84243 0.0
H917 H 0.76438 0.84582 0.88595 0.0
H918 H 0.74089 0.88266 0.9334 0.0
H919 H 0.6343 0.92398 0.85939 0.0
H920 H 0.59001 0.91252 0.86947 0.0
H921 H 0.61503 0.88629 0.8397 0.0
H922 H 0.60299 0.8322 0.87774 0.0
H923 H 0.5779 0.85831 0.90758 0.0
H924 H 0.61399 0.83299 0.92339 0.0
H925 H 0.70553 0.91852 0.97603 0.0
H926 H 0.66166 0.95144 0.00967 0.0
H927 H 0.5819 0.91933 0.93655 0.0
C928 C 0.67851 0.84653 0.86198 0.0
C929 C 0.71434 0.83846 0.86057 0.0
C930 C 0.73682 0.85167 0.88654 0.0
C931 C 0.72372 0.87255 0.91357 0.0
C932 C 0.68821 0.88001 0.91403 0.0
C933 C 0.66599 0.86745 0.88883 0.0
C934 C 0.62905 0.87965 0.89465 0.0
C935 C 0.61637 0.90194 0.86398 0.0
C936 C 0.60455 0.84896 0.90124 0.0
C937 C 0.63387 0.90109 0.92718 0.0
C938 C 0.6681 0.90094 0.93808 0.0
C939 C 0.67866 0.91887 0.9677 0.0
C940 C 0.65354 0.93747 0.98661 0.0
C941 C 0.61832 0.93805 0.9757 0.0
C942 C 0.60857 0.91956 0.94557 0.0
H943 H 0.8867 0.68191 0.1912 0.0
H944 H 0.81759 0.7321 0.11737 0.0
H945 H 0.83698 0.69189 0.07157 0.0
H946 H 0.95794 0.66265 0.12638 0.0
H947 H 0.96772 0.62182 0.14683 0.0
H948 H 0.95129 0.65731 0.1726 0.0
H949 H 0.90159 0.61763 0.19451 0.0
H950 H 0.91731 0.58262 0.1677 0.0
H951 H 0.87309 0.59754 0.16326 0.0
H952 H 0.85697 0.64222 0.03609 0.0
H953 H 0.88372 0.59075 0.00948 0.0
H954 H 0.943 0.57293 0.10407 0.0
C955 C 0.87652 0.68518 0.16512 0.0
C956 C 0.85054 0.71033 0.15802 0.0
C957 C 0.83744 0.71318 0.12362 0.0
C958 C 0.84823 0.69034 0.09735 0.0
C959 C 0.87253 0.66492 0.10558 0.0
C960 C 0.88724 0.66261 0.13831 0.0
C961 C 0.91209 0.63195 0.1402 0.0
C962 C 0.94948 0.64417 0.14688 0.0
C963 C 0.9003 0.6059 0.16808 0.0
C964 C 0.90826 0.61703 0.10371 0.0
C965 C 0.8851 0.63647 0.08439 0.0
C966 C 0.87559 0.62708 0.05072 0.0
C967 C 0.8907 0.59748 0.03597 0.0
C968 C 0.91545 0.57758 0.05463 0.0
C969 C 0.92424 0.58757 0.08908 0.0
H970 H 0.30046 0.84027 0.11735 0.0
H971 H 0.2962 0.91373 0.20323 0.0
H972 H 0.335 0.95267 0.17136 0.0
H973 H 0.38767 0.84968 0.09792 0.0
H974 H 0.38354 0.8475 0.05117 0.0
H975 H 0.35195 0.82654 0.07855 0.0
H976 H 0.30228 0.86091 0.0488 0.0
H977 H 0.33374 0.88165 0.02095 0.0
H978 H 0.30443 0.90744 0.04706 0.0
H979 H 0.38105 0.97927 0.13542 0.0
H980 H 0.42631 0.99573 0.09255 0.0
H981 H 0.39801 0.90827 0.02783 0.0
C982 C 0.307 0.86491 0.12904 0.0
C983 C 0.29542 0.87371 0.16289 0.0
C984 C 0.3048 0.90617 0.1774 0.0
C985 C 0.32685 0.92861 0.15952 0.0
C986 C 0.33885 0.91863 0.12685 0.0
C987 C 0.32875 0.88797 0.11131 0.0
C988 C 0.34671 0.88301 0.07646 0.0
C989 C 0.36877 0.84972 0.07603 0.0
C990 C 0.3202 0.88328 0.04655 0.0
C991 C 0.36935 0.91496 0.0757 0.0
C992 C 0.36444 0.93511 0.10508 0.0
C993 C 0.38461 0.96425 0.11185 0.0
C994 C 0.41033 0.97324 0.08765 0.0
C995 C 0.41504 0.95341 0.05705 0.0
C996 C 0.39423 0.92411 0.05087 0.0
H997 H 0.64532 0.1827 0.20649 0.0
H998 H 0.72653 0.20796 0.13227 0.0
H999 H 0.68864 0.18845 0.08389 0.0
H1000 H 0.62039 0.10452 0.16483 0.0
H1001 H 0.57505 0.10939 0.17598 0.0
H1002 H 0.60775 0.12838 0.20329 0.0
H1003 H 0.57731 0.18796 0.19637 0.0
H1004 H 0.5452 0.16917 0.168 0.0
H1005 H 0.57064 0.20545 0.15337 0.0
H1006 H 0.64163 0.16547 0.04379 0.0
H1007 H 0.59652 0.12861 0.01713 0.0
H1008 H 0.54798 0.11542 0.11817 0.0
C1009 C 0.65509 0.18414 0.18001 0.0
C1010 C 0.68874 0.19692 0.17298 0.0
C1011 C 0.70089 0.19799 0.13814 0.0
C1012 C 0.67935 0.18747 0.11053 0.0
C1013 C 0.64593 0.17568 0.11831 0.0
C1014 C 0.63427 0.17314 0.15233 0.0
C1015 C 0.59894 0.15611 0.15423 0.0
C1016 C 0.60066 0.12261 0.17583 0.0
C1017 C 0.5714 0.18118 0.16886 0.0
C1018 C 0.59271 0.14876 0.11598 0.0
C1019 C 0.61956 0.16124 0.09552 0.0
C1020 C 0.62034 0.15591 0.05953 0.0
C1021 C 0.59426 0.13542 0.04447 0.0
C1022 C 0.56841 0.1199 0.06555 0.0
C1023 C 0.56684 0.12794 0.10141 0.0
H1024 H 0.70447 0.64231 0.83239 0.0
H1025 H 0.62056 0.70696 0.79363 0.0
H1026 H 0.57944 0.67766 0.83308 0.0
H1027 H 0.65157 0.56305 0.84578 0.0
H1028 H 0.67483 0.55184 0.8849 0.0
H1029 H 0.69661 0.57498 0.85048 0.0
H1030 H 0.71343 0.62284 0.89468 0.0
H1031 H 0.69111 0.60026 0.92903 0.0
H1032 H 0.67973 0.64445 0.91931 0.0
H1033 H 0.54847 0.6451 0.88041 0.0
H1034 H 0.52912 0.60844 0.92937 0.0
H1035 H 0.63362 0.56616 0.9379 0.0
C1036 C 0.67727 0.6496 0.83142 0.0
C1037 C 0.66573 0.67683 0.80979 0.0
C1038 C 0.63001 0.68611 0.80992 0.0
C1039 C 0.60643 0.66967 0.83227 0.0
C1040 C 0.61892 0.64393 0.85428 0.0
C1041 C 0.65339 0.63359 0.85372 0.0
C1042 C 0.66051 0.6066 0.88136 0.0
C1043 C 0.67152 0.57207 0.86462 0.0
C1044 C 0.68781 0.61932 0.90764 0.0
C1045 C 0.62488 0.60402 0.89802 0.0
C1046 C 0.60119 0.62556 0.88191 0.0
C1047 C 0.56673 0.62793 0.8931 0.0
C1048 C 0.55606 0.60719 0.92111 0.0
C1049 C 0.57984 0.58451 0.93769 0.0
C1050 C 0.61476 0.58331 0.92602 0.0
H1051 H 0.29005 0.61505 0.82803 0.0
H1052 H 0.36391 0.64794 0.74968 0.0
H1053 H 0.40975 0.61281 0.77795 0.0
H1054 H 0.33887 0.62797 0.89451 0.0
H1055 H 0.32634 0.59179 0.92126 0.0
H1056 H 0.2968 0.60818 0.88921 0.0
H1057 H 0.29262 0.54802 0.85968 0.0
H1058 H 0.3211 0.53087 0.8927 0.0
H1059 H 0.33182 0.52539 0.84725 0.0
H1060 H 0.44989 0.58681 0.82299 0.0
H1061 H 0.47906 0.56853 0.87764 0.0
H1062 H 0.37833 0.55582 0.92696 0.0
C1063 C 0.31539 0.61309 0.81574 0.0
C1064 C 0.3236 0.63366 0.78669 0.0
C1065 C 0.3571 0.63161 0.77156 0.0
C1066 C 0.3833 0.6119 0.78762 0.0
C1067 C 0.37511 0.59412 0.81822 0.0
C1068 C 0.34158 0.59381 0.83156 0.0
C1069 C 0.34025 0.57784 0.86744 0.0
C1070 C 0.32468 0.60296 0.89466 0.0
C1071 C 0.32028 0.54348 0.8667 0.0
C1072 C 0.3785 0.57185 0.87349 0.0
C1073 C 0.39826 0.58032 0.84459 0.0
C1074 C 0.43457 0.57936 0.84545 0.0
C1075 C 0.45092 0.5693 0.87658 0.0
C1076 C 0.43084 0.56139 0.90648 0.0
C1077 C 0.3943 0.56227 0.90459 0.0
H1078 H 0.31793 0.37959 0.83695 0.0
H1079 H 0.40084 0.3123 0.79986 0.0
H1080 H 0.44105 0.33881 0.84247 0.0
H1081 H 0.3709 0.45525 0.85309 0.0
H1082 H 0.34638 0.46707 0.89142 0.0
H1083 H 0.32551 0.44414 0.85642 0.0
H1084 H 0.30628 0.3967 0.90013 0.0
H1085 H 0.32762 0.41921 0.93511 0.0
H1086 H 0.33864 0.37476 0.92594 0.0
H1087 H 0.47171 0.37259 0.8911 0.0
H1088 H 0.4902 0.41233 0.93824 0.0
H1089 H 0.3852 0.4539 0.94366 0.0
C1090 C 0.34464 0.37063 0.83729 0.0
C1091 C 0.35621 0.3439 0.81494 0.0
C1092 C 0.3914 0.33291 0.81658 0.0
C1093 C 0.41438 0.34768 0.84082 0.0
C1094 C 0.4017 0.3733 0.86317 0.0
C1095 C 0.36768 0.3848 0.86131 0.0
C1096 C 0.35992 0.41203 0.88849 0.0
C1097 C 0.35011 0.44666 0.87131 0.0
C1098 C 0.33143 0.39993 0.91391 0.0
C1099 C 0.39484 0.41403 0.90618 0.0
C1100 C 0.41878 0.3917 0.8913 0.0
C1101 C 0.45309 0.39008 0.90299 0.0
C1102 C 0.4633 0.41258 0.92993 0.0
C1103 C 0.43915 0.43616 0.94487 0.0
C1104 C 0.40437 0.4361 0.93315 0.0
H1105 H 0.66257 0.31277 0.84662 0.0
H1106 H 0.69074 0.38687 0.76677 0.0
H1107 H 0.6583 0.4326 0.7987 0.0
H1108 H 0.5765 0.34618 0.86714 0.0
H1109 H 0.581 0.33885 0.91329 0.0
H1110 H 0.60379 0.31152 0.88268 0.0
H1111 H 0.6622 0.32598 0.91284 0.0
H1112 H 0.63961 0.35331 0.94353 0.0
H1113 H 0.67486 0.37055 0.91787 0.0
H1114 H 0.62191 0.46976 0.8391 0.0
H1115 H 0.59026 0.49739 0.8881 0.0
H1116 H 0.59112 0.4003 0.94441 0.0
C1117 C 0.66145 0.33854 0.83563 0.0
C1118 C 0.67858 0.34631 0.80397 0.0
C1119 C 0.67751 0.38046 0.79087 0.0
C1120 C 0.65909 0.40648 0.80876 0.0
C1121 C 0.64253 0.39798 0.84 0.0
C1122 C 0.644 0.36494 0.85359 0.0
C1123 C 0.62632 0.36311 0.88892 0.0
C1124 C 0.59505 0.33845 0.88793 0.0
C1125 C 0.65231 0.35263 0.91747 0.0
C1126 C 0.61467 0.40032 0.89317 0.0
C1127 C 0.62365 0.41985 0.86434 0.0
C1128 C 0.61489 0.45475 0.86182 0.0
C1129 C 0.59681 0.47015 0.88965 0.0
C1130 C 0.58841 0.45086 0.91983 0.0
C1131 C 0.59745 0.41554 0.9216 0.0
H1132 H 0.70823 0.38578 0.20197 0.0
H1133 H 0.62436 0.3408 0.26251 0.0
H1134 H 0.58291 0.38186 0.23556 0.0
H1135 H 0.67357 0.47674 0.19687 0.0
H1136 H 0.68837 0.48053 0.15241 0.0
H1137 H 0.71228 0.45418 0.18284 0.0
H1138 H 0.70705 0.40188 0.1408 0.0
H1139 H 0.68286 0.42776 0.11054 0.0
H1140 H 0.66455 0.38808 0.12684 0.0
H1141 H 0.54997 0.42303 0.19673 0.0
H1142 H 0.52798 0.45621 0.1462 0.0
H1143 H 0.63346 0.46822 0.10807 0.0
C1144 C 0.68138 0.38534 0.21059 0.0
C1145 C 0.66948 0.36044 0.23453 0.0
C1146 C 0.63396 0.35993 0.24431 0.0
C1147 C 0.61034 0.38327 0.22934 0.0
C1148 C 0.62281 0.40669 0.20472 0.0
C1149 C 0.65758 0.40779 0.19544 0.0
C1150 C 0.6638 0.43098 0.16447 0.0
C1151 C 0.6858 0.46248 0.17478 0.0
C1152 C 0.68052 0.41096 0.13389 0.0
C1153 C 0.6269 0.44137 0.15655 0.0
C1154 C 0.60369 0.42826 0.18072 0.0
C1155 C 0.56794 0.43353 0.17776 0.0
C1156 C 0.55566 0.45206 0.14889 0.0
C1157 C 0.57906 0.46367 0.12294 0.0
C1158 C 0.61505 0.45899 0.12733 0.0
H1159 H 0.71344 0.67052 0.16033 0.0
H1160 H 0.64145 0.68643 0.24612 0.0
H1161 H 0.59477 0.65825 0.21167 0.0
H1162 H 0.65464 0.68589 0.09077 0.0
H1163 H 0.67244 0.65244 0.06314 0.0
H1164 H 0.69979 0.67378 0.0945 0.0
H1165 H 0.71607 0.61476 0.12216 0.0
H1166 H 0.68947 0.59322 0.09035 0.0
H1167 H 0.68196 0.58604 0.13617 0.0
H1168 H 0.55541 0.63024 0.16558 0.0
H1169 H 0.52994 0.59639 0.11711 0.0
H1170 H 0.62937 0.59761 0.06349 0.0
C1171 C 0.68789 0.66787 0.17202 0.0
C1172 C 0.68092 0.6807 0.20581 0.0
C1173 C 0.64733 0.6765 0.22034 0.0
C1174 C 0.62064 0.66089 0.20082 0.0
C1175 C 0.62823 0.64934 0.16708 0.0
C1176 C 0.66132 0.65203 0.1532 0.0
C1177 C 0.66352 0.63634 0.11713 0.0
C1178 C 0.67316 0.66376 0.08978 0.0
C1179 C 0.68926 0.60577 0.11643 0.0
C1180 C 0.62644 0.62434 0.11264 0.0
C1181 C 0.60622 0.63252 0.1414 0.0
C1182 C 0.57108 0.62369 0.14301 0.0
C1183 C 0.55672 0.60482 0.11518 0.0
C1184 C 0.57767 0.59459 0.08648 0.0
C1185 C 0.61269 0.60528 0.08498 0.0
H1186 H 0.30858 0.70236 0.15332 0.0
H1187 H 0.33777 0.67399 0.25872 0.0
H1188 H 0.3809 0.63224 0.23475 0.0
H1189 H 0.31454 0.61787 0.11641 0.0
H1190 H 0.33105 0.63344 0.07533 0.0
H1191 H 0.3031 0.66057 0.10142 0.0
H1192 H 0.34998 0.70865 0.10087 0.0
H1193 H 0.37821 0.68155 0.07502 0.0
H1194 H 0.3933 0.69891 0.11588 0.0
H1195 H 0.42189 0.59373 0.19752 0.0
H1196 H 0.4531 0.56045 0.15171 0.0
H1197 H 0.39534 0.61605 0.07235 0.0
C1198 C 0.32395 0.68748 0.17159 0.0
C1199 C 0.31984 0.69159 0.20796 0.0
C1200 C 0.3404 0.67124 0.23073 0.0
C1201 C 0.36505 0.6476 0.21734 0.0
C1202 C 0.36865 0.64463 0.1812 0.0
C1203 C 0.34836 0.66396 0.15878 0.0
C1204 C 0.35643 0.65602 0.12108 0.0
C1205 C 0.32438 0.64108 0.10249 0.0
C1206 C 0.37031 0.6882 0.10211 0.0
C1207 C 0.3845 0.62906 0.12553 0.0
C1208 C 0.3915 0.62278 0.16027 0.0
C1209 C 0.41651 0.5985 0.17027 0.0
C1210 C 0.43423 0.57983 0.14407 0.0
C1211 C 0.42664 0.58545 0.10835 0.0
C1212 C 0.40177 0.61083 0.0993 0.0
H1213 H 0.30745 0.35089 0.16015 0.0
H1214 H 0.38966 0.31933 0.2305 0.0
H1215 H 0.43138 0.35604 0.19812 0.0
H1216 H 0.35711 0.35455 0.08226 0.0
H1217 H 0.33622 0.39292 0.06571 0.0
H1218 H 0.3128 0.36434 0.09435 0.0
H1219 H 0.30025 0.41514 0.13675 0.0
H1220 H 0.32317 0.444 0.108 0.0
H1221 H 0.33591 0.44058 0.15305 0.0
H1222 H 0.46486 0.39199 0.15457 0.0
H1223 H 0.48585 0.43274 0.10981 0.0
H1224 H 0.38049 0.4454 0.07171 0.0
C1225 C 0.33419 0.35201 0.16887 0.0
C1226 C 0.34553 0.33229 0.19766 0.0
C1227 C 0.38054 0.33449 0.20861 0.0
C1228 C 0.40441 0.35501 0.19023 0.0
C1229 C 0.39254 0.37363 0.16148 0.0
C1230 C 0.35808 0.37301 0.15141 0.0
C1231 C 0.35169 0.39649 0.1205 0.0
C1232 C 0.33869 0.37583 0.08884 0.0
C1233 C 0.32626 0.42579 0.13016 0.0
C1234 C 0.38807 0.41011 0.11443 0.0
C1235 C 0.41135 0.39614 0.13796 0.0
C1236 C 0.44674 0.40359 0.13647 0.0
C1237 C 0.45844 0.42673 0.11092 0.0
C1238 C 0.43476 0.44283 0.08778 0.0
C1239 C 0.39917 0.43392 0.08935 0.0
H1240 H 0.80894 0.63511 0.69225 0.0
H1241 H 0.78894 0.71841 0.61919 0.0
H1242 H 0.82561 0.68924 0.5753 0.0
H1243 H 0.89516 0.6255 0.67374 0.0
H1244 H 0.89666 0.57907 0.67744 0.0
H1245 H 0.86433 0.60327 0.70114 0.0
H1246 H 0.81527 0.56729 0.67255 0.0
H1247 H 0.84755 0.54247 0.64916 0.0
H1248 H 0.81319 0.564 0.62571 0.0
H1249 H 0.87224 0.65551 0.54267 0.0
H1250 H 0.91976 0.61648 0.52259 0.0
H1251 H 0.90733 0.55584 0.61696 0.0
C1252 C 0.81121 0.64663 0.66664 0.0
C1253 C 0.79604 0.67904 0.65929 0.0
C1254 C 0.80027 0.69353 0.62554 0.0
C1255 C 0.82111 0.67719 0.60035 0.0
C1256 C 0.83716 0.64611 0.60905 0.0
C1257 C 0.83184 0.63064 0.64116 0.0
C1258 C 0.85397 0.59856 0.64507 0.0
C1259 C 0.879 0.60183 0.67617 0.0
C1260 C 0.83113 0.56616 0.6483 0.0
C1261 C 0.87335 0.59911 0.61072 0.0
C1262 C 0.86336 0.62655 0.5901 0.0
C1263 C 0.87978 0.63346 0.55829 0.0
C1264 C 0.90687 0.6114 0.54719 0.0
C1265 C 0.91702 0.58289 0.56792 0.0
C1266 C 0.89982 0.57692 0.6 0.0
H1267 H 0.30322 0.83579 0.6724 0.0
H1268 H 0.35715 0.73853 0.65602 0.0
H1269 H 0.39562 0.76688 0.61246 0.0
H1270 H 0.31037 0.86808 0.58074 0.0
H1271 H 0.31606 0.91185 0.59584 0.0
H1272 H 0.28972 0.88218 0.62058 0.0
H1273 H 0.32731 0.8941 0.67528 0.0
H1274 H 0.35386 0.92348 0.6508 0.0
H1275 H 0.37371 0.88745 0.67299 0.0
H1276 H 0.43368 0.80903 0.57807 0.0
H1277 H 0.46613 0.85954 0.55557 0.0
H1278 H 0.3848 0.92757 0.59467 0.0
C1279 C 0.32263 0.82025 0.65904 0.0
C1280 C 0.32753 0.78517 0.66747 0.0
C1281 C 0.35302 0.76549 0.64958 0.0
C1282 C 0.37487 0.78138 0.62488 0.0
C1283 C 0.3701 0.81657 0.61805 0.0
C1284 C 0.34411 0.8355 0.6343 0.0
C1285 C 0.34581 0.87335 0.62515 0.0
C1286 C 0.31358 0.88451 0.60433 0.0
C1287 C 0.35048 0.89588 0.658 0.0
C1288 C 0.37799 0.87331 0.60264 0.0
C1289 C 0.39149 0.84039 0.59823 0.0
C1290 C 0.42292 0.83479 0.58079 0.0
C1291 C 0.44121 0.86364 0.56817 0.0
C1292 C 0.4281 0.89756 0.57351 0.0
C1293 C 0.39564 0.90207 0.59012 0.0
H1294 H 0.20601 0.34233 0.63843 0.0
H1295 H 0.21625 0.40845 0.72936 0.0
H1296 H 0.1826 0.4539 0.69976 0.0
H1297 H 0.20571 0.4156 0.5711 0.0
H1298 H 0.1742 0.39288 0.54507 0.0
H1299 H 0.20608 0.369 0.56975 0.0
H1300 H 0.15659 0.33481 0.59993 0.0
H1301 H 0.12471 0.35866 0.57572 0.0
H1302 H 0.12272 0.35813 0.62268 0.0
H1303 H 0.13703 0.4853 0.6674 0.0
H1304 H 0.08603 0.50217 0.63207 0.0
H1305 H 0.10746 0.41793 0.56047 0.0
C1306 C 0.20221 0.36683 0.65163 0.0
C1307 C 0.2136 0.3718 0.6862 0.0
C1308 C 0.20787 0.40408 0.70279 0.0
C1309 C 0.18888 0.43015 0.68614 0.0
C1310 C 0.17655 0.42381 0.65265 0.0
C1311 C 0.18361 0.39322 0.63521 0.0
C1312 C 0.16391 0.39113 0.60119 0.0
C1313 C 0.18898 0.39223 0.56993 0.0
C1314 C 0.14061 0.35879 0.59985 0.0
C1315 C 0.14263 0.42399 0.6036 0.0
C1316 C 0.15076 0.44283 0.63316 0.0
C1317 C 0.13116 0.47146 0.6436 0.0
C1318 C 0.10215 0.48066 0.62366 0.0
C1319 C 0.09338 0.46139 0.59364 0.0
C1320 C 0.11441 0.43346 0.58291 0.0
H1321 H 0.68521 0.17601 0.63561 0.0
H1322 H 0.6116 0.22769 0.7045 0.0
H1323 H 0.564 0.194 0.67896 0.0
H1324 H 0.62312 0.16702 0.55899 0.0
H1325 H 0.64103 0.1253 0.54786 0.0
H1326 H 0.66836 0.15783 0.56721 0.0
H1327 H 0.68494 0.11419 0.61576 0.0
H1328 H 0.65678 0.08212 0.59706 0.0
H1329 H 0.65104 0.09505 0.64189 0.0
H1330 H 0.527 0.14855 0.6552 0.0
H1331 H 0.49984 0.09807 0.62818 0.0
H1332 H 0.59508 0.07645 0.57077 0.0
C1333 C 0.65892 0.18111 0.64445 0.0
C1334 C 0.6522 0.2045 0.67216 0.0
C1335 C 0.61748 0.20994 0.6834 0.0
C1336 C 0.5902 0.19094 0.66901 0.0
C1337 C 0.59791 0.16696 0.64301 0.0
C1338 C 0.6312 0.16243 0.63014 0.0
C1339 C 0.63246 0.13305 0.60377 0.0
C1340 C 0.64178 0.14662 0.56729 0.0
C1341 C 0.6578 0.10442 0.61534 0.0
C1342 C 0.59504 0.1208 0.60525 0.0
C1343 C 0.57572 0.14096 0.62801 0.0
C1344 C 0.54153 0.13313 0.63659 0.0
C1345 C 0.52643 0.10415 0.62121 0.0
C1346 C 0.5452 0.08347 0.59701 0.0
C1347 C 0.57997 0.09208 0.58876 0.0
H1348 H 0.83405 0.32235 0.38556 0.0
H1349 H 0.80908 0.39569 0.3035 0.0
H1350 H 0.85059 0.43692 0.32802 0.0
H1351 H 0.8487 0.39042 0.45549 0.0
H1352 H 0.88385 0.36589 0.47435 0.0
H1353 H 0.84808 0.34383 0.45384 0.0
H1354 H 0.8916 0.31136 0.41371 0.0
H1355 H 0.92739 0.33365 0.43364 0.0
H1356 H 0.9214 0.33582 0.38711 0.0
H1357 H 0.90182 0.4648 0.35291 0.0
H1358 H 0.9549 0.48262 0.38401 0.0
H1359 H 0.94457 0.39492 0.45355 0.0
C1360 C 0.83649 0.34751 0.37348 0.0
C1361 C 0.81854 0.35561 0.34245 0.0
C1362 C 0.82271 0.3887 0.32714 0.0
C1363 C 0.84618 0.41244 0.34091 0.0
C1364 C 0.86473 0.40305 0.37041 0.0
C1365 C 0.8596 0.37186 0.3872 0.0
C1366 C 0.8847 0.36761 0.41731 0.0
C1367 C 0.86516 0.36691 0.45232 0.0
C1368 C 0.90762 0.33519 0.41263 0.0
C1369 C 0.90573 0.40043 0.41346 0.0
C1370 C 0.89368 0.42043 0.38621 0.0
C1371 C 0.91096 0.44999 0.37499 0.0
C1372 C 0.94118 0.4597 0.3925 0.0
C1373 C 0.95326 0.44022 0.42116 0.0
C1374 C 0.93527 0.41041 0.43198 0.0
H1375 H 0.72016 0.84953 0.36322 0.0
H1376 H 0.67083 0.74926 0.3733 0.0
H1377 H 0.62837 0.77451 0.41493 0.0
H1378 H 0.70523 0.87992 0.45406 0.0
H1379 H 0.6971 0.9235 0.43955 0.0
H1380 H 0.72673 0.89607 0.4156 0.0
H1381 H 0.69109 0.90643 0.35928 0.0
H1382 H 0.66135 0.93368 0.38298 0.0
H1383 H 0.64522 0.89689 0.35916 0.0
H1384 H 0.58694 0.81311 0.45013 0.0
H1385 H 0.55029 0.86081 0.47316 0.0
H1386 H 0.62714 0.935 0.43811 0.0
C1387 C 0.70103 0.83251 0.37475 0.0
C1388 C 0.69899 0.7973 0.36501 0.0
C1389 C 0.67313 0.77623 0.3805 0.0
C1390 C 0.64892 0.79037 0.40423 0.0
C1391 C 0.65109 0.82552 0.41237 0.0
C1392 C 0.67673 0.84617 0.39816 0.0
C1393 C 0.67172 0.88373 0.40802 0.0
C1394 C 0.702 0.89655 0.43066 0.0
C1395 C 0.66705 0.90649 0.37543 0.0
C1396 C 0.63847 0.88136 0.42895 0.0
C1397 C 0.6272 0.84757 0.43187 0.0
C1398 C 0.59584 0.83956 0.44839 0.0
C1399 C 0.57522 0.86683 0.46149 0.0
C1400 C 0.58581 0.90166 0.45743 0.0
C1401 C 0.61828 0.90868 0.44169 0.0
H1402 H 0.20122 0.67782 0.34954 0.0
H1403 H 0.12941 0.76445 0.34434 0.0
H1404 H 0.09097 0.73597 0.38691 0.0
H1405 H 0.13842 0.61441 0.34982 0.0
H1406 H 0.16047 0.58557 0.37936 0.0
H1407 H 0.18517 0.61522 0.3532 0.0
H1408 H 0.21355 0.64029 0.40899 0.0
H1409 H 0.18877 0.61065 0.43537 0.0
H1410 H 0.18627 0.65648 0.44372 0.0
H1411 H 0.05688 0.69531 0.42486 0.0
H1412 H 0.0291 0.64433 0.45215 0.0
H1413 H 0.12262 0.58427 0.43217 0.0
C1414 C 0.17789 0.69114 0.35812 0.0
C1415 C 0.16841 0.72335 0.34372 0.0
C1416 C 0.13719 0.73966 0.35495 0.0
C1417 C 0.11526 0.72382 0.37935 0.0
C1418 C 0.12484 0.69165 0.39244 0.0
C1419 C 0.15545 0.67549 0.38226 0.0
C1420 C 0.15785 0.63942 0.39731 0.0
C1421 C 0.16062 0.61206 0.36819 0.0
C1422 C 0.18843 0.63656 0.42287 0.0
C1423 C 0.1233 0.63739 0.41626 0.0
C1424 C 0.1049 0.668 0.41386 0.0
C1425 C 0.07127 0.67135 0.42741 0.0
C1426 C 0.0557 0.64233 0.44297 0.0
C1427 C 0.07364 0.61037 0.44426 0.0
C1428 C 0.10821 0.60838 0.43162 0.0
H1429 H 0.39494 0.16758 0.29376 0.0
H1430 H 0.34346 0.22703 0.37488 0.0
H1431 H 0.37163 0.1907 0.41967 0.0
H1432 H 0.38477 0.08871 0.32857 0.0
H1433 H 0.42664 0.07082 0.31712 0.0
H1434 H 0.40827 0.10508 0.29137 0.0
H1435 H 0.46287 0.14294 0.30115 0.0
H1436 H 0.48211 0.10831 0.32597 0.0
H1437 H 0.47794 0.15081 0.3449 0.0
H1438 H 0.3954 0.14105 0.45409 0.0
H1439 H 0.42367 0.08877 0.47743 0.0
H1440 H 0.46191 0.0632 0.37385 0.0
C1441 C 0.39085 0.17382 0.32101 0.0
C1442 C 0.36728 0.20006 0.33105 0.0
C1443 C 0.36193 0.20735 0.36681 0.0
C1444 C 0.37754 0.18666 0.39237 0.0
C1445 C 0.39897 0.15952 0.38153 0.0
C1446 C 0.40667 0.15384 0.34675 0.0
C1447 C 0.42901 0.12189 0.34186 0.0
C1448 C 0.41108 0.09506 0.31835 0.0
C1449 C 0.46513 0.13158 0.32764 0.0
C1450 C 0.43113 0.10948 0.3791 0.0
C1451 C 0.41364 0.1315 0.40158 0.0
C1452 C 0.40993 0.12409 0.43689 0.0
C1453 C 0.4257 0.09405 0.44979 0.0
C1454 C 0.44515 0.07199 0.42744 0.0
C1455 C 0.44743 0.07969 0.39158 0.0
H1456 H 0.62846 0.82859 0.70997 0.0
H1457 H 0.72161 0.84506 0.64765 0.0
H1458 H 0.69227 0.89191 0.61623 0.0
H1459 H 0.56879 0.84135 0.64004 0.0
H1460 H 0.53646 0.86278 0.66655 0.0
H1461 H 0.56556 0.83181 0.68593 0.0
H1462 H 0.58461 0.87805 0.73099 0.0
H1463 H 0.55596 0.90935 0.71127 0.0
H1464 H 0.60159 0.91878 0.7159 0.0
H1465 H 0.654 0.93551 0.59083 0.0
H1466 H 0.60518 0.96877 0.56652 0.0
H1467 H 0.53569 0.92416 0.64364 0.0
C1468 C 0.64261 0.84206 0.6897 0.0
C1469 C 0.67732 0.83321 0.68136 0.0
C1470 C 0.69493 0.85123 0.65446 0.0
C1471 C 0.67868 0.87818 0.63668 0.0
C1472 C 0.64478 0.8867 0.64596 0.0
C1473 C 0.62664 0.86892 0.67134 0.0
C1474 C 0.58952 0.88185 0.67422 0.0
C1475 C 0.56356 0.85272 0.66619 0.0
C1476 C 0.58252 0.89797 0.71024 0.0
C1477 C 0.58962 0.90913 0.64594 0.0
C1478 C 0.62204 0.91186 0.63057 0.0
C1479 C 0.62849 0.93383 0.60268 0.0
C1480 C 0.60063 0.95256 0.58908 0.0
C1481 C 0.5668 0.94888 0.60325 0.0
C1482 C 0.56144 0.92781 0.63275 0.0
H1483 H 0.64555 0.19121 0.32471 0.0
H1484 H 0.70472 0.23551 0.40981 0.0
H1485 H 0.66919 0.20216 0.45205 0.0
H1486 H 0.56097 0.1851 0.36875 0.0
H1487 H 0.55158 0.14405 0.34861 0.0
H1488 H 0.57817 0.17518 0.3261 0.0
H1489 H 0.62722 0.12934 0.31973 0.0
H1490 H 0.60088 0.0982 0.34229 0.0
H1491 H 0.64378 0.1082 0.35814 0.0
H1492 H 0.6281 0.16145 0.4845 0.0
H1493 H 0.58971 0.11322 0.50328 0.0
H1494 H 0.56253 0.09363 0.39559 0.0
C1495 C 0.65056 0.19463 0.35228 0.0
C1496 C 0.67748 0.2163 0.36411 0.0
C1497 C 0.68396 0.21918 0.40031 0.0
C1498 C 0.66385 0.20051 0.42441 0.0
C1499 C 0.63773 0.17896 0.41171 0.0
C1500 C 0.63132 0.17583 0.3764 0.0
C1501 C 0.60461 0.14835 0.36879 0.0
C1502 C 0.5719 0.16413 0.35208 0.0
C1503 C 0.62007 0.11932 0.34591 0.0
C1504 C 0.59732 0.13596 0.40529 0.0
C1505 C 0.61594 0.15434 0.4299 0.0
C1506 C 0.6134 0.14696 0.46544 0.0
C1507 C 0.59166 0.1197 0.47588 0.0
C1508 C 0.57376 0.09997 0.45066 0.0
C1509 C 0.57632 0.10843 0.41516 0.0
H1510 H 0.87406 0.65912 0.30389 0.0
H1511 H 0.78004 0.64905 0.36587 0.0
H1512 H 0.809 0.60429 0.40185 0.0
H1513 H 0.89996 0.56698 0.30684 0.0
H1514 H 0.94548 0.5777 0.30921 0.0
H1515 H 0.91585 0.60575 0.28628 0.0
H1516 H 0.9355 0.6574 0.32461 0.0
H1517 H 0.96505 0.62957 0.34763 0.0
H1518 H 0.93273 0.65397 0.37141 0.0
H1519 H 0.85103 0.56616 0.43515 0.0
H1520 H 0.90158 0.53698 0.46192 0.0
H1521 H 0.96685 0.57138 0.37629 0.0
C1522 C 0.85931 0.64721 0.32473 0.0
C1523 C 0.82486 0.65765 0.33226 0.0
C1524 C 0.80643 0.64132 0.35963 0.0
C1525 C 0.82266 0.61589 0.38013 0.0
C1526 C 0.85699 0.60676 0.37239 0.0
C1527 C 0.87489 0.62171 0.34505 0.0
C1528 C 0.9121 0.60909 0.34318 0.0
C1529 C 0.91872 0.58866 0.30937 0.0
C1530 C 0.93784 0.6393 0.34695 0.0
C1531 C 0.91288 0.58569 0.37462 0.0
C1532 C 0.88081 0.58435 0.391 0.0
C1533 C 0.87607 0.56653 0.42219 0.0
C1534 C 0.90496 0.55016 0.43725 0.0
C1535 C 0.93814 0.55181 0.4211 0.0
C1536 C 0.94177 0.56918 0.38901 0.0
H1537 H 0.34756 0.86506 0.30165 0.0
H1538 H 0.31841 0.78689 0.37717 0.0
H1539 H 0.3608 0.81136 0.41902 0.0
H1540 H 0.44077 0.86641 0.32389 0.0
H1541 H 0.444 0.91233 0.31659 0.0
H1542 H 0.41317 0.88708 0.29217 0.0
H1543 H 0.36346 0.9276 0.31306 0.0
H1544 H 0.394 0.95275 0.3378 0.0
H1545 H 0.35667 0.93416 0.35914 0.0
H1546 H 0.40079 0.84869 0.4544 0.0
H1547 H 0.44059 0.89207 0.47919 0.0
H1548 H 0.44654 0.9436 0.37896 0.0
C1549 C 0.35042 0.85281 0.32687 0.0
C1550 C 0.32969 0.82426 0.33643 0.0
C1551 C 0.33424 0.8087 0.36943 0.0
C1552 C 0.35812 0.82248 0.3933 0.0
C1553 C 0.37758 0.85123 0.38329 0.0
C1554 C 0.37448 0.86579 0.35061 0.0
C1555 C 0.39797 0.89686 0.34639 0.0
C1556 C 0.42562 0.89026 0.31809 0.0
C1557 C 0.37675 0.92978 0.33865 0.0
C1558 C 0.41408 0.89825 0.38224 0.0
C1559 C 0.40185 0.87178 0.40316 0.0
C1560 C 0.41101 0.86911 0.4381 0.0
C1561 C 0.4334 0.89402 0.45197 0.0
C1562 C 0.44667 0.921 0.43083 0.0
C1563 C 0.43712 0.92293 0.39546 0.0
H1564 H 0.16599 0.29223 0.34532 0.0
H1565 H 0.26395 0.34662 0.35678 0.0
H1566 H 0.23679 0.38503 0.40066 0.0
H1567 H 0.11263 0.36436 0.34821 0.0
H1568 H 0.07788 0.34409 0.37222 0.0
H1569 H 0.10621 0.31828 0.34531 0.0
H1570 H 0.12106 0.27976 0.3985 0.0
H1571 H 0.09286 0.3057 0.42569 0.0
H1572 H 0.13773 0.29941 0.43766 0.0
H1573 H 0.19757 0.42167 0.4373 0.0
H1574 H 0.14867 0.45503 0.46257 0.0
H1575 H 0.07653 0.37604 0.429 0.0
C1576 C 0.18199 0.31185 0.3574 0.0
C1577 C 0.21719 0.31636 0.34756 0.0
C1578 C 0.23699 0.34259 0.36388 0.0
C1579 C 0.22183 0.3644 0.38899 0.0
C1580 C 0.18699 0.35942 0.39779 0.0
C1581 C 0.16733 0.33372 0.38255 0.0
C1582 C 0.12972 0.33555 0.39439 0.0
C1583 C 0.10519 0.34091 0.36318 0.0
C1584 C 0.11977 0.30318 0.41531 0.0
C1585 C 0.13091 0.36724 0.41758 0.0
C1586 C 0.16435 0.38028 0.4196 0.0
C1587 C 0.17148 0.4113 0.43659 0.0
C1588 C 0.14363 0.43002 0.45088 0.0
C1589 C 0.10919 0.41756 0.44827 0.0
C1590 C 0.10285 0.38536 0.43233 0.0
H1591 H 0.37598 0.228 0.66657 0.0
H1592 H 0.27422 0.21523 0.61957 0.0
H1593 H 0.29901 0.17359 0.57767 0.0
H1594 H 0.42821 0.2158 0.5832 0.0
H1595 H 0.46173 0.19271 0.60637 0.0
H1596 H 0.43753 0.2266 0.62794 0.0
H1597 H 0.4209 0.18368 0.677 0.0
H1598 H 0.4445 0.14967 0.65532 0.0
H1599 H 0.39916 0.14395 0.66586 0.0
H1600 H 0.33142 0.1246 0.54996 0.0
H1601 H 0.37148 0.07657 0.53402 0.0
H1602 H 0.45264 0.1234 0.59591 0.0
C1603 C 0.35915 0.21748 0.64665 0.0
C1604 C 0.32313 0.22489 0.64648 0.0
C1605 C 0.30191 0.21009 0.62026 0.0
C1606 C 0.31576 0.18636 0.59627 0.0
C1607 C 0.35098 0.17821 0.59836 0.0
C1608 C 0.37261 0.19393 0.62235 0.0
C1609 C 0.40877 0.1783 0.62135 0.0
C1610 C 0.43565 0.20495 0.60896 0.0
C1611 C 0.41889 0.163 0.65699 0.0
C1612 C 0.40354 0.15023 0.59438 0.0
C1613 C 0.3701 0.15067 0.58124 0.0
C1614 C 0.35799 0.12462 0.55919 0.0
C1615 C 0.38068 0.09742 0.55046 0.0
C1616 C 0.41493 0.09692 0.56354 0.0
C1617 C 0.42667 0.12385 0.58516 0.0
H1618 H 0.84492 0.3414 0.6942 0.0
H1619 H 0.79798 0.28476 0.60886 0.0
H1620 H 0.84448 0.30554 0.56916 0.0
H1621 H 0.87223 0.41512 0.64661 0.0
H1622 H 0.91205 0.41939 0.67088 0.0
H1623 H 0.87462 0.40004 0.691 0.0
H1624 H 0.91167 0.34567 0.70513 0.0
H1625 H 0.94898 0.36448 0.68401 0.0
H1626 H 0.93333 0.32276 0.67025 0.0
H1627 H 0.89583 0.33587 0.5384 0.0
H1628 H 0.94357 0.37512 0.52005 0.0
H1629 H 0.95808 0.40595 0.62758 0.0
C1630 C 0.84397 0.33375 0.66704 0.0
C1631 C 0.81749 0.31196 0.65448 0.0
C1632 C 0.81785 0.30183 0.61893 0.0
C1633 C 0.84431 0.31324 0.59629 0.0
C1634 C 0.87056 0.33409 0.60986 0.0
C1635 C 0.87043 0.34415 0.64449 0.0
C1636 C 0.90125 0.36656 0.65309 0.0
C1637 C 0.88932 0.40239 0.66613 0.0
C1638 C 0.92522 0.34879 0.67969 0.0
C1639 C 0.91832 0.36858 0.61766 0.0
C1640 C 0.90059 0.34959 0.59291 0.0
C1641 C 0.91026 0.3503 0.55771 0.0
C1642 C 0.93765 0.37227 0.54751 0.0
C1643 C 0.9547 0.39303 0.57254 0.0
C1644 C 0.94582 0.38982 0.60806 0.0
H1645 H 0.2001 0.6473 0.66522 0.0
H1646 H 0.12624 0.7252 0.70075 0.0
H1647 H 0.08087 0.69908 0.66458 0.0
H1648 H 0.16558 0.63991 0.57501 0.0
H1649 H 0.17237 0.59378 0.57344 0.0
H1650 H 0.20071 0.62057 0.59924 0.0
H1651 H 0.18681 0.58349 0.65377 0.0
H1652 H 0.15842 0.55672 0.62818 0.0
H1653 H 0.14214 0.57774 0.66692 0.0
H1654 H 0.04207 0.66195 0.63127 0.0
H1655 H 0.01154 0.61543 0.59981 0.0
H1656 H 0.10947 0.56191 0.58307 0.0
C1657 C 0.17455 0.65917 0.66482 0.0
C1658 C 0.16669 0.6882 0.68587 0.0
C1659 C 0.13284 0.7028 0.68505 0.0
C1660 C 0.10689 0.68831 0.66441 0.0
C1661 C 0.11521 0.65937 0.64455 0.0
C1662 C 0.14815 0.64494 0.64429 0.0
C1663 C 0.14919 0.61239 0.6222 0.0
C1664 C 0.1734 0.61695 0.59059 0.0
C1665 C 0.15976 0.58073 0.64408 0.0
C1666 C 0.11148 0.6104 0.61109 0.0
C1667 C 0.09251 0.63797 0.62419 0.0
C1668 C 0.05665 0.64059 0.6202 0.0
C1669 C 0.03957 0.6141 0.60253 0.0
C1670 C 0.05846 0.58572 0.58892 0.0
C1671 C 0.09485 0.58396 0.59269 0.0
loop_
_geom_bond_atom_site_label_1
_geom_bond_atom_site_label_2
_geom_bond_distance
_geom_bond_site_symmetry_2
_ccdc_geom_bond_type
O0 Zn1 1.953 . S
O0 C16 1.225 . S
Zn1 O0 1.953 . S
Zn1 O2 1.949 . S
Zn1 O8 1.919 . S
Zn1 O13 1.924 . S
O2 Zn1 1.949 . S
O2 Zn3 1.923 . S
O2 Zn4 1.950 . S
O2 Zn5 1.945 . S
Zn3 O2 1.923 . S
Zn3 O6 1.933 . S
Zn3 O9 1.941 . S
Zn3 O10 1.965 . S
Zn4 O2 1.950 . S
Zn4 O11 1.938 . S
Zn4 O12 1.906 . S
Zn4 O22 1.953 . S
Zn5 O2 1.945 . S
Zn5 O7 1.932 . S
Zn5 O14 1.977 . S
Zn5 O15 1.910 . S
O6 Zn3 1.933 . S
O6 C17 1.226 . S
O7 Zn5 1.932 . S
O7 C17 1.307 . S
O8 Zn1 1.919 . S
O8 C19 1.253 . S
O9 Zn3 1.941 . S
O9 C19 1.283 . S
O10 Zn3 1.965 . S
O10 C18 1.303 . S
O11 Zn4 1.938 . S
O11 C18 1.247 . S
O12 Zn4 1.906 . S
O12 C20 1.304 . S
O13 Zn1 1.924 . S
O13 C21 1.311 . S
O14 Zn5 1.977 . S
O14 C20 1.272 . S
O15 Zn5 1.910 . S
O15 C21 1.231 . S
C16 O0 1.225 . S
C16 O22 1.298 . S
C17 O6 1.226 . S
C17 O7 1.307 . S
C18 O10 1.303 . S
C18 O11 1.247 . S
C19 O8 1.253 . S
C19 O9 1.283 . S
C20 O12 1.304 . S
C20 O14 1.272 . S
C21 O13 1.311 . S
C21 O15 1.231 . S
O22 Zn4 1.953 . S
O22 C16 1.298 . S
O23 Zn24 1.953 . S
O23 C39 1.225 . S
Zn24 O23 1.953 . S
Zn24 O25 1.949 . S
Zn24 O31 1.919 . S
Zn24 O36 1.924 . S
O25 Zn24 1.949 . S
O25 Zn26 1.923 . S
O25 Zn27 1.950 . S
O25 Zn28 1.945 . S
Zn26 O25 1.923 . S
Zn26 O29 1.933 . S
Zn26 O32 1.941 . S
Zn26 O33 1.965 . S
Zn27 O25 1.950 . S
Zn27 O34 1.938 . S
Zn27 O35 1.906 . S
Zn27 O45 1.953 . S
Zn28 O25 1.945 . S
Zn28 O30 1.932 . S
Zn28 O37 1.977 . S
Zn28 O38 1.910 . S
O29 Zn26 1.933 . S
O29 C40 1.226 . S
O30 Zn28 1.932 . S
O30 C40 1.307 . S
O31 Zn24 1.919 . S
O31 C42 1.253 . S
O32 Zn26 1.941 . S
O32 C42 1.283 . S
O33 Zn26 1.965 . S
O33 C41 1.303 . S
O34 Zn27 1.938 . S
O34 C41 1.247 . S
O35 Zn27 1.906 . S
O35 C43 1.304 . S
O36 Zn24 1.924 . S
O36 C44 1.311 . S
O37 Zn28 1.977 . S
O37 C43 1.272 . S
O38 Zn28 1.910 . S
O38 C44 1.231 . S
C39 O23 1.225 . S
C39 O45 1.298 . S
C40 O29 1.226 . S
C40 O30 1.307 . S
C41 O33 1.303 . S
C41 O34 1.247 . S
C42 O31 1.253 . S
C42 O32 1.283 . S
C43 O35 1.304 . S
C43 O37 1.272 . S
C44 O36 1.311 . S
C44 O38 1.231 . S
O45 Zn27 1.953 . S
O45 C39 1.298 . S
O46 Zn47 1.953 . S
O46 C62 1.225 . S
Zn47 O46 1.953 . S
Zn47 O48 1.949 . S
Zn47 O54 1.919 . S
Zn47 O59 1.924 . S
O48 Zn47 1.949 . S
O48 Zn49 1.923 . S
O48 Zn50 1.950 . S
O48 Zn51 1.945 . S
Zn49 O48 1.923 . S
Zn49 O52 1.933 . S
Zn49 O55 1.941 . S
Zn49 O56 1.965 . S
Zn50 O48 1.950 . S
Zn50 O57 1.938 . S
Zn50 O58 1.906 . S
Zn50 O68 1.953 . S
Zn51 O48 1.945 . S
Zn51 O53 1.932 . S
Zn51 O60 1.977 . S
Zn51 O61 1.910 . S
O52 Zn49 1.933 . S
O52 C63 1.226 . S
O53 Zn51 1.932 . S
O53 C63 1.307 . S
O54 Zn47 1.919 . S
O54 C65 1.253 . S
O55 Zn49 1.941 . S
O55 C65 1.283 . S
O56 Zn49 1.965 . S
O56 C64 1.303 . S
O57 Zn50 1.938 . S
O57 C64 1.247 . S
O58 Zn50 1.906 . S
O58 C66 1.304 . S
O59 Zn47 1.924 . S
O59 C67 1.311 . S
O60 Zn51 1.977 . S
O60 C66 1.272 . S
O61 Zn51 1.910 . S
O61 C67 1.231 . S
C62 O46 1.225 . S
C62 O68 1.298 . S
C63 O52 1.226 . S
C63 O53 1.307 . S
C64 O56 1.303 . S
C64 O57 1.247 . S
C65 O54 1.253 . S
C65 O55 1.283 . S
C66 O58 1.304 . S
C66 O60 1.272 . S
C67 O59 1.311 . S
C67 O61 1.231 . S
O68 Zn50 1.953 . S
O68 C62 1.298 . S
O69 Zn70 1.953 . S
O69 C85 1.225 . S
Zn70 O69 1.953 . S
Zn70 O71 1.949 . S
Zn70 O77 1.919 . S
Zn70 O82 1.924 . S
O71 Zn70 1.949 . S
O71 Zn72 1.923 . S
O71 Zn73 1.950 . S
O71 Zn74 1.945 . S
Zn72 O71 1.923 . S
Zn72 O75 1.933 . S
Zn72 O78 1.941 . S
Zn72 O79 1.965 . S
Zn73 O71 1.950 . S
Zn73 O80 1.938 . S
Zn73 O81 1.906 . S
Zn73 O91 1.953 . S
Zn74 O71 1.945 . S
Zn74 O76 1.932 . S
Zn74 O83 1.977 . S
Zn74 O84 1.910 . S
O75 Zn72 1.933 . S
O75 C86 1.226 . S
O76 Zn74 1.932 . S
O76 C86 1.307 . S
O77 Zn70 1.919 . S
O77 C88 1.253 . S
O78 Zn72 1.941 . S
O78 C88 1.283 . S
O79 Zn72 1.965 . S
O79 C87 1.303 . S
O80 Zn73 1.938 . S
O80 C87 1.247 . S
O81 Zn73 1.906 . S
O81 C89 1.304 . S
O82 Zn70 1.924 . S
O82 C90 1.311 . S
O83 Zn74 1.977 . S
O83 C89 1.272 . S
O84 Zn74 1.910 . S
O84 C90 1.231 . S
C85 O69 1.225 . S
C85 O91 1.298 . S
C86 O75 1.226 . S
C86 O76 1.307 . S
C87 O79 1.303 . S
C87 O80 1.247 . S
C88 O77 1.253 . S
C88 O78 1.283 . S
C89 O81 1.304 . S
C89 O83 1.272 . S
C90 O82 1.311 . S
C90 O84 1.231 . S
O91 Zn73 1.953 . S
O91 C85 1.298 . S
O92 Zn93 1.953 . S
O92 C108 1.225 . S
Zn93 O92 1.953 . S
Zn93 O94 1.949 . S
Zn93 O100 1.919 . S
Zn93 O105 1.924 . S
O94 Zn93 1.949 . S
O94 Zn95 1.923 . S
O94 Zn96 1.950 . S
O94 Zn97 1.945 . S
Zn95 O94 1.923 . S
Zn95 O98 1.933 . S
Zn95 O101 1.941 . S
Zn95 O102 1.965 . S
Zn96 O94 1.950 . S
Zn96 O103 1.938 . S
Zn96 O104 1.906 . S
Zn96 O114 1.953 . S
Zn97 O94 1.945 . S
Zn97 O99 1.932 . S
Zn97 O106 1.977 . S
Zn97 O107 1.910 . S
O98 Zn95 1.933 . S
O98 C109 1.226 . S
O99 Zn97 1.932 . S
O99 C109 1.307 . S
O100 Zn93 1.919 . S
O100 C111 1.253 . S
O101 Zn95 1.941 . S
O101 C111 1.283 . S
O102 Zn95 1.965 . S
O102 C110 1.303 . S
O103 Zn96 1.938 . S
O103 C110 1.247 . S
O104 Zn96 1.906 . S
O104 C112 1.304 . S
O105 Zn93 1.924 . S
O105 C113 1.311 . S
O106 Zn97 1.977 . S
O106 C112 1.272 . S
O107 Zn97 1.910 . S
O107 C113 1.231 . S
C108 O92 1.225 . S
C108 O114 1.298 . S
C109 O98 1.226 . S
C109 O99 1.307 . S
C110 O102 1.303 . S
C110 O103 1.247 . S
C111 O100 1.253 . S
C111 O101 1.283 . S
C112 O104 1.304 . S
C112 O106 1.272 . S
C113 O105 1.311 . S
C113 O107 1.231 . S
O114 Zn96 1.953 . S
O114 C108 1.298 . S
O115 Zn116 1.953 . S
O115 C131 1.225 . S
Zn116 O115 1.953 . S
Zn116 O117 1.949 . S
Zn116 O123 1.919 . S
Zn116 O128 1.924 . S
O117 Zn116 1.949 . S
O117 Zn118 1.923 . S
O117 Zn119 1.950 . S
O117 Zn120 1.945 . S
Zn118 O117 1.923 . S
Zn118 O121 1.933 . S
Zn118 O124 1.941 . S
Zn118 O125 1.965 . S
Zn119 O117 1.950 . S
Zn119 O126 1.938 . S
Zn119 O127 1.906 . S
Zn119 O137 1.953 . S
Zn120 O117 1.945 . S
Zn120 O122 1.932 . S
Zn120 O129 1.977 . S
Zn120 O130 1.910 . S
O121 Zn118 1.933 . S
O121 C132 1.226 . S
O122 Zn120 1.932 . S
O122 C132 1.307 . S
O123 Zn116 1.919 . S
O123 C134 1.253 . S
O124 Zn118 1.941 . S
O124 C134 1.283 . S
O125 Zn118 1.965 . S
O125 C133 1.303 . S
O126 Zn119 1.938 . S
O126 C133 1.247 . S
O127 Zn119 1.906 . S
O127 C135 1.304 . S
O128 Zn116 1.924 . S
O128 C136 1.311 . S
O129 Zn120 1.977 . S
O129 C135 1.272 . S
O130 Zn120 1.910 . S
O130 C136 1.231 . S
C131 O115 1.225 . S
C131 O137 1.298 . S
C132 O121 1.226 . S
C132 O122 1.307 . S
C133 O125 1.303 . S
C133 O126 1.247 . S
C134 O123 1.253 . S
C134 O124 1.283 . S
C135 O127 1.304 . S
C135 O129 1.272 . S
C136 O128 1.311 . S
C136 O130 1.231 . S
O137 Zn119 1.953 . S
O137 C131 1.298 . S
O138 Zn139 1.953 . S
O138 C154 1.225 . S
Zn139 O138 1.953 . S
Zn139 O140 1.949 . S
Zn139 O146 1.919 . S
Zn139 O151 1.924 . S
O140 Zn139 1.949 . S
O140 Zn141 1.923 . S
O140 Zn142 1.950 . S
O140 Zn143 1.945 . S
Zn141 O140 1.923 . S
Zn141 O144 1.933 . S
Zn141 O147 1.941 . S
Zn141 O148 1.965 . S
Zn142 O140 1.950 . S
Zn142 O149 1.938 . S
Zn142 O150 1.906 . S
Zn142 O160 1.953 . S
Zn143 O140 1.945 . S
Zn143 O145 1.932 . S
Zn143 O152 1.977 . S
Zn143 O153 1.910 . S
O144 Zn141 1.933 . S
O144 C155 1.226 . S
O145 Zn143 1.932 . S
O145 C155 1.307 . S
O146 Zn139 1.919 . S
O146 C157 1.253 . S
O147 Zn141 1.941 . S
O147 C157 1.283 . S
O148 Zn141 1.965 . S
O148 C156 1.303 . S
O149 Zn142 1.938 . S
O149 C156 1.247 . S
O150 Zn142 1.906 . S
O150 C158 1.304 . S
O151 Zn139 1.924 . S
O151 C159 1.311 . S
O152 Zn143 1.977 . S
O152 C158 1.272 . S
O153 Zn143 1.910 . S
O153 C159 1.231 . S
C154 O138 1.225 . S
C154 O160 1.298 . S
C155 O144 1.226 . S
C155 O145 1.307 . S
C156 O148 1.303 . S
C156 O149 1.247 . S
C157 O146 1.253 . S
C157 O147 1.283 . S
C158 O150 1.304 . S
C158 O152 1.272 . S
C159 O151 1.311 . S
C159 O153 1.231 . S
O160 Zn142 1.953 . S
O160 C154 1.298 . S
O161 Zn162 1.953 . S
O161 C177 1.225 . S
Zn162 O161 1.953 . S
Zn162 O163 1.949 . S
Zn162 O169 1.919 . S
Zn162 O174 1.924 . S
O163 Zn162 1.949 . S
O163 Zn164 1.923 . S
O163 Zn165 1.950 . S
O163 Zn166 1.945 . S
Zn164 O163 1.923 . S
Zn164 O167 1.933 . S
Zn164 O170 1.941 . S
Zn164 O171 1.965 . S
Zn165 O163 1.950 . S
Zn165 O172 1.938 . S
Zn165 O173 1.906 . S
Zn165 O183 1.953 . S
Zn166 O163 1.945 . S
Zn166 O168 1.932 . S
Zn166 O175 1.977 . S
Zn166 O176 1.910 . S
O167 Zn164 1.933 . S
O167 C178 1.226 . S
O168 Zn166 1.932 . S
O168 C178 1.307 . S
O169 Zn162 1.919 . S
O169 C180 1.253 . S
O170 Zn164 1.941 . S
O170 C180 1.283 . S
O171 Zn164 1.965 . S
O171 C179 1.303 . S
O172 Zn165 1.938 . S
O172 C179 1.247 . S
O173 Zn165 1.906 . S
O173 C181 1.304 . S
O174 Zn162 1.924 . S
O174 C182 1.311 . S
O175 Zn166 1.977 . S
O175 C181 1.272 . S
O176 Zn166 1.910 . S
O176 C182 1.231 . S
C177 O161 1.225 . S
C177 O183 1.298 . S
C178 O167 1.226 . S
C178 O168 1.307 . S
C179 O171 1.303 . S
C179 O172 1.247 . S
C180 O169 1.253 . S
C180 O170 1.283 . S
C181 O173 1.304 . S
C181 O175 1.272 . S
C182 O174 1.311 . S
C182 O176 1.231 . S
O183 Zn165 1.953 . S
O183 C177 1.298 . S
Fe184 O185 1.886 1_455 S
Fe184 O188 1.715 . S
Fe184 O193 2.077 1_455 S
Fe184 O198 1.935 . S
Fe184 O204 2.077 1_455 S
Fe184 O213 1.935 . S
O185 Fe184 1.886 1_655 S
O185 Fe187 1.715 . S
Fe186 O188 1.886 . S
Fe186 O189 1.715 1_545 S
Fe186 O196 1.935 1_545 S
Fe186 O197 2.077 . S
Fe186 O203 1.935 1_545 S
Fe186 O212 2.077 . S
Fe187 O185 1.715 . S
Fe187 O190 1.886 1_545 S
Fe187 O194 1.935 . S
Fe187 O199 2.077 1_545 S
Fe187 O205 1.935 . S
Fe187 O209 2.077 1_545 S
O188 Fe184 1.715 . S
O188 Fe186 1.886 . S
O189 Fe186 1.715 1_565 S
O189 Fe191 1.886 . S
O190 Fe187 1.886 1_565 S
O190 Fe191 1.715 1_655 S
Fe191 O189 1.886 . S
Fe191 O190 1.715 1_455 S
Fe191 O195 2.077 . S
Fe191 O200 1.935 1_455 S
Fe191 O202 2.077 . S
Fe191 O210 1.935 1_455 S
C192 O204 1.381 . S
C192 O205 1.421 . S
O193 Fe184 2.077 1_655 S
O193 C206 1.381 . S
O194 Fe187 1.935 . S
O194 C206 1.421 . S
O195 Fe191 2.077 . S
O195 C211 1.381 . S
O196 Fe186 1.935 1_565 S
O196 C211 1.421 . S
O197 Fe186 2.077 . S
O197 C201 1.381 . S
O198 Fe184 1.935 . S
O198 C201 1.421 . S
O199 Fe187 2.077 1_565 S
O199 C207 1.381 . S
O200 Fe191 1.935 1_655 S
O200 C207 1.421 . S
C201 O197 1.381 . S
C201 O198 1.421 . S
O202 Fe191 2.077 . S
O202 C214 1.381 . S
O203 Fe186 1.935 1_565 S
O203 C214 1.421 . S
O204 Fe184 2.077 1_655 S
O204 C192 1.381 . S
O205 Fe187 1.935 . S
O205 C192 1.421 . S
C206 O193 1.381 . S
C206 O194 1.421 . S
C207 O199 1.381 . S
C207 O200 1.421 . S
C208 O209 1.381 . S
C208 O210 1.421 . S
O209 Fe187 2.077 1_565 S
O209 C208 1.381 . S
O210 Fe191 1.935 1_655 S
O210 C208 1.421 . S
C211 O195 1.381 . S
C211 O196 1.421 . S
O212 Fe186 2.077 . S
O212 C215 1.381 . S
O213 Fe184 1.935 . S
O213 C215 1.421 . S
C214 O202 1.381 . S
C214 O203 1.421 . S
C215 O212 1.381 . S
C215 O213 1.421 . S
Fe216 O217 1.886 . S
Fe216 O220 1.715 . S
Fe216 O225 2.077 1_554 S
Fe216 O230 1.935 1_554 S
Fe216 O236 2.077 . S
Fe216 O245 1.935 . S
O217 Fe216 1.886 . S
O217 Fe219 1.715 1_565 S
Fe218 O220 1.886 1_545 S
Fe218 O221 1.715 . S
Fe218 O228 1.935 1_554 S
Fe218 O229 2.077 1_544 S
Fe218 O235 1.935 . S
Fe218 O244 2.077 1_545 S
Fe219 O217 1.715 1_545 S
Fe219 O222 1.886 . S
Fe219 O226 1.935 1_544 S
Fe219 O231 2.077 1_554 S
Fe219 O237 1.935 1_545 S
Fe219 O241 2.077 . S
O220 Fe216 1.715 . S
O220 Fe218 1.886 1_565 S
O221 Fe218 1.715 . S
O221 Fe223 1.886 . S
O222 Fe219 1.886 . S
O222 Fe223 1.715 . S
Fe223 O221 1.886 . S
Fe223 O222 1.715 . S
Fe223 O227 2.077 1_554 S
Fe223 O232 1.935 1_554 S
Fe223 O234 2.077 . S
Fe223 O242 1.935 . S
C224 O236 1.381 . S
C224 O237 1.421 . S
O225 Fe216 2.077 1_556 S
O225 C238 1.381 . S
O226 Fe219 1.935 1_566 S
O226 C238 1.421 . S
O227 Fe223 2.077 1_556 S
O227 C243 1.381 . S
O228 Fe218 1.935 1_556 S
O228 C243 1.421 . S
O229 Fe218 2.077 1_566 S
O229 C233 1.381 . S
O230 Fe216 1.935 1_556 S
O230 C233 1.421 . S
O231 Fe219 2.077 1_556 S
O231 C239 1.381 . S
O232 Fe223 1.935 1_556 S
O232 C239 1.421 . S
C233 O229 1.381 . S
C233 O230 1.421 . S
O234 Fe223 2.077 . S
O234 C246 1.381 . S
O235 Fe218 1.935 . S
O235 C246 1.421 . S
O236 Fe216 2.077 . S
O236 C224 1.381 . S
O237 Fe219 1.935 1_565 S
O237 C224 1.421 . S
C238 O225 1.381 . S
C238 O226 1.421 . S
C239 O231 1.381 . S
C239 O232 1.421 . S
C240 O241 1.381 . S
C240 O242 1.421 . S
O241 Fe219 2.077 . S
O241 C240 1.381 . S
O242 Fe223 1.935 . S
O242 C240 1.421 . S
C243 O227 1.381 . S
C243 O228 1.421 . S
O244 Fe218 2.077 1_565 S
O244 C247 1.381 . S
O245 Fe216 1.935 . S
O245 C247 1.421 . S
C246 O234 1.381 . S
C246 O235 1.421 . S
C247 O244 1.381 . S
C247 O245 1.421 . S
Fe248 O249 1.886 1_455 S
Fe248 O252 1.715 . S
Fe248 O257 2.077 1_454 S
Fe248 O262 1.935 1_554 S
Fe248 O268 2.077 1_455 S
Fe248 O277 1.935 . S
O249 Fe248 1.886 1_655 S
O249 Fe251 1.715 . S
Fe250 O252 1.886 . S
Fe250 O253 1.715 . S
Fe250 O260 1.935 1_554 S
Fe250 O261 2.077 1_554 S
Fe250 O267 1.935 . S
Fe250 O276 2.077 . S
Fe251 O249 1.715 . S
Fe251 O254 1.886 . S
Fe251 O258 1.935 1_554 S
Fe251 O263 2.077 1_554 S
Fe251 O269 1.935 . S
Fe251 O273 2.077 . S
O252 Fe248 1.715 . S
O252 Fe250 1.886 . S
O253 Fe250 1.715 . S
O253 Fe255 1.886 . S
O254 Fe251 1.886 . S
O254 Fe255 1.715 1_655 S
Fe255 O253 1.886 . S
Fe255 O254 1.715 1_455 S
Fe255 O259 2.077 1_554 S
Fe255 O264 1.935 1_454 S
Fe255 O266 2.077 . S
Fe255 O274 1.935 1_455 S
C256 O268 1.381 . S
C256 O269 1.421 . S
O257 Fe248 2.077 1_656 S
O257 C270 1.381 . S
O258 Fe251 1.935 1_556 S
O258 C270 1.421 . S
O259 Fe255 2.077 1_556 S
O259 C275 1.381 . S
O260 Fe250 1.935 1_556 S
O260 C275 1.421 . S
O261 Fe250 2.077 1_556 S
O261 C265 1.381 . S
O262 Fe248 1.935 1_556 S
O262 C265 1.421 . S
O263 Fe251 2.077 1_556 S
O263 C271 1.381 . S
O264 Fe255 1.935 1_656 S
O264 C271 1.421 . S
C265 O261 1.381 . S
C265 O262 1.421 . S
O266 Fe255 2.077 . S
O266 C278 1.381 . S
O267 Fe250 1.935 . S
O267 C278 1.421 . S
O268 Fe248 2.077 1_655 S
O268 C256 1.381 . S
O269 Fe251 1.935 . S
O269 C256 1.421 . S
C270 O257 1.381 . S
C270 O258 1.421 . S
C271 O263 1.381 . S
C271 O264 1.421 . S
C272 O273 1.381 . S
C272 O274 1.421 . S
O273 Fe251 2.077 . S
O273 C272 1.381 . S
O274 Fe255 1.935 1_655 S
O274 C272 1.421 . S
C275 O259 1.381 . S
C275 O260 1.421 . S
O276 Fe250 2.077 . S
O276 C279 1.381 . S
O277 Fe248 1.935 . S
O277 C279 1.421 . S
C278 O266 1.381 . S
C278 O267 1.421 . S
C279 O276 1.381 . S
C279 O277 1.421 . S
Fe280 O281 1.886 . S
Fe280 O284 1.715 . S
Fe280 O289 2.077 . S
Fe280 O294 1.935 . S
Fe280 O300 2.077 . S
Fe280 O309 1.935 . S
O281 Fe280 1.886 . S
O281 Fe283 1.715 1_556 S
Fe282 O284 1.886 1_554 S
Fe282 O285 1.715 . S
Fe282 O292 1.935 . S
Fe282 O293 2.077 1_554 S
Fe282 O299 1.935 . S
Fe282 O308 2.077 1_554 S
Fe283 O281 1.715 1_554 S
Fe283 O286 1.886 . S
Fe283 O290 1.935 1_554 S
Fe283 O295 2.077 . S
Fe283 O301 1.935 1_554 S
Fe283 O305 2.077 . S
O284 Fe280 1.715 . S
O284 Fe282 1.886 1_556 S
O285 Fe282 1.715 . S
O285 Fe287 1.886 . S
O286 Fe283 1.886 . S
O286 Fe287 1.715 . S
Fe287 O285 1.886 . S
Fe287 O286 1.715 . S
Fe287 O291 2.077 . S
Fe287 O296 1.935 . S
Fe287 O298 2.077 . S
Fe287 O306 1.935 . S
C288 O300 1.381 . S
C288 O301 1.421 . S
O289 Fe280 2.077 . S
O289 C302 1.381 . S
O290 Fe283 1.935 1_556 S
O290 C302 1.421 . S
O291 Fe287 2.077 . S
O291 C307 1.381 . S
O292 Fe282 1.935 . S
O292 C307 1.421 . S
O293 Fe282 2.077 1_556 S
O293 C297 1.381 . S
O294 Fe280 1.935 . S
O294 C297 1.421 . S
O295 Fe283 2.077 . S
O295 C303 1.381 . S
O296 Fe287 1.935 . S
O296 C303 1.421 . S
C297 O293 1.381 . S
C297 O294 1.421 . S
O298 Fe287 2.077 . S
O298 C310 1.381 . S
O299 Fe282 1.935 . S
O299 C310 1.421 . S
O300 Fe280 2.077 . S
O300 C288 1.381 . S
O301 Fe283 1.935 1_556 S
O301 C288 1.421 . S
C302 O289 1.381 . S
C302 O290 1.421 . S
C303 O295 1.381 . S
C303 O296 1.421 . S
C304 O305 1.381 . S
C304 O306 1.421 . S
O305 Fe283 2.077 . S
O305 C304 1.381 . S
O306 Fe287 1.935 . S
O306 C304 1.421 . S
C307 O291 1.381 . S
C307 O292 1.421 . S
O308 Fe282 2.077 1_556 S
O308 C311 1.381 . S
O309 Fe280 1.935 . S
O309 C311 1.421 . S
C310 O298 1.381 . S
C310 O299 1.421 . S
C311 O308 1.381 . S
C311 O309 1.421 . S
Fe312 O313 1.886 . S
Fe312 O316 1.715 . S
Fe312 O321 2.077 . S
Fe312 O326 1.935 . S
Fe312 O332 2.077 1_455 S
Fe312 O341 1.935 1_455 S
O313 Fe312 1.886 . S
O313 Fe315 1.715 . S
Fe314 O316 1.886 . S
Fe314 O317 1.715 . S
Fe314 O324 1.935 . S
Fe314 O325 2.077 . S
Fe314 O331 1.935 1_455 S
Fe314 O340 2.077 1_455 S
Fe315 O313 1.715 . S
Fe315 O318 1.886 . S
Fe315 O322 1.935 . S
Fe315 O327 2.077 . S
Fe315 O333 1.935 1_455 S
Fe315 O337 2.077 1_455 S
O316 Fe312 1.715 . S
O316 Fe314 1.886 . S
O317 Fe314 1.715 . S
O317 Fe319 1.886 . S
O318 Fe315 1.886 . S
O318 Fe319 1.715 . S
Fe319 O317 1.886 . S
Fe319 O318 1.715 . S
Fe319 O323 2.077 . S
Fe319 O328 1.935 . S
Fe319 O330 2.077 1_455 S
Fe319 O338 1.935 1_455 S
C320 O332 1.381 . S
C320 O333 1.421 . S
O321 Fe312 2.077 . S
O321 C334 1.381 . S
O322 Fe315 1.935 . S
O322 C334 1.421 . S
O323 Fe319 2.077 . S
O323 C339 1.381 . S
O324 Fe314 1.935 . S
O324 C339 1.421 . S
O325 Fe314 2.077 . S
O325 C329 1.381 . S
O326 Fe312 1.935 . S
O326 C329 1.421 . S
O327 Fe315 2.077 . S
O327 C335 1.381 . S
O328 Fe319 1.935 . S
O328 C335 1.421 . S
C329 O325 1.381 . S
C329 O326 1.421 . S
O330 Fe319 2.077 1_655 S
O330 C342 1.381 . S
O331 Fe314 1.935 1_655 S
O331 C342 1.421 . S
O332 Fe312 2.077 1_655 S
O332 C320 1.381 . S
O333 Fe315 1.935 1_655 S
O333 C320 1.421 . S
C334 O321 1.381 . S
C334 O322 1.421 . S
C335 O327 1.381 . S
C335 O328 1.421 . S
C336 O337 1.381 . S
C336 O338 1.421 . S
O337 Fe315 2.077 1_655 S
O337 C336 1.381 . S
O338 Fe319 1.935 1_655 S
O338 C336 1.421 . S
C339 O323 1.381 . S
C339 O324 1.421 . S
O340 Fe314 2.077 1_655 S
O340 C343 1.381 . S
O341 Fe312 1.935 1_655 S
O341 C343 1.421 . S
C342 O330 1.381 . S
C342 O331 1.421 . S
C343 O340 1.381 . S
C343 O341 1.421 . S
Fe344 O345 1.886 . S
Fe344 O348 1.715 . S
Fe344 O353 2.077 . S
Fe344 O358 1.935 . S
Fe344 O364 2.077 . S
Fe344 O373 1.935 . S
O345 Fe344 1.886 . S
O345 Fe347 1.715 1_565 S
Fe346 O348 1.886 1_545 S
Fe346 O349 1.715 . S
Fe346 O356 1.935 . S
Fe346 O357 2.077 1_545 S
Fe346 O363 1.935 . S
Fe346 O372 2.077 1_545 S
Fe347 O345 1.715 1_545 S
Fe347 O350 1.886 . S
Fe347 O354 1.935 1_545 S
Fe347 O359 2.077 . S
Fe347 O365 1.935 1_545 S
Fe347 O369 2.077 . S
O348 Fe344 1.715 . S
O348 Fe346 1.886 1_565 S
O349 Fe346 1.715 . S
O349 Fe351 1.886 . S
O350 Fe347 1.886 . S
O350 Fe351 1.715 . S
Fe351 O349 1.886 . S
Fe351 O350 1.715 . S
Fe351 O355 2.077 . S
Fe351 O360 1.935 . S
Fe351 O362 2.077 . S
Fe351 O370 1.935 . S
C352 O364 1.381 . S
C352 O365 1.421 . S
O353 Fe344 2.077 . S
O353 C366 1.381 . S
O354 Fe347 1.935 1_565 S
O354 C366 1.421 . S
O355 Fe351 2.077 . S
O355 C371 1.381 . S
O356 Fe346 1.935 . S
O356 C371 1.421 . S
O357 Fe346 2.077 1_565 S
O357 C361 1.381 . S
O358 Fe344 1.935 . S
O358 C361 1.421 . S
O359 Fe347 2.077 . S
O359 C367 1.381 . S
O360 Fe351 1.935 . S
O360 C367 1.421 . S
C361 O357 1.381 . S
C361 O358 1.421 . S
O362 Fe351 2.077 . S
O362 C374 1.381 . S
O363 Fe346 1.935 . S
O363 C374 1.421 . S
O364 Fe344 2.077 . S
O364 C352 1.381 . S
O365 Fe347 1.935 1_565 S
O365 C352 1.421 . S
C366 O353 1.381 . S
C366 O354 1.421 . S
C367 O359 1.381 . S
C367 O360 1.421 . S
C368 O369 1.381 . S
C368 O370 1.421 . S
O369 Fe347 2.077 . S
O369 C368 1.381 . S
O370 Fe351 1.935 . S
O370 C368 1.421 . S
C371 O355 1.381 . S
C371 O356 1.421 . S
O372 Fe346 2.077 1_565 S
O372 C375 1.381 . S
O373 Fe344 1.935 . S
O373 C375 1.421 . S
C374 O362 1.381 . S
C374 O363 1.421 . S
C375 O372 1.381 . S
C375 O373 1.421 . S
H376 C388 0.930 . S
H377 C390 0.930 . S
H378 C391 0.930 . S
H379 C395 0.959 . S
H380 C395 0.959 . S
H381 C395 0.961 . S
H382 C396 0.960 . S
H383 C396 0.961 . S
H384 C396 0.959 . S
H385 C399 0.929 . S
H386 C400 0.931 . S
H387 C402 0.930 . S
C388 H376 0.930 . S
C388 C389 1.399 . S
C388 C393 1.399 . S
C389 C388 1.399 . S
C389 C390 1.376 . S
C390 H377 0.930 . S
C390 C389 1.376 . S
C390 C391 1.388 . S
C391 H378 0.930 . S
C391 C390 1.388 . S
C391 C392 1.390 . S
C392 C391 1.390 . S
C392 C393 1.394 . S
C392 C398 1.465 . S
C393 C388 1.399 . S
C393 C392 1.394 . S
C393 C394 1.516 . S
C394 C393 1.516 . S
C394 C395 1.502 . S
C394 C396 1.561 . S
C394 C397 1.526 . S
C395 H379 0.959 . S
C395 H380 0.959 . S
C395 H381 0.961 . S
C395 C394 1.502 . S
C396 H382 0.960 . S
C396 H383 0.961 . S
C396 H384 0.959 . S
C396 C394 1.561 . S
C397 C394 1.526 . S
C397 C398 1.396 . S
C397 C402 1.390 . S
C398 C392 1.465 . S
C398 C397 1.396 . S
C398 C399 1.399 . S
C399 H385 0.929 . S
C399 C398 1.399 . S
C399 C400 1.385 . S
C400 H386 0.931 . S
C400 C399 1.385 . S
C400 C401 1.389 . S
C401 C400 1.389 . S
C401 C402 1.387 . S
C402 H387 0.930 . S
C402 C397 1.390 . S
C402 C401 1.387 . S
H403 C415 0.930 . S
H404 C417 0.930 . S
H405 C418 0.930 . S
H406 C422 0.959 . S
H407 C422 0.959 . S
H408 C422 0.961 . S
H409 C423 0.960 . S
H410 C423 0.961 . S
H411 C423 0.959 . S
H412 C426 0.929 . S
H413 C427 0.931 . S
H414 C429 0.930 . S
C415 H403 0.930 . S
C415 C416 1.399 . S
C415 C420 1.399 . S
C416 C415 1.399 . S
C416 C417 1.376 . S
C417 H404 0.930 . S
C417 C416 1.376 . S
C417 C418 1.388 . S
C418 H405 0.930 . S
C418 C417 1.388 . S
C418 C419 1.390 . S
C419 C418 1.390 . S
C419 C420 1.394 . S
C419 C425 1.465 . S
C420 C415 1.399 . S
C420 C419 1.394 . S
C420 C421 1.516 . S
C421 C420 1.516 . S
C421 C422 1.502 . S
C421 C423 1.561 . S
C421 C424 1.526 . S
C422 H406 0.959 . S
C422 H407 0.959 . S
C422 H408 0.961 . S
C422 C421 1.502 . S
C423 H409 0.960 . S
C423 H410 0.961 . S
C423 H411 0.959 . S
C423 C421 1.561 . S
C424 C421 1.526 . S
C424 C425 1.396 . S
C424 C429 1.390 . S
C425 C419 1.465 . S
C425 C424 1.396 . S
C425 C426 1.399 . S
C426 H412 0.929 . S
C426 C425 1.399 . S
C426 C427 1.385 . S
C427 H413 0.931 . S
C427 C426 1.385 . S
C427 C428 1.389 . S
C428 C427 1.389 . S
C428 C429 1.387 . S
C429 H414 0.930 . S
C429 C424 1.390 . S
C429 C428 1.387 . S
H430 C442 0.930 . S
H431 C444 0.930 . S
H432 C445 0.930 . S
H433 C449 0.959 . S
H434 C449 0.959 . S
H435 C449 0.961 . S
H436 C450 0.960 . S
H437 C450 0.961 . S
H438 C450 0.959 . S
H439 C453 0.929 . S
H440 C454 0.931 . S
H441 C456 0.930 . S
C442 H430 0.930 . S
C442 C443 1.399 . S
C442 C447 1.399 . S
C443 C442 1.399 . S
C443 C444 1.376 . S
C444 H431 0.930 . S
C444 C443 1.376 . S
C444 C445 1.388 . S
C445 H432 0.930 . S
C445 C444 1.388 . S
C445 C446 1.390 . S
C446 C445 1.390 . S
C446 C447 1.394 . S
C446 C452 1.465 . S
C447 C442 1.399 . S
C447 C446 1.394 . S
C447 C448 1.516 . S
C448 C447 1.516 . S
C448 C449 1.502 . S
C448 C450 1.561 . S
C448 C451 1.526 . S
C449 H433 0.959 . S
C449 H434 0.959 . S
C449 H435 0.961 . S
C449 C448 1.502 . S
C450 H436 0.960 . S
C450 H437 0.961 . S
C450 H438 0.959 . S
C450 C448 1.561 . S
C451 C448 1.526 . S
C451 C452 1.396 . S
C451 C456 1.390 . S
C452 C446 1.465 . S
C452 C451 1.396 . S
C452 C453 1.399 . S
C453 H439 0.929 . S
C453 C452 1.399 . S
C453 C454 1.385 . S
C454 H440 0.931 . S
C454 C453 1.385 . S
C454 C455 1.389 . S
C455 C454 1.389 . S
C455 C456 1.387 . S
C456 H441 0.930 . S
C456 C451 1.390 . S
C456 C455 1.387 . S
H457 C469 0.930 . S
H458 C471 0.930 . S
H459 C472 0.930 . S
H460 C476 0.959 . S
H461 C476 0.959 . S
H462 C476 0.961 . S
H463 C477 0.960 . S
H464 C477 0.961 . S
H465 C477 0.959 . S
H466 C480 0.929 . S
H467 C481 0.931 . S
H468 C483 0.930 . S
C469 H457 0.930 . S
C469 C470 1.399 . S
C469 C474 1.399 . S
C470 C469 1.399 . S
C470 C471 1.376 . S
C471 H458 0.930 . S
C471 C470 1.376 . S
C471 C472 1.388 . S
C472 H459 0.930 . S
C472 C471 1.388 . S
C472 C473 1.390 . S
C473 C472 1.390 . S
C473 C474 1.394 . S
C473 C479 1.465 . S
C474 C469 1.399 . S
C474 C473 1.394 . S
C474 C475 1.516 . S
C475 C474 1.516 . S
C475 C476 1.502 . S
C475 C477 1.561 . S
C475 C478 1.526 . S
C476 H460 0.959 . S
C476 H461 0.959 . S
C476 H462 0.961 . S
C476 C475 1.502 . S
C477 H463 0.960 . S
C477 H464 0.961 . S
C477 H465 0.959 . S
C477 C475 1.561 . S
C478 C475 1.526 . S
C478 C479 1.396 . S
C478 C483 1.390 . S
C479 C473 1.465 . S
C479 C478 1.396 . S
C479 C480 1.399 . S
C480 H466 0.929 . S
C480 C479 1.399 . S
C480 C481 1.385 . S
C481 H467 0.931 . S
C481 C480 1.385 . S
C481 C482 1.389 . S
C482 C481 1.389 . S
C482 C483 1.387 . S
C483 H468 0.930 . S
C483 C478 1.390 . S
C483 C482 1.387 . S
H484 C496 0.930 . S
H485 C498 0.930 . S
H486 C499 0.930 . S
H487 C503 0.959 . S
H488 C503 0.959 . S
H489 C503 0.961 . S
H490 C504 0.960 . S
H491 C504 0.961 . S
H492 C504 0.959 . S
H493 C507 0.929 . S
H494 C508 0.931 . S
H495 C510 0.930 . S
C496 H484 0.930 . S
C496 C497 1.399 . S
C496 C501 1.399 . S
C497 C496 1.399 . S
C497 C498 1.376 . S
C498 H485 0.930 . S
C498 C497 1.376 . S
C498 C499 1.388 . S
C499 H486 0.930 . S
C499 C498 1.388 . S
C499 C500 1.390 . S
C500 C499 1.390 . S
C500 C501 1.394 . S
C500 C506 1.465 . S
C501 C496 1.399 . S
C501 C500 1.394 . S
C501 C502 1.516 . S
C502 C501 1.516 . S
C502 C503 1.502 . S
C502 C504 1.561 . S
C502 C505 1.526 . S
C503 H487 0.959 . S
C503 H488 0.959 . S
C503 H489 0.961 . S
C503 C502 1.502 . S
C504 H490 0.960 . S
C504 H491 0.961 . S
C504 H492 0.959 . S
C504 C502 1.561 . S
C505 C502 1.526 . S
C505 C506 1.396 . S
C505 C510 1.390 . S
C506 C500 1.465 . S
C506 C505 1.396 . S
C506 C507 1.399 . S
C507 H493 0.929 . S
C507 C506 1.399 . S
C507 C508 1.385 . S
C508 H494 0.931 . S
C508 C507 1.385 . S
C508 C509 1.389 . S
C509 C508 1.389 . S
C509 C510 1.387 . S
C510 H495 0.930 . S
C510 C505 1.390 . S
C510 C509 1.387 . S
H511 C523 0.930 . S
H512 C525 0.930 . S
H513 C526 0.930 . S
H514 C530 0.959 . S
H515 C530 0.959 . S
H516 C530 0.961 . S
H517 C531 0.960 . S
H518 C531 0.961 . S
H519 C531 0.959 . S
H520 C534 0.929 . S
H521 C535 0.931 . S
H522 C537 0.930 . S
C523 H511 0.930 . S
C523 C524 1.399 . S
C523 C528 1.399 . S
C524 C523 1.399 . S
C524 C525 1.376 . S
C525 H512 0.930 . S
C525 C524 1.376 . S
C525 C526 1.388 . S
C526 H513 0.930 . S
C526 C525 1.388 . S
C526 C527 1.390 . S
C527 C526 1.390 . S
C527 C528 1.394 . S
C527 C533 1.465 . S
C528 C523 1.399 . S
C528 C527 1.394 . S
C528 C529 1.516 . S
C529 C528 1.516 . S
C529 C530 1.502 . S
C529 C531 1.561 . S
C529 C532 1.526 . S
C530 H514 0.959 . S
C530 H515 0.959 . S
C530 H516 0.961 . S
C530 C529 1.502 . S
C531 H517 0.960 . S
C531 H518 0.961 . S
C531 H519 0.959 . S
C531 C529 1.561 . S
C532 C529 1.526 . S
C532 C533 1.396 . S
C532 C537 1.390 . S
C533 C527 1.465 . S
C533 C532 1.396 . S
C533 C534 1.399 . S
C534 H520 0.929 . S
C534 C533 1.399 . S
C534 C535 1.385 . S
C535 H521 0.931 . S
C535 C534 1.385 . S
C535 C536 1.389 . S
C536 C535 1.389 . S
C536 C537 1.387 . S
C537 H522 0.930 . S
C537 C532 1.390 . S
C537 C536 1.387 . S
H538 C550 0.930 . S
H539 C552 0.930 . S
H540 C553 0.930 . S
H541 C557 0.959 . S
H542 C557 0.959 . S
H543 C557 0.961 . S
H544 C558 0.960 . S
H545 C558 0.961 . S
H546 C558 0.959 . S
H547 C561 0.929 . S
H548 C562 0.931 . S
H549 C564 0.930 . S
C550 H538 0.930 . S
C550 C551 1.399 . S
C550 C555 1.399 . S
C551 C550 1.399 . S
C551 C552 1.376 . S
C552 H539 0.930 . S
C552 C551 1.376 . S
C552 C553 1.388 . S
C553 H540 0.930 . S
C553 C552 1.388 . S
C553 C554 1.390 . S
C554 C553 1.390 . S
C554 C555 1.394 . S
C554 C560 1.465 . S
C555 C550 1.399 . S
C555 C554 1.394 . S
C555 C556 1.516 . S
C556 C555 1.516 . S
C556 C557 1.502 . S
C556 C558 1.561 . S
C556 C559 1.526 . S
C557 H541 0.959 . S
C557 H542 0.959 . S
C557 H543 0.961 . S
C557 C556 1.502 . S
C558 H544 0.960 . S
C558 H545 0.961 . S
C558 H546 0.959 . S
C558 C556 1.561 . S
C559 C556 1.526 . S
C559 C560 1.396 . S
C559 C564 1.390 . S
C560 C554 1.465 . S
C560 C559 1.396 . S
C560 C561 1.399 . S
C561 H547 0.929 . S
C561 C560 1.399 . S
C561 C562 1.385 . S
C562 H548 0.931 . S
C562 C561 1.385 . S
C562 C563 1.389 . S
C563 C562 1.389 . S
C563 C564 1.387 . S
C564 H549 0.930 . S
C564 C559 1.390 . S
C564 C563 1.387 . S
H565 C577 0.930 . S
H566 C579 0.930 . S
H567 C580 0.930 . S
H568 C584 0.959 . S
H569 C584 0.959 . S
H570 C584 0.961 . S
H571 C585 0.960 . S
H572 C585 0.961 . S
H573 C585 0.959 . S
H574 C588 0.929 . S
H575 C589 0.931 . S
H576 C591 0.930 . S
C577 H565 0.930 . S
C577 C578 1.399 . S
C577 C582 1.399 . S
C578 C577 1.399 . S
C578 C579 1.376 . S
C579 H566 0.930 . S
C579 C578 1.376 . S
C579 C580 1.388 . S
C580 H567 0.930 . S
C580 C579 1.388 . S
C580 C581 1.390 . S
C581 C580 1.390 . S
C581 C582 1.394 . S
C581 C587 1.465 . S
C582 C577 1.399 . S
C582 C581 1.394 . S
C582 C583 1.516 . S
C583 C582 1.516 . S
C583 C584 1.502 . S
C583 C585 1.561 . S
C583 C586 1.526 . S
C584 H568 0.959 . S
C584 H569 0.959 . S
C584 H570 0.961 . S
C584 C583 1.502 . S
C585 H571 0.960 . S
C585 H572 0.961 . S
C585 H573 0.959 . S
C585 C583 1.561 . S
C586 C583 1.526 . S
C586 C587 1.396 . S
C586 C591 1.390 . S
C587 C581 1.465 . S
C587 C586 1.396 . S
C587 C588 1.399 . S
C588 H574 0.929 . S
C588 C587 1.399 . S
C588 C589 1.385 . S
C589 H575 0.931 . S
C589 C588 1.385 . S
C589 C590 1.389 . S
C590 C589 1.389 . S
C590 C591 1.387 . S
C591 H576 0.930 . S
C591 C586 1.390 . S
C591 C590 1.387 . S
H592 C604 0.930 . S
H593 C606 0.930 . S
H594 C607 0.930 . S
H595 C611 0.959 . S
H596 C611 0.959 . S
H597 C611 0.961 . S
H598 C612 0.960 . S
H599 C612 0.961 . S
H600 C612 0.959 . S
H601 C615 0.929 . S
H602 C616 0.931 . S
H603 C618 0.930 . S
C604 H592 0.930 . S
C604 C605 1.399 . S
C604 C609 1.399 . S
C605 C604 1.399 . S
C605 C606 1.376 . S
C606 H593 0.930 . S
C606 C605 1.376 . S
C606 C607 1.388 . S
C607 H594 0.930 . S
C607 C606 1.388 . S
C607 C608 1.390 . S
C608 C607 1.390 . S
C608 C609 1.394 . S
C608 C614 1.465 . S
C609 C604 1.399 . S
C609 C608 1.394 . S
C609 C610 1.516 . S
C610 C609 1.516 . S
C610 C611 1.502 . S
C610 C612 1.561 . S
C610 C613 1.526 . S
C611 H595 0.959 . S
C611 H596 0.959 . S
C611 H597 0.961 . S
C611 C610 1.502 . S
C612 H598 0.960 . S
C612 H599 0.961 . S
C612 H600 0.959 . S
C612 C610 1.561 . S
C613 C610 1.526 . S
C613 C614 1.396 . S
C613 C618 1.390 . S
C614 C608 1.465 . S
C614 C613 1.396 . S
C614 C615 1.399 . S
C615 H601 0.929 . S
C615 C614 1.399 . S
C615 C616 1.385 . S
C616 H602 0.931 . S
C616 C615 1.385 . S
C616 C617 1.389 . S
C617 C616 1.389 . S
C617 C618 1.387 . S
C618 H603 0.930 . S
C618 C613 1.390 . S
C618 C617 1.387 . S
H619 C631 0.930 . S
H620 C633 0.930 . S
H621 C634 0.930 . S
H622 C638 0.959 . S
H623 C638 0.959 . S
H624 C638 0.961 . S
H625 C639 0.960 . S
H626 C639 0.961 . S
H627 C639 0.959 . S
H628 C642 0.929 . S
H629 C643 0.931 . S
H630 C645 0.930 . S
C631 H619 0.930 . S
C631 C632 1.399 . S
C631 C636 1.399 . S
C632 C631 1.399 . S
C632 C633 1.376 . S
C633 H620 0.930 . S
C633 C632 1.376 . S
C633 C634 1.388 . S
C634 H621 0.930 . S
C634 C633 1.388 . S
C634 C635 1.390 . S
C635 C634 1.390 . S
C635 C636 1.394 . S
C635 C641 1.465 . S
C636 C631 1.399 . S
C636 C635 1.394 . S
C636 C637 1.516 . S
C637 C636 1.516 . S
C637 C638 1.502 . S
C637 C639 1.561 . S
C637 C640 1.526 . S
C638 H622 0.959 . S
C638 H623 0.959 . S
C638 H624 0.961 . S
C638 C637 1.502 . S
C639 H625 0.960 . S
C639 H626 0.961 . S
C639 H627 0.959 . S
C639 C637 1.561 . S
C640 C637 1.526 . S
C640 C641 1.396 . S
C640 C645 1.390 . S
C641 C635 1.465 . S
C641 C640 1.396 . S
C641 C642 1.399 . S
C642 H628 0.929 . S
C642 C641 1.399 . S
C642 C643 1.385 . S
C643 H629 0.931 . S
C643 C642 1.385 . S
C643 C644 1.389 . S
C644 C643 1.389 . S
C644 C645 1.387 . S
C645 H630 0.930 . S
C645 C640 1.390 . S
C645 C644 1.387 . S
H646 C658 0.930 . S
H647 C660 0.930 . S
H648 C661 0.930 . S
H649 C665 0.959 . S
H650 C665 0.959 . S
H651 C665 0.961 . S
H652 C666 0.960 . S
H653 C666 0.961 . S
H654 C666 0.959 . S
H655 C669 0.929 . S
H656 C670 0.931 . S
H657 C672 0.930 . S
C658 H646 0.930 . S
C658 C659 1.399 . S
C658 C663 1.399 . S
C659 C658 1.399 . S
C659 C660 1.376 . S
C660 H647 0.930 . S
C660 C659 1.376 . S
C660 C661 1.388 . S
C661 H648 0.930 . S
C661 C660 1.388 . S
C661 C662 1.390 . S
C662 C661 1.390 . S
C662 C663 1.394 . S
C662 C668 1.465 . S
C663 C658 1.399 . S
C663 C662 1.394 . S
C663 C664 1.516 . S
C664 C663 1.516 . S
C664 C665 1.502 . S
C664 C666 1.561 . S
C664 C667 1.526 . S
C665 H649 0.959 . S
C665 H650 0.959 . S
C665 H651 0.961 . S
C665 C664 1.502 . S
C666 H652 0.960 . S
C666 H653 0.961 . S
C666 H654 0.959 . S
C666 C664 1.561 . S
C667 C664 1.526 . S
C667 C668 1.396 . S
C667 C672 1.390 . S
C668 C662 1.465 . S
C668 C667 1.396 . S
C668 C669 1.399 . S
C669 H655 0.929 . S
C669 C668 1.399 . S
C669 C670 1.385 . S
C670 H656 0.931 . S
C670 C669 1.385 . S
C670 C671 1.389 . S
C671 C670 1.389 . S
C671 C672 1.387 . S
C672 H657 0.930 . S
C672 C667 1.390 . S
C672 C671 1.387 . S
H673 C685 0.930 . S
H674 C687 0.930 . S
H675 C688 0.930 . S
H676 C692 0.959 . S
H677 C692 0.959 . S
H678 C692 0.961 . S
H679 C693 0.960 . S
H680 C693 0.961 . S
H681 C693 0.959 . S
H682 C696 0.929 . S
H683 C697 0.931 . S
H684 C699 0.930 . S
C685 H673 0.930 . S
C685 C686 1.399 . S
C685 C690 1.399 . S
C686 C685 1.399 . S
C686 C687 1.376 . S
C687 H674 0.930 . S
C687 C686 1.376 . S
C687 C688 1.388 . S
C688 H675 0.930 . S
C688 C687 1.388 . S
C688 C689 1.390 . S
C689 C688 1.390 . S
C689 C690 1.394 . S
C689 C695 1.465 . S
C690 C685 1.399 . S
C690 C689 1.394 . S
C690 C691 1.516 . S
C691 C690 1.516 . S
C691 C692 1.502 . S
C691 C693 1.561 . S
C691 C694 1.526 . S
C692 H676 0.959 . S
C692 H677 0.959 . S
C692 H678 0.961 . S
C692 C691 1.502 . S
C693 H679 0.960 . S
C693 H680 0.961 . S
C693 H681 0.959 . S
C693 C691 1.561 . S
C694 C691 1.526 . S
C694 C695 1.396 . S
C694 C699 1.390 . S
C695 C689 1.465 . S
C695 C694 1.396 . S
C695 C696 1.399 . S
C696 H682 0.929 . S
C696 C695 1.399 . S
C696 C697 1.385 . S
C697 H683 0.931 . S
C697 C696 1.385 . S
C697 C698 1.389 . S
C698 C697 1.389 . S
C698 C699 1.387 . S
C699 H684 0.930 . S
C699 C694 1.390 . S
C699 C698 1.387 . S
H700 C712 0.930 . S
H701 C714 0.930 . S
H702 C715 0.930 . S
H703 C719 0.959 . S
H704 C719 0.959 . S
H705 C719 0.961 . S
H706 C720 0.960 . S
H707 C720 0.961 . S
H708 C720 0.959 . S
H709 C723 0.929 . S
H710 C724 0.931 . S
H711 C726 0.930 . S
C712 H700 0.930 . S
C712 C713 1.399 . S
C712 C717 1.399 . S
C713 C712 1.399 . S
C713 C714 1.376 . S
C714 H701 0.930 . S
C714 C713 1.376 . S
C714 C715 1.388 . S
C715 H702 0.930 . S
C715 C714 1.388 . S
C715 C716 1.390 . S
C716 C715 1.390 . S
C716 C717 1.394 . S
C716 C722 1.465 . S
C717 C712 1.399 . S
C717 C716 1.394 . S
C717 C718 1.516 . S
C718 C717 1.516 . S
C718 C719 1.502 . S
C718 C720 1.561 . S
C718 C721 1.526 . S
C719 H703 0.959 . S
C719 H704 0.959 . S
C719 H705 0.961 . S
C719 C718 1.502 . S
C720 H706 0.960 . S
C720 H707 0.961 . S
C720 H708 0.959 . S
C720 C718 1.561 . S
C721 C718 1.526 . S
C721 C722 1.396 . S
C721 C726 1.390 . S
C722 C716 1.465 . S
C722 C721 1.396 . S
C722 C723 1.399 . S
C723 H709 0.929 . S
C723 C722 1.399 . S
C723 C724 1.385 . S
C724 H710 0.931 . S
C724 C723 1.385 . S
C724 C725 1.389 . S
C725 C724 1.389 . S
C725 C726 1.387 . S
C726 H711 0.930 . S
C726 C721 1.390 . S
C726 C725 1.387 . S
H727 C739 0.930 . S
H728 C741 0.930 . S
H729 C742 0.930 . S
H730 C746 0.959 . S
H731 C746 0.959 . S
H732 C746 0.961 . S
H733 C747 0.960 . S
H734 C747 0.961 . S
H735 C747 0.959 . S
H736 C750 0.929 . S
H737 C751 0.931 . S
H738 C753 0.930 . S
C739 H727 0.930 . S
C739 C740 1.399 . S
C739 C744 1.399 . S
C740 C739 1.399 . S
C740 C741 1.376 . S
C741 H728 0.930 . S
C741 C740 1.376 . S
C741 C742 1.388 . S
C742 H729 0.930 . S
C742 C741 1.388 . S
C742 C743 1.390 . S
C743 C742 1.390 . S
C743 C744 1.394 . S
C743 C749 1.465 . S
C744 C739 1.399 . S
C744 C743 1.394 . S
C744 C745 1.516 . S
C745 C744 1.516 . S
C745 C746 1.502 . S
C745 C747 1.561 . S
C745 C748 1.526 . S
C746 H730 0.959 . S
C746 H731 0.959 . S
C746 H732 0.961 . S
C746 C745 1.502 . S
C747 H733 0.960 . S
C747 H734 0.961 . S
C747 H735 0.959 . S
C747 C745 1.561 . S
C748 C745 1.526 . S
C748 C749 1.396 . S
C748 C753 1.390 . S
C749 C743 1.465 . S
C749 C748 1.396 . S
C749 C750 1.399 . S
C750 H736 0.929 . S
C750 C749 1.399 . S
C750 C751 1.385 . S
C751 H737 0.931 . S
C751 C750 1.385 . S
C751 C752 1.389 . S
C752 C751 1.389 . S
C752 C753 1.387 . S
C753 H738 0.930 . S
C753 C748 1.390 . S
C753 C752 1.387 . S
H754 C766 0.930 . S
H755 C768 0.930 . S
H756 C769 0.930 . S
H757 C773 0.959 . S
H758 C773 0.959 . S
H759 C773 0.961 . S
H760 C774 0.960 . S
H761 C774 0.961 . S
H762 C774 0.959 . S
H763 C777 0.929 . S
H764 C778 0.931 . S
H765 C780 0.930 . S
C766 H754 0.930 . S
C766 C767 1.399 . S
C766 C771 1.399 . S
C767 C766 1.399 . S
C767 C768 1.376 . S
C768 H755 0.930 . S
C768 C767 1.376 . S
C768 C769 1.388 . S
C769 H756 0.930 . S
C769 C768 1.388 . S
C769 C770 1.390 . S
C770 C769 1.390 . S
C770 C771 1.394 . S
C770 C776 1.465 . S
C771 C766 1.399 . S
C771 C770 1.394 . S
C771 C772 1.516 . S
C772 C771 1.516 . S
C772 C773 1.502 . S
C772 C774 1.561 . S
C772 C775 1.526 . S
C773 H757 0.959 . S
C773 H758 0.959 . S
C773 H759 0.961 . S
C773 C772 1.502 . S
C774 H760 0.960 . S
C774 H761 0.961 . S
C774 H762 0.959 . S
C774 C772 1.561 . S
C775 C772 1.526 . S
C775 C776 1.396 . S
C775 C780 1.390 . S
C776 C770 1.465 . S
C776 C775 1.396 . S
C776 C777 1.399 . S
C777 H763 0.929 . S
C777 C776 1.399 . S
C777 C778 1.385 . S
C778 H764 0.931 . S
C778 C777 1.385 . S
C778 C779 1.389 . S
C779 C778 1.389 . S
C779 C780 1.387 . S
C780 H765 0.930 . S
C780 C775 1.390 . S
C780 C779 1.387 . S
H781 C793 0.930 . S
H782 C795 0.930 . S
H783 C796 0.930 . S
H784 C800 0.959 . S
H785 C800 0.959 . S
H786 C800 0.961 . S
H787 C801 0.960 . S
H788 C801 0.961 . S
H789 C801 0.959 . S
H790 C804 0.929 . S
H791 C805 0.931 . S
H792 C807 0.930 . S
C793 H781 0.930 . S
C793 C794 1.399 . S
C793 C798 1.399 . S
C794 C793 1.399 . S
C794 C795 1.376 . S
C795 H782 0.930 . S
C795 C794 1.376 . S
C795 C796 1.388 . S
C796 H783 0.930 . S
C796 C795 1.388 . S
C796 C797 1.390 . S
C797 C796 1.390 . S
C797 C798 1.394 . S
C797 C803 1.465 . S
C798 C793 1.399 . S
C798 C797 1.394 . S
C798 C799 1.516 . S
C799 C798 1.516 . S
C799 C800 1.502 . S
C799 C801 1.561 . S
C799 C802 1.526 . S
C800 H784 0.959 . S
C800 H785 0.959 . S
C800 H786 0.961 . S
C800 C799 1.502 . S
C801 H787 0.960 . S
C801 H788 0.961 . S
C801 H789 0.959 . S
C801 C799 1.561 . S
C802 C799 1.526 . S
C802 C803 1.396 . S
C802 C807 1.390 . S
C803 C797 1.465 . S
C803 C802 1.396 . S
C803 C804 1.399 . S
C804 H790 0.929 . S
C804 C803 1.399 . S
C804 C805 1.385 . S
C805 H791 0.931 . S
C805 C804 1.385 . S
C805 C806 1.389 . S
C806 C805 1.389 . S
C806 C807 1.387 . S
C807 H792 0.930 . S
C807 C802 1.390 . S
C807 C806 1.387 . S
H808 C820 0.930 . S
H809 C822 0.930 . S
H810 C823 0.930 . S
H811 C827 0.959 . S
H812 C827 0.959 . S
H813 C827 0.961 . S
H814 C828 0.960 . S
H815 C828 0.961 . S
H816 C828 0.959 . S
H817 C831 0.929 . S
H818 C832 0.931 . S
H819 C834 0.930 . S
C820 H808 0.930 . S
C820 C821 1.399 . S
C820 C825 1.399 . S
C821 C820 1.399 . S
C821 C822 1.376 . S
C822 H809 0.930 . S
C822 C821 1.376 . S
C822 C823 1.388 . S
C823 H810 0.930 . S
C823 C822 1.388 . S
C823 C824 1.390 . S
C824 C823 1.390 . S
C824 C825 1.394 . S
C824 C830 1.465 . S
C825 C820 1.399 . S
C825 C824 1.394 . S
C825 C826 1.516 . S
C826 C825 1.516 . S
C826 C827 1.502 . S
C826 C828 1.561 . S
C826 C829 1.526 . S
C827 H811 0.959 . S
C827 H812 0.959 . S
C827 H813 0.961 . S
C827 C826 1.502 . S
C828 H814 0.960 . S
C828 H815 0.961 . S
C828 H816 0.959 . S
C828 C826 1.561 . S
C829 C826 1.526 . S
C829 C830 1.396 . S
C829 C834 1.390 . S
C830 C824 1.465 . S
C830 C829 1.396 . S
C830 C831 1.399 . S
C831 H817 0.929 . S
C831 C830 1.399 . S
C831 C832 1.385 . S
C832 H818 0.931 . S
C832 C831 1.385 . S
C832 C833 1.389 . S
C833 C832 1.389 . S
C833 C834 1.387 . S
C834 H819 0.930 . S
C834 C829 1.390 . S
C834 C833 1.387 . S
H835 C847 0.930 . S
H836 C849 0.930 . S
H837 C850 0.930 . S
H838 C854 0.959 . S
H839 C854 0.959 . S
H840 C854 0.961 . S
H841 C855 0.960 . S
H842 C855 0.961 . S
H843 C855 0.959 . S
H844 C858 0.929 . S
H845 C859 0.931 . S
H846 C861 0.930 . S
C847 H835 0.930 . S
C847 C848 1.399 . S
C847 C852 1.399 . S
C848 C847 1.399 . S
C848 C849 1.376 . S
C849 H836 0.930 . S
C849 C848 1.376 . S
C849 C850 1.388 . S
C850 H837 0.930 . S
C850 C849 1.388 . S
C850 C851 1.390 . S
C851 C850 1.390 . S
C851 C852 1.394 . S
C851 C857 1.465 . S
C852 C847 1.399 . S
C852 C851 1.394 . S
C852 C853 1.516 . S
C853 C852 1.516 . S
C853 C854 1.502 . S
C853 C855 1.561 . S
C853 C856 1.526 . S
C854 H838 0.959 . S
C854 H839 0.959 . S
C854 H840 0.961 . S
C854 C853 1.502 . S
C855 H841 0.960 . S
C855 H842 0.961 . S
C855 H843 0.959 . S
C855 C853 1.561 . S
C856 C853 1.526 . S
C856 C857 1.396 . S
C856 C861 1.390 . S
C857 C851 1.465 . S
C857 C856 1.396 . S
C857 C858 1.399 . S
C858 H844 0.929 . S
C858 C857 1.399 . S
C858 C859 1.385 . S
C859 H845 0.931 . S
C859 C858 1.385 . S
C859 C860 1.389 . S
C860 C859 1.389 . S
C860 C861 1.387 . S
C861 H846 0.930 . S
C861 C856 1.390 . S
C861 C860 1.387 . S
H862 C874 0.930 . S
H863 C876 0.930 . S
H864 C877 0.930 . S
H865 C881 0.959 . S
H866 C881 0.959 . S
H867 C881 0.961 . S
H868 C882 0.960 . S
H869 C882 0.961 . S
H870 C882 0.959 . S
H871 C885 0.929 . S
H872 C886 0.931 . S
H873 C888 0.930 . S
C874 H862 0.930 . S
C874 C875 1.399 . S
C874 C879 1.399 . S
C875 C874 1.399 . S
C875 C876 1.376 . S
C876 H863 0.930 . S
C876 C875 1.376 . S
C876 C877 1.388 . S
C877 H864 0.930 . S
C877 C876 1.388 . S
C877 C878 1.390 . S
C878 C877 1.390 . S
C878 C879 1.394 . S
C878 C884 1.465 . S
C879 C874 1.399 . S
C879 C878 1.394 . S
C879 C880 1.516 . S
C880 C879 1.516 . S
C880 C881 1.502 . S
C880 C882 1.561 . S
C880 C883 1.526 . S
C881 H865 0.959 . S
C881 H866 0.959 . S
C881 H867 0.961 . S
C881 C880 1.502 . S
C882 H868 0.960 . S
C882 H869 0.961 . S
C882 H870 0.959 . S
C882 C880 1.561 . S
C883 C880 1.526 . S
C883 C884 1.396 . S
C883 C888 1.390 . S
C884 C878 1.465 . S
C884 C883 1.396 . S
C884 C885 1.399 . S
C885 H871 0.929 . S
C885 C884 1.399 . S
C885 C886 1.385 . S
C886 H872 0.931 . S
C886 C885 1.385 . S
C886 C887 1.389 . S
C887 C886 1.389 . S
C887 C888 1.387 . S
C888 H873 0.930 . S
C888 C883 1.390 . S
C888 C887 1.387 . S
H889 C901 0.930 . S
H890 C903 0.930 . S
H891 C904 0.930 . S
H892 C908 0.959 . S
H893 C908 0.959 . S
H894 C908 0.961 . S
H895 C909 0.960 . S
H896 C909 0.961 . S
H897 C909 0.959 . S
H898 C912 0.929 . S
H899 C913 0.931 . S
H900 C915 0.930 . S
C901 H889 0.930 . S
C901 C902 1.399 . S
C901 C906 1.399 . S
C902 C901 1.399 . S
C902 C903 1.376 . S
C903 H890 0.930 . S
C903 C902 1.376 . S
C903 C904 1.388 . S
C904 H891 0.930 . S
C904 C903 1.388 . S
C904 C905 1.390 . S
C905 C904 1.390 . S
C905 C906 1.394 . S
C905 C911 1.465 . S
C906 C901 1.399 . S
C906 C905 1.394 . S
C906 C907 1.516 . S
C907 C906 1.516 . S
C907 C908 1.502 . S
C907 C909 1.561 . S
C907 C910 1.526 . S
C908 H892 0.959 . S
C908 H893 0.959 . S
C908 H894 0.961 . S
C908 C907 1.502 . S
C909 H895 0.960 . S
C909 H896 0.961 . S
C909 H897 0.959 . S
C909 C907 1.561 . S
C910 C907 1.526 . S
C910 C911 1.396 . S
C910 C915 1.390 . S
C911 C905 1.465 . S
C911 C910 1.396 . S
C911 C912 1.399 . S
C912 H898 0.929 . S
C912 C911 1.399 . S
C912 C913 1.385 . S
C913 H899 0.931 . S
C913 C912 1.385 . S
C913 C914 1.389 . S
C914 C913 1.389 . S
C914 C915 1.387 . S
C915 H900 0.930 . S
C915 C910 1.390 . S
C915 C914 1.387 . S
H916 C928 0.930 . S
H917 C930 0.930 . S
H918 C931 0.930 . S
H919 C935 0.959 . S
H920 C935 0.959 . S
H921 C935 0.961 . S
H922 C936 0.960 . S
H923 C936 0.961 . S
H924 C936 0.959 . S
H925 C939 0.929 . S
H926 C940 0.931 . S
H927 C942 0.930 . S
C928 H916 0.930 . S
C928 C929 1.399 . S
C928 C933 1.399 . S
C929 C928 1.399 . S
C929 C930 1.376 . S
C930 H917 0.930 . S
C930 C929 1.376 . S
C930 C931 1.388 . S
C931 H918 0.930 . S
C931 C930 1.388 . S
C931 C932 1.390 . S
C932 C931 1.390 . S
C932 C933 1.394 . S
C932 C938 1.465 . S
C933 C928 1.399 . S
C933 C932 1.394 . S
C933 C934 1.516 . S
C934 C933 1.516 . S
C934 C935 1.502 . S
C934 C936 1.561 . S
C934 C937 1.526 . S
C935 H919 0.959 . S
C935 H920 0.959 . S
C935 H921 0.961 . S
C935 C934 1.502 . S
C936 H922 0.960 . S
C936 H923 0.961 . S
C936 H924 0.959 . S
C936 C934 1.561 . S
C937 C934 1.526 . S
C937 C938 1.396 . S
C937 C942 1.390 . S
C938 C932 1.465 . S
C938 C937 1.396 . S
C938 C939 1.399 . S
C939 H925 0.929 . S
C939 C938 1.399 . S
C939 C940 1.385 . S
C940 H926 0.931 . S
C940 C939 1.385 . S
C940 C941 1.389 . S
C941 C940 1.389 . S
C941 C942 1.387 . S
C942 H927 0.930 . S
C942 C937 1.390 . S
C942 C941 1.387 . S
H943 C955 0.930 . S
H944 C957 0.930 . S
H945 C958 0.930 . S
H946 C962 0.959 . S
H947 C962 0.959 . S
H948 C962 0.961 . S
H949 C963 0.960 . S
H950 C963 0.961 . S
H951 C963 0.959 . S
H952 C966 0.929 . S
H953 C967 0.931 . S
H954 C969 0.930 . S
C955 H943 0.930 . S
C955 C956 1.399 . S
C955 C960 1.399 . S
C956 C955 1.399 . S
C956 C957 1.376 . S
C957 H944 0.930 . S
C957 C956 1.376 . S
C957 C958 1.388 . S
C958 H945 0.930 . S
C958 C957 1.388 . S
C958 C959 1.390 . S
C959 C958 1.390 . S
C959 C960 1.394 . S
C959 C965 1.465 . S
C960 C955 1.399 . S
C960 C959 1.394 . S
C960 C961 1.516 . S
C961 C960 1.516 . S
C961 C962 1.502 . S
C961 C963 1.561 . S
C961 C964 1.526 . S
C962 H946 0.959 . S
C962 H947 0.959 . S
C962 H948 0.961 . S
C962 C961 1.502 . S
C963 H949 0.960 . S
C963 H950 0.961 . S
C963 H951 0.959 . S
C963 C961 1.561 . S
C964 C961 1.526 . S
C964 C965 1.396 . S
C964 C969 1.390 . S
C965 C959 1.465 . S
C965 C964 1.396 . S
C965 C966 1.399 . S
C966 H952 0.929 . S
C966 C965 1.399 . S
C966 C967 1.385 . S
C967 H953 0.931 . S
C967 C966 1.385 . S
C967 C968 1.389 . S
C968 C967 1.389 . S
C968 C969 1.387 . S
C969 H954 0.930 . S
C969 C964 1.390 . S
C969 C968 1.387 . S
H970 C982 0.930 . S
H971 C984 0.930 . S
H972 C985 0.930 . S
H973 C989 0.959 . S
H974 C989 0.959 . S
H975 C989 0.961 . S
H976 C990 0.960 . S
H977 C990 0.961 . S
H978 C990 0.959 . S
H979 C993 0.929 . S
H980 C994 0.931 . S
H981 C996 0.930 . S
C982 H970 0.930 . S
C982 C983 1.399 . S
C982 C987 1.399 . S
C983 C982 1.399 . S
C983 C984 1.376 . S
C984 H971 0.930 . S
C984 C983 1.376 . S
C984 C985 1.388 . S
C985 H972 0.930 . S
C985 C984 1.388 . S
C985 C986 1.390 . S
C986 C985 1.390 . S
C986 C987 1.394 . S
C986 C992 1.465 . S
C987 C982 1.399 . S
C987 C986 1.394 . S
C987 C988 1.516 . S
C988 C987 1.516 . S
C988 C989 1.502 . S
C988 C990 1.561 . S
C988 C991 1.526 . S
C989 H973 0.959 . S
C989 H974 0.959 . S
C989 H975 0.961 . S
C989 C988 1.502 . S
C990 H976 0.960 . S
C990 H977 0.961 . S
C990 H978 0.959 . S
C990 C988 1.561 . S
C991 C988 1.526 . S
C991 C992 1.396 . S
C991 C996 1.390 . S
C992 C986 1.465 . S
C992 C991 1.396 . S
C992 C993 1.399 . S
C993 H979 0.929 . S
C993 C992 1.399 . S
C993 C994 1.385 . S
C994 H980 0.931 . S
C994 C993 1.385 . S
C994 C995 1.389 . S
C995 C994 1.389 . S
C995 C996 1.387 . S
C996 H981 0.930 . S
C996 C991 1.390 . S
C996 C995 1.387 . S
H997 C1009 0.930 . S
H998 C1011 0.930 . S
H999 C1012 0.930 . S
H1000 C1016 0.959 . S
H1001 C1016 0.959 . S
H1002 C1016 0.961 . S
H1003 C1017 0.960 . S
H1004 C1017 0.961 . S
H1005 C1017 0.959 . S
H1006 C1020 0.929 . S
H1007 C1021 0.931 . S
H1008 C1023 0.930 . S
C1009 H997 0.930 . S
C1009 C1010 1.399 . S
C1009 C1014 1.399 . S
C1010 C1009 1.399 . S
C1010 C1011 1.376 . S
C1011 H998 0.930 . S
C1011 C1010 1.376 . S
C1011 C1012 1.388 . S
C1012 H999 0.930 . S
C1012 C1011 1.388 . S
C1012 C1013 1.390 . S
C1013 C1012 1.390 . S
C1013 C1014 1.394 . S
C1013 C1019 1.465 . S
C1014 C1009 1.399 . S
C1014 C1013 1.394 . S
C1014 C1015 1.516 . S
C1015 C1014 1.516 . S
C1015 C1016 1.502 . S
C1015 C1017 1.561 . S
C1015 C1018 1.526 . S
C1016 H1000 0.959 . S
C1016 H1001 0.959 . S
C1016 H1002 0.961 . S
C1016 C1015 1.502 . S
C1017 H1003 0.960 . S
C1017 H1004 0.961 . S
C1017 H1005 0.959 . S
C1017 C1015 1.561 . S
C1018 C1015 1.526 . S
C1018 C1019 1.396 . S
C1018 C1023 1.390 . S
C1019 C1013 1.465 . S
C1019 C1018 1.396 . S
C1019 C1020 1.399 . S
C1020 H1006 0.929 . S
C1020 C1019 1.399 . S
C1020 C1021 1.385 . S
C1021 H1007 0.931 . S
C1021 C1020 1.385 . S
C1021 C1022 1.389 . S
C1022 C1021 1.389 . S
C1022 C1023 1.387 . S
C1023 H1008 0.930 . S
C1023 C1018 1.390 . S
C1023 C1022 1.387 . S
H1024 C1036 0.930 . S
H1025 C1038 0.930 . S
H1026 C1039 0.930 . S
H1027 C1043 0.959 . S
H1028 C1043 0.959 . S
H1029 C1043 0.961 . S
H1030 C1044 0.960 . S
H1031 C1044 0.961 . S
H1032 C1044 0.959 . S
H1033 C1047 0.929 . S
H1034 C1048 0.931 . S
H1035 C1050 0.930 . S
C1036 H1024 0.930 . S
C1036 C1037 1.399 . S
C1036 C1041 1.399 . S
C1037 C1036 1.399 . S
C1037 C1038 1.376 . S
C1038 H1025 0.930 . S
C1038 C1037 1.376 . S
C1038 C1039 1.388 . S
C1039 H1026 0.930 . S
C1039 C1038 1.388 . S
C1039 C1040 1.390 . S
C1040 C1039 1.390 . S
C1040 C1041 1.394 . S
C1040 C1046 1.465 . S
C1041 C1036 1.399 . S
C1041 C1040 1.394 . S
C1041 C1042 1.516 . S
C1042 C1041 1.516 . S
C1042 C1043 1.502 . S
C1042 C1044 1.561 . S
C1042 C1045 1.526 . S
C1043 H1027 0.959 . S
C1043 H1028 0.959 . S
C1043 H1029 0.961 . S
C1043 C1042 1.502 . S
C1044 H1030 0.960 . S
C1044 H1031 0.961 . S
C1044 H1032 0.959 . S
C1044 C1042 1.561 . S
C1045 C1042 1.526 . S
C1045 C1046 1.396 . S
C1045 C1050 1.390 . S
C1046 C1040 1.465 . S
C1046 C1045 1.396 . S
C1046 C1047 1.399 . S
C1047 H1033 0.929 . S
C1047 C1046 1.399 . S
C1047 C1048 1.385 . S
C1048 H1034 0.931 . S
C1048 C1047 1.385 . S
C1048 C1049 1.389 . S
C1049 C1048 1.389 . S
C1049 C1050 1.387 . S
C1050 H1035 0.930 . S
C1050 C1045 1.390 . S
C1050 C1049 1.387 . S
H1051 C1063 0.930 . S
H1052 C1065 0.930 . S
H1053 C1066 0.930 . S
H1054 C1070 0.959 . S
H1055 C1070 0.959 . S
H1056 C1070 0.961 . S
H1057 C1071 0.960 . S
H1058 C1071 0.961 . S
H1059 C1071 0.959 . S
H1060 C1074 0.929 . S
H1061 C1075 0.931 . S
H1062 C1077 0.930 . S
C1063 H1051 0.930 . S
C1063 C1064 1.399 . S
C1063 C1068 1.399 . S
C1064 C1063 1.399 . S
C1064 C1065 1.376 . S
C1065 H1052 0.930 . S
C1065 C1064 1.376 . S
C1065 C1066 1.388 . S
C1066 H1053 0.930 . S
C1066 C1065 1.388 . S
C1066 C1067 1.390 . S
C1067 C1066 1.390 . S
C1067 C1068 1.394 . S
C1067 C1073 1.465 . S
C1068 C1063 1.399 . S
C1068 C1067 1.394 . S
C1068 C1069 1.516 . S
C1069 C1068 1.516 . S
C1069 C1070 1.502 . S
C1069 C1071 1.561 . S
C1069 C1072 1.526 . S
C1070 H1054 0.959 . S
C1070 H1055 0.959 . S
C1070 H1056 0.961 . S
C1070 C1069 1.502 . S
C1071 H1057 0.960 . S
C1071 H1058 0.961 . S
C1071 H1059 0.959 . S
C1071 C1069 1.561 . S
C1072 C1069 1.526 . S
C1072 C1073 1.396 . S
C1072 C1077 1.390 . S
C1073 C1067 1.465 . S
C1073 C1072 1.396 . S
C1073 C1074 1.399 . S
C1074 H1060 0.929 . S
C1074 C1073 1.399 . S
C1074 C1075 1.385 . S
C1075 H1061 0.931 . S
C1075 C1074 1.385 . S
C1075 C1076 1.389 . S
C1076 C1075 1.389 . S
C1076 C1077 1.387 . S
C1077 H1062 0.930 . S
C1077 C1072 1.390 . S
C1077 C1076 1.387 . S
H1078 C1090 0.930 . S
H1079 C1092 0.930 . S
H1080 C1093 0.930 . S
H1081 C1097 0.959 . S
H1082 C1097 0.959 . S
H1083 C1097 0.961 . S
H1084 C1098 0.960 . S
H1085 C1098 0.961 . S
H1086 C1098 0.959 . S
H1087 C1101 0.929 . S
H1088 C1102 0.931 . S
H1089 C1104 0.930 . S
C1090 H1078 0.930 . S
C1090 C1091 1.399 . S
C1090 C1095 1.399 . S
C1091 C1090 1.399 . S
C1091 C1092 1.376 . S
C1092 H1079 0.930 . S
C1092 C1091 1.376 . S
C1092 C1093 1.388 . S
C1093 H1080 0.930 . S
C1093 C1092 1.388 . S
C1093 C1094 1.390 . S
C1094 C1093 1.390 . S
C1094 C1095 1.394 . S
C1094 C1100 1.465 . S
C1095 C1090 1.399 . S
C1095 C1094 1.394 . S
C1095 C1096 1.516 . S
C1096 C1095 1.516 . S
C1096 C1097 1.502 . S
C1096 C1098 1.561 . S
C1096 C1099 1.526 . S
C1097 H1081 0.959 . S
C1097 H1082 0.959 . S
C1097 H1083 0.961 . S
C1097 C1096 1.502 . S
C1098 H1084 0.960 . S
C1098 H1085 0.961 . S
C1098 H1086 0.959 . S
C1098 C1096 1.561 . S
C1099 C1096 1.526 . S
C1099 C1100 1.396 . S
C1099 C1104 1.390 . S
C1100 C1094 1.465 . S
C1100 C1099 1.396 . S
C1100 C1101 1.399 . S
C1101 H1087 0.929 . S
C1101 C1100 1.399 . S
C1101 C1102 1.385 . S
C1102 H1088 0.931 . S
C1102 C1101 1.385 . S
C1102 C1103 1.389 . S
C1103 C1102 1.389 . S
C1103 C1104 1.387 . S
C1104 H1089 0.930 . S
C1104 C1099 1.390 . S
C1104 C1103 1.387 . S
H1105 C1117 0.930 . S
H1106 C1119 0.930 . S
H1107 C1120 0.930 . S
H1108 C1124 0.959 . S
H1109 C1124 0.959 . S
H1110 C1124 0.961 . S
H1111 C1125 0.960 . S
H1112 C1125 0.961 . S
H1113 C1125 0.959 . S
H1114 C1128 0.929 . S
H1115 C1129 0.931 . S
H1116 C1131 0.930 . S
C1117 H1105 0.930 . S
C1117 C1118 1.399 . S
C1117 C1122 1.399 . S
C1118 C1117 1.399 . S
C1118 C1119 1.376 . S
C1119 H1106 0.930 . S
C1119 C1118 1.376 . S
C1119 C1120 1.388 . S
C1120 H1107 0.930 . S
C1120 C1119 1.388 . S
C1120 C1121 1.390 . S
C1121 C1120 1.390 . S
C1121 C1122 1.394 . S
C1121 C1127 1.465 . S
C1122 C1117 1.399 . S
C1122 C1121 1.394 . S
C1122 C1123 1.516 . S
C1123 C1122 1.516 . S
C1123 C1124 1.502 . S
C1123 C1125 1.561 . S
C1123 C1126 1.526 . S
C1124 H1108 0.959 . S
C1124 H1109 0.959 . S
C1124 H1110 0.961 . S
C1124 C1123 1.502 . S
C1125 H1111 0.960 . S
C1125 H1112 0.961 . S
C1125 H1113 0.959 . S
C1125 C1123 1.561 . S
C1126 C1123 1.526 . S
C1126 C1127 1.396 . S
C1126 C1131 1.390 . S
C1127 C1121 1.465 . S
C1127 C1126 1.396 . S
C1127 C1128 1.399 . S
C1128 H1114 0.929 . S
C1128 C1127 1.399 . S
C1128 C1129 1.385 . S
C1129 H1115 0.931 . S
C1129 C1128 1.385 . S
C1129 C1130 1.389 . S
C1130 C1129 1.389 . S
C1130 C1131 1.387 . S
C1131 H1116 0.930 . S
C1131 C1126 1.390 . S
C1131 C1130 1.387 . S
H1132 C1144 0.930 . S
H1133 C1146 0.930 . S
H1134 C1147 0.930 . S
H1135 C1151 0.959 . S
H1136 C1151 0.959 . S
H1137 C1151 0.961 . S
H1138 C1152 0.960 . S
H1139 C1152 0.961 . S
H1140 C1152 0.959 . S
H1141 C1155 0.929 . S
H1142 C1156 0.931 . S
H1143 C1158 0.930 . S
C1144 H1132 0.930 . S
C1144 C1145 1.399 . S
C1144 C1149 1.399 . S
C1145 C1144 1.399 . S
C1145 C1146 1.376 . S
C1146 H1133 0.930 . S
C1146 C1145 1.376 . S
C1146 C1147 1.388 . S
C1147 H1134 0.930 . S
C1147 C1146 1.388 . S
C1147 C1148 1.390 . S
C1148 C1147 1.390 . S
C1148 C1149 1.394 . S
C1148 C1154 1.465 . S
C1149 C1144 1.399 . S
C1149 C1148 1.394 . S
C1149 C1150 1.516 . S
C1150 C1149 1.516 . S
C1150 C1151 1.502 . S
C1150 C1152 1.561 . S
C1150 C1153 1.526 . S
C1151 H1135 0.959 . S
C1151 H1136 0.959 . S
C1151 H1137 0.961 . S
C1151 C1150 1.502 . S
C1152 H1138 0.960 . S
C1152 H1139 0.961 . S
C1152 H1140 0.959 . S
C1152 C1150 1.561 . S
C1153 C1150 1.526 . S
C1153 C1154 1.396 . S
C1153 C1158 1.390 . S
C1154 C1148 1.465 . S
C1154 C1153 1.396 . S
C1154 C1155 1.399 . S
C1155 H1141 0.929 . S
C1155 C1154 1.399 . S
C1155 C1156 1.385 . S
C1156 H1142 0.931 . S
C1156 C1155 1.385 . S
C1156 C1157 1.389 . S
C1157 C1156 1.389 . S
C1157 C1158 1.387 . S
C1158 H1143 0.930 . S
C1158 C1153 1.390 . S
C1158 C1157 1.387 . S
H1159 C1171 0.930 . S
H1160 C1173 0.930 . S
H1161 C1174 0.930 . S
H1162 C1178 0.959 . S
H1163 C1178 0.959 . S
H1164 C1178 0.961 . S
H1165 C1179 0.960 . S
H1166 C1179 0.961 . S
H1167 C1179 0.959 . S
H1168 C1182 0.929 . S
H1169 C1183 0.931 . S
H1170 C1185 0.930 . S
C1171 H1159 0.930 . S
C1171 C1172 1.399 . S
C1171 C1176 1.399 . S
C1172 C1171 1.399 . S
C1172 C1173 1.376 . S
C1173 H1160 0.930 . S
C1173 C1172 1.376 . S
C1173 C1174 1.388 . S
C1174 H1161 0.930 . S
C1174 C1173 1.388 . S
C1174 C1175 1.390 . S
C1175 C1174 1.390 . S
C1175 C1176 1.394 . S
C1175 C1181 1.465 . S
C1176 C1171 1.399 . S
C1176 C1175 1.394 . S
C1176 C1177 1.516 . S
C1177 C1176 1.516 . S
C1177 C1178 1.502 . S
C1177 C1179 1.561 . S
C1177 C1180 1.526 . S
C1178 H1162 0.959 . S
C1178 H1163 0.959 . S
C1178 H1164 0.961 . S
C1178 C1177 1.502 . S
C1179 H1165 0.960 . S
C1179 H1166 0.961 . S
C1179 H1167 0.959 . S
C1179 C1177 1.561 . S
C1180 C1177 1.526 . S
C1180 C1181 1.396 . S
C1180 C1185 1.390 . S
C1181 C1175 1.465 . S
C1181 C1180 1.396 . S
C1181 C1182 1.399 . S
C1182 H1168 0.929 . S
C1182 C1181 1.399 . S
C1182 C1183 1.385 . S
C1183 H1169 0.931 . S
C1183 C1182 1.385 . S
C1183 C1184 1.389 . S
C1184 C1183 1.389 . S
C1184 C1185 1.387 . S
C1185 H1170 0.930 . S
C1185 C1180 1.390 . S
C1185 C1184 1.387 . S
H1186 C1198 0.930 . S
H1187 C1200 0.930 . S
H1188 C1201 0.930 . S
H1189 C1205 0.959 . S
H1190 C1205 0.959 . S
H1191 C1205 0.961 . S
H1192 C1206 0.960 . S
H1193 C1206 0.961 . S
H1194 C1206 0.959 . S
H1195 C1209 0.929 . S
H1196 C1210 0.931 . S
H1197 C1212 0.930 . S
C1198 H1186 0.930 . S
C1198 C1199 1.399 . S
C1198 C1203 1.399 . S
C1199 C1198 1.399 . S
C1199 C1200 1.376 . S
C1200 H1187 0.930 . S
C1200 C1199 1.376 . S
C1200 C1201 1.388 . S
C1201 H1188 0.930 . S
C1201 C1200 1.388 . S
C1201 C1202 1.390 . S
C1202 C1201 1.390 . S
C1202 C1203 1.394 . S
C1202 C1208 1.465 . S
C1203 C1198 1.399 . S
C1203 C1202 1.394 . S
C1203 C1204 1.516 . S
C1204 C1203 1.516 . S
C1204 C1205 1.502 . S
C1204 C1206 1.561 . S
C1204 C1207 1.526 . S
C1205 H1189 0.959 . S
C1205 H1190 0.959 . S
C1205 H1191 0.961 . S
C1205 C1204 1.502 . S
C1206 H1192 0.960 . S
C1206 H1193 0.961 . S
C1206 H1194 0.959 . S
C1206 C1204 1.561 . S
C1207 C1204 1.526 . S
C1207 C1208 1.396 . S
C1207 C1212 1.390 . S
C1208 C1202 1.465 . S
C1208 C1207 1.396 . S
C1208 C1209 1.399 . S
C1209 H1195 0.929 . S
C1209 C1208 1.399 . S
C1209 C1210 1.385 . S
C1210 H1196 0.931 . S
C1210 C1209 1.385 . S
C1210 C1211 1.389 . S
C1211 C1210 1.389 . S
C1211 C1212 1.387 . S
C1212 H1197 0.930 . S
C1212 C1207 1.390 . S
C1212 C1211 1.387 . S
H1213 C1225 0.930 . S
H1214 C1227 0.930 . S
H1215 C1228 0.930 . S
H1216 C1232 0.959 . S
H1217 C1232 0.959 . S
H1218 C1232 0.961 . S
H1219 C1233 0.960 . S
H1220 C1233 0.961 . S
H1221 C1233 0.959 . S
H1222 C1236 0.929 . S
H1223 C1237 0.931 . S
H1224 C1239 0.930 . S
C1225 H1213 0.930 . S
C1225 C1226 1.399 . S
C1225 C1230 1.399 . S
C1226 C1225 1.399 . S
C1226 C1227 1.376 . S
C1227 H1214 0.930 . S
C1227 C1226 1.376 . S
C1227 C1228 1.388 . S
C1228 H1215 0.930 . S
C1228 C1227 1.388 . S
C1228 C1229 1.390 . S
C1229 C1228 1.390 . S
C1229 C1230 1.394 . S
C1229 C1235 1.465 . S
C1230 C1225 1.399 . S
C1230 C1229 1.394 . S
C1230 C1231 1.516 . S
C1231 C1230 1.516 . S
C1231 C1232 1.502 . S
C1231 C1233 1.561 . S
C1231 C1234 1.526 . S
C1232 H1216 0.959 . S
C1232 H1217 0.959 . S
C1232 H1218 0.961 . S
C1232 C1231 1.502 . S
C1233 H1219 0.960 . S
C1233 H1220 0.961 . S
C1233 H1221 0.959 . S
C1233 C1231 1.561 . S
C1234 C1231 1.526 . S
C1234 C1235 1.396 . S
C1234 C1239 1.390 . S
C1235 C1229 1.465 . S
C1235 C1234 1.396 . S
C1235 C1236 1.399 . S
C1236 H1222 0.929 . S
C1236 C1235 1.399 . S
C1236 C1237 1.385 . S
C1237 H1223 0.931 . S
C1237 C1236 1.385 . S
C1237 C1238 1.389 . S
C1238 C1237 1.389 . S
C1238 C1239 1.387 . S
C1239 H1224 0.930 . S
C1239 C1234 1.390 . S
C1239 C1238 1.387 . S
H1240 C1252 0.930 . S
H1241 C1254 0.930 . S
H1242 C1255 0.930 . S
H1243 C1259 0.959 . S
H1244 C1259 0.959 . S
H1245 C1259 0.961 . S
H1246 C1260 0.960 . S
H1247 C1260 0.961 . S
H1248 C1260 0.959 . S
H1249 C1263 0.929 . S
H1250 C1264 0.931 . S
H1251 C1266 0.930 . S
C1252 H1240 0.930 . S
C1252 C1253 1.399 . S
C1252 C1257 1.399 . S
C1253 C1252 1.399 . S
C1253 C1254 1.376 . S
C1254 H1241 0.930 . S
C1254 C1253 1.376 . S
C1254 C1255 1.388 . S
C1255 H1242 0.930 . S
C1255 C1254 1.388 . S
C1255 C1256 1.390 . S
C1256 C1255 1.390 . S
C1256 C1257 1.394 . S
C1256 C1262 1.465 . S
C1257 C1252 1.399 . S
C1257 C1256 1.394 . S
C1257 C1258 1.516 . S
C1258 C1257 1.516 . S
C1258 C1259 1.502 . S
C1258 C1260 1.561 . S
C1258 C1261 1.526 . S
C1259 H1243 0.959 . S
C1259 H1244 0.959 . S
C1259 H1245 0.961 . S
C1259 C1258 1.502 . S
C1260 H1246 0.960 . S
C1260 H1247 0.961 . S
C1260 H1248 0.959 . S
C1260 C1258 1.561 . S
C1261 C1258 1.526 . S
C1261 C1262 1.396 . S
C1261 C1266 1.390 . S
C1262 C1256 1.465 . S
C1262 C1261 1.396 . S
C1262 C1263 1.399 . S
C1263 H1249 0.929 . S
C1263 C1262 1.399 . S
C1263 C1264 1.385 . S
C1264 H1250 0.931 . S
C1264 C1263 1.385 . S
C1264 C1265 1.389 . S
C1265 C1264 1.389 . S
C1265 C1266 1.387 . S
C1266 H1251 0.930 . S
C1266 C1261 1.390 . S
C1266 C1265 1.387 . S
H1267 C1279 0.930 . S
H1268 C1281 0.930 . S
H1269 C1282 0.930 . S
H1270 C1286 0.959 . S
H1271 C1286 0.959 . S
H1272 C1286 0.961 . S
H1273 C1287 0.960 . S
H1274 C1287 0.961 . S
H1275 C1287 0.959 . S
H1276 C1290 0.929 . S
H1277 C1291 0.931 . S
H1278 C1293 0.930 . S
C1279 H1267 0.930 . S
C1279 C1280 1.399 . S
C1279 C1284 1.399 . S
C1280 C1279 1.399 . S
C1280 C1281 1.376 . S
C1281 H1268 0.930 . S
C1281 C1280 1.376 . S
C1281 C1282 1.388 . S
C1282 H1269 0.930 . S
C1282 C1281 1.388 . S
C1282 C1283 1.390 . S
C1283 C1282 1.390 . S
C1283 C1284 1.394 . S
C1283 C1289 1.465 . S
C1284 C1279 1.399 . S
C1284 C1283 1.394 . S
C1284 C1285 1.516 . S
C1285 C1284 1.516 . S
C1285 C1286 1.502 . S
C1285 C1287 1.561 . S
C1285 C1288 1.526 . S
C1286 H1270 0.959 . S
C1286 H1271 0.959 . S
C1286 H1272 0.961 . S
C1286 C1285 1.502 . S
C1287 H1273 0.960 . S
C1287 H1274 0.961 . S
C1287 H1275 0.959 . S
C1287 C1285 1.561 . S
C1288 C1285 1.526 . S
C1288 C1289 1.396 . S
C1288 C1293 1.390 . S
C1289 C1283 1.465 . S
C1289 C1288 1.396 . S
C1289 C1290 1.399 . S
C1290 H1276 0.929 . S
C1290 C1289 1.399 . S
C1290 C1291 1.385 . S
C1291 H1277 0.931 . S
C1291 C1290 1.385 . S
C1291 C1292 1.389 . S
C1292 C1291 1.389 . S
C1292 C1293 1.387 . S
C1293 H1278 0.930 . S
C1293 C1288 1.390 . S
C1293 C1292 1.387 . S
H1294 C1306 0.930 . S
H1295 C1308 0.930 . S
H1296 C1309 0.930 . S
H1297 C1313 0.959 . S
H1298 C1313 0.959 . S
H1299 C1313 0.961 . S
H1300 C1314 0.960 . S
H1301 C1314 0.961 . S
H1302 C1314 0.959 . S
H1303 C1317 0.929 . S
H1304 C1318 0.931 . S
H1305 C1320 0.930 . S
C1306 H1294 0.930 . S
C1306 C1307 1.399 . S
C1306 C1311 1.399 . S
C1307 C1306 1.399 . S
C1307 C1308 1.376 . S
C1308 H1295 0.930 . S
C1308 C1307 1.376 . S
C1308 C1309 1.388 . S
C1309 H1296 0.930 . S
C1309 C1308 1.388 . S
C1309 C1310 1.390 . S
C1310 C1309 1.390 . S
C1310 C1311 1.394 . S
C1310 C1316 1.465 . S
C1311 C1306 1.399 . S
C1311 C1310 1.394 . S
C1311 C1312 1.516 . S
C1312 C1311 1.516 . S
C1312 C1313 1.502 . S
C1312 C1314 1.561 . S
C1312 C1315 1.526 . S
C1313 H1297 0.959 . S
C1313 H1298 0.959 . S
C1313 H1299 0.961 . S
C1313 C1312 1.502 . S
C1314 H1300 0.960 . S
C1314 H1301 0.961 . S
C1314 H1302 0.959 . S
C1314 C1312 1.561 . S
C1315 C1312 1.526 . S
C1315 C1316 1.396 . S
C1315 C1320 1.390 . S
C1316 C1310 1.465 . S
C1316 C1315 1.396 . S
C1316 C1317 1.399 . S
C1317 H1303 0.929 . S
C1317 C1316 1.399 . S
C1317 C1318 1.385 . S
C1318 H1304 0.931 . S
C1318 C1317 1.385 . S
C1318 C1319 1.389 . S
C1319 C1318 1.389 . S
C1319 C1320 1.387 . S
C1320 H1305 0.930 . S
C1320 C1315 1.390 . S
C1320 C1319 1.387 . S
H1321 C1333 0.930 . S
H1322 C1335 0.930 . S
H1323 C1336 0.930 . S
H1324 C1340 0.959 . S
H1325 C1340 0.959 . S
H1326 C1340 0.961 . S
H1327 C1341 0.960 . S
H1328 C1341 0.961 . S
H1329 C1341 0.959 . S
H1330 C1344 0.929 . S
H1331 C1345 0.931 . S
H1332 C1347 0.930 . S
C1333 H1321 0.930 . S
C1333 C1334 1.399 . S
C1333 C1338 1.399 . S
C1334 C1333 1.399 . S
C1334 C1335 1.376 . S
C1335 H1322 0.930 . S
C1335 C1334 1.376 . S
C1335 C1336 1.388 . S
C1336 H1323 0.930 . S
C1336 C1335 1.388 . S
C1336 C1337 1.390 . S
C1337 C1336 1.390 . S
C1337 C1338 1.394 . S
C1337 C1343 1.465 . S
C1338 C1333 1.399 . S
C1338 C1337 1.394 . S
C1338 C1339 1.516 . S
C1339 C1338 1.516 . S
C1339 C1340 1.502 . S
C1339 C1341 1.561 . S
C1339 C1342 1.526 . S
C1340 H1324 0.959 . S
C1340 H1325 0.959 . S
C1340 H1326 0.961 . S
C1340 C1339 1.502 . S
C1341 H1327 0.960 . S
C1341 H1328 0.961 . S
C1341 H1329 0.959 . S
C1341 C1339 1.561 . S
C1342 C1339 1.526 . S
C1342 C1343 1.396 . S
C1342 C1347 1.390 . S
C1343 C1337 1.465 . S
C1343 C1342 1.396 . S
C1343 C1344 1.399 . S
C1344 H1330 0.929 . S
C1344 C1343 1.399 . S
C1344 C1345 1.385 . S
C1345 H1331 0.931 . S
C1345 C1344 1.385 . S
C1345 C1346 1.389 . S
C1346 C1345 1.389 . S
C1346 C1347 1.387 . S
C1347 H1332 0.930 . S
C1347 C1342 1.390 . S
C1347 C1346 1.387 . S
H1348 C1360 0.930 . S
H1349 C1362 0.930 . S
H1350 C1363 0.930 . S
H1351 C1367 0.959 . S
H1352 C1367 0.959 . S
H1353 C1367 0.961 . S
H1354 C1368 0.960 . S
H1355 C1368 0.961 . S
H1356 C1368 0.959 . S
H1357 C1371 0.929 . S
H1358 C1372 0.931 . S
H1359 C1374 0.930 . S
C1360 H1348 0.930 . S
C1360 C1361 1.399 . S
C1360 C1365 1.399 . S
C1361 C1360 1.399 . S
C1361 C1362 1.376 . S
C1362 H1349 0.930 . S
C1362 C1361 1.376 . S
C1362 C1363 1.388 . S
C1363 H1350 0.930 . S
C1363 C1362 1.388 . S
C1363 C1364 1.390 . S
C1364 C1363 1.390 . S
C1364 C1365 1.394 . S
C1364 C1370 1.465 . S
C1365 C1360 1.399 . S
C1365 C1364 1.394 . S
C1365 C1366 1.516 . S
C1366 C1365 1.516 . S
C1366 C1367 1.502 . S
C1366 C1368 1.561 . S
C1366 C1369 1.526 . S
C1367 H1351 0.959 . S
C1367 H1352 0.959 . S
C1367 H1353 0.961 . S
C1367 C1366 1.502 . S
C1368 H1354 0.960 . S
C1368 H1355 0.961 . S
C1368 H1356 0.959 . S
C1368 C1366 1.561 . S
C1369 C1366 1.526 . S
C1369 C1370 1.396 . S
C1369 C1374 1.390 . S
C1370 C1364 1.465 . S
C1370 C1369 1.396 . S
C1370 C1371 1.399 . S
C1371 H1357 0.929 . S
C1371 C1370 1.399 . S
C1371 C1372 1.385 . S
C1372 H1358 0.931 . S
C1372 C1371 1.385 . S
C1372 C1373 1.389 . S
C1373 C1372 1.389 . S
C1373 C1374 1.387 . S
C1374 H1359 0.930 . S
C1374 C1369 1.390 . S
C1374 C1373 1.387 . S
H1375 C1387 0.930 . S
H1376 C1389 0.930 . S
H1377 C1390 0.930 . S
H1378 C1394 0.959 . S
H1379 C1394 0.959 . S
H1380 C1394 0.961 . S
H1381 C1395 0.960 . S
H1382 C1395 0.961 . S
H1383 C1395 0.959 . S
H1384 C1398 0.929 . S
H1385 C1399 0.931 . S
H1386 C1401 0.930 . S
C1387 H1375 0.930 . S
C1387 C1388 1.399 . S
C1387 C1392 1.399 . S
C1388 C1387 1.399 . S
C1388 C1389 1.376 . S
C1389 H1376 0.930 . S
C1389 C1388 1.376 . S
C1389 C1390 1.388 . S
C1390 H1377 0.930 . S
C1390 C1389 1.388 . S
C1390 C1391 1.390 . S
C1391 C1390 1.390 . S
C1391 C1392 1.394 . S
C1391 C1397 1.465 . S
C1392 C1387 1.399 . S
C1392 C1391 1.394 . S
C1392 C1393 1.516 . S
C1393 C1392 1.516 . S
C1393 C1394 1.502 . S
C1393 C1395 1.561 . S
C1393 C1396 1.526 . S
C1394 H1378 0.959 . S
C1394 H1379 0.959 . S
C1394 H1380 0.961 . S
C1394 C1393 1.502 . S
C1395 H1381 0.960 . S
C1395 H1382 0.961 . S
C1395 H1383 0.959 . S
C1395 C1393 1.561 . S
C1396 C1393 1.526 . S
C1396 C1397 1.396 . S
C1396 C1401 1.390 . S
C1397 C1391 1.465 . S
C1397 C1396 1.396 . S
C1397 C1398 1.399 . S
C1398 H1384 0.929 . S
C1398 C1397 1.399 . S
C1398 C1399 1.385 . S
C1399 H1385 0.931 . S
C1399 C1398 1.385 . S
C1399 C1400 1.389 . S
C1400 C1399 1.389 . S
C1400 C1401 1.387 . S
C1401 H1386 0.930 . S
C1401 C1396 1.390 . S
C1401 C1400 1.387 . S
H1402 C1414 0.930 . S
H1403 C1416 0.930 . S
H1404 C1417 0.930 . S
H1405 C1421 0.959 . S
H1406 C1421 0.959 . S
H1407 C1421 0.961 . S
H1408 C1422 0.960 . S
H1409 C1422 0.961 . S
H1410 C1422 0.959 . S
H1411 C1425 0.929 . S
H1412 C1426 0.931 . S
H1413 C1428 0.930 . S
C1414 H1402 0.930 . S
C1414 C1415 1.399 . S
C1414 C1419 1.399 . S
C1415 C1414 1.399 . S
C1415 C1416 1.376 . S
C1416 H1403 0.930 . S
C1416 C1415 1.376 . S
C1416 C1417 1.388 . S
C1417 H1404 0.930 . S
C1417 C1416 1.388 . S
C1417 C1418 1.390 . S
C1418 C1417 1.390 . S
C1418 C1419 1.394 . S
C1418 C1424 1.465 . S
C1419 C1414 1.399 . S
C1419 C1418 1.394 . S
C1419 C1420 1.516 . S
C1420 C1419 1.516 . S
C1420 C1421 1.502 . S
C1420 C1422 1.561 . S
C1420 C1423 1.526 . S
C1421 H1405 0.959 . S
C1421 H1406 0.959 . S
C1421 H1407 0.961 . S
C1421 C1420 1.502 . S
C1422 H1408 0.960 . S
C1422 H1409 0.961 . S
C1422 H1410 0.959 . S
C1422 C1420 1.561 . S
C1423 C1420 1.526 . S
C1423 C1424 1.396 . S
C1423 C1428 1.390 . S
C1424 C1418 1.465 . S
C1424 C1423 1.396 . S
C1424 C1425 1.399 . S
C1425 H1411 0.929 . S
C1425 C1424 1.399 . S
C1425 C1426 1.385 . S
C1426 H1412 0.931 . S
C1426 C1425 1.385 . S
C1426 C1427 1.389 . S
C1427 C1426 1.389 . S
C1427 C1428 1.387 . S
C1428 H1413 0.930 . S
C1428 C1423 1.390 . S
C1428 C1427 1.387 . S
H1429 C1441 0.930 . S
H1430 C1443 0.930 . S
H1431 C1444 0.930 . S
H1432 C1448 0.959 . S
H1433 C1448 0.959 . S
H1434 C1448 0.961 . S
H1435 C1449 0.960 . S
H1436 C1449 0.961 . S
H1437 C1449 0.959 . S
H1438 C1452 0.929 . S
H1439 C1453 0.931 . S
H1440 C1455 0.930 . S
C1441 H1429 0.930 . S
C1441 C1442 1.399 . S
C1441 C1446 1.399 . S
C1442 C1441 1.399 . S
C1442 C1443 1.376 . S
C1443 H1430 0.930 . S
C1443 C1442 1.376 . S
C1443 C1444 1.388 . S
C1444 H1431 0.930 . S
C1444 C1443 1.388 . S
C1444 C1445 1.390 . S
C1445 C1444 1.390 . S
C1445 C1446 1.394 . S
C1445 C1451 1.465 . S
C1446 C1441 1.399 . S
C1446 C1445 1.394 . S
C1446 C1447 1.516 . S
C1447 C1446 1.516 . S
C1447 C1448 1.502 . S
C1447 C1449 1.561 . S
C1447 C1450 1.526 . S
C1448 H1432 0.959 . S
C1448 H1433 0.959 . S
C1448 H1434 0.961 . S
C1448 C1447 1.502 . S
C1449 H1435 0.960 . S
C1449 H1436 0.961 . S
C1449 H1437 0.959 . S
C1449 C1447 1.561 . S
C1450 C1447 1.526 . S
C1450 C1451 1.396 . S
C1450 C1455 1.390 . S
C1451 C1445 1.465 . S
C1451 C1450 1.396 . S
C1451 C1452 1.399 . S
C1452 H1438 0.929 . S
C1452 C1451 1.399 . S
C1452 C1453 1.385 . S
C1453 H1439 0.931 . S
C1453 C1452 1.385 . S
C1453 C1454 1.389 . S
C1454 C1453 1.389 . S
C1454 C1455 1.387 . S
C1455 H1440 0.930 . S
C1455 C1450 1.390 . S
C1455 C1454 1.387 . S
H1456 C1468 0.930 . S
H1457 C1470 0.930 . S
H1458 C1471 0.930 . S
H1459 C1475 0.959 . S
H1460 C1475 0.959 . S
H1461 C1475 0.961 . S
H1462 C1476 0.960 . S
H1463 C1476 0.961 . S
H1464 C1476 0.959 . S
H1465 C1479 0.929 . S
H1466 C1480 0.931 . S
H1467 C1482 0.930 . S
C1468 H1456 0.930 . S
C1468 C1469 1.399 . S
C1468 C1473 1.399 . S
C1469 C1468 1.399 . S
C1469 C1470 1.376 . S
C1470 H1457 0.930 . S
C1470 C1469 1.376 . S
C1470 C1471 1.388 . S
C1471 H1458 0.930 . S
C1471 C1470 1.388 . S
C1471 C1472 1.390 . S
C1472 C1471 1.390 . S
C1472 C1473 1.394 . S
C1472 C1478 1.465 . S
C1473 C1468 1.399 . S
C1473 C1472 1.394 . S
C1473 C1474 1.516 . S
C1474 C1473 1.516 . S
C1474 C1475 1.502 . S
C1474 C1476 1.561 . S
C1474 C1477 1.526 . S
C1475 H1459 0.959 . S
C1475 H1460 0.959 . S
C1475 H1461 0.961 . S
C1475 C1474 1.502 . S
C1476 H1462 0.960 . S
C1476 H1463 0.961 . S
C1476 H1464 0.959 . S
C1476 C1474 1.561 . S
C1477 C1474 1.526 . S
C1477 C1478 1.396 . S
C1477 C1482 1.390 . S
C1478 C1472 1.465 . S
C1478 C1477 1.396 . S
C1478 C1479 1.399 . S
C1479 H1465 0.929 . S
C1479 C1478 1.399 . S
C1479 C1480 1.385 . S
C1480 H1466 0.931 . S
C1480 C1479 1.385 . S
C1480 C1481 1.389 . S
C1481 C1480 1.389 . S
C1481 C1482 1.387 . S
C1482 H1467 0.930 . S
C1482 C1477 1.390 . S
C1482 C1481 1.387 . S
H1483 C1495 0.930 . S
H1484 C1497 0.930 . S
H1485 C1498 0.930 . S
H1486 C1502 0.959 . S
H1487 C1502 0.959 . S
H1488 C1502 0.961 . S
H1489 C1503 0.960 . S
H1490 C1503 0.961 . S
H1491 C1503 0.959 . S
H1492 C1506 0.929 . S
H1493 C1507 0.931 . S
H1494 C1509 0.930 . S
C1495 H1483 0.930 . S
C1495 C1496 1.399 . S
C1495 C1500 1.399 . S
C1496 C1495 1.399 . S
C1496 C1497 1.376 . S
C1497 H1484 0.930 . S
C1497 C1496 1.376 . S
C1497 C1498 1.388 . S
C1498 H1485 0.930 . S
C1498 C1497 1.388 . S
C1498 C1499 1.390 . S
C1499 C1498 1.390 . S
C1499 C1500 1.394 . S
C1499 C1505 1.465 . S
C1500 C1495 1.399 . S
C1500 C1499 1.394 . S
C1500 C1501 1.516 . S
C1501 C1500 1.516 . S
C1501 C1502 1.502 . S
C1501 C1503 1.561 . S
C1501 C1504 1.526 . S
C1502 H1486 0.959 . S
C1502 H1487 0.959 . S
C1502 H1488 0.961 . S
C1502 C1501 1.502 . S
C1503 H1489 0.960 . S
C1503 H1490 0.961 . S
C1503 H1491 0.959 . S
C1503 C1501 1.561 . S
C1504 C1501 1.526 . S
C1504 C1505 1.396 . S
C1504 C1509 1.390 . S
C1505 C1499 1.465 . S
C1505 C1504 1.396 . S
C1505 C1506 1.399 . S
C1506 H1492 0.929 . S
C1506 C1505 1.399 . S
C1506 C1507 1.385 . S
C1507 H1493 0.931 . S
C1507 C1506 1.385 . S
C1507 C1508 1.389 . S
C1508 C1507 1.389 . S
C1508 C1509 1.387 . S
C1509 H1494 0.930 . S
C1509 C1504 1.390 . S
C1509 C1508 1.387 . S
H1510 C1522 0.930 . S
H1511 C1524 0.930 . S
H1512 C1525 0.930 . S
H1513 C1529 0.959 . S
H1514 C1529 0.959 . S
H1515 C1529 0.961 . S
H1516 C1530 0.960 . S
H1517 C1530 0.961 . S
H1518 C1530 0.959 . S
H1519 C1533 0.929 . S
H1520 C1534 0.931 . S
H1521 C1536 0.930 . S
C1522 H1510 0.930 . S
C1522 C1523 1.399 . S
C1522 C1527 1.399 . S
C1523 C1522 1.399 . S
C1523 C1524 1.376 . S
C1524 H1511 0.930 . S
C1524 C1523 1.376 . S
C1524 C1525 1.388 . S
C1525 H1512 0.930 . S
C1525 C1524 1.388 . S
C1525 C1526 1.390 . S
C1526 C1525 1.390 . S
C1526 C1527 1.394 . S
C1526 C1532 1.465 . S
C1527 C1522 1.399 . S
C1527 C1526 1.394 . S
C1527 C1528 1.516 . S
C1528 C1527 1.516 . S
C1528 C1529 1.502 . S
C1528 C1530 1.561 . S
C1528 C1531 1.526 . S
C1529 H1513 0.959 . S
C1529 H1514 0.959 . S
C1529 H1515 0.961 . S
C1529 C1528 1.502 . S
C1530 H1516 0.960 . S
C1530 H1517 0.961 . S
C1530 H1518 0.959 . S
C1530 C1528 1.561 . S
C1531 C1528 1.526 . S
C1531 C1532 1.396 . S
C1531 C1536 1.390 . S
C1532 C1526 1.465 . S
C1532 C1531 1.396 . S
C1532 C1533 1.399 . S
C1533 H1519 0.929 . S
C1533 C1532 1.399 . S
C1533 C1534 1.385 . S
C1534 H1520 0.931 . S
C1534 C1533 1.385 . S
C1534 C1535 1.389 . S
C1535 C1534 1.389 . S
C1535 C1536 1.387 . S
C1536 H1521 0.930 . S
C1536 C1531 1.390 . S
C1536 C1535 1.387 . S
H1537 C1549 0.930 . S
H1538 C1551 0.930 . S
H1539 C1552 0.930 . S
H1540 C1556 0.959 . S
H1541 C1556 0.959 . S
H1542 C1556 0.961 . S
H1543 C1557 0.960 . S
H1544 C1557 0.961 . S
H1545 C1557 0.959 . S
H1546 C1560 0.929 . S
H1547 C1561 0.931 . S
H1548 C1563 0.930 . S
C1549 H1537 0.930 . S
C1549 C1550 1.399 . S
C1549 C1554 1.399 . S
C1550 C1549 1.399 . S
C1550 C1551 1.376 . S
C1551 H1538 0.930 . S
C1551 C1550 1.376 . S
C1551 C1552 1.388 . S
C1552 H1539 0.930 . S
C1552 C1551 1.388 . S
C1552 C1553 1.390 . S
C1553 C1552 1.390 . S
C1553 C1554 1.394 . S
C1553 C1559 1.465 . S
C1554 C1549 1.399 . S
C1554 C1553 1.394 . S
C1554 C1555 1.516 . S
C1555 C1554 1.516 . S
C1555 C1556 1.502 . S
C1555 C1557 1.561 . S
C1555 C1558 1.526 . S
C1556 H1540 0.959 . S
C1556 H1541 0.959 . S
C1556 H1542 0.961 . S
C1556 C1555 1.502 . S
C1557 H1543 0.960 . S
C1557 H1544 0.961 . S
C1557 H1545 0.959 . S
C1557 C1555 1.561 . S
C1558 C1555 1.526 . S
C1558 C1559 1.396 . S
C1558 C1563 1.390 . S
C1559 C1553 1.465 . S
C1559 C1558 1.396 . S
C1559 C1560 1.399 . S
C1560 H1546 0.929 . S
C1560 C1559 1.399 . S
C1560 C1561 1.385 . S
C1561 H1547 0.931 . S
C1561 C1560 1.385 . S
C1561 C1562 1.389 . S
C1562 C1561 1.389 . S
C1562 C1563 1.387 . S
C1563 H1548 0.930 . S
C1563 C1558 1.390 . S
C1563 C1562 1.387 . S
H1564 C1576 0.930 . S
H1565 C1578 0.930 . S
H1566 C1579 0.930 . S
H1567 C1583 0.959 . S
H1568 C1583 0.959 . S
H1569 C1583 0.961 . S
H1570 C1584 0.960 . S
H1571 C1584 0.961 . S
H1572 C1584 0.959 . S
H1573 C1587 0.929 . S
H1574 C1588 0.931 . S
H1575 C1590 0.930 . S
C1576 H1564 0.930 . S
C1576 C1577 1.399 . S
C1576 C1581 1.399 . S
C1577 C1576 1.399 . S
C1577 C1578 1.376 . S
C1578 H1565 0.930 . S
C1578 C1577 1.376 . S
C1578 C1579 1.388 . S
C1579 H1566 0.930 . S
C1579 C1578 1.388 . S
C1579 C1580 1.390 . S
C1580 C1579 1.390 . S
C1580 C1581 1.394 . S
C1580 C1586 1.465 . S
C1581 C1576 1.399 . S
C1581 C1580 1.394 . S
C1581 C1582 1.516 . S
C1582 C1581 1.516 . S
C1582 C1583 1.502 . S
C1582 C1584 1.561 . S
C1582 C1585 1.526 . S
C1583 H1567 0.959 . S
C1583 H1568 0.959 . S
C1583 H1569 0.961 . S
C1583 C1582 1.502 . S
C1584 H1570 0.960 . S
C1584 H1571 0.961 . S
C1584 H1572 0.959 . S
C1584 C1582 1.561 . S
C1585 C1582 1.526 . S
C1585 C1586 1.396 . S
C1585 C1590 1.390 . S
C1586 C1580 1.465 . S
C1586 C1585 1.396 . S
C1586 C1587 1.399 . S
C1587 H1573 0.929 . S
C1587 C1586 1.399 . S
C1587 C1588 1.385 . S
C1588 H1574 0.931 . S
C1588 C1587 1.385 . S
C1588 C1589 1.389 . S
C1589 C1588 1.389 . S
C1589 C1590 1.387 . S
C1590 H1575 0.930 . S
C1590 C1585 1.390 . S
C1590 C1589 1.387 . S
H1591 C1603 0.930 . S
H1592 C1605 0.930 . S
H1593 C1606 0.930 . S
H1594 C1610 0.959 . S
H1595 C1610 0.959 . S
H1596 C1610 0.961 . S
H1597 C1611 0.960 . S
H1598 C1611 0.961 . S
H1599 C1611 0.959 . S
H1600 C1614 0.929 . S
H1601 C1615 0.931 . S
H1602 C1617 0.930 . S
C1603 H1591 0.930 . S
C1603 C1604 1.399 . S
C1603 C1608 1.399 . S
C1604 C1603 1.399 . S
C1604 C1605 1.376 . S
C1605 H1592 0.930 . S
C1605 C1604 1.376 . S
C1605 C1606 1.388 . S
C1606 H1593 0.930 . S
C1606 C1605 1.388 . S
C1606 C1607 1.390 . S
C1607 C1606 1.390 . S
C1607 C1608 1.394 . S
C1607 C1613 1.465 . S
C1608 C1603 1.399 . S
C1608 C1607 1.394 . S
C1608 C1609 1.516 . S
C1609 C1608 1.516 . S
C1609 C1610 1.502 . S
C1609 C1611 1.561 . S
C1609 C1612 1.526 . S
C1610 H1594 0.959 . S
C1610 H1595 0.959 . S
C1610 H1596 0.961 . S
C1610 C1609 1.502 . S
C1611 H1597 0.960 . S
C1611 H1598 0.961 . S
C1611 H1599 0.959 . S
C1611 C1609 1.561 . S
C1612 C1609 1.526 . S
C1612 C1613 1.396 . S
C1612 C1617 1.390 . S
C1613 C1607 1.465 . S
C1613 C1612 1.396 . S
C1613 C1614 1.399 . S
C1614 H1600 0.929 . S
C1614 C1613 1.399 . S
C1614 C1615 1.385 . S
C1615 H1601 0.931 . S
C1615 C1614 1.385 . S
C1615 C1616 1.389 . S
C1616 C1615 1.389 . S
C1616 C1617 1.387 . S
C1617 H1602 0.930 . S
C1617 C1612 1.390 . S
C1617 C1616 1.387 . S
H1618 C1630 0.930 . S
H1619 C1632 0.930 . S
H1620 C1633 0.930 . S
H1621 C1637 0.959 . S
H1622 C1637 0.959 . S
H1623 C1637 0.961 . S
H1624 C1638 0.960 . S
H1625 C1638 0.961 . S
H1626 C1638 0.959 . S
H1627 C1641 0.929 . S
H1628 C1642 0.931 . S
H1629 C1644 0.930 . S
C1630 H1618 0.930 . S
C1630 C1631 1.399 . S
C1630 C1635 1.399 . S
C1631 C1630 1.399 . S
C1631 C1632 1.376 . S
C1632 H1619 0.930 . S
C1632 C1631 1.376 . S
C1632 C1633 1.388 . S
C1633 H1620 0.930 . S
C1633 C1632 1.388 . S
C1633 C1634 1.390 . S
C1634 C1633 1.390 . S
C1634 C1635 1.394 . S
C1634 C1640 1.465 . S
C1635 C1630 1.399 . S
C1635 C1634 1.394 . S
C1635 C1636 1.516 . S
C1636 C1635 1.516 . S
C1636 C1637 1.502 . S
C1636 C1638 1.561 . S
C1636 C1639 1.526 . S
C1637 H1621 0.959 . S
C1637 H1622 0.959 . S
C1637 H1623 0.961 . S
C1637 C1636 1.502 . S
C1638 H1624 0.960 . S
C1638 H1625 0.961 . S
C1638 H1626 0.959 . S
C1638 C1636 1.561 . S
C1639 C1636 1.526 . S
C1639 C1640 1.396 . S
C1639 C1644 1.390 . S
C1640 C1634 1.465 . S
C1640 C1639 1.396 . S
C1640 C1641 1.399 . S
C1641 H1627 0.929 . S
C1641 C1640 1.399 . S
C1641 C1642 1.385 . S
C1642 H1628 0.931 . S
C1642 C1641 1.385 . S
C1642 C1643 1.389 . S
C1643 C1642 1.389 . S
C1643 C1644 1.387 . S
C1644 H1629 0.930 . S
C1644 C1639 1.390 . S
C1644 C1643 1.387 . S
H1645 C1657 0.930 . S
H1646 C1659 0.930 . S
H1647 C1660 0.930 . S
H1648 C1664 0.959 . S
H1649 C1664 0.959 . S
H1650 C1664 0.961 . S
H1651 C1665 0.960 . S
H1652 C1665 0.961 . S
H1653 C1665 0.959 . S
H1654 C1668 0.929 . S
H1655 C1669 0.931 . S
H1656 C1671 0.930 . S
C1657 H1645 0.930 . S
C1657 C1658 1.399 . S
C1657 C1662 1.399 . S
C1658 C1657 1.399 . S
C1658 C1659 1.376 . S
C1659 H1646 0.930 . S
C1659 C1658 1.376 . S
C1659 C1660 1.388 . S
C1660 H1647 0.930 . S
C1660 C1659 1.388 . S
C1660 C1661 1.390 . S
C1661 C1660 1.390 . S
C1661 C1662 1.394 . S
C1661 C1667 1.465 . S
C1662 C1657 1.399 . S
C1662 C1661 1.394 . S
C1662 C1663 1.516 . S
C1663 C1662 1.516 . S
C1663 C1664 1.502 . S
C1663 C1665 1.561 . S
C1663 C1666 1.526 . S
C1664 H1648 0.959 . S
C1664 H1649 0.959 . S
C1664 H1650 0.961 . S
C1664 C1663 1.502 . S
C1665 H1651 0.960 . S
C1665 H1652 0.961 . S
C1665 H1653 0.959 . S
C1665 C1663 1.561 . S
C1666 C1663 1.526 . S
C1666 C1667 1.396 . S
C1666 C1671 1.390 . S
C1667 C1661 1.465 . S
C1667 C1666 1.396 . S
C1667 C1668 1.399 . S
C1668 H1654 0.929 . S
C1668 C1667 1.399 . S
C1668 C1669 1.385 . S
C1669 H1655 0.931 . S
C1669 C1668 1.385 . S
C1669 C1670 1.389 . S
C1670 C1669 1.389 . S
C1670 C1671 1.387 . S
C1671 H1656 0.930 . S
C1671 C1666 1.390 . S
C1671 C1670 1.387 . S
C401 C201 1.284 . S
C389 C17 1.287 . S
C428 C206 1.495 . S
C416 C44 1.434 . S
C455 C207 1.318 . S
C443 C63 1.321 . S
C470 C87 1.286 . S
C482 C211 1.274 . S
C497 C110 1.246 . S
C509 C214 1.262 . S
C536 C215 1.335 . S
C524 C131 1.316 . S
C551 C159 1.421 . S
C563 C192 1.491 . S
C578 C177 1.289 . S
C590 C208 1.307 . S
C617 C246 1.322 . S
C605 C20 1.268 . S
C632 C42 1.302 . S
C644 C272 1.313 . S
C671 C224 1.420 . S
C659 C66 1.235 . S
C698 C279 1.232 . S
C686 C86 1.228 . S
C713 C109 1.247 . S
C725 C233 1.161 . S
C752 C275 1.373 . S
C740 C136 1.287 . S
C767 C157 1.317 . S
C779 C239 1.349 . S
C794 C182 1.351 . S
C806 C270 1.357 . S
C821 C18 1.287 . S
C833 C278 1.234 . S
C848 C112 1.244 . S
C860 C265 1.228 . S
C887 C243 1.266 . S
C875 C134 1.228 . S
C914 C271 1.255 . S
C902 C154 1.359 . S
C929 C180 1.254 . S
C941 C238 1.256 . S
C956 C64 1.288 . S
C968 C256 1.196 . S
C995 C247 1.354 . S
C983 C89 1.214 . S
C1010 C39 1.347 . S
C1022 C240 1.308 . S
C1037 C178 1.275 . S
C1049 C302 1.185 . S
C1064 C113 1.336 . S
C1076 C297 1.429 . S
C1103 C311 1.273 . S
C1091 C132 1.250 . S
C1130 C288 1.195 . S
C1118 C156 1.273 . S
C1145 C41 1.252 . S
C1157 C304 1.242 . S
C1184 C303 1.213 . S
C1172 C62 1.294 . S
C1199 C90 1.387 . S
C1211 C307 1.372 . S
C1226 C16 1.277 . S
C1238 C310 1.272 . S
C1253 C181 1.321 . S
C1265 C336 1.403 . S
C1292 C352 1.299 . S
C1280 C111 1.397 . S
C1307 C135 1.252 . S
C1319 C334 1.418 . S
C1334 C155 1.282 . S
C1346 C367 1.173 . S
C1373 C343 1.221 . S
C1361 C40 1.216 . S
C1388 C67 1.337 . S
C1400 C361 1.372 . S
C1427 C339 1.355 . S
C1415 C88 1.307 . S
C1454 C374 1.371 . S
C1442 C21 1.347 . S
C1481 C366 1.296 . S
C1469 C179 1.329 . S
C1496 C43 1.312 . S
C1508 C371 1.319 . S
C1523 C65 1.292 . S
C1535 C342 1.264 . S
C1562 C375 1.377 . S
C1550 C85 1.352 . S
C1577 C19 1.298 . S
C1589 C329 1.305 . S
C1604 C133 1.323 . S
C1616 C368 1.309 . S
C1643 C320 1.378 . S
C1631 C158 1.288 . S
C1670 C335 1.354 . S
C1658 C108 1.343 . S
