# Generated by pormake.
# Topology soc, (4,6)-cn, num edge types: 1
# Building blocks:
#     Node 0, Type 0, BuildingBlock: ESEHIV_clean_sbu_0, # of connection points: 4
#     Node 1, Type 0, BuildingBlock: ESEHIV_clean_sbu_0, # of connection points: 4
#     Node 2, Type 0, BuildingBlock: ESEHIV_clean_sbu_0, # of connection points: 4
#     Node 3, Type 0, BuildingBlock: ESEHIV_clean_sbu_0, # of connection points: 4
#     Node 4, Type 0, BuildingBlock: ESEHIV_clean_sbu_0, # of connection points: 4
#     Node 5, Type 0, BuildingBlock: ESEHIV_clean_sbu_0, # of connection points: 4
#     Node 6, Type 0, BuildingBlock: ESEHIV_clean_sbu_0, # of connection points: 4
#     Node 7, Type 0, BuildingBlock: ESEHIV_clean_sbu_0, # of connection points: 4
#     Node 8, Type 0, BuildingBlock: ESEHIV_clean_sbu_0, # of connection points: 4
#     Node 9, Type 0, BuildingBlock: ESEHIV_clean_sbu_0, # of connection points: 4
#     Node 10, Type 0, BuildingBlock: ESEHIV_clean_sbu_0, # of connection points: 4
#     Node 11, Type 0, BuildingBlock: ESEHIV_clean_sbu_0, # of connection points: 4
#     Node 12, Type 1, BuildingBlock: BETFEN_clean_sbu_0, # of connection points: 6
#     Node 13, Type 1, BuildingBlock: BETFEN_clean_sbu_0, # of connection points: 6
#     Node 14, Type 1, BuildingBlock: BETFEN_clean_sbu_0, # of connection points: 6
#     Node 15, Type 1, BuildingBlock: BETFEN_clean_sbu_0, # of connection points: 6
#     Node 16, Type 1, BuildingBlock: BETFEN_clean_sbu_0, # of connection points: 6
#     Node 17, Type 1, BuildingBlock: BETFEN_clean_sbu_0, # of connection points: 6
#     Node 18, Type 1, BuildingBlock: BETFEN_clean_sbu_0, # of connection points: 6
#     Node 19, Type 1, BuildingBlock: BETFEN_clean_sbu_0, # of connection points: 6
#     Edge 20, Type (0, 1), BuildingBlock: MIFKUJ_clean_linker_0, # of connection points: 2
#     Edge 21, Type (0, 1), BuildingBlock: MIFKUJ_clean_linker_0, # of connection points: 2
#     Edge 22, Type (0, 1), BuildingBlock: MIFKUJ_clean_linker_0, # of connection points: 2
#     Edge 23, Type (0, 1), BuildingBlock: MIFKUJ_clean_linker_0, # of connection points: 2
#     Edge 24, Type (0, 1), BuildingBlock: MIFKUJ_clean_linker_0, # of connection points: 2
#     Edge 25, Type (0, 1), BuildingBlock: MIFKUJ_clean_linker_0, # of connection points: 2
#     Edge 26, Type (0, 1), BuildingBlock: MIFKUJ_clean_linker_0, # of connection points: 2
#     Edge 27, Type (0, 1), BuildingBlock: MIFKUJ_clean_linker_0, # of connection points: 2
#     Edge 28, Type (0, 1), BuildingBlock: MIFKUJ_clean_linker_0, # of connection points: 2
#     Edge 29, Type (0, 1), BuildingBlock: MIFKUJ_clean_linker_0, # of connection points: 2
#     Edge 30, Type (0, 1), BuildingBlock: MIFKUJ_clean_linker_0, # of connection points: 2
#     Edge 31, Type (0, 1), BuildingBlock: MIFKUJ_clean_linker_0, # of connection points: 2
#     Edge 32, Type (0, 1), BuildingBlock: MIFKUJ_clean_linker_0, # of connection points: 2
#     Edge 33, Type (0, 1), BuildingBlock: MIFKUJ_clean_linker_0, # of connection points: 2
#     Edge 34, Type (0, 1), BuildingBlock: MIFKUJ_clean_linker_0, # of connection points: 2
#     Edge 35, Type (0, 1), BuildingBlock: MIFKUJ_clean_linker_0, # of connection points: 2
#     Edge 36, Type (0, 1), BuildingBlock: MIFKUJ_clean_linker_0, # of connection points: 2
#     Edge 37, Type (0, 1), BuildingBlock: MIFKUJ_clean_linker_0, # of connection points: 2
#     Edge 38, Type (0, 1), BuildingBlock: MIFKUJ_clean_linker_0, # of connection points: 2
#     Edge 39, Type (0, 1), BuildingBlock: MIFKUJ_clean_linker_0, # of connection points: 2
#     Edge 40, Type (0, 1), BuildingBlock: MIFKUJ_clean_linker_0, # of connection points: 2
#     Edge 41, Type (0, 1), BuildingBlock: MIFKUJ_clean_linker_0, # of connection points: 2
#     Edge 42, Type (0, 1), BuildingBlock: MIFKUJ_clean_linker_0, # of connection points: 2
#     Edge 43, Type (0, 1), BuildingBlock: MIFKUJ_clean_linker_0, # of connection points: 2
#     Edge 44, Type (0, 1), BuildingBlock: MIFKUJ_clean_linker_0, # of connection points: 2
#     Edge 45, Type (0, 1), BuildingBlock: MIFKUJ_clean_linker_0, # of connection points: 2
#     Edge 46, Type (0, 1), BuildingBlock: MIFKUJ_clean_linker_0, # of connection points: 2
#     Edge 47, Type (0, 1), BuildingBlock: MIFKUJ_clean_linker_0, # of connection points: 2
#     Edge 48, Type (0, 1), BuildingBlock: MIFKUJ_clean_linker_0, # of connection points: 2
#     Edge 49, Type (0, 1), BuildingBlock: MIFKUJ_clean_linker_0, # of connection points: 2
#     Edge 50, Type (0, 1), BuildingBlock: MIFKUJ_clean_linker_0, # of connection points: 2
#     Edge 51, Type (0, 1), BuildingBlock: MIFKUJ_clean_linker_0, # of connection points: 2
#     Edge 52, Type (0, 1), BuildingBlock: MIFKUJ_clean_linker_0, # of connection points: 2
#     Edge 53, Type (0, 1), BuildingBlock: MIFKUJ_clean_linker_0, # of connection points: 2
#     Edge 54, Type (0, 1), BuildingBlock: MIFKUJ_clean_linker_0, # of connection points: 2
#     Edge 55, Type (0, 1), BuildingBlock: MIFKUJ_clean_linker_0, # of connection points: 2
#     Edge 56, Type (0, 1), BuildingBlock: MIFKUJ_clean_linker_0, # of connection points: 2
#     Edge 57, Type (0, 1), BuildingBlock: MIFKUJ_clean_linker_0, # of connection points: 2
#     Edge 58, Type (0, 1), BuildingBlock: MIFKUJ_clean_linker_0, # of connection points: 2
#     Edge 59, Type (0, 1), BuildingBlock: MIFKUJ_clean_linker_0, # of connection points: 2
#     Edge 60, Type (0, 1), BuildingBlock: MIFKUJ_clean_linker_0, # of connection points: 2
#     Edge 61, Type (0, 1), BuildingBlock: MIFKUJ_clean_linker_0, # of connection points: 2
#     Edge 62, Type (0, 1), BuildingBlock: MIFKUJ_clean_linker_0, # of connection points: 2
#     Edge 63, Type (0, 1), BuildingBlock: MIFKUJ_clean_linker_0, # of connection points: 2
#     Edge 64, Type (0, 1), BuildingBlock: MIFKUJ_clean_linker_0, # of connection points: 2
#     Edge 65, Type (0, 1), BuildingBlock: MIFKUJ_clean_linker_0, # of connection points: 2
#     Edge 66, Type (0, 1), BuildingBlock: MIFKUJ_clean_linker_0, # of connection points: 2
#     Edge 67, Type (0, 1), BuildingBlock: MIFKUJ_clean_linker_0, # of connection points: 2
# Relax obj value: 0.163
# Max RMSD: 0.249
# Mean RMSD: 0.167
data_MOF--net-soc--node1-ESEHIV_clean_sbu_0--node2-BETFEN_clean_sbu_0--edge1-MIFKUJ_clean_linker_0
_symmetry_space_group_name_H-M    P1
_symmetry_Int_Tables_number       1
_symmetry_cell_setting            triclinic
loop_
_symmetry_equiv_pos_as_xyz
'x, y, z'
_cell_length_a     64.812348
_cell_length_b     62.579646
_cell_length_c     56.770542
_cell_angle_alpha  85.263081
_cell_angle_beta   83.977059
_cell_angle_gamma 74.0315
loop_
_atom_site_label
_atom_site_type_symbol
_atom_site_fract_x
_atom_site_fract_y
_atom_site_fract_z
_atom_type_partial_charge
Cu0 Cu 0.0333 0.02943 0.36871 0.0
N1 N 0.04408 0.04612 0.38761 0.0
N2 N 0.06091 0.07094 0.39593 0.0
C3 C 0.05592 0.05996 0.37881 0.0
C4 C 0.05188 0.06357 0.41641 0.0
C5 C 0.04139 0.0483 0.4112 0.0
O6 O 0.05787 0.00809 0.35247 0.0
C7 C 0.99752 0.06417 0.36099 0.0
O8 O 0.99618 0.06192 0.38425 0.0
H9 H 0.06079 0.06181 0.3601 0.0
H10 H 0.03218 0.03973 0.42365 0.0
N11 N 1.01697 0.01252 0.38627 0.0
N12 N 0.99312 0.99233 0.392 0.0
C13 C 1.00041 1.00753 0.37776 0.0
C14 C 0.02037 1.00024 0.40677 0.0
C15 C 1.00558 0.98781 0.41043 0.0
C16 C 0.07272 0.99735 0.36551 0.0
O17 O 0.07087 1.00186 0.38794 0.0
H18 H 0.99442 0.01445 0.36093 0.0
H19 H 0.03332 0.99948 0.41763 0.0
O20 O 1.01323 0.05124 0.34914 0.0
H21 H 0.05237 0.06917 0.43383 0.0
H22 H 1.00492 0.97551 0.42484 0.0
Cu23 Cu 0.04078 0.03174 0.71722 0.0
N24 N 0.02705 0.01753 0.69862 0.0
N25 N 1.00856 0.99401 0.69051 0.0
C26 C 1.01745 1.00173 0.70738 0.0
C27 C 1.01286 1.00562 0.67027 0.0
C28 C 0.02418 0.02014 0.67535 0.0
O29 O 1.01752 0.05474 0.73357 0.0
C30 C 0.07344 0.99337 0.72186 0.0
O31 O 0.07139 0.99606 0.69895 0.0
H32 H 1.01683 0.99641 0.72597 0.0
H33 H 0.02962 0.03193 0.66299 0.0
N34 N 0.05901 0.04656 0.69919 0.0
N35 N 0.08381 0.06561 0.69317 0.0
C36 C 0.0684 0.06023 0.70847 0.0
C37 C 0.06871 0.04325 0.67712 0.0
C38 C 0.08402 0.05502 0.67335 0.0
C39 C 1.00658 0.06942 0.71928 0.0
O40 O 1.01224 0.06777 0.69645 0.0
H41 H 0.065 0.06484 0.72672 0.0
H42 H 0.06589 0.03201 0.66513 0.0
O43 O 0.06049 1.00756 0.73535 0.0
H44 H 1.00813 1.004 0.65295 0.0
H45 H 0.09496 0.05512 0.65759 0.0
Cu46 Cu 0.30448 0.05242 0.07496 0.0
N47 N 0.28661 0.04552 0.05487 0.0
N48 N 0.27278 0.02587 0.03293 0.0
C49 C 0.28443 0.02526 0.05139 0.0
C50 C 0.26756 0.04722 0.02432 0.0
C51 C 0.27607 0.05931 0.03796 0.0
O52 O 0.31745 0.02417 0.09288 0.0
C53 C 0.31395 0.08892 0.04793 0.0
O54 O 0.29696 0.09956 0.06106 0.0
H55 H 0.29223 0.01016 0.06123 0.0
H56 H 0.27526 0.07678 0.03524 0.0
N57 N 0.28755 0.07221 0.0968 0.0
N58 N 0.2785 0.09715 0.1245 0.0
C59 C 0.29445 0.08102 0.11432 0.0
C60 C 0.2665 0.08289 0.09617 0.0
C61 C 0.26093 0.0985 0.1131 0.0
C62 C 0.30327 0.01667 0.1058 0.0
O63 O 0.28316 0.02881 0.10649 0.0
H64 H 0.31108 0.07678 0.11843 0.0
H65 H 0.25626 0.08036 0.0834 0.0
O66 O 0.3221 0.06809 0.05279 0.0
H67 H 0.2586 0.05353 0.009 0.0
H68 H 0.24543 0.11048 0.11623 0.0
Cu69 Cu 0.05808 0.30419 0.07368 0.0
N70 N 0.07103 0.3204 0.04997 0.0
N71 N 0.0918 0.32618 0.01716 0.0
C72 C 0.08772 0.31126 0.03432 0.0
C73 C 0.07684 0.34545 0.02186 0.0
C74 C 0.06405 0.34184 0.04209 0.0
O75 O 0.07805 0.29318 0.09898 0.0
C76 C 0.0361 0.27204 0.06028 0.0
O77 O 0.03255 0.26571 0.08263 0.0
H78 H 0.09593 0.2937 0.0346 0.0
H79 H 0.05014 0.35378 0.04995 0.0
N80 N 0.03294 0.322 0.08953 0.0
N81 N 1.00157 0.32914 0.11243 0.0
C82 C 1.01379 0.31716 0.09473 0.0
C83 C 0.0325 0.33803 0.10412 0.0
C84 C 1.01326 0.34247 0.11819 0.0
C85 C 0.09859 0.28637 0.09632 0.0
O86 O 0.1081 0.282 0.07504 0.0
H87 H 1.00947 0.30398 0.08709 0.0
H88 H 0.04597 0.3447 0.1058 0.0
O89 O 0.04888 0.28424 0.05471 0.0
H90 H 0.07514 0.36094 0.01128 0.0
H91 H 1.00877 0.3538 0.13242 0.0
Cu92 Cu 0.78366 0.99815 0.99957 0.0
N93 N 0.79962 0.01293 0.9782 0.0
N94 N 0.805 0.04216 0.9556 0.0
C95 C 0.79036 0.03249 0.9671 0.0
C96 C 0.82436 0.02799 0.95958 0.0
C97 C 0.82099 0.00991 0.97361 0.0
O98 O 0.76816 0.02156 0.02068 0.0
C99 C 0.7788 0.97351 0.96389 0.0
O100 O 0.79904 0.97377 0.95981 0.0
H101 H 0.77316 0.04011 0.96885 0.0
H102 H 0.83318 0.99618 0.98087 0.0
N103 N 0.80033 0.97553 0.01839 0.0
N104 N 0.80688 0.95128 0.04954 0.0
C105 C 0.79435 0.97077 0.04118 0.0
C106 C 0.81735 0.95853 0.01209 0.0
C107 C 0.82139 0.94344 0.03133 0.0
C108 C 0.78154 0.02948 0.02972 0.0
O109 O 0.80224 0.01995 0.02566 0.0
H110 H 0.78011 0.98061 0.05091 0.0
H111 H 0.82548 0.95661 0.99445 0.0
O112 O 0.76749 0.98411 0.98122 0.0
H113 H 0.83984 0.03072 0.95335 0.0
H114 H 0.8335 0.92759 0.03167 0.0
Cu115 Cu 0.01978 0.7543 0.01048 0.0
N116 N 1.00661 0.7392 0.99185 0.0
N117 N 0.98502 0.73306 0.96646 0.0
C118 C 0.98891 0.74798 0.98005 0.0
C119 C 1.00084 0.71422 0.96963 0.0
C120 C 1.01404 0.71799 0.98541 0.0
O121 O 0.99954 0.76474 0.03914 0.0
C122 C 0.0479 0.76178 0.97183 0.0
O123 O 0.04562 0.74217 0.96823 0.0
H124 H 0.97963 0.76521 0.98049 0.0
H125 H 0.02861 0.70634 0.99093 0.0
N126 N 0.04286 0.73459 0.02438 0.0
N127 N 0.07323 0.72517 0.04272 0.0
C128 C 0.05958 0.74122 0.03028 0.0
C129 C 0.04583 0.71353 0.03345 0.0
C130 C 0.06465 0.70762 0.04472 0.0
C131 C 0.97913 0.77365 0.04077 0.0
O132 O 0.96954 0.78118 0.02135 0.0
H133 H 0.06083 0.7581 0.02683 0.0
H134 H 0.03465 0.70359 0.03294 0.0
O135 O 0.03591 0.77259 0.9889 0.0
H136 H 1.00278 0.69891 0.96099 0.0
H137 H 0.07104 0.69193 0.05436 0.0
Cu138 Cu 0.53048 0.52293 0.87154 0.0
N139 N 0.54229 0.53886 0.89014 0.0
N140 N 0.55978 0.56276 0.89919 0.0
C141 C 0.5584 0.54836 0.8834 0.0
C142 C 0.54399 0.56235 0.91652 0.0
C143 C 0.53326 0.54749 0.91093 0.0
O144 O 0.55405 0.49894 0.85732 0.0
C145 C 0.49562 0.5449 0.84094 0.0
O146 O 0.49421 0.52517 0.83627 0.0
H147 H 0.56778 0.54619 0.86642 0.0
H148 H 0.51898 0.5443 0.92051 0.0
N149 N 0.51436 0.5075 0.89202 0.0
N150 N 0.4907 0.48792 0.90398 0.0
C151 C 0.49473 0.50489 0.88971 0.0
C152 C 0.52274 0.49203 0.90883 0.0
C153 C 0.50824 0.47985 0.91617 0.0
C154 C 0.57021 0.49953 0.8426 0.0
O155 O 0.5715 0.5186 0.83191 0.0
H156 H 0.4843 0.51383 0.87652 0.0
H157 H 0.53901 0.48864 0.91392 0.0
O158 O 0.51101 0.54639 0.85245 0.0
H159 H 0.53994 0.57276 0.93155 0.0
H160 H 0.511 0.46524 0.92826 0.0
Cu161 Cu 0.54379 0.53371 0.21542 0.0
N162 N 0.5304 0.51793 0.19812 0.0
N163 N 0.51088 0.49466 0.19238 0.0
C164 C 0.51732 0.5058 0.20832 0.0
C165 C 0.52024 0.50015 0.17121 0.0
C166 C 0.53235 0.51443 0.17481 0.0
O167 O 0.52045 0.55662 0.2316 0.0
C168 C 0.57691 0.49598 0.22117 0.0
O169 O 0.57518 0.49768 0.1982 0.0
H170 H 0.51278 0.50514 0.2272 0.0
H171 H 0.54239 0.52112 0.16147 0.0
N172 N 0.56122 0.54884 0.19662 0.0
N173 N 0.58736 0.5662 0.18877 0.0
C174 C 0.57746 0.55451 0.2051 0.0
C175 C 0.56054 0.55727 0.17408 0.0
C176 C 0.57668 0.56792 0.16915 0.0
C177 C 0.50704 0.56875 0.21763 0.0
O178 O 0.5102 0.56474 0.195 0.0
H179 H 0.58135 0.55054 0.22327 0.0
H180 H 0.54886 0.5563 0.16224 0.0
O181 O 0.56407 0.51078 0.23403 0.0
H182 H 0.51904 0.49378 0.15441 0.0
H183 H 0.57993 0.57649 0.15244 0.0
Cu184 Cu 0.78577 0.55656 0.57488 0.0
N185 N 0.78641 0.57441 0.54662 0.0
N186 N 0.79203 0.59701 0.5154 0.0
C187 C 0.80118 0.58283 0.53314 0.0
C188 C 0.77113 0.59703 0.5176 0.0
C189 C 0.76776 0.58331 0.53673 0.0
O190 O 0.77711 0.57668 0.60103 0.0
C191 C 0.77188 0.52887 0.55034 0.0
O192 O 0.78932 0.53106 0.53746 0.0
H193 H 0.81788 0.57943 0.53677 0.0
H194 H 0.75252 0.58025 0.5434 0.0
N195 N 0.81096 0.5349 0.58224 0.0
N196 N 0.82676 0.50293 0.60176 0.0
C197 C 0.81046 0.51382 0.58874 0.0
C198 C 0.82848 0.53739 0.59134 0.0
C199 C 0.83825 0.51767 0.60344 0.0
C200 C 0.78776 0.59111 0.60063 0.0
O201 O 0.80305 0.59098 0.58348 0.0
H202 H 0.79685 0.50749 0.58677 0.0
H203 H 0.83256 0.55299 0.59148 0.0
O204 O 0.76606 0.53913 0.56948 0.0
H205 H 0.75901 0.60645 0.5062 0.0
H206 H 0.85168 0.515 0.61418 0.0
Cu207 Cu 0.5536 0.80705 0.56656 0.0
N208 N 0.57142 0.805 0.53688 0.0
N209 N 0.59518 0.80135 0.50415 0.0
C210 C 0.58905 0.79139 0.52511 0.0
C211 C 0.58132 0.82174 0.50315 0.0
C212 C 0.56722 0.82391 0.52292 0.0
O213 O 0.56897 0.8168 0.5895 0.0
C214 C 0.5198 0.81966 0.54152 0.0
O215 O 0.53069 0.80005 0.53412 0.0
H216 H 0.59732 0.77487 0.53176 0.0
H217 H 0.55487 0.83893 0.52724 0.0
N218 N 0.54175 0.7844 0.5825 0.0
N219 N 0.51682 0.77302 0.60771 0.0
C220 C 0.52103 0.78929 0.5923 0.0
C221 C 0.55107 0.76419 0.59243 0.0
C222 C 0.53579 0.75717 0.60787 0.0
C223 C 0.58745 0.80352 0.59247 0.0
O224 O 0.59371 0.78557 0.58025 0.0
H225 H 0.50965 0.80538 0.58984 0.0
H226 H 0.56804 0.75577 0.58993 0.0
O227 O 0.52705 0.82806 0.55753 0.0
H228 H 0.58178 0.83464 0.48932 0.0
H229 H 0.53864 0.7419 0.61896 0.0
Cu230 Cu 0.27914 0.50128 0.51221 0.0
N231 N 0.29578 0.517 0.49221 0.0
N232 N 0.30287 0.5455 0.46908 0.0
C233 C 0.28767 0.53765 0.48235 0.0
C234 C 0.32133 0.52908 0.4708 0.0
C235 C 0.31695 0.51162 0.48517 0.0
O236 O 0.26465 0.52307 0.53504 0.0
C237 C 0.27082 0.48218 0.47333 0.0
O238 O 0.29021 0.48414 0.46641 0.0
H239 H 0.27081 0.54664 0.48476 0.0
H240 H 0.32839 0.49618 0.49016 0.0
N241 N 0.29415 0.47617 0.53013 0.0
N242 N 0.29907 0.4495 0.5596 0.0
C243 C 0.28673 0.46945 0.55183 0.0
C244 C 0.31182 0.45988 0.52389 0.0
C245 C 0.3149 0.44343 0.54203 0.0
C246 C 0.27852 0.52653 0.54757 0.0
O247 O 0.29872 0.51495 0.54398 0.0
H248 H 0.27195 0.47858 0.56124 0.0
H249 H 0.32131 0.45957 0.50702 0.0
O250 O 0.26164 0.48985 0.49305 0.0
H251 H 0.337 0.52973 0.46258 0.0
H252 H 0.32763 0.42804 0.54209 0.0
Cu253 Cu 0.51487 0.25494 0.51765 0.0
N254 N 0.53784 0.23881 0.49747 0.0
N255 N 0.56744 0.23343 0.47206 0.0
C256 C 0.55551 0.24569 0.48959 0.0
C257 C 0.55688 0.21838 0.46843 0.0
C258 C 0.53864 0.22167 0.48421 0.0
O259 O 0.528 0.27373 0.53392 0.0
C260 C 0.47992 0.25629 0.49216 0.0
O261 O 0.48391 0.23592 0.50174 0.0
H262 H 0.55888 0.26029 0.49554 0.0
H263 H 0.52625 0.21301 0.48501 0.0
N264 N 0.50374 0.23791 0.5422 0.0
N265 N 0.48267 0.23049 0.57407 0.0
C266 C 0.48901 0.24647 0.56003 0.0
C267 C 0.50702 0.2157 0.54522 0.0
C268 C 0.49398 0.2111 0.56475 0.0
C269 C 0.54349 0.26207 0.5456 0.0
O270 O 0.54799 0.24027 0.54587 0.0
H271 H 0.48253 0.26416 0.56216 0.0
H272 H 0.51773 0.20375 0.53368 0.0
O273 O 0.4914 0.26883 0.49696 0.0
H274 H 0.56161 0.20645 0.45478 0.0
H275 H 0.49286 0.19474 0.57151 0.0
Pr276 Pr 0.28821 0.30749 0.28408 0.0
Pr277 Pr 0.27436 0.26887 0.31184 0.0
C278 C 0.30189 0.34386 0.26997 0.0
C279 C 0.32224 0.35043 0.26474 0.0
C280 C 0.33633 0.34312 0.24468 0.0
C281 C 0.35457 0.35092 0.23892 0.0
C282 C 0.35916 0.36616 0.25307 0.0
C283 C 0.34545 0.37287 0.27357 0.0
C284 C 0.32715 0.36513 0.27929 0.0
C285 C 0.30228 0.26738 0.26184 0.0
C286 C 0.31871 0.2782 0.32643 0.0
C287 C 0.26178 0.23182 0.32567 0.0
C288 C 0.24202 0.2243 0.33142 0.0
C289 C 0.22897 0.22976 0.35264 0.0
C290 C 0.2113 0.2211 0.35868 0.0
C291 C 0.2063 0.20684 0.34365 0.0
C292 C 0.21905 0.20182 0.32216 0.0
C293 C 0.23676 0.21042 0.31616 0.0
C294 C 0.25932 0.30879 0.33411 0.0
C295 C 0.24407 0.29812 0.26914 0.0
O296 O 0.29632 0.33902 0.29217 0.0
O297 O 0.29754 0.331 0.25527 0.0
O298 O 0.30221 0.26922 0.28386 0.0
O299 O 0.29725 0.28671 0.25057 0.0
O300 O 0.30788 0.26303 0.32732 0.0
O301 O 0.31361 0.29652 0.31254 0.0
O302 O 0.26652 0.23733 0.30344 0.0
O303 O 0.2661 0.24461 0.34046 0.0
O304 O 0.25989 0.30728 0.31192 0.0
O305 O 0.26454 0.28942 0.34528 0.0
O306 O 0.25495 0.31327 0.26811 0.0
O307 O 0.2489 0.27994 0.28333 0.0
H308 H 0.33311 0.3317 0.23313 0.0
H309 H 0.36498 0.34519 0.2232 0.0
H310 H 0.3484 0.38476 0.28473 0.0
H311 H 0.31653 0.37109 0.29481 0.0
H312 H 0.23257 0.24042 0.36481 0.0
H313 H 0.20163 0.22545 0.37523 0.0
H314 H 0.21579 0.19064 0.31034 0.0
H315 H 0.24663 0.2058 0.29979 0.0
Pr316 Pr 0.78931 0.29516 0.30695 0.0
Pr317 Pr 0.78235 0.26154 0.27833 0.0
C318 C 0.79075 0.32681 0.33584 0.0
C319 C 0.78215 0.33929 0.35733 0.0
C320 C 0.79394 0.3343 0.37741 0.0
C321 C 0.78799 0.34767 0.3968 0.0
C322 C 0.77012 0.36645 0.39658 0.0
C323 C 0.75788 0.37105 0.37677 0.0
C324 C 0.76387 0.35764 0.3573 0.0
C325 C 0.82056 0.25416 0.31073 0.0
C326 C 0.75347 0.26866 0.32794 0.0
C327 C 0.78493 0.22585 0.25338 0.0
C328 C 0.78452 0.2163 0.23051 0.0
C329 C 0.76523 0.22027 0.21956 0.0
C330 C 0.76419 0.20811 0.20035 0.0
C331 C 0.78238 0.19179 0.19164 0.0
C332 C 0.80193 0.18861 0.20185 0.0
C333 C 0.80294 0.20067 0.22118 0.0
C334 C 0.75163 0.30259 0.27175 0.0
C335 C 0.81722 0.29046 0.25591 0.0
O336 O 0.77999 0.33123 0.31696 0.0
O337 O 0.80107 0.30584 0.33885 0.0
O338 O 0.80048 0.25631 0.31181 0.0
O339 O 0.82481 0.27324 0.30708 0.0
O340 O 0.76499 0.25266 0.31457 0.0
O341 O 0.75748 0.28828 0.32579 0.0
O342 O 0.80187 0.23206 0.25738 0.0
O343 O 0.76691 0.23815 0.26319 0.0
O344 O 0.7715 0.30046 0.27298 0.0
O345 O 0.74762 0.28338 0.27233 0.0
O346 O 0.80967 0.30396 0.27326 0.0
O347 O 0.81033 0.27262 0.25452 0.0
H348 H 0.80832 0.3205 0.37779 0.0
H349 H 0.79801 0.34382 0.41152 0.0
H350 H 0.74387 0.38525 0.37614 0.0
H351 H 0.75454 0.36202 0.34201 0.0
H352 H 0.75071 0.23214 0.22635 0.0
H353 H 0.74898 0.21111 0.19263 0.0
H354 H 0.81617 0.17603 0.19566 0.0
H355 H 0.81793 0.19708 0.22949 0.0
Pr356 Pr 0.81141 0.78527 0.29706 0.0
Pr357 Pr 0.78391 0.76331 0.27071 0.0
C358 C 0.83636 0.80716 0.31455 0.0
C359 C 0.84324 0.82773 0.31541 0.0
C360 C 0.83297 0.84302 0.33258 0.0
C361 C 0.8417 0.86012 0.33713 0.0
C362 C 0.86094 0.86234 0.32467 0.0
C363 C 0.87051 0.848 0.3064 0.0
C364 C 0.86179 0.83072 0.30189 0.0
C365 C 0.77396 0.78031 0.32371 0.0
C366 C 0.78105 0.81566 0.25601 0.0
C367 C 0.75151 0.74683 0.26129 0.0
C368 C 0.74448 0.7276 0.25516 0.0
C369 C 0.75223 0.71657 0.23411 0.0
C370 C 0.74365 0.69966 0.22812 0.0
C371 C 0.72718 0.69351 0.24303 0.0
C372 C 0.71984 0.70437 0.26426 0.0
C373 C 0.72839 0.72118 0.27021 0.0
C374 C 0.82389 0.75817 0.24305 0.0
C375 C 0.81558 0.73315 0.31085 0.0
O376 O 0.84319 0.79438 0.29661 0.0
O377 O 0.81684 0.80752 0.32338 0.0
O378 O 0.7747 0.78709 0.3019 0.0
O379 O 0.79277 0.77582 0.33168 0.0
O380 O 0.77171 0.79956 0.2552 0.0
O381 O 0.79665 0.8141 0.26976 0.0
O382 O 0.75767 0.74637 0.28259 0.0
O383 O 0.76206 0.75679 0.24502 0.0
O384 O 0.81853 0.76749 0.26253 0.0
O385 O 0.8088 0.74971 0.23808 0.0
O386 O 0.82674 0.74805 0.30875 0.0
O387 O 0.79827 0.73594 0.29941 0.0
H388 H 0.81873 0.84116 0.34344 0.0
H389 H 0.83381 0.87113 0.35107 0.0
H390 H 0.8854 0.8493 0.29656 0.0
H391 H 0.87016 0.81912 0.28867 0.0
H392 H 0.76464 0.7212 0.22216 0.0
H393 H 0.74982 0.69148 0.21175 0.0
H394 H 0.70693 0.70044 0.27598 0.0
H395 H 0.722 0.72961 0.2864 0.0
Pr396 Pr 0.27789 0.78141 0.27848 0.0
Pr397 Pr 0.30811 0.79398 0.30791 0.0
C398 C 0.24207 0.78226 0.25813 0.0
C399 C 0.23333 0.77913 0.23616 0.0
C400 C 0.23856 0.75827 0.22626 0.0
C401 C 0.22793 0.75519 0.20717 0.0
C402 C 0.212 0.7729 0.19763 0.0
C403 C 0.2075 0.79397 0.20689 0.0
C404 C 0.21802 0.79702 0.22605 0.0
C405 C 0.31873 0.75281 0.26576 0.0
C406 C 0.3037 0.81908 0.25579 0.0
C407 C 0.33455 0.80012 0.33851 0.0
C408 C 0.35015 0.79073 0.35623 0.0
C409 C 0.34314 0.79176 0.38048 0.0
C410 C 0.35799 0.788 0.39744 0.0
C411 C 0.38015 0.78324 0.39047 0.0
C412 C 0.38722 0.78039 0.36637 0.0
C413 C 0.37234 0.78419 0.34937 0.0
C414 C 0.26667 0.82333 0.30959 0.0
C415 C 0.28958 0.75086 0.32681 0.0
O416 O 0.24924 0.79983 0.25858 0.0
O417 O 0.2532 0.76463 0.26977 0.0
O418 O 0.31499 0.76748 0.2808 0.0
O419 O 0.30141 0.75339 0.25591 0.0
O420 O 0.31743 0.81166 0.27209 0.0
O421 O 0.28624 0.81199 0.25611 0.0
O422 O 0.34058 0.79705 0.31599 0.0
O423 O 0.31434 0.80073 0.34443 0.0
O424 O 0.27069 0.80232 0.31118 0.0
O425 O 0.28424 0.82955 0.30684 0.0
O426 O 0.27372 0.7594 0.31322 0.0
O427 O 0.30636 0.75908 0.32557 0.0
H428 H 0.25037 0.74419 0.23364 0.0
H429 H 0.23187 0.73883 0.20015 0.0
H430 H 0.19515 0.80785 0.20002 0.0
H431 H 0.21364 0.81321 0.23351 0.0
H432 H 0.32614 0.79694 0.38631 0.0
H433 H 0.35199 0.79056 0.41582 0.0
H434 H 0.40423 0.77642 0.36054 0.0
H435 H 0.37823 0.78329 0.33081 0.0
Pr436 Pr 0.28991 0.78235 0.81002 0.0
Pr437 Pr 0.27607 0.76148 0.77684 0.0
C438 C 0.30287 0.80785 0.83803 0.0
C439 C 0.29344 0.82374 0.85644 0.0
C440 C 0.30016 0.81863 0.87942 0.0
C441 C 0.29168 0.83341 0.89725 0.0
C442 C 0.27648 0.85366 0.89232 0.0
C443 C 0.2695 0.85867 0.86939 0.0
C444 C 0.27786 0.84377 0.85158 0.0
C445 C 0.31064 0.73641 0.81303 0.0
C446 C 0.24563 0.76924 0.82763 0.0
C447 C 0.26245 0.73477 0.75089 0.0
C448 C 0.26919 0.72227 0.72956 0.0
C449 C 0.25353 0.71629 0.71846 0.0
C450 C 0.25909 0.70528 0.69749 0.0
C451 C 0.28045 0.70012 0.68721 0.0
C452 C 0.29624 0.70601 0.69847 0.0
C453 C 0.29059 0.71721 0.71952 0.0
C454 C 0.25656 0.80741 0.77189 0.0
C455 C 0.31912 0.77686 0.7578 0.0
O456 O 0.29839 0.81405 0.81614 0.0
O457 O 0.303 0.7872 0.84383 0.0
O458 O 0.30821 0.74853 0.79408 0.0
O459 O 0.30034 0.7475 0.83094 0.0
O460 O 0.25307 0.75509 0.81079 0.0
O461 O 0.25555 0.78466 0.82951 0.0
O462 O 0.27335 0.72744 0.76937 0.0
O463 O 0.25746 0.75635 0.7474 0.0
O464 O 0.25839 0.79616 0.79153 0.0
O465 O 0.26632 0.79522 0.75453 0.0
O466 O 0.31346 0.7888 0.77672 0.0
O467 O 0.30831 0.76258 0.75426 0.0
H468 H 0.31215 0.80324 0.88354 0.0
H469 H 0.29754 0.82931 0.91469 0.0
H470 H 0.25769 0.87415 0.86522 0.0
H471 H 0.27222 0.84804 0.83405 0.0
H472 H 0.23695 0.72017 0.72603 0.0
H473 H 0.24671 0.70039 0.68956 0.0
H474 H 0.31282 0.70207 0.69096 0.0
H475 H 0.30281 0.72196 0.72789 0.0
Pr476 Pr 0.31073 0.28242 0.81222 0.0
Pr477 Pr 0.27644 0.25773 0.79292 0.0
C478 C 0.3454 0.29673 0.81737 0.0
C479 C 0.35199 0.31611 0.82366 0.0
C480 C 0.34286 0.32778 0.84401 0.0
C481 C 0.35061 0.3452 0.85019 0.0
C482 C 0.36758 0.35119 0.83613 0.0
C483 C 0.37612 0.3399 0.81539 0.0
C484 C 0.36843 0.32253 0.80928 0.0
C485 C 0.26966 0.29527 0.83722 0.0
C486 C 0.28083 0.30714 0.76791 0.0
C487 C 0.24152 0.2436 0.78824 0.0
C488 C 0.23454 0.22446 0.78168 0.0
C489 C 0.23932 0.21644 0.75876 0.0
C490 C 0.23056 0.19982 0.75244 0.0
C491 C 0.21685 0.19094 0.76888 0.0
C492 C 0.21288 0.19837 0.79206 0.0
C493 C 0.22158 0.21497 0.79834 0.0
C494 C 0.31724 0.24529 0.76737 0.0
C495 C 0.30689 0.23294 0.83703 0.0
O496 O 0.33695 0.29841 0.7971 0.0
O497 O 0.33652 0.28581 0.83435 0.0
O498 O 0.27553 0.28286 0.82003 0.0
O499 O 0.2857 0.30279 0.84132 0.0
O500 O 0.26938 0.29232 0.77099 0.0
O501 O 0.29713 0.30651 0.78042 0.0
O502 O 0.25045 0.24148 0.80826 0.0
O503 O 0.24998 0.255 0.77136 0.0
O504 O 0.31154 0.25761 0.78468 0.0
O505 O 0.3014 0.23719 0.76388 0.0
O506 O 0.31886 0.24721 0.83276 0.0
O507 O 0.28983 0.23426 0.82544 0.0
H508 H 0.33005 0.32321 0.85535 0.0
H509 H 0.34377 0.35347 0.86635 0.0
H510 H 0.38891 0.34435 0.80393 0.0
H511 H 0.37558 0.31383 0.79343 0.0
H512 H 0.2493 0.2234 0.74552 0.0
H513 H 0.2338 0.19461 0.73439 0.0
H514 H 0.20269 0.19165 0.80527 0.0
H515 H 0.2177 0.22084 0.81613 0.0
Pr516 Pr 0.77561 0.27824 0.77476 0.0
Pr517 Pr 0.80702 0.29018 0.81004 0.0
C518 C 0.74227 0.27098 0.75469 0.0
C519 C 0.72931 0.27429 0.73388 0.0
C520 C 0.73219 0.25697 0.71855 0.0
C521 C 0.71818 0.2587 0.70086 0.0
C522 C 0.7008 0.27776 0.6981 0.0
C523 C 0.69828 0.29533 0.71307 0.0
C524 C 0.71229 0.2936 0.73076 0.0
C525 C 0.81949 0.25574 0.76751 0.0
C526 C 0.79919 0.31742 0.75686 0.0
C527 C 0.84223 0.29105 0.83137 0.0
C528 C 0.85307 0.28935 0.85359 0.0
C529 C 0.85601 0.30859 0.86233 0.0
C530 C 0.86882 0.30708 0.88113 0.0
C531 C 0.8792 0.28625 0.89168 0.0
C532 C 0.87568 0.26702 0.88342 0.0
C533 C 0.86284 0.26854 0.8646 0.0
C534 C 0.76467 0.31783 0.81741 0.0
C535 C 0.78175 0.25238 0.82963 0.0
O536 O 0.74047 0.28797 0.76753 0.0
O537 O 0.76163 0.25725 0.75343 0.0
O538 O 0.80902 0.26028 0.78742 0.0
O539 O 0.80695 0.26281 0.75035 0.0
O540 O 0.8125 0.30981 0.77373 0.0
O541 O 0.78238 0.30986 0.75471 0.0
O542 O 0.83951 0.27299 0.82355 0.0
O543 O 0.82671 0.30888 0.8268 0.0
O544 O 0.77178 0.30285 0.80287 0.0
O545 O 0.7799 0.31795 0.83057 0.0
O546 O 0.77192 0.2558 0.80973 0.0
O547 O 0.79559 0.26326 0.83412 0.0
H548 H 0.74488 0.2417 0.72072 0.0
H549 H 0.7205 0.2447 0.68994 0.0
H550 H 0.6853 0.3104 0.71129 0.0
H551 H 0.70941 0.3072 0.74238 0.0
H552 H 0.84891 0.32486 0.85413 0.0
H553 H 0.8708 0.32229 0.8872 0.0
H554 H 0.88354 0.25067 0.89087 0.0
H555 H 0.86117 0.25333 0.85818 0.0
Pr556 Pr 0.78772 0.80138 0.77045 0.0
Pr557 Pr 0.76705 0.76424 0.80079 0.0
C558 C 0.805 0.83457 0.75291 0.0
C559 C 0.82493 0.84199 0.75002 0.0
C560 C 0.8404 0.83519 0.7309 0.0
C561 C 0.85783 0.84439 0.72634 0.0
C562 C 0.86017 0.86062 0.74075 0.0
C563 C 0.84513 0.86688 0.76036 0.0
C564 C 0.82763 0.85772 0.76489 0.0
C565 C 0.79285 0.76137 0.74938 0.0
C566 C 0.81499 0.76821 0.81299 0.0
C567 C 0.75487 0.72671 0.81211 0.0
C568 C 0.73645 0.71761 0.8193 0.0
C569 C 0.71847 0.7291 0.83359 0.0
C570 C 0.70156 0.7194 0.84061 0.0
C571 C 0.7025 0.69814 0.83342 0.0
C572 C 0.72028 0.68712 0.8185 0.0
C573 C 0.73707 0.69678 0.81153 0.0
C574 C 0.75312 0.80559 0.82187 0.0
C575 C 0.74045 0.79843 0.75905 0.0
O576 O 0.7948 0.83446 0.77406 0.0
O577 O 0.80443 0.818 0.7406 0.0
O578 O 0.79422 0.76317 0.77117 0.0
O579 O 0.79022 0.78048 0.73758 0.0
O580 O 0.80052 0.75662 0.81633 0.0
O581 O 0.81359 0.7854 0.79737 0.0
O582 O 0.75587 0.7355 0.79044 0.0
O583 O 0.76125 0.73734 0.8277 0.0
O584 O 0.76475 0.80064 0.80296 0.0
O585 O 0.74663 0.78836 0.83041 0.0
O586 O 0.75206 0.8126 0.76038 0.0
O587 O 0.74474 0.77848 0.77012 0.0
H588 H 0.83875 0.82322 0.71898 0.0
H589 H 0.86931 0.83904 0.71128 0.0
H590 H 0.84638 0.87954 0.77162 0.0
H591 H 0.81584 0.86349 0.77958 0.0
H592 H 0.71764 0.74534 0.83954 0.0
H593 H 0.68807 0.72823 0.85216 0.0
H594 H 0.72126 0.67092 0.81231 0.0
H595 H 0.75072 0.68784 0.80022 0.0
H596 H 0.0841 0.08196 0.42797 0.0
H597 H 0.10641 0.10812 0.42121 0.0
H598 H 0.08778 0.1229 0.34968 0.0
H599 H 0.06533 0.09719 0.35635 0.0
H600 H 0.13072 0.11273 0.35086 0.0
H601 H 0.06862 0.16027 0.39161 0.0
H602 H 0.04046 0.17122 0.4244 0.0
H603 H 0.08889 0.16724 0.47197 0.0
H604 H 0.11737 0.15586 0.43953 0.0
H605 H 0.17629 0.20108 0.31608 0.0
H606 H 0.14918 0.18069 0.32703 0.0
H607 H 0.16911 0.1683 0.39819 0.0
H608 H 0.19623 0.18872 0.38738 0.0
H609 H 0.12574 0.1773 0.39841 0.0
H610 H 0.18769 0.12903 0.35832 0.0
H611 H 0.2161 0.11845 0.32567 0.0
H612 H 0.16807 0.12351 0.27729 0.0
H613 H 0.13935 0.1345 0.30961 0.0
C614 C 0.0845 0.09103 0.41094 0.0
C615 C 0.07309 0.08725 0.39263 0.0
C616 C 0.09726 0.10597 0.4071 0.0
C617 C 0.09872 0.11746 0.38494 0.0
C618 C 0.08697 0.1141 0.36686 0.0
C619 C 0.07424 0.09925 0.37068 0.0
C620 C 0.11342 0.13201 0.37995 0.0
C621 C 0.12941 0.12702 0.36107 0.0
C622 C 0.11216 0.15026 0.39371 0.0
C623 C 0.0951 0.15693 0.41324 0.0
C624 C 0.07326 0.16148 0.40913 0.0
C625 C 0.05725 0.16781 0.42763 0.0
C626 C 0.06288 0.16984 0.45028 0.0
C627 C 0.08455 0.1656 0.45444 0.0
C628 C 0.10063 0.1592 0.436 0.0
C629 C 0.17484 0.19408 0.33407 0.0
C630 C 0.18853 0.19631 0.3508 0.0
C631 C 0.15932 0.18249 0.34033 0.0
C632 C 0.1574 0.17267 0.36331 0.0
C633 C 0.17036 0.17573 0.38035 0.0
C634 C 0.18582 0.18742 0.37414 0.0
C635 C 0.14277 0.15814 0.36914 0.0
C636 C 0.12695 0.16302 0.38821 0.0
C637 C 0.1442 0.13969 0.35565 0.0
C638 C 0.16141 0.13279 0.3363 0.0
C639 C 0.1832 0.12803 0.34068 0.0
C640 C 0.19935 0.12196 0.32225 0.0
C641 C 0.19389 0.12036 0.29941 0.0
C642 C 0.17227 0.12479 0.29498 0.0
C643 C 0.15605 0.13094 0.31334 0.0
H644 H 0.20642 0.11562 0.28518 0.0
H645 H 0.05045 0.17477 0.46458 0.0
H646 H 0.99724 0.10719 0.34955 0.0
H647 H 0.96603 0.13804 0.34002 0.0
H648 H 0.92746 0.09168 0.34063 0.0
H649 H 0.95888 0.06082 0.34974 0.0
H650 H 0.91562 0.12284 0.30717 0.0
H651 H 0.92554 0.12265 0.38857 0.0
H652 H 0.9441 0.12258 0.42433 0.0
H653 H 0.95511 0.18577 0.40058 0.0
H654 H 0.93692 0.18606 0.36446 0.0
H655 H 0.81643 0.21128 0.31905 0.0
H656 H 0.84529 0.17716 0.32687 0.0
H657 H 0.89159 0.2158 0.32056 0.0
H658 H 0.8631 0.24958 0.31295 0.0
H659 H 0.89705 0.18671 0.35893 0.0
H660 H 0.88652 0.18436 0.27567 0.0
H661 H 0.86425 0.18388 0.24314 0.0
H662 H 0.8507 0.12386 0.27457 0.0
H663 H 0.87258 0.12421 0.30751 0.0
C664 C 0.98227 0.10357 0.34681 0.0
C665 C 0.98057 0.08162 0.34971 0.0
C666 C 0.96432 0.12123 0.34175 0.0
C667 C 0.94416 0.11734 0.33997 0.0
C668 C 0.94274 0.09522 0.34187 0.0
C669 C 0.96073 0.07756 0.34689 0.0
C670 C 0.92449 0.13636 0.33711 0.0
C671 C 0.91147 0.13666 0.31869 0.0
C672 C 0.91879 0.15448 0.35215 0.0
C673 C 0.9301 0.15423 0.37364 0.0
C674 C 0.93213 0.13642 0.39083 0.0
C675 C 0.94255 0.13636 0.4112 0.0
C676 C 0.95084 0.15412 0.41469 0.0
C677 C 0.94872 0.172 0.39782 0.0
C678 C 0.93836 0.17211 0.3774 0.0
C679 C 0.83278 0.21242 0.31936 0.0
C680 C 0.83746 0.23314 0.3154 0.0
C681 C 0.84927 0.19293 0.32376 0.0
C682 C 0.87071 0.19385 0.32422 0.0
C683 C 0.87525 0.21459 0.32039 0.0
C684 C 0.85889 0.23393 0.31594 0.0
C685 C 0.88864 0.17345 0.32862 0.0
C686 C 0.90126 0.17286 0.34743 0.0
C687 C 0.89367 0.15492 0.31427 0.0
C688 C 0.88101 0.15443 0.29415 0.0
C689 C 0.87869 0.17113 0.2757 0.0
C690 C 0.86614 0.17088 0.2572 0.0
C691 C 0.85602 0.15388 0.25682 0.0
C692 C 0.85851 0.13704 0.2749 0.0
C693 C 0.87099 0.13725 0.29349 0.0
H694 H 0.84628 0.15374 0.2425 0.0
H695 H 0.95886 0.15407 0.43049 0.0
H696 H 0.97107 0.96948 0.42328 0.0
H697 H 0.94581 0.94928 0.414 0.0
H698 H 0.95372 0.97023 0.3401 0.0
H699 H 0.97906 0.98998 0.34896 0.0
H700 H 0.91186 0.97337 0.35433 0.0
H701 H 0.98049 0.91917 0.35988 0.0
H702 H 1.01296 0.8985 0.37937 0.0
H703 H 0.9736 0.87463 0.43534 0.0
H704 H 0.94086 0.89547 0.41634 0.0
H705 H 0.87958 0.89138 0.29716 0.0
H706 H 0.89914 0.91597 0.31067 0.0
H707 H 0.88687 0.89296 0.38317 0.0
H708 H 0.86758 0.86835 0.36984 0.0
H709 H 0.92896 0.89174 0.3722 0.0
H710 H 0.86034 0.94377 0.36478 0.0
H711 H 0.82804 0.96433 0.34498 0.0
H712 H 0.86728 0.99218 0.29226 0.0
H713 H 0.89988 0.97147 0.31153 0.0
C714 C 0.9675 0.96976 0.40505 0.0
C715 C 0.97728 0.98138 0.38694 0.0
C716 C 0.95298 0.95828 0.39979 0.0
C717 C 0.948 0.95816 0.37632 0.0
C718 C 0.95724 0.9702 0.35835 0.0
C719 C 0.97176 0.98159 0.36354 0.0
C720 C 0.93389 0.9448 0.37011 0.0
C721 C 0.91567 0.95549 0.35807 0.0
C722 C 0.93863 0.92156 0.37542 0.0
C723 C 0.95825 0.90908 0.38687 0.0
C724 C 0.97876 0.90968 0.37646 0.0
C725 C 0.99721 0.89791 0.3874 0.0
C726 C 0.99534 0.88532 0.40862 0.0
C727 C 0.97502 0.88443 0.41893 0.0
C728 C 0.95651 0.89622 0.4081 0.0
C729 C 0.88102 0.89168 0.31596 0.0
C730 C 0.87196 0.87807 0.33245 0.0
C731 C 0.89204 0.9058 0.32367 0.0
C732 C 0.89431 0.90637 0.34795 0.0
C733 C 0.88523 0.89283 0.36438 0.0
C734 C 0.87409 0.87891 0.35674 0.0
C735 C 0.90702 0.92026 0.35621 0.0
C736 C 0.92501 0.90965 0.36863 0.0
C737 C 0.90209 0.94354 0.35118 0.0
C738 C 0.88257 0.95587 0.33944 0.0
C739 C 0.86211 0.95409 0.34881 0.0
C740 C 0.84374 0.96581 0.33772 0.0
C741 C 0.84561 0.9795 0.31733 0.0
C742 C 0.86586 0.98153 0.30803 0.0
C743 C 0.88429 0.96981 0.31903 0.0
H744 H 0.83136 0.98858 0.30878 0.0
H745 H 1.00964 0.87619 0.41705 0.0
H746 H 0.11143 0.98318 0.38393 0.0
H747 H 0.1423 0.95261 0.37202 0.0
H748 H 0.10833 0.93978 0.31575 0.0
H749 H 0.0771 0.97092 0.32747 0.0
H750 H 0.13127 0.8999 0.348 0.0
H751 H 0.14387 0.96326 0.29849 0.0
H752 H 0.14648 1.00196 0.29293 0.0
H753 H 0.19644 0.98706 0.3406 0.0
H754 H 0.19389 0.94835 0.34672 0.0
H755 H 0.22641 0.82075 0.30062 0.0
H756 H 0.19205 0.84931 0.30716 0.0
H757 H 0.22472 0.88942 0.33959 0.0
H758 H 0.2589 0.86198 0.33116 0.0
H759 H 0.19997 0.9158 0.31586 0.0
H760 H 0.18809 0.85708 0.37024 0.0
H761 H 0.18556 0.81931 0.38365 0.0
H762 H 0.13581 0.82522 0.33724 0.0
H763 H 0.13826 0.86293 0.32331 0.0
C764 C 0.11046 0.97399 0.36891 0.0
C765 C 0.09177 0.97962 0.35658 0.0
C766 C 0.12816 0.95644 0.36218 0.0
C767 C 0.12763 0.94382 0.34307 0.0
C768 C 0.10903 0.94926 0.33064 0.0
C769 C 0.0913 0.96717 0.33718 0.0
C770 C 0.14692 0.92546 0.33599 0.0
C771 C 0.14624 0.90326 0.34052 0.0
C772 C 0.16667 0.92985 0.32731 0.0
C773 C 0.16861 0.95295 0.32312 0.0
C774 C 0.15534 0.96827 0.30786 0.0
C775 C 0.15681 0.99021 0.30461 0.0
C776 C 0.1716 0.99697 0.31642 0.0
C777 C 0.185 0.9818 0.33145 0.0
C778 C 0.18357 0.95985 0.33479 0.0
C779 C 0.22611 0.83568 0.30919 0.0
C780 C 0.24534 0.83917 0.3153 0.0
C781 C 0.20641 0.852 0.31313 0.0
C782 C 0.20544 0.87173 0.32415 0.0
C783 C 0.22474 0.87469 0.33081 0.0
C784 C 0.24437 0.85884 0.32614 0.0
C785 C 0.18476 0.88975 0.32816 0.0
C786 C 0.18511 0.91208 0.32311 0.0
C787 C 0.16495 0.8854 0.33733 0.0
C788 C 0.16354 0.86271 0.34553 0.0
C789 C 0.17673 0.85025 0.36276 0.0
C790 C 0.1753 0.82887 0.37047 0.0
C791 C 0.16058 0.81985 0.36125 0.0
C792 C 0.14724 0.83221 0.34432 0.0
C793 C 0.14864 0.85359 0.33652 0.0
H794 H 0.15948 0.8033 0.36726 0.0
H795 H 0.1727 0.01397 0.3139 0.0
H796 H 0.09617 0.95786 0.69731 0.0
H797 H 0.12689 0.92793 0.70829 0.0
H798 H 0.12326 0.95554 0.77616 0.0
H799 H 0.0921 0.98629 0.76499 0.0
H800 H 0.16631 0.94138 0.75349 0.0
H801 H 0.10522 0.90994 0.77189 0.0
H802 H 0.07232 0.90187 0.76118 0.0
H803 H 0.10868 0.86409 0.70355 0.0
H804 H 0.14172 0.87222 0.71368 0.0
H805 H 0.23652 0.83966 0.80316 0.0
H806 H 0.20574 0.8723 0.79662 0.0
H807 H 0.20457 0.85301 0.72574 0.0
H808 H 0.23562 0.82107 0.7318 0.0
H809 H 0.16349 0.86302 0.75237 0.0
H810 H 0.22068 0.89395 0.7269 0.0
H811 H 0.25493 0.9036 0.72784 0.0
H812 H 0.2286 0.94268 0.78806 0.0
H813 H 0.19423 0.93289 0.78774 0.0
C814 C 0.10167 0.95768 0.71471 0.0
C815 C 0.09133 0.9745 0.73037 0.0
C816 C 0.11936 0.94039 0.72097 0.0
C817 C 0.12734 0.93913 0.74321 0.0
C818 C 0.11732 0.956 0.75895 0.0
C819 C 0.09938 0.97347 0.75265 0.0
C820 C 0.14605 0.92003 0.74962 0.0
C821 C 0.16549 0.92427 0.75393 0.0
C822 C 0.14553 0.89757 0.74882 0.0
C823 C 0.12588 0.89182 0.74347 0.0
C824 C 0.10618 0.89995 0.75692 0.0
C825 C 0.08751 0.89538 0.75093 0.0
C826 C 0.08843 0.88255 0.73165 0.0
C827 C 0.10802 0.87405 0.71846 0.0
C828 C 0.12671 0.8786 0.72434 0.0
C829 C 0.22984 0.84257 0.7861 0.0
C830 C 0.23866 0.82786 0.76795 0.0
C831 C 0.21224 0.86119 0.78239 0.0
C832 C 0.20279 0.86514 0.76067 0.0
C833 C 0.21153 0.85037 0.74263 0.0
C834 C 0.2294 0.83215 0.7461 0.0
C835 C 0.18356 0.88439 0.7568 0.0
C836 C 0.16414 0.88014 0.75265 0.0
C837 C 0.18434 0.90677 0.75686 0.0
C838 C 0.20503 0.91234 0.75759 0.0
C839 C 0.2223 0.9043 0.7406 0.0
C840 C 0.2417 0.90987 0.74095 0.0
C841 C 0.24398 0.92365 0.75809 0.0
C842 C 0.22683 0.93192 0.77487 0.0
C843 C 0.20738 0.92636 0.77462 0.0
H844 H 0.25901 0.928 0.7583 0.0
H845 H 0.07397 0.87923 0.72684 0.0
H846 H 0.07559 0.09921 0.72266 0.0
H847 H 0.101 0.11853 0.73336 0.0
H848 H 0.15097 0.07898 0.68636 0.0
H849 H 0.1256 0.05929 0.67583 0.0
H850 H 0.16486 0.08243 0.73052 0.0
H851 H 0.12941 0.13095 0.66923 0.0
H852 H 0.09834 0.15297 0.64826 0.0
H853 H 0.07513 0.19286 0.70847 0.0
H854 H 0.10591 0.17085 0.72995 0.0
H855 H 0.23271 0.15562 0.74016 0.0
H856 H 0.21259 0.13208 0.72575 0.0
H857 H 0.15514 0.16737 0.76649 0.0
H858 H 0.17486 0.19119 0.78042 0.0
H859 H 0.14788 0.16479 0.72117 0.0
H860 H 0.18259 0.11468 0.78318 0.0
H861 H 0.21321 0.09186 0.80435 0.0
H862 H 0.238 0.05456 0.74255 0.0
H863 H 0.2077 0.07742 0.72089 0.0
C864 C 0.09198 0.09461 0.71462 0.0
C865 C 0.09855 0.07779 0.69835 0.0
C866 C 0.10646 0.10572 0.72066 0.0
C867 C 0.12783 0.10029 0.71053 0.0
C868 C 0.13453 0.08345 0.69433 0.0
C869 C 0.11997 0.0724 0.68815 0.0
C870 C 0.14299 0.11235 0.71703 0.0
C871 C 0.16141 0.1004 0.7281 0.0
C872 C 0.13831 0.13579 0.71414 0.0
C873 C 0.11987 0.14916 0.70125 0.0
C874 C 0.11759 0.14432 0.67806 0.0
C875 C 0.10005 0.15681 0.66607 0.0
C876 C 0.08475 0.17428 0.67704 0.0
C877 C 0.08699 0.17932 0.7 0.0
C878 C 0.10449 0.16686 0.71208 0.0
C879 C 0.2158 0.15831 0.74608 0.0
C880 C 0.20541 0.1753 0.76145 0.0
C881 C 0.20438 0.14472 0.73799 0.0
C882 C 0.18237 0.14793 0.7451 0.0
C883 C 0.17211 0.16458 0.76078 0.0
C884 C 0.18348 0.17808 0.76889 0.0
C885 C 0.16952 0.13498 0.73527 0.0
C886 C 0.15152 0.14679 0.72343 0.0
C887 C 0.17468 0.11144 0.73742 0.0
C888 C 0.19306 0.09796 0.75032 0.0
C889 C 0.19472 0.1018 0.77402 0.0
C890 C 0.21198 0.08881 0.78613 0.0
C891 C 0.22759 0.07183 0.77478 0.0
C892 C 0.22594 0.06777 0.7513 0.0
C893 C 0.20873 0.08073 0.7391 0.0
H894 H 0.24092 0.06176 0.7842 0.0
H895 H 0.07117 0.18394 0.66773 0.0
H896 H 0.9814 0.10086 0.69092 0.0
H897 H 0.95071 0.13161 0.70178 0.0
H898 H 0.95724 0.11213 0.77582 0.0
H899 H 0.98832 0.08053 0.76493 0.0
H900 H 0.9144 0.12438 0.7653 0.0
H901 H 0.97415 0.15695 0.74978 0.0
H902 H 1.00573 0.16462 0.72611 0.0
H903 H 0.96638 0.1947 0.66953 0.0
H904 H 0.93463 0.18691 0.69272 0.0
H905 H 0.84138 0.22731 0.80182 0.0
H906 H 0.87321 0.19552 0.79602 0.0
H907 H 0.87543 0.21097 0.72051 0.0
H908 H 0.84369 0.24268 0.72623 0.0
H909 H 0.91477 0.20077 0.73427 0.0
H910 H 0.8566 0.16768 0.74538 0.0
H911 H 0.82403 0.15861 0.76491 0.0
H912 H 0.85853 0.12846 0.82508 0.0
H913 H 0.89125 0.1377 0.80603 0.0
C914 C 0.9765 0.10294 0.70961 0.0
C915 C 0.98765 0.08812 0.72704 0.0
C916 C 0.95884 0.12075 0.71579 0.0
C917 C 0.95175 0.12463 0.73965 0.0
C918 C 0.96245 0.10965 0.75725 0.0
C919 C 0.98028 0.09161 0.75102 0.0
C920 C 0.93325 0.14442 0.74578 0.0
C921 C 0.91469 0.14115 0.75899 0.0
C922 C 0.93308 0.16631 0.73675 0.0
C923 C 0.95208 0.17121 0.72291 0.0
C924 C 0.97228 0.16508 0.73223 0.0
C925 C 0.9902 0.16946 0.7189 0.0
C926 C 0.98807 0.1801 0.69631 0.0
C927 C 0.96801 0.18645 0.68702 0.0
C928 C 0.95005 0.18207 0.70025 0.0
C929 C 0.84878 0.22406 0.78399 0.0
C930 C 0.83997 0.23763 0.76447 0.0
C931 C 0.8669 0.20572 0.78067 0.0
C932 C 0.87673 0.20054 0.75777 0.0
C933 C 0.86824 0.21446 0.73836 0.0
C934 C 0.85006 0.23266 0.74165 0.0
C935 C 0.89589 0.18081 0.75391 0.0
C936 C 0.91455 0.18408 0.74097 0.0
C937 C 0.89596 0.1589 0.76277 0.0
C938 C 0.87626 0.1537 0.77446 0.0
C939 C 0.85716 0.15937 0.76291 0.0
C940 C 0.83869 0.15415 0.77386 0.0
C941 C 0.83918 0.14306 0.79627 0.0
C942 C 0.85816 0.13713 0.80775 0.0
C943 C 0.87667 0.14236 0.7969 0.0
H944 H 0.82486 0.13899 0.80471 0.0
H945 H 1.00197 0.18347 0.68602 0.0
H946 H 1.00325 0.96768 0.73043 0.0
H947 H 0.98022 0.94283 0.73684 0.0
H948 H 0.96329 0.95682 0.66463 0.0
H949 H 0.98535 0.98279 0.65828 0.0
H950 H 0.9289 0.95916 0.69197 0.0
H951 H 0.99731 0.90512 0.68552 0.0
H952 H 0.03451 0.88521 0.69396 0.0
H953 H 1.01285 0.87229 0.76649 0.0
H954 H 0.9756 0.89241 0.75859 0.0
H955 H 0.87332 0.87574 0.69682 0.0
H956 H 0.90072 0.89585 0.68662 0.0
H957 H 0.91306 0.8919 0.76028 0.0
H958 H 0.88598 0.87125 0.77058 0.0
H959 H 0.9503 0.88309 0.73028 0.0
H960 H 0.88227 0.93896 0.73662 0.0
H961 H 0.84484 0.9566 0.72736 0.0
H962 H 0.86628 0.9648 0.65381 0.0
H963 H 0.90383 0.94689 0.66262 0.0
C964 C 0.99469 0.96572 0.71578 0.0
C965 C 0.9962 0.97773 0.69382 0.0
C966 C 0.98167 0.9511 0.71946 0.0
C967 C 0.97018 0.94768 0.70115 0.0
C968 C 0.97202 0.95915 0.67906 0.0
C969 C 0.98482 0.974 0.67543 0.0
C970 C 0.95514 0.93336 0.70554 0.0
C971 C 0.93377 0.94237 0.69993 0.0
C972 C 0.96121 0.91164 0.71649 0.0
C973 C 0.98372 0.90041 0.72149 0.0
C974 C 1.00054 0.89828 0.70333 0.0
C975 C 0.02162 0.88691 0.70801 0.0
C976 C 0.02601 0.87747 0.73074 0.0
C977 C 1.0094 0.87959 0.7489 0.0
C978 C 0.98832 0.89097 0.74433 0.0
C979 C 0.88209 0.87884 0.71081 0.0
C980 C 0.87749 0.87192 0.73453 0.0
C981 C 0.8976 0.89051 0.70497 0.0
C982 C 0.90871 0.89556 0.72274 0.0
C983 C 0.90458 0.8882 0.74633 0.0
C984 C 0.88902 0.87657 0.75221 0.0
C985 C 0.9243 0.90899 0.71679 0.0
C986 C 0.94564 0.89983 0.72214 0.0
C987 C 0.91828 0.93052 0.70552 0.0
C988 C 0.89578 0.94141 0.70023 0.0
C989 C 0.87897 0.94438 0.71845 0.0
C990 C 0.85774 0.95444 0.71329 0.0
C991 C 0.85317 0.96176 0.69 0.0
C992 C 0.86984 0.95909 0.67184 0.0
C993 C 0.89109 0.949 0.6769 0.0
H994 H 0.83673 0.96955 0.68604 0.0
H995 H 0.04222 0.86833 0.73429 0.0
H996 H 0.29607 0.0864 0.16626 0.0
H997 H 0.30129 0.11249 0.19392 0.0
H998 H 0.27233 0.16779 0.14683 0.0
H999 H 0.26639 0.1418 0.11975 0.0
H1000 H 0.31771 0.16298 0.1635 0.0
H1001 H 0.24348 0.16683 0.18766 0.0
H1002 H 0.21261 0.15217 0.20218 0.0
H1003 H 0.24273 0.12561 0.26609 0.0
H1004 H 0.27407 0.1397 0.25164 0.0
H1005 H 0.29762 0.26374 0.2158 0.0
H1006 H 0.29614 0.23109 0.19645 0.0
H1007 H 0.30715 0.19144 0.26211 0.0
H1008 H 0.30841 0.22461 0.28191 0.0
H1009 H 0.27506 0.18305 0.24016 0.0
H1010 H 0.34695 0.18477 0.21749 0.0
H1011 H 0.37661 0.2013 0.20285 0.0
H1012 H 0.34984 0.21901 0.13561 0.0
H1013 H 0.3198 0.20291 0.14999 0.0
C1014 C 0.29065 0.10415 0.1621 0.0
C1015 C 0.28076 0.11225 0.14111 0.0
C1016 C 0.29357 0.11896 0.17782 0.0
C1017 C 0.28712 0.14198 0.17236 0.0
C1018 C 0.27729 0.15006 0.15135 0.0
C1019 C 0.27384 0.1353 0.136 0.0
C1020 C 0.29164 0.1577 0.18787 0.0
C1021 C 0.3083 0.16754 0.18018 0.0
C1022 C 0.2798 0.16295 0.20994 0.0
C1023 C 0.26134 0.15385 0.21833 0.0
C1024 C 0.24375 0.15743 0.20457 0.0
C1025 C 0.2261 0.14935 0.21285 0.0
C1026 C 0.22576 0.13784 0.23498 0.0
C1027 C 0.24307 0.13442 0.24889 0.0
C1028 C 0.26079 0.14244 0.24066 0.0
C1029 C 0.29998 0.24806 0.22616 0.0
C1030 C 0.30324 0.24672 0.25037 0.0
C1031 C 0.29918 0.22935 0.21502 0.0
C1032 C 0.30189 0.2087 0.2277 0.0
C1033 C 0.30516 0.20719 0.25195 0.0
C1034 C 0.30596 0.22608 0.26321 0.0
C1035 C 0.30058 0.18915 0.21534 0.0
C1036 C 0.28469 0.17834 0.22365 0.0
C1037 C 0.313 0.18311 0.19368 0.0
C1038 C 0.33108 0.19271 0.18487 0.0
C1039 C 0.34732 0.19231 0.19963 0.0
C1040 C 0.3642 0.2016 0.19137 0.0
C1041 C 0.3651 0.21122 0.16832 0.0
C1042 C 0.34912 0.21155 0.15346 0.0
C1043 C 0.33218 0.20232 0.16165 0.0
H1044 H 0.3782 0.21839 0.16195 0.0
H1045 H 0.21204 0.13166 0.2414 0.0
H1046 H 0.97044 0.31487 0.09501 0.0
H1047 H 0.93836 0.30732 0.1172 0.0
H1048 H 0.95678 0.327 0.18117 0.0
H1049 H 0.98883 0.33434 0.15923 0.0
H1050 H 0.94445 0.28858 0.18909 0.0
H1051 H 0.91673 0.36138 0.15217 0.0
H1052 H 0.90983 0.38951 0.11881 0.0
H1053 H 0.8753 0.35134 0.08713 0.0
H1054 H 0.88227 0.32281 0.12017 0.0
H1055 H 0.84533 0.31446 0.26225 0.0
H1056 H 0.87596 0.3194 0.2354 0.0
H1057 H 0.85993 0.28105 0.18387 0.0
H1058 H 0.82949 0.27537 0.21106 0.0
H1059 H 0.87041 0.32657 0.16764 0.0
H1060 H 0.89729 0.25418 0.20506 0.0
H1061 H 0.90333 0.22666 0.23902 0.0
H1062 H 0.93921 0.26409 0.26966 0.0
H1063 H 0.93297 0.29212 0.23608 0.0
C1064 C 0.96764 0.31761 0.11379 0.0
C1065 C 0.98217 0.32545 0.12523 0.0
C1066 C 0.94924 0.31337 0.12645 0.0
C1067 C 0.94503 0.31671 0.15088 0.0
C1068 C 0.9596 0.32433 0.16235 0.0
C1069 C 0.97785 0.32876 0.14969 0.0
C1070 C 0.92555 0.31223 0.16462 0.0
C1071 C 0.92829 0.29702 0.18443 0.0
C1072 C 0.90438 0.3228 0.15836 0.0
C1073 C 0.90024 0.33985 0.13847 0.0
C1074 C 0.90784 0.35889 0.13797 0.0
C1075 C 0.90388 0.37492 0.11915 0.0
C1076 C 0.89219 0.37218 0.10082 0.0
C1077 C 0.88439 0.35342 0.10131 0.0
C1078 C 0.88833 0.33732 0.12008 0.0
C1079 C 0.84815 0.30721 0.24513 0.0
C1080 C 0.83487 0.29459 0.23876 0.0
C1081 C 0.86572 0.31001 0.22984 0.0
C1082 C 0.8702 0.30063 0.20765 0.0
C1083 C 0.8567 0.28849 0.2009 0.0
C1084 C 0.83936 0.28523 0.21646 0.0
C1085 C 0.88943 0.30306 0.19202 0.0
C1086 C 0.88662 0.31795 0.17202 0.0
C1087 C 0.91054 0.29218 0.19804 0.0
C1088 C 0.91442 0.27539 0.21823 0.0
C1089 C 0.90624 0.25669 0.21919 0.0
C1090 C 0.90974 0.24097 0.23833 0.0
C1091 C 0.92159 0.24366 0.25653 0.0
C1092 C 0.93 0.26206 0.25558 0.0
C1093 C 0.92648 0.27787 0.23649 0.0
H1094 H 0.92429 0.23146 0.27134 0.0
H1095 H 0.88912 0.38462 0.08627 0.0
H1096 H 0.81008 0.90744 0.05783 0.0
H1097 H 0.80139 0.88868 0.09576 0.0
H1098 H 0.78652 0.95082 0.12984 0.0
H1099 H 0.79476 0.96978 0.09177 0.0
H1100 H 0.81736 0.90689 0.15193 0.0
H1101 H 0.74667 0.94052 0.12338 0.0
H1102 H 0.7207 0.94805 0.09294 0.0
H1103 H 0.72837 0.87793 0.08984 0.0
H1104 H 0.7547 0.86997 0.11996 0.0
H1105 H 0.78443 0.85792 0.25925 0.0
H1106 H 0.78326 0.8864 0.22677 0.0
H1107 H 0.76837 0.84302 0.1796 0.0
H1108 H 0.76791 0.81543 0.21229 0.0
H1109 H 0.75048 0.88195 0.16547 0.0
H1110 H 0.82229 0.84583 0.18648 0.0
H1111 H 0.85076 0.83347 0.21409 0.0
H1112 H 0.845 0.90149 0.2276 0.0
H1113 H 0.8163 0.91423 0.20022 0.0
C1114 C 0.8052 0.91701 0.07348 0.0
C1115 C 0.80319 0.93999 0.072 0.0
C1116 C 0.80011 0.90635 0.09501 0.0
C1117 C 0.79328 0.91846 0.11542 0.0
C1118 C 0.79175 0.94129 0.11418 0.0
C1119 C 0.79641 0.95205 0.09253 0.0
C1120 C 0.78768 0.90713 0.13802 0.0
C1121 C 0.80256 0.90178 0.15519 0.0
C1122 C 0.76875 0.89987 0.1417 0.0
C1123 C 0.75281 0.90466 0.12374 0.0
C1124 C 0.74299 0.9267 0.11602 0.0
C1125 C 0.72817 0.93105 0.09887 0.0
C1126 C 0.72293 0.91348 0.08942 0.0
C1127 C 0.73247 0.89153 0.09715 0.0
C1128 C 0.74733 0.88709 0.11427 0.0
C1129 C 0.78028 0.85482 0.2421 0.0
C1130 C 0.77634 0.83448 0.23824 0.0
C1131 C 0.77983 0.87098 0.22348 0.0
C1132 C 0.77643 0.86659 0.2005 0.0
C1133 C 0.77111 0.84684 0.19709 0.0
C1134 C 0.77086 0.83104 0.21584 0.0
C1135 C 0.78025 0.88141 0.17961 0.0
C1136 C 0.76513 0.88733 0.16258 0.0
C1137 C 0.79938 0.88851 0.17564 0.0
C1138 C 0.81705 0.88096 0.19151 0.0
C1139 C 0.82709 0.85814 0.19538 0.0
C1140 C 0.84324 0.85106 0.211 0.0
C1141 C 0.84964 0.86668 0.22266 0.0
C1142 C 0.84 0.88942 0.21859 0.0
C1143 C 0.82381 0.89658 0.20301 0.0
H1144 H 0.8621 0.86118 0.23481 0.0
H1145 H 0.71144 0.91688 0.07614 0.0
H1146 H 0.09694 0.75466 0.03016 0.0
H1147 H 0.12238 0.76373 0.05391 0.0
H1148 H 0.11582 0.71087 0.1054 0.0
H1149 H 0.08956 0.70242 0.08248 0.0
H1150 H 0.10909 0.74976 0.12565 0.0
H1151 H 0.16279 0.7069 0.07044 0.0
H1152 H 0.18504 0.69472 0.03351 0.0
H1153 H 0.19647 0.75925 0.02048 0.0
H1154 H 0.17405 0.7719 0.05717 0.0
H1155 H 0.19348 0.73891 0.19744 0.0
H1156 H 0.17061 0.73305 0.16839 0.0
H1157 H 0.17764 0.79243 0.12787 0.0
H1158 H 0.20075 0.79838 0.15697 0.0
H1159 H 0.18336 0.75471 0.10062 0.0
H1160 H 0.13236 0.79641 0.15735 0.0
H1161 H 0.11576 0.80608 0.1975 0.0
H1162 H 0.10125 0.74287 0.20856 0.0
H1163 H 0.11811 0.73265 0.1686 0.0
C1164 C 0.10094 0.74487 0.04649 0.0
C1165 C 0.09087 0.728 0.05457 0.0
C1166 C 0.11574 0.74991 0.05987 0.0
C1167 C 0.12107 0.73791 0.08134 0.0
C1168 C 0.11193 0.72033 0.08884 0.0
C1169 C 0.09701 0.71539 0.07559 0.0
C1170 C 0.13442 0.74503 0.09718 0.0
C1171 C 0.12542 0.75059 0.12019 0.0
C1172 C 0.15537 0.74711 0.0898 0.0
C1173 C 0.16656 0.7404 0.0664 0.0
C1174 C 0.1697 0.71862 0.05946 0.0
C1175 C 0.18253 0.71156 0.03871 0.0
C1176 C 0.19236 0.72613 0.02481 0.0
C1177 C 0.18902 0.74793 0.03137 0.0
C1178 C 0.17619 0.75506 0.05209 0.0
C1179 C 0.19036 0.75059 0.18221 0.0
C1180 C 0.19896 0.76903 0.17936 0.0
C1181 C 0.17715 0.74734 0.16578 0.0
C1182 C 0.17233 0.76243 0.14617 0.0
C1183 C 0.18116 0.78067 0.14298 0.0
C1184 C 0.19425 0.78407 0.15959 0.0
C1185 C 0.1582 0.75877 0.12901 0.0
C1186 C 0.16692 0.7541 0.10582 0.0
C1187 C 0.13701 0.75756 0.13614 0.0
C1188 C 0.12662 0.76371 0.16005 0.0
C1189 C 0.12576 0.78451 0.16841 0.0
C1190 C 0.1163 0.7901 0.19112 0.0
C1191 C 0.10748 0.77509 0.20559 0.0
C1192 C 0.10809 0.75447 0.19734 0.0
C1193 C 0.11758 0.74878 0.17465 0.0
H1194 H 0.10015 0.77944 0.22317 0.0
H1195 H 0.20237 0.72059 0.0088 0.0
H1196 H 0.26409 0.9899 0.05717 0.0
H1197 H 0.2567 0.95814 0.04029 0.0
H1198 H 0.26538 0.98794 0.96986 0.0
H1199 H 0.27209 0.01974 0.9867 0.0
H1200 H 0.23155 0.97239 0.97332 0.0
H1201 H 0.30541 0.94488 0.99682 0.0
H1202 H 0.33266 0.9352 0.02599 0.0
H1203 H 0.29928 0.89101 0.06468 0.0
H1204 H 0.2717 0.90065 0.03584 0.0
H1205 H 0.27429 0.89762 0.88698 0.0
H1206 H 0.26559 0.92444 0.91761 0.0
H1207 H 0.25385 0.87393 0.96975 0.0
H1208 H 0.26299 0.8467 0.93895 0.0
H1209 H 0.27926 0.89608 0.98514 0.0
H1210 H 0.21176 0.91707 0.95179 0.0
H1211 H 0.18786 0.92604 0.91924 0.0
H1212 H 0.21151 0.98273 0.89632 0.0
H1213 H 0.23581 0.97391 0.92843 0.0
C1214 C 0.26435 0.98956 0.03811 0.0
C1215 C 0.26849 1.00725 0.02319 0.0
C1216 C 0.26015 0.97147 0.0285 0.0
C1217 C 0.2605 0.97067 1.00381 0.0
C1218 C 0.26473 0.98834 0.98898 0.0
C1219 C 0.26858 1.00649 0.99857 0.0
C1220 C 0.25704 0.9514 0.99288 0.0
C1221 C 0.24192 0.95567 0.97594 0.0
C1222 C 0.26989 0.9294 0.99708 0.0
C1223 C 0.28637 0.92372 0.01441 0.0
C1224 C 0.30381 0.93324 0.01167 0.0
C1225 C 0.31932 0.92774 0.02811 0.0
C1226 C 0.31766 0.91257 0.04724 0.0
C1227 C 0.30051 0.90281 0.04991 0.0
C1228 C 0.28494 0.90829 0.03353 0.0
C1229 C 0.2694 0.89234 0.90485 0.0
C1230 C 0.26916 0.87018 0.91061 0.0
C1231 C 0.2644 0.90767 0.92235 0.0
C1232 C 0.25865 0.90127 0.94587 0.0
C1233 C 0.25809 0.8792 0.95167 0.0
C1234 C 0.26332 0.86373 0.93412 0.0
C1235 C 0.25488 0.91751 0.96439 0.0
C1236 C 0.26838 0.91261 0.98299 0.0
C1237 C 0.24075 0.93905 0.96149 0.0
C1238 C 0.22558 0.94484 0.94262 0.0
C1239 C 0.21188 0.93144 0.93981 0.0
C1240 C 0.19828 0.93648 0.9214 0.0
C1241 C 0.19815 0.95496 0.90574 0.0
C1242 C 0.21158 0.96846 0.9085 0.0
C1243 C 0.22523 0.96347 0.92684 0.0
H1244 H 0.18764 0.9588 0.89148 0.0
H1245 H 0.32969 0.90832 0.05994 0.0
H1246 H 0.13278 0.30046 0.01836 0.0
H1247 H 0.16122 0.29445 0.98542 0.0
H1248 H 0.11622 0.33547 0.93849 0.0
H1249 H 0.08806 0.34225 0.97159 0.0
H1250 H 0.16149 0.27718 0.93786 0.0
H1251 H 0.13251 0.36382 0.91939 0.0
H1252 H 0.11944 0.40041 0.93706 0.0
H1253 H 0.17176 0.38261 0.9818 0.0
H1254 H 0.18469 0.34567 0.96481 0.0
H1255 H 0.2333 0.28133 0.83262 0.0
H1256 H 0.20103 0.28599 0.86083 0.0
H1257 H 0.22945 0.31931 0.90699 0.0
H1258 H 0.26088 0.31555 0.87867 0.0
H1259 H 0.19055 0.34049 0.90682 0.0
H1260 H 0.22658 0.26217 0.91668 0.0
H1261 H 0.24276 0.22429 0.90302 0.0
H1262 H 0.18213 0.2232 0.87969 0.0
H1263 H 0.16567 0.26119 0.89301 0.0
C1264 C 0.12901 0.30818 1.00099 0.0
C1265 C 0.10828 0.32205 0.99759 0.0
C1266 C 0.14523 0.30472 0.98219 0.0
C1267 C 0.14099 0.31485 0.95955 0.0
C1268 C 0.12008 0.32804 0.95593 0.0
C1269 C 0.10398 0.33185 0.97482 0.0
C1270 C 0.15855 0.31209 0.93993 0.0
C1271 C 0.16769 0.29105 0.9308 0.0
C1272 C 0.16704 0.32995 0.93106 0.0
C1273 C 0.15928 0.352 0.94119 0.0
C1274 C 0.14103 0.36768 0.93319 0.0
C1275 C 0.13366 0.38844 0.94307 0.0
C1276 C 0.1447 0.39379 0.96063 0.0
C1277 C 0.16314 0.37839 0.96833 0.0
C1278 C 0.17042 0.35751 0.95867 0.0
C1279 C 0.23251 0.28975 0.84874 0.0
C1280 C 0.24961 0.29814 0.85336 0.0
C1281 C 0.21413 0.29228 0.86498 0.0
C1282 C 0.21274 0.30285 0.88633 0.0
C1283 C 0.22988 0.31122 0.89072 0.0
C1284 C 0.24796 0.309 0.87446 0.0
C1285 C 0.19362 0.3055 0.90424 0.0
C1286 C 0.18423 0.32656 0.91335 0.0
C1287 C 0.1852 0.28749 0.91324 0.0
C1288 C 0.19497 0.26457 0.9056 0.0
C1289 C 0.21674 0.25388 0.90853 0.0
C1290 C 0.22595 0.23239 0.90086 0.0
C1291 C 0.21349 0.22137 0.89042 0.0
C1292 C 0.19177 0.23177 0.88774 0.0
C1293 C 0.18248 0.25326 0.89537 0.0
H1294 H 0.22066 0.20476 0.88446 0.0
H1295 H 0.13902 0.40991 0.9682 0.0
H1296 H 0.76875 0.06405 0.93478 0.0
H1297 H 0.7602 0.10181 0.91661 0.0
H1298 H 0.82234 0.1078 0.93102 0.0
H1299 H 0.83073 0.07024 0.95003 0.0
H1300 H 0.78949 0.14522 0.94192 0.0
H1301 H 0.81297 0.09667 0.87568 0.0
H1302 H 0.81082 0.06602 0.85217 0.0
H1303 H 0.74507 0.09975 0.84075 0.0
H1304 H 0.74676 0.13047 0.86444 0.0
H1305 H 0.80751 0.23228 0.86446 0.0
H1306 H 0.80655 0.19869 0.88853 0.0
H1307 H 0.74896 0.19669 0.85782 0.0
H1308 H 0.75051 0.22997 0.83255 0.0
H1309 H 0.77421 0.15825 0.85734 0.0
H1310 H 0.7501 0.20843 0.91849 0.0
H1311 H 0.74923 0.23924 0.94329 0.0
H1312 H 0.81106 0.2039 0.96649 0.0
H1313 H 0.81248 0.173 0.94154 0.0
C1314 C 0.78056 0.07342 0.93426 0.0
C1315 C 0.80047 0.06406 0.94382 0.0
C1316 C 0.77569 0.09497 0.92372 0.0
C1317 C 0.7907 0.10754 0.9223 0.0
C1318 C 0.81054 0.09835 0.93192 0.0
C1319 C 0.81542 0.07678 0.94252 0.0
C1320 C 0.78592 0.13014 0.91042 0.0
C1321 C 0.78633 0.14814 0.92337 0.0
C1322 C 0.78079 0.13401 0.88656 0.0
C1323 C 0.77994 0.11575 0.87198 0.0
C1324 C 0.79803 0.09748 0.86825 0.0
C1325 C 0.7969 0.08011 0.85488 0.0
C1326 C 0.77781 0.08092 0.84502 0.0
C1327 C 0.75984 0.09914 0.84842 0.0
C1328 C 0.76088 0.11654 0.86178 0.0
C1329 C 0.79437 0.225 0.86306 0.0
C1330 C 0.77904 0.23387 0.84657 0.0
C1331 C 0.79376 0.20577 0.87704 0.0
C1332 C 0.77748 0.19524 0.87537 0.0
C1333 C 0.76168 0.2045 0.85948 0.0
C1334 C 0.76252 0.22357 0.84511 0.0
C1335 C 0.77822 0.17356 0.88864 0.0
C1336 C 0.77706 0.15562 0.87598 0.0
C1337 C 0.78217 0.16987 0.91294 0.0
C1338 C 0.78145 0.18843 0.928 0.0
C1339 C 0.76359 0.20728 0.92874 0.0
C1340 C 0.76299 0.22476 0.94285 0.0
C1341 C 0.7801 0.22354 0.95643 0.0
C1342 C 0.79783 0.20482 0.95595 0.0
C1343 C 0.79853 0.1873 0.94185 0.0
H1344 H 0.77959 0.23709 0.96735 0.0
H1345 H 0.77696 0.06744 0.8347 0.0
H1346 H 0.98846 0.72064 0.92156 0.0
H1347 H 0.95912 0.7265 0.89552 0.0
H1348 H 0.91357 0.75833 0.95138 0.0
H1349 H 0.94304 0.7533 0.97708 0.0
H1350 H 0.91231 0.71385 0.91569 0.0
H1351 H 0.90844 0.79357 0.92632 0.0
H1352 H 0.92662 0.82347 0.92568 0.0
H1353 H 0.95296 0.80992 0.85414 0.0
H1354 H 0.93537 0.77952 0.85465 0.0
H1355 H 0.81555 0.74991 0.85827 0.0
H1356 H 0.84434 0.74356 0.88463 0.0
H1357 H 0.88456 0.76626 0.82805 0.0
H1358 H 0.85519 0.77401 0.80219 0.0
H1359 H 0.88946 0.78294 0.86458 0.0
H1360 H 0.89098 0.70824 0.84976 0.0
H1361 H 0.87643 0.676 0.84773 0.0
H1362 H 0.8584 0.67661 0.9227 0.0
H1363 H 0.87258 0.70905 0.92512 0.0
C1364 C 0.97218 0.72896 0.92815 0.0
C1365 C 0.96791 0.73664 0.95119 0.0
C1366 C 0.9555 0.73231 0.91333 0.0
C1367 C 0.93429 0.74301 0.92151 0.0
C1368 C 0.92991 0.75033 0.94467 0.0
C1369 C 0.94667 0.74749 0.95928 0.0
C1370 C 0.9167 0.74631 0.90584 0.0
C1371 C 0.90701 0.72904 0.9047 0.0
C1372 C 0.91048 0.76578 0.89098 0.0
C1373 C 0.92095 0.78404 0.8907 0.0
C1374 C 0.9184 0.79673 0.91062 0.0
C1375 C 0.92854 0.81381 0.91025 0.0
C1376 C 0.94103 0.81852 0.88992 0.0
C1377 C 0.94337 0.80619 0.86991 0.0
C1378 C 0.93335 0.78902 0.87025 0.0
C1379 C 0.83063 0.75331 0.8514 0.0
C1380 C 0.83318 0.76233 0.82813 0.0
C1381 C 0.84717 0.74957 0.86647 0.0
C1382 C 0.86691 0.75402 0.85832 0.0
C1383 C 0.86954 0.76269 0.83488 0.0
C1384 C 0.85279 0.76701 0.82003 0.0
C1385 C 0.88448 0.75051 0.87442 0.0
C1386 C 0.89444 0.7677 0.87556 0.0
C1387 C 0.89117 0.73073 0.889 0.0
C1388 C 0.88268 0.71119 0.88757 0.0
C1389 C 0.88378 0.70159 0.86578 0.0
C1390 C 0.87561 0.68327 0.86456 0.0
C1391 C 0.86645 0.67429 0.88506 0.0
C1392 C 0.86548 0.68359 0.90683 0.0
C1393 C 0.8736 0.70193 0.90814 0.0
H1394 H 0.86015 0.6601 0.88408 0.0
H1395 H 0.94882 0.83179 0.88964 0.0
H1396 H 0.08553 0.30218 0.1411 0.0
H1397 H 0.10834 0.30508 0.17192 0.0
H1398 H 0.16499 0.2741 0.12733 0.0
H1399 H 0.14239 0.27084 0.09678 0.0
H1400 H 0.17039 0.25816 0.17091 0.0
H1401 H 0.14718 0.33204 0.13437 0.0
H1402 H 0.12087 0.3665 0.12136 0.0
H1403 H 0.0944 0.37673 0.19342 0.0
H1404 H 0.12036 0.34214 0.20681 0.0
H1405 H 0.24469 0.31056 0.22176 0.0
H1406 H 0.21828 0.30906 0.19418 0.0
H1407 H 0.17792 0.2897 0.25256 0.0
H1408 H 0.20479 0.28996 0.27994 0.0
H1409 H 0.16398 0.33116 0.20336 0.0
H1410 H 0.18333 0.25298 0.23781 0.0
H1411 H 0.21074 0.21928 0.25051 0.0
H1412 H 0.24482 0.21808 0.18134 0.0
H1413 H 0.21785 0.25228 0.16848 0.0
C1414 C 0.10283 0.29571 0.13796 0.0
C1415 C 0.11203 0.28623 0.11633 0.0
C1416 C 0.11593 0.29759 0.15556 0.0
C1417 C 0.13856 0.29015 0.15197 0.0
C1418 C 0.14766 0.28007 0.13069 0.0
C1419 C 0.13463 0.27821 0.11313 0.0
C1420 C 0.15288 0.29288 0.1701 0.0
C1421 C 0.16887 0.2742 0.17786 0.0
C1422 C 0.15115 0.31369 0.17959 0.0
C1423 C 0.13552 0.33439 0.17154 0.0
C1424 C 0.13562 0.34154 0.1474 0.0
C1425 C 0.12079 0.36111 0.13997 0.0
C1426 C 0.10593 0.37376 0.15654 0.0
C1427 C 0.10589 0.36689 0.1806 0.0
C1428 C 0.12065 0.34731 0.18812 0.0
C1429 C 0.23003 0.3063 0.22873 0.0
C1430 C 0.22676 0.30049 0.25304 0.0
C1431 C 0.215 0.30533 0.21294 0.0
C1432 C 0.19621 0.29898 0.22121 0.0
C1433 C 0.19244 0.29427 0.24566 0.0
C1434 C 0.20773 0.29457 0.26133 0.0
C1435 C 0.181 0.29644 0.20421 0.0
C1436 C 0.16515 0.31516 0.1965 0.0
C1437 C 0.18271 0.27573 0.19483 0.0
C1438 C 0.19891 0.25537 0.2024 0.0
C1439 C 0.19688 0.24576 0.22547 0.0
C1440 C 0.21227 0.22657 0.23266 0.0
C1441 C 0.22953 0.21667 0.21677 0.0
C1442 C 0.23148 0.2259 0.19364 0.0
C1443 C 0.21618 0.24521 0.18642 0.0
H1444 H 0.24128 0.20178 0.22238 0.0
H1445 H 0.09447 0.38891 0.15075 0.0
H1446 H 0.08754 0.73388 0.96874 0.0
H1447 H 0.1193 0.73721 0.94366 0.0
H1448 H 0.08614 0.80426 0.92124 0.0
H1449 H 0.05332 0.80049 0.94601 0.0
H1450 H 0.11039 0.78028 0.88298 0.0
H1451 H 0.1278 0.79522 0.96092 0.0
H1452 H 0.12666 0.78514 1.00395 0.0
H1453 H 0.16512 0.71889 0.99024 0.0
H1454 H 0.16697 0.72877 0.94731 0.0
H1455 H 0.21899 0.8031 0.85315 0.0
H1456 H 0.18503 0.80365 0.87701 0.0
H1457 H 0.19214 0.73568 0.86152 0.0
H1458 H 0.22576 0.73525 0.83681 0.0
H1459 H 0.18048 0.76288 0.91827 0.0
H1460 H 0.15856 0.74437 0.84283 0.0
H1461 H 0.15627 0.75031 0.79958 0.0
H1462 H 0.12443 0.81952 0.80783 0.0
H1463 H 0.12703 0.81399 0.85114 0.0
C1464 C 0.08696 0.74956 0.95881 0.0
C1465 C 0.06785 0.76703 0.95984 0.0
C1466 C 0.10532 0.75146 0.94439 0.0
C1467 C 0.10559 0.77113 0.93066 0.0
C1468 C 0.08657 0.7889 0.93172 0.0
C1469 C 0.06788 0.78691 0.94621 0.0
C1470 C 0.1259 0.77261 0.91556 0.0
C1471 C 0.12559 0.77683 0.89084 0.0
C1472 C 0.14612 0.76761 0.9253 0.0
C1473 C 0.1476 0.76274 0.95104 0.0
C1474 C 0.13636 0.77865 0.9672 0.0
C1475 C 0.13555 0.77297 0.99153 0.0
C1476 C 0.14583 0.75141 0.99979 0.0
C1477 C 0.15734 0.73564 0.98383 0.0
C1478 C 0.15847 0.74133 0.95953 0.0
C1479 C 0.21337 0.78822 0.85475 0.0
C1480 C 0.22527 0.76911 0.84295 0.0
C1481 C 0.19383 0.78861 0.86838 0.0
C1482 C 0.18567 0.76986 0.87084 0.0
C1483 C 0.19773 0.75057 0.85953 0.0
C1484 C 0.21709 0.7503 0.84549 0.0
C1485 C 0.16494 0.77038 0.88576 0.0
C1486 C 0.16522 0.76664 0.91046 0.0
C1487 C 0.1448 0.77544 0.87593 0.0
C1488 C 0.14343 0.77888 0.85004 0.0
C1489 C 0.15144 0.76092 0.83534 0.0
C1490 C 0.15 0.76419 0.81085 0.0
C1491 C 0.14033 0.78531 0.80094 0.0
C1492 C 0.13202 0.80319 0.81552 0.0
C1493 C 0.13351 0.80001 0.84002 0.0
H1494 H 0.13917 0.78781 0.78198 0.0
H1495 H 0.14487 0.74688 0.01854 0.0
H1496 H 0.28471 0.1088 0.0173 0.0
H1497 H 0.2893 0.13053 0.9805 0.0
H1498 H 0.35694 0.11788 0.98911 0.0
H1499 H 0.35254 0.09497 0.02606 0.0
H1500 H 0.31867 0.1697 0.97952 0.0
H1501 H 0.35932 0.09642 0.95085 0.0
H1502 H 0.36249 0.05665 0.9471 0.0
H1503 H 0.30374 0.07384 0.91264 0.0
H1504 H 0.29997 0.11371 0.91673 0.0
H1505 H 0.33651 0.22779 0.86986 0.0
H1506 H 0.3422 0.20128 0.90426 0.0
H1507 H 0.29391 0.17241 0.88403 0.0
H1508 H 0.28823 0.19869 0.84951 0.0
H1509 H 0.32625 0.14021 0.89966 0.0
H1510 H 0.28175 0.20779 0.92752 0.0
H1511 H 0.26966 0.24806 0.9333 0.0
H1512 H 0.32518 0.24318 0.97072 0.0
H1513 H 0.3378 0.20285 0.96481 0.0
C1514 C 0.30071 0.11014 0.01117 0.0
C1515 C 0.31835 0.0998 0.0244 0.0
C1516 C 0.30325 0.12274 0.99018 0.0
C1517 C 0.32341 0.12581 0.98201 0.0
C1518 C 0.34123 0.11557 0.99506 0.0
C1519 C 0.33877 0.10237 0.01601 0.0
C1520 C 0.32515 0.14019 0.96003 0.0
C1521 C 0.3211 0.16322 0.962 0.0
C1522 C 0.32673 0.13191 0.93728 0.0
C1523 C 0.32926 0.10801 0.93434 0.0
C1524 C 0.34696 0.0917 0.94272 0.0
C1525 C 0.34888 0.06914 0.94049 0.0
C1526 C 0.33329 0.06271 0.9297 0.0
C1527 C 0.31579 0.07884 0.92104 0.0
C1528 C 0.31375 0.10141 0.92331 0.0
C1529 C 0.32727 0.21563 0.87249 0.0
C1530 C 0.3119 0.21548 0.85677 0.0
C1531 C 0.33047 0.20053 0.89232 0.0
C1532 C 0.31837 0.18488 0.89696 0.0
C1533 C 0.30351 0.18422 0.88089 0.0
C1534 C 0.30024 0.19937 0.86112 0.0
C1535 C 0.32064 0.1698 0.91897 0.0
C1536 C 0.32475 0.14673 0.91706 0.0
C1537 C 0.3183 0.17814 0.94186 0.0
C1538 C 0.31089 0.20236 0.94544 0.0
C1539 C 0.29151 0.21534 0.93677 0.0
C1540 C 0.28453 0.23817 0.94011 0.0
C1541 C 0.29669 0.24819 0.9523 0.0
C1542 C 0.31582 0.23539 0.96123 0.0
C1543 C 0.3229 0.21254 0.95789 0.0
H1544 H 0.29126 0.26587 0.95489 0.0
H1545 H 0.33481 0.04524 0.92799 0.0
H1546 H 1.00577 0.24817 0.06448 0.0
H1547 H 0.97855 0.24951 0.03699 0.0
H1548 H 1.0047 0.29438 0.989 0.0
H1549 H 0.03204 0.2929 0.01597 0.0
H1550 H 0.95955 0.30908 0.99848 0.0
H1551 H 1.01375 0.24286 0.97474 0.0
H1552 H 0.03839 0.20559 0.9817 0.0
H1553 H 0.98465 0.17995 0.00731 0.0
H1554 H 0.95971 0.2172 1.00083 0.0
H1555 H 0.90818 0.31065 0.89409 0.0
H1556 H 0.93347 0.30744 0.92393 0.0
H1557 H 0.91043 0.25462 0.96153 0.0
H1558 H 0.88497 0.25776 0.93165 0.0
H1559 H 0.95241 0.24354 0.95978 0.0
H1560 H 0.89775 0.30798 0.98237 0.0
H1561 H 0.87213 0.34502 0.97756 0.0
H1562 H 0.92463 0.374 0.95703 0.0
H1563 H 0.95057 0.33706 0.96135 0.0
C1564 C 1.00599 0.258 0.04789 0.0
C1565 C 0.0213 0.27026 0.04247 0.0
C1566 C 0.99034 0.25883 0.03222 0.0
C1567 C 0.98951 0.27211 0.01092 0.0
C1568 C 1.00493 0.28408 1.00533 0.0
C1569 C 0.02072 0.28303 0.02076 0.0
C1570 C 0.97242 0.2739 0.99455 0.0
C1571 C 0.95813 0.2948 0.9898 0.0
C1572 C 0.97003 0.25519 0.98383 0.0
C1573 C 0.98493 0.23282 0.98757 0.0
C1574 C 1.00722 0.2293 0.98205 0.0
C1575 C 0.02123 0.20819 0.98587 0.0
C1576 C 1.0131 0.19042 0.99502 0.0
C1577 C 0.99093 0.19373 1.00028 0.0
C1578 C 0.97685 0.21484 0.99653 0.0
C1579 C 0.90819 0.29856 0.90888 0.0
C1580 C 0.89432 0.28457 0.91043 0.0
C1581 C 0.92275 0.29672 0.92599 0.0
C1582 C 0.92377 0.28098 0.9453 0.0
C1583 C 0.91002 0.26691 0.94687 0.0
C1584 C 0.89547 0.2687 0.92969 0.0
C1585 C 0.93957 0.27884 0.96338 0.0
C1586 C 0.95366 0.25786 0.9685 0.0
C1587 C 0.94158 0.29747 0.97469 0.0
C1588 C 0.92608 0.31971 0.97193 0.0
C1589 C 0.90382 0.32222 0.97661 0.0
C1590 C 0.88925 0.3432 0.97401 0.0
C1591 C 0.89674 0.36184 0.96692 0.0
C1592 C 0.91884 0.35954 0.96247 0.0
C1593 C 0.93349 0.33858 0.965 0.0
H1594 H 0.88543 0.37808 0.96494 0.0
H1595 H 0.02398 0.17408 0.99797 0.0
H1596 H 0.74471 0.95468 0.97428 0.0
H1597 H 0.73501 0.92829 0.95044 0.0
H1598 H 0.78526 0.93485 0.8964 0.0
H1599 H 0.79475 0.96103 0.91974 0.0
H1600 H 0.75086 0.934 0.87623 0.0
H1601 H 0.7926 0.89124 0.93725 0.0
H1602 H 0.80173 0.87914 0.9782 0.0
H1603 H 0.74274 0.85999 0.99311 0.0
H1604 H 0.73309 0.87235 0.95232 0.0
H1605 H 0.77767 0.8349 0.8147 0.0
H1606 H 0.77697 0.86565 0.8388 0.0
H1607 H 0.72451 0.85112 0.88464 0.0
H1608 H 0.7254 0.8201 0.86039 0.0
H1609 H 0.75482 0.85747 0.91005 0.0
H1610 H 0.71668 0.89743 0.84426 0.0
H1611 H 0.71209 0.90732 0.8018 0.0
H1612 H 0.76953 0.9297 0.79446 0.0
H1613 H 0.77462 0.91967 0.83679 0.0
C1614 C 0.75337 0.95076 0.95712 0.0
C1615 C 0.77053 0.95989 0.94894 0.0
C1616 C 0.74796 0.93555 0.9436 0.0
C1617 C 0.75955 0.92939 0.92167 0.0
C1618 C 0.77605 0.93928 0.91319 0.0
C1619 C 0.78151 0.95424 0.92665 0.0
C1620 C 0.75535 0.9121 0.90768 0.0
C1621 C 0.75173 0.91727 0.88366 0.0
C1622 C 0.75632 0.89026 0.91731 0.0
C1623 C 0.76196 0.88305 0.94188 0.0
C1624 C 0.78146 0.8847 0.94935 0.0
C1625 C 0.78675 0.87774 0.97251 0.0
C1626 C 0.77278 0.86889 0.98828 0.0
C1627 C 0.75351 0.86693 0.9809 0.0
C1628 C 0.74811 0.87392 0.95777 0.0
C1629 C 0.76561 0.83866 0.82944 0.0
C1630 C 0.75127 0.82546 0.83525 0.0
C1631 C 0.76528 0.85618 0.84338 0.0
C1632 C 0.75042 0.86103 0.86338 0.0
C1633 C 0.73603 0.84783 0.86923 0.0
C1634 C 0.73646 0.8302 0.8553 0.0
C1635 C 0.7505 0.87934 0.87856 0.0
C1636 C 0.75345 0.87433 0.90277 0.0
C1637 C 0.74939 0.90122 0.86899 0.0
C1638 C 0.74606 0.90772 0.84367 0.0
C1639 C 0.72836 0.90439 0.83357 0.0
C1640 C 0.72568 0.91002 0.80952 0.0
C1641 C 0.74052 0.91912 0.79544 0.0
C1642 C 0.75804 0.92267 0.80539 0.0
C1643 C 0.76081 0.91705 0.82941 0.0
H1644 H 0.73843 0.92344 0.77682 0.0
H1645 H 0.77692 0.86348 0.00619 0.0
H1646 H 0.93934 0.80127 0.05367 0.0
H1647 H 0.91542 0.7988 0.0896 0.0
H1648 H 0.96317 0.74197 0.11622 0.0
H1649 H 0.98748 0.7447 0.08041 0.0
H1650 H 0.92096 0.7355 0.11983 0.0
H1651 H 0.95444 0.7899 0.14122 0.0
H1652 H 0.96582 0.82461 0.13624 0.0
H1653 H 0.89988 0.86287 0.13412 0.0
H1654 H 0.88813 0.82835 0.13873 0.0
H1655 H 0.86141 0.72652 0.23121 0.0
H1656 H 0.88968 0.72915 0.19971 0.0
H1657 H 0.85451 0.79686 0.18174 0.0
H1658 H 0.82723 0.79458 0.21449 0.0
H1659 H 0.89218 0.797 0.17407 0.0
H1660 H 0.85777 0.74494 0.14905 0.0
H1661 H 0.8446 0.7113 0.15194 0.0
H1662 H 0.90906 0.67009 0.15787 0.0
H1663 H 0.92257 0.7035 0.15527 0.0
C1664 C 0.94496 0.78842 0.06729 0.0
C1665 C 0.96557 0.77335 0.06404 0.0
C1666 C 0.93118 0.787 0.08793 0.0
C1667 C 0.93732 0.77021 0.1059 0.0
C1668 C 0.95792 0.75513 0.10278 0.0
C1669 C 0.97194 0.75683 0.08231 0.0
C1670 C 0.92204 0.76821 0.12752 0.0
C1671 C 0.91492 0.74884 0.13189 0.0
C1672 C 0.9134 0.78578 0.14301 0.0
C1673 C 0.92044 0.80653 0.14005 0.0
C1674 C 0.94239 0.8057 0.13944 0.0
C1675 C 0.9489 0.82534 0.13674 0.0
C1676 C 0.93359 0.84593 0.13479 0.0
C1677 C 0.91173 0.84692 0.13558 0.0
C1678 C 0.90513 0.82732 0.13825 0.0
C1679 C 0.85999 0.74207 0.22078 0.0
C1680 C 0.84223 0.7604 0.22558 0.0
C1681 C 0.87602 0.74351 0.20236 0.0
C1682 C 0.87429 0.76302 0.18739 0.0
C1683 C 0.85659 0.7815 0.19263 0.0
C1684 C 0.84089 0.78024 0.21148 0.0
C1685 C 0.89071 0.7643 0.16644 0.0
C1686 C 0.8981 0.78357 0.16212 0.0
C1687 C 0.89921 0.74681 0.15065 0.0
C1688 C 0.89114 0.72671 0.1522 0.0
C1689 C 0.86911 0.7287 0.15111 0.0
C1690 C 0.86159 0.70968 0.15268 0.0
C1691 C 0.87598 0.68858 0.15516 0.0
C1692 C 0.89793 0.68644 0.156 0.0
C1693 C 0.90553 0.70541 0.15445 0.0
H1694 H 0.87012 0.67387 0.15637 0.0
H1695 H 0.93866 0.86112 0.13272 0.0
H1696 H 0.27475 0.99257 0.11842 0.0
H1697 H 0.27939 0.9579 0.14226 0.0
H1698 H 0.34627 0.95438 0.14649 0.0
H1699 H 0.34174 0.98963 0.12188 0.0
H1700 H 0.33865 0.91189 0.14116 0.0
H1701 H 0.31207 0.97208 0.19276 0.0
H1702 H 0.28813 0.00802 0.20523 0.0
H1703 H 0.23328 0.98173 0.20758 0.0
H1704 H 0.25687 0.94573 0.19477 0.0
H1705 H 0.3403 0.83316 0.2434 0.0
H1706 H 0.34412 0.86487 0.21642 0.0
H1707 H 0.2776 0.87852 0.20209 0.0
H1708 H 0.27375 0.84674 0.22857 0.0
H1709 H 0.28889 0.91617 0.21437 0.0
H1710 H 0.31407 0.85756 0.16071 0.0
H1711 H 0.33683 0.82163 0.14686 0.0
H1712 H 0.39336 0.8446 0.1478 0.0
H1713 H 0.37092 0.88058 0.16205 0.0
C1714 C 0.29057 0.98453 0.12425 0.0
C1715 C 0.3078 0.9942 0.11848 0.0
C1716 C 0.29318 0.96456 0.13794 0.0
C1717 C 0.31304 0.95365 0.14668 0.0
C1718 C 0.33071 0.96256 0.14009 0.0
C1719 C 0.32813 0.9827 0.12605 0.0
C1720 C 0.31447 0.9337 0.16359 0.0
C1721 C 0.32814 0.91292 0.15744 0.0
C1722 C 0.30039 0.93477 0.18462 0.0
C1723 C 0.28622 0.95626 0.19272 0.0
C1724 C 0.29489 0.974 0.19583 0.0
C1725 C 0.28139 0.99438 0.20296 0.0
C1726 C 0.2592 0.99717 0.20717 0.0
C1727 C 0.25047 0.97955 0.20432 0.0
C1728 C 0.2639 0.95915 0.19716 0.0
C1729 C 0.32654 0.84276 0.23431 0.0
C1730 C 0.30673 0.83729 0.23817 0.0
C1731 C 0.32877 0.86089 0.21885 0.0
C1732 C 0.31115 0.87415 0.20719 0.0
C1733 C 0.29143 0.8686 0.21087 0.0
C1734 C 0.28929 0.8503 0.22597 0.0
C1735 C 0.31289 0.89432 0.19186 0.0
C1736 C 0.2997 0.91516 0.19831 0.0
C1737 C 0.32736 0.89322 0.17118 0.0
C1738 C 0.34086 0.87163 0.16273 0.0
C1739 C 0.33138 0.85486 0.15822 0.0
C1740 C 0.34421 0.8345 0.15024 0.0
C1741 C 0.36654 0.8308 0.14653 0.0
C1742 C 0.37607 0.84747 0.15074 0.0
C1743 C 0.3633 0.86785 0.15876 0.0
H1744 H 0.37646 0.81504 0.14033 0.0
H1745 H 0.24877 0.01296 0.21268 0.0
H1746 H 0.79975 0.06327 0.0218 0.0
H1747 H 0.79633 0.09367 0.04743 0.0
H1748 H 0.74682 0.07265 0.09243 0.0
H1749 H 0.75006 0.042 0.06634 0.0
H1750 H 0.74063 0.12105 0.08591 0.0
H1751 H 0.79548 0.05411 0.10749 0.0
H1752 H 0.82754 0.02303 0.09847 0.0
H1753 H 0.86437 0.06946 0.07476 0.0
H1754 H 0.8324 0.10082 0.08326 0.0
H1755 H 0.75098 0.17081 0.18978 0.0
H1756 H 0.74833 0.14561 0.16035 0.0
H1757 H 0.80698 0.15421 0.12225 0.0
H1758 H 0.80994 0.17915 0.15211 0.0
H1759 H 0.80796 0.11243 0.12453 0.0
H1760 H 0.75641 0.17884 0.1017 0.0
H1761 H 0.72551 0.21183 0.10742 0.0
H1762 H 0.68399 0.16958 0.12929 0.0
H1763 H 0.71474 0.13633 0.12405 0.0
C1764 C 0.78772 0.06546 0.03683 0.0
C1765 C 0.77523 0.05029 0.04225 0.0
C1766 C 0.78584 0.0828 0.05147 0.0
C1767 C 0.77165 0.08513 0.07206 0.0
C1768 C 0.75792 0.07104 0.07662 0.0
C1769 C 0.75969 0.05364 0.06173 0.0
C1770 C 0.77291 0.10082 0.08973 0.0
C1771 C 0.7552 0.11901 0.09468 0.0
C1772 C 0.79223 0.09862 0.10044 0.0
C1773 C 0.81153 0.07978 0.09584 0.0
C1774 C 0.81039 0.05768 0.10023 0.0
C1775 C 0.82854 0.04002 0.09521 0.0
C1776 C 0.84797 0.04427 0.08601 0.0
C1777 C 0.84931 0.06619 0.08187 0.0
C1778 C 0.83118 0.08391 0.0868 0.0
C1779 C 0.76317 0.16756 0.17496 0.0
C1780 C 0.78056 0.17713 0.17312 0.0
C1781 C 0.76163 0.15315 0.15812 0.0
C1782 C 0.77723 0.14827 0.13879 0.0
C1783 C 0.79469 0.15775 0.13695 0.0
C1784 C 0.79638 0.172 0.15399 0.0
C1785 C 0.77559 0.13276 0.12097 0.0
C1786 C 0.79331 0.11455 0.11591 0.0
C1787 C 0.75643 0.13524 0.1098 0.0
C1788 C 0.73788 0.15513 0.11269 0.0
C1789 C 0.74071 0.1766 0.10788 0.0
C1790 C 0.72323 0.19534 0.11102 0.0
C1791 C 0.70281 0.1928 0.11877 0.0
C1792 C 0.69982 0.17152 0.12332 0.0
C1793 C 0.71726 0.15272 0.12024 0.0
H1794 H 0.68929 0.20734 0.12121 0.0
H1795 H 0.86201 0.03057 0.08213 0.0
H1796 H 0.54686 0.60692 0.90496 0.0
H1797 H 0.56889 0.63341 0.89637 0.0
H1798 H 0.62439 0.5793 0.87797 0.0
H1799 H 0.60218 0.5529 0.88573 0.0
H1800 H 0.62588 0.61772 0.91291 0.0
H1801 H 0.60976 0.59986 0.83494 0.0
H1802 H 0.58374 0.59663 0.8076 0.0
H1803 H 0.55003 0.66555 0.81455 0.0
H1804 H 0.57565 0.66903 0.84234 0.0
H1805 H 0.70834 0.6551 0.85007 0.0
H1806 H 0.68093 0.6359 0.86372 0.0
H1807 H 0.63101 0.69632 0.85077 0.0
H1808 H 0.65858 0.71568 0.83647 0.0
H1809 H 0.62222 0.65968 0.83458 0.0
H1810 H 0.6404 0.6806 0.90583 0.0
H1811 H 0.66405 0.68591 0.93484 0.0
H1812 H 0.69068 0.61516 0.94342 0.0
H1813 H 0.66744 0.60942 0.91413 0.0
C1814 C 0.56382 0.60074 0.89935 0.0
C1815 C 0.57296 0.57797 0.89601 0.0
C1816 C 0.57631 0.61581 0.89443 0.0
C1817 C 0.59818 0.6082 0.88661 0.0
C1818 C 0.60752 0.58538 0.88406 0.0
C1819 C 0.5949 0.5704 0.88839 0.0
C1820 C 0.61112 0.62412 0.87991 0.0
C1821 C 0.62525 0.62681 0.89576 0.0
C1822 C 0.60949 0.6366 0.85797 0.0
C1823 C 0.59441 0.63462 0.84094 0.0
C1824 C 0.59666 0.61425 0.83083 0.0
C1825 C 0.58202 0.61238 0.81522 0.0
C1826 C 0.56519 0.63085 0.8094 0.0
C1827 C 0.56304 0.65124 0.81912 0.0
C1828 C 0.57761 0.65317 0.83479 0.0
C1829 C 0.69154 0.6643 0.84995 0.0
C1830 C 0.68559 0.68688 0.84213 0.0
C1831 C 0.67589 0.65335 0.85794 0.0
C1832 C 0.65397 0.66476 0.85848 0.0
C1833 C 0.64788 0.68727 0.85055 0.0
C1834 C 0.6636 0.69832 0.84258 0.0
C1835 C 0.63766 0.65278 0.86727 0.0
C1836 C 0.62278 0.65085 0.85187 0.0
C1837 C 0.63833 0.64132 0.88986 0.0
C1838 C 0.65225 0.64459 0.90766 0.0
C1839 C 0.65141 0.66617 0.91377 0.0
C1840 C 0.66473 0.66926 0.93028 0.0
C1841 C 0.67888 0.65088 0.94094 0.0
C1842 C 0.67971 0.62938 0.93514 0.0
C1843 C 0.66644 0.62619 0.9186 0.0
H1844 H 0.68918 0.65331 0.95373 0.0
H1845 H 0.55387 0.62938 0.79731 0.0
H1846 H 0.49615 0.58885 0.83309 0.0
H1847 H 0.46545 0.62151 0.82801 0.0
H1848 H 0.42244 0.57903 0.83774 0.0
H1849 H 0.45319 0.54646 0.8407 0.0
H1850 H 0.40689 0.60653 0.8082 0.0
H1851 H 0.43144 0.61726 0.88194 0.0
H1852 H 0.45682 0.62162 0.9095 0.0
H1853 H 0.46613 0.67922 0.86785 0.0
H1854 H 0.44099 0.67505 0.83988 0.0
H1855 H 0.32111 0.70975 0.85325 0.0
H1856 H 0.35272 0.67784 0.85818 0.0
H1857 H 0.37398 0.68599 0.78431 0.0
H1858 H 0.34229 0.71755 0.77914 0.0
H1859 H 0.39912 0.6767 0.84718 0.0
H1860 H 0.37986 0.64882 0.76742 0.0
H1861 H 0.34946 0.64366 0.74771 0.0
H1862 H 0.32482 0.61684 0.81337 0.0
H1863 H 0.35485 0.62231 0.83347 0.0
C1864 C 0.48014 0.58652 0.83383 0.0
C1865 C 0.47722 0.56497 0.83694 0.0
C1866 C 0.46244 0.60531 0.83129 0.0
C1867 C 0.44121 0.60316 0.8329 0.0
C1868 C 0.43843 0.58152 0.83617 0.0
C1869 C 0.45613 0.56275 0.83788 0.0
C1870 C 0.42193 0.62309 0.83063 0.0
C1871 C 0.4055 0.62173 0.81684 0.0
C1872 C 0.41928 0.64325 0.84201 0.0
C1873 C 0.43454 0.64567 0.85868 0.0
C1874 C 0.43903 0.63075 0.87856 0.0
C1875 C 0.45335 0.63321 0.89427 0.0
C1876 C 0.46313 0.65064 0.89039 0.0
C1877 C 0.45858 0.6657 0.87081 0.0
C1878 C 0.44429 0.6633 0.85503 0.0
C1879 C 0.33239 0.70458 0.83799 0.0
C1880 C 0.32899 0.71609 0.81574 0.0
C1881 C 0.35053 0.68641 0.84087 0.0
C1882 C 0.36568 0.67931 0.82158 0.0
C1883 C 0.36236 0.69083 0.79938 0.0
C1884 C 0.34419 0.70891 0.79644 0.0
C1885 C 0.3849 0.65985 0.82456 0.0
C1886 C 0.40103 0.66137 0.83851 0.0
C1887 C 0.38707 0.63961 0.81408 0.0
C1888 C 0.36939 0.63608 0.80187 0.0
C1889 C 0.36789 0.6419 0.77759 0.0
C1890 C 0.35072 0.63897 0.76639 0.0
C1891 C 0.3352 0.62996 0.77929 0.0
C1892 C 0.3368 0.62388 0.80342 0.0
C1893 C 0.35383 0.62696 0.81472 0.0
H1894 H 0.32195 0.62766 0.77058 0.0
H1895 H 0.4742 0.65252 0.90257 0.0
H1896 H 0.49557 0.44372 0.90378 0.0
H1897 H 0.46913 0.42551 0.89341 0.0
H1898 H 0.42221 0.4892 0.88727 0.0
H1899 H 0.44895 0.50768 0.89714 0.0
H1900 H 0.41205 0.44247 0.91475 0.0
H1901 H 0.43198 0.48127 0.84191 0.0
H1902 H 0.45839 0.49339 0.81325 0.0
H1903 H 0.49268 0.42517 0.80266 0.0
H1904 H 0.46675 0.41269 0.83177 0.0
H1905 H 0.3467 0.39147 0.85482 0.0
H1906 H 0.36299 0.4193 0.86725 0.0
H1907 H 0.42621 0.37748 0.84661 0.0
H1908 H 0.41015 0.34974 0.83429 0.0
H1909 H 0.42322 0.41957 0.83168 0.0
H1910 H 0.40504 0.38064 0.9049 0.0
H1911 H 0.38026 0.36735 0.93479 0.0
H1912 H 0.34336 0.43479 0.94532 0.0
H1913 H 0.36777 0.44843 0.9152 0.0
C1914 C 0.47948 0.45381 0.9008 0.0
C1915 C 0.47423 0.4771 0.90137 0.0
C1916 C 0.46445 0.4434 0.89476 0.0
C1917 C 0.44383 0.45606 0.88955 0.0
C1918 C 0.43809 0.47921 0.89128 0.0
C1919 C 0.45331 0.4897 0.89686 0.0
C1920 C 0.42914 0.44494 0.88051 0.0
C1921 C 0.41404 0.43789 0.89646 0.0
C1922 C 0.43213 0.43866 0.85681 0.0
C1923 C 0.44763 0.44608 0.83923 0.0
C1924 C 0.44533 0.46887 0.83371 0.0
C1925 C 0.46017 0.47581 0.81735 0.0
C1926 C 0.47725 0.46006 0.8062 0.0
C1927 C 0.47948 0.43735 0.81136 0.0
C1928 C 0.46473 0.43034 0.8278 0.0
C1929 C 0.36407 0.38819 0.85304 0.0
C1930 C 0.37712 0.36841 0.84349 0.0
C1931 C 0.37335 0.40412 0.86011 0.0
C1932 C 0.39584 0.40044 0.85796 0.0
C1933 C 0.40883 0.38078 0.84829 0.0
C1934 C 0.3996 0.36494 0.84119 0.0
C1935 C 0.40614 0.41673 0.86597 0.0
C1936 C 0.42067 0.4246 0.84983 0.0
C1937 C 0.40258 0.42373 0.88952 0.0
C1938 C 0.38803 0.41552 0.90763 0.0
C1939 C 0.39153 0.3926 0.91346 0.0
C1940 C 0.37758 0.38501 0.93045 0.0
C1941 C 0.3602 0.40021 0.94189 0.0
C1942 C 0.35679 0.42303 0.93641 0.0
C1943 C 0.37067 0.4307 0.91938 0.0
H1944 H 0.34941 0.3943 0.95505 0.0
H1945 H 0.48871 0.46546 0.79349 0.0
H1946 H 0.58057 0.46193 0.87245 0.0
H1947 H 0.61209 0.42958 0.86845 0.0
H1948 H 0.63291 0.45803 0.80153 0.0
H1949 H 0.60176 0.49074 0.80569 0.0
H1950 H 0.63378 0.40924 0.80366 0.0
H1951 H 0.65675 0.46326 0.84521 0.0
H1952 H 0.65384 0.48738 0.87831 0.0
H1953 H 0.66004 0.43084 0.92798 0.0
H1954 H 0.66262 0.40644 0.8952 0.0
H1955 H 0.74 0.33962 0.78195 0.0
H1956 H 0.70631 0.36916 0.78597 0.0
H1957 H 0.70543 0.35935 0.8623 0.0
H1958 H 0.74028 0.33167 0.85801 0.0
H1959 H 0.69247 0.39836 0.8565 0.0
H1960 H 0.66928 0.34358 0.82161 0.0
H1961 H 0.66931 0.31606 0.79291 0.0
H1962 H 0.65895 0.36757 0.73714 0.0
H1963 H 0.6592 0.39536 0.76544 0.0
C1964 C 0.59174 0.46126 0.85675 0.0
C1965 C 0.58852 0.47902 0.83934 0.0
C1966 C 0.60982 0.44274 0.85455 0.0
C1967 C 0.62494 0.44132 0.83469 0.0
C1968 C 0.62148 0.4587 0.81699 0.0
C1969 C 0.60365 0.47744 0.81942 0.0
C1970 C 0.64466 0.42206 0.83261 0.0
C1971 C 0.64675 0.40688 0.81505 0.0
C1972 C 0.66114 0.41835 0.84815 0.0
C1973 C 0.65962 0.43308 0.86778 0.0
C1974 C 0.65726 0.45601 0.86321 0.0
C1975 C 0.65572 0.46973 0.88191 0.0
C1976 C 0.65669 0.46066 0.90524 0.0
C1977 C 0.65925 0.43785 0.90991 0.0
C1978 C 0.66076 0.42408 0.89128 0.0
C1979 C 0.7324 0.34365 0.79954 0.0
C1980 C 0.74264 0.33319 0.81967 0.0
C1981 C 0.71293 0.3605 0.80192 0.0
C1982 C 0.7026 0.36655 0.82452 0.0
C1983 C 0.71275 0.35544 0.84459 0.0
C1984 C 0.73265 0.33934 0.84218 0.0
C1985 C 0.68195 0.38502 0.82738 0.0
C1986 C 0.6796 0.40025 0.8451 0.0
C1987 C 0.66476 0.38813 0.81267 0.0
C1988 C 0.66445 0.37152 0.79562 0.0
C1989 C 0.66713 0.34902 0.8032 0.0
C1990 C 0.6671 0.33337 0.787 0.0
C1991 C 0.66417 0.34005 0.76321 0.0
C1992 C 0.66124 0.36241 0.75557 0.0
C1993 C 0.66131 0.37812 0.77168 0.0
H1994 H 0.66412 0.32792 0.75072 0.0
H1995 H 0.65551 0.47131 0.91969 0.0
H1996 H 0.58924 0.45436 0.20574 0.0
H1997 H 0.6196 0.42347 0.21676 0.0
H1998 H 0.63422 0.46332 0.26775 0.0
H1999 H 0.60323 0.49449 0.25704 0.0
H2000 H 0.67109 0.43762 0.23025 0.0
H2001 H 0.61526 0.42759 0.29183 0.0
H2002 H 0.57856 0.42443 0.30434 0.0
H2003 H 0.5892 0.36862 0.26105 0.0
H2004 H 0.62585 0.3717 0.248 0.0
H2005 H 0.75297 0.34579 0.27637 0.0
H2006 H 0.72407 0.38007 0.27001 0.0
H2007 H 0.68454 0.34125 0.2479 0.0
H2008 H 0.71271 0.30728 0.25542 0.0
H2009 H 0.6602 0.36881 0.27331 0.0
H2010 H 0.7105 0.37637 0.20881 0.0
H2011 H 0.74521 0.37815 0.18754 0.0
H2012 H 0.74398 0.43551 0.22487 0.0
H2013 H 0.70939 0.43385 0.24666 0.0
C2014 C 0.59871 0.45651 0.21957 0.0
C2015 C 0.59369 0.47682 0.2307 0.0
C2016 C 0.61614 0.43884 0.22574 0.0
C2017 C 0.62928 0.44108 0.24296 0.0
C2018 C 0.62431 0.46127 0.25434 0.0
C2019 C 0.60648 0.47895 0.24845 0.0
C2020 C 0.64798 0.42205 0.24893 0.0
C2021 C 0.66887 0.42273 0.24018 0.0
C2022 C 0.64496 0.40216 0.26057 0.0
C2023 C 0.62319 0.39997 0.26887 0.0
C2024 C 0.6097 0.41474 0.28489 0.0
C2025 C 0.58893 0.41295 0.29208 0.0
C2026 C 0.58154 0.39636 0.28346 0.0
C2027 C 0.59494 0.38147 0.2677 0.0
C2028 C 0.61572 0.38321 0.26043 0.0
C2029 C 0.73813 0.34468 0.27004 0.0
C2030 C 0.73515 0.3238 0.26642 0.0
C2031 C 0.7216 0.36431 0.26627 0.0
C2032 C 0.70194 0.36351 0.25828 0.0
C2033 C 0.6993 0.34258 0.25426 0.0
C2034 C 0.71556 0.32306 0.25845 0.0
C2035 C 0.68376 0.38412 0.25478 0.0
C2036 C 0.66279 0.38372 0.26377 0.0
C2037 C 0.68666 0.40388 0.24237 0.0
C2038 C 0.70756 0.40478 0.22962 0.0
C2039 C 0.71776 0.38921 0.21268 0.0
C2040 C 0.73738 0.39023 0.20049 0.0
C2041 C 0.74684 0.40688 0.20493 0.0
C2042 C 0.73667 0.42258 0.22152 0.0
C2043 C 0.71706 0.4216 0.2338 0.0
H2044 H 0.76202 0.40766 0.19545 0.0
H2045 H 0.56543 0.39502 0.28903 0.0
H2046 H 0.61118 0.55942 0.22713 0.0
H2047 H 0.63758 0.57839 0.23462 0.0
H2048 H 0.63068 0.61359 0.16621 0.0
H2049 H 0.60361 0.59523 0.15855 0.0
H2050 H 0.67509 0.59636 0.17981 0.0
H2051 H 0.60504 0.64063 0.20943 0.0
H2052 H 0.56989 0.64612 0.2328 0.0
H2053 H 0.6018 0.62428 0.29657 0.0
H2054 H 0.63716 0.61829 0.27347 0.0
H2055 H 0.71649 0.68764 0.19894 0.0
H2056 H 0.69634 0.66247 0.18865 0.0
H2057 H 0.69367 0.63649 0.26134 0.0
H2058 H 0.7141 0.66135 0.27171 0.0
H2059 H 0.65477 0.64775 0.24558 0.0
H2060 H 0.72417 0.60468 0.21849 0.0
H2061 H 0.76017 0.5966 0.19676 0.0
H2062 H 0.73137 0.61313 0.13056 0.0
H2063 H 0.69516 0.6217 0.15195 0.0
C2064 C 0.61498 0.57121 0.21355 0.0
C2065 C 0.6046 0.57597 0.19234 0.0
C2066 C 0.63033 0.58194 0.21789 0.0
C2067 C 0.63592 0.59752 0.20108 0.0
C2068 C 0.62655 0.60159 0.17943 0.0
C2069 C 0.61096 0.59104 0.17513 0.0
C2070 C 0.65049 0.61056 0.20686 0.0
C2071 C 0.67059 0.60785 0.19395 0.0
C2072 C 0.64487 0.62494 0.22581 0.0
C2073 C 0.62368 0.62881 0.23972 0.0
C2074 C 0.60454 0.63683 0.22841 0.0
C2075 C 0.58459 0.64005 0.2416 0.0
C2076 C 0.58361 0.63549 0.26615 0.0
C2077 C 0.60258 0.62776 0.27756 0.0
C2078 C 0.62257 0.62446 0.26443 0.0
C2079 C 0.71206 0.67623 0.21265 0.0
C2080 C 0.71685 0.67664 0.23619 0.0
C2081 C 0.70047 0.66186 0.20673 0.0
C2082 C 0.6935 0.64755 0.22421 0.0
C2083 C 0.69877 0.64747 0.24758 0.0
C2084 C 0.71039 0.66177 0.25349 0.0
C2085 C 0.67952 0.63374 0.21846 0.0
C2086 C 0.65942 0.6363 0.2314 0.0
C2087 C 0.68531 0.61902 0.19975 0.0
C2088 C 0.70699 0.6141 0.18682 0.0
C2089 C 0.72552 0.60683 0.19931 0.0
C2090 C 0.74596 0.60211 0.18706 0.0
C2091 C 0.74806 0.60442 0.1623 0.0
C2092 C 0.72971 0.61141 0.14974 0.0
C2093 C 0.70923 0.61619 0.16192 0.0
H2094 H 0.7639 0.60073 0.15284 0.0
H2095 H 0.56814 0.638 0.27634 0.0
H2096 H 0.49841 0.59055 0.25986 0.0
H2097 H 0.46793 0.62276 0.27015 0.0
H2098 H 0.44227 0.62046 0.20357 0.0
H2099 H 0.47259 0.58918 0.19307 0.0
H2100 H 0.43892 0.66083 0.20919 0.0
H2101 H 0.42075 0.60258 0.25976 0.0
H2102 H 0.42613 0.57178 0.29047 0.0
H2103 H 0.4318 0.61607 0.34185 0.0
H2104 H 0.4268 0.64707 0.31131 0.0
H2105 H 0.33011 0.72367 0.23054 0.0
H2106 H 0.36313 0.69351 0.22463 0.0
H2107 H 0.38703 0.71161 0.28605 0.0
H2108 H 0.35388 0.74202 0.29199 0.0
H2109 H 0.39282 0.66541 0.28505 0.0
H2110 H 0.40737 0.72463 0.23197 0.0
H2111 H 0.39933 0.75406 0.19997 0.0
H2112 H 0.39739 0.70558 0.15154 0.0
H2113 H 0.4051 0.6759 0.18335 0.0
C2114 C 0.48617 0.59686 0.24754 0.0
C2115 C 0.48809 0.58722 0.2256 0.0
C2116 C 0.46868 0.61529 0.25343 0.0
C2117 C 0.45256 0.62422 0.23768 0.0
C2118 C 0.45441 0.61424 0.21603 0.0
C2119 C 0.47185 0.59615 0.21008 0.0
C2120 C 0.43387 0.64406 0.24316 0.0
C2121 C 0.42881 0.66162 0.22575 0.0
C2122 C 0.42064 0.64561 0.26485 0.0
C2123 C 0.42369 0.62705 0.2832 0.0
C2124 C 0.42334 0.60569 0.27756 0.0
C2125 C 0.4263 0.58821 0.29493 0.0
C2126 C 0.42938 0.59194 0.31808 0.0
C2127 C 0.42947 0.61319 0.3239 0.0
C2128 C 0.42658 0.63072 0.30657 0.0
C2129 C 0.34246 0.72137 0.24269 0.0
C2130 C 0.33945 0.7354 0.2616 0.0
C2131 C 0.36136 0.70409 0.23929 0.0
C2132 C 0.37772 0.70029 0.25479 0.0
C2133 C 0.3747 0.71419 0.27382 0.0
C2134 C 0.35582 0.73168 0.2771 0.0
C2135 C 0.39788 0.68181 0.25096 0.0
C2136 C 0.40314 0.66459 0.26863 0.0
C2137 C 0.41105 0.6803 0.2293 0.0
C2138 C 0.40669 0.69808 0.21008 0.0
C2139 C 0.40511 0.72027 0.21453 0.0
C2140 C 0.40062 0.73699 0.19643 0.0
C2141 C 0.39782 0.7317 0.17375 0.0
C2142 C 0.39956 0.70966 0.16911 0.0
C2143 C 0.40401 0.69288 0.18717 0.0
H2144 H 0.39435 0.74467 0.15975 0.0
H2145 H 0.43165 0.57839 0.33151 0.0
H2146 H 0.4869 0.48294 0.16171 0.0
H2147 H 0.46352 0.45811 0.17032 0.0
H2148 H 0.48018 0.44788 0.24276 0.0
H2149 H 0.50432 0.47178 0.23404 0.0
H2150 H 0.47859 0.40983 0.22693 0.0
H2151 H 0.43282 0.48463 0.22685 0.0
H2152 H 0.41784 0.52279 0.21023 0.0
H2153 H 0.39591 0.49693 0.15264 0.0
H2154 H 0.4111 0.45858 0.16872 0.0
H2155 H 0.38793 0.37435 0.28101 0.0
H2156 H 0.41597 0.39345 0.26901 0.0
H2157 H 0.39963 0.39931 0.19659 0.0
H2158 H 0.37127 0.3808 0.20851 0.0
H2159 H 0.40174 0.4384 0.21096 0.0
H2160 H 0.44578 0.36323 0.21311 0.0
H2161 H 0.46065 0.32535 0.23049 0.0
H2162 H 0.48537 0.35208 0.28532 0.0
H2163 H 0.47032 0.39016 0.26851 0.0
C2164 C 0.48584 0.47521 0.17939 0.0
C2165 C 0.49738 0.47962 0.19722 0.0
C2166 C 0.4723 0.46114 0.18434 0.0
C2167 C 0.46982 0.4514 0.2073 0.0
C2168 C 0.48174 0.45528 0.22495 0.0
C2169 C 0.49536 0.46922 0.21998 0.0
C2170 C 0.45437 0.43768 0.21316 0.0
C2171 C 0.46174 0.41615 0.22366 0.0
C2172 C 0.43246 0.44574 0.20849 0.0
C2173 C 0.42329 0.46876 0.19884 0.0
C2174 C 0.42496 0.48708 0.21054 0.0
C2175 C 0.41641 0.50874 0.20123 0.0
C2176 C 0.40598 0.51228 0.18036 0.0
C2177 C 0.40403 0.49416 0.16878 0.0
C2178 C 0.4126 0.47246 0.17798 0.0
C2179 C 0.39036 0.37966 0.26252 0.0
C2180 C 0.37736 0.37606 0.24572 0.0
C2181 C 0.40651 0.39039 0.25566 0.0
C2182 C 0.40998 0.39768 0.23187 0.0
C2183 C 0.39727 0.39377 0.21502 0.0
C2184 C 0.38118 0.38302 0.22184 0.0
C2185 C 0.42593 0.41056 0.22476 0.0
C2186 C 0.41863 0.43199 0.21409 0.0
C2187 C 0.44783 0.40244 0.22943 0.0
C2188 C 0.45674 0.37956 0.23968 0.0
C2189 C 0.4542 0.36105 0.22901 0.0
C2190 C 0.46269 0.33953 0.23874 0.0
C2191 C 0.4739 0.33631 0.25903 0.0
C2192 C 0.47666 0.3546 0.26963 0.0
C2193 C 0.46815 0.37615 0.26001 0.0
H2194 H 0.4805 0.31964 0.26651 0.0
H2195 H 0.39936 0.52906 0.17319 0.0
H2196 H 0.76745 0.59057 0.64608 0.0
H2197 H 0.76606 0.61654 0.67699 0.0
H2198 H 0.79845 0.65483 0.62695 0.0
H2199 H 0.80009 0.62921 0.59656 0.0
H2200 H 0.81812 0.64571 0.6661 0.0
H2201 H 0.74527 0.67319 0.64522 0.0
H2202 H 0.70818 0.67247 0.64006 0.0
H2203 H 0.69811 0.65552 0.71444 0.0
H2204 H 0.73531 0.65575 0.71995 0.0
H2205 H 0.7881 0.75733 0.70335 0.0
H2206 H 0.78582 0.7245 0.68451 0.0
H2207 H 0.79228 0.68667 0.75156 0.0
H2208 H 0.79563 0.71947 0.77054 0.0
H2209 H 0.75339 0.69058 0.71158 0.0
H2210 H 0.82904 0.66575 0.73022 0.0
H2211 H 0.86464 0.6724 0.7318 0.0
H2212 H 0.86757 0.68963 0.65693 0.0
H2213 H 0.83177 0.68349 0.65505 0.0
C2214 C 0.77399 0.60471 0.64169 0.0
C2215 C 0.78411 0.60766 0.61896 0.0
C2216 C 0.77321 0.61952 0.65934 0.0
C2217 C 0.78239 0.63753 0.65438 0.0
C2218 C 0.79157 0.64091 0.63137 0.0
C2219 C 0.79244 0.6262 0.61395 0.0
C2220 C 0.78363 0.65248 0.673 0.0
C2221 C 0.80391 0.65531 0.67617 0.0
C2222 C 0.76523 0.66499 0.68639 0.0
C2223 C 0.74319 0.66406 0.68291 0.0
C2224 C 0.73527 0.66895 0.6604 0.0
C2225 C 0.7142 0.66872 0.65743 0.0
C2226 C 0.70083 0.66384 0.67688 0.0
C2227 C 0.70851 0.65919 0.69936 0.0
C2228 C 0.72959 0.65934 0.70241 0.0
C2229 C 0.78914 0.74203 0.71415 0.0
C2230 C 0.79189 0.74102 0.73849 0.0
C2231 C 0.78772 0.72333 0.70335 0.0
C2232 C 0.78876 0.70327 0.71667 0.0
C2233 C 0.79136 0.7021 0.74104 0.0
C2234 C 0.79322 0.7208 0.75183 0.0
C2235 C 0.78776 0.68363 0.70443 0.0
C2236 C 0.76758 0.68021 0.70217 0.0
C2237 C 0.80615 0.67084 0.69149 0.0
C2238 C 0.82768 0.67438 0.69257 0.0
C2239 C 0.83718 0.67119 0.71417 0.0
C2240 C 0.85741 0.67483 0.7151 0.0
C2241 C 0.86834 0.68149 0.69449 0.0
C2242 C 0.85908 0.6845 0.67289 0.0
C2243 C 0.83883 0.68094 0.67189 0.0
H2244 H 0.88402 0.68426 0.69524 0.0
H2245 H 0.6845 0.66376 0.67456 0.0
H2246 H 0.47583 0.79031 0.59551 0.0
H2247 H 0.44225 0.79155 0.62005 0.0
H2248 H 0.47862 0.75954 0.67875 0.0
H2249 H 0.5122 0.75723 0.6536 0.0
H2250 H 0.44773 0.74364 0.68201 0.0
H2251 H 0.44826 0.82043 0.6713 0.0
H2252 H 0.45016 0.85555 0.64914 0.0
H2253 H 0.39427 0.85636 0.61424 0.0
H2254 H 0.39218 0.82112 0.636 0.0
H2255 H 0.34939 0.79932 0.7632 0.0
H2256 H 0.38234 0.7995 0.73755 0.0
H2257 H 0.36616 0.75785 0.68972 0.0
H2258 H 0.33349 0.75718 0.7154 0.0
H2259 H 0.38637 0.81165 0.68293 0.0
H2260 H 0.39815 0.72502 0.68899 0.0
H2261 H 0.39569 0.69308 0.71675 0.0
H2262 H 0.42891 0.71608 0.76682 0.0
H2263 H 0.43112 0.74837 0.73948 0.0
C2264 C 0.47667 0.78365 0.61367 0.0
C2265 C 0.49684 0.77376 0.62249 0.0
C2266 C 0.45733 0.78449 0.6279 0.0
C2267 C 0.45744 0.77616 0.65178 0.0
C2268 C 0.47769 0.76616 0.66054 0.0
C2269 C 0.49703 0.76483 0.6461 0.0
C2270 C 0.43669 0.77744 0.66744 0.0
C2271 C 0.43449 0.75865 0.68198 0.0
C2272 C 0.41896 0.7969 0.66818 0.0
C2273 C 0.42019 0.81806 0.65511 0.0
C2274 C 0.43646 0.82805 0.65879 0.0
C2275 C 0.43756 0.84798 0.64632 0.0
C2276 C 0.42238 0.85815 0.63025 0.0
C2277 C 0.40603 0.84845 0.62666 0.0
C2278 C 0.40487 0.82852 0.63908 0.0
C2279 C 0.35274 0.79026 0.74717 0.0
C2280 C 0.33863 0.77821 0.7415 0.0
C2281 C 0.37166 0.79038 0.73249 0.0
C2282 C 0.377 0.77847 0.71175 0.0
C2283 C 0.3627 0.76687 0.70577 0.0
C2284 C 0.34388 0.76661 0.72048 0.0
C2285 C 0.3976 0.77783 0.69657 0.0
C2286 C 0.39974 0.79673 0.68248 0.0
C2287 C 0.41537 0.75873 0.69644 0.0
C2288 C 0.41468 0.73903 0.71235 0.0
C2289 C 0.40486 0.72323 0.70596 0.0
C2290 C 0.40347 0.70513 0.72162 0.0
C2291 C 0.4121 0.70257 0.74356 0.0
C2292 C 0.42218 0.7181 0.74986 0.0
C2293 C 0.42347 0.73631 0.73432 0.0
H2294 H 0.41101 0.68855 0.75567 0.0
H2295 H 0.42326 0.87358 0.62061 0.0
H2296 H 0.28026 0.4654 0.60203 0.0
H2297 H 0.27359 0.44359 0.63863 0.0
H2298 H 0.30197 0.3829 0.60289 0.0
H2299 H 0.30877 0.40454 0.56638 0.0
H2300 H 0.2609 0.38513 0.63071 0.0
H2301 H 0.33092 0.39857 0.63804 0.0
H2302 H 0.35453 0.42321 0.63985 0.0
H2303 H 0.31409 0.45476 0.699 0.0
H2304 H 0.29009 0.4305 0.69731 0.0
H2305 H 0.27717 0.30033 0.72214 0.0
H2306 H 0.27735 0.32639 0.68777 0.0
H2307 H 0.27521 0.3785 0.73416 0.0
H2308 H 0.27727 0.35161 0.76828 0.0
H2309 H 0.29984 0.38424 0.70157 0.0
H2310 H 0.23066 0.374 0.69875 0.0
H2311 H 0.20249 0.35436 0.69871 0.0
H2312 H 0.23326 0.32397 0.63443 0.0
H2313 H 0.2618 0.34318 0.63427 0.0
C2314 C 0.28502 0.44741 0.60196 0.0
C2315 C 0.29517 0.43673 0.58126 0.0
C2316 C 0.28126 0.43497 0.62291 0.0
C2317 C 0.28733 0.41159 0.62353 0.0
C2318 C 0.29716 0.40091 0.60284 0.0
C2319 C 0.3012 0.41331 0.58202 0.0
C2320 C 0.28371 0.39812 0.64572 0.0
C2321 C 0.2695 0.38473 0.6462 0.0
C2322 C 0.29408 0.39847 0.66633 0.0
C2323 C 0.30861 0.41289 0.66738 0.0
C2324 C 0.32698 0.41089 0.6513 0.0
C2325 C 0.34044 0.42476 0.65233 0.0
C2326 C 0.33578 0.44058 0.66948 0.0
C2327 C 0.31767 0.44252 0.68569 0.0
C2328 C 0.30414 0.42871 0.68472 0.0
C2329 C 0.2763 0.31748 0.72496 0.0
C2330 C 0.27687 0.32405 0.74787 0.0
C2331 C 0.27627 0.33253 0.70525 0.0
C2332 C 0.27581 0.35484 0.70803 0.0
C2333 C 0.27563 0.36151 0.7312 0.0
C2334 C 0.27656 0.3462 0.75081 0.0
C2335 C 0.27701 0.37071 0.68683 0.0
C2336 C 0.29086 0.38462 0.6864 0.0
C2337 C 0.26553 0.37155 0.66662 0.0
C2338 C 0.24847 0.35988 0.66663 0.0
C2339 C 0.2315 0.363 0.6847 0.0
C2340 C 0.21546 0.35196 0.6847 0.0
C2341 C 0.21612 0.33788 0.66661 0.0
C2342 C 0.23279 0.33486 0.64845 0.0
C2343 C 0.24889 0.34583 0.64838 0.0
H2344 H 0.20367 0.32936 0.66664 0.0
H2345 H 0.34622 0.4513 0.67025 0.0
H2346 H 0.58555 0.2568 0.5321 0.0
H2347 H 0.61267 0.26345 0.55533 0.0
H2348 H 0.56266 0.293 0.60853 0.0
H2349 H 0.53536 0.28693 0.58471 0.0
H2350 H 0.59468 0.31377 0.60418 0.0
H2351 H 0.591 0.23729 0.61316 0.0
H2352 H 0.59199 0.20093 0.59861 0.0
H2353 H 0.65645 0.19434 0.56702 0.0
H2354 H 0.65573 0.23081 0.58111 0.0
H2355 H 0.65686 0.2948 0.70335 0.0
H2356 H 0.63075 0.29562 0.67506 0.0
H2357 H 0.68223 0.26377 0.62458 0.0
H2358 H 0.70852 0.26294 0.65283 0.0
H2359 H 0.65033 0.24493 0.62614 0.0
H2360 H 0.65555 0.3196 0.61748 0.0
H2361 H 0.65563 0.3561 0.63076 0.0
H2362 H 0.58999 0.36648 0.65992 0.0
H2363 H 0.58962 0.32987 0.64711 0.0
C2364 C 0.58031 0.26547 0.54834 0.0
C2365 C 0.55837 0.2717 0.55647 0.0
C2366 C 0.59583 0.269 0.56178 0.0
C2367 C 0.58983 0.27825 0.58402 0.0
C2368 C 0.56774 0.28577 0.59148 0.0
C2369 C 0.55212 0.28248 0.57781 0.0
C2370 C 0.60659 0.2785 0.60012 0.0
C2371 C 0.60668 0.29868 0.60919 0.0
C2372 C 0.62272 0.25892 0.60623 0.0
C2373 C 0.62324 0.23686 0.59803 0.0
C2374 C 0.60534 0.22814 0.603 0.0
C2375 C 0.60586 0.2075 0.59484 0.0
C2376 C 0.62425 0.19535 0.58186 0.0
C2377 C 0.6422 0.20378 0.57706 0.0
C2378 C 0.64176 0.22442 0.58515 0.0
C2379 C 0.66272 0.28827 0.68611 0.0
C2380 C 0.6849 0.2789 0.68041 0.0
C2381 C 0.64771 0.28871 0.66991 0.0
C2382 C 0.65445 0.28 0.64748 0.0
C2383 C 0.67656 0.2706 0.64174 0.0
C2384 C 0.6916 0.27009 0.65796 0.0
C2385 C 0.63838 0.2802 0.63033 0.0
C2386 C 0.63839 0.26007 0.62108 0.0
C2387 C 0.62251 0.29984 0.6239 0.0
C2388 C 0.62261 0.32192 0.6315 0.0
C2389 C 0.64118 0.3296 0.62687 0.0
C2390 C 0.64127 0.35031 0.63429 0.0
C2391 C 0.62284 0.36358 0.64622 0.0
C2392 C 0.60426 0.35618 0.6507 0.0
C2393 C 0.60409 0.33545 0.64334 0.0
H2394 H 0.62294 0.37962 0.65195 0.0
H2395 H 0.62462 0.17938 0.57555 0.0
H2396 H 0.76815 0.48934 0.57192 0.0
H2397 H 0.76132 0.45898 0.55171 0.0
H2398 H 0.7464 0.50306 0.48957 0.0
H2399 H 0.75317 0.53314 0.5097 0.0
H2400 H 0.72202 0.47417 0.49461 0.0
H2401 H 0.79701 0.47203 0.496 0.0
H2402 H 0.82962 0.47033 0.5157 0.0
H2403 H 0.8271 0.40745 0.55065 0.0
H2404 H 0.79423 0.40898 0.53141 0.0
H2405 H 0.75775 0.41198 0.39327 0.0
H2406 H 0.75227 0.43736 0.42511 0.0
H2407 H 0.76682 0.38153 0.47621 0.0
H2408 H 0.7721 0.35592 0.4444 0.0
H2409 H 0.78841 0.41232 0.48238 0.0
H2410 H 0.71558 0.41292 0.47375 0.0
H2411 H 0.68431 0.4159 0.45121 0.0
H2412 H 0.68406 0.48284 0.42712 0.0
H2413 H 0.71556 0.48014 0.44922 0.0
C2414 C 0.76237 0.49273 0.5544 0.0
C2415 C 0.76078 0.51359 0.54241 0.0
C2416 C 0.75876 0.47534 0.54274 0.0
C2417 C 0.75362 0.47868 0.51899 0.0
C2418 C 0.75027 0.50008 0.50787 0.0
C2419 C 0.75402 0.51731 0.51941 0.0
C2420 C 0.7543 0.45971 0.50452 0.0
C2421 C 0.73649 0.46059 0.49202 0.0
C2422 C 0.77314 0.44187 0.50124 0.0
C2423 C 0.79302 0.44077 0.51255 0.0
C2424 C 0.80333 0.45793 0.50802 0.0
C2425 C 0.82186 0.45699 0.51909 0.0
C2426 C 0.83038 0.43883 0.53449 0.0
C2427 C 0.82044 0.42153 0.53877 0.0
C2428 C 0.80185 0.42243 0.5278 0.0
C2429 C 0.75936 0.40505 0.41131 0.0
C2430 C 0.76526 0.38188 0.41625 0.0
C2431 C 0.75632 0.41961 0.42952 0.0
C2432 C 0.75895 0.41135 0.45309 0.0
C2433 C 0.76472 0.38826 0.45815 0.0
C2434 C 0.76775 0.37366 0.43993 0.0
C2435 C 0.75621 0.42696 0.47225 0.0
C2436 C 0.7737 0.42551 0.48548 0.0
C2437 C 0.73719 0.44445 0.47597 0.0
C2438 C 0.71795 0.44631 0.4631 0.0
C2439 C 0.7089 0.42825 0.46358 0.0
C2440 C 0.69114 0.42988 0.45087 0.0
C2441 C 0.6822 0.44955 0.43774 0.0
C2442 C 0.69099 0.46763 0.43732 0.0
C2443 C 0.70877 0.46607 0.44997 0.0
H2444 H 0.66846 0.45078 0.4279 0.0
H2445 H 0.84472 0.43813 0.54305 0.0
H2446 H 0.59346 0.80998 0.45711 0.0
H2447 H 0.62329 0.80549 0.42671 0.0
H2448 H 0.66726 0.77152 0.47829 0.0
H2449 H 0.637 0.77741 0.50955 0.0
H2450 H 0.68444 0.79957 0.45189 0.0
H2451 H 0.65073 0.74478 0.43084 0.0
H2452 H 0.62041 0.73135 0.42113 0.0
H2453 H 0.60996 0.77906 0.36174 0.0
H2454 H 0.64004 0.79295 0.37128 0.0
H2455 H 0.77314 0.76296 0.36884 0.0
H2456 H 0.74271 0.7653 0.39828 0.0
H2457 H 0.69951 0.80129 0.34686 0.0
H2458 H 0.73041 0.79867 0.31676 0.0
H2459 H 0.68187 0.77255 0.37279 0.0
H2460 H 0.7138 0.82783 0.39234 0.0
H2461 H 0.7428 0.84371 0.40115 0.0
H2462 H 0.75523 0.7982 0.46213 0.0
H2463 H 0.72649 0.78183 0.4535 0.0
C2464 C 0.60943 0.80127 0.46206 0.0
C2465 C 0.61269 0.79398 0.4859 0.0
C2466 C 0.6266 0.79852 0.44446 0.0
C2467 C 0.64776 0.78772 0.44976 0.0
C2468 C 0.65113 0.77978 0.4735 0.0
C2469 C 0.63379 0.78283 0.49137 0.0
C2470 C 0.66616 0.7858 0.43067 0.0
C2471 C 0.68401 0.7932 0.4348 0.0
C2472 C 0.66545 0.7785 0.40775 0.0
C2473 C 0.64754 0.76998 0.40187 0.0
C2474 C 0.64189 0.75246 0.41579 0.0
C2475 C 0.62475 0.74477 0.4103 0.0
C2476 C 0.61324 0.75437 0.39086 0.0
C2477 C 0.61888 0.77164 0.3768 0.0
C2478 C 0.63599 0.77941 0.38222 0.0
C2479 C 0.75719 0.77139 0.36361 0.0
C2480 C 0.75434 0.78081 0.34036 0.0
C2481 C 0.73971 0.77285 0.38066 0.0
C2482 C 0.71867 0.78398 0.37522 0.0
C2483 C 0.71556 0.79279 0.35172 0.0
C2484 C 0.73322 0.79127 0.33446 0.0
C2485 C 0.70021 0.78603 0.39415 0.0
C2486 C 0.68235 0.77876 0.38995 0.0
C2487 C 0.70078 0.79372 0.41689 0.0
C2488 C 0.71812 0.80346 0.42213 0.0
C2489 C 0.72284 0.82108 0.40752 0.0
C2490 C 0.73921 0.83019 0.4125 0.0
C2491 C 0.75089 0.82193 0.43215 0.0
C2492 C 0.74619 0.80456 0.4469 0.0
C2493 C 0.72984 0.79537 0.44198 0.0
H2494 H 0.76356 0.82901 0.43599 0.0
H2495 H 0.59997 0.7484 0.38666 0.0
H2496 H 0.27271 0.58454 0.47844 0.0
H2497 H 0.26855 0.62048 0.45621 0.0
H2498 H 0.32231 0.59086 0.40712 0.0
H2499 H 0.32663 0.55507 0.4294 0.0
H2500 H 0.32629 0.62882 0.41853 0.0
H2501 H 0.26508 0.60567 0.39544 0.0
H2502 H 0.23109 0.59487 0.40429 0.0
H2503 H 0.20212 0.65606 0.4384 0.0
H2504 H 0.236 0.66708 0.42998 0.0
H2505 H 0.31997 0.71129 0.32609 0.0
H2506 H 0.32033 0.67738 0.35083 0.0
H2507 H 0.26031 0.71131 0.38846 0.0
H2508 H 0.25907 0.74464 0.36193 0.0
H2509 H 0.25815 0.67309 0.38666 0.0
H2510 H 0.31513 0.69828 0.41085 0.0
H2511 H 0.34804 0.7113 0.40618 0.0
H2512 H 0.38393 0.64968 0.37644 0.0
H2513 H 0.35118 0.63641 0.38068 0.0
C2514 C 0.2835 0.58561 0.46276 0.0
C2515 C 0.30004 0.56679 0.45577 0.0
C2516 C 0.28107 0.60624 0.44997 0.0
C2517 C 0.29496 0.60854 0.42969 0.0
C2518 C 0.3114 0.58972 0.4227 0.0
C2519 C 0.31391 0.56918 0.43554 0.0
C2520 C 0.293 0.63049 0.41597 0.0
C2521 C 0.31142 0.63834 0.41132 0.0
C2522 C 0.27342 0.64371 0.4075 0.0
C2523 C 0.25308 0.6371 0.41224 0.0
C2524 C 0.25148 0.61675 0.40492 0.0
C2525 C 0.23224 0.6106 0.40985 0.0
C2526 C 0.21447 0.62475 0.42194 0.0
C2527 C 0.21589 0.64511 0.42906 0.0
C2528 C 0.23508 0.65132 0.42419 0.0
C2529 C 0.30686 0.71143 0.33965 0.0
C2530 C 0.28959 0.73059 0.34227 0.0
C2531 C 0.30715 0.69208 0.35405 0.0
C2532 C 0.29074 0.6917 0.37233 0.0
C2533 C 0.2733 0.71094 0.37472 0.0
C2534 C 0.27261 0.73007 0.35964 0.0
C2535 C 0.29166 0.67121 0.38857 0.0
C2536 C 0.27305 0.66368 0.39384 0.0
C2537 C 0.31094 0.65858 0.39827 0.0
C2538 C 0.33069 0.66643 0.39594 0.0
C2539 C 0.33003 0.68756 0.40323 0.0
C2540 C 0.34865 0.69498 0.40066 0.0
C2541 C 0.36806 0.68134 0.39099 0.0
C2542 C 0.3689 0.66023 0.38393 0.0
C2543 C 0.35032 0.65274 0.38644 0.0
H2544 H 0.38245 0.68713 0.389 0.0
H2545 H 0.1996 0.61995 0.42575 0.0
H2546 H 0.4418 0.24609 0.49686 0.0
H2547 H 0.4157 0.25131 0.46756 0.0
H2548 H 0.45363 0.28546 0.41933 0.0
H2549 H 0.47946 0.28111 0.44946 0.0
H2550 H 0.41378 0.30391 0.41328 0.0
H2551 H 0.45448 0.22839 0.41498 0.0
H2552 H 0.47137 0.19095 0.4322 0.0
H2553 H 0.40905 0.18296 0.45785 0.0
H2554 H 0.39179 0.2205 0.44109 0.0
H2555 H 0.35425 0.294 0.3176 0.0
H2556 H 0.38277 0.29126 0.34342 0.0
H2557 H 0.35129 0.25525 0.39714 0.0
H2558 H 0.32353 0.2566 0.37047 0.0
H2559 H 0.39104 0.23742 0.39724 0.0
H2560 H 0.35347 0.31888 0.40234 0.0
H2561 H 0.3386 0.35633 0.38339 0.0
H2562 H 0.39851 0.35106 0.34106 0.0
H2563 H 0.41366 0.3138 0.36001 0.0
C2564 C 0.4444 0.25509 0.48017 0.0
C2565 C 0.46269 0.26323 0.47552 0.0
C2566 C 0.42956 0.25782 0.46322 0.0
C2567 C 0.4329 0.26811 0.44073 0.0
C2568 C 0.45067 0.27725 0.4364 0.0
C2569 C 0.46539 0.2749 0.45368 0.0
C2570 C 0.41796 0.26892 0.42191 0.0
C2571 C 0.40907 0.28925 0.40964 0.0
C2572 C 0.41158 0.24992 0.41683 0.0
C2573 C 0.42187 0.22734 0.42697 0.0
C2574 C 0.44439 0.21872 0.42445 0.0
C2575 C 0.45402 0.19747 0.43411 0.0
C2576 C 0.4413 0.18461 0.44616 0.0
C2577 C 0.41889 0.19295 0.44854 0.0
C2578 C 0.40917 0.21421 0.43895 0.0
C2579 C 0.35348 0.28537 0.33488 0.0
C2580 C 0.33663 0.27542 0.34189 0.0
C2581 C 0.36968 0.28414 0.34991 0.0
C2582 C 0.36909 0.27369 0.37281 0.0
C2583 C 0.3523 0.26352 0.3797 0.0
C2584 C 0.33639 0.26422 0.36439 0.0
C2585 C 0.38618 0.2726 0.3893 0.0
C2586 C 0.39567 0.2521 0.40099 0.0
C2587 C 0.39343 0.29131 0.39349 0.0
C2588 C 0.38442 0.31355 0.38218 0.0
C2589 C 0.36327 0.32571 0.38879 0.0
C2590 C 0.35486 0.34688 0.37816 0.0
C2591 C 0.36751 0.35594 0.36085 0.0
C2592 C 0.38869 0.34398 0.35438 0.0
C2593 C 0.39722 0.32292 0.36515 0.0
H2594 H 0.36094 0.37228 0.35257 0.0
H2595 H 0.44879 0.16816 0.45362 0.0
H2596 H 0.57853 0.83449 0.62682 0.0
H2597 H 0.60245 0.83772 0.65652 0.0
H2598 H 0.65264 0.78417 0.6259 0.0
H2599 H 0.62907 0.78069 0.59678 0.0
H2600 H 0.64753 0.77689 0.67218 0.0
H2601 H 0.65385 0.83915 0.61837 0.0
H2602 H 0.64063 0.87507 0.59613 0.0
H2603 H 0.61602 0.90679 0.66139 0.0
H2604 H 0.62881 0.87095 0.684 0.0
H2605 H 0.7417 0.77517 0.72112 0.0
H2606 H 0.71414 0.78017 0.69347 0.0
H2607 H 0.67444 0.83627 0.73121 0.0
H2608 H 0.70298 0.83206 0.7581 0.0
H2609 H 0.66993 0.84418 0.6859 0.0
H2610 H 0.66711 0.7813 0.73971 0.0
H2611 H 0.68221 0.7452 0.76089 0.0
H2612 H 0.70132 0.7141 0.69448 0.0
H2613 H 0.68661 0.75006 0.67289 0.0
C2614 C 0.59473 0.82357 0.62637 0.0
C2615 C 0.6018 0.80722 0.60955 0.0
C2616 C 0.6084 0.82546 0.6433 0.0
C2617 C 0.62937 0.81113 0.64351 0.0
C2618 C 0.63651 0.79528 0.62628 0.0
C2619 C 0.62295 0.79335 0.60957 0.0
C2620 C 0.64385 0.81157 0.66206 0.0
C2621 C 0.6525 0.7916 0.67506 0.0
C2622 C 0.64988 0.83088 0.66643 0.0
C2623 C 0.64198 0.85233 0.65284 0.0
C2624 C 0.64539 0.85373 0.62795 0.0
C2625 C 0.63803 0.87408 0.61528 0.0
C2626 C 0.62741 0.89318 0.62733 0.0
C2627 C 0.62418 0.89197 0.65208 0.0
C2628 C 0.63148 0.87165 0.66482 0.0
C2629 C 0.72717 0.78872 0.72329 0.0
C2630 C 0.72425 0.80315 0.74171 0.0
C2631 C 0.71133 0.79146 0.70765 0.0
C2632 C 0.6918 0.80811 0.71071 0.0
C2633 C 0.68923 0.82314 0.72863 0.0
C2634 C 0.70546 0.82076 0.74397 0.0
C2635 C 0.6741 0.80931 0.69546 0.0
C2636 C 0.66474 0.82956 0.68325 0.0
C2637 C 0.66744 0.79018 0.69167 0.0
C2638 C 0.67584 0.76842 0.70469 0.0
C2639 C 0.67458 0.76677 0.72963 0.0
C2640 C 0.68309 0.74634 0.7417 0.0
C2641 C 0.69273 0.72738 0.72903 0.0
C2642 C 0.69383 0.72879 0.70427 0.0
C2643 C 0.68539 0.74919 0.69211 0.0
H2644 H 0.69934 0.71159 0.73841 0.0
H2645 H 0.62175 0.90893 0.61749 0.0
H2646 H 0.56845 0.25191 0.42762 0.0
H2647 H 0.59974 0.25942 0.40367 0.0
H2648 H 0.63958 0.23081 0.46085 0.0
H2649 H 0.60774 0.22489 0.48522 0.0
H2650 H 0.65249 0.26318 0.44302 0.0
H2651 H 0.6373 0.20295 0.40613 0.0
H2652 H 0.61478 0.18444 0.38723 0.0
H2653 H 0.60461 0.23628 0.33179 0.0
H2654 H 0.62688 0.25522 0.35049 0.0
H2655 H 0.74717 0.22955 0.34895 0.0
H2656 H 0.71554 0.22445 0.37438 0.0
H2657 H 0.68526 0.29485 0.36661 0.0
H2658 H 0.71709 0.30023 0.34229 0.0
H2659 H 0.6688 0.24115 0.35971 0.0
H2660 H 0.67757 0.30484 0.40652 0.0
H2661 H 0.70226 0.32035 0.42575 0.0
H2662 H 0.7265 0.25733 0.46318 0.0
H2663 H 0.70242 0.24129 0.44347 0.0
C2664 C 0.58395 0.2473 0.43492 0.0
C2665 C 0.5859 0.23761 0.45803 0.0
C2666 C 0.60191 0.25139 0.42121 0.0
C2667 C 0.62239 0.24513 0.43003 0.0
C2668 C 0.62413 0.23573 0.45342 0.0
C2669 C 0.60602 0.23221 0.46733 0.0
C2670 C 0.64191 0.24842 0.41505 0.0
C2671 C 0.65592 0.25826 0.42484 0.0
C2672 C 0.64679 0.24209 0.39118 0.0
C2673 C 0.63362 0.23057 0.3798 0.0
C2674 C 0.63018 0.21044 0.38996 0.0
C2675 C 0.61747 0.19987 0.37928 0.0
C2676 C 0.60824 0.2092 0.35835 0.0
C2677 C 0.61176 0.22908 0.34801 0.0
C2678 C 0.62444 0.23972 0.35862 0.0
C2679 C 0.73389 0.24397 0.35298 0.0
C2680 C 0.73479 0.26534 0.34392 0.0
C2681 C 0.71584 0.24104 0.36748 0.0
C2682 C 0.69825 0.25935 0.37292 0.0
C2683 C 0.69893 0.2806 0.36344 0.0
C2684 C 0.71713 0.28362 0.34941 0.0
C2685 C 0.67882 0.25613 0.38767 0.0
C2686 C 0.66505 0.24615 0.37786 0.0
C2687 C 0.67417 0.26219 0.41147 0.0
C2688 C 0.68863 0.27178 0.42314 0.0
C2689 C 0.68846 0.29421 0.41851 0.0
C2690 C 0.70229 0.3031 0.42953 0.0
C2691 C 0.71604 0.28979 0.44556 0.0
C2692 C 0.71596 0.26757 0.45062 0.0
C2693 C 0.7023 0.25855 0.43945 0.0
H2694 H 0.72667 0.29673 0.45416 0.0
H2695 H 0.59839 0.201 0.35012 0.0
H2696 H 0.83243 0.58643 0.4928 0.0
H2697 H 0.84528 0.60738 0.4582 0.0
H2698 H 0.78498 0.65826 0.46356 0.0
H2699 H 0.7725 0.63811 0.49814 0.0
H2700 H 0.8082 0.62504 0.41634 0.0
H2701 H 0.80555 0.68522 0.47104 0.0
H2702 H 0.81763 0.69715 0.50635 0.0
H2703 H 0.88362 0.67125 0.47965 0.0
H2704 H 0.87184 0.65882 0.44437 0.0
H2705 H 0.78593 0.71405 0.33377 0.0
H2706 H 0.7894 0.68894 0.3687 0.0
H2707 H 0.85649 0.68722 0.36791 0.0
H2708 H 0.85268 0.71397 0.33323 0.0
H2709 H 0.83898 0.6898 0.41154 0.0
H2710 H 0.83847 0.64181 0.34979 0.0
H2711 H 0.82467 0.63157 0.31468 0.0
H2712 H 0.76404 0.63377 0.35439 0.0
H2713 H 0.77737 0.6443 0.38964 0.0
C2714 C 0.82227 0.60242 0.48697 0.0
C2715 C 0.80137 0.61049 0.49794 0.0
C2716 C 0.82956 0.6143 0.46724 0.0
C2717 C 0.81609 0.63441 0.45854 0.0
C2718 C 0.79571 0.64293 0.47021 0.0
C2719 C 0.78852 0.63125 0.48982 0.0
C2720 C 0.82164 0.64537 0.43563 0.0
C2721 C 0.81516 0.63905 0.41512 0.0
C2722 C 0.83083 0.66346 0.43418 0.0
C2723 C 0.83785 0.67076 0.45537 0.0
C2724 C 0.82263 0.68179 0.47289 0.0
C2725 C 0.82941 0.68871 0.49285 0.0
C2726 C 0.85139 0.68486 0.49531 0.0
C2727 C 0.86661 0.67413 0.47778 0.0
C2728 C 0.85989 0.66713 0.45782 0.0
C2729 C 0.80162 0.70805 0.3406 0.0
C2730 C 0.81923 0.7156 0.33028 0.0
C2731 C 0.80358 0.69357 0.36068 0.0
C2732 C 0.8234 0.68548 0.37057 0.0
C2733 C 0.8411 0.69298 0.3604 0.0
C2734 C 0.83898 0.70809 0.34051 0.0
C2735 C 0.82504 0.66986 0.39199 0.0
C2736 C 0.83272 0.67534 0.41233 0.0
C2737 C 0.81673 0.651 0.3933 0.0
C2738 C 0.80895 0.64384 0.37236 0.0
C2739 C 0.8222 0.64011 0.35103 0.0
C2740 C 0.81445 0.63428 0.3311 0.0
C2741 C 0.7935 0.63202 0.33231 0.0
C2742 C 0.78028 0.63549 0.35349 0.0
C2743 C 0.78795 0.64132 0.37347 0.0
H2744 H 0.78751 0.62758 0.31683 0.0
H2745 H 0.85662 0.69026 0.51074 0.0
H2746 H 0.51058 0.84226 0.49985 0.0
H2747 H 0.48071 0.8399 0.4781 0.0
H2748 H 0.4528 0.81159 0.54121 0.0
H2749 H 0.48232 0.81467 0.56305 0.0
H2750 H 0.46499 0.78337 0.50274 0.0
H2751 H 0.42344 0.85664 0.51873 0.0
H2752 H 0.41616 0.89712 0.52178 0.0
H2753 H 0.43115 0.90532 0.44666 0.0
H2754 H 0.43891 0.8648 0.4432 0.0
H2755 H 0.3817 0.76687 0.43685 0.0
H2756 H 0.4023 0.7758 0.4667 0.0
H2757 H 0.43291 0.81245 0.41286 0.0
H2758 H 0.41208 0.80417 0.38321 0.0
H2759 H 0.41536 0.83685 0.45106 0.0
H2760 H 0.46047 0.7635 0.43575 0.0
H2761 H 0.46833 0.72298 0.43235 0.0
H2762 H 0.44726 0.71484 0.506 0.0
H2763 H 0.43892 0.7554 0.50974 0.0
C2764 C 0.49727 0.83701 0.50943 0.0
C2765 C 0.49846 0.829 0.53318 0.0
C2766 C 0.4804 0.83533 0.49694 0.0
C2767 C 0.46474 0.82531 0.50804 0.0
C2768 C 0.46477 0.81935 0.53238 0.0
C2769 C 0.48145 0.82142 0.54493 0.0
C2770 C 0.45066 0.81802 0.49341 0.0
C2771 C 0.45373 0.79505 0.49182 0.0
C2772 C 0.4365 0.83327 0.4788 0.0
C2773 C 0.4319 0.85765 0.48074 0.0
C2774 C 0.42538 0.86704 0.50288 0.0
C2775 C 0.42113 0.89 0.50468 0.0
C2776 C 0.42322 0.90379 0.48443 0.0
C2777 C 0.42955 0.89462 0.46233 0.0
C2778 C 0.43386 0.87165 0.46044 0.0
C2779 C 0.39303 0.77659 0.43137 0.0
C2780 C 0.39525 0.78483 0.40769 0.0
C2781 C 0.40481 0.78162 0.44839 0.0
C2782 C 0.41899 0.79491 0.44195 0.0
C2783 C 0.42194 0.80228 0.41817 0.0
C2784 C 0.41023 0.79726 0.40119 0.0
C2785 C 0.42997 0.80222 0.46007 0.0
C2786 C 0.42636 0.82517 0.46225 0.0
C2787 C 0.44371 0.78693 0.47514 0.0
C2788 C 0.44882 0.76252 0.47296 0.0
C2789 C 0.45732 0.7531 0.45117 0.0
C2790 C 0.46189 0.73012 0.44919 0.0
C2791 C 0.45823 0.71635 0.46893 0.0
C2792 C 0.45004 0.72553 0.49071 0.0
C2793 C 0.44539 0.74852 0.49278 0.0
H2794 H 0.46179 0.69856 0.46736 0.0
H2795 H 0.4199 0.92157 0.48586 0.0
H2796 H 0.27181 0.48271 0.42566 0.0
H2797 H 0.26412 0.45521 0.40212 0.0
H2798 H 0.2441 0.42161 0.46622 0.0
H2799 H 0.25128 0.44962 0.48992 0.0
H2800 H 0.27734 0.39405 0.43371 0.0
H2801 H 0.20687 0.44481 0.43388 0.0
H2802 H 0.18106 0.48173 0.42902 0.0
H2803 H 0.20457 0.48689 0.35575 0.0
H2804 H 0.23074 0.4501 0.36029 0.0
H2805 H 0.24717 0.313 0.38072 0.0
H2806 H 0.24297 0.34531 0.40367 0.0
H2807 H 0.2549 0.38379 0.33961 0.0
H2808 H 0.25812 0.35142 0.31619 0.0
H2809 H 0.22507 0.40921 0.37235 0.0
H2810 H 0.29465 0.35773 0.37142 0.0
H2811 H 0.31883 0.31987 0.37546 0.0
H2812 H 0.29872 0.3162 0.44984 0.0
H2813 H 0.27355 0.35363 0.44602 0.0
C2814 C 0.26517 0.46983 0.43467 0.0
C2815 C 0.26185 0.46843 0.45953 0.0
C2816 C 0.26089 0.45408 0.42124 0.0
C2817 C 0.25361 0.43636 0.43243 0.0
C2818 C 0.24968 0.43521 0.45727 0.0
C2819 C 0.25353 0.45132 0.47074 0.0
C2820 C 0.25137 0.41848 0.41806 0.0
C2821 C 0.26567 0.39723 0.42059 0.0
C2822 C 0.23668 0.42287 0.40037 0.0
C2823 C 0.22086 0.44483 0.39748 0.0
C2824 C 0.20663 0.45391 0.41678 0.0
C2825 C 0.19192 0.47478 0.41408 0.0
C2826 C 0.19121 0.48667 0.3921 0.0
C2827 C 0.20515 0.47767 0.37276 0.0
C2828 C 0.21991 0.4568 0.37538 0.0
C2829 C 0.24848 0.32845 0.3714 0.0
C2830 C 0.25341 0.3296 0.34672 0.0
C2831 C 0.24609 0.34691 0.38457 0.0
C2832 C 0.24917 0.36678 0.37345 0.0
C2833 C 0.25263 0.36853 0.34856 0.0
C2834 C 0.25461 0.35004 0.33523 0.0
C2835 C 0.25085 0.38469 0.38818 0.0
C2836 C 0.23666 0.40597 0.38556 0.0
C2837 C 0.26582 0.38035 0.40567 0.0
C2838 C 0.28198 0.35843 0.40837 0.0
C2839 C 0.2952 0.34879 0.38861 0.0
C2840 C 0.30899 0.32733 0.39082 0.0
C2841 C 0.31023 0.31559 0.41287 0.0
C2842 C 0.29769 0.32529 0.43276 0.0
C2843 C 0.28357 0.3466 0.43055 0.0
H2844 H 0.32103 0.29903 0.41458 0.0
H2845 H 0.17981 0.50285 0.39004 0.0
H2846 H 0.45521 0.20515 0.58762 0.0
H2847 H 0.42796 0.20995 0.62146 0.0
H2848 H 0.44604 0.26733 0.64004 0.0
H2849 H 0.47336 0.26263 0.60597 0.0
H2850 H 0.44076 0.23784 0.67968 0.0
H2851 H 0.40165 0.27656 0.61567 0.0
H2852 H 0.38898 0.28222 0.5756 0.0
H2853 H 0.35976 0.22821 0.59049 0.0
H2854 H 0.37258 0.22198 0.63056 0.0
H2855 H 0.34772 0.26905 0.76435 0.0
H2856 H 0.37653 0.26881 0.73248 0.0
H2857 H 0.35857 0.21777 0.69927 0.0
H2858 H 0.32966 0.21842 0.73057 0.0
H2859 H 0.36402 0.24793 0.66701 0.0
H2860 H 0.40538 0.20792 0.73058 0.0
H2861 H 0.41788 0.20298 0.77074 0.0
H2862 H 0.44253 0.26026 0.75679 0.0
H2863 H 0.42991 0.2657 0.71663 0.0
C2864 C 0.4535 0.21871 0.59897 0.0
C2865 C 0.46652 0.23347 0.59409 0.0
C2866 C 0.43782 0.22152 0.61826 0.0
C2867 C 0.43488 0.23904 0.63332 0.0
C2868 C 0.44801 0.25368 0.6287 0.0
C2869 C 0.46351 0.25107 0.60914 0.0
C2870 C 0.41789 0.24205 0.65364 0.0
C2871 C 0.42392 0.24038 0.67692 0.0
C2872 C 0.39594 0.2451 0.65014 0.0
C2873 C 0.38827 0.24866 0.62603 0.0
C2874 C 0.39271 0.26574 0.61032 0.0
C2875 C 0.38547 0.26908 0.58763 0.0
C2876 C 0.37362 0.25554 0.58048 0.0
C2877 C 0.36897 0.23866 0.59604 0.0
C2878 C 0.37622 0.23522 0.61876 0.0
C2879 C 0.35016 0.25759 0.75043 0.0
C2880 C 0.33648 0.24366 0.75011 0.0
C2881 C 0.36665 0.25744 0.73217 0.0
C2882 C 0.36993 0.24316 0.71336 0.0
C2883 C 0.35645 0.22901 0.7134 0.0
C2884 C 0.33998 0.22927 0.73147 0.0
C2885 C 0.38686 0.24316 0.69323 0.0
C2886 C 0.38082 0.24545 0.66988 0.0
C2887 C 0.40876 0.24071 0.69671 0.0
C2888 C 0.41652 0.23734 0.72072 0.0
C2889 C 0.41334 0.21954 0.73614 0.0
C2890 C 0.42046 0.21664 0.75889 0.0
C2891 C 0.43094 0.23133 0.76633 0.0
C2892 C 0.43438 0.24891 0.75101 0.0
C2893 C 0.42726 0.2519 0.72825 0.0
H2894 H 0.43644 0.22906 0.78395 0.0
H2895 H 0.36799 0.25817 0.56291 0.0
H2896 H 0.81808 0.46629 0.58808 0.0
H2897 H 0.81507 0.4333 0.61312 0.0
H2898 H 0.83254 0.46113 0.67274 0.0
H2899 H 0.83641 0.49365 0.64743 0.0
H2900 H 0.85054 0.41874 0.67416 0.0
H2901 H 0.77812 0.46353 0.66245 0.0
H2902 H 0.74897 0.48363 0.63768 0.0
H2903 H 0.75137 0.42283 0.60617 0.0
H2904 H 0.78073 0.40243 0.63054 0.0
H2905 H 0.81484 0.3516 0.76627 0.0
H2906 H 0.81954 0.38278 0.73947 0.0
H2907 H 0.79748 0.35518 0.68271 0.0
H2908 H 0.79119 0.32484 0.71015 0.0
H2909 H 0.78225 0.39674 0.67868 0.0
H2910 H 0.85406 0.35164 0.68991 0.0
H2911 H 0.88383 0.33111 0.71365 0.0
H2912 H 0.88331 0.39157 0.7447 0.0
H2913 H 0.85334 0.41241 0.72137 0.0
C2914 C 0.82158 0.46514 0.60646 0.0
C2915 C 0.82757 0.48247 0.61579 0.0
C2916 C 0.81966 0.4464 0.62083 0.0
C2917 C 0.82305 0.4449 0.64505 0.0
C2918 C 0.82977 0.46187 0.65417 0.0
C2919 C 0.83209 0.48042 0.63967 0.0
C2920 C 0.81924 0.42594 0.66103 0.0
C2921 C 0.8355 0.41411 0.67531 0.0
C2922 C 0.79986 0.4194 0.66219 0.0
C2923 C 0.78172 0.43151 0.64817 0.0
C2924 C 0.77245 0.45447 0.6502 0.0
C2925 C 0.75591 0.46592 0.63621 0.0
C2926 C 0.74837 0.45453 0.62031 0.0
C2927 C 0.75725 0.43164 0.61847 0.0
C2928 C 0.77382 0.42012 0.63238 0.0
C2929 C 0.8111 0.35215 0.74803 0.0
C2930 C 0.80293 0.33566 0.74018 0.0
C2931 C 0.8139 0.36994 0.73263 0.0
C2932 C 0.80951 0.37114 0.70873 0.0
C2933 C 0.80114 0.35469 0.70096 0.0
C2934 C 0.79766 0.33727 0.7166 0.0
C2935 C 0.81356 0.38952 0.69192 0.0
C2936 C 0.79733 0.40128 0.67748 0.0
C2937 C 0.83305 0.39591 0.69047 0.0
C2938 C 0.85142 0.38353 0.70401 0.0
C2939 C 0.86028 0.36053 0.70185 0.0
C2940 C 0.87717 0.34884 0.71524 0.0
C2941 C 0.88543 0.36002 0.7307 0.0
C2942 C 0.87689 0.38293 0.73273 0.0
C2943 C 0.85998 0.39469 0.7194 0.0
H2944 H 0.89848 0.35093 0.74108 0.0
H2945 H 0.73562 0.46344 0.60944 0.0
H2946 H 0.24964 0.56778 0.54352 0.0
H2947 H 0.24946 0.60032 0.56521 0.0
H2948 H 0.29805 0.55869 0.60801 0.0
H2949 H 0.29767 0.52648 0.58717 0.0
H2950 H 0.27253 0.58734 0.63413 0.0
H2951 H 0.30959 0.58938 0.5565 0.0
H2952 H 0.31428 0.59123 0.51277 0.0
H2953 H 0.26614 0.65399 0.51053 0.0
H2954 H 0.26081 0.65228 0.55425 0.0
H2955 H 0.31405 0.66339 0.67922 0.0
H2956 H 0.31646 0.63605 0.64996 0.0
H2957 H 0.26108 0.6795 0.61864 0.0
H2958 H 0.25909 0.70722 0.64724 0.0
H2959 H 0.28921 0.65137 0.58598 0.0
H2960 H 0.25301 0.64694 0.66563 0.0
H2961 H 0.25332 0.64556 0.70914 0.0
H2962 H 0.30515 0.58557 0.70666 0.0
H2963 H 0.30541 0.58687 0.66306 0.0
C2964 C 0.25962 0.56558 0.55816 0.0
C2965 C 0.27371 0.54474 0.56371 0.0
C2966 C 0.25978 0.58416 0.57027 0.0
C2967 C 0.27413 0.58201 0.58785 0.0
C2968 C 0.28693 0.56083 0.59446 0.0
C2969 C 0.2867 0.54241 0.58254 0.0
C2970 C 0.277 0.60162 0.59869 0.0
C2971 C 0.27628 0.60123 0.6235 0.0
C2972 C 0.28188 0.61985 0.58492 0.0
C2973 C 0.28461 0.62056 0.55864 0.0
C2974 C 0.2998 0.60343 0.54668 0.0
C2975 C 0.3026 0.60448 0.5219 0.0
C2976 C 0.29053 0.62273 0.50891 0.0
C2977 C 0.27547 0.63987 0.52063 0.0
C2978 C 0.27253 0.63885 0.54541 0.0
C2979 C 0.30304 0.66754 0.66541 0.0
C2980 C 0.28601 0.68709 0.66582 0.0
C2981 C 0.30438 0.65189 0.64877 0.0
C2982 C 0.28853 0.65556 0.63268 0.0
C2983 C 0.2733 0.67629 0.6311 0.0
C2984 C 0.27206 0.692 0.64757 0.0
C2985 C 0.28503 0.63671 0.62115 0.0
C2986 C 0.28543 0.63739 0.5964 0.0
C2987 C 0.28026 0.61848 0.63487 0.0
C2988 C 0.27929 0.61706 0.66113 0.0
C2989 C 0.26445 0.63346 0.67439 0.0
C2990 C 0.26457 0.63273 0.69905 0.0
C2991 C 0.27926 0.61549 0.71066 0.0
C2992 C 0.29379 0.59891 0.69764 0.0
C2993 C 0.29381 0.59963 0.67296 0.0
H2994 H 0.27936 0.61498 0.72975 0.0
H2995 H 0.29296 0.62369 0.48976 0.0
loop_
_geom_bond_atom_site_label_1
_geom_bond_atom_site_label_2
_geom_bond_distance
_geom_bond_site_symmetry_2
_ccdc_geom_bond_type
Cu0 N1 1.999 . S
Cu0 O6 1.974 . S
Cu0 N11 1.985 1_455 S
Cu0 O20 1.959 1_455 S
N1 Cu0 1.999 . S
N1 C3 1.263 . S
N1 C5 1.389 . S
N2 C3 1.358 . S
N2 C4 1.400 . S
C3 N1 1.263 . S
C3 N2 1.358 . S
C3 H9 0.930 . S
C4 N2 1.400 . S
C4 C5 1.351 . S
C4 H21 0.930 . S
C5 N1 1.389 . S
C5 C4 1.351 . S
C5 H10 0.930 . S
O6 Cu0 1.974 . S
O6 C16 1.282 1_545 S
C7 O8 1.261 . S
C7 O20 1.251 . S
O8 C7 1.261 . S
H9 C3 0.930 . S
H10 C5 0.930 . S
N11 Cu0 1.985 1_655 S
N11 C13 1.335 . S
N11 C14 1.390 1_545 S
N12 C13 1.345 1_565 S
N12 C15 1.336 . S
C13 N11 1.335 . S
C13 N12 1.345 1_545 S
C13 H18 0.930 . S
C14 N11 1.390 1_565 S
C14 C15 1.346 . S
C14 H19 0.930 1_655 S
C15 N12 1.336 . S
C15 C14 1.346 . S
C15 H22 0.929 . S
C16 O6 1.282 1_565 S
C16 O17 1.216 1_565 S
O17 C16 1.216 1_545 S
H18 C13 0.930 . S
H19 C14 0.930 1_455 S
O20 Cu0 1.959 1_655 S
O20 C7 1.251 . S
H21 C4 0.930 . S
H22 C15 0.929 . S
Cu23 N24 1.999 1_545 S
Cu23 O29 1.974 . S
Cu23 N34 1.985 . S
Cu23 O43 1.959 1_545 S
N24 Cu23 1.999 1_565 S
N24 C26 1.263 1_455 S
N24 C28 1.389 . S
N25 C26 1.358 . S
N25 C27 1.400 1_655 S
C26 N24 1.263 1_655 S
C26 N25 1.358 . S
C26 H32 0.930 1_565 S
C27 N25 1.400 1_455 S
C27 C28 1.351 . S
C27 H44 0.930 . S
C28 N24 1.389 . S
C28 C27 1.351 . S
C28 H33 0.930 . S
O29 Cu23 1.974 . S
O29 C39 1.282 1_455 S
C30 O31 1.261 . S
C30 O43 1.251 . S
O31 C30 1.261 . S
H32 C26 0.930 1_545 S
H33 C28 0.930 . S
N34 Cu23 1.985 . S
N34 C36 1.335 . S
N34 C37 1.390 . S
N35 C36 1.345 . S
N35 C38 1.336 . S
C36 N34 1.335 . S
C36 N35 1.345 . S
C36 H41 0.930 . S
C37 N34 1.390 . S
C37 C38 1.346 . S
C37 H42 0.930 . S
C38 N35 1.336 . S
C38 C37 1.346 . S
C38 H45 0.929 . S
C39 O29 1.282 1_655 S
C39 O40 1.216 1_655 S
O40 C39 1.216 1_455 S
H41 C36 0.930 . S
H42 C37 0.930 . S
O43 Cu23 1.959 1_565 S
O43 C30 1.251 . S
H44 C27 0.930 . S
H45 C38 0.929 . S
Cu46 N47 1.999 . S
Cu46 O52 1.974 . S
Cu46 N57 1.985 . S
Cu46 O66 1.959 . S
N47 Cu46 1.999 . S
N47 C49 1.231 1_545 S
N47 C51 1.389 . S
N48 C49 1.376 . S
N48 C50 1.398 1_565 S
C49 N47 1.231 1_565 S
C49 N48 1.376 . S
C49 H55 0.943 . S
C50 N48 1.398 1_545 S
C50 C51 1.354 . S
C50 H67 0.930 1_544 S
C51 N47 1.389 . S
C51 C50 1.354 . S
C51 H56 0.930 . S
O52 Cu46 1.974 . S
O52 C62 1.282 . S
C53 O54 1.261 . S
C53 O66 1.251 . S
O54 C53 1.261 . S
H55 C49 0.943 . S
H56 C51 0.930 . S
N57 Cu46 1.985 . S
N57 C59 1.335 . S
N57 C60 1.390 . S
N58 C59 1.345 . S
N58 C61 1.336 . S
C59 N57 1.335 . S
C59 N58 1.345 . S
C59 H64 0.930 . S
C60 N57 1.390 . S
C60 C61 1.346 . S
C60 H65 0.930 . S
C61 N58 1.336 . S
C61 C60 1.346 . S
C61 H68 0.929 . S
C62 O52 1.282 . S
C62 O63 1.216 . S
O63 C62 1.216 . S
H64 C59 0.930 . S
H65 C60 0.930 . S
O66 Cu46 1.959 . S
O66 C53 1.251 . S
H67 C50 0.930 1_566 S
H68 C61 0.929 . S
Cu69 N70 1.999 . S
Cu69 O75 1.974 . S
Cu69 N80 1.985 . S
Cu69 O89 1.959 . S
N70 Cu69 1.999 . S
N70 C72 1.263 . S
N70 C74 1.389 . S
N71 C72 1.358 . S
N71 C73 1.400 . S
C72 N70 1.263 . S
C72 N71 1.358 . S
C72 H78 0.930 . S
C73 N71 1.400 . S
C73 C74 1.351 . S
C73 H90 0.930 1_554 S
C74 N70 1.389 . S
C74 C73 1.351 . S
C74 H79 0.930 . S
O75 Cu69 1.974 . S
O75 C85 1.282 . S
C76 O77 1.261 . S
C76 O89 1.251 . S
O77 C76 1.261 . S
H78 C72 0.930 . S
H79 C74 0.930 . S
N80 Cu69 1.985 . S
N80 C82 1.335 1_455 S
N80 C83 1.390 . S
N81 C82 1.345 . S
N81 C84 1.336 . S
C82 N80 1.335 1_655 S
C82 N81 1.345 . S
C82 H87 0.930 . S
C83 N80 1.390 . S
C83 C84 1.346 1_455 S
C83 H88 0.930 . S
C84 N81 1.336 . S
C84 C83 1.346 1_655 S
C84 H91 0.929 . S
C85 O75 1.282 . S
C85 O86 1.216 . S
O86 C85 1.216 . S
H87 C82 0.930 . S
H88 C83 0.930 . S
O89 Cu69 1.959 . S
O89 C76 1.251 . S
H90 C73 0.930 1_556 S
H91 C84 0.929 . S
Cu92 N93 1.999 1_554 S
Cu92 O98 1.974 . S
Cu92 N103 1.985 1_545 S
Cu92 O112 1.959 1_544 S
N93 Cu92 1.999 1_556 S
N93 C95 1.263 . S
N93 C97 1.389 . S
N94 C95 1.358 . S
N94 C96 1.400 . S
C95 N93 1.263 . S
C95 N94 1.358 . S
C95 H101 0.930 . S
C96 N94 1.400 . S
C96 C97 1.351 . S
C96 H113 0.930 . S
C97 N93 1.389 . S
C97 C96 1.351 . S
C97 H102 0.930 . S
O98 Cu92 1.974 . S
O98 C108 1.282 . S
C99 O100 1.261 . S
C99 O112 1.251 . S
O100 C99 1.261 . S
H101 C95 0.930 . S
H102 C97 0.930 . S
N103 Cu92 1.985 1_565 S
N103 C105 1.335 . S
N103 C106 1.390 . S
N104 C105 1.345 . S
N104 C107 1.336 . S
C105 N103 1.335 . S
C105 N104 1.345 . S
C105 H110 0.930 . S
C106 N103 1.390 . S
C106 C107 1.346 . S
C106 H111 0.930 . S
C107 N104 1.336 . S
C107 C106 1.346 . S
C107 H114 0.929 . S
C108 O98 1.282 . S
C108 O109 1.216 . S
O109 C108 1.216 . S
H110 C105 0.930 . S
H111 C106 0.930 . S
O112 Cu92 1.959 1_566 S
O112 C99 1.251 . S
H113 C96 0.930 . S
H114 C107 0.929 . S
Cu115 N116 1.999 1_454 S
Cu115 O121 1.974 1_455 S
Cu115 N126 1.985 . S
Cu115 O135 1.959 1_554 S
N116 Cu115 1.999 1_656 S
N116 C118 1.263 . S
N116 C120 1.389 . S
N117 C118 1.358 . S
N117 C119 1.400 . S
C118 N116 1.263 . S
C118 N117 1.358 . S
C118 H124 0.930 . S
C119 N117 1.400 . S
C119 C120 1.351 . S
C119 H136 0.930 . S
C120 N116 1.389 . S
C120 C119 1.351 . S
C120 H125 0.930 1_655 S
O121 Cu115 1.974 1_655 S
O121 C131 1.282 . S
C122 O123 1.261 . S
C122 O135 1.251 . S
O123 C122 1.261 . S
H124 C118 0.930 . S
H125 C120 0.930 1_455 S
N126 Cu115 1.985 . S
N126 C128 1.335 . S
N126 C129 1.390 . S
N127 C128 1.345 . S
N127 C130 1.336 . S
C128 N126 1.335 . S
C128 N127 1.345 . S
C128 H133 0.930 . S
C129 N126 1.390 . S
C129 C130 1.346 . S
C129 H134 0.930 . S
C130 N127 1.336 . S
C130 C129 1.346 . S
C130 H137 0.929 . S
C131 O121 1.282 . S
C131 O132 1.216 . S
O132 C131 1.216 . S
H133 C128 0.930 . S
H134 C129 0.930 . S
O135 Cu115 1.959 1_556 S
O135 C122 1.251 . S
H136 C119 0.930 . S
H137 C130 0.929 . S
Cu138 N139 1.999 . S
Cu138 O144 1.974 . S
Cu138 N149 1.985 . S
Cu138 O158 1.959 . S
N139 Cu138 1.999 . S
N139 C141 1.263 . S
N139 C143 1.389 . S
N140 C141 1.358 . S
N140 C142 1.400 . S
C141 N139 1.263 . S
C141 N140 1.358 . S
C141 H147 0.930 . S
C142 N140 1.400 . S
C142 C143 1.351 . S
C142 H159 0.930 . S
C143 N139 1.389 . S
C143 C142 1.351 . S
C143 H148 0.930 . S
O144 Cu138 1.974 . S
O144 C154 1.282 . S
C145 O146 1.261 . S
C145 O158 1.251 . S
O146 C145 1.261 . S
H147 C141 0.930 . S
H148 C143 0.930 . S
N149 Cu138 1.985 . S
N149 C151 1.335 . S
N149 C152 1.390 . S
N150 C151 1.345 . S
N150 C153 1.336 . S
C151 N149 1.335 . S
C151 N150 1.345 . S
C151 H156 0.930 . S
C152 N149 1.390 . S
C152 C153 1.346 . S
C152 H157 0.930 . S
C153 N150 1.336 . S
C153 C152 1.346 . S
C153 H160 0.929 . S
C154 O144 1.282 . S
C154 O155 1.216 . S
O155 C154 1.216 . S
H156 C151 0.930 . S
H157 C152 0.930 . S
O158 Cu138 1.959 . S
O158 C145 1.251 . S
H159 C142 0.930 . S
H160 C153 0.929 . S
Cu161 N162 1.999 . S
Cu161 O167 1.974 . S
Cu161 N172 1.985 . S
Cu161 O181 1.959 . S
N162 Cu161 1.999 . S
N162 C164 1.263 . S
N162 C166 1.389 . S
N163 C164 1.358 . S
N163 C165 1.400 . S
C164 N162 1.263 . S
C164 N163 1.358 . S
C164 H170 0.930 . S
C165 N163 1.400 . S
C165 C166 1.351 . S
C165 H182 0.930 . S
C166 N162 1.389 . S
C166 C165 1.351 . S
C166 H171 0.930 . S
O167 Cu161 1.974 . S
O167 C177 1.282 . S
C168 O169 1.261 . S
C168 O181 1.251 . S
O169 C168 1.261 . S
H170 C164 0.930 . S
H171 C166 0.930 . S
N172 Cu161 1.985 . S
N172 C174 1.335 . S
N172 C175 1.390 . S
N173 C174 1.345 . S
N173 C176 1.336 . S
C174 N172 1.335 . S
C174 N173 1.345 . S
C174 H179 0.930 . S
C175 N172 1.390 . S
C175 C176 1.346 . S
C175 H180 0.930 . S
C176 N173 1.336 . S
C176 C175 1.346 . S
C176 H183 0.929 . S
C177 O167 1.282 . S
C177 O178 1.216 . S
O178 C177 1.216 . S
H179 C174 0.930 . S
H180 C175 0.930 . S
O181 Cu161 1.959 . S
O181 C168 1.251 . S
H182 C165 0.930 . S
H183 C176 0.929 . S
Cu184 N185 1.999 . S
Cu184 O190 1.974 . S
Cu184 N195 1.985 . S
Cu184 O204 1.959 . S
N185 Cu184 1.999 . S
N185 C187 1.263 . S
N185 C189 1.389 . S
N186 C187 1.358 . S
N186 C188 1.400 . S
C187 N185 1.263 . S
C187 N186 1.358 . S
C187 H193 0.930 . S
C188 N186 1.400 . S
C188 C189 1.351 . S
C188 H205 0.930 . S
C189 N185 1.389 . S
C189 C188 1.351 . S
C189 H194 0.930 . S
O190 Cu184 1.974 . S
O190 C200 1.282 . S
C191 O192 1.261 . S
C191 O204 1.251 . S
O192 C191 1.261 . S
H193 C187 0.930 . S
H194 C189 0.930 . S
N195 Cu184 1.985 . S
N195 C197 1.335 . S
N195 C198 1.390 . S
N196 C197 1.345 . S
N196 C199 1.336 . S
C197 N195 1.335 . S
C197 N196 1.345 . S
C197 H202 0.930 . S
C198 N195 1.390 . S
C198 C199 1.346 . S
C198 H203 0.930 . S
C199 N196 1.336 . S
C199 C198 1.346 . S
C199 H206 0.929 . S
C200 O190 1.282 . S
C200 O201 1.216 . S
O201 C200 1.216 . S
H202 C197 0.930 . S
H203 C198 0.930 . S
O204 Cu184 1.959 . S
O204 C191 1.251 . S
H205 C188 0.930 . S
H206 C199 0.929 . S
Cu207 N208 1.999 . S
Cu207 O213 1.974 . S
Cu207 N218 1.985 . S
Cu207 O227 1.959 . S
N208 Cu207 1.999 . S
N208 C210 1.263 . S
N208 C212 1.389 . S
N209 C210 1.358 . S
N209 C211 1.400 . S
C210 N208 1.263 . S
C210 N209 1.358 . S
C210 H216 0.930 . S
C211 N209 1.400 . S
C211 C212 1.351 . S
C211 H228 0.930 . S
C212 N208 1.389 . S
C212 C211 1.351 . S
C212 H217 0.930 . S
O213 Cu207 1.974 . S
O213 C223 1.282 . S
C214 O215 1.261 . S
C214 O227 1.251 . S
O215 C214 1.261 . S
H216 C210 0.930 . S
H217 C212 0.930 . S
N218 Cu207 1.985 . S
N218 C220 1.335 . S
N218 C221 1.390 . S
N219 C220 1.345 . S
N219 C222 1.336 . S
C220 N218 1.335 . S
C220 N219 1.345 . S
C220 H225 0.930 . S
C221 N218 1.390 . S
C221 C222 1.346 . S
C221 H226 0.930 . S
C222 N219 1.336 . S
C222 C221 1.346 . S
C222 H229 0.929 . S
C223 O213 1.282 . S
C223 O224 1.216 . S
O224 C223 1.216 . S
H225 C220 0.930 . S
H226 C221 0.930 . S
O227 Cu207 1.959 . S
O227 C214 1.251 . S
H228 C211 0.930 . S
H229 C222 0.929 . S
Cu230 N231 1.999 . S
Cu230 O236 1.974 . S
Cu230 N241 1.985 . S
Cu230 O250 1.959 . S
N231 Cu230 1.999 . S
N231 C233 1.263 . S
N231 C235 1.389 . S
N232 C233 1.358 . S
N232 C234 1.400 . S
C233 N231 1.263 . S
C233 N232 1.358 . S
C233 H239 0.930 . S
C234 N232 1.400 . S
C234 C235 1.351 . S
C234 H251 0.930 . S
C235 N231 1.389 . S
C235 C234 1.351 . S
C235 H240 0.930 . S
O236 Cu230 1.974 . S
O236 C246 1.282 . S
C237 O238 1.261 . S
C237 O250 1.251 . S
O238 C237 1.261 . S
H239 C233 0.930 . S
H240 C235 0.930 . S
N241 Cu230 1.985 . S
N241 C243 1.335 . S
N241 C244 1.390 . S
N242 C243 1.345 . S
N242 C245 1.336 . S
C243 N241 1.335 . S
C243 N242 1.345 . S
C243 H248 0.930 . S
C244 N241 1.390 . S
C244 C245 1.346 . S
C244 H249 0.930 . S
C245 N242 1.336 . S
C245 C244 1.346 . S
C245 H252 0.929 . S
C246 O236 1.282 . S
C246 O247 1.216 . S
O247 C246 1.216 . S
H248 C243 0.930 . S
H249 C244 0.930 . S
O250 Cu230 1.959 . S
O250 C237 1.251 . S
H251 C234 0.930 . S
H252 C245 0.929 . S
Cu253 N254 1.999 . S
Cu253 O259 1.974 . S
Cu253 N264 1.985 . S
Cu253 O273 1.959 . S
N254 Cu253 1.999 . S
N254 C256 1.263 . S
N254 C258 1.389 . S
N255 C256 1.358 . S
N255 C257 1.400 . S
C256 N254 1.263 . S
C256 N255 1.358 . S
C256 H262 0.930 . S
C257 N255 1.400 . S
C257 C258 1.351 . S
C257 H274 0.930 . S
C258 N254 1.389 . S
C258 C257 1.351 . S
C258 H263 0.930 . S
O259 Cu253 1.974 . S
O259 C269 1.282 . S
C260 O261 1.261 . S
C260 O273 1.251 . S
O261 C260 1.261 . S
H262 C256 0.930 . S
H263 C258 0.930 . S
N264 Cu253 1.985 . S
N264 C266 1.335 . S
N264 C267 1.390 . S
N265 C266 1.345 . S
N265 C268 1.336 . S
C266 N264 1.335 . S
C266 N265 1.345 . S
C266 H271 0.930 . S
C267 N264 1.390 . S
C267 C268 1.346 . S
C267 H272 0.930 . S
C268 N265 1.336 . S
C268 C267 1.346 . S
C268 H275 0.929 . S
C269 O259 1.282 . S
C269 O270 1.216 . S
O270 C269 1.216 . S
H271 C266 0.930 . S
H272 C267 0.930 . S
O273 Cu253 1.959 . S
O273 C260 1.251 . S
H274 C257 0.930 . S
H275 C268 0.929 . S
Pr276 C278 2.880 . S
Pr276 O296 2.562 . S
Pr276 O297 2.490 . S
Pr276 O298 2.695 . S
Pr276 O299 2.512 . S
Pr276 O301 2.437 . S
Pr276 O304 2.436 . S
Pr276 O306 2.438 . S
Pr277 C287 2.880 . S
Pr277 O298 2.436 . S
Pr277 O300 2.438 . S
Pr277 O302 2.562 . S
Pr277 O303 2.490 . S
Pr277 O304 2.695 . S
Pr277 O305 2.512 . S
Pr277 O307 2.437 . S
C278 Pr276 2.880 . S
C278 C279 1.491 . S
C278 O296 1.254 . S
C278 O297 1.225 . S
C279 C278 1.491 . S
C279 C280 1.392 . S
C279 C284 1.356 . S
C280 C279 1.392 . S
C280 C281 1.368 . S
C280 H308 0.929 . S
C281 C280 1.368 . S
C281 C282 1.386 . S
C281 H309 0.929 . S
C282 C281 1.386 . S
C282 C283 1.373 . S
C283 C282 1.373 . S
C283 C284 1.409 . S
C283 H310 0.931 . S
C284 C279 1.356 . S
C284 C283 1.409 . S
C284 H311 0.930 . S
C285 O298 1.270 . S
C285 O299 1.248 . S
C286 O300 1.267 . S
C286 O301 1.278 . S
C287 Pr277 2.880 . S
C287 C288 1.491 . S
C287 O302 1.254 . S
C287 O303 1.225 . S
C288 C287 1.491 . S
C288 C289 1.392 . S
C288 C293 1.356 . S
C289 C288 1.392 . S
C289 C290 1.368 . S
C289 H312 0.929 . S
C290 C289 1.368 . S
C290 C291 1.386 . S
C290 H313 0.929 . S
C291 C290 1.386 . S
C291 C292 1.373 . S
C292 C291 1.373 . S
C292 C293 1.409 . S
C292 H314 0.931 . S
C293 C288 1.356 . S
C293 C292 1.409 . S
C293 H315 0.930 . S
C294 O304 1.270 . S
C294 O305 1.248 . S
C295 O306 1.267 . S
C295 O307 1.278 . S
O296 Pr276 2.562 . S
O296 C278 1.254 . S
O297 Pr276 2.490 . S
O297 C278 1.225 . S
O298 Pr276 2.695 . S
O298 Pr277 2.436 . S
O298 C285 1.270 . S
O299 Pr276 2.512 . S
O299 C285 1.248 . S
O300 Pr277 2.438 . S
O300 C286 1.267 . S
O301 Pr276 2.437 . S
O301 C286 1.278 . S
O302 Pr277 2.562 . S
O302 C287 1.254 . S
O303 Pr277 2.490 . S
O303 C287 1.225 . S
O304 Pr276 2.436 . S
O304 Pr277 2.695 . S
O304 C294 1.270 . S
O305 Pr277 2.512 . S
O305 C294 1.248 . S
O306 Pr276 2.438 . S
O306 C295 1.267 . S
O307 Pr277 2.437 . S
O307 C295 1.278 . S
H308 C280 0.929 . S
H309 C281 0.929 . S
H310 C283 0.931 . S
H311 C284 0.930 . S
H312 C289 0.929 . S
H313 C290 0.929 . S
H314 C292 0.931 . S
H315 C293 0.930 . S
Pr316 C318 2.880 . S
Pr316 O336 2.562 . S
Pr316 O337 2.490 . S
Pr316 O338 2.695 . S
Pr316 O339 2.512 . S
Pr316 O341 2.437 . S
Pr316 O344 2.436 . S
Pr316 O346 2.438 . S
Pr317 C327 2.880 . S
Pr317 O338 2.436 . S
Pr317 O340 2.438 . S
Pr317 O342 2.562 . S
Pr317 O343 2.490 . S
Pr317 O344 2.695 . S
Pr317 O345 2.512 . S
Pr317 O347 2.437 . S
C318 Pr316 2.880 . S
C318 C319 1.491 . S
C318 O336 1.254 . S
C318 O337 1.225 . S
C319 C318 1.491 . S
C319 C320 1.392 . S
C319 C324 1.356 . S
C320 C319 1.392 . S
C320 C321 1.368 . S
C320 H348 0.929 . S
C321 C320 1.368 . S
C321 C322 1.386 . S
C321 H349 0.929 . S
C322 C321 1.386 . S
C322 C323 1.373 . S
C323 C322 1.373 . S
C323 C324 1.409 . S
C323 H350 0.931 . S
C324 C319 1.356 . S
C324 C323 1.409 . S
C324 H351 0.930 . S
C325 O338 1.270 . S
C325 O339 1.248 . S
C326 O340 1.267 . S
C326 O341 1.278 . S
C327 Pr317 2.880 . S
C327 C328 1.491 . S
C327 O342 1.254 . S
C327 O343 1.225 . S
C328 C327 1.491 . S
C328 C329 1.392 . S
C328 C333 1.356 . S
C329 C328 1.392 . S
C329 C330 1.368 . S
C329 H352 0.929 . S
C330 C329 1.368 . S
C330 C331 1.386 . S
C330 H353 0.929 . S
C331 C330 1.386 . S
C331 C332 1.373 . S
C332 C331 1.373 . S
C332 C333 1.409 . S
C332 H354 0.931 . S
C333 C328 1.356 . S
C333 C332 1.409 . S
C333 H355 0.930 . S
C334 O344 1.270 . S
C334 O345 1.248 . S
C335 O346 1.267 . S
C335 O347 1.278 . S
O336 Pr316 2.562 . S
O336 C318 1.254 . S
O337 Pr316 2.490 . S
O337 C318 1.225 . S
O338 Pr316 2.695 . S
O338 Pr317 2.436 . S
O338 C325 1.270 . S
O339 Pr316 2.512 . S
O339 C325 1.248 . S
O340 Pr317 2.438 . S
O340 C326 1.267 . S
O341 Pr316 2.437 . S
O341 C326 1.278 . S
O342 Pr317 2.562 . S
O342 C327 1.254 . S
O343 Pr317 2.490 . S
O343 C327 1.225 . S
O344 Pr316 2.436 . S
O344 Pr317 2.695 . S
O344 C334 1.270 . S
O345 Pr317 2.512 . S
O345 C334 1.248 . S
O346 Pr316 2.438 . S
O346 C335 1.267 . S
O347 Pr317 2.437 . S
O347 C335 1.278 . S
H348 C320 0.929 . S
H349 C321 0.929 . S
H350 C323 0.931 . S
H351 C324 0.930 . S
H352 C329 0.929 . S
H353 C330 0.929 . S
H354 C332 0.931 . S
H355 C333 0.930 . S
Pr356 C358 2.880 . S
Pr356 O376 2.562 . S
Pr356 O377 2.490 . S
Pr356 O378 2.695 . S
Pr356 O379 2.512 . S
Pr356 O381 2.437 . S
Pr356 O384 2.436 . S
Pr356 O386 2.438 . S
Pr357 C367 2.880 . S
Pr357 O378 2.436 . S
Pr357 O380 2.438 . S
Pr357 O382 2.562 . S
Pr357 O383 2.490 . S
Pr357 O384 2.695 . S
Pr357 O385 2.512 . S
Pr357 O387 2.437 . S
C358 Pr356 2.880 . S
C358 C359 1.491 . S
C358 O376 1.254 . S
C358 O377 1.225 . S
C359 C358 1.491 . S
C359 C360 1.392 . S
C359 C364 1.356 . S
C360 C359 1.392 . S
C360 C361 1.368 . S
C360 H388 0.929 . S
C361 C360 1.368 . S
C361 C362 1.386 . S
C361 H389 0.929 . S
C362 C361 1.386 . S
C362 C363 1.373 . S
C363 C362 1.373 . S
C363 C364 1.409 . S
C363 H390 0.931 . S
C364 C359 1.356 . S
C364 C363 1.409 . S
C364 H391 0.930 . S
C365 O378 1.270 . S
C365 O379 1.248 . S
C366 O380 1.267 . S
C366 O381 1.278 . S
C367 Pr357 2.880 . S
C367 C368 1.491 . S
C367 O382 1.254 . S
C367 O383 1.225 . S
C368 C367 1.491 . S
C368 C369 1.392 . S
C368 C373 1.356 . S
C369 C368 1.392 . S
C369 C370 1.368 . S
C369 H392 0.929 . S
C370 C369 1.368 . S
C370 C371 1.386 . S
C370 H393 0.929 . S
C371 C370 1.386 . S
C371 C372 1.373 . S
C372 C371 1.373 . S
C372 C373 1.409 . S
C372 H394 0.931 . S
C373 C368 1.356 . S
C373 C372 1.409 . S
C373 H395 0.930 . S
C374 O384 1.270 . S
C374 O385 1.248 . S
C375 O386 1.267 . S
C375 O387 1.278 . S
O376 Pr356 2.562 . S
O376 C358 1.254 . S
O377 Pr356 2.490 . S
O377 C358 1.225 . S
O378 Pr356 2.695 . S
O378 Pr357 2.436 . S
O378 C365 1.270 . S
O379 Pr356 2.512 . S
O379 C365 1.248 . S
O380 Pr357 2.438 . S
O380 C366 1.267 . S
O381 Pr356 2.437 . S
O381 C366 1.278 . S
O382 Pr357 2.562 . S
O382 C367 1.254 . S
O383 Pr357 2.490 . S
O383 C367 1.225 . S
O384 Pr356 2.436 . S
O384 Pr357 2.695 . S
O384 C374 1.270 . S
O385 Pr357 2.512 . S
O385 C374 1.248 . S
O386 Pr356 2.438 . S
O386 C375 1.267 . S
O387 Pr357 2.437 . S
O387 C375 1.278 . S
H388 C360 0.929 . S
H389 C361 0.929 . S
H390 C363 0.931 . S
H391 C364 0.930 . S
H392 C369 0.929 . S
H393 C370 0.929 . S
H394 C372 0.931 . S
H395 C373 0.930 . S
Pr396 C398 2.880 . S
Pr396 O416 2.562 . S
Pr396 O417 2.490 . S
Pr396 O418 2.695 . S
Pr396 O419 2.512 . S
Pr396 O421 2.437 . S
Pr396 O424 2.436 . S
Pr396 O426 2.438 . S
Pr397 C407 2.880 . S
Pr397 O418 2.436 . S
Pr397 O420 2.438 . S
Pr397 O422 2.562 . S
Pr397 O423 2.490 . S
Pr397 O424 2.695 . S
Pr397 O425 2.512 . S
Pr397 O427 2.437 . S
C398 Pr396 2.880 . S
C398 C399 1.491 . S
C398 O416 1.254 . S
C398 O417 1.225 . S
C399 C398 1.491 . S
C399 C400 1.392 . S
C399 C404 1.356 . S
C400 C399 1.392 . S
C400 C401 1.368 . S
C400 H428 0.929 . S
C401 C400 1.368 . S
C401 C402 1.386 . S
C401 H429 0.929 . S
C402 C401 1.386 . S
C402 C403 1.373 . S
C403 C402 1.373 . S
C403 C404 1.409 . S
C403 H430 0.931 . S
C404 C399 1.356 . S
C404 C403 1.409 . S
C404 H431 0.930 . S
C405 O418 1.270 . S
C405 O419 1.248 . S
C406 O420 1.267 . S
C406 O421 1.278 . S
C407 Pr397 2.880 . S
C407 C408 1.491 . S
C407 O422 1.254 . S
C407 O423 1.225 . S
C408 C407 1.491 . S
C408 C409 1.392 . S
C408 C413 1.356 . S
C409 C408 1.392 . S
C409 C410 1.368 . S
C409 H432 0.929 . S
C410 C409 1.368 . S
C410 C411 1.386 . S
C410 H433 0.929 . S
C411 C410 1.386 . S
C411 C412 1.373 . S
C412 C411 1.373 . S
C412 C413 1.409 . S
C412 H434 0.931 . S
C413 C408 1.356 . S
C413 C412 1.409 . S
C413 H435 0.930 . S
C414 O424 1.270 . S
C414 O425 1.248 . S
C415 O426 1.267 . S
C415 O427 1.278 . S
O416 Pr396 2.562 . S
O416 C398 1.254 . S
O417 Pr396 2.490 . S
O417 C398 1.225 . S
O418 Pr396 2.695 . S
O418 Pr397 2.436 . S
O418 C405 1.270 . S
O419 Pr396 2.512 . S
O419 C405 1.248 . S
O420 Pr397 2.438 . S
O420 C406 1.267 . S
O421 Pr396 2.437 . S
O421 C406 1.278 . S
O422 Pr397 2.562 . S
O422 C407 1.254 . S
O423 Pr397 2.490 . S
O423 C407 1.225 . S
O424 Pr396 2.436 . S
O424 Pr397 2.695 . S
O424 C414 1.270 . S
O425 Pr397 2.512 . S
O425 C414 1.248 . S
O426 Pr396 2.438 . S
O426 C415 1.267 . S
O427 Pr397 2.437 . S
O427 C415 1.278 . S
H428 C400 0.929 . S
H429 C401 0.929 . S
H430 C403 0.931 . S
H431 C404 0.930 . S
H432 C409 0.929 . S
H433 C410 0.929 . S
H434 C412 0.931 . S
H435 C413 0.930 . S
Pr436 C438 2.880 . S
Pr436 O456 2.562 . S
Pr436 O457 2.490 . S
Pr436 O458 2.695 . S
Pr436 O459 2.512 . S
Pr436 O461 2.437 . S
Pr436 O464 2.436 . S
Pr436 O466 2.438 . S
Pr437 C447 2.880 . S
Pr437 O458 2.436 . S
Pr437 O460 2.438 . S
Pr437 O462 2.562 . S
Pr437 O463 2.490 . S
Pr437 O464 2.695 . S
Pr437 O465 2.512 . S
Pr437 O467 2.437 . S
C438 Pr436 2.880 . S
C438 C439 1.491 . S
C438 O456 1.254 . S
C438 O457 1.225 . S
C439 C438 1.491 . S
C439 C440 1.392 . S
C439 C444 1.356 . S
C440 C439 1.392 . S
C440 C441 1.368 . S
C440 H468 0.929 . S
C441 C440 1.368 . S
C441 C442 1.386 . S
C441 H469 0.929 . S
C442 C441 1.386 . S
C442 C443 1.373 . S
C443 C442 1.373 . S
C443 C444 1.409 . S
C443 H470 0.931 . S
C444 C439 1.356 . S
C444 C443 1.409 . S
C444 H471 0.930 . S
C445 O458 1.270 . S
C445 O459 1.248 . S
C446 O460 1.267 . S
C446 O461 1.278 . S
C447 Pr437 2.880 . S
C447 C448 1.491 . S
C447 O462 1.254 . S
C447 O463 1.225 . S
C448 C447 1.491 . S
C448 C449 1.392 . S
C448 C453 1.356 . S
C449 C448 1.392 . S
C449 C450 1.368 . S
C449 H472 0.929 . S
C450 C449 1.368 . S
C450 C451 1.386 . S
C450 H473 0.929 . S
C451 C450 1.386 . S
C451 C452 1.373 . S
C452 C451 1.373 . S
C452 C453 1.409 . S
C452 H474 0.931 . S
C453 C448 1.356 . S
C453 C452 1.409 . S
C453 H475 0.930 . S
C454 O464 1.270 . S
C454 O465 1.248 . S
C455 O466 1.267 . S
C455 O467 1.278 . S
O456 Pr436 2.562 . S
O456 C438 1.254 . S
O457 Pr436 2.490 . S
O457 C438 1.225 . S
O458 Pr436 2.695 . S
O458 Pr437 2.436 . S
O458 C445 1.270 . S
O459 Pr436 2.512 . S
O459 C445 1.248 . S
O460 Pr437 2.438 . S
O460 C446 1.267 . S
O461 Pr436 2.437 . S
O461 C446 1.278 . S
O462 Pr437 2.562 . S
O462 C447 1.254 . S
O463 Pr437 2.490 . S
O463 C447 1.225 . S
O464 Pr436 2.436 . S
O464 Pr437 2.695 . S
O464 C454 1.270 . S
O465 Pr437 2.512 . S
O465 C454 1.248 . S
O466 Pr436 2.438 . S
O466 C455 1.267 . S
O467 Pr437 2.437 . S
O467 C455 1.278 . S
H468 C440 0.929 . S
H469 C441 0.929 . S
H470 C443 0.931 . S
H471 C444 0.930 . S
H472 C449 0.929 . S
H473 C450 0.929 . S
H474 C452 0.931 . S
H475 C453 0.930 . S
Pr476 C478 2.880 . S
Pr476 O496 2.562 . S
Pr476 O497 2.490 . S
Pr476 O498 2.695 . S
Pr476 O499 2.512 . S
Pr476 O501 2.437 . S
Pr476 O504 2.436 . S
Pr476 O506 2.438 . S
Pr477 C487 2.880 . S
Pr477 O498 2.436 . S
Pr477 O500 2.438 . S
Pr477 O502 2.562 . S
Pr477 O503 2.490 . S
Pr477 O504 2.695 . S
Pr477 O505 2.512 . S
Pr477 O507 2.437 . S
C478 Pr476 2.880 . S
C478 C479 1.491 . S
C478 O496 1.254 . S
C478 O497 1.225 . S
C479 C478 1.491 . S
C479 C480 1.392 . S
C479 C484 1.356 . S
C480 C479 1.392 . S
C480 C481 1.368 . S
C480 H508 0.929 . S
C481 C480 1.368 . S
C481 C482 1.386 . S
C481 H509 0.929 . S
C482 C481 1.386 . S
C482 C483 1.373 . S
C483 C482 1.373 . S
C483 C484 1.409 . S
C483 H510 0.931 . S
C484 C479 1.356 . S
C484 C483 1.409 . S
C484 H511 0.930 . S
C485 O498 1.270 . S
C485 O499 1.248 . S
C486 O500 1.267 . S
C486 O501 1.278 . S
C487 Pr477 2.880 . S
C487 C488 1.491 . S
C487 O502 1.254 . S
C487 O503 1.225 . S
C488 C487 1.491 . S
C488 C489 1.392 . S
C488 C493 1.356 . S
C489 C488 1.392 . S
C489 C490 1.368 . S
C489 H512 0.929 . S
C490 C489 1.368 . S
C490 C491 1.386 . S
C490 H513 0.929 . S
C491 C490 1.386 . S
C491 C492 1.373 . S
C492 C491 1.373 . S
C492 C493 1.409 . S
C492 H514 0.931 . S
C493 C488 1.356 . S
C493 C492 1.409 . S
C493 H515 0.930 . S
C494 O504 1.270 . S
C494 O505 1.248 . S
C495 O506 1.267 . S
C495 O507 1.278 . S
O496 Pr476 2.562 . S
O496 C478 1.254 . S
O497 Pr476 2.490 . S
O497 C478 1.225 . S
O498 Pr476 2.695 . S
O498 Pr477 2.436 . S
O498 C485 1.270 . S
O499 Pr476 2.512 . S
O499 C485 1.248 . S
O500 Pr477 2.438 . S
O500 C486 1.267 . S
O501 Pr476 2.437 . S
O501 C486 1.278 . S
O502 Pr477 2.562 . S
O502 C487 1.254 . S
O503 Pr477 2.490 . S
O503 C487 1.225 . S
O504 Pr476 2.436 . S
O504 Pr477 2.695 . S
O504 C494 1.270 . S
O505 Pr477 2.512 . S
O505 C494 1.248 . S
O506 Pr476 2.438 . S
O506 C495 1.267 . S
O507 Pr477 2.437 . S
O507 C495 1.278 . S
H508 C480 0.929 . S
H509 C481 0.929 . S
H510 C483 0.931 . S
H511 C484 0.930 . S
H512 C489 0.929 . S
H513 C490 0.929 . S
H514 C492 0.931 . S
H515 C493 0.930 . S
Pr516 C518 2.880 . S
Pr516 O536 2.562 . S
Pr516 O537 2.490 . S
Pr516 O538 2.695 . S
Pr516 O539 2.512 . S
Pr516 O541 2.437 . S
Pr516 O544 2.436 . S
Pr516 O546 2.438 . S
Pr517 C527 2.880 . S
Pr517 O538 2.436 . S
Pr517 O540 2.438 . S
Pr517 O542 2.562 . S
Pr517 O543 2.490 . S
Pr517 O544 2.695 . S
Pr517 O545 2.512 . S
Pr517 O547 2.437 . S
C518 Pr516 2.880 . S
C518 C519 1.491 . S
C518 O536 1.254 . S
C518 O537 1.225 . S
C519 C518 1.491 . S
C519 C520 1.392 . S
C519 C524 1.356 . S
C520 C519 1.392 . S
C520 C521 1.368 . S
C520 H548 0.929 . S
C521 C520 1.368 . S
C521 C522 1.386 . S
C521 H549 0.929 . S
C522 C521 1.386 . S
C522 C523 1.373 . S
C523 C522 1.373 . S
C523 C524 1.409 . S
C523 H550 0.931 . S
C524 C519 1.356 . S
C524 C523 1.409 . S
C524 H551 0.930 . S
C525 O538 1.270 . S
C525 O539 1.248 . S
C526 O540 1.267 . S
C526 O541 1.278 . S
C527 Pr517 2.880 . S
C527 C528 1.491 . S
C527 O542 1.254 . S
C527 O543 1.225 . S
C528 C527 1.491 . S
C528 C529 1.392 . S
C528 C533 1.356 . S
C529 C528 1.392 . S
C529 C530 1.368 . S
C529 H552 0.929 . S
C530 C529 1.368 . S
C530 C531 1.386 . S
C530 H553 0.929 . S
C531 C530 1.386 . S
C531 C532 1.373 . S
C532 C531 1.373 . S
C532 C533 1.409 . S
C532 H554 0.931 . S
C533 C528 1.356 . S
C533 C532 1.409 . S
C533 H555 0.930 . S
C534 O544 1.270 . S
C534 O545 1.248 . S
C535 O546 1.267 . S
C535 O547 1.278 . S
O536 Pr516 2.562 . S
O536 C518 1.254 . S
O537 Pr516 2.490 . S
O537 C518 1.225 . S
O538 Pr516 2.695 . S
O538 Pr517 2.436 . S
O538 C525 1.270 . S
O539 Pr516 2.512 . S
O539 C525 1.248 . S
O540 Pr517 2.438 . S
O540 C526 1.267 . S
O541 Pr516 2.437 . S
O541 C526 1.278 . S
O542 Pr517 2.562 . S
O542 C527 1.254 . S
O543 Pr517 2.490 . S
O543 C527 1.225 . S
O544 Pr516 2.436 . S
O544 Pr517 2.695 . S
O544 C534 1.270 . S
O545 Pr517 2.512 . S
O545 C534 1.248 . S
O546 Pr516 2.438 . S
O546 C535 1.267 . S
O547 Pr517 2.437 . S
O547 C535 1.278 . S
H548 C520 0.929 . S
H549 C521 0.929 . S
H550 C523 0.931 . S
H551 C524 0.930 . S
H552 C529 0.929 . S
H553 C530 0.929 . S
H554 C532 0.931 . S
H555 C533 0.930 . S
Pr556 C558 2.880 . S
Pr556 O576 2.562 . S
Pr556 O577 2.490 . S
Pr556 O578 2.695 . S
Pr556 O579 2.512 . S
Pr556 O581 2.437 . S
Pr556 O584 2.436 . S
Pr556 O586 2.438 . S
Pr557 C567 2.880 . S
Pr557 O578 2.436 . S
Pr557 O580 2.438 . S
Pr557 O582 2.562 . S
Pr557 O583 2.490 . S
Pr557 O584 2.695 . S
Pr557 O585 2.512 . S
Pr557 O587 2.437 . S
C558 Pr556 2.880 . S
C558 C559 1.491 . S
C558 O576 1.254 . S
C558 O577 1.225 . S
C559 C558 1.491 . S
C559 C560 1.392 . S
C559 C564 1.356 . S
C560 C559 1.392 . S
C560 C561 1.368 . S
C560 H588 0.929 . S
C561 C560 1.368 . S
C561 C562 1.386 . S
C561 H589 0.929 . S
C562 C561 1.386 . S
C562 C563 1.373 . S
C563 C562 1.373 . S
C563 C564 1.409 . S
C563 H590 0.931 . S
C564 C559 1.356 . S
C564 C563 1.409 . S
C564 H591 0.930 . S
C565 O578 1.270 . S
C565 O579 1.248 . S
C566 O580 1.267 . S
C566 O581 1.278 . S
C567 Pr557 2.880 . S
C567 C568 1.491 . S
C567 O582 1.254 . S
C567 O583 1.225 . S
C568 C567 1.491 . S
C568 C569 1.392 . S
C568 C573 1.356 . S
C569 C568 1.392 . S
C569 C570 1.368 . S
C569 H592 0.929 . S
C570 C569 1.368 . S
C570 C571 1.386 . S
C570 H593 0.929 . S
C571 C570 1.386 . S
C571 C572 1.373 . S
C572 C571 1.373 . S
C572 C573 1.409 . S
C572 H594 0.931 . S
C573 C568 1.356 . S
C573 C572 1.409 . S
C573 H595 0.930 . S
C574 O584 1.270 . S
C574 O585 1.248 . S
C575 O586 1.267 . S
C575 O587 1.278 . S
O576 Pr556 2.562 . S
O576 C558 1.254 . S
O577 Pr556 2.490 . S
O577 C558 1.225 . S
O578 Pr556 2.695 . S
O578 Pr557 2.436 . S
O578 C565 1.270 . S
O579 Pr556 2.512 . S
O579 C565 1.248 . S
O580 Pr557 2.438 . S
O580 C566 1.267 . S
O581 Pr556 2.437 . S
O581 C566 1.278 . S
O582 Pr557 2.562 . S
O582 C567 1.254 . S
O583 Pr557 2.490 . S
O583 C567 1.225 . S
O584 Pr556 2.436 . S
O584 Pr557 2.695 . S
O584 C574 1.270 . S
O585 Pr557 2.512 . S
O585 C574 1.248 . S
O586 Pr556 2.438 . S
O586 C575 1.267 . S
O587 Pr557 2.437 . S
O587 C575 1.278 . S
H588 C560 0.929 . S
H589 C561 0.929 . S
H590 C563 0.931 . S
H591 C564 0.930 . S
H592 C569 0.929 . S
H593 C570 0.929 . S
H594 C572 0.931 . S
H595 C573 0.930 . S
H596 C614 0.951 . S
H597 C616 0.951 . S
H598 C618 0.950 . S
H599 C619 0.950 . S
H600 C621 0.950 . S
H601 C624 0.950 . S
H602 C625 0.950 . S
H603 C627 0.950 . S
H604 C628 0.950 . S
H605 C629 0.951 . S
H606 C631 0.951 . S
H607 C633 0.950 . S
H608 C634 0.950 . S
H609 C636 0.950 . S
H610 C639 0.950 . S
H611 C640 0.950 . S
H612 C642 0.950 . S
H613 C643 0.950 . S
C614 H596 0.951 . S
C614 C615 1.366 . S
C614 C616 1.388 . S
C615 C614 1.366 . S
C615 C619 1.385 . S
C616 H597 0.951 . S
C616 C614 1.388 . S
C616 C617 1.366 . S
C617 C616 1.366 . S
C617 C618 1.414 . S
C617 C620 1.499 . S
C618 H598 0.950 . S
C618 C617 1.414 . S
C618 C619 1.374 . S
C619 H599 0.950 . S
C619 C615 1.385 . S
C619 C618 1.374 . S
C620 C617 1.499 . S
C620 C621 1.373 . S
C620 C622 1.389 . S
C621 H600 0.950 . S
C621 C620 1.373 . S
C621 C637 1.377 . S
C622 C620 1.389 . S
C622 C623 1.524 . S
C622 C636 1.377 . S
C623 C622 1.524 . S
C623 C624 1.397 . S
C623 C628 1.363 . S
C624 H601 0.950 . S
C624 C623 1.397 . S
C624 C625 1.334 . S
C625 H602 0.950 . S
C625 C624 1.334 . S
C625 C626 1.287 . S
C626 C625 1.287 . S
C626 C627 1.524 . S
C626 H645 0.913 . S
C627 H603 0.950 . S
C627 C626 1.524 . S
C627 C628 1.415 . S
C628 H604 0.950 . S
C628 C623 1.363 . S
C628 C627 1.415 . S
C629 H605 0.951 . S
C629 C630 1.366 . S
C629 C631 1.388 . S
C630 C629 1.366 . S
C630 C634 1.385 . S
C631 H606 0.951 . S
C631 C629 1.388 . S
C631 C632 1.366 . S
C632 C631 1.366 . S
C632 C633 1.414 . S
C632 C635 1.499 . S
C633 H607 0.950 . S
C633 C632 1.414 . S
C633 C634 1.374 . S
C634 H608 0.950 . S
C634 C630 1.385 . S
C634 C633 1.374 . S
C635 C632 1.499 . S
C635 C636 1.373 . S
C635 C637 1.389 . S
C636 H609 0.950 . S
C636 C622 1.377 . S
C636 C635 1.373 . S
C637 C621 1.377 . S
C637 C635 1.389 . S
C637 C638 1.524 . S
C638 C637 1.524 . S
C638 C639 1.397 . S
C638 C643 1.363 . S
C639 H610 0.950 . S
C639 C638 1.397 . S
C639 C640 1.334 . S
C640 H611 0.950 . S
C640 C639 1.334 . S
C640 C641 1.287 . S
C641 C640 1.287 . S
C641 C642 1.524 . S
C641 H644 0.999 . S
C642 H612 0.950 . S
C642 C641 1.524 . S
C642 C643 1.415 . S
C643 H613 0.950 . S
C643 C638 1.363 . S
C643 C642 1.415 . S
H644 C641 0.999 . S
H645 C626 0.913 . S
H646 C664 0.951 . S
H647 C666 0.951 . S
H648 C668 0.950 . S
H649 C669 0.950 . S
H650 C671 0.950 . S
H651 C674 0.950 . S
H652 C675 0.950 . S
H653 C677 0.950 . S
H654 C678 0.950 . S
H655 C679 0.951 . S
H656 C681 0.951 . S
H657 C683 0.950 . S
H658 C684 0.950 . S
H659 C686 0.950 . S
H660 C689 0.950 . S
H661 C690 0.950 . S
H662 C692 0.950 . S
H663 C693 0.950 . S
C664 H646 0.951 . S
C664 C665 1.366 . S
C664 C666 1.388 . S
C665 C664 1.366 . S
C665 C669 1.385 . S
C666 H647 0.951 . S
C666 C664 1.388 . S
C666 C667 1.366 . S
C667 C666 1.366 . S
C667 C668 1.414 . S
C667 C670 1.499 . S
C668 H648 0.950 . S
C668 C667 1.414 . S
C668 C669 1.374 . S
C669 H649 0.950 . S
C669 C665 1.385 . S
C669 C668 1.374 . S
C670 C667 1.499 . S
C670 C671 1.373 . S
C670 C672 1.389 . S
C671 H650 0.950 . S
C671 C670 1.373 . S
C671 C687 1.377 . S
C672 C670 1.389 . S
C672 C673 1.524 . S
C672 C686 1.377 . S
C673 C672 1.524 . S
C673 C674 1.397 . S
C673 C678 1.363 . S
C674 H651 0.950 . S
C674 C673 1.397 . S
C674 C675 1.334 . S
C675 H652 0.950 . S
C675 C674 1.334 . S
C675 C676 1.287 . S
C676 C675 1.287 . S
C676 C677 1.524 . S
C676 H695 0.913 . S
C677 H653 0.950 . S
C677 C676 1.524 . S
C677 C678 1.415 . S
C678 H654 0.950 . S
C678 C673 1.363 . S
C678 C677 1.415 . S
C679 H655 0.951 . S
C679 C680 1.366 . S
C679 C681 1.388 . S
C680 C679 1.366 . S
C680 C684 1.385 . S
C681 H656 0.951 . S
C681 C679 1.388 . S
C681 C682 1.366 . S
C682 C681 1.366 . S
C682 C683 1.414 . S
C682 C685 1.499 . S
C683 H657 0.950 . S
C683 C682 1.414 . S
C683 C684 1.374 . S
C684 H658 0.950 . S
C684 C680 1.385 . S
C684 C683 1.374 . S
C685 C682 1.499 . S
C685 C686 1.373 . S
C685 C687 1.389 . S
C686 H659 0.950 . S
C686 C672 1.377 . S
C686 C685 1.373 . S
C687 C671 1.377 . S
C687 C685 1.389 . S
C687 C688 1.524 . S
C688 C687 1.524 . S
C688 C689 1.397 . S
C688 C693 1.363 . S
C689 H660 0.950 . S
C689 C688 1.397 . S
C689 C690 1.334 . S
C690 H661 0.950 . S
C690 C689 1.334 . S
C690 C691 1.287 . S
C691 C690 1.287 . S
C691 C692 1.524 . S
C691 H694 0.999 . S
C692 H662 0.950 . S
C692 C691 1.524 . S
C692 C693 1.415 . S
C693 H663 0.950 . S
C693 C688 1.363 . S
C693 C692 1.415 . S
H694 C691 0.999 . S
H695 C676 0.913 . S
H696 C714 0.951 . S
H697 C716 0.951 . S
H698 C718 0.950 . S
H699 C719 0.950 . S
H700 C721 0.950 . S
H701 C724 0.950 . S
H702 C725 0.950 . S
H703 C727 0.950 . S
H704 C728 0.950 . S
H705 C729 0.951 . S
H706 C731 0.951 . S
H707 C733 0.950 . S
H708 C734 0.950 . S
H709 C736 0.950 . S
H710 C739 0.950 . S
H711 C740 0.950 . S
H712 C742 0.962 . S
H713 C743 0.950 . S
C714 H696 0.951 . S
C714 C715 1.366 . S
C714 C716 1.388 . S
C715 C714 1.366 . S
C715 C719 1.385 . S
C716 H697 0.951 . S
C716 C714 1.388 . S
C716 C717 1.366 . S
C717 C716 1.366 . S
C717 C718 1.414 . S
C717 C720 1.499 . S
C718 H698 0.950 . S
C718 C717 1.414 . S
C718 C719 1.374 . S
C719 H699 0.950 . S
C719 C715 1.385 . S
C719 C718 1.374 . S
C720 C717 1.499 . S
C720 C721 1.373 . S
C720 C722 1.389 . S
C721 H700 0.950 . S
C721 C720 1.373 . S
C721 C737 1.377 . S
C722 C720 1.389 . S
C722 C723 1.524 . S
C722 C736 1.377 . S
C723 C722 1.524 . S
C723 C724 1.397 . S
C723 C728 1.363 . S
C724 H701 0.950 . S
C724 C723 1.397 . S
C724 C725 1.334 . S
C725 H702 0.950 . S
C725 C724 1.334 . S
C725 C726 1.287 . S
C726 C725 1.287 . S
C726 C727 1.524 . S
C726 H745 0.913 . S
C727 H703 0.950 . S
C727 C726 1.524 . S
C727 C728 1.415 . S
C728 H704 0.950 . S
C728 C723 1.363 . S
C728 C727 1.415 . S
C729 H705 0.951 . S
C729 C730 1.366 . S
C729 C731 1.388 . S
C730 C729 1.366 . S
C730 C734 1.385 . S
C731 H706 0.951 . S
C731 C729 1.388 . S
C731 C732 1.366 . S
C732 C731 1.366 . S
C732 C733 1.414 . S
C732 C735 1.499 . S
C733 H707 0.950 . S
C733 C732 1.414 . S
C733 C734 1.374 . S
C734 H708 0.950 . S
C734 C730 1.385 . S
C734 C733 1.374 . S
C735 C732 1.499 . S
C735 C736 1.373 . S
C735 C737 1.389 . S
C736 H709 0.950 . S
C736 C722 1.377 . S
C736 C735 1.373 . S
C737 C721 1.377 . S
C737 C735 1.389 . S
C737 C738 1.524 . S
C738 C737 1.524 . S
C738 C739 1.397 . S
C738 C743 1.363 . S
C739 H710 0.950 . S
C739 C738 1.397 . S
C739 C740 1.334 . S
C740 H711 0.950 . S
C740 C739 1.334 . S
C740 C741 1.287 . S
C741 C740 1.287 . S
C741 C742 1.524 . S
C741 H744 0.999 . S
C742 H712 0.962 . S
C742 C741 1.524 . S
C742 C743 1.415 . S
C743 H713 0.950 . S
C743 C738 1.363 . S
C743 C742 1.415 . S
H744 C741 0.999 . S
H745 C726 0.913 . S
H746 C764 0.951 . S
H747 C766 0.951 . S
H748 C768 0.950 . S
H749 C769 0.950 . S
H750 C771 0.950 . S
H751 C774 0.950 . S
H752 C775 0.950 . S
H753 C777 0.950 . S
H754 C778 0.950 . S
H755 C779 0.951 . S
H756 C781 0.951 . S
H757 C783 0.950 . S
H758 C784 0.950 . S
H759 C786 0.950 . S
H760 C789 0.950 . S
H761 C790 0.950 . S
H762 C792 0.950 . S
H763 C793 0.950 . S
C764 H746 0.951 . S
C764 C765 1.366 . S
C764 C766 1.388 . S
C765 C764 1.366 . S
C765 C769 1.385 . S
C766 H747 0.951 . S
C766 C764 1.388 . S
C766 C767 1.366 . S
C767 C766 1.366 . S
C767 C768 1.414 . S
C767 C770 1.499 . S
C768 H748 0.950 . S
C768 C767 1.414 . S
C768 C769 1.374 . S
C769 H749 0.950 . S
C769 C765 1.385 . S
C769 C768 1.374 . S
C770 C767 1.499 . S
C770 C771 1.373 . S
C770 C772 1.389 . S
C771 H750 0.950 . S
C771 C770 1.373 . S
C771 C787 1.377 . S
C772 C770 1.389 . S
C772 C773 1.524 . S
C772 C786 1.377 . S
C773 C772 1.524 . S
C773 C774 1.397 . S
C773 C778 1.363 . S
C774 H751 0.950 . S
C774 C773 1.397 . S
C774 C775 1.334 . S
C775 H752 0.950 . S
C775 C774 1.334 . S
C775 C776 1.287 . S
C776 C775 1.287 . S
C776 C777 1.524 . S
C776 H795 0.890 1_565 S
C777 H753 0.950 . S
C777 C776 1.524 . S
C777 C778 1.415 . S
C778 H754 0.950 . S
C778 C773 1.363 . S
C778 C777 1.415 . S
C779 H755 0.951 . S
C779 C780 1.366 . S
C779 C781 1.388 . S
C780 C779 1.366 . S
C780 C784 1.385 . S
C781 H756 0.951 . S
C781 C779 1.388 . S
C781 C782 1.366 . S
C782 C781 1.366 . S
C782 C783 1.414 . S
C782 C785 1.499 . S
C783 H757 0.950 . S
C783 C782 1.414 . S
C783 C784 1.374 . S
C784 H758 0.950 . S
C784 C780 1.385 . S
C784 C783 1.374 . S
C785 C782 1.499 . S
C785 C786 1.373 . S
C785 C787 1.389 . S
C786 H759 0.950 . S
C786 C772 1.377 . S
C786 C785 1.373 . S
C787 C771 1.377 . S
C787 C785 1.389 . S
C787 C788 1.524 . S
C788 C787 1.524 . S
C788 C789 1.397 . S
C788 C793 1.363 . S
C789 H760 0.950 . S
C789 C788 1.397 . S
C789 C790 1.334 . S
C790 H761 0.950 . S
C790 C789 1.334 . S
C790 C791 1.287 . S
C791 C790 1.287 . S
C791 C792 1.524 . S
C791 H794 0.999 . S
C792 H762 0.950 . S
C792 C791 1.524 . S
C792 C793 1.415 . S
C793 H763 0.950 . S
C793 C788 1.363 . S
C793 C792 1.415 . S
H794 C791 0.999 . S
H795 C776 0.890 1_545 S
H796 C814 0.951 . S
H797 C816 0.951 . S
H798 C818 0.950 . S
H799 C819 0.950 . S
H800 C821 0.950 . S
H801 C824 0.950 . S
H802 C825 0.950 . S
H803 C827 0.950 . S
H804 C828 0.950 . S
H805 C829 0.951 . S
H806 C831 0.951 . S
H807 C833 0.950 . S
H808 C834 0.950 . S
H809 C836 0.950 . S
H810 C839 0.950 . S
H811 C840 0.950 . S
H812 C842 0.950 . S
H813 C843 0.950 . S
C814 H796 0.951 . S
C814 C815 1.366 . S
C814 C816 1.388 . S
C815 C814 1.366 . S
C815 C819 1.385 . S
C816 H797 0.951 . S
C816 C814 1.388 . S
C816 C817 1.366 . S
C817 C816 1.366 . S
C817 C818 1.414 . S
C817 C820 1.499 . S
C818 H798 0.950 . S
C818 C817 1.414 . S
C818 C819 1.374 . S
C819 H799 0.950 . S
C819 C815 1.385 . S
C819 C818 1.374 . S
C820 C817 1.499 . S
C820 C821 1.373 . S
C820 C822 1.389 . S
C821 H800 0.950 . S
C821 C820 1.373 . S
C821 C837 1.377 . S
C822 C820 1.389 . S
C822 C823 1.524 . S
C822 C836 1.377 . S
C823 C822 1.524 . S
C823 C824 1.397 . S
C823 C828 1.363 . S
C824 H801 0.950 . S
C824 C823 1.397 . S
C824 C825 1.334 . S
C825 H802 0.950 . S
C825 C824 1.334 . S
C825 C826 1.287 . S
C826 C825 1.287 . S
C826 C827 1.524 . S
C826 H845 0.913 . S
C827 H803 0.950 . S
C827 C826 1.524 . S
C827 C828 1.415 . S
C828 H804 0.950 . S
C828 C823 1.363 . S
C828 C827 1.415 . S
C829 H805 0.951 . S
C829 C830 1.366 . S
C829 C831 1.388 . S
C830 C829 1.366 . S
C830 C834 1.385 . S
C831 H806 0.951 . S
C831 C829 1.388 . S
C831 C832 1.366 . S
C832 C831 1.366 . S
C832 C833 1.414 . S
C832 C835 1.499 . S
C833 H807 0.950 . S
C833 C832 1.414 . S
C833 C834 1.374 . S
C834 H808 0.950 . S
C834 C830 1.385 . S
C834 C833 1.374 . S
C835 C832 1.499 . S
C835 C836 1.373 . S
C835 C837 1.389 . S
C836 H809 0.950 . S
C836 C822 1.377 . S
C836 C835 1.373 . S
C837 C821 1.377 . S
C837 C835 1.389 . S
C837 C838 1.524 . S
C838 C837 1.524 . S
C838 C839 1.397 . S
C838 C843 1.363 . S
C839 H810 0.950 . S
C839 C838 1.397 . S
C839 C840 1.334 . S
C840 H811 0.950 . S
C840 C839 1.334 . S
C840 C841 1.287 . S
C841 C840 1.287 . S
C841 C842 1.524 . S
C841 H844 0.999 . S
C842 H812 0.950 . S
C842 C841 1.524 . S
C842 C843 1.415 . S
C843 H813 0.950 . S
C843 C838 1.363 . S
C843 C842 1.415 . S
H844 C841 0.999 . S
H845 C826 0.913 . S
H846 C864 0.951 . S
H847 C866 0.951 . S
H848 C868 0.950 . S
H849 C869 0.950 . S
H850 C871 0.950 . S
H851 C874 0.950 . S
H852 C875 0.950 . S
H853 C877 0.950 . S
H854 C878 0.950 . S
H855 C879 0.951 . S
H856 C881 0.951 . S
H857 C883 0.950 . S
H858 C884 0.950 . S
H859 C886 0.950 . S
H860 C889 0.950 . S
H861 C890 0.950 . S
H862 C892 0.950 . S
H863 C893 0.950 . S
C864 H846 0.951 . S
C864 C865 1.366 . S
C864 C866 1.388 . S
C865 C864 1.366 . S
C865 C869 1.385 . S
C866 H847 0.951 . S
C866 C864 1.388 . S
C866 C867 1.366 . S
C867 C866 1.366 . S
C867 C868 1.414 . S
C867 C870 1.499 . S
C868 H848 0.950 . S
C868 C867 1.414 . S
C868 C869 1.374 . S
C869 H849 0.950 . S
C869 C865 1.385 . S
C869 C868 1.374 . S
C870 C867 1.499 . S
C870 C871 1.373 . S
C870 C872 1.389 . S
C871 H850 0.950 . S
C871 C870 1.373 . S
C871 C887 1.377 . S
C872 C870 1.389 . S
C872 C873 1.524 . S
C872 C886 1.377 . S
C873 C872 1.524 . S
C873 C874 1.397 . S
C873 C878 1.363 . S
C874 H851 0.950 . S
C874 C873 1.397 . S
C874 C875 1.334 . S
C875 H852 0.950 . S
C875 C874 1.334 . S
C875 C876 1.287 . S
C876 C875 1.287 . S
C876 C877 1.524 . S
C876 H895 0.913 . S
C877 H853 0.950 . S
C877 C876 1.524 . S
C877 C878 1.415 . S
C878 H854 0.950 . S
C878 C873 1.363 . S
C878 C877 1.415 . S
C879 H855 0.951 . S
C879 C880 1.366 . S
C879 C881 1.388 . S
C880 C879 1.366 . S
C880 C884 1.385 . S
C881 H856 0.951 . S
C881 C879 1.388 . S
C881 C882 1.366 . S
C882 C881 1.366 . S
C882 C883 1.414 . S
C882 C885 1.499 . S
C883 H857 0.950 . S
C883 C882 1.414 . S
C883 C884 1.374 . S
C884 H858 0.950 . S
C884 C880 1.385 . S
C884 C883 1.374 . S
C885 C882 1.499 . S
C885 C886 1.373 . S
C885 C887 1.389 . S
C886 H859 0.950 . S
C886 C872 1.377 . S
C886 C885 1.373 . S
C887 C871 1.377 . S
C887 C885 1.389 . S
C887 C888 1.524 . S
C888 C887 1.524 . S
C888 C889 1.397 . S
C888 C893 1.363 . S
C889 H860 0.950 . S
C889 C888 1.397 . S
C889 C890 1.334 . S
C890 H861 0.950 . S
C890 C889 1.334 . S
C890 C891 1.287 . S
C891 C890 1.287 . S
C891 C892 1.524 . S
C891 H894 0.999 . S
C892 H862 0.950 . S
C892 C891 1.524 . S
C892 C893 1.415 . S
C893 H863 0.950 . S
C893 C888 1.363 . S
C893 C892 1.415 . S
H894 C891 0.999 . S
H895 C876 0.913 . S
H896 C914 0.951 . S
H897 C916 0.951 . S
H898 C918 0.950 . S
H899 C919 0.950 . S
H900 C921 0.950 . S
H901 C924 0.950 . S
H902 C925 0.950 . S
H903 C927 0.950 . S
H904 C928 0.950 . S
H905 C929 0.951 . S
H906 C931 0.951 . S
H907 C933 0.950 . S
H908 C934 0.950 . S
H909 C936 0.950 . S
H910 C939 0.950 . S
H911 C940 0.950 . S
H912 C942 0.950 . S
H913 C943 0.950 . S
C914 H896 0.951 . S
C914 C915 1.366 . S
C914 C916 1.388 . S
C915 C914 1.366 . S
C915 C919 1.385 . S
C916 H897 0.951 . S
C916 C914 1.388 . S
C916 C917 1.366 . S
C917 C916 1.366 . S
C917 C918 1.414 . S
C917 C920 1.499 . S
C918 H898 0.950 . S
C918 C917 1.414 . S
C918 C919 1.374 . S
C919 H899 0.950 . S
C919 C915 1.385 . S
C919 C918 1.374 . S
C920 C917 1.499 . S
C920 C921 1.373 . S
C920 C922 1.389 . S
C921 H900 0.950 . S
C921 C920 1.373 . S
C921 C937 1.377 . S
C922 C920 1.389 . S
C922 C923 1.524 . S
C922 C936 1.377 . S
C923 C922 1.524 . S
C923 C924 1.397 . S
C923 C928 1.363 . S
C924 H901 0.950 . S
C924 C923 1.397 . S
C924 C925 1.334 . S
C925 H902 0.950 . S
C925 C924 1.334 . S
C925 C926 1.287 . S
C926 C925 1.287 . S
C926 C927 1.524 . S
C926 H945 0.913 . S
C927 H903 0.950 . S
C927 C926 1.524 . S
C927 C928 1.415 . S
C928 H904 0.950 . S
C928 C923 1.363 . S
C928 C927 1.415 . S
C929 H905 0.951 . S
C929 C930 1.366 . S
C929 C931 1.388 . S
C930 C929 1.366 . S
C930 C934 1.385 . S
C931 H906 0.951 . S
C931 C929 1.388 . S
C931 C932 1.366 . S
C932 C931 1.366 . S
C932 C933 1.414 . S
C932 C935 1.499 . S
C933 H907 0.950 . S
C933 C932 1.414 . S
C933 C934 1.374 . S
C934 H908 0.950 . S
C934 C930 1.385 . S
C934 C933 1.374 . S
C935 C932 1.499 . S
C935 C936 1.373 . S
C935 C937 1.389 . S
C936 H909 0.950 . S
C936 C922 1.377 . S
C936 C935 1.373 . S
C937 C921 1.377 . S
C937 C935 1.389 . S
C937 C938 1.524 . S
C938 C937 1.524 . S
C938 C939 1.397 . S
C938 C943 1.363 . S
C939 H910 0.950 . S
C939 C938 1.397 . S
C939 C940 1.334 . S
C940 H911 0.950 . S
C940 C939 1.334 . S
C940 C941 1.287 . S
C941 C940 1.287 . S
C941 C942 1.524 . S
C941 H944 0.999 . S
C942 H912 0.950 . S
C942 C941 1.524 . S
C942 C943 1.415 . S
C943 H913 0.950 . S
C943 C938 1.363 . S
C943 C942 1.415 . S
H944 C941 0.999 . S
H945 C926 0.913 . S
H946 C964 0.951 . S
H947 C966 0.951 . S
H948 C968 0.950 . S
H949 C969 0.950 . S
H950 C971 0.950 . S
H951 C974 0.950 . S
H952 C975 0.950 . S
H953 C977 0.950 1_455 S
H954 C978 0.950 . S
H955 C979 0.951 . S
H956 C981 0.951 . S
H957 C983 0.950 . S
H958 C984 0.950 . S
H959 C986 0.950 . S
H960 C989 0.950 . S
H961 C990 0.950 . S
H962 C992 0.950 . S
H963 C993 0.950 . S
C964 H946 0.951 . S
C964 C965 1.366 . S
C964 C966 1.388 . S
C965 C964 1.366 . S
C965 C969 1.385 . S
C966 H947 0.951 . S
C966 C964 1.388 . S
C966 C967 1.366 . S
C967 C966 1.366 . S
C967 C968 1.414 . S
C967 C970 1.499 . S
C968 H948 0.950 . S
C968 C967 1.414 . S
C968 C969 1.374 . S
C969 H949 0.950 . S
C969 C965 1.385 . S
C969 C968 1.374 . S
C970 C967 1.499 . S
C970 C971 1.373 . S
C970 C972 1.389 . S
C971 H950 0.950 . S
C971 C970 1.373 . S
C971 C987 1.377 . S
C972 C970 1.389 . S
C972 C973 1.524 . S
C972 C986 1.377 . S
C973 C972 1.524 . S
C973 C974 1.397 . S
C973 C978 1.363 . S
C974 H951 0.950 . S
C974 C973 1.397 . S
C974 C975 1.334 1_655 S
C975 H952 0.950 . S
C975 C974 1.334 1_455 S
C975 C976 1.287 . S
C976 C975 1.287 . S
C976 C977 1.524 1_455 S
C976 H995 0.913 . S
C977 H953 0.950 1_655 S
C977 C976 1.524 1_655 S
C977 C978 1.415 . S
C978 H954 0.950 . S
C978 C973 1.363 . S
C978 C977 1.415 . S
C979 H955 0.951 . S
C979 C980 1.366 . S
C979 C981 1.388 . S
C980 C979 1.366 . S
C980 C984 1.385 . S
C981 H956 0.951 . S
C981 C979 1.388 . S
C981 C982 1.366 . S
C982 C981 1.366 . S
C982 C983 1.414 . S
C982 C985 1.499 . S
C983 H957 0.950 . S
C983 C982 1.414 . S
C983 C984 1.374 . S
C984 H958 0.950 . S
C984 C980 1.385 . S
C984 C983 1.374 . S
C985 C982 1.499 . S
C985 C986 1.373 . S
C985 C987 1.389 . S
C986 H959 0.950 . S
C986 C972 1.377 . S
C986 C985 1.373 . S
C987 C971 1.377 . S
C987 C985 1.389 . S
C987 C988 1.524 . S
C988 C987 1.524 . S
C988 C989 1.397 . S
C988 C993 1.363 . S
C989 H960 0.950 . S
C989 C988 1.397 . S
C989 C990 1.334 . S
C990 H961 0.950 . S
C990 C989 1.334 . S
C990 C991 1.287 . S
C991 C990 1.287 . S
C991 C992 1.524 . S
C991 H994 0.999 . S
C992 H962 0.950 . S
C992 C991 1.524 . S
C992 C993 1.415 . S
C993 H963 0.950 . S
C993 C988 1.363 . S
C993 C992 1.415 . S
H994 C991 0.999 . S
H995 C976 0.913 . S
H996 C1014 0.951 . S
H997 C1016 0.951 . S
H998 C1018 0.950 . S
H999 C1019 0.950 . S
H1000 C1021 0.950 . S
H1001 C1024 0.950 . S
H1002 C1025 0.950 . S
H1003 C1027 0.950 . S
H1004 C1028 0.950 . S
H1005 C1029 0.951 . S
H1006 C1031 0.951 . S
H1007 C1033 0.950 . S
H1008 C1034 0.950 . S
H1009 C1036 0.950 . S
H1010 C1039 0.950 . S
H1011 C1040 0.950 . S
H1012 C1042 0.950 . S
H1013 C1043 0.950 . S
C1014 H996 0.951 . S
C1014 C1015 1.366 . S
C1014 C1016 1.388 . S
C1015 C1014 1.366 . S
C1015 C1019 1.385 . S
C1016 H997 0.951 . S
C1016 C1014 1.388 . S
C1016 C1017 1.366 . S
C1017 C1016 1.366 . S
C1017 C1018 1.414 . S
C1017 C1020 1.499 . S
C1018 H998 0.950 . S
C1018 C1017 1.414 . S
C1018 C1019 1.374 . S
C1019 H999 0.950 . S
C1019 C1015 1.385 . S
C1019 C1018 1.374 . S
C1020 C1017 1.499 . S
C1020 C1021 1.373 . S
C1020 C1022 1.389 . S
C1021 H1000 0.950 . S
C1021 C1020 1.373 . S
C1021 C1037 1.377 . S
C1022 C1020 1.389 . S
C1022 C1023 1.524 . S
C1022 C1036 1.377 . S
C1023 C1022 1.524 . S
C1023 C1024 1.397 . S
C1023 C1028 1.363 . S
C1024 H1001 0.950 . S
C1024 C1023 1.397 . S
C1024 C1025 1.334 . S
C1025 H1002 0.950 . S
C1025 C1024 1.334 . S
C1025 C1026 1.287 . S
C1026 C1025 1.287 . S
C1026 C1027 1.524 . S
C1026 H1045 0.913 . S
C1027 H1003 0.950 . S
C1027 C1026 1.524 . S
C1027 C1028 1.415 . S
C1028 H1004 0.950 . S
C1028 C1023 1.363 . S
C1028 C1027 1.415 . S
C1029 H1005 0.951 . S
C1029 C1030 1.366 . S
C1029 C1031 1.388 . S
C1030 C1029 1.366 . S
C1030 C1034 1.385 . S
C1031 H1006 0.951 . S
C1031 C1029 1.388 . S
C1031 C1032 1.366 . S
C1032 C1031 1.366 . S
C1032 C1033 1.414 . S
C1032 C1035 1.499 . S
C1033 H1007 0.950 . S
C1033 C1032 1.414 . S
C1033 C1034 1.374 . S
C1034 H1008 0.950 . S
C1034 C1030 1.385 . S
C1034 C1033 1.374 . S
C1035 C1032 1.499 . S
C1035 C1036 1.373 . S
C1035 C1037 1.389 . S
C1036 H1009 0.950 . S
C1036 C1022 1.377 . S
C1036 C1035 1.373 . S
C1037 C1021 1.377 . S
C1037 C1035 1.389 . S
C1037 C1038 1.524 . S
C1038 C1037 1.524 . S
C1038 C1039 1.397 . S
C1038 C1043 1.363 . S
C1039 H1010 0.950 . S
C1039 C1038 1.397 . S
C1039 C1040 1.334 . S
C1040 H1011 0.950 . S
C1040 C1039 1.334 . S
C1040 C1041 1.287 . S
C1041 C1040 1.287 . S
C1041 C1042 1.524 . S
C1041 H1044 0.999 . S
C1042 H1012 0.950 . S
C1042 C1041 1.524 . S
C1042 C1043 1.415 . S
C1043 H1013 0.950 . S
C1043 C1038 1.363 . S
C1043 C1042 1.415 . S
H1044 C1041 0.999 . S
H1045 C1026 0.913 . S
H1046 C1064 0.951 . S
H1047 C1066 0.951 . S
H1048 C1068 0.950 . S
H1049 C1069 0.950 . S
H1050 C1071 0.950 . S
H1051 C1074 0.950 . S
H1052 C1075 0.950 . S
H1053 C1077 0.950 . S
H1054 C1078 0.950 . S
H1055 C1079 0.951 . S
H1056 C1081 0.951 . S
H1057 C1083 0.950 . S
H1058 C1084 0.950 . S
H1059 C1086 0.950 . S
H1060 C1089 0.950 . S
H1061 C1090 0.950 . S
H1062 C1092 0.950 . S
H1063 C1093 0.950 . S
C1064 H1046 0.951 . S
C1064 C1065 1.366 . S
C1064 C1066 1.388 . S
C1065 C1064 1.366 . S
C1065 C1069 1.385 . S
C1066 H1047 0.951 . S
C1066 C1064 1.388 . S
C1066 C1067 1.366 . S
C1067 C1066 1.366 . S
C1067 C1068 1.414 . S
C1067 C1070 1.499 . S
C1068 H1048 0.950 . S
C1068 C1067 1.414 . S
C1068 C1069 1.374 . S
C1069 H1049 0.950 . S
C1069 C1065 1.385 . S
C1069 C1068 1.374 . S
C1070 C1067 1.499 . S
C1070 C1071 1.373 . S
C1070 C1072 1.389 . S
C1071 H1050 0.950 . S
C1071 C1070 1.373 . S
C1071 C1087 1.377 . S
C1072 C1070 1.389 . S
C1072 C1073 1.524 . S
C1072 C1086 1.377 . S
C1073 C1072 1.524 . S
C1073 C1074 1.397 . S
C1073 C1078 1.363 . S
C1074 H1051 0.950 . S
C1074 C1073 1.397 . S
C1074 C1075 1.334 . S
C1075 H1052 0.950 . S
C1075 C1074 1.334 . S
C1075 C1076 1.287 . S
C1076 C1075 1.287 . S
C1076 C1077 1.524 . S
C1076 H1095 0.913 . S
C1077 H1053 0.950 . S
C1077 C1076 1.524 . S
C1077 C1078 1.415 . S
C1078 H1054 0.950 . S
C1078 C1073 1.363 . S
C1078 C1077 1.415 . S
C1079 H1055 0.951 . S
C1079 C1080 1.366 . S
C1079 C1081 1.388 . S
C1080 C1079 1.366 . S
C1080 C1084 1.385 . S
C1081 H1056 0.951 . S
C1081 C1079 1.388 . S
C1081 C1082 1.366 . S
C1082 C1081 1.366 . S
C1082 C1083 1.414 . S
C1082 C1085 1.499 . S
C1083 H1057 0.950 . S
C1083 C1082 1.414 . S
C1083 C1084 1.374 . S
C1084 H1058 0.950 . S
C1084 C1080 1.385 . S
C1084 C1083 1.374 . S
C1085 C1082 1.499 . S
C1085 C1086 1.373 . S
C1085 C1087 1.389 . S
C1086 H1059 0.950 . S
C1086 C1072 1.377 . S
C1086 C1085 1.373 . S
C1087 C1071 1.377 . S
C1087 C1085 1.389 . S
C1087 C1088 1.524 . S
C1088 C1087 1.524 . S
C1088 C1089 1.397 . S
C1088 C1093 1.363 . S
C1089 H1060 0.950 . S
C1089 C1088 1.397 . S
C1089 C1090 1.334 . S
C1090 H1061 0.950 . S
C1090 C1089 1.334 . S
C1090 C1091 1.287 . S
C1091 C1090 1.287 . S
C1091 C1092 1.524 . S
C1091 H1094 0.999 . S
C1092 H1062 0.950 . S
C1092 C1091 1.524 . S
C1092 C1093 1.415 . S
C1093 H1063 0.950 . S
C1093 C1088 1.363 . S
C1093 C1092 1.415 . S
H1094 C1091 0.999 . S
H1095 C1076 0.913 . S
H1096 C1114 0.951 . S
H1097 C1116 0.951 . S
H1098 C1118 0.950 . S
H1099 C1119 0.950 . S
H1100 C1121 0.950 . S
H1101 C1124 0.950 . S
H1102 C1125 0.950 . S
H1103 C1127 0.950 . S
H1104 C1128 0.950 . S
H1105 C1129 0.951 . S
H1106 C1131 0.951 . S
H1107 C1133 0.950 . S
H1108 C1134 0.950 . S
H1109 C1136 0.950 . S
H1110 C1139 0.950 . S
H1111 C1140 0.950 . S
H1112 C1142 0.950 . S
H1113 C1143 0.950 . S
C1114 H1096 0.951 . S
C1114 C1115 1.366 . S
C1114 C1116 1.388 . S
C1115 C1114 1.366 . S
C1115 C1119 1.385 . S
C1116 H1097 0.951 . S
C1116 C1114 1.388 . S
C1116 C1117 1.366 . S
C1117 C1116 1.366 . S
C1117 C1118 1.414 . S
C1117 C1120 1.499 . S
C1118 H1098 0.950 . S
C1118 C1117 1.414 . S
C1118 C1119 1.374 . S
C1119 H1099 0.950 . S
C1119 C1115 1.385 . S
C1119 C1118 1.374 . S
C1120 C1117 1.499 . S
C1120 C1121 1.373 . S
C1120 C1122 1.389 . S
C1121 H1100 0.950 . S
C1121 C1120 1.373 . S
C1121 C1137 1.377 . S
C1122 C1120 1.389 . S
C1122 C1123 1.524 . S
C1122 C1136 1.377 . S
C1123 C1122 1.524 . S
C1123 C1124 1.397 . S
C1123 C1128 1.363 . S
C1124 H1101 0.950 . S
C1124 C1123 1.397 . S
C1124 C1125 1.334 . S
C1125 H1102 0.950 . S
C1125 C1124 1.334 . S
C1125 C1126 1.287 . S
C1126 C1125 1.287 . S
C1126 C1127 1.524 . S
C1126 H1145 0.913 . S
C1127 H1103 0.950 . S
C1127 C1126 1.524 . S
C1127 C1128 1.415 . S
C1128 H1104 0.950 . S
C1128 C1123 1.363 . S
C1128 C1127 1.415 . S
C1129 H1105 0.951 . S
C1129 C1130 1.366 . S
C1129 C1131 1.388 . S
C1130 C1129 1.366 . S
C1130 C1134 1.385 . S
C1131 H1106 0.951 . S
C1131 C1129 1.388 . S
C1131 C1132 1.366 . S
C1132 C1131 1.366 . S
C1132 C1133 1.414 . S
C1132 C1135 1.499 . S
C1133 H1107 0.950 . S
C1133 C1132 1.414 . S
C1133 C1134 1.374 . S
C1134 H1108 0.950 . S
C1134 C1130 1.385 . S
C1134 C1133 1.374 . S
C1135 C1132 1.499 . S
C1135 C1136 1.373 . S
C1135 C1137 1.389 . S
C1136 H1109 0.950 . S
C1136 C1122 1.377 . S
C1136 C1135 1.373 . S
C1137 C1121 1.377 . S
C1137 C1135 1.389 . S
C1137 C1138 1.524 . S
C1138 C1137 1.524 . S
C1138 C1139 1.397 . S
C1138 C1143 1.363 . S
C1139 H1110 0.950 . S
C1139 C1138 1.397 . S
C1139 C1140 1.334 . S
C1140 H1111 0.950 . S
C1140 C1139 1.334 . S
C1140 C1141 1.287 . S
C1141 C1140 1.287 . S
C1141 C1142 1.524 . S
C1141 H1144 0.999 . S
C1142 H1112 0.950 . S
C1142 C1141 1.524 . S
C1142 C1143 1.415 . S
C1143 H1113 0.950 . S
C1143 C1138 1.363 . S
C1143 C1142 1.415 . S
H1144 C1141 0.999 . S
H1145 C1126 0.913 . S
H1146 C1164 0.951 . S
H1147 C1166 0.951 . S
H1148 C1168 0.950 . S
H1149 C1169 0.950 . S
H1150 C1171 0.950 . S
H1151 C1174 0.950 . S
H1152 C1175 0.950 . S
H1153 C1177 0.950 . S
H1154 C1178 0.950 . S
H1155 C1179 0.951 . S
H1156 C1181 0.951 . S
H1157 C1183 0.950 . S
H1158 C1184 0.950 . S
H1159 C1186 0.950 . S
H1160 C1189 0.950 . S
H1161 C1190 0.950 . S
H1162 C1192 0.950 . S
H1163 C1193 0.950 . S
C1164 H1146 0.951 . S
C1164 C1165 1.366 . S
C1164 C1166 1.388 . S
C1165 C1164 1.366 . S
C1165 C1169 1.385 . S
C1166 H1147 0.951 . S
C1166 C1164 1.388 . S
C1166 C1167 1.366 . S
C1167 C1166 1.366 . S
C1167 C1168 1.414 . S
C1167 C1170 1.499 . S
C1168 H1148 0.950 . S
C1168 C1167 1.414 . S
C1168 C1169 1.374 . S
C1169 H1149 0.950 . S
C1169 C1165 1.385 . S
C1169 C1168 1.374 . S
C1170 C1167 1.499 . S
C1170 C1171 1.373 . S
C1170 C1172 1.389 . S
C1171 H1150 0.950 . S
C1171 C1170 1.373 . S
C1171 C1187 1.377 . S
C1172 C1170 1.389 . S
C1172 C1173 1.524 . S
C1172 C1186 1.377 . S
C1173 C1172 1.524 . S
C1173 C1174 1.397 . S
C1173 C1178 1.363 . S
C1174 H1151 0.950 . S
C1174 C1173 1.397 . S
C1174 C1175 1.334 . S
C1175 H1152 0.950 . S
C1175 C1174 1.334 . S
C1175 C1176 1.287 . S
C1176 C1175 1.287 . S
C1176 C1177 1.524 . S
C1176 H1195 0.913 1_554 S
C1177 H1153 0.950 . S
C1177 C1176 1.524 . S
C1177 C1178 1.415 . S
C1178 H1154 0.950 . S
C1178 C1173 1.363 . S
C1178 C1177 1.415 . S
C1179 H1155 0.951 . S
C1179 C1180 1.366 . S
C1179 C1181 1.388 . S
C1180 C1179 1.366 . S
C1180 C1184 1.385 . S
C1181 H1156 0.951 . S
C1181 C1179 1.388 . S
C1181 C1182 1.366 . S
C1182 C1181 1.366 . S
C1182 C1183 1.414 . S
C1182 C1185 1.499 . S
C1183 H1157 0.950 . S
C1183 C1182 1.414 . S
C1183 C1184 1.374 . S
C1184 H1158 0.950 . S
C1184 C1180 1.385 . S
C1184 C1183 1.374 . S
C1185 C1182 1.499 . S
C1185 C1186 1.373 . S
C1185 C1187 1.389 . S
C1186 H1159 0.950 . S
C1186 C1172 1.377 . S
C1186 C1185 1.373 . S
C1187 C1171 1.377 . S
C1187 C1185 1.389 . S
C1187 C1188 1.524 . S
C1188 C1187 1.524 . S
C1188 C1189 1.397 . S
C1188 C1193 1.363 . S
C1189 H1160 0.950 . S
C1189 C1188 1.397 . S
C1189 C1190 1.334 . S
C1190 H1161 0.950 . S
C1190 C1189 1.334 . S
C1190 C1191 1.287 . S
C1191 C1190 1.287 . S
C1191 C1192 1.524 . S
C1191 H1194 0.999 . S
C1192 H1162 0.950 . S
C1192 C1191 1.524 . S
C1192 C1193 1.415 . S
C1193 H1163 0.950 . S
C1193 C1188 1.363 . S
C1193 C1192 1.415 . S
H1194 C1191 0.999 . S
H1195 C1176 0.913 1_556 S
H1196 C1214 0.951 . S
H1197 C1216 0.951 . S
H1198 C1218 0.950 . S
H1199 C1219 0.950 . S
H1200 C1221 0.950 . S
H1201 C1224 0.950 1_556 S
H1202 C1225 0.950 . S
H1203 C1227 0.950 . S
H1204 C1228 0.950 . S
H1205 C1229 0.951 . S
H1206 C1231 0.951 . S
H1207 C1233 0.950 . S
H1208 C1234 0.950 . S
H1209 C1236 0.950 . S
H1210 C1239 0.950 . S
H1211 C1240 0.950 . S
H1212 C1242 0.950 . S
H1213 C1243 0.950 . S
C1214 H1196 0.951 . S
C1214 C1215 1.366 . S
C1214 C1216 1.388 . S
C1215 C1214 1.366 . S
C1215 C1219 1.385 1_554 S
C1216 H1197 0.951 . S
C1216 C1214 1.388 . S
C1216 C1217 1.366 1_554 S
C1217 C1216 1.366 1_556 S
C1217 C1218 1.414 . S
C1217 C1220 1.499 . S
C1218 H1198 0.950 . S
C1218 C1217 1.414 . S
C1218 C1219 1.374 . S
C1219 H1199 0.950 . S
C1219 C1215 1.385 1_556 S
C1219 C1218 1.374 . S
C1220 C1217 1.499 . S
C1220 C1221 1.373 . S
C1220 C1222 1.389 . S
C1221 H1200 0.950 . S
C1221 C1220 1.373 . S
C1221 C1237 1.377 . S
C1222 C1220 1.389 . S
C1222 C1223 1.524 1_556 S
C1222 C1236 1.377 . S
C1223 C1222 1.524 1_554 S
C1223 C1224 1.397 . S
C1223 C1228 1.363 . S
C1224 H1201 0.950 1_554 S
C1224 C1223 1.397 . S
C1224 C1225 1.334 . S
C1225 H1202 0.950 . S
C1225 C1224 1.334 . S
C1225 C1226 1.287 . S
C1226 C1225 1.287 . S
C1226 C1227 1.524 . S
C1226 H1245 0.913 . S
C1227 H1203 0.950 . S
C1227 C1226 1.524 . S
C1227 C1228 1.415 . S
C1228 H1204 0.950 . S
C1228 C1223 1.363 . S
C1228 C1227 1.415 . S
C1229 H1205 0.951 . S
C1229 C1230 1.366 . S
C1229 C1231 1.388 . S
C1230 C1229 1.366 . S
C1230 C1234 1.385 . S
C1231 H1206 0.951 . S
C1231 C1229 1.388 . S
C1231 C1232 1.366 . S
C1232 C1231 1.366 . S
C1232 C1233 1.414 . S
C1232 C1235 1.499 . S
C1233 H1207 0.950 . S
C1233 C1232 1.414 . S
C1233 C1234 1.374 . S
C1234 H1208 0.950 . S
C1234 C1230 1.385 . S
C1234 C1233 1.374 . S
C1235 C1232 1.499 . S
C1235 C1236 1.373 . S
C1235 C1237 1.389 . S
C1236 H1209 0.950 . S
C1236 C1222 1.377 . S
C1236 C1235 1.373 . S
C1237 C1221 1.377 . S
C1237 C1235 1.389 . S
C1237 C1238 1.524 . S
C1238 C1237 1.524 . S
C1238 C1239 1.397 . S
C1238 C1243 1.363 . S
C1239 H1210 0.950 . S
C1239 C1238 1.397 . S
C1239 C1240 1.334 . S
C1240 H1211 0.950 . S
C1240 C1239 1.334 . S
C1240 C1241 1.287 . S
C1241 C1240 1.287 . S
C1241 C1242 1.524 . S
C1241 H1244 0.999 . S
C1242 H1212 0.950 . S
C1242 C1241 1.524 . S
C1242 C1243 1.415 . S
C1243 H1213 0.950 . S
C1243 C1238 1.363 . S
C1243 C1242 1.415 . S
H1244 C1241 0.999 . S
H1245 C1226 0.913 . S
H1246 C1264 0.951 1_554 S
H1247 C1266 0.951 . S
H1248 C1268 0.950 . S
H1249 C1269 0.950 . S
H1250 C1271 0.950 . S
H1251 C1274 0.950 . S
H1252 C1275 0.950 . S
H1253 C1277 0.950 . S
H1254 C1278 0.950 . S
H1255 C1279 0.951 . S
H1256 C1281 0.951 . S
H1257 C1283 0.950 . S
H1258 C1284 0.950 . S
H1259 C1286 0.950 . S
H1260 C1289 0.950 . S
H1261 C1290 0.950 . S
H1262 C1292 0.950 . S
H1263 C1293 0.950 . S
C1264 H1246 0.951 1_556 S
C1264 C1265 1.366 . S
C1264 C1266 1.388 . S
C1265 C1264 1.366 . S
C1265 C1269 1.385 . S
C1266 H1247 0.951 . S
C1266 C1264 1.388 . S
C1266 C1267 1.366 . S
C1267 C1266 1.366 . S
C1267 C1268 1.414 . S
C1267 C1270 1.499 . S
C1268 H1248 0.950 . S
C1268 C1267 1.414 . S
C1268 C1269 1.374 . S
C1269 H1249 0.950 . S
C1269 C1265 1.385 . S
C1269 C1268 1.374 . S
C1270 C1267 1.499 . S
C1270 C1271 1.373 . S
C1270 C1272 1.389 . S
C1271 H1250 0.950 . S
C1271 C1270 1.373 . S
C1271 C1287 1.377 . S
C1272 C1270 1.389 . S
C1272 C1273 1.524 . S
C1272 C1286 1.377 . S
C1273 C1272 1.524 . S
C1273 C1274 1.397 . S
C1273 C1278 1.363 . S
C1274 H1251 0.950 . S
C1274 C1273 1.397 . S
C1274 C1275 1.334 . S
C1275 H1252 0.950 . S
C1275 C1274 1.334 . S
C1275 C1276 1.287 . S
C1276 C1275 1.287 . S
C1276 C1277 1.524 . S
C1276 H1295 0.913 . S
C1277 H1253 0.950 . S
C1277 C1276 1.524 . S
C1277 C1278 1.415 . S
C1278 H1254 0.950 . S
C1278 C1273 1.363 . S
C1278 C1277 1.415 . S
C1279 H1255 0.951 . S
C1279 C1280 1.366 . S
C1279 C1281 1.388 . S
C1280 C1279 1.366 . S
C1280 C1284 1.385 . S
C1281 H1256 0.951 . S
C1281 C1279 1.388 . S
C1281 C1282 1.366 . S
C1282 C1281 1.366 . S
C1282 C1283 1.414 . S
C1282 C1285 1.499 . S
C1283 H1257 0.950 . S
C1283 C1282 1.414 . S
C1283 C1284 1.374 . S
C1284 H1258 0.950 . S
C1284 C1280 1.385 . S
C1284 C1283 1.374 . S
C1285 C1282 1.499 . S
C1285 C1286 1.373 . S
C1285 C1287 1.389 . S
C1286 H1259 0.950 . S
C1286 C1272 1.377 . S
C1286 C1285 1.373 . S
C1287 C1271 1.377 . S
C1287 C1285 1.389 . S
C1287 C1288 1.524 . S
C1288 C1287 1.524 . S
C1288 C1289 1.397 . S
C1288 C1293 1.363 . S
C1289 H1260 0.950 . S
C1289 C1288 1.397 . S
C1289 C1290 1.334 . S
C1290 H1261 0.950 . S
C1290 C1289 1.334 . S
C1290 C1291 1.287 . S
C1291 C1290 1.287 . S
C1291 C1292 1.524 . S
C1291 H1294 0.999 . S
C1292 H1262 0.950 . S
C1292 C1291 1.524 . S
C1292 C1293 1.415 . S
C1293 H1263 0.950 . S
C1293 C1288 1.363 . S
C1293 C1292 1.415 . S
H1294 C1291 0.999 . S
H1295 C1276 0.913 . S
H1296 C1314 0.951 . S
H1297 C1316 0.951 . S
H1298 C1318 0.950 . S
H1299 C1319 0.950 . S
H1300 C1321 0.950 . S
H1301 C1324 0.950 . S
H1302 C1325 0.950 . S
H1303 C1327 0.950 . S
H1304 C1328 0.950 . S
H1305 C1329 0.951 . S
H1306 C1331 0.951 . S
H1307 C1333 0.950 . S
H1308 C1334 0.950 . S
H1309 C1336 0.950 . S
H1310 C1339 0.950 . S
H1311 C1340 0.950 . S
H1312 C1342 0.950 . S
H1313 C1343 0.950 . S
C1314 H1296 0.951 . S
C1314 C1315 1.366 . S
C1314 C1316 1.388 . S
C1315 C1314 1.366 . S
C1315 C1319 1.385 . S
C1316 H1297 0.951 . S
C1316 C1314 1.388 . S
C1316 C1317 1.366 . S
C1317 C1316 1.366 . S
C1317 C1318 1.414 . S
C1317 C1320 1.499 . S
C1318 H1298 0.950 . S
C1318 C1317 1.414 . S
C1318 C1319 1.374 . S
C1319 H1299 0.950 . S
C1319 C1315 1.385 . S
C1319 C1318 1.374 . S
C1320 C1317 1.499 . S
C1320 C1321 1.373 . S
C1320 C1322 1.389 . S
C1321 H1300 0.950 . S
C1321 C1320 1.373 . S
C1321 C1337 1.377 . S
C1322 C1320 1.389 . S
C1322 C1323 1.524 . S
C1322 C1336 1.377 . S
C1323 C1322 1.524 . S
C1323 C1324 1.397 . S
C1323 C1328 1.363 . S
C1324 H1301 0.950 . S
C1324 C1323 1.397 . S
C1324 C1325 1.334 . S
C1325 H1302 0.950 . S
C1325 C1324 1.334 . S
C1325 C1326 1.287 . S
C1326 C1325 1.287 . S
C1326 C1327 1.524 . S
C1326 H1345 0.913 . S
C1327 H1303 0.950 . S
C1327 C1326 1.524 . S
C1327 C1328 1.415 . S
C1328 H1304 0.950 . S
C1328 C1323 1.363 . S
C1328 C1327 1.415 . S
C1329 H1305 0.951 . S
C1329 C1330 1.366 . S
C1329 C1331 1.388 . S
C1330 C1329 1.366 . S
C1330 C1334 1.385 . S
C1331 H1306 0.951 . S
C1331 C1329 1.388 . S
C1331 C1332 1.366 . S
C1332 C1331 1.366 . S
C1332 C1333 1.414 . S
C1332 C1335 1.499 . S
C1333 H1307 0.950 . S
C1333 C1332 1.414 . S
C1333 C1334 1.374 . S
C1334 H1308 0.950 . S
C1334 C1330 1.385 . S
C1334 C1333 1.374 . S
C1335 C1332 1.499 . S
C1335 C1336 1.373 . S
C1335 C1337 1.389 . S
C1336 H1309 0.950 . S
C1336 C1322 1.377 . S
C1336 C1335 1.373 . S
C1337 C1321 1.377 . S
C1337 C1335 1.389 . S
C1337 C1338 1.524 . S
C1338 C1337 1.524 . S
C1338 C1339 1.397 . S
C1338 C1343 1.363 . S
C1339 H1310 0.950 . S
C1339 C1338 1.397 . S
C1339 C1340 1.334 . S
C1340 H1311 0.950 . S
C1340 C1339 1.334 . S
C1340 C1341 1.287 . S
C1341 C1340 1.287 . S
C1341 C1342 1.524 . S
C1341 H1344 0.999 . S
C1342 H1312 0.950 . S
C1342 C1341 1.524 . S
C1342 C1343 1.415 . S
C1343 H1313 0.950 . S
C1343 C1338 1.363 . S
C1343 C1342 1.415 . S
H1344 C1341 0.999 . S
H1345 C1326 0.913 . S
H1346 C1364 0.951 . S
H1347 C1366 0.951 . S
H1348 C1368 0.950 . S
H1349 C1369 0.950 . S
H1350 C1371 0.950 . S
H1351 C1374 0.950 . S
H1352 C1375 0.950 . S
H1353 C1377 0.950 . S
H1354 C1378 0.950 . S
H1355 C1379 0.951 . S
H1356 C1381 0.951 . S
H1357 C1383 0.950 . S
H1358 C1384 0.950 . S
H1359 C1386 0.950 . S
H1360 C1389 0.950 . S
H1361 C1390 0.950 . S
H1362 C1392 0.950 . S
H1363 C1393 0.950 . S
C1364 H1346 0.951 . S
C1364 C1365 1.366 . S
C1364 C1366 1.388 . S
C1365 C1364 1.366 . S
C1365 C1369 1.385 . S
C1366 H1347 0.951 . S
C1366 C1364 1.388 . S
C1366 C1367 1.366 . S
C1367 C1366 1.366 . S
C1367 C1368 1.414 . S
C1367 C1370 1.499 . S
C1368 H1348 0.950 . S
C1368 C1367 1.414 . S
C1368 C1369 1.374 . S
C1369 H1349 0.950 . S
C1369 C1365 1.385 . S
C1369 C1368 1.374 . S
C1370 C1367 1.499 . S
C1370 C1371 1.373 . S
C1370 C1372 1.389 . S
C1371 H1350 0.950 . S
C1371 C1370 1.373 . S
C1371 C1387 1.377 . S
C1372 C1370 1.389 . S
C1372 C1373 1.524 . S
C1372 C1386 1.377 . S
C1373 C1372 1.524 . S
C1373 C1374 1.397 . S
C1373 C1378 1.363 . S
C1374 H1351 0.950 . S
C1374 C1373 1.397 . S
C1374 C1375 1.334 . S
C1375 H1352 0.950 . S
C1375 C1374 1.334 . S
C1375 C1376 1.287 . S
C1376 C1375 1.287 . S
C1376 C1377 1.524 . S
C1376 H1395 0.913 . S
C1377 H1353 0.950 . S
C1377 C1376 1.524 . S
C1377 C1378 1.415 . S
C1378 H1354 0.950 . S
C1378 C1373 1.363 . S
C1378 C1377 1.415 . S
C1379 H1355 0.951 . S
C1379 C1380 1.366 . S
C1379 C1381 1.388 . S
C1380 C1379 1.366 . S
C1380 C1384 1.385 . S
C1381 H1356 0.951 . S
C1381 C1379 1.388 . S
C1381 C1382 1.366 . S
C1382 C1381 1.366 . S
C1382 C1383 1.414 . S
C1382 C1385 1.499 . S
C1383 H1357 0.950 . S
C1383 C1382 1.414 . S
C1383 C1384 1.374 . S
C1384 H1358 0.950 . S
C1384 C1380 1.385 . S
C1384 C1383 1.374 . S
C1385 C1382 1.499 . S
C1385 C1386 1.373 . S
C1385 C1387 1.389 . S
C1386 H1359 0.950 . S
C1386 C1372 1.377 . S
C1386 C1385 1.373 . S
C1387 C1371 1.377 . S
C1387 C1385 1.389 . S
C1387 C1388 1.524 . S
C1388 C1387 1.524 . S
C1388 C1389 1.397 . S
C1388 C1393 1.363 . S
C1389 H1360 0.950 . S
C1389 C1388 1.397 . S
C1389 C1390 1.334 . S
C1390 H1361 0.950 . S
C1390 C1389 1.334 . S
C1390 C1391 1.287 . S
C1391 C1390 1.287 . S
C1391 C1392 1.524 . S
C1391 H1394 0.999 . S
C1392 H1362 0.950 . S
C1392 C1391 1.524 . S
C1392 C1393 1.415 . S
C1393 H1363 0.950 . S
C1393 C1388 1.363 . S
C1393 C1392 1.415 . S
H1394 C1391 0.999 . S
H1395 C1376 0.913 . S
H1396 C1414 0.951 . S
H1397 C1416 0.951 . S
H1398 C1418 0.950 . S
H1399 C1419 0.950 . S
H1400 C1421 0.950 . S
H1401 C1424 0.950 . S
H1402 C1425 0.950 . S
H1403 C1427 0.950 . S
H1404 C1428 0.950 . S
H1405 C1429 0.951 . S
H1406 C1431 0.951 . S
H1407 C1433 0.950 . S
H1408 C1434 0.950 . S
H1409 C1436 0.950 . S
H1410 C1439 0.950 . S
H1411 C1440 0.950 . S
H1412 C1442 0.950 . S
H1413 C1443 0.950 . S
C1414 H1396 0.951 . S
C1414 C1415 1.366 . S
C1414 C1416 1.388 . S
C1415 C1414 1.366 . S
C1415 C1419 1.385 . S
C1416 H1397 0.951 . S
C1416 C1414 1.388 . S
C1416 C1417 1.366 . S
C1417 C1416 1.366 . S
C1417 C1418 1.414 . S
C1417 C1420 1.499 . S
C1418 H1398 0.950 . S
C1418 C1417 1.414 . S
C1418 C1419 1.374 . S
C1419 H1399 0.950 . S
C1419 C1415 1.385 . S
C1419 C1418 1.374 . S
C1420 C1417 1.499 . S
C1420 C1421 1.373 . S
C1420 C1422 1.389 . S
C1421 H1400 0.950 . S
C1421 C1420 1.373 . S
C1421 C1437 1.377 . S
C1422 C1420 1.389 . S
C1422 C1423 1.524 . S
C1422 C1436 1.377 . S
C1423 C1422 1.524 . S
C1423 C1424 1.397 . S
C1423 C1428 1.363 . S
C1424 H1401 0.950 . S
C1424 C1423 1.397 . S
C1424 C1425 1.334 . S
C1425 H1402 0.950 . S
C1425 C1424 1.334 . S
C1425 C1426 1.287 . S
C1426 C1425 1.287 . S
C1426 C1427 1.524 . S
C1426 H1445 0.913 . S
C1427 H1403 0.950 . S
C1427 C1426 1.524 . S
C1427 C1428 1.415 . S
C1428 H1404 0.950 . S
C1428 C1423 1.363 . S
C1428 C1427 1.415 . S
C1429 H1405 0.951 . S
C1429 C1430 1.366 . S
C1429 C1431 1.388 . S
C1430 C1429 1.366 . S
C1430 C1434 1.385 . S
C1431 H1406 0.951 . S
C1431 C1429 1.388 . S
C1431 C1432 1.366 . S
C1432 C1431 1.366 . S
C1432 C1433 1.414 . S
C1432 C1435 1.499 . S
C1433 H1407 0.950 . S
C1433 C1432 1.414 . S
C1433 C1434 1.374 . S
C1434 H1408 0.950 . S
C1434 C1430 1.385 . S
C1434 C1433 1.374 . S
C1435 C1432 1.499 . S
C1435 C1436 1.373 . S
C1435 C1437 1.389 . S
C1436 H1409 0.950 . S
C1436 C1422 1.377 . S
C1436 C1435 1.373 . S
C1437 C1421 1.377 . S
C1437 C1435 1.389 . S
C1437 C1438 1.524 . S
C1438 C1437 1.524 . S
C1438 C1439 1.397 . S
C1438 C1443 1.363 . S
C1439 H1410 0.950 . S
C1439 C1438 1.397 . S
C1439 C1440 1.334 . S
C1440 H1411 0.950 . S
C1440 C1439 1.334 . S
C1440 C1441 1.287 . S
C1441 C1440 1.287 . S
C1441 C1442 1.524 . S
C1441 H1444 0.999 . S
C1442 H1412 0.950 . S
C1442 C1441 1.524 . S
C1442 C1443 1.415 . S
C1443 H1413 0.950 . S
C1443 C1438 1.363 . S
C1443 C1442 1.415 . S
H1444 C1441 0.999 . S
H1445 C1426 0.913 . S
H1446 C1464 0.951 . S
H1447 C1466 0.951 . S
H1448 C1468 0.950 . S
H1449 C1469 0.950 . S
H1450 C1471 0.950 . S
H1451 C1474 0.950 . S
H1452 C1475 0.950 . S
H1453 C1477 0.950 . S
H1454 C1478 0.950 . S
H1455 C1479 0.951 . S
H1456 C1481 0.951 . S
H1457 C1483 0.950 . S
H1458 C1484 0.950 . S
H1459 C1486 0.950 . S
H1460 C1489 0.950 . S
H1461 C1490 0.950 . S
H1462 C1492 0.950 . S
H1463 C1493 0.950 . S
C1464 H1446 0.951 . S
C1464 C1465 1.366 . S
C1464 C1466 1.388 . S
C1465 C1464 1.366 . S
C1465 C1469 1.385 . S
C1466 H1447 0.951 . S
C1466 C1464 1.388 . S
C1466 C1467 1.366 . S
C1467 C1466 1.366 . S
C1467 C1468 1.414 . S
C1467 C1470 1.499 . S
C1468 H1448 0.950 . S
C1468 C1467 1.414 . S
C1468 C1469 1.374 . S
C1469 H1449 0.950 . S
C1469 C1465 1.385 . S
C1469 C1468 1.374 . S
C1470 C1467 1.499 . S
C1470 C1471 1.373 . S
C1470 C1472 1.389 . S
C1471 H1450 0.950 . S
C1471 C1470 1.373 . S
C1471 C1487 1.377 . S
C1472 C1470 1.389 . S
C1472 C1473 1.524 . S
C1472 C1486 1.377 . S
C1473 C1472 1.524 . S
C1473 C1474 1.397 . S
C1473 C1478 1.363 . S
C1474 H1451 0.950 . S
C1474 C1473 1.397 . S
C1474 C1475 1.334 . S
C1475 H1452 0.950 . S
C1475 C1474 1.334 . S
C1475 C1476 1.287 . S
C1476 C1475 1.287 . S
C1476 C1477 1.524 . S
C1476 H1495 0.913 1_556 S
C1477 H1453 0.950 . S
C1477 C1476 1.524 . S
C1477 C1478 1.415 . S
C1478 H1454 0.950 . S
C1478 C1473 1.363 . S
C1478 C1477 1.415 . S
C1479 H1455 0.951 . S
C1479 C1480 1.366 . S
C1479 C1481 1.388 . S
C1480 C1479 1.366 . S
C1480 C1484 1.385 . S
C1481 H1456 0.951 . S
C1481 C1479 1.388 . S
C1481 C1482 1.366 . S
C1482 C1481 1.366 . S
C1482 C1483 1.414 . S
C1482 C1485 1.499 . S
C1483 H1457 0.950 . S
C1483 C1482 1.414 . S
C1483 C1484 1.374 . S
C1484 H1458 0.950 . S
C1484 C1480 1.385 . S
C1484 C1483 1.374 . S
C1485 C1482 1.499 . S
C1485 C1486 1.373 . S
C1485 C1487 1.389 . S
C1486 H1459 0.950 . S
C1486 C1472 1.377 . S
C1486 C1485 1.373 . S
C1487 C1471 1.377 . S
C1487 C1485 1.389 . S
C1487 C1488 1.524 . S
C1488 C1487 1.524 . S
C1488 C1489 1.397 . S
C1488 C1493 1.363 . S
C1489 H1460 0.950 . S
C1489 C1488 1.397 . S
C1489 C1490 1.334 . S
C1490 H1461 0.950 . S
C1490 C1489 1.334 . S
C1490 C1491 1.287 . S
C1491 C1490 1.287 . S
C1491 C1492 1.524 . S
C1491 H1494 0.999 . S
C1492 H1462 0.950 . S
C1492 C1491 1.524 . S
C1492 C1493 1.415 . S
C1493 H1463 0.950 . S
C1493 C1488 1.363 . S
C1493 C1492 1.415 . S
H1494 C1491 0.999 . S
H1495 C1476 0.913 1_554 S
H1496 C1514 0.951 . S
H1497 C1516 0.951 . S
H1498 C1518 0.950 . S
H1499 C1519 0.950 . S
H1500 C1521 0.950 . S
H1501 C1524 0.950 . S
H1502 C1525 0.950 . S
H1503 C1527 0.950 . S
H1504 C1528 0.950 . S
H1505 C1529 0.951 . S
H1506 C1531 0.951 . S
H1507 C1533 0.950 . S
H1508 C1534 0.950 . S
H1509 C1536 0.950 . S
H1510 C1539 0.950 . S
H1511 C1540 0.950 . S
H1512 C1542 0.950 . S
H1513 C1543 0.950 . S
C1514 H1496 0.951 . S
C1514 C1515 1.366 1_556 S
C1514 C1516 1.388 . S
C1515 C1514 1.366 1_554 S
C1515 C1519 1.385 . S
C1516 H1497 0.951 . S
C1516 C1514 1.388 . S
C1516 C1517 1.366 . S
C1517 C1516 1.366 . S
C1517 C1518 1.414 . S
C1517 C1520 1.499 . S
C1518 H1498 0.950 . S
C1518 C1517 1.414 . S
C1518 C1519 1.374 1_556 S
C1519 H1499 0.950 . S
C1519 C1515 1.385 . S
C1519 C1518 1.374 1_554 S
C1520 C1517 1.499 . S
C1520 C1521 1.373 . S
C1520 C1522 1.389 . S
C1521 H1500 0.950 . S
C1521 C1520 1.373 . S
C1521 C1537 1.377 . S
C1522 C1520 1.389 . S
C1522 C1523 1.524 . S
C1522 C1536 1.377 . S
C1523 C1522 1.524 . S
C1523 C1524 1.397 . S
C1523 C1528 1.363 . S
C1524 H1501 0.950 . S
C1524 C1523 1.397 . S
C1524 C1525 1.334 . S
C1525 H1502 0.950 . S
C1525 C1524 1.334 . S
C1525 C1526 1.287 . S
C1526 C1525 1.287 . S
C1526 C1527 1.524 . S
C1526 H1545 0.913 . S
C1527 H1503 0.950 . S
C1527 C1526 1.524 . S
C1527 C1528 1.415 . S
C1528 H1504 0.950 . S
C1528 C1523 1.363 . S
C1528 C1527 1.415 . S
C1529 H1505 0.951 . S
C1529 C1530 1.366 . S
C1529 C1531 1.388 . S
C1530 C1529 1.366 . S
C1530 C1534 1.385 . S
C1531 H1506 0.951 . S
C1531 C1529 1.388 . S
C1531 C1532 1.366 . S
C1532 C1531 1.366 . S
C1532 C1533 1.414 . S
C1532 C1535 1.499 . S
C1533 H1507 0.950 . S
C1533 C1532 1.414 . S
C1533 C1534 1.374 . S
C1534 H1508 0.950 . S
C1534 C1530 1.385 . S
C1534 C1533 1.374 . S
C1535 C1532 1.499 . S
C1535 C1536 1.373 . S
C1535 C1537 1.389 . S
C1536 H1509 0.950 . S
C1536 C1522 1.377 . S
C1536 C1535 1.373 . S
C1537 C1521 1.377 . S
C1537 C1535 1.389 . S
C1537 C1538 1.524 . S
C1538 C1537 1.524 . S
C1538 C1539 1.397 . S
C1538 C1543 1.363 . S
C1539 H1510 0.950 . S
C1539 C1538 1.397 . S
C1539 C1540 1.334 . S
C1540 H1511 0.950 . S
C1540 C1539 1.334 . S
C1540 C1541 1.287 . S
C1541 C1540 1.287 . S
C1541 C1542 1.524 . S
C1541 H1544 0.999 . S
C1542 H1512 0.950 . S
C1542 C1541 1.524 . S
C1542 C1543 1.415 . S
C1543 H1513 0.950 . S
C1543 C1538 1.363 . S
C1543 C1542 1.415 . S
H1544 C1541 0.999 . S
H1545 C1526 0.913 . S
H1546 C1564 0.951 . S
H1547 C1566 0.951 . S
H1548 C1568 0.950 . S
H1549 C1569 0.950 1_556 S
H1550 C1571 0.950 . S
H1551 C1574 0.950 . S
H1552 C1575 0.950 1_455 S
H1553 C1577 0.950 . S
H1554 C1578 0.950 1_554 S
H1555 C1579 0.951 . S
H1556 C1581 0.951 . S
H1557 C1583 0.950 . S
H1558 C1584 0.950 . S
H1559 C1586 0.950 . S
H1560 C1589 0.950 . S
H1561 C1590 0.950 . S
H1562 C1592 0.950 . S
H1563 C1593 0.950 . S
C1564 H1546 0.951 . S
C1564 C1565 1.366 . S
C1564 C1566 1.388 . S
C1565 C1564 1.366 . S
C1565 C1569 1.385 . S
C1566 H1547 0.951 . S
C1566 C1564 1.388 . S
C1566 C1567 1.366 1_554 S
C1567 C1566 1.366 1_556 S
C1567 C1568 1.414 . S
C1567 C1570 1.499 . S
C1568 H1548 0.950 . S
C1568 C1567 1.414 . S
C1568 C1569 1.374 1_556 S
C1569 H1549 0.950 1_554 S
C1569 C1565 1.385 . S
C1569 C1568 1.374 1_554 S
C1570 C1567 1.499 . S
C1570 C1571 1.373 . S
C1570 C1572 1.389 . S
C1571 H1550 0.950 . S
C1571 C1570 1.373 . S
C1571 C1587 1.377 . S
C1572 C1570 1.389 . S
C1572 C1573 1.524 . S
C1572 C1586 1.377 . S
C1573 C1572 1.524 . S
C1573 C1574 1.397 . S
C1573 C1578 1.363 . S
C1574 H1551 0.950 . S
C1574 C1573 1.397 . S
C1574 C1575 1.334 . S
C1575 H1552 0.950 1_655 S
C1575 C1574 1.334 . S
C1575 C1576 1.287 . S
C1576 C1575 1.287 . S
C1576 C1577 1.524 1_556 S
C1576 H1595 0.913 . S
C1577 H1553 0.950 . S
C1577 C1576 1.524 1_554 S
C1577 C1578 1.415 1_554 S
C1578 H1554 0.950 1_556 S
C1578 C1573 1.363 . S
C1578 C1577 1.415 1_556 S
C1579 H1555 0.951 . S
C1579 C1580 1.366 . S
C1579 C1581 1.388 . S
C1580 C1579 1.366 . S
C1580 C1584 1.385 . S
C1581 H1556 0.951 . S
C1581 C1579 1.388 . S
C1581 C1582 1.366 . S
C1582 C1581 1.366 . S
C1582 C1583 1.414 . S
C1582 C1585 1.499 . S
C1583 H1557 0.950 . S
C1583 C1582 1.414 . S
C1583 C1584 1.374 . S
C1584 H1558 0.950 . S
C1584 C1580 1.385 . S
C1584 C1583 1.374 . S
C1585 C1582 1.499 . S
C1585 C1586 1.373 . S
C1585 C1587 1.389 . S
C1586 H1559 0.950 . S
C1586 C1572 1.377 . S
C1586 C1585 1.373 . S
C1587 C1571 1.377 . S
C1587 C1585 1.389 . S
C1587 C1588 1.524 . S
C1588 C1587 1.524 . S
C1588 C1589 1.397 . S
C1588 C1593 1.363 . S
C1589 H1560 0.950 . S
C1589 C1588 1.397 . S
C1589 C1590 1.334 . S
C1590 H1561 0.950 . S
C1590 C1589 1.334 . S
C1590 C1591 1.287 . S
C1591 C1590 1.287 . S
C1591 C1592 1.524 . S
C1591 H1594 0.999 . S
C1592 H1562 0.950 . S
C1592 C1591 1.524 . S
C1592 C1593 1.415 . S
C1593 H1563 0.950 . S
C1593 C1588 1.363 . S
C1593 C1592 1.415 . S
H1594 C1591 0.999 . S
H1595 C1576 0.913 . S
H1596 C1614 0.951 . S
H1597 C1616 0.951 . S
H1598 C1618 0.950 . S
H1599 C1619 0.950 . S
H1600 C1621 0.950 . S
H1601 C1624 0.950 . S
H1602 C1625 0.950 . S
H1603 C1627 0.950 . S
H1604 C1628 0.950 . S
H1605 C1629 0.951 . S
H1606 C1631 0.951 . S
H1607 C1633 0.950 . S
H1608 C1634 0.950 . S
H1609 C1636 0.950 . S
H1610 C1639 0.950 . S
H1611 C1640 0.950 . S
H1612 C1642 0.950 . S
H1613 C1643 0.950 . S
C1614 H1596 0.951 . S
C1614 C1615 1.366 . S
C1614 C1616 1.388 . S
C1615 C1614 1.366 . S
C1615 C1619 1.385 . S
C1616 H1597 0.951 . S
C1616 C1614 1.388 . S
C1616 C1617 1.366 . S
C1617 C1616 1.366 . S
C1617 C1618 1.414 . S
C1617 C1620 1.499 . S
C1618 H1598 0.950 . S
C1618 C1617 1.414 . S
C1618 C1619 1.374 . S
C1619 H1599 0.950 . S
C1619 C1615 1.385 . S
C1619 C1618 1.374 . S
C1620 C1617 1.499 . S
C1620 C1621 1.373 . S
C1620 C1622 1.389 . S
C1621 H1600 0.950 . S
C1621 C1620 1.373 . S
C1621 C1637 1.377 . S
C1622 C1620 1.389 . S
C1622 C1623 1.524 . S
C1622 C1636 1.377 . S
C1623 C1622 1.524 . S
C1623 C1624 1.397 . S
C1623 C1628 1.363 . S
C1624 H1601 0.950 . S
C1624 C1623 1.397 . S
C1624 C1625 1.334 . S
C1625 H1602 0.950 . S
C1625 C1624 1.334 . S
C1625 C1626 1.287 . S
C1626 C1625 1.287 . S
C1626 C1627 1.524 . S
C1626 H1645 0.913 . S
C1627 H1603 0.950 . S
C1627 C1626 1.524 . S
C1627 C1628 1.415 . S
C1628 H1604 0.950 . S
C1628 C1623 1.363 . S
C1628 C1627 1.415 . S
C1629 H1605 0.951 . S
C1629 C1630 1.366 . S
C1629 C1631 1.388 . S
C1630 C1629 1.366 . S
C1630 C1634 1.385 . S
C1631 H1606 0.951 . S
C1631 C1629 1.388 . S
C1631 C1632 1.366 . S
C1632 C1631 1.366 . S
C1632 C1633 1.414 . S
C1632 C1635 1.499 . S
C1633 H1607 0.950 . S
C1633 C1632 1.414 . S
C1633 C1634 1.374 . S
C1634 H1608 0.950 . S
C1634 C1630 1.385 . S
C1634 C1633 1.374 . S
C1635 C1632 1.499 . S
C1635 C1636 1.373 . S
C1635 C1637 1.389 . S
C1636 H1609 0.950 . S
C1636 C1622 1.377 . S
C1636 C1635 1.373 . S
C1637 C1621 1.377 . S
C1637 C1635 1.389 . S
C1637 C1638 1.524 . S
C1638 C1637 1.524 . S
C1638 C1639 1.397 . S
C1638 C1643 1.363 . S
C1639 H1610 0.950 . S
C1639 C1638 1.397 . S
C1639 C1640 1.334 . S
C1640 H1611 0.950 . S
C1640 C1639 1.334 . S
C1640 C1641 1.287 . S
C1641 C1640 1.287 . S
C1641 C1642 1.524 . S
C1641 H1644 0.999 . S
C1642 H1612 0.950 . S
C1642 C1641 1.524 . S
C1642 C1643 1.415 . S
C1643 H1613 0.950 . S
C1643 C1638 1.363 . S
C1643 C1642 1.415 . S
H1644 C1641 0.999 . S
H1645 C1626 0.913 . S
H1646 C1664 0.951 . S
H1647 C1666 0.951 . S
H1648 C1668 0.950 . S
H1649 C1669 0.950 . S
H1650 C1671 0.950 . S
H1651 C1674 0.950 . S
H1652 C1675 0.950 . S
H1653 C1677 0.950 . S
H1654 C1678 0.950 . S
H1655 C1679 0.951 . S
H1656 C1681 0.951 . S
H1657 C1683 0.950 . S
H1658 C1684 0.950 . S
H1659 C1686 0.950 . S
H1660 C1689 0.950 . S
H1661 C1690 0.950 . S
H1662 C1692 0.950 . S
H1663 C1693 0.950 . S
C1664 H1646 0.951 . S
C1664 C1665 1.366 . S
C1664 C1666 1.388 . S
C1665 C1664 1.366 . S
C1665 C1669 1.385 . S
C1666 H1647 0.951 . S
C1666 C1664 1.388 . S
C1666 C1667 1.366 . S
C1667 C1666 1.366 . S
C1667 C1668 1.414 . S
C1667 C1670 1.499 . S
C1668 H1648 0.950 . S
C1668 C1667 1.414 . S
C1668 C1669 1.374 . S
C1669 H1649 0.950 . S
C1669 C1665 1.385 . S
C1669 C1668 1.374 . S
C1670 C1667 1.499 . S
C1670 C1671 1.373 . S
C1670 C1672 1.389 . S
C1671 H1650 0.950 . S
C1671 C1670 1.373 . S
C1671 C1687 1.377 . S
C1672 C1670 1.389 . S
C1672 C1673 1.524 . S
C1672 C1686 1.377 . S
C1673 C1672 1.524 . S
C1673 C1674 1.397 . S
C1673 C1678 1.363 . S
C1674 H1651 0.950 . S
C1674 C1673 1.397 . S
C1674 C1675 1.334 . S
C1675 H1652 0.950 . S
C1675 C1674 1.334 . S
C1675 C1676 1.287 . S
C1676 C1675 1.287 . S
C1676 C1677 1.524 . S
C1676 H1695 0.913 . S
C1677 H1653 0.950 . S
C1677 C1676 1.524 . S
C1677 C1678 1.415 . S
C1678 H1654 0.950 . S
C1678 C1673 1.363 . S
C1678 C1677 1.415 . S
C1679 H1655 0.951 . S
C1679 C1680 1.366 . S
C1679 C1681 1.388 . S
C1680 C1679 1.366 . S
C1680 C1684 1.385 . S
C1681 H1656 0.951 . S
C1681 C1679 1.388 . S
C1681 C1682 1.366 . S
C1682 C1681 1.366 . S
C1682 C1683 1.414 . S
C1682 C1685 1.499 . S
C1683 H1657 0.950 . S
C1683 C1682 1.414 . S
C1683 C1684 1.374 . S
C1684 H1658 0.950 . S
C1684 C1680 1.385 . S
C1684 C1683 1.374 . S
C1685 C1682 1.499 . S
C1685 C1686 1.373 . S
C1685 C1687 1.389 . S
C1686 H1659 0.950 . S
C1686 C1672 1.377 . S
C1686 C1685 1.373 . S
C1687 C1671 1.377 . S
C1687 C1685 1.389 . S
C1687 C1688 1.524 . S
C1688 C1687 1.524 . S
C1688 C1689 1.397 . S
C1688 C1693 1.363 . S
C1689 H1660 0.950 . S
C1689 C1688 1.397 . S
C1689 C1690 1.334 . S
C1690 H1661 0.950 . S
C1690 C1689 1.334 . S
C1690 C1691 1.287 . S
C1691 C1690 1.287 . S
C1691 C1692 1.524 . S
C1691 H1694 0.999 . S
C1692 H1662 0.950 . S
C1692 C1691 1.524 . S
C1692 C1693 1.415 . S
C1693 H1663 0.950 . S
C1693 C1688 1.363 . S
C1693 C1692 1.415 . S
H1694 C1691 0.999 . S
H1695 C1676 0.913 . S
H1696 C1714 0.951 . S
H1697 C1716 0.951 . S
H1698 C1718 0.950 . S
H1699 C1719 0.950 . S
H1700 C1721 0.950 . S
H1701 C1724 0.950 . S
H1702 C1725 0.950 . S
H1703 C1727 0.950 . S
H1704 C1728 0.950 . S
H1705 C1729 0.951 . S
H1706 C1731 0.951 . S
H1707 C1733 0.950 . S
H1708 C1734 0.950 . S
H1709 C1736 0.950 . S
H1710 C1739 0.950 . S
H1711 C1740 0.950 . S
H1712 C1742 0.950 . S
H1713 C1743 0.950 . S
C1714 H1696 0.951 . S
C1714 C1715 1.366 . S
C1714 C1716 1.388 . S
C1715 C1714 1.366 . S
C1715 C1719 1.385 . S
C1716 H1697 0.951 . S
C1716 C1714 1.388 . S
C1716 C1717 1.366 . S
C1717 C1716 1.366 . S
C1717 C1718 1.414 . S
C1717 C1720 1.499 . S
C1718 H1698 0.950 . S
C1718 C1717 1.414 . S
C1718 C1719 1.374 . S
C1719 H1699 0.950 . S
C1719 C1715 1.385 . S
C1719 C1718 1.374 . S
C1720 C1717 1.499 . S
C1720 C1721 1.373 . S
C1720 C1722 1.389 . S
C1721 H1700 0.950 . S
C1721 C1720 1.373 . S
C1721 C1737 1.377 . S
C1722 C1720 1.389 . S
C1722 C1723 1.524 . S
C1722 C1736 1.377 . S
C1723 C1722 1.524 . S
C1723 C1724 1.397 . S
C1723 C1728 1.363 . S
C1724 H1701 0.950 . S
C1724 C1723 1.397 . S
C1724 C1725 1.334 . S
C1725 H1702 0.950 . S
C1725 C1724 1.334 . S
C1725 C1726 1.287 . S
C1726 C1725 1.287 . S
C1726 C1727 1.524 . S
C1726 H1745 0.913 . S
C1727 H1703 0.950 . S
C1727 C1726 1.524 . S
C1727 C1728 1.415 . S
C1728 H1704 0.950 . S
C1728 C1723 1.363 . S
C1728 C1727 1.415 . S
C1729 H1705 0.951 . S
C1729 C1730 1.366 . S
C1729 C1731 1.388 . S
C1730 C1729 1.366 . S
C1730 C1734 1.385 . S
C1731 H1706 0.951 . S
C1731 C1729 1.388 . S
C1731 C1732 1.366 . S
C1732 C1731 1.366 . S
C1732 C1733 1.414 . S
C1732 C1735 1.499 . S
C1733 H1707 0.950 . S
C1733 C1732 1.414 . S
C1733 C1734 1.374 . S
C1734 H1708 0.950 . S
C1734 C1730 1.385 . S
C1734 C1733 1.374 . S
C1735 C1732 1.499 . S
C1735 C1736 1.373 . S
C1735 C1737 1.389 . S
C1736 H1709 0.950 . S
C1736 C1722 1.377 . S
C1736 C1735 1.373 . S
C1737 C1721 1.377 . S
C1737 C1735 1.389 . S
C1737 C1738 1.524 . S
C1738 C1737 1.524 . S
C1738 C1739 1.397 . S
C1738 C1743 1.363 . S
C1739 H1710 0.950 . S
C1739 C1738 1.397 . S
C1739 C1740 1.334 . S
C1740 H1711 0.950 . S
C1740 C1739 1.334 . S
C1740 C1741 1.287 . S
C1741 C1740 1.287 . S
C1741 C1742 1.524 . S
C1741 H1744 0.999 . S
C1742 H1712 0.950 . S
C1742 C1741 1.524 . S
C1742 C1743 1.415 . S
C1743 H1713 0.950 . S
C1743 C1738 1.363 . S
C1743 C1742 1.415 . S
H1744 C1741 0.999 . S
H1745 C1726 0.913 . S
H1746 C1764 0.951 . S
H1747 C1766 0.951 . S
H1748 C1768 0.950 . S
H1749 C1769 0.950 . S
H1750 C1771 0.950 . S
H1751 C1774 0.950 . S
H1752 C1775 0.950 . S
H1753 C1777 0.950 . S
H1754 C1778 0.950 . S
H1755 C1779 0.951 . S
H1756 C1781 0.951 . S
H1757 C1783 0.950 . S
H1758 C1784 0.950 . S
H1759 C1786 0.950 . S
H1760 C1789 0.950 . S
H1761 C1790 0.950 . S
H1762 C1792 0.950 . S
H1763 C1793 0.950 . S
C1764 H1746 0.951 . S
C1764 C1765 1.366 . S
C1764 C1766 1.388 . S
C1765 C1764 1.366 . S
C1765 C1769 1.385 . S
C1766 H1747 0.951 . S
C1766 C1764 1.388 . S
C1766 C1767 1.366 . S
C1767 C1766 1.366 . S
C1767 C1768 1.414 . S
C1767 C1770 1.499 . S
C1768 H1748 0.950 . S
C1768 C1767 1.414 . S
C1768 C1769 1.374 . S
C1769 H1749 0.950 . S
C1769 C1765 1.385 . S
C1769 C1768 1.374 . S
C1770 C1767 1.499 . S
C1770 C1771 1.373 . S
C1770 C1772 1.389 . S
C1771 H1750 0.950 . S
C1771 C1770 1.373 . S
C1771 C1787 1.377 . S
C1772 C1770 1.389 . S
C1772 C1773 1.524 . S
C1772 C1786 1.377 . S
C1773 C1772 1.524 . S
C1773 C1774 1.397 . S
C1773 C1778 1.363 . S
C1774 H1751 0.950 . S
C1774 C1773 1.397 . S
C1774 C1775 1.334 . S
C1775 H1752 0.950 . S
C1775 C1774 1.334 . S
C1775 C1776 1.287 . S
C1776 C1775 1.287 . S
C1776 C1777 1.524 . S
C1776 H1795 0.913 . S
C1777 H1753 0.950 . S
C1777 C1776 1.524 . S
C1777 C1778 1.415 . S
C1778 H1754 0.950 . S
C1778 C1773 1.363 . S
C1778 C1777 1.415 . S
C1779 H1755 0.951 . S
C1779 C1780 1.366 . S
C1779 C1781 1.388 . S
C1780 C1779 1.366 . S
C1780 C1784 1.385 . S
C1781 H1756 0.951 . S
C1781 C1779 1.388 . S
C1781 C1782 1.366 . S
C1782 C1781 1.366 . S
C1782 C1783 1.414 . S
C1782 C1785 1.499 . S
C1783 H1757 0.950 . S
C1783 C1782 1.414 . S
C1783 C1784 1.374 . S
C1784 H1758 0.950 . S
C1784 C1780 1.385 . S
C1784 C1783 1.374 . S
C1785 C1782 1.499 . S
C1785 C1786 1.373 . S
C1785 C1787 1.389 . S
C1786 H1759 0.950 . S
C1786 C1772 1.377 . S
C1786 C1785 1.373 . S
C1787 C1771 1.377 . S
C1787 C1785 1.389 . S
C1787 C1788 1.524 . S
C1788 C1787 1.524 . S
C1788 C1789 1.397 . S
C1788 C1793 1.363 . S
C1789 H1760 0.950 . S
C1789 C1788 1.397 . S
C1789 C1790 1.334 . S
C1790 H1761 0.950 . S
C1790 C1789 1.334 . S
C1790 C1791 1.287 . S
C1791 C1790 1.287 . S
C1791 C1792 1.524 . S
C1791 H1794 0.999 . S
C1792 H1762 0.950 . S
C1792 C1791 1.524 . S
C1792 C1793 1.415 . S
C1793 H1763 0.950 . S
C1793 C1788 1.363 . S
C1793 C1792 1.415 . S
H1794 C1791 0.999 . S
H1795 C1776 0.913 . S
H1796 C1814 0.951 . S
H1797 C1816 0.951 . S
H1798 C1818 0.950 . S
H1799 C1819 0.950 . S
H1800 C1821 0.950 . S
H1801 C1824 0.950 . S
H1802 C1825 0.950 . S
H1803 C1827 0.950 . S
H1804 C1828 0.950 . S
H1805 C1829 0.951 . S
H1806 C1831 0.951 . S
H1807 C1833 0.950 . S
H1808 C1834 0.950 . S
H1809 C1836 0.950 . S
H1810 C1839 0.950 . S
H1811 C1840 0.950 . S
H1812 C1842 0.950 . S
H1813 C1843 0.950 . S
C1814 H1796 0.951 . S
C1814 C1815 1.366 . S
C1814 C1816 1.388 . S
C1815 C1814 1.366 . S
C1815 C1819 1.385 . S
C1816 H1797 0.951 . S
C1816 C1814 1.388 . S
C1816 C1817 1.366 . S
C1817 C1816 1.366 . S
C1817 C1818 1.414 . S
C1817 C1820 1.499 . S
C1818 H1798 0.950 . S
C1818 C1817 1.414 . S
C1818 C1819 1.374 . S
C1819 H1799 0.950 . S
C1819 C1815 1.385 . S
C1819 C1818 1.374 . S
C1820 C1817 1.499 . S
C1820 C1821 1.373 . S
C1820 C1822 1.389 . S
C1821 H1800 0.950 . S
C1821 C1820 1.373 . S
C1821 C1837 1.377 . S
C1822 C1820 1.389 . S
C1822 C1823 1.524 . S
C1822 C1836 1.377 . S
C1823 C1822 1.524 . S
C1823 C1824 1.397 . S
C1823 C1828 1.363 . S
C1824 H1801 0.950 . S
C1824 C1823 1.397 . S
C1824 C1825 1.334 . S
C1825 H1802 0.950 . S
C1825 C1824 1.334 . S
C1825 C1826 1.287 . S
C1826 C1825 1.287 . S
C1826 C1827 1.524 . S
C1826 H1845 0.913 . S
C1827 H1803 0.950 . S
C1827 C1826 1.524 . S
C1827 C1828 1.415 . S
C1828 H1804 0.950 . S
C1828 C1823 1.363 . S
C1828 C1827 1.415 . S
C1829 H1805 0.951 . S
C1829 C1830 1.366 . S
C1829 C1831 1.388 . S
C1830 C1829 1.366 . S
C1830 C1834 1.385 . S
C1831 H1806 0.951 . S
C1831 C1829 1.388 . S
C1831 C1832 1.366 . S
C1832 C1831 1.366 . S
C1832 C1833 1.414 . S
C1832 C1835 1.499 . S
C1833 H1807 0.950 . S
C1833 C1832 1.414 . S
C1833 C1834 1.374 . S
C1834 H1808 0.950 . S
C1834 C1830 1.385 . S
C1834 C1833 1.374 . S
C1835 C1832 1.499 . S
C1835 C1836 1.373 . S
C1835 C1837 1.389 . S
C1836 H1809 0.950 . S
C1836 C1822 1.377 . S
C1836 C1835 1.373 . S
C1837 C1821 1.377 . S
C1837 C1835 1.389 . S
C1837 C1838 1.524 . S
C1838 C1837 1.524 . S
C1838 C1839 1.397 . S
C1838 C1843 1.363 . S
C1839 H1810 0.950 . S
C1839 C1838 1.397 . S
C1839 C1840 1.334 . S
C1840 H1811 0.950 . S
C1840 C1839 1.334 . S
C1840 C1841 1.287 . S
C1841 C1840 1.287 . S
C1841 C1842 1.524 . S
C1841 H1844 0.999 . S
C1842 H1812 0.950 . S
C1842 C1841 1.524 . S
C1842 C1843 1.415 . S
C1843 H1813 0.950 . S
C1843 C1838 1.363 . S
C1843 C1842 1.415 . S
H1844 C1841 0.999 . S
H1845 C1826 0.913 . S
H1846 C1864 0.951 . S
H1847 C1866 0.951 . S
H1848 C1868 0.950 . S
H1849 C1869 0.950 . S
H1850 C1871 0.950 . S
H1851 C1874 0.950 . S
H1852 C1875 0.950 . S
H1853 C1877 0.950 . S
H1854 C1878 0.950 . S
H1855 C1879 0.951 . S
H1856 C1881 0.951 . S
H1857 C1883 0.950 . S
H1858 C1884 0.950 . S
H1859 C1886 0.950 . S
H1860 C1889 0.950 . S
H1861 C1890 0.950 . S
H1862 C1892 0.950 . S
H1863 C1893 0.950 . S
C1864 H1846 0.951 . S
C1864 C1865 1.366 . S
C1864 C1866 1.388 . S
C1865 C1864 1.366 . S
C1865 C1869 1.385 . S
C1866 H1847 0.951 . S
C1866 C1864 1.388 . S
C1866 C1867 1.366 . S
C1867 C1866 1.366 . S
C1867 C1868 1.414 . S
C1867 C1870 1.499 . S
C1868 H1848 0.950 . S
C1868 C1867 1.414 . S
C1868 C1869 1.374 . S
C1869 H1849 0.950 . S
C1869 C1865 1.385 . S
C1869 C1868 1.374 . S
C1870 C1867 1.499 . S
C1870 C1871 1.373 . S
C1870 C1872 1.389 . S
C1871 H1850 0.950 . S
C1871 C1870 1.373 . S
C1871 C1887 1.377 . S
C1872 C1870 1.389 . S
C1872 C1873 1.524 . S
C1872 C1886 1.377 . S
C1873 C1872 1.524 . S
C1873 C1874 1.397 . S
C1873 C1878 1.363 . S
C1874 H1851 0.950 . S
C1874 C1873 1.397 . S
C1874 C1875 1.334 . S
C1875 H1852 0.950 . S
C1875 C1874 1.334 . S
C1875 C1876 1.287 . S
C1876 C1875 1.287 . S
C1876 C1877 1.524 . S
C1876 H1895 0.913 . S
C1877 H1853 0.950 . S
C1877 C1876 1.524 . S
C1877 C1878 1.415 . S
C1878 H1854 0.950 . S
C1878 C1873 1.363 . S
C1878 C1877 1.415 . S
C1879 H1855 0.951 . S
C1879 C1880 1.366 . S
C1879 C1881 1.388 . S
C1880 C1879 1.366 . S
C1880 C1884 1.385 . S
C1881 H1856 0.951 . S
C1881 C1879 1.388 . S
C1881 C1882 1.366 . S
C1882 C1881 1.366 . S
C1882 C1883 1.414 . S
C1882 C1885 1.499 . S
C1883 H1857 0.950 . S
C1883 C1882 1.414 . S
C1883 C1884 1.374 . S
C1884 H1858 0.950 . S
C1884 C1880 1.385 . S
C1884 C1883 1.374 . S
C1885 C1882 1.499 . S
C1885 C1886 1.373 . S
C1885 C1887 1.389 . S
C1886 H1859 0.950 . S
C1886 C1872 1.377 . S
C1886 C1885 1.373 . S
C1887 C1871 1.377 . S
C1887 C1885 1.389 . S
C1887 C1888 1.524 . S
C1888 C1887 1.524 . S
C1888 C1889 1.397 . S
C1888 C1893 1.363 . S
C1889 H1860 0.950 . S
C1889 C1888 1.397 . S
C1889 C1890 1.334 . S
C1890 H1861 0.950 . S
C1890 C1889 1.334 . S
C1890 C1891 1.287 . S
C1891 C1890 1.287 . S
C1891 C1892 1.524 . S
C1891 H1894 0.999 . S
C1892 H1862 0.950 . S
C1892 C1891 1.524 . S
C1892 C1893 1.415 . S
C1893 H1863 0.950 . S
C1893 C1888 1.363 . S
C1893 C1892 1.415 . S
H1894 C1891 0.999 . S
H1895 C1876 0.913 . S
H1896 C1914 0.951 . S
H1897 C1916 0.951 . S
H1898 C1918 0.950 . S
H1899 C1919 0.950 . S
H1900 C1921 0.950 . S
H1901 C1924 0.950 . S
H1902 C1925 0.950 . S
H1903 C1927 0.950 . S
H1904 C1928 0.950 . S
H1905 C1929 0.951 . S
H1906 C1931 0.951 . S
H1907 C1933 0.950 . S
H1908 C1934 0.950 . S
H1909 C1936 0.950 . S
H1910 C1939 0.950 . S
H1911 C1940 0.950 . S
H1912 C1942 0.950 . S
H1913 C1943 0.950 . S
C1914 H1896 0.951 . S
C1914 C1915 1.366 . S
C1914 C1916 1.388 . S
C1915 C1914 1.366 . S
C1915 C1919 1.385 . S
C1916 H1897 0.951 . S
C1916 C1914 1.388 . S
C1916 C1917 1.366 . S
C1917 C1916 1.366 . S
C1917 C1918 1.414 . S
C1917 C1920 1.499 . S
C1918 H1898 0.950 . S
C1918 C1917 1.414 . S
C1918 C1919 1.374 . S
C1919 H1899 0.950 . S
C1919 C1915 1.385 . S
C1919 C1918 1.374 . S
C1920 C1917 1.499 . S
C1920 C1921 1.373 . S
C1920 C1922 1.389 . S
C1921 H1900 0.950 . S
C1921 C1920 1.373 . S
C1921 C1937 1.377 . S
C1922 C1920 1.389 . S
C1922 C1923 1.524 . S
C1922 C1936 1.377 . S
C1923 C1922 1.524 . S
C1923 C1924 1.397 . S
C1923 C1928 1.363 . S
C1924 H1901 0.950 . S
C1924 C1923 1.397 . S
C1924 C1925 1.334 . S
C1925 H1902 0.950 . S
C1925 C1924 1.334 . S
C1925 C1926 1.287 . S
C1926 C1925 1.287 . S
C1926 C1927 1.524 . S
C1926 H1945 0.913 . S
C1927 H1903 0.950 . S
C1927 C1926 1.524 . S
C1927 C1928 1.415 . S
C1928 H1904 0.950 . S
C1928 C1923 1.363 . S
C1928 C1927 1.415 . S
C1929 H1905 0.951 . S
C1929 C1930 1.366 . S
C1929 C1931 1.388 . S
C1930 C1929 1.366 . S
C1930 C1934 1.385 . S
C1931 H1906 0.951 . S
C1931 C1929 1.388 . S
C1931 C1932 1.366 . S
C1932 C1931 1.366 . S
C1932 C1933 1.414 . S
C1932 C1935 1.499 . S
C1933 H1907 0.950 . S
C1933 C1932 1.414 . S
C1933 C1934 1.374 . S
C1934 H1908 0.950 . S
C1934 C1930 1.385 . S
C1934 C1933 1.374 . S
C1935 C1932 1.499 . S
C1935 C1936 1.373 . S
C1935 C1937 1.389 . S
C1936 H1909 0.950 . S
C1936 C1922 1.377 . S
C1936 C1935 1.373 . S
C1937 C1921 1.377 . S
C1937 C1935 1.389 . S
C1937 C1938 1.524 . S
C1938 C1937 1.524 . S
C1938 C1939 1.397 . S
C1938 C1943 1.363 . S
C1939 H1910 0.950 . S
C1939 C1938 1.397 . S
C1939 C1940 1.334 . S
C1940 H1911 0.950 . S
C1940 C1939 1.334 . S
C1940 C1941 1.287 . S
C1941 C1940 1.287 . S
C1941 C1942 1.524 . S
C1941 H1944 0.999 . S
C1942 H1912 0.950 . S
C1942 C1941 1.524 . S
C1942 C1943 1.415 . S
C1943 H1913 0.950 . S
C1943 C1938 1.363 . S
C1943 C1942 1.415 . S
H1944 C1941 0.999 . S
H1945 C1926 0.913 . S
H1946 C1964 0.951 . S
H1947 C1966 0.951 . S
H1948 C1968 0.950 . S
H1949 C1969 0.950 . S
H1950 C1971 0.950 . S
H1951 C1974 0.950 . S
H1952 C1975 0.950 . S
H1953 C1977 0.950 . S
H1954 C1978 0.950 . S
H1955 C1979 0.951 . S
H1956 C1981 0.951 . S
H1957 C1983 0.950 . S
H1958 C1984 0.950 . S
H1959 C1986 0.950 . S
H1960 C1989 0.950 . S
H1961 C1990 0.950 . S
H1962 C1992 0.950 . S
H1963 C1993 0.950 . S
C1964 H1946 0.951 . S
C1964 C1965 1.366 . S
C1964 C1966 1.388 . S
C1965 C1964 1.366 . S
C1965 C1969 1.385 . S
C1966 H1947 0.951 . S
C1966 C1964 1.388 . S
C1966 C1967 1.366 . S
C1967 C1966 1.366 . S
C1967 C1968 1.414 . S
C1967 C1970 1.499 . S
C1968 H1948 0.950 . S
C1968 C1967 1.414 . S
C1968 C1969 1.374 . S
C1969 H1949 0.950 . S
C1969 C1965 1.385 . S
C1969 C1968 1.374 . S
C1970 C1967 1.499 . S
C1970 C1971 1.373 . S
C1970 C1972 1.389 . S
C1971 H1950 0.950 . S
C1971 C1970 1.373 . S
C1971 C1987 1.377 . S
C1972 C1970 1.389 . S
C1972 C1973 1.524 . S
C1972 C1986 1.377 . S
C1973 C1972 1.524 . S
C1973 C1974 1.397 . S
C1973 C1978 1.363 . S
C1974 H1951 0.950 . S
C1974 C1973 1.397 . S
C1974 C1975 1.334 . S
C1975 H1952 0.950 . S
C1975 C1974 1.334 . S
C1975 C1976 1.287 . S
C1976 C1975 1.287 . S
C1976 C1977 1.524 . S
C1976 H1995 0.913 . S
C1977 H1953 0.950 . S
C1977 C1976 1.524 . S
C1977 C1978 1.415 . S
C1978 H1954 0.950 . S
C1978 C1973 1.363 . S
C1978 C1977 1.415 . S
C1979 H1955 0.951 . S
C1979 C1980 1.366 . S
C1979 C1981 1.388 . S
C1980 C1979 1.366 . S
C1980 C1984 1.385 . S
C1981 H1956 0.951 . S
C1981 C1979 1.388 . S
C1981 C1982 1.366 . S
C1982 C1981 1.366 . S
C1982 C1983 1.414 . S
C1982 C1985 1.499 . S
C1983 H1957 0.950 . S
C1983 C1982 1.414 . S
C1983 C1984 1.374 . S
C1984 H1958 0.950 . S
C1984 C1980 1.385 . S
C1984 C1983 1.374 . S
C1985 C1982 1.499 . S
C1985 C1986 1.373 . S
C1985 C1987 1.389 . S
C1986 H1959 0.950 . S
C1986 C1972 1.377 . S
C1986 C1985 1.373 . S
C1987 C1971 1.377 . S
C1987 C1985 1.389 . S
C1987 C1988 1.524 . S
C1988 C1987 1.524 . S
C1988 C1989 1.397 . S
C1988 C1993 1.363 . S
C1989 H1960 0.950 . S
C1989 C1988 1.397 . S
C1989 C1990 1.334 . S
C1990 H1961 0.950 . S
C1990 C1989 1.334 . S
C1990 C1991 1.287 . S
C1991 C1990 1.287 . S
C1991 C1992 1.524 . S
C1991 H1994 0.999 . S
C1992 H1962 0.950 . S
C1992 C1991 1.524 . S
C1992 C1993 1.415 . S
C1993 H1963 0.950 . S
C1993 C1988 1.363 . S
C1993 C1992 1.415 . S
H1994 C1991 0.999 . S
H1995 C1976 0.913 . S
H1996 C2014 0.951 . S
H1997 C2016 0.951 . S
H1998 C2018 0.950 . S
H1999 C2019 0.950 . S
H2000 C2021 0.950 . S
H2001 C2024 0.950 . S
H2002 C2025 0.950 . S
H2003 C2027 0.950 . S
H2004 C2028 0.950 . S
H2005 C2029 0.951 . S
H2006 C2031 0.951 . S
H2007 C2033 0.950 . S
H2008 C2034 0.950 . S
H2009 C2036 0.950 . S
H2010 C2039 0.950 . S
H2011 C2040 0.950 . S
H2012 C2042 0.950 . S
H2013 C2043 0.950 . S
C2014 H1996 0.951 . S
C2014 C2015 1.366 . S
C2014 C2016 1.388 . S
C2015 C2014 1.366 . S
C2015 C2019 1.385 . S
C2016 H1997 0.951 . S
C2016 C2014 1.388 . S
C2016 C2017 1.366 . S
C2017 C2016 1.366 . S
C2017 C2018 1.414 . S
C2017 C2020 1.499 . S
C2018 H1998 0.950 . S
C2018 C2017 1.414 . S
C2018 C2019 1.374 . S
C2019 H1999 0.950 . S
C2019 C2015 1.385 . S
C2019 C2018 1.374 . S
C2020 C2017 1.499 . S
C2020 C2021 1.373 . S
C2020 C2022 1.389 . S
C2021 H2000 0.950 . S
C2021 C2020 1.373 . S
C2021 C2037 1.377 . S
C2022 C2020 1.389 . S
C2022 C2023 1.524 . S
C2022 C2036 1.377 . S
C2023 C2022 1.524 . S
C2023 C2024 1.397 . S
C2023 C2028 1.363 . S
C2024 H2001 0.950 . S
C2024 C2023 1.397 . S
C2024 C2025 1.334 . S
C2025 H2002 0.950 . S
C2025 C2024 1.334 . S
C2025 C2026 1.287 . S
C2026 C2025 1.287 . S
C2026 C2027 1.524 . S
C2026 H2045 0.913 . S
C2027 H2003 0.950 . S
C2027 C2026 1.524 . S
C2027 C2028 1.415 . S
C2028 H2004 0.950 . S
C2028 C2023 1.363 . S
C2028 C2027 1.415 . S
C2029 H2005 0.951 . S
C2029 C2030 1.366 . S
C2029 C2031 1.388 . S
C2030 C2029 1.366 . S
C2030 C2034 1.385 . S
C2031 H2006 0.951 . S
C2031 C2029 1.388 . S
C2031 C2032 1.366 . S
C2032 C2031 1.366 . S
C2032 C2033 1.414 . S
C2032 C2035 1.499 . S
C2033 H2007 0.950 . S
C2033 C2032 1.414 . S
C2033 C2034 1.374 . S
C2034 H2008 0.950 . S
C2034 C2030 1.385 . S
C2034 C2033 1.374 . S
C2035 C2032 1.499 . S
C2035 C2036 1.373 . S
C2035 C2037 1.389 . S
C2036 H2009 0.950 . S
C2036 C2022 1.377 . S
C2036 C2035 1.373 . S
C2037 C2021 1.377 . S
C2037 C2035 1.389 . S
C2037 C2038 1.524 . S
C2038 C2037 1.524 . S
C2038 C2039 1.397 . S
C2038 C2043 1.363 . S
C2039 H2010 0.950 . S
C2039 C2038 1.397 . S
C2039 C2040 1.334 . S
C2040 H2011 0.950 . S
C2040 C2039 1.334 . S
C2040 C2041 1.287 . S
C2041 C2040 1.287 . S
C2041 C2042 1.524 . S
C2041 H2044 0.999 . S
C2042 H2012 0.950 . S
C2042 C2041 1.524 . S
C2042 C2043 1.415 . S
C2043 H2013 0.950 . S
C2043 C2038 1.363 . S
C2043 C2042 1.415 . S
H2044 C2041 0.999 . S
H2045 C2026 0.913 . S
H2046 C2064 0.951 . S
H2047 C2066 0.951 . S
H2048 C2068 0.950 . S
H2049 C2069 0.950 . S
H2050 C2071 0.950 . S
H2051 C2074 0.950 . S
H2052 C2075 0.950 . S
H2053 C2077 0.950 . S
H2054 C2078 0.950 . S
H2055 C2079 0.951 . S
H2056 C2081 0.951 . S
H2057 C2083 0.950 . S
H2058 C2084 0.950 . S
H2059 C2086 0.950 . S
H2060 C2089 0.950 . S
H2061 C2090 0.950 . S
H2062 C2092 0.950 . S
H2063 C2093 0.950 . S
C2064 H2046 0.951 . S
C2064 C2065 1.366 . S
C2064 C2066 1.388 . S
C2065 C2064 1.366 . S
C2065 C2069 1.385 . S
C2066 H2047 0.951 . S
C2066 C2064 1.388 . S
C2066 C2067 1.366 . S
C2067 C2066 1.366 . S
C2067 C2068 1.414 . S
C2067 C2070 1.499 . S
C2068 H2048 0.950 . S
C2068 C2067 1.414 . S
C2068 C2069 1.374 . S
C2069 H2049 0.950 . S
C2069 C2065 1.385 . S
C2069 C2068 1.374 . S
C2070 C2067 1.499 . S
C2070 C2071 1.373 . S
C2070 C2072 1.389 . S
C2071 H2050 0.950 . S
C2071 C2070 1.373 . S
C2071 C2087 1.377 . S
C2072 C2070 1.389 . S
C2072 C2073 1.524 . S
C2072 C2086 1.377 . S
C2073 C2072 1.524 . S
C2073 C2074 1.397 . S
C2073 C2078 1.363 . S
C2074 H2051 0.950 . S
C2074 C2073 1.397 . S
C2074 C2075 1.334 . S
C2075 H2052 0.950 . S
C2075 C2074 1.334 . S
C2075 C2076 1.287 . S
C2076 C2075 1.287 . S
C2076 C2077 1.524 . S
C2076 H2095 0.913 . S
C2077 H2053 0.950 . S
C2077 C2076 1.524 . S
C2077 C2078 1.415 . S
C2078 H2054 0.950 . S
C2078 C2073 1.363 . S
C2078 C2077 1.415 . S
C2079 H2055 0.951 . S
C2079 C2080 1.366 . S
C2079 C2081 1.388 . S
C2080 C2079 1.366 . S
C2080 C2084 1.385 . S
C2081 H2056 0.951 . S
C2081 C2079 1.388 . S
C2081 C2082 1.366 . S
C2082 C2081 1.366 . S
C2082 C2083 1.414 . S
C2082 C2085 1.499 . S
C2083 H2057 0.950 . S
C2083 C2082 1.414 . S
C2083 C2084 1.374 . S
C2084 H2058 0.950 . S
C2084 C2080 1.385 . S
C2084 C2083 1.374 . S
C2085 C2082 1.499 . S
C2085 C2086 1.373 . S
C2085 C2087 1.389 . S
C2086 H2059 0.950 . S
C2086 C2072 1.377 . S
C2086 C2085 1.373 . S
C2087 C2071 1.377 . S
C2087 C2085 1.389 . S
C2087 C2088 1.524 . S
C2088 C2087 1.524 . S
C2088 C2089 1.397 . S
C2088 C2093 1.363 . S
C2089 H2060 0.950 . S
C2089 C2088 1.397 . S
C2089 C2090 1.334 . S
C2090 H2061 0.950 . S
C2090 C2089 1.334 . S
C2090 C2091 1.287 . S
C2091 C2090 1.287 . S
C2091 C2092 1.524 . S
C2091 H2094 0.999 . S
C2092 H2062 0.950 . S
C2092 C2091 1.524 . S
C2092 C2093 1.415 . S
C2093 H2063 0.950 . S
C2093 C2088 1.363 . S
C2093 C2092 1.415 . S
H2094 C2091 0.999 . S
H2095 C2076 0.913 . S
H2096 C2114 0.951 . S
H2097 C2116 0.951 . S
H2098 C2118 0.950 . S
H2099 C2119 0.950 . S
H2100 C2121 0.950 . S
H2101 C2124 0.950 . S
H2102 C2125 0.950 . S
H2103 C2127 0.950 . S
H2104 C2128 0.950 . S
H2105 C2129 0.951 . S
H2106 C2131 0.951 . S
H2107 C2133 0.950 . S
H2108 C2134 0.950 . S
H2109 C2136 0.950 . S
H2110 C2139 0.950 . S
H2111 C2140 0.950 . S
H2112 C2142 0.950 . S
H2113 C2143 0.950 . S
C2114 H2096 0.951 . S
C2114 C2115 1.366 . S
C2114 C2116 1.388 . S
C2115 C2114 1.366 . S
C2115 C2119 1.385 . S
C2116 H2097 0.951 . S
C2116 C2114 1.388 . S
C2116 C2117 1.366 . S
C2117 C2116 1.366 . S
C2117 C2118 1.414 . S
C2117 C2120 1.499 . S
C2118 H2098 0.950 . S
C2118 C2117 1.414 . S
C2118 C2119 1.374 . S
C2119 H2099 0.950 . S
C2119 C2115 1.385 . S
C2119 C2118 1.374 . S
C2120 C2117 1.499 . S
C2120 C2121 1.373 . S
C2120 C2122 1.389 . S
C2121 H2100 0.950 . S
C2121 C2120 1.373 . S
C2121 C2137 1.377 . S
C2122 C2120 1.389 . S
C2122 C2123 1.524 . S
C2122 C2136 1.377 . S
C2123 C2122 1.524 . S
C2123 C2124 1.397 . S
C2123 C2128 1.363 . S
C2124 H2101 0.950 . S
C2124 C2123 1.397 . S
C2124 C2125 1.334 . S
C2125 H2102 0.950 . S
C2125 C2124 1.334 . S
C2125 C2126 1.287 . S
C2126 C2125 1.287 . S
C2126 C2127 1.524 . S
C2126 H2145 0.913 . S
C2127 H2103 0.950 . S
C2127 C2126 1.524 . S
C2127 C2128 1.415 . S
C2128 H2104 0.950 . S
C2128 C2123 1.363 . S
C2128 C2127 1.415 . S
C2129 H2105 0.951 . S
C2129 C2130 1.366 . S
C2129 C2131 1.388 . S
C2130 C2129 1.366 . S
C2130 C2134 1.385 . S
C2131 H2106 0.951 . S
C2131 C2129 1.388 . S
C2131 C2132 1.366 . S
C2132 C2131 1.366 . S
C2132 C2133 1.414 . S
C2132 C2135 1.499 . S
C2133 H2107 0.950 . S
C2133 C2132 1.414 . S
C2133 C2134 1.374 . S
C2134 H2108 0.950 . S
C2134 C2130 1.385 . S
C2134 C2133 1.374 . S
C2135 C2132 1.499 . S
C2135 C2136 1.373 . S
C2135 C2137 1.389 . S
C2136 H2109 0.950 . S
C2136 C2122 1.377 . S
C2136 C2135 1.373 . S
C2137 C2121 1.377 . S
C2137 C2135 1.389 . S
C2137 C2138 1.524 . S
C2138 C2137 1.524 . S
C2138 C2139 1.397 . S
C2138 C2143 1.363 . S
C2139 H2110 0.950 . S
C2139 C2138 1.397 . S
C2139 C2140 1.334 . S
C2140 H2111 0.950 . S
C2140 C2139 1.334 . S
C2140 C2141 1.287 . S
C2141 C2140 1.287 . S
C2141 C2142 1.524 . S
C2141 H2144 0.999 . S
C2142 H2112 0.950 . S
C2142 C2141 1.524 . S
C2142 C2143 1.415 . S
C2143 H2113 0.950 . S
C2143 C2138 1.363 . S
C2143 C2142 1.415 . S
H2144 C2141 0.999 . S
H2145 C2126 0.913 . S
H2146 C2164 0.951 . S
H2147 C2166 0.951 . S
H2148 C2168 0.950 . S
H2149 C2169 0.950 . S
H2150 C2171 0.950 . S
H2151 C2174 0.950 . S
H2152 C2175 0.950 . S
H2153 C2177 0.950 . S
H2154 C2178 0.950 . S
H2155 C2179 0.951 . S
H2156 C2181 0.951 . S
H2157 C2183 0.950 . S
H2158 C2184 0.950 . S
H2159 C2186 0.950 . S
H2160 C2189 0.950 . S
H2161 C2190 0.950 . S
H2162 C2192 0.950 . S
H2163 C2193 0.950 . S
C2164 H2146 0.951 . S
C2164 C2165 1.366 . S
C2164 C2166 1.388 . S
C2165 C2164 1.366 . S
C2165 C2169 1.385 . S
C2166 H2147 0.951 . S
C2166 C2164 1.388 . S
C2166 C2167 1.366 . S
C2167 C2166 1.366 . S
C2167 C2168 1.414 . S
C2167 C2170 1.499 . S
C2168 H2148 0.950 . S
C2168 C2167 1.414 . S
C2168 C2169 1.374 . S
C2169 H2149 0.950 . S
C2169 C2165 1.385 . S
C2169 C2168 1.374 . S
C2170 C2167 1.499 . S
C2170 C2171 1.373 . S
C2170 C2172 1.389 . S
C2171 H2150 0.950 . S
C2171 C2170 1.373 . S
C2171 C2187 1.377 . S
C2172 C2170 1.389 . S
C2172 C2173 1.524 . S
C2172 C2186 1.377 . S
C2173 C2172 1.524 . S
C2173 C2174 1.397 . S
C2173 C2178 1.363 . S
C2174 H2151 0.950 . S
C2174 C2173 1.397 . S
C2174 C2175 1.334 . S
C2175 H2152 0.950 . S
C2175 C2174 1.334 . S
C2175 C2176 1.287 . S
C2176 C2175 1.287 . S
C2176 C2177 1.524 . S
C2176 H2195 0.913 . S
C2177 H2153 0.950 . S
C2177 C2176 1.524 . S
C2177 C2178 1.415 . S
C2178 H2154 0.950 . S
C2178 C2173 1.363 . S
C2178 C2177 1.415 . S
C2179 H2155 0.951 . S
C2179 C2180 1.366 . S
C2179 C2181 1.388 . S
C2180 C2179 1.366 . S
C2180 C2184 1.385 . S
C2181 H2156 0.951 . S
C2181 C2179 1.388 . S
C2181 C2182 1.366 . S
C2182 C2181 1.366 . S
C2182 C2183 1.414 . S
C2182 C2185 1.499 . S
C2183 H2157 0.950 . S
C2183 C2182 1.414 . S
C2183 C2184 1.374 . S
C2184 H2158 0.950 . S
C2184 C2180 1.385 . S
C2184 C2183 1.374 . S
C2185 C2182 1.499 . S
C2185 C2186 1.373 . S
C2185 C2187 1.389 . S
C2186 H2159 0.950 . S
C2186 C2172 1.377 . S
C2186 C2185 1.373 . S
C2187 C2171 1.377 . S
C2187 C2185 1.389 . S
C2187 C2188 1.524 . S
C2188 C2187 1.524 . S
C2188 C2189 1.397 . S
C2188 C2193 1.363 . S
C2189 H2160 0.950 . S
C2189 C2188 1.397 . S
C2189 C2190 1.334 . S
C2190 H2161 0.950 . S
C2190 C2189 1.334 . S
C2190 C2191 1.287 . S
C2191 C2190 1.287 . S
C2191 C2192 1.524 . S
C2191 H2194 0.999 . S
C2192 H2162 0.950 . S
C2192 C2191 1.524 . S
C2192 C2193 1.415 . S
C2193 H2163 0.950 . S
C2193 C2188 1.363 . S
C2193 C2192 1.415 . S
H2194 C2191 0.999 . S
H2195 C2176 0.913 . S
H2196 C2214 0.951 . S
H2197 C2216 0.951 . S
H2198 C2218 0.950 . S
H2199 C2219 0.950 . S
H2200 C2221 0.950 . S
H2201 C2224 0.950 . S
H2202 C2225 0.950 . S
H2203 C2227 0.950 . S
H2204 C2228 0.950 . S
H2205 C2229 0.951 . S
H2206 C2231 0.951 . S
H2207 C2233 0.950 . S
H2208 C2234 0.950 . S
H2209 C2236 0.950 . S
H2210 C2239 0.950 . S
H2211 C2240 0.950 . S
H2212 C2242 0.950 . S
H2213 C2243 0.950 . S
C2214 H2196 0.951 . S
C2214 C2215 1.366 . S
C2214 C2216 1.388 . S
C2215 C2214 1.366 . S
C2215 C2219 1.385 . S
C2216 H2197 0.951 . S
C2216 C2214 1.388 . S
C2216 C2217 1.366 . S
C2217 C2216 1.366 . S
C2217 C2218 1.414 . S
C2217 C2220 1.499 . S
C2218 H2198 0.950 . S
C2218 C2217 1.414 . S
C2218 C2219 1.374 . S
C2219 H2199 0.950 . S
C2219 C2215 1.385 . S
C2219 C2218 1.374 . S
C2220 C2217 1.499 . S
C2220 C2221 1.373 . S
C2220 C2222 1.389 . S
C2221 H2200 0.950 . S
C2221 C2220 1.373 . S
C2221 C2237 1.377 . S
C2222 C2220 1.389 . S
C2222 C2223 1.524 . S
C2222 C2236 1.377 . S
C2223 C2222 1.524 . S
C2223 C2224 1.397 . S
C2223 C2228 1.363 . S
C2224 H2201 0.950 . S
C2224 C2223 1.397 . S
C2224 C2225 1.334 . S
C2225 H2202 0.950 . S
C2225 C2224 1.334 . S
C2225 C2226 1.287 . S
C2226 C2225 1.287 . S
C2226 C2227 1.524 . S
C2226 H2245 0.913 . S
C2227 H2203 0.950 . S
C2227 C2226 1.524 . S
C2227 C2228 1.415 . S
C2228 H2204 0.950 . S
C2228 C2223 1.363 . S
C2228 C2227 1.415 . S
C2229 H2205 0.951 . S
C2229 C2230 1.366 . S
C2229 C2231 1.388 . S
C2230 C2229 1.366 . S
C2230 C2234 1.385 . S
C2231 H2206 0.951 . S
C2231 C2229 1.388 . S
C2231 C2232 1.366 . S
C2232 C2231 1.366 . S
C2232 C2233 1.414 . S
C2232 C2235 1.499 . S
C2233 H2207 0.950 . S
C2233 C2232 1.414 . S
C2233 C2234 1.374 . S
C2234 H2208 0.950 . S
C2234 C2230 1.385 . S
C2234 C2233 1.374 . S
C2235 C2232 1.499 . S
C2235 C2236 1.373 . S
C2235 C2237 1.389 . S
C2236 H2209 0.950 . S
C2236 C2222 1.377 . S
C2236 C2235 1.373 . S
C2237 C2221 1.377 . S
C2237 C2235 1.389 . S
C2237 C2238 1.524 . S
C2238 C2237 1.524 . S
C2238 C2239 1.397 . S
C2238 C2243 1.363 . S
C2239 H2210 0.950 . S
C2239 C2238 1.397 . S
C2239 C2240 1.334 . S
C2240 H2211 0.950 . S
C2240 C2239 1.334 . S
C2240 C2241 1.287 . S
C2241 C2240 1.287 . S
C2241 C2242 1.524 . S
C2241 H2244 0.999 . S
C2242 H2212 0.950 . S
C2242 C2241 1.524 . S
C2242 C2243 1.415 . S
C2243 H2213 0.950 . S
C2243 C2238 1.363 . S
C2243 C2242 1.415 . S
H2244 C2241 0.999 . S
H2245 C2226 0.913 . S
H2246 C2264 0.951 . S
H2247 C2266 0.951 . S
H2248 C2268 0.950 . S
H2249 C2269 0.950 . S
H2250 C2271 0.950 . S
H2251 C2274 0.950 . S
H2252 C2275 0.950 . S
H2253 C2277 0.950 . S
H2254 C2278 0.950 . S
H2255 C2279 0.951 . S
H2256 C2281 0.951 . S
H2257 C2283 0.950 . S
H2258 C2284 0.950 . S
H2259 C2286 0.950 . S
H2260 C2289 0.950 . S
H2261 C2290 0.950 . S
H2262 C2292 0.950 . S
H2263 C2293 0.950 . S
C2264 H2246 0.951 . S
C2264 C2265 1.366 . S
C2264 C2266 1.388 . S
C2265 C2264 1.366 . S
C2265 C2269 1.385 . S
C2266 H2247 0.951 . S
C2266 C2264 1.388 . S
C2266 C2267 1.366 . S
C2267 C2266 1.366 . S
C2267 C2268 1.414 . S
C2267 C2270 1.499 . S
C2268 H2248 0.950 . S
C2268 C2267 1.414 . S
C2268 C2269 1.374 . S
C2269 H2249 0.950 . S
C2269 C2265 1.385 . S
C2269 C2268 1.374 . S
C2270 C2267 1.499 . S
C2270 C2271 1.373 . S
C2270 C2272 1.389 . S
C2271 H2250 0.950 . S
C2271 C2270 1.373 . S
C2271 C2287 1.377 . S
C2272 C2270 1.389 . S
C2272 C2273 1.524 . S
C2272 C2286 1.377 . S
C2273 C2272 1.524 . S
C2273 C2274 1.397 . S
C2273 C2278 1.363 . S
C2274 H2251 0.950 . S
C2274 C2273 1.397 . S
C2274 C2275 1.334 . S
C2275 H2252 0.950 . S
C2275 C2274 1.334 . S
C2275 C2276 1.287 . S
C2276 C2275 1.287 . S
C2276 C2277 1.524 . S
C2276 H2295 0.913 . S
C2277 H2253 0.950 . S
C2277 C2276 1.524 . S
C2277 C2278 1.415 . S
C2278 H2254 0.950 . S
C2278 C2273 1.363 . S
C2278 C2277 1.415 . S
C2279 H2255 0.951 . S
C2279 C2280 1.366 . S
C2279 C2281 1.388 . S
C2280 C2279 1.366 . S
C2280 C2284 1.385 . S
C2281 H2256 0.951 . S
C2281 C2279 1.388 . S
C2281 C2282 1.366 . S
C2282 C2281 1.366 . S
C2282 C2283 1.414 . S
C2282 C2285 1.499 . S
C2283 H2257 0.950 . S
C2283 C2282 1.414 . S
C2283 C2284 1.374 . S
C2284 H2258 0.950 . S
C2284 C2280 1.385 . S
C2284 C2283 1.374 . S
C2285 C2282 1.499 . S
C2285 C2286 1.373 . S
C2285 C2287 1.389 . S
C2286 H2259 0.950 . S
C2286 C2272 1.377 . S
C2286 C2285 1.373 . S
C2287 C2271 1.377 . S
C2287 C2285 1.389 . S
C2287 C2288 1.524 . S
C2288 C2287 1.524 . S
C2288 C2289 1.397 . S
C2288 C2293 1.363 . S
C2289 H2260 0.950 . S
C2289 C2288 1.397 . S
C2289 C2290 1.334 . S
C2290 H2261 0.950 . S
C2290 C2289 1.334 . S
C2290 C2291 1.287 . S
C2291 C2290 1.287 . S
C2291 C2292 1.524 . S
C2291 H2294 0.999 . S
C2292 H2262 0.950 . S
C2292 C2291 1.524 . S
C2292 C2293 1.415 . S
C2293 H2263 0.950 . S
C2293 C2288 1.363 . S
C2293 C2292 1.415 . S
H2294 C2291 0.999 . S
H2295 C2276 0.913 . S
H2296 C2314 0.951 . S
H2297 C2316 0.951 . S
H2298 C2318 0.950 . S
H2299 C2319 0.950 . S
H2300 C2321 0.950 . S
H2301 C2324 0.950 . S
H2302 C2325 0.950 . S
H2303 C2327 0.950 . S
H2304 C2328 0.950 . S
H2305 C2329 0.951 . S
H2306 C2331 0.951 . S
H2307 C2333 0.950 . S
H2308 C2334 0.950 . S
H2309 C2336 0.950 . S
H2310 C2339 0.950 . S
H2311 C2340 0.950 . S
H2312 C2342 0.950 . S
H2313 C2343 0.950 . S
C2314 H2296 0.951 . S
C2314 C2315 1.366 . S
C2314 C2316 1.388 . S
C2315 C2314 1.366 . S
C2315 C2319 1.385 . S
C2316 H2297 0.951 . S
C2316 C2314 1.388 . S
C2316 C2317 1.366 . S
C2317 C2316 1.366 . S
C2317 C2318 1.414 . S
C2317 C2320 1.499 . S
C2318 H2298 0.950 . S
C2318 C2317 1.414 . S
C2318 C2319 1.374 . S
C2319 H2299 0.950 . S
C2319 C2315 1.385 . S
C2319 C2318 1.374 . S
C2320 C2317 1.499 . S
C2320 C2321 1.373 . S
C2320 C2322 1.389 . S
C2321 H2300 0.950 . S
C2321 C2320 1.373 . S
C2321 C2337 1.377 . S
C2322 C2320 1.389 . S
C2322 C2323 1.524 . S
C2322 C2336 1.377 . S
C2323 C2322 1.524 . S
C2323 C2324 1.397 . S
C2323 C2328 1.363 . S
C2324 H2301 0.950 . S
C2324 C2323 1.397 . S
C2324 C2325 1.334 . S
C2325 H2302 0.950 . S
C2325 C2324 1.334 . S
C2325 C2326 1.287 . S
C2326 C2325 1.287 . S
C2326 C2327 1.524 . S
C2326 H2345 0.913 . S
C2327 H2303 0.950 . S
C2327 C2326 1.524 . S
C2327 C2328 1.415 . S
C2328 H2304 0.950 . S
C2328 C2323 1.363 . S
C2328 C2327 1.415 . S
C2329 H2305 0.951 . S
C2329 C2330 1.366 . S
C2329 C2331 1.388 . S
C2330 C2329 1.366 . S
C2330 C2334 1.385 . S
C2331 H2306 0.951 . S
C2331 C2329 1.388 . S
C2331 C2332 1.366 . S
C2332 C2331 1.366 . S
C2332 C2333 1.414 . S
C2332 C2335 1.499 . S
C2333 H2307 0.950 . S
C2333 C2332 1.414 . S
C2333 C2334 1.374 . S
C2334 H2308 0.950 . S
C2334 C2330 1.385 . S
C2334 C2333 1.374 . S
C2335 C2332 1.499 . S
C2335 C2336 1.373 . S
C2335 C2337 1.389 . S
C2336 H2309 0.950 . S
C2336 C2322 1.377 . S
C2336 C2335 1.373 . S
C2337 C2321 1.377 . S
C2337 C2335 1.389 . S
C2337 C2338 1.524 . S
C2338 C2337 1.524 . S
C2338 C2339 1.397 . S
C2338 C2343 1.363 . S
C2339 H2310 0.950 . S
C2339 C2338 1.397 . S
C2339 C2340 1.334 . S
C2340 H2311 0.950 . S
C2340 C2339 1.334 . S
C2340 C2341 1.287 . S
C2341 C2340 1.287 . S
C2341 C2342 1.524 . S
C2341 H2344 0.999 . S
C2342 H2312 0.950 . S
C2342 C2341 1.524 . S
C2342 C2343 1.415 . S
C2343 H2313 0.950 . S
C2343 C2338 1.363 . S
C2343 C2342 1.415 . S
H2344 C2341 0.999 . S
H2345 C2326 0.913 . S
H2346 C2364 0.951 . S
H2347 C2366 0.951 . S
H2348 C2368 0.950 . S
H2349 C2369 0.950 . S
H2350 C2371 0.950 . S
H2351 C2374 0.950 . S
H2352 C2375 0.950 . S
H2353 C2377 0.950 . S
H2354 C2378 0.950 . S
H2355 C2379 0.951 . S
H2356 C2381 0.951 . S
H2357 C2383 0.950 . S
H2358 C2384 0.950 . S
H2359 C2386 0.950 . S
H2360 C2389 0.950 . S
H2361 C2390 0.950 . S
H2362 C2392 0.950 . S
H2363 C2393 0.950 . S
C2364 H2346 0.951 . S
C2364 C2365 1.366 . S
C2364 C2366 1.388 . S
C2365 C2364 1.366 . S
C2365 C2369 1.385 . S
C2366 H2347 0.951 . S
C2366 C2364 1.388 . S
C2366 C2367 1.366 . S
C2367 C2366 1.366 . S
C2367 C2368 1.414 . S
C2367 C2370 1.499 . S
C2368 H2348 0.950 . S
C2368 C2367 1.414 . S
C2368 C2369 1.374 . S
C2369 H2349 0.950 . S
C2369 C2365 1.385 . S
C2369 C2368 1.374 . S
C2370 C2367 1.499 . S
C2370 C2371 1.373 . S
C2370 C2372 1.389 . S
C2371 H2350 0.950 . S
C2371 C2370 1.373 . S
C2371 C2387 1.377 . S
C2372 C2370 1.389 . S
C2372 C2373 1.524 . S
C2372 C2386 1.377 . S
C2373 C2372 1.524 . S
C2373 C2374 1.397 . S
C2373 C2378 1.363 . S
C2374 H2351 0.950 . S
C2374 C2373 1.397 . S
C2374 C2375 1.334 . S
C2375 H2352 0.950 . S
C2375 C2374 1.334 . S
C2375 C2376 1.287 . S
C2376 C2375 1.287 . S
C2376 C2377 1.524 . S
C2376 H2395 0.913 . S
C2377 H2353 0.950 . S
C2377 C2376 1.524 . S
C2377 C2378 1.415 . S
C2378 H2354 0.950 . S
C2378 C2373 1.363 . S
C2378 C2377 1.415 . S
C2379 H2355 0.951 . S
C2379 C2380 1.366 . S
C2379 C2381 1.388 . S
C2380 C2379 1.366 . S
C2380 C2384 1.385 . S
C2381 H2356 0.951 . S
C2381 C2379 1.388 . S
C2381 C2382 1.366 . S
C2382 C2381 1.366 . S
C2382 C2383 1.414 . S
C2382 C2385 1.499 . S
C2383 H2357 0.950 . S
C2383 C2382 1.414 . S
C2383 C2384 1.374 . S
C2384 H2358 0.950 . S
C2384 C2380 1.385 . S
C2384 C2383 1.374 . S
C2385 C2382 1.499 . S
C2385 C2386 1.373 . S
C2385 C2387 1.389 . S
C2386 H2359 0.950 . S
C2386 C2372 1.377 . S
C2386 C2385 1.373 . S
C2387 C2371 1.377 . S
C2387 C2385 1.389 . S
C2387 C2388 1.524 . S
C2388 C2387 1.524 . S
C2388 C2389 1.397 . S
C2388 C2393 1.363 . S
C2389 H2360 0.950 . S
C2389 C2388 1.397 . S
C2389 C2390 1.334 . S
C2390 H2361 0.950 . S
C2390 C2389 1.334 . S
C2390 C2391 1.287 . S
C2391 C2390 1.287 . S
C2391 C2392 1.524 . S
C2391 H2394 0.999 . S
C2392 H2362 0.950 . S
C2392 C2391 1.524 . S
C2392 C2393 1.415 . S
C2393 H2363 0.950 . S
C2393 C2388 1.363 . S
C2393 C2392 1.415 . S
H2394 C2391 0.999 . S
H2395 C2376 0.913 . S
H2396 C2414 0.951 . S
H2397 C2416 0.951 . S
H2398 C2418 0.950 . S
H2399 C2419 0.950 . S
H2400 C2421 0.950 . S
H2401 C2424 0.950 . S
H2402 C2425 0.950 . S
H2403 C2427 0.950 . S
H2404 C2428 0.950 . S
H2405 C2429 0.951 . S
H2406 C2431 0.951 . S
H2407 C2433 0.950 . S
H2408 C2434 0.950 . S
H2409 C2436 0.950 . S
H2410 C2439 0.950 . S
H2411 C2440 0.950 . S
H2412 C2442 0.950 . S
H2413 C2443 0.950 . S
C2414 H2396 0.951 . S
C2414 C2415 1.366 . S
C2414 C2416 1.388 . S
C2415 C2414 1.366 . S
C2415 C2419 1.385 . S
C2416 H2397 0.951 . S
C2416 C2414 1.388 . S
C2416 C2417 1.366 . S
C2417 C2416 1.366 . S
C2417 C2418 1.414 . S
C2417 C2420 1.499 . S
C2418 H2398 0.950 . S
C2418 C2417 1.414 . S
C2418 C2419 1.374 . S
C2419 H2399 0.950 . S
C2419 C2415 1.385 . S
C2419 C2418 1.374 . S
C2420 C2417 1.499 . S
C2420 C2421 1.373 . S
C2420 C2422 1.389 . S
C2421 H2400 0.950 . S
C2421 C2420 1.373 . S
C2421 C2437 1.377 . S
C2422 C2420 1.389 . S
C2422 C2423 1.524 . S
C2422 C2436 1.377 . S
C2423 C2422 1.524 . S
C2423 C2424 1.397 . S
C2423 C2428 1.363 . S
C2424 H2401 0.950 . S
C2424 C2423 1.397 . S
C2424 C2425 1.334 . S
C2425 H2402 0.950 . S
C2425 C2424 1.334 . S
C2425 C2426 1.287 . S
C2426 C2425 1.287 . S
C2426 C2427 1.524 . S
C2426 H2445 0.913 . S
C2427 H2403 0.950 . S
C2427 C2426 1.524 . S
C2427 C2428 1.415 . S
C2428 H2404 0.950 . S
C2428 C2423 1.363 . S
C2428 C2427 1.415 . S
C2429 H2405 0.951 . S
C2429 C2430 1.366 . S
C2429 C2431 1.388 . S
C2430 C2429 1.366 . S
C2430 C2434 1.385 . S
C2431 H2406 0.951 . S
C2431 C2429 1.388 . S
C2431 C2432 1.366 . S
C2432 C2431 1.366 . S
C2432 C2433 1.414 . S
C2432 C2435 1.499 . S
C2433 H2407 0.950 . S
C2433 C2432 1.414 . S
C2433 C2434 1.374 . S
C2434 H2408 0.950 . S
C2434 C2430 1.385 . S
C2434 C2433 1.374 . S
C2435 C2432 1.499 . S
C2435 C2436 1.373 . S
C2435 C2437 1.389 . S
C2436 H2409 0.950 . S
C2436 C2422 1.377 . S
C2436 C2435 1.373 . S
C2437 C2421 1.377 . S
C2437 C2435 1.389 . S
C2437 C2438 1.524 . S
C2438 C2437 1.524 . S
C2438 C2439 1.397 . S
C2438 C2443 1.363 . S
C2439 H2410 0.950 . S
C2439 C2438 1.397 . S
C2439 C2440 1.334 . S
C2440 H2411 0.950 . S
C2440 C2439 1.334 . S
C2440 C2441 1.287 . S
C2441 C2440 1.287 . S
C2441 C2442 1.524 . S
C2441 H2444 0.999 . S
C2442 H2412 0.950 . S
C2442 C2441 1.524 . S
C2442 C2443 1.415 . S
C2443 H2413 0.950 . S
C2443 C2438 1.363 . S
C2443 C2442 1.415 . S
H2444 C2441 0.999 . S
H2445 C2426 0.913 . S
H2446 C2464 0.951 . S
H2447 C2466 0.951 . S
H2448 C2468 0.950 . S
H2449 C2469 0.950 . S
H2450 C2471 0.950 . S
H2451 C2474 0.950 . S
H2452 C2475 0.950 . S
H2453 C2477 0.950 . S
H2454 C2478 0.950 . S
H2455 C2479 0.951 . S
H2456 C2481 0.951 . S
H2457 C2483 0.950 . S
H2458 C2484 0.950 . S
H2459 C2486 0.950 . S
H2460 C2489 0.950 . S
H2461 C2490 0.950 . S
H2462 C2492 0.950 . S
H2463 C2493 0.950 . S
C2464 H2446 0.951 . S
C2464 C2465 1.366 . S
C2464 C2466 1.388 . S
C2465 C2464 1.366 . S
C2465 C2469 1.385 . S
C2466 H2447 0.951 . S
C2466 C2464 1.388 . S
C2466 C2467 1.366 . S
C2467 C2466 1.366 . S
C2467 C2468 1.414 . S
C2467 C2470 1.499 . S
C2468 H2448 0.950 . S
C2468 C2467 1.414 . S
C2468 C2469 1.374 . S
C2469 H2449 0.950 . S
C2469 C2465 1.385 . S
C2469 C2468 1.374 . S
C2470 C2467 1.499 . S
C2470 C2471 1.373 . S
C2470 C2472 1.389 . S
C2471 H2450 0.950 . S
C2471 C2470 1.373 . S
C2471 C2487 1.377 . S
C2472 C2470 1.389 . S
C2472 C2473 1.524 . S
C2472 C2486 1.377 . S
C2473 C2472 1.524 . S
C2473 C2474 1.397 . S
C2473 C2478 1.363 . S
C2474 H2451 0.950 . S
C2474 C2473 1.397 . S
C2474 C2475 1.334 . S
C2475 H2452 0.950 . S
C2475 C2474 1.334 . S
C2475 C2476 1.287 . S
C2476 C2475 1.287 . S
C2476 C2477 1.524 . S
C2476 H2495 0.913 . S
C2477 H2453 0.950 . S
C2477 C2476 1.524 . S
C2477 C2478 1.415 . S
C2478 H2454 0.950 . S
C2478 C2473 1.363 . S
C2478 C2477 1.415 . S
C2479 H2455 0.951 . S
C2479 C2480 1.366 . S
C2479 C2481 1.388 . S
C2480 C2479 1.366 . S
C2480 C2484 1.385 . S
C2481 H2456 0.951 . S
C2481 C2479 1.388 . S
C2481 C2482 1.366 . S
C2482 C2481 1.366 . S
C2482 C2483 1.414 . S
C2482 C2485 1.499 . S
C2483 H2457 0.950 . S
C2483 C2482 1.414 . S
C2483 C2484 1.374 . S
C2484 H2458 0.950 . S
C2484 C2480 1.385 . S
C2484 C2483 1.374 . S
C2485 C2482 1.499 . S
C2485 C2486 1.373 . S
C2485 C2487 1.389 . S
C2486 H2459 0.950 . S
C2486 C2472 1.377 . S
C2486 C2485 1.373 . S
C2487 C2471 1.377 . S
C2487 C2485 1.389 . S
C2487 C2488 1.524 . S
C2488 C2487 1.524 . S
C2488 C2489 1.397 . S
C2488 C2493 1.363 . S
C2489 H2460 0.950 . S
C2489 C2488 1.397 . S
C2489 C2490 1.334 . S
C2490 H2461 0.950 . S
C2490 C2489 1.334 . S
C2490 C2491 1.287 . S
C2491 C2490 1.287 . S
C2491 C2492 1.524 . S
C2491 H2494 0.999 . S
C2492 H2462 0.950 . S
C2492 C2491 1.524 . S
C2492 C2493 1.415 . S
C2493 H2463 0.950 . S
C2493 C2488 1.363 . S
C2493 C2492 1.415 . S
H2494 C2491 0.999 . S
H2495 C2476 0.913 . S
H2496 C2514 0.951 . S
H2497 C2516 0.951 . S
H2498 C2518 0.950 . S
H2499 C2519 0.950 . S
H2500 C2521 0.950 . S
H2501 C2524 0.950 . S
H2502 C2525 0.950 . S
H2503 C2527 0.950 . S
H2504 C2528 0.950 . S
H2505 C2529 0.951 . S
H2506 C2531 0.951 . S
H2507 C2533 0.950 . S
H2508 C2534 0.950 . S
H2509 C2536 0.950 . S
H2510 C2539 0.950 . S
H2511 C2540 0.950 . S
H2512 C2542 0.950 . S
H2513 C2543 0.950 . S
C2514 H2496 0.951 . S
C2514 C2515 1.366 . S
C2514 C2516 1.388 . S
C2515 C2514 1.366 . S
C2515 C2519 1.385 . S
C2516 H2497 0.951 . S
C2516 C2514 1.388 . S
C2516 C2517 1.366 . S
C2517 C2516 1.366 . S
C2517 C2518 1.414 . S
C2517 C2520 1.499 . S
C2518 H2498 0.950 . S
C2518 C2517 1.414 . S
C2518 C2519 1.374 . S
C2519 H2499 0.950 . S
C2519 C2515 1.385 . S
C2519 C2518 1.374 . S
C2520 C2517 1.499 . S
C2520 C2521 1.373 . S
C2520 C2522 1.389 . S
C2521 H2500 0.950 . S
C2521 C2520 1.373 . S
C2521 C2537 1.377 . S
C2522 C2520 1.389 . S
C2522 C2523 1.524 . S
C2522 C2536 1.377 . S
C2523 C2522 1.524 . S
C2523 C2524 1.397 . S
C2523 C2528 1.363 . S
C2524 H2501 0.950 . S
C2524 C2523 1.397 . S
C2524 C2525 1.334 . S
C2525 H2502 0.950 . S
C2525 C2524 1.334 . S
C2525 C2526 1.287 . S
C2526 C2525 1.287 . S
C2526 C2527 1.524 . S
C2526 H2545 0.913 . S
C2527 H2503 0.950 . S
C2527 C2526 1.524 . S
C2527 C2528 1.415 . S
C2528 H2504 0.950 . S
C2528 C2523 1.363 . S
C2528 C2527 1.415 . S
C2529 H2505 0.951 . S
C2529 C2530 1.366 . S
C2529 C2531 1.388 . S
C2530 C2529 1.366 . S
C2530 C2534 1.385 . S
C2531 H2506 0.951 . S
C2531 C2529 1.388 . S
C2531 C2532 1.366 . S
C2532 C2531 1.366 . S
C2532 C2533 1.414 . S
C2532 C2535 1.499 . S
C2533 H2507 0.950 . S
C2533 C2532 1.414 . S
C2533 C2534 1.374 . S
C2534 H2508 0.950 . S
C2534 C2530 1.385 . S
C2534 C2533 1.374 . S
C2535 C2532 1.499 . S
C2535 C2536 1.373 . S
C2535 C2537 1.389 . S
C2536 H2509 0.950 . S
C2536 C2522 1.377 . S
C2536 C2535 1.373 . S
C2537 C2521 1.377 . S
C2537 C2535 1.389 . S
C2537 C2538 1.524 . S
C2538 C2537 1.524 . S
C2538 C2539 1.397 . S
C2538 C2543 1.363 . S
C2539 H2510 0.950 . S
C2539 C2538 1.397 . S
C2539 C2540 1.334 . S
C2540 H2511 0.950 . S
C2540 C2539 1.334 . S
C2540 C2541 1.287 . S
C2541 C2540 1.287 . S
C2541 C2542 1.524 . S
C2541 H2544 0.999 . S
C2542 H2512 0.950 . S
C2542 C2541 1.524 . S
C2542 C2543 1.415 . S
C2543 H2513 0.950 . S
C2543 C2538 1.363 . S
C2543 C2542 1.415 . S
H2544 C2541 0.999 . S
H2545 C2526 0.913 . S
H2546 C2564 0.951 . S
H2547 C2566 0.951 . S
H2548 C2568 0.950 . S
H2549 C2569 0.950 . S
H2550 C2571 0.950 . S
H2551 C2574 0.950 . S
H2552 C2575 0.950 . S
H2553 C2577 0.950 . S
H2554 C2578 0.950 . S
H2555 C2579 0.951 . S
H2556 C2581 0.951 . S
H2557 C2583 0.950 . S
H2558 C2584 0.950 . S
H2559 C2586 0.950 . S
H2560 C2589 0.950 . S
H2561 C2590 0.950 . S
H2562 C2592 0.950 . S
H2563 C2593 0.950 . S
C2564 H2546 0.951 . S
C2564 C2565 1.366 . S
C2564 C2566 1.388 . S
C2565 C2564 1.366 . S
C2565 C2569 1.385 . S
C2566 H2547 0.951 . S
C2566 C2564 1.388 . S
C2566 C2567 1.366 . S
C2567 C2566 1.366 . S
C2567 C2568 1.414 . S
C2567 C2570 1.499 . S
C2568 H2548 0.950 . S
C2568 C2567 1.414 . S
C2568 C2569 1.374 . S
C2569 H2549 0.950 . S
C2569 C2565 1.385 . S
C2569 C2568 1.374 . S
C2570 C2567 1.499 . S
C2570 C2571 1.373 . S
C2570 C2572 1.389 . S
C2571 H2550 0.950 . S
C2571 C2570 1.373 . S
C2571 C2587 1.377 . S
C2572 C2570 1.389 . S
C2572 C2573 1.524 . S
C2572 C2586 1.377 . S
C2573 C2572 1.524 . S
C2573 C2574 1.397 . S
C2573 C2578 1.363 . S
C2574 H2551 0.950 . S
C2574 C2573 1.397 . S
C2574 C2575 1.334 . S
C2575 H2552 0.950 . S
C2575 C2574 1.334 . S
C2575 C2576 1.287 . S
C2576 C2575 1.287 . S
C2576 C2577 1.524 . S
C2576 H2595 0.913 . S
C2577 H2553 0.950 . S
C2577 C2576 1.524 . S
C2577 C2578 1.415 . S
C2578 H2554 0.950 . S
C2578 C2573 1.363 . S
C2578 C2577 1.415 . S
C2579 H2555 0.951 . S
C2579 C2580 1.366 . S
C2579 C2581 1.388 . S
C2580 C2579 1.366 . S
C2580 C2584 1.385 . S
C2581 H2556 0.951 . S
C2581 C2579 1.388 . S
C2581 C2582 1.366 . S
C2582 C2581 1.366 . S
C2582 C2583 1.414 . S
C2582 C2585 1.499 . S
C2583 H2557 0.950 . S
C2583 C2582 1.414 . S
C2583 C2584 1.374 . S
C2584 H2558 0.950 . S
C2584 C2580 1.385 . S
C2584 C2583 1.374 . S
C2585 C2582 1.499 . S
C2585 C2586 1.373 . S
C2585 C2587 1.389 . S
C2586 H2559 0.950 . S
C2586 C2572 1.377 . S
C2586 C2585 1.373 . S
C2587 C2571 1.377 . S
C2587 C2585 1.389 . S
C2587 C2588 1.524 . S
C2588 C2587 1.524 . S
C2588 C2589 1.397 . S
C2588 C2593 1.363 . S
C2589 H2560 0.950 . S
C2589 C2588 1.397 . S
C2589 C2590 1.334 . S
C2590 H2561 0.950 . S
C2590 C2589 1.334 . S
C2590 C2591 1.287 . S
C2591 C2590 1.287 . S
C2591 C2592 1.524 . S
C2591 H2594 0.999 . S
C2592 H2562 0.950 . S
C2592 C2591 1.524 . S
C2592 C2593 1.415 . S
C2593 H2563 0.950 . S
C2593 C2588 1.363 . S
C2593 C2592 1.415 . S
H2594 C2591 0.999 . S
H2595 C2576 0.913 . S
H2596 C2614 0.951 . S
H2597 C2616 0.951 . S
H2598 C2618 0.950 . S
H2599 C2619 0.950 . S
H2600 C2621 0.950 . S
H2601 C2624 0.950 . S
H2602 C2625 0.950 . S
H2603 C2627 0.950 . S
H2604 C2628 0.950 . S
H2605 C2629 0.951 . S
H2606 C2631 0.951 . S
H2607 C2633 0.950 . S
H2608 C2634 0.950 . S
H2609 C2636 0.950 . S
H2610 C2639 0.950 . S
H2611 C2640 0.950 . S
H2612 C2642 0.950 . S
H2613 C2643 0.950 . S
C2614 H2596 0.951 . S
C2614 C2615 1.366 . S
C2614 C2616 1.388 . S
C2615 C2614 1.366 . S
C2615 C2619 1.385 . S
C2616 H2597 0.951 . S
C2616 C2614 1.388 . S
C2616 C2617 1.366 . S
C2617 C2616 1.366 . S
C2617 C2618 1.414 . S
C2617 C2620 1.499 . S
C2618 H2598 0.950 . S
C2618 C2617 1.414 . S
C2618 C2619 1.374 . S
C2619 H2599 0.950 . S
C2619 C2615 1.385 . S
C2619 C2618 1.374 . S
C2620 C2617 1.499 . S
C2620 C2621 1.373 . S
C2620 C2622 1.389 . S
C2621 H2600 0.950 . S
C2621 C2620 1.373 . S
C2621 C2637 1.377 . S
C2622 C2620 1.389 . S
C2622 C2623 1.524 . S
C2622 C2636 1.377 . S
C2623 C2622 1.524 . S
C2623 C2624 1.397 . S
C2623 C2628 1.363 . S
C2624 H2601 0.950 . S
C2624 C2623 1.397 . S
C2624 C2625 1.334 . S
C2625 H2602 0.950 . S
C2625 C2624 1.334 . S
C2625 C2626 1.287 . S
C2626 C2625 1.287 . S
C2626 C2627 1.524 . S
C2626 H2645 0.913 . S
C2627 H2603 0.950 . S
C2627 C2626 1.524 . S
C2627 C2628 1.415 . S
C2628 H2604 0.950 . S
C2628 C2623 1.363 . S
C2628 C2627 1.415 . S
C2629 H2605 0.951 . S
C2629 C2630 1.366 . S
C2629 C2631 1.388 . S
C2630 C2629 1.366 . S
C2630 C2634 1.385 . S
C2631 H2606 0.951 . S
C2631 C2629 1.388 . S
C2631 C2632 1.366 . S
C2632 C2631 1.366 . S
C2632 C2633 1.414 . S
C2632 C2635 1.499 . S
C2633 H2607 0.950 . S
C2633 C2632 1.414 . S
C2633 C2634 1.374 . S
C2634 H2608 0.950 . S
C2634 C2630 1.385 . S
C2634 C2633 1.374 . S
C2635 C2632 1.499 . S
C2635 C2636 1.373 . S
C2635 C2637 1.389 . S
C2636 H2609 0.950 . S
C2636 C2622 1.377 . S
C2636 C2635 1.373 . S
C2637 C2621 1.377 . S
C2637 C2635 1.389 . S
C2637 C2638 1.524 . S
C2638 C2637 1.524 . S
C2638 C2639 1.397 . S
C2638 C2643 1.363 . S
C2639 H2610 0.950 . S
C2639 C2638 1.397 . S
C2639 C2640 1.334 . S
C2640 H2611 0.950 . S
C2640 C2639 1.334 . S
C2640 C2641 1.287 . S
C2641 C2640 1.287 . S
C2641 C2642 1.524 . S
C2641 H2644 0.999 . S
C2642 H2612 0.950 . S
C2642 C2641 1.524 . S
C2642 C2643 1.415 . S
C2643 H2613 0.950 . S
C2643 C2638 1.363 . S
C2643 C2642 1.415 . S
H2644 C2641 0.999 . S
H2645 C2626 0.913 . S
H2646 C2664 0.951 . S
H2647 C2666 0.951 . S
H2648 C2668 0.950 . S
H2649 C2669 0.950 . S
H2650 C2671 0.950 . S
H2651 C2674 0.950 . S
H2652 C2675 0.950 . S
H2653 C2677 0.950 . S
H2654 C2678 0.950 . S
H2655 C2679 0.951 . S
H2656 C2681 0.951 . S
H2657 C2683 0.950 . S
H2658 C2684 0.950 . S
H2659 C2686 0.950 . S
H2660 C2689 0.950 . S
H2661 C2690 0.950 . S
H2662 C2692 0.950 . S
H2663 C2693 0.950 . S
C2664 H2646 0.951 . S
C2664 C2665 1.366 . S
C2664 C2666 1.388 . S
C2665 C2664 1.366 . S
C2665 C2669 1.385 . S
C2666 H2647 0.951 . S
C2666 C2664 1.388 . S
C2666 C2667 1.366 . S
C2667 C2666 1.366 . S
C2667 C2668 1.414 . S
C2667 C2670 1.499 . S
C2668 H2648 0.950 . S
C2668 C2667 1.414 . S
C2668 C2669 1.374 . S
C2669 H2649 0.950 . S
C2669 C2665 1.385 . S
C2669 C2668 1.374 . S
C2670 C2667 1.499 . S
C2670 C2671 1.373 . S
C2670 C2672 1.389 . S
C2671 H2650 0.950 . S
C2671 C2670 1.373 . S
C2671 C2687 1.377 . S
C2672 C2670 1.389 . S
C2672 C2673 1.524 . S
C2672 C2686 1.377 . S
C2673 C2672 1.524 . S
C2673 C2674 1.397 . S
C2673 C2678 1.363 . S
C2674 H2651 0.950 . S
C2674 C2673 1.397 . S
C2674 C2675 1.334 . S
C2675 H2652 0.950 . S
C2675 C2674 1.334 . S
C2675 C2676 1.287 . S
C2676 C2675 1.287 . S
C2676 C2677 1.524 . S
C2676 H2695 0.913 . S
C2677 H2653 0.950 . S
C2677 C2676 1.524 . S
C2677 C2678 1.415 . S
C2678 H2654 0.950 . S
C2678 C2673 1.363 . S
C2678 C2677 1.415 . S
C2679 H2655 0.951 . S
C2679 C2680 1.366 . S
C2679 C2681 1.388 . S
C2680 C2679 1.366 . S
C2680 C2684 1.385 . S
C2681 H2656 0.951 . S
C2681 C2679 1.388 . S
C2681 C2682 1.366 . S
C2682 C2681 1.366 . S
C2682 C2683 1.414 . S
C2682 C2685 1.499 . S
C2683 H2657 0.950 . S
C2683 C2682 1.414 . S
C2683 C2684 1.374 . S
C2684 H2658 0.950 . S
C2684 C2680 1.385 . S
C2684 C2683 1.374 . S
C2685 C2682 1.499 . S
C2685 C2686 1.373 . S
C2685 C2687 1.389 . S
C2686 H2659 0.950 . S
C2686 C2672 1.377 . S
C2686 C2685 1.373 . S
C2687 C2671 1.377 . S
C2687 C2685 1.389 . S
C2687 C2688 1.524 . S
C2688 C2687 1.524 . S
C2688 C2689 1.397 . S
C2688 C2693 1.363 . S
C2689 H2660 0.950 . S
C2689 C2688 1.397 . S
C2689 C2690 1.334 . S
C2690 H2661 0.950 . S
C2690 C2689 1.334 . S
C2690 C2691 1.287 . S
C2691 C2690 1.287 . S
C2691 C2692 1.524 . S
C2691 H2694 0.999 . S
C2692 H2662 0.950 . S
C2692 C2691 1.524 . S
C2692 C2693 1.415 . S
C2693 H2663 0.950 . S
C2693 C2688 1.363 . S
C2693 C2692 1.415 . S
H2694 C2691 0.999 . S
H2695 C2676 0.913 . S
H2696 C2714 0.951 . S
H2697 C2716 0.951 . S
H2698 C2718 0.950 . S
H2699 C2719 0.950 . S
H2700 C2721 0.950 . S
H2701 C2724 0.950 . S
H2702 C2725 0.950 . S
H2703 C2727 0.950 . S
H2704 C2728 0.950 . S
H2705 C2729 0.951 . S
H2706 C2731 0.951 . S
H2707 C2733 0.950 . S
H2708 C2734 0.950 . S
H2709 C2736 0.950 . S
H2710 C2739 0.950 . S
H2711 C2740 0.950 . S
H2712 C2742 0.950 . S
H2713 C2743 0.950 . S
C2714 H2696 0.951 . S
C2714 C2715 1.366 . S
C2714 C2716 1.388 . S
C2715 C2714 1.366 . S
C2715 C2719 1.385 . S
C2716 H2697 0.951 . S
C2716 C2714 1.388 . S
C2716 C2717 1.366 . S
C2717 C2716 1.366 . S
C2717 C2718 1.414 . S
C2717 C2720 1.499 . S
C2718 H2698 0.950 . S
C2718 C2717 1.414 . S
C2718 C2719 1.374 . S
C2719 H2699 0.950 . S
C2719 C2715 1.385 . S
C2719 C2718 1.374 . S
C2720 C2717 1.499 . S
C2720 C2721 1.373 . S
C2720 C2722 1.389 . S
C2721 H2700 0.950 . S
C2721 C2720 1.373 . S
C2721 C2737 1.377 . S
C2722 C2720 1.389 . S
C2722 C2723 1.524 . S
C2722 C2736 1.377 . S
C2723 C2722 1.524 . S
C2723 C2724 1.397 . S
C2723 C2728 1.363 . S
C2724 H2701 0.950 . S
C2724 C2723 1.397 . S
C2724 C2725 1.334 . S
C2725 H2702 0.950 . S
C2725 C2724 1.334 . S
C2725 C2726 1.287 . S
C2726 C2725 1.287 . S
C2726 C2727 1.524 . S
C2726 H2745 0.913 . S
C2727 H2703 0.950 . S
C2727 C2726 1.524 . S
C2727 C2728 1.415 . S
C2728 H2704 0.950 . S
C2728 C2723 1.363 . S
C2728 C2727 1.415 . S
C2729 H2705 0.951 . S
C2729 C2730 1.366 . S
C2729 C2731 1.388 . S
C2730 C2729 1.366 . S
C2730 C2734 1.385 . S
C2731 H2706 0.951 . S
C2731 C2729 1.388 . S
C2731 C2732 1.366 . S
C2732 C2731 1.366 . S
C2732 C2733 1.414 . S
C2732 C2735 1.499 . S
C2733 H2707 0.950 . S
C2733 C2732 1.414 . S
C2733 C2734 1.374 . S
C2734 H2708 0.950 . S
C2734 C2730 1.385 . S
C2734 C2733 1.374 . S
C2735 C2732 1.499 . S
C2735 C2736 1.373 . S
C2735 C2737 1.389 . S
C2736 H2709 0.950 . S
C2736 C2722 1.377 . S
C2736 C2735 1.373 . S
C2737 C2721 1.377 . S
C2737 C2735 1.389 . S
C2737 C2738 1.524 . S
C2738 C2737 1.524 . S
C2738 C2739 1.397 . S
C2738 C2743 1.363 . S
C2739 H2710 0.950 . S
C2739 C2738 1.397 . S
C2739 C2740 1.334 . S
C2740 H2711 0.950 . S
C2740 C2739 1.334 . S
C2740 C2741 1.287 . S
C2741 C2740 1.287 . S
C2741 C2742 1.524 . S
C2741 H2744 0.999 . S
C2742 H2712 0.950 . S
C2742 C2741 1.524 . S
C2742 C2743 1.415 . S
C2743 H2713 0.950 . S
C2743 C2738 1.363 . S
C2743 C2742 1.415 . S
H2744 C2741 0.999 . S
H2745 C2726 0.913 . S
H2746 C2764 0.951 . S
H2747 C2766 0.951 . S
H2748 C2768 0.950 . S
H2749 C2769 0.950 . S
H2750 C2771 0.950 . S
H2751 C2774 0.950 . S
H2752 C2775 0.950 . S
H2753 C2777 0.950 . S
H2754 C2778 0.950 . S
H2755 C2779 0.951 . S
H2756 C2781 0.951 . S
H2757 C2783 0.950 . S
H2758 C2784 0.950 . S
H2759 C2786 0.950 . S
H2760 C2789 0.950 . S
H2761 C2790 0.950 . S
H2762 C2792 0.950 . S
H2763 C2793 0.950 . S
C2764 H2746 0.951 . S
C2764 C2765 1.366 . S
C2764 C2766 1.388 . S
C2765 C2764 1.366 . S
C2765 C2769 1.385 . S
C2766 H2747 0.951 . S
C2766 C2764 1.388 . S
C2766 C2767 1.366 . S
C2767 C2766 1.366 . S
C2767 C2768 1.414 . S
C2767 C2770 1.499 . S
C2768 H2748 0.950 . S
C2768 C2767 1.414 . S
C2768 C2769 1.374 . S
C2769 H2749 0.950 . S
C2769 C2765 1.385 . S
C2769 C2768 1.374 . S
C2770 C2767 1.499 . S
C2770 C2771 1.373 . S
C2770 C2772 1.389 . S
C2771 H2750 0.950 . S
C2771 C2770 1.373 . S
C2771 C2787 1.377 . S
C2772 C2770 1.389 . S
C2772 C2773 1.524 . S
C2772 C2786 1.377 . S
C2773 C2772 1.524 . S
C2773 C2774 1.397 . S
C2773 C2778 1.363 . S
C2774 H2751 0.950 . S
C2774 C2773 1.397 . S
C2774 C2775 1.334 . S
C2775 H2752 0.950 . S
C2775 C2774 1.334 . S
C2775 C2776 1.287 . S
C2776 C2775 1.287 . S
C2776 C2777 1.524 . S
C2776 H2795 0.913 . S
C2777 H2753 0.950 . S
C2777 C2776 1.524 . S
C2777 C2778 1.415 . S
C2778 H2754 0.950 . S
C2778 C2773 1.363 . S
C2778 C2777 1.415 . S
C2779 H2755 0.951 . S
C2779 C2780 1.366 . S
C2779 C2781 1.388 . S
C2780 C2779 1.366 . S
C2780 C2784 1.385 . S
C2781 H2756 0.951 . S
C2781 C2779 1.388 . S
C2781 C2782 1.366 . S
C2782 C2781 1.366 . S
C2782 C2783 1.414 . S
C2782 C2785 1.499 . S
C2783 H2757 0.950 . S
C2783 C2782 1.414 . S
C2783 C2784 1.374 . S
C2784 H2758 0.950 . S
C2784 C2780 1.385 . S
C2784 C2783 1.374 . S
C2785 C2782 1.499 . S
C2785 C2786 1.373 . S
C2785 C2787 1.389 . S
C2786 H2759 0.950 . S
C2786 C2772 1.377 . S
C2786 C2785 1.373 . S
C2787 C2771 1.377 . S
C2787 C2785 1.389 . S
C2787 C2788 1.524 . S
C2788 C2787 1.524 . S
C2788 C2789 1.397 . S
C2788 C2793 1.363 . S
C2789 H2760 0.950 . S
C2789 C2788 1.397 . S
C2789 C2790 1.334 . S
C2790 H2761 0.950 . S
C2790 C2789 1.334 . S
C2790 C2791 1.287 . S
C2791 C2790 1.287 . S
C2791 C2792 1.524 . S
C2791 H2794 0.999 . S
C2792 H2762 0.950 . S
C2792 C2791 1.524 . S
C2792 C2793 1.415 . S
C2793 H2763 0.950 . S
C2793 C2788 1.363 . S
C2793 C2792 1.415 . S
H2794 C2791 0.999 . S
H2795 C2776 0.913 . S
H2796 C2814 0.951 . S
H2797 C2816 0.951 . S
H2798 C2818 0.950 . S
H2799 C2819 0.950 . S
H2800 C2821 0.950 . S
H2801 C2824 0.950 . S
H2802 C2825 0.950 . S
H2803 C2827 0.950 . S
H2804 C2828 0.950 . S
H2805 C2829 0.951 . S
H2806 C2831 0.951 . S
H2807 C2833 0.950 . S
H2808 C2834 0.950 . S
H2809 C2836 0.950 . S
H2810 C2839 0.950 . S
H2811 C2840 0.950 . S
H2812 C2842 0.950 . S
H2813 C2843 0.950 . S
C2814 H2796 0.951 . S
C2814 C2815 1.366 . S
C2814 C2816 1.388 . S
C2815 C2814 1.366 . S
C2815 C2819 1.385 . S
C2816 H2797 0.951 . S
C2816 C2814 1.388 . S
C2816 C2817 1.366 . S
C2817 C2816 1.366 . S
C2817 C2818 1.414 . S
C2817 C2820 1.499 . S
C2818 H2798 0.950 . S
C2818 C2817 1.414 . S
C2818 C2819 1.374 . S
C2819 H2799 0.950 . S
C2819 C2815 1.385 . S
C2819 C2818 1.374 . S
C2820 C2817 1.499 . S
C2820 C2821 1.373 . S
C2820 C2822 1.389 . S
C2821 H2800 0.950 . S
C2821 C2820 1.373 . S
C2821 C2837 1.377 . S
C2822 C2820 1.389 . S
C2822 C2823 1.524 . S
C2822 C2836 1.377 . S
C2823 C2822 1.524 . S
C2823 C2824 1.397 . S
C2823 C2828 1.363 . S
C2824 H2801 0.950 . S
C2824 C2823 1.397 . S
C2824 C2825 1.334 . S
C2825 H2802 0.950 . S
C2825 C2824 1.334 . S
C2825 C2826 1.287 . S
C2826 C2825 1.287 . S
C2826 C2827 1.524 . S
C2826 H2845 0.913 . S
C2827 H2803 0.950 . S
C2827 C2826 1.524 . S
C2827 C2828 1.415 . S
C2828 H2804 0.950 . S
C2828 C2823 1.363 . S
C2828 C2827 1.415 . S
C2829 H2805 0.951 . S
C2829 C2830 1.366 . S
C2829 C2831 1.388 . S
C2830 C2829 1.366 . S
C2830 C2834 1.385 . S
C2831 H2806 0.951 . S
C2831 C2829 1.388 . S
C2831 C2832 1.366 . S
C2832 C2831 1.366 . S
C2832 C2833 1.414 . S
C2832 C2835 1.499 . S
C2833 H2807 0.950 . S
C2833 C2832 1.414 . S
C2833 C2834 1.374 . S
C2834 H2808 0.950 . S
C2834 C2830 1.385 . S
C2834 C2833 1.374 . S
C2835 C2832 1.499 . S
C2835 C2836 1.373 . S
C2835 C2837 1.389 . S
C2836 H2809 0.950 . S
C2836 C2822 1.377 . S
C2836 C2835 1.373 . S
C2837 C2821 1.377 . S
C2837 C2835 1.389 . S
C2837 C2838 1.524 . S
C2838 C2837 1.524 . S
C2838 C2839 1.397 . S
C2838 C2843 1.363 . S
C2839 H2810 0.950 . S
C2839 C2838 1.397 . S
C2839 C2840 1.334 . S
C2840 H2811 0.950 . S
C2840 C2839 1.334 . S
C2840 C2841 1.287 . S
C2841 C2840 1.287 . S
C2841 C2842 1.524 . S
C2841 H2844 0.999 . S
C2842 H2812 0.950 . S
C2842 C2841 1.524 . S
C2842 C2843 1.415 . S
C2843 H2813 0.950 . S
C2843 C2838 1.363 . S
C2843 C2842 1.415 . S
H2844 C2841 0.999 . S
H2845 C2826 0.913 . S
H2846 C2864 0.951 . S
H2847 C2866 0.951 . S
H2848 C2868 0.950 . S
H2849 C2869 0.950 . S
H2850 C2871 0.950 . S
H2851 C2874 0.950 . S
H2852 C2875 0.950 . S
H2853 C2877 0.950 . S
H2854 C2878 0.950 . S
H2855 C2879 0.951 . S
H2856 C2881 0.951 . S
H2857 C2883 0.950 . S
H2858 C2884 0.950 . S
H2859 C2886 0.950 . S
H2860 C2889 0.950 . S
H2861 C2890 0.950 . S
H2862 C2892 0.950 . S
H2863 C2893 0.950 . S
C2864 H2846 0.951 . S
C2864 C2865 1.366 . S
C2864 C2866 1.388 . S
C2865 C2864 1.366 . S
C2865 C2869 1.385 . S
C2866 H2847 0.951 . S
C2866 C2864 1.388 . S
C2866 C2867 1.366 . S
C2867 C2866 1.366 . S
C2867 C2868 1.414 . S
C2867 C2870 1.499 . S
C2868 H2848 0.950 . S
C2868 C2867 1.414 . S
C2868 C2869 1.374 . S
C2869 H2849 0.950 . S
C2869 C2865 1.385 . S
C2869 C2868 1.374 . S
C2870 C2867 1.499 . S
C2870 C2871 1.373 . S
C2870 C2872 1.389 . S
C2871 H2850 0.950 . S
C2871 C2870 1.373 . S
C2871 C2887 1.377 . S
C2872 C2870 1.389 . S
C2872 C2873 1.524 . S
C2872 C2886 1.377 . S
C2873 C2872 1.524 . S
C2873 C2874 1.397 . S
C2873 C2878 1.363 . S
C2874 H2851 0.950 . S
C2874 C2873 1.397 . S
C2874 C2875 1.334 . S
C2875 H2852 0.950 . S
C2875 C2874 1.334 . S
C2875 C2876 1.287 . S
C2876 C2875 1.287 . S
C2876 C2877 1.524 . S
C2876 H2895 0.913 . S
C2877 H2853 0.950 . S
C2877 C2876 1.524 . S
C2877 C2878 1.415 . S
C2878 H2854 0.950 . S
C2878 C2873 1.363 . S
C2878 C2877 1.415 . S
C2879 H2855 0.951 . S
C2879 C2880 1.366 . S
C2879 C2881 1.388 . S
C2880 C2879 1.366 . S
C2880 C2884 1.385 . S
C2881 H2856 0.951 . S
C2881 C2879 1.388 . S
C2881 C2882 1.366 . S
C2882 C2881 1.366 . S
C2882 C2883 1.414 . S
C2882 C2885 1.499 . S
C2883 H2857 0.950 . S
C2883 C2882 1.414 . S
C2883 C2884 1.374 . S
C2884 H2858 0.950 . S
C2884 C2880 1.385 . S
C2884 C2883 1.374 . S
C2885 C2882 1.499 . S
C2885 C2886 1.373 . S
C2885 C2887 1.389 . S
C2886 H2859 0.950 . S
C2886 C2872 1.377 . S
C2886 C2885 1.373 . S
C2887 C2871 1.377 . S
C2887 C2885 1.389 . S
C2887 C2888 1.524 . S
C2888 C2887 1.524 . S
C2888 C2889 1.397 . S
C2888 C2893 1.363 . S
C2889 H2860 0.950 . S
C2889 C2888 1.397 . S
C2889 C2890 1.334 . S
C2890 H2861 0.950 . S
C2890 C2889 1.334 . S
C2890 C2891 1.287 . S
C2891 C2890 1.287 . S
C2891 C2892 1.524 . S
C2891 H2894 0.999 . S
C2892 H2862 0.950 . S
C2892 C2891 1.524 . S
C2892 C2893 1.415 . S
C2893 H2863 0.950 . S
C2893 C2888 1.363 . S
C2893 C2892 1.415 . S
H2894 C2891 0.999 . S
H2895 C2876 0.913 . S
H2896 C2914 0.951 . S
H2897 C2916 0.951 . S
H2898 C2918 0.950 . S
H2899 C2919 0.950 . S
H2900 C2921 0.950 . S
H2901 C2924 0.950 . S
H2902 C2925 0.950 . S
H2903 C2927 0.950 . S
H2904 C2928 0.950 . S
H2905 C2929 0.951 . S
H2906 C2931 0.951 . S
H2907 C2933 0.950 . S
H2908 C2934 0.950 . S
H2909 C2936 0.950 . S
H2910 C2939 0.950 . S
H2911 C2940 0.950 . S
H2912 C2942 0.950 . S
H2913 C2943 0.950 . S
C2914 H2896 0.951 . S
C2914 C2915 1.366 . S
C2914 C2916 1.388 . S
C2915 C2914 1.366 . S
C2915 C2919 1.385 . S
C2916 H2897 0.951 . S
C2916 C2914 1.388 . S
C2916 C2917 1.366 . S
C2917 C2916 1.366 . S
C2917 C2918 1.414 . S
C2917 C2920 1.499 . S
C2918 H2898 0.950 . S
C2918 C2917 1.414 . S
C2918 C2919 1.374 . S
C2919 H2899 0.950 . S
C2919 C2915 1.385 . S
C2919 C2918 1.374 . S
C2920 C2917 1.499 . S
C2920 C2921 1.373 . S
C2920 C2922 1.389 . S
C2921 H2900 0.950 . S
C2921 C2920 1.373 . S
C2921 C2937 1.377 . S
C2922 C2920 1.389 . S
C2922 C2923 1.524 . S
C2922 C2936 1.377 . S
C2923 C2922 1.524 . S
C2923 C2924 1.397 . S
C2923 C2928 1.363 . S
C2924 H2901 0.950 . S
C2924 C2923 1.397 . S
C2924 C2925 1.334 . S
C2925 H2902 0.950 . S
C2925 C2924 1.334 . S
C2925 C2926 1.287 . S
C2926 C2925 1.287 . S
C2926 C2927 1.524 . S
C2926 H2945 0.913 . S
C2927 H2903 0.950 . S
C2927 C2926 1.524 . S
C2927 C2928 1.415 . S
C2928 H2904 0.950 . S
C2928 C2923 1.363 . S
C2928 C2927 1.415 . S
C2929 H2905 0.951 . S
C2929 C2930 1.366 . S
C2929 C2931 1.388 . S
C2930 C2929 1.366 . S
C2930 C2934 1.385 . S
C2931 H2906 0.951 . S
C2931 C2929 1.388 . S
C2931 C2932 1.366 . S
C2932 C2931 1.366 . S
C2932 C2933 1.414 . S
C2932 C2935 1.499 . S
C2933 H2907 0.950 . S
C2933 C2932 1.414 . S
C2933 C2934 1.374 . S
C2934 H2908 0.950 . S
C2934 C2930 1.385 . S
C2934 C2933 1.374 . S
C2935 C2932 1.499 . S
C2935 C2936 1.373 . S
C2935 C2937 1.389 . S
C2936 H2909 0.950 . S
C2936 C2922 1.377 . S
C2936 C2935 1.373 . S
C2937 C2921 1.377 . S
C2937 C2935 1.389 . S
C2937 C2938 1.524 . S
C2938 C2937 1.524 . S
C2938 C2939 1.397 . S
C2938 C2943 1.363 . S
C2939 H2910 0.950 . S
C2939 C2938 1.397 . S
C2939 C2940 1.334 . S
C2940 H2911 0.950 . S
C2940 C2939 1.334 . S
C2940 C2941 1.287 . S
C2941 C2940 1.287 . S
C2941 C2942 1.524 . S
C2941 H2944 0.999 . S
C2942 H2912 0.950 . S
C2942 C2941 1.524 . S
C2942 C2943 1.415 . S
C2943 H2913 0.950 . S
C2943 C2938 1.363 . S
C2943 C2942 1.415 . S
H2944 C2941 0.999 . S
H2945 C2926 0.913 . S
H2946 C2964 0.951 . S
H2947 C2966 0.951 . S
H2948 C2968 0.950 . S
H2949 C2969 0.950 . S
H2950 C2971 0.950 . S
H2951 C2974 0.950 . S
H2952 C2975 0.950 . S
H2953 C2977 0.950 . S
H2954 C2978 0.950 . S
H2955 C2979 0.951 . S
H2956 C2981 0.951 . S
H2957 C2983 0.950 . S
H2958 C2984 0.950 . S
H2959 C2986 0.950 . S
H2960 C2989 0.950 . S
H2961 C2990 0.950 . S
H2962 C2992 0.950 . S
H2963 C2993 0.950 . S
C2964 H2946 0.951 . S
C2964 C2965 1.366 . S
C2964 C2966 1.388 . S
C2965 C2964 1.366 . S
C2965 C2969 1.385 . S
C2966 H2947 0.951 . S
C2966 C2964 1.388 . S
C2966 C2967 1.366 . S
C2967 C2966 1.366 . S
C2967 C2968 1.414 . S
C2967 C2970 1.499 . S
C2968 H2948 0.950 . S
C2968 C2967 1.414 . S
C2968 C2969 1.374 . S
C2969 H2949 0.950 . S
C2969 C2965 1.385 . S
C2969 C2968 1.374 . S
C2970 C2967 1.499 . S
C2970 C2971 1.373 . S
C2970 C2972 1.389 . S
C2971 H2950 0.950 . S
C2971 C2970 1.373 . S
C2971 C2987 1.377 . S
C2972 C2970 1.389 . S
C2972 C2973 1.524 . S
C2972 C2986 1.377 . S
C2973 C2972 1.524 . S
C2973 C2974 1.397 . S
C2973 C2978 1.363 . S
C2974 H2951 0.950 . S
C2974 C2973 1.397 . S
C2974 C2975 1.334 . S
C2975 H2952 0.950 . S
C2975 C2974 1.334 . S
C2975 C2976 1.287 . S
C2976 C2975 1.287 . S
C2976 C2977 1.524 . S
C2976 H2995 0.913 . S
C2977 H2953 0.950 . S
C2977 C2976 1.524 . S
C2977 C2978 1.415 . S
C2978 H2954 0.950 . S
C2978 C2973 1.363 . S
C2978 C2977 1.415 . S
C2979 H2955 0.951 . S
C2979 C2980 1.366 . S
C2979 C2981 1.388 . S
C2980 C2979 1.366 . S
C2980 C2984 1.385 . S
C2981 H2956 0.951 . S
C2981 C2979 1.388 . S
C2981 C2982 1.366 . S
C2982 C2981 1.366 . S
C2982 C2983 1.414 . S
C2982 C2985 1.499 . S
C2983 H2957 0.950 . S
C2983 C2982 1.414 . S
C2983 C2984 1.374 . S
C2984 H2958 0.950 . S
C2984 C2980 1.385 . S
C2984 C2983 1.374 . S
C2985 C2982 1.499 . S
C2985 C2986 1.373 . S
C2985 C2987 1.389 . S
C2986 H2959 0.950 . S
C2986 C2972 1.377 . S
C2986 C2985 1.373 . S
C2987 C2971 1.377 . S
C2987 C2985 1.389 . S
C2987 C2988 1.524 . S
C2988 C2987 1.524 . S
C2988 C2989 1.397 . S
C2988 C2993 1.363 . S
C2989 H2960 0.950 . S
C2989 C2988 1.397 . S
C2989 C2990 1.334 . S
C2990 H2961 0.950 . S
C2990 C2989 1.334 . S
C2990 C2991 1.287 . S
C2991 C2990 1.287 . S
C2991 C2992 1.524 . S
C2991 H2994 0.999 . S
C2992 H2962 0.950 . S
C2992 C2991 1.524 . S
C2992 C2993 1.415 . S
C2993 H2963 0.950 . S
C2993 C2988 1.363 . S
C2993 C2992 1.415 . S
H2994 C2991 0.999 . S
H2995 C2976 0.913 . S
C630 C291 1.414 . S
C615 N2 1.392 . S
C680 C325 1.940 . S
C665 C7 1.971 . S
C730 C362 1.695 . S
C715 N12 1.612 . S
C765 C16 2.721 . S
C780 C414 2.735 . S
C830 C454 2.031 . S
C815 C30 2.047 . S
C880 C491 1.518 . S
C865 N35 1.501 . S
C915 C39 2.890 . S
C930 C525 2.831 . S
C980 C562 1.244 . S
C965 N25 1.163 . S
C1030 C285 1.509 . S
C1015 N58 1.503 . S
C1065 N81 1.706 . S
C1080 C335 1.696 . S
C1130 C366 1.184 . S
C1115 N104 1.131 . S
C1165 N127 1.097 . S
C1180 C402 1.103 . S
C1230 C442 0.644 . S
C1215 N48 0.627 . S
C1280 C485 1.859 . S
C1265 N71 1.870 1_556 S
C1315 N94 1.273 . S
C1330 C535 1.255 . S
C1380 C566 1.711 . S
C1365 N117 1.688 . S
C1415 C85 2.172 . S
C1430 C295 2.182 . S
C1465 C122 2.145 . S
C1480 C446 2.110 . S
C1515 C53 1.688 . S
C1530 C495 1.686 . S
C1580 C531 1.405 . S
C1565 C76 1.432 1_655 S
C1630 C574 2.107 . S
C1615 C99 2.175 . S
C1680 C374 2.303 . S
C1665 C131 2.367 . S
C1730 C406 1.663 . S
C1715 C62 1.684 1_565 S
C1765 C108 0.818 . S
C1780 C331 0.815 . S
C1830 C571 1.484 . S
C1815 N140 1.463 . S
C1865 C145 1.967 . S
C1880 C445 1.935 . S
C1930 C482 1.581 . S
C1915 N150 1.499 . S
C1965 C154 2.730 . S
C1980 C534 2.742 . S
C2030 C334 2.038 . S
C2015 C168 2.054 . S
C2065 N173 1.392 . S
C2080 C371 1.414 . S
C2130 C405 2.829 . S
C2115 C177 2.892 . S
C2180 C282 1.295 . S
C2165 N163 1.205 . S
C2230 C565 2.008 . S
C2215 C200 2.052 . S
C2280 C455 1.989 . S
C2265 N219 2.000 . S
C2315 N242 1.368 . S
C2330 C486 1.436 . S
C2380 C522 1.401 . S
C2365 C269 1.446 . S
C2430 C322 0.863 . S
C2415 C191 0.876 . S
C2465 N209 2.116 . S
C2480 C365 2.104 . S
C2515 N232 1.583 . S
C2530 C415 1.561 . S
C2565 C260 2.196 . S
C2580 C286 2.191 . S
C2615 C223 1.870 . S
C2630 C575 1.879 . S
C2665 N255 1.729 . S
C2680 C326 1.739 . S
C2715 N186 1.209 . S
C2730 C375 1.256 . S
C2780 C411 1.104 . S
C2765 C214 1.125 . S
C2830 C294 1.818 . S
C2815 C237 1.878 . S
C2880 C494 1.836 . S
C2865 N265 1.838 . S
C2930 C526 1.270 . S
C2915 N196 1.270 . S
C2980 C451 0.540 . S
C2965 C246 0.520 . S
