# Generated by pormake.
# Topology gar, (4,6)-cn, num edge types: 1
# Building blocks:
#     Node 0, Type 0, BuildingBlock: TATPOV_clean_sbu_0, # of connection points: 4
#     Node 1, Type 0, BuildingBlock: TATPOV_clean_sbu_0, # of connection points: 4
#     Node 2, Type 0, BuildingBlock: TATPOV_clean_sbu_0, # of connection points: 4
#     Node 3, Type 0, BuildingBlock: TATPOV_clean_sbu_0, # of connection points: 4
#     Node 4, Type 0, BuildingBlock: TATPOV_clean_sbu_0, # of connection points: 4
#     Node 5, Type 0, BuildingBlock: TATPOV_clean_sbu_0, # of connection points: 4
#     Node 6, Type 0, BuildingBlock: TATPOV_clean_sbu_0, # of connection points: 4
#     Node 7, Type 0, BuildingBlock: TATPOV_clean_sbu_0, # of connection points: 4
#     Node 8, Type 0, BuildingBlock: TATPOV_clean_sbu_0, # of connection points: 4
#     Node 9, Type 0, BuildingBlock: TATPOV_clean_sbu_0, # of connection points: 4
#     Node 10, Type 0, BuildingBlock: TATPOV_clean_sbu_0, # of connection points: 4
#     Node 11, Type 0, BuildingBlock: TATPOV_clean_sbu_0, # of connection points: 4
#     Node 12, Type 0, BuildingBlock: TATPOV_clean_sbu_0, # of connection points: 4
#     Node 13, Type 0, BuildingBlock: TATPOV_clean_sbu_0, # of connection points: 4
#     Node 14, Type 0, BuildingBlock: TATPOV_clean_sbu_0, # of connection points: 4
#     Node 15, Type 0, BuildingBlock: TATPOV_clean_sbu_0, # of connection points: 4
#     Node 16, Type 0, BuildingBlock: TATPOV_clean_sbu_0, # of connection points: 4
#     Node 17, Type 0, BuildingBlock: TATPOV_clean_sbu_0, # of connection points: 4
#     Node 18, Type 0, BuildingBlock: TATPOV_clean_sbu_0, # of connection points: 4
#     Node 19, Type 0, BuildingBlock: TATPOV_clean_sbu_0, # of connection points: 4
#     Node 20, Type 0, BuildingBlock: TATPOV_clean_sbu_0, # of connection points: 4
#     Node 21, Type 0, BuildingBlock: TATPOV_clean_sbu_0, # of connection points: 4
#     Node 22, Type 0, BuildingBlock: TATPOV_clean_sbu_0, # of connection points: 4
#     Node 23, Type 0, BuildingBlock: TATPOV_clean_sbu_0, # of connection points: 4
#     Node 24, Type 1, BuildingBlock: CUKXOW_clean_sbu_0, # of connection points: 6
#     Node 25, Type 1, BuildingBlock: CUKXOW_clean_sbu_0, # of connection points: 6
#     Node 26, Type 1, BuildingBlock: CUKXOW_clean_sbu_0, # of connection points: 6
#     Node 27, Type 1, BuildingBlock: CUKXOW_clean_sbu_0, # of connection points: 6
#     Node 28, Type 1, BuildingBlock: CUKXOW_clean_sbu_0, # of connection points: 6
#     Node 29, Type 1, BuildingBlock: CUKXOW_clean_sbu_0, # of connection points: 6
#     Node 30, Type 1, BuildingBlock: CUKXOW_clean_sbu_0, # of connection points: 6
#     Node 31, Type 1, BuildingBlock: CUKXOW_clean_sbu_0, # of connection points: 6
#     Node 32, Type 1, BuildingBlock: CUKXOW_clean_sbu_0, # of connection points: 6
#     Node 33, Type 1, BuildingBlock: CUKXOW_clean_sbu_0, # of connection points: 6
#     Node 34, Type 1, BuildingBlock: CUKXOW_clean_sbu_0, # of connection points: 6
#     Node 35, Type 1, BuildingBlock: CUKXOW_clean_sbu_0, # of connection points: 6
#     Node 36, Type 1, BuildingBlock: CUKXOW_clean_sbu_0, # of connection points: 6
#     Node 37, Type 1, BuildingBlock: CUKXOW_clean_sbu_0, # of connection points: 6
#     Node 38, Type 1, BuildingBlock: CUKXOW_clean_sbu_0, # of connection points: 6
#     Node 39, Type 1, BuildingBlock: CUKXOW_clean_sbu_0, # of connection points: 6
#     Edge 40, Type (0, 1), BuildingBlock: OJICUG_clean_linker_0, # of connection points: 2
#     Edge 41, Type (0, 1), BuildingBlock: OJICUG_clean_linker_0, # of connection points: 2
#     Edge 42, Type (0, 1), BuildingBlock: OJICUG_clean_linker_0, # of connection points: 2
#     Edge 43, Type (0, 1), BuildingBlock: OJICUG_clean_linker_0, # of connection points: 2
#     Edge 44, Type (0, 1), BuildingBlock: OJICUG_clean_linker_0, # of connection points: 2
#     Edge 45, Type (0, 1), BuildingBlock: OJICUG_clean_linker_0, # of connection points: 2
#     Edge 46, Type (0, 1), BuildingBlock: OJICUG_clean_linker_0, # of connection points: 2
#     Edge 47, Type (0, 1), BuildingBlock: OJICUG_clean_linker_0, # of connection points: 2
#     Edge 48, Type (0, 1), BuildingBlock: OJICUG_clean_linker_0, # of connection points: 2
#     Edge 49, Type (0, 1), BuildingBlock: OJICUG_clean_linker_0, # of connection points: 2
#     Edge 50, Type (0, 1), BuildingBlock: OJICUG_clean_linker_0, # of connection points: 2
#     Edge 51, Type (0, 1), BuildingBlock: OJICUG_clean_linker_0, # of connection points: 2
#     Edge 52, Type (0, 1), BuildingBlock: OJICUG_clean_linker_0, # of connection points: 2
#     Edge 53, Type (0, 1), BuildingBlock: OJICUG_clean_linker_0, # of connection points: 2
#     Edge 54, Type (0, 1), BuildingBlock: OJICUG_clean_linker_0, # of connection points: 2
#     Edge 55, Type (0, 1), BuildingBlock: OJICUG_clean_linker_0, # of connection points: 2
#     Edge 56, Type (0, 1), BuildingBlock: OJICUG_clean_linker_0, # of connection points: 2
#     Edge 57, Type (0, 1), BuildingBlock: OJICUG_clean_linker_0, # of connection points: 2
#     Edge 58, Type (0, 1), BuildingBlock: OJICUG_clean_linker_0, # of connection points: 2
#     Edge 59, Type (0, 1), BuildingBlock: OJICUG_clean_linker_0, # of connection points: 2
#     Edge 60, Type (0, 1), BuildingBlock: OJICUG_clean_linker_0, # of connection points: 2
#     Edge 61, Type (0, 1), BuildingBlock: OJICUG_clean_linker_0, # of connection points: 2
#     Edge 62, Type (0, 1), BuildingBlock: OJICUG_clean_linker_0, # of connection points: 2
#     Edge 63, Type (0, 1), BuildingBlock: OJICUG_clean_linker_0, # of connection points: 2
#     Edge 64, Type (0, 1), BuildingBlock: OJICUG_clean_linker_0, # of connection points: 2
#     Edge 65, Type (0, 1), BuildingBlock: OJICUG_clean_linker_0, # of connection points: 2
#     Edge 66, Type (0, 1), BuildingBlock: OJICUG_clean_linker_0, # of connection points: 2
#     Edge 67, Type (0, 1), BuildingBlock: OJICUG_clean_linker_0, # of connection points: 2
#     Edge 68, Type (0, 1), BuildingBlock: OJICUG_clean_linker_0, # of connection points: 2
#     Edge 69, Type (0, 1), BuildingBlock: OJICUG_clean_linker_0, # of connection points: 2
#     Edge 70, Type (0, 1), BuildingBlock: OJICUG_clean_linker_0, # of connection points: 2
#     Edge 71, Type (0, 1), BuildingBlock: OJICUG_clean_linker_0, # of connection points: 2
#     Edge 72, Type (0, 1), BuildingBlock: OJICUG_clean_linker_0, # of connection points: 2
#     Edge 73, Type (0, 1), BuildingBlock: OJICUG_clean_linker_0, # of connection points: 2
#     Edge 74, Type (0, 1), BuildingBlock: OJICUG_clean_linker_0, # of connection points: 2
#     Edge 75, Type (0, 1), BuildingBlock: OJICUG_clean_linker_0, # of connection points: 2
#     Edge 76, Type (0, 1), BuildingBlock: OJICUG_clean_linker_0, # of connection points: 2
#     Edge 77, Type (0, 1), BuildingBlock: OJICUG_clean_linker_0, # of connection points: 2
#     Edge 78, Type (0, 1), BuildingBlock: OJICUG_clean_linker_0, # of connection points: 2
#     Edge 79, Type (0, 1), BuildingBlock: OJICUG_clean_linker_0, # of connection points: 2
#     Edge 80, Type (0, 1), BuildingBlock: OJICUG_clean_linker_0, # of connection points: 2
#     Edge 81, Type (0, 1), BuildingBlock: OJICUG_clean_linker_0, # of connection points: 2
#     Edge 82, Type (0, 1), BuildingBlock: OJICUG_clean_linker_0, # of connection points: 2
#     Edge 83, Type (0, 1), BuildingBlock: OJICUG_clean_linker_0, # of connection points: 2
#     Edge 84, Type (0, 1), BuildingBlock: OJICUG_clean_linker_0, # of connection points: 2
#     Edge 85, Type (0, 1), BuildingBlock: OJICUG_clean_linker_0, # of connection points: 2
#     Edge 86, Type (0, 1), BuildingBlock: OJICUG_clean_linker_0, # of connection points: 2
#     Edge 87, Type (0, 1), BuildingBlock: OJICUG_clean_linker_0, # of connection points: 2
#     Edge 88, Type (0, 1), BuildingBlock: OJICUG_clean_linker_0, # of connection points: 2
#     Edge 89, Type (0, 1), BuildingBlock: OJICUG_clean_linker_0, # of connection points: 2
#     Edge 90, Type (0, 1), BuildingBlock: OJICUG_clean_linker_0, # of connection points: 2
#     Edge 91, Type (0, 1), BuildingBlock: OJICUG_clean_linker_0, # of connection points: 2
#     Edge 92, Type (0, 1), BuildingBlock: OJICUG_clean_linker_0, # of connection points: 2
#     Edge 93, Type (0, 1), BuildingBlock: OJICUG_clean_linker_0, # of connection points: 2
#     Edge 94, Type (0, 1), BuildingBlock: OJICUG_clean_linker_0, # of connection points: 2
#     Edge 95, Type (0, 1), BuildingBlock: OJICUG_clean_linker_0, # of connection points: 2
#     Edge 96, Type (0, 1), BuildingBlock: OJICUG_clean_linker_0, # of connection points: 2
#     Edge 97, Type (0, 1), BuildingBlock: OJICUG_clean_linker_0, # of connection points: 2
#     Edge 98, Type (0, 1), BuildingBlock: OJICUG_clean_linker_0, # of connection points: 2
#     Edge 99, Type (0, 1), BuildingBlock: OJICUG_clean_linker_0, # of connection points: 2
#     Edge 100, Type (0, 1), BuildingBlock: OJICUG_clean_linker_0, # of connection points: 2
#     Edge 101, Type (0, 1), BuildingBlock: OJICUG_clean_linker_0, # of connection points: 2
#     Edge 102, Type (0, 1), BuildingBlock: OJICUG_clean_linker_0, # of connection points: 2
#     Edge 103, Type (0, 1), BuildingBlock: OJICUG_clean_linker_0, # of connection points: 2
#     Edge 104, Type (0, 1), BuildingBlock: OJICUG_clean_linker_0, # of connection points: 2
#     Edge 105, Type (0, 1), BuildingBlock: OJICUG_clean_linker_0, # of connection points: 2
#     Edge 106, Type (0, 1), BuildingBlock: OJICUG_clean_linker_0, # of connection points: 2
#     Edge 107, Type (0, 1), BuildingBlock: OJICUG_clean_linker_0, # of connection points: 2
#     Edge 108, Type (0, 1), BuildingBlock: OJICUG_clean_linker_0, # of connection points: 2
#     Edge 109, Type (0, 1), BuildingBlock: OJICUG_clean_linker_0, # of connection points: 2
#     Edge 110, Type (0, 1), BuildingBlock: OJICUG_clean_linker_0, # of connection points: 2
#     Edge 111, Type (0, 1), BuildingBlock: OJICUG_clean_linker_0, # of connection points: 2
#     Edge 112, Type (0, 1), BuildingBlock: OJICUG_clean_linker_0, # of connection points: 2
#     Edge 113, Type (0, 1), BuildingBlock: OJICUG_clean_linker_0, # of connection points: 2
#     Edge 114, Type (0, 1), BuildingBlock: OJICUG_clean_linker_0, # of connection points: 2
#     Edge 115, Type (0, 1), BuildingBlock: OJICUG_clean_linker_0, # of connection points: 2
#     Edge 116, Type (0, 1), BuildingBlock: OJICUG_clean_linker_0, # of connection points: 2
#     Edge 117, Type (0, 1), BuildingBlock: OJICUG_clean_linker_0, # of connection points: 2
#     Edge 118, Type (0, 1), BuildingBlock: OJICUG_clean_linker_0, # of connection points: 2
#     Edge 119, Type (0, 1), BuildingBlock: OJICUG_clean_linker_0, # of connection points: 2
#     Edge 120, Type (0, 1), BuildingBlock: OJICUG_clean_linker_0, # of connection points: 2
#     Edge 121, Type (0, 1), BuildingBlock: OJICUG_clean_linker_0, # of connection points: 2
#     Edge 122, Type (0, 1), BuildingBlock: OJICUG_clean_linker_0, # of connection points: 2
#     Edge 123, Type (0, 1), BuildingBlock: OJICUG_clean_linker_0, # of connection points: 2
#     Edge 124, Type (0, 1), BuildingBlock: OJICUG_clean_linker_0, # of connection points: 2
#     Edge 125, Type (0, 1), BuildingBlock: OJICUG_clean_linker_0, # of connection points: 2
#     Edge 126, Type (0, 1), BuildingBlock: OJICUG_clean_linker_0, # of connection points: 2
#     Edge 127, Type (0, 1), BuildingBlock: OJICUG_clean_linker_0, # of connection points: 2
#     Edge 128, Type (0, 1), BuildingBlock: OJICUG_clean_linker_0, # of connection points: 2
#     Edge 129, Type (0, 1), BuildingBlock: OJICUG_clean_linker_0, # of connection points: 2
#     Edge 130, Type (0, 1), BuildingBlock: OJICUG_clean_linker_0, # of connection points: 2
#     Edge 131, Type (0, 1), BuildingBlock: OJICUG_clean_linker_0, # of connection points: 2
#     Edge 132, Type (0, 1), BuildingBlock: OJICUG_clean_linker_0, # of connection points: 2
#     Edge 133, Type (0, 1), BuildingBlock: OJICUG_clean_linker_0, # of connection points: 2
#     Edge 134, Type (0, 1), BuildingBlock: OJICUG_clean_linker_0, # of connection points: 2
#     Edge 135, Type (0, 1), BuildingBlock: OJICUG_clean_linker_0, # of connection points: 2
# Relax obj value: 0.123
# Max RMSD: 0.241
# Mean RMSD: 0.148
data_MOF--net-gar--node1-TATPOV_clean_sbu_0--node2-CUKXOW_clean_sbu_0--edge1-OJICUG_clean_linker_0
_symmetry_space_group_name_H-M    P1
_symmetry_Int_Tables_number       1
_symmetry_cell_setting            triclinic
loop_
_symmetry_equiv_pos_as_xyz
'x, y, z'
_cell_length_a     40.378969
_cell_length_b     39.262558
_cell_length_c     39.898176
_cell_angle_alpha  94.477529
_cell_angle_beta   95.613266
_cell_angle_gamma 100.47098
loop_
_atom_site_label
_atom_site_type_symbol
_atom_site_fract_x
_atom_site_fract_y
_atom_site_fract_z
_atom_type_partial_charge
Zn0 Zn 0.98398 0.26105 0.51185 0.0
Zn1 Zn 0.03395 0.26845 0.47041 0.0
O2 O 0.04512 0.31525 0.49975 0.0
O3 O 1.00392 0.30991 0.53245 0.0
O4 O 0.07114 0.26876 0.44027 0.0
O5 O 0.99945 0.22018 0.53145 0.0
O6 O 0.0355 0.22378 0.49323 0.0
C7 C 0.03009 0.32792 0.52302 0.0
C8 C 0.96055 0.25798 0.44015 0.0
O9 O 0.99202 0.26501 0.43718 0.0
O10 O 0.95043 0.25346 0.46888 0.0
C11 C 0.07025 0.28112 0.41174 0.0
O12 O 0.04526 0.29669 0.40208 0.0
C13 C 0.02186 0.20828 0.51673 0.0
Zn14 Zn 0.9814 0.7212 0.62717 0.0
Zn15 Zn 0.99663 0.77855 0.60019 0.0
O16 O 0.95975 0.78729 0.6304 0.0
O17 O 0.95227 0.74036 0.65765 0.0
O18 O 1.00453 0.82152 0.57653 0.0
O19 O 0.03042 0.72647 0.64525 0.0
O20 O 0.04133 0.77909 0.62856 0.0
C21 C 0.94655 0.77036 0.6533 0.0
C22 C 0.97103 0.70896 0.55692 0.0
O23 O 0.98655 0.74045 0.56012 0.0
O24 O 0.96216 0.69451 0.5827 0.0
C25 C 0.97934 0.82808 0.55827 0.0
O26 O 0.94989 0.80686 0.55643 0.0
C27 C 0.05069 0.75505 0.64456 0.0
Zn28 Zn 0.49119 0.76434 0.00829 0.0
Zn29 Zn 0.54053 0.76817 0.96743 0.0
O30 O 0.55237 0.81686 0.99347 0.0
O31 O 0.5126 0.8132 0.02779 0.0
O32 O 0.575 0.76683 0.93466 0.0
O33 O 0.50475 0.72285 0.02752 0.0
O34 O 0.54491 0.72561 0.99374 0.0
C35 C 0.53814 0.83065 0.01676 0.0
C36 C 0.46596 0.75808 0.93825 0.0
O37 O 0.49737 0.76268 0.93489 0.0
O38 O 0.45604 0.75679 0.96734 0.0
C39 C 0.57366 0.78273 0.90814 0.0
O40 O 0.55119 0.80281 0.90368 0.0
C41 C 0.52888 0.71074 0.01625 0.0
Zn42 Zn 0.48157 0.23019 0.1231 0.0
Zn43 Zn 0.4955 0.28516 0.09563 0.0
O44 O 0.45853 0.29407 0.12601 0.0
O45 O 0.4551 0.24923 0.15613 0.0
O46 O 0.50159 0.32706 0.07002 0.0
O47 O 0.53075 0.23336 0.13832 0.0
O48 O 0.54101 0.28689 0.12392 0.0
C49 C 0.4475 0.27819 0.15053 0.0
C50 C 0.46859 0.21457 0.05453 0.0
O51 O 0.48543 0.24553 0.05682 0.0
O52 O 0.45879 0.20183 0.08078 0.0
C53 C 0.47541 0.33296 0.05281 0.0
O54 O 0.44619 0.3119 0.05317 0.0
C55 C 0.55087 0.26218 0.13851 0.0
Zn56 Zn 0.05719 0.78414 0.14352 0.0
Zn57 Zn 0.00661 0.76417 0.17028 0.0
O58 O 0.9983 0.80703 0.14407 0.0
O59 O 0.03859 0.81221 0.11054 0.0
O60 O 0.96316 0.75433 0.1941 0.0
O61 O 0.06053 0.73694 0.12545 0.0
O62 O 0.00846 0.71982 0.13747 0.0
C63 C 0.01173 0.82041 0.11927 0.0
C64 C 0.07609 0.79368 0.21171 0.0
O65 O 0.04699 0.77378 0.20988 0.0
O66 O 0.08568 0.80681 0.18557 0.0
C67 C 0.93494 0.75849 0.17915 0.0
O68 O 0.93377 0.76593 0.14757 0.0
C69 C 0.03394 0.71384 0.12277 0.0
Zn70 Zn 0.48267 0.78964 0.39055 0.0
Zn71 Zn 0.53314 0.80167 0.36242 0.0
O72 O 0.53448 0.84988 0.38905 0.0
O73 O 0.48042 0.83992 0.39658 0.0
O74 O 0.57737 0.80392 0.34083 0.0
O75 O 0.50075 0.76734 0.42945 0.0
O76 O 0.53765 0.76218 0.39344 0.0
C77 C 0.50839 0.8608 0.3979 0.0
C78 C 0.46396 0.77109 0.32339 0.0
O79 O 0.49272 0.79106 0.32332 0.0
O80 O 0.45554 0.76006 0.35082 0.0
C81 C 0.58244 0.81188 0.31121 0.0
O82 O 0.55804 0.82162 0.29223 0.0
C83 C 0.52505 0.75402 0.42049 0.0
Zn84 Zn 0.55335 0.27731 0.63914 0.0
Zn85 Zn 0.50244 0.26484 0.66852 0.0
O86 O 0.49578 0.30444 0.63771 0.0
O87 O 0.53372 0.30136 0.60232 0.0
O88 O 0.4591 0.25896 0.69233 0.0
O89 O 0.55474 0.22703 0.63028 0.0
O90 O 0.5016 0.21706 0.64113 0.0
C91 C 0.50861 0.31347 0.61098 0.0
C92 C 0.57281 0.2957 0.70693 0.0
O93 O 0.54341 0.27703 0.70738 0.0
O94 O 0.58206 0.30493 0.67913 0.0
C95 C 0.45267 0.28635 0.70754 0.0
O96 O 0.47453 0.31566 0.708 0.0
C97 C 0.52688 0.20627 0.63009 0.0
Zn98 Zn 0.98086 0.27923 0.88761 0.0
Zn99 Zn 0.02835 0.29912 0.85796 0.0
O100 O 0.02821 0.34534 0.88837 0.0
O101 O 0.97702 0.32723 0.9024 0.0
O102 O 0.06826 0.30378 0.82962 0.0
O103 O 1.00184 0.255 0.92244 0.0
O104 O 0.04009 0.25966 0.88671 0.0
C105 C 1.00284 0.35108 0.90339 0.0
C106 C 0.95728 0.26658 0.8217 0.0
O107 O 0.98538 0.28772 0.82185 0.0
O108 O 0.95051 0.25273 0.84834 0.0
C109 C 0.09911 0.31506 0.84149 0.0
O110 O 0.10615 0.329 0.87299 0.0
C111 C 0.02878 0.24764 0.91304 0.0
Zn112 Zn 0.4575 0.05071 0.25493 0.0
Zn113 Zn 0.41945 0.09431 0.25538 0.0
O114 O 0.44974 0.10179 0.30388 0.0
O115 O 0.4852 0.06581 0.29848 0.0
O116 O 0.38919 0.1327 0.25562 0.0
O117 O 0.47747 0.05872 0.21339 0.0
O118 O 0.44269 0.09574 0.20839 0.0
C119 C 0.47449 0.08847 0.31639 0.0
C120 C 0.38894 0.01708 0.25216 0.0
O121 O 0.38403 0.04833 0.25399 0.0
O122 O 0.41857 0.01096 0.25188 0.0
C123 C 0.36644 0.13149 0.27591 0.0
O124 O 0.364 0.10685 0.29652 0.0
C125 C 0.46466 0.07969 0.19626 0.0
Zn126 Zn 0.20984 0.1838 0.46497 0.0
Zn127 Zn 0.26094 0.1506 0.47871 0.0
O128 O 0.2817 0.18404 0.44608 0.0
O129 O 0.24224 0.21608 0.44188 0.0
O130 O 0.29836 0.12631 0.49355 0.0
O131 O 0.20874 0.1975 0.51431 0.0
O132 O 0.25541 0.17636 0.52284 0.0
C133 C 0.27135 0.21084 0.43654 0.0
C134 C 0.19073 0.11089 0.4476 0.0
O135 O 0.22041 0.1116 0.462 0.0
O136 O 0.18097 0.13908 0.44233 0.0
C137 C 0.29434 0.09579 0.50294 0.0
O138 O 0.26376 0.07688 0.50138 0.0
C139 C 0.23371 0.19276 0.53393 0.0
Zn140 Zn 0.11799 0.0346 0.78553 0.0
Zn141 Zn 0.16342 0.99633 0.79649 0.0
O142 O 0.1316 0.9857 0.8355 0.0
O143 O 0.09216 0.01562 0.82104 0.0
O144 O 0.19571 0.96147 0.79627 0.0
O145 O 0.10229 0.0139 0.73856 0.0
O146 O 0.14024 0.98098 0.74788 0.0
C147 C 0.10343 0.99511 0.84007 0.0
C148 C 0.18382 0.07674 0.80098 0.0
O149 O 0.19298 0.04715 0.80105 0.0
O150 O 0.15276 0.07834 0.796 0.0
C151 C 0.21122 0.94912 0.82037 0.0
O152 O 0.20862 0.96026 0.85175 0.0
C153 C 0.11682 0.9897 0.72868 0.0
Zn154 Zn 0.25751 0.84436 0.03438 0.0
Zn155 Zn 0.21306 0.87759 0.03171 0.0
O156 O 0.20529 0.84791 0.98295 0.0
O157 O 0.25137 0.82532 0.9873 0.0
O158 O 0.17459 0.90679 0.03386 0.0
O159 O 0.24398 0.8119 0.06673 0.0
O160 O 0.21233 0.85063 0.07703 0.0
C161 C 0.22492 0.82951 0.96987 0.0
C162 C 0.28765 0.91329 0.043 0.0
O163 O 0.25708 0.91532 0.0333 0.0
O164 O 0.29489 0.88438 0.04943 0.0
C165 C 0.17762 0.93513 0.01977 0.0
O166 O 0.20377 0.94336 0.00283 0.0
C167 C 0.22487 0.82427 0.08548 0.0
Zn168 Zn 0.3154 0.36943 0.08493 0.0
Zn169 Zn 0.27151 0.40881 0.07112 0.0
O170 O 0.27435 0.38226 0.02584 0.0
O171 O 0.31731 0.35579 0.03612 0.0
O172 O 0.23871 0.44074 0.05868 0.0
O173 O 0.28179 0.33905 0.10767 0.0
O174 O 0.24728 0.37639 0.10384 0.0
C175 C 0.29459 0.36346 0.01555 0.0
C176 C 0.34617 0.43837 0.10163 0.0
O177 O 0.31765 0.44193 0.08684 0.0
O178 O 0.35041 0.40857 0.10893 0.0
C179 C 0.21395 0.4296 0.03583 0.0
O180 O 0.2098 0.39749 0.02181 0.0
C181 C 0.25414 0.34792 0.11331 0.0
Zn182 Zn 0.7862 0.22669 0.01306 0.0
Zn183 Zn 0.82426 0.18357 0.0152 0.0
O184 O 0.82564 0.20719 0.96763 0.0
O185 O 0.79794 0.25037 0.97351 0.0
O186 O 0.85849 0.14889 0.01546 0.0
O187 O 0.79944 0.25111 0.05848 0.0
O188 O 0.83331 0.21353 0.06454 0.0
C189 C 0.81442 0.23305 0.95581 0.0
C190 C 0.74838 0.15762 0.00766 0.0
O191 O 0.77777 0.15014 0.01306 0.0
O192 O 0.74517 0.18881 0.00544 0.0
C193 C 0.88369 0.14837 0.99835 0.0
O194 O 0.89116 0.17287 0.9782 0.0
C195 C 0.82067 0.23891 0.07702 0.0
Zn196 Zn 0.06676 0.52209 0.27642 0.0
Zn197 Zn 0.10668 0.47841 0.27386 0.0
O198 O 0.08412 0.47336 0.31987 0.0
O199 O 0.04662 0.50776 0.31698 0.0
O200 O 0.13819 0.44279 0.2707 0.0
O201 O 0.04227 0.50816 0.23056 0.0
O202 O 0.07785 0.47226 0.22552 0.0
C203 C 0.06106 0.4869 0.33277 0.0
C204 C 0.1364 0.5553 0.28354 0.0
O205 O 0.14112 0.52422 0.27865 0.0
O206 O 0.10677 0.56145 0.28406 0.0
C207 C 0.14816 0.42557 0.29427 0.0
O208 O 0.1362 0.4284 0.32361 0.0
C209 C 0.0537 0.486 0.21263 0.0
Zn210 Zn 0.8113 0.86573 0.56182 0.0
Zn211 Zn 0.76713 0.90513 0.5501 0.0
O212 O 0.76966 0.88064 0.50358 0.0
O213 O 0.8128 0.85416 0.51242 0.0
O214 O 0.73426 0.9373 0.54 0.0
O215 O 0.77892 0.83455 0.58547 0.0
O216 O 0.74506 0.87258 0.58408 0.0
C217 C 0.79029 0.86285 0.49233 0.0
C218 C 0.841 0.93536 0.58015 0.0
O219 O 0.81242 0.93893 0.56568 0.0
O220 O 0.84583 0.90537 0.58619 0.0
C221 C 0.71133 0.93008 0.51487 0.0
O222 O 0.708 0.90042 0.49606 0.0
C223 C 0.7522 0.84409 0.59331 0.0
Zn224 Zn 0.91065 0.01281 0.22469 0.0
Zn225 Zn 0.8754 0.05767 0.2258 0.0
O226 O 0.90094 0.06702 0.27416 0.0
O227 O 0.92577 0.02156 0.27358 0.0
O228 O 0.84482 0.09401 0.22533 0.0
O229 O 0.94291 0.03415 0.19596 0.0
O230 O 0.90878 0.07132 0.1886 0.0
C231 C 0.91953 0.04857 0.28905 0.0
C232 C 0.84588 0.97781 0.21086 0.0
O233 O 0.84183 0.00871 0.21977 0.0
O234 O 0.87511 0.9723 0.20679 0.0
C235 C 0.83382 0.10476 0.25234 0.0
O236 O 0.84125 0.09116 0.28052 0.0
C237 C 0.93565 0.06012 0.18229 0.0
Zn238 Zn 0.28952 0.72657 0.528 0.0
Zn239 Zn 0.32073 0.68075 0.51448 0.0
O240 O 0.32262 0.71161 0.47176 0.0
O241 O 0.28719 0.74579 0.48448 0.0
O242 O 0.35291 0.64457 0.51031 0.0
O243 O 0.31967 0.7553 0.56616 0.0
O244 O 0.33091 0.70288 0.56644 0.0
C245 C 0.30587 0.73536 0.46395 0.0
C246 C 0.24822 0.6586 0.52462 0.0
O247 O 0.27291 0.65 0.51051 0.0
O248 O 0.25042 0.68958 0.53749 0.0
C249 C 0.38044 0.64629 0.49657 0.0
O250 O 0.39169 0.67425 0.48189 0.0
C251 C 0.33115 0.73275 0.58214 0.0
Zn252 Zn 0.43329 0.5264 0.75276 0.0
Zn253 Zn 0.38665 0.56394 0.74078 0.0
O254 O 0.40868 0.58018 0.78968 0.0
O255 O 0.44837 0.54936 0.79922 0.0
O256 O 0.35269 0.59662 0.73572 0.0
O257 O 0.45841 0.5437 0.71604 0.0
O258 O 0.41849 0.57307 0.70178 0.0
C259 C 0.43256 0.5725 0.80909 0.0
C260 C 0.36664 0.4845 0.73967 0.0
O261 O 0.35759 0.51393 0.7382 0.0
O262 O 0.39771 0.48277 0.74439 0.0
C263 C 0.33834 0.60492 0.76146 0.0
O264 O 0.34391 0.59029 0.78944 0.0
C265 C 0.44648 0.56356 0.6967 0.0
Zn266 Zn 0.57003 0.02485 0.76777 0.0
Zn267 Zn 0.60459 0.97841 0.77203 0.0
O268 O 0.57971 0.9747 0.81657 0.0
O269 O 0.55953 0.02311 0.81509 0.0
O270 O 0.63457 0.94164 0.76933 0.0
O271 O 0.53648 0.00217 0.72922 0.0
O272 O 0.57614 0.9713 0.72364 0.0
C273 C 0.56498 0.99745 0.83057 0.0
C274 C 0.63887 0.05241 0.76674 0.0
O275 O 0.64138 0.02279 0.7764 0.0
O276 O 0.61011 0.05935 0.75795 0.0
C277 C 0.64745 0.92741 0.79374 0.0
O278 O 0.63922 0.93395 0.82432 0.0
C279 C 0.54941 0.98128 0.71129 0.0
Zn280 Zn 0.69651 0.66539 0.95023 0.0
Zn281 Zn 0.7467 0.6342 0.96097 0.0
O282 O 0.76578 0.67156 0.931 0.0
O283 O 0.72669 0.70384 0.93207 0.0
O284 O 0.78685 0.61224 0.97154 0.0
O285 O 0.69182 0.67184 -0.00027 0.0
O286 O 0.74104 0.65545 0.00738 0.0
C287 C 0.75565 0.69959 0.9252 0.0
C288 C 0.67713 0.59497 0.92734 0.0
O289 O 0.70612 0.59481 0.94317 0.0
O290 O 0.66879 0.62371 0.92164 0.0
C291 C 0.78765 0.58558 0.98744 0.0
O292 O 0.75946 0.56789 0.99612 0.0
C293 C 0.71716 0.66786 0.01927 0.0
Zn294 Zn 0.94657 0.54867 0.75952 0.0
Zn295 Zn 0.9144 0.59504 0.75605 0.0
O296 O 0.94477 0.60131 0.80451 0.0
O297 O 0.98378 0.57064 0.79482 0.0
O298 O 0.88651 0.63521 0.75512 0.0
O299 O 0.95476 0.54424 0.71166 0.0
O300 O 0.93877 0.59478 0.71039 0.0
C301 C 0.97206 0.59078 0.81474 0.0
C302 C 0.87911 0.52231 0.76583 0.0
O303 O 0.87621 0.55116 0.75435 0.0
O304 O 0.90812 0.51573 0.77398 0.0
C305 C 0.86286 0.63444 0.7743 0.0
O306 O 0.85897 0.60978 0.79483 0.0
C307 C 0.95106 0.57022 0.69597 0.0
Zn308 Zn 0.74915 0.34123 0.52169 0.0
Zn309 Zn 0.7081 0.37721 0.52468 0.0
O310 O 0.70153 0.348 0.47561 0.0
O311 O 0.72465 0.30348 0.48765 0.0
O312 O 0.66957 0.40619 0.52669 0.0
O313 O 0.75615 0.33365 0.5699 0.0
O314 O 0.70767 0.35149 0.57008 0.0
C315 C 0.70892 0.3185 0.46616 0.0
C316 C 0.77892 0.40911 0.51404 0.0
O317 O 0.75253 0.41445 0.52718 0.0
O318 O 0.78197 0.37844 0.50487 0.0
C319 C 0.67275 0.4352 0.51379 0.0
O320 O 0.69938 0.44457 0.49779 0.0
C321 C 0.73128 0.33848 0.5852 0.0
Zn322 Zn 0.61297 0.53062 0.27685 0.0
Zn323 Zn 0.65798 0.49291 0.29128 0.0
O324 O 0.62573 0.48555 0.33048 0.0
O325 O 0.58765 0.51637 0.31425 0.0
O326 O 0.69003 0.45802 0.29398 0.0
O327 O 0.59639 0.5062 0.23143 0.0
O328 O 0.63576 0.47538 0.24264 0.0
C329 C 0.59829 0.49671 0.33464 0.0
C330 C 0.67926 0.5723 0.28986 0.0
O331 O 0.68808 0.54295 0.29337 0.0
O332 O 0.64837 0.57398 0.28328 0.0
C333 C 0.71039 0.4511 0.31774 0.0
O334 O 0.71342 0.46859 0.34769 0.0
C335 C 0.61181 0.4823 0.22278 0.0
Tb336 Tb 0.0395 0.07031 0.00434 0.0
C337 C 0.03664 0.00273 0.957 0.0
Tb338 Tb 0.00948 0.00064 0.02736 0.0
O339 O 0.09102 0.06021 0.00571 0.0
O340 O 0.05783 0.03404 0.03546 0.0
O341 O 0.0323 0.03542 0.95802 0.0
C342 C 0.99626 0.94021 0.05407 0.0
O343 O 0.03307 0.98435 0.98329 0.0
C344 C 0.96365 0.03796 0.00679 0.0
C345 C 0.01382 0.06784 0.07519 0.0
O346 O 0.99138 0.94398 0.02199 0.0
O347 O 0.00917 0.97006 0.0706 0.0
O348 O 0.95842 0.01362 0.02685 0.0
O349 O 0.99166 0.03658 0.99573 0.0
O350 O 0.01872 0.03536 0.07377 0.0
O351 O 0.01621 0.08613 0.04877 0.0
C352 C 0.05191 0.13102 0.97848 0.0
O353 O 0.05532 0.12711 0.01058 0.0
O354 O 0.04076 0.10112 0.96136 0.0
C355 C 0.08613 0.03447 0.02416 0.0
Tb356 Tb 0.28027 0.82276 0.27915 0.0
C357 C 0.33361 0.77374 0.26617 0.0
Tb358 Tb 0.25656 0.74556 0.27177 0.0
O359 O 0.28012 0.82538 0.3343 0.0
O360 O 0.28948 0.78127 0.30789 0.0
O361 O 0.32607 0.80519 0.26429 0.0
C362 C 0.23203 0.68097 0.28467 0.0
O363 O 0.31089 0.74709 0.27329 0.0
C364 C 0.25225 0.77408 0.21426 0.0
C365 C 0.20246 0.79411 0.28251 0.0
O366 O 0.24518 0.68943 0.25739 0.0
O367 O 0.23283 0.70886 0.30464 0.0
O368 O 0.25637 0.74231 0.21681 0.0
O369 O 0.2475 0.7868 0.24286 0.0
O370 O 0.21021 0.76288 0.28531 0.0
O371 O 0.22561 0.82087 0.27627 0.0
C372 C 0.30381 0.88762 0.26536 0.0
O373 O 0.2919 0.8792 0.29328 0.0
O374 O 0.30269 0.85955 0.24554 0.0
C375 C 0.28441 0.7936 0.3365 0.0
Tb376 Tb 0.5518 0.03231 0.51052 0.0
C377 C 0.51866 0.00029 0.57206 0.0
Tb378 Tb 0.47708 0.03303 0.51562 0.0
O379 O 0.56728 0.07076 0.55434 0.0
O380 O 0.52259 0.07022 0.52312 0.0
O381 O 0.54236 0.99902 0.55137 0.0
C382 C 0.41746 0.04627 0.53035 0.0
O383 O 0.49217 0.01513 0.56443 0.0
C384 C 0.49034 0.98242 0.47566 0.0
C385 C 0.50938 0.06672 0.45449 0.0
O386 O 0.42226 0.01694 0.5162 0.0
O387 O 0.44631 0.06756 0.53684 0.0
O388 O 0.46336 0.99578 0.47053 0.0
O389 O 0.50653 0.99527 0.50366 0.0
O390 O 0.48428 0.06494 0.47381 0.0
O391 O 0.53743 0.05424 0.46296 0.0
C392 C 0.61026 0.01466 0.49658 0.0
O393 O 0.60703 0.03866 0.5196 0.0
O394 O 0.58066 0.00195 0.4803 0.0
C395 C 0.53974 0.08335 0.55065 0.0
Tb396 Tb 0.28107 0.29566 0.80967 0.0
C397 C 0.29075 0.35053 0.75736 0.0
Tb398 Tb 0.26103 0.27053 0.73767 0.0
O399 O 0.33372 0.31254 0.80191 0.0
O400 O 0.30417 0.26917 0.77223 0.0
O401 O 0.28527 0.34595 0.7891 0.0
C402 C 0.25569 0.25182 0.67187 0.0
O403 O 0.28649 0.32398 0.73365 0.0
C404 C 0.2104 0.28101 0.77191 0.0
C405 C 0.2536 0.21477 0.78867 0.0
O406 O 0.23568 0.26891 0.68657 0.0
O407 O 0.27895 0.24575 0.69405 0.0
O408 O 0.20778 0.25655 0.74746 0.0
O409 O 0.23974 0.29921 0.77458 0.0
O410 O 0.25819 0.22014 0.75703 0.0
O411 O 0.2572 0.24101 0.8127 0.0
C412 C 0.28349 0.31354 0.8754 0.0
O413 O 0.30493 0.29776 0.86148 0.0
O414 O 0.2607 0.31907 0.85244 0.0
C415 C 0.33268 0.28973 0.77632 0.0
Tb416 Tb 0.99599 0.01768 0.47829 0.0
C417 C 0.96421 0.00676 0.54576 0.0
Tb418 Tb 0.04257 0.00402 0.54292 0.0
O419 O 0.96874 0.96369 0.47372 0.0
O420 O 0.01886 0.97708 0.49604 0.0
O421 O 0.96254 0.02215 0.51723 0.0
C422 C 0.07175 0.97301 0.59144 0.0
O423 O 0.99121 0.99442 0.55764 0.0
C424 C 0.03796 0.07012 0.5408 0.0
C425 C 0.0755 0.02263 0.47747 0.0
O426 O 0.03968 0.96642 0.5804 0.0
O427 O 0.08742 0.99685 0.57468 0.0
O428 O 0.05493 0.05931 0.56587 0.0
O429 O 0.02544 0.04398 0.52099 0.0
O430 O 0.0776 0.00519 0.50464 0.0
O431 O 0.04761 0.03367 0.46628 0.0
C432 C 0.97318 0.04182 0.42238 0.0
O433 O 0.99152 0.01799 0.424 0.0
O434 O 0.96653 0.05181 0.45246 0.0
C435 C 0.99349 0.95275 0.49023 0.0
Tb436 Tb 0.30883 0.78037 0.79664 0.0
C437 C 0.24541 0.78566 0.83552 0.0
Tb438 Tb 0.24019 0.77511 0.75611 0.0
O439 O 0.3105 0.83345 0.81814 0.0
O440 O 0.28288 0.81553 0.7712 0.0
O441 O 0.27535 0.77602 0.8366 0.0
C442 C 0.17905 0.77688 0.72647 0.0
O443 O 0.22862 0.79104 0.80681 0.0
C444 C 0.26126 0.71577 0.76116 0.0
C445 C 0.30234 0.77048 0.71607 0.0
O446 O 0.20651 0.79838 0.72221 0.0
O447 O 0.18609 0.75532 0.74786 0.0
O448 O 0.24185 0.72194 0.73552 0.0
O449 O 0.26545 0.74126 0.78333 0.0
O450 O 0.27176 0.77864 0.71489 0.0
O451 O 0.32056 0.76747 0.74495 0.0
C452 C 0.36303 0.76497 0.83118 0.0
O453 O 0.36364 0.79086 0.81267 0.0
O454 O 0.33227 0.74793 0.82969 0.0
C455 C 0.28871 0.84029 0.7947 0.0
Tb456 Tb 0.47821 0.01419 0.01147 0.0
C457 C 0.53586 0.9742 0.02945 0.0
Tb458 Tb 0.55123 0.0541 0.01643 0.0
O459 O 0.48566 0.9804 0.96717 0.0
O460 O 0.51286 0.03127 0.97713 0.0
O461 O 0.50411 0.97636 0.03341 0.0
C462 C 0.61634 0.0768 0.00936 0.0
O463 O 0.55728 0.99973 0.01861 0.0
C464 C 0.51872 0.06626 0.06887 0.0
C465 C 0.49326 0.0938 0.99694 0.0
O466 O 0.60501 0.06535 0.03653 0.0
O467 O 0.591 0.07579 0.98642 0.0
O468 O 0.54339 0.08857 0.06 0.0
O469 O 0.51632 0.03779 0.05092 0.0
O470 O 0.52561 0.09265 0.99458 0.0
O471 O 0.47174 0.06747 0.00634 0.0
C472 C 0.41424 0.99319 0.02359 0.0
O473 O 0.42364 0.99996 0.99422 0.0
O474 O 0.44079 0.99745 0.04556 0.0
C475 C 0.51017 0.00323 0.95853 0.0
Tb476 Tb 0.23034 0.27153 0.2948 0.0
C477 C 0.29861 0.29509 0.33925 0.0
Tb478 Tb 0.29222 0.2992 0.26204 0.0
O479 O 0.24744 0.22297 0.30477 0.0
O480 O 0.26329 0.2487 0.26417 0.0
O481 O 0.26668 0.29929 0.33613 0.0
C482 C 0.34975 0.31142 0.23389 0.0
O483 O 0.3144 0.29127 0.31217 0.0
C484 C 0.25417 0.34543 0.27688 0.0
C485 C 0.225 0.27319 0.21687 0.0
O486 O 0.34615 0.29844 0.26249 0.0
O487 O 0.321 0.31775 0.2213 0.0
O488 O 0.27328 0.34733 0.25266 0.0
O489 O 0.2604 0.32115 0.29364 0.0
O490 O 0.2572 0.27001 0.22059 0.0
O491 O 0.20866 0.27722 0.24359 0.0
C492 C 0.17365 0.26481 0.32509 0.0
O493 O 0.20011 0.25202 0.33426 0.0
O494 O 0.17859 0.28045 0.29806 0.0
C495 C 0.26837 0.22456 0.28206 0.0
Tb496 Tb 0.48946 0.52712 0.98874 0.0
C497 C 0.46529 0.5097 0.05795 0.0
Tb498 Tb 0.5402 0.50452 0.03999 0.0
O499 O 0.4596 0.47404 0.979 0.0
O500 O 0.51144 0.48278 0.99397 0.0
O501 O 0.46156 0.52906 0.03249 0.0
C502 C 0.57052 0.47101 0.08608 0.0
O503 O 0.49275 0.49571 0.06384 0.0
C504 C 0.54286 0.57176 0.04025 0.0
C505 C 0.56294 0.51824 0.96936 0.0
O506 O 0.53896 0.46305 0.07358 0.0
O507 O 0.58502 0.49784 0.07236 0.0
O508 O 0.56912 0.55849 0.04904 0.0
O509 O 0.51717 0.54812 0.03544 0.0
O510 O 0.56667 0.49966 0.99543 0.0
O511 O 0.53602 0.53302 0.9636 0.0
C512 C 0.46247 0.56574 0.94551 0.0
O513 O 0.44777 0.53553 0.9531 0.0
O514 O 0.4923 0.57413 0.96248 0.0
C515 C 0.48504 0.45976 0.9888 0.0
Tb516 Tb 0.80586 0.28012 0.29521 0.0
C517 C 0.74088 0.28408 0.33188 0.0
Tb518 Tb 0.73922 0.27809 0.25246 0.0
O519 O 0.80708 0.33242 0.31913 0.0
O520 O 0.78191 0.31725 0.27081 0.0
O521 O 0.7704 0.27353 0.33342 0.0
C522 C 0.67878 0.28052 0.22112 0.0
O523 O 0.72577 0.29167 0.30314 0.0
C524 C 0.75959 0.21804 0.25455 0.0
C525 C 0.8034 0.2773 0.21499 0.0
O526 O 0.68526 0.25803 0.24168 0.0
O527 O 0.70641 0.30258 0.21861 0.0
O528 O 0.74218 0.2265 0.22861 0.0
O529 O 0.76261 0.24184 0.27827 0.0
O530 O 0.77387 0.28781 0.21426 0.0
O531 O 0.81906 0.26917 0.2434 0.0
C532 C 0.85929 0.26423 0.33078 0.0
O533 O 0.82844 0.24716 0.3285 0.0
O534 O 0.8604 0.29018 0.3123 0.0
C535 C 0.78685 0.34086 0.29523 0.0
Tb536 Tb 0.97646 0.51108 0.51058 0.0
C537 C 0.0314 0.47169 0.53811 0.0
Tb538 Tb 0.04883 0.55066 0.52219 0.0
O539 O 0.98885 0.47577 0.47083 0.0
O540 O 0.0148 0.52748 0.47909 0.0
O541 O 0.99909 0.47419 0.53805 0.0
C542 C 0.11538 0.5755 0.5241 0.0
O543 O 0.05459 0.49696 0.52925 0.0
C544 C 0.01068 0.5619 0.57049 0.0
C545 C 0.99366 0.59028 0.49501 0.0
O546 O 0.0983 0.57369 0.54997 0.0
O547 O 0.09501 0.56312 0.49697 0.0
O548 O 0.03521 0.58511 0.56276 0.0
O549 O 0.0106 0.53353 0.55333 0.0
O550 O 0.02629 0.58879 0.49604 0.0
O551 O 0.97078 0.56398 0.50235 0.0
C552 C 0.90973 0.48969 0.51024 0.0
O553 O 0.92626 0.48917 0.48401 0.0
O554 O 0.93087 0.50174 0.5369 0.0
C555 C 0.01371 0.49831 0.46261 0.0
Tb556 Tb 0.77252 0.78883 0.28763 0.0
C557 C 0.77516 0.84413 0.23308 0.0
Tb558 Tb 0.74761 0.76457 0.21701 0.0
O559 O 0.81784 0.76557 0.28425 0.0
O560 O 0.79617 0.78509 0.24244 0.0
O561 O 0.77485 0.83885 0.26558 0.0
C562 C 0.73684 0.73161 0.15526 0.0
O563 O 0.7697 0.81773 0.20906 0.0
C564 C 0.7023 0.78737 0.25103 0.0
C565 C 0.74515 0.70944 0.27125 0.0
O566 O 0.7152 0.74664 0.16964 0.0
O567 O 0.76473 0.73558 0.17534 0.0
O568 O 0.70463 0.79055 0.21922 0.0
O569 O 0.72336 0.7694 0.26195 0.0
O570 O 0.74656 0.7149 0.23903 0.0
O571 O 0.74964 0.73572 0.29515 0.0
C572 C 0.78131 0.81864 0.35076 0.0
O573 O 0.80151 0.80072 0.33753 0.0
O574 O 0.75626 0.82014 0.3284 0.0
C575 C 0.81874 0.76864 0.25223 0.0
Tb576 Tb 0.77842 0.32413 0.77758 0.0
C577 C 0.82802 0.27416 0.76276 0.0
Tb578 Tb 0.74934 0.24744 0.76669 0.0
O579 O 0.81084 0.31789 0.82279 0.0
O580 O 0.76403 0.28426 0.80989 0.0
O581 O 0.82233 0.30618 0.76036 0.0
C582 C 0.732 0.17873 0.76796 0.0
O583 O 0.80373 0.24801 0.76799 0.0
C584 C 0.73916 0.28242 0.71424 0.0
C585 C 0.69905 0.29674 0.77929 0.0
O586 O 0.73823 0.19461 0.74133 0.0
O587 O 0.73582 0.20159 0.79399 0.0
O588 O 0.71823 0.25518 0.72064 0.0
O589 O 0.76546 0.28684 0.73513 0.0
O590 O 0.70488 0.26498 0.78262 0.0
O591 O 0.72366 0.32302 0.77508 0.0
C592 C 0.79448 0.3926 0.77328 0.0
O593 O 0.78961 0.37795 0.8009 0.0
O594 O 0.79037 0.36866 0.74814 0.0
C595 C 0.79142 0.28982 0.82974 0.0
Tb596 Tb 0.72541 0.77329 0.78413 0.0
C597 C 0.78999 0.79208 0.83536 0.0
Tb598 Tb 0.79192 0.80246 0.75933 0.0
O599 O 0.74095 0.72397 0.79344 0.0
O600 O 0.76113 0.75219 0.75596 0.0
O601 O 0.75816 0.79628 0.82982 0.0
C602 C 0.85269 0.81315 0.73717 0.0
O603 O 0.80879 0.79087 0.81015 0.0
C604 C 0.75369 0.84837 0.77448 0.0
C605 C 0.72808 0.78023 0.70726 0.0
O606 O 0.84481 0.79675 0.76309 0.0
O607 O 0.82651 0.82442 0.72436 0.0
O608 O 0.77497 0.85225 0.7522 0.0
O609 O 0.75775 0.8222 0.7892 0.0
O610 O 0.7605 0.77833 0.71335 0.0
O611 O 0.70868 0.78161 0.73204 0.0
C612 C 0.6665 0.76527 0.81048 0.0
O613 O 0.67634 0.78815 0.78999 0.0
O614 O 0.68914 0.74604 0.81474 0.0
C615 C 0.76394 0.72665 0.77279 0.0
Tb616 Tb 0.53397 0.5694 0.50495 0.0
C617 C 0.53231 0.50518 0.45379 0.0
Tb618 Tb 0.50447 0.49706 0.5231 0.0
O619 O 0.58641 0.56164 0.50825 0.0
O620 O 0.55205 0.53163 0.53411 0.0
O621 O 0.52601 0.53721 0.4568 0.0
C622 C 0.49221 0.4342 0.54559 0.0
O623 O 0.52966 0.48502 0.47884 0.0
C624 C 0.45866 0.53455 0.50275 0.0
C625 C 0.50824 0.56057 0.57534 0.0
O626 O 0.49398 0.43986 0.51409 0.0
O627 O 0.49762 0.46365 0.56396 0.0
O628 O 0.45266 0.50874 0.52103 0.0
O629 O 0.48732 0.53442 0.49297 0.0
O630 O 0.51379 0.52838 0.57156 0.0
O631 O 0.51031 0.58095 0.55047 0.0
C632 C 0.54397 0.63294 0.48415 0.0
O633 O 0.53809 0.62591 0.51449 0.0
O634 O 0.54397 0.60436 0.46576 0.0
C635 C 0.58112 0.53397 0.52415 0.0
Tb636 Tb 0.0524 0.5329 0.00773 0.0
C637 C 0.02026 0.50347 0.07277 0.0
Tb638 Tb 0.97857 0.532 0.01538 0.0
O639 O 0.06478 0.58918 0.01869 0.0
O640 O 0.02519 0.55982 0.04041 0.0
O641 O 0.0437 0.50262 0.05163 0.0
C642 C 0.91815 0.54952 0.01901 0.0
O643 O 0.99399 0.51875 0.06571 0.0
C644 C 0.99191 0.4751 0.98535 0.0
C645 C 0.01042 0.5646 0.95148 0.0
O646 O 0.92369 0.51797 0.0166 0.0
O647 O 0.94672 0.57115 0.0201 0.0
O648 O 0.96685 0.47556 0.00327 0.0
O649 O 1.00586 0.5058 0.98245 0.0
O650 O 0.98535 0.56122 0.97098 0.0
O651 O 0.03874 0.55241 0.95915 0.0
C652 C 0.11022 0.5092 0.00404 0.0
O653 O 0.10739 0.53813 0.0206 0.0
O654 O 0.08077 0.49451 0.98857 0.0
C655 C 0.03972 0.59031 0.03674 0.0
C656 C 0.0439 0.22263 0.96612 0.0
C657 C 0.04419 0.22227 0.93091 0.0
H658 H 0.04718 0.19369 0.00925 0.0
C659 C 0.05304 0.19402 0.91261 0.0
H660 H 0.03715 0.24434 0.98063 0.0
C661 C 0.05792 0.16481 0.92882 0.0
C662 C 0.05482 0.16409 0.96352 0.0
H663 H 0.05316 0.19322 0.88541 0.0
H664 H 0.06214 0.14206 0.91387 0.0
C665 C 0.04963 0.19379 0.98246 0.0
C666 C 0.12584 0.82778 0.24874 0.0
C667 C 0.10189 0.79669 0.24125 0.0
H668 H 0.17632 0.85171 0.26904 0.0
C669 C 0.10854 0.76663 0.25536 0.0
H670 H 0.12126 0.85135 0.23823 0.0
C671 C 0.14052 0.76658 0.27264 0.0
C672 C 0.16613 0.79669 0.27617 0.0
H673 H 0.09059 0.74225 0.24977 0.0
H674 H 0.14609 0.74216 0.28025 0.0
C675 C 0.15753 0.82787 0.2663 0.0
C676 C 0.48489 0.91457 0.40222 0.0
C677 C 0.51009 0.89633 0.41325 0.0
H678 H 0.45933 0.95661 0.41325 0.0
C679 C 0.53099 0.90841 0.44358 0.0
H680 H 0.46812 0.90524 0.37916 0.0
C681 C 0.52516 0.93707 0.46373 0.0
C682 C 0.49895 0.95443 0.45332 0.0
H683 H 0.54991 0.89409 0.45298 0.0
H684 H 0.54002 0.9445 0.48815 0.0
C685 C 0.4796 0.94361 0.42191 0.0
C686 C 0.41813 0.31576 0.74508 0.0
C687 C 0.42128 0.2861 0.72444 0.0
H688 H 0.38793 0.33988 0.77717 0.0
C689 C 0.39419 0.25727 0.72007 0.0
H690 H 0.43826 0.33852 0.74903 0.0
C691 C 0.36475 0.25823 0.73619 0.0
C692 C 0.3622 0.28785 0.75727 0.0
H693 H 0.39567 0.23408 0.70415 0.0
H694 H 0.34435 0.23571 0.73263 0.0
C695 C 0.38916 0.31655 0.76131 0.0
C696 C 0.0153 0.87972 0.53857 0.0
C697 C 0.98309 0.85924 0.5396 0.0
H698 H 0.04383 0.92514 0.52128 0.0
C699 C 0.95449 0.86896 0.52285 0.0
H700 H 0.03784 0.87276 0.55103 0.0
C701 C 0.95798 0.89905 0.50606 0.0
C702 C 0.99009 0.91981 0.50571 0.0
H703 H 0.92935 0.85366 0.52316 0.0
H704 H 0.93548 0.90644 0.49398 0.0
C705 C 0.01876 0.90965 0.52158 0.0
C706 C 0.40813 0.73716 0.90811 0.0
C707 C 0.44103 0.75634 0.90846 0.0
H708 H 0.35788 0.72409 0.88249 0.0
C709 C 0.44914 0.77581 0.88126 0.0
H710 H 0.40138 0.72175 0.92866 0.0
C711 C 0.42403 0.77779 0.85512 0.0
C712 C 0.39083 0.75961 0.85555 0.0
H713 H 0.47441 0.79086 0.88106 0.0
H714 H 0.43031 0.79425 0.83521 0.0
C715 C 0.38334 0.73842 0.88163 0.0
C716 C 0.44262 0.16091 0.01804 0.0
C717 C 0.46874 0.1902 0.0248 0.0
H718 H 0.42966 0.10666 0.00204 0.0
C719 C 0.49949 0.18983 0.01124 0.0
H720 H 0.41851 0.16085 0.02786 0.0
C721 C 0.50634 0.15848 0.99719 0.0
C722 C 0.48223 0.12761 0.99632 0.0
H723 H 0.51996 0.21228 0.01593 0.0
H724 H 0.53177 0.15783 0.99104 0.0
C725 C 0.44922 0.12979 0.0035 0.0
C726 C 0.09621 0.29081 0.35781 0.0
C727 C 0.09619 0.27633 0.38897 0.0
H728 H 0.12076 0.29824 0.31289 0.0
C729 C 0.12089 0.25661 0.39796 0.0
H730 H 0.07746 0.30603 0.35009 0.0
C731 C 0.14536 0.25191 0.37654 0.0
C732 C 0.14568 0.26686 0.34573 0.0
H733 H 0.12148 0.24491 0.42166 0.0
H734 H 0.16442 0.23709 0.38442 0.0
C735 C 0.1208 0.28616 0.3364 0.0
C736 C 0.99275 0.07114 0.16346 0.0
C737 C 0.95875 0.07523 0.15849 0.0
H738 H 0.03738 0.06601 0.14034 0.0
C739 C 0.94676 0.08687 0.12805 0.0
H740 H 1.00296 0.06293 0.187 0.0
C741 C 0.96722 0.08971 0.10148 0.0
C742 C 0.99931 0.0803 0.10513 0.0
H743 H 0.92076 0.0904 0.12363 0.0
H744 H 0.95658 0.09554 0.07714 0.0
C745 C 0.01268 0.0732 0.13691 0.0
C746 C 0.29853 0.78463 0.43019 0.0
C747 C 0.3061 0.75104 0.43116 0.0
H748 H 0.2855 0.82393 0.39997 0.0
C749 C 0.30842 0.73198 0.40043 0.0
H750 H 0.29663 0.80015 0.45336 0.0
C751 C 0.30174 0.74581 0.36943 0.0
C752 C 0.29275 0.77887 0.36877 0.0
H753 H 0.31376 0.70592 0.40026 0.0
H754 H 0.30286 0.73034 0.34601 0.0
C755 C 0.29192 0.79829 0.39953 0.0
C756 C 0.50639 0.98374 0.66258 0.0
C757 C 0.5378 0.9758 0.67447 0.0
H758 H 0.47555 0.9974 0.62099 0.0
C759 C 0.56046 0.97015 0.65095 0.0
H760 H 0.48824 0.98804 0.67999 0.0
C761 C 0.55326 0.97581 0.61694 0.0
C762 C 0.52322 0.98709 0.60581 0.0
H763 H 0.58492 0.96416 0.65925 0.0
H764 H 0.57224 0.97347 0.59995 0.0
C765 C 0.49918 0.9893 0.62869 0.0
C766 C 0.31503 0.3313 0.96788 0.0
C767 C 0.29146 0.3503 0.97969 0.0
H768 H 0.3308 0.30459 0.92524 0.0
C769 C 0.26484 0.35644 0.95698 0.0
H770 H 0.33582 0.32615 0.98481 0.0
C771 C 0.26198 0.34396 0.923 0.0
C772 C 0.28573 0.3253 0.91129 0.0
H773 H 0.24624 0.3709 0.96539 0.0
H774 H 0.24137 0.34917 0.90586 0.0
C775 C 0.31218 0.31891 0.93388 0.0
C776 C 0.96905 0.05457 0.33111 0.0
C777 C 0.93528 0.0581 0.32388 0.0
H778 H 0.00761 0.04724 0.36877 0.0
C779 C 0.9159 0.06363 0.35046 0.0
H780 H 0.98447 0.05065 0.3109 0.0
C781 C 0.92927 0.06168 0.38391 0.0
C782 C 0.96183 0.0541 0.3904 0.0
H783 H 0.8897 0.06625 0.34519 0.0
H784 H 0.91326 0.06296 0.40405 0.0
C785 C 0.98221 0.05253 0.36412 0.0
C786 C 0.30033 0.72006 0.6312 0.0
C787 C 0.32998 0.73663 0.6191 0.0
H788 H 0.26769 0.71947 0.67033 0.0
C789 C 0.35206 0.7634 0.6402 0.0
H790 H 0.28223 0.70031 0.61502 0.0
C791 C 0.34428 0.77354 0.67274 0.0
C792 C 0.31342 0.75834 0.68368 0.0
H793 H 0.37446 0.77744 0.63096 0.0
H794 H 0.3613 0.79453 0.68843 0.0
C795 C 0.2918 0.73132 0.66272 0.0
C796 C 0.55907 0.02818 0.88556 0.0
C797 C 0.55528 0.99641 0.86539 0.0
H798 H 0.54781 0.05507 0.93032 0.0
C799 C 0.53871 0.96587 0.87739 0.0
H800 H 0.57182 0.05216 0.87704 0.0
C801 C 0.52454 0.96764 0.90825 0.0
C802 C 0.52724 0.99987 0.92755 0.0
H803 H 0.53522 0.94111 0.86223 0.0
H804 H 0.51081 0.94405 0.91658 0.0
C805 C 0.54538 0.02987 0.91621 0.0
C806 C 0.21557 0.33874 0.15859 0.0
C807 C 0.23157 0.32505 0.13243 0.0
H808 H 0.19792 0.33043 0.20673 0.0
C809 C 0.23222 0.28927 0.12927 0.0
H810 H 0.21437 0.36614 0.16129 0.0
C811 C 0.22299 0.26902 0.15517 0.0
C812 C 0.21308 0.28441 0.18443 0.0
H813 H 0.24362 0.2779 0.10872 0.0
H814 H 0.22844 0.24295 0.1545 0.0
C815 C 0.20591 0.31817 0.18445 0.0
C816 C 0.12274 0.95188 0.03733 0.0
C817 C 0.15354 0.95989 0.02298 0.0
H818 H 0.07685 0.969 0.04926 0.0
C819 C 0.1619 0.99283 0.01117 0.0
H820 H 0.11545 0.9268 0.04677 0.0
C821 C 0.14028 0.01673 0.01296 0.0
C822 C 0.10922 0.00876 0.02643 0.0
H823 H 0.18532 0.00037 0.00021 0.0
H824 H 0.14783 0.04154 0.00305 0.0
C825 C 0.1007 0.97609 0.03895 0.0
C826 C 0.65255 0.5389 0.94851 0.0
C827 C 0.64954 0.56423 0.92592 0.0
H828 H 0.62687 0.50393 0.98021 0.0
C829 C 0.61713 0.56585 0.91039 0.0
H830 H 0.67716 0.53656 0.96057 0.0
C831 C 0.58824 0.54734 0.92189 0.0
C832 C 0.59138 0.5267 0.94882 0.0
H833 H 0.61396 0.58455 0.89232 0.0
H834 H 0.56368 0.55204 0.912 0.0
C835 C 0.62361 0.52032 0.95999 0.0
C836 C 0.72683 0.40394 0.27952 0.0
C837 C 0.73034 0.4232 0.31148 0.0
H838 H 0.74215 0.36312 0.24908 0.0
C839 C 0.75306 0.4154 0.33744 0.0
H840 H 0.70962 0.40922 0.25886 0.0
C841 C 0.77159 0.38904 0.33173 0.0
C842 C 0.76788 0.36965 0.29995 0.0
H843 H 0.75647 0.42954 0.36234 0.0
H844 H 0.7886 0.38358 0.35248 0.0
C845 C 0.7454 0.37745 0.27384 0.0
C846 C 0.82265 0.43775 0.48111 0.0
C847 C 0.80765 0.43717 0.51137 0.0
H848 H 0.86673 0.4555 0.45701 0.0
C849 C 0.82467 0.45783 0.54041 0.0
H850 H 0.80999 0.4217 0.45851 0.0
C851 C 0.8576 0.47658 0.5398 0.0
C852 C 0.87346 0.4751 0.51002 0.0
H853 H 0.81372 0.45721 0.56414 0.0
H854 H 0.87123 0.49071 0.56296 0.0
C855 C 0.85517 0.45684 0.48035 0.0
C856 C 0.34161 0.18247 0.25417 0.0
C857 C 0.34206 0.15631 0.27651 0.0
H858 H 0.31802 0.22461 0.23801 0.0
C859 C 0.31804 0.15327 0.29998 0.0
H860 H 0.35965 0.18572 0.23575 0.0
C861 C 0.2944 0.17525 0.30114 0.0
C862 C 0.29371 0.20125 0.27893 0.0
H863 H 0.31734 0.13371 0.31772 0.0
H864 H 0.27661 0.17188 0.3198 0.0
C865 C 0.31768 0.20471 0.25537 0.0
C866 C 0.35408 0.10493 0.52885 0.0
C867 C 0.32432 0.08187 0.51491 0.0
H868 H 0.40682 0.1113 0.54588 0.0
C869 C 0.32429 0.04601 0.51074 0.0
H870 H 0.35459 0.13265 0.53285 0.0
C871 C 0.3544 0.03377 0.51791 0.0
C872 C 0.38458 0.05724 0.52988 0.0
H873 H 0.30155 0.02773 0.50019 0.0
H874 H 0.35441 0.0063 0.51254 0.0
C875 C 0.38389 0.09268 0.53657 0.0
C876 C 0.72284 0.61077 0.26304 0.0
C877 C 0.70417 0.60487 0.29058 0.0
H878 H 0.75035 0.64879 0.23512 0.0
C879 C 0.70264 0.63309 0.31389 0.0
H880 H 0.72364 0.58952 0.24429 0.0
C881 C 0.7181 0.66693 0.30889 0.0
C882 C 0.7345 0.67329 0.27989 0.0
H883 H 0.6877 0.6292 0.33489 0.0
H884 H 0.71512 0.6883 0.3265 0.0
C885 C 0.73769 0.64474 0.25759 0.0
C886 C 0.83246 0.47556 0.73841 0.0
C887 C 0.84966 0.49498 0.76801 0.0
H888 H 0.80119 0.42716 0.71692 0.0
C889 C 0.84432 0.48279 0.79953 0.0
H890 H 0.83686 0.48428 0.71384 0.0
C891 C 0.82374 0.45048 0.80138 0.0
C892 C 0.80902 0.42955 0.77164 0.0
H893 H 0.85787 0.49723 0.8226 0.0
H894 H 0.82155 0.4408 0.82592 0.0
C895 C 0.81238 0.44286 0.7402 0.0
C896 C 0.99306 0.87732 0.12062 0.0
C897 C 0.99849 0.84754 0.10194 0.0
H898 H 0.98852 0.93078 0.11965 0.0
C899 C 0.9979 0.84684 0.06661 0.0
H900 H 0.99383 0.87847 0.14792 0.0
C901 C 0.99427 0.87639 0.05039 0.0
C902 C 0.99215 0.90721 0.06949 0.0
H903 H 1.00221 0.82403 0.05182 0.0
H904 H 0.99573 0.87586 0.02339 0.0
C905 C 0.99033 0.9072 0.1045 0.0
C906 C 0.90307 0.23487 0.7902 0.0
C907 C 0.92907 0.26446 0.79474 0.0
H908 H 0.85057 0.2144 0.77544 0.0
C909 C 0.92329 0.29481 0.7806 0.0
H910 H 0.90697 0.21107 0.80069 0.0
C911 C 0.89066 0.29701 0.76658 0.0
C912 C 0.86355 0.26877 0.76625 0.0
H913 H 0.94288 0.31804 0.78383 0.0
H914 H 0.8862 0.3218 0.75891 0.0
C915 C 0.87065 0.23691 0.77586 0.0
C916 C 0.54902 0.15176 0.62426 0.0
C917 C 0.52418 0.17078 0.61416 0.0
H918 H 0.57285 0.10868 0.61222 0.0
C919 C 0.50227 0.15917 0.58434 0.0
H920 H 0.56656 0.16068 0.64689 0.0
C921 C 0.50661 0.13005 0.56382 0.0
C922 C 0.5324 0.11183 0.57333 0.0
H923 H 0.48362 0.17412 0.57562 0.0
H924 H 0.49109 0.12305 0.53973 0.0
C925 C 0.55286 0.12233 0.60422 0.0
C926 C 0.6389 0.79225 0.31518 0.0
C927 C 0.61456 0.8077 0.29728 0.0
H928 H 0.68583 0.77358 0.3147 0.0
C929 C 0.62049 0.81778 0.26504 0.0
H930 H 0.6352 0.78417 0.3401 0.0
C931 C 0.64941 0.81183 0.25069 0.0
C932 C 0.67318 0.79547 0.26806 0.0
H933 H 0.6025 0.82987 0.25055 0.0
H934 H 0.65282 0.81955 0.22559 0.0
C935 C 0.66791 0.78614 0.30068 0.0
C936 C 0.0316 0.16445 0.55688 0.0
C937 C 0.02888 0.17404 0.52369 0.0
H938 H 0.03772 0.1236 0.58844 0.0
C939 C 0.03016 0.14962 0.4965 0.0
H940 H 0.0305 0.18298 0.57814 0.0
C941 C 0.03288 0.11568 0.50225 0.0
C942 C 0.03558 0.10603 0.53535 0.0
H943 H 0.02769 0.15641 0.47068 0.0
H944 H 0.03296 0.09702 0.4808 0.0
C945 C 0.03565 0.13071 0.56273 0.0
C946 C 0.60913 0.29747 0.15764 0.0
C947 C 0.5843 0.26748 0.15865 0.0
H948 H 0.65913 0.3253 0.17694 0.0
C949 C 0.59079 0.24276 0.1808 0.0
H950 H 0.60469 0.31703 0.14093 0.0
C951 C 0.62123 0.24783 0.20158 0.0
C952 C 0.64615 0.27747 0.20042 0.0
H953 H 0.57215 0.21953 0.18253 0.0
H954 H 0.62535 0.22816 0.21829 0.0
C955 C 0.64007 0.30231 0.17829 0.0
C956 C 0.56585 0.89107 0.00687 0.0
C957 C 0.54685 0.86858 0.02676 0.0
H958 H 0.57758 0.94306 0.99246 0.0
C959 C 0.53063 0.88297 0.05248 0.0
H960 H 0.57875 0.88081 0.98693 0.0
C961 C 0.52973 0.91837 0.05538 0.0
C962 C 0.54547 0.94014 0.03299 0.0
H963 H 0.51624 0.86649 0.06865 0.0
H964 H 0.51472 0.92824 0.07361 0.0
C965 C 0.56523 0.92673 0.01004 0.0
C966 C 0.92404 0.77433 0.70867 0.0
C967 C 0.92592 0.78583 0.67632 0.0
H968 H 0.90007 0.77522 0.75395 0.0
C969 C 0.90729 0.81093 0.66633 0.0
H970 H 0.93876 0.75555 0.71729 0.0
C971 C 0.88493 0.82216 0.68744 0.0
C972 C 0.88154 0.80878 0.71885 0.0
H973 H 0.90865 0.82041 0.64162 0.0
H974 H 0.86905 0.83979 0.67846 0.0
C975 C 0.90224 0.78592 0.72986 0.0
C976 C 0.09973 0.97956 0.90008 0.0
C977 C 0.08394 0.9855 0.86868 0.0
H978 H 0.09602 0.97929 0.95347 0.0
C979 C 0.04967 0.98899 0.86619 0.0
H980 H 0.12604 0.97681 0.9028 0.0
C981 C 0.03301 0.99123 0.89498 0.0
C982 C 0.04979 0.98886 0.92677 0.0
H983 H 0.0365 0.99297 0.84224 0.0
H984 H 0.00779 0.99728 0.89268 0.0
C985 C 0.08257 0.98103 0.92903 0.0
C986 C 0.76211 0.33432 0.64128 0.0
C987 C 0.73108 0.32895 0.62039 0.0
H988 H 0.78884 0.32428 0.68737 0.0
C989 C 0.70187 0.31078 0.63207 0.0
H990 H 0.78504 0.34835 0.63295 0.0
C991 C 0.70422 0.29638 0.6632 0.0
C992 C 0.73568 0.30052 0.68327 0.0
H993 H 0.67772 0.30607 0.61639 0.0
H994 H 0.68165 0.28125 0.67117 0.0
C995 C 0.76433 0.32056 0.67246 0.0
C996 C 0.51883 0.08479 0.36356 0.0
C997 C 0.48734 0.09357 0.35303 0.0
H998 H 0.55066 0.06964 0.40365 0.0
C999 C 0.46582 0.09921 0.37761 0.0
H1000 H 0.53612 0.08039 0.34527 0.0
C1001 C 0.47414 0.0928 0.41126 0.0
C1002 C 0.50421 0.08073 0.42105 0.0
H1003 H 0.44133 0.10571 0.37038 0.0
H1004 H 0.45593 0.09529 0.42907 0.0
C1005 C 0.52717 0.07846 0.39711 0.0
C1006 C 0.69487 0.6955 0.06847 0.0
C1007 C 0.72062 0.68077 0.05521 0.0
H1008 H 0.68003 0.72339 0.11093 0.0
C1009 C 0.75093 0.6811 0.0759 0.0
H1010 H 0.67119 0.69549 0.05315 0.0
C1011 C 0.75598 0.69722 0.10879 0.0
C1012 C 0.73075 0.71305 0.12146 0.0
H1013 H 0.77121 0.66988 0.0664 0.0
H1014 H 0.77987 0.6979 0.12404 0.0
C1015 C 0.69993 0.71154 0.10142 0.0
C1016 C 0.13132 0.97987 0.6704 0.0
C1017 C 0.10782 0.97384 0.69391 0.0
H1018 H 0.13792 0.98397 0.61813 0.0
C1019 C 0.07381 0.95954 0.68268 0.0
H1020 H 0.15765 0.99113 0.67878 0.0
C1021 C 0.06269 0.95459 0.64818 0.0
C1022 C 0.08533 0.96513 0.62476 0.0
H1023 H 0.0554 0.95481 0.70064 0.0
H1024 H 0.0358 0.94618 0.64023 0.0
C1025 C 0.12004 0.9758 0.63584 0.0
C1026 C 0.70266 0.32719 0.40365 0.0
C1027 C 0.70817 0.30591 0.4297 0.0
H1028 H 0.70831 0.33667 0.35187 0.0
C1029 C 0.71998 0.27496 0.42144 0.0
H1030 H 0.69391 0.35132 0.40902 0.0
C1031 C 0.72917 0.26725 0.38923 0.0
C1032 C 0.72584 0.28961 0.36393 0.0
H1033 H 0.7244 0.25769 0.44058 0.0
H1034 H 0.74006 0.24431 0.38447 0.0
C1035 C 0.71112 0.31891 0.37095 0.0
C1036 C 0.46784 0.04649 0.14202 0.0
C1037 C 0.47178 0.07927 0.1605 0.0
H1038 H 0.48047 0.01664 0.09974 0.0
C1039 C 0.48899 0.10861 0.14712 0.0
H1040 H 0.4552 0.02331 0.15202 0.0
C1041 C 0.50334 0.10471 0.11653 0.0
C1042 C 0.50077 0.07146 0.0991 0.0
H1043 H 0.49309 0.13403 0.16119 0.0
H1044 H 0.51749 0.12748 0.10718 0.0
C1045 C 0.48226 0.04261 0.11191 0.0
C1046 C 0.79791 0.71982 0.88566 0.0
C1047 C 0.77668 0.72739 0.90988 0.0
H1048 H 0.82167 0.73724 0.84279 0.0
C1049 C 0.77188 0.76173 0.9163 0.0
H1050 H 0.80258 0.69367 0.88082 0.0
C1051 C 0.7832 0.78665 0.89501 0.0
C1052 C 0.79874 0.77718 0.86675 0.0
H1053 H 0.7566 0.76849 0.93575 0.0
H1054 H 0.77529 0.81158 0.89769 0.0
C1055 C 0.80925 0.74493 0.86422 0.0
C1056 C 0.89439 0.09111 0.01842 0.0
C1057 C 0.90411 0.11994 0.00028 0.0
H1058 H 0.90512 0.04282 0.03421 0.0
C1059 C 0.93343 0.12104 0.98342 0.0
H1060 H 0.87204 0.08908 0.03164 0.0
C1061 C 0.95252 0.09438 0.98495 0.0
C1062 C 0.94284 0.06575 0.00328 0.0
H1063 H 0.94184 0.14269 0.9691 0.0
H1064 H 0.97498 0.09632 0.97196 0.0
C1065 C 0.91335 0.06439 0.01974 0.0
C1066 C 0.37555 0.49267 0.08019 0.0
C1067 C 0.37677 0.46559 0.10108 0.0
H1068 H 0.40294 0.52826 0.05015 0.0
C1069 C 0.40866 0.45955 0.11403 0.0
H1070 H 0.35148 0.49829 0.06999 0.0
C1071 C 0.43821 0.47654 0.1024 0.0
C1072 C 0.43643 0.50007 0.0778 0.0
H1073 H 0.41059 0.43925 0.13061 0.0
H1074 H 0.46199 0.469 0.11061 0.0
C1075 C 0.40515 0.50972 0.06858 0.0
C1076 C 0.30382 0.64248 0.73059 0.0
C1077 C 0.31756 0.63246 0.76115 0.0
H1078 H 0.27429 0.67588 0.70682 0.0
C1079 C 0.31171 0.64945 0.79183 0.0
H1080 H 0.30762 0.62975 0.70657 0.0
C1081 C 0.29324 0.67637 0.79191 0.0
C1082 C 0.27991 0.68662 0.76137 0.0
H1083 H 0.32187 0.64233 0.81588 0.0
H1084 H 0.28911 0.68893 0.81587 0.0
C1085 C 0.28478 0.66895 0.73075 0.0
C1086 C 0.20185 0.61 0.49745 0.0
C1087 C 0.21642 0.63354 0.52562 0.0
H1088 H 0.1577 0.57335 0.47458 0.0
C1089 C 0.19864 0.63558 0.55402 0.0
H1090 H 0.21501 0.60818 0.47517 0.0
C1091 C 0.16646 0.61531 0.55396 0.0
C1092 C 0.15101 0.59323 0.52517 0.0
H1093 H 0.20939 0.65347 0.57608 0.0
H1094 H 0.15308 0.61808 0.57597 0.0
C1095 C 0.16912 0.59028 0.49706 0.0
C1096 C 0.69093 0.90831 0.75911 0.0
C1097 C 0.67388 0.90623 0.78826 0.0
H1098 H 0.72997 0.89225 0.73226 0.0
C1099 C 0.68349 0.88496 0.81282 0.0
H1100 H 0.68437 0.92461 0.73978 0.0
C1101 C 0.70945 0.86626 0.80832 0.0
C1102 C 0.72666 0.86868 0.77937 0.0
H1103 H 0.67093 0.88271 0.83554 0.0
H1104 H 0.71618 0.85003 0.82765 0.0
C1105 C 0.71722 0.88998 0.75487 0.0
C1106 C 0.69106 0.986 0.52735 0.0
C1107 C 0.68786 0.95414 0.50746 0.0
H1108 H 0.66922 0.03073 0.53887 0.0
C1109 C 0.66124 0.9449 0.48099 0.0
H1110 H 0.71148 0.99407 0.5477 0.0
C1111 C 0.63719 0.96602 0.47583 0.0
C1112 C 0.63938 0.99682 0.49696 0.0
H1113 H 0.65821 0.92072 0.46496 0.0
H1114 H 0.61599 0.95734 0.45638 0.0
C1115 C 0.66704 0.00716 0.52211 0.0
C1116 C 0.31779 0.4487 0.76242 0.0
C1117 C 0.34165 0.45198 0.73896 0.0
H1118 H 0.28314 0.41357 0.78717 0.0
C1119 C 0.34585 0.42219 0.71925 0.0
H1120 H 0.3146 0.47128 0.77831 0.0
C1121 C 0.32752 0.38945 0.72381 0.0
C1122 C 0.30542 0.38573 0.74893 0.0
H1123 H 0.36443 0.42409 0.70131 0.0
H1124 H 0.33233 0.36682 0.70911 0.0
C1125 C 0.3001 0.41572 0.7677 0.0
C1126 C 0.16444 0.61331 0.31119 0.0
C1127 C 0.16498 0.58477 0.28794 0.0
H1128 H 0.18636 0.66606 0.32908 0.0
C1129 C 0.1908 0.58643 0.2667 0.0
H1130 H 0.14481 0.61237 0.32797 0.0
C1131 C 0.21417 0.61745 0.2668 0.0
C1132 C 0.21233 0.64663 0.28875 0.0
H1133 H 0.19152 0.56463 0.24855 0.0
H1134 H 0.23265 0.6191 0.24876 0.0
C1135 C 0.18824 0.64389 0.31191 0.0
C1136 C 0.52708 0.72238 0.47225 0.0
C1137 C 0.53575 0.72633 0.43929 0.0
H1138 H 0.52358 0.68959 0.51274 0.0
C1139 C 0.55125 0.70137 0.42317 0.0
H1140 H 0.51533 0.74143 0.48535 0.0
C1141 C 0.55553 0.6716 0.4387 0.0
C1142 C 0.54496 0.66674 0.47075 0.0
H1143 H 0.55817 0.70375 0.39779 0.0
H1144 H 0.56583 0.65174 0.42504 0.0
C1145 C 0.53189 0.69287 0.48799 0.0
C1146 C 0.60448 0.2726 0.7542 0.0
C1147 C 0.59929 0.30086 0.73618 0.0
H1148 H 0.64057 0.24912 0.78267 0.0
C1149 C 0.62482 0.33086 0.73987 0.0
H1150 H 0.58533 0.24904 0.75159 0.0
C1151 C 0.65638 0.33109 0.75783 0.0
C1152 C 0.66327 0.30103 0.77191 0.0
H1153 H 0.62144 0.35304 0.72626 0.0
H1154 H 0.67627 0.35364 0.75763 0.0
C1155 C 0.63631 0.27261 0.77182 0.0
C1156 C 0.02228 0.41583 0.91978 0.0
C1157 C 1.00326 0.38345 0.92514 0.0
H1158 H 0.0331 0.47098 0.93448 0.0
C1159 C 0.98255 0.38163 0.95161 0.0
H1160 H 0.03844 0.41794 0.89962 0.0
C1161 C 0.97984 0.4114 0.97151 0.0
C1162 C 0.99763 0.44391 0.96547 0.0
H1163 H 0.96799 0.35701 0.95691 0.0
H1164 H 0.96326 0.40895 0.99132 0.0
C1165 C 0.01926 0.44602 0.93973 0.0
C1166 C 0.87561 0.76884 0.18186 0.0
C1167 C 0.90447 0.75848 0.19756 0.0
H1168 H 0.82639 0.78051 0.1868 0.0
C1169 C 0.90422 0.75 0.23119 0.0
H1170 H 0.87478 0.77569 0.15606 0.0
C1171 C 0.87605 0.75242 0.24876 0.0
C1172 C 0.84768 0.76369 0.2332 0.0
H1173 H 0.92594 0.74193 0.2441 0.0
H1174 H 0.87679 0.74615 0.27474 0.0
C1175 C 0.84773 0.77159 0.19949 0.0
C1176 C 0.50933 0.38259 0.02821 0.0
C1177 C 0.47758 0.36374 0.03362 0.0
H1178 H 0.53638 0.42739 0.00868 0.0
C1179 C 0.44804 0.37513 0.02135 0.0
H1180 H 0.53252 0.37423 0.03703 0.0
C1181 C 0.45031 0.40577 0.00539 0.0
C1182 C 0.48214 0.42526 0.00129 0.0
H1183 H 0.4232 0.36104 0.02504 0.0
H1184 H 0.42726 0.41479 0.99735 0.0
C1185 C 0.51155 0.41293 0.01191 0.0
C1186 C 0.94428 0.27614 0.38314 0.0
C1187 C 0.93573 0.25668 0.41025 0.0
H1188 H 0.9264 0.29407 0.33649 0.0
C1189 C 0.90279 0.2373 0.40924 0.0
H1190 H 0.96955 0.29133 0.38333 0.0
C1191 C 0.8785 0.23824 0.38215 0.0
C1192 C 0.88652 0.25921 0.35602 0.0
H1193 H 0.89565 0.22184 0.42965 0.0
H1194 H 0.85301 0.22373 0.38246 0.0
C1195 C 0.91971 0.27771 0.35637 0.0
C1196 C 0.94441 0.65789 0.51716 0.0
C1197 C 0.97117 0.68629 0.52598 0.0
H1198 H 0.93022 0.60455 0.49787 0.0
C1199 C 1.00217 0.68597 0.51292 0.0
H1200 H 0.92014 0.65785 0.52661 0.0
C1201 C 0.00843 0.65503 0.49728 0.0
C1202 C 0.9835 0.62455 0.49437 0.0
H1203 H 0.02314 0.70778 0.51924 0.0
H1204 H 0.03398 0.65405 0.49171 0.0
C1205 C 0.95039 0.62727 0.50087 0.0
C1206 C 0.61497 0.75058 0.88342 0.0
C1207 C 0.59596 0.77716 0.8818 0.0
H1208 H 0.65154 0.72544 0.86143 0.0
C1209 C 0.59821 0.79794 0.85465 0.0
H1210 H 0.61352 0.73385 0.90379 0.0
C1211 C 0.62003 0.79304 0.8303 0.0
C1212 C 0.63965 0.76706 0.83257 0.0
H1213 H 0.58373 0.81851 0.85262 0.0
H1214 H 0.62232 0.81024 0.81035 0.0
C1215 C 0.63649 0.7455 0.85897 0.0
C1216 C 0.44846 0.5814 0.63724 0.0
C1217 C 0.46479 0.57253 0.66717 0.0
H1218 H 0.45032 0.58533 0.58392 0.0
C1219 C 0.49828 0.56687 0.66738 0.0
H1220 H 0.42273 0.58591 0.63628 0.0
C1221 C 0.51362 0.566 0.63767 0.0
C1222 C 0.49627 0.57177 0.60724 0.0
H1223 H 0.51193 0.56062 0.69014 0.0
H1224 H 0.53829 0.55872 0.6381 0.0
C1225 C 0.46426 0.58115 0.60736 0.0
C1226 C 0.83806 0.2651 0.90906 0.0
C1227 C 0.81342 0.23953 0.91972 0.0
H1228 H 0.85048 0.3006 0.87192 0.0
C1229 C 0.78249 0.22829 0.89888 0.0
H1230 H 0.86159 0.27511 0.92511 0.0
C1231 C 0.77559 0.24355 0.86894 0.0
C1232 C 0.79956 0.27037 0.85911 0.0
H1233 H 0.76256 0.20948 0.90712 0.0
H1234 H 0.75083 0.23571 0.8546 0.0
C1235 C 0.83134 0.28009 0.87888 0.0
C1236 C 0.01057 0.48921 0.16434 0.0
C1237 C 0.04205 0.48114 0.17578 0.0
H1238 H 0.97885 0.5021 0.12304 0.0
C1239 C 0.06428 0.47531 0.15189 0.0
H1240 H 0.99276 0.49368 0.18206 0.0
C1241 C 0.0564 0.48051 0.1178 0.0
C1242 C 0.02606 0.49147 0.10699 0.0
H1243 H 0.08882 0.46932 0.15991 0.0
H1244 H 0.07495 0.47784 0.1004 0.0
C1245 C 1.00264 0.49421 0.13042 0.0
C1246 C 0.76191 0.85943 0.43327 0.0
C1247 C 0.78838 0.85264 0.45582 0.0
H1248 H 0.73901 0.85394 0.38191 0.0
C1249 C 0.81322 0.83598 0.44318 0.0
H1250 H 0.74248 0.87235 0.44227 0.0
C1251 C 0.81131 0.82575 0.40876 0.0
C1252 C 0.78451 0.83189 0.38644 0.0
H1253 H 0.83408 0.83063 0.45987 0.0
H1254 H 0.83053 0.81251 0.39972 0.0
C1255 C 0.75996 0.84904 0.39879 0.0
C1256 C 0.47073 0.59712 0.86081 0.0
C1257 C 0.43769 0.58477 0.84507 0.0
H1258 H 0.50428 0.60234 0.90655 0.0
C1259 C 0.41137 0.57462 0.8648 0.0
H1260 H 0.49134 0.60478 0.84584 0.0
C1261 C 0.41889 0.57198 0.89929 0.0
C1262 C 0.4526 0.58049 0.91428 0.0
H1263 H 0.38576 0.56464 0.85293 0.0
H1264 H 0.39892 0.56028 0.91343 0.0
C1265 C 0.47806 0.59564 0.8955 0.0
C1266 C 0.83407 0.23144 0.13947 0.0
C1267 C 0.82611 0.2522 0.11373 0.0
H1268 H 0.83384 0.22355 0.19236 0.0
C1269 C 0.81656 0.28408 0.12325 0.0
H1270 H 0.84125 0.20666 0.13315 0.0
C1271 C 0.81156 0.29323 0.15667 0.0
C1272 C 0.81675 0.27128 0.18195 0.0
H1273 H 0.81057 0.30106 0.10433 0.0
H1274 H 0.80192 0.31678 0.16242 0.0
C1275 C 0.82966 0.24107 0.17339 0.0
C1276 C 0.03584 0.45719 0.38042 0.0
C1277 C 0.05592 0.48582 0.36874 0.0
H1278 H 0.00687 0.43868 0.41995 0.0
C1279 C 0.06507 0.51726 0.38979 0.0
H1280 H 0.02792 0.43295 0.36433 0.0
C1281 C 0.05272 0.52081 0.4211 0.0
C1282 C 0.03092 0.49295 0.43205 0.0
H1283 H 0.08014 0.53987 0.38102 0.0
H1284 H 0.05875 0.54595 0.43581 0.0
C1285 C 0.02355 0.46069 0.41201 0.0
C1286 C 0.73476 0.78809 0.61716 0.0
C1287 C 0.73218 0.82324 0.61618 0.0
H1288 H 0.73394 0.74566 0.64771 0.0
C1289 C 0.71677 0.83921 0.64156 0.0
H1290 H 0.74588 0.77489 0.59752 0.0
C1291 C 0.70916 0.82195 0.67012 0.0
C1292 C 0.71724 0.78892 0.67339 0.0
H1293 H 0.7143 0.86621 0.6413 0.0
H1294 H 0.70148 0.83626 0.69141 0.0
C1295 C 0.72749 0.7711 0.64567 0.0
C1296 C 0.61794 0.45082 0.53256 0.0
C1297 C 0.64834 0.45948 0.51766 0.0
H1298 H 0.57244 0.46737 0.54654 0.0
C1299 C 0.65609 0.49272 0.50633 0.0
H1300 H 0.6111 0.42548 0.54162 0.0
C1301 C 0.63444 0.51645 0.5095 0.0
C1302 C 0.60395 0.50798 0.5239 0.0
H1303 H 0.67914 0.50069 0.49487 0.0
H1304 H 0.64159 0.5416 0.50012 0.0
C1305 C 0.59586 0.47483 0.53555 0.0
C1306 C 0.16764 0.05494 0.46965 0.0
C1307 C 0.16478 0.07889 0.44558 0.0
H1308 H 0.14108 0.01788 0.49898 0.0
C1309 C 0.13348 0.07698 0.42618 0.0
H1310 H 0.19152 0.05562 0.48487 0.0
C1311 C 0.10462 0.05524 0.43414 0.0
C1312 C 0.10657 0.03538 0.4619 0.0
H1313 H 0.13068 0.09475 0.40708 0.0
H1314 H 0.08039 0.05659 0.42054 0.0
C1315 C 0.13863 0.03342 0.47792 0.0
C1316 C 0.22838 0.90365 0.78047 0.0
C1317 C 0.23135 0.92162 0.81302 0.0
H1318 H 0.24393 0.86362 0.74896 0.0
C1319 C 0.25346 0.91266 0.83881 0.0
H1320 H 0.21145 0.90976 0.76 0.0
C1321 C 0.2722 0.88669 0.83232 0.0
C1322 C 0.26905 0.86846 0.79999 0.0
H1323 H 0.25643 0.92578 0.86413 0.0
H1324 H 0.28888 0.88053 0.85297 0.0
C1325 C 0.24687 0.87715 0.77409 0.0
C1326 C 0.32001 0.95752 0.01133 0.0
C1327 C 0.31595 0.94222 0.04169 0.0
H1328 H 0.35512 0.98548 0.98138 0.0
C1329 C 0.34306 0.94814 0.06753 0.0
H1330 H 0.29952 0.9527 0.99086 0.0
C1331 C 0.37455 0.96692 0.06225 0.0
C1332 C 0.37958 0.97935 0.03075 0.0
H1333 H 0.34048 0.93626 0.091 0.0
H1334 H 0.39548 0.96966 0.08208 0.0
C1335 C 0.35183 0.9758 0.00576 0.0
C1336 C 0.83993 0.68579 0.75104 0.0
C1337 C 0.83859 0.6593 0.77317 0.0
H1338 H 0.81742 0.72794 0.73314 0.0
C1339 C 0.8126 0.65572 0.79447 0.0
H1340 H 0.85951 0.68941 0.73423 0.0
C1341 C 0.7887 0.67742 0.79367 0.0
C1342 C 0.78979 0.70378 0.77171 0.0
H1343 H 0.81045 0.63586 0.81193 0.0
H1344 H 0.76928 0.67354 0.81066 0.0
C1345 C 0.81578 0.70784 0.75034 0.0
C1346 C 0.82308 0.54249 0.00553 0.0
C1347 C 0.8207 0.57628 0.9977 0.0
H1348 H 0.85626 0.50735 0.0184 0.0
C1349 C 0.85047 0.6016 -0.00051 0.0
H1350 H 0.80052 0.52254 0.00447 0.0
C1351 C 0.88206 0.59315 0.00809 0.0
C1352 C 0.88457 0.55909 0.01454 0.0
H1353 H 0.84942 0.62802 0.99405 0.0
H1354 H 0.90458 0.61305 0.00857 0.0
C1355 C 0.85487 0.53386 0.01359 0.0
C1356 C 0.23161 0.11596 0.77988 0.0
C1357 C 0.20846 0.10993 0.80377 0.0
H1358 H 0.26388 0.15419 0.75605 0.0
C1359 C 0.2036 0.1382 0.8254 0.0
H1360 H 0.23526 0.09473 0.76246 0.0
C1361 C 0.22027 0.17211 0.82214 0.0
C1362 C 0.24133 0.17856 0.79644 0.0
H1363 H 0.18546 0.13425 0.84369 0.0
H1364 H 0.21477 0.19346 0.83819 0.0
C1365 C 0.24764 0.15004 0.77599 0.0
C1366 C 0.34022 0.98421 0.2775 0.0
C1367 C 0.36106 0.98717 0.25131 0.0
H1368 H 0.30566 0.94961 0.30286 0.0
C1369 C 0.35964 0.95841 0.22767 0.0
H1370 H 0.34136 0.006 0.29626 0.0
C1371 C 0.33916 0.92656 0.23115 0.0
C1372 C 0.32035 0.9227 0.25882 0.0
H1373 H 0.37571 0.96016 0.2074 0.0
H1374 H 0.33965 0.90446 0.21328 0.0
C1375 C 0.32012 0.95198 0.2814 0.0
C1376 C 0.48501 0.36782 0.60888 0.0
C1377 C 0.49739 0.34088 0.59205 0.0
H1378 H 0.47395 0.41901 0.60705 0.0
C1379 C 0.50342 0.34287 0.55804 0.0
H1380 H 0.48028 0.36699 0.63509 0.0
C1381 C 0.49924 0.37233 0.54181 0.0
C1382 C 0.48965 0.40046 0.55963 0.0
H1383 H 0.51281 0.32229 0.54444 0.0
H1384 H 0.50564 0.37402 0.51618 0.0
C1385 C 0.48154 0.39759 0.59288 0.0
C1386 C 0.41162 0.73757 0.29025 0.0
C1387 C 0.43645 0.76811 0.29554 0.0
H1388 H 0.35946 0.71512 0.27576 0.0
C1389 C 0.42896 0.79851 0.28272 0.0
H1390 H 0.41679 0.7138 0.29993 0.0
C1391 C 0.39574 0.79959 0.26948 0.0
C1392 C 0.36974 0.77017 0.26866 0.0
H1393 H 0.44758 0.82251 0.28674 0.0
H1394 H 0.38992 0.8243 0.26301 0.0
C1395 C 0.37862 0.7385 0.2767 0.0
C1396 C 0.00995 0.65068 0.10179 0.0
C1397 C 0.03292 0.68184 0.10008 0.0
H1398 H 0.99419 0.59666 0.08298 0.0
C1399 C 0.05633 0.68275 0.07606 0.0
H1400 H 0.99154 0.64927 0.11988 0.0
C1401 C 0.05758 0.65322 0.05499 0.0
C1402 C 0.03567 0.62178 0.05744 0.0
H1403 H 0.07405 0.70643 0.07352 0.0
H1404 H 0.07628 0.65494 0.03717 0.0
C1405 C 0.01147 0.62071 0.0807 0.0
C1406 C 0.15974 0.32832 0.82912 0.0
C1407 C 0.12697 0.30802 0.82177 0.0
H1408 H 0.2113 0.33669 0.81804 0.0
C1409 C 0.12169 0.27935 0.79707 0.0
H1410 H 0.16462 0.35067 0.84786 0.0
C1411 C 0.14878 0.27055 0.78095 0.0
C1412 C 0.18162 0.29059 0.78867 0.0
H1413 H 0.09682 0.263 0.79099 0.0
H1414 H 0.14403 0.24788 0.76261 0.0
C1415 C 0.1866 0.32004 0.81235 0.0
C1416 C 0.50905 0.65439 0.03881 0.0
C1417 C 0.53511 0.67683 0.02619 0.0
H1418 H 0.4912 0.60341 0.05265 0.0
C1419 C 0.5653 0.66522 0.02069 0.0
H1420 H 0.48539 0.66239 0.04313 0.0
C1421 C 0.56886 0.63134 0.02696 0.0
C1422 C 0.54192 0.60862 0.03786 0.0
H1423 H 0.58577 0.682 0.01095 0.0
H1424 H 0.59188 0.62243 0.02179 0.0
C1425 C 0.51226 0.62053 0.04415 0.0
C1426 C 0.10897 0.79048 0.66201 0.0
C1427 C 0.08399 0.76116 0.66492 0.0
H1428 H 0.15921 0.81866 0.67957 0.0
C1429 C 0.0903 0.73817 0.68896 0.0
H1430 H 0.10465 0.80874 0.6438 0.0
C1431 C 0.1209 0.74421 0.7096 0.0
C1432 C 0.14604 0.7731 0.7064 0.0
H1433 H 0.07146 0.71556 0.69214 0.0
H1434 H 0.12505 0.72582 0.72773 0.0
C1435 C 0.13998 0.7963 0.68253 0.0
C1436 C 0.06149 0.38836 0.51839 0.0
C1437 C 0.03901 0.36544 0.53489 0.0
H1438 H 0.07716 0.44095 0.50709 0.0
C1439 C 0.02028 0.37938 0.55863 0.0
H1440 H 0.0765 0.37848 0.50017 0.0
C1441 C 0.0205 0.415 0.56234 0.0
C1442 C 0.03986 0.43737 0.54283 0.0
H1443 H 1.00317 0.36254 0.57226 0.0
H1444 H 1.00353 0.42466 0.57855 0.0
C1445 C 0.062 0.42419 0.52245 0.0
C1446 C 0.428 0.28503 0.20695 0.0
C1447 C 0.42626 0.29302 0.17321 0.0
H1448 H 0.4054 0.28569 0.25308 0.0
C1449 C 0.40238 0.31232 0.16122 0.0
H1450 H 0.44668 0.27069 0.21692 0.0
C1451 C 0.37848 0.3207 0.18197 0.0
C1452 C 0.37878 0.31029 0.2149 0.0
H1453 H 0.4008 0.31889 0.13531 0.0
H1454 H 0.35872 0.33354 0.17166 0.0
C1455 C 0.40458 0.29382 0.22773 0.0
C1456 C 0.54601 0.49747 0.36247 0.0
C1457 C 0.57888 0.48977 0.36393 0.0
H1458 H 0.5057 0.5085 0.38998 0.0
C1459 C 0.59355 0.48072 0.39459 0.0
H1460 H 0.53353 0.50389 0.33915 0.0
C1461 C 0.57676 0.48247 0.4238 0.0
C1462 C 0.5455 0.49371 0.42259 0.0
H1463 H 0.61874 0.47466 0.39655 0.0
H1464 H 0.58938 0.47771 0.44772 0.0
C1465 C 0.52981 0.49994 0.39151 0.0
C1466 C 0.2259 0.83265 0.14882 0.0
C1467 C 0.2227 0.81043 0.11882 0.0
H1468 H 0.23821 0.8386 0.20297 0.0
C1469 C 0.22609 0.77563 0.1211 0.0
H1470 H 0.22401 0.85973 0.14781 0.0
C1471 C 0.23514 0.76395 0.15216 0.0
C1472 C 0.2406 0.78661 0.18193 0.0
H1473 H 0.22385 0.75787 0.09842 0.0
H1474 H 0.23882 0.73734 0.15265 0.0
C1475 C 0.23467 0.82074 0.18025 0.0
C1476 C 0.01734 0.5848 0.86045 0.0
C1477 C 0.98577 0.59409 0.8512 0.0
H1478 H 0.05 0.56832 0.89906 0.0
C1479 C 0.96492 0.5988 0.87669 0.0
H1480 H 0.03416 0.58103 0.84151 0.0
C1481 C 0.97399 0.59126 0.9098 0.0
C1482 C 1.00418 0.57891 0.91828 0.0
H1483 H 0.9404 0.60569 0.87056 0.0
H1484 H 0.95633 0.59333 0.92828 0.0
C1485 C 0.02643 0.57731 0.89352 0.0
C1486 C 0.21658 0.22788 0.58184 0.0
C1487 C 0.23889 0.20771 0.56935 0.0
H1488 H 0.20477 0.25817 0.62445 0.0
C1489 C 0.26714 0.20294 0.59071 0.0
H1490 H 0.1947 0.23213 0.56589 0.0
C1491 C 0.27293 0.21797 0.62397 0.0
C1492 C 0.25057 0.23795 0.63638 0.0
H1493 H 0.28487 0.18763 0.58179 0.0
H1494 H 0.29474 0.2137 0.64003 0.0
C1495 C 0.22242 0.24294 0.61519 0.0
C1496 C 0.62854 0.47446 0.16536 0.0
C1497 C 0.60447 0.46626 0.18795 0.0
H1498 H 0.63624 0.48218 0.11391 0.0
C1499 C 0.57095 0.45112 0.17549 0.0
H1500 H 0.65447 0.48648 0.17468 0.0
C1501 C 0.56071 0.44782 0.14081 0.0
C1502 C 0.58371 0.46089 0.1186 0.0
H1503 H 0.55207 0.44484 0.19271 0.0
H1504 H 0.53404 0.43897 0.13202 0.0
C1505 C 0.6181 0.47209 0.1307 0.0
C1506 C 0.21019 0.83211 0.90718 0.0
C1507 C 0.21961 0.81375 0.9343 0.0
H1508 H 0.21074 0.83721 0.85386 0.0
C1509 C 0.23205 0.78301 0.92726 0.0
H1510 H 0.20099 0.8561 0.91187 0.0
C1511 C 0.23845 0.77286 0.89466 0.0
C1512 C 0.23187 0.7927 0.868 0.0
H1513 H 0.23935 0.76814 0.94759 0.0
H1514 H 0.25015 0.75035 0.89064 0.0
C1515 C 0.21608 0.82146 0.87409 0.0
C1516 C 0.97843 0.60063 0.64896 0.0
C1517 C 0.96149 0.57042 0.66124 0.0
H1518 H 0.00774 0.62162 0.6104 0.0
C1519 C 0.95833 0.5383 0.64172 0.0
H1520 H 0.9815 0.62568 0.66353 0.0
C1521 C 0.97314 0.53595 0.61166 0.0
C1522 C 0.9918 0.56564 0.60028 0.0
H1523 H 0.94529 0.51453 0.65037 0.0
H1524 H 0.97117 0.51053 0.59811 0.0
C1525 C 0.99366 0.59821 0.61875 0.0
C1526 C 0.28939 0.27154 0.42433 0.0
C1527 C 0.2924 0.23652 0.41893 0.0
H1528 H 0.29166 0.3198 0.4027 0.0
C1529 C 0.31026 0.22617 0.39275 0.0
H1530 H 0.27656 0.28029 0.44506 0.0
C1531 C 0.31959 0.24922 0.36878 0.0
C1532 C 0.31032 0.28212 0.37081 0.0
H1533 H 0.31332 0.19938 0.38851 0.0
H1534 H 0.32906 0.23937 0.34622 0.0
C1535 C 0.29859 0.29437 0.40046 0.0
C1536 C 0.3894 0.58764 0.51431 0.0
C1537 C 0.40009 0.61723 0.49747 0.0
H1538 H 0.39932 0.53866 0.52909 0.0
C1539 C 0.43009 0.61891 0.48169 0.0
H1540 H 0.36658 0.58527 0.52682 0.0
C1541 C 0.4488 0.59197 0.48286 0.0
C1542 C 0.4382 0.56262 0.49996 0.0
H1543 H 0.43928 0.64117 0.46846 0.0
H1544 H 0.47172 0.59423 0.47055 0.0
C1545 C 0.40819 0.56079 0.51556 0.0
C1546 C 0.87136 0.98822 0.55749 0.0
C1547 C 0.87108 0.96334 0.58102 0.0
H1548 H 0.90143 0.02181 0.52764 0.0
C1549 C 0.90193 0.95977 0.59861 0.0
H1550 H 0.84798 0.99177 0.54363 0.0
C1551 C 0.9326 0.97698 0.58945 0.0
C1552 C 0.93293 0.99791 0.56237 0.0
H1553 H 0.90251 0.94115 0.61723 0.0
H1554 H 0.95589 0.97134 0.60163 0.0
C1555 C 0.90209 0.00527 0.54809 0.0
C1556 C 0.80766 0.14923 0.28361 0.0
C1557 C 0.81401 0.1332 0.25267 0.0
H1558 H 0.78521 0.18837 0.30842 0.0
C1559 C 0.80162 0.14497 0.22238 0.0
H1560 H 0.81677 0.14084 0.30745 0.0
C1561 C 0.7834 0.17213 0.22307 0.0
C1562 C 0.77772 0.1885 0.25402 0.0
H1563 H 0.80596 0.1332 0.19813 0.0
H1564 H 0.77428 0.18075 0.19933 0.0
C1565 C 0.78981 0.17665 0.28426 0.0
C1566 C 0.69154 0.13155 0.97859 0.0
C1567 C 0.71734 0.13098 0.00467 0.0
H1568 H 0.63939 0.11404 0.95932 0.0
C1569 C 0.71077 0.1093 0.03052 0.0
H1570 H 0.69611 0.14828 0.9585 0.0
C1571 C 0.67799 0.09034 0.03149 0.0
C1572 C 0.65176 0.09245 0.00628 0.0
H1573 H 0.73026 0.1089 0.0511 0.0
H1574 H 0.67287 0.07517 0.05258 0.0
C1575 C 0.65912 0.11211 0.97915 0.0
C1576 C 0.19326 0.40727 0.26137 0.0
C1577 C 0.17475 0.40434 0.28946 0.0
H1578 H 0.23311 0.39147 0.23576 0.0
C1579 C 0.18283 0.38186 0.31356 0.0
H1580 H 0.18793 0.42442 0.2424 0.0
C1581 C 0.2087 0.36285 0.30963 0.0
C1582 C 0.22722 0.36598 0.28162 0.0
H1583 H 0.16916 0.37892 0.33553 0.0
H1584 H 0.21427 0.34577 0.3286 0.0
C1585 C 0.21931 0.38851 0.25764 0.0
C1586 C 0.16249 0.43889 1e-05 0.0
C1587 C 0.18938 0.45181 0.02558 0.0
H1588 H 0.11671 0.44724 0.97283 0.0
C1589 C 0.19179 0.48552 0.04164 0.0
H1590 H 0.15998 0.41319 0.98687 0.0
C1591 C 0.16699 0.50518 0.03331 0.0
C1592 C 0.13937 0.49148 0.00882 0.0
H1593 H 0.21229 0.49634 0.06128 0.0
H1594 H 0.16872 0.5305 0.04698 0.0
C1595 C 0.13776 0.45848 0.99177 0.0
C1596 C 0.81671 0.91835 0.18741 0.0
C1597 C 0.819 0.94699 0.21149 0.0
H1598 H 0.8005 0.86348 0.17506 0.0
C1599 C 0.80234 0.94243 0.24057 0.0
H1600 H 0.82975 0.92114 0.16501 0.0
C1601 C 0.7864 0.90911 0.24691 0.0
C1602 C 0.78634 0.87999 0.22395 0.0
H1603 H 0.8043 0.96397 0.25983 0.0
H1604 H 0.77564 0.90593 0.27056 0.0
C1605 C 0.80018 0.88527 0.19336 0.0
C1606 C 0.67564 0.09342 0.73611 0.0
C1607 C 0.66884 0.07953 0.76654 0.0
H1608 H 0.7024 0.13559 0.71271 0.0
C1609 C 0.68694 0.09571 0.79714 0.0
H1610 H 0.66162 0.08128 0.71232 0.0
C1611 C 0.70965 0.12724 0.79753 0.0
C1612 C 0.7148 0.14235 0.76723 0.0
H1613 H 0.68161 0.08544 0.82088 0.0
H1614 H 0.72167 0.14072 0.8216 0.0
C1615 C 0.6989 0.1244 0.73639 0.0
loop_
_geom_bond_atom_site_label_1
_geom_bond_atom_site_label_2
_geom_bond_distance
_geom_bond_site_symmetry_2
_ccdc_geom_bond_type
Zn0 O3 2.031 . S
Zn0 O5 2.049 . S
Zn0 O10 2.067 . S
Zn1 O2 1.962 . S
Zn1 O4 1.986 . S
Zn1 O6 1.996 . S
Zn1 O9 1.943 1_455 S
O2 Zn1 1.962 . S
O2 C7 1.254 . S
O3 Zn0 2.031 . S
O3 C7 1.269 1_655 S
O4 Zn1 1.986 . S
O4 C11 1.262 . S
O5 Zn0 2.049 . S
O5 C13 1.260 1_655 S
O6 Zn1 1.996 . S
O6 C13 1.257 . S
C7 O2 1.254 . S
C7 O3 1.269 1_455 S
C8 O9 1.249 . S
C8 O10 1.270 . S
O9 Zn1 1.943 1_655 S
O9 C8 1.249 . S
O10 Zn0 2.067 . S
O10 C8 1.270 . S
C11 O4 1.262 . S
C11 O12 1.232 . S
O12 C11 1.232 . S
C13 O5 1.260 1_455 S
C13 O6 1.257 . S
Zn14 O17 2.031 1_455 S
Zn14 O19 2.049 . S
Zn14 O24 2.067 . S
Zn15 O16 1.961 . S
Zn15 O18 1.986 1_655 S
Zn15 O20 1.997 1_655 S
Zn15 O23 1.943 . S
O16 Zn15 1.961 . S
O16 C21 1.254 . S
O17 Zn14 2.031 1_655 S
O17 C21 1.269 . S
O18 Zn15 1.986 1_455 S
O18 C25 1.262 . S
O19 Zn14 2.049 . S
O19 C27 1.260 . S
O20 Zn15 1.997 1_455 S
O20 C27 1.257 . S
C21 O16 1.254 . S
C21 O17 1.269 . S
C22 O23 1.249 . S
C22 O24 1.270 1_655 S
O23 Zn15 1.943 . S
O23 C22 1.249 . S
O24 Zn14 2.067 . S
O24 C22 1.270 1_455 S
C25 O18 1.262 . S
C25 O26 1.232 1_455 S
O26 C25 1.232 1_655 S
C27 O19 1.260 . S
C27 O20 1.257 . S
Zn28 O31 2.031 . S
Zn28 O33 2.049 . S
Zn28 O38 2.067 . S
Zn29 O30 1.962 . S
Zn29 O32 1.986 . S
Zn29 O34 1.996 . S
Zn29 O37 1.943 . S
O30 Zn29 1.962 . S
O30 C35 1.254 . S
O31 Zn28 2.031 . S
O31 C35 1.269 . S
O32 Zn29 1.986 . S
O32 C39 1.262 . S
O33 Zn28 2.049 . S
O33 C41 1.260 . S
O34 Zn29 1.996 . S
O34 C41 1.257 . S
C35 O30 1.254 . S
C35 O31 1.269 . S
C36 O37 1.249 . S
C36 O38 1.270 . S
O37 Zn29 1.943 . S
O37 C36 1.249 . S
O38 Zn28 2.067 . S
O38 C36 1.270 . S
C39 O32 1.262 . S
C39 O40 1.232 . S
O40 C39 1.232 . S
C41 O33 1.260 . S
C41 O34 1.257 . S
Zn42 O45 2.031 . S
Zn42 O47 2.049 . S
Zn42 O52 2.067 . S
Zn43 O44 1.962 . S
Zn43 O46 1.986 . S
Zn43 O48 1.996 . S
Zn43 O51 1.943 . S
O44 Zn43 1.962 . S
O44 C49 1.254 . S
O45 Zn42 2.031 . S
O45 C49 1.269 . S
O46 Zn43 1.986 . S
O46 C53 1.262 . S
O47 Zn42 2.049 . S
O47 C55 1.260 . S
O48 Zn43 1.996 . S
O48 C55 1.257 . S
C49 O44 1.254 . S
C49 O45 1.269 . S
C50 O51 1.249 . S
C50 O52 1.270 . S
O51 Zn43 1.943 . S
O51 C50 1.249 . S
O52 Zn42 2.067 . S
O52 C50 1.270 . S
C53 O46 1.262 . S
C53 O54 1.232 . S
O54 C53 1.232 . S
C55 O47 1.260 . S
C55 O48 1.257 . S
Zn56 O59 2.031 . S
Zn56 O61 2.049 . S
Zn56 O66 2.067 . S
Zn57 O58 1.962 . S
Zn57 O60 1.986 . S
Zn57 O62 1.994 1_655 S
Zn57 O65 1.943 1_655 S
O58 Zn57 1.962 . S
O58 C63 1.254 1_655 S
O59 Zn56 2.031 . S
O59 C63 1.269 . S
O60 Zn57 1.986 . S
O60 C67 1.262 . S
O61 Zn56 2.049 . S
O61 C69 1.260 . S
O62 Zn57 1.994 1_455 S
O62 C69 1.260 . S
C63 O58 1.254 1_455 S
C63 O59 1.269 . S
C64 O65 1.249 . S
C64 O66 1.270 . S
O65 Zn57 1.943 1_455 S
O65 C64 1.249 . S
O66 Zn56 2.067 . S
O66 C64 1.270 . S
C67 O60 1.262 . S
C67 O68 1.232 . S
O68 C67 1.232 . S
C69 O61 1.260 . S
C69 O62 1.260 . S
Zn70 O73 2.031 . S
Zn70 O75 2.049 . S
Zn70 O80 2.067 . S
Zn71 O72 1.962 . S
Zn71 O74 1.986 . S
Zn71 O76 1.996 . S
Zn71 O79 1.943 . S
O72 Zn71 1.962 . S
O72 C77 1.254 . S
O73 Zn70 2.031 . S
O73 C77 1.269 . S
O74 Zn71 1.986 . S
O74 C81 1.262 . S
O75 Zn70 2.049 . S
O75 C83 1.260 . S
O76 Zn71 1.996 . S
O76 C83 1.257 . S
C77 O72 1.254 . S
C77 O73 1.269 . S
C78 O79 1.249 . S
C78 O80 1.270 . S
O79 Zn71 1.943 . S
O79 C78 1.249 . S
O80 Zn70 2.067 . S
O80 C78 1.270 . S
C81 O74 1.262 . S
C81 O82 1.232 . S
O82 C81 1.232 . S
C83 O75 1.260 . S
C83 O76 1.257 . S
Zn84 O87 2.031 . S
Zn84 O89 2.049 . S
Zn84 O94 2.067 . S
Zn85 O86 1.962 . S
Zn85 O88 1.986 . S
Zn85 O90 1.996 . S
Zn85 O93 1.943 . S
O86 Zn85 1.962 . S
O86 C91 1.254 . S
O87 Zn84 2.031 . S
O87 C91 1.269 . S
O88 Zn85 1.986 . S
O88 C95 1.262 . S
O89 Zn84 2.049 . S
O89 C97 1.260 . S
O90 Zn85 1.996 . S
O90 C97 1.257 . S
C91 O86 1.254 . S
C91 O87 1.269 . S
C92 O93 1.249 . S
C92 O94 1.270 . S
O93 Zn85 1.943 . S
O93 C92 1.249 . S
O94 Zn84 2.067 . S
O94 C92 1.270 . S
C95 O88 1.262 . S
C95 O96 1.232 . S
O96 C95 1.232 . S
C97 O89 1.260 . S
C97 O90 1.257 . S
Zn98 O101 2.031 . S
Zn98 O103 2.049 . S
Zn98 O108 2.067 . S
Zn99 O100 1.962 . S
Zn99 O102 1.986 . S
Zn99 O104 1.996 . S
Zn99 O107 1.943 1_455 S
O100 Zn99 1.962 . S
O100 C105 1.254 . S
O101 Zn98 2.031 . S
O101 C105 1.269 1_655 S
O102 Zn99 1.986 . S
O102 C109 1.262 . S
O103 Zn98 2.049 . S
O103 C111 1.260 . S
O104 Zn99 1.996 . S
O104 C111 1.257 1_455 S
C105 O100 1.254 . S
C105 O101 1.269 1_455 S
C106 O107 1.249 . S
C106 O108 1.270 . S
O107 Zn99 1.943 1_655 S
O107 C106 1.249 . S
O108 Zn98 2.067 . S
O108 C106 1.270 . S
C109 O102 1.262 . S
C109 O110 1.232 . S
O110 C109 1.232 . S
C111 O103 1.260 . S
C111 O104 1.257 1_655 S
Zn112 O115 2.031 . S
Zn112 O117 2.049 . S
Zn112 O122 2.067 1_545 S
Zn113 O114 1.962 . S
Zn113 O116 1.986 . S
Zn113 O118 1.996 . S
Zn113 O121 1.943 . S
O114 Zn113 1.962 . S
O114 C119 1.254 . S
O115 Zn112 2.031 . S
O115 C119 1.269 . S
O116 Zn113 1.986 . S
O116 C123 1.262 . S
O117 Zn112 2.049 . S
O117 C125 1.260 . S
O118 Zn113 1.996 . S
O118 C125 1.257 . S
C119 O114 1.254 . S
C119 O115 1.269 . S
C120 O121 1.249 1_565 S
C120 O122 1.270 . S
O121 Zn113 1.943 . S
O121 C120 1.249 1_545 S
O122 Zn112 2.067 1_565 S
O122 C120 1.270 . S
C123 O116 1.262 . S
C123 O124 1.232 . S
O124 C123 1.232 . S
C125 O117 1.260 . S
C125 O118 1.257 . S
Zn126 O129 2.031 . S
Zn126 O131 2.049 . S
Zn126 O136 2.067 . S
Zn127 O128 1.962 . S
Zn127 O130 1.986 . S
Zn127 O132 1.996 . S
Zn127 O135 1.943 . S
O128 Zn127 1.962 . S
O128 C133 1.254 . S
O129 Zn126 2.031 . S
O129 C133 1.269 . S
O130 Zn127 1.986 . S
O130 C137 1.262 . S
O131 Zn126 2.049 . S
O131 C139 1.260 . S
O132 Zn127 1.996 . S
O132 C139 1.257 . S
C133 O128 1.254 . S
C133 O129 1.269 . S
C134 O135 1.249 . S
C134 O136 1.270 . S
O135 Zn127 1.943 . S
O135 C134 1.249 . S
O136 Zn126 2.067 . S
O136 C134 1.270 . S
C137 O130 1.262 . S
C137 O138 1.232 . S
O138 C137 1.232 . S
C139 O131 1.260 . S
C139 O132 1.257 . S
Zn140 O143 2.031 . S
Zn140 O145 2.049 . S
Zn140 O150 2.067 . S
Zn141 O142 1.962 . S
Zn141 O144 1.986 . S
Zn141 O146 1.996 . S
Zn141 O149 1.943 1_565 S
O142 Zn141 1.962 . S
O142 C147 1.254 1_565 S
O143 Zn140 2.031 . S
O143 C147 1.269 . S
O144 Zn141 1.986 . S
O144 C151 1.262 . S
O145 Zn140 2.049 . S
O145 C153 1.260 . S
O146 Zn141 1.996 . S
O146 C153 1.257 1_565 S
C147 O142 1.254 1_545 S
C147 O143 1.269 . S
C148 O149 1.249 . S
C148 O150 1.270 . S
O149 Zn141 1.943 1_545 S
O149 C148 1.249 . S
O150 Zn140 2.067 . S
O150 C148 1.270 . S
C151 O144 1.262 . S
C151 O152 1.232 . S
O152 C151 1.232 . S
C153 O145 1.260 . S
C153 O146 1.257 1_545 S
Zn154 O157 2.031 1_554 S
Zn154 O159 2.049 . S
Zn154 O164 2.067 . S
Zn155 O156 1.962 1_554 S
Zn155 O158 1.986 . S
Zn155 O160 1.996 . S
Zn155 O163 1.943 . S
O156 Zn155 1.962 1_556 S
O156 C161 1.254 . S
O157 Zn154 2.031 1_556 S
O157 C161 1.269 . S
O158 Zn155 1.986 . S
O158 C165 1.262 . S
O159 Zn154 2.049 . S
O159 C167 1.260 . S
O160 Zn155 1.996 . S
O160 C167 1.257 . S
C161 O156 1.254 . S
C161 O157 1.269 . S
C162 O163 1.249 . S
C162 O164 1.270 . S
O163 Zn155 1.943 . S
O163 C162 1.249 . S
O164 Zn154 2.067 . S
O164 C162 1.270 . S
C165 O158 1.262 . S
C165 O166 1.232 . S
O166 C165 1.232 . S
C167 O159 1.260 . S
C167 O160 1.257 . S
Zn168 O171 2.031 1_554 S
Zn168 O173 2.049 . S
Zn168 O178 2.067 . S
Zn169 O170 1.962 1_554 S
Zn169 O172 1.986 . S
Zn169 O174 1.996 . S
Zn169 O177 1.943 . S
O170 Zn169 1.962 1_556 S
O170 C175 1.254 . S
O171 Zn168 2.031 1_556 S
O171 C175 1.269 . S
O172 Zn169 1.986 . S
O172 C179 1.262 . S
O173 Zn168 2.049 . S
O173 C181 1.260 . S
O174 Zn169 1.996 . S
O174 C181 1.257 . S
C175 O170 1.254 . S
C175 O171 1.269 . S
C176 O177 1.249 . S
C176 O178 1.270 . S
O177 Zn169 1.943 . S
O177 C176 1.249 . S
O178 Zn168 2.067 . S
O178 C176 1.270 . S
C179 O172 1.262 . S
C179 O180 1.232 . S
O180 C179 1.232 . S
C181 O173 1.260 . S
C181 O174 1.257 . S
Zn182 O185 2.031 1_554 S
Zn182 O187 2.049 . S
Zn182 O192 2.067 . S
Zn183 O184 1.962 1_554 S
Zn183 O186 1.986 . S
Zn183 O188 1.996 . S
Zn183 O191 1.943 . S
O184 Zn183 1.962 1_556 S
O184 C189 1.254 . S
O185 Zn182 2.031 1_556 S
O185 C189 1.269 . S
O186 Zn183 1.986 . S
O186 C193 1.262 . S
O187 Zn182 2.049 . S
O187 C195 1.260 . S
O188 Zn183 1.996 . S
O188 C195 1.257 . S
C189 O184 1.254 . S
C189 O185 1.269 . S
C190 O191 1.249 . S
C190 O192 1.270 . S
O191 Zn183 1.943 . S
O191 C190 1.249 . S
O192 Zn182 2.067 . S
O192 C190 1.270 . S
C193 O186 1.262 . S
C193 O194 1.232 1_554 S
O194 C193 1.232 1_556 S
C195 O187 1.260 . S
C195 O188 1.257 . S
Zn196 O199 2.031 . S
Zn196 O201 2.049 . S
Zn196 O206 2.067 . S
Zn197 O198 1.962 . S
Zn197 O200 1.986 . S
Zn197 O202 1.996 . S
Zn197 O205 1.943 . S
O198 Zn197 1.962 . S
O198 C203 1.254 . S
O199 Zn196 2.031 . S
O199 C203 1.269 . S
O200 Zn197 1.986 . S
O200 C207 1.262 . S
O201 Zn196 2.049 . S
O201 C209 1.260 . S
O202 Zn197 1.996 . S
O202 C209 1.257 . S
C203 O198 1.254 . S
C203 O199 1.269 . S
C204 O205 1.249 . S
C204 O206 1.270 . S
O205 Zn197 1.943 . S
O205 C204 1.249 . S
O206 Zn196 2.067 . S
O206 C204 1.270 . S
C207 O200 1.262 . S
C207 O208 1.232 . S
O208 C207 1.232 . S
C209 O201 1.260 . S
C209 O202 1.257 . S
Zn210 O213 2.031 . S
Zn210 O215 2.049 . S
Zn210 O220 2.067 . S
Zn211 O212 1.962 . S
Zn211 O214 1.986 . S
Zn211 O216 1.996 . S
Zn211 O219 1.943 . S
O212 Zn211 1.962 . S
O212 C217 1.254 . S
O213 Zn210 2.031 . S
O213 C217 1.269 . S
O214 Zn211 1.986 . S
O214 C221 1.262 . S
O215 Zn210 2.049 . S
O215 C223 1.260 . S
O216 Zn211 1.996 . S
O216 C223 1.257 . S
C217 O212 1.254 . S
C217 O213 1.269 . S
C218 O219 1.249 . S
C218 O220 1.270 . S
O219 Zn211 1.943 . S
O219 C218 1.249 . S
O220 Zn210 2.067 . S
O220 C218 1.270 . S
C221 O214 1.262 . S
C221 O222 1.232 . S
O222 C221 1.232 . S
C223 O215 1.260 . S
C223 O216 1.257 . S
Zn224 O227 2.031 . S
Zn224 O229 2.049 . S
Zn224 O234 2.067 1_545 S
Zn225 O226 1.962 . S
Zn225 O228 1.986 . S
Zn225 O230 1.996 . S
Zn225 O233 1.943 . S
O226 Zn225 1.962 . S
O226 C231 1.254 . S
O227 Zn224 2.031 . S
O227 C231 1.269 . S
O228 Zn225 1.986 . S
O228 C235 1.262 . S
O229 Zn224 2.049 . S
O229 C237 1.260 . S
O230 Zn225 1.996 . S
O230 C237 1.257 . S
C231 O226 1.254 . S
C231 O227 1.269 . S
C232 O233 1.224 1_565 S
C232 O234 1.283 . S
O233 Zn225 1.943 . S
O233 C232 1.224 1_545 S
O234 Zn224 2.067 1_565 S
O234 C232 1.283 . S
C235 O228 1.262 . S
C235 O236 1.232 . S
O236 C235 1.232 . S
C237 O229 1.260 . S
C237 O230 1.257 . S
Zn238 O241 2.031 . S
Zn238 O243 2.049 . S
Zn238 O248 2.067 . S
Zn239 O240 1.962 . S
Zn239 O242 1.986 . S
Zn239 O244 1.996 . S
Zn239 O247 1.943 . S
O240 Zn239 1.962 . S
O240 C245 1.254 . S
O241 Zn238 2.031 . S
O241 C245 1.269 . S
O242 Zn239 1.986 . S
O242 C249 1.262 . S
O243 Zn238 2.049 . S
O243 C251 1.260 . S
O244 Zn239 1.996 . S
O244 C251 1.257 . S
C245 O240 1.254 . S
C245 O241 1.269 . S
C246 O247 1.249 . S
C246 O248 1.270 . S
O247 Zn239 1.943 . S
O247 C246 1.249 . S
O248 Zn238 2.067 . S
O248 C246 1.270 . S
C249 O242 1.262 . S
C249 O250 1.232 . S
O250 C249 1.232 . S
C251 O243 1.260 . S
C251 O244 1.257 . S
Zn252 O255 2.031 . S
Zn252 O257 2.049 . S
Zn252 O262 2.067 . S
Zn253 O254 1.962 . S
Zn253 O256 1.986 . S
Zn253 O258 1.996 . S
Zn253 O261 1.943 . S
O254 Zn253 1.962 . S
O254 C259 1.254 . S
O255 Zn252 2.031 . S
O255 C259 1.269 . S
O256 Zn253 1.986 . S
O256 C263 1.262 . S
O257 Zn252 2.049 . S
O257 C265 1.260 . S
O258 Zn253 1.996 . S
O258 C265 1.257 . S
C259 O254 1.254 . S
C259 O255 1.269 . S
C260 O261 1.249 . S
C260 O262 1.270 . S
O261 Zn253 1.943 . S
O261 C260 1.249 . S
O262 Zn252 2.067 . S
O262 C260 1.270 . S
C263 O256 1.262 . S
C263 O264 1.232 . S
O264 C263 1.232 . S
C265 O257 1.260 . S
C265 O258 1.257 . S
Zn266 O269 2.031 . S
Zn266 O271 2.049 . S
Zn266 O276 2.067 . S
Zn267 O268 1.962 . S
Zn267 O270 1.986 . S
Zn267 O272 1.996 . S
Zn267 O275 1.943 1_565 S
O268 Zn267 1.962 . S
O268 C273 1.254 1_565 S
O269 Zn266 2.031 . S
O269 C273 1.269 . S
O270 Zn267 1.986 . S
O270 C277 1.262 . S
O271 Zn266 2.049 . S
O271 C279 1.260 . S
O272 Zn267 1.996 . S
O272 C279 1.257 1_565 S
C273 O268 1.254 1_545 S
C273 O269 1.269 . S
C274 O275 1.249 . S
C274 O276 1.270 . S
O275 Zn267 1.943 1_545 S
O275 C274 1.249 . S
O276 Zn266 2.067 . S
O276 C274 1.270 . S
C277 O270 1.262 . S
C277 O278 1.232 . S
O278 C277 1.232 . S
C279 O271 1.260 . S
C279 O272 1.257 1_545 S
Zn280 O283 2.031 1_554 S
Zn280 O285 2.049 . S
Zn280 O290 2.067 . S
Zn281 O282 1.984 . S
Zn281 O284 1.975 1_556 S
Zn281 O286 1.979 1_556 S
Zn281 O289 1.940 . S
O282 Zn281 1.984 . S
O282 C287 1.254 . S
O283 Zn280 2.031 1_556 S
O283 C287 1.269 . S
O284 Zn281 1.975 1_554 S
O284 C291 1.250 1_554 S
O285 Zn280 2.049 . S
O285 C293 1.260 . S
O286 Zn281 1.979 1_554 S
O286 C293 1.257 . S
C287 O282 1.254 . S
C287 O283 1.269 . S
C288 O289 1.249 . S
C288 O290 1.270 1_556 S
O289 Zn281 1.940 . S
O289 C288 1.249 . S
O290 Zn280 2.067 . S
O290 C288 1.270 1_554 S
C291 O284 1.250 1_556 S
C291 O292 1.246 . S
O292 C291 1.246 . S
C293 O285 1.260 . S
C293 O286 1.257 . S
Zn294 O297 2.031 . S
Zn294 O299 2.049 . S
Zn294 O304 2.067 . S
Zn295 O296 1.962 . S
Zn295 O298 1.986 . S
Zn295 O300 1.996 . S
Zn295 O303 1.943 . S
O296 Zn295 1.962 . S
O296 C301 1.254 . S
O297 Zn294 2.031 . S
O297 C301 1.269 . S
O298 Zn295 1.986 . S
O298 C305 1.262 . S
O299 Zn294 2.049 . S
O299 C307 1.260 . S
O300 Zn295 1.996 . S
O300 C307 1.257 . S
C301 O296 1.254 . S
C301 O297 1.269 . S
C302 O303 1.249 . S
C302 O304 1.270 . S
O303 Zn295 1.943 . S
O303 C302 1.249 . S
O304 Zn294 2.067 . S
O304 C302 1.270 . S
C305 O298 1.262 . S
C305 O306 1.232 . S
O306 C305 1.232 . S
C307 O299 1.260 . S
C307 O300 1.257 . S
Zn308 O311 2.031 . S
Zn308 O313 2.049 . S
Zn308 O318 2.067 . S
Zn309 O310 1.962 . S
Zn309 O312 1.986 . S
Zn309 O314 1.996 . S
Zn309 O317 1.943 . S
O310 Zn309 1.962 . S
O310 C315 1.254 . S
O311 Zn308 2.031 . S
O311 C315 1.269 . S
O312 Zn309 1.986 . S
O312 C319 1.262 . S
O313 Zn308 2.049 . S
O313 C321 1.260 . S
O314 Zn309 1.996 . S
O314 C321 1.257 . S
C315 O310 1.254 . S
C315 O311 1.269 . S
C316 O317 1.249 . S
C316 O318 1.270 . S
O317 Zn309 1.943 . S
O317 C316 1.249 . S
O318 Zn308 2.067 . S
O318 C316 1.270 . S
C319 O312 1.262 . S
C319 O320 1.232 . S
O320 C319 1.232 . S
C321 O313 1.260 . S
C321 O314 1.257 . S
Zn322 O325 2.031 . S
Zn322 O327 2.049 . S
Zn322 O332 2.067 . S
Zn323 O324 1.962 . S
Zn323 O326 1.986 . S
Zn323 O328 1.996 . S
Zn323 O331 1.943 . S
O324 Zn323 1.962 . S
O324 C329 1.254 . S
O325 Zn322 2.031 . S
O325 C329 1.269 . S
O326 Zn323 1.986 . S
O326 C333 1.262 . S
O327 Zn322 2.049 . S
O327 C335 1.260 . S
O328 Zn323 1.996 . S
O328 C335 1.257 . S
C329 O324 1.254 . S
C329 O325 1.269 . S
C330 O331 1.249 . S
C330 O332 1.270 . S
O331 Zn323 1.943 . S
O331 C330 1.249 . S
O332 Zn322 2.067 . S
O332 C330 1.270 . S
C333 O326 1.262 . S
C333 O334 1.232 . S
O334 C333 1.232 . S
C335 O327 1.260 . S
C335 O328 1.257 . S
Tb336 O339 2.453 . S
Tb336 O340 2.596 . S
Tb336 O341 2.374 1_554 S
Tb336 O349 2.343 1_455 S
Tb336 O351 2.353 . S
Tb336 O353 2.427 . S
Tb336 O354 2.513 1_554 S
C337 O341 1.251 . S
C337 O343 1.263 1_545 S
Tb338 O340 2.343 1_665 S
Tb338 O343 2.353 1_654 S
Tb338 O346 2.427 1_655 S
Tb338 O347 2.513 1_655 S
Tb338 O348 2.453 1_564 S
Tb338 O349 2.596 1_565 S
Tb338 O350 2.374 1_565 S
O339 Tb336 2.453 . S
O339 C355 1.245 . S
O340 Tb336 2.596 . S
O340 Tb338 2.343 1_445 S
O340 C355 1.259 . S
O341 Tb336 2.374 1_556 S
O341 C337 1.251 . S
C342 O346 1.275 . S
C342 O347 1.246 . S
O343 C337 1.263 1_565 S
O343 Tb338 2.353 1_456 S
C344 O348 1.245 1_554 S
C344 O349 1.259 . S
C345 O350 1.250 . S
C345 O351 1.263 1_655 S
O346 Tb338 2.427 1_455 S
O346 C342 1.275 . S
O347 Tb338 2.513 1_455 S
O347 C342 1.246 . S
O348 Tb338 2.453 1_546 S
O348 C344 1.245 1_556 S
O349 Tb336 2.343 1_655 S
O349 Tb338 2.596 1_545 S
O349 C344 1.259 . S
O350 Tb338 2.374 1_545 S
O350 C345 1.250 . S
O351 Tb336 2.353 . S
O351 C345 1.263 1_455 S
C352 O353 1.275 . S
C352 O354 1.246 1_554 S
O353 Tb336 2.427 . S
O353 C352 1.275 . S
O354 Tb336 2.513 1_556 S
O354 C352 1.246 1_556 S
C355 O339 1.245 . S
C355 O340 1.259 . S
Tb356 O359 2.453 . S
Tb356 O360 2.596 . S
Tb356 O361 2.374 . S
Tb356 O369 2.343 . S
Tb356 O371 2.353 . S
Tb356 O373 2.427 . S
Tb356 O374 2.513 . S
C357 O361 1.251 . S
C357 O363 1.263 . S
Tb358 O360 2.343 . S
Tb358 O363 2.353 . S
Tb358 O366 2.427 . S
Tb358 O367 2.513 . S
Tb358 O368 2.453 . S
Tb358 O369 2.596 . S
Tb358 O370 2.374 . S
O359 Tb356 2.453 . S
O359 C375 1.245 . S
O360 Tb356 2.596 . S
O360 Tb358 2.343 . S
O360 C375 1.259 . S
O361 Tb356 2.374 . S
O361 C357 1.251 . S
C362 O366 1.275 . S
C362 O367 1.246 . S
O363 C357 1.263 . S
O363 Tb358 2.353 . S
C364 O368 1.245 . S
C364 O369 1.259 . S
C365 O370 1.250 . S
C365 O371 1.263 . S
O366 Tb358 2.427 . S
O366 C362 1.275 . S
O367 Tb358 2.513 . S
O367 C362 1.246 . S
O368 Tb358 2.453 . S
O368 C364 1.245 . S
O369 Tb356 2.343 . S
O369 Tb358 2.596 . S
O369 C364 1.259 . S
O370 Tb358 2.374 . S
O370 C365 1.250 . S
O371 Tb356 2.353 . S
O371 C365 1.263 . S
C372 O373 1.275 . S
C372 O374 1.246 . S
O373 Tb356 2.427 . S
O373 C372 1.275 . S
O374 Tb356 2.513 . S
O374 C372 1.246 . S
C375 O359 1.245 . S
C375 O360 1.259 . S
Tb376 O379 2.453 . S
Tb376 O380 2.596 . S
Tb376 O381 2.374 . S
Tb376 O389 2.343 1_545 S
Tb376 O391 2.353 . S
Tb376 O393 2.427 . S
Tb376 O394 2.513 1_545 S
C377 O381 1.251 . S
C377 O383 1.263 . S
Tb378 O380 2.343 . S
Tb378 O383 2.353 . S
Tb378 O386 2.427 . S
Tb378 O387 2.513 . S
Tb378 O388 2.453 1_545 S
Tb378 O389 2.596 1_545 S
Tb378 O390 2.374 . S
O379 Tb376 2.453 . S
O379 C395 1.245 . S
O380 Tb376 2.596 . S
O380 Tb378 2.343 . S
O380 C395 1.259 . S
O381 Tb376 2.374 . S
O381 C377 1.251 . S
C382 O386 1.275 . S
C382 O387 1.246 . S
O383 C377 1.263 . S
O383 Tb378 2.353 . S
C384 O388 1.245 . S
C384 O389 1.259 . S
C385 O390 1.250 . S
C385 O391 1.263 . S
O386 Tb378 2.427 . S
O386 C382 1.275 . S
O387 Tb378 2.513 . S
O387 C382 1.246 . S
O388 Tb378 2.453 1_565 S
O388 C384 1.245 . S
O389 Tb376 2.343 1_565 S
O389 Tb378 2.596 1_565 S
O389 C384 1.259 . S
O390 Tb378 2.374 . S
O390 C385 1.250 . S
O391 Tb376 2.353 . S
O391 C385 1.263 . S
C392 O393 1.275 1_565 S
C392 O394 1.246 . S
O393 Tb376 2.427 . S
O393 C392 1.275 1_545 S
O394 Tb376 2.513 1_565 S
O394 C392 1.246 . S
C395 O379 1.245 . S
C395 O380 1.259 . S
Tb396 O399 2.453 . S
Tb396 O400 2.596 . S
Tb396 O401 2.374 . S
Tb396 O409 2.343 . S
Tb396 O411 2.353 . S
Tb396 O413 2.427 . S
Tb396 O414 2.513 . S
C397 O401 1.251 . S
C397 O403 1.263 . S
Tb398 O400 2.343 . S
Tb398 O403 2.353 . S
Tb398 O406 2.427 . S
Tb398 O407 2.513 . S
Tb398 O408 2.453 . S
Tb398 O409 2.596 . S
Tb398 O410 2.374 . S
O399 Tb396 2.453 . S
O399 C415 1.245 . S
O400 Tb396 2.596 . S
O400 Tb398 2.343 . S
O400 C415 1.259 . S
O401 Tb396 2.374 . S
O401 C397 1.251 . S
C402 O406 1.275 . S
C402 O407 1.246 . S
O403 C397 1.263 . S
O403 Tb398 2.353 . S
C404 O408 1.245 . S
C404 O409 1.259 . S
C405 O410 1.250 . S
C405 O411 1.263 . S
O406 Tb398 2.427 . S
O406 C402 1.275 . S
O407 Tb398 2.513 . S
O407 C402 1.246 . S
O408 Tb398 2.453 . S
O408 C404 1.245 . S
O409 Tb396 2.343 . S
O409 Tb398 2.596 . S
O409 C404 1.259 . S
O410 Tb398 2.374 . S
O410 C405 1.250 . S
O411 Tb396 2.353 . S
O411 C405 1.263 . S
C412 O413 1.275 . S
C412 O414 1.246 . S
O413 Tb396 2.427 . S
O413 C412 1.275 . S
O414 Tb396 2.513 . S
O414 C412 1.246 . S
C415 O399 1.245 . S
C415 O400 1.259 . S
Tb416 O419 2.425 1_545 S
Tb416 O420 2.591 1_545 S
Tb416 O421 2.376 1_445 S
Tb416 O429 2.373 . S
Tb416 O431 2.361 . S
Tb416 O433 2.444 . S
Tb416 O434 2.530 1_455 S
C417 O421 1.251 1_545 S
C417 O423 1.263 . S
Tb418 O420 2.343 1_545 S
Tb418 O423 2.353 1_455 S
Tb418 O426 2.427 . S
Tb418 O427 2.513 . S
Tb418 O428 2.453 . S
Tb418 O429 2.596 . S
Tb418 O430 2.374 . S
O419 Tb416 2.425 1_565 S
O419 C435 1.245 . S
O420 Tb416 2.591 1_565 S
O420 Tb418 2.343 1_565 S
O420 C435 1.259 . S
O421 Tb416 2.376 1_665 S
O421 C417 1.251 1_565 S
C422 O426 1.275 . S
C422 O427 1.246 . S
O423 C417 1.263 . S
O423 Tb418 2.353 1_655 S
C424 O428 1.245 . S
C424 O429 1.259 . S
C425 O430 1.250 . S
C425 O431 1.263 . S
O426 Tb418 2.427 . S
O426 C422 1.275 . S
O427 Tb418 2.513 . S
O427 C422 1.246 . S
O428 Tb418 2.453 . S
O428 C424 1.245 . S
O429 Tb416 2.373 . S
O429 Tb418 2.596 . S
O429 C424 1.259 . S
O430 Tb418 2.374 . S
O430 C425 1.250 . S
O431 Tb416 2.361 . S
O431 C425 1.263 . S
C432 O433 1.275 1_655 S
C432 O434 1.246 . S
O433 Tb416 2.444 . S
O433 C432 1.275 1_455 S
O434 Tb416 2.530 1_655 S
O434 C432 1.246 . S
C435 O419 1.245 . S
C435 O420 1.259 . S
Tb436 O439 2.453 . S
Tb436 O440 2.596 . S
Tb436 O441 2.374 . S
Tb436 O449 2.343 . S
Tb436 O451 2.353 . S
Tb436 O453 2.427 . S
Tb436 O454 2.513 . S
C437 O441 1.251 . S
C437 O443 1.263 . S
Tb438 O440 2.343 . S
Tb438 O443 2.353 . S
Tb438 O446 2.427 . S
Tb438 O447 2.513 . S
Tb438 O448 2.453 . S
Tb438 O449 2.596 . S
Tb438 O450 2.374 . S
O439 Tb436 2.453 . S
O439 C455 1.245 . S
O440 Tb436 2.596 . S
O440 Tb438 2.343 . S
O440 C455 1.259 . S
O441 Tb436 2.374 . S
O441 C437 1.251 . S
C442 O446 1.275 . S
C442 O447 1.246 . S
O443 C437 1.263 . S
O443 Tb438 2.353 . S
C444 O448 1.245 . S
C444 O449 1.259 . S
C445 O450 1.250 . S
C445 O451 1.263 . S
O446 Tb438 2.427 . S
O446 C442 1.275 . S
O447 Tb438 2.513 . S
O447 C442 1.246 . S
O448 Tb438 2.453 . S
O448 C444 1.245 . S
O449 Tb436 2.343 . S
O449 Tb438 2.596 . S
O449 C444 1.259 . S
O450 Tb438 2.374 . S
O450 C445 1.250 . S
O451 Tb436 2.353 . S
O451 C445 1.263 . S
C452 O453 1.275 . S
C452 O454 1.246 . S
O453 Tb436 2.427 . S
O453 C452 1.275 . S
O454 Tb436 2.513 . S
O454 C452 1.246 . S
C455 O439 1.245 . S
C455 O440 1.259 . S
Tb456 O459 2.453 . S
Tb456 O460 2.596 . S
Tb456 O461 2.374 1_545 S
Tb456 O469 2.343 1_556 S
Tb456 O471 2.353 1_556 S
Tb456 O473 2.427 1_556 S
Tb456 O474 2.513 1_546 S
C457 O461 1.251 . S
C457 O463 1.263 1_556 S
Tb458 O460 2.343 1_554 S
Tb458 O463 2.353 1_545 S
Tb458 O466 2.427 . S
Tb458 O467 2.513 . S
Tb458 O468 2.453 . S
Tb458 O469 2.596 . S
Tb458 O470 2.374 . S
O459 Tb456 2.453 . S
O459 C475 1.245 . S
O460 Tb456 2.596 . S
O460 Tb458 2.343 1_556 S
O460 C475 1.259 . S
O461 Tb456 2.374 1_565 S
O461 C457 1.251 . S
C462 O466 1.275 . S
C462 O467 1.246 . S
O463 C457 1.263 1_554 S
O463 Tb458 2.353 1_565 S
C464 O468 1.245 . S
C464 O469 1.259 . S
C465 O470 1.250 . S
C465 O471 1.263 . S
O466 Tb458 2.427 . S
O466 C462 1.275 . S
O467 Tb458 2.513 . S
O467 C462 1.246 . S
O468 Tb458 2.453 . S
O468 C464 1.245 . S
O469 Tb456 2.343 1_554 S
O469 Tb458 2.596 . S
O469 C464 1.259 . S
O470 Tb458 2.374 . S
O470 C465 1.250 . S
O471 Tb456 2.353 1_554 S
O471 C465 1.263 . S
C472 O473 1.275 . S
C472 O474 1.246 1_545 S
O473 Tb456 2.427 1_554 S
O473 C472 1.275 . S
O474 Tb456 2.513 1_564 S
O474 C472 1.246 1_565 S
C475 O459 1.245 . S
C475 O460 1.259 . S
Tb476 O479 2.453 . S
Tb476 O480 2.596 . S
Tb476 O481 2.374 . S
Tb476 O489 2.343 . S
Tb476 O491 2.353 . S
Tb476 O493 2.427 . S
Tb476 O494 2.513 . S
C477 O481 1.251 . S
C477 O483 1.263 . S
Tb478 O480 2.343 . S
Tb478 O483 2.353 . S
Tb478 O486 2.427 . S
Tb478 O487 2.513 . S
Tb478 O488 2.453 . S
Tb478 O489 2.596 . S
Tb478 O490 2.374 . S
O479 Tb476 2.453 . S
O479 C495 1.245 . S
O480 Tb476 2.596 . S
O480 Tb478 2.343 . S
O480 C495 1.259 . S
O481 Tb476 2.374 . S
O481 C477 1.251 . S
C482 O486 1.275 . S
C482 O487 1.246 . S
O483 C477 1.263 . S
O483 Tb478 2.353 . S
C484 O488 1.245 . S
C484 O489 1.259 . S
C485 O490 1.250 . S
C485 O491 1.263 . S
O486 Tb478 2.427 . S
O486 C482 1.275 . S
O487 Tb478 2.513 . S
O487 C482 1.246 . S
O488 Tb478 2.453 . S
O488 C484 1.245 . S
O489 Tb476 2.343 . S
O489 Tb478 2.596 . S
O489 C484 1.259 . S
O490 Tb478 2.374 . S
O490 C485 1.250 . S
O491 Tb476 2.353 . S
O491 C485 1.263 . S
C492 O493 1.275 . S
C492 O494 1.246 . S
O493 Tb476 2.427 . S
O493 C492 1.275 . S
O494 Tb476 2.513 . S
O494 C492 1.246 . S
C495 O479 1.245 . S
C495 O480 1.259 . S
Tb496 O499 2.438 1_556 S
Tb496 O500 2.596 1_556 S
Tb496 O501 2.374 . S
Tb496 O509 2.343 . S
Tb496 O511 2.353 . S
Tb496 O513 2.427 . S
Tb496 O514 2.513 . S
C497 O501 1.251 1_554 S
C497 O503 1.263 . S
Tb498 O500 2.343 . S
Tb498 O503 2.353 . S
Tb498 O506 2.427 . S
Tb498 O507 2.513 . S
Tb498 O508 2.453 . S
Tb498 O509 2.596 1_554 S
Tb498 O510 2.374 . S
O499 Tb496 2.438 1_554 S
O499 C515 1.271 . S
O500 Tb496 2.596 1_554 S
O500 Tb498 2.343 . S
O500 C515 1.259 . S
O501 Tb496 2.374 . S
O501 C497 1.251 1_556 S
C502 O506 1.275 . S
C502 O507 1.246 . S
O503 C497 1.263 . S
O503 Tb498 2.353 . S
C504 O508 1.250 . S
C504 O509 1.259 1_554 S
C505 O510 1.250 . S
C505 O511 1.263 1_554 S
O506 Tb498 2.427 . S
O506 C502 1.275 . S
O507 Tb498 2.513 . S
O507 C502 1.246 . S
O508 Tb498 2.453 . S
O508 C504 1.250 . S
O509 Tb496 2.343 . S
O509 Tb498 2.596 1_556 S
O509 C504 1.259 1_556 S
O510 Tb498 2.374 . S
O510 C505 1.250 . S
O511 Tb496 2.353 . S
O511 C505 1.263 1_556 S
C512 O513 1.275 . S
C512 O514 1.246 . S
O513 Tb496 2.427 . S
O513 C512 1.275 . S
O514 Tb496 2.513 . S
O514 C512 1.246 . S
C515 O499 1.271 . S
C515 O500 1.259 . S
Tb516 O519 2.453 . S
Tb516 O520 2.596 . S
Tb516 O521 2.374 . S
Tb516 O529 2.343 . S
Tb516 O531 2.353 . S
Tb516 O533 2.427 . S
Tb516 O534 2.513 . S
C517 O521 1.251 . S
C517 O523 1.263 . S
Tb518 O520 2.343 . S
Tb518 O523 2.353 . S
Tb518 O526 2.427 . S
Tb518 O527 2.513 . S
Tb518 O528 2.453 . S
Tb518 O529 2.596 . S
Tb518 O530 2.374 . S
O519 Tb516 2.453 . S
O519 C535 1.245 . S
O520 Tb516 2.596 . S
O520 Tb518 2.343 . S
O520 C535 1.259 . S
O521 Tb516 2.374 . S
O521 C517 1.251 . S
C522 O526 1.275 . S
C522 O527 1.246 . S
O523 C517 1.263 . S
O523 Tb518 2.353 . S
C524 O528 1.245 . S
C524 O529 1.259 . S
C525 O530 1.250 . S
C525 O531 1.263 . S
O526 Tb518 2.427 . S
O526 C522 1.275 . S
O527 Tb518 2.513 . S
O527 C522 1.246 . S
O528 Tb518 2.453 . S
O528 C524 1.245 . S
O529 Tb516 2.343 . S
O529 Tb518 2.596 . S
O529 C524 1.259 . S
O530 Tb518 2.374 . S
O530 C525 1.250 . S
O531 Tb516 2.353 . S
O531 C525 1.263 . S
C532 O533 1.275 . S
C532 O534 1.246 . S
O533 Tb516 2.427 . S
O533 C532 1.275 . S
O534 Tb516 2.513 . S
O534 C532 1.246 . S
C535 O519 1.245 . S
C535 O520 1.259 . S
Tb536 O539 2.453 . S
Tb536 O540 2.596 1_655 S
Tb536 O541 2.374 . S
Tb536 O549 2.343 . S
Tb536 O551 2.353 . S
Tb536 O553 2.427 . S
Tb536 O554 2.513 . S
C537 O541 1.251 1_455 S
C537 O543 1.263 . S
Tb538 O540 2.343 . S
Tb538 O543 2.353 . S
Tb538 O546 2.427 . S
Tb538 O547 2.513 . S
Tb538 O548 2.453 . S
Tb538 O549 2.596 1_455 S
Tb538 O550 2.374 . S
O539 Tb536 2.453 . S
O539 C555 1.245 1_655 S
O540 Tb536 2.596 1_455 S
O540 Tb538 2.343 . S
O540 C555 1.259 . S
O541 Tb536 2.374 . S
O541 C537 1.251 1_655 S
C542 O546 1.275 . S
C542 O547 1.246 . S
O543 C537 1.263 . S
O543 Tb538 2.353 . S
C544 O548 1.245 1_655 S
C544 O549 1.259 . S
C545 O550 1.250 1_655 S
C545 O551 1.263 . S
O546 Tb538 2.427 . S
O546 C542 1.275 . S
O547 Tb538 2.513 . S
O547 C542 1.246 . S
O548 Tb538 2.453 . S
O548 C544 1.245 1_455 S
O549 Tb536 2.343 . S
O549 Tb538 2.596 1_655 S
O549 C544 1.259 . S
O550 Tb538 2.374 . S
O550 C545 1.250 1_455 S
O551 Tb536 2.353 . S
O551 C545 1.263 . S
C552 O553 1.275 . S
C552 O554 1.246 . S
O553 Tb536 2.427 . S
O553 C552 1.275 . S
O554 Tb536 2.513 . S
O554 C552 1.246 . S
C555 O539 1.245 1_455 S
C555 O540 1.259 . S
Tb556 O559 2.453 . S
Tb556 O560 2.596 . S
Tb556 O561 2.374 . S
Tb556 O569 2.343 . S
Tb556 O571 2.353 . S
Tb556 O573 2.427 . S
Tb556 O574 2.513 . S
C557 O561 1.251 . S
C557 O563 1.263 . S
Tb558 O560 2.343 . S
Tb558 O563 2.353 . S
Tb558 O566 2.427 . S
Tb558 O567 2.513 . S
Tb558 O568 2.453 . S
Tb558 O569 2.596 . S
Tb558 O570 2.374 . S
O559 Tb556 2.453 . S
O559 C575 1.245 . S
O560 Tb556 2.596 . S
O560 Tb558 2.343 . S
O560 C575 1.259 . S
O561 Tb556 2.374 . S
O561 C557 1.251 . S
C562 O566 1.275 . S
C562 O567 1.246 . S
O563 C557 1.263 . S
O563 Tb558 2.353 . S
C564 O568 1.245 . S
C564 O569 1.259 . S
C565 O570 1.250 . S
C565 O571 1.263 . S
O566 Tb558 2.427 . S
O566 C562 1.275 . S
O567 Tb558 2.513 . S
O567 C562 1.246 . S
O568 Tb558 2.453 . S
O568 C564 1.245 . S
O569 Tb556 2.343 . S
O569 Tb558 2.596 . S
O569 C564 1.259 . S
O570 Tb558 2.374 . S
O570 C565 1.250 . S
O571 Tb556 2.353 . S
O571 C565 1.263 . S
C572 O573 1.275 . S
C572 O574 1.246 . S
O573 Tb556 2.427 . S
O573 C572 1.275 . S
O574 Tb556 2.513 . S
O574 C572 1.246 . S
C575 O559 1.245 . S
C575 O560 1.259 . S
Tb576 O579 2.453 . S
Tb576 O580 2.596 . S
Tb576 O581 2.374 . S
Tb576 O589 2.343 . S
Tb576 O591 2.353 . S
Tb576 O593 2.427 . S
Tb576 O594 2.513 . S
C577 O581 1.251 . S
C577 O583 1.263 . S
Tb578 O580 2.343 . S
Tb578 O583 2.353 . S
Tb578 O586 2.427 . S
Tb578 O587 2.513 . S
Tb578 O588 2.453 . S
Tb578 O589 2.596 . S
Tb578 O590 2.374 . S
O579 Tb576 2.453 . S
O579 C595 1.245 . S
O580 Tb576 2.596 . S
O580 Tb578 2.343 . S
O580 C595 1.259 . S
O581 Tb576 2.374 . S
O581 C577 1.251 . S
C582 O586 1.275 . S
C582 O587 1.246 . S
O583 C577 1.263 . S
O583 Tb578 2.353 . S
C584 O588 1.245 . S
C584 O589 1.259 . S
C585 O590 1.250 . S
C585 O591 1.263 . S
O586 Tb578 2.427 . S
O586 C582 1.275 . S
O587 Tb578 2.513 . S
O587 C582 1.246 . S
O588 Tb578 2.453 . S
O588 C584 1.245 . S
O589 Tb576 2.343 . S
O589 Tb578 2.596 . S
O589 C584 1.259 . S
O590 Tb578 2.374 . S
O590 C585 1.250 . S
O591 Tb576 2.353 . S
O591 C585 1.263 . S
C592 O593 1.275 . S
C592 O594 1.246 . S
O593 Tb576 2.427 . S
O593 C592 1.275 . S
O594 Tb576 2.513 . S
O594 C592 1.246 . S
C595 O579 1.245 . S
C595 O580 1.259 . S
Tb596 O599 2.453 . S
Tb596 O600 2.596 . S
Tb596 O601 2.374 . S
Tb596 O609 2.343 . S
Tb596 O611 2.353 . S
Tb596 O613 2.427 . S
Tb596 O614 2.513 . S
C597 O601 1.251 . S
C597 O603 1.263 . S
Tb598 O600 2.343 . S
Tb598 O603 2.353 . S
Tb598 O606 2.427 . S
Tb598 O607 2.513 . S
Tb598 O608 2.453 . S
Tb598 O609 2.596 . S
Tb598 O610 2.374 . S
O599 Tb596 2.453 . S
O599 C615 1.245 . S
O600 Tb596 2.596 . S
O600 Tb598 2.343 . S
O600 C615 1.259 . S
O601 Tb596 2.374 . S
O601 C597 1.251 . S
C602 O606 1.275 . S
C602 O607 1.246 . S
O603 C597 1.263 . S
O603 Tb598 2.353 . S
C604 O608 1.245 . S
C604 O609 1.259 . S
C605 O610 1.250 . S
C605 O611 1.263 . S
O606 Tb598 2.427 . S
O606 C602 1.275 . S
O607 Tb598 2.513 . S
O607 C602 1.246 . S
O608 Tb598 2.453 . S
O608 C604 1.245 . S
O609 Tb596 2.343 . S
O609 Tb598 2.596 . S
O609 C604 1.259 . S
O610 Tb598 2.374 . S
O610 C605 1.250 . S
O611 Tb596 2.353 . S
O611 C605 1.263 . S
C612 O613 1.275 . S
C612 O614 1.246 . S
O613 Tb596 2.427 . S
O613 C612 1.275 . S
O614 Tb596 2.513 . S
O614 C612 1.246 . S
C615 O599 1.245 . S
C615 O600 1.259 . S
Tb616 O619 2.453 . S
Tb616 O620 2.596 . S
Tb616 O621 2.374 . S
Tb616 O629 2.343 . S
Tb616 O631 2.353 . S
Tb616 O633 2.427 . S
Tb616 O634 2.513 . S
C617 O621 1.251 . S
C617 O623 1.263 . S
Tb618 O620 2.343 . S
Tb618 O623 2.353 . S
Tb618 O626 2.427 . S
Tb618 O627 2.513 . S
Tb618 O628 2.453 . S
Tb618 O629 2.596 . S
Tb618 O630 2.374 . S
O619 Tb616 2.453 . S
O619 C635 1.245 . S
O620 Tb616 2.596 . S
O620 Tb618 2.343 . S
O620 C635 1.259 . S
O621 Tb616 2.374 . S
O621 C617 1.251 . S
C622 O626 1.275 . S
C622 O627 1.246 . S
O623 C617 1.263 . S
O623 Tb618 2.353 . S
C624 O628 1.245 . S
C624 O629 1.259 . S
C625 O630 1.250 . S
C625 O631 1.263 . S
O626 Tb618 2.427 . S
O626 C622 1.275 . S
O627 Tb618 2.513 . S
O627 C622 1.246 . S
O628 Tb618 2.453 . S
O628 C624 1.245 . S
O629 Tb616 2.343 . S
O629 Tb618 2.596 . S
O629 C624 1.259 . S
O630 Tb618 2.374 . S
O630 C625 1.250 . S
O631 Tb616 2.353 . S
O631 C625 1.263 . S
C632 O633 1.275 . S
C632 O634 1.246 . S
O633 Tb616 2.427 . S
O633 C632 1.275 . S
O634 Tb616 2.513 . S
O634 C632 1.246 . S
C635 O619 1.245 . S
C635 O620 1.259 . S
Tb636 O639 2.453 . S
Tb636 O640 2.574 1_455 S
Tb636 O641 2.374 . S
Tb636 O649 2.343 . S
Tb636 O651 2.353 1_554 S
Tb636 O653 2.427 1_554 S
Tb636 O654 2.513 . S
C637 O641 1.251 . S
C637 O643 1.263 1_455 S
Tb638 O640 2.356 . S
Tb638 O643 2.353 . S
Tb638 O646 2.427 . S
Tb638 O647 2.513 . S
Tb638 O648 2.453 . S
Tb638 O649 2.596 1_655 S
Tb638 O650 2.374 1_554 S
O639 Tb636 2.453 . S
O639 C655 1.245 . S
O640 Tb636 2.574 1_655 S
O640 Tb638 2.356 . S
O640 C655 1.252 1_655 S
O641 Tb636 2.374 . S
O641 C637 1.251 . S
C642 O646 1.275 . S
C642 O647 1.246 . S
O643 C637 1.263 1_655 S
O643 Tb638 2.353 . S
C644 O648 1.245 1_556 S
C644 O649 1.259 1_656 S
C645 O650 1.250 . S
C645 O651 1.263 1_655 S
O646 Tb638 2.427 . S
O646 C642 1.275 . S
O647 Tb638 2.513 . S
O647 C642 1.246 . S
O648 Tb638 2.453 . S
O648 C644 1.245 1_554 S
O649 Tb636 2.343 . S
O649 Tb638 2.596 1_455 S
O649 C644 1.259 1_454 S
O650 Tb638 2.374 1_556 S
O650 C645 1.250 . S
O651 Tb636 2.353 1_556 S
O651 C645 1.263 1_455 S
C652 O653 1.265 1_554 S
C652 O654 1.260 . S
O653 Tb636 2.427 1_556 S
O653 C652 1.265 1_556 S
O654 Tb636 2.513 . S
O654 C652 1.260 . S
C655 O639 1.245 . S
C655 O640 1.252 1_455 S
C656 C657 1.387 1_655 S
C656 H660 0.950 . S
C656 C665 1.390 1_655 S
C657 C656 1.387 1_455 S
C657 C659 1.387 . S
H658 C665 0.944 1_654 S
C659 C657 1.387 . S
C659 C661 1.390 . S
C659 H663 0.950 . S
H660 C656 0.950 . S
C661 C659 1.390 . S
C661 C662 1.387 . S
C661 H664 0.950 . S
C662 C661 1.387 . S
C662 C665 1.387 . S
H663 C659 0.950 . S
H664 C661 0.950 . S
C665 C656 1.390 1_455 S
C665 H658 0.944 1_456 S
C665 C662 1.387 . S
C666 C667 1.387 . S
C666 H670 0.950 . S
C666 C675 1.390 . S
C667 C666 1.387 . S
C667 C669 1.387 . S
H668 C675 0.950 . S
C669 C667 1.387 . S
C669 C671 1.390 . S
C669 H673 0.950 . S
H670 C666 0.950 . S
C671 C669 1.390 . S
C671 C672 1.387 . S
C671 H674 0.950 . S
C672 C671 1.387 . S
C672 C675 1.387 . S
H673 C669 0.950 . S
H674 C671 0.950 . S
C675 C666 1.390 . S
C675 H668 0.950 . S
C675 C672 1.387 . S
C676 C677 1.387 . S
C676 H680 0.950 . S
C676 C685 1.390 . S
C677 C676 1.387 . S
C677 C679 1.387 . S
H678 C685 0.950 . S
C679 C677 1.387 . S
C679 C681 1.390 . S
C679 H683 0.950 . S
H680 C676 0.950 . S
C681 C679 1.390 . S
C681 C682 1.387 . S
C681 H684 0.950 . S
C682 C681 1.387 . S
C682 C685 1.387 . S
H683 C679 0.950 . S
H684 C681 0.950 . S
C685 C676 1.390 . S
C685 H678 0.950 . S
C685 C682 1.387 . S
C686 C687 1.387 . S
C686 H690 0.950 . S
C686 C695 1.390 . S
C687 C686 1.387 . S
C687 C689 1.387 . S
H688 C695 0.950 . S
C689 C687 1.387 . S
C689 C691 1.390 . S
C689 H693 0.950 . S
H690 C686 0.950 . S
C691 C689 1.390 . S
C691 C692 1.387 . S
C691 H694 0.950 . S
C692 C691 1.387 . S
C692 C695 1.387 . S
H693 C689 0.950 . S
H694 C691 0.950 . S
C695 C686 1.390 . S
C695 H688 0.950 . S
C695 C692 1.387 . S
C696 C697 1.387 . S
C696 H700 0.950 . S
C696 C705 1.390 . S
C697 C696 1.387 . S
C697 C699 1.387 1_455 S
H698 C705 0.950 . S
C699 C697 1.387 1_655 S
C699 C701 1.390 . S
C699 H703 0.950 . S
H700 C696 0.950 . S
C701 C699 1.390 . S
C701 C702 1.387 1_655 S
C701 H704 0.950 . S
C702 C701 1.387 1_455 S
C702 C705 1.387 . S
H703 C699 0.950 . S
H704 C701 0.950 . S
C705 C696 1.390 . S
C705 H698 0.950 . S
C705 C702 1.387 . S
C706 C707 1.387 . S
C706 H710 0.950 . S
C706 C715 1.390 . S
C707 C706 1.387 . S
C707 C709 1.387 . S
H708 C715 0.950 . S
C709 C707 1.387 . S
C709 C711 1.390 . S
C709 H713 0.950 . S
H710 C706 0.950 . S
C711 C709 1.390 . S
C711 C712 1.387 . S
C711 H714 0.950 . S
C712 C711 1.387 . S
C712 C715 1.387 . S
H713 C709 0.950 . S
H714 C711 0.950 . S
C715 C706 1.390 . S
C715 H708 0.950 . S
C715 C712 1.387 . S
C716 C717 1.387 . S
C716 H720 0.950 . S
C716 C725 1.390 . S
C717 C716 1.387 . S
C717 C719 1.387 . S
H718 C725 0.950 . S
C719 C717 1.387 . S
C719 C721 1.390 . S
C719 H723 0.950 . S
H720 C716 0.950 . S
C721 C719 1.390 . S
C721 C722 1.387 . S
C721 H724 0.950 . S
C722 C721 1.387 . S
C722 C725 1.387 . S
H723 C719 0.950 . S
H724 C721 0.950 . S
C725 C716 1.390 . S
C725 H718 0.950 . S
C725 C722 1.387 . S
C726 C727 1.387 . S
C726 H730 0.950 . S
C726 C735 1.390 . S
C727 C726 1.387 . S
C727 C729 1.387 . S
H728 C735 0.950 . S
C729 C727 1.387 . S
C729 C731 1.390 . S
C729 H733 0.950 . S
H730 C726 0.950 . S
C731 C729 1.390 . S
C731 C732 1.387 . S
C731 H734 0.950 . S
C732 C731 1.387 . S
C732 C735 1.387 . S
H733 C729 0.950 . S
H734 C731 0.950 . S
C735 C726 1.390 . S
C735 H728 0.950 . S
C735 C732 1.387 . S
C736 C737 1.387 . S
C736 H740 0.950 . S
C736 C745 1.390 . S
C737 C736 1.387 . S
C737 C739 1.387 . S
H738 C745 0.950 . S
C739 C737 1.387 . S
C739 C741 1.390 . S
C739 H743 0.950 . S
H740 C736 0.950 . S
C741 C739 1.390 . S
C741 C742 1.387 . S
C741 H744 0.950 . S
C742 C741 1.387 . S
C742 C745 1.387 . S
H743 C739 0.950 . S
H744 C741 0.950 . S
C745 C736 1.390 . S
C745 H738 0.950 . S
C745 C742 1.387 . S
C746 C747 1.387 . S
C746 H750 0.950 . S
C746 C755 1.390 . S
C747 C746 1.387 . S
C747 C749 1.387 . S
H748 C755 0.950 . S
C749 C747 1.387 . S
C749 C751 1.390 . S
C749 H753 0.950 . S
H750 C746 0.950 . S
C751 C749 1.390 . S
C751 C752 1.387 . S
C751 H754 0.950 . S
C752 C751 1.387 . S
C752 C755 1.387 . S
H753 C749 0.950 . S
H754 C751 0.950 . S
C755 C746 1.390 . S
C755 H748 0.950 . S
C755 C752 1.387 . S
C756 C757 1.387 . S
C756 H760 0.950 . S
C756 C765 1.390 . S
C757 C756 1.387 . S
C757 C759 1.387 1_545 S
H758 C765 0.950 . S
C759 C757 1.387 1_565 S
C759 C761 1.390 . S
C759 H763 0.950 . S
H760 C756 0.950 . S
C761 C759 1.390 . S
C761 C762 1.387 1_565 S
C761 H764 0.950 . S
C762 C761 1.387 1_545 S
C762 C765 1.387 . S
H763 C759 0.950 . S
H764 C761 0.950 . S
C765 C756 1.390 . S
C765 H758 0.950 . S
C765 C762 1.387 . S
C766 C767 1.387 . S
C766 H770 0.950 . S
C766 C775 1.390 . S
C767 C766 1.387 . S
C767 C769 1.387 . S
H768 C775 0.950 . S
C769 C767 1.387 . S
C769 C771 1.390 . S
C769 H773 0.950 . S
H770 C766 0.950 . S
C771 C769 1.390 . S
C771 C772 1.387 . S
C771 H774 0.950 . S
C772 C771 1.387 . S
C772 C775 1.387 . S
H773 C769 0.950 . S
H774 C771 0.950 . S
C775 C766 1.390 . S
C775 H768 0.950 . S
C775 C772 1.387 . S
C776 C777 1.387 . S
C776 H780 0.950 . S
C776 C785 1.390 . S
C777 C776 1.387 . S
C777 C779 1.387 . S
H778 C785 0.950 1_455 S
C779 C777 1.387 . S
C779 C781 1.390 . S
C779 H783 0.950 . S
H780 C776 0.950 . S
C781 C779 1.390 . S
C781 C782 1.387 . S
C781 H784 0.950 . S
C782 C781 1.387 . S
C782 C785 1.387 . S
H783 C779 0.950 . S
H784 C781 0.950 . S
C785 C776 1.390 . S
C785 H778 0.950 1_655 S
C785 C782 1.387 . S
C786 C787 1.387 . S
C786 H790 0.950 . S
C786 C795 1.390 . S
C787 C786 1.387 . S
C787 C789 1.387 . S
H788 C795 0.950 . S
C789 C787 1.387 . S
C789 C791 1.390 . S
C789 H793 0.950 . S
H790 C786 0.950 . S
C791 C789 1.390 . S
C791 C792 1.387 . S
C791 H794 0.950 . S
C792 C791 1.387 . S
C792 C795 1.387 . S
H793 C789 0.950 . S
H794 C791 0.950 . S
C795 C786 1.390 . S
C795 H788 0.950 . S
C795 C792 1.387 . S
C796 C797 1.387 . S
C796 H800 0.950 . S
C796 C805 1.390 . S
C797 C796 1.387 . S
C797 C799 1.387 1_545 S
H798 C805 0.950 . S
C799 C797 1.387 1_565 S
C799 C801 1.390 1_565 S
C799 H803 0.950 . S
H800 C796 0.950 . S
C801 C799 1.390 1_545 S
C801 C802 1.387 . S
C801 H804 0.950 1_545 S
C802 C801 1.387 . S
C802 C805 1.387 . S
H803 C799 0.950 . S
H804 C801 0.950 1_565 S
C805 C796 1.390 . S
C805 H798 0.950 . S
C805 C802 1.387 . S
C806 C807 1.387 . S
C806 H810 0.950 . S
C806 C815 1.390 . S
C807 C806 1.387 . S
C807 C809 1.387 . S
H808 C815 0.950 . S
C809 C807 1.387 . S
C809 C811 1.390 . S
C809 H813 0.950 . S
H810 C806 0.950 . S
C811 C809 1.390 . S
C811 C812 1.387 . S
C811 H814 0.950 . S
C812 C811 1.387 . S
C812 C815 1.387 . S
H813 C809 0.950 . S
H814 C811 0.950 . S
C815 C806 1.390 . S
C815 H808 0.950 . S
C815 C812 1.387 . S
C816 C817 1.387 . S
C816 H820 0.950 . S
C816 C825 1.390 . S
C817 C816 1.387 . S
C817 C819 1.387 . S
H818 C825 0.950 . S
C819 C817 1.387 . S
C819 C821 1.390 . S
C819 H823 0.950 1_554 S
H820 C816 0.950 . S
C821 C819 1.390 . S
C821 C822 1.387 . S
C821 H824 0.950 1_554 S
C822 C821 1.387 . S
C822 C825 1.387 . S
H823 C819 0.950 1_556 S
H824 C821 0.950 1_556 S
C825 C816 1.390 . S
C825 H818 0.950 . S
C825 C822 1.387 . S
C826 C827 1.387 1_554 S
C826 H830 0.950 . S
C826 C835 1.390 . S
C827 C826 1.387 1_556 S
C827 C829 1.387 . S
H828 C835 0.950 . S
C829 C827 1.387 . S
C829 C831 1.390 . S
C829 H833 0.950 . S
H830 C826 0.950 . S
C831 C829 1.390 . S
C831 C832 1.387 . S
C831 H834 0.950 . S
C832 C831 1.387 . S
C832 C835 1.387 1_556 S
H833 C829 0.950 . S
H834 C831 0.950 . S
C835 C826 1.390 . S
C835 H828 0.950 . S
C835 C832 1.387 1_554 S
C836 C837 1.387 . S
C836 H840 0.950 . S
C836 C845 1.390 . S
C837 C836 1.387 . S
C837 C839 1.387 . S
H838 C845 0.950 . S
C839 C837 1.387 . S
C839 C841 1.390 . S
C839 H843 0.950 . S
H840 C836 0.950 . S
C841 C839 1.390 . S
C841 C842 1.387 . S
C841 H844 0.950 . S
C842 C841 1.387 . S
C842 C845 1.387 . S
H843 C839 0.950 . S
H844 C841 0.950 . S
C845 C836 1.390 . S
C845 H838 0.950 . S
C845 C842 1.387 . S
C846 C847 1.387 . S
C846 H850 0.950 . S
C846 C855 1.390 . S
C847 C846 1.387 . S
C847 C849 1.387 . S
H848 C855 0.950 . S
C849 C847 1.387 . S
C849 C851 1.390 . S
C849 H853 0.950 . S
H850 C846 0.950 . S
C851 C849 1.390 . S
C851 C852 1.387 . S
C851 H854 0.950 . S
C852 C851 1.387 . S
C852 C855 1.387 . S
H853 C849 0.950 . S
H854 C851 0.950 . S
C855 C846 1.390 . S
C855 H848 0.950 . S
C855 C852 1.387 . S
C856 C857 1.387 . S
C856 H860 0.950 . S
C856 C865 1.390 . S
C857 C856 1.387 . S
C857 C859 1.387 . S
H858 C865 0.950 . S
C859 C857 1.387 . S
C859 C861 1.390 . S
C859 H863 0.950 . S
H860 C856 0.950 . S
C861 C859 1.390 . S
C861 C862 1.387 . S
C861 H864 0.950 . S
C862 C861 1.387 . S
C862 C865 1.387 . S
H863 C859 0.950 . S
H864 C861 0.950 . S
C865 C856 1.390 . S
C865 H858 0.950 . S
C865 C862 1.387 . S
C866 C867 1.387 . S
C866 H870 0.950 . S
C866 C875 1.390 . S
C867 C866 1.387 . S
C867 C869 1.387 . S
H868 C875 0.950 . S
C869 C867 1.387 . S
C869 C871 1.390 . S
C869 H873 0.950 . S
H870 C866 0.950 . S
C871 C869 1.390 . S
C871 C872 1.387 . S
C871 H874 0.950 . S
C872 C871 1.387 . S
C872 C875 1.387 . S
H873 C869 0.950 . S
H874 C871 0.950 . S
C875 C866 1.390 . S
C875 H868 0.950 . S
C875 C872 1.387 . S
C876 C877 1.387 . S
C876 H880 0.950 . S
C876 C885 1.390 . S
C877 C876 1.387 . S
C877 C879 1.387 . S
H878 C885 0.950 . S
C879 C877 1.387 . S
C879 C881 1.390 . S
C879 H883 0.950 . S
H880 C876 0.950 . S
C881 C879 1.390 . S
C881 C882 1.387 . S
C881 H884 0.950 . S
C882 C881 1.387 . S
C882 C885 1.387 . S
H883 C879 0.950 . S
H884 C881 0.950 . S
C885 C876 1.390 . S
C885 H878 0.950 . S
C885 C882 1.387 . S
C886 C887 1.387 . S
C886 H890 0.950 . S
C886 C895 1.390 . S
C887 C886 1.387 . S
C887 C889 1.387 . S
H888 C895 0.950 . S
C889 C887 1.387 . S
C889 C891 1.390 . S
C889 H893 0.950 . S
H890 C886 0.950 . S
C891 C889 1.390 . S
C891 C892 1.387 . S
C891 H894 0.950 . S
C892 C891 1.387 . S
C892 C895 1.387 . S
H893 C889 0.950 . S
H894 C891 0.950 . S
C895 C886 1.390 . S
C895 H888 0.950 . S
C895 C892 1.387 . S
C896 C897 1.387 . S
C896 H900 0.950 . S
C896 C905 1.390 . S
C897 C896 1.387 . S
C897 C899 1.387 . S
H898 C905 0.950 . S
C899 C897 1.387 . S
C899 C901 1.390 . S
C899 H903 0.950 . S
H900 C896 0.950 . S
C901 C899 1.390 . S
C901 C902 1.387 . S
C901 H904 0.950 . S
C902 C901 1.387 . S
C902 C905 1.387 . S
H903 C899 0.950 . S
H904 C901 0.950 . S
C905 C896 1.390 . S
C905 H898 0.950 . S
C905 C902 1.387 . S
C906 C907 1.387 . S
C906 H910 0.950 . S
C906 C915 1.390 . S
C907 C906 1.387 . S
C907 C909 1.387 . S
H908 C915 0.950 . S
C909 C907 1.387 . S
C909 C911 1.390 . S
C909 H913 0.950 . S
H910 C906 0.950 . S
C911 C909 1.390 . S
C911 C912 1.387 . S
C911 H914 0.950 . S
C912 C911 1.387 . S
C912 C915 1.387 . S
H913 C909 0.950 . S
H914 C911 0.950 . S
C915 C906 1.390 . S
C915 H908 0.950 . S
C915 C912 1.387 . S
C916 C917 1.387 . S
C916 H920 0.950 . S
C916 C925 1.390 . S
C917 C916 1.387 . S
C917 C919 1.387 . S
H918 C925 0.950 . S
C919 C917 1.387 . S
C919 C921 1.390 . S
C919 H923 0.950 . S
H920 C916 0.950 . S
C921 C919 1.390 . S
C921 C922 1.387 . S
C921 H924 0.950 . S
C922 C921 1.387 . S
C922 C925 1.387 . S
H923 C919 0.950 . S
H924 C921 0.950 . S
C925 C916 1.390 . S
C925 H918 0.950 . S
C925 C922 1.387 . S
C926 C927 1.387 . S
C926 H930 0.950 . S
C926 C935 1.390 . S
C927 C926 1.387 . S
C927 C929 1.387 . S
H928 C935 0.950 . S
C929 C927 1.387 . S
C929 C931 1.390 . S
C929 H933 0.950 . S
H930 C926 0.950 . S
C931 C929 1.390 . S
C931 C932 1.387 . S
C931 H934 0.950 . S
C932 C931 1.387 . S
C932 C935 1.387 . S
H933 C929 0.950 . S
H934 C931 0.950 . S
C935 C926 1.390 . S
C935 H928 0.950 . S
C935 C932 1.387 . S
C936 C937 1.387 1_655 S
C936 H940 0.950 . S
C936 C945 1.390 . S
C937 C936 1.387 1_455 S
C937 C939 1.387 . S
H938 C945 0.950 . S
C939 C937 1.387 . S
C939 C941 1.390 . S
C939 H943 0.950 . S
H940 C936 0.950 . S
C941 C939 1.390 . S
C941 C942 1.387 . S
C941 H944 0.950 . S
C942 C941 1.387 . S
C942 C945 1.387 1_455 S
H943 C939 0.950 . S
H944 C941 0.950 . S
C945 C936 1.390 . S
C945 H938 0.950 . S
C945 C942 1.387 1_655 S
C946 C947 1.387 . S
C946 H950 0.950 . S
C946 C955 1.390 . S
C947 C946 1.387 . S
C947 C949 1.387 . S
H948 C955 0.950 . S
C949 C947 1.387 . S
C949 C951 1.390 . S
C949 H953 0.950 . S
H950 C946 0.950 . S
C951 C949 1.390 . S
C951 C952 1.387 . S
C951 H954 0.950 . S
C952 C951 1.387 . S
C952 C955 1.387 . S
H953 C949 0.950 . S
H954 C951 0.950 . S
C955 C946 1.390 . S
C955 H948 0.950 . S
C955 C952 1.387 . S
C956 C957 1.387 . S
C956 H960 0.950 1_556 S
C956 C965 1.390 1_556 S
C957 C956 1.387 . S
C957 C959 1.387 . S
H958 C965 0.950 . S
C959 C957 1.387 . S
C959 C961 1.390 . S
C959 H963 0.950 . S
H960 C956 0.950 1_554 S
C961 C959 1.390 . S
C961 C962 1.387 . S
C961 H964 0.950 . S
C962 C961 1.387 . S
C962 C965 1.387 1_556 S
H963 C959 0.950 . S
H964 C961 0.950 . S
C965 C956 1.390 1_554 S
C965 H958 0.950 . S
C965 C962 1.387 1_554 S
C966 C967 1.387 . S
C966 H970 0.950 . S
C966 C975 1.390 . S
C967 C966 1.387 . S
C967 C969 1.387 . S
H968 C975 0.950 . S
C969 C967 1.387 . S
C969 C971 1.390 . S
C969 H973 0.950 . S
H970 C966 0.950 . S
C971 C969 1.390 . S
C971 C972 1.387 . S
C971 H974 0.950 . S
C972 C971 1.387 . S
C972 C975 1.387 . S
H973 C969 0.950 . S
H974 C971 0.950 . S
C975 C966 1.390 . S
C975 H968 0.950 . S
C975 C972 1.387 . S
C976 C977 1.387 . S
C976 H980 0.950 . S
C976 C985 1.390 . S
C977 C976 1.387 . S
C977 C979 1.387 1_545 S
H978 C985 0.950 . S
C979 C977 1.387 1_565 S
C979 C981 1.390 . S
C979 H983 0.950 . S
H980 C976 0.950 . S
C981 C979 1.390 . S
C981 C982 1.387 1_565 S
C981 H984 0.950 . S
C982 C981 1.387 1_545 S
C982 C985 1.387 . S
H983 C979 0.950 . S
H984 C981 0.950 . S
C985 C976 1.390 . S
C985 H978 0.950 . S
C985 C982 1.387 . S
C986 C987 1.387 . S
C986 H990 0.950 . S
C986 C995 1.390 . S
C987 C986 1.387 . S
C987 C989 1.387 . S
H988 C995 0.950 . S
C989 C987 1.387 . S
C989 C991 1.390 . S
C989 H993 0.950 . S
H990 C986 0.950 . S
C991 C989 1.390 . S
C991 C992 1.387 . S
C991 H994 0.950 . S
C992 C991 1.387 . S
C992 C995 1.387 . S
H993 C989 0.950 . S
H994 C991 0.950 . S
C995 C986 1.390 . S
C995 H988 0.950 . S
C995 C992 1.387 . S
C996 C997 1.387 . S
C996 H1000 0.950 . S
C996 C1005 1.390 . S
C997 C996 1.387 . S
C997 C999 1.387 . S
H998 C1005 0.950 1_565 S
C999 C997 1.387 . S
C999 C1001 1.390 . S
C999 H1003 0.950 . S
H1000 C996 0.950 . S
C1001 C999 1.390 . S
C1001 C1002 1.387 . S
C1001 H1004 0.950 . S
C1002 C1001 1.387 . S
C1002 C1005 1.387 . S
H1003 C999 0.950 . S
H1004 C1001 0.950 . S
C1005 C996 1.390 . S
C1005 H998 0.950 1_545 S
C1005 C1002 1.387 . S
C1006 C1007 1.387 . S
C1006 H1010 0.950 . S
C1006 C1015 1.390 . S
C1007 C1006 1.387 . S
C1007 C1009 1.387 . S
H1008 C1015 0.950 . S
C1009 C1007 1.387 . S
C1009 C1011 1.390 . S
C1009 H1013 0.950 . S
H1010 C1006 0.950 . S
C1011 C1009 1.390 . S
C1011 C1012 1.387 . S
C1011 H1014 0.950 . S
C1012 C1011 1.387 . S
C1012 C1015 1.387 . S
H1013 C1009 0.950 . S
H1014 C1011 0.950 . S
C1015 C1006 1.390 . S
C1015 H1008 0.950 . S
C1015 C1012 1.387 . S
C1016 C1017 1.387 1_545 S
C1016 H1020 0.950 . S
C1016 C1025 1.390 . S
C1017 C1016 1.387 1_565 S
C1017 C1019 1.387 . S
H1018 C1025 0.950 . S
C1019 C1017 1.387 . S
C1019 C1021 1.390 . S
C1019 H1023 0.950 . S
H1020 C1016 0.950 . S
C1021 C1019 1.390 . S
C1021 C1022 1.387 1_565 S
C1021 H1024 0.950 . S
C1022 C1021 1.387 1_545 S
C1022 C1025 1.387 . S
H1023 C1019 0.950 . S
H1024 C1021 0.950 . S
C1025 C1016 1.390 . S
C1025 H1018 0.950 . S
C1025 C1022 1.387 . S
C1026 C1027 1.387 . S
C1026 H1030 0.950 . S
C1026 C1035 1.390 . S
C1027 C1026 1.387 . S
C1027 C1029 1.387 . S
H1028 C1035 0.950 . S
C1029 C1027 1.387 . S
C1029 C1031 1.390 . S
C1029 H1033 0.950 . S
H1030 C1026 0.950 . S
C1031 C1029 1.390 . S
C1031 C1032 1.387 . S
C1031 H1034 0.950 . S
C1032 C1031 1.387 . S
C1032 C1035 1.387 . S
H1033 C1029 0.950 . S
H1034 C1031 0.950 . S
C1035 C1026 1.390 . S
C1035 H1028 0.950 . S
C1035 C1032 1.387 . S
C1036 C1037 1.387 . S
C1036 H1040 0.950 1_545 S
C1036 C1045 1.390 . S
C1037 C1036 1.387 . S
C1037 C1039 1.387 . S
H1038 C1045 0.950 1_565 S
C1039 C1037 1.387 . S
C1039 C1041 1.390 . S
C1039 H1043 0.950 . S
H1040 C1036 0.950 1_565 S
C1041 C1039 1.390 . S
C1041 C1042 1.387 . S
C1041 H1044 0.950 . S
C1042 C1041 1.387 . S
C1042 C1045 1.387 . S
H1043 C1039 0.950 . S
H1044 C1041 0.950 . S
C1045 C1036 1.390 . S
C1045 H1038 0.950 1_545 S
C1045 C1042 1.387 . S
C1046 C1047 1.387 . S
C1046 H1050 0.950 . S
C1046 C1055 1.390 . S
C1047 C1046 1.387 . S
C1047 C1049 1.387 . S
H1048 C1055 0.950 . S
C1049 C1047 1.387 . S
C1049 C1051 1.390 . S
C1049 H1053 0.950 . S
H1050 C1046 0.950 . S
C1051 C1049 1.390 . S
C1051 C1052 1.387 . S
C1051 H1054 0.950 . S
C1052 C1051 1.387 . S
C1052 C1055 1.387 . S
H1053 C1049 0.950 . S
H1054 C1051 0.950 . S
C1055 C1046 1.390 . S
C1055 H1048 0.950 . S
C1055 C1052 1.387 . S
C1056 C1057 1.387 . S
C1056 H1060 0.950 . S
C1056 C1065 1.390 . S
C1057 C1056 1.387 . S
C1057 C1059 1.387 1_554 S
H1058 C1065 0.950 . S
C1059 C1057 1.387 1_556 S
C1059 C1061 1.390 . S
C1059 H1063 0.950 . S
H1060 C1056 0.950 . S
C1061 C1059 1.390 . S
C1061 C1062 1.387 1_556 S
C1061 H1064 0.950 . S
C1062 C1061 1.387 1_554 S
C1062 C1065 1.387 . S
H1063 C1059 0.950 . S
H1064 C1061 0.950 . S
C1065 C1056 1.390 . S
C1065 H1058 0.950 . S
C1065 C1062 1.387 . S
C1066 C1067 1.387 . S
C1066 H1070 0.950 1_554 S
C1066 C1075 1.390 . S
C1067 C1066 1.387 . S
C1067 C1069 1.387 . S
H1068 C1075 0.950 1_556 S
C1069 C1067 1.387 . S
C1069 C1071 1.390 . S
C1069 H1073 0.950 . S
H1070 C1066 0.950 1_556 S
C1071 C1069 1.390 . S
C1071 C1072 1.387 . S
C1071 H1074 0.950 . S
C1072 C1071 1.387 . S
C1072 C1075 1.387 . S
H1073 C1069 0.950 . S
H1074 C1071 0.950 . S
C1075 C1066 1.390 . S
C1075 H1068 0.950 1_554 S
C1075 C1072 1.387 . S
C1076 C1077 1.387 . S
C1076 H1080 0.950 . S
C1076 C1085 1.390 . S
C1077 C1076 1.387 . S
C1077 C1079 1.387 . S
H1078 C1085 0.950 . S
C1079 C1077 1.387 . S
C1079 C1081 1.390 . S
C1079 H1083 0.950 . S
H1080 C1076 0.950 . S
C1081 C1079 1.390 . S
C1081 C1082 1.387 . S
C1081 H1084 0.950 . S
C1082 C1081 1.387 . S
C1082 C1085 1.387 . S
H1083 C1079 0.950 . S
H1084 C1081 0.950 . S
C1085 C1076 1.390 . S
C1085 H1078 0.950 . S
C1085 C1082 1.387 . S
C1086 C1087 1.387 . S
C1086 H1090 0.950 . S
C1086 C1095 1.390 . S
C1087 C1086 1.387 . S
C1087 C1089 1.387 . S
H1088 C1095 0.950 . S
C1089 C1087 1.387 . S
C1089 C1091 1.390 . S
C1089 H1093 0.950 . S
H1090 C1086 0.950 . S
C1091 C1089 1.390 . S
C1091 C1092 1.387 . S
C1091 H1094 0.950 . S
C1092 C1091 1.387 . S
C1092 C1095 1.387 . S
H1093 C1089 0.950 . S
H1094 C1091 0.950 . S
C1095 C1086 1.390 . S
C1095 H1088 0.950 . S
C1095 C1092 1.387 . S
C1096 C1097 1.387 . S
C1096 H1100 0.950 . S
C1096 C1105 1.390 . S
C1097 C1096 1.387 . S
C1097 C1099 1.387 . S
H1098 C1105 0.950 . S
C1099 C1097 1.387 . S
C1099 C1101 1.390 . S
C1099 H1103 0.950 . S
H1100 C1096 0.950 . S
C1101 C1099 1.390 . S
C1101 C1102 1.387 . S
C1101 H1104 0.950 . S
C1102 C1101 1.387 . S
C1102 C1105 1.387 . S
H1103 C1099 0.950 . S
H1104 C1101 0.950 . S
C1105 C1096 1.390 . S
C1105 H1098 0.950 . S
C1105 C1102 1.387 . S
C1106 C1107 1.387 . S
C1106 H1110 0.950 . S
C1106 C1115 1.390 . S
C1107 C1106 1.387 . S
C1107 C1109 1.387 . S
H1108 C1115 0.950 1_545 S
C1109 C1107 1.387 . S
C1109 C1111 1.390 . S
C1109 H1113 0.950 . S
H1110 C1106 0.950 . S
C1111 C1109 1.390 . S
C1111 C1112 1.387 . S
C1111 H1114 0.950 . S
C1112 C1111 1.387 . S
C1112 C1115 1.387 . S
H1113 C1109 0.950 . S
H1114 C1111 0.950 . S
C1115 C1106 1.390 . S
C1115 H1108 0.950 1_565 S
C1115 C1112 1.387 . S
C1116 C1117 1.387 . S
C1116 H1120 0.950 . S
C1116 C1125 1.390 . S
C1117 C1116 1.387 . S
C1117 C1119 1.387 . S
H1118 C1125 0.950 . S
C1119 C1117 1.387 . S
C1119 C1121 1.390 . S
C1119 H1123 0.950 . S
H1120 C1116 0.950 . S
C1121 C1119 1.390 . S
C1121 C1122 1.387 . S
C1121 H1124 0.950 . S
C1122 C1121 1.387 . S
C1122 C1125 1.387 . S
H1123 C1119 0.950 . S
H1124 C1121 0.950 . S
C1125 C1116 1.390 . S
C1125 H1118 0.950 . S
C1125 C1122 1.387 . S
C1126 C1127 1.387 . S
C1126 H1130 0.950 . S
C1126 C1135 1.390 . S
C1127 C1126 1.387 . S
C1127 C1129 1.387 . S
H1128 C1135 0.950 . S
C1129 C1127 1.387 . S
C1129 C1131 1.390 . S
C1129 H1133 0.950 . S
H1130 C1126 0.950 . S
C1131 C1129 1.390 . S
C1131 C1132 1.387 . S
C1131 H1134 0.950 . S
C1132 C1131 1.387 . S
C1132 C1135 1.387 . S
H1133 C1129 0.950 . S
H1134 C1131 0.950 . S
C1135 C1126 1.390 . S
C1135 H1128 0.950 . S
C1135 C1132 1.387 . S
C1136 C1137 1.387 . S
C1136 H1140 0.950 . S
C1136 C1145 1.390 . S
C1137 C1136 1.387 . S
C1137 C1139 1.387 . S
H1138 C1145 0.950 . S
C1139 C1137 1.387 . S
C1139 C1141 1.390 . S
C1139 H1143 0.950 . S
H1140 C1136 0.950 . S
C1141 C1139 1.390 . S
C1141 C1142 1.387 . S
C1141 H1144 0.950 . S
C1142 C1141 1.387 . S
C1142 C1145 1.387 . S
H1143 C1139 0.950 . S
H1144 C1141 0.950 . S
C1145 C1136 1.390 . S
C1145 H1138 0.950 . S
C1145 C1142 1.387 . S
C1146 C1147 1.387 . S
C1146 H1150 0.950 . S
C1146 C1155 1.390 . S
C1147 C1146 1.387 . S
C1147 C1149 1.387 . S
H1148 C1155 0.950 . S
C1149 C1147 1.387 . S
C1149 C1151 1.390 . S
C1149 H1153 0.950 . S
H1150 C1146 0.950 . S
C1151 C1149 1.390 . S
C1151 C1152 1.387 . S
C1151 H1154 0.950 . S
C1152 C1151 1.387 . S
C1152 C1155 1.387 . S
H1153 C1149 0.950 . S
H1154 C1151 0.950 . S
C1155 C1146 1.390 . S
C1155 H1148 0.950 . S
C1155 C1152 1.387 . S
C1156 C1157 1.387 . S
C1156 H1160 0.950 . S
C1156 C1165 1.390 . S
C1157 C1156 1.387 . S
C1157 C1159 1.387 1_455 S
H1158 C1165 0.950 . S
C1159 C1157 1.387 1_655 S
C1159 C1161 1.390 . S
C1159 H1163 0.950 . S
H1160 C1156 0.950 . S
C1161 C1159 1.390 . S
C1161 C1162 1.387 1_655 S
C1161 H1164 0.950 . S
C1162 C1161 1.387 1_455 S
C1162 C1165 1.387 . S
H1163 C1159 0.950 . S
H1164 C1161 0.950 . S
C1165 C1156 1.390 . S
C1165 H1158 0.950 . S
C1165 C1162 1.387 . S
C1166 C1167 1.387 . S
C1166 H1170 0.950 . S
C1166 C1175 1.390 . S
C1167 C1166 1.387 . S
C1167 C1169 1.387 . S
H1168 C1175 0.950 . S
C1169 C1167 1.387 . S
C1169 C1171 1.390 . S
C1169 H1173 0.950 . S
H1170 C1166 0.950 . S
C1171 C1169 1.390 . S
C1171 C1172 1.387 . S
C1171 H1174 0.950 . S
C1172 C1171 1.387 . S
C1172 C1175 1.387 . S
H1173 C1169 0.950 . S
H1174 C1171 0.950 . S
C1175 C1166 1.390 . S
C1175 H1168 0.950 . S
C1175 C1172 1.387 . S
C1176 C1177 1.387 . S
C1176 H1180 0.950 . S
C1176 C1185 1.390 . S
C1177 C1176 1.387 . S
C1177 C1179 1.387 . S
H1178 C1185 0.950 . S
C1179 C1177 1.387 . S
C1179 C1181 1.390 . S
C1179 H1183 0.950 . S
H1180 C1176 0.950 . S
C1181 C1179 1.390 . S
C1181 C1182 1.387 . S
C1181 H1184 0.950 . S
C1182 C1181 1.387 . S
C1182 C1185 1.387 . S
H1183 C1179 0.950 . S
H1184 C1181 0.950 . S
C1185 C1176 1.390 . S
C1185 H1178 0.950 . S
C1185 C1182 1.387 . S
C1186 C1187 1.387 . S
C1186 H1190 0.950 . S
C1186 C1195 1.390 . S
C1187 C1186 1.387 . S
C1187 C1189 1.387 . S
H1188 C1195 0.950 . S
C1189 C1187 1.387 . S
C1189 C1191 1.390 . S
C1189 H1193 0.950 . S
H1190 C1186 0.950 . S
C1191 C1189 1.390 . S
C1191 C1192 1.387 . S
C1191 H1194 0.950 . S
C1192 C1191 1.387 . S
C1192 C1195 1.387 . S
H1193 C1189 0.950 . S
H1194 C1191 0.950 . S
C1195 C1186 1.390 . S
C1195 H1188 0.950 . S
C1195 C1192 1.387 . S
C1196 C1197 1.387 . S
C1196 H1200 0.950 . S
C1196 C1205 1.390 . S
C1197 C1196 1.387 . S
C1197 C1199 1.387 1_655 S
H1198 C1205 0.950 . S
C1199 C1197 1.387 1_455 S
C1199 C1201 1.390 . S
C1199 H1203 0.950 . S
H1200 C1196 0.950 . S
C1201 C1199 1.390 . S
C1201 C1202 1.387 1_455 S
C1201 H1204 0.950 . S
C1202 C1201 1.387 1_655 S
C1202 C1205 1.387 . S
H1203 C1199 0.950 . S
H1204 C1201 0.950 . S
C1205 C1196 1.390 . S
C1205 H1198 0.950 . S
C1205 C1202 1.387 . S
C1206 C1207 1.387 . S
C1206 H1210 0.950 . S
C1206 C1215 1.390 . S
C1207 C1206 1.387 . S
C1207 C1209 1.387 . S
H1208 C1215 0.950 . S
C1209 C1207 1.387 . S
C1209 C1211 1.390 . S
C1209 H1213 0.950 . S
H1210 C1206 0.950 . S
C1211 C1209 1.390 . S
C1211 C1212 1.387 . S
C1211 H1214 0.950 . S
C1212 C1211 1.387 . S
C1212 C1215 1.387 . S
H1213 C1209 0.950 . S
H1214 C1211 0.950 . S
C1215 C1206 1.390 . S
C1215 H1208 0.950 . S
C1215 C1212 1.387 . S
C1216 C1217 1.387 . S
C1216 H1220 0.950 . S
C1216 C1225 1.390 . S
C1217 C1216 1.387 . S
C1217 C1219 1.387 . S
H1218 C1225 0.950 . S
C1219 C1217 1.387 . S
C1219 C1221 1.390 . S
C1219 H1223 0.950 . S
H1220 C1216 0.950 . S
C1221 C1219 1.390 . S
C1221 C1222 1.387 . S
C1221 H1224 0.950 . S
C1222 C1221 1.387 . S
C1222 C1225 1.387 . S
H1223 C1219 0.950 . S
H1224 C1221 0.950 . S
C1225 C1216 1.390 . S
C1225 H1218 0.950 . S
C1225 C1222 1.387 . S
C1226 C1227 1.387 . S
C1226 H1230 0.950 . S
C1226 C1235 1.390 . S
C1227 C1226 1.387 . S
C1227 C1229 1.387 . S
H1228 C1235 0.950 . S
C1229 C1227 1.387 . S
C1229 C1231 1.390 . S
C1229 H1233 0.950 . S
H1230 C1226 0.950 . S
C1231 C1229 1.390 . S
C1231 C1232 1.387 . S
C1231 H1234 0.950 . S
C1232 C1231 1.387 . S
C1232 C1235 1.387 . S
H1233 C1229 0.950 . S
H1234 C1231 0.950 . S
C1235 C1226 1.390 . S
C1235 H1228 0.950 . S
C1235 C1232 1.387 . S
C1236 C1237 1.387 . S
C1236 H1240 0.950 . S
C1236 C1245 1.390 . S
C1237 C1236 1.387 . S
C1237 C1239 1.387 . S
H1238 C1245 0.950 . S
C1239 C1237 1.387 . S
C1239 C1241 1.390 . S
C1239 H1243 0.950 . S
H1240 C1236 0.950 . S
C1241 C1239 1.390 . S
C1241 C1242 1.387 . S
C1241 H1244 0.950 . S
C1242 C1241 1.387 . S
C1242 C1245 1.387 . S
H1243 C1239 0.950 . S
H1244 C1241 0.950 . S
C1245 C1236 1.390 . S
C1245 H1238 0.950 . S
C1245 C1242 1.387 . S
C1246 C1247 1.387 . S
C1246 H1250 0.950 . S
C1246 C1255 1.390 . S
C1247 C1246 1.387 . S
C1247 C1249 1.387 . S
H1248 C1255 0.950 . S
C1249 C1247 1.387 . S
C1249 C1251 1.390 . S
C1249 H1253 0.950 . S
H1250 C1246 0.950 . S
C1251 C1249 1.390 . S
C1251 C1252 1.387 . S
C1251 H1254 0.950 . S
C1252 C1251 1.387 . S
C1252 C1255 1.387 . S
H1253 C1249 0.950 . S
H1254 C1251 0.950 . S
C1255 C1246 1.390 . S
C1255 H1248 0.950 . S
C1255 C1252 1.387 . S
C1256 C1257 1.387 . S
C1256 H1260 0.950 . S
C1256 C1265 1.390 . S
C1257 C1256 1.387 . S
C1257 C1259 1.387 . S
H1258 C1265 0.950 . S
C1259 C1257 1.387 . S
C1259 C1261 1.390 . S
C1259 H1263 0.950 . S
H1260 C1256 0.950 . S
C1261 C1259 1.390 . S
C1261 C1262 1.387 . S
C1261 H1264 0.950 . S
C1262 C1261 1.387 . S
C1262 C1265 1.387 . S
H1263 C1259 0.950 . S
H1264 C1261 0.950 . S
C1265 C1256 1.390 . S
C1265 H1258 0.950 . S
C1265 C1262 1.387 . S
C1266 C1267 1.387 . S
C1266 H1270 0.950 . S
C1266 C1275 1.390 . S
C1267 C1266 1.387 . S
C1267 C1269 1.387 . S
H1268 C1275 0.950 . S
C1269 C1267 1.387 . S
C1269 C1271 1.390 . S
C1269 H1273 0.950 . S
H1270 C1266 0.950 . S
C1271 C1269 1.390 . S
C1271 C1272 1.387 . S
C1271 H1274 0.950 . S
C1272 C1271 1.387 . S
C1272 C1275 1.387 . S
H1273 C1269 0.950 . S
H1274 C1271 0.950 . S
C1275 C1266 1.390 . S
C1275 H1268 0.950 . S
C1275 C1272 1.387 . S
C1276 C1277 1.387 . S
C1276 H1280 0.950 . S
C1276 C1285 1.390 . S
C1277 C1276 1.387 . S
C1277 C1279 1.387 . S
H1278 C1285 0.950 . S
C1279 C1277 1.387 . S
C1279 C1281 1.390 . S
C1279 H1283 0.950 . S
H1280 C1276 0.950 . S
C1281 C1279 1.390 . S
C1281 C1282 1.387 . S
C1281 H1284 0.950 . S
C1282 C1281 1.387 . S
C1282 C1285 1.387 . S
H1283 C1279 0.950 . S
H1284 C1281 0.950 . S
C1285 C1276 1.390 . S
C1285 H1278 0.950 . S
C1285 C1282 1.387 . S
C1286 C1287 1.387 . S
C1286 H1290 0.950 . S
C1286 C1295 1.390 . S
C1287 C1286 1.387 . S
C1287 C1289 1.387 . S
H1288 C1295 0.950 . S
C1289 C1287 1.387 . S
C1289 C1291 1.390 . S
C1289 H1293 0.950 . S
H1290 C1286 0.950 . S
C1291 C1289 1.390 . S
C1291 C1292 1.387 . S
C1291 H1294 0.950 . S
C1292 C1291 1.387 . S
C1292 C1295 1.387 . S
H1293 C1289 0.950 . S
H1294 C1291 0.950 . S
C1295 C1286 1.390 . S
C1295 H1288 0.950 . S
C1295 C1292 1.387 . S
C1296 C1297 1.387 . S
C1296 H1300 0.950 . S
C1296 C1305 1.390 . S
C1297 C1296 1.387 . S
C1297 C1299 1.387 . S
H1298 C1305 0.950 . S
C1299 C1297 1.387 . S
C1299 C1301 1.390 . S
C1299 H1303 0.950 . S
H1300 C1296 0.950 . S
C1301 C1299 1.390 . S
C1301 C1302 1.387 . S
C1301 H1304 0.950 . S
C1302 C1301 1.387 . S
C1302 C1305 1.387 . S
H1303 C1299 0.950 . S
H1304 C1301 0.950 . S
C1305 C1296 1.390 . S
C1305 H1298 0.950 . S
C1305 C1302 1.387 . S
C1306 C1307 1.387 . S
C1306 H1310 0.950 . S
C1306 C1315 1.390 . S
C1307 C1306 1.387 . S
C1307 C1309 1.387 . S
H1308 C1315 0.950 . S
C1309 C1307 1.387 . S
C1309 C1311 1.390 . S
C1309 H1313 0.950 . S
H1310 C1306 0.950 . S
C1311 C1309 1.390 . S
C1311 C1312 1.387 . S
C1311 H1314 0.950 . S
C1312 C1311 1.387 . S
C1312 C1315 1.387 . S
H1313 C1309 0.950 . S
H1314 C1311 0.950 . S
C1315 C1306 1.390 . S
C1315 H1308 0.950 . S
C1315 C1312 1.387 . S
C1316 C1317 1.387 . S
C1316 H1320 0.950 . S
C1316 C1325 1.390 . S
C1317 C1316 1.387 . S
C1317 C1319 1.387 . S
H1318 C1325 0.950 . S
C1319 C1317 1.387 . S
C1319 C1321 1.390 . S
C1319 H1323 0.950 . S
H1320 C1316 0.950 . S
C1321 C1319 1.390 . S
C1321 C1322 1.387 . S
C1321 H1324 0.950 . S
C1322 C1321 1.387 . S
C1322 C1325 1.387 . S
H1323 C1319 0.950 . S
H1324 C1321 0.950 . S
C1325 C1316 1.390 . S
C1325 H1318 0.950 . S
C1325 C1322 1.387 . S
C1326 C1327 1.387 . S
C1326 H1330 0.950 1_554 S
C1326 C1335 1.390 1_554 S
C1327 C1326 1.387 . S
C1327 C1329 1.387 . S
H1328 C1335 0.950 . S
C1329 C1327 1.387 . S
C1329 C1331 1.390 . S
C1329 H1333 0.950 . S
H1330 C1326 0.950 1_556 S
C1331 C1329 1.390 . S
C1331 C1332 1.387 . S
C1331 H1334 0.955 . S
C1332 C1331 1.387 . S
C1332 C1335 1.387 1_554 S
H1333 C1329 0.950 . S
H1334 C1331 0.955 . S
C1335 C1326 1.390 1_556 S
C1335 H1328 0.950 . S
C1335 C1332 1.387 1_556 S
C1336 C1337 1.387 . S
C1336 H1340 0.950 . S
C1336 C1345 1.390 . S
C1337 C1336 1.387 . S
C1337 C1339 1.387 . S
H1338 C1345 0.950 . S
C1339 C1337 1.387 . S
C1339 C1341 1.390 . S
C1339 H1343 0.950 . S
H1340 C1336 0.950 . S
C1341 C1339 1.390 . S
C1341 C1342 1.387 . S
C1341 H1344 0.950 . S
C1342 C1341 1.387 . S
C1342 C1345 1.387 . S
H1343 C1339 0.950 . S
H1344 C1341 0.950 . S
C1345 C1336 1.390 . S
C1345 H1338 0.950 . S
C1345 C1342 1.387 . S
C1346 C1347 1.387 . S
C1346 H1350 0.950 . S
C1346 C1355 1.390 . S
C1347 C1346 1.387 . S
C1347 C1349 1.387 . S
H1348 C1355 0.950 . S
C1349 C1347 1.387 . S
C1349 C1351 1.390 . S
C1349 H1353 0.950 . S
H1350 C1346 0.950 . S
C1351 C1349 1.390 . S
C1351 C1352 1.387 . S
C1351 H1354 0.950 . S
C1352 C1351 1.387 . S
C1352 C1355 1.387 . S
H1353 C1349 0.950 . S
H1354 C1351 0.950 . S
C1355 C1346 1.390 . S
C1355 H1348 0.950 . S
C1355 C1352 1.387 . S
C1356 C1357 1.387 . S
C1356 H1360 0.950 . S
C1356 C1365 1.390 . S
C1357 C1356 1.387 . S
C1357 C1359 1.387 . S
H1358 C1365 0.950 . S
C1359 C1357 1.387 . S
C1359 C1361 1.390 . S
C1359 H1363 0.950 . S
H1360 C1356 0.950 . S
C1361 C1359 1.390 . S
C1361 C1362 1.387 . S
C1361 H1364 0.950 . S
C1362 C1361 1.387 . S
C1362 C1365 1.387 . S
H1363 C1359 0.950 . S
H1364 C1361 0.950 . S
C1365 C1356 1.390 . S
C1365 H1358 0.950 . S
C1365 C1362 1.387 . S
C1366 C1367 1.387 . S
C1366 H1370 0.950 . S
C1366 C1375 1.390 . S
C1367 C1366 1.387 . S
C1367 C1369 1.387 . S
H1368 C1375 0.950 . S
C1369 C1367 1.387 . S
C1369 C1371 1.390 . S
C1369 H1373 0.950 . S
H1370 C1366 0.950 . S
C1371 C1369 1.390 . S
C1371 C1372 1.387 . S
C1371 H1374 0.950 . S
C1372 C1371 1.387 . S
C1372 C1375 1.387 . S
H1373 C1369 0.950 . S
H1374 C1371 0.950 . S
C1375 C1366 1.390 . S
C1375 H1368 0.950 . S
C1375 C1372 1.387 . S
C1376 C1377 1.387 . S
C1376 H1380 0.950 . S
C1376 C1385 1.390 . S
C1377 C1376 1.387 . S
C1377 C1379 1.387 . S
H1378 C1385 0.950 . S
C1379 C1377 1.387 . S
C1379 C1381 1.390 . S
C1379 H1383 0.950 . S
H1380 C1376 0.950 . S
C1381 C1379 1.390 . S
C1381 C1382 1.387 . S
C1381 H1384 0.950 . S
C1382 C1381 1.387 . S
C1382 C1385 1.387 . S
H1383 C1379 0.950 . S
H1384 C1381 0.950 . S
C1385 C1376 1.390 . S
C1385 H1378 0.950 . S
C1385 C1382 1.387 . S
C1386 C1387 1.387 . S
C1386 H1390 0.950 . S
C1386 C1395 1.390 . S
C1387 C1386 1.387 . S
C1387 C1389 1.387 . S
H1388 C1395 0.950 . S
C1389 C1387 1.387 . S
C1389 C1391 1.390 . S
C1389 H1393 0.950 . S
H1390 C1386 0.950 . S
C1391 C1389 1.390 . S
C1391 C1392 1.387 . S
C1391 H1394 0.950 . S
C1392 C1391 1.387 . S
C1392 C1395 1.387 . S
H1393 C1389 0.950 . S
H1394 C1391 0.950 . S
C1395 C1386 1.390 . S
C1395 H1388 0.950 . S
C1395 C1392 1.387 . S
C1396 C1397 1.387 1_655 S
C1396 H1400 0.950 . S
C1396 C1405 1.390 . S
C1397 C1396 1.387 1_455 S
C1397 C1399 1.387 . S
H1398 C1405 0.950 . S
C1399 C1397 1.387 . S
C1399 C1401 1.390 . S
C1399 H1403 0.950 . S
H1400 C1396 0.950 . S
C1401 C1399 1.390 . S
C1401 C1402 1.387 . S
C1401 H1404 0.950 . S
C1402 C1401 1.387 . S
C1402 C1405 1.387 1_455 S
H1403 C1399 0.950 . S
H1404 C1401 0.950 . S
C1405 C1396 1.390 . S
C1405 H1398 0.950 . S
C1405 C1402 1.387 1_655 S
C1406 C1407 1.387 . S
C1406 H1410 0.950 . S
C1406 C1415 1.390 . S
C1407 C1406 1.387 . S
C1407 C1409 1.387 . S
H1408 C1415 0.950 . S
C1409 C1407 1.387 . S
C1409 C1411 1.390 . S
C1409 H1413 0.950 . S
H1410 C1406 0.950 . S
C1411 C1409 1.390 . S
C1411 C1412 1.387 . S
C1411 H1414 0.950 . S
C1412 C1411 1.387 . S
C1412 C1415 1.387 . S
H1413 C1409 0.950 . S
H1414 C1411 0.950 . S
C1415 C1406 1.390 . S
C1415 H1408 0.950 . S
C1415 C1412 1.387 . S
C1416 C1417 1.387 . S
C1416 H1420 0.950 . S
C1416 C1425 1.390 . S
C1417 C1416 1.387 . S
C1417 C1419 1.387 . S
H1418 C1425 0.950 . S
C1419 C1417 1.387 . S
C1419 C1421 1.390 . S
C1419 H1423 0.950 . S
H1420 C1416 0.950 . S
C1421 C1419 1.390 . S
C1421 C1422 1.387 . S
C1421 H1424 0.950 . S
C1422 C1421 1.387 . S
C1422 C1425 1.387 . S
H1423 C1419 0.950 . S
H1424 C1421 0.950 . S
C1425 C1416 1.390 . S
C1425 H1418 0.950 . S
C1425 C1422 1.387 . S
C1426 C1427 1.387 . S
C1426 H1430 0.950 . S
C1426 C1435 1.390 . S
C1427 C1426 1.387 . S
C1427 C1429 1.387 . S
H1428 C1435 0.950 . S
C1429 C1427 1.387 . S
C1429 C1431 1.390 . S
C1429 H1433 0.950 . S
H1430 C1426 0.950 . S
C1431 C1429 1.390 . S
C1431 C1432 1.387 . S
C1431 H1434 0.950 . S
C1432 C1431 1.387 . S
C1432 C1435 1.387 . S
H1433 C1429 0.950 . S
H1434 C1431 0.950 . S
C1435 C1426 1.390 . S
C1435 H1428 0.950 . S
C1435 C1432 1.387 . S
C1436 C1437 1.387 . S
C1436 H1440 0.950 . S
C1436 C1445 1.390 . S
C1437 C1436 1.387 . S
C1437 C1439 1.387 1_455 S
H1438 C1445 0.950 . S
C1439 C1437 1.387 1_655 S
C1439 C1441 1.390 . S
C1439 H1443 0.950 . S
H1440 C1436 0.950 . S
C1441 C1439 1.390 . S
C1441 C1442 1.387 1_655 S
C1441 H1444 0.950 . S
C1442 C1441 1.387 1_455 S
C1442 C1445 1.387 . S
H1443 C1439 0.950 . S
H1444 C1441 0.950 . S
C1445 C1436 1.390 . S
C1445 H1438 0.950 . S
C1445 C1442 1.387 . S
C1446 C1447 1.387 . S
C1446 H1450 0.950 . S
C1446 C1455 1.390 . S
C1447 C1446 1.387 . S
C1447 C1449 1.387 . S
H1448 C1455 0.950 . S
C1449 C1447 1.387 . S
C1449 C1451 1.390 . S
C1449 H1453 0.950 . S
H1450 C1446 0.950 . S
C1451 C1449 1.390 . S
C1451 C1452 1.387 . S
C1451 H1454 0.950 . S
C1452 C1451 1.387 . S
C1452 C1455 1.387 . S
H1453 C1449 0.950 . S
H1454 C1451 0.950 . S
C1455 C1446 1.390 . S
C1455 H1448 0.950 . S
C1455 C1452 1.387 . S
C1456 C1457 1.387 . S
C1456 H1460 0.950 . S
C1456 C1465 1.390 . S
C1457 C1456 1.387 . S
C1457 C1459 1.387 . S
H1458 C1465 0.950 . S
C1459 C1457 1.387 . S
C1459 C1461 1.390 . S
C1459 H1463 0.950 . S
H1460 C1456 0.950 . S
C1461 C1459 1.390 . S
C1461 C1462 1.387 . S
C1461 H1464 0.950 . S
C1462 C1461 1.387 . S
C1462 C1465 1.387 . S
H1463 C1459 0.950 . S
H1464 C1461 0.950 . S
C1465 C1456 1.390 . S
C1465 H1458 0.950 . S
C1465 C1462 1.387 . S
C1466 C1467 1.387 . S
C1466 H1470 0.950 . S
C1466 C1475 1.390 . S
C1467 C1466 1.387 . S
C1467 C1469 1.387 . S
H1468 C1475 0.950 . S
C1469 C1467 1.387 . S
C1469 C1471 1.390 . S
C1469 H1473 0.950 . S
H1470 C1466 0.950 . S
C1471 C1469 1.390 . S
C1471 C1472 1.387 . S
C1471 H1474 0.950 . S
C1472 C1471 1.387 . S
C1472 C1475 1.387 . S
H1473 C1469 0.950 . S
H1474 C1471 0.950 . S
C1475 C1466 1.390 . S
C1475 H1468 0.950 . S
C1475 C1472 1.387 . S
C1476 C1477 1.387 . S
C1476 H1480 0.950 . S
C1476 C1485 1.390 . S
C1477 C1476 1.387 . S
C1477 C1479 1.387 . S
H1478 C1485 0.950 . S
C1479 C1477 1.387 . S
C1479 C1481 1.390 . S
C1479 H1483 0.950 . S
H1480 C1476 0.950 . S
C1481 C1479 1.390 . S
C1481 C1482 1.387 . S
C1481 H1484 0.950 1_655 S
C1482 C1481 1.387 . S
C1482 C1485 1.387 . S
H1483 C1479 0.950 . S
H1484 C1481 0.950 1_455 S
C1485 C1476 1.390 . S
C1485 H1478 0.950 . S
C1485 C1482 1.387 . S
C1486 C1487 1.387 . S
C1486 H1490 0.950 . S
C1486 C1495 1.390 . S
C1487 C1486 1.387 . S
C1487 C1489 1.387 . S
H1488 C1495 0.950 . S
C1489 C1487 1.387 . S
C1489 C1491 1.390 . S
C1489 H1493 0.950 . S
H1490 C1486 0.950 . S
C1491 C1489 1.390 . S
C1491 C1492 1.387 . S
C1491 H1494 0.950 . S
C1492 C1491 1.387 . S
C1492 C1495 1.387 . S
H1493 C1489 0.950 . S
H1494 C1491 0.950 . S
C1495 C1486 1.390 . S
C1495 H1488 0.950 . S
C1495 C1492 1.387 . S
C1496 C1497 1.387 . S
C1496 H1500 0.950 . S
C1496 C1505 1.390 . S
C1497 C1496 1.387 . S
C1497 C1499 1.387 . S
H1498 C1505 0.950 . S
C1499 C1497 1.387 . S
C1499 C1501 1.390 . S
C1499 H1503 0.950 . S
H1500 C1496 0.950 . S
C1501 C1499 1.390 . S
C1501 C1502 1.387 . S
C1501 H1504 0.950 . S
C1502 C1501 1.387 . S
C1502 C1505 1.387 . S
H1503 C1499 0.950 . S
H1504 C1501 0.950 . S
C1505 C1496 1.390 . S
C1505 H1498 0.950 . S
C1505 C1502 1.387 . S
C1506 C1507 1.387 . S
C1506 H1510 0.950 . S
C1506 C1515 1.390 . S
C1507 C1506 1.387 . S
C1507 C1509 1.387 . S
H1508 C1515 0.950 . S
C1509 C1507 1.387 . S
C1509 C1511 1.390 . S
C1509 H1513 0.950 . S
H1510 C1506 0.950 . S
C1511 C1509 1.390 . S
C1511 C1512 1.387 . S
C1511 H1514 0.950 . S
C1512 C1511 1.387 . S
C1512 C1515 1.387 . S
H1513 C1509 0.950 . S
H1514 C1511 0.950 . S
C1515 C1506 1.390 . S
C1515 H1508 0.950 . S
C1515 C1512 1.387 . S
C1516 C1517 1.387 . S
C1516 H1520 0.950 . S
C1516 C1525 1.390 . S
C1517 C1516 1.387 . S
C1517 C1519 1.387 . S
H1518 C1525 0.950 . S
C1519 C1517 1.387 . S
C1519 C1521 1.390 . S
C1519 H1523 0.950 . S
H1520 C1516 0.950 . S
C1521 C1519 1.390 . S
C1521 C1522 1.387 . S
C1521 H1524 0.950 . S
C1522 C1521 1.387 . S
C1522 C1525 1.387 . S
H1523 C1519 0.950 . S
H1524 C1521 0.950 . S
C1525 C1516 1.390 . S
C1525 H1518 0.950 . S
C1525 C1522 1.387 . S
C1526 C1527 1.387 . S
C1526 H1530 0.950 . S
C1526 C1535 1.390 . S
C1527 C1526 1.387 . S
C1527 C1529 1.387 . S
H1528 C1535 0.950 . S
C1529 C1527 1.387 . S
C1529 C1531 1.390 . S
C1529 H1533 0.950 . S
H1530 C1526 0.950 . S
C1531 C1529 1.390 . S
C1531 C1532 1.387 . S
C1531 H1534 0.950 . S
C1532 C1531 1.387 . S
C1532 C1535 1.387 . S
H1533 C1529 0.950 . S
H1534 C1531 0.950 . S
C1535 C1526 1.390 . S
C1535 H1528 0.950 . S
C1535 C1532 1.387 . S
C1536 C1537 1.387 . S
C1536 H1540 0.950 . S
C1536 C1545 1.390 . S
C1537 C1536 1.387 . S
C1537 C1539 1.387 . S
H1538 C1545 0.950 . S
C1539 C1537 1.387 . S
C1539 C1541 1.390 . S
C1539 H1543 0.950 . S
H1540 C1536 0.950 . S
C1541 C1539 1.390 . S
C1541 C1542 1.387 . S
C1541 H1544 0.950 . S
C1542 C1541 1.387 . S
C1542 C1545 1.387 . S
H1543 C1539 0.950 . S
H1544 C1541 0.950 . S
C1545 C1536 1.390 . S
C1545 H1538 0.950 . S
C1545 C1542 1.387 . S
C1546 C1547 1.387 . S
C1546 H1550 0.950 . S
C1546 C1555 1.390 . S
C1547 C1546 1.387 . S
C1547 C1549 1.387 . S
H1548 C1555 0.950 . S
C1549 C1547 1.387 . S
C1549 C1551 1.390 . S
C1549 H1553 0.950 . S
H1550 C1546 0.950 . S
C1551 C1549 1.390 . S
C1551 C1552 1.387 . S
C1551 H1554 0.950 . S
C1552 C1551 1.387 . S
C1552 C1555 1.387 . S
H1553 C1549 0.950 . S
H1554 C1551 0.950 . S
C1555 C1546 1.390 . S
C1555 H1548 0.950 . S
C1555 C1552 1.387 . S
C1556 C1557 1.387 . S
C1556 H1560 0.950 . S
C1556 C1565 1.390 . S
C1557 C1556 1.387 . S
C1557 C1559 1.387 . S
H1558 C1565 0.950 . S
C1559 C1557 1.387 . S
C1559 C1561 1.390 . S
C1559 H1563 0.950 . S
H1560 C1556 0.950 . S
C1561 C1559 1.390 . S
C1561 C1562 1.387 . S
C1561 H1564 0.950 . S
C1562 C1561 1.387 . S
C1562 C1565 1.387 . S
H1563 C1559 0.950 . S
H1564 C1561 0.950 . S
C1565 C1556 1.390 . S
C1565 H1558 0.950 . S
C1565 C1562 1.387 . S
C1566 C1567 1.412 . S
C1566 H1570 0.950 . S
C1566 C1575 1.390 . S
C1567 C1566 1.412 . S
C1567 C1569 1.356 1_556 S
H1568 C1575 0.950 . S
C1569 C1567 1.356 1_554 S
C1569 C1571 1.390 . S
C1569 H1573 0.950 . S
H1570 C1566 0.950 . S
C1571 C1569 1.390 . S
C1571 C1572 1.387 . S
C1571 H1574 0.950 . S
C1572 C1571 1.387 . S
C1572 C1575 1.387 1_554 S
H1573 C1569 0.950 . S
H1574 C1571 0.950 . S
C1575 C1566 1.390 . S
C1575 H1568 0.950 . S
C1575 C1572 1.387 1_556 S
C1576 C1577 1.387 . S
C1576 H1580 0.950 . S
C1576 C1585 1.390 . S
C1577 C1576 1.387 . S
C1577 C1579 1.387 . S
H1578 C1585 0.950 . S
C1579 C1577 1.387 . S
C1579 C1581 1.390 . S
C1579 H1583 0.950 . S
H1580 C1576 0.950 . S
C1581 C1579 1.390 . S
C1581 C1582 1.387 . S
C1581 H1584 0.950 . S
C1582 C1581 1.387 . S
C1582 C1585 1.387 . S
H1583 C1579 0.950 . S
H1584 C1581 0.950 . S
C1585 C1576 1.390 . S
C1585 H1578 0.950 . S
C1585 C1582 1.387 . S
C1586 C1587 1.387 1_556 S
C1586 H1590 0.950 . S
C1586 C1595 1.390 . S
C1587 C1586 1.387 1_554 S
C1587 C1589 1.387 . S
H1588 C1595 0.950 . S
C1589 C1587 1.387 . S
C1589 C1591 1.390 . S
C1589 H1593 0.950 . S
H1590 C1586 0.950 . S
C1591 C1589 1.390 . S
C1591 C1592 1.399 . S
C1591 H1594 0.950 . S
C1592 C1591 1.399 . S
C1592 C1595 1.381 1_554 S
H1593 C1589 0.950 . S
H1594 C1591 0.950 . S
C1595 C1586 1.390 . S
C1595 H1588 0.950 . S
C1595 C1592 1.381 1_556 S
C1596 C1597 1.387 . S
C1596 H1600 0.950 . S
C1596 C1605 1.390 . S
C1597 C1596 1.387 . S
C1597 C1599 1.387 . S
H1598 C1605 0.950 . S
C1599 C1597 1.387 . S
C1599 C1601 1.390 . S
C1599 H1603 0.950 . S
H1600 C1596 0.950 . S
C1601 C1599 1.390 . S
C1601 C1602 1.387 . S
C1601 H1604 0.950 . S
C1602 C1601 1.387 . S
C1602 C1605 1.387 . S
H1603 C1599 0.950 . S
H1604 C1601 0.950 . S
C1605 C1596 1.390 . S
C1605 H1598 0.950 . S
C1605 C1602 1.387 . S
C1606 C1607 1.387 . S
C1606 H1610 0.950 . S
C1606 C1615 1.390 . S
C1607 C1606 1.387 . S
C1607 C1609 1.387 . S
H1608 C1615 0.950 . S
C1609 C1607 1.387 . S
C1609 C1611 1.390 . S
C1609 H1613 0.950 . S
H1610 C1606 0.950 . S
C1611 C1609 1.390 . S
C1611 C1612 1.387 . S
C1611 H1614 0.950 . S
C1612 C1611 1.387 . S
C1612 C1615 1.387 . S
H1613 C1609 0.950 . S
H1614 C1611 0.950 . S
C1615 C1606 1.390 . S
C1615 H1608 0.950 . S
C1615 C1612 1.387 . S
C657 C111 1.208 1_455 S
C662 C352 1.259 1_556 S
C667 C64 1.424 . S
C672 C365 1.454 . S
C677 C77 1.344 . S
C682 C384 1.346 . S
C692 C415 1.700 . S
C687 C95 1.731 . S
C697 C25 1.521 . S
C702 C435 1.492 . S
C712 C452 1.010 . S
C707 C36 1.023 . S
C722 C465 1.523 . S
C717 C50 1.457 . S
C727 C11 1.105 . S
C732 C492 1.059 . S
C742 C345 1.265 . S
C737 C237 1.188 . S
C747 C245 1.516 . S
C752 C375 1.494 . S
C762 C377 1.605 . S
C757 C279 1.521 . S
C772 C412 0.915 . S
C767 C175 0.913 . S
C777 C231 1.122 . S
C782 C432 1.129 . S
C792 C445 1.686 . S
C787 C251 1.553 . S
C802 C475 1.397 . S
C797 C273 1.426 . S
C812 C485 1.206 . S
C807 C181 1.202 . S
C822 C355 1.544 1_565 S
C817 C165 1.569 . S
C827 C288 1.670 . S
C832 C505 1.740 1_556 S
C842 C535 1.565 . S
C837 C333 1.594 . S
C852 C552 1.266 . S
C847 C316 1.272 . S
C857 C123 1.769 . S
C862 C495 1.761 . S
C867 C137 1.271 . S
C872 C382 1.189 . S
C877 C330 1.734 . S
C882 C565 1.823 . S
C892 C592 1.126 . S
C887 C302 1.172 . S
C902 C342 1.332 . S
C897 C63 1.355 . S
C912 C577 1.458 . S
C907 C106 1.421 . S
C917 C97 1.301 . S
C922 C395 1.402 . S
C927 C81 1.811 . S
C932 C564 1.748 . S
C942 C424 1.585 . S
C937 C13 1.572 . S
C947 C55 0.943 . S
C952 C522 1.007 . S
C962 C457 1.437 . S
C957 C35 1.433 . S
C972 C602 1.174 . S
C967 C21 1.202 . S
C982 C337 1.337 . S
C977 C147 1.359 . S
C992 C584 1.508 . S
C987 C321 1.427 . S
C997 C119 1.686 . S
C1002 C385 1.654 . S
C1007 C293 0.964 . S
C1012 C562 1.014 . S
C1017 C153 1.147 1_565 S
C1022 C422 1.260 . S
C1032 C517 1.727 . S
C1027 C315 1.716 . S
C1037 C125 1.323 . S
C1042 C464 1.367 . S
C1047 C287 1.331 . S
C1052 C597 1.276 . S
C1057 C193 1.623 . S
C1062 C344 1.598 . S
C1067 C176 1.704 . S
C1072 C497 1.740 . S
C1077 C263 1.558 . S
C1082 C444 1.560 . S
C1087 C246 1.309 . S
C1092 C542 1.353 . S
C1102 C604 1.843 . S
C1097 C277 1.871 . S
C1107 C221 1.248 . S
C1112 C392 1.206 . S
C1122 C397 1.842 . S
C1117 C260 1.800 . S
C1132 C362 1.182 . S
C1127 C204 1.183 . S
C1137 C83 1.205 . S
C1142 C632 1.257 . S
C1152 C585 1.454 . S
C1147 C92 1.426 . S
C1157 C105 1.343 . S
C1162 C644 1.346 1_455 S
C1167 C67 1.730 . S
C1172 C575 1.700 . S
C1177 C53 1.521 . S
C1182 C515 1.492 . S
C1192 C532 1.013 . S
C1187 C8 1.021 . S
C1202 C545 1.524 . S
C1197 C22 1.454 . S
C1212 C612 1.063 . S
C1207 C39 1.107 . S
C1222 C625 1.265 . S
C1217 C265 1.192 . S
C1227 C189 1.516 . S
C1232 C595 1.494 . S
C1242 C637 1.605 . S
C1237 C209 1.521 . S
C1252 C572 0.912 . S
C1247 C217 0.914 . S
C1262 C512 1.128 . S
C1257 C259 1.124 . S
C1267 C195 1.554 . S
C1272 C525 1.686 . S
C1282 C555 1.400 . S
C1277 C203 1.425 . S
C1287 C223 1.205 . S
C1292 C605 1.202 . S
C1302 C635 1.544 . S
C1297 C319 1.569 . S
C1307 C134 1.670 . S
C1312 C425 1.741 . S
C1322 C455 1.564 . S
C1317 C151 1.598 . S
C1332 C472 1.267 1_565 S
C1327 C162 1.272 . S
C1342 C615 1.761 . S
C1337 C305 1.769 . S
C1347 C291 1.266 1_554 S
C1352 C642 1.186 . S
C1362 C405 1.824 . S
C1357 C148 1.730 . S
C1372 C372 1.129 . S
C1367 C120 1.172 . S
C1377 C91 1.355 . S
C1382 C622 1.333 . S
C1392 C357 1.459 . S
C1387 C78 1.421 . S
C1397 C69 1.299 . S
C1402 C655 1.403 . S
C1407 C109 1.812 . S
C1412 C404 1.751 . S
C1417 C41 1.570 . S
C1422 C504 1.582 1_556 S
C1432 C442 1.008 . S
C1427 C27 0.939 . S
C1437 C7 1.434 . S
C1442 C537 1.437 . S
C1447 C49 1.198 . S
C1452 C482 1.174 . S
C1462 C617 1.337 . S
C1457 C329 1.359 . S
C1467 C167 1.425 . S
C1472 C364 1.507 . S
C1482 C645 1.654 . S
C1477 C301 1.686 . S
C1487 C139 0.967 . S
C1492 C402 1.016 . S
C1497 C335 1.149 . S
C1502 C502 1.263 . S
C1512 C437 1.728 . S
C1507 C161 1.715 . S
C1517 C307 1.325 . S
C1522 C544 1.363 . S
C1532 C477 1.273 . S
C1527 C133 1.331 . S
C1542 C624 1.598 . S
C1537 C249 1.623 . S
C1552 C417 1.740 1_565 S
C1547 C218 1.704 . S
C1557 C235 1.559 . S
C1562 C524 1.563 . S
C1572 C462 1.354 . S
C1567 C190 1.307 1_556 S
C1577 C207 1.871 . S
C1582 C484 1.843 . S
C1587 C179 1.246 . S
C1592 C652 1.205 . S
C1602 C557 1.844 . S
C1597 C232 1.822 . S
C1612 C582 1.179 . S
C1607 C274 1.185 . S
