# Generated by pormake.
# Topology csq, (4,8)-cn, num edge types: 1
# Building blocks:
#     Node 0, Type 0, BuildingBlock: MUDLON_clean_sbu_0, # of connection points: 4
#     Node 1, Type 0, BuildingBlock: MUDLON_clean_sbu_0, # of connection points: 4
#     Node 2, Type 0, BuildingBlock: MUDLON_clean_sbu_0, # of connection points: 4
#     Node 3, Type 0, BuildingBlock: MUDLON_clean_sbu_0, # of connection points: 4
#     Node 4, Type 0, BuildingBlock: MUDLON_clean_sbu_0, # of connection points: 4
#     Node 5, Type 0, BuildingBlock: MUDLON_clean_sbu_0, # of connection points: 4
#     Node 6, Type 1, BuildingBlock: TAGTUT_clean_sbu_3, # of connection points: 8
#     Node 7, Type 1, BuildingBlock: TAGTUT_clean_sbu_3, # of connection points: 8
#     Node 8, Type 1, BuildingBlock: TAGTUT_clean_sbu_3, # of connection points: 8
#     Edge 9, Type (0, 1), BuildingBlock: EYOCIG_clean_linker_4, # of connection points: 2
#     Edge 10, Type (0, 1), BuildingBlock: EYOCIG_clean_linker_4, # of connection points: 2
#     Edge 11, Type (0, 1), BuildingBlock: EYOCIG_clean_linker_4, # of connection points: 2
#     Edge 12, Type (0, 1), BuildingBlock: EYOCIG_clean_linker_4, # of connection points: 2
#     Edge 13, Type (0, 1), BuildingBlock: EYOCIG_clean_linker_4, # of connection points: 2
#     Edge 14, Type (0, 1), BuildingBlock: EYOCIG_clean_linker_4, # of connection points: 2
#     Edge 15, Type (0, 1), BuildingBlock: EYOCIG_clean_linker_4, # of connection points: 2
#     Edge 16, Type (0, 1), BuildingBlock: EYOCIG_clean_linker_4, # of connection points: 2
#     Edge 17, Type (0, 1), BuildingBlock: EYOCIG_clean_linker_4, # of connection points: 2
#     Edge 18, Type (0, 1), BuildingBlock: EYOCIG_clean_linker_4, # of connection points: 2
#     Edge 19, Type (0, 1), BuildingBlock: EYOCIG_clean_linker_4, # of connection points: 2
#     Edge 20, Type (0, 1), BuildingBlock: EYOCIG_clean_linker_4, # of connection points: 2
#     Edge 21, Type (0, 1), BuildingBlock: EYOCIG_clean_linker_4, # of connection points: 2
#     Edge 22, Type (0, 1), BuildingBlock: EYOCIG_clean_linker_4, # of connection points: 2
#     Edge 23, Type (0, 1), BuildingBlock: EYOCIG_clean_linker_4, # of connection points: 2
#     Edge 24, Type (0, 1), BuildingBlock: EYOCIG_clean_linker_4, # of connection points: 2
#     Edge 25, Type (0, 1), BuildingBlock: EYOCIG_clean_linker_4, # of connection points: 2
#     Edge 26, Type (0, 1), BuildingBlock: EYOCIG_clean_linker_4, # of connection points: 2
#     Edge 27, Type (0, 1), BuildingBlock: EYOCIG_clean_linker_4, # of connection points: 2
#     Edge 28, Type (0, 1), BuildingBlock: EYOCIG_clean_linker_4, # of connection points: 2
#     Edge 29, Type (0, 1), BuildingBlock: EYOCIG_clean_linker_4, # of connection points: 2
#     Edge 30, Type (0, 1), BuildingBlock: EYOCIG_clean_linker_4, # of connection points: 2
#     Edge 31, Type (0, 1), BuildingBlock: EYOCIG_clean_linker_4, # of connection points: 2
#     Edge 32, Type (0, 1), BuildingBlock: EYOCIG_clean_linker_4, # of connection points: 2
# Relax obj value: 0.067
# Max RMSD: 0.125
# Mean RMSD: 0.102
data_MOF--net-csq--node1-MUDLON_clean_sbu_0--node2-TAGTUT_clean_sbu_3--edge1-EYOCIG_clean_linker_4
_symmetry_space_group_name_H-M    P1
_symmetry_Int_Tables_number       1
_symmetry_cell_setting            triclinic
loop_
_symmetry_equiv_pos_as_xyz
'x, y, z'
_cell_length_a     41.252661
_cell_length_b     40.254147
_cell_length_c     16.567936
_cell_angle_alpha  93.105515
_cell_angle_beta   92.677102
_cell_angle_gamma 120.3566
loop_
_atom_site_label
_atom_site_type_symbol
_atom_site_fract_x
_atom_site_fract_y
_atom_site_fract_z
_atom_type_partial_charge
Mg0 Mg 0.21912 0.43888 0.20735 0.0
C1 C 0.17236 0.42809 0.06718 0.0
O2 O 0.16278 0.39301 0.08417 0.0
C3 C 0.26428 0.4328 0.33486 0.0
O4 O 0.23819 0.39643 0.31656 0.0
C5 C 0.16607 0.44152 0.32242 0.0
O6 O 0.15476 0.40461 0.32232 0.0
O7 O 0.19323 0.4631 0.28197 0.0
O8 O 0.19787 0.45687 0.11143 0.0
O9 O 0.2674 0.45792 0.13497 0.0
C10 C 0.26921 0.4349 0.08223 0.0
O11 O 0.24131 0.39899 0.06927 0.0
O12 O 0.2618 0.45911 0.30235 0.0
Mg13 Mg 0.80578 0.20734 0.10254 0.0
C14 C 0.83043 0.27007 -0.00233 0.0
O15 O 0.80248 0.27026 0.03151 0.0
C16 C 0.74503 0.17869 0.20859 0.0
O17 O 0.74798 0.21128 0.19 0.0
C18 C 0.83552 0.27944 0.23573 0.0
O19 O 0.81149 0.28738 0.20017 0.0
O20 O 0.8377 0.25053 0.20821 0.0
O21 O 0.83949 0.24532 0.01485 0.0
O22 O 0.75562 0.175 0.01236 0.0
C23 C 0.72908 0.18126 0.99227 0.0
O24 O 0.72975 0.21221 0.02359 0.0
O25 O 0.76783 0.16892 0.18316 0.0
Mg26 Mg 0.53246 0.76807 0.04011 0.0
C27 C 0.56006 0.82868 0.18461 0.0
O28 O 0.59236 0.83341 0.16389 0.0
C29 C 0.56921 0.74067 0.91775 0.0
O30 O 0.59963 0.76968 0.95695 0.0
C31 C 0.56086 0.83559 0.9197 0.0
O32 O 0.59449 0.84155 0.9415 0.0
O33 O 0.53207 0.80936 0.94965 0.0
O34 O 0.52957 0.80444 0.14361 0.0
O35 O 0.52821 0.72425 0.12911 0.0
C36 C 0.55426 0.7264 0.17723 0.0
O37 O 0.5888 0.75588 0.1788 0.0
O38 O 0.53685 0.73217 0.93796 0.0
Mg39 Mg 0.79735 0.59778 0.03192 0.0
C40 C 0.73798 0.57035 0.91712 0.0
O41 O 0.73889 0.54149 0.94776 0.0
C42 C 0.8324 0.57575 0.14232 0.0
O43 O 0.80133 0.54502 0.10972 0.0
C44 C 0.72836 0.55767 0.14639 0.0
O45 O 0.71711 0.52345 0.10964 0.0
O46 O 0.75725 0.58747 0.12548 0.0
O47 O 0.76428 0.60476 0.93857 0.0
O48 O 0.82702 0.57732 0.95342 0.0
C49 C 0.81905 0.54513 0.91703 0.0
O50 O 0.7857 0.5144 0.91956 0.0
O51 O 0.84027 0.60916 0.1238 0.0
Mg52 Mg 0.19918 0.80312 0.13198 0.0
C53 C 0.17001 0.73203 -0.00048 0.0
O54 O 0.19913 0.72928 0.02429 0.0
C55 C 0.27616 0.82978 0.23537 0.0
O56 O 0.27285 0.79705 0.20739 0.0
C57 C 0.16881 0.7462 0.24569 0.0
O58 O 0.19219 0.73927 0.20734 0.0
O59 O 0.16379 0.77356 0.22632 0.0
O60 O 0.16464 0.75761 0.03373 0.0
O61 O 0.22622 0.84332 0.04364 0.0
C62 C 0.25083 0.83729 0.01356 0.0
O63 O 0.25581 0.80959 0.03805 0.0
O64 O 0.25082 0.83751 0.21491 0.0
Mg65 Mg 0.42604 0.21444 0.17852 0.0
C66 C 0.43652 0.26622 0.3085 0.0
O67 O 0.46976 0.2725 0.29094 0.0
C68 C 0.44963 0.17867 0.07168 0.0
O69 O 0.47883 0.20883 0.1116 0.0
C70 C 0.46159 0.28417 0.0655 0.0
O71 O 0.49427 0.29591 0.10548 0.0
O72 O 0.43226 0.2542 0.08449 0.0
O73 O 0.40706 0.23998 0.26679 0.0
O74 O 0.43357 0.18016 0.27008 0.0
C75 C 0.46258 0.18704 0.31478 0.0
O76 O 0.49507 0.21839 0.30842 0.0
O77 O 0.41648 0.17038 0.08637 0.0
C78 C 0.05507 0.48177 0.52128 0.0
C79 C 0.05709 0.44708 0.81512 0.0
C80 C 0.94287 0.41966 0.80278 0.0
Mg81 Mg 0.00712 0.51646 0.43487 0.0
Mg82 Mg 0.98603 0.57152 0.54817 0.0
O83 O 0.98057 0.52267 0.52855 0.0
Mg84 Mg 0.00126 0.50565 0.6165 0.0
O85 O 0.02214 0.48589 0.69791 0.0
Mg86 Mg -0.00138 0.43044 0.65214 0.0
Mg87 Mg 0.01711 0.49445 0.80752 0.0
C88 C 0.94823 0.5348 0.70596 0.0
O89 O 0.04289 0.56805 0.68057 0.0
O90 O 0.96653 0.52836 0.35612 0.0
O91 O 0.04113 0.55644 0.8129 0.0
O92 O 0.05106 0.58117 0.43963 0.0
O93 O 0.95369 0.56602 0.4392 0.0
O94 O 0.0429 0.61624 0.53657 0.0
O95 O 0.96107 0.44182 0.56186 0.0
O96 O 0.96385 0.45202 0.43034 0.0
C97 C 0.95165 0.42921 0.48649 0.0
C98 C 0.94988 0.54749 0.37092 0.0
O99 O 0.95739 0.50856 0.69803 0.0
O100 O 0.03984 0.42782 0.74719 0.0
O101 O 0.95945 0.56281 0.66076 0.0
O102 O 0.954 0.40833 0.7426 0.0
O103 O 0.0525 0.4735 0.84919 0.0
O104 O 0.96069 0.4544 0.8348 0.0
O105 O 0.04381 0.5061 0.52958 0.0
O106 O 0.04306 0.45267 0.5628 0.0
C107 C 0.06141 0.61326 0.48017 0.0
C108 C 0.05152 0.57962 0.75686 0.0
C109 C 0.48119 0.05964 0.50877 0.0
C110 C 0.59754 0.05689 0.39405 0.0
C111 C 0.54291 0.94209 0.45724 0.0
Mg112 Mg 0.43247 0.0112 0.6546 0.0
Mg113 Mg 0.47298 0.98696 0.79842 0.0
O114 O 0.45948 0.98329 0.68736 0.0
Mg115 Mg 0.50098 0.00491 0.61526 0.0
O116 O 0.53971 0.02643 0.53733 0.0
Mg117 Mg 0.50736 0.00109 0.43233 0.0
Mg118 Mg 0.58044 0.01858 0.55549 0.0
C119 C 0.51856 0.94947 0.72985 0.0
O120 O 0.54921 0.04772 0.71754 0.0
O121 O 0.38644 0.97024 0.73436 0.0
O122 O 0.59942 0.04455 0.67854 0.0
O123 O 0.45853 0.05549 0.76499 0.0
O124 O 0.41614 0.9544 0.82972 0.0
O125 O 0.49571 0.0453 0.84953 0.0
O126 O 0.45711 0.96368 0.50851 0.0
O127 O 0.40713 0.96711 0.54433 0.0
C128 C 0.42233 0.95439 0.49573 0.0
C129 C 0.38647 0.95213 0.79586 0.0
O130 O 0.5169 0.95982 0.65816 0.0
O131 O 0.56219 0.04176 0.37234 0.0
O132 O 0.50661 0.95961 0.79106 0.0
O133 O 0.52365 0.95414 0.41974 0.0
O134 O 0.61038 0.05143 0.46054 0.0
O135 O 0.56391 0.95993 0.5219 0.0
O136 O 0.48279 0.04857 0.57949 0.0
O137 O 0.49097 0.04745 0.44698 0.0
C138 C 0.48131 0.06527 0.82807 0.0
C139 C 0.58389 0.05612 0.72911 0.0
C140 C 0.52897 0.58269 0.72635 0.0
C141 C 0.41213 0.46987 0.86029 0.0
C142 C 0.46041 0.40201 0.79509 0.0
Mg143 Mg 0.57321 0.57752 0.57168 0.0
Mg144 Mg 0.52527 0.50892 0.42587 0.0
O145 O 0.54149 0.5209 0.53674 0.0
Mg146 Mg 0.50293 0.5031 0.61966 0.0
O147 O 0.46663 0.48783 0.7065 0.0
Mg148 Mg 0.50077 0.5005 0.80674 0.0
Mg149 Mg 0.42401 0.4379 0.69653 0.0
C150 C 0.47833 0.42696 0.49807 0.0
O151 O 0.45542 0.49637 0.53336 0.0
O152 O 0.61617 0.57875 0.47942 0.0
O153 O 0.40599 0.44245 0.57501 0.0
O154 O 0.54848 0.59747 0.47078 0.0
O155 O 0.58038 0.52924 0.38437 0.0
O156 O 0.50789 0.5482 0.38273 0.0
O157 O 0.54598 0.50711 0.71596 0.0
O158 O 0.59664 0.55753 0.67172 0.0
C159 C 0.58138 0.53145 0.72082 0.0
C160 C 0.6123 0.5576 0.41409 0.0
O161 O 0.48351 0.44146 0.57165 0.0
O162 O 0.44818 0.49057 0.87739 0.0
O163 O 0.48844 0.44702 0.43644 0.0
O164 O 0.4829 0.43665 0.8255 0.0
O165 O 0.39697 0.44806 0.79424 0.0
O166 O 0.43691 0.39462 0.73427 0.0
O167 O 0.52546 0.56623 0.656 0.0
O168 O 0.51922 0.56384 0.78923 0.0
C169 C 0.52512 0.58403 0.40796 0.0
C170 C 0.42083 0.46903 0.52628 0.0
C171 C 0.1277 0.46958 0.39265 0.0
C172 C 0.14521 0.45674 0.3606 0.0
C173 C 0.1048 0.48168 0.42977 0.0
C174 C 0.08286 0.48649 0.46701 0.0
C175 C 0.68478 0.13005 0.27663 0.0
C176 C 0.71257 0.15173 0.24547 0.0
C177 C 0.65163 0.10433 0.3105 0.0
C178 C 0.62477 0.08236 0.34385 0.0
C179 C 0.53703 0.66957 0.27175 0.0
C180 C 0.54556 0.69583 0.22923 0.0
C181 C 0.52821 0.63795 0.31846 0.0
C182 C 0.52511 0.61165 0.35597 0.0
C183 C 0.87964 0.56252 0.22508 0.0
C184 C 0.85914 0.5703 0.18779 0.0
C185 C 0.90393 0.55348 0.26747 0.0
C186 C 0.92536 0.54859 0.30933 0.0
C187 C 0.33822 0.8803 0.32836 0.0
C188 C 0.30964 0.85784 0.28609 0.0
C189 C 0.37159 0.90583 0.37947 0.0
C190 C 0.39776 0.92738 0.42859 0.0
C191 C 0.43933 0.31787 0.41566 0.0
C192 C 0.43488 0.29268 0.36634 0.0
C193 C 0.44984 0.35308 0.45946 0.0
C194 C 0.4624 0.38628 0.48348 0.0
C195 C 0.55123 0.87938 0.81865 0.0
C196 C 0.55656 0.8599 0.86456 0.0
C197 C 0.54273 0.90316 0.77264 0.0
C198 C 0.5328 0.92397 0.74416 0.0
C199 C 0.67242 0.54988 0.84474 0.0
C200 C 0.7035 0.56244 0.87651 0.0
C201 C 0.63539 0.53537 0.81242 0.0
C202 C 0.60646 0.52853 0.77715 0.0
C203 C 0.12204 0.68173 0.88053 0.0
C204 C 0.14333 0.70513 0.9349 0.0
C205 C 0.09724 0.6505 0.82282 0.0
C206 C 0.07672 0.61992 0.78339 0.0
C207 C 0.4668 0.13835 0.97189 0.0
C208 C 0.45638 0.15506 0.016 0.0
C209 C 0.47863 0.11706 0.92476 0.0
C210 C 0.48246 0.09356 0.88542 0.0
C211 C 0.32996 0.45699 0.00204 0.0
C212 C 0.30254 0.44758 0.03935 0.0
C213 C 0.36155 0.46552 0.95802 0.0
C214 C 0.38676 0.46951 0.91764 0.0
C215 C 0.86942 0.32784 0.91072 0.0
C216 C 0.85284 0.30068 0.94962 0.0
C217 C 0.89124 0.3618 0.87311 0.0
C218 C 0.91464 0.39028 0.84532 0.0
C219 C 0.872 0.53859 0.845 0.0
C220 C 0.84804 0.54185 0.878 0.0
C221 C 0.89932 0.53428 0.80394 0.0
C222 C 0.92139 0.53167 0.76221 0.0
C223 C 0.29686 0.88174 0.91123 0.0
C224 C 0.27528 0.86208 0.95801 0.0
C225 C 0.32501 0.90609 0.86314 0.0
C226 C 0.35174 0.92762 0.82876 0.0
C227 C 0.45806 0.32393 0.94495 0.0
C228 C 0.459 0.30537 -0.00038 0.0
C229 C 0.45779 0.3479 0.88467 0.0
C230 C 0.45737 0.37083 0.84043 0.0
C231 C 0.13302 0.4362 0.95023 0.0
C232 C 0.15158 0.4335 0.00412 0.0
C233 C 0.10759 0.43781 0.89444 0.0
C234 C 0.08414 0.44016 0.85423 0.0
C235 C 0.66773 0.12962 0.8985 0.0
C236 C 0.69612 0.15248 0.94099 0.0
C237 C 0.6345 0.10359 0.84727 0.0
C238 C 0.60857 0.08235 0.79725 0.0
C239 C 0.56845 0.69144 0.80717 0.0
C240 C 0.57205 0.71578 0.85777 0.0
C241 C 0.55804 0.65675 0.76128 0.0
C242 C 0.5454 0.62355 0.73712 0.0
C243 C 0.46001 0.13722 0.41718 0.0
C244 C 0.4602 0.15931 0.36995 0.0
C245 C 0.46349 0.11084 0.4656 0.0
C246 C 0.47034 0.08804 0.49576 0.0
C247 C 0.33121 0.45309 0.39875 0.0
C248 C 0.30007 0.44228 0.37009 0.0
C249 C 0.3675 0.4646 0.43065 0.0
C250 C 0.39542 0.47066 0.46892 0.0
C251 C 0.88054 0.32775 0.36085 0.0
C252 C 0.86069 0.30485 0.30417 0.0
C253 C 0.90441 0.35861 0.42055 0.0
C254 C 0.92528 0.38894 0.46078 0.0
C255 C 0.55513 0.86737 0.31147 0.0
C256 C 0.55878 0.85037 0.2541 0.0
C257 C 0.55013 0.8897 0.3722 0.0
C258 C 0.54807 0.91358 0.41465 0.0
C259 C 0.68989 0.56496 0.26391 0.0
C260 C 0.70755 0.56183 0.21039 0.0
C261 C 0.66712 0.56691 0.32389 0.0
C262 C 0.64452 0.56552 0.3699 0.0
C263 C 0.13359 0.70113 0.35967 0.0
C264 C 0.1491 0.72237 0.30809 0.0
C265 C 0.11229 0.6736 0.41321 0.0
C266 C 0.08907 0.6476 0.44786 0.0
loop_
_geom_bond_atom_site_label_1
_geom_bond_atom_site_label_2
_geom_bond_distance
_geom_bond_site_symmetry_2
_ccdc_geom_bond_type
Mg0 O7 2.141 . S
Mg0 O8 2.048 . S
Mg0 O9 2.048 . S
Mg0 O12 2.141 . S
C1 O2 1.313 . S
C1 O8 1.195 . S
O2 C1 1.313 . S
C3 O4 1.245 . S
C3 O12 1.289 . S
O4 C3 1.245 . S
C5 O6 1.245 . S
C5 O7 1.289 . S
O6 C5 1.245 . S
O7 Mg0 2.141 . S
O7 C5 1.289 . S
O8 Mg0 2.048 . S
O8 C1 1.195 . S
O9 Mg0 2.048 . S
O9 C10 1.195 . S
C10 O9 1.195 . S
C10 O11 1.313 . S
O11 C10 1.313 . S
O12 Mg0 2.141 . S
O12 C3 1.289 . S
Mg13 O20 2.141 . S
Mg13 O21 2.048 . S
Mg13 O22 2.048 . S
Mg13 O25 2.141 . S
C14 O15 1.313 . S
C14 O21 1.195 1_556 S
O15 C14 1.313 . S
C16 O17 1.245 . S
C16 O25 1.289 . S
O17 C16 1.245 . S
C18 O19 1.245 . S
C18 O20 1.289 . S
O19 C18 1.245 . S
O20 Mg13 2.141 . S
O20 C18 1.289 . S
O21 Mg13 2.048 . S
O21 C14 1.195 1_554 S
O22 Mg13 2.048 . S
O22 C23 1.195 1_554 S
C23 O22 1.195 1_556 S
C23 O24 1.313 . S
O24 C23 1.313 . S
O25 Mg13 2.141 . S
O25 C16 1.289 . S
Mg26 O33 2.141 1_554 S
Mg26 O34 2.048 . S
Mg26 O35 2.048 . S
Mg26 O38 2.141 1_554 S
C27 O28 1.313 . S
C27 O34 1.195 . S
O28 C27 1.313 . S
C29 O30 1.245 . S
C29 O38 1.289 . S
O30 C29 1.245 . S
C31 O32 1.245 . S
C31 O33 1.289 . S
O32 C31 1.245 . S
O33 Mg26 2.141 1_556 S
O33 C31 1.289 . S
O34 Mg26 2.048 . S
O34 C27 1.195 . S
O35 Mg26 2.048 . S
O35 C36 1.195 . S
C36 O35 1.195 . S
C36 O37 1.313 . S
O37 C36 1.313 . S
O38 Mg26 2.141 1_556 S
O38 C29 1.289 . S
Mg39 O46 2.141 . S
Mg39 O47 2.048 1_554 S
Mg39 O48 2.048 1_554 S
Mg39 O51 2.141 . S
C40 O41 1.313 . S
C40 O47 1.195 . S
O41 C40 1.313 . S
C42 O43 1.245 . S
C42 O51 1.289 . S
O43 C42 1.245 . S
C44 O45 1.245 . S
C44 O46 1.289 . S
O45 C44 1.245 . S
O46 Mg39 2.141 . S
O46 C44 1.289 . S
O47 Mg39 2.048 1_556 S
O47 C40 1.195 . S
O48 Mg39 2.048 1_556 S
O48 C49 1.195 . S
C49 O48 1.195 . S
C49 O50 1.313 . S
O50 C49 1.313 . S
O51 Mg39 2.141 . S
O51 C42 1.289 . S
Mg52 O59 2.141 . S
Mg52 O60 2.048 . S
Mg52 O61 2.048 . S
Mg52 O64 2.141 . S
C53 O54 1.312 1_554 S
C53 O60 1.199 . S
O54 C53 1.312 1_556 S
C55 O56 1.245 . S
C55 O64 1.289 . S
O56 C55 1.245 . S
C57 O58 1.245 . S
C57 O59 1.289 . S
O58 C57 1.245 . S
O59 Mg52 2.141 . S
O59 C57 1.289 . S
O60 Mg52 2.048 . S
O60 C53 1.199 . S
O61 Mg52 2.048 . S
O61 C62 1.195 . S
C62 O61 1.195 . S
C62 O63 1.313 . S
O63 C62 1.313 . S
O64 Mg52 2.141 . S
O64 C55 1.289 . S
Mg65 O72 2.141 . S
Mg65 O73 2.048 . S
Mg65 O74 2.048 . S
Mg65 O77 2.141 . S
C66 O67 1.313 . S
C66 O73 1.195 . S
O67 C66 1.313 . S
C68 O69 1.245 . S
C68 O77 1.289 . S
O69 C68 1.245 . S
C70 O71 1.245 . S
C70 O72 1.289 . S
O71 C70 1.245 . S
O72 Mg65 2.141 . S
O72 C70 1.289 . S
O73 Mg65 2.048 . S
O73 C66 1.195 . S
O74 Mg65 2.048 . S
O74 C75 1.195 . S
C75 O74 1.195 . S
C75 O76 1.313 . S
O76 C75 1.313 . S
O77 Mg65 2.141 . S
O77 C68 1.289 . S
C78 O105 1.312 . S
C78 O106 1.208 . S
C79 O100 1.331 . S
C79 O103 1.244 . S
C80 O102 1.264 . S
C80 O104 1.273 . S
Mg81 O83 1.936 1_455 S
Mg81 O90 2.081 1_455 S
Mg81 O92 2.023 . S
Mg81 O96 2.031 1_455 S
Mg81 O105 2.291 . S
Mg82 O83 1.963 . S
Mg82 O93 1.942 . S
Mg82 O94 1.955 1_655 S
Mg82 O101 1.986 . S
O83 Mg81 1.936 1_655 S
O83 Mg82 1.963 . S
O83 Mg84 1.915 1_655 S
Mg84 O83 1.915 1_455 S
Mg84 O85 1.915 . S
Mg84 O89 2.013 . S
Mg84 O95 2.114 1_455 S
Mg84 O99 2.013 1_455 S
Mg84 O105 2.114 . S
O85 Mg84 1.915 . S
O85 Mg86 1.936 . S
O85 Mg87 1.963 . S
Mg86 O85 1.936 . S
Mg86 O95 2.291 1_455 S
Mg86 O100 2.081 . S
Mg86 O102 2.023 1_455 S
Mg86 O106 2.031 . S
Mg87 O85 1.963 . S
Mg87 O91 1.986 . S
Mg87 O103 1.942 . S
Mg87 O104 1.955 1_455 S
C88 O99 1.191 . S
C88 O101 1.307 . S
O89 Mg84 2.013 . S
O89 C108 1.191 . S
O90 Mg81 2.081 1_655 S
O90 C98 1.331 . S
O91 Mg87 1.986 . S
O91 C108 1.307 . S
O92 Mg81 2.023 . S
O92 C107 1.264 . S
O93 Mg82 1.942 . S
O93 C98 1.244 . S
O94 Mg82 1.955 1_455 S
O94 C107 1.273 . S
O95 Mg84 2.114 1_655 S
O95 Mg86 2.291 1_655 S
O95 C97 1.312 . S
O96 Mg81 2.031 1_655 S
O96 C97 1.208 . S
C97 O95 1.312 . S
C97 O96 1.208 . S
C98 O90 1.331 . S
C98 O93 1.244 . S
O99 Mg84 2.013 1_655 S
O99 C88 1.191 . S
O100 C79 1.331 . S
O100 Mg86 2.081 . S
O101 Mg82 1.986 . S
O101 C88 1.307 . S
O102 C80 1.264 . S
O102 Mg86 2.023 1_655 S
O103 C79 1.244 . S
O103 Mg87 1.942 . S
O104 C80 1.273 . S
O104 Mg87 1.955 1_655 S
O105 C78 1.312 . S
O105 Mg81 2.291 . S
O105 Mg84 2.114 . S
O106 C78 1.208 . S
O106 Mg86 2.031 . S
C107 O92 1.264 . S
C107 O94 1.273 . S
C108 O89 1.191 . S
C108 O91 1.307 . S
C109 O136 1.312 . S
C109 O137 1.208 . S
C110 O131 1.331 . S
C110 O134 1.244 . S
C111 O133 1.264 . S
C111 O135 1.273 . S
Mg112 O114 1.936 1_545 S
Mg112 O121 2.081 1_545 S
Mg112 O123 2.023 . S
Mg112 O127 2.031 1_545 S
Mg112 O136 2.291 . S
Mg113 O114 1.963 . S
Mg113 O124 1.942 . S
Mg113 O125 1.955 1_565 S
Mg113 O132 1.986 . S
O114 Mg112 1.936 1_565 S
O114 Mg113 1.963 . S
O114 Mg115 1.915 1_565 S
Mg115 O114 1.915 1_545 S
Mg115 O116 1.915 . S
Mg115 O120 2.013 . S
Mg115 O126 2.114 1_545 S
Mg115 O130 2.013 1_545 S
Mg115 O136 2.114 . S
O116 Mg115 1.915 . S
O116 Mg117 1.936 . S
O116 Mg118 1.963 . S
Mg117 O116 1.936 . S
Mg117 O126 2.291 1_545 S
Mg117 O131 2.081 . S
Mg117 O133 2.023 1_545 S
Mg117 O137 2.031 . S
Mg118 O116 1.963 . S
Mg118 O122 1.986 . S
Mg118 O134 1.942 . S
Mg118 O135 1.955 1_545 S
C119 O130 1.191 . S
C119 O132 1.307 . S
O120 Mg115 2.013 . S
O120 C139 1.191 . S
O121 Mg112 2.081 1_565 S
O121 C129 1.331 . S
O122 Mg118 1.986 . S
O122 C139 1.307 . S
O123 Mg112 2.023 . S
O123 C138 1.264 . S
O124 Mg113 1.942 . S
O124 C129 1.244 . S
O125 Mg113 1.955 1_545 S
O125 C138 1.273 . S
O126 Mg115 2.114 1_565 S
O126 Mg117 2.291 1_565 S
O126 C128 1.312 . S
O127 Mg112 2.031 1_565 S
O127 C128 1.208 . S
C128 O126 1.312 . S
C128 O127 1.208 . S
C129 O121 1.331 . S
C129 O124 1.244 . S
O130 Mg115 2.013 1_565 S
O130 C119 1.191 . S
O131 C110 1.331 . S
O131 Mg117 2.081 . S
O132 Mg113 1.986 . S
O132 C119 1.307 . S
O133 C111 1.264 . S
O133 Mg117 2.023 1_565 S
O134 C110 1.244 . S
O134 Mg118 1.942 . S
O135 C111 1.273 . S
O135 Mg118 1.955 1_565 S
O136 C109 1.312 . S
O136 Mg112 2.291 . S
O136 Mg115 2.114 . S
O137 C109 1.208 . S
O137 Mg117 2.031 . S
C138 O123 1.264 . S
C138 O125 1.273 . S
C139 O120 1.191 . S
C139 O122 1.307 . S
C140 O167 1.312 . S
C140 O168 1.208 . S
C141 O162 1.331 . S
C141 O165 1.244 . S
C142 O164 1.264 . S
C142 O166 1.273 . S
Mg143 O145 1.936 . S
Mg143 O152 2.081 . S
Mg143 O154 2.023 . S
Mg143 O158 2.031 . S
Mg143 O167 2.291 . S
Mg144 O145 1.963 . S
Mg144 O155 1.942 . S
Mg144 O156 1.955 . S
Mg144 O163 1.986 . S
O145 Mg143 1.936 . S
O145 Mg144 1.963 . S
O145 Mg146 1.915 . S
Mg146 O145 1.915 . S
Mg146 O147 1.915 . S
Mg146 O151 2.013 . S
Mg146 O157 2.114 . S
Mg146 O161 2.013 . S
Mg146 O167 2.114 . S
O147 Mg146 1.915 . S
O147 Mg148 1.936 . S
O147 Mg149 1.963 . S
Mg148 O147 1.936 . S
Mg148 O157 2.291 . S
Mg148 O162 2.081 . S
Mg148 O164 2.023 . S
Mg148 O168 2.031 . S
Mg149 O147 1.963 . S
Mg149 O153 1.986 . S
Mg149 O165 1.942 . S
Mg149 O166 1.955 . S
C150 O161 1.191 . S
C150 O163 1.307 . S
O151 Mg146 2.013 . S
O151 C170 1.191 . S
O152 Mg143 2.081 . S
O152 C160 1.331 . S
O153 Mg149 1.986 . S
O153 C170 1.307 . S
O154 Mg143 2.023 . S
O154 C169 1.264 . S
O155 Mg144 1.942 . S
O155 C160 1.244 . S
O156 Mg144 1.955 . S
O156 C169 1.273 . S
O157 Mg146 2.114 . S
O157 Mg148 2.291 . S
O157 C159 1.312 . S
O158 Mg143 2.031 . S
O158 C159 1.208 . S
C159 O157 1.312 . S
C159 O158 1.208 . S
C160 O152 1.331 . S
C160 O155 1.244 . S
O161 Mg146 2.013 . S
O161 C150 1.191 . S
O162 C141 1.331 . S
O162 Mg148 2.081 . S
O163 Mg144 1.986 . S
O163 C150 1.307 . S
O164 C142 1.264 . S
O164 Mg148 2.023 . S
O165 C141 1.244 . S
O165 Mg149 1.942 . S
O166 C142 1.273 . S
O166 Mg149 1.955 . S
O167 C140 1.312 . S
O167 Mg143 2.291 . S
O167 Mg146 2.114 . S
O168 C140 1.208 . S
O168 Mg148 2.031 . S
C169 O154 1.264 . S
C169 O156 1.273 . S
C170 O151 1.191 . S
C170 O153 1.307 . S
C171 C172 1.170 . S
C171 C173 1.380 . S
C172 C171 1.170 . S
C173 C171 1.380 . S
C173 C174 1.170 . S
C174 C173 1.170 . S
C175 C176 1.170 . S
C175 C177 1.380 . S
C176 C175 1.170 . S
C177 C175 1.380 . S
C177 C178 1.170 . S
C178 C177 1.170 . S
C179 C180 1.170 . S
C179 C181 1.380 . S
C180 C179 1.170 . S
C181 C179 1.380 . S
C181 C182 1.170 . S
C182 C181 1.170 . S
C183 C184 1.170 . S
C183 C185 1.380 . S
C184 C183 1.170 . S
C185 C183 1.380 . S
C185 C186 1.170 . S
C186 C185 1.170 . S
C187 C188 1.170 . S
C187 C189 1.380 . S
C188 C187 1.170 . S
C189 C187 1.380 . S
C189 C190 1.170 . S
C190 C189 1.170 . S
C191 C192 1.170 . S
C191 C193 1.380 . S
C192 C191 1.170 . S
C193 C191 1.380 . S
C193 C194 1.170 . S
C194 C193 1.170 . S
C195 C196 1.170 . S
C195 C197 1.380 . S
C196 C195 1.170 . S
C197 C195 1.380 . S
C197 C198 1.170 . S
C198 C197 1.170 . S
C199 C200 1.170 . S
C199 C201 1.380 . S
C200 C199 1.170 . S
C201 C199 1.380 . S
C201 C202 1.170 . S
C202 C201 1.170 . S
C203 C204 1.170 . S
C203 C205 1.380 . S
C204 C203 1.170 . S
C205 C203 1.380 . S
C205 C206 1.170 . S
C206 C205 1.170 . S
C207 C208 1.170 1_556 S
C207 C209 1.380 . S
C208 C207 1.170 1_554 S
C209 C207 1.380 . S
C209 C210 1.170 . S
C210 C209 1.170 . S
C211 C212 1.170 1_556 S
C211 C213 1.380 . S
C212 C211 1.170 1_554 S
C213 C211 1.380 . S
C213 C214 1.170 . S
C214 C213 1.170 . S
C215 C216 1.170 . S
C215 C217 1.380 . S
C216 C215 1.170 . S
C217 C215 1.380 . S
C217 C218 1.170 . S
C218 C217 1.170 . S
C219 C220 1.170 . S
C219 C221 1.380 . S
C220 C219 1.170 . S
C221 C219 1.380 . S
C221 C222 1.170 . S
C222 C221 1.170 . S
C223 C224 1.170 . S
C223 C225 1.380 . S
C224 C223 1.170 . S
C225 C223 1.380 . S
C225 C226 1.170 . S
C226 C225 1.170 . S
C227 C228 1.170 1_556 S
C227 C229 1.380 . S
C228 C227 1.170 1_554 S
C229 C227 1.380 . S
C229 C230 1.170 . S
C230 C229 1.170 . S
C231 C232 1.170 1_556 S
C231 C233 1.380 . S
C232 C231 1.170 1_554 S
C233 C231 1.380 . S
C233 C234 1.170 . S
C234 C233 1.170 . S
C235 C236 1.170 . S
C235 C237 1.380 . S
C236 C235 1.170 . S
C237 C235 1.380 . S
C237 C238 1.170 . S
C238 C237 1.170 . S
C239 C240 1.170 . S
C239 C241 1.380 . S
C240 C239 1.170 . S
C241 C239 1.380 . S
C241 C242 1.170 . S
C242 C241 1.170 . S
C243 C244 1.170 . S
C243 C245 1.380 . S
C244 C243 1.170 . S
C245 C243 1.380 . S
C245 C246 1.170 . S
C246 C245 1.170 . S
C247 C248 1.170 . S
C247 C249 1.380 . S
C248 C247 1.170 . S
C249 C247 1.380 . S
C249 C250 1.170 . S
C250 C249 1.170 . S
C251 C252 1.170 . S
C251 C253 1.380 . S
C252 C251 1.170 . S
C253 C251 1.380 . S
C253 C254 1.170 . S
C254 C253 1.170 . S
C255 C256 1.170 . S
C255 C257 1.380 . S
C256 C255 1.170 . S
C257 C255 1.380 . S
C257 C258 1.170 . S
C258 C257 1.170 . S
C259 C260 1.170 . S
C259 C261 1.380 . S
C260 C259 1.170 . S
C261 C259 1.380 . S
C261 C262 1.170 . S
C262 C261 1.170 . S
C263 C264 1.170 . S
C263 C265 1.380 . S
C264 C263 1.170 . S
C265 C263 1.380 . S
C265 C266 1.170 . S
C266 C265 1.170 . S
C172 C5 1.704 . S
C174 C78 1.564 . S
C176 C16 1.392 . S
C178 C110 1.371 . S
C182 C169 1.726 . S
C180 C36 1.806 . S
C186 C98 1.287 . S
C184 C42 1.325 . S
C188 C55 1.585 . S
C190 C128 1.498 . S
C194 C150 1.291 . S
C192 C66 1.238 . S
C198 C119 1.579 . S
C196 C31 1.630 . S
C200 C40 1.312 . S
C202 C159 1.297 . S
C206 C108 1.612 . S
C204 C53 1.574 1_556 S
C208 C68 1.355 . S
C210 C138 1.370 . S
C212 C10 1.734 . S
C214 C141 1.675 . S
C218 C80 1.526 . S
C216 C14 1.497 . S
C222 C88 1.647 . S
C220 C49 1.626 . S
C226 C129 1.421 . S
C224 C62 1.444 1_556 S
C230 C142 1.722 . S
C228 C70 1.739 . S
C234 C79 1.402 . S
C232 C1 1.424 . S
C238 C139 1.577 . S
C236 C23 1.584 . S
C240 C29 1.251 . S
C242 C140 1.190 . S
C246 C109 1.622 . S
C244 C75 1.645 . S
C250 C170 1.214 . S
C248 C3 1.255 . S
C254 C97 1.494 . S
C252 C18 1.561 . S
C258 C111 1.456 . S
C256 C27 1.496 . S
C260 C44 1.662 . S
C262 C160 1.649 . S
C264 C57 1.442 . S
C266 C107 1.444 . S
