# Generated by pormake.
# Topology gar, (4,6)-cn, num edge types: 1
# Building blocks:
#     Node 0, Type 0, BuildingBlock: KUFVIS_clean_sbu_0, # of connection points: 4
#     Node 1, Type 0, BuildingBlock: KUFVIS_clean_sbu_0, # of connection points: 4
#     Node 2, Type 0, BuildingBlock: KUFVIS_clean_sbu_0, # of connection points: 4
#     Node 3, Type 0, BuildingBlock: KUFVIS_clean_sbu_0, # of connection points: 4
#     Node 4, Type 0, BuildingBlock: KUFVIS_clean_sbu_0, # of connection points: 4
#     Node 5, Type 0, BuildingBlock: KUFVIS_clean_sbu_0, # of connection points: 4
#     Node 6, Type 0, BuildingBlock: KUFVIS_clean_sbu_0, # of connection points: 4
#     Node 7, Type 0, BuildingBlock: KUFVIS_clean_sbu_0, # of connection points: 4
#     Node 8, Type 0, BuildingBlock: KUFVIS_clean_sbu_0, # of connection points: 4
#     Node 9, Type 0, BuildingBlock: KUFVIS_clean_sbu_0, # of connection points: 4
#     Node 10, Type 0, BuildingBlock: KUFVIS_clean_sbu_0, # of connection points: 4
#     Node 11, Type 0, BuildingBlock: KUFVIS_clean_sbu_0, # of connection points: 4
#     Node 12, Type 0, BuildingBlock: KUFVIS_clean_sbu_0, # of connection points: 4
#     Node 13, Type 0, BuildingBlock: KUFVIS_clean_sbu_0, # of connection points: 4
#     Node 14, Type 0, BuildingBlock: KUFVIS_clean_sbu_0, # of connection points: 4
#     Node 15, Type 0, BuildingBlock: KUFVIS_clean_sbu_0, # of connection points: 4
#     Node 16, Type 0, BuildingBlock: KUFVIS_clean_sbu_0, # of connection points: 4
#     Node 17, Type 0, BuildingBlock: KUFVIS_clean_sbu_0, # of connection points: 4
#     Node 18, Type 0, BuildingBlock: KUFVIS_clean_sbu_0, # of connection points: 4
#     Node 19, Type 0, BuildingBlock: KUFVIS_clean_sbu_0, # of connection points: 4
#     Node 20, Type 0, BuildingBlock: KUFVIS_clean_sbu_0, # of connection points: 4
#     Node 21, Type 0, BuildingBlock: KUFVIS_clean_sbu_0, # of connection points: 4
#     Node 22, Type 0, BuildingBlock: KUFVIS_clean_sbu_0, # of connection points: 4
#     Node 23, Type 0, BuildingBlock: KUFVIS_clean_sbu_0, # of connection points: 4
#     Node 24, Type 1, BuildingBlock: NUHQIS_clean_sbu_0, # of connection points: 6
#     Node 25, Type 1, BuildingBlock: NUHQIS_clean_sbu_0, # of connection points: 6
#     Node 26, Type 1, BuildingBlock: NUHQIS_clean_sbu_0, # of connection points: 6
#     Node 27, Type 1, BuildingBlock: NUHQIS_clean_sbu_0, # of connection points: 6
#     Node 28, Type 1, BuildingBlock: NUHQIS_clean_sbu_0, # of connection points: 6
#     Node 29, Type 1, BuildingBlock: NUHQIS_clean_sbu_0, # of connection points: 6
#     Node 30, Type 1, BuildingBlock: NUHQIS_clean_sbu_0, # of connection points: 6
#     Node 31, Type 1, BuildingBlock: NUHQIS_clean_sbu_0, # of connection points: 6
#     Node 32, Type 1, BuildingBlock: NUHQIS_clean_sbu_0, # of connection points: 6
#     Node 33, Type 1, BuildingBlock: NUHQIS_clean_sbu_0, # of connection points: 6
#     Node 34, Type 1, BuildingBlock: NUHQIS_clean_sbu_0, # of connection points: 6
#     Node 35, Type 1, BuildingBlock: NUHQIS_clean_sbu_0, # of connection points: 6
#     Node 36, Type 1, BuildingBlock: NUHQIS_clean_sbu_0, # of connection points: 6
#     Node 37, Type 1, BuildingBlock: NUHQIS_clean_sbu_0, # of connection points: 6
#     Node 38, Type 1, BuildingBlock: NUHQIS_clean_sbu_0, # of connection points: 6
#     Node 39, Type 1, BuildingBlock: NUHQIS_clean_sbu_0, # of connection points: 6
#     Edge 40, Type (0, 1), BuildingBlock: TEMPAE_clean_linker_10, # of connection points: 2
#     Edge 41, Type (0, 1), BuildingBlock: TEMPAE_clean_linker_10, # of connection points: 2
#     Edge 42, Type (0, 1), BuildingBlock: TEMPAE_clean_linker_10, # of connection points: 2
#     Edge 43, Type (0, 1), BuildingBlock: TEMPAE_clean_linker_10, # of connection points: 2
#     Edge 44, Type (0, 1), BuildingBlock: TEMPAE_clean_linker_10, # of connection points: 2
#     Edge 45, Type (0, 1), BuildingBlock: TEMPAE_clean_linker_10, # of connection points: 2
#     Edge 46, Type (0, 1), BuildingBlock: TEMPAE_clean_linker_10, # of connection points: 2
#     Edge 47, Type (0, 1), BuildingBlock: TEMPAE_clean_linker_10, # of connection points: 2
#     Edge 48, Type (0, 1), BuildingBlock: TEMPAE_clean_linker_10, # of connection points: 2
#     Edge 49, Type (0, 1), BuildingBlock: TEMPAE_clean_linker_10, # of connection points: 2
#     Edge 50, Type (0, 1), BuildingBlock: TEMPAE_clean_linker_10, # of connection points: 2
#     Edge 51, Type (0, 1), BuildingBlock: TEMPAE_clean_linker_10, # of connection points: 2
#     Edge 52, Type (0, 1), BuildingBlock: TEMPAE_clean_linker_10, # of connection points: 2
#     Edge 53, Type (0, 1), BuildingBlock: TEMPAE_clean_linker_10, # of connection points: 2
#     Edge 54, Type (0, 1), BuildingBlock: TEMPAE_clean_linker_10, # of connection points: 2
#     Edge 55, Type (0, 1), BuildingBlock: TEMPAE_clean_linker_10, # of connection points: 2
#     Edge 56, Type (0, 1), BuildingBlock: TEMPAE_clean_linker_10, # of connection points: 2
#     Edge 57, Type (0, 1), BuildingBlock: TEMPAE_clean_linker_10, # of connection points: 2
#     Edge 58, Type (0, 1), BuildingBlock: TEMPAE_clean_linker_10, # of connection points: 2
#     Edge 59, Type (0, 1), BuildingBlock: TEMPAE_clean_linker_10, # of connection points: 2
#     Edge 60, Type (0, 1), BuildingBlock: TEMPAE_clean_linker_10, # of connection points: 2
#     Edge 61, Type (0, 1), BuildingBlock: TEMPAE_clean_linker_10, # of connection points: 2
#     Edge 62, Type (0, 1), BuildingBlock: TEMPAE_clean_linker_10, # of connection points: 2
#     Edge 63, Type (0, 1), BuildingBlock: TEMPAE_clean_linker_10, # of connection points: 2
#     Edge 64, Type (0, 1), BuildingBlock: TEMPAE_clean_linker_10, # of connection points: 2
#     Edge 65, Type (0, 1), BuildingBlock: TEMPAE_clean_linker_10, # of connection points: 2
#     Edge 66, Type (0, 1), BuildingBlock: TEMPAE_clean_linker_10, # of connection points: 2
#     Edge 67, Type (0, 1), BuildingBlock: TEMPAE_clean_linker_10, # of connection points: 2
#     Edge 68, Type (0, 1), BuildingBlock: TEMPAE_clean_linker_10, # of connection points: 2
#     Edge 69, Type (0, 1), BuildingBlock: TEMPAE_clean_linker_10, # of connection points: 2
#     Edge 70, Type (0, 1), BuildingBlock: TEMPAE_clean_linker_10, # of connection points: 2
#     Edge 71, Type (0, 1), BuildingBlock: TEMPAE_clean_linker_10, # of connection points: 2
#     Edge 72, Type (0, 1), BuildingBlock: TEMPAE_clean_linker_10, # of connection points: 2
#     Edge 73, Type (0, 1), BuildingBlock: TEMPAE_clean_linker_10, # of connection points: 2
#     Edge 74, Type (0, 1), BuildingBlock: TEMPAE_clean_linker_10, # of connection points: 2
#     Edge 75, Type (0, 1), BuildingBlock: TEMPAE_clean_linker_10, # of connection points: 2
#     Edge 76, Type (0, 1), BuildingBlock: TEMPAE_clean_linker_10, # of connection points: 2
#     Edge 77, Type (0, 1), BuildingBlock: TEMPAE_clean_linker_10, # of connection points: 2
#     Edge 78, Type (0, 1), BuildingBlock: TEMPAE_clean_linker_10, # of connection points: 2
#     Edge 79, Type (0, 1), BuildingBlock: TEMPAE_clean_linker_10, # of connection points: 2
#     Edge 80, Type (0, 1), BuildingBlock: TEMPAE_clean_linker_10, # of connection points: 2
#     Edge 81, Type (0, 1), BuildingBlock: TEMPAE_clean_linker_10, # of connection points: 2
#     Edge 82, Type (0, 1), BuildingBlock: TEMPAE_clean_linker_10, # of connection points: 2
#     Edge 83, Type (0, 1), BuildingBlock: TEMPAE_clean_linker_10, # of connection points: 2
#     Edge 84, Type (0, 1), BuildingBlock: TEMPAE_clean_linker_10, # of connection points: 2
#     Edge 85, Type (0, 1), BuildingBlock: TEMPAE_clean_linker_10, # of connection points: 2
#     Edge 86, Type (0, 1), BuildingBlock: TEMPAE_clean_linker_10, # of connection points: 2
#     Edge 87, Type (0, 1), BuildingBlock: TEMPAE_clean_linker_10, # of connection points: 2
#     Edge 88, Type (0, 1), BuildingBlock: TEMPAE_clean_linker_10, # of connection points: 2
#     Edge 89, Type (0, 1), BuildingBlock: TEMPAE_clean_linker_10, # of connection points: 2
#     Edge 90, Type (0, 1), BuildingBlock: TEMPAE_clean_linker_10, # of connection points: 2
#     Edge 91, Type (0, 1), BuildingBlock: TEMPAE_clean_linker_10, # of connection points: 2
#     Edge 92, Type (0, 1), BuildingBlock: TEMPAE_clean_linker_10, # of connection points: 2
#     Edge 93, Type (0, 1), BuildingBlock: TEMPAE_clean_linker_10, # of connection points: 2
#     Edge 94, Type (0, 1), BuildingBlock: TEMPAE_clean_linker_10, # of connection points: 2
#     Edge 95, Type (0, 1), BuildingBlock: TEMPAE_clean_linker_10, # of connection points: 2
#     Edge 96, Type (0, 1), BuildingBlock: TEMPAE_clean_linker_10, # of connection points: 2
#     Edge 97, Type (0, 1), BuildingBlock: TEMPAE_clean_linker_10, # of connection points: 2
#     Edge 98, Type (0, 1), BuildingBlock: TEMPAE_clean_linker_10, # of connection points: 2
#     Edge 99, Type (0, 1), BuildingBlock: TEMPAE_clean_linker_10, # of connection points: 2
#     Edge 100, Type (0, 1), BuildingBlock: TEMPAE_clean_linker_10, # of connection points: 2
#     Edge 101, Type (0, 1), BuildingBlock: TEMPAE_clean_linker_10, # of connection points: 2
#     Edge 102, Type (0, 1), BuildingBlock: TEMPAE_clean_linker_10, # of connection points: 2
#     Edge 103, Type (0, 1), BuildingBlock: TEMPAE_clean_linker_10, # of connection points: 2
#     Edge 104, Type (0, 1), BuildingBlock: TEMPAE_clean_linker_10, # of connection points: 2
#     Edge 105, Type (0, 1), BuildingBlock: TEMPAE_clean_linker_10, # of connection points: 2
#     Edge 106, Type (0, 1), BuildingBlock: TEMPAE_clean_linker_10, # of connection points: 2
#     Edge 107, Type (0, 1), BuildingBlock: TEMPAE_clean_linker_10, # of connection points: 2
#     Edge 108, Type (0, 1), BuildingBlock: TEMPAE_clean_linker_10, # of connection points: 2
#     Edge 109, Type (0, 1), BuildingBlock: TEMPAE_clean_linker_10, # of connection points: 2
#     Edge 110, Type (0, 1), BuildingBlock: TEMPAE_clean_linker_10, # of connection points: 2
#     Edge 111, Type (0, 1), BuildingBlock: TEMPAE_clean_linker_10, # of connection points: 2
#     Edge 112, Type (0, 1), BuildingBlock: TEMPAE_clean_linker_10, # of connection points: 2
#     Edge 113, Type (0, 1), BuildingBlock: TEMPAE_clean_linker_10, # of connection points: 2
#     Edge 114, Type (0, 1), BuildingBlock: TEMPAE_clean_linker_10, # of connection points: 2
#     Edge 115, Type (0, 1), BuildingBlock: TEMPAE_clean_linker_10, # of connection points: 2
#     Edge 116, Type (0, 1), BuildingBlock: TEMPAE_clean_linker_10, # of connection points: 2
#     Edge 117, Type (0, 1), BuildingBlock: TEMPAE_clean_linker_10, # of connection points: 2
#     Edge 118, Type (0, 1), BuildingBlock: TEMPAE_clean_linker_10, # of connection points: 2
#     Edge 119, Type (0, 1), BuildingBlock: TEMPAE_clean_linker_10, # of connection points: 2
#     Edge 120, Type (0, 1), BuildingBlock: TEMPAE_clean_linker_10, # of connection points: 2
#     Edge 121, Type (0, 1), BuildingBlock: TEMPAE_clean_linker_10, # of connection points: 2
#     Edge 122, Type (0, 1), BuildingBlock: TEMPAE_clean_linker_10, # of connection points: 2
#     Edge 123, Type (0, 1), BuildingBlock: TEMPAE_clean_linker_10, # of connection points: 2
#     Edge 124, Type (0, 1), BuildingBlock: TEMPAE_clean_linker_10, # of connection points: 2
#     Edge 125, Type (0, 1), BuildingBlock: TEMPAE_clean_linker_10, # of connection points: 2
#     Edge 126, Type (0, 1), BuildingBlock: TEMPAE_clean_linker_10, # of connection points: 2
#     Edge 127, Type (0, 1), BuildingBlock: TEMPAE_clean_linker_10, # of connection points: 2
#     Edge 128, Type (0, 1), BuildingBlock: TEMPAE_clean_linker_10, # of connection points: 2
#     Edge 129, Type (0, 1), BuildingBlock: TEMPAE_clean_linker_10, # of connection points: 2
#     Edge 130, Type (0, 1), BuildingBlock: TEMPAE_clean_linker_10, # of connection points: 2
#     Edge 131, Type (0, 1), BuildingBlock: TEMPAE_clean_linker_10, # of connection points: 2
#     Edge 132, Type (0, 1), BuildingBlock: TEMPAE_clean_linker_10, # of connection points: 2
#     Edge 133, Type (0, 1), BuildingBlock: TEMPAE_clean_linker_10, # of connection points: 2
#     Edge 134, Type (0, 1), BuildingBlock: TEMPAE_clean_linker_10, # of connection points: 2
#     Edge 135, Type (0, 1), BuildingBlock: TEMPAE_clean_linker_10, # of connection points: 2
# Relax obj value: 0.207
# Max RMSD: 0.318
# Mean RMSD: 0.136
data_MOF--net-gar--node1-KUFVIS_clean_sbu_0--node2-NUHQIS_clean_sbu_0--edge1-TEMPAE_clean_linker_10
_symmetry_space_group_name_H-M    P1
_symmetry_Int_Tables_number       1
_symmetry_cell_setting            triclinic
loop_
_symmetry_equiv_pos_as_xyz
'x, y, z'
_cell_length_a     57.254956
_cell_length_b     59.989205
_cell_length_c     58.224899
_cell_angle_alpha  92.904154
_cell_angle_beta   96.677788
_cell_angle_gamma 100.6182
loop_
_atom_site_label
_atom_site_type_symbol
_atom_site_fract_x
_atom_site_fract_y
_atom_site_fract_z
_atom_type_partial_charge
Mn0 Mn 0.08876 0.28853 0.42262 0.0
Mn1 Mn 0.08873 0.32559 0.37939 0.0
C2 C 0.05074 0.29421 0.40077 0.0
C3 C 0.08916 0.24957 0.4394 0.0
C4 C 0.0956 0.34352 0.43082 0.0
O5 O 0.12468 0.29182 0.41188 0.0
O6 O 0.12054 0.31582 0.38406 0.0
C7 C 0.09247 0.29318 0.3404 0.0
N8 N 0.08138 0.30906 0.34972 0.0
C9 C 0.05663 0.30988 0.31358 0.0
C10 C 0.06781 0.29359 0.30354 0.0
C11 C 0.08565 0.28504 0.31709 0.0
C12 C 0.06368 0.31683 0.33706 0.0
H13 H 0.1065 0.28689 0.35061 0.0
C14 C 0.13311 0.3032 0.39505 0.0
O15 O 0.09624 0.26912 0.45105 0.0
O16 O 0.08264 0.25238 0.41774 0.0
N17 N 0.05999 0.33693 0.37131 0.0
C18 C 0.05043 0.35204 0.3838 0.0
C19 C 0.03292 0.36277 0.37267 0.0
C20 C 1.02569 0.35813 0.34877 0.0
C21 C 0.03526 0.34208 0.33637 0.0
C22 C 0.0527 0.33197 0.34838 0.0
H23 H 0.05652 0.35636 0.402 0.0
O24 O 0.05197 0.28646 0.42123 0.0
O25 O 0.07175 0.29855 0.39352 0.0
O26 O 0.09409 0.32341 0.43883 0.0
O27 O 0.09577 0.34559 0.40905 0.0
C28 C 0.02859 0.33606 0.31247 0.0
C29 C 0.03894 0.31967 0.30118 0.0
H30 H 0.06287 0.28755 0.28547 0.0
H31 H 0.09436 0.27246 0.30948 0.0
H32 H 1.02547 0.37503 0.38236 0.0
H33 H 1.01278 0.36705 0.34012 0.0
H34 H 1.01538 0.34381 0.30261 0.0
H35 H 0.03333 0.31488 0.2829 0.0
Mn36 Mn 0.07116 0.79453 0.6559 0.0
Mn37 Mn 0.0814 0.8359 0.7004 0.0
C38 C 0.11136 0.80706 0.6772 0.0
C39 C 0.06508 0.75345 0.63877 0.0
C40 C 0.0749 0.84868 0.64944 0.0
O41 O 0.03617 0.79278 0.66788 0.0
O42 O 0.0459 0.82188 0.69554 0.0
C43 C 0.06949 0.80689 0.7388 0.0
N44 N 0.0852 0.82277 0.72954 0.0
C45 C 0.1132 0.82751 0.76442 0.0
C46 C 0.09724 0.81134 0.77439 0.0
C47 C 0.07535 0.80089 0.76146 0.0
C48 C 0.10645 0.8327 0.74173 0.0
H49 H 0.05258 0.79888 0.72905 0.0
C50 C 0.03031 0.80546 0.68448 0.0
O51 O 0.06085 0.77045 0.6271 0.0
O52 O 0.071 0.75976 0.66065 0.0
N53 N 0.11419 0.85065 0.70817 0.0
C54 C 0.12866 0.86395 0.69519 0.0
C55 C 0.15167 0.8749 0.7052 0.0
C56 C 0.15951 0.87217 0.72847 0.0
C57 C 0.14449 0.85806 0.74136 0.0
C58 C 0.12177 0.84754 0.73043 0.0
H59 H 0.12275 0.86606 0.67729 0.0
O60 O 0.10767 0.79867 0.65585 0.0
O61 O 0.09139 0.80914 0.68527 0.0
O62 O 0.07074 0.82758 0.64073 0.0
O63 O 0.07868 0.85284 0.6715 0.0
C64 C 0.15126 0.85379 0.76453 0.0
C65 C 0.13568 0.83844 0.77602 0.0
H66 H 0.10168 0.80669 0.79187 0.0
H67 H 0.06298 0.78831 0.76898 0.0
H68 H 0.16328 0.88552 0.69505 0.0
H69 H 0.17718 0.88083 0.73618 0.0
H70 H 0.16856 0.86195 0.77359 0.0
H71 H 0.14131 0.83492 0.79365 0.0
Mn72 Mn 0.58518 0.79388 0.92396 0.0
Mn73 Mn 0.58551 0.83102 0.88075 0.0
C74 C 0.54708 0.7998 0.90214 0.0
C75 C 0.58558 0.75463 0.94063 0.0
C76 C 0.59222 0.8491 0.9322 0.0
O77 O 0.62118 0.79702 0.91314 0.0
O78 O 0.6173 0.82081 0.88507 0.0
C79 C 0.58853 0.79853 0.84157 0.0
N80 N 0.57771 0.81454 0.85106 0.0
C81 C 0.55237 0.81527 0.81525 0.0
C82 C 0.56329 0.79887 0.80504 0.0
C83 C 0.5813 0.79031 0.81833 0.0
C84 C 0.55989 0.82236 0.83864 0.0
H85 H 0.60264 0.79218 0.85159 0.0
C86 C 0.62973 0.80806 0.89613 0.0
O87 O 0.59259 0.77417 0.95233 0.0
O88 O 0.57906 0.75761 0.91901 0.0
N89 N 0.55689 0.84268 0.87297 0.0
C90 C 0.54754 0.85783 0.88563 0.0
C91 C 0.52981 0.86848 0.87477 0.0
C92 C 0.52209 0.86367 0.85097 0.0
C93 C 0.53146 0.84758 0.83841 0.0
C94 C 0.54919 0.83761 0.85013 0.0
H95 H 0.55391 0.86223 0.90376 0.0
O96 O 0.54836 0.79189 0.92253 0.0
O97 O 0.56813 0.80408 0.89489 0.0
O98 O 0.59039 0.82892 0.94019 0.0
O99 O 0.59296 0.85112 0.91047 0.0
C100 C 0.52425 0.84136 0.81461 0.0
C101 C 0.53443 0.82495 0.80313 0.0
H102 H 0.55799 0.79271 0.78703 0.0
H103 H 0.58979 0.77763 0.81059 0.0
H104 H 0.52254 0.88078 0.8846 0.0
H105 H 0.50901 0.87251 0.84252 0.0
H106 H 0.51075 0.84894 0.80499 0.0
H107 H 0.52842 0.82001 0.78495 0.0
Mn108 Mn 0.57609 0.3002 0.15961 0.0
Mn109 Mn 0.53106 0.29285 0.11562 0.0
C110 C 0.56219 0.26188 0.13911 0.0
C111 C 0.61839 0.30681 0.17791 0.0
C112 C 0.52112 0.29887 0.16669 0.0
O113 O 0.57745 0.33449 0.14773 0.0
O114 O 0.54718 0.32659 0.11854 0.0
C115 C 0.5592 0.30267 0.07646 0.0
N116 N 0.54316 0.28815 0.08685 0.0
C117 C 0.53871 0.25947 0.05539 0.0
C118 C 0.55504 0.27418 0.04429 0.0
C119 C 0.56539 0.29584 0.05491 0.0
C120 C 0.53327 0.26719 0.07687 0.0
H121 H 0.56727 0.31933 0.08453 0.0
C122 C 0.56444 0.34115 0.13033 0.0
O123 O 0.60075 0.31037 0.18869 0.0
O124 O 0.61195 0.30089 0.15598 0.0
N125 N 0.51442 0.26193 0.11006 0.0
C126 C 0.50039 0.24915 0.12379 0.0
C127 C 0.48939 0.22671 0.11604 0.0
C128 C 0.4928 0.2177 0.09421 0.0
C129 C 0.50737 0.23115 0.08042 0.0
C130 C 0.51799 0.25334 0.08912 0.0
H131 H 0.49769 0.25595 0.14059 0.0
O132 O 0.5721 0.26512 0.16051 0.0
O133 O 0.5595 0.28144 0.13071 0.0
O134 O 0.54335 0.30004 0.17485 0.0
O135 O 0.51502 0.29702 0.14462 0.0
C136 C 0.51194 0.22333 0.05848 0.0
C137 C 0.52773 0.23741 0.04604 0.0
H138 H 0.55987 0.26897 0.02767 0.0
H139 H 0.57811 0.30726 0.04651 0.0
H140 H 0.4783 0.21639 0.12686 0.0
H141 H 0.48432 0.20037 0.08831 0.0
H142 H 0.50349 0.20648 0.05103 0.0
H143 H 0.53142 0.23105 0.02936 0.0
Mn144 Mn 0.1218 0.8582 0.15925 0.0
Mn145 Mn 0.07704 0.82929 0.11983 0.0
C146 C 0.11188 0.81894 0.1583 0.0
C147 C 0.16152 0.87498 0.17196 0.0
C148 C 0.06847 0.85284 0.16425 0.0
O149 O 0.11737 0.88176 0.13607 0.0
O150 O 0.08769 0.86064 0.1111 0.0
C151 C 0.10521 0.8274 0.08044 0.0
N152 N 0.09036 0.81663 0.09477 0.0
C153 C 0.08703 0.78064 0.07326 0.0
C154 C 0.10226 0.79133 0.05822 0.0
C155 C 0.1115 0.81479 0.06192 0.0
C156 C 0.08176 0.79401 0.09165 0.0
H157 H 0.1121 0.84548 0.08308 0.0
C158 C 0.10251 0.87918 0.1176 0.0
O159 O 0.14392 0.88124 0.18105 0.0
O160 O 0.15598 0.85985 0.15444 0.0
N161 N 0.06449 0.79855 0.12542 0.0
C162 C 0.05056 0.79078 0.14188 0.0
C163 C 0.03941 0.76779 0.14039 0.0
C164 C 0.04244 0.75313 0.12186 0.0
C165 C 0.05723 0.76139 0.10539 0.0
C166 C 0.0677 0.78451 0.10766 0.0
H167 H 0.04762 0.8021 0.1558 0.0
O168 O 0.12314 0.8308 0.17687 0.0
O169 O 0.10714 0.83029 0.1404 0.0
O170 O 0.0904 0.86102 0.17128 0.0
O171 O 0.0614 0.84097 0.14507 0.0
C172 C 0.06174 0.7477 0.08664 0.0
C173 C 0.07686 0.75726 0.07074 0.0
H174 H 0.10699 0.7817 0.0438 0.0
H175 H 0.12328 0.82316 0.05041 0.0
H176 H 0.02816 0.76147 0.15326 0.0
H177 H 0.03325 0.73555 0.12045 0.0
H178 H 0.05383 0.72976 0.08436 0.0
H179 H 0.08047 0.74649 0.05659 0.0
Mn180 Mn 0.51649 0.73422 0.40499 0.0
Mn181 Mn 0.50861 0.74026 0.34703 0.0
C182 C 0.47772 0.73069 0.38671 0.0
C183 C 0.52644 0.71364 0.43615 0.0
C184 C 0.52019 0.77992 0.3832 0.0
O185 O 0.54961 0.73432 0.39579 0.0
O186 O 0.54105 0.73539 0.35757 0.0
C187 C 0.51153 0.69258 0.33425 0.0
N188 N 0.50017 0.71051 0.33164 0.0
C189 C 0.47248 0.69025 0.3 0.0
C190 C 0.48391 0.67157 0.30222 0.0
C191 C 0.50339 0.67266 0.31959 0.0
C192 C 0.48086 0.7093 0.31569 0.0
H193 H 0.52676 0.69354 0.34734 0.0
C194 C 0.55546 0.73387 0.37549 0.0
O195 O 0.53068 0.73565 0.43767 0.0
O196 O 0.51552 0.70334 0.41653 0.0
N197 N 0.47893 0.74532 0.33152 0.0
C198 C 0.47183 0.76571 0.32986 0.0
C199 C 0.45436 0.76839 0.31172 0.0
C200 C 0.44397 0.75008 0.29564 0.0
C201 C 0.45206 0.72952 0.29709 0.0
C202 C 0.47015 0.72805 0.31504 0.0
H203 H 0.48024 0.7802 0.34163 0.0
O204 O 0.48264 0.73299 0.40911 0.0
O205 O 0.49551 0.72799 0.37515 0.0
O206 O 0.52031 0.76796 0.40067 0.0
O207 O 0.51691 0.77169 0.3621 0.0
C208 C 0.44356 0.71073 0.28082 0.0
C209 C 0.45346 0.69093 0.28255 0.0
H210 H 0.47799 0.65637 0.29062 0.0
H211 H 0.51232 0.65832 0.32145 0.0
H212 H 0.44942 0.78476 0.30964 0.0
H213 H 0.43041 0.75227 0.28179 0.0
H214 H 0.42945 0.71135 0.26689 0.0
H215 H 0.44671 0.67654 0.27003 0.0
Mn216 Mn 0.60702 0.34753 0.65475 0.0
Mn217 Mn 0.5663 0.32036 0.61091 0.0
C218 C 0.59568 0.30858 0.65277 0.0
C219 C 0.64536 0.36348 0.67228 0.0
C220 C 0.55271 0.34314 0.6532 0.0
O221 O 0.60669 0.37149 0.63183 0.0
O222 O 0.57821 0.35237 0.60433 0.0
C223 C 0.59985 0.32033 0.57581 0.0
N224 N 0.58305 0.30882 0.58785 0.0
C225 C 0.58366 0.27342 0.56677 0.0
C226 C 0.60092 0.2849 0.55409 0.0
C227 C 0.60913 0.30844 0.55872 0.0
C228 C 0.57531 0.28612 0.5838 0.0
H229 H 0.60608 0.33844 0.57921 0.0
C230 C 0.59325 0.37028 0.61263 0.0
O231 O 0.62657 0.36985 0.67879 0.0
O232 O 0.64197 0.34858 0.6546 0.0
N233 N 0.55286 0.28926 0.61423 0.0
C234 C 0.53656 0.28068 0.62837 0.0
C235 C 0.52611 0.25749 0.62562 0.0
C236 C 0.53229 0.24344 0.60821 0.0
C237 C 0.54939 0.25254 0.59412 0.0
C238 C 0.559 0.27584 0.59749 0.0
H239 H 0.53138 0.29149 0.64148 0.0
O240 O 0.60485 0.31994 0.67229 0.0
O241 O 0.59392 0.32024 0.63455 0.0
O242 O 0.57414 0.35117 0.66208 0.0
O243 O 0.54739 0.33095 0.63405 0.0
C244 C 0.55712 0.23949 0.57674 0.0
C245 C 0.57442 0.24987 0.56323 0.0
H246 H 0.60802 0.27581 0.5408 0.0
H247 H 0.62248 0.31741 0.54903 0.0
H248 H 0.51305 0.25052 0.63667 0.0
H249 H 0.52369 0.22569 0.60576 0.0
H250 H 0.55003 0.22141 0.57373 0.0
H251 H 0.58046 0.23961 0.55012 0.0
Mn252 Mn 0.03419 0.25092 0.90388 0.0
Mn253 Mn 0.03844 0.26014 0.84759 0.0
C254 C 1.00194 0.26025 0.88111 0.0
C255 C 0.02971 0.22693 0.93363 0.0
C256 C 0.06179 0.29421 0.88764 0.0
O257 O 0.06378 0.23856 0.89763 0.0
O258 O 0.06111 0.24086 0.85904 0.0
C259 C 1.02045 0.21301 0.8271 0.0
N260 N 1.01964 0.23556 0.82757 0.0
C261 C 0.99194 0.23009 0.79249 0.0
C262 C 0.99249 0.20678 0.79154 0.0
C263 C 1.00664 0.19818 0.80905 0.0
C264 C 1.00557 0.24389 0.81123 0.0
H265 H 0.03165 0.20647 0.84032 0.0
C266 C 0.07026 0.23432 0.87798 0.0
O267 O 0.04186 0.24751 0.93712 0.0
O268 O 1.01894 0.22044 0.91274 0.0
N269 N 1.01772 0.27839 0.83329 0.0
C270 C 1.01835 0.30105 0.83743 0.0
C271 C 1.00629 0.31264 0.821 0.0
C272 C 0.99373 0.3008 0.80051 0.0
C273 C 0.99224 0.27724 0.7972 0.0
C274 C 1.00504 0.26672 0.81395 0.0
H275 H 0.02835 0.31026 0.85292 0.0
O276 O 1.00361 0.26228 0.9036 0.0
O277 O 1.01851 0.25153 0.87242 0.0
O278 O 0.0525 0.2829 0.90323 0.0
O279 O 0.05848 0.28712 0.86624 0.0
C280 C 0.97896 0.26386 0.77775 0.0
C281 C 0.97852 0.24023 0.77558 0.0
H282 H 0.98212 0.19535 0.77748 0.0
H283 H 1.00714 0.18021 0.80846 0.0
H284 H 1.00703 0.33073 0.82391 0.0
H285 H 0.98502 0.30994 0.78757 0.0
H286 H 0.96881 0.27152 0.76451 0.0
H287 H 0.96794 0.23005 0.76076 0.0
Mn288 Mn 0.51868 0.12276 0.3295 0.0
Mn289 Mn 0.4717 0.12004 0.35988 0.0
C290 C 0.50131 0.08839 0.34247 0.0
C291 C 0.53572 0.12217 0.29536 0.0
C292 C 0.52285 0.13965 0.38039 0.0
O293 O 0.50618 0.15128 0.32147 0.0
O294 O 0.47423 0.14685 0.34114 0.0
C295 C 0.43189 0.11205 0.32119 0.0
N296 N 0.4426 0.10561 0.34126 0.0
C297 C 0.40946 0.07481 0.34278 0.0
C298 C 0.39803 0.08116 0.32219 0.0
C299 C 0.40938 0.09978 0.31127 0.0
C300 C 0.432 0.08753 0.35171 0.0
H301 H 0.44041 0.12647 0.31283 0.0
C302 C 0.48715 0.1572 0.32694 0.0
O303 O 0.54751 0.13283 0.3143 0.0
O304 O 0.51379 0.11185 0.29612 0.0
N305 N 0.46674 0.09437 0.37815 0.0
C306 C 0.48104 0.08929 0.39677 0.0
C307 C 0.47268 0.07066 0.40923 0.0
C308 C 0.44965 0.05761 0.40256 0.0
C309 C 0.43539 0.06299 0.38315 0.0
C310 C 0.44475 0.08163 0.3713 0.0
H311 H 0.49867 0.09937 0.40208 0.0
O312 O 0.52339 0.09184 0.33811 0.0
O313 O 0.49019 0.10523 0.33938 0.0
O314 O 0.53205 0.13614 0.36207 0.0
O315 O 0.50037 0.13473 0.38135 0.0
C316 C 0.41228 0.05056 0.37505 0.0
C317 C 0.39943 0.05629 0.35474 0.0
H318 H 0.38061 0.0718 0.31454 0.0
H319 H 0.40071 0.10475 0.29534 0.0
H320 H 0.48389 0.06649 0.42405 0.0
H321 H 0.44319 0.04335 0.41232 0.0
H322 H 0.40427 0.03646 0.38423 0.0
H323 H 0.38189 0.0463 0.34842 0.0
Mn324 Mn 0.35117 0.17729 0.54403 0.0
Mn325 Mn 0.34067 0.13454 0.50123 0.0
C326 C 0.31048 0.15593 0.53226 0.0
C327 C 0.35634 0.19349 0.58575 0.0
C328 C 0.3508 0.18485 0.48919 0.0
O329 O 0.38568 0.16635 0.54453 0.0
O330 O 0.37561 0.13919 0.51498 0.0
C331 C 0.3482 0.09619 0.5296 0.0
N332 N 0.33396 0.1057 0.51412 0.0
C333 C 0.30319 0.07199 0.51001 0.0
C334 C 0.3176 0.06179 0.52579 0.0
C335 C 0.34015 0.074 0.53572 0.0
C336 C 0.31212 0.09419 0.50466 0.0
H337 H 0.3656 0.10542 0.53722 0.0
C338 C 0.39122 0.15023 0.53131 0.0
O339 O 0.36253 0.20522 0.56858 0.0
O340 O 0.34918 0.17207 0.57921 0.0
N341 N 0.30817 0.12733 0.48672 0.0
C342 C 0.2956 0.14032 0.47349 0.0
C343 C 0.27218 0.13099 0.46319 0.0
C344 C 0.26205 0.10837 0.46638 0.0
C345 C 0.2753 0.09538 0.48015 0.0
C346 C 0.29846 0.10565 0.49015 0.0
H347 H 0.30335 0.15766 0.47083 0.0
O348 O 0.3149 0.1768 0.54104 0.0
O349 O 0.33015 0.14854 0.52919 0.0
O350 O 0.35341 0.19288 0.51077 0.0
O351 O 0.34677 0.16328 0.48445 0.0
C352 C 0.26637 0.07271 0.48453 0.0
C353 C 0.28023 0.06107 0.49956 0.0
H354 H 0.31145 0.04467 0.53054 0.0
H355 H 0.35133 0.06629 0.548 0.0
H356 H 0.26202 0.14118 0.4527 0.0
H357 H 0.24404 0.10121 0.45831 0.0
H358 H 0.24879 0.06409 0.47654 0.0
H359 H 0.27295 0.04381 0.50316 0.0
Mn360 Mn 0.24518 0.06157 0.853 0.0
Mn361 Mn 0.27798 0.08073 0.9044 0.0
C362 C 0.25096 0.09939 0.86595 0.0
C363 C 0.23948 0.0543 0.81294 0.0
C364 C 0.2274 0.05377 0.89992 0.0
O365 O 0.26456 0.03692 0.85927 0.0
O366 O 0.28586 0.0513 0.89365 0.0
C367 C 0.32619 0.08959 0.88908 0.0
N368 N 0.30856 0.09725 0.89916 0.0
C369 C 0.33214 0.13513 0.90567 0.0
C370 C 0.35058 0.12761 0.89546 0.0
C371 C 0.34756 0.10476 0.88709 0.0
C372 C 0.31127 0.11923 0.90726 0.0
H373 H 0.32395 0.07207 0.88253 0.0
C374 C 0.28028 0.03611 0.87658 0.0
O375 O 0.22494 0.04365 0.82603 0.0
O376 O 0.25846 0.06799 0.82331 0.0
N377 N 0.27222 0.10939 0.91602 0.0
C378 C 0.25204 0.11432 0.92374 0.0
C379 C 0.25175 0.1367 0.93185 0.0
C380 C 0.27223 0.15373 0.93206 0.0
C381 C 0.2928 0.14824 0.92408 0.0
C382 C 0.29204 0.12565 0.9162 0.0
H383 H 0.23621 0.10131 0.92353 0.0
O384 O 0.23226 0.09029 0.85145 0.0
O385 O 0.26516 0.08586 0.87289 0.0
O386 O 0.22469 0.05121 0.87795 0.0
O387 O 0.24667 0.06456 0.91181 0.0
C388 C 0.3139 0.16436 0.92333 0.0
C389 C 0.3335 0.15785 0.914 0.0
H390 H 0.36704 0.13928 0.89378 0.0
H391 H 0.36166 0.09885 0.87908 0.0
H392 H 0.23577 0.14082 0.93787 0.0
H393 H 0.2719 0.17101 0.93821 0.0
H394 H 0.31513 0.18189 0.92963 0.0
H395 H 0.34945 0.17052 0.9131 0.0
Mn396 Mn 0.33458 0.8943 0.04844 0.0
Mn397 Mn 0.32928 0.93785 1.0146 0.0
C398 C 0.36892 0.91923 0.04088 0.0
C399 C 0.3339 0.87957 0.08528 0.0
C400 C 0.32378 0.88894 0.99509 0.0
O401 O 0.29931 0.89668 0.04801 0.0
O402 O 0.2992 0.9275 0.02758 0.0
C403 C 0.32392 0.97227 0.0509 0.0
N404 N 0.3353 0.966 0.03304 0.0
C405 C 0.358 1.0039 0.03286 0.0
C406 C 0.34657 1.01081 0.05127 0.0
C407 C 0.3296 0.99486 0.06046 0.0
C408 C 0.35209 0.98103 0.02449 0.0
H409 H 0.31049 0.96016 0.05765 0.0
C410 C 0.28904 0.91206 0.0394 0.0
O411 O 0.32949 0.86636 0.0663 0.0
O412 O 0.33926 0.90123 0.08292 0.0
N413 N 0.35693 0.95029 1.00066 0.0
C414 C 0.36682 0.94067 0.98342 0.0
C415 C 0.38394 0.95433 0.97215 0.0
C416 C 0.39028 0.97779 0.97838 0.0
C417 C 0.38003 0.98728 0.99633 0.0
C418 C 0.36328 0.97278 1.00708 0.0
H419 H 0.36131 0.9228 0.97798 0.0
O420 O 0.37016 0.89922 0.0479 0.0
O421 O 0.3477 0.92433 0.03896 0.0
O422 O 0.32866 0.88027 1.01434 0.0
O423 O 0.3229 0.90993 0.99373 0.0
C424 C 0.38545 1.01061 1.00374 0.0
C425 C 0.3748 0.01884 0.02228 0.0
H426 H 0.35064 0.02831 0.05845 0.0
H427 H 0.32069 1.00006 0.07466 0.0
H428 H 0.39183 0.9469 0.95835 0.0
H429 H 0.40309 0.98836 0.96928 0.0
H430 H 0.398 0.02236 0.99546 0.0
H431 H 0.37949 0.03671 0.02812 0.0
Mn432 Mn 0.3192 0.41741 0.05001 0.0
Mn433 Mn 0.32391 0.45843 1.01088 0.0
C434 C 0.35882 0.43863 0.04311 0.0
C435 C 0.31661 0.40118 0.08954 0.0
C436 C 0.31445 0.40743 0.99461 0.0
O437 O 0.28416 0.42785 0.04713 0.0
O438 O 0.29119 0.45412 0.0214 0.0
C439 C 0.32061 0.49803 0.04216 0.0
N440 N 0.33213 0.48818 0.0264 0.0
C441 C 0.35943 0.5234 0.02405 0.0
C442 C 0.34781 0.53396 0.04018 0.0
C443 C 0.32845 0.52116 0.04943 0.0
C444 C 0.35115 0.50019 0.01787 0.0
H445 H 0.30548 0.48837 0.04902 0.0
C446 C 0.2773 0.44383 0.03493 0.0
O447 O 0.30912 0.38971 0.06981 0.0
O448 O 0.32448 0.4225 0.08668 0.0
N449 N 0.35384 0.46586 0.99885 0.0
C450 C 0.36389 0.45285 0.98442 0.0
C451 C 0.38326 0.46309 0.97346 0.0
C452 C 0.39189 0.48661 0.97721 0.0
C453 C 0.38176 0.49956 0.99264 0.0
C454 C 0.36241 0.48844 1.00298 0.0
H455 H 0.35693 0.43488 0.9809 0.0
O456 O 0.35577 0.41863 0.05117 0.0
O457 O 0.3386 0.44575 0.03896 0.0
O458 O 0.31403 0.40039 1.01533 0.0
O459 O 0.31628 0.42865 0.99168 0.0
C460 C 0.38985 0.5231 0.99795 0.0
C461 C 0.37887 0.53496 1.01384 0.0
H462 H 0.35364 0.55185 0.04564 0.0
H463 H 0.31942 0.52918 0.06192 0.0
H464 H 0.39118 0.45296 0.96174 0.0
H465 H 0.40629 0.49454 0.96808 0.0
H466 H 0.40468 0.53222 0.9901 0.0
H467 H 0.38554 0.55297 0.0181 0.0
Mn468 Mn 0.80071 0.21146 0.03298 0.0
Mn469 Mn 0.79262 0.16979 0.98949 0.0
C470 C 0.76262 0.18974 0.02074 0.0
C471 C 0.81041 0.22382 0.0729 0.0
C472 C 0.79941 0.21982 0.98081 0.0
O473 O 0.83464 0.20559 0.03166 0.0
O474 O 0.82659 0.17757 1.00294 0.0
C475 C 0.80436 0.13221 0.01695 0.0
N476 N 0.78886 0.1406 1.00171 0.0
C477 C 0.76254 0.1041 0.99466 0.0
C478 C 0.7782 0.09504 1.01029 0.0
C479 C 0.79912 0.1092 0.02161 0.0
C480 C 0.76851 0.12723 0.99104 0.0
H481 H 0.82069 0.14294 0.02532 0.0
C482 C 0.84098 0.1909 0.01828 0.0
O483 O 0.81331 0.23785 0.05673 0.0
O484 O 0.80186 0.20271 0.06596 0.0
N485 N 0.76051 0.16006 0.97468 0.0
C486 C 0.7468 0.17175 0.96101 0.0
C487 C 0.72497 0.16019 0.94881 0.0
C488 C 0.71776 0.13669 0.9504 0.0
C489 C 0.73214 0.12505 0.96466 0.0
C490 C 0.75354 0.13751 0.9766 0.0
H491 H 0.75264 0.18969 0.95925 0.0
O492 O 0.76517 0.20971 0.03152 0.0
O493 O 0.78236 0.18305 0.01737 0.0
O494 O 0.80124 0.22759 1.00201 0.0
O495 O 0.79619 0.19868 0.97466 0.0
C496 C 0.72621 0.10154 0.96735 0.0
C497 C 0.74127 0.09112 0.98251 0.0
H498 H 0.77432 0.07726 1.01377 0.0
H499 H 0.81132 0.10234 0.03367 0.0
H500 H 0.71393 0.16929 0.93788 0.0
H501 H 0.70113 0.12777 0.94062 0.0
H502 H 0.71007 0.09129 0.95792 0.0
H503 H 0.7363 0.07311 0.98473 0.0
Mn504 Mn 0.13205 0.48853 0.27578 0.0
Mn505 Mn 0.16672 0.50401 0.32696 0.0
C506 C 0.1424 0.52636 0.28956 0.0
C507 C 0.12503 0.48177 0.23575 0.0
C508 C 0.11422 0.48399 0.32325 0.0
O509 O 0.14771 0.46112 0.28041 0.0
O510 O 0.16736 0.47225 0.31618 0.0
C511 C 0.21361 0.50258 0.31065 0.0
N512 N 0.19905 0.51423 0.32129 0.0
C513 C 0.23081 0.54692 0.33033 0.0
C514 C 0.24613 0.53528 0.31948 0.0
C515 C 0.23746 0.51303 0.30954 0.0
C516 C 0.20717 0.53568 0.33077 0.0
H517 H 0.20716 0.48542 0.30315 0.0
C518 C 0.16075 0.45772 0.29868 0.0
O519 O 0.10964 0.47277 0.24894 0.0
O520 O 0.14519 0.49368 0.24594 0.0
N521 N 0.16829 0.53446 0.33941 0.0
C522 C 0.15091 0.54374 0.3482 0.0
C523 C 0.15656 0.56607 0.35848 0.0
C524 C 0.18008 0.57849 0.35989 0.0
C525 C 0.19764 0.56862 0.35064 0.0
C526 C 0.19093 0.54634 0.34053 0.0
H527 H 0.13286 0.5342 0.34728 0.0
O528 O 0.12294 0.51906 0.27538 0.0
O529 O 0.15508 0.51126 0.29571 0.0
O530 O 0.11133 0.47978 0.30138 0.0
O531 O 0.13399 0.4942 0.33468 0.0
C532 C 0.22154 0.58 0.35101 0.0
C533 C 0.23805 0.56924 0.34069 0.0
H534 H 0.26456 0.54326 0.31865 0.0
H535 H 0.24917 0.50391 0.30116 0.0
H536 H 0.14288 0.57364 0.36544 0.0
H537 H 0.18442 0.59562 0.36805 0.0
H538 H 0.22739 0.5971 0.35906 0.0
H539 H 0.25627 0.5783 0.34079 0.0
Mn540 Mn 0.81985 0.91776 0.55237 0.0
Mn541 Mn 0.82547 0.95954 0.51408 0.0
C542 C 0.85971 0.93892 0.54639 0.0
C543 C 0.81685 0.90136 0.59179 0.0
C544 C 0.81611 0.90878 0.49686 0.0
O545 O 0.78483 0.9281 0.54909 0.0
O546 O 0.79234 0.95461 0.5237 0.0
C547 C 0.82075 0.99845 0.54561 0.0
N548 N 0.83297 0.98905 0.53016 0.0
C549 C 0.86005 0.02466 0.52898 0.0
C550 C 0.84769 0.03475 0.54479 0.0
C551 C 0.82809 0.02153 0.55328 0.0
C552 C 0.85219 1.00149 0.52231 0.0
H553 H 0.80544 0.98847 0.55191 0.0
C554 C 0.77812 0.94408 0.53682 0.0
O555 O 0.80956 0.88992 0.57199 0.0
O556 O 0.82468 0.92271 0.58901 0.0
N557 N 0.85583 0.96762 0.50297 0.0
C558 C 0.86666 0.95502 0.48887 0.0
C559 C 0.88672 0.96564 0.47908 0.0
C560 C 0.89523 0.98913 0.48361 0.0
C561 C 0.88408 1.00168 0.49847 0.0
C562 C 0.86414 0.99019 0.50769 0.0
H563 H 0.85986 0.93707 0.48484 0.0
O564 O 0.85633 0.91875 0.55403 0.0
O565 O 0.83963 0.94631 0.54207 0.0
O566 O 0.81501 0.90129 0.51737 0.0
O567 O 0.81855 0.93013 0.49438 0.0
C568 C 0.89189 0.02516 0.50437 0.0
C569 C 0.87994 0.03663 0.51969 0.0
H570 H 0.85317 0.05259 0.55059 0.0
H571 H 0.81849 0.02918 0.56552 0.0
H572 H 0.89536 0.95582 0.46775 0.0
H573 H 0.91035 0.99736 0.4756 0.0
H574 H 0.90726 0.03449 0.49746 0.0
H575 H 0.88634 0.0546 0.52441 0.0
Mn576 Mn 0.93913 0.0185 0.22452 0.0
Mn577 Mn 0.88697 1.00804 0.24737 0.0
C578 C 0.92317 0.98203 0.23243 0.0
C579 C 0.96236 0.02437 0.19471 0.0
C580 C 0.93415 0.02621 0.27617 0.0
O581 O 0.92635 0.04718 0.2183 0.0
O582 O 0.89398 0.03898 0.23671 0.0
C583 C 0.857 1.00945 0.20262 0.0
N584 N 0.8622 0.99852 0.22198 0.0
C585 C 0.82704 0.96946 0.21173 0.0
C586 C 0.82126 0.9804 0.19171 0.0
C587 C 0.83647 1.00036 0.18702 0.0
C588 C 0.84831 0.97878 0.22611 0.0
H589 H 0.86832 0.02507 0.19917 0.0
C590 C 0.90783 0.05232 0.22557 0.0
O591 O 0.97014 0.03284 0.2157 0.0
O592 O 0.94077 1.01224 0.19087 0.0
N593 N 0.87618 0.97902 0.25871 0.0
C594 C 0.88282 0.9719 0.27993 0.0
C595 C 0.86903 0.9526 0.28773 0.0
C596 C 0.84778 0.94151 0.27424 0.0
C597 C 0.84047 0.94989 0.2531 0.0
C598 C 0.85539 0.96872 0.24583 0.0
H599 H 0.8985 0.98094 0.29091 0.0
O600 O 0.94581 0.98796 0.23072 0.0
O601 O 0.90996 0.99731 0.22869 0.0
O602 O 0.9458 0.02838 0.25885 0.0
O603 O 0.91188 0.01736 0.27456 0.0
C604 C 0.81856 0.94069 0.2393 0.0
C605 C 0.81213 0.95012 0.21836 0.0
H606 H 0.80509 0.97374 0.17996 0.0
H607 H 0.83214 1.00894 0.17163 0.0
H608 H 0.87447 0.94661 0.30437 0.0
H609 H 0.83694 0.92688 0.28053 0.0
H610 H 0.8065 0.92634 0.24464 0.0
H611 H 0.79538 0.94274 0.20779 0.0
Mn612 Mn 0.30128 0.71579 0.53588 0.0
Mn613 Mn 0.29596 0.67324 0.49385 0.0
C614 C 0.26418 0.69214 0.52385 0.0
C615 C 0.30957 0.72914 0.57556 0.0
C616 C 0.30001 0.72269 0.48337 0.0
O617 O 0.33593 0.71178 0.53547 0.0
O618 O 0.32975 0.68332 0.50735 0.0
C619 C 0.31041 0.63771 0.52282 0.0
N620 N 0.29417 0.64463 0.50713 0.0
C621 C 0.27011 0.60699 0.50119 0.0
C622 C 0.28655 0.59942 0.51731 0.0
C623 C 0.30671 0.61489 0.52828 0.0
C624 C 0.27454 0.62999 0.49675 0.0
H625 H 0.32617 0.64945 0.53093 0.0
C626 C 0.3434 0.69752 0.5225 0.0
O627 O 0.31205 0.74291 0.55911 0.0
O628 O 0.30236 0.70776 0.56901 0.0
N629 N 0.26422 0.66136 0.47906 0.0
C630 C 0.24961 0.67167 0.46478 0.0
C631 C 0.2284 0.65868 0.45275 0.0
C632 C 0.22273 0.63518 0.45517 0.0
C633 C 0.23799 0.62497 0.47008 0.0
C634 C 0.25874 0.63883 0.48177 0.0
H635 H 0.25428 0.68962 0.4624 0.0
O636 O 0.26551 0.7123 0.53378 0.0
O637 O 0.28454 0.68644 0.52105 0.0
O638 O 0.30152 0.73105 0.50435 0.0
O639 O 0.29759 0.70146 0.47802 0.0
C640 C 0.23357 0.60158 0.47366 0.0
C641 C 0.24951 0.59263 0.48935 0.0
H642 H 0.28385 0.58179 0.52141 0.0
H643 H 0.31951 0.60918 0.54069 0.0
H644 H 0.21666 0.66667 0.44133 0.0
H645 H 0.20658 0.62515 0.4455 0.0
H646 H 0.21792 0.59031 0.46453 0.0
H647 H 0.2457 0.5747 0.49223 0.0
Mn648 Mn 0.42361 0.52178 0.72933 0.0
Mn649 Mn 0.36788 0.5048 0.74387 0.0
C650 C 0.4118 0.48463 0.73783 0.0
C651 C 0.45044 0.5308 0.70295 0.0
C652 C 0.40951 0.52882 0.7782 0.0
O653 O 0.40749 0.54755 0.71959 0.0
O654 O 0.37182 0.53501 0.7312 0.0
C655 C 0.34423 0.49973 0.69532 0.0
N656 N 0.34774 0.49113 0.71638 0.0
C657 C 0.31732 0.45797 0.7043 0.0
C658 C 0.31327 0.46651 0.68252 0.0
C659 C 0.32694 0.48739 0.67794 0.0
C660 C 0.33529 0.47072 0.72067 0.0
H661 H 0.35446 0.51592 0.69185 0.0
C662 C 0.38633 0.54968 0.72213 0.0
O663 O 0.45446 0.54003 0.72398 0.0
O664 O 0.43071 0.51595 0.69714 0.0
N665 N 0.3592 0.47609 0.75646 0.0
C666 C 0.36415 0.47108 0.77883 0.0
C667 C 0.35035 0.45207 0.78703 0.0
C668 C 0.33219 0.43777 0.77195 0.0
C669 C 0.32725 0.44326 0.74904 0.0
C670 C 0.34083 0.46309 0.74216 0.0
H671 H 0.37796 0.48196 0.79058 0.0
O672 O 0.43425 0.49376 0.73846 0.0
O673 O 0.39622 0.49713 0.73082 0.0
O674 O 0.42413 0.53202 0.76326 0.0
O675 O 0.38781 0.51823 0.77326 0.0
C676 C 0.30875 0.43033 0.73304 0.0
C677 C 0.30404 0.43749 0.71055 0.0
H678 H 0.29968 0.45721 0.66921 0.0
H679 H 0.32396 0.49409 0.66117 0.0
H680 H 0.35367 0.44854 0.80503 0.0
H681 H 0.32179 0.42293 0.7783 0.0
H682 H 0.29805 0.41484 0.73786 0.0
H683 H 0.2899 0.42733 0.69833 0.0
Mn684 Mn 0.64586 0.98804 0.77211 0.0
Mn685 Mn 0.68622 0.99832 0.82029 0.0
C686 C 0.65733 0.02433 0.79033 0.0
C687 C 0.63447 0.98537 0.73235 0.0
C688 C 0.63481 0.9751 0.82037 0.0
O689 O 0.6626 0.96113 0.77018 0.0
O690 O 0.68846 0.96955 0.80319 0.0
C691 C 0.73088 1.0054 0.79823 0.0
N692 N 0.71662 1.01311 0.81275 0.0
C693 C 0.74586 0.04736 0.82387 0.0
C694 C 0.76089 0.03976 0.80909 0.0
C695 C 0.75331 0.01874 0.79613 0.0
C696 C 0.72365 0.0334 0.82514 0.0
H697 H 0.72524 0.98919 0.78835 0.0
C698 C 0.67954 0.95704 0.78461 0.0
O699 O 0.62101 0.97455 0.74621 0.0
O700 O 0.65507 0.99725 0.74154 0.0
N701 N 0.68617 0.02608 0.83797 0.0
C702 C 0.66875 0.03181 0.84988 0.0
C703 C 0.6731 0.05277 0.86303 0.0
C704 C 0.69536 0.0675 0.86396 0.0
C705 C 0.71296 0.06126 0.85147 0.0
C706 C 0.70755 0.04024 0.83854 0.0
H707 H 0.65162 0.02054 0.84923 0.0
O708 O 0.63659 0.01828 0.77779 0.0
O709 O 0.67036 1.00881 0.79232 0.0
O710 O 0.62878 0.97535 0.79871 0.0
O711 O 0.65579 0.98359 0.83038 0.0
C712 C 0.73561 0.07515 0.85119 0.0
C713 C 0.75196 0.06832 0.83723 0.0
H714 H 0.77821 0.04999 0.80743 0.0
H715 H 0.76477 1.01282 0.7846 0.0
H716 H 0.65935 0.05753 0.87247 0.0
H717 H 0.69867 0.08364 0.87415 0.0
H718 H 0.74055 0.09122 0.86152 0.0
H719 H 0.76911 0.07939 0.8368 0.0
Mn720 Mn 0.84994 0.67678 0.04544 0.0
Mn721 Mn 0.84039 0.63412 1.00258 0.0
C722 C 0.80946 0.65515 0.03288 0.0
C723 C 0.85468 0.69326 0.08698 0.0
C724 C 0.85032 0.68446 0.99086 0.0
O725 O 0.8847 0.66614 0.04632 0.0
O726 O 0.87509 0.63877 0.01695 0.0
C727 C 0.84713 0.59584 0.03133 0.0
N728 N 0.83325 0.60533 1.01549 0.0
C729 C 0.8021 0.57191 1.01142 0.0
C730 C 0.81612 0.56174 0.02758 0.0
C731 C 0.83868 0.5738 0.03767 0.0
C732 C 0.81139 0.59398 1.00591 0.0
H733 H 0.86452 0.60497 0.03909 0.0
C734 C 0.8905 0.64999 0.03332 0.0
O735 O 0.86092 0.70486 0.06974 0.0
O736 O 0.84767 0.67177 0.08063 0.0
N737 N 0.80814 0.62697 0.98742 0.0
C738 C 0.79607 0.63982 0.9735 0.0
C739 C 0.7729 0.63049 0.96261 0.0
C740 C 0.76247 0.60799 0.96594 0.0
C741 C 0.77517 0.59515 0.98046 0.0
C742 C 0.79815 0.60539 0.99095 0.0
H743 H 0.80405 0.65706 0.97069 0.0
O744 O 0.81351 0.67591 0.04193 0.0
O745 O 0.82934 0.64801 0.03023 0.0
O746 O 0.85234 0.69239 1.01239 0.0
O747 O 0.84687 0.66293 0.98599 0.0
C748 C 0.76589 0.57262 0.985 0.0
C749 C 0.77923 0.56108 1.00065 0.0
H750 H 0.80968 0.54473 0.03247 0.0
H751 H 0.84956 0.56611 0.05023 0.0
H752 H 0.76315 0.64056 0.95155 0.0
H753 H 0.74466 0.60081 0.95736 0.0
H754 H 0.74848 0.56402 0.97661 0.0
H755 H 0.77169 0.54392 1.00435 0.0
Mn756 Mn 1.02075 0.62107 0.82373 0.0
Mn757 Mn 0.97498 0.6155 0.8559 0.0
C758 C 1.00631 0.58606 0.8372 0.0
C759 C 0.03676 0.62089 0.78901 0.0
C760 C 1.02601 0.63723 0.87493 0.0
O761 O 1.00596 0.64858 0.81618 0.0
O762 O 0.97536 0.64245 0.8375 0.0
C763 C 0.93389 0.60622 0.81852 0.0
N764 N 0.94576 0.60011 0.83814 0.0
C765 C 0.91382 0.56851 0.84091 0.0
C766 C 0.9012 0.57451 0.82078 0.0
C767 C 0.91136 0.59335 0.80945 0.0
C768 C 0.93632 0.5818 0.84897 0.0
H769 H 0.94147 0.62085 0.8099 0.0
C770 C 0.98697 0.65355 0.82283 0.0
O771 O 0.04851 0.6325 0.80749 0.0
O772 O 1.01527 0.60984 0.79046 0.0
N773 N 0.97198 0.58972 0.87412 0.0
C774 C 0.98716 0.58536 0.89243 0.0
C775 C 0.97995 0.56677 0.90537 0.0
C776 C 0.95714 0.55303 0.89951 0.0
C777 C 0.94199 0.55761 0.88034 0.0
C778 C 0.95017 0.57635 0.86807 0.0
H779 H 1.00455 0.59608 0.89725 0.0
O780 O 0.02808 0.59099 0.83213 0.0
O781 O 0.99365 0.6019 0.83454 0.0
O782 O 0.03473 0.63492 0.85608 0.0
O783 O 1.00378 0.63106 0.87655 0.0
C784 C 0.91907 0.54439 0.87295 0.0
C785 C 0.90506 0.54975 0.85317 0.0
H786 H 0.88377 0.56468 0.81379 0.0
H787 H 0.90176 0.59806 0.79387 0.0
H788 H 0.99183 0.5632 0.92 0.0
H789 H 0.95153 0.53888 0.90972 0.0
H790 H 0.91206 0.53 0.88227 0.0
H791 H 0.88764 0.53924 0.84746 0.0
Mn792 Mn 0.83868 0.38808 0.54556 0.0
Mn793 Mn 0.8393 0.43074 0.50951 0.0
C794 C 0.87525 0.40858 0.53712 0.0
C795 C 0.83695 0.37524 0.58328 0.0
C796 C 0.82665 0.38081 0.49229 0.0
O797 O 0.80508 0.3956 0.54528 0.0
O798 O 0.80909 0.4255 0.52325 0.0
C799 C 0.83979 0.4691 0.54373 0.0
N800 N 0.8496 0.45971 0.52629 0.0
C801 C 0.87694 0.49476 0.52357 0.0
C802 C 0.86721 0.50485 0.54154 0.0
C803 C 0.84868 0.4919 0.55179 0.0
C804 C 0.86781 0.47182 0.51672 0.0
H805 H 0.82517 0.45933 0.55126 0.0
C806 C 0.79728 0.4121 0.53599 0.0
O807 O 0.8297 0.36157 0.56478 0.0
O808 O 0.84535 0.39625 0.57992 0.0
N809 N 0.86756 0.43822 0.4948 0.0
C810 C 0.87534 0.42572 0.47809 0.0
C811 C 0.89349 0.43622 0.46576 0.0
C812 C 0.90308 0.45952 0.47042 0.0
C813 C 0.89507 0.47194 0.48797 0.0
C814 C 0.87709 0.46052 0.49979 0.0
H815 H 0.86736 0.40802 0.47383 0.0
O816 O 0.87376 0.38838 0.5446 0.0
O817 O 0.85532 0.41614 0.53475 0.0
O818 O 0.83047 0.37258 0.51197 0.0
O819 O 0.82859 0.40206 0.48998 0.0
C820 C 0.90394 0.49529 0.49398 0.0
C821 C 0.89516 0.5066 0.51201 0.0
H822 H 0.87378 0.52253 0.54756 0.0
H823 H 0.84103 0.49957 0.56563 0.0
H824 H 0.8997 0.4265 0.45235 0.0
H825 H 0.91681 0.46764 0.4606 0.0
H826 H 0.91753 0.50472 0.48486 0.0
H827 H 0.9024 0.52445 0.51669 0.0
Mn828 Mn 0.73152 0.56953 0.35992 0.0
Mn829 Mn 0.77381 0.58896 0.40541 0.0
C830 C 0.74195 0.60794 0.37105 0.0
C831 C 0.71737 0.55926 0.32111 0.0
C832 C 0.72409 0.56424 0.41046 0.0
O833 O 0.74969 0.54365 0.36326 0.0
O834 O 0.77787 0.55858 0.39329 0.0
C835 C 0.81713 0.59464 0.38134 0.0
N836 N 0.80269 0.60364 0.39473 0.0
C837 C 0.82925 0.64009 0.39898 0.0
C838 C 0.84448 0.63118 0.38536 0.0
C839 C 0.83833 0.60839 0.3764 0.0
C840 C 0.80833 0.62561 0.40326 0.0
H841 H 0.81251 0.57712 0.37447 0.0
C842 C 0.76816 0.54277 0.37757 0.0
O843 O 0.70592 0.55099 0.33761 0.0
O844 O 0.73789 0.57292 0.3271 0.0
N845 N 0.77187 0.61851 0.41809 0.0
C846 C 0.75421 0.62499 0.42912 0.0
C847 C 0.75698 0.64763 0.4381 0.0
C848 C 0.77794 0.66328 0.43584 0.0
C849 C 0.79584 0.65619 0.42438 0.0
C850 C 0.79199 0.63349 0.41561 0.0
H851 H 0.7381 0.613 0.43095 0.0
O852 O 0.72082 0.5995 0.36009 0.0
O853 O 0.75581 0.59352 0.3758 0.0
O854 O 0.71688 0.5617 0.38894 0.0
O855 O 0.74504 0.57458 0.41892 0.0
C856 C 0.81725 0.67082 0.42114 0.0
C857 C 0.83385 0.66285 0.40827 0.0
H858 H 0.86083 0.64174 0.38149 0.0
H859 H 0.84993 0.60141 0.36577 0.0
H860 H 0.74302 0.65298 0.4468 0.0
H861 H 0.78002 0.68072 0.44279 0.0
H862 H 0.82097 0.68834 0.4282 0.0
H863 H 0.84998 0.67442 0.40544 0.0
Tb864 Tb 0.04861 0.05155 1.01433 0.0
Eu865 Eu 0.10533 0.06704 0.03734 0.0
C866 C 0.08979 0.05519 0.98467 0.0
C867 C 0.07831 1.0155 0.03203 0.0
C868 C 0.98791 0.05985 0.99994 0.0
C869 C 0.97983 0.09822 0.99891 0.0
C870 C 0.99441 0.08262 0.99472 0.0
C871 C 0.96629 0.05294 1.00904 0.0
C872 C 0.95171 0.06865 1.01338 0.0
C873 C 0.95853 0.09157 1.0087 0.0
C874 C 1.00493 0.04419 0.99872 0.0
O875 O 0.0506 0.06865 0.0483 0.0
O876 O 0.08282 0.05583 0.06528 0.0
O877 O 0.09222 0.10012 0.03656 0.0
O878 O 0.05873 0.08751 1.00947 0.0
C879 C 0.06218 0.06191 0.06653 0.0
O880 O 0.13401 0.07681 0.06629 0.0
O881 O 0.1427 0.07069 0.03154 0.0
O882 O 0.10028 0.0722 0.99943 0.0
O883 O 0.07106 0.04103 0.9897 0.0
O884 O 0.05749 0.02192 0.03082 0.0
O885 O 0.09786 0.02938 0.0285 0.0
C886 C 0.07411 0.10379 0.02212 0.0
O887 O 1.02203 0.04978 0.98585 0.0
O888 O 1.01303 0.03771 0.01867 0.0
C889 C 0.16518 0.05626 0.06145 0.0
C890 C 0.18969 0.01996 0.06967 0.0
C891 C 0.16921 0.02161 0.0804 0.0
C892 C 0.15698 0.03946 0.0762 0.0
C893 C 0.1861 0.05516 0.05148 0.0
C894 C 0.19813 0.03719 0.05542 0.0
C895 C 0.15049 0.07294 0.05365 0.0
H896 H 0.98534 0.11559 0.99462 0.0
H897 H 1.01108 0.0886 0.98791 0.0
H898 H 0.96109 0.03557 1.01353 0.0
H899 H 0.9355 0.063 0.02106 0.0
H900 H 0.16233 1.00889 0.09171 0.0
H901 H 0.14066 0.03966 0.08388 0.0
H902 H 0.19251 0.06765 0.03971 0.0
H903 H 0.21347 0.03634 0.04637 0.0
Tb904 Tb 0.33484 0.83026 0.29928 0.0
Eu905 Eu 0.28864 0.7882 0.27877 0.0
C906 C 0.28422 0.84182 0.2804 0.0
C907 C 0.30262 0.80105 0.33367 0.0
C908 C 0.38476 0.88198 0.31632 0.0
C909 C 0.38732 0.92271 0.32303 0.0
C910 C 0.3737 0.90066 0.32006 0.0
C911 C 0.40941 0.88581 0.31459 0.0
C912 C 0.423 0.90788 0.31741 0.0
C913 C 0.41219 0.92649 0.32223 0.0
C914 C 0.37179 0.85842 0.31687 0.0
O915 O 0.34661 0.79912 0.28958 0.0
O916 O 0.31653 0.77237 0.29856 0.0
O917 O 0.30683 0.80147 0.24801 0.0
O918 O 0.32997 0.83614 0.2627 0.0
C919 C 0.3394 0.77998 0.29873 0.0
O920 O 0.27671 0.75607 0.2577 0.0
O921 O 0.25079 0.77263 0.27293 0.0
O922 O 0.27493 0.82035 0.2744 0.0
O923 O 0.30613 0.84909 0.29107 0.0
O924 O 0.3231 0.81325 0.32954 0.0
O925 O 0.28524 0.79274 0.3169 0.0
C926 C 0.3197 0.82157 0.24518 0.0
O927 O 0.35135 0.85546 0.32527 0.0
O928 O 0.37134 0.84434 0.29893 0.0
C929 C 0.24176 0.73222 0.26712 0.0
C930 C 0.21598 0.68928 0.27583 0.0
C931 C 0.22875 0.69176 0.25659 0.0
C932 C 0.24138 0.71301 0.25224 0.0
C933 C 0.22929 0.72982 0.28655 0.0
C934 C 0.21649 0.70856 0.29083 0.0
C935 C 0.2544 0.75458 0.2614 0.0
H936 H 0.37847 0.9368 0.32638 0.0
H937 H 0.3547 0.89822 0.32142 0.0
H938 H 0.41833 0.87163 0.31192 0.0
H939 H 0.44214 0.91028 0.31681 0.0
H940 H 0.22916 0.67723 0.24493 0.0
H941 H 0.25082 0.71446 0.23713 0.0
H942 H 0.2292 0.74437 0.29833 0.0
H943 H 0.20669 0.7073 0.30569 0.0
Tb944 Tb 0.56985 0.02929 0.523 0.0
Eu945 Eu 0.6028 0.06879 0.55741 0.0
C946 C 0.5752 0.02556 0.57565 0.0
C947 C 0.54553 0.07162 0.5413 0.0
C948 C 0.54436 0.97702 0.48301 0.0
C949 C 0.52227 0.94375 0.45938 0.0
C950 C 0.52257 0.96362 0.473 0.0
C951 C 0.56592 0.96996 0.47994 0.0
C952 C 0.56565 0.95011 0.46618 0.0
C953 C 0.54382 0.93703 0.45538 0.0
C954 C 0.54428 0.99954 0.49395 0.0
O955 O 0.57642 0.05953 0.50418 0.0
O956 O 0.61255 0.07782 0.52255 0.0
O957 O 0.62759 0.04239 0.55349 0.0
O958 O 0.60601 0.01886 0.52307 0.0
C959 C 0.59617 0.07453 0.50456 0.0
O960 O 0.62201 0.10339 0.56731 0.0
O961 O 0.62331 0.07732 0.59167 0.0
O962 O 0.57626 0.04748 0.57652 0.0
O963 O 0.57692 1.01494 0.55597 0.0
O964 O 0.5427 0.04959 0.53419 0.0
O965 O 0.56761 0.08301 0.54876 0.0
C966 C 0.626 0.02486 0.53811 0.0
O967 O 0.54136 1.00104 0.51586 0.0
O968 O 0.56078 1.01589 0.48877 0.0
C969 C 0.62464 0.11481 0.60666 0.0
C970 C 0.61373 0.14931 0.63561 0.0
C971 C 0.63605 0.15205 0.62714 0.0
C972 C 0.64143 0.1349 0.61278 0.0
C973 C 0.60299 0.11129 0.61623 0.0
C974 C 0.59764 0.1284 0.63076 0.0
C975 C 0.6289 0.09891 0.58844 0.0
H976 H 0.50513 0.93374 0.45179 0.0
H977 H 0.50579 0.96889 0.47515 0.0
H978 H 0.58297 0.9802 0.48746 0.0
H979 H 0.58255 0.94541 0.46342 0.0
H980 H 0.6487 0.16803 0.63018 0.0
H981 H 0.65819 0.13784 0.60544 0.0
H982 H 0.58981 0.0958 0.61163 0.0
H983 H 0.58043 0.1257 0.63724 0.0
Tb984 Tb 0.31075 0.291 0.78691 0.0
Eu985 Eu 0.36234 0.28438 0.80812 0.0
C986 C 0.3561 0.32603 0.77858 0.0
C987 C 0.34154 0.26762 0.75267 0.0
C988 C 0.24756 0.28151 0.78525 0.0
C989 C 0.20524 0.26757 0.78588 0.0
C990 C 0.22389 0.27887 0.77476 0.0
C991 C 0.25249 0.27252 0.80668 0.0
C992 C 0.234 0.26129 0.81775 0.0
C993 C 0.21017 0.25877 0.80754 0.0
C994 C 0.26766 0.29213 0.77369 0.0
O995 O 0.30686 0.25665 0.79793 0.0
O996 O 0.33678 0.26253 0.82778 0.0
O997 O 0.3527 0.31004 0.83507 0.0
O998 O 0.31222 0.30215 0.82481 0.0
C999 C 0.31614 0.25123 0.81791 0.0
O1000 O 0.38794 0.26204 0.81569 0.0
O1001 O 0.39762 0.29799 0.8267 0.0
O1002 O 0.36936 0.31088 0.78287 0.0
O1003 O 0.3338 0.32306 0.78276 0.0
O1004 O 0.32553 0.28085 0.75473 0.0
O1005 O 0.35517 0.26404 0.77177 0.0
C1006 C 0.33104 0.31189 0.83994 0.0
O1007 O 0.28237 0.30889 0.78581 0.0
O1008 O 0.27909 0.27774 0.76472 0.0
C1009 C 0.42642 0.282 0.81003 0.0
C1010 C 0.45733 0.2964 0.77753 0.0
C1011 C 0.44165 0.27532 0.77359 0.0
C1012 C 0.42617 0.26817 0.78971 0.0
C1013 C 0.44412 0.30178 0.81507 0.0
C1014 C 0.45927 0.30911 0.79876 0.0
C1015 C 0.40543 0.2792 0.82279 0.0
H1016 H 0.18699 0.26566 0.77753 0.0
H1017 H 0.21986 0.28539 0.75804 0.0
H1018 H 0.27072 0.27414 0.81491 0.0
H1019 H 0.23836 0.25502 0.83453 0.0
H1020 H 0.44002 0.26528 0.75727 0.0
H1021 H 0.4128 0.25279 0.78531 0.0
H1022 H 0.44476 0.31267 0.83066 0.0
H1023 H 0.47152 0.32533 0.80212 0.0
Tb1024 Tb 0.08475 0.03506 0.51819 0.0
Eu1025 Eu 0.08642 0.06098 0.56679 0.0
C1026 C 0.13564 0.06547 0.5413 0.0
C1027 C 0.08825 1.00513 0.56386 0.0
C1028 C 0.07848 0.02063 0.4546 0.0
C1029 C 0.05923 1.00865 0.41557 0.0
C1030 C 0.06965 1.00341 0.43698 0.0
C1031 C 0.07921 0.04344 0.44985 0.0
C1032 C 0.06875 0.04873 0.42843 0.0
C1033 C 0.05745 0.03125 0.41158 0.0
C1034 C 0.08008 1.01431 0.47857 0.0
O1035 O 0.04728 0.02445 0.52643 0.0
O1036 O 0.046 0.04658 0.5592 0.0
O1037 O 0.07891 0.08894 0.54172 0.0
O1038 O 0.08261 0.07059 0.50735 0.0
C1039 C 0.03524 0.03062 0.54298 0.0
O1040 O 0.07974 0.0618 0.60301 0.0
O1041 O 0.0988 0.09183 0.58989 0.0
O1042 O 0.12636 0.06577 0.56106 0.0
O1043 O 0.12196 0.05533 0.52242 0.0
O1044 O 0.09167 1.00727 0.54173 0.0
O1045 O 0.08563 0.02347 0.57627 0.0
C1046 C 0.08055 0.08966 0.51915 0.0
O1047 O 0.10057 0.02009 0.49175 0.0
O1048 O 0.06248 0.01871 0.48911 0.0
C1049 C 0.11197 0.08336 0.62787 0.0
C1050 C 0.14731 0.08073 0.66518 0.0
C1051 C 0.12348 0.08086 0.66897 0.0
C1052 C 0.106 0.08218 0.65049 0.0
C1053 C 0.13583 0.08376 0.62404 0.0
C1054 C 0.15335 0.08255 0.64253 0.0
C1055 C 0.09289 0.08188 0.60828 0.0
H1056 H 0.05061 0.99477 0.40304 0.0
H1057 H 0.06869 0.98571 0.44047 0.0
H1058 H 0.08589 0.05696 0.46334 0.0
H1059 H 0.06802 0.06632 0.42567 0.0
H1060 H 0.11811 0.07912 0.68612 0.0
H1061 H 0.08765 0.08155 0.65375 0.0
H1062 H 0.14085 0.08447 0.6067 0.0
H1063 H 0.17156 0.08278 0.63903 0.0
Tb1064 Tb 0.32044 0.78173 0.79421 0.0
Eu1065 Eu 0.33933 0.83279 0.78207 0.0
C1066 C 0.32296 0.822 0.83189 0.0
C1067 C 0.28232 0.80925 0.76774 0.0
C1068 C 0.31475 0.7209 0.79206 0.0
C1069 C 0.3079 0.6807 0.78048 0.0
C1070 C 0.30113 0.69899 0.79206 0.0
C1071 C 0.3353 0.72439 0.78072 0.0
C1072 C 0.34184 0.70627 0.7689 0.0
C1073 C 0.32808 0.68435 0.76852 0.0
C1074 C 0.30632 0.74061 0.80126 0.0
O1075 O 0.33681 0.77821 0.76221 0.0
O1076 O 0.33201 0.81192 0.74795 0.0
O1077 O 0.37397 0.82174 0.79815 0.0
O1078 O 0.35855 0.78724 0.81086 0.0
C1079 C 0.33434 0.79077 0.74456 0.0
O1080 O 0.33376 0.86726 0.77835 0.0
O1081 O 0.36723 0.8584 0.77073 0.0
O1082 O 0.33766 0.83502 0.82037 0.0
O1083 O 0.31049 0.8024 0.82237 0.0
O1084 O 0.28841 0.78964 0.77281 0.0
O1085 O 0.29823 0.82837 0.77301 0.0
C1086 C 0.37708 0.80395 0.80993 0.0
O1087 O 0.32187 0.75473 0.81569 0.0
O1088 O 0.2958 0.75119 0.78545 0.0
C1089 C 0.36806 0.89396 0.79056 0.0
C1090 C 0.37462 0.92914 0.82568 0.0
C1091 C 0.37005 0.93357 0.80221 0.0
C1092 C 0.36669 0.91604 0.78478 0.0
C1093 C 0.37553 0.89002 0.81359 0.0
C1094 C 0.37885 0.90754 0.83107 0.0
C1095 C 0.35568 0.87482 0.77444 0.0
H1096 H 0.29711 0.66383 0.78038 0.0
H1097 H 0.28506 0.69615 0.80051 0.0
H1098 H 0.34601 0.74125 0.78058 0.0
H1099 H 0.35767 0.70935 0.76009 0.0
H1100 H 0.36645 0.94993 0.7974 0.0
H1101 H 0.36069 0.91928 0.76713 0.0
H1102 H 0.37653 0.87296 0.81836 0.0
H1103 H 0.38265 0.90369 0.84894 0.0
Tb1104 Tb 0.58151 0.04586 0.06067 0.0
Eu1105 Eu 0.55413 0.05761 1.01386 0.0
C1106 C 0.57578 1.00905 1.01591 0.0
C1107 C 0.60913 0.0788 0.02822 0.0
C1108 C 0.61043 0.05214 0.12049 0.0
C1109 C 0.61677 0.08996 0.1398 0.0
C1110 C 0.61504 0.07587 0.11959 0.0
C1111 C 0.60973 0.04271 0.14191 0.0
C1112 C 0.61131 0.05673 0.16208 0.0
C1113 C 0.61361 0.08044 0.16107 0.0
C1114 C 0.60089 0.03746 0.09942 0.0
O1115 O 0.57131 0.07968 0.07143 0.0
O1116 O 0.55726 0.09153 0.03646 0.0
O1117 O 0.5274 0.04896 0.03865 0.0
O1118 O 0.54655 0.02311 0.05473 0.0
C1119 C 0.56381 0.09598 0.05917 0.0
O1120 O 0.55069 0.07388 0.98121 0.0
O1121 O 0.52022 0.05132 0.99121 0.0
O1122 O 0.55967 0.02022 1.00602 0.0
O1123 O 0.58892 0.01845 0.03569 0.0
O1124 O 0.60608 0.07389 0.04943 0.0
O1125 O 0.59319 0.06978 1.01064 0.0
C1126 C 0.52655 0.02999 0.04868 0.0
O1127 O 0.57782 0.03561 0.094 0.0
O1128 O 0.61244 0.04081 0.08144 0.0
C1129 C 0.52596 0.04866 0.95178 0.0
C1130 C 0.52691 0.01952 0.91248 0.0
C1131 C 0.51092 1.01287 0.92852 0.0
C1132 C 0.51042 0.02731 0.94799 0.0
C1133 C 0.54042 0.05603 0.93477 0.0
C1134 C 0.54104 0.04159 0.91545 0.0
C1135 C 0.52929 0.06195 0.97439 0.0
H1136 H 0.61893 0.10815 0.13851 0.0
H1137 H 0.61546 0.08343 0.10309 0.0
H1138 H 0.60588 0.02442 0.14282 0.0
H1139 H 0.60852 0.04874 0.17806 0.0
H1140 H 0.4995 0.99618 0.92655 0.0
H1141 H 0.49871 0.02125 0.96061 0.0
H1142 H 0.55238 0.07245 0.93706 0.0
H1143 H 0.55386 0.0473 0.9037 0.0
Tb1144 Tb 0.34499 0.31734 0.30352 0.0
Eu1145 Eu 0.31984 0.27143 0.27705 0.0
C1146 C 0.34166 0.27275 0.33303 0.0
C1147 C 0.37668 0.29394 0.26935 0.0
C1148 C 0.34369 0.37099 0.33239 0.0
C1149 C 0.30491 0.37236 0.34485 0.0
C1150 C 0.32531 0.36271 0.34561 0.0
C1151 C 0.34273 0.391 0.32107 0.0
C1152 C 0.32232 0.40075 0.32043 0.0
C1153 C 0.30271 0.39058 0.33114 0.0
C1154 C 0.35948 0.35584 0.32508 0.0
O1155 O 0.3293 0.32881 0.26943 0.0
O1156 O 0.32103 0.29545 0.24706 0.0
O1157 O 0.28717 0.28237 0.29165 0.0
O1158 O 0.30855 0.31183 0.31618 0.0
C1159 C 0.32428 0.3179 0.24839 0.0
O1160 O 0.29709 0.24895 0.2489 0.0
O1161 O 0.31596 0.23488 0.27733 0.0
O1162 O 0.32536 0.26294 0.31576 0.0
O1163 O 0.35503 0.29261 0.32944 0.0
O1164 O 0.37555 0.3109 0.28457 0.0
O1165 O 0.35828 0.27649 0.26571 0.0
C1166 C 0.28791 0.29756 0.30925 0.0
O1167 O 0.35858 0.33683 0.335 0.0
O1168 O 0.35843 0.35233 0.30278 0.0
C1169 C 0.31566 0.21731 0.24119 0.0
C1170 C 0.35597 0.19986 0.23161 0.0
C1171 C 0.35086 0.21942 0.22131 0.0
C1172 C 0.33103 0.22836 0.22642 0.0
C1173 C 0.31806 0.19549 0.2474 0.0
C1174 C 0.33822 0.18687 0.24283 0.0
C1175 C 0.30412 0.23085 0.25659 0.0
H1176 H 0.29014 0.36464 0.35367 0.0
H1177 H 0.32557 0.34747 0.35477 0.0
H1178 H 0.35665 0.39773 0.31078 0.0
H1179 H 0.32103 0.41493 0.30986 0.0
H1180 H 0.36363 0.22922 0.21167 0.0
H1181 H 0.3295 0.24517 0.22121 0.0
H1182 H 0.30636 0.18664 0.25876 0.0
H1183 H 0.3413 0.17158 0.25083 0.0
Tb1184 Tb 0.58194 0.53819 1.0156 0.0
Eu1185 Eu 0.58422 0.56273 0.06453 0.0
C1186 C 0.6335 0.56626 0.03851 0.0
C1187 C 0.58622 0.5069 0.0609 0.0
C1188 C 0.55693 0.5213 0.95531 0.0
C1189 C 0.52408 0.50338 0.92618 0.0
C1190 C 0.54281 0.50168 0.94329 0.0
C1191 C 0.55222 0.54272 0.9498 0.0
C1192 C 0.53364 0.54444 0.9326 0.0
C1193 C 0.5192 0.52479 0.92073 0.0
C1194 C 0.5748 0.51917 0.97502 0.0
O1195 O 0.54333 0.5355 0.0208 0.0
O1196 O 0.54736 0.53902 0.06005 0.0
O1197 O 0.57502 0.59104 0.0404 0.0
O1198 O 0.5819 0.57461 1.00632 0.0
C1199 C 0.53389 0.53161 0.0403 0.0
O1200 O 0.56896 0.57732 0.09343 0.0
O1201 O 0.60731 0.57958 0.09482 0.0
O1202 O 0.62212 0.57427 0.05453 0.0
O1203 O 0.6217 0.54934 0.02364 0.0
O1204 O 0.58625 0.50881 0.03811 0.0
O1205 O 0.58677 0.52571 0.07426 0.0
C1206 C 0.57824 0.59298 0.01824 0.0
O1207 O 0.59126 0.53705 0.98173 0.0
O1208 O 0.56603 0.50986 0.99259 0.0
C1209 C 0.59231 0.57649 0.12994 0.0
C1210 C 0.61196 0.56558 0.17351 0.0
C1211 C 0.6099 0.58813 0.1696 0.0
C1212 C 0.6002 0.59353 0.14794 0.0
C1213 C 0.59242 0.55371 0.1343 0.0
C1214 C 0.60217 0.54829 0.15597 0.0
C1215 C 0.58983 0.58314 0.10607 0.0
H1216 H 0.51313 0.48789 0.91757 0.0
H1217 H 0.5459 0.48499 0.94753 0.0
H1218 H 0.56264 0.55817 0.95899 0.0
H1219 H 0.53065 0.5612 0.92857 0.0
H1220 H 0.61744 0.60187 0.18266 0.0
H1221 H 0.60059 0.61123 0.14474 0.0
H1222 H 0.5866 0.54036 0.1205 0.0
H1223 H 0.60317 0.53072 0.1586 0.0
Tb1224 Tb 0.82594 0.27513 0.29126 0.0
Eu1225 Eu 0.84586 0.32617 0.2803 0.0
C1226 C 0.82497 0.31452 0.32896 0.0
C1227 C 0.78839 0.30449 0.267 0.0
C1228 C 0.82786 0.21628 0.28836 0.0
C1229 C 0.83027 0.18543 0.26072 0.0
C1230 C 0.81661 0.19843 0.27205 0.0
C1231 C 0.85296 0.2204 0.2938 0.0
C1232 C 0.86657 0.20733 0.28261 0.0
C1233 C 0.85539 0.19006 0.26564 0.0
C1234 C 0.81429 0.23337 0.29557 0.0
O1235 O 0.84363 0.27248 0.25986 0.0
O1236 O 0.84015 0.30648 0.24573 0.0
O1237 O 0.87988 0.31175 0.29101 0.0
O1238 O 0.863 0.28207 0.31033 0.0
C1239 C 0.84166 0.28515 0.24222 0.0
O1240 O 0.84388 0.35682 0.26208 0.0
O1241 O 0.87451 0.35611 0.2871 0.0
O1242 O 0.83901 0.32845 0.31754 0.0
O1243 O 0.81458 0.29404 0.31985 0.0
O1244 O 0.7936 0.28452 0.27199 0.0
O1245 O 0.80494 0.3232 0.2721 0.0
C1246 C 0.88231 0.29633 0.30612 0.0
O1247 O 0.82466 0.2479 0.31277 0.0
O1248 O 0.80515 0.24345 0.27844 0.0
C1249 C 0.85739 0.38819 0.28876 0.0
C1250 C 0.8487 0.42361 0.31793 0.0
C1251 C 0.86834 0.42716 0.30517 0.0
C1252 C 0.87271 0.40946 0.29069 0.0
C1253 C 0.83793 0.38463 0.30156 0.0
C1254 C 0.83356 0.40217 0.31591 0.0
C1255 C 0.86233 0.36884 0.27519 0.0
H1256 H 0.82123 0.17184 0.24802 0.0
H1257 H 0.79736 0.19524 0.26729 0.0
H1258 H 0.86223 0.23437 0.30593 0.0
H1259 H 0.8859 0.21116 0.28673 0.0
H1260 H 0.88032 0.44354 0.30649 0.0
H1261 H 0.88806 0.41228 0.2812 0.0
H1262 H 0.82607 0.36819 0.30049 0.0
H1263 H 0.818 0.39901 0.32509 0.0
Tb1264 Tb 0.08812 0.53848 0.56134 0.0
Eu1265 Eu 0.06031 0.55111 0.51447 0.0
C1266 C 0.08134 0.50254 0.51589 0.0
C1267 C 0.11509 0.57444 0.53072 0.0
C1268 C 0.11823 0.54473 0.62044 0.0
C1269 C 0.12396 0.58284 0.63889 0.0
C1270 C 0.12292 0.56841 0.61908 0.0
C1271 C 0.11713 0.53574 0.64207 0.0
C1272 C 0.11806 0.55014 0.66186 0.0
C1273 C 0.12003 0.57372 0.66019 0.0
C1274 C 0.10847 0.52984 0.59955 0.0
O1275 O 0.07671 0.57137 0.57276 0.0
O1276 O 0.06388 0.5844 0.53799 0.0
O1277 O 0.0321 0.53649 0.53586 0.0
O1278 O 0.05395 0.51439 0.55599 0.0
C1279 C 0.06969 0.58805 0.56082 0.0
O1280 O 0.05895 0.55749 0.47787 0.0
O1281 O 1.02758 0.5578 0.49516 0.0
O1282 O 0.06479 0.51353 0.50662 0.0
O1283 O 0.09523 0.51202 0.53523 0.0
O1284 O 0.11289 0.56717 0.55132 0.0
O1285 O 0.09881 0.56711 0.51293 0.0
C1286 C 0.03321 0.51864 0.54749 0.0
O1287 O 0.08531 0.52772 0.59462 0.0
O1288 O 0.11951 0.53332 0.58127 0.0
C1289 C 1.02193 0.54216 0.45647 0.0
C1290 C 1.00547 0.50927 0.41902 0.0
C1291 C 1.00327 0.50354 0.44192 0.0
C1292 C 1.01187 0.51976 0.46048 0.0
C1293 C 1.02169 0.54857 0.43375 0.0
C1294 C 1.01363 0.53232 0.41518 0.0
C1295 C 0.03609 0.55773 0.47537 0.0
H1296 H 0.12588 0.60097 0.63717 0.0
H1297 H 0.12365 0.57566 0.60245 0.0
H1298 H 0.11325 0.5175 0.64334 0.0
H1299 H 0.11481 0.54252 0.67794 0.0
H1300 H 0.99663 0.48618 0.44565 0.0
H1301 H 1.01219 0.51441 0.47793 0.0
H1302 H 0.02952 0.56576 0.43034 0.0
H1303 H 1.01605 0.53765 0.398 0.0
Tb1304 Tb 0.80971 0.79523 0.2866 0.0
Eu1305 Eu 0.8619 0.78854 0.30765 0.0
C1306 C 0.85532 0.82799 0.27367 0.0
C1307 C 0.8397 0.77015 0.2525 0.0
C1308 C 0.74677 0.79125 0.28826 0.0
C1309 C 0.70457 0.78559 0.29242 0.0
C1310 C 0.72338 0.79284 0.27957 0.0
C1311 C 0.75126 0.7824 0.30985 0.0
C1312 C 0.73258 0.77528 0.32271 0.0
C1313 C 0.70901 0.77672 0.31413 0.0
C1314 C 0.76674 0.79811 0.27497 0.0
O1315 O 0.80561 0.76104 0.29776 0.0
O1316 O 0.83618 0.76643 0.3271 0.0
O1317 O 0.85275 0.81404 0.33492 0.0
O1318 O 0.81231 0.80726 0.32444 0.0
C1319 C 0.81513 0.75558 0.31761 0.0
O1320 O 0.88808 0.76655 0.31436 0.0
O1321 O 0.89698 0.80222 0.32664 0.0
O1322 O 0.86934 0.81477 0.28227 0.0
O1323 O 0.83258 0.82504 0.27648 0.0
O1324 O 0.8227 0.78232 0.25446 0.0
O1325 O 0.85454 0.7681 0.27136 0.0
C1326 C 0.83123 0.81631 0.33976 0.0
O1327 O 0.78303 0.81512 0.28463 0.0
O1328 O 0.77625 0.78143 0.26764 0.0
C1329 C 0.92662 0.78757 0.31008 0.0
C1330 C 0.9613 0.80365 0.2814 0.0
C1331 C 0.94385 0.78414 0.27415 0.0
C1332 C 0.92651 0.77623 0.28831 0.0
C1333 C 0.94534 0.80592 0.31805 0.0
C1334 C 0.96242 0.81405 0.30372 0.0
C1335 C 0.9052 0.78378 0.32222 0.0
H1336 H 0.68652 0.78658 0.2852 0.0
H1337 H 0.71964 0.79947 0.26285 0.0
H1338 H 0.76924 0.78089 0.31674 0.0
H1339 H 0.73664 0.76878 0.33944 0.0
H1340 H 0.94267 0.7759 0.25694 0.0
H1341 H 0.91221 0.76216 0.28155 0.0
H1342 H 0.94575 0.81498 0.33472 0.0
H1343 H 0.97593 0.82901 0.30969 0.0
Tb1344 Tb 0.82573 0.33836 0.80116 0.0
Eu1345 Eu 0.79689 0.28791 0.77781 0.0
C1346 C 0.77293 0.33155 0.78025 0.0
C1347 C 0.8005 0.30076 0.8326 0.0
C1348 C 0.8691 0.39458 0.82034 0.0
C1349 C 0.88676 0.43406 0.83158 0.0
C1350 C 0.86698 0.41631 0.82863 0.0
C1351 C 0.89121 0.39093 0.81418 0.0
C1352 C 0.91113 0.40885 0.81702 0.0
C1353 C 0.90916 0.43044 0.82628 0.0
C1354 C 0.84849 0.37598 0.82062 0.0
O1355 O 0.85158 0.31797 0.79255 0.0
O1356 O 0.83035 0.28362 0.79975 0.0
O1357 O 0.81769 0.30406 0.75002 0.0
O1358 O 0.82374 0.34174 0.7637 0.0
C1359 C 0.85084 0.29748 0.79967 0.0
O1360 O 0.79615 0.25358 0.76261 0.0
O1361 O 0.76302 0.26597 0.76451 0.0
O1362 O 0.77606 0.3144 0.76699 0.0
O1363 O 0.78792 0.33957 0.79879 0.0
O1364 O 0.81752 0.31834 0.8306 0.0
O1365 O 0.78724 0.28919 0.81434 0.0
C1366 C 0.82277 0.32594 0.74681 0.0
O1367 O 0.83065 0.37413 0.80413 0.0
O1368 O 0.85291 0.35627 0.82611 0.0
C1369 C 0.76118 0.22674 0.76682 0.0
C1370 C 0.7349 0.18534 0.77861 0.0
C1371 C 0.74347 0.18702 0.75693 0.0
C1372 C 0.75642 0.20756 0.75109 0.0
C1373 C 0.75334 0.22507 0.78875 0.0
C1374 C 0.74027 0.20453 0.7946 0.0
C1375 C 0.77275 0.24863 0.7594 0.0
H1376 H 0.8846 0.45064 0.83829 0.0
H1377 H 0.85009 0.41944 0.83349 0.0
H1378 H 0.8932 0.37419 0.8078 0.0
H1379 H 0.92819 0.40567 0.81271 0.0
H1380 H 0.74016 0.17244 0.74443 0.0
H1381 H 0.76237 0.20856 0.73411 0.0
H1382 H 0.75685 0.23978 0.80113 0.0
H1383 H 0.73388 0.20383 0.81139 0.0
Tb1384 Tb 0.84364 0.81849 0.80682 0.0
Eu1385 Eu 0.81815 0.77274 0.78007 0.0
C1386 C 0.8402 0.77385 0.83642 0.0
C1387 C 0.87525 0.79393 0.77303 0.0
C1388 C 0.85789 0.87957 0.81527 0.0
C1389 C 0.84245 0.89498 0.78015 0.0
C1390 C 0.85645 0.88092 0.79111 0.0
C1391 C 0.84867 0.89526 0.82854 0.0
C1392 C 0.83473 0.9094 0.81757 0.0
C1393 C 0.82993 0.90787 0.79326 0.0
C1394 C 0.86098 0.85806 0.82514 0.0
O1395 O 0.82918 0.83015 0.77229 0.0
O1396 O 0.82053 0.7967 0.7501 0.0
O1397 O 0.78564 0.78412 0.79487 0.0
O1398 O 0.80768 0.81207 0.82072 0.0
C1399 C 0.82418 0.81913 0.7513 0.0
O1400 O 0.79487 0.75113 0.75166 0.0
O1401 O 0.81378 0.73603 0.77927 0.0
O1402 O 0.82525 0.76336 0.81838 0.0
O1403 O 0.85223 0.79465 0.83407 0.0
O1404 O 0.87429 0.81063 0.7886 0.0
O1405 O 0.85628 0.77724 0.7683 0.0
C1406 C 0.78662 0.79867 0.81311 0.0
O1407 O 0.84103 0.84591 0.82957 0.0
O1408 O 0.87332 0.84559 0.81454 0.0
C1409 C 0.81477 0.72095 0.74232 0.0
C1410 C 0.85644 0.70574 0.73306 0.0
C1411 C 0.85157 0.72613 0.72459 0.0
C1412 C 0.83092 0.73383 0.72937 0.0
C1413 C 0.81739 0.69873 0.74672 0.0
C1414 C 0.83819 0.69118 0.74225 0.0
C1415 C 0.80233 0.73287 0.75833 0.0
H1416 H 0.83932 0.8939 0.76138 0.0
H1417 H 0.86362 0.86917 0.78043 0.0
H1418 H 0.84955 0.8945 0.84717 0.0
H1419 H 0.82529 0.91927 0.82806 0.0
H1420 H 0.86498 0.73726 0.71669 0.0
H1421 H 0.82928 0.75102 0.72561 0.0
H1422 H 0.80519 0.68852 0.75672 0.0
H1423 H 0.84122 0.67525 0.74884 0.0
Tb1424 Tb 0.55491 0.55902 0.53578 0.0
Eu1425 Eu 0.61084 0.57098 0.56212 0.0
C1426 C 0.59716 0.55564 0.50824 0.0
C1427 C 0.58115 0.52052 0.55265 0.0
C1428 C 0.49527 0.57098 0.52027 0.0
C1429 C 0.48615 0.60833 0.51345 0.0
C1430 C 0.50036 0.59206 0.51058 0.0
C1431 C 0.47552 0.56645 0.53269 0.0
C1432 C 0.4614 0.58281 0.53572 0.0
C1433 C 0.46667 0.60402 0.52627 0.0
C1434 C 0.51159 0.55458 0.51944 0.0
O1435 O 0.55643 0.57854 0.5683 0.0
O1436 O 0.58547 0.56404 0.5887 0.0
O1437 O 0.60011 0.6051 0.55908 0.0
O1438 O 0.57079 0.59298 0.5279 0.0
C1439 C 0.56548 0.57175 0.58773 0.0
O1440 O 0.63643 0.56719 0.59188 0.0
O1441 O 0.64925 0.58321 0.56214 0.0
O1442 O 0.61078 0.57061 0.52363 0.0
O1443 O 0.57568 0.5453 0.51153 0.0
O1444 O 0.56113 0.52835 0.55194 0.0
O1445 O 0.60166 0.53383 0.55115 0.0
C1446 C 0.58528 0.60917 0.54147 0.0
O1447 O 0.52922 0.55944 0.50705 0.0
O1448 O 0.51869 0.54747 0.53941 0.0
C1449 C 0.66967 0.55586 0.57834 0.0
C1450 C 0.6943 0.51935 0.57542 0.0
C1451 C 0.7016 0.53679 0.59334 0.0
C1452 C 0.68922 0.55483 0.59489 0.0
C1453 C 0.66278 0.53875 0.56015 0.0
C1454 C 0.67487 0.52064 0.55876 0.0
C1455 C 0.65489 0.57331 0.58089 0.0
H1456 H 0.49035 0.62426 0.5055 0.0
H1457 H 0.51555 0.59618 0.50104 0.0
H1458 H 0.47136 0.55044 0.54055 0.0
H1459 H 0.44665 0.57902 0.54586 0.0
H1460 H 0.71651 0.53618 0.60641 0.0
H1461 H 0.69465 0.56773 0.60918 0.0
H1462 H 0.64777 0.5392 0.54714 0.0
H1463 H 0.66908 0.5077 0.54455 0.0
Tb1464 Tb 0.07014 0.53054 0.02563 0.0
Eu1465 Eu 0.10406 0.57123 0.05764 0.0
C1466 C 0.07818 0.52837 0.07876 0.0
C1467 C 0.04591 0.57282 0.04356 0.0
C1468 C 0.04839 0.47754 0.98797 0.0
C1469 C 0.0745 0.45061 0.98278 0.0
C1470 C 0.06916 0.46917 0.99518 0.0
C1471 C 0.0327 0.46687 0.96871 0.0
C1472 C 0.03797 0.44829 0.95634 0.0
C1473 C 0.05911 0.4402 0.96304 0.0
C1474 C 0.04493 0.49937 0.9979 0.0
O1475 O 0.07531 0.56009 1.00571 0.0
O1476 O 0.11253 0.57758 0.0217 0.0
O1477 O 0.12871 0.54455 0.05427 0.0
O1478 O 0.1064 0.5206 0.02459 0.0
C1479 C 0.09534 0.57415 1.00443 0.0
O1480 O 0.12303 0.60637 0.06423 0.0
O1481 O 0.12653 0.58245 0.09054 0.0
O1482 O 0.08026 0.55045 0.07978 0.0
O1483 O 0.07836 0.51726 0.05892 0.0
O1484 O 0.04309 0.55062 0.03723 0.0
O1485 O 0.06811 0.58456 0.04989 0.0
C1486 C 0.12671 0.52672 0.03915 0.0
O1487 O 0.04306 0.50112 0.02005 0.0
O1488 O 0.0594 0.51673 0.99165 0.0
C1489 C 0.12996 0.62116 0.10301 0.0
C1490 C 0.12463 0.65791 0.13263 0.0
C1491 C 0.14488 0.65926 0.12082 0.0
C1492 C 0.1475 0.64102 0.10618 0.0
C1493 C 0.11026 0.61919 0.11551 0.0
C1494 C 0.10769 0.63741 0.13035 0.0
C1495 C 0.13179 0.60353 0.08534 0.0
H1496 H 0.09074 0.44453 0.9885 0.0
H1497 H 0.08159 0.47744 1.0099 0.0
H1498 H 1.01684 0.47344 0.96269 0.0
H1499 H 1.0259 0.44073 0.94108 0.0
H1500 H 0.15805 0.67486 0.12178 0.0
H1501 H 0.16277 0.64278 0.09656 0.0
H1502 H 0.09653 0.60391 0.11325 0.0
H1503 H 0.09203 0.63574 0.13938 0.0
C1504 C 0.04461 0.21895 0.97362 0.0
C1505 C 0.03166 0.21094 0.95187 0.0
C1506 C 0.05162 0.20388 0.98945 0.0
C1507 C 0.04541 0.18026 0.98337 0.0
C1508 C 0.03064 0.17202 0.96228 0.0
C1509 C 1.02394 0.18751 0.94671 0.0
C1510 C 0.06714 0.21335 1.01184 0.0
C1511 C 1.02324 0.14685 0.95546 0.0
C1512 C 0.08504 0.13926 1.00314 0.0
C1513 C 0.07112 0.12694 0.01808 0.0
C1514 C 0.07766 0.15782 0.99279 0.0
C1515 C 0.05603 0.16412 0.99783 0.0
C1516 C 0.04323 0.15302 1.01469 0.0
C1517 C 0.05069 0.13417 0.02432 0.0
C1518 C 0.09192 0.16942 0.97503 0.0
C1519 C 1.02079 0.16003 0.02129 0.0
H1520 H 0.05047 0.23709 0.97784 0.0
H1521 H 1.01385 0.18124 0.92999 0.0
H1522 H 0.06198 0.20322 0.02649 0.0
H1523 H 0.08607 0.21255 1.01011 0.0
H1524 H 0.06609 0.23137 1.01616 0.0
H1525 H 1.01008 0.14321 0.9395 0.0
H1526 H 0.03927 0.13974 0.95236 0.0
H1527 H 1.01525 0.13785 0.9697 0.0
H1528 H 0.10057 0.13322 0.99807 0.0
H1529 H 0.03982 0.12428 0.03569 0.0
H1530 H 0.09506 0.18815 0.97844 0.0
H1531 H 0.08159 0.16516 0.95751 0.0
H1532 H 0.1095 0.16411 0.9749 0.0
H1533 H 1.02354 0.17876 0.02456 0.0
H1534 H 1.01513 0.15202 0.03704 0.0
H1535 H 1.00611 0.15504 1.00674 0.0
C1536 C 0.20288 0.86745 0.18049 0.0
C1537 C 0.18621 0.88125 0.18415 0.0
C1538 C 0.22307 0.86809 0.19685 0.0
C1539 C 0.22671 0.88313 0.21708 0.0
C1540 C 0.21197 0.89945 0.21895 0.0
C1541 C 0.19164 0.89816 0.20257 0.0
C1542 C 0.23883 0.85082 0.1938 0.0
C1543 C 0.21618 0.91669 0.23949 0.0
C1544 C 0.24518 0.85245 0.26895 0.0
C1545 C 0.27017 0.85816 0.27077 0.0
C1546 C 0.23074 0.86201 0.25271 0.0
C1547 C 0.24163 0.87787 0.23804 0.0
C1548 C 0.26677 0.88568 0.24169 0.0
C1549 C 0.28085 0.87562 0.25806 0.0
C1550 C 0.20398 0.85324 0.24966 0.0
C1551 C 0.27915 0.90305 0.22704 0.0
H1552 H 0.199 0.8546 0.16608 0.0
H1553 H 0.17912 0.90929 0.20518 0.0
H1554 H 0.258 0.85912 0.19699 0.0
H1555 H 0.23575 0.83785 0.20662 0.0
H1556 H 0.23513 0.84201 0.17615 0.0
H1557 H 0.20733 0.93133 0.23568 0.0
H1558 H 0.20872 0.90857 0.25444 0.0
H1559 H 0.23564 0.92308 0.24469 0.0
H1560 H 0.23698 0.83897 0.27885 0.0
H1561 H 0.30022 0.87994 0.25929 0.0
H1562 H 0.1984 0.84345 0.23259 0.0
H1563 H 0.19426 0.8676 0.24991 0.0
H1564 H 0.19833 0.842 0.2634 0.0
H1565 H 0.28451 0.89416 0.21192 0.0
H1566 H 0.29569 0.91328 0.23704 0.0
H1567 H 0.26732 0.91469 0.22052 0.0
C1568 C 0.51104 0.81221 0.40602 0.0
C1569 C 0.52281 0.80454 0.38829 0.0
C1570 C 0.51518 0.8352 0.41362 0.0
C1571 C 0.5318 0.8509 0.40344 0.0
C1572 C 0.54298 0.84343 0.38477 0.0
C1573 C 0.53818 0.8202 0.37724 0.0
C1574 C 0.50249 0.84249 0.43325 0.0
C1575 C 0.56086 0.85973 0.37361 0.0
C1576 C 0.52707 0.91149 0.41962 0.0
C1577 C 0.5433 0.91637 0.44005 0.0
C1578 C 0.52435 0.8908 0.40637 0.0
C1579 C 0.53831 0.8747 0.41368 0.0
C1580 C 0.55597 0.88023 0.43329 0.0
C1581 C 0.55819 0.90098 0.44632 0.0
C1582 C 0.50539 0.88556 0.38553 0.0
C1583 C 0.57135 0.86355 0.44152 0.0
H1584 H 0.49887 0.80004 0.4143 0.0
H1585 H 0.5473 0.81415 0.36356 0.0
H1586 H 0.51575 0.84872 0.44874 0.0
H1587 H 0.49344 0.85671 0.42836 0.0
H1588 H 0.48891 0.82838 0.43812 0.0
H1589 H 0.56559 0.85187 0.35752 0.0
H1590 H 0.55373 0.87522 0.36939 0.0
H1591 H 0.57747 0.8652 0.38596 0.0
H1592 H 0.51598 0.92361 0.41432 0.0
H1593 H 0.57075 0.90461 0.46207 0.0
H1594 H 0.48997 0.87304 0.38982 0.0
H1595 H 0.5124 0.87782 0.3707 0.0
H1596 H 0.49877 0.90099 0.38005 0.0
H1597 H 0.56021 0.84934 0.4491 0.0
H1598 H 0.58641 0.87159 0.45489 0.0
H1599 H 0.57878 0.85616 0.42677 0.0
C1600 C 0.51057 0.33174 0.66199 0.0
C1601 C 0.53379 0.34453 0.66815 0.0
C1602 C 0.49501 0.32713 0.67878 0.0
C1603 C 0.50314 0.33518 0.70212 0.0
C1604 C 0.5253 0.35036 0.70782 0.0
C1605 C 0.54022 0.35515 0.69064 0.0
C1606 C 0.47078 0.31202 0.67197 0.0
C1607 C 0.53437 0.35964 0.7325 0.0
C1608 C 0.46387 0.32658 0.75017 0.0
C1609 C 0.4693 0.30638 0.75847 0.0
C1610 C 0.47431 0.33604 0.73142 0.0
C1611 C 0.49061 0.32499 0.72099 0.0
C1612 C 0.49613 0.30453 0.7294 0.0
C1613 C 0.48512 0.29531 0.74794 0.0
C1614 C 0.46742 0.35748 0.72263 0.0
C1615 C 0.51398 0.29261 0.71911 0.0
H1616 H 0.50517 0.32394 0.64452 0.0
H1617 H 0.55785 0.36564 0.69547 0.0
H1618 H 0.47128 0.29473 0.67767 0.0
H1619 H 0.45692 0.31865 0.68064 0.0
H1620 H 0.46543 0.31061 0.65291 0.0
H1621 H 0.55085 0.37295 0.73363 0.0
H1622 H 0.52046 0.36697 0.74036 0.0
H1623 H 0.53847 0.34558 0.74301 0.0
H1624 H 0.45112 0.33477 0.75812 0.0
H1625 H 0.48908 0.27961 0.75444 0.0
H1626 H 0.45321 0.3528 0.7076 0.0
H1627 H 0.48273 0.36886 0.71667 0.0
H1628 H 0.46034 0.36711 0.73617 0.0
H1629 H 0.50786 0.28761 0.70047 0.0
H1630 H 0.51657 0.27713 0.728 0.0
H1631 H 0.53157 0.30434 0.7203 0.0
C1632 C 0.06544 0.871 0.61167 0.0
C1633 C 0.0768 0.87032 0.6346 0.0
C1634 C 0.06659 0.89181 0.59962 0.0
C1635 C 0.08036 0.91344 0.60969 0.0
C1636 C 0.09246 0.91249 0.6325 0.0
C1637 C 0.09005 0.89182 0.6444 0.0
C1638 C 0.05244 0.89018 0.57592 0.0
C1639 C 0.10845 0.93343 0.64499 0.0
C1640 C 0.09658 0.96315 0.56701 0.0
C1641 C 0.08649 0.9815 0.57524 0.0
C1642 C 0.09501 0.94168 0.57776 0.0
C1643 C 0.08192 0.93676 0.59717 0.0
C1644 C 0.07106 0.95508 0.60499 0.0
C1645 C 0.07389 0.97667 0.59459 0.0
C1646 C 0.10786 0.92432 0.56799 0.0
C1647 C 0.05582 0.95229 0.62447 0.0
H1648 H 0.05487 0.85529 0.60315 0.0
H1649 H 0.09916 0.89268 0.66189 0.0
H1650 H 0.04824 0.90677 0.57101 0.0
H1651 H 0.06295 0.88396 0.56296 0.0
H1652 H 0.03539 0.87767 0.57508 0.0
H1653 H 0.12353 0.92883 0.65637 0.0
H1654 H 0.116 0.94566 0.63285 0.0
H1655 H 0.09794 0.94201 0.65627 0.0
H1656 H 0.10637 0.96566 0.55221 0.0
H1657 H 0.06545 0.98984 0.60155 0.0
H1658 H 0.09562 0.91351 0.5539 0.0
H1659 H 0.11365 0.91321 0.58133 0.0
H1660 H 0.12385 0.93268 0.56037 0.0
H1661 H 0.04923 0.93422 0.6274 0.0
H1662 H 0.0401 0.9606 0.62086 0.0
H1663 H 0.06647 0.96097 0.64066 0.0
C1664 C 0.51646 0.79361 0.86438 0.0
C1665 C 0.52263 0.80138 0.88805 0.0
C1666 C 0.49349 0.79411 0.85161 0.0
C1667 C 0.47502 0.80202 0.8624 0.0
C1668 C 0.48105 0.80948 0.88644 0.0
C1669 C 0.50421 0.80895 0.89872 0.0
C1670 C 0.48893 0.78593 0.82632 0.0
C1671 C 0.46279 0.81804 0.89942 0.0
C1672 C 0.42143 0.82183 0.82485 0.0
C1673 C 0.40216 0.80308 0.82307 0.0
C1674 C 0.44449 0.82177 0.83745 0.0
C1675 C 0.44969 0.80234 0.84881 0.0
C1676 C 0.43026 0.7833 0.8471 0.0
C1677 C 0.40718 0.7839 0.83458 0.0
C1678 C 0.46354 0.84272 0.83819 0.0
C1679 C 0.43377 0.7621 0.85876 0.0
H1680 H 0.5296 0.78671 0.85575 0.0
H1681 H 0.50796 0.81464 0.91696 0.0
H1682 H 0.47384 0.77114 0.82342 0.0
H1683 H 0.48361 0.79953 0.81581 0.0
H1684 H 0.5049 0.78086 0.81999 0.0
H1685 H 0.46969 0.82311 0.91793 0.0
H1686 H 0.45739 0.83291 0.8912 0.0
H1687 H 0.44644 0.80464 0.8985 0.0
H1688 H 0.41848 0.83696 0.81645 0.0
H1689 H 0.39295 0.76912 0.83385 0.0
H1690 H 0.4769 0.83908 0.82695 0.0
H1691 H 0.47278 0.84724 0.85609 0.0
H1692 H 0.45627 0.85755 0.83188 0.0
H1693 H 0.44848 0.7552 0.85189 0.0
H1694 H 0.4173 0.74869 0.85616 0.0
H1695 H 0.43914 0.76627 0.87765 0.0
C1696 C 0.56954 0.23455 0.10452 0.0
C1697 C 0.55961 0.23787 0.12539 0.0
C1698 C 0.57042 0.2123 0.09396 0.0
C1699 C 0.56054 0.19144 0.10356 0.0
C1700 C 0.54988 0.19485 0.12432 0.0
C1701 C 0.55017 0.21729 0.13493 0.0
C1702 C 0.58283 0.21175 0.07256 0.0
C1703 C 0.53786 0.17483 0.13604 0.0
C1704 C 0.54779 0.13451 0.06105 0.0
C1705 C 0.56276 0.12014 0.07102 0.0
C1706 C 0.54653 0.15668 0.0714 0.0
C1707 C 0.56141 0.16666 0.0923 0.0
C1708 C 0.57687 0.15232 0.10231 0.0
C1709 C 0.57698 0.12974 0.0921 0.0
C1710 C 0.52854 0.16927 0.05986 0.0
C1711 C 0.59377 0.16072 0.12408 0.0
H1712 H 0.57766 0.24956 0.09665 0.0
H1713 H 0.54264 0.21863 0.15107 0.0
H1714 H 0.58788 0.19512 0.06864 0.0
H1715 H 0.5708 0.21557 0.05753 0.0
H1716 H 0.59925 0.2252 0.0745 0.0
H1717 H 0.52126 0.17846 0.14233 0.0
H1718 H 0.53315 0.15894 0.12452 0.0
H1719 H 0.55001 0.17207 0.15147 0.0
H1720 H 0.53638 0.12818 0.04501 0.0
H1721 H 0.58889 0.11971 0.10059 0.0
H1722 H 0.53791 0.18303 0.05034 0.0
H1723 H 0.51938 0.17711 0.07303 0.0
H1724 H 0.5148 0.15796 0.04729 0.0
H1725 H 0.60064 0.17931 0.12457 0.0
H1726 H 0.60922 0.15184 0.12573 0.0
H1727 H 0.58409 0.15725 0.13932 0.0
C1728 C 0.17239 0.28581 0.39051 0.0
C1729 C 0.15759 0.30196 0.3854 0.0
C1730 C 0.19351 0.28455 0.37919 0.0
C1731 C 0.20089 0.29958 0.36176 0.0
C1732 C 0.18616 0.31594 0.35688 0.0
C1733 C 0.16545 0.31689 0.36838 0.0
C1734 C 0.20799 0.26679 0.38585 0.0
C1735 C 0.19205 0.33257 0.3389 0.0
C1736 C 0.26681 0.31163 0.3435 0.0
C1737 C 0.26541 0.29818 0.32241 0.0
C1738 C 0.24671 0.31191 0.35633 0.0
C1739 C 0.22348 0.29844 0.34856 0.0
C1740 C 0.22192 0.28483 0.32727 0.0
C1741 C 0.24239 0.28475 0.31485 0.0
C1742 C 0.25048 0.32696 0.37848 0.0
C1743 C 0.19825 0.27024 0.31729 0.0
H1744 H 0.16731 0.27377 0.40314 0.0
H1745 H 0.155 0.32964 0.36354 0.0
H1746 H 0.20761 0.25482 0.37059 0.0
H1747 H 0.22699 0.27497 0.39131 0.0
H1748 H 0.20114 0.25697 0.40014 0.0
H1749 H 0.1795 0.34464 0.33706 0.0
H1750 H 0.21053 0.34247 0.34352 0.0
H1751 H 0.19136 0.32317 0.32185 0.0
H1752 H 0.28399 0.32196 0.35036 0.0
H1753 H 0.2402 0.27402 0.29892 0.0
H1754 H 0.24376 0.31704 0.39274 0.0
H1755 H 0.24011 0.34077 0.37621 0.0
H1756 H 0.26964 0.33477 0.38369 0.0
H1757 H 0.19166 0.25832 0.33012 0.0
H1758 H 0.19949 0.26025 0.30103 0.0
H1759 H 0.18474 0.28111 0.31362 0.0
C1760 C 0.99932 0.04463 0.18088 0.0
C1761 C 0.97761 0.02896 0.17617 0.0
C1762 C 1.01401 0.04985 0.16359 0.0
C1763 C 1.0069 0.03899 0.14111 0.0
C1764 C 0.98522 0.02284 0.13629 0.0
C1765 C 0.97071 0.01808 0.15393 0.0
C1766 C 0.03691 0.06733 0.16926 0.0
C1767 C 0.97727 1.01084 0.11247 0.0
C1768 C 0.03124 0.069 0.09095 0.0
C1769 C 0.04974 0.05754 0.08696 0.0
C1770 C 1.01725 0.06322 0.1087 0.0
C1771 C 1.02173 0.04532 0.12245 0.0
C1772 C 0.04057 0.03382 0.11865 0.0
C1773 C 0.05455 0.04024 0.10101 0.0
C1774 C 0.99752 0.07607 0.11252 0.0
C1775 C 0.04559 1.01444 0.13283 0.0
H1776 H 1.00474 0.05313 0.19806 0.0
H1777 H 0.95399 1.00588 0.1503 0.0
H1778 H 0.05243 0.05987 0.1652 0.0
H1779 H 0.03618 0.08192 0.15839 0.0
H1780 H 0.0401 0.07382 0.18778 0.0
H1781 H 0.96054 0.99795 0.11189 0.0
H1782 H 0.9742 0.02343 0.09969 0.0
H1783 H 0.99154 1.0023 0.10695 0.0
H1784 H 1.02753 0.08236 0.08001 0.0
H1785 H 0.06861 0.03109 0.09764 0.0
H1786 H 1.00025 0.08373 0.13061 0.0
H1787 H 0.97995 0.06421 0.11 0.0
H1788 H 0.9967 0.08982 0.10053 0.0
H1789 H 0.04986 0.0204 0.15145 0.0
H1790 H 0.06072 1.00708 0.12741 0.0
H1791 H 0.0294 1.00077 0.13109 0.0
C1792 C 0.30864 0.72965 0.44296 0.0
C1793 C 0.30133 0.73765 0.46359 0.0
C1794 C 0.30852 0.74203 0.42314 0.0
C1795 C 0.3007 0.76307 0.42359 0.0
C1796 C 0.29378 0.77161 0.44446 0.0
C1797 C 0.2943 0.75886 0.46427 0.0
C1798 C 0.31653 0.73236 0.40155 0.0
C1799 C 0.2854 0.79399 0.4457 0.0
C1800 C 0.32049 0.79978 0.3751 0.0
C1801 C 0.30067 0.79391 0.35776 0.0
C1802 C 0.32028 0.79087 0.39701 0.0
C1803 C 0.29972 0.77572 0.40198 0.0
C1804 C 0.27924 0.77059 0.38499 0.0
C1805 C 0.27997 0.77967 0.36314 0.0
C1806 C 0.34266 0.79667 0.41434 0.0
C1807 C 0.25692 0.75453 0.38946 0.0
H1808 H 0.31444 0.71345 0.4422 0.0
H1809 H 0.28855 0.76519 0.48003 0.0
H1810 H 0.30163 0.72958 0.38708 0.0
H1811 H 0.33154 0.74459 0.39612 0.0
H1812 H 0.3225 0.71596 0.40413 0.0
H1813 H 0.28136 0.79869 0.46331 0.0
H1814 H 0.29928 0.80772 0.44071 0.0
H1815 H 0.26903 0.79303 0.43317 0.0
H1816 H 0.33666 0.81071 0.37132 0.0
H1817 H 0.26452 0.77497 0.35002 0.0
H1818 H 0.35132 0.78161 0.41569 0.0
H1819 H 0.33819 0.80117 0.4318 0.0
H1820 H 0.35582 0.81101 0.40925 0.0
H1821 H 0.26064 0.73706 0.39031 0.0
H1822 H 0.24169 0.7542 0.37567 0.0
H1823 H 0.25151 0.75943 0.4064 0.0
C1824 C 0.63948 0.99899 0.69309 0.0
C1825 C 0.62556 0.98587 0.70759 0.0
C1826 C 0.62986 1.00224 0.67052 0.0
C1827 C 0.60575 0.99218 0.66238 0.0
C1828 C 0.59205 0.97787 0.67647 0.0
C1829 C 0.60215 0.97484 0.69893 0.0
C1830 C 0.6451 0.01744 0.65585 0.0
C1831 C 0.56633 0.9668 0.66834 0.0
C1832 C 0.57631 0.02605 0.61851 0.0
C1833 C 0.57855 1.01455 0.59756 0.0
C1834 C 0.58404 0.01824 0.6398 0.0
C1835 C 0.59432 0.99851 0.6401 0.0
C1836 C 0.59522 0.98601 0.61907 0.0
C1837 C 0.58722 0.99416 0.59798 0.0
C1838 C 0.58249 0.03189 0.66192 0.0
C1839 C 0.60601 0.96487 0.61874 0.0
H1840 H 0.65762 1.00743 0.69965 0.0
H1841 H 0.59131 0.96456 0.71002 0.0
H1842 H 0.64456 1.00885 0.63841 0.0
H1843 H 0.63786 0.03321 0.65339 0.0
H1844 H 0.66408 0.02226 0.66387 0.0
H1845 H 0.55909 0.95408 0.6802 0.0
H1846 H 0.55508 0.98002 0.66733 0.0
H1847 H 0.56464 0.95829 0.6507 0.0
H1848 H 0.56946 0.04174 0.61828 0.0
H1849 H 0.58905 0.98521 0.58184 0.0
H1850 H 0.60081 0.03963 0.67028 0.0
H1851 H 0.57383 0.02067 0.67433 0.0
H1852 H 0.57224 0.04571 0.65877 0.0
H1853 H 0.62569 0.96968 0.62369 0.0
H1854 H 0.60252 0.95553 0.60134 0.0
H1855 H 0.59883 0.95326 0.63156 0.0
C1856 C 0.31599 0.36805 0.97253 0.0
C1857 C 0.31468 0.39143 0.97243 0.0
C1858 C 0.31808 0.35445 0.95187 0.0
C1859 C 0.31914 0.36385 0.92974 0.0
C1860 C 0.31766 0.38733 0.9296 0.0
C1861 C 0.31548 0.40042 0.95033 0.0
C1862 C 0.31944 0.32978 0.95384 0.0
C1863 C 0.31872 0.39899 0.90729 0.0
C1864 C 0.34766 0.33623 0.87901 0.0
C1865 C 0.32786 0.32482 0.86313 0.0
C1866 C 0.34513 0.34839 0.9003 0.0
C1867 C 0.32212 0.34967 0.90701 0.0
C1868 C 0.30205 0.33804 0.89115 0.0
C1869 C 0.30509 0.32609 0.86989 0.0
C1870 C 0.36744 0.36017 0.91569 0.0
C1871 C 0.27701 0.33831 0.89659 0.0
H1872 H 0.31572 0.36029 0.98892 0.0
H1873 H 0.31474 0.41824 0.94911 0.0
H1874 H 0.30517 0.31894 0.94142 0.0
H1875 H 0.33688 0.32673 0.94915 0.0
H1876 H 0.31751 0.3244 0.9716 0.0
H1877 H 0.31706 0.41711 0.9095 0.0
H1878 H 0.33594 0.39816 0.90061 0.0
H1879 H 0.30414 0.39007 0.89393 0.0
H1880 H 0.3655 0.33584 0.87473 0.0
H1881 H 0.28932 0.31763 0.85844 0.0
H1882 H 0.36744 0.35391 0.9333 0.0
H1883 H 0.36768 0.37872 0.91752 0.0
H1884 H 0.38406 0.35742 0.90879 0.0
H1885 H 0.27477 0.33172 0.91383 0.0
H1886 H 0.26315 0.32794 0.88341 0.0
H1887 H 0.27395 0.35605 0.89749 0.0
C1888 C 0.96827 0.05057 0.30113 0.0
C1889 C 0.94833 0.03273 0.29907 0.0
C1890 C 0.98558 0.0538 0.32066 0.0
C1891 C 0.98298 0.03863 0.33838 0.0
C1892 C 0.96192 0.02174 0.33727 0.0
C1893 C 0.94467 0.01909 0.31761 0.0
C1894 C 1.00751 0.07232 0.32143 0.0
C1895 C 0.95851 1.00528 0.35592 0.0
C1896 C 0.03921 0.02409 0.37006 0.0
C1897 C 0.04073 0.03585 0.39175 0.0
C1898 C 1.02073 0.02524 0.3524 0.0
C1899 C 1.00346 0.03863 0.35651 0.0
C1900 C 1.00556 0.05144 0.37795 0.0
C1901 C 1.02413 0.04983 0.39537 0.0
C1902 C 1.01919 1.01148 0.32963 0.0
C1903 C 0.98763 0.06608 0.38284 0.0
H1904 H 0.97096 0.06132 0.28687 0.0
H1905 H 0.92933 1.00528 0.31605 0.0
H1906 H 1.01185 0.08166 0.33879 0.0
H1907 H 1.02311 0.06458 0.31821 0.0
H1908 H 1.00513 0.08467 0.30817 0.0
H1909 H 0.94007 0.99495 0.35385 0.0
H1910 H 0.97137 0.99357 0.3552 0.0
H1911 H 0.96226 1.0145 0.37334 0.0
H1912 H 0.05212 1.01344 0.36713 0.0
H1913 H 1.02493 0.05868 0.41222 0.0
H1914 H 1.01905 0.02273 0.31509 0.0
H1915 H 1.0022 0.99878 0.32675 0.0
H1916 H 0.03436 1.00237 0.32904 0.0
H1917 H 0.98517 0.07736 0.36859 0.0
H1918 H 0.99318 0.07674 0.39943 0.0
H1919 H 0.96997 0.05509 0.38377 0.0
C1920 C 0.33195 0.75659 0.60845 0.0
C1921 C 0.31443 0.73728 0.60062 0.0
C1922 C 0.33674 0.76425 0.63217 0.0
C1923 C 0.32307 0.7529 0.64845 0.0
C1924 C 0.30527 0.73342 0.64054 0.0
C1925 C 0.30151 0.72563 0.61688 0.0
C1926 C 0.3564 0.78461 0.6398 0.0
C1927 C 0.28958 0.72124 0.65693 0.0
C1928 C 0.34368 0.76317 0.71405 0.0
C1929 C 0.33198 0.78077 0.72019 0.0
C1930 C 0.34134 0.75416 0.69077 0.0
C1931 C 0.32621 0.76232 0.67334 0.0
C1932 C 0.31388 0.77965 0.6797 0.0
C1933 C 0.31723 0.78886 0.70282 0.0
C1934 C 0.35531 0.73613 0.68478 0.0
C1935 C 0.29681 0.78831 0.66212 0.0
H1936 H 0.34219 0.76554 0.59606 0.0
H1937 H 0.28787 0.71074 0.61096 0.0
H1938 H 0.34856 0.79902 0.64605 0.0
H1939 H 0.36875 0.78057 0.65448 0.0
H1940 H 0.36692 0.79017 0.62554 0.0
H1941 H 0.2767 0.70626 0.64816 0.0
H1942 H 0.30074 0.71547 0.67145 0.0
H1943 H 0.27934 0.73312 0.66458 0.0
H1944 H 0.35505 0.75677 0.72734 0.0
H1945 H 0.30775 0.80216 0.70744 0.0
H1946 H 0.36664 0.74184 0.67116 0.0
H1947 H 0.34287 0.72025 0.67762 0.0
H1948 H 0.36697 0.73221 0.70006 0.0
H1949 H 0.30667 0.79645 0.64848 0.0
H1950 H 0.28755 0.80089 0.67008 0.0
H1951 H 0.28308 0.77391 0.65346 0.0
C1952 C 0.59267 0.95695 0.82459 0.0
C1953 C 0.61554 0.9681 0.83485 0.0
C1954 C 0.57264 0.95655 0.83645 0.0
C1955 C 0.57564 0.96821 0.8586 0.0
C1956 C 0.59905 0.97655 0.87021 0.0
C1957 C 0.61879 0.97604 0.85825 0.0
C1958 C 0.54822 0.94565 0.82421 0.0
C1959 C 0.60321 0.98871 0.89413 0.0
C1960 C 0.53837 1.01059 0.8735 0.0
C1961 C 0.53154 1.00296 0.89452 0.0
C1962 C 0.5508 0.99809 0.86001 0.0
C1963 C 0.55541 0.97693 0.8672 0.0
C1964 C 0.54464 0.96728 0.88593 0.0
C1965 C 0.53326 0.98065 0.89983 0.0
C1966 C 0.56135 1.00883 0.83965 0.0
C1967 C 0.547 0.94373 0.89253 0.0
H1968 H 0.5901 0.94992 0.80675 0.0
H1969 H 0.63649 0.98401 0.86658 0.0
H1970 H 0.53498 0.9413 0.83655 0.0
H1971 H 0.54167 0.95751 0.81212 0.0
H1972 H 0.54926 0.92995 0.81372 0.0
H1973 H 0.62247 0.99255 0.90135 0.0
H1974 H 0.59663 1.00498 0.89334 0.0
H1975 H 0.59316 0.97832 0.90627 0.0
H1976 H 0.53593 0.02731 0.86868 0.0
H1977 H 0.52755 0.97424 0.91574 0.0
H1978 H 0.55641 0.99693 0.82392 0.0
H1979 H 0.58121 1.01263 0.84335 0.0
H1980 H 0.55516 0.0249 0.83582 0.0
H1981 H 0.53205 0.93618 0.902 0.0
H1982 H 0.56404 0.94461 0.90401 0.0
H1983 H 0.54725 0.93231 0.877 0.0
C1984 C 0.30141 0.36952 0.11676 0.0
C1985 C 0.31706 0.39005 0.11351 0.0
C1986 C 0.30174 0.35868 0.13838 0.0
C1987 C 0.31909 0.36733 0.15816 0.0
C1988 C 0.33528 0.38794 0.15477 0.0
C1989 C 0.3337 0.39901 0.13327 0.0
C1990 C 0.28295 0.33772 0.13956 0.0
C1991 C 0.35495 0.39864 0.17371 0.0
C1992 C 0.316 0.35241 0.22421 0.0
C1993 C 0.32269 0.33084 0.22553 0.0
C1994 C 0.31424 0.36393 0.20298 0.0
C1995 C 0.32049 0.35483 0.18166 0.0
C1996 C 0.32801 0.33333 0.18325 0.0
C1997 C 0.32838 0.32172 0.20437 0.0
C1998 C 0.30533 0.38603 0.20387 0.0
C1999 C 0.3362 0.32211 0.16268 0.0
H2000 H 0.28827 0.36185 0.10228 0.0
H2001 H 0.34629 0.41458 0.13178 0.0
H2002 H 0.28888 0.32279 0.13176 0.0
H2003 H 0.27956 0.33449 0.15759 0.0
H2004 H 0.26577 0.33922 0.12929 0.0
H2005 H 0.37115 0.40677 0.16626 0.0
H2006 H 0.34878 0.41222 0.18367 0.0
H2007 H 0.36009 0.38617 0.18583 0.0
H2008 H 0.31146 0.36028 0.23983 0.0
H2009 H 0.3339 0.30538 0.20436 0.0
H2010 H 0.29766 0.39016 0.18658 0.0
H2011 H 0.32046 0.39996 0.21088 0.0
H2012 H 0.29146 0.3855 0.21579 0.0
H2013 H 0.32117 0.30899 0.15386 0.0
H2014 H 0.35108 0.31329 0.16839 0.0
H2015 H 0.34233 0.33437 0.14999 0.0
C2016 C 0.24988 0.92324 0.02988 0.0
C2017 C 0.26588 0.91545 0.04621 0.0
C2018 C 0.23343 0.93597 0.03693 0.0
C2019 C 0.23315 0.9411 0.06089 0.0
C2020 C 0.24687 0.93054 0.07735 0.0
C2021 C 0.26321 0.91777 0.06979 0.0
C2022 C 0.21852 0.94623 0.01873 0.0
C2023 C 0.24623 0.93473 0.103 0.0
C2024 C 0.22618 1.00207 0.07165 0.0
C2025 C 0.20137 0.99971 0.07183 0.0
C2026 C 0.23693 0.983 0.06958 0.0
C2027 C 0.22264 0.96088 0.06817 0.0
C2028 C 0.198 0.95833 0.07058 0.0
C2029 C 0.18761 0.97776 0.07213 0.0
C2030 C 0.26339 0.9866 0.06734 0.0
C2031 C 0.18214 0.9352 0.07007 0.0
H2032 H 0.25188 0.92132 1.01163 0.0
H2033 H 0.27562 0.91182 0.08248 0.0
H2034 H 0.19975 0.94423 0.02257 0.0
H2035 H 0.22581 0.96472 0.01887 0.0
H2036 H 0.2185 0.93833 1.00105 0.0
H2037 H 0.25345 0.92166 0.113 0.0
H2038 H 0.25729 0.95163 0.10914 0.0
H2039 H 0.22766 0.93483 0.1067 0.0
H2040 H 0.23717 0.01891 0.07229 0.0
H2041 H 0.16847 0.9756 0.0724 0.0
H2042 H 0.26592 0.9804 0.04968 0.0
H2043 H 0.27256 0.97673 0.07989 0.0
H2044 H 0.27225 1.00479 0.07034 0.0
H2045 H 0.17363 0.92993 0.05202 0.0
H2046 H 0.1676 0.93574 0.08106 0.0
H2047 H 0.19232 0.92209 0.0761 0.0
C2048 C 0.76341 0.64863 0.02276 0.0
C2049 C 0.78408 0.64016 0.03093 0.0
C2050 C 0.73956 0.63605 0.02289 0.0
C2051 C 0.73527 0.61423 0.03203 0.0
C2052 C 0.7561 0.60551 0.04013 0.0
C2053 C 0.7798 0.6184 0.03966 0.0
C2054 C 0.71871 0.64627 1.01313 0.0
C2055 C 0.75336 0.58246 0.04973 0.0
C2056 C 0.6733 0.59351 0.0547 0.0
C2057 C 0.65996 0.57747 0.03709 0.0
C2058 C 0.69736 0.60498 0.05341 0.0
C2059 C 0.70928 0.60114 0.03377 0.0
C2060 C 0.69584 0.58501 1.01589 0.0
C2061 C 0.67194 0.57342 0.01785 0.0
C2062 C 0.71012 0.62145 0.0733 0.0
C2063 C 0.70664 0.57941 0.9945 0.0
H2064 H 0.7659 0.66537 1.01619 0.0
H2065 H 0.79512 0.61159 0.04678 0.0
H2066 H 0.70723 0.6343 0.9994 0.0
H2067 H 0.70752 0.64902 0.02695 0.0
H2068 H 0.72458 0.66275 1.00567 0.0
H2069 H 0.77091 0.57758 0.05495 0.0
H2070 H 0.74344 0.58239 0.06502 0.0
H2071 H 0.74267 0.56942 0.03652 0.0
H2072 H 0.66488 0.59722 0.0698 0.0
H2073 H 0.66244 0.56133 1.00389 0.0
H2074 H 0.71463 0.63874 0.06717 0.0
H2075 H 0.72722 0.61647 0.08003 0.0
H2076 H 0.69915 0.62218 0.08776 0.0
H2077 H 0.71989 0.59396 0.99008 0.0
H2078 H 0.69262 0.57416 0.97936 0.0
H2079 H 0.71577 0.56489 0.99774 0.0
C2080 C 0.80414 0.52494 0.38525 0.0
C2081 C 0.78056 0.52351 0.37453 0.0
C2082 C 0.81757 0.5086 0.37973 0.0
C2083 C 0.80706 0.49034 0.36331 0.0
C2084 C 0.78278 0.48791 0.35366 0.0
C2085 C 0.76983 0.50461 0.35931 0.0
C2086 C 0.84343 0.51172 0.39032 0.0
C2087 C 0.77086 0.46834 0.33638 0.0
C2088 C 0.84276 0.46358 0.32304 0.0
C2089 C 0.84262 0.44238 0.33207 0.0
C2090 C 0.83259 0.48003 0.33402 0.0
C2091 C 0.82188 0.47498 0.35434 0.0
C2092 C 0.82329 0.45429 0.36451 0.0
C2093 C 0.83383 0.43825 0.35329 0.0
C2094 C 0.83178 0.50215 0.32294 0.0
C2095 C 0.81221 0.4484 0.38626 0.0
H2096 H 0.8126 0.53944 0.39712 0.0
H2097 H 0.75154 0.50322 0.3512 0.0
H2098 H 0.84759 0.49549 0.39638 0.0
H2099 H 0.85525 0.51706 0.37698 0.0
H2100 H 0.84784 0.52484 0.40514 0.0
H2101 H 0.75131 0.46775 0.33223 0.0
H2102 H 0.7791 0.46998 0.32006 0.0
H2103 H 0.77361 0.45194 0.34318 0.0
H2104 H 0.84945 0.46681 0.30661 0.0
H2105 H 0.8342 0.42202 0.36058 0.0
H2106 H 0.8377 0.51677 0.33607 0.0
H2107 H 0.81308 0.50248 0.31561 0.0
H2108 H 0.84325 0.50449 0.30878 0.0
H2109 H 0.81713 0.46289 0.39962 0.0
H2110 H 0.81779 0.43319 0.39365 0.0
H2111 H 0.7924 0.44485 0.38218 0.0
C2112 C 0.91836 0.41533 0.53015 0.0
C2113 C 0.89899 0.42364 0.53767 0.0
C2114 C 0.94139 0.42913 0.53236 0.0
C2115 C 0.94514 0.45175 0.54241 0.0
C2116 C 0.92559 0.46006 0.5502 0.0
C2117 C 0.90295 0.44577 0.54816 0.0
C2118 C 0.9616 0.41974 0.52347 0.0
C2119 C 0.92851 0.4842 0.56039 0.0
C2120 C 1.00698 0.48715 0.56507 0.0
C2121 C 1.01116 0.50115 0.54683 0.0
C2122 C 0.9858 0.47053 0.56372 0.0
C2123 C 0.96891 0.4674 0.54336 0.0
C2124 C 0.97413 0.48056 0.52444 0.0
C2125 C 0.99465 0.49763 0.52672 0.0
C2126 C 0.98146 0.45632 0.584 0.0
C2127 C 0.9588 0.47672 0.50126 0.0
H2128 H 0.91546 0.39804 0.52248 0.0
H2129 H 0.88835 0.45185 0.55513 0.0
H2130 H 0.96699 0.42879 0.5082 0.0
H2131 H 0.97747 0.42267 0.53692 0.0
H2132 H 0.95645 0.40125 0.51826 0.0
H2133 H 0.91165 0.48796 0.56596 0.0
H2134 H 0.94263 0.48745 0.57556 0.0
H2135 H 0.93436 0.49618 0.54733 0.0
H2136 H 1.01997 0.48953 0.58052 0.0
H2137 H 0.99804 0.50794 0.51232 0.0
H2138 H 0.99696 0.45973 0.5979 0.0
H2139 H 0.97776 0.43798 0.5781 0.0
H2140 H 0.96542 0.45989 0.59142 0.0
H2141 H 0.96926 0.4708 0.48805 0.0
H2142 H 0.95432 0.49305 0.49588 0.0
H2143 H 0.94225 0.46394 0.50112 0.0
C2144 C 0.48239 0.17645 0.29003 0.0
C2145 C 0.4761 0.17298 0.31239 0.0
C2146 C 0.46679 0.1841 0.27308 0.0
C2147 C 0.44447 0.18812 0.27867 0.0
C2148 C 0.43933 0.18712 0.30185 0.0
C2149 C 0.45539 0.17986 0.31849 0.0
C2150 C 0.47332 0.18599 0.24879 0.0
C2151 C 0.41584 0.19157 0.30868 0.0
C2152 C 0.39925 0.21557 0.24434 0.0
C2153 C 0.38119 0.19661 0.23648 0.0
C2154 C 0.42131 0.21308 0.25598 0.0
C2155 C 0.42527 0.19106 0.26028 0.0
C2156 C 0.40823 0.17177 0.25032 0.0
C2157 C 0.38642 0.1748 0.23835 0.0
C2158 C 0.43909 0.23408 0.26603 0.0
C2159 C 0.41187 0.14793 0.25445 0.0
H2160 H 0.49846 0.17139 0.28514 0.0
H2161 H 0.4506 0.17764 0.33582 0.0
H2162 H 0.46356 0.17081 0.23765 0.0
H2163 H 0.46803 0.20119 0.24118 0.0
H2164 H 0.49284 0.18697 0.24839 0.0
H2165 H 0.41539 0.19164 0.32771 0.0
H2166 H 0.41247 0.20815 0.30291 0.0
H2167 H 0.40093 0.17819 0.30003 0.0
H2168 H 0.3954 0.23246 0.24356 0.0
H2169 H 0.37274 0.16006 0.23205 0.0
H2170 H 0.45777 0.2317 0.26539 0.0
H2171 H 0.43689 0.2375 0.28448 0.0
H2172 H 0.43629 0.24927 0.25676 0.0
H2173 H 0.43009 0.14591 0.25118 0.0
H2174 H 0.39849 0.13489 0.24328 0.0
H2175 H 0.41024 0.1447 0.27286 0.0
C2176 C 0.42948 0.13986 0.55581 0.0
C2177 C 0.41611 0.14218 0.53422 0.0
C2178 C 0.45025 0.12901 0.5578 0.0
C2179 C 0.45921 0.12015 0.53786 0.0
C2180 C 0.44616 0.1231 0.5161 0.0
C2181 C 0.42519 0.13338 0.51464 0.0
C2182 C 0.4623 0.12637 0.58164 0.0
C2183 C 0.45427 0.11513 0.4939 0.0
C2184 C 0.52587 0.10805 0.54146 0.0
C2185 C 0.52339 0.08399 0.54088 0.0
C2186 C 0.5058 0.11969 0.54048 0.0
C2187 C 0.48156 0.10767 0.5395 0.0
C2188 C 0.47898 0.0834 0.53925 0.0
C2189 C 0.49932 0.07215 0.5396 0.0
C2190 C 0.51066 0.1452 0.54004 0.0
C2191 C 0.45437 0.06902 0.5387 0.0
H2192 H 0.42314 0.14571 0.57142 0.0
H2193 H 0.41563 0.13442 0.49767 0.0
H2194 H 0.46177 0.10806 0.58409 0.0
H2195 H 0.48142 0.13481 0.58347 0.0
H2196 H 0.45364 0.13371 0.59556 0.0
H2197 H 0.444 0.12022 0.47831 0.0
H2198 H 0.47359 0.12216 0.49379 0.0
H2199 H 0.45205 0.09633 0.49272 0.0
H2200 H 0.54379 0.11804 0.54223 0.0
H2201 H 0.49624 0.05376 0.53915 0.0
H2202 H 0.50409 0.15295 0.55513 0.0
H2203 H 0.50074 0.15014 0.52416 0.0
H2204 H 0.53003 0.1524 0.54039 0.0
H2205 H 0.44526 0.07521 0.55289 0.0
H2206 H 0.45497 0.05078 0.5405 0.0
H2207 H 0.44333 0.07053 0.52211 0.0
C2208 C 0.73982 0.64932 0.3738 0.0
C2209 C 0.75237 0.63198 0.3693 0.0
C2210 C 0.74885 0.67183 0.36904 0.0
C2211 C 0.77055 0.67671 0.35917 0.0
C2212 C 0.78361 0.6593 0.35547 0.0
C2213 C 0.77417 0.63714 0.36027 0.0
C2214 C 0.73492 0.6902 0.37386 0.0
C2215 C 0.80703 0.66383 0.34537 0.0
C2216 C 0.78305 0.72113 0.3164 0.0
C2217 C 0.802 0.73669 0.32906 0.0
C2218 C 0.77136 0.70229 0.32661 0.0
C2219 C 0.77859 0.69916 0.35014 0.0
C2220 C 0.79639 0.71583 0.36345 0.0
C2221 C 0.80815 0.73426 0.35266 0.0
C2222 C 0.75244 0.68493 0.31174 0.0
C2223 C 0.80432 0.71379 0.38871 0.0
H2224 H 0.72283 0.6452 0.38061 0.0
H2225 H 0.78348 0.62359 0.35606 0.0
H2226 H 0.74689 0.70497 0.384 0.0
H2227 H 0.72784 0.69632 0.35727 0.0
H2228 H 0.71965 0.68412 0.38355 0.0
H2229 H 0.81522 0.64847 0.34418 0.0
H2230 H 0.80411 0.66983 0.32773 0.0
H2231 H 0.81995 0.67744 0.35624 0.0
H2232 H 0.77795 0.72314 0.29821 0.0
H2233 H 0.82236 0.7466 0.36271 0.0
H2234 H 0.73627 0.68052 0.32063 0.0
H2235 H 0.75945 0.66909 0.30883 0.0
H2236 H 0.74708 0.69107 0.2946 0.0
H2237 H 0.79056 0.70266 0.39705 0.0
H2238 H 0.80865 0.7308 0.39834 0.0
H2239 H 0.82096 0.70671 0.39016 0.0
C2240 C 0.97231 0.55356 0.82692 0.0
C2241 C 0.99517 0.56203 0.83875 0.0
C2242 C 0.96176 0.53054 0.82668 0.0
C2243 C 0.97494 0.51527 0.83749 0.0
C2244 C 0.99849 0.52356 0.84871 0.0
C2245 C 1.00828 0.54694 0.84938 0.0
C2246 C 0.93642 0.52261 0.81487 0.0
C2247 C 1.01324 0.50775 0.86001 0.0
C2248 C 0.93404 0.46253 0.85212 0.0
C2249 C 0.93011 0.44943 0.83094 0.0
C2250 C 0.95054 0.48311 0.85553 0.0
C2251 C 0.96343 0.49085 0.83721 0.0
C2252 C 0.96171 0.47628 0.81686 0.0
C2253 C 0.94484 0.45576 0.81384 0.0
C2254 C 0.95279 0.49661 0.87848 0.0
C2255 C 0.97663 0.48299 0.7977 0.0
H2256 H 0.96276 0.56491 0.81744 0.0
H2257 H 1.02627 0.5534 0.85798 0.0
H2258 H 0.9361 0.51 0.8002 0.0
H2259 H 0.92503 0.51407 0.82727 0.0
H2260 H 0.92839 0.53681 0.80802 0.0
H2261 H 0.03205 0.51639 0.86581 0.0
H2262 H 1.00516 0.50106 0.87529 0.0
H2263 H 1.01328 0.49297 0.84775 0.0
H2264 H 0.92337 0.45718 0.86581 0.0
H2265 H 0.94224 0.4454 0.79761 0.0
H2266 H 0.93505 0.50035 0.88134 0.0
H2267 H 0.96606 0.51269 0.87996 0.0
H2268 H 0.95808 0.48612 0.89265 0.0
H2269 H 0.96878 0.49543 0.78733 0.0
H2270 H 0.97734 0.46807 0.78587 0.0
H2271 H 0.99518 0.49123 0.80499 0.0
C2272 C 0.11351 0.92059 0.11088 0.0
C2273 C 0.10143 0.89854 0.10299 0.0
C2274 C 0.11062 0.93918 0.09786 0.0
C2275 C 0.09527 0.93558 0.07657 0.0
C2276 C 0.08398 0.9133 0.068 0.0
C2277 C 0.08719 0.89506 0.08129 0.0
C2278 C 0.12342 0.96275 0.10718 0.0
C2279 C 0.06797 0.90879 0.04509 0.0
C2280 C 0.06605 0.98433 0.05714 0.0
C2281 C 0.08084 0.99353 0.04109 0.0
C2282 C 0.07055 0.96538 0.06874 0.0
C2283 C 0.09005 0.95523 0.06382 0.0
C2284 C 0.10451 0.96399 0.04697 0.0
C2285 C 0.0998 0.98317 0.0359 0.0
C2286 C 0.05485 0.95662 0.08673 0.0
C2287 C 0.12484 0.95318 0.0404 0.0
H2288 H 0.1247 0.92344 0.1275 0.0
H2289 H 0.0781 0.87804 0.07479 0.0
H2290 H 0.13292 0.97151 0.09364 0.0
H2291 H 0.11013 0.97294 0.1119 0.0
H2292 H 0.13657 0.96246 0.12271 0.0
H2293 H 0.06124 0.89035 0.04045 0.0
H2294 H 0.05236 0.91726 0.04583 0.0
H2295 H 0.07786 0.91609 0.03107 0.0
H2296 H 0.05162 0.99257 0.06143 0.0
H2297 H 0.11117 0.99026 0.02337 0.0
H2298 H 0.06586 0.95778 0.1039 0.0
H2299 H 0.04673 0.93842 0.08226 0.0
H2300 H 0.04026 0.9663 0.08829 0.0
H2301 H 0.13367 0.94582 0.05534 0.0
H2302 H 0.13855 0.96559 0.03326 0.0
H2303 H 0.11763 0.93918 0.02681 0.0
C2304 C 0.96824 0.25134 0.84877 0.0
C2305 C 0.98115 0.26616 0.86711 0.0
C2306 C 0.94752 0.2563 0.83632 0.0
C2307 C 0.93897 0.27599 0.84318 0.0
C2308 C 0.95178 0.29079 0.86204 0.0
C2309 C 0.97278 0.28573 0.87372 0.0
C2310 C 0.93467 0.24039 0.81599 0.0
C2311 C 0.94305 0.31175 0.87015 0.0
C2312 C 0.89488 0.30054 0.80265 0.0
C2313 C 0.87307 0.29088 0.80977 0.0
C2314 C 0.9164 0.29555 0.81308 0.0
C2315 C 0.91614 0.28074 0.83129 0.0
C2316 C 0.89403 0.27101 0.83864 0.0
C2317 C 0.87268 0.27596 0.82755 0.0
C2318 C 0.93921 0.30574 0.80408 0.0
C2319 C 0.89296 0.25597 0.85867 0.0
H2320 H 0.97415 0.23569 0.8444 0.0
H2321 H 0.98259 0.29696 0.88823 0.0
H2322 H 0.9163 0.23297 0.81941 0.0
H2323 H 0.93291 0.24998 0.80028 0.0
H2324 H 0.94416 0.22629 0.81234 0.0
H2325 H 0.95485 0.32124 0.88538 0.0
H2326 H 0.94218 0.3233 0.85591 0.0
H2327 H 0.92465 0.30689 0.87486 0.0
H2328 H 0.89512 0.31196 0.78878 0.0
H2329 H 0.85575 0.26879 0.83336 0.0
H2330 H 0.93706 0.32015 0.79328 0.0
H2331 H 0.94445 0.29231 0.79314 0.0
H2332 H 0.95377 0.31183 0.81851 0.0
H2333 H 0.87433 0.25007 0.86247 0.0
H2334 H 0.90371 0.26538 0.87447 0.0
H2335 H 0.90087 0.24087 0.85486 0.0
C2336 C 0.60213 0.27248 0.63434 0.0
C2337 C 0.59247 0.28369 0.65146 0.0
C2338 C 0.60202 0.24914 0.63449 0.0
C2339 C 0.59286 0.23696 0.65277 0.0
C2340 C 0.58282 0.24819 0.67001 0.0
C2341 C 0.58282 0.27153 0.66919 0.0
C2342 C 0.61243 0.23769 0.61547 0.0
C2343 C 0.57287 0.23576 0.6897 0.0
C2344 C 0.58326 0.1738 0.63805 0.0
C2345 C 0.60598 0.16946 0.64584 0.0
C2346 C 0.57771 0.19526 0.64227 0.0
C2347 C 0.5954 0.21287 0.65431 0.0
C2348 C 0.61736 0.20788 0.66448 0.0
C2349 C 0.62238 0.18616 0.66016 0.0
C2350 C 0.55387 0.19944 0.63149 0.0
C2351 C 0.63644 0.22601 0.6781 0.0
H2352 H 0.61044 0.28213 0.6212 0.0
H2353 H 0.57575 0.28043 0.68267 0.0
H2354 H 0.62859 0.2315 0.62292 0.0
H2355 H 0.59925 0.2227 0.6072 0.0
H2356 H 0.61754 0.24932 0.60186 0.0
H2357 H 0.56397 0.2465 0.70062 0.0
H2358 H 0.55977 0.22016 0.68287 0.0
H2359 H 0.58759 0.23033 0.70082 0.0
H2360 H 0.57041 0.16109 0.62691 0.0
H2361 H 0.63976 0.1827 0.66675 0.0
H2362 H 0.53987 0.18376 0.63032 0.0
H2363 H 0.55565 0.20439 0.6136 0.0
H2364 H 0.54787 0.21317 0.64134 0.0
H2365 H 0.65063 0.21864 0.68796 0.0
H2366 H 0.62849 0.23623 0.6904 0.0
H2367 H 0.64494 0.23773 0.666 0.0
C2368 C 0.59953 0.74418 0.3884 0.0
C2369 C 0.58043 0.73347 0.37193 0.0
C2370 C 0.62298 0.7488 0.38257 0.0
C2371 C 0.62714 0.74247 0.35985 0.0
C2372 C 0.60828 0.72952 0.34409 0.0
C2373 C 0.58513 0.72519 0.35034 0.0
C2374 C 0.64282 0.76217 0.39998 0.0
C2375 C 0.612 0.72217 0.31979 0.0
C2376 C 0.67086 0.78128 0.32898 0.0
C2377 C 0.68911 0.76878 0.32768 0.0
C2378 C 0.65114 0.77335 0.34045 0.0
C2379 C 0.64973 0.75248 0.35105 0.0
C2380 C 0.66866 0.74033 0.35083 0.0
C2381 C 0.68809 0.74856 0.33898 0.0
C2382 C 0.6313 0.78686 0.34034 0.0
C2383 C 0.66792 0.71815 0.36214 0.0
H2384 H 0.59595 0.75047 0.40517 0.0
H2385 H 0.57042 0.71647 0.33774 0.0
H2386 H 0.6596 0.7555 0.39951 0.0
H2387 H 0.6465 0.78016 0.39559 0.0
H2388 H 0.63793 0.76176 0.4179 0.0
H2389 H 0.59632 0.70982 0.31081 0.0
H2390 H 0.61496 0.73728 0.3095 0.0
H2391 H 0.62811 0.71433 0.32008 0.0
H2392 H 0.67186 0.79718 0.32075 0.0
H2393 H 0.70209 0.73873 0.33795 0.0
H2394 H 0.62737 0.79018 0.35826 0.0
H2395 H 0.61468 0.7769 0.33026 0.0
H2396 H 0.63586 0.8034 0.33257 0.0
H2397 H 0.66145 0.71923 0.37932 0.0
H2398 H 0.68578 0.71324 0.36439 0.0
H2399 H 0.65523 0.70445 0.35116 0.0
C2400 C 0.10135 0.2232 0.47203 0.0
C2401 C 0.08801 0.22577 0.45048 0.0
C2402 C 0.10056 0.20169 0.48253 0.0
C2403 C 0.08508 0.18098 0.47242 0.0
C2404 C 0.07121 0.18363 0.45078 0.0
C2405 C 0.0732 0.2052 0.4402 0.0
C2406 C 0.11692 0.20162 0.50475 0.0
C2407 C 0.05361 0.16368 0.43834 0.0
C2408 C 0.09049 0.11675 0.4856 0.0
C2409 C 0.08087 0.11274 0.5068 0.0
C2410 C 0.09231 0.13818 0.47479 0.0
C2411 C 0.08344 0.1572 0.48424 0.0
C2412 C 0.07312 0.15295 0.50539 0.0
C2413 C 0.07251 0.13166 0.5163 0.0
C2414 C 0.10429 0.14007 0.45308 0.0
C2415 C 0.06225 0.17085 0.51703 0.0
H2416 H 0.11306 0.23821 0.48083 0.0
H2417 H 0.0624 0.20595 0.42379 0.0
H2418 H 0.10828 0.20734 0.51948 0.0
H2419 H 0.12101 0.18456 0.50776 0.0
H2420 H 0.13407 0.21379 0.50466 0.0
H2421 H 0.03769 0.16934 0.42949 0.0
H2422 H 0.06225 0.15584 0.42476 0.0
H2423 H 0.04744 0.15054 0.45018 0.0
H2424 H 0.09739 0.1031 0.47747 0.0
H2425 H 0.06496 0.12982 0.53248 0.0
H2426 H 0.11155 0.15794 0.44991 0.0
H2427 H 0.09107 0.13232 0.43805 0.0
H2428 H 0.11917 0.13045 0.45401 0.0
H2429 H 0.07551 0.18022 0.53129 0.0
H2430 H 0.0463 0.16286 0.52494 0.0
H2431 H 0.05681 0.18318 0.50489 0.0
C2432 C 0.66308 0.30351 0.17892 0.0
C2433 C 0.64387 0.30784 0.19056 0.0
C2434 C 0.68641 0.30344 0.1909 0.0
C2435 C 0.69138 0.30762 0.21552 0.0
C2436 C 0.67207 0.31211 0.2273 0.0
C2437 C 0.649 0.31222 0.2149 0.0
C2438 C 0.70586 0.29868 0.17706 0.0
C2439 C 0.67566 0.31657 0.25331 0.0
C2440 C 0.74512 0.28595 0.24956 0.0
C2441 C 0.76334 0.30559 0.25445 0.0
C2442 C 0.7221 0.28639 0.23721 0.0
C2443 C 0.71637 0.30695 0.22891 0.0
C2444 C 0.73468 0.32685 0.23377 0.0
C2445 C 0.75752 0.32596 0.24631 0.0
C2446 C 0.70378 0.26459 0.23299 0.0
C2447 C 0.73019 0.34928 0.22552 0.0
H2448 H 0.65986 0.29998 0.16027 0.0
H2449 H 0.63472 0.31549 0.22451 0.0
H2450 H 0.72158 0.31284 0.18045 0.0
H2451 H 0.71195 0.28304 0.18259 0.0
H2452 H 0.69976 0.29644 0.15813 0.0
H2453 H 0.65926 0.32004 0.26013 0.0
H2454 H 0.68094 0.30165 0.26154 0.0
H2455 H 0.69045 0.33133 0.25857 0.0
H2456 H 0.74883 0.26995 0.2554 0.0
H2457 H 0.77102 0.34139 0.24953 0.0
H2458 H 0.69856 0.26048 0.21408 0.0
H2459 H 0.68735 0.26671 0.24058 0.0
H2460 H 0.71053 0.25001 0.24057 0.0
H2461 H 0.72561 0.34776 0.20638 0.0
H2462 H 0.74595 0.36324 0.23035 0.0
H2463 H 0.71464 0.35393 0.23302 0.0
C2464 C 0.60019 0.89359 0.93901 0.0
C2465 C 0.59202 0.87191 0.94729 0.0
C2466 C 0.59807 0.91502 0.95032 0.0
C2467 C 0.58702 0.91627 0.97106 0.0
C2468 C 0.57869 0.89451 0.97964 0.0
C2469 C 0.58133 0.87317 0.96808 0.0
C2470 C 0.60799 0.93668 0.93982 0.0
C2471 C 0.56616 0.89366 1.00101 0.0
C2472 C 0.59839 0.97448 1.01149 0.0
C2473 C 0.57881 0.98525 1.00456 0.0
C2474 C 0.6012 0.95276 1.00109 0.0
C2475 C 0.58393 0.93996 0.9831 0.0
C2476 C 0.56402 0.95067 0.97621 0.0
C2477 C 0.56186 0.97258 0.98658 0.0
C2478 C 0.6232 0.94354 1.00936 0.0
C2479 C 0.54436 0.93868 0.95789 0.0
H2480 H 0.60836 0.89393 0.92313 0.0
H2481 H 0.57419 0.85731 0.97506 0.0
H2482 H 0.59474 0.94807 0.93851 0.0
H2483 H 0.62408 0.94589 0.95128 0.0
H2484 H 0.61311 0.93342 0.92231 0.0
H2485 H 0.56087 0.87602 1.0061 0.0
H2486 H 0.57798 0.904 1.01568 0.0
H2487 H 0.54987 0.90119 0.99784 0.0
H2488 H 0.61199 0.98323 0.02509 0.0
H2489 H 0.54637 0.97971 0.98061 0.0
H2490 H 0.63333 0.94111 0.99458 0.0
H2491 H 0.61791 0.92664 1.01614 0.0
H2492 H 0.63523 0.95499 0.02318 0.0
H2493 H 0.55197 0.93203 0.94289 0.0
H2494 H 0.53199 0.94997 0.95166 0.0
H2495 H 0.53386 0.92388 0.96519 0.0
C2496 C 0.99165 0.81873 0.69518 0.0
C2497 C 1.00511 0.80118 0.6935 0.0
C2498 C 0.97059 0.81691 0.70699 0.0
C2499 C 0.96227 0.79738 0.71912 0.0
C2500 C 0.97588 0.7796 0.71757 0.0
C2501 C 0.99649 0.78161 0.70501 0.0
C2502 C 0.95726 0.83635 0.70663 0.0
C2503 C 0.96956 0.75864 0.7304 0.0
C2504 C 0.92147 0.80496 0.7692 0.0
C2505 C 0.89783 0.79429 0.75973 0.0
C2506 C 0.94206 0.80552 0.75679 0.0
C2507 C 0.93998 0.79588 0.73339 0.0
C2508 C 0.91608 0.7853 0.7237 0.0
C2509 C 0.89593 0.7845 0.73671 0.0
C2510 C 0.96644 0.81638 0.76905 0.0
C2511 C 0.91157 0.77493 0.69911 0.0
H2512 H 0.9978 0.83436 0.68729 0.0
H2513 H 1.00666 0.76806 0.70521 0.0
H2514 H 0.93782 0.82987 0.70135 0.0
H2515 H 0.95934 0.84489 0.72429 0.0
H2516 H 0.96384 0.84916 0.69459 0.0
H2517 H 0.97902 0.745 0.72514 0.0
H2518 H 0.97478 0.76321 0.74924 0.0
H2519 H 0.94999 0.75193 0.72754 0.0
H2520 H 0.92407 0.81278 0.78672 0.0
H2521 H 0.87825 0.7766 0.72839 0.0
H2522 H 0.97387 0.83154 0.76019 0.0
H2523 H 0.9789 0.80429 0.76827 0.0
H2524 H 0.96588 0.8217 0.7875 0.0
H2525 H 0.91905 0.78756 0.6873 0.0
H2526 H 0.89219 0.76886 0.69314 0.0
H2527 H 0.92084 0.76032 0.69774 0.0
C2528 C 0.20689 0.05055 0.9357 0.0
C2529 C 0.2061 0.04602 0.91174 0.0
C2530 C 0.18579 0.04728 0.94618 0.0
C2531 C 0.16345 0.03952 0.9323 0.0
C2532 C 0.16273 0.03306 0.90853 0.0
C2533 C 0.18408 0.03628 0.89855 0.0
C2534 C 0.18725 0.05382 0.97178 0.0
C2535 C 0.13928 0.02462 0.89321 0.0
C2536 C 0.10951 0.02755 0.96501 0.0
C2537 C 0.10351 0.04914 0.96642 0.0
C2538 C 0.12837 0.02364 0.95292 0.0
C2539 C 0.14103 0.0417 0.94185 0.0
C2540 C 0.13353 0.06292 0.94162 0.0
C2541 C 0.11499 0.06644 0.95417 0.0
C2542 C 0.13595 1.00087 0.95369 0.0
C2543 C 0.14622 0.08246 0.92956 0.0
H2544 H 0.2238 0.05777 0.94611 0.0
H2545 H 0.18324 0.03234 0.88006 0.0
H2546 H 0.18051 0.06987 0.9742 0.0
H2547 H 0.17582 0.04055 0.98029 0.0
H2548 H 0.2059 0.05641 0.98067 0.0
H2549 H 0.14194 0.01679 0.87624 0.0
H2550 H 0.12722 1.01197 0.90182 0.0
H2551 H 0.13008 0.03911 0.88993 0.0
H2552 H 0.10087 1.01433 0.97494 0.0
H2553 H 0.11034 0.08315 0.95551 0.0
H2554 H 0.15229 1.00241 0.9664 0.0
H2555 H 0.14044 0.99523 0.93658 0.0
H2556 H 0.1218 0.98759 0.95903 0.0
H2557 H 0.16456 0.08856 0.93877 0.0
H2558 H 0.13664 0.09698 0.92909 0.0
H2559 H 0.14801 0.07681 0.91152 0.0
C2560 C 0.81775 0.34894 0.61111 0.0
C2561 C 0.83536 0.36744 0.60712 0.0
C2562 C 0.81546 0.34205 0.63371 0.0
C2563 C 0.83168 0.35342 0.65283 0.0
C2564 C 0.84982 0.37181 0.64877 0.0
C2565 C 0.85118 0.37882 0.62611 0.0
C2566 C 0.79535 0.32289 0.63718 0.0
C2567 C 0.86793 0.38405 0.66839 0.0
C2568 C 0.8149 0.35085 0.71461 0.0
C2569 C 0.82561 0.33311 0.72299 0.0
C2570 C 0.8163 0.35727 0.69176 0.0
C2571 C 0.82951 0.3463 0.67706 0.0
C2572 C 0.8407 0.3286 0.68564 0.0
C2573 C 0.83821 0.32193 0.70829 0.0
C2574 C 0.80324 0.37556 0.68324 0.0
C2575 C 0.85554 0.31686 0.67097 0.0
H2576 H 0.80531 0.34018 0.59659 0.0
H2577 H 0.86491 0.39305 0.62319 0.0
H2578 H 0.80274 0.30878 0.64501 0.0
H2579 H 0.78396 0.3289 0.64942 0.0
H2580 H 0.78389 0.31614 0.62068 0.0
H2581 H 0.88169 0.39719 0.66225 0.0
H2582 H 0.85874 0.3924 0.68115 0.0
H2583 H 0.87707 0.37168 0.67763 0.0
H2584 H 0.80478 0.3593 0.72575 0.0
H2585 H 0.84653 0.30822 0.71468 0.0
H2586 H 0.79041 0.36879 0.66759 0.0
H2587 H 0.81614 0.39005 0.67815 0.0
H2588 H 0.79323 0.38199 0.69657 0.0
H2589 H 0.84422 0.30819 0.65512 0.0
H2590 H 0.86387 0.30408 0.68042 0.0
H2591 H 0.86994 0.3296 0.66526 0.0
C2592 C 0.53054 0.14117 0.42359 0.0
C2593 C 0.53936 0.14501 0.40236 0.0
C2594 C 0.54558 0.13668 0.44286 0.0
C2595 C 0.56993 0.13639 0.44074 0.0
C2596 C 0.57972 0.14459 0.42092 0.0
C2597 C 0.56426 0.14878 0.40182 0.0
C2598 C 0.53459 0.1289 0.46413 0.0
C2599 C 0.60586 0.14578 0.41855 0.0
C2600 C 0.60272 0.1143 0.49264 0.0
C2601 C 0.59656 0.09085 0.48659 0.0
C2602 C 0.59578 0.12987 0.47719 0.0
C2603 C 0.58244 0.12158 0.45544 0.0
C2604 C 0.57834 0.09802 0.44855 0.0
C2605 C 0.58547 0.08298 0.46426 0.0
C2606 C 0.60097 0.15482 0.48507 0.0
C2607 C 0.56449 0.08835 0.42537 0.0
H2608 H 0.51146 0.13905 0.42449 0.0
H2609 H 0.57145 0.15269 0.38576 0.0
H2610 H 0.54669 0.1359 0.48015 0.0
H2611 H 0.51701 0.13405 0.46489 0.0
H2612 H 0.53175 0.11006 0.46379 0.0
H2613 H 0.61183 0.15778 0.40553 0.0
H2614 H 0.61722 0.15113 0.43541 0.0
H2615 H 0.60868 0.12867 0.41276 0.0
H2616 H 0.61112 0.12037 0.51004 0.0
H2617 H 0.58082 0.06482 0.45966 0.0
H2618 H 0.58606 0.15877 0.49415 0.0
H2619 H 0.60265 0.16571 0.47028 0.0
H2620 H 0.61768 0.15926 0.49748 0.0
H2621 H 0.54568 0.09081 0.42465 0.0
H2622 H 0.56428 0.06988 0.4222 0.0
H2623 H 0.57241 0.09732 0.41109 0.0
C2624 C 0.84295 0.69174 0.12916 0.0
C2625 C 0.85375 0.70421 0.11182 0.0
C2626 C 0.84078 0.70191 0.15162 0.0
C2627 C 0.8497 0.72558 0.15806 0.0
C2628 C 0.86087 0.73818 0.14071 0.0
C2629 C 0.86256 0.72764 0.1183 0.0
C2630 C 0.82847 0.68715 0.16852 0.0
C2631 C 0.87112 0.76318 0.14581 0.0
C2632 C 0.82506 0.75782 0.20858 0.0
C2633 C 0.84229 0.75864 0.22836 0.0
C2634 C 0.82712 0.74727 0.18628 0.0
C2635 C 0.84716 0.73703 0.18247 0.0
C2636 C 0.86472 0.73794 0.20231 0.0
C2637 C 0.86206 0.74836 0.22451 0.0
C2638 C 0.80749 0.74705 0.1666 0.0
C2639 C 0.8867 0.72793 0.20011 0.0
H2640 H 0.83573 0.6738 0.12506 0.0
H2641 H 0.87089 0.738 0.10566 0.0
H2642 H 0.84082 0.68752 0.18476 0.0
H2643 H 0.81272 0.69391 0.17316 0.0
H2644 H 0.82239 0.66921 0.16142 0.0
H2645 H 0.88001 0.77074 0.13129 0.0
H2646 H 0.85664 0.77243 0.14921 0.0
H2647 H 0.88434 0.76583 0.16169 0.0
H2648 H 0.80956 0.7654 0.21051 0.0
H2649 H 0.87585 0.74858 0.23899 0.0
H2650 H 0.79989 0.72927 0.15974 0.0
H2651 H 0.81495 0.7562 0.1522 0.0
H2652 H 0.79279 0.75509 0.17196 0.0
H2653 H 0.88136 0.70949 0.19484 0.0
H2654 H 0.89911 0.73023 0.21656 0.0
H2655 H 0.89643 0.736 0.18633 0.0
C2656 C 0.24377 0.07077 0.77468 0.0
C2657 C 0.23209 0.05413 0.78772 0.0
C2658 C 0.2333 0.07457 0.75253 0.0
C2659 C 0.21067 0.06145 0.74335 0.0
C2660 C 0.19991 0.04332 0.75558 0.0
C2661 C 0.2108 0.03983 0.77758 0.0
C2662 C 0.24557 0.09377 0.73982 0.0
C2663 C 0.17585 0.02881 0.74636 0.0
C2664 C 0.16575 0.08828 0.70669 0.0
C2665 C 0.16541 0.07761 0.68464 0.0
C2666 C 0.18109 0.08379 0.72575 0.0
C2667 C 0.19668 0.06839 0.72267 0.0
C2668 C 0.19731 0.0584 0.70027 0.0
C2669 C 0.18157 0.06303 0.68153 0.0
C2670 C 0.17991 0.09488 0.74936 0.0
C2671 C 0.21388 0.04212 0.69626 0.0
H2672 H 0.26028 0.08185 0.78236 0.0
H2673 H 0.20178 0.02679 0.78746 0.0
H2674 H 0.24457 0.08857 0.72112 0.0
H2675 H 0.23635 0.10842 0.74123 0.0
H2676 H 0.26468 0.09954 0.7471 0.0
H2677 H 0.17122 1.0139 0.75666 0.0
H2678 H 0.16173 0.0392 0.74685 0.0
H2679 H 0.1756 0.02264 0.72804 0.0
H2680 H 0.15369 0.09993 0.70915 0.0
H2681 H 0.18132 0.05454 0.6646 0.0
H2682 H 0.19801 0.10383 0.75719 0.0
H2683 H 0.17356 0.08165 0.76106 0.0
H2684 H 0.16766 0.10727 0.74862 0.0
H2685 H 0.23229 0.04921 0.7048 0.0
H2686 H 0.21456 0.03827 0.67751 0.0
H2687 H 0.20764 0.02594 0.70406 0.0
C2688 C 0.80549 0.37096 0.45199 0.0
C2689 C 0.82137 0.36583 0.47034 0.0
C2690 C 0.80355 0.36036 0.42954 0.0
C2691 C 0.81834 0.34456 0.42494 0.0
C2692 C 0.83366 0.33854 0.44365 0.0
C2693 C 0.83481 0.34906 0.46615 0.0
C2694 C 0.78662 0.3671 0.41044 0.0
C2695 C 0.8501 0.32216 0.43959 0.0
C2696 C 0.80662 0.30895 0.36649 0.0
C2697 C 0.82222 0.32214 0.35328 0.0
C2698 C 0.80505 0.31596 0.38975 0.0
C2699 C 0.81968 0.33647 0.40029 0.0
C2700 C 0.8354 0.34981 0.38701 0.0
C2701 C 0.83633 0.34262 0.36381 0.0
C2702 C 0.78763 0.30148 0.40303 0.0
C2703 C 0.85145 0.37176 0.39734 0.0
H2704 H 0.79507 0.38395 0.45506 0.0
H2705 H 0.84743 0.34529 0.4801 0.0
H2706 H 0.79702 0.37789 0.39878 0.0
H2707 H 0.77625 0.35183 0.39981 0.0
H2708 H 0.77387 0.3768 0.41735 0.0
H2709 H 0.85908 0.31743 0.45609 0.0
H2710 H 0.84001 0.30646 0.42951 0.0
H2711 H 0.86407 0.33009 0.42922 0.0
H2712 H 0.79561 0.29313 0.35867 0.0
H2713 H 0.84855 0.35305 0.354 0.0
H2714 H 0.77483 0.31161 0.40906 0.0
H2715 H 0.79737 0.29598 0.41867 0.0
H2716 H 0.77733 0.28614 0.3924 0.0
H2717 H 0.84041 0.38412 0.40241 0.0
H2718 H 0.86345 0.37966 0.38509 0.0
H2719 H 0.86264 0.3686 0.41328 0.0
C2720 C 0.53897 0.10308 0.25724 0.0
C2721 C 0.54746 0.12093 0.27427 0.0
C2722 C 0.55171 0.10011 0.23853 0.0
C2723 C 0.57312 0.11572 0.23663 0.0
C2724 C 0.58101 0.13453 0.25309 0.0
C2725 C 0.56822 0.13676 0.27192 0.0
C2726 C 0.54283 0.0797 0.22139 0.0
C2727 C 0.60338 0.15181 0.25127 0.0
C2728 C 0.61543 0.08922 0.2038 0.0
C2729 C 0.60836 0.09421 0.18107 0.0
C2730 C 0.60518 0.09738 0.22243 0.0
C2731 C 0.58786 0.11126 0.21823 0.0
C2732 C 0.58259 0.11835 0.19575 0.0
C2733 C 0.59279 0.10961 0.17735 0.0
C2734 C 0.61132 0.08948 0.24622 0.0
C2735 C 0.56473 0.13368 0.19077 0.0
H2736 H 0.52296 0.09081 0.25908 0.0
H2737 H 0.57467 0.15074 0.285 0.0
H2738 H 0.5405 0.0852 0.20351 0.0
H2739 H 0.5563 0.06852 0.22201 0.0
H2740 H 0.52552 0.06957 0.22498 0.0
H2741 H 0.60519 0.16701 0.26354 0.0
H2742 H 0.61937 0.144 0.25513 0.0
H2743 H 0.60335 0.15739 0.23339 0.0
H2744 H 0.62788 0.07777 0.20684 0.0
H2745 H 0.5871 0.11356 0.15987 0.0
H2746 H 0.59563 0.07752 0.25084 0.0
H2747 H 0.61547 0.10405 0.25948 0.0
H2748 H 0.62683 0.08069 0.24705 0.0
H2749 H 0.54641 0.12422 0.19208 0.0
H2750 H 0.56496 0.13993 0.17316 0.0
H2751 H 0.56846 0.1485 0.20374 0.0
C2752 C 0.84276 0.72078 0.96906 0.0
C2753 C 0.8511 0.69992 0.96972 0.0
C2754 C 0.84113 0.73325 0.94841 0.0
C2755 C 0.84854 0.72564 0.92709 0.0
C2756 C 0.85756 0.70494 0.92794 0.0
C2757 C 0.85829 0.69252 0.94851 0.0
C2758 C 0.83067 0.7545 0.94927 0.0
C2759 C 0.86652 0.69562 0.90682 0.0
C2760 C 0.82482 0.74367 0.86499 0.0
C2761 C 0.8427 0.76184 0.85984 0.0
C2762 C 0.82619 0.73253 0.8864 0.0
C2763 C 0.84637 0.73861 0.90402 0.0
C2764 C 0.86465 0.75679 0.89884 0.0
C2765 C 0.86247 0.76815 0.87753 0.0
C2766 C 0.80557 0.71409 0.8902 0.0
C2767 C 0.88703 0.76415 0.91583 0.0
H2768 H 0.83659 0.72709 0.98458 0.0
H2769 H 0.86471 0.67663 0.94788 0.0
H2770 H 0.84392 0.76921 0.94513 0.0
H2771 H 0.81477 0.75258 0.93594 0.0
H2772 H 0.82525 0.75833 0.96652 0.0
H2773 H 0.87513 0.68081 0.91043 0.0
H2774 H 0.85137 0.69025 0.89277 0.0
H2775 H 0.87965 0.70904 0.90028 0.0
H2776 H 0.80918 0.73821 0.85224 0.0
H2777 H 0.87672 0.78188 0.87458 0.0
H2778 H 0.79924 0.71777 0.90704 0.0
H2779 H 0.8116 0.69758 0.89102 0.0
H2780 H 0.79028 0.71232 0.8762 0.0
H2781 H 0.88237 0.77065 0.93254 0.0
H2782 H 0.90017 0.77763 0.90938 0.0
H2783 H 0.89564 0.74934 0.9194 0.0
C2784 C 0.87287 0.17706 0.04265 0.0
C2785 C 0.86533 0.18616 0.02202 0.0
C2786 C 0.89095 0.16403 0.04348 0.0
C2787 C 0.90177 0.16039 0.02327 0.0
C2788 C 0.89598 0.17173 1.00325 0.0
C2789 C 0.8776 0.18428 1.00279 0.0
C2790 C 0.89658 0.15224 0.06516 0.0
C2791 C 0.90745 0.16876 0.98151 0.0
C2792 C 0.95485 0.13056 0.02366 0.0
C2793 C 0.94377 0.10867 1.01414 0.0
C2794 C 0.94146 0.1475 0.02732 0.0
C2795 C 0.91628 0.1423 0.02172 0.0
C2796 C 0.90484 0.11994 1.01312 0.0
C2797 C 0.91874 0.10343 1.00931 0.0
C2798 C 0.95434 0.17111 0.03644 0.0
C2799 C 0.87794 0.11361 1.00721 0.0
H2800 H 0.86301 0.17814 0.05735 0.0
H2801 H 0.87151 0.19114 0.98677 0.0
H2802 H 0.8876 0.1341 0.06248 0.0
H2803 H 0.91611 0.15278 0.06904 0.0
H2804 H 0.89021 0.16 0.08041 0.0
H2805 H 0.90375 0.18133 0.96886 0.0
H2806 H 0.92713 0.17049 0.98572 0.0
H2807 H 0.90035 0.15143 0.97311 0.0
H2808 H 0.97407 0.13447 0.02814 0.0
H2809 H 0.91002 0.0866 1.00191 0.0
H2810 H 0.94621 0.17713 0.05139 0.0
H2811 H 0.95246 0.1831 0.02274 0.0
H2812 H 0.97373 0.17185 0.0419 0.0
H2813 H 0.86903 0.11829 0.02219 0.0
H2814 H 0.87173 0.09515 1.00228 0.0
H2815 H 0.87201 0.12322 0.99254 0.0
C2816 C 0.40287 0.44229 0.03497 0.0
C2817 C 0.38416 0.45267 0.04158 0.0
C2818 C 0.42675 0.45471 0.03443 0.0
C2819 C 0.43302 0.4786 0.04064 0.0
C2820 C 0.41425 0.4891 0.04761 0.0
C2821 C 0.39064 0.47617 0.04839 0.0
C2822 C 0.4455 0.44201 0.02743 0.0
C2823 C 0.41912 0.51426 0.05436 0.0
C2824 C 0.49987 0.50922 0.06052 0.0
C2825 C 0.50792 0.51846 0.04028 0.0
C2826 C 0.47622 0.49622 0.06077 0.0
C2827 C 0.45905 0.49231 0.04043 0.0
C2828 C 0.46719 0.5016 0.01997 0.0
C2829 C 0.49107 0.51419 0.0201 0.0
C2830 C 0.46978 0.48621 0.08295 0.0
C2831 C 0.45043 0.49895 0.99777 0.0
H2832 H 0.39883 0.42418 0.03014 0.0
H2833 H 0.37718 0.48456 0.05469 0.0
H2834 H 0.45247 0.4489 1.01171 0.0
H2835 H 0.46086 0.44449 0.04143 0.0
H2836 H 0.43841 0.4235 0.02378 0.0
H2837 H 0.40279 0.52034 0.05846 0.0
H2838 H 0.43291 0.51834 0.06976 0.0
H2839 H 0.42636 0.52378 0.04006 0.0
H2840 H 0.51234 0.51177 0.07634 0.0
H2841 H 0.49647 0.52095 1.00421 0.0
H2842 H 0.46352 0.46754 0.07983 0.0
H2843 H 0.45482 0.49335 0.08896 0.0
H2844 H 0.48514 0.48961 0.09701 0.0
H2845 H 0.4396 0.48149 0.99481 0.0
H2846 H 0.46008 0.50279 0.98252 0.0
H2847 H 0.4381 0.51103 0.99916 0.0
C2848 C 0.39494 0.59174 0.72297 0.0
C2849 C 0.37874 0.57118 0.71722 0.0
C2850 C 0.3866 0.61209 0.72586 0.0
C2851 C 0.36161 0.61163 0.72246 0.0
C2852 C 0.34562 0.59145 0.71335 0.0
C2853 C 0.35439 0.5713 0.71108 0.0
C2854 C 0.40423 0.6333 0.73557 0.0
C2855 C 0.31894 0.59047 0.70878 0.0
C2856 C 0.3387 0.64618 0.76776 0.0
C2857 C 0.33528 0.66531 0.75609 0.0
C2858 C 0.34724 0.62859 0.75685 0.0
C2859 C 0.35203 0.63011 0.73356 0.0
C2860 C 0.34797 0.64916 0.72146 0.0
C2861 C 0.33982 0.66673 0.733 0.0
C2862 C 0.35156 0.60859 0.77043 0.0
C2863 C 0.35239 0.65102 0.69651 0.0
H2864 H 0.41382 0.59162 0.72759 0.0
H2865 H 0.34193 0.55537 0.70618 0.0
H2866 H 0.39955 0.6486 0.7277 0.0
H2867 H 0.4037 0.63561 0.75452 0.0
H2868 H 0.42284 0.63216 0.73271 0.0
H2869 H 0.3099 0.57549 0.69692 0.0
H2870 H 0.31125 0.58911 0.72541 0.0
H2871 H 0.3149 0.60613 0.70118 0.0
H2872 H 0.33538 0.64531 0.78568 0.0
H2873 H 0.33697 0.6816 0.72403 0.0
H2874 H 0.37058 0.60684 0.77104 0.0
H2875 H 0.34037 0.59264 0.76177 0.0
H2876 H 0.34733 0.61033 0.78851 0.0
H2877 H 0.37161 0.65143 0.69506 0.0
H2878 H 0.34733 0.66653 0.68933 0.0
H2879 H 0.34205 0.63588 0.68568 0.0
C2880 C 0.24178 0.65332 0.52886 0.0
C2881 C 0.2415 0.67525 0.52181 0.0
C2882 C 0.22049 0.63728 0.52839 0.0
C2883 C 0.19818 0.64368 0.52195 0.0
C2884 C 0.19773 0.66607 0.51542 0.0
C2885 C 0.21943 0.68157 0.5153 0.0
C2886 C 0.22187 0.61354 0.53514 0.0
C2887 C 0.17433 0.67381 0.50917 0.0
C2888 C 0.14367 0.59589 0.50641 0.0
C2889 C 0.13575 0.59261 0.52807 0.0
C2890 C 0.16341 0.61298 0.50389 0.0
C2891 C 0.17547 0.62725 0.5235 0.0
C2892 C 0.16672 0.62469 0.54519 0.0
C2893 C 0.14723 0.60722 0.54728 0.0
C2894 C 0.17179 0.6148 0.48038 0.0
C2895 C 0.17806 0.64031 0.56629 0.0
H2896 H 0.25871 0.6488 0.53518 0.0
H2897 H 0.21916 0.69874 0.51045 0.0
H2898 H 0.21295 0.60998 0.55083 0.0
H2899 H 0.21224 0.60092 0.52101 0.0
H2900 H 0.24063 0.61099 0.53881 0.0
H2901 H 0.17701 0.69179 0.50463 0.0
H2902 H 0.1636 0.6629 0.49424 0.0
H2903 H 0.16367 0.67201 0.52395 0.0
H2904 H 0.13478 0.58475 0.49146 0.0
H2905 H 0.1408 0.60517 0.56399 0.0
H2906 H 0.18531 0.60392 0.47916 0.0
H2907 H 0.18009 0.63246 0.47752 0.0
H2908 H 0.15683 0.60861 0.46628 0.0
H2909 H 0.19627 0.63717 0.57192 0.0
H2910 H 0.16741 0.63783 0.58105 0.0
H2911 H 0.18 0.65833 0.56203 0.0
C2912 C 0.70371 0.92816 0.79488 0.0
C2913 C 0.69355 0.94026 0.77775 0.0
C2914 C 0.72454 0.91985 0.79204 0.0
C2915 C 0.73551 0.92416 0.7717 0.0
C2916 C 0.72366 0.93387 0.75319 0.0
C2917 C 0.70256 0.94171 0.75639 0.0
C2918 C 0.7362 0.90884 0.81191 0.0
C2919 C 0.73459 0.93839 0.73112 0.0
C2920 C 0.80259 0.9357 0.78761 0.0
C2921 C 0.80772 0.91425 0.78245 0.0
C2922 C 0.7793 0.93977 0.78223 0.0
C2923 C 0.76082 0.92182 0.77174 0.0
C2924 C 0.76638 0.90073 0.76483 0.0
C2925 C 0.78976 0.89715 0.77047 0.0
C2926 C 0.77408 0.96269 0.78948 0.0
C2927 C 0.74731 0.88121 0.75354 0.0
H2928 H 0.69663 0.92707 0.81137 0.0
H2929 H 0.69479 0.95127 0.74319 0.0
H2930 H 0.74241 0.89349 0.80549 0.0
H2931 H 0.75214 0.92095 0.82072 0.0
H2932 H 0.72381 0.90388 0.82491 0.0
H2933 H 0.72096 0.94086 0.71675 0.0
H2934 H 0.74856 0.9541 0.73412 0.0
H2935 H 0.7433 0.92428 0.72571 0.0
H2936 H 0.81647 0.94884 0.797 0.0
H2937 H 0.79341 0.88029 0.7673 0.0
H2938 H 0.76344 0.96103 0.80428 0.0
H2939 H 0.76326 0.96902 0.77507 0.0
H2940 H 0.79072 0.97552 0.79484 0.0
H2941 H 0.73709 0.87314 0.76699 0.0
H2942 H 0.75521 0.86804 0.74476 0.0
H2943 H 0.73444 0.88723 0.74069 0.0
C2944 C 0.74895 0.97075 0.52322 0.0
C2945 C 0.7539 0.95316 0.53756 0.0
C2946 C 0.72832 0.98124 0.52352 0.0
C2947 C 0.71066 0.97461 0.53852 0.0
C2948 C 0.71517 0.9567 0.55299 0.0
C2949 C 0.73628 0.94646 0.55244 0.0
C2950 C 0.72564 0.99997 0.50767 0.0
C2951 C 0.69759 0.94835 0.56941 0.0
C2952 C 0.66912 0.01848 0.55344 0.0
C2953 C 0.64741 1.0116 0.53818 0.0
C2954 C 0.68902 1.0067 0.55399 0.0
C2955 C 0.68827 0.98677 0.53909 0.0
C2956 C 0.66631 0.97956 0.52379 0.0
C2957 C 0.64668 0.99176 0.52349 0.0
C2958 C 0.71127 1.01594 0.57066 0.0
C2959 C 0.66348 0.95872 0.50741 0.0
H2960 H 0.76165 0.97685 0.51148 0.0
H2961 H 0.739 0.93329 0.56396 0.0
H2962 H 0.70839 0.99543 0.4961 0.0
H2963 H 0.72526 1.01589 0.51808 0.0
H2964 H 0.74042 1.00337 0.49678 0.0
H2965 H 0.70245 0.93386 0.57881 0.0
H2966 H 0.69683 0.9624 0.58228 0.0
H2967 H 0.67936 0.94297 0.55974 0.0
H2968 H 0.67077 0.03346 0.56514 0.0
H2969 H 0.63054 0.98558 0.51154 0.0
H2970 H 0.72673 0.02081 0.56089 0.0
H2971 H 0.71552 1.0026 0.5821 0.0
H2972 H 0.70936 0.03102 0.58165 0.0
H2973 H 0.67687 0.96162 0.49502 0.0
H2974 H 0.64529 0.95424 0.49744 0.0
H2975 H 0.66698 0.94404 0.51723 0.0
C2976 C 0.38661 0.44566 0.73079 0.0
C2977 C 0.40565 0.46084 0.74357 0.0
C2978 C 0.38105 0.42296 0.73633 0.0
C2979 C 0.39603 0.415 0.75395 0.0
C2980 C 0.41675 0.4298 0.76525 0.0
C2981 C 0.42098 0.45269 0.76031 0.0
C2982 C 0.35877 0.40773 0.72381 0.0
C2983 C 0.43397 0.42174 0.78314 0.0
C2984 C 0.36517 0.3674 0.78609 0.0
C2985 C 0.36759 0.34835 0.77256 0.0
C2986 C 0.37617 0.38912 0.78147 0.0
C2987 C 0.38872 0.39193 0.76189 0.0
C2988 C 0.39262 0.37249 0.7491 0.0
C2989 C 0.38201 0.35075 0.7547 0.0
C2990 C 0.37468 0.4084 0.79848 0.0
C2991 C 0.4082 0.37458 0.72983 0.0
H2992 H 0.37596 0.45161 0.71662 0.0
H2993 H 0.43637 0.46426 0.7696 0.0
H2994 H 0.3635 0.39306 0.71436 0.0
H2995 H 0.34684 0.40083 0.73654 0.0
H2996 H 0.34872 0.41682 0.7111 0.0
H2997 H 0.45176 0.4333 0.78574 0.0
H2998 H 0.42667 0.42127 0.79998 0.0
H2999 H 0.43641 0.40432 0.77804 0.0
H3000 H 0.35511 0.36527 0.80079 0.0
H3001 H 0.38456 0.33573 0.74488 0.0
H3002 H 0.38243 0.42533 0.79327 0.0
H3003 H 0.38453 0.40602 0.81548 0.0
H3004 H 0.35574 0.40775 0.80134 0.0
H3005 H 0.3982 0.37934 0.71396 0.0
H3006 H 0.41389 0.3583 0.72552 0.0
H3007 H 0.42438 0.38807 0.73468 0.0
C3008 C 0.17648 0.55857 0.28956 0.0
C3009 C 0.15248 0.55092 0.29245 0.0
C3010 C 0.18596 0.58182 0.28951 0.0
C3011 C 0.1708 0.59779 0.29161 0.0
C3012 C 0.14658 0.59017 0.29495 0.0
C3013 C 0.13765 0.56674 0.29519 0.0
C3014 C 0.21195 0.58921 0.28622 0.0
C3015 C 0.12989 0.60667 0.2973 0.0
C3016 C 0.20275 0.65945 0.30284 0.0
C3017 C 0.20246 0.66657 0.28024 0.0
C3018 C 0.19142 0.63749 0.30699 0.0
C3019 C 0.17988 0.62211 0.28808 0.0
C3020 C 0.17868 0.62948 0.26533 0.0
C3021 C 0.18987 0.65163 0.26171 0.0
C3022 C 0.19288 0.63047 0.33151 0.0
C3023 C 0.1663 0.61372 0.24468 0.0
H3024 H 0.1877 0.54628 0.28654 0.0
H3025 H 0.11896 0.56073 0.29707 0.0
H3026 H 0.21322 0.59711 0.26947 0.0
H3027 H 0.22112 0.60222 0.30018 0.0
H3028 H 0.22164 0.57478 0.28632 0.0
H3029 H 0.1123 0.59826 0.302 0.0
H3030 H 0.13808 0.6206 0.31069 0.0
H3031 H 0.1268 0.61454 0.28066 0.0
H3032 H 0.21256 0.67078 0.31727 0.0
H3033 H 0.18901 0.65717 0.24425 0.0
H3034 H 0.2066 0.61971 0.33401 0.0
H3035 H 0.17555 0.62033 0.3349 0.0
H3036 H 0.19804 0.64536 0.34444 0.0
H3037 H 0.17599 0.59951 0.24245 0.0
H3038 H 0.1655 0.62254 0.22837 0.0
H3039 H 0.14777 0.60617 0.24758 0.0
C3040 C 0.53085 0.67743 0.45413 0.0
C3041 C 0.5356 0.70122 0.45542 0.0
C3042 C 0.5411 0.66562 0.47159 0.0
C3043 C 0.5566 0.67793 0.49067 0.0
C3044 C 0.56108 0.70194 0.49229 0.0
C3045 C 0.55045 0.71331 0.47468 0.0
C3046 C 0.53564 0.63994 0.46943 0.0
C3047 C 0.57767 0.71561 0.51221 0.0
C3048 C 0.56425 0.64119 0.54063 0.0
C3049 C 0.58414 0.63231 0.53552 0.0
C3050 C 0.55622 0.6578 0.52737 0.0
C3051 C 0.56834 0.66538 0.50853 0.0
C3052 C 0.58986 0.65807 0.50487 0.0
C3053 C 0.59748 0.64145 0.51843 0.0
C3054 C 0.53349 0.66555 0.53208 0.0
C3055 C 0.60343 0.66592 0.4851 0.0
H3056 H 0.51938 0.66803 0.43933 0.0
H3057 H 0.55431 0.73174 0.47575 0.0
H3058 H 0.55232 0.63341 0.46771 0.0
H3059 H 0.52874 0.63344 0.48531 0.0
H3060 H 0.52222 0.63296 0.45423 0.0
H3061 H 0.57782 0.73413 0.51184 0.0
H3062 H 0.57236 0.70996 0.52902 0.0
H3063 H 0.59618 0.71276 0.51149 0.0
H3064 H 0.5537 0.63361 0.55355 0.0
H3065 H 0.6125 0.63405 0.51417 0.0
H3066 H 0.51948 0.66025 0.51699 0.0
H3067 H 0.53666 0.68437 0.53438 0.0
H3068 H 0.52659 0.65846 0.54778 0.0
H3069 H 0.59343 0.65746 0.46852 0.0
H3070 H 0.62163 0.66171 0.48695 0.0
H3071 H 0.60512 0.68453 0.48396 0.0
C3072 C 0.68824 0.36039 0.6816 0.0
C3073 C 0.66867 0.36965 0.6871 0.0
C3074 C 0.70786 0.36045 0.69846 0.0
C3075 C 0.70757 0.36971 0.72128 0.0
C3076 C 0.68933 0.38157 0.72603 0.0
C3077 C 0.67008 0.38151 0.70879 0.0
C3078 C 0.72754 0.34839 0.69249 0.0
C3079 C 0.68866 0.39207 0.75 0.0
C3080 C 0.73137 0.33226 0.76465 0.0
C3081 C 0.75475 0.34412 0.77119 0.0
C3082 C 0.71525 0.34136 0.74973 0.0
C3083 C 0.72304 0.36259 0.74069 0.0
C3084 C 0.74622 0.37535 0.74851 0.0
C3085 C 0.76186 0.36594 0.76388 0.0
C3086 C 0.6905 0.32737 0.74221 0.0
C3087 C 0.75526 0.39792 0.73922 0.0
H3088 H 0.68747 0.3516 0.66472 0.0
H3089 H 0.65521 0.38911 0.71304 0.0
H3090 H 0.74536 0.35818 0.70013 0.0
H3091 H 0.72513 0.33153 0.69986 0.0
H3092 H 0.72739 0.34571 0.67345 0.0
H3093 H 0.67658 0.40461 0.74968 0.0
H3094 H 0.68199 0.37847 0.76118 0.0
H3095 H 0.70684 0.40061 0.75805 0.0
H3096 H 0.72617 0.31524 0.77016 0.0
H3097 H 0.78025 0.37479 0.76857 0.0
H3098 H 0.68895 0.32118 0.72371 0.0
H3099 H 0.67668 0.33792 0.74383 0.0
H3100 H 0.68653 0.31242 0.7526 0.0
H3101 H 0.76119 0.39488 0.72205 0.0
H3102 H 0.77077 0.40797 0.75088 0.0
H3103 H 0.74097 0.40811 0.73679 0.0
C3104 C 0.07326 0.33522 0.88001 0.0
C3105 C 0.07431 0.31772 0.89493 0.0
C3106 C 0.07677 0.35791 0.88906 0.0
C3107 C 0.08177 0.3629 0.91337 0.0
C3108 C 0.08682 0.34574 0.92787 0.0
C3109 C 0.08302 0.32329 0.91844 0.0
C3110 C 0.0722 0.37598 0.87295 0.0
C3111 C 0.09295 0.35044 0.9538 0.0
C3112 C 0.0883 0.42165 0.94372 0.0
C3113 C 0.065 0.42099 0.94935 0.0
C3114 C 0.09398 0.40331 0.93098 0.0
C3115 C 0.07599 0.38383 0.92409 0.0
C3116 C 0.05233 0.38334 0.9293 0.0
C3117 C 0.04716 0.40192 0.94185 0.0
C3118 C 0.11933 0.4046 0.92561 0.0
C3119 C 0.03257 0.36284 0.92232 0.0
H3120 H 0.06747 0.33111 0.86166 0.0
H3121 H 0.08474 0.30984 0.92992 0.0
H3122 H 0.05362 0.37879 0.87338 0.0
H3123 H 0.08458 0.39236 0.87848 0.0
H3124 H 0.07418 0.37084 0.85478 0.0
H3125 H 0.1004 0.33646 0.96194 0.0
H3126 H 0.1061 0.36655 0.95815 0.0
H3127 H 0.07649 0.35223 0.96152 0.0
H3128 H 0.10207 0.43655 0.94923 0.0
H3129 H 0.02921 0.40128 0.94635 0.0
H3130 H 0.11967 0.3965 0.90812 0.0
H3131 H 0.12902 0.39536 0.93842 0.0
H3132 H 0.12919 0.42246 0.9266 0.0
H3133 H 0.0308 0.35854 0.90336 0.0
H3134 H 1.01495 0.36565 0.92683 0.0
H3135 H 0.03704 0.34791 0.93114 0.0
C3136 C 0.0591 0.85935 0.20453 0.0
C3137 C 0.05093 0.85373 0.18089 0.0
C3138 C 0.0437 0.85445 0.22137 0.0
C3139 C 1.0195 0.84409 0.21435 0.0
C3140 C 1.01055 0.84069 0.19049 0.0
C3141 C 1.02643 0.8454 0.17399 0.0
C3142 C 0.05386 0.85848 0.24668 0.0
C3143 C 0.98461 0.83042 0.18241 0.0
C3144 C 0.99038 0.80139 0.25312 0.0
C3145 C 0.9769 0.81424 0.26493 0.0
C3146 C 1.00446 0.81105 0.23672 0.0
C3147 C 1.00462 0.83398 0.23177 0.0
C3148 C 0.99094 0.84702 0.24365 0.0
C3149 C 0.97728 0.83698 0.26021 0.0
C3150 C 1.0192 0.79672 0.2247 0.0
C3151 C 0.99013 0.87129 0.23845 0.0
H3152 H 0.07795 0.86598 0.21009 0.0
H3153 H 1.01987 0.84133 0.15575 0.0
H3154 H 0.04219 0.86709 0.25656 0.0
H3155 H 0.05453 0.84189 0.25409 0.0
H3156 H 0.07223 0.86896 0.24928 0.0
H3157 H 0.9797 0.8322 0.16365 0.0
H3158 H 0.98125 0.81204 0.18541 0.0
H3159 H 0.97268 0.83855 0.19243 0.0
H3160 H 0.98999 0.7838 0.25684 0.0
H3161 H 0.96641 0.84674 0.2691 0.0
H3162 H 0.03839 0.80509 0.22759 0.0
H3163 H 1.01348 0.79513 0.20572 0.0
H3164 H 1.0175 0.77938 0.23096 0.0
H3165 H 1.00829 0.88102 0.23701 0.0
H3166 H 0.9823 0.88023 0.25195 0.0
H3167 H 0.97898 0.87136 0.22155 0.0
C3168 C 0.59075 0.38249 0.12669 0.0
C3169 C 0.56879 0.36643 0.12213 0.0
C3170 C 0.59452 0.40478 0.11731 0.0
C3171 C 0.576 0.41276 0.10291 0.0
C3172 C 0.55375 0.39677 0.09868 0.0
C3173 C 0.55066 0.37449 0.10774 0.0
C3174 C 0.6189 0.41984 0.12258 0.0
C3175 C 0.53271 0.40324 0.08434 0.0
C3176 C 0.57871 0.47935 0.09466 0.0
C3177 C 0.58467 0.4829 0.07185 0.0
C3178 C 0.57597 0.45743 0.10463 0.0
C3179 C 0.57961 0.43722 0.09235 0.0
C3180 C 0.58601 0.44076 0.06946 0.0
C3181 C 0.58809 0.46278 0.05968 0.0
C3182 C 0.56856 0.45589 0.12857 0.0
C3183 C 0.59078 0.42098 0.05496 0.0
H3184 H 0.60547 0.37744 0.13725 0.0
H3185 H 0.53345 0.36317 0.10347 0.0
H3186 H 0.62597 0.42447 0.10614 0.0
H3187 H 0.6175 0.43588 0.13219 0.0
H3188 H 0.63189 0.41153 0.13302 0.0
H3189 H 0.51611 0.39016 0.08369 0.0
H3190 H 0.52932 0.41966 0.09155 0.0
H3191 H 0.5368 0.40563 0.06638 0.0
H3192 H 0.57561 0.49387 0.10486 0.0
H3193 H 0.59261 0.46418 0.04219 0.0
H3194 H 0.58231 0.44969 0.14026 0.0
H3195 H 0.55156 0.44337 0.12792 0.0
H3196 H 0.56601 0.47251 0.13614 0.0
H3197 H 0.604 0.41259 0.06496 0.0
H3198 H 0.59767 0.42624 0.0386 0.0
H3199 H 0.57402 0.40815 0.05055 0.0
C3200 C 1.02076 0.28738 0.36282 0.0
C3201 C 1.02645 0.29541 0.38643 0.0
C3202 C 0.99797 0.28758 0.34968 0.0
C3203 C 0.97929 0.29553 0.36004 0.0
C3204 C 0.98486 0.30335 0.384 0.0
C3205 C 1.00785 0.30303 0.39668 0.0
C3206 C 0.99381 0.27903 0.32449 0.0
C3207 C 0.96635 0.31213 0.39643 0.0
C3208 C 0.92647 0.31426 0.3207 0.0
C3209 C 0.90718 0.29564 0.31946 0.0
C3210 C 0.94927 0.31456 0.33387 0.0
C3211 C 0.9542 0.29553 0.34605 0.0
C3212 C 0.93478 0.27655 0.34473 0.0
C3213 C 0.91185 0.27692 0.3319 0.0
C3214 C 0.96825 0.33553 0.33449 0.0
C3215 C 0.93816 0.25568 0.35707 0.0
H3216 H 0.03416 0.28051 0.35454 0.0
H3217 H 1.01132 0.30898 0.41486 0.0
H3218 H 0.97871 0.26425 0.32159 0.0
H3219 H 0.98871 0.29247 0.31363 0.0
H3220 H 1.00991 0.27383 0.31857 0.0
H3221 H 0.97303 0.3177 0.41489 0.0
H3222 H 0.9609 0.32671 0.38766 0.0
H3223 H 0.95008 0.29867 0.39568 0.0
H3224 H 0.92364 0.32906 0.31162 0.0
H3225 H 0.89751 0.26229 0.33155 0.0
H3226 H 0.98201 0.33159 0.32393 0.0
H3227 H 0.97691 0.34057 0.35251 0.0
H3228 H 0.96109 0.3501 0.32737 0.0
H3229 H 0.95321 0.24879 0.3509 0.0
H3230 H 0.92181 0.24214 0.35432 0.0
H3231 H 0.94296 0.26026 0.37596 0.0
C3232 C 0.07129 0.72511 0.60506 0.0
C3233 C 0.06498 0.7289 0.62759 0.0
C3234 C 0.07273 0.70293 0.59496 0.0
C3235 C 0.06643 0.68248 0.6066 0.0
C3236 C 0.0594 0.68628 0.62922 0.0
C3237 C 0.05946 0.70884 0.63936 0.0
C3238 C 0.08161 0.70201 0.57162 0.0
C3239 C 0.05145 0.66664 0.64338 0.0
C3240 C 0.05238 0.62558 0.56427 0.0
C3241 C 0.06846 0.61178 0.57318 0.0
C3242 C 0.05099 0.64747 0.57506 0.0
C3243 C 0.067 0.65778 0.59524 0.0
C3244 C 0.08364 0.64398 0.60407 0.0
C3245 C 0.08372 0.62157 0.59356 0.0
C3246 C 0.0317 0.65919 0.5644 0.0
C3247 C 0.10206 0.65269 0.62473 0.0
H3248 H 0.07601 0.73982 0.59529 0.0
H3249 H 0.05452 0.71062 0.65668 0.0
H3250 H 0.0886 0.68632 0.56797 0.0
H3251 H 0.0667 0.70296 0.55795 0.0
H3252 H 0.09604 0.71692 0.57044 0.0
H3253 H 0.03574 0.66939 0.65193 0.0
H3254 H 0.04664 0.65007 0.63299 0.0
H3255 H 0.06614 0.66595 0.65737 0.0
H3256 H 0.04017 0.61901 0.54877 0.0
H3257 H 0.09655 0.61194 0.60111 0.0
H3258 H 0.03774 0.66761 0.54901 0.0
H3259 H 1.02724 0.67209 0.57663 0.0
H3260 H 1.01508 0.64658 0.55822 0.0
H3261 H 0.10639 0.67154 0.62685 0.0
H3262 H 0.11889 0.6463 0.62324 0.0
H3263 H 0.09511 0.64621 0.64061 0.0
C3264 C 0.66189 0.81983 0.86834 0.0
C3265 C 0.65422 0.80619 0.88646 0.0
C3266 C 0.68286 0.81837 0.85725 0.0
C3267 C 0.69808 0.80274 0.86366 0.0
C3268 C 0.69077 0.78893 0.88208 0.0
C3269 C 0.66945 0.79071 0.89296 0.0
C3270 C 0.6886 0.83376 0.83815 0.0
C3271 C 0.70555 0.77189 0.89029 0.0
C3272 C 0.74094 0.78581 0.8187 0.0
C3273 C 0.76384 0.79968 0.82597 0.0
C3274 C 0.72015 0.78636 0.83061 0.0
C3275 C 0.7211 0.80107 0.85107 0.0
C3276 C 0.74418 0.81502 0.85855 0.0
C3277 C 0.76466 0.81419 0.84627 0.0
C3278 C 0.69679 0.77103 0.82102 0.0
C3279 C 0.74738 0.83117 0.87984 0.0
H3280 H 0.65113 0.83197 0.86234 0.0
H3281 H 0.6646 0.77962 0.90646 0.0
H3282 H 0.70674 0.8444 0.84267 0.0
H3283 H 0.68877 0.8234 0.82186 0.0
H3284 H 0.6755 0.84514 0.83487 0.0
H3285 H 0.69855 0.76278 0.90495 0.0
H3286 H 0.70579 0.75923 0.87579 0.0
H3287 H 0.72437 0.78058 0.89585 0.0
H3288 H 0.7391 0.77428 0.80338 0.0
H3289 H 0.78162 0.82514 0.85281 0.0
H3290 H 0.68307 0.78142 0.81621 0.0
H3291 H 0.69017 0.75993 0.8345 0.0
H3292 H 0.69848 0.76014 0.80553 0.0
H3293 H 0.73572 0.84389 0.87697 0.0
H3294 H 0.76621 0.84029 0.88437 0.0
H3295 H 0.74177 0.82172 0.8948 0.0
C3296 C 0.48584 0.55676 0.69209 0.0
C3297 C 0.4676 0.53754 0.68643 0.0
C3298 C 0.50243 0.56364 0.6768 0.0
C3299 C 0.50087 0.55081 0.65546 0.0
C3300 C 0.48252 0.53136 0.64961 0.0
C3301 C 0.46595 0.52501 0.66516 0.0
C3302 C 0.52159 0.58465 0.68344 0.0
C3303 C 0.48051 0.51721 0.62701 0.0
C3304 C 0.5297 0.57788 0.60587 0.0
C3305 C 0.55073 0.56893 0.60686 0.0
C3306 C 0.51351 0.5725 0.62191 0.0
C3307 C 0.51849 0.55776 0.63926 0.0
C3308 C 0.54009 0.54933 0.64089 0.0
C3309 C 0.55606 0.55512 0.62469 0.0
C3310 C 0.49075 0.582 0.61984 0.0
C3311 C 0.5459 0.53351 0.65917 0.0
H3312 H 0.48707 0.56661 0.70847 0.0
H3313 H 0.45188 0.51012 0.66078 0.0
H3314 H 0.53959 0.58017 0.68401 0.0
H3315 H 0.52036 0.59717 0.67018 0.0
H3316 H 0.5201 0.59289 0.70059 0.0
H3317 H 0.4653 0.50249 0.62517 0.0
H3318 H 0.47806 0.52785 0.61221 0.0
H3319 H 0.49732 0.51074 0.62581 0.0
H3320 H 0.52552 0.58862 0.59213 0.0
H3321 H 0.57221 0.54805 0.62545 0.0
H3322 H 0.48899 0.59088 0.63656 0.0
H3323 H 0.47501 0.56792 0.61584 0.0
H3324 H 0.49015 0.59409 0.60604 0.0
H3325 H 0.54531 0.5414 0.67669 0.0
H3326 H 0.56385 0.52911 0.65857 0.0
H3327 H 0.53224 0.51756 0.65671 0.0
C3328 C 0.78989 0.25436 0.96114 0.0
C3329 C 0.80107 0.23542 0.96168 0.0
C3330 C 0.78875 0.26692 0.94124 0.0
C3331 C 0.7994 0.26064 0.92163 0.0
C3332 C 0.81155 0.2421 0.92261 0.0
C3333 C 0.81202 0.22968 0.94242 0.0
C3334 C 0.77543 0.2864 0.94087 0.0
C3335 C 0.82368 0.23502 0.90248 0.0
C3336 C 0.7799 0.27427 0.85967 0.0
C3337 C 0.79828 0.2923 0.85616 0.0
C3338 C 0.77931 0.26463 0.88126 0.0
C3339 C 0.7977 0.27296 0.89984 0.0
C3340 C 0.81583 0.29166 0.89663 0.0
C3341 C 0.81582 0.30114 0.87498 0.0
C3342 C 0.75949 0.24488 0.88389 0.0
C3343 C 0.83602 0.30092 0.91569 0.0
H3344 H 0.78115 0.25873 0.97581 0.0
H3345 H 0.8208 0.21513 0.94273 0.0
H3346 H 0.7871 0.30207 0.93642 0.0
H3347 H 0.75972 0.28244 0.92724 0.0
H3348 H 0.76908 0.28985 0.95777 0.0
H3349 H 0.83339 0.22098 0.90643 0.0
H3350 H 0.81014 0.22933 0.88708 0.0
H3351 H 0.83661 0.2497 0.89774 0.0
H3352 H 0.76621 0.26728 0.84537 0.0
H3353 H 0.83022 0.31498 0.87261 0.0
H3354 H 0.7513 0.2479 0.89984 0.0
H3355 H 0.76699 0.22918 0.88569 0.0
H3356 H 0.74524 0.24192 0.86879 0.0
H3357 H 0.82885 0.30435 0.93213 0.0
H3358 H 0.84741 0.31682 0.91132 0.0
H3359 H 0.84748 0.28806 0.91881 0.0
C3360 C 0.09462 0.4726 0.20065 0.0
C3361 C 0.11828 0.48151 0.21046 0.0
C3362 C 0.08641 0.47662 0.17789 0.0
C3363 C 0.1023 0.48971 0.16466 0.0
C3364 C 0.1267 0.4971 0.1738 0.0
C3365 C 0.1344 0.49296 0.19667 0.0
C3366 C 0.06031 0.46834 0.16868 0.0
C3367 C 0.14429 0.5108 0.16005 0.0
C3368 C 0.08651 0.49517 0.10036 0.0
C3369 C 0.08056 0.51686 0.1005 0.0
C3370 C 0.09282 0.48564 0.12116 0.0
C3371 C 0.09298 0.49804 0.14251 0.0
C3372 C 0.08564 0.51934 0.14274 0.0
C3373 C 0.07959 0.52852 0.12172 0.0
C3374 C 0.10055 0.46291 0.12024 0.0
C3375 C 0.08527 0.53295 0.1652 0.0
H3376 H 0.08208 0.46361 0.21118 0.0
H3377 H 0.15275 0.49973 0.20409 0.0
H3378 H 0.05099 0.483 0.16818 0.0
H3379 H 0.05835 0.46055 0.15071 0.0
H3380 H 0.05122 0.45571 0.17966 0.0
H3381 H 0.16306 0.5129 0.16851 0.0
H3382 H 0.14305 0.50255 0.14234 0.0
H3383 H 0.13987 0.52792 0.1582 0.0
H3384 H 0.08736 0.48606 0.08401 0.0
H3385 H 0.07487 0.54521 0.12194 0.0
H3386 H 0.09151 0.4516 0.13236 0.0
H3387 H 0.12012 0.46541 0.12578 0.0
H3388 H 0.09663 0.45422 0.10252 0.0
H3389 H 0.0747 0.52235 0.17689 0.0
H3390 H 0.07751 0.54841 0.16241 0.0
H3391 H 0.10379 0.53827 0.17422 0.0
C3392 C 0.81763 0.9028 0.45257 0.0
C3393 C 0.81623 0.8932 0.47433 0.0
C3394 C 0.81956 0.8901 0.43151 0.0
C3395 C 0.82018 0.86642 0.43094 0.0
C3396 C 0.81853 0.8564 0.45272 0.0
C3397 C 0.81669 0.86961 0.47373 0.0
C3398 C 0.82128 0.90239 0.40963 0.0
C3399 C 0.81897 0.83146 0.45393 0.0
C3400 C 0.80557 0.83051 0.37 0.0
C3401 C 0.82825 0.82884 0.36326 0.0
C3402 C 0.80272 0.84199 0.39159 0.0
C3403 C 0.8229 0.85268 0.40785 0.0
C3404 C 0.84582 0.85095 0.40116 0.0
C3405 C 0.84815 0.8393 0.37952 0.0
C3406 C 0.77776 0.84278 0.39697 0.0
C3407 C 0.86824 0.86172 0.41695 0.0
H3408 H 0.81753 0.92079 0.45187 0.0
H3409 H 0.81591 0.86138 0.48983 0.0
H3410 H 0.83843 0.90122 0.40297 0.0
H3411 H 0.80659 0.8942 0.39601 0.0
H3412 H 0.82027 0.92063 0.41238 0.0
H3413 H 0.81669 0.82564 0.47149 0.0
H3414 H 0.80451 0.8213 0.44121 0.0
H3415 H 0.83624 0.828 0.44918 0.0
H3416 H 0.78972 0.82275 0.35827 0.0
H3417 H 0.86593 0.83852 0.37529 0.0
H3418 H 0.77531 0.86069 0.39842 0.0
H3419 H 0.77512 0.83573 0.41394 0.0
H3420 H 0.76376 0.83308 0.38347 0.0
H3421 H 0.86914 0.88034 0.4194 0.0
H3422 H 0.88475 0.85867 0.41004 0.0
H3423 H 0.8678 0.8549 0.43429 0.0
C3424 C 0.44218 0.54943 0.8079 0.0
C3425 C 0.41977 0.53486 0.80276 0.0
C3426 C 0.4558 0.55028 0.82961 0.0
C3427 C 0.44682 0.53615 0.84657 0.0
C3428 C 0.42311 0.52344 0.84246 0.0
C3429 C 0.40971 0.52317 0.82061 0.0
C3430 C 0.48076 0.56456 0.83349 0.0
C3431 C 0.41276 0.50838 0.86021 0.0
C3432 C 0.49529 0.51267 0.88188 0.0
C3433 C 0.49937 0.5267 0.90249 0.0
C3434 C 0.47752 0.51501 0.86398 0.0
C3435 C 0.46358 0.53196 0.86664 0.0
C3436 C 0.46707 0.54577 0.88763 0.0
C3437 C 0.48491 0.54294 0.90535 0.0
C3438 C 0.47427 0.49984 0.84186 0.0
C3439 C 0.45255 0.56399 0.89109 0.0
H3440 H 0.44986 0.55904 0.7944 0.0
H3441 H 0.39214 0.51241 0.81707 0.0
H3442 H 0.48437 0.57376 0.85091 0.0
H3443 H 0.49406 0.55331 0.8326 0.0
H3444 H 0.48359 0.57714 0.82024 0.0
H3445 H 0.39297 0.50324 0.85636 0.0
H3446 H 0.42056 0.49275 0.86021 0.0
H3447 H 0.41733 0.51702 0.87789 0.0
H3448 H 0.50653 0.50027 0.8794 0.0
H3449 H 0.48764 0.55357 0.92141 0.0
H3450 H 0.4792 0.51025 0.82731 0.0
H3451 H 0.45521 0.49139 0.83746 0.0
H3452 H 0.48543 0.48653 0.84316 0.0
H3453 H 0.45741 0.57772 0.87946 0.0
H3454 H 0.45563 0.57158 0.90924 0.0
H3455 H 0.43315 0.55696 0.88643 0.0
C3456 C 0.83546 0.2496 0.10575 0.0
C3457 C 0.81643 0.23148 0.09806 0.0
C3458 C 0.84128 0.25698 0.12949 0.0
C3459 C 0.82716 0.24667 0.146 0.0
C3460 C 0.8079 0.22835 0.13826 0.0
C3461 C 0.8031 0.22072 0.11453 0.0
C3462 C 0.86245 0.27602 0.13689 0.0
C3463 C 0.7917 0.21738 0.15488 0.0
C3464 C 0.8488 0.25634 0.21154 0.0
C3465 C 0.83885 0.27514 0.21776 0.0
C3466 C 0.84557 0.24709 0.18826 0.0
C3467 C 0.83129 0.25628 0.1709 0.0
C3468 C 0.82077 0.2749 0.17734 0.0
C3469 C 0.825 0.28426 0.20044 0.0
C3470 C 0.85768 0.22766 0.18219 0.0
C3471 C 0.80465 0.28478 0.15988 0.0
H3472 H 0.84603 0.25784 0.09319 0.0
H3473 H 0.7883 0.20677 0.10873 0.0
H3474 H 0.85615 0.29137 0.14314 0.0
H3475 H 0.87426 0.27111 0.1515 0.0
H3476 H 0.87318 0.28054 0.1225 0.0
H3477 H 0.77786 0.203 0.14631 0.0
H3478 H 0.80235 0.21102 0.16939 0.0
H3479 H 0.78258 0.23022 0.16254 0.0
H3480 H 0.85943 0.24911 0.22478 0.0
H3481 H 0.81681 0.2985 0.20509 0.0
H3482 H 0.86938 0.23246 0.16861 0.0
H3483 H 0.8441 0.21256 0.17495 0.0
H3484 H 0.86869 0.22282 0.19745 0.0
H3485 H 0.81489 0.29202 0.14608 0.0
H3486 H 0.79674 0.29837 0.1679 0.0
H3487 H 0.78986 0.27118 0.15142 0.0
C3488 C 0.09233 0.49078 0.35651 0.0
C3489 C 0.09308 0.47845 0.33567 0.0
C3490 C 0.07142 0.48816 0.3671 0.0
C3491 C 0.05089 0.4721 0.35706 0.0
C3492 C 0.05208 0.45834 0.33692 0.0
C3493 C 0.07306 0.46201 0.32618 0.0
C3494 C 0.07123 0.50333 0.38864 0.0
C3495 C 0.0313 0.44015 0.32618 0.0
C3496 C 1.01499 0.4721 0.40525 0.0
C3497 C 1.0051 0.49138 0.40014 0.0
C3498 C 1.02614 0.46163 0.38867 0.0
C3499 C 0.02823 0.4714 0.36729 0.0
C3500 C 1.0135 0.48699 0.36035 0.0
C3501 C 1.00149 0.49646 0.37687 0.0
C3502 C 0.03916 0.44285 0.39554 0.0
C3503 C 1.01374 0.49655 0.33691 0.0
H3504 H 0.10778 0.50334 0.36405 0.0
H3505 H 0.07367 0.45209 0.31024 0.0
H3506 H 0.05632 0.51281 0.38614 0.0
H3507 H 0.06847 0.49285 0.4036 0.0
H3508 H 0.08822 0.51589 0.39319 0.0
H3509 H 0.03787 0.42489 0.31999 0.0
H3510 H 1.01813 0.43493 0.33839 0.0
H3511 H 1.02202 0.44657 0.31081 0.0
H3512 H 1.017 0.46694 0.4228 0.0
H3513 H 0.99217 0.51009 0.37228 0.0
H3514 H 0.05678 0.45033 0.40561 0.0
H3515 H 0.04222 0.43261 0.38014 0.0
H3516 H 0.02876 0.43144 0.40674 0.0
H3517 H 0.03092 0.50859 0.33659 0.0
H3518 H 0.9988 0.50579 0.33291 0.0
H3519 H 1.01241 0.48276 0.32314 0.0
C3520 C 0.83325 0.89974 0.6358 0.0
C3521 C 0.81725 0.89026 0.61577 0.0
C3522 C 0.83479 0.88884 0.6574 0.0
C3523 C 0.81922 0.86781 0.66059 0.0
C3524 C 0.8025 0.85857 0.64053 0.0
C3525 C 0.80219 0.86932 0.61886 0.0
C3526 C 0.85368 0.90016 0.67676 0.0
C3527 C 0.78437 0.83707 0.64148 0.0
C3528 C 0.82954 0.82304 0.70749 0.0
C3529 C 0.82289 0.83189 0.72832 0.0
C3530 C 0.82915 0.83451 0.68626 0.0
C3531 C 0.82063 0.85551 0.68422 0.0
C3532 C 0.81342 0.86428 0.70521 0.0
C3533 C 0.81517 0.85291 0.7265 0.0
C3534 C 0.83837 0.8237 0.66609 0.0
C3535 C 0.80335 0.88578 0.70577 0.0
H3536 H 0.84536 0.91566 0.63447 0.0
H3537 H 0.78955 0.86123 0.60418 0.0
H3538 H 0.84604 0.91217 0.68742 0.0
H3539 H 0.86006 0.88765 0.68815 0.0
H3540 H 0.86933 0.91014 0.66984 0.0
H3541 H 0.76719 0.83791 0.63082 0.0
H3542 H 0.79113 0.8225 0.63398 0.0
H3543 H 0.78071 0.83374 0.65941 0.0
H3544 H 0.83582 0.80706 0.70784 0.0
H3545 H 0.80973 0.86035 0.74177 0.0
H3546 H 0.84449 0.83613 0.65355 0.0
H3547 H 0.8239 0.81022 0.65696 0.0
H3548 H 0.85352 0.81539 0.67226 0.0
H3549 H 0.81724 0.89985 0.71479 0.0
H3550 H 0.78792 0.88382 0.71592 0.0
H3551 H 0.79736 0.89064 0.68824 0.0
C3552 C 0.76193 0.42983 0.52623 0.0
C3553 C 0.77513 0.4188 0.54229 0.0
C3554 C 0.74595 0.44309 0.53329 0.0
C3555 C 0.74304 0.44537 0.55705 0.0
C3556 C 0.75444 0.43241 0.57298 0.0
C3557 C 0.77043 0.41921 0.5654 0.0
C3558 C 0.73393 0.45632 0.51561 0.0
C3559 C 0.75134 0.43395 0.59834 0.0
C3560 C 0.73204 0.50387 0.57506 0.0
C3561 C 0.70702 0.49996 0.57366 0.0
C3562 C 0.74407 0.48597 0.57083 0.0
C3563 C 0.73075 0.46356 0.5653 0.0
C3564 C 0.70559 0.45933 0.5652 0.0
C3565 C 0.69403 0.47762 0.56922 0.0
C3566 C 0.77094 0.49126 0.57103 0.0
C3567 C 0.6907 0.43574 0.55973 0.0
H3568 H 0.76545 0.42943 0.50832 0.0
H3569 H 0.78071 0.41084 0.57792 0.0
H3570 H 0.71455 0.45433 0.51715 0.0
H3571 H 0.7419 0.47469 0.51886 0.0
H3572 H 0.73602 0.45082 0.49757 0.0
H3573 H 0.75778 0.42002 0.60755 0.0
H3574 H 0.7617 0.45043 0.60664 0.0
H3575 H 0.73226 0.43336 0.60057 0.0
H3576 H 0.74215 0.52111 0.5784 0.0
H3577 H 0.67472 0.47451 0.56854 0.0
H3578 H 0.77542 0.48819 0.55325 0.0
H3579 H 0.7795 0.47987 0.58228 0.0
H3580 H 0.77882 0.50918 0.57727 0.0
H3581 H 0.68829 0.43154 0.54072 0.0
H3582 H 0.67269 0.43442 0.56546 0.0
H3583 H 0.69975 0.42284 0.56808 0.0
C3584 C 0.28102 0.11882 0.53868 0.0
C3585 C 0.28507 0.14118 0.53136 0.0
C3586 C 0.25744 0.10599 0.53987 0.0
C3587 C 0.23653 0.11553 0.53441 0.0
C3588 C 0.24058 0.1382 0.52729 0.0
C3589 C 0.26431 0.15051 0.52595 0.0
C3590 C 0.25493 0.08206 0.54728 0.0
C3591 C 0.21965 0.14976 0.5213 0.0
C3592 C 0.17228 0.07706 0.51908 0.0
C3593 C 0.16185 0.07754 0.53993 0.0
C3594 C 0.19601 0.08898 0.51711 0.0
C3595 C 0.21074 0.10216 0.5364 0.0
C3596 C 0.2003 0.10272 0.55752 0.0
C3597 C 0.17649 0.0906 0.55902 0.0
C3598 C 0.20548 0.08699 0.4942 0.0
C3599 C 0.21427 0.11655 0.5787 0.0
H3600 H 0.29645 0.11143 0.54411 0.0
H3601 H 0.26663 0.1678 0.52079 0.0
H3602 H 0.24609 0.08065 0.56325 0.0
H3603 H 0.24333 0.07012 0.53361 0.0
H3604 H 0.27249 0.07668 0.55064 0.0
H3605 H 0.22534 0.16732 0.51615 0.0
H3606 H 0.20714 0.13977 0.50684 0.0
H3607 H 0.20958 0.15048 0.53641 0.0
H3608 H 0.16176 0.06731 0.50397 0.0
H3609 H 0.16921 0.09166 0.57531 0.0
H3610 H 0.21875 0.07569 0.49572 0.0
H3611 H 0.21473 0.10378 0.4896 0.0
H3612 H 0.1911 0.07967 0.47991 0.0
H3613 H 0.23134 0.11064 0.58337 0.0
H3614 H 0.20411 0.11543 0.59387 0.0
H3615 H 0.21893 0.13466 0.57489 0.0
C3616 C 0.31353 0.01754 0.89357 0.0
C3617 C 0.29463 0.01794 0.87593 0.0
C3618 C 0.32949 1.00261 0.89146 0.0
C3619 C 0.32658 0.98792 0.87116 0.0
C3620 C 0.30674 0.98728 0.85397 0.0
C3621 C 0.29099 1.00224 0.8566 0.0
C3622 C 0.3501 1.00344 0.91039 0.0
C3623 C 0.3028 0.97156 0.83216 0.0
C3624 C 0.37522 0.96862 0.84197 0.0
C3625 C 0.36934 0.94511 0.84379 0.0
C3626 C 0.36315 0.98343 0.85315 0.0
C3627 C 0.345 0.97441 0.86656 0.0
C3628 C 0.34159 0.95122 0.87121 0.0
C3629 C 0.35376 0.93675 0.85966 0.0
C3630 C 0.36777 1.00822 0.84826 0.0
C3631 C 0.32302 0.94106 0.88606 0.0
H3632 H 0.31645 0.02947 0.90871 0.0
H3633 H 0.27637 1.00222 0.84298 0.0
H3634 H 0.35329 0.98611 0.91363 0.0
H3635 H 0.36668 1.01323 0.90494 0.0
H3636 H 0.34692 1.01182 0.92689 0.0
H3637 H 0.28589 0.9724 0.82104 0.0
H3638 H 0.31794 0.97615 0.82192 0.0
H3639 H 0.30223 0.95374 0.83665 0.0
H3640 H 0.38772 0.97521 0.83019 0.0
H3641 H 0.34913 0.91861 0.86134 0.0
H3642 H 0.36838 0.01921 0.8643 0.0
H3643 H 0.35291 1.0115 0.83565 0.0
H3644 H 0.38484 1.0132 0.84085 0.0
H3645 H 0.32187 0.95315 0.90077 0.0
H3646 H 0.32703 0.92509 0.89302 0.0
H3647 H 0.30521 0.93699 0.87539 0.0
C3648 C 0.39433 0.95782 0.05103 0.0
C3649 C 0.39117 0.93605 0.03984 0.0
C3650 C 0.41619 0.97331 0.05216 0.0
C3651 C 0.43566 0.96665 0.04244 0.0
C3652 C 0.43251 0.94461 0.03112 0.0
C3653 C 0.41036 0.92954 0.03009 0.0
C3654 C 0.41856 0.99669 0.06408 0.0
C3655 C 0.45262 0.93688 0.02023 0.0
C3656 C 0.48548 1.01393 0.02921 0.0
C3657 C 0.50326 1.01421 0.04794 0.0
C3658 C 0.46391 0.99807 0.02683 0.0
C3659 C 0.45928 0.98273 0.04418 0.0
C3660 C 0.47717 0.98303 0.0633 0.0
C3661 C 0.49915 0.99851 0.06474 0.0
C3662 C 0.44603 0.99805 1.00578 0.0
C3663 C 0.47308 0.96699 0.0822 0.0
H3664 H 0.37986 0.96254 0.05945 0.0
H3665 H 0.40806 0.91256 0.02178 0.0
H3666 H 0.43317 0.9994 0.07881 0.0
H3667 H 0.42343 1.00982 0.05181 0.0
H3668 H 0.40174 0.99925 0.07069 0.0
H3669 H 0.4472 0.91938 1.01176 0.0
H3670 H 0.4587 0.94865 1.00709 0.0
H3671 H 0.46818 0.93733 0.03364 0.0
H3672 H 0.48869 0.02574 1.01593 0.0
H3673 H 0.51299 0.99855 0.07914 0.0
H3674 H 0.43814 0.98044 0.99864 0.0
H3675 H 0.45405 1.00767 0.99188 0.0
H3676 H 0.43154 1.00621 1.01107 0.0
H3677 H 0.45711 0.96968 0.09031 0.0
H3678 H 0.48871 0.96936 0.09592 0.0
H3679 H 0.46939 0.94913 0.07472 0.0
C3680 C 0.95351 0.67477 0.81677 0.0
C3681 C 0.97486 0.66986 0.80997 0.0
C3682 C 0.93766 0.684 0.80161 0.0
C3683 C 0.94358 0.68909 0.77928 0.0
C3684 C 0.96628 0.68667 0.77328 0.0
C3685 C 0.98164 0.67689 0.78864 0.0
C3686 C 0.91366 0.68638 0.80882 0.0
C3687 C 0.97363 0.69276 0.74999 0.0
C3688 C 0.88703 0.68071 0.73692 0.0
C3689 C 0.88159 0.70253 0.73823 0.0
C3690 C 0.90845 0.67645 0.74857 0.0
C3691 C 0.92479 0.69449 0.76174 0.0
C3692 C 0.92056 0.71694 0.76106 0.0
C3693 C 0.89903 0.72071 0.74927 0.0
C3694 C 0.91236 0.65224 0.74875 0.0
C3695 C 0.93739 0.73666 0.77489 0.0
H3696 H 0.94822 0.66978 0.83334 0.0
H3697 H 0.99817 0.67339 0.78323 0.0
H3698 H 0.91009 0.70363 0.80597 0.0
H3699 H 0.89923 0.67402 0.79805 0.0
H3700 H 0.91256 0.68323 0.82734 0.0
H3701 H 0.99337 0.69531 0.75018 0.0
H3702 H 0.9652 0.67878 0.73674 0.0
H3703 H 0.96748 0.70843 0.74464 0.0
H3704 H 0.87376 0.66667 0.7282 0.0
H3705 H 0.89497 0.73763 0.75067 0.0
H3706 H 0.91013 0.64598 0.76614 0.0
H3707 H 0.93084 0.65135 0.74537 0.0
H3708 H 0.8995 0.64067 0.73563 0.0
H3709 H 0.93499 0.75317 0.76808 0.0
H3710 H 0.95634 0.7349 0.77487 0.0
H3711 H 0.93363 0.73703 0.79315 0.0
C3712 C 0.92893 0.64005 0.05804 0.0
C3713 C 0.91552 0.64217 0.03641 0.0
C3714 C 0.94985 0.6294 0.06014 0.0
C3715 C 0.95892 0.62053 0.04026 0.0
C3716 C 0.94581 0.62326 0.01847 0.0
C3717 C 0.92473 0.63337 0.01691 0.0
C3718 C 0.96193 0.62698 0.08402 0.0
C3719 C 0.95398 0.61522 0.99633 0.0
C3720 C 1.02584 0.60904 0.04374 0.0
C3721 C 1.02362 0.58502 0.04333 0.0
C3722 C 1.0056 0.62048 0.04281 0.0
C3723 C 0.98145 0.60828 0.04199 0.0
C3724 C 0.97914 0.58404 0.04195 0.0
C3725 C 0.99964 0.573 0.0423 0.0
C3726 C 1.01019 0.64598 0.04222 0.0
C3727 C 0.95466 0.56947 0.04156 0.0
H3728 H 0.92251 0.64591 0.07361 0.0
H3729 H 0.91516 0.63426 0.9999 0.0
H3730 H 0.96142 0.6087 0.08663 0.0
H3731 H 0.98106 0.63542 0.08577 0.0
H3732 H 0.95329 0.63444 0.09788 0.0
H3733 H 0.94356 0.62004 0.98068 0.0
H3734 H 0.97324 0.62247 0.99613 0.0
H3735 H 0.95202 0.59644 0.99534 0.0
H3736 H 0.04366 0.61917 0.04433 0.0
H3737 H 0.99674 0.55462 0.04197 0.0
H3738 H 1.00341 0.65371 0.0572 0.0
H3739 H 1.00028 0.65073 0.02625 0.0
H3740 H 0.02953 0.65336 0.04268 0.0
H3741 H 0.94554 0.57566 0.05574 0.0
H3742 H 0.95546 0.5513 0.04349 0.0
H3743 H 0.9435 0.57078 0.02497 0.0
C3744 C 0.28314 0.13111 0.86016 0.0
C3745 C 0.26012 0.12391 0.86612 0.0
C3746 C 0.29136 0.15377 0.85612 0.0
C3747 C 0.27597 0.16956 0.85772 0.0
C3748 C 0.25316 0.16268 0.86504 0.0
C3749 C 0.24528 0.1397 0.86882 0.0
C3750 C 0.31595 0.16043 0.84867 0.0
C3751 C 0.2368 0.17939 0.86793 0.0
C3752 C 0.3087 0.22953 0.8526 0.0
C3753 C 0.30376 0.23153 0.82874 0.0
C3754 C 0.29805 0.2102 0.86284 0.0
C3755 C 0.28278 0.19221 0.84869 0.0
C3756 C 0.27681 0.1947 0.82477 0.0
C3757 C 0.28716 0.21449 0.81515 0.0
C3758 C 0.30433 0.2087 0.8885 0.0
C3759 C 0.26075 0.17584 0.809 0.0
H3760 H 0.29435 0.11872 0.85748 0.0
H3761 H 0.22741 0.13398 0.87332 0.0
H3762 H 0.31427 0.16589 0.83071 0.0
H3763 H 0.32659 0.17501 0.86009 0.0
H3764 H 0.32599 0.14625 0.84922 0.0
H3765 H 0.22082 0.17193 0.87608 0.0
H3766 H 0.24664 0.19476 0.87876 0.0
H3767 H 0.23069 0.18499 0.85077 0.0
H3768 H 0.32111 0.24295 0.86328 0.0
H3769 H 0.2831 0.21612 0.79672 0.0
H3770 H 0.32079 0.20143 0.89144 0.0
H3771 H 0.28978 0.19775 0.89605 0.0
H3772 H 0.30814 0.22584 0.89787 0.0
H3773 H 0.26968 0.16096 0.80783 0.0
H3774 H 0.25654 0.18111 0.79121 0.0
H3775 H 0.2437 0.1702 0.81617 0.0
C3776 C 0.49868 0.04919 0.35597 0.0
C3777 C 0.4882 0.06495 0.34348 0.0
C3778 C 0.48731 0.02619 0.35469 0.0
C3779 C 0.46511 0.01889 0.34043 0.0
C3780 C 0.45426 0.03494 0.32827 0.0
C3781 C 0.46617 0.05765 0.32959 0.0
C3782 C 0.4991 1.00963 0.36831 0.0
C3783 C 0.43023 0.02804 0.31354 0.0
C3784 C 0.44431 0.95837 0.31366 0.0
C3785 C 0.4269 0.94965 0.32759 0.0
C3786 C 0.45764 0.98061 0.31831 0.0
C3787 C 0.45348 0.99439 0.33735 0.0
C3788 C 0.43673 0.98516 0.35209 0.0
C3789 C 0.42355 0.96302 0.34691 0.0
C3790 C 0.47573 0.98957 0.30247 0.0
C3791 C 0.43176 0.99843 0.37302 0.0
H3792 H 0.51589 0.05481 0.36648 0.0
H3793 H 0.45851 0.06964 0.31919 0.0
H3794 H 0.48685 1.00141 0.38018 0.0
H3795 H 0.50259 0.99598 0.35633 0.0
H3796 H 0.51627 0.01799 0.37871 0.0
H3797 H 0.4239 0.04274 0.30576 0.0
H3798 H 0.43135 1.01538 0.29935 0.0
H3799 H 0.41671 0.01984 0.32424 0.0
H3800 H 0.44705 0.94802 0.29877 0.0
H3801 H 0.41054 0.95615 0.35811 0.0
H3802 H 0.49325 0.99689 0.31279 0.0
H3803 H 0.46967 1.00342 0.29286 0.0
H3804 H 0.47834 0.97614 0.28969 0.0
H3805 H 0.4134 1.002 0.36962 0.0
H3806 H 0.44468 1.01461 0.37758 0.0
H3807 H 0.4321 0.98798 0.38823 0.0
C3808 C 0.58122 0.39011 0.5777 0.0
C3809 C 0.59363 0.39109 0.6001 0.0
C3810 C 0.57902 0.41003 0.56678 0.0
C3811 C 0.58929 0.43133 0.57867 0.0
C3812 C 0.60274 0.43242 0.60082 0.0
C3813 C 0.60486 0.41227 0.61122 0.0
C3814 C 0.56496 0.4083 0.54294 0.0
C3815 C 0.6141 0.45492 0.61395 0.0
C3816 C 0.60017 0.48663 0.55007 0.0
C3817 C 0.58118 0.49647 0.55625 0.0
C3818 C 0.60224 0.46472 0.55598 0.0
C3819 C 0.58511 0.45263 0.5687 0.0
C3820 C 0.56526 0.46204 0.57399 0.0
C3821 C 0.56341 0.48387 0.5675 0.0
C3822 C 0.62323 0.45487 0.54949 0.0
C3823 C 0.54679 0.44967 0.58778 0.0
H3824 H 0.57272 0.37378 0.56887 0.0
H3825 H 0.61455 0.4132 0.62849 0.0
H3826 H 0.54803 0.41453 0.54411 0.0
H3827 H 0.57521 0.41919 0.53125 0.0
H3828 H 0.56047 0.39055 0.53502 0.0
H3829 H 0.62449 0.45277 0.63076 0.0
H3830 H 0.62627 0.46531 0.60338 0.0
H3831 H 0.59999 0.46464 0.6174 0.0
H3832 H 0.61379 0.49628 0.54109 0.0
H3833 H 0.54876 0.4915 0.57232 0.0
H3834 H 0.61668 0.43851 0.53896 0.0
H3835 H 0.63411 0.45116 0.56536 0.0
H3836 H 0.63495 0.46651 0.53951 0.0
H3837 H 0.53981 0.43212 0.57993 0.0
H3838 H 0.53149 0.45852 0.58883 0.0
H3839 H 0.55528 0.4483 0.60566 0.0
C3840 C 0.44099 0.72054 0.35715 0.0
C3841 C 0.45376 0.7338 0.37657 0.0
C3842 C 0.41899 0.72514 0.34702 0.0
C3843 C 0.40912 0.74263 0.35746 0.0
C3844 C 0.41982 0.75276 0.37955 0.0
C3845 C 0.44238 0.74885 0.38841 0.0
C3846 C 0.40648 0.71125 0.32525 0.0
C3847 C 0.40819 0.76832 0.39378 0.0
C3848 C 0.38009 0.78234 0.31977 0.0
C3849 C 0.35698 0.76974 0.3132 0.0
C3850 C 0.3966 0.77441 0.33535 0.0
C3851 C 0.39029 0.75259 0.34389 0.0
C3852 C 0.36635 0.74046 0.33855 0.0
C3853 C 0.35009 0.74906 0.32303 0.0
C3854 C 0.41978 0.79074 0.34385 0.0
C3855 C 0.35697 0.7192 0.35 0.0
H3856 H 0.44844 0.70694 0.34968 0.0
H3857 H 0.45126 0.75795 0.40458 0.0
H3858 H 0.38994 0.70017 0.32914 0.0
H3859 H 0.40135 0.72244 0.31169 0.0
H3860 H 0.41766 0.6999 0.3183 0.0
H3861 H 0.41948 0.78562 0.39607 0.0
H3862 H 0.38977 0.76931 0.38611 0.0
H3863 H 0.40732 0.76218 0.4114 0.0
H3864 H 0.38512 0.79904 0.31347 0.0
H3865 H 0.33181 0.73974 0.31903 0.0
H3866 H 0.42515 0.80257 0.33051 0.0
H3867 H 0.43475 0.78213 0.34937 0.0
H3868 H 0.4169 0.80146 0.35895 0.0
H3869 H 0.35068 0.70485 0.33659 0.0
H3870 H 0.34108 0.72166 0.3584 0.0
H3871 H 0.37031 0.71448 0.36333 0.0
C3872 C 0.10329 0.78182 0.17596 0.0
C3873 C 0.10944 0.79405 0.15696 0.0
C3874 C 0.10367 0.75846 0.17598 0.0
C3875 C 0.11037 0.74723 0.15653 0.0
C3876 C 0.11621 0.75954 0.13717 0.0
C3877 C 0.11619 0.78291 0.13787 0.0
C3878 C 0.0975 0.74596 0.19697 0.0
C3879 C 0.12303 0.74813 0.11588 0.0
C3880 C 0.13859 0.69513 0.15638 0.0
C3881 C 0.11979 0.67882 0.14441 0.0
C3882 C 0.1352 0.71713 0.16247 0.0
C3883 C 0.11248 0.72288 0.15647 0.0
C3884 C 0.09288 0.70571 0.14691 0.0
C3885 C 0.0968 0.68396 0.14081 0.0
C3886 C 0.15641 0.73468 0.17359 0.0
C3887 C 0.06815 0.71052 0.14075 0.0
H3888 H 0.09856 0.79064 0.19095 0.0
H3889 H 0.122 0.79261 0.12367 0.0
H3890 H 0.08289 0.73103 0.1918 0.0
H3891 H 0.1133 0.73944 0.20481 0.0
H3892 H 0.09182 0.75697 0.21033 0.0
H3893 H 0.12589 0.75989 0.1019 0.0
H3894 H 0.13974 0.7416 0.12048 0.0
H3895 H 0.10875 0.73337 0.10906 0.0
H3896 H 0.15629 0.69107 0.15987 0.0
H3897 H 0.08208 0.67157 0.13157 0.0
H3898 H 0.15124 0.7451 0.18775 0.0
H3899 H 0.16279 0.74633 0.16046 0.0
H3900 H 0.17151 0.72675 0.18073 0.0
H3901 H 0.06485 0.72499 0.15168 0.0
H3902 H 0.05425 0.69534 0.1425 0.0
H3903 H 0.06619 0.71452 0.12234 0.0
C3904 C 0.09204 0.20973 0.85705 0.0
C3905 C 0.09149 0.22416 0.87657 0.0
C3906 C 0.11382 0.20817 0.84906 0.0
C3907 C 0.1351 0.22173 0.86074 0.0
C3908 C 0.13493 0.23256 0.88287 0.0
C3909 C 0.11287 0.23373 0.89063 0.0
C3910 C 0.11357 0.19514 0.82617 0.0
C3911 C 0.15762 0.24589 0.8965 0.0
C3912 C 0.19224 0.22876 0.8323 0.0
C3913 C 0.19056 0.24822 0.82024 0.0
C3914 C 0.17434 0.21964 0.8456 0.0
C3915 C 0.15451 0.23043 0.84693 0.0
C3916 C 0.15267 0.24994 0.83455 0.0
C3917 C 0.17072 0.25856 0.82139 0.0
C3918 C 0.17726 0.19892 0.85846 0.0
C3919 C 0.13173 0.26198 0.83531 0.0
H3920 H 0.0754 0.2018 0.84655 0.0
H3921 H 0.1124 0.24456 0.906 0.0
H3922 H 0.11403 0.20707 0.81218 0.0
H3923 H 0.12955 0.1871 0.82631 0.0
H3924 H 0.09715 0.18178 0.82203 0.0
H3925 H 0.15546 0.2489 0.91506 0.0
H3926 H 0.17272 0.23683 0.89524 0.0
H3927 H 0.1623 0.26265 0.8892 0.0
H3928 H 0.20757 0.22064 0.83139 0.0
H3929 H 0.16961 0.27383 0.81248 0.0
H3930 H 0.18533 0.18711 0.84793 0.0
H3931 H 0.16011 0.18951 0.86312 0.0
H3932 H 0.18972 0.20435 0.87467 0.0
H3933 H 0.1147 0.25006 0.82895 0.0
H3934 H 0.13309 0.27685 0.82457 0.0
H3935 H 0.13072 0.26804 0.85343 0.0
C3936 C 0.59737 0.72804 0.97343 0.0
C3937 C 0.58458 0.73067 0.95157 0.0
C3938 C 0.59675 0.70641 0.98375 0.0
C3939 C 0.58204 0.6855 0.9731 0.0
C3940 C 0.56871 0.68818 0.95116 0.0
C3941 C 0.57049 0.70992 0.94082 0.0
C3942 C 0.61245 0.70643 1.00639 0.0
C3943 C 0.55192 0.66807 0.93807 0.0
C3944 C 0.58895 0.62135 0.98579 0.0
C3945 C 0.57856 0.61648 1.00647 0.0
C3946 C 0.59055 0.643 0.97536 0.0
C3947 C 0.5807 0.66147 0.98463 0.0
C3948 C 0.56966 0.6564 1.00528 0.0
C3949 C 0.56923 0.63489 1.01584 0.0
C3950 C 0.60339 0.64575 0.95421 0.0
C3951 C 0.55781 0.67363 1.01675 0.0
H3952 H 0.60852 0.74315 0.98264 0.0
H3953 H 0.56012 0.71062 0.92416 0.0
H3954 H 0.60294 0.71141 0.0208 0.0
H3955 H 0.61708 0.68955 1.00931 0.0
H3956 H 0.62933 0.71916 1.00707 0.0
H3957 H 0.53594 0.67342 0.92894 0.0
H3958 H 0.56123 0.66084 0.92466 0.0
H3959 H 0.54577 0.65456 0.94953 0.0
H3960 H 0.5966 0.60817 0.97773 0.0
H3961 H 0.56103 0.63245 0.03161 0.0
H3962 H 0.61057 0.66383 0.95174 0.0
H3963 H 0.59072 0.63832 0.93868 0.0
H3964 H 0.61844 0.63636 0.95534 0.0
H3965 H 0.57045 0.68303 0.03144 0.0
H3966 H 0.54169 0.66505 0.02402 0.0
H3967 H 0.5524 0.68602 1.00466 0.0
C3968 C 0.1576 0.81565 0.68143 0.0
C3969 C 0.13631 0.80938 0.69161 0.0
C3970 C 0.18094 0.81601 0.69358 0.0
C3971 C 0.184 0.80998 0.717 0.0
C3972 C 0.16254 0.80352 0.72734 0.0
C3973 C 0.13938 0.80289 0.7146 0.0
C3974 C 0.20249 0.8224 0.68097 0.0
C3975 C 0.16402 0.79704 0.75206 0.0
C3976 C 0.24251 0.78975 0.74304 0.0
C3977 C 0.25705 0.80951 0.75504 0.0
C3978 C 0.21935 0.78974 0.73064 0.0
C3979 C 0.20931 0.80984 0.73024 0.0
C3980 C 0.22389 0.8298 0.74244 0.0
C3981 C 0.24723 0.82946 0.75428 0.0
C3982 C 0.20571 0.76805 0.71752 0.0
C3983 C 0.21459 0.85166 0.74347 0.0
H3984 H 0.156 0.82015 0.6636 0.0
H3985 H 0.12351 0.79677 0.72261 0.0
H3986 H 0.21479 0.83746 0.69022 0.0
H3987 H 0.21254 0.80825 0.68076 0.0
H3988 H 0.1975 0.82633 0.66282 0.0
H3989 H 0.1461 0.79292 0.75804 0.0
H3990 H 0.17273 0.78207 0.75382 0.0
H3991 H 0.17529 0.81121 0.76363 0.0
H3992 H 0.24945 0.77413 0.74294 0.0
H3993 H 0.25773 0.84497 0.76328 0.0
H3994 H 0.20135 0.77104 0.69899 0.0
H3995 H 0.18849 0.76253 0.72444 0.0
H3996 H 0.21596 0.75403 0.71862 0.0
H3997 H 0.2085 0.85602 0.72577 0.0
H3998 H 0.22823 0.86612 0.75219 0.0
H3999 H 0.19888 0.84933 0.75315 0.0
C4000 C 0.08614 0.36728 0.46743 0.0
C4001 C 0.09571 0.36618 0.44604 0.0
C4002 C 0.08377 0.38851 0.47928 0.0
C4003 C 0.09131 0.41022 0.47032 0.0
C4004 C 0.10131 0.40914 0.449 0.0
C4005 C 0.10311 0.38781 0.43741 0.0
C4006 C 0.07241 0.3876 0.50135 0.0
C4007 C 0.10997 0.43084 0.43796 0.0
C4008 C 0.06634 0.46602 0.48714 0.0
C4009 C 0.08401 0.47885 0.50437 0.0
C4010 C 0.0682 0.44415 0.47661 0.0
C4011 C 0.08851 0.43375 0.4826 0.0
C4012 C 0.10649 0.44669 0.49987 0.0
C4013 C 0.10397 0.46836 0.51045 0.0
C4014 C 0.04783 0.43183 0.45918 0.0
C4015 C 0.12889 0.43769 0.50713 0.0
H4016 H 0.07966 0.35138 0.47469 0.0
H4017 H 0.11034 0.38819 0.42102 0.0
H4018 H 0.08475 0.39814 0.51557 0.0
H4019 H 0.05589 0.39486 0.49897 0.0
H4020 H 0.06773 0.36997 0.50667 0.0
H4021 H 0.11856 0.4278 0.42225 0.0
H4022 H 0.09467 0.43934 0.43302 0.0
H4023 H 0.12303 0.44274 0.45059 0.0
H4024 H 0.05054 0.47299 0.48192 0.0
H4025 H 0.11808 0.47731 0.52349 0.0
H4026 H 0.03846 0.41662 0.46676 0.0
H4027 H 0.05468 0.42576 0.44343 0.0
H4028 H 0.03464 0.44271 0.45404 0.0
H4029 H 0.12416 0.42087 0.51423 0.0
H4030 H 0.14147 0.44932 0.52041 0.0
H4031 H 0.1382 0.43515 0.49179 0.0
C4032 C 0.47996 0.30778 0.17617 0.0
C4033 C 0.50105 0.29921 0.18301 0.0
C4034 C 0.46088 0.30772 0.19038 0.0
C4035 C 0.46135 0.29797 0.21235 0.0
C4036 C 0.48254 0.28912 0.2193 0.0
C4037 C 0.50176 0.29009 0.20506 0.0
C4038 C 0.43999 0.31842 0.18171 0.0
C4039 C 0.48477 0.27739 0.24149 0.0
C4040 C 0.41959 0.31224 0.25933 0.0
C4041 C 0.39881 0.29477 0.25532 0.0
C4042 C 0.43947 0.3135 0.24587 0.0
C4043 C 0.43979 0.2968 0.22744 0.0
C4044 C 0.4189 0.27916 0.22334 0.0
C4045 C 0.39906 0.27861 0.2367 0.0
C4046 C 0.46032 0.33311 0.25134 0.0
C4047 C 0.41775 0.26019 0.20502 0.0
H4048 H 0.4784 0.31498 0.1595 0.0
H4049 H 0.51721 0.2829 0.21103 0.0
H4050 H 0.42343 0.30521 0.17821 0.0
H4051 H 0.437 0.33098 0.1952 0.0
H4052 H 0.4428 0.3271 0.16557 0.0
H4053 H 0.50385 0.27825 0.24846 0.0
H4054 H 0.47565 0.2847 0.25501 0.0
H4055 H 0.47627 0.2592 0.23777 0.0
H4056 H 0.42035 0.32532 0.27307 0.0
H4057 H 0.38337 0.26535 0.23234 0.0
H4058 H 0.46322 0.34233 0.23555 0.0
H4059 H 0.47689 0.32661 0.25679 0.0
H4060 H 0.45754 0.34528 0.26532 0.0
H4061 H 0.42181 0.2671 0.18832 0.0
H4062 H 0.39999 0.24871 0.2021 0.0
H4063 H 0.43156 0.25005 0.21043 0.0
C4064 C 0.68632 0.53905 0.41718 0.0
C4065 C 0.70641 0.55573 0.42596 0.0
C4066 C 0.66696 0.53366 0.42978 0.0
C4067 C 0.66775 0.54531 0.4516 0.0
C4068 C 0.68882 0.56067 0.46147 0.0
C4069 C 0.70803 0.56568 0.44849 0.0
C4070 C 0.645 0.51683 0.41898 0.0
C4071 C 0.69036 0.57312 0.48496 0.0
C4072 C 0.61273 0.56226 0.47126 0.0
C4073 C 0.60875 0.54806 0.48921 0.0
C4074 C 0.6309 0.56031 0.45762 0.0
C4075 C 0.64558 0.54409 0.46258 0.0
C4076 C 0.64034 0.52854 0.4796 0.0
C4077 C 0.62181 0.53072 0.49275 0.0
C4078 C 0.63573 0.57696 0.43933 0.0
C4079 C 0.6556 0.5111 0.48548 0.0
H4080 H 0.68523 0.53089 0.39994 0.0
H4081 H 0.72362 0.57839 0.45542 0.0
H4082 H 0.6382 0.50504 0.43183 0.0
H4083 H 0.63056 0.52611 0.41317 0.0
H4084 H 0.64864 0.50668 0.40376 0.0
H4085 H 0.70882 0.58243 0.49124 0.0
H4086 H 0.67821 0.58557 0.4839 0.0
H4087 H 0.68446 0.56106 0.4979 0.0
H4088 H 0.60285 0.57596 0.46907 0.0
H4089 H 0.61895 0.52019 0.50715 0.0
H4090 H 0.63763 0.5679 0.42277 0.0
H4091 H 0.65284 0.58903 0.44499 0.0
H4092 H 0.62124 0.58688 0.4361 0.0
H4093 H 0.66072 0.50326 0.46962 0.0
H4094 H 0.64624 0.49746 0.49524 0.0
H4095 H 0.67234 0.51956 0.49648 0.0
C4096 C 0.33636 0.84876 0.11276 0.0
C4097 C 0.33191 0.8705 0.10849 0.0
C4098 C 0.33465 0.84013 0.13473 0.0
C4099 C 0.32751 0.8532 0.15272 0.0
C4100 C 0.32245 0.87497 0.14827 0.0
C4101 C 0.32511 0.88349 0.1264 0.0
C4102 C 0.34083 0.81713 0.1388 0.0
C4103 C 0.31392 0.88918 0.16656 0.0
C4104 C 0.3028 0.8225 0.20347 0.0
C4105 C 0.32207 0.82859 0.22125 0.0
C4106 C 0.30423 0.83047 0.18119 0.0
C4107 C 0.3257 0.84434 0.17628 0.0
C4108 C 0.34538 0.85009 0.19409 0.0
C4109 C 0.34319 0.84249 0.21639 0.0
C4110 C 0.28254 0.82449 0.16306 0.0
C4111 C 0.36879 0.86437 0.18961 0.0
H4112 H 0.34167 0.83865 0.09902 0.0
H4113 H 0.32132 0.90018 0.12314 0.0
H4114 H 0.35548 0.8188 0.15341 0.0
H4115 H 0.32512 0.80548 0.14375 0.0
H4116 H 0.34656 0.80927 0.12323 0.0
H4117 H 0.31012 0.90546 0.16022 0.0
H4118 H 0.29738 0.87951 0.17221 0.0
H4119 H 0.32762 0.89304 0.18205 0.0
H4120 H 0.28628 0.81211 0.20721 0.0
H4121 H 0.35814 0.84728 0.23004 0.0
H4122 H 0.28699 0.8153 0.14765 0.0
H4123 H 0.27699 0.84027 0.15722 0.0
H4124 H 0.26713 0.81374 0.16963 0.0
H4125 H 0.37543 0.85657 0.17457 0.0
H4126 H 0.3828 0.86628 0.20485 0.0
H4127 H 0.36603 0.88154 0.18516 0.0
C4128 C 0.03419 0.64061 0.91816 0.0
C4129 C 0.04295 0.64236 0.89666 0.0
C4130 C 0.04868 0.63598 0.93775 0.0
C4131 C 0.07241 0.63325 0.93569 0.0
C4132 C 0.08251 0.63911 0.91529 0.0
C4133 C 0.06762 0.64365 0.89591 0.0
C4134 C 0.03745 0.6307 0.95955 0.0
C4135 C 0.10806 0.63743 0.91278 0.0
C4136 C 0.10388 0.61266 0.98936 0.0
C4137 C 0.0957 0.58914 0.98524 0.0
C4138 C 0.09791 0.62755 0.97269 0.0
C4139 C 0.08356 0.61851 0.95164 0.0
C4140 C 0.07722 0.59461 0.94671 0.0
C4141 C 0.08334 0.58027 0.96363 0.0
C4142 C 0.1053 0.65284 0.97854 0.0
C4143 C 0.06221 0.5841 0.92435 0.0
H4144 H 1.01535 0.64034 0.91918 0.0
H4145 H 0.07486 0.64579 0.87959 0.0
H4146 H 0.03273 0.61198 0.9603 0.0
H4147 H 0.05019 0.63763 0.97519 0.0
H4148 H 1.02085 0.63774 0.96002 0.0
H4149 H 0.1149 0.64785 0.89887 0.0
H4150 H 0.11998 0.64297 0.92929 0.0
H4151 H 0.10893 0.61945 0.90817 0.0
H4152 H 0.11327 0.61953 1.00621 0.0
H4153 H 0.07714 0.56203 0.9605 0.0
H4154 H 0.09094 0.65906 0.98677 0.0
H4155 H 0.10812 0.66221 0.96284 0.0
H4156 H 0.12198 0.65693 0.99103 0.0
H4157 H 0.04394 0.58797 0.92377 0.0
H4158 H 0.06055 0.56533 0.92252 0.0
H4159 H 0.07012 0.59134 0.90921 0.0
C4160 C 0.36499 0.22737 0.61779 0.0
C4161 C 0.35554 0.20414 0.61077 0.0
C4162 C 0.36344 0.23757 0.64042 0.0
C4163 C 0.35173 0.22485 0.65741 0.0
C4164 C 0.34216 0.20141 0.65039 0.0
C4165 C 0.34425 0.19155 0.62777 0.0
C4166 C 0.37447 0.26233 0.64615 0.0
C4167 C 0.3292 0.18655 0.66684 0.0
C4168 C 0.36367 0.24585 0.72439 0.0
C4169 C 0.3443 0.25669 0.7283 0.0
C4170 C 0.36639 0.23589 0.70199 0.0
C4171 C 0.34925 0.23595 0.682 0.0
C4172 C 0.32961 0.24676 0.6859 0.0
C4173 C 0.32753 0.2569 0.70839 0.0
C4174 C 0.38798 0.22528 0.69972 0.0
C4175 C 0.3104 0.24755 0.6661 0.0
H4176 H 0.37373 0.23781 0.60545 0.0
H4177 H 0.33653 0.17377 0.62325 0.0
H4178 H 0.36036 0.27201 0.64963 0.0
H4179 H 0.38748 0.2643 0.66215 0.0
H4180 H 0.38381 0.26995 0.63191 0.0
H4181 H 0.32258 0.16882 0.65928 0.0
H4182 H 0.34132 0.18622 0.68309 0.0
H4183 H 0.31374 0.19373 0.67158 0.0
H4184 H 0.3771 0.24529 0.73897 0.0
H4185 H 0.31233 0.26492 0.71037 0.0
H4186 H 0.39806 0.23334 0.68617 0.0
H4187 H 0.38215 0.20695 0.69413 0.0
H4188 H 0.40023 0.22705 0.71625 0.0
H4189 H 0.31838 0.25686 0.65204 0.0
H4190 H 0.29597 0.25595 0.67152 0.0
H4191 H 0.30232 0.23002 0.65875 0.0
C4192 C 0.71239 0.57093 0.28051 0.0
C4193 C 0.7056 0.55553 0.29693 0.0
C4194 C 0.69797 0.57045 0.25919 0.0
C4195 C 0.67644 0.55408 0.25423 0.0
C4196 C 0.67054 0.53742 0.27002 0.0
C4197 C 0.68517 0.53839 0.29122 0.0
C4198 C 0.70491 0.58843 0.2427 0.0
C4199 C 0.64794 0.51949 0.26524 0.0
C4200 C 0.62543 0.57157 0.21625 0.0
C4201 C 0.62675 0.56074 0.19467 0.0
C4202 C 0.64133 0.56928 0.23581 0.0
C4203 C 0.65895 0.55578 0.23375 0.0
C4204 C 0.65991 0.54422 0.2122 0.0
C4205 C 0.64382 0.54687 0.1929 0.0
C4206 C 0.63961 0.58173 0.25858 0.0
C4207 C 0.67837 0.5296 0.20939 0.0
H4208 H 0.72813 0.58423 0.28488 0.0
H4209 H 0.67996 0.5263 0.30379 0.0
H4210 H 0.70373 0.58058 0.22484 0.0
H4211 H 0.69223 0.60038 0.24227 0.0
H4212 H 0.72335 0.5983 0.24788 0.0
H4213 H 0.64746 0.50618 0.27787 0.0
H4214 H 0.63213 0.5276 0.26625 0.0
H4215 H 0.64621 0.51122 0.24749 0.0
H4216 H 0.61214 0.58212 0.21775 0.0
H4217 H 0.64522 0.53875 0.17619 0.0
H4218 H 0.6566 0.59392 0.26436 0.0
H4219 H 0.63695 0.5695 0.27214 0.0
H4220 H 0.62465 0.59124 0.25734 0.0
H4221 H 0.69658 0.54033 0.21235 0.0
H4222 H 0.67576 0.52062 0.19185 0.0
H4223 H 0.67763 0.51678 0.2225 0.0
C4224 C 0.3055 0.88079 0.95366 0.0
C4225 C 0.31998 0.87481 0.97266 0.0
C4226 C 0.30423 0.87024 0.93132 0.0
C4227 C 0.31804 0.8534 0.92757 0.0
C4228 C 0.33197 0.8466 0.94683 0.0
C4229 C 0.33263 0.85725 0.96918 0.0
C4230 C 0.28885 0.87786 0.91149 0.0
C4231 C 0.34722 0.82896 0.94363 0.0
C4232 C 0.30461 0.81765 0.86939 0.0
C4233 C 0.32127 0.82969 0.85639 0.0
C4234 C 0.30347 0.82494 0.89262 0.0
C4235 C 0.31951 0.84462 0.90327 0.0
C4236 C 0.33646 0.85669 0.89026 0.0
C4237 C 0.33706 0.84918 0.8671 0.0
C4238 C 0.28489 0.81177 0.9057 0.0
C4239 C 0.35402 0.87768 0.90079 0.0
H4240 H 0.29553 0.89423 0.95618 0.0
H4241 H 0.34404 0.85267 0.98366 0.0
H4242 H 0.30035 0.88615 0.89908 0.0
H4243 H 0.27659 0.86296 0.9019 0.0
H4244 H 0.27799 0.89005 0.91748 0.0
H4245 H 0.35522 0.82397 0.96045 0.0
H4246 H 0.33645 0.81354 0.93356 0.0
H4247 H 0.36192 0.83581 0.93358 0.0
H4248 H 0.29235 0.80259 0.86138 0.0
H4249 H 0.35015 0.85864 0.85743 0.0
H4250 H 0.27263 0.82289 0.91092 0.0
H4251 H 0.29368 0.80619 0.92183 0.0
H4252 H 0.27409 0.79656 0.89523 0.0
H4253 H 0.34424 0.89082 0.90662 0.0
H4254 H 0.36615 0.88511 0.88841 0.0
H4255 H 0.36507 0.87342 0.9163 0.0
C4256 C 0.04095 0.59925 0.75268 0.0
C4257 C 0.04849 0.6186 0.76807 0.0
C4258 C 0.05422 0.59499 0.73475 0.0
C4259 C 0.07518 0.61078 0.7319 0.0
C4260 C 0.08207 0.63102 0.74655 0.0
C4261 C 0.06878 0.63456 0.76471 0.0
C4262 C 0.04636 0.57315 0.71947 0.0
C4263 C 0.1039 0.6485 0.74354 0.0
C4264 C 0.11974 0.58406 0.70235 0.0
C4265 C 0.11309 0.58763 0.6791 0.0
C4266 C 0.1085 0.59272 0.72001 0.0
C4267 C 0.09033 0.60535 0.7142 0.0
C4268 C 0.08487 0.61049 0.69101 0.0
C4269 C 0.09639 0.60163 0.67371 0.0
C4270 C 0.11472 0.5868 0.74458 0.0
C4271 C 0.06581 0.62415 0.68423 0.0
H4272 H 1.02534 0.58684 0.75536 0.0
H4273 H 0.07452 0.64964 0.77655 0.0
H4274 H 0.04389 0.57691 0.70098 0.0
H4275 H 0.06046 0.56268 0.72153 0.0
H4276 H 0.02934 0.56294 0.72366 0.0
H4277 H 0.10556 0.66422 0.75504 0.0
H4278 H 0.12028 0.64128 0.74752 0.0
H4279 H 0.10315 0.6531 0.72529 0.0
H4280 H 0.13284 0.57347 0.70659 0.0
H4281 H 0.09096 0.60431 0.65576 0.0
H4282 H 0.09936 0.57483 0.7498 0.0
H4283 H 0.1181 0.60223 0.75672 0.0
H4284 H 0.13074 0.57873 0.74654 0.0
H4285 H 0.04866 0.61649 0.69029 0.0
H4286 H 0.06255 0.62517 0.66518 0.0
H4287 H 0.07133 0.64162 0.69269 0.0
C4288 C 0.34474 0.22165 0.46714 0.0
C4289 C 0.35173 0.20013 0.46779 0.0
C4290 C 0.34334 0.23399 0.44633 0.0
C4291 C 0.34958 0.22556 0.42474 0.0
C4292 C 0.35722 0.20417 0.42557 0.0
C4293 C 0.35779 0.19195 0.44631 0.0
C4294 C 0.33442 0.25607 0.44734 0.0
C4295 C 0.36486 0.19386 0.40419 0.0
C4296 C 0.32557 0.24401 0.36276 0.0
C4297 C 0.34414 0.2611 0.35677 0.0
C4298 C 0.32685 0.23314 0.38436 0.0
C4299 C 0.34758 0.23838 0.40145 0.0
C4300 C 0.36653 0.25548 0.39546 0.0
C4301 C 0.3645 0.26659 0.37394 0.0
C4302 C 0.30554 0.21589 0.38895 0.0
C4303 C 0.38948 0.26193 0.41182 0.0
H4304 H 0.33948 0.22866 0.48283 0.0
H4305 H 0.36318 0.17557 0.4456 0.0
H4306 H 0.34824 0.27003 0.44269 0.0
H4307 H 0.31828 0.25486 0.43443 0.0
H4308 H 0.32983 0.26057 0.46478 0.0
H4309 H 0.37243 0.17841 0.40767 0.0
H4310 H 0.34926 0.18917 0.39051 0.0
H4311 H 0.37848 0.20646 0.39723 0.0
H4312 H 0.30945 0.23918 0.35048 0.0
H4313 H 0.3793 0.27947 0.37041 0.0
H4314 H 0.30002 0.22036 0.40599 0.0
H4315 H 0.31045 0.19888 0.38981 0.0
H4316 H 0.28999 0.21472 0.37532 0.0
H4317 H 0.38577 0.26904 0.42867 0.0
H4318 H 0.40301 0.27465 0.40486 0.0
H4319 H 0.39717 0.24656 0.41526 0.0
C4320 C 0.37983 0.69 0.5072 0.0
C4321 C 0.36845 0.69458 0.52645 0.0
C4322 C 0.3995 0.67909 0.5094 0.0
C4323 C 0.40772 0.67237 0.53138 0.0
C4324 C 0.39794 0.6792 0.55127 0.0
C4325 C 0.37836 0.69037 0.54856 0.0
C4326 C 0.40963 0.67251 0.48778 0.0
C4327 C 0.40636 0.67257 0.57502 0.0
C4328 C 0.42673 0.61521 0.52737 0.0
C4329 C 0.45175 0.62151 0.52945 0.0
C4330 C 0.41232 0.63161 0.52897 0.0
C4331 C 0.42317 0.65495 0.53262 0.0
C4332 C 0.44842 0.66141 0.53548 0.0
C4333 C 0.46241 0.64459 0.5339 0.0
C4334 C 0.3854 0.62398 0.52586 0.0
C4335 C 0.46065 0.68607 0.53949 0.0
H4336 H 0.37211 0.6933 0.49009 0.0
H4337 H 0.36938 0.69369 0.56342 0.0
H4338 H 0.42948 0.67561 0.49082 0.0
H4339 H 0.4032 0.65407 0.48299 0.0
H4340 H 0.40403 0.68204 0.47289 0.0
H4341 H 0.40075 0.68298 0.58896 0.0
H4342 H 0.39852 0.65444 0.57658 0.0
H4343 H 0.42614 0.6744 0.57776 0.0
H4344 H 0.41833 0.59746 0.52374 0.0
H4345 H 0.48173 0.64953 0.53603 0.0
H4346 H 0.3775 0.63046 0.50981 0.0
H4347 H 0.3777 0.6311 0.54058 0.0
H4348 H 0.37987 0.60517 0.52463 0.0
H4349 H 0.45666 0.69507 0.52374 0.0
H4350 H 0.48041 0.68809 0.54355 0.0
H4351 H 0.45368 0.69451 0.55392 0.0
C4352 C 0.89175 0.97629 0.55216 0.0
C4353 C 0.88526 0.95277 0.54554 0.0
C4354 C 0.91548 0.98908 0.55172 0.0
C4355 C 0.93443 0.97835 0.54554 0.0
C4356 C 0.92824 0.95428 0.54024 0.0
C4357 C 0.90417 0.9421 0.54004 0.0
C4358 C 0.9202 1.0143 0.55809 0.0
C4359 C 0.94717 0.94101 0.53494 0.0
C4360 C 0.99397 1.00881 0.52333 0.0
C4361 C 1.00917 0.0182 0.54368 0.0
C4362 C 0.97013 0.99637 0.52361 0.0
C4363 C 0.96043 0.99205 0.54493 0.0
C4364 C 0.97621 1.00088 0.56565 0.0
C4365 C 0.99965 1.01407 0.56472 0.0
C4366 C 0.95578 0.98821 0.5004 0.0
C4367 C 0.96933 0.9959 0.58936 0.0
H4368 H 0.87818 0.98483 0.55797 0.0
H4369 H 0.90016 0.92392 0.53561 0.0
H4370 H 0.93176 0.01821 0.57496 0.0
H4371 H 0.92978 0.02364 0.5449 0.0
H4372 H 0.90346 0.0207 0.55981 0.0
H4373 H 0.94158 0.92264 0.5374 0.0
H4374 H 0.95032 0.94264 0.51661 0.0
H4375 H 0.96438 0.94765 0.54611 0.0
H4376 H 1.00063 1.01139 0.50679 0.0
H4377 H 1.01096 0.02042 0.58082 0.0
H4378 H 0.93802 0.97773 0.50159 0.0
H4379 H 0.96595 0.9781 0.4902 0.0
H4380 H 0.95333 1.00316 0.49056 0.0
H4381 H 0.96755 1.01197 0.59872 0.0
H4382 H 0.9839 0.98939 0.59964 0.0
H4383 H 0.95246 0.98331 0.58892 0.0
C4384 C 0.87953 0.07884 0.22671 0.0
C4385 C 0.90203 0.07499 0.22218 0.0
C4386 C 0.87484 0.1008 0.22849 0.0
C4387 C 0.89295 0.1194 0.22509 0.0
C4388 C 0.91468 0.11547 0.21781 0.0
C4389 C 0.91912 0.09319 0.21666 0.0
C4390 C 0.85126 0.10411 0.23614 0.0
C4391 C 0.93392 0.13475 0.21284 0.0
C4392 C 0.86518 0.17094 0.22983 0.0
C4393 C 0.86972 0.17606 0.25388 0.0
C4394 C 0.87558 0.15438 0.21924 0.0
C4395 C 0.89018 0.14241 0.23323 0.0
C4396 C 0.89693 0.14942 0.25705 0.0
C4397 C 0.88661 0.16626 0.2671 0.0
C4398 C 0.86913 0.14825 0.19355 0.0
C4399 C 0.91277 0.13732 0.27255 0.0
H4400 H 0.86591 0.06476 0.23023 0.0
H4401 H 0.93638 0.09027 0.21265 0.0
H4402 H 0.85453 0.1133 0.25359 0.0
H4403 H 0.84232 0.11454 0.22406 0.0
H4404 H 0.83876 0.08772 0.237 0.0
H4405 H 0.94466 0.12903 0.19977 0.0
H4406 H 0.92625 0.14933 0.20647 0.0
H4407 H 0.94627 0.14075 0.22898 0.0
H4408 H 0.85267 0.17914 0.21948 0.0
H4409 H 0.89032 0.17044 0.28567 0.0
H4410 H 0.85377 0.13371 0.19057 0.0
H4411 H 0.88434 0.14307 0.18585 0.0
H4412 H 0.86381 0.16271 0.1844 0.0
H4413 H 0.90282 0.12006 0.27499 0.0
H4414 H 0.91858 0.14658 0.28988 0.0
H4415 H 0.92892 0.13529 0.26447 0.0
C4416 C 0.71787 0.18148 1.0114 0.0
C4417 C 0.73921 0.1739 0.01808 0.0
C4418 C 0.69547 0.16691 1.01091 0.0
C4419 C 0.69448 0.14422 0.01711 0.0
C4420 C 0.71608 0.13651 0.02357 0.0
C4421 C 0.73808 0.15161 0.02454 0.0
C4422 C 0.67287 0.17597 1.00452 0.0
C4423 C 0.71592 0.11242 0.03 0.0
C4424 C 0.6425 0.11094 0.0435 0.0
C4425 C 0.63019 0.09619 0.02469 0.0
C4426 C 0.66261 0.12747 0.04088 0.0
C4427 C 0.67107 0.12905 0.01901 0.0
C4428 C 0.65812 0.11483 0.99973 0.0
C4429 C 0.63783 0.09857 1.00281 0.0
C4430 C 0.67504 0.14299 0.06169 0.0
C4431 C 0.66606 0.11581 0.976 0.0
H4432 H 0.71871 0.19891 1.00692 0.0
H4433 H 0.75448 0.14607 0.03086 0.0
H4434 H 0.66146 0.16516 0.98991 0.0
H4435 H 0.66241 0.17533 0.01945 0.0
H4436 H 0.67667 0.19378 0.99951 0.0
H4437 H 0.73426 0.10873 0.03341 0.0
H4438 H 0.707 0.10934 0.04577 0.0
H4439 H 0.70551 0.10027 1.01582 0.0
H4440 H 0.63638 0.10966 0.06041 0.0
H4441 H 0.6283 0.0874 0.98814 0.0
H4442 H 0.67799 0.16097 0.0572 0.0
H4443 H 0.69287 0.13886 0.06712 0.0
H4444 H 0.66462 0.1414 0.07668 0.0
H4445 H 0.65064 0.11037 0.96219 0.0
H4446 H 0.67853 0.1039 0.97453 0.0
H4447 H 0.67539 0.13308 0.97294 0.0
C4448 C 0.18559 0.43413 0.28035 0.0
C4449 C 0.17284 0.43818 0.29874 0.0
C4450 C 0.20462 0.42237 0.28357 0.0
C4451 C 0.21053 0.41433 0.30554 0.0
C4452 C 0.19558 0.41576 0.32305 0.0
C4453 C 0.177 0.42793 0.31952 0.0
C4454 C 0.21996 0.42094 0.26436 0.0
C4455 C 0.20078 0.4066 0.3464 0.0
C4456 C 0.2594 0.37977 0.31609 0.0
C4457 C 0.27905 0.39671 0.32532 0.0
C4458 C 0.23704 0.38524 0.309 0.0
C4459 C 0.23425 0.40811 0.31162 0.0
C4460 C 0.25408 0.42529 0.32093 0.0
C4461 C 0.27635 0.41938 0.32748 0.0
C4462 C 0.21667 0.36669 0.29815 0.0
C4463 C 0.25175 0.44992 0.32402 0.0
H4464 H 0.18247 0.44223 0.26434 0.0
H4465 H 0.167 0.43104 0.33368 0.0
H4466 H 0.23634 0.43438 0.26798 0.0
H4467 H 0.22573 0.4043 0.26332 0.0
H4468 H 0.21037 0.42348 0.24726 0.0
H4469 H 0.18551 0.40592 0.35667 0.0
H4470 H 0.20485 0.38929 0.34431 0.0
H4471 H 0.21676 0.41775 0.35635 0.0
H4472 H 0.26172 0.36228 0.31388 0.0
H4473 H 0.29164 0.43242 0.33446 0.0
H4474 H 0.21307 0.3688 0.27934 0.0
H4475 H 0.2 0.36783 0.30573 0.0
H4476 H 0.22083 0.34948 0.30025 0.0
H4477 H 0.24534 0.45591 0.30713 0.0
H4478 H 0.26897 0.46119 0.33118 0.0
H4479 H 0.23827 0.45168 0.3359 0.0
C4480 C 0.24807 0.47061 0.02167 0.0
C4481 C 0.25326 0.4532 0.03616 0.0
C4482 C 0.22766 0.48139 0.02238 0.0
C4483 C 0.21049 0.47529 0.03798 0.0
C4484 C 0.21523 0.45756 0.05261 0.0
C4485 C 0.2361 0.44701 0.05164 0.0
C4486 C 0.22472 0.49988 1.00628 0.0
C4487 C 0.19817 0.44973 0.06967 0.0
C4488 C 0.17006 0.52008 0.05349 0.0
C4489 C 0.14794 0.51321 0.03885 0.0
C4490 C 0.18975 0.50803 0.05366 0.0
C4491 C 0.18835 0.48779 0.03898 0.0
C4492 C 0.16597 0.4806 0.02431 0.0
C4493 C 0.14658 0.49308 0.02438 0.0
C4494 C 0.21246 0.5173 0.06969 0.0
C4495 C 0.16242 0.45947 1.0082 0.0
H4496 H 0.2604 0.47634 1.00948 0.0
H4497 H 0.23902 0.43401 0.06331 0.0
H4498 H 0.20717 0.49534 0.99518 0.0
H4499 H 0.22482 0.51601 1.01652 0.0
H4500 H 0.23911 0.50287 0.99491 0.0
H4501 H 0.20313 0.43534 0.07915 0.0
H4502 H 0.19795 0.46405 0.08243 0.0
H4503 H 0.1797 0.44441 0.0605 0.0
H4504 H 0.1722 0.53528 0.065 0.0
H4505 H 0.13012 0.48687 1.01289 0.0
H4506 H 0.22758 0.52176 0.05939 0.0
H4507 H 0.21688 0.5041 0.08123 0.0
H4508 H 0.21106 0.53263 0.08055 0.0
H4509 H 0.17534 0.46197 0.99533 0.0
H4510 H 0.14397 0.45503 0.99876 0.0
H4511 H 0.16607 0.44491 0.01814 0.0
C4512 C 0.91775 0.94886 0.25601 0.0
C4513 C 0.91326 0.95816 0.23487 0.0
C4514 C 0.90849 0.926 0.25867 0.0
C4515 C 0.8969 0.91155 0.23894 0.0
C4516 C 0.89482 0.92057 0.2169 0.0
C4517 C 0.90215 0.94403 0.21532 0.0
C4518 C 0.91068 0.9177 0.28276 0.0
C4519 C 0.88446 0.90587 0.19497 0.0
C4520 C 0.8901 0.85194 0.25855 0.0
C4521 C 0.86562 0.84736 0.26103 0.0
C4522 C 0.90025 0.87174 0.24875 0.0
C4523 C 0.88571 0.88767 0.24209 0.0
C4524 C 0.86057 0.88166 0.24208 0.0
C4525 C 0.8509 0.86162 0.25156 0.0
C4526 C 0.92658 0.87546 0.24611 0.0
C4527 C 0.84329 0.89595 0.23238 0.0
H4528 H 0.92752 0.95979 0.27077 0.0
H4529 H 0.89989 0.95119 0.19866 0.0
H4530 H 0.89384 0.90642 0.28586 0.0
H4531 H 0.92533 0.90792 0.28479 0.0
H4532 H 0.91499 0.93202 0.29638 0.0
H4533 H 0.89445 0.91161 0.18041 0.0
H4534 H 0.8849 0.88763 0.19682 0.0
H4535 H 0.86563 0.90774 0.19017 0.0
H4536 H 0.90153 0.84039 0.26474 0.0
H4537 H 0.83173 0.85754 0.25215 0.0
H4538 H 0.93733 0.87815 0.2635 0.0
H4539 H 0.9324 0.89006 0.2358 0.0
H4540 H 0.93068 0.85992 0.23754 0.0
H4541 H 0.82865 0.89575 0.24334 0.0
H4542 H 0.83488 0.88836 0.21491 0.0
H4543 H 0.85188 0.91371 0.23066 0.0
C4544 C 0.69104 0.05613 0.78807 0.0
C4545 C 0.66827 0.04862 0.79453 0.0
C4546 C 0.7011 0.0793 0.78918 0.0
C4547 C 0.68773 0.09546 0.79624 0.0
C4548 C 0.66499 0.08798 0.80353 0.0
C4549 C 0.65537 0.06454 0.80236 0.0
C4550 C 0.72565 0.08652 0.78184 0.0
C4551 C 0.65063 0.10475 0.81187 0.0
C4552 C 0.72446 0.15542 0.80633 0.0
C4553 C 0.72051 0.16354 0.78433 0.0
C4554 C 0.71259 0.13385 0.81114 0.0
C4555 C 0.69665 0.11995 0.79342 0.0
C4556 C 0.69152 0.12865 0.77163 0.0
C4557 C 0.70343 0.15034 0.76739 0.0
C4558 C 0.71864 0.12574 0.83476 0.0
C4559 C 0.67442 0.11455 0.7523 0.0
H4560 H 0.70071 0.04385 0.78133 0.0
H4561 H 0.63766 0.05867 0.80718 0.0
H4562 H 0.72429 0.09613 0.76611 0.0
H4563 H 0.73749 0.09798 0.79574 0.0
H4564 H 0.7342 0.07179 0.778 0.0
H4565 H 0.63423 0.09622 0.81873 0.0
H4566 H 0.66178 0.11686 0.82568 0.0
H4567 H 0.64528 0.11482 0.79737 0.0
H4568 H 0.73762 0.16546 0.81957 0.0
H4569 H 0.69975 0.15678 0.75055 0.0
H4570 H 0.73622 0.12039 0.83539 0.0
H4571 H 0.70503 0.11132 0.83888 0.0
H4572 H 0.72053 0.13984 0.84838 0.0
H4573 H 0.6822 0.09996 0.74636 0.0
H4574 H 0.67068 0.12452 0.73719 0.0
H4575 H 0.65722 0.1075 0.75861 0.0
loop_
_geom_bond_atom_site_label_1
_geom_bond_atom_site_label_2
_geom_bond_distance
_geom_bond_site_symmetry_2
_ccdc_geom_bond_type
Mn0 O5 2.095 . S
Mn0 O15 2.162 . S
Mn0 O16 2.297 . S
Mn0 O24 2.385 . S
Mn0 O25 2.209 . S
Mn0 O26 2.094 . S
Mn1 O6 2.121 . S
Mn1 N8 2.257 . S
Mn1 N17 2.282 . S
Mn1 O25 2.215 . S
Mn1 O27 2.117 . S
C2 O24 1.234 . S
C2 O25 1.283 . S
C3 O15 1.281 . S
C3 O16 1.236 . S
C4 O26 1.240 . S
C4 O27 1.264 . S
O5 Mn0 2.095 . S
O5 C14 1.250 . S
O6 Mn1 2.121 . S
O6 C14 1.258 . S
C7 N8 1.326 . S
C7 C11 1.460 . S
C7 H13 0.929 . S
N8 Mn1 2.257 . S
N8 C7 1.326 . S
N8 C12 1.362 . S
C9 C10 1.258 . S
C9 C12 1.431 . S
C9 C29 1.449 1_455 S
C10 C9 1.258 . S
C10 C11 1.477 . S
C10 H30 0.931 . S
C11 C7 1.460 . S
C11 C10 1.477 . S
C11 H31 0.930 . S
C12 N8 1.362 . S
C12 C9 1.431 . S
C12 C22 1.476 . S
H13 C7 0.929 . S
C14 O5 1.250 . S
C14 O6 1.258 . S
O15 Mn0 2.162 . S
O15 C3 1.281 . S
O16 Mn0 2.297 . S
O16 C3 1.236 . S
N17 Mn1 2.282 . S
N17 C18 1.328 . S
N17 C22 1.318 . S
C18 N17 1.328 . S
C18 C19 1.457 1_455 S
C18 H23 0.929 . S
C19 C18 1.457 1_655 S
C19 C20 1.291 . S
C19 H32 0.931 . S
C20 C19 1.291 . S
C20 C21 1.373 . S
C20 H33 0.929 . S
C21 C20 1.373 . S
C21 C22 1.396 1_655 S
C21 C28 1.403 . S
C22 C12 1.476 . S
C22 N17 1.318 . S
C22 C21 1.396 1_455 S
H23 C18 0.929 . S
O24 Mn0 2.385 . S
O24 C2 1.234 . S
O25 Mn0 2.209 . S
O25 Mn1 2.215 . S
O25 C2 1.283 . S
O26 Mn0 2.094 . S
O26 C4 1.240 . S
O27 Mn1 2.117 . S
O27 C4 1.264 . S
C28 C21 1.403 . S
C28 C29 1.399 . S
C28 H34 0.929 . S
C29 C9 1.449 1_655 S
C29 C28 1.399 . S
C29 H35 0.930 . S
H30 C10 0.931 . S
H31 C11 0.930 . S
H32 C19 0.931 . S
H33 C20 0.929 . S
H34 C28 0.929 . S
H35 C29 0.930 . S
Mn36 O41 2.095 . S
Mn36 O51 2.162 . S
Mn36 O52 2.297 . S
Mn36 O60 2.385 . S
Mn36 O61 2.209 . S
Mn36 O62 2.094 . S
Mn37 O42 2.121 . S
Mn37 N44 2.257 . S
Mn37 N53 2.282 . S
Mn37 O61 2.215 . S
Mn37 O63 2.117 . S
C38 O60 1.234 . S
C38 O61 1.283 . S
C39 O51 1.281 . S
C39 O52 1.236 . S
C40 O62 1.240 . S
C40 O63 1.264 . S
O41 Mn36 2.095 . S
O41 C50 1.250 . S
O42 Mn37 2.121 . S
O42 C50 1.258 . S
C43 N44 1.326 . S
C43 C47 1.460 . S
C43 H49 0.929 . S
N44 Mn37 2.257 . S
N44 C43 1.326 . S
N44 C48 1.362 . S
C45 C46 1.258 . S
C45 C48 1.431 . S
C45 C65 1.449 . S
C46 C45 1.258 . S
C46 C47 1.477 . S
C46 H66 0.931 . S
C47 C43 1.460 . S
C47 C46 1.477 . S
C47 H67 0.930 . S
C48 N44 1.362 . S
C48 C45 1.431 . S
C48 C58 1.476 . S
H49 C43 0.929 . S
C50 O41 1.250 . S
C50 O42 1.258 . S
O51 Mn36 2.162 . S
O51 C39 1.281 . S
O52 Mn36 2.297 . S
O52 C39 1.236 . S
N53 Mn37 2.282 . S
N53 C54 1.328 . S
N53 C58 1.318 . S
C54 N53 1.328 . S
C54 C55 1.457 . S
C54 H59 0.929 . S
C55 C54 1.457 . S
C55 C56 1.291 . S
C55 H68 0.931 . S
C56 C55 1.291 . S
C56 C57 1.373 . S
C56 H69 0.929 . S
C57 C56 1.373 . S
C57 C58 1.396 . S
C57 C64 1.403 . S
C58 C48 1.476 . S
C58 N53 1.318 . S
C58 C57 1.396 . S
H59 C54 0.929 . S
O60 Mn36 2.385 . S
O60 C38 1.234 . S
O61 Mn36 2.209 . S
O61 Mn37 2.215 . S
O61 C38 1.283 . S
O62 Mn36 2.094 . S
O62 C40 1.240 . S
O63 Mn37 2.117 . S
O63 C40 1.264 . S
C64 C57 1.403 . S
C64 C65 1.399 . S
C64 H70 0.929 . S
C65 C45 1.449 . S
C65 C64 1.399 . S
C65 H71 0.930 . S
H66 C46 0.931 . S
H67 C47 0.930 . S
H68 C55 0.931 . S
H69 C56 0.929 . S
H70 C64 0.929 . S
H71 C65 0.930 . S
Mn72 O77 2.095 . S
Mn72 O87 2.162 . S
Mn72 O88 2.297 . S
Mn72 O96 2.385 . S
Mn72 O97 2.209 . S
Mn72 O98 2.094 . S
Mn73 O78 2.121 . S
Mn73 N80 2.257 . S
Mn73 N89 2.282 . S
Mn73 O97 2.215 . S
Mn73 O99 2.117 . S
C74 O96 1.234 . S
C74 O97 1.283 . S
C75 O87 1.281 . S
C75 O88 1.236 . S
C76 O98 1.240 . S
C76 O99 1.264 . S
O77 Mn72 2.095 . S
O77 C86 1.250 . S
O78 Mn73 2.121 . S
O78 C86 1.258 . S
C79 N80 1.326 . S
C79 C83 1.460 . S
C79 H85 0.929 . S
N80 Mn73 2.257 . S
N80 C79 1.326 . S
N80 C84 1.362 . S
C81 C82 1.258 . S
C81 C84 1.431 . S
C81 C101 1.449 . S
C82 C81 1.258 . S
C82 C83 1.477 . S
C82 H102 0.931 . S
C83 C79 1.460 . S
C83 C82 1.477 . S
C83 H103 0.930 . S
C84 N80 1.362 . S
C84 C81 1.431 . S
C84 C94 1.476 . S
H85 C79 0.929 . S
C86 O77 1.250 . S
C86 O78 1.258 . S
O87 Mn72 2.162 . S
O87 C75 1.281 . S
O88 Mn72 2.297 . S
O88 C75 1.236 . S
N89 Mn73 2.282 . S
N89 C90 1.328 . S
N89 C94 1.318 . S
C90 N89 1.328 . S
C90 C91 1.457 . S
C90 H95 0.929 . S
C91 C90 1.457 . S
C91 C92 1.291 . S
C91 H104 0.931 . S
C92 C91 1.291 . S
C92 C93 1.373 . S
C92 H105 0.929 . S
C93 C92 1.373 . S
C93 C94 1.396 . S
C93 C100 1.403 . S
C94 C84 1.476 . S
C94 N89 1.318 . S
C94 C93 1.396 . S
H95 C90 0.929 . S
O96 Mn72 2.385 . S
O96 C74 1.234 . S
O97 Mn72 2.209 . S
O97 Mn73 2.215 . S
O97 C74 1.283 . S
O98 Mn72 2.094 . S
O98 C76 1.240 . S
O99 Mn73 2.117 . S
O99 C76 1.264 . S
C100 C93 1.403 . S
C100 C101 1.399 . S
C100 H106 0.929 . S
C101 C81 1.449 . S
C101 C100 1.399 . S
C101 H107 0.930 . S
H102 C82 0.931 . S
H103 C83 0.930 . S
H104 C91 0.931 . S
H105 C92 0.929 . S
H106 C100 0.929 . S
H107 C101 0.930 . S
Mn108 O113 2.095 . S
Mn108 O123 2.162 . S
Mn108 O124 2.297 . S
Mn108 O132 2.385 . S
Mn108 O133 2.209 . S
Mn108 O134 2.094 . S
Mn109 O114 2.121 . S
Mn109 N116 2.257 . S
Mn109 N125 2.282 . S
Mn109 O133 2.215 . S
Mn109 O135 2.117 . S
C110 O132 1.234 . S
C110 O133 1.283 . S
C111 O123 1.281 . S
C111 O124 1.236 . S
C112 O134 1.240 . S
C112 O135 1.264 . S
O113 Mn108 2.095 . S
O113 C122 1.250 . S
O114 Mn109 2.121 . S
O114 C122 1.258 . S
C115 N116 1.326 . S
C115 C119 1.460 . S
C115 H121 0.929 . S
N116 Mn109 2.257 . S
N116 C115 1.326 . S
N116 C120 1.362 . S
C117 C118 1.258 . S
C117 C120 1.431 . S
C117 C137 1.449 . S
C118 C117 1.258 . S
C118 C119 1.477 . S
C118 H138 0.931 . S
C119 C115 1.460 . S
C119 C118 1.477 . S
C119 H139 0.930 . S
C120 N116 1.362 . S
C120 C117 1.431 . S
C120 C130 1.476 . S
H121 C115 0.929 . S
C122 O113 1.250 . S
C122 O114 1.258 . S
O123 Mn108 2.162 . S
O123 C111 1.281 . S
O124 Mn108 2.297 . S
O124 C111 1.236 . S
N125 Mn109 2.282 . S
N125 C126 1.328 . S
N125 C130 1.318 . S
C126 N125 1.328 . S
C126 C127 1.457 . S
C126 H131 0.929 . S
C127 C126 1.457 . S
C127 C128 1.291 . S
C127 H140 0.931 . S
C128 C127 1.291 . S
C128 C129 1.373 . S
C128 H141 0.929 . S
C129 C128 1.373 . S
C129 C130 1.396 . S
C129 C136 1.403 . S
C130 C120 1.476 . S
C130 N125 1.318 . S
C130 C129 1.396 . S
H131 C126 0.929 . S
O132 Mn108 2.385 . S
O132 C110 1.234 . S
O133 Mn108 2.209 . S
O133 Mn109 2.215 . S
O133 C110 1.283 . S
O134 Mn108 2.094 . S
O134 C112 1.240 . S
O135 Mn109 2.117 . S
O135 C112 1.264 . S
C136 C129 1.403 . S
C136 C137 1.399 . S
C136 H142 0.929 . S
C137 C117 1.449 . S
C137 C136 1.399 . S
C137 H143 0.930 . S
H138 C118 0.931 . S
H139 C119 0.930 . S
H140 C127 0.931 . S
H141 C128 0.929 . S
H142 C136 0.929 . S
H143 C137 0.930 . S
Mn144 O149 2.095 . S
Mn144 O159 2.162 . S
Mn144 O160 2.297 . S
Mn144 O168 2.385 . S
Mn144 O169 2.209 . S
Mn144 O170 2.094 . S
Mn145 O150 2.121 . S
Mn145 N152 2.257 . S
Mn145 N161 2.282 . S
Mn145 O169 2.215 . S
Mn145 O171 2.117 . S
C146 O168 1.234 . S
C146 O169 1.283 . S
C147 O159 1.281 . S
C147 O160 1.236 . S
C148 O170 1.240 . S
C148 O171 1.264 . S
O149 Mn144 2.095 . S
O149 C158 1.250 . S
O150 Mn145 2.121 . S
O150 C158 1.258 . S
C151 N152 1.326 . S
C151 C155 1.460 . S
C151 H157 0.929 . S
N152 Mn145 2.257 . S
N152 C151 1.326 . S
N152 C156 1.362 . S
C153 C154 1.258 . S
C153 C156 1.431 . S
C153 C173 1.449 . S
C154 C153 1.258 . S
C154 C155 1.477 . S
C154 H174 0.931 . S
C155 C151 1.460 . S
C155 C154 1.477 . S
C155 H175 0.930 . S
C156 N152 1.362 . S
C156 C153 1.431 . S
C156 C166 1.476 . S
H157 C151 0.929 . S
C158 O149 1.250 . S
C158 O150 1.258 . S
O159 Mn144 2.162 . S
O159 C147 1.281 . S
O160 Mn144 2.297 . S
O160 C147 1.236 . S
N161 Mn145 2.282 . S
N161 C162 1.328 . S
N161 C166 1.318 . S
C162 N161 1.328 . S
C162 C163 1.457 . S
C162 H167 0.929 . S
C163 C162 1.457 . S
C163 C164 1.291 . S
C163 H176 0.931 . S
C164 C163 1.291 . S
C164 C165 1.373 . S
C164 H177 0.929 . S
C165 C164 1.373 . S
C165 C166 1.396 . S
C165 C172 1.403 . S
C166 C156 1.476 . S
C166 N161 1.318 . S
C166 C165 1.396 . S
H167 C162 0.929 . S
O168 Mn144 2.385 . S
O168 C146 1.234 . S
O169 Mn144 2.209 . S
O169 Mn145 2.215 . S
O169 C146 1.283 . S
O170 Mn144 2.094 . S
O170 C148 1.240 . S
O171 Mn145 2.117 . S
O171 C148 1.264 . S
C172 C165 1.403 . S
C172 C173 1.399 . S
C172 H178 0.929 . S
C173 C153 1.449 . S
C173 C172 1.399 . S
C173 H179 0.930 . S
H174 C154 0.931 . S
H175 C155 0.930 . S
H176 C163 0.931 . S
H177 C164 0.929 . S
H178 C172 0.929 . S
H179 C173 0.930 . S
Mn180 O185 2.095 . S
Mn180 O195 2.162 . S
Mn180 O196 2.297 . S
Mn180 O204 2.385 . S
Mn180 O205 2.209 . S
Mn180 O206 2.094 . S
Mn181 O186 2.121 . S
Mn181 N188 2.257 . S
Mn181 N197 2.282 . S
Mn181 O205 2.215 . S
Mn181 O207 2.117 . S
C182 O204 1.234 . S
C182 O205 1.283 . S
C183 O195 1.281 . S
C183 O196 1.236 . S
C184 O206 1.240 . S
C184 O207 1.264 . S
O185 Mn180 2.095 . S
O185 C194 1.250 . S
O186 Mn181 2.121 . S
O186 C194 1.258 . S
C187 N188 1.326 . S
C187 C191 1.460 . S
C187 H193 0.929 . S
N188 Mn181 2.257 . S
N188 C187 1.326 . S
N188 C192 1.362 . S
C189 C190 1.258 . S
C189 C192 1.431 . S
C189 C209 1.449 . S
C190 C189 1.258 . S
C190 C191 1.477 . S
C190 H210 0.931 . S
C191 C187 1.460 . S
C191 C190 1.477 . S
C191 H211 0.930 . S
C192 N188 1.362 . S
C192 C189 1.431 . S
C192 C202 1.476 . S
H193 C187 0.929 . S
C194 O185 1.250 . S
C194 O186 1.258 . S
O195 Mn180 2.162 . S
O195 C183 1.281 . S
O196 Mn180 2.297 . S
O196 C183 1.236 . S
N197 Mn181 2.282 . S
N197 C198 1.328 . S
N197 C202 1.318 . S
C198 N197 1.328 . S
C198 C199 1.457 . S
C198 H203 0.929 . S
C199 C198 1.457 . S
C199 C200 1.291 . S
C199 H212 0.931 . S
C200 C199 1.291 . S
C200 C201 1.373 . S
C200 H213 0.929 . S
C201 C200 1.373 . S
C201 C202 1.396 . S
C201 C208 1.403 . S
C202 C192 1.476 . S
C202 N197 1.318 . S
C202 C201 1.396 . S
H203 C198 0.929 . S
O204 Mn180 2.385 . S
O204 C182 1.234 . S
O205 Mn180 2.209 . S
O205 Mn181 2.215 . S
O205 C182 1.283 . S
O206 Mn180 2.094 . S
O206 C184 1.240 . S
O207 Mn181 2.117 . S
O207 C184 1.264 . S
C208 C201 1.403 . S
C208 C209 1.399 . S
C208 H214 0.929 . S
C209 C189 1.449 . S
C209 C208 1.399 . S
C209 H215 0.930 . S
H210 C190 0.931 . S
H211 C191 0.930 . S
H212 C199 0.931 . S
H213 C200 0.929 . S
H214 C208 0.929 . S
H215 C209 0.930 . S
Mn216 O221 2.095 . S
Mn216 O231 2.162 . S
Mn216 O232 2.297 . S
Mn216 O240 2.385 . S
Mn216 O241 2.209 . S
Mn216 O242 2.094 . S
Mn217 O222 2.121 . S
Mn217 N224 2.257 . S
Mn217 N233 2.282 . S
Mn217 O241 2.215 . S
Mn217 O243 2.117 . S
C218 O240 1.234 . S
C218 O241 1.283 . S
C219 O231 1.281 . S
C219 O232 1.236 . S
C220 O242 1.240 . S
C220 O243 1.264 . S
O221 Mn216 2.095 . S
O221 C230 1.250 . S
O222 Mn217 2.121 . S
O222 C230 1.258 . S
C223 N224 1.326 . S
C223 C227 1.460 . S
C223 H229 0.929 . S
N224 Mn217 2.257 . S
N224 C223 1.326 . S
N224 C228 1.362 . S
C225 C226 1.258 . S
C225 C228 1.431 . S
C225 C245 1.449 . S
C226 C225 1.258 . S
C226 C227 1.477 . S
C226 H246 0.931 . S
C227 C223 1.460 . S
C227 C226 1.477 . S
C227 H247 0.930 . S
C228 N224 1.362 . S
C228 C225 1.431 . S
C228 C238 1.476 . S
H229 C223 0.929 . S
C230 O221 1.250 . S
C230 O222 1.258 . S
O231 Mn216 2.162 . S
O231 C219 1.281 . S
O232 Mn216 2.297 . S
O232 C219 1.236 . S
N233 Mn217 2.282 . S
N233 C234 1.328 . S
N233 C238 1.318 . S
C234 N233 1.328 . S
C234 C235 1.457 . S
C234 H239 0.929 . S
C235 C234 1.457 . S
C235 C236 1.291 . S
C235 H248 0.931 . S
C236 C235 1.291 . S
C236 C237 1.373 . S
C236 H249 0.929 . S
C237 C236 1.373 . S
C237 C238 1.396 . S
C237 C244 1.403 . S
C238 C228 1.476 . S
C238 N233 1.318 . S
C238 C237 1.396 . S
H239 C234 0.929 . S
O240 Mn216 2.385 . S
O240 C218 1.234 . S
O241 Mn216 2.209 . S
O241 Mn217 2.215 . S
O241 C218 1.283 . S
O242 Mn216 2.094 . S
O242 C220 1.240 . S
O243 Mn217 2.117 . S
O243 C220 1.264 . S
C244 C237 1.403 . S
C244 C245 1.399 . S
C244 H250 0.929 . S
C245 C225 1.449 . S
C245 C244 1.399 . S
C245 H251 0.930 . S
H246 C226 0.931 . S
H247 C227 0.930 . S
H248 C235 0.931 . S
H249 C236 0.929 . S
H250 C244 0.929 . S
H251 C245 0.930 . S
Mn252 O257 2.064 1_655 S
Mn252 O267 2.159 1_655 S
Mn252 O268 2.293 . S
Mn252 O276 2.419 . S
Mn252 O277 2.223 . S
Mn252 O278 2.098 1_655 S
Mn253 O258 2.121 1_655 S
Mn253 N260 2.257 . S
Mn253 N269 2.282 . S
Mn253 O277 2.215 . S
Mn253 O279 2.117 1_655 S
C254 O276 1.234 . S
C254 O277 1.283 . S
C255 O267 1.281 1_655 S
C255 O268 1.236 . S
C256 O278 1.240 . S
C256 O279 1.264 . S
O257 Mn252 2.064 1_455 S
O257 C266 1.250 . S
O258 Mn253 2.121 1_455 S
O258 C266 1.258 . S
C259 N260 1.326 . S
C259 C263 1.460 . S
C259 H265 0.929 1_655 S
N260 Mn253 2.257 . S
N260 C259 1.326 . S
N260 C264 1.362 . S
C261 C262 1.258 . S
C261 C264 1.431 . S
C261 C281 1.449 . S
C262 C261 1.258 . S
C262 C263 1.477 . S
C262 H282 0.931 . S
C263 C259 1.460 . S
C263 C262 1.477 . S
C263 H283 0.930 . S
C264 N260 1.362 . S
C264 C261 1.431 . S
C264 C274 1.476 . S
H265 C259 0.929 1_455 S
C266 O257 1.250 . S
C266 O258 1.258 . S
O267 Mn252 2.159 1_455 S
O267 C255 1.281 1_455 S
O268 Mn252 2.293 . S
O268 C255 1.236 . S
N269 Mn253 2.282 . S
N269 C270 1.328 . S
N269 C274 1.318 . S
C270 N269 1.328 . S
C270 C271 1.457 . S
C270 H275 0.929 . S
C271 C270 1.457 . S
C271 C272 1.291 . S
C271 H284 0.931 . S
C272 C271 1.291 . S
C272 C273 1.373 . S
C272 H285 0.929 . S
C273 C272 1.373 . S
C273 C274 1.396 . S
C273 C280 1.403 . S
C274 C264 1.476 . S
C274 N269 1.318 . S
C274 C273 1.396 . S
H275 C270 0.929 . S
O276 Mn252 2.419 . S
O276 C254 1.234 . S
O277 Mn252 2.223 . S
O277 Mn253 2.215 . S
O277 C254 1.283 . S
O278 Mn252 2.098 1_455 S
O278 C256 1.240 . S
O279 Mn253 2.117 1_455 S
O279 C256 1.264 . S
C280 C273 1.403 . S
C280 C281 1.399 . S
C280 H286 0.929 . S
C281 C261 1.449 . S
C281 C280 1.399 . S
C281 H287 0.930 . S
H282 C262 0.931 . S
H283 C263 0.930 . S
H284 C271 0.931 . S
H285 C272 0.929 . S
H286 C280 0.929 . S
H287 C281 0.930 . S
Mn288 O293 2.095 . S
Mn288 O303 2.162 . S
Mn288 O304 2.297 . S
Mn288 O312 2.385 . S
Mn288 O313 2.209 . S
Mn288 O314 2.094 . S
Mn289 O294 2.121 . S
Mn289 N296 2.257 . S
Mn289 N305 2.282 . S
Mn289 O313 2.215 . S
Mn289 O315 2.117 . S
C290 O312 1.234 . S
C290 O313 1.283 . S
C291 O303 1.281 . S
C291 O304 1.236 . S
C292 O314 1.240 . S
C292 O315 1.264 . S
O293 Mn288 2.095 . S
O293 C302 1.250 . S
O294 Mn289 2.121 . S
O294 C302 1.258 . S
C295 N296 1.326 . S
C295 C299 1.460 . S
C295 H301 0.929 . S
N296 Mn289 2.257 . S
N296 C295 1.326 . S
N296 C300 1.362 . S
C297 C298 1.258 . S
C297 C300 1.431 . S
C297 C317 1.449 1_545 S
C298 C297 1.258 . S
C298 C299 1.477 . S
C298 H318 0.931 . S
C299 C295 1.460 . S
C299 C298 1.477 . S
C299 H319 0.930 . S
C300 N296 1.362 . S
C300 C297 1.431 . S
C300 C310 1.476 . S
H301 C295 0.929 . S
C302 O293 1.250 . S
C302 O294 1.258 . S
O303 Mn288 2.162 . S
O303 C291 1.281 . S
O304 Mn288 2.297 . S
O304 C291 1.236 . S
N305 Mn289 2.282 . S
N305 C306 1.328 . S
N305 C310 1.318 . S
C306 N305 1.328 . S
C306 C307 1.457 1_545 S
C306 H311 0.929 . S
C307 C306 1.457 1_565 S
C307 C308 1.291 . S
C307 H320 0.931 . S
C308 C307 1.291 . S
C308 C309 1.373 . S
C308 H321 0.929 . S
C309 C308 1.373 . S
C309 C310 1.396 1_565 S
C309 C316 1.403 . S
C310 C300 1.476 . S
C310 N305 1.318 . S
C310 C309 1.396 1_545 S
H311 C306 0.929 . S
O312 Mn288 2.385 . S
O312 C290 1.234 . S
O313 Mn288 2.209 . S
O313 Mn289 2.215 . S
O313 C290 1.283 . S
O314 Mn288 2.094 . S
O314 C292 1.240 . S
O315 Mn289 2.117 . S
O315 C292 1.264 . S
C316 C309 1.403 . S
C316 C317 1.399 . S
C316 H322 0.929 . S
C317 C297 1.449 1_565 S
C317 C316 1.399 . S
C317 H323 0.930 . S
H318 C298 0.931 . S
H319 C299 0.930 . S
H320 C307 0.931 . S
H321 C308 0.929 . S
H322 C316 0.929 . S
H323 C317 0.930 . S
Mn324 O329 2.095 . S
Mn324 O339 2.162 . S
Mn324 O340 2.297 . S
Mn324 O348 2.385 . S
Mn324 O349 2.209 . S
Mn324 O350 2.094 . S
Mn325 O330 2.121 . S
Mn325 N332 2.257 . S
Mn325 N341 2.282 . S
Mn325 O349 2.215 . S
Mn325 O351 2.117 . S
C326 O348 1.234 . S
C326 O349 1.283 . S
C327 O339 1.281 . S
C327 O340 1.236 . S
C328 O350 1.240 . S
C328 O351 1.264 . S
O329 Mn324 2.095 . S
O329 C338 1.250 . S
O330 Mn325 2.121 . S
O330 C338 1.258 . S
C331 N332 1.326 . S
C331 C335 1.460 . S
C331 H337 0.929 . S
N332 Mn325 2.257 . S
N332 C331 1.326 . S
N332 C336 1.362 . S
C333 C334 1.258 . S
C333 C336 1.431 . S
C333 C353 1.449 . S
C334 C333 1.258 . S
C334 C335 1.477 . S
C334 H354 0.931 . S
C335 C331 1.460 . S
C335 C334 1.477 . S
C335 H355 0.930 . S
C336 N332 1.362 . S
C336 C333 1.431 . S
C336 C346 1.476 . S
H337 C331 0.929 . S
C338 O329 1.250 . S
C338 O330 1.258 . S
O339 Mn324 2.162 . S
O339 C327 1.281 . S
O340 Mn324 2.297 . S
O340 C327 1.236 . S
N341 Mn325 2.282 . S
N341 C342 1.328 . S
N341 C346 1.318 . S
C342 N341 1.328 . S
C342 C343 1.457 . S
C342 H347 0.929 . S
C343 C342 1.457 . S
C343 C344 1.291 . S
C343 H356 0.931 . S
C344 C343 1.291 . S
C344 C345 1.373 . S
C344 H357 0.929 . S
C345 C344 1.373 . S
C345 C346 1.396 . S
C345 C352 1.403 . S
C346 C336 1.476 . S
C346 N341 1.318 . S
C346 C345 1.396 . S
H347 C342 0.929 . S
O348 Mn324 2.385 . S
O348 C326 1.234 . S
O349 Mn324 2.209 . S
O349 Mn325 2.215 . S
O349 C326 1.283 . S
O350 Mn324 2.094 . S
O350 C328 1.240 . S
O351 Mn325 2.117 . S
O351 C328 1.264 . S
C352 C345 1.403 . S
C352 C353 1.399 . S
C352 H358 0.929 . S
C353 C333 1.449 . S
C353 C352 1.399 . S
C353 H359 0.930 . S
H354 C334 0.931 . S
H355 C335 0.930 . S
H356 C343 0.931 . S
H357 C344 0.929 . S
H358 C352 0.929 . S
H359 C353 0.930 . S
Mn360 O365 2.095 . S
Mn360 O375 2.162 . S
Mn360 O376 2.297 . S
Mn360 O384 2.385 . S
Mn360 O385 2.209 . S
Mn360 O386 2.094 . S
Mn361 O366 2.121 . S
Mn361 N368 2.257 . S
Mn361 N377 2.282 . S
Mn361 O385 2.215 . S
Mn361 O387 2.117 . S
C362 O384 1.234 . S
C362 O385 1.283 . S
C363 O375 1.281 . S
C363 O376 1.236 . S
C364 O386 1.240 . S
C364 O387 1.264 . S
O365 Mn360 2.095 . S
O365 C374 1.250 . S
O366 Mn361 2.121 . S
O366 C374 1.258 . S
C367 N368 1.326 . S
C367 C371 1.460 . S
C367 H373 0.929 . S
N368 Mn361 2.257 . S
N368 C367 1.326 . S
N368 C372 1.362 . S
C369 C370 1.258 . S
C369 C372 1.431 . S
C369 C389 1.449 . S
C370 C369 1.258 . S
C370 C371 1.477 . S
C370 H390 0.931 . S
C371 C367 1.460 . S
C371 C370 1.477 . S
C371 H391 0.930 . S
C372 N368 1.362 . S
C372 C369 1.431 . S
C372 C382 1.476 . S
H373 C367 0.929 . S
C374 O365 1.250 . S
C374 O366 1.258 . S
O375 Mn360 2.162 . S
O375 C363 1.281 . S
O376 Mn360 2.297 . S
O376 C363 1.236 . S
N377 Mn361 2.282 . S
N377 C378 1.328 . S
N377 C382 1.318 . S
C378 N377 1.328 . S
C378 C379 1.457 . S
C378 H383 0.929 . S
C379 C378 1.457 . S
C379 C380 1.291 . S
C379 H392 0.931 . S
C380 C379 1.291 . S
C380 C381 1.373 . S
C380 H393 0.929 . S
C381 C380 1.373 . S
C381 C382 1.396 . S
C381 C388 1.403 . S
C382 C372 1.476 . S
C382 N377 1.318 . S
C382 C381 1.396 . S
H383 C378 0.929 . S
O384 Mn360 2.385 . S
O384 C362 1.234 . S
O385 Mn360 2.209 . S
O385 Mn361 2.215 . S
O385 C362 1.283 . S
O386 Mn360 2.094 . S
O386 C364 1.240 . S
O387 Mn361 2.117 . S
O387 C364 1.264 . S
C388 C381 1.403 . S
C388 C389 1.399 . S
C388 H394 0.929 . S
C389 C369 1.449 . S
C389 C388 1.399 . S
C389 H395 0.930 . S
H390 C370 0.931 . S
H391 C371 0.930 . S
H392 C379 0.931 . S
H393 C380 0.929 . S
H394 C388 0.929 . S
H395 C389 0.930 . S
Mn396 O401 2.095 . S
Mn396 O411 2.162 . S
Mn396 O412 2.297 . S
Mn396 O420 2.385 . S
Mn396 O421 2.209 . S
Mn396 O422 2.094 . S
Mn397 O402 2.121 . S
Mn397 N404 2.257 . S
Mn397 N413 2.282 . S
Mn397 O421 2.215 . S
Mn397 O423 2.105 1_554 S
C398 O420 1.234 . S
C398 O421 1.283 . S
C399 O411 1.281 . S
C399 O412 1.236 . S
C400 O422 1.240 . S
C400 O423 1.258 1_554 S
O401 Mn396 2.095 . S
O401 C410 1.250 . S
O402 Mn397 2.121 . S
O402 C410 1.258 . S
C403 N404 1.326 . S
C403 C407 1.460 . S
C403 H409 0.929 . S
N404 Mn397 2.257 . S
N404 C403 1.326 . S
N404 C408 1.362 . S
C405 C406 1.258 . S
C405 C408 1.431 . S
C405 C425 1.449 . S
C406 C405 1.258 . S
C406 C407 1.477 . S
C406 H426 0.931 1_565 S
C407 C403 1.460 . S
C407 C406 1.477 . S
C407 H427 0.926 1_565 S
C408 N404 1.362 . S
C408 C405 1.431 . S
C408 C418 1.476 . S
H409 C403 0.929 . S
C410 O401 1.250 . S
C410 O402 1.258 . S
O411 Mn396 2.162 . S
O411 C399 1.281 . S
O412 Mn396 2.297 . S
O412 C399 1.236 . S
N413 Mn397 2.282 . S
N413 C414 1.328 1_554 S
N413 C418 1.318 . S
C414 N413 1.328 1_556 S
C414 C415 1.457 . S
C414 H419 0.929 . S
C415 C414 1.457 . S
C415 C416 1.291 . S
C415 H428 0.931 . S
C416 C415 1.291 . S
C416 C417 1.373 . S
C416 H429 0.929 . S
C417 C416 1.373 . S
C417 C418 1.396 1_556 S
C417 C424 1.403 . S
C418 C408 1.476 . S
C418 N413 1.318 . S
C418 C417 1.396 1_554 S
H419 C414 0.929 . S
O420 Mn396 2.385 . S
O420 C398 1.234 . S
O421 Mn396 2.209 . S
O421 Mn397 2.215 . S
O421 C398 1.283 . S
O422 Mn396 2.094 . S
O422 C400 1.240 . S
O423 Mn397 2.105 1_556 S
O423 C400 1.258 1_556 S
C424 C417 1.403 . S
C424 C425 1.394 1_556 S
C424 H430 0.935 . S
C425 C405 1.449 . S
C425 C424 1.394 1_554 S
C425 H431 0.930 1_565 S
H426 C406 0.931 1_545 S
H427 C407 0.926 1_545 S
H428 C415 0.931 . S
H429 C416 0.929 . S
H430 C424 0.935 . S
H431 C425 0.930 1_545 S
Mn432 O437 2.095 . S
Mn432 O447 2.162 . S
Mn432 O448 2.297 . S
Mn432 O456 2.385 . S
Mn432 O457 2.209 . S
Mn432 O458 2.119 . S
Mn433 O438 2.121 1_556 S
Mn433 N440 2.257 1_556 S
Mn433 N449 2.282 . S
Mn433 O457 2.215 1_556 S
Mn433 O459 2.117 . S
C434 O456 1.234 . S
C434 O457 1.283 . S
C435 O447 1.281 . S
C435 O448 1.236 . S
C436 O458 1.213 1_556 S
C436 O459 1.264 . S
O437 Mn432 2.095 . S
O437 C446 1.250 . S
O438 Mn433 2.121 1_554 S
O438 C446 1.258 . S
C439 N440 1.326 . S
C439 C443 1.460 . S
C439 H445 0.929 . S
N440 Mn433 2.257 1_554 S
N440 C439 1.326 . S
N440 C444 1.362 1_554 S
C441 C442 1.258 1_556 S
C441 C444 1.431 . S
C441 C461 1.449 . S
C442 C441 1.258 1_554 S
C442 C443 1.477 . S
C442 H462 0.931 . S
C443 C439 1.460 . S
C443 C442 1.477 . S
C443 H463 0.930 . S
C444 N440 1.362 1_556 S
C444 C441 1.431 . S
C444 C454 1.476 . S
H445 C439 0.929 . S
C446 O437 1.250 . S
C446 O438 1.258 . S
O447 Mn432 2.162 . S
O447 C435 1.281 . S
O448 Mn432 2.297 . S
O448 C435 1.236 . S
N449 Mn433 2.282 . S
N449 C450 1.328 . S
N449 C454 1.318 . S
C450 N449 1.328 . S
C450 C451 1.457 . S
C450 H455 0.929 . S
C451 C450 1.457 . S
C451 C452 1.291 . S
C451 H464 0.931 . S
C452 C451 1.291 . S
C452 C453 1.373 . S
C452 H465 0.929 . S
C453 C452 1.373 . S
C453 C454 1.396 . S
C453 C460 1.403 . S
C454 C444 1.476 . S
C454 N449 1.318 . S
C454 C453 1.396 . S
H455 C450 0.929 . S
O456 Mn432 2.385 . S
O456 C434 1.234 . S
O457 Mn432 2.209 . S
O457 Mn433 2.215 1_554 S
O457 C434 1.283 . S
O458 Mn432 2.119 . S
O458 C436 1.213 1_554 S
O459 Mn433 2.117 . S
O459 C436 1.264 . S
C460 C453 1.403 . S
C460 C461 1.399 . S
C460 H466 0.929 . S
C461 C441 1.449 . S
C461 C460 1.399 . S
C461 H467 0.930 . S
H462 C442 0.931 . S
H463 C443 0.930 . S
H464 C451 0.931 . S
H465 C452 0.929 . S
H466 C460 0.929 . S
H467 C461 0.930 . S
Mn468 O473 2.095 1_554 S
Mn468 O483 2.162 . S
Mn468 O484 2.297 . S
Mn468 O492 2.385 . S
Mn468 O493 2.209 1_554 S
Mn468 O494 2.094 1_554 S
Mn469 O474 2.121 . S
Mn469 N476 2.257 . S
Mn469 N485 2.282 . S
Mn469 O493 2.215 . S
Mn469 O495 2.117 . S
C470 O492 1.234 1_556 S
C470 O493 1.283 . S
C471 O483 1.281 . S
C471 O484 1.236 . S
C472 O494 1.240 . S
C472 O495 1.264 . S
O473 Mn468 2.095 1_556 S
O473 C482 1.250 . S
O474 Mn469 2.121 . S
O474 C482 1.258 . S
C475 N476 1.326 . S
C475 C479 1.460 . S
C475 H481 0.929 . S
N476 Mn469 2.257 . S
N476 C475 1.326 . S
N476 C480 1.362 . S
C477 C478 1.258 . S
C477 C480 1.431 . S
C477 C497 1.449 . S
C478 C477 1.258 . S
C478 C479 1.477 . S
C478 H498 0.931 . S
C479 C475 1.460 . S
C479 C478 1.477 . S
C479 H499 0.930 . S
C480 N476 1.362 . S
C480 C477 1.431 . S
C480 C490 1.476 . S
H481 C475 0.929 . S
C482 O473 1.250 . S
C482 O474 1.258 . S
O483 Mn468 2.162 . S
O483 C471 1.281 . S
O484 Mn468 2.297 . S
O484 C471 1.236 . S
N485 Mn469 2.282 . S
N485 C486 1.328 . S
N485 C490 1.318 . S
C486 N485 1.328 . S
C486 C487 1.457 . S
C486 H491 0.929 . S
C487 C486 1.457 . S
C487 C488 1.291 . S
C487 H500 0.931 . S
C488 C487 1.291 . S
C488 C489 1.373 . S
C488 H501 0.929 . S
C489 C488 1.373 . S
C489 C490 1.396 . S
C489 C496 1.403 . S
C490 C480 1.476 . S
C490 N485 1.318 . S
C490 C489 1.396 . S
H491 C486 0.929 . S
O492 Mn468 2.385 . S
O492 C470 1.234 1_554 S
O493 Mn468 2.209 1_556 S
O493 Mn469 2.215 . S
O493 C470 1.283 . S
O494 Mn468 2.094 1_556 S
O494 C472 1.240 . S
O495 Mn469 2.117 . S
O495 C472 1.264 . S
C496 C489 1.403 . S
C496 C497 1.399 . S
C496 H502 0.929 . S
C497 C477 1.449 . S
C497 C496 1.399 . S
C497 H503 0.930 . S
H498 C478 0.931 . S
H499 C479 0.930 . S
H500 C487 0.931 . S
H501 C488 0.929 . S
H502 C496 0.929 . S
H503 C497 0.930 . S
Mn504 O509 2.095 . S
Mn504 O519 2.162 . S
Mn504 O520 2.297 . S
Mn504 O528 2.385 . S
Mn504 O529 2.209 . S
Mn504 O530 2.094 . S
Mn505 O510 2.121 . S
Mn505 N512 2.257 . S
Mn505 N521 2.282 . S
Mn505 O529 2.215 . S
Mn505 O531 2.117 . S
C506 O528 1.234 . S
C506 O529 1.283 . S
C507 O519 1.281 . S
C507 O520 1.236 . S
C508 O530 1.240 . S
C508 O531 1.264 . S
O509 Mn504 2.095 . S
O509 C518 1.250 . S
O510 Mn505 2.121 . S
O510 C518 1.258 . S
C511 N512 1.326 . S
C511 C515 1.460 . S
C511 H517 0.929 . S
N512 Mn505 2.257 . S
N512 C511 1.326 . S
N512 C516 1.362 . S
C513 C514 1.258 . S
C513 C516 1.431 . S
C513 C533 1.449 . S
C514 C513 1.258 . S
C514 C515 1.477 . S
C514 H534 0.931 . S
C515 C511 1.460 . S
C515 C514 1.477 . S
C515 H535 0.930 . S
C516 N512 1.362 . S
C516 C513 1.431 . S
C516 C526 1.476 . S
H517 C511 0.929 . S
C518 O509 1.250 . S
C518 O510 1.258 . S
O519 Mn504 2.162 . S
O519 C507 1.281 . S
O520 Mn504 2.297 . S
O520 C507 1.236 . S
N521 Mn505 2.282 . S
N521 C522 1.328 . S
N521 C526 1.318 . S
C522 N521 1.328 . S
C522 C523 1.457 . S
C522 H527 0.929 . S
C523 C522 1.457 . S
C523 C524 1.291 . S
C523 H536 0.931 . S
C524 C523 1.291 . S
C524 C525 1.373 . S
C524 H537 0.929 . S
C525 C524 1.373 . S
C525 C526 1.396 . S
C525 C532 1.403 . S
C526 C516 1.476 . S
C526 N521 1.318 . S
C526 C525 1.396 . S
H527 C522 0.929 . S
O528 Mn504 2.385 . S
O528 C506 1.234 . S
O529 Mn504 2.209 . S
O529 Mn505 2.215 . S
O529 C506 1.283 . S
O530 Mn504 2.094 . S
O530 C508 1.240 . S
O531 Mn505 2.117 . S
O531 C508 1.264 . S
C532 C525 1.403 . S
C532 C533 1.399 . S
C532 H538 0.929 . S
C533 C513 1.449 . S
C533 C532 1.399 . S
C533 H539 0.930 . S
H534 C514 0.931 . S
H535 C515 0.930 . S
H536 C523 0.931 . S
H537 C524 0.929 . S
H538 C532 0.929 . S
H539 C533 0.930 . S
Mn540 O545 2.095 . S
Mn540 O555 2.162 . S
Mn540 O556 2.297 . S
Mn540 O564 2.385 . S
Mn540 O565 2.209 . S
Mn540 O566 2.094 . S
Mn541 O546 2.121 . S
Mn541 N548 2.257 . S
Mn541 N557 2.282 . S
Mn541 O565 2.215 . S
Mn541 O567 2.117 . S
C542 O564 1.234 . S
C542 O565 1.283 . S
C543 O555 1.281 . S
C543 O556 1.236 . S
C544 O566 1.240 . S
C544 O567 1.264 . S
O545 Mn540 2.095 . S
O545 C554 1.250 . S
O546 Mn541 2.121 . S
O546 C554 1.258 . S
C547 N548 1.326 . S
C547 C551 1.460 1_565 S
C547 H553 0.929 . S
N548 Mn541 2.257 . S
N548 C547 1.326 . S
N548 C552 1.362 . S
C549 C550 1.258 . S
C549 C552 1.431 1_545 S
C549 C569 1.449 . S
C550 C549 1.258 . S
C550 C551 1.477 . S
C550 H570 0.931 . S
C551 C547 1.460 1_545 S
C551 C550 1.477 . S
C551 H571 0.930 . S
C552 N548 1.362 . S
C552 C549 1.431 1_565 S
C552 C562 1.476 . S
H553 C547 0.929 . S
C554 O545 1.250 . S
C554 O546 1.258 . S
O555 Mn540 2.162 . S
O555 C543 1.281 . S
O556 Mn540 2.297 . S
O556 C543 1.236 . S
N557 Mn541 2.282 . S
N557 C558 1.328 . S
N557 C562 1.318 . S
C558 N557 1.328 . S
C558 C559 1.457 . S
C558 H563 0.929 . S
C559 C558 1.457 . S
C559 C560 1.291 . S
C559 H572 0.931 . S
C560 C559 1.291 . S
C560 C561 1.373 . S
C560 H573 0.929 . S
C561 C560 1.373 . S
C561 C562 1.396 . S
C561 C568 1.403 . S
C562 C552 1.476 . S
C562 N557 1.318 . S
C562 C561 1.396 . S
H563 C558 0.929 . S
O564 Mn540 2.385 . S
O564 C542 1.234 . S
O565 Mn540 2.209 . S
O565 Mn541 2.215 . S
O565 C542 1.283 . S
O566 Mn540 2.094 . S
O566 C544 1.240 . S
O567 Mn541 2.117 . S
O567 C544 1.264 . S
C568 C561 1.403 . S
C568 C569 1.399 1_565 S
C568 H574 0.929 . S
C569 C549 1.449 . S
C569 C568 1.399 1_545 S
C569 H575 0.930 . S
H570 C550 0.931 . S
H571 C551 0.930 . S
H572 C559 0.931 . S
H573 C560 0.929 . S
H574 C568 0.929 . S
H575 C569 0.930 . S
Mn576 O581 2.095 1_565 S
Mn576 O591 2.162 1_565 S
Mn576 O592 2.297 . S
Mn576 O600 2.385 . S
Mn576 O601 2.209 . S
Mn576 O602 2.094 1_565 S
Mn577 O582 2.121 1_565 S
Mn577 N584 2.257 . S
Mn577 N593 2.282 . S
Mn577 O601 2.215 . S
Mn577 O603 2.117 1_565 S
C578 O600 1.234 . S
C578 O601 1.283 . S
C579 O591 1.281 . S
C579 O592 1.236 1_545 S
C580 O602 1.240 . S
C580 O603 1.264 . S
O581 Mn576 2.095 1_545 S
O581 C590 1.250 . S
O582 Mn577 2.121 1_545 S
O582 C590 1.258 . S
C583 N584 1.326 . S
C583 C587 1.460 . S
C583 H589 0.929 1_565 S
N584 Mn577 2.257 . S
N584 C583 1.326 . S
N584 C588 1.362 . S
C585 C586 1.258 . S
C585 C588 1.431 . S
C585 C605 1.449 . S
C586 C585 1.258 . S
C586 C587 1.477 . S
C586 H606 0.931 . S
C587 C583 1.460 . S
C587 C586 1.477 . S
C587 H607 0.930 . S
C588 N584 1.362 . S
C588 C585 1.431 . S
C588 C598 1.476 . S
H589 C583 0.929 1_545 S
C590 O581 1.250 . S
C590 O582 1.258 . S
O591 Mn576 2.162 1_545 S
O591 C579 1.281 . S
O592 Mn576 2.297 . S
O592 C579 1.236 1_565 S
N593 Mn577 2.282 . S
N593 C594 1.328 . S
N593 C598 1.318 . S
C594 N593 1.328 . S
C594 C595 1.457 . S
C594 H599 0.929 . S
C595 C594 1.457 . S
C595 C596 1.291 . S
C595 H608 0.931 . S
C596 C595 1.291 . S
C596 C597 1.373 . S
C596 H609 0.929 . S
C597 C596 1.373 . S
C597 C598 1.396 . S
C597 C604 1.403 . S
C598 C588 1.476 . S
C598 N593 1.318 . S
C598 C597 1.396 . S
H599 C594 0.929 . S
O600 Mn576 2.385 . S
O600 C578 1.234 . S
O601 Mn576 2.209 . S
O601 Mn577 2.215 . S
O601 C578 1.283 . S
O602 Mn576 2.094 1_545 S
O602 C580 1.240 . S
O603 Mn577 2.117 1_545 S
O603 C580 1.264 . S
C604 C597 1.403 . S
C604 C605 1.399 . S
C604 H610 0.929 . S
C605 C585 1.449 . S
C605 C604 1.399 . S
C605 H611 0.930 . S
H606 C586 0.931 . S
H607 C587 0.930 . S
H608 C595 0.931 . S
H609 C596 0.929 . S
H610 C604 0.929 . S
H611 C605 0.930 . S
Mn612 O617 2.095 . S
Mn612 O627 2.162 . S
Mn612 O628 2.297 . S
Mn612 O636 2.385 . S
Mn612 O637 2.209 . S
Mn612 O638 2.094 . S
Mn613 O618 2.121 . S
Mn613 N620 2.257 . S
Mn613 N629 2.282 . S
Mn613 O637 2.215 . S
Mn613 O639 2.117 . S
C614 O636 1.234 . S
C614 O637 1.283 . S
C615 O627 1.281 . S
C615 O628 1.236 . S
C616 O638 1.240 . S
C616 O639 1.264 . S
O617 Mn612 2.095 . S
O617 C626 1.250 . S
O618 Mn613 2.121 . S
O618 C626 1.258 . S
C619 N620 1.326 . S
C619 C623 1.460 . S
C619 H625 0.929 . S
N620 Mn613 2.257 . S
N620 C619 1.326 . S
N620 C624 1.362 . S
C621 C622 1.258 . S
C621 C624 1.431 . S
C621 C641 1.449 . S
C622 C621 1.258 . S
C622 C623 1.477 . S
C622 H642 0.931 . S
C623 C619 1.460 . S
C623 C622 1.477 . S
C623 H643 0.930 . S
C624 N620 1.362 . S
C624 C621 1.431 . S
C624 C634 1.476 . S
H625 C619 0.929 . S
C626 O617 1.250 . S
C626 O618 1.258 . S
O627 Mn612 2.162 . S
O627 C615 1.281 . S
O628 Mn612 2.297 . S
O628 C615 1.236 . S
N629 Mn613 2.282 . S
N629 C630 1.328 . S
N629 C634 1.318 . S
C630 N629 1.328 . S
C630 C631 1.457 . S
C630 H635 0.929 . S
C631 C630 1.457 . S
C631 C632 1.291 . S
C631 H644 0.931 . S
C632 C631 1.291 . S
C632 C633 1.373 . S
C632 H645 0.929 . S
C633 C632 1.373 . S
C633 C634 1.396 . S
C633 C640 1.403 . S
C634 C624 1.476 . S
C634 N629 1.318 . S
C634 C633 1.396 . S
H635 C630 0.929 . S
O636 Mn612 2.385 . S
O636 C614 1.234 . S
O637 Mn612 2.209 . S
O637 Mn613 2.215 . S
O637 C614 1.283 . S
O638 Mn612 2.094 . S
O638 C616 1.240 . S
O639 Mn613 2.117 . S
O639 C616 1.264 . S
C640 C633 1.403 . S
C640 C641 1.399 . S
C640 H646 0.929 . S
C641 C621 1.449 . S
C641 C640 1.399 . S
C641 H647 0.930 . S
H642 C622 0.931 . S
H643 C623 0.930 . S
H644 C631 0.931 . S
H645 C632 0.929 . S
H646 C640 0.929 . S
H647 C641 0.930 . S
Mn648 O653 2.095 . S
Mn648 O663 2.162 . S
Mn648 O664 2.297 . S
Mn648 O672 2.385 . S
Mn648 O673 2.209 . S
Mn648 O674 2.094 . S
Mn649 O654 2.121 . S
Mn649 N656 2.257 . S
Mn649 N665 2.282 . S
Mn649 O673 2.215 . S
Mn649 O675 2.117 . S
C650 O672 1.234 . S
C650 O673 1.283 . S
C651 O663 1.281 . S
C651 O664 1.236 . S
C652 O674 1.240 . S
C652 O675 1.264 . S
O653 Mn648 2.095 . S
O653 C662 1.250 . S
O654 Mn649 2.121 . S
O654 C662 1.258 . S
C655 N656 1.326 . S
C655 C659 1.460 . S
C655 H661 0.929 . S
N656 Mn649 2.257 . S
N656 C655 1.326 . S
N656 C660 1.362 . S
C657 C658 1.258 . S
C657 C660 1.431 . S
C657 C677 1.449 . S
C658 C657 1.258 . S
C658 C659 1.477 . S
C658 H678 0.931 . S
C659 C655 1.460 . S
C659 C658 1.477 . S
C659 H679 0.930 . S
C660 N656 1.362 . S
C660 C657 1.431 . S
C660 C670 1.476 . S
H661 C655 0.929 . S
C662 O653 1.250 . S
C662 O654 1.258 . S
O663 Mn648 2.162 . S
O663 C651 1.281 . S
O664 Mn648 2.297 . S
O664 C651 1.236 . S
N665 Mn649 2.282 . S
N665 C666 1.328 . S
N665 C670 1.318 . S
C666 N665 1.328 . S
C666 C667 1.457 . S
C666 H671 0.929 . S
C667 C666 1.457 . S
C667 C668 1.291 . S
C667 H680 0.931 . S
C668 C667 1.291 . S
C668 C669 1.373 . S
C668 H681 0.929 . S
C669 C668 1.373 . S
C669 C670 1.396 . S
C669 C676 1.403 . S
C670 C660 1.476 . S
C670 N665 1.318 . S
C670 C669 1.396 . S
H671 C666 0.929 . S
O672 Mn648 2.385 . S
O672 C650 1.234 . S
O673 Mn648 2.209 . S
O673 Mn649 2.215 . S
O673 C650 1.283 . S
O674 Mn648 2.094 . S
O674 C652 1.240 . S
O675 Mn649 2.117 . S
O675 C652 1.264 . S
C676 C669 1.403 . S
C676 C677 1.399 . S
C676 H682 0.929 . S
C677 C657 1.449 . S
C677 C676 1.399 . S
C677 H683 0.930 . S
H678 C658 0.931 . S
H679 C659 0.930 . S
H680 C667 0.931 . S
H681 C668 0.929 . S
H682 C676 0.929 . S
H683 C677 0.930 . S
Mn684 O689 2.095 1_545 S
Mn684 O699 2.162 . S
Mn684 O700 2.297 . S
Mn684 O708 2.385 . S
Mn684 O709 2.209 . S
Mn684 O710 2.094 . S
Mn685 O690 2.121 1_545 S
Mn685 N692 2.257 . S
Mn685 N701 2.282 . S
Mn685 O709 2.215 . S
Mn685 O711 2.117 . S
C686 O708 1.234 . S
C686 O709 1.283 . S
C687 O699 1.281 . S
C687 O700 1.236 . S
C688 O710 1.240 . S
C688 O711 1.264 . S
O689 Mn684 2.095 1_565 S
O689 C698 1.250 . S
O690 Mn685 2.121 1_565 S
O690 C698 1.258 . S
C691 N692 1.326 . S
C691 C695 1.460 . S
C691 H697 0.929 . S
N692 Mn685 2.257 . S
N692 C691 1.326 . S
N692 C696 1.362 . S
C693 C694 1.258 . S
C693 C696 1.431 . S
C693 C713 1.449 . S
C694 C693 1.258 . S
C694 C695 1.477 . S
C694 H714 0.931 . S
C695 C691 1.460 . S
C695 C694 1.477 . S
C695 H715 0.930 . S
C696 N692 1.362 . S
C696 C693 1.431 . S
C696 C706 1.476 . S
H697 C691 0.929 . S
C698 O689 1.250 . S
C698 O690 1.258 . S
O699 Mn684 2.162 . S
O699 C687 1.281 . S
O700 Mn684 2.297 . S
O700 C687 1.236 . S
N701 Mn685 2.282 . S
N701 C702 1.328 . S
N701 C706 1.318 . S
C702 N701 1.328 . S
C702 C703 1.457 . S
C702 H707 0.929 . S
C703 C702 1.457 . S
C703 C704 1.291 . S
C703 H716 0.931 . S
C704 C703 1.291 . S
C704 C705 1.373 . S
C704 H717 0.929 . S
C705 C704 1.373 . S
C705 C706 1.396 . S
C705 C712 1.403 . S
C706 C696 1.476 . S
C706 N701 1.318 . S
C706 C705 1.396 . S
H707 C702 0.929 . S
O708 Mn684 2.385 . S
O708 C686 1.234 . S
O709 Mn684 2.209 . S
O709 Mn685 2.215 . S
O709 C686 1.283 . S
O710 Mn684 2.094 . S
O710 C688 1.240 . S
O711 Mn685 2.117 . S
O711 C688 1.264 . S
C712 C705 1.403 . S
C712 C713 1.399 . S
C712 H718 0.929 . S
C713 C693 1.449 . S
C713 C712 1.399 . S
C713 H719 0.930 . S
H714 C694 0.931 . S
H715 C695 0.930 . S
H716 C703 0.931 . S
H717 C704 0.929 . S
H718 C712 0.929 . S
H719 C713 0.930 . S
Mn720 O725 2.095 . S
Mn720 O735 2.162 . S
Mn720 O736 2.297 . S
Mn720 O744 2.385 . S
Mn720 O745 2.209 . S
Mn720 O746 2.094 1_554 S
Mn721 O726 2.121 1_556 S
Mn721 N728 2.257 . S
Mn721 N737 2.282 . S
Mn721 O745 2.215 1_556 S
Mn721 O747 2.117 . S
C722 O744 1.234 . S
C722 O745 1.283 . S
C723 O735 1.281 . S
C723 O736 1.236 . S
C724 O746 1.240 . S
C724 O747 1.264 . S
O725 Mn720 2.095 . S
O725 C734 1.250 . S
O726 Mn721 2.121 1_554 S
O726 C734 1.258 . S
C727 N728 1.326 . S
C727 C731 1.460 . S
C727 H733 0.929 1_556 S
N728 Mn721 2.257 . S
N728 C727 1.326 . S
N728 C732 1.362 . S
C729 C730 1.258 . S
C729 C732 1.431 . S
C729 C749 1.449 . S
C730 C729 1.258 . S
C730 C731 1.477 . S
C730 H750 0.931 . S
C731 C727 1.460 . S
C731 C730 1.477 . S
C731 H751 0.930 1_556 S
C732 N728 1.362 . S
C732 C729 1.431 . S
C732 C742 1.476 . S
H733 C727 0.929 1_554 S
C734 O725 1.250 . S
C734 O726 1.258 . S
O735 Mn720 2.162 . S
O735 C723 1.281 . S
O736 Mn720 2.297 . S
O736 C723 1.236 . S
N737 Mn721 2.282 . S
N737 C738 1.328 . S
N737 C742 1.318 . S
C738 N737 1.328 . S
C738 C739 1.457 . S
C738 H743 0.929 . S
C739 C738 1.457 . S
C739 C740 1.291 . S
C739 H752 0.931 . S
C740 C739 1.291 . S
C740 C741 1.373 . S
C740 H753 0.929 . S
C741 C740 1.373 . S
C741 C742 1.396 . S
C741 C748 1.403 . S
C742 C732 1.476 . S
C742 N737 1.318 . S
C742 C741 1.396 . S
H743 C738 0.929 . S
O744 Mn720 2.385 . S
O744 C722 1.234 . S
O745 Mn720 2.209 . S
O745 Mn721 2.215 1_554 S
O745 C722 1.283 . S
O746 Mn720 2.094 1_556 S
O746 C724 1.240 . S
O747 Mn721 2.117 . S
O747 C724 1.264 . S
C748 C741 1.403 . S
C748 C749 1.399 . S
C748 H754 0.929 . S
C749 C729 1.449 . S
C749 C748 1.399 . S
C749 H755 0.930 . S
H750 C730 0.931 . S
H751 C731 0.930 1_554 S
H752 C739 0.931 . S
H753 C740 0.929 . S
H754 C748 0.929 . S
H755 C749 0.930 . S
Mn756 O761 2.095 1_455 S
Mn756 O771 2.162 . S
Mn756 O772 2.297 1_455 S
Mn756 O780 2.385 1_455 S
Mn756 O781 2.209 1_455 S
Mn756 O782 2.094 . S
Mn757 O762 2.121 . S
Mn757 N764 2.257 . S
Mn757 N773 2.282 . S
Mn757 O781 2.215 . S
Mn757 O783 2.117 . S
C758 O780 1.234 . S
C758 O781 1.283 . S
C759 O771 1.281 . S
C759 O772 1.236 1_455 S
C760 O782 1.240 . S
C760 O783 1.264 1_455 S
O761 Mn756 2.095 1_655 S
O761 C770 1.250 . S
O762 Mn757 2.121 . S
O762 C770 1.258 . S
C763 N764 1.326 . S
C763 C767 1.460 . S
C763 H769 0.929 . S
N764 Mn757 2.257 . S
N764 C763 1.326 . S
N764 C768 1.362 . S
C765 C766 1.258 . S
C765 C768 1.431 . S
C765 C785 1.449 . S
C766 C765 1.258 . S
C766 C767 1.477 . S
C766 H786 0.931 . S
C767 C763 1.460 . S
C767 C766 1.477 . S
C767 H787 0.930 . S
C768 N764 1.362 . S
C768 C765 1.431 . S
C768 C778 1.476 . S
H769 C763 0.929 . S
C770 O761 1.250 . S
C770 O762 1.258 . S
O771 Mn756 2.162 . S
O771 C759 1.281 . S
O772 Mn756 2.297 1_655 S
O772 C759 1.236 1_655 S
N773 Mn757 2.282 . S
N773 C774 1.328 . S
N773 C778 1.318 . S
C774 N773 1.328 . S
C774 C775 1.457 . S
C774 H779 0.929 . S
C775 C774 1.457 . S
C775 C776 1.291 . S
C775 H788 0.931 . S
C776 C775 1.291 . S
C776 C777 1.373 . S
C776 H789 0.929 . S
C777 C776 1.373 . S
C777 C778 1.396 . S
C777 C784 1.403 . S
C778 C768 1.476 . S
C778 N773 1.318 . S
C778 C777 1.396 . S
H779 C774 0.929 . S
O780 Mn756 2.385 1_655 S
O780 C758 1.234 . S
O781 Mn756 2.209 1_655 S
O781 Mn757 2.215 . S
O781 C758 1.283 . S
O782 Mn756 2.094 . S
O782 C760 1.240 . S
O783 Mn757 2.117 . S
O783 C760 1.264 1_655 S
C784 C777 1.403 . S
C784 C785 1.399 . S
C784 H790 0.929 . S
C785 C765 1.449 . S
C785 C784 1.399 . S
C785 H791 0.930 . S
H786 C766 0.931 . S
H787 C767 0.930 . S
H788 C775 0.931 . S
H789 C776 0.929 . S
H790 C784 0.929 . S
H791 C785 0.930 . S
Mn792 O797 2.095 . S
Mn792 O807 2.162 . S
Mn792 O808 2.297 . S
Mn792 O816 2.385 . S
Mn792 O817 2.209 . S
Mn792 O818 2.094 . S
Mn793 O798 2.121 . S
Mn793 N800 2.257 . S
Mn793 N809 2.282 . S
Mn793 O817 2.215 . S
Mn793 O819 2.117 . S
C794 O816 1.234 . S
C794 O817 1.283 . S
C795 O807 1.281 . S
C795 O808 1.236 . S
C796 O818 1.240 . S
C796 O819 1.264 . S
O797 Mn792 2.095 . S
O797 C806 1.250 . S
O798 Mn793 2.121 . S
O798 C806 1.258 . S
C799 N800 1.326 . S
C799 C803 1.460 . S
C799 H805 0.929 . S
N800 Mn793 2.257 . S
N800 C799 1.326 . S
N800 C804 1.362 . S
C801 C802 1.258 . S
C801 C804 1.431 . S
C801 C821 1.449 . S
C802 C801 1.258 . S
C802 C803 1.477 . S
C802 H822 0.931 . S
C803 C799 1.460 . S
C803 C802 1.477 . S
C803 H823 0.930 . S
C804 N800 1.362 . S
C804 C801 1.431 . S
C804 C814 1.476 . S
H805 C799 0.929 . S
C806 O797 1.250 . S
C806 O798 1.258 . S
O807 Mn792 2.162 . S
O807 C795 1.281 . S
O808 Mn792 2.297 . S
O808 C795 1.236 . S
N809 Mn793 2.282 . S
N809 C810 1.328 . S
N809 C814 1.318 . S
C810 N809 1.328 . S
C810 C811 1.457 . S
C810 H815 0.929 . S
C811 C810 1.457 . S
C811 C812 1.291 . S
C811 H824 0.931 . S
C812 C811 1.291 . S
C812 C813 1.373 . S
C812 H825 0.929 . S
C813 C812 1.373 . S
C813 C814 1.396 . S
C813 C820 1.403 . S
C814 C804 1.476 . S
C814 N809 1.318 . S
C814 C813 1.396 . S
H815 C810 0.929 . S
O816 Mn792 2.385 . S
O816 C794 1.234 . S
O817 Mn792 2.209 . S
O817 Mn793 2.215 . S
O817 C794 1.283 . S
O818 Mn792 2.094 . S
O818 C796 1.240 . S
O819 Mn793 2.117 . S
O819 C796 1.264 . S
C820 C813 1.403 . S
C820 C821 1.399 . S
C820 H826 0.929 . S
C821 C801 1.449 . S
C821 C820 1.399 . S
C821 H827 0.930 . S
H822 C802 0.931 . S
H823 C803 0.930 . S
H824 C811 0.931 . S
H825 C812 0.929 . S
H826 C820 0.929 . S
H827 C821 0.930 . S
Mn828 O833 2.095 . S
Mn828 O843 2.162 . S
Mn828 O844 2.297 . S
Mn828 O852 2.385 . S
Mn828 O853 2.209 . S
Mn828 O854 2.094 . S
Mn829 O834 2.121 . S
Mn829 N836 2.257 . S
Mn829 N845 2.282 . S
Mn829 O853 2.215 . S
Mn829 O855 2.117 . S
C830 O852 1.234 . S
C830 O853 1.283 . S
C831 O843 1.281 . S
C831 O844 1.236 . S
C832 O854 1.240 . S
C832 O855 1.264 . S
O833 Mn828 2.095 . S
O833 C842 1.250 . S
O834 Mn829 2.121 . S
O834 C842 1.258 . S
C835 N836 1.326 . S
C835 C839 1.460 . S
C835 H841 0.929 . S
N836 Mn829 2.257 . S
N836 C835 1.326 . S
N836 C840 1.362 . S
C837 C838 1.258 . S
C837 C840 1.431 . S
C837 C857 1.449 . S
C838 C837 1.258 . S
C838 C839 1.477 . S
C838 H858 0.931 . S
C839 C835 1.460 . S
C839 C838 1.477 . S
C839 H859 0.930 . S
C840 N836 1.362 . S
C840 C837 1.431 . S
C840 C850 1.476 . S
H841 C835 0.929 . S
C842 O833 1.250 . S
C842 O834 1.258 . S
O843 Mn828 2.162 . S
O843 C831 1.281 . S
O844 Mn828 2.297 . S
O844 C831 1.236 . S
N845 Mn829 2.282 . S
N845 C846 1.328 . S
N845 C850 1.318 . S
C846 N845 1.328 . S
C846 C847 1.457 . S
C846 H851 0.929 . S
C847 C846 1.457 . S
C847 C848 1.291 . S
C847 H860 0.931 . S
C848 C847 1.291 . S
C848 C849 1.373 . S
C848 H861 0.929 . S
C849 C848 1.373 . S
C849 C850 1.396 . S
C849 C856 1.403 . S
C850 C840 1.476 . S
C850 N845 1.318 . S
C850 C849 1.396 . S
H851 C846 0.929 . S
O852 Mn828 2.385 . S
O852 C830 1.234 . S
O853 Mn828 2.209 . S
O853 Mn829 2.215 . S
O853 C830 1.283 . S
O854 Mn828 2.094 . S
O854 C832 1.240 . S
O855 Mn829 2.117 . S
O855 C832 1.264 . S
C856 C849 1.403 . S
C856 C857 1.399 . S
C856 H862 0.929 . S
C857 C837 1.449 . S
C857 C856 1.399 . S
C857 H863 0.930 . S
H858 C838 0.931 . S
H859 C839 0.930 . S
H860 C847 0.931 . S
H861 C848 0.929 . S
H862 C856 0.929 . S
H863 C857 0.930 . S
Tb864 C874 2.825 1_454 S
Tb864 O875 2.347 . S
Tb864 O878 2.361 1_554 S
Tb864 O883 2.418 1_554 S
Tb864 O884 2.384 1_545 S
Tb864 O887 2.479 1_454 S
Tb864 O888 2.471 1_455 S
Eu865 O876 2.418 . S
Eu865 O877 2.384 . S
Eu865 O880 2.479 . S
Eu865 O881 2.471 . S
Eu865 O882 2.333 1_554 S
Eu865 O885 2.366 1_545 S
Eu865 C895 2.825 . S
C866 O882 1.274 . S
C866 O883 1.265 . S
C867 O884 1.255 . S
C867 O885 1.265 . S
C868 C870 1.380 . S
C868 C871 1.374 . S
C868 C874 1.507 . S
C869 C870 1.384 . S
C869 C873 1.387 . S
C869 H896 0.930 . S
C870 C868 1.380 . S
C870 C869 1.384 . S
C870 H897 0.931 . S
C871 C868 1.374 . S
C871 C872 1.390 . S
C871 H898 0.930 1_556 S
C872 C871 1.390 . S
C872 C873 1.391 . S
C872 H899 0.930 . S
C873 C869 1.387 . S
C873 C872 1.391 . S
C874 Tb864 2.825 1_656 S
C874 C868 1.507 . S
C874 O887 1.238 . S
C874 O888 1.247 1_556 S
O875 Tb864 2.347 . S
O875 C879 1.259 . S
O876 Eu865 2.418 . S
O876 C879 1.265 . S
O877 Eu865 2.384 . S
O877 C886 1.255 . S
O878 Tb864 2.361 1_556 S
O878 C886 1.253 1_556 S
C879 O875 1.259 . S
C879 O876 1.265 . S
O880 Eu865 2.479 . S
O880 C895 1.238 . S
O881 Eu865 2.471 . S
O881 C895 1.247 . S
O882 Eu865 2.333 1_556 S
O882 C866 1.274 . S
O883 Tb864 2.418 1_556 S
O883 C866 1.265 . S
O884 Tb864 2.384 1_565 S
O884 C867 1.255 . S
O885 Eu865 2.366 1_565 S
O885 C867 1.265 . S
C886 O877 1.255 . S
C886 O878 1.253 1_554 S
O887 Tb864 2.479 1_656 S
O887 C874 1.238 . S
O888 Tb864 2.471 1_655 S
O888 C874 1.247 1_554 S
C889 C892 1.380 . S
C889 C893 1.374 1_545 S
C889 C895 1.507 . S
C890 C891 1.387 1_565 S
C890 C894 1.391 . S
C891 C890 1.387 1_545 S
C891 C892 1.384 . S
C891 H900 0.930 . S
C892 C889 1.380 . S
C892 C891 1.384 . S
C892 H901 0.931 . S
C893 C889 1.374 1_565 S
C893 C894 1.390 . S
C893 H902 0.930 . S
C894 C890 1.391 . S
C894 C893 1.390 . S
C894 H903 0.930 . S
C895 Eu865 2.825 . S
C895 O880 1.238 . S
C895 O881 1.247 . S
C895 C889 1.507 . S
H896 C869 0.930 . S
H897 C870 0.931 . S
H898 C871 0.930 1_554 S
H899 C872 0.930 . S
H900 C891 0.930 . S
H901 C892 0.931 . S
H902 C893 0.930 . S
H903 C894 0.930 . S
Tb904 C914 2.825 . S
Tb904 O915 2.347 . S
Tb904 O918 2.366 . S
Tb904 O923 2.418 . S
Tb904 O924 2.384 . S
Tb904 O927 2.479 . S
Tb904 O928 2.471 . S
Eu905 O916 2.418 . S
Eu905 O917 2.384 . S
Eu905 O920 2.479 . S
Eu905 O921 2.471 . S
Eu905 O922 2.347 . S
Eu905 O925 2.366 . S
Eu905 C935 2.825 . S
C906 O922 1.259 . S
C906 O923 1.265 . S
C907 O924 1.255 . S
C907 O925 1.265 . S
C908 C910 1.380 . S
C908 C911 1.374 . S
C908 C914 1.507 . S
C909 C910 1.384 . S
C909 C913 1.387 . S
C909 H936 0.930 . S
C910 C908 1.380 . S
C910 C909 1.384 . S
C910 H937 0.931 . S
C911 C908 1.374 . S
C911 C912 1.390 . S
C911 H938 0.930 . S
C912 C911 1.390 . S
C912 C913 1.391 . S
C912 H939 0.930 . S
C913 C909 1.387 . S
C913 C912 1.391 . S
C914 Tb904 2.825 . S
C914 C908 1.507 . S
C914 O927 1.238 . S
C914 O928 1.247 . S
O915 Tb904 2.347 . S
O915 C919 1.259 . S
O916 Eu905 2.418 . S
O916 C919 1.265 . S
O917 Eu905 2.384 . S
O917 C926 1.255 . S
O918 Tb904 2.366 . S
O918 C926 1.265 . S
C919 O915 1.259 . S
C919 O916 1.265 . S
O920 Eu905 2.479 . S
O920 C935 1.238 . S
O921 Eu905 2.471 . S
O921 C935 1.247 . S
O922 Eu905 2.347 . S
O922 C906 1.259 . S
O923 Tb904 2.418 . S
O923 C906 1.265 . S
O924 Tb904 2.384 . S
O924 C907 1.255 . S
O925 Eu905 2.366 . S
O925 C907 1.265 . S
C926 O917 1.255 . S
C926 O918 1.265 . S
O927 Tb904 2.479 . S
O927 C914 1.238 . S
O928 Tb904 2.471 . S
O928 C914 1.247 . S
C929 C932 1.380 . S
C929 C933 1.374 . S
C929 C935 1.507 . S
C930 C931 1.387 . S
C930 C934 1.391 . S
C931 C930 1.387 . S
C931 C932 1.384 . S
C931 H940 0.930 . S
C932 C929 1.380 . S
C932 C931 1.384 . S
C932 H941 0.931 . S
C933 C929 1.374 . S
C933 C934 1.390 . S
C933 H942 0.930 . S
C934 C930 1.391 . S
C934 C933 1.390 . S
C934 H943 0.930 . S
C935 Eu905 2.825 . S
C935 O920 1.238 . S
C935 O921 1.247 . S
C935 C929 1.507 . S
H936 C909 0.930 . S
H937 C910 0.931 . S
H938 C911 0.930 . S
H939 C912 0.930 . S
H940 C931 0.930 . S
H941 C932 0.931 . S
H942 C933 0.930 . S
H943 C934 0.930 . S
Tb944 C954 2.825 1_545 S
Tb944 O955 2.347 . S
Tb944 O958 2.366 . S
Tb944 O963 2.418 . S
Tb944 O964 2.384 . S
Tb944 O967 2.479 1_545 S
Tb944 O968 2.471 1_545 S
Eu945 O956 2.418 . S
Eu945 O957 2.384 . S
Eu945 O960 2.479 . S
Eu945 O961 2.471 . S
Eu945 O962 2.347 . S
Eu945 O965 2.366 . S
Eu945 C975 2.825 . S
C946 O962 1.259 . S
C946 O963 1.265 . S
C947 O964 1.255 . S
C947 O965 1.265 . S
C948 C950 1.380 . S
C948 C951 1.374 . S
C948 C954 1.507 . S
C949 C950 1.384 . S
C949 C953 1.387 . S
C949 H976 0.930 . S
C950 C948 1.380 . S
C950 C949 1.384 . S
C950 H977 0.931 . S
C951 C948 1.374 . S
C951 C952 1.390 . S
C951 H978 0.930 . S
C952 C951 1.390 . S
C952 C953 1.391 . S
C952 H979 0.930 . S
C953 C949 1.387 . S
C953 C952 1.391 . S
C954 Tb944 2.825 1_565 S
C954 C948 1.507 . S
C954 O967 1.238 . S
C954 O968 1.247 . S
O955 Tb944 2.347 . S
O955 C959 1.259 . S
O956 Eu945 2.418 . S
O956 C959 1.265 . S
O957 Eu945 2.384 . S
O957 C966 1.255 . S
O958 Tb944 2.366 . S
O958 C966 1.265 . S
C959 O955 1.259 . S
C959 O956 1.265 . S
O960 Eu945 2.479 . S
O960 C975 1.238 . S
O961 Eu945 2.471 . S
O961 C975 1.247 . S
O962 Eu945 2.347 . S
O962 C946 1.259 . S
O963 Tb944 2.418 . S
O963 C946 1.265 . S
O964 Tb944 2.384 . S
O964 C947 1.255 . S
O965 Eu945 2.366 . S
O965 C947 1.265 . S
C966 O957 1.255 . S
C966 O958 1.265 . S
O967 Tb944 2.479 1_565 S
O967 C954 1.238 . S
O968 Tb944 2.471 1_565 S
O968 C954 1.247 . S
C969 C972 1.380 . S
C969 C973 1.374 . S
C969 C975 1.507 . S
C970 C971 1.387 . S
C970 C974 1.391 . S
C971 C970 1.387 . S
C971 C972 1.384 . S
C971 H980 0.930 . S
C972 C969 1.380 . S
C972 C971 1.384 . S
C972 H981 0.931 . S
C973 C969 1.374 . S
C973 C974 1.390 . S
C973 H982 0.930 . S
C974 C970 1.391 . S
C974 C973 1.390 . S
C974 H983 0.930 . S
C975 Eu945 2.825 . S
C975 O960 1.238 . S
C975 O961 1.247 . S
C975 C969 1.507 . S
H976 C949 0.930 . S
H977 C950 0.931 . S
H978 C951 0.930 . S
H979 C952 0.930 . S
H980 C971 0.930 . S
H981 C972 0.931 . S
H982 C973 0.930 . S
H983 C974 0.930 . S
Tb984 C994 2.825 . S
Tb984 O995 2.347 . S
Tb984 O998 2.366 . S
Tb984 O1003 2.418 . S
Tb984 O1004 2.384 . S
Tb984 O1007 2.479 . S
Tb984 O1008 2.471 . S
Eu985 O996 2.418 . S
Eu985 O997 2.384 . S
Eu985 O1000 2.479 . S
Eu985 O1001 2.471 . S
Eu985 O1002 2.347 . S
Eu985 O1005 2.366 . S
Eu985 C1015 2.825 . S
C986 O1002 1.259 . S
C986 O1003 1.265 . S
C987 O1004 1.255 . S
C987 O1005 1.265 . S
C988 C990 1.380 . S
C988 C991 1.374 . S
C988 C994 1.507 . S
C989 C990 1.384 . S
C989 C993 1.387 . S
C989 H1016 0.930 . S
C990 C988 1.380 . S
C990 C989 1.384 . S
C990 H1017 0.931 . S
C991 C988 1.374 . S
C991 C992 1.390 . S
C991 H1018 0.930 . S
C992 C991 1.390 . S
C992 C993 1.391 . S
C992 H1019 0.930 . S
C993 C989 1.387 . S
C993 C992 1.391 . S
C994 Tb984 2.825 . S
C994 C988 1.507 . S
C994 O1007 1.238 . S
C994 O1008 1.247 . S
O995 Tb984 2.347 . S
O995 C999 1.259 . S
O996 Eu985 2.418 . S
O996 C999 1.265 . S
O997 Eu985 2.384 . S
O997 C1006 1.255 . S
O998 Tb984 2.366 . S
O998 C1006 1.265 . S
C999 O995 1.259 . S
C999 O996 1.265 . S
O1000 Eu985 2.479 . S
O1000 C1015 1.238 . S
O1001 Eu985 2.471 . S
O1001 C1015 1.247 . S
O1002 Eu985 2.347 . S
O1002 C986 1.259 . S
O1003 Tb984 2.418 . S
O1003 C986 1.265 . S
O1004 Tb984 2.384 . S
O1004 C987 1.255 . S
O1005 Eu985 2.366 . S
O1005 C987 1.265 . S
C1006 O997 1.255 . S
C1006 O998 1.265 . S
O1007 Tb984 2.479 . S
O1007 C994 1.238 . S
O1008 Tb984 2.471 . S
O1008 C994 1.247 . S
C1009 C1012 1.380 . S
C1009 C1013 1.374 . S
C1009 C1015 1.507 . S
C1010 C1011 1.387 . S
C1010 C1014 1.391 . S
C1011 C1010 1.387 . S
C1011 C1012 1.384 . S
C1011 H1020 0.930 . S
C1012 C1009 1.380 . S
C1012 C1011 1.384 . S
C1012 H1021 0.931 . S
C1013 C1009 1.374 . S
C1013 C1014 1.390 . S
C1013 H1022 0.930 . S
C1014 C1010 1.391 . S
C1014 C1013 1.390 . S
C1014 H1023 0.930 . S
C1015 Eu985 2.825 . S
C1015 O1000 1.238 . S
C1015 O1001 1.247 . S
C1015 C1009 1.507 . S
H1016 C989 0.930 . S
H1017 C990 0.931 . S
H1018 C991 0.930 . S
H1019 C992 0.930 . S
H1020 C1011 0.930 . S
H1021 C1012 0.931 . S
H1022 C1013 0.930 . S
H1023 C1014 0.930 . S
Tb1024 C1034 2.825 . S
Tb1024 O1035 2.347 . S
Tb1024 O1038 2.366 . S
Tb1024 O1043 2.418 . S
Tb1024 O1044 2.384 1_545 S
Tb1024 O1047 2.479 . S
Tb1024 O1048 2.471 . S
Eu1025 O1036 2.418 . S
Eu1025 O1037 2.384 . S
Eu1025 O1040 2.479 . S
Eu1025 O1041 2.471 . S
Eu1025 O1042 2.347 . S
Eu1025 O1045 2.366 . S
Eu1025 C1055 2.825 . S
C1026 O1042 1.259 . S
C1026 O1043 1.265 . S
C1027 O1044 1.255 . S
C1027 O1045 1.265 1_565 S
C1028 C1030 1.380 . S
C1028 C1031 1.374 1_455 S
C1028 C1034 1.507 . S
C1029 C1030 1.384 . S
C1029 C1033 1.387 . S
C1029 H1056 0.930 . S
C1030 C1028 1.380 . S
C1030 C1029 1.384 . S
C1030 H1057 0.931 . S
C1031 C1028 1.374 1_655 S
C1031 C1032 1.390 . S
C1031 H1058 0.930 . S
C1032 C1031 1.390 . S
C1032 C1033 1.391 1_655 S
C1032 H1059 0.930 . S
C1033 C1029 1.387 . S
C1033 C1032 1.391 1_455 S
C1034 Tb1024 2.825 . S
C1034 C1028 1.507 . S
C1034 O1047 1.238 . S
C1034 O1048 1.247 . S
O1035 Tb1024 2.347 . S
O1035 C1039 1.259 . S
O1036 Eu1025 2.418 . S
O1036 C1039 1.265 . S
O1037 Eu1025 2.384 . S
O1037 C1046 1.255 . S
O1038 Tb1024 2.366 . S
O1038 C1046 1.265 . S
C1039 O1035 1.259 . S
C1039 O1036 1.265 . S
O1040 Eu1025 2.479 . S
O1040 C1055 1.238 . S
O1041 Eu1025 2.471 . S
O1041 C1055 1.247 . S
O1042 Eu1025 2.347 . S
O1042 C1026 1.259 . S
O1043 Tb1024 2.418 . S
O1043 C1026 1.265 . S
O1044 Tb1024 2.384 1_565 S
O1044 C1027 1.255 . S
O1045 Eu1025 2.366 . S
O1045 C1027 1.265 1_545 S
C1046 O1037 1.255 . S
C1046 O1038 1.265 . S
O1047 Tb1024 2.479 . S
O1047 C1034 1.238 . S
O1048 Tb1024 2.471 . S
O1048 C1034 1.247 . S
C1049 C1052 1.380 . S
C1049 C1053 1.374 . S
C1049 C1055 1.507 . S
C1050 C1051 1.387 . S
C1050 C1054 1.391 . S
C1051 C1050 1.387 . S
C1051 C1052 1.384 . S
C1051 H1060 0.930 . S
C1052 C1049 1.380 . S
C1052 C1051 1.384 . S
C1052 H1061 0.931 . S
C1053 C1049 1.374 . S
C1053 C1054 1.390 . S
C1053 H1062 0.930 . S
C1054 C1050 1.391 . S
C1054 C1053 1.390 . S
C1054 H1063 0.930 . S
C1055 Eu1025 2.825 . S
C1055 O1040 1.238 . S
C1055 O1041 1.247 . S
C1055 C1049 1.507 . S
H1056 C1029 0.930 . S
H1057 C1030 0.931 . S
H1058 C1031 0.930 . S
H1059 C1032 0.930 . S
H1060 C1051 0.930 . S
H1061 C1052 0.931 . S
H1062 C1053 0.930 . S
H1063 C1054 0.930 . S
Tb1064 C1074 2.825 . S
Tb1064 O1075 2.347 . S
Tb1064 O1078 2.366 . S
Tb1064 O1083 2.418 . S
Tb1064 O1084 2.384 . S
Tb1064 O1087 2.479 . S
Tb1064 O1088 2.471 . S
Eu1065 O1076 2.418 . S
Eu1065 O1077 2.384 . S
Eu1065 O1080 2.479 . S
Eu1065 O1081 2.471 . S
Eu1065 O1082 2.347 . S
Eu1065 O1085 2.366 . S
Eu1065 C1095 2.825 . S
C1066 O1082 1.259 . S
C1066 O1083 1.265 . S
C1067 O1084 1.255 . S
C1067 O1085 1.265 . S
C1068 C1070 1.380 . S
C1068 C1071 1.374 . S
C1068 C1074 1.507 . S
C1069 C1070 1.384 . S
C1069 C1073 1.387 . S
C1069 H1096 0.930 . S
C1070 C1068 1.380 . S
C1070 C1069 1.384 . S
C1070 H1097 0.931 . S
C1071 C1068 1.374 . S
C1071 C1072 1.390 . S
C1071 H1098 0.930 . S
C1072 C1071 1.390 . S
C1072 C1073 1.391 . S
C1072 H1099 0.930 . S
C1073 C1069 1.387 . S
C1073 C1072 1.391 . S
C1074 Tb1064 2.825 . S
C1074 C1068 1.507 . S
C1074 O1087 1.238 . S
C1074 O1088 1.247 . S
O1075 Tb1064 2.347 . S
O1075 C1079 1.259 . S
O1076 Eu1065 2.418 . S
O1076 C1079 1.265 . S
O1077 Eu1065 2.384 . S
O1077 C1086 1.255 . S
O1078 Tb1064 2.366 . S
O1078 C1086 1.265 . S
C1079 O1075 1.259 . S
C1079 O1076 1.265 . S
O1080 Eu1065 2.479 . S
O1080 C1095 1.238 . S
O1081 Eu1065 2.471 . S
O1081 C1095 1.247 . S
O1082 Eu1065 2.347 . S
O1082 C1066 1.259 . S
O1083 Tb1064 2.418 . S
O1083 C1066 1.265 . S
O1084 Tb1064 2.384 . S
O1084 C1067 1.255 . S
O1085 Eu1065 2.366 . S
O1085 C1067 1.265 . S
C1086 O1077 1.255 . S
C1086 O1078 1.265 . S
O1087 Tb1064 2.479 . S
O1087 C1074 1.238 . S
O1088 Tb1064 2.471 . S
O1088 C1074 1.247 . S
C1089 C1092 1.380 . S
C1089 C1093 1.374 . S
C1089 C1095 1.507 . S
C1090 C1091 1.387 . S
C1090 C1094 1.391 . S
C1091 C1090 1.387 . S
C1091 C1092 1.384 . S
C1091 H1100 0.930 . S
C1092 C1089 1.380 . S
C1092 C1091 1.384 . S
C1092 H1101 0.931 . S
C1093 C1089 1.374 . S
C1093 C1094 1.390 . S
C1093 H1102 0.930 . S
C1094 C1090 1.391 . S
C1094 C1093 1.390 . S
C1094 H1103 0.930 . S
C1095 Eu1065 2.825 . S
C1095 O1080 1.238 . S
C1095 O1081 1.247 . S
C1095 C1089 1.507 . S
H1096 C1069 0.930 . S
H1097 C1070 0.931 . S
H1098 C1071 0.930 . S
H1099 C1072 0.930 . S
H1100 C1091 0.930 . S
H1101 C1092 0.931 . S
H1102 C1093 0.930 . S
H1103 C1094 0.930 . S
Tb1104 C1114 2.825 . S
Tb1104 O1115 2.347 . S
Tb1104 O1118 2.366 . S
Tb1104 O1123 2.418 1_545 S
Tb1104 O1124 2.384 . S
Tb1104 O1127 2.479 . S
Tb1104 O1128 2.471 . S
Eu1105 O1116 2.418 1_556 S
Eu1105 O1117 2.384 1_556 S
Eu1105 O1120 2.479 . S
Eu1105 O1121 2.471 . S
Eu1105 O1122 2.347 1_556 S
Eu1105 O1125 2.366 1_556 S
Eu1105 C1135 2.825 . S
C1106 O1122 1.259 1_565 S
C1106 O1123 1.265 . S
C1107 O1124 1.255 . S
C1107 O1125 1.265 . S
C1108 C1110 1.380 . S
C1108 C1111 1.374 . S
C1108 C1114 1.507 . S
C1109 C1110 1.384 1_565 S
C1109 C1113 1.387 1_565 S
C1109 H1136 0.930 . S
C1110 C1108 1.380 . S
C1110 C1109 1.384 1_545 S
C1110 H1137 0.931 1_545 S
C1111 C1108 1.374 . S
C1111 C1112 1.390 . S
C1111 H1138 0.930 . S
C1112 C1111 1.390 . S
C1112 C1113 1.391 . S
C1112 H1139 0.930 . S
C1113 C1109 1.387 1_545 S
C1113 C1112 1.391 . S
C1114 Tb1104 2.825 . S
C1114 C1108 1.507 . S
C1114 O1127 1.238 . S
C1114 O1128 1.247 . S
O1115 Tb1104 2.347 . S
O1115 C1119 1.259 . S
O1116 Eu1105 2.418 1_554 S
O1116 C1119 1.265 . S
O1117 Eu1105 2.384 1_554 S
O1117 C1126 1.255 . S
O1118 Tb1104 2.366 . S
O1118 C1126 1.265 . S
C1119 O1115 1.259 . S
C1119 O1116 1.265 . S
O1120 Eu1105 2.479 . S
O1120 C1135 1.238 . S
O1121 Eu1105 2.471 . S
O1121 C1135 1.247 . S
O1122 Eu1105 2.347 1_554 S
O1122 C1106 1.259 1_545 S
O1123 Tb1104 2.418 1_565 S
O1123 C1106 1.265 . S
O1124 Tb1104 2.384 . S
O1124 C1107 1.255 . S
O1125 Eu1105 2.366 1_554 S
O1125 C1107 1.265 . S
C1126 O1117 1.255 . S
C1126 O1118 1.265 . S
O1127 Tb1104 2.479 . S
O1127 C1114 1.238 . S
O1128 Tb1104 2.471 . S
O1128 C1114 1.247 . S
C1129 C1132 1.380 . S
C1129 C1133 1.374 . S
C1129 C1135 1.507 . S
C1130 C1131 1.387 . S
C1130 C1134 1.391 . S
C1131 C1130 1.387 . S
C1131 C1132 1.384 . S
C1131 H1140 0.930 . S
C1132 C1129 1.380 . S
C1132 C1131 1.384 . S
C1132 H1141 0.931 . S
C1133 C1129 1.374 . S
C1133 C1134 1.390 . S
C1133 H1142 0.930 . S
C1134 C1130 1.391 . S
C1134 C1133 1.390 . S
C1134 H1143 0.930 . S
C1135 Eu1105 2.825 . S
C1135 O1120 1.238 . S
C1135 O1121 1.247 . S
C1135 C1129 1.507 . S
H1136 C1109 0.930 . S
H1137 C1110 0.931 1_565 S
H1138 C1111 0.930 . S
H1139 C1112 0.930 . S
H1140 C1131 0.930 . S
H1141 C1132 0.931 . S
H1142 C1133 0.930 . S
H1143 C1134 0.930 . S
Tb1144 C1154 2.825 . S
Tb1144 O1155 2.347 . S
Tb1144 O1158 2.366 . S
Tb1144 O1163 2.418 . S
Tb1144 O1164 2.384 . S
Tb1144 O1167 2.479 . S
Tb1144 O1168 2.471 . S
Eu1145 O1156 2.418 . S
Eu1145 O1157 2.384 . S
Eu1145 O1160 2.479 . S
Eu1145 O1161 2.471 . S
Eu1145 O1162 2.347 . S
Eu1145 O1165 2.366 . S
Eu1145 C1175 2.825 . S
C1146 O1162 1.259 . S
C1146 O1163 1.265 . S
C1147 O1164 1.255 . S
C1147 O1165 1.265 . S
C1148 C1150 1.380 . S
C1148 C1151 1.374 . S
C1148 C1154 1.507 . S
C1149 C1150 1.384 . S
C1149 C1153 1.387 . S
C1149 H1176 0.930 . S
C1150 C1148 1.380 . S
C1150 C1149 1.384 . S
C1150 H1177 0.931 . S
C1151 C1148 1.374 . S
C1151 C1152 1.390 . S
C1151 H1178 0.930 . S
C1152 C1151 1.390 . S
C1152 C1153 1.391 . S
C1152 H1179 0.930 . S
C1153 C1149 1.387 . S
C1153 C1152 1.391 . S
C1154 Tb1144 2.825 . S
C1154 C1148 1.507 . S
C1154 O1167 1.238 . S
C1154 O1168 1.247 . S
O1155 Tb1144 2.347 . S
O1155 C1159 1.259 . S
O1156 Eu1145 2.418 . S
O1156 C1159 1.265 . S
O1157 Eu1145 2.384 . S
O1157 C1166 1.255 . S
O1158 Tb1144 2.366 . S
O1158 C1166 1.265 . S
C1159 O1155 1.259 . S
C1159 O1156 1.265 . S
O1160 Eu1145 2.479 . S
O1160 C1175 1.238 . S
O1161 Eu1145 2.471 . S
O1161 C1175 1.247 . S
O1162 Eu1145 2.347 . S
O1162 C1146 1.259 . S
O1163 Tb1144 2.418 . S
O1163 C1146 1.265 . S
O1164 Tb1144 2.384 . S
O1164 C1147 1.255 . S
O1165 Eu1145 2.366 . S
O1165 C1147 1.265 . S
C1166 O1157 1.255 . S
C1166 O1158 1.265 . S
O1167 Tb1144 2.479 . S
O1167 C1154 1.238 . S
O1168 Tb1144 2.471 . S
O1168 C1154 1.247 . S
C1169 C1172 1.380 . S
C1169 C1173 1.374 . S
C1169 C1175 1.507 . S
C1170 C1171 1.387 . S
C1170 C1174 1.391 . S
C1171 C1170 1.387 . S
C1171 C1172 1.384 . S
C1171 H1180 0.930 . S
C1172 C1169 1.380 . S
C1172 C1171 1.384 . S
C1172 H1181 0.931 . S
C1173 C1169 1.374 . S
C1173 C1174 1.390 . S
C1173 H1182 0.930 . S
C1174 C1170 1.391 . S
C1174 C1173 1.390 . S
C1174 H1183 0.930 . S
C1175 Eu1145 2.825 . S
C1175 O1160 1.238 . S
C1175 O1161 1.247 . S
C1175 C1169 1.507 . S
H1176 C1149 0.930 . S
H1177 C1150 0.931 . S
H1178 C1151 0.930 . S
H1179 C1152 0.930 . S
H1180 C1171 0.930 . S
H1181 C1172 0.931 . S
H1182 C1173 0.930 . S
H1183 C1174 0.930 . S
Tb1184 C1194 2.825 . S
Tb1184 O1195 2.347 1_556 S
Tb1184 O1198 2.366 . S
Tb1184 O1203 2.418 . S
Tb1184 O1204 2.384 1_556 S
Tb1184 O1207 2.479 . S
Tb1184 O1208 2.471 . S
Eu1185 O1196 2.418 . S
Eu1185 O1197 2.384 . S
Eu1185 O1200 2.479 . S
Eu1185 O1201 2.471 . S
Eu1185 O1202 2.347 . S
Eu1185 O1205 2.366 . S
Eu1185 C1215 2.825 . S
C1186 O1202 1.259 . S
C1186 O1203 1.265 1_554 S
C1187 O1204 1.255 . S
C1187 O1205 1.265 . S
C1188 C1190 1.380 . S
C1188 C1191 1.374 . S
C1188 C1194 1.507 . S
C1189 C1190 1.384 . S
C1189 C1193 1.387 . S
C1189 H1216 0.930 . S
C1190 C1188 1.380 . S
C1190 C1189 1.384 . S
C1190 H1217 0.931 . S
C1191 C1188 1.374 . S
C1191 C1192 1.390 . S
C1191 H1218 0.930 . S
C1192 C1191 1.390 . S
C1192 C1193 1.391 . S
C1192 H1219 0.930 . S
C1193 C1189 1.387 . S
C1193 C1192 1.391 . S
C1194 Tb1184 2.825 . S
C1194 C1188 1.507 . S
C1194 O1207 1.238 . S
C1194 O1208 1.247 . S
O1195 Tb1184 2.347 1_554 S
O1195 C1199 1.259 . S
O1196 Eu1185 2.418 . S
O1196 C1199 1.265 . S
O1197 Eu1185 2.384 . S
O1197 C1206 1.255 . S
O1198 Tb1184 2.366 . S
O1198 C1206 1.265 1_556 S
C1199 O1195 1.259 . S
C1199 O1196 1.265 . S
O1200 Eu1185 2.479 . S
O1200 C1215 1.238 . S
O1201 Eu1185 2.471 . S
O1201 C1215 1.247 . S
O1202 Eu1185 2.347 . S
O1202 C1186 1.259 . S
O1203 Tb1184 2.418 . S
O1203 C1186 1.265 1_556 S
O1204 Tb1184 2.384 1_554 S
O1204 C1187 1.255 . S
O1205 Eu1185 2.366 . S
O1205 C1187 1.265 . S
C1206 O1197 1.255 . S
C1206 O1198 1.265 1_554 S
O1207 Tb1184 2.479 . S
O1207 C1194 1.238 . S
O1208 Tb1184 2.471 . S
O1208 C1194 1.247 . S
C1209 C1212 1.380 . S
C1209 C1213 1.374 . S
C1209 C1215 1.507 . S
C1210 C1211 1.387 . S
C1210 C1214 1.391 . S
C1211 C1210 1.387 . S
C1211 C1212 1.384 . S
C1211 H1220 0.930 . S
C1212 C1209 1.380 . S
C1212 C1211 1.384 . S
C1212 H1221 0.931 . S
C1213 C1209 1.374 . S
C1213 C1214 1.390 . S
C1213 H1222 0.930 . S
C1214 C1210 1.391 . S
C1214 C1213 1.390 . S
C1214 H1223 0.930 . S
C1215 Eu1185 2.825 . S
C1215 O1200 1.238 . S
C1215 O1201 1.247 . S
C1215 C1209 1.507 . S
H1216 C1189 0.930 . S
H1217 C1190 0.931 . S
H1218 C1191 0.930 . S
H1219 C1192 0.930 . S
H1220 C1211 0.930 . S
H1221 C1212 0.931 . S
H1222 C1213 0.930 . S
H1223 C1214 0.930 . S
Tb1224 C1234 2.825 . S
Tb1224 O1235 2.347 . S
Tb1224 O1238 2.366 . S
Tb1224 O1243 2.418 . S
Tb1224 O1244 2.384 . S
Tb1224 O1247 2.479 . S
Tb1224 O1248 2.471 . S
Eu1225 O1236 2.418 . S
Eu1225 O1237 2.384 . S
Eu1225 O1240 2.479 . S
Eu1225 O1241 2.471 . S
Eu1225 O1242 2.347 . S
Eu1225 O1245 2.366 . S
Eu1225 C1255 2.825 . S
C1226 O1242 1.259 . S
C1226 O1243 1.265 . S
C1227 O1244 1.255 . S
C1227 O1245 1.265 . S
C1228 C1230 1.380 . S
C1228 C1231 1.374 . S
C1228 C1234 1.507 . S
C1229 C1230 1.384 . S
C1229 C1233 1.387 . S
C1229 H1256 0.930 . S
C1230 C1228 1.380 . S
C1230 C1229 1.384 . S
C1230 H1257 0.931 . S
C1231 C1228 1.374 . S
C1231 C1232 1.390 . S
C1231 H1258 0.930 . S
C1232 C1231 1.390 . S
C1232 C1233 1.391 . S
C1232 H1259 0.930 . S
C1233 C1229 1.387 . S
C1233 C1232 1.391 . S
C1234 Tb1224 2.825 . S
C1234 C1228 1.507 . S
C1234 O1247 1.238 . S
C1234 O1248 1.247 . S
O1235 Tb1224 2.347 . S
O1235 C1239 1.259 . S
O1236 Eu1225 2.418 . S
O1236 C1239 1.265 . S
O1237 Eu1225 2.384 . S
O1237 C1246 1.255 . S
O1238 Tb1224 2.366 . S
O1238 C1246 1.265 . S
C1239 O1235 1.259 . S
C1239 O1236 1.265 . S
O1240 Eu1225 2.479 . S
O1240 C1255 1.238 . S
O1241 Eu1225 2.471 . S
O1241 C1255 1.247 . S
O1242 Eu1225 2.347 . S
O1242 C1226 1.259 . S
O1243 Tb1224 2.418 . S
O1243 C1226 1.265 . S
O1244 Tb1224 2.384 . S
O1244 C1227 1.255 . S
O1245 Eu1225 2.366 . S
O1245 C1227 1.265 . S
C1246 O1237 1.255 . S
C1246 O1238 1.265 . S
O1247 Tb1224 2.479 . S
O1247 C1234 1.238 . S
O1248 Tb1224 2.471 . S
O1248 C1234 1.247 . S
C1249 C1252 1.380 . S
C1249 C1253 1.374 . S
C1249 C1255 1.507 . S
C1250 C1251 1.387 . S
C1250 C1254 1.391 . S
C1251 C1250 1.387 . S
C1251 C1252 1.384 . S
C1251 H1260 0.930 . S
C1252 C1249 1.380 . S
C1252 C1251 1.384 . S
C1252 H1261 0.931 . S
C1253 C1249 1.374 . S
C1253 C1254 1.390 . S
C1253 H1262 0.930 . S
C1254 C1250 1.391 . S
C1254 C1253 1.390 . S
C1254 H1263 0.930 . S
C1255 Eu1225 2.825 . S
C1255 O1240 1.238 . S
C1255 O1241 1.247 . S
C1255 C1249 1.507 . S
H1256 C1229 0.930 . S
H1257 C1230 0.931 . S
H1258 C1231 0.930 . S
H1259 C1232 0.930 . S
H1260 C1251 0.930 . S
H1261 C1252 0.931 . S
H1262 C1253 0.930 . S
H1263 C1254 0.930 . S
Tb1264 C1274 2.825 . S
Tb1264 O1275 2.347 . S
Tb1264 O1278 2.366 . S
Tb1264 O1283 2.418 . S
Tb1264 O1284 2.384 . S
Tb1264 O1287 2.479 . S
Tb1264 O1288 2.471 . S
Eu1265 O1276 2.418 . S
Eu1265 O1277 2.384 . S
Eu1265 O1280 2.479 . S
Eu1265 O1281 2.471 . S
Eu1265 O1282 2.347 . S
Eu1265 O1285 2.366 . S
Eu1265 C1295 2.825 . S
C1266 O1282 1.259 . S
C1266 O1283 1.265 . S
C1267 O1284 1.255 . S
C1267 O1285 1.265 . S
C1268 C1270 1.380 . S
C1268 C1271 1.374 . S
C1268 C1274 1.507 . S
C1269 C1270 1.384 . S
C1269 C1273 1.387 . S
C1269 H1296 0.930 . S
C1270 C1268 1.380 . S
C1270 C1269 1.384 . S
C1270 H1297 0.931 . S
C1271 C1268 1.374 . S
C1271 C1272 1.390 . S
C1271 H1298 0.930 . S
C1272 C1271 1.390 . S
C1272 C1273 1.391 . S
C1272 H1299 0.930 . S
C1273 C1269 1.387 . S
C1273 C1272 1.391 . S
C1274 Tb1264 2.825 . S
C1274 C1268 1.507 . S
C1274 O1287 1.238 . S
C1274 O1288 1.247 . S
O1275 Tb1264 2.347 . S
O1275 C1279 1.259 . S
O1276 Eu1265 2.418 . S
O1276 C1279 1.265 . S
O1277 Eu1265 2.384 . S
O1277 C1286 1.255 . S
O1278 Tb1264 2.366 . S
O1278 C1286 1.265 . S
C1279 O1275 1.259 . S
C1279 O1276 1.265 . S
O1280 Eu1265 2.479 . S
O1280 C1295 1.238 . S
O1281 Eu1265 2.471 . S
O1281 C1295 1.247 . S
O1282 Eu1265 2.347 . S
O1282 C1266 1.259 . S
O1283 Tb1264 2.418 . S
O1283 C1266 1.265 . S
O1284 Tb1264 2.384 . S
O1284 C1267 1.255 . S
O1285 Eu1265 2.366 . S
O1285 C1267 1.265 . S
C1286 O1277 1.255 . S
C1286 O1278 1.265 . S
O1287 Tb1264 2.479 . S
O1287 C1274 1.238 . S
O1288 Tb1264 2.471 . S
O1288 C1274 1.247 . S
C1289 C1292 1.380 . S
C1289 C1293 1.374 . S
C1289 C1295 1.507 . S
C1290 C1291 1.387 . S
C1290 C1294 1.391 . S
C1291 C1290 1.387 . S
C1291 C1292 1.384 . S
C1291 H1300 0.930 . S
C1292 C1289 1.380 . S
C1292 C1291 1.384 . S
C1292 H1301 0.931 . S
C1293 C1289 1.374 . S
C1293 C1294 1.390 . S
C1293 H1302 0.930 . S
C1294 C1290 1.391 . S
C1294 C1293 1.390 . S
C1294 H1303 0.930 . S
C1295 Eu1265 2.825 . S
C1295 O1280 1.238 . S
C1295 O1281 1.247 . S
C1295 C1289 1.507 . S
H1296 C1269 0.930 . S
H1297 C1270 0.931 . S
H1298 C1271 0.930 . S
H1299 C1272 0.930 . S
H1300 C1291 0.930 . S
H1301 C1292 0.931 . S
H1302 C1293 0.930 . S
H1303 C1294 0.930 . S
Tb1304 C1314 2.825 . S
Tb1304 O1315 2.347 . S
Tb1304 O1318 2.366 . S
Tb1304 O1323 2.418 . S
Tb1304 O1324 2.384 . S
Tb1304 O1327 2.479 . S
Tb1304 O1328 2.471 . S
Eu1305 O1316 2.418 . S
Eu1305 O1317 2.384 . S
Eu1305 O1320 2.479 . S
Eu1305 O1321 2.471 . S
Eu1305 O1322 2.347 . S
Eu1305 O1325 2.366 . S
Eu1305 C1335 2.825 . S
C1306 O1322 1.259 . S
C1306 O1323 1.265 . S
C1307 O1324 1.255 . S
C1307 O1325 1.265 . S
C1308 C1310 1.380 . S
C1308 C1311 1.374 . S
C1308 C1314 1.507 . S
C1309 C1310 1.384 . S
C1309 C1313 1.387 . S
C1309 H1336 0.930 . S
C1310 C1308 1.380 . S
C1310 C1309 1.384 . S
C1310 H1337 0.931 . S
C1311 C1308 1.374 . S
C1311 C1312 1.390 . S
C1311 H1338 0.930 . S
C1312 C1311 1.390 . S
C1312 C1313 1.391 . S
C1312 H1339 0.930 . S
C1313 C1309 1.387 . S
C1313 C1312 1.391 . S
C1314 Tb1304 2.825 . S
C1314 C1308 1.507 . S
C1314 O1327 1.238 . S
C1314 O1328 1.247 . S
O1315 Tb1304 2.347 . S
O1315 C1319 1.259 . S
O1316 Eu1305 2.418 . S
O1316 C1319 1.265 . S
O1317 Eu1305 2.384 . S
O1317 C1326 1.255 . S
O1318 Tb1304 2.366 . S
O1318 C1326 1.265 . S
C1319 O1315 1.259 . S
C1319 O1316 1.265 . S
O1320 Eu1305 2.479 . S
O1320 C1335 1.238 . S
O1321 Eu1305 2.471 . S
O1321 C1335 1.247 . S
O1322 Eu1305 2.347 . S
O1322 C1306 1.259 . S
O1323 Tb1304 2.418 . S
O1323 C1306 1.265 . S
O1324 Tb1304 2.384 . S
O1324 C1307 1.255 . S
O1325 Eu1305 2.366 . S
O1325 C1307 1.265 . S
C1326 O1317 1.255 . S
C1326 O1318 1.265 . S
O1327 Tb1304 2.479 . S
O1327 C1314 1.238 . S
O1328 Tb1304 2.471 . S
O1328 C1314 1.247 . S
C1329 C1332 1.380 . S
C1329 C1333 1.374 . S
C1329 C1335 1.507 . S
C1330 C1331 1.387 . S
C1330 C1334 1.391 . S
C1331 C1330 1.387 . S
C1331 C1332 1.384 . S
C1331 H1340 0.930 . S
C1332 C1329 1.380 . S
C1332 C1331 1.384 . S
C1332 H1341 0.931 . S
C1333 C1329 1.374 . S
C1333 C1334 1.390 . S
C1333 H1342 0.930 . S
C1334 C1330 1.391 . S
C1334 C1333 1.390 . S
C1334 H1343 0.930 . S
C1335 Eu1305 2.825 . S
C1335 O1320 1.238 . S
C1335 O1321 1.247 . S
C1335 C1329 1.507 . S
H1336 C1309 0.930 . S
H1337 C1310 0.931 . S
H1338 C1311 0.930 . S
H1339 C1312 0.930 . S
H1340 C1331 0.930 . S
H1341 C1332 0.931 . S
H1342 C1333 0.930 . S
H1343 C1334 0.930 . S
Tb1344 C1354 2.825 . S
Tb1344 O1355 2.347 . S
Tb1344 O1358 2.366 . S
Tb1344 O1363 2.418 . S
Tb1344 O1364 2.384 . S
Tb1344 O1367 2.479 . S
Tb1344 O1368 2.471 . S
Eu1345 O1356 2.418 . S
Eu1345 O1357 2.384 . S
Eu1345 O1360 2.479 . S
Eu1345 O1361 2.471 . S
Eu1345 O1362 2.347 . S
Eu1345 O1365 2.366 . S
Eu1345 C1375 2.825 . S
C1346 O1362 1.259 . S
C1346 O1363 1.265 . S
C1347 O1364 1.255 . S
C1347 O1365 1.265 . S
C1348 C1350 1.380 . S
C1348 C1351 1.374 . S
C1348 C1354 1.507 . S
C1349 C1350 1.384 . S
C1349 C1353 1.387 . S
C1349 H1376 0.930 . S
C1350 C1348 1.380 . S
C1350 C1349 1.384 . S
C1350 H1377 0.931 . S
C1351 C1348 1.374 . S
C1351 C1352 1.390 . S
C1351 H1378 0.930 . S
C1352 C1351 1.390 . S
C1352 C1353 1.391 . S
C1352 H1379 0.930 . S
C1353 C1349 1.387 . S
C1353 C1352 1.391 . S
C1354 Tb1344 2.825 . S
C1354 C1348 1.507 . S
C1354 O1367 1.238 . S
C1354 O1368 1.247 . S
O1355 Tb1344 2.347 . S
O1355 C1359 1.259 . S
O1356 Eu1345 2.418 . S
O1356 C1359 1.265 . S
O1357 Eu1345 2.384 . S
O1357 C1366 1.255 . S
O1358 Tb1344 2.366 . S
O1358 C1366 1.265 . S
C1359 O1355 1.259 . S
C1359 O1356 1.265 . S
O1360 Eu1345 2.479 . S
O1360 C1375 1.238 . S
O1361 Eu1345 2.471 . S
O1361 C1375 1.247 . S
O1362 Eu1345 2.347 . S
O1362 C1346 1.259 . S
O1363 Tb1344 2.418 . S
O1363 C1346 1.265 . S
O1364 Tb1344 2.384 . S
O1364 C1347 1.255 . S
O1365 Eu1345 2.366 . S
O1365 C1347 1.265 . S
C1366 O1357 1.255 . S
C1366 O1358 1.265 . S
O1367 Tb1344 2.479 . S
O1367 C1354 1.238 . S
O1368 Tb1344 2.471 . S
O1368 C1354 1.247 . S
C1369 C1372 1.380 . S
C1369 C1373 1.374 . S
C1369 C1375 1.507 . S
C1370 C1371 1.387 . S
C1370 C1374 1.391 . S
C1371 C1370 1.387 . S
C1371 C1372 1.384 . S
C1371 H1380 0.930 . S
C1372 C1369 1.380 . S
C1372 C1371 1.384 . S
C1372 H1381 0.931 . S
C1373 C1369 1.374 . S
C1373 C1374 1.390 . S
C1373 H1382 0.930 . S
C1374 C1370 1.391 . S
C1374 C1373 1.390 . S
C1374 H1383 0.930 . S
C1375 Eu1345 2.825 . S
C1375 O1360 1.238 . S
C1375 O1361 1.247 . S
C1375 C1369 1.507 . S
H1376 C1349 0.930 . S
H1377 C1350 0.931 . S
H1378 C1351 0.930 . S
H1379 C1352 0.930 . S
H1380 C1371 0.930 . S
H1381 C1372 0.931 . S
H1382 C1373 0.930 . S
H1383 C1374 0.930 . S
Tb1384 C1394 2.825 . S
Tb1384 O1395 2.347 . S
Tb1384 O1398 2.366 . S
Tb1384 O1403 2.418 . S
Tb1384 O1404 2.384 . S
Tb1384 O1407 2.479 . S
Tb1384 O1408 2.471 . S
Eu1385 O1396 2.418 . S
Eu1385 O1397 2.384 . S
Eu1385 O1400 2.479 . S
Eu1385 O1401 2.471 . S
Eu1385 O1402 2.347 . S
Eu1385 O1405 2.366 . S
Eu1385 C1415 2.825 . S
C1386 O1402 1.259 . S
C1386 O1403 1.265 . S
C1387 O1404 1.255 . S
C1387 O1405 1.265 . S
C1388 C1390 1.380 . S
C1388 C1391 1.374 . S
C1388 C1394 1.507 . S
C1389 C1390 1.384 . S
C1389 C1393 1.387 . S
C1389 H1416 0.930 . S
C1390 C1388 1.380 . S
C1390 C1389 1.384 . S
C1390 H1417 0.931 . S
C1391 C1388 1.374 . S
C1391 C1392 1.390 . S
C1391 H1418 0.930 . S
C1392 C1391 1.390 . S
C1392 C1393 1.391 . S
C1392 H1419 0.930 . S
C1393 C1389 1.387 . S
C1393 C1392 1.391 . S
C1394 Tb1384 2.825 . S
C1394 C1388 1.507 . S
C1394 O1407 1.238 . S
C1394 O1408 1.247 . S
O1395 Tb1384 2.347 . S
O1395 C1399 1.259 . S
O1396 Eu1385 2.418 . S
O1396 C1399 1.265 . S
O1397 Eu1385 2.384 . S
O1397 C1406 1.255 . S
O1398 Tb1384 2.366 . S
O1398 C1406 1.265 . S
C1399 O1395 1.259 . S
C1399 O1396 1.265 . S
O1400 Eu1385 2.479 . S
O1400 C1415 1.238 . S
O1401 Eu1385 2.471 . S
O1401 C1415 1.247 . S
O1402 Eu1385 2.347 . S
O1402 C1386 1.259 . S
O1403 Tb1384 2.418 . S
O1403 C1386 1.265 . S
O1404 Tb1384 2.384 . S
O1404 C1387 1.255 . S
O1405 Eu1385 2.366 . S
O1405 C1387 1.265 . S
C1406 O1397 1.255 . S
C1406 O1398 1.265 . S
O1407 Tb1384 2.479 . S
O1407 C1394 1.238 . S
O1408 Tb1384 2.471 . S
O1408 C1394 1.247 . S
C1409 C1412 1.380 . S
C1409 C1413 1.374 . S
C1409 C1415 1.507 . S
C1410 C1411 1.387 . S
C1410 C1414 1.391 . S
C1411 C1410 1.387 . S
C1411 C1412 1.384 . S
C1411 H1420 0.930 . S
C1412 C1409 1.380 . S
C1412 C1411 1.384 . S
C1412 H1421 0.931 . S
C1413 C1409 1.374 . S
C1413 C1414 1.390 . S
C1413 H1422 0.930 . S
C1414 C1410 1.391 . S
C1414 C1413 1.390 . S
C1414 H1423 0.930 . S
C1415 Eu1385 2.825 . S
C1415 O1400 1.238 . S
C1415 O1401 1.247 . S
C1415 C1409 1.507 . S
H1416 C1389 0.930 . S
H1417 C1390 0.931 . S
H1418 C1391 0.930 . S
H1419 C1392 0.930 . S
H1420 C1411 0.930 . S
H1421 C1412 0.931 . S
H1422 C1413 0.930 . S
H1423 C1414 0.930 . S
Tb1424 C1434 2.825 . S
Tb1424 O1435 2.347 . S
Tb1424 O1438 2.366 . S
Tb1424 O1443 2.418 . S
Tb1424 O1444 2.384 . S
Tb1424 O1447 2.479 . S
Tb1424 O1448 2.471 . S
Eu1425 O1436 2.418 . S
Eu1425 O1437 2.384 . S
Eu1425 O1440 2.479 . S
Eu1425 O1441 2.471 . S
Eu1425 O1442 2.347 . S
Eu1425 O1445 2.366 . S
Eu1425 C1455 2.825 . S
C1426 O1442 1.259 . S
C1426 O1443 1.265 . S
C1427 O1444 1.255 . S
C1427 O1445 1.265 . S
C1428 C1430 1.380 . S
C1428 C1431 1.374 . S
C1428 C1434 1.507 . S
C1429 C1430 1.384 . S
C1429 C1433 1.387 . S
C1429 H1456 0.930 . S
C1430 C1428 1.380 . S
C1430 C1429 1.384 . S
C1430 H1457 0.931 . S
C1431 C1428 1.374 . S
C1431 C1432 1.390 . S
C1431 H1458 0.930 . S
C1432 C1431 1.390 . S
C1432 C1433 1.391 . S
C1432 H1459 0.930 . S
C1433 C1429 1.387 . S
C1433 C1432 1.391 . S
C1434 Tb1424 2.825 . S
C1434 C1428 1.507 . S
C1434 O1447 1.238 . S
C1434 O1448 1.247 . S
O1435 Tb1424 2.347 . S
O1435 C1439 1.259 . S
O1436 Eu1425 2.418 . S
O1436 C1439 1.265 . S
O1437 Eu1425 2.384 . S
O1437 C1446 1.255 . S
O1438 Tb1424 2.366 . S
O1438 C1446 1.265 . S
C1439 O1435 1.259 . S
C1439 O1436 1.265 . S
O1440 Eu1425 2.479 . S
O1440 C1455 1.238 . S
O1441 Eu1425 2.471 . S
O1441 C1455 1.247 . S
O1442 Eu1425 2.347 . S
O1442 C1426 1.259 . S
O1443 Tb1424 2.418 . S
O1443 C1426 1.265 . S
O1444 Tb1424 2.384 . S
O1444 C1427 1.255 . S
O1445 Eu1425 2.366 . S
O1445 C1427 1.265 . S
C1446 O1437 1.255 . S
C1446 O1438 1.265 . S
O1447 Tb1424 2.479 . S
O1447 C1434 1.238 . S
O1448 Tb1424 2.471 . S
O1448 C1434 1.247 . S
C1449 C1452 1.380 . S
C1449 C1453 1.374 . S
C1449 C1455 1.507 . S
C1450 C1451 1.387 . S
C1450 C1454 1.391 . S
C1451 C1450 1.387 . S
C1451 C1452 1.384 . S
C1451 H1460 0.930 . S
C1452 C1449 1.380 . S
C1452 C1451 1.384 . S
C1452 H1461 0.931 . S
C1453 C1449 1.374 . S
C1453 C1454 1.390 . S
C1453 H1462 0.930 . S
C1454 C1450 1.391 . S
C1454 C1453 1.390 . S
C1454 H1463 0.930 . S
C1455 Eu1425 2.825 . S
C1455 O1440 1.238 . S
C1455 O1441 1.247 . S
C1455 C1449 1.507 . S
H1456 C1429 0.930 . S
H1457 C1430 0.931 . S
H1458 C1431 0.930 . S
H1459 C1432 0.930 . S
H1460 C1451 0.930 . S
H1461 C1452 0.931 . S
H1462 C1453 0.930 . S
H1463 C1454 0.930 . S
Tb1464 C1474 2.825 . S
Tb1464 O1475 2.347 1_554 S
Tb1464 O1478 2.366 . S
Tb1464 O1483 2.418 . S
Tb1464 O1484 2.384 . S
Tb1464 O1487 2.479 . S
Tb1464 O1488 2.471 1_554 S
Eu1465 O1476 2.418 1_554 S
Eu1465 O1477 2.384 . S
Eu1465 O1480 2.479 . S
Eu1465 O1481 2.471 . S
Eu1465 O1482 2.347 . S
Eu1465 O1485 2.366 . S
Eu1465 C1495 2.825 . S
C1466 O1482 1.259 . S
C1466 O1483 1.265 . S
C1467 O1484 1.255 . S
C1467 O1485 1.265 . S
C1468 C1470 1.380 1_556 S
C1468 C1471 1.374 . S
C1468 C1474 1.507 1_556 S
C1469 C1470 1.384 1_556 S
C1469 C1473 1.387 . S
C1469 H1496 0.930 1_556 S
C1470 C1468 1.380 1_554 S
C1470 C1469 1.384 1_554 S
C1470 H1497 0.931 . S
C1471 C1468 1.374 . S
C1471 C1472 1.390 . S
C1471 H1498 0.930 . S
C1472 C1471 1.390 . S
C1472 C1473 1.391 . S
C1472 H1499 0.930 . S
C1473 C1469 1.387 . S
C1473 C1472 1.391 . S
C1474 Tb1464 2.825 . S
C1474 C1468 1.507 1_554 S
C1474 O1487 1.238 . S
C1474 O1488 1.247 1_554 S
O1475 Tb1464 2.347 1_556 S
O1475 C1479 1.259 . S
O1476 Eu1465 2.418 1_556 S
O1476 C1479 1.265 . S
O1477 Eu1465 2.384 . S
O1477 C1486 1.255 . S
O1478 Tb1464 2.366 . S
O1478 C1486 1.265 . S
C1479 O1475 1.259 . S
C1479 O1476 1.265 . S
O1480 Eu1465 2.479 . S
O1480 C1495 1.238 . S
O1481 Eu1465 2.471 . S
O1481 C1495 1.247 . S
O1482 Eu1465 2.347 . S
O1482 C1466 1.259 . S
O1483 Tb1464 2.418 . S
O1483 C1466 1.265 . S
O1484 Tb1464 2.384 . S
O1484 C1467 1.255 . S
O1485 Eu1465 2.366 . S
O1485 C1467 1.265 . S
C1486 O1477 1.255 . S
C1486 O1478 1.265 . S
O1487 Tb1464 2.479 . S
O1487 C1474 1.238 . S
O1488 Tb1464 2.471 1_556 S
O1488 C1474 1.247 1_556 S
C1489 C1492 1.380 . S
C1489 C1493 1.374 . S
C1489 C1495 1.507 . S
C1490 C1491 1.387 . S
C1490 C1494 1.391 . S
C1491 C1490 1.387 . S
C1491 C1492 1.384 . S
C1491 H1500 0.930 . S
C1492 C1489 1.380 . S
C1492 C1491 1.384 . S
C1492 H1501 0.931 . S
C1493 C1489 1.374 . S
C1493 C1494 1.390 . S
C1493 H1502 0.930 . S
C1494 C1490 1.391 . S
C1494 C1493 1.390 . S
C1494 H1503 0.930 . S
C1495 Eu1465 2.825 . S
C1495 O1480 1.238 . S
C1495 O1481 1.247 . S
C1495 C1489 1.507 . S
H1496 C1469 0.930 1_554 S
H1497 C1470 0.931 . S
H1498 C1471 0.930 . S
H1499 C1472 0.930 . S
H1500 C1491 0.930 . S
H1501 C1492 0.931 . S
H1502 C1493 0.930 . S
H1503 C1494 0.930 . S
C1504 C1505 1.436 . S
C1504 C1506 1.394 . S
C1504 H1520 0.931 . S
C1505 C1504 1.436 . S
C1505 C1509 1.351 1_455 S
C1506 C1504 1.394 . S
C1506 C1507 1.369 . S
C1506 C1510 1.531 . S
C1507 C1506 1.369 . S
C1507 C1508 1.410 1_455 S
C1507 C1515 1.503 . S
C1508 C1507 1.410 1_655 S
C1508 C1509 1.392 . S
C1508 C1511 1.511 . S
C1509 C1505 1.351 1_655 S
C1509 C1508 1.392 . S
C1509 H1521 0.929 . S
C1510 C1506 1.531 . S
C1510 H1522 0.960 . S
C1510 H1523 0.962 . S
C1510 H1524 0.960 . S
C1511 C1508 1.511 . S
C1511 H1525 0.961 . S
C1511 H1526 0.961 . S
C1511 H1527 0.961 . S
C1512 C1513 1.370 . S
C1512 C1514 1.363 . S
C1512 H1528 0.931 . S
C1513 C1512 1.370 . S
C1513 C1517 1.408 1_556 S
C1514 C1512 1.363 . S
C1514 C1515 1.370 . S
C1514 C1518 1.524 1_455 S
C1515 C1507 1.503 . S
C1515 C1514 1.370 . S
C1515 C1516 1.403 . S
C1516 C1515 1.403 . S
C1516 C1517 1.404 1_556 S
C1516 C1519 1.539 . S
C1517 C1513 1.408 1_554 S
C1517 C1516 1.404 1_554 S
C1517 H1529 0.930 . S
C1518 C1514 1.524 1_655 S
C1518 H1530 0.956 1_655 S
C1518 H1531 0.961 . S
C1518 H1532 0.961 . S
C1519 C1516 1.539 . S
C1519 H1533 0.958 . S
C1519 H1534 0.961 1_556 S
C1519 H1535 0.960 . S
H1520 C1504 0.931 . S
H1521 C1509 0.929 . S
H1522 C1510 0.960 . S
H1523 C1510 0.962 . S
H1524 C1510 0.960 . S
H1525 C1511 0.961 . S
H1526 C1511 0.961 . S
H1527 C1511 0.961 . S
H1528 C1512 0.931 . S
H1529 C1517 0.930 . S
H1530 C1518 0.956 1_455 S
H1531 C1518 0.961 . S
H1532 C1518 0.961 . S
H1533 C1519 0.958 . S
H1534 C1519 0.961 1_554 S
H1535 C1519 0.960 . S
C1536 C1537 1.391 . S
C1536 C1538 1.394 . S
C1536 H1552 0.931 . S
C1537 C1536 1.391 . S
C1537 C1541 1.376 . S
C1538 C1536 1.394 . S
C1538 C1539 1.369 . S
C1538 C1542 1.531 . S
C1539 C1538 1.369 . S
C1539 C1540 1.410 . S
C1539 C1547 1.503 . S
C1540 C1539 1.410 . S
C1540 C1541 1.392 . S
C1540 C1543 1.511 . S
C1541 C1537 1.376 . S
C1541 C1540 1.392 . S
C1541 H1553 0.929 . S
C1542 C1538 1.531 . S
C1542 H1554 0.960 . S
C1542 H1555 0.962 . S
C1542 H1556 0.960 . S
C1543 C1540 1.511 . S
C1543 H1557 0.961 . S
C1543 H1558 0.961 . S
C1543 H1559 0.961 . S
C1544 C1545 1.370 . S
C1544 C1546 1.363 . S
C1544 H1560 0.931 . S
C1545 C1544 1.370 . S
C1545 C1549 1.408 . S
C1546 C1544 1.363 . S
C1546 C1547 1.370 . S
C1546 C1550 1.524 . S
C1547 C1539 1.503 . S
C1547 C1546 1.370 . S
C1547 C1548 1.403 . S
C1548 C1547 1.403 . S
C1548 C1549 1.404 . S
C1548 C1551 1.539 . S
C1549 C1545 1.408 . S
C1549 C1548 1.404 . S
C1549 H1561 0.930 . S
C1550 C1546 1.524 . S
C1550 H1562 0.956 . S
C1550 H1563 0.961 . S
C1550 H1564 0.961 . S
C1551 C1548 1.539 . S
C1551 H1565 0.958 . S
C1551 H1566 0.961 . S
C1551 H1567 0.960 . S
H1552 C1536 0.931 . S
H1553 C1541 0.929 . S
H1554 C1542 0.960 . S
H1555 C1542 0.962 . S
H1556 C1542 0.960 . S
H1557 C1543 0.961 . S
H1558 C1543 0.961 . S
H1559 C1543 0.961 . S
H1560 C1544 0.931 . S
H1561 C1549 0.930 . S
H1562 C1550 0.956 . S
H1563 C1550 0.961 . S
H1564 C1550 0.961 . S
H1565 C1551 0.958 . S
H1566 C1551 0.961 . S
H1567 C1551 0.960 . S
C1568 C1569 1.391 . S
C1568 C1570 1.394 . S
C1568 H1584 0.931 . S
C1569 C1568 1.391 . S
C1569 C1573 1.376 . S
C1570 C1568 1.394 . S
C1570 C1571 1.369 . S
C1570 C1574 1.531 . S
C1571 C1570 1.369 . S
C1571 C1572 1.410 . S
C1571 C1579 1.503 . S
C1572 C1571 1.410 . S
C1572 C1573 1.392 . S
C1572 C1575 1.511 . S
C1573 C1569 1.376 . S
C1573 C1572 1.392 . S
C1573 H1585 0.929 . S
C1574 C1570 1.531 . S
C1574 H1586 0.960 . S
C1574 H1587 0.962 . S
C1574 H1588 0.960 . S
C1575 C1572 1.511 . S
C1575 H1589 0.961 . S
C1575 H1590 0.961 . S
C1575 H1591 0.961 . S
C1576 C1577 1.370 . S
C1576 C1578 1.363 . S
C1576 H1592 0.931 . S
C1577 C1576 1.370 . S
C1577 C1581 1.408 . S
C1578 C1576 1.363 . S
C1578 C1579 1.370 . S
C1578 C1582 1.524 . S
C1579 C1571 1.503 . S
C1579 C1578 1.370 . S
C1579 C1580 1.403 . S
C1580 C1579 1.403 . S
C1580 C1581 1.404 . S
C1580 C1583 1.539 . S
C1581 C1577 1.408 . S
C1581 C1580 1.404 . S
C1581 H1593 0.930 . S
C1582 C1578 1.524 . S
C1582 H1594 0.956 . S
C1582 H1595 0.961 . S
C1582 H1596 0.961 . S
C1583 C1580 1.539 . S
C1583 H1597 0.958 . S
C1583 H1598 0.961 . S
C1583 H1599 0.960 . S
H1584 C1568 0.931 . S
H1585 C1573 0.929 . S
H1586 C1574 0.960 . S
H1587 C1574 0.962 . S
H1588 C1574 0.960 . S
H1589 C1575 0.961 . S
H1590 C1575 0.961 . S
H1591 C1575 0.961 . S
H1592 C1576 0.931 . S
H1593 C1581 0.930 . S
H1594 C1582 0.956 . S
H1595 C1582 0.961 . S
H1596 C1582 0.961 . S
H1597 C1583 0.958 . S
H1598 C1583 0.961 . S
H1599 C1583 0.960 . S
C1600 C1601 1.391 . S
C1600 C1602 1.394 . S
C1600 H1616 0.931 . S
C1601 C1600 1.391 . S
C1601 C1605 1.376 . S
C1602 C1600 1.394 . S
C1602 C1603 1.369 . S
C1602 C1606 1.531 . S
C1603 C1602 1.369 . S
C1603 C1604 1.410 . S
C1603 C1611 1.503 . S
C1604 C1603 1.410 . S
C1604 C1605 1.392 . S
C1604 C1607 1.511 . S
C1605 C1601 1.376 . S
C1605 C1604 1.392 . S
C1605 H1617 0.929 . S
C1606 C1602 1.531 . S
C1606 H1618 0.960 . S
C1606 H1619 0.962 . S
C1606 H1620 0.960 . S
C1607 C1604 1.511 . S
C1607 H1621 0.961 . S
C1607 H1622 0.961 . S
C1607 H1623 0.961 . S
C1608 C1609 1.370 . S
C1608 C1610 1.363 . S
C1608 H1624 0.931 . S
C1609 C1608 1.370 . S
C1609 C1613 1.408 . S
C1610 C1608 1.363 . S
C1610 C1611 1.370 . S
C1610 C1614 1.524 . S
C1611 C1603 1.503 . S
C1611 C1610 1.370 . S
C1611 C1612 1.403 . S
C1612 C1611 1.403 . S
C1612 C1613 1.404 . S
C1612 C1615 1.539 . S
C1613 C1609 1.408 . S
C1613 C1612 1.404 . S
C1613 H1625 0.930 . S
C1614 C1610 1.524 . S
C1614 H1626 0.956 . S
C1614 H1627 0.961 . S
C1614 H1628 0.961 . S
C1615 C1612 1.539 . S
C1615 H1629 0.958 . S
C1615 H1630 0.961 . S
C1615 H1631 0.960 . S
H1616 C1600 0.931 . S
H1617 C1605 0.929 . S
H1618 C1606 0.960 . S
H1619 C1606 0.962 . S
H1620 C1606 0.960 . S
H1621 C1607 0.961 . S
H1622 C1607 0.961 . S
H1623 C1607 0.961 . S
H1624 C1608 0.931 . S
H1625 C1613 0.930 . S
H1626 C1614 0.956 . S
H1627 C1614 0.961 . S
H1628 C1614 0.961 . S
H1629 C1615 0.958 . S
H1630 C1615 0.961 . S
H1631 C1615 0.960 . S
C1632 C1633 1.391 . S
C1632 C1634 1.394 . S
C1632 H1648 0.931 . S
C1633 C1632 1.391 . S
C1633 C1637 1.376 . S
C1634 C1632 1.394 . S
C1634 C1635 1.369 . S
C1634 C1638 1.531 . S
C1635 C1634 1.369 . S
C1635 C1636 1.410 . S
C1635 C1643 1.503 . S
C1636 C1635 1.410 . S
C1636 C1637 1.392 . S
C1636 C1639 1.511 . S
C1637 C1633 1.376 . S
C1637 C1636 1.392 . S
C1637 H1649 0.929 . S
C1638 C1634 1.531 . S
C1638 H1650 0.960 . S
C1638 H1651 0.962 . S
C1638 H1652 0.960 . S
C1639 C1636 1.511 . S
C1639 H1653 0.961 . S
C1639 H1654 0.961 . S
C1639 H1655 0.961 . S
C1640 C1641 1.370 . S
C1640 C1642 1.363 . S
C1640 H1656 0.931 . S
C1641 C1640 1.370 . S
C1641 C1645 1.408 . S
C1642 C1640 1.363 . S
C1642 C1643 1.370 . S
C1642 C1646 1.524 . S
C1643 C1635 1.503 . S
C1643 C1642 1.370 . S
C1643 C1644 1.403 . S
C1644 C1643 1.403 . S
C1644 C1645 1.404 . S
C1644 C1647 1.539 . S
C1645 C1641 1.408 . S
C1645 C1644 1.404 . S
C1645 H1657 0.930 . S
C1646 C1642 1.524 . S
C1646 H1658 0.956 . S
C1646 H1659 0.961 . S
C1646 H1660 0.961 . S
C1647 C1644 1.539 . S
C1647 H1661 0.958 . S
C1647 H1662 0.961 . S
C1647 H1663 0.960 . S
H1648 C1632 0.931 . S
H1649 C1637 0.929 . S
H1650 C1638 0.960 . S
H1651 C1638 0.962 . S
H1652 C1638 0.960 . S
H1653 C1639 0.961 . S
H1654 C1639 0.961 . S
H1655 C1639 0.961 . S
H1656 C1640 0.931 . S
H1657 C1645 0.930 . S
H1658 C1646 0.956 . S
H1659 C1646 0.961 . S
H1660 C1646 0.961 . S
H1661 C1647 0.958 . S
H1662 C1647 0.961 . S
H1663 C1647 0.960 . S
C1664 C1665 1.391 . S
C1664 C1666 1.394 . S
C1664 H1680 0.931 . S
C1665 C1664 1.391 . S
C1665 C1669 1.376 . S
C1666 C1664 1.394 . S
C1666 C1667 1.369 . S
C1666 C1670 1.531 . S
C1667 C1666 1.369 . S
C1667 C1668 1.410 . S
C1667 C1675 1.503 . S
C1668 C1667 1.410 . S
C1668 C1669 1.392 . S
C1668 C1671 1.511 . S
C1669 C1665 1.376 . S
C1669 C1668 1.392 . S
C1669 H1681 0.929 . S
C1670 C1666 1.531 . S
C1670 H1682 0.960 . S
C1670 H1683 0.962 . S
C1670 H1684 0.960 . S
C1671 C1668 1.511 . S
C1671 H1685 0.961 . S
C1671 H1686 0.961 . S
C1671 H1687 0.961 . S
C1672 C1673 1.370 . S
C1672 C1674 1.363 . S
C1672 H1688 0.931 . S
C1673 C1672 1.370 . S
C1673 C1677 1.408 . S
C1674 C1672 1.363 . S
C1674 C1675 1.370 . S
C1674 C1678 1.524 . S
C1675 C1667 1.503 . S
C1675 C1674 1.370 . S
C1675 C1676 1.403 . S
C1676 C1675 1.403 . S
C1676 C1677 1.404 . S
C1676 C1679 1.539 . S
C1677 C1673 1.408 . S
C1677 C1676 1.404 . S
C1677 H1689 0.930 . S
C1678 C1674 1.524 . S
C1678 H1690 0.956 . S
C1678 H1691 0.961 . S
C1678 H1692 0.961 . S
C1679 C1676 1.539 . S
C1679 H1693 0.958 . S
C1679 H1694 0.961 . S
C1679 H1695 0.960 . S
H1680 C1664 0.931 . S
H1681 C1669 0.929 . S
H1682 C1670 0.960 . S
H1683 C1670 0.962 . S
H1684 C1670 0.960 . S
H1685 C1671 0.961 . S
H1686 C1671 0.961 . S
H1687 C1671 0.961 . S
H1688 C1672 0.931 . S
H1689 C1677 0.930 . S
H1690 C1678 0.956 . S
H1691 C1678 0.961 . S
H1692 C1678 0.961 . S
H1693 C1679 0.958 . S
H1694 C1679 0.961 . S
H1695 C1679 0.960 . S
C1696 C1697 1.391 . S
C1696 C1698 1.394 . S
C1696 H1712 0.931 . S
C1697 C1696 1.391 . S
C1697 C1701 1.376 . S
C1698 C1696 1.394 . S
C1698 C1699 1.369 . S
C1698 C1702 1.531 . S
C1699 C1698 1.369 . S
C1699 C1700 1.410 . S
C1699 C1707 1.503 . S
C1700 C1699 1.410 . S
C1700 C1701 1.392 . S
C1700 C1703 1.511 . S
C1701 C1697 1.376 . S
C1701 C1700 1.392 . S
C1701 H1713 0.929 . S
C1702 C1698 1.531 . S
C1702 H1714 0.960 . S
C1702 H1715 0.962 . S
C1702 H1716 0.960 . S
C1703 C1700 1.511 . S
C1703 H1717 0.961 . S
C1703 H1718 0.961 . S
C1703 H1719 0.961 . S
C1704 C1705 1.370 . S
C1704 C1706 1.363 . S
C1704 H1720 0.931 . S
C1705 C1704 1.370 . S
C1705 C1709 1.408 . S
C1706 C1704 1.363 . S
C1706 C1707 1.370 . S
C1706 C1710 1.524 . S
C1707 C1699 1.503 . S
C1707 C1706 1.370 . S
C1707 C1708 1.403 . S
C1708 C1707 1.403 . S
C1708 C1709 1.404 . S
C1708 C1711 1.539 . S
C1709 C1705 1.408 . S
C1709 C1708 1.404 . S
C1709 H1721 0.930 . S
C1710 C1706 1.524 . S
C1710 H1722 0.956 . S
C1710 H1723 0.961 . S
C1710 H1724 0.961 . S
C1711 C1708 1.539 . S
C1711 H1725 0.958 . S
C1711 H1726 0.961 . S
C1711 H1727 0.960 . S
H1712 C1696 0.931 . S
H1713 C1701 0.929 . S
H1714 C1702 0.960 . S
H1715 C1702 0.962 . S
H1716 C1702 0.960 . S
H1717 C1703 0.961 . S
H1718 C1703 0.961 . S
H1719 C1703 0.961 . S
H1720 C1704 0.931 . S
H1721 C1709 0.930 . S
H1722 C1710 0.956 . S
H1723 C1710 0.961 . S
H1724 C1710 0.961 . S
H1725 C1711 0.958 . S
H1726 C1711 0.961 . S
H1727 C1711 0.960 . S
C1728 C1729 1.391 . S
C1728 C1730 1.394 . S
C1728 H1744 0.931 . S
C1729 C1728 1.391 . S
C1729 C1733 1.376 . S
C1730 C1728 1.394 . S
C1730 C1731 1.369 . S
C1730 C1734 1.531 . S
C1731 C1730 1.369 . S
C1731 C1732 1.410 . S
C1731 C1739 1.503 . S
C1732 C1731 1.410 . S
C1732 C1733 1.392 . S
C1732 C1735 1.511 . S
C1733 C1729 1.376 . S
C1733 C1732 1.392 . S
C1733 H1745 0.929 . S
C1734 C1730 1.531 . S
C1734 H1746 0.960 . S
C1734 H1747 0.962 . S
C1734 H1748 0.960 . S
C1735 C1732 1.511 . S
C1735 H1749 0.961 . S
C1735 H1750 0.961 . S
C1735 H1751 0.961 . S
C1736 C1737 1.370 . S
C1736 C1738 1.363 . S
C1736 H1752 0.931 . S
C1737 C1736 1.370 . S
C1737 C1741 1.408 . S
C1738 C1736 1.363 . S
C1738 C1739 1.370 . S
C1738 C1742 1.524 . S
C1739 C1731 1.503 . S
C1739 C1738 1.370 . S
C1739 C1740 1.403 . S
C1740 C1739 1.403 . S
C1740 C1741 1.404 . S
C1740 C1743 1.539 . S
C1741 C1737 1.408 . S
C1741 C1740 1.404 . S
C1741 H1753 0.930 . S
C1742 C1738 1.524 . S
C1742 H1754 0.956 . S
C1742 H1755 0.961 . S
C1742 H1756 0.961 . S
C1743 C1740 1.539 . S
C1743 H1757 0.958 . S
C1743 H1758 0.961 . S
C1743 H1759 0.960 . S
H1744 C1728 0.931 . S
H1745 C1733 0.929 . S
H1746 C1734 0.960 . S
H1747 C1734 0.962 . S
H1748 C1734 0.960 . S
H1749 C1735 0.961 . S
H1750 C1735 0.961 . S
H1751 C1735 0.961 . S
H1752 C1736 0.931 . S
H1753 C1741 0.930 . S
H1754 C1742 0.956 . S
H1755 C1742 0.961 . S
H1756 C1742 0.961 . S
H1757 C1743 0.958 . S
H1758 C1743 0.961 . S
H1759 C1743 0.960 . S
C1760 C1761 1.390 1_565 S
C1760 C1762 1.394 1_565 S
C1760 H1776 0.931 . S
C1761 C1760 1.390 1_545 S
C1761 C1765 1.377 . S
C1762 C1760 1.394 1_545 S
C1762 C1763 1.369 . S
C1762 C1766 1.531 1_655 S
C1763 C1762 1.369 . S
C1763 C1764 1.410 . S
C1763 C1771 1.503 . S
C1764 C1763 1.410 . S
C1764 C1765 1.392 . S
C1764 C1767 1.511 . S
C1765 C1761 1.377 . S
C1765 C1764 1.392 . S
C1765 H1777 0.929 . S
C1766 C1762 1.531 1_455 S
C1766 H1778 0.960 1_545 S
C1766 H1779 0.962 . S
C1766 H1780 0.960 1_545 S
C1767 C1764 1.511 . S
C1767 H1781 0.961 . S
C1767 H1782 0.961 . S
C1767 H1783 0.961 1_545 S
C1768 C1769 1.370 . S
C1768 C1770 1.363 1_455 S
C1768 H1784 0.931 . S
C1769 C1768 1.370 . S
C1769 C1773 1.408 . S
C1770 C1768 1.363 1_655 S
C1770 C1771 1.370 . S
C1770 C1774 1.524 . S
C1771 C1763 1.503 . S
C1771 C1770 1.370 . S
C1771 C1772 1.403 1_545 S
C1772 C1771 1.403 1_565 S
C1772 C1773 1.404 1_665 S
C1772 C1775 1.539 . S
C1773 C1769 1.408 . S
C1773 C1772 1.404 1_445 S
C1773 H1785 0.930 1_545 S
C1774 C1770 1.524 . S
C1774 H1786 0.956 . S
C1774 H1787 0.961 . S
C1774 H1788 0.971 . S
C1775 C1772 1.539 . S
C1775 H1789 0.958 . S
C1775 H1790 0.961 . S
C1775 H1791 0.960 . S
H1776 C1760 0.931 . S
H1777 C1765 0.929 . S
H1778 C1766 0.960 1_565 S
H1779 C1766 0.962 . S
H1780 C1766 0.960 1_565 S
H1781 C1767 0.961 . S
H1782 C1767 0.961 . S
H1783 C1767 0.961 1_565 S
H1784 C1768 0.931 . S
H1785 C1773 0.930 1_565 S
H1786 C1774 0.956 . S
H1787 C1774 0.961 . S
H1788 C1774 0.971 . S
H1789 C1775 0.958 . S
H1790 C1775 0.961 . S
H1791 C1775 0.960 . S
C1792 C1793 1.391 . S
C1792 C1794 1.394 . S
C1792 H1808 0.931 . S
C1793 C1792 1.391 . S
C1793 C1797 1.376 . S
C1794 C1792 1.394 . S
C1794 C1795 1.369 . S
C1794 C1798 1.531 . S
C1795 C1794 1.369 . S
C1795 C1796 1.410 . S
C1795 C1803 1.503 . S
C1796 C1795 1.410 . S
C1796 C1797 1.392 . S
C1796 C1799 1.511 . S
C1797 C1793 1.376 . S
C1797 C1796 1.392 . S
C1797 H1809 0.929 . S
C1798 C1794 1.531 . S
C1798 H1810 0.960 . S
C1798 H1811 0.962 . S
C1798 H1812 0.960 . S
C1799 C1796 1.511 . S
C1799 H1813 0.961 . S
C1799 H1814 0.961 . S
C1799 H1815 0.961 . S
C1800 C1801 1.370 . S
C1800 C1802 1.363 . S
C1800 H1816 0.931 . S
C1801 C1800 1.370 . S
C1801 C1805 1.408 . S
C1802 C1800 1.363 . S
C1802 C1803 1.370 . S
C1802 C1806 1.524 . S
C1803 C1795 1.503 . S
C1803 C1802 1.370 . S
C1803 C1804 1.403 . S
C1804 C1803 1.403 . S
C1804 C1805 1.404 . S
C1804 C1807 1.539 . S
C1805 C1801 1.408 . S
C1805 C1804 1.404 . S
C1805 H1817 0.930 . S
C1806 C1802 1.524 . S
C1806 H1818 0.956 . S
C1806 H1819 0.961 . S
C1806 H1820 0.961 . S
C1807 C1804 1.539 . S
C1807 H1821 0.958 . S
C1807 H1822 0.961 . S
C1807 H1823 0.960 . S
H1808 C1792 0.931 . S
H1809 C1797 0.929 . S
H1810 C1798 0.960 . S
H1811 C1798 0.962 . S
H1812 C1798 0.960 . S
H1813 C1799 0.961 . S
H1814 C1799 0.961 . S
H1815 C1799 0.961 . S
H1816 C1800 0.931 . S
H1817 C1805 0.930 . S
H1818 C1806 0.956 . S
H1819 C1806 0.961 . S
H1820 C1806 0.961 . S
H1821 C1807 0.958 . S
H1822 C1807 0.961 . S
H1823 C1807 0.960 . S
C1824 C1825 1.391 1_565 S
C1824 C1826 1.394 . S
C1824 H1840 0.931 . S
C1825 C1824 1.391 1_545 S
C1825 C1829 1.376 . S
C1826 C1824 1.394 . S
C1826 C1827 1.369 1_565 S
C1826 C1830 1.531 . S
C1827 C1826 1.369 1_545 S
C1827 C1828 1.410 . S
C1827 C1835 1.503 . S
C1828 C1827 1.410 . S
C1828 C1829 1.392 . S
C1828 C1831 1.511 . S
C1829 C1825 1.376 . S
C1829 C1828 1.392 . S
C1829 H1841 0.929 . S
C1830 C1826 1.531 . S
C1830 H1842 0.960 . S
C1830 H1843 0.962 . S
C1830 H1844 0.960 . S
C1831 C1828 1.511 . S
C1831 H1845 0.961 . S
C1831 H1846 0.961 . S
C1831 H1847 0.961 . S
C1832 C1833 1.370 . S
C1832 C1834 1.363 . S
C1832 H1848 0.931 . S
C1833 C1832 1.370 . S
C1833 C1837 1.408 . S
C1834 C1832 1.363 . S
C1834 C1835 1.370 . S
C1834 C1838 1.524 . S
C1835 C1827 1.503 . S
C1835 C1834 1.370 . S
C1835 C1836 1.403 . S
C1836 C1835 1.403 . S
C1836 C1837 1.404 . S
C1836 C1839 1.539 1_545 S
C1837 C1833 1.408 . S
C1837 C1836 1.404 . S
C1837 H1849 0.930 . S
C1838 C1834 1.524 . S
C1838 H1850 0.956 . S
C1838 H1851 0.961 . S
C1838 H1852 0.961 . S
C1839 C1836 1.539 1_565 S
C1839 H1853 0.958 . S
C1839 H1854 0.961 . S
C1839 H1855 0.960 . S
H1840 C1824 0.931 . S
H1841 C1829 0.929 . S
H1842 C1830 0.960 . S
H1843 C1830 0.962 . S
H1844 C1830 0.960 . S
H1845 C1831 0.961 . S
H1846 C1831 0.961 . S
H1847 C1831 0.961 . S
H1848 C1832 0.931 . S
H1849 C1837 0.930 . S
H1850 C1838 0.956 . S
H1851 C1838 0.961 . S
H1852 C1838 0.961 . S
H1853 C1839 0.958 . S
H1854 C1839 0.961 . S
H1855 C1839 0.960 . S
C1856 C1857 1.391 . S
C1856 C1858 1.394 . S
C1856 H1872 0.931 . S
C1857 C1856 1.391 . S
C1857 C1861 1.376 . S
C1858 C1856 1.394 . S
C1858 C1859 1.369 . S
C1858 C1862 1.531 . S
C1859 C1858 1.369 . S
C1859 C1860 1.410 . S
C1859 C1867 1.503 . S
C1860 C1859 1.410 . S
C1860 C1861 1.392 . S
C1860 C1863 1.511 . S
C1861 C1857 1.376 . S
C1861 C1860 1.392 . S
C1861 H1873 0.929 . S
C1862 C1858 1.531 . S
C1862 H1874 0.960 . S
C1862 H1875 0.962 . S
C1862 H1876 0.960 . S
C1863 C1860 1.511 . S
C1863 H1877 0.961 . S
C1863 H1878 0.961 . S
C1863 H1879 0.961 . S
C1864 C1865 1.370 . S
C1864 C1866 1.363 . S
C1864 H1880 0.931 . S
C1865 C1864 1.370 . S
C1865 C1869 1.408 . S
C1866 C1864 1.363 . S
C1866 C1867 1.370 . S
C1866 C1870 1.524 . S
C1867 C1859 1.503 . S
C1867 C1866 1.370 . S
C1867 C1868 1.403 . S
C1868 C1867 1.403 . S
C1868 C1869 1.404 . S
C1868 C1871 1.539 . S
C1869 C1865 1.408 . S
C1869 C1868 1.404 . S
C1869 H1881 0.930 . S
C1870 C1866 1.524 . S
C1870 H1882 0.956 . S
C1870 H1883 0.961 . S
C1870 H1884 0.961 . S
C1871 C1868 1.539 . S
C1871 H1885 0.958 . S
C1871 H1886 0.961 . S
C1871 H1887 0.960 . S
H1872 C1856 0.931 . S
H1873 C1861 0.929 . S
H1874 C1862 0.960 . S
H1875 C1862 0.962 . S
H1876 C1862 0.960 . S
H1877 C1863 0.961 . S
H1878 C1863 0.961 . S
H1879 C1863 0.961 . S
H1880 C1864 0.931 . S
H1881 C1869 0.930 . S
H1882 C1870 0.956 . S
H1883 C1870 0.961 . S
H1884 C1870 0.961 . S
H1885 C1871 0.958 . S
H1886 C1871 0.961 . S
H1887 C1871 0.960 . S
C1888 C1889 1.391 . S
C1888 C1890 1.394 . S
C1888 H1904 0.931 . S
C1889 C1888 1.391 . S
C1889 C1893 1.376 1_545 S
C1890 C1888 1.394 . S
C1890 C1891 1.369 . S
C1890 C1894 1.531 . S
C1891 C1890 1.369 . S
C1891 C1892 1.410 1_545 S
C1891 C1899 1.503 . S
C1892 C1891 1.410 1_565 S
C1892 C1893 1.392 . S
C1892 C1895 1.511 . S
C1893 C1889 1.376 1_565 S
C1893 C1892 1.392 . S
C1893 H1905 0.929 . S
C1894 C1890 1.531 . S
C1894 H1906 0.960 . S
C1894 H1907 0.962 . S
C1894 H1908 0.960 . S
C1895 C1892 1.511 . S
C1895 H1909 0.961 . S
C1895 H1910 0.961 . S
C1895 H1911 0.961 . S
C1896 C1897 1.370 1_455 S
C1896 C1898 1.363 1_455 S
C1896 H1912 0.931 . S
C1897 C1896 1.370 1_655 S
C1897 C1901 1.408 . S
C1898 C1896 1.363 1_655 S
C1898 C1899 1.370 . S
C1898 C1902 1.524 1_655 S
C1899 C1891 1.503 . S
C1899 C1898 1.370 . S
C1899 C1900 1.403 . S
C1900 C1899 1.403 . S
C1900 C1901 1.404 . S
C1900 C1903 1.539 . S
C1901 C1897 1.408 . S
C1901 C1900 1.404 . S
C1901 H1913 0.930 . S
C1902 C1898 1.524 1_455 S
C1902 H1914 0.956 . S
C1902 H1915 0.961 1_455 S
C1902 H1916 0.961 . S
C1903 C1900 1.539 . S
C1903 H1917 0.958 . S
C1903 H1918 0.961 . S
C1903 H1919 0.960 . S
H1904 C1888 0.931 . S
H1905 C1893 0.929 . S
H1906 C1894 0.960 . S
H1907 C1894 0.962 . S
H1908 C1894 0.960 . S
H1909 C1895 0.961 . S
H1910 C1895 0.961 . S
H1911 C1895 0.961 . S
H1912 C1896 0.931 . S
H1913 C1901 0.930 . S
H1914 C1902 0.956 . S
H1915 C1902 0.961 1_655 S
H1916 C1902 0.961 . S
H1917 C1903 0.958 . S
H1918 C1903 0.961 . S
H1919 C1903 0.960 . S
C1920 C1921 1.391 . S
C1920 C1922 1.394 . S
C1920 H1936 0.931 . S
C1921 C1920 1.391 . S
C1921 C1925 1.376 . S
C1922 C1920 1.394 . S
C1922 C1923 1.369 . S
C1922 C1926 1.531 . S
C1923 C1922 1.369 . S
C1923 C1924 1.410 . S
C1923 C1931 1.503 . S
C1924 C1923 1.410 . S
C1924 C1925 1.392 . S
C1924 C1927 1.511 . S
C1925 C1921 1.376 . S
C1925 C1924 1.392 . S
C1925 H1937 0.929 . S
C1926 C1922 1.531 . S
C1926 H1938 0.960 . S
C1926 H1939 0.962 . S
C1926 H1940 0.960 . S
C1927 C1924 1.511 . S
C1927 H1941 0.961 . S
C1927 H1942 0.961 . S
C1927 H1943 0.961 . S
C1928 C1929 1.370 . S
C1928 C1930 1.363 . S
C1928 H1944 0.931 . S
C1929 C1928 1.370 . S
C1929 C1933 1.408 . S
C1930 C1928 1.363 . S
C1930 C1931 1.370 . S
C1930 C1934 1.524 . S
C1931 C1923 1.503 . S
C1931 C1930 1.370 . S
C1931 C1932 1.403 . S
C1932 C1931 1.403 . S
C1932 C1933 1.404 . S
C1932 C1935 1.539 . S
C1933 C1929 1.408 . S
C1933 C1932 1.404 . S
C1933 H1945 0.930 . S
C1934 C1930 1.524 . S
C1934 H1946 0.956 . S
C1934 H1947 0.961 . S
C1934 H1948 0.961 . S
C1935 C1932 1.539 . S
C1935 H1949 0.958 . S
C1935 H1950 0.961 . S
C1935 H1951 0.960 . S
H1936 C1920 0.931 . S
H1937 C1925 0.929 . S
H1938 C1926 0.960 . S
H1939 C1926 0.962 . S
H1940 C1926 0.960 . S
H1941 C1927 0.961 . S
H1942 C1927 0.961 . S
H1943 C1927 0.961 . S
H1944 C1928 0.931 . S
H1945 C1933 0.930 . S
H1946 C1934 0.956 . S
H1947 C1934 0.961 . S
H1948 C1934 0.961 . S
H1949 C1935 0.958 . S
H1950 C1935 0.961 . S
H1951 C1935 0.960 . S
C1952 C1953 1.391 . S
C1952 C1954 1.394 . S
C1952 H1968 0.931 . S
C1953 C1952 1.391 . S
C1953 C1957 1.376 . S
C1954 C1952 1.394 . S
C1954 C1955 1.369 . S
C1954 C1958 1.531 . S
C1955 C1954 1.369 . S
C1955 C1956 1.410 . S
C1955 C1963 1.503 . S
C1956 C1955 1.410 . S
C1956 C1957 1.390 . S
C1956 C1959 1.511 . S
C1957 C1953 1.376 . S
C1957 C1956 1.390 . S
C1957 H1969 0.931 1_545 S
C1958 C1954 1.531 . S
C1958 H1970 0.960 . S
C1958 H1971 0.962 . S
C1958 H1972 0.960 . S
C1959 C1956 1.511 . S
C1959 H1973 0.961 1_545 S
C1959 H1974 0.961 . S
C1959 H1975 0.961 . S
C1960 C1961 1.370 . S
C1960 C1962 1.363 . S
C1960 H1976 0.931 . S
C1961 C1960 1.370 . S
C1961 C1965 1.408 . S
C1962 C1960 1.363 . S
C1962 C1963 1.370 . S
C1962 C1966 1.524 . S
C1963 C1955 1.503 . S
C1963 C1962 1.370 . S
C1963 C1964 1.403 . S
C1964 C1963 1.403 . S
C1964 C1965 1.404 . S
C1964 C1967 1.539 . S
C1965 C1961 1.408 . S
C1965 C1964 1.404 . S
C1965 H1977 0.930 . S
C1966 C1962 1.524 . S
C1966 H1978 0.956 . S
C1966 H1979 0.961 . S
C1966 H1980 0.961 . S
C1967 C1964 1.539 . S
C1967 H1981 0.958 . S
C1967 H1982 0.961 . S
C1967 H1983 0.960 . S
H1968 C1952 0.931 . S
H1969 C1957 0.931 1_565 S
H1970 C1958 0.960 . S
H1971 C1958 0.962 . S
H1972 C1958 0.960 . S
H1973 C1959 0.961 1_565 S
H1974 C1959 0.961 . S
H1975 C1959 0.961 . S
H1976 C1960 0.931 . S
H1977 C1965 0.930 . S
H1978 C1966 0.956 . S
H1979 C1966 0.961 . S
H1980 C1966 0.961 . S
H1981 C1967 0.958 . S
H1982 C1967 0.961 . S
H1983 C1967 0.960 . S
C1984 C1985 1.391 . S
C1984 C1986 1.394 . S
C1984 H2000 0.931 . S
C1985 C1984 1.391 . S
C1985 C1989 1.376 . S
C1986 C1984 1.394 . S
C1986 C1987 1.369 . S
C1986 C1990 1.531 . S
C1987 C1986 1.369 . S
C1987 C1988 1.410 . S
C1987 C1995 1.503 . S
C1988 C1987 1.410 . S
C1988 C1989 1.392 . S
C1988 C1991 1.511 . S
C1989 C1985 1.376 . S
C1989 C1988 1.392 . S
C1989 H2001 0.929 . S
C1990 C1986 1.531 . S
C1990 H2002 0.960 . S
C1990 H2003 0.962 . S
C1990 H2004 0.960 . S
C1991 C1988 1.511 . S
C1991 H2005 0.961 . S
C1991 H2006 0.961 . S
C1991 H2007 0.961 . S
C1992 C1993 1.370 . S
C1992 C1994 1.363 . S
C1992 H2008 0.931 . S
C1993 C1992 1.370 . S
C1993 C1997 1.408 . S
C1994 C1992 1.363 . S
C1994 C1995 1.370 . S
C1994 C1998 1.524 . S
C1995 C1987 1.503 . S
C1995 C1994 1.370 . S
C1995 C1996 1.403 . S
C1996 C1995 1.403 . S
C1996 C1997 1.404 . S
C1996 C1999 1.539 . S
C1997 C1993 1.408 . S
C1997 C1996 1.404 . S
C1997 H2009 0.930 . S
C1998 C1994 1.524 . S
C1998 H2010 0.956 . S
C1998 H2011 0.961 . S
C1998 H2012 0.961 . S
C1999 C1996 1.539 . S
C1999 H2013 0.958 . S
C1999 H2014 0.961 . S
C1999 H2015 0.960 . S
H2000 C1984 0.931 . S
H2001 C1989 0.929 . S
H2002 C1990 0.960 . S
H2003 C1990 0.962 . S
H2004 C1990 0.960 . S
H2005 C1991 0.961 . S
H2006 C1991 0.961 . S
H2007 C1991 0.961 . S
H2008 C1992 0.931 . S
H2009 C1997 0.930 . S
H2010 C1998 0.956 . S
H2011 C1998 0.961 . S
H2012 C1998 0.961 . S
H2013 C1999 0.958 . S
H2014 C1999 0.961 . S
H2015 C1999 0.960 . S
C2016 C2017 1.391 . S
C2016 C2018 1.394 . S
C2016 H2032 0.931 . S
C2017 C2016 1.391 . S
C2017 C2021 1.376 . S
C2018 C2016 1.394 . S
C2018 C2019 1.369 . S
C2018 C2022 1.531 . S
C2019 C2018 1.369 . S
C2019 C2020 1.410 . S
C2019 C2027 1.503 . S
C2020 C2019 1.410 . S
C2020 C2021 1.392 . S
C2020 C2023 1.511 . S
C2021 C2017 1.376 . S
C2021 C2020 1.392 . S
C2021 H2033 0.929 . S
C2022 C2018 1.531 . S
C2022 H2034 0.960 . S
C2022 H2035 0.962 . S
C2022 H2036 0.960 . S
C2023 C2020 1.511 . S
C2023 H2037 0.961 . S
C2023 H2038 0.961 . S
C2023 H2039 0.961 . S
C2024 C2025 1.370 . S
C2024 C2026 1.363 . S
C2024 H2040 0.931 . S
C2025 C2024 1.370 . S
C2025 C2029 1.408 . S
C2026 C2024 1.363 . S
C2026 C2027 1.370 . S
C2026 C2030 1.524 . S
C2027 C2019 1.503 . S
C2027 C2026 1.370 . S
C2027 C2028 1.403 . S
C2028 C2027 1.403 . S
C2028 C2029 1.404 . S
C2028 C2031 1.539 . S
C2029 C2025 1.408 . S
C2029 C2028 1.404 . S
C2029 H2041 0.930 . S
C2030 C2026 1.524 . S
C2030 H2042 0.956 . S
C2030 H2043 0.961 . S
C2030 H2044 0.961 . S
C2031 C2028 1.539 . S
C2031 H2045 0.958 . S
C2031 H2046 0.961 . S
C2031 H2047 0.960 . S
H2032 C2016 0.931 . S
H2033 C2021 0.929 . S
H2034 C2022 0.960 . S
H2035 C2022 0.962 . S
H2036 C2022 0.960 . S
H2037 C2023 0.961 . S
H2038 C2023 0.961 . S
H2039 C2023 0.961 . S
H2040 C2024 0.931 . S
H2041 C2029 0.930 . S
H2042 C2030 0.956 . S
H2043 C2030 0.961 . S
H2044 C2030 0.961 . S
H2045 C2031 0.958 . S
H2046 C2031 0.961 . S
H2047 C2031 0.960 . S
C2048 C2049 1.391 . S
C2048 C2050 1.394 . S
C2048 H2064 0.936 . S
C2049 C2048 1.391 . S
C2049 C2053 1.376 . S
C2050 C2048 1.394 . S
C2050 C2051 1.369 . S
C2050 C2054 1.531 1_554 S
C2051 C2050 1.369 . S
C2051 C2052 1.410 . S
C2051 C2059 1.503 . S
C2052 C2051 1.410 . S
C2052 C2053 1.392 . S
C2052 C2055 1.511 . S
C2053 C2049 1.376 . S
C2053 C2052 1.392 . S
C2053 H2065 0.929 . S
C2054 C2050 1.531 1_556 S
C2054 H2066 0.960 . S
C2054 H2067 0.962 1_556 S
C2054 H2068 0.960 . S
C2055 C2052 1.511 . S
C2055 H2069 0.961 . S
C2055 H2070 0.961 . S
C2055 H2071 0.961 . S
C2056 C2057 1.370 . S
C2056 C2058 1.363 . S
C2056 H2072 0.931 . S
C2057 C2056 1.370 . S
C2057 C2061 1.408 . S
C2058 C2056 1.363 . S
C2058 C2059 1.370 . S
C2058 C2062 1.524 . S
C2059 C2051 1.503 . S
C2059 C2058 1.370 . S
C2059 C2060 1.369 1_554 S
C2060 C2059 1.369 1_556 S
C2060 C2061 1.391 1_556 S
C2060 C2063 1.586 . S
C2061 C2057 1.408 . S
C2061 C2060 1.391 1_554 S
C2061 H2073 0.930 1_554 S
C2062 C2058 1.524 . S
C2062 H2074 0.956 . S
C2062 H2075 0.961 . S
C2062 H2076 0.961 . S
C2063 C2060 1.586 . S
C2063 H2077 0.958 . S
C2063 H2078 0.961 . S
C2063 H2079 0.960 . S
H2064 C2048 0.936 . S
H2065 C2053 0.929 . S
H2066 C2054 0.960 . S
H2067 C2054 0.962 1_554 S
H2068 C2054 0.960 . S
H2069 C2055 0.961 . S
H2070 C2055 0.961 . S
H2071 C2055 0.961 . S
H2072 C2056 0.931 . S
H2073 C2061 0.930 1_556 S
H2074 C2062 0.956 . S
H2075 C2062 0.961 . S
H2076 C2062 0.961 . S
H2077 C2063 0.958 . S
H2078 C2063 0.961 . S
H2079 C2063 0.960 . S
C2080 C2081 1.391 . S
C2080 C2082 1.394 . S
C2080 H2096 0.931 . S
C2081 C2080 1.391 . S
C2081 C2085 1.376 . S
C2082 C2080 1.394 . S
C2082 C2083 1.369 . S
C2082 C2086 1.531 . S
C2083 C2082 1.369 . S
C2083 C2084 1.410 . S
C2083 C2091 1.503 . S
C2084 C2083 1.410 . S
C2084 C2085 1.392 . S
C2084 C2087 1.511 . S
C2085 C2081 1.376 . S
C2085 C2084 1.392 . S
C2085 H2097 0.929 . S
C2086 C2082 1.531 . S
C2086 H2098 0.960 . S
C2086 H2099 0.962 . S
C2086 H2100 0.960 . S
C2087 C2084 1.511 . S
C2087 H2101 0.961 . S
C2087 H2102 0.961 . S
C2087 H2103 0.961 . S
C2088 C2089 1.370 . S
C2088 C2090 1.363 . S
C2088 H2104 0.931 . S
C2089 C2088 1.370 . S
C2089 C2093 1.408 . S
C2090 C2088 1.363 . S
C2090 C2091 1.370 . S
C2090 C2094 1.524 . S
C2091 C2083 1.503 . S
C2091 C2090 1.370 . S
C2091 C2092 1.403 . S
C2092 C2091 1.403 . S
C2092 C2093 1.404 . S
C2092 C2095 1.539 . S
C2093 C2089 1.408 . S
C2093 C2092 1.404 . S
C2093 H2105 0.930 . S
C2094 C2090 1.524 . S
C2094 H2106 0.956 . S
C2094 H2107 0.961 . S
C2094 H2108 0.961 . S
C2095 C2092 1.539 . S
C2095 H2109 0.958 . S
C2095 H2110 0.961 . S
C2095 H2111 0.960 . S
H2096 C2080 0.931 . S
H2097 C2085 0.929 . S
H2098 C2086 0.960 . S
H2099 C2086 0.962 . S
H2100 C2086 0.960 . S
H2101 C2087 0.961 . S
H2102 C2087 0.961 . S
H2103 C2087 0.961 . S
H2104 C2088 0.931 . S
H2105 C2093 0.930 . S
H2106 C2094 0.956 . S
H2107 C2094 0.961 . S
H2108 C2094 0.961 . S
H2109 C2095 0.958 . S
H2110 C2095 0.961 . S
H2111 C2095 0.960 . S
C2112 C2113 1.391 . S
C2112 C2114 1.394 . S
C2112 H2128 0.931 . S
C2113 C2112 1.391 . S
C2113 C2117 1.376 . S
C2114 C2112 1.394 . S
C2114 C2115 1.369 . S
C2114 C2118 1.531 . S
C2115 C2114 1.369 . S
C2115 C2116 1.410 . S
C2115 C2123 1.503 . S
C2116 C2115 1.410 . S
C2116 C2117 1.392 . S
C2116 C2119 1.511 . S
C2117 C2113 1.376 . S
C2117 C2116 1.392 . S
C2117 H2129 0.929 . S
C2118 C2114 1.531 . S
C2118 H2130 0.960 . S
C2118 H2131 0.962 . S
C2118 H2132 0.960 . S
C2119 C2116 1.511 . S
C2119 H2133 0.961 . S
C2119 H2134 0.961 . S
C2119 H2135 0.961 . S
C2120 C2121 1.370 . S
C2120 C2122 1.363 . S
C2120 H2136 0.931 . S
C2121 C2120 1.370 . S
C2121 C2125 1.408 . S
C2122 C2120 1.363 . S
C2122 C2123 1.370 . S
C2122 C2126 1.524 . S
C2123 C2115 1.503 . S
C2123 C2122 1.370 . S
C2123 C2124 1.403 . S
C2124 C2123 1.403 . S
C2124 C2125 1.404 . S
C2124 C2127 1.539 . S
C2125 C2121 1.408 . S
C2125 C2124 1.404 . S
C2125 H2137 0.930 . S
C2126 C2122 1.524 . S
C2126 H2138 0.956 . S
C2126 H2139 0.961 . S
C2126 H2140 0.961 . S
C2127 C2124 1.539 . S
C2127 H2141 0.958 . S
C2127 H2142 0.961 . S
C2127 H2143 0.960 . S
H2128 C2112 0.931 . S
H2129 C2117 0.929 . S
H2130 C2118 0.960 . S
H2131 C2118 0.962 . S
H2132 C2118 0.960 . S
H2133 C2119 0.961 . S
H2134 C2119 0.961 . S
H2135 C2119 0.961 . S
H2136 C2120 0.931 . S
H2137 C2125 0.930 . S
H2138 C2126 0.956 . S
H2139 C2126 0.961 . S
H2140 C2126 0.961 . S
H2141 C2127 0.958 . S
H2142 C2127 0.961 . S
H2143 C2127 0.960 . S
C2144 C2145 1.391 . S
C2144 C2146 1.394 . S
C2144 H2160 0.931 . S
C2145 C2144 1.391 . S
C2145 C2149 1.376 . S
C2146 C2144 1.394 . S
C2146 C2147 1.369 . S
C2146 C2150 1.531 . S
C2147 C2146 1.369 . S
C2147 C2148 1.410 . S
C2147 C2155 1.503 . S
C2148 C2147 1.410 . S
C2148 C2149 1.392 . S
C2148 C2151 1.511 . S
C2149 C2145 1.376 . S
C2149 C2148 1.392 . S
C2149 H2161 0.929 . S
C2150 C2146 1.531 . S
C2150 H2162 0.960 . S
C2150 H2163 0.962 . S
C2150 H2164 0.960 . S
C2151 C2148 1.511 . S
C2151 H2165 0.961 . S
C2151 H2166 0.961 . S
C2151 H2167 0.961 . S
C2152 C2153 1.370 . S
C2152 C2154 1.363 . S
C2152 H2168 0.931 . S
C2153 C2152 1.370 . S
C2153 C2157 1.408 . S
C2154 C2152 1.363 . S
C2154 C2155 1.370 . S
C2154 C2158 1.524 . S
C2155 C2147 1.503 . S
C2155 C2154 1.370 . S
C2155 C2156 1.403 . S
C2156 C2155 1.403 . S
C2156 C2157 1.404 . S
C2156 C2159 1.539 . S
C2157 C2153 1.408 . S
C2157 C2156 1.404 . S
C2157 H2169 0.930 . S
C2158 C2154 1.524 . S
C2158 H2170 0.956 . S
C2158 H2171 0.961 . S
C2158 H2172 0.961 . S
C2159 C2156 1.539 . S
C2159 H2173 0.958 . S
C2159 H2174 0.961 . S
C2159 H2175 0.960 . S
H2160 C2144 0.931 . S
H2161 C2149 0.929 . S
H2162 C2150 0.960 . S
H2163 C2150 0.962 . S
H2164 C2150 0.960 . S
H2165 C2151 0.961 . S
H2166 C2151 0.961 . S
H2167 C2151 0.961 . S
H2168 C2152 0.931 . S
H2169 C2157 0.930 . S
H2170 C2158 0.956 . S
H2171 C2158 0.961 . S
H2172 C2158 0.961 . S
H2173 C2159 0.958 . S
H2174 C2159 0.961 . S
H2175 C2159 0.960 . S
C2176 C2177 1.391 . S
C2176 C2178 1.394 . S
C2176 H2192 0.931 . S
C2177 C2176 1.391 . S
C2177 C2181 1.376 . S
C2178 C2176 1.394 . S
C2178 C2179 1.369 . S
C2178 C2182 1.531 . S
C2179 C2178 1.369 . S
C2179 C2180 1.410 . S
C2179 C2187 1.503 . S
C2180 C2179 1.410 . S
C2180 C2181 1.392 . S
C2180 C2183 1.511 . S
C2181 C2177 1.376 . S
C2181 C2180 1.392 . S
C2181 H2193 0.929 . S
C2182 C2178 1.531 . S
C2182 H2194 0.960 . S
C2182 H2195 0.962 . S
C2182 H2196 0.960 . S
C2183 C2180 1.511 . S
C2183 H2197 0.961 . S
C2183 H2198 0.961 . S
C2183 H2199 0.961 . S
C2184 C2185 1.370 . S
C2184 C2186 1.363 . S
C2184 H2200 0.931 . S
C2185 C2184 1.370 . S
C2185 C2189 1.408 . S
C2186 C2184 1.363 . S
C2186 C2187 1.370 . S
C2186 C2190 1.524 . S
C2187 C2179 1.503 . S
C2187 C2186 1.370 . S
C2187 C2188 1.403 . S
C2188 C2187 1.403 . S
C2188 C2189 1.404 . S
C2188 C2191 1.539 . S
C2189 C2185 1.408 . S
C2189 C2188 1.404 . S
C2189 H2201 0.930 . S
C2190 C2186 1.524 . S
C2190 H2202 0.956 . S
C2190 H2203 0.961 . S
C2190 H2204 0.961 . S
C2191 C2188 1.539 . S
C2191 H2205 0.958 . S
C2191 H2206 0.961 . S
C2191 H2207 0.960 . S
H2192 C2176 0.931 . S
H2193 C2181 0.929 . S
H2194 C2182 0.960 . S
H2195 C2182 0.962 . S
H2196 C2182 0.960 . S
H2197 C2183 0.961 . S
H2198 C2183 0.961 . S
H2199 C2183 0.961 . S
H2200 C2184 0.931 . S
H2201 C2189 0.930 . S
H2202 C2190 0.956 . S
H2203 C2190 0.961 . S
H2204 C2190 0.961 . S
H2205 C2191 0.958 . S
H2206 C2191 0.961 . S
H2207 C2191 0.960 . S
C2208 C2209 1.391 . S
C2208 C2210 1.394 . S
C2208 H2224 0.931 . S
C2209 C2208 1.391 . S
C2209 C2213 1.376 . S
C2210 C2208 1.394 . S
C2210 C2211 1.369 . S
C2210 C2214 1.531 . S
C2211 C2210 1.369 . S
C2211 C2212 1.410 . S
C2211 C2219 1.503 . S
C2212 C2211 1.410 . S
C2212 C2213 1.392 . S
C2212 C2215 1.511 . S
C2213 C2209 1.376 . S
C2213 C2212 1.392 . S
C2213 H2225 0.929 . S
C2214 C2210 1.531 . S
C2214 H2226 0.960 . S
C2214 H2227 0.962 . S
C2214 H2228 0.960 . S
C2215 C2212 1.511 . S
C2215 H2229 0.961 . S
C2215 H2230 0.961 . S
C2215 H2231 0.961 . S
C2216 C2217 1.370 . S
C2216 C2218 1.363 . S
C2216 H2232 0.931 . S
C2217 C2216 1.370 . S
C2217 C2221 1.408 . S
C2218 C2216 1.363 . S
C2218 C2219 1.370 . S
C2218 C2222 1.524 . S
C2219 C2211 1.503 . S
C2219 C2218 1.370 . S
C2219 C2220 1.403 . S
C2220 C2219 1.403 . S
C2220 C2221 1.404 . S
C2220 C2223 1.539 . S
C2221 C2217 1.408 . S
C2221 C2220 1.404 . S
C2221 H2233 0.930 . S
C2222 C2218 1.524 . S
C2222 H2234 0.956 . S
C2222 H2235 0.961 . S
C2222 H2236 0.961 . S
C2223 C2220 1.539 . S
C2223 H2237 0.958 . S
C2223 H2238 0.961 . S
C2223 H2239 0.960 . S
H2224 C2208 0.931 . S
H2225 C2213 0.929 . S
H2226 C2214 0.960 . S
H2227 C2214 0.962 . S
H2228 C2214 0.960 . S
H2229 C2215 0.961 . S
H2230 C2215 0.961 . S
H2231 C2215 0.961 . S
H2232 C2216 0.931 . S
H2233 C2221 0.930 . S
H2234 C2222 0.956 . S
H2235 C2222 0.961 . S
H2236 C2222 0.961 . S
H2237 C2223 0.958 . S
H2238 C2223 0.961 . S
H2239 C2223 0.960 . S
C2240 C2241 1.391 . S
C2240 C2242 1.394 . S
C2240 H2256 0.931 . S
C2241 C2240 1.391 . S
C2241 C2245 1.376 . S
C2242 C2240 1.394 . S
C2242 C2243 1.369 . S
C2242 C2246 1.531 . S
C2243 C2242 1.369 . S
C2243 C2244 1.410 . S
C2243 C2251 1.503 . S
C2244 C2243 1.410 . S
C2244 C2245 1.392 . S
C2244 C2247 1.511 . S
C2245 C2241 1.376 . S
C2245 C2244 1.392 . S
C2245 H2257 0.929 . S
C2246 C2242 1.531 . S
C2246 H2258 0.960 . S
C2246 H2259 0.962 . S
C2246 H2260 0.960 . S
C2247 C2244 1.511 . S
C2247 H2261 0.961 . S
C2247 H2262 0.961 . S
C2247 H2263 0.961 . S
C2248 C2249 1.370 . S
C2248 C2250 1.363 . S
C2248 H2264 0.931 . S
C2249 C2248 1.370 . S
C2249 C2253 1.408 . S
C2250 C2248 1.363 . S
C2250 C2251 1.370 . S
C2250 C2254 1.524 . S
C2251 C2243 1.503 . S
C2251 C2250 1.370 . S
C2251 C2252 1.403 . S
C2252 C2251 1.403 . S
C2252 C2253 1.404 . S
C2252 C2255 1.539 . S
C2253 C2249 1.408 . S
C2253 C2252 1.404 . S
C2253 H2265 0.930 . S
C2254 C2250 1.524 . S
C2254 H2266 0.956 . S
C2254 H2267 0.961 . S
C2254 H2268 0.961 . S
C2255 C2252 1.539 . S
C2255 H2269 0.958 . S
C2255 H2270 0.961 . S
C2255 H2271 0.960 . S
H2256 C2240 0.931 . S
H2257 C2245 0.929 . S
H2258 C2246 0.960 . S
H2259 C2246 0.962 . S
H2260 C2246 0.960 . S
H2261 C2247 0.961 . S
H2262 C2247 0.961 . S
H2263 C2247 0.961 . S
H2264 C2248 0.931 . S
H2265 C2253 0.930 . S
H2266 C2254 0.956 . S
H2267 C2254 0.961 . S
H2268 C2254 0.961 . S
H2269 C2255 0.958 . S
H2270 C2255 0.961 . S
H2271 C2255 0.960 . S
C2272 C2273 1.391 . S
C2272 C2274 1.394 . S
C2272 H2288 0.931 . S
C2273 C2272 1.391 . S
C2273 C2277 1.376 . S
C2274 C2272 1.394 . S
C2274 C2275 1.369 . S
C2274 C2278 1.531 . S
C2275 C2274 1.369 . S
C2275 C2276 1.410 . S
C2275 C2283 1.503 . S
C2276 C2275 1.410 . S
C2276 C2277 1.392 . S
C2276 C2279 1.511 . S
C2277 C2273 1.376 . S
C2277 C2276 1.392 . S
C2277 H2289 0.929 . S
C2278 C2274 1.531 . S
C2278 H2290 0.960 . S
C2278 H2291 0.962 . S
C2278 H2292 0.960 . S
C2279 C2276 1.511 . S
C2279 H2293 0.961 . S
C2279 H2294 0.961 . S
C2279 H2295 0.961 . S
C2280 C2281 1.370 . S
C2280 C2282 1.363 . S
C2280 H2296 0.931 . S
C2281 C2280 1.370 . S
C2281 C2285 1.408 . S
C2282 C2280 1.363 . S
C2282 C2283 1.370 . S
C2282 C2286 1.524 . S
C2283 C2275 1.503 . S
C2283 C2282 1.370 . S
C2283 C2284 1.403 . S
C2284 C2283 1.403 . S
C2284 C2285 1.404 . S
C2284 C2287 1.539 . S
C2285 C2281 1.408 . S
C2285 C2284 1.404 . S
C2285 H2297 0.930 . S
C2286 C2282 1.524 . S
C2286 H2298 0.956 . S
C2286 H2299 0.961 . S
C2286 H2300 0.961 . S
C2287 C2284 1.539 . S
C2287 H2301 0.958 . S
C2287 H2302 0.961 . S
C2287 H2303 0.960 . S
H2288 C2272 0.931 . S
H2289 C2277 0.929 . S
H2290 C2278 0.960 . S
H2291 C2278 0.962 . S
H2292 C2278 0.960 . S
H2293 C2279 0.961 . S
H2294 C2279 0.961 . S
H2295 C2279 0.961 . S
H2296 C2280 0.931 . S
H2297 C2285 0.930 . S
H2298 C2286 0.956 . S
H2299 C2286 0.961 . S
H2300 C2286 0.961 . S
H2301 C2287 0.958 . S
H2302 C2287 0.961 . S
H2303 C2287 0.960 . S
C2304 C2305 1.391 . S
C2304 C2306 1.394 . S
C2304 H2320 0.931 . S
C2305 C2304 1.391 . S
C2305 C2309 1.376 . S
C2306 C2304 1.394 . S
C2306 C2307 1.369 . S
C2306 C2310 1.531 . S
C2307 C2306 1.369 . S
C2307 C2308 1.410 . S
C2307 C2315 1.503 . S
C2308 C2307 1.410 . S
C2308 C2309 1.392 . S
C2308 C2311 1.511 . S
C2309 C2305 1.376 . S
C2309 C2308 1.392 . S
C2309 H2321 0.929 . S
C2310 C2306 1.531 . S
C2310 H2322 0.960 . S
C2310 H2323 0.962 . S
C2310 H2324 0.960 . S
C2311 C2308 1.511 . S
C2311 H2325 0.961 . S
C2311 H2326 0.961 . S
C2311 H2327 0.961 . S
C2312 C2313 1.370 . S
C2312 C2314 1.363 . S
C2312 H2328 0.931 . S
C2313 C2312 1.370 . S
C2313 C2317 1.408 . S
C2314 C2312 1.363 . S
C2314 C2315 1.370 . S
C2314 C2318 1.524 . S
C2315 C2307 1.503 . S
C2315 C2314 1.370 . S
C2315 C2316 1.403 . S
C2316 C2315 1.403 . S
C2316 C2317 1.404 . S
C2316 C2319 1.539 . S
C2317 C2313 1.408 . S
C2317 C2316 1.404 . S
C2317 H2329 0.930 . S
C2318 C2314 1.524 . S
C2318 H2330 0.956 . S
C2318 H2331 0.961 . S
C2318 H2332 0.961 . S
C2319 C2316 1.539 . S
C2319 H2333 0.958 . S
C2319 H2334 0.961 . S
C2319 H2335 0.960 . S
H2320 C2304 0.931 . S
H2321 C2309 0.929 . S
H2322 C2310 0.960 . S
H2323 C2310 0.962 . S
H2324 C2310 0.960 . S
H2325 C2311 0.961 . S
H2326 C2311 0.961 . S
H2327 C2311 0.961 . S
H2328 C2312 0.931 . S
H2329 C2317 0.930 . S
H2330 C2318 0.956 . S
H2331 C2318 0.961 . S
H2332 C2318 0.961 . S
H2333 C2319 0.958 . S
H2334 C2319 0.961 . S
H2335 C2319 0.960 . S
C2336 C2337 1.391 . S
C2336 C2338 1.394 . S
C2336 H2352 0.931 . S
C2337 C2336 1.391 . S
C2337 C2341 1.376 . S
C2338 C2336 1.394 . S
C2338 C2339 1.369 . S
C2338 C2342 1.531 . S
C2339 C2338 1.369 . S
C2339 C2340 1.410 . S
C2339 C2347 1.503 . S
C2340 C2339 1.410 . S
C2340 C2341 1.392 . S
C2340 C2343 1.511 . S
C2341 C2337 1.376 . S
C2341 C2340 1.392 . S
C2341 H2353 0.929 . S
C2342 C2338 1.531 . S
C2342 H2354 0.960 . S
C2342 H2355 0.962 . S
C2342 H2356 0.960 . S
C2343 C2340 1.511 . S
C2343 H2357 0.961 . S
C2343 H2358 0.961 . S
C2343 H2359 0.961 . S
C2344 C2345 1.370 . S
C2344 C2346 1.363 . S
C2344 H2360 0.931 . S
C2345 C2344 1.370 . S
C2345 C2349 1.408 . S
C2346 C2344 1.363 . S
C2346 C2347 1.370 . S
C2346 C2350 1.524 . S
C2347 C2339 1.503 . S
C2347 C2346 1.370 . S
C2347 C2348 1.403 . S
C2348 C2347 1.403 . S
C2348 C2349 1.404 . S
C2348 C2351 1.539 . S
C2349 C2345 1.408 . S
C2349 C2348 1.404 . S
C2349 H2361 0.930 . S
C2350 C2346 1.524 . S
C2350 H2362 0.956 . S
C2350 H2363 0.961 . S
C2350 H2364 0.961 . S
C2351 C2348 1.539 . S
C2351 H2365 0.958 . S
C2351 H2366 0.961 . S
C2351 H2367 0.960 . S
H2352 C2336 0.931 . S
H2353 C2341 0.929 . S
H2354 C2342 0.960 . S
H2355 C2342 0.962 . S
H2356 C2342 0.960 . S
H2357 C2343 0.961 . S
H2358 C2343 0.961 . S
H2359 C2343 0.961 . S
H2360 C2344 0.931 . S
H2361 C2349 0.930 . S
H2362 C2350 0.956 . S
H2363 C2350 0.961 . S
H2364 C2350 0.961 . S
H2365 C2351 0.958 . S
H2366 C2351 0.961 . S
H2367 C2351 0.960 . S
C2368 C2369 1.391 . S
C2368 C2370 1.394 . S
C2368 H2384 0.931 . S
C2369 C2368 1.391 . S
C2369 C2373 1.376 . S
C2370 C2368 1.394 . S
C2370 C2371 1.369 . S
C2370 C2374 1.531 . S
C2371 C2370 1.369 . S
C2371 C2372 1.410 . S
C2371 C2379 1.503 . S
C2372 C2371 1.410 . S
C2372 C2373 1.392 . S
C2372 C2375 1.511 . S
C2373 C2369 1.376 . S
C2373 C2372 1.392 . S
C2373 H2385 0.929 . S
C2374 C2370 1.531 . S
C2374 H2386 0.960 . S
C2374 H2387 0.962 . S
C2374 H2388 0.960 . S
C2375 C2372 1.511 . S
C2375 H2389 0.961 . S
C2375 H2390 0.961 . S
C2375 H2391 0.961 . S
C2376 C2377 1.370 . S
C2376 C2378 1.363 . S
C2376 H2392 0.931 . S
C2377 C2376 1.370 . S
C2377 C2381 1.408 . S
C2378 C2376 1.363 . S
C2378 C2379 1.370 . S
C2378 C2382 1.524 . S
C2379 C2371 1.503 . S
C2379 C2378 1.370 . S
C2379 C2380 1.403 . S
C2380 C2379 1.403 . S
C2380 C2381 1.404 . S
C2380 C2383 1.539 . S
C2381 C2377 1.408 . S
C2381 C2380 1.404 . S
C2381 H2393 0.930 . S
C2382 C2378 1.524 . S
C2382 H2394 0.956 . S
C2382 H2395 0.961 . S
C2382 H2396 0.961 . S
C2383 C2380 1.539 . S
C2383 H2397 0.958 . S
C2383 H2398 0.961 . S
C2383 H2399 0.960 . S
H2384 C2368 0.931 . S
H2385 C2373 0.929 . S
H2386 C2374 0.960 . S
H2387 C2374 0.962 . S
H2388 C2374 0.960 . S
H2389 C2375 0.961 . S
H2390 C2375 0.961 . S
H2391 C2375 0.961 . S
H2392 C2376 0.931 . S
H2393 C2381 0.930 . S
H2394 C2382 0.956 . S
H2395 C2382 0.961 . S
H2396 C2382 0.961 . S
H2397 C2383 0.958 . S
H2398 C2383 0.961 . S
H2399 C2383 0.960 . S
C2400 C2401 1.391 . S
C2400 C2402 1.394 . S
C2400 H2416 0.931 . S
C2401 C2400 1.391 . S
C2401 C2405 1.376 . S
C2402 C2400 1.394 . S
C2402 C2403 1.369 . S
C2402 C2406 1.531 . S
C2403 C2402 1.369 . S
C2403 C2404 1.410 . S
C2403 C2411 1.503 . S
C2404 C2403 1.410 . S
C2404 C2405 1.392 . S
C2404 C2407 1.511 . S
C2405 C2401 1.376 . S
C2405 C2404 1.392 . S
C2405 H2417 0.929 . S
C2406 C2402 1.531 . S
C2406 H2418 0.960 . S
C2406 H2419 0.962 . S
C2406 H2420 0.960 . S
C2407 C2404 1.511 . S
C2407 H2421 0.961 1_455 S
C2407 H2422 0.961 . S
C2407 H2423 0.961 1_455 S
C2408 C2409 1.370 . S
C2408 C2410 1.363 . S
C2408 H2424 0.931 . S
C2409 C2408 1.370 . S
C2409 C2413 1.408 . S
C2410 C2408 1.363 . S
C2410 C2411 1.370 . S
C2410 C2414 1.524 . S
C2411 C2403 1.503 . S
C2411 C2410 1.370 . S
C2411 C2412 1.403 . S
C2412 C2411 1.403 . S
C2412 C2413 1.404 . S
C2412 C2415 1.539 . S
C2413 C2409 1.408 . S
C2413 C2412 1.404 . S
C2413 H2425 0.930 . S
C2414 C2410 1.524 . S
C2414 H2426 0.956 . S
C2414 H2427 0.961 . S
C2414 H2428 0.961 . S
C2415 C2412 1.539 . S
C2415 H2429 0.958 . S
C2415 H2430 0.961 . S
C2415 H2431 0.960 . S
H2416 C2400 0.931 . S
H2417 C2405 0.929 . S
H2418 C2406 0.960 . S
H2419 C2406 0.962 . S
H2420 C2406 0.960 . S
H2421 C2407 0.961 1_655 S
H2422 C2407 0.961 . S
H2423 C2407 0.961 1_655 S
H2424 C2408 0.931 . S
H2425 C2413 0.930 . S
H2426 C2414 0.956 . S
H2427 C2414 0.961 . S
H2428 C2414 0.961 . S
H2429 C2415 0.958 . S
H2430 C2415 0.961 . S
H2431 C2415 0.960 . S
C2432 C2433 1.391 . S
C2432 C2434 1.394 . S
C2432 H2448 0.931 . S
C2433 C2432 1.391 . S
C2433 C2437 1.376 . S
C2434 C2432 1.394 . S
C2434 C2435 1.369 . S
C2434 C2438 1.531 . S
C2435 C2434 1.369 . S
C2435 C2436 1.410 . S
C2435 C2443 1.503 . S
C2436 C2435 1.410 . S
C2436 C2437 1.392 . S
C2436 C2439 1.511 . S
C2437 C2433 1.376 . S
C2437 C2436 1.392 . S
C2437 H2449 0.929 . S
C2438 C2434 1.531 . S
C2438 H2450 0.960 . S
C2438 H2451 0.962 . S
C2438 H2452 0.960 . S
C2439 C2436 1.511 . S
C2439 H2453 0.961 . S
C2439 H2454 0.961 . S
C2439 H2455 0.961 . S
C2440 C2441 1.370 . S
C2440 C2442 1.363 . S
C2440 H2456 0.931 . S
C2441 C2440 1.370 . S
C2441 C2445 1.408 . S
C2442 C2440 1.363 . S
C2442 C2443 1.370 . S
C2442 C2446 1.524 . S
C2443 C2435 1.503 . S
C2443 C2442 1.370 . S
C2443 C2444 1.403 . S
C2444 C2443 1.403 . S
C2444 C2445 1.404 . S
C2444 C2447 1.539 . S
C2445 C2441 1.408 . S
C2445 C2444 1.404 . S
C2445 H2457 0.930 . S
C2446 C2442 1.524 . S
C2446 H2458 0.956 . S
C2446 H2459 0.961 . S
C2446 H2460 0.961 . S
C2447 C2444 1.539 . S
C2447 H2461 0.958 . S
C2447 H2462 0.961 . S
C2447 H2463 0.960 . S
H2448 C2432 0.931 . S
H2449 C2437 0.929 . S
H2450 C2438 0.960 . S
H2451 C2438 0.962 . S
H2452 C2438 0.960 . S
H2453 C2439 0.961 . S
H2454 C2439 0.961 . S
H2455 C2439 0.961 . S
H2456 C2440 0.931 . S
H2457 C2445 0.930 . S
H2458 C2446 0.956 . S
H2459 C2446 0.961 . S
H2460 C2446 0.961 . S
H2461 C2447 0.958 . S
H2462 C2447 0.961 . S
H2463 C2447 0.960 . S
C2464 C2465 1.391 . S
C2464 C2466 1.394 . S
C2464 H2480 0.931 . S
C2465 C2464 1.391 . S
C2465 C2469 1.376 . S
C2466 C2464 1.394 . S
C2466 C2467 1.369 . S
C2466 C2470 1.531 . S
C2467 C2466 1.369 . S
C2467 C2468 1.410 . S
C2467 C2475 1.503 . S
C2468 C2467 1.410 . S
C2468 C2469 1.392 . S
C2468 C2471 1.511 . S
C2469 C2465 1.376 . S
C2469 C2468 1.392 . S
C2469 H2481 0.929 . S
C2470 C2466 1.531 . S
C2470 H2482 0.960 . S
C2470 H2483 0.962 . S
C2470 H2484 0.960 . S
C2471 C2468 1.511 . S
C2471 H2485 0.961 . S
C2471 H2486 0.961 . S
C2471 H2487 0.961 . S
C2472 C2473 1.370 . S
C2472 C2474 1.363 . S
C2472 H2488 0.931 1_556 S
C2473 C2472 1.370 . S
C2473 C2477 1.408 . S
C2474 C2472 1.363 . S
C2474 C2475 1.370 . S
C2474 C2478 1.524 . S
C2475 C2467 1.503 . S
C2475 C2474 1.370 . S
C2475 C2476 1.403 . S
C2476 C2475 1.403 . S
C2476 C2477 1.404 . S
C2476 C2479 1.539 . S
C2477 C2473 1.408 . S
C2477 C2476 1.404 . S
C2477 H2489 0.930 . S
C2478 C2474 1.524 . S
C2478 H2490 0.956 . S
C2478 H2491 0.961 . S
C2478 H2492 0.961 . S
C2479 C2476 1.539 . S
C2479 H2493 0.958 . S
C2479 H2494 0.961 . S
C2479 H2495 0.960 . S
H2480 C2464 0.931 . S
H2481 C2469 0.929 . S
H2482 C2470 0.960 . S
H2483 C2470 0.962 . S
H2484 C2470 0.960 . S
H2485 C2471 0.961 . S
H2486 C2471 0.961 . S
H2487 C2471 0.961 . S
H2488 C2472 0.931 1_554 S
H2489 C2477 0.930 . S
H2490 C2478 0.956 . S
H2491 C2478 0.961 . S
H2492 C2478 0.961 . S
H2493 C2479 0.958 . S
H2494 C2479 0.961 . S
H2495 C2479 0.960 . S
C2496 C2497 1.391 . S
C2496 C2498 1.394 . S
C2496 H2512 0.931 . S
C2497 C2496 1.391 . S
C2497 C2501 1.376 . S
C2498 C2496 1.394 . S
C2498 C2499 1.369 . S
C2498 C2502 1.531 . S
C2499 C2498 1.369 . S
C2499 C2500 1.410 . S
C2499 C2507 1.503 . S
C2500 C2499 1.410 . S
C2500 C2501 1.392 . S
C2500 C2503 1.511 . S
C2501 C2497 1.376 . S
C2501 C2500 1.392 . S
C2501 H2513 0.929 . S
C2502 C2498 1.531 . S
C2502 H2514 0.960 . S
C2502 H2515 0.962 . S
C2502 H2516 0.960 . S
C2503 C2500 1.511 . S
C2503 H2517 0.961 . S
C2503 H2518 0.961 . S
C2503 H2519 0.961 . S
C2504 C2505 1.370 . S
C2504 C2506 1.363 . S
C2504 H2520 0.931 . S
C2505 C2504 1.370 . S
C2505 C2509 1.408 . S
C2506 C2504 1.363 . S
C2506 C2507 1.370 . S
C2506 C2510 1.524 . S
C2507 C2499 1.503 . S
C2507 C2506 1.370 . S
C2507 C2508 1.403 . S
C2508 C2507 1.403 . S
C2508 C2509 1.404 . S
C2508 C2511 1.539 . S
C2509 C2505 1.408 . S
C2509 C2508 1.404 . S
C2509 H2521 0.930 . S
C2510 C2506 1.524 . S
C2510 H2522 0.956 . S
C2510 H2523 0.961 . S
C2510 H2524 0.961 . S
C2511 C2508 1.539 . S
C2511 H2525 0.958 . S
C2511 H2526 0.961 . S
C2511 H2527 0.960 . S
H2512 C2496 0.931 . S
H2513 C2501 0.929 . S
H2514 C2502 0.960 . S
H2515 C2502 0.962 . S
H2516 C2502 0.960 . S
H2517 C2503 0.961 . S
H2518 C2503 0.961 . S
H2519 C2503 0.961 . S
H2520 C2504 0.931 . S
H2521 C2509 0.930 . S
H2522 C2510 0.956 . S
H2523 C2510 0.961 . S
H2524 C2510 0.961 . S
H2525 C2511 0.958 . S
H2526 C2511 0.961 . S
H2527 C2511 0.960 . S
C2528 C2529 1.391 . S
C2528 C2530 1.394 . S
C2528 H2544 0.931 . S
C2529 C2528 1.391 . S
C2529 C2533 1.376 . S
C2530 C2528 1.394 . S
C2530 C2531 1.369 . S
C2530 C2534 1.531 . S
C2531 C2530 1.369 . S
C2531 C2532 1.410 . S
C2531 C2539 1.503 . S
C2532 C2531 1.410 . S
C2532 C2533 1.392 . S
C2532 C2535 1.511 . S
C2533 C2529 1.376 . S
C2533 C2532 1.392 . S
C2533 H2545 0.929 . S
C2534 C2530 1.531 . S
C2534 H2546 0.960 . S
C2534 H2547 0.962 . S
C2534 H2548 0.960 . S
C2535 C2532 1.511 . S
C2535 H2549 0.961 . S
C2535 H2550 0.961 . S
C2535 H2551 0.961 . S
C2536 C2537 1.370 . S
C2536 C2538 1.363 . S
C2536 H2552 0.931 . S
C2537 C2536 1.370 . S
C2537 C2541 1.408 . S
C2538 C2536 1.363 . S
C2538 C2539 1.370 . S
C2538 C2542 1.524 . S
C2539 C2531 1.503 . S
C2539 C2538 1.370 . S
C2539 C2540 1.403 . S
C2540 C2539 1.403 . S
C2540 C2541 1.404 . S
C2540 C2543 1.539 . S
C2541 C2537 1.408 . S
C2541 C2540 1.404 . S
C2541 H2553 0.930 . S
C2542 C2538 1.524 . S
C2542 H2554 0.956 . S
C2542 H2555 0.961 . S
C2542 H2556 0.961 1_545 S
C2543 C2540 1.539 . S
C2543 H2557 0.958 . S
C2543 H2558 0.961 . S
C2543 H2559 0.960 . S
H2544 C2528 0.931 . S
H2545 C2533 0.929 . S
H2546 C2534 0.960 . S
H2547 C2534 0.962 . S
H2548 C2534 0.960 . S
H2549 C2535 0.961 . S
H2550 C2535 0.961 . S
H2551 C2535 0.961 . S
H2552 C2536 0.931 . S
H2553 C2541 0.930 . S
H2554 C2542 0.956 . S
H2555 C2542 0.961 . S
H2556 C2542 0.961 1_565 S
H2557 C2543 0.958 . S
H2558 C2543 0.961 . S
H2559 C2543 0.960 . S
C2560 C2561 1.391 . S
C2560 C2562 1.394 . S
C2560 H2576 0.931 . S
C2561 C2560 1.391 . S
C2561 C2565 1.376 . S
C2562 C2560 1.394 . S
C2562 C2563 1.369 . S
C2562 C2566 1.531 . S
C2563 C2562 1.369 . S
C2563 C2564 1.410 . S
C2563 C2571 1.503 . S
C2564 C2563 1.410 . S
C2564 C2565 1.392 . S
C2564 C2567 1.511 . S
C2565 C2561 1.376 . S
C2565 C2564 1.392 . S
C2565 H2577 0.929 . S
C2566 C2562 1.531 . S
C2566 H2578 0.960 . S
C2566 H2579 0.962 . S
C2566 H2580 0.960 . S
C2567 C2564 1.511 . S
C2567 H2581 0.961 . S
C2567 H2582 0.961 . S
C2567 H2583 0.961 . S
C2568 C2569 1.370 . S
C2568 C2570 1.363 . S
C2568 H2584 0.931 . S
C2569 C2568 1.370 . S
C2569 C2573 1.408 . S
C2570 C2568 1.363 . S
C2570 C2571 1.370 . S
C2570 C2574 1.524 . S
C2571 C2563 1.503 . S
C2571 C2570 1.370 . S
C2571 C2572 1.403 . S
C2572 C2571 1.403 . S
C2572 C2573 1.404 . S
C2572 C2575 1.539 . S
C2573 C2569 1.408 . S
C2573 C2572 1.404 . S
C2573 H2585 0.930 . S
C2574 C2570 1.524 . S
C2574 H2586 0.956 . S
C2574 H2587 0.961 . S
C2574 H2588 0.961 . S
C2575 C2572 1.539 . S
C2575 H2589 0.958 . S
C2575 H2590 0.961 . S
C2575 H2591 0.960 . S
H2576 C2560 0.931 . S
H2577 C2565 0.929 . S
H2578 C2566 0.960 . S
H2579 C2566 0.962 . S
H2580 C2566 0.960 . S
H2581 C2567 0.961 . S
H2582 C2567 0.961 . S
H2583 C2567 0.961 . S
H2584 C2568 0.931 . S
H2585 C2573 0.930 . S
H2586 C2574 0.956 . S
H2587 C2574 0.961 . S
H2588 C2574 0.961 . S
H2589 C2575 0.958 . S
H2590 C2575 0.961 . S
H2591 C2575 0.960 . S
C2592 C2593 1.391 . S
C2592 C2594 1.394 . S
C2592 H2608 0.931 . S
C2593 C2592 1.391 . S
C2593 C2597 1.376 . S
C2594 C2592 1.394 . S
C2594 C2595 1.369 . S
C2594 C2598 1.531 . S
C2595 C2594 1.369 . S
C2595 C2596 1.410 . S
C2595 C2603 1.503 . S
C2596 C2595 1.410 . S
C2596 C2597 1.392 . S
C2596 C2599 1.511 . S
C2597 C2593 1.376 . S
C2597 C2596 1.392 . S
C2597 H2609 0.929 . S
C2598 C2594 1.531 . S
C2598 H2610 0.960 . S
C2598 H2611 0.962 . S
C2598 H2612 0.960 . S
C2599 C2596 1.511 . S
C2599 H2613 0.961 . S
C2599 H2614 0.961 . S
C2599 H2615 0.961 . S
C2600 C2601 1.370 . S
C2600 C2602 1.363 . S
C2600 H2616 0.931 . S
C2601 C2600 1.370 . S
C2601 C2605 1.408 . S
C2602 C2600 1.363 . S
C2602 C2603 1.370 . S
C2602 C2606 1.524 . S
C2603 C2595 1.503 . S
C2603 C2602 1.370 . S
C2603 C2604 1.403 . S
C2604 C2603 1.403 . S
C2604 C2605 1.404 . S
C2604 C2607 1.539 . S
C2605 C2601 1.408 . S
C2605 C2604 1.404 . S
C2605 H2617 0.930 . S
C2606 C2602 1.524 . S
C2606 H2618 0.956 . S
C2606 H2619 0.961 . S
C2606 H2620 0.961 . S
C2607 C2604 1.539 . S
C2607 H2621 0.958 . S
C2607 H2622 0.961 . S
C2607 H2623 0.960 . S
H2608 C2592 0.931 . S
H2609 C2597 0.929 . S
H2610 C2598 0.960 . S
H2611 C2598 0.962 . S
H2612 C2598 0.960 . S
H2613 C2599 0.961 . S
H2614 C2599 0.961 . S
H2615 C2599 0.961 . S
H2616 C2600 0.931 . S
H2617 C2605 0.930 . S
H2618 C2606 0.956 . S
H2619 C2606 0.961 . S
H2620 C2606 0.961 . S
H2621 C2607 0.958 . S
H2622 C2607 0.961 . S
H2623 C2607 0.960 . S
C2624 C2625 1.391 . S
C2624 C2626 1.394 . S
C2624 H2640 0.931 . S
C2625 C2624 1.391 . S
C2625 C2629 1.376 . S
C2626 C2624 1.394 . S
C2626 C2627 1.369 . S
C2626 C2630 1.531 . S
C2627 C2626 1.369 . S
C2627 C2628 1.410 . S
C2627 C2635 1.503 . S
C2628 C2627 1.410 . S
C2628 C2629 1.392 . S
C2628 C2631 1.511 . S
C2629 C2625 1.376 . S
C2629 C2628 1.392 . S
C2629 H2641 0.929 . S
C2630 C2626 1.531 . S
C2630 H2642 0.960 . S
C2630 H2643 0.962 . S
C2630 H2644 0.960 . S
C2631 C2628 1.511 . S
C2631 H2645 0.961 . S
C2631 H2646 0.961 . S
C2631 H2647 0.961 . S
C2632 C2633 1.370 . S
C2632 C2634 1.363 . S
C2632 H2648 0.931 . S
C2633 C2632 1.370 . S
C2633 C2637 1.408 . S
C2634 C2632 1.363 . S
C2634 C2635 1.370 . S
C2634 C2638 1.524 . S
C2635 C2627 1.503 . S
C2635 C2634 1.370 . S
C2635 C2636 1.403 . S
C2636 C2635 1.403 . S
C2636 C2637 1.404 . S
C2636 C2639 1.539 . S
C2637 C2633 1.408 . S
C2637 C2636 1.404 . S
C2637 H2649 0.930 . S
C2638 C2634 1.524 . S
C2638 H2650 0.956 . S
C2638 H2651 0.961 . S
C2638 H2652 0.961 . S
C2639 C2636 1.539 . S
C2639 H2653 0.958 . S
C2639 H2654 0.961 . S
C2639 H2655 0.960 . S
H2640 C2624 0.931 . S
H2641 C2629 0.929 . S
H2642 C2630 0.960 . S
H2643 C2630 0.962 . S
H2644 C2630 0.960 . S
H2645 C2631 0.961 . S
H2646 C2631 0.961 . S
H2647 C2631 0.961 . S
H2648 C2632 0.931 . S
H2649 C2637 0.930 . S
H2650 C2638 0.956 . S
H2651 C2638 0.961 . S
H2652 C2638 0.961 . S
H2653 C2639 0.958 . S
H2654 C2639 0.961 . S
H2655 C2639 0.960 . S
C2656 C2657 1.391 . S
C2656 C2658 1.394 . S
C2656 H2672 0.931 . S
C2657 C2656 1.391 . S
C2657 C2661 1.376 . S
C2658 C2656 1.394 . S
C2658 C2659 1.369 . S
C2658 C2662 1.531 . S
C2659 C2658 1.369 . S
C2659 C2660 1.410 . S
C2659 C2667 1.503 . S
C2660 C2659 1.410 . S
C2660 C2661 1.392 . S
C2660 C2663 1.511 . S
C2661 C2657 1.376 . S
C2661 C2660 1.392 . S
C2661 H2673 0.929 . S
C2662 C2658 1.531 . S
C2662 H2674 0.960 . S
C2662 H2675 0.962 . S
C2662 H2676 0.960 . S
C2663 C2660 1.511 . S
C2663 H2677 0.961 . S
C2663 H2678 0.961 . S
C2663 H2679 0.961 . S
C2664 C2665 1.370 . S
C2664 C2666 1.363 . S
C2664 H2680 0.931 . S
C2665 C2664 1.370 . S
C2665 C2669 1.408 . S
C2666 C2664 1.363 . S
C2666 C2667 1.370 . S
C2666 C2670 1.524 . S
C2667 C2659 1.503 . S
C2667 C2666 1.370 . S
C2667 C2668 1.403 . S
C2668 C2667 1.403 . S
C2668 C2669 1.404 . S
C2668 C2671 1.539 . S
C2669 C2665 1.408 . S
C2669 C2668 1.404 . S
C2669 H2681 0.930 . S
C2670 C2666 1.524 . S
C2670 H2682 0.956 . S
C2670 H2683 0.961 . S
C2670 H2684 0.961 . S
C2671 C2668 1.539 . S
C2671 H2685 0.969 . S
C2671 H2686 0.961 1_545 S
C2671 H2687 0.960 . S
H2672 C2656 0.931 . S
H2673 C2661 0.929 . S
H2674 C2662 0.960 . S
H2675 C2662 0.962 . S
H2676 C2662 0.960 . S
H2677 C2663 0.961 . S
H2678 C2663 0.961 . S
H2679 C2663 0.961 . S
H2680 C2664 0.931 . S
H2681 C2669 0.930 . S
H2682 C2670 0.956 . S
H2683 C2670 0.961 . S
H2684 C2670 0.961 . S
H2685 C2671 0.969 . S
H2686 C2671 0.961 1_565 S
H2687 C2671 0.960 . S
C2688 C2689 1.391 . S
C2688 C2690 1.394 . S
C2688 H2704 0.931 . S
C2689 C2688 1.391 . S
C2689 C2693 1.376 . S
C2690 C2688 1.394 . S
C2690 C2691 1.369 . S
C2690 C2694 1.531 . S
C2691 C2690 1.369 . S
C2691 C2692 1.410 . S
C2691 C2699 1.503 . S
C2692 C2691 1.410 . S
C2692 C2693 1.392 . S
C2692 C2695 1.511 . S
C2693 C2689 1.376 . S
C2693 C2692 1.392 . S
C2693 H2705 0.929 . S
C2694 C2690 1.531 . S
C2694 H2706 0.960 . S
C2694 H2707 0.962 . S
C2694 H2708 0.960 . S
C2695 C2692 1.511 . S
C2695 H2709 0.961 . S
C2695 H2710 0.961 . S
C2695 H2711 0.961 . S
C2696 C2697 1.370 . S
C2696 C2698 1.363 . S
C2696 H2712 0.931 . S
C2697 C2696 1.370 . S
C2697 C2701 1.408 . S
C2698 C2696 1.363 . S
C2698 C2699 1.370 . S
C2698 C2702 1.524 . S
C2699 C2691 1.503 . S
C2699 C2698 1.370 . S
C2699 C2700 1.403 . S
C2700 C2699 1.403 . S
C2700 C2701 1.404 . S
C2700 C2703 1.539 . S
C2701 C2697 1.408 . S
C2701 C2700 1.404 . S
C2701 H2713 0.930 . S
C2702 C2698 1.524 . S
C2702 H2714 0.956 . S
C2702 H2715 0.961 . S
C2702 H2716 0.961 . S
C2703 C2700 1.539 . S
C2703 H2717 0.958 . S
C2703 H2718 0.961 . S
C2703 H2719 0.960 . S
H2704 C2688 0.931 . S
H2705 C2693 0.929 . S
H2706 C2694 0.960 . S
H2707 C2694 0.962 . S
H2708 C2694 0.960 . S
H2709 C2695 0.961 . S
H2710 C2695 0.961 . S
H2711 C2695 0.961 . S
H2712 C2696 0.931 . S
H2713 C2701 0.930 . S
H2714 C2702 0.956 . S
H2715 C2702 0.961 . S
H2716 C2702 0.961 . S
H2717 C2703 0.958 . S
H2718 C2703 0.961 . S
H2719 C2703 0.960 . S
C2720 C2721 1.391 . S
C2720 C2722 1.394 . S
C2720 H2736 0.931 . S
C2721 C2720 1.391 . S
C2721 C2725 1.376 . S
C2722 C2720 1.394 . S
C2722 C2723 1.369 . S
C2722 C2726 1.531 . S
C2723 C2722 1.369 . S
C2723 C2724 1.410 . S
C2723 C2731 1.503 . S
C2724 C2723 1.410 . S
C2724 C2725 1.392 . S
C2724 C2727 1.511 . S
C2725 C2721 1.376 . S
C2725 C2724 1.392 . S
C2725 H2737 0.929 . S
C2726 C2722 1.531 . S
C2726 H2738 0.960 . S
C2726 H2739 0.962 . S
C2726 H2740 0.960 . S
C2727 C2724 1.511 . S
C2727 H2741 0.961 . S
C2727 H2742 0.961 . S
C2727 H2743 0.961 . S
C2728 C2729 1.370 1_565 S
C2728 C2730 1.363 1_565 S
C2728 H2744 0.931 . S
C2729 C2728 1.370 1_545 S
C2729 C2733 1.408 . S
C2730 C2728 1.363 1_545 S
C2730 C2731 1.370 . S
C2730 C2734 1.540 . S
C2731 C2723 1.503 . S
C2731 C2730 1.370 . S
C2731 C2732 1.403 . S
C2732 C2731 1.403 . S
C2732 C2733 1.404 . S
C2732 C2735 1.539 . S
C2733 C2729 1.408 . S
C2733 C2732 1.404 . S
C2733 H2745 0.930 . S
C2734 C2730 1.540 . S
C2734 H2746 0.979 . S
C2734 H2747 0.963 . S
C2734 H2748 0.921 1_545 S
C2735 C2732 1.539 . S
C2735 H2749 0.958 . S
C2735 H2750 0.961 . S
C2735 H2751 0.960 . S
H2736 C2720 0.931 . S
H2737 C2725 0.929 . S
H2738 C2726 0.960 . S
H2739 C2726 0.962 . S
H2740 C2726 0.960 . S
H2741 C2727 0.961 . S
H2742 C2727 0.961 . S
H2743 C2727 0.961 . S
H2744 C2728 0.931 . S
H2745 C2733 0.930 . S
H2746 C2734 0.979 . S
H2747 C2734 0.963 . S
H2748 C2734 0.921 1_565 S
H2749 C2735 0.958 . S
H2750 C2735 0.961 . S
H2751 C2735 0.960 . S
C2752 C2753 1.391 . S
C2752 C2754 1.394 . S
C2752 H2768 0.931 . S
C2753 C2752 1.391 . S
C2753 C2757 1.376 . S
C2754 C2752 1.394 . S
C2754 C2755 1.369 . S
C2754 C2758 1.531 . S
C2755 C2754 1.369 . S
C2755 C2756 1.410 . S
C2755 C2763 1.503 . S
C2756 C2755 1.410 . S
C2756 C2757 1.392 . S
C2756 C2759 1.511 . S
C2757 C2753 1.376 . S
C2757 C2756 1.392 . S
C2757 H2769 0.929 . S
C2758 C2754 1.531 . S
C2758 H2770 0.960 . S
C2758 H2771 0.962 . S
C2758 H2772 0.960 . S
C2759 C2756 1.511 . S
C2759 H2773 0.961 . S
C2759 H2774 0.961 . S
C2759 H2775 0.961 . S
C2760 C2761 1.370 . S
C2760 C2762 1.363 . S
C2760 H2776 0.931 . S
C2761 C2760 1.370 . S
C2761 C2765 1.408 . S
C2762 C2760 1.363 . S
C2762 C2763 1.370 . S
C2762 C2766 1.524 . S
C2763 C2755 1.503 . S
C2763 C2762 1.370 . S
C2763 C2764 1.403 . S
C2764 C2763 1.403 . S
C2764 C2765 1.404 . S
C2764 C2767 1.539 . S
C2765 C2761 1.408 . S
C2765 C2764 1.404 . S
C2765 H2777 0.930 . S
C2766 C2762 1.524 . S
C2766 H2778 0.956 . S
C2766 H2779 0.961 . S
C2766 H2780 0.961 . S
C2767 C2764 1.539 . S
C2767 H2781 0.958 . S
C2767 H2782 0.961 . S
C2767 H2783 0.960 . S
H2768 C2752 0.931 . S
H2769 C2757 0.929 . S
H2770 C2758 0.960 . S
H2771 C2758 0.962 . S
H2772 C2758 0.960 . S
H2773 C2759 0.961 . S
H2774 C2759 0.961 . S
H2775 C2759 0.961 . S
H2776 C2760 0.931 . S
H2777 C2765 0.930 . S
H2778 C2766 0.956 . S
H2779 C2766 0.961 . S
H2780 C2766 0.961 . S
H2781 C2767 0.958 . S
H2782 C2767 0.961 . S
H2783 C2767 0.960 . S
C2784 C2785 1.391 1_554 S
C2784 C2786 1.394 . S
C2784 H2800 0.931 . S
C2785 C2784 1.391 1_556 S
C2785 C2789 1.376 . S
C2786 C2784 1.394 . S
C2786 C2787 1.369 1_554 S
C2786 C2790 1.531 . S
C2787 C2786 1.369 1_556 S
C2787 C2788 1.410 . S
C2787 C2795 1.503 . S
C2788 C2787 1.410 . S
C2788 C2789 1.392 . S
C2788 C2791 1.511 . S
C2789 C2785 1.376 . S
C2789 C2788 1.392 . S
C2789 H2801 0.929 . S
C2790 C2786 1.531 . S
C2790 H2802 0.960 . S
C2790 H2803 0.962 . S
C2790 H2804 0.960 . S
C2791 C2788 1.511 . S
C2791 H2805 0.961 . S
C2791 H2806 0.961 . S
C2791 H2807 0.961 . S
C2792 C2793 1.370 . S
C2792 C2794 1.363 . S
C2792 H2808 0.931 . S
C2793 C2792 1.370 . S
C2793 C2797 1.408 . S
C2794 C2792 1.363 . S
C2794 C2795 1.370 . S
C2794 C2798 1.524 . S
C2795 C2787 1.503 . S
C2795 C2794 1.370 . S
C2795 C2796 1.403 . S
C2796 C2795 1.403 . S
C2796 C2797 1.404 . S
C2796 C2799 1.539 1_556 S
C2797 C2793 1.408 . S
C2797 C2796 1.404 . S
C2797 H2809 0.930 . S
C2798 C2794 1.524 . S
C2798 H2810 0.956 . S
C2798 H2811 0.961 . S
C2798 H2812 0.961 . S
C2799 C2796 1.539 1_554 S
C2799 H2813 0.958 . S
C2799 H2814 0.961 . S
C2799 H2815 0.960 . S
H2800 C2784 0.931 . S
H2801 C2789 0.929 . S
H2802 C2790 0.960 . S
H2803 C2790 0.962 . S
H2804 C2790 0.960 . S
H2805 C2791 0.961 . S
H2806 C2791 0.961 . S
H2807 C2791 0.961 . S
H2808 C2792 0.931 . S
H2809 C2797 0.930 . S
H2810 C2798 0.956 . S
H2811 C2798 0.961 . S
H2812 C2798 0.961 . S
H2813 C2799 0.958 . S
H2814 C2799 0.961 . S
H2815 C2799 0.960 . S
C2816 C2817 1.391 . S
C2816 C2818 1.394 . S
C2816 H2832 0.931 . S
C2817 C2816 1.391 . S
C2817 C2821 1.376 . S
C2818 C2816 1.394 . S
C2818 C2819 1.369 . S
C2818 C2822 1.531 1_554 S
C2819 C2818 1.369 . S
C2819 C2820 1.410 . S
C2819 C2827 1.503 . S
C2820 C2819 1.410 . S
C2820 C2821 1.392 . S
C2820 C2823 1.511 . S
C2821 C2817 1.376 . S
C2821 C2820 1.392 . S
C2821 H2833 0.929 . S
C2822 C2818 1.531 1_556 S
C2822 H2834 0.960 . S
C2822 H2835 0.962 1_556 S
C2822 H2836 0.960 . S
C2823 C2820 1.511 . S
C2823 H2837 0.961 . S
C2823 H2838 0.961 . S
C2823 H2839 0.961 . S
C2824 C2825 1.370 . S
C2824 C2826 1.363 . S
C2824 H2840 0.931 . S
C2825 C2824 1.370 . S
C2825 C2829 1.408 . S
C2826 C2824 1.363 . S
C2826 C2827 1.370 . S
C2826 C2830 1.524 . S
C2827 C2819 1.503 . S
C2827 C2826 1.370 . S
C2827 C2828 1.403 . S
C2828 C2827 1.403 . S
C2828 C2829 1.404 . S
C2828 C2831 1.539 1_554 S
C2829 C2825 1.408 . S
C2829 C2828 1.404 . S
C2829 H2841 0.930 . S
C2830 C2826 1.524 . S
C2830 H2842 0.956 . S
C2830 H2843 0.961 . S
C2830 H2844 0.961 . S
C2831 C2828 1.539 1_556 S
C2831 H2845 0.958 . S
C2831 H2846 0.961 . S
C2831 H2847 0.960 1_556 S
H2832 C2816 0.931 . S
H2833 C2821 0.929 . S
H2834 C2822 0.960 . S
H2835 C2822 0.962 1_554 S
H2836 C2822 0.960 . S
H2837 C2823 0.961 . S
H2838 C2823 0.961 . S
H2839 C2823 0.961 . S
H2840 C2824 0.931 . S
H2841 C2829 0.930 . S
H2842 C2830 0.956 . S
H2843 C2830 0.961 . S
H2844 C2830 0.961 . S
H2845 C2831 0.958 . S
H2846 C2831 0.961 . S
H2847 C2831 0.960 1_554 S
C2848 C2849 1.391 . S
C2848 C2850 1.394 . S
C2848 H2864 0.931 . S
C2849 C2848 1.391 . S
C2849 C2853 1.376 . S
C2850 C2848 1.394 . S
C2850 C2851 1.369 . S
C2850 C2854 1.531 . S
C2851 C2850 1.369 . S
C2851 C2852 1.410 . S
C2851 C2859 1.503 . S
C2852 C2851 1.410 . S
C2852 C2853 1.392 . S
C2852 C2855 1.511 . S
C2853 C2849 1.376 . S
C2853 C2852 1.392 . S
C2853 H2865 0.929 . S
C2854 C2850 1.531 . S
C2854 H2866 0.960 . S
C2854 H2867 0.962 . S
C2854 H2868 0.960 . S
C2855 C2852 1.511 . S
C2855 H2869 0.961 . S
C2855 H2870 0.961 . S
C2855 H2871 0.961 . S
C2856 C2857 1.370 . S
C2856 C2858 1.363 . S
C2856 H2872 0.931 . S
C2857 C2856 1.370 . S
C2857 C2861 1.408 . S
C2858 C2856 1.363 . S
C2858 C2859 1.370 . S
C2858 C2862 1.524 . S
C2859 C2851 1.503 . S
C2859 C2858 1.370 . S
C2859 C2860 1.403 . S
C2860 C2859 1.403 . S
C2860 C2861 1.404 . S
C2860 C2863 1.539 . S
C2861 C2857 1.408 . S
C2861 C2860 1.404 . S
C2861 H2873 0.930 . S
C2862 C2858 1.524 . S
C2862 H2874 0.956 . S
C2862 H2875 0.961 . S
C2862 H2876 0.961 . S
C2863 C2860 1.539 . S
C2863 H2877 0.958 . S
C2863 H2878 0.961 . S
C2863 H2879 0.960 . S
H2864 C2848 0.931 . S
H2865 C2853 0.929 . S
H2866 C2854 0.960 . S
H2867 C2854 0.962 . S
H2868 C2854 0.960 . S
H2869 C2855 0.961 . S
H2870 C2855 0.961 . S
H2871 C2855 0.961 . S
H2872 C2856 0.931 . S
H2873 C2861 0.930 . S
H2874 C2862 0.956 . S
H2875 C2862 0.961 . S
H2876 C2862 0.961 . S
H2877 C2863 0.958 . S
H2878 C2863 0.961 . S
H2879 C2863 0.960 . S
C2880 C2881 1.391 . S
C2880 C2882 1.394 . S
C2880 H2896 0.931 . S
C2881 C2880 1.391 . S
C2881 C2885 1.376 . S
C2882 C2880 1.394 . S
C2882 C2883 1.369 . S
C2882 C2886 1.531 . S
C2883 C2882 1.369 . S
C2883 C2884 1.410 . S
C2883 C2891 1.503 . S
C2884 C2883 1.410 . S
C2884 C2885 1.392 . S
C2884 C2887 1.511 . S
C2885 C2881 1.376 . S
C2885 C2884 1.392 . S
C2885 H2897 0.929 . S
C2886 C2882 1.531 . S
C2886 H2898 0.960 . S
C2886 H2899 0.962 . S
C2886 H2900 0.960 . S
C2887 C2884 1.511 . S
C2887 H2901 0.961 . S
C2887 H2902 0.961 . S
C2887 H2903 0.961 . S
C2888 C2889 1.370 . S
C2888 C2890 1.363 . S
C2888 H2904 0.931 . S
C2889 C2888 1.370 . S
C2889 C2893 1.408 . S
C2890 C2888 1.363 . S
C2890 C2891 1.370 . S
C2890 C2894 1.524 . S
C2891 C2883 1.503 . S
C2891 C2890 1.370 . S
C2891 C2892 1.403 . S
C2892 C2891 1.403 . S
C2892 C2893 1.404 . S
C2892 C2895 1.539 . S
C2893 C2889 1.408 . S
C2893 C2892 1.404 . S
C2893 H2905 0.930 . S
C2894 C2890 1.524 . S
C2894 H2906 0.956 . S
C2894 H2907 0.961 . S
C2894 H2908 0.961 . S
C2895 C2892 1.539 . S
C2895 H2909 0.958 . S
C2895 H2910 0.961 . S
C2895 H2911 0.960 . S
H2896 C2880 0.931 . S
H2897 C2885 0.929 . S
H2898 C2886 0.960 . S
H2899 C2886 0.962 . S
H2900 C2886 0.960 . S
H2901 C2887 0.961 . S
H2902 C2887 0.961 . S
H2903 C2887 0.961 . S
H2904 C2888 0.931 . S
H2905 C2893 0.930 . S
H2906 C2894 0.956 . S
H2907 C2894 0.961 . S
H2908 C2894 0.961 . S
H2909 C2895 0.958 . S
H2910 C2895 0.961 . S
H2911 C2895 0.960 . S
C2912 C2913 1.391 . S
C2912 C2914 1.394 . S
C2912 H2928 0.931 . S
C2913 C2912 1.391 . S
C2913 C2917 1.376 . S
C2914 C2912 1.394 . S
C2914 C2915 1.369 . S
C2914 C2918 1.531 . S
C2915 C2914 1.369 . S
C2915 C2916 1.410 . S
C2915 C2923 1.503 . S
C2916 C2915 1.410 . S
C2916 C2917 1.392 . S
C2916 C2919 1.511 . S
C2917 C2913 1.376 . S
C2917 C2916 1.392 . S
C2917 H2929 0.929 . S
C2918 C2914 1.531 . S
C2918 H2930 0.960 . S
C2918 H2931 0.962 . S
C2918 H2932 0.960 . S
C2919 C2916 1.511 . S
C2919 H2933 0.961 . S
C2919 H2934 0.961 . S
C2919 H2935 0.961 . S
C2920 C2921 1.370 . S
C2920 C2922 1.363 . S
C2920 H2936 0.931 . S
C2921 C2920 1.370 . S
C2921 C2925 1.408 . S
C2922 C2920 1.363 . S
C2922 C2923 1.370 . S
C2922 C2926 1.524 . S
C2923 C2915 1.503 . S
C2923 C2922 1.370 . S
C2923 C2924 1.403 . S
C2924 C2923 1.403 . S
C2924 C2925 1.404 . S
C2924 C2927 1.539 . S
C2925 C2921 1.408 . S
C2925 C2924 1.404 . S
C2925 H2937 0.930 . S
C2926 C2922 1.524 . S
C2926 H2938 0.956 . S
C2926 H2939 0.961 . S
C2926 H2940 0.961 . S
C2927 C2924 1.539 . S
C2927 H2941 0.958 . S
C2927 H2942 0.961 . S
C2927 H2943 0.960 . S
H2928 C2912 0.931 . S
H2929 C2917 0.929 . S
H2930 C2918 0.960 . S
H2931 C2918 0.962 . S
H2932 C2918 0.960 . S
H2933 C2919 0.961 . S
H2934 C2919 0.961 . S
H2935 C2919 0.961 . S
H2936 C2920 0.931 . S
H2937 C2925 0.930 . S
H2938 C2926 0.956 . S
H2939 C2926 0.961 . S
H2940 C2926 0.961 . S
H2941 C2927 0.958 . S
H2942 C2927 0.961 . S
H2943 C2927 0.960 . S
C2944 C2945 1.391 . S
C2944 C2946 1.394 . S
C2944 H2960 0.931 . S
C2945 C2944 1.391 . S
C2945 C2949 1.376 . S
C2946 C2944 1.394 . S
C2946 C2947 1.369 . S
C2946 C2950 1.531 . S
C2947 C2946 1.369 . S
C2947 C2948 1.410 . S
C2947 C2955 1.503 . S
C2948 C2947 1.410 . S
C2948 C2949 1.392 . S
C2948 C2951 1.511 . S
C2949 C2945 1.376 . S
C2949 C2948 1.392 . S
C2949 H2961 0.929 . S
C2950 C2946 1.531 . S
C2950 H2962 0.960 . S
C2950 H2963 0.962 1_565 S
C2950 H2964 0.960 . S
C2951 C2948 1.511 . S
C2951 H2965 0.961 . S
C2951 H2966 0.961 . S
C2951 H2967 0.961 . S
C2952 C2953 1.371 1_545 S
C2952 C2954 1.350 1_545 S
C2952 H2968 0.944 . S
C2953 C2952 1.371 1_565 S
C2953 C2957 1.408 . S
C2954 C2952 1.350 1_565 S
C2954 C2955 1.370 . S
C2954 C2958 1.524 . S
C2955 C2947 1.503 . S
C2955 C2954 1.370 . S
C2955 C2956 1.403 . S
C2956 C2955 1.403 . S
C2956 C2957 1.404 . S
C2956 C2959 1.539 . S
C2957 C2953 1.408 . S
C2957 C2956 1.404 . S
C2957 H2969 0.930 . S
C2958 C2954 1.524 . S
C2958 H2970 0.956 . S
C2958 H2971 0.961 . S
C2958 H2972 0.961 1_565 S
C2959 C2956 1.539 . S
C2959 H2973 0.958 . S
C2959 H2974 0.961 . S
C2959 H2975 0.960 . S
H2960 C2944 0.931 . S
H2961 C2949 0.929 . S
H2962 C2950 0.960 . S
H2963 C2950 0.962 1_545 S
H2964 C2950 0.960 . S
H2965 C2951 0.961 . S
H2966 C2951 0.961 . S
H2967 C2951 0.961 . S
H2968 C2952 0.944 . S
H2969 C2957 0.930 . S
H2970 C2958 0.956 . S
H2971 C2958 0.961 . S
H2972 C2958 0.961 1_545 S
H2973 C2959 0.958 . S
H2974 C2959 0.961 . S
H2975 C2959 0.960 . S
C2976 C2977 1.391 . S
C2976 C2978 1.394 . S
C2976 H2992 0.931 . S
C2977 C2976 1.391 . S
C2977 C2981 1.376 . S
C2978 C2976 1.394 . S
C2978 C2979 1.369 . S
C2978 C2982 1.531 . S
C2979 C2978 1.369 . S
C2979 C2980 1.410 . S
C2979 C2987 1.503 . S
C2980 C2979 1.410 . S
C2980 C2981 1.392 . S
C2980 C2983 1.511 . S
C2981 C2977 1.376 . S
C2981 C2980 1.392 . S
C2981 H2993 0.929 . S
C2982 C2978 1.531 . S
C2982 H2994 0.960 . S
C2982 H2995 0.962 . S
C2982 H2996 0.960 . S
C2983 C2980 1.511 . S
C2983 H2997 0.961 . S
C2983 H2998 0.961 . S
C2983 H2999 0.961 . S
C2984 C2985 1.370 . S
C2984 C2986 1.363 . S
C2984 H3000 0.931 . S
C2985 C2984 1.370 . S
C2985 C2989 1.408 . S
C2986 C2984 1.363 . S
C2986 C2987 1.370 . S
C2986 C2990 1.524 . S
C2987 C2979 1.503 . S
C2987 C2986 1.370 . S
C2987 C2988 1.403 . S
C2988 C2987 1.403 . S
C2988 C2989 1.404 . S
C2988 C2991 1.539 . S
C2989 C2985 1.408 . S
C2989 C2988 1.404 . S
C2989 H3001 0.930 . S
C2990 C2986 1.524 . S
C2990 H3002 0.956 . S
C2990 H3003 0.961 . S
C2990 H3004 0.961 . S
C2991 C2988 1.539 . S
C2991 H3005 0.958 . S
C2991 H3006 0.961 . S
C2991 H3007 0.960 . S
H2992 C2976 0.931 . S
H2993 C2981 0.929 . S
H2994 C2982 0.960 . S
H2995 C2982 0.962 . S
H2996 C2982 0.960 . S
H2997 C2983 0.961 . S
H2998 C2983 0.961 . S
H2999 C2983 0.961 . S
H3000 C2984 0.931 . S
H3001 C2989 0.930 . S
H3002 C2990 0.956 . S
H3003 C2990 0.961 . S
H3004 C2990 0.961 . S
H3005 C2991 0.958 . S
H3006 C2991 0.961 . S
H3007 C2991 0.960 . S
C3008 C3009 1.391 . S
C3008 C3010 1.394 . S
C3008 H3024 0.931 . S
C3009 C3008 1.391 . S
C3009 C3013 1.376 . S
C3010 C3008 1.394 . S
C3010 C3011 1.369 . S
C3010 C3014 1.531 . S
C3011 C3010 1.369 . S
C3011 C3012 1.410 . S
C3011 C3019 1.503 . S
C3012 C3011 1.410 . S
C3012 C3013 1.392 . S
C3012 C3015 1.511 . S
C3013 C3009 1.376 . S
C3013 C3012 1.392 . S
C3013 H3025 0.929 . S
C3014 C3010 1.531 . S
C3014 H3026 0.960 . S
C3014 H3027 0.962 . S
C3014 H3028 0.960 . S
C3015 C3012 1.511 . S
C3015 H3029 0.961 . S
C3015 H3030 0.961 . S
C3015 H3031 0.961 . S
C3016 C3017 1.370 . S
C3016 C3018 1.363 . S
C3016 H3032 0.931 . S
C3017 C3016 1.370 . S
C3017 C3021 1.408 . S
C3018 C3016 1.363 . S
C3018 C3019 1.370 . S
C3018 C3022 1.524 . S
C3019 C3011 1.503 . S
C3019 C3018 1.370 . S
C3019 C3020 1.403 . S
C3020 C3019 1.403 . S
C3020 C3021 1.404 . S
C3020 C3023 1.539 . S
C3021 C3017 1.408 . S
C3021 C3020 1.404 . S
C3021 H3033 0.930 . S
C3022 C3018 1.524 . S
C3022 H3034 0.956 . S
C3022 H3035 0.961 . S
C3022 H3036 0.961 . S
C3023 C3020 1.539 . S
C3023 H3037 0.958 . S
C3023 H3038 0.961 . S
C3023 H3039 0.960 . S
H3024 C3008 0.931 . S
H3025 C3013 0.929 . S
H3026 C3014 0.960 . S
H3027 C3014 0.962 . S
H3028 C3014 0.960 . S
H3029 C3015 0.961 . S
H3030 C3015 0.961 . S
H3031 C3015 0.961 . S
H3032 C3016 0.931 . S
H3033 C3021 0.930 . S
H3034 C3022 0.956 . S
H3035 C3022 0.961 . S
H3036 C3022 0.961 . S
H3037 C3023 0.958 . S
H3038 C3023 0.961 . S
H3039 C3023 0.960 . S
C3040 C3041 1.391 . S
C3040 C3042 1.394 . S
C3040 H3056 0.931 . S
C3041 C3040 1.391 . S
C3041 C3045 1.376 . S
C3042 C3040 1.394 . S
C3042 C3043 1.369 . S
C3042 C3046 1.531 . S
C3043 C3042 1.369 . S
C3043 C3044 1.410 . S
C3043 C3051 1.503 . S
C3044 C3043 1.410 . S
C3044 C3045 1.392 . S
C3044 C3047 1.511 . S
C3045 C3041 1.376 . S
C3045 C3044 1.392 . S
C3045 H3057 0.929 . S
C3046 C3042 1.531 . S
C3046 H3058 0.960 . S
C3046 H3059 0.962 . S
C3046 H3060 0.960 . S
C3047 C3044 1.511 . S
C3047 H3061 0.961 . S
C3047 H3062 0.961 . S
C3047 H3063 0.961 . S
C3048 C3049 1.370 . S
C3048 C3050 1.363 . S
C3048 H3064 0.931 . S
C3049 C3048 1.370 . S
C3049 C3053 1.408 . S
C3050 C3048 1.363 . S
C3050 C3051 1.370 . S
C3050 C3054 1.524 . S
C3051 C3043 1.503 . S
C3051 C3050 1.370 . S
C3051 C3052 1.403 . S
C3052 C3051 1.403 . S
C3052 C3053 1.404 . S
C3052 C3055 1.539 . S
C3053 C3049 1.408 . S
C3053 C3052 1.404 . S
C3053 H3065 0.930 . S
C3054 C3050 1.524 . S
C3054 H3066 0.956 . S
C3054 H3067 0.961 . S
C3054 H3068 0.961 . S
C3055 C3052 1.539 . S
C3055 H3069 0.958 . S
C3055 H3070 0.961 . S
C3055 H3071 0.960 . S
H3056 C3040 0.931 . S
H3057 C3045 0.929 . S
H3058 C3046 0.960 . S
H3059 C3046 0.962 . S
H3060 C3046 0.960 . S
H3061 C3047 0.961 . S
H3062 C3047 0.961 . S
H3063 C3047 0.961 . S
H3064 C3048 0.931 . S
H3065 C3053 0.930 . S
H3066 C3054 0.956 . S
H3067 C3054 0.961 . S
H3068 C3054 0.961 . S
H3069 C3055 0.958 . S
H3070 C3055 0.961 . S
H3071 C3055 0.960 . S
C3072 C3073 1.391 . S
C3072 C3074 1.394 . S
C3072 H3088 0.931 . S
C3073 C3072 1.391 . S
C3073 C3077 1.376 . S
C3074 C3072 1.394 . S
C3074 C3075 1.369 . S
C3074 C3078 1.531 . S
C3075 C3074 1.369 . S
C3075 C3076 1.410 . S
C3075 C3083 1.503 . S
C3076 C3075 1.410 . S
C3076 C3077 1.392 . S
C3076 C3079 1.511 . S
C3077 C3073 1.376 . S
C3077 C3076 1.392 . S
C3077 H3089 0.929 . S
C3078 C3074 1.531 . S
C3078 H3090 0.960 . S
C3078 H3091 0.962 . S
C3078 H3092 0.960 . S
C3079 C3076 1.511 . S
C3079 H3093 0.961 . S
C3079 H3094 0.961 . S
C3079 H3095 0.961 . S
C3080 C3081 1.370 . S
C3080 C3082 1.363 . S
C3080 H3096 0.931 . S
C3081 C3080 1.370 . S
C3081 C3085 1.408 . S
C3082 C3080 1.363 . S
C3082 C3083 1.370 . S
C3082 C3086 1.524 . S
C3083 C3075 1.503 . S
C3083 C3082 1.370 . S
C3083 C3084 1.403 . S
C3084 C3083 1.403 . S
C3084 C3085 1.404 . S
C3084 C3087 1.539 . S
C3085 C3081 1.408 . S
C3085 C3084 1.404 . S
C3085 H3097 0.930 . S
C3086 C3082 1.524 . S
C3086 H3098 0.956 . S
C3086 H3099 0.961 . S
C3086 H3100 0.961 . S
C3087 C3084 1.539 . S
C3087 H3101 0.958 . S
C3087 H3102 0.961 . S
C3087 H3103 0.960 . S
H3088 C3072 0.931 . S
H3089 C3077 0.929 . S
H3090 C3078 0.960 . S
H3091 C3078 0.962 . S
H3092 C3078 0.960 . S
H3093 C3079 0.961 . S
H3094 C3079 0.961 . S
H3095 C3079 0.961 . S
H3096 C3080 0.931 . S
H3097 C3085 0.930 . S
H3098 C3086 0.956 . S
H3099 C3086 0.961 . S
H3100 C3086 0.961 . S
H3101 C3087 0.958 . S
H3102 C3087 0.961 . S
H3103 C3087 0.960 . S
C3104 C3105 1.391 . S
C3104 C3106 1.394 . S
C3104 H3120 0.931 . S
C3105 C3104 1.391 . S
C3105 C3109 1.376 1_455 S
C3106 C3104 1.394 . S
C3106 C3107 1.369 . S
C3106 C3110 1.531 . S
C3107 C3106 1.369 . S
C3107 C3108 1.410 . S
C3107 C3115 1.503 . S
C3108 C3107 1.410 . S
C3108 C3109 1.392 1_455 S
C3108 C3111 1.511 1_455 S
C3109 C3105 1.376 1_655 S
C3109 C3108 1.392 1_655 S
C3109 H3121 0.929 . S
C3110 C3106 1.531 . S
C3110 H3122 0.960 . S
C3110 H3123 0.962 . S
C3110 H3124 0.960 . S
C3111 C3108 1.511 1_655 S
C3111 H3125 0.961 . S
C3111 H3126 0.961 1_655 S
C3111 H3127 0.961 . S
C3112 C3113 1.370 . S
C3112 C3114 1.363 . S
C3112 H3128 0.931 . S
C3113 C3112 1.370 . S
C3113 C3117 1.408 . S
C3114 C3112 1.363 . S
C3114 C3115 1.370 . S
C3114 C3118 1.524 . S
C3115 C3107 1.503 . S
C3115 C3114 1.370 . S
C3115 C3116 1.403 . S
C3116 C3115 1.403 . S
C3116 C3117 1.404 . S
C3116 C3119 1.539 1_455 S
C3117 C3113 1.408 . S
C3117 C3116 1.404 . S
C3117 H3129 0.938 . S
C3118 C3114 1.524 . S
C3118 H3130 0.956 . S
C3118 H3131 0.961 . S
C3118 H3132 0.961 . S
C3119 C3116 1.539 1_655 S
C3119 H3133 0.958 . S
C3119 H3134 0.961 . S
C3119 H3135 0.960 . S
H3120 C3104 0.931 . S
H3121 C3109 0.929 . S
H3122 C3110 0.960 . S
H3123 C3110 0.962 . S
H3124 C3110 0.960 . S
H3125 C3111 0.961 . S
H3126 C3111 0.961 1_455 S
H3127 C3111 0.961 . S
H3128 C3112 0.931 . S
H3129 C3117 0.938 . S
H3130 C3118 0.956 . S
H3131 C3118 0.961 . S
H3132 C3118 0.961 . S
H3133 C3119 0.958 . S
H3134 C3119 0.961 . S
H3135 C3119 0.960 . S
C3136 C3137 1.391 . S
C3136 C3138 1.394 . S
C3136 H3152 0.931 . S
C3137 C3136 1.391 . S
C3137 C3141 1.376 . S
C3138 C3136 1.394 . S
C3138 C3139 1.372 . S
C3138 C3142 1.531 . S
C3139 C3138 1.372 . S
C3139 C3140 1.416 . S
C3139 C3147 1.494 1_455 S
C3140 C3139 1.416 . S
C3140 C3141 1.392 . S
C3140 C3143 1.511 1_455 S
C3141 C3137 1.376 . S
C3141 C3140 1.392 . S
C3141 H3153 0.929 . S
C3142 C3138 1.531 . S
C3142 H3154 0.960 1_455 S
C3142 H3155 0.962 . S
C3142 H3156 0.960 . S
C3143 C3140 1.511 1_655 S
C3143 H3157 0.961 1_655 S
C3143 H3158 0.961 . S
C3143 H3159 0.961 . S
C3144 C3145 1.370 . S
C3144 C3146 1.363 . S
C3144 H3160 0.931 . S
C3145 C3144 1.370 . S
C3145 C3149 1.408 . S
C3146 C3144 1.363 . S
C3146 C3147 1.370 . S
C3146 C3150 1.524 1_655 S
C3147 C3139 1.494 1_655 S
C3147 C3146 1.370 . S
C3147 C3148 1.403 . S
C3148 C3147 1.403 . S
C3148 C3149 1.404 . S
C3148 C3151 1.539 . S
C3149 C3145 1.408 . S
C3149 C3148 1.404 . S
C3149 H3161 0.930 . S
C3150 C3146 1.524 1_455 S
C3150 H3162 0.956 . S
C3150 H3163 0.961 . S
C3150 H3164 0.961 . S
C3151 C3148 1.539 . S
C3151 H3165 0.958 . S
C3151 H3166 0.961 . S
C3151 H3167 0.960 . S
H3152 C3136 0.931 . S
H3153 C3141 0.929 . S
H3154 C3142 0.960 1_655 S
H3155 C3142 0.962 . S
H3156 C3142 0.960 . S
H3157 C3143 0.961 1_455 S
H3158 C3143 0.961 . S
H3159 C3143 0.961 . S
H3160 C3144 0.931 . S
H3161 C3149 0.930 . S
H3162 C3150 0.956 . S
H3163 C3150 0.961 . S
H3164 C3150 0.961 . S
H3165 C3151 0.958 . S
H3166 C3151 0.961 . S
H3167 C3151 0.960 . S
C3168 C3169 1.391 . S
C3168 C3170 1.394 . S
C3168 H3184 0.931 . S
C3169 C3168 1.391 . S
C3169 C3173 1.376 . S
C3170 C3168 1.394 . S
C3170 C3171 1.369 . S
C3170 C3174 1.531 . S
C3171 C3170 1.369 . S
C3171 C3172 1.410 . S
C3171 C3179 1.503 . S
C3172 C3171 1.410 . S
C3172 C3173 1.392 . S
C3172 C3175 1.511 . S
C3173 C3169 1.376 . S
C3173 C3172 1.392 . S
C3173 H3185 0.929 . S
C3174 C3170 1.531 . S
C3174 H3186 0.960 . S
C3174 H3187 0.962 . S
C3174 H3188 0.960 . S
C3175 C3172 1.511 . S
C3175 H3189 0.961 . S
C3175 H3190 0.961 . S
C3175 H3191 0.961 . S
C3176 C3177 1.370 . S
C3176 C3178 1.363 . S
C3176 H3192 0.931 . S
C3177 C3176 1.370 . S
C3177 C3181 1.408 . S
C3178 C3176 1.363 . S
C3178 C3179 1.370 . S
C3178 C3182 1.524 . S
C3179 C3171 1.503 . S
C3179 C3178 1.370 . S
C3179 C3180 1.403 . S
C3180 C3179 1.403 . S
C3180 C3181 1.404 . S
C3180 C3183 1.539 . S
C3181 C3177 1.408 . S
C3181 C3180 1.404 . S
C3181 H3193 0.930 . S
C3182 C3178 1.524 . S
C3182 H3194 0.956 . S
C3182 H3195 0.961 . S
C3182 H3196 0.961 . S
C3183 C3180 1.539 . S
C3183 H3197 0.958 . S
C3183 H3198 0.961 . S
C3183 H3199 0.960 . S
H3184 C3168 0.931 . S
H3185 C3173 0.929 . S
H3186 C3174 0.960 . S
H3187 C3174 0.962 . S
H3188 C3174 0.960 . S
H3189 C3175 0.961 . S
H3190 C3175 0.961 . S
H3191 C3175 0.961 . S
H3192 C3176 0.931 . S
H3193 C3181 0.930 . S
H3194 C3182 0.956 . S
H3195 C3182 0.961 . S
H3196 C3182 0.961 . S
H3197 C3183 0.958 . S
H3198 C3183 0.961 . S
H3199 C3183 0.960 . S
C3200 C3201 1.391 . S
C3200 C3202 1.394 . S
C3200 H3216 0.931 . S
C3201 C3200 1.391 . S
C3201 C3205 1.376 . S
C3202 C3200 1.394 . S
C3202 C3203 1.369 . S
C3202 C3206 1.531 . S
C3203 C3202 1.369 . S
C3203 C3204 1.410 . S
C3203 C3211 1.503 . S
C3204 C3203 1.410 . S
C3204 C3205 1.392 . S
C3204 C3207 1.511 . S
C3205 C3201 1.376 . S
C3205 C3204 1.392 . S
C3205 H3217 0.929 . S
C3206 C3202 1.531 . S
C3206 H3218 0.960 . S
C3206 H3219 0.962 . S
C3206 H3220 0.960 . S
C3207 C3204 1.511 . S
C3207 H3221 0.961 . S
C3207 H3222 0.961 . S
C3207 H3223 0.961 . S
C3208 C3209 1.370 . S
C3208 C3210 1.363 . S
C3208 H3224 0.931 . S
C3209 C3208 1.370 . S
C3209 C3213 1.408 . S
C3210 C3208 1.363 . S
C3210 C3211 1.370 . S
C3210 C3214 1.524 . S
C3211 C3203 1.503 . S
C3211 C3210 1.370 . S
C3211 C3212 1.403 . S
C3212 C3211 1.403 . S
C3212 C3213 1.404 . S
C3212 C3215 1.539 . S
C3213 C3209 1.408 . S
C3213 C3212 1.404 . S
C3213 H3225 0.930 . S
C3214 C3210 1.524 . S
C3214 H3226 0.956 . S
C3214 H3227 0.961 . S
C3214 H3228 0.961 . S
C3215 C3212 1.539 . S
C3215 H3229 0.958 . S
C3215 H3230 0.961 . S
C3215 H3231 0.960 . S
H3216 C3200 0.931 . S
H3217 C3205 0.929 . S
H3218 C3206 0.960 . S
H3219 C3206 0.962 . S
H3220 C3206 0.960 . S
H3221 C3207 0.961 . S
H3222 C3207 0.961 . S
H3223 C3207 0.961 . S
H3224 C3208 0.931 . S
H3225 C3213 0.930 . S
H3226 C3214 0.956 . S
H3227 C3214 0.961 . S
H3228 C3214 0.961 . S
H3229 C3215 0.958 . S
H3230 C3215 0.961 . S
H3231 C3215 0.960 . S
C3232 C3233 1.391 . S
C3232 C3234 1.394 . S
C3232 H3248 0.931 . S
C3233 C3232 1.391 . S
C3233 C3237 1.376 . S
C3234 C3232 1.394 . S
C3234 C3235 1.369 . S
C3234 C3238 1.531 . S
C3235 C3234 1.369 . S
C3235 C3236 1.410 . S
C3235 C3243 1.503 . S
C3236 C3235 1.410 . S
C3236 C3237 1.392 . S
C3236 C3239 1.511 . S
C3237 C3233 1.376 . S
C3237 C3236 1.392 . S
C3237 H3249 0.929 . S
C3238 C3234 1.531 . S
C3238 H3250 0.960 . S
C3238 H3251 0.962 . S
C3238 H3252 0.960 . S
C3239 C3236 1.511 . S
C3239 H3253 0.961 . S
C3239 H3254 0.961 . S
C3239 H3255 0.961 . S
C3240 C3241 1.370 . S
C3240 C3242 1.363 . S
C3240 H3256 0.931 . S
C3241 C3240 1.370 . S
C3241 C3245 1.408 . S
C3242 C3240 1.363 . S
C3242 C3243 1.370 . S
C3242 C3246 1.524 . S
C3243 C3235 1.503 . S
C3243 C3242 1.370 . S
C3243 C3244 1.403 . S
C3244 C3243 1.403 . S
C3244 C3245 1.404 . S
C3244 C3247 1.539 . S
C3245 C3241 1.408 . S
C3245 C3244 1.404 . S
C3245 H3257 0.930 . S
C3246 C3242 1.524 . S
C3246 H3258 0.956 . S
C3246 H3259 0.961 . S
C3246 H3260 0.961 1_455 S
C3247 C3244 1.539 . S
C3247 H3261 0.958 . S
C3247 H3262 0.961 . S
C3247 H3263 0.960 . S
H3248 C3232 0.931 . S
H3249 C3237 0.929 . S
H3250 C3238 0.960 . S
H3251 C3238 0.962 . S
H3252 C3238 0.960 . S
H3253 C3239 0.961 . S
H3254 C3239 0.961 . S
H3255 C3239 0.961 . S
H3256 C3240 0.931 . S
H3257 C3245 0.930 . S
H3258 C3246 0.956 . S
H3259 C3246 0.961 . S
H3260 C3246 0.961 1_655 S
H3261 C3247 0.958 . S
H3262 C3247 0.961 . S
H3263 C3247 0.960 . S
C3264 C3265 1.391 . S
C3264 C3266 1.394 . S
C3264 H3280 0.931 . S
C3265 C3264 1.391 . S
C3265 C3269 1.376 . S
C3266 C3264 1.394 . S
C3266 C3267 1.369 . S
C3266 C3270 1.531 . S
C3267 C3266 1.369 . S
C3267 C3268 1.410 . S
C3267 C3275 1.503 . S
C3268 C3267 1.410 . S
C3268 C3269 1.392 . S
C3268 C3271 1.511 . S
C3269 C3265 1.376 . S
C3269 C3268 1.392 . S
C3269 H3281 0.929 . S
C3270 C3266 1.531 . S
C3270 H3282 0.960 . S
C3270 H3283 0.962 . S
C3270 H3284 0.960 . S
C3271 C3268 1.511 . S
C3271 H3285 0.961 . S
C3271 H3286 0.961 . S
C3271 H3287 0.961 . S
C3272 C3273 1.370 . S
C3272 C3274 1.363 . S
C3272 H3288 0.931 . S
C3273 C3272 1.370 . S
C3273 C3277 1.408 . S
C3274 C3272 1.363 . S
C3274 C3275 1.370 . S
C3274 C3278 1.524 . S
C3275 C3267 1.503 . S
C3275 C3274 1.370 . S
C3275 C3276 1.403 . S
C3276 C3275 1.403 . S
C3276 C3277 1.404 . S
C3276 C3279 1.539 . S
C3277 C3273 1.408 . S
C3277 C3276 1.404 . S
C3277 H3289 0.930 . S
C3278 C3274 1.524 . S
C3278 H3290 0.956 . S
C3278 H3291 0.961 . S
C3278 H3292 0.961 . S
C3279 C3276 1.539 . S
C3279 H3293 0.958 . S
C3279 H3294 0.961 . S
C3279 H3295 0.960 . S
H3280 C3264 0.931 . S
H3281 C3269 0.929 . S
H3282 C3270 0.960 . S
H3283 C3270 0.962 . S
H3284 C3270 0.960 . S
H3285 C3271 0.961 . S
H3286 C3271 0.961 . S
H3287 C3271 0.961 . S
H3288 C3272 0.931 . S
H3289 C3277 0.930 . S
H3290 C3278 0.956 . S
H3291 C3278 0.961 . S
H3292 C3278 0.961 . S
H3293 C3279 0.958 . S
H3294 C3279 0.961 . S
H3295 C3279 0.960 . S
C3296 C3297 1.391 . S
C3296 C3298 1.394 . S
C3296 H3312 0.931 . S
C3297 C3296 1.391 . S
C3297 C3301 1.376 . S
C3298 C3296 1.394 . S
C3298 C3299 1.369 . S
C3298 C3302 1.531 . S
C3299 C3298 1.369 . S
C3299 C3300 1.410 . S
C3299 C3307 1.503 . S
C3300 C3299 1.410 . S
C3300 C3301 1.392 . S
C3300 C3303 1.511 . S
C3301 C3297 1.376 . S
C3301 C3300 1.392 . S
C3301 H3313 0.929 . S
C3302 C3298 1.531 . S
C3302 H3314 0.960 . S
C3302 H3315 0.962 . S
C3302 H3316 0.960 . S
C3303 C3300 1.511 . S
C3303 H3317 0.961 . S
C3303 H3318 0.961 . S
C3303 H3319 0.961 . S
C3304 C3305 1.370 . S
C3304 C3306 1.363 . S
C3304 H3320 0.931 . S
C3305 C3304 1.370 . S
C3305 C3309 1.408 . S
C3306 C3304 1.363 . S
C3306 C3307 1.370 . S
C3306 C3310 1.524 . S
C3307 C3299 1.503 . S
C3307 C3306 1.370 . S
C3307 C3308 1.403 . S
C3308 C3307 1.403 . S
C3308 C3309 1.404 . S
C3308 C3311 1.539 . S
C3309 C3305 1.408 . S
C3309 C3308 1.404 . S
C3309 H3321 0.930 . S
C3310 C3306 1.524 . S
C3310 H3322 0.956 . S
C3310 H3323 0.961 . S
C3310 H3324 0.961 . S
C3311 C3308 1.539 . S
C3311 H3325 0.958 . S
C3311 H3326 0.961 . S
C3311 H3327 0.960 . S
H3312 C3296 0.931 . S
H3313 C3301 0.929 . S
H3314 C3302 0.960 . S
H3315 C3302 0.962 . S
H3316 C3302 0.960 . S
H3317 C3303 0.961 . S
H3318 C3303 0.961 . S
H3319 C3303 0.961 . S
H3320 C3304 0.931 . S
H3321 C3309 0.930 . S
H3322 C3310 0.956 . S
H3323 C3310 0.961 . S
H3324 C3310 0.961 . S
H3325 C3311 0.958 . S
H3326 C3311 0.961 . S
H3327 C3311 0.960 . S
C3328 C3329 1.391 . S
C3328 C3330 1.394 . S
C3328 H3344 0.931 . S
C3329 C3328 1.391 . S
C3329 C3333 1.376 . S
C3330 C3328 1.394 . S
C3330 C3331 1.369 . S
C3330 C3334 1.531 . S
C3331 C3330 1.369 . S
C3331 C3332 1.410 . S
C3331 C3339 1.503 . S
C3332 C3331 1.410 . S
C3332 C3333 1.392 . S
C3332 C3335 1.511 . S
C3333 C3329 1.376 . S
C3333 C3332 1.392 . S
C3333 H3345 0.929 . S
C3334 C3330 1.531 . S
C3334 H3346 0.960 . S
C3334 H3347 0.962 . S
C3334 H3348 0.960 . S
C3335 C3332 1.511 . S
C3335 H3349 0.961 . S
C3335 H3350 0.961 . S
C3335 H3351 0.961 . S
C3336 C3337 1.370 . S
C3336 C3338 1.363 . S
C3336 H3352 0.931 . S
C3337 C3336 1.370 . S
C3337 C3341 1.408 . S
C3338 C3336 1.363 . S
C3338 C3339 1.370 . S
C3338 C3342 1.524 . S
C3339 C3331 1.503 . S
C3339 C3338 1.370 . S
C3339 C3340 1.403 . S
C3340 C3339 1.403 . S
C3340 C3341 1.404 . S
C3340 C3343 1.539 . S
C3341 C3337 1.408 . S
C3341 C3340 1.404 . S
C3341 H3353 0.930 . S
C3342 C3338 1.524 . S
C3342 H3354 0.956 . S
C3342 H3355 0.961 . S
C3342 H3356 0.961 . S
C3343 C3340 1.539 . S
C3343 H3357 0.958 . S
C3343 H3358 0.961 . S
C3343 H3359 0.960 . S
H3344 C3328 0.931 . S
H3345 C3333 0.929 . S
H3346 C3334 0.960 . S
H3347 C3334 0.962 . S
H3348 C3334 0.960 . S
H3349 C3335 0.961 . S
H3350 C3335 0.961 . S
H3351 C3335 0.961 . S
H3352 C3336 0.931 . S
H3353 C3341 0.930 . S
H3354 C3342 0.956 . S
H3355 C3342 0.961 . S
H3356 C3342 0.961 . S
H3357 C3343 0.958 . S
H3358 C3343 0.961 . S
H3359 C3343 0.960 . S
C3360 C3361 1.391 . S
C3360 C3362 1.394 . S
C3360 H3376 0.931 . S
C3361 C3360 1.391 . S
C3361 C3365 1.376 . S
C3362 C3360 1.394 . S
C3362 C3363 1.369 . S
C3362 C3366 1.531 . S
C3363 C3362 1.369 . S
C3363 C3364 1.410 . S
C3363 C3371 1.503 . S
C3364 C3363 1.410 . S
C3364 C3365 1.392 . S
C3364 C3367 1.511 . S
C3365 C3361 1.376 . S
C3365 C3364 1.392 . S
C3365 H3377 0.929 . S
C3366 C3362 1.531 . S
C3366 H3378 0.960 . S
C3366 H3379 0.962 . S
C3366 H3380 0.960 . S
C3367 C3364 1.511 . S
C3367 H3381 0.961 . S
C3367 H3382 0.961 . S
C3367 H3383 0.961 . S
C3368 C3369 1.370 . S
C3368 C3370 1.363 . S
C3368 H3384 0.931 . S
C3369 C3368 1.370 . S
C3369 C3373 1.408 . S
C3370 C3368 1.363 . S
C3370 C3371 1.370 . S
C3370 C3374 1.524 . S
C3371 C3363 1.503 . S
C3371 C3370 1.370 . S
C3371 C3372 1.403 . S
C3372 C3371 1.403 . S
C3372 C3373 1.404 . S
C3372 C3375 1.539 . S
C3373 C3369 1.408 . S
C3373 C3372 1.404 . S
C3373 H3385 0.930 . S
C3374 C3370 1.524 . S
C3374 H3386 0.956 . S
C3374 H3387 0.961 . S
C3374 H3388 0.961 . S
C3375 C3372 1.539 . S
C3375 H3389 0.958 . S
C3375 H3390 0.961 . S
C3375 H3391 0.960 . S
H3376 C3360 0.931 . S
H3377 C3365 0.929 . S
H3378 C3366 0.960 . S
H3379 C3366 0.962 . S
H3380 C3366 0.960 . S
H3381 C3367 0.961 . S
H3382 C3367 0.961 . S
H3383 C3367 0.961 . S
H3384 C3368 0.931 . S
H3385 C3373 0.930 . S
H3386 C3374 0.956 . S
H3387 C3374 0.961 . S
H3388 C3374 0.961 . S
H3389 C3375 0.958 . S
H3390 C3375 0.961 . S
H3391 C3375 0.960 . S
C3392 C3393 1.391 . S
C3392 C3394 1.394 . S
C3392 H3408 0.931 . S
C3393 C3392 1.391 . S
C3393 C3397 1.376 . S
C3394 C3392 1.394 . S
C3394 C3395 1.369 . S
C3394 C3398 1.531 . S
C3395 C3394 1.369 . S
C3395 C3396 1.410 . S
C3395 C3403 1.503 . S
C3396 C3395 1.410 . S
C3396 C3397 1.392 . S
C3396 C3399 1.511 . S
C3397 C3393 1.376 . S
C3397 C3396 1.392 . S
C3397 H3409 0.929 . S
C3398 C3394 1.531 . S
C3398 H3410 0.960 . S
C3398 H3411 0.962 . S
C3398 H3412 0.960 . S
C3399 C3396 1.511 . S
C3399 H3413 0.961 . S
C3399 H3414 0.961 . S
C3399 H3415 0.961 . S
C3400 C3401 1.370 . S
C3400 C3402 1.363 . S
C3400 H3416 0.931 . S
C3401 C3400 1.370 . S
C3401 C3405 1.408 . S
C3402 C3400 1.363 . S
C3402 C3403 1.370 . S
C3402 C3406 1.524 . S
C3403 C3395 1.503 . S
C3403 C3402 1.370 . S
C3403 C3404 1.403 . S
C3404 C3403 1.403 . S
C3404 C3405 1.404 . S
C3404 C3407 1.539 . S
C3405 C3401 1.408 . S
C3405 C3404 1.404 . S
C3405 H3417 0.930 . S
C3406 C3402 1.524 . S
C3406 H3418 0.956 . S
C3406 H3419 0.961 . S
C3406 H3420 0.961 . S
C3407 C3404 1.539 . S
C3407 H3421 0.958 . S
C3407 H3422 0.961 . S
C3407 H3423 0.960 . S
H3408 C3392 0.931 . S
H3409 C3397 0.929 . S
H3410 C3398 0.960 . S
H3411 C3398 0.962 . S
H3412 C3398 0.960 . S
H3413 C3399 0.961 . S
H3414 C3399 0.961 . S
H3415 C3399 0.961 . S
H3416 C3400 0.931 . S
H3417 C3405 0.930 . S
H3418 C3406 0.956 . S
H3419 C3406 0.961 . S
H3420 C3406 0.961 . S
H3421 C3407 0.958 . S
H3422 C3407 0.961 . S
H3423 C3407 0.960 . S
C3424 C3425 1.391 . S
C3424 C3426 1.394 . S
C3424 H3440 0.931 . S
C3425 C3424 1.391 . S
C3425 C3429 1.376 . S
C3426 C3424 1.394 . S
C3426 C3427 1.369 . S
C3426 C3430 1.531 . S
C3427 C3426 1.369 . S
C3427 C3428 1.410 . S
C3427 C3435 1.503 . S
C3428 C3427 1.410 . S
C3428 C3429 1.392 . S
C3428 C3431 1.511 . S
C3429 C3425 1.376 . S
C3429 C3428 1.392 . S
C3429 H3441 0.929 . S
C3430 C3426 1.531 . S
C3430 H3442 0.960 . S
C3430 H3443 0.962 . S
C3430 H3444 0.960 . S
C3431 C3428 1.511 . S
C3431 H3445 0.961 . S
C3431 H3446 0.961 . S
C3431 H3447 0.961 . S
C3432 C3433 1.370 . S
C3432 C3434 1.363 . S
C3432 H3448 0.931 . S
C3433 C3432 1.370 . S
C3433 C3437 1.408 . S
C3434 C3432 1.363 . S
C3434 C3435 1.370 . S
C3434 C3438 1.524 . S
C3435 C3427 1.503 . S
C3435 C3434 1.370 . S
C3435 C3436 1.403 . S
C3436 C3435 1.403 . S
C3436 C3437 1.404 . S
C3436 C3439 1.539 . S
C3437 C3433 1.408 . S
C3437 C3436 1.404 . S
C3437 H3449 0.930 . S
C3438 C3434 1.524 . S
C3438 H3450 0.956 . S
C3438 H3451 0.961 . S
C3438 H3452 0.961 . S
C3439 C3436 1.539 . S
C3439 H3453 0.958 . S
C3439 H3454 0.961 . S
C3439 H3455 0.960 . S
H3440 C3424 0.931 . S
H3441 C3429 0.929 . S
H3442 C3430 0.960 . S
H3443 C3430 0.962 . S
H3444 C3430 0.960 . S
H3445 C3431 0.961 . S
H3446 C3431 0.961 . S
H3447 C3431 0.961 . S
H3448 C3432 0.931 . S
H3449 C3437 0.930 . S
H3450 C3438 0.956 . S
H3451 C3438 0.961 . S
H3452 C3438 0.961 . S
H3453 C3439 0.958 . S
H3454 C3439 0.961 . S
H3455 C3439 0.960 . S
C3456 C3457 1.391 . S
C3456 C3458 1.394 . S
C3456 H3472 0.931 . S
C3457 C3456 1.391 . S
C3457 C3461 1.376 . S
C3458 C3456 1.394 . S
C3458 C3459 1.369 . S
C3458 C3462 1.531 . S
C3459 C3458 1.369 . S
C3459 C3460 1.410 . S
C3459 C3467 1.503 . S
C3460 C3459 1.410 . S
C3460 C3461 1.392 . S
C3460 C3463 1.511 . S
C3461 C3457 1.376 . S
C3461 C3460 1.392 . S
C3461 H3473 0.929 . S
C3462 C3458 1.531 . S
C3462 H3474 0.960 . S
C3462 H3475 0.962 . S
C3462 H3476 0.960 . S
C3463 C3460 1.511 . S
C3463 H3477 0.961 . S
C3463 H3478 0.961 . S
C3463 H3479 0.961 . S
C3464 C3465 1.370 . S
C3464 C3466 1.363 . S
C3464 H3480 0.931 . S
C3465 C3464 1.370 . S
C3465 C3469 1.408 . S
C3466 C3464 1.363 . S
C3466 C3467 1.370 . S
C3466 C3470 1.524 . S
C3467 C3459 1.503 . S
C3467 C3466 1.370 . S
C3467 C3468 1.403 . S
C3468 C3467 1.403 . S
C3468 C3469 1.404 . S
C3468 C3471 1.539 . S
C3469 C3465 1.408 . S
C3469 C3468 1.404 . S
C3469 H3481 0.930 . S
C3470 C3466 1.524 . S
C3470 H3482 0.956 . S
C3470 H3483 0.961 . S
C3470 H3484 0.961 . S
C3471 C3468 1.539 . S
C3471 H3485 0.958 . S
C3471 H3486 0.961 . S
C3471 H3487 0.960 . S
H3472 C3456 0.931 . S
H3473 C3461 0.929 . S
H3474 C3462 0.960 . S
H3475 C3462 0.962 . S
H3476 C3462 0.960 . S
H3477 C3463 0.961 . S
H3478 C3463 0.961 . S
H3479 C3463 0.961 . S
H3480 C3464 0.931 . S
H3481 C3469 0.930 . S
H3482 C3470 0.956 . S
H3483 C3470 0.961 . S
H3484 C3470 0.961 . S
H3485 C3471 0.958 . S
H3486 C3471 0.961 . S
H3487 C3471 0.960 . S
C3488 C3489 1.391 . S
C3488 C3490 1.394 . S
C3488 H3504 0.931 . S
C3489 C3488 1.391 . S
C3489 C3493 1.376 . S
C3490 C3488 1.394 . S
C3490 C3491 1.369 . S
C3490 C3494 1.531 . S
C3491 C3490 1.369 . S
C3491 C3492 1.410 . S
C3491 C3499 1.503 . S
C3492 C3491 1.410 . S
C3492 C3493 1.392 . S
C3492 C3495 1.511 . S
C3493 C3489 1.376 . S
C3493 C3492 1.392 . S
C3493 H3505 0.929 . S
C3494 C3490 1.531 . S
C3494 H3506 0.960 . S
C3494 H3507 0.962 . S
C3494 H3508 0.960 . S
C3495 C3492 1.511 . S
C3495 H3509 0.961 . S
C3495 H3510 0.961 . S
C3495 H3511 0.961 . S
C3496 C3497 1.370 . S
C3496 C3498 1.363 . S
C3496 H3512 0.931 . S
C3497 C3496 1.370 . S
C3497 C3501 1.408 . S
C3498 C3496 1.363 . S
C3498 C3499 1.370 . S
C3498 C3502 1.524 . S
C3499 C3491 1.503 . S
C3499 C3498 1.370 . S
C3499 C3500 1.403 . S
C3500 C3499 1.403 . S
C3500 C3501 1.404 . S
C3500 C3503 1.539 . S
C3501 C3497 1.408 . S
C3501 C3500 1.404 . S
C3501 H3513 0.930 . S
C3502 C3498 1.524 . S
C3502 H3514 0.956 . S
C3502 H3515 0.961 . S
C3502 H3516 0.961 . S
C3503 C3500 1.539 . S
C3503 H3517 0.958 . S
C3503 H3518 0.961 . S
C3503 H3519 0.960 . S
H3504 C3488 0.931 . S
H3505 C3493 0.929 . S
H3506 C3494 0.960 . S
H3507 C3494 0.962 . S
H3508 C3494 0.960 . S
H3509 C3495 0.961 . S
H3510 C3495 0.961 . S
H3511 C3495 0.961 . S
H3512 C3496 0.931 . S
H3513 C3501 0.930 . S
H3514 C3502 0.956 . S
H3515 C3502 0.961 . S
H3516 C3502 0.961 . S
H3517 C3503 0.958 . S
H3518 C3503 0.961 . S
H3519 C3503 0.960 . S
C3520 C3521 1.391 . S
C3520 C3522 1.394 . S
C3520 H3536 0.931 . S
C3521 C3520 1.391 . S
C3521 C3525 1.376 . S
C3522 C3520 1.394 . S
C3522 C3523 1.369 . S
C3522 C3526 1.531 . S
C3523 C3522 1.369 . S
C3523 C3524 1.410 . S
C3523 C3531 1.503 . S
C3524 C3523 1.410 . S
C3524 C3525 1.392 . S
C3524 C3527 1.511 . S
C3525 C3521 1.376 . S
C3525 C3524 1.392 . S
C3525 H3537 0.929 . S
C3526 C3522 1.531 . S
C3526 H3538 0.960 . S
C3526 H3539 0.962 . S
C3526 H3540 0.960 . S
C3527 C3524 1.511 . S
C3527 H3541 0.961 . S
C3527 H3542 0.961 . S
C3527 H3543 0.961 . S
C3528 C3529 1.370 . S
C3528 C3530 1.363 . S
C3528 H3544 0.931 . S
C3529 C3528 1.370 . S
C3529 C3533 1.408 . S
C3530 C3528 1.363 . S
C3530 C3531 1.370 . S
C3530 C3534 1.524 . S
C3531 C3523 1.503 . S
C3531 C3530 1.370 . S
C3531 C3532 1.403 . S
C3532 C3531 1.403 . S
C3532 C3533 1.404 . S
C3532 C3535 1.539 . S
C3533 C3529 1.408 . S
C3533 C3532 1.404 . S
C3533 H3545 0.930 . S
C3534 C3530 1.524 . S
C3534 H3546 0.956 . S
C3534 H3547 0.961 . S
C3534 H3548 0.961 . S
C3535 C3532 1.539 . S
C3535 H3549 0.958 . S
C3535 H3550 0.961 . S
C3535 H3551 0.960 . S
H3536 C3520 0.931 . S
H3537 C3525 0.929 . S
H3538 C3526 0.960 . S
H3539 C3526 0.962 . S
H3540 C3526 0.960 . S
H3541 C3527 0.961 . S
H3542 C3527 0.961 . S
H3543 C3527 0.961 . S
H3544 C3528 0.931 . S
H3545 C3533 0.930 . S
H3546 C3534 0.956 . S
H3547 C3534 0.961 . S
H3548 C3534 0.961 . S
H3549 C3535 0.958 . S
H3550 C3535 0.961 . S
H3551 C3535 0.960 . S
C3552 C3553 1.391 . S
C3552 C3554 1.394 . S
C3552 H3568 0.931 . S
C3553 C3552 1.391 . S
C3553 C3557 1.376 . S
C3554 C3552 1.394 . S
C3554 C3555 1.369 . S
C3554 C3558 1.531 . S
C3555 C3554 1.369 . S
C3555 C3556 1.410 . S
C3555 C3563 1.503 . S
C3556 C3555 1.410 . S
C3556 C3557 1.392 . S
C3556 C3559 1.511 . S
C3557 C3553 1.376 . S
C3557 C3556 1.392 . S
C3557 H3569 0.929 . S
C3558 C3554 1.531 . S
C3558 H3570 0.960 . S
C3558 H3571 0.962 . S
C3558 H3572 0.960 . S
C3559 C3556 1.511 . S
C3559 H3573 0.961 . S
C3559 H3574 0.961 . S
C3559 H3575 0.961 . S
C3560 C3561 1.370 . S
C3560 C3562 1.363 . S
C3560 H3576 0.931 . S
C3561 C3560 1.370 . S
C3561 C3565 1.408 . S
C3562 C3560 1.363 . S
C3562 C3563 1.370 . S
C3562 C3566 1.524 . S
C3563 C3555 1.503 . S
C3563 C3562 1.370 . S
C3563 C3564 1.403 . S
C3564 C3563 1.403 . S
C3564 C3565 1.404 . S
C3564 C3567 1.539 . S
C3565 C3561 1.408 . S
C3565 C3564 1.404 . S
C3565 H3577 0.930 . S
C3566 C3562 1.524 . S
C3566 H3578 0.956 . S
C3566 H3579 0.961 . S
C3566 H3580 0.961 . S
C3567 C3564 1.539 . S
C3567 H3581 0.958 . S
C3567 H3582 0.961 . S
C3567 H3583 0.960 . S
H3568 C3552 0.931 . S
H3569 C3557 0.929 . S
H3570 C3558 0.960 . S
H3571 C3558 0.962 . S
H3572 C3558 0.960 . S
H3573 C3559 0.961 . S
H3574 C3559 0.961 . S
H3575 C3559 0.961 . S
H3576 C3560 0.931 . S
H3577 C3565 0.930 . S
H3578 C3566 0.956 . S
H3579 C3566 0.961 . S
H3580 C3566 0.961 . S
H3581 C3567 0.958 . S
H3582 C3567 0.961 . S
H3583 C3567 0.960 . S
C3584 C3585 1.391 . S
C3584 C3586 1.394 . S
C3584 H3600 0.931 . S
C3585 C3584 1.391 . S
C3585 C3589 1.376 . S
C3586 C3584 1.394 . S
C3586 C3587 1.369 . S
C3586 C3590 1.531 . S
C3587 C3586 1.369 . S
C3587 C3588 1.410 . S
C3587 C3595 1.503 . S
C3588 C3587 1.410 . S
C3588 C3589 1.392 . S
C3588 C3591 1.511 . S
C3589 C3585 1.376 . S
C3589 C3588 1.392 . S
C3589 H3601 0.929 . S
C3590 C3586 1.531 . S
C3590 H3602 0.960 . S
C3590 H3603 0.962 . S
C3590 H3604 0.960 . S
C3591 C3588 1.511 . S
C3591 H3605 0.961 . S
C3591 H3606 0.961 . S
C3591 H3607 0.961 . S
C3592 C3593 1.370 . S
C3592 C3594 1.363 . S
C3592 H3608 0.931 . S
C3593 C3592 1.370 . S
C3593 C3597 1.408 . S
C3594 C3592 1.363 . S
C3594 C3595 1.370 . S
C3594 C3598 1.524 . S
C3595 C3587 1.503 . S
C3595 C3594 1.370 . S
C3595 C3596 1.403 . S
C3596 C3595 1.403 . S
C3596 C3597 1.404 . S
C3596 C3599 1.539 . S
C3597 C3593 1.408 . S
C3597 C3596 1.404 . S
C3597 H3609 0.930 . S
C3598 C3594 1.524 . S
C3598 H3610 0.956 . S
C3598 H3611 0.961 . S
C3598 H3612 0.961 . S
C3599 C3596 1.539 . S
C3599 H3613 0.958 . S
C3599 H3614 0.961 . S
C3599 H3615 0.960 . S
H3600 C3584 0.931 . S
H3601 C3589 0.929 . S
H3602 C3590 0.960 . S
H3603 C3590 0.962 . S
H3604 C3590 0.960 . S
H3605 C3591 0.961 . S
H3606 C3591 0.961 . S
H3607 C3591 0.961 . S
H3608 C3592 0.931 . S
H3609 C3597 0.930 . S
H3610 C3598 0.956 . S
H3611 C3598 0.961 . S
H3612 C3598 0.961 . S
H3613 C3599 0.958 . S
H3614 C3599 0.961 . S
H3615 C3599 0.960 . S
C3616 C3617 1.391 1_565 S
C3616 C3618 1.394 . S
C3616 H3632 0.931 . S
C3617 C3616 1.391 1_545 S
C3617 C3621 1.376 . S
C3618 C3616 1.394 . S
C3618 C3619 1.369 . S
C3618 C3622 1.531 . S
C3619 C3618 1.369 . S
C3619 C3620 1.410 . S
C3619 C3627 1.503 . S
C3620 C3619 1.410 . S
C3620 C3621 1.392 1_565 S
C3620 C3623 1.511 . S
C3621 C3617 1.376 . S
C3621 C3620 1.392 1_545 S
C3621 H3633 0.929 . S
C3622 C3618 1.531 . S
C3622 H3634 0.960 . S
C3622 H3635 0.962 . S
C3622 H3636 0.960 . S
C3623 C3620 1.511 . S
C3623 H3637 0.961 1_565 S
C3623 H3638 0.961 . S
C3623 H3639 0.961 . S
C3624 C3625 1.370 . S
C3624 C3626 1.363 . S
C3624 H3640 0.931 . S
C3625 C3624 1.370 . S
C3625 C3629 1.408 . S
C3626 C3624 1.363 . S
C3626 C3627 1.370 . S
C3626 C3630 1.524 . S
C3627 C3619 1.503 . S
C3627 C3626 1.370 . S
C3627 C3628 1.403 . S
C3628 C3627 1.403 . S
C3628 C3629 1.404 . S
C3628 C3631 1.539 . S
C3629 C3625 1.408 . S
C3629 C3628 1.404 . S
C3629 H3641 0.930 . S
C3630 C3626 1.524 . S
C3630 H3642 0.956 . S
C3630 H3643 0.961 . S
C3630 H3644 0.961 . S
C3631 C3628 1.539 . S
C3631 H3645 0.958 . S
C3631 H3646 0.961 . S
C3631 H3647 0.960 . S
H3632 C3616 0.931 . S
H3633 C3621 0.929 . S
H3634 C3622 0.960 . S
H3635 C3622 0.962 . S
H3636 C3622 0.960 . S
H3637 C3623 0.961 1_545 S
H3638 C3623 0.961 . S
H3639 C3623 0.961 . S
H3640 C3624 0.931 . S
H3641 C3629 0.930 . S
H3642 C3630 0.956 . S
H3643 C3630 0.961 . S
H3644 C3630 0.961 . S
H3645 C3631 0.958 . S
H3646 C3631 0.961 . S
H3647 C3631 0.960 . S
C3648 C3649 1.391 . S
C3648 C3650 1.394 . S
C3648 H3664 0.931 . S
C3649 C3648 1.391 . S
C3649 C3653 1.376 . S
C3650 C3648 1.394 . S
C3650 C3651 1.369 . S
C3650 C3654 1.531 . S
C3651 C3650 1.369 . S
C3651 C3652 1.410 . S
C3651 C3659 1.503 . S
C3652 C3651 1.410 . S
C3652 C3653 1.392 . S
C3652 C3655 1.511 . S
C3653 C3649 1.376 . S
C3653 C3652 1.392 . S
C3653 H3665 0.929 . S
C3654 C3650 1.531 . S
C3654 H3666 0.960 . S
C3654 H3667 0.962 . S
C3654 H3668 0.960 . S
C3655 C3652 1.511 . S
C3655 H3669 0.961 . S
C3655 H3670 0.961 . S
C3655 H3671 0.961 . S
C3656 C3657 1.370 1_565 S
C3656 C3658 1.363 . S
C3656 H3672 0.931 . S
C3657 C3656 1.370 1_545 S
C3657 C3661 1.408 . S
C3658 C3656 1.363 . S
C3658 C3659 1.370 . S
C3658 C3662 1.524 . S
C3659 C3651 1.503 . S
C3659 C3658 1.370 . S
C3659 C3660 1.403 . S
C3660 C3659 1.403 . S
C3660 C3661 1.404 1_565 S
C3660 C3663 1.539 . S
C3661 C3657 1.408 . S
C3661 C3660 1.404 1_545 S
C3661 H3673 0.930 . S
C3662 C3658 1.524 . S
C3662 H3674 0.956 . S
C3662 H3675 0.961 . S
C3662 H3676 0.961 . S
C3663 C3660 1.539 . S
C3663 H3677 0.958 1_565 S
C3663 H3678 0.961 1_565 S
C3663 H3679 0.960 . S
H3664 C3648 0.931 . S
H3665 C3653 0.929 . S
H3666 C3654 0.960 . S
H3667 C3654 0.962 . S
H3668 C3654 0.960 . S
H3669 C3655 0.961 . S
H3670 C3655 0.961 . S
H3671 C3655 0.961 . S
H3672 C3656 0.931 . S
H3673 C3661 0.930 . S
H3674 C3662 0.956 . S
H3675 C3662 0.961 . S
H3676 C3662 0.961 . S
H3677 C3663 0.958 1_545 S
H3678 C3663 0.961 1_545 S
H3679 C3663 0.960 . S
C3680 C3681 1.391 . S
C3680 C3682 1.394 . S
C3680 H3696 0.931 . S
C3681 C3680 1.391 . S
C3681 C3685 1.376 . S
C3682 C3680 1.394 . S
C3682 C3683 1.369 . S
C3682 C3686 1.531 . S
C3683 C3682 1.369 . S
C3683 C3684 1.410 . S
C3683 C3691 1.503 . S
C3684 C3683 1.410 . S
C3684 C3685 1.392 . S
C3684 C3687 1.511 . S
C3685 C3681 1.376 . S
C3685 C3684 1.392 . S
C3685 H3697 0.929 . S
C3686 C3682 1.531 . S
C3686 H3698 0.960 . S
C3686 H3699 0.962 . S
C3686 H3700 0.960 . S
C3687 C3684 1.511 . S
C3687 H3701 0.961 . S
C3687 H3702 0.961 . S
C3687 H3703 0.961 . S
C3688 C3689 1.370 . S
C3688 C3690 1.363 . S
C3688 H3704 0.931 . S
C3689 C3688 1.370 . S
C3689 C3693 1.408 . S
C3690 C3688 1.363 . S
C3690 C3691 1.370 . S
C3690 C3694 1.524 . S
C3691 C3683 1.503 . S
C3691 C3690 1.370 . S
C3691 C3692 1.403 . S
C3692 C3691 1.403 . S
C3692 C3693 1.404 . S
C3692 C3695 1.539 . S
C3693 C3689 1.408 . S
C3693 C3692 1.404 . S
C3693 H3705 0.930 . S
C3694 C3690 1.524 . S
C3694 H3706 0.956 . S
C3694 H3707 0.961 . S
C3694 H3708 0.961 . S
C3695 C3692 1.539 . S
C3695 H3709 0.958 . S
C3695 H3710 0.961 . S
C3695 H3711 0.960 . S
H3696 C3680 0.931 . S
H3697 C3685 0.929 . S
H3698 C3686 0.960 . S
H3699 C3686 0.962 . S
H3700 C3686 0.960 . S
H3701 C3687 0.961 . S
H3702 C3687 0.961 . S
H3703 C3687 0.961 . S
H3704 C3688 0.931 . S
H3705 C3693 0.930 . S
H3706 C3694 0.956 . S
H3707 C3694 0.961 . S
H3708 C3694 0.961 . S
H3709 C3695 0.958 . S
H3710 C3695 0.961 . S
H3711 C3695 0.960 . S
C3712 C3713 1.391 . S
C3712 C3714 1.394 . S
C3712 H3728 0.931 . S
C3713 C3712 1.391 . S
C3713 C3717 1.376 . S
C3714 C3712 1.394 . S
C3714 C3715 1.369 . S
C3714 C3718 1.531 . S
C3715 C3714 1.369 . S
C3715 C3716 1.410 . S
C3715 C3723 1.503 . S
C3716 C3715 1.410 . S
C3716 C3717 1.392 . S
C3716 C3719 1.511 1_554 S
C3717 C3713 1.376 . S
C3717 C3716 1.392 . S
C3717 H3729 0.927 1_554 S
C3718 C3714 1.531 . S
C3718 H3730 0.960 . S
C3718 H3731 0.962 . S
C3718 H3732 0.960 . S
C3719 C3716 1.511 1_556 S
C3719 H3733 0.961 . S
C3719 H3734 0.961 . S
C3719 H3735 0.961 1_556 S
C3720 C3721 1.370 . S
C3720 C3722 1.363 . S
C3720 H3736 0.931 . S
C3721 C3720 1.370 . S
C3721 C3725 1.408 . S
C3722 C3720 1.363 . S
C3722 C3723 1.370 . S
C3722 C3726 1.524 . S
C3723 C3715 1.503 . S
C3723 C3722 1.370 . S
C3723 C3724 1.403 . S
C3724 C3723 1.403 . S
C3724 C3725 1.404 . S
C3724 C3727 1.539 . S
C3725 C3721 1.408 . S
C3725 C3724 1.404 . S
C3725 H3737 0.930 . S
C3726 C3722 1.524 . S
C3726 H3738 0.956 . S
C3726 H3739 0.961 1_554 S
C3726 H3740 0.961 1_554 S
C3727 C3724 1.539 . S
C3727 H3741 0.958 . S
C3727 H3742 0.961 . S
C3727 H3743 0.960 . S
H3728 C3712 0.931 . S
H3729 C3717 0.927 1_556 S
H3730 C3718 0.960 . S
H3731 C3718 0.962 . S
H3732 C3718 0.960 . S
H3733 C3719 0.961 . S
H3734 C3719 0.961 . S
H3735 C3719 0.961 1_554 S
H3736 C3720 0.931 . S
H3737 C3725 0.930 . S
H3738 C3726 0.956 . S
H3739 C3726 0.961 1_556 S
H3740 C3726 0.961 1_556 S
H3741 C3727 0.958 . S
H3742 C3727 0.961 . S
H3743 C3727 0.960 . S
C3744 C3745 1.391 . S
C3744 C3746 1.394 . S
C3744 H3760 0.931 . S
C3745 C3744 1.391 . S
C3745 C3749 1.376 . S
C3746 C3744 1.394 . S
C3746 C3747 1.369 . S
C3746 C3750 1.531 . S
C3747 C3746 1.369 . S
C3747 C3748 1.410 . S
C3747 C3755 1.503 . S
C3748 C3747 1.410 . S
C3748 C3749 1.392 . S
C3748 C3751 1.511 . S
C3749 C3745 1.376 . S
C3749 C3748 1.392 . S
C3749 H3761 0.929 . S
C3750 C3746 1.531 . S
C3750 H3762 0.960 . S
C3750 H3763 0.962 . S
C3750 H3764 0.960 . S
C3751 C3748 1.511 . S
C3751 H3765 0.961 . S
C3751 H3766 0.961 . S
C3751 H3767 0.961 . S
C3752 C3753 1.370 . S
C3752 C3754 1.363 . S
C3752 H3768 0.931 . S
C3753 C3752 1.370 . S
C3753 C3757 1.408 . S
C3754 C3752 1.363 . S
C3754 C3755 1.370 . S
C3754 C3758 1.524 . S
C3755 C3747 1.503 . S
C3755 C3754 1.370 . S
C3755 C3756 1.403 . S
C3756 C3755 1.403 . S
C3756 C3757 1.404 . S
C3756 C3759 1.539 . S
C3757 C3753 1.408 . S
C3757 C3756 1.404 . S
C3757 H3769 0.930 . S
C3758 C3754 1.524 . S
C3758 H3770 0.956 . S
C3758 H3771 0.961 . S
C3758 H3772 0.961 . S
C3759 C3756 1.539 . S
C3759 H3773 0.958 . S
C3759 H3774 0.961 . S
C3759 H3775 0.960 . S
H3760 C3744 0.931 . S
H3761 C3749 0.929 . S
H3762 C3750 0.960 . S
H3763 C3750 0.962 . S
H3764 C3750 0.960 . S
H3765 C3751 0.961 . S
H3766 C3751 0.961 . S
H3767 C3751 0.961 . S
H3768 C3752 0.931 . S
H3769 C3757 0.930 . S
H3770 C3758 0.956 . S
H3771 C3758 0.961 . S
H3772 C3758 0.961 . S
H3773 C3759 0.958 . S
H3774 C3759 0.961 . S
H3775 C3759 0.960 . S
C3776 C3777 1.391 . S
C3776 C3778 1.394 1_545 S
C3776 H3792 0.931 . S
C3777 C3776 1.391 . S
C3777 C3781 1.376 . S
C3778 C3776 1.394 1_565 S
C3778 C3779 1.369 . S
C3778 C3782 1.531 . S
C3779 C3778 1.369 . S
C3779 C3780 1.410 . S
C3779 C3787 1.503 . S
C3780 C3779 1.410 . S
C3780 C3781 1.392 1_565 S
C3780 C3783 1.511 . S
C3781 C3777 1.376 . S
C3781 C3780 1.392 1_545 S
C3781 H3793 0.929 . S
C3782 C3778 1.531 . S
C3782 H3794 0.960 . S
C3782 H3795 0.962 . S
C3782 H3796 0.960 . S
C3783 C3780 1.511 . S
C3783 H3797 0.961 1_565 S
C3783 H3798 0.961 . S
C3783 H3799 0.961 . S
C3784 C3785 1.370 . S
C3784 C3786 1.363 . S
C3784 H3800 0.931 . S
C3785 C3784 1.370 . S
C3785 C3789 1.408 . S
C3786 C3784 1.363 . S
C3786 C3787 1.370 . S
C3786 C3790 1.524 . S
C3787 C3779 1.503 . S
C3787 C3786 1.370 . S
C3787 C3788 1.403 . S
C3788 C3787 1.403 . S
C3788 C3789 1.404 . S
C3788 C3791 1.539 . S
C3789 C3785 1.408 . S
C3789 C3788 1.404 . S
C3789 H3801 0.930 . S
C3790 C3786 1.524 . S
C3790 H3802 0.956 . S
C3790 H3803 0.961 . S
C3790 H3804 0.961 . S
C3791 C3788 1.539 . S
C3791 H3805 0.958 . S
C3791 H3806 0.961 . S
C3791 H3807 0.960 . S
H3792 C3776 0.931 . S
H3793 C3781 0.929 . S
H3794 C3782 0.960 . S
H3795 C3782 0.962 . S
H3796 C3782 0.960 . S
H3797 C3783 0.961 1_545 S
H3798 C3783 0.961 . S
H3799 C3783 0.961 . S
H3800 C3784 0.931 . S
H3801 C3789 0.930 . S
H3802 C3790 0.956 . S
H3803 C3790 0.961 . S
H3804 C3790 0.961 . S
H3805 C3791 0.958 . S
H3806 C3791 0.961 . S
H3807 C3791 0.960 . S
C3808 C3809 1.391 . S
C3808 C3810 1.394 . S
C3808 H3824 0.931 . S
C3809 C3808 1.391 . S
C3809 C3813 1.376 . S
C3810 C3808 1.394 . S
C3810 C3811 1.369 . S
C3810 C3814 1.531 . S
C3811 C3810 1.369 . S
C3811 C3812 1.410 . S
C3811 C3819 1.503 . S
C3812 C3811 1.410 . S
C3812 C3813 1.392 . S
C3812 C3815 1.511 . S
C3813 C3809 1.376 . S
C3813 C3812 1.392 . S
C3813 H3825 0.929 . S
C3814 C3810 1.531 . S
C3814 H3826 0.960 . S
C3814 H3827 0.962 . S
C3814 H3828 0.960 . S
C3815 C3812 1.511 . S
C3815 H3829 0.961 . S
C3815 H3830 0.961 . S
C3815 H3831 0.961 . S
C3816 C3817 1.370 . S
C3816 C3818 1.363 . S
C3816 H3832 0.931 . S
C3817 C3816 1.370 . S
C3817 C3821 1.408 . S
C3818 C3816 1.363 . S
C3818 C3819 1.370 . S
C3818 C3822 1.524 . S
C3819 C3811 1.503 . S
C3819 C3818 1.370 . S
C3819 C3820 1.403 . S
C3820 C3819 1.403 . S
C3820 C3821 1.404 . S
C3820 C3823 1.539 . S
C3821 C3817 1.408 . S
C3821 C3820 1.404 . S
C3821 H3833 0.930 . S
C3822 C3818 1.524 . S
C3822 H3834 0.956 . S
C3822 H3835 0.961 . S
C3822 H3836 0.961 . S
C3823 C3820 1.539 . S
C3823 H3837 0.958 . S
C3823 H3838 0.961 . S
C3823 H3839 0.960 . S
H3824 C3808 0.931 . S
H3825 C3813 0.929 . S
H3826 C3814 0.960 . S
H3827 C3814 0.962 . S
H3828 C3814 0.960 . S
H3829 C3815 0.961 . S
H3830 C3815 0.961 . S
H3831 C3815 0.961 . S
H3832 C3816 0.931 . S
H3833 C3821 0.930 . S
H3834 C3822 0.956 . S
H3835 C3822 0.961 . S
H3836 C3822 0.961 . S
H3837 C3823 0.958 . S
H3838 C3823 0.961 . S
H3839 C3823 0.960 . S
C3840 C3841 1.391 . S
C3840 C3842 1.394 . S
C3840 H3856 0.931 . S
C3841 C3840 1.391 . S
C3841 C3845 1.376 . S
C3842 C3840 1.394 . S
C3842 C3843 1.369 . S
C3842 C3846 1.531 . S
C3843 C3842 1.369 . S
C3843 C3844 1.410 . S
C3843 C3851 1.503 . S
C3844 C3843 1.410 . S
C3844 C3845 1.392 . S
C3844 C3847 1.511 . S
C3845 C3841 1.376 . S
C3845 C3844 1.392 . S
C3845 H3857 0.929 . S
C3846 C3842 1.531 . S
C3846 H3858 0.960 . S
C3846 H3859 0.962 . S
C3846 H3860 0.960 . S
C3847 C3844 1.511 . S
C3847 H3861 0.961 . S
C3847 H3862 0.961 . S
C3847 H3863 0.961 . S
C3848 C3849 1.370 . S
C3848 C3850 1.363 . S
C3848 H3864 0.931 . S
C3849 C3848 1.370 . S
C3849 C3853 1.408 . S
C3850 C3848 1.363 . S
C3850 C3851 1.370 . S
C3850 C3854 1.524 . S
C3851 C3843 1.503 . S
C3851 C3850 1.370 . S
C3851 C3852 1.403 . S
C3852 C3851 1.403 . S
C3852 C3853 1.404 . S
C3852 C3855 1.539 . S
C3853 C3849 1.408 . S
C3853 C3852 1.404 . S
C3853 H3865 0.930 . S
C3854 C3850 1.524 . S
C3854 H3866 0.956 . S
C3854 H3867 0.961 . S
C3854 H3868 0.961 . S
C3855 C3852 1.539 . S
C3855 H3869 0.958 . S
C3855 H3870 0.961 . S
C3855 H3871 0.960 . S
H3856 C3840 0.931 . S
H3857 C3845 0.929 . S
H3858 C3846 0.960 . S
H3859 C3846 0.962 . S
H3860 C3846 0.960 . S
H3861 C3847 0.961 . S
H3862 C3847 0.961 . S
H3863 C3847 0.961 . S
H3864 C3848 0.931 . S
H3865 C3853 0.930 . S
H3866 C3854 0.956 . S
H3867 C3854 0.961 . S
H3868 C3854 0.961 . S
H3869 C3855 0.958 . S
H3870 C3855 0.961 . S
H3871 C3855 0.960 . S
C3872 C3873 1.391 . S
C3872 C3874 1.394 . S
C3872 H3888 0.931 . S
C3873 C3872 1.391 . S
C3873 C3877 1.376 . S
C3874 C3872 1.394 . S
C3874 C3875 1.369 . S
C3874 C3878 1.531 . S
C3875 C3874 1.369 . S
C3875 C3876 1.410 . S
C3875 C3883 1.503 . S
C3876 C3875 1.410 . S
C3876 C3877 1.392 . S
C3876 C3879 1.511 . S
C3877 C3873 1.376 . S
C3877 C3876 1.392 . S
C3877 H3889 0.929 . S
C3878 C3874 1.531 . S
C3878 H3890 0.960 . S
C3878 H3891 0.962 . S
C3878 H3892 0.960 . S
C3879 C3876 1.511 . S
C3879 H3893 0.961 . S
C3879 H3894 0.961 . S
C3879 H3895 0.961 . S
C3880 C3881 1.370 . S
C3880 C3882 1.363 . S
C3880 H3896 0.931 . S
C3881 C3880 1.370 . S
C3881 C3885 1.408 . S
C3882 C3880 1.363 . S
C3882 C3883 1.370 . S
C3882 C3886 1.524 . S
C3883 C3875 1.503 . S
C3883 C3882 1.370 . S
C3883 C3884 1.403 . S
C3884 C3883 1.403 . S
C3884 C3885 1.404 . S
C3884 C3887 1.539 . S
C3885 C3881 1.408 . S
C3885 C3884 1.404 . S
C3885 H3897 0.930 . S
C3886 C3882 1.524 . S
C3886 H3898 0.956 . S
C3886 H3899 0.961 . S
C3886 H3900 0.961 . S
C3887 C3884 1.539 . S
C3887 H3901 0.958 . S
C3887 H3902 0.961 . S
C3887 H3903 0.960 . S
H3888 C3872 0.931 . S
H3889 C3877 0.929 . S
H3890 C3878 0.960 . S
H3891 C3878 0.962 . S
H3892 C3878 0.960 . S
H3893 C3879 0.961 . S
H3894 C3879 0.961 . S
H3895 C3879 0.961 . S
H3896 C3880 0.931 . S
H3897 C3885 0.930 . S
H3898 C3886 0.956 . S
H3899 C3886 0.961 . S
H3900 C3886 0.961 . S
H3901 C3887 0.958 . S
H3902 C3887 0.961 . S
H3903 C3887 0.960 . S
C3904 C3905 1.391 . S
C3904 C3906 1.394 . S
C3904 H3920 0.931 . S
C3905 C3904 1.391 . S
C3905 C3909 1.376 . S
C3906 C3904 1.394 . S
C3906 C3907 1.369 . S
C3906 C3910 1.531 . S
C3907 C3906 1.369 . S
C3907 C3908 1.410 . S
C3907 C3915 1.503 . S
C3908 C3907 1.410 . S
C3908 C3909 1.392 . S
C3908 C3911 1.511 . S
C3909 C3905 1.376 . S
C3909 C3908 1.392 . S
C3909 H3921 0.929 . S
C3910 C3906 1.531 . S
C3910 H3922 0.960 . S
C3910 H3923 0.962 . S
C3910 H3924 0.960 . S
C3911 C3908 1.511 . S
C3911 H3925 0.961 . S
C3911 H3926 0.961 . S
C3911 H3927 0.961 . S
C3912 C3913 1.370 . S
C3912 C3914 1.363 . S
C3912 H3928 0.931 . S
C3913 C3912 1.370 . S
C3913 C3917 1.408 . S
C3914 C3912 1.363 . S
C3914 C3915 1.370 . S
C3914 C3918 1.524 . S
C3915 C3907 1.503 . S
C3915 C3914 1.370 . S
C3915 C3916 1.403 . S
C3916 C3915 1.403 . S
C3916 C3917 1.404 . S
C3916 C3919 1.539 . S
C3917 C3913 1.408 . S
C3917 C3916 1.404 . S
C3917 H3929 0.930 . S
C3918 C3914 1.524 . S
C3918 H3930 0.956 . S
C3918 H3931 0.961 . S
C3918 H3932 0.961 . S
C3919 C3916 1.539 . S
C3919 H3933 0.958 . S
C3919 H3934 0.961 . S
C3919 H3935 0.960 . S
H3920 C3904 0.931 . S
H3921 C3909 0.929 . S
H3922 C3910 0.960 . S
H3923 C3910 0.962 . S
H3924 C3910 0.960 . S
H3925 C3911 0.961 . S
H3926 C3911 0.961 . S
H3927 C3911 0.961 . S
H3928 C3912 0.931 . S
H3929 C3917 0.930 . S
H3930 C3918 0.956 . S
H3931 C3918 0.961 . S
H3932 C3918 0.961 . S
H3933 C3919 0.958 . S
H3934 C3919 0.961 . S
H3935 C3919 0.960 . S
C3936 C3937 1.391 . S
C3936 C3938 1.394 . S
C3936 H3952 0.931 . S
C3937 C3936 1.391 . S
C3937 C3941 1.376 . S
C3938 C3936 1.394 . S
C3938 C3939 1.369 . S
C3938 C3942 1.531 . S
C3939 C3938 1.369 . S
C3939 C3940 1.410 . S
C3939 C3947 1.503 . S
C3940 C3939 1.410 . S
C3940 C3941 1.392 . S
C3940 C3943 1.511 . S
C3941 C3937 1.376 . S
C3941 C3940 1.392 . S
C3941 H3953 0.929 . S
C3942 C3938 1.531 . S
C3942 H3954 0.960 . S
C3942 H3955 0.962 . S
C3942 H3956 0.960 . S
C3943 C3940 1.511 . S
C3943 H3957 0.961 . S
C3943 H3958 0.961 . S
C3943 H3959 0.961 . S
C3944 C3945 1.370 . S
C3944 C3946 1.363 . S
C3944 H3960 0.931 . S
C3945 C3944 1.370 . S
C3945 C3949 1.408 . S
C3946 C3944 1.363 . S
C3946 C3947 1.370 . S
C3946 C3950 1.524 . S
C3947 C3939 1.503 . S
C3947 C3946 1.370 . S
C3947 C3948 1.403 . S
C3948 C3947 1.403 . S
C3948 C3949 1.404 . S
C3948 C3951 1.539 . S
C3949 C3945 1.408 . S
C3949 C3948 1.404 . S
C3949 H3961 0.897 1_556 S
C3950 C3946 1.524 . S
C3950 H3962 0.956 . S
C3950 H3963 0.961 . S
C3950 H3964 0.961 . S
C3951 C3948 1.539 . S
C3951 H3965 0.984 . S
C3951 H3966 0.961 . S
C3951 H3967 0.960 . S
H3952 C3936 0.931 . S
H3953 C3941 0.929 . S
H3954 C3942 0.960 . S
H3955 C3942 0.962 . S
H3956 C3942 0.960 . S
H3957 C3943 0.961 . S
H3958 C3943 0.961 . S
H3959 C3943 0.961 . S
H3960 C3944 0.931 . S
H3961 C3949 0.897 1_554 S
H3962 C3950 0.956 . S
H3963 C3950 0.961 . S
H3964 C3950 0.961 . S
H3965 C3951 0.984 . S
H3966 C3951 0.961 . S
H3967 C3951 0.960 . S
C3968 C3969 1.391 . S
C3968 C3970 1.394 . S
C3968 H3984 0.931 . S
C3969 C3968 1.391 . S
C3969 C3973 1.376 . S
C3970 C3968 1.394 . S
C3970 C3971 1.369 . S
C3970 C3974 1.531 . S
C3971 C3970 1.369 . S
C3971 C3972 1.410 . S
C3971 C3979 1.503 . S
C3972 C3971 1.410 . S
C3972 C3973 1.392 . S
C3972 C3975 1.511 . S
C3973 C3969 1.376 . S
C3973 C3972 1.392 . S
C3973 H3985 0.929 . S
C3974 C3970 1.531 . S
C3974 H3986 0.960 . S
C3974 H3987 0.962 . S
C3974 H3988 0.960 . S
C3975 C3972 1.511 . S
C3975 H3989 0.961 . S
C3975 H3990 0.961 . S
C3975 H3991 0.961 . S
C3976 C3977 1.370 . S
C3976 C3978 1.363 . S
C3976 H3992 0.931 . S
C3977 C3976 1.370 . S
C3977 C3981 1.408 . S
C3978 C3976 1.363 . S
C3978 C3979 1.370 . S
C3978 C3982 1.524 . S
C3979 C3971 1.503 . S
C3979 C3978 1.370 . S
C3979 C3980 1.403 . S
C3980 C3979 1.403 . S
C3980 C3981 1.404 . S
C3980 C3983 1.539 . S
C3981 C3977 1.408 . S
C3981 C3980 1.404 . S
C3981 H3993 0.930 . S
C3982 C3978 1.524 . S
C3982 H3994 0.956 . S
C3982 H3995 0.961 . S
C3982 H3996 0.961 . S
C3983 C3980 1.539 . S
C3983 H3997 0.958 . S
C3983 H3998 0.961 . S
C3983 H3999 0.960 . S
H3984 C3968 0.931 . S
H3985 C3973 0.929 . S
H3986 C3974 0.960 . S
H3987 C3974 0.962 . S
H3988 C3974 0.960 . S
H3989 C3975 0.961 . S
H3990 C3975 0.961 . S
H3991 C3975 0.961 . S
H3992 C3976 0.931 . S
H3993 C3981 0.930 . S
H3994 C3982 0.956 . S
H3995 C3982 0.961 . S
H3996 C3982 0.961 . S
H3997 C3983 0.958 . S
H3998 C3983 0.961 . S
H3999 C3983 0.960 . S
C4000 C4001 1.391 . S
C4000 C4002 1.394 . S
C4000 H4016 0.931 . S
C4001 C4000 1.391 . S
C4001 C4005 1.376 . S
C4002 C4000 1.394 . S
C4002 C4003 1.369 . S
C4002 C4006 1.531 . S
C4003 C4002 1.369 . S
C4003 C4004 1.410 . S
C4003 C4011 1.503 . S
C4004 C4003 1.410 . S
C4004 C4005 1.392 . S
C4004 C4007 1.511 . S
C4005 C4001 1.376 . S
C4005 C4004 1.392 . S
C4005 H4017 0.929 . S
C4006 C4002 1.531 . S
C4006 H4018 0.960 . S
C4006 H4019 0.962 . S
C4006 H4020 0.960 . S
C4007 C4004 1.511 . S
C4007 H4021 0.961 . S
C4007 H4022 0.961 . S
C4007 H4023 0.961 . S
C4008 C4009 1.370 . S
C4008 C4010 1.363 . S
C4008 H4024 0.931 . S
C4009 C4008 1.370 . S
C4009 C4013 1.408 . S
C4010 C4008 1.363 . S
C4010 C4011 1.370 . S
C4010 C4014 1.524 . S
C4011 C4003 1.503 . S
C4011 C4010 1.370 . S
C4011 C4012 1.403 . S
C4012 C4011 1.403 . S
C4012 C4013 1.404 . S
C4012 C4015 1.539 . S
C4013 C4009 1.408 . S
C4013 C4012 1.404 . S
C4013 H4025 0.930 . S
C4014 C4010 1.524 . S
C4014 H4026 0.956 . S
C4014 H4027 0.961 . S
C4014 H4028 0.961 . S
C4015 C4012 1.539 . S
C4015 H4029 0.958 . S
C4015 H4030 0.961 . S
C4015 H4031 0.960 . S
H4016 C4000 0.931 . S
H4017 C4005 0.929 . S
H4018 C4006 0.960 . S
H4019 C4006 0.962 . S
H4020 C4006 0.960 . S
H4021 C4007 0.961 . S
H4022 C4007 0.961 . S
H4023 C4007 0.961 . S
H4024 C4008 0.931 . S
H4025 C4013 0.930 . S
H4026 C4014 0.956 . S
H4027 C4014 0.961 . S
H4028 C4014 0.961 . S
H4029 C4015 0.958 . S
H4030 C4015 0.961 . S
H4031 C4015 0.960 . S
C4032 C4033 1.391 . S
C4032 C4034 1.394 . S
C4032 H4048 0.931 . S
C4033 C4032 1.391 . S
C4033 C4037 1.376 . S
C4034 C4032 1.394 . S
C4034 C4035 1.369 . S
C4034 C4038 1.531 . S
C4035 C4034 1.369 . S
C4035 C4036 1.410 . S
C4035 C4043 1.503 . S
C4036 C4035 1.410 . S
C4036 C4037 1.392 . S
C4036 C4039 1.511 . S
C4037 C4033 1.376 . S
C4037 C4036 1.392 . S
C4037 H4049 0.929 . S
C4038 C4034 1.531 . S
C4038 H4050 0.960 . S
C4038 H4051 0.962 . S
C4038 H4052 0.960 . S
C4039 C4036 1.511 . S
C4039 H4053 0.961 . S
C4039 H4054 0.961 . S
C4039 H4055 0.961 . S
C4040 C4041 1.370 . S
C4040 C4042 1.363 . S
C4040 H4056 0.931 . S
C4041 C4040 1.370 . S
C4041 C4045 1.408 . S
C4042 C4040 1.363 . S
C4042 C4043 1.370 . S
C4042 C4046 1.524 . S
C4043 C4035 1.503 . S
C4043 C4042 1.370 . S
C4043 C4044 1.403 . S
C4044 C4043 1.403 . S
C4044 C4045 1.404 . S
C4044 C4047 1.539 . S
C4045 C4041 1.408 . S
C4045 C4044 1.404 . S
C4045 H4057 0.930 . S
C4046 C4042 1.524 . S
C4046 H4058 0.956 . S
C4046 H4059 0.961 . S
C4046 H4060 0.961 . S
C4047 C4044 1.539 . S
C4047 H4061 0.958 . S
C4047 H4062 0.961 . S
C4047 H4063 0.960 . S
H4048 C4032 0.931 . S
H4049 C4037 0.929 . S
H4050 C4038 0.960 . S
H4051 C4038 0.962 . S
H4052 C4038 0.960 . S
H4053 C4039 0.961 . S
H4054 C4039 0.961 . S
H4055 C4039 0.961 . S
H4056 C4040 0.931 . S
H4057 C4045 0.930 . S
H4058 C4046 0.956 . S
H4059 C4046 0.961 . S
H4060 C4046 0.961 . S
H4061 C4047 0.958 . S
H4062 C4047 0.961 . S
H4063 C4047 0.960 . S
C4064 C4065 1.391 . S
C4064 C4066 1.394 . S
C4064 H4080 0.931 . S
C4065 C4064 1.391 . S
C4065 C4069 1.376 . S
C4066 C4064 1.394 . S
C4066 C4067 1.369 . S
C4066 C4070 1.531 . S
C4067 C4066 1.369 . S
C4067 C4068 1.410 . S
C4067 C4075 1.503 . S
C4068 C4067 1.410 . S
C4068 C4069 1.392 . S
C4068 C4071 1.511 . S
C4069 C4065 1.376 . S
C4069 C4068 1.392 . S
C4069 H4081 0.929 . S
C4070 C4066 1.531 . S
C4070 H4082 0.960 . S
C4070 H4083 0.962 . S
C4070 H4084 0.960 . S
C4071 C4068 1.511 . S
C4071 H4085 0.961 . S
C4071 H4086 0.961 . S
C4071 H4087 0.961 . S
C4072 C4073 1.370 . S
C4072 C4074 1.363 . S
C4072 H4088 0.931 . S
C4073 C4072 1.370 . S
C4073 C4077 1.408 . S
C4074 C4072 1.363 . S
C4074 C4075 1.370 . S
C4074 C4078 1.524 . S
C4075 C4067 1.503 . S
C4075 C4074 1.370 . S
C4075 C4076 1.403 . S
C4076 C4075 1.403 . S
C4076 C4077 1.404 . S
C4076 C4079 1.539 . S
C4077 C4073 1.408 . S
C4077 C4076 1.404 . S
C4077 H4089 0.930 . S
C4078 C4074 1.524 . S
C4078 H4090 0.956 . S
C4078 H4091 0.961 . S
C4078 H4092 0.961 . S
C4079 C4076 1.539 . S
C4079 H4093 0.958 . S
C4079 H4094 0.961 . S
C4079 H4095 0.960 . S
H4080 C4064 0.931 . S
H4081 C4069 0.929 . S
H4082 C4070 0.960 . S
H4083 C4070 0.962 . S
H4084 C4070 0.960 . S
H4085 C4071 0.961 . S
H4086 C4071 0.961 . S
H4087 C4071 0.961 . S
H4088 C4072 0.931 . S
H4089 C4077 0.930 . S
H4090 C4078 0.956 . S
H4091 C4078 0.961 . S
H4092 C4078 0.961 . S
H4093 C4079 0.958 . S
H4094 C4079 0.961 . S
H4095 C4079 0.960 . S
C4096 C4097 1.391 . S
C4096 C4098 1.394 . S
C4096 H4112 0.931 . S
C4097 C4096 1.391 . S
C4097 C4101 1.376 . S
C4098 C4096 1.394 . S
C4098 C4099 1.369 . S
C4098 C4102 1.531 . S
C4099 C4098 1.369 . S
C4099 C4100 1.410 . S
C4099 C4107 1.503 . S
C4100 C4099 1.410 . S
C4100 C4101 1.392 . S
C4100 C4103 1.511 . S
C4101 C4097 1.376 . S
C4101 C4100 1.392 . S
C4101 H4113 0.929 . S
C4102 C4098 1.531 . S
C4102 H4114 0.960 . S
C4102 H4115 0.962 . S
C4102 H4116 0.960 . S
C4103 C4100 1.511 . S
C4103 H4117 0.961 . S
C4103 H4118 0.961 . S
C4103 H4119 0.961 . S
C4104 C4105 1.370 . S
C4104 C4106 1.363 . S
C4104 H4120 0.931 . S
C4105 C4104 1.370 . S
C4105 C4109 1.408 . S
C4106 C4104 1.363 . S
C4106 C4107 1.370 . S
C4106 C4110 1.524 . S
C4107 C4099 1.503 . S
C4107 C4106 1.370 . S
C4107 C4108 1.403 . S
C4108 C4107 1.403 . S
C4108 C4109 1.404 . S
C4108 C4111 1.539 . S
C4109 C4105 1.408 . S
C4109 C4108 1.404 . S
C4109 H4121 0.930 . S
C4110 C4106 1.524 . S
C4110 H4122 0.956 . S
C4110 H4123 0.961 . S
C4110 H4124 0.961 . S
C4111 C4108 1.539 . S
C4111 H4125 0.958 . S
C4111 H4126 0.961 . S
C4111 H4127 0.960 . S
H4112 C4096 0.931 . S
H4113 C4101 0.929 . S
H4114 C4102 0.960 . S
H4115 C4102 0.962 . S
H4116 C4102 0.960 . S
H4117 C4103 0.961 . S
H4118 C4103 0.961 . S
H4119 C4103 0.961 . S
H4120 C4104 0.931 . S
H4121 C4109 0.930 . S
H4122 C4110 0.956 . S
H4123 C4110 0.961 . S
H4124 C4110 0.961 . S
H4125 C4111 0.958 . S
H4126 C4111 0.961 . S
H4127 C4111 0.960 . S
C4128 C4129 1.391 . S
C4128 C4130 1.394 . S
C4128 H4144 0.931 . S
C4129 C4128 1.391 . S
C4129 C4133 1.376 . S
C4130 C4128 1.394 . S
C4130 C4131 1.369 . S
C4130 C4134 1.531 . S
C4131 C4130 1.369 . S
C4131 C4132 1.410 . S
C4131 C4139 1.503 . S
C4132 C4131 1.410 . S
C4132 C4133 1.392 . S
C4132 C4135 1.511 1_455 S
C4133 C4129 1.376 . S
C4133 C4132 1.392 . S
C4133 H4145 0.929 1_455 S
C4134 C4130 1.531 . S
C4134 H4146 0.960 . S
C4134 H4147 0.962 . S
C4134 H4148 0.960 . S
C4135 C4132 1.511 1_655 S
C4135 H4149 0.961 . S
C4135 H4150 0.961 1_655 S
C4135 H4151 0.961 . S
C4136 C4137 1.370 . S
C4136 C4138 1.363 . S
C4136 H4152 0.931 . S
C4137 C4136 1.370 . S
C4137 C4141 1.408 . S
C4138 C4136 1.363 . S
C4138 C4139 1.370 . S
C4138 C4142 1.524 . S
C4139 C4131 1.503 . S
C4139 C4138 1.370 . S
C4139 C4140 1.403 . S
C4140 C4139 1.403 . S
C4140 C4141 1.404 . S
C4140 C4143 1.539 . S
C4141 C4137 1.408 . S
C4141 C4140 1.404 . S
C4141 H4153 0.930 . S
C4142 C4138 1.524 . S
C4142 H4154 0.956 . S
C4142 H4155 0.961 . S
C4142 H4156 0.961 . S
C4143 C4140 1.539 . S
C4143 H4157 0.958 . S
C4143 H4158 0.961 1_455 S
C4143 H4159 0.945 1_455 S
H4144 C4128 0.931 . S
H4145 C4133 0.929 1_655 S
H4146 C4134 0.960 . S
H4147 C4134 0.962 . S
H4148 C4134 0.960 . S
H4149 C4135 0.961 . S
H4150 C4135 0.961 1_455 S
H4151 C4135 0.961 . S
H4152 C4136 0.931 . S
H4153 C4141 0.930 . S
H4154 C4142 0.956 . S
H4155 C4142 0.961 . S
H4156 C4142 0.961 . S
H4157 C4143 0.958 . S
H4158 C4143 0.961 1_655 S
H4159 C4143 0.945 1_655 S
C4160 C4161 1.391 . S
C4160 C4162 1.394 . S
C4160 H4176 0.931 . S
C4161 C4160 1.391 . S
C4161 C4165 1.376 . S
C4162 C4160 1.394 . S
C4162 C4163 1.369 . S
C4162 C4166 1.531 . S
C4163 C4162 1.369 . S
C4163 C4164 1.410 . S
C4163 C4171 1.503 . S
C4164 C4163 1.410 . S
C4164 C4165 1.392 . S
C4164 C4167 1.511 . S
C4165 C4161 1.376 . S
C4165 C4164 1.392 . S
C4165 H4177 0.929 . S
C4166 C4162 1.531 . S
C4166 H4178 0.960 . S
C4166 H4179 0.962 . S
C4166 H4180 0.960 . S
C4167 C4164 1.511 . S
C4167 H4181 0.961 . S
C4167 H4182 0.961 . S
C4167 H4183 0.961 . S
C4168 C4169 1.370 . S
C4168 C4170 1.363 . S
C4168 H4184 0.931 . S
C4169 C4168 1.370 . S
C4169 C4173 1.408 . S
C4170 C4168 1.363 . S
C4170 C4171 1.370 . S
C4170 C4174 1.524 . S
C4171 C4163 1.503 . S
C4171 C4170 1.370 . S
C4171 C4172 1.403 . S
C4172 C4171 1.403 . S
C4172 C4173 1.404 . S
C4172 C4175 1.539 . S
C4173 C4169 1.408 . S
C4173 C4172 1.404 . S
C4173 H4185 0.930 . S
C4174 C4170 1.524 . S
C4174 H4186 0.956 . S
C4174 H4187 0.961 . S
C4174 H4188 0.961 . S
C4175 C4172 1.539 . S
C4175 H4189 0.958 . S
C4175 H4190 0.961 . S
C4175 H4191 0.960 . S
H4176 C4160 0.931 . S
H4177 C4165 0.929 . S
H4178 C4166 0.960 . S
H4179 C4166 0.962 . S
H4180 C4166 0.960 . S
H4181 C4167 0.961 . S
H4182 C4167 0.961 . S
H4183 C4167 0.961 . S
H4184 C4168 0.931 . S
H4185 C4173 0.930 . S
H4186 C4174 0.956 . S
H4187 C4174 0.961 . S
H4188 C4174 0.961 . S
H4189 C4175 0.958 . S
H4190 C4175 0.961 . S
H4191 C4175 0.960 . S
C4192 C4193 1.391 . S
C4192 C4194 1.394 . S
C4192 H4208 0.931 . S
C4193 C4192 1.391 . S
C4193 C4197 1.376 . S
C4194 C4192 1.394 . S
C4194 C4195 1.369 . S
C4194 C4198 1.531 . S
C4195 C4194 1.369 . S
C4195 C4196 1.410 . S
C4195 C4203 1.503 . S
C4196 C4195 1.410 . S
C4196 C4197 1.392 . S
C4196 C4199 1.511 . S
C4197 C4193 1.376 . S
C4197 C4196 1.392 . S
C4197 H4209 0.929 . S
C4198 C4194 1.531 . S
C4198 H4210 0.960 . S
C4198 H4211 0.962 . S
C4198 H4212 0.960 . S
C4199 C4196 1.511 . S
C4199 H4213 0.961 . S
C4199 H4214 0.961 . S
C4199 H4215 0.961 . S
C4200 C4201 1.370 . S
C4200 C4202 1.363 . S
C4200 H4216 0.931 . S
C4201 C4200 1.370 . S
C4201 C4205 1.408 . S
C4202 C4200 1.363 . S
C4202 C4203 1.370 . S
C4202 C4206 1.524 . S
C4203 C4195 1.503 . S
C4203 C4202 1.370 . S
C4203 C4204 1.403 . S
C4204 C4203 1.403 . S
C4204 C4205 1.404 . S
C4204 C4207 1.539 . S
C4205 C4201 1.408 . S
C4205 C4204 1.404 . S
C4205 H4217 0.930 . S
C4206 C4202 1.524 . S
C4206 H4218 0.956 . S
C4206 H4219 0.961 . S
C4206 H4220 0.961 . S
C4207 C4204 1.539 . S
C4207 H4221 0.958 . S
C4207 H4222 0.961 . S
C4207 H4223 0.960 . S
H4208 C4192 0.931 . S
H4209 C4197 0.929 . S
H4210 C4198 0.960 . S
H4211 C4198 0.962 . S
H4212 C4198 0.960 . S
H4213 C4199 0.961 . S
H4214 C4199 0.961 . S
H4215 C4199 0.961 . S
H4216 C4200 0.931 . S
H4217 C4205 0.930 . S
H4218 C4206 0.956 . S
H4219 C4206 0.961 . S
H4220 C4206 0.961 . S
H4221 C4207 0.958 . S
H4222 C4207 0.961 . S
H4223 C4207 0.960 . S
C4224 C4225 1.391 . S
C4224 C4226 1.394 . S
C4224 H4240 0.931 . S
C4225 C4224 1.391 . S
C4225 C4229 1.376 . S
C4226 C4224 1.394 . S
C4226 C4227 1.369 . S
C4226 C4230 1.531 . S
C4227 C4226 1.369 . S
C4227 C4228 1.410 . S
C4227 C4235 1.503 . S
C4228 C4227 1.410 . S
C4228 C4229 1.392 . S
C4228 C4231 1.511 . S
C4229 C4225 1.376 . S
C4229 C4228 1.392 . S
C4229 H4241 0.929 . S
C4230 C4226 1.531 . S
C4230 H4242 0.960 . S
C4230 H4243 0.962 . S
C4230 H4244 0.960 . S
C4231 C4228 1.511 . S
C4231 H4245 0.961 . S
C4231 H4246 0.961 . S
C4231 H4247 0.961 . S
C4232 C4233 1.370 . S
C4232 C4234 1.363 . S
C4232 H4248 0.931 . S
C4233 C4232 1.370 . S
C4233 C4237 1.408 . S
C4234 C4232 1.363 . S
C4234 C4235 1.370 . S
C4234 C4238 1.524 . S
C4235 C4227 1.503 . S
C4235 C4234 1.370 . S
C4235 C4236 1.403 . S
C4236 C4235 1.403 . S
C4236 C4237 1.404 . S
C4236 C4239 1.539 . S
C4237 C4233 1.408 . S
C4237 C4236 1.404 . S
C4237 H4249 0.930 . S
C4238 C4234 1.524 . S
C4238 H4250 0.956 . S
C4238 H4251 0.961 . S
C4238 H4252 0.961 . S
C4239 C4236 1.539 . S
C4239 H4253 0.958 . S
C4239 H4254 0.961 . S
C4239 H4255 0.960 . S
H4240 C4224 0.931 . S
H4241 C4229 0.929 . S
H4242 C4230 0.960 . S
H4243 C4230 0.962 . S
H4244 C4230 0.960 . S
H4245 C4231 0.961 . S
H4246 C4231 0.961 . S
H4247 C4231 0.961 . S
H4248 C4232 0.931 . S
H4249 C4237 0.930 . S
H4250 C4238 0.956 . S
H4251 C4238 0.961 . S
H4252 C4238 0.961 . S
H4253 C4239 0.958 . S
H4254 C4239 0.961 . S
H4255 C4239 0.960 . S
C4256 C4257 1.391 . S
C4256 C4258 1.394 . S
C4256 H4272 0.959 . S
C4257 C4256 1.391 . S
C4257 C4261 1.376 . S
C4258 C4256 1.394 . S
C4258 C4259 1.369 . S
C4258 C4262 1.531 1_455 S
C4259 C4258 1.369 . S
C4259 C4260 1.410 . S
C4259 C4267 1.503 . S
C4260 C4259 1.410 . S
C4260 C4261 1.392 . S
C4260 C4263 1.511 . S
C4261 C4257 1.376 . S
C4261 C4260 1.392 . S
C4261 H4273 0.929 . S
C4262 C4258 1.531 1_655 S
C4262 H4274 0.960 1_655 S
C4262 H4275 0.962 . S
C4262 H4276 0.960 . S
C4263 C4260 1.511 . S
C4263 H4277 0.961 . S
C4263 H4278 0.961 . S
C4263 H4279 0.961 . S
C4264 C4265 1.370 . S
C4264 C4266 1.363 . S
C4264 H4280 0.931 1_455 S
C4265 C4264 1.370 . S
C4265 C4269 1.408 . S
C4266 C4264 1.363 . S
C4266 C4267 1.370 . S
C4266 C4270 1.524 1_455 S
C4267 C4259 1.503 . S
C4267 C4266 1.370 . S
C4267 C4268 1.403 . S
C4268 C4267 1.403 . S
C4268 C4269 1.404 . S
C4268 C4271 1.539 . S
C4269 C4265 1.408 . S
C4269 C4268 1.404 . S
C4269 H4281 0.930 . S
C4270 C4266 1.524 1_655 S
C4270 H4282 0.956 . S
C4270 H4283 0.961 . S
C4270 H4284 0.961 . S
C4271 C4268 1.539 . S
C4271 H4285 0.958 . S
C4271 H4286 0.961 . S
C4271 H4287 0.960 . S
H4272 C4256 0.959 . S
H4273 C4261 0.929 . S
H4274 C4262 0.960 1_455 S
H4275 C4262 0.962 . S
H4276 C4262 0.960 . S
H4277 C4263 0.961 . S
H4278 C4263 0.961 . S
H4279 C4263 0.961 . S
H4280 C4264 0.931 1_655 S
H4281 C4269 0.930 . S
H4282 C4270 0.956 . S
H4283 C4270 0.961 . S
H4284 C4270 0.961 . S
H4285 C4271 0.958 . S
H4286 C4271 0.961 . S
H4287 C4271 0.960 . S
C4288 C4289 1.391 . S
C4288 C4290 1.394 . S
C4288 H4304 0.931 . S
C4289 C4288 1.391 . S
C4289 C4293 1.376 . S
C4290 C4288 1.394 . S
C4290 C4291 1.369 . S
C4290 C4294 1.531 . S
C4291 C4290 1.369 . S
C4291 C4292 1.410 . S
C4291 C4299 1.503 . S
C4292 C4291 1.410 . S
C4292 C4293 1.392 . S
C4292 C4295 1.511 . S
C4293 C4289 1.376 . S
C4293 C4292 1.392 . S
C4293 H4305 0.929 . S
C4294 C4290 1.531 . S
C4294 H4306 0.960 . S
C4294 H4307 0.962 . S
C4294 H4308 0.960 . S
C4295 C4292 1.511 . S
C4295 H4309 0.961 . S
C4295 H4310 0.961 . S
C4295 H4311 0.961 . S
C4296 C4297 1.370 . S
C4296 C4298 1.363 . S
C4296 H4312 0.931 . S
C4297 C4296 1.370 . S
C4297 C4301 1.408 . S
C4298 C4296 1.363 . S
C4298 C4299 1.370 . S
C4298 C4302 1.524 . S
C4299 C4291 1.503 . S
C4299 C4298 1.370 . S
C4299 C4300 1.403 . S
C4300 C4299 1.403 . S
C4300 C4301 1.404 . S
C4300 C4303 1.539 . S
C4301 C4297 1.408 . S
C4301 C4300 1.404 . S
C4301 H4313 0.930 . S
C4302 C4298 1.524 . S
C4302 H4314 0.956 . S
C4302 H4315 0.961 . S
C4302 H4316 0.961 . S
C4303 C4300 1.539 . S
C4303 H4317 0.958 . S
C4303 H4318 0.961 . S
C4303 H4319 0.960 . S
H4304 C4288 0.931 . S
H4305 C4293 0.929 . S
H4306 C4294 0.960 . S
H4307 C4294 0.962 . S
H4308 C4294 0.960 . S
H4309 C4295 0.961 . S
H4310 C4295 0.961 . S
H4311 C4295 0.961 . S
H4312 C4296 0.931 . S
H4313 C4301 0.930 . S
H4314 C4302 0.956 . S
H4315 C4302 0.961 . S
H4316 C4302 0.961 . S
H4317 C4303 0.958 . S
H4318 C4303 0.961 . S
H4319 C4303 0.960 . S
C4320 C4321 1.391 . S
C4320 C4322 1.394 . S
C4320 H4336 0.931 . S
C4321 C4320 1.391 . S
C4321 C4325 1.376 . S
C4322 C4320 1.394 . S
C4322 C4323 1.369 . S
C4322 C4326 1.531 . S
C4323 C4322 1.369 . S
C4323 C4324 1.410 . S
C4323 C4331 1.503 . S
C4324 C4323 1.410 . S
C4324 C4325 1.392 . S
C4324 C4327 1.511 . S
C4325 C4321 1.376 . S
C4325 C4324 1.392 . S
C4325 H4337 0.929 . S
C4326 C4322 1.531 . S
C4326 H4338 0.960 . S
C4326 H4339 0.962 . S
C4326 H4340 0.960 . S
C4327 C4324 1.511 . S
C4327 H4341 0.961 . S
C4327 H4342 0.961 . S
C4327 H4343 0.961 . S
C4328 C4329 1.370 . S
C4328 C4330 1.363 . S
C4328 H4344 0.931 . S
C4329 C4328 1.370 . S
C4329 C4333 1.408 . S
C4330 C4328 1.363 . S
C4330 C4331 1.370 . S
C4330 C4334 1.524 . S
C4331 C4323 1.503 . S
C4331 C4330 1.370 . S
C4331 C4332 1.403 . S
C4332 C4331 1.403 . S
C4332 C4333 1.404 . S
C4332 C4335 1.539 . S
C4333 C4329 1.408 . S
C4333 C4332 1.404 . S
C4333 H4345 0.930 . S
C4334 C4330 1.524 . S
C4334 H4346 0.956 . S
C4334 H4347 0.961 . S
C4334 H4348 0.961 . S
C4335 C4332 1.539 . S
C4335 H4349 0.958 . S
C4335 H4350 0.961 . S
C4335 H4351 0.960 . S
H4336 C4320 0.931 . S
H4337 C4325 0.929 . S
H4338 C4326 0.960 . S
H4339 C4326 0.962 . S
H4340 C4326 0.960 . S
H4341 C4327 0.961 . S
H4342 C4327 0.961 . S
H4343 C4327 0.961 . S
H4344 C4328 0.931 . S
H4345 C4333 0.930 . S
H4346 C4334 0.956 . S
H4347 C4334 0.961 . S
H4348 C4334 0.961 . S
H4349 C4335 0.958 . S
H4350 C4335 0.961 . S
H4351 C4335 0.960 . S
C4352 C4353 1.391 . S
C4352 C4354 1.394 . S
C4352 H4368 0.931 . S
C4353 C4352 1.391 . S
C4353 C4357 1.376 . S
C4354 C4352 1.394 . S
C4354 C4355 1.369 . S
C4354 C4358 1.531 . S
C4355 C4354 1.369 . S
C4355 C4356 1.410 . S
C4355 C4363 1.503 . S
C4356 C4355 1.410 . S
C4356 C4357 1.392 . S
C4356 C4359 1.511 . S
C4357 C4353 1.376 . S
C4357 C4356 1.392 . S
C4357 H4369 0.929 . S
C4358 C4354 1.531 . S
C4358 H4370 0.960 1_565 S
C4358 H4371 0.962 . S
C4358 H4372 0.960 1_565 S
C4359 C4356 1.511 . S
C4359 H4373 0.961 . S
C4359 H4374 0.961 . S
C4359 H4375 0.961 . S
C4360 C4361 1.370 1_565 S
C4360 C4362 1.363 . S
C4360 H4376 0.931 . S
C4361 C4360 1.370 1_545 S
C4361 C4365 1.408 . S
C4362 C4360 1.363 . S
C4362 C4363 1.370 . S
C4362 C4366 1.524 . S
C4363 C4355 1.503 . S
C4363 C4362 1.370 . S
C4363 C4364 1.403 1_565 S
C4364 C4363 1.403 1_545 S
C4364 C4365 1.404 . S
C4364 C4367 1.539 . S
C4365 C4361 1.408 . S
C4365 C4364 1.404 . S
C4365 H4377 0.930 . S
C4366 C4362 1.524 . S
C4366 H4378 0.956 . S
C4366 H4379 0.961 . S
C4366 H4380 0.961 . S
C4367 C4364 1.539 . S
C4367 H4381 0.958 . S
C4367 H4382 0.961 . S
C4367 H4383 0.960 1_545 S
H4368 C4352 0.931 . S
H4369 C4357 0.929 . S
H4370 C4358 0.960 1_545 S
H4371 C4358 0.962 . S
H4372 C4358 0.960 1_545 S
H4373 C4359 0.961 . S
H4374 C4359 0.961 . S
H4375 C4359 0.961 . S
H4376 C4360 0.931 . S
H4377 C4365 0.930 . S
H4378 C4366 0.956 . S
H4379 C4366 0.961 . S
H4380 C4366 0.961 . S
H4381 C4367 0.958 . S
H4382 C4367 0.961 . S
H4383 C4367 0.960 1_565 S
C4384 C4385 1.391 . S
C4384 C4386 1.394 . S
C4384 H4400 0.931 . S
C4385 C4384 1.391 . S
C4385 C4389 1.376 . S
C4386 C4384 1.394 . S
C4386 C4387 1.369 . S
C4386 C4390 1.531 . S
C4387 C4386 1.369 . S
C4387 C4388 1.410 . S
C4387 C4395 1.503 . S
C4388 C4387 1.410 . S
C4388 C4389 1.392 . S
C4388 C4391 1.511 . S
C4389 C4385 1.376 . S
C4389 C4388 1.392 . S
C4389 H4401 0.929 . S
C4390 C4386 1.531 . S
C4390 H4402 0.960 . S
C4390 H4403 0.962 . S
C4390 H4404 0.960 . S
C4391 C4388 1.511 . S
C4391 H4405 0.961 . S
C4391 H4406 0.961 . S
C4391 H4407 0.961 . S
C4392 C4393 1.370 . S
C4392 C4394 1.363 . S
C4392 H4408 0.931 . S
C4393 C4392 1.370 . S
C4393 C4397 1.408 . S
C4394 C4392 1.363 . S
C4394 C4395 1.370 . S
C4394 C4398 1.524 . S
C4395 C4387 1.503 . S
C4395 C4394 1.370 . S
C4395 C4396 1.403 . S
C4396 C4395 1.403 . S
C4396 C4397 1.404 . S
C4396 C4399 1.539 . S
C4397 C4393 1.408 . S
C4397 C4396 1.404 . S
C4397 H4409 0.930 . S
C4398 C4394 1.524 . S
C4398 H4410 0.956 . S
C4398 H4411 0.961 . S
C4398 H4412 0.961 . S
C4399 C4396 1.539 . S
C4399 H4413 0.958 . S
C4399 H4414 0.961 . S
C4399 H4415 0.960 . S
H4400 C4384 0.931 . S
H4401 C4389 0.929 . S
H4402 C4390 0.960 . S
H4403 C4390 0.962 . S
H4404 C4390 0.960 . S
H4405 C4391 0.961 . S
H4406 C4391 0.961 . S
H4407 C4391 0.961 . S
H4408 C4392 0.931 . S
H4409 C4397 0.930 . S
H4410 C4398 0.956 . S
H4411 C4398 0.961 . S
H4412 C4398 0.961 . S
H4413 C4399 0.958 . S
H4414 C4399 0.961 . S
H4415 C4399 0.960 . S
C4416 C4417 1.391 1_554 S
C4416 C4418 1.394 . S
C4416 H4432 0.931 . S
C4417 C4416 1.391 1_556 S
C4417 C4421 1.376 . S
C4418 C4416 1.394 . S
C4418 C4419 1.369 1_554 S
C4418 C4422 1.531 . S
C4419 C4418 1.369 1_556 S
C4419 C4420 1.410 . S
C4419 C4427 1.503 1_556 S
C4420 C4419 1.410 . S
C4420 C4421 1.392 . S
C4420 C4423 1.511 . S
C4421 C4417 1.376 . S
C4421 C4420 1.392 . S
C4421 H4433 0.929 . S
C4422 C4418 1.531 . S
C4422 H4434 0.960 . S
C4422 H4435 0.962 . S
C4422 H4436 0.960 . S
C4423 C4420 1.511 . S
C4423 H4437 0.961 . S
C4423 H4438 0.961 . S
C4423 H4439 0.961 . S
C4424 C4425 1.370 . S
C4424 C4426 1.363 . S
C4424 H4440 0.931 . S
C4425 C4424 1.370 . S
C4425 C4429 1.408 1_554 S
C4426 C4424 1.363 . S
C4426 C4427 1.370 . S
C4426 C4430 1.524 . S
C4427 C4419 1.503 1_554 S
C4427 C4426 1.370 . S
C4427 C4428 1.403 1_554 S
C4428 C4427 1.403 1_556 S
C4428 C4429 1.404 . S
C4428 C4431 1.539 . S
C4429 C4425 1.408 1_556 S
C4429 C4428 1.404 . S
C4429 H4441 0.930 . S
C4430 C4426 1.524 . S
C4430 H4442 0.956 . S
C4430 H4443 0.961 . S
C4430 H4444 0.961 . S
C4431 C4428 1.539 . S
C4431 H4445 0.958 . S
C4431 H4446 0.961 . S
C4431 H4447 0.960 . S
H4432 C4416 0.931 . S
H4433 C4421 0.929 . S
H4434 C4422 0.960 . S
H4435 C4422 0.962 . S
H4436 C4422 0.960 . S
H4437 C4423 0.961 . S
H4438 C4423 0.961 . S
H4439 C4423 0.961 . S
H4440 C4424 0.931 . S
H4441 C4429 0.930 . S
H4442 C4430 0.956 . S
H4443 C4430 0.961 . S
H4444 C4430 0.961 . S
H4445 C4431 0.958 . S
H4446 C4431 0.961 . S
H4447 C4431 0.960 . S
C4448 C4449 1.391 . S
C4448 C4450 1.394 . S
C4448 H4464 0.931 . S
C4449 C4448 1.391 . S
C4449 C4453 1.376 . S
C4450 C4448 1.394 . S
C4450 C4451 1.369 . S
C4450 C4454 1.531 . S
C4451 C4450 1.369 . S
C4451 C4452 1.410 . S
C4451 C4459 1.503 . S
C4452 C4451 1.410 . S
C4452 C4453 1.392 . S
C4452 C4455 1.511 . S
C4453 C4449 1.376 . S
C4453 C4452 1.392 . S
C4453 H4465 0.929 . S
C4454 C4450 1.531 . S
C4454 H4466 0.960 . S
C4454 H4467 0.962 . S
C4454 H4468 0.960 . S
C4455 C4452 1.511 . S
C4455 H4469 0.961 . S
C4455 H4470 0.961 . S
C4455 H4471 0.961 . S
C4456 C4457 1.370 . S
C4456 C4458 1.363 . S
C4456 H4472 0.931 . S
C4457 C4456 1.370 . S
C4457 C4461 1.408 . S
C4458 C4456 1.363 . S
C4458 C4459 1.370 . S
C4458 C4462 1.524 . S
C4459 C4451 1.503 . S
C4459 C4458 1.370 . S
C4459 C4460 1.403 . S
C4460 C4459 1.403 . S
C4460 C4461 1.404 . S
C4460 C4463 1.539 . S
C4461 C4457 1.408 . S
C4461 C4460 1.404 . S
C4461 H4473 0.930 . S
C4462 C4458 1.524 . S
C4462 H4474 0.956 . S
C4462 H4475 0.961 . S
C4462 H4476 0.961 . S
C4463 C4460 1.539 . S
C4463 H4477 0.958 . S
C4463 H4478 0.961 . S
C4463 H4479 0.960 . S
H4464 C4448 0.931 . S
H4465 C4453 0.929 . S
H4466 C4454 0.960 . S
H4467 C4454 0.962 . S
H4468 C4454 0.960 . S
H4469 C4455 0.961 . S
H4470 C4455 0.961 . S
H4471 C4455 0.961 . S
H4472 C4456 0.931 . S
H4473 C4461 0.930 . S
H4474 C4462 0.956 . S
H4475 C4462 0.961 . S
H4476 C4462 0.961 . S
H4477 C4463 0.958 . S
H4478 C4463 0.961 . S
H4479 C4463 0.960 . S
C4480 C4481 1.391 . S
C4480 C4482 1.394 . S
C4480 H4496 0.931 . S
C4481 C4480 1.391 . S
C4481 C4485 1.376 . S
C4482 C4480 1.394 . S
C4482 C4483 1.369 . S
C4482 C4486 1.531 . S
C4483 C4482 1.369 . S
C4483 C4484 1.410 . S
C4483 C4491 1.503 . S
C4484 C4483 1.410 . S
C4484 C4485 1.392 . S
C4484 C4487 1.511 . S
C4485 C4481 1.376 . S
C4485 C4484 1.392 . S
C4485 H4497 0.929 . S
C4486 C4482 1.531 . S
C4486 H4498 0.960 1_554 S
C4486 H4499 0.962 . S
C4486 H4500 0.960 1_554 S
C4487 C4484 1.511 . S
C4487 H4501 0.961 . S
C4487 H4502 0.961 . S
C4487 H4503 0.961 . S
C4488 C4489 1.370 . S
C4488 C4490 1.363 . S
C4488 H4504 0.931 . S
C4489 C4488 1.370 . S
C4489 C4493 1.408 1_554 S
C4490 C4488 1.363 . S
C4490 C4491 1.370 . S
C4490 C4494 1.524 . S
C4491 C4483 1.503 . S
C4491 C4490 1.370 . S
C4491 C4492 1.403 1_554 S
C4492 C4491 1.403 1_556 S
C4492 C4493 1.404 . S
C4492 C4495 1.539 . S
C4493 C4489 1.408 1_556 S
C4493 C4492 1.404 . S
C4493 H4505 0.930 . S
C4494 C4490 1.524 . S
C4494 H4506 0.956 . S
C4494 H4507 0.961 . S
C4494 H4508 0.961 . S
C4495 C4492 1.539 . S
C4495 H4509 0.958 . S
C4495 H4510 0.961 . S
C4495 H4511 0.960 . S
H4496 C4480 0.931 . S
H4497 C4485 0.929 . S
H4498 C4486 0.960 1_556 S
H4499 C4486 0.962 . S
H4500 C4486 0.960 1_556 S
H4501 C4487 0.961 . S
H4502 C4487 0.961 . S
H4503 C4487 0.961 . S
H4504 C4488 0.931 . S
H4505 C4493 0.930 . S
H4506 C4494 0.956 . S
H4507 C4494 0.961 . S
H4508 C4494 0.961 . S
H4509 C4495 0.958 . S
H4510 C4495 0.961 . S
H4511 C4495 0.960 . S
C4512 C4513 1.391 . S
C4512 C4514 1.394 . S
C4512 H4528 0.931 . S
C4513 C4512 1.391 . S
C4513 C4517 1.376 . S
C4514 C4512 1.394 . S
C4514 C4515 1.369 . S
C4514 C4518 1.531 . S
C4515 C4514 1.369 . S
C4515 C4516 1.410 . S
C4515 C4523 1.503 . S
C4516 C4515 1.410 . S
C4516 C4517 1.392 . S
C4516 C4519 1.511 . S
C4517 C4513 1.376 . S
C4517 C4516 1.392 . S
C4517 H4529 0.929 . S
C4518 C4514 1.531 . S
C4518 H4530 0.960 . S
C4518 H4531 0.962 . S
C4518 H4532 0.960 . S
C4519 C4516 1.511 . S
C4519 H4533 0.961 . S
C4519 H4534 0.961 . S
C4519 H4535 0.961 . S
C4520 C4521 1.370 . S
C4520 C4522 1.363 . S
C4520 H4536 0.931 . S
C4521 C4520 1.370 . S
C4521 C4525 1.408 . S
C4522 C4520 1.363 . S
C4522 C4523 1.370 . S
C4522 C4526 1.524 . S
C4523 C4515 1.503 . S
C4523 C4522 1.370 . S
C4523 C4524 1.403 . S
C4524 C4523 1.403 . S
C4524 C4525 1.404 . S
C4524 C4527 1.539 . S
C4525 C4521 1.408 . S
C4525 C4524 1.404 . S
C4525 H4537 0.930 . S
C4526 C4522 1.524 . S
C4526 H4538 0.956 . S
C4526 H4539 0.961 . S
C4526 H4540 0.961 . S
C4527 C4524 1.539 . S
C4527 H4541 0.958 . S
C4527 H4542 0.961 . S
C4527 H4543 0.960 . S
H4528 C4512 0.931 . S
H4529 C4517 0.929 . S
H4530 C4518 0.960 . S
H4531 C4518 0.962 . S
H4532 C4518 0.960 . S
H4533 C4519 0.961 . S
H4534 C4519 0.961 . S
H4535 C4519 0.961 . S
H4536 C4520 0.931 . S
H4537 C4525 0.930 . S
H4538 C4526 0.956 . S
H4539 C4526 0.961 . S
H4540 C4526 0.961 . S
H4541 C4527 0.958 . S
H4542 C4527 0.961 . S
H4543 C4527 0.960 . S
C4544 C4545 1.391 . S
C4544 C4546 1.394 . S
C4544 H4560 0.931 . S
C4545 C4544 1.391 . S
C4545 C4549 1.376 . S
C4546 C4544 1.394 . S
C4546 C4547 1.369 . S
C4546 C4550 1.531 . S
C4547 C4546 1.369 . S
C4547 C4548 1.410 . S
C4547 C4555 1.503 . S
C4548 C4547 1.410 . S
C4548 C4549 1.392 . S
C4548 C4551 1.511 . S
C4549 C4545 1.376 . S
C4549 C4548 1.392 . S
C4549 H4561 0.929 . S
C4550 C4546 1.531 . S
C4550 H4562 0.960 . S
C4550 H4563 0.962 . S
C4550 H4564 0.960 . S
C4551 C4548 1.511 . S
C4551 H4565 0.961 . S
C4551 H4566 0.961 . S
C4551 H4567 0.961 . S
C4552 C4553 1.370 . S
C4552 C4554 1.363 . S
C4552 H4568 0.931 . S
C4553 C4552 1.370 . S
C4553 C4557 1.408 . S
C4554 C4552 1.363 . S
C4554 C4555 1.370 . S
C4554 C4558 1.524 . S
C4555 C4547 1.503 . S
C4555 C4554 1.370 . S
C4555 C4556 1.403 . S
C4556 C4555 1.403 . S
C4556 C4557 1.404 . S
C4556 C4559 1.539 . S
C4557 C4553 1.408 . S
C4557 C4556 1.404 . S
C4557 H4569 0.930 . S
C4558 C4554 1.524 . S
C4558 H4570 0.956 . S
C4558 H4571 0.961 . S
C4558 H4572 0.961 . S
C4559 C4556 1.539 . S
C4559 H4573 0.958 . S
C4559 H4574 0.961 . S
C4559 H4575 0.960 . S
H4560 C4544 0.931 . S
H4561 C4549 0.929 . S
H4562 C4550 0.960 . S
H4563 C4550 0.962 . S
H4564 C4550 0.960 . S
H4565 C4551 0.961 . S
H4566 C4551 0.961 . S
H4567 C4551 0.961 . S
H4568 C4552 0.931 . S
H4569 C4557 0.930 . S
H4570 C4558 0.956 . S
H4571 C4558 0.961 . S
H4572 C4558 0.961 . S
H4573 C4559 0.958 . S
H4574 C4559 0.961 . S
H4575 C4559 0.960 . S
C1505 C255 1.689 1_455 S
C1513 C886 1.745 1_556 S
C1537 C147 1.210 . S
C1545 C906 1.152 . S
C1569 C184 0.640 . S
C1577 C953 0.671 . S
C1609 C1010 1.058 . S
C1601 C220 1.056 . S
C1633 C40 2.541 . S
C1641 C1027 2.532 . S
C1673 C1086 1.835 . S
C1665 C74 1.833 . S
C1705 C1119 2.725 . S
C1697 C110 2.701 . S
C1729 C14 2.401 . S
C1737 C1166 2.417 . S
C1769 C879 1.542 . S
C1761 C579 1.536 . S
C1793 C616 1.516 . S
C1801 C907 1.531 . S
C1833 C946 0.542 . S
C1825 C687 0.603 . S
C1865 C1006 2.195 . S
C1857 C436 2.176 . S
C1889 C580 0.396 . S
C1897 C1033 0.435 1_655 S
C1929 C1079 2.334 . S
C1921 C615 2.349 . S
C1961 C1130 0.571 . S
C1953 C688 0.551 . S
C1993 C1159 2.340 . S
C1985 C435 2.338 . S
C2025 C890 1.690 . S
C2017 C410 1.698 . S
C2049 C722 2.251 . S
C2057 C1186 2.226 . S
C2089 C1250 1.305 . S
C2081 C842 1.362 . S
C2121 C1286 1.393 1_655 S
C2113 C794 1.390 . S
C2145 C302 1.328 . S
C2153 C1170 1.365 . S
C2177 C338 2.542 . S
C2185 C947 2.603 . S
C2209 C830 1.471 . S
C2217 C1319 1.490 . S
C2249 C1353 0.448 . S
C2241 C758 0.328 . S
C2281 C867 1.748 . S
C2273 C158 1.581 . S
C2313 C1359 1.099 . S
C2305 C254 1.136 . S
C2337 C218 0.639 . S
C2345 C970 0.668 . S
C2369 C194 1.053 . S
C2377 C1313 1.021 . S
C2409 C1046 2.499 . S
C2401 C3 2.501 . S
C2433 C111 1.744 . S
C2441 C1227 1.735 . S
C2473 C1106 2.627 1_556 S
C2465 C76 2.606 . S
C2505 C1387 2.499 . S
C2497 C50 2.451 1_655 S
C2537 C866 1.552 . S
C2529 C364 1.559 . S
C2569 C1366 1.418 . S
C2561 C795 1.431 . S
C2593 C292 0.555 . S
C2601 C959 0.545 . S
C2625 C723 2.116 . S
C2633 C1307 2.118 . S
C2657 C363 0.374 . S
C2665 C1050 0.441 . S
C2697 C1226 2.313 . S
C2689 C796 2.292 . S
C2721 C291 0.562 . S
C2729 C1113 0.495 . S
C2753 C724 2.323 . S
C2761 C1386 2.320 . S
C2785 C482 1.708 . S
C2793 C873 1.784 . S
C2817 C434 2.238 . S
C2825 C1199 2.229 . S
C2849 C662 1.243 . S
C2857 C1073 1.277 . S
C2881 C614 1.399 . S
C2889 C1267 1.400 . S
C2921 C1393 1.329 . S
C2913 C698 1.266 . S
C2945 C554 2.517 . S
C2953 C966 2.603 1_565 S
C2985 C986 1.409 . S
C2977 C650 1.406 . S
C3017 C930 0.387 . S
C3009 C506 0.354 . S
C3041 C183 1.734 . S
C3049 C1446 1.729 . S
C3081 C1346 1.156 . S
C3073 C219 1.203 . S
C3105 C256 0.653 . S
C3113 C1473 0.653 . S
C3137 C148 1.060 . S
C3145 C1330 1.052 . S
C3169 C122 2.542 . S
C3177 C1187 2.608 . S
C3209 C1246 1.771 . S
C3201 C2 1.764 1_655 S
C3241 C1279 2.589 . S
C3233 C39 2.581 . S
C3273 C1406 2.469 . S
C3265 C86 2.445 . S
C3305 C1439 1.564 . S
C3297 C651 1.559 . S
C3329 C472 1.531 . S
C3337 C1347 1.516 . S
C3369 C1466 0.594 . S
C3361 C507 0.493 . S
C3401 C1326 2.197 . S
C3393 C544 2.162 . S
C3433 C1193 0.432 . S
C3425 C652 0.395 . S
C3457 C471 2.336 . S
C3465 C1239 2.320 . S
C3497 C1290 0.574 . S
C3489 C508 0.510 . S
C3521 C543 2.357 . S
C3529 C1399 2.359 . S
C3561 C1450 1.693 . S
C3553 C806 1.704 . S
C3585 C326 2.225 . S
C3593 C1026 2.219 . S
C3625 C1090 1.306 . S
C3617 C374 1.346 . S
C3657 C1126 1.426 . S
C3649 C398 1.437 . S
C3689 C1410 1.358 . S
C3681 C770 1.372 . S
C3713 C734 2.533 . S
C3721 C1467 2.594 1_655 S
C3753 C999 1.491 . S
C3745 C362 1.431 . S
C3785 C913 0.420 . S
C3777 C290 0.410 . S
C3809 C230 1.651 . S
C3817 C1427 1.728 . S
C3849 C919 1.097 . S
C3841 C182 1.160 . S
C3873 C146 0.667 . S
C3881 C1490 0.681 . S
C3905 C266 0.918 . S
C3913 C993 1.051 . S
C3937 C75 2.556 . S
C3945 C1206 2.553 1_556 S
C3977 C1067 1.862 . S
C3969 C38 1.860 . S
C4001 C4 2.566 . S
C4009 C1266 2.572 . S
C4033 C112 2.445 . S
C4041 C1147 2.417 . S
C4073 C1426 1.557 . S
C4065 C832 1.557 . S
C4097 C399 1.440 . S
C4105 C926 1.428 . S
C4137 C1479 0.516 . S
C4129 C760 0.532 . S
C4161 C327 2.100 . S
C4169 C987 2.118 . S
C4193 C831 0.456 . S
C4201 C1210 0.410 . S
C4233 C1066 2.310 . S
C4225 C400 2.288 1_556 S
C4257 C759 0.577 . S
C4265 C1273 0.513 . S
C4297 C1146 2.323 . S
C4289 C328 2.326 . S
C4329 C1433 1.795 . S
C4321 C626 1.686 . S
C4361 C1039 2.220 1_655 S
C4353 C542 2.247 . S
C4385 C590 1.146 . S
C4393 C1233 1.283 . S
C4425 C1107 1.396 . S
C4417 C470 1.414 . S
C4449 C518 1.124 . S
C4457 C1153 1.338 . S
C4481 C446 2.503 . S
C4489 C1486 2.592 . S
C4521 C1306 1.415 . S
C4513 C578 1.403 . S
C4553 C1370 0.343 . S
C4545 C686 0.375 . S
