# Generated by pormake.
# Topology zzz, (3,6)-cn, num edge types: 1
# Building blocks:
#     Node 0, Type 0, BuildingBlock: WUSLED_clean_sbu_0, # of connection points: 3
#     Node 1, Type 0, BuildingBlock: WUSLED_clean_sbu_0, # of connection points: 3
#     Node 2, Type 0, BuildingBlock: WUSLED_clean_sbu_0, # of connection points: 3
#     Node 3, Type 0, BuildingBlock: WUSLED_clean_sbu_0, # of connection points: 3
#     Node 4, Type 0, BuildingBlock: WUSLED_clean_sbu_0, # of connection points: 3
#     Node 5, Type 0, BuildingBlock: WUSLED_clean_sbu_0, # of connection points: 3
#     Node 6, Type 0, BuildingBlock: WUSLED_clean_sbu_0, # of connection points: 3
#     Node 7, Type 0, BuildingBlock: WUSLED_clean_sbu_0, # of connection points: 3
#     Node 8, Type 1, BuildingBlock: INOVEN_clean_sbu_0, # of connection points: 6
#     Node 9, Type 1, BuildingBlock: INOVEN_clean_sbu_0, # of connection points: 6
#     Node 10, Type 1, BuildingBlock: INOVEN_clean_sbu_0, # of connection points: 6
#     Node 11, Type 1, BuildingBlock: INOVEN_clean_sbu_0, # of connection points: 6
#     Edge 12, Type (0, 1), BuildingBlock: TEMPAE_clean_linker_10, # of connection points: 2
#     Edge 13, Type (0, 1), BuildingBlock: TEMPAE_clean_linker_10, # of connection points: 2
#     Edge 14, Type (0, 1), BuildingBlock: TEMPAE_clean_linker_10, # of connection points: 2
#     Edge 15, Type (0, 1), BuildingBlock: TEMPAE_clean_linker_10, # of connection points: 2
#     Edge 16, Type (0, 1), BuildingBlock: TEMPAE_clean_linker_10, # of connection points: 2
#     Edge 17, Type (0, 1), BuildingBlock: TEMPAE_clean_linker_10, # of connection points: 2
#     Edge 18, Type (0, 1), BuildingBlock: TEMPAE_clean_linker_10, # of connection points: 2
#     Edge 19, Type (0, 1), BuildingBlock: TEMPAE_clean_linker_10, # of connection points: 2
#     Edge 20, Type (0, 1), BuildingBlock: TEMPAE_clean_linker_10, # of connection points: 2
#     Edge 21, Type (0, 1), BuildingBlock: TEMPAE_clean_linker_10, # of connection points: 2
#     Edge 22, Type (0, 1), BuildingBlock: TEMPAE_clean_linker_10, # of connection points: 2
#     Edge 23, Type (0, 1), BuildingBlock: TEMPAE_clean_linker_10, # of connection points: 2
#     Edge 24, Type (0, 1), BuildingBlock: TEMPAE_clean_linker_10, # of connection points: 2
#     Edge 25, Type (0, 1), BuildingBlock: TEMPAE_clean_linker_10, # of connection points: 2
#     Edge 26, Type (0, 1), BuildingBlock: TEMPAE_clean_linker_10, # of connection points: 2
#     Edge 27, Type (0, 1), BuildingBlock: TEMPAE_clean_linker_10, # of connection points: 2
#     Edge 28, Type (0, 1), BuildingBlock: TEMPAE_clean_linker_10, # of connection points: 2
#     Edge 29, Type (0, 1), BuildingBlock: TEMPAE_clean_linker_10, # of connection points: 2
#     Edge 30, Type (0, 1), BuildingBlock: TEMPAE_clean_linker_10, # of connection points: 2
#     Edge 31, Type (0, 1), BuildingBlock: TEMPAE_clean_linker_10, # of connection points: 2
#     Edge 32, Type (0, 1), BuildingBlock: TEMPAE_clean_linker_10, # of connection points: 2
#     Edge 33, Type (0, 1), BuildingBlock: TEMPAE_clean_linker_10, # of connection points: 2
#     Edge 34, Type (0, 1), BuildingBlock: TEMPAE_clean_linker_10, # of connection points: 2
#     Edge 35, Type (0, 1), BuildingBlock: TEMPAE_clean_linker_10, # of connection points: 2
# Relax obj value: 0.400
# Max RMSD: 0.264
# Mean RMSD: 0.245
data_MOF--net-zzz--node1-WUSLED_clean_sbu_0--node2-INOVEN_clean_sbu_0--edge1-TEMPAE_clean_linker_10
_symmetry_space_group_name_H-M    P1
_symmetry_Int_Tables_number       1
_symmetry_cell_setting            triclinic
loop_
_symmetry_equiv_pos_as_xyz
'x, y, z'
_cell_length_a     64.476937
_cell_length_b     64.584866
_cell_length_c     19.64506
_cell_angle_alpha  90.012928
_cell_angle_beta   89.959225
_cell_angle_gamma 90.265676
loop_
_atom_site_label
_atom_site_type_symbol
_atom_site_fract_x
_atom_site_fract_y
_atom_site_fract_z
_atom_type_partial_charge
C0 C 0.77845 0.51327 0.44533 0.0
C1 C 0.78793 0.49581 0.47404 0.0
C2 C 0.8204 0.51491 0.48992 0.0
C3 C 0.80859 0.4966 0.49607 0.0
C4 C 0.81086 0.53243 0.46103 0.0
C5 C 0.79013 0.53165 0.43919 0.0
U6 U 0.73502 0.52261 0.31431 0.0
O7 O 0.70226 0.53198 0.32642 0.0
O8 O 0.70984 0.50145 0.28457 0.0
C9 C 0.69523 0.51509 0.29673 0.0
C10 C 0.7565 0.51183 0.42252 0.0
C11 C 0.67967 0.51794 0.24191 0.0
C12 C 0.64388 0.52449 0.20833 0.0
C13 C 0.65917 0.5231 0.25887 0.0
C14 C 0.66938 0.51583 0.12265 0.0
C15 C 0.64871 0.5206 0.13962 0.0
C16 C 0.68469 0.51459 0.17312 0.0
C17 C 0.77881 0.54578 0.21486 0.0
C18 C 0.8077 0.56311 0.15983 0.0
C19 C 0.81396 0.5394 0.25323 0.0
C20 C 0.79269 0.53594 0.25909 0.0
C21 C 0.82173 0.55267 0.20252 0.0
C22 C 0.78635 0.5597 0.16608 0.0
C23 C 0.75662 0.54098 0.21888 0.0
O24 O 0.74605 0.52924 0.41827 0.0
O25 O 0.75289 0.49926 0.37121 0.0
O26 O 0.75219 0.52109 0.21798 0.0
O27 O 0.7464 0.55123 0.26585 0.0
H28 H 0.77928 0.48149 0.4797 0.0
H29 H 0.81521 0.48288 0.5189 0.0
H30 H 0.81949 0.54672 0.45447 0.0
H31 H 0.78333 0.54536 0.4169 0.0
H32 H 0.62813 0.52807 0.22332 0.0
H33 H 0.65489 0.52569 0.31152 0.0
H34 H 0.67373 0.51305 0.07018 0.0
H35 H 0.70039 0.51073 0.1584 0.0
H36 H 0.81328 0.57351 0.12055 0.0
H37 H 0.82436 0.53088 0.28611 0.0
H38 H 0.78707 0.525 0.29665 0.0
H39 H 0.7758 0.5675 0.13183 0.0
C40 C 1.00598 0.77942 0.43076 0.0
C41 C 1.01052 0.79556 0.38487 0.0
C42 C 1.00377 0.8215 0.47286 0.0
C43 C 1.00949 0.81634 0.40574 0.0
C44 C 0.99877 0.80531 0.51807 0.0
C45 C 0.99993 0.78456 0.49731 0.0
U46 U 0.99854 0.73378 0.30649 0.0
O47 O 0.0207 0.70919 0.28004 0.0
O48 O 0.99038 0.70096 0.32302 0.0
C49 C 1.00757 0.69422 0.29461 0.0
C50 C 1.00825 0.75724 0.4115 0.0
C51 C 1.00537 0.67797 0.2418 0.0
C52 C 0.01818 0.64616 0.19041 0.0
C53 C 0.01924 0.66131 0.24136 0.0
C54 C 0.98904 0.66386 0.13972 0.0
C55 C 1.00316 0.64727 0.13856 0.0
C56 C 0.99019 0.67912 0.19063 0.0
C57 C 0.97465 0.77527 0.20034 0.0
C58 C 0.97515 0.80609 0.13037 0.0
C59 C 0.96923 0.80905 0.25195 0.0
C60 C 0.97068 0.78754 0.25805 0.0
C61 C 0.97204 0.81843 0.18831 0.0
C62 C 0.97638 0.78462 0.13635 0.0
C63 C 0.97999 0.75335 0.20762 0.0
O64 O 0.99109 0.74619 0.40851 0.0
O65 O 0.02114 0.75317 0.36142 0.0
O66 O 1.00004 0.74984 0.20811 0.0
O67 O 0.96979 0.74309 0.25492 0.0
H68 H 0.01506 0.79215 0.33298 0.0
H69 H 0.01313 0.82838 0.36922 0.0
H70 H 0.99448 0.80865 0.57023 0.0
H71 H 0.9964 0.77245 0.53376 0.0
H72 H 0.02916 0.63352 0.19167 0.0
H73 H 0.03109 0.66011 0.28024 0.0
H74 H 0.97743 0.66536 0.10023 0.0
H75 H 0.97941 0.69193 0.18953 0.0
H76 H 0.97735 0.81314 0.08083 0.0
H77 H 0.96704 0.81838 0.29721 0.0
H78 H 0.96965 0.78062 0.30817 0.0
H79 H 0.97968 0.77542 0.09153 0.0
C80 C 0.74241 0.99874 0.4269 0.0
C81 C 0.73037 0.01554 0.40503 0.0
C82 C 0.70122 1.00409 0.47643 0.0
C83 C 0.70997 0.0181 0.42902 0.0
C84 C 0.71368 0.98758 0.49913 0.0
C85 C 0.73388 0.98489 0.47434 0.0
U86 U 0.78859 1.00595 0.30062 0.0
O87 O 0.82221 1.00797 0.32094 0.0
O88 O 0.80963 0.98156 0.26416 0.0
C89 C 0.82639 0.99161 0.28345 0.0
C90 C 0.76379 0.99508 0.40158 0.0
C91 C 0.84302 0.99368 0.23098 0.0
C92 C 0.86953 0.01382 0.17109 0.0
C93 C 0.85391 0.01237 0.22075 0.0
C94 C 0.86384 0.97795 0.14098 0.0
C95 C 0.87469 0.99665 0.1302 0.0
C96 C 0.84833 0.97649 0.19078 0.0
C97 C 0.75401 0.0416 0.19696 0.0
C98 C 0.73415 0.06826 0.14 0.0
C99 C 0.71648 0.04118 0.20324 0.0
C100 C 0.73554 0.0326 0.22064 0.0
C101 C 0.71558 0.05873 0.16105 0.0
C102 C 0.75326 0.05973 0.15792 0.0
C103 C 0.77396 0.03151 0.20914 0.0
O104 O 0.7654 0.98457 0.34455 0.0
O105 O 0.77694 1.01067 0.4051 0.0
O106 O 0.7842 0.0378 0.26319 0.0
O107 O 0.77379 1.01128 0.20187 0.0
H108 H 0.73672 0.02665 0.36939 0.0
H109 H 0.70099 0.03092 0.40955 0.0
H110 H 0.70795 0.97673 0.53674 0.0
H111 H 0.74292 0.97193 0.49259 0.0
H112 H 0.87769 0.0284 0.16524 0.0
H113 H 0.85041 0.02592 0.25105 0.0
H114 H 0.86706 0.96445 0.1101 0.0
H115 H 0.84034 0.96183 0.19758 0.0
H116 H 0.73391 0.08168 0.10696 0.0
H117 H 0.70242 0.03367 0.2209 0.0
H118 H 0.73584 0.01851 0.25051 0.0
H119 H 0.76741 0.06683 0.13925 0.0
C120 C 0.50827 0.74625 0.44616 0.0
C121 C 0.50305 0.72921 0.40472 0.0
C122 C 0.51033 0.70513 0.49771 0.0
C123 C 0.50408 0.70894 0.43016 0.0
C124 C 0.51588 0.72219 0.53862 0.0
C125 C 0.5148 0.74245 0.5132 0.0
U126 U 0.51899 0.7912 0.32033 0.0
O127 O 0.52472 0.82463 0.3369 0.0
O128 O 0.49674 0.81422 0.28328 0.0
C129 C 0.50849 0.83005 0.30056 0.0
C130 C 0.50596 0.768 0.42215 0.0
C131 C 0.51208 0.84567 0.24644 0.0
C132 C 0.51497 0.88184 0.2121 0.0
C133 C 0.51299 0.86678 0.26319 0.0
C134 C 0.51541 0.85488 0.12656 0.0
C135 C 0.51591 0.8761 0.14302 0.0
C136 C 0.51362 0.83984 0.17767 0.0
C137 C 0.5498 0.75128 0.22528 0.0
C138 C 0.56128 0.72322 0.15307 0.0
C139 C 0.54798 0.71589 0.2661 0.0
C140 C 0.54532 0.73705 0.27719 0.0
C141 C 0.55523 0.70872 0.20286 0.0
C142 C 0.55845 0.74437 0.1641 0.0
C143 C 0.54283 0.77272 0.23134 0.0
O144 O 0.5225 0.77995 0.42598 0.0
O145 O 0.49532 0.77084 0.36585 0.0
O146 O 0.52276 0.77499 0.22302 0.0
O147 O 0.55019 0.78308 0.28369 0.0
H148 H 0.49802 0.73151 0.35268 0.0
H149 H 0.50001 0.69621 0.39677 0.0
H150 H 0.52055 0.71993 0.59102 0.0
H151 H 0.51876 0.75525 0.54649 0.0
H152 H 0.51517 0.89802 0.22656 0.0
H153 H 0.51179 0.87166 0.31581 0.0
H154 H 0.51641 0.84989 0.07402 0.0
H155 H 0.51311 0.82364 0.1633 0.0
H156 H 0.56719 0.71813 0.10425 0.0
H157 H 0.54301 0.70514 0.30523 0.0
H158 H 0.53866 0.74224 0.32479 0.0
H159 H 0.562 0.75522 0.12361 0.0
C160 C 0.24364 0.51445 0.96201 0.0
C161 C 0.22655 0.51903 1.00402 0.0
C162 C 0.20242 0.51179 0.91081 0.0
C163 C 0.20622 0.51772 0.97872 0.0
C164 C 0.21952 0.50685 0.86937 0.0
C165 C 0.23983 0.50823 0.89459 0.0
U166 U 0.28985 0.503 0.0824 0.0
O167 O 0.3233 0.49928 0.06149 0.0
O168 O 0.31248 0.52525 0.12368 0.0
C169 C 0.32856 0.51495 0.10074 0.0
C170 C 0.26545 0.51721 0.98571 0.0
C171 C 0.34512 0.51114 0.15124 0.0
C172 C 0.38041 0.51759 0.19024 0.0
C173 C 0.36491 0.51964 0.14074 0.0
C174 C 0.35667 0.49806 0.26118 0.0
C175 C 0.37646 0.50699 0.2516 0.0
C176 C 0.34116 0.50014 0.21155 0.0
C177 C 0.25132 0.46883 0.17134 0.0
C178 C 0.22345 0.45582 0.24227 0.0
C179 C 0.21573 0.47084 0.13207 0.0
C180 C 0.23688 0.47396 0.12077 0.0
C181 C 0.20876 0.46253 0.19418 0.0
C182 C 0.24461 0.45909 0.23105 0.0
C183 C 0.27265 0.4765 0.16623 0.0
O184 O 0.26823 0.52661 0.04443 0.0
O185 O 0.27801 0.50144 0.97696 0.0
O186 O 0.28293 0.47078 0.11159 0.0
O187 O 0.27455 0.49634 0.17975 0.0
H188 H 0.22884 0.5238 0.05633 0.0
H189 H 0.19345 0.52134 0.01245 0.0
H190 H 0.21726 0.50244 0.8167 0.0
H191 H 0.25265 0.50478 0.86082 0.0
H192 H 0.3955 0.52442 0.18051 0.0
H193 H 0.3683 0.5282 0.09459 0.0
H194 H 0.35294 0.49001 0.30798 0.0
H195 H 0.32594 0.49354 0.22086 0.0
H196 H 0.21852 0.44912 0.29019 0.0
H197 H 0.20483 0.47635 0.09431 0.0
H198 H 0.24189 0.48154 0.07441 0.0
H199 H 0.2556 0.45507 0.27055 0.0
C200 C 0.01452 0.24399 0.94691 0.0
C201 C 0.01337 0.2273 0.99284 0.0
C202 C 0.0168 0.20249 0.89939 0.0
C203 C 0.01443 0.20679 0.96931 0.0
C204 C 0.01844 0.21928 0.85394 0.0
C205 C 0.01726 0.23975 0.87743 0.0
U206 U 0.02198 0.28762 0.07819 0.0
O207 O 0.02975 0.32084 0.06675 0.0
O208 O 0.9997 0.31146 0.10935 0.0
C209 C 0.01267 0.32682 0.09756 0.0
C210 C 1.01209 0.26578 0.9697 0.0
C211 C 0.01509 0.34229 0.15308 0.0
C212 C 0.02241 0.37781 0.18845 0.0
C213 C 0.02121 0.36264 0.13742 0.0
C214 C 1.01153 0.35251 0.27211 0.0
C215 C 0.01734 0.37301 0.25638 0.0
C216 C 1.01049 0.33732 0.22119 0.0
C217 C 0.04766 0.24512 0.17714 0.0
C218 C 0.04756 0.21318 0.24149 0.0
C219 C 0.05785 0.21288 0.12282 0.0
C220 C 0.05456 0.23424 0.11948 0.0
C221 C 0.05401 0.20201 0.1836 0.0
C222 C 0.04455 0.2345 0.23831 0.0
C223 C 0.04145 0.26692 0.17264 0.0
O224 O 0.99939 0.26884 0.02107 0.0
O225 O 0.02916 0.27693 0.97391 0.0
O226 O 0.05115 0.27816 0.12665 0.0
O227 O 0.0213 0.26985 0.17352 0.0
H228 H 1.01141 0.2301 0.04683 0.0
H229 H 0.01341 0.19427 1.00589 0.0
H230 H 0.02008 0.2166 0.79979 0.0
H231 H 0.01815 0.25231 0.841 0.0
H232 H 0.02681 0.39344 0.17438 0.0
H233 H 0.02477 0.3669 0.08535 0.0
H234 H 1.00782 0.34818 0.32399 0.0
H235 H 1.00586 0.32174 0.2351 0.0
H236 H 0.04386 0.20537 0.28876 0.0
H237 H 0.06294 0.20487 0.07742 0.0
H238 H 0.05679 0.2421 0.07131 0.0
H239 H 0.03894 0.24258 0.28299 0.0
C240 C 0.27485 0.01622 0.92999 0.0
C241 C 0.28753 0.03383 0.9386 0.0
C242 C 0.31684 0.01622 0.88477 0.0
C243 C 0.30826 0.0338 0.91652 0.0
C244 C 0.30407 0.99864 0.87637 0.0
C245 C 0.2834 0.99867 0.89866 0.0
U246 U 0.23054 0.02345 0.06119 0.0
O247 O 0.19896 0.03591 0.04949 0.0
O248 O 0.20327 1.00337 0.07768 0.0
C249 C 0.19006 0.01862 0.06998 0.0
C250 C 0.25265 0.01584 0.95112 0.0
C251 C 0.17384 0.02028 0.12339 0.0
C252 C 0.14285 1.00593 0.17713 0.0
C253 C 0.15818 1.00514 0.12665 0.0
C254 C 0.15828 0.03732 0.22181 0.0
C255 C 0.14271 0.02197 0.22564 0.0
C256 C 0.17374 0.03644 0.17144 0.0
C257 C 0.27401 0.03796 0.17913 0.0
C258 C 0.30277 0.04562 0.25433 0.0
C259 C 0.30934 0.03314 0.13989 0.0
C260 C 0.28804 0.03237 0.12784 0.0
C261 C 0.3169 0.03933 0.20381 0.0
C262 C 0.28144 0.04494 0.242 0.0
C263 C 0.25172 0.03524 0.16816 0.0
O264 O 0.24736 1.00148 0.99534 0.0
O265 O 0.2437 0.03374 0.96316 0.0
O266 O 0.24329 0.04838 0.12534 0.0
O267 O 0.24597 0.01597 0.15754 0.0
H268 H 0.28148 0.04763 0.96268 0.0
H269 H 0.31762 0.04752 0.9249 0.0
H270 H 0.30992 0.98492 0.85134 0.0
H271 H 0.27398 0.98494 0.89078 0.0
H272 H 0.13101 0.99398 0.17799 0.0
H273 H 0.15787 0.99256 0.09015 0.0
H274 H 0.15879 0.04976 0.25875 0.0
H275 H 0.18569 0.04827 0.17049 0.0
H276 H 0.30822 0.05059 0.30389 0.0
H277 H 0.31983 0.02793 0.10038 0.0
H278 H 0.28244 0.02669 0.07939 0.0
H279 H 0.27076 0.04931 0.28206 0.0
C280 C 0.48763 0.28028 0.9425 0.0
C281 C 0.4707 0.29376 0.93649 0.0
C282 C 0.49335 0.32183 0.89707 0.0
C283 C 0.47351 0.31423 0.91439 0.0
C284 C 0.51036 0.30835 0.90405 0.0
C285 C 0.50755 0.28787 0.92645 0.0
U286 U 0.49659 0.2343 0.0638 0.0
O287 O 0.47387 0.21174 0.10257 0.0
O288 O 0.50093 0.20082 0.04546 0.0
C289 C 0.48477 0.19567 0.08286 0.0
C290 C 0.48401 0.25841 0.96412 0.0
C291 C 0.48816 0.17956 0.13534 0.0
C292 C 0.4872 0.14322 0.1687 0.0
C293 C 0.48529 0.15862 0.11877 0.0
C294 C 0.49515 0.1695 0.25266 0.0
C295 C 0.49196 0.14843 0.23661 0.0
C296 C 0.49332 0.18486 0.2026 0.0
C297 C 0.52869 0.27406 0.15163 0.0
C298 C 0.54991 0.30121 0.20085 0.0
C299 C 0.52299 0.30984 0.11964 0.0
C300 C 0.51817 0.28891 0.11289 0.0
C301 C 0.53854 0.31631 0.16516 0.0
C302 C 0.54493 0.2802 0.19434 0.0
C303 C 0.5217 0.25247 0.14965 0.0
O304 O 0.49965 0.24551 0.95829 0.0
O305 O 0.47352 0.25581 0.02093 0.0
O306 O 0.50176 0.25007 0.16122 0.0
O307 O 0.52837 0.24171 0.09729 0.0
H308 H 0.45518 0.28842 0.94868 0.0
H309 H 0.46004 0.32414 0.91122 0.0
H310 H 0.52586 0.31346 0.8908 0.0
H311 H 0.52099 0.27797 0.93069 0.0
H312 H 0.48498 0.12721 0.15395 0.0
H313 H 0.48134 0.15416 0.0672 0.0
H314 H 0.49857 0.17421 0.30435 0.0
H315 H 0.49558 0.20093 0.21671 0.0
H316 H 0.56222 0.30568 0.23543 0.0
H317 H 0.51372 0.32096 0.092 0.0
H318 H 0.50556 0.28437 0.07966 0.0
H319 H 0.55332 0.26887 0.22407 0.0
Gd320 Gd 0.02342 1.00606 0.74495 0.0
Gd321 Gd 0.99494 0.01958 0.61394 0.0
C322 C 1.00566 0.97098 0.63995 0.0
C323 C 0.03245 0.99467 0.86673 0.0
C324 C 0.02074 0.98205 0.91522 0.0
C325 C 0.02903 0.97708 0.97884 0.0
C326 C 1.00111 0.97458 0.89696 0.0
C327 C 0.99837 0.9562 1.00453 0.0
C328 C 0.98983 0.96219 0.94166 0.0
C329 C 0.01801 0.9641 0.02304 0.0
C330 C 0.04691 0.01605 0.63348 0.0
C331 C 0.01331 0.05471 0.71841 0.0
C332 C 0.9844 0.03016 0.49236 0.0
C333 C 0.9943 0.04187 0.43744 0.0
C334 C 0.98444 0.04363 0.37423 0.0
C335 C 0.01348 0.05163 0.44822 0.0
C336 C 1.01241 0.06575 0.33393 0.0
C337 C 0.02261 0.06331 0.39647 0.0
C338 C 0.99335 0.0557 0.32284 0.0
C339 C 0.97153 1.00942 0.72555 0.0
O340 O 1.01232 0.97526 0.7025 0.0
O341 O 1.00018 0.98555 0.59601 0.0
O342 O 0.039 0.98477 0.8125 0.0
O343 O 0.02408 0.01262 0.85271 0.0
O344 O 0.05478 1.01057 0.69172 0.0
O345 O 0.02756 0.01627 0.64047 0.0
O346 O 1.00604 0.05048 0.65644 0.0
O347 O 0.01909 0.04017 0.76198 0.0
O348 O 0.97937 0.04091 0.54658 0.0
O349 O 0.99306 0.01239 0.50672 0.0
O350 O 0.9636 0.01474 0.66735 0.0
O351 O 0.99085 1.0094 0.71831 0.0
H352 H 0.04425 0.9827 0.99343 0.0
H353 H 0.99469 0.97803 0.84736 0.0
H354 H 0.97468 0.9568 0.9257 0.0
H355 H 0.02536 0.95955 0.07022 0.0
H356 H 0.9696 0.03617 0.36532 0.0
H357 H 0.02111 0.05063 0.49719 0.0
H358 H 0.03708 0.07134 0.40655 0.0
H359 H 0.98513 0.05769 0.27522 0.0
Gd360 Gd 0.51415 0.02772 0.74369 0.0
Gd361 Gd 0.50554 0.99809 0.63724 0.0
C362 C 0.55194 0.01377 0.64535 0.0
C363 C 0.52664 0.04898 0.84776 0.0
C364 C 0.54567 0.05902 0.87174 0.0
C365 C 0.54441 0.0748 0.92048 0.0
C366 C 0.56511 0.05249 0.84851 0.0
C367 C 0.58203 0.07613 0.92753 0.0
C368 C 0.58315 0.06093 0.87629 0.0
C369 C 0.56246 0.08334 0.94818 0.0
C370 C 0.50077 0.04588 0.62662 0.0
C371 C 0.46757 0.01515 0.728 0.0
C372 C 0.49159 0.9779 0.53285 0.0
C373 C 0.48103 0.98466 0.47064 0.0
C374 C 0.46481 0.97266 0.44433 0.0
C375 C 0.48536 1.00413 0.44205 0.0
C376 C 0.45582 1.00048 0.36625 0.0
C377 C 0.47291 0.01196 0.39007 0.0
C378 C 0.45229 0.98049 0.39257 0.0
C379 C 0.51775 0.97972 0.7555 0.0
O380 O 0.54685 0.02002 0.70725 0.0
O381 O 0.53742 1.00742 0.60304 0.0
O382 O 0.51788 0.05728 0.79463 0.0
O383 O 0.52688 0.02875 0.84536 0.0
O384 O 0.49505 0.05138 0.68712 0.0
O385 O 0.51351 0.0312 0.63064 0.0
O386 O 0.47336 1.01017 0.66541 0.0
O387 O 0.48177 0.01948 0.77393 0.0
O388 O 0.481 0.98037 0.58881 0.0
O389 O 0.51091 0.98355 0.5394 0.0
O390 O 0.52324 0.97367 0.69547 0.0
O391 O 0.50542 0.99465 0.74988 0.0
H392 H 0.52945 0.08012 0.93843 0.0
H393 H 0.56636 0.04037 0.81066 0.0
H394 H 0.59794 0.05477 0.85999 0.0
H395 H 0.56111 0.09516 0.98703 0.0
H396 H 0.46115 0.95768 0.4662 0.0
H397 H 0.49783 0.01365 0.46183 0.0
H398 H 0.47616 0.02732 0.37047 0.0
H399 H 0.43906 0.97136 0.37632 0.0
Gd400 Gd 0.49481 0.52006 0.77406 0.0
Gd401 Gd 0.5229 0.50865 0.63901 0.0
C402 C 0.51104 0.55671 0.67255 0.0
C403 C 0.48509 0.52849 0.8982 0.0
C404 C 0.49321 0.54228 0.95208 0.0
C405 C 0.48289 0.56081 0.96705 0.0
C406 C 0.51154 0.53752 0.98744 0.0
C407 C 0.51024 0.5706 0.04604 0.0
C408 C 0.52003 0.5516 0.03375 0.0
C409 C 0.49134 0.57486 0.0134 0.0
C410 C 0.4712 0.51043 0.66239 0.0
C411 C 0.50629 0.47173 0.73917 0.0
C412 C 0.53469 0.50149 0.51598 0.0
C413 C 0.53067 0.48728 0.45961 0.0
C414 C 0.54017 0.491 0.39667 0.0
C415 C 0.51901 0.46919 0.46953 0.0
C416 C 0.5283 0.45751 0.35584 0.0
C417 C 0.51777 0.4544 0.41785 0.0
C418 C 0.53901 0.47621 0.34503 0.0
C419 C 0.54645 0.51949 0.74978 0.0
O420 O 0.5046 0.55173 0.7349 0.0
O421 O 0.51674 0.5427 0.62692 0.0
O422 O 0.4765 0.53764 0.84568 0.0
O423 O 0.49666 0.51265 0.88107 0.0
O424 O 0.46351 0.51647 0.72028 0.0
O425 O 0.49048 0.50931 0.67039 0.0
O426 O 0.51365 0.47678 0.67788 0.0
O427 O 0.49991 0.48567 0.78428 0.0
O428 O 0.54358 0.49328 0.56958 0.0
O429 O 0.51992 0.51463 0.531 0.0
O430 O 0.55423 0.51455 0.69111 0.0
O431 O 0.52712 0.5188 0.7436 0.0
H432 H 0.46858 0.56476 0.94134 0.0
H433 H 0.51957 0.52314 0.97833 0.0
H434 H 0.53442 0.54779 0.05911 0.0
H435 H 0.48353 0.58947 0.02136 0.0
H436 H 0.54919 0.50498 0.38841 0.0
H437 H 0.51159 0.46614 0.51806 0.0
H438 H 0.50959 0.44004 0.42795 0.0
H439 H 0.5471 0.47905 0.29756 0.0
Gd440 Gd 1.00598 0.49897 0.75786 0.0
Gd441 Gd 0.01894 0.52635 0.62328 0.0
C442 C 0.97034 0.51591 0.65343 0.0
C443 C 0.99573 0.48954 0.88075 0.0
C444 C 0.9837 0.49986 0.93391 0.0
C445 C 0.98459 0.49274 1.00116 0.0
C446 C 0.97128 0.51691 0.9177 0.0
C447 C 0.95969 0.51893 0.03514 0.0
C448 C 0.95945 0.52646 0.96802 0.0
C449 C 0.97255 0.50215 0.05152 0.0
C450 C 0.01603 0.4747 0.64848 0.0
C451 C 0.05448 0.51029 0.72909 0.0
C452 C 0.02968 0.53564 0.50065 0.0
C453 C 0.04366 0.52697 0.44841 0.0
C454 C 0.06271 0.53672 0.43496 0.0
C455 C 0.03848 0.50877 0.41277 0.0
C456 C 0.07199 0.50922 0.35619 0.0
C457 C 0.05255 0.49993 0.3673 0.0
C458 C 0.07676 0.52791 0.38952 0.0
C459 C 1.00873 0.55063 0.73269 0.0
O460 O 0.97492 0.50953 0.71609 0.0
O461 O 0.9847 0.52128 0.60826 0.0
O462 O 0.98515 0.48338 0.82731 0.0
O463 O 0.01337 0.49851 0.86517 0.0
O464 O 1.01078 0.46728 0.70753 0.0
O465 O 0.01609 0.49405 0.65368 0.0
O466 O 0.05007 0.51636 0.66598 0.0
O467 O 0.04 0.50499 0.77388 0.0
O468 O 0.03867 0.54367 0.55459 0.0
O469 O 0.01292 0.52491 0.51524 0.0
O470 O 0.01407 0.55801 0.67363 0.0
O471 O 1.00874 0.53126 0.72749 0.0
H472 H 0.99424 0.47966 0.01439 0.0
H473 H 0.97049 0.52263 0.86591 0.0
H474 H 0.94943 0.53916 0.95378 0.0
H475 H 0.97292 0.49605 0.10287 0.0
H476 H 0.067 0.55089 0.461 0.0
H477 H 0.02373 0.50116 0.42082 0.0
H478 H 0.04835 0.48571 0.34144 0.0
H479 H 0.09172 0.53533 0.38258 0.0
C480 C 0.11697 0.04072 0.30049 0.0
C481 C 0.12678 0.02224 0.28115 0.0
C482 C 0.10236 0.04109 0.35398 0.0
C483 C 0.09762 0.0226 0.38978 0.0
C484 C 0.10717 1.00386 0.36952 0.0
C485 C 0.12154 1.0039 0.31561 0.0
C486 C 0.09237 0.06136 0.37314 0.0
C487 C 0.10263 0.98377 0.40609 0.0
C488 C 0.08034 0.02403 0.5752 0.0
C489 C 0.05909 0.01961 0.57037 0.0
C490 C 0.09282 0.02582 0.51677 0.0
C491 C 0.08392 0.02293 0.45149 0.0
C492 C 0.06232 0.01892 0.44621 0.0
C493 C 0.05018 0.01724 0.50578 0.0
C494 C 0.11571 0.03018 0.5251 0.0
C495 C 0.05215 0.01578 0.37779 0.0
H496 H 0.12067 0.05492 0.27361 0.0
H497 H 0.12914 0.98958 0.30163 0.0
H498 H 0.07527 0.05954 0.37588 0.0
H499 H 0.09777 0.06618 0.42439 0.0
H500 H 0.0961 0.0739 0.33635 0.0
H501 H 0.11036 0.97034 0.38168 0.0
H502 H 0.10801 0.98487 0.45962 0.0
H503 H 0.08568 0.9808 0.40734 0.0
H504 H 0.08732 0.02581 0.62507 0.0
H505 H 0.03388 0.01338 0.50191 0.0
H506 H 0.12031 0.04376 0.49391 0.0
H507 H 0.12478 0.01674 0.50663 0.0
H508 H 0.12001 0.03323 0.57894 0.0
H509 H 0.05517 0.02936 0.34461 0.0
H510 H 0.03511 0.01347 0.38211 0.0
H511 H 0.05893 1.00207 0.35217 0.0
C512 C 0.4794 0.1152 0.2912 0.0
C513 C 0.49327 0.13207 0.29063 0.0
C514 C 0.48011 0.10005 0.34275 0.0
C515 C 0.49497 0.10177 0.39554 0.0
C516 C 0.50918 0.11858 0.39487 0.0
C517 C 0.5082 0.13343 0.34254 0.0
C518 C 0.46477 0.08232 0.34119 0.0
C519 C 0.52532 0.12103 0.44999 0.0
C520 C 0.48503 0.07642 0.56797 0.0
C521 C 0.49813 0.05917 0.56554 0.0
C522 C 0.48351 0.09011 0.5125 0.0
C523 C 0.49531 0.08645 0.4528 0.0
C524 C 0.50807 0.06866 0.44933 0.0
C525 C 0.50943 0.05533 0.50585 0.0
C526 C 0.46967 0.10881 0.51849 0.0
C527 C 0.52072 0.06399 0.38656 0.0
H528 H 0.46762 0.11403 0.25206 0.0
H529 H 0.51926 0.14611 0.3422 0.0
H530 H 0.47315 0.06736 0.33962 0.0
H531 H 0.45528 0.08234 0.38832 0.0
H532 H 0.45422 0.0831 0.29659 0.0
H533 H 0.53547 0.13474 0.44163 0.0
H534 H 0.5176 0.12265 0.50021 0.0
H535 H 0.53516 0.10701 0.45238 0.0
H536 H 0.47622 0.07946 0.61388 0.0
H537 H 0.51971 0.04211 0.50381 0.0
H538 H 0.45847 0.10915 0.47565 0.0
H539 H 0.47917 0.12315 0.51527 0.0
H540 H 0.46087 0.10902 0.56713 0.0
H541 H 0.51061 0.0638 0.34089 0.0
H542 H 0.52879 0.04887 0.3902 0.0
H543 H 0.5325 0.07634 0.37882 0.0
C544 C 0.39536 0.48794 0.34513 0.0
C545 C 0.3926 0.50601 0.30638 0.0
C546 C 0.40968 0.4873 0.39926 0.0
C547 C 0.42153 0.50516 0.41554 0.0
C548 C 0.41931 0.52321 0.37526 0.0
C549 C 0.40492 0.52343 0.32144 0.0
C550 C 0.41166 0.46768 0.4404 0.0
C551 C 0.43164 0.54259 0.39058 0.0
C552 C 0.43786 0.5134 0.59971 0.0
C553 C 0.45899 0.50834 0.5986 0.0
C554 C 0.42559 0.51217 0.54084 0.0
C555 C 0.4346 0.50574 0.47862 0.0
C556 C 0.45594 0.50039 0.47713 0.0
C557 C 0.46784 0.50158 0.53738 0.0
C558 C 0.40296 0.51801 0.54523 0.0
C559 C 0.4662 0.4933 0.41218 0.0
H560 H 0.38623 0.47428 0.33336 0.0
H561 H 0.40283 0.53755 0.29254 0.0
H562 H 0.42817 0.46299 0.44347 0.0
H563 H 0.40621 0.47047 0.49319 0.0
H564 H 0.40251 0.45469 0.41841 0.0
H565 H 0.42938 0.55478 0.35142 0.0
H566 H 0.42688 0.54889 0.44075 0.0
H567 H 0.44841 0.53894 0.39375 0.0
H568 H 0.43083 0.51853 0.64692 0.0
H569 H 0.484 0.49717 0.53659 0.0
H570 H 0.39311 0.50488 0.52805 0.0
H571 H 0.39979 0.53127 0.51095 0.0
H572 H 0.39823 0.52233 0.59771 0.0
H573 H 0.46091 0.47736 0.40003 0.0
H574 H 0.48337 0.49326 0.41649 0.0
H575 H 0.46177 0.50339 0.36889 0.0
C576 C 1.00168 0.39062 0.35848 0.0
C577 C 0.01777 0.38933 0.31048 0.0
C578 C 1.00194 0.40568 0.4103 0.0
C579 C 0.01879 0.41978 0.41499 0.0
C580 C 0.03493 0.41878 0.36605 0.0
C581 C 0.03422 0.40362 0.31449 0.0
C582 C 0.98419 0.4064 0.4604 0.0
C583 C 0.05334 0.43322 0.36926 0.0
C584 C 1.01112 0.46844 0.52332 0.0
C585 C 0.01899 0.46205 0.58632 0.0
C586 C 1.01116 0.45497 0.46672 0.0
C587 C 0.01984 0.4349 0.47288 0.0
C588 C 0.02861 0.42882 0.53585 0.0
C589 C 0.02775 0.44232 0.59196 0.0
C590 C 1.00137 0.46195 0.4009 0.0
C591 C 0.03842 0.40781 0.54453 0.0
H592 H 0.98872 0.37992 0.35519 0.0
H593 H 0.04683 0.40265 0.27815 0.0
H594 H 0.98996 0.40303 0.5124 0.0
H595 H 0.97739 0.42215 0.46143 0.0
H596 H 0.97174 0.39507 0.44784 0.0
H597 H 0.06193 0.43367 0.32024 0.0
H598 H 0.04851 0.44917 0.38252 0.0
H599 H 0.06409 0.42786 0.40958 0.0
H600 H 1.00394 0.48352 0.51928 0.0
H601 H 0.03376 0.43732 0.64079 0.0
H602 H 0.98965 0.45046 0.38368 0.0
H603 H 0.01342 0.46299 0.36067 0.0
H604 H 0.99372 0.47726 0.40586 0.0
H605 H 0.02648 0.39553 0.53833 0.0
H606 H 0.04579 0.40597 0.59526 0.0
H607 H 0.05035 0.40534 0.50464 0.0
C608 C 0.90426 0.98157 0.06169 0.0
C609 C 0.89097 0.99825 0.0757 0.0
C610 C 0.91876 0.98242 1.00804 0.0
C611 C 0.92038 1.00056 0.9677 0.0
C612 C 0.90752 0.0177 0.98297 0.0
C613 C 0.89295 0.0163 0.03624 0.0
C614 C 0.93234 0.96386 0.99498 0.0
C615 C 0.90877 0.03741 0.94181 0.0
C616 C 0.96733 1.01079 0.8528 0.0
C617 C 0.95942 1.00559 0.7886 0.0
C618 C 0.95511 1.00862 0.912 0.0
C619 C 0.93439 1.00128 0.90669 0.0
C620 C 0.92656 0.99563 0.84186 0.0
C621 C 0.93908 0.99803 0.78373 0.0
C622 C 0.9642 0.01461 0.97995 0.0
C623 C 0.90479 0.98727 0.83376 0.0
H624 H 0.90335 0.96773 0.09273 0.0
H625 H 0.88271 0.02923 0.04572 0.0
H626 H 0.9337 0.96062 0.93969 0.0
H627 H 0.94812 0.9671 0.01478 0.0
H628 H 0.92637 0.94974 0.02083 0.0
H629 H 0.89879 0.04982 0.96294 0.0
H630 H 0.92502 0.04313 0.94004 0.0
H631 H 0.90388 0.03428 0.88863 0.0
H632 H 0.98289 0.01705 0.85654 0.0
H633 H 0.93288 0.99407 0.73408 0.0
H634 H 0.96321 1.00134 0.01566 0.0
H635 H 0.95513 0.02747 1.00242 0.0
H636 H 0.98069 0.01952 0.97576 0.0
H637 H 0.90248 0.97366 0.86745 0.0
H638 H 0.90137 0.9826 0.7805 0.0
H639 H 0.89341 0.99921 0.84941 0.0
C640 C 0.53014 0.90935 0.09387 0.0
C641 C 0.51686 0.89214 0.08821 0.0
C642 C 0.53116 0.92447 0.04226 0.0
C643 C 0.51844 0.92251 0.98376 0.0
C644 C 0.50487 0.90527 0.97814 0.0
C645 C 0.50432 0.89029 0.03011 0.0
C646 C 0.54602 0.94245 0.04999 0.0
C647 C 0.49086 0.90265 0.91715 0.0
C648 C 0.50643 0.96964 0.87334 0.0
C649 C 0.51921 0.96626 0.81662 0.0
C650 C 0.5063 0.95577 0.9287 0.0
C651 C 0.51947 0.93824 0.9278 0.0
C652 C 0.53297 0.93524 0.8717 0.0
C653 C 0.53258 0.9492 0.81673 0.0
C654 C 0.49157 0.95952 0.98711 0.0
C655 C 0.54746 0.91697 0.86891 0.0
H656 H 0.54001 0.91082 0.13826 0.0
H657 H 0.4938 0.87722 0.02571 0.0
H658 H 0.55728 0.94249 1.00725 0.0
H659 H 0.53744 0.95728 0.04773 0.0
H660 H 0.55475 0.94184 0.09869 0.0
H661 H 0.48089 0.88862 0.92106 0.0
H662 H 0.48076 0.9164 0.91167 0.0
H663 H 0.50031 0.90149 0.8701 0.0
H664 H 0.49604 0.98279 0.87358 0.0
H665 H 0.54258 0.94658 0.7732 0.0
H666 H 0.50017 0.95978 0.03599 0.0
H667 H 0.48014 0.94665 0.99007 0.0
H668 H 0.48302 0.97432 0.98167 0.0
H669 H 0.55704 0.91636 0.91575 0.0
H670 H 0.55793 0.91757 0.82403 0.0
H671 H 0.53832 0.90238 0.86661 0.0
C672 C 0.61741 0.53695 0.08483 0.0
C673 C 0.63225 0.52111 0.08602 0.0
C674 C 0.60205 0.5377 0.03389 0.0
C675 C 0.60143 0.52223 0.98275 0.0
C676 C 0.61612 0.50598 0.98453 0.0
C677 C 0.63135 0.50566 0.0358 0.0
C678 C 0.58695 0.55546 0.03373 0.0
C679 C 0.61586 0.48894 0.93188 0.0
C680 C 0.55283 0.51366 0.87439 0.0
C681 C 0.55883 0.5226 0.81243 0.0
C682 C 0.56637 0.5137 0.93081 0.0
C683 C 0.5861 0.52341 0.92553 0.0
C684 C 0.59173 0.53327 0.86378 0.0
C685 C 0.57819 0.53244 0.80779 0.0
C686 C 0.55989 0.50274 0.99532 0.0
C687 C 0.61238 0.54413 0.85605 0.0
H688 H 0.61807 0.54908 0.12295 0.0
H689 H 0.6425 0.49316 0.03691 0.0
H690 H 0.59146 0.56665 0.99346 0.0
H691 H 0.57105 0.54995 0.02203 0.0
H692 H 0.58672 0.56372 0.08333 0.0
H693 H 0.62767 0.47687 0.9422 0.0
H694 H 0.60033 0.48147 0.93038 0.0
H695 H 0.61884 0.49556 0.88068 0.0
H696 H 0.53808 0.50562 0.87752 0.0
H697 H 0.58289 0.53925 0.7597 0.0
H698 H 0.55847 0.51417 0.03724 0.0
H699 H 0.57186 0.49138 0.01066 0.0
H700 H 0.54485 0.49446 0.98958 0.0
H701 H 0.61458 0.55552 0.89774 0.0
H702 H 0.61379 0.55232 0.80653 0.0
H703 H 0.62511 0.53269 0.85985 0.0
C704 C 0.98398 0.62327 0.05839 0.0
C705 C 1.00278 0.63158 0.08243 0.0
C706 C 0.98356 0.60883 1.00454 0.0
C707 C 1.00237 0.6027 0.97317 0.0
C708 C 0.02139 0.61081 0.99787 0.0
C709 C 0.02136 0.62506 0.05205 0.0
C710 C 0.96295 0.60052 0.98012 0.0
C711 C 0.04181 0.60484 0.96588 0.0
C712 C 1.00583 0.55459 0.86 0.0
C713 C 1.00531 0.56331 0.79475 0.0
C714 C 1.0043 0.56709 0.91871 0.0
C715 C 1.00224 0.58886 0.91188 0.0
C716 C 1.00124 0.59763 0.84587 0.0
C717 C 1.00284 0.58479 0.78834 0.0
C718 C 1.00537 0.55708 0.98802 0.0
C719 C 0.99911 0.62071 0.8359 0.0
H720 H 0.96955 0.628 0.08192 0.0
H721 H 0.03595 0.63153 0.06954 0.0
H722 H 0.95946 0.60703 0.92918 0.0
H723 H 0.96352 0.58344 0.97461 0.0
H724 H 0.95007 0.60458 0.01518 0.0
H725 H 0.0553 0.61172 0.99299 0.0
H726 H 0.0435 0.58775 0.96569 0.0
H727 H 0.04222 0.61007 0.91209 0.0
H728 H 1.00808 0.5381 0.86518 0.0
H729 H 1.00247 0.59165 0.738 0.0
H730 H 0.99094 0.56036 0.01682 0.0
H731 H 0.01845 0.56374 0.01759 0.0
H732 H 1.00743 0.54004 0.98486 0.0
H733 H 0.98531 0.62648 0.86367 0.0
H734 H 0.99762 0.625 0.78137 0.0
H735 H 0.01288 0.62876 0.85727 0.0
C736 C 0.04755 0.16698 0.13131 0.0
C737 C 0.05479 0.17899 0.18613 0.0
C738 C 0.04405 0.14563 0.13886 0.0
C739 C 0.04703 0.13638 0.20337 0.0
C740 C 0.05624 0.14799 0.25662 0.0
C741 C 0.06046 0.16903 0.24669 0.0
C742 C 0.03562 0.13343 0.07936 0.0
C743 C 0.05972 0.13879 0.32641 0.0
C744 C 1.0077 0.09896 0.27415 0.0
C745 C 0.01997 0.08155 0.28585 0.0
C746 C 0.016 0.11653 0.24254 0.0
C747 C 0.03691 0.11634 0.22018 0.0
C748 C 0.04868 0.09794 0.22551 0.0
C749 C 0.0402 0.08084 0.26 0.0
C750 C 1.00296 0.1359 0.23932 0.0
C751 C 0.07058 0.09664 0.19896 0.0
H752 H 0.04331 0.17435 0.08381 0.0
H753 H 0.06696 0.178 0.28821 0.0
H754 H 0.04143 0.11727 0.07997 0.0
H755 H 0.01845 0.13285 0.08223 0.0
H756 H 0.03994 0.14075 0.03011 0.0
H757 H 0.06764 0.14975 0.36149 0.0
H758 H 0.04458 0.13434 0.34927 0.0
H759 H 0.0692 0.12458 0.32259 0.0
H760 H 0.9921 0.09944 0.29476 0.0
H761 H 0.0496 0.06722 0.26885 0.0
H762 H 1.00236 0.14189 0.18652 0.0
H763 H 1.01005 0.14814 0.27159 0.0
H764 H 0.98681 0.13319 0.2571 0.0
H765 H 0.07298 0.10688 0.15426 0.0
H766 H 0.07447 0.08049 0.18439 0.0
H767 H 0.08156 0.10144 0.23947 0.0
C768 C 0.3545 0.04383 0.17377 0.0
C769 C 0.33921 0.0372 0.21983 0.0
C770 C 0.37562 0.04041 0.18705 0.0
C771 C 0.3814 0.02986 0.24718 0.0
C772 C 0.36599 0.02336 0.29409 0.0
C773 C 0.34512 0.0272 0.27993 0.0
C774 C 0.39165 0.0477 0.1363 0.0
C775 C 0.37149 1.01187 0.35861 0.0
C776 C 0.4297 0.99827 0.2723 0.0
C777 C 0.44005 1.01014 0.32157 0.0
C778 C 0.41137 1.00538 0.24225 0.0
C779 C 0.4034 0.02491 0.26156 0.0
C780 C 0.41501 0.0379 0.30536 0.0
C781 C 0.4332 0.03032 0.33518 0.0
C782 C 0.39949 0.99109 0.19543 0.0
C783 C 0.40717 0.05898 0.32598 0.0
H784 H 0.34992 0.05161 0.1273 0.0
H785 H 0.33331 0.02172 0.31498 0.0
H786 H 0.40407 0.05661 0.16237 0.0
H787 H 0.39906 0.03414 0.11181 0.0
H788 H 0.38479 0.05755 0.09586 0.0
H789 H 0.35762 1.00801 0.38979 0.0
H790 H 0.37962 0.99727 0.34578 0.0
H791 H 0.38222 0.02135 0.39005 0.0
H792 H 0.43523 0.98286 0.26037 0.0
H793 H 0.44106 0.03963 0.37324 0.0
H794 H 0.39329 0.99966 0.15106 0.0
H795 H 0.38607 0.9844 0.22337 0.0
H796 H 0.40926 0.97816 0.17667 0.0
H797 H 0.40208 0.06781 0.28059 0.0
H798 H 0.41913 0.06815 0.35345 0.0
H799 H 0.39351 0.05716 0.3599 0.0
C800 C 0.54325 0.34494 0.24902 0.0
C801 C 0.54097 0.33865 0.18112 0.0
C802 C 0.54241 0.36587 0.26699 0.0
C803 C 0.53898 0.38092 0.2159 0.0
C804 C 0.53759 0.37485 0.14688 0.0
C805 C 0.53872 0.35375 0.13021 0.0
C806 C 0.54412 0.37175 0.34128 0.0
C807 C 0.53404 0.39051 0.09112 0.0
C808 C 0.51298 0.42768 0.29191 0.0
C809 C 0.53015 0.44024 0.30672 0.0
C810 C 0.5154 0.40897 0.25678 0.0
C811 C 0.5355 0.40271 0.23643 0.0
C812 C 0.55261 0.41616 0.24613 0.0
C813 C 0.54973 0.4348 0.2813 0.0
C814 C 0.49672 0.39514 0.24651 0.0
C815 C 0.57425 0.41008 0.22495 0.0
H816 H 0.54463 0.33343 0.28887 0.0
H817 H 0.53727 0.34902 0.07747 0.0
H818 H 0.55611 0.38393 0.34822 0.0
H819 H 0.52914 0.37819 0.35915 0.0
H820 H 0.54814 0.35833 0.37402 0.0
H821 H 0.5346 0.38338 0.03974 0.0
H822 H 0.51864 0.39783 0.09793 0.0
H823 H 0.54585 0.40303 0.09386 0.0
H824 H 0.49778 0.43204 0.31055 0.0
H825 H 0.5631 0.4444 0.29297 0.0
H826 H 0.49761 0.38178 0.28188 0.0
H827 H 0.49642 0.38889 0.19393 0.0
H828 H 0.48195 0.40343 0.25626 0.0
H829 H 0.58036 0.39847 0.26134 0.0
H830 H 0.585 0.42357 0.22443 0.0
H831 H 0.57419 0.40285 0.17373 0.0
C832 C 0.17085 0.4596 0.16545 0.0
C833 C 0.18654 0.464 0.21287 0.0
C834 C 0.15 0.46399 0.18016 0.0
C835 C 0.14489 0.47324 0.24327 0.0
C836 C 0.16057 0.47689 0.29228 0.0
C837 C 0.18116 0.47218 0.27652 0.0
C838 C 0.13365 0.45962 0.12706 0.0
C839 C 0.15582 0.48687 0.36013 0.0
C840 C 0.10077 0.51031 0.271 0.0
C841 C 0.08803 0.49876 0.31477 0.0
C842 C 0.11856 0.50156 0.24216 0.0
C843 C 0.12361 0.48075 0.2573 0.0
C844 C 0.10979 0.46848 0.29625 0.0
C845 C 0.09217 0.47769 0.32493 0.0
C846 C 0.13288 0.51514 0.20056 0.0
C847 C 0.1145 0.44614 0.31229 0.0
H848 H 0.17495 0.45318 0.11627 0.0
H849 H 0.19321 0.476 0.3129 0.0
H850 H 0.11955 0.4528 0.15065 0.0
H851 H 0.12904 0.47433 0.10234 0.0
H852 H 0.13938 0.44894 0.08697 0.0
H853 H 0.16965 0.48775 0.3937 0.0
H854 H 0.14997 0.50281 0.35187 0.0
H855 H 0.14349 0.47806 0.38704 0.0
H856 H 0.09736 0.5265 0.26202 0.0
H857 H 0.08246 0.46874 0.3591 0.0
H858 H 0.13776 0.50706 0.15343 0.0
H859 H 0.14708 0.51858 0.23046 0.0
H860 H 0.1255 0.53004 0.18635 0.0
H861 H 0.11914 0.43776 0.26541 0.0
H862 H 0.10104 0.43803 0.33561 0.0
H863 H 0.12771 0.44537 0.34834 0.0
C864 C 0.99234 0.84954 0.15744 0.0
C865 C 0.97385 0.84107 0.18234 0.0
C866 C 0.99387 0.87063 0.14251 0.0
C867 C 0.97635 0.88345 0.15195 0.0
C868 C 0.95808 0.87524 0.18183 0.0
C869 C 0.95706 0.85399 0.19698 0.0
C870 C 0.01379 0.87881 0.11186 0.0
C871 C 0.93918 0.88848 0.1932 0.0
C872 C 0.99056 0.93919 0.11726 0.0
C873 C 0.98818 0.9398 0.04618 0.0
C874 C 0.98489 0.9215 0.15456 0.0
C875 C 0.97644 0.90422 0.1199 0.0
C876 C 0.97183 0.90568 0.04971 0.0
C877 C 0.97796 0.92331 0.01362 0.0
C878 C 0.9897 0.92066 0.22969 0.0
C879 C 0.96243 0.88773 0.01094 0.0
H880 H 1.0054 0.83945 0.14742 0.0
H881 H 0.94283 0.84731 0.21683 0.0
H882 H 1.01123 0.88266 0.05746 0.0
H883 H 0.01876 0.89321 0.13809 0.0
H884 H 0.02659 0.86738 0.11496 0.0
H885 H 0.92826 0.88122 0.22999 0.0
H886 H 0.9436 0.90407 0.21209 0.0
H887 H 0.93093 0.89056 0.14414 0.0
H888 H 0.99779 0.95211 0.1434 0.0
H889 H 0.97608 0.92333 0.95886 0.0
H890 H 1.00453 0.91235 0.23738 0.0
H891 H 0.97747 0.91211 0.25796 0.0
H892 H 0.99133 0.93642 0.2518 0.0
H893 H 0.97426 0.87547 1.00431 0.0
H894 H 0.95687 0.89245 0.95974 0.0
H895 H 0.94923 0.8809 0.0395 0.0
C896 C 0.68151 0.05081 0.10786 0.0
C897 C 0.69544 0.06562 0.1332 0.0
C898 C 0.66293 0.05672 0.07715 0.0
C899 C 0.65811 0.07801 0.07155 0.0
C900 C 0.67189 0.0931 0.09804 0.0
C901 C 0.69052 0.08671 0.12838 0.0
C902 C 0.64867 0.0401 0.04931 0.0
C903 C 0.66709 0.1159 0.09339 0.0
C904 C 0.61986 0.08488 0.92917 0.0
C905 C 0.6011 0.08241 0.96439 0.0
C906 C 0.63877 0.08563 0.96421 0.0
C907 C 0.63878 0.08402 0.03606 0.0
C908 C 0.61979 0.08394 0.07212 0.0
C909 C 0.60113 0.08302 0.03579 0.0
C910 C 0.6587 0.0859 0.92387 0.0
C911 C 0.61917 0.08254 0.14881 0.0
H912 H 0.68544 0.03453 0.1102 0.0
H913 H 0.70125 0.09818 0.14823 0.0
H914 H 0.63309 0.04139 0.0729 0.0
H915 H 0.64673 0.04216 0.9936 0.0
H916 H 0.65462 0.02425 0.05881 0.0
H917 H 0.67865 0.12555 0.12104 0.0
H918 H 0.66692 0.12076 0.03924 0.0
H919 H 0.65146 0.11905 0.11449 0.0
H920 H 0.61987 0.08494 0.87398 0.0
H921 H 0.58671 0.0811 0.06352 0.0
H922 H 0.66542 0.0701 0.92337 0.0
H923 H 0.67027 0.0964 0.9476 0.0
H924 H 0.65616 0.09082 0.87035 0.0
H925 H 0.62241 0.06637 0.16455 0.0
H926 H 0.60375 0.08695 0.16935 0.0
H927 H 0.63119 0.09263 0.1721 0.0
C928 C 0.5587 0.67102 0.23267 0.0
C929 C 0.55348 0.68645 0.18546 0.0
C930 C 0.55448 0.65006 0.21906 0.0
C931 C 0.54459 0.64458 0.15728 0.0
C932 C 0.53996 0.66004 0.1086 0.0
C933 C 0.5445 0.68074 0.12327 0.0
C934 C 0.55983 0.63396 0.27178 0.0
C935 C 0.52931 0.65486 0.04214 0.0
C936 C 0.54134 0.59192 0.07546 0.0
C937 C 0.52048 0.58685 0.08737 0.0
C938 C 0.55017 0.60984 0.10366 0.0
C939 C 0.53773 0.62301 0.144 0.0
C940 C 0.51722 0.61702 0.16098 0.0
C941 C 0.50884 0.59895 0.13245 0.0
C942 C 0.5722 0.6156 0.08539 0.0
C943 C 0.50349 0.63062 0.20413 0.0
H944 H 0.56573 0.67539 0.28071 0.0
H945 H 0.54003 0.69259 0.08716 0.0
H946 H 0.54543 0.62856 0.29728 0.0
H947 H 0.56712 0.62028 0.2476 0.0
H948 H 0.57049 0.64019 0.31129 0.0
H949 H 0.52753 0.66863 1.00878 0.0
H950 H 0.53823 0.64297 0.01401 0.0
H951 H 0.51368 0.64831 0.05248 0.0
H952 H 0.55033 0.58272 0.04015 0.0
H953 H 0.49281 0.59485 0.14262 0.0
H954 H 0.58083 0.62065 0.13137 0.0
H955 H 0.57212 0.6288 0.04923 0.0
H956 H 0.58061 0.60255 0.06128 0.0
H957 H 0.51188 0.636 0.25014 0.0
H958 H 0.48909 0.62248 0.22027 0.0
H959 H 0.49906 0.64455 0.17451 0.0
C960 C 0.85866 0.55445 0.24274 0.0
C961 C 0.84432 0.55346 0.18907 0.0
C962 C 0.87998 0.5519 0.23066 0.0
C963 C 0.88692 0.54793 0.16358 0.0
C964 C 0.8726 0.54805 0.1089 0.0
C965 C 0.85151 0.5509 0.12234 0.0
C966 C 0.89484 0.55242 0.28997 0.0
C967 C 0.87934 0.54378 0.03653 0.0
C968 C 0.94099 0.54816 0.09129 0.0
C969 C 0.94439 0.52684 0.08464 0.0
C970 C 0.92325 0.55558 0.12451 0.0
C971 C 0.90851 0.54126 0.1501 0.0
C972 C 0.91301 0.51981 0.14968 0.0
C973 C 0.931 0.51287 0.11714 0.0
C974 C 0.91945 0.5786 0.12622 0.0
C975 C 0.89774 0.50399 0.17654 0.0
H976 H 0.85315 0.55664 0.29438 0.0
H977 H 0.84048 0.54986 0.08083 0.0
H978 H 0.89922 0.53638 0.30387 0.0
H979 H 0.90928 0.56086 0.27628 0.0
H980 H 0.88783 0.55985 0.33547 0.0
H981 H 0.8664 0.54537 0.99962 0.0
H982 H 0.89195 0.55458 0.02145 0.0
H983 H 0.88553 0.52782 0.03275 0.0
H984 H 0.95159 0.55899 0.06725 0.0
H985 H 0.9336 0.49636 0.112 0.0
H986 H 0.91082 0.58317 0.1727 0.0
H987 H 0.91003 0.58304 0.08134 0.0
H988 H 0.93427 0.58743 0.12415 0.0
H989 H 0.89177 0.50866 0.22715 0.0
H990 H 0.90476 0.48837 0.18098 0.0
H991 H 0.8843 0.50295 0.14143 0.0
C992 C 1.00268 0.16599 0.89773 0.0
C993 C 0.01702 0.18067 0.87345 0.0
C994 C 1.00208 0.14567 0.87155 0.0
C995 C 0.01635 0.13967 0.82029 0.0
C996 C 0.03109 0.15432 0.79643 0.0
C997 C 0.03116 0.1746 0.82289 0.0
C998 C 0.98601 0.13067 0.89827 0.0
C999 C 0.04691 0.14853 0.7431 0.0
C1000 C 0.02666 0.08182 0.7995 0.0
C1001 C 0.01481 0.07671 0.74173 0.0
C1002 C 0.02753 0.10219 0.82482 0.0
C1003 C 0.01604 0.11801 0.7924 0.0
C1004 C 1.00415 0.11304 0.73379 0.0
C1005 C 1.0038 0.09254 0.70889 0.0
C1006 C 0.04062 0.10674 0.88683 0.0
C1007 C 0.99146 0.12934 0.69812 0.0
H1008 H 0.99154 0.17053 0.93621 0.0
H1009 H 0.04249 0.18571 0.8044 0.0
H1010 H 0.97635 0.12478 0.85566 0.0
H1011 H 0.99373 0.11713 0.92175 0.0
H1012 H 0.97568 0.13785 0.93682 0.0
H1013 H 0.05748 0.1616 0.73041 0.0
H1014 H 0.05634 0.13531 0.76132 0.0
H1015 H 0.03895 0.14343 0.6959 0.0
H1016 H 0.03534 0.06982 0.82529 0.0
H1017 H 0.99449 0.08882 0.66461 0.0
H1018 H 0.03057 0.11186 0.9294 0.0
H1019 H 0.05164 0.11957 0.87589 0.0
H1020 H 0.04957 0.09303 0.90385 0.0
H1021 H 0.97993 0.1359 0.73402 0.0
H1022 H 0.98311 0.12307 0.6531 0.0
H1023 H 1.00162 0.14226 0.68127 0.0
C1024 C 0.3476 0.03385 0.82907 0.0
C1025 C 0.33889 0.0162 0.85996 0.0
C1026 C 0.36823 0.03397 0.80517 0.0
C1027 C 0.38061 0.01601 0.812 0.0
C1028 C 0.37192 0.99813 0.84287 0.0
C1029 C 0.35128 0.99845 0.86648 0.0
C1030 C 0.37682 0.05341 0.77286 0.0
C1031 C 0.38452 0.97867 0.85168 0.0
C1032 C 0.42943 1.01005 0.70229 0.0
C1033 C 0.4452 0.01577 0.74796 0.0
C1034 C 0.40838 1.01015 0.72216 0.0
C1035 C 0.40287 0.01615 0.78928 0.0
C1036 C 0.41871 0.02209 0.8353 0.0
C1037 C 0.43957 0.02181 0.8142 0.0
C1038 C 0.39203 1.00364 0.67149 0.0
C1039 C 0.41365 0.02866 0.90722 0.0
H1040 H 0.33819 0.04757 0.82271 0.0
H1041 H 0.34493 0.98481 0.89109 0.0
H1042 H 0.39037 0.05907 0.80239 0.0
H1043 H 0.38236 0.05001 0.72057 0.0
H1044 H 0.36515 0.06598 0.77021 0.0
H1045 H 0.37532 0.96584 0.87446 0.0
H1046 H 0.39064 0.97349 0.80173 0.0
H1047 H 0.39806 0.98187 0.88494 0.0
H1048 H 0.43354 1.00533 0.6511 0.0
H1049 H 0.45152 0.02628 0.85013 0.0
H1050 H 0.38058 0.01625 0.66468 0.0
H1051 H 0.38345 0.98995 0.69106 0.0
H1052 H 0.39874 0.99971 0.62104 0.0
H1053 H 0.40284 0.04197 0.9065 0.0
H1054 H 0.42771 0.03317 0.93649 0.0
H1055 H 0.40573 0.01583 0.93448 0.0
C1056 C 0.4812 0.35251 0.82807 0.0
C1057 C 0.49614 0.34356 0.87095 0.0
C1058 C 0.48327 0.37298 0.80424 0.0
C1059 C 0.50086 0.38494 0.82275 0.0
C1060 C 0.51623 0.37592 0.8648 0.0
C1061 C 0.51364 0.35547 0.88869 0.0
C1062 C 0.46641 0.38194 0.75997 0.0
C1063 C 0.5353 0.38801 0.8855 0.0
C1064 C 0.51314 0.43364 0.71824 0.0
C1065 C 0.50496 0.44941 0.75947 0.0
C1066 C 0.51213 0.41266 0.73832 0.0
C1067 C 0.50259 0.40718 0.80095 0.0
C1068 C 0.49429 0.42301 0.84262 0.0
C1069 C 0.49561 0.4438 0.82159 0.0
C1070 C 0.52134 0.39633 0.69258 0.0
C1071 C 0.48387 0.41798 0.90955 0.0
H1072 H 0.46782 0.34346 0.81266 0.0
H1073 H 0.5252 0.34897 0.92241 0.0
H1074 H 0.4594 0.39553 0.7856 0.0
H1075 H 0.47306 0.38745 0.71111 0.0
H1076 H 0.45393 0.37052 0.74879 0.0
H1077 H 0.54661 0.37833 0.91366 0.0
H1078 H 0.54308 0.39457 0.83992 0.0
H1079 H 0.53076 0.4012 0.91838 0.0
H1080 H 0.52047 0.43768 0.67036 0.0
H1081 H 0.48918 0.45569 0.85417 0.0
H1082 H 0.50915 0.38512 0.67698 0.0
H1083 H 0.53333 0.38751 0.72067 0.0
H1084 H 0.5285 0.40306 0.64609 0.0
H1085 H 0.47059 0.40732 0.90086 0.0
H1086 H 0.47811 0.43203 0.936 0.0
H1087 H 0.4949 0.40993 0.94368 0.0
C1088 C 0.17428 0.49503 0.83996 0.0
C1089 C 0.1808 0.51123 0.88276 0.0
C1090 C 0.15407 0.49446 0.81267 0.0
C1091 C 0.13994 0.51057 0.82794 0.0
C1092 C 0.14645 0.52702 0.87083 0.0
C1093 C 0.16669 0.52711 0.89782 0.0
C1094 C 0.14776 0.47648 0.76804 0.0
C1095 C 0.132 0.54457 0.88823 0.0
C1096 C 0.09256 0.51872 0.71353 0.0
C1097 C 0.07658 0.50965 0.75215 0.0
C1098 C 0.11322 0.51904 0.73723 0.0
C1099 C 0.11817 0.50991 0.80086 0.0
C1100 C 0.10218 0.5004 0.83939 0.0
C1101 C 0.08169 0.50045 0.81482 0.0
C1102 C 0.12973 0.52946 0.69466 0.0
C1103 C 0.10669 0.49031 0.90712 0.0
H1104 H 0.18493 0.48256 0.82854 0.0
H1105 H 0.1716 0.53985 0.92998 0.0
H1106 H 0.13449 0.46812 0.79145 0.0
H1107 H 0.14253 0.48222 0.71771 0.0
H1108 H 0.16063 0.46535 0.76006 0.0
H1109 H 0.13955 0.55648 0.92081 0.0
H1110 H 0.12646 0.5521 0.84091 0.0
H1111 H 0.11816 0.53848 0.9153 0.0
H1112 H 0.08888 0.52594 0.66526 0.0
H1113 H 0.0696 0.49328 0.84521 0.0
H1114 H 0.14237 0.51839 0.68325 0.0
H1115 H 0.13671 0.5425 0.72356 0.0
H1116 H 0.12351 0.53551 0.64588 0.0
H1117 H 0.1188 0.47831 0.90095 0.0
H1118 H 0.09269 0.48298 0.92989 0.0
H1119 H 0.1128 0.50202 0.94336 0.0
C1120 C 0.01968 0.85725 0.47901 0.0
C1121 C 1.00348 0.8436 0.49631 0.0
C1122 C 0.02001 0.87785 0.50274 0.0
C1123 C 1.00364 0.88521 0.54433 0.0
C1124 C 0.98711 0.8716 0.56122 0.0
C1125 C 0.98729 0.851 0.53741 0.0
C1126 C 0.03804 0.8917 0.48384 0.0
C1127 C 0.96916 0.87881 0.60438 0.0
C1128 C 0.01309 0.93289 0.65636 0.0
C1129 C 1.00457 0.94889 0.61697 0.0
C1130 C 0.01288 0.91218 0.63348 0.0
C1131 C 1.00376 0.90716 0.56983 0.0
C1132 C 0.99489 0.92318 0.53027 0.0
C1133 C 0.99547 0.94375 0.55407 0.0
C1134 C 0.02268 0.89567 0.67711 0.0
C1135 C 0.98485 0.9186 0.46243 0.0
H1136 H 0.0324 0.85167 0.44803 0.0
H1137 H 0.97457 0.8407 0.55044 0.0
H1138 H 0.03238 0.90549 0.45592 0.0
H1139 H 0.04587 0.89736 0.53062 0.0
H1140 H 0.04964 0.88364 0.45159 0.0
H1141 H 0.95739 0.86644 0.61244 0.0
H1142 H 0.97488 0.88409 0.65474 0.0
H1143 H 0.96153 0.89224 0.57981 0.0
H1144 H 0.02024 0.93657 0.70481 0.0
H1145 H 0.98876 0.95585 0.52301 0.0
H1146 H 0.03541 0.88807 0.64857 0.0
H1147 H 1.01108 0.88352 0.68963 0.0
H1148 H 0.02908 0.90201 0.72534 0.0
H1149 H 0.99645 0.91197 0.42693 0.0
H1150 H 0.97812 0.93265 0.43865 0.0
H1151 H 0.97237 0.90688 0.46887 0.0
C1152 C 0.66712 0.98897 0.51774 0.0
C1153 C 0.67931 1.00648 0.50207 0.0
C1154 C 0.64677 0.99083 0.54309 0.0
C1155 C 0.63793 1.01069 0.55198 0.0
C1156 C 0.64996 0.02845 0.53569 0.0
C1157 C 0.67045 0.02616 0.51156 0.0
C1158 C 0.63465 0.97144 0.56002 0.0
C1159 C 0.64111 0.04992 0.54337 0.0
C1160 C 0.57869 0.01261 0.55234 0.0
C1161 C 0.57401 0.01409 0.62204 0.0
C1162 C 0.59933 0.0121 0.52894 0.0
C1163 C 0.6159 0.01273 0.57627 0.0
C1164 C 0.6113 0.01449 0.64672 0.0
C1165 C 0.59046 0.01531 0.66868 0.0
C1166 C 0.60339 1.01063 0.45338 0.0
C1167 C 0.6284 0.01496 0.69912 0.0
H1168 H 0.67337 0.97364 0.50942 0.0
H1169 H 0.6796 0.03988 0.50084 0.0
H1170 H 0.62904 0.97212 0.61339 0.0
H1171 H 0.6208 0.97028 0.52675 0.0
H1172 H 0.64403 0.95719 0.55353 0.0
H1173 H 0.65234 0.06217 0.52814 0.0
H1174 H 0.62695 0.05143 0.5117 0.0
H1175 H 0.63646 0.0526 0.597 0.0
H1176 H 0.56615 1.01185 0.51567 0.0
H1177 H 0.58706 0.01639 0.72259 0.0
H1178 H 0.61119 0.99578 0.44159 0.0
H1179 H 0.61396 0.02329 0.43703 0.0
H1180 H 0.5889 1.01152 0.42298 0.0
H1181 H 0.63713 1.0002 0.69738 0.0
H1182 H 0.62236 0.01722 0.75157 0.0
H1183 H 0.63955 0.0276 0.68749 0.0
C1184 C 0.49453 0.66954 0.51115 0.0
C1185 C 0.51065 0.68355 0.52583 0.0
C1186 C 0.4945 0.64927 0.53762 0.0
C1187 C 0.51104 0.64265 0.57971 0.0
C1188 C 0.52734 0.65671 0.59487 0.0
C1189 C 0.52692 0.67694 0.568 0.0
C1190 C 0.47675 0.63488 0.52024 0.0
C1191 C 0.54541 0.65029 0.63874 0.0
C1192 C 0.50283 0.5946 0.69116 0.0
C1193 C 0.51176 0.57895 0.65121 0.0
C1194 C 0.50263 0.61539 0.66896 0.0
C1195 C 0.51167 0.62078 0.60546 0.0
C1196 C 0.52104 0.60512 0.56562 0.0
C1197 C 0.52092 0.58451 0.58877 0.0
C1198 C 0.49241 0.63156 0.71296 0.0
C1199 C 0.531 0.61008 0.49789 0.0
H1200 H 0.48172 0.67452 0.47954 0.0
H1201 H 0.53958 0.68751 0.57912 0.0
H1202 H 0.48267 0.62124 0.49203 0.0
H1203 H 0.46938 0.62904 0.56758 0.0
H1204 H 0.46474 0.64255 0.4887 0.0
H1205 H 0.55656 0.66318 0.64744 0.0
H1206 H 0.53975 0.64465 0.68878 0.0
H1207 H 0.55377 0.63729 0.61421 0.0
H1208 H 0.49567 0.59058 0.73932 0.0
H1209 H 0.52799 0.57269 0.55733 0.0
H1210 H 0.47927 0.63861 0.68505 0.0
H1211 H 0.50359 0.64418 0.72465 0.0
H1212 H 0.48651 0.62504 0.76161 0.0
H1213 H 0.51922 0.61635 0.4624 0.0
H1214 H 0.53823 0.59629 0.47399 0.0
H1215 H 0.54309 0.62219 0.50449 0.0
C1216 C 0.85573 0.49872 0.50379 0.0
C1217 C 0.84248 0.51567 0.51394 0.0
C1218 C 0.87636 0.49898 0.52735 0.0
C1219 C 0.88412 0.51664 0.56196 0.0
C1220 C 0.87092 0.53387 0.57197 0.0
C1221 C 0.85033 0.53317 0.54796 0.0
C1222 C 0.88988 0.48033 0.51501 0.0
C1223 C 0.87853 0.55304 0.60833 0.0
C1224 C 0.93208 0.50991 0.6745 0.0
C1225 C 0.94812 0.51685 0.63164 0.0
C1226 C 0.91122 0.50995 0.65284 0.0
C1227 C 0.90614 0.51716 0.58673 0.0
C1228 C 0.9222 0.52446 0.54363 0.0
C1229 C 0.94289 0.5242 0.56645 0.0
C1230 C 0.89462 0.50199 0.70043 0.0
C1231 C 0.91756 0.53236 0.47288 0.0
H1232 H 0.85004 0.48524 0.47664 0.0
H1233 H 0.84024 0.54627 0.55693 0.0
H1234 H 0.90358 0.48483 0.4841 0.0
H1235 H 0.89574 0.47426 0.56418 0.0
H1236 H 0.88146 0.46769 0.4882 0.0
H1237 H 0.8664 0.56515 0.61194 0.0
H1238 H 0.88367 0.54898 0.66051 0.0
H1239 H 0.89215 0.55961 0.58124 0.0
H1240 H 0.93582 0.50418 0.72484 0.0
H1241 H 0.95502 0.52965 0.53263 0.0
H1242 H 0.88676 0.48837 0.67738 0.0
H1243 H 0.88265 0.51403 0.7084 0.0
H1244 H 0.90097 0.4974 0.75074 0.0
H1245 H 0.91048 0.51982 0.4419 0.0
H1246 H 0.93168 0.53806 0.44627 0.0
H1247 H 0.90615 0.54514 0.47541 0.0
loop_
_geom_bond_atom_site_label_1
_geom_bond_atom_site_label_2
_geom_bond_distance
_geom_bond_site_symmetry_2
_ccdc_geom_bond_type
C0 C1 1.264 . S
C0 C5 1.479 . S
C0 C10 1.465 . S
C1 C0 1.264 . S
C1 C3 1.339 . S
C1 H28 0.931 . S
C2 C3 1.395 . S
C2 C4 1.320 . S
C3 C1 1.339 . S
C3 C2 1.395 . S
C3 H29 0.929 . S
C4 C2 1.320 . S
C4 C5 1.405 . S
C4 H30 0.930 . S
C5 C0 1.479 . S
C5 C4 1.405 . S
C5 H31 0.931 . S
U6 O7 2.454 . S
U6 O8 2.458 . S
U6 C9 2.984 . S
U6 C10 2.847 . S
U6 C23 2.882 . S
U6 O24 2.441 . S
U6 O25 2.420 . S
U6 O26 2.455 . S
U6 O27 2.449 . S
O7 U6 2.454 . S
O7 C9 1.353 . S
O8 U6 2.458 . S
O8 C9 1.286 . S
C9 U6 2.984 . S
C9 O7 1.353 . S
C9 O8 1.286 . S
C9 C11 1.363 . S
C10 C0 1.465 . S
C10 U6 2.847 . S
C10 O24 1.249 . S
C10 O25 1.202 . S
C11 C9 1.363 . S
C11 C13 1.408 . S
C11 C16 1.342 . S
C12 C13 1.310 . S
C12 C15 1.461 . S
C12 H32 0.932 . S
C13 C11 1.408 . S
C13 C12 1.310 . S
C13 H33 0.930 . S
C14 C15 1.474 . S
C14 C16 1.285 . S
C14 H34 0.929 . S
C15 C12 1.461 . S
C15 C14 1.474 . S
C16 C11 1.342 . S
C16 C14 1.285 . S
C16 H35 0.930 . S
C17 C20 1.424 . S
C17 C22 1.245 . S
C17 C23 1.428 . S
C18 C21 1.260 . S
C18 C22 1.477 . S
C18 H36 0.932 . S
C19 C20 1.384 . S
C19 C21 1.479 . S
C19 H37 0.929 . S
C20 C17 1.424 . S
C20 C19 1.384 . S
C20 H38 0.928 . S
C21 C18 1.260 . S
C21 C19 1.479 . S
C22 C17 1.245 . S
C22 C18 1.477 . S
C22 H39 0.932 . S
C23 U6 2.882 . S
C23 C17 1.428 . S
C23 O26 1.301 . S
C23 O27 1.282 . S
O24 U6 2.441 . S
O24 C10 1.249 . S
O25 U6 2.420 . S
O25 C10 1.202 . S
O26 U6 2.455 . S
O26 C23 1.301 . S
O27 U6 2.449 . S
O27 C23 1.282 . S
H28 C1 0.931 . S
H29 C3 0.929 . S
H30 C4 0.930 . S
H31 C5 0.931 . S
H32 C12 0.932 . S
H33 C13 0.930 . S
H34 C14 0.929 . S
H35 C16 0.930 . S
H36 C18 0.932 . S
H37 C19 0.929 . S
H38 C20 0.928 . S
H39 C22 0.932 . S
C40 C41 1.264 . S
C40 C45 1.479 . S
C40 C50 1.465 . S
C41 C40 1.264 . S
C41 C43 1.339 . S
C41 H68 0.931 . S
C42 C43 1.395 . S
C42 C44 1.320 . S
C43 C41 1.339 . S
C43 C42 1.395 . S
C43 H69 0.929 . S
C44 C42 1.320 . S
C44 C45 1.405 . S
C44 H70 0.921 1_455 S
C45 C40 1.479 . S
C45 C44 1.405 . S
C45 H71 0.931 . S
U46 O47 2.454 . S
U46 O48 2.458 . S
U46 C49 2.984 . S
U46 C50 2.847 . S
U46 C63 2.882 . S
U46 O64 2.441 . S
U46 O65 2.420 . S
U46 O66 2.455 . S
U46 O67 2.449 . S
O47 U46 2.454 . S
O47 C49 1.353 . S
O48 U46 2.458 . S
O48 C49 1.286 . S
C49 U46 2.984 . S
C49 O47 1.353 . S
C49 O48 1.286 . S
C49 C51 1.363 . S
C50 C40 1.465 . S
C50 U46 2.847 . S
C50 O64 1.249 . S
C50 O65 1.202 . S
C51 C49 1.363 . S
C51 C53 1.408 . S
C51 C56 1.342 . S
C52 C53 1.310 . S
C52 C55 1.461 . S
C52 H72 0.932 . S
C53 C51 1.408 . S
C53 C52 1.310 . S
C53 H73 0.930 . S
C54 C55 1.474 1_655 S
C54 C56 1.285 1_655 S
C54 H74 0.930 . S
C55 C52 1.461 . S
C55 C54 1.474 1_455 S
C56 C51 1.342 . S
C56 C54 1.285 1_455 S
C56 H75 0.933 . S
C57 C60 1.424 . S
C57 C62 1.245 . S
C57 C63 1.428 . S
C58 C61 1.260 . S
C58 C62 1.477 . S
C58 H76 0.932 . S
C59 C60 1.384 . S
C59 C61 1.479 . S
C59 H77 0.929 . S
C60 C57 1.424 . S
C60 C59 1.384 . S
C60 H78 0.928 . S
C61 C58 1.260 . S
C61 C59 1.479 . S
C62 C57 1.245 . S
C62 C58 1.477 . S
C62 H79 0.932 . S
C63 U46 2.882 . S
C63 C57 1.428 . S
C63 O66 1.301 . S
C63 O67 1.282 . S
O64 U46 2.441 . S
O64 C50 1.249 . S
O65 U46 2.420 . S
O65 C50 1.202 . S
O66 U46 2.455 . S
O66 C63 1.301 . S
O67 U46 2.449 . S
O67 C63 1.282 . S
H68 C41 0.931 . S
H69 C43 0.929 . S
H70 C44 0.921 1_655 S
H71 C45 0.931 . S
H72 C52 0.932 . S
H73 C53 0.930 . S
H74 C54 0.930 . S
H75 C56 0.933 . S
H76 C58 0.932 . S
H77 C59 0.929 . S
H78 C60 0.928 . S
H79 C62 0.932 . S
C80 C81 1.268 . S
C80 C85 1.473 1_545 S
C80 C90 1.474 . S
C81 C80 1.268 . S
C81 C83 1.339 1_545 S
C81 H108 0.931 . S
C82 C83 1.395 . S
C82 C84 1.320 . S
C83 C81 1.339 1_565 S
C83 C82 1.395 . S
C83 H109 0.929 . S
C84 C82 1.320 . S
C84 C85 1.405 . S
C84 H110 0.930 . S
C85 C80 1.473 1_565 S
C85 C84 1.405 . S
C85 H111 0.933 . S
U86 O87 2.454 1_545 S
U86 O88 2.458 1_545 S
U86 C89 2.984 1_545 S
U86 C90 2.847 . S
U86 C103 2.882 . S
U86 O104 2.441 . S
U86 O105 2.420 . S
U86 O106 2.455 . S
U86 O107 2.449 . S
O87 U86 2.454 1_565 S
O87 C89 1.353 . S
O88 U86 2.458 1_565 S
O88 C89 1.286 . S
C89 U86 2.984 1_565 S
C89 O87 1.353 . S
C89 O88 1.286 . S
C89 C91 1.363 . S
C90 C80 1.474 . S
C90 U86 2.847 . S
C90 O104 1.249 . S
C90 O105 1.202 . S
C91 C89 1.363 . S
C91 C93 1.408 . S
C91 C96 1.342 . S
C92 C93 1.310 . S
C92 C95 1.461 . S
C92 H112 0.932 . S
C93 C91 1.408 . S
C93 C92 1.310 . S
C93 H113 0.930 . S
C94 C95 1.474 . S
C94 C96 1.285 . S
C94 H114 0.929 . S
C95 C92 1.461 . S
C95 C94 1.474 . S
C96 C91 1.342 . S
C96 C94 1.285 . S
C96 H115 0.930 . S
C97 C100 1.424 1_545 S
C97 C102 1.246 . S
C97 C103 1.428 . S
C98 C101 1.260 . S
C98 C102 1.477 1_565 S
C98 H116 0.938 . S
C99 C100 1.384 . S
C99 C101 1.479 . S
C99 H117 0.929 . S
C100 C97 1.424 1_565 S
C100 C99 1.384 . S
C100 H118 0.928 . S
C101 C98 1.260 . S
C101 C99 1.479 . S
C102 C97 1.246 . S
C102 C98 1.477 1_545 S
C102 H119 0.932 1_545 S
C103 U86 2.882 . S
C103 C97 1.428 . S
C103 O106 1.301 . S
C103 O107 1.282 . S
O104 U86 2.441 . S
O104 C90 1.249 . S
O105 U86 2.420 . S
O105 C90 1.202 . S
O106 U86 2.455 . S
O106 C103 1.301 . S
O107 U86 2.449 . S
O107 C103 1.282 . S
H108 C81 0.931 . S
H109 C83 0.929 . S
H110 C84 0.930 . S
H111 C85 0.933 . S
H112 C92 0.932 . S
H113 C93 0.930 . S
H114 C94 0.929 . S
H115 C96 0.930 . S
H116 C98 0.938 . S
H117 C99 0.929 . S
H118 C100 0.928 . S
H119 C102 0.932 1_565 S
C120 C121 1.264 . S
C120 C125 1.479 . S
C120 C130 1.465 . S
C121 C120 1.264 . S
C121 C123 1.339 . S
C121 H148 0.931 . S
C122 C123 1.395 . S
C122 C124 1.320 . S
C123 C121 1.339 . S
C123 C122 1.395 . S
C123 H149 0.929 . S
C124 C122 1.320 . S
C124 C125 1.405 . S
C124 H150 0.930 . S
C125 C120 1.479 . S
C125 C124 1.405 . S
C125 H151 0.931 . S
U126 O127 2.454 . S
U126 O128 2.458 . S
U126 C129 2.984 . S
U126 C130 2.847 . S
U126 C143 2.882 . S
U126 O144 2.441 . S
U126 O145 2.420 . S
U126 O146 2.455 . S
U126 O147 2.449 . S
O127 U126 2.454 . S
O127 C129 1.353 . S
O128 U126 2.458 . S
O128 C129 1.286 . S
C129 U126 2.984 . S
C129 O127 1.353 . S
C129 O128 1.286 . S
C129 C131 1.363 . S
C130 C120 1.465 . S
C130 U126 2.847 . S
C130 O144 1.249 . S
C130 O145 1.202 . S
C131 C129 1.363 . S
C131 C133 1.408 . S
C131 C136 1.342 . S
C132 C133 1.310 . S
C132 C135 1.461 . S
C132 H152 0.932 . S
C133 C131 1.408 . S
C133 C132 1.310 . S
C133 H153 0.930 . S
C134 C135 1.474 . S
C134 C136 1.285 . S
C134 H154 0.929 . S
C135 C132 1.461 . S
C135 C134 1.474 . S
C136 C131 1.342 . S
C136 C134 1.285 . S
C136 H155 0.930 . S
C137 C140 1.424 . S
C137 C142 1.245 . S
C137 C143 1.428 . S
C138 C141 1.260 . S
C138 C142 1.477 . S
C138 H156 0.932 . S
C139 C140 1.384 . S
C139 C141 1.479 . S
C139 H157 0.929 . S
C140 C137 1.424 . S
C140 C139 1.384 . S
C140 H158 0.928 . S
C141 C138 1.260 . S
C141 C139 1.479 . S
C142 C137 1.245 . S
C142 C138 1.477 . S
C142 H159 0.932 . S
C143 U126 2.882 . S
C143 C137 1.428 . S
C143 O146 1.301 . S
C143 O147 1.282 . S
O144 U126 2.441 . S
O144 C130 1.249 . S
O145 U126 2.420 . S
O145 C130 1.202 . S
O146 U126 2.455 . S
O146 C143 1.301 . S
O147 U126 2.449 . S
O147 C143 1.282 . S
H148 C121 0.931 . S
H149 C123 0.929 . S
H150 C124 0.930 . S
H151 C125 0.931 . S
H152 C132 0.932 . S
H153 C133 0.930 . S
H154 C134 0.929 . S
H155 C136 0.930 . S
H156 C138 0.932 . S
H157 C139 0.929 . S
H158 C140 0.928 . S
H159 C142 0.932 . S
C160 C161 1.264 . S
C160 C165 1.479 . S
C160 C170 1.465 . S
C161 C160 1.264 . S
C161 C163 1.339 . S
C161 H188 0.931 . S
C162 C163 1.395 . S
C162 C164 1.320 . S
C163 C161 1.339 . S
C163 C162 1.395 . S
C163 H189 0.929 . S
C164 C162 1.320 . S
C164 C165 1.405 . S
C164 H190 0.930 . S
C165 C160 1.479 . S
C165 C164 1.405 . S
C165 H191 0.931 . S
U166 O167 2.454 . S
U166 O168 2.458 . S
U166 C169 2.984 . S
U166 C170 2.847 1_554 S
U166 C183 2.882 . S
U166 O184 2.441 1_554 S
U166 O185 2.420 1_554 S
U166 O186 2.455 . S
U166 O187 2.449 . S
O167 U166 2.454 . S
O167 C169 1.353 . S
O168 U166 2.458 . S
O168 C169 1.286 . S
C169 U166 2.984 . S
C169 O167 1.353 . S
C169 O168 1.286 . S
C169 C171 1.363 . S
C170 C160 1.465 . S
C170 U166 2.847 1_556 S
C170 O184 1.249 . S
C170 O185 1.202 . S
C171 C169 1.363 . S
C171 C173 1.408 . S
C171 C176 1.342 . S
C172 C173 1.310 . S
C172 C175 1.461 . S
C172 H192 0.932 . S
C173 C171 1.408 . S
C173 C172 1.310 . S
C173 H193 0.930 1_554 S
C174 C175 1.474 . S
C174 C176 1.285 . S
C174 H194 0.929 . S
C175 C172 1.461 . S
C175 C174 1.474 . S
C176 C171 1.342 . S
C176 C174 1.285 . S
C176 H195 0.930 . S
C177 C180 1.424 . S
C177 C182 1.245 . S
C177 C183 1.428 . S
C178 C181 1.260 . S
C178 C182 1.477 . S
C178 H196 0.932 . S
C179 C180 1.384 . S
C179 C181 1.479 . S
C179 H197 0.929 . S
C180 C177 1.424 . S
C180 C179 1.384 . S
C180 H198 0.928 . S
C181 C178 1.260 . S
C181 C179 1.479 . S
C182 C177 1.245 . S
C182 C178 1.477 . S
C182 H199 0.932 . S
C183 U166 2.882 . S
C183 C177 1.428 . S
C183 O186 1.301 . S
C183 O187 1.282 . S
O184 U166 2.441 1_556 S
O184 C170 1.249 . S
O185 U166 2.420 1_556 S
O185 C170 1.202 . S
O186 U166 2.455 . S
O186 C183 1.301 . S
O187 U166 2.449 . S
O187 C183 1.282 . S
H188 C161 0.931 . S
H189 C163 0.929 . S
H190 C164 0.930 . S
H191 C165 0.931 . S
H192 C172 0.932 . S
H193 C173 0.930 1_556 S
H194 C174 0.929 . S
H195 C176 0.930 . S
H196 C178 0.932 . S
H197 C179 0.929 . S
H198 C180 0.928 . S
H199 C182 0.932 . S
C200 C201 1.264 . S
C200 C205 1.479 . S
C200 C210 1.465 . S
C201 C200 1.264 . S
C201 C203 1.339 . S
C201 H228 0.931 . S
C202 C203 1.395 . S
C202 C204 1.320 . S
C203 C201 1.339 . S
C203 C202 1.395 . S
C203 H229 0.929 . S
C204 C202 1.320 . S
C204 C205 1.405 . S
C204 H230 0.923 1_455 S
C205 C200 1.479 . S
C205 C204 1.405 . S
C205 H231 0.931 . S
U206 O207 2.454 . S
U206 O208 2.458 . S
U206 C209 2.984 . S
U206 C210 2.847 1_554 S
U206 C223 2.882 . S
U206 O224 2.441 1_554 S
U206 O225 2.420 1_554 S
U206 O226 2.455 . S
U206 O227 2.449 . S
O207 U206 2.454 . S
O207 C209 1.353 . S
O208 U206 2.458 . S
O208 C209 1.286 . S
C209 U206 2.984 . S
C209 O207 1.353 . S
C209 O208 1.286 . S
C209 C211 1.363 . S
C210 C200 1.465 . S
C210 U206 2.847 1_556 S
C210 O224 1.249 . S
C210 O225 1.202 . S
C211 C209 1.363 . S
C211 C213 1.408 . S
C211 C216 1.342 . S
C212 C213 1.310 . S
C212 C215 1.462 . S
C212 H232 0.932 . S
C213 C211 1.408 . S
C213 C212 1.310 . S
C213 H233 0.930 1_554 S
C214 C215 1.474 1_655 S
C214 C216 1.286 1_655 S
C214 H234 0.929 . S
C215 C212 1.462 . S
C215 C214 1.474 1_455 S
C216 C211 1.342 . S
C216 C214 1.286 1_455 S
C216 H235 0.933 . S
C217 C220 1.424 . S
C217 C222 1.245 . S
C217 C223 1.428 . S
C218 C221 1.260 . S
C218 C222 1.477 . S
C218 H236 0.932 . S
C219 C220 1.384 . S
C219 C221 1.479 . S
C219 H237 0.929 . S
C220 C217 1.424 . S
C220 C219 1.384 . S
C220 H238 0.928 . S
C221 C218 1.260 . S
C221 C219 1.479 . S
C222 C217 1.245 . S
C222 C218 1.477 . S
C222 H239 0.932 . S
C223 U206 2.882 . S
C223 C217 1.428 . S
C223 O226 1.301 . S
C223 O227 1.282 . S
O224 U206 2.441 1_556 S
O224 C210 1.249 . S
O225 U206 2.420 1_556 S
O225 C210 1.202 . S
O226 U206 2.455 . S
O226 C223 1.301 . S
O227 U206 2.449 . S
O227 C223 1.282 . S
H228 C201 0.931 . S
H229 C203 0.929 . S
H230 C204 0.923 1_655 S
H231 C205 0.931 . S
H232 C212 0.932 . S
H233 C213 0.930 1_556 S
H234 C214 0.929 . S
H235 C216 0.933 . S
H236 C218 0.932 . S
H237 C219 0.929 . S
H238 C220 0.928 . S
H239 C222 0.932 . S
C240 C241 1.264 . S
C240 C245 1.479 . S
C240 C250 1.465 . S
C241 C240 1.264 . S
C241 C243 1.339 . S
C241 H268 0.931 . S
C242 C243 1.395 . S
C242 C244 1.320 . S
C243 C241 1.339 . S
C243 C242 1.395 . S
C243 H269 0.929 . S
C244 C242 1.320 . S
C244 C245 1.405 . S
C244 H270 0.930 . S
C245 C240 1.479 . S
C245 C244 1.405 . S
C245 H271 0.931 . S
U246 O247 2.454 . S
U246 O248 2.458 . S
U246 C249 2.984 . S
U246 C250 2.847 1_554 S
U246 C263 2.882 . S
U246 O264 2.441 1_554 S
U246 O265 2.420 1_554 S
U246 O266 2.455 . S
U246 O267 2.449 . S
O247 U246 2.454 . S
O247 C249 1.353 . S
O248 U246 2.458 . S
O248 C249 1.286 . S
C249 U246 2.984 . S
C249 O247 1.353 . S
C249 O248 1.286 . S
C249 C251 1.363 . S
C250 C240 1.465 . S
C250 U246 2.847 1_556 S
C250 O264 1.249 . S
C250 O265 1.202 . S
C251 C249 1.363 . S
C251 C253 1.408 . S
C251 C256 1.342 . S
C252 C253 1.310 . S
C252 C255 1.461 . S
C252 H272 0.932 . S
C253 C251 1.408 . S
C253 C252 1.310 . S
C253 H273 0.930 1_554 S
C254 C255 1.474 . S
C254 C256 1.285 . S
C254 H274 0.929 . S
C255 C252 1.461 . S
C255 C254 1.474 . S
C256 C251 1.342 . S
C256 C254 1.285 . S
C256 H275 0.930 . S
C257 C260 1.424 . S
C257 C262 1.245 . S
C257 C263 1.428 . S
C258 C261 1.260 . S
C258 C262 1.477 . S
C258 H276 0.932 . S
C259 C260 1.384 . S
C259 C261 1.479 . S
C259 H277 0.929 . S
C260 C257 1.424 . S
C260 C259 1.384 . S
C260 H278 0.928 . S
C261 C258 1.260 . S
C261 C259 1.479 . S
C262 C257 1.245 . S
C262 C258 1.477 . S
C262 H279 0.932 . S
C263 U246 2.882 . S
C263 C257 1.428 . S
C263 O266 1.301 . S
C263 O267 1.282 . S
O264 U246 2.441 1_556 S
O264 C250 1.249 . S
O265 U246 2.420 1_556 S
O265 C250 1.202 . S
O266 U246 2.455 . S
O266 C263 1.301 . S
O267 U246 2.449 . S
O267 C263 1.282 . S
H268 C241 0.931 . S
H269 C243 0.929 . S
H270 C244 0.930 . S
H271 C245 0.931 . S
H272 C252 0.932 . S
H273 C253 0.930 1_556 S
H274 C254 0.929 . S
H275 C256 0.930 . S
H276 C258 0.932 . S
H277 C259 0.929 . S
H278 C260 0.928 . S
H279 C262 0.932 . S
C280 C281 1.264 . S
C280 C285 1.479 . S
C280 C290 1.465 . S
C281 C280 1.264 . S
C281 C283 1.339 . S
C281 H308 0.931 . S
C282 C283 1.395 . S
C282 C284 1.320 . S
C283 C281 1.339 . S
C283 C282 1.395 . S
C283 H309 0.929 . S
C284 C282 1.320 . S
C284 C285 1.405 . S
C284 H310 0.930 . S
C285 C280 1.479 . S
C285 C284 1.405 . S
C285 H311 0.931 . S
U286 O287 2.454 . S
U286 O288 2.458 . S
U286 C289 2.984 . S
U286 C290 2.847 1_554 S
U286 C303 2.882 . S
U286 O304 2.441 1_554 S
U286 O305 2.420 1_554 S
U286 O306 2.455 . S
U286 O307 2.449 . S
O287 U286 2.454 . S
O287 C289 1.353 . S
O288 U286 2.458 . S
O288 C289 1.286 . S
C289 U286 2.984 . S
C289 O287 1.353 . S
C289 O288 1.286 . S
C289 C291 1.363 . S
C290 C280 1.465 . S
C290 U286 2.847 1_556 S
C290 O304 1.249 . S
C290 O305 1.202 . S
C291 C289 1.363 . S
C291 C293 1.408 . S
C291 C296 1.342 . S
C292 C293 1.310 . S
C292 C295 1.461 . S
C292 H312 0.932 . S
C293 C291 1.408 . S
C293 C292 1.310 . S
C293 H313 0.930 1_554 S
C294 C295 1.474 . S
C294 C296 1.285 . S
C294 H314 0.929 . S
C295 C292 1.461 . S
C295 C294 1.474 . S
C296 C291 1.342 . S
C296 C294 1.285 . S
C296 H315 0.930 . S
C297 C300 1.424 . S
C297 C302 1.245 . S
C297 C303 1.428 . S
C298 C301 1.260 . S
C298 C302 1.477 . S
C298 H316 0.932 . S
C299 C300 1.384 . S
C299 C301 1.479 . S
C299 H317 0.929 . S
C300 C297 1.424 . S
C300 C299 1.384 . S
C300 H318 0.928 . S
C301 C298 1.260 . S
C301 C299 1.479 . S
C302 C297 1.245 . S
C302 C298 1.477 . S
C302 H319 0.932 . S
C303 U286 2.882 . S
C303 C297 1.428 . S
C303 O306 1.301 . S
C303 O307 1.282 . S
O304 U286 2.441 1_556 S
O304 C290 1.249 . S
O305 U286 2.420 1_556 S
O305 C290 1.202 . S
O306 U286 2.455 . S
O306 C303 1.301 . S
O307 U286 2.449 . S
O307 C303 1.282 . S
H308 C281 0.931 . S
H309 C283 0.929 . S
H310 C284 0.930 . S
H311 C285 0.931 . S
H312 C292 0.932 . S
H313 C293 0.930 1_556 S
H314 C294 0.929 . S
H315 C296 0.930 . S
H316 C298 0.932 . S
H317 C299 0.929 . S
H318 C300 0.928 . S
H319 C302 0.932 . S
Gd320 C323 2.818 . S
Gd320 O340 2.377 . S
Gd320 O342 2.448 . S
Gd320 O343 2.506 . S
Gd320 O344 2.435 . S
Gd320 O345 2.717 1_565 S
Gd320 O347 2.395 1_565 S
Gd320 O351 2.327 1_455 S
Gd321 C332 2.818 . S
Gd321 O341 2.395 1_545 S
Gd321 O345 2.327 1_655 S
Gd321 O346 2.377 . S
Gd321 O348 2.448 . S
Gd321 O349 2.506 . S
Gd321 O350 2.435 . S
Gd321 O351 2.717 1_545 S
C322 O340 1.240 1_655 S
C322 O341 1.240 . S
C323 Gd320 2.818 . S
C323 C324 1.510 . S
C323 O342 1.249 . S
C323 O343 1.252 . S
C324 C323 1.510 . S
C324 C325 1.404 . S
C324 C326 1.352 . S
C325 C324 1.404 . S
C325 C329 1.389 . S
C325 H352 0.930 . S
C326 C324 1.352 . S
C326 C328 1.374 . S
C326 H353 0.931 1_455 S
C327 C328 1.359 . S
C327 C329 1.364 . S
C328 C326 1.374 . S
C328 C327 1.359 . S
C328 H354 0.931 1_455 S
C329 C325 1.389 . S
C329 C327 1.364 . S
C329 H355 0.931 . S
C330 O344 1.256 1_545 S
C330 O345 1.257 . S
C331 O346 1.240 1_455 S
C331 O347 1.240 . S
C332 Gd321 2.818 . S
C332 C333 1.510 . S
C332 O348 1.249 . S
C332 O349 1.252 . S
C333 C332 1.510 . S
C333 C334 1.404 . S
C333 C335 1.352 . S
C334 C333 1.404 . S
C334 C338 1.389 . S
C334 H356 0.930 . S
C335 C333 1.352 . S
C335 C337 1.374 . S
C335 H357 0.931 1_655 S
C336 C337 1.359 . S
C336 C338 1.364 . S
C337 C335 1.374 . S
C337 C336 1.359 . S
C337 H358 0.931 1_655 S
C338 C334 1.389 . S
C338 C336 1.364 . S
C338 H359 0.931 . S
C339 O350 1.256 . S
C339 O351 1.257 1_545 S
O340 Gd320 2.377 . S
O340 C322 1.240 1_455 S
O341 Gd321 2.395 1_565 S
O341 C322 1.240 . S
O342 Gd320 2.448 . S
O342 C323 1.249 . S
O343 Gd320 2.506 . S
O343 C323 1.252 . S
O344 Gd320 2.435 . S
O344 C330 1.256 1_565 S
O345 Gd320 2.717 1_545 S
O345 Gd321 2.327 1_455 S
O345 C330 1.257 . S
O346 Gd321 2.377 . S
O346 C331 1.240 1_655 S
O347 Gd320 2.395 1_545 S
O347 C331 1.240 . S
O348 Gd321 2.448 . S
O348 C332 1.249 . S
O349 Gd321 2.506 . S
O349 C332 1.252 . S
O350 Gd321 2.435 . S
O350 C339 1.256 . S
O351 Gd320 2.327 1_655 S
O351 Gd321 2.717 1_565 S
O351 C339 1.257 1_565 S
H352 C325 0.930 . S
H353 C326 0.931 1_655 S
H354 C328 0.931 1_655 S
H355 C329 0.931 . S
H356 C334 0.930 . S
H357 C335 0.931 1_455 S
H358 C337 0.931 1_455 S
H359 C338 0.931 . S
Gd360 C363 2.818 . S
Gd360 O380 2.377 . S
Gd360 O382 2.448 . S
Gd360 O383 2.506 . S
Gd360 O384 2.435 . S
Gd360 O385 2.717 . S
Gd360 O387 2.395 . S
Gd360 O391 2.327 1_545 S
Gd361 C372 2.818 . S
Gd361 O381 2.395 . S
Gd361 O385 2.327 1_565 S
Gd361 O386 2.377 . S
Gd361 O388 2.448 . S
Gd361 O389 2.506 1_565 S
Gd361 O390 2.435 . S
Gd361 O391 2.717 . S
C362 O380 1.240 1_565 S
C362 O381 1.240 . S
C363 Gd360 2.818 . S
C363 C364 1.510 . S
C363 O382 1.249 . S
C363 O383 1.252 . S
C364 C363 1.510 . S
C364 C365 1.404 . S
C364 C366 1.352 . S
C365 C364 1.404 . S
C365 C369 1.389 . S
C365 H392 0.930 . S
C366 C364 1.352 . S
C366 C368 1.374 . S
C366 H393 0.931 1_545 S
C367 C368 1.359 . S
C367 C369 1.364 . S
C368 C366 1.374 . S
C368 C367 1.359 . S
C368 H394 0.931 1_545 S
C369 C365 1.389 . S
C369 C367 1.364 . S
C369 H395 0.931 . S
C370 O384 1.256 . S
C370 O385 1.257 . S
C371 O386 1.240 1_545 S
C371 O387 1.240 . S
C372 Gd361 2.818 . S
C372 C373 1.510 . S
C372 O388 1.249 . S
C372 O389 1.252 1_565 S
C373 C372 1.510 . S
C373 C374 1.404 . S
C373 C375 1.352 1_565 S
C374 C373 1.404 . S
C374 C378 1.389 . S
C374 H396 0.930 . S
C375 C373 1.352 1_545 S
C375 C377 1.374 1_545 S
C375 H397 0.931 . S
C376 C377 1.363 . S
C376 C378 1.364 . S
C377 C375 1.374 1_565 S
C377 C376 1.363 . S
C377 H398 0.927 1_565 S
C378 C374 1.389 . S
C378 C376 1.364 . S
C378 H399 0.931 . S
C379 O390 1.256 . S
C379 O391 1.257 . S
O380 Gd360 2.377 . S
O380 C362 1.240 1_545 S
O381 Gd361 2.395 . S
O381 C362 1.240 . S
O382 Gd360 2.448 . S
O382 C363 1.249 . S
O383 Gd360 2.506 . S
O383 C363 1.252 . S
O384 Gd360 2.435 . S
O384 C370 1.256 . S
O385 Gd360 2.717 . S
O385 Gd361 2.327 1_545 S
O385 C370 1.257 . S
O386 Gd361 2.377 . S
O386 C371 1.240 1_565 S
O387 Gd360 2.395 . S
O387 C371 1.240 . S
O388 Gd361 2.448 . S
O388 C372 1.249 . S
O389 Gd361 2.506 1_545 S
O389 C372 1.252 1_545 S
O390 Gd361 2.435 . S
O390 C379 1.256 . S
O391 Gd360 2.327 1_565 S
O391 Gd361 2.717 . S
O391 C379 1.257 . S
H392 C365 0.930 . S
H393 C366 0.931 1_565 S
H394 C368 0.931 1_565 S
H395 C369 0.931 . S
H396 C374 0.930 . S
H397 C375 0.931 . S
H398 C377 0.927 1_545 S
H399 C378 0.931 . S
Gd400 C403 2.818 . S
Gd400 O420 2.377 . S
Gd400 O422 2.448 . S
Gd400 O423 2.506 . S
Gd400 O424 2.435 . S
Gd400 O425 2.717 . S
Gd400 O427 2.395 . S
Gd400 O431 2.327 . S
Gd401 C412 2.818 . S
Gd401 O421 2.395 . S
Gd401 O425 2.327 . S
Gd401 O426 2.377 . S
Gd401 O428 2.448 . S
Gd401 O429 2.506 . S
Gd401 O430 2.435 . S
Gd401 O431 2.717 . S
C402 O420 1.240 . S
C402 O421 1.240 . S
C403 Gd400 2.818 . S
C403 C404 1.510 . S
C403 O422 1.249 . S
C403 O423 1.252 . S
C404 C403 1.510 . S
C404 C405 1.404 . S
C404 C406 1.352 . S
C405 C404 1.404 . S
C405 C409 1.389 . S
C405 H432 0.930 . S
C406 C404 1.352 . S
C406 C408 1.374 . S
C406 H433 0.931 . S
C407 C408 1.359 . S
C407 C409 1.364 . S
C408 C406 1.374 . S
C408 C407 1.359 . S
C408 H434 0.931 . S
C409 C405 1.389 . S
C409 C407 1.364 . S
C409 H435 0.931 . S
C410 O424 1.256 . S
C410 O425 1.257 . S
C411 O426 1.240 . S
C411 O427 1.240 . S
C412 Gd401 2.818 . S
C412 C413 1.510 . S
C412 O428 1.249 . S
C412 O429 1.252 . S
C413 C412 1.510 . S
C413 C414 1.404 . S
C413 C415 1.352 . S
C414 C413 1.404 . S
C414 C418 1.389 . S
C414 H436 0.930 . S
C415 C413 1.352 . S
C415 C417 1.374 . S
C415 H437 0.931 . S
C416 C417 1.359 . S
C416 C418 1.364 . S
C417 C415 1.374 . S
C417 C416 1.359 . S
C417 H438 0.931 . S
C418 C414 1.389 . S
C418 C416 1.364 . S
C418 H439 0.931 . S
C419 O430 1.256 . S
C419 O431 1.257 . S
O420 Gd400 2.377 . S
O420 C402 1.240 . S
O421 Gd401 2.395 . S
O421 C402 1.240 . S
O422 Gd400 2.448 . S
O422 C403 1.249 . S
O423 Gd400 2.506 . S
O423 C403 1.252 . S
O424 Gd400 2.435 . S
O424 C410 1.256 . S
O425 Gd400 2.717 . S
O425 Gd401 2.327 . S
O425 C410 1.257 . S
O426 Gd401 2.377 . S
O426 C411 1.240 . S
O427 Gd400 2.395 . S
O427 C411 1.240 . S
O428 Gd401 2.448 . S
O428 C412 1.249 . S
O429 Gd401 2.506 . S
O429 C412 1.252 . S
O430 Gd401 2.435 . S
O430 C419 1.256 . S
O431 Gd400 2.327 . S
O431 Gd401 2.717 . S
O431 C419 1.257 . S
H432 C405 0.930 . S
H433 C406 0.931 . S
H434 C408 0.931 . S
H435 C409 0.931 . S
H436 C414 0.930 . S
H437 C415 0.931 . S
H438 C417 0.931 . S
H439 C418 0.931 . S
Gd440 C443 2.818 . S
Gd440 O460 2.377 . S
Gd440 O462 2.448 . S
Gd440 O463 2.506 . S
Gd440 O464 2.435 . S
Gd440 O465 2.717 1_655 S
Gd440 O467 2.395 1_655 S
Gd440 O471 2.327 . S
Gd441 C452 2.818 . S
Gd441 O461 2.395 1_455 S
Gd441 O465 2.327 . S
Gd441 O466 2.377 . S
Gd441 O468 2.448 . S
Gd441 O469 2.506 . S
Gd441 O470 2.435 . S
Gd441 O471 2.717 1_455 S
C442 O460 1.240 . S
C442 O461 1.240 . S
C443 Gd440 2.818 . S
C443 C444 1.510 . S
C443 O462 1.249 . S
C443 O463 1.252 . S
C444 C443 1.510 . S
C444 C445 1.404 . S
C444 C446 1.352 . S
C445 C444 1.404 . S
C445 C449 1.389 . S
C445 H472 0.930 . S
C446 C444 1.352 . S
C446 C448 1.374 . S
C446 H473 0.931 . S
C447 C448 1.359 . S
C447 C449 1.364 . S
C448 C446 1.374 . S
C448 C447 1.359 . S
C448 H474 0.931 . S
C449 C445 1.389 . S
C449 C447 1.364 . S
C449 H475 0.931 . S
C450 O464 1.256 . S
C450 O465 1.257 1_655 S
C451 O466 1.240 . S
C451 O467 1.240 . S
C452 Gd441 2.818 . S
C452 C453 1.510 . S
C452 O468 1.249 . S
C452 O469 1.252 . S
C453 C452 1.510 . S
C453 C454 1.404 . S
C453 C455 1.352 . S
C454 C453 1.404 . S
C454 C458 1.389 . S
C454 H476 0.930 . S
C455 C453 1.352 . S
C455 C457 1.374 . S
C455 H477 0.931 . S
C456 C457 1.359 . S
C456 C458 1.364 . S
C457 C455 1.374 . S
C457 C456 1.359 . S
C457 H478 0.931 . S
C458 C454 1.389 . S
C458 C456 1.364 . S
C458 H479 0.931 . S
C459 O470 1.256 . S
C459 O471 1.257 1_455 S
O460 Gd440 2.377 . S
O460 C442 1.240 . S
O461 Gd441 2.395 1_655 S
O461 C442 1.240 . S
O462 Gd440 2.448 . S
O462 C443 1.249 . S
O463 Gd440 2.506 . S
O463 C443 1.252 . S
O464 Gd440 2.435 . S
O464 C450 1.256 . S
O465 Gd440 2.717 1_455 S
O465 Gd441 2.327 . S
O465 C450 1.257 1_455 S
O466 Gd441 2.377 . S
O466 C451 1.240 . S
O467 Gd440 2.395 1_455 S
O467 C451 1.240 . S
O468 Gd441 2.448 . S
O468 C452 1.249 . S
O469 Gd441 2.506 . S
O469 C452 1.252 . S
O470 Gd441 2.435 . S
O470 C459 1.256 . S
O471 Gd440 2.327 . S
O471 Gd441 2.717 1_655 S
O471 C459 1.257 1_655 S
H472 C445 0.930 . S
H473 C446 0.931 . S
H474 C448 0.931 . S
H475 C449 0.931 . S
H476 C454 0.930 . S
H477 C455 0.931 . S
H478 C457 0.931 . S
H479 C458 0.931 . S
C480 C481 1.391 . S
C480 C482 1.394 . S
C480 H496 0.931 . S
C481 C480 1.391 . S
C481 C485 1.376 1_545 S
C482 C480 1.394 . S
C482 C483 1.369 . S
C482 C486 1.531 . S
C483 C482 1.369 . S
C483 C484 1.410 1_545 S
C483 C491 1.503 . S
C484 C483 1.410 1_565 S
C484 C485 1.392 . S
C484 C487 1.511 . S
C485 C481 1.376 1_565 S
C485 C484 1.392 . S
C485 H497 0.929 . S
C486 C482 1.531 . S
C486 H498 0.960 . S
C486 H499 0.962 . S
C486 H500 0.960 . S
C487 C484 1.511 . S
C487 H501 0.961 . S
C487 H502 0.961 . S
C487 H503 0.961 . S
C488 C489 1.370 . S
C488 C490 1.363 . S
C488 H504 0.931 1_545 S
C489 C488 1.370 . S
C489 C493 1.408 . S
C490 C488 1.363 . S
C490 C491 1.370 . S
C490 C494 1.524 1_545 S
C491 C483 1.503 . S
C491 C490 1.370 . S
C491 C492 1.403 . S
C492 C491 1.403 . S
C492 C493 1.404 . S
C492 C495 1.539 . S
C493 C489 1.408 . S
C493 C492 1.404 . S
C493 H505 0.930 . S
C494 C490 1.524 1_565 S
C494 H506 0.956 1_565 S
C494 H507 0.961 . S
C494 H508 0.961 . S
C495 C492 1.539 . S
C495 H509 0.958 . S
C495 H510 0.961 . S
C495 H511 0.960 . S
H496 C480 0.931 . S
H497 C485 0.929 . S
H498 C486 0.960 . S
H499 C486 0.962 . S
H500 C486 0.960 . S
H501 C487 0.961 . S
H502 C487 0.961 . S
H503 C487 0.961 . S
H504 C488 0.931 1_565 S
H505 C493 0.930 . S
H506 C494 0.956 1_545 S
H507 C494 0.961 . S
H508 C494 0.961 . S
H509 C495 0.958 . S
H510 C495 0.961 . S
H511 C495 0.960 . S
C512 C513 1.391 . S
C512 C514 1.394 . S
C512 H528 0.931 . S
C513 C512 1.391 . S
C513 C517 1.376 . S
C514 C512 1.394 . S
C514 C515 1.369 . S
C514 C518 1.531 . S
C515 C514 1.369 . S
C515 C516 1.410 . S
C515 C523 1.503 . S
C516 C515 1.410 . S
C516 C517 1.392 . S
C516 C519 1.511 . S
C517 C513 1.376 . S
C517 C516 1.392 . S
C517 H529 0.929 . S
C518 C514 1.531 . S
C518 H530 0.960 . S
C518 H531 0.962 . S
C518 H532 0.960 . S
C519 C516 1.511 . S
C519 H533 0.961 . S
C519 H534 0.961 . S
C519 H535 0.961 . S
C520 C521 1.370 . S
C520 C522 1.363 . S
C520 H536 0.931 . S
C521 C520 1.370 . S
C521 C525 1.408 . S
C522 C520 1.363 . S
C522 C523 1.370 . S
C522 C526 1.524 . S
C523 C515 1.503 . S
C523 C522 1.370 . S
C523 C524 1.403 . S
C524 C523 1.403 . S
C524 C525 1.404 . S
C524 C527 1.539 . S
C525 C521 1.408 . S
C525 C524 1.404 . S
C525 H537 0.930 . S
C526 C522 1.524 . S
C526 H538 0.956 . S
C526 H539 0.961 . S
C526 H540 0.961 . S
C527 C524 1.539 . S
C527 H541 0.958 . S
C527 H542 0.961 . S
C527 H543 0.960 . S
H528 C512 0.931 . S
H529 C517 0.929 . S
H530 C518 0.960 . S
H531 C518 0.962 . S
H532 C518 0.960 . S
H533 C519 0.961 . S
H534 C519 0.961 . S
H535 C519 0.961 . S
H536 C520 0.931 . S
H537 C525 0.930 . S
H538 C526 0.956 . S
H539 C526 0.961 . S
H540 C526 0.961 . S
H541 C527 0.958 . S
H542 C527 0.961 . S
H543 C527 0.960 . S
C544 C545 1.391 . S
C544 C546 1.394 . S
C544 H560 0.931 . S
C545 C544 1.391 . S
C545 C549 1.376 . S
C546 C544 1.394 . S
C546 C547 1.369 . S
C546 C550 1.531 . S
C547 C546 1.369 . S
C547 C548 1.410 . S
C547 C555 1.503 . S
C548 C547 1.410 . S
C548 C549 1.392 . S
C548 C551 1.511 . S
C549 C545 1.376 . S
C549 C548 1.392 . S
C549 H561 0.929 . S
C550 C546 1.531 . S
C550 H562 0.960 . S
C550 H563 0.962 . S
C550 H564 0.960 . S
C551 C548 1.511 . S
C551 H565 0.961 . S
C551 H566 0.961 . S
C551 H567 0.961 . S
C552 C553 1.370 . S
C552 C554 1.363 . S
C552 H568 0.931 . S
C553 C552 1.370 . S
C553 C557 1.408 . S
C554 C552 1.363 . S
C554 C555 1.370 . S
C554 C558 1.524 . S
C555 C547 1.503 . S
C555 C554 1.370 . S
C555 C556 1.403 . S
C556 C555 1.403 . S
C556 C557 1.404 . S
C556 C559 1.539 . S
C557 C553 1.408 . S
C557 C556 1.404 . S
C557 H569 0.930 . S
C558 C554 1.524 . S
C558 H570 0.956 . S
C558 H571 0.961 . S
C558 H572 0.961 . S
C559 C556 1.539 . S
C559 H573 0.958 . S
C559 H574 0.961 . S
C559 H575 0.960 . S
H560 C544 0.931 . S
H561 C549 0.929 . S
H562 C550 0.960 . S
H563 C550 0.962 . S
H564 C550 0.960 . S
H565 C551 0.961 . S
H566 C551 0.961 . S
H567 C551 0.961 . S
H568 C552 0.931 . S
H569 C557 0.930 . S
H570 C558 0.956 . S
H571 C558 0.961 . S
H572 C558 0.961 . S
H573 C559 0.958 . S
H574 C559 0.961 . S
H575 C559 0.960 . S
C576 C577 1.391 1_655 S
C576 C578 1.394 . S
C576 H592 0.931 . S
C577 C576 1.391 1_455 S
C577 C581 1.376 . S
C578 C576 1.394 . S
C578 C579 1.369 1_655 S
C578 C582 1.531 . S
C579 C578 1.369 1_455 S
C579 C580 1.410 . S
C579 C587 1.503 . S
C580 C579 1.410 . S
C580 C581 1.392 . S
C580 C583 1.511 . S
C581 C577 1.376 . S
C581 C580 1.392 . S
C581 H593 0.929 . S
C582 C578 1.531 . S
C582 H594 0.960 . S
C582 H595 0.962 . S
C582 H596 0.960 . S
C583 C580 1.511 . S
C583 H597 0.961 . S
C583 H598 0.961 . S
C583 H599 0.961 . S
C584 C585 1.370 1_655 S
C584 C586 1.363 . S
C584 H600 0.931 . S
C585 C584 1.370 1_455 S
C585 C589 1.408 . S
C586 C584 1.363 . S
C586 C587 1.370 1_655 S
C586 C590 1.524 . S
C587 C579 1.503 . S
C587 C586 1.370 1_455 S
C587 C588 1.403 . S
C588 C587 1.403 . S
C588 C589 1.404 . S
C588 C591 1.539 . S
C589 C585 1.408 . S
C589 C588 1.404 . S
C589 H601 0.930 . S
C590 C586 1.524 . S
C590 H602 0.956 . S
C590 H603 0.961 . S
C590 H604 0.961 . S
C591 C588 1.539 . S
C591 H605 0.958 . S
C591 H606 0.961 . S
C591 H607 0.960 . S
H592 C576 0.931 . S
H593 C581 0.929 . S
H594 C582 0.960 . S
H595 C582 0.962 . S
H596 C582 0.960 . S
H597 C583 0.961 . S
H598 C583 0.961 . S
H599 C583 0.961 . S
H600 C584 0.931 . S
H601 C589 0.930 . S
H602 C590 0.956 . S
H603 C590 0.961 . S
H604 C590 0.961 . S
H605 C591 0.958 . S
H606 C591 0.961 . S
H607 C591 0.960 . S
C608 C609 1.391 . S
C608 C610 1.394 . S
C608 H624 0.931 . S
C609 C608 1.391 . S
C609 C613 1.376 1_565 S
C610 C608 1.394 . S
C610 C611 1.369 . S
C610 C614 1.531 1_554 S
C611 C610 1.369 . S
C611 C612 1.410 1_565 S
C611 C619 1.503 1_554 S
C612 C611 1.410 1_545 S
C612 C613 1.392 . S
C612 C615 1.511 . S
C613 C609 1.376 1_545 S
C613 C612 1.392 . S
C613 H625 0.929 . S
C614 C610 1.531 1_556 S
C614 H626 0.960 . S
C614 H627 0.962 . S
C614 H628 0.959 1_556 S
C615 C612 1.511 . S
C615 H629 0.961 . S
C615 H630 0.961 . S
C615 H631 0.961 . S
C616 C617 1.385 . S
C616 C618 1.363 . S
C616 H632 0.931 . S
C617 C616 1.385 . S
C617 C621 1.396 1_565 S
C618 C616 1.363 . S
C618 C619 1.370 . S
C618 C622 1.524 1_556 S
C619 C611 1.503 1_556 S
C619 C618 1.370 . S
C619 C620 1.403 1_565 S
C620 C619 1.403 1_545 S
C620 C621 1.404 . S
C620 C623 1.539 . S
C621 C617 1.396 1_545 S
C621 C620 1.404 . S
C621 H633 0.930 . S
C622 C618 1.524 1_554 S
C622 H634 0.956 . S
C622 H635 0.961 . S
C622 H636 0.961 1_554 S
C623 C620 1.539 . S
C623 H637 0.958 . S
C623 H638 0.961 . S
C623 H639 0.960 . S
H624 C608 0.931 . S
H625 C613 0.929 . S
H626 C614 0.960 . S
H627 C614 0.962 . S
H628 C614 0.959 1_554 S
H629 C615 0.961 . S
H630 C615 0.961 . S
H631 C615 0.961 . S
H632 C616 0.931 . S
H633 C621 0.930 . S
H634 C622 0.956 . S
H635 C622 0.961 . S
H636 C622 0.961 1_556 S
H637 C623 0.958 . S
H638 C623 0.961 . S
H639 C623 0.960 . S
C640 C641 1.391 . S
C640 C642 1.394 . S
C640 H656 0.931 . S
C641 C640 1.391 . S
C641 C645 1.376 . S
C642 C640 1.394 . S
C642 C643 1.369 . S
C642 C646 1.531 . S
C643 C642 1.369 . S
C643 C644 1.410 . S
C643 C651 1.503 1_554 S
C644 C643 1.410 . S
C644 C645 1.392 . S
C644 C647 1.511 1_554 S
C645 C641 1.376 . S
C645 C644 1.392 . S
C645 H657 0.929 . S
C646 C642 1.531 . S
C646 H658 0.960 . S
C646 H659 0.962 . S
C646 H660 0.960 . S
C647 C644 1.511 1_556 S
C647 H661 0.961 1_556 S
C647 H662 0.961 . S
C647 H663 0.961 . S
C648 C649 1.370 . S
C648 C650 1.363 . S
C648 H664 0.931 . S
C649 C648 1.370 . S
C649 C653 1.408 . S
C650 C648 1.363 . S
C650 C651 1.370 . S
C650 C654 1.516 1_556 S
C651 C643 1.503 1_556 S
C651 C650 1.370 . S
C651 C652 1.403 . S
C652 C651 1.403 . S
C652 C653 1.404 . S
C652 C655 1.539 . S
C653 C649 1.408 . S
C653 C652 1.404 . S
C653 H665 0.930 . S
C654 C650 1.516 1_554 S
C654 H666 0.964 . S
C654 H667 0.964 . S
C654 H668 0.956 1_554 S
C655 C652 1.539 . S
C655 H669 0.958 . S
C655 H670 0.961 . S
C655 H671 0.960 . S
H656 C640 0.931 . S
H657 C645 0.929 . S
H658 C646 0.960 . S
H659 C646 0.962 . S
H660 C646 0.960 . S
H661 C647 0.961 1_554 S
H662 C647 0.961 . S
H663 C647 0.961 . S
H664 C648 0.931 . S
H665 C653 0.930 . S
H666 C654 0.964 . S
H667 C654 0.964 . S
H668 C654 0.956 1_556 S
H669 C655 0.958 . S
H670 C655 0.961 . S
H671 C655 0.960 . S
C672 C673 1.391 . S
C672 C674 1.394 . S
C672 H688 0.931 . S
C673 C672 1.391 . S
C673 C677 1.376 . S
C674 C672 1.394 . S
C674 C675 1.369 . S
C674 C678 1.531 . S
C675 C674 1.369 . S
C675 C676 1.410 . S
C675 C683 1.503 1_554 S
C676 C675 1.410 . S
C676 C677 1.392 . S
C676 C679 1.511 1_554 S
C677 C673 1.376 . S
C677 C676 1.392 . S
C677 H689 0.929 . S
C678 C674 1.531 . S
C678 H690 0.976 . S
C678 H691 0.962 . S
C678 H692 0.960 . S
C679 C676 1.511 1_556 S
C679 H693 0.961 1_556 S
C679 H694 0.961 . S
C679 H695 0.961 . S
C680 C681 1.370 . S
C680 C682 1.363 . S
C680 H696 0.931 . S
C681 C680 1.370 . S
C681 C685 1.408 . S
C682 C680 1.363 . S
C682 C683 1.370 . S
C682 C686 1.524 1_556 S
C683 C675 1.503 1_556 S
C683 C682 1.370 . S
C683 C684 1.403 . S
C684 C683 1.403 . S
C684 C685 1.404 . S
C684 C687 1.539 . S
C685 C681 1.408 . S
C685 C684 1.404 . S
C685 H697 0.930 . S
C686 C682 1.524 1_554 S
C686 H698 0.956 . S
C686 H699 0.961 . S
C686 H700 0.961 1_554 S
C687 C684 1.539 . S
C687 H701 0.958 . S
C687 H702 0.961 . S
C687 H703 0.960 . S
H688 C672 0.931 . S
H689 C677 0.929 . S
H690 C678 0.976 . S
H691 C678 0.962 . S
H692 C678 0.960 . S
H693 C679 0.961 1_554 S
H694 C679 0.961 . S
H695 C679 0.961 . S
H696 C680 0.931 . S
H697 C685 0.930 . S
H698 C686 0.956 . S
H699 C686 0.961 . S
H700 C686 0.961 1_556 S
H701 C687 0.958 . S
H702 C687 0.961 . S
H703 C687 0.960 . S
C704 C705 1.358 1_655 S
C704 C706 1.394 . S
C704 H720 0.931 . S
C705 C704 1.358 1_455 S
C705 C709 1.413 . S
C706 C704 1.394 . S
C706 C707 1.369 1_655 S
C706 C710 1.531 1_554 S
C707 C706 1.369 1_455 S
C707 C708 1.410 . S
C707 C715 1.503 1_554 S
C708 C707 1.410 . S
C708 C709 1.392 . S
C708 C711 1.511 . S
C709 C705 1.413 . S
C709 C708 1.392 . S
C709 H721 0.929 . S
C710 C706 1.531 1_556 S
C710 H722 0.960 . S
C710 H723 0.962 . S
C710 H724 0.960 1_556 S
C711 C708 1.511 . S
C711 H725 0.961 . S
C711 H726 0.961 . S
C711 H727 0.961 . S
C712 C713 1.378 . S
C712 C714 1.363 . S
C712 H728 0.931 . S
C713 C712 1.378 . S
C713 C717 1.400 1_655 S
C714 C712 1.363 . S
C714 C715 1.370 1_655 S
C714 C718 1.524 1_556 S
C715 C707 1.503 1_556 S
C715 C714 1.370 1_455 S
C715 C716 1.403 . S
C716 C715 1.403 . S
C716 C717 1.404 . S
C716 C719 1.539 . S
C717 C713 1.400 1_455 S
C717 C716 1.404 . S
C717 H729 0.930 . S
C718 C714 1.524 1_554 S
C718 H730 0.956 . S
C718 H731 0.961 . S
C718 H732 0.961 1_554 S
C719 C716 1.539 . S
C719 H733 0.958 . S
C719 H734 0.961 . S
C719 H735 0.960 . S
H720 C704 0.931 . S
H721 C709 0.929 . S
H722 C710 0.960 . S
H723 C710 0.962 . S
H724 C710 0.960 1_554 S
H725 C711 0.961 . S
H726 C711 0.961 . S
H727 C711 0.961 . S
H728 C712 0.931 . S
H729 C717 0.930 . S
H730 C718 0.956 . S
H731 C718 0.961 . S
H732 C718 0.961 1_556 S
H733 C719 0.958 . S
H734 C719 0.961 . S
H735 C719 0.960 . S
C736 C737 1.391 1_655 S
C736 C738 1.394 . S
C736 H752 0.931 . S
C737 C736 1.391 1_455 S
C737 C741 1.376 . S
C738 C736 1.394 . S
C738 C739 1.369 . S
C738 C742 1.531 . S
C739 C738 1.369 . S
C739 C740 1.410 1_655 S
C739 C747 1.503 . S
C740 C739 1.410 1_455 S
C740 C741 1.392 . S
C740 C743 1.511 . S
C741 C737 1.376 . S
C741 C740 1.392 . S
C741 H753 0.929 . S
C742 C738 1.531 . S
C742 H754 0.960 . S
C742 H755 0.962 . S
C742 H756 0.960 . S
C743 C740 1.511 . S
C743 H757 0.961 . S
C743 H758 0.961 . S
C743 H759 0.961 . S
C744 C745 1.370 . S
C744 C746 1.363 . S
C744 H760 0.931 . S
C745 C744 1.370 . S
C745 C749 1.408 . S
C746 C744 1.363 . S
C746 C747 1.370 . S
C746 C750 1.524 . S
C747 C739 1.503 . S
C747 C746 1.370 . S
C747 C748 1.403 . S
C748 C747 1.403 . S
C748 C749 1.404 . S
C748 C751 1.539 1_655 S
C749 C745 1.408 . S
C749 C748 1.404 . S
C749 H761 0.930 . S
C750 C746 1.524 . S
C750 H762 0.956 . S
C750 H763 0.961 . S
C750 H764 0.961 . S
C751 C748 1.539 1_455 S
C751 H765 0.958 1_455 S
C751 H766 0.961 . S
C751 H767 0.960 . S
H752 C736 0.931 . S
H753 C741 0.929 . S
H754 C742 0.960 . S
H755 C742 0.962 . S
H756 C742 0.960 . S
H757 C743 0.961 . S
H758 C743 0.961 . S
H759 C743 0.961 . S
H760 C744 0.931 . S
H761 C749 0.930 . S
H762 C750 0.956 . S
H763 C750 0.961 . S
H764 C750 0.961 . S
H765 C751 0.958 1_655 S
H766 C751 0.961 . S
H767 C751 0.960 . S
C768 C769 1.391 . S
C768 C770 1.394 . S
C768 H784 0.931 . S
C769 C768 1.391 . S
C769 C773 1.376 1_545 S
C770 C768 1.394 . S
C770 C771 1.369 . S
C770 C774 1.531 . S
C771 C770 1.369 . S
C771 C772 1.410 1_545 S
C771 C779 1.503 1_545 S
C772 C771 1.410 1_565 S
C772 C773 1.392 . S
C772 C775 1.511 . S
C773 C769 1.376 1_565 S
C773 C772 1.392 . S
C773 H785 0.929 . S
C774 C770 1.531 . S
C774 H786 0.960 . S
C774 H787 0.962 . S
C774 H788 0.960 . S
C775 C772 1.511 . S
C775 H789 0.961 . S
C775 H790 0.961 . S
C775 H791 0.961 . S
C776 C777 1.370 . S
C776 C778 1.363 . S
C776 H792 0.931 . S
C777 C776 1.370 . S
C777 C781 1.408 . S
C778 C776 1.363 . S
C778 C779 1.370 . S
C778 C782 1.524 . S
C779 C771 1.503 1_565 S
C779 C778 1.370 . S
C779 C780 1.403 . S
C780 C779 1.403 . S
C780 C781 1.404 . S
C780 C783 1.539 1_565 S
C781 C777 1.408 . S
C781 C780 1.404 . S
C781 H793 0.930 . S
C782 C778 1.524 . S
C782 H794 0.950 1_565 S
C782 H795 0.961 . S
C782 H796 0.961 . S
C783 C780 1.539 1_545 S
C783 H797 0.958 . S
C783 H798 0.961 1_545 S
C783 H799 0.960 1_545 S
H784 C768 0.931 . S
H785 C773 0.929 . S
H786 C774 0.960 . S
H787 C774 0.962 . S
H788 C774 0.960 . S
H789 C775 0.961 . S
H790 C775 0.961 . S
H791 C775 0.961 . S
H792 C776 0.931 . S
H793 C781 0.930 . S
H794 C782 0.950 1_545 S
H795 C782 0.961 . S
H796 C782 0.961 . S
H797 C783 0.958 . S
H798 C783 0.961 1_565 S
H799 C783 0.960 1_565 S
C800 C801 1.391 . S
C800 C802 1.394 . S
C800 H816 0.931 . S
C801 C800 1.391 . S
C801 C805 1.376 . S
C802 C800 1.394 . S
C802 C803 1.369 . S
C802 C806 1.531 . S
C803 C802 1.369 . S
C803 C804 1.410 . S
C803 C811 1.503 . S
C804 C803 1.410 . S
C804 C805 1.392 . S
C804 C807 1.511 . S
C805 C801 1.376 . S
C805 C804 1.392 . S
C805 H817 0.929 . S
C806 C802 1.531 . S
C806 H818 0.960 . S
C806 H819 0.962 . S
C806 H820 0.960 . S
C807 C804 1.511 . S
C807 H821 0.961 . S
C807 H822 0.961 . S
C807 H823 0.961 . S
C808 C809 1.370 . S
C808 C810 1.363 . S
C808 H824 0.931 . S
C809 C808 1.370 . S
C809 C813 1.408 . S
C810 C808 1.363 . S
C810 C811 1.370 . S
C810 C814 1.524 . S
C811 C803 1.503 . S
C811 C810 1.370 . S
C811 C812 1.403 . S
C812 C811 1.403 . S
C812 C813 1.404 . S
C812 C815 1.539 . S
C813 C809 1.408 . S
C813 C812 1.404 . S
C813 H825 0.930 . S
C814 C810 1.524 . S
C814 H826 0.956 . S
C814 H827 0.961 . S
C814 H828 0.961 . S
C815 C812 1.539 . S
C815 H829 0.958 . S
C815 H830 0.961 . S
C815 H831 0.960 . S
H816 C800 0.931 . S
H817 C805 0.929 . S
H818 C806 0.960 . S
H819 C806 0.962 . S
H820 C806 0.960 . S
H821 C807 0.961 . S
H822 C807 0.961 . S
H823 C807 0.961 . S
H824 C808 0.931 . S
H825 C813 0.930 . S
H826 C814 0.956 . S
H827 C814 0.961 . S
H828 C814 0.961 . S
H829 C815 0.958 . S
H830 C815 0.961 . S
H831 C815 0.960 . S
C832 C833 1.391 . S
C832 C834 1.394 . S
C832 H848 0.931 . S
C833 C832 1.391 . S
C833 C837 1.376 . S
C834 C832 1.394 . S
C834 C835 1.369 . S
C834 C838 1.531 . S
C835 C834 1.369 . S
C835 C836 1.410 . S
C835 C843 1.503 . S
C836 C835 1.410 . S
C836 C837 1.392 . S
C836 C839 1.511 . S
C837 C833 1.376 . S
C837 C836 1.392 . S
C837 H849 0.929 . S
C838 C834 1.531 . S
C838 H850 0.960 . S
C838 H851 0.962 . S
C838 H852 0.960 . S
C839 C836 1.511 . S
C839 H853 0.961 . S
C839 H854 0.961 . S
C839 H855 0.961 . S
C840 C841 1.370 . S
C840 C842 1.363 . S
C840 H856 0.931 . S
C841 C840 1.370 . S
C841 C845 1.408 . S
C842 C840 1.363 . S
C842 C843 1.370 . S
C842 C846 1.524 . S
C843 C835 1.503 . S
C843 C842 1.370 . S
C843 C844 1.403 . S
C844 C843 1.403 . S
C844 C845 1.404 . S
C844 C847 1.539 . S
C845 C841 1.408 . S
C845 C844 1.404 . S
C845 H857 0.930 . S
C846 C842 1.524 . S
C846 H858 0.956 . S
C846 H859 0.961 . S
C846 H860 0.961 . S
C847 C844 1.539 . S
C847 H861 0.958 . S
C847 H862 0.961 . S
C847 H863 0.960 . S
H848 C832 0.931 . S
H849 C837 0.929 . S
H850 C838 0.960 . S
H851 C838 0.962 . S
H852 C838 0.960 . S
H853 C839 0.961 . S
H854 C839 0.961 . S
H855 C839 0.961 . S
H856 C840 0.931 . S
H857 C845 0.930 . S
H858 C846 0.956 . S
H859 C846 0.961 . S
H860 C846 0.961 . S
H861 C847 0.958 . S
H862 C847 0.961 . S
H863 C847 0.960 . S
C864 C865 1.391 1_455 S
C864 C866 1.394 1_554 S
C864 H880 0.931 . S
C865 C864 1.391 1_655 S
C865 C869 1.376 . S
C866 C864 1.394 1_556 S
C866 C867 1.369 . S
C866 C870 1.531 . S
C867 C866 1.369 . S
C867 C868 1.410 1_456 S
C867 C875 1.503 . S
C868 C867 1.410 1_654 S
C868 C869 1.392 . S
C868 C871 1.511 . S
C869 C865 1.376 . S
C869 C868 1.392 . S
C869 H881 0.929 . S
C870 C866 1.531 . S
C870 H882 0.960 . S
C870 H883 0.962 . S
C870 H884 0.960 . S
C871 C868 1.511 . S
C871 H885 0.961 . S
C871 H886 0.961 . S
C871 H887 0.961 1_554 S
C872 C873 1.370 . S
C872 C874 1.363 . S
C872 H888 0.930 . S
C873 C872 1.370 . S
C873 C877 1.408 . S
C874 C872 1.363 . S
C874 C875 1.370 . S
C874 C878 1.524 1_556 S
C875 C867 1.503 . S
C875 C874 1.370 . S
C875 C876 1.403 . S
C876 C875 1.403 . S
C876 C877 1.404 . S
C876 C879 1.539 1_455 S
C877 C873 1.408 . S
C877 C876 1.404 . S
C877 H889 0.930 . S
C878 C874 1.524 1_554 S
C878 H890 0.956 . S
C878 H891 0.961 . S
C878 H892 0.961 . S
C879 C876 1.539 1_655 S
C879 H893 0.958 1_655 S
C879 H894 0.961 . S
C879 H895 0.960 . S
H880 C864 0.931 . S
H881 C869 0.929 . S
H882 C870 0.960 . S
H883 C870 0.962 . S
H884 C870 0.960 . S
H885 C871 0.961 . S
H886 C871 0.961 . S
H887 C871 0.961 1_556 S
H888 C872 0.930 . S
H889 C877 0.930 . S
H890 C878 0.956 . S
H891 C878 0.961 . S
H892 C878 0.961 . S
H893 C879 0.958 1_455 S
H894 C879 0.961 . S
H895 C879 0.960 . S
C896 C897 1.391 . S
C896 C898 1.394 . S
C896 H912 0.931 . S
C897 C896 1.391 . S
C897 C901 1.376 1_565 S
C898 C896 1.394 . S
C898 C899 1.369 1_565 S
C898 C902 1.531 . S
C899 C898 1.369 1_545 S
C899 C900 1.410 . S
C899 C907 1.503 1_554 S
C900 C899 1.410 . S
C900 C901 1.392 . S
C900 C903 1.511 1_554 S
C901 C897 1.376 1_545 S
C901 C900 1.392 . S
C901 H913 0.929 . S
C902 C898 1.531 . S
C902 H914 0.960 . S
C902 H915 0.962 1_554 S
C902 H916 0.960 . S
C903 C900 1.511 1_556 S
C903 H917 0.961 . S
C903 H918 0.961 . S
C903 H919 0.961 1_556 S
C904 C905 1.370 . S
C904 C906 1.363 . S
C904 H920 0.931 . S
C905 C904 1.370 . S
C905 C909 1.408 . S
C906 C904 1.363 . S
C906 C907 1.370 . S
C906 C910 1.524 . S
C907 C899 1.503 1_556 S
C907 C906 1.370 . S
C907 C908 1.403 1_556 S
C908 C907 1.403 1_554 S
C908 C909 1.404 1_554 S
C908 C911 1.539 . S
C909 C905 1.408 . S
C909 C908 1.404 1_556 S
C909 H921 0.930 1_556 S
C910 C906 1.524 . S
C910 H922 0.956 1_545 S
C910 H923 0.961 . S
C910 H924 0.961 . S
C911 C908 1.539 . S
C911 H925 0.958 . S
C911 H926 0.961 . S
C911 H927 0.960 . S
H912 C896 0.931 . S
H913 C901 0.929 . S
H914 C902 0.960 . S
H915 C902 0.962 1_556 S
H916 C902 0.960 . S
H917 C903 0.961 . S
H918 C903 0.961 . S
H919 C903 0.961 1_554 S
H920 C904 0.931 . S
H921 C909 0.930 1_554 S
H922 C910 0.956 1_565 S
H923 C910 0.961 . S
H924 C910 0.961 . S
H925 C911 0.958 . S
H926 C911 0.961 . S
H927 C911 0.960 . S
C928 C929 1.391 . S
C928 C930 1.394 . S
C928 H944 0.931 . S
C929 C928 1.391 . S
C929 C933 1.376 1_554 S
C930 C928 1.394 . S
C930 C931 1.369 . S
C930 C934 1.531 . S
C931 C930 1.369 . S
C931 C932 1.410 1_554 S
C931 C939 1.503 1_554 S
C932 C931 1.410 1_556 S
C932 C933 1.392 . S
C932 C935 1.511 . S
C933 C929 1.376 1_556 S
C933 C932 1.392 . S
C933 H945 0.929 . S
C934 C930 1.531 . S
C934 H946 0.960 . S
C934 H947 0.962 . S
C934 H948 0.960 . S
C935 C932 1.511 . S
C935 H949 0.961 . S
C935 H950 0.961 . S
C935 H951 0.961 . S
C936 C937 1.370 . S
C936 C938 1.363 . S
C936 H952 0.931 . S
C937 C936 1.370 . S
C937 C941 1.408 . S
C938 C936 1.363 . S
C938 C939 1.370 . S
C938 C942 1.524 . S
C939 C931 1.503 1_556 S
C939 C938 1.370 . S
C939 C940 1.403 . S
C940 C939 1.403 . S
C940 C941 1.404 . S
C940 C943 1.539 1_556 S
C941 C937 1.408 . S
C941 C940 1.404 . S
C941 H953 0.930 . S
C942 C938 1.524 . S
C942 H954 0.956 . S
C942 H955 0.961 . S
C942 H956 0.961 . S
C943 C940 1.539 1_554 S
C943 H957 0.958 . S
C943 H958 0.961 . S
C943 H959 0.960 . S
H944 C928 0.931 . S
H945 C933 0.929 . S
H946 C934 0.960 . S
H947 C934 0.962 . S
H948 C934 0.960 . S
H949 C935 0.961 . S
H950 C935 0.961 . S
H951 C935 0.961 . S
H952 C936 0.931 . S
H953 C941 0.930 . S
H954 C942 0.956 . S
H955 C942 0.961 . S
H956 C942 0.961 . S
H957 C943 0.958 . S
H958 C943 0.961 . S
H959 C943 0.960 . S
C960 C961 1.391 . S
C960 C962 1.394 . S
C960 H976 0.931 . S
C961 C960 1.391 . S
C961 C965 1.376 1_554 S
C962 C960 1.394 . S
C962 C963 1.369 1_554 S
C962 C966 1.531 . S
C963 C962 1.369 1_556 S
C963 C964 1.410 . S
C963 C971 1.503 . S
C964 C963 1.410 . S
C964 C965 1.392 . S
C964 C967 1.511 . S
C965 C961 1.376 1_556 S
C965 C964 1.392 . S
C965 H977 0.929 . S
C966 C962 1.531 . S
C966 H978 0.960 . S
C966 H979 0.962 . S
C966 H980 0.960 . S
C967 C964 1.511 . S
C967 H981 0.961 . S
C967 H982 0.961 . S
C967 H983 0.961 . S
C968 C969 1.370 . S
C968 C970 1.363 . S
C968 H984 0.931 . S
C969 C968 1.370 . S
C969 C973 1.408 . S
C970 C968 1.363 . S
C970 C971 1.370 . S
C970 C974 1.524 . S
C971 C963 1.503 . S
C971 C970 1.370 . S
C971 C972 1.403 . S
C972 C971 1.403 . S
C972 C973 1.404 . S
C972 C975 1.539 . S
C973 C969 1.408 . S
C973 C972 1.404 . S
C973 H985 0.930 . S
C974 C970 1.524 . S
C974 H986 0.956 . S
C974 H987 0.961 . S
C974 H988 0.961 . S
C975 C972 1.539 . S
C975 H989 0.958 1_556 S
C975 H990 0.961 . S
C975 H991 0.960 . S
H976 C960 0.931 . S
H977 C965 0.929 . S
H978 C966 0.960 . S
H979 C966 0.962 . S
H980 C966 0.960 . S
H981 C967 0.961 . S
H982 C967 0.961 . S
H983 C967 0.961 . S
H984 C968 0.931 . S
H985 C973 0.930 . S
H986 C974 0.956 . S
H987 C974 0.961 . S
H988 C974 0.961 . S
H989 C975 0.958 1_554 S
H990 C975 0.961 . S
H991 C975 0.960 . S
C992 C993 1.391 1_655 S
C992 C994 1.394 . S
C992 H1008 0.931 . S
C993 C992 1.391 1_455 S
C993 C997 1.376 . S
C994 C992 1.394 . S
C994 C995 1.369 1_655 S
C994 C998 1.531 . S
C995 C994 1.369 1_455 S
C995 C996 1.410 . S
C995 C1003 1.503 . S
C996 C995 1.410 . S
C996 C997 1.392 . S
C996 C999 1.511 . S
C997 C993 1.376 . S
C997 C996 1.392 . S
C997 H1009 0.929 . S
C998 C994 1.531 . S
C998 H1010 0.960 . S
C998 H1011 0.962 . S
C998 H1012 0.960 . S
C999 C996 1.511 . S
C999 H1013 0.961 . S
C999 H1014 0.961 . S
C999 H1015 0.961 . S
C1000 C1001 1.370 . S
C1000 C1002 1.363 . S
C1000 H1016 0.931 . S
C1001 C1000 1.370 . S
C1001 C1005 1.408 1_455 S
C1002 C1000 1.363 . S
C1002 C1003 1.370 . S
C1002 C1006 1.524 . S
C1003 C995 1.503 . S
C1003 C1002 1.370 . S
C1003 C1004 1.403 1_455 S
C1004 C1003 1.403 1_655 S
C1004 C1005 1.404 . S
C1004 C1007 1.539 . S
C1005 C1001 1.408 1_655 S
C1005 C1004 1.404 . S
C1005 H1017 0.930 . S
C1006 C1002 1.524 . S
C1006 H1018 0.956 . S
C1006 H1019 0.961 . S
C1006 H1020 0.961 . S
C1007 C1004 1.539 . S
C1007 H1021 0.958 . S
C1007 H1022 0.961 . S
C1007 H1023 0.960 . S
H1008 C992 0.931 . S
H1009 C997 0.929 . S
H1010 C998 0.960 . S
H1011 C998 0.962 . S
H1012 C998 0.960 . S
H1013 C999 0.961 . S
H1014 C999 0.961 . S
H1015 C999 0.961 . S
H1016 C1000 0.931 . S
H1017 C1005 0.930 . S
H1018 C1006 0.956 . S
H1019 C1006 0.961 . S
H1020 C1006 0.961 . S
H1021 C1007 0.958 . S
H1022 C1007 0.961 . S
H1023 C1007 0.960 . S
C1024 C1025 1.391 . S
C1024 C1026 1.394 . S
C1024 H1040 0.931 . S
C1025 C1024 1.391 . S
C1025 C1029 1.378 . S
C1026 C1024 1.394 . S
C1026 C1027 1.369 . S
C1026 C1030 1.531 . S
C1027 C1026 1.369 . S
C1027 C1028 1.410 1_545 S
C1027 C1035 1.503 . S
C1028 C1027 1.410 1_565 S
C1028 C1029 1.392 1_565 S
C1028 C1031 1.511 . S
C1029 C1025 1.378 . S
C1029 C1028 1.392 1_545 S
C1029 H1041 0.927 1_545 S
C1030 C1026 1.531 . S
C1030 H1042 0.960 . S
C1030 H1043 0.962 . S
C1030 H1044 0.960 . S
C1031 C1028 1.511 . S
C1031 H1045 0.961 . S
C1031 H1046 0.961 . S
C1031 H1047 0.961 . S
C1032 C1033 1.370 . S
C1032 C1034 1.363 . S
C1032 H1048 0.931 . S
C1033 C1032 1.370 . S
C1033 C1037 1.408 . S
C1034 C1032 1.363 . S
C1034 C1035 1.370 . S
C1034 C1038 1.524 . S
C1035 C1027 1.503 . S
C1035 C1034 1.370 . S
C1035 C1036 1.403 . S
C1036 C1035 1.403 . S
C1036 C1037 1.404 . S
C1036 C1039 1.539 1_545 S
C1037 C1033 1.408 . S
C1037 C1036 1.404 . S
C1037 H1049 0.930 1_545 S
C1038 C1034 1.524 . S
C1038 H1050 0.956 . S
C1038 H1051 0.961 . S
C1038 H1052 0.961 . S
C1039 C1036 1.539 1_565 S
C1039 H1053 0.958 . S
C1039 H1054 0.961 . S
C1039 H1055 0.960 . S
H1040 C1024 0.931 . S
H1041 C1029 0.927 1_565 S
H1042 C1030 0.960 . S
H1043 C1030 0.962 . S
H1044 C1030 0.960 . S
H1045 C1031 0.961 . S
H1046 C1031 0.961 . S
H1047 C1031 0.961 . S
H1048 C1032 0.931 . S
H1049 C1037 0.930 1_565 S
H1050 C1038 0.956 . S
H1051 C1038 0.961 . S
H1052 C1038 0.961 . S
H1053 C1039 0.958 . S
H1054 C1039 0.961 . S
H1055 C1039 0.960 . S
C1056 C1057 1.391 . S
C1056 C1058 1.394 . S
C1056 H1072 0.931 . S
C1057 C1056 1.391 . S
C1057 C1061 1.376 . S
C1058 C1056 1.394 . S
C1058 C1059 1.369 . S
C1058 C1062 1.531 . S
C1059 C1058 1.369 . S
C1059 C1060 1.410 . S
C1059 C1067 1.503 . S
C1060 C1059 1.410 . S
C1060 C1061 1.392 . S
C1060 C1063 1.511 . S
C1061 C1057 1.376 . S
C1061 C1060 1.392 . S
C1061 H1073 0.929 . S
C1062 C1058 1.531 . S
C1062 H1074 0.960 . S
C1062 H1075 0.962 . S
C1062 H1076 0.960 . S
C1063 C1060 1.511 . S
C1063 H1077 0.961 . S
C1063 H1078 0.961 . S
C1063 H1079 0.961 . S
C1064 C1065 1.370 . S
C1064 C1066 1.363 . S
C1064 H1080 0.931 . S
C1065 C1064 1.370 . S
C1065 C1069 1.408 . S
C1066 C1064 1.363 . S
C1066 C1067 1.370 . S
C1066 C1070 1.524 . S
C1067 C1059 1.503 . S
C1067 C1066 1.370 . S
C1067 C1068 1.403 . S
C1068 C1067 1.403 . S
C1068 C1069 1.404 . S
C1068 C1071 1.539 . S
C1069 C1065 1.408 . S
C1069 C1068 1.404 . S
C1069 H1081 0.930 . S
C1070 C1066 1.524 . S
C1070 H1082 0.956 . S
C1070 H1083 0.961 . S
C1070 H1084 0.961 . S
C1071 C1068 1.539 . S
C1071 H1085 0.958 . S
C1071 H1086 0.961 . S
C1071 H1087 0.960 . S
H1072 C1056 0.931 . S
H1073 C1061 0.929 . S
H1074 C1062 0.960 . S
H1075 C1062 0.962 . S
H1076 C1062 0.960 . S
H1077 C1063 0.961 . S
H1078 C1063 0.961 . S
H1079 C1063 0.961 . S
H1080 C1064 0.931 . S
H1081 C1069 0.930 . S
H1082 C1070 0.956 . S
H1083 C1070 0.961 . S
H1084 C1070 0.961 . S
H1085 C1071 0.958 . S
H1086 C1071 0.961 . S
H1087 C1071 0.960 . S
C1088 C1089 1.391 . S
C1088 C1090 1.394 . S
C1088 H1104 0.931 . S
C1089 C1088 1.391 . S
C1089 C1093 1.376 . S
C1090 C1088 1.394 . S
C1090 C1091 1.369 . S
C1090 C1094 1.531 . S
C1091 C1090 1.369 . S
C1091 C1092 1.410 . S
C1091 C1099 1.503 . S
C1092 C1091 1.410 . S
C1092 C1093 1.392 . S
C1092 C1095 1.511 . S
C1093 C1089 1.376 . S
C1093 C1092 1.392 . S
C1093 H1105 0.929 . S
C1094 C1090 1.531 . S
C1094 H1106 0.960 . S
C1094 H1107 0.962 . S
C1094 H1108 0.960 . S
C1095 C1092 1.511 . S
C1095 H1109 0.961 . S
C1095 H1110 0.961 . S
C1095 H1111 0.961 . S
C1096 C1097 1.370 . S
C1096 C1098 1.363 . S
C1096 H1112 0.931 . S
C1097 C1096 1.370 . S
C1097 C1101 1.408 . S
C1098 C1096 1.363 . S
C1098 C1099 1.370 . S
C1098 C1102 1.524 . S
C1099 C1091 1.503 . S
C1099 C1098 1.370 . S
C1099 C1100 1.403 . S
C1100 C1099 1.403 . S
C1100 C1101 1.404 . S
C1100 C1103 1.539 . S
C1101 C1097 1.408 . S
C1101 C1100 1.404 . S
C1101 H1113 0.930 . S
C1102 C1098 1.524 . S
C1102 H1114 0.956 . S
C1102 H1115 0.961 . S
C1102 H1116 0.961 . S
C1103 C1100 1.539 . S
C1103 H1117 0.958 . S
C1103 H1118 0.961 . S
C1103 H1119 0.960 . S
H1104 C1088 0.931 . S
H1105 C1093 0.929 . S
H1106 C1094 0.960 . S
H1107 C1094 0.962 . S
H1108 C1094 0.960 . S
H1109 C1095 0.961 . S
H1110 C1095 0.961 . S
H1111 C1095 0.961 . S
H1112 C1096 0.931 . S
H1113 C1101 0.930 . S
H1114 C1102 0.956 . S
H1115 C1102 0.961 . S
H1116 C1102 0.961 . S
H1117 C1103 0.958 . S
H1118 C1103 0.961 . S
H1119 C1103 0.960 . S
C1120 C1121 1.391 1_455 S
C1120 C1122 1.394 . S
C1120 H1136 0.931 . S
C1121 C1120 1.391 1_655 S
C1121 C1125 1.376 . S
C1122 C1120 1.394 . S
C1122 C1123 1.369 1_455 S
C1122 C1126 1.531 . S
C1123 C1122 1.369 1_655 S
C1123 C1124 1.410 . S
C1123 C1131 1.503 . S
C1124 C1123 1.410 . S
C1124 C1125 1.392 . S
C1124 C1127 1.511 . S
C1125 C1121 1.376 . S
C1125 C1124 1.392 . S
C1125 H1137 0.929 . S
C1126 C1122 1.531 . S
C1126 H1138 0.960 . S
C1126 H1139 0.962 . S
C1126 H1140 0.960 . S
C1127 C1124 1.511 . S
C1127 H1141 0.961 . S
C1127 H1142 0.961 . S
C1127 H1143 0.961 . S
C1128 C1129 1.370 1_455 S
C1128 C1130 1.363 . S
C1128 H1144 0.931 . S
C1129 C1128 1.370 1_655 S
C1129 C1133 1.408 . S
C1130 C1128 1.363 . S
C1130 C1131 1.370 1_455 S
C1130 C1134 1.524 . S
C1131 C1123 1.503 . S
C1131 C1130 1.370 1_655 S
C1131 C1132 1.403 . S
C1132 C1131 1.403 . S
C1132 C1133 1.404 . S
C1132 C1135 1.539 . S
C1133 C1129 1.408 . S
C1133 C1132 1.404 . S
C1133 H1145 0.930 . S
C1134 C1130 1.524 . S
C1134 H1146 0.956 . S
C1134 H1147 0.961 . S
C1134 H1148 0.961 . S
C1135 C1132 1.539 . S
C1135 H1149 0.958 . S
C1135 H1150 0.961 . S
C1135 H1151 0.960 . S
H1136 C1120 0.931 . S
H1137 C1125 0.929 . S
H1138 C1126 0.960 . S
H1139 C1126 0.962 . S
H1140 C1126 0.960 . S
H1141 C1127 0.961 . S
H1142 C1127 0.961 . S
H1143 C1127 0.961 . S
H1144 C1128 0.931 . S
H1145 C1133 0.930 . S
H1146 C1134 0.956 . S
H1147 C1134 0.961 . S
H1148 C1134 0.961 . S
H1149 C1135 0.958 . S
H1150 C1135 0.961 . S
H1151 C1135 0.960 . S
C1152 C1153 1.391 . S
C1152 C1154 1.394 . S
C1152 H1168 0.931 . S
C1153 C1152 1.391 . S
C1153 C1157 1.376 1_565 S
C1154 C1152 1.394 . S
C1154 C1155 1.369 . S
C1154 C1158 1.531 . S
C1155 C1154 1.369 . S
C1155 C1156 1.410 1_565 S
C1155 C1163 1.503 . S
C1156 C1155 1.410 1_545 S
C1156 C1157 1.392 . S
C1156 C1159 1.511 . S
C1157 C1153 1.376 1_545 S
C1157 C1156 1.392 . S
C1157 H1169 0.929 . S
C1158 C1154 1.531 . S
C1158 H1170 0.960 . S
C1158 H1171 0.962 . S
C1158 H1172 0.960 . S
C1159 C1156 1.511 . S
C1159 H1173 0.961 . S
C1159 H1174 0.961 . S
C1159 H1175 0.961 . S
C1160 C1161 1.370 . S
C1160 C1162 1.363 . S
C1160 H1176 0.931 . S
C1161 C1160 1.370 . S
C1161 C1165 1.408 . S
C1162 C1160 1.363 . S
C1162 C1163 1.370 . S
C1162 C1166 1.524 1_565 S
C1163 C1155 1.503 . S
C1163 C1162 1.370 . S
C1163 C1164 1.403 . S
C1164 C1163 1.403 . S
C1164 C1165 1.404 . S
C1164 C1167 1.539 . S
C1165 C1161 1.408 . S
C1165 C1164 1.404 . S
C1165 H1177 0.930 . S
C1166 C1162 1.524 1_545 S
C1166 H1178 0.956 1_545 S
C1166 H1179 0.961 . S
C1166 H1180 0.961 . S
C1167 C1164 1.539 . S
C1167 H1181 0.958 . S
C1167 H1182 0.961 . S
C1167 H1183 0.960 . S
H1168 C1152 0.931 . S
H1169 C1157 0.929 . S
H1170 C1158 0.960 . S
H1171 C1158 0.962 . S
H1172 C1158 0.960 . S
H1173 C1159 0.961 . S
H1174 C1159 0.961 . S
H1175 C1159 0.961 . S
H1176 C1160 0.931 . S
H1177 C1165 0.930 . S
H1178 C1166 0.956 1_565 S
H1179 C1166 0.961 . S
H1180 C1166 0.961 . S
H1181 C1167 0.958 . S
H1182 C1167 0.961 . S
H1183 C1167 0.960 . S
C1184 C1185 1.391 . S
C1184 C1186 1.394 . S
C1184 H1200 0.931 . S
C1185 C1184 1.391 . S
C1185 C1189 1.376 . S
C1186 C1184 1.394 . S
C1186 C1187 1.369 . S
C1186 C1190 1.531 . S
C1187 C1186 1.369 . S
C1187 C1188 1.410 . S
C1187 C1195 1.503 . S
C1188 C1187 1.410 . S
C1188 C1189 1.392 . S
C1188 C1191 1.511 . S
C1189 C1185 1.376 . S
C1189 C1188 1.392 . S
C1189 H1201 0.929 . S
C1190 C1186 1.531 . S
C1190 H1202 0.960 . S
C1190 H1203 0.962 . S
C1190 H1204 0.960 . S
C1191 C1188 1.511 . S
C1191 H1205 0.961 . S
C1191 H1206 0.961 . S
C1191 H1207 0.961 . S
C1192 C1193 1.370 . S
C1192 C1194 1.363 . S
C1192 H1208 0.931 . S
C1193 C1192 1.370 . S
C1193 C1197 1.408 . S
C1194 C1192 1.363 . S
C1194 C1195 1.370 . S
C1194 C1198 1.524 . S
C1195 C1187 1.503 . S
C1195 C1194 1.370 . S
C1195 C1196 1.403 . S
C1196 C1195 1.403 . S
C1196 C1197 1.404 . S
C1196 C1199 1.539 . S
C1197 C1193 1.408 . S
C1197 C1196 1.404 . S
C1197 H1209 0.930 . S
C1198 C1194 1.524 . S
C1198 H1210 0.956 . S
C1198 H1211 0.961 . S
C1198 H1212 0.961 . S
C1199 C1196 1.539 . S
C1199 H1213 0.958 . S
C1199 H1214 0.961 . S
C1199 H1215 0.960 . S
H1200 C1184 0.931 . S
H1201 C1189 0.929 . S
H1202 C1190 0.960 . S
H1203 C1190 0.962 . S
H1204 C1190 0.960 . S
H1205 C1191 0.961 . S
H1206 C1191 0.961 . S
H1207 C1191 0.961 . S
H1208 C1192 0.931 . S
H1209 C1197 0.930 . S
H1210 C1198 0.956 . S
H1211 C1198 0.961 . S
H1212 C1198 0.961 . S
H1213 C1199 0.958 . S
H1214 C1199 0.961 . S
H1215 C1199 0.960 . S
C1216 C1217 1.391 . S
C1216 C1218 1.394 . S
C1216 H1232 0.931 . S
C1217 C1216 1.391 . S
C1217 C1221 1.376 . S
C1218 C1216 1.394 . S
C1218 C1219 1.369 . S
C1218 C1222 1.531 . S
C1219 C1218 1.369 . S
C1219 C1220 1.410 . S
C1219 C1227 1.503 . S
C1220 C1219 1.410 . S
C1220 C1221 1.392 . S
C1220 C1223 1.511 . S
C1221 C1217 1.376 . S
C1221 C1220 1.392 . S
C1221 H1233 0.929 . S
C1222 C1218 1.531 . S
C1222 H1234 0.960 . S
C1222 H1235 0.962 . S
C1222 H1236 0.960 . S
C1223 C1220 1.511 . S
C1223 H1237 0.961 . S
C1223 H1238 0.961 . S
C1223 H1239 0.961 . S
C1224 C1225 1.370 . S
C1224 C1226 1.363 . S
C1224 H1240 0.931 . S
C1225 C1224 1.370 . S
C1225 C1229 1.408 . S
C1226 C1224 1.363 . S
C1226 C1227 1.370 . S
C1226 C1230 1.524 . S
C1227 C1219 1.503 . S
C1227 C1226 1.370 . S
C1227 C1228 1.403 . S
C1228 C1227 1.403 . S
C1228 C1229 1.404 . S
C1228 C1231 1.539 . S
C1229 C1225 1.408 . S
C1229 C1228 1.404 . S
C1229 H1241 0.930 . S
C1230 C1226 1.524 . S
C1230 H1242 0.956 . S
C1230 H1243 0.961 . S
C1230 H1244 0.961 . S
C1231 C1228 1.539 . S
C1231 H1245 0.958 . S
C1231 H1246 0.961 . S
C1231 H1247 0.960 . S
H1232 C1216 0.931 . S
H1233 C1221 0.929 . S
H1234 C1222 0.960 . S
H1235 C1222 0.962 . S
H1236 C1222 0.960 . S
H1237 C1223 0.961 . S
H1238 C1223 0.961 . S
H1239 C1223 0.961 . S
H1240 C1224 0.931 . S
H1241 C1229 0.930 . S
H1242 C1230 0.956 . S
H1243 C1230 0.961 . S
H1244 C1230 0.961 . S
H1245 C1231 0.958 . S
H1246 C1231 0.961 . S
H1247 C1231 0.960 . S
C481 C255 2.261 . S
C489 C330 2.427 . S
C521 C370 2.420 . S
C513 C295 2.261 . S
C553 C410 2.432 . S
C545 C175 2.255 . S
C585 C450 2.426 1_455 S
C577 C215 2.200 . S
C617 C339 2.429 1_565 S
C609 C95 2.206 . S
C641 C135 2.208 . S
C649 C379 2.428 . S
C673 C15 2.207 . S
C681 C419 2.436 . S
C705 C55 2.201 . S
C713 C459 2.422 1_655 S
C745 C336 0.437 . S
C737 C221 0.369 . S
C777 C376 0.489 . S
C769 C261 0.540 . S
C809 C416 0.486 . S
C801 C301 0.498 . S
C833 C181 0.493 . S
C841 C456 0.449 . S
C865 C61 0.624 1_655 S
C873 C327 0.426 . S
C905 C367 0.516 . S
C897 C101 0.468 . S
C937 C407 0.501 . S
C929 C141 0.411 . S
C961 C21 0.468 . S
C969 C447 0.537 . S
C993 C202 3.145 . S
C1001 C331 3.481 . S
C1025 C242 3.112 . S
C1033 C371 3.485 . S
C1065 C411 3.485 . S
C1057 C282 3.100 . S
C1097 C451 3.492 . S
C1089 C162 3.105 . S
C1121 C42 3.122 1_655 S
C1129 C322 3.490 . S
C1161 C362 3.484 . S
C1153 C82 3.155 . S
C1193 C402 3.489 . S
C1185 C122 3.116 . S
C1217 C2 3.147 . S
C1225 C442 3.496 . S
