# Generated by pormake.
# Topology rtl, (3,6)-cn, num edge types: 1
# Building blocks:
#     Node 0, Type 0, BuildingBlock: WUSLED_clean_sbu_0, # of connection points: 3
#     Node 1, Type 0, BuildingBlock: WUSLED_clean_sbu_0, # of connection points: 3
#     Node 2, Type 0, BuildingBlock: WUSLED_clean_sbu_0, # of connection points: 3
#     Node 3, Type 0, BuildingBlock: WUSLED_clean_sbu_0, # of connection points: 3
#     Node 4, Type 1, BuildingBlock: KUMBUR_clean_sbu_1, # of connection points: 6
#     Node 5, Type 1, BuildingBlock: KUMBUR_clean_sbu_1, # of connection points: 6
#     Edge 6, Type (0, 1), BuildingBlock: AJUNOK_clean_linker_0, # of connection points: 2
#     Edge 7, Type (0, 1), BuildingBlock: AJUNOK_clean_linker_0, # of connection points: 2
#     Edge 8, Type (0, 1), BuildingBlock: AJUNOK_clean_linker_0, # of connection points: 2
#     Edge 9, Type (0, 1), BuildingBlock: AJUNOK_clean_linker_0, # of connection points: 2
#     Edge 10, Type (0, 1), BuildingBlock: AJUNOK_clean_linker_0, # of connection points: 2
#     Edge 11, Type (0, 1), BuildingBlock: AJUNOK_clean_linker_0, # of connection points: 2
#     Edge 12, Type (0, 1), BuildingBlock: AJUNOK_clean_linker_0, # of connection points: 2
#     Edge 13, Type (0, 1), BuildingBlock: AJUNOK_clean_linker_0, # of connection points: 2
#     Edge 14, Type (0, 1), BuildingBlock: AJUNOK_clean_linker_0, # of connection points: 2
#     Edge 15, Type (0, 1), BuildingBlock: AJUNOK_clean_linker_0, # of connection points: 2
#     Edge 16, Type (0, 1), BuildingBlock: AJUNOK_clean_linker_0, # of connection points: 2
#     Edge 17, Type (0, 1), BuildingBlock: AJUNOK_clean_linker_0, # of connection points: 2
# Relax obj value: 0.017
# Max RMSD: 0.115
# Mean RMSD: 0.065
data_MOF--net-rtl--node1-WUSLED_clean_sbu_0--node2-KUMBUR_clean_sbu_1--edge1-AJUNOK_clean_linker_0
_symmetry_space_group_name_H-M    P1
_symmetry_Int_Tables_number       1
_symmetry_cell_setting            triclinic
loop_
_symmetry_equiv_pos_as_xyz
'x, y, z'
_cell_length_a     33.967485
_cell_length_b     34.403097
_cell_length_c     29.782295
_cell_angle_alpha  79.22242
_cell_angle_beta   99.43007
_cell_angle_gamma 90.213205
loop_
_atom_site_label
_atom_site_type_symbol
_atom_site_fract_x
_atom_site_fract_y
_atom_site_fract_z
_atom_type_partial_charge
C0 C 0.2399 0.90819 0.14843 0.0
C1 C 0.19996 0.92208 0.13847 0.0
C2 C 0.20358 0.93338 0.21784 0.0
C3 C 0.18203 0.93468 0.17282 0.0
C4 C 0.24432 0.92232 0.22635 0.0
C5 C 0.26215 0.90973 0.19212 0.0
U6 U 0.25796 0.87944 0.03075 0.0
O7 O 0.31504 0.8592 1.01485 0.0
O8 O 0.26494 0.81867 0.01904 0.0
C9 C 0.30168 0.82383 1.01107 0.0
C10 C 0.25776 0.88683 0.11735 0.0
C11 C 0.32991 0.78924 0.02389 0.0
C12 C 0.36556 0.73316 0.07766 0.0
C13 C 0.34103 0.7677 0.06936 0.0
C14 C 0.36835 0.74208 0.99571 0.0
C15 C 0.37923 0.72 0.04068 0.0
C16 C 0.34405 0.77613 0.9875 0.0
C17 C 0.19701 0.9374 0.91192 0.0
C18 C 0.18924 0.92649 0.8321 0.0
C19 C 0.15212 0.97978 0.85012 0.0
C20 C 0.16978 0.96946 0.89664 0.0
C21 C 0.16147 0.95864 0.81698 0.0
C22 C 0.20696 0.91596 0.87924 0.0
C23 C 0.21186 0.92675 0.96254 0.0
O24 O 0.23451 0.86294 0.09606 0.0
O25 O 0.28234 0.90586 0.09165 0.0
O26 O 0.24894 0.93466 0.97808 0.0
O27 O 0.19994 0.89337 0.98493 0.0
H28 H 0.1821 0.92137 0.10499 0.0
H29 H 0.15065 0.94326 0.1649 0.0
H30 H 0.2622 0.92211 0.26003 0.0
H31 H 0.29303 0.89934 0.20061 0.0
H32 H 0.37393 0.71683 0.11276 0.0
H33 H 0.33048 0.77721 0.09807 0.0
H34 H 0.37833 0.73263 0.9666 0.0
H35 H 0.33565 0.79203 0.95218 0.0
H36 H 0.19707 0.90946 0.80755 0.0
H37 H 0.13006 1.00381 0.8404 0.0
H38 H 0.1613 0.98619 0.92116 0.0
H39 H 0.22782 0.89094 0.89019 0.0
C40 C 0.63375 0.69608 0.75394 0.0
C41 C 0.59667 0.67842 0.74395 0.0
C42 C 0.5992 0.65096 0.82653 0.0
C43 C 0.57951 0.65585 0.78017 0.0
C44 C 0.63662 0.66802 0.83551 0.0
C45 C 0.65336 0.69045 0.79986 0.0
U46 U 0.66904 0.74232 0.63415 0.0
O47 O 0.68778 0.80411 0.61528 0.0
O48 O 0.73283 0.75455 0.63198 0.0
C49 C 0.7255 0.79292 0.62058 0.0
C50 C 0.65412 0.72081 0.71904 0.0
C51 C 0.75739 0.82153 0.61289 0.0
C52 C 0.82088 0.84959 0.63995 0.0
C53 C 0.78924 0.82444 0.64855 0.0
C54 C 0.78851 0.87025 0.56038 0.0
C55 C 0.82149 0.8722 0.59539 0.0
C56 C 0.75696 0.84509 0.56903 0.0
C57 C 0.6201 0.70447 0.51882 0.0
C58 C 0.63907 0.69676 0.44542 0.0
C59 C 0.57438 0.67561 0.46307 0.0
C60 C 0.58306 0.68842 0.50527 0.0
C61 C 0.60262 0.67846 0.43312 0.0
C62 C 0.64783 0.7096 0.48811 0.0
C63 C 0.62944 0.71043 0.56726 0.0
O64 O 0.68151 0.70344 0.70268 0.0
O65 O 0.63421 0.74973 0.68878 0.0
O66 O 0.61772 0.74362 0.5775 0.0
O67 O 0.66321 0.69537 0.59262 0.0
H68 H 0.58106 0.6822 0.7086 0.0
H69 H 0.55073 0.64285 0.77214 0.0
H70 H 0.65326 0.66395 0.87041 0.0
H71 H 0.68206 0.70355 0.80832 0.0
H72 H 0.84545 0.85041 0.66794 0.0
H73 H 0.78993 0.80684 0.6829 0.0
H74 H 0.78689 0.88822 0.52615 0.0
H75 H 0.73252 0.84347 0.54112 0.0
H76 H 0.66177 0.69891 0.42351 0.0
H77 H 0.54605 0.66186 0.45473 0.0
H78 H 0.56132 0.68399 0.52852 0.0
H79 H 0.67672 0.72179 0.49792 0.0
C80 C 0.81867 0.11726 0.21238 0.0
C81 C 0.84319 0.08426 0.21259 0.0
C82 C 0.86887 0.08069 0.29522 0.0
C83 C 0.86832 0.06617 0.25384 0.0
C84 C 0.84432 0.11367 0.2943 0.0
C85 C 0.81968 0.13161 0.25355 0.0
U86 U 0.77011 0.15151 0.0801 0.0
O87 O 0.7075 0.17276 0.05494 0.0
O88 O 0.75656 0.21338 0.04495 0.0
C89 C 0.71773 0.20928 0.04022 0.0
C90 C 0.79203 0.13884 0.17079 0.0
C91 C 0.69399 0.24273 0.04881 0.0
C92 C 0.64985 0.2726 0.09105 0.0
C93 C 0.67325 0.24013 0.08645 0.0
C94 C 0.66853 0.31069 0.02139 0.0
C95 C 0.64715 0.30863 0.05849 0.0
C96 C 0.69115 0.27831 1.01649 0.0
C97 C 0.81088 0.10314 0.98495 0.0
C98 C 0.80467 0.12231 0.90091 0.0
C99 C 0.85112 0.06962 0.94255 0.0
C100 C 0.83915 0.07391 0.98404 0.0
C101 C 0.83495 0.09438 0.90044 0.0
C102 C 0.79297 0.12692 0.94295 0.0
C103 C 0.80475 0.10978 0.03101 0.0
O104 O 0.80838 0.16515 0.14203 0.0
O105 O 0.76321 0.11962 0.14996 0.0
O106 O 0.77067 0.1001 0.04507 0.0
O107 O 0.81953 0.14211 0.04373 0.0
H108 H 0.843 0.07267 0.18116 0.0
H109 H 0.88691 0.04073 0.25357 0.0
H110 H 0.84444 0.12593 0.32529 0.0
H111 H 0.80131 0.15714 0.25417 0.0
H112 H 0.6332 0.26889 0.11949 0.0
H113 H 0.67462 0.21295 0.11187 0.0
H114 H 0.66815 0.33764 0.99586 0.0
H115 H 0.70657 0.28114 0.98699 0.0
H116 H 0.79065 0.14118 0.86907 0.0
H117 H 0.87469 0.04809 0.94402 0.0
H118 H 0.85347 0.05533 1.01601 0.0
H119 H 0.77093 0.14964 0.94281 0.0
C120 C 0.38703 0.34032 0.34578 0.0
C121 C 0.4183 0.3654 0.35788 0.0
C122 C 0.42535 0.3858 0.2761 0.0
C123 C 0.43722 0.38809 0.32322 0.0
C124 C 0.39362 0.36118 0.26459 0.0
C125 C 0.37493 0.33878 0.29887 0.0
U126 U 0.35545 0.29883 0.4674 0.0
O127 O 0.29456 0.28318 0.47981 0.0
O128 O 0.34205 0.23671 0.49604 0.0
C129 C 0.3046 0.24581 0.4967 0.0
C130 C 0.36576 0.31512 0.37994 0.0
C131 C 0.27341 0.21524 0.49623 0.0
C132 C 0.21272 0.18616 0.46123 0.0
C133 C 0.24486 0.21216 0.45708 0.0
C134 C 0.23843 0.165 0.54275 0.0
C135 C 0.2083 0.16333 0.50465 0.0
C136 C 0.27021 0.19068 0.53862 0.0
C137 C 0.40608 0.34591 0.57413 0.0
C138 C 0.39231 0.34229 0.65265 0.0
C139 C 0.44369 0.3851 0.62568 0.0
C140 C 0.43621 0.37274 0.58308 0.0
C141 C 0.42121 0.37087 0.66054 0.0
C142 C 0.38458 0.33002 0.60953 0.0
C143 C 0.39691 0.33805 0.52638 0.0
O144 O 0.38665 0.28763 0.41133 0.0
O145 O 0.33818 0.33248 0.39611 0.0
O146 O 0.36186 0.35029 0.50204 0.0
O147 O 0.40931 0.3042 0.51853 0.0
H148 H 0.42815 0.3673 0.39386 0.0
H149 H 0.46148 0.40686 0.33326 0.0
H150 H 0.38298 0.35933 0.22875 0.0
H151 H 0.35074 0.31999 0.28857 0.0
H152 H 0.19041 0.18524 0.43099 0.0
H153 H 0.24669 0.23059 0.42381 0.0
H154 H 0.23701 0.14699 0.57639 0.0
H155 H 0.29178 0.19231 0.5693 0.0
H156 H 0.37452 0.33086 0.67899 0.0
H157 H 0.46637 0.40678 0.63091 0.0
H158 H 0.45325 0.38524 0.55636 0.0
H159 H 0.36122 0.30919 0.60343 0.0
Tb160 Tb 0.04686 0.97252 0.53299 0.0
C161 C 0.9492 0.13293 0.52041 0.0
N162 N 0.98414 0.11885 0.54774 0.0
C163 C 1.00976 0.18446 0.53798 0.0
C164 C 0.94394 0.17315 0.49889 0.0
C165 C 1.01255 0.14474 0.56002 0.0
C166 C 0.97567 0.19853 0.50612 0.0
C167 C 0.87824 0.12362 0.50019 0.0
C168 C 0.91687 0.10838 0.52014 0.0
C169 C 0.87333 0.16276 0.4755 0.0
C170 C 0.90627 0.1874 0.47442 0.0
Tb171 Tb 0.98592 0.05312 0.58104 0.0
N172 N 0.92277 0.07072 0.54442 0.0
C173 C 0.84559 0.10012 0.50885 0.0
C174 C 0.8911 0.04864 0.5554 0.0
C175 C 0.85204 0.06291 0.53776 0.0
H176 H 0.0359 0.1352 0.58878 0.0
H177 H 0.82697 0.04516 0.54627 0.0
H178 H 0.98798 0.89264 0.53852 0.0
H179 H 0.19832 0.99236 0.61123 0.0
H180 H 0.89609 0.02049 0.57864 0.0
H181 H 0.81533 0.11105 0.49508 0.0
H182 H 0.13337 0.0138 0.56275 0.0
H183 H 0.03304 0.20452 0.54712 0.0
H184 H 0.84395 0.17484 0.45919 0.0
H185 H 0.90175 0.2181 0.45729 0.0
H186 H 0.99314 0.82404 0.57988 0.0
H187 H 0.97287 0.22964 0.4903 0.0
H188 H 0.20881 0.92338 0.65423 0.0
N189 N 0.04514 0.90835 0.5708 0.0
C190 C 0.08019 0.89443 0.59831 0.0
C191 C 0.01762 0.84366 0.58596 0.0
C192 C 0.08496 0.85453 0.62119 0.0
C193 C 0.01437 0.88322 0.56345 0.0
C194 C 0.05296 0.82927 0.61513 0.0
N195 N 0.10643 0.95851 0.58054 0.0
C196 C 0.13708 0.98414 0.58247 0.0
C197 C 0.14878 0.90632 0.63019 0.0
C198 C 0.1119 0.92005 0.60274 0.0
C199 C 0.17998 0.93284 0.63357 0.0
C200 C 0.17412 0.97186 0.60949 0.0
H201 H 0.05554 0.79841 0.632 0.0
H202 H 0.12587 0.81027 0.66628 0.0
H203 H 0.18165 0.85555 0.67422 0.0
O204 O 0.08745 0.97969 0.485 0.0
O205 O 0.05249 0.97266 0.60852 0.0
O206 O 0.04594 0.03677 0.61973 0.0
O207 O 0.05269 0.92777 0.49559 0.0
O208 O 0.0641 0.03449 0.51497 0.0
O209 O 0.0468 0.07066 0.56809 0.0
O210 O 0.96618 0.02902 0.64432 0.0
O211 O 0.96079 0.0453 0.50977 0.0
O212 O 1.00182 1.00632 0.47862 0.0
O213 O 0.96758 0.09169 0.62068 0.0
O214 O 0.97554 0.98931 0.59396 0.0
O215 O 0.98298 0.96161 0.53187 0.0
C216 C 0.0619 1.00072 0.63292 0.0
C217 C 0.07228 0.94477 0.42216 0.0
C218 C 0.09958 0.94361 0.35116 0.0
C219 C 0.06227 0.93222 0.33053 0.0
C220 C 0.03512 0.93389 0.4002 0.0
C221 C 0.03037 0.92737 0.35489 0.0
C222 C 0.10468 0.94961 0.39738 0.0
C223 C 0.06921 0.06426 0.53737 0.0
C224 C 0.07843 0.94617 0.4722 0.0
C225 C 0.12166 0.84086 0.64864 0.0
C226 C 0.15346 0.86664 0.6531 0.0
C227 C 0.97125 0.03099 0.47498 0.0
C228 C 0.96542 0.07115 0.69976 0.0
C229 C 0.93798 0.08547 0.76601 0.0
C230 C 0.9756 0.09841 0.78375 0.0
C231 C 1.00281 0.08382 0.71827 0.0
C232 C 0.93311 0.07139 0.72408 0.0
C233 C 1.00783 0.09724 0.76022 0.0
C234 C 0.9616 0.96782 0.56314 0.0
C235 C 0.95778 0.06377 0.65215 0.0
H236 H 0.05799 0.92644 0.29554 0.0
H237 H 1.00987 0.92939 0.41841 0.0
H238 H 1.00191 0.9181 0.33873 0.0
H239 H 0.13372 0.9572 0.41413 0.0
H240 H 0.97999 0.1095 0.8159 0.0
H241 H 0.02767 0.08453 0.69955 0.0
H242 H 0.90391 0.06239 0.70943 0.0
H243 H 0.03661 0.10749 0.77412 0.0
Tb244 Tb 0.47748 0.49681 1.0075 0.0
C245 C 0.64817 0.55552 0.07681 0.0
N246 N 0.62705 0.52275 0.08945 0.0
C247 C 0.68423 0.48161 0.08963 0.0
C248 C 0.68744 0.55241 0.06775 0.0
C249 C 0.64574 0.48628 0.09899 0.0
C250 C 0.70488 0.51478 0.07291 0.0
C251 C 0.65379 0.62671 0.06755 0.0
C252 C 0.63134 0.5923 0.07603 0.0
C253 C 0.69202 0.6239 0.05612 0.0
C254 C 0.70873 0.58683 0.05594 0.0
Tb255 Tb 0.56337 0.53481 0.10155 0.0
N256 N 0.59399 0.59409 0.08646 0.0
C257 C 0.63775 0.66274 0.07246 0.0
C258 C 0.57895 0.62904 0.09311 0.0
C259 C 0.60038 0.66378 0.0859 0.0
H260 H 0.63228 0.46068 0.11583 0.0
H261 H 0.58807 0.69136 0.0908 0.0
H262 H 0.40256 0.56461 0.97462 0.0
H263 H 0.47113 0.33778 0.03963 0.0
H264 H 0.55062 0.63034 0.10484 0.0
H265 H 0.65423 0.68974 0.06673 0.0
H266 H 0.50206 0.40247 0.01979 0.0
H267 H 0.69833 0.45245 0.09656 0.0
H268 H 0.70938 0.65011 0.04871 0.0
H269 H 0.73874 0.58498 0.04842 0.0
H270 H 0.33151 0.56853 0.9823 0.0
H271 H 0.73499 0.51114 0.06641 0.0
H272 H 0.40203 0.33514 0.05645 0.0
N273 N 0.41035 0.50396 1.00787 0.0
C274 C 0.39176 0.47044 0.02371 0.0
C275 C 0.34821 0.5408 0.99454 0.0
C276 C 0.35097 0.471 0.0275 0.0
C277 C 0.38855 0.53849 0.99058 0.0
C278 C 0.3295 0.50705 1.01394 0.0
N279 N 0.45155 0.43582 0.02601 0.0
C280 C 0.47213 0.40153 0.02728 0.0
C281 C 0.39408 0.39889 0.04437 0.0
C282 C 0.41293 0.43497 0.0323 0.0
C283 C 0.41554 0.36354 0.04768 0.0
C284 C 0.45453 0.3649 0.03819 0.0
H285 H 0.29813 0.5088 1.0165 0.0
H286 H 0.30141 0.43526 0.04648 0.0
H287 H 0.33919 0.37194 0.06095 0.0
O288 O 0.48888 0.46667 0.95471 0.0
O289 O 0.48343 0.46362 0.07912 0.0
O290 O 0.50637 0.51143 0.12133 0.0
O291 O 0.45039 0.51815 0.93878 0.0
O292 O 0.54038 0.47592 0.02214 0.0
O293 O 0.56308 0.47111 0.09949 0.0
O294 O 0.55792 0.56323 0.15814 0.0
O295 O 0.57124 0.54836 0.02784 0.0
O296 O 0.50694 0.55211 0.98707 0.0
O297 O 0.60169 0.51575 0.16458 0.0
O298 O 0.51592 0.57897 0.06901 0.0
O299 O 0.4598 0.54704 0.03812 0.0
C300 C 0.48968 0.47707 0.11832 0.0
C301 C 0.43482 0.47005 0.89175 0.0
C302 C 0.41766 0.43873 0.82388 0.0
C303 C 0.37731 0.44047 0.82844 0.0
C304 C 0.39415 0.47082 0.89568 0.0
C305 C 0.36572 0.45627 0.86416 0.0
C306 C 0.4466 0.45364 0.85564 0.0
C307 C 0.55865 0.45542 0.06188 0.0
C308 C 0.46413 0.4893 0.92268 0.0
C309 C 0.3326 0.43538 0.04271 0.0
C310 C 0.35409 0.39933 0.05094 0.0
C311 C 0.54524 0.55802 0.98908 0.0
C312 C 0.60375 0.54613 0.23233 0.0
C313 C 0.60836 0.57964 0.29868 0.0
C314 C 0.6403 0.55382 0.32168 0.0
C315 C 0.63562 0.52072 0.25663 0.0
C316 C 0.59007 0.57603 0.2535 0.0
C317 C 0.65373 0.52466 0.30083 0.0
C318 C 0.47731 0.57747 0.05395 0.0
C319 C 0.5881 0.54267 0.18388 0.0
H320 H 0.35464 0.42981 0.80392 0.0
H321 H 0.38406 0.4835 0.92252 0.0
H322 H 0.33444 0.45765 0.86713 0.0
H323 H 0.47774 0.45335 0.85162 0.0
H324 H 0.65497 0.55627 0.35617 0.0
H325 H 0.64715 0.49797 0.24119 0.0
H326 H 0.56573 0.59615 0.23522 0.0
H327 H 0.67846 0.50508 0.31899 0.0
C328 C 0.15665 0.1133 0.48228 0.0
C329 C 0.17169 0.13956 0.51163 0.0
C330 C 0.1235 0.0896 0.49058 0.0
C331 C 0.10388 0.09082 0.52877 0.0
H332 H 0.17102 0.1105 0.45312 0.0
H333 H 0.11344 0.06988 0.46691 0.0
S334 S 0.13227 0.15456 0.61634 0.0
N335 N 0.16314 0.1667 0.57905 0.0
N336 N 0.10488 0.11933 0.59769 0.0
C337 C 0.11936 0.11658 0.55862 0.0
C338 C 0.15206 0.14159 0.54927 0.0
C339 C 0.39105 0.6458 0.06209 0.0
C340 C 0.40537 0.68385 0.04779 0.0
C341 C 0.41413 0.61139 0.06346 0.0
C342 C 0.45253 0.61385 0.05115 0.0
H343 H 0.36144 0.64263 0.07115 0.0
H344 H 0.40196 0.58271 0.07455 0.0
S345 S 0.50269 0.70661 1.00976 0.0
N346 N 0.45983 0.72184 0.02055 0.0
N347 N 0.50267 0.6578 0.02232 0.0
C348 C 0.46688 0.65181 0.03672 0.0
C349 C 0.44347 0.6866 0.03526 0.0
C350 C 0.87537 0.91897 0.61836 0.0
C351 C 0.8566 0.89717 0.58563 0.0
C352 C 0.90906 0.94152 0.61074 0.0
C353 C 0.92525 0.94406 0.56962 0.0
H354 H 0.86394 0.91873 0.65028 0.0
H355 H 0.92243 0.95715 0.63754 0.0
S356 S 0.88721 0.89321 0.4723 0.0
N357 N 0.85776 0.87881 0.51082 0.0
N358 N 0.91868 0.92378 0.49487 0.0
C359 C 0.90625 0.92318 0.53609 0.0
C360 C 0.87257 0.89928 0.54442 0.0
C361 C 0.60258 0.36866 0.02054 0.0
C362 C 0.62213 0.34411 0.06154 0.0
C363 C 0.58221 0.40399 0.0212 0.0
C364 C 0.57894 0.41629 0.06298 0.0
H365 H 0.6032 0.36082 0.98712 0.0
H366 H 0.56897 0.42189 0.98832 0.0
S367 S 0.62097 0.36151 0.18088 0.0
N368 N 0.6357 0.3348 0.14574 0.0
N369 N 0.59403 0.39886 0.14713 0.0
C370 C 0.59621 0.39099 0.10454 0.0
C371 C 0.61838 0.35558 0.10382 0.0
C372 C 0.15411 0.97127 0.24918 0.0
C373 C 0.1826 0.94009 0.2564 0.0
C374 C 0.12958 0.9743 0.28216 0.0
C375 C 0.13273 0.94652 0.32385 0.0
H376 H 0.14964 0.99264 0.21697 0.0
H377 H 0.10649 0.99737 0.27395 0.0
S378 S 0.20347 0.86054 0.36114 0.0
N379 N 0.21328 0.88168 0.30981 0.0
N380 N 0.16764 0.88811 0.37175 0.0
C381 C 0.16253 0.91666 0.33287 0.0
C382 C 0.18735 0.91329 0.29919 0.0
C383 C 0.5666 0.59047 0.86603 0.0
C384 C 0.58167 0.62866 0.86634 0.0
C385 C 0.55477 0.56776 0.90596 0.0
C386 C 0.55829 0.58217 0.94767 0.0
H387 H 0.565 0.57764 0.83527 0.0
H388 H 0.54357 0.53842 0.90449 0.0
S389 S 0.58891 0.68274 0.96374 0.0
N390 N 0.59369 0.68174 0.90984 0.0
N391 N 0.57344 0.63855 0.98484 0.0
C392 C 0.57155 0.62079 0.94764 0.0
C393 C 0.58267 0.64415 0.90698 0.0
C394 C 0.93627 0.05881 0.34389 0.0
C395 C 0.89449 0.06239 0.33994 0.0
C396 C 0.96081 0.04768 0.3876 0.0
C397 C 0.94451 0.03987 0.42891 0.0
H398 H 0.95018 0.06627 0.31329 0.0
H399 H 0.99288 0.04647 0.38916 0.0
S400 S 0.83639 0.03428 0.43532 0.0
N401 N 0.83774 0.05053 0.37992 0.0
N402 N 0.88343 0.02856 0.46126 0.0
C403 C 0.90264 0.04014 0.42473 0.0
C404 C 0.87781 0.05161 0.38049 0.0
C405 C 0.43322 0.36532 0.74761 0.0
C406 C 0.42542 0.38887 0.70287 0.0
C407 C 0.4343 0.38219 0.78743 0.0
C408 C 0.42754 0.4231 0.78378 0.0
H409 H 0.43758 0.33359 0.75176 0.0
H410 H 0.43845 0.36291 0.82115 0.0
S411 S 0.4059 0.49747 0.67504 0.0
N412 N 0.41141 0.45526 0.65765 0.0
N413 N 0.41319 0.48658 0.73224 0.0
C414 C 0.42093 0.44697 0.73945 0.0
C415 C 0.41996 0.42996 0.69907 0.0
C416 C 0.58288 0.61789 0.40052 0.0
C417 C 0.59612 0.6571 0.39327 0.0
C418 C 0.58244 0.59436 0.36687 0.0
C419 C 0.59522 0.60887 0.32448 0.0
H420 H 0.57532 0.60424 0.43372 0.0
H421 H 0.57499 0.56349 0.37553 0.0
S422 S 0.62502 0.71159 0.28436 0.0
N423 N 0.6164 0.71121 0.33747 0.0
N424 N 0.61627 0.66642 0.27433 0.0
C425 C 0.6051 0.64895 0.31492 0.0
C426 C 0.60556 0.67312 0.34936 0.0
C427 C 0.8652 0.05588 0.8495 0.0
C428 C 0.85304 0.0927 0.85806 0.0
C429 C 0.89038 0.05354 0.81693 0.0
C430 C 0.90424 0.08793 0.79155 0.0
H431 H 0.8568 0.02854 0.86979 0.0
H432 H 0.90095 0.02471 0.81362 0.0
S433 S 0.87664 0.19132 0.79455 0.0
N434 N 0.85366 0.16432 0.83381 0.0
N435 N 0.90036 0.15956 0.77245 0.0
C436 C 0.88979 0.12472 0.79674 0.0
C437 C 0.86421 0.12722 0.82985 0.0
C438 C 0.45136 0.44946 0.23412 0.0
C439 C 0.44552 0.40841 0.23839 0.0
C440 C 0.46634 0.47139 0.19578 0.0
C441 C 0.47605 0.45318 0.16014 0.0
H442 H 0.44306 0.46498 0.25977 0.0
H443 H 0.46931 0.50303 0.19347 0.0
S444 S 0.47377 0.3453 0.15984 0.0
N445 N 0.45571 0.34984 0.20679 0.0
N446 N 0.4839 0.39058 0.13558 0.0
C447 C 0.47249 0.41184 0.16557 0.0
C448 C 0.45729 0.38964 0.2044 0.0
C449 C 0.12199 0.94029 0.74445 0.0
C450 C 0.14027 0.96943 0.76772 0.0
C451 C 0.09708 0.95057 0.70096 0.0
C452 C 0.08961 0.99042 0.67848 0.0
H453 H 0.12552 0.90935 0.76082 0.0
H454 H 0.08261 0.92699 0.68562 0.0
S455 S 0.1341 0.07773 0.72223 0.0
N456 N 0.152 0.03968 0.76287 0.0
N457 N 0.10517 0.05886 0.68203 0.0
C458 C 0.10902 0.01965 0.70065 0.0
C459 C 0.13439 1.00921 0.7448 0.0
loop_
_geom_bond_atom_site_label_1
_geom_bond_atom_site_label_2
_geom_bond_distance
_geom_bond_site_symmetry_2
_ccdc_geom_bond_type
C0 C1 1.264 . S
C0 C5 1.479 . S
C0 C10 1.465 . S
C1 C0 1.264 . S
C1 C3 1.339 . S
C1 H28 0.931 . S
C2 C3 1.395 . S
C2 C4 1.320 . S
C3 C1 1.339 . S
C3 C2 1.395 . S
C3 H29 0.929 . S
C4 C2 1.320 . S
C4 C5 1.405 . S
C4 H30 0.930 . S
C5 C0 1.479 . S
C5 C4 1.405 . S
C5 H31 0.931 . S
U6 O7 2.454 . S
U6 O8 2.458 1_554 S
U6 C9 2.984 . S
U6 C10 2.847 . S
U6 C23 2.882 1_554 S
U6 O24 2.441 . S
U6 O25 2.420 . S
U6 O26 2.455 1_554 S
U6 O27 2.449 1_554 S
O7 U6 2.454 . S
O7 C9 1.353 . S
O8 U6 2.458 1_556 S
O8 C9 1.286 1_556 S
C9 U6 2.984 . S
C9 O7 1.353 . S
C9 O8 1.286 1_554 S
C9 C11 1.363 . S
C10 C0 1.465 . S
C10 U6 2.847 . S
C10 O24 1.249 . S
C10 O25 1.202 . S
C11 C9 1.363 . S
C11 C13 1.408 . S
C11 C16 1.363 . S
C12 C13 1.310 . S
C12 C15 1.461 . S
C12 H32 0.932 . S
C13 C11 1.408 . S
C13 C12 1.310 . S
C13 H33 0.930 . S
C14 C15 1.474 . S
C14 C16 1.281 . S
C14 H34 0.929 1_554 S
C15 C12 1.461 . S
C15 C14 1.474 . S
C16 C11 1.363 . S
C16 C14 1.281 . S
C16 H35 0.914 1_554 S
C17 C20 1.424 . S
C17 C22 1.245 . S
C17 C23 1.428 . S
C18 C21 1.260 . S
C18 C22 1.477 . S
C18 H36 0.932 . S
C19 C20 1.384 . S
C19 C21 1.479 . S
C19 H37 0.929 . S
C20 C17 1.424 . S
C20 C19 1.384 . S
C20 H38 0.928 . S
C21 C18 1.260 . S
C21 C19 1.479 . S
C22 C17 1.245 . S
C22 C18 1.477 . S
C22 H39 0.932 . S
C23 U6 2.882 1_556 S
C23 C17 1.428 . S
C23 O26 1.301 . S
C23 O27 1.282 . S
O24 U6 2.441 . S
O24 C10 1.249 . S
O25 U6 2.420 . S
O25 C10 1.202 . S
O26 U6 2.455 1_556 S
O26 C23 1.301 . S
O27 U6 2.449 1_556 S
O27 C23 1.282 . S
H28 C1 0.931 . S
H29 C3 0.929 . S
H30 C4 0.930 . S
H31 C5 0.931 . S
H32 C12 0.932 . S
H33 C13 0.930 . S
H34 C14 0.929 1_556 S
H35 C16 0.914 1_556 S
H36 C18 0.932 . S
H37 C19 0.929 . S
H38 C20 0.928 . S
H39 C22 0.932 . S
C40 C41 1.264 . S
C40 C45 1.479 . S
C40 C50 1.465 . S
C41 C40 1.264 . S
C41 C43 1.339 . S
C41 H68 0.931 . S
C42 C43 1.395 . S
C42 C44 1.320 . S
C43 C41 1.339 . S
C43 C42 1.395 . S
C43 H69 0.929 . S
C44 C42 1.320 . S
C44 C45 1.405 . S
C44 H70 0.930 . S
C45 C40 1.479 . S
C45 C44 1.405 . S
C45 H71 0.931 . S
U46 O47 2.454 . S
U46 O48 2.458 . S
U46 C49 2.984 . S
U46 C50 2.847 . S
U46 C63 2.882 . S
U46 O64 2.441 . S
U46 O65 2.420 . S
U46 O66 2.455 . S
U46 O67 2.449 . S
O47 U46 2.454 . S
O47 C49 1.353 . S
O48 U46 2.458 . S
O48 C49 1.286 . S
C49 U46 2.984 . S
C49 O47 1.353 . S
C49 O48 1.286 . S
C49 C51 1.363 . S
C50 C40 1.465 . S
C50 U46 2.847 . S
C50 O64 1.249 . S
C50 O65 1.202 . S
C51 C49 1.363 . S
C51 C53 1.408 . S
C51 C56 1.342 . S
C52 C53 1.310 . S
C52 C55 1.461 . S
C52 H72 0.932 . S
C53 C51 1.408 . S
C53 C52 1.310 . S
C53 H73 0.930 . S
C54 C55 1.474 . S
C54 C56 1.285 . S
C54 H74 0.929 . S
C55 C52 1.461 . S
C55 C54 1.474 . S
C56 C51 1.342 . S
C56 C54 1.285 . S
C56 H75 0.930 . S
C57 C60 1.424 . S
C57 C62 1.245 . S
C57 C63 1.428 . S
C58 C61 1.260 . S
C58 C62 1.477 . S
C58 H76 0.932 . S
C59 C60 1.384 . S
C59 C61 1.479 . S
C59 H77 0.929 . S
C60 C57 1.424 . S
C60 C59 1.384 . S
C60 H78 0.928 . S
C61 C58 1.260 . S
C61 C59 1.479 . S
C62 C57 1.245 . S
C62 C58 1.477 . S
C62 H79 0.932 . S
C63 U46 2.882 . S
C63 C57 1.428 . S
C63 O66 1.301 . S
C63 O67 1.282 . S
O64 U46 2.441 . S
O64 C50 1.249 . S
O65 U46 2.420 . S
O65 C50 1.202 . S
O66 U46 2.455 . S
O66 C63 1.301 . S
O67 U46 2.449 . S
O67 C63 1.282 . S
H68 C41 0.931 . S
H69 C43 0.929 . S
H70 C44 0.930 . S
H71 C45 0.931 . S
H72 C52 0.932 . S
H73 C53 0.930 . S
H74 C54 0.929 . S
H75 C56 0.930 . S
H76 C58 0.932 . S
H77 C59 0.929 . S
H78 C60 0.928 . S
H79 C62 0.932 . S
C80 C81 1.264 . S
C80 C85 1.479 . S
C80 C90 1.465 . S
C81 C80 1.264 . S
C81 C83 1.339 . S
C81 H108 0.931 . S
C82 C83 1.395 . S
C82 C84 1.320 . S
C83 C81 1.339 . S
C83 C82 1.395 . S
C83 H109 0.929 . S
C84 C82 1.320 . S
C84 C85 1.405 . S
C84 H110 0.930 . S
C85 C80 1.479 . S
C85 C84 1.405 . S
C85 H111 0.931 . S
U86 O87 2.454 . S
U86 O88 2.458 . S
U86 C89 2.984 . S
U86 C90 2.847 . S
U86 C103 2.882 1_554 S
U86 O104 2.441 . S
U86 O105 2.420 . S
U86 O106 2.455 1_554 S
U86 O107 2.449 . S
O87 U86 2.454 . S
O87 C89 1.353 . S
O88 U86 2.458 . S
O88 C89 1.286 . S
C89 U86 2.984 . S
C89 O87 1.353 . S
C89 O88 1.286 . S
C89 C91 1.363 . S
C90 C80 1.465 . S
C90 U86 2.847 . S
C90 O104 1.249 . S
C90 O105 1.202 . S
C91 C89 1.363 . S
C91 C93 1.408 . S
C91 C96 1.342 1_554 S
C92 C93 1.310 . S
C92 C95 1.461 . S
C92 H112 0.932 . S
C93 C91 1.408 . S
C93 C92 1.310 . S
C93 H113 0.930 . S
C94 C95 1.474 1_556 S
C94 C96 1.285 . S
C94 H114 0.929 . S
C95 C92 1.461 . S
C95 C94 1.474 1_554 S
C96 C91 1.342 1_556 S
C96 C94 1.285 . S
C96 H115 0.930 . S
C97 C100 1.424 . S
C97 C102 1.245 . S
C97 C103 1.428 . S
C98 C101 1.260 . S
C98 C102 1.477 . S
C98 H116 0.932 . S
C99 C100 1.384 . S
C99 C101 1.479 . S
C99 H117 0.929 . S
C100 C97 1.424 . S
C100 C99 1.384 . S
C100 H118 0.928 . S
C101 C98 1.260 . S
C101 C99 1.479 . S
C102 C97 1.245 . S
C102 C98 1.477 . S
C102 H119 0.932 . S
C103 U86 2.882 1_556 S
C103 C97 1.428 . S
C103 O106 1.301 . S
C103 O107 1.282 1_556 S
O104 U86 2.441 . S
O104 C90 1.249 . S
O105 U86 2.420 . S
O105 C90 1.202 . S
O106 U86 2.455 1_556 S
O106 C103 1.301 . S
O107 U86 2.449 . S
O107 C103 1.282 1_554 S
H108 C81 0.931 . S
H109 C83 0.929 . S
H110 C84 0.930 . S
H111 C85 0.931 . S
H112 C92 0.932 . S
H113 C93 0.930 . S
H114 C94 0.929 . S
H115 C96 0.930 . S
H116 C98 0.932 . S
H117 C99 0.929 . S
H118 C100 0.928 . S
H119 C102 0.932 . S
C120 C121 1.264 . S
C120 C125 1.479 . S
C120 C130 1.465 . S
C121 C120 1.264 . S
C121 C123 1.339 . S
C121 H148 0.931 . S
C122 C123 1.395 . S
C122 C124 1.320 . S
C123 C121 1.339 . S
C123 C122 1.395 . S
C123 H149 0.929 . S
C124 C122 1.320 . S
C124 C125 1.405 . S
C124 H150 0.930 . S
C125 C120 1.479 . S
C125 C124 1.405 . S
C125 H151 0.931 . S
U126 O127 2.454 . S
U126 O128 2.458 . S
U126 C129 2.984 . S
U126 C130 2.847 . S
U126 C143 2.882 . S
U126 O144 2.441 . S
U126 O145 2.420 . S
U126 O146 2.455 . S
U126 O147 2.449 . S
O127 U126 2.454 . S
O127 C129 1.353 . S
O128 U126 2.458 . S
O128 C129 1.286 . S
C129 U126 2.984 . S
C129 O127 1.353 . S
C129 O128 1.286 . S
C129 C131 1.363 . S
C130 C120 1.465 . S
C130 U126 2.847 . S
C130 O144 1.249 . S
C130 O145 1.202 . S
C131 C129 1.363 . S
C131 C133 1.408 . S
C131 C136 1.342 . S
C132 C133 1.310 . S
C132 C135 1.461 . S
C132 H152 0.932 . S
C133 C131 1.408 . S
C133 C132 1.310 . S
C133 H153 0.930 . S
C134 C135 1.474 . S
C134 C136 1.285 . S
C134 H154 0.929 . S
C135 C132 1.461 . S
C135 C134 1.474 . S
C136 C131 1.342 . S
C136 C134 1.285 . S
C136 H155 0.930 . S
C137 C140 1.424 . S
C137 C142 1.245 . S
C137 C143 1.428 . S
C138 C141 1.260 . S
C138 C142 1.477 . S
C138 H156 0.932 . S
C139 C140 1.384 . S
C139 C141 1.479 . S
C139 H157 0.929 . S
C140 C137 1.424 . S
C140 C139 1.384 . S
C140 H158 0.928 . S
C141 C138 1.260 . S
C141 C139 1.479 . S
C142 C137 1.245 . S
C142 C138 1.477 . S
C142 H159 0.932 . S
C143 U126 2.882 . S
C143 C137 1.428 . S
C143 O146 1.301 . S
C143 O147 1.282 . S
O144 U126 2.441 . S
O144 C130 1.249 . S
O145 U126 2.420 . S
O145 C130 1.202 . S
O146 U126 2.455 . S
O146 C143 1.301 . S
O147 U126 2.449 . S
O147 C143 1.282 . S
H148 C121 0.931 . S
H149 C123 0.929 . S
H150 C124 0.930 . S
H151 C125 0.931 . S
H152 C132 0.932 . S
H153 C133 0.930 . S
H154 C134 0.929 . S
H155 C136 0.930 . S
H156 C138 0.932 . S
H157 C139 0.929 . S
H158 C140 0.928 . S
H159 C142 0.932 . S
Tb160 N189 2.617 . S
Tb160 N195 2.572 . S
Tb160 O204 2.465 . S
Tb160 O205 2.387 . S
Tb160 O207 2.428 . S
Tb160 O208 2.308 1_565 S
Tb160 O212 2.352 1_455 S
Tb160 O215 2.393 1_455 S
Tb160 C224 2.802 . S
C161 N162 1.379 . S
C161 C164 1.416 . S
C161 C168 1.424 . S
N162 C161 1.379 . S
N162 C165 1.312 1_655 S
N162 Tb171 2.617 . S
C163 C165 1.390 1_655 S
C163 C166 1.339 . S
C163 H183 0.930 1_655 S
C164 C161 1.416 . S
C164 C166 1.416 . S
C164 C170 1.448 . S
C165 N162 1.312 1_455 S
C165 C163 1.390 1_455 S
C165 H176 0.954 . S
C166 C163 1.339 . S
C166 C164 1.416 . S
C166 H187 0.930 . S
C167 C168 1.413 . S
C167 C169 1.427 . S
C167 C173 1.416 . S
C168 C161 1.424 . S
C168 C167 1.413 . S
C168 N172 1.361 . S
C169 C167 1.427 . S
C169 C170 1.328 . S
C169 H184 0.929 . S
C170 C164 1.448 . S
C170 C169 1.328 . S
C170 H185 0.930 . S
Tb171 N162 2.617 . S
Tb171 N172 2.572 . S
Tb171 O206 2.349 1_655 S
Tb171 O209 2.393 1_655 S
Tb171 O210 2.465 . S
Tb171 O211 2.387 . S
Tb171 O213 2.428 . S
Tb171 O214 2.308 1_545 S
Tb171 C235 2.802 . S
N172 C168 1.361 . S
N172 Tb171 2.572 . S
N172 C174 1.340 . S
C173 C167 1.416 . S
C173 C175 1.332 . S
C173 H181 0.931 . S
C174 N172 1.340 . S
C174 C175 1.407 . S
C174 H180 0.930 . S
C175 C173 1.332 . S
C175 C174 1.407 . S
C175 H177 0.929 . S
H176 C165 0.954 . S
H177 C175 0.929 . S
H178 C193 0.930 1_655 S
H179 C200 0.929 . S
H180 C174 0.930 . S
H181 C173 0.931 . S
H182 C196 0.930 . S
H183 C163 0.930 1_455 S
H184 C169 0.929 . S
H185 C170 0.930 . S
H186 C191 0.930 1_655 S
H187 C166 0.930 . S
H188 C199 0.931 . S
N189 Tb160 2.617 . S
N189 C190 1.379 . S
N189 C193 1.334 . S
C190 N189 1.379 . S
C190 C192 1.416 . S
C190 C198 1.424 . S
C191 H186 0.930 1_455 S
C191 C193 1.390 . S
C191 C194 1.339 . S
C192 C190 1.416 . S
C192 C194 1.416 . S
C192 C225 1.448 . S
C193 H178 0.930 1_455 S
C193 N189 1.334 . S
C193 C191 1.390 . S
C194 C191 1.339 . S
C194 C192 1.416 . S
C194 H201 0.930 . S
N195 Tb160 2.572 . S
N195 C196 1.340 . S
N195 C198 1.361 . S
C196 H182 0.930 . S
C196 N195 1.340 . S
C196 C200 1.407 . S
C197 C198 1.413 . S
C197 C199 1.416 . S
C197 C226 1.427 . S
C198 C190 1.424 . S
C198 N195 1.361 . S
C198 C197 1.413 . S
C199 H188 0.931 . S
C199 C197 1.416 . S
C199 C200 1.332 . S
C200 H179 0.929 . S
C200 C196 1.407 . S
C200 C199 1.332 . S
H201 C194 0.930 . S
H202 C225 0.930 . S
H203 C226 0.929 . S
O204 Tb160 2.465 . S
O204 C224 1.264 . S
O205 Tb160 2.387 . S
O205 C216 1.264 . S
O206 Tb171 2.349 1_455 S
O206 C216 1.243 1_545 S
O207 Tb160 2.428 . S
O207 C224 1.256 . S
O208 Tb160 2.308 1_545 S
O208 C223 1.266 . S
O209 Tb171 2.393 1_455 S
O209 C223 1.248 . S
O210 Tb171 2.465 . S
O210 C235 1.264 . S
O211 Tb171 2.387 . S
O211 C227 1.264 . S
O212 Tb160 2.352 1_655 S
O212 C227 1.238 1_565 S
O213 Tb171 2.428 . S
O213 C235 1.256 . S
O214 Tb171 2.308 1_565 S
O214 C234 1.266 . S
O215 Tb160 2.393 1_655 S
O215 C234 1.248 . S
C216 O205 1.264 . S
C216 O206 1.243 1_565 S
C217 C220 1.399 . S
C217 C222 1.383 . S
C217 C224 1.496 . S
C218 C219 1.399 . S
C218 C222 1.389 . S
C219 C218 1.399 . S
C219 C221 1.380 . S
C219 H236 0.929 . S
C220 C217 1.399 . S
C220 C221 1.392 . S
C220 H237 0.929 . S
C221 C219 1.380 . S
C221 C220 1.392 . S
C221 H238 0.929 . S
C222 C217 1.383 . S
C222 C218 1.389 . S
C222 H239 0.931 . S
C223 O208 1.266 . S
C223 O209 1.248 . S
C224 Tb160 2.802 . S
C224 O204 1.264 . S
C224 O207 1.256 . S
C224 C217 1.496 . S
C225 C192 1.448 . S
C225 H202 0.930 . S
C225 C226 1.328 . S
C226 C197 1.427 . S
C226 H203 0.929 . S
C226 C225 1.328 . S
C227 O211 1.264 . S
C227 O212 1.238 1_545 S
C228 C231 1.399 . S
C228 C232 1.383 . S
C228 C235 1.496 . S
C229 C230 1.399 . S
C229 C232 1.389 . S
C230 C229 1.399 . S
C230 C233 1.380 . S
C230 H240 0.929 . S
C231 C228 1.399 . S
C231 C233 1.392 . S
C231 H241 0.929 . S
C232 C228 1.383 . S
C232 C229 1.389 . S
C232 H242 0.931 . S
C233 C230 1.380 . S
C233 C231 1.392 . S
C233 H243 0.929 . S
C234 O214 1.266 . S
C234 O215 1.248 . S
C235 Tb171 2.802 . S
C235 O210 1.264 . S
C235 O213 1.256 . S
C235 C228 1.496 . S
H236 C219 0.929 . S
H237 C220 0.929 . S
H238 C221 0.929 . S
H239 C222 0.931 . S
H240 C230 0.929 . S
H241 C231 0.929 . S
H242 C232 0.931 . S
H243 C233 0.929 . S
Tb244 N273 2.617 . S
Tb244 N279 2.572 1_556 S
Tb244 O288 2.465 . S
Tb244 O289 2.387 1_556 S
Tb244 O291 2.428 . S
Tb244 O292 2.308 1_556 S
Tb244 O296 2.349 . S
Tb244 O299 2.391 1_556 S
Tb244 C308 2.802 . S
C245 N246 1.379 . S
C245 C248 1.416 . S
C245 C252 1.424 . S
N246 C245 1.379 . S
N246 C249 1.334 . S
N246 Tb255 2.617 . S
C247 C249 1.390 . S
C247 C250 1.339 . S
C247 H267 0.930 . S
C248 C245 1.416 . S
C248 C250 1.416 . S
C248 C254 1.448 . S
C249 N246 1.334 . S
C249 C247 1.390 . S
C249 H260 0.930 . S
C250 C247 1.339 . S
C250 C248 1.416 . S
C250 H271 0.930 . S
C251 C252 1.413 . S
C251 C253 1.427 . S
C251 C257 1.416 . S
C252 C245 1.424 . S
C252 C251 1.413 . S
C252 N256 1.361 . S
C253 C251 1.427 . S
C253 C254 1.328 . S
C253 H268 0.929 . S
C254 C248 1.448 . S
C254 C253 1.328 . S
C254 H269 0.930 . S
Tb255 N246 2.617 . S
Tb255 N256 2.572 . S
Tb255 O290 2.349 . S
Tb255 O293 2.393 . S
Tb255 O294 2.465 . S
Tb255 O295 2.399 . S
Tb255 O297 2.428 . S
Tb255 O298 2.308 . S
Tb255 C319 2.802 . S
N256 C252 1.361 . S
N256 Tb255 2.572 . S
N256 C258 1.340 . S
C257 C251 1.416 . S
C257 C259 1.332 . S
C257 H265 0.931 . S
C258 N256 1.340 . S
C258 C259 1.407 . S
C258 H264 0.930 . S
C259 C257 1.332 . S
C259 C258 1.407 . S
C259 H261 0.929 . S
H260 C249 0.930 . S
H261 C259 0.929 . S
H262 C277 0.930 . S
H263 C284 0.929 . S
H264 C258 0.930 . S
H265 C257 0.931 . S
H266 C280 0.930 . S
H267 C247 0.930 . S
H268 C253 0.929 . S
H269 C254 0.930 . S
H270 C275 0.930 . S
H271 C250 0.930 . S
H272 C283 0.931 . S
N273 Tb244 2.617 . S
N273 C274 1.379 1_556 S
N273 C277 1.334 . S
C274 N273 1.379 1_554 S
C274 C276 1.416 . S
C274 C282 1.424 . S
C275 H270 0.930 . S
C275 C277 1.390 . S
C275 C278 1.339 1_556 S
C276 C274 1.416 . S
C276 C278 1.416 . S
C276 C309 1.448 . S
C277 H262 0.930 . S
C277 N273 1.334 . S
C277 C275 1.390 . S
C278 C275 1.339 1_554 S
C278 C276 1.416 . S
C278 H285 0.930 . S
N279 Tb244 2.572 1_554 S
N279 C280 1.340 . S
N279 C282 1.361 . S
C280 H266 0.930 . S
C280 N279 1.340 . S
C280 C284 1.407 . S
C281 C282 1.413 . S
C281 C283 1.416 . S
C281 C310 1.427 . S
C282 C274 1.424 . S
C282 N279 1.361 . S
C282 C281 1.413 . S
C283 H272 0.931 . S
C283 C281 1.416 . S
C283 C284 1.332 . S
C284 H263 0.929 . S
C284 C280 1.407 . S
C284 C283 1.332 . S
H285 C278 0.930 . S
H286 C309 0.930 . S
H287 C310 0.929 . S
O288 Tb244 2.465 . S
O288 C308 1.264 . S
O289 Tb244 2.387 1_554 S
O289 C300 1.264 . S
O290 Tb255 2.349 . S
O290 C300 1.243 . S
O291 Tb244 2.428 . S
O291 C308 1.256 . S
O292 Tb244 2.308 1_554 S
O292 C307 1.266 . S
O293 Tb255 2.393 . S
O293 C307 1.248 . S
O294 Tb255 2.465 . S
O294 C319 1.264 . S
O295 Tb255 2.399 . S
O295 C311 1.254 1_554 S
O296 Tb244 2.349 . S
O296 C311 1.243 . S
O297 Tb255 2.428 . S
O297 C319 1.256 . S
O298 Tb255 2.308 . S
O298 C318 1.266 . S
O299 Tb244 2.391 1_554 S
O299 C318 1.251 . S
C300 O289 1.264 . S
C300 O290 1.243 . S
C301 C304 1.399 . S
C301 C306 1.383 . S
C301 C308 1.496 . S
C302 C303 1.399 . S
C302 C306 1.389 . S
C303 C302 1.399 . S
C303 C305 1.380 . S
C303 H320 0.929 . S
C304 C301 1.399 . S
C304 C305 1.392 . S
C304 H321 0.929 . S
C305 C303 1.380 . S
C305 C304 1.392 . S
C305 H322 0.929 . S
C306 C301 1.383 . S
C306 C302 1.389 . S
C306 H323 0.931 . S
C307 O292 1.266 . S
C307 O293 1.248 . S
C308 Tb244 2.802 . S
C308 O288 1.264 . S
C308 O291 1.256 . S
C308 C301 1.496 . S
C309 C276 1.448 . S
C309 H286 0.930 . S
C309 C310 1.328 . S
C310 C281 1.427 . S
C310 H287 0.929 . S
C310 C309 1.328 . S
C311 O295 1.254 1_556 S
C311 O296 1.243 . S
C312 C315 1.399 . S
C312 C316 1.383 . S
C312 C319 1.496 . S
C313 C314 1.399 . S
C313 C316 1.389 . S
C314 C313 1.399 . S
C314 C317 1.380 . S
C314 H324 0.929 . S
C315 C312 1.399 . S
C315 C317 1.392 . S
C315 H325 0.929 . S
C316 C312 1.383 . S
C316 C313 1.389 . S
C316 H326 0.931 . S
C317 C314 1.380 . S
C317 C315 1.392 . S
C317 H327 0.929 . S
C318 O298 1.266 . S
C318 O299 1.251 . S
C319 Tb255 2.802 . S
C319 O294 1.264 . S
C319 O297 1.256 . S
C319 C312 1.496 . S
H320 C303 0.929 . S
H321 C304 0.929 . S
H322 C305 0.929 . S
H323 C306 0.931 . S
H324 C314 0.929 . S
H325 C315 0.929 . S
H326 C316 0.931 . S
H327 C317 0.929 . S
C328 C329 1.369 . S
C328 C330 1.419 . S
C328 H332 0.930 . S
C329 C328 1.369 . S
C329 C338 1.429 . S
C330 C328 1.419 . S
C330 C331 1.363 . S
C330 H333 0.929 . S
C331 C330 1.363 . S
C331 C337 1.428 . S
H332 C328 0.930 . S
H333 C330 0.929 . S
S334 N335 1.613 . S
S334 N336 1.610 . S
N335 S334 1.613 . S
N335 C338 1.350 . S
N336 S334 1.610 . S
N336 C337 1.351 . S
C337 C331 1.428 . S
C337 N336 1.351 . S
C337 C338 1.434 . S
C338 C329 1.429 . S
C338 N335 1.350 . S
C338 C337 1.434 . S
C339 C340 1.369 . S
C339 C341 1.419 . S
C339 H343 0.930 . S
C340 C339 1.369 . S
C340 C349 1.429 . S
C341 C339 1.419 . S
C341 C342 1.363 . S
C341 H344 0.929 . S
C342 C341 1.363 . S
C342 C348 1.428 . S
H343 C339 0.930 . S
H344 C341 0.929 . S
S345 N346 1.613 . S
S345 N347 1.610 . S
N346 S345 1.613 . S
N346 C349 1.350 . S
N347 S345 1.610 . S
N347 C348 1.351 . S
C348 C342 1.428 . S
C348 N347 1.351 . S
C348 C349 1.434 . S
C349 C340 1.429 . S
C349 N346 1.350 . S
C349 C348 1.434 . S
C350 C351 1.369 . S
C350 C352 1.419 . S
C350 H354 0.930 . S
C351 C350 1.369 . S
C351 C360 1.429 . S
C352 C350 1.419 . S
C352 C353 1.363 . S
C352 H355 0.929 . S
C353 C352 1.363 . S
C353 C359 1.428 . S
H354 C350 0.930 . S
H355 C352 0.929 . S
S356 N357 1.613 . S
S356 N358 1.610 . S
N357 S356 1.613 . S
N357 C360 1.350 . S
N358 S356 1.610 . S
N358 C359 1.351 . S
C359 C353 1.428 . S
C359 N358 1.351 . S
C359 C360 1.434 . S
C360 C351 1.429 . S
C360 N357 1.350 . S
C360 C359 1.434 . S
C361 C362 1.369 1_556 S
C361 C363 1.419 . S
C361 H365 0.930 . S
C362 C361 1.369 1_554 S
C362 C371 1.429 . S
C363 C361 1.419 . S
C363 C364 1.363 1_556 S
C363 H366 0.929 . S
C364 C363 1.363 1_554 S
C364 C370 1.428 . S
H365 C361 0.930 . S
H366 C363 0.929 . S
S367 N368 1.613 . S
S367 N369 1.610 . S
N368 S367 1.613 . S
N368 C371 1.350 . S
N369 S367 1.610 . S
N369 C370 1.351 . S
C370 C364 1.428 . S
C370 N369 1.351 . S
C370 C371 1.434 . S
C371 C362 1.429 . S
C371 N368 1.350 . S
C371 C370 1.434 . S
C372 C373 1.369 . S
C372 C374 1.419 . S
C372 H376 0.930 . S
C373 C372 1.369 . S
C373 C382 1.429 . S
C374 C372 1.419 . S
C374 C375 1.363 . S
C374 H377 0.929 . S
C375 C374 1.363 . S
C375 C381 1.428 . S
H376 C372 0.930 . S
H377 C374 0.929 . S
S378 N379 1.613 . S
S378 N380 1.610 . S
N379 S378 1.613 . S
N379 C382 1.350 . S
N380 S378 1.610 . S
N380 C381 1.351 . S
C381 C375 1.428 . S
C381 N380 1.351 . S
C381 C382 1.434 . S
C382 C373 1.429 . S
C382 N379 1.350 . S
C382 C381 1.434 . S
C383 C384 1.369 . S
C383 C385 1.419 . S
C383 H387 0.930 . S
C384 C383 1.369 . S
C384 C393 1.429 . S
C385 C383 1.419 . S
C385 C386 1.363 . S
C385 H388 0.929 . S
C386 C385 1.363 . S
C386 C392 1.428 . S
H387 C383 0.930 . S
H388 C385 0.929 . S
S389 N390 1.613 . S
S389 N391 1.610 . S
N390 S389 1.613 . S
N390 C393 1.350 . S
N391 S389 1.610 . S
N391 C392 1.351 . S
C392 C386 1.428 . S
C392 N391 1.351 . S
C392 C393 1.434 . S
C393 C384 1.429 . S
C393 N390 1.350 . S
C393 C392 1.434 . S
C394 C395 1.369 . S
C394 C396 1.419 . S
C394 H398 0.930 . S
C395 C394 1.369 . S
C395 C404 1.429 . S
C396 C394 1.419 . S
C396 C397 1.363 . S
C396 H399 0.929 . S
C397 C396 1.363 . S
C397 C403 1.428 . S
H398 C394 0.930 . S
H399 C396 0.929 . S
S400 N401 1.613 . S
S400 N402 1.610 . S
N401 S400 1.613 . S
N401 C404 1.350 . S
N402 S400 1.610 . S
N402 C403 1.351 . S
C403 C397 1.428 . S
C403 N402 1.351 . S
C403 C404 1.434 . S
C404 C395 1.429 . S
C404 N401 1.350 . S
C404 C403 1.434 . S
C405 C406 1.369 . S
C405 C407 1.419 . S
C405 H409 0.930 . S
C406 C405 1.369 . S
C406 C415 1.429 . S
C407 C405 1.419 . S
C407 C408 1.363 . S
C407 H410 0.929 . S
C408 C407 1.363 . S
C408 C414 1.428 . S
H409 C405 0.930 . S
H410 C407 0.929 . S
S411 N412 1.613 . S
S411 N413 1.610 . S
N412 S411 1.613 . S
N412 C415 1.350 . S
N413 S411 1.610 . S
N413 C414 1.351 . S
C414 C408 1.428 . S
C414 N413 1.351 . S
C414 C415 1.434 . S
C415 C406 1.429 . S
C415 N412 1.350 . S
C415 C414 1.434 . S
C416 C417 1.369 . S
C416 C418 1.419 . S
C416 H420 0.930 . S
C417 C416 1.369 . S
C417 C426 1.429 . S
C418 C416 1.419 . S
C418 C419 1.363 . S
C418 H421 0.929 . S
C419 C418 1.363 . S
C419 C425 1.428 . S
H420 C416 0.930 . S
H421 C418 0.929 . S
S422 N423 1.613 . S
S422 N424 1.610 . S
N423 S422 1.613 . S
N423 C426 1.350 . S
N424 S422 1.610 . S
N424 C425 1.351 . S
C425 C419 1.428 . S
C425 N424 1.351 . S
C425 C426 1.434 . S
C426 C417 1.429 . S
C426 N423 1.350 . S
C426 C425 1.434 . S
C427 C428 1.369 . S
C427 C429 1.419 . S
C427 H431 0.930 . S
C428 C427 1.369 . S
C428 C437 1.429 . S
C429 C427 1.419 . S
C429 C430 1.363 . S
C429 H432 0.929 . S
C430 C429 1.363 . S
C430 C436 1.428 . S
H431 C427 0.930 . S
H432 C429 0.929 . S
S433 N434 1.613 . S
S433 N435 1.610 . S
N434 S433 1.613 . S
N434 C437 1.350 . S
N435 S433 1.610 . S
N435 C436 1.351 . S
C436 C430 1.428 . S
C436 N435 1.351 . S
C436 C437 1.434 . S
C437 C428 1.429 . S
C437 N434 1.350 . S
C437 C436 1.434 . S
C438 C439 1.369 . S
C438 C440 1.419 . S
C438 H442 0.930 . S
C439 C438 1.369 . S
C439 C448 1.429 . S
C440 C438 1.419 . S
C440 C441 1.363 . S
C440 H443 0.929 . S
C441 C440 1.363 . S
C441 C447 1.428 . S
H442 C438 0.930 . S
H443 C440 0.929 . S
S444 N445 1.613 . S
S444 N446 1.610 . S
N445 S444 1.613 . S
N445 C448 1.350 . S
N446 S444 1.610 . S
N446 C447 1.351 . S
C447 C441 1.428 . S
C447 N446 1.351 . S
C447 C448 1.434 . S
C448 C439 1.429 . S
C448 N445 1.350 . S
C448 C447 1.434 . S
C449 C450 1.369 . S
C449 C451 1.419 . S
C449 H453 0.930 . S
C450 C449 1.369 . S
C450 C459 1.429 1_565 S
C451 C449 1.419 . S
C451 C452 1.363 . S
C451 H454 0.929 . S
C452 C451 1.363 . S
C452 C458 1.428 1_565 S
H453 C449 0.930 . S
H454 C451 0.929 . S
S455 N456 1.613 . S
S455 N457 1.610 . S
N456 S455 1.613 . S
N456 C459 1.350 . S
N457 S455 1.610 . S
N457 C458 1.351 . S
C458 C452 1.428 1_545 S
C458 N457 1.351 . S
C458 C459 1.434 . S
C459 C450 1.429 1_545 S
C459 N456 1.350 . S
C459 C458 1.434 . S
C331 C223 1.722 . S
C329 C135 1.677 . S
C340 C15 1.680 . S
C342 C318 1.702 . S
C351 C55 1.674 . S
C353 C234 1.707 . S
C362 C95 1.690 . S
C364 C307 1.726 . S
C375 C218 1.444 . S
C373 C2 1.566 . S
C386 C311 1.645 . S
C384 C42 1.646 . S
C395 C82 1.672 . S
C397 C227 1.692 . S
C406 C141 1.512 . S
C408 C302 1.422 . S
C419 C313 1.444 . S
C417 C61 1.562 . S
C430 C229 1.467 . S
C428 C101 1.593 . S
C441 C300 1.671 . S
C439 C122 1.618 . S
C450 C21 1.713 . S
C452 C216 1.713 . S
