# Generated by pormake.
# Topology anh, (6,3)-cn, num edge types: 1
# Building blocks:
#     Node 0, Type 0, BuildingBlock: BETFAJ_clean_sbu_0, # of connection points: 6
#     Node 1, Type 0, BuildingBlock: BETFAJ_clean_sbu_0, # of connection points: 6
#     Node 2, Type 0, BuildingBlock: BETFAJ_clean_sbu_0, # of connection points: 6
#     Node 3, Type 1, BuildingBlock: OLANEW_clean_sbu_2, # of connection points: 3
#     Node 4, Type 1, BuildingBlock: OLANEW_clean_sbu_2, # of connection points: 3
#     Node 5, Type 1, BuildingBlock: OLANEW_clean_sbu_2, # of connection points: 3
#     Node 6, Type 1, BuildingBlock: OLANEW_clean_sbu_2, # of connection points: 3
#     Node 7, Type 1, BuildingBlock: OLANEW_clean_sbu_2, # of connection points: 3
#     Node 8, Type 1, BuildingBlock: OLANEW_clean_sbu_2, # of connection points: 3
#     Edge 9, Type (0, 1), BuildingBlock: UVAHIK_clean_linker_0, # of connection points: 2
#     Edge 10, Type (0, 1), BuildingBlock: UVAHIK_clean_linker_0, # of connection points: 2
#     Edge 11, Type (0, 1), BuildingBlock: UVAHIK_clean_linker_0, # of connection points: 2
#     Edge 12, Type (0, 1), BuildingBlock: UVAHIK_clean_linker_0, # of connection points: 2
#     Edge 13, Type (0, 1), BuildingBlock: UVAHIK_clean_linker_0, # of connection points: 2
#     Edge 14, Type (0, 1), BuildingBlock: UVAHIK_clean_linker_0, # of connection points: 2
#     Edge 15, Type (0, 1), BuildingBlock: UVAHIK_clean_linker_0, # of connection points: 2
#     Edge 16, Type (0, 1), BuildingBlock: UVAHIK_clean_linker_0, # of connection points: 2
#     Edge 17, Type (0, 1), BuildingBlock: UVAHIK_clean_linker_0, # of connection points: 2
#     Edge 18, Type (0, 1), BuildingBlock: UVAHIK_clean_linker_0, # of connection points: 2
#     Edge 19, Type (0, 1), BuildingBlock: UVAHIK_clean_linker_0, # of connection points: 2
#     Edge 20, Type (0, 1), BuildingBlock: UVAHIK_clean_linker_0, # of connection points: 2
#     Edge 21, Type (0, 1), BuildingBlock: UVAHIK_clean_linker_0, # of connection points: 2
#     Edge 22, Type (0, 1), BuildingBlock: UVAHIK_clean_linker_0, # of connection points: 2
#     Edge 23, Type (0, 1), BuildingBlock: UVAHIK_clean_linker_0, # of connection points: 2
#     Edge 24, Type (0, 1), BuildingBlock: UVAHIK_clean_linker_0, # of connection points: 2
#     Edge 25, Type (0, 1), BuildingBlock: UVAHIK_clean_linker_0, # of connection points: 2
#     Edge 26, Type (0, 1), BuildingBlock: UVAHIK_clean_linker_0, # of connection points: 2
# Relax obj value: 0.114
# Max RMSD: 0.155
# Mean RMSD: 0.110
data_MOF--net-anh--node1-BETFAJ_clean_sbu_0--node2-OLANEW_clean_sbu_2--edge1-UVAHIK_clean_linker_0
_symmetry_space_group_name_H-M    P1
_symmetry_Int_Tables_number       1
_symmetry_cell_setting            triclinic
loop_
_symmetry_equiv_pos_as_xyz
'x, y, z'
_cell_length_a     46.044418
_cell_length_b     50.123327
_cell_length_c     64.920393
_cell_angle_alpha  91.88117
_cell_angle_beta   89.523196
_cell_angle_gamma 128.37376
loop_
_atom_site_label
_atom_site_type_symbol
_atom_site_fract_x
_atom_site_fract_y
_atom_site_fract_z
_atom_type_partial_charge
Sm0 Sm 0.03703 0.49244 0.13614 0.0
Sm1 Sm 1.00131 0.52772 0.15482 0.0
C2 C 0.0668 0.47071 0.11316 0.0
C3 C 0.09787 0.46944 0.11266 0.0
C4 C 0.13349 0.49682 0.11994 0.0
C5 C 0.16234 0.49458 0.11906 0.0
C6 C 0.15597 0.46493 0.1109 0.0
C7 C 0.12007 0.43753 0.1039 0.0
C8 C 0.0914 0.43983 0.10474 0.0
C9 C 0.03397 0.49607 0.17838 0.0
C10 C 0.09076 0.57617 0.14477 0.0
C11 C 0.97439 0.55035 0.17939 0.0
C12 C 0.94325 0.5516 0.1795 0.0
C13 C 0.92243 0.54361 0.19741 0.0
C14 C 0.89357 0.54578 0.198 0.0
C15 C 0.88533 0.55631 0.18072 0.0
C16 C 0.90591 0.56383 0.1627 0.0
C17 C 0.93447 0.56133 0.16205 0.0
C18 C 0.99242 0.51719 0.11225 0.0
C19 C 0.94899 0.44549 0.14494 0.0
O20 O 0.07427 0.5003 0.11093 0.0
O21 O 0.04128 0.45203 0.1268 0.0
O22 O 0.03992 0.51784 0.16616 0.0
O23 O 0.0341 0.47309 0.16861 0.0
O24 O 0.087 0.54988 0.13592 0.0
O25 O 0.06335 0.57317 0.15435 0.0
O26 O 0.96602 0.52027 0.18118 0.0
O27 O 1.00064 0.56938 0.16608 0.0
O28 O 1.00586 0.5091 0.12482 0.0
O29 O 0.98168 0.53229 0.12256 0.0
O30 O 0.95536 0.46998 0.15757 0.0
O31 O 0.97425 0.45046 0.13204 0.0
H32 H 0.13903 0.5199 0.12623 0.0
H33 H 0.18971 0.51621 0.12446 0.0
H34 H 0.11396 0.41408 0.09792 0.0
H35 H 0.06402 0.41835 0.09919 0.0
H36 H 0.92875 0.53602 0.21103 0.0
H37 H 0.87828 0.54001 0.21212 0.0
H38 H 0.8998 0.57153 0.14906 0.0
H39 H 0.94984 0.56728 0.14794 0.0
Sm40 Sm 0.54238 0.01232 0.49726 0.0
Sm41 Sm 0.49505 0.03353 0.48806 0.0
C42 C 0.57155 0.98471 0.51189 0.0
C43 C 0.56309 0.95121 0.51232 0.0
C44 C 0.52646 0.92103 0.51096 0.0
C45 C 0.51896 0.88939 0.51135 0.0
C46 C 0.54802 0.8874 0.51313 0.0
C47 C 0.58471 0.91782 0.51442 0.0
C48 C 0.59213 0.9494 0.514 0.0
C49 C 0.54135 0.02518 0.45664 0.0
C50 C 0.45264 0.9534 0.48642 0.0
C51 C 0.46711 0.06296 0.4748 0.0
C52 C 0.47582 0.0964 0.47803 0.0
C53 C 0.45493 0.10369 0.46783 0.0
C54 C 0.46251 0.13518 0.47121 0.0
C55 C 0.49116 0.15995 0.48488 0.0
C56 C 0.51228 0.15254 0.49492 0.0
C57 C 0.50465 0.12103 0.49153 0.0
C58 C 0.49786 0.02179 0.52879 0.0
C59 C 0.58503 0.0927 0.49742 0.0
O60 O 0.55011 0.98856 0.52263 0.0
O61 O 0.5799 0.99871 0.49395 0.0
O62 O 0.51344 0.00914 0.46809 0.0
O63 O 0.57076 0.03362 0.46621 0.0
O64 O 0.48239 0.96097 0.49594 0.0
O65 O 0.45242 0.97733 0.47878 0.0
O66 O 0.49148 0.06265 0.46454 0.0
O67 O 0.4547 0.0438 0.49084 0.0
O68 O 0.52496 0.03765 0.51688 0.0
O69 O 0.46785 0.01264 0.51964 0.0
O70 O 0.55465 0.08458 0.48853 0.0
O71 O 0.58608 0.06924 0.50506 0.0
H72 H 0.50371 0.92196 0.50964 0.0
H73 H 0.49043 0.86651 0.51008 0.0
H74 H 0.60771 0.91727 0.51612 0.0
H75 H 0.6206 0.97247 0.51509 0.0
H76 H 0.43265 0.08496 0.4573 0.0
H77 H 0.44605 0.14021 0.46303 0.0
H78 H 0.53423 0.17081 0.50573 0.0
H79 H 0.52097 0.11573 0.49961 0.0
Sm80 Sm 0.55619 0.54641 0.85676 0.0
Sm81 Sm 0.50672 0.47296 0.8683 0.0
C82 C 0.58627 0.60542 0.83953 0.0
C83 C 0.57834 0.62959 0.83737 0.0
C84 C 0.54369 0.6188 0.83025 0.0
C85 C 0.53711 0.64234 0.82808 0.0
C86 C 0.56495 0.67713 0.83307 0.0
C87 C 0.59943 0.68767 0.84042 0.0
C88 C 0.60605 0.66417 0.84247 0.0
C89 C 0.55104 0.53722 0.89853 0.0
C90 C 0.46643 0.50651 0.86355 0.0
C91 C 0.47685 0.41307 0.8842 0.0
C92 C 0.48433 0.38858 0.88201 0.0
C93 C 0.46559 0.35984 0.89414 0.0
C94 C 0.47203 0.33605 0.89165 0.0
C95 C 0.4973 0.34063 0.87692 0.0
C96 C 0.51631 0.36982 0.86497 0.0
C97 C 0.50993 0.39358 0.86752 0.0
C98 C 0.5121 0.4826 0.82661 0.0
C99 C 0.59704 0.51355 0.86272 0.0
O100 O 0.56447 0.57596 0.82955 0.0
O101 O 0.59543 0.60306 0.858 0.0
O102 O 0.52435 0.52032 0.88582 0.0
O103 O 0.58146 0.561 0.88952 0.0
O104 O 0.49715 0.5311 0.85427 0.0
O105 O 0.46457 0.48272 0.87321 0.0
O106 O 0.50261 0.44208 0.89368 0.0
O107 O 0.46378 0.4168 0.86769 0.0
O108 O 0.53872 0.49895 0.83936 0.0
O109 O 0.48149 0.45912 0.83553 0.0
O110 O 0.56574 0.48838 0.87124 0.0
O111 O 0.59946 0.53779 0.8533 0.0
H112 H 0.52172 0.59224 0.82624 0.0
H113 H 0.51038 0.6333 0.82214 0.0
H114 H 0.62131 0.71408 0.84479 0.0
H115 H 0.63291 0.67304 0.84808 0.0
H116 H 0.44587 0.3557 0.90547 0.0
H117 H 0.45732 0.31417 0.90133 0.0
H118 H 0.53555 0.37399 0.85329 0.0
H119 H 0.52464 0.41568 0.858 0.0
O120 O 0.54822 0.04333 0.22495 0.0
Cd121 Cd 0.54921 0.04345 0.18729 0.0
O122 O 0.48888 1.00009 0.22779 0.0
Cd123 Cd 0.47603 0.98248 0.19549 0.0
O124 O 0.43788 0.93623 0.17634 0.0
C125 C 0.43035 0.90923 0.18341 0.0
O126 O 0.44734 0.91167 0.20038 0.0
C127 C 0.51998 0.02402 0.23608 0.0
C128 C 0.61069 0.10759 0.17489 0.0
O129 O 0.57985 0.10157 0.17888 0.0
O130 O 0.61232 0.0831 0.17636 0.0
O131 O 0.56183 0.5269 0.59636 0.0
Cd132 Cd 0.56386 0.52997 0.5588 0.0
O133 O 0.50878 0.51817 0.59832 0.0
Cd134 Cd 0.51192 0.53613 0.56753 0.0
O135 O 0.51452 0.57376 0.54957 0.0
C136 C 0.49184 0.57924 0.55462 0.0
O137 O 0.46769 0.56092 0.56904 0.0
C138 C 0.53449 0.51963 0.60689 0.0
C139 C 0.55371 0.47269 0.54168 0.0
O140 O 0.58622 0.50027 0.54603 0.0
O141 O 0.52605 0.47241 0.54507 0.0
O142 O 0.06284 0.50512 0.8891 0.0
Cd143 Cd 0.09003 0.50574 0.85604 0.0
O144 O 0.01905 0.50788 0.87903 0.0
Cd145 Cd 0.97015 0.5068 0.88217 0.0
O146 O 0.92008 0.50403 0.88195 0.0
C147 C 0.9204 0.52672 0.87337 0.0
O148 O 0.95114 0.55211 0.86483 0.0
C149 C 0.03634 0.506 0.89344 0.0
C150 C 0.15161 0.50645 0.85991 0.0
O151 O 0.15587 0.53416 0.85864 0.0
O152 O 0.11838 0.47846 0.85965 0.0
O153 O 0.04998 0.53479 0.41045 0.0
Cd154 Cd 0.05432 0.54162 0.44802 0.0
O155 O 0.98942 0.49482 0.40785 0.0
Cd156 Cd 0.97688 0.48323 0.44039 0.0
O157 O 0.93648 0.44273 0.46089 0.0
C158 C 0.90333 0.4322 0.45945 0.0
O159 O 0.89609 0.44777 0.44715 0.0
C160 C 0.02071 0.51541 0.39942 0.0
C161 C 0.11824 0.60718 0.45892 0.0
O162 O 0.11883 0.58195 0.45758 0.0
O163 O 0.08732 0.60129 0.45551 0.0
O164 O 0.49169 0.97429 0.75744 0.0
Cd165 Cd 0.49345 0.97129 0.79489 0.0
O166 O 0.54076 0.02839 0.75742 0.0
Cd167 Cd 0.53757 0.03873 0.79 0.0
O168 O 0.53059 0.06898 0.81146 0.0
C169 C 0.5564 0.10097 0.81277 0.0
O170 O 0.58692 0.11391 0.80243 0.0
C171 C 0.51657 1.00051 0.74764 0.0
C172 C 0.50482 0.92426 0.80431 0.0
O173 O 0.47204 0.91524 0.80296 0.0
O174 O 0.53218 0.95557 0.80155 0.0
O175 O 0.53233 0.58493 0.12594 0.0
Cd176 Cd 0.53995 0.59204 0.16334 0.0
O177 O 0.50517 0.53081 0.12935 0.0
Cd178 Cd 0.48396 0.48026 0.11768 0.0
O179 O 0.46018 0.42967 0.10469 0.0
C180 C 0.42704 0.40879 0.09787 0.0
O181 O 0.41613 0.38 0.08887 0.0
C182 C 0.51749 0.55565 0.11775 0.0
C183 C 0.59628 0.58877 0.17366 0.0
O184 O 0.56224 0.56208 0.17368 0.0
O185 O 0.6035 0.6171 0.16939 0.0
C186 C 0.21242 0.47471 0.12576 0.0
C187 C 0.18638 0.46227 0.10958 0.0
C188 C 0.23976 0.4705 0.12479 0.0
C189 C 0.25896 0.41604 0.09964 0.0
H190 H 0.36096 0.48822 0.11621 0.0
C191 C 0.37434 0.40506 0.0838 0.0
C192 C 0.40121 0.41689 0.09932 0.0
C193 C 0.34908 0.41173 0.08527 0.0
C194 C 0.3325 0.46769 0.11174 0.0
H195 H 0.16984 0.43709 0.07929 0.0
H196 H 0.21719 0.42959 0.0777 0.0
H197 H 0.31525 0.49808 0.11855 0.0
H198 H 0.42156 0.44353 0.12906 0.0
H199 H 0.3778 0.45559 0.13155 0.0
H200 H 0.27592 0.38554 0.09294 0.0
C201 C 0.21607 0.442 0.09131 0.0
C202 C 0.30634 0.47335 0.11308 0.0
C203 C 0.1889 0.44629 0.09223 0.0
C204 C 0.40214 0.43527 0.11646 0.0
C205 C 0.37686 0.44196 0.11795 0.0
C206 C 0.28502 0.41035 0.09836 0.0
C207 C 0.24155 0.45368 0.10766 0.0
C208 C 0.26934 0.44766 0.10687 0.0
C209 C 0.3499 0.43011 0.10241 0.0
C210 C 0.32217 0.43617 0.10423 0.0
H211 H 0.21106 0.48686 0.13943 0.0
H212 H 0.25884 0.47957 0.13771 0.0
H213 H 0.23052 0.39549 0.09513 0.0
H214 H 0.37297 0.39078 0.07043 0.0
H215 H 0.32901 0.40261 0.07289 0.0
C216 C 0.65257 0.13841 0.50583 0.0
C217 C 0.61856 0.12892 0.49851 0.0
C218 C 0.68458 0.17242 0.50564 0.0
C219 C 0.7172 0.26088 0.50133 0.0
H220 H 0.80585 0.27827 0.47933 0.0
C221 C 0.83597 0.38869 0.46702 0.0
C222 C 0.8726 0.40053 0.46937 0.0
C223 C 0.80639 0.35703 0.4743 0.0
C224 C 0.7816 0.27396 0.48588 0.0
H225 H 0.59139 0.14801 0.4858 0.0
H226 H 0.64704 0.207 0.48536 0.0
H227 H 0.75143 0.21997 0.48523 0.0
H228 H 0.90697 0.38899 0.48205 0.0
H229 H 0.85523 0.33375 0.49492 0.0
H230 H 0.74713 0.31484 0.50154 0.0
C231 C 0.64901 0.18829 0.49141 0.0
C232 C 0.75035 0.24048 0.48925 0.0
C233 C 0.6171 0.15434 0.49153 0.0
C234 C 0.87907 0.38057 0.47992 0.0
C235 C 0.84941 0.34881 0.48718 0.0
C236 C 0.74847 0.29436 0.49798 0.0
C237 C 0.68323 0.19771 0.49824 0.0
C238 C 0.71754 0.23349 0.49664 0.0
C239 C 0.81266 0.33639 0.48411 0.0
C240 C 0.78082 0.30126 0.48984 0.0
H241 H 0.65467 0.11951 0.51137 0.0
H242 H 0.71043 0.1789 0.51121 0.0
H243 H 0.69257 0.25641 0.50739 0.0
H244 H 0.82996 0.4034 0.459 0.0
H245 H 0.77847 0.34816 0.47145 0.0
C246 C 0.52365 0.69415 0.83489 0.0
C247 C 0.55829 0.7024 0.83043 0.0
C248 C 0.5175 0.71791 0.83232 0.0
C249 C 0.55536 0.79817 0.80598 0.0
H250 H 0.49512 0.80407 0.84497 0.0
C251 C 0.54645 0.90815 0.80679 0.0
C252 C 0.51089 0.89911 0.8084 0.0
C253 C 0.55199 0.8841 0.80981 0.0
C254 C 0.51177 0.80253 0.83387 0.0
H255 H 0.61349 0.74225 0.81952 0.0
H256 H 0.60323 0.78391 0.8158 0.0
H257 H 0.50531 0.76229 0.84957 0.0
H258 H 0.45335 0.85782 0.81481 0.0
H259 H 0.46314 0.81589 0.82025 0.0
H260 H 0.56222 0.83878 0.79049 0.0
C261 C 0.58054 0.75887 0.82095 0.0
C262 C 0.51754 0.77851 0.83645 0.0
C263 C 0.58661 0.73507 0.82338 0.0
C264 C 0.4811 0.86561 0.81345 0.0
C265 C 0.48672 0.84163 0.81666 0.0
C266 C 0.54983 0.82234 0.80351 0.0
C267 C 0.54588 0.75062 0.82532 0.0
C268 C 0.53944 0.77602 0.82254 0.0
C269 C 0.52217 0.85053 0.8147 0.0
C270 C 0.528 0.82481 0.81742 0.0
H271 H 0.50129 0.66941 0.84057 0.0
H272 H 0.49031 0.71046 0.83562 0.0
H273 H 0.57176 0.7966 0.79472 0.0
H274 H 0.57001 0.93374 0.80294 0.0
H275 H 0.57971 0.89183 0.80843 0.0
C276 C 0.82102 0.53459 0.1897 0.0
C277 C 0.85584 0.56008 0.18151 0.0
C278 C 0.79308 0.53801 0.18999 0.0
C279 C 0.76594 0.58566 0.16545 0.0
H280 H 0.6979 0.55333 0.211 0.0
C281 C 0.66342 0.61464 0.17357 0.0
C282 C 0.62646 0.58665 0.17733 0.0
C283 C 0.69165 0.61185 0.17531 0.0
C284 C 0.71661 0.56229 0.19813 0.0
H285 H 0.8892 0.6096 0.16786 0.0
H286 H 0.84093 0.616 0.16875 0.0
H287 H 0.74694 0.54772 0.21164 0.0
H288 H 0.59031 0.53413 0.18658 0.0
H289 H 0.63982 0.52943 0.18983 0.0
H290 H 0.73589 0.60062 0.1521 0.0
C291 C 0.83466 0.59287 0.17441 0.0
C292 C 0.74462 0.55898 0.19844 0.0
C293 C 0.8624 0.58929 0.17395 0.0
C294 C 0.61851 0.55615 0.18355 0.0
C295 C 0.64684 0.55348 0.1855 0.0
C296 C 0.73822 0.58925 0.16525 0.0
C297 C 0.79951 0.56715 0.18226 0.0
C298 C 0.76965 0.57063 0.18208 0.0
C299 C 0.68359 0.58113 0.18105 0.0
C300 C 0.71327 0.57761 0.18157 0.0
H301 H 0.81513 0.51168 0.19548 0.0
H302 H 0.76623 0.51747 0.19588 0.0
H303 H 0.78413 0.59424 0.15237 0.0
H304 H 0.67049 0.6385 0.16877 0.0
H305 H 0.71981 0.6337 0.17203 0.0
C306 C 0.41957 0.89062 0.4888 0.0
C307 C 0.41881 0.9174 0.48422 0.0
C308 C 0.38741 0.85673 0.48691 0.0
C309 C 0.28558 0.80381 0.48607 0.0
H310 H 0.28872 0.73561 0.45891 0.0
C311 C 0.1525 0.67018 0.46231 0.0
C312 C 0.15245 0.64223 0.46363 0.0
C313 C 0.18512 0.70339 0.46582 0.0
C314 C 0.2874 0.75417 0.46683 0.0
H315 H 0.38347 0.92945 0.47405 0.0
H316 H 0.32751 0.87046 0.47082 0.0
H317 H 0.34551 0.79409 0.46316 0.0
H318 H 0.18654 0.62723 0.47011 0.0
H319 H 0.24325 0.68508 0.47669 0.0
H320 H 0.22763 0.76403 0.48991 0.0
C321 C 0.35295 0.87568 0.47598 0.0
C322 C 0.31998 0.78773 0.46921 0.0
C323 C 0.38513 0.90949 0.47769 0.0
C324 C 0.18566 0.64821 0.46888 0.0
C325 C 0.21826 0.68143 0.47251 0.0
C326 C 0.25306 0.77023 0.48382 0.0
C327 C 0.35369 0.8489 0.48058 0.0
C328 C 0.31937 0.81298 0.47869 0.0
C329 C 0.21849 0.7095 0.47087 0.0
C330 C 0.25345 0.745 0.47401 0.0
H331 H 0.445 0.89574 0.49377 0.0
H332 H 0.38882 0.83667 0.49069 0.0
H333 H 0.28432 0.82258 0.49374 0.0
H334 H 0.12745 0.6665 0.4582 0.0
H335 H 0.18428 0.72432 0.46409 0.0
C336 C 0.53873 0.3248 0.86945 0.0
C337 C 0.50324 0.31476 0.87366 0.0
C338 C 0.54401 0.30051 0.86543 0.0
C339 C 0.49294 0.21051 0.84807 0.0
H340 H 0.58218 0.22548 0.86627 0.0
C341 C 0.5159 0.11092 0.8317 0.0
C342 C 0.55074 0.12378 0.82378 0.0
C343 C 0.50972 0.13302 0.84018 0.0
C344 C 0.55718 0.22101 0.86101 0.0
H345 H 0.44551 0.27106 0.87714 0.0
H346 H 0.45488 0.22877 0.87072 0.0
H347 H 0.57194 0.26627 0.87662 0.0
H348 H 0.60678 0.16984 0.81933 0.0
H349 H 0.59599 0.20825 0.8341 0.0
H350 H 0.47834 0.1654 0.83234 0.0
C351 C 0.47859 0.25547 0.8702 0.0
C352 C 0.55134 0.24443 0.86689 0.0
C353 C 0.47329 0.27977 0.87416 0.0
C354 C 0.5796 0.15907 0.82526 0.0
C355 C 0.57347 0.18111 0.83383 0.0
C356 C 0.49872 0.18704 0.84227 0.0
C357 C 0.51395 0.26551 0.86559 0.0
C358 C 0.51932 0.23968 0.86031 0.0
C359 C 0.53829 0.16841 0.84106 0.0
C360 C 0.53108 0.19219 0.84848 0.0
H361 H 0.56253 0.35151 0.86921 0.0
H362 H 0.57157 0.30923 0.86173 0.0
H363 H 0.46826 0.20627 0.84242 0.0
H364 H 0.49308 0.08387 0.83086 0.0
H365 H 0.48243 0.12241 0.84587 0.0
C366 C 0.56306 0.84808 0.50388 0.0
C367 C 0.54017 0.85383 0.51401 0.0
C368 C 0.55653 0.817 0.50539 0.0
C369 C 0.485 0.7271 0.5191 0.0
H370 H 0.5693 0.7296 0.53016 0.0
C371 C 0.47006 0.61403 0.55234 0.0
C372 C 0.49461 0.60773 0.54596 0.0
C373 C 0.47435 0.64251 0.54571 0.0
C374 C 0.54549 0.72833 0.52672 0.0
H375 H 0.49235 0.8312 0.53365 0.0
H376 H 0.48093 0.77702 0.53622 0.0
H377 H 0.5792 0.7823 0.52376 0.0
H378 H 0.54218 0.62583 0.52695 0.0
H379 H 0.54946 0.67546 0.51518 0.0
H380 H 0.45124 0.67318 0.52237 0.0
C381 C 0.50365 0.7964 0.52687 0.0
C382 C 0.55117 0.75859 0.52307 0.0
C383 C 0.51021 0.8275 0.5254 0.0
C384 C 0.52288 0.63001 0.53223 0.0
C385 C 0.52719 0.65857 0.52559 0.0
C386 C 0.47932 0.69683 0.52271 0.0
C387 C 0.52691 0.79087 0.51703 0.0
C388 C 0.52096 0.7584 0.51951 0.0
C389 C 0.50329 0.66542 0.53249 0.0
C390 C 0.50946 0.69713 0.52686 0.0
H391 H 0.58599 0.86758 0.49469 0.0
H392 H 0.57464 0.81338 0.49738 0.0
H393 H 0.46118 0.726 0.51605 0.0
H394 H 0.44797 0.59741 0.56291 0.0
H395 H 0.45571 0.64717 0.55154 0.0
C396 C 0.6273 0.4878 0.87285 0.0
C397 C 0.62975 0.5141 0.86355 0.0
C398 C 0.65812 0.48842 0.87385 0.0
C399 C 0.74972 0.52741 0.85011 0.0
H400 H 0.7692 0.49959 0.89976 0.0
C401 C 0.8877 0.55 0.86315 0.0
C402 C 0.88664 0.52456 0.87262 0.0
C403 C 0.85607 0.54806 0.86209 0.0
C404 C 0.76397 0.50705 0.88567 0.0
H405 H 0.66683 0.56171 0.84797 0.0
H406 H 0.72053 0.56295 0.84987 0.0
H407 H 0.71492 0.49747 0.89772 0.0
H408 H 0.85115 0.47707 0.88848 0.0
H409 H 0.79584 0.47351 0.88648 0.0
H410 H 0.79873 0.53702 0.83805 0.0
C411 C 0.69463 0.54157 0.85619 0.0
C412 C 0.73277 0.50584 0.8845 0.0
C413 C 0.66382 0.54096 0.8552 0.0
C414 C 0.85305 0.49717 0.88111 0.0
C415 C 0.82134 0.49523 0.88005 0.0
C416 C 0.78088 0.5286 0.85128 0.0
C417 C 0.69227 0.51534 0.86556 0.0
C418 C 0.72527 0.51614 0.86673 0.0
C419 C 0.82237 0.5206 0.87045 0.0
C420 C 0.78859 0.51859 0.86911 0.0
H421 H 0.60151 0.46658 0.87936 0.0
H422 H 0.65502 0.46753 0.88092 0.0
H423 H 0.74456 0.53496 0.83604 0.0
H424 H 0.91306 0.57158 0.85652 0.0
H425 H 0.85821 0.5684 0.85489 0.0
C426 C 0.13229 0.63833 0.15466 0.0
C427 C 0.12749 0.61043 0.14474 0.0
C428 C 0.16674 0.6706 0.15505 0.0
C429 C 0.26664 0.71412 0.15062 0.0
H430 H 0.27167 0.79411 0.14828 0.0
C431 C 0.3904 0.84567 0.18335 0.0
C432 C 0.40027 0.87524 0.17416 0.0
C433 C 0.35968 0.81349 0.17615 0.0
C434 C 0.27099 0.77214 0.14863 0.0
H435 H 0.15539 0.59488 0.12722 0.0
H436 H 0.21566 0.65152 0.12778 0.0
H437 H 0.21282 0.73792 0.14192 0.0
H438 H 0.38661 0.89405 0.14949 0.0
H439 H 0.33321 0.83773 0.13668 0.0
H440 H 0.32491 0.74842 0.15728 0.0
C441 C 0.19268 0.64819 0.13544 0.0
C442 C 0.23707 0.73983 0.14526 0.0
C443 C 0.15808 0.61575 0.13506 0.0
C444 C 0.37961 0.87179 0.15701 0.0
C445 C 0.34887 0.83951 0.14974 0.0
C446 C 0.30064 0.74648 0.15392 0.0
C447 C 0.19741 0.676 0.14549 0.0
C448 C 0.23427 0.71037 0.14671 0.0
C449 C 0.33809 0.80998 0.1595 0.0
C450 C 0.30308 0.77587 0.15344 0.0
H451 H 0.1095 0.6353 0.16235 0.0
H452 H 0.16947 0.69122 0.16328 0.0
H453 H 0.26551 0.69201 0.15193 0.0
H454 H 0.40569 0.84734 0.19659 0.0
H455 H 0.35201 0.79144 0.18424 0.0
C456 C 0.53504 0.22354 0.49105 0.0
C457 C 0.49853 0.19308 0.48897 0.0
C458 C 0.54187 0.25452 0.4954 0.0
C459 C 0.49832 0.29657 0.49382 0.0
H460 H 0.57425 0.35928 0.53446 0.0
C461 C 0.51235 0.41127 0.52975 0.0
C462 C 0.54822 0.44181 0.53361 0.0
C463 C 0.50708 0.38169 0.52308 0.0
C464 C 0.5533 0.3423 0.52286 0.0
H465 H 0.44059 0.17142 0.49001 0.0
H466 H 0.4525 0.22539 0.49756 0.0
H467 H 0.56371 0.30639 0.52509 0.0
H468 H 0.60673 0.46537 0.53304 0.0
H469 H 0.59755 0.4139 0.52119 0.0
H470 H 0.48774 0.3324 0.4917 0.0
C471 C 0.47588 0.22541 0.49551 0.0
C472 C 0.54724 0.31195 0.51749 0.0
C473 C 0.46905 0.19444 0.49117 0.0
C474 C 0.57872 0.44224 0.5303 0.0
C475 C 0.57344 0.41267 0.52362 0.0
C476 C 0.50439 0.32695 0.49918 0.0
C477 C 0.51237 0.25582 0.49778 0.0
C478 C 0.51954 0.28861 0.50299 0.0
C479 C 0.53754 0.38195 0.5201 0.0
C480 C 0.53183 0.35012 0.51385 0.0
H481 H 0.5584 0.22351 0.48913 0.0
H482 H 0.57031 0.27754 0.49674 0.0
H483 H 0.47715 0.27941 0.48235 0.0
H484 H 0.48824 0.41002 0.53219 0.0
H485 H 0.47903 0.35841 0.52075 0.0
C486 C 0.39922 0.47811 0.87029 0.0
C487 C 0.43405 0.50644 0.86359 0.0
C488 C 0.36873 0.47805 0.87018 0.0
C489 C 0.34361 0.53519 0.87073 0.0
H490 H 0.24861 0.45553 0.84955 0.0
C491 C 0.22011 0.53665 0.85798 0.0
C492 C 0.18403 0.50669 0.86125 0.0
C493 C 0.25052 0.53663 0.8586 0.0
C494 C 0.27472 0.47785 0.85584 0.0
H495 H 0.46404 0.5571 0.85167 0.0
H496 H 0.411 0.55704 0.85167 0.0
H497 H 0.30139 0.45534 0.85022 0.0
H498 H 0.15183 0.45331 0.86812 0.0
H499 H 0.20475 0.45343 0.86981 0.0
H500 H 0.31702 0.55758 0.87671 0.0
C501 C 0.40728 0.53487 0.85702 0.0
C502 C 0.30507 0.47774 0.85615 0.0
C503 C 0.43766 0.53479 0.85691 0.0
C504 C 0.1792 0.47681 0.86541 0.0
C505 C 0.20963 0.47685 0.86622 0.0
C506 C 0.31318 0.53519 0.87062 0.0
C507 C 0.37239 0.50646 0.8636 0.0
C508 C 0.33995 0.50644 0.86352 0.0
C509 C 0.24578 0.5067 0.86269 0.0
C510 C 0.27825 0.50656 0.8631 0.0
H511 H 0.39539 0.45583 0.87552 0.0
H512 H 0.34235 0.45587 0.87552 0.0
H513 H 0.36996 0.55756 0.87677 0.0
H514 H 0.22486 0.56009 0.85461 0.0
H515 H 0.2777 0.56002 0.85546 0.0
C516 C 0.90816 0.38246 0.13751 0.0
C517 C 0.91265 0.41113 0.14572 0.0
C518 C 0.87448 0.34979 0.13935 0.0
C519 C 0.78818 0.30228 0.17002 0.0
H520 H 0.75346 0.23161 0.12775 0.0
C521 C 0.64415 0.17021 0.17235 0.0
C522 C 0.64377 0.14208 0.16945 0.0
C523 C 0.67606 0.20307 0.16836 0.0
C524 C 0.76294 0.25109 0.13971 0.0
H525 H 0.88484 0.4281 0.16163 0.0
H526 H 0.82583 0.37142 0.1642 0.0
H527 H 0.81031 0.28913 0.1225 0.0
H528 H 0.67629 0.12628 0.15956 0.0
H529 H 0.73188 0.1837 0.1523 0.0
H530 H 0.74037 0.26422 0.18703 0.0
C531 C 0.8486 0.37391 0.15692 0.0
C532 C 0.79561 0.28405 0.13677 0.0
C533 C 0.88242 0.40651 0.15532 0.0
C534 C 0.67571 0.14743 0.16198 0.0
C535 C 0.70748 0.18026 0.15773 0.0
C536 C 0.75531 0.26947 0.17282 0.0
C537 C 0.84428 0.34502 0.14922 0.0
C538 C 0.80883 0.31008 0.15195 0.0
C539 C 0.70811 0.20846 0.16113 0.0
C540 C 0.74246 0.24349 0.15776 0.0
H541 H 0.93098 0.38511 0.13014 0.0
H542 H 0.87252 0.32824 0.1335 0.0
H543 H 0.79775 0.32133 0.18228 0.0
H544 H 0.62001 0.16697 0.17809 0.0
H545 H 0.67567 0.22431 0.17095 0.0
C546 C 0.98204 0.52848 0.07692 0.0
C547 C 0.9928 0.51378 0.08964 0.0
C548 C 0.98414 0.52656 0.05547 0.0
C549 C 0.03234 0.51395 0.01542 0.0
H550 H 0.95668 0.4979 0.97855 0.0
C551 C 0.03273 0.48738 0.92907 0.0
C552 C 0.02608 0.50416 0.91531 0.0
C553 C 0.02626 0.48757 0.95007 0.0
C554 C 0.97818 0.50273 0.98866 0.0
H555 H 0.01281 0.48449 0.09007 0.0
H556 H 0.01624 0.48084 0.05269 0.0
H557 H 0.94972 0.49982 0.01586 0.0
H558 H 0.00776 0.53468 0.91289 0.0
H559 H 0.99598 0.53472 0.94971 0.0
H560 H 0.06083 0.51689 0.98838 0.0
C561 C 1.0069 0.49447 0.05919 0.0
C562 C 0.97422 0.50383 0.01002 0.0
C563 C 1.00482 0.49643 0.0806 0.0
C564 C 0.01212 0.52067 0.92298 0.0
C565 C 1.00563 0.52089 0.9441 0.0
C566 C 0.03626 0.51281 0.99416 0.0
C567 C 0.99702 0.50987 0.04637 0.0
C568 C 1.00115 0.50919 0.02365 0.0
C569 C 0.01323 0.50479 0.95791 0.0
C570 C 0.0091 0.50689 0.98051 0.0
H571 H 0.97263 0.54199 0.08356 0.0
H572 H 0.97659 0.53891 0.04605 0.0
H573 H 0.05403 0.51893 0.02544 0.0
H574 H 0.04331 0.47426 0.92362 0.0
H575 H 0.03175 0.47438 0.96022 0.0
C576 C 0.57276 0.04876 0.42316 0.0
C577 C 0.53991 0.02947 0.43441 0.0
C578 C 0.57161 0.05166 0.40191 0.0
C579 C 0.51045 0.03848 0.35897 0.0
H580 H 0.57707 0.03315 0.3256 0.0
C581 C 0.4914 0.01011 0.27102 0.0
C582 C 0.52326 0.02869 0.25883 0.0
C583 C 0.49439 0.01329 0.29251 0.0
C584 C 0.55863 0.03513 0.33472 0.0
H585 H 0.48013 0.9987 0.43248 0.0
H586 H 0.47793 0.00299 0.39525 0.0
H587 H 0.5802 0.0327 0.36298 0.0
H588 H 0.58326 0.06566 0.25972 0.0
H589 H 0.58842 0.07102 0.29729 0.0
H590 H 0.48828 0.03998 0.33053 0.0
C591 C 0.50469 0.01639 0.40283 0.0
C592 C 0.56043 0.03493 0.35617 0.0
C593 C 0.50588 0.01371 0.42414 0.0
C594 C 0.55817 0.05094 0.26864 0.0
C595 C 0.56116 0.0539 0.29015 0.0
C596 C 0.50848 0.03844 0.33749 0.0
C597 C 0.53754 0.03511 0.39141 0.0
C598 C 0.53627 0.03646 0.36859 0.0
C599 C 0.52931 0.03492 0.30231 0.0
C600 C 0.53244 0.0366 0.32513 0.0
H601 H 0.59941 0.06147 0.43075 0.0
H602 H 0.59749 0.06686 0.39371 0.0
H603 H 0.49182 0.04025 0.36805 0.0
H604 H 0.46407 0.9928 0.26399 0.0
H605 H 0.46937 0.99809 0.30146 0.0
C606 C 0.55083 0.50735 0.7951 0.0
C607 C 0.51579 0.48688 0.80415 0.0
C608 C 0.55399 0.51042 0.77369 0.0
C609 C 0.49913 0.46828 0.72502 0.0
H610 H 0.57806 0.55425 0.70136 0.0
C611 C 0.49977 0.49876 0.63994 0.0
C612 C 0.53301 0.51391 0.62923 0.0
C613 C 0.49856 0.49446 0.66117 0.0
C614 C 0.5561 0.53 0.70777 0.0
H615 H 0.45664 0.45437 0.79815 0.0
H616 H 0.46199 0.46058 0.76099 0.0
H617 H 0.57416 0.54945 0.73873 0.0
H618 H 0.59102 0.53633 0.6324 0.0
H619 H 0.58895 0.52927 0.66963 0.0
H620 H 0.48048 0.44929 0.69399 0.0
C621 C 0.48712 0.47343 0.77019 0.0
C622 C 0.55388 0.52718 0.72919 0.0
C623 C 0.48401 0.47005 0.79153 0.0
C624 C 0.56497 0.52449 0.6402 0.0
C625 C 0.56387 0.52064 0.6615 0.0
C626 C 0.50109 0.47126 0.70365 0.0
C627 C 0.52214 0.49339 0.76094 0.0
C628 C 0.52522 0.49631 0.73811 0.0
C629 C 0.53066 0.50565 0.67218 0.0
C630 C 0.52948 0.50218 0.69482 0.0
H631 H 0.57579 0.52056 0.80452 0.0
H632 H 0.58139 0.52568 0.76715 0.0
H633 H 0.47718 0.44387 0.73126 0.0
H634 H 0.47465 0.49029 0.63195 0.0
H635 H 0.47266 0.48305 0.66906 0.0
C636 C 0.46857 0.9953 0.56232 0.0
C637 C 0.50067 0.01701 0.55076 0.0
C638 C 0.47129 0.99135 0.58327 0.0
C639 C 0.5316 0.03646 0.62806 0.0
H640 H 0.47575 0.94776 0.65222 0.0
C641 C 0.54836 0.02441 0.71411 0.0
C642 C 0.51647 0.99928 0.72484 0.0
C643 C 0.54767 0.02475 0.69261 0.0
C644 C 0.49119 0.97275 0.6458 0.0
H645 H 0.56072 0.05125 0.5518 0.0
H646 H 0.56545 0.04492 0.58856 0.0
H647 H 0.47149 0.95174 0.61512 0.0
H648 H 0.45897 0.95445 0.72144 0.0
H649 H 0.45725 0.95574 0.68403 0.0
H650 H 0.55022 0.05773 0.65858 0.0
C651 C 0.53825 0.0309 0.5814 0.0
C652 C 0.48884 0.97497 0.62454 0.0
C653 C 0.53554 0.03444 0.5604 0.0
C654 C 0.48407 0.97405 0.7136 0.0
C655 C 0.48317 0.97471 0.6921 0.0
C656 C 0.53352 0.03429 0.64933 0.0
C657 C 0.50616 0.00944 0.59305 0.0
C658 C 0.50905 0.00685 0.61549 0.0
C659 C 0.51486 1.00034 0.68132 0.0
C660 C 0.51337 0.00241 0.65852 0.0
H661 H 0.44137 0.98147 0.5552 0.0
H662 H 0.44614 0.97481 0.59195 0.0
H663 H 0.54707 0.06137 0.6215 0.0
H664 H 0.57389 0.04399 0.72233 0.0
H665 H 0.57289 0.04436 0.68489 0.0
C666 C 0.51257 0.50915 0.92975 0.0
C667 C 0.54661 0.53522 0.92109 0.0
C668 C 0.508 0.50829 0.95112 0.0
C669 C 0.56135 0.54431 0.00066 0.0
H670 H 0.46934 0.52059 0.02207 0.0
C671 C 0.54851 0.57746 0.08404 0.0
C672 C 0.51788 0.5515 0.09516 0.0
C673 C 0.55051 0.57318 0.06286 0.0
C674 C 0.49502 0.52692 0.0163 0.0
H675 H 0.60268 0.58057 0.92787 0.0
H676 H 0.59459 0.57969 0.96499 0.0
H677 H 0.47605 0.51699 0.98495 0.0
H678 H 0.46418 0.5016 0.0927 0.0
H679 H 0.46766 0.49403 0.05551 0.0
H680 H 0.58063 0.55522 0.03201 0.0
C681 C 0.57154 0.55943 0.95546 0.0
C682 C 0.49887 0.52476 0.99504 0.0
C683 C 0.57615 0.56011 0.93414 0.0
C684 C 0.48857 0.52162 0.08458 0.0
C685 C 0.49037 0.51746 0.06329 0.0
C686 C 0.55761 0.54679 0.02186 0.0
C687 C 0.53735 0.53363 0.96424 0.0
C688 C 0.53227 0.53382 0.98693 0.0
C689 C 0.52165 0.54303 0.05229 0.0
C690 C 0.52459 0.5385 0.02988 0.0
H691 H 0.48939 0.48951 0.92001 0.0
H692 H 0.48148 0.48774 0.95734 0.0
H693 H 0.58714 0.55073 0.99505 0.0
H694 H 0.57141 0.6008 0.09181 0.0
H695 H 0.57466 0.59353 0.05472 0.0
C696 C 0.03282 0.52503 0.21009 0.0
C697 C 0.03205 0.4988 0.20095 0.0
C698 C 0.03177 0.528 0.23152 0.0
C699 C 0.05239 0.50531 0.27946 0.0
H700 H 0.98806 0.5219 0.30472 0.0
C701 C 0.05737 0.53444 0.36684 0.0
C702 C 0.02291 0.51616 0.37663 0.0
C703 C 0.0592 0.53393 0.34533 0.0
C704 C 1.00611 0.51722 0.29788 0.0
H705 H 0.02934 0.45503 0.2069 0.0
H706 H 0.02772 0.46031 0.24437 0.0
H707 H 0.98924 0.51707 0.26718 0.0
H708 H 0.96338 0.48359 0.37145 0.0
H709 H 0.9667 0.48289 0.33398 0.0
H710 H 0.06899 0.5051 0.31013 0.0
C711 C 0.02933 0.47867 0.235 0.0
C712 C 1.00701 0.51472 0.2764 0.0
C713 C 0.03006 0.47553 0.21357 0.0
C714 C 0.9904 0.49792 0.36442 0.0
C715 C 0.99226 0.49765 0.34294 0.0
C716 C 0.05174 0.50811 0.30091 0.0
C717 C 0.03029 0.50499 0.24421 0.0
C718 C 0.02994 0.50848 0.26698 0.0
C719 C 0.02665 0.51541 0.33316 0.0
C720 C 0.02841 0.51385 0.31036 0.0
H721 H 0.03449 0.54339 0.2007 0.0
H722 H 0.03282 0.54869 0.23819 0.0
H723 H 0.07062 0.50084 0.27262 0.0
H724 H 0.08294 0.54877 0.37577 0.0
H725 H 0.08612 0.54812 0.3382 0.0
loop_
_geom_bond_atom_site_label_1
_geom_bond_atom_site_label_2
_geom_bond_distance
_geom_bond_site_symmetry_2
_ccdc_geom_bond_type
Sm0 C2 2.846 . S
Sm0 O20 2.543 . S
Sm0 O21 2.450 . S
Sm0 O22 2.681 . S
Sm0 O23 2.464 . S
Sm0 O24 2.396 . S
Sm0 O28 2.386 . S
Sm0 O31 2.408 1_455 S
Sm1 C11 2.846 . S
Sm1 O22 2.386 1_655 S
Sm1 O25 2.408 1_655 S
Sm1 O26 2.543 . S
Sm1 O27 2.450 . S
Sm1 O28 2.681 1_655 S
Sm1 O29 2.459 1_655 S
Sm1 O30 2.396 . S
C2 Sm0 2.846 . S
C2 C3 1.506 . S
C2 O20 1.261 . S
C2 O21 1.242 . S
C3 C2 1.506 . S
C3 C4 1.358 . S
C3 C8 1.382 . S
C4 C3 1.358 . S
C4 C5 1.385 . S
C4 H32 0.930 . S
C5 C4 1.385 . S
C5 C6 1.395 . S
C5 H33 0.929 . S
C6 C5 1.395 . S
C6 C7 1.335 . S
C7 C6 1.335 . S
C7 C8 1.398 . S
C7 H34 0.930 . S
C8 C3 1.382 . S
C8 C7 1.398 . S
C8 H35 0.929 . S
C9 O22 1.271 . S
C9 O23 1.251 . S
C10 O24 1.252 . S
C10 O25 1.272 . S
C11 Sm1 2.846 . S
C11 C12 1.506 . S
C11 O26 1.261 . S
C11 O27 1.242 . S
C12 C11 1.506 . S
C12 C13 1.358 . S
C12 C17 1.382 . S
C13 C12 1.358 . S
C13 C14 1.385 . S
C13 H36 0.930 . S
C14 C13 1.385 . S
C14 C15 1.395 . S
C14 H37 0.929 . S
C15 C14 1.395 . S
C15 C16 1.335 . S
C16 C15 1.335 . S
C16 C17 1.398 . S
C16 H38 0.930 . S
C17 C12 1.382 . S
C17 C16 1.398 . S
C17 H39 0.929 . S
C18 O28 1.271 . S
C18 O29 1.275 . S
C19 O30 1.252 . S
C19 O31 1.272 . S
O20 Sm0 2.543 . S
O20 C2 1.261 . S
O21 Sm0 2.450 . S
O21 C2 1.242 . S
O22 Sm0 2.681 . S
O22 Sm1 2.386 1_455 S
O22 C9 1.271 . S
O23 Sm0 2.464 . S
O23 C9 1.251 . S
O24 Sm0 2.396 . S
O24 C10 1.252 . S
O25 Sm1 2.408 1_455 S
O25 C10 1.272 . S
O26 Sm1 2.543 . S
O26 C11 1.261 . S
O27 Sm1 2.450 . S
O27 C11 1.242 . S
O28 Sm0 2.386 . S
O28 Sm1 2.681 1_455 S
O28 C18 1.271 . S
O29 Sm1 2.459 1_455 S
O29 C18 1.275 . S
O30 Sm1 2.396 . S
O30 C19 1.252 . S
O31 Sm0 2.408 1_655 S
O31 C19 1.272 . S
H32 C4 0.930 . S
H33 C5 0.929 . S
H34 C7 0.930 . S
H35 C8 0.929 . S
H36 C13 0.930 . S
H37 C14 0.929 . S
H38 C16 0.930 . S
H39 C17 0.929 . S
Sm40 C42 2.846 . S
Sm40 O60 2.543 . S
Sm40 O61 2.450 . S
Sm40 O62 2.681 1_565 S
Sm40 O63 2.464 . S
Sm40 O64 2.396 . S
Sm40 O68 2.386 1_565 S
Sm40 O71 2.408 1_565 S
Sm41 C51 2.846 . S
Sm41 O62 2.386 . S
Sm41 O65 2.408 1_545 S
Sm41 O66 2.543 . S
Sm41 O67 2.450 . S
Sm41 O68 2.681 . S
Sm41 O69 2.464 . S
Sm41 O70 2.396 . S
C42 Sm40 2.846 . S
C42 C43 1.506 . S
C42 O60 1.261 . S
C42 O61 1.242 . S
C43 C42 1.506 . S
C43 C44 1.358 . S
C43 C48 1.382 . S
C44 C43 1.358 . S
C44 C45 1.385 . S
C44 H72 0.930 . S
C45 C44 1.385 . S
C45 C46 1.395 . S
C45 H73 0.929 . S
C46 C45 1.395 . S
C46 C47 1.335 . S
C47 C46 1.335 . S
C47 C48 1.398 . S
C47 H74 0.930 . S
C48 C43 1.382 . S
C48 C47 1.398 . S
C48 H75 0.929 . S
C49 O62 1.271 . S
C49 O63 1.251 1_545 S
C50 O64 1.252 . S
C50 O65 1.272 . S
C51 Sm41 2.846 . S
C51 C52 1.506 . S
C51 O66 1.261 . S
C51 O67 1.242 . S
C52 C51 1.506 . S
C52 C53 1.358 . S
C52 C57 1.382 . S
C53 C52 1.358 . S
C53 C54 1.385 . S
C53 H76 0.930 . S
C54 C53 1.385 . S
C54 C55 1.395 . S
C54 H77 0.929 . S
C55 C54 1.395 . S
C55 C56 1.335 . S
C56 C55 1.335 . S
C56 C57 1.398 . S
C56 H78 0.930 . S
C57 C52 1.382 . S
C57 C56 1.398 . S
C57 H79 0.929 . S
C58 O68 1.271 . S
C58 O69 1.251 . S
C59 O70 1.252 . S
C59 O71 1.272 . S
O60 Sm40 2.543 . S
O60 C42 1.261 . S
O61 Sm40 2.450 . S
O61 C42 1.242 . S
O62 Sm40 2.681 1_545 S
O62 Sm41 2.386 . S
O62 C49 1.271 . S
O63 Sm40 2.464 . S
O63 C49 1.251 1_565 S
O64 Sm40 2.396 . S
O64 C50 1.252 . S
O65 Sm41 2.408 1_565 S
O65 C50 1.272 . S
O66 Sm41 2.543 . S
O66 C51 1.261 . S
O67 Sm41 2.450 . S
O67 C51 1.242 . S
O68 Sm40 2.386 1_545 S
O68 Sm41 2.681 . S
O68 C58 1.271 . S
O69 Sm41 2.464 . S
O69 C58 1.251 . S
O70 Sm41 2.396 . S
O70 C59 1.252 . S
O71 Sm40 2.408 1_545 S
O71 C59 1.272 . S
H72 C44 0.930 . S
H73 C45 0.929 . S
H74 C47 0.930 . S
H75 C48 0.929 . S
H76 C53 0.930 . S
H77 C54 0.929 . S
H78 C56 0.930 . S
H79 C57 0.929 . S
Sm80 C82 2.846 . S
Sm80 O100 2.543 . S
Sm80 O101 2.450 . S
Sm80 O102 2.681 . S
Sm80 O103 2.464 . S
Sm80 O104 2.396 . S
Sm80 O108 2.386 . S
Sm80 O111 2.408 . S
Sm81 C91 2.846 . S
Sm81 O102 2.386 . S
Sm81 O105 2.408 . S
Sm81 O106 2.543 . S
Sm81 O107 2.450 . S
Sm81 O108 2.681 . S
Sm81 O109 2.464 . S
Sm81 O110 2.396 . S
C82 Sm80 2.846 . S
C82 C83 1.506 . S
C82 O100 1.261 . S
C82 O101 1.242 . S
C83 C82 1.506 . S
C83 C84 1.358 . S
C83 C88 1.382 . S
C84 C83 1.358 . S
C84 C85 1.385 . S
C84 H112 0.930 . S
C85 C84 1.385 . S
C85 C86 1.395 . S
C85 H113 0.929 . S
C86 C85 1.395 . S
C86 C87 1.335 . S
C87 C86 1.335 . S
C87 C88 1.398 . S
C87 H114 0.930 . S
C88 C83 1.382 . S
C88 C87 1.398 . S
C88 H115 0.929 . S
C89 O102 1.271 . S
C89 O103 1.251 . S
C90 O104 1.252 . S
C90 O105 1.272 . S
C91 Sm81 2.846 . S
C91 C92 1.506 . S
C91 O106 1.261 . S
C91 O107 1.242 . S
C92 C91 1.506 . S
C92 C93 1.358 . S
C92 C97 1.382 . S
C93 C92 1.358 . S
C93 C94 1.385 . S
C93 H116 0.930 . S
C94 C93 1.385 . S
C94 C95 1.395 . S
C94 H117 0.929 . S
C95 C94 1.395 . S
C95 C96 1.335 . S
C96 C95 1.335 . S
C96 C97 1.398 . S
C96 H118 0.930 . S
C97 C92 1.382 . S
C97 C96 1.398 . S
C97 H119 0.929 . S
C98 O108 1.271 . S
C98 O109 1.251 . S
C99 O110 1.252 . S
C99 O111 1.272 . S
O100 Sm80 2.543 . S
O100 C82 1.261 . S
O101 Sm80 2.450 . S
O101 C82 1.242 . S
O102 Sm80 2.681 . S
O102 Sm81 2.386 . S
O102 C89 1.271 . S
O103 Sm80 2.464 . S
O103 C89 1.251 . S
O104 Sm80 2.396 . S
O104 C90 1.252 . S
O105 Sm81 2.408 . S
O105 C90 1.272 . S
O106 Sm81 2.543 . S
O106 C91 1.261 . S
O107 Sm81 2.450 . S
O107 C91 1.242 . S
O108 Sm80 2.386 . S
O108 Sm81 2.681 . S
O108 C98 1.271 . S
O109 Sm81 2.464 . S
O109 C98 1.251 . S
O110 Sm81 2.396 . S
O110 C99 1.252 . S
O111 Sm80 2.408 . S
O111 C99 1.272 . S
H112 C84 0.930 . S
H113 C85 0.929 . S
H114 C87 0.930 . S
H115 C88 0.929 . S
H116 C93 0.930 . S
H117 C94 0.929 . S
H118 C96 0.930 . S
H119 C97 0.929 . S
O120 Cd121 2.300 . S
O120 C127 1.275 . S
Cd121 O120 2.300 . S
Cd121 O129 2.381 . S
Cd121 O130 2.378 . S
O122 Cd123 2.385 . S
O122 C127 1.255 1_565 S
Cd123 O122 2.385 . S
Cd123 O124 2.317 . S
O124 Cd123 2.317 . S
O124 C125 1.232 . S
C125 O124 1.232 . S
C125 O126 1.218 . S
O126 C125 1.218 . S
C127 O120 1.275 . S
C127 O122 1.255 1_545 S
C128 O129 1.258 . S
C128 O130 1.256 . S
O129 Cd121 2.381 . S
O129 C128 1.258 . S
O130 Cd121 2.378 . S
O130 C128 1.256 . S
O131 Cd132 2.300 . S
O131 C138 1.275 . S
Cd132 O131 2.300 . S
Cd132 O140 2.381 . S
Cd132 O141 2.378 . S
O133 Cd134 2.385 . S
O133 C138 1.255 . S
Cd134 O133 2.385 . S
Cd134 O135 2.317 . S
O135 Cd134 2.317 . S
O135 C136 1.232 . S
C136 O135 1.232 . S
C136 O137 1.218 . S
O137 C136 1.218 . S
C138 O131 1.275 . S
C138 O133 1.255 . S
C139 O140 1.258 . S
C139 O141 1.256 . S
O140 Cd132 2.381 . S
O140 C139 1.258 . S
O141 Cd132 2.378 . S
O141 C139 1.256 . S
O142 Cd143 2.300 . S
O142 C149 1.275 . S
Cd143 O142 2.300 . S
Cd143 O151 2.381 . S
Cd143 O152 2.378 . S
O144 Cd145 2.385 1_455 S
O144 C149 1.255 . S
Cd145 O144 2.385 1_655 S
Cd145 O146 2.317 . S
O146 Cd145 2.317 . S
O146 C147 1.232 . S
C147 O146 1.232 . S
C147 O148 1.218 . S
O148 C147 1.218 . S
C149 O142 1.275 . S
C149 O144 1.255 . S
C150 O151 1.258 . S
C150 O152 1.256 . S
O151 Cd143 2.381 . S
O151 C150 1.258 . S
O152 Cd143 2.378 . S
O152 C150 1.256 . S
O153 Cd154 2.300 . S
O153 C160 1.275 1_455 S
Cd154 O153 2.300 . S
Cd154 O162 2.381 . S
Cd154 O163 2.378 . S
O155 Cd156 2.385 . S
O155 C160 1.255 . S
Cd156 O155 2.385 . S
Cd156 O157 2.317 . S
O157 Cd156 2.317 . S
O157 C158 1.232 . S
C158 O157 1.232 . S
C158 O159 1.218 . S
O159 C158 1.218 . S
C160 O153 1.275 1_655 S
C160 O155 1.255 . S
C161 O162 1.258 . S
C161 O163 1.256 . S
O162 Cd154 2.381 . S
O162 C161 1.258 . S
O163 Cd154 2.378 . S
O163 C161 1.256 . S
O164 Cd165 2.300 . S
O164 C171 1.275 1_565 S
Cd165 O164 2.300 . S
Cd165 O173 2.381 . S
Cd165 O174 2.378 . S
O166 Cd167 2.385 . S
O166 C171 1.255 . S
Cd167 O166 2.385 . S
Cd167 O168 2.317 . S
O168 Cd167 2.317 . S
O168 C169 1.232 . S
C169 O168 1.232 . S
C169 O170 1.218 . S
O170 C169 1.218 . S
C171 O164 1.275 1_545 S
C171 O166 1.255 . S
C172 O173 1.258 . S
C172 O174 1.256 . S
O173 Cd165 2.381 . S
O173 C172 1.258 . S
O174 Cd165 2.378 . S
O174 C172 1.256 . S
O175 Cd176 2.300 . S
O175 C182 1.275 . S
Cd176 O175 2.300 . S
Cd176 O184 2.381 . S
Cd176 O185 2.378 . S
O177 Cd178 2.385 . S
O177 C182 1.255 . S
Cd178 O177 2.385 . S
Cd178 O179 2.317 . S
O179 Cd178 2.317 . S
O179 C180 1.232 . S
C180 O179 1.232 . S
C180 O181 1.218 . S
O181 C180 1.218 . S
C182 O175 1.275 . S
C182 O177 1.255 . S
C183 O184 1.258 . S
C183 O185 1.256 . S
O184 Cd176 2.381 . S
O184 C183 1.258 . S
O185 Cd176 2.378 . S
O185 C183 1.256 . S
C186 C187 1.349 . S
C186 C188 1.327 . S
C186 H211 0.950 . S
C187 C186 1.349 . S
C187 C203 1.349 . S
C188 C186 1.327 . S
C188 C207 1.429 . S
C188 H212 0.950 . S
C189 C206 1.574 . S
C189 C208 1.368 . S
C189 H213 0.949 . S
H190 C194 0.949 . S
C191 C192 1.349 . S
C191 C193 1.327 . S
C191 H214 0.950 . S
C192 C191 1.349 . S
C192 C204 1.349 . S
C193 C191 1.327 . S
C193 C209 1.429 . S
C193 H215 0.950 . S
C194 H190 0.949 . S
C194 C202 1.574 . S
C194 C210 1.368 . S
H195 C203 0.950 . S
H196 C201 0.950 . S
H197 C202 0.949 . S
H198 C204 0.950 . S
H199 C205 0.950 . S
H200 C206 0.949 . S
C201 H196 0.950 . S
C201 C203 1.327 . S
C201 C207 1.429 . S
C202 C194 1.574 . S
C202 H197 0.949 . S
C202 C208 1.368 . S
C203 C187 1.349 . S
C203 H195 0.950 . S
C203 C201 1.327 . S
C204 C192 1.349 . S
C204 H198 0.950 . S
C204 C205 1.327 . S
C205 H199 0.950 . S
C205 C204 1.327 . S
C205 C209 1.429 . S
C206 C189 1.574 . S
C206 H200 0.949 . S
C206 C210 1.368 . S
C207 C188 1.429 . S
C207 C201 1.429 . S
C207 C208 1.523 . S
C208 C189 1.368 . S
C208 C202 1.368 . S
C208 C207 1.523 . S
C209 C193 1.429 . S
C209 C205 1.429 . S
C209 C210 1.523 . S
C210 C194 1.368 . S
C210 C206 1.368 . S
C210 C209 1.523 . S
H211 C186 0.950 . S
H212 C188 0.950 . S
H213 C189 0.949 . S
H214 C191 0.950 . S
H215 C193 0.950 . S
C216 C217 1.349 . S
C216 C218 1.327 . S
C216 H241 0.950 . S
C217 C216 1.349 . S
C217 C233 1.349 . S
C218 C216 1.327 . S
C218 C237 1.429 . S
C218 H242 0.950 . S
C219 C236 1.574 . S
C219 C238 1.368 . S
C219 H243 0.949 . S
H220 C224 0.949 . S
C221 C222 1.349 . S
C221 C223 1.327 . S
C221 H244 0.950 . S
C222 C221 1.349 . S
C222 C234 1.349 . S
C223 C221 1.327 . S
C223 C239 1.429 . S
C223 H245 0.950 . S
C224 H220 0.949 . S
C224 C232 1.574 . S
C224 C240 1.368 . S
H225 C233 0.950 . S
H226 C231 0.950 . S
H227 C232 0.949 . S
H228 C234 0.950 . S
H229 C235 0.950 . S
H230 C236 0.949 . S
C231 H226 0.950 . S
C231 C233 1.327 . S
C231 C237 1.429 . S
C232 C224 1.574 . S
C232 H227 0.949 . S
C232 C238 1.368 . S
C233 C217 1.349 . S
C233 H225 0.950 . S
C233 C231 1.327 . S
C234 C222 1.349 . S
C234 H228 0.950 . S
C234 C235 1.327 . S
C235 H229 0.950 . S
C235 C234 1.327 . S
C235 C239 1.429 . S
C236 C219 1.574 . S
C236 H230 0.949 . S
C236 C240 1.368 . S
C237 C218 1.429 . S
C237 C231 1.429 . S
C237 C238 1.523 . S
C238 C219 1.368 . S
C238 C232 1.368 . S
C238 C237 1.523 . S
C239 C223 1.429 . S
C239 C235 1.429 . S
C239 C240 1.523 . S
C240 C224 1.368 . S
C240 C236 1.368 . S
C240 C239 1.523 . S
H241 C216 0.950 . S
H242 C218 0.950 . S
H243 C219 0.949 . S
H244 C221 0.950 . S
H245 C223 0.950 . S
C246 C247 1.349 . S
C246 C248 1.327 . S
C246 H271 0.950 . S
C247 C246 1.349 . S
C247 C263 1.349 . S
C248 C246 1.327 . S
C248 C267 1.429 . S
C248 H272 0.950 . S
C249 C266 1.574 . S
C249 C268 1.368 . S
C249 H273 0.949 . S
H250 C254 0.949 . S
C251 C252 1.349 . S
C251 C253 1.327 . S
C251 H274 0.950 . S
C252 C251 1.349 . S
C252 C264 1.349 . S
C253 C251 1.327 . S
C253 C269 1.429 . S
C253 H275 0.950 . S
C254 H250 0.949 . S
C254 C262 1.574 . S
C254 C270 1.368 . S
H255 C263 0.950 . S
H256 C261 0.950 . S
H257 C262 0.949 . S
H258 C264 0.950 . S
H259 C265 0.950 . S
H260 C266 0.949 . S
C261 H256 0.950 . S
C261 C263 1.327 . S
C261 C267 1.429 . S
C262 C254 1.574 . S
C262 H257 0.949 . S
C262 C268 1.368 . S
C263 C247 1.349 . S
C263 H255 0.950 . S
C263 C261 1.327 . S
C264 C252 1.349 . S
C264 H258 0.950 . S
C264 C265 1.327 . S
C265 H259 0.950 . S
C265 C264 1.327 . S
C265 C269 1.429 . S
C266 C249 1.574 . S
C266 H260 0.949 . S
C266 C270 1.368 . S
C267 C248 1.429 . S
C267 C261 1.429 . S
C267 C268 1.523 . S
C268 C249 1.368 . S
C268 C262 1.368 . S
C268 C267 1.523 . S
C269 C253 1.429 . S
C269 C265 1.429 . S
C269 C270 1.523 . S
C270 C254 1.368 . S
C270 C266 1.368 . S
C270 C269 1.523 . S
H271 C246 0.950 . S
H272 C248 0.950 . S
H273 C249 0.949 . S
H274 C251 0.950 . S
H275 C253 0.950 . S
C276 C277 1.349 . S
C276 C278 1.327 . S
C276 H301 0.950 . S
C277 C276 1.349 . S
C277 C293 1.349 . S
C278 C276 1.327 . S
C278 C297 1.429 . S
C278 H302 0.950 . S
C279 C296 1.574 . S
C279 C298 1.368 . S
C279 H303 0.949 . S
H280 C284 0.949 . S
C281 C282 1.349 . S
C281 C283 1.327 . S
C281 H304 0.950 . S
C282 C281 1.349 . S
C282 C294 1.349 . S
C283 C281 1.327 . S
C283 C299 1.429 . S
C283 H305 0.950 . S
C284 H280 0.949 . S
C284 C292 1.574 . S
C284 C300 1.368 . S
H285 C293 0.950 . S
H286 C291 0.950 . S
H287 C292 0.949 . S
H288 C294 0.950 . S
H289 C295 0.950 . S
H290 C296 0.949 . S
C291 H286 0.950 . S
C291 C293 1.327 . S
C291 C297 1.429 . S
C292 C284 1.574 . S
C292 H287 0.949 . S
C292 C298 1.368 . S
C293 C277 1.349 . S
C293 H285 0.950 . S
C293 C291 1.327 . S
C294 C282 1.349 . S
C294 H288 0.950 . S
C294 C295 1.327 . S
C295 H289 0.950 . S
C295 C294 1.327 . S
C295 C299 1.429 . S
C296 C279 1.574 . S
C296 H290 0.949 . S
C296 C300 1.368 . S
C297 C278 1.429 . S
C297 C291 1.429 . S
C297 C298 1.523 . S
C298 C279 1.368 . S
C298 C292 1.368 . S
C298 C297 1.523 . S
C299 C283 1.429 . S
C299 C295 1.429 . S
C299 C300 1.523 . S
C300 C284 1.368 . S
C300 C296 1.368 . S
C300 C299 1.523 . S
H301 C276 0.950 . S
H302 C278 0.950 . S
H303 C279 0.949 . S
H304 C281 0.950 . S
H305 C283 0.950 . S
C306 C307 1.349 . S
C306 C308 1.327 . S
C306 H331 0.950 . S
C307 C306 1.349 . S
C307 C323 1.349 . S
C308 C306 1.327 . S
C308 C327 1.429 . S
C308 H332 0.950 . S
C309 C326 1.574 . S
C309 C328 1.368 . S
C309 H333 0.949 . S
H310 C314 0.949 . S
C311 C312 1.349 . S
C311 C313 1.327 . S
C311 H334 0.950 . S
C312 C311 1.349 . S
C312 C324 1.349 . S
C313 C311 1.327 . S
C313 C329 1.429 . S
C313 H335 0.950 . S
C314 H310 0.949 . S
C314 C322 1.574 . S
C314 C330 1.368 . S
H315 C323 0.950 . S
H316 C321 0.950 . S
H317 C322 0.949 . S
H318 C324 0.950 . S
H319 C325 0.950 . S
H320 C326 0.949 . S
C321 H316 0.950 . S
C321 C323 1.327 . S
C321 C327 1.429 . S
C322 C314 1.574 . S
C322 H317 0.949 . S
C322 C328 1.368 . S
C323 C307 1.349 . S
C323 H315 0.950 . S
C323 C321 1.327 . S
C324 C312 1.349 . S
C324 H318 0.950 . S
C324 C325 1.327 . S
C325 H319 0.950 . S
C325 C324 1.327 . S
C325 C329 1.429 . S
C326 C309 1.574 . S
C326 H320 0.949 . S
C326 C330 1.368 . S
C327 C308 1.429 . S
C327 C321 1.429 . S
C327 C328 1.523 . S
C328 C309 1.368 . S
C328 C322 1.368 . S
C328 C327 1.523 . S
C329 C313 1.429 . S
C329 C325 1.429 . S
C329 C330 1.523 . S
C330 C314 1.368 . S
C330 C326 1.368 . S
C330 C329 1.523 . S
H331 C306 0.950 . S
H332 C308 0.950 . S
H333 C309 0.949 . S
H334 C311 0.950 . S
H335 C313 0.950 . S
C336 C337 1.349 . S
C336 C338 1.327 . S
C336 H361 0.950 . S
C337 C336 1.349 . S
C337 C353 1.349 . S
C338 C336 1.327 . S
C338 C357 1.429 . S
C338 H362 0.950 . S
C339 C356 1.574 . S
C339 C358 1.368 . S
C339 H363 0.949 . S
H340 C344 0.949 . S
C341 C342 1.349 . S
C341 C343 1.327 . S
C341 H364 0.950 . S
C342 C341 1.349 . S
C342 C354 1.349 . S
C343 C341 1.327 . S
C343 C359 1.429 . S
C343 H365 0.950 . S
C344 H340 0.949 . S
C344 C352 1.574 . S
C344 C360 1.368 . S
H345 C353 0.950 . S
H346 C351 0.950 . S
H347 C352 0.949 . S
H348 C354 0.950 . S
H349 C355 0.950 . S
H350 C356 0.949 . S
C351 H346 0.950 . S
C351 C353 1.327 . S
C351 C357 1.429 . S
C352 C344 1.574 . S
C352 H347 0.949 . S
C352 C358 1.368 . S
C353 C337 1.349 . S
C353 H345 0.950 . S
C353 C351 1.327 . S
C354 C342 1.349 . S
C354 H348 0.950 . S
C354 C355 1.327 . S
C355 H349 0.950 . S
C355 C354 1.327 . S
C355 C359 1.429 . S
C356 C339 1.574 . S
C356 H350 0.949 . S
C356 C360 1.368 . S
C357 C338 1.429 . S
C357 C351 1.429 . S
C357 C358 1.523 . S
C358 C339 1.368 . S
C358 C352 1.368 . S
C358 C357 1.523 . S
C359 C343 1.429 . S
C359 C355 1.429 . S
C359 C360 1.523 . S
C360 C344 1.368 . S
C360 C356 1.368 . S
C360 C359 1.523 . S
H361 C336 0.950 . S
H362 C338 0.950 . S
H363 C339 0.949 . S
H364 C341 0.950 . S
H365 C343 0.950 . S
C366 C367 1.349 . S
C366 C368 1.327 . S
C366 H391 0.950 . S
C367 C366 1.349 . S
C367 C383 1.349 . S
C368 C366 1.327 . S
C368 C387 1.429 . S
C368 H392 0.950 . S
C369 C386 1.574 . S
C369 C388 1.368 . S
C369 H393 0.949 . S
H370 C374 0.949 . S
C371 C372 1.349 . S
C371 C373 1.327 . S
C371 H394 0.950 . S
C372 C371 1.349 . S
C372 C384 1.349 . S
C373 C371 1.327 . S
C373 C389 1.429 . S
C373 H395 0.950 . S
C374 H370 0.949 . S
C374 C382 1.574 . S
C374 C390 1.368 . S
H375 C383 0.950 . S
H376 C381 0.950 . S
H377 C382 0.949 . S
H378 C384 0.950 . S
H379 C385 0.950 . S
H380 C386 0.949 . S
C381 H376 0.950 . S
C381 C383 1.327 . S
C381 C387 1.429 . S
C382 C374 1.574 . S
C382 H377 0.949 . S
C382 C388 1.368 . S
C383 C367 1.349 . S
C383 H375 0.950 . S
C383 C381 1.327 . S
C384 C372 1.349 . S
C384 H378 0.950 . S
C384 C385 1.327 . S
C385 H379 0.950 . S
C385 C384 1.327 . S
C385 C389 1.429 . S
C386 C369 1.574 . S
C386 H380 0.949 . S
C386 C390 1.368 . S
C387 C368 1.429 . S
C387 C381 1.429 . S
C387 C388 1.523 . S
C388 C369 1.368 . S
C388 C382 1.368 . S
C388 C387 1.523 . S
C389 C373 1.429 . S
C389 C385 1.429 . S
C389 C390 1.523 . S
C390 C374 1.368 . S
C390 C386 1.368 . S
C390 C389 1.523 . S
H391 C366 0.950 . S
H392 C368 0.950 . S
H393 C369 0.949 . S
H394 C371 0.950 . S
H395 C373 0.950 . S
C396 C397 1.349 . S
C396 C398 1.327 . S
C396 H421 0.950 . S
C397 C396 1.349 . S
C397 C413 1.349 . S
C398 C396 1.327 . S
C398 C417 1.429 . S
C398 H422 0.950 . S
C399 C416 1.574 . S
C399 C418 1.368 . S
C399 H423 0.949 . S
H400 C404 0.949 . S
C401 C402 1.349 . S
C401 C403 1.327 . S
C401 H424 0.950 . S
C402 C401 1.349 . S
C402 C414 1.349 . S
C403 C401 1.327 . S
C403 C419 1.429 . S
C403 H425 0.950 . S
C404 H400 0.949 . S
C404 C412 1.574 . S
C404 C420 1.368 . S
H405 C413 0.950 . S
H406 C411 0.950 . S
H407 C412 0.949 . S
H408 C414 0.950 . S
H409 C415 0.950 . S
H410 C416 0.949 . S
C411 H406 0.950 . S
C411 C413 1.327 . S
C411 C417 1.429 . S
C412 C404 1.574 . S
C412 H407 0.949 . S
C412 C418 1.368 . S
C413 C397 1.349 . S
C413 H405 0.950 . S
C413 C411 1.327 . S
C414 C402 1.349 . S
C414 H408 0.950 . S
C414 C415 1.327 . S
C415 H409 0.950 . S
C415 C414 1.327 . S
C415 C419 1.429 . S
C416 C399 1.574 . S
C416 H410 0.949 . S
C416 C420 1.368 . S
C417 C398 1.429 . S
C417 C411 1.429 . S
C417 C418 1.523 . S
C418 C399 1.368 . S
C418 C412 1.368 . S
C418 C417 1.523 . S
C419 C403 1.429 . S
C419 C415 1.429 . S
C419 C420 1.523 . S
C420 C404 1.368 . S
C420 C416 1.368 . S
C420 C419 1.523 . S
H421 C396 0.950 . S
H422 C398 0.950 . S
H423 C399 0.949 . S
H424 C401 0.950 . S
H425 C403 0.950 . S
C426 C427 1.349 . S
C426 C428 1.327 . S
C426 H451 0.950 . S
C427 C426 1.349 . S
C427 C443 1.349 . S
C428 C426 1.327 . S
C428 C447 1.429 . S
C428 H452 0.950 . S
C429 C446 1.574 . S
C429 C448 1.368 . S
C429 H453 0.949 . S
H430 C434 0.949 . S
C431 C432 1.349 . S
C431 C433 1.327 . S
C431 H454 0.950 . S
C432 C431 1.349 . S
C432 C444 1.349 . S
C433 C431 1.327 . S
C433 C449 1.429 . S
C433 H455 0.950 . S
C434 H430 0.949 . S
C434 C442 1.574 . S
C434 C450 1.368 . S
H435 C443 0.950 . S
H436 C441 0.950 . S
H437 C442 0.949 . S
H438 C444 0.950 . S
H439 C445 0.950 . S
H440 C446 0.949 . S
C441 H436 0.950 . S
C441 C443 1.327 . S
C441 C447 1.429 . S
C442 C434 1.574 . S
C442 H437 0.949 . S
C442 C448 1.368 . S
C443 C427 1.349 . S
C443 H435 0.950 . S
C443 C441 1.327 . S
C444 C432 1.349 . S
C444 H438 0.950 . S
C444 C445 1.327 . S
C445 H439 0.950 . S
C445 C444 1.327 . S
C445 C449 1.429 . S
C446 C429 1.574 . S
C446 H440 0.949 . S
C446 C450 1.368 . S
C447 C428 1.429 . S
C447 C441 1.429 . S
C447 C448 1.523 . S
C448 C429 1.368 . S
C448 C442 1.368 . S
C448 C447 1.523 . S
C449 C433 1.429 . S
C449 C445 1.429 . S
C449 C450 1.523 . S
C450 C434 1.368 . S
C450 C446 1.368 . S
C450 C449 1.523 . S
H451 C426 0.950 . S
H452 C428 0.950 . S
H453 C429 0.949 . S
H454 C431 0.950 . S
H455 C433 0.950 . S
C456 C457 1.349 . S
C456 C458 1.327 . S
C456 H481 0.950 . S
C457 C456 1.349 . S
C457 C473 1.349 . S
C458 C456 1.327 . S
C458 C477 1.429 . S
C458 H482 0.950 . S
C459 C476 1.574 . S
C459 C478 1.368 . S
C459 H483 0.949 . S
H460 C464 0.949 . S
C461 C462 1.349 . S
C461 C463 1.327 . S
C461 H484 0.950 . S
C462 C461 1.349 . S
C462 C474 1.349 . S
C463 C461 1.327 . S
C463 C479 1.429 . S
C463 H485 0.950 . S
C464 H460 0.949 . S
C464 C472 1.574 . S
C464 C480 1.368 . S
H465 C473 0.950 . S
H466 C471 0.950 . S
H467 C472 0.949 . S
H468 C474 0.950 . S
H469 C475 0.950 . S
H470 C476 0.949 . S
C471 H466 0.950 . S
C471 C473 1.327 . S
C471 C477 1.429 . S
C472 C464 1.574 . S
C472 H467 0.949 . S
C472 C478 1.368 . S
C473 C457 1.349 . S
C473 H465 0.950 . S
C473 C471 1.327 . S
C474 C462 1.349 . S
C474 H468 0.950 . S
C474 C475 1.327 . S
C475 H469 0.950 . S
C475 C474 1.327 . S
C475 C479 1.429 . S
C476 C459 1.574 . S
C476 H470 0.949 . S
C476 C480 1.368 . S
C477 C458 1.429 . S
C477 C471 1.429 . S
C477 C478 1.523 . S
C478 C459 1.368 . S
C478 C472 1.368 . S
C478 C477 1.523 . S
C479 C463 1.429 . S
C479 C475 1.429 . S
C479 C480 1.523 . S
C480 C464 1.368 . S
C480 C476 1.368 . S
C480 C479 1.523 . S
H481 C456 0.950 . S
H482 C458 0.950 . S
H483 C459 0.949 . S
H484 C461 0.950 . S
H485 C463 0.950 . S
C486 C487 1.349 . S
C486 C488 1.327 . S
C486 H511 0.950 . S
C487 C486 1.349 . S
C487 C503 1.349 . S
C488 C486 1.327 . S
C488 C507 1.429 . S
C488 H512 0.950 . S
C489 C506 1.574 . S
C489 C508 1.368 . S
C489 H513 0.949 . S
H490 C494 0.949 . S
C491 C492 1.349 . S
C491 C493 1.327 . S
C491 H514 0.950 . S
C492 C491 1.349 . S
C492 C504 1.349 . S
C493 C491 1.327 . S
C493 C509 1.429 . S
C493 H515 0.950 . S
C494 H490 0.949 . S
C494 C502 1.574 . S
C494 C510 1.368 . S
H495 C503 0.950 . S
H496 C501 0.950 . S
H497 C502 0.949 . S
H498 C504 0.950 . S
H499 C505 0.950 . S
H500 C506 0.949 . S
C501 H496 0.950 . S
C501 C503 1.327 . S
C501 C507 1.429 . S
C502 C494 1.574 . S
C502 H497 0.949 . S
C502 C508 1.368 . S
C503 C487 1.349 . S
C503 H495 0.950 . S
C503 C501 1.327 . S
C504 C492 1.349 . S
C504 H498 0.950 . S
C504 C505 1.327 . S
C505 H499 0.950 . S
C505 C504 1.327 . S
C505 C509 1.429 . S
C506 C489 1.574 . S
C506 H500 0.949 . S
C506 C510 1.368 . S
C507 C488 1.429 . S
C507 C501 1.429 . S
C507 C508 1.523 . S
C508 C489 1.368 . S
C508 C502 1.368 . S
C508 C507 1.523 . S
C509 C493 1.429 . S
C509 C505 1.429 . S
C509 C510 1.523 . S
C510 C494 1.368 . S
C510 C506 1.368 . S
C510 C509 1.523 . S
H511 C486 0.950 . S
H512 C488 0.950 . S
H513 C489 0.949 . S
H514 C491 0.950 . S
H515 C493 0.950 . S
C516 C517 1.349 . S
C516 C518 1.327 . S
C516 H541 0.950 . S
C517 C516 1.349 . S
C517 C533 1.349 . S
C518 C516 1.327 . S
C518 C537 1.429 . S
C518 H542 0.950 . S
C519 C536 1.574 . S
C519 C538 1.368 . S
C519 H543 0.949 . S
H520 C524 0.949 . S
C521 C522 1.349 . S
C521 C523 1.327 . S
C521 H544 0.950 . S
C522 C521 1.349 . S
C522 C534 1.349 . S
C523 C521 1.327 . S
C523 C539 1.429 . S
C523 H545 0.950 . S
C524 H520 0.949 . S
C524 C532 1.574 . S
C524 C540 1.368 . S
H525 C533 0.950 . S
H526 C531 0.950 . S
H527 C532 0.949 . S
H528 C534 0.950 . S
H529 C535 0.950 . S
H530 C536 0.949 . S
C531 H526 0.950 . S
C531 C533 1.327 . S
C531 C537 1.429 . S
C532 C524 1.574 . S
C532 H527 0.949 . S
C532 C538 1.368 . S
C533 C517 1.349 . S
C533 H525 0.950 . S
C533 C531 1.327 . S
C534 C522 1.349 . S
C534 H528 0.950 . S
C534 C535 1.327 . S
C535 H529 0.950 . S
C535 C534 1.327 . S
C535 C539 1.429 . S
C536 C519 1.574 . S
C536 H530 0.949 . S
C536 C540 1.368 . S
C537 C518 1.429 . S
C537 C531 1.429 . S
C537 C538 1.523 . S
C538 C519 1.368 . S
C538 C532 1.368 . S
C538 C537 1.523 . S
C539 C523 1.429 . S
C539 C535 1.429 . S
C539 C540 1.523 . S
C540 C524 1.368 . S
C540 C536 1.368 . S
C540 C539 1.523 . S
H541 C516 0.950 . S
H542 C518 0.950 . S
H543 C519 0.949 . S
H544 C521 0.950 . S
H545 C523 0.950 . S
C546 C547 1.349 1_655 S
C546 C548 1.327 . S
C546 H571 0.950 . S
C547 C546 1.349 1_455 S
C547 C563 1.349 . S
C548 C546 1.327 . S
C548 C567 1.429 1_655 S
C548 H572 0.950 . S
C549 C566 1.574 . S
C549 C568 1.368 . S
C549 H573 0.949 . S
H550 C554 0.949 1_556 S
C551 C552 1.349 . S
C551 C553 1.327 . S
C551 H574 0.950 . S
C552 C551 1.349 . S
C552 C564 1.349 1_455 S
C553 C551 1.327 . S
C553 C569 1.429 . S
C553 H575 0.950 . S
C554 H550 0.949 1_554 S
C554 C562 1.574 . S
C554 C570 1.368 1_655 S
H555 C563 0.950 . S
H556 C561 0.950 . S
H557 C562 0.949 . S
H558 C564 0.950 . S
H559 C565 0.950 . S
H560 C566 0.949 . S
C561 H556 0.950 . S
C561 C563 1.327 . S
C561 C567 1.429 . S
C562 C554 1.574 . S
C562 H557 0.949 . S
C562 C568 1.368 1_655 S
C563 C547 1.349 . S
C563 H555 0.950 . S
C563 C561 1.327 . S
C564 C552 1.349 1_655 S
C564 H558 0.950 . S
C564 C565 1.327 . S
C565 H559 0.950 . S
C565 C564 1.327 . S
C565 C569 1.429 1_655 S
C566 C549 1.574 . S
C566 H560 0.949 . S
C566 C570 1.368 . S
C567 C548 1.429 1_455 S
C567 C561 1.429 . S
C567 C568 1.523 . S
C568 C549 1.368 . S
C568 C562 1.368 1_455 S
C568 C567 1.523 . S
C569 C553 1.429 . S
C569 C565 1.429 1_455 S
C569 C570 1.524 1_556 S
C570 C554 1.368 1_455 S
C570 C566 1.368 . S
C570 C569 1.524 1_554 S
H571 C546 0.950 . S
H572 C548 0.950 . S
H573 C549 0.949 . S
H574 C551 0.950 . S
H575 C553 0.950 . S
C576 C577 1.349 . S
C576 C578 1.327 . S
C576 H601 0.950 . S
C577 C576 1.349 . S
C577 C593 1.349 1_545 S
C578 C576 1.327 . S
C578 C597 1.429 . S
C578 H602 0.950 . S
C579 C596 1.574 . S
C579 C598 1.368 1_565 S
C579 H603 0.949 . S
H580 C584 0.949 . S
C581 C582 1.349 1_565 S
C581 C583 1.327 . S
C581 H604 0.950 . S
C582 C581 1.349 1_545 S
C582 C594 1.349 . S
C583 C581 1.327 . S
C583 C599 1.429 1_565 S
C583 H605 0.950 . S
C584 H580 0.949 . S
C584 C592 1.574 . S
C584 C600 1.368 . S
H585 C593 0.950 . S
H586 C591 0.950 . S
H587 C592 0.949 . S
H588 C594 0.950 . S
H589 C595 0.950 . S
H590 C596 0.949 . S
C591 H586 0.950 . S
C591 C593 1.327 . S
C591 C597 1.429 1_565 S
C592 C584 1.574 . S
C592 H587 0.949 . S
C592 C598 1.368 . S
C593 C577 1.349 1_565 S
C593 H585 0.950 . S
C593 C591 1.327 . S
C594 C582 1.349 . S
C594 H588 0.950 . S
C594 C595 1.327 . S
C595 H589 0.950 . S
C595 C594 1.327 . S
C595 C599 1.429 . S
C596 C579 1.574 . S
C596 H590 0.949 . S
C596 C600 1.368 1_565 S
C597 C578 1.429 . S
C597 C591 1.429 1_545 S
C597 C598 1.523 . S
C598 C579 1.368 1_545 S
C598 C592 1.368 . S
C598 C597 1.523 . S
C599 C583 1.429 1_545 S
C599 C595 1.429 . S
C599 C600 1.523 . S
C600 C584 1.368 . S
C600 C596 1.368 1_545 S
C600 C599 1.523 . S
H601 C576 0.950 . S
H602 C578 0.950 . S
H603 C579 0.949 . S
H604 C581 0.950 . S
H605 C583 0.950 . S
C606 C607 1.349 . S
C606 C608 1.327 . S
C606 H631 0.950 . S
C607 C606 1.349 . S
C607 C623 1.349 . S
C608 C606 1.327 . S
C608 C627 1.429 . S
C608 H632 0.950 . S
C609 C626 1.574 . S
C609 C628 1.368 . S
C609 H633 0.949 . S
H610 C614 0.949 . S
C611 C612 1.349 . S
C611 C613 1.327 . S
C611 H634 0.950 . S
C612 C611 1.349 . S
C612 C624 1.349 . S
C613 C611 1.327 . S
C613 C629 1.429 . S
C613 H635 0.950 . S
C614 H610 0.949 . S
C614 C622 1.574 . S
C614 C630 1.368 . S
H615 C623 0.950 . S
H616 C621 0.950 . S
H617 C622 0.949 . S
H618 C624 0.950 . S
H619 C625 0.950 . S
H620 C626 0.949 . S
C621 H616 0.950 . S
C621 C623 1.327 . S
C621 C627 1.429 . S
C622 C614 1.574 . S
C622 H617 0.949 . S
C622 C628 1.368 . S
C623 C607 1.349 . S
C623 H615 0.950 . S
C623 C621 1.327 . S
C624 C612 1.349 . S
C624 H618 0.950 . S
C624 C625 1.327 . S
C625 H619 0.950 . S
C625 C624 1.327 . S
C625 C629 1.429 . S
C626 C609 1.574 . S
C626 H620 0.949 . S
C626 C630 1.368 . S
C627 C608 1.429 . S
C627 C621 1.429 . S
C627 C628 1.523 . S
C628 C609 1.368 . S
C628 C622 1.368 . S
C628 C627 1.523 . S
C629 C613 1.429 . S
C629 C625 1.429 . S
C629 C630 1.523 . S
C630 C614 1.368 . S
C630 C626 1.368 . S
C630 C629 1.523 . S
H631 C606 0.950 . S
H632 C608 0.950 . S
H633 C609 0.949 . S
H634 C611 0.950 . S
H635 C613 0.950 . S
C636 C637 1.349 1_565 S
C636 C638 1.327 . S
C636 H661 0.950 . S
C637 C636 1.349 1_545 S
C637 C653 1.349 . S
C638 C636 1.327 . S
C638 C657 1.429 1_565 S
C638 H662 0.950 . S
C639 C656 1.574 . S
C639 C658 1.368 . S
C639 H663 0.949 . S
H640 C644 0.949 . S
C641 C642 1.349 . S
C641 C643 1.327 . S
C641 H664 0.950 . S
C642 C641 1.349 . S
C642 C654 1.349 1_545 S
C643 C641 1.327 . S
C643 C659 1.429 . S
C643 H665 0.950 . S
C644 H640 0.949 . S
C644 C652 1.574 . S
C644 C660 1.368 1_565 S
H645 C653 0.950 . S
H646 C651 0.950 . S
H647 C652 0.949 . S
H648 C654 0.950 . S
H649 C655 0.950 . S
H650 C656 0.949 . S
C651 H646 0.950 . S
C651 C653 1.327 . S
C651 C657 1.429 . S
C652 C644 1.574 . S
C652 H647 0.949 . S
C652 C658 1.368 1_565 S
C653 C637 1.349 . S
C653 H645 0.950 . S
C653 C651 1.327 . S
C654 C642 1.349 1_565 S
C654 H648 0.950 . S
C654 C655 1.327 . S
C655 H649 0.950 . S
C655 C654 1.327 . S
C655 C659 1.429 1_565 S
C656 C639 1.574 . S
C656 H650 0.949 . S
C656 C660 1.368 . S
C657 C638 1.429 1_545 S
C657 C651 1.429 . S
C657 C658 1.523 . S
C658 C639 1.368 . S
C658 C652 1.368 1_545 S
C658 C657 1.523 . S
C659 C643 1.429 . S
C659 C655 1.429 1_545 S
C659 C660 1.523 . S
C660 C644 1.368 1_545 S
C660 C656 1.368 . S
C660 C659 1.523 . S
H661 C636 0.950 . S
H662 C638 0.950 . S
H663 C639 0.949 . S
H664 C641 0.950 . S
H665 C643 0.950 . S
C666 C667 1.349 . S
C666 C668 1.327 . S
C666 H691 0.950 . S
C667 C666 1.349 . S
C667 C683 1.349 . S
C668 C666 1.327 . S
C668 C687 1.429 . S
C668 H692 0.950 . S
C669 C686 1.574 . S
C669 C688 1.368 . S
C669 H693 0.949 . S
H670 C674 0.949 1_554 S
C671 C672 1.349 . S
C671 C673 1.327 . S
C671 H694 0.950 . S
C672 C671 1.349 . S
C672 C684 1.349 . S
C673 C671 1.327 . S
C673 C689 1.429 . S
C673 H695 0.950 . S
C674 H670 0.949 1_556 S
C674 C682 1.574 . S
C674 C690 1.368 1_556 S
H675 C683 0.950 . S
H676 C681 0.950 . S
H677 C682 0.949 . S
H678 C684 0.950 . S
H679 C685 0.950 . S
H680 C686 0.949 . S
C681 H676 0.950 . S
C681 C683 1.327 . S
C681 C687 1.429 . S
C682 C674 1.574 . S
C682 H677 0.949 . S
C682 C688 1.368 . S
C683 C667 1.349 . S
C683 H675 0.950 . S
C683 C681 1.327 . S
C684 C672 1.349 . S
C684 H678 0.950 . S
C684 C685 1.327 . S
C685 H679 0.950 . S
C685 C684 1.327 . S
C685 C689 1.429 . S
C686 C669 1.574 . S
C686 H680 0.949 . S
C686 C690 1.368 1_556 S
C687 C668 1.429 . S
C687 C681 1.429 . S
C687 C688 1.523 . S
C688 C669 1.368 . S
C688 C682 1.368 . S
C688 C687 1.523 . S
C689 C673 1.429 . S
C689 C685 1.429 . S
C689 C690 1.523 . S
C690 C674 1.368 1_554 S
C690 C686 1.368 1_554 S
C690 C689 1.523 . S
H691 C666 0.950 . S
H692 C668 0.950 . S
H693 C669 0.949 . S
H694 C671 0.950 . S
H695 C673 0.950 . S
C696 C697 1.349 . S
C696 C698 1.327 . S
C696 H721 0.950 . S
C697 C696 1.349 . S
C697 C713 1.349 . S
C698 C696 1.327 . S
C698 C717 1.429 . S
C698 H722 0.950 . S
C699 C716 1.574 . S
C699 C718 1.368 . S
C699 H723 0.949 . S
H700 C704 0.937 1_655 S
C701 C702 1.349 . S
C701 C703 1.327 . S
C701 H724 0.950 . S
C702 C701 1.349 . S
C702 C714 1.349 . S
C703 C701 1.327 . S
C703 C719 1.429 . S
C703 H725 0.974 . S
C704 H700 0.937 1_455 S
C704 C712 1.575 . S
C704 C720 1.366 . S
H705 C713 0.950 . S
H706 C711 0.950 . S
H707 C712 0.949 . S
H708 C714 0.950 . S
H709 C715 0.950 . S
H710 C716 0.949 . S
C711 H706 0.950 . S
C711 C713 1.327 . S
C711 C717 1.429 . S
C712 C704 1.575 . S
C712 H707 0.949 . S
C712 C718 1.368 . S
C713 C697 1.349 . S
C713 H705 0.950 . S
C713 C711 1.327 . S
C714 C702 1.349 . S
C714 H708 0.950 . S
C714 C715 1.327 . S
C715 H709 0.950 . S
C715 C714 1.327 . S
C715 C719 1.429 . S
C716 C699 1.574 . S
C716 H710 0.949 . S
C716 C720 1.385 . S
C717 C698 1.429 . S
C717 C711 1.429 . S
C717 C718 1.523 . S
C718 C699 1.368 . S
C718 C712 1.368 . S
C718 C717 1.523 . S
C719 C703 1.429 . S
C719 C715 1.429 . S
C719 C720 1.522 1_655 S
C720 C704 1.366 . S
C720 C716 1.385 . S
C720 C719 1.522 1_455 S
H721 C696 0.950 . S
H722 C698 0.950 . S
H723 C699 0.949 . S
H724 C701 0.950 . S
H725 C703 0.974 . S
C187 C6 0.568 . S
C192 C180 0.716 . S
C217 C59 2.063 . S
C222 C158 1.785 . S
C247 C86 0.981 . S
C252 C172 0.965 . S
C277 C15 0.267 . S
C282 C183 0.258 . S
C312 C161 1.748 . S
C307 C50 1.787 . S
C342 C169 1.210 . S
C337 C95 1.414 . S
C367 C46 1.365 . S
C372 C136 1.163 . S
C397 C99 3.286 . S
C402 C147 2.938 . S
C427 C10 2.136 . S
C432 C125 1.834 . S
C462 C139 1.014 . S
C457 C55 1.025 . S
C492 C150 2.756 . S
C487 C90 2.806 . S
C517 C19 1.719 . S
C522 C128 1.683 . S
C552 C149 1.636 . S
C547 C18 1.641 . S
C577 C49 1.414 . S
C582 C127 1.403 . S
C607 C98 1.500 . S
C612 C138 1.477 . S
C642 C171 1.451 . S
C637 C58 1.464 . S
C672 C182 1.225 . S
C667 C89 1.255 . S
C697 C9 1.424 . S
C702 C160 1.401 . S
