# Generated by pormake.
# Topology ocu, (6,8)-cn, num edge types: 1
# Building blocks:
#     Node 0, Type 0, BuildingBlock: VOLQOD_clean_sbu_1, # of connection points: 6
#     Node 1, Type 0, BuildingBlock: VOLQOD_clean_sbu_1, # of connection points: 6
#     Node 2, Type 0, BuildingBlock: VOLQOD_clean_sbu_1, # of connection points: 6
#     Node 3, Type 0, BuildingBlock: VOLQOD_clean_sbu_1, # of connection points: 6
#     Node 4, Type 0, BuildingBlock: VOLQOD_clean_sbu_1, # of connection points: 6
#     Node 5, Type 0, BuildingBlock: VOLQOD_clean_sbu_1, # of connection points: 6
#     Node 6, Type 0, BuildingBlock: VOLQOD_clean_sbu_1, # of connection points: 6
#     Node 7, Type 0, BuildingBlock: VOLQOD_clean_sbu_1, # of connection points: 6
#     Node 8, Type 1, BuildingBlock: VETTIZ_charged_sbu_0, # of connection points: 8
#     Node 9, Type 1, BuildingBlock: VETTIZ_charged_sbu_0, # of connection points: 8
#     Node 10, Type 1, BuildingBlock: VETTIZ_charged_sbu_0, # of connection points: 8
#     Node 11, Type 1, BuildingBlock: VETTIZ_charged_sbu_0, # of connection points: 8
#     Node 12, Type 1, BuildingBlock: VETTIZ_charged_sbu_0, # of connection points: 8
#     Node 13, Type 1, BuildingBlock: VETTIZ_charged_sbu_0, # of connection points: 8
#     Edge 14, Type (0, 1), None
#     Edge 15, Type (0, 1), None
#     Edge 16, Type (0, 1), None
#     Edge 17, Type (0, 1), None
#     Edge 18, Type (0, 1), None
#     Edge 19, Type (0, 1), None
#     Edge 20, Type (0, 1), None
#     Edge 21, Type (0, 1), None
#     Edge 22, Type (0, 1), None
#     Edge 23, Type (0, 1), None
#     Edge 24, Type (0, 1), None
#     Edge 25, Type (0, 1), None
#     Edge 26, Type (0, 1), None
#     Edge 27, Type (0, 1), None
#     Edge 28, Type (0, 1), None
#     Edge 29, Type (0, 1), None
#     Edge 30, Type (0, 1), None
#     Edge 31, Type (0, 1), None
#     Edge 32, Type (0, 1), None
#     Edge 33, Type (0, 1), None
#     Edge 34, Type (0, 1), None
#     Edge 35, Type (0, 1), None
#     Edge 36, Type (0, 1), None
#     Edge 37, Type (0, 1), None
#     Edge 38, Type (0, 1), None
#     Edge 39, Type (0, 1), None
#     Edge 40, Type (0, 1), None
#     Edge 41, Type (0, 1), None
#     Edge 42, Type (0, 1), None
#     Edge 43, Type (0, 1), None
#     Edge 44, Type (0, 1), None
#     Edge 45, Type (0, 1), None
#     Edge 46, Type (0, 1), None
#     Edge 47, Type (0, 1), None
#     Edge 48, Type (0, 1), None
#     Edge 49, Type (0, 1), None
#     Edge 50, Type (0, 1), None
#     Edge 51, Type (0, 1), None
#     Edge 52, Type (0, 1), None
#     Edge 53, Type (0, 1), None
#     Edge 54, Type (0, 1), None
#     Edge 55, Type (0, 1), None
#     Edge 56, Type (0, 1), None
#     Edge 57, Type (0, 1), None
#     Edge 58, Type (0, 1), None
#     Edge 59, Type (0, 1), None
#     Edge 60, Type (0, 1), None
#     Edge 61, Type (0, 1), None
# Relax obj value: 0.154
# Max RMSD: 0.302
# Mean RMSD: 0.175
data_MOF--net-ocu--node1-VOLQOD_clean_sbu_1--node2-VETTIZ_charged_sbu_0--edge1-none
_symmetry_space_group_name_H-M    P1
_symmetry_Int_Tables_number       1
_symmetry_cell_setting            triclinic
loop_
_symmetry_equiv_pos_as_xyz
'x, y, z'
_cell_length_a     19.421476
_cell_length_b     19.869161
_cell_length_c     19.519314
_cell_angle_alpha  89.910161
_cell_angle_beta   90.275492
_cell_angle_gamma 90.088655
loop_
_atom_site_label
_atom_site_type_symbol
_atom_site_fract_x
_atom_site_fract_y
_atom_site_fract_z
_atom_type_partial_charge
O0 O 0.36983 0.36039 0.23678 0.0
Zn1 Zn 0.31985 0.29415 0.3084 0.0
O2 O 0.25674 0.23537 0.25568 0.0
Zn3 Zn 0.15963 0.23922 0.27695 0.0
Zn4 Zn 0.26081 0.2591 0.16165 0.0
Zn5 Zn 0.27914 0.13979 0.26277 0.0
O6 O 0.1229 0.15847 0.3281 0.0
O7 O 0.21516 0.09238 0.32677 0.0
O8 O 0.25334 0.3531 0.37263 0.0
O9 O 0.15322 0.30523 0.34534 0.0
O10 O 0.10317 0.29303 0.20994 0.0
O11 O 0.16676 0.27056 0.11991 0.0
O12 O 0.32858 0.19497 0.12313 0.0
O13 O 0.39162 0.22647 0.36023 0.0
O14 O 0.31733 0.09731 0.17761 0.0
O15 O 0.36095 0.12781 0.31601 0.0
C16 C 0.35253 0.37728 0.1752 0.0
C17 C 0.15634 0.10765 0.35026 0.0
C18 C 0.11955 0.30522 0.14849 0.0
C19 C 0.18724 0.34873 0.37757 0.0
C20 C 0.34785 0.13471 0.13426 0.0
C21 C 0.4002 0.16217 0.35335 0.0
O22 O 0.30468 0.34681 0.14394 0.0
O23 O 0.76778 0.1524 0.15849 0.0
Zn24 Zn 0.83325 0.20785 0.21937 0.0
O25 O 0.77932 0.26723 0.27537 0.0
Zn26 Zn 0.79 0.35778 0.25704 0.0
Zn27 Zn 0.68553 0.24995 0.27075 0.0
Zn28 Zn 0.80661 0.26098 0.36772 0.0
O29 O 0.86588 0.39189 0.31512 0.0
O30 O 0.82287 0.34927 0.41059 0.0
O31 O 0.88228 0.26969 0.14745 0.0
O32 O 0.81714 0.36106 0.16246 0.0
O33 O 0.70245 0.40855 0.26484 0.0
O34 O 0.63927 0.32422 0.22717 0.0
O35 O 0.6467 0.23275 0.3603 0.0
O36 O 0.88187 0.14784 0.29518 0.0
O37 O 0.74135 0.19321 0.41009 0.0
O38 O 0.901 0.22907 0.36879 0.0
C39 C 0.70242 0.14686 0.16146 0.0
C40 C 0.8686 0.38371 0.37951 0.0
C41 C 0.65 0.3865 0.2329 0.0
C42 C 0.85745 0.32612 0.12613 0.0
C43 C 0.67618 0.19328 0.40183 0.0
C44 C 0.90587 0.16824 0.35314 0.0
O45 O 0.6675 0.17653 0.20711 0.0
O46 O 0.68408 0.62326 0.24797 0.0
Zn47 Zn 0.72215 0.69311 0.32053 0.0
O48 O 0.77712 0.74758 0.26127 0.0
Zn49 Zn 0.86991 0.71232 0.27104 0.0
Zn50 Zn 0.74844 0.74328 0.17036 0.0
Zn51 Zn 0.76858 0.83675 0.28968 0.0
O52 O 0.9154 0.77215 0.34445 0.0
O53 O 0.86615 0.86429 0.30307 0.0
O54 O 0.79593 0.66326 0.39447 0.0
O55 O 0.86122 0.62353 0.31408 0.0
O56 O 0.9124 0.68134 0.1827 0.0
O57 O 0.8132 0.67731 0.12449 0.0
O58 O 0.72349 0.83286 0.12911 0.0
O59 O 0.64963 0.75919 0.36232 0.0
O60 O 0.69788 0.88579 0.22552 0.0
O61 O 0.72946 0.83548 0.38245 0.0
C62 C 0.65699 0.63988 0.18996 0.0
C63 C 0.89987 0.83416 0.35066 0.0
C64 C 0.87468 0.65656 0.13517 0.0
C65 C 0.85103 0.63277 0.37681 0.0
C66 C 0.68785 0.87648 0.16141 0.0
C67 C 0.66835 0.81483 0.38994 0.0
O68 O 0.65881 0.69983 0.16921 0.0
O69 O 0.37713 0.80624 0.37255 0.0
Zn70 Zn 0.31132 0.73108 0.33085 0.0
O71 O 0.26099 0.77821 0.25935 0.0
Zn72 Zn 0.16546 0.76046 0.26095 0.0
Zn73 Zn 0.27623 0.87184 0.25496 0.0
Zn74 Zn 0.29504 0.74569 0.1779 0.0
O75 O 0.13511 0.71601 0.16895 0.0
O76 O 0.23744 0.66969 0.1475 0.0
O77 O 0.23689 0.6909 0.39802 0.0
O78 O 0.14638 0.68856 0.32746 0.0
O79 O 0.12169 0.83883 0.31553 0.0
O80 O 0.20992 0.91076 0.32186 0.0
O81 O 0.29813 0.90697 0.15943 0.0
O82 O 0.36123 0.65196 0.27807 0.0
O83 O 0.30443 0.80989 0.10406 0.0
O84 O 0.39011 0.72179 0.19737 0.0
C85 C 0.39249 0.86578 0.35072 0.0
C86 C 0.17253 0.67126 0.1394 0.0
C87 C 0.15265 0.88869 0.34414 0.0
C88 C 0.17489 0.67262 0.38368 0.0
C89 C 0.31415 0.87266 0.10655 0.0
C90 C 0.39309 0.66351 0.222 0.0
O91 O 0.36188 0.89263 0.30059 0.0
O92 O 0.24513 0.66088 0.63277 0.0
Zn93 Zn 0.31875 0.69473 0.70426 0.0
O94 O 0.26495 0.74937 0.76568 0.0
Zn95 Zn 0.26996 0.83907 0.73942 0.0
Zn96 Zn 0.17435 0.71246 0.75849 0.0
Zn97 Zn 0.29615 0.74312 0.85472 0.0
O98 O 0.34354 0.88813 0.80101 0.0
O99 O 0.32076 0.83273 0.89698 0.0
O100 O 0.38658 0.76238 0.66155 0.0
O101 O 0.30481 0.83798 0.64594 0.0
O102 O 0.17111 0.86407 0.72887 0.0
O103 O 0.12548 0.77024 0.68713 0.0
O104 O 0.13344 0.68432 0.84687 0.0
O105 O 0.36197 0.62502 0.77374 0.0
O106 O 0.23531 0.67025 0.8982 0.0
O107 O 0.38777 0.70701 0.84478 0.0
C108 C 0.19351 0.62805 0.65546 0.0
C109 C 0.3561 0.87687 0.86441 0.0
C110 C 0.13686 0.83318 0.68212 0.0
C111 C 0.366 0.81867 0.63702 0.0
C112 C 0.17268 0.65217 0.88806 0.0
C113 C 0.38962 0.64559 0.8299 0.0
O114 O 0.18623 0.62303 0.71908 0.0
O115 O 0.17781 0.15361 0.72349 0.0
Zn116 Zn 0.22682 0.20535 0.80483 0.0
O117 O 0.27126 0.2815 0.7601 0.0
Zn118 Zn 0.36788 0.28424 0.77601 0.0
Zn119 Zn 0.25666 0.27848 0.66475 0.0
Zn120 Zn 0.23498 0.36334 0.79066 0.0
O121 O 0.40056 0.36406 0.83193 0.0
O122 O 0.29664 0.3998 0.86255 0.0
O123 O 0.29826 0.14825 0.85782 0.0
O124 O 0.38546 0.2191 0.84557 0.0
O125 O 0.41973 0.24228 0.69729 0.0
O126 O 0.33121 0.21916 0.62807 0.0
O127 O 0.24268 0.36989 0.62531 0.0
O128 O 0.17368 0.24806 0.88563 0.0
O129 O 0.20764 0.42594 0.71666 0.0
O130 O 0.14732 0.3423 0.83277 0.0
C131 C 0.15728 0.17293 0.6636 0.0
C132 C 0.36122 0.3961 0.87279 0.0
C133 C 0.39328 0.21011 0.64698 0.0
C134 C 0.35882 0.16829 0.87356 0.0
C135 C 0.206 0.41572 0.65257 0.0
C136 C 0.14721 0.30672 0.88626 0.0
O137 O 0.17109 0.23103 0.64119 0.0
O138 O 0.88035 0.27544 0.85025 0.0
Zn139 Zn 0.82257 0.20432 0.7912 0.0
O140 O 0.76232 0.2641 0.73555 0.0
Zn141 Zn 0.66696 0.25965 0.76001 0.0
Zn142 Zn 0.7879 0.3568 0.74813 0.0
Zn143 Zn 0.7636 0.24841 0.64053 0.0
O144 O 0.61061 0.20361 0.69867 0.0
O145 O 0.68404 0.18526 0.614 0.0
O146 O 0.75746 0.14327 0.85479 0.0
O147 O 0.65968 0.19605 0.83238 0.0
O148 O 0.62726 0.34309 0.80331 0.0
O149 O 0.72717 0.39493 0.82292 0.0
O150 O 0.79398 0.41166 0.66207 0.0
O151 O 0.87959 0.14241 0.72221 0.0
O152 O 0.81394 0.32625 0.59279 0.0
O153 O 0.8314 0.18139 0.62693 0.0
C154 C 0.90304 0.3343 0.8336 0.0
C155 C 0.63123 0.16818 0.64888 0.0
C156 C 0.6634 0.38618 0.83578 0.0
C157 C 0.6921 0.14992 0.86278 0.0
C158 C 0.82617 0.38686 0.61145 0.0
C159 C 0.87275 0.14223 0.65661 0.0
O160 O 0.88446 0.36062 0.77783 0.0
O161 O 0.88192 0.86808 0.73447 0.0
Zn162 Zn 0.82858 0.80971 0.8119 0.0
O163 O 0.76275 0.74866 0.76035 0.0
Zn164 Zn 0.67007 0.75468 0.78883 0.0
Zn165 Zn 0.75612 0.76246 0.6644 0.0
Zn166 Zn 0.78802 0.65662 0.77413 0.0
O167 O 0.63069 0.67356 0.84046 0.0
O168 O 0.72937 0.6177 0.85102 0.0
O169 O 0.77374 0.8678 0.88481 0.0
O170 O 0.67941 0.80951 0.86503 0.0
O171 O 0.61455 0.81941 0.729 0.0
O172 O 0.67327 0.81539 0.63192 0.0
O173 O 0.80044 0.68665 0.61338 0.0
O174 O 0.88437 0.74329 0.87559 0.0
O175 O 0.79799 0.60227 0.68754 0.0
O176 O 0.88351 0.65695 0.80531 0.0
C177 C 0.86703 0.86861 0.66982 0.0
C178 C 0.66795 0.62948 0.87085 0.0
C179 C 0.62633 0.84145 0.66871 0.0
C180 C 0.71249 0.8505 0.90124 0.0
C181 C 0.81955 0.62796 0.63175 0.0
C182 C 0.89976 0.68206 0.86239 0.0
O183 O 0.82139 0.83054 0.64547 0.0
Fe184 Fe 0.01972 0.07287 0.51643 0.0
O185 O 0.9609 -0.00131 0.48155 0.0
Fe186 Fe 0.17619 0.99381 0.53856 0.0
Fe187 Fe 0.86138 -0.0008 0.48834 0.0
O188 O 0.07612 -0.00201 0.5542 0.0
O189 O 0.07593 0.99086 0.55385 0.0
O190 O 0.96097 0.99233 0.48085 0.0
Fe191 Fe 0.01629 0.91656 0.51822 0.0
C192 C 0.90085 0.09085 0.61002 0.0
O193 O 0.95432 0.13938 0.46271 0.0
O194 O 0.87317 0.07065 0.41269 0.0
O195 O 0.06677 0.9138 0.42596 0.0
O196 O 0.17554 0.92363 0.45903 0.0
O197 O 0.1778 0.06648 0.46224 0.0
O198 O 0.07039 0.07015 0.42492 0.0
O199 O 0.8672 0.92217 0.42041 0.0
O200 O 0.94827 0.85021 0.46584 0.0
C201 C 0.13403 0.07573 0.41434 0.0
O202 O 0.08342 0.8492 0.56988 0.0
O203 O 0.17026 0.91872 0.60912 0.0
O204 O 0.96519 0.07988 0.60761 0.0
O205 O 0.86106 0.07478 0.56029 0.0
C206 C 0.91446 0.12181 0.41137 0.0
C207 C 0.90561 0.86934 0.41732 0.0
C208 C 0.89733 0.91334 0.61713 0.0
O209 O 0.85655 0.93048 0.56827 0.0
O210 O 0.96228 0.91572 0.61019 0.0
C211 C 0.13023 0.91243 0.41265 0.0
O212 O 0.17255 0.06878 0.61104 0.0
O213 O 0.09071 0.13942 0.56445 0.0
C214 C 0.12958 0.86759 0.61541 0.0
C215 C 0.13582 0.12308 0.6119 0.0
Fe216 Fe 0.51973 0.85204 0.01597 0.0
O217 O 0.53642 0.94753 0.99183 0.0
Fe218 Fe 0.44157 0.01016 0.99902 0.0
Fe219 Fe 0.61788 0.00619 0.01843 0.0
O220 O 0.5187 0.94779 0.02316 0.0
O221 O 0.52638 0.0679 0.99074 0.0
O222 O 0.53597 0.06736 0.02338 0.0
Fe223 Fe 0.53369 0.16355 0.01513 0.0
C224 C 0.62269 0.89896 0.12757 0.0
O225 O 0.60922 0.85082 0.95889 0.0
O226 O 0.68798 0.93227 0.98992 0.0
O227 O 0.46096 0.16491 0.93659 0.0
O228 O 0.37919 0.08404 0.95824 0.0
O229 O 0.43811 0.9622 0.90306 0.0
O230 O 0.45201 0.85304 0.93332 0.0
O231 O 0.64127 0.0554 0.92482 0.0
O232 O 0.61655 0.16375 0.95108 0.0
C233 C 0.42226 0.89911 0.89737 0.0
O234 O 0.44977 0.16175 0.07806 0.0
O235 O 0.42845 0.05218 0.09515 0.0
O236 O 0.58788 0.85232 0.09793 0.0
O237 O 0.61129 0.96155 0.11562 0.0
C238 C 0.66965 0.87919 0.95589 0.0
C239 C 0.65223 0.11958 0.91917 0.0
C240 C 0.66208 0.12189 0.10323 0.0
O241 O 0.68451 0.0741 0.06461 0.0
O242 O 0.60414 0.15269 0.09423 0.0
C243 C 0.40177 0.1361 0.92576 0.0
O244 O 0.364 0.9463 0.02588 0.0
O245 O 0.42966 0.86326 0.07401 0.0
C246 C 0.41264 0.11418 0.10207 0.0
C247 C 0.3721 0.89555 0.0655 0.0
Fe248 Fe 0.02284 0.57294 0.00792 0.0
O249 O 0.96051 0.49704 0.98119 0.0
Fe250 Fe 0.178 0.47897 0.02762 0.0
Fe251 Fe 0.86087 0.49614 0.98076 0.0
O252 O 0.07823 0.49169 0.03306 0.0
O253 O 0.08188 0.47884 1.00095 0.0
O254 O 0.95553 0.48535 0.01143 0.0
Fe255 Fe 0.01444 0.40249 0.00785 0.0
C256 C 0.89961 0.60012 0.09298 0.0
O257 O 0.96024 0.64557 0.96293 0.0
O258 O 0.88051 0.57584 0.91255 0.0
O259 O 0.08599 0.32988 0.98658 0.0
O260 O 0.17369 0.39992 0.95555 0.0
O261 O 0.19046 0.55507 0.95595 0.0
O262 O 0.08234 0.5771 0.92016 0.0
O263 O 0.86982 0.42039 0.90825 0.0
O264 O 0.98286 0.39354 0.90598 0.0
C265 C 0.14681 0.59125 0.92275 0.0
O266 O 0.04731 0.39567 0.10929 0.0
O267 O 0.16278 0.40373 0.09934 0.0
O268 O 0.96322 0.58223 0.0957 0.0
O269 O 0.85501 0.57124 0.05394 0.0
C270 C 0.9138 0.63264 0.91721 0.0
C271 C 0.92002 0.38353 0.88753 0.0
C272 C 0.881 0.36042 0.06392 0.0
O273 O 0.85185 0.41805 0.05168 0.0
O274 O 0.93522 0.33892 0.03341 0.0
C275 C 0.13912 0.34388 0.95043 0.0
O276 O 0.17215 0.56034 0.09653 0.0
O277 O 0.09294 0.6364 0.05431 0.0
C278 C 0.10858 0.3745 0.12268 0.0
C279 C 0.14255 0.61923 0.09509 0.0
Fe280 Fe 0.51548 0.50998 0.95179 0.0
O281 O 0.56933 0.47106 0.03032 0.0
Fe282 Fe 0.35936 0.5503 0.03146 0.0
Fe283 Fe 0.67054 0.47748 0.03669 0.0
O284 O 0.46047 0.55176 0.02748 0.0
O285 O 0.45944 0.55054 0.03543 0.0
O286 O 0.56844 0.47016 0.03858 0.0
Fe287 Fe 0.51302 0.51293 0.11405 0.0
C288 C 0.63367 0.42082 0.89485 0.0
O289 O 0.57728 0.59371 0.94529 0.0
O290 O 0.68045 0.54806 0.95877 0.0
O291 O 0.45068 0.56507 0.18351 0.0
O292 O 0.37258 0.61794 0.11219 0.0
O293 O 0.37347 0.61353 0.94594 0.0
O294 O 0.45249 0.55643 0.87914 0.0
O295 O 0.677 0.54833 0.11552 0.0
O296 O 0.57447 0.59559 0.11346 0.0
C297 C 0.40416 0.60042 0.88764 0.0
O298 O 0.45058 0.42984 0.12427 0.0
O299 O 0.34802 0.47764 0.10902 0.0
O300 O 0.58101 0.45981 0.88397 0.0
O301 O 0.66464 0.41202 0.95363 0.0
C302 C 0.64034 0.58956 0.92901 0.0
C303 C 0.63385 0.59006 0.13961 0.0
C304 C 0.62664 0.42497 0.17552 0.0
O305 O 0.65821 0.41299 0.11809 0.0
O306 O 0.57729 0.46753 0.18525 0.0
C307 C 0.40407 0.61014 0.17095 0.0
O308 O 0.34994 0.47851 0.95667 0.0
O309 O 0.45203 0.42801 0.9483 0.0
C310 C 0.3865 0.43301 0.13708 0.0
C311 C 0.38928 0.4344 0.93055 0.0
Fe312 Fe 0.02939 0.36287 0.53223 0.0
O313 O 0.0279 0.45947 0.52293 0.0
Fe314 Fe 0.04416 0.51635 0.42562 0.0
Fe315 Fe 0.00954 0.51619 0.60819 0.0
O316 O 0.03487 0.46226 0.51606 0.0
O317 O 1.00141 0.57217 0.50631 0.0
O318 O 0.01055 0.57519 0.52267 0.0
Fe319 Fe 0.00701 0.67173 0.53039 0.0
C320 C 0.89647 0.41324 0.59681 0.0
O321 O 0.10226 0.37422 0.60819 0.0
O322 O 0.11374 0.48735 0.62011 0.0
O323 O 0.07687 0.68403 0.45186 0.0
O324 O 0.12633 0.58241 0.44727 0.0
O325 O 0.12131 0.44637 0.39973 0.0
O326 O 0.11058 0.3539 0.46626 0.0
O327 O 0.10943 0.55316 0.61755 0.0
O328 O 0.09256 0.66375 0.59619 0.0
C329 C 0.1433 0.38931 0.42238 0.0
O330 O 0.92489 0.67748 0.46416 0.0
O331 O 0.95611 0.58177 0.41336 0.0
O332 O 0.94592 0.3704 0.59808 0.0
O333 O 0.90886 0.47727 0.59728 0.0
C334 C 0.13842 0.42678 0.62174 0.0
C335 C 0.13124 0.61441 0.6147 0.0
C336 C 0.88903 0.60873 0.60851 0.0
O337 O 0.90581 0.54591 0.60214 0.0
O338 O 0.93449 0.65618 0.60679 0.0
C339 C 0.12749 0.64595 0.43587 0.0
O340 O 0.96224 0.45514 0.39859 0.0
O341 O 0.95695 0.3563 0.45644 0.0
C342 C 0.91286 0.63033 0.42147 0.0
C343 C 0.93284 0.39975 0.41437 0.0
Fe344 Fe 0.51789 0.9259 0.51468 0.0
O345 O 0.47283 0.00247 0.56513 0.0
Fe346 Fe 0.56683 0.00929 0.36317 0.0
Fe347 Fe 0.47383 0.00811 0.66622 0.0
O348 O 0.56259 0.00118 0.4632 0.0
O349 O 0.56022 0.00812 0.46202 0.0
O350 O 0.47159 0.01154 0.5647 0.0
Fe351 Fe 0.52332 0.08463 0.51619 0.0
C352 C 0.41481 0.87168 0.62037 0.0
O353 O 0.59815 0.92178 0.58216 0.0
O354 O 0.54216 0.92796 0.6801 0.0
O355 O 0.58457 0.14978 0.46232 0.0
O356 O 0.64085 0.08254 0.38468 0.0
O357 O 0.62876 0.92501 0.37647 0.0
O358 O 0.57253 0.85628 0.45429 0.0
O359 O 0.54918 0.08327 0.67733 0.0
O360 O 0.60388 0.07382 0.58033 0.0
C361 C 0.61847 0.86759 0.40724 0.0
O362 O 0.44401 0.10357 0.44998 0.0
O363 O 0.49831 0.09131 0.35123 0.0
O364 O 0.46252 0.85866 0.57584 0.0
O365 O 0.40498 0.92932 0.65117 0.0
C366 C 0.58738 0.90042 0.64239 0.0
C367 C 0.59651 0.10279 0.63681 0.0
C368 C 0.42823 0.14935 0.62315 0.0
O369 O 0.41099 0.09252 0.65221 0.0
O370 O 0.47726 0.15661 0.57903 0.0
C371 C 0.6353 0.13637 0.42224 0.0
O372 O 0.4887 0.93858 0.34667 0.0
O373 O 0.43815 0.92025 0.44754 0.0
C374 C 0.45429 0.12218 0.38862 0.0
C375 C 0.44475 0.90781 0.38425 0.0
loop_
_geom_bond_atom_site_label_1
_geom_bond_atom_site_label_2
_geom_bond_distance
_geom_bond_site_symmetry_2
_ccdc_geom_bond_type
O0 Zn1 1.953 . S
O0 C16 1.225 . S
Zn1 O0 1.953 . S
Zn1 O2 1.949 . S
Zn1 O8 1.919 . S
Zn1 O13 1.924 . S
O2 Zn1 1.949 . S
O2 Zn3 1.923 . S
O2 Zn4 1.950 . S
O2 Zn5 1.945 . S
Zn3 O2 1.923 . S
Zn3 O6 1.933 . S
Zn3 O9 1.941 . S
Zn3 O10 1.965 . S
Zn4 O2 1.950 . S
Zn4 O11 1.938 . S
Zn4 O12 1.906 . S
Zn4 O22 1.953 . S
Zn5 O2 1.945 . S
Zn5 O7 1.932 . S
Zn5 O14 1.977 . S
Zn5 O15 1.910 . S
O6 Zn3 1.933 . S
O6 C17 1.226 . S
O7 Zn5 1.932 . S
O7 C17 1.307 . S
O8 Zn1 1.919 . S
O8 C19 1.253 . S
O9 Zn3 1.941 . S
O9 C19 1.283 . S
O10 Zn3 1.965 . S
O10 C18 1.303 . S
O11 Zn4 1.938 . S
O11 C18 1.247 . S
O12 Zn4 1.906 . S
O12 C20 1.304 . S
O13 Zn1 1.924 . S
O13 C21 1.311 . S
O14 Zn5 1.977 . S
O14 C20 1.272 . S
O15 Zn5 1.910 . S
O15 C21 1.231 . S
C16 O0 1.225 . S
C16 O22 1.298 . S
C17 O6 1.226 . S
C17 O7 1.307 . S
C18 O10 1.303 . S
C18 O11 1.247 . S
C19 O8 1.253 . S
C19 O9 1.283 . S
C20 O12 1.304 . S
C20 O14 1.272 . S
C21 O13 1.311 . S
C21 O15 1.231 . S
O22 Zn4 1.953 . S
O22 C16 1.298 . S
O23 Zn24 1.953 . S
O23 C39 1.225 . S
Zn24 O23 1.953 . S
Zn24 O25 1.949 . S
Zn24 O31 1.919 . S
Zn24 O36 1.924 . S
O25 Zn24 1.949 . S
O25 Zn26 1.923 . S
O25 Zn27 1.950 . S
O25 Zn28 1.945 . S
Zn26 O25 1.923 . S
Zn26 O29 1.933 . S
Zn26 O32 1.941 . S
Zn26 O33 1.965 . S
Zn27 O25 1.950 . S
Zn27 O34 1.938 . S
Zn27 O35 1.906 . S
Zn27 O45 1.953 . S
Zn28 O25 1.945 . S
Zn28 O30 1.932 . S
Zn28 O37 1.977 . S
Zn28 O38 1.910 . S
O29 Zn26 1.933 . S
O29 C40 1.226 . S
O30 Zn28 1.932 . S
O30 C40 1.307 . S
O31 Zn24 1.919 . S
O31 C42 1.253 . S
O32 Zn26 1.941 . S
O32 C42 1.283 . S
O33 Zn26 1.965 . S
O33 C41 1.303 . S
O34 Zn27 1.938 . S
O34 C41 1.247 . S
O35 Zn27 1.906 . S
O35 C43 1.304 . S
O36 Zn24 1.924 . S
O36 C44 1.311 . S
O37 Zn28 1.977 . S
O37 C43 1.272 . S
O38 Zn28 1.910 . S
O38 C44 1.231 . S
C39 O23 1.225 . S
C39 O45 1.298 . S
C40 O29 1.226 . S
C40 O30 1.307 . S
C41 O33 1.303 . S
C41 O34 1.247 . S
C42 O31 1.253 . S
C42 O32 1.283 . S
C43 O35 1.304 . S
C43 O37 1.272 . S
C44 O36 1.311 . S
C44 O38 1.231 . S
O45 Zn27 1.953 . S
O45 C39 1.298 . S
O46 Zn47 1.953 . S
O46 C62 1.225 . S
Zn47 O46 1.953 . S
Zn47 O48 1.949 . S
Zn47 O54 1.919 . S
Zn47 O59 1.924 . S
O48 Zn47 1.949 . S
O48 Zn49 1.923 . S
O48 Zn50 1.950 . S
O48 Zn51 1.945 . S
Zn49 O48 1.923 . S
Zn49 O52 1.933 . S
Zn49 O55 1.941 . S
Zn49 O56 1.965 . S
Zn50 O48 1.950 . S
Zn50 O57 1.938 . S
Zn50 O58 1.906 . S
Zn50 O68 1.953 . S
Zn51 O48 1.945 . S
Zn51 O53 1.932 . S
Zn51 O60 1.977 . S
Zn51 O61 1.910 . S
O52 Zn49 1.933 . S
O52 C63 1.226 . S
O53 Zn51 1.932 . S
O53 C63 1.307 . S
O54 Zn47 1.919 . S
O54 C65 1.253 . S
O55 Zn49 1.941 . S
O55 C65 1.283 . S
O56 Zn49 1.965 . S
O56 C64 1.303 . S
O57 Zn50 1.938 . S
O57 C64 1.247 . S
O58 Zn50 1.906 . S
O58 C66 1.304 . S
O59 Zn47 1.924 . S
O59 C67 1.311 . S
O60 Zn51 1.977 . S
O60 C66 1.272 . S
O61 Zn51 1.910 . S
O61 C67 1.231 . S
C62 O46 1.225 . S
C62 O68 1.298 . S
C63 O52 1.226 . S
C63 O53 1.307 . S
C64 O56 1.303 . S
C64 O57 1.247 . S
C65 O54 1.253 . S
C65 O55 1.283 . S
C66 O58 1.304 . S
C66 O60 1.272 . S
C67 O59 1.311 . S
C67 O61 1.231 . S
O68 Zn50 1.953 . S
O68 C62 1.298 . S
O69 Zn70 1.953 . S
O69 C85 1.225 . S
Zn70 O69 1.953 . S
Zn70 O71 1.949 . S
Zn70 O77 1.919 . S
Zn70 O82 1.924 . S
O71 Zn70 1.949 . S
O71 Zn72 1.923 . S
O71 Zn73 1.950 . S
O71 Zn74 1.945 . S
Zn72 O71 1.923 . S
Zn72 O75 1.933 . S
Zn72 O78 1.941 . S
Zn72 O79 1.965 . S
Zn73 O71 1.950 . S
Zn73 O80 1.938 . S
Zn73 O81 1.906 . S
Zn73 O91 1.953 . S
Zn74 O71 1.945 . S
Zn74 O76 1.932 . S
Zn74 O83 1.977 . S
Zn74 O84 1.910 . S
O75 Zn72 1.933 . S
O75 C86 1.226 . S
O76 Zn74 1.932 . S
O76 C86 1.307 . S
O77 Zn70 1.919 . S
O77 C88 1.253 . S
O78 Zn72 1.941 . S
O78 C88 1.283 . S
O79 Zn72 1.965 . S
O79 C87 1.303 . S
O80 Zn73 1.938 . S
O80 C87 1.247 . S
O81 Zn73 1.906 . S
O81 C89 1.304 . S
O82 Zn70 1.924 . S
O82 C90 1.311 . S
O83 Zn74 1.977 . S
O83 C89 1.272 . S
O84 Zn74 1.910 . S
O84 C90 1.231 . S
C85 O69 1.225 . S
C85 O91 1.298 . S
C86 O75 1.226 . S
C86 O76 1.307 . S
C87 O79 1.303 . S
C87 O80 1.247 . S
C88 O77 1.253 . S
C88 O78 1.283 . S
C89 O81 1.304 . S
C89 O83 1.272 . S
C90 O82 1.311 . S
C90 O84 1.231 . S
O91 Zn73 1.953 . S
O91 C85 1.298 . S
O92 Zn93 1.953 . S
O92 C108 1.225 . S
Zn93 O92 1.953 . S
Zn93 O94 1.949 . S
Zn93 O100 1.919 . S
Zn93 O105 1.924 . S
O94 Zn93 1.949 . S
O94 Zn95 1.923 . S
O94 Zn96 1.950 . S
O94 Zn97 1.945 . S
Zn95 O94 1.923 . S
Zn95 O98 1.933 . S
Zn95 O101 1.941 . S
Zn95 O102 1.965 . S
Zn96 O94 1.950 . S
Zn96 O103 1.938 . S
Zn96 O104 1.906 . S
Zn96 O114 1.953 . S
Zn97 O94 1.945 . S
Zn97 O99 1.932 . S
Zn97 O106 1.977 . S
Zn97 O107 1.910 . S
O98 Zn95 1.933 . S
O98 C109 1.226 . S
O99 Zn97 1.932 . S
O99 C109 1.307 . S
O100 Zn93 1.919 . S
O100 C111 1.253 . S
O101 Zn95 1.941 . S
O101 C111 1.283 . S
O102 Zn95 1.965 . S
O102 C110 1.303 . S
O103 Zn96 1.938 . S
O103 C110 1.247 . S
O104 Zn96 1.906 . S
O104 C112 1.304 . S
O105 Zn93 1.924 . S
O105 C113 1.311 . S
O106 Zn97 1.977 . S
O106 C112 1.272 . S
O107 Zn97 1.910 . S
O107 C113 1.231 . S
C108 O92 1.225 . S
C108 O114 1.298 . S
C109 O98 1.226 . S
C109 O99 1.307 . S
C110 O102 1.303 . S
C110 O103 1.247 . S
C111 O100 1.253 . S
C111 O101 1.283 . S
C112 O104 1.304 . S
C112 O106 1.272 . S
C113 O105 1.311 . S
C113 O107 1.231 . S
O114 Zn96 1.953 . S
O114 C108 1.298 . S
O115 Zn116 1.953 . S
O115 C131 1.225 . S
Zn116 O115 1.953 . S
Zn116 O117 1.949 . S
Zn116 O123 1.919 . S
Zn116 O128 1.924 . S
O117 Zn116 1.949 . S
O117 Zn118 1.923 . S
O117 Zn119 1.950 . S
O117 Zn120 1.945 . S
Zn118 O117 1.923 . S
Zn118 O121 1.933 . S
Zn118 O124 1.941 . S
Zn118 O125 1.965 . S
Zn119 O117 1.950 . S
Zn119 O126 1.938 . S
Zn119 O127 1.906 . S
Zn119 O137 1.953 . S
Zn120 O117 1.945 . S
Zn120 O122 1.932 . S
Zn120 O129 1.977 . S
Zn120 O130 1.910 . S
O121 Zn118 1.933 . S
O121 C132 1.226 . S
O122 Zn120 1.932 . S
O122 C132 1.307 . S
O123 Zn116 1.919 . S
O123 C134 1.253 . S
O124 Zn118 1.941 . S
O124 C134 1.283 . S
O125 Zn118 1.965 . S
O125 C133 1.303 . S
O126 Zn119 1.938 . S
O126 C133 1.247 . S
O127 Zn119 1.906 . S
O127 C135 1.304 . S
O128 Zn116 1.924 . S
O128 C136 1.311 . S
O129 Zn120 1.977 . S
O129 C135 1.272 . S
O130 Zn120 1.910 . S
O130 C136 1.231 . S
C131 O115 1.225 . S
C131 O137 1.298 . S
C132 O121 1.226 . S
C132 O122 1.307 . S
C133 O125 1.303 . S
C133 O126 1.247 . S
C134 O123 1.253 . S
C134 O124 1.283 . S
C135 O127 1.304 . S
C135 O129 1.272 . S
C136 O128 1.311 . S
C136 O130 1.231 . S
O137 Zn119 1.953 . S
O137 C131 1.298 . S
O138 Zn139 1.953 . S
O138 C154 1.225 . S
Zn139 O138 1.953 . S
Zn139 O140 1.949 . S
Zn139 O146 1.919 . S
Zn139 O151 1.924 . S
O140 Zn139 1.949 . S
O140 Zn141 1.923 . S
O140 Zn142 1.950 . S
O140 Zn143 1.945 . S
Zn141 O140 1.923 . S
Zn141 O144 1.933 . S
Zn141 O147 1.941 . S
Zn141 O148 1.965 . S
Zn142 O140 1.950 . S
Zn142 O149 1.938 . S
Zn142 O150 1.906 . S
Zn142 O160 1.953 . S
Zn143 O140 1.945 . S
Zn143 O145 1.932 . S
Zn143 O152 1.977 . S
Zn143 O153 1.910 . S
O144 Zn141 1.933 . S
O144 C155 1.226 . S
O145 Zn143 1.932 . S
O145 C155 1.307 . S
O146 Zn139 1.919 . S
O146 C157 1.253 . S
O147 Zn141 1.941 . S
O147 C157 1.283 . S
O148 Zn141 1.965 . S
O148 C156 1.303 . S
O149 Zn142 1.938 . S
O149 C156 1.247 . S
O150 Zn142 1.906 . S
O150 C158 1.304 . S
O151 Zn139 1.924 . S
O151 C159 1.311 . S
O152 Zn143 1.977 . S
O152 C158 1.272 . S
O153 Zn143 1.910 . S
O153 C159 1.231 . S
C154 O138 1.225 . S
C154 O160 1.298 . S
C155 O144 1.226 . S
C155 O145 1.307 . S
C156 O148 1.303 . S
C156 O149 1.247 . S
C157 O146 1.253 . S
C157 O147 1.283 . S
C158 O150 1.304 . S
C158 O152 1.272 . S
C159 O151 1.311 . S
C159 O153 1.231 . S
O160 Zn142 1.953 . S
O160 C154 1.298 . S
O161 Zn162 1.953 . S
O161 C177 1.225 . S
Zn162 O161 1.953 . S
Zn162 O163 1.949 . S
Zn162 O169 1.919 . S
Zn162 O174 1.924 . S
O163 Zn162 1.949 . S
O163 Zn164 1.923 . S
O163 Zn165 1.950 . S
O163 Zn166 1.945 . S
Zn164 O163 1.923 . S
Zn164 O167 1.933 . S
Zn164 O170 1.941 . S
Zn164 O171 1.965 . S
Zn165 O163 1.950 . S
Zn165 O172 1.938 . S
Zn165 O173 1.906 . S
Zn165 O183 1.953 . S
Zn166 O163 1.945 . S
Zn166 O168 1.932 . S
Zn166 O175 1.977 . S
Zn166 O176 1.910 . S
O167 Zn164 1.933 . S
O167 C178 1.226 . S
O168 Zn166 1.932 . S
O168 C178 1.307 . S
O169 Zn162 1.919 . S
O169 C180 1.253 . S
O170 Zn164 1.941 . S
O170 C180 1.283 . S
O171 Zn164 1.965 . S
O171 C179 1.303 . S
O172 Zn165 1.938 . S
O172 C179 1.247 . S
O173 Zn165 1.906 . S
O173 C181 1.304 . S
O174 Zn162 1.924 . S
O174 C182 1.311 . S
O175 Zn166 1.977 . S
O175 C181 1.272 . S
O176 Zn166 1.910 . S
O176 C182 1.231 . S
C177 O161 1.225 . S
C177 O183 1.298 . S
C178 O167 1.226 . S
C178 O168 1.307 . S
C179 O171 1.303 . S
C179 O172 1.247 . S
C180 O169 1.253 . S
C180 O170 1.283 . S
C181 O173 1.304 . S
C181 O175 1.272 . S
C182 O174 1.311 . S
C182 O176 1.231 . S
O183 Zn165 1.953 . S
O183 C177 1.298 . S
Fe184 O185 1.886 1_455 S
Fe184 O188 1.715 . S
Fe184 O193 2.077 1_455 S
Fe184 O198 1.935 . S
Fe184 O204 2.077 1_455 S
Fe184 O213 1.935 . S
O185 Fe184 1.886 1_655 S
O185 Fe187 1.715 . S
Fe186 O188 1.886 . S
Fe186 O189 1.715 1_545 S
Fe186 O196 1.935 1_545 S
Fe186 O197 2.077 . S
Fe186 O203 1.935 1_545 S
Fe186 O212 2.077 . S
Fe187 O185 1.715 . S
Fe187 O190 1.886 1_545 S
Fe187 O194 1.935 . S
Fe187 O199 2.077 1_545 S
Fe187 O205 1.935 . S
Fe187 O209 2.077 1_545 S
O188 Fe184 1.715 . S
O188 Fe186 1.886 . S
O189 Fe186 1.715 1_565 S
O189 Fe191 1.886 . S
O190 Fe187 1.886 1_565 S
O190 Fe191 1.715 1_655 S
Fe191 O189 1.886 . S
Fe191 O190 1.715 1_455 S
Fe191 O195 2.077 . S
Fe191 O200 1.935 1_455 S
Fe191 O202 2.077 . S
Fe191 O210 1.935 1_455 S
C192 O204 1.381 . S
C192 O205 1.421 . S
O193 Fe184 2.077 1_655 S
O193 C206 1.381 . S
O194 Fe187 1.935 . S
O194 C206 1.421 . S
O195 Fe191 2.077 . S
O195 C211 1.381 . S
O196 Fe186 1.935 1_565 S
O196 C211 1.421 . S
O197 Fe186 2.077 . S
O197 C201 1.381 . S
O198 Fe184 1.935 . S
O198 C201 1.421 . S
O199 Fe187 2.077 1_565 S
O199 C207 1.381 . S
O200 Fe191 1.935 1_655 S
O200 C207 1.421 . S
C201 O197 1.381 . S
C201 O198 1.421 . S
O202 Fe191 2.077 . S
O202 C214 1.381 . S
O203 Fe186 1.935 1_565 S
O203 C214 1.421 . S
O204 Fe184 2.077 1_655 S
O204 C192 1.381 . S
O205 Fe187 1.935 . S
O205 C192 1.421 . S
C206 O193 1.381 . S
C206 O194 1.421 . S
C207 O199 1.381 . S
C207 O200 1.421 . S
C208 O209 1.381 . S
C208 O210 1.421 . S
O209 Fe187 2.077 1_565 S
O209 C208 1.381 . S
O210 Fe191 1.935 1_655 S
O210 C208 1.421 . S
C211 O195 1.381 . S
C211 O196 1.421 . S
O212 Fe186 2.077 . S
O212 C215 1.381 . S
O213 Fe184 1.935 . S
O213 C215 1.421 . S
C214 O202 1.381 . S
C214 O203 1.421 . S
C215 O212 1.381 . S
C215 O213 1.421 . S
Fe216 O217 1.886 . S
Fe216 O220 1.715 . S
Fe216 O225 2.077 1_554 S
Fe216 O230 1.935 1_554 S
Fe216 O236 2.077 . S
Fe216 O245 1.935 . S
O217 Fe216 1.886 . S
O217 Fe219 1.715 1_565 S
Fe218 O220 1.886 1_545 S
Fe218 O221 1.715 . S
Fe218 O228 1.935 1_554 S
Fe218 O229 2.077 1_544 S
Fe218 O235 1.935 . S
Fe218 O244 2.077 1_545 S
Fe219 O217 1.715 1_545 S
Fe219 O222 1.886 . S
Fe219 O226 1.935 1_544 S
Fe219 O231 2.077 1_554 S
Fe219 O237 1.935 1_545 S
Fe219 O241 2.077 . S
O220 Fe216 1.715 . S
O220 Fe218 1.886 1_565 S
O221 Fe218 1.715 . S
O221 Fe223 1.886 . S
O222 Fe219 1.886 . S
O222 Fe223 1.715 . S
Fe223 O221 1.886 . S
Fe223 O222 1.715 . S
Fe223 O227 2.077 1_554 S
Fe223 O232 1.935 1_554 S
Fe223 O234 2.077 . S
Fe223 O242 1.935 . S
C224 O236 1.381 . S
C224 O237 1.421 . S
O225 Fe216 2.077 1_556 S
O225 C238 1.381 . S
O226 Fe219 1.935 1_566 S
O226 C238 1.421 . S
O227 Fe223 2.077 1_556 S
O227 C243 1.381 . S
O228 Fe218 1.935 1_556 S
O228 C243 1.421 . S
O229 Fe218 2.077 1_566 S
O229 C233 1.381 . S
O230 Fe216 1.935 1_556 S
O230 C233 1.421 . S
O231 Fe219 2.077 1_556 S
O231 C239 1.381 . S
O232 Fe223 1.935 1_556 S
O232 C239 1.421 . S
C233 O229 1.381 . S
C233 O230 1.421 . S
O234 Fe223 2.077 . S
O234 C246 1.381 . S
O235 Fe218 1.935 . S
O235 C246 1.421 . S
O236 Fe216 2.077 . S
O236 C224 1.381 . S
O237 Fe219 1.935 1_565 S
O237 C224 1.421 . S
C238 O225 1.381 . S
C238 O226 1.421 . S
C239 O231 1.381 . S
C239 O232 1.421 . S
C240 O241 1.381 . S
C240 O242 1.421 . S
O241 Fe219 2.077 . S
O241 C240 1.381 . S
O242 Fe223 1.935 . S
O242 C240 1.421 . S
C243 O227 1.381 . S
C243 O228 1.421 . S
O244 Fe218 2.077 1_565 S
O244 C247 1.381 . S
O245 Fe216 1.935 . S
O245 C247 1.421 . S
C246 O234 1.381 . S
C246 O235 1.421 . S
C247 O244 1.381 . S
C247 O245 1.421 . S
Fe248 O249 1.886 1_455 S
Fe248 O252 1.715 . S
Fe248 O257 2.077 1_454 S
Fe248 O262 1.935 1_554 S
Fe248 O268 2.077 1_455 S
Fe248 O277 1.935 . S
O249 Fe248 1.886 1_655 S
O249 Fe251 1.715 . S
Fe250 O252 1.886 . S
Fe250 O253 1.715 . S
Fe250 O260 1.935 1_554 S
Fe250 O261 2.077 1_554 S
Fe250 O267 1.935 . S
Fe250 O276 2.077 . S
Fe251 O249 1.715 . S
Fe251 O254 1.886 . S
Fe251 O258 1.935 1_554 S
Fe251 O263 2.077 1_554 S
Fe251 O269 1.935 . S
Fe251 O273 2.077 . S
O252 Fe248 1.715 . S
O252 Fe250 1.886 . S
O253 Fe250 1.715 . S
O253 Fe255 1.886 . S
O254 Fe251 1.886 . S
O254 Fe255 1.715 1_655 S
Fe255 O253 1.886 . S
Fe255 O254 1.715 1_455 S
Fe255 O259 2.077 1_554 S
Fe255 O264 1.935 1_454 S
Fe255 O266 2.077 . S
Fe255 O274 1.935 1_455 S
C256 O268 1.381 . S
C256 O269 1.421 . S
O257 Fe248 2.077 1_656 S
O257 C270 1.381 . S
O258 Fe251 1.935 1_556 S
O258 C270 1.421 . S
O259 Fe255 2.077 1_556 S
O259 C275 1.381 . S
O260 Fe250 1.935 1_556 S
O260 C275 1.421 . S
O261 Fe250 2.077 1_556 S
O261 C265 1.381 . S
O262 Fe248 1.935 1_556 S
O262 C265 1.421 . S
O263 Fe251 2.077 1_556 S
O263 C271 1.381 . S
O264 Fe255 1.935 1_656 S
O264 C271 1.421 . S
C265 O261 1.381 . S
C265 O262 1.421 . S
O266 Fe255 2.077 . S
O266 C278 1.381 . S
O267 Fe250 1.935 . S
O267 C278 1.421 . S
O268 Fe248 2.077 1_655 S
O268 C256 1.381 . S
O269 Fe251 1.935 . S
O269 C256 1.421 . S
C270 O257 1.381 . S
C270 O258 1.421 . S
C271 O263 1.381 . S
C271 O264 1.421 . S
C272 O273 1.381 . S
C272 O274 1.421 . S
O273 Fe251 2.077 . S
O273 C272 1.381 . S
O274 Fe255 1.935 1_655 S
O274 C272 1.421 . S
C275 O259 1.381 . S
C275 O260 1.421 . S
O276 Fe250 2.077 . S
O276 C279 1.381 . S
O277 Fe248 1.935 . S
O277 C279 1.421 . S
C278 O266 1.381 . S
C278 O267 1.421 . S
C279 O276 1.381 . S
C279 O277 1.421 . S
Fe280 O281 1.886 . S
Fe280 O284 1.715 . S
Fe280 O289 2.077 . S
Fe280 O294 1.935 . S
Fe280 O300 2.077 . S
Fe280 O309 1.935 . S
O281 Fe280 1.886 . S
O281 Fe283 1.715 1_556 S
Fe282 O284 1.886 1_554 S
Fe282 O285 1.715 . S
Fe282 O292 1.935 . S
Fe282 O293 2.077 1_554 S
Fe282 O299 1.935 . S
Fe282 O308 2.077 1_554 S
Fe283 O281 1.715 1_554 S
Fe283 O286 1.886 . S
Fe283 O290 1.935 1_554 S
Fe283 O295 2.077 . S
Fe283 O301 1.935 1_554 S
Fe283 O305 2.077 . S
O284 Fe280 1.715 . S
O284 Fe282 1.886 1_556 S
O285 Fe282 1.715 . S
O285 Fe287 1.886 . S
O286 Fe283 1.886 . S
O286 Fe287 1.715 . S
Fe287 O285 1.886 . S
Fe287 O286 1.715 . S
Fe287 O291 2.077 . S
Fe287 O296 1.935 . S
Fe287 O298 2.077 . S
Fe287 O306 1.935 . S
C288 O300 1.381 . S
C288 O301 1.421 . S
O289 Fe280 2.077 . S
O289 C302 1.381 . S
O290 Fe283 1.935 1_556 S
O290 C302 1.421 . S
O291 Fe287 2.077 . S
O291 C307 1.381 . S
O292 Fe282 1.935 . S
O292 C307 1.421 . S
O293 Fe282 2.077 1_556 S
O293 C297 1.381 . S
O294 Fe280 1.935 . S
O294 C297 1.421 . S
O295 Fe283 2.077 . S
O295 C303 1.381 . S
O296 Fe287 1.935 . S
O296 C303 1.421 . S
C297 O293 1.381 . S
C297 O294 1.421 . S
O298 Fe287 2.077 . S
O298 C310 1.381 . S
O299 Fe282 1.935 . S
O299 C310 1.421 . S
O300 Fe280 2.077 . S
O300 C288 1.381 . S
O301 Fe283 1.935 1_556 S
O301 C288 1.421 . S
C302 O289 1.381 . S
C302 O290 1.421 . S
C303 O295 1.381 . S
C303 O296 1.421 . S
C304 O305 1.381 . S
C304 O306 1.421 . S
O305 Fe283 2.077 . S
O305 C304 1.381 . S
O306 Fe287 1.935 . S
O306 C304 1.421 . S
C307 O291 1.381 . S
C307 O292 1.421 . S
O308 Fe282 2.077 1_556 S
O308 C311 1.381 . S
O309 Fe280 1.935 . S
O309 C311 1.421 . S
C310 O298 1.381 . S
C310 O299 1.421 . S
C311 O308 1.381 . S
C311 O309 1.421 . S
Fe312 O313 1.886 . S
Fe312 O316 1.715 . S
Fe312 O321 2.077 . S
Fe312 O326 1.935 . S
Fe312 O332 2.077 1_455 S
Fe312 O341 1.935 1_455 S
O313 Fe312 1.886 . S
O313 Fe315 1.715 . S
Fe314 O316 1.886 . S
Fe314 O317 1.715 . S
Fe314 O324 1.935 . S
Fe314 O325 2.077 . S
Fe314 O331 1.935 1_455 S
Fe314 O340 2.077 1_455 S
Fe315 O313 1.715 . S
Fe315 O318 1.886 . S
Fe315 O322 1.935 . S
Fe315 O327 2.077 . S
Fe315 O333 1.935 1_455 S
Fe315 O337 2.077 1_455 S
O316 Fe312 1.715 . S
O316 Fe314 1.886 . S
O317 Fe314 1.715 . S
O317 Fe319 1.886 . S
O318 Fe315 1.886 . S
O318 Fe319 1.715 . S
Fe319 O317 1.886 . S
Fe319 O318 1.715 . S
Fe319 O323 2.077 . S
Fe319 O328 1.935 . S
Fe319 O330 2.077 1_455 S
Fe319 O338 1.935 1_455 S
C320 O332 1.381 . S
C320 O333 1.421 . S
O321 Fe312 2.077 . S
O321 C334 1.381 . S
O322 Fe315 1.935 . S
O322 C334 1.421 . S
O323 Fe319 2.077 . S
O323 C339 1.381 . S
O324 Fe314 1.935 . S
O324 C339 1.421 . S
O325 Fe314 2.077 . S
O325 C329 1.381 . S
O326 Fe312 1.935 . S
O326 C329 1.421 . S
O327 Fe315 2.077 . S
O327 C335 1.381 . S
O328 Fe319 1.935 . S
O328 C335 1.421 . S
C329 O325 1.381 . S
C329 O326 1.421 . S
O330 Fe319 2.077 1_655 S
O330 C342 1.381 . S
O331 Fe314 1.935 1_655 S
O331 C342 1.421 . S
O332 Fe312 2.077 1_655 S
O332 C320 1.381 . S
O333 Fe315 1.935 1_655 S
O333 C320 1.421 . S
C334 O321 1.381 . S
C334 O322 1.421 . S
C335 O327 1.381 . S
C335 O328 1.421 . S
C336 O337 1.381 . S
C336 O338 1.421 . S
O337 Fe315 2.077 1_655 S
O337 C336 1.381 . S
O338 Fe319 1.935 1_655 S
O338 C336 1.421 . S
C339 O323 1.381 . S
C339 O324 1.421 . S
O340 Fe314 2.077 1_655 S
O340 C343 1.381 . S
O341 Fe312 1.935 1_655 S
O341 C343 1.421 . S
C342 O330 1.381 . S
C342 O331 1.421 . S
C343 O340 1.381 . S
C343 O341 1.421 . S
Fe344 O345 1.886 . S
Fe344 O348 1.715 . S
Fe344 O353 2.077 . S
Fe344 O358 1.935 . S
Fe344 O364 2.077 . S
Fe344 O373 1.935 . S
O345 Fe344 1.886 . S
O345 Fe347 1.715 1_565 S
Fe346 O348 1.886 1_545 S
Fe346 O349 1.715 . S
Fe346 O356 1.935 . S
Fe346 O357 2.077 1_545 S
Fe346 O363 1.935 . S
Fe346 O372 2.077 1_545 S
Fe347 O345 1.715 1_545 S
Fe347 O350 1.886 . S
Fe347 O354 1.935 1_545 S
Fe347 O359 2.077 . S
Fe347 O365 1.935 1_545 S
Fe347 O369 2.077 . S
O348 Fe344 1.715 . S
O348 Fe346 1.886 1_565 S
O349 Fe346 1.715 . S
O349 Fe351 1.886 . S
O350 Fe347 1.886 . S
O350 Fe351 1.715 . S
Fe351 O349 1.886 . S
Fe351 O350 1.715 . S
Fe351 O355 2.077 . S
Fe351 O360 1.935 . S
Fe351 O362 2.077 . S
Fe351 O370 1.935 . S
C352 O364 1.381 . S
C352 O365 1.421 . S
O353 Fe344 2.077 . S
O353 C366 1.381 . S
O354 Fe347 1.935 1_565 S
O354 C366 1.421 . S
O355 Fe351 2.077 . S
O355 C371 1.381 . S
O356 Fe346 1.935 . S
O356 C371 1.421 . S
O357 Fe346 2.077 1_565 S
O357 C361 1.381 . S
O358 Fe344 1.935 . S
O358 C361 1.421 . S
O359 Fe347 2.077 . S
O359 C367 1.381 . S
O360 Fe351 1.935 . S
O360 C367 1.421 . S
C361 O357 1.381 . S
C361 O358 1.421 . S
O362 Fe351 2.077 . S
O362 C374 1.381 . S
O363 Fe346 1.935 . S
O363 C374 1.421 . S
O364 Fe344 2.077 . S
O364 C352 1.381 . S
O365 Fe347 1.935 1_565 S
O365 C352 1.421 . S
C366 O353 1.381 . S
C366 O354 1.421 . S
C367 O359 1.381 . S
C367 O360 1.421 . S
C368 O369 1.381 . S
C368 O370 1.421 . S
O369 Fe347 2.077 . S
O369 C368 1.381 . S
O370 Fe351 1.935 . S
O370 C368 1.421 . S
C371 O355 1.381 . S
C371 O356 1.421 . S
O372 Fe346 2.077 1_565 S
O372 C375 1.381 . S
O373 Fe344 1.935 . S
O373 C375 1.421 . S
C374 O362 1.381 . S
C374 O363 1.421 . S
C375 O372 1.381 . S
C375 O373 1.421 . S
C201 C17 1.777 . S
C206 C44 2.227 . S
C207 C63 1.827 . S
C87 C211 1.675 . S
C110 C214 1.667 . S
C215 C131 1.875 . S
C159 C192 2.190 . S
C177 C208 1.827 . S
C246 C20 1.629 . S
C42 C272 1.341 . S
C224 C66 1.765 . S
C279 C86 1.387 . S
C109 C233 1.443 . S
C275 C136 1.917 . S
C157 C239 1.374 . S
C182 C270 1.774 . S
C18 C278 1.351 . S
C112 C265 1.522 . S
C243 C134 1.189 . S
C271 C154 1.546 . S
C180 C238 1.230 . S
C64 C256 1.297 . S
C247 C89 1.601 . S
C39 C240 1.632 . S
C178 C302 1.454 . S
C113 C297 1.723 . S
C311 C132 1.420 . S
C288 C156 1.309 . S
C41 C304 1.423 . S
C303 C62 1.456 . S
C90 C307 1.859 . S
C16 C310 1.473 . S
C181 C336 2.001 . S
C352 C111 1.382 . S
C135 C334 2.128 . S
C155 C367 1.369 . S
C343 C40 1.737 . S
C67 C361 1.754 . S
C339 C88 1.572 . S
C374 C21 1.732 . S
C366 C179 1.552 . S
C43 C371 1.820 . S
C65 C342 1.431 . S
C375 C85 1.634 . S
C19 C329 1.502 . S
C133 C368 1.467 . S
C320 C158 2.058 . S
C335 C108 1.990 . S
