# Generated by pormake.
# Topology gar, (4,6)-cn, num edge types: 1
# Building blocks:
#     Node 0, Type 0, BuildingBlock: TATPOV_clean_sbu_0, # of connection points: 4
#     Node 1, Type 0, BuildingBlock: TATPOV_clean_sbu_0, # of connection points: 4
#     Node 2, Type 0, BuildingBlock: TATPOV_clean_sbu_0, # of connection points: 4
#     Node 3, Type 0, BuildingBlock: TATPOV_clean_sbu_0, # of connection points: 4
#     Node 4, Type 0, BuildingBlock: TATPOV_clean_sbu_0, # of connection points: 4
#     Node 5, Type 0, BuildingBlock: TATPOV_clean_sbu_0, # of connection points: 4
#     Node 6, Type 0, BuildingBlock: TATPOV_clean_sbu_0, # of connection points: 4
#     Node 7, Type 0, BuildingBlock: TATPOV_clean_sbu_0, # of connection points: 4
#     Node 8, Type 0, BuildingBlock: TATPOV_clean_sbu_0, # of connection points: 4
#     Node 9, Type 0, BuildingBlock: TATPOV_clean_sbu_0, # of connection points: 4
#     Node 10, Type 0, BuildingBlock: TATPOV_clean_sbu_0, # of connection points: 4
#     Node 11, Type 0, BuildingBlock: TATPOV_clean_sbu_0, # of connection points: 4
#     Node 12, Type 0, BuildingBlock: TATPOV_clean_sbu_0, # of connection points: 4
#     Node 13, Type 0, BuildingBlock: TATPOV_clean_sbu_0, # of connection points: 4
#     Node 14, Type 0, BuildingBlock: TATPOV_clean_sbu_0, # of connection points: 4
#     Node 15, Type 0, BuildingBlock: TATPOV_clean_sbu_0, # of connection points: 4
#     Node 16, Type 0, BuildingBlock: TATPOV_clean_sbu_0, # of connection points: 4
#     Node 17, Type 0, BuildingBlock: TATPOV_clean_sbu_0, # of connection points: 4
#     Node 18, Type 0, BuildingBlock: TATPOV_clean_sbu_0, # of connection points: 4
#     Node 19, Type 0, BuildingBlock: TATPOV_clean_sbu_0, # of connection points: 4
#     Node 20, Type 0, BuildingBlock: TATPOV_clean_sbu_0, # of connection points: 4
#     Node 21, Type 0, BuildingBlock: TATPOV_clean_sbu_0, # of connection points: 4
#     Node 22, Type 0, BuildingBlock: TATPOV_clean_sbu_0, # of connection points: 4
#     Node 23, Type 0, BuildingBlock: TATPOV_clean_sbu_0, # of connection points: 4
#     Node 24, Type 1, BuildingBlock: BETDIP_clean_sbu_0, # of connection points: 6
#     Node 25, Type 1, BuildingBlock: BETDIP_clean_sbu_0, # of connection points: 6
#     Node 26, Type 1, BuildingBlock: BETDIP_clean_sbu_0, # of connection points: 6
#     Node 27, Type 1, BuildingBlock: BETDIP_clean_sbu_0, # of connection points: 6
#     Node 28, Type 1, BuildingBlock: BETDIP_clean_sbu_0, # of connection points: 6
#     Node 29, Type 1, BuildingBlock: BETDIP_clean_sbu_0, # of connection points: 6
#     Node 30, Type 1, BuildingBlock: BETDIP_clean_sbu_0, # of connection points: 6
#     Node 31, Type 1, BuildingBlock: BETDIP_clean_sbu_0, # of connection points: 6
#     Node 32, Type 1, BuildingBlock: BETDIP_clean_sbu_0, # of connection points: 6
#     Node 33, Type 1, BuildingBlock: BETDIP_clean_sbu_0, # of connection points: 6
#     Node 34, Type 1, BuildingBlock: BETDIP_clean_sbu_0, # of connection points: 6
#     Node 35, Type 1, BuildingBlock: BETDIP_clean_sbu_0, # of connection points: 6
#     Node 36, Type 1, BuildingBlock: BETDIP_clean_sbu_0, # of connection points: 6
#     Node 37, Type 1, BuildingBlock: BETDIP_clean_sbu_0, # of connection points: 6
#     Node 38, Type 1, BuildingBlock: BETDIP_clean_sbu_0, # of connection points: 6
#     Node 39, Type 1, BuildingBlock: BETDIP_clean_sbu_0, # of connection points: 6
#     Edge 40, Type (0, 1), BuildingBlock: KIFKEQ_clean_linker_1, # of connection points: 2
#     Edge 41, Type (0, 1), BuildingBlock: KIFKEQ_clean_linker_1, # of connection points: 2
#     Edge 42, Type (0, 1), BuildingBlock: KIFKEQ_clean_linker_1, # of connection points: 2
#     Edge 43, Type (0, 1), BuildingBlock: KIFKEQ_clean_linker_1, # of connection points: 2
#     Edge 44, Type (0, 1), BuildingBlock: KIFKEQ_clean_linker_1, # of connection points: 2
#     Edge 45, Type (0, 1), BuildingBlock: KIFKEQ_clean_linker_1, # of connection points: 2
#     Edge 46, Type (0, 1), BuildingBlock: KIFKEQ_clean_linker_1, # of connection points: 2
#     Edge 47, Type (0, 1), BuildingBlock: KIFKEQ_clean_linker_1, # of connection points: 2
#     Edge 48, Type (0, 1), BuildingBlock: KIFKEQ_clean_linker_1, # of connection points: 2
#     Edge 49, Type (0, 1), BuildingBlock: KIFKEQ_clean_linker_1, # of connection points: 2
#     Edge 50, Type (0, 1), BuildingBlock: KIFKEQ_clean_linker_1, # of connection points: 2
#     Edge 51, Type (0, 1), BuildingBlock: KIFKEQ_clean_linker_1, # of connection points: 2
#     Edge 52, Type (0, 1), BuildingBlock: KIFKEQ_clean_linker_1, # of connection points: 2
#     Edge 53, Type (0, 1), BuildingBlock: KIFKEQ_clean_linker_1, # of connection points: 2
#     Edge 54, Type (0, 1), BuildingBlock: KIFKEQ_clean_linker_1, # of connection points: 2
#     Edge 55, Type (0, 1), BuildingBlock: KIFKEQ_clean_linker_1, # of connection points: 2
#     Edge 56, Type (0, 1), BuildingBlock: KIFKEQ_clean_linker_1, # of connection points: 2
#     Edge 57, Type (0, 1), BuildingBlock: KIFKEQ_clean_linker_1, # of connection points: 2
#     Edge 58, Type (0, 1), BuildingBlock: KIFKEQ_clean_linker_1, # of connection points: 2
#     Edge 59, Type (0, 1), BuildingBlock: KIFKEQ_clean_linker_1, # of connection points: 2
#     Edge 60, Type (0, 1), BuildingBlock: KIFKEQ_clean_linker_1, # of connection points: 2
#     Edge 61, Type (0, 1), BuildingBlock: KIFKEQ_clean_linker_1, # of connection points: 2
#     Edge 62, Type (0, 1), BuildingBlock: KIFKEQ_clean_linker_1, # of connection points: 2
#     Edge 63, Type (0, 1), BuildingBlock: KIFKEQ_clean_linker_1, # of connection points: 2
#     Edge 64, Type (0, 1), BuildingBlock: KIFKEQ_clean_linker_1, # of connection points: 2
#     Edge 65, Type (0, 1), BuildingBlock: KIFKEQ_clean_linker_1, # of connection points: 2
#     Edge 66, Type (0, 1), BuildingBlock: KIFKEQ_clean_linker_1, # of connection points: 2
#     Edge 67, Type (0, 1), BuildingBlock: KIFKEQ_clean_linker_1, # of connection points: 2
#     Edge 68, Type (0, 1), BuildingBlock: KIFKEQ_clean_linker_1, # of connection points: 2
#     Edge 69, Type (0, 1), BuildingBlock: KIFKEQ_clean_linker_1, # of connection points: 2
#     Edge 70, Type (0, 1), BuildingBlock: KIFKEQ_clean_linker_1, # of connection points: 2
#     Edge 71, Type (0, 1), BuildingBlock: KIFKEQ_clean_linker_1, # of connection points: 2
#     Edge 72, Type (0, 1), BuildingBlock: KIFKEQ_clean_linker_1, # of connection points: 2
#     Edge 73, Type (0, 1), BuildingBlock: KIFKEQ_clean_linker_1, # of connection points: 2
#     Edge 74, Type (0, 1), BuildingBlock: KIFKEQ_clean_linker_1, # of connection points: 2
#     Edge 75, Type (0, 1), BuildingBlock: KIFKEQ_clean_linker_1, # of connection points: 2
#     Edge 76, Type (0, 1), BuildingBlock: KIFKEQ_clean_linker_1, # of connection points: 2
#     Edge 77, Type (0, 1), BuildingBlock: KIFKEQ_clean_linker_1, # of connection points: 2
#     Edge 78, Type (0, 1), BuildingBlock: KIFKEQ_clean_linker_1, # of connection points: 2
#     Edge 79, Type (0, 1), BuildingBlock: KIFKEQ_clean_linker_1, # of connection points: 2
#     Edge 80, Type (0, 1), BuildingBlock: KIFKEQ_clean_linker_1, # of connection points: 2
#     Edge 81, Type (0, 1), BuildingBlock: KIFKEQ_clean_linker_1, # of connection points: 2
#     Edge 82, Type (0, 1), BuildingBlock: KIFKEQ_clean_linker_1, # of connection points: 2
#     Edge 83, Type (0, 1), BuildingBlock: KIFKEQ_clean_linker_1, # of connection points: 2
#     Edge 84, Type (0, 1), BuildingBlock: KIFKEQ_clean_linker_1, # of connection points: 2
#     Edge 85, Type (0, 1), BuildingBlock: KIFKEQ_clean_linker_1, # of connection points: 2
#     Edge 86, Type (0, 1), BuildingBlock: KIFKEQ_clean_linker_1, # of connection points: 2
#     Edge 87, Type (0, 1), BuildingBlock: KIFKEQ_clean_linker_1, # of connection points: 2
#     Edge 88, Type (0, 1), BuildingBlock: KIFKEQ_clean_linker_1, # of connection points: 2
#     Edge 89, Type (0, 1), BuildingBlock: KIFKEQ_clean_linker_1, # of connection points: 2
#     Edge 90, Type (0, 1), BuildingBlock: KIFKEQ_clean_linker_1, # of connection points: 2
#     Edge 91, Type (0, 1), BuildingBlock: KIFKEQ_clean_linker_1, # of connection points: 2
#     Edge 92, Type (0, 1), BuildingBlock: KIFKEQ_clean_linker_1, # of connection points: 2
#     Edge 93, Type (0, 1), BuildingBlock: KIFKEQ_clean_linker_1, # of connection points: 2
#     Edge 94, Type (0, 1), BuildingBlock: KIFKEQ_clean_linker_1, # of connection points: 2
#     Edge 95, Type (0, 1), BuildingBlock: KIFKEQ_clean_linker_1, # of connection points: 2
#     Edge 96, Type (0, 1), BuildingBlock: KIFKEQ_clean_linker_1, # of connection points: 2
#     Edge 97, Type (0, 1), BuildingBlock: KIFKEQ_clean_linker_1, # of connection points: 2
#     Edge 98, Type (0, 1), BuildingBlock: KIFKEQ_clean_linker_1, # of connection points: 2
#     Edge 99, Type (0, 1), BuildingBlock: KIFKEQ_clean_linker_1, # of connection points: 2
#     Edge 100, Type (0, 1), BuildingBlock: KIFKEQ_clean_linker_1, # of connection points: 2
#     Edge 101, Type (0, 1), BuildingBlock: KIFKEQ_clean_linker_1, # of connection points: 2
#     Edge 102, Type (0, 1), BuildingBlock: KIFKEQ_clean_linker_1, # of connection points: 2
#     Edge 103, Type (0, 1), BuildingBlock: KIFKEQ_clean_linker_1, # of connection points: 2
#     Edge 104, Type (0, 1), BuildingBlock: KIFKEQ_clean_linker_1, # of connection points: 2
#     Edge 105, Type (0, 1), BuildingBlock: KIFKEQ_clean_linker_1, # of connection points: 2
#     Edge 106, Type (0, 1), BuildingBlock: KIFKEQ_clean_linker_1, # of connection points: 2
#     Edge 107, Type (0, 1), BuildingBlock: KIFKEQ_clean_linker_1, # of connection points: 2
#     Edge 108, Type (0, 1), BuildingBlock: KIFKEQ_clean_linker_1, # of connection points: 2
#     Edge 109, Type (0, 1), BuildingBlock: KIFKEQ_clean_linker_1, # of connection points: 2
#     Edge 110, Type (0, 1), BuildingBlock: KIFKEQ_clean_linker_1, # of connection points: 2
#     Edge 111, Type (0, 1), BuildingBlock: KIFKEQ_clean_linker_1, # of connection points: 2
#     Edge 112, Type (0, 1), BuildingBlock: KIFKEQ_clean_linker_1, # of connection points: 2
#     Edge 113, Type (0, 1), BuildingBlock: KIFKEQ_clean_linker_1, # of connection points: 2
#     Edge 114, Type (0, 1), BuildingBlock: KIFKEQ_clean_linker_1, # of connection points: 2
#     Edge 115, Type (0, 1), BuildingBlock: KIFKEQ_clean_linker_1, # of connection points: 2
#     Edge 116, Type (0, 1), BuildingBlock: KIFKEQ_clean_linker_1, # of connection points: 2
#     Edge 117, Type (0, 1), BuildingBlock: KIFKEQ_clean_linker_1, # of connection points: 2
#     Edge 118, Type (0, 1), BuildingBlock: KIFKEQ_clean_linker_1, # of connection points: 2
#     Edge 119, Type (0, 1), BuildingBlock: KIFKEQ_clean_linker_1, # of connection points: 2
#     Edge 120, Type (0, 1), BuildingBlock: KIFKEQ_clean_linker_1, # of connection points: 2
#     Edge 121, Type (0, 1), BuildingBlock: KIFKEQ_clean_linker_1, # of connection points: 2
#     Edge 122, Type (0, 1), BuildingBlock: KIFKEQ_clean_linker_1, # of connection points: 2
#     Edge 123, Type (0, 1), BuildingBlock: KIFKEQ_clean_linker_1, # of connection points: 2
#     Edge 124, Type (0, 1), BuildingBlock: KIFKEQ_clean_linker_1, # of connection points: 2
#     Edge 125, Type (0, 1), BuildingBlock: KIFKEQ_clean_linker_1, # of connection points: 2
#     Edge 126, Type (0, 1), BuildingBlock: KIFKEQ_clean_linker_1, # of connection points: 2
#     Edge 127, Type (0, 1), BuildingBlock: KIFKEQ_clean_linker_1, # of connection points: 2
#     Edge 128, Type (0, 1), BuildingBlock: KIFKEQ_clean_linker_1, # of connection points: 2
#     Edge 129, Type (0, 1), BuildingBlock: KIFKEQ_clean_linker_1, # of connection points: 2
#     Edge 130, Type (0, 1), BuildingBlock: KIFKEQ_clean_linker_1, # of connection points: 2
#     Edge 131, Type (0, 1), BuildingBlock: KIFKEQ_clean_linker_1, # of connection points: 2
#     Edge 132, Type (0, 1), BuildingBlock: KIFKEQ_clean_linker_1, # of connection points: 2
#     Edge 133, Type (0, 1), BuildingBlock: KIFKEQ_clean_linker_1, # of connection points: 2
#     Edge 134, Type (0, 1), BuildingBlock: KIFKEQ_clean_linker_1, # of connection points: 2
#     Edge 135, Type (0, 1), BuildingBlock: KIFKEQ_clean_linker_1, # of connection points: 2
# Relax obj value: 0.195
# Max RMSD: 0.308
# Mean RMSD: 0.165
data_MOF--net-gar--node1-TATPOV_clean_sbu_0--node2-BETDIP_clean_sbu_0--edge1-KIFKEQ_clean_linker_1
_symmetry_space_group_name_H-M    P1
_symmetry_Int_Tables_number       1
_symmetry_cell_setting            triclinic
loop_
_symmetry_equiv_pos_as_xyz
'x, y, z'
_cell_length_a     64.212981
_cell_length_b     57.92662
_cell_length_c     55.831175
_cell_angle_alpha  97.907151
_cell_angle_beta   99.362798
_cell_angle_gamma 102.68041
loop_
_atom_site_label
_atom_site_type_symbol
_atom_site_fract_x
_atom_site_fract_y
_atom_site_fract_z
_atom_type_partial_charge
Zn0 Zn 1.00189 0.27944 0.43411 0.0
Zn1 Zn 0.02579 0.29969 0.40418 0.0
O2 O 0.03257 0.32751 0.43331 0.0
O3 O 0.01328 0.31061 0.45839 0.0
O4 O 0.04586 0.30945 0.38114 0.0
O5 O 0.01587 0.25231 0.43532 0.0
O6 O 0.03623 0.26978 0.41163 0.0
C7 C 0.02584 0.32878 0.45361 0.0
C8 C 0.97622 0.28446 0.38934 0.0
O9 O 0.99445 0.29499 0.38492 0.0
O10 O 0.97526 0.27547 0.40863 0.0
C11 C 0.0432 0.29388 0.36175 0.0
O12 O 0.0259 0.27567 0.35659 0.0
C13 C 0.03104 0.25283 0.42343 0.0
Zn14 Zn 0.07155 0.72481 0.75192 0.0
Zn15 Zn 0.06635 0.75757 0.72191 0.0
O16 O 0.04794 0.76304 0.74712 0.0
O17 O 0.05028 0.73678 0.77174 0.0
O18 O 0.06121 0.7809 0.7002 0.0
O19 O 0.10443 0.74129 0.7581 0.0
O20 O 0.09876 0.76704 0.73371 0.0
C21 C 0.0427 0.75398 0.7654 0.0
C22 C 0.05551 0.70431 0.69989 0.0
O23 O 0.05696 0.72616 0.69798 0.0
O24 O 0.06006 0.69866 0.72095 0.0
C25 C 0.04211 0.77924 0.68852 0.0
O26 O 0.02587 0.7622 0.69127 0.0
C27 C 0.11177 0.75859 0.74758 0.0
Zn28 Zn 0.52142 0.78914 0.95655 0.0
Zn29 Zn 0.53814 0.80653 0.92012 0.0
O30 O 0.54874 0.83493 0.94912 0.0
O31 O 0.53908 0.81891 0.98045 0.0
O32 O 0.55367 0.81631 0.8931 0.0
O33 O 0.53217 0.75931 0.95034 0.0
O34 O 0.54967 0.77679 0.92432 0.0
C35 C 0.54826 0.83687 0.97205 0.0
C36 C 0.48904 0.79481 0.91723 0.0
O37 O 0.50514 0.80039 0.90662 0.0
O38 O 0.49197 0.78994 0.93876 0.0
C39 C 0.54921 0.80092 0.87323 0.0
O40 O 0.53253 0.78224 0.87012 0.0
C41 C 0.54525 0.75937 0.93569 0.0
Zn42 Zn 0.54761 0.20932 0.23028 0.0
Zn43 Zn 0.55442 0.25078 0.21134 0.0
O44 O 0.53504 0.25612 0.23547 0.0
O45 O 0.53063 0.2245 0.25362 0.0
O46 O 0.55771 0.28014 0.19625 0.0
O47 O 0.58107 0.21572 0.23749 0.0
O48 O 0.58508 0.25118 0.22616 0.0
C49 C 0.52719 0.2449 0.25128 0.0
C50 C 0.53359 0.2019 0.17769 0.0
O51 O 0.54205 0.22439 0.18141 0.0
O52 O 0.53224 0.19099 0.19579 0.0
C53 C 0.56972 0.28296 0.18039 0.0
O54 O 0.58042 0.26671 0.17483 0.0
C55 C 0.59323 0.23518 0.2346 0.0
Zn56 Zn 0.1024 0.80508 0.12943 0.0
Zn57 Zn 0.07626 0.80338 0.16065 0.0
O58 O 0.0735 0.83295 0.14298 0.0
O59 O 0.09457 0.83251 0.1156 0.0
O60 O 0.05115 0.80093 0.17975 0.0
O61 O 0.08902 0.77175 0.11133 0.0
O62 O 0.06802 0.76899 0.13875 0.0
C63 C 0.08129 0.84174 0.12555 0.0
C64 C 0.12494 0.8097 0.18003 0.0
O65 O 0.10601 0.80795 0.18525 0.0
O66 O 0.12728 0.80976 0.15794 0.0
C67 C 0.05164 0.80925 0.20225 0.0
O68 O 0.07042 0.82077 0.21658 0.0
C69 C 0.0744 0.75932 0.12019 0.0
Zn70 Zn 0.48571 0.76072 0.47411 0.0
Zn71 Zn 0.51021 0.76159 0.44105 0.0
O72 O 0.52054 0.79593 0.46302 0.0
O73 O 0.50103 0.79371 0.49194 0.0
O74 O 0.53276 0.76234 0.4186 0.0
O75 O 0.49327 0.73258 0.48666 0.0
O76 O 0.51327 0.73184 0.4582 0.0
C77 C 0.51536 0.80575 0.48239 0.0
C78 C 0.46121 0.75719 0.42496 0.0
O79 O 0.47966 0.75814 0.41868 0.0
O80 O 0.45972 0.75727 0.44731 0.0
C81 C 0.55263 0.76587 0.42925 0.0
O82 O 0.55726 0.7688 0.45346 0.0
C83 C 0.50595 0.72305 0.47587 0.0
Zn84 Zn 0.60073 0.30714 0.62964 0.0
Zn85 Zn 0.57516 0.30405 0.66055 0.0
O86 O 0.57131 0.33342 0.6429 0.0
O87 O 0.5908 0.33252 0.61398 0.0
O88 O 0.55206 0.30221 0.68247 0.0
O89 O 0.58982 0.27292 0.61385 0.0
O90 O 0.56662 0.26942 0.63895 0.0
C91 C 0.57792 0.34177 0.62465 0.0
C92 C 0.62475 0.31288 0.67858 0.0
O93 O 0.60572 0.30891 0.68379 0.0
O94 O 0.62689 0.31474 0.65674 0.0
C95 C 0.53277 0.30253 0.67256 0.0
O96 O 0.52871 0.30408 0.64908 0.0
C97 C 0.57481 0.26005 0.62179 0.0
Zn98 Zn 0.98423 0.25972 0.97503 0.0
Zn99 Zn 1.00947 0.26086 0.94298 0.0
O100 O 0.01942 0.29501 0.96532 0.0
O101 O 1.00033 0.29203 0.99456 0.0
O102 O 0.03242 0.26171 0.92088 0.0
O103 O 0.98943 0.22977 0.98567 0.0
O104 O 1.01202 0.23078 0.95995 0.0
C105 C 0.01445 0.30443 0.98502 0.0
C106 C 0.96072 0.25785 0.92595 0.0
O107 O 0.97915 0.25779 0.91995 0.0
O108 O 0.95894 0.25836 0.94825 0.0
C109 C 0.05247 0.2706 0.93089 0.0
O110 O 0.05754 0.27907 0.95472 0.0
C111 C 1.00296 0.22074 0.97598 0.0
Zn112 Zn 0.44076 0.0278 0.28821 0.0
Zn113 Zn 0.41806 0.05911 0.2904 0.0
O114 O 0.43922 0.06365 0.32843 0.0
O115 O 0.45839 0.03693 0.32266 0.0
O116 O 0.40173 0.09096 0.29092 0.0
O117 O 0.45554 0.03387 0.26003 0.0
O118 O 0.43516 0.05963 0.25658 0.0
C119 C 0.45375 0.05287 0.33725 0.0
C120 C 0.39627 1.00235 0.28406 0.0
O121 O 0.39366 0.0241 0.28719 0.0
O122 O 0.41497 0.99939 0.28247 0.0
C123 C 0.38356 0.09394 0.29692 0.0
O124 O 0.37156 0.07575 0.3041 0.0
C125 C 0.4491 0.04889 0.24815 0.0
Zn126 Zn 0.2372 0.18561 0.52337 0.0
Zn127 Zn 0.26815 0.16295 0.52631 0.0
O128 O 0.27044 0.18148 0.49612 0.0
O129 O 0.24502 0.20151 0.49573 0.0
O130 O 0.29305 0.14572 0.52594 0.0
O131 O 0.24897 0.20325 0.55807 0.0
O132 O 0.2758 0.18514 0.561 0.0
C133 C 0.26057 0.19616 0.48684 0.0
C134 C 0.21955 0.13558 0.51934 0.0
O135 O 0.23974 0.13551 0.52362 0.0
O136 O 0.214 0.15489 0.51687 0.0
C137 C 0.30329 0.14026 0.54504 0.0
O138 O 0.29748 0.14526 0.56628 0.0
C139 C 0.26601 0.19993 0.57056 0.0
Zn140 Zn 0.12349 0.08898 0.82989 0.0
Zn141 Zn 0.14658 0.0561 0.82607 0.0
O142 O 0.13201 0.05008 0.85594 0.0
O143 O 0.11281 0.07709 0.85891 0.0
O144 O 0.16412 0.03108 0.82438 0.0
O145 O 0.10741 0.07595 0.79491 0.0
O146 O 0.12612 0.0484 0.79168 0.0
C147 C 0.11927 0.05987 0.86676 0.0
C148 C 0.16883 0.11025 0.83429 0.0
O149 O 0.16988 0.08832 0.83109 0.0
O150 O 0.15075 0.11534 0.83512 0.0
C151 C 0.17708 0.02976 0.84368 0.0
O152 O 0.17886 0.04492 0.86414 0.0
C153 C 0.1118 0.05847 0.78218 0.0
Zn154 Zn 0.285 0.8544 0.96793 0.0
Zn155 Zn 0.25312 0.87478 0.97682 0.0
O156 O 0.23512 0.84423 0.95277 0.0
O157 O 0.26124 0.82534 0.95108 0.0
O158 O 0.23189 0.89215 0.98827 0.0
O159 O 0.29724 0.85718 1.00391 0.0
O160 O 0.26834 0.86984 0.01005 0.0
C161 C 0.24132 0.82545 0.94574 0.0
C162 C 0.28833 0.89906 0.95102 0.0
O163 O 0.27231 0.89931 0.96167 0.0
O164 O 0.29628 0.88086 0.94963 0.0
C165 C 0.22854 0.91106 0.98093 0.0
O166 O 0.23719 0.9183 0.96266 0.0
C167 C 0.28565 0.86387 0.01844 0.0
Zn168 Zn 0.34617 0.36926 0.07963 0.0
Zn169 Zn 0.32082 0.39776 0.07923 0.0
O170 O 0.31104 0.37572 0.04402 0.0
O171 O 0.33185 0.35031 0.04641 0.0
O172 O 0.29795 0.41812 0.0802 0.0
O173 O 0.33972 0.35621 0.10916 0.0
O174 O 0.31728 0.37989 0.10989 0.0
C175 C 0.3171 0.35769 0.03414 0.0
C176 C 0.3703 0.41743 0.08211 0.0
O177 O 0.35155 0.42189 0.08164 0.0
O178 O 0.37215 0.39613 0.08205 0.0
C179 C 0.28644 0.42195 0.06093 0.0
O180 O 0.28997 0.41377 0.0392 0.0
C181 C 0.32575 0.36414 0.11906 0.0
Zn182 Zn 0.84356 0.22987 0.15051 0.0
Zn183 Zn 0.86198 0.19724 0.12944 0.0
O184 O 0.85699 0.21918 0.10465 0.0
O185 O 0.83893 0.24388 0.11993 0.0
O186 O 0.87235 0.17277 0.10903 0.0
O187 O 0.87246 0.24144 0.17385 0.0
O188 O 0.88593 0.21145 0.16027 0.0
C189 C 0.84732 0.23599 0.10256 0.0
C190 C 0.8192 0.1817 0.14743 0.0
O191 O 0.83406 0.17733 0.13632 0.0
O192 O 0.81973 0.20316 0.15647 0.0
C193 C 0.86819 0.15072 0.11093 0.0
O194 O 0.85865 0.14371 0.12872 0.0
C195 C 0.88765 0.23063 0.17539 0.0
Zn196 Zn 0.14714 0.54045 0.31572 0.0
Zn197 Zn 0.17134 0.51031 0.31649 0.0
O198 O 0.15424 0.51028 0.3501 0.0
O199 O 0.13266 0.53447 0.34419 0.0
O200 O 0.18729 0.4784 0.31527 0.0
O201 O 0.12995 0.53038 0.28091 0.0
O202 O 0.151 0.5052 0.27812 0.0
C203 C 0.13972 0.52071 0.35743 0.0
C204 C 0.19202 0.56684 0.32185 0.0
O205 O 0.19541 0.54544 0.32006 0.0
O206 O 0.17282 0.56911 0.32155 0.0
C207 C 0.20736 0.47693 0.32149 0.0
O208 O 0.22212 0.49724 0.3304 0.0
C209 C 0.13613 0.51469 0.26771 0.0
Zn210 Zn 0.8453 0.86932 0.57923 0.0
Zn211 Zn 0.82051 0.8986 0.57697 0.0
O212 O 0.8109 0.87591 0.54241 0.0
O213 O 0.82912 0.84832 0.5472 0.0
O214 O 0.7985 0.91987 0.57584 0.0
O215 O 0.8402 0.86071 0.61139 0.0
O216 O 0.81565 0.88191 0.60793 0.0
C217 C 0.81565 0.85652 0.53381 0.0
C218 C 0.86992 0.91653 0.57845 0.0
O219 O 0.85166 0.92185 0.57936 0.0
O220 O 0.87118 0.89501 0.57809 0.0
C221 C 0.77821 0.9097 0.57212 0.0
O222 O 0.77226 0.88611 0.5691 0.0
C223 C 0.82518 0.86823 0.61945 0.0
Zn224 Zn 0.96731 0.96888 0.26753 0.0
Zn225 Zn 0.94389 1.00181 0.27092 0.0
O226 O 0.96434 1.00948 0.30497 0.0
O227 O 0.98506 0.98404 0.30164 0.0
O228 O 0.92766 0.02782 0.27252 0.0
O229 O 0.97642 0.97938 0.237 0.0
O230 O 0.95805 1.00709 0.24085 0.0
C231 C 0.97983 1.00095 0.31433 0.0
C232 C 0.92142 0.9484 0.26491 0.0
O233 O 0.92026 0.97024 0.26655 0.0
O234 O 0.93959 0.9432 0.26485 0.0
C235 C 0.91544 0.03048 0.28791 0.0
O236 O 0.91291 0.01551 0.30349 0.0
C237 C 0.97015 0.99682 0.22943 0.0
Zn238 Zn 0.30039 0.685 0.63139 0.0
Zn239 Zn 0.33057 0.66603 0.61209 0.0
O240 O 0.31243 0.67647 0.58426 0.0
O241 O 0.28666 0.69057 0.59806 0.0
O242 O 0.34944 0.65064 0.59344 0.0
O243 O 0.32626 0.71008 0.65158 0.0
O244 O 0.3511 0.694 0.63749 0.0
C245 C 0.29595 0.68523 0.5805 0.0
C246 C 0.29869 0.63604 0.63771 0.0
O247 O 0.31407 0.6382 0.62579 0.0
O248 O 0.29037 0.65357 0.6428 0.0
C249 C 0.33933 0.63452 0.57487 0.0
O250 O 0.31792 0.62882 0.56998 0.0
C251 C 0.34598 0.71031 0.65135 0.0
Zn252 Zn 0.46214 0.47399 0.76848 0.0
Zn253 Zn 0.43983 0.50794 0.77387 0.0
O254 O 0.46083 0.5156 0.80784 0.0
O255 O 0.47962 0.48827 0.80295 0.0
O256 O 0.42233 0.53307 0.77388 0.0
O257 O 0.47072 0.48441 0.73769 0.0
O258 O 0.45401 0.51346 0.74377 0.0
C259 C 0.47555 0.50558 0.81637 0.0
C260 C 0.41698 0.45393 0.76694 0.0
O261 O 0.4163 0.47598 0.76974 0.0
O262 O 0.43477 0.44832 0.76554 0.0
C263 C 0.42515 0.55157 0.79036 0.0
O264 O 0.44025 0.55516 0.81037 0.0
C265 C 0.46514 0.50266 0.73136 0.0
Zn266 Zn 0.64782 0.04222 0.81654 0.0
Zn267 Zn 0.67097 1.01135 0.81585 0.0
O268 O 0.65373 1.01159 0.84944 0.0
O269 O 0.63278 0.03662 0.84458 0.0
O270 O 0.68707 0.97945 0.81616 0.0
O271 O 0.63055 0.03249 0.78197 0.0
O272 O 0.65026 1.00614 0.77747 0.0
C273 C 0.6395 0.02227 0.8572 0.0
C274 C 0.69243 0.06797 0.82164 0.0
O275 O 0.69533 0.04634 0.81911 0.0
O276 O 0.67352 0.07071 0.82237 0.0
C277 C 0.70577 0.97664 0.8117 0.0
O278 O 0.71862 0.99515 0.80595 0.0
C279 C 0.63565 0.01647 0.76796 0.0
Zn280 Zn 0.73967 0.69019 0.02566 0.0
Zn281 Zn 0.76741 0.66236 0.02657 0.0
O282 O 0.77136 0.6814 0.99711 0.0
O283 O 0.74637 0.70213 0.99533 0.0
O284 O 0.79078 0.64297 0.02555 0.0
O285 O 0.7552 0.70873 0.05952 0.0
O286 O 0.77613 0.68331 0.06169 0.0
C287 C 0.76171 0.69573 0.98687 0.0
C288 C 0.71802 0.64037 0.02179 0.0
O289 O 0.7373 0.63729 0.02308 0.0
O290 O 0.7149 0.66125 0.02227 0.0
C291 C 0.80008 0.63609 0.0443 0.0
O292 O 0.79387 0.6405 0.0654 0.0
C293 C 0.76998 0.7012 0.07163 0.0
Zn294 Zn 0.94124 0.52833 0.78961 0.0
Zn295 Zn 0.91878 0.55964 0.79089 0.0
O296 O 0.93955 0.564 0.8293 0.0
O297 O 0.95856 0.53703 0.82409 0.0
O298 O 0.90248 0.59161 0.7912 0.0
O299 O 0.95651 0.53412 0.76193 0.0
O300 O 0.93649 0.5601 0.75754 0.0
C301 C 0.95388 0.55312 0.83845 0.0
C302 C 0.89673 0.50286 0.78378 0.0
O303 O 0.89412 0.5246 0.78674 0.0
O304 O 0.91558 0.49991 0.78314 0.0
C305 C 0.88342 0.59389 0.79491 0.0
O306 O 0.87032 0.57481 0.79934 0.0
C307 C 0.95051 0.54911 0.74969 0.0
Zn308 Zn 0.78312 0.37038 0.46492 0.0
Zn309 Zn 0.75536 0.39439 0.48226 0.0
O310 O 0.73295 0.36912 0.45585 0.0
O311 O 0.75548 0.34755 0.44522 0.0
O312 O 0.73864 0.4136 0.50023 0.0
O313 O 0.79476 0.36444 0.49866 0.0
O314 O 0.76986 0.38137 0.51082 0.0
C315 C 0.73639 0.35059 0.44368 0.0
C316 C 0.79152 0.41943 0.45805 0.0
O317 O 0.77602 0.41956 0.46956 0.0
O318 O 0.79743 0.40017 0.45284 0.0
C319 C 0.73629 0.43388 0.49579 0.0
O320 O 0.74304 0.44189 0.4768 0.0
C321 C 0.78504 0.37078 0.51546 0.0
Zn322 Zn 0.62074 0.58828 0.32927 0.0
Zn323 Zn 0.64482 0.55602 0.32672 0.0
O324 O 0.63071 0.55076 0.35712 0.0
O325 O 0.6119 0.57816 0.35998 0.0
O326 O 0.662 0.53069 0.32395 0.0
O327 O 0.60294 0.57286 0.29532 0.0
O328 O 0.62419 0.54797 0.29252 0.0
C329 C 0.61847 0.56116 0.36822 0.0
C330 C 0.66638 0.6098 0.33249 0.0
O331 O 0.66796 0.58811 0.33123 0.0
O332 O 0.64797 0.61453 0.33194 0.0
C333 C 0.67005 0.52251 0.34236 0.0
O334 O 0.6676 0.53102 0.3645 0.0
C335 C 0.60847 0.55604 0.28288 0.0
Tb336 Tb 0.02212 0.01521 0.03255 0.0
Tb337 Tb 0.06523 0.04494 0.06302 0.0
C338 C 0.98215 0.99999 0.015 0.0
C339 C 0.96502 0.01275 0.0169 0.0
C340 C 0.9692 0.03304 0.03546 0.0
C341 C 0.95396 0.04655 0.03682 0.0
C342 C 0.93409 0.03988 0.01984 0.0
C343 C 0.92951 0.01918 1.00161 0.0
C344 C 0.94509 1.00575 0.99998 0.0
C345 C 0.05558 0.01568 0.01053 0.0
C346 C 0.03561 0.07259 0.03607 0.0
C347 C 0.10542 0.05952 0.07931 0.0
C348 C 0.12179 0.04629 0.0748 0.0
C349 C 0.11599 0.02666 0.05523 0.0
C350 C 0.13047 0.01271 0.0511 0.0
C351 C 0.15118 0.01823 0.06629 0.0
C352 C 0.15735 0.03826 0.08557 0.0
C353 C 0.14256 0.05215 0.08997 0.0
C354 C 0.03187 0.04418 0.08528 0.0
C355 C 0.05148 0.9875 0.05972 0.0
O356 O 0.99154 0.99574 0.03599 0.0
O357 O 0.99632 1.00878 1.00213 0.0
O358 O 0.05231 0.03277 0.0247 0.0
O359 O 0.03862 0.99768 1.00668 0.0
O360 O 0.01977 0.05274 0.03296 0.0
O361 O 0.05592 0.07331 0.04584 0.0
O362 O 0.09544 0.06536 0.05955 0.0
O363 O 0.09177 0.05001 0.09239 0.0
O364 O 0.03516 0.02727 0.07088 0.0
O365 O 0.04888 0.0622 0.0893 0.0
O366 O 0.06733 1.00742 0.06339 0.0
O367 O 0.03129 0.98665 0.04939 0.0
H368 H 0.98434 0.03856 0.04893 0.0
H369 H 0.95762 0.06215 0.05138 0.0
H370 H 0.91414 0.01368 0.98852 0.0
H371 H 0.94168 0.99011 0.98554 0.0
H372 H 0.10016 0.02201 0.0431 0.0
H373 H 0.12554 0.99768 0.03579 0.0
H374 H 0.17337 0.04285 0.09735 0.0
H375 H 0.14724 0.06727 0.10516 0.0
Tb376 Tb 0.29385 0.77608 0.27927 0.0
Tb377 Tb 0.29186 0.79492 0.32969 0.0
C378 C 0.29158 0.76881 0.23355 0.0
C379 C 0.29367 0.78486 0.21555 0.0
C380 C 0.30503 0.78021 0.19679 0.0
C381 C 0.3077 0.79565 0.17985 0.0
C382 C 0.29894 0.81587 0.18141 0.0
C383 C 0.28781 0.82068 0.20043 0.0
C384 C 0.28531 0.80536 0.21752 0.0
C385 C 0.3256 0.77041 0.31238 0.0
C386 C 0.31222 0.83348 0.30033 0.0
C387 C 0.29399 0.80274 0.37546 0.0
C388 C 0.29135 0.78727 0.39393 0.0
C389 C 0.2822 0.79422 0.41402 0.0
C390 C 0.27912 0.77941 0.4315 0.0
C391 C 0.2852 0.75746 0.42909 0.0
C392 C 0.29411 0.75041 0.40872 0.0
C393 C 0.29712 0.76519 0.39123 0.0
C394 C 0.26 0.80024 0.2963 0.0
C395 C 0.27374 0.73741 0.30854 0.0
O396 O 0.27449 0.76741 0.24377 0.0
O397 O 0.30943 0.77075 0.24953 0.0
O398 O 0.318 0.78879 0.3127 0.0
O399 O 0.316 0.75498 0.2925 0.0
O400 O 0.30455 0.81582 0.28079 0.0
O401 O 0.31098 0.82885 0.32271 0.0
O402 O 0.31101 0.80309 0.3653 0.0
O403 O 0.27631 0.80106 0.35932 0.0
O404 O 0.26774 0.782 0.29633 0.0
O405 O 0.26959 0.81589 0.31602 0.0
O406 O 0.28109 0.75512 0.32809 0.0
O407 O 0.27508 0.74203 0.28618 0.0
H408 H 0.31175 0.76459 0.19521 0.0
H409 H 0.31609 0.7914 0.16511 0.0
H410 H 0.281 0.83623 0.20201 0.0
H411 H 0.2768 0.8095 0.23217 0.0
H412 H 0.27752 0.81114 0.41622 0.0
H413 H 0.27245 0.78538 0.44719 0.0
H414 H 0.29873 0.73347 0.40633 0.0
H415 H 0.30398 0.75937 0.37564 0.0
Tb416 Tb 0.56973 0.03781 0.5465 0.0
Tb417 Tb 0.52127 0.02745 0.55672 0.0
C418 C 0.61008 0.04125 0.55063 0.0
C419 C 0.62663 0.02761 0.55697 0.0
C420 C 0.64872 0.03989 0.56352 0.0
C421 C 0.66498 0.02727 0.56679 0.0
C422 C 0.65957 1.00196 0.56353 0.0
C423 C 0.6373 0.98975 0.55767 0.0
C424 C 0.62102 1.00242 0.55444 0.0
C425 C 0.54083 0.04414 0.50777 0.0
C426 C 0.53961 0.98421 0.5358 0.0
C427 C 0.48095 0.02394 0.55275 0.0
C428 C 0.46439 0.03769 0.54694 0.0
C429 C 0.44278 0.02514 0.53664 0.0
C430 C 0.42616 0.03732 0.53397 0.0
C431 C 0.43074 0.06243 0.54164 0.0
C432 C 0.45261 0.07508 0.55116 0.0
C433 C 0.46925 0.06286 0.55376 0.0
C434 C 0.55015 0.02121 0.5955 0.0
C435 C 0.55128 0.08107 0.56706 0.0
O436 O 0.6014 0.05008 0.56843 0.0
O437 O 0.59567 0.03215 0.53013 0.0
O438 O 0.53756 0.03762 0.52797 0.0
O439 O 0.56174 0.04763 0.50957 0.0
O440 O 0.55942 0.99869 0.53996 0.0
O441 O 0.52204 0.99178 0.53913 0.0
O442 O 0.4896 0.01554 0.53473 0.0
O443 O 0.49533 0.03249 0.57335 0.0
O444 O 0.55345 0.02768 0.57528 0.0
O445 O 0.52921 0.01747 0.59355 0.0
O446 O 0.53153 0.06661 0.5637 0.0
O447 O 0.5688 0.07362 0.56331 0.0
H448 H 0.65347 0.05929 0.56537 0.0
H449 H 0.68186 0.03737 0.57101 0.0
H450 H 0.6324 0.97033 0.5554 0.0
H451 H 0.60409 0.9925 0.5494 0.0
H452 H 0.43859 1.00572 0.53142 0.0
H453 H 0.40957 0.02687 0.52682 0.0
H454 H 0.45687 0.09443 0.5569 0.0
H455 H 0.4858 0.07302 0.56174 0.0
Tb456 Tb 0.2681 0.28342 0.79659 0.0
Tb457 Tb 0.31673 0.28299 0.80702 0.0
C458 C 0.22763 0.27685 0.79523 0.0
C459 C 0.21094 0.27504 0.81088 0.0
C460 C 0.19021 0.25971 0.80119 0.0
C461 C 0.17343 0.25874 0.81451 0.0
C462 C 0.17693 0.27306 0.83803 0.0
C463 C 0.19796 0.28811 0.84792 0.0
C464 C 0.21475 0.28913 0.83448 0.0
C465 C 0.29561 0.32152 0.78955 0.0
C466 C 0.29627 0.29845 0.8518 0.0
C467 C 0.35723 0.29005 0.8083 0.0
C468 C 0.37371 0.28921 0.79262 0.0
C469 C 0.37075 0.29434 0.76859 0.0
C470 C 0.38749 0.295 0.75508 0.0
C471 C 0.40754 0.29057 0.7653 0.0
C472 C 0.41016 0.28512 0.78926 0.0
C473 C 0.39347 0.28444 0.80267 0.0
C474 C 0.28925 0.24486 0.81407 0.0
C475 C 0.28835 0.26726 0.75172 0.0
O476 O 0.23751 0.2594 0.7931 0.0
O477 O 0.24091 0.29795 0.79689 0.0
O478 O 0.29856 0.30956 0.80641 0.0
O479 O 0.27603 0.31313 0.77652 0.0
O480 O 0.2768 0.29004 0.8371 0.0
O481 O 0.31461 0.30012 0.8434 0.0
O482 O 0.34646 0.3067 0.80665 0.0
O483 O 0.34482 0.26955 0.81041 0.0
O484 O 0.28631 0.25689 0.79727 0.0
O485 O 0.3089 0.25313 0.82695 0.0
O486 O 0.30788 0.27476 0.76647 0.0
O487 O 0.27008 0.26674 0.76003 0.0
H488 H 0.18683 0.24879 0.78295 0.0
H489 H 0.15752 0.24721 0.80598 0.0
H490 H 0.20149 0.29914 0.86609 0.0
H491 H 0.23058 0.30115 0.84237 0.0
H492 H 0.35564 0.29809 0.76039 0.0
H493 H 0.38468 0.29894 0.73659 0.0
H494 H 0.42537 0.28199 0.79801 0.0
H495 H 0.39621 0.28064 0.82124 0.0
Tb496 Tb 0.04685 0.05474 0.55224 0.0
Tb497 Tb 0.04434 0.99907 0.54409 0.0
C498 C 0.0623 0.09891 0.55553 0.0
C499 C 0.07099 0.11283 0.53772 0.0
C500 C 0.07032 0.10122 0.5138 0.0
C501 C 0.07756 0.1142 0.49632 0.0
C502 C 0.08385 0.13948 0.50162 0.0
C503 C 0.08481 0.15111 0.52591 0.0
C504 C 0.07872 0.13783 0.54388 0.0
C505 C 1.00954 0.02878 0.55996 0.0
C506 C 0.03083 0.02427 0.4981 0.0
C507 C 0.03041 0.95423 0.53406 0.0
C508 C 0.02701 0.93559 0.54918 0.0
C509 C 0.02677 0.94186 0.57426 0.0
C510 C 0.02504 0.92436 0.58909 0.0
C511 C 0.02391 0.90037 0.57916 0.0
C512 C 0.02361 0.89406 0.55383 0.0
C513 C 0.02514 0.91161 0.53893 0.0
C514 C 0.08269 0.02777 0.54545 0.0
C515 C 0.05763 0.02872 0.59807 0.0
O516 O 0.07381 0.08447 0.56383 0.0
O517 O 0.04139 0.08856 0.54917 0.0
O518 O 0.02616 0.02272 0.55522 0.0
O519 O 0.01373 0.05191 0.56094 0.0
O520 O 0.03621 0.04574 0.51237 0.0
O521 O 0.03266 1.00437 0.50665 0.0
O522 O 0.01772 0.96907 0.53526 0.0
O523 O 0.0508 0.96533 0.53552 0.0
O524 O 0.06426 0.03078 0.53641 0.0
O525 O 0.07994 1.00698 0.55239 0.0
O526 O 0.0499 1.00702 0.58414 0.0
O527 O 0.05965 0.04912 0.58923 0.0
H528 H 0.06368 0.08207 0.50828 0.0
H529 H 0.07715 0.10429 0.47828 0.0
H530 H 0.08907 0.17051 0.53088 0.0
H531 H 0.07908 0.14716 0.5622 0.0
H532 H 0.02839 0.96035 0.58252 0.0
H533 H 0.025 0.92972 0.60845 0.0
H534 H 0.02304 0.87579 0.54572 0.0
H535 H 0.02544 0.90658 0.51959 0.0
Tb536 Tb 0.30326 0.76756 0.77956 0.0
Tb537 Tb 0.30742 0.81882 0.80579 0.0
C538 C 0.3057 0.73119 0.75089 0.0
C539 C 0.31873 0.71344 0.75393 0.0
C540 C 0.31877 0.69604 0.73386 0.0
C541 C 0.33034 0.67844 0.73721 0.0
C542 C 0.34212 0.67805 0.76073 0.0
C543 C 0.34237 0.69597 0.78061 0.0
C544 C 0.33068 0.71333 0.77725 0.0
C545 C 0.27998 0.77077 0.81376 0.0
C546 C 0.3381 0.78694 0.82856 0.0
C547 C 0.30721 0.85604 0.83476 0.0
C548 C 0.29319 0.87307 0.83685 0.0
C549 C 0.27131 0.86557 0.839 0.0
C550 C 0.25843 0.88213 0.84056 0.0
C551 C 0.26716 0.90653 0.84007 0.0
C552 C 0.28912 0.91397 0.83816 0.0
C553 C 0.30196 0.89744 0.83664 0.0
C554 C 0.33091 0.8142 0.77199 0.0
C555 C 0.2708 0.79817 0.75857 0.0
O556 O 0.31663 0.75312 0.75074 0.0
O557 O 0.2911 0.7309 0.76479 0.0
O558 O 0.28389 0.78523 0.79928 0.0
O559 O 0.28818 0.75259 0.80829 0.0
O560 O 0.33117 0.77049 0.80824 0.0
O561 O 0.32996 0.80607 0.83209 0.0
O562 O 0.29967 0.83414 0.83846 0.0
O563 O 0.31722 0.85635 0.81612 0.0
O564 O 0.3269 0.8008 0.7872 0.0
O565 O 0.32229 0.83228 0.77574 0.0
O566 O 0.27753 0.81412 0.77935 0.0
O567 O 0.28066 0.78064 0.75359 0.0
H568 H 0.30959 0.69581 0.7157 0.0
H569 H 0.3296 0.66482 0.72151 0.0
H570 H 0.35158 0.69662 0.79885 0.0
H571 H 0.33073 0.72648 0.79302 0.0
H572 H 0.26409 0.84696 0.83946 0.0
H573 H 0.24169 0.87584 0.84237 0.0
H574 H 0.29632 0.93254 0.83741 0.0
H575 H 0.31879 0.9037 0.83509 0.0
Tb576 Tb 0.52371 0.03044 0.03442 0.0
Tb577 Tb 0.56533 0.0468 0.07064 0.0
C578 C 0.4875 1.00854 1.00779 0.0
C579 C 0.46482 1.0109 1.00319 0.0
C580 C 0.44916 0.99753 0.01409 0.0
C581 C 0.42717 0.99699 1.00692 0.0
C582 C 0.42039 1.00967 0.98856 0.0
C583 C 0.43615 0.02402 0.9786 0.0
C584 C 0.45814 0.02461 0.9858 0.0
C585 C 0.53842 0.07791 0.04594 0.0
C586 C 0.52185 0.04141 0.09291 0.0
C587 C 0.60145 0.06979 0.09675 0.0
C588 C 0.62488 0.07075 0.09949 0.0
C589 C 0.63766 0.08333 0.08502 0.0
C590 C 0.66028 0.08717 0.09036 0.0
C591 C 0.67055 0.07859 0.11032 0.0
C592 C 0.65766 0.06492 0.12391 0.0
C593 C 0.63506 0.06114 0.11862 0.0
C594 C 0.55028 0.99947 0.05923 0.0
C595 C 0.56734 0.03485 0.01234 0.0
O596 O 0.49513 1.00269 0.02879 0.0
O597 O 0.5018 0.02495 1.00114 0.0
O598 O 0.53955 0.06282 0.05985 0.0
O599 O 0.52652 0.06633 0.02501 0.0
O600 O 0.51123 0.03032 0.07012 0.0
O601 O 0.54307 0.05174 0.0965 0.0
O602 O 0.59191 0.07689 0.07745 0.0
O603 O 0.58924 0.05072 0.1021 0.0
O604 O 0.54947 0.0145 0.04524 0.0
O605 O 0.56178 1.0109 0.08047 0.0
O606 O 0.57801 0.0461 0.03504 0.0
O607 O 0.54609 0.02471 0.00888 0.0
H608 H 0.45376 0.98662 0.02735 0.0
H609 H 0.41537 0.98542 0.01466 0.0
H610 H 0.4314 0.03404 0.96451 0.0
H611 H 0.46977 0.03505 0.97693 0.0
H612 H 0.63032 0.09111 0.07026 0.0
H613 H 0.66978 0.09806 0.07974 0.0
H614 H 0.6651 0.05789 0.13923 0.0
H615 H 0.62563 0.05148 0.13018 0.0
Tb616 Tb 0.27171 0.26826 0.29987 0.0
Tb617 Tb 0.31574 0.30069 0.31155 0.0
C618 C 0.23606 0.23992 0.29997 0.0
C619 C 0.21543 0.24532 0.3042 0.0
C620 C 0.21566 0.26612 0.32061 0.0
C621 C 0.19626 0.27222 0.32348 0.0
C622 C 0.17615 0.25774 0.30993 0.0
C623 C 0.17593 0.23679 0.29363 0.0
C624 C 0.19543 0.23068 0.29076 0.0
C625 C 0.28354 0.28765 0.26271 0.0
C626 C 0.27382 0.32437 0.31086 0.0
C627 C 0.35157 0.32968 0.31392 0.0
C628 C 0.37346 0.32539 0.31746 0.0
C629 C 0.38956 0.33841 0.30694 0.0
C630 C 0.4091 0.33155 0.30664 0.0
C631 C 0.41269 0.31145 0.31672 0.0
C632 C 0.3969 0.29918 0.32828 0.0
C633 C 0.37744 0.30605 0.32858 0.0
C634 C 0.30375 0.28103 0.3485 0.0
C635 C 0.31391 0.24452 0.29984 0.0
O636 O 0.25229 0.24657 0.31898 0.0
O637 O 0.24204 0.24548 0.27977 0.0
O638 O 0.29552 0.27989 0.27833 0.0
O639 O 0.26389 0.28313 0.26668 0.0
O640 O 0.26195 0.30231 0.31053 0.0
O641 O 0.29485 0.32735 0.30953 0.0
O642 O 0.33874 0.31812 0.29309 0.0
O643 O 0.34182 0.32815 0.33271 0.0
O644 O 0.29191 0.28912 0.33305 0.0
O645 O 0.32332 0.28517 0.34432 0.0
O646 O 0.32622 0.26683 0.30247 0.0
O647 O 0.29244 0.24121 0.29907 0.0
H648 H 0.23087 0.27781 0.33116 0.0
H649 H 0.19703 0.28822 0.3365 0.0
H650 H 0.16073 0.22536 0.28276 0.0
H651 H 0.19492 0.21472 0.2778 0.0
H652 H 0.38662 0.35318 0.29799 0.0
H653 H 0.42086 0.34118 0.29734 0.0
H654 H 0.39929 0.28379 0.33641 0.0
H655 H 0.36515 0.29559 0.33662 0.0
Tb656 Tb 0.54406 0.55923 0.05531 0.0
Tb657 Tb 0.54019 0.50346 0.04421 0.0
C658 C 0.55563 0.60306 0.05504 0.0
C659 C 0.56449 0.61548 0.03617 0.0
C660 C 0.58629 0.62881 0.04111 0.0
C661 C 0.59505 0.63968 0.02288 0.0
C662 C 0.58209 0.63757 0.99944 0.0
C663 C 0.56041 0.62372 0.99445 0.0
C664 C 0.55175 0.61276 0.01252 0.0
C665 C 0.50796 0.53119 0.06193 0.0
C666 C 0.53099 0.53033 0.9999 0.0
C667 C 0.52553 0.45901 0.03928 0.0
C668 C 0.53323 0.44008 0.05 0.0
C669 C 0.52071 0.41633 0.04334 0.0
C670 C 0.52695 0.39851 0.05518 0.0
C671 C 0.54578 0.40431 0.07388 0.0
C672 C 0.55875 0.42804 0.07979 0.0
C673 C 0.55249 0.44583 0.06792 0.0
C674 C 0.58004 0.52921 0.04372 0.0
C675 C 0.55756 0.5332 0.09915 0.0
O676 O 0.56832 0.59144 0.06657 0.0
O677 O 0.53515 0.59078 0.0489 0.0
O678 O 0.51859 0.52685 0.04542 0.0
O679 O 0.51657 0.55288 0.07421 0.0
O680 O 0.53873 0.55138 0.01495 0.0
O681 O 0.52782 0.50948 1.00765 0.0
O682 O 0.52029 0.47474 0.05499 0.0
O683 O 0.53717 0.46906 0.02449 0.0
O684 O 0.56344 0.53572 0.04781 0.0
O685 O 0.57469 0.50588 0.04053 0.0
O686 O 0.54927 0.51188 0.08457 0.0
O687 O 0.55918 0.55386 0.09104 0.0
H688 H 0.59656 0.63079 0.05907 0.0
H689 H 0.61183 0.6501 0.02729 0.0
H690 H 0.54969 0.62214 0.97688 0.0
H691 H 0.53497 0.60235 1.00792 0.0
H692 H 0.50584 0.41168 0.02946 0.0
H693 H 0.51681 0.3803 0.05008 0.0
H694 H 0.57318 0.43307 0.0943 0.0
H695 H 0.56228 0.4642 0.07325 0.0
Tb696 Tb 0.7854 0.24653 0.29145 0.0
Tb697 Tb 0.79089 0.30064 0.29543 0.0
C698 C 0.78685 0.20415 0.27653 0.0
C699 C 0.80281 0.1893 0.27967 0.0
C700 C 0.82043 0.1919 0.26736 0.0
C701 C 0.8346 0.17676 0.26952 0.0
C702 C 0.8315 0.15879 0.28407 0.0
C703 C 0.81412 0.15649 0.29666 0.0
C704 C 0.79987 0.17149 0.29437 0.0
C705 C 0.76152 0.26433 0.31948 0.0
C706 C 0.82142 0.28024 0.33435 0.0
C707 C 0.79313 0.34439 0.30968 0.0
C708 C 0.77928 0.36134 0.31187 0.0
C709 C 0.75667 0.3542 0.30316 0.0
C710 C 0.74394 0.37075 0.30641 0.0
C711 C 0.75369 0.39473 0.31824 0.0
C712 C 0.77644 0.40174 0.32645 0.0
C713 C 0.78906 0.38518 0.32338 0.0
C714 C 0.81611 0.28179 0.26929 0.0
C715 C 0.75329 0.26656 0.25441 0.0
O716 O 0.79105 0.22156 0.26395 0.0
O717 O 0.77904 0.21052 0.29601 0.0
O718 O 0.7665 0.27125 0.30037 0.0
O719 O 0.76788 0.24487 0.32189 0.0
O720 O 0.81422 0.25852 0.32058 0.0
O721 O 0.81313 0.29845 0.32909 0.0
O722 O 0.79145 0.32833 0.3241 0.0
O723 O 0.79453 0.33541 0.28731 0.0
O724 O 0.81003 0.27608 0.28818 0.0
O725 O 0.80908 0.30047 0.26508 0.0
O726 O 0.76013 0.28799 0.26894 0.0
O727 O 0.76299 0.24903 0.25818 0.0
H728 H 0.82316 0.20541 0.25583 0.0
H729 H 0.84797 0.17907 0.25976 0.0
H730 H 0.81113 0.1426 0.30772 0.0
H731 H 0.78631 0.16889 0.30384 0.0
H732 H 0.74887 0.33587 0.29401 0.0
H733 H 0.72647 0.36468 0.30001 0.0
H734 H 0.78459 0.42011 0.33513 0.0
H735 H 0.80653 0.39101 0.33006 0.0
Tb736 Tb 0.02761 0.53494 0.53736 0.0
Tb737 Tb 0.06677 0.53443 0.57318 0.0
C738 C 0.99101 0.52517 0.50924 0.0
C739 C 0.96928 0.53002 0.50745 0.0
C740 C 0.95424 0.51897 0.52058 0.0
C741 C 0.93249 0.5199 0.51497 0.0
C742 C 0.92536 0.53188 0.4961 0.0
C743 C 0.94081 0.54453 0.48439 0.0
C744 C 0.96254 0.5435 0.48993 0.0
C745 C 0.05231 0.57823 0.55876 0.0
C746 C 0.02427 0.5383 0.59542 0.0
C747 C 0.10357 0.54287 0.60069 0.0
C748 C 0.12469 0.53672 0.60084 0.0
C749 C 0.13951 0.54769 0.58742 0.0
C750 C 0.16061 0.54441 0.59065 0.0
C751 C 0.16734 0.53007 0.60734 0.0
C752 C 0.15203 0.51788 0.61954 0.0
C753 C 0.13096 0.52129 0.61642 0.0
C754 C 0.04151 0.49142 0.55317 0.0
C755 C 0.06997 0.53149 0.51496 0.0
O756 O 0.99661 0.51159 0.52491 0.0
O757 O 1.00707 0.54324 0.50851 0.0
O758 O 0.04826 0.55969 0.56798 0.0
O759 O 0.04042 0.5733 0.53675 0.0
O760 O 0.0135 0.53304 0.5719 0.0
O761 O 0.04596 0.54251 0.59997 0.0
O762 O 0.09809 0.5571 0.58571 0.0
O763 O 0.08715 0.52528 0.60156 0.0
O764 O 0.04607 0.50917 0.54268 0.0
O765 O 0.05243 0.49728 0.57563 0.0
O766 O 0.08073 0.53593 0.53844 0.0
O767 O 0.04841 0.52805 0.51045 0.0
H768 H 0.95893 0.50845 0.5342 0.0
H769 H 0.92101 0.50967 0.52416 0.0
H770 H 0.93588 0.55414 0.47 0.0
H771 H 0.97383 0.55219 0.47953 0.0
H772 H 0.13521 0.5597 0.57528 0.0
H773 H 0.17201 0.55445 0.58124 0.0
H774 H 0.15661 0.50654 0.63232 0.0
H775 H 0.11983 0.5126 0.627 0.0
Tb776 Tb 0.76967 0.78176 0.29621 0.0
Tb777 Tb 0.81802 0.78046 0.3075 0.0
C778 C 0.72932 0.7761 0.29516 0.0
C779 C 0.71314 0.77571 0.31158 0.0
C780 C 0.7057 0.7553 0.32187 0.0
C781 C 0.68866 0.75414 0.3349 0.0
C782 C 0.67848 0.77329 0.3379 0.0
C783 C 0.68626 0.79385 0.32801 0.0
C784 C 0.70327 0.795 0.31497 0.0
C785 C 0.79784 0.81932 0.28916 0.0
C786 C 0.79735 0.79644 0.35185 0.0
C787 C 0.8584 0.78556 0.30911 0.0
C788 C 0.87547 0.78646 0.29385 0.0
C789 C 0.88132 0.80547 0.28107 0.0
C790 C 0.89941 0.80739 0.26957 0.0
C791 C 0.91219 0.79048 0.27075 0.0
C792 C 0.90583 0.77114 0.28291 0.0
C793 C 0.88779 0.7692 0.29431 0.0
C794 C 0.78963 0.7428 0.31425 0.0
C795 C 0.79033 0.76563 0.25207 0.0
O796 O 0.73901 0.75845 0.29355 0.0
O797 O 0.7426 0.79681 0.29519 0.0
O798 O 0.80038 0.80748 0.30622 0.0
O799 O 0.77833 0.81111 0.27588 0.0
O800 O 0.77801 0.78878 0.33676 0.0
O801 O 0.81584 0.79732 0.34393 0.0
O802 O 0.84906 0.80348 0.31125 0.0
O803 O 0.84466 0.76479 0.30761 0.0
O804 O 0.78735 0.75483 0.29737 0.0
O805 O 0.80912 0.75083 0.32757 0.0
O806 O 0.80971 0.77445 0.26691 0.0
O807 O 0.77187 0.7638 0.26023 0.0
H808 H 0.71265 0.73992 0.31936 0.0
H809 H 0.68302 0.73788 0.34195 0.0
H810 H 0.67915 0.80912 0.33022 0.0
H811 H 0.70839 0.81086 0.30707 0.0
H812 H 0.87234 0.81925 0.28052 0.0
H813 H 0.90386 0.82263 0.26055 0.0
H814 H 0.91497 0.75754 0.28389 0.0
H815 H 0.88383 0.75447 0.30415 0.0
Tb816 Tb 0.79509 0.27542 0.77607 0.0
Tb817 Tb 0.79162 0.29501 0.82533 0.0
C818 C 0.79408 0.2656 0.73063 0.0
C819 C 0.79534 0.27954 0.71078 0.0
C820 C 0.80436 0.27183 0.69087 0.0
C821 C 0.80595 0.28506 0.67189 0.0
C822 C 0.79845 0.30612 0.67261 0.0
C823 C 0.78965 0.31396 0.69279 0.0
C824 C 0.78818 0.3008 0.71183 0.0
C825 C 0.82589 0.26975 0.81066 0.0
C826 C 0.81282 0.33284 0.79568 0.0
C827 C 0.79254 0.30651 0.87053 0.0
C828 C 0.79596 0.29643 0.8929 0.0
C829 C 0.80662 0.27781 0.89405 0.0
C830 C 0.81198 0.27039 0.91648 0.0
C831 C 0.80668 0.28152 0.93788 0.0
C832 C 0.79511 0.29939 0.93628 0.0
C833 C 0.78983 0.30683 0.9139 0.0
C834 C 0.76081 0.3007 0.79067 0.0
C835 C 0.77474 0.2376 0.80618 0.0
O836 O 0.77662 0.26398 0.74019 0.0
O837 O 0.81188 0.27016 0.7474 0.0
O838 O 0.8185 0.2882 0.81024 0.0
O839 O 0.81669 0.25426 0.79075 0.0
O840 O 0.80563 0.31497 0.77633 0.0
O841 O 0.81101 0.32848 0.81797 0.0
O842 O 0.80955 0.31162 0.86037 0.0
O843 O 0.77464 0.29605 0.85438 0.0
O844 O 0.76816 0.28226 0.7912 0.0
O845 O 0.77001 0.31607 0.8106 0.0
O846 O 0.78265 0.25546 0.82552 0.0
O847 O 0.77566 0.242 0.78367 0.0
H848 H 0.81009 0.25553 0.68995 0.0
H849 H 0.81258 0.27852 0.65639 0.0
H850 H 0.78394 0.33027 0.69385 0.0
H851 H 0.7814 0.30716 0.72727 0.0
H852 H 0.81143 0.26964 0.87784 0.0
H853 H 0.82099 0.25665 0.91726 0.0
H854 H 0.79049 0.30793 0.95242 0.0
H855 H 0.7815 0.32117 0.91315 0.0
Tb856 Tb 0.77192 0.76792 0.7955 0.0
Tb857 Tb 0.81535 0.80175 0.81421 0.0
C858 C 0.73326 0.74618 0.79454 0.0
C859 C 0.7132 0.7542 0.7966 0.0
C860 C 0.71391 0.775 0.8133 0.0
C861 C 0.69482 0.78195 0.81602 0.0
C862 C 0.67452 0.76819 0.80223 0.0
C863 C 0.67386 0.74757 0.78521 0.0
C864 C 0.69306 0.74068 0.7824 0.0
C865 C 0.78978 0.78639 0.76104 0.0
C866 C 0.77478 0.82593 0.81152 0.0
C867 C 0.85378 0.82513 0.81663 0.0
C868 C 0.87519 0.81971 0.81838 0.0
C869 C 0.8918 0.83528 0.81083 0.0
C870 C 0.91138 0.82905 0.80918 0.0
C871 C 0.91463 0.80703 0.8149 0.0
C872 C 0.89828 0.79193 0.82354 0.0
C873 C 0.87866 0.79823 0.82525 0.0
C874 C 0.79741 0.78274 0.84854 0.0
C875 C 0.81269 0.74384 0.79751 0.0
O876 O 0.74859 0.7524 0.81445 0.0
O877 O 0.74101 0.74902 0.77454 0.0
O878 O 0.79051 0.79698 0.78257 0.0
O879 O 0.7775 0.76466 0.75767 0.0
O880 O 0.76273 0.80314 0.80596 0.0
O881 O 0.7964 0.82989 0.81423 0.0
O882 O 0.84003 0.81521 0.79588 0.0
O883 O 0.84467 0.82365 0.8359 0.0
O884 O 0.79685 0.7726 0.82695 0.0
O885 O 0.80969 0.80444 0.85213 0.0
O886 O 0.82477 0.76665 0.8038 0.0
O887 O 0.79097 0.73976 0.79424 0.0
H888 H 0.72916 0.78569 0.82472 0.0
H889 H 0.69593 0.79768 0.82958 0.0
H890 H 0.6585 0.73669 0.77416 0.0
H891 H 0.69213 0.7246 0.7694 0.0
H892 H 0.88937 0.85193 0.80547 0.0
H893 H 0.92381 0.84126 0.80287 0.0
H894 H 0.90025 0.77479 0.82795 0.0
H895 H 0.86597 0.786 0.83115 0.0
Tb896 Tb 0.52141 0.51741 0.53353 0.0
Tb897 Tb 0.56323 0.5472 0.56625 0.0
C898 C 0.48171 0.5021 0.51441 0.0
C899 C 0.4646 0.51515 0.51127 0.0
C900 C 0.46761 0.53757 0.52629 0.0
C901 C 0.45186 0.55053 0.52337 0.0
C902 C 0.43256 0.54114 0.50566 0.0
C903 C 0.42935 0.51856 0.49071 0.0
C904 C 0.44546 0.50571 0.49334 0.0
C905 C 0.55606 0.51891 0.51361 0.0
C906 C 0.53491 0.5751 0.53756 0.0
C907 C 0.60284 0.56324 0.58565 0.0
C908 C 0.62071 0.55128 0.58639 0.0
C909 C 0.61753 0.52931 0.57052 0.0
C910 C 0.63427 0.51775 0.57039 0.0
C911 C 0.65471 0.52813 0.58578 0.0
C912 C 0.65804 0.55024 0.60165 0.0
C913 C 0.64098 0.56168 0.60211 0.0
C914 C 0.52841 0.54486 0.58617 0.0
C915 C 0.54976 0.48946 0.5619 0.0
O916 O 0.48985 0.50162 0.53738 0.0
O917 O 0.49685 0.50735 0.50153 0.0
O918 O 0.55209 0.53583 0.52747 0.0
O919 O 0.53938 0.50047 0.50926 0.0
O920 O 0.51954 0.55467 0.53136 0.0
O921 O 0.5544 0.57641 0.55035 0.0
O922 O 0.59431 0.5658 0.56354 0.0
O923 O 0.58797 0.5551 0.59797 0.0
O924 O 0.53281 0.52845 0.57219 0.0
O925 O 0.54484 0.56356 0.59069 0.0
O926 O 0.56534 0.50977 0.56749 0.0
O927 O 0.53004 0.48834 0.5498 0.0
H928 H 0.48199 0.54495 0.54066 0.0
H929 H 0.45447 0.56758 0.5356 0.0
H930 H 0.41444 0.51091 0.47712 0.0
H931 H 0.4429 0.48839 0.48162 0.0
H932 H 0.60227 0.52136 0.55767 0.0
H933 H 0.63147 0.5011 0.55745 0.0
H934 H 0.6738 0.55865 0.61344 0.0
H935 H 0.64369 0.57874 0.61434 0.0
Tb936 Tb 0.06927 0.53693 0.04777 0.0
Tb937 Tb 0.02061 0.52697 0.05759 0.0
C938 C 0.10963 0.5403 0.05206 0.0
C939 C 0.12644 0.52692 0.05835 0.0
C940 C 0.14826 0.53976 0.06676 0.0
C941 C 0.16496 0.52771 0.06974 0.0
C942 C 0.1603 0.5024 0.0643 0.0
C943 C 0.13826 0.48953 0.05668 0.0
C944 C 0.12153 0.50165 0.05375 0.0
C945 C 0.04055 0.54346 0.00888 0.0
C946 C 0.03906 0.48331 0.03777 0.0
C947 C 0.98023 0.52326 0.05322 0.0
C948 C 0.96349 0.53681 0.04723 0.0
C949 C 0.94237 0.52418 0.03489 0.0
C950 C 0.92539 0.53587 0.03215 0.0
C951 C 0.92908 0.56052 0.04183 0.0
C952 C 0.9505 0.57334 0.05335 0.0
C953 C 0.96749 0.56164 0.056 0.0
C954 C 0.04948 0.52191 0.09707 0.0
C955 C 0.05084 0.58042 0.06792 0.0
O956 O 0.10091 0.54905 0.06986 0.0
O957 O 0.09526 0.53121 0.03153 0.0
O958 O 0.03721 0.53683 0.029 0.0
O959 O 0.06148 0.547 0.01086 0.0
O960 O 0.05887 0.49778 0.04156 0.0
O961 O 0.02152 0.49099 0.04102 0.0
O962 O 0.98902 0.51486 0.03533 0.0
O963 O 0.99448 0.5319 0.07389 0.0
O964 O 0.05268 0.52706 0.07634 0.0
O965 O 0.02864 0.51901 0.09537 0.0
O966 O 0.03091 0.56608 0.06327 0.0
O967 O 0.06846 0.57263 0.06531 0.0
H968 H 0.1525 0.55925 0.07023 0.0
H969 H 0.18164 0.53833 0.07536 0.0
H970 H 0.13391 0.47006 0.05268 0.0
H971 H 0.10484 0.49127 0.04725 0.0
H972 H 0.9388 0.505 0.02813 0.0
H973 H 0.90916 0.52529 0.02338 0.0
H974 H 0.9541 0.5924 0.06066 0.0
H975 H 0.98361 0.57188 0.06557 0.0
H976 H 0.03489 0.19827 0.96499 0.0
H977 H 0.98191 0.19279 1.00442 0.0
H978 H 0.04264 0.16208 0.97886 0.0
H979 H 0.98974 0.15715 0.01828 0.0
H980 H 0.99558 0.08004 0.0185 0.0
H981 H 0.98778 0.11507 1.00258 0.0
H982 H 0.0566 0.14925 0.01766 0.0
H983 H 0.06447 0.1142 0.03337 0.0
C984 C 0.02489 0.18937 0.97652 0.0
C985 C 1.00781 0.19852 0.98358 0.0
C986 C 0.02939 0.16872 0.98458 0.0
C987 C 0.01677 0.15667 0.99966 0.0
C988 C 0.9996 0.16574 1.00644 0.0
C989 C 0.99523 0.18636 0.99858 0.0
C990 C 1.00906 0.09503 0.0185 0.0
C991 C 0.03065 0.09429 0.02735 0.0
C992 C 1.00459 0.11516 0.0094 0.0
C993 C 0.02158 0.13498 0.00876 0.0
C994 C 0.04315 0.13419 0.01757 0.0
C995 C 0.04763 0.11415 0.02682 0.0
H996 H 0.16375 0.80315 0.17108 0.0
H997 H 0.13022 0.81521 0.23105 0.0
H998 H 0.19518 0.8003 0.19997 0.0
H999 H 0.16243 0.81268 0.26036 0.0
H1000 H 0.23753 0.83486 0.30112 0.0
H1001 H 0.20388 0.837 0.27466 0.0
H1002 H 0.20282 0.7704 0.22853 0.0
H1003 H 0.23613 0.76789 0.25536 0.0
C1004 C 0.16307 0.80539 0.19049 0.0
C1005 C 0.14431 0.80946 0.19868 0.0
C1006 C 0.18113 0.80355 0.20704 0.0
C1007 C 0.18122 0.80604 0.23237 0.0
C1008 C 0.16277 0.81067 0.24086 0.0
C1009 C 0.14436 0.81211 0.22412 0.0
C1010 C 0.23005 0.82061 0.28539 0.0
C1011 C 0.23962 0.80132 0.28014 0.0
C1012 C 0.21071 0.82178 0.27037 0.0
C1013 C 0.20073 0.80389 0.24955 0.0
C1014 C 0.21024 0.78453 0.24439 0.0
C1015 C 0.22936 0.78314 0.25966 0.0
H1016 H 0.53845 0.8407 0.46134 0.0
H1017 H 0.51043 0.83005 0.52554 0.0
H1018 H 0.54566 0.88433 0.47445 0.0
H1019 H 0.51763 0.87331 0.53846 0.0
H1020 H 0.56993 0.96237 0.51999 0.0
H1021 H 0.56671 0.91941 0.50809 0.0
H1022 H 0.50104 0.90407 0.52116 0.0
H1023 H 0.5042 0.94696 0.53323 0.0
C1024 C 0.53426 0.84762 0.47846 0.0
C1025 C 0.52364 0.83187 0.49222 0.0
C1026 C 0.53833 0.87259 0.48593 0.0
C1027 C 0.53178 0.88218 0.50721 0.0
C1028 C 0.52238 0.86643 0.52167 0.0
C1029 C 0.51841 0.84162 0.51432 0.0
C1030 C 0.55478 0.94987 0.52035 0.0
C1031 C 0.53734 0.95815 0.52772 0.0
C1032 C 0.55294 0.92526 0.51339 0.0
C1033 C 0.53371 0.90838 0.51388 0.0
C1034 C 0.5162 0.91666 0.52096 0.0
C1035 C 0.51796 0.94125 0.52772 0.0
H1036 H 0.49158 0.30722 0.65703 0.0
H1037 H 0.53316 0.29453 0.72028 0.0
H1038 H 0.46181 0.30427 0.67925 0.0
H1039 H 0.50321 0.29181 0.74276 0.0
H1040 H 0.43701 0.26242 0.7644 0.0
H1041 H 0.46748 0.26582 0.74303 0.0
H1042 H 0.45028 0.32556 0.71322 0.0
H1043 H 0.41996 0.32239 0.7348 0.0
C1044 C 0.49444 0.30387 0.67575 0.0
C1045 C 0.51487 0.30111 0.6868 0.0
C1046 C 0.47732 0.30233 0.68859 0.0
C1047 C 0.48 0.29785 0.71289 0.0
C1048 C 0.50044 0.29505 0.724 0.0
C1049 C 0.51768 0.29675 0.71116 0.0
C1050 C 0.43979 0.27646 0.75349 0.0
C1051 C 0.42586 0.29212 0.75144 0.0
C1052 C 0.45734 0.27841 0.74121 0.0
C1053 C 0.46147 0.29599 0.72637 0.0
C1054 C 0.44749 0.31157 0.72419 0.0
C1055 C 0.42999 0.30969 0.73655 0.0
H1056 H 0.07272 0.8139 0.67668 0.0
H1057 H 1.00321 0.78319 0.66304 0.0
H1058 H 0.067 0.84258 0.65 0.0
H1059 H 0.99746 0.81246 0.63658 0.0
H1060 H 1.0008 0.85319 0.57037 0.0
H1061 H 1.00441 0.82323 0.59662 0.0
H1062 H 0.05194 0.87757 0.65141 0.0
H1063 H 0.04913 0.90706 0.62489 0.0
C1064 C 0.05619 0.81334 0.66807 0.0
C1065 C 0.0384 0.79637 0.67206 0.0
C1066 C 0.05292 0.82987 0.65288 0.0
C1067 C 0.03177 0.8299 0.64143 0.0
C1068 C 0.01395 0.81273 0.64509 0.0
C1069 C 0.01723 0.79608 0.66031 0.0
C1070 C 1.01205 0.85865 0.588 0.0
C1071 C 0.0247 0.88245 0.59555 0.0
C1072 C 0.01394 0.84159 0.6031 0.0
C1073 C 0.02856 0.84806 0.62596 0.0
C1074 C 0.04077 0.87198 0.63372 0.0
C1075 C 0.03894 0.88896 0.61866 0.0
H1076 H 0.47298 0.79055 0.86785 0.0
H1077 H 0.45481 0.79816 0.93923 0.0
H1078 H 0.4354 0.78816 0.84811 0.0
H1079 H 0.41749 0.796 0.9195 0.0
H1080 H 0.36034 0.81868 0.87086 0.0
H1081 H 0.3971 0.82109 0.89317 0.0
H1082 H 0.39882 0.75683 0.84499 0.0
H1083 H 0.36232 0.75411 0.82293 0.0
C1084 C 0.46102 0.79184 0.87929 0.0
C1085 C 0.46676 0.79433 0.90502 0.0
C1086 C 0.43956 0.79037 0.86803 0.0
C1087 C 0.42364 0.79178 0.88237 0.0
C1088 C 0.42951 0.79493 0.9081 0.0
C1089 C 0.45082 0.79602 0.91931 0.0
C1090 C 0.36839 0.80482 0.86534 0.0
C1091 C 0.3584 0.78632 0.84499 0.0
C1092 C 0.38942 0.80626 0.87804 0.0
C1093 C 0.40083 0.78939 0.8704 0.0
C1094 C 0.39048 0.77031 0.85088 0.0
C1095 C 0.36945 0.76868 0.83842 0.0
H1096 H 0.54963 0.21572 0.13828 0.0
H1097 H 0.50778 0.15645 0.16025 0.0
H1098 H 0.54912 0.18974 0.09971 0.0
H1099 H 0.50681 0.13079 0.12121 0.0
H1100 H 0.50248 0.09542 0.04157 0.0
H1101 H 0.49759 0.12982 0.06904 0.0
H1102 H 0.56603 0.14818 0.10207 0.0
H1103 H 0.57075 0.1133 0.07529 0.0
C1104 C 0.53969 0.19742 0.13452 0.0
C1105 C 0.52889 0.188 0.15239 0.0
C1106 C 0.53946 0.18263 0.11247 0.0
C1107 C 0.52793 0.15844 0.10768 0.0
C1108 C 0.51564 0.14953 0.12453 0.0
C1109 C 0.51627 0.16415 0.14685 0.0
C1110 C 0.51662 0.10742 0.05401 0.0
C1111 C 0.53706 0.10202 0.0563 0.0
C1112 C 0.51377 0.12691 0.06975 0.0
C1113 C 0.53145 0.14149 0.08747 0.0
C1114 C 0.55225 0.13727 0.08828 0.0
C1115 C 0.55497 0.11743 0.073 0.0
H1116 H 0.04296 0.26238 0.32055 0.0
H1117 H 0.08487 0.32252 0.37391 0.0
H1118 H 0.07436 0.25517 0.30425 0.0
H1119 H 0.11633 0.31504 0.35782 0.0
H1120 H 0.16823 0.30262 0.31466 0.0
H1121 H 0.13531 0.31383 0.32313 0.0
H1122 H 0.10462 0.23916 0.32114 0.0
H1123 H 0.13748 0.22797 0.31283 0.0
C1124 C 0.05882 0.27433 0.32854 0.0
C1125 C 0.06143 0.29285 0.34874 0.0
C1126 C 0.07684 0.27007 0.3193 0.0
C1127 C 0.0979 0.28424 0.33001 0.0
C1128 C 0.10033 0.30383 0.34908 0.0
C1129 C 0.08228 0.3081 0.35833 0.0
C1130 C 0.15445 0.28859 0.31605 0.0
C1131 C 0.15556 0.26439 0.31323 0.0
C1132 C 0.13558 0.29503 0.32084 0.0
C1133 C 0.11734 0.27742 0.32282 0.0
C1134 C 0.11824 0.25316 0.31932 0.0
C1135 C 0.13711 0.24672 0.31458 0.0
H1136 H 0.96536 0.03759 0.21136 0.0
H1137 H 0.98982 0.97429 0.19692 0.0
H1138 H 0.97668 0.05058 0.17446 0.0
H1139 H 1.00102 0.98724 0.1604 0.0
H1140 H 1.00187 1.00307 0.08529 0.0
H1141 H 0.98388 0.99268 0.11888 0.0
H1142 H 1.01249 0.06447 0.16038 0.0
H1143 H 0.03034 0.07502 0.12642 0.0
C1144 C 0.97306 0.02642 0.20031 0.0
C1145 C 0.97671 1.0049 0.2071 0.0
C1146 C 0.97957 0.0339 0.17925 0.0
C1147 C 0.98953 0.01981 0.16444 0.0
C1148 C 0.99303 0.99828 0.1712 0.0
C1149 C 0.98677 0.99096 0.19228 0.0
C1150 C 1.00389 0.01684 0.10128 0.0
C1151 C 0.0177 0.03977 0.10336 0.0
C1152 C 0.99373 1.01083 0.12061 0.0
C1153 C 0.99712 0.02763 0.14243 0.0
C1154 C 1.00958 0.05116 0.14378 0.0
C1155 C 0.01983 0.05718 0.12438 0.0
H1156 H 0.27184 0.71693 0.56853 0.0
H1157 H 0.30442 0.66592 0.53707 0.0
H1158 H 0.26599 0.73085 0.52928 0.0
H1159 H 0.2979 0.67917 0.49764 0.0
H1160 H 0.31576 0.73682 0.45043 0.0
H1161 H 0.31438 0.71535 0.48475 0.0
H1162 H 0.24907 0.72307 0.48602 0.0
H1163 H 0.25069 0.74506 0.4517 0.0
C1164 C 0.27723 0.70827 0.55304 0.0
C1165 C 0.28891 0.69067 0.55592 0.0
C1166 C 0.2738 0.71615 0.53051 0.0
C1167 C 0.2818 0.70636 0.51047 0.0
C1168 C 0.29202 0.68748 0.51292 0.0
C1169 C 0.29567 0.67982 0.53546 0.0
C1170 C 0.30096 0.73354 0.45774 0.0
C1171 C 0.28336 0.74262 0.44849 0.0
C1172 C 0.30011 0.72115 0.47736 0.0
C1173 C 0.28157 0.71743 0.48808 0.0
C1174 C 0.26367 0.7259 0.47833 0.0
C1175 C 0.26458 0.73845 0.45873 0.0
H1176 H 0.65173 1.00851 0.72396 0.0
H1177 H 0.59351 0.01545 0.75004 0.0
H1178 H 0.63319 1.0085 0.68144 0.0
H1179 H 0.57541 0.01583 0.70862 0.0
H1180 H 0.53802 0.99761 0.63141 0.0
H1181 H 0.55888 0.99329 0.66994 0.0
H1182 H 0.61775 0.03237 0.65164 0.0
H1183 H 0.59636 0.03622 0.61192 0.0
C1184 C 0.63485 1.00938 0.72069 0.0
C1185 C 0.62415 1.01142 0.74086 0.0
C1186 C 0.62423 1.00981 0.69619 0.0
C1187 C 0.60243 1.01204 0.69087 0.0
C1188 C 0.59187 0.01358 0.71114 0.0
C1189 C 0.60241 0.01335 0.7353 0.0
C1190 C 0.55546 1.00525 0.63525 0.0
C1191 C 0.56518 0.01743 0.61807 0.0
C1192 C 0.56759 1.00292 0.65783 0.0
C1193 C 0.59029 0.01287 0.66489 0.0
C1194 C 0.60038 0.02436 0.64731 0.0
C1195 C 0.58806 0.02663 0.62433 0.0
H1196 H 0.32403 0.31665 0.01051 0.0
H1197 H 0.29263 0.37388 0.99763 0.0
H1198 H 0.31725 0.30204 0.96639 0.0
H1199 H 0.28567 0.35886 0.95299 0.0
H1200 H 0.26354 0.30777 0.87472 0.0
H1201 H 0.2657 0.32123 0.91878 0.0
H1202 H 0.33378 0.32115 0.93317 0.0
H1203 H 0.33175 0.3079 0.8893 0.0
C1204 C 0.31538 0.32597 0.9983 0.0
C1205 C 0.30913 0.34668 1.00766 0.0
C1206 C 0.31161 0.3176 0.97297 0.0
C1207 C 0.30132 0.32957 0.95626 0.0
C1208 C 0.2937 0.34933 0.96552 0.0
C1209 C 0.29765 0.35789 0.99104 0.0
C1210 C 0.27897 0.31062 0.88728 0.0
C1211 C 0.29747 0.30668 0.87847 0.0
C1212 C 0.28019 0.31845 0.91247 0.0
C1213 C 0.29985 0.3221 0.92939 0.0
C1214 C 0.31833 0.31822 0.92057 0.0
C1215 C 0.31719 0.31073 0.89541 0.0
H1216 H 0.96898 0.03186 0.34933 0.0
H1217 H 0.0139 0.98727 0.33945 0.0
H1218 H 0.98233 0.0393 0.39394 0.0
H1219 H 0.02728 0.99493 0.38384 0.0
H1220 H 0.02104 0.9842 0.4622 0.0
H1221 H 1.01054 0.98145 0.41788 0.0
H1222 H 0.0146 0.05769 0.42821 0.0
H1223 H 0.02499 0.06055 0.4728 0.0
C1224 C 0.98196 0.02403 0.35659 0.0
C1225 C 0.99018 1.00874 0.34082 0.0
C1226 C 0.98963 0.02832 0.38215 0.0
C1227 C 1.0056 0.01737 0.3924 0.0
C1228 C 0.01463 1.0032 0.37652 0.0
C1229 C 1.00703 0.99895 0.35105 0.0
C1230 C 0.01969 1.00043 0.45513 0.0
C1231 C 0.02388 0.02259 0.47114 0.0
C1232 C 0.01383 0.99887 0.42967 0.0
C1233 C 1.01194 0.0194 0.41954 0.0
C1234 C 0.01585 0.04155 0.4355 0.0
C1235 C 0.02184 0.04315 0.46104 0.0
H1236 H 0.36345 0.71039 0.69837 0.0
H1237 H 0.36293 0.75438 0.64216 0.0
H1238 H 0.37224 0.74588 0.72998 0.0
H1239 H 0.37254 0.79054 0.67388 0.0
H1240 H 0.32675 0.81894 0.72379 0.0
H1241 H 0.34502 0.80039 0.69435 0.0
H1242 H 0.38793 0.78413 0.75442 0.0
H1243 H 0.36863 0.80145 0.78351 0.0
C1244 C 0.36684 0.72788 0.69292 0.0
C1245 C 0.36243 0.72981 0.66802 0.0
C1246 C 0.37183 0.74842 0.71107 0.0
C1247 C 0.37238 0.77114 0.70444 0.0
C1248 C 0.37165 0.77326 0.67954 0.0
C1249 C 0.36647 0.75261 0.66137 0.0
C1250 C 0.34064 0.81223 0.73062 0.0
C1251 C 0.34606 0.81102 0.7556 0.0
C1252 C 0.35129 0.8017 0.71382 0.0
C1253 C 0.36764 0.79013 0.72198 0.0
C1254 C 0.37505 0.79226 0.74747 0.0
C1255 C 0.36405 0.80222 0.76412 0.0
H1256 H 0.65874 0.01822 0.90577 0.0
H1257 H 0.59794 0.02145 0.86242 0.0
H1258 H 0.64268 0.02067 0.94316 0.0
H1259 H 0.58219 0.02418 0.89896 0.0
H1260 H 0.54992 1.01208 0.96403 0.0
H1261 H 0.56736 1.00648 0.92892 0.0
H1262 H 0.62956 0.04467 0.97445 0.0
H1263 H 0.61185 0.04997 0.01012 0.0
C1264 C 0.64184 0.01884 0.90392 0.0
C1265 C 0.62975 0.01912 0.88039 0.0
C1266 C 0.63258 0.02067 0.92564 0.0
C1267 C 0.61074 0.02262 0.92484 0.0
C1268 C 0.59876 0.02231 0.90113 0.0
C1269 C 0.60798 0.02074 0.87975 0.0
C1270 C 0.56734 0.01943 0.96685 0.0
C1271 C 0.57911 0.03173 0.99051 0.0
C1272 C 0.57754 0.01629 0.94629 0.0
C1273 C 0.60023 0.02523 0.94797 0.0
C1274 C 0.61218 0.03723 0.9718 0.0
C1275 C 0.60188 0.04046 0.9925 0.0
H1276 H 0.30053 0.37957 0.15074 0.0
H1277 H 0.3366 0.32603 0.13674 0.0
H1278 H 0.29121 0.36275 0.18672 0.0
H1279 H 0.32681 0.30895 0.17165 0.0
H1280 H 0.32277 0.29418 0.2478 0.0
H1281 H 0.33354 0.31498 0.2149 0.0
H1282 H 0.26968 0.32871 0.19856 0.0
H1283 H 0.25948 0.30906 0.23231 0.0
C1284 C 0.30639 0.36421 0.15524 0.0
C1285 C 0.31941 0.3543 0.14085 0.0
C1286 C 0.30099 0.35447 0.17581 0.0
C1287 C 0.30839 0.33453 0.18235 0.0
C1288 C 0.32123 0.32462 0.16773 0.0
C1289 C 0.32671 0.33439 0.14744 0.0
C1290 C 0.31121 0.302 0.23743 0.0
C1291 C 0.29036 0.30013 0.24276 0.0
C1292 C 0.31724 0.3137 0.21833 0.0
C1293 C 0.30246 0.32353 0.20384 0.0
C1294 C 0.28164 0.32175 0.20942 0.0
C1295 C 0.2757 0.31023 0.22864 0.0
H1296 H 0.21204 0.90299 0.02193 0.0
H1297 H 0.22126 0.95433 0.97283 0.0
H1298 H 0.19677 0.92982 0.04748 0.0
H1299 H 0.20555 0.98092 0.99817 0.0
H1300 H 0.19217 0.03257 0.05759 0.0
H1301 H 0.21302 1.00654 0.03939 0.0
H1302 H 0.16357 0.9439 0.04337 0.0
H1303 H 0.14317 0.96986 0.06192 0.0
C1304 C 0.21065 0.91991 0.01646 0.0
C1305 C 0.21776 0.9265 0.99528 0.0
C1306 C 0.20195 0.93528 0.03115 0.0
C1307 C 0.20016 0.95754 0.02494 0.0
C1308 C 0.20715 0.96408 1.00369 0.0
C1309 C 0.21587 0.94871 0.989 0.0
C1310 C 0.18622 0.01323 0.05526 0.0
C1311 C 0.1661 1.0031 0.06092 0.0
C1312 C 0.19795 0.99836 0.04459 0.0
C1313 C 0.18972 0.97323 0.03962 0.0
C1314 C 0.17037 0.96318 0.04705 0.0
C1315 C 0.15867 0.978 0.05759 0.0
H1316 H 0.71601 0.60125 0.0451 0.0
H1317 H 0.67662 0.63495 0.99778 0.0
H1318 H 0.68295 0.57349 0.05031 0.0
H1319 H 0.64385 0.60678 1.00183 0.0
H1320 H 0.58823 0.57558 0.03633 0.0
H1321 H 0.62207 0.60064 0.0306 0.0
H1322 H 0.65208 0.54095 0.03434 0.0
H1323 H 0.61836 0.51658 0.04198 0.0
C1324 C 0.70033 0.60224 0.03524 0.0
C1325 C 0.6989 0.62035 0.02116 0.0
C1326 C 0.68132 0.58637 0.03824 0.0
C1327 C 0.66051 0.5881 0.02695 0.0
C1328 C 0.65939 0.6053 0.01157 0.0
C1329 C 0.67825 0.6213 0.00894 0.0
C1330 C 0.60225 0.56814 0.0368 0.0
C1331 C 0.60082 0.54444 0.04044 0.0
C1332 C 0.62161 0.58228 0.03284 0.0
C1333 C 0.64002 0.57291 0.03181 0.0
C1334 C 0.63848 0.54902 0.03533 0.0
C1335 C 0.6191 0.53496 0.03957 0.0
H1336 H 0.68089 0.5034 0.29984 0.0
H1337 H 0.68569 0.49807 0.37689 0.0
H1338 H 0.70043 0.47209 0.2942 0.0
H1339 H 0.70464 0.46627 0.3711 0.0
H1340 H 0.759 0.42974 0.35862 0.0
H1341 H 0.73881 0.46032 0.36407 0.0
H1342 H 0.69715 0.42987 0.29269 0.0
H1343 H 0.7182 0.40002 0.28662 0.0
C1344 C 0.686 0.49545 0.31556 0.0
C1345 C 0.68179 0.50332 0.33884 0.0
C1346 C 0.69708 0.47735 0.31228 0.0
C1347 C 0.70413 0.46658 0.33218 0.0
C1348 C 0.69976 0.47438 0.35543 0.0
C1349 C 0.68879 0.49256 0.35874 0.0
C1350 C 0.74568 0.42968 0.34394 0.0
C1351 C 0.74038 0.41249 0.32207 0.0
C1352 C 0.73388 0.44706 0.34723 0.0
C1353 C 0.71632 0.44764 0.32883 0.0
C1354 C 0.71075 0.43019 0.30712 0.0
C1355 C 0.72265 0.41285 0.30377 0.0
H1356 H 0.78949 0.46506 0.47622 0.0
H1357 H 0.82383 0.42573 0.4316 0.0
H1358 H 0.81776 0.50183 0.47967 0.0
H1359 H 0.85206 0.46217 0.43534 0.0
H1360 H 0.90503 0.52279 0.44764 0.0
H1361 H 0.86687 0.50328 0.43112 0.0
H1362 H 0.85414 0.50965 0.50509 0.0
H1363 H 0.8921 0.53023 0.52153 0.0
C1364 C 0.8027 0.46439 0.46651 0.0
C1365 C 0.80481 0.44237 0.45424 0.0
C1366 C 0.8189 0.48546 0.46854 0.0
C1367 C 0.83736 0.48484 0.45823 0.0
C1368 C 0.83805 0.46338 0.44348 0.0
C1369 C 0.82193 0.44234 0.44153 0.0
C1370 C 0.89393 0.52113 0.46034 0.0
C1371 C 0.90171 0.52745 0.48601 0.0
C1372 C 0.87205 0.50974 0.45082 0.0
C1373 C 0.85763 0.50429 0.4668 0.0
C1374 C 0.86481 0.51347 0.49221 0.0
C1375 C 0.88667 0.52502 0.50172 0.0
H1376 H 0.34526 0.10174 0.30863 0.0
H1377 H 0.4011 0.13984 0.28427 0.0
H1378 H 0.32991 0.13626 0.30907 0.0
H1379 H 0.38527 0.17503 0.28419 0.0
H1380 H 0.35788 0.2435 0.30239 0.0
H1381 H 0.37481 0.20941 0.30113 0.0
H1382 H 0.31149 0.16098 0.29193 0.0
H1383 H 0.29486 0.19504 0.29375 0.0
C1384 C 0.35446 0.11744 0.30311 0.0
C1385 C 0.37481 0.11706 0.29634 0.0
C1386 C 0.3453 0.13772 0.30317 0.0
C1387 C 0.3557 0.15941 0.29642 0.0
C1388 C 0.37625 0.15926 0.28974 0.0
C1389 C 0.3855 0.1387 0.28964 0.0
C1390 C 0.34741 0.2256 0.30005 0.0
C1391 C 0.32461 0.22276 0.29822 0.0
C1392 C 0.3573 0.20563 0.29921 0.0
C1393 C 0.34506 0.18144 0.29658 0.0
C1394 C 0.32219 0.17874 0.29451 0.0
C1395 C 0.31235 0.19867 0.29535 0.0
H1396 H 0.32045 0.12763 0.50444 0.0
H1397 H 0.32857 0.12721 0.58268 0.0
H1398 H 0.35152 0.10986 0.50287 0.0
H1399 H 0.35924 0.10915 0.58104 0.0
H1400 H 0.42654 0.09904 0.57599 0.0
H1401 H 0.39642 0.1183 0.5759 0.0
H1402 H 0.36311 0.07306 0.50611 0.0
H1403 H 0.39366 0.05437 0.50575 0.0
C1404 C 0.32878 0.12367 0.52129 0.0
C1405 C 0.32194 0.12894 0.54369 0.0
C1406 C 0.34657 0.11336 0.52038 0.0
C1407 C 0.35807 0.1081 0.54185 0.0
C1408 C 0.35111 0.11328 0.56419 0.0
C1409 C 0.33334 0.12352 0.56509 0.0
C1410 C 0.41299 0.09342 0.56039 0.0
C1411 C 0.41265 0.07506 0.54088 0.0
C1412 C 0.39551 0.10429 0.56051 0.0
C1413 C 0.37714 0.09717 0.5411 0.0
C1414 C 0.37699 0.07917 0.52131 0.0
C1415 C 0.39446 0.06824 0.52123 0.0
H1416 H 0.70957 0.60878 0.33985 0.0
H1417 H 0.66665 0.65547 0.32555 0.0
H1418 H 0.74064 0.64088 0.33688 0.0
H1419 H 0.69749 0.68706 0.3223 0.0
H1420 H 0.75187 0.71959 0.28241 0.0
H1421 H 0.72269 0.68773 0.2891 0.0
H1422 H 0.76088 0.68672 0.35993 0.0
H1423 H 0.78989 0.71954 0.35367 0.0
C1424 C 0.70678 0.62587 0.33627 0.0
C1425 C 0.68561 0.6295 0.33281 0.0
C1426 C 0.72454 0.64421 0.33467 0.0
C1427 C 0.72133 0.66628 0.32916 0.0
C1428 C 0.70032 0.6701 0.32633 0.0
C1429 C 0.68269 0.652 0.32829 0.0
C1430 C 0.7539 0.71286 0.29958 0.0
C1431 C 0.77282 0.72244 0.31782 0.0
C1432 C 0.73729 0.69454 0.30332 0.0
C1433 C 0.73951 0.68501 0.32512 0.0
C1434 C 0.75882 0.69384 0.34298 0.0
C1435 C 0.77534 0.71256 0.33941 0.0
H1436 H 0.86451 0.4923 0.81187 0.0
H1437 H 0.8903 0.46048 0.75262 0.0
H1438 H 0.84272 0.45218 0.81391 0.0
H1439 H 0.86914 0.42081 0.75474 0.0
H1440 H 0.82003 0.35031 0.75295 0.0
H1441 H 0.83641 0.39135 0.74835 0.0
H1442 H 0.84513 0.41504 0.82685 0.0
H1443 H 0.82842 0.37413 0.8313 0.0
C1444 C 0.86507 0.47694 0.79874 0.0
C1445 C 0.87904 0.48004 0.78175 0.0
C1446 C 0.85282 0.45366 0.80019 0.0
C1447 C 0.85397 0.4326 0.7846 0.0
C1448 C 0.86726 0.43609 0.76696 0.0
C1449 C 0.87952 0.45914 0.7657 0.0
C1450 C 0.82538 0.36422 0.76928 0.0
C1451 C 0.82282 0.3584 0.79254 0.0
C1452 C 0.83497 0.38801 0.76668 0.0
C1453 C 0.84242 0.40716 0.7872 0.0
C1454 C 0.83952 0.40131 0.8104 0.0
C1455 C 0.83 0.37753 0.813 0.0
H1456 H 0.07716 0.84977 0.0786 0.0
H1457 H 0.07169 0.8807 0.15152 0.0
H1458 H 0.06952 0.88499 0.06293 0.0
H1459 H 0.06464 0.91655 0.13578 0.0
H1460 H 0.08436 0.98556 0.09675 0.0
H1461 H 0.09011 0.95007 0.11379 0.0
H1462 H 0.03491 0.90534 0.06026 0.0
H1463 H 0.02873 0.94074 0.04362 0.0
C1464 C 0.07425 0.8641 0.09127 0.0
C1465 C 0.07498 0.86249 0.11629 0.0
C1466 C 0.06986 0.88422 0.08226 0.0
C1467 C 0.06662 0.90347 0.09817 0.0
C1468 C 0.06721 0.90193 0.1232 0.0
C1469 C 0.07106 0.88142 0.13214 0.0
C1470 C 0.07352 0.96813 0.08855 0.0
C1471 C 0.05612 0.96592 0.06879 0.0
C1472 C 0.07669 0.94792 0.09847 0.0
C1473 C 0.06283 0.92508 0.08844 0.0
C1474 C 0.04576 0.92279 0.06836 0.0
C1475 C 0.04227 0.94303 0.05883 0.0
H1476 H 0.95473 0.25279 0.87498 0.0
H1477 H 0.92264 0.26592 0.93601 0.0
H1478 H 0.92255 0.25625 0.84641 0.0
H1479 H 0.89107 0.26945 0.90779 0.0
H1480 H 0.84819 0.3005 0.85338 0.0
H1481 H 0.8815 0.29792 0.88024 0.0
H1482 H 0.88247 0.2336 0.83159 0.0
H1483 H 0.84912 0.23604 0.80496 0.0
C1484 C 0.9409 0.25634 0.8823 0.0
C1485 C 0.94135 0.259 0.90782 0.0
C1486 C 0.92248 0.2583 0.86597 0.0
C1487 C 0.90434 0.26334 0.8749 0.0
C1488 C 0.90486 0.26593 0.90034 0.0
C1489 C 0.923 0.26368 0.91651 0.0
C1490 C 0.85552 0.28583 0.84848 0.0
C1491 C 0.846 0.26845 0.82714 0.0
C1492 C 0.87457 0.28432 0.86383 0.0
C1493 C 0.88467 0.26557 0.85798 0.0
C1494 C 0.87526 0.24839 0.83644 0.0
C1495 C 0.85606 0.24971 0.82131 0.0
H1496 H 0.6027 0.23445 0.60901 0.0
H1497 H 0.53574 0.22626 0.61643 0.0
H1498 H 0.5963 0.19163 0.5964 0.0
H1499 H 0.5286 0.18278 0.60178 0.0
H1500 H 0.52908 0.10291 0.59717 0.0
H1501 H 0.53357 0.14598 0.6103 0.0
H1502 H 0.58156 0.16055 0.56455 0.0
H1503 H 0.57818 0.11772 0.55322 0.0
C1504 C 0.58637 0.22341 0.60739 0.0
C1505 C 0.56963 0.23374 0.6134 0.0
C1506 C 0.58262 0.19871 0.5999 0.0
C1507 C 0.56179 0.18347 0.59745 0.0
C1508 C 0.54492 0.19381 0.60358 0.0
C1509 C 0.5489 0.21872 0.6118 0.0
C1510 C 0.54068 0.11546 0.59014 0.0
C1511 C 0.55359 0.10708 0.57456 0.0
C1512 C 0.54312 0.14018 0.59745 0.0
C1513 C 0.55814 0.15703 0.58881 0.0
C1514 C 0.57038 0.14836 0.5724 0.0
C1515 C 0.56839 0.12374 0.56571 0.0
H1516 H 0.59613 0.77366 0.44772 0.0
H1517 H 0.54996 0.75994 0.37878 0.0
H1518 H 0.62577 0.7752 0.42549 0.0
H1519 H 0.5798 0.76098 0.35632 0.0
H1520 H 0.64152 0.7895 0.32615 0.0
H1521 H 0.61118 0.78762 0.34759 0.0
H1522 H 0.64156 0.75044 0.39976 0.0
H1523 H 0.67232 0.75323 0.37896 0.0
C1524 C 0.59223 0.77084 0.42776 0.0
C1525 C 0.57054 0.76665 0.4151 0.0
C1526 C 0.60932 0.77155 0.41495 0.0
C1527 C 0.60532 0.76808 0.38901 0.0
C1528 C 0.5836 0.76398 0.37629 0.0
C1529 C 0.56644 0.76325 0.38916 0.0
C1530 C 0.64189 0.78115 0.34236 0.0
C1531 C 0.65959 0.77168 0.35083 0.0
C1532 C 0.62427 0.77978 0.35449 0.0
C1533 C 0.62379 0.76891 0.37551 0.0
C1534 C 0.6414 0.75924 0.38385 0.0
C1535 C 0.659 0.7606 0.37171 0.0
H1536 H 0.07452 0.2572 0.4246 0.0
H1537 H 0.01425 0.20625 0.42425 0.0
H1538 H 0.09481 0.22724 0.43462 0.0
H1539 H 0.03405 0.17663 0.43388 0.0
H1540 H 0.0637 0.12519 0.45252 0.0
H1541 H 0.05773 0.15087 0.42323 0.0
H1542 H 0.10007 0.21202 0.47464 0.0
H1543 H 0.10813 0.18586 0.50349 0.0
C1544 C 0.06563 0.23937 0.4259 0.0
C1545 C 0.04295 0.23399 0.42412 0.0
C1546 C 0.07719 0.22232 0.43163 0.0
C1547 C 0.06606 0.19962 0.43504 0.0
C1548 C 0.04317 0.19378 0.43103 0.0
C1549 C 0.03177 0.21083 0.4258 0.0
C1550 C 0.07288 0.14376 0.45744 0.0
C1551 C 0.0857 0.1535 0.4812 0.0
C1552 C 0.06923 0.15858 0.44044 0.0
C1553 C 0.07763 0.18353 0.44709 0.0
C1554 C 0.09303 0.19284 0.46915 0.0
C1555 C 0.09724 0.17786 0.48597 0.0
H1556 H 0.62514 0.27587 0.25317 0.0
H1557 H 0.61392 0.20131 0.22005 0.0
H1558 H 0.66366 0.28212 0.25209 0.0
H1559 H 0.65203 0.20773 0.21686 0.0
H1560 H 0.72886 0.29575 0.23619 0.0
H1561 H 0.68923 0.28675 0.22771 0.0
H1562 H 0.68673 0.2134 0.23747 0.0
H1563 H 0.72584 0.22193 0.24375 0.0
C1564 C 0.63106 0.26081 0.24574 0.0
C1565 C 0.61679 0.23804 0.23713 0.0
C1566 C 0.65305 0.26445 0.24457 0.0
C1567 C 0.66111 0.24556 0.23395 0.0
C1568 C 0.64666 0.22268 0.2255 0.0
C1569 C 0.6248 0.2189 0.2274 0.0
C1570 C 0.71971 0.27747 0.23543 0.0
C1571 C 0.73048 0.25967 0.24096 0.0
C1572 C 0.69699 0.27238 0.23111 0.0
C1573 C 0.68465 0.24957 0.23291 0.0
C1574 C 0.69545 0.23119 0.23592 0.0
C1575 C 0.71809 0.23611 0.23952 0.0
H1576 H 0.54767 0.84761 0.02116 0.0
H1577 H 0.563 0.88047 0.95909 0.0
H1578 H 0.54927 0.88696 0.04443 0.0
H1579 H 0.56493 0.91981 0.98259 0.0
H1580 H 0.53107 0.97489 0.01344 0.0
H1581 H 0.53454 0.93589 0.99443 0.0
H1582 H 0.57162 0.92841 0.06354 0.0
H1583 H 0.56799 0.96765 0.08273 0.0
C1584 C 0.55195 0.86327 0.01269 0.0
C1585 C 0.55478 0.86085 0.98807 0.0
C1586 C 0.55288 0.88582 0.02608 0.0
C1587 C 0.55667 0.90631 0.01507 0.0
C1588 C 0.56141 0.90417 0.99128 0.0
C1589 C 0.56051 0.88166 0.9779 0.0
C1590 C 0.53975 0.9648 0.02466 0.0
C1591 C 0.54939 0.97429 0.04947 0.0
C1592 C 0.54198 0.94262 0.0137 0.0
C1593 C 0.55383 0.92942 0.02736 0.0
C1594 C 0.56253 0.93832 0.05257 0.0
C1595 C 0.56036 0.96065 0.06355 0.0
H1596 H 0.03359 0.79752 0.76606 0.0
H1597 H 0.01548 0.73081 0.79267 0.0
H1598 H 1.00396 0.8108 0.78099 0.0
H1599 H 0.98515 0.74393 0.80712 0.0
H1600 H 0.94054 0.78532 0.84396 0.0
H1601 H 0.97323 0.77308 0.83544 0.0
H1602 H 0.96513 0.79841 0.76606 0.0
H1603 H 0.93291 0.81063 0.77458 0.0
C1604 C 0.02334 0.78574 0.77529 0.0
C1605 C 0.02668 0.76298 0.77791 0.0
C1606 C 1.00626 0.7933 0.78372 0.0
C1607 C 0.99189 0.7782 0.79474 0.0
C1608 C 0.99596 0.75598 0.79871 0.0
C1609 C 0.01329 0.74845 0.79042 0.0
C1610 C 0.9458 0.7882 0.82691 0.0
C1611 C 0.93436 0.79929 0.81012 0.0
C1612 C 0.96448 0.78119 0.82203 0.0
C1613 C 0.97198 0.78512 0.80027 0.0
C1614 C 0.9602 0.79574 0.78334 0.0
C1615 C 0.94169 0.80276 0.78821 0.0
H1616 H 0.09856 0.08223 0.89804 0.0
H1617 H 0.12447 0.01967 0.88597 0.0
H1618 H 0.08715 0.06996 0.93465 0.0
H1619 H 0.11283 1.0073 0.92305 0.0
H1620 H 0.05779 0.98391 0.97047 0.0
H1621 H 0.07638 0.99345 0.93673 0.0
H1622 H 0.10453 0.06587 0.9768 0.0
H1623 H 0.0858 0.0565 0.01014 0.0
C1624 C 0.10187 0.06584 0.9032 0.0
C1625 C 0.11241 0.05191 0.88901 0.0
C1626 C 0.09548 0.05893 0.92436 0.0
C1627 C 0.09932 0.03782 0.93187 0.0
C1628 C 0.10971 0.02369 0.91767 0.0
C1629 C 0.11637 0.03078 0.89651 0.0
C1630 C 0.06835 1.00169 0.97225 0.0
C1631 C 0.07011 0.01958 0.99274 0.0
C1632 C 0.07904 1.00712 0.95301 0.0
C1633 C 0.09158 0.03052 0.95398 0.0
C1634 C 0.09465 0.0478 0.97537 0.0
C1635 C 0.08403 0.04238 0.99454 0.0
H1636 H 0.8091 0.33967 0.52947 0.0
H1637 H 0.77318 0.38883 0.55738 0.0
H1638 H 0.81447 0.3269 0.56932 0.0
H1639 H 0.77916 0.37666 0.59742 0.0
H1640 H 0.76557 0.32237 0.64917 0.0
H1641 H 0.76489 0.34097 0.61268 0.0
H1642 H 0.83159 0.33806 0.61251 0.0
H1643 H 0.83205 0.31893 0.64891 0.0
C1644 C 0.80271 0.34806 0.54425 0.0
C1645 C 0.79048 0.365 0.54023 0.0
C1646 C 0.80589 0.34085 0.56713 0.0
C1647 C 0.79706 0.35062 0.58645 0.0
C1648 C 0.78577 0.36845 0.58274 0.0
C1649 C 0.78242 0.37548 0.55983 0.0
C1650 C 0.78019 0.32607 0.64155 0.0
C1651 C 0.79884 0.3192 0.65175 0.0
C1652 C 0.77984 0.33679 0.6207 0.0
C1653 C 0.79821 0.341 0.60971 0.0
C1654 C 0.8171 0.33473 0.62036 0.0
C1655 C 0.81738 0.32385 0.64117 0.0
H1656 H 0.49568 0.05221 0.35396 0.0
H1657 H 0.43878 0.06103 0.38202 0.0
H1658 H 0.51421 0.05078 0.39485 0.0
H1659 H 0.4578 0.06005 0.42404 0.0
H1660 H 0.49446 0.03079 0.49232 0.0
H1661 H 0.47285 0.03555 0.45317 0.0
H1662 H 0.53192 0.07229 0.43342 0.0
H1663 H 0.55298 0.06703 0.47138 0.0
C1664 C 0.48718 0.0545 0.36903 0.0
C1665 C 0.46566 0.05726 0.36417 0.0
C1666 C 0.49798 0.05368 0.3929 0.0
C1667 C 0.48793 0.05544 0.41358 0.0
C1668 C 0.46637 0.05852 0.40896 0.0
C1669 C 0.45548 0.05953 0.38475 0.0
C1670 C 0.50279 0.04002 0.4797 0.0
C1671 C 0.52577 0.04827 0.48539 0.0
C1672 C 0.49032 0.04284 0.45704 0.0
C1673 C 0.50035 0.05398 0.43922 0.0
C1674 C 0.5232 0.06295 0.44571 0.0
C1675 C 0.53547 0.06007 0.46797 0.0
H1676 H 0.77492 0.74753 0.09373 0.0
H1677 H 0.78247 0.67849 0.10924 0.0
H1678 H 0.78257 0.76353 0.13809 0.0
H1679 H 0.78936 0.69439 0.15367 0.0
H1680 H 0.75887 0.72992 0.22085 0.0
H1681 H 0.75769 0.71442 0.17741 0.0
H1682 H 0.81818 0.76585 0.18009 0.0
H1683 H 0.81984 0.78096 0.22387 0.0
C1684 C 0.77858 0.73592 0.10662 0.0
C1685 C 0.77815 0.71179 0.09807 0.0
C1686 C 0.78295 0.74507 0.13193 0.0
C1687 C 0.78643 0.73011 0.14911 0.0
C1688 C 0.78672 0.70622 0.14066 0.0
C1689 C 0.78292 0.69721 0.11532 0.0
C1690 C 0.77193 0.73791 0.2122 0.0
C1691 C 0.78942 0.75668 0.2257 0.0
C1692 C 0.77133 0.72892 0.18746 0.0
C1693 C 0.78792 0.73889 0.17563 0.0
C1694 C 0.80529 0.75783 0.18896 0.0
C1695 C 0.80619 0.76644 0.21391 0.0
H1696 H 0.0986 0.0879 0.75274 0.0
H1697 H 0.10343 0.01462 0.75144 0.0
H1698 H 0.08496 0.07928 0.70879 0.0
H1699 H 0.08792 1.00512 0.70716 0.0
H1700 H 0.08168 1.00325 0.62348 0.0
H1701 H 0.09376 1.00891 0.66817 0.0
H1702 H 0.05651 0.06229 0.67749 0.0
H1703 H 0.04634 0.05798 0.63298 0.0
C1704 C 0.09619 0.06968 0.74305 0.0
C1705 C 0.10195 0.05189 0.75557 0.0
C1706 C 0.08813 0.0646 0.7177 0.0
C1707 C 0.08491 0.04133 0.70408 0.0
C1708 C 0.09039 0.02335 0.71677 0.0
C1709 C 0.09911 0.02867 0.74221 0.0
C1710 C 0.07621 0.01619 0.63528 0.0
C1711 C 0.06346 0.03051 0.62497 0.0
C1712 C 0.08295 0.01933 0.66093 0.0
C1713 C 0.07649 0.0364 0.67678 0.0
C1714 C 0.06263 0.04967 0.66614 0.0
C1715 C 0.05657 0.04709 0.64058 0.0
H1716 H 0.72463 0.30305 0.44278 0.0
H1717 H 0.71041 0.35849 0.40348 0.0
H1718 H 0.71632 0.2749 0.40475 0.0
H1719 H 0.70059 0.32981 0.36473 0.0
H1720 H 0.75079 0.30693 0.32108 0.0
H1721 H 0.72797 0.32235 0.34623 0.0
H1722 H 0.70879 0.2525 0.367 0.0
H1723 H 0.73366 0.23816 0.34346 0.0
C1724 C 0.71821 0.3087 0.42597 0.0
C1725 C 0.71907 0.33301 0.42573 0.0
C1726 C 0.71342 0.29248 0.40384 0.0
C1727 C 0.70945 0.30055 0.38123 0.0
C1728 C 0.70505 0.32342 0.3817 0.0
C1729 C 0.71023 0.33981 0.40395 0.0
C1730 C 0.74167 0.29499 0.33107 0.0
C1731 C 0.74484 0.27194 0.33151 0.0
C1732 C 0.72805 0.30359 0.34518 0.0
C1733 C 0.71688 0.28899 0.35965 0.0
C1734 C 0.71785 0.26471 0.35717 0.0
C1735 C 0.73213 0.25644 0.34372 0.0
H1736 H 0.4301 0.05447 0.20001 0.0
H1737 H 0.49069 0.04993 0.24277 0.0
H1738 H 0.44631 0.05324 0.1627 0.0
H1739 H 0.5066 0.04846 0.20628 0.0
H1740 H 0.53918 0.06279 0.14172 0.0
H1741 H 0.52165 0.06721 0.17695 0.0
H1742 H 0.45949 0.03018 0.13066 0.0
H1743 H 0.47729 0.02605 0.09492 0.0
C1744 C 0.447 0.05383 0.20178 0.0
C1745 C 0.45897 0.05281 0.22513 0.0
C1746 C 0.45635 0.0527 0.18007 0.0
C1747 C 0.47818 0.05077 0.18069 0.0
C1748 C 0.49004 0.05034 0.20425 0.0
C1749 C 0.48073 0.05119 0.2256 0.0
C1750 C 0.52175 0.05545 0.13875 0.0
C1751 C 0.51002 0.04383 0.11485 0.0
C1752 C 0.5115 0.0579 0.15938 0.0
C1753 C 0.48878 0.04892 0.15754 0.0
C1754 C 0.47689 0.03761 0.13348 0.0
C1755 C 0.48724 0.03505 0.11272 0.0
H1756 H 0.80283 0.71269 0.97839 0.0
H1757 H 0.73464 0.70131 0.9468 0.0
H1758 H 0.8124 0.73372 0.94468 0.0
H1759 H 0.74417 0.72141 0.91291 0.0
H1760 H 0.77553 0.7358 0.84385 0.0
H1761 H 0.76776 0.71325 0.87666 0.0
H1762 H 0.80189 0.7759 0.93139 0.0
H1763 H 0.80888 0.79895 0.8985 0.0
C1764 C 0.78996 0.71422 0.96398 0.0
C1765 C 0.76801 0.70533 0.96512 0.0
C1766 C 0.7954 0.72639 0.94488 0.0
C1767 C 0.77898 0.72921 0.9263 0.0
C1768 C 0.75711 0.71944 0.92697 0.0
C1769 C 0.75169 0.70793 0.94633 0.0
C1770 C 0.78107 0.74493 0.86284 0.0
C1771 C 0.79244 0.76932 0.86856 0.0
C1772 C 0.7768 0.73193 0.8816 0.0
C1773 C 0.78435 0.74281 0.9065 0.0
C1774 C 0.79607 0.76706 0.91231 0.0
C1775 C 0.7999 0.78026 0.89351 0.0
H1776 H 0.87873 0.15755 0.06666 0.0
H1777 H 0.86808 0.10388 0.113 0.0
H1778 H 0.88821 0.12902 0.03666 0.0
H1779 H 0.87833 0.0756 0.08341 0.0
H1780 H 0.8924 0.02501 0.02621 0.0
H1781 H 0.87076 0.051 0.04272 0.0
H1782 H 0.91979 0.1136 0.03757 0.0
H1783 H 0.94079 0.08767 0.02057 0.0
C1784 C 0.87843 0.13964 0.07045 0.0
C1785 C 0.87307 0.13305 0.0924 0.0
C1786 C 0.88378 0.12329 0.0532 0.0
C1787 C 0.88414 0.10009 0.05768 0.0
C1788 C 0.87789 0.0932 0.07919 0.0
C1789 C 0.8723 0.1095 0.09633 0.0
C1790 C 0.89797 0.04431 0.0277 0.0
C1791 C 0.91826 0.05449 0.02248 0.0
C1792 C 0.88577 0.05917 0.0374 0.0
C1793 C 0.89378 0.08434 0.04192 0.0
C1794 C 0.91305 0.09433 0.03425 0.0
C1795 C 0.92517 0.07951 0.0246 0.0
H1796 H 0.41011 0.41035 0.07809 0.0
H1797 H 0.37559 0.46653 0.08275 0.0
H1798 H 0.44206 0.4387 0.07282 0.0
H1799 H 0.40835 0.49538 0.07769 0.0
H1800 H 0.48317 0.53989 0.09588 0.0
H1801 H 0.44894 0.51411 0.10086 0.0
H1802 H 0.45132 0.46188 0.03894 0.0
H1803 H 0.48521 0.48785 0.03362 0.0
C1804 C 0.40929 0.42883 0.07815 0.0
C1805 C 0.39006 0.43604 0.08079 0.0
C1806 C 0.4277 0.44508 0.07494 0.0
C1807 C 0.42768 0.4692 0.07452 0.0
C1808 C 0.4088 0.47683 0.0779 0.0
C1809 C 0.39006 0.46034 0.08081 0.0
C1810 C 0.47631 0.52294 0.08327 0.0
C1811 C 0.48709 0.51568 0.06462 0.0
C1812 C 0.45664 0.50828 0.08604 0.0
C1813 C 0.44748 0.48592 0.07039 0.0
C1814 C 0.4581 0.4789 0.05147 0.0
C1815 C 0.47757 0.49369 0.0485 0.0
H1816 H 0.39681 0.55264 0.74851 0.0
H1817 H 0.4244 0.59124 0.82285 0.0
H1818 H 0.37649 0.58282 0.74124 0.0
H1819 H 0.40408 0.62148 0.81547 0.0
H1820 H 0.34571 0.65528 0.80059 0.0
H1821 H 0.36555 0.62478 0.80788 0.0
H1822 H 0.38436 0.62617 0.73719 0.0
H1823 H 0.36493 0.65718 0.73005 0.0
C1824 C 0.39851 0.56752 0.76334 0.0
C1825 C 0.41225 0.56952 0.78629 0.0
C1826 C 0.38696 0.58489 0.75909 0.0
C1827 C 0.38873 0.60456 0.77775 0.0
C1828 C 0.40225 0.60641 0.80079 0.0
C1829 C 0.41395 0.58914 0.80499 0.0
C1830 C 0.35429 0.64937 0.78669 0.0
C1831 C 0.35381 0.65889 0.76477 0.0
C1832 C 0.36562 0.63181 0.79087 0.0
C1833 C 0.37657 0.62312 0.77316 0.0
C1834 C 0.37588 0.63233 0.75109 0.0
C1835 C 0.36469 0.65007 0.74698 0.0
H1836 H 0.27215 0.62638 0.67019 0.0
H1837 H 0.30064 0.59185 0.61481 0.0
H1838 H 0.24525 0.5892 0.66734 0.0
H1839 H 0.27378 0.55407 0.61224 0.0
H1840 H 0.19053 0.53259 0.65377 0.0
H1841 H 0.22961 0.54803 0.66749 0.0
H1842 H 0.23656 0.5475 0.59172 0.0
H1843 H 0.19771 0.53059 0.57794 0.0
C1844 C 0.27316 0.61053 0.65808 0.0
C1845 C 0.28795 0.6122 0.6421 0.0
C1846 C 0.25783 0.589 0.65659 0.0
C1847 C 0.25695 0.56872 0.639 0.0
C1848 C 0.27373 0.56953 0.62555 0.0
C1849 C 0.28917 0.59116 0.6271 0.0
C1850 C 0.20047 0.53456 0.63991 0.0
C1851 C 0.1909 0.53124 0.61475 0.0
C1852 C 0.22293 0.54363 0.64785 0.0
C1853 C 0.23612 0.54994 0.63083 0.0
C1854 C 0.22695 0.54313 0.60547 0.0
C1855 C 0.20454 0.53376 0.59751 0.0
H1856 H 0.74528 0.96931 0.80374 0.0
H1857 H 0.68633 0.92996 0.82132 0.0
H1858 H 0.76029 0.93459 0.80394 0.0
H1859 H 0.70179 0.89452 0.82203 0.0
H1860 H 0.73029 0.82642 0.80438 0.0
H1861 H 0.71333 0.86053 0.80503 0.0
H1862 H 0.77711 0.90939 0.82269 0.0
H1863 H 0.79377 0.87542 0.82155 0.0
C1864 C 0.73531 0.95328 0.80789 0.0
C1865 C 0.71423 0.95338 0.81259 0.0
C1866 C 0.74425 0.93289 0.80821 0.0
C1867 C 0.73287 0.9108 0.8133 0.0
C1868 C 0.71158 0.91064 0.81787 0.0
C1869 C 0.70254 0.93133 0.81759 0.0
C1870 C 0.74083 0.84441 0.80849 0.0
C1871 C 0.76379 0.84743 0.81287 0.0
C1872 C 0.73093 0.86438 0.80895 0.0
C1873 C 0.74335 0.8887 0.81367 0.0
C1874 C 0.76633 0.89154 0.81836 0.0
C1875 C 0.77617 0.87166 0.81793 0.0
H1876 H 0.78373 0.959 0.57865 0.0
H1877 H 0.73403 0.89229 0.56344 0.0
H1878 H 0.75544 0.98138 0.57669 0.0
H1879 H 0.70598 0.91448 0.56193 0.0
H1880 H 0.65997 0.95949 0.53492 0.0
H1881 H 0.68864 0.93802 0.53699 0.0
H1882 H 0.72795 0.99227 0.59805 0.0
H1883 H 0.69919 0.0138 0.59601 0.0
C1884 C 0.76681 0.94909 0.57495 0.0
C1885 C 0.76126 0.92379 0.57115 0.0
C1886 C 0.75055 0.96194 0.57397 0.0
C1887 C 0.72828 0.94982 0.56906 0.0
C1888 C 0.72284 0.92452 0.56534 0.0
C1889 C 0.73903 0.91174 0.56638 0.0
C1890 C 0.67458 0.96675 0.54903 0.0
C1891 C 0.67708 0.98844 0.56535 0.0
C1892 C 0.69113 0.9544 0.55019 0.0
C1893 C 0.71075 0.9633 0.56772 0.0
C1894 C 0.71327 0.98499 0.58405 0.0
C1895 C 0.6967 0.99735 0.58289 0.0
H1896 H 0.41589 0.40763 0.77172 0.0
H1897 H 0.37433 0.45672 0.76355 0.0
H1898 H 0.3852 0.37674 0.77649 0.0
H1899 H 0.34332 0.42519 0.76792 0.0
H1900 H 0.29372 0.34506 0.75037 0.0
H1901 H 0.32191 0.37832 0.74337 0.0
H1902 H 0.36205 0.37768 0.8131 0.0
H1903 H 0.33368 0.34535 0.82058 0.0
C1904 C 0.40015 0.41178 0.77061 0.0
C1905 C 0.3976 0.43474 0.76738 0.0
C1906 C 0.38262 0.39407 0.77345 0.0
C1907 C 0.36204 0.39873 0.77274 0.0
C1908 C 0.35911 0.42126 0.76851 0.0
C1909 C 0.37682 0.43924 0.76607 0.0
C1910 C 0.30849 0.35224 0.76426 0.0
C1911 C 0.31183 0.3423 0.78573 0.0
C1912 C 0.32452 0.37123 0.76028 0.0
C1913 C 0.34414 0.38025 0.77759 0.0
C1914 C 0.34714 0.37075 0.79934 0.0
C1915 C 0.33102 0.35216 0.80351 0.0
H1916 H 0.22466 0.57768 0.29438 0.0
H1917 H 0.19698 0.60959 0.35181 0.0
H1918 H 0.24585 0.61796 0.29183 0.0
H1919 H 0.21763 0.64939 0.34927 0.0
H1920 H 0.26651 0.72009 0.35126 0.0
H1921 H 0.25055 0.67906 0.35614 0.0
H1922 H 0.24256 0.65481 0.27784 0.0
H1923 H 0.25881 0.69582 0.27308 0.0
C1924 C 0.22357 0.59311 0.30702 0.0
C1925 C 0.20926 0.58999 0.32366 0.0
C1926 C 0.23547 0.61646 0.30527 0.0
C1927 C 0.23365 0.63755 0.32025 0.0
C1928 C 0.22001 0.63407 0.33753 0.0
C1929 C 0.20805 0.61096 0.33905 0.0
C1930 C 0.26142 0.70608 0.33501 0.0
C1931 C 0.26402 0.71178 0.31171 0.0
C1932 C 0.25207 0.68229 0.33779 0.0
C1933 C 0.24495 0.66299 0.31741 0.0
C1934 C 0.24791 0.66869 0.29417 0.0
C1935 C 0.25717 0.69251 0.29139 0.0
H1936 H 0.50954 0.71345 0.52225 0.0
H1937 H 0.51578 0.68482 0.44887 0.0
H1938 H 0.51704 0.67769 0.53671 0.0
H1939 H 0.5228 0.64846 0.46341 0.0
H1940 H 0.50359 0.57762 0.49901 0.0
H1941 H 0.49809 0.61364 0.48298 0.0
H1942 H 0.55086 0.65775 0.54005 0.0
H1943 H 0.55675 0.62187 0.55579 0.0
C1944 C 0.51259 0.6995 0.50921 0.0
C1945 C 0.51208 0.70192 0.48441 0.0
C1946 C 0.51692 0.67908 0.51754 0.0
C1947 C 0.5204 0.66033 0.50116 0.0
C1948 C 0.52004 0.66267 0.47635 0.0
C1949 C 0.5162 0.68348 0.4681 0.0
C1950 C 0.51398 0.59501 0.50817 0.0
C1951 C 0.53059 0.5969 0.52871 0.0
C1952 C 0.51096 0.61555 0.49884 0.0
C1953 C 0.52417 0.63839 0.51019 0.0
C1954 C 0.5405 0.64032 0.53094 0.0
C1955 C 0.54383 0.61979 0.53995 0.0
H1956 H 0.66437 0.31045 0.66877 0.0
H1957 H 0.62981 0.31371 0.72899 0.0
H1958 H 0.69605 0.30633 0.69643 0.0
H1959 H 0.66226 0.31005 0.75705 0.0
H1960 H 0.73706 0.33352 0.79825 0.0
H1961 H 0.70324 0.33606 0.77264 0.0
H1962 H 0.70444 0.27344 0.72166 0.0
H1963 H 0.73806 0.27044 0.74772 0.0
C1964 C 0.66353 0.31054 0.688 0.0
C1965 C 0.64442 0.31249 0.69663 0.0
C1966 C 0.68172 0.30794 0.70379 0.0
C1967 C 0.68155 0.30761 0.72879 0.0
C1968 C 0.66276 0.3102 0.73778 0.0
C1969 C 0.64424 0.31235 0.72177 0.0
C1970 C 0.73006 0.32018 0.78164 0.0
C1971 C 0.7403 0.30184 0.77488 0.0
C1972 C 0.71061 0.32158 0.76711 0.0
C1973 C 0.70121 0.30495 0.74523 0.0
C1974 C 0.71141 0.28655 0.73845 0.0
C1975 C 0.73066 0.28486 0.75328 0.0
H1976 H 1.00838 0.32867 0.0277 0.0
H1977 H 0.03842 0.3395 0.96489 0.0
H1978 H 0.01566 0.37194 0.04076 0.0
H1979 H 0.04563 0.38309 0.97807 0.0
H1980 H 0.06944 0.461 0.02282 0.0
H1981 H 0.06608 0.41797 0.01144 0.0
H1982 H 1.00017 0.40326 0.02378 0.0
H1983 H 1.0035 0.44624 0.03539 0.0
C1984 C 0.01681 0.34027 0.01682 0.0
C1985 C 0.02261 0.33056 0.99507 0.0
C1986 C 0.02082 0.36511 0.02424 0.0
C1987 C 0.03082 0.38092 0.0102 0.0
C1988 C 0.03786 0.37133 0.98927 0.0
C1989 C 0.03376 0.34637 0.98175 0.0
C1990 C 0.05422 0.44863 0.02316 0.0
C1991 C 0.03675 0.45714 0.03015 0.0
C1992 C 0.05229 0.42395 0.01649 0.0
C1993 C 0.03294 0.4072 0.01687 0.0
C1994 C 0.01543 0.41571 0.02367 0.0
C1995 C 0.01728 0.44037 0.03016 0.0
H1996 H 1.00945 0.79032 0.17683 0.0
H1997 H 0.04708 0.82188 0.24996 0.0
H1998 H 0.9759 0.78599 0.19297 0.0
H1999 H 0.01358 0.81776 0.26601 0.0
H2000 H 0.95147 0.7829 0.29095 0.0
H2001 H 0.98452 0.78704 0.27415 0.0
H2002 H 0.95264 0.80954 0.21039 0.0
H2003 H 0.91924 0.80477 0.22697 0.0
C2004 C 1.01061 0.79636 0.19635 0.0
C2005 C 0.03108 0.80641 0.21206 0.0
C2006 C 0.99131 0.79402 0.20559 0.0
C2007 C 0.99192 0.8015 0.23084 0.0
C2008 C 1.01241 0.81151 0.24653 0.0
C2009 C 0.03168 0.81399 0.23728 0.0
C2010 C 0.95136 0.7885 0.27321 0.0
C2011 C 0.93252 0.79336 0.2603 0.0
C2012 C 0.97047 0.79116 0.26369 0.0
C2013 C 0.97138 0.79868 0.24088 0.0
C2014 C 0.95254 0.8035 0.22789 0.0
C2015 C 0.93341 0.801 0.23752 0.0
H2016 H 0.54935 0.3191 0.18776 0.0
H2017 H 0.58975 0.29176 0.14169 0.0
H2018 H 0.54541 0.34914 0.16208 0.0
H2019 H 0.58556 0.32188 0.11579 0.0
H2020 H 0.58549 0.39511 0.08905 0.0
H2021 H 0.59368 0.36702 0.11616 0.0
H2022 H 0.52547 0.34477 0.11885 0.0
H2023 H 0.51739 0.37302 0.09245 0.0
C2024 C 0.55754 0.31961 0.17227 0.0
C2025 C 0.56962 0.30285 0.16654 0.0
C2026 C 0.5552 0.33676 0.15753 0.0
C2027 C 0.5649 0.33753 0.13677 0.0
C2028 C 0.57794 0.32164 0.13172 0.0
C2029 C 0.58026 0.30438 0.14649 0.0
C2030 C 0.57231 0.38417 0.09547 0.0
C2031 C 0.55081 0.38619 0.08864 0.0
C2032 C 0.57697 0.36806 0.11082 0.0
C2033 C 0.56023 0.35396 0.11975 0.0
C2034 C 0.53873 0.3557 0.11252 0.0
C2035 C 0.53407 0.37164 0.09714 0.0
H2036 H 0.94325 0.2475 0.36393 0.0
H2037 H 0.96265 0.32472 0.38489 0.0
H2038 H 0.90542 0.24909 0.35208 0.0
H2039 H 0.9247 0.3265 0.37483 0.0
H2040 H 0.8395 0.2521 0.36226 0.0
H2041 H 0.87835 0.25498 0.37381 0.0
H2042 H 0.89244 0.32202 0.34666 0.0
H2043 H 0.85375 0.31982 0.33678 0.0
C2044 C 0.93936 0.26486 0.36528 0.0
C2045 C 0.95566 0.286 0.37489 0.0
C2046 C 0.91769 0.2658 0.35913 0.0
C2047 C 0.91187 0.28786 0.36335 0.0
C2048 C 0.9285 0.3092 0.37133 0.0
C2049 C 0.95028 0.30826 0.37689 0.0
C2050 C 0.85101 0.26792 0.35981 0.0
C2051 C 0.84368 0.28577 0.34884 0.0
C2052 C 0.87325 0.26933 0.36581 0.0
C2053 C 0.88855 0.28831 0.36031 0.0
C2054 C 0.8812 0.30714 0.35114 0.0
C2055 C 0.85897 0.306 0.3457 0.0
H2056 H 0.05008 0.7117 0.65219 0.0
H2057 H 0.05313 0.65619 0.6962 0.0
H2058 H 0.05126 0.68393 0.61577 0.0
H2059 H 0.0537 0.6283 0.65962 0.0
H2060 H 0.08137 0.59327 0.60153 0.0
H2061 H 0.08116 0.62515 0.63465 0.0
H2062 H 0.03172 0.64663 0.58671 0.0
H2063 H 0.03246 0.61495 0.55324 0.0
C2064 C 0.05056 0.69343 0.65403 0.0
C2065 C 0.05182 0.68623 0.67721 0.0
C2066 C 0.05124 0.67756 0.63312 0.0
C2067 C 0.05315 0.65417 0.63497 0.0
C2068 C 0.05293 0.6465 0.65779 0.0
C2069 C 0.05233 0.66237 0.67871 0.0
C2070 C 0.0711 0.6054 0.5978 0.0
C2071 C 0.05699 0.60173 0.57491 0.0
C2072 C 0.07065 0.62335 0.61688 0.0
C2073 C 0.05591 0.63786 0.61349 0.0
C2074 C 0.04316 0.63561 0.58989 0.0
C2075 C 0.04372 0.61765 0.57066 0.0
H2076 H 0.59033 0.83024 0.88038 0.0
H2077 H 0.54482 0.77061 0.82968 0.0
H2078 H 0.61918 0.82388 0.85878 0.0
H2079 H 0.57357 0.76461 0.80771 0.0
H2080 H 0.63648 0.7379 0.80589 0.0
H2081 H 0.60474 0.74852 0.81832 0.0
H2082 H 0.63465 0.82375 0.82204 0.0
H2083 H 0.66657 0.81305 0.80962 0.0
C2084 C 0.58631 0.8162 0.86421 0.0
C2085 C 0.56532 0.80071 0.857 0.0
C2086 C 0.60288 0.81257 0.85175 0.0
C2087 C 0.5988 0.79345 0.83174 0.0
C2088 C 0.5774 0.77915 0.8234 0.0
C2089 C 0.56086 0.78272 0.8359 0.0
C2090 C 0.63611 0.75667 0.80878 0.0
C2091 C 0.65414 0.77461 0.80689 0.0
C2092 C 0.61786 0.76279 0.81591 0.0
C2093 C 0.61713 0.78703 0.82128 0.0
C2094 C 0.6348 0.80494 0.81841 0.0
C2095 C 0.65309 0.79881 0.8113 0.0
H2096 H 0.48917 0.54621 0.72669 0.0
H2097 H 0.45334 0.47652 0.68532 0.0
H2098 H 0.50146 0.55729 0.68974 0.0
H2099 H 0.4637 0.48798 0.6478 0.0
H2100 H 0.50973 0.50097 0.59498 0.0
H2101 H 0.49232 0.492 0.62892 0.0
H2102 H 0.49656 0.56775 0.65149 0.0
H2103 H 0.5158 0.57673 0.61823 0.0
C2104 C 0.48356 0.53352 0.70944 0.0
C2105 C 0.47063 0.51047 0.70873 0.0
C2106 C 0.49039 0.53987 0.68813 0.0
C2107 C 0.48388 0.52347 0.66553 0.0
C2108 C 0.46979 0.50088 0.66483 0.0
C2109 C 0.46361 0.49431 0.68627 0.0
C2110 C 0.5067 0.51571 0.60699 0.0
C2111 C 0.51427 0.53958 0.6041 0.0
C2112 C 0.49648 0.51055 0.62652 0.0
C2113 C 0.49295 0.5291 0.64334 0.0
C2114 C 0.49942 0.55297 0.63944 0.0
C2115 C 0.5102 0.55816 0.62019 0.0
H2116 H 0.85989 0.22006 0.06015 0.0
H2117 H 0.82782 0.27165 0.09179 0.0
H2118 H 0.85162 0.232 0.02017 0.0
H2119 H 0.81935 0.28324 0.05178 0.0
H2120 H 0.82514 0.31257 0.98103 0.0
H2121 H 0.83724 0.30285 0.02124 0.0
H2122 H 0.81746 0.22714 0.98946 0.0
H2123 H 0.80527 0.23687 0.94915 0.0
C2124 C 0.85125 0.23411 0.05864 0.0
C2125 C 0.84438 0.24485 0.07908 0.0
C2126 C 0.84642 0.24076 0.03573 0.0
C2127 C 0.83473 0.25836 0.03291 0.0
C2128 C 0.82854 0.26972 0.05351 0.0
C2129 C 0.83331 0.26304 0.07641 0.0
C2130 C 0.82322 0.29385 0.98269 0.0
C2131 C 0.81411 0.27544 0.96208 0.0
C2132 C 0.8302 0.28831 1.00565 0.0
C2133 C 0.82826 0.26427 0.00839 0.0
C2134 C 0.81941 0.24584 0.98773 0.0
C2135 C 0.81239 0.25139 0.96474 0.0
H2136 H 0.1546 0.52763 0.22825 0.0
H2137 H 0.09398 0.49236 0.24524 0.0
H2138 H 0.13553 0.52897 0.18671 0.0
H2139 H 0.07503 0.49251 0.20383 0.0
H2140 H 0.03962 0.52014 0.14208 0.0
H2141 H 0.061 0.51632 0.18035 0.0
H2142 H 0.11584 0.51483 0.14505 0.0
H2143 H 0.09398 0.51958 0.10609 0.0
C2144 C 0.13732 0.5192 0.22283 0.0
C2145 C 0.12609 0.50925 0.24027 0.0
C2146 C 0.1262 0.52017 0.19883 0.0
C2147 C 0.10329 0.51135 0.19126 0.0
C2148 C 0.09241 0.50032 0.20849 0.0
C2149 C 0.10345 0.49965 0.23241 0.0
C2150 C 0.05625 0.51902 0.14219 0.0
C2151 C 0.06474 0.52021 0.12047 0.0
C2152 C 0.06868 0.51649 0.16449 0.0
C2153 C 0.09045 0.51462 0.16653 0.0
C2154 C 0.09926 0.51617 0.14482 0.0
C2155 C 0.08666 0.51891 0.12222 0.0
H2156 H 0.82271 0.815 0.51112 0.0
H2157 H 0.792 0.87234 0.49641 0.0
H2158 H 0.81655 0.79987 0.46711 0.0
H2159 H 0.78572 0.85686 0.45201 0.0
H2160 H 0.76451 0.80673 0.37398 0.0
H2161 H 0.76607 0.81997 0.41795 0.0
H2162 H 0.83356 0.81759 0.43382 0.0
H2163 H 0.83213 0.80451 0.39005 0.0
C2164 C 0.81433 0.82421 0.49854 0.0
C2165 C 0.80808 0.8451 0.50737 0.0
C2166 C 0.81093 0.81557 0.47327 0.0
C2167 C 0.80102 0.82742 0.45612 0.0
C2168 C 0.79345 0.84738 0.46485 0.0
C2169 C 0.79702 0.85622 0.49027 0.0
C2170 C 0.77968 0.80901 0.38685 0.0
C2171 C 0.7982 0.80451 0.37847 0.0
C2172 C 0.78057 0.8167 0.412 0.0
C2173 C 0.79988 0.81968 0.42932 0.0
C2174 C 0.81836 0.81517 0.42093 0.0
C2175 C 0.81757 0.80781 0.39582 0.0
H2176 H 0.48412 0.5489 0.84817 0.0
H2177 H 0.49018 0.47584 0.84447 0.0
H2178 H 0.50038 0.5576 0.89224 0.0
H2179 H 0.50448 0.48357 0.88821 0.0
H2180 H 0.54256 0.50249 0.96402 0.0
H2181 H 0.53259 0.49976 0.9197 0.0
H2182 H 0.49562 0.55311 0.93122 0.0
H2183 H 0.50764 0.55729 0.97577 0.0
C2184 C 0.48891 0.53473 0.85682 0.0
C2185 C 0.48615 0.5118 0.84282 0.0
C2186 C 0.49805 0.53958 0.88217 0.0
C2187 C 0.50403 0.52139 0.89417 0.0
C2188 C 0.50096 0.49844 0.8799 0.0
C2189 C 0.49251 0.49386 0.85462 0.0
C2190 C 0.53249 0.51377 0.95694 0.0
C2191 C 0.52564 0.52987 0.97314 0.0
C2192 C 0.5265 0.51207 0.93147 0.0
C2193 C 0.51268 0.5257 0.92145 0.0
C2194 C 0.50637 0.54239 0.93792 0.0
C2195 C 0.51308 0.5447 0.96351 0.0
H2196 H 0.89242 0.20369 0.21094 0.0
H2197 H 0.91807 0.2734 0.19464 0.0
H2198 H 0.8816 0.222 0.24683 0.0
H2199 H 0.90844 0.29238 0.23145 0.0
H2200 H 0.83711 0.29866 0.23414 0.0
H2201 H 0.87008 0.29004 0.22316 0.0
H2202 H 0.87425 0.24645 0.27997 0.0
H2203 H 0.84071 0.25419 0.28997 0.0
C2204 C 0.89749 0.22312 0.2162 0.0
C2205 C 0.90349 0.23724 0.19879 0.0
C2206 C 0.89093 0.23375 0.23678 0.0
C2207 C 0.89238 0.25866 0.24065 0.0
C2208 C 0.90574 0.27299 0.2279 0.0
C2209 C 0.91181 0.26209 0.20709 0.0
C2210 C 0.84514 0.28732 0.24427 0.0
C2211 C 0.83614 0.27681 0.26255 0.0
C2212 C 0.86435 0.28274 0.23841 0.0
C2213 C 0.8751 0.2677 0.2509 0.0
C2214 C 0.86646 0.25802 0.26993 0.0
C2215 C 0.84712 0.26237 0.27554 0.0
H2216 H 0.1566 0.50872 0.40372 0.0
H2217 H 0.10108 0.52876 0.36598 0.0
H2218 H 0.14114 0.51047 0.44159 0.0
H2219 H 0.08629 0.53114 0.40294 0.0
H2220 H 0.05153 0.51806 0.46531 0.0
H2221 H 0.06819 0.51288 0.42964 0.0
H2222 H 0.13181 0.5329 0.47702 0.0
H2223 H 0.11471 0.53747 0.51331 0.0
C2224 C 0.14102 0.51314 0.40315 0.0
C2225 C 0.13026 0.51831 0.38101 0.0
C2226 C 0.13214 0.51448 0.42521 0.0
C2227 C 0.11201 0.52085 0.42612 0.0
C2228 C 0.1014 0.52564 0.40377 0.0
C2229 C 0.11017 0.52439 0.38211 0.0
C2230 C 0.06912 0.5215 0.46846 0.0
C2231 C 0.08145 0.5285 0.49285 0.0
C2232 C 0.07891 0.51864 0.44756 0.0
C2233 C 0.10178 0.52275 0.44954 0.0
C2234 C 0.11424 0.52937 0.47404 0.0
C2235 C 0.10433 0.53218 0.49514 0.0
H2236 H 0.78411 0.8522 0.62842 0.0
H2237 H 0.85233 0.86531 0.66073 0.0
H2238 H 0.77467 0.83286 0.66319 0.0
H2239 H 0.84295 0.84683 0.6956 0.0
H2240 H 0.81348 0.83251 0.76498 0.0
H2241 H 0.82106 0.85447 0.73166 0.0
H2242 H 0.78371 0.79237 0.67789 0.0
H2243 H 0.77675 0.77 0.71122 0.0
C2244 C 0.79701 0.8515 0.64324 0.0
C2245 C 0.81893 0.86032 0.64197 0.0
C2246 C 0.79165 0.84026 0.66296 0.0
C2247 C 0.80811 0.83829 0.68202 0.0
C2248 C 0.82995 0.84817 0.68124 0.0
C2249 C 0.83529 0.85876 0.66131 0.0
C2250 C 0.80712 0.82341 0.74606 0.0
C2251 C 0.79481 0.79939 0.74074 0.0
C2252 C 0.81133 0.83606 0.72702 0.0
C2253 C 0.80284 0.82517 0.70222 0.0
C2254 C 0.79025 0.80127 0.69686 0.0
C2255 C 0.78645 0.78842 0.71592 0.0
H2256 H 0.72646 0.47671 0.49085 0.0
H2257 H 0.72736 0.42563 0.54042 0.0
H2258 H 0.71193 0.50146 0.5195 0.0
H2259 H 0.71343 0.45073 0.56938 0.0
H2260 H 0.65473 0.4815 0.58689 0.0
H2261 H 0.67864 0.45985 0.56919 0.0
H2262 H 0.71898 0.52704 0.55987 0.0
H2263 H 0.69445 0.54861 0.57698 0.0
C2264 C 0.72374 0.47088 0.50795 0.0
C2265 C 0.72774 0.44907 0.5132 0.0
C2266 C 0.7157 0.48522 0.52454 0.0
C2267 C 0.71164 0.47809 0.54678 0.0
C2268 C 0.71622 0.45659 0.55231 0.0
C2269 C 0.72412 0.44219 0.53566 0.0
C2270 C 0.66911 0.49165 0.58176 0.0
C2271 C 0.67265 0.51659 0.5829 0.0
C2272 C 0.68287 0.4793 0.57169 0.0
C2273 C 0.70044 0.49172 0.56266 0.0
C2274 C 0.70527 0.51698 0.56621 0.0
C2275 C 0.69144 0.52936 0.5763 0.0
H2276 H 0.18084 0.11925 0.4875 0.0
H2277 H 0.21846 0.10475 0.55247 0.0
H2278 H 0.14877 0.09061 0.49275 0.0
H2279 H 0.18595 0.07691 0.5588 0.0
H2280 H 0.12318 0.01873 0.55657 0.0
H2281 H 0.15749 0.04098 0.54798 0.0
H2282 H 0.12407 0.09128 0.51855 0.0
H2283 H 0.09019 0.06799 0.52587 0.0
C2284 C 0.18228 0.10954 0.50271 0.0
C2285 C 0.20212 0.11416 0.51953 0.0
C2286 C 0.16379 0.09339 0.50602 0.0
C2287 C 0.16443 0.08188 0.52668 0.0
C2288 C 0.18472 0.08534 0.54266 0.0
C2289 C 0.20342 0.10123 0.53901 0.0
C2290 C 0.12329 0.03457 0.54825 0.0
C2291 C 0.10392 0.04186 0.54192 0.0
C2292 C 0.14299 0.0474 0.54339 0.0
C2293 C 0.14373 0.06789 0.53221 0.0
C2294 C 0.1243 0.07529 0.5265 0.0
C2295 C 0.10478 0.06227 0.53105 0.0
H2296 H 0.17791 0.99608 0.80444 0.0
H2297 H 0.20529 0.02174 0.88204 0.0
H2298 H 0.19938 0.96616 0.80389 0.0
H2299 H 0.22633 0.99153 0.88161 0.0
H2300 H 0.27871 0.95287 0.86552 0.0
H2301 H 0.25692 0.98236 0.866 0.0
H2302 H 0.20243 0.92944 0.81871 0.0
H2303 H 0.22459 0.90023 0.81731 0.0
C2304 C 0.18843 0.99528 0.82141 0.0
C2305 C 0.18992 1.01137 0.84326 0.0
C2306 C 0.20064 0.97801 0.82113 0.0
C2307 C 0.21462 0.97642 0.84271 0.0
C2308 C 0.21599 0.99246 0.86458 0.0
C2309 C 0.20381 1.00972 0.86484 0.0
C2310 C 0.26215 0.94756 0.85503 0.0
C2311 C 0.25346 0.92418 0.84127 0.0
C2312 C 0.24955 0.96441 0.85556 0.0
C2313 C 0.2279 0.95831 0.84239 0.0
C2314 C 0.21912 0.93485 0.82883 0.0
C2315 C 0.23175 0.918 0.82828 0.0
H2316 H 0.28449 0.94479 0.96513 0.0
H2317 H 0.31955 0.90409 0.92304 0.0
H2318 H 0.31251 0.98146 0.96735 0.0
H2319 H 0.3475 0.9405 0.92544 0.0
H2320 H 0.40159 1.00086 0.93968 0.0
H2321 H 0.36346 0.98188 0.92157 0.0
H2322 H 0.34831 0.98763 0.99445 0.0
H2323 H 0.38623 1.00722 0.01242 0.0
C2324 C 0.2977 0.94379 0.95551 0.0
C2325 C 0.30031 0.92146 0.94469 0.0
C2326 C 0.31377 0.96481 0.95685 0.0
C2327 C 0.3325 0.96376 0.94722 0.0
C2328 C 0.33334 0.94199 0.93318 0.0
C2329 C 0.31738 0.92099 0.93198 0.0
C2330 C 0.38994 0.99906 0.95175 0.0
C2331 C 0.39693 1.00497 0.97754 0.0
C2332 C 0.36811 0.98808 0.94134 0.0
C2333 C 0.35297 0.98279 0.95657 0.0
C2334 C 0.35952 0.99145 0.98213 0.0
C2335 C 0.38132 1.00241 0.99252 0.0
H2336 H 0.84345 0.60028 0.80225 0.0
H2337 H 0.90274 0.64143 0.78708 0.0
H2338 H 0.82798 0.6347 0.80263 0.0
H2339 H 0.88684 0.67657 0.78694 0.0
H2340 H 0.85724 0.74368 0.80444 0.0
H2341 H 0.87455 0.70986 0.80349 0.0
H2342 H 0.81106 0.66042 0.7853 0.0
H2343 H 0.79405 0.69414 0.7869 0.0
C2344 C 0.85341 0.61665 0.79877 0.0
C2345 C 0.87474 0.61712 0.79456 0.0
C2346 C 0.8442 0.6369 0.79879 0.0
C2347 C 0.85551 0.65942 0.79454 0.0
C2348 C 0.87705 0.66013 0.79047 0.0
C2349 C 0.88637 0.6396 0.79042 0.0
C2350 C 0.84683 0.72563 0.80023 0.0
C2351 C 0.82384 0.7224 0.79586 0.0
C2352 C 0.85694 0.70581 0.79955 0.0
C2353 C 0.84474 0.68138 0.79453 0.0
C2354 C 0.82172 0.67832 0.78984 0.0
C2355 C 0.81166 0.69809 0.79053 0.0
H2356 H 0.82277 0.61914 0.08097 0.0
H2357 H 0.81933 0.6265 1.0046 0.0
H2358 H 0.85356 0.60123 0.07958 0.0
H2359 H 0.85054 0.6089 1.00333 0.0
H2360 H 0.89358 0.55428 1.00419 0.0
H2361 H 0.86235 0.57193 1.00422 0.0
H2362 H 0.89144 0.61188 0.07763 0.0
H2363 H 0.92218 0.59364 0.07794 0.0
C2364 C 0.82857 0.61697 0.06384 0.0
C2365 C 0.81848 0.62435 0.0429 0.0
C2366 C 0.84641 0.60683 0.0631 0.0
C2367 C 0.85478 0.60373 0.0414 0.0
C2368 C 0.8445 0.61079 0.02032 0.0
C2369 C 0.82661 0.62098 0.02107 0.0
C2370 C 0.89328 0.56675 0.02039 0.0
C2371 C 0.91051 0.57243 0.04108 0.0
C2372 C 0.87543 0.57709 0.02031 0.0
C2373 C 0.87419 0.59331 0.04097 0.0
C2374 C 0.89157 0.59923 0.0615 0.0
C2375 C 0.90943 0.58898 0.06154 0.0
H2376 H 0.16945 0.15678 0.83102 0.0
H2377 H 0.21171 0.10829 0.83807 0.0
H2378 H 0.19992 0.18837 0.82702 0.0
H2379 H 0.24249 0.14052 0.83448 0.0
H2380 H 0.29143 0.22091 0.8529 0.0
H2381 H 0.2635 0.18725 0.85964 0.0
H2382 H 0.223 0.18841 0.79033 0.0
H2383 H 0.25114 0.22111 0.78307 0.0
C2384 C 0.1853 0.15291 0.83209 0.0
C2385 C 0.18811 0.12991 0.83471 0.0
C2386 C 0.2027 0.17102 0.82969 0.0
C2387 C 0.22339 0.16672 0.83026 0.0
C2388 C 0.2266 0.14417 0.83401 0.0
C2389 C 0.20902 0.12579 0.83601 0.0
C2390 C 0.27662 0.21377 0.83905 0.0
C2391 C 0.27312 0.22396 0.81777 0.0
C2392 C 0.26075 0.19457 0.84289 0.0
C2393 C 0.2411 0.18556 0.82562 0.0
C2394 C 0.23792 0.19534 0.80406 0.0
C2395 C 0.2539 0.21416 0.80003 0.0
H2396 H 0.36491 0.99276 0.31347 0.0
H2397 H 0.38938 0.95917 0.25402 0.0
H2398 H 0.34325 0.953 0.31692 0.0
H2399 H 0.36831 0.91991 0.25748 0.0
H2400 H 0.31865 0.85049 0.25729 0.0
H2401 H 0.33519 0.89116 0.25199 0.0
H2402 H 0.34567 0.91579 0.33053 0.0
H2403 H 0.32877 0.87509 0.33571 0.0
C2404 C 0.36522 0.97708 0.30062 0.0
C2405 C 0.37878 0.9796 0.28313 0.0
C2406 C 0.35304 0.95402 0.30287 0.0
C2407 C 0.35381 0.9326 0.28758 0.0
C2408 C 0.36672 0.93549 0.26951 0.0
C2409 C 0.37894 0.95831 0.26747 0.0
C2410 C 0.32441 0.8645 0.27352 0.0
C2411 C 0.32228 0.85898 0.297 0.0
C2412 C 0.33411 0.8881 0.27049 0.0
C2413 C 0.34213 0.9074 0.29079 0.0
C2414 C 0.33964 0.90191 0.31424 0.0
C2415 C 0.33 0.87826 0.31727 0.0
H2416 H 0.56881 0.38054 0.65148 0.0
H2417 H 0.57268 0.35005 0.57777 0.0
H2418 H 0.562 0.41681 0.63657 0.0
H2419 H 0.56542 0.38576 0.56294 0.0
H2420 H 0.5275 0.44285 0.54387 0.0
H2421 H 0.53291 0.40692 0.55979 0.0
H2422 H 0.58633 0.45061 0.61636 0.0
H2423 H 0.58126 0.4867 0.60016 0.0
C2424 C 0.56784 0.38142 0.63209 0.0
C2425 C 0.57127 0.36251 0.61578 0.0
C2426 C 0.56415 0.40219 0.62362 0.0
C2427 C 0.56329 0.40405 0.59863 0.0
C2428 C 0.56595 0.38476 0.58226 0.0
C2429 C 0.57012 0.36436 0.59078 0.0
C2430 C 0.54049 0.44482 0.55963 0.0
C2431 C 0.55401 0.46762 0.5707 0.0
C2432 C 0.54353 0.42425 0.56874 0.0
C2433 C 0.55989 0.42605 0.58942 0.0
C2434 C 0.57343 0.4488 0.60056 0.0
C2435 C 0.57067 0.46938 0.59113 0.0
H2436 H 0.45452 0.75192 0.374 0.0
H2437 H 0.4233 0.76507 0.43578 0.0
H2438 H 0.4221 0.75555 0.34594 0.0
H2439 H 0.39154 0.76894 0.40804 0.0
H2440 H 0.34972 0.80195 0.35386 0.0
H2441 H 0.38306 0.79865 0.38012 0.0
H2442 H 0.3811 0.73255 0.33249 0.0
H2443 H 0.34756 0.73553 0.3066 0.0
C2444 C 0.44082 0.75549 0.38159 0.0
C2445 C 0.44158 0.75812 0.40716 0.0
C2446 C 0.42229 0.75757 0.36555 0.0
C2447 C 0.40438 0.76277 0.37487 0.0
C2448 C 0.40517 0.76527 0.40034 0.0
C2449 C 0.4234 0.76283 0.41622 0.0
C2450 C 0.35633 0.78666 0.34911 0.0
C2451 C 0.34589 0.76889 0.32834 0.0
C2452 C 0.37544 0.78479 0.36407 0.0
C2453 C 0.38471 0.76535 0.3583 0.0
C2454 C 0.37447 0.74784 0.33725 0.0
C2455 C 0.35519 0.74949 0.32255 0.0
H2456 H 0.04971 0.7242 0.13964 0.0
H2457 H 0.08276 0.73493 0.07901 0.0
H2458 H 0.04297 0.68059 0.12688 0.0
H2459 H 0.07596 0.69169 0.06637 0.0
H2460 H 0.08705 0.6173 0.07248 0.0
H2461 H 0.0905 0.66028 0.08434 0.0
H2462 H 0.02347 0.64587 0.09284 0.0
H2463 H 0.01999 0.60285 0.08122 0.0
C2464 C 0.05517 0.7173 0.12337 0.0
C2465 C 0.06695 0.73309 0.11051 0.0
C2466 C 0.05134 0.69234 0.11609 0.0
C2467 C 0.05931 0.68274 0.09589 0.0
C2468 C 0.07007 0.69853 0.08235 0.0
C2469 C 0.07381 0.72335 0.08952 0.0
C2470 C 0.07305 0.62323 0.07694 0.0
C2471 C 0.05322 0.60656 0.07576 0.0
C2472 C 0.07498 0.64789 0.08358 0.0
C2473 C 0.05719 0.65647 0.08934 0.0
C2474 C 0.03748 0.63981 0.08861 0.0
C2475 C 0.03549 0.61515 0.0818 0.0
H2476 H 0.04987 0.24853 0.883 0.0
H2477 H 0.09539 0.29417 0.94613 0.0
H2478 H 0.07961 0.24918 0.86036 0.0
H2479 H 0.1249 0.29471 0.92369 0.0
H2480 H 0.16842 0.31076 0.86747 0.0
H2481 H 0.13827 0.31031 0.889 0.0
H2482 H 0.11307 0.23429 0.86084 0.0
H2483 H 0.14345 0.23454 0.83966 0.0
C2484 C 0.06616 0.25875 0.89203 0.0
C2485 C 0.07016 0.27128 0.91643 0.0
C2486 C 0.08326 0.25901 0.87911 0.0
C2487 C 0.10473 0.27202 0.89016 0.0
C2488 C 0.10859 0.28473 0.91444 0.0
C2489 C 0.09161 0.28429 0.92739 0.0
C2490 C 0.15668 0.29383 0.86608 0.0
C2491 C 0.15859 0.27269 0.85173 0.0
C2492 C 0.13926 0.2936 0.8784 0.0
C2493 C 0.12312 0.27227 0.87666 0.0
C2494 C 0.12496 0.25114 0.8623 0.0
C2495 C 0.14246 0.25132 0.85012 0.0
H2496 H 0.58811 0.76239 0.93528 0.0
H2497 H 0.52636 0.71205 0.92997 0.0
H2498 H 0.60689 0.73024 0.94072 0.0
H2499 H 0.54479 0.67999 0.93441 0.0
H2500 H 0.57391 0.62559 0.94881 0.0
H2501 H 0.57173 0.65459 0.92125 0.0
H2502 H 0.60546 0.71241 0.98165 0.0
H2503 H 0.60681 0.6839 0.00931 0.0
C2504 C 0.57855 0.74424 0.93425 0.0
C2505 C 0.55594 0.73957 0.93274 0.0
C2506 C 0.58925 0.72591 0.93719 0.0
C2507 C 0.57729 0.70268 0.93792 0.0
C2508 C 0.55442 0.69763 0.93358 0.0
C2509 C 0.54386 0.71601 0.93137 0.0
C2510 C 0.58157 0.64443 0.956 0.0
C2511 C 0.58953 0.65258 0.98148 0.0
C2512 C 0.58055 0.66095 0.94012 0.0
C2513 C 0.58786 0.6857 0.94955 0.0
C2514 C 0.59959 0.69341 0.97393 0.0
C2515 C 0.6003 0.67696 0.98988 0.0
H2516 H 0.1328 0.79764 0.73087 0.0
H2517 H 0.14411 0.73784 0.76526 0.0
H2518 H 0.1708 0.80803 0.72668 0.0
H2519 H 0.18214 0.74843 0.76122 0.0
H2520 H 0.24256 0.75697 0.73178 0.0
H2521 H 0.20307 0.74833 0.72676 0.0
H2522 H 0.20765 0.82313 0.75385 0.0
H2523 H 0.24712 0.83188 0.75871 0.0
C2524 C 0.14344 0.78687 0.73781 0.0
C2525 C 0.13542 0.76688 0.74842 0.0
C2526 C 0.16517 0.79279 0.73529 0.0
C2527 C 0.17929 0.77876 0.74316 0.0
C2528 C 0.17146 0.75921 0.75442 0.0
C2529 C 0.14977 0.75338 0.75711 0.0
C2530 C 0.23514 0.77179 0.73564 0.0
C2531 C 0.24801 0.79506 0.74603 0.0
C2532 C 0.21252 0.76674 0.73316 0.0
C2533 C 0.2024 0.78492 0.74067 0.0
C2534 C 0.21502 0.80871 0.74811 0.0
C2535 C 0.23764 0.81374 0.75076 0.0
H2536 H 0.04762 0.37299 0.44705 0.0
H2537 H 0.01363 0.3374 0.49786 0.0
H2538 H 0.05016 0.4119 0.472 0.0
H2539 H 0.01571 0.37621 0.52232 0.0
H2540 H 0.02755 0.47613 0.50371 0.0
H2541 H 0.02453 0.43621 0.48058 0.0
H2542 H 0.04092 0.41114 0.54898 0.0
H2543 H 0.04346 0.45091 0.57207 0.0
C2544 C 0.04091 0.37343 0.46366 0.0
C2545 C 0.03032 0.35211 0.47039 0.0
C2546 C 0.04213 0.39572 0.47777 0.0
C2547 C 0.03281 0.39708 0.49887 0.0
C2548 C 0.02309 0.37574 0.50619 0.0
C2549 C 0.02189 0.35349 0.49213 0.0
C2550 C 0.03012 0.46195 0.51377 0.0
C2551 C 0.03588 0.46657 0.53962 0.0
C2552 C 0.02866 0.43921 0.50055 0.0
C2553 C 0.03291 0.4207 0.51297 0.0
C2554 C 0.03755 0.42504 0.5389 0.0
C2555 C 0.03897 0.44778 0.55212 0.0
H2556 H 0.5041 0.22497 0.28392 0.0
H2557 H 0.51881 0.28899 0.25183 0.0
H2558 H 0.4788 0.24173 0.3051 0.0
H2559 H 0.49335 0.30529 0.27233 0.0
H2560 H 0.4551 0.33662 0.3219 0.0
H2561 H 0.48541 0.32103 0.31114 0.0
H2562 H 0.4433 0.24916 0.29182 0.0
H2563 H 0.41323 0.26466 0.30276 0.0
C2564 C 0.5021 0.24267 0.28155 0.0
C2565 C 0.51332 0.25554 0.266 0.0
C2566 C 0.48755 0.25221 0.29359 0.0
C2567 C 0.48401 0.27481 0.29035 0.0
C2568 C 0.4959 0.288 0.27555 0.0
C2569 C 0.51038 0.27852 0.26356 0.0
C2570 C 0.45244 0.31748 0.31559 0.0
C2571 C 0.43178 0.30191 0.31306 0.0
C2572 C 0.46976 0.30854 0.30943 0.0
C2573 C 0.46673 0.28387 0.30046 0.0
C2574 C 0.44631 0.26819 0.299 0.0
C2575 C 0.42903 0.2771 0.30524 0.0
H2576 H 0.62465 0.52206 0.38897 0.0
H2577 H 0.59814 0.58433 0.39939 0.0
H2578 H 0.61369 0.51083 0.42674 0.0
H2579 H 0.58729 0.57314 0.43666 0.0
H2580 H 0.55996 0.48708 0.47465 0.0
H2581 H 0.57838 0.49666 0.44088 0.0
H2582 H 0.60357 0.57017 0.47905 0.0
H2583 H 0.58495 0.5607 0.51251 0.0
C2584 C 0.61657 0.53337 0.39931 0.0
C2585 C 0.61221 0.55405 0.39109 0.0
C2586 C 0.61029 0.52692 0.42088 0.0
C2587 C 0.59981 0.54122 0.4348 0.0
C2588 C 0.59569 0.56197 0.42664 0.0
C2589 C 0.60174 0.56825 0.40508 0.0
C2590 C 0.56984 0.50514 0.47604 0.0
C2591 C 0.57077 0.52323 0.49602 0.0
C2592 C 0.58044 0.51061 0.45675 0.0
C2593 C 0.5921 0.53427 0.45711 0.0
C2594 C 0.59436 0.55188 0.47803 0.0
C2595 C 0.58382 0.54641 0.49729 0.0
H2596 H 0.31516 0.84243 0.04108 0.0
H2597 H 0.26946 0.88477 0.05571 0.0
H2598 H 0.32122 0.83728 0.08386 0.0
H2599 H 0.27618 0.88044 0.09889 0.0
H2600 H 0.26549 0.82942 0.15567 0.0
H2601 H 0.26543 0.84728 0.11879 0.0
H2602 H 0.33471 0.85374 0.12652 0.0
H2603 H 0.33449 0.83504 0.16316 0.0
C2604 C 0.30679 0.85111 0.05359 0.0
C2605 C 0.29154 0.86362 0.04499 0.0
C2606 C 0.31041 0.84835 0.07821 0.0
C2607 C 0.29904 0.8583 0.09477 0.0
C2608 C 0.28487 0.87217 0.08647 0.0
C2609 C 0.28105 0.87468 0.06177 0.0
C2610 C 0.28079 0.83523 0.14981 0.0
C2611 C 0.29994 0.83065 0.16197 0.0
C2612 C 0.2808 0.84557 0.12873 0.0
C2613 C 0.30004 0.85172 0.11956 0.0
C2614 C 0.31955 0.84873 0.13285 0.0
C2615 C 0.31946 0.83812 0.1538 0.0
H2616 H 0.99608 0.55377 0.85542 0.0
H2617 H 0.93843 0.56013 0.88305 0.0
H2618 H 0.01457 0.55215 0.89626 0.0
H2619 H 0.95739 0.55899 0.92503 0.0
H2620 H 0.99425 0.52981 0.99301 0.0
H2621 H 0.97275 0.53487 0.95394 0.0
H2622 H 0.03186 0.57274 0.93511 0.0
H2623 H 0.05281 0.56714 0.97299 0.0
C2624 C 0.98741 0.55553 0.87041 0.0
C2625 C 0.96569 0.55766 0.86543 0.0
C2626 C 0.99818 0.55459 0.89426 0.0
C2627 C 0.98792 0.55559 0.91481 0.0
C2628 C 0.96615 0.55806 0.91007 0.0
C2629 C 0.95528 0.55918 0.88588 0.0
C2630 C 1.0026 0.53936 0.98062 0.0
C2631 C 0.02557 0.54783 0.98655 0.0
C2632 C 0.9902 0.54235 0.95799 0.0
C2633 C 1.00027 0.5539 0.94043 0.0
C2634 C 0.0231 0.56308 0.94717 0.0
C2635 C 0.03531 0.56001 0.96939 0.0
H2636 H 0.295 0.19026 0.6078 0.0
H2637 H 0.25306 0.23769 0.59253 0.0
H2638 H 0.30221 0.2076 0.6519 0.0
H2639 H 0.26037 0.25492 0.63607 0.0
H2640 H 0.25189 0.25367 0.7152 0.0
H2641 H 0.24909 0.23867 0.67168 0.0
H2642 H 0.3185 0.2456 0.68395 0.0
H2643 H 0.3214 0.26054 0.72787 0.0
C2644 C 0.28765 0.20462 0.61375 0.0
C2645 C 0.27322 0.21233 0.59668 0.0
C2646 C 0.29177 0.21455 0.63898 0.0
C2647 C 0.28152 0.23232 0.6475 0.0
C2648 C 0.2681 0.24087 0.63019 0.0
C2649 C 0.264 0.23102 0.60517 0.0
C2650 C 0.26661 0.25207 0.70873 0.0
C2651 C 0.28687 0.2584 0.7251 0.0
C2652 C 0.26501 0.24357 0.6837 0.0
C2653 C 0.28361 0.2411 0.67431 0.0
C2654 C 0.30388 0.2472 0.69065 0.0
C2655 C 0.30552 0.25588 0.71578 0.0
H2656 H 0.61935 0.52459 0.24826 0.0
H2657 H 0.57443 0.56935 0.25729 0.0
H2658 H 0.60603 0.51668 0.20352 0.0
H2659 H 0.56122 0.56134 0.21288 0.0
H2660 H 0.56206 0.49599 0.12387 0.0
H2661 H 0.57267 0.49834 0.16854 0.0
H2662 H 0.57981 0.57513 0.17957 0.0
H2663 H 0.56928 0.57295 0.13543 0.0
C2664 C 0.60639 0.53236 0.2408 0.0
C2665 C 0.59818 0.54787 0.25637 0.0
C2666 C 0.59875 0.52779 0.21519 0.0
C2667 C 0.58286 0.53872 0.20471 0.0
C2668 C 0.57379 0.55304 0.2204 0.0
C2669 C 0.58132 0.55753 0.24589 0.0
C2670 C 0.56593 0.51337 0.13585 0.0
C2671 C 0.56474 0.53427 0.12601 0.0
C2672 C 0.57206 0.51469 0.16139 0.0
C2673 C 0.57681 0.53687 0.17755 0.0
C2674 C 0.57586 0.55771 0.16764 0.0
C2675 C 0.56997 0.55645 0.14225 0.0
H2676 H 0.24164 0.77846 0.94127 0.0
H2677 H 0.20929 0.82716 0.90758 0.0
H2678 H 0.23793 0.75436 0.90154 0.0
H2679 H 0.20398 0.80195 0.86733 0.0
H2680 H 0.25838 0.80528 0.82144 0.0
H2681 H 0.23324 0.80792 0.84871 0.0
H2682 H 0.23416 0.73618 0.86222 0.0
H2683 H 0.26111 0.7348 0.83623 0.0
C2684 C 0.23243 0.78312 0.92538 0.0
C2685 C 0.22707 0.8054 0.92712 0.0
C2686 C 0.23022 0.76919 0.9023 0.0
C2687 C 0.22239 0.77743 0.88083 0.0
C2688 C 0.21161 0.79613 0.88341 0.0
C2689 C 0.21427 0.81041 0.90657 0.0
C2690 C 0.25329 0.79018 0.83041 0.0
C2691 C 0.26255 0.77047 0.82791 0.0
C2692 C 0.23829 0.79131 0.84565 0.0
C2693 C 0.23185 0.77247 0.8585 0.0
C2694 C 0.23927 0.75146 0.85351 0.0
C2695 C 0.25478 0.75064 0.83868 0.0
H2696 H 0.99074 0.54459 0.74375 0.0
H2697 H 0.93391 0.55931 0.70248 0.0
H2698 H 1.00679 0.5424 0.7076 0.0
H2699 H 0.95053 0.55774 0.66547 0.0
H2700 H 0.97939 0.53054 0.59621 0.0
H2701 H 0.96155 0.53548 0.63178 0.0
H2702 H 0.02466 0.55972 0.68021 0.0
H2703 H 0.04211 0.55414 0.64515 0.0
C2704 C 0.98166 0.54792 0.727 0.0
C2705 C 0.96083 0.55246 0.72685 0.0
C2706 C 0.99113 0.54674 0.70581 0.0
C2707 C 0.98046 0.54998 0.68274 0.0
C2708 C 0.95962 0.55493 0.68245 0.0
C2709 C 0.95006 0.55623 0.70401 0.0
C2710 C 0.98952 0.53684 0.61446 0.0
C2711 C 1.0125 0.54156 0.61724 0.0
C2712 C 0.97917 0.53988 0.63515 0.0
C2713 C 0.99124 0.54781 0.65974 0.0
C2714 C 0.01423 0.55296 0.66221 0.0
C2715 C 0.02448 0.54986 0.64169 0.0
H2716 H 0.28704 0.18393 0.45532 0.0
H2717 H 0.24895 0.23488 0.47141 0.0
H2718 H 0.29655 0.20315 0.42082 0.0
H2719 H 0.25904 0.25453 0.43801 0.0
H2720 H 0.26446 0.27398 0.36346 0.0
H2721 H 0.25351 0.25161 0.39527 0.0
H2722 H 0.31746 0.23791 0.41075 0.0
H2723 H 0.32775 0.25895 0.37801 0.0
C2724 C 0.28083 0.19929 0.45163 0.0
C2725 C 0.26715 0.20773 0.4661 0.0
C2726 C 0.28633 0.21043 0.4319 0.0
C2727 C 0.27848 0.23043 0.42638 0.0
C2728 C 0.26501 0.23889 0.44113 0.0
C2729 C 0.25935 0.22766 0.46054 0.0
C2730 C 0.27599 0.26585 0.37343 0.0
C2731 C 0.29685 0.26801 0.36805 0.0
C2732 C 0.26986 0.25324 0.39192 0.0
C2733 C 0.28459 0.24285 0.40578 0.0
C2734 C 0.30549 0.24518 0.40031 0.0
C2735 C 0.31149 0.25752 0.38167 0.0
H2736 H 0.38334 0.6432 0.57873 0.0
H2737 H 0.32247 0.59792 0.53534 0.0
H2738 H 0.40323 0.62122 0.55438 0.0
H2739 H 0.3425 0.57608 0.51067 0.0
H2740 H 0.39027 0.5239 0.50848 0.0
H2741 H 0.36539 0.54798 0.51969 0.0
H2742 H 0.4115 0.61236 0.5132 0.0
H2743 H 0.43648 0.58822 0.50235 0.0
C2744 C 0.3742 0.62873 0.56381 0.0
C2745 C 0.35136 0.62213 0.55913 0.0
C2746 C 0.3856 0.6163 0.54965 0.0
C2747 C 0.3744 0.59699 0.53052 0.0
C2748 C 0.35153 0.59081 0.52538 0.0
C2749 C 0.34011 0.60332 0.53951 0.0
C2750 C 0.39468 0.54307 0.50854 0.0
C2751 C 0.41533 0.55433 0.50495 0.0
C2752 C 0.38047 0.55689 0.51499 0.0
C2753 C 0.38675 0.5821 0.51784 0.0
C2754 C 0.40648 0.59301 0.51168 0.0
C2755 C 0.42069 0.57923 0.50534 0.0
H2756 H 0.90497 0.90695 0.56187 0.0
H2757 H 0.8799 0.96652 0.58945 0.0
H2758 H 0.93776 0.93443 0.55782 0.0
H2759 H 0.91375 0.99457 0.58635 0.0
H2760 H 0.96929 0.03781 0.55426 0.0
H2761 H 0.93524 1.01194 0.55934 0.0
H2762 H 0.97019 0.95966 0.58053 0.0
H2763 H 1.00377 0.98528 0.57457 0.0
C2764 C 0.90656 0.92603 0.56743 0.0
C2765 C 0.88976 0.93445 0.57624 0.0
C2766 C 0.92561 0.94189 0.56525 0.0
C2767 C 0.92881 0.96686 0.57214 0.0
C2768 C 0.9119 0.97547 0.58072 0.0
C2769 C 0.89251 0.95943 0.58262 0.0
C2770 C 0.96955 0.02068 0.55986 0.0
C2771 C 0.98904 0.01317 0.56334 0.0
C2772 C 0.95007 1.00592 0.563 0.0
C2773 C 0.9497 0.98343 0.57006 0.0
C2774 C 0.96951 0.97644 0.57433 0.0
C2775 C 0.98886 0.99106 0.57087 0.0
H2776 H 0.88545 0.03916 0.3154 0.0
H2777 H 0.92005 0.06661 0.26096 0.0
H2778 H 0.86633 0.07113 0.3149 0.0
H2779 H 0.90144 0.09896 0.261 0.0
H2780 H 0.84505 0.13529 0.24602 0.0
H2781 H 0.86608 0.10507 0.24751 0.0
H2782 H 0.87118 0.1137 0.32656 0.0
H2783 H 0.84975 0.14362 0.3249 0.0
C2784 C 0.88911 0.05212 0.30346 0.0
C2785 C 0.9042 0.05025 0.28814 0.0
C2786 C 0.87825 0.07057 0.3033 0.0
C2787 C 0.88232 0.08765 0.2879 0.0
C2788 C 0.89764 0.08592 0.27281 0.0
C2789 C 0.9084 0.06741 0.27288 0.0
C2790 C 0.85091 0.13094 0.26374 0.0
C2791 C 0.8457 0.14176 0.28533 0.0
C2792 C 0.863 0.11363 0.26463 0.0
C2793 C 0.87027 0.10684 0.28716 0.0
C2794 C 0.86548 0.11814 0.30884 0.0
C2795 C 0.85328 0.13534 0.30792 0.0
H2796 H 0.78494 0.18409 0.17012 0.0
H2797 H 0.81049 0.13471 0.12477 0.0
H2798 H 0.75096 0.1536 0.16427 0.0
H2799 H 0.77648 0.10406 0.11922 0.0
H2800 H 0.69349 0.09414 0.15755 0.0
H2801 H 0.73206 0.11402 0.17079 0.0
H2802 H 0.74016 0.10206 0.09512 0.0
H2803 H 0.70171 0.08137 0.08195 0.0
C2804 C 0.78349 0.16657 0.15936 0.0
C2805 C 0.80025 0.16198 0.14757 0.0
C2806 C 0.76406 0.149 0.15616 0.0
C2807 C 0.76101 0.1265 0.14109 0.0
C2808 C 0.77831 0.12135 0.13066 0.0
C2809 C 0.79779 0.13891 0.13393 0.0
C2810 C 0.70363 0.095 0.14382 0.0
C2811 C 0.69452 0.08643 0.11864 0.0
C2812 C 0.72568 0.1066 0.15141 0.0
C2813 C 0.73904 0.10988 0.13398 0.0
C2814 C 0.7303 0.09971 0.10903 0.0
C2815 C 0.70824 0.0881 0.10143 0.0
H2816 H 0.1846 0.42739 0.3037 0.0
H2817 H 0.24916 0.47172 0.33446 0.0
H2818 H 0.19947 0.39148 0.30085 0.0
H2819 H 0.26373 0.43659 0.33218 0.0
H2820 H 0.29226 0.37282 0.31067 0.0
H2821 H 0.27595 0.40708 0.31207 0.0
H2822 H 0.21439 0.36094 0.31575 0.0
H2823 H 0.23084 0.32644 0.3138 0.0
C2824 C 0.20192 0.42974 0.30994 0.0
C2825 C 0.21534 0.45328 0.31926 0.0
C2826 C 0.21065 0.40881 0.30841 0.0
C2827 C 0.2333 0.41019 0.316 0.0
C2828 C 0.24644 0.43379 0.32543 0.0
C2829 C 0.23781 0.45445 0.32696 0.0
C2830 C 0.27524 0.36975 0.31187 0.0
C2831 C 0.26329 0.34618 0.31224 0.0
C2832 C 0.26565 0.38983 0.31285 0.0
C2833 C 0.2434 0.38781 0.31432 0.0
C2834 C 0.23138 0.36409 0.31448 0.0
C2835 C 0.24102 0.34394 0.31351 0.0
H2836 H 0.27269 0.43998 0.10242 0.0
H2837 H 0.25908 0.4319 0.02298 0.0
H2838 H 0.2421 0.45861 0.10423 0.0
H2839 H 0.22895 0.45075 0.0248 0.0
H2840 H 0.16288 0.46274 0.03268 0.0
H2841 H 0.19287 0.44328 0.03307 0.0
H2842 H 0.22948 0.49431 0.09802 0.0
H2843 H 0.19908 0.51325 0.0982 0.0
C2844 C 0.2633 0.4423 0.08535 0.0
C2845 C 0.26843 0.43433 0.06255 0.0
C2846 C 0.24577 0.45308 0.08639 0.0
C2847 C 0.23282 0.45611 0.06465 0.0
C2848 C 0.23818 0.44836 0.04193 0.0
C2849 C 0.25567 0.43767 0.0409 0.0
C2850 C 0.17714 0.46963 0.04733 0.0
C2851 C 0.1784 0.48969 0.06539 0.0
C2852 C 0.19455 0.45863 0.04735 0.0
C2853 C 0.21384 0.46727 0.06544 0.0
C2854 C 0.21493 0.48699 0.08385 0.0
C2855 C 0.19751 0.49805 0.08379 0.0
H2856 H 0.87857 0.95055 0.25899 0.0
H2857 H 0.92055 0.90262 0.27193 0.0
H2858 H 0.84741 0.91935 0.26342 0.0
H2859 H 0.88962 0.87194 0.2767 0.0
H2860 H 0.83629 0.8425 0.31983 0.0
H2861 H 0.86556 0.87326 0.31153 0.0
H2862 H 0.82614 0.87315 0.24109 0.0
H2863 H 0.79708 0.84138 0.24892 0.0
C2864 C 0.88112 0.93337 0.26254 0.0
C2865 C 0.90206 0.92913 0.2652 0.0
C2866 C 0.86331 0.91555 0.26501 0.0
C2867 C 0.86626 0.89343 0.27059 0.0
C2868 C 0.88702 0.88897 0.27261 0.0
C2869 C 0.90468 0.90654 0.26976 0.0
C2870 C 0.83402 0.84872 0.3024 0.0
C2871 C 0.81472 0.83912 0.28472 0.0
C2872 C 0.85067 0.86643 0.29775 0.0
C2873 C 0.84811 0.87533 0.27559 0.0
C2874 C 0.82845 0.8665 0.25829 0.0
C2875 C 0.8119 0.84838 0.26276 0.0
H2876 H 0.72409 0.07815 0.79278 0.0
H2877 H 0.69882 0.11082 0.85202 0.0
H2878 H 0.74547 0.11817 0.78971 0.0
H2879 H 0.71964 0.15036 0.84895 0.0
H2880 H 0.76861 0.22054 0.84935 0.0
H2881 H 0.75255 0.17966 0.85464 0.0
H2882 H 0.74241 0.15513 0.77613 0.0
H2883 H 0.75875 0.19595 0.77096 0.0
C2884 C 0.72357 0.09368 0.80569 0.0
C2885 C 0.70987 0.09085 0.82299 0.0
C2886 C 0.73558 0.11689 0.80366 0.0
C2887 C 0.73448 0.13813 0.81898 0.0
C2888 C 0.72146 0.13493 0.83691 0.0
C2889 C 0.7094 0.11196 0.83873 0.0
C2890 C 0.76302 0.20649 0.83315 0.0
C2891 C 0.76506 0.21206 0.80967 0.0
C2892 C 0.75361 0.18279 0.83616 0.0
C2893 C 0.74585 0.16346 0.81586 0.0
C2894 C 0.74826 0.16903 0.79242 0.0
C2895 C 0.75758 0.19275 0.7894 0.0
loop_
_geom_bond_atom_site_label_1
_geom_bond_atom_site_label_2
_geom_bond_distance
_geom_bond_site_symmetry_2
_ccdc_geom_bond_type
Zn0 O3 2.031 . S
Zn0 O5 2.049 . S
Zn0 O10 2.067 . S
Zn1 O2 1.962 . S
Zn1 O4 1.986 . S
Zn1 O6 1.996 . S
Zn1 O9 1.943 1_455 S
O2 Zn1 1.962 . S
O2 C7 1.254 . S
O3 Zn0 2.031 . S
O3 C7 1.269 1_655 S
O4 Zn1 1.986 . S
O4 C11 1.262 . S
O5 Zn0 2.049 . S
O5 C13 1.260 . S
O6 Zn1 1.996 . S
O6 C13 1.257 1_455 S
C7 O2 1.254 . S
C7 O3 1.269 1_455 S
C8 O9 1.249 . S
C8 O10 1.270 . S
O9 Zn1 1.943 1_655 S
O9 C8 1.249 . S
O10 Zn0 2.067 . S
O10 C8 1.270 . S
C11 O4 1.262 . S
C11 O12 1.232 . S
O12 C11 1.232 . S
C13 O5 1.260 . S
C13 O6 1.257 1_655 S
Zn14 O17 2.031 . S
Zn14 O19 2.049 . S
Zn14 O24 2.067 . S
Zn15 O16 1.962 . S
Zn15 O18 1.986 . S
Zn15 O20 1.996 . S
Zn15 O23 1.943 . S
O16 Zn15 1.962 . S
O16 C21 1.254 . S
O17 Zn14 2.031 . S
O17 C21 1.269 . S
O18 Zn15 1.986 . S
O18 C25 1.262 . S
O19 Zn14 2.049 . S
O19 C27 1.260 . S
O20 Zn15 1.996 . S
O20 C27 1.257 . S
C21 O16 1.254 . S
C21 O17 1.269 . S
C22 O23 1.249 . S
C22 O24 1.270 . S
O23 Zn15 1.943 . S
O23 C22 1.249 . S
O24 Zn14 2.067 . S
O24 C22 1.270 . S
C25 O18 1.262 . S
C25 O26 1.232 . S
O26 C25 1.232 . S
C27 O19 1.260 . S
C27 O20 1.257 . S
Zn28 O31 2.031 . S
Zn28 O33 2.049 . S
Zn28 O38 2.067 . S
Zn29 O30 1.962 . S
Zn29 O32 1.986 . S
Zn29 O34 1.996 . S
Zn29 O37 1.943 . S
O30 Zn29 1.962 . S
O30 C35 1.254 . S
O31 Zn28 2.031 . S
O31 C35 1.269 . S
O32 Zn29 1.986 . S
O32 C39 1.262 . S
O33 Zn28 2.049 . S
O33 C41 1.260 . S
O34 Zn29 1.996 . S
O34 C41 1.257 . S
C35 O30 1.254 . S
C35 O31 1.269 . S
C36 O37 1.249 . S
C36 O38 1.270 . S
O37 Zn29 1.943 . S
O37 C36 1.249 . S
O38 Zn28 2.067 . S
O38 C36 1.270 . S
C39 O32 1.262 . S
C39 O40 1.232 . S
O40 C39 1.232 . S
C41 O33 1.260 . S
C41 O34 1.257 . S
Zn42 O45 2.031 . S
Zn42 O47 2.049 . S
Zn42 O52 2.067 . S
Zn43 O44 1.962 . S
Zn43 O46 1.986 . S
Zn43 O48 1.996 . S
Zn43 O51 1.943 . S
O44 Zn43 1.962 . S
O44 C49 1.254 . S
O45 Zn42 2.031 . S
O45 C49 1.269 . S
O46 Zn43 1.986 . S
O46 C53 1.262 . S
O47 Zn42 2.049 . S
O47 C55 1.260 . S
O48 Zn43 1.996 . S
O48 C55 1.257 . S
C49 O44 1.254 . S
C49 O45 1.269 . S
C50 O51 1.249 . S
C50 O52 1.270 . S
O51 Zn43 1.943 . S
O51 C50 1.249 . S
O52 Zn42 2.067 . S
O52 C50 1.270 . S
C53 O46 1.262 . S
C53 O54 1.232 . S
O54 C53 1.232 . S
C55 O47 1.260 . S
C55 O48 1.257 . S
Zn56 O59 2.031 . S
Zn56 O61 2.049 . S
Zn56 O66 2.067 . S
Zn57 O58 1.962 . S
Zn57 O60 1.986 . S
Zn57 O62 1.996 . S
Zn57 O65 1.943 . S
O58 Zn57 1.962 . S
O58 C63 1.254 . S
O59 Zn56 2.031 . S
O59 C63 1.269 . S
O60 Zn57 1.986 . S
O60 C67 1.262 . S
O61 Zn56 2.049 . S
O61 C69 1.260 . S
O62 Zn57 1.996 . S
O62 C69 1.257 . S
C63 O58 1.254 . S
C63 O59 1.269 . S
C64 O65 1.249 . S
C64 O66 1.270 . S
O65 Zn57 1.943 . S
O65 C64 1.249 . S
O66 Zn56 2.067 . S
O66 C64 1.270 . S
C67 O60 1.262 . S
C67 O68 1.232 . S
O68 C67 1.232 . S
C69 O61 1.260 . S
C69 O62 1.257 . S
Zn70 O73 2.031 . S
Zn70 O75 2.049 . S
Zn70 O80 2.067 . S
Zn71 O72 1.962 . S
Zn71 O74 1.986 . S
Zn71 O76 1.996 . S
Zn71 O79 1.943 . S
O72 Zn71 1.962 . S
O72 C77 1.254 . S
O73 Zn70 2.031 . S
O73 C77 1.269 . S
O74 Zn71 1.986 . S
O74 C81 1.262 . S
O75 Zn70 2.049 . S
O75 C83 1.260 . S
O76 Zn71 1.996 . S
O76 C83 1.257 . S
C77 O72 1.254 . S
C77 O73 1.269 . S
C78 O79 1.249 . S
C78 O80 1.270 . S
O79 Zn71 1.943 . S
O79 C78 1.249 . S
O80 Zn70 2.067 . S
O80 C78 1.270 . S
C81 O74 1.262 . S
C81 O82 1.232 . S
O82 C81 1.232 . S
C83 O75 1.260 . S
C83 O76 1.257 . S
Zn84 O87 2.031 . S
Zn84 O89 2.049 . S
Zn84 O94 2.067 . S
Zn85 O86 1.962 . S
Zn85 O88 1.986 . S
Zn85 O90 1.996 . S
Zn85 O93 1.943 . S
O86 Zn85 1.962 . S
O86 C91 1.254 . S
O87 Zn84 2.031 . S
O87 C91 1.269 . S
O88 Zn85 1.986 . S
O88 C95 1.262 . S
O89 Zn84 2.049 . S
O89 C97 1.260 . S
O90 Zn85 1.996 . S
O90 C97 1.257 . S
C91 O86 1.254 . S
C91 O87 1.269 . S
C92 O93 1.249 . S
C92 O94 1.270 . S
O93 Zn85 1.943 . S
O93 C92 1.249 . S
O94 Zn84 2.067 . S
O94 C92 1.270 . S
C95 O88 1.262 . S
C95 O96 1.232 . S
O96 C95 1.232 . S
C97 O89 1.260 . S
C97 O90 1.257 . S
Zn98 O101 2.031 . S
Zn98 O103 2.049 . S
Zn98 O108 2.067 . S
Zn99 O100 1.962 . S
Zn99 O102 1.986 . S
Zn99 O104 1.996 . S
Zn99 O107 1.943 1_455 S
O100 Zn99 1.962 . S
O100 C105 1.254 . S
O101 Zn98 2.031 . S
O101 C105 1.269 1_655 S
O102 Zn99 1.986 . S
O102 C109 1.262 . S
O103 Zn98 2.049 . S
O103 C111 1.260 1_655 S
O104 Zn99 1.996 . S
O104 C111 1.257 . S
C105 O100 1.254 . S
C105 O101 1.269 1_455 S
C106 O107 1.249 . S
C106 O108 1.270 . S
O107 Zn99 1.943 1_655 S
O107 C106 1.249 . S
O108 Zn98 2.067 . S
O108 C106 1.270 . S
C109 O102 1.262 . S
C109 O110 1.232 . S
O110 C109 1.232 . S
C111 O103 1.260 1_455 S
C111 O104 1.257 . S
Zn112 O115 2.031 1_565 S
Zn112 O117 2.049 . S
Zn112 O122 2.067 . S
Zn113 O114 1.962 . S
Zn113 O116 1.986 . S
Zn113 O118 1.996 . S
Zn113 O121 1.943 . S
O114 Zn113 1.962 . S
O114 C119 1.254 . S
O115 Zn112 2.031 1_545 S
O115 C119 1.269 . S
O116 Zn113 1.986 . S
O116 C123 1.262 . S
O117 Zn112 2.049 . S
O117 C125 1.260 1_565 S
O118 Zn113 1.996 . S
O118 C125 1.257 . S
C119 O114 1.254 . S
C119 O115 1.269 . S
C120 O121 1.249 1_565 S
C120 O122 1.270 . S
O121 Zn113 1.943 . S
O121 C120 1.249 1_545 S
O122 Zn112 2.067 . S
O122 C120 1.270 . S
C123 O116 1.262 . S
C123 O124 1.232 . S
O124 C123 1.232 . S
C125 O117 1.260 1_545 S
C125 O118 1.257 . S
Zn126 O129 2.031 . S
Zn126 O131 2.049 . S
Zn126 O136 2.067 . S
Zn127 O128 1.962 . S
Zn127 O130 1.986 . S
Zn127 O132 1.996 . S
Zn127 O135 1.943 . S
O128 Zn127 1.962 . S
O128 C133 1.254 . S
O129 Zn126 2.031 . S
O129 C133 1.269 . S
O130 Zn127 1.986 . S
O130 C137 1.262 . S
O131 Zn126 2.049 . S
O131 C139 1.260 . S
O132 Zn127 1.996 . S
O132 C139 1.257 . S
C133 O128 1.254 . S
C133 O129 1.269 . S
C134 O135 1.249 . S
C134 O136 1.270 . S
O135 Zn127 1.943 . S
O135 C134 1.249 . S
O136 Zn126 2.067 . S
O136 C134 1.270 . S
C137 O130 1.262 . S
C137 O138 1.232 . S
O138 C137 1.232 . S
C139 O131 1.260 . S
C139 O132 1.257 . S
Zn140 O143 2.031 . S
Zn140 O145 2.049 . S
Zn140 O150 2.067 . S
Zn141 O142 1.962 . S
Zn141 O144 1.986 1_545 S
Zn141 O146 1.996 . S
Zn141 O149 1.943 . S
O142 Zn141 1.962 . S
O142 C147 1.254 . S
O143 Zn140 2.031 . S
O143 C147 1.269 . S
O144 Zn141 1.986 1_565 S
O144 C151 1.262 . S
O145 Zn140 2.049 . S
O145 C153 1.260 . S
O146 Zn141 1.996 . S
O146 C153 1.257 . S
C147 O142 1.254 . S
C147 O143 1.269 . S
C148 O149 1.249 . S
C148 O150 1.270 . S
O149 Zn141 1.943 . S
O149 C148 1.249 . S
O150 Zn140 2.067 . S
O150 C148 1.270 . S
C151 O144 1.262 . S
C151 O152 1.232 1_565 S
O152 C151 1.232 1_545 S
C153 O145 1.260 . S
C153 O146 1.257 . S
Zn154 O157 2.031 1_554 S
Zn154 O159 2.049 . S
Zn154 O164 2.067 . S
Zn155 O156 1.962 . S
Zn155 O158 1.986 1_556 S
Zn155 O160 1.996 1_556 S
Zn155 O163 1.943 1_556 S
O156 Zn155 1.962 . S
O156 C161 1.254 . S
O157 Zn154 2.031 1_556 S
O157 C161 1.269 . S
O158 Zn155 1.986 1_554 S
O158 C165 1.262 1_554 S
O159 Zn154 2.049 . S
O159 C167 1.260 . S
O160 Zn155 1.996 1_554 S
O160 C167 1.257 . S
C161 O156 1.254 . S
C161 O157 1.269 . S
C162 O163 1.249 . S
C162 O164 1.270 . S
O163 Zn155 1.943 1_554 S
O163 C162 1.249 . S
O164 Zn154 2.067 . S
O164 C162 1.270 . S
C165 O158 1.262 1_556 S
C165 O166 1.232 . S
O166 C165 1.232 . S
C167 O159 1.260 . S
C167 O160 1.257 . S
Zn168 O171 2.031 . S
Zn168 O173 2.049 . S
Zn168 O178 2.067 . S
Zn169 O170 1.962 . S
Zn169 O172 1.986 . S
Zn169 O174 1.996 . S
Zn169 O177 1.943 . S
O170 Zn169 1.962 . S
O170 C175 1.254 . S
O171 Zn168 2.031 . S
O171 C175 1.269 . S
O172 Zn169 1.986 . S
O172 C179 1.262 . S
O173 Zn168 2.049 . S
O173 C181 1.260 . S
O174 Zn169 1.996 . S
O174 C181 1.257 . S
C175 O170 1.254 . S
C175 O171 1.269 . S
C176 O177 1.249 . S
C176 O178 1.270 . S
O177 Zn169 1.943 . S
O177 C176 1.249 . S
O178 Zn168 2.067 . S
O178 C176 1.270 . S
C179 O172 1.262 . S
C179 O180 1.232 . S
O180 C179 1.232 . S
C181 O173 1.260 . S
C181 O174 1.257 . S
Zn182 O185 2.031 . S
Zn182 O187 2.049 . S
Zn182 O192 2.067 . S
Zn183 O184 1.962 . S
Zn183 O186 1.986 . S
Zn183 O188 1.996 . S
Zn183 O191 1.943 . S
O184 Zn183 1.962 . S
O184 C189 1.254 . S
O185 Zn182 2.031 . S
O185 C189 1.269 . S
O186 Zn183 1.986 . S
O186 C193 1.262 . S
O187 Zn182 2.049 . S
O187 C195 1.260 . S
O188 Zn183 1.996 . S
O188 C195 1.257 . S
C189 O184 1.254 . S
C189 O185 1.269 . S
C190 O191 1.249 . S
C190 O192 1.270 . S
O191 Zn183 1.943 . S
O191 C190 1.249 . S
O192 Zn182 2.067 . S
O192 C190 1.270 . S
C193 O186 1.262 . S
C193 O194 1.232 . S
O194 C193 1.232 . S
C195 O187 1.260 . S
C195 O188 1.257 . S
Zn196 O199 2.031 . S
Zn196 O201 2.049 . S
Zn196 O206 2.067 . S
Zn197 O198 1.962 . S
Zn197 O200 1.986 . S
Zn197 O202 1.996 . S
Zn197 O205 1.943 . S
O198 Zn197 1.962 . S
O198 C203 1.254 . S
O199 Zn196 2.031 . S
O199 C203 1.269 . S
O200 Zn197 1.986 . S
O200 C207 1.262 . S
O201 Zn196 2.049 . S
O201 C209 1.260 . S
O202 Zn197 1.996 . S
O202 C209 1.257 . S
C203 O198 1.254 . S
C203 O199 1.269 . S
C204 O205 1.249 . S
C204 O206 1.270 . S
O205 Zn197 1.943 . S
O205 C204 1.249 . S
O206 Zn196 2.067 . S
O206 C204 1.270 . S
C207 O200 1.262 . S
C207 O208 1.232 . S
O208 C207 1.232 . S
C209 O201 1.260 . S
C209 O202 1.257 . S
Zn210 O213 2.031 . S
Zn210 O215 2.049 . S
Zn210 O220 2.067 . S
Zn211 O212 1.962 . S
Zn211 O214 1.986 . S
Zn211 O216 1.996 . S
Zn211 O219 1.943 . S
O212 Zn211 1.962 . S
O212 C217 1.254 . S
O213 Zn210 2.031 . S
O213 C217 1.269 . S
O214 Zn211 1.986 . S
O214 C221 1.262 . S
O215 Zn210 2.049 . S
O215 C223 1.260 . S
O216 Zn211 1.996 . S
O216 C223 1.257 . S
C217 O212 1.254 . S
C217 O213 1.269 . S
C218 O219 1.249 . S
C218 O220 1.270 . S
O219 Zn211 1.943 . S
O219 C218 1.249 . S
O220 Zn210 2.067 . S
O220 C218 1.270 . S
C221 O214 1.262 . S
C221 O222 1.232 . S
O222 C221 1.232 . S
C223 O215 1.260 . S
C223 O216 1.257 . S
Zn224 O227 2.031 . S
Zn224 O229 2.049 . S
Zn224 O234 2.067 . S
Zn225 O226 1.962 . S
Zn225 O228 1.986 . S
Zn225 O230 1.996 . S
Zn225 O233 1.943 1_545 S
O226 Zn225 1.962 . S
O226 C231 1.254 . S
O227 Zn224 2.031 . S
O227 C231 1.269 1_565 S
O228 Zn225 1.986 . S
O228 C235 1.262 . S
O229 Zn224 2.049 . S
O229 C237 1.260 . S
O230 Zn225 1.996 . S
O230 C237 1.257 1_545 S
C231 O226 1.254 . S
C231 O227 1.269 1_545 S
C232 O233 1.249 . S
C232 O234 1.270 . S
O233 Zn225 1.943 1_565 S
O233 C232 1.249 . S
O234 Zn224 2.067 . S
O234 C232 1.270 . S
C235 O228 1.262 . S
C235 O236 1.232 . S
O236 C235 1.232 . S
C237 O229 1.260 . S
C237 O230 1.257 1_565 S
Zn238 O241 2.031 . S
Zn238 O243 2.049 . S
Zn238 O248 2.067 . S
Zn239 O240 1.962 . S
Zn239 O242 1.986 . S
Zn239 O244 1.996 . S
Zn239 O247 1.943 . S
O240 Zn239 1.962 . S
O240 C245 1.254 . S
O241 Zn238 2.031 . S
O241 C245 1.269 . S
O242 Zn239 1.986 . S
O242 C249 1.262 . S
O243 Zn238 2.049 . S
O243 C251 1.260 . S
O244 Zn239 1.996 . S
O244 C251 1.257 . S
C245 O240 1.254 . S
C245 O241 1.269 . S
C246 O247 1.249 . S
C246 O248 1.270 . S
O247 Zn239 1.943 . S
O247 C246 1.249 . S
O248 Zn238 2.067 . S
O248 C246 1.270 . S
C249 O242 1.262 . S
C249 O250 1.232 . S
O250 C249 1.232 . S
C251 O243 1.260 . S
C251 O244 1.257 . S
Zn252 O255 2.031 . S
Zn252 O257 2.049 . S
Zn252 O262 2.067 . S
Zn253 O254 1.962 . S
Zn253 O256 1.986 . S
Zn253 O258 1.996 . S
Zn253 O261 1.943 . S
O254 Zn253 1.962 . S
O254 C259 1.254 . S
O255 Zn252 2.031 . S
O255 C259 1.269 . S
O256 Zn253 1.986 . S
O256 C263 1.262 . S
O257 Zn252 2.049 . S
O257 C265 1.260 . S
O258 Zn253 1.996 . S
O258 C265 1.257 . S
C259 O254 1.254 . S
C259 O255 1.269 . S
C260 O261 1.249 . S
C260 O262 1.270 . S
O261 Zn253 1.943 . S
O261 C260 1.249 . S
O262 Zn252 2.067 . S
O262 C260 1.270 . S
C263 O256 1.262 . S
C263 O264 1.232 . S
O264 C263 1.232 . S
C265 O257 1.260 . S
C265 O258 1.257 . S
Zn266 O269 2.031 . S
Zn266 O271 2.049 . S
Zn266 O276 2.067 . S
Zn267 O268 1.962 . S
Zn267 O270 1.986 1_545 S
Zn267 O272 1.996 . S
Zn267 O275 1.943 . S
O268 Zn267 1.962 . S
O268 C273 1.254 . S
O269 Zn266 2.031 . S
O269 C273 1.269 . S
O270 Zn267 1.986 1_565 S
O270 C277 1.262 . S
O271 Zn266 2.049 . S
O271 C279 1.260 . S
O272 Zn267 1.996 . S
O272 C279 1.257 . S
C273 O268 1.254 . S
C273 O269 1.269 . S
C274 O275 1.249 . S
C274 O276 1.270 . S
O275 Zn267 1.943 . S
O275 C274 1.249 . S
O276 Zn266 2.067 . S
O276 C274 1.270 . S
C277 O270 1.262 . S
C277 O278 1.232 . S
O278 C277 1.232 . S
C279 O271 1.260 . S
C279 O272 1.257 . S
Zn280 O283 2.031 . S
Zn280 O285 2.049 . S
Zn280 O290 2.067 . S
Zn281 O282 1.962 . S
Zn281 O284 1.986 . S
Zn281 O286 1.996 . S
Zn281 O289 1.943 . S
O282 Zn281 1.962 . S
O282 C287 1.254 . S
O283 Zn280 2.031 . S
O283 C287 1.269 . S
O284 Zn281 1.986 . S
O284 C291 1.262 . S
O285 Zn280 2.049 . S
O285 C293 1.260 . S
O286 Zn281 1.996 . S
O286 C293 1.257 . S
C287 O282 1.254 . S
C287 O283 1.269 . S
C288 O289 1.249 . S
C288 O290 1.270 . S
O289 Zn281 1.943 . S
O289 C288 1.249 . S
O290 Zn280 2.067 . S
O290 C288 1.270 . S
C291 O284 1.262 . S
C291 O292 1.232 . S
O292 C291 1.232 . S
C293 O285 1.260 . S
C293 O286 1.257 . S
Zn294 O297 2.031 . S
Zn294 O299 2.049 . S
Zn294 O304 2.067 . S
Zn295 O296 1.962 . S
Zn295 O298 1.986 . S
Zn295 O300 1.996 . S
Zn295 O303 1.943 . S
O296 Zn295 1.962 . S
O296 C301 1.254 . S
O297 Zn294 2.031 . S
O297 C301 1.269 . S
O298 Zn295 1.986 . S
O298 C305 1.262 . S
O299 Zn294 2.049 . S
O299 C307 1.260 . S
O300 Zn295 1.996 . S
O300 C307 1.257 . S
C301 O296 1.254 . S
C301 O297 1.269 . S
C302 O303 1.249 . S
C302 O304 1.270 . S
O303 Zn295 1.943 . S
O303 C302 1.249 . S
O304 Zn294 2.067 . S
O304 C302 1.270 . S
C305 O298 1.262 . S
C305 O306 1.232 . S
O306 C305 1.232 . S
C307 O299 1.260 . S
C307 O300 1.257 . S
Zn308 O311 2.031 . S
Zn308 O313 2.049 . S
Zn308 O318 2.067 . S
Zn309 O310 1.962 . S
Zn309 O312 1.986 . S
Zn309 O314 1.996 . S
Zn309 O317 1.943 . S
O310 Zn309 1.962 . S
O310 C315 1.254 . S
O311 Zn308 2.031 . S
O311 C315 1.269 . S
O312 Zn309 1.986 . S
O312 C319 1.262 . S
O313 Zn308 2.049 . S
O313 C321 1.260 . S
O314 Zn309 1.996 . S
O314 C321 1.257 . S
C315 O310 1.254 . S
C315 O311 1.269 . S
C316 O317 1.249 . S
C316 O318 1.270 . S
O317 Zn309 1.943 . S
O317 C316 1.249 . S
O318 Zn308 2.067 . S
O318 C316 1.270 . S
C319 O312 1.262 . S
C319 O320 1.232 . S
O320 C319 1.232 . S
C321 O313 1.260 . S
C321 O314 1.257 . S
Zn322 O325 2.031 . S
Zn322 O327 2.049 . S
Zn322 O332 2.067 . S
Zn323 O324 1.962 . S
Zn323 O326 1.986 . S
Zn323 O328 1.996 . S
Zn323 O331 1.943 . S
O324 Zn323 1.962 . S
O324 C329 1.254 . S
O325 Zn322 2.031 . S
O325 C329 1.269 . S
O326 Zn323 1.986 . S
O326 C333 1.262 . S
O327 Zn322 2.049 . S
O327 C335 1.260 . S
O328 Zn323 1.996 . S
O328 C335 1.257 . S
C329 O324 1.254 . S
C329 O325 1.269 . S
C330 O331 1.249 . S
C330 O332 1.270 . S
O331 Zn323 1.943 . S
O331 C330 1.249 . S
O332 Zn322 2.067 . S
O332 C330 1.270 . S
C333 O326 1.262 . S
C333 O334 1.232 . S
O334 C333 1.232 . S
C335 O327 1.260 . S
C335 O328 1.257 . S
Tb336 C338 2.809 1_455 S
Tb336 O356 2.484 1_455 S
Tb336 O357 2.440 1_455 S
Tb336 O358 2.658 . S
Tb336 O359 2.409 1_554 S
Tb336 O360 2.378 . S
Tb336 O364 2.325 . S
Tb336 O367 2.341 1_545 S
Tb337 C347 2.809 . S
Tb337 O358 2.325 . S
Tb337 O361 2.341 . S
Tb337 O362 2.484 . S
Tb337 O363 2.440 . S
Tb337 O364 2.658 . S
Tb337 O365 2.409 . S
Tb337 O366 2.378 1_545 S
C338 Tb336 2.809 1_655 S
C338 C339 1.514 . S
C338 O356 1.248 . S
C338 O357 1.266 . S
C339 C338 1.514 . S
C339 C340 1.359 . S
C339 C344 1.376 . S
C340 C339 1.359 . S
C340 C341 1.380 . S
C340 H368 0.929 . S
C341 C340 1.380 . S
C341 C342 1.347 . S
C341 H369 0.931 . S
C342 C341 1.347 . S
C342 C343 1.369 1_554 S
C343 C342 1.369 1_556 S
C343 C344 1.406 1_556 S
C343 H370 0.930 . S
C344 C339 1.376 . S
C344 C343 1.406 1_554 S
C344 H371 0.905 1_554 S
C345 O358 1.281 . S
C345 O359 1.254 1_554 S
C346 O360 1.236 . S
C346 O361 1.266 . S
C347 Tb337 2.809 . S
C347 C348 1.514 1_545 S
C347 O362 1.248 . S
C347 O363 1.266 . S
C348 C347 1.514 1_565 S
C348 C349 1.359 . S
C348 C353 1.348 . S
C349 C348 1.359 . S
C349 C350 1.380 . S
C349 H372 0.929 . S
C350 C349 1.380 . S
C350 C351 1.347 . S
C350 H373 0.931 . S
C351 C350 1.347 . S
C351 C352 1.369 . S
C352 C351 1.369 . S
C352 C353 1.408 . S
C352 H374 0.930 . S
C353 C348 1.348 . S
C353 C352 1.408 . S
C353 H375 0.930 . S
C354 O364 1.281 . S
C354 O365 1.254 . S
C355 O366 1.236 . S
C355 O367 1.266 . S
O356 Tb336 2.484 1_655 S
O356 C338 1.248 . S
O357 Tb336 2.440 1_655 S
O357 C338 1.266 . S
O358 Tb336 2.658 . S
O358 Tb337 2.325 . S
O358 C345 1.281 . S
O359 Tb336 2.409 1_556 S
O359 C345 1.254 1_556 S
O360 Tb336 2.378 . S
O360 C346 1.236 . S
O361 Tb337 2.341 . S
O361 C346 1.266 . S
O362 Tb337 2.484 . S
O362 C347 1.248 . S
O363 Tb337 2.440 . S
O363 C347 1.266 . S
O364 Tb336 2.325 . S
O364 Tb337 2.658 . S
O364 C354 1.281 . S
O365 Tb337 2.409 . S
O365 C354 1.254 . S
O366 Tb337 2.378 1_565 S
O366 C355 1.236 . S
O367 Tb336 2.341 1_565 S
O367 C355 1.266 . S
H368 C340 0.929 . S
H369 C341 0.931 . S
H370 C343 0.930 . S
H371 C344 0.905 1_556 S
H372 C349 0.929 . S
H373 C350 0.931 . S
H374 C352 0.930 . S
H375 C353 0.930 . S
Tb376 C378 2.809 . S
Tb376 O396 2.484 . S
Tb376 O397 2.440 . S
Tb376 O398 2.658 . S
Tb376 O399 2.409 . S
Tb376 O400 2.378 . S
Tb376 O404 2.325 . S
Tb376 O407 2.341 . S
Tb377 C387 2.809 . S
Tb377 O398 2.325 . S
Tb377 O401 2.341 . S
Tb377 O402 2.484 . S
Tb377 O403 2.440 . S
Tb377 O404 2.658 . S
Tb377 O405 2.409 . S
Tb377 O406 2.378 . S
C378 Tb376 2.809 . S
C378 C379 1.514 . S
C378 O396 1.248 . S
C378 O397 1.266 . S
C379 C378 1.514 . S
C379 C380 1.359 . S
C379 C384 1.348 . S
C380 C379 1.359 . S
C380 C381 1.380 . S
C380 H408 0.929 . S
C381 C380 1.380 . S
C381 C382 1.347 . S
C381 H409 0.931 . S
C382 C381 1.347 . S
C382 C383 1.369 . S
C383 C382 1.369 . S
C383 C384 1.408 . S
C383 H410 0.930 . S
C384 C379 1.348 . S
C384 C383 1.408 . S
C384 H411 0.930 . S
C385 O398 1.281 . S
C385 O399 1.254 . S
C386 O400 1.236 . S
C386 O401 1.266 . S
C387 Tb377 2.809 . S
C387 C388 1.514 . S
C387 O402 1.248 . S
C387 O403 1.266 . S
C388 C387 1.514 . S
C388 C389 1.359 . S
C388 C393 1.348 . S
C389 C388 1.359 . S
C389 C390 1.380 . S
C389 H412 0.929 . S
C390 C389 1.380 . S
C390 C391 1.347 . S
C390 H413 0.931 . S
C391 C390 1.347 . S
C391 C392 1.369 . S
C392 C391 1.369 . S
C392 C393 1.408 . S
C392 H414 0.930 . S
C393 C388 1.348 . S
C393 C392 1.408 . S
C393 H415 0.930 . S
C394 O404 1.281 . S
C394 O405 1.254 . S
C395 O406 1.236 . S
C395 O407 1.266 . S
O396 Tb376 2.484 . S
O396 C378 1.248 . S
O397 Tb376 2.440 . S
O397 C378 1.266 . S
O398 Tb376 2.658 . S
O398 Tb377 2.325 . S
O398 C385 1.281 . S
O399 Tb376 2.409 . S
O399 C385 1.254 . S
O400 Tb376 2.378 . S
O400 C386 1.236 . S
O401 Tb377 2.341 . S
O401 C386 1.266 . S
O402 Tb377 2.484 . S
O402 C387 1.248 . S
O403 Tb377 2.440 . S
O403 C387 1.266 . S
O404 Tb376 2.325 . S
O404 Tb377 2.658 . S
O404 C394 1.281 . S
O405 Tb377 2.409 . S
O405 C394 1.254 . S
O406 Tb377 2.378 . S
O406 C395 1.236 . S
O407 Tb376 2.341 . S
O407 C395 1.266 . S
H408 C380 0.929 . S
H409 C381 0.931 . S
H410 C383 0.930 . S
H411 C384 0.930 . S
H412 C389 0.929 . S
H413 C390 0.931 . S
H414 C392 0.930 . S
H415 C393 0.930 . S
Tb416 C418 2.809 1_545 S
Tb416 O436 2.484 1_545 S
Tb416 O437 2.440 . S
Tb416 O438 2.658 . S
Tb416 O439 2.409 . S
Tb416 O440 2.378 1_545 S
Tb416 O444 2.325 . S
Tb416 O447 2.341 . S
Tb417 C427 2.809 . S
Tb417 O438 2.325 . S
Tb417 O441 2.341 1_545 S
Tb417 O442 2.484 . S
Tb417 O443 2.440 . S
Tb417 O444 2.658 . S
Tb417 O445 2.409 . S
Tb417 O446 2.378 . S
C418 Tb416 2.809 1_565 S
C418 C419 1.514 . S
C418 O436 1.248 . S
C418 O437 1.266 1_565 S
C419 C418 1.514 . S
C419 C420 1.359 . S
C419 C424 1.348 . S
C420 C419 1.359 . S
C420 C421 1.380 . S
C420 H448 0.929 . S
C421 C420 1.380 . S
C421 C422 1.347 . S
C421 H449 0.931 . S
C422 C421 1.347 . S
C422 C423 1.369 . S
C423 C422 1.369 . S
C423 C424 1.408 . S
C423 H450 0.930 . S
C424 C419 1.348 . S
C424 C423 1.408 . S
C424 H451 0.930 . S
C425 O438 1.281 . S
C425 O439 1.254 . S
C426 O440 1.236 . S
C426 O441 1.266 . S
C427 Tb417 2.809 . S
C427 C428 1.514 . S
C427 O442 1.248 . S
C427 O443 1.266 . S
C428 C427 1.514 . S
C428 C429 1.359 . S
C428 C433 1.348 . S
C429 C428 1.359 . S
C429 C430 1.380 . S
C429 H452 0.929 . S
C430 C429 1.380 . S
C430 C431 1.347 . S
C430 H453 0.931 . S
C431 C430 1.347 . S
C431 C432 1.369 . S
C432 C431 1.369 . S
C432 C433 1.408 . S
C432 H454 0.930 . S
C433 C428 1.348 . S
C433 C432 1.408 . S
C433 H455 0.930 . S
C434 O444 1.281 . S
C434 O445 1.254 . S
C435 O446 1.236 . S
C435 O447 1.266 . S
O436 Tb416 2.484 1_565 S
O436 C418 1.248 . S
O437 Tb416 2.440 . S
O437 C418 1.266 1_545 S
O438 Tb416 2.658 . S
O438 Tb417 2.325 . S
O438 C425 1.281 . S
O439 Tb416 2.409 . S
O439 C425 1.254 . S
O440 Tb416 2.378 1_565 S
O440 C426 1.236 . S
O441 Tb417 2.341 1_565 S
O441 C426 1.266 . S
O442 Tb417 2.484 . S
O442 C427 1.248 . S
O443 Tb417 2.440 . S
O443 C427 1.266 . S
O444 Tb416 2.325 . S
O444 Tb417 2.658 . S
O444 C434 1.281 . S
O445 Tb417 2.409 . S
O445 C434 1.254 . S
O446 Tb417 2.378 . S
O446 C435 1.236 . S
O447 Tb416 2.341 . S
O447 C435 1.266 . S
H448 C420 0.929 . S
H449 C421 0.931 . S
H450 C423 0.930 . S
H451 C424 0.930 . S
H452 C429 0.929 . S
H453 C430 0.931 . S
H454 C432 0.930 . S
H455 C433 0.930 . S
Tb456 C458 2.809 . S
Tb456 O476 2.484 . S
Tb456 O477 2.440 . S
Tb456 O478 2.658 . S
Tb456 O479 2.409 . S
Tb456 O480 2.378 . S
Tb456 O484 2.325 . S
Tb456 O487 2.341 . S
Tb457 C467 2.809 . S
Tb457 O478 2.325 . S
Tb457 O481 2.341 . S
Tb457 O482 2.484 . S
Tb457 O483 2.440 . S
Tb457 O484 2.658 . S
Tb457 O485 2.409 . S
Tb457 O486 2.378 . S
C458 Tb456 2.809 . S
C458 C459 1.514 . S
C458 O476 1.248 . S
C458 O477 1.266 . S
C459 C458 1.514 . S
C459 C460 1.359 . S
C459 C464 1.348 . S
C460 C459 1.359 . S
C460 C461 1.380 . S
C460 H488 0.929 . S
C461 C460 1.380 . S
C461 C462 1.347 . S
C461 H489 0.931 . S
C462 C461 1.347 . S
C462 C463 1.369 . S
C463 C462 1.369 . S
C463 C464 1.408 . S
C463 H490 0.930 . S
C464 C459 1.348 . S
C464 C463 1.408 . S
C464 H491 0.930 . S
C465 O478 1.281 . S
C465 O479 1.254 . S
C466 O480 1.236 . S
C466 O481 1.266 . S
C467 Tb457 2.809 . S
C467 C468 1.514 . S
C467 O482 1.248 . S
C467 O483 1.266 . S
C468 C467 1.514 . S
C468 C469 1.359 . S
C468 C473 1.348 . S
C469 C468 1.359 . S
C469 C470 1.380 . S
C469 H492 0.929 . S
C470 C469 1.380 . S
C470 C471 1.347 . S
C470 H493 0.931 . S
C471 C470 1.347 . S
C471 C472 1.369 . S
C472 C471 1.369 . S
C472 C473 1.408 . S
C472 H494 0.930 . S
C473 C468 1.348 . S
C473 C472 1.408 . S
C473 H495 0.930 . S
C474 O484 1.281 . S
C474 O485 1.254 . S
C475 O486 1.236 . S
C475 O487 1.266 . S
O476 Tb456 2.484 . S
O476 C458 1.248 . S
O477 Tb456 2.440 . S
O477 C458 1.266 . S
O478 Tb456 2.658 . S
O478 Tb457 2.325 . S
O478 C465 1.281 . S
O479 Tb456 2.409 . S
O479 C465 1.254 . S
O480 Tb456 2.378 . S
O480 C466 1.236 . S
O481 Tb457 2.341 . S
O481 C466 1.266 . S
O482 Tb457 2.484 . S
O482 C467 1.248 . S
O483 Tb457 2.440 . S
O483 C467 1.266 . S
O484 Tb456 2.325 . S
O484 Tb457 2.658 . S
O484 C474 1.281 . S
O485 Tb457 2.409 . S
O485 C474 1.254 . S
O486 Tb457 2.378 . S
O486 C475 1.236 . S
O487 Tb456 2.341 . S
O487 C475 1.266 . S
H488 C460 0.929 . S
H489 C461 0.931 . S
H490 C463 0.930 . S
H491 C464 0.930 . S
H492 C469 0.929 . S
H493 C470 0.931 . S
H494 C472 0.930 . S
H495 C473 0.930 . S
Tb496 C498 2.809 . S
Tb496 O516 2.484 . S
Tb496 O517 2.440 . S
Tb496 O518 2.658 . S
Tb496 O519 2.409 1_455 S
Tb496 O520 2.378 . S
Tb496 O524 2.325 . S
Tb496 O527 2.341 . S
Tb497 C507 2.809 . S
Tb497 O518 2.325 1_565 S
Tb497 O521 2.341 . S
Tb497 O522 2.484 . S
Tb497 O523 2.440 . S
Tb497 O524 2.658 1_565 S
Tb497 O525 2.409 1_565 S
Tb497 O526 2.378 1_565 S
C498 Tb496 2.809 . S
C498 C499 1.514 . S
C498 O516 1.248 . S
C498 O517 1.266 . S
C499 C498 1.514 . S
C499 C500 1.359 . S
C499 C504 1.348 1_455 S
C500 C499 1.359 . S
C500 C501 1.380 . S
C500 H528 0.929 . S
C501 C500 1.380 . S
C501 C502 1.347 . S
C501 H529 0.931 . S
C502 C501 1.347 . S
C502 C503 1.369 1_455 S
C503 C502 1.369 1_655 S
C503 C504 1.408 . S
C503 H530 0.930 . S
C504 C499 1.348 1_655 S
C504 C503 1.408 . S
C504 H531 0.930 . S
C505 O518 1.281 1_655 S
C505 O519 1.254 . S
C506 O520 1.236 . S
C506 O521 1.266 1_545 S
C507 Tb497 2.809 . S
C507 C508 1.514 . S
C507 O522 1.248 . S
C507 O523 1.266 . S
C508 C507 1.514 . S
C508 C509 1.359 . S
C508 C513 1.348 . S
C509 C508 1.359 . S
C509 C510 1.380 . S
C509 H532 0.929 . S
C510 C509 1.380 . S
C510 C511 1.347 . S
C510 H533 0.931 . S
C511 C510 1.347 . S
C511 C512 1.369 . S
C512 C511 1.369 . S
C512 C513 1.408 . S
C512 H534 0.930 . S
C513 C508 1.348 . S
C513 C512 1.408 . S
C513 H535 0.930 . S
C514 O524 1.281 . S
C514 O525 1.254 . S
C515 O526 1.236 . S
C515 O527 1.266 . S
O516 Tb496 2.484 . S
O516 C498 1.248 . S
O517 Tb496 2.440 . S
O517 C498 1.266 . S
O518 Tb496 2.658 . S
O518 Tb497 2.325 1_545 S
O518 C505 1.281 1_455 S
O519 Tb496 2.409 1_655 S
O519 C505 1.254 . S
O520 Tb496 2.378 . S
O520 C506 1.236 . S
O521 Tb497 2.341 . S
O521 C506 1.266 1_565 S
O522 Tb497 2.484 . S
O522 C507 1.248 . S
O523 Tb497 2.440 . S
O523 C507 1.266 . S
O524 Tb496 2.325 . S
O524 Tb497 2.658 1_545 S
O524 C514 1.281 . S
O525 Tb497 2.409 1_545 S
O525 C514 1.254 . S
O526 Tb497 2.378 1_545 S
O526 C515 1.236 . S
O527 Tb496 2.341 . S
O527 C515 1.266 . S
H528 C500 0.929 . S
H529 C501 0.931 . S
H530 C503 0.930 . S
H531 C504 0.930 . S
H532 C509 0.929 . S
H533 C510 0.931 . S
H534 C512 0.930 . S
H535 C513 0.930 . S
Tb536 C538 2.809 . S
Tb536 O556 2.484 . S
Tb536 O557 2.440 . S
Tb536 O558 2.658 . S
Tb536 O559 2.409 . S
Tb536 O560 2.378 . S
Tb536 O564 2.325 . S
Tb536 O567 2.341 . S
Tb537 C547 2.809 . S
Tb537 O558 2.325 . S
Tb537 O561 2.341 . S
Tb537 O562 2.484 . S
Tb537 O563 2.440 . S
Tb537 O564 2.658 . S
Tb537 O565 2.409 . S
Tb537 O566 2.378 . S
C538 Tb536 2.809 . S
C538 C539 1.514 . S
C538 O556 1.248 . S
C538 O557 1.266 . S
C539 C538 1.514 . S
C539 C540 1.359 . S
C539 C544 1.348 . S
C540 C539 1.359 . S
C540 C541 1.380 . S
C540 H568 0.929 . S
C541 C540 1.380 . S
C541 C542 1.347 . S
C541 H569 0.931 . S
C542 C541 1.347 . S
C542 C543 1.369 . S
C543 C542 1.369 . S
C543 C544 1.408 . S
C543 H570 0.930 . S
C544 C539 1.348 . S
C544 C543 1.408 . S
C544 H571 0.930 . S
C545 O558 1.281 . S
C545 O559 1.254 . S
C546 O560 1.236 . S
C546 O561 1.266 . S
C547 Tb537 2.809 . S
C547 C548 1.514 . S
C547 O562 1.248 . S
C547 O563 1.266 . S
C548 C547 1.514 . S
C548 C549 1.359 . S
C548 C553 1.348 . S
C549 C548 1.359 . S
C549 C550 1.380 . S
C549 H572 0.929 . S
C550 C549 1.380 . S
C550 C551 1.347 . S
C550 H573 0.931 . S
C551 C550 1.347 . S
C551 C552 1.369 . S
C552 C551 1.369 . S
C552 C553 1.408 . S
C552 H574 0.930 . S
C553 C548 1.348 . S
C553 C552 1.408 . S
C553 H575 0.930 . S
C554 O564 1.281 . S
C554 O565 1.254 . S
C555 O566 1.236 . S
C555 O567 1.266 . S
O556 Tb536 2.484 . S
O556 C538 1.248 . S
O557 Tb536 2.440 . S
O557 C538 1.266 . S
O558 Tb536 2.658 . S
O558 Tb537 2.325 . S
O558 C545 1.281 . S
O559 Tb536 2.409 . S
O559 C545 1.254 . S
O560 Tb536 2.378 . S
O560 C546 1.236 . S
O561 Tb537 2.341 . S
O561 C546 1.266 . S
O562 Tb537 2.484 . S
O562 C547 1.248 . S
O563 Tb537 2.440 . S
O563 C547 1.266 . S
O564 Tb536 2.325 . S
O564 Tb537 2.658 . S
O564 C554 1.281 . S
O565 Tb537 2.409 . S
O565 C554 1.254 . S
O566 Tb537 2.378 . S
O566 C555 1.236 . S
O567 Tb536 2.341 . S
O567 C555 1.266 . S
H568 C540 0.929 . S
H569 C541 0.931 . S
H570 C543 0.930 . S
H571 C544 0.930 . S
H572 C549 0.929 . S
H573 C550 0.931 . S
H574 C552 0.930 . S
H575 C553 0.930 . S
Tb576 C578 2.809 . S
Tb576 O596 2.484 1_545 S
Tb576 O597 2.440 . S
Tb576 O598 2.658 . S
Tb576 O599 2.409 . S
Tb576 O600 2.378 . S
Tb576 O604 2.306 1_545 S
Tb576 O607 2.341 1_554 S
Tb577 C587 2.809 . S
Tb577 O598 2.325 . S
Tb577 O601 2.341 . S
Tb577 O602 2.484 . S
Tb577 O603 2.440 . S
Tb577 O604 2.651 1_545 S
Tb577 O605 2.409 1_545 S
Tb577 O606 2.378 . S
C578 Tb576 2.809 . S
C578 C579 1.514 1_545 S
C578 O596 1.248 1_545 S
C578 O597 1.266 . S
C579 C578 1.514 1_565 S
C579 C580 1.359 . S
C579 C584 1.348 1_565 S
C580 C579 1.359 . S
C580 C581 1.380 . S
C580 H608 0.929 . S
C581 C580 1.380 . S
C581 C582 1.347 . S
C581 H609 0.931 . S
C582 C581 1.347 . S
C582 C583 1.369 . S
C583 C582 1.369 . S
C583 C584 1.408 1_565 S
C583 H610 0.930 1_565 S
C584 C579 1.348 1_545 S
C584 C583 1.408 1_545 S
C584 H611 0.930 . S
C585 O598 1.281 . S
C585 O599 1.254 . S
C586 O600 1.236 . S
C586 O601 1.266 . S
C587 Tb577 2.809 . S
C587 C588 1.514 . S
C587 O602 1.248 . S
C587 O603 1.266 . S
C588 C587 1.514 . S
C588 C589 1.359 . S
C588 C593 1.348 . S
C589 C588 1.359 . S
C589 C590 1.380 . S
C589 H612 0.929 . S
C590 C589 1.380 . S
C590 C591 1.347 . S
C590 H613 0.931 . S
C591 C590 1.347 . S
C591 C592 1.369 . S
C592 C591 1.369 . S
C592 C593 1.408 . S
C592 H614 0.930 . S
C593 C588 1.348 . S
C593 C592 1.408 . S
C593 H615 0.930 . S
C594 O604 1.300 . S
C594 O605 1.254 . S
C595 O606 1.258 . S
C595 O607 1.265 1_554 S
O596 Tb576 2.484 1_565 S
O596 C578 1.248 1_565 S
O597 Tb576 2.440 . S
O597 C578 1.266 . S
O598 Tb576 2.658 . S
O598 Tb577 2.325 . S
O598 C585 1.281 . S
O599 Tb576 2.409 . S
O599 C585 1.254 . S
O600 Tb576 2.378 . S
O600 C586 1.236 . S
O601 Tb577 2.341 . S
O601 C586 1.266 . S
O602 Tb577 2.484 . S
O602 C587 1.248 . S
O603 Tb577 2.440 . S
O603 C587 1.266 . S
O604 Tb576 2.306 1_565 S
O604 Tb577 2.651 1_565 S
O604 C594 1.300 . S
O605 Tb577 2.409 1_565 S
O605 C594 1.254 . S
O606 Tb577 2.378 . S
O606 C595 1.258 . S
O607 Tb576 2.341 1_556 S
O607 C595 1.265 1_556 S
H608 C580 0.929 . S
H609 C581 0.931 . S
H610 C583 0.930 1_545 S
H611 C584 0.930 . S
H612 C589 0.929 . S
H613 C590 0.931 . S
H614 C592 0.930 . S
H615 C593 0.930 . S
Tb616 C618 2.809 . S
Tb616 O636 2.484 . S
Tb616 O637 2.440 . S
Tb616 O638 2.658 . S
Tb616 O639 2.409 . S
Tb616 O640 2.378 . S
Tb616 O644 2.325 . S
Tb616 O647 2.341 . S
Tb617 C627 2.809 . S
Tb617 O638 2.325 . S
Tb617 O641 2.341 . S
Tb617 O642 2.484 . S
Tb617 O643 2.440 . S
Tb617 O644 2.658 . S
Tb617 O645 2.409 . S
Tb617 O646 2.378 . S
C618 Tb616 2.809 . S
C618 C619 1.514 . S
C618 O636 1.248 . S
C618 O637 1.266 . S
C619 C618 1.514 . S
C619 C620 1.359 . S
C619 C624 1.348 . S
C620 C619 1.359 . S
C620 C621 1.380 . S
C620 H648 0.929 . S
C621 C620 1.380 . S
C621 C622 1.347 . S
C621 H649 0.931 . S
C622 C621 1.347 . S
C622 C623 1.369 . S
C623 C622 1.369 . S
C623 C624 1.408 . S
C623 H650 0.930 . S
C624 C619 1.348 . S
C624 C623 1.408 . S
C624 H651 0.930 . S
C625 O638 1.281 . S
C625 O639 1.254 . S
C626 O640 1.236 . S
C626 O641 1.266 . S
C627 Tb617 2.809 . S
C627 C628 1.514 . S
C627 O642 1.248 . S
C627 O643 1.266 . S
C628 C627 1.514 . S
C628 C629 1.359 . S
C628 C633 1.348 . S
C629 C628 1.359 . S
C629 C630 1.380 . S
C629 H652 0.929 . S
C630 C629 1.380 . S
C630 C631 1.347 . S
C630 H653 0.931 . S
C631 C630 1.347 . S
C631 C632 1.369 . S
C632 C631 1.369 . S
C632 C633 1.408 . S
C632 H654 0.930 . S
C633 C628 1.348 . S
C633 C632 1.408 . S
C633 H655 0.930 . S
C634 O644 1.281 . S
C634 O645 1.254 . S
C635 O646 1.236 . S
C635 O647 1.266 . S
O636 Tb616 2.484 . S
O636 C618 1.248 . S
O637 Tb616 2.440 . S
O637 C618 1.266 . S
O638 Tb616 2.658 . S
O638 Tb617 2.325 . S
O638 C625 1.281 . S
O639 Tb616 2.409 . S
O639 C625 1.254 . S
O640 Tb616 2.378 . S
O640 C626 1.236 . S
O641 Tb617 2.341 . S
O641 C626 1.266 . S
O642 Tb617 2.484 . S
O642 C627 1.248 . S
O643 Tb617 2.440 . S
O643 C627 1.266 . S
O644 Tb616 2.325 . S
O644 Tb617 2.658 . S
O644 C634 1.281 . S
O645 Tb617 2.409 . S
O645 C634 1.254 . S
O646 Tb617 2.378 . S
O646 C635 1.236 . S
O647 Tb616 2.341 . S
O647 C635 1.266 . S
H648 C620 0.929 . S
H649 C621 0.931 . S
H650 C623 0.930 . S
H651 C624 0.930 . S
H652 C629 0.929 . S
H653 C630 0.931 . S
H654 C632 0.930 . S
H655 C633 0.930 . S
Tb656 C658 2.809 . S
Tb656 O676 2.484 . S
Tb656 O677 2.440 . S
Tb656 O678 2.658 . S
Tb656 O679 2.409 . S
Tb656 O680 2.378 . S
Tb656 O684 2.325 . S
Tb656 O687 2.341 . S
Tb657 C667 2.809 . S
Tb657 O678 2.325 . S
Tb657 O681 2.341 1_554 S
Tb657 O682 2.484 . S
Tb657 O683 2.440 . S
Tb657 O684 2.658 . S
Tb657 O685 2.409 . S
Tb657 O686 2.378 . S
C658 Tb656 2.809 . S
C658 C659 1.514 . S
C658 O676 1.248 . S
C658 O677 1.266 . S
C659 C658 1.514 . S
C659 C660 1.359 1_554 S
C659 C664 1.348 . S
C660 C659 1.359 1_556 S
C660 C661 1.380 . S
C660 H688 0.929 . S
C661 C660 1.380 . S
C661 C662 1.347 . S
C661 H689 0.931 . S
C662 C661 1.347 . S
C662 C663 1.369 . S
C663 C662 1.369 . S
C663 C664 1.408 1_556 S
C663 H690 0.930 . S
C664 C659 1.348 . S
C664 C663 1.408 1_554 S
C664 H691 0.930 . S
C665 O678 1.281 . S
C665 O679 1.254 . S
C666 O680 1.236 1_556 S
C666 O681 1.266 . S
C667 Tb657 2.809 . S
C667 C668 1.514 . S
C667 O682 1.248 . S
C667 O683 1.266 . S
C668 C667 1.514 . S
C668 C669 1.359 . S
C668 C673 1.348 . S
C669 C668 1.359 . S
C669 C670 1.380 . S
C669 H692 0.929 . S
C670 C669 1.380 . S
C670 C671 1.347 . S
C670 H693 0.931 . S
C671 C670 1.347 . S
C671 C672 1.369 . S
C672 C671 1.369 . S
C672 C673 1.408 . S
C672 H694 0.930 . S
C673 C668 1.348 . S
C673 C672 1.408 . S
C673 H695 0.930 . S
C674 O684 1.281 . S
C674 O685 1.254 . S
C675 O686 1.236 . S
C675 O687 1.266 . S
O676 Tb656 2.484 . S
O676 C658 1.248 . S
O677 Tb656 2.440 . S
O677 C658 1.266 . S
O678 Tb656 2.658 . S
O678 Tb657 2.325 . S
O678 C665 1.281 . S
O679 Tb656 2.409 . S
O679 C665 1.254 . S
O680 Tb656 2.378 . S
O680 C666 1.236 1_554 S
O681 Tb657 2.341 1_556 S
O681 C666 1.266 . S
O682 Tb657 2.484 . S
O682 C667 1.248 . S
O683 Tb657 2.440 . S
O683 C667 1.266 . S
O684 Tb656 2.325 . S
O684 Tb657 2.658 . S
O684 C674 1.281 . S
O685 Tb657 2.409 . S
O685 C674 1.254 . S
O686 Tb657 2.378 . S
O686 C675 1.236 . S
O687 Tb656 2.341 . S
O687 C675 1.266 . S
H688 C660 0.929 . S
H689 C661 0.931 . S
H690 C663 0.930 . S
H691 C664 0.930 . S
H692 C669 0.929 . S
H693 C670 0.931 . S
H694 C672 0.930 . S
H695 C673 0.930 . S
Tb696 C698 2.809 . S
Tb696 O716 2.484 . S
Tb696 O717 2.440 . S
Tb696 O718 2.658 . S
Tb696 O719 2.409 . S
Tb696 O720 2.378 . S
Tb696 O724 2.325 . S
Tb696 O727 2.341 . S
Tb697 C707 2.809 . S
Tb697 O718 2.325 . S
Tb697 O721 2.341 . S
Tb697 O722 2.484 . S
Tb697 O723 2.440 . S
Tb697 O724 2.658 . S
Tb697 O725 2.409 . S
Tb697 O726 2.378 . S
C698 Tb696 2.809 . S
C698 C699 1.514 . S
C698 O716 1.248 . S
C698 O717 1.266 . S
C699 C698 1.514 . S
C699 C700 1.359 . S
C699 C704 1.348 . S
C700 C699 1.359 . S
C700 C701 1.380 . S
C700 H728 0.929 . S
C701 C700 1.380 . S
C701 C702 1.347 . S
C701 H729 0.931 . S
C702 C701 1.347 . S
C702 C703 1.369 . S
C703 C702 1.369 . S
C703 C704 1.408 . S
C703 H730 0.930 . S
C704 C699 1.348 . S
C704 C703 1.408 . S
C704 H731 0.930 . S
C705 O718 1.281 . S
C705 O719 1.254 . S
C706 O720 1.236 . S
C706 O721 1.266 . S
C707 Tb697 2.809 . S
C707 C708 1.514 . S
C707 O722 1.248 . S
C707 O723 1.266 . S
C708 C707 1.514 . S
C708 C709 1.359 . S
C708 C713 1.348 . S
C709 C708 1.359 . S
C709 C710 1.380 . S
C709 H732 0.929 . S
C710 C709 1.380 . S
C710 C711 1.347 . S
C710 H733 0.931 . S
C711 C710 1.347 . S
C711 C712 1.369 . S
C712 C711 1.369 . S
C712 C713 1.408 . S
C712 H734 0.930 . S
C713 C708 1.348 . S
C713 C712 1.408 . S
C713 H735 0.930 . S
C714 O724 1.281 . S
C714 O725 1.254 . S
C715 O726 1.236 . S
C715 O727 1.266 . S
O716 Tb696 2.484 . S
O716 C698 1.248 . S
O717 Tb696 2.440 . S
O717 C698 1.266 . S
O718 Tb696 2.658 . S
O718 Tb697 2.325 . S
O718 C705 1.281 . S
O719 Tb696 2.409 . S
O719 C705 1.254 . S
O720 Tb696 2.378 . S
O720 C706 1.236 . S
O721 Tb697 2.341 . S
O721 C706 1.266 . S
O722 Tb697 2.484 . S
O722 C707 1.248 . S
O723 Tb697 2.440 . S
O723 C707 1.266 . S
O724 Tb696 2.325 . S
O724 Tb697 2.658 . S
O724 C714 1.281 . S
O725 Tb697 2.409 . S
O725 C714 1.254 . S
O726 Tb697 2.378 . S
O726 C715 1.236 . S
O727 Tb696 2.341 . S
O727 C715 1.266 . S
H728 C700 0.929 . S
H729 C701 0.931 . S
H730 C703 0.930 . S
H731 C704 0.930 . S
H732 C709 0.929 . S
H733 C710 0.931 . S
H734 C712 0.930 . S
H735 C713 0.930 . S
Tb736 C738 2.809 . S
Tb736 O756 2.484 . S
Tb736 O757 2.440 . S
Tb736 O758 2.658 1_655 S
Tb736 O759 2.409 1_655 S
Tb736 O760 2.378 . S
Tb736 O764 2.325 1_655 S
Tb736 O767 2.341 1_655 S
Tb737 C747 2.809 . S
Tb737 O758 2.325 . S
Tb737 O761 2.341 . S
Tb737 O762 2.484 . S
Tb737 O763 2.440 . S
Tb737 O764 2.658 . S
Tb737 O765 2.409 . S
Tb737 O766 2.378 . S
C738 Tb736 2.809 . S
C738 C739 1.514 . S
C738 O756 1.248 . S
C738 O757 1.266 . S
C739 C738 1.514 . S
C739 C740 1.359 . S
C739 C744 1.348 . S
C740 C739 1.359 . S
C740 C741 1.380 . S
C740 H768 0.929 . S
C741 C740 1.380 . S
C741 C742 1.347 . S
C741 H769 0.931 . S
C742 C741 1.347 . S
C742 C743 1.369 . S
C743 C742 1.369 . S
C743 C744 1.408 . S
C743 H770 0.930 . S
C744 C739 1.348 . S
C744 C743 1.408 . S
C744 H771 0.930 . S
C745 O758 1.281 . S
C745 O759 1.254 . S
C746 O760 1.236 1_455 S
C746 O761 1.266 . S
C747 Tb737 2.809 . S
C747 C748 1.514 . S
C747 O762 1.248 . S
C747 O763 1.266 . S
C748 C747 1.514 . S
C748 C749 1.359 . S
C748 C753 1.348 . S
C749 C748 1.359 . S
C749 C750 1.380 . S
C749 H772 0.929 . S
C750 C749 1.380 . S
C750 C751 1.347 . S
C750 H773 0.931 . S
C751 C750 1.347 . S
C751 C752 1.369 . S
C752 C751 1.369 . S
C752 C753 1.408 . S
C752 H774 0.930 . S
C753 C748 1.348 . S
C753 C752 1.408 . S
C753 H775 0.930 . S
C754 O764 1.281 . S
C754 O765 1.254 . S
C755 O766 1.236 . S
C755 O767 1.266 . S
O756 Tb736 2.484 . S
O756 C738 1.248 . S
O757 Tb736 2.440 . S
O757 C738 1.266 . S
O758 Tb736 2.658 1_455 S
O758 Tb737 2.325 . S
O758 C745 1.281 . S
O759 Tb736 2.409 1_455 S
O759 C745 1.254 . S
O760 Tb736 2.378 . S
O760 C746 1.236 1_655 S
O761 Tb737 2.341 . S
O761 C746 1.266 . S
O762 Tb737 2.484 . S
O762 C747 1.248 . S
O763 Tb737 2.440 . S
O763 C747 1.266 . S
O764 Tb736 2.325 1_455 S
O764 Tb737 2.658 . S
O764 C754 1.281 . S
O765 Tb737 2.409 . S
O765 C754 1.254 . S
O766 Tb737 2.378 . S
O766 C755 1.236 . S
O767 Tb736 2.341 1_455 S
O767 C755 1.266 . S
H768 C740 0.929 . S
H769 C741 0.931 . S
H770 C743 0.930 . S
H771 C744 0.930 . S
H772 C749 0.929 . S
H773 C750 0.931 . S
H774 C752 0.930 . S
H775 C753 0.930 . S
Tb776 C778 2.809 . S
Tb776 O796 2.484 . S
Tb776 O797 2.440 . S
Tb776 O798 2.658 . S
Tb776 O799 2.409 . S
Tb776 O800 2.378 . S
Tb776 O804 2.325 . S
Tb776 O807 2.341 . S
Tb777 C787 2.809 . S
Tb777 O798 2.325 . S
Tb777 O801 2.341 . S
Tb777 O802 2.484 . S
Tb777 O803 2.440 . S
Tb777 O804 2.658 . S
Tb777 O805 2.409 . S
Tb777 O806 2.378 . S
C778 Tb776 2.809 . S
C778 C779 1.514 . S
C778 O796 1.248 . S
C778 O797 1.266 . S
C779 C778 1.514 . S
C779 C780 1.359 . S
C779 C784 1.348 . S
C780 C779 1.359 . S
C780 C781 1.380 . S
C780 H808 0.929 . S
C781 C780 1.380 . S
C781 C782 1.347 . S
C781 H809 0.931 . S
C782 C781 1.347 . S
C782 C783 1.369 . S
C783 C782 1.369 . S
C783 C784 1.408 . S
C783 H810 0.930 . S
C784 C779 1.348 . S
C784 C783 1.408 . S
C784 H811 0.930 . S
C785 O798 1.281 . S
C785 O799 1.254 . S
C786 O800 1.236 . S
C786 O801 1.266 . S
C787 Tb777 2.809 . S
C787 C788 1.514 . S
C787 O802 1.248 . S
C787 O803 1.266 . S
C788 C787 1.514 . S
C788 C789 1.359 . S
C788 C793 1.348 . S
C789 C788 1.359 . S
C789 C790 1.380 . S
C789 H812 0.929 . S
C790 C789 1.380 . S
C790 C791 1.347 . S
C790 H813 0.931 . S
C791 C790 1.347 . S
C791 C792 1.369 . S
C792 C791 1.369 . S
C792 C793 1.408 . S
C792 H814 0.930 . S
C793 C788 1.348 . S
C793 C792 1.408 . S
C793 H815 0.930 . S
C794 O804 1.281 . S
C794 O805 1.254 . S
C795 O806 1.236 . S
C795 O807 1.266 . S
O796 Tb776 2.484 . S
O796 C778 1.248 . S
O797 Tb776 2.440 . S
O797 C778 1.266 . S
O798 Tb776 2.658 . S
O798 Tb777 2.325 . S
O798 C785 1.281 . S
O799 Tb776 2.409 . S
O799 C785 1.254 . S
O800 Tb776 2.378 . S
O800 C786 1.236 . S
O801 Tb777 2.341 . S
O801 C786 1.266 . S
O802 Tb777 2.484 . S
O802 C787 1.248 . S
O803 Tb777 2.440 . S
O803 C787 1.266 . S
O804 Tb776 2.325 . S
O804 Tb777 2.658 . S
O804 C794 1.281 . S
O805 Tb777 2.409 . S
O805 C794 1.254 . S
O806 Tb777 2.378 . S
O806 C795 1.236 . S
O807 Tb776 2.341 . S
O807 C795 1.266 . S
H808 C780 0.929 . S
H809 C781 0.931 . S
H810 C783 0.930 . S
H811 C784 0.930 . S
H812 C789 0.929 . S
H813 C790 0.931 . S
H814 C792 0.930 . S
H815 C793 0.930 . S
Tb816 C818 2.809 . S
Tb816 O836 2.484 . S
Tb816 O837 2.440 . S
Tb816 O838 2.658 . S
Tb816 O839 2.409 . S
Tb816 O840 2.378 . S
Tb816 O844 2.325 . S
Tb816 O847 2.341 . S
Tb817 C827 2.809 . S
Tb817 O838 2.325 . S
Tb817 O841 2.341 . S
Tb817 O842 2.484 . S
Tb817 O843 2.440 . S
Tb817 O844 2.658 . S
Tb817 O845 2.409 . S
Tb817 O846 2.378 . S
C818 Tb816 2.809 . S
C818 C819 1.514 . S
C818 O836 1.248 . S
C818 O837 1.266 . S
C819 C818 1.514 . S
C819 C820 1.359 . S
C819 C824 1.348 . S
C820 C819 1.359 . S
C820 C821 1.380 . S
C820 H848 0.929 . S
C821 C820 1.380 . S
C821 C822 1.347 . S
C821 H849 0.931 . S
C822 C821 1.347 . S
C822 C823 1.369 . S
C823 C822 1.369 . S
C823 C824 1.408 . S
C823 H850 0.930 . S
C824 C819 1.348 . S
C824 C823 1.408 . S
C824 H851 0.930 . S
C825 O838 1.281 . S
C825 O839 1.254 . S
C826 O840 1.236 . S
C826 O841 1.266 . S
C827 Tb817 2.809 . S
C827 C828 1.514 . S
C827 O842 1.248 . S
C827 O843 1.266 . S
C828 C827 1.514 . S
C828 C829 1.359 . S
C828 C833 1.348 . S
C829 C828 1.359 . S
C829 C830 1.380 . S
C829 H852 0.929 . S
C830 C829 1.380 . S
C830 C831 1.347 . S
C830 H853 0.931 . S
C831 C830 1.347 . S
C831 C832 1.369 . S
C832 C831 1.369 . S
C832 C833 1.408 . S
C832 H854 0.930 . S
C833 C828 1.348 . S
C833 C832 1.408 . S
C833 H855 0.930 . S
C834 O844 1.281 . S
C834 O845 1.254 . S
C835 O846 1.236 . S
C835 O847 1.266 . S
O836 Tb816 2.484 . S
O836 C818 1.248 . S
O837 Tb816 2.440 . S
O837 C818 1.266 . S
O838 Tb816 2.658 . S
O838 Tb817 2.325 . S
O838 C825 1.281 . S
O839 Tb816 2.409 . S
O839 C825 1.254 . S
O840 Tb816 2.378 . S
O840 C826 1.236 . S
O841 Tb817 2.341 . S
O841 C826 1.266 . S
O842 Tb817 2.484 . S
O842 C827 1.248 . S
O843 Tb817 2.440 . S
O843 C827 1.266 . S
O844 Tb816 2.325 . S
O844 Tb817 2.658 . S
O844 C834 1.281 . S
O845 Tb817 2.409 . S
O845 C834 1.254 . S
O846 Tb817 2.378 . S
O846 C835 1.236 . S
O847 Tb816 2.341 . S
O847 C835 1.266 . S
H848 C820 0.929 . S
H849 C821 0.931 . S
H850 C823 0.930 . S
H851 C824 0.930 . S
H852 C829 0.929 . S
H853 C830 0.931 . S
H854 C832 0.930 . S
H855 C833 0.930 . S
Tb856 C858 2.809 . S
Tb856 O876 2.484 . S
Tb856 O877 2.440 . S
Tb856 O878 2.658 . S
Tb856 O879 2.409 . S
Tb856 O880 2.378 . S
Tb856 O884 2.325 . S
Tb856 O887 2.341 . S
Tb857 C867 2.809 . S
Tb857 O878 2.325 . S
Tb857 O881 2.341 . S
Tb857 O882 2.484 . S
Tb857 O883 2.440 . S
Tb857 O884 2.658 . S
Tb857 O885 2.409 . S
Tb857 O886 2.378 . S
C858 Tb856 2.809 . S
C858 C859 1.514 . S
C858 O876 1.248 . S
C858 O877 1.266 . S
C859 C858 1.514 . S
C859 C860 1.359 . S
C859 C864 1.348 . S
C860 C859 1.359 . S
C860 C861 1.380 . S
C860 H888 0.929 . S
C861 C860 1.380 . S
C861 C862 1.347 . S
C861 H889 0.931 . S
C862 C861 1.347 . S
C862 C863 1.369 . S
C863 C862 1.369 . S
C863 C864 1.408 . S
C863 H890 0.930 . S
C864 C859 1.348 . S
C864 C863 1.408 . S
C864 H891 0.930 . S
C865 O878 1.281 . S
C865 O879 1.254 . S
C866 O880 1.236 . S
C866 O881 1.266 . S
C867 Tb857 2.809 . S
C867 C868 1.514 . S
C867 O882 1.248 . S
C867 O883 1.266 . S
C868 C867 1.514 . S
C868 C869 1.359 . S
C868 C873 1.348 . S
C869 C868 1.359 . S
C869 C870 1.380 . S
C869 H892 0.929 . S
C870 C869 1.380 . S
C870 C871 1.347 . S
C870 H893 0.931 . S
C871 C870 1.347 . S
C871 C872 1.369 . S
C872 C871 1.369 . S
C872 C873 1.408 . S
C872 H894 0.930 . S
C873 C868 1.348 . S
C873 C872 1.408 . S
C873 H895 0.930 . S
C874 O884 1.281 . S
C874 O885 1.254 . S
C875 O886 1.236 . S
C875 O887 1.266 . S
O876 Tb856 2.484 . S
O876 C858 1.248 . S
O877 Tb856 2.440 . S
O877 C858 1.266 . S
O878 Tb856 2.658 . S
O878 Tb857 2.325 . S
O878 C865 1.281 . S
O879 Tb856 2.409 . S
O879 C865 1.254 . S
O880 Tb856 2.378 . S
O880 C866 1.236 . S
O881 Tb857 2.341 . S
O881 C866 1.266 . S
O882 Tb857 2.484 . S
O882 C867 1.248 . S
O883 Tb857 2.440 . S
O883 C867 1.266 . S
O884 Tb856 2.325 . S
O884 Tb857 2.658 . S
O884 C874 1.281 . S
O885 Tb857 2.409 . S
O885 C874 1.254 . S
O886 Tb857 2.378 . S
O886 C875 1.236 . S
O887 Tb856 2.341 . S
O887 C875 1.266 . S
H888 C860 0.929 . S
H889 C861 0.931 . S
H890 C863 0.930 . S
H891 C864 0.930 . S
H892 C869 0.929 . S
H893 C870 0.931 . S
H894 C872 0.930 . S
H895 C873 0.930 . S
Tb896 C898 2.809 . S
Tb896 O916 2.484 . S
Tb896 O917 2.440 . S
Tb896 O918 2.658 . S
Tb896 O919 2.409 . S
Tb896 O920 2.378 . S
Tb896 O924 2.325 . S
Tb896 O927 2.341 . S
Tb897 C907 2.809 . S
Tb897 O918 2.325 . S
Tb897 O921 2.341 . S
Tb897 O922 2.484 . S
Tb897 O923 2.440 . S
Tb897 O924 2.658 . S
Tb897 O925 2.409 . S
Tb897 O926 2.378 . S
C898 Tb896 2.809 . S
C898 C899 1.514 . S
C898 O916 1.248 . S
C898 O917 1.266 . S
C899 C898 1.514 . S
C899 C900 1.359 . S
C899 C904 1.348 . S
C900 C899 1.359 . S
C900 C901 1.380 . S
C900 H928 0.929 . S
C901 C900 1.380 . S
C901 C902 1.347 . S
C901 H929 0.931 . S
C902 C901 1.347 . S
C902 C903 1.369 . S
C903 C902 1.369 . S
C903 C904 1.408 . S
C903 H930 0.930 . S
C904 C899 1.348 . S
C904 C903 1.408 . S
C904 H931 0.930 . S
C905 O918 1.281 . S
C905 O919 1.254 . S
C906 O920 1.236 . S
C906 O921 1.266 . S
C907 Tb897 2.809 . S
C907 C908 1.514 . S
C907 O922 1.248 . S
C907 O923 1.266 . S
C908 C907 1.514 . S
C908 C909 1.359 . S
C908 C913 1.348 . S
C909 C908 1.359 . S
C909 C910 1.380 . S
C909 H932 0.929 . S
C910 C909 1.380 . S
C910 C911 1.347 . S
C910 H933 0.931 . S
C911 C910 1.347 . S
C911 C912 1.369 . S
C912 C911 1.369 . S
C912 C913 1.408 . S
C912 H934 0.930 . S
C913 C908 1.348 . S
C913 C912 1.408 . S
C913 H935 0.930 . S
C914 O924 1.281 . S
C914 O925 1.254 . S
C915 O926 1.236 . S
C915 O927 1.266 . S
O916 Tb896 2.484 . S
O916 C898 1.248 . S
O917 Tb896 2.440 . S
O917 C898 1.266 . S
O918 Tb896 2.658 . S
O918 Tb897 2.325 . S
O918 C905 1.281 . S
O919 Tb896 2.409 . S
O919 C905 1.254 . S
O920 Tb896 2.378 . S
O920 C906 1.236 . S
O921 Tb897 2.341 . S
O921 C906 1.266 . S
O922 Tb897 2.484 . S
O922 C907 1.248 . S
O923 Tb897 2.440 . S
O923 C907 1.266 . S
O924 Tb896 2.325 . S
O924 Tb897 2.658 . S
O924 C914 1.281 . S
O925 Tb897 2.409 . S
O925 C914 1.254 . S
O926 Tb897 2.378 . S
O926 C915 1.236 . S
O927 Tb896 2.341 . S
O927 C915 1.266 . S
H928 C900 0.929 . S
H929 C901 0.931 . S
H930 C903 0.930 . S
H931 C904 0.930 . S
H932 C909 0.929 . S
H933 C910 0.931 . S
H934 C912 0.930 . S
H935 C913 0.930 . S
Tb936 C938 2.809 . S
Tb936 O956 2.484 . S
Tb936 O957 2.440 . S
Tb936 O958 2.658 . S
Tb936 O959 2.409 1_554 S
Tb936 O960 2.378 . S
Tb936 O964 2.325 . S
Tb936 O967 2.341 . S
Tb937 C947 2.803 1_455 S
Tb937 O958 2.328 . S
Tb937 O961 2.345 . S
Tb937 O962 2.480 1_455 S
Tb937 O963 2.435 1_455 S
Tb937 O964 2.665 . S
Tb937 O965 2.411 . S
Tb937 O966 2.380 . S
C938 Tb936 2.809 . S
C938 C939 1.514 . S
C938 O956 1.248 . S
C938 O957 1.266 . S
C939 C938 1.514 . S
C939 C940 1.359 . S
C939 C944 1.348 . S
C940 C939 1.359 . S
C940 C941 1.380 . S
C940 H968 0.929 . S
C941 C940 1.380 . S
C941 C942 1.347 . S
C941 H969 0.931 . S
C942 C941 1.347 . S
C942 C943 1.369 1_554 S
C943 C942 1.369 1_556 S
C943 C944 1.408 1_556 S
C943 H970 0.930 . S
C944 C939 1.348 . S
C944 C943 1.408 1_554 S
C944 H971 0.930 1_554 S
C945 O958 1.238 1_556 S
C945 O959 1.269 . S
C946 O960 1.236 . S
C946 O961 1.266 . S
C947 Tb937 2.803 1_655 S
C947 C948 1.514 . S
C947 O962 1.248 . S
C947 O963 1.266 . S
C948 C947 1.514 . S
C948 C949 1.359 . S
C948 C953 1.348 . S
C949 C948 1.359 . S
C949 C950 1.380 . S
C949 H972 0.929 . S
C950 C949 1.380 . S
C950 C951 1.347 . S
C950 H973 0.931 . S
C951 C950 1.347 . S
C951 C952 1.369 . S
C952 C951 1.369 . S
C952 C953 1.408 . S
C952 H974 0.930 . S
C953 C948 1.348 . S
C953 C952 1.408 . S
C953 H975 0.930 . S
C954 O964 1.281 . S
C954 O965 1.254 . S
C955 O966 1.236 . S
C955 O967 1.266 . S
O956 Tb936 2.484 . S
O956 C938 1.248 . S
O957 Tb936 2.440 . S
O957 C938 1.266 . S
O958 Tb936 2.658 . S
O958 Tb937 2.328 . S
O958 C945 1.238 1_554 S
O959 Tb936 2.409 1_556 S
O959 C945 1.269 . S
O960 Tb936 2.378 . S
O960 C946 1.236 . S
O961 Tb937 2.345 . S
O961 C946 1.266 . S
O962 Tb937 2.480 1_655 S
O962 C947 1.248 . S
O963 Tb937 2.435 1_655 S
O963 C947 1.266 . S
O964 Tb936 2.325 . S
O964 Tb937 2.665 . S
O964 C954 1.281 . S
O965 Tb937 2.411 . S
O965 C954 1.254 . S
O966 Tb937 2.380 . S
O966 C955 1.236 . S
O967 Tb936 2.341 . S
O967 C955 1.266 . S
H968 C940 0.929 . S
H969 C941 0.931 . S
H970 C943 0.930 . S
H971 C944 0.930 1_556 S
H972 C949 0.929 . S
H973 C950 0.931 . S
H974 C952 0.930 . S
H975 C953 0.930 . S
H976 C984 0.950 . S
H977 C989 0.950 . S
H978 C986 0.950 . S
H979 C988 0.950 . S
H980 C990 0.943 1_655 S
H981 C992 0.950 1_655 S
H982 C994 0.950 . S
H983 C995 0.950 . S
C984 H976 0.950 . S
C984 C985 1.386 . S
C984 C986 1.391 1_556 S
C985 C984 1.386 . S
C985 C989 1.393 1_455 S
C986 H978 0.950 . S
C986 C984 1.391 1_554 S
C986 C987 1.400 . S
C987 C986 1.400 . S
C987 C988 1.398 1_454 S
C987 C993 1.491 . S
C988 H979 0.950 . S
C988 C987 1.398 1_656 S
C988 C989 1.391 . S
C989 H977 0.950 . S
C989 C985 1.393 1_655 S
C989 C988 1.391 . S
C990 H980 0.943 1_455 S
C990 C991 1.386 . S
C990 C992 1.391 . S
C991 C990 1.386 . S
C991 C995 1.393 . S
C992 H981 0.950 1_455 S
C992 C990 1.391 . S
C992 C993 1.400 . S
C993 C987 1.491 . S
C993 C992 1.400 . S
C993 C994 1.398 . S
C994 H982 0.950 . S
C994 C993 1.398 . S
C994 C995 1.391 . S
C995 H983 0.950 . S
C995 C991 1.393 . S
C995 C994 1.391 . S
H996 C1004 0.950 . S
H997 C1009 0.950 . S
H998 C1006 0.950 . S
H999 C1008 0.950 . S
H1000 C1010 0.950 . S
H1001 C1012 0.950 . S
H1002 C1014 0.950 . S
H1003 C1015 0.950 . S
C1004 H996 0.950 . S
C1004 C1005 1.386 . S
C1004 C1006 1.391 . S
C1005 C1004 1.386 . S
C1005 C1009 1.393 . S
C1006 H998 0.950 . S
C1006 C1004 1.391 . S
C1006 C1007 1.400 . S
C1007 C1006 1.400 . S
C1007 C1008 1.398 . S
C1007 C1013 1.491 . S
C1008 H999 0.950 . S
C1008 C1007 1.398 . S
C1008 C1009 1.391 . S
C1009 H997 0.950 . S
C1009 C1005 1.393 . S
C1009 C1008 1.391 . S
C1010 H1000 0.950 . S
C1010 C1011 1.386 . S
C1010 C1012 1.391 . S
C1011 C1010 1.386 . S
C1011 C1015 1.393 . S
C1012 H1001 0.950 . S
C1012 C1010 1.391 . S
C1012 C1013 1.400 . S
C1013 C1007 1.491 . S
C1013 C1012 1.400 . S
C1013 C1014 1.398 . S
C1014 H1002 0.950 . S
C1014 C1013 1.398 . S
C1014 C1015 1.391 . S
C1015 H1003 0.950 . S
C1015 C1011 1.393 . S
C1015 C1014 1.391 . S
H1016 C1024 0.950 . S
H1017 C1029 0.950 . S
H1018 C1026 0.950 . S
H1019 C1028 0.950 . S
H1020 C1030 0.950 . S
H1021 C1032 0.950 . S
H1022 C1034 0.950 . S
H1023 C1035 0.950 . S
C1024 H1016 0.950 . S
C1024 C1025 1.386 . S
C1024 C1026 1.391 . S
C1025 C1024 1.386 . S
C1025 C1029 1.393 . S
C1026 H1018 0.950 . S
C1026 C1024 1.391 . S
C1026 C1027 1.400 . S
C1027 C1026 1.400 . S
C1027 C1028 1.398 . S
C1027 C1033 1.491 . S
C1028 H1019 0.950 . S
C1028 C1027 1.398 . S
C1028 C1029 1.391 . S
C1029 H1017 0.950 . S
C1029 C1025 1.393 . S
C1029 C1028 1.391 . S
C1030 H1020 0.950 . S
C1030 C1031 1.386 . S
C1030 C1032 1.391 . S
C1031 C1030 1.386 . S
C1031 C1035 1.393 . S
C1032 H1021 0.950 . S
C1032 C1030 1.391 . S
C1032 C1033 1.400 . S
C1033 C1027 1.491 . S
C1033 C1032 1.400 . S
C1033 C1034 1.398 . S
C1034 H1022 0.950 . S
C1034 C1033 1.398 . S
C1034 C1035 1.391 . S
C1035 H1023 0.950 . S
C1035 C1031 1.393 . S
C1035 C1034 1.391 . S
H1036 C1044 0.950 . S
H1037 C1049 0.950 . S
H1038 C1046 0.950 . S
H1039 C1048 0.950 . S
H1040 C1050 0.950 . S
H1041 C1052 0.950 . S
H1042 C1054 0.950 . S
H1043 C1055 0.950 . S
C1044 H1036 0.950 . S
C1044 C1045 1.386 . S
C1044 C1046 1.391 . S
C1045 C1044 1.386 . S
C1045 C1049 1.393 . S
C1046 H1038 0.950 . S
C1046 C1044 1.391 . S
C1046 C1047 1.400 . S
C1047 C1046 1.400 . S
C1047 C1048 1.398 . S
C1047 C1053 1.491 . S
C1048 H1039 0.950 . S
C1048 C1047 1.398 . S
C1048 C1049 1.391 . S
C1049 H1037 0.950 . S
C1049 C1045 1.393 . S
C1049 C1048 1.391 . S
C1050 H1040 0.950 . S
C1050 C1051 1.386 . S
C1050 C1052 1.391 . S
C1051 C1050 1.386 . S
C1051 C1055 1.393 . S
C1052 H1041 0.950 . S
C1052 C1050 1.391 . S
C1052 C1053 1.400 . S
C1053 C1047 1.491 . S
C1053 C1052 1.400 . S
C1053 C1054 1.398 . S
C1054 H1042 0.950 . S
C1054 C1053 1.398 . S
C1054 C1055 1.391 . S
C1055 H1043 0.950 . S
C1055 C1051 1.393 . S
C1055 C1054 1.391 . S
H1056 C1064 0.950 . S
H1057 C1069 0.950 . S
H1058 C1066 0.950 . S
H1059 C1068 0.950 . S
H1060 C1070 0.950 . S
H1061 C1072 0.950 . S
H1062 C1074 0.950 . S
H1063 C1075 0.950 . S
C1064 H1056 0.950 . S
C1064 C1065 1.386 . S
C1064 C1066 1.391 . S
C1065 C1064 1.386 . S
C1065 C1069 1.393 . S
C1066 H1058 0.950 . S
C1066 C1064 1.391 . S
C1066 C1067 1.400 . S
C1067 C1066 1.400 . S
C1067 C1068 1.398 . S
C1067 C1073 1.491 . S
C1068 H1059 0.950 . S
C1068 C1067 1.398 . S
C1068 C1069 1.391 . S
C1069 H1057 0.950 . S
C1069 C1065 1.393 . S
C1069 C1068 1.391 . S
C1070 H1060 0.950 . S
C1070 C1071 1.386 . S
C1070 C1072 1.391 . S
C1071 C1070 1.386 . S
C1071 C1075 1.393 . S
C1072 H1061 0.950 . S
C1072 C1070 1.391 . S
C1072 C1073 1.400 . S
C1073 C1067 1.491 . S
C1073 C1072 1.400 . S
C1073 C1074 1.398 . S
C1074 H1062 0.950 . S
C1074 C1073 1.398 . S
C1074 C1075 1.391 . S
C1075 H1063 0.950 . S
C1075 C1071 1.393 . S
C1075 C1074 1.391 . S
H1076 C1084 0.950 . S
H1077 C1089 0.950 . S
H1078 C1086 0.950 . S
H1079 C1088 0.950 . S
H1080 C1090 0.950 . S
H1081 C1092 0.950 . S
H1082 C1094 0.950 . S
H1083 C1095 0.950 . S
C1084 H1076 0.950 . S
C1084 C1085 1.386 . S
C1084 C1086 1.391 . S
C1085 C1084 1.386 . S
C1085 C1089 1.393 . S
C1086 H1078 0.950 . S
C1086 C1084 1.391 . S
C1086 C1087 1.400 . S
C1087 C1086 1.400 . S
C1087 C1088 1.398 . S
C1087 C1093 1.491 . S
C1088 H1079 0.950 . S
C1088 C1087 1.398 . S
C1088 C1089 1.391 . S
C1089 H1077 0.950 . S
C1089 C1085 1.393 . S
C1089 C1088 1.391 . S
C1090 H1080 0.950 . S
C1090 C1091 1.386 . S
C1090 C1092 1.391 . S
C1091 C1090 1.386 . S
C1091 C1095 1.393 . S
C1092 H1081 0.950 . S
C1092 C1090 1.391 . S
C1092 C1093 1.400 . S
C1093 C1087 1.491 . S
C1093 C1092 1.400 . S
C1093 C1094 1.398 . S
C1094 H1082 0.950 . S
C1094 C1093 1.398 . S
C1094 C1095 1.391 . S
C1095 H1083 0.950 . S
C1095 C1091 1.393 . S
C1095 C1094 1.391 . S
H1096 C1104 0.950 . S
H1097 C1109 0.950 . S
H1098 C1106 0.950 . S
H1099 C1108 0.950 . S
H1100 C1110 0.950 . S
H1101 C1112 0.950 . S
H1102 C1114 0.950 . S
H1103 C1115 0.950 . S
C1104 H1096 0.950 . S
C1104 C1105 1.386 . S
C1104 C1106 1.391 . S
C1105 C1104 1.386 . S
C1105 C1109 1.393 . S
C1106 H1098 0.950 . S
C1106 C1104 1.391 . S
C1106 C1107 1.400 . S
C1107 C1106 1.400 . S
C1107 C1108 1.398 . S
C1107 C1113 1.491 . S
C1108 H1099 0.950 . S
C1108 C1107 1.398 . S
C1108 C1109 1.391 . S
C1109 H1097 0.950 . S
C1109 C1105 1.393 . S
C1109 C1108 1.391 . S
C1110 H1100 0.950 . S
C1110 C1111 1.386 . S
C1110 C1112 1.391 . S
C1111 C1110 1.386 . S
C1111 C1115 1.393 . S
C1112 H1101 0.950 . S
C1112 C1110 1.391 . S
C1112 C1113 1.400 . S
C1113 C1107 1.491 . S
C1113 C1112 1.400 . S
C1113 C1114 1.398 . S
C1114 H1102 0.950 . S
C1114 C1113 1.398 . S
C1114 C1115 1.391 . S
C1115 H1103 0.950 . S
C1115 C1111 1.393 . S
C1115 C1114 1.391 . S
H1116 C1124 0.950 . S
H1117 C1129 0.950 . S
H1118 C1126 0.950 . S
H1119 C1128 0.950 . S
H1120 C1130 0.950 . S
H1121 C1132 0.950 . S
H1122 C1134 0.950 . S
H1123 C1135 0.950 . S
C1124 H1116 0.950 . S
C1124 C1125 1.386 . S
C1124 C1126 1.391 . S
C1125 C1124 1.386 . S
C1125 C1129 1.393 . S
C1126 H1118 0.950 . S
C1126 C1124 1.391 . S
C1126 C1127 1.400 . S
C1127 C1126 1.400 . S
C1127 C1128 1.398 . S
C1127 C1133 1.491 . S
C1128 H1119 0.950 . S
C1128 C1127 1.398 . S
C1128 C1129 1.391 . S
C1129 H1117 0.950 . S
C1129 C1125 1.393 . S
C1129 C1128 1.391 . S
C1130 H1120 0.950 . S
C1130 C1131 1.386 . S
C1130 C1132 1.391 . S
C1131 C1130 1.386 . S
C1131 C1135 1.393 . S
C1132 H1121 0.950 . S
C1132 C1130 1.391 . S
C1132 C1133 1.400 . S
C1133 C1127 1.491 . S
C1133 C1132 1.400 . S
C1133 C1134 1.398 . S
C1134 H1122 0.950 . S
C1134 C1133 1.398 . S
C1134 C1135 1.391 . S
C1135 H1123 0.950 . S
C1135 C1131 1.393 . S
C1135 C1134 1.391 . S
H1136 C1144 0.950 . S
H1137 C1149 0.950 . S
H1138 C1146 0.950 . S
H1139 C1148 0.950 . S
H1140 C1150 0.950 1_565 S
H1141 C1152 0.950 . S
H1142 C1154 0.950 1_655 S
H1143 C1155 0.950 . S
C1144 H1136 0.950 . S
C1144 C1145 1.386 . S
C1144 C1146 1.391 . S
C1145 C1144 1.386 . S
C1145 C1149 1.393 1_545 S
C1146 H1138 0.950 . S
C1146 C1144 1.391 . S
C1146 C1147 1.400 . S
C1147 C1146 1.400 . S
C1147 C1148 1.398 1_545 S
C1147 C1153 1.519 . S
C1148 H1139 0.950 . S
C1148 C1147 1.398 1_565 S
C1148 C1149 1.391 . S
C1149 H1137 0.950 . S
C1149 C1145 1.393 1_565 S
C1149 C1148 1.391 . S
C1150 H1140 0.950 1_545 S
C1150 C1151 1.386 . S
C1150 C1152 1.391 1_545 S
C1151 C1150 1.386 . S
C1151 C1155 1.393 . S
C1152 H1141 0.950 . S
C1152 C1150 1.391 1_565 S
C1152 C1153 1.373 1_465 S
C1153 C1147 1.519 . S
C1153 C1152 1.373 1_645 S
C1153 C1154 1.399 1_655 S
C1154 H1142 0.950 1_455 S
C1154 C1153 1.399 1_455 S
C1154 C1155 1.391 . S
C1155 H1143 0.950 . S
C1155 C1151 1.393 . S
C1155 C1154 1.391 . S
H1156 C1164 0.950 . S
H1157 C1169 0.950 . S
H1158 C1166 0.950 . S
H1159 C1168 0.950 . S
H1160 C1170 0.950 . S
H1161 C1172 0.950 . S
H1162 C1174 0.950 . S
H1163 C1175 0.950 . S
C1164 H1156 0.950 . S
C1164 C1165 1.386 . S
C1164 C1166 1.391 . S
C1165 C1164 1.386 . S
C1165 C1169 1.393 . S
C1166 H1158 0.950 . S
C1166 C1164 1.391 . S
C1166 C1167 1.400 . S
C1167 C1166 1.400 . S
C1167 C1168 1.398 . S
C1167 C1173 1.491 . S
C1168 H1159 0.950 . S
C1168 C1167 1.398 . S
C1168 C1169 1.391 . S
C1169 H1157 0.950 . S
C1169 C1165 1.393 . S
C1169 C1168 1.391 . S
C1170 H1160 0.950 . S
C1170 C1171 1.386 . S
C1170 C1172 1.391 . S
C1171 C1170 1.386 . S
C1171 C1175 1.393 . S
C1172 H1161 0.950 . S
C1172 C1170 1.391 . S
C1172 C1173 1.400 . S
C1173 C1167 1.491 . S
C1173 C1172 1.400 . S
C1173 C1174 1.398 . S
C1174 H1162 0.950 . S
C1174 C1173 1.398 . S
C1174 C1175 1.391 . S
C1175 H1163 0.950 . S
C1175 C1171 1.393 . S
C1175 C1174 1.391 . S
H1176 C1184 0.950 . S
H1177 C1189 0.950 . S
H1178 C1186 0.950 . S
H1179 C1188 0.950 . S
H1180 C1190 0.950 . S
H1181 C1192 0.950 . S
H1182 C1194 0.950 . S
H1183 C1195 0.950 . S
C1184 H1176 0.950 . S
C1184 C1185 1.386 . S
C1184 C1186 1.391 . S
C1185 C1184 1.386 . S
C1185 C1189 1.393 . S
C1186 H1178 0.950 . S
C1186 C1184 1.391 . S
C1186 C1187 1.400 . S
C1187 C1186 1.400 . S
C1187 C1188 1.398 . S
C1187 C1193 1.491 . S
C1188 H1179 0.950 . S
C1188 C1187 1.398 . S
C1188 C1189 1.391 . S
C1189 H1177 0.950 . S
C1189 C1185 1.393 . S
C1189 C1188 1.391 . S
C1190 H1180 0.950 . S
C1190 C1191 1.386 . S
C1190 C1192 1.391 . S
C1191 C1190 1.386 . S
C1191 C1195 1.393 . S
C1192 H1181 0.950 . S
C1192 C1190 1.391 . S
C1192 C1193 1.400 . S
C1193 C1187 1.491 . S
C1193 C1192 1.400 . S
C1193 C1194 1.398 . S
C1194 H1182 0.950 . S
C1194 C1193 1.398 . S
C1194 C1195 1.391 . S
C1195 H1183 0.950 . S
C1195 C1191 1.393 . S
C1195 C1194 1.391 . S
H1196 C1204 0.950 . S
H1197 C1209 0.950 . S
H1198 C1206 0.950 . S
H1199 C1208 0.950 . S
H1200 C1210 0.950 . S
H1201 C1212 0.950 . S
H1202 C1214 0.950 . S
H1203 C1215 0.950 . S
C1204 H1196 0.950 . S
C1204 C1205 1.386 . S
C1204 C1206 1.391 . S
C1205 C1204 1.386 . S
C1205 C1209 1.393 . S
C1206 H1198 0.950 . S
C1206 C1204 1.391 . S
C1206 C1207 1.400 . S
C1207 C1206 1.400 . S
C1207 C1208 1.398 . S
C1207 C1213 1.491 . S
C1208 H1199 0.950 . S
C1208 C1207 1.398 . S
C1208 C1209 1.391 . S
C1209 H1197 0.950 . S
C1209 C1205 1.393 . S
C1209 C1208 1.391 . S
C1210 H1200 0.950 . S
C1210 C1211 1.386 . S
C1210 C1212 1.391 . S
C1211 C1210 1.386 . S
C1211 C1215 1.393 . S
C1212 H1201 0.950 . S
C1212 C1210 1.391 . S
C1212 C1213 1.400 . S
C1213 C1207 1.491 . S
C1213 C1212 1.400 . S
C1213 C1214 1.398 . S
C1214 H1202 0.950 . S
C1214 C1213 1.398 . S
C1214 C1215 1.391 . S
C1215 H1203 0.950 . S
C1215 C1211 1.393 . S
C1215 C1214 1.391 . S
H1216 C1224 0.950 . S
H1217 C1229 0.922 1_455 S
H1218 C1226 0.950 . S
H1219 C1228 0.940 1_455 S
H1220 C1230 0.950 . S
H1221 C1232 0.950 . S
H1222 C1234 0.950 . S
H1223 C1235 0.950 . S
C1224 H1216 0.950 . S
C1224 C1225 1.386 . S
C1224 C1226 1.391 . S
C1225 C1224 1.386 . S
C1225 C1229 1.393 . S
C1226 H1218 0.950 . S
C1226 C1224 1.391 . S
C1226 C1227 1.400 . S
C1227 C1226 1.400 . S
C1227 C1228 1.406 . S
C1227 C1233 1.491 . S
C1228 H1219 0.940 1_655 S
C1228 C1227 1.406 . S
C1228 C1229 1.393 . S
C1229 H1217 0.922 1_655 S
C1229 C1225 1.393 . S
C1229 C1228 1.393 . S
C1230 H1220 0.950 . S
C1230 C1231 1.386 . S
C1230 C1232 1.391 . S
C1231 C1230 1.386 . S
C1231 C1235 1.393 1_455 S
C1232 H1221 0.950 . S
C1232 C1230 1.391 . S
C1232 C1233 1.400 1_455 S
C1233 C1227 1.491 . S
C1233 C1232 1.400 1_655 S
C1233 C1234 1.398 . S
C1234 H1222 0.950 . S
C1234 C1233 1.398 . S
C1234 C1235 1.391 . S
C1235 H1223 0.950 . S
C1235 C1231 1.393 1_655 S
C1235 C1234 1.391 . S
H1236 C1244 0.950 . S
H1237 C1249 0.950 . S
H1238 C1246 0.950 . S
H1239 C1248 0.950 . S
H1240 C1250 0.950 . S
H1241 C1252 0.950 . S
H1242 C1254 0.950 . S
H1243 C1255 0.950 . S
C1244 H1236 0.950 . S
C1244 C1245 1.386 . S
C1244 C1246 1.391 . S
C1245 C1244 1.386 . S
C1245 C1249 1.393 . S
C1246 H1238 0.950 . S
C1246 C1244 1.391 . S
C1246 C1247 1.400 . S
C1247 C1246 1.400 . S
C1247 C1248 1.398 . S
C1247 C1253 1.491 . S
C1248 H1239 0.950 . S
C1248 C1247 1.398 . S
C1248 C1249 1.391 . S
C1249 H1237 0.950 . S
C1249 C1245 1.393 . S
C1249 C1248 1.391 . S
C1250 H1240 0.950 . S
C1250 C1251 1.386 . S
C1250 C1252 1.391 . S
C1251 C1250 1.386 . S
C1251 C1255 1.393 . S
C1252 H1241 0.950 . S
C1252 C1250 1.391 . S
C1252 C1253 1.400 . S
C1253 C1247 1.491 . S
C1253 C1252 1.400 . S
C1253 C1254 1.398 . S
C1254 H1242 0.950 . S
C1254 C1253 1.398 . S
C1254 C1255 1.391 . S
C1255 H1243 0.950 . S
C1255 C1251 1.393 . S
C1255 C1254 1.391 . S
H1256 C1264 0.950 . S
H1257 C1269 0.950 1_565 S
H1258 C1266 0.950 . S
H1259 C1268 0.950 . S
H1260 C1270 0.950 . S
H1261 C1272 0.950 . S
H1262 C1274 0.950 . S
H1263 C1275 0.950 . S
C1264 H1256 0.950 . S
C1264 C1265 1.386 . S
C1264 C1266 1.391 . S
C1265 C1264 1.386 . S
C1265 C1269 1.393 . S
C1266 H1258 0.950 . S
C1266 C1264 1.391 . S
C1266 C1267 1.400 . S
C1267 C1266 1.400 . S
C1267 C1268 1.398 . S
C1267 C1273 1.491 . S
C1268 H1259 0.950 . S
C1268 C1267 1.398 . S
C1268 C1269 1.391 . S
C1269 H1257 0.950 1_545 S
C1269 C1265 1.393 . S
C1269 C1268 1.391 . S
C1270 H1260 0.950 . S
C1270 C1271 1.386 . S
C1270 C1272 1.391 . S
C1271 C1270 1.386 . S
C1271 C1275 1.393 . S
C1272 H1261 0.950 . S
C1272 C1270 1.391 . S
C1272 C1273 1.400 . S
C1273 C1267 1.491 . S
C1273 C1272 1.400 . S
C1273 C1274 1.398 . S
C1274 H1262 0.950 . S
C1274 C1273 1.398 . S
C1274 C1275 1.391 . S
C1275 H1263 0.950 . S
C1275 C1271 1.393 . S
C1275 C1274 1.391 . S
H1276 C1284 0.950 . S
H1277 C1289 0.950 . S
H1278 C1286 0.950 . S
H1279 C1288 0.950 . S
H1280 C1290 0.950 . S
H1281 C1292 0.950 . S
H1282 C1294 0.950 . S
H1283 C1295 0.950 . S
C1284 H1276 0.950 . S
C1284 C1285 1.386 . S
C1284 C1286 1.391 . S
C1285 C1284 1.386 . S
C1285 C1289 1.393 . S
C1286 H1278 0.950 . S
C1286 C1284 1.391 . S
C1286 C1287 1.400 . S
C1287 C1286 1.400 . S
C1287 C1288 1.398 . S
C1287 C1293 1.491 . S
C1288 H1279 0.950 . S
C1288 C1287 1.398 . S
C1288 C1289 1.391 . S
C1289 H1277 0.950 . S
C1289 C1285 1.393 . S
C1289 C1288 1.391 . S
C1290 H1280 0.950 . S
C1290 C1291 1.386 . S
C1290 C1292 1.391 . S
C1291 C1290 1.386 . S
C1291 C1295 1.393 . S
C1292 H1281 0.950 . S
C1292 C1290 1.391 . S
C1292 C1293 1.400 . S
C1293 C1287 1.491 . S
C1293 C1292 1.400 . S
C1293 C1294 1.398 . S
C1294 H1282 0.950 . S
C1294 C1293 1.398 . S
C1294 C1295 1.391 . S
C1295 H1283 0.950 . S
C1295 C1291 1.393 . S
C1295 C1294 1.391 . S
H1296 C1304 0.950 . S
H1297 C1309 0.950 . S
H1298 C1306 0.950 . S
H1299 C1308 0.941 1_556 S
H1300 C1310 0.950 . S
H1301 C1312 0.950 . S
H1302 C1314 0.950 . S
H1303 C1315 0.950 . S
C1304 H1296 0.950 . S
C1304 C1305 1.386 . S
C1304 C1306 1.391 . S
C1305 C1304 1.386 . S
C1305 C1309 1.393 1_554 S
C1306 H1298 0.950 . S
C1306 C1304 1.391 . S
C1306 C1307 1.400 . S
C1307 C1306 1.400 . S
C1307 C1308 1.398 . S
C1307 C1313 1.491 . S
C1308 H1299 0.941 1_554 S
C1308 C1307 1.398 . S
C1308 C1309 1.391 1_554 S
C1309 H1297 0.950 . S
C1309 C1305 1.393 1_556 S
C1309 C1308 1.391 1_556 S
C1310 H1300 0.950 . S
C1310 C1311 1.386 . S
C1310 C1312 1.391 . S
C1311 C1310 1.386 . S
C1311 C1315 1.393 . S
C1312 H1301 0.950 . S
C1312 C1310 1.391 . S
C1312 C1313 1.400 . S
C1313 C1307 1.491 . S
C1313 C1312 1.400 . S
C1313 C1314 1.398 . S
C1314 H1302 0.950 . S
C1314 C1313 1.398 . S
C1314 C1315 1.391 . S
C1315 H1303 0.950 . S
C1315 C1311 1.393 . S
C1315 C1314 1.391 . S
H1316 C1324 0.950 . S
H1317 C1329 0.950 . S
H1318 C1326 0.950 . S
H1319 C1328 0.950 . S
H1320 C1330 0.950 . S
H1321 C1332 0.950 . S
H1322 C1334 0.950 . S
H1323 C1335 0.950 . S
C1324 H1316 0.950 . S
C1324 C1325 1.386 . S
C1324 C1326 1.391 . S
C1325 C1324 1.386 . S
C1325 C1329 1.393 . S
C1326 H1318 0.950 . S
C1326 C1324 1.391 . S
C1326 C1327 1.400 . S
C1327 C1326 1.400 . S
C1327 C1328 1.398 . S
C1327 C1333 1.491 . S
C1328 H1319 0.950 . S
C1328 C1327 1.398 . S
C1328 C1329 1.391 . S
C1329 H1317 0.950 . S
C1329 C1325 1.393 . S
C1329 C1328 1.391 . S
C1330 H1320 0.950 . S
C1330 C1331 1.386 . S
C1330 C1332 1.391 . S
C1331 C1330 1.386 . S
C1331 C1335 1.393 . S
C1332 H1321 0.950 . S
C1332 C1330 1.391 . S
C1332 C1333 1.400 . S
C1333 C1327 1.491 . S
C1333 C1332 1.400 . S
C1333 C1334 1.398 . S
C1334 H1322 0.950 . S
C1334 C1333 1.398 . S
C1334 C1335 1.391 . S
C1335 H1323 0.950 . S
C1335 C1331 1.393 . S
C1335 C1334 1.391 . S
H1336 C1344 0.950 . S
H1337 C1349 0.950 . S
H1338 C1346 0.950 . S
H1339 C1348 0.950 . S
H1340 C1350 0.950 . S
H1341 C1352 0.950 . S
H1342 C1354 0.950 . S
H1343 C1355 0.950 . S
C1344 H1336 0.950 . S
C1344 C1345 1.386 . S
C1344 C1346 1.391 . S
C1345 C1344 1.386 . S
C1345 C1349 1.393 . S
C1346 H1338 0.950 . S
C1346 C1344 1.391 . S
C1346 C1347 1.400 . S
C1347 C1346 1.400 . S
C1347 C1348 1.398 . S
C1347 C1353 1.491 . S
C1348 H1339 0.950 . S
C1348 C1347 1.398 . S
C1348 C1349 1.391 . S
C1349 H1337 0.950 . S
C1349 C1345 1.393 . S
C1349 C1348 1.391 . S
C1350 H1340 0.950 . S
C1350 C1351 1.386 . S
C1350 C1352 1.391 . S
C1351 C1350 1.386 . S
C1351 C1355 1.393 . S
C1352 H1341 0.950 . S
C1352 C1350 1.391 . S
C1352 C1353 1.400 . S
C1353 C1347 1.491 . S
C1353 C1352 1.400 . S
C1353 C1354 1.398 . S
C1354 H1342 0.950 . S
C1354 C1353 1.398 . S
C1354 C1355 1.391 . S
C1355 H1343 0.950 . S
C1355 C1351 1.393 . S
C1355 C1354 1.391 . S
H1356 C1364 0.950 . S
H1357 C1369 0.950 . S
H1358 C1366 0.950 . S
H1359 C1368 0.950 . S
H1360 C1370 0.950 . S
H1361 C1372 0.950 . S
H1362 C1374 0.950 . S
H1363 C1375 0.950 . S
C1364 H1356 0.950 . S
C1364 C1365 1.386 . S
C1364 C1366 1.391 . S
C1365 C1364 1.386 . S
C1365 C1369 1.393 . S
C1366 H1358 0.950 . S
C1366 C1364 1.391 . S
C1366 C1367 1.400 . S
C1367 C1366 1.400 . S
C1367 C1368 1.398 . S
C1367 C1373 1.491 . S
C1368 H1359 0.950 . S
C1368 C1367 1.398 . S
C1368 C1369 1.391 . S
C1369 H1357 0.950 . S
C1369 C1365 1.393 . S
C1369 C1368 1.391 . S
C1370 H1360 0.950 . S
C1370 C1371 1.386 . S
C1370 C1372 1.391 . S
C1371 C1370 1.386 . S
C1371 C1375 1.393 . S
C1372 H1361 0.950 . S
C1372 C1370 1.391 . S
C1372 C1373 1.400 . S
C1373 C1367 1.491 . S
C1373 C1372 1.400 . S
C1373 C1374 1.398 . S
C1374 H1362 0.950 . S
C1374 C1373 1.398 . S
C1374 C1375 1.391 . S
C1375 H1363 0.950 . S
C1375 C1371 1.393 . S
C1375 C1374 1.391 . S
H1376 C1384 0.950 . S
H1377 C1389 0.950 . S
H1378 C1386 0.950 . S
H1379 C1388 0.950 . S
H1380 C1390 0.950 . S
H1381 C1392 0.950 . S
H1382 C1394 0.950 . S
H1383 C1395 0.950 . S
C1384 H1376 0.950 . S
C1384 C1385 1.386 . S
C1384 C1386 1.391 . S
C1385 C1384 1.386 . S
C1385 C1389 1.393 . S
C1386 H1378 0.950 . S
C1386 C1384 1.391 . S
C1386 C1387 1.400 . S
C1387 C1386 1.400 . S
C1387 C1388 1.398 . S
C1387 C1393 1.491 . S
C1388 H1379 0.950 . S
C1388 C1387 1.398 . S
C1388 C1389 1.391 . S
C1389 H1377 0.950 . S
C1389 C1385 1.393 . S
C1389 C1388 1.391 . S
C1390 H1380 0.950 . S
C1390 C1391 1.386 . S
C1390 C1392 1.391 . S
C1391 C1390 1.386 . S
C1391 C1395 1.393 . S
C1392 H1381 0.950 . S
C1392 C1390 1.391 . S
C1392 C1393 1.400 . S
C1393 C1387 1.491 . S
C1393 C1392 1.400 . S
C1393 C1394 1.398 . S
C1394 H1382 0.950 . S
C1394 C1393 1.398 . S
C1394 C1395 1.391 . S
C1395 H1383 0.950 . S
C1395 C1391 1.393 . S
C1395 C1394 1.391 . S
H1396 C1404 0.950 . S
H1397 C1409 0.950 . S
H1398 C1406 0.950 . S
H1399 C1408 0.950 . S
H1400 C1410 0.950 . S
H1401 C1412 0.950 . S
H1402 C1414 0.950 . S
H1403 C1415 0.950 . S
C1404 H1396 0.950 . S
C1404 C1405 1.386 . S
C1404 C1406 1.391 . S
C1405 C1404 1.386 . S
C1405 C1409 1.393 . S
C1406 H1398 0.950 . S
C1406 C1404 1.391 . S
C1406 C1407 1.400 . S
C1407 C1406 1.400 . S
C1407 C1408 1.398 . S
C1407 C1413 1.491 . S
C1408 H1399 0.950 . S
C1408 C1407 1.398 . S
C1408 C1409 1.391 . S
C1409 H1397 0.950 . S
C1409 C1405 1.393 . S
C1409 C1408 1.391 . S
C1410 H1400 0.950 . S
C1410 C1411 1.386 . S
C1410 C1412 1.391 . S
C1411 C1410 1.386 . S
C1411 C1415 1.393 . S
C1412 H1401 0.950 . S
C1412 C1410 1.391 . S
C1412 C1413 1.400 . S
C1413 C1407 1.491 . S
C1413 C1412 1.400 . S
C1413 C1414 1.398 . S
C1414 H1402 0.950 . S
C1414 C1413 1.398 . S
C1414 C1415 1.391 . S
C1415 H1403 0.950 . S
C1415 C1411 1.393 . S
C1415 C1414 1.391 . S
H1416 C1424 0.950 . S
H1417 C1429 0.950 . S
H1418 C1426 0.950 . S
H1419 C1428 0.950 . S
H1420 C1430 0.950 . S
H1421 C1432 0.950 . S
H1422 C1434 0.950 . S
H1423 C1435 0.950 . S
C1424 H1416 0.950 . S
C1424 C1425 1.386 . S
C1424 C1426 1.391 . S
C1425 C1424 1.386 . S
C1425 C1429 1.393 . S
C1426 H1418 0.950 . S
C1426 C1424 1.391 . S
C1426 C1427 1.400 . S
C1427 C1426 1.400 . S
C1427 C1428 1.398 . S
C1427 C1433 1.491 . S
C1428 H1419 0.950 . S
C1428 C1427 1.398 . S
C1428 C1429 1.391 . S
C1429 H1417 0.950 . S
C1429 C1425 1.393 . S
C1429 C1428 1.391 . S
C1430 H1420 0.950 . S
C1430 C1431 1.386 . S
C1430 C1432 1.391 . S
C1431 C1430 1.386 . S
C1431 C1435 1.393 . S
C1432 H1421 0.950 . S
C1432 C1430 1.391 . S
C1432 C1433 1.400 . S
C1433 C1427 1.491 . S
C1433 C1432 1.400 . S
C1433 C1434 1.398 . S
C1434 H1422 0.950 . S
C1434 C1433 1.398 . S
C1434 C1435 1.391 . S
C1435 H1423 0.950 . S
C1435 C1431 1.393 . S
C1435 C1434 1.391 . S
H1436 C1444 0.950 . S
H1437 C1449 0.950 . S
H1438 C1446 0.950 . S
H1439 C1448 0.950 . S
H1440 C1450 0.950 . S
H1441 C1452 0.950 . S
H1442 C1454 0.950 . S
H1443 C1455 0.950 . S
C1444 H1436 0.950 . S
C1444 C1445 1.386 . S
C1444 C1446 1.391 . S
C1445 C1444 1.386 . S
C1445 C1449 1.393 . S
C1446 H1438 0.950 . S
C1446 C1444 1.391 . S
C1446 C1447 1.400 . S
C1447 C1446 1.400 . S
C1447 C1448 1.398 . S
C1447 C1453 1.491 . S
C1448 H1439 0.950 . S
C1448 C1447 1.398 . S
C1448 C1449 1.391 . S
C1449 H1437 0.950 . S
C1449 C1445 1.393 . S
C1449 C1448 1.391 . S
C1450 H1440 0.950 . S
C1450 C1451 1.386 . S
C1450 C1452 1.391 . S
C1451 C1450 1.386 . S
C1451 C1455 1.393 . S
C1452 H1441 0.950 . S
C1452 C1450 1.391 . S
C1452 C1453 1.400 . S
C1453 C1447 1.491 . S
C1453 C1452 1.400 . S
C1453 C1454 1.398 . S
C1454 H1442 0.950 . S
C1454 C1453 1.398 . S
C1454 C1455 1.391 . S
C1455 H1443 0.950 . S
C1455 C1451 1.393 . S
C1455 C1454 1.391 . S
H1456 C1464 0.950 . S
H1457 C1469 0.950 . S
H1458 C1466 0.950 . S
H1459 C1468 0.950 . S
H1460 C1470 0.950 . S
H1461 C1472 0.950 . S
H1462 C1474 0.950 . S
H1463 C1475 0.950 . S
C1464 H1456 0.950 . S
C1464 C1465 1.386 . S
C1464 C1466 1.391 . S
C1465 C1464 1.386 . S
C1465 C1469 1.393 . S
C1466 H1458 0.950 . S
C1466 C1464 1.391 . S
C1466 C1467 1.400 . S
C1467 C1466 1.400 . S
C1467 C1468 1.398 . S
C1467 C1473 1.491 . S
C1468 H1459 0.950 . S
C1468 C1467 1.398 . S
C1468 C1469 1.391 . S
C1469 H1457 0.950 . S
C1469 C1465 1.393 . S
C1469 C1468 1.391 . S
C1470 H1460 0.950 . S
C1470 C1471 1.386 . S
C1470 C1472 1.391 . S
C1471 C1470 1.386 . S
C1471 C1475 1.393 . S
C1472 H1461 0.950 . S
C1472 C1470 1.391 . S
C1472 C1473 1.400 . S
C1473 C1467 1.491 . S
C1473 C1472 1.400 . S
C1473 C1474 1.398 . S
C1474 H1462 0.950 . S
C1474 C1473 1.398 . S
C1474 C1475 1.391 . S
C1475 H1463 0.950 . S
C1475 C1471 1.393 . S
C1475 C1474 1.391 . S
H1476 C1484 0.950 . S
H1477 C1489 0.950 . S
H1478 C1486 0.950 . S
H1479 C1488 0.950 . S
H1480 C1490 0.950 . S
H1481 C1492 0.950 . S
H1482 C1494 0.950 . S
H1483 C1495 0.950 . S
C1484 H1476 0.950 . S
C1484 C1485 1.386 . S
C1484 C1486 1.391 . S
C1485 C1484 1.386 . S
C1485 C1489 1.393 . S
C1486 H1478 0.950 . S
C1486 C1484 1.391 . S
C1486 C1487 1.400 . S
C1487 C1486 1.400 . S
C1487 C1488 1.398 . S
C1487 C1493 1.491 . S
C1488 H1479 0.950 . S
C1488 C1487 1.398 . S
C1488 C1489 1.391 . S
C1489 H1477 0.950 . S
C1489 C1485 1.393 . S
C1489 C1488 1.391 . S
C1490 H1480 0.950 . S
C1490 C1491 1.386 . S
C1490 C1492 1.391 . S
C1491 C1490 1.386 . S
C1491 C1495 1.393 . S
C1492 H1481 0.950 . S
C1492 C1490 1.391 . S
C1492 C1493 1.400 . S
C1493 C1487 1.491 . S
C1493 C1492 1.400 . S
C1493 C1494 1.398 . S
C1494 H1482 0.950 . S
C1494 C1493 1.398 . S
C1494 C1495 1.391 . S
C1495 H1483 0.950 . S
C1495 C1491 1.393 . S
C1495 C1494 1.391 . S
H1496 C1504 0.950 . S
H1497 C1509 0.950 . S
H1498 C1506 0.950 . S
H1499 C1508 0.950 . S
H1500 C1510 0.950 . S
H1501 C1512 0.950 . S
H1502 C1514 0.950 . S
H1503 C1515 0.950 . S
C1504 H1496 0.950 . S
C1504 C1505 1.386 . S
C1504 C1506 1.391 . S
C1505 C1504 1.386 . S
C1505 C1509 1.393 . S
C1506 H1498 0.950 . S
C1506 C1504 1.391 . S
C1506 C1507 1.400 . S
C1507 C1506 1.400 . S
C1507 C1508 1.398 . S
C1507 C1513 1.491 . S
C1508 H1499 0.950 . S
C1508 C1507 1.398 . S
C1508 C1509 1.391 . S
C1509 H1497 0.950 . S
C1509 C1505 1.393 . S
C1509 C1508 1.391 . S
C1510 H1500 0.950 . S
C1510 C1511 1.386 . S
C1510 C1512 1.391 . S
C1511 C1510 1.386 . S
C1511 C1515 1.393 . S
C1512 H1501 0.950 . S
C1512 C1510 1.391 . S
C1512 C1513 1.400 . S
C1513 C1507 1.491 . S
C1513 C1512 1.400 . S
C1513 C1514 1.398 . S
C1514 H1502 0.950 . S
C1514 C1513 1.398 . S
C1514 C1515 1.391 . S
C1515 H1503 0.950 . S
C1515 C1511 1.393 . S
C1515 C1514 1.391 . S
H1516 C1524 0.950 . S
H1517 C1529 0.950 . S
H1518 C1526 0.950 . S
H1519 C1528 0.950 . S
H1520 C1530 0.950 . S
H1521 C1532 0.950 . S
H1522 C1534 0.950 . S
H1523 C1535 0.950 . S
C1524 H1516 0.950 . S
C1524 C1525 1.386 . S
C1524 C1526 1.391 . S
C1525 C1524 1.386 . S
C1525 C1529 1.393 . S
C1526 H1518 0.950 . S
C1526 C1524 1.391 . S
C1526 C1527 1.400 . S
C1527 C1526 1.400 . S
C1527 C1528 1.398 . S
C1527 C1533 1.491 . S
C1528 H1519 0.950 . S
C1528 C1527 1.398 . S
C1528 C1529 1.391 . S
C1529 H1517 0.950 . S
C1529 C1525 1.393 . S
C1529 C1528 1.391 . S
C1530 H1520 0.950 . S
C1530 C1531 1.386 . S
C1530 C1532 1.391 . S
C1531 C1530 1.386 . S
C1531 C1535 1.393 . S
C1532 H1521 0.950 . S
C1532 C1530 1.391 . S
C1532 C1533 1.400 . S
C1533 C1527 1.491 . S
C1533 C1532 1.400 . S
C1533 C1534 1.398 . S
C1534 H1522 0.950 . S
C1534 C1533 1.398 . S
C1534 C1535 1.391 . S
C1535 H1523 0.950 . S
C1535 C1531 1.393 . S
C1535 C1534 1.391 . S
H1536 C1544 0.950 . S
H1537 C1549 0.950 . S
H1538 C1546 0.950 . S
H1539 C1548 0.950 . S
H1540 C1550 0.950 . S
H1541 C1552 0.950 . S
H1542 C1554 0.950 . S
H1543 C1555 0.950 . S
C1544 H1536 0.950 . S
C1544 C1545 1.348 1_455 S
C1544 C1546 1.391 . S
C1545 C1544 1.348 1_655 S
C1545 C1549 1.424 . S
C1546 H1538 0.950 . S
C1546 C1544 1.391 . S
C1546 C1547 1.394 1_455 S
C1547 C1546 1.394 1_655 S
C1547 C1548 1.406 . S
C1547 C1553 1.489 1_655 S
C1548 H1539 0.950 . S
C1548 C1547 1.406 . S
C1548 C1549 1.391 . S
C1549 H1537 0.950 . S
C1549 C1545 1.424 . S
C1549 C1548 1.391 . S
C1550 H1540 0.950 . S
C1550 C1551 1.356 1_655 S
C1550 C1552 1.391 . S
C1551 C1550 1.356 1_455 S
C1551 C1555 1.418 . S
C1552 H1541 0.950 . S
C1552 C1550 1.391 . S
C1552 C1553 1.400 1_655 S
C1553 C1547 1.489 1_455 S
C1553 C1552 1.400 1_455 S
C1553 C1554 1.398 . S
C1554 H1542 0.950 . S
C1554 C1553 1.398 . S
C1554 C1555 1.391 . S
C1555 H1543 0.950 . S
C1555 C1551 1.418 . S
C1555 C1554 1.391 . S
H1556 C1564 0.950 . S
H1557 C1569 0.950 . S
H1558 C1566 0.950 . S
H1559 C1568 0.950 . S
H1560 C1570 0.950 . S
H1561 C1572 0.950 . S
H1562 C1574 0.950 . S
H1563 C1575 0.950 . S
C1564 H1556 0.950 . S
C1564 C1565 1.386 . S
C1564 C1566 1.391 . S
C1565 C1564 1.386 . S
C1565 C1569 1.393 . S
C1566 H1558 0.950 . S
C1566 C1564 1.391 . S
C1566 C1567 1.400 . S
C1567 C1566 1.400 . S
C1567 C1568 1.398 . S
C1567 C1573 1.491 . S
C1568 H1559 0.950 . S
C1568 C1567 1.398 . S
C1568 C1569 1.391 . S
C1569 H1557 0.950 . S
C1569 C1565 1.393 . S
C1569 C1568 1.391 . S
C1570 H1560 0.950 . S
C1570 C1571 1.386 . S
C1570 C1572 1.391 . S
C1571 C1570 1.386 . S
C1571 C1575 1.393 . S
C1572 H1561 0.950 . S
C1572 C1570 1.391 . S
C1572 C1573 1.400 . S
C1573 C1567 1.491 . S
C1573 C1572 1.400 . S
C1573 C1574 1.398 . S
C1574 H1562 0.950 . S
C1574 C1573 1.398 . S
C1574 C1575 1.391 . S
C1575 H1563 0.950 . S
C1575 C1571 1.393 . S
C1575 C1574 1.391 . S
H1576 C1584 0.950 . S
H1577 C1589 0.950 . S
H1578 C1586 0.950 . S
H1579 C1588 0.950 . S
H1580 C1590 0.950 . S
H1581 C1592 0.950 . S
H1582 C1594 0.955 . S
H1583 C1595 0.950 . S
C1584 H1576 0.950 . S
C1584 C1585 1.386 . S
C1584 C1586 1.391 . S
C1585 C1584 1.386 . S
C1585 C1589 1.393 . S
C1586 H1578 0.950 . S
C1586 C1584 1.391 . S
C1586 C1587 1.400 . S
C1587 C1586 1.400 . S
C1587 C1588 1.398 . S
C1587 C1593 1.491 . S
C1588 H1579 0.950 . S
C1588 C1587 1.398 . S
C1588 C1589 1.391 . S
C1589 H1577 0.950 . S
C1589 C1585 1.393 . S
C1589 C1588 1.391 . S
C1590 H1580 0.950 . S
C1590 C1591 1.386 1_556 S
C1590 C1592 1.391 . S
C1591 C1590 1.386 1_554 S
C1591 C1595 1.393 . S
C1592 H1581 0.950 . S
C1592 C1590 1.391 . S
C1592 C1593 1.400 . S
C1593 C1587 1.491 . S
C1593 C1592 1.400 . S
C1593 C1594 1.388 1_556 S
C1594 H1582 0.955 . S
C1594 C1593 1.388 1_554 S
C1594 C1595 1.397 . S
C1595 H1583 0.950 . S
C1595 C1591 1.393 . S
C1595 C1594 1.397 . S
H1596 C1604 0.950 . S
H1597 C1609 0.950 . S
H1598 C1606 0.950 . S
H1599 C1608 0.951 1_455 S
H1600 C1610 0.950 . S
H1601 C1612 0.950 . S
H1602 C1614 0.950 . S
H1603 C1615 0.950 . S
C1604 H1596 0.950 . S
C1604 C1605 1.386 1_655 S
C1604 C1606 1.391 . S
C1605 C1604 1.386 1_455 S
C1605 C1609 1.393 . S
C1606 H1598 0.950 . S
C1606 C1604 1.391 . S
C1606 C1607 1.400 . S
C1607 C1606 1.400 . S
C1607 C1608 1.404 . S
C1607 C1613 1.491 . S
C1608 H1599 0.951 1_655 S
C1608 C1607 1.404 . S
C1608 C1609 1.384 1_655 S
C1609 H1597 0.950 . S
C1609 C1605 1.393 . S
C1609 C1608 1.384 1_455 S
C1610 H1600 0.950 . S
C1610 C1611 1.386 . S
C1610 C1612 1.391 . S
C1611 C1610 1.386 . S
C1611 C1615 1.393 . S
C1612 H1601 0.950 . S
C1612 C1610 1.391 . S
C1612 C1613 1.400 . S
C1613 C1607 1.491 . S
C1613 C1612 1.400 . S
C1613 C1614 1.398 . S
C1614 H1602 0.950 . S
C1614 C1613 1.398 . S
C1614 C1615 1.391 . S
C1615 H1603 0.950 . S
C1615 C1611 1.393 . S
C1615 C1614 1.391 . S
H1616 C1624 0.950 . S
H1617 C1629 0.950 . S
H1618 C1626 0.950 . S
H1619 C1628 0.950 1_565 S
H1620 C1630 0.950 . S
H1621 C1632 0.950 1_565 S
H1622 C1634 0.950 . S
H1623 C1635 0.950 . S
C1624 H1616 0.950 . S
C1624 C1625 1.386 . S
C1624 C1626 1.391 . S
C1625 C1624 1.386 . S
C1625 C1629 1.393 . S
C1626 H1618 0.950 . S
C1626 C1624 1.391 . S
C1626 C1627 1.400 . S
C1627 C1626 1.400 . S
C1627 C1628 1.398 . S
C1627 C1633 1.491 . S
C1628 H1619 0.950 1_545 S
C1628 C1627 1.398 . S
C1628 C1629 1.391 . S
C1629 H1617 0.950 . S
C1629 C1625 1.393 . S
C1629 C1628 1.391 . S
C1630 H1620 0.950 . S
C1630 C1631 1.386 1_565 S
C1630 C1632 1.391 1_565 S
C1631 C1630 1.386 1_545 S
C1631 C1635 1.393 . S
C1632 H1621 0.950 1_545 S
C1632 C1630 1.391 1_545 S
C1632 C1633 1.400 . S
C1633 C1627 1.491 . S
C1633 C1632 1.400 . S
C1633 C1634 1.398 . S
C1634 H1622 0.950 . S
C1634 C1633 1.398 . S
C1634 C1635 1.391 . S
C1635 H1623 0.950 . S
C1635 C1631 1.393 . S
C1635 C1634 1.391 . S
H1636 C1644 0.950 . S
H1637 C1649 0.950 . S
H1638 C1646 0.950 . S
H1639 C1648 0.950 . S
H1640 C1650 0.950 . S
H1641 C1652 0.950 . S
H1642 C1654 0.950 . S
H1643 C1655 0.950 . S
C1644 H1636 0.950 . S
C1644 C1645 1.386 . S
C1644 C1646 1.391 . S
C1645 C1644 1.386 . S
C1645 C1649 1.393 . S
C1646 H1638 0.950 . S
C1646 C1644 1.391 . S
C1646 C1647 1.400 . S
C1647 C1646 1.400 . S
C1647 C1648 1.398 . S
C1647 C1653 1.491 . S
C1648 H1639 0.950 . S
C1648 C1647 1.398 . S
C1648 C1649 1.391 . S
C1649 H1637 0.950 . S
C1649 C1645 1.393 . S
C1649 C1648 1.391 . S
C1650 H1640 0.950 . S
C1650 C1651 1.386 . S
C1650 C1652 1.391 . S
C1651 C1650 1.386 . S
C1651 C1655 1.393 . S
C1652 H1641 0.950 . S
C1652 C1650 1.391 . S
C1652 C1653 1.400 . S
C1653 C1647 1.491 . S
C1653 C1652 1.400 . S
C1653 C1654 1.398 . S
C1654 H1642 0.950 . S
C1654 C1653 1.398 . S
C1654 C1655 1.391 . S
C1655 H1643 0.950 . S
C1655 C1651 1.393 . S
C1655 C1654 1.391 . S
H1656 C1664 0.950 . S
H1657 C1669 0.950 . S
H1658 C1666 0.950 . S
H1659 C1668 0.950 . S
H1660 C1670 0.950 . S
H1661 C1672 0.950 . S
H1662 C1674 0.950 . S
H1663 C1675 0.950 . S
C1664 H1656 0.950 . S
C1664 C1665 1.386 . S
C1664 C1666 1.391 . S
C1665 C1664 1.386 . S
C1665 C1669 1.393 . S
C1666 H1658 0.950 . S
C1666 C1664 1.391 . S
C1666 C1667 1.400 . S
C1667 C1666 1.400 . S
C1667 C1668 1.398 . S
C1667 C1673 1.491 . S
C1668 H1659 0.950 . S
C1668 C1667 1.398 . S
C1668 C1669 1.391 . S
C1669 H1657 0.950 . S
C1669 C1665 1.393 . S
C1669 C1668 1.391 . S
C1670 H1660 0.950 . S
C1670 C1671 1.386 . S
C1670 C1672 1.391 . S
C1671 C1670 1.386 . S
C1671 C1675 1.393 . S
C1672 H1661 0.950 . S
C1672 C1670 1.391 . S
C1672 C1673 1.400 . S
C1673 C1667 1.491 . S
C1673 C1672 1.400 . S
C1673 C1674 1.398 . S
C1674 H1662 0.950 . S
C1674 C1673 1.398 . S
C1674 C1675 1.391 . S
C1675 H1663 0.950 . S
C1675 C1671 1.393 . S
C1675 C1674 1.391 . S
H1676 C1684 0.950 . S
H1677 C1689 0.950 . S
H1678 C1686 0.950 . S
H1679 C1688 0.950 . S
H1680 C1690 0.950 . S
H1681 C1692 0.950 . S
H1682 C1694 0.950 . S
H1683 C1695 0.950 . S
C1684 H1676 0.950 . S
C1684 C1685 1.386 . S
C1684 C1686 1.391 . S
C1685 C1684 1.386 . S
C1685 C1689 1.393 . S
C1686 H1678 0.950 . S
C1686 C1684 1.391 . S
C1686 C1687 1.400 . S
C1687 C1686 1.400 . S
C1687 C1688 1.398 . S
C1687 C1693 1.491 . S
C1688 H1679 0.950 . S
C1688 C1687 1.398 . S
C1688 C1689 1.391 . S
C1689 H1677 0.950 . S
C1689 C1685 1.393 . S
C1689 C1688 1.391 . S
C1690 H1680 0.950 . S
C1690 C1691 1.386 . S
C1690 C1692 1.391 . S
C1691 C1690 1.386 . S
C1691 C1695 1.393 . S
C1692 H1681 0.950 . S
C1692 C1690 1.391 . S
C1692 C1693 1.400 . S
C1693 C1687 1.491 . S
C1693 C1692 1.400 . S
C1693 C1694 1.398 . S
C1694 H1682 0.950 . S
C1694 C1693 1.398 . S
C1694 C1695 1.391 . S
C1695 H1683 0.950 . S
C1695 C1691 1.393 . S
C1695 C1694 1.391 . S
H1696 C1704 0.950 . S
H1697 C1709 0.950 1_565 S
H1698 C1706 0.950 . S
H1699 C1708 0.950 1_565 S
H1700 C1710 0.950 1_565 S
H1701 C1712 0.950 1_565 S
H1702 C1714 0.950 . S
H1703 C1715 0.950 . S
C1704 H1696 0.950 . S
C1704 C1705 1.386 . S
C1704 C1706 1.391 . S
C1705 C1704 1.386 . S
C1705 C1709 1.393 . S
C1706 H1698 0.950 . S
C1706 C1704 1.391 . S
C1706 C1707 1.400 . S
C1707 C1706 1.400 . S
C1707 C1708 1.398 . S
C1707 C1713 1.491 . S
C1708 H1699 0.950 1_545 S
C1708 C1707 1.398 . S
C1708 C1709 1.391 . S
C1709 H1697 0.950 1_545 S
C1709 C1705 1.393 . S
C1709 C1708 1.391 . S
C1710 H1700 0.950 1_545 S
C1710 C1711 1.386 . S
C1710 C1712 1.391 . S
C1711 C1710 1.386 . S
C1711 C1715 1.393 . S
C1712 H1701 0.950 1_545 S
C1712 C1710 1.391 . S
C1712 C1713 1.400 . S
C1713 C1707 1.491 . S
C1713 C1712 1.400 . S
C1713 C1714 1.398 . S
C1714 H1702 0.950 . S
C1714 C1713 1.398 . S
C1714 C1715 1.391 . S
C1715 H1703 0.950 . S
C1715 C1711 1.393 . S
C1715 C1714 1.391 . S
H1716 C1724 0.950 . S
H1717 C1729 0.950 . S
H1718 C1726 0.950 . S
H1719 C1728 0.950 . S
H1720 C1730 0.950 . S
H1721 C1732 0.950 . S
H1722 C1734 0.950 . S
H1723 C1735 0.950 . S
C1724 H1716 0.950 . S
C1724 C1725 1.386 . S
C1724 C1726 1.391 . S
C1725 C1724 1.386 . S
C1725 C1729 1.393 . S
C1726 H1718 0.950 . S
C1726 C1724 1.391 . S
C1726 C1727 1.400 . S
C1727 C1726 1.400 . S
C1727 C1728 1.398 . S
C1727 C1733 1.491 . S
C1728 H1719 0.950 . S
C1728 C1727 1.398 . S
C1728 C1729 1.391 . S
C1729 H1717 0.950 . S
C1729 C1725 1.393 . S
C1729 C1728 1.391 . S
C1730 H1720 0.950 . S
C1730 C1731 1.386 . S
C1730 C1732 1.391 . S
C1731 C1730 1.386 . S
C1731 C1735 1.393 . S
C1732 H1721 0.950 . S
C1732 C1730 1.391 . S
C1732 C1733 1.400 . S
C1733 C1727 1.491 . S
C1733 C1732 1.400 . S
C1733 C1734 1.398 . S
C1734 H1722 0.950 . S
C1734 C1733 1.398 . S
C1734 C1735 1.391 . S
C1735 H1723 0.950 . S
C1735 C1731 1.393 . S
C1735 C1734 1.391 . S
H1736 C1744 0.950 . S
H1737 C1749 0.961 . S
H1738 C1746 0.950 . S
H1739 C1748 0.950 . S
H1740 C1750 0.950 . S
H1741 C1752 0.950 . S
H1742 C1754 0.950 . S
H1743 C1755 0.950 . S
C1744 H1736 0.950 . S
C1744 C1745 1.386 . S
C1744 C1746 1.391 . S
C1745 C1744 1.386 . S
C1745 C1749 1.380 1_545 S
C1746 H1738 0.950 . S
C1746 C1744 1.391 . S
C1746 C1747 1.400 . S
C1747 C1746 1.400 . S
C1747 C1748 1.398 1_545 S
C1747 C1753 1.491 . S
C1748 H1739 0.950 . S
C1748 C1747 1.398 1_565 S
C1748 C1749 1.392 . S
C1749 H1737 0.961 . S
C1749 C1745 1.380 1_565 S
C1749 C1748 1.392 . S
C1750 H1740 0.950 . S
C1750 C1751 1.386 1_565 S
C1750 C1752 1.391 . S
C1751 C1750 1.386 1_545 S
C1751 C1755 1.393 . S
C1752 H1741 0.950 . S
C1752 C1750 1.391 . S
C1752 C1753 1.400 1_565 S
C1753 C1747 1.491 . S
C1753 C1752 1.400 1_545 S
C1753 C1754 1.398 . S
C1754 H1742 0.950 . S
C1754 C1753 1.398 . S
C1754 C1755 1.391 . S
C1755 H1743 0.950 . S
C1755 C1751 1.393 . S
C1755 C1754 1.391 . S
H1756 C1764 0.950 . S
H1757 C1769 0.950 . S
H1758 C1766 0.950 . S
H1759 C1768 0.950 . S
H1760 C1770 0.950 . S
H1761 C1772 0.950 . S
H1762 C1774 0.950 . S
H1763 C1775 0.950 . S
C1764 H1756 0.950 . S
C1764 C1765 1.386 . S
C1764 C1766 1.391 . S
C1765 C1764 1.386 . S
C1765 C1769 1.393 . S
C1766 H1758 0.950 . S
C1766 C1764 1.391 . S
C1766 C1767 1.400 . S
C1767 C1766 1.400 . S
C1767 C1768 1.398 . S
C1767 C1773 1.491 . S
C1768 H1759 0.950 . S
C1768 C1767 1.398 . S
C1768 C1769 1.391 . S
C1769 H1757 0.950 . S
C1769 C1765 1.393 . S
C1769 C1768 1.391 . S
C1770 H1760 0.950 . S
C1770 C1771 1.386 . S
C1770 C1772 1.391 . S
C1771 C1770 1.386 . S
C1771 C1775 1.393 . S
C1772 H1761 0.950 . S
C1772 C1770 1.391 . S
C1772 C1773 1.400 . S
C1773 C1767 1.491 . S
C1773 C1772 1.400 . S
C1773 C1774 1.398 . S
C1774 H1762 0.950 . S
C1774 C1773 1.398 . S
C1774 C1775 1.391 . S
C1775 H1763 0.950 . S
C1775 C1771 1.393 . S
C1775 C1774 1.391 . S
H1776 C1784 0.950 . S
H1777 C1789 0.950 . S
H1778 C1786 0.950 . S
H1779 C1788 0.950 . S
H1780 C1790 0.950 . S
H1781 C1792 0.950 . S
H1782 C1794 0.950 . S
H1783 C1795 0.952 1_556 S
C1784 H1776 0.950 . S
C1784 C1785 1.386 . S
C1784 C1786 1.391 . S
C1785 C1784 1.386 . S
C1785 C1789 1.393 . S
C1786 H1778 0.950 . S
C1786 C1784 1.391 . S
C1786 C1787 1.400 . S
C1787 C1786 1.400 . S
C1787 C1788 1.398 . S
C1787 C1793 1.491 . S
C1788 H1779 0.950 . S
C1788 C1787 1.398 . S
C1788 C1789 1.391 . S
C1789 H1777 0.950 . S
C1789 C1785 1.393 . S
C1789 C1788 1.391 . S
C1790 H1780 0.950 . S
C1790 C1791 1.386 . S
C1790 C1792 1.391 . S
C1791 C1790 1.386 . S
C1791 C1795 1.393 . S
C1792 H1781 0.950 . S
C1792 C1790 1.391 . S
C1792 C1793 1.400 . S
C1793 C1787 1.491 . S
C1793 C1792 1.400 . S
C1793 C1794 1.398 . S
C1794 H1782 0.950 . S
C1794 C1793 1.398 . S
C1794 C1795 1.391 . S
C1795 H1783 0.952 1_554 S
C1795 C1791 1.393 . S
C1795 C1794 1.391 . S
H1796 C1804 0.950 . S
H1797 C1809 0.950 . S
H1798 C1806 0.950 . S
H1799 C1808 0.950 . S
H1800 C1810 0.950 . S
H1801 C1812 0.950 . S
H1802 C1814 0.950 . S
H1803 C1815 0.950 . S
C1804 H1796 0.950 . S
C1804 C1805 1.386 . S
C1804 C1806 1.391 . S
C1805 C1804 1.386 . S
C1805 C1809 1.393 . S
C1806 H1798 0.950 . S
C1806 C1804 1.391 . S
C1806 C1807 1.400 . S
C1807 C1806 1.400 . S
C1807 C1808 1.398 . S
C1807 C1813 1.491 . S
C1808 H1799 0.950 . S
C1808 C1807 1.398 . S
C1808 C1809 1.391 . S
C1809 H1797 0.950 . S
C1809 C1805 1.393 . S
C1809 C1808 1.391 . S
C1810 H1800 0.950 . S
C1810 C1811 1.386 . S
C1810 C1812 1.391 . S
C1811 C1810 1.386 . S
C1811 C1815 1.393 . S
C1812 H1801 0.950 . S
C1812 C1810 1.391 . S
C1812 C1813 1.400 . S
C1813 C1807 1.491 . S
C1813 C1812 1.400 . S
C1813 C1814 1.398 . S
C1814 H1802 0.950 . S
C1814 C1813 1.398 . S
C1814 C1815 1.391 . S
C1815 H1803 0.950 . S
C1815 C1811 1.393 . S
C1815 C1814 1.391 . S
H1816 C1824 0.950 . S
H1817 C1829 0.950 . S
H1818 C1826 0.950 . S
H1819 C1828 0.950 . S
H1820 C1830 0.950 . S
H1821 C1832 0.950 . S
H1822 C1834 0.950 . S
H1823 C1835 0.950 . S
C1824 H1816 0.950 . S
C1824 C1825 1.386 . S
C1824 C1826 1.391 . S
C1825 C1824 1.386 . S
C1825 C1829 1.393 . S
C1826 H1818 0.950 . S
C1826 C1824 1.391 . S
C1826 C1827 1.400 . S
C1827 C1826 1.400 . S
C1827 C1828 1.398 . S
C1827 C1833 1.491 . S
C1828 H1819 0.950 . S
C1828 C1827 1.398 . S
C1828 C1829 1.391 . S
C1829 H1817 0.950 . S
C1829 C1825 1.393 . S
C1829 C1828 1.391 . S
C1830 H1820 0.950 . S
C1830 C1831 1.386 . S
C1830 C1832 1.391 . S
C1831 C1830 1.386 . S
C1831 C1835 1.393 . S
C1832 H1821 0.950 . S
C1832 C1830 1.391 . S
C1832 C1833 1.400 . S
C1833 C1827 1.491 . S
C1833 C1832 1.400 . S
C1833 C1834 1.398 . S
C1834 H1822 0.950 . S
C1834 C1833 1.398 . S
C1834 C1835 1.391 . S
C1835 H1823 0.950 . S
C1835 C1831 1.393 . S
C1835 C1834 1.391 . S
H1836 C1844 0.950 . S
H1837 C1849 0.950 . S
H1838 C1846 0.950 . S
H1839 C1848 0.950 . S
H1840 C1850 0.950 . S
H1841 C1852 0.950 . S
H1842 C1854 0.950 . S
H1843 C1855 0.950 . S
C1844 H1836 0.950 . S
C1844 C1845 1.386 . S
C1844 C1846 1.391 . S
C1845 C1844 1.386 . S
C1845 C1849 1.393 . S
C1846 H1838 0.950 . S
C1846 C1844 1.391 . S
C1846 C1847 1.400 . S
C1847 C1846 1.400 . S
C1847 C1848 1.398 . S
C1847 C1853 1.491 . S
C1848 H1839 0.950 . S
C1848 C1847 1.398 . S
C1848 C1849 1.391 . S
C1849 H1837 0.950 . S
C1849 C1845 1.393 . S
C1849 C1848 1.391 . S
C1850 H1840 0.950 . S
C1850 C1851 1.386 . S
C1850 C1852 1.391 . S
C1851 C1850 1.386 . S
C1851 C1855 1.393 . S
C1852 H1841 0.950 . S
C1852 C1850 1.391 . S
C1852 C1853 1.400 . S
C1853 C1847 1.491 . S
C1853 C1852 1.400 . S
C1853 C1854 1.398 . S
C1854 H1842 0.950 . S
C1854 C1853 1.398 . S
C1854 C1855 1.391 . S
C1855 H1843 0.950 . S
C1855 C1851 1.393 . S
C1855 C1854 1.391 . S
H1856 C1864 0.950 . S
H1857 C1869 0.950 . S
H1858 C1866 0.950 . S
H1859 C1868 0.950 . S
H1860 C1870 0.950 . S
H1861 C1872 0.950 . S
H1862 C1874 0.950 . S
H1863 C1875 0.950 . S
C1864 H1856 0.950 . S
C1864 C1865 1.386 . S
C1864 C1866 1.391 . S
C1865 C1864 1.386 . S
C1865 C1869 1.393 . S
C1866 H1858 0.950 . S
C1866 C1864 1.391 . S
C1866 C1867 1.400 . S
C1867 C1866 1.400 . S
C1867 C1868 1.398 . S
C1867 C1873 1.491 . S
C1868 H1859 0.950 . S
C1868 C1867 1.398 . S
C1868 C1869 1.391 . S
C1869 H1857 0.950 . S
C1869 C1865 1.393 . S
C1869 C1868 1.391 . S
C1870 H1860 0.950 . S
C1870 C1871 1.386 . S
C1870 C1872 1.391 . S
C1871 C1870 1.386 . S
C1871 C1875 1.393 . S
C1872 H1861 0.950 . S
C1872 C1870 1.391 . S
C1872 C1873 1.400 . S
C1873 C1867 1.491 . S
C1873 C1872 1.400 . S
C1873 C1874 1.398 . S
C1874 H1862 0.950 . S
C1874 C1873 1.398 . S
C1874 C1875 1.391 . S
C1875 H1863 0.950 . S
C1875 C1871 1.393 . S
C1875 C1874 1.391 . S
H1876 C1884 0.950 . S
H1877 C1889 0.950 . S
H1878 C1886 0.950 . S
H1879 C1888 0.950 . S
H1880 C1890 0.950 . S
H1881 C1892 0.950 . S
H1882 C1894 0.950 . S
H1883 C1895 0.950 . S
C1884 H1876 0.950 . S
C1884 C1885 1.386 . S
C1884 C1886 1.391 . S
C1885 C1884 1.386 . S
C1885 C1889 1.393 . S
C1886 H1878 0.950 . S
C1886 C1884 1.391 . S
C1886 C1887 1.400 . S
C1887 C1886 1.400 . S
C1887 C1888 1.398 . S
C1887 C1893 1.491 . S
C1888 H1879 0.950 . S
C1888 C1887 1.398 . S
C1888 C1889 1.391 . S
C1889 H1877 0.950 . S
C1889 C1885 1.393 . S
C1889 C1888 1.391 . S
C1890 H1880 0.950 . S
C1890 C1891 1.386 . S
C1890 C1892 1.391 . S
C1891 C1890 1.386 . S
C1891 C1895 1.393 . S
C1892 H1881 0.950 . S
C1892 C1890 1.391 . S
C1892 C1893 1.400 . S
C1893 C1887 1.491 . S
C1893 C1892 1.400 . S
C1893 C1894 1.398 . S
C1894 H1882 0.950 . S
C1894 C1893 1.398 . S
C1894 C1895 1.391 . S
C1895 H1883 0.950 . S
C1895 C1891 1.393 . S
C1895 C1894 1.391 . S
H1896 C1904 0.950 . S
H1897 C1909 0.950 . S
H1898 C1906 0.950 . S
H1899 C1908 0.950 . S
H1900 C1910 0.950 . S
H1901 C1912 0.950 . S
H1902 C1914 0.950 . S
H1903 C1915 0.950 . S
C1904 H1896 0.950 . S
C1904 C1905 1.386 . S
C1904 C1906 1.391 . S
C1905 C1904 1.386 . S
C1905 C1909 1.393 . S
C1906 H1898 0.950 . S
C1906 C1904 1.391 . S
C1906 C1907 1.400 . S
C1907 C1906 1.400 . S
C1907 C1908 1.398 . S
C1907 C1913 1.491 . S
C1908 H1899 0.950 . S
C1908 C1907 1.398 . S
C1908 C1909 1.391 . S
C1909 H1897 0.950 . S
C1909 C1905 1.393 . S
C1909 C1908 1.391 . S
C1910 H1900 0.950 . S
C1910 C1911 1.386 . S
C1910 C1912 1.391 . S
C1911 C1910 1.386 . S
C1911 C1915 1.393 . S
C1912 H1901 0.950 . S
C1912 C1910 1.391 . S
C1912 C1913 1.400 . S
C1913 C1907 1.491 . S
C1913 C1912 1.400 . S
C1913 C1914 1.398 . S
C1914 H1902 0.950 . S
C1914 C1913 1.398 . S
C1914 C1915 1.391 . S
C1915 H1903 0.950 . S
C1915 C1911 1.393 . S
C1915 C1914 1.391 . S
H1916 C1924 0.950 . S
H1917 C1929 0.950 . S
H1918 C1926 0.950 . S
H1919 C1928 0.950 . S
H1920 C1930 0.950 . S
H1921 C1932 0.950 . S
H1922 C1934 0.950 . S
H1923 C1935 0.950 . S
C1924 H1916 0.950 . S
C1924 C1925 1.386 . S
C1924 C1926 1.391 . S
C1925 C1924 1.386 . S
C1925 C1929 1.393 . S
C1926 H1918 0.950 . S
C1926 C1924 1.391 . S
C1926 C1927 1.400 . S
C1927 C1926 1.400 . S
C1927 C1928 1.398 . S
C1927 C1933 1.491 . S
C1928 H1919 0.950 . S
C1928 C1927 1.398 . S
C1928 C1929 1.391 . S
C1929 H1917 0.950 . S
C1929 C1925 1.393 . S
C1929 C1928 1.391 . S
C1930 H1920 0.950 . S
C1930 C1931 1.386 . S
C1930 C1932 1.391 . S
C1931 C1930 1.386 . S
C1931 C1935 1.393 . S
C1932 H1921 0.950 . S
C1932 C1930 1.391 . S
C1932 C1933 1.400 . S
C1933 C1927 1.491 . S
C1933 C1932 1.400 . S
C1933 C1934 1.398 . S
C1934 H1922 0.950 . S
C1934 C1933 1.398 . S
C1934 C1935 1.391 . S
C1935 H1923 0.950 . S
C1935 C1931 1.393 . S
C1935 C1934 1.391 . S
H1936 C1944 0.950 . S
H1937 C1949 0.950 . S
H1938 C1946 0.950 . S
H1939 C1948 0.950 . S
H1940 C1950 0.950 . S
H1941 C1952 0.950 . S
H1942 C1954 0.950 . S
H1943 C1955 0.950 . S
C1944 H1936 0.950 . S
C1944 C1945 1.386 . S
C1944 C1946 1.391 . S
C1945 C1944 1.386 . S
C1945 C1949 1.393 . S
C1946 H1938 0.950 . S
C1946 C1944 1.391 . S
C1946 C1947 1.400 . S
C1947 C1946 1.400 . S
C1947 C1948 1.398 . S
C1947 C1953 1.491 . S
C1948 H1939 0.950 . S
C1948 C1947 1.398 . S
C1948 C1949 1.391 . S
C1949 H1937 0.950 . S
C1949 C1945 1.393 . S
C1949 C1948 1.391 . S
C1950 H1940 0.950 . S
C1950 C1951 1.386 . S
C1950 C1952 1.391 . S
C1951 C1950 1.386 . S
C1951 C1955 1.393 . S
C1952 H1941 0.950 . S
C1952 C1950 1.391 . S
C1952 C1953 1.400 . S
C1953 C1947 1.491 . S
C1953 C1952 1.400 . S
C1953 C1954 1.398 . S
C1954 H1942 0.950 . S
C1954 C1953 1.398 . S
C1954 C1955 1.391 . S
C1955 H1943 0.950 . S
C1955 C1951 1.393 . S
C1955 C1954 1.391 . S
H1956 C1964 0.950 . S
H1957 C1969 0.950 . S
H1958 C1966 0.950 . S
H1959 C1968 0.950 . S
H1960 C1970 0.950 . S
H1961 C1972 0.950 . S
H1962 C1974 0.950 . S
H1963 C1975 0.950 . S
C1964 H1956 0.950 . S
C1964 C1965 1.386 . S
C1964 C1966 1.391 . S
C1965 C1964 1.386 . S
C1965 C1969 1.393 . S
C1966 H1958 0.950 . S
C1966 C1964 1.391 . S
C1966 C1967 1.400 . S
C1967 C1966 1.400 . S
C1967 C1968 1.398 . S
C1967 C1973 1.491 . S
C1968 H1959 0.950 . S
C1968 C1967 1.398 . S
C1968 C1969 1.391 . S
C1969 H1957 0.950 . S
C1969 C1965 1.393 . S
C1969 C1968 1.391 . S
C1970 H1960 0.950 . S
C1970 C1971 1.386 . S
C1970 C1972 1.391 . S
C1971 C1970 1.386 . S
C1971 C1975 1.393 . S
C1972 H1961 0.950 . S
C1972 C1970 1.391 . S
C1972 C1973 1.400 . S
C1973 C1967 1.491 . S
C1973 C1972 1.400 . S
C1973 C1974 1.398 . S
C1974 H1962 0.950 . S
C1974 C1973 1.398 . S
C1974 C1975 1.391 . S
C1975 H1963 0.950 . S
C1975 C1971 1.393 . S
C1975 C1974 1.391 . S
H1976 C1984 0.946 . S
H1977 C1989 0.950 . S
H1978 C1986 0.950 1_655 S
H1979 C1988 0.950 . S
H1980 C1990 0.950 . S
H1981 C1992 0.950 1_556 S
H1982 C1994 0.950 1_655 S
H1983 C1995 0.950 1_655 S
C1984 H1976 0.946 . S
C1984 C1985 1.390 1_655 S
C1984 C1986 1.390 1_656 S
C1985 C1984 1.390 1_455 S
C1985 C1989 1.393 . S
C1986 H1978 0.950 1_455 S
C1986 C1984 1.390 1_454 S
C1986 C1987 1.400 1_554 S
C1987 C1986 1.400 1_556 S
C1987 C1988 1.398 . S
C1987 C1993 1.491 1_556 S
C1988 H1979 0.950 . S
C1988 C1987 1.398 . S
C1988 C1989 1.391 . S
C1989 H1977 0.950 . S
C1989 C1985 1.393 . S
C1989 C1988 1.391 . S
C1990 H1980 0.950 . S
C1990 C1991 1.386 . S
C1990 C1992 1.391 . S
C1991 C1990 1.386 . S
C1991 C1995 1.393 . S
C1992 H1981 0.950 1_554 S
C1992 C1990 1.391 . S
C1992 C1993 1.400 . S
C1993 C1987 1.491 1_554 S
C1993 C1992 1.400 . S
C1993 C1994 1.398 . S
C1994 H1982 0.950 1_455 S
C1994 C1993 1.398 . S
C1994 C1995 1.391 . S
C1995 H1983 0.950 1_455 S
C1995 C1991 1.393 . S
C1995 C1994 1.391 . S
H1996 C2004 0.950 . S
H1997 C2009 0.950 . S
H1998 C2006 0.950 . S
H1999 C2008 0.950 . S
H2000 C2010 0.950 . S
H2001 C2012 0.950 . S
H2002 C2014 0.950 . S
H2003 C2015 0.950 . S
C2004 H1996 0.950 . S
C2004 C2005 1.354 1_655 S
C2004 C2006 1.391 . S
C2005 C2004 1.354 1_455 S
C2005 C2009 1.387 . S
C2006 H1998 0.950 . S
C2006 C2004 1.391 . S
C2006 C2007 1.400 . S
C2007 C2006 1.400 . S
C2007 C2008 1.398 . S
C2007 C2013 1.491 . S
C2008 H1999 0.950 . S
C2008 C2007 1.398 . S
C2008 C2009 1.391 1_655 S
C2009 H1997 0.950 . S
C2009 C2005 1.387 . S
C2009 C2008 1.391 1_455 S
C2010 H2000 0.950 . S
C2010 C2011 1.386 . S
C2010 C2012 1.391 . S
C2011 C2010 1.386 . S
C2011 C2015 1.393 . S
C2012 H2001 0.950 . S
C2012 C2010 1.391 . S
C2012 C2013 1.400 . S
C2013 C2007 1.491 . S
C2013 C2012 1.400 . S
C2013 C2014 1.398 . S
C2014 H2002 0.950 . S
C2014 C2013 1.398 . S
C2014 C2015 1.391 . S
C2015 H2003 0.950 . S
C2015 C2011 1.393 . S
C2015 C2014 1.391 . S
H2016 C2024 0.950 . S
H2017 C2029 0.950 . S
H2018 C2026 0.950 . S
H2019 C2028 0.950 . S
H2020 C2030 0.950 . S
H2021 C2032 0.950 . S
H2022 C2034 0.950 . S
H2023 C2035 0.950 . S
C2024 H2016 0.950 . S
C2024 C2025 1.386 . S
C2024 C2026 1.391 . S
C2025 C2024 1.386 . S
C2025 C2029 1.393 . S
C2026 H2018 0.950 . S
C2026 C2024 1.391 . S
C2026 C2027 1.400 . S
C2027 C2026 1.400 . S
C2027 C2028 1.398 . S
C2027 C2033 1.491 . S
C2028 H2019 0.950 . S
C2028 C2027 1.398 . S
C2028 C2029 1.391 . S
C2029 H2017 0.950 . S
C2029 C2025 1.393 . S
C2029 C2028 1.391 . S
C2030 H2020 0.950 . S
C2030 C2031 1.386 . S
C2030 C2032 1.391 . S
C2031 C2030 1.386 . S
C2031 C2035 1.393 . S
C2032 H2021 0.950 . S
C2032 C2030 1.391 . S
C2032 C2033 1.400 . S
C2033 C2027 1.491 . S
C2033 C2032 1.400 . S
C2033 C2034 1.398 . S
C2034 H2022 0.950 . S
C2034 C2033 1.398 . S
C2034 C2035 1.391 . S
C2035 H2023 0.950 . S
C2035 C2031 1.393 . S
C2035 C2034 1.391 . S
H2036 C2044 0.950 . S
H2037 C2049 0.950 . S
H2038 C2046 0.950 . S
H2039 C2048 0.950 . S
H2040 C2050 0.950 . S
H2041 C2052 0.950 . S
H2042 C2054 0.950 . S
H2043 C2055 0.950 . S
C2044 H2036 0.950 . S
C2044 C2045 1.386 . S
C2044 C2046 1.391 . S
C2045 C2044 1.386 . S
C2045 C2049 1.393 . S
C2046 H2038 0.950 . S
C2046 C2044 1.391 . S
C2046 C2047 1.400 . S
C2047 C2046 1.400 . S
C2047 C2048 1.398 . S
C2047 C2053 1.491 . S
C2048 H2039 0.950 . S
C2048 C2047 1.398 . S
C2048 C2049 1.391 . S
C2049 H2037 0.950 . S
C2049 C2045 1.393 . S
C2049 C2048 1.391 . S
C2050 H2040 0.950 . S
C2050 C2051 1.386 . S
C2050 C2052 1.391 . S
C2051 C2050 1.386 . S
C2051 C2055 1.393 . S
C2052 H2041 0.950 . S
C2052 C2050 1.391 . S
C2052 C2053 1.400 . S
C2053 C2047 1.491 . S
C2053 C2052 1.400 . S
C2053 C2054 1.398 . S
C2054 H2042 0.950 . S
C2054 C2053 1.398 . S
C2054 C2055 1.391 . S
C2055 H2043 0.950 . S
C2055 C2051 1.393 . S
C2055 C2054 1.391 . S
H2056 C2064 0.950 . S
H2057 C2069 0.950 . S
H2058 C2066 0.950 . S
H2059 C2068 0.950 . S
H2060 C2070 0.950 . S
H2061 C2072 0.950 . S
H2062 C2074 0.950 . S
H2063 C2075 0.950 . S
C2064 H2056 0.950 . S
C2064 C2065 1.386 . S
C2064 C2066 1.391 . S
C2065 C2064 1.386 . S
C2065 C2069 1.393 . S
C2066 H2058 0.950 . S
C2066 C2064 1.391 . S
C2066 C2067 1.400 . S
C2067 C2066 1.400 . S
C2067 C2068 1.398 . S
C2067 C2073 1.491 . S
C2068 H2059 0.950 . S
C2068 C2067 1.398 . S
C2068 C2069 1.391 . S
C2069 H2057 0.950 . S
C2069 C2065 1.393 . S
C2069 C2068 1.391 . S
C2070 H2060 0.950 . S
C2070 C2071 1.386 . S
C2070 C2072 1.391 . S
C2071 C2070 1.386 . S
C2071 C2075 1.393 . S
C2072 H2061 0.950 . S
C2072 C2070 1.391 . S
C2072 C2073 1.400 . S
C2073 C2067 1.491 . S
C2073 C2072 1.400 . S
C2073 C2074 1.398 . S
C2074 H2062 0.950 . S
C2074 C2073 1.398 . S
C2074 C2075 1.391 . S
C2075 H2063 0.950 . S
C2075 C2071 1.393 . S
C2075 C2074 1.391 . S
H2076 C2084 0.950 . S
H2077 C2089 0.950 . S
H2078 C2086 0.950 . S
H2079 C2088 0.950 . S
H2080 C2090 0.950 . S
H2081 C2092 0.950 . S
H2082 C2094 0.950 . S
H2083 C2095 0.950 . S
C2084 H2076 0.950 . S
C2084 C2085 1.386 . S
C2084 C2086 1.391 . S
C2085 C2084 1.386 . S
C2085 C2089 1.393 . S
C2086 H2078 0.950 . S
C2086 C2084 1.391 . S
C2086 C2087 1.400 . S
C2087 C2086 1.400 . S
C2087 C2088 1.398 . S
C2087 C2093 1.491 . S
C2088 H2079 0.950 . S
C2088 C2087 1.398 . S
C2088 C2089 1.391 . S
C2089 H2077 0.950 . S
C2089 C2085 1.393 . S
C2089 C2088 1.391 . S
C2090 H2080 0.950 . S
C2090 C2091 1.386 . S
C2090 C2092 1.391 . S
C2091 C2090 1.386 . S
C2091 C2095 1.393 . S
C2092 H2081 0.950 . S
C2092 C2090 1.391 . S
C2092 C2093 1.400 . S
C2093 C2087 1.491 . S
C2093 C2092 1.400 . S
C2093 C2094 1.398 . S
C2094 H2082 0.950 . S
C2094 C2093 1.398 . S
C2094 C2095 1.391 . S
C2095 H2083 0.950 . S
C2095 C2091 1.393 . S
C2095 C2094 1.391 . S
H2096 C2104 0.950 . S
H2097 C2109 0.950 . S
H2098 C2106 0.950 . S
H2099 C2108 0.950 . S
H2100 C2110 0.950 . S
H2101 C2112 0.950 . S
H2102 C2114 0.950 . S
H2103 C2115 0.950 . S
C2104 H2096 0.950 . S
C2104 C2105 1.386 . S
C2104 C2106 1.391 . S
C2105 C2104 1.386 . S
C2105 C2109 1.393 . S
C2106 H2098 0.950 . S
C2106 C2104 1.391 . S
C2106 C2107 1.400 . S
C2107 C2106 1.400 . S
C2107 C2108 1.398 . S
C2107 C2113 1.491 . S
C2108 H2099 0.950 . S
C2108 C2107 1.398 . S
C2108 C2109 1.391 . S
C2109 H2097 0.950 . S
C2109 C2105 1.393 . S
C2109 C2108 1.391 . S
C2110 H2100 0.950 . S
C2110 C2111 1.386 . S
C2110 C2112 1.391 . S
C2111 C2110 1.386 . S
C2111 C2115 1.393 . S
C2112 H2101 0.950 . S
C2112 C2110 1.391 . S
C2112 C2113 1.400 . S
C2113 C2107 1.491 . S
C2113 C2112 1.400 . S
C2113 C2114 1.398 . S
C2114 H2102 0.950 . S
C2114 C2113 1.398 . S
C2114 C2115 1.391 . S
C2115 H2103 0.950 . S
C2115 C2111 1.393 . S
C2115 C2114 1.391 . S
H2116 C2124 0.950 . S
H2117 C2129 0.950 . S
H2118 C2126 0.950 1_556 S
H2119 C2128 0.950 . S
H2120 C2130 0.950 . S
H2121 C2132 0.950 . S
H2122 C2134 0.950 . S
H2123 C2135 0.950 . S
C2124 H2116 0.950 . S
C2124 C2125 1.386 . S
C2124 C2126 1.391 . S
C2125 C2124 1.386 . S
C2125 C2129 1.393 . S
C2126 H2118 0.950 1_554 S
C2126 C2124 1.391 . S
C2126 C2127 1.400 . S
C2127 C2126 1.400 . S
C2127 C2128 1.398 . S
C2127 C2133 1.491 1_554 S
C2128 H2119 0.950 . S
C2128 C2127 1.398 . S
C2128 C2129 1.391 . S
C2129 H2117 0.950 . S
C2129 C2125 1.393 . S
C2129 C2128 1.391 . S
C2130 H2120 0.950 . S
C2130 C2131 1.386 . S
C2130 C2132 1.391 . S
C2131 C2130 1.386 . S
C2131 C2135 1.393 . S
C2132 H2121 0.950 . S
C2132 C2130 1.391 . S
C2132 C2133 1.400 . S
C2133 C2127 1.491 1_556 S
C2133 C2132 1.400 . S
C2133 C2134 1.398 . S
C2134 H2122 0.950 . S
C2134 C2133 1.398 . S
C2134 C2135 1.391 . S
C2135 H2123 0.950 . S
C2135 C2131 1.393 . S
C2135 C2134 1.391 . S
H2136 C2144 0.950 . S
H2137 C2149 0.950 . S
H2138 C2146 0.950 . S
H2139 C2148 0.950 . S
H2140 C2150 0.950 . S
H2141 C2152 0.950 . S
H2142 C2154 0.950 . S
H2143 C2155 0.950 . S
C2144 H2136 0.950 . S
C2144 C2145 1.386 . S
C2144 C2146 1.391 . S
C2145 C2144 1.386 . S
C2145 C2149 1.393 . S
C2146 H2138 0.950 . S
C2146 C2144 1.391 . S
C2146 C2147 1.400 . S
C2147 C2146 1.400 . S
C2147 C2148 1.398 . S
C2147 C2153 1.491 . S
C2148 H2139 0.950 . S
C2148 C2147 1.398 . S
C2148 C2149 1.391 . S
C2149 H2137 0.950 . S
C2149 C2145 1.393 . S
C2149 C2148 1.391 . S
C2150 H2140 0.950 . S
C2150 C2151 1.386 . S
C2150 C2152 1.391 . S
C2151 C2150 1.386 . S
C2151 C2155 1.393 . S
C2152 H2141 0.950 . S
C2152 C2150 1.391 . S
C2152 C2153 1.400 . S
C2153 C2147 1.491 . S
C2153 C2152 1.400 . S
C2153 C2154 1.398 . S
C2154 H2142 0.950 . S
C2154 C2153 1.398 . S
C2154 C2155 1.391 . S
C2155 H2143 0.950 . S
C2155 C2151 1.393 . S
C2155 C2154 1.391 . S
H2156 C2164 0.950 . S
H2157 C2169 0.950 . S
H2158 C2166 0.950 . S
H2159 C2168 0.950 . S
H2160 C2170 0.950 . S
H2161 C2172 0.950 . S
H2162 C2174 0.950 . S
H2163 C2175 0.950 . S
C2164 H2156 0.950 . S
C2164 C2165 1.386 . S
C2164 C2166 1.391 . S
C2165 C2164 1.386 . S
C2165 C2169 1.393 . S
C2166 H2158 0.950 . S
C2166 C2164 1.391 . S
C2166 C2167 1.400 . S
C2167 C2166 1.400 . S
C2167 C2168 1.398 . S
C2167 C2173 1.491 . S
C2168 H2159 0.950 . S
C2168 C2167 1.398 . S
C2168 C2169 1.391 . S
C2169 H2157 0.950 . S
C2169 C2165 1.393 . S
C2169 C2168 1.391 . S
C2170 H2160 0.950 . S
C2170 C2171 1.386 . S
C2170 C2172 1.391 . S
C2171 C2170 1.386 . S
C2171 C2175 1.393 . S
C2172 H2161 0.950 . S
C2172 C2170 1.391 . S
C2172 C2173 1.400 . S
C2173 C2167 1.491 . S
C2173 C2172 1.400 . S
C2173 C2174 1.398 . S
C2174 H2162 0.950 . S
C2174 C2173 1.398 . S
C2174 C2175 1.391 . S
C2175 H2163 0.950 . S
C2175 C2171 1.393 . S
C2175 C2174 1.391 . S
H2176 C2184 0.950 . S
H2177 C2189 0.950 . S
H2178 C2186 0.950 . S
H2179 C2188 0.950 . S
H2180 C2190 0.950 . S
H2181 C2192 0.950 . S
H2182 C2194 0.950 . S
H2183 C2195 0.950 . S
C2184 H2176 0.950 . S
C2184 C2185 1.386 . S
C2184 C2186 1.391 . S
C2185 C2184 1.386 . S
C2185 C2189 1.393 . S
C2186 H2178 0.950 . S
C2186 C2184 1.391 . S
C2186 C2187 1.400 . S
C2187 C2186 1.400 . S
C2187 C2188 1.398 . S
C2187 C2193 1.491 . S
C2188 H2179 0.950 . S
C2188 C2187 1.398 . S
C2188 C2189 1.391 . S
C2189 H2177 0.950 . S
C2189 C2185 1.393 . S
C2189 C2188 1.391 . S
C2190 H2180 0.950 . S
C2190 C2191 1.386 . S
C2190 C2192 1.391 . S
C2191 C2190 1.386 . S
C2191 C2195 1.393 . S
C2192 H2181 0.950 . S
C2192 C2190 1.391 . S
C2192 C2193 1.400 . S
C2193 C2187 1.491 . S
C2193 C2192 1.400 . S
C2193 C2194 1.398 . S
C2194 H2182 0.950 . S
C2194 C2193 1.398 . S
C2194 C2195 1.391 . S
C2195 H2183 0.950 . S
C2195 C2191 1.393 . S
C2195 C2194 1.391 . S
H2196 C2204 0.950 . S
H2197 C2209 0.950 . S
H2198 C2206 0.950 . S
H2199 C2208 0.950 . S
H2200 C2210 0.950 . S
H2201 C2212 0.950 . S
H2202 C2214 0.950 . S
H2203 C2215 0.950 . S
C2204 H2196 0.950 . S
C2204 C2205 1.386 . S
C2204 C2206 1.391 . S
C2205 C2204 1.386 . S
C2205 C2209 1.393 . S
C2206 H2198 0.950 . S
C2206 C2204 1.391 . S
C2206 C2207 1.400 . S
C2207 C2206 1.400 . S
C2207 C2208 1.398 . S
C2207 C2213 1.491 . S
C2208 H2199 0.950 . S
C2208 C2207 1.398 . S
C2208 C2209 1.391 . S
C2209 H2197 0.950 . S
C2209 C2205 1.393 . S
C2209 C2208 1.391 . S
C2210 H2200 0.950 . S
C2210 C2211 1.386 . S
C2210 C2212 1.391 . S
C2211 C2210 1.386 . S
C2211 C2215 1.393 . S
C2212 H2201 0.950 . S
C2212 C2210 1.391 . S
C2212 C2213 1.400 . S
C2213 C2207 1.491 . S
C2213 C2212 1.400 . S
C2213 C2214 1.398 . S
C2214 H2202 0.950 . S
C2214 C2213 1.398 . S
C2214 C2215 1.391 . S
C2215 H2203 0.950 . S
C2215 C2211 1.393 . S
C2215 C2214 1.391 . S
H2216 C2224 0.950 . S
H2217 C2229 0.950 . S
H2218 C2226 0.950 . S
H2219 C2228 0.950 . S
H2220 C2230 0.950 . S
H2221 C2232 0.950 . S
H2222 C2234 0.950 . S
H2223 C2235 0.950 . S
C2224 H2216 0.950 . S
C2224 C2225 1.386 . S
C2224 C2226 1.391 . S
C2225 C2224 1.386 . S
C2225 C2229 1.393 . S
C2226 H2218 0.950 . S
C2226 C2224 1.391 . S
C2226 C2227 1.400 . S
C2227 C2226 1.400 . S
C2227 C2228 1.398 . S
C2227 C2233 1.491 . S
C2228 H2219 0.950 . S
C2228 C2227 1.398 . S
C2228 C2229 1.391 . S
C2229 H2217 0.950 . S
C2229 C2225 1.393 . S
C2229 C2228 1.391 . S
C2230 H2220 0.950 . S
C2230 C2231 1.386 . S
C2230 C2232 1.391 . S
C2231 C2230 1.386 . S
C2231 C2235 1.393 . S
C2232 H2221 0.950 . S
C2232 C2230 1.391 . S
C2232 C2233 1.400 . S
C2233 C2227 1.491 . S
C2233 C2232 1.400 . S
C2233 C2234 1.398 . S
C2234 H2222 0.950 . S
C2234 C2233 1.398 . S
C2234 C2235 1.391 . S
C2235 H2223 0.950 . S
C2235 C2231 1.393 . S
C2235 C2234 1.391 . S
H2236 C2244 0.950 . S
H2237 C2249 0.950 . S
H2238 C2246 0.950 . S
H2239 C2248 0.950 . S
H2240 C2250 0.950 . S
H2241 C2252 0.950 . S
H2242 C2254 0.950 . S
H2243 C2255 0.950 . S
C2244 H2236 0.950 . S
C2244 C2245 1.386 . S
C2244 C2246 1.391 . S
C2245 C2244 1.386 . S
C2245 C2249 1.393 . S
C2246 H2238 0.950 . S
C2246 C2244 1.391 . S
C2246 C2247 1.400 . S
C2247 C2246 1.400 . S
C2247 C2248 1.398 . S
C2247 C2253 1.491 . S
C2248 H2239 0.950 . S
C2248 C2247 1.398 . S
C2248 C2249 1.391 . S
C2249 H2237 0.950 . S
C2249 C2245 1.393 . S
C2249 C2248 1.391 . S
C2250 H2240 0.950 . S
C2250 C2251 1.386 . S
C2250 C2252 1.391 . S
C2251 C2250 1.386 . S
C2251 C2255 1.393 . S
C2252 H2241 0.950 . S
C2252 C2250 1.391 . S
C2252 C2253 1.400 . S
C2253 C2247 1.491 . S
C2253 C2252 1.400 . S
C2253 C2254 1.398 . S
C2254 H2242 0.950 . S
C2254 C2253 1.398 . S
C2254 C2255 1.391 . S
C2255 H2243 0.950 . S
C2255 C2251 1.393 . S
C2255 C2254 1.391 . S
H2256 C2264 0.950 . S
H2257 C2269 0.950 . S
H2258 C2266 0.950 . S
H2259 C2268 0.950 . S
H2260 C2270 0.950 . S
H2261 C2272 0.950 . S
H2262 C2274 0.950 . S
H2263 C2275 0.950 . S
C2264 H2256 0.950 . S
C2264 C2265 1.386 . S
C2264 C2266 1.391 . S
C2265 C2264 1.386 . S
C2265 C2269 1.393 . S
C2266 H2258 0.950 . S
C2266 C2264 1.391 . S
C2266 C2267 1.400 . S
C2267 C2266 1.400 . S
C2267 C2268 1.398 . S
C2267 C2273 1.491 . S
C2268 H2259 0.950 . S
C2268 C2267 1.398 . S
C2268 C2269 1.391 . S
C2269 H2257 0.950 . S
C2269 C2265 1.393 . S
C2269 C2268 1.391 . S
C2270 H2260 0.950 . S
C2270 C2271 1.386 . S
C2270 C2272 1.391 . S
C2271 C2270 1.386 . S
C2271 C2275 1.393 . S
C2272 H2261 0.950 . S
C2272 C2270 1.391 . S
C2272 C2273 1.400 . S
C2273 C2267 1.491 . S
C2273 C2272 1.400 . S
C2273 C2274 1.398 . S
C2274 H2262 0.950 . S
C2274 C2273 1.398 . S
C2274 C2275 1.391 . S
C2275 H2263 0.950 . S
C2275 C2271 1.393 . S
C2275 C2274 1.391 . S
H2276 C2284 0.950 . S
H2277 C2289 0.950 . S
H2278 C2286 0.950 . S
H2279 C2288 0.950 . S
H2280 C2290 0.950 . S
H2281 C2292 0.950 . S
H2282 C2294 0.950 . S
H2283 C2295 0.950 . S
C2284 H2276 0.950 . S
C2284 C2285 1.386 . S
C2284 C2286 1.391 . S
C2285 C2284 1.386 . S
C2285 C2289 1.393 . S
C2286 H2278 0.950 . S
C2286 C2284 1.391 . S
C2286 C2287 1.400 . S
C2287 C2286 1.400 . S
C2287 C2288 1.398 . S
C2287 C2293 1.491 . S
C2288 H2279 0.950 . S
C2288 C2287 1.398 . S
C2288 C2289 1.391 . S
C2289 H2277 0.950 . S
C2289 C2285 1.393 . S
C2289 C2288 1.391 . S
C2290 H2280 0.950 . S
C2290 C2291 1.386 . S
C2290 C2292 1.391 . S
C2291 C2290 1.386 . S
C2291 C2295 1.393 . S
C2292 H2281 0.950 . S
C2292 C2290 1.391 . S
C2292 C2293 1.400 . S
C2293 C2287 1.491 . S
C2293 C2292 1.400 . S
C2293 C2294 1.398 . S
C2294 H2282 0.950 . S
C2294 C2293 1.398 . S
C2294 C2295 1.391 . S
C2295 H2283 0.950 . S
C2295 C2291 1.393 . S
C2295 C2294 1.391 . S
H2296 C2304 0.950 . S
H2297 C2309 0.950 1_545 S
H2298 C2306 0.950 . S
H2299 C2308 0.950 . S
H2300 C2310 0.950 . S
H2301 C2312 0.950 . S
H2302 C2314 0.950 . S
H2303 C2315 0.950 . S
C2304 H2296 0.950 . S
C2304 C2305 1.386 . S
C2304 C2306 1.391 . S
C2305 C2304 1.386 . S
C2305 C2309 1.393 . S
C2306 H2298 0.950 . S
C2306 C2304 1.391 . S
C2306 C2307 1.400 . S
C2307 C2306 1.400 . S
C2307 C2308 1.398 . S
C2307 C2313 1.491 . S
C2308 H2299 0.950 . S
C2308 C2307 1.398 . S
C2308 C2309 1.391 . S
C2309 H2297 0.950 1_565 S
C2309 C2305 1.393 . S
C2309 C2308 1.391 . S
C2310 H2300 0.950 . S
C2310 C2311 1.386 . S
C2310 C2312 1.391 . S
C2311 C2310 1.386 . S
C2311 C2315 1.393 . S
C2312 H2301 0.950 . S
C2312 C2310 1.391 . S
C2312 C2313 1.400 . S
C2313 C2307 1.491 . S
C2313 C2312 1.400 . S
C2313 C2314 1.398 . S
C2314 H2302 0.950 . S
C2314 C2313 1.398 . S
C2314 C2315 1.391 . S
C2315 H2303 0.950 . S
C2315 C2311 1.393 . S
C2315 C2314 1.391 . S
H2316 C2324 0.950 . S
H2317 C2329 0.950 . S
H2318 C2326 0.950 . S
H2319 C2328 0.950 . S
H2320 C2330 0.950 . S
H2321 C2332 0.950 . S
H2322 C2334 0.950 . S
H2323 C2335 0.950 . S
C2324 H2316 0.950 . S
C2324 C2325 1.386 . S
C2324 C2326 1.391 . S
C2325 C2324 1.386 . S
C2325 C2329 1.393 1_554 S
C2326 H2318 0.950 . S
C2326 C2324 1.391 . S
C2326 C2327 1.400 . S
C2327 C2326 1.400 . S
C2327 C2328 1.398 1_554 S
C2327 C2333 1.491 . S
C2328 H2319 0.950 . S
C2328 C2327 1.398 1_556 S
C2328 C2329 1.391 . S
C2329 H2317 0.950 . S
C2329 C2325 1.393 1_556 S
C2329 C2328 1.391 . S
C2330 H2320 0.950 . S
C2330 C2331 1.386 1_556 S
C2330 C2332 1.391 . S
C2331 C2330 1.386 1_554 S
C2331 C2335 1.393 . S
C2332 H2321 0.950 . S
C2332 C2330 1.391 . S
C2332 C2333 1.400 1_556 S
C2333 C2327 1.491 . S
C2333 C2332 1.400 1_554 S
C2333 C2334 1.398 . S
C2334 H2322 0.950 . S
C2334 C2333 1.398 . S
C2334 C2335 1.391 . S
C2335 H2323 0.950 . S
C2335 C2331 1.393 . S
C2335 C2334 1.391 . S
H2336 C2344 0.950 . S
H2337 C2349 0.950 . S
H2338 C2346 0.950 . S
H2339 C2348 0.950 . S
H2340 C2350 0.950 . S
H2341 C2352 0.950 . S
H2342 C2354 0.950 . S
H2343 C2355 0.950 . S
C2344 H2336 0.950 . S
C2344 C2345 1.386 . S
C2344 C2346 1.391 . S
C2345 C2344 1.386 . S
C2345 C2349 1.393 . S
C2346 H2338 0.950 . S
C2346 C2344 1.391 . S
C2346 C2347 1.400 . S
C2347 C2346 1.400 . S
C2347 C2348 1.398 . S
C2347 C2353 1.491 . S
C2348 H2339 0.950 . S
C2348 C2347 1.398 . S
C2348 C2349 1.391 . S
C2349 H2337 0.950 . S
C2349 C2345 1.393 . S
C2349 C2348 1.391 . S
C2350 H2340 0.950 . S
C2350 C2351 1.386 . S
C2350 C2352 1.391 . S
C2351 C2350 1.386 . S
C2351 C2355 1.393 . S
C2352 H2341 0.950 . S
C2352 C2350 1.391 . S
C2352 C2353 1.400 . S
C2353 C2347 1.491 . S
C2353 C2352 1.400 . S
C2353 C2354 1.398 . S
C2354 H2342 0.950 . S
C2354 C2353 1.398 . S
C2354 C2355 1.391 . S
C2355 H2343 0.950 . S
C2355 C2351 1.393 . S
C2355 C2354 1.391 . S
H2356 C2364 0.950 . S
H2357 C2369 0.950 . S
H2358 C2366 0.950 . S
H2359 C2368 0.950 . S
H2360 C2370 0.950 . S
H2361 C2372 0.950 . S
H2362 C2374 0.950 . S
H2363 C2375 0.950 . S
C2364 H2356 0.950 . S
C2364 C2365 1.386 . S
C2364 C2366 1.391 . S
C2365 C2364 1.386 . S
C2365 C2369 1.393 . S
C2366 H2358 0.950 . S
C2366 C2364 1.391 . S
C2366 C2367 1.400 . S
C2367 C2366 1.400 . S
C2367 C2368 1.398 . S
C2367 C2373 1.491 . S
C2368 H2359 0.950 . S
C2368 C2367 1.398 . S
C2368 C2369 1.391 . S
C2369 H2357 0.950 . S
C2369 C2365 1.393 . S
C2369 C2368 1.391 . S
C2370 H2360 0.950 . S
C2370 C2371 1.386 . S
C2370 C2372 1.391 . S
C2371 C2370 1.386 . S
C2371 C2375 1.393 . S
C2372 H2361 0.950 . S
C2372 C2370 1.391 . S
C2372 C2373 1.400 . S
C2373 C2367 1.491 . S
C2373 C2372 1.400 . S
C2373 C2374 1.398 . S
C2374 H2362 0.950 . S
C2374 C2373 1.398 . S
C2374 C2375 1.391 . S
C2375 H2363 0.950 . S
C2375 C2371 1.393 . S
C2375 C2374 1.391 . S
H2376 C2384 0.950 . S
H2377 C2389 0.950 . S
H2378 C2386 0.950 . S
H2379 C2388 0.950 . S
H2380 C2390 0.950 . S
H2381 C2392 0.950 . S
H2382 C2394 0.950 . S
H2383 C2395 0.950 . S
C2384 H2376 0.950 . S
C2384 C2385 1.386 . S
C2384 C2386 1.391 . S
C2385 C2384 1.386 . S
C2385 C2389 1.393 . S
C2386 H2378 0.950 . S
C2386 C2384 1.391 . S
C2386 C2387 1.400 . S
C2387 C2386 1.400 . S
C2387 C2388 1.398 . S
C2387 C2393 1.491 . S
C2388 H2379 0.950 . S
C2388 C2387 1.398 . S
C2388 C2389 1.391 . S
C2389 H2377 0.950 . S
C2389 C2385 1.393 . S
C2389 C2388 1.391 . S
C2390 H2380 0.950 . S
C2390 C2391 1.386 . S
C2390 C2392 1.391 . S
C2391 C2390 1.386 . S
C2391 C2395 1.393 . S
C2392 H2381 0.950 . S
C2392 C2390 1.391 . S
C2392 C2393 1.400 . S
C2393 C2387 1.491 . S
C2393 C2392 1.400 . S
C2393 C2394 1.398 . S
C2394 H2382 0.950 . S
C2394 C2393 1.398 . S
C2394 C2395 1.391 . S
C2395 H2383 0.950 . S
C2395 C2391 1.393 . S
C2395 C2394 1.391 . S
H2396 C2404 0.950 . S
H2397 C2409 0.950 . S
H2398 C2406 0.950 . S
H2399 C2408 0.950 . S
H2400 C2410 0.950 . S
H2401 C2412 0.950 . S
H2402 C2414 0.950 . S
H2403 C2415 0.950 . S
C2404 H2396 0.950 . S
C2404 C2405 1.386 . S
C2404 C2406 1.391 . S
C2405 C2404 1.386 . S
C2405 C2409 1.393 . S
C2406 H2398 0.950 . S
C2406 C2404 1.391 . S
C2406 C2407 1.400 . S
C2407 C2406 1.400 . S
C2407 C2408 1.398 . S
C2407 C2413 1.491 . S
C2408 H2399 0.950 . S
C2408 C2407 1.398 . S
C2408 C2409 1.391 . S
C2409 H2397 0.950 . S
C2409 C2405 1.393 . S
C2409 C2408 1.391 . S
C2410 H2400 0.950 . S
C2410 C2411 1.386 . S
C2410 C2412 1.391 . S
C2411 C2410 1.386 . S
C2411 C2415 1.393 . S
C2412 H2401 0.950 . S
C2412 C2410 1.391 . S
C2412 C2413 1.400 . S
C2413 C2407 1.491 . S
C2413 C2412 1.400 . S
C2413 C2414 1.398 . S
C2414 H2402 0.950 . S
C2414 C2413 1.398 . S
C2414 C2415 1.391 . S
C2415 H2403 0.950 . S
C2415 C2411 1.393 . S
C2415 C2414 1.391 . S
H2416 C2424 0.950 . S
H2417 C2429 0.950 . S
H2418 C2426 0.950 . S
H2419 C2428 0.950 . S
H2420 C2430 0.950 . S
H2421 C2432 0.950 . S
H2422 C2434 0.950 . S
H2423 C2435 0.950 . S
C2424 H2416 0.950 . S
C2424 C2425 1.386 . S
C2424 C2426 1.391 . S
C2425 C2424 1.386 . S
C2425 C2429 1.393 . S
C2426 H2418 0.950 . S
C2426 C2424 1.391 . S
C2426 C2427 1.400 . S
C2427 C2426 1.400 . S
C2427 C2428 1.398 . S
C2427 C2433 1.491 . S
C2428 H2419 0.950 . S
C2428 C2427 1.398 . S
C2428 C2429 1.391 . S
C2429 H2417 0.950 . S
C2429 C2425 1.393 . S
C2429 C2428 1.391 . S
C2430 H2420 0.950 . S
C2430 C2431 1.386 . S
C2430 C2432 1.391 . S
C2431 C2430 1.386 . S
C2431 C2435 1.393 . S
C2432 H2421 0.950 . S
C2432 C2430 1.391 . S
C2432 C2433 1.400 . S
C2433 C2427 1.491 . S
C2433 C2432 1.400 . S
C2433 C2434 1.398 . S
C2434 H2422 0.950 . S
C2434 C2433 1.398 . S
C2434 C2435 1.391 . S
C2435 H2423 0.950 . S
C2435 C2431 1.393 . S
C2435 C2434 1.391 . S
H2436 C2444 0.950 . S
H2437 C2449 0.950 . S
H2438 C2446 0.950 . S
H2439 C2448 0.950 . S
H2440 C2450 0.950 . S
H2441 C2452 0.950 . S
H2442 C2454 0.950 . S
H2443 C2455 0.950 . S
C2444 H2436 0.950 . S
C2444 C2445 1.386 . S
C2444 C2446 1.391 . S
C2445 C2444 1.386 . S
C2445 C2449 1.393 . S
C2446 H2438 0.950 . S
C2446 C2444 1.391 . S
C2446 C2447 1.400 . S
C2447 C2446 1.400 . S
C2447 C2448 1.398 . S
C2447 C2453 1.491 . S
C2448 H2439 0.950 . S
C2448 C2447 1.398 . S
C2448 C2449 1.391 . S
C2449 H2437 0.950 . S
C2449 C2445 1.393 . S
C2449 C2448 1.391 . S
C2450 H2440 0.950 . S
C2450 C2451 1.386 . S
C2450 C2452 1.391 . S
C2451 C2450 1.386 . S
C2451 C2455 1.393 . S
C2452 H2441 0.950 . S
C2452 C2450 1.391 . S
C2452 C2453 1.400 . S
C2453 C2447 1.491 . S
C2453 C2452 1.400 . S
C2453 C2454 1.398 . S
C2454 H2442 0.950 . S
C2454 C2453 1.398 . S
C2454 C2455 1.391 . S
C2455 H2443 0.950 . S
C2455 C2451 1.393 . S
C2455 C2454 1.391 . S
H2456 C2464 0.950 . S
H2457 C2469 0.950 . S
H2458 C2466 0.950 . S
H2459 C2468 0.950 . S
H2460 C2470 0.950 . S
H2461 C2472 0.950 . S
H2462 C2474 0.950 . S
H2463 C2475 0.950 . S
C2464 H2456 0.950 . S
C2464 C2465 1.386 . S
C2464 C2466 1.391 . S
C2465 C2464 1.386 . S
C2465 C2469 1.393 . S
C2466 H2458 0.950 . S
C2466 C2464 1.391 . S
C2466 C2467 1.400 . S
C2467 C2466 1.400 . S
C2467 C2468 1.398 . S
C2467 C2473 1.491 . S
C2468 H2459 0.950 . S
C2468 C2467 1.398 . S
C2468 C2469 1.391 . S
C2469 H2457 0.950 . S
C2469 C2465 1.393 . S
C2469 C2468 1.391 . S
C2470 H2460 0.950 . S
C2470 C2471 1.386 . S
C2470 C2472 1.391 . S
C2471 C2470 1.386 . S
C2471 C2475 1.393 . S
C2472 H2461 0.950 . S
C2472 C2470 1.391 . S
C2472 C2473 1.400 . S
C2473 C2467 1.491 . S
C2473 C2472 1.400 . S
C2473 C2474 1.398 . S
C2474 H2462 0.950 . S
C2474 C2473 1.398 . S
C2474 C2475 1.391 . S
C2475 H2463 0.950 . S
C2475 C2471 1.393 . S
C2475 C2474 1.391 . S
H2476 C2484 0.950 . S
H2477 C2489 0.950 . S
H2478 C2486 0.950 . S
H2479 C2488 0.950 . S
H2480 C2490 0.950 . S
H2481 C2492 0.950 . S
H2482 C2494 0.950 . S
H2483 C2495 0.950 . S
C2484 H2476 0.950 . S
C2484 C2485 1.386 . S
C2484 C2486 1.391 . S
C2485 C2484 1.386 . S
C2485 C2489 1.393 . S
C2486 H2478 0.950 . S
C2486 C2484 1.391 . S
C2486 C2487 1.400 . S
C2487 C2486 1.400 . S
C2487 C2488 1.398 . S
C2487 C2493 1.491 . S
C2488 H2479 0.950 . S
C2488 C2487 1.398 . S
C2488 C2489 1.391 . S
C2489 H2477 0.950 . S
C2489 C2485 1.393 . S
C2489 C2488 1.391 . S
C2490 H2480 0.950 . S
C2490 C2491 1.386 . S
C2490 C2492 1.391 . S
C2491 C2490 1.386 . S
C2491 C2495 1.393 . S
C2492 H2481 0.950 . S
C2492 C2490 1.391 . S
C2492 C2493 1.400 . S
C2493 C2487 1.491 . S
C2493 C2492 1.400 . S
C2493 C2494 1.398 . S
C2494 H2482 0.950 . S
C2494 C2493 1.398 . S
C2494 C2495 1.391 . S
C2495 H2483 0.950 . S
C2495 C2491 1.393 . S
C2495 C2494 1.391 . S
H2496 C2504 0.950 . S
H2497 C2509 0.950 . S
H2498 C2506 0.950 . S
H2499 C2508 0.950 . S
H2500 C2510 0.950 . S
H2501 C2512 0.950 . S
H2502 C2514 0.950 . S
H2503 C2515 0.950 . S
C2504 H2496 0.950 . S
C2504 C2505 1.386 . S
C2504 C2506 1.391 . S
C2505 C2504 1.386 . S
C2505 C2509 1.393 . S
C2506 H2498 0.950 . S
C2506 C2504 1.391 . S
C2506 C2507 1.400 . S
C2507 C2506 1.400 . S
C2507 C2508 1.398 . S
C2507 C2513 1.491 . S
C2508 H2499 0.950 . S
C2508 C2507 1.398 . S
C2508 C2509 1.391 . S
C2509 H2497 0.950 . S
C2509 C2505 1.393 . S
C2509 C2508 1.391 . S
C2510 H2500 0.950 . S
C2510 C2511 1.386 . S
C2510 C2512 1.391 . S
C2511 C2510 1.386 . S
C2511 C2515 1.393 . S
C2512 H2501 0.950 . S
C2512 C2510 1.391 . S
C2512 C2513 1.400 . S
C2513 C2507 1.491 . S
C2513 C2512 1.400 . S
C2513 C2514 1.398 . S
C2514 H2502 0.950 . S
C2514 C2513 1.398 . S
C2514 C2515 1.391 . S
C2515 H2503 0.950 . S
C2515 C2511 1.393 . S
C2515 C2514 1.391 . S
H2516 C2524 0.950 . S
H2517 C2529 0.950 . S
H2518 C2526 0.950 . S
H2519 C2528 0.950 . S
H2520 C2530 0.950 . S
H2521 C2532 0.950 . S
H2522 C2534 0.950 . S
H2523 C2535 0.950 . S
C2524 H2516 0.950 . S
C2524 C2525 1.386 . S
C2524 C2526 1.391 . S
C2525 C2524 1.386 . S
C2525 C2529 1.393 . S
C2526 H2518 0.950 . S
C2526 C2524 1.391 . S
C2526 C2527 1.400 . S
C2527 C2526 1.400 . S
C2527 C2528 1.398 . S
C2527 C2533 1.491 . S
C2528 H2519 0.950 . S
C2528 C2527 1.398 . S
C2528 C2529 1.391 . S
C2529 H2517 0.950 . S
C2529 C2525 1.393 . S
C2529 C2528 1.391 . S
C2530 H2520 0.950 . S
C2530 C2531 1.386 . S
C2530 C2532 1.391 . S
C2531 C2530 1.386 . S
C2531 C2535 1.393 . S
C2532 H2521 0.950 . S
C2532 C2530 1.391 . S
C2532 C2533 1.400 . S
C2533 C2527 1.491 . S
C2533 C2532 1.400 . S
C2533 C2534 1.398 . S
C2534 H2522 0.950 . S
C2534 C2533 1.398 . S
C2534 C2535 1.391 . S
C2535 H2523 0.950 . S
C2535 C2531 1.393 . S
C2535 C2534 1.391 . S
H2536 C2544 0.950 . S
H2537 C2549 0.950 . S
H2538 C2546 0.950 . S
H2539 C2548 0.950 . S
H2540 C2550 0.950 . S
H2541 C2552 0.950 . S
H2542 C2554 0.950 . S
H2543 C2555 0.950 . S
C2544 H2536 0.950 . S
C2544 C2545 1.386 . S
C2544 C2546 1.391 . S
C2545 C2544 1.386 . S
C2545 C2549 1.393 . S
C2546 H2538 0.950 . S
C2546 C2544 1.391 . S
C2546 C2547 1.400 . S
C2547 C2546 1.400 . S
C2547 C2548 1.398 . S
C2547 C2553 1.491 . S
C2548 H2539 0.950 . S
C2548 C2547 1.398 . S
C2548 C2549 1.391 . S
C2549 H2537 0.950 . S
C2549 C2545 1.393 . S
C2549 C2548 1.391 . S
C2550 H2540 0.950 . S
C2550 C2551 1.386 . S
C2550 C2552 1.391 . S
C2551 C2550 1.386 . S
C2551 C2555 1.393 . S
C2552 H2541 0.950 . S
C2552 C2550 1.391 . S
C2552 C2553 1.400 . S
C2553 C2547 1.491 . S
C2553 C2552 1.400 . S
C2553 C2554 1.398 . S
C2554 H2542 0.950 . S
C2554 C2553 1.398 . S
C2554 C2555 1.391 . S
C2555 H2543 0.950 . S
C2555 C2551 1.393 . S
C2555 C2554 1.391 . S
H2556 C2564 0.950 . S
H2557 C2569 0.950 . S
H2558 C2566 0.950 . S
H2559 C2568 0.950 . S
H2560 C2570 0.950 . S
H2561 C2572 0.950 . S
H2562 C2574 0.950 . S
H2563 C2575 0.950 . S
C2564 H2556 0.950 . S
C2564 C2565 1.386 . S
C2564 C2566 1.391 . S
C2565 C2564 1.386 . S
C2565 C2569 1.393 . S
C2566 H2558 0.950 . S
C2566 C2564 1.391 . S
C2566 C2567 1.400 . S
C2567 C2566 1.400 . S
C2567 C2568 1.398 . S
C2567 C2573 1.491 . S
C2568 H2559 0.950 . S
C2568 C2567 1.398 . S
C2568 C2569 1.391 . S
C2569 H2557 0.950 . S
C2569 C2565 1.393 . S
C2569 C2568 1.391 . S
C2570 H2560 0.950 . S
C2570 C2571 1.386 . S
C2570 C2572 1.391 . S
C2571 C2570 1.386 . S
C2571 C2575 1.393 . S
C2572 H2561 0.950 . S
C2572 C2570 1.391 . S
C2572 C2573 1.400 . S
C2573 C2567 1.491 . S
C2573 C2572 1.400 . S
C2573 C2574 1.398 . S
C2574 H2562 0.950 . S
C2574 C2573 1.398 . S
C2574 C2575 1.391 . S
C2575 H2563 0.950 . S
C2575 C2571 1.393 . S
C2575 C2574 1.391 . S
H2576 C2584 0.950 . S
H2577 C2589 0.950 . S
H2578 C2586 0.950 . S
H2579 C2588 0.950 . S
H2580 C2590 0.950 . S
H2581 C2592 0.950 . S
H2582 C2594 0.950 . S
H2583 C2595 0.950 . S
C2584 H2576 0.950 . S
C2584 C2585 1.386 . S
C2584 C2586 1.391 . S
C2585 C2584 1.386 . S
C2585 C2589 1.393 . S
C2586 H2578 0.950 . S
C2586 C2584 1.391 . S
C2586 C2587 1.400 . S
C2587 C2586 1.400 . S
C2587 C2588 1.398 . S
C2587 C2593 1.491 . S
C2588 H2579 0.950 . S
C2588 C2587 1.398 . S
C2588 C2589 1.391 . S
C2589 H2577 0.950 . S
C2589 C2585 1.393 . S
C2589 C2588 1.391 . S
C2590 H2580 0.950 . S
C2590 C2591 1.386 . S
C2590 C2592 1.391 . S
C2591 C2590 1.386 . S
C2591 C2595 1.393 . S
C2592 H2581 0.950 . S
C2592 C2590 1.391 . S
C2592 C2593 1.400 . S
C2593 C2587 1.491 . S
C2593 C2592 1.400 . S
C2593 C2594 1.398 . S
C2594 H2582 0.950 . S
C2594 C2593 1.398 . S
C2594 C2595 1.391 . S
C2595 H2583 0.950 . S
C2595 C2591 1.393 . S
C2595 C2594 1.391 . S
H2596 C2604 0.950 . S
H2597 C2609 0.950 . S
H2598 C2606 0.950 . S
H2599 C2608 0.950 . S
H2600 C2610 0.950 . S
H2601 C2612 0.950 . S
H2602 C2614 0.950 . S
H2603 C2615 0.950 . S
C2604 H2596 0.950 . S
C2604 C2605 1.386 . S
C2604 C2606 1.391 . S
C2605 C2604 1.386 . S
C2605 C2609 1.393 . S
C2606 H2598 0.950 . S
C2606 C2604 1.391 . S
C2606 C2607 1.400 . S
C2607 C2606 1.400 . S
C2607 C2608 1.398 . S
C2607 C2613 1.491 . S
C2608 H2599 0.950 . S
C2608 C2607 1.398 . S
C2608 C2609 1.391 . S
C2609 H2597 0.950 . S
C2609 C2605 1.393 . S
C2609 C2608 1.391 . S
C2610 H2600 0.950 . S
C2610 C2611 1.386 . S
C2610 C2612 1.391 . S
C2611 C2610 1.386 . S
C2611 C2615 1.393 . S
C2612 H2601 0.950 . S
C2612 C2610 1.391 . S
C2612 C2613 1.400 . S
C2613 C2607 1.491 . S
C2613 C2612 1.400 . S
C2613 C2614 1.398 . S
C2614 H2602 0.950 . S
C2614 C2613 1.398 . S
C2614 C2615 1.391 . S
C2615 H2603 0.950 . S
C2615 C2611 1.393 . S
C2615 C2614 1.391 . S
H2616 C2624 0.950 . S
H2617 C2629 0.950 . S
H2618 C2626 0.950 . S
H2619 C2628 0.950 . S
H2620 C2630 0.950 . S
H2621 C2632 0.950 . S
H2622 C2634 0.920 1_455 S
H2623 C2635 0.950 . S
C2624 H2616 0.950 . S
C2624 C2625 1.386 . S
C2624 C2626 1.391 . S
C2625 C2624 1.386 . S
C2625 C2629 1.393 . S
C2626 H2618 0.950 . S
C2626 C2624 1.391 . S
C2626 C2627 1.400 . S
C2627 C2626 1.400 . S
C2627 C2628 1.398 . S
C2627 C2633 1.491 . S
C2628 H2619 0.950 . S
C2628 C2627 1.398 . S
C2628 C2629 1.391 . S
C2629 H2617 0.950 . S
C2629 C2625 1.393 . S
C2629 C2628 1.391 . S
C2630 H2620 0.950 . S
C2630 C2631 1.386 . S
C2630 C2632 1.391 . S
C2631 C2630 1.386 . S
C2631 C2635 1.393 1_655 S
C2632 H2621 0.950 . S
C2632 C2630 1.391 . S
C2632 C2633 1.400 . S
C2633 C2627 1.491 . S
C2633 C2632 1.400 . S
C2633 C2634 1.398 . S
C2634 H2622 0.920 1_655 S
C2634 C2633 1.398 . S
C2634 C2635 1.391 1_655 S
C2635 H2623 0.950 . S
C2635 C2631 1.393 1_455 S
C2635 C2634 1.391 1_455 S
H2636 C2644 0.950 . S
H2637 C2649 0.950 . S
H2638 C2646 0.950 . S
H2639 C2648 0.950 . S
H2640 C2650 0.950 . S
H2641 C2652 0.950 . S
H2642 C2654 0.950 . S
H2643 C2655 0.950 . S
C2644 H2636 0.950 . S
C2644 C2645 1.386 . S
C2644 C2646 1.391 . S
C2645 C2644 1.386 . S
C2645 C2649 1.393 . S
C2646 H2638 0.950 . S
C2646 C2644 1.391 . S
C2646 C2647 1.400 . S
C2647 C2646 1.400 . S
C2647 C2648 1.398 . S
C2647 C2653 1.491 . S
C2648 H2639 0.950 . S
C2648 C2647 1.398 . S
C2648 C2649 1.391 . S
C2649 H2637 0.950 . S
C2649 C2645 1.393 . S
C2649 C2648 1.391 . S
C2650 H2640 0.950 . S
C2650 C2651 1.386 . S
C2650 C2652 1.391 . S
C2651 C2650 1.386 . S
C2651 C2655 1.393 . S
C2652 H2641 0.950 . S
C2652 C2650 1.391 . S
C2652 C2653 1.400 . S
C2653 C2647 1.491 . S
C2653 C2652 1.400 . S
C2653 C2654 1.398 . S
C2654 H2642 0.950 . S
C2654 C2653 1.398 . S
C2654 C2655 1.391 . S
C2655 H2643 0.950 . S
C2655 C2651 1.393 . S
C2655 C2654 1.391 . S
H2656 C2664 0.950 . S
H2657 C2669 0.950 . S
H2658 C2666 0.950 . S
H2659 C2668 0.950 . S
H2660 C2670 0.950 . S
H2661 C2672 0.950 . S
H2662 C2674 0.950 . S
H2663 C2675 0.950 . S
C2664 H2656 0.950 . S
C2664 C2665 1.386 . S
C2664 C2666 1.391 . S
C2665 C2664 1.386 . S
C2665 C2669 1.393 . S
C2666 H2658 0.950 . S
C2666 C2664 1.391 . S
C2666 C2667 1.400 . S
C2667 C2666 1.400 . S
C2667 C2668 1.398 . S
C2667 C2673 1.491 . S
C2668 H2659 0.950 . S
C2668 C2667 1.398 . S
C2668 C2669 1.391 . S
C2669 H2657 0.950 . S
C2669 C2665 1.393 . S
C2669 C2668 1.391 . S
C2670 H2660 0.950 . S
C2670 C2671 1.386 . S
C2670 C2672 1.391 . S
C2671 C2670 1.386 . S
C2671 C2675 1.393 . S
C2672 H2661 0.950 . S
C2672 C2670 1.391 . S
C2672 C2673 1.400 . S
C2673 C2667 1.491 . S
C2673 C2672 1.400 . S
C2673 C2674 1.398 . S
C2674 H2662 0.950 . S
C2674 C2673 1.398 . S
C2674 C2675 1.391 . S
C2675 H2663 0.950 . S
C2675 C2671 1.393 . S
C2675 C2674 1.391 . S
H2676 C2684 0.950 . S
H2677 C2689 0.950 . S
H2678 C2686 0.950 . S
H2679 C2688 0.950 . S
H2680 C2690 0.950 . S
H2681 C2692 0.950 . S
H2682 C2694 0.950 . S
H2683 C2695 0.950 . S
C2684 H2676 0.950 . S
C2684 C2685 1.386 . S
C2684 C2686 1.391 . S
C2685 C2684 1.386 . S
C2685 C2689 1.393 . S
C2686 H2678 0.950 . S
C2686 C2684 1.391 . S
C2686 C2687 1.400 . S
C2687 C2686 1.400 . S
C2687 C2688 1.398 . S
C2687 C2693 1.491 . S
C2688 H2679 0.950 . S
C2688 C2687 1.398 . S
C2688 C2689 1.391 . S
C2689 H2677 0.950 . S
C2689 C2685 1.393 . S
C2689 C2688 1.391 . S
C2690 H2680 0.950 . S
C2690 C2691 1.386 . S
C2690 C2692 1.391 . S
C2691 C2690 1.386 . S
C2691 C2695 1.393 . S
C2692 H2681 0.950 . S
C2692 C2690 1.391 . S
C2692 C2693 1.400 . S
C2693 C2687 1.491 . S
C2693 C2692 1.400 . S
C2693 C2694 1.398 . S
C2694 H2682 0.950 . S
C2694 C2693 1.398 . S
C2694 C2695 1.391 . S
C2695 H2683 0.950 . S
C2695 C2691 1.393 . S
C2695 C2694 1.391 . S
H2696 C2704 0.950 . S
H2697 C2709 0.950 . S
H2698 C2706 0.950 . S
H2699 C2708 0.950 . S
H2700 C2710 0.950 . S
H2701 C2712 0.950 . S
H2702 C2714 0.950 . S
H2703 C2715 0.950 1_455 S
C2704 H2696 0.950 . S
C2704 C2705 1.386 . S
C2704 C2706 1.391 . S
C2705 C2704 1.386 . S
C2705 C2709 1.393 . S
C2706 H2698 0.950 . S
C2706 C2704 1.391 . S
C2706 C2707 1.400 . S
C2707 C2706 1.400 . S
C2707 C2708 1.398 . S
C2707 C2713 1.491 . S
C2708 H2699 0.950 . S
C2708 C2707 1.398 . S
C2708 C2709 1.391 . S
C2709 H2697 0.950 . S
C2709 C2705 1.393 . S
C2709 C2708 1.391 . S
C2710 H2700 0.950 . S
C2710 C2711 1.386 . S
C2710 C2712 1.391 . S
C2711 C2710 1.386 . S
C2711 C2715 1.393 . S
C2712 H2701 0.950 . S
C2712 C2710 1.391 . S
C2712 C2713 1.400 . S
C2713 C2707 1.491 . S
C2713 C2712 1.400 . S
C2713 C2714 1.398 . S
C2714 H2702 0.950 . S
C2714 C2713 1.398 . S
C2714 C2715 1.391 . S
C2715 H2703 0.950 1_655 S
C2715 C2711 1.393 . S
C2715 C2714 1.391 . S
H2716 C2724 0.950 . S
H2717 C2729 0.950 . S
H2718 C2726 0.950 . S
H2719 C2728 0.950 . S
H2720 C2730 0.950 . S
H2721 C2732 0.950 . S
H2722 C2734 0.950 . S
H2723 C2735 0.950 . S
C2724 H2716 0.950 . S
C2724 C2725 1.386 . S
C2724 C2726 1.391 . S
C2725 C2724 1.386 . S
C2725 C2729 1.393 . S
C2726 H2718 0.950 . S
C2726 C2724 1.391 . S
C2726 C2727 1.400 . S
C2727 C2726 1.400 . S
C2727 C2728 1.398 . S
C2727 C2733 1.491 . S
C2728 H2719 0.950 . S
C2728 C2727 1.398 . S
C2728 C2729 1.391 . S
C2729 H2717 0.950 . S
C2729 C2725 1.393 . S
C2729 C2728 1.391 . S
C2730 H2720 0.950 . S
C2730 C2731 1.386 . S
C2730 C2732 1.391 . S
C2731 C2730 1.386 . S
C2731 C2735 1.393 . S
C2732 H2721 0.950 . S
C2732 C2730 1.391 . S
C2732 C2733 1.400 . S
C2733 C2727 1.491 . S
C2733 C2732 1.400 . S
C2733 C2734 1.398 . S
C2734 H2722 0.950 . S
C2734 C2733 1.398 . S
C2734 C2735 1.391 . S
C2735 H2723 0.950 . S
C2735 C2731 1.393 . S
C2735 C2734 1.391 . S
H2736 C2744 0.950 . S
H2737 C2749 0.950 . S
H2738 C2746 0.950 . S
H2739 C2748 0.950 . S
H2740 C2750 0.950 . S
H2741 C2752 0.950 . S
H2742 C2754 0.950 . S
H2743 C2755 0.950 . S
C2744 H2736 0.950 . S
C2744 C2745 1.386 . S
C2744 C2746 1.391 . S
C2745 C2744 1.386 . S
C2745 C2749 1.393 . S
C2746 H2738 0.950 . S
C2746 C2744 1.391 . S
C2746 C2747 1.400 . S
C2747 C2746 1.400 . S
C2747 C2748 1.398 . S
C2747 C2753 1.491 . S
C2748 H2739 0.950 . S
C2748 C2747 1.398 . S
C2748 C2749 1.391 . S
C2749 H2737 0.950 . S
C2749 C2745 1.393 . S
C2749 C2748 1.391 . S
C2750 H2740 0.950 . S
C2750 C2751 1.386 . S
C2750 C2752 1.391 . S
C2751 C2750 1.386 . S
C2751 C2755 1.393 . S
C2752 H2741 0.950 . S
C2752 C2750 1.391 . S
C2752 C2753 1.400 . S
C2753 C2747 1.491 . S
C2753 C2752 1.400 . S
C2753 C2754 1.398 . S
C2754 H2742 0.950 . S
C2754 C2753 1.398 . S
C2754 C2755 1.391 . S
C2755 H2743 0.950 . S
C2755 C2751 1.393 . S
C2755 C2754 1.391 . S
H2756 C2764 0.950 . S
H2757 C2769 0.950 . S
H2758 C2766 0.950 . S
H2759 C2768 0.950 . S
H2760 C2770 0.950 1_545 S
H2761 C2772 0.950 . S
H2762 C2774 0.950 . S
H2763 C2775 0.950 . S
C2764 H2756 0.950 . S
C2764 C2765 1.386 . S
C2764 C2766 1.391 . S
C2765 C2764 1.386 . S
C2765 C2769 1.393 . S
C2766 H2758 0.950 . S
C2766 C2764 1.391 . S
C2766 C2767 1.400 . S
C2767 C2766 1.400 . S
C2767 C2768 1.398 . S
C2767 C2773 1.491 . S
C2768 H2759 0.950 . S
C2768 C2767 1.398 . S
C2768 C2769 1.391 . S
C2769 H2757 0.950 . S
C2769 C2765 1.393 . S
C2769 C2768 1.391 . S
C2770 H2760 0.950 1_565 S
C2770 C2771 1.386 . S
C2770 C2772 1.391 . S
C2771 C2770 1.386 . S
C2771 C2775 1.393 . S
C2772 H2761 0.950 . S
C2772 C2770 1.391 . S
C2772 C2773 1.400 . S
C2773 C2767 1.491 . S
C2773 C2772 1.400 . S
C2773 C2774 1.398 . S
C2774 H2762 0.950 . S
C2774 C2773 1.398 . S
C2774 C2775 1.391 . S
C2775 H2763 0.950 . S
C2775 C2771 1.393 . S
C2775 C2774 1.391 . S
H2776 C2784 0.950 . S
H2777 C2789 0.950 . S
H2778 C2786 0.950 . S
H2779 C2788 0.950 . S
H2780 C2790 0.950 . S
H2781 C2792 0.950 . S
H2782 C2794 0.950 . S
H2783 C2795 0.950 . S
C2784 H2776 0.950 . S
C2784 C2785 1.386 . S
C2784 C2786 1.391 . S
C2785 C2784 1.386 . S
C2785 C2789 1.393 . S
C2786 H2778 0.950 . S
C2786 C2784 1.391 . S
C2786 C2787 1.400 . S
C2787 C2786 1.400 . S
C2787 C2788 1.398 . S
C2787 C2793 1.491 . S
C2788 H2779 0.950 . S
C2788 C2787 1.398 . S
C2788 C2789 1.391 . S
C2789 H2777 0.950 . S
C2789 C2785 1.393 . S
C2789 C2788 1.391 . S
C2790 H2780 0.950 . S
C2790 C2791 1.386 . S
C2790 C2792 1.391 . S
C2791 C2790 1.386 . S
C2791 C2795 1.393 . S
C2792 H2781 0.950 . S
C2792 C2790 1.391 . S
C2792 C2793 1.400 . S
C2793 C2787 1.491 . S
C2793 C2792 1.400 . S
C2793 C2794 1.398 . S
C2794 H2782 0.950 . S
C2794 C2793 1.398 . S
C2794 C2795 1.391 . S
C2795 H2783 0.950 . S
C2795 C2791 1.393 . S
C2795 C2794 1.391 . S
H2796 C2804 0.950 . S
H2797 C2809 0.950 . S
H2798 C2806 0.950 . S
H2799 C2808 0.950 . S
H2800 C2810 0.950 . S
H2801 C2812 0.950 . S
H2802 C2814 0.950 . S
H2803 C2815 0.950 . S
C2804 H2796 0.950 . S
C2804 C2805 1.386 . S
C2804 C2806 1.391 . S
C2805 C2804 1.386 . S
C2805 C2809 1.393 . S
C2806 H2798 0.950 . S
C2806 C2804 1.391 . S
C2806 C2807 1.400 . S
C2807 C2806 1.400 . S
C2807 C2808 1.398 . S
C2807 C2813 1.491 . S
C2808 H2799 0.950 . S
C2808 C2807 1.398 . S
C2808 C2809 1.391 . S
C2809 H2797 0.950 . S
C2809 C2805 1.393 . S
C2809 C2808 1.391 . S
C2810 H2800 0.950 . S
C2810 C2811 1.386 . S
C2810 C2812 1.391 . S
C2811 C2810 1.386 . S
C2811 C2815 1.393 . S
C2812 H2801 0.950 . S
C2812 C2810 1.391 . S
C2812 C2813 1.400 . S
C2813 C2807 1.491 . S
C2813 C2812 1.400 . S
C2813 C2814 1.398 . S
C2814 H2802 0.950 . S
C2814 C2813 1.398 . S
C2814 C2815 1.391 . S
C2815 H2803 0.950 . S
C2815 C2811 1.393 . S
C2815 C2814 1.391 . S
H2816 C2824 0.950 . S
H2817 C2829 0.950 . S
H2818 C2826 0.950 . S
H2819 C2828 0.950 . S
H2820 C2830 0.950 . S
H2821 C2832 0.950 . S
H2822 C2834 0.950 . S
H2823 C2835 0.950 . S
C2824 H2816 0.950 . S
C2824 C2825 1.386 . S
C2824 C2826 1.391 . S
C2825 C2824 1.386 . S
C2825 C2829 1.393 . S
C2826 H2818 0.950 . S
C2826 C2824 1.391 . S
C2826 C2827 1.400 . S
C2827 C2826 1.400 . S
C2827 C2828 1.398 . S
C2827 C2833 1.491 . S
C2828 H2819 0.950 . S
C2828 C2827 1.398 . S
C2828 C2829 1.391 . S
C2829 H2817 0.950 . S
C2829 C2825 1.393 . S
C2829 C2828 1.391 . S
C2830 H2820 0.950 . S
C2830 C2831 1.386 . S
C2830 C2832 1.391 . S
C2831 C2830 1.386 . S
C2831 C2835 1.393 . S
C2832 H2821 0.950 . S
C2832 C2830 1.391 . S
C2832 C2833 1.400 . S
C2833 C2827 1.491 . S
C2833 C2832 1.400 . S
C2833 C2834 1.398 . S
C2834 H2822 0.950 . S
C2834 C2833 1.398 . S
C2834 C2835 1.391 . S
C2835 H2823 0.950 . S
C2835 C2831 1.393 . S
C2835 C2834 1.391 . S
H2836 C2844 0.950 . S
H2837 C2849 0.950 . S
H2838 C2846 0.950 . S
H2839 C2848 0.950 . S
H2840 C2850 0.950 . S
H2841 C2852 0.950 . S
H2842 C2854 0.950 . S
H2843 C2855 0.950 . S
C2844 H2836 0.950 . S
C2844 C2845 1.386 . S
C2844 C2846 1.391 . S
C2845 C2844 1.386 . S
C2845 C2849 1.393 . S
C2846 H2838 0.950 . S
C2846 C2844 1.391 . S
C2846 C2847 1.400 . S
C2847 C2846 1.400 . S
C2847 C2848 1.398 . S
C2847 C2853 1.491 . S
C2848 H2839 0.950 . S
C2848 C2847 1.398 . S
C2848 C2849 1.391 . S
C2849 H2837 0.950 . S
C2849 C2845 1.393 . S
C2849 C2848 1.391 . S
C2850 H2840 0.950 . S
C2850 C2851 1.386 . S
C2850 C2852 1.391 . S
C2851 C2850 1.386 . S
C2851 C2855 1.393 . S
C2852 H2841 0.950 . S
C2852 C2850 1.391 . S
C2852 C2853 1.400 . S
C2853 C2847 1.491 . S
C2853 C2852 1.400 . S
C2853 C2854 1.398 . S
C2854 H2842 0.950 . S
C2854 C2853 1.398 . S
C2854 C2855 1.391 . S
C2855 H2843 0.950 . S
C2855 C2851 1.393 . S
C2855 C2854 1.391 . S
H2856 C2864 0.950 . S
H2857 C2869 0.950 . S
H2858 C2866 0.950 . S
H2859 C2868 0.950 . S
H2860 C2870 0.950 . S
H2861 C2872 0.950 . S
H2862 C2874 0.950 . S
H2863 C2875 0.950 . S
C2864 H2856 0.950 . S
C2864 C2865 1.386 . S
C2864 C2866 1.391 . S
C2865 C2864 1.386 . S
C2865 C2869 1.393 . S
C2866 H2858 0.950 . S
C2866 C2864 1.391 . S
C2866 C2867 1.400 . S
C2867 C2866 1.400 . S
C2867 C2868 1.398 . S
C2867 C2873 1.491 . S
C2868 H2859 0.950 . S
C2868 C2867 1.398 . S
C2868 C2869 1.391 . S
C2869 H2857 0.950 . S
C2869 C2865 1.393 . S
C2869 C2868 1.391 . S
C2870 H2860 0.950 . S
C2870 C2871 1.386 . S
C2870 C2872 1.391 . S
C2871 C2870 1.386 . S
C2871 C2875 1.393 . S
C2872 H2861 0.950 . S
C2872 C2870 1.391 . S
C2872 C2873 1.400 . S
C2873 C2867 1.491 . S
C2873 C2872 1.400 . S
C2873 C2874 1.398 . S
C2874 H2862 0.950 . S
C2874 C2873 1.398 . S
C2874 C2875 1.391 . S
C2875 H2863 0.950 . S
C2875 C2871 1.393 . S
C2875 C2874 1.391 . S
H2876 C2884 0.950 . S
H2877 C2889 0.950 . S
H2878 C2886 0.950 . S
H2879 C2888 0.950 . S
H2880 C2890 0.950 . S
H2881 C2892 0.950 . S
H2882 C2894 0.950 . S
H2883 C2895 0.950 . S
C2884 H2876 0.950 . S
C2884 C2885 1.386 . S
C2884 C2886 1.391 . S
C2885 C2884 1.386 . S
C2885 C2889 1.393 . S
C2886 H2878 0.950 . S
C2886 C2884 1.391 . S
C2886 C2887 1.400 . S
C2887 C2886 1.400 . S
C2887 C2888 1.398 . S
C2887 C2893 1.491 . S
C2888 H2879 0.950 . S
C2888 C2887 1.398 . S
C2888 C2889 1.391 . S
C2889 H2877 0.950 . S
C2889 C2885 1.393 . S
C2889 C2888 1.391 . S
C2890 H2880 0.950 . S
C2890 C2891 1.386 . S
C2890 C2892 1.391 . S
C2891 C2890 1.386 . S
C2891 C2895 1.393 . S
C2892 H2881 0.950 . S
C2892 C2890 1.391 . S
C2892 C2893 1.400 . S
C2893 C2887 1.491 . S
C2893 C2892 1.400 . S
C2893 C2894 1.398 . S
C2894 H2882 0.950 . S
C2894 C2893 1.398 . S
C2894 C2895 1.391 . S
C2895 H2883 0.950 . S
C2895 C2891 1.393 . S
C2895 C2894 1.391 . S
C985 C111 2.226 . S
C991 C346 2.196 . S
C1005 C64 1.985 . S
C1011 C394 2.049 . S
C1025 C77 1.229 . S
C1031 C426 1.222 . S
C1051 C471 1.377 . S
C1045 C95 1.411 . S
C1065 C25 0.740 . S
C1071 C511 0.737 . S
C1091 C546 0.902 . S
C1085 C36 0.859 . S
C1111 C585 1.213 . S
C1105 C50 1.199 . S
C1125 C11 1.126 . S
C1131 C622 1.116 . S
C1151 C354 1.981 . S
C1145 C237 1.910 1_545 S
C1165 C245 0.469 . S
C1171 C391 0.534 . S
C1191 C434 2.301 . S
C1185 C279 2.173 . S
C1211 C466 1.005 . S
C1205 C175 1.024 1_556 S
C1225 C231 1.157 . S
C1231 C506 1.154 . S
C1251 C554 0.430 . S
C1245 C251 0.655 . S
C1271 C595 1.932 1_556 S
C1265 C273 2.031 . S
C1291 C625 1.965 . S
C1285 C181 1.911 . S
C1311 C351 1.280 . S
C1305 C165 1.342 1_554 S
C1325 C288 2.063 . S
C1331 C674 2.124 . S
C1351 C711 1.102 . S
C1345 C333 1.127 . S
C1371 C742 0.716 . S
C1365 C316 0.672 . S
C1385 C123 2.647 . S
C1391 C635 2.615 . S
C1405 C137 1.301 . S
C1411 C431 1.271 . S
C1425 C330 1.646 . S
C1431 C794 1.702 . S
C1451 C826 1.800 . S
C1445 C302 1.789 . S
C1471 C355 2.291 . S
C1465 C63 2.353 . S
C1491 C825 2.106 . S
C1485 C106 2.101 . S
C1505 C97 1.253 . S
C1511 C435 1.317 . S
C1525 C81 1.460 . S
C1531 C782 1.457 . S
C1551 C502 0.879 . S
C1545 C13 0.857 . S
C1565 C55 0.957 . S
C1571 C715 1.007 . S
C1591 C594 1.119 . S
C1585 C35 1.113 . S
C1611 C871 1.276 . S
C1605 C21 1.286 . S
C1631 C345 2.105 1_556 S
C1625 C147 2.110 . S
C1651 C822 0.448 . S
C1645 C321 0.567 . S
C1665 C119 2.386 . S
C1671 C425 2.363 . S
C1685 C293 1.098 . S
C1691 C795 1.169 . S
C1705 C153 1.287 . S
C1711 C515 1.327 . S
C1731 C705 0.463 . S
C1725 C315 0.488 . S
C1745 C125 1.908 . S
C1751 C586 1.987 . S
C1765 C287 2.060 1_556 S
C1771 C874 2.045 . S
C1785 C193 1.310 . S
C1791 C342 1.311 . S
C1805 C176 2.178 . S
C1811 C665 2.175 . S
C1825 C263 1.119 . S
C1831 C542 1.123 . S
C1845 C246 0.652 . S
C1851 C751 0.625 . S
C1871 C866 2.733 . S
C1865 C277 2.782 . S
C1885 C221 1.340 . S
C1891 C422 1.340 . S
C1911 C465 1.749 . S
C1905 C260 1.762 . S
C1931 C395 1.903 . S
C1925 C204 1.775 . S
C1945 C83 2.228 . S
C1951 C906 2.202 . S
C1971 C834 2.048 . S
C1965 C92 1.984 . S
C1985 C105 1.235 . S
C1991 C946 1.214 . S
C2005 C67 1.452 . S
C2011 C791 1.370 . S
C2025 C53 0.742 . S
C2031 C671 0.722 . S
C2051 C706 0.900 . S
C2045 C8 0.845 . S
C2071 C745 1.208 . S
C2065 C22 1.197 . S
C2091 C862 1.117 . S
C2085 C39 1.116 . S
C2111 C914 1.977 . S
C2105 C265 1.918 . S
C2125 C189 0.384 . S
C2131 C831 0.453 . S
C2151 C954 2.303 . S
C2145 C209 2.167 . S
C2171 C786 1.004 . S
C2165 C217 1.024 . S
C2191 C666 1.156 . S
C2185 C259 1.158 . S
C2205 C195 0.664 . S
C2211 C714 0.377 . S
C2231 C755 1.959 . S
C2225 C203 2.031 . S
C2245 C223 1.907 . S
C2251 C865 1.958 . S
C2271 C911 1.305 . S
C2265 C319 1.360 . S
C2285 C134 2.079 . S
C2291 C514 2.133 . S
C2311 C551 1.103 . S
C2305 C151 1.127 . S
C2331 C582 0.717 . S
C2325 C162 0.680 . S
C2351 C875 2.616 . S
C2345 C305 2.647 . S
C2365 C291 1.301 . S
C2371 C951 1.292 . S
C2391 C474 1.712 . S
C2385 C148 1.665 . S
C2411 C386 1.796 . S
C2405 C120 1.798 . S
C2425 C91 2.359 . S
C2431 C915 2.287 . S
C2451 C385 2.102 . S
C2445 C78 2.093 . S
C2465 C69 1.254 . S
C2471 C955 1.309 . S
C2485 C109 1.461 . S
C2491 C462 1.452 . S
C2505 C41 0.841 . S
C2511 C662 0.872 . S
C2531 C555 0.999 . S
C2525 C27 0.981 . S
C2545 C7 1.120 . S
C2551 C754 1.118 . S
C2565 C49 1.274 . S
C2571 C631 1.271 . S
C2591 C905 2.104 . S
C2585 C329 2.113 . S
C2605 C167 0.564 . S
C2611 C382 0.433 . S
C2631 C945 2.400 1_655 S
C2625 C301 2.386 . S
C2645 C139 1.107 . S
C2651 C475 1.157 . S
C2665 C335 1.289 . S
C2671 C675 1.320 . S
C2691 C545 0.468 . S
C2685 C161 0.497 . S
C2705 C307 1.911 . S
C2711 C746 1.974 1_655 S
C2731 C634 2.039 . S
C2725 C133 2.061 . S
C2751 C902 1.300 . S
C2745 C249 1.304 . S
C2771 C505 2.170 1_565 S
C2765 C218 2.175 . S
C2785 C235 1.122 . S
C2791 C702 1.126 . S
C2811 C591 0.617 . S
C2805 C190 0.648 . S
C2825 C207 2.785 . S
C2831 C626 2.739 . S
C2845 C179 1.340 . S
C2851 C942 1.341 . S
C2871 C785 1.745 . S
C2865 C232 1.754 . S
C2891 C835 1.902 . S
C2885 C274 1.786 . S
