# Generated by pormake.
# Topology gar, (4,6)-cn, num edge types: 1
# Building blocks:
#     Node 0, Type 0, BuildingBlock: CEKHIL_clean_sbu_0, # of connection points: 4
#     Node 1, Type 0, BuildingBlock: CEKHIL_clean_sbu_0, # of connection points: 4
#     Node 2, Type 0, BuildingBlock: CEKHIL_clean_sbu_0, # of connection points: 4
#     Node 3, Type 0, BuildingBlock: CEKHIL_clean_sbu_0, # of connection points: 4
#     Node 4, Type 0, BuildingBlock: CEKHIL_clean_sbu_0, # of connection points: 4
#     Node 5, Type 0, BuildingBlock: CEKHIL_clean_sbu_0, # of connection points: 4
#     Node 6, Type 0, BuildingBlock: CEKHIL_clean_sbu_0, # of connection points: 4
#     Node 7, Type 0, BuildingBlock: CEKHIL_clean_sbu_0, # of connection points: 4
#     Node 8, Type 0, BuildingBlock: CEKHIL_clean_sbu_0, # of connection points: 4
#     Node 9, Type 0, BuildingBlock: CEKHIL_clean_sbu_0, # of connection points: 4
#     Node 10, Type 0, BuildingBlock: CEKHIL_clean_sbu_0, # of connection points: 4
#     Node 11, Type 0, BuildingBlock: CEKHIL_clean_sbu_0, # of connection points: 4
#     Node 12, Type 0, BuildingBlock: CEKHIL_clean_sbu_0, # of connection points: 4
#     Node 13, Type 0, BuildingBlock: CEKHIL_clean_sbu_0, # of connection points: 4
#     Node 14, Type 0, BuildingBlock: CEKHIL_clean_sbu_0, # of connection points: 4
#     Node 15, Type 0, BuildingBlock: CEKHIL_clean_sbu_0, # of connection points: 4
#     Node 16, Type 0, BuildingBlock: CEKHIL_clean_sbu_0, # of connection points: 4
#     Node 17, Type 0, BuildingBlock: CEKHIL_clean_sbu_0, # of connection points: 4
#     Node 18, Type 0, BuildingBlock: CEKHIL_clean_sbu_0, # of connection points: 4
#     Node 19, Type 0, BuildingBlock: CEKHIL_clean_sbu_0, # of connection points: 4
#     Node 20, Type 0, BuildingBlock: CEKHIL_clean_sbu_0, # of connection points: 4
#     Node 21, Type 0, BuildingBlock: CEKHIL_clean_sbu_0, # of connection points: 4
#     Node 22, Type 0, BuildingBlock: CEKHIL_clean_sbu_0, # of connection points: 4
#     Node 23, Type 0, BuildingBlock: CEKHIL_clean_sbu_0, # of connection points: 4
#     Node 24, Type 1, BuildingBlock: BETDEL_clean_sbu_0, # of connection points: 6
#     Node 25, Type 1, BuildingBlock: BETDEL_clean_sbu_0, # of connection points: 6
#     Node 26, Type 1, BuildingBlock: BETDEL_clean_sbu_0, # of connection points: 6
#     Node 27, Type 1, BuildingBlock: BETDEL_clean_sbu_0, # of connection points: 6
#     Node 28, Type 1, BuildingBlock: BETDEL_clean_sbu_0, # of connection points: 6
#     Node 29, Type 1, BuildingBlock: BETDEL_clean_sbu_0, # of connection points: 6
#     Node 30, Type 1, BuildingBlock: BETDEL_clean_sbu_0, # of connection points: 6
#     Node 31, Type 1, BuildingBlock: BETDEL_clean_sbu_0, # of connection points: 6
#     Node 32, Type 1, BuildingBlock: BETDEL_clean_sbu_0, # of connection points: 6
#     Node 33, Type 1, BuildingBlock: BETDEL_clean_sbu_0, # of connection points: 6
#     Node 34, Type 1, BuildingBlock: BETDEL_clean_sbu_0, # of connection points: 6
#     Node 35, Type 1, BuildingBlock: BETDEL_clean_sbu_0, # of connection points: 6
#     Node 36, Type 1, BuildingBlock: BETDEL_clean_sbu_0, # of connection points: 6
#     Node 37, Type 1, BuildingBlock: BETDEL_clean_sbu_0, # of connection points: 6
#     Node 38, Type 1, BuildingBlock: BETDEL_clean_sbu_0, # of connection points: 6
#     Node 39, Type 1, BuildingBlock: BETDEL_clean_sbu_0, # of connection points: 6
#     Edge 40, Type (0, 1), BuildingBlock: TEMPAE_clean_linker_10, # of connection points: 2
#     Edge 41, Type (0, 1), BuildingBlock: TEMPAE_clean_linker_10, # of connection points: 2
#     Edge 42, Type (0, 1), BuildingBlock: TEMPAE_clean_linker_10, # of connection points: 2
#     Edge 43, Type (0, 1), BuildingBlock: TEMPAE_clean_linker_10, # of connection points: 2
#     Edge 44, Type (0, 1), BuildingBlock: TEMPAE_clean_linker_10, # of connection points: 2
#     Edge 45, Type (0, 1), BuildingBlock: TEMPAE_clean_linker_10, # of connection points: 2
#     Edge 46, Type (0, 1), BuildingBlock: TEMPAE_clean_linker_10, # of connection points: 2
#     Edge 47, Type (0, 1), BuildingBlock: TEMPAE_clean_linker_10, # of connection points: 2
#     Edge 48, Type (0, 1), BuildingBlock: TEMPAE_clean_linker_10, # of connection points: 2
#     Edge 49, Type (0, 1), BuildingBlock: TEMPAE_clean_linker_10, # of connection points: 2
#     Edge 50, Type (0, 1), BuildingBlock: TEMPAE_clean_linker_10, # of connection points: 2
#     Edge 51, Type (0, 1), BuildingBlock: TEMPAE_clean_linker_10, # of connection points: 2
#     Edge 52, Type (0, 1), BuildingBlock: TEMPAE_clean_linker_10, # of connection points: 2
#     Edge 53, Type (0, 1), BuildingBlock: TEMPAE_clean_linker_10, # of connection points: 2
#     Edge 54, Type (0, 1), BuildingBlock: TEMPAE_clean_linker_10, # of connection points: 2
#     Edge 55, Type (0, 1), BuildingBlock: TEMPAE_clean_linker_10, # of connection points: 2
#     Edge 56, Type (0, 1), BuildingBlock: TEMPAE_clean_linker_10, # of connection points: 2
#     Edge 57, Type (0, 1), BuildingBlock: TEMPAE_clean_linker_10, # of connection points: 2
#     Edge 58, Type (0, 1), BuildingBlock: TEMPAE_clean_linker_10, # of connection points: 2
#     Edge 59, Type (0, 1), BuildingBlock: TEMPAE_clean_linker_10, # of connection points: 2
#     Edge 60, Type (0, 1), BuildingBlock: TEMPAE_clean_linker_10, # of connection points: 2
#     Edge 61, Type (0, 1), BuildingBlock: TEMPAE_clean_linker_10, # of connection points: 2
#     Edge 62, Type (0, 1), BuildingBlock: TEMPAE_clean_linker_10, # of connection points: 2
#     Edge 63, Type (0, 1), BuildingBlock: TEMPAE_clean_linker_10, # of connection points: 2
#     Edge 64, Type (0, 1), BuildingBlock: TEMPAE_clean_linker_10, # of connection points: 2
#     Edge 65, Type (0, 1), BuildingBlock: TEMPAE_clean_linker_10, # of connection points: 2
#     Edge 66, Type (0, 1), BuildingBlock: TEMPAE_clean_linker_10, # of connection points: 2
#     Edge 67, Type (0, 1), BuildingBlock: TEMPAE_clean_linker_10, # of connection points: 2
#     Edge 68, Type (0, 1), BuildingBlock: TEMPAE_clean_linker_10, # of connection points: 2
#     Edge 69, Type (0, 1), BuildingBlock: TEMPAE_clean_linker_10, # of connection points: 2
#     Edge 70, Type (0, 1), BuildingBlock: TEMPAE_clean_linker_10, # of connection points: 2
#     Edge 71, Type (0, 1), BuildingBlock: TEMPAE_clean_linker_10, # of connection points: 2
#     Edge 72, Type (0, 1), BuildingBlock: TEMPAE_clean_linker_10, # of connection points: 2
#     Edge 73, Type (0, 1), BuildingBlock: TEMPAE_clean_linker_10, # of connection points: 2
#     Edge 74, Type (0, 1), BuildingBlock: TEMPAE_clean_linker_10, # of connection points: 2
#     Edge 75, Type (0, 1), BuildingBlock: TEMPAE_clean_linker_10, # of connection points: 2
#     Edge 76, Type (0, 1), BuildingBlock: TEMPAE_clean_linker_10, # of connection points: 2
#     Edge 77, Type (0, 1), BuildingBlock: TEMPAE_clean_linker_10, # of connection points: 2
#     Edge 78, Type (0, 1), BuildingBlock: TEMPAE_clean_linker_10, # of connection points: 2
#     Edge 79, Type (0, 1), BuildingBlock: TEMPAE_clean_linker_10, # of connection points: 2
#     Edge 80, Type (0, 1), BuildingBlock: TEMPAE_clean_linker_10, # of connection points: 2
#     Edge 81, Type (0, 1), BuildingBlock: TEMPAE_clean_linker_10, # of connection points: 2
#     Edge 82, Type (0, 1), BuildingBlock: TEMPAE_clean_linker_10, # of connection points: 2
#     Edge 83, Type (0, 1), BuildingBlock: TEMPAE_clean_linker_10, # of connection points: 2
#     Edge 84, Type (0, 1), BuildingBlock: TEMPAE_clean_linker_10, # of connection points: 2
#     Edge 85, Type (0, 1), BuildingBlock: TEMPAE_clean_linker_10, # of connection points: 2
#     Edge 86, Type (0, 1), BuildingBlock: TEMPAE_clean_linker_10, # of connection points: 2
#     Edge 87, Type (0, 1), BuildingBlock: TEMPAE_clean_linker_10, # of connection points: 2
#     Edge 88, Type (0, 1), BuildingBlock: TEMPAE_clean_linker_10, # of connection points: 2
#     Edge 89, Type (0, 1), BuildingBlock: TEMPAE_clean_linker_10, # of connection points: 2
#     Edge 90, Type (0, 1), BuildingBlock: TEMPAE_clean_linker_10, # of connection points: 2
#     Edge 91, Type (0, 1), BuildingBlock: TEMPAE_clean_linker_10, # of connection points: 2
#     Edge 92, Type (0, 1), BuildingBlock: TEMPAE_clean_linker_10, # of connection points: 2
#     Edge 93, Type (0, 1), BuildingBlock: TEMPAE_clean_linker_10, # of connection points: 2
#     Edge 94, Type (0, 1), BuildingBlock: TEMPAE_clean_linker_10, # of connection points: 2
#     Edge 95, Type (0, 1), BuildingBlock: TEMPAE_clean_linker_10, # of connection points: 2
#     Edge 96, Type (0, 1), BuildingBlock: TEMPAE_clean_linker_10, # of connection points: 2
#     Edge 97, Type (0, 1), BuildingBlock: TEMPAE_clean_linker_10, # of connection points: 2
#     Edge 98, Type (0, 1), BuildingBlock: TEMPAE_clean_linker_10, # of connection points: 2
#     Edge 99, Type (0, 1), BuildingBlock: TEMPAE_clean_linker_10, # of connection points: 2
#     Edge 100, Type (0, 1), BuildingBlock: TEMPAE_clean_linker_10, # of connection points: 2
#     Edge 101, Type (0, 1), BuildingBlock: TEMPAE_clean_linker_10, # of connection points: 2
#     Edge 102, Type (0, 1), BuildingBlock: TEMPAE_clean_linker_10, # of connection points: 2
#     Edge 103, Type (0, 1), BuildingBlock: TEMPAE_clean_linker_10, # of connection points: 2
#     Edge 104, Type (0, 1), BuildingBlock: TEMPAE_clean_linker_10, # of connection points: 2
#     Edge 105, Type (0, 1), BuildingBlock: TEMPAE_clean_linker_10, # of connection points: 2
#     Edge 106, Type (0, 1), BuildingBlock: TEMPAE_clean_linker_10, # of connection points: 2
#     Edge 107, Type (0, 1), BuildingBlock: TEMPAE_clean_linker_10, # of connection points: 2
#     Edge 108, Type (0, 1), BuildingBlock: TEMPAE_clean_linker_10, # of connection points: 2
#     Edge 109, Type (0, 1), BuildingBlock: TEMPAE_clean_linker_10, # of connection points: 2
#     Edge 110, Type (0, 1), BuildingBlock: TEMPAE_clean_linker_10, # of connection points: 2
#     Edge 111, Type (0, 1), BuildingBlock: TEMPAE_clean_linker_10, # of connection points: 2
#     Edge 112, Type (0, 1), BuildingBlock: TEMPAE_clean_linker_10, # of connection points: 2
#     Edge 113, Type (0, 1), BuildingBlock: TEMPAE_clean_linker_10, # of connection points: 2
#     Edge 114, Type (0, 1), BuildingBlock: TEMPAE_clean_linker_10, # of connection points: 2
#     Edge 115, Type (0, 1), BuildingBlock: TEMPAE_clean_linker_10, # of connection points: 2
#     Edge 116, Type (0, 1), BuildingBlock: TEMPAE_clean_linker_10, # of connection points: 2
#     Edge 117, Type (0, 1), BuildingBlock: TEMPAE_clean_linker_10, # of connection points: 2
#     Edge 118, Type (0, 1), BuildingBlock: TEMPAE_clean_linker_10, # of connection points: 2
#     Edge 119, Type (0, 1), BuildingBlock: TEMPAE_clean_linker_10, # of connection points: 2
#     Edge 120, Type (0, 1), BuildingBlock: TEMPAE_clean_linker_10, # of connection points: 2
#     Edge 121, Type (0, 1), BuildingBlock: TEMPAE_clean_linker_10, # of connection points: 2
#     Edge 122, Type (0, 1), BuildingBlock: TEMPAE_clean_linker_10, # of connection points: 2
#     Edge 123, Type (0, 1), BuildingBlock: TEMPAE_clean_linker_10, # of connection points: 2
#     Edge 124, Type (0, 1), BuildingBlock: TEMPAE_clean_linker_10, # of connection points: 2
#     Edge 125, Type (0, 1), BuildingBlock: TEMPAE_clean_linker_10, # of connection points: 2
#     Edge 126, Type (0, 1), BuildingBlock: TEMPAE_clean_linker_10, # of connection points: 2
#     Edge 127, Type (0, 1), BuildingBlock: TEMPAE_clean_linker_10, # of connection points: 2
#     Edge 128, Type (0, 1), BuildingBlock: TEMPAE_clean_linker_10, # of connection points: 2
#     Edge 129, Type (0, 1), BuildingBlock: TEMPAE_clean_linker_10, # of connection points: 2
#     Edge 130, Type (0, 1), BuildingBlock: TEMPAE_clean_linker_10, # of connection points: 2
#     Edge 131, Type (0, 1), BuildingBlock: TEMPAE_clean_linker_10, # of connection points: 2
#     Edge 132, Type (0, 1), BuildingBlock: TEMPAE_clean_linker_10, # of connection points: 2
#     Edge 133, Type (0, 1), BuildingBlock: TEMPAE_clean_linker_10, # of connection points: 2
#     Edge 134, Type (0, 1), BuildingBlock: TEMPAE_clean_linker_10, # of connection points: 2
#     Edge 135, Type (0, 1), BuildingBlock: TEMPAE_clean_linker_10, # of connection points: 2
# Relax obj value: 0.142
# Max RMSD: 0.266
# Mean RMSD: 0.142
data_MOF--net-gar--node1-CEKHIL_clean_sbu_0--node2-BETDEL_clean_sbu_0--edge1-TEMPAE_clean_linker_10
_symmetry_space_group_name_H-M    P1
_symmetry_Int_Tables_number       1
_symmetry_cell_setting            triclinic
loop_
_symmetry_equiv_pos_as_xyz
'x, y, z'
_cell_length_a     56.824125
_cell_length_b     53.507435
_cell_length_c     54.340047
_cell_angle_alpha  95.232658
_cell_angle_beta   92.534247
_cell_angle_gamma 100.4032
loop_
_atom_site_label
_atom_site_type_symbol
_atom_site_fract_x
_atom_site_fract_y
_atom_site_fract_z
_atom_type_partial_charge
Co0 Co 0.0456 0.28372 0.39493 0.0
O1 O 0.07901 0.28036 0.39489 0.0
O2 O 0.0524 0.26779 0.3633 0.0
C3 C 0.05227 0.32474 0.41219 0.0
O4 O 0.01035 0.28525 0.38642 0.0
Co5 Co 0.01923 0.29589 0.44215 0.0
O6 O 0.99549 0.30529 0.4186 0.0
C7 C 0.02973 0.24398 0.43053 0.0
C8 C 0.0745 0.27067 0.37197 0.0
C9 C 0.99411 0.29649 0.39591 0.0
O10 O 0.03686 0.24943 0.40903 0.0
O11 O 0.02376 0.26042 0.44652 0.0
O12 O 0.05461 0.31974 0.38864 0.0
O13 O 0.04779 0.30511 0.42447 0.0
Co14 Co 0.99317 0.77901 0.63047 0.0
O15 O 0.95926 0.77874 0.63201 0.0
O16 O 0.98284 0.77236 0.66331 0.0
C17 C 1.00093 0.81525 0.61111 0.0
O18 O 0.02898 0.77822 0.63606 0.0
Co19 Co 0.01586 0.77504 0.57933 0.0
O20 O 0.0461 0.77636 0.59948 0.0
C21 C 0.98624 0.72985 0.59673 0.0
C22 C 0.96151 0.77449 0.65503 0.0
C23 C 0.0472 0.77667 0.62301 0.0
O24 O 0.98686 0.74129 0.61872 0.0
O25 O 0.99389 0.74108 0.57805 0.0
O26 O 0.99963 0.81659 0.635 0.0
O27 O 0.99597 0.79253 0.59987 0.0
Co28 Co 0.54097 0.77979 0.89527 0.0
O29 O 0.57451 0.77729 0.89507 0.0
O30 O 0.54805 0.76471 0.86333 0.0
C31 C 0.54681 0.82038 0.91323 0.0
O32 O 0.50547 0.78068 0.88726 0.0
Co33 Co 0.51514 0.78988 0.94355 0.0
O34 O 0.48786 0.79362 0.92123 0.0
C35 C 0.52801 0.7394 0.93069 0.0
C36 C 0.57017 0.76789 0.87207 0.0
C37 C 0.48744 0.78736 0.89803 0.0
O38 O 0.53317 0.74511 0.90869 0.0
O39 O 0.52283 0.75553 0.94749 0.0
O40 O 0.54913 0.81602 0.88961 0.0
O41 O 0.54294 0.80046 0.92515 0.0
Co42 Co 0.49701 0.27892 0.12745 0.0
O43 O 0.46257 0.27695 0.12559 0.0
O44 O 0.48377 0.26924 0.15816 0.0
C45 C 0.50506 0.31658 0.11069 0.0
O46 O 0.5323 0.27938 0.13749 0.0
Co47 Co 0.52934 0.28312 0.08256 0.0
O48 O 0.55669 0.29145 0.10757 0.0
C49 C 0.49861 0.23349 0.09115 0.0
C50 C 0.46303 0.27129 0.14834 0.0
C51 C 0.55336 0.28563 0.12949 0.0
O52 O 0.4932 0.24218 0.11271 0.0
O53 O 0.51055 0.24755 0.0764 0.0
O54 O 0.50139 0.31642 0.13415 0.0
O55 O 0.50306 0.29455 0.09845 0.0
Co56 Co 0.02944 0.79531 0.14642 0.0
O57 O 0.99475 0.789 0.14352 0.0
O58 O 0.01678 0.78568 0.17725 0.0
C59 C 0.03369 0.83204 0.12803 0.0
O60 O 0.06478 0.8008 0.15787 0.0
Co61 Co 0.06215 0.80006 0.10224 0.0
O62 O 0.08963 0.80691 0.12714 0.0
C63 C 0.03489 0.74964 0.11215 0.0
C64 C 0.99563 0.78462 0.16666 0.0
C65 C 0.08597 0.805 0.14988 0.0
O66 O 0.02971 0.75866 0.13367 0.0
O67 O 0.04527 0.76365 0.09645 0.0
O68 O 0.02979 0.83218 0.15145 0.0
O69 O 0.03427 0.81002 0.11661 0.0
Co70 Co 0.50433 0.76826 0.36967 0.0
O71 O 0.53898 0.77488 0.37391 0.0
O72 O 0.51783 0.75482 0.34045 0.0
C73 C 0.49947 0.80772 0.38459 0.0
O74 O 0.46913 0.7591 0.35698 0.0
Co75 Co 0.47087 0.77171 0.41304 0.0
O76 O 0.44432 0.76537 0.38711 0.0
C77 C 0.49967 0.73111 0.40812 0.0
C78 C 0.53876 0.76365 0.35162 0.0
C79 C 0.44803 0.75948 0.36456 0.0
O80 O 0.50309 0.73511 0.38537 0.0
O81 O 0.48955 0.74548 0.42268 0.0
O82 O 0.50502 0.80351 0.36179 0.0
O83 O 0.49865 0.78874 0.39767 0.0
Co84 Co 0.53215 0.29741 0.64871 0.0
O85 O 0.49765 0.28693 0.64315 0.0
O86 O 0.51823 0.28634 0.6785 0.0
C87 C 0.53345 0.33372 0.6299 0.0
O88 O 0.56661 0.30736 0.66345 0.0
Co89 Co 0.56893 0.30793 0.60912 0.0
O90 O 0.5929 0.32266 0.6366 0.0
C91 C 0.54757 0.25434 0.61738 0.0
C92 C 0.4975 0.28304 0.66644 0.0
C93 C 0.58786 0.31771 0.65842 0.0
O94 O 0.5373 0.26186 0.63674 0.0
O95 O 0.55912 0.26984 0.60356 0.0
O96 O 0.52809 0.33319 0.65289 0.0
O97 O 0.53763 0.31264 0.61914 0.0
Co98 Co 0.00517 0.26655 0.86875 0.0
O99 O 0.03973 0.27151 0.87124 0.0
O100 O 0.01682 0.25219 0.83861 0.0
C101 C 1.00276 0.30653 0.88394 0.0
O102 O 0.9692 0.25937 0.85847 0.0
Co103 Co 0.97518 0.2729 0.91487 0.0
O104 O 0.94942 0.27459 0.88973 0.0
C105 C 1.00058 0.2295 0.90745 0.0
C106 C 0.03829 0.26028 0.84887 0.0
C107 C 0.95022 0.26605 0.86718 0.0
O108 O 1.00337 0.23339 0.88457 0.0
O109 O 0.99176 0.24448 0.92266 0.0
O110 O 0.00693 0.30194 0.86077 0.0
O111 O 1.00206 0.28761 0.89704 0.0
Co112 Co 0.4029 0.05087 0.29629 0.0
O113 O 0.40096 0.08381 0.28498 0.0
O114 O 0.372 0.04965 0.28019 0.0
C115 C 0.41991 0.06587 0.33414 0.0
O116 O 0.39589 0.01479 0.30591 0.0
Co117 Co 0.44855 0.03156 0.31281 0.0
O118 O 0.42715 0.00107 0.32301 0.0
C119 C 0.43757 0.03612 0.2597 0.0
C120 C 0.37909 0.07348 0.277 0.0
C121 C 0.40492 0.99802 0.31664 0.0
O122 O 0.41626 0.0397 0.26412 0.0
O123 O 0.45335 0.03471 0.27684 0.0
O124 O 0.39683 0.06336 0.32999 0.0
O125 O 0.43187 0.06036 0.31545 0.0
Co126 Co 0.27193 0.14731 0.48238 0.0
O127 O 0.30673 0.15299 0.48744 0.0
O128 O 0.28227 0.11705 0.49242 0.0
C129 C 0.27171 0.16487 0.44558 0.0
O130 O 0.236 0.13219 0.47833 0.0
Co131 Co 0.24135 0.18896 0.4776 0.0
O132 O 0.21357 0.16075 0.4689 0.0
C133 C 0.26242 0.18188 0.52697 0.0
C134 C 0.30415 0.12938 0.49249 0.0
C135 C 0.21558 0.13804 0.47254 0.0
O136 O 0.26883 0.16102 0.51813 0.0
O137 O 0.25324 0.19638 0.51332 0.0
O138 O 0.2748 0.14146 0.4464 0.0
O139 O 0.2698 0.17707 0.46677 0.0
Co140 Co 0.15051 0.00337 0.78941 0.0
O141 O 0.14746 0.96654 0.78284 0.0
O142 O 0.18076 0.99446 0.78035 0.0
C143 C 0.13057 0.00235 0.82498 0.0
O144 O 0.16204 0.04195 0.79531 0.0
Co145 Co 0.10782 0.03215 0.79281 0.0
O146 O 0.13226 0.06342 0.80276 0.0
C147 C 0.12134 0.01206 0.74386 0.0
C148 C 0.17016 0.9707 0.77876 0.0
C149 C 0.15441 0.06292 0.80059 0.0
O150 O 0.14077 0.00674 0.75358 0.0
O151 O 0.10509 0.01966 0.75664 0.0
O152 O 0.15305 1.00032 0.82529 0.0
O153 O 0.12075 0.00354 0.80338 0.0
Co154 Co 0.24412 0.90003 0.98816 0.0
O155 O 0.21099 0.90309 0.99118 0.0
O156 O 0.24232 0.93378 0.00251 0.0
C157 C 0.23991 0.88067 0.94937 0.0
O158 O 0.28018 0.90554 0.98716 0.0
Co159 Co 0.26197 0.84855 0.97884 0.0
O160 O 0.29351 0.86997 0.97399 0.0
C161 C 0.24614 0.86465 0.02803 0.0
C162 C 0.21919 0.92654 0.00033 0.0
C163 C 0.29706 0.89393 0.98036 0.0
O164 O 0.2455 0.88721 0.02185 0.0
O165 O 0.25002 0.84632 0.01282 0.0
O166 O 0.24191 0.90536 0.95303 0.0
O167 O 0.23874 0.86863 0.96885 0.0
Co168 Co 0.2594 0.39808 0.01813 0.0
O169 O 0.22458 0.39269 0.01451 0.0
O170 O 0.24765 0.42792 0.03213 0.0
C171 C 0.26422 0.38254 0.97856 0.0
O172 O 0.29554 0.41273 0.02364 0.0
Co173 Co 0.28921 0.35504 0.01106 0.0
O174 O 0.31758 0.38289 0.01326 0.0
C175 C 0.2615 0.35952 0.05569 0.0
C176 C 0.22619 0.41591 0.02473 0.0
C177 C 0.31588 0.40587 0.02005 0.0
O178 O 0.25806 0.382 0.05107 0.0
O179 O 0.27138 0.34535 0.04066 0.0
O180 O 0.26087 0.40586 0.98337 0.0
O181 O 0.26323 0.36929 0.99724 0.0
Co182 Co 0.78182 0.14007 0.01497 0.0
O183 O 0.8149 0.1393 0.00937 0.0
O184 O 0.79008 0.10906 0.02538 0.0
C185 C 0.77315 0.15258 0.97775 0.0
O186 O 0.74654 0.13297 0.02226 0.0
Co187 Co 0.75975 0.18929 0.01353 0.0
O188 O 0.72864 0.16586 0.01459 0.0
C189 C 0.79361 0.18375 0.05468 0.0
C190 C 0.81118 0.11695 0.01757 0.0
C191 C 0.72774 0.14312 0.02023 0.0
O192 O 0.7911 0.15946 0.04875 0.0
O193 O 0.785 0.19877 0.04122 0.0
O194 O 0.77318 0.12855 0.97979 0.0
O195 O 0.77955 0.16782 0.99752 0.0
Co196 Co 0.13725 0.50559 0.24044 0.0
O197 O 0.13905 0.47052 0.24396 0.0
O198 O 0.16734 0.49848 0.2294 0.0
C199 C 0.12353 0.51223 0.27814 0.0
O200 O 0.14322 0.54337 0.23523 0.0
Co201 Co 0.09088 0.52821 0.24398 0.0
O202 O 0.11225 0.56205 0.24548 0.0
C203 C 0.09765 0.49199 0.20124 0.0
C204 C 0.16042 0.47567 0.23596 0.0
C205 C 0.13371 0.56332 0.23914 0.0
O206 O 0.12042 0.49548 0.20657 0.0
O207 O 0.08311 0.50117 0.21531 0.0
O208 O 0.14647 0.51428 0.27584 0.0
O209 O 0.11005 0.50612 0.25809 0.0
Co210 Co 0.76265 0.89796 0.5232 0.0
O211 O 0.72797 0.89385 0.51974 0.0
O212 O 0.75198 0.92845 0.53735 0.0
C213 C 0.76673 0.88251 0.48352 0.0
O214 O 0.79913 0.91089 0.52864 0.0
Co215 Co 0.79021 0.85301 0.51508 0.0
O216 O 0.81917 0.87993 0.51596 0.0
C217 C 0.76368 0.85894 0.5605 0.0
C218 C 0.73029 0.91716 0.5299 0.0
C219 C 0.81881 0.90303 0.52377 0.0
O220 O 0.76073 0.8816 0.55596 0.0
O221 O 0.77294 0.84437 0.54527 0.0
O222 O 0.76438 0.90612 0.48861 0.0
O223 O 0.76518 0.869 0.502 0.0
Co224 Co 0.88481 0.04154 0.24126 0.0
O225 O 0.88795 0.07852 0.24536 0.0
O226 O 0.85647 0.05188 0.22721 0.0
C227 C 0.89698 0.03763 0.28077 0.0
O228 O 0.87342 0.00267 0.23494 0.0
Co229 Co 0.92706 0.01293 0.24974 0.0
O230 O 0.90207 0.98168 0.24723 0.0
C231 C 0.92392 0.04044 0.20496 0.0
C232 C 0.8664 0.07522 0.23508 0.0
C233 C 0.8807 0.9819 0.23929 0.0
O234 O 0.9022 0.0434 0.20898 0.0
O235 O 0.93681 0.03111 0.22034 0.0
O236 O 0.87493 0.03964 0.27539 0.0
O237 O 0.91098 0.03963 0.2628 0.0
Co238 Co 0.2833 0.64589 0.52192 0.0
O239 O 0.31606 0.64432 0.51534 0.0
O240 O 0.29057 0.61338 0.52953 0.0
C241 C 0.2753 0.66207 0.48635 0.0
O242 O 0.24801 0.6395 0.52961 0.0
Co243 Co 0.26318 0.69663 0.52474 0.0
O244 O 0.2315 0.67405 0.52499 0.0
C245 C 0.29792 0.68697 0.56327 0.0
C246 C 0.31174 0.62126 0.52188 0.0
C247 C 0.22975 0.65067 0.52884 0.0
O248 O 0.29363 0.66273 0.55653 0.0
O249 O 0.28996 0.70329 0.55093 0.0
O250 O 0.27406 0.63753 0.48632 0.0
O251 O 0.28212 0.6754 0.50708 0.0
Co252 Co 0.38239 0.53957 0.74005 0.0
O253 O 0.38513 0.57628 0.74663 0.0
O254 O 0.35455 0.55075 0.72571 0.0
C255 C 0.39347 0.53298 0.77919 0.0
O256 O 0.37143 0.50096 0.73127 0.0
Co257 Co 0.42494 0.51109 0.74732 0.0
O258 O 0.40001 0.47972 0.74328 0.0
C259 C 0.4225 0.54133 0.70449 0.0
C260 C 0.36405 0.57369 0.73536 0.0
C261 C 0.37876 0.48007 0.73498 0.0
O262 O 0.40066 0.54375 0.70852 0.0
O263 O 0.43529 0.53117 0.71926 0.0
O264 O 0.3715 0.53517 0.77357 0.0
O265 O 0.40798 0.53644 0.76178 0.0
Co266 Co 0.62728 0.0018 0.74438 0.0
O267 O 0.62878 0.96699 0.75022 0.0
O268 O 0.6569 0.99342 0.73367 0.0
C269 C 0.61424 0.01239 0.78181 0.0
O270 O 0.63406 0.03868 0.73651 0.0
Co271 Co 0.58192 0.02647 0.74612 0.0
O272 O 0.60392 0.05949 0.74425 0.0
C273 C 0.58753 0.98802 0.70484 0.0
C274 C 0.65004 0.97133 0.74172 0.0
C275 C 0.62524 0.05919 0.73809 0.0
O276 O 0.61008 0.99006 0.71084 0.0
O277 O 0.57338 0.99871 0.71818 0.0
O278 O 0.63698 0.01273 0.77942 0.0
O279 O 0.60046 0.00491 0.76211 0.0
Co280 Co 0.77049 0.64712 0.9871 0.0
O281 O 0.80516 0.65063 0.99193 0.0
O282 O 0.77906 0.61584 0.99679 0.0
C283 C 0.77105 0.66509 0.95053 0.0
O284 O 0.73415 0.63427 0.98309 0.0
Co285 Co 0.74286 0.69153 0.98315 0.0
O286 O 0.7137 0.66498 0.97503 0.0
C287 C 0.76337 0.68252 0.03206 0.0
C288 C 0.80135 0.62693 0.99682 0.0
C289 C 0.71434 0.64177 0.97797 0.0
O290 O 0.76819 0.66093 0.02299 0.0
O291 O 0.75539 0.69801 0.01865 0.0
O292 O 0.77296 0.64129 0.95104 0.0
O293 O 0.77 0.67738 0.97188 0.0
Co294 Co 0.90091 0.54534 0.79017 0.0
O295 O 0.89942 0.57887 0.78007 0.0
O296 O 0.8693 0.54585 0.77674 0.0
C297 C 0.92121 0.55933 0.82695 0.0
O298 O 0.89353 0.50877 0.79887 0.0
Co299 Co 0.94664 0.52378 0.80255 0.0
O300 O 0.92526 0.49292 0.81177 0.0
C301 C 0.93214 0.52978 0.75055 0.0
C302 C 0.87696 0.5696 0.77363 0.0
C303 C 0.9028 0.49078 0.80715 0.0
O304 O 0.91147 0.53416 0.75661 0.0
O305 O 0.94878 0.52761 0.76644 0.0
O306 O 0.8981 0.55807 0.82482 0.0
O307 O 0.93106 0.55318 0.80698 0.0
Co308 Co 0.74621 0.40535 0.48747 0.0
O309 O 0.71304 0.40736 0.49199 0.0
O310 O 0.74362 0.43987 0.49828 0.0
C311 C 0.7403 0.381 0.45092 0.0
O312 O 0.78216 0.4121 0.48395 0.0
Co313 Co 0.76635 0.35494 0.48379 0.0
O314 O 0.79692 0.37625 0.47595 0.0
C315 C 0.74903 0.37498 0.53042 0.0
C316 C 0.72071 0.43161 0.49839 0.0
C317 C 0.79949 0.40051 0.4786 0.0
O318 O 0.75025 0.39717 0.52271 0.0
O319 O 0.75196 0.35518 0.51672 0.0
O320 O 0.74088 0.4055 0.45156 0.0
O321 O 0.74142 0.37214 0.47208 0.0
Co322 Co 0.65018 0.50452 0.29028 0.0
O323 O 0.64742 0.46775 0.28206 0.0
O324 O 0.68031 0.49625 0.27992 0.0
C325 C 0.63069 0.50146 0.32623 0.0
O326 O 0.66202 0.54305 0.29766 0.0
Co327 Co 0.60856 0.53431 0.29829 0.0
O328 O 0.63346 0.56479 0.30915 0.0
C329 C 0.62106 0.51852 0.24704 0.0
C330 C 0.67005 0.47238 0.27766 0.0
C331 C 0.65522 0.56404 0.30505 0.0
O332 O 0.63941 0.50963 0.25501 0.0
O333 O 0.60634 0.52686 0.26145 0.0
O334 O 0.65321 0.49962 0.3259 0.0
O335 O 0.62074 0.50407 0.30514 0.0
Dy336 Dy 0.99474 0.01848 0.00407 0.0
C337 C 0.09702 0.03755 0.02268 0.0
C338 C 0.94831 0.02349 0.00877 0.0
Dy339 Dy 0.04909 0.03818 0.02016 0.0
O340 O 0.95544 0.00948 0.9906 0.0
O341 O 0.96635 0.03397 0.02386 0.0
O342 O 0.00428 0.99372 0.97124 0.0
O343 O 0.02751 0.02744 0.98572 0.0
C344 C 0.02559 0.00783 0.97056 0.0
C345 C 0.0176 0.04854 0.05312 0.0
O346 O 0.0435 0.07174 0.00071 0.0
O347 O 1.00206 0.05894 0.99338 0.0
O348 O 0.08415 0.03952 0.04174 0.0
O349 O 0.08385 0.03731 0.00251 0.0
O350 O 0.03828 0.06357 0.05181 0.0
O351 O 0.01637 0.02864 0.0385 0.0
O352 O 1.00115 0.98554 0.02412 0.0
O353 O 0.04277 0.99598 0.02459 0.0
C354 C 0.02229 0.07578 0.99247 0.0
C355 C 0.02275 0.98013 0.02859 0.0
Dy356 Dy 0.26641 0.79086 0.2414 0.0
C357 C 0.26506 0.76178 0.34075 0.0
C358 C 0.26145 0.81124 0.19798 0.0
Dy359 Dy 0.25937 0.77874 0.296 0.0
O360 O 0.28186 0.80867 0.20833 0.0
O361 O 0.24392 0.80213 0.21102 0.0
O362 O 0.29433 0.76525 0.23884 0.0
O363 O 0.28891 0.78504 0.27236 0.0
C364 C 0.30017 0.76907 0.26256 0.0
C365 C 0.22069 0.78724 0.27035 0.0
O366 O 0.27936 0.81901 0.30369 0.0
O367 O 0.28214 0.82876 0.26259 0.0
O368 O 0.25005 0.77663 0.33558 0.0
O369 O 0.27736 0.75715 0.32185 0.0
O370 O 0.21925 0.77153 0.28733 0.0
O371 O 0.242 0.79835 0.26945 0.0
O372 O 0.24225 0.75241 0.23623 0.0
O373 O 0.25282 0.74038 0.2744 0.0
C374 C 0.28638 0.83502 0.28692 0.0
C375 C 0.2422 0.73485 0.25193 0.0
Dy376 Dy 0.54611 0.02538 0.51234 0.0
C377 C 0.44582 0.03894 0.50765 0.0
C378 C 0.58888 0.00926 0.52067 0.0
Dy379 Dy 0.48939 0.02394 0.51251 0.0
O380 O 0.58427 0.0231 0.50316 0.0
O381 O 0.57036 0.00494 0.53393 0.0
O382 O 0.54909 0.05437 0.48414 0.0
O383 O 0.51711 0.02818 0.48653 0.0
C384 C 0.52637 0.04784 0.47709 0.0
C385 C 0.50966 0.00161 0.54754 0.0
O386 O 0.48864 0.98875 0.4868 0.0
O387 O 0.52908 0.98622 0.49392 0.0
O388 O 0.45526 0.03287 0.52801 0.0
O389 O 0.45979 0.03581 0.48974 0.0
O390 O 0.48742 0.99361 0.53919 0.0
O391 O 0.51841 0.02174 0.53851 0.0
O392 O 0.5461 0.06064 0.53795 0.0
O393 O 0.50672 0.06433 0.52682 0.0
C394 C 0.50701 0.97665 0.48407 0.0
C395 C 0.5282 0.07361 0.53815 0.0
Dy396 Dy 0.2408 0.26927 0.75529 0.0
C397 C 0.34241 0.27254 0.75198 0.0
C398 C 0.19327 0.26074 0.76503 0.0
Dy399 Dy 0.29495 0.26737 0.76146 0.0
O400 O 0.20378 0.27918 0.75301 0.0
O401 O 0.20863 0.24677 0.7711 0.0
O402 O 0.24912 0.30177 0.73136 0.0
O403 O 0.27385 0.29721 0.75964 0.0
C404 C 0.27063 0.30979 0.74171 0.0
C405 C 0.26492 0.2277 0.77601 0.0
O406 O 0.2924 0.28994 0.79774 0.0
O407 O 0.25064 0.28315 0.79581 0.0
O408 O 0.32948 0.25233 0.75939 0.0
O409 O 0.32962 0.29026 0.75074 0.0
O410 O 0.28623 0.2362 0.78665 0.0
O411 O 0.26184 0.23945 0.75739 0.0
O412 O 0.24398 0.24712 0.71892 0.0
O413 O 0.28562 0.25654 0.72052 0.0
C414 C 0.27186 0.29173 0.80799 0.0
C415 C 0.26463 0.24707 0.70836 0.0
Dy416 Dy 0.00779 0.00972 0.47984 0.0
C417 C 0.06557 0.03931 0.57337 0.0
C418 C 0.97481 0.00413 0.44067 0.0
Dy419 Dy 0.03207 0.03217 0.53459 0.0
O420 O 0.99243 0.99157 0.44185 0.0
O421 O 0.97513 0.019 0.46094 0.0
O422 O 0.04436 0.0054 0.46664 0.0
O423 O 0.0415 0.03198 0.49614 0.0
C424 C 0.05627 0.02172 0.48418 0.0
C425 C 0.98405 0.01405 0.5344 0.0
O426 O 0.03178 0.06918 0.51757 0.0
O427 O 0.00888 0.05204 0.48085 0.0
O428 O 0.04798 0.05191 0.5717 0.0
O429 O 0.06531 0.02395 0.55336 0.0
O430 O 0.9969 0.0246 0.55435 0.0
O431 O 0.99793 0.01512 0.51715 0.0
O432 O 0.00401 0.97436 0.49966 0.0
O433 O 0.03499 0.99071 0.52958 0.0
C434 C 0.02004 0.07179 0.49634 0.0
C435 C 0.01933 0.97137 0.51791 0.0
Dy436 Dy 0.29188 0.78315 0.76887 0.0
C437 C 0.20424 0.75282 0.7046 0.0
C438 C 0.33337 0.78832 0.79802 0.0
Dy439 Dy 0.2423 0.76243 0.73866 0.0
O440 O 0.32835 0.77454 0.77699 0.0
O441 O 0.31564 0.7999 0.80339 0.0
O442 O 0.30642 0.80102 0.73537 0.0
O443 O 0.27992 0.7687 0.73097 0.0
C444 C 0.29215 0.78511 0.71938 0.0
C445 C 0.23964 0.7751 0.78742 0.0
O446 O 0.25758 0.72629 0.73656 0.0
O447 O 0.28853 0.7403 0.76735 0.0
O448 O 0.20613 0.74002 0.72372 0.0
O449 O 0.22385 0.76941 0.70338 0.0
O450 O 0.22223 0.77438 0.77104 0.0
O451 O 0.25601 0.76577 0.77725 0.0
O452 O 0.27409 0.81759 0.7727 0.0
O453 O 0.24909 0.80492 0.73715 0.0
C454 C 0.2757 0.72224 0.75118 0.0
C455 C 0.25847 0.82234 0.75558 0.0
Dy456 Dy 0.51149 0.01662 0.04126 0.0
C457 C 0.52893 0.0247 0.93854 0.0
C458 C 0.49746 0.02037 0.08846 0.0
Dy459 Dy 0.51372 0.02523 0.98525 0.0
O460 O 0.50144 0.99946 0.07655 0.0
O461 O 0.50178 0.03915 0.07483 0.0
O462 O 0.53402 0.9861 0.03552 0.0
O463 O 0.5106 0.99304 0.00689 0.0
C464 C 0.52674 0.98085 0.01219 0.0
C465 C 0.49783 0.06052 0.01439 0.0
O466 O 0.47704 0.00214 0.98303 0.0
O467 O 0.47301 0.0048 0.0257 0.0
O468 O 0.52523 0.04495 0.9518 0.0
O469 O 0.52333 0.0047 0.95042 0.0
O470 O 0.49055 0.055 0.99111 0.0
O471 O 0.51444 0.04888 0.01968 0.0
O472 O 0.54895 0.03847 0.04276 0.0
O473 O 0.55221 0.03415 7e-05 0.0
C474 C 0.46401 0.99832 0.00245 0.0
C475 C 0.56177 0.04079 0.02299 0.0
Dy476 Dy 0.26905 0.29483 0.26007 0.0
C477 C 0.26368 0.18714 0.24275 0.0
C478 C 0.26099 0.34227 0.25302 0.0
Dy479 Dy 0.25757 0.23655 0.24358 0.0
O480 O 0.27135 0.33669 0.27325 0.0
O481 O 0.25577 0.32224 0.23716 0.0
O482 O 0.28887 0.28842 0.2954 0.0
O483 O 0.2607 0.26055 0.27827 0.0
C484 C 0.27708 0.26498 0.29534 0.0
C485 C 0.24966 0.26729 0.20909 0.0
O486 O 0.2223 0.23913 0.25938 0.0
O487 O 0.22939 0.2836 0.26646 0.0
O488 O 0.26072 0.19881 0.22316 0.0
O489 O 0.26192 0.20211 0.26246 0.0
O490 O 0.23657 0.24461 0.20962 0.0
O491 O 0.26659 0.27083 0.2255 0.0
O492 O 0.3045 0.29151 0.24507 0.0
O493 O 0.29794 0.24713 0.24243 0.0
C494 C 0.21513 0.26085 0.26643 0.0
C495 C 0.31212 0.26955 0.24085 0.0
Dy496 Dy 0.506 0.50477 0.9751 0.0
C497 C 0.55326 0.52836 0.07528 0.0
C498 C 0.47089 0.49728 0.93798 0.0
Dy499 Dy 0.52871 0.52661 0.03044 0.0
O500 O 0.4882 0.48418 0.93895 0.0
O501 O 0.47263 0.5136 0.95751 0.0
O502 O 0.5411 0.51235 0.95578 0.0
O503 O 0.54001 0.52075 0.99344 0.0
C504 C 0.5538 0.52251 0.97601 0.0
C505 C 0.48028 0.51545 0.02342 0.0
O506 O 0.53228 0.56323 0.01301 0.0
O507 O 0.50518 0.54682 0.97922 0.0
O508 O 0.53302 0.51351 0.06808 0.0
O509 O 0.55987 0.54339 0.05824 0.0
O510 O 0.49158 0.53281 0.04039 0.0
O511 O 0.49536 0.50432 0.013 0.0
O512 O 0.50716 0.46874 0.99294 0.0
O513 O 0.53785 0.48783 0.02216 0.0
C514 C 0.51934 0.56614 0.99281 0.0
C515 C 0.52345 0.46729 0.0109 0.0
Dy516 Dy 0.80004 0.29112 0.26534 0.0
C517 C 0.70503 0.25722 0.2171 0.0
C518 C 0.84035 0.30081 0.29671 0.0
Dy519 Dy 0.74872 0.26665 0.24288 0.0
O520 O 0.8379 0.31163 0.27646 0.0
O521 O 0.82055 0.28543 0.30008 0.0
O522 O 0.8124 0.30051 0.22806 0.0
O523 O 0.78505 0.2695 0.23081 0.0
C524 C 0.79625 0.28291 0.21576 0.0
C525 C 0.75432 0.2751 0.2925 0.0
O526 O 0.76462 0.23094 0.24073 0.0
O527 O 0.79831 0.24841 0.26698 0.0
O528 O 0.70854 0.25659 0.24075 0.0
O529 O 0.72558 0.26186 0.20715 0.0
O530 O 0.73883 0.2563 0.28105 0.0
O531 O 0.76414 0.28866 0.2769 0.0
O532 O 0.78205 0.32575 0.26763 0.0
O533 O 0.75164 0.30855 0.23769 0.0
C534 C 0.7842 0.22847 0.25403 0.0
C535 C 0.76385 0.32835 0.25229 0.0
Dy536 Dy 0.01147 0.52123 0.53557 0.0
C537 C 0.03553 0.52227 0.43332 0.0
C538 C 0.99421 0.52241 0.58123 0.0
Dy539 Dy 0.01725 0.53043 0.47771 0.0
O540 O 0.00636 0.54202 0.57206 0.0
O541 O 0.9924 0.50193 0.56588 0.0
O542 O 0.03399 0.49058 0.53055 0.0
O543 O 0.0129 0.49895 0.50071 0.0
C544 C 0.02845 0.4863 0.50677 0.0
C545 C 0.00687 0.57094 0.50537 0.0
O546 O 0.97962 0.50885 0.47522 0.0
O547 O 0.97386 0.51236 0.51782 0.0
O548 O 0.01867 0.53556 0.43719 0.0
O549 O 0.04174 0.51311 0.45342 0.0
O550 O 0.01024 0.57143 0.4818 0.0
O551 O 0.00976 0.54965 0.51119 0.0
O552 O 0.04813 0.54549 0.5382 0.0
O553 O 0.05429 0.54258 0.4958 0.0
C554 C 0.96575 0.50591 0.49426 0.0
C555 C 0.06203 0.54925 0.51932 0.0
Dy556 Dy 0.74227 0.77089 0.25988 0.0
C557 C 0.84361 0.7741 0.25697 0.0
C558 C 0.69488 0.76311 0.26997 0.0
Dy559 Dy 0.7961 0.76848 0.26608 0.0
O560 O 0.70542 0.7812 0.25756 0.0
O561 O 0.71009 0.74903 0.27616 0.0
O562 O 0.75087 0.80343 0.23603 0.0
O563 O 0.77542 0.7987 0.26439 0.0
C564 C 0.77234 0.81137 0.24649 0.0
C565 C 0.76592 0.72893 0.28066 0.0
O566 O 0.79374 0.79079 0.30244 0.0
O567 O 0.75204 0.78455 0.3004 0.0
O568 O 0.83074 0.75367 0.26403 0.0
O569 O 0.8307 0.79172 0.25577 0.0
O570 O 0.78727 0.73732 0.29124 0.0
O571 O 0.76288 0.74069 0.26203 0.0
O572 O 0.74519 0.74853 0.22357 0.0
O573 O 0.78684 0.75745 0.22519 0.0
C574 C 0.77326 0.79278 0.31264 0.0
C575 C 0.7658 0.74812 0.21306 0.0
Dy576 Dy 0.76584 0.28031 0.73137 0.0
C577 C 0.7599 0.24707 0.82956 0.0
C578 C 0.75559 0.29921 0.68862 0.0
Dy579 Dy 0.76012 0.26947 0.78684 0.0
O580 O 0.76739 0.28049 0.69013 0.0
O581 O 0.7493 0.30703 0.71024 0.0
O582 O 0.80595 0.2841 0.73569 0.0
O583 O 0.78379 0.26122 0.75801 0.0
C584 C 0.80519 0.27092 0.75472 0.0
C585 C 0.72719 0.29243 0.76556 0.0
O586 O 0.78661 0.30575 0.79216 0.0
O587 O 0.77827 0.31855 0.7535 0.0
O588 O 0.74081 0.24937 0.81656 0.0
O589 O 0.77906 0.25801 0.8198 0.0
O590 O 0.73361 0.29697 0.7891 0.0
O591 O 0.73743 0.27541 0.7562 0.0
O592 O 0.74499 0.24009 0.72511 0.0
O593 O 0.74692 0.23092 0.76637 0.0
C594 C 0.78873 0.32316 0.77623 0.0
C595 C 0.7407 0.22412 0.7425 0.0
Dy596 Dy 0.76726 0.79649 0.76634 0.0
C597 C 0.76461 0.68922 0.74815 0.0
C598 C 0.75738 0.84347 0.76004 0.0
Dy599 Dy 0.75757 0.73832 0.7495 0.0
O600 O 0.76661 0.83748 0.78067 0.0
O601 O 0.75464 0.82422 0.74326 0.0
O602 O 0.78656 0.79029 0.80202 0.0
O603 O 0.75907 0.76195 0.78423 0.0
C604 C 0.77511 0.76669 0.80164 0.0
C605 C 0.74974 0.76895 0.71492 0.0
O606 O 0.72164 0.73954 0.76423 0.0
O607 O 0.72737 0.78395 0.77074 0.0
O608 O 0.76081 0.7008 0.72872 0.0
O609 O 0.76332 0.7041 0.76807 0.0
O610 O 0.73712 0.746 0.71507 0.0
O611 O 0.7663 0.77286 0.73175 0.0
O612 O 0.80354 0.79452 0.75273 0.0
O613 O 0.79794 0.75013 0.74961 0.0
C614 C 0.71361 0.76092 0.77051 0.0
C615 C 0.81181 0.77289 0.74874 0.0
Dy616 Dy 0.4937 0.51968 0.50418 0.0
C617 C 0.59601 0.53898 0.52287 0.0
C618 C 0.44736 0.5253 0.50898 0.0
Dy619 Dy 0.54802 0.5392 0.52056 0.0
O620 O 0.4545 0.51205 0.49025 0.0
O621 O 0.46531 0.5345 0.52466 0.0
O622 O 0.50336 0.4946 0.47163 0.0
O623 O 0.52666 0.52836 0.48599 0.0
C624 C 0.52473 0.50861 0.47097 0.0
C625 C 0.51643 0.54986 0.55323 0.0
O626 O 0.54259 0.5729 0.50123 0.0
O627 O 0.50119 0.56017 0.49356 0.0
O628 O 0.58318 0.54051 0.54201 0.0
O629 O 0.58275 0.5388 0.5028 0.0
O630 O 0.53716 0.56482 0.55198 0.0
O631 O 0.5152 0.5299 0.53869 0.0
O632 O 0.49977 0.48656 0.5242 0.0
O633 O 0.54146 0.49706 0.52558 0.0
C634 C 0.52146 0.57701 0.49286 0.0
C635 C 0.5213 0.4812 0.52923 0.0
Dy636 Dy 0.04029 0.52216 0.01378 0.0
C637 C 0.93869 0.53009 0.01051 0.0
C638 C 0.08329 0.5063 0.02113 0.0
Dy639 Dy 0.98297 0.51663 0.01526 0.0
O640 O 0.07927 0.52265 0.00573 0.0
O641 O 0.06412 0.49955 0.03293 0.0
O642 O 0.04014 0.55068 0.98519 0.0
O643 O 0.01017 0.52229 0.98883 0.0
C644 C 0.01757 0.54187 0.97842 0.0
C645 C 0.00593 0.49633 0.0498 0.0
O646 O 0.98348 0.48185 0.98956 0.0
O647 O 0.02487 0.4829 0.99449 0.0
O648 O 0.94817 0.52365 0.0307 0.0
O649 O 0.95301 0.52807 0.99271 0.0
O650 O 0.98365 0.48693 0.04234 0.0
O651 O 0.01316 0.51665 0.04041 0.0
O652 O 0.03898 0.55669 0.03972 0.0
O653 O 0.99856 0.55731 0.03001 0.0
C654 C 1.00284 0.47168 0.98563 0.0
C655 C 0.01993 0.56793 0.0409 0.0
C656 C 0.0126 0.20788 0.94321 0.0
C657 C 0.00777 0.20703 0.91754 0.0
C658 C 0.01709 0.18645 0.95415 0.0
C659 C 0.01679 0.16343 0.93909 0.0
C660 C 0.01313 0.16264 0.91302 0.0
C661 C 0.00872 0.18458 0.90247 0.0
C662 C 0.02108 0.1882 0.982 0.0
C663 C 0.01285 0.13838 0.89643 0.0
C664 C 0.04205 0.11306 0.9713 0.0
C665 C 0.02115 0.09846 0.97909 0.0
C666 C 0.04089 0.13368 0.95731 0.0
C667 C 0.01832 0.1399 0.95115 0.0
C668 C 0.99717 0.12508 0.95876 0.0
C669 C 0.99884 0.10456 0.9726 0.0
C670 C 0.06381 0.14906 0.94951 0.0
C671 C 0.97277 0.13126 0.95279 0.0
H672 H 0.01241 0.22533 0.95498 0.0
H673 H 0.00513 0.18385 0.88264 0.0
H674 H 0.006 0.17576 0.98974 0.0
H675 H 0.03773 0.18132 0.98714 0.0
H676 H 0.02241 0.208 0.99085 0.0
H677 H 0.0124 0.14161 0.87652 0.0
H678 H 0.02884 0.13006 0.90092 0.0
H679 H 0.99681 0.12409 0.89959 0.0
H680 H 0.05934 0.10827 0.97591 0.0
H681 H 0.98258 0.09336 0.97845 0.0
H682 H 0.06669 0.16872 0.959 0.0
H683 H 0.06251 0.15068 0.9293 0.0
H684 H 0.07969 0.14048 0.95398 0.0
H685 H 0.97163 0.15028 0.96216 0.0
H686 H 0.95799 0.11693 0.95876 0.0
H687 H 0.97 0.13222 0.93259 0.0
C688 C 0.10496 0.81093 0.19301 0.0
C689 C 0.10665 0.80512 0.16753 0.0
C690 C 0.12358 0.80877 0.21012 0.0
C691 C 0.14416 0.80004 0.20158 0.0
C692 C 0.14607 0.79442 0.17584 0.0
C693 C 0.1274 0.79726 0.15913 0.0
C694 C 0.12107 0.81545 0.23736 0.0
C695 C 0.16732 0.78434 0.16591 0.0
C696 C 0.20174 0.81356 0.24277 0.0
C697 C 0.20078 0.79056 0.2534 0.0
C698 C 0.18331 0.817 0.22609 0.0
C699 C 0.16364 0.79675 0.21959 0.0
C700 C 0.16272 0.77335 0.23017 0.0
C701 C 0.1812 0.77065 0.24723 0.0
C702 C 0.18483 0.84234 0.21553 0.0
C703 C 0.14242 0.75106 0.2232 0.0
H704 H 0.08897 0.81704 0.19961 0.0
H705 H 0.12868 0.7923 0.1395 0.0
H706 H 0.12094 0.79829 0.2474 0.0
H707 H 0.13667 0.83002 0.24521 0.0
H708 H 0.1044 0.82293 0.24089 0.0
H709 H 0.16841 0.78568 0.14569 0.0
H710 H 0.18432 0.7948 0.17551 0.0
H711 H 0.1657 0.76398 0.1693 0.0
H712 H 0.21689 0.82899 0.24765 0.0
H713 H 0.18065 0.75274 0.25527 0.0
H714 H 0.17022 0.85184 0.22238 0.0
H715 H 0.18228 0.83943 0.19506 0.0
H716 H 0.20227 0.8553 0.22072 0.0
H717 H 0.12512 0.75655 0.22792 0.0
H718 H 0.14459 0.73404 0.23275 0.0
H719 H 0.14136 0.74573 0.20291 0.0
C720 C 0.5027 0.85515 0.38442 0.0
C721 C 0.49573 0.8328 0.39591 0.0
C722 C 0.50228 0.87925 0.39697 0.0
C723 C 0.49464 0.88089 0.42147 0.0
C724 C 0.48625 0.85827 0.43249 0.0
C725 C 0.48692 0.83456 0.4196 0.0
C726 C 0.51126 0.90297 0.38458 0.0
C727 C 0.47785 0.85911 0.4585 0.0
C728 C 0.52204 0.93802 0.46666 0.0
C729 C 0.50344 0.95206 0.46812 0.0
C730 C 0.51951 0.91517 0.45116 0.0
C731 C 0.49783 0.906 0.43667 0.0
C732 C 0.47899 0.92006 0.4379 0.0
C733 C 0.482 0.94292 0.45366 0.0
C734 C 0.53999 0.90065 0.45055 0.0
C735 C 0.45563 0.91086 0.42272 0.0
H736 H 0.50947 0.85388 0.3661 0.0
H737 H 0.48127 0.81735 0.42852 0.0
H738 H 0.49856 0.91644 0.38645 0.0
H739 H 0.52868 0.91288 0.3938 0.0
H740 H 0.5138 0.89851 0.36461 0.0
H741 H 0.46966 0.83989 0.46342 0.0
H742 H 0.49329 0.86705 0.47188 0.0
H743 H 0.46453 0.87184 0.4607 0.0
H744 H 0.5387 0.94483 0.47772 0.0
H745 H 0.46758 0.95368 0.4545 0.0
H746 H 0.54532 0.89749 0.43128 0.0
H747 H 0.53419 0.8816 0.45712 0.0
H748 H 0.55596 0.91083 0.4623 0.0
H749 H 0.45906 0.90783 0.40282 0.0
H750 H 0.44313 0.92453 0.42495 0.0
H751 H 0.44673 0.89219 0.42828 0.0
C752 C 0.45254 0.27323 0.66618 0.0
C753 C 0.47491 0.27814 0.67942 0.0
C754 C 0.43113 0.27126 0.67855 0.0
C755 C 0.43213 0.27467 0.70478 0.0
C756 C 0.45465 0.27909 0.71823 0.0
C757 C 0.47572 0.28057 0.70541 0.0
C758 C 0.40746 0.26608 0.66353 0.0
C759 C 0.45655 0.28311 0.74617 0.0
C760 C 0.37886 0.29644 0.73466 0.0
C761 C 0.36639 0.27359 0.7421 0.0
C762 C 0.40048 0.29716 0.7229 0.0
C763 C 0.40968 0.27437 0.71815 0.0
C764 C 0.3973 0.25132 0.72599 0.0
C765 C 0.37589 0.25124 0.73802 0.0
C766 C 0.41327 0.32222 0.71519 0.0
C767 C 0.40634 0.22658 0.72106 0.0
H768 H 0.45176 0.27133 0.64611 0.0
H769 H 0.49291 0.28453 0.71582 0.0
H770 H 0.39548 0.24935 0.66968 0.0
H771 H 0.39838 0.28271 0.66653 0.0
H772 H 0.40965 0.26237 0.64339 0.0
H773 H 0.47535 0.28558 0.7539 0.0
H774 H 0.44925 0.30033 0.75248 0.0
H775 H 0.44568 0.26665 0.75394 0.0
H776 H 0.37151 0.31374 0.73771 0.0
H777 H 0.36618 0.23348 0.74354 0.0
H778 H 0.41416 0.32083 0.69477 0.0
H779 H 0.43198 0.3266 0.72335 0.0
H780 H 0.40421 0.33836 0.721 0.0
H781 H 0.40691 0.22183 0.70082 0.0
H782 H 0.39487 0.21039 0.72873 0.0
H783 H 0.42489 0.22863 0.72927 0.0
C784 C 1.00319 0.86208 0.60803 0.0
C785 C 0.00564 0.83798 0.59716 0.0
C786 C 0.00548 0.88321 0.59411 0.0
C787 C 0.01077 0.88023 0.56887 0.0
C788 C 0.01386 0.85607 0.55802 0.0
C789 C 0.01107 0.83521 0.57223 0.0
C790 C 1.00181 0.90862 0.60628 0.0
C791 C 0.0199 0.85219 0.53132 0.0
C792 C 0.99569 0.92942 0.52714 0.0
C793 C 0.0177 0.94632 0.52787 0.0
C794 C 0.99321 0.90761 0.54012 0.0
C795 C 0.0133 0.90246 0.55387 0.0
C796 C 0.03578 0.91893 0.55376 0.0
C797 C 0.03766 0.94072 0.54092 0.0
C798 C 0.96884 0.89075 0.54004 0.0
C799 C 0.05774 0.91394 0.56778 0.0
H800 H 0.9988 0.86426 0.62722 0.0
H801 H 0.01302 0.81663 0.56373 0.0
H802 H 0.01817 0.92329 0.60538 0.0
H803 H 0.98695 0.91504 0.59617 0.0
H804 H 0.99757 0.90772 0.62597 0.0
H805 H 0.02237 0.83235 0.52586 0.0
H806 H 0.00539 0.85654 0.51901 0.0
H807 H 0.03659 0.86554 0.52816 0.0
H808 H 0.98012 0.9339 0.51746 0.0
H809 H 0.05473 0.95373 0.54154 0.0
H810 H 0.96179 0.89291 0.55869 0.0
H811 H 0.97011 0.87037 0.53589 0.0
H812 H 0.95579 0.89566 0.5263 0.0
H813 H 0.05503 0.91524 0.58792 0.0
H814 H 0.07416 0.92775 0.56462 0.0
H815 H 0.06067 0.89432 0.56219 0.0
C816 C 0.44278 0.77978 0.89291 0.0
C817 C 0.46503 0.78766 0.88314 0.0
C818 C 0.42123 0.78038 0.87946 0.0
C819 C 0.42193 0.78996 0.856 0.0
C820 C 0.44441 0.7984 0.84623 0.0
C821 C 0.46571 0.79672 0.85974 0.0
C822 C 0.39772 0.7703 0.89017 0.0
C823 C 0.44597 0.80936 0.8216 0.0
C824 C 0.36812 0.76887 0.80996 0.0
C825 C 0.35562 0.78911 0.81348 0.0
C826 C 0.3895 0.76882 0.82385 0.0
C827 C 0.39912 0.78994 0.84122 0.0
C828 C 0.38668 0.81062 0.84469 0.0
C829 C 0.36481 0.80977 0.83104 0.0
C830 C 0.40166 0.74598 0.82008 0.0
C831 C 0.39665 0.83378 0.86256 0.0
H832 H 0.44221 0.77265 0.91097 0.0
H833 H 0.48291 0.80314 0.85231 0.0
H834 H 0.38682 0.7855 0.89226 0.0
H835 H 0.38727 0.75445 0.87734 0.0
H836 H 0.40027 0.7632 0.9085 0.0
H837 H 0.46478 0.81655 0.81733 0.0
H838 H 0.4376 0.79457 0.80659 0.0
H839 H 0.43588 0.82529 0.82154 0.0
H840 H 0.36096 0.75277 0.79648 0.0
H841 H 0.35522 0.82549 0.83364 0.0
H842 H 0.40396 0.73793 0.83796 0.0
H843 H 0.41979 0.75189 0.81341 0.0
H844 H 0.39135 0.73068 0.80652 0.0
H845 H 0.39813 0.82815 0.88162 0.0
H846 H 0.38531 0.84865 0.86244 0.0
H847 H 0.41499 0.84219 0.85777 0.0
C848 C 0.50101 0.19699 0.06027 0.0
C849 C 0.49235 0.2058 0.08264 0.0
C850 C 0.49761 0.17105 0.0522 0.0
C851 C 0.4847 0.15312 0.06653 0.0
C852 C 0.47485 0.1617 0.08858 0.0
C853 C 0.47904 0.18804 0.09658 0.0
C854 C 0.50874 0.16288 0.02868 0.0
C855 C 0.46055 0.14316 0.10407 0.0
C856 C 0.47093 0.09139 0.02535 0.0
C857 C 0.49125 0.08113 0.03099 0.0
C858 C 0.4666 0.11338 0.03922 0.0
C859 C 0.48338 0.12557 0.05862 0.0
C860 C 0.50264 0.1138 0.0658 0.0
C861 C 0.50632 0.09166 0.05188 0.0
C862 C 0.44533 0.12484 0.03168 0.0
C863 C 0.52094 0.12607 0.08637 0.0
H864 H 0.51123 0.21034 0.04913 0.0
H865 H 0.47216 0.19462 0.1138 0.0
H866 H 0.52167 0.15033 0.03279 0.0
H867 H 0.4947 0.1518 0.01511 0.0
H868 H 0.51837 0.17936 0.01983 0.0
H869 H 0.44904 0.15273 0.11637 0.0
H870 H 0.44907 0.12716 0.09224 0.0
H871 H 0.47297 0.13492 0.11589 0.0
H872 H 0.45896 0.08289 0.00951 0.0
H873 H 0.52198 0.08362 0.0564 0.0
H874 H 0.45126 0.14075 0.02031 0.0
H875 H 0.43728 0.13277 0.0482 0.0
H876 H 0.43136 0.11054 0.02055 0.0
H877 H 0.53263 0.14284 0.0799 0.0
H878 H 0.53245 0.11266 0.09219 0.0
H879 H 0.51205 0.13298 0.10271 0.0
C880 C 0.08891 0.25819 0.33039 0.0
C881 C 0.0939 0.26539 0.35586 0.0
C882 C 0.10739 0.2557 0.31444 0.0
C883 C 0.1315 0.26041 0.32415 0.0
C884 C 0.13658 0.26684 0.34997 0.0
C885 C 0.11775 0.2693 0.36548 0.0
C886 C 0.10117 0.24881 0.28708 0.0
C887 C 0.16199 0.27184 0.36115 0.0
C888 C 0.18042 0.23725 0.28723 0.0
C889 C 0.19193 0.25987 0.27836 0.0
C890 C 0.16043 0.23697 0.30168 0.0
C891 C 0.15154 0.25981 0.30726 0.0
C892 C 0.16248 0.28244 0.2975 0.0
C893 C 0.18254 0.28221 0.28328 0.0
C894 C 0.1494 0.21246 0.31178 0.0
C895 C 0.15349 0.30716 0.30276 0.0
H896 H 0.07055 0.25515 0.32274 0.0
H897 H 0.12182 0.27485 0.3851 0.0
H898 H 0.10907 0.26492 0.27673 0.0
H899 H 0.10895 0.23205 0.28036 0.0
H900 H 0.0815 0.24437 0.28261 0.0
H901 H 0.16285 0.27524 0.38168 0.0
H902 H 0.17079 0.25541 0.35586 0.0
H903 H 0.17247 0.28883 0.35382 0.0
H904 H 0.18762 0.21991 0.28378 0.0
H905 H 0.19122 0.29978 0.27649 0.0
H906 H 0.1298 0.20801 0.30706 0.0
H907 H 0.15201 0.21473 0.33227 0.0
H908 H 0.1574 0.19601 0.30451 0.0
H909 H 0.13403 0.30432 0.29749 0.0
H910 H 0.16304 0.3227 0.29264 0.0
H911 H 0.15591 0.3134 0.32289 0.0
C912 C 0.95956 0.04486 0.17928 0.0
C913 C 0.93531 0.04679 0.18143 0.0
C914 C 0.97082 0.04788 0.15709 0.0
C915 C 0.95786 0.05356 0.13618 0.0
C916 C 0.93372 0.05677 0.1383 0.0
C917 C 0.92266 0.05327 0.1609 0.0
C918 C 0.99643 0.04383 0.15582 0.0
C919 C 0.91955 0.0636 0.11663 0.0
C920 C 1.00081 0.0744 0.08687 0.0
C921 C 1.0003 0.05116 0.07251 0.0
C922 C 0.98541 0.07613 0.10639 0.0
C923 C 0.96951 0.05399 0.11197 0.0
C924 C 0.96816 0.03083 0.09665 0.0
C925 C 0.98348 0.02974 0.07715 0.0
C926 C 0.98707 0.10134 0.12185 0.0
C927 C 0.95177 0.00663 0.1019 0.0
H928 H 0.96988 0.04026 0.19493 0.0
H929 H 0.90406 0.05506 0.1623 0.0
H930 H 0.99723 0.02744 0.14202 0.0
H931 H 0.00789 0.06091 0.14971 0.0
H932 H 0.00416 0.03996 0.17392 0.0
H933 H 0.90074 0.06446 0.12083 0.0
H934 H 0.92828 0.08249 0.11143 0.0
H935 H 0.91943 0.04948 0.10033 0.0
H936 H 0.01355 0.0911 0.08318 0.0
H937 H 0.98289 0.01169 0.06609 0.0
H938 H 0.99664 0.10072 0.13996 0.0
H939 H 0.96891 0.10506 0.1256 0.0
H940 H 0.99689 0.11748 0.11268 0.0
H941 H 0.95843 1.00005 0.11924 0.0
H942 H 0.9508 0.99104 0.08671 0.0
H943 H 0.9334 0.0102 0.10469 0.0
C944 C 0.2617 0.66153 0.44159 0.0
C945 C 0.27003 0.67502 0.46453 0.0
C946 C 0.25849 0.6747 0.4208 0.0
C947 C 0.26416 0.70176 0.42318 0.0
C948 C 0.27196 0.71535 0.44646 0.0
C949 C 0.2746 0.70183 0.46682 0.0
C950 C 0.24969 0.65973 0.39623 0.0
C951 C 0.27858 0.74419 0.4497 0.0
C952 C 0.285 0.73698 0.36865 0.0
C953 C 0.26515 0.74789 0.36274 0.0
C954 C 0.28468 0.72139 0.38798 0.0
C955 C 0.26376 0.71618 0.40125 0.0
C956 C 0.24352 0.72691 0.39511 0.0
C957 C 0.24457 0.74299 0.37605 0.0
C958 C 0.30687 0.7109 0.39451 0.0
C959 C 0.22082 0.7214 0.40867 0.0
H960 H 0.25805 0.64083 0.43983 0.0
H961 H 0.28103 0.71246 0.48451 0.0
H962 H 0.23453 0.66726 0.38791 0.0
H963 H 0.26424 0.66195 0.3832 0.0
H964 H 0.24376 0.63906 0.398 0.0
H965 H 0.2836 0.75182 0.4693 0.0
H966 H 0.29393 0.75058 0.43842 0.0
H967 H 0.26339 0.75274 0.44306 0.0
H968 H 0.30083 0.74068 0.35813 0.0
H969 H 0.22906 0.75107 0.37104 0.0
H970 H 0.3025 0.68978 0.39371 0.0
H971 H 0.3137 0.71824 0.41374 0.0
H972 H 0.32139 0.71625 0.38191 0.0
H973 H 0.21478 0.70047 0.40854 0.0
H974 H 0.20609 0.72962 0.40036 0.0
H975 H 0.22431 0.72943 0.42831 0.0
C976 C 0.55215 0.96969 0.67624 0.0
C977 C 0.57721 0.9757 0.68029 0.0
C978 C 0.54129 0.96655 0.6523 0.0
C979 C 0.55589 0.96873 0.63194 0.0
C980 C 0.58095 0.97024 0.63576 0.0
C981 C 0.59149 0.97413 0.66004 0.0
C982 C 0.51443 0.96426 0.64911 0.0
C983 C 0.59684 0.97032 0.61432 0.0
C984 C 0.51998 0.96621 0.57061 0.0
C985 C 0.52177 0.9923 0.56828 0.0
C986 C 0.53244 0.95789 0.59033 0.0
C987 C 0.54584 0.97622 0.6086 0.0
C988 C 0.5477 0.00262 0.60599 0.0
C989 C 0.53607 0.01024 0.58558 0.0
C990 C 0.53079 0.92958 0.59151 0.0
C991 C 0.56118 0.023 0.62523 0.0
H992 H 0.54095 0.96981 0.69188 0.0
H993 H 0.61085 0.978 0.66298 0.0
H994 H 0.51012 0.98206 0.64255 0.0
H995 H 0.50677 0.94828 0.63496 0.0
H996 H 0.50554 0.96098 0.66664 0.0
H997 H 0.61347 0.96326 0.61927 0.0
H998 H 0.58731 0.95827 0.59789 0.0
H999 H 0.60206 0.99009 0.60924 0.0
H1000 H 0.50928 0.95237 0.55682 0.0
H1001 H 0.53751 0.03045 0.58359 0.0
H1002 H 0.51347 0.92161 0.59899 0.0
H1003 H 0.54559 0.92513 0.60335 0.0
H1004 H 0.53104 0.91975 0.57264 0.0
H1005 H 0.5542 0.02014 0.64372 0.0
H1006 H 0.55971 0.04259 0.62095 0.0
H1007 H 0.58044 0.02172 0.62644 0.0
C1008 C 0.26696 0.38446 0.93254 0.0
C1009 C 0.26824 0.37111 0.95346 0.0
C1010 C 0.26899 0.37269 0.90862 0.0
C1011 C 0.27235 0.34697 0.90556 0.0
C1012 C 0.27434 0.33372 0.92672 0.0
C1013 C 0.27227 0.34591 0.95031 0.0
C1014 C 0.26686 0.38752 0.88656 0.0
C1015 C 0.27794 0.30633 0.9244 0.0
C1016 C 0.25082 0.30607 0.84489 0.0
C1017 C 0.2723 0.30549 0.83318 0.0
C1018 C 0.25061 0.31974 0.8682 0.0
C1019 C 0.27239 0.3333 0.88027 0.0
C1020 C 0.29415 0.33286 0.8686 0.0
C1021 C 0.29386 0.31894 0.84525 0.0
C1022 C 0.227 0.31951 0.88 0.0
C1023 C 0.31776 0.34706 0.88081 0.0
H1024 H 0.26387 0.40392 0.9348 0.0
H1025 H 0.27337 0.33541 0.96634 0.0
H1026 H 0.28241 0.38692 0.87502 0.0
H1027 H 0.2505 0.3786 0.87482 0.0
H1028 H 0.26587 0.40779 0.8921 0.0
H1029 H 0.28042 0.29915 0.94271 0.0
H1030 H 0.26217 0.29393 0.91408 0.0
H1031 H 0.29383 0.30445 0.91373 0.0
H1032 H 0.23403 0.2958 0.83584 0.0
H1033 H 0.31055 0.31882 0.83636 0.0
H1034 H 0.224 0.33934 0.88416 0.0
H1035 H 0.22742 0.31097 0.89784 0.0
H1036 H 0.21157 0.30851 0.86798 0.0
H1037 H 0.31701 0.36758 0.88495 0.0
H1038 H 0.33302 0.34539 0.86906 0.0
H1039 H 0.32125 0.33952 0.8987 0.0
C1040 C 0.89032 0.01727 0.32038 0.0
C1041 C 0.90565 0.03143 0.30509 0.0
C1042 C 0.89928 0.01016 0.34278 0.0
C1043 C 0.92394 0.01804 0.35026 0.0
C1044 C 0.93931 0.03272 0.33498 0.0
C1045 C 0.93004 0.0389 0.31247 0.0
C1046 C 0.88248 0.994 0.35831 0.0
C1047 C 0.96557 0.04215 0.34249 0.0
C1048 C 0.94646 0.02524 0.4177 0.0
C1049 C 0.95919 0.00515 0.41844 0.0
C1050 C 0.93404 0.02902 0.39589 0.0
C1051 C 0.93383 0.01191 0.37439 0.0
C1052 C 0.94544 0.99065 0.37547 0.0
C1053 C 0.95829 0.98769 0.39744 0.0
C1054 C 0.92248 0.0523 0.39547 0.0
C1055 C 0.94516 0.97166 0.3531 0.0
H1056 H 0.87151 0.0112 0.31452 0.0
H1057 H 0.94191 0.04992 0.30069 0.0
H1058 H 0.88924 0.97625 0.36134 0.0
H1059 H 0.88178 0.00443 0.37678 0.0
H1060 H 0.86399 0.98874 0.34954 0.0
H1061 H 0.97495 0.05383 0.32873 0.0
H1062 H 0.96754 0.05388 0.36065 0.0
H1063 H 0.97463 0.02572 0.3447 0.0
H1064 H 0.94717 0.03885 0.4339 0.0
H1065 H 0.96802 0.97208 0.39802 0.0
H1066 H 0.90367 0.04684 0.38776 0.0
H1067 H 0.93222 0.06563 0.38325 0.0
H1068 H 0.92266 0.06263 0.41419 0.0
H1069 H 0.92668 0.96561 0.3445 0.0
H1070 H 0.95207 0.95444 0.35784 0.0
H1071 H 0.95645 0.98074 0.33904 0.0
C1072 C 0.32325 0.72225 0.58978 0.0
C1073 C 0.30968 0.69741 0.58762 0.0
C1074 C 0.32588 0.7377 0.61227 0.0
C1075 C 0.31512 0.72774 0.63311 0.0
C1076 C 0.30469 0.70143 0.63189 0.0
C1077 C 0.30193 0.68649 0.60895 0.0
C1078 C 0.33738 0.76549 0.61282 0.0
C1079 C 0.29394 0.68974 0.65401 0.0
C1080 C 0.32263 0.76891 0.69472 0.0
C1081 C 0.30028 0.77645 0.69547 0.0
C1082 C 0.32799 0.75314 0.67448 0.0
C1083 C 0.31081 0.74556 0.65428 0.0
C1084 C 0.28881 0.75458 0.6544 0.0
C1085 C 0.28363 0.76953 0.67526 0.0
C1086 C 0.35165 0.74405 0.67531 0.0
C1087 C 0.27024 0.74753 0.63294 0.0
H1088 H 0.32953 0.73055 0.57323 0.0
H1089 H 0.2915 0.66726 0.60734 0.0
H1090 H 0.32328 0.77739 0.61404 0.0
H1091 H 0.34996 0.77145 0.62934 0.0
H1092 H 0.34727 0.76948 0.596 0.0
H1093 H 0.29412 0.66894 0.65278 0.0
H1094 H 0.30366 0.69904 0.67153 0.0
H1095 H 0.27502 0.69229 0.65463 0.0
H1096 H 0.33524 0.77375 0.71076 0.0
H1097 H 0.26618 0.77496 0.67623 0.0
H1098 H 0.365 0.75733 0.66618 0.0
H1099 H 0.35019 0.72465 0.66555 0.0
H1100 H 0.35867 0.74386 0.69469 0.0
H1101 H 0.27856 0.75163 0.61529 0.0
H1102 H 0.25517 0.75805 0.63499 0.0
H1103 H 0.26284 0.72676 0.63157 0.0
C1104 C 0.57929 0.01967 0.80528 0.0
C1105 C 0.60387 0.019 0.80541 0.0
C1106 C 0.56789 0.02261 0.82733 0.0
C1107 C 0.58141 0.02511 0.85016 0.0
C1108 C 0.60647 0.02573 0.8505 0.0
C1109 C 0.61747 0.02261 0.82801 0.0
C1110 C 0.54113 0.0218 0.82616 0.0
C1111 C 0.62144 0.02865 0.87458 0.0
C1112 C 0.55076 0.04803 0.90625 0.0
C1113 C 0.54151 0.02488 0.91546 0.0
C1114 C 0.56446 0.04852 0.88538 0.0
C1115 C 0.56879 0.02528 0.87347 0.0
C1116 C 0.55945 0.00185 0.88276 0.0
C1117 C 0.54595 0.00196 0.90371 0.0
C1118 C 0.57416 0.07382 0.87599 0.0
C1119 C 0.56353 0.97665 0.87043 0.0
H1120 H 0.56866 0.01707 0.78787 0.0
H1121 H 0.63646 0.02212 0.82816 0.0
H1122 H 0.53206 0.00459 0.83428 0.0
H1123 H 0.53688 0.0387 0.83721 0.0
H1124 H 0.53351 0.02127 0.80689 0.0
H1125 H 0.64093 0.03131 0.87168 0.0
H1126 H 0.61799 0.04519 0.88681 0.0
H1127 H 0.61637 0.01139 0.88444 0.0
H1128 H 0.54755 0.0658 0.91555 0.0
H1129 H 0.539 0.98406 0.91099 0.0
H1130 H 0.56621 0.0744 0.85708 0.0
H1131 H 0.59385 0.07612 0.87469 0.0
H1132 H 0.57023 0.09025 0.88811 0.0
H1133 H 0.55595 0.97385 0.85099 0.0
H1134 H 0.5552 0.96018 0.88012 0.0
H1135 H 0.58303 0.97669 0.86992 0.0
C1136 C 0.25284 0.32229 0.08055 0.0
C1137 C 0.2548 0.34875 0.07942 0.0
C1138 C 0.25001 0.31124 0.1029 0.0
C1139 C 0.24858 0.3268 0.12508 0.0
C1140 C 0.24947 0.35345 0.12406 0.0
C1141 C 0.25247 0.36409 0.10122 0.0
C1142 C 0.24989 0.28295 0.10288 0.0
C1143 C 0.24797 0.37127 0.14684 0.0
C1144 C 0.22695 0.28547 0.17629 0.0
C1145 C 0.24866 0.28414 0.18893 0.0
C1146 C 0.22637 0.30116 0.15682 0.0
C1147 C 0.24808 0.31488 0.14907 0.0
C1148 C 0.2699 0.31427 0.16248 0.0
C1149 C 0.26987 0.29924 0.1824 0.0
C1150 C 0.20258 0.30286 0.14428 0.0
C1151 C 0.29345 0.32875 0.15516 0.0
H1152 H 0.25424 0.31004 0.06386 0.0
H1153 H 0.25391 0.38451 0.1007 0.0
H1154 H 0.26513 0.27991 0.11504 0.0
H1155 H 0.23316 0.27335 0.11037 0.0
H1156 H 0.25133 0.27354 0.08406 0.0
H1157 H 0.23156 0.37964 0.14479 0.0
H1158 H 0.24755 0.36188 0.16421 0.0
H1159 H 0.26351 0.38736 0.14847 0.0
H1160 H 0.21044 0.27438 0.18171 0.0
H1161 H 0.28668 0.29856 0.19233 0.0
H1162 H 0.20105 0.29326 0.12515 0.0
H1163 H 0.20138 0.32318 0.14293 0.0
H1164 H 0.18723 0.29381 0.15437 0.0
H1165 H 0.29681 0.32166 0.13603 0.0
H1166 H 0.30879 0.32676 0.16776 0.0
H1167 H 0.29264 0.34932 0.15526 0.0
C1168 C 0.17813 0.9368 0.00352 0.0
C1169 C 0.20305 0.9446 0.00696 0.0
C1170 C 0.16271 0.95421 0.00818 0.0
C1171 C 0.17248 0.98004 0.01648 0.0
C1172 C 0.19758 0.98788 0.02062 0.0
C1173 C 0.21258 0.97006 0.01582 0.0
C1174 C 0.13599 0.94509 0.00364 0.0
C1175 C 0.20862 0.01523 0.02946 0.0
C1176 C 0.13147 0.02559 0.00091 0.0
C1177 C 0.11991 0.02828 0.02297 0.0
C1178 C 0.14974 0.01119 0.99902 0.0
C1179 C 0.15633 0.99895 0.01961 0.0
C1180 C 0.1458 0.00304 0.04242 0.0
C1181 C 0.12775 0.01782 0.04387 0.0
C1182 C 0.16072 0.00761 0.97444 0.0
C1183 C 0.1523 0.99029 0.06477 0.0
H1184 H 0.17064 0.91717 0.99674 0.0
H1185 H 0.23184 0.97623 0.01858 0.0
H1186 H 0.12669 0.94979 0.02051 0.0
H1187 H 0.12909 0.95506 0.98862 0.0
H1188 H 0.13122 0.92418 0.99831 0.0
H1189 H 0.22835 0.01794 0.03311 0.0
H1190 H 0.20477 0.02787 0.01529 0.0
H1191 H 0.20056 0.02148 0.04665 0.0
H1192 H 0.12536 0.0336 0.98469 0.0
H1193 H 0.11868 0.01969 0.0609 0.0
H1194 H 0.15358 0.98806 0.9655 0.0
H1195 H 0.18047 0.0096 0.97703 0.0
H1196 H 0.15662 0.02157 0.96171 0.0
H1197 H 0.14492 0.96952 0.06161 0.0
H1198 H 0.14502 0.99812 0.08186 0.0
H1199 H 0.17204 0.99257 0.06776 0.0
C1200 C 0.66926 0.6309 0.97245 0.0
C1201 C 0.69125 0.62306 0.97692 0.0
C1202 C 0.6473 0.61386 0.97268 0.0
C1203 C 0.64717 0.58825 0.97744 0.0
C1204 C 0.66925 0.58012 0.98178 0.0
C1205 C 0.69096 0.59757 0.98146 0.0
C1206 C 0.62418 0.62335 0.96794 0.0
C1207 C 0.66992 0.553 0.98694 0.0
C1208 C 0.58917 0.55127 0.99914 0.0
C1209 C 0.57852 0.53752 0.97705 0.0
C1210 C 0.61172 0.56745 0.99969 0.0
C1211 C 0.62391 0.56995 0.97757 0.0
C1212 C 0.61343 0.55558 0.95533 0.0
C1213 C 0.59089 0.53958 0.95535 0.0
C1214 C 0.62217 0.58238 0.02381 0.0
C1215 C 0.62576 0.55761 0.93135 0.0
H1216 H 0.66912 0.65049 0.96897 0.0
H1217 H 0.70774 0.59122 0.98502 0.0
H1218 H 0.61386 0.61204 0.95154 0.0
H1219 H 0.61286 0.62069 0.98396 0.0
H1220 H 0.62729 0.64385 0.96469 0.0
H1221 H 0.68851 0.54964 0.98992 0.0
H1222 H 0.66006 0.5485 0.00364 0.0
H1223 H 0.66079 0.53951 0.97125 0.0
H1224 H 0.57964 0.54984 0.0159 0.0
H1225 H 0.58271 0.52904 0.93819 0.0
H1226 H 0.62341 0.60311 0.0223 0.0
H1227 H 0.64062 0.57912 0.02788 0.0
H1228 H 0.61119 0.57712 0.03963 0.0
H1229 H 0.62762 0.57742 0.92615 0.0
H1230 H 0.61575 0.54436 0.9159 0.0
H1231 H 0.64409 0.55338 0.93367 0.0
C1232 C 0.70761 0.45764 0.26442 0.0
C1233 C 0.68408 0.45168 0.27198 0.0
C1234 C 0.72175 0.43871 0.26043 0.0
C1235 C 0.71238 0.41309 0.26438 0.0
C1236 C 0.68858 0.40691 0.27186 0.0
C1237 C 0.6747 0.42619 0.27539 0.0
C1238 C 0.74683 0.44618 0.25213 0.0
C1239 C 0.67788 0.37996 0.27655 0.0
C1240 C 0.73915 0.35777 0.23478 0.0
C1241 C 0.75362 0.35222 0.25443 0.0
C1242 C 0.72628 0.37793 0.23753 0.0
C1243 C 0.72743 0.39276 0.26069 0.0
C1244 C 0.7425 0.38767 0.28044 0.0
C1245 C 0.75551 0.36762 0.27705 0.0
C1246 C 0.71094 0.3829 0.21577 0.0
C1247 C 0.74409 0.40268 0.30555 0.0
H1248 H 0.71509 0.47723 0.26171 0.0
H1249 H 0.65664 0.42137 0.28139 0.0
H1250 H 0.76003 0.44215 0.26619 0.0
H1251 H 0.7489 0.43461 0.23462 0.0
H1252 H 0.75127 0.46673 0.24916 0.0
H1253 H 0.6592 0.37821 0.28234 0.0
H1254 H 0.67794 0.36678 0.25958 0.0
H1255 H 0.68896 0.37359 0.29124 0.0
H1256 H 0.73749 0.34595 0.21726 0.0
H1257 H 0.76623 0.36322 0.29251 0.0
H1258 H 0.7153 0.40333 0.21242 0.0
H1259 H 0.69176 0.37875 0.21991 0.0
H1260 H 0.71336 0.37101 0.19855 0.0
H1261 H 0.75824 0.39813 0.31823 0.0
H1262 H 0.72661 0.39831 0.31406 0.0
H1263 H 0.74784 0.42349 0.30376 0.0
C1264 C 0.82605 0.44259 0.47509 0.0
C1265 C 0.82354 0.4162 0.4767 0.0
C1266 C 0.84876 0.45816 0.47543 0.0
C1267 C 0.86948 0.44714 0.47768 0.0
C1268 C 0.86711 0.42041 0.47839 0.0
C1269 C 0.84415 0.40523 0.47775 0.0
C1270 C 0.85057 0.48654 0.47433 0.0
C1271 C 0.88882 0.40799 0.48095 0.0
C1272 C 0.93089 0.48396 0.46538 0.0
C1273 C 0.94039 0.49292 0.48952 0.0
C1274 C 0.90759 0.4695 0.46112 0.0
C1275 C 0.89357 0.46377 0.48148 0.0
C1276 C 0.9028 0.47335 0.50579 0.0
C1277 C 0.926 0.48788 0.50949 0.0
C1278 C 0.89819 0.45985 0.43491 0.0
C1279 C 0.88842 0.46765 0.52802 0.0
H1280 H 0.81024 0.45122 0.47398 0.0
H1281 H 0.84241 0.38488 0.47899 0.0
H1282 H 0.85817 0.49689 0.49237 0.0
H1283 H 0.86288 0.49329 0.46004 0.0
H1284 H 0.83286 0.49174 0.47014 0.0
H1285 H 0.88396 0.38683 0.47952 0.0
H1286 H 0.90137 0.41349 0.46647 0.0
H1287 H 0.89855 0.4148 0.49917 0.0
H1288 H 0.9418 0.48776 0.4498 0.0
H1289 H 0.93304 0.49473 0.52824 0.0
H1290 H 0.88059 0.46537 0.43103 0.0
H1291 H 0.8953 0.43868 0.43255 0.0
H1292 H 0.91068 0.46736 0.42104 0.0
H1293 H 0.87104 0.47418 0.52606 0.0
H1294 H 0.89801 0.47701 0.54566 0.0
H1295 H 0.88437 0.44673 0.52917 0.0
C1296 C 0.33927 0.07568 0.25701 0.0
C1297 C 0.36216 0.08827 0.26646 0.0
C1298 C 0.32172 0.08941 0.2499 0.0
C1299 C 0.32717 0.11639 0.25237 0.0
C1300 C 0.35063 0.12919 0.26067 0.0
C1301 C 0.3679 0.11495 0.26759 0.0
C1302 C 0.29699 0.07508 0.241 0.0
C1303 C 0.35715 0.15799 0.26338 0.0
C1304 C 0.2871 0.15653 0.22287 0.0
C1305 C 0.2754 0.16479 0.2434 0.0
C1306 C 0.30339 0.13988 0.22519 0.0
C1307 C 0.30785 0.13128 0.24855 0.0
C1308 C 0.29475 0.13818 0.26886 0.0
C1309 C 0.27874 0.15494 0.26604 0.0
C1310 C 0.31691 0.13285 0.20309 0.0
C1311 C 0.29876 0.12929 0.29404 0.0
H1312 H 0.33475 0.05502 0.25588 0.0
H1313 H 0.38556 0.12477 0.27481 0.0
H1314 H 0.28406 0.07858 0.25505 0.0
H1315 H 0.29094 0.08204 0.22362 0.0
H1316 H 0.29634 0.05416 0.23769 0.0
H1317 H 0.3766 0.16493 0.2681 0.0
H1318 H 0.35215 0.16564 0.24598 0.0
H1319 H 0.34696 0.16589 0.27821 0.0
H1320 H 0.28472 0.16434 0.2054 0.0
H1321 H 0.26978 0.16141 0.28198 0.0
H1322 H 0.31708 0.11206 0.20107 0.0
H1323 H 0.33582 0.14298 0.20586 0.0
H1324 H 0.30907 0.1381 0.18563 0.0
H1325 H 0.2992 0.10857 0.29246 0.0
H1326 H 0.28459 0.13294 0.30661 0.0
H1327 H 0.31634 0.13957 0.30263 0.0
C1328 C 0.34857 0.13017 0.49849 0.0
C1329 C 0.32495 0.11641 0.49639 0.0
C1330 C 0.36828 0.1177 0.50088 0.0
C1331 C 0.36436 0.09074 0.50085 0.0
C1332 C 0.34054 0.0768 0.49888 0.0
C1333 C 0.3212 0.08978 0.49685 0.0
C1334 C 0.39333 0.13334 0.50326 0.0
C1335 C 0.33548 0.04807 0.49847 0.0
C1336 C 0.41504 0.05584 0.4828 0.0
C1337 C 0.42421 0.05089 0.50585 0.0
C1338 C 0.39561 0.06872 0.48087 0.0
C1339 C 0.3851 0.07704 0.5026 0.0
C1340 C 0.39424 0.07195 0.52596 0.0
C1341 C 0.41359 0.05885 0.52729 0.0
C1342 C 0.3864 0.07348 0.45556 0.0
C1343 C 0.38379 0.08065 0.5496 0.0
H1344 H 0.35167 0.15072 0.49815 0.0
H1345 H 0.30306 0.0789 0.4951 0.0
H1346 H 0.40294 0.12973 0.52042 0.0
H1347 H 0.40357 0.12755 0.48747 0.0
H1348 H 0.39339 0.15415 0.5037 0.0
H1349 H 0.31597 0.04002 0.49696 0.0
H1350 H 0.3439 0.03945 0.48257 0.0
H1351 H 0.34349 0.04231 0.51556 0.0
H1352 H 0.42315 0.04974 0.46622 0.0
H1353 H 0.42071 0.05528 0.5452 0.0
H1354 H 0.38751 0.09426 0.45453 0.0
H1355 H 0.36724 0.06433 0.45227 0.0
H1356 H 0.39663 0.06597 0.44052 0.0
H1357 H 0.38512 0.10169 0.55121 0.0
H1358 H 0.39304 0.07543 0.5663 0.0
H1359 H 0.36449 0.07203 0.54926 0.0
C1360 C 0.69483 0.58916 0.29518 0.0
C1361 C 0.67273 0.58855 0.30593 0.0
C1362 C 0.71021 0.61241 0.29273 0.0
C1363 C 0.70359 0.63574 0.30154 0.0
C1364 C 0.68183 0.63527 0.31341 0.0
C1365 C 0.66662 0.61173 0.31535 0.0
C1366 C 0.73311 0.61201 0.27972 0.0
C1367 C 0.67427 0.65969 0.32338 0.0
C1368 C 0.75323 0.69484 0.30861 0.0
C1369 C 0.74932 0.70593 0.28676 0.0
C1370 C 0.73811 0.67239 0.31405 0.0
C1371 C 0.71882 0.66057 0.29704 0.0
C1372 C 0.71461 0.67198 0.27511 0.0
C1373 C 0.72981 0.69457 0.27032 0.0
C1374 C 0.74297 0.66112 0.33781 0.0
C1375 C 0.69439 0.65998 0.25637 0.0
H1376 H 0.69977 0.57147 0.28772 0.0
H1377 H 0.64967 0.61156 0.32378 0.0
H1378 H 0.73235 0.62147 0.26243 0.0
H1379 H 0.74868 0.62288 0.29155 0.0
H1380 H 0.73623 0.59229 0.27492 0.0
H1381 H 0.65756 0.65607 0.3334 0.0
H1382 H 0.68871 0.6714 0.33613 0.0
H1383 H 0.67128 0.67117 0.30792 0.0
H1384 H 0.76821 0.70365 0.32144 0.0
H1385 H 0.72672 0.70305 0.25338 0.0
H1386 H 0.74781 0.64209 0.33355 0.0
H1387 H 0.72657 0.65829 0.34835 0.0
H1388 H 0.75775 0.67342 0.34976 0.0
H1389 H 0.69691 0.6406 0.24922 0.0
H1390 H 0.69329 0.67145 0.24046 0.0
H1391 H 0.67704 0.65777 0.26525 0.0
C1392 C 0.86199 0.46521 0.81062 0.0
C1393 C 0.88667 0.46603 0.80886 0.0
C1394 C 0.84578 0.44189 0.80816 0.0
C1395 C 0.85442 0.41883 0.80344 0.0
C1396 C 0.87943 0.41942 0.80295 0.0
C1397 C 0.8953 0.44305 0.80586 0.0
C1398 C 0.8193 0.44206 0.8093 0.0
C1399 C 0.88932 0.39523 0.79781 0.0
C1400 C 0.81298 0.35537 0.8083 0.0
C1401 C 0.80452 0.3482 0.78353 0.0
C1402 C 0.82909 0.3784 0.81515 0.0
C1403 C 0.83719 0.39444 0.79676 0.0
C1404 C 0.82867 0.38734 0.77175 0.0
C1405 C 0.81233 0.36441 0.76548 0.0
C1406 C 0.83751 0.38552 0.84204 0.0
C1407 C 0.83705 0.40381 0.75153 0.0
H1408 H 0.85522 0.4829 0.81318 0.0
H1409 H 0.91434 0.44355 0.80436 0.0
H1410 H 0.81026 0.43627 0.79061 0.0
H1411 H 0.81109 0.42807 0.82177 0.0
H1412 H 0.81574 0.46121 0.81591 0.0
H1413 H 0.90919 0.39868 0.80032 0.0
H1414 H 0.88178 0.38079 0.81014 0.0
H1415 H 0.88395 0.38693 0.77847 0.0
H1416 H 0.80704 0.34297 0.82238 0.0
H1417 H 0.80611 0.35894 0.74627 0.0
H1418 H 0.83331 0.40442 0.84846 0.0
H1419 H 0.85725 0.38723 0.84425 0.0
H1420 H 0.82907 0.37125 0.85416 0.0
H1421 H 0.83233 0.42297 0.75533 0.0
H1422 H 0.82899 0.39536 0.73295 0.0
H1423 H 0.85685 0.40658 0.75113 0.0
C1424 C 0.03637 0.85189 0.08837 0.0
C1425 C 0.03472 0.8547 0.11414 0.0
C1426 C 0.03497 0.87216 0.07411 0.0
C1427 C 0.03212 0.89599 0.08591 0.0
C1428 C 0.0312 0.89926 0.11202 0.0
C1429 C 0.03239 0.87848 0.12586 0.0
C1430 C 0.03589 0.86783 0.04633 0.0
C1431 C 0.0285 0.92454 0.12525 0.0
C1432 C 0.04781 0.95376 0.05003 0.0
C1433 C 0.02507 0.95734 0.04147 0.0
C1434 C 0.05035 0.93404 0.06468 0.0
C1435 C 0.02968 0.91726 0.07074 0.0
C1436 C 0.00672 0.92035 0.0617 0.0
C1437 C 0.00468 0.94042 0.04725 0.0
C1438 C 0.07515 0.93142 0.074 0.0
C1439 C 0.98428 0.90256 0.06745 0.0
H1440 H 0.03816 0.83357 0.07912 0.0
H1441 H 0.03109 0.88075 0.14575 0.0
H1442 H 0.01892 0.87088 0.03721 0.0
H1443 H 0.05063 0.88179 0.0399 0.0
H1444 H 0.0386 0.84825 0.04008 0.0
H1445 H 0.02917 0.9243 0.14569 0.0
H1446 H 0.04292 0.93993 0.12045 0.0
H1447 H 0.01117 0.92944 0.1191 0.0
H1448 H 0.06373 0.96676 0.04582 0.0
H1449 H 0.98705 0.94304 0.0408 0.0
H1450 H 0.0787 0.91228 0.06746 0.0
H1451 H 0.07637 0.93306 0.09453 0.0
H1452 H 0.08939 0.94614 0.06773 0.0
H1453 H 0.98531 0.88258 0.06077 0.0
H1454 H 0.96781 0.90738 0.0588 0.0
H1455 H 0.98272 0.90337 0.08777 0.0
C1456 C 0.92577 0.2506 0.82706 0.0
C1457 C 0.92845 0.26455 0.85048 0.0
C1458 C 0.90543 0.24996 0.81109 0.0
C1459 C 0.88756 0.26394 0.81854 0.0
C1460 C 0.89011 0.27792 0.84218 0.0
C1461 C 0.91038 0.27792 0.85788 0.0
C1462 C 0.90316 0.23456 0.78613 0.0
C1463 C 0.87168 0.2934 0.85072 0.0
C1464 C 0.84801 0.28542 0.76945 0.0
C1465 C 0.8263 0.26845 0.77051 0.0
C1466 C 0.86815 0.28398 0.78481 0.0
C1467 C 0.8666 0.26485 0.80136 0.0
C1468 C 0.84475 0.24742 0.80224 0.0
C1469 C 0.82479 0.24952 0.78685 0.0
C1470 C 0.8909 0.30333 0.78372 0.0
C1471 C 0.84237 0.22673 0.81958 0.0
H1472 H 0.93955 0.24016 0.82121 0.0
H1473 H 0.91229 0.28895 0.87583 0.0
H1474 H 0.88585 0.22087 0.78389 0.0
H1475 H 0.90316 0.24742 0.77122 0.0
H1476 H 0.91798 0.22376 0.78356 0.0
H1477 H 0.87615 0.30295 0.8698 0.0
H1478 H 0.8703 0.30824 0.838 0.0
H1479 H 0.85376 0.28095 0.85021 0.0
H1480 H 0.84913 0.3002 0.75694 0.0
H1481 H 0.80803 0.23627 0.78753 0.0
H1482 H 0.90603 0.29346 0.77949 0.0
H1483 H 0.89549 0.31461 0.80201 0.0
H1484 H 0.88927 0.31672 0.76953 0.0
H1485 H 0.85625 0.21484 0.81626 0.0
H1486 H 0.82442 0.21414 0.81736 0.0
H1487 H 0.84538 0.23542 0.83905 0.0
C1488 C 0.55972 0.21909 0.5904 0.0
C1489 C 0.54602 0.22661 0.60973 0.0
C1490 C 0.55737 0.19349 0.58095 0.0
C1491 C 0.54105 0.1746 0.59114 0.0
C1492 C 0.52789 0.18174 0.61137 0.0
C1493 C 0.53048 0.20772 0.62042 0.0
C1494 C 0.57168 0.18683 0.55929 0.0
C1495 C 0.51052 0.16205 0.62289 0.0
C1496 C 0.51658 0.11626 0.54616 0.0
C1497 C 0.53155 0.09923 0.55212 0.0
C1498 C 0.519 0.1405 0.55925 0.0
C1499 C 0.53662 0.14786 0.5791 0.0
C1500 C 0.55142 0.13052 0.58564 0.0
C1501 C 0.54887 0.10648 0.5719 0.0
C1502 C 0.50318 0.15854 0.5513 0.0
C1503 C 0.57017 0.13753 0.60689 0.0
H1504 H 0.57207 0.23335 0.58211 0.0
H1505 H 0.51989 0.21324 0.63539 0.0
H1506 H 0.58194 0.17183 0.56361 0.0
H1507 H 0.55933 0.17903 0.5429 0.0
H1508 H 0.58445 0.20362 0.55428 0.0
H1509 H 0.50359 0.1702 0.64004 0.0
H1510 H 0.49511 0.1541 0.6095 0.0
H1511 H 0.51927 0.14594 0.62737 0.0
H1512 H 0.50317 0.11083 0.53086 0.0
H1513 H 0.56024 0.09325 0.57685 0.0
H1514 H 0.51435 0.17549 0.54458 0.0
H1515 H 0.49378 0.16549 0.56727 0.0
H1516 H 0.48957 0.14945 0.53631 0.0
H1517 H 0.58439 0.15324 0.60235 0.0
H1518 H 0.57863 0.12112 0.61111 0.0
H1519 H 0.56208 0.14458 0.62376 0.0
C1520 C 0.58357 0.77322 0.35083 0.0
C1521 C 0.56121 0.7618 0.33916 0.0
C1522 C 0.60488 0.77256 0.33879 0.0
C1523 C 0.60385 0.76009 0.3145 0.0
C1524 C 0.58135 0.74821 0.30276 0.0
C1525 C 0.56032 0.74925 0.31521 0.0
C1526 C 0.6285 0.78547 0.35196 0.0
C1527 C 0.57949 0.73461 0.27696 0.0
C1528 C 0.65704 0.78007 0.27576 0.0
C1529 C 0.67051 0.76101 0.27907 0.0
C1530 C 0.63506 0.77973 0.28678 0.0
C1531 C 0.62632 0.75977 0.30133 0.0
C1532 C 0.63953 0.74001 0.30401 0.0
C1533 C 0.66149 0.74091 0.2929 0.0
C1534 C 0.62155 0.80116 0.28347 0.0
C1535 C 0.6308 0.7183 0.3192 0.0
H1536 H 0.58443 0.78299 0.36931 0.0
H1537 H 0.54313 0.74034 0.30605 0.0
H1538 H 0.64061 0.77148 0.35332 0.0
H1539 H 0.63746 0.80071 0.34117 0.0
H1540 H 0.62628 0.79409 0.3709 0.0
H1541 H 0.56071 0.72583 0.27063 0.0
H1542 H 0.58671 0.74824 0.26374 0.0
H1543 H 0.59046 0.71941 0.27632 0.0
H1544 H 0.66401 0.79569 0.26517 0.0
H1545 H 0.67187 0.72611 0.2955 0.0
H1546 H 0.62049 0.81197 0.30169 0.0
H1547 H 0.60291 0.79331 0.27609 0.0
H1548 H 0.63021 0.81464 0.27074 0.0
H1549 H 0.63015 0.72583 0.33882 0.0
H1550 H 0.64251 0.70376 0.31841 0.0
H1551 H 0.61232 0.70882 0.31257 0.0
C1552 C 0.01367 0.21037 0.45744 0.0
C1553 C 0.02818 0.21773 0.43807 0.0
C1554 C 0.01304 0.18675 0.46678 0.0
C1555 C 0.02727 0.1698 0.45659 0.0
C1556 C 0.04169 0.17677 0.43674 0.0
C1557 C 0.04191 0.20067 0.42761 0.0
C1558 C 0.99715 0.18001 0.4877 0.0
C1559 C 0.05706 0.1591 0.42538 0.0
C1560 C 0.03894 0.11828 0.49724 0.0
C1561 C 0.02145 0.0974 0.48736 0.0
C1562 C 0.04154 0.1418 0.48698 0.0
C1563 C 0.02624 0.1445 0.46642 0.0
C1564 C 0.00854 0.12351 0.45646 0.0
C1565 C 0.00634 0.10033 0.46704 0.0
C1566 C 0.06059 0.16379 0.49815 0.0
C1567 C 0.99171 0.12556 0.43471 0.0
H1568 H 1.00276 0.22324 0.46553 0.0
H1569 H 0.05326 0.20624 0.41277 0.0
H1570 H 0.9839 0.16231 0.4819 0.0
H1571 H 0.0081 0.17621 0.50388 0.0
H1572 H 0.98729 0.19543 0.49367 0.0
H1573 H 0.06726 0.16729 0.4101 0.0
H1574 H 0.06994 0.15501 0.43975 0.0
H1575 H 0.04569 0.1406 0.41805 0.0
H1576 H 0.0509 0.11613 0.51268 0.0
H1577 H 0.99272 0.08438 0.4592 0.0
H1578 H 0.05208 0.17976 0.50559 0.0
H1579 H 0.07248 0.17103 0.4837 0.0
H1580 H 0.07174 0.15831 0.51335 0.0
H1581 H 0.98046 0.1399 0.43988 0.0
H1582 H 0.97972 0.10708 0.42837 0.0
H1583 H 1.00209 0.13221 0.41897 0.0
C1584 C 0.59584 0.30032 0.14616 0.0
C1585 C 0.57447 0.28237 0.14491 0.0
C1586 C 0.61668 0.29605 0.15877 0.0
C1587 C 0.61638 0.27276 0.16939 0.0
C1588 C 0.59477 0.25459 0.16814 0.0
C1589 C 0.57396 0.25984 0.15632 0.0
C1590 C 0.63906 0.31638 0.16055 0.0
C1591 C 0.59383 0.22921 0.17851 0.0
C1592 C 0.67718 0.25322 0.17927 0.0
C1593 C 0.6817 0.25894 0.20488 0.0
C1594 C 0.6556 0.25681 0.16756 0.0
C1595 C 0.6387 0.26738 0.1817 0.0
C1596 C 0.64333 0.27325 0.20759 0.0
C1597 C 0.66455 0.26849 0.2189 0.0
C1598 C 0.65098 0.24947 0.14006 0.0
C1599 C 0.6263 0.28542 0.22322 0.0
H1600 H 0.59623 0.31771 0.13726 0.0
H1601 H 0.55753 0.24574 0.15495 0.0
H1602 H 0.64599 0.32113 0.18016 0.0
H1603 H 0.65327 0.30915 0.15022 0.0
H1604 H 0.63584 0.33414 0.15298 0.0
H1605 H 0.57569 0.21705 0.17581 0.0
H1606 H 0.60679 0.21875 0.16938 0.0
H1607 H 0.59917 0.2322 0.19859 0.0
H1608 H 0.69048 0.24591 0.16843 0.0
H1609 H 0.6682 0.27333 0.23869 0.0
H1610 H 0.65042 0.26678 0.13043 0.0
H1611 H 0.63326 0.23668 0.13619 0.0
H1612 H 0.66497 0.23967 0.13212 0.0
H1613 H 0.62421 0.30388 0.21643 0.0
H1614 H 0.63262 0.28896 0.24309 0.0
H1615 H 0.60831 0.27303 0.22162 0.0
C1616 C 0.55585 0.8683 0.9153 0.0
C1617 C 0.54619 0.84594 0.92569 0.0
C1618 C 0.55548 0.89247 0.92777 0.0
C1619 C 0.5447 0.89408 0.95075 0.0
C1620 C 0.53477 0.87151 0.9611 0.0
C1621 C 0.53598 0.8478 0.94864 0.0
C1622 C 0.56679 0.91621 0.91657 0.0
C1623 C 0.52243 0.87232 0.98517 0.0
C1624 C 0.55403 0.95087 0.99944 0.0
C1625 C 0.53313 0.96056 0.99506 0.0
C1626 C 0.55915 0.93042 0.98376 0.0
C1627 C 0.5426 0.91911 0.96382 0.0
C1628 C 0.52198 0.92962 0.9588 0.0
C1629 C 0.51764 0.95039 0.97436 0.0
C1630 C 0.58167 0.92015 0.98922 0.0
C1631 C 0.50361 0.91785 0.93809 0.0
H1632 H 0.564 0.8669 0.89769 0.0
H1633 H 0.52852 0.83067 0.95685 0.0
H1634 H 0.55375 0.92916 0.91479 0.0
H1635 H 0.58207 0.92679 0.929 0.0
H1636 H 0.57342 0.91175 0.89804 0.0
H1637 H 0.51513 0.85294 0.99036 0.0
H1638 H 0.53518 0.88256 0.00038 0.0
H1639 H 0.50745 0.88295 0.98367 0.0
H1640 H 0.56617 0.95903 0.01525 0.0
H1641 H 0.50146 0.95794 0.97093 0.0
H1642 H 0.59078 0.91667 0.97193 0.0
H1643 H 0.57697 0.90161 0.99708 0.0
H1644 H 0.59441 0.93342 0.00266 0.0
H1645 H 0.51237 0.91508 0.92048 0.0
H1646 H 0.48976 0.92973 0.93525 0.0
H1647 H 0.49454 0.89875 0.94246 0.0
C1648 C 0.94393 0.77394 0.69681 0.0
C1649 C 0.94078 0.77319 0.67097 0.0
C1650 C 0.9244 0.77415 0.71192 0.0
C1651 C 0.90113 0.77332 0.70092 0.0
C1652 C 0.89786 0.77214 0.67482 0.0
C1653 C 0.91767 0.77222 0.66023 0.0
C1654 C 0.92869 0.77562 0.73966 0.0
C1655 C 0.87337 0.7709 0.66223 0.0
C1656 C 0.8445 0.75056 0.73368 0.0
C1657 C 0.83639 0.7735 0.73996 0.0
C1658 C 0.86602 0.7503 0.72194 0.0
C1659 C 0.88004 0.77357 0.71645 0.0
C1660 C 0.87267 0.79691 0.72394 0.0
C1661 C 0.85093 0.7966 0.73551 0.0
C1662 C 0.87306 0.72495 0.71424 0.0
C1663 C 0.88719 0.82217 0.71869 0.0
H1664 H 0.96173 0.77483 0.70528 0.0
H1665 H 0.91502 0.77157 0.64029 0.0
H1666 H 0.92328 0.79308 0.74847 0.0
H1667 H 0.91749 0.75902 0.7469 0.0
H1668 H 0.94777 0.77598 0.74536 0.0
H1669 H 0.87376 0.76961 0.64173 0.0
H1670 H 0.86077 0.75407 0.66733 0.0
H1671 H 0.86612 0.78813 0.66859 0.0
H1672 H 0.83357 0.73254 0.73706 0.0
H1673 H 0.84496 0.81445 0.74028 0.0
H1674 H 0.89192 0.7252 0.72062 0.0
H1675 H 0.87183 0.72148 0.69374 0.0
H1676 H 0.86139 0.70877 0.72171 0.0
H1677 H 0.90629 0.82352 0.72489 0.0
H1678 H 0.88048 0.83865 0.72798 0.0
H1679 H 0.88645 0.82364 0.69845 0.0
C1680 C 0.12564 0.99701 0.87027 0.0
C1681 C 0.11661 0.003 0.84752 0.0
C1682 C 0.11179 0.99657 0.89122 0.0
C1683 C 0.08843 0.00243 0.88942 0.0
C1684 C 0.0794 0.00872 0.86654 0.0
C1685 C 0.09349 0.00879 0.84593 0.0
C1686 C 0.122 0.98949 0.91517 0.0
C1687 C 0.05482 0.01557 0.86382 0.0
C1688 C 0.04103 0.98271 0.93532 0.0
C1689 C 0.04244 0.00549 0.9507 0.0
C1690 C 0.05654 0.98108 0.9159 0.0
C1691 C 0.07357 0.00287 0.91151 0.0
C1692 C 0.07525 0.02576 0.92731 0.0
C1693 C 0.05979 0.02674 0.94669 0.0
C1694 C 0.05441 0.95619 0.89977 0.0
C1695 C 0.09292 0.04953 0.92329 0.0
H1696 H 0.14339 0.99231 0.87163 0.0
H1697 H 0.08632 0.01346 0.82847 0.0
H1698 H 0.12055 0.00405 0.93065 0.0
H1699 H 0.11147 0.97109 0.91965 0.0
H1700 H 0.14108 0.98755 0.91421 0.0
H1701 H 0.05043 0.02009 0.84479 0.0
H1702 H 0.04098 0.99953 0.8684 0.0
H1703 H 0.05377 0.03237 0.87702 0.0
H1704 H 0.02774 0.96621 0.93841 0.0
H1705 H 0.06088 0.04451 0.95835 0.0
H1706 H 0.07219 0.95045 0.89885 0.0
H1707 H 0.04829 0.95864 0.88061 0.0
H1708 H 0.04158 0.94054 0.90666 0.0
H1709 H 0.11137 0.04544 0.92341 0.0
H1710 H 0.09249 0.06557 0.93767 0.0
H1711 H 0.08885 0.05572 0.90488 0.0
C1712 C 0.76289 0.3825 0.57471 0.0
C1713 C 0.7451 0.37148 0.55635 0.0
C1714 C 0.76302 0.37319 0.59802 0.0
C1715 C 0.74477 0.35272 0.60282 0.0
C1716 C 0.72554 0.34336 0.58505 0.0
C1717 C 0.72612 0.35266 0.56182 0.0
C1718 C 0.78373 0.38372 0.61665 0.0
C1719 C 0.70543 0.32205 0.58978 0.0
C1720 C 0.76144 0.30454 0.64416 0.0
C1721 C 0.75185 0.31191 0.66632 0.0
C1722 C 0.75933 0.31784 0.62336 0.0
C1723 C 0.74733 0.33893 0.62492 0.0
C1724 C 0.7375 0.34634 0.64726 0.0
C1725 C 0.73974 0.33259 0.6677 0.0
C1726 C 0.7701 0.30945 0.59978 0.0
C1727 C 0.72451 0.36861 0.64956 0.0
H1728 H 0.77769 0.39683 0.57018 0.0
H1729 H 0.71247 0.34417 0.54739 0.0
H1730 H 0.77715 0.3876 0.63528 0.0
H1731 H 0.79544 0.36934 0.61803 0.0
H1732 H 0.79469 0.40159 0.61139 0.0
H1733 H 0.69033 0.31942 0.57552 0.0
H1734 H 0.71229 0.30389 0.58968 0.0
H1735 H 0.69852 0.32589 0.60826 0.0
H1736 H 0.77086 0.28861 0.64317 0.0
H1737 H 0.73227 0.33828 0.68489 0.0
H1738 H 0.78331 0.32552 0.59414 0.0
H1739 H 0.75589 0.30397 0.58459 0.0
H1740 H 0.77921 0.29298 0.60181 0.0
H1741 H 0.73452 0.38523 0.64126 0.0
H1742 H 0.72176 0.37468 0.66916 0.0
H1743 H 0.70672 0.36308 0.63932 0.0
C1744 C 0.45324 0.08824 0.36314 0.0
C1745 C 0.43195 0.07025 0.35898 0.0
C1746 C 0.46856 0.08869 0.38416 0.0
C1747 C 0.46276 0.07008 0.40091 0.0
C1748 C 0.44056 0.05266 0.39738 0.0
C1749 C 0.42524 0.05318 0.37651 0.0
C1750 C 0.49182 0.10775 0.38737 0.0
C1751 C 0.43373 0.03176 0.41402 0.0
C1752 C 0.51377 0.04612 0.43293 0.0
C1753 C 0.51391 0.05771 0.45704 0.0
C1754 C 0.49755 0.05053 0.41434 0.0
C1755 C 0.48112 0.06689 0.42015 0.0
C1756 C 0.48169 0.0792 0.44443 0.0
C1757 C 0.49816 0.07443 0.46266 0.0
C1758 C 0.49714 0.03659 0.38883 0.0
C1759 C 0.4643 0.09653 0.45133 0.0
H1760 H 0.45845 0.10122 0.34929 0.0
H1761 H 0.40902 0.03885 0.37289 0.0
H1762 H 0.49478 0.11684 0.40671 0.0
H1763 H 0.50697 0.09775 0.38357 0.0
H1764 H 0.49219 0.12293 0.37467 0.0
H1765 H 0.4142 0.02875 0.41676 0.0
H1766 H 0.43758 0.01363 0.40491 0.0
H1767 H 0.4437 0.03569 0.43235 0.0
H1768 H 0.52553 0.03259 0.42895 0.0
H1769 H 0.49799 0.08283 0.48157 0.0
H1770 H 0.49885 0.05035 0.37464 0.0
H1771 H 0.47971 0.02334 0.3847 0.0
H1772 H 0.51176 0.0254 0.38708 0.0
H1773 H 0.46786 0.11368 0.44105 0.0
H1774 H 0.46565 0.1028 0.47149 0.0
H1775 H 0.44564 0.08668 0.44589 0.0
C1776 C 0.76669 0.67237 0.07659 0.0
C1777 C 0.76616 0.69022 0.05927 0.0
C1778 C 0.76698 0.6798 0.10224 0.0
C1779 C 0.76687 0.70567 0.11073 0.0
C1780 C 0.76705 0.72381 0.09333 0.0
C1781 C 0.76669 0.7159 0.06798 0.0
C1782 C 0.76687 0.65992 0.12023 0.0
C1783 C 0.76721 0.75162 0.10145 0.0
C1784 C 0.74431 0.72602 0.17317 0.0
C1785 C 0.76582 0.73613 0.18718 0.0
C1786 C 0.74438 0.71507 0.14859 0.0
C1787 C 0.76647 0.71415 0.1377 0.0
C1788 C 0.78821 0.7237 0.15196 0.0
C1789 C 0.78763 0.73456 0.17642 0.0
C1790 C 0.72078 0.70517 0.13403 0.0
C1791 C 0.81217 0.72319 0.14114 0.0
H1792 H 0.7662 0.65251 0.0701 0.0
H1793 H 0.76656 0.72999 0.05488 0.0
H1794 H 0.78219 0.66581 0.13417 0.0
H1795 H 0.75024 0.65822 0.1304 0.0
H1796 H 0.76791 0.64086 0.11083 0.0
H1797 H 0.76775 0.76341 0.08561 0.0
H1798 H 0.75094 0.7535 0.11151 0.0
H1799 H 0.78297 0.75952 0.11442 0.0
H1800 H 0.72736 0.72693 0.18127 0.0
H1801 H 0.80442 0.74208 0.18702 0.0
H1802 H 0.7202 0.68535 0.12566 0.0
H1803 H 0.71893 0.71708 0.11863 0.0
H1804 H 0.70521 0.7054 0.14567 0.0
H1805 H 0.81292 0.70367 0.13278 0.0
H1806 H 0.82739 0.7294 0.15521 0.0
H1807 H 0.81454 0.73601 0.12614 0.0
C1808 C 0.09494 0.00227 0.7052 0.0
C1809 C 0.11777 0.01175 0.71669 0.0
C1810 C 0.08939 0.00641 0.68066 0.0
C1811 C 0.10692 0.02105 0.66742 0.0
C1812 C 0.13036 0.02977 0.67859 0.0
C1813 C 0.13559 0.02477 0.70307 0.0
C1814 C 0.06437 0.99611 0.66933 0.0
C1815 C 0.14946 0.04568 0.66526 0.0
C1816 C 0.09212 0.01728 0.59807 0.0
C1817 C 0.07978 0.03762 0.59649 0.0
C1818 C 0.10206 0.01229 0.62085 0.0
C1819 C 0.10001 0.02832 0.64255 0.0
C1820 C 0.08897 0.04991 0.64074 0.0
C1821 C 0.07876 0.05415 0.61777 0.0
C1822 C 0.11328 0.98887 0.62191 0.0
C1823 C 0.08681 0.06779 0.66333 0.0
H1824 H 0.08112 0.99227 0.71577 0.0
H1825 H 0.15313 0.03253 0.71208 0.0
H1826 H 0.05499 0.01218 0.66647 0.0
H1827 H 0.06513 0.98553 0.65093 0.0
H1828 H 0.05358 0.98316 0.68119 0.0
H1829 H 0.16734 0.04876 0.67537 0.0
H1830 H 0.15076 0.03648 0.64636 0.0
H1831 H 0.14455 0.06457 0.66322 0.0
H1832 H 0.09288 0.00433 0.58169 0.0
H1833 H 0.06927 0.0699 0.61663 0.0
H1834 H 0.10151 0.97449 0.63154 0.0
H1835 H 0.13083 0.99367 0.63265 0.0
H1836 H 0.11595 0.98005 0.60317 0.0
H1837 H 0.074 0.05783 0.67566 0.0
H1838 H 0.08038 0.08523 0.65843 0.0
H1839 H 0.10437 0.07359 0.67398 0.0
C1840 C 0.74873 0.34094 0.42936 0.0
C1841 C 0.74123 0.36439 0.42793 0.0
C1842 C 0.75044 0.32483 0.40805 0.0
C1843 C 0.74376 0.33193 0.38474 0.0
C1844 C 0.73551 0.35524 0.38311 0.0
C1845 C 0.73462 0.37142 0.4048 0.0
C1846 C 0.76007 0.30055 0.41048 0.0
C1847 C 0.72767 0.36302 0.35848 0.0
C1848 C 0.77123 0.30589 0.32815 0.0
C1849 C 0.75275 0.28621 0.31795 0.0
C1850 C 0.76867 0.32057 0.35013 0.0
C1851 C 0.74691 0.31566 0.36201 0.0
C1852 C 0.72844 0.29522 0.35227 0.0
C1853 C 0.73166 0.28052 0.33034 0.0
C1854 C 0.78895 0.3419 0.36016 0.0
C1855 C 0.70495 0.28961 0.36444 0.0
H1856 H 0.75376 0.33525 0.44714 0.0
H1857 H 0.72853 0.38938 0.40369 0.0
H1858 H 0.747 0.2838 0.40179 0.0
H1859 H 0.77679 0.30121 0.40055 0.0
H1860 H 0.76405 0.29757 0.43008 0.0
H1861 H 0.71222 0.34868 0.34991 0.0
H1862 H 0.72235 0.38206 0.36029 0.0
H1863 H 0.74232 0.36346 0.34563 0.0
H1864 H 0.78743 0.31046 0.31839 0.0
H1865 H 0.71723 0.26555 0.32223 0.0
H1866 H 0.7937 0.34009 0.37986 0.0
H1867 H 0.78323 0.36058 0.35935 0.0
H1868 H 0.80526 0.34204 0.34957 0.0
H1869 H 0.70815 0.28656 0.38413 0.0
H1870 H 0.69275 0.27249 0.35504 0.0
H1871 H 0.69582 0.30626 0.36414 0.0
C1872 C 0.46873 0.03262 0.22926 0.0
C1873 C 0.44474 0.03359 0.23379 0.0
C1874 C 0.47627 0.03034 0.20515 0.0
C1875 C 0.45944 0.02884 0.18489 0.0
C1876 C 0.43517 0.02974 0.18916 0.0
C1877 C 0.4281 0.0322 0.21362 0.0
C1878 C 0.50236 0.02965 0.20137 0.0
C1879 C 0.41674 0.02806 0.16792 0.0
C1880 C 0.48609 0.04641 0.12469 0.0
C1881 C 0.48753 0.02236 0.11296 0.0
C1882 C 0.47631 0.04878 0.14784 0.0
C1883 C 0.46757 0.02652 0.15932 0.0
C1884 C 0.46848 0.00214 0.14723 0.0
C1885 C 0.47864 1.00036 0.12421 0.0
C1886 C 0.47595 0.07512 0.16027 0.0
C1887 C 0.4591 0.97799 0.15881 0.0
H1888 H 0.48184 0.0338 0.24463 0.0
H1889 H 0.40954 0.03291 0.2169 0.0
H1890 H 0.50398 0.01158 0.1904 0.0
H1891 H 0.51012 0.04557 0.19073 0.0
H1892 H 0.5132 0.03119 0.21915 0.0
H1893 H 0.39856 0.02876 0.17434 0.0
H1894 H 0.42197 0.04402 0.15642 0.0
H1895 H 0.41596 0.01003 0.15582 0.0
H1896 H 0.49285 0.06344 0.11589 0.0
H1897 H 0.4795 0.98175 0.11496 0.0
H1898 H 0.48777 0.07863 0.17752 0.0
H1899 H 0.45759 0.07655 0.16561 0.0
H1900 H 0.48209 0.09038 0.14819 0.0
H1901 H 0.47011 0.97726 0.17603 0.0
H1902 H 0.45946 0.96053 0.14619 0.0
H1903 H 0.44043 0.97782 0.16405 0.0
C1904 C 0.77998 0.66817 0.90573 0.0
C1905 C 0.77096 0.67805 0.92742 0.0
C1906 C 0.78159 0.68161 0.8845 0.0
C1907 C 0.77361 0.70528 0.88482 0.0
C1908 C 0.76396 0.71496 0.90651 0.0
C1909 C 0.76299 0.70141 0.92754 0.0
C1910 C 0.7923 0.67077 0.8619 0.0
C1911 C 0.75466 0.73974 0.90756 0.0
C1912 C 0.79496 0.75469 0.84008 0.0
C1913 C 0.77572 0.75027 0.82222 0.0
C1914 C 0.79495 0.73957 0.86005 0.0
C1915 C 0.775 0.71992 0.8625 0.0
C1916 C 0.75567 0.71528 0.8443 0.0
C1917 C 0.75638 0.7303 0.82434 0.0
C1918 C 0.81613 0.74487 0.87874 0.0
C1919 C 0.73384 0.69494 0.8463 0.0
H1920 H 0.78638 0.65026 0.90556 0.0
H1921 H 0.75592 0.70917 0.94417 0.0
H1922 H 0.77962 0.66895 0.84544 0.0
H1923 H 0.80881 0.68402 0.85804 0.0
H1924 H 0.79687 0.65176 0.86421 0.0
H1925 H 0.74703 0.74428 0.92555 0.0
H1926 H 0.76936 0.75568 0.90463 0.0
H1927 H 0.74057 0.73871 0.8925 0.0
H1928 H 0.80999 0.76999 0.83847 0.0
H1929 H 0.74136 0.72682 0.81068 0.0
H1930 H 0.823 0.72703 0.88104 0.0
H1931 H 0.81047 0.75172 0.89703 0.0
H1932 H 0.83095 0.75946 0.87328 0.0
H1933 H 0.73919 0.67611 0.84736 0.0
H1934 H 0.72054 0.69337 0.83036 0.0
H1935 H 0.72504 0.69934 0.86358 0.0
C1936 C 0.82518 0.07622 0.02473 0.0
C1937 C 0.82957 0.10057 0.01633 0.0
C1938 C 0.84229 0.06029 0.02281 0.0
C1939 C 0.86423 0.06891 0.01221 0.0
C1940 C 0.86861 0.09335 0.00345 0.0
C1941 C 0.85125 0.10887 0.00563 0.0
C1942 C 0.83711 0.03446 0.03256 0.0
C1943 C 0.89203 0.1035 0.99256 0.0
C1944 C 0.9206 0.04594 0.03197 0.0
C1945 C 0.92459 0.03076 0.0107 0.0
C1946 C 0.90062 0.0578 0.03297 0.0
C1947 C 0.88369 0.05369 0.01246 0.0
C1948 C 0.88671 0.0369 0.99156 0.0
C1949 C 0.90731 0.0257 0.99083 0.0
C1950 C 0.89826 0.0755 0.05568 0.0
C1951 C 0.86887 0.03189 0.96948 0.0
H1952 H 0.80839 0.06962 0.03288 0.0
H1953 H 0.85473 0.1276 0.99897 0.0
H1954 H 0.84037 0.01941 0.01836 0.0
H1955 H 0.84943 0.0343 0.04894 0.0
H1956 H 0.81837 0.02955 0.03807 0.0
H1957 H 0.89208 0.12226 0.9853 0.0
H1958 H 0.90693 0.10576 0.00697 0.0
H1959 H 0.8957 0.08977 0.9773 0.0
H1960 H 0.93379 0.04961 0.04755 0.0
H1961 H 0.91039 0.01398 0.97438 0.0
H1962 H 0.88448 0.06573 0.06716 0.0
H1963 H 0.89254 0.09322 0.05066 0.0
H1964 H 0.91541 0.08108 0.06709 0.0
H1965 H 0.85035 0.02693 0.97552 0.0
H1966 H 0.87225 0.01619 0.95604 0.0
H1967 H 0.86991 0.04945 0.95987 0.0
C1968 C 0.35957 0.41861 0.03277 0.0
C1969 C 0.3384 0.42526 0.02338 0.0
C1970 C 0.38161 0.4357 0.03398 0.0
C1971 C 0.38278 0.45984 0.02483 0.0
C1972 C 0.36136 0.46687 0.01574 0.0
C1973 C 0.33936 0.44964 0.01547 0.0
C1974 C 0.4038 0.42756 0.04444 0.0
C1975 C 0.36184 0.49204 0.00514 0.0
C1976 C 0.44013 0.5092 0.04214 0.0
C1977 C 0.45435 0.50401 0.02254 0.0
C1978 C 0.41654 0.4955 0.0429 0.0
C1979 C 0.40669 0.4767 0.02324 0.0
C1980 C 0.42061 0.47248 0.00279 0.0
C1981 C 0.44435 0.48573 0.00297 0.0
C1982 C 0.40264 0.50016 0.06537 0.0
C1983 C 0.4108 0.45321 0.98106 0.0
H1984 H 0.35892 0.39984 0.03904 0.0
H1985 H 0.3231 0.45477 0.00794 0.0
H1986 H 0.41603 0.42488 0.02946 0.0
H1987 H 0.41365 0.44262 0.05847 0.0
H1988 H 0.39952 0.40942 0.05315 0.0
H1989 H 0.34355 0.49544 0.00034 0.0
H1990 H 0.37123 0.50804 0.01846 0.0
H1991 H 0.372 0.49231 0.98815 0.0
H1992 H 0.44783 0.52307 0.05749 0.0
H1993 H 0.45531 0.48124 0.98799 0.0
H1994 H 0.40003 0.48291 0.07556 0.0
H1995 H 0.3846 0.5036 0.05974 0.0
H1996 H 0.41199 0.5167 0.07816 0.0
H1997 H 0.40913 0.43362 0.98679 0.0
H1998 H 0.42254 0.45478 0.96524 0.0
H1999 H 0.39264 0.45576 0.97467 0.0
C2000 C 0.3294 0.59332 0.72076 0.0
C2001 C 0.35068 0.59529 0.73558 0.0
C2002 C 0.31594 0.61309 0.72204 0.0
C2003 C 0.32363 0.63524 0.73886 0.0
C2004 C 0.34515 0.63735 0.75377 0.0
C2005 C 0.35845 0.61751 0.75182 0.0
C2006 C 0.29342 0.61025 0.70543 0.0
C2007 C 0.35411 0.66057 0.77194 0.0
C2008 C 0.30279 0.69777 0.7289 0.0
C2009 C 0.28536 0.69848 0.74627 0.0
C2010 C 0.31502 0.67713 0.72597 0.0
C2011 C 0.30954 0.65649 0.74063 0.0
C2012 C 0.29147 0.65691 0.75785 0.0
C2013 C 0.27973 0.67803 0.76062 0.0
C2014 C 0.33418 0.6777 0.70755 0.0
C2015 C 0.2851 0.63542 0.77391 0.0
H2016 H 0.32323 0.57626 0.70815 0.0
H2017 H 0.37474 0.61921 0.76349 0.0
H2018 H 0.27781 0.6112 0.7168 0.0
H2019 H 0.29492 0.62625 0.69362 0.0
H2020 H 0.28986 0.59195 0.69328 0.0
H2021 H 0.37097 0.6592 0.78245 0.0
H2022 H 0.35735 0.67797 0.762 0.0
H2023 H 0.3403 0.66306 0.78531 0.0
H2024 H 0.30742 0.71386 0.71812 0.0
H2025 H 0.26654 0.67881 0.77435 0.0
H2026 H 0.3282 0.66248 0.69213 0.0
H2027 H 0.35101 0.6739 0.71633 0.0
H2028 H 0.33823 0.69633 0.69974 0.0
H2029 H 0.28047 0.61688 0.76225 0.0
H2030 H 0.26978 0.63785 0.78534 0.0
H2031 H 0.30082 0.63447 0.78642 0.0
C2032 C 0.20278 0.61021 0.53767 0.0
C2033 C 0.20558 0.6356 0.53191 0.0
C2034 C 0.17988 0.59531 0.53884 0.0
C2035 C 0.1593 0.60597 0.53396 0.0
C2036 C 0.162 0.63183 0.52909 0.0
C2037 C 0.18506 0.64634 0.5282 0.0
C2038 C 0.17772 0.56785 0.5443 0.0
C2039 C 0.14051 0.64388 0.52362 0.0
C2040 C 0.10272 0.56348 0.5044 0.0
C2041 C 0.08748 0.56205 0.52408 0.0
C2042 C 0.1263 0.57706 0.50763 0.0
C2043 C 0.13506 0.58951 0.5312 0.0
C2044 C 0.12016 0.5874 0.55143 0.0
C2045 C 0.09648 0.5737 0.54763 0.0
C2046 C 0.14157 0.57878 0.48555 0.0
C2047 C 0.129 0.60025 0.57687 0.0
H2048 H 0.21847 0.60176 0.54079 0.0
H2049 H 0.18694 0.66594 0.52384 0.0
H2050 H 0.16485 0.56359 0.5588 0.0
H2051 H 0.17065 0.555 0.52739 0.0
H2052 H 0.19522 0.56333 0.55052 0.0
H2053 H 0.14559 0.66471 0.52213 0.0
H2054 H 0.13105 0.63463 0.5059 0.0
H2055 H 0.12765 0.64087 0.53831 0.0
H2056 H 0.09614 0.55434 0.48615 0.0
H2057 H 0.0849 0.57264 0.56297 0.0
H2058 H 0.15868 0.57236 0.48974 0.0
H2059 H 0.14612 0.59894 0.48136 0.0
H2060 H 0.13242 0.56707 0.46873 0.0
H2061 H 0.1464 0.59516 0.58248 0.0
H2062 H 0.11604 0.59491 0.59107 0.0
H2063 H 0.13208 0.62129 0.57654 0.0
C2064 C 0.65923 0.92932 0.75205 0.0
C2065 C 0.66668 0.95315 0.7433 0.0
C2066 C 0.67543 0.91273 0.75516 0.0
C2067 C 0.69966 0.92028 0.74962 0.0
C2068 C 0.70724 0.94425 0.74068 0.0
C2069 C 0.69064 0.96035 0.73753 0.0
C2070 C 0.66654 0.88694 0.764 0.0
C2071 C 0.73288 0.95289 0.73447 0.0
C2072 C 0.74419 0.88352 0.77702 0.0
C2073 C 0.74609 0.86581 0.75695 0.0
C2074 C 0.72977 0.90206 0.77468 0.0
C2075 C 0.71672 0.90245 0.75189 0.0
C2076 C 0.71926 0.88507 0.73139 0.0
C2077 C 0.73423 0.86729 0.73407 0.0
C2078 C 0.72776 0.92059 0.7968 0.0
C2079 C 0.70576 0.88469 0.70671 0.0
H2080 H 0.64076 0.92365 0.75655 0.0
H2081 H 0.69658 0.9788 0.73088 0.0
H2082 H 0.66912 0.87162 0.74973 0.0
H2083 H 0.67709 0.88471 0.78107 0.0
H2084 H 0.64726 0.88411 0.76791 0.0
H2085 H 0.73622 0.9727 0.72907 0.0
H2086 H 0.74526 0.95192 0.75059 0.0
H2087 H 0.73733 0.93992 0.71897 0.0
H2088 H 0.75328 0.88233 0.79472 0.0
H2089 H 0.73577 0.85371 0.7184 0.0
H2090 H 0.70925 0.91683 0.80306 0.0
H2091 H 0.73131 0.94047 0.79164 0.0
H2092 H 0.74044 0.91911 0.81252 0.0
H2093 H 0.71487 0.90045 0.69664 0.0
H2094 H 0.68709 0.88751 0.70909 0.0
H2095 H 0.70505 0.86641 0.695 0.0
C2096 C 0.68724 0.91924 0.51897 0.0
C2097 C 0.70957 0.93085 0.5307 0.0
C2098 C 0.668 0.9325 0.51776 0.0
C2099 C 0.67094 0.95806 0.52863 0.0
C2100 C 0.69322 0.96967 0.54109 0.0
C2101 C 0.71228 0.95604 0.54184 0.0
C2102 C 0.6444 0.91909 0.50495 0.0
C2103 C 0.69686 0.99649 0.55376 0.0
C2104 C 0.62794 0.99968 0.50578 0.0
C2105 C 0.61071 0.99769 0.52355 0.0
C2106 C 0.64771 0.98717 0.50739 0.0
C2107 C 0.65051 0.97236 0.52734 0.0
C2108 C 0.63328 0.97062 0.54553 0.0
C2109 C 0.6137 0.98331 0.54343 0.0
C2110 C 0.66534 0.98929 0.48737 0.0
C2111 C 0.63518 0.95553 0.56745 0.0
H2112 H 0.68486 0.89981 0.51031 0.0
H2113 H 0.72938 0.96521 0.55103 0.0
H2114 H 0.63016 0.91806 0.51836 0.0
H2115 H 0.6392 0.93012 0.48992 0.0
H2116 H 0.64507 0.8994 0.49691 0.0
H2117 H 0.7152 0.0029 0.56265 0.0
H2118 H 0.69362 0.00995 0.54017 0.0
H2119 H 0.68366 0.99747 0.56813 0.0
H2120 H 0.62571 0.01061 0.49028 0.0
H2121 H 0.60052 0.98167 0.55732 0.0
H2122 H 0.66548 0.97005 0.47788 0.0
H2123 H 0.68372 0.99692 0.49566 0.0
H2124 H 0.66098 0.00188 0.47333 0.0
H2125 H 0.61725 0.94481 0.57104 0.0
H2126 H 0.64177 0.96903 0.58407 0.0
H2127 H 0.64748 0.94173 0.56511 0.0
C2128 C 0.3698 0.43271 0.72389 0.0
C2129 C 0.36163 0.45539 0.73094 0.0
C2130 C 0.35447 0.40881 0.72285 0.0
C2131 C 0.33056 0.40746 0.72977 0.0
C2132 C 0.32203 0.43037 0.73624 0.0
C2133 C 0.33758 0.45407 0.73641 0.0
C2134 C 0.36415 0.38495 0.71521 0.0
C2135 C 0.2969 0.4298 0.74439 0.0
C2136 C 0.2845 0.34561 0.7159 0.0
C2137 C 0.2862 0.33435 0.73804 0.0
C2138 C 0.29911 0.36921 0.7127 0.0
C2139 C 0.31523 0.38213 0.73239 0.0
C2140 C 0.31681 0.37081 0.75484 0.0
C2141 C 0.30257 0.34694 0.75723 0.0
C2142 C 0.29741 0.38023 0.68823 0.0
C2143 C 0.33333 0.38408 0.77653 0.0
H2144 H 0.38835 0.43363 0.71951 0.0
H2145 H 0.33125 0.47151 0.74214 0.0
H2146 H 0.36575 0.37408 0.73144 0.0
H2147 H 0.35163 0.37234 0.70111 0.0
H2148 H 0.38206 0.38935 0.70753 0.0
H2149 H 0.29252 0.44922 0.74733 0.0
H2150 H 0.28363 0.41805 0.73046 0.0
H2151 H 0.29493 0.42081 0.76199 0.0
H2152 H 0.27195 0.33584 0.701 0.0
H2153 H 0.30386 0.33838 0.77446 0.0
H2154 H 0.31532 0.38367 0.68047 0.0
H2155 H 0.29161 0.39895 0.69097 0.0
H2156 H 0.28459 0.36744 0.6745 0.0
H2157 H 0.35221 0.38673 0.77133 0.0
H2158 H 0.33169 0.3732 0.79303 0.0
H2159 H 0.32928 0.40334 0.78168 0.0
C2160 C 0.16977 0.5905 0.22403 0.0
C2161 C 0.14859 0.58867 0.23665 0.0
C2162 C 0.185 0.61413 0.22309 0.0
C2163 C 0.17912 0.63644 0.23541 0.0
C2164 C 0.15737 0.63487 0.24745 0.0
C2165 C 0.14229 0.61103 0.24779 0.0
C2166 C 0.20782 0.61507 0.20972 0.0
C2167 C 0.15059 0.65818 0.26105 0.0
C2168 C 0.22948 0.68993 0.26168 0.0
C2169 C 0.22806 0.70874 0.24557 0.0
C2170 C 0.21402 0.66618 0.25819 0.0
C2171 C 0.19677 0.66089 0.23792 0.0
C2172 C 0.19587 0.67932 0.22092 0.0
C2173 C 0.2115 0.70311 0.22499 0.0
C2174 C 0.21556 0.64711 0.27681 0.0
C2175 C 0.17787 0.67426 0.19896 0.0
H2176 H 0.17466 0.57336 0.21511 0.0
H2177 H 0.12598 0.60982 0.2576 0.0
H2178 H 0.20964 0.63037 0.19707 0.0
H2179 H 0.22349 0.61969 0.22334 0.0
H2180 H 0.20849 0.59664 0.19881 0.0
H2181 H 0.13231 0.65411 0.26793 0.0
H2182 H 0.16359 0.66529 0.2771 0.0
H2183 H 0.15143 0.67376 0.2488 0.0
H2184 H 0.24228 0.69398 0.27757 0.0
H2185 H 0.21016 0.71756 0.21252 0.0
H2186 H 0.21819 0.62867 0.26731 0.0
H2187 H 0.19849 0.64337 0.28617 0.0
H2188 H 0.23044 0.6539 0.29115 0.0
H2189 H 0.17849 0.65559 0.18853 0.0
H2190 H 0.18107 0.68941 0.18616 0.0
H2191 H 0.15953 0.67322 0.20547 0.0
C2192 C 0.50915 0.68675 0.40369 0.0
C2193 C 0.50724 0.709 0.4186 0.0
C2194 C 0.51361 0.66494 0.41444 0.0
C2195 C 0.5164 0.66564 0.44058 0.0
C2196 C 0.51579 0.68852 0.45553 0.0
C2197 C 0.5112 0.70983 0.44438 0.0
C2198 C 0.51425 0.64085 0.39793 0.0
C2199 C 0.51886 0.6902 0.48344 0.0
C2200 C 0.49816 0.60589 0.47284 0.0
C2201 C 0.52043 0.59998 0.47983 0.0
C2202 C 0.49664 0.62673 0.45938 0.0
C2203 C 0.5179 0.6421 0.45268 0.0
C2204 C 0.54045 0.63616 0.45945 0.0
C2205 C 0.54145 0.6152 0.47301 0.0
C2206 C 0.47223 0.63256 0.45273 0.0
C2207 C 0.56349 0.65215 0.45264 0.0
H2208 H 0.50618 0.68602 0.38378 0.0
H2209 H 0.51021 0.72713 0.45604 0.0
H2210 H 0.53032 0.63289 0.403 0.0
H2211 H 0.49828 0.62623 0.40057 0.0
H2212 H 0.51436 0.64415 0.37805 0.0
H2213 H 0.51972 0.70994 0.49225 0.0
H2214 H 0.5036 0.67754 0.49066 0.0
H2215 H 0.53547 0.68355 0.48919 0.0
H2216 H 0.48179 0.59425 0.47795 0.0
H2217 H 0.55873 0.61062 0.47806 0.0
H2218 H 0.47 0.63364 0.4325 0.0
H2219 H 0.47061 0.65144 0.46208 0.0
H2220 H 0.45741 0.61797 0.45821 0.0
H2221 H 0.56294 0.65382 0.43243 0.0
H2222 H 0.57945 0.64402 0.45784 0.0
H2223 H 0.56561 0.67175 0.46213 0.0
C2224 C 0.60424 0.30819 0.69941 0.0
C2225 C 0.6076 0.32101 0.67804 0.0
C2226 C 0.62361 0.30734 0.7161 0.0
C2227 C 0.6469 0.32 0.71161 0.0
C2228 C 0.65007 0.33473 0.69121 0.0
C2229 C 0.63045 0.33485 0.67454 0.0
C2230 C 0.61941 0.29105 0.73732 0.0
C2231 C 0.67448 0.34884 0.6859 0.0
C2232 C 0.69699 0.3214 0.76149 0.0
C2233 C 0.70712 0.30073 0.75221 0.0
C2234 C 0.67769 0.32848 0.74823 0.0
C2235 C 0.66816 0.31419 0.72555 0.0
C2236 C 0.67852 0.2934 0.71621 0.0
C2237 C 0.69787 0.2871 0.72952 0.0
C2238 C 0.66753 0.35119 0.75837 0.0
C2239 C 0.66893 0.27742 0.69227 0.0
H2240 H 0.58669 0.29746 0.70239 0.0
H2241 H 0.63324 0.34507 0.65826 0.0
H2242 H 0.6272 0.2736 0.73348 0.0
H2243 H 0.62847 0.30142 0.75477 0.0
H2244 H 0.60003 0.28511 0.74014 0.0
H2245 H 0.67313 0.364 0.67351 0.0
H2246 H 0.68493 0.35764 0.70324 0.0
H2247 H 0.6846 0.33518 0.6766 0.0
H2248 H 0.7042 0.33206 0.77894 0.0
H2249 H 0.70558 0.27105 0.72222 0.0
H2250 H 0.64848 0.34503 0.76229 0.0
H2251 H 0.66801 0.36511 0.74437 0.0
H2252 H 0.67755 0.36096 0.77565 0.0
H2253 H 0.64965 0.26925 0.69334 0.0
H2254 H 0.67868 0.26149 0.68793 0.0
H2255 H 0.67043 0.28953 0.6767 0.0
C2256 C 0.00429 0.35366 0.88347 0.0
C2257 C 0.99835 0.33129 0.89515 0.0
C2258 C 1.00281 0.37752 0.89589 0.0
C2259 C 0.99511 0.37877 0.92036 0.0
C2260 C 0.98772 0.35606 0.93153 0.0
C2261 C 0.98952 0.33266 0.91883 0.0
C2262 C 0.01073 0.40143 0.88341 0.0
C2263 C 0.97929 0.35651 0.95755 0.0
C2264 C 0.02009 0.43533 0.96676 0.0
C2265 C 1.00053 0.4479 0.96884 0.0
C2266 C 0.01878 0.41335 0.95034 0.0
C2267 C 0.99737 0.40364 0.93558 0.0
C2268 C 0.97765 0.41638 0.93726 0.0
C2269 C 0.97943 0.43838 0.95396 0.0
C2270 C 0.04015 0.40016 0.94926 0.0
C2271 C 0.95456 0.40651 0.92177 0.0
H2272 H 0.01105 0.35265 0.86513 0.0
H2273 H 0.98467 0.31544 0.92793 0.0
H2274 H 0.9975 0.41428 0.88549 0.0
H2275 H 0.02804 0.41196 0.89241 0.0
H2276 H 0.01313 0.3971 0.86339 0.0
H2277 H 0.97194 0.33708 0.96255 0.0
H2278 H 0.99453 0.36518 0.97093 0.0
H2279 H 0.96529 0.36841 0.95967 0.0
H2280 H 0.03648 0.44253 0.97814 0.0
H2281 H 0.96435 0.44816 0.95521 0.0
H2282 H 0.04533 0.39745 0.92989 0.0
H2283 H 0.03539 0.38094 0.95579 0.0
H2284 H 0.05593 0.41105 0.96084 0.0
H2285 H 0.95826 0.40352 0.90195 0.0
H2286 H 0.94164 0.41976 0.92376 0.0
H2287 H 0.94603 0.38773 0.92737 0.0
C2288 C 0.9758 0.78292 0.20683 0.0
C2289 C 0.9738 0.78071 0.18086 0.0
C2290 C 0.95539 0.78157 0.22069 0.0
C2291 C 0.93238 0.77752 0.20828 0.0
C2292 C 0.93021 0.77451 0.18205 0.0
C2293 C 0.95096 0.77636 0.16866 0.0
C2294 C 0.95849 0.78518 0.24861 0.0
C2295 C 0.90597 0.76975 0.16812 0.0
C2296 C 0.87716 0.75328 0.24257 0.0
C2297 C 0.86761 0.77552 0.2472 0.0
C2298 C 0.89844 0.75371 0.23024 0.0
C2299 C 0.91059 0.777 0.22268 0.0
C2300 C 0.90145 0.7997 0.22819 0.0
C2301 C 0.87998 0.79865 0.24024 0.0
C2302 C 0.90741 0.72906 0.22448 0.0
C2303 C 0.91402 0.825 0.22079 0.0
H2304 H 0.99341 0.78646 0.21641 0.0
H2305 H 0.94928 0.77458 0.1486 0.0
H2306 H 0.9514 0.80229 0.25569 0.0
H2307 H 0.94806 0.76854 0.25652 0.0
H2308 H 0.97756 0.78757 0.25544 0.0
H2309 H 0.90728 0.76659 0.14777 0.0
H2310 H 0.89434 0.75279 0.1743 0.0
H2311 H 0.89702 0.78631 0.17219 0.0
H2312 H 0.86753 0.73533 0.24775 0.0
H2313 H 0.87259 0.81586 0.24376 0.0
H2314 H 0.92628 0.73112 0.23174 0.0
H2315 H 0.90706 0.72446 0.20412 0.0
H2316 H 0.89644 0.71276 0.23247 0.0
H2317 H 0.93301 0.82903 0.22811 0.0
H2318 H 0.90533 0.84109 0.22764 0.0
H2319 H 0.91404 0.8242 0.20032 0.0
C2320 C 0.52037 0.33787 0.07437 0.0
C2321 C 0.51106 0.3399 0.09783 0.0
C2322 C 0.52358 0.35843 0.05995 0.0
C2323 C 0.51713 0.38167 0.06905 0.0
C2324 C 0.50845 0.38424 0.09308 0.0
C2325 C 0.50561 0.36327 0.1073 0.0
C2326 C 0.53329 0.35501 0.03466 0.0
C2327 C 0.50146 0.40884 0.10337 0.0
C2328 C 0.54238 0.44096 0.03859 0.0
C2329 C 0.52305 0.44326 0.02247 0.0
C2330 C 0.54068 0.42106 0.05388 0.0
C2331 C 0.51912 0.40298 0.05305 0.0
C2332 C 0.49981 0.40466 0.03623 0.0
C2333 C 0.50204 0.42475 0.02103 0.0
C2334 C 0.56177 0.41979 0.07135 0.0
C2335 C 0.47653 0.38567 0.03481 0.0
H2336 H 0.52475 0.31993 0.06691 0.0
H2337 H 0.49828 0.36486 0.12534 0.0
H2338 H 0.51955 0.35699 0.02018 0.0
H2339 H 0.54917 0.37009 0.03302 0.0
H2340 H 0.53851 0.33607 0.03081 0.0
H2341 H 0.4958 0.40806 0.12264 0.0
H2342 H 0.51671 0.42499 0.10311 0.0
H2343 H 0.48648 0.41297 0.09155 0.0
H2344 H 0.55868 0.45524 0.03987 0.0
H2345 H 0.4869 0.42665 0.00895 0.0
H2346 H 0.56722 0.40092 0.06809 0.0
H2347 H 0.55658 0.42181 0.09077 0.0
H2348 H 0.57748 0.43496 0.06924 0.0
H2349 H 0.47987 0.36607 0.03002 0.0
H2350 H 0.46319 0.38971 0.02085 0.0
H2351 H 0.46867 0.386 0.05315 0.0
C2352 C 0.95831 0.3166 0.38792 0.0
C2353 C 0.97255 0.29875 0.38031 0.0
C2354 C 0.93739 0.31853 0.37404 0.0
C2355 C 0.93023 0.302 0.35211 0.0
C2356 C 0.9447 0.28421 0.34408 0.0
C2357 C 0.96577 0.28293 0.35816 0.0
C2358 C 0.92271 0.33801 0.3831 0.0
C2359 C 0.93758 0.26607 0.32092 0.0
C2360 C 0.86389 0.28753 0.33143 0.0
C2361 C 0.86306 0.30268 0.31179 0.0
C2362 C 0.8856 0.28719 0.34468 0.0
C2363 C 0.90704 0.30252 0.33827 0.0
C2364 C 0.90622 0.31827 0.31876 0.0
C2365 C 0.88423 0.31811 0.30569 0.0
C2366 C 0.88565 0.27008 0.3653 0.0
C2367 C 0.92862 0.33506 0.3115 0.0
H2368 H 0.96352 0.32914 0.40484 0.0
H2369 H 0.97661 0.26907 0.35214 0.0
H2370 H 0.91973 0.35023 0.36825 0.0
H2371 H 0.90483 0.32815 0.38783 0.0
H2372 H 0.93144 0.35046 0.39969 0.0
H2373 H 0.95116 0.254 0.31669 0.0
H2374 H 0.92021 0.2534 0.32311 0.0
H2375 H 0.93501 0.27691 0.30486 0.0
H2376 H 0.84759 0.27548 0.33615 0.0
H2377 H 0.88367 0.32977 0.29046 0.0
H2378 H 0.89282 0.28161 0.38292 0.0
H2379 H 0.89758 0.25615 0.36117 0.0
H2380 H 0.86744 0.25939 0.36802 0.0
H2381 H 0.93727 0.34805 0.32776 0.0
H2382 H 0.92487 0.34673 0.29641 0.0
H2383 H 0.9417 0.32309 0.30527 0.0
C2384 C 0.99781 0.6885 0.60247 0.0
C2385 C 0.98105 0.70186 0.59289 0.0
C2386 C 0.99956 0.66414 0.59157 0.0
C2387 C 0.98373 0.65284 0.57107 0.0
C2388 C 0.96482 0.66499 0.56354 0.0
C2389 C 0.96401 0.68967 0.57423 0.0
C2390 C 0.02022 0.65213 0.59998 0.0
C2391 C 0.94702 0.65317 0.54239 0.0
C2392 C 0.00898 0.61703 0.51806 0.0
C2393 C 1.00087 0.59163 0.5222 0.0
C2394 C 0.00391 0.63705 0.53423 0.0
C2395 C 0.98974 0.63143 0.55459 0.0
C2396 C 0.98122 0.60569 0.55863 0.0
C2397 C 0.98708 0.58604 0.54243 0.0
C2398 C 0.01381 0.66424 0.52952 0.0
C2399 C 0.96569 0.59891 0.57977 0.0
H2400 H 0.01127 0.69822 0.61661 0.0
H2401 H 0.9512 0.70018 0.5667 0.0
H2402 H 0.01458 0.63123 0.60035 0.0
H2403 H 0.0345 0.65522 0.5867 0.0
H2404 H 0.02797 0.66063 0.61866 0.0
H2405 H 0.93089 0.66221 0.54221 0.0
H2406 H 0.95555 0.6557 0.52458 0.0
H2407 H 0.94132 0.63237 0.54349 0.0
H2408 H 0.01971 0.62123 0.50242 0.0
H2409 H 0.98036 0.56629 0.54519 0.0
H2410 H 0.0242 0.67467 0.54629 0.0
H2411 H 0.99887 0.6743 0.5254 0.0
H2412 H 0.02564 0.66526 0.51376 0.0
H2413 H 0.97537 0.60706 0.59769 0.0
H2414 H 0.96029 0.57793 0.58013 0.0
H2415 H 0.94929 0.60735 0.57823 0.0
C2416 C 0.58517 0.75605 0.83058 0.0
C2417 C 0.5898 0.76306 0.85611 0.0
C2418 C 0.60393 0.75384 0.81492 0.0
C2419 C 0.62792 0.75869 0.825 0.0
C2420 C 0.63262 0.76498 0.85087 0.0
C2421 C 0.61355 0.76712 0.86607 0.0
C2422 C 0.59813 0.74706 0.78748 0.0
C2423 C 0.65791 0.77018 0.86243 0.0
C2424 C 0.6782 0.73651 0.78966 0.0
C2425 C 0.68982 0.75935 0.78129 0.0
C2426 C 0.6576 0.73579 0.80325 0.0
C2427 C 0.64827 0.7584 0.80849 0.0
C2428 C 0.65928 0.78122 0.79911 0.0
C2429 C 0.6799 0.78143 0.78571 0.0
C2430 C 0.64647 0.71109 0.81292 0.0
C2431 C 0.64985 0.80573 0.80407 0.0
H2432 H 0.56689 0.7529 0.82269 0.0
H2433 H 0.61733 0.77252 0.88576 0.0
H2434 H 0.60603 0.76331 0.77731 0.0
H2435 H 0.60618 0.73047 0.78084 0.0
H2436 H 0.57851 0.74242 0.78272 0.0
H2437 H 0.65847 0.77356 0.88294 0.0
H2438 H 0.6669 0.75385 0.85732 0.0
H2439 H 0.66841 0.78724 0.85523 0.0
H2440 H 0.68577 0.71938 0.78654 0.0
H2441 H 0.68864 0.79916 0.77926 0.0
H2442 H 0.62692 0.7066 0.80792 0.0
H2443 H 0.64881 0.7131 0.83343 0.0
H2444 H 0.65462 0.69477 0.8056 0.0
H2445 H 0.63045 0.80259 0.79849 0.0
H2446 H 0.65939 0.82136 0.79405 0.0
H2447 H 0.65193 0.81201 0.8242 0.0
C2448 C 0.42075 0.55288 0.66014 0.0
C2449 C 0.43398 0.54902 0.68143 0.0
C2450 C 0.43187 0.55632 0.63758 0.0
C2451 C 0.45673 0.5559 0.63634 0.0
C2452 C 0.47026 0.55331 0.65812 0.0
C2453 C 0.45885 0.55023 0.68025 0.0
C2454 C 0.41697 0.56023 0.61512 0.0
C2455 C 0.49668 0.55227 0.65785 0.0
C2456 C 0.48403 0.5305 0.57895 0.0
C2457 C 0.49927 0.5524 0.57275 0.0
C2458 C 0.46889 0.53169 0.59859 0.0
C2459 C 0.46858 0.55547 0.61224 0.0
C2460 C 0.48273 0.57794 0.60496 0.0
C2461 C 0.49823 0.57609 0.58554 0.0
C2462 C 0.45427 0.50719 0.60563 0.0
C2463 C 0.48211 0.60377 0.61827 0.0
H2464 H 0.40163 0.55233 0.66084 0.0
H2465 H 0.46951 0.5478 0.69659 0.0
H2466 H 0.42096 0.54855 0.59843 0.0
H2467 H 0.39745 0.55552 0.61776 0.0
H2468 H 0.42149 0.58059 0.6116 0.0
H2469 H 0.50477 0.55085 0.67654 0.0
H2470 H 0.49925 0.53547 0.6454 0.0
H2471 H 0.50661 0.56955 0.65054 0.0
H2472 H 0.4846 0.51211 0.56904 0.0
H2473 H 0.50965 0.59314 0.58051 0.0
H2474 H 0.43521 0.50903 0.60684 0.0
H2475 H 0.46089 0.50332 0.62417 0.0
H2476 H 0.45524 0.49054 0.59217 0.0
H2477 H 0.46328 0.60616 0.62035 0.0
H2478 H 0.49144 0.61958 0.60834 0.0
H2479 H 0.49087 0.6053 0.63713 0.0
C2480 C 0.7642 0.18848 0.9557 0.0
C2481 C 0.76665 0.1628 0.95466 0.0
C2482 C 0.76114 0.20017 0.93419 0.0
C2483 C 0.76044 0.1858 0.91096 0.0
C2484 C 0.76166 0.15949 0.90967 0.0
C2485 C 0.76478 0.14821 0.93168 0.0
C2486 C 0.75984 0.22826 0.93637 0.0
C2487 C 0.76074 0.14364 0.8851 0.0
C2488 C 0.73827 0.21848 0.8581 0.0
C2489 C 0.75993 0.23112 0.85013 0.0
C2490 C 0.73811 0.20245 0.87712 0.0
C2491 C 0.76015 0.19915 0.88831 0.0
C2492 C 0.78208 0.21138 0.87981 0.0
C2493 C 0.78169 0.2273 0.8608 0.0
C2494 C 0.71442 0.18975 0.88579 0.0
C2495 C 0.80595 0.20837 0.89135 0.0
H2496 H 0.76546 0.19986 0.97341 0.0
H2497 H 0.76665 0.12835 0.93085 0.0
H2498 H 0.77577 0.23913 0.92848 0.0
H2499 H 0.74374 0.23142 0.92566 0.0
H2500 H 0.75918 0.23625 0.95588 0.0
H2501 H 0.75921 0.12297 0.88728 0.0
H2502 H 0.74534 0.14631 0.87298 0.0
H2503 H 0.77727 0.15003 0.87551 0.0
H2504 H 0.72143 0.22121 0.84957 0.0
H2505 H 0.79845 0.23684 0.85436 0.0
H2506 H 0.71206 0.19814 0.90475 0.0
H2507 H 0.7141 0.16906 0.8867 0.0
H2508 H 0.699 0.19208 0.87347 0.0
H2509 H 0.80819 0.21741 0.91072 0.0
H2510 H 0.82126 0.21726 0.88109 0.0
H2511 H 0.80666 0.18785 0.89195 0.0
C2512 C 0.10006 0.48074 0.15575 0.0
C2513 C 0.08715 0.47902 0.17707 0.0
C2514 C 0.08792 0.4758 0.13221 0.0
C2515 C 0.06253 0.46961 0.1303 0.0
C2516 C 0.04999 0.46417 0.15162 0.0
C2517 C 0.06252 0.46875 0.17478 0.0
C2518 C 0.10194 0.47982 0.10958 0.0
C2519 C 0.02299 0.45696 0.15043 0.0
C2520 C 0.03159 0.50739 0.08811 0.0
C2521 C 0.01957 0.48842 0.07025 0.0
C2522 C 0.04591 0.50139 0.10741 0.0
C2523 C 0.04906 0.4758 0.10834 0.0
C2524 C 0.03766 0.45662 0.08968 0.0
C2525 C 0.02251 0.46311 0.07104 0.0
C2526 C 0.05721 0.52251 0.12709 0.0
C2527 C 0.04115 0.42931 0.08928 0.0
H2528 H 0.11919 0.48805 0.15739 0.0
H2529 H 0.0526 0.46648 0.19128 0.0
H2530 H 0.09381 0.46559 0.09406 0.0
H2531 H 0.10139 0.4991 0.10387 0.0
H2532 H 0.121 0.47824 0.11313 0.0
H2533 H 0.01625 0.45062 0.16816 0.0
H2534 H 0.01507 0.47371 0.1462 0.0
H2535 H 0.0166 0.44142 0.13544 0.0
H2536 H 0.02942 0.52703 0.0872 0.0
H2537 H 0.0136 0.4486 0.05673 0.0
H2538 H 0.07702 0.52493 0.1274 0.0
H2539 H 0.05166 0.51751 0.14562 0.0
H2540 H 0.05214 0.54113 0.12399 0.0
H2541 H 0.05835 0.42775 0.09897 0.0
H2542 H 0.04067 0.42041 0.06993 0.0
H2543 H 0.02627 0.41818 0.09849 0.0
C2544 C 0.76989 0.88494 0.43769 0.0
C2545 C 0.77055 0.87117 0.45838 0.0
C2546 C 0.77175 0.87332 0.41369 0.0
C2547 C 0.77433 0.84737 0.41037 0.0
C2548 C 0.77571 0.83368 0.43131 0.0
C2549 C 0.77379 0.84572 0.45498 0.0
C2550 C 0.77028 0.88858 0.39183 0.0
C2551 C 0.77847 0.80603 0.42867 0.0
C2552 C 0.75233 0.80755 0.34938 0.0
C2553 C 0.7738 0.80641 0.33785 0.0
C2554 C 0.75227 0.82112 0.37274 0.0
C2555 C 0.77422 0.83396 0.38502 0.0
C2556 C 0.79597 0.83295 0.37351 0.0
C2557 C 0.79551 0.81917 0.3501 0.0
C2558 C 0.72867 0.82154 0.38438 0.0
C2559 C 0.81973 0.84637 0.38599 0.0
H2560 H 0.7674 0.9046 0.44018 0.0
H2561 H 0.77441 0.83492 0.47085 0.0
H2562 H 0.78583 0.88762 0.38037 0.0
H2563 H 0.75386 0.88027 0.37993 0.0
H2564 H 0.76985 0.90895 0.39759 0.0
H2565 H 0.78054 0.79849 0.44687 0.0
H2566 H 0.76251 0.79419 0.41814 0.0
H2567 H 0.79431 0.80374 0.41806 0.0
H2568 H 0.73542 0.79782 0.34015 0.0
H2569 H 0.8122 0.8186 0.34134 0.0
H2570 H 0.72626 0.84155 0.38877 0.0
H2571 H 0.72863 0.8127 0.40208 0.0
H2572 H 0.71312 0.81115 0.37216 0.0
H2573 H 0.81952 0.86699 0.39039 0.0
H2574 H 0.83498 0.84438 0.37432 0.0
H2575 H 0.82282 0.83844 0.40378 0.0
C2576 C 0.38604 0.51108 0.81794 0.0
C2577 C 0.40171 0.52566 0.80325 0.0
C2578 C 0.39458 0.50324 0.8402 0.0
C2579 C 0.41917 0.51081 0.84815 0.0
C2580 C 0.43489 0.52581 0.83342 0.0
C2581 C 0.42603 0.53272 0.81106 0.0
C2582 C 0.37741 0.48676 0.85511 0.0
C2583 C 0.46109 0.5349 0.84142 0.0
C2584 C 0.44136 0.51747 0.91564 0.0
C2585 C 0.45442 0.49762 0.9162 0.0
C2586 C 0.42871 0.52118 0.89394 0.0
C2587 C 0.42861 0.50424 0.87233 0.0
C2588 C 0.4403 0.48302 0.87331 0.0
C2589 C 0.45335 0.48013 0.89519 0.0
C2590 C 0.41702 0.54437 0.89367 0.0
C2591 C 0.44012 0.46418 0.85086 0.0
H2592 H 0.36728 0.50533 0.81176 0.0
H2593 H 0.43818 0.54407 0.79976 0.0
H2594 H 0.38411 0.46897 0.85809 0.0
H2595 H 0.37628 0.4969 0.87363 0.0
H2596 H 0.3591 0.48159 0.84589 0.0
H2597 H 0.47082 0.54675 0.82799 0.0
H2598 H 0.46286 0.54637 0.85971 0.0
H2599 H 0.46994 0.51831 0.84355 0.0
H2600 H 0.4421 0.53108 0.93184 0.0
H2601 H 0.46331 0.46468 0.8956 0.0
H2602 H 0.39836 0.53896 0.88551 0.0
H2603 H 0.427 0.55806 0.88194 0.0
H2604 H 0.41675 0.55428 0.91251 0.0
H2605 H 0.42176 0.45849 0.84189 0.0
H2606 H 0.44665 0.44675 0.85562 0.0
H2607 H 0.45184 0.47323 0.8371 0.0
C2608 C 0.79953 0.18292 0.10039 0.0
C2609 C 0.80428 0.19548 0.07916 0.0
C2610 C 0.80256 0.19682 0.1239 0.0
C2611 C 0.81028 0.22368 0.1259 0.0
C2612 C 0.81765 0.23582 0.10478 0.0
C2613 C 0.81474 0.22149 0.08167 0.0
C2614 C 0.79532 0.18312 0.1462 0.0
C2615 C 0.82609 0.26437 0.10607 0.0
C2616 C 0.78173 0.26246 0.17393 0.0
C2617 C 0.80073 0.27075 0.19165 0.0
C2618 C 0.78474 0.24725 0.15233 0.0
C2619 C 0.80709 0.23958 0.1489 0.0
C2620 C 0.82632 0.24783 0.16692 0.0
C2621 C 0.82296 0.26361 0.18805 0.0
C2622 C 0.76389 0.23919 0.13332 0.0
C2623 C 0.85008 0.23929 0.16432 0.0
H2624 H 0.79151 0.1628 0.09851 0.0
H2625 H 0.8188 0.23114 0.06523 0.0
H2626 H 0.80765 0.19098 0.16259 0.0
H2627 H 0.77705 0.18585 0.15077 0.0
H2628 H 0.79508 0.16228 0.14272 0.0
H2629 H 0.83408 0.27029 0.08874 0.0
H2630 H 0.81063 0.27407 0.10923 0.0
H2631 H 0.83953 0.27114 0.12178 0.0
H2632 H 0.76446 0.26765 0.17715 0.0
H2633 H 0.83737 0.26937 0.20232 0.0
H2634 H 0.75868 0.21807 0.13105 0.0
H2635 H 0.76921 0.24533 0.11508 0.0
H2636 H 0.74798 0.2474 0.13855 0.0
H2637 H 0.84749 0.21827 0.16472 0.0
H2638 H 0.86358 0.24849 0.17937 0.0
H2639 H 0.8573 0.24367 0.14626 0.0
C2640 C 0.0892 0.50056 0.30361 0.0
C2641 C 0.11254 0.51408 0.30204 0.0
C2642 C 0.07756 0.50184 0.32562 0.0
C2643 C 0.08935 0.51753 0.34646 0.0
C2644 C 0.11304 0.53114 0.34514 0.0
C2645 C 0.12455 0.52901 0.32287 0.0
C2646 C 0.05256 0.48648 0.32649 0.0
C2647 C 0.126 0.54813 0.36712 0.0
C2648 C 0.04697 0.53767 0.39293 0.0
C2649 C 0.04846 0.52057 0.41066 0.0
C2650 C 0.061 0.53758 0.37236 0.0
C2651 C 0.0765 0.51968 0.36943 0.0
C2652 C 0.07799 0.50234 0.38733 0.0
C2653 C 0.06395 0.50304 0.40781 0.0
C2654 C 0.05913 0.55647 0.35367 0.0
C2655 C 0.09381 0.48252 0.38457 0.0
H2656 H 0.08001 0.48867 0.28756 0.0
H2657 H 0.14261 0.53943 0.32158 0.0
H2658 H 0.05204 0.47386 0.34164 0.0
H2659 H 0.03974 0.49948 0.33049 0.0
H2660 H 0.04631 0.47448 0.30883 0.0
H2661 H 0.14436 0.55735 0.36309 0.0
H2662 H 0.1157 0.56325 0.37275 0.0
H2663 H 0.12726 0.53684 0.38311 0.0
H2664 H 0.03519 0.55143 0.39538 0.0
H2665 H 0.06507 0.4898 0.42161 0.0
H2666 H 0.05154 0.54614 0.33563 0.0
H2667 H 0.07722 0.56719 0.35063 0.0
H2668 H 0.04761 0.57033 0.35962 0.0
H2669 H 0.08546 0.46706 0.37014 0.0
H2670 H 0.09634 0.4739 0.4021 0.0
H2671 H 0.11168 0.4909 0.37856 0.0
C2672 C 0.75702 0.82236 0.58641 0.0
C2673 C 0.75704 0.84841 0.58437 0.0
C2674 C 0.75367 0.81171 0.60889 0.0
C2675 C 0.74963 0.8272 0.63021 0.0
C2676 C 0.74836 0.85324 0.62821 0.0
C2677 C 0.75224 0.86361 0.60534 0.0
C2678 C 0.75554 0.78398 0.60996 0.0
C2679 C 0.74383 0.87053 0.65029 0.0
C2680 C 0.72738 0.78556 0.68082 0.0
C2681 C 0.74875 0.7858 0.69479 0.0
C2682 C 0.72691 0.80089 0.66107 0.0
C2683 C 0.74849 0.81597 0.65453 0.0
C2684 C 0.76989 0.81697 0.6693 0.0
C2685 C 0.76967 0.80218 0.6894 0.0
C2686 C 0.70349 0.8004 0.6467 0.0
C2687 C 0.79335 0.83254 0.66302 0.0
H2688 H 0.76029 0.81011 0.57041 0.0
H2689 H 0.75213 0.8837 0.60412 0.0
H2690 H 0.77049 0.78255 0.6233 0.0
H2691 H 0.73884 0.77329 0.61659 0.0
H2692 H 0.75872 0.77451 0.59167 0.0
H2693 H 0.73477 0.88598 0.64449 0.0
H2694 H 0.73274 0.8598 0.66353 0.0
H2695 H 0.76122 0.87965 0.66009 0.0
H2696 H 0.71106 0.77335 0.68528 0.0
H2697 H 0.78622 0.80262 0.7003 0.0
H2698 H 0.68791 0.79072 0.65609 0.0
H2699 H 0.70363 0.79019 0.62801 0.0
H2700 H 0.70111 0.82017 0.64417 0.0
H2701 H 0.79837 0.82493 0.6447 0.0
H2702 H 0.80816 0.83225 0.67699 0.0
H2703 H 0.79144 0.85264 0.66169 0.0
C2704 C 0.71339 0.47492 0.51344 0.0
C2705 C 0.70423 0.44927 0.50502 0.0
C2706 C 0.69805 0.49227 0.51872 0.0
C2707 C 0.67297 0.48377 0.51534 0.0
C2708 C 0.6636 0.45778 0.50735 0.0
C2709 C 0.67935 0.44081 0.50236 0.0
C2710 C 0.70868 0.51978 0.52736 0.0
C2711 C 0.63691 0.44802 0.50347 0.0
C2712 C 0.6277 0.52021 0.54362 0.0
C2713 C 0.6192 0.53036 0.52284 0.0
C2714 C 0.6462 0.50604 0.54185 0.0
C2715 C 0.65641 0.50219 0.51882 0.0
C2716 C 0.64913 0.51416 0.49834 0.0
C2717 C 0.63051 0.52802 0.50058 0.0
C2718 C 0.65356 0.49368 0.56413 0.0
C2719 C 0.6598 0.51083 0.47356 0.0
H2720 H 0.73262 0.48156 0.51568 0.0
H2721 H 0.67217 0.42102 0.4959 0.0
H2722 H 0.70417 0.53226 0.51332 0.0
H2723 H 0.70088 0.52581 0.54479 0.0
H2724 H 0.72849 0.52298 0.53053 0.0
H2725 H 0.63251 0.42707 0.49822 0.0
H2726 H 0.62792 0.45249 0.5206 0.0
H2727 H 0.62935 0.45774 0.48863 0.0
H2728 H 0.61886 0.52185 0.56081 0.0
H2729 H 0.62391 0.53585 0.48447 0.0
H2730 H 0.67337 0.49646 0.56666 0.0
H2731 H 0.6466 0.47281 0.5612 0.0
H2732 H 0.64648 0.50142 0.58138 0.0
H2733 H 0.6543 0.52381 0.46048 0.0
H2734 H 0.6539 0.49082 0.46524 0.0
H2735 H 0.67966 0.51446 0.47581 0.0
C2736 C 0.17124 0.12295 0.46297 0.0
C2737 C 0.19337 0.11816 0.47202 0.0
C2738 C 0.14983 0.10534 0.46434 0.0
C2739 C 0.15037 0.08236 0.47525 0.0
C2740 C 0.17268 0.07709 0.48389 0.0
C2741 C 0.19387 0.09494 0.48206 0.0
C2742 C 0.12649 0.11167 0.45468 0.0
C2743 C 0.17407 0.05299 0.49588 0.0
C2744 C 0.09193 0.05357 0.50207 0.0
C2745 C 0.08167 0.03443 0.48333 0.0
C2746 C 0.11465 0.06857 0.50012 0.0
C2747 C 0.12742 0.0646 0.47872 0.0
C2748 C 0.11754 0.04463 0.46014 0.0
C2749 C 0.09483 0.02969 0.46273 0.0
C2750 C 0.12453 0.08936 0.52055 0.0
C2751 C 0.13045 0.03981 0.437 0.0
H2752 H 0.17056 0.14071 0.45507 0.0
H2753 H 0.21078 0.091 0.48925 0.0
H2754 H 0.11681 0.09577 0.44139 0.0
H2755 H 0.11478 0.11401 0.4702 0.0
H2756 H 0.12923 0.12949 0.44531 0.0
H2757 H 0.19285 0.05098 0.50037 0.0
H2758 H 0.16448 0.05308 0.51324 0.0
H2759 H 0.16506 0.036 0.48352 0.0
H2760 H 0.08184 0.05738 0.51801 0.0
H2761 H 0.08696 0.01503 0.44811 0.0
H2762 H 0.12521 0.10831 0.51357 0.0
H2763 H 0.14312 0.08795 0.52657 0.0
H2764 H 0.11345 0.08846 0.53691 0.0
H2765 H 0.13154 0.05647 0.42606 0.0
H2766 H 0.12127 0.02246 0.42517 0.0
H2767 H 0.14909 0.03764 0.44187 0.0
C2768 C 0.20765 0.95469 0.76752 0.0
C2769 C 0.18367 0.94951 0.77381 0.0
C2770 C 0.22104 0.93507 0.76393 0.0
C2771 C 0.21034 0.90956 0.7669 0.0
C2772 C 0.18609 0.90418 0.77312 0.0
C2773 C 0.17304 0.92415 0.77637 0.0
C2774 C 0.24672 0.94166 0.75707 0.0
C2775 C 0.174 0.87733 0.77667 0.0
C2776 C 0.23623 0.85362 0.73773 0.0
C2777 C 0.24891 0.84659 0.75799 0.0
C2778 C 0.22415 0.87438 0.74021 0.0
C2779 C 0.22448 0.88849 0.76361 0.0
C2780 C 0.23774 0.88194 0.78401 0.0
C2781 C 0.2499 0.86119 0.78096 0.0
C2782 C 0.21047 0.88075 0.71789 0.0
C2783 C 0.23842 0.89642 0.80924 0.0
H2784 H 0.21605 0.97419 0.76548 0.0
H2785 H 0.15458 0.91993 0.78135 0.0
H2786 H 0.25884 0.93644 0.77151 0.0
H2787 H 0.24917 0.93049 0.73945 0.0
H2788 H 0.25229 0.96231 0.75493 0.0
H2789 H 0.15507 0.87626 0.78149 0.0
H2790 H 0.17436 0.86451 0.7595 0.0
H2791 H 0.18389 0.86994 0.79162 0.0
H2792 H 0.23531 0.84252 0.71988 0.0
H2793 H 0.25936 0.85578 0.79681 0.0
H2794 H 0.21622 0.90118 0.71505 0.0
H2795 H 0.19104 0.87773 0.72103 0.0
H2796 H 0.21305 0.86888 0.70072 0.0
H2797 H 0.24557 0.91699 0.8083 0.0
H2798 H 0.24965 0.88918 0.82311 0.0
H2799 H 0.21999 0.89484 0.81567 0.0
C2800 C 0.34168 0.89743 0.98013 0.0
C2801 C 0.32156 0.90923 0.98091 0.0
C2802 C 0.36495 0.91206 0.98254 0.0
C2803 C 0.36809 0.93906 0.98558 0.0
C2804 C 0.34788 0.95106 0.98555 0.0
C2805 C 0.32489 0.93601 0.98329 0.0
C2806 C 0.38617 0.89866 0.98254 0.0
C2807 C 0.35054 0.9798 0.98851 0.0
C2808 C 0.42577 0.97648 0.01817 0.0
C2809 C 0.43897 0.98444 0.99816 0.0
C2810 C 0.40268 0.96167 0.0143 0.0
C2811 C 0.39249 0.9548 0.98984 0.0
C2812 C 0.40548 0.96317 0.96958 0.0
C2813 C 0.4286 0.97786 0.97398 0.0
C2814 C 0.38931 0.95309 0.03638 0.0
C2815 C 0.39503 0.95643 0.94327 0.0
H2816 H 0.33926 0.87677 0.97831 0.0
H2817 H 0.30946 0.94532 0.98364 0.0
H2818 H 0.39844 0.90553 0.96827 0.0
H2819 H 0.39646 0.90323 0.00073 0.0
H2820 H 0.3807 0.87759 0.97895 0.0
H2821 H 0.33302 0.98612 0.98677 0.0
H2822 H 0.35937 0.98755 0.00693 0.0
H2823 H 0.36216 0.98826 0.97437 0.0
H2824 H 0.43362 0.9814 0.03692 0.0
H2825 H 0.43863 0.98396 0.95839 0.0
H2826 H 0.3849 0.93193 0.03492 0.0
H2827 H 0.37212 0.96015 0.0367 0.0
H2828 H 0.3998 0.96004 0.0542 0.0
H2829 H 0.39104 0.93538 0.93889 0.0
H2830 H 0.40732 0.96482 0.9296 0.0
H2831 H 0.37784 0.96331 0.94107 0.0
C2832 C 0.86703 0.61203 0.7657 0.0
C2833 C 0.86017 0.58545 0.76476 0.0
C2834 C 0.85021 0.62732 0.76019 0.0
C2835 C 0.82605 0.61567 0.75356 0.0
C2836 C 0.81935 0.58877 0.75134 0.0
C2837 C 0.83648 0.57399 0.75699 0.0
C2838 C 0.85805 0.65599 0.76259 0.0
C2839 C 0.79382 0.57566 0.74419 0.0
C2840 C 0.78054 0.65698 0.77064 0.0
C2841 C 0.77609 0.66665 0.74816 0.0
C2842 C 0.79604 0.63953 0.77239 0.0
C2843 C 0.80745 0.63172 0.75112 0.0
C2844 C 0.80191 0.64029 0.72803 0.0
C2845 C 0.78618 0.65766 0.72681 0.0
C2846 C 0.80127 0.63068 0.79733 0.0
C2847 C 0.81363 0.63229 0.70496 0.0
H2848 H 0.88532 0.62098 0.77161 0.0
H2849 H 0.83108 0.55341 0.75601 0.0
H2850 H 0.85234 0.66387 0.74559 0.0
H2851 H 0.84931 0.66463 0.77824 0.0
H2852 H 0.87778 0.66193 0.76591 0.0
H2853 H 0.79203 0.55458 0.74093 0.0
H2854 H 0.78212 0.58012 0.75918 0.0
H2855 H 0.7871 0.58281 0.72719 0.0
H2856 H 0.7728 0.66399 0.7872 0.0
H2857 H 0.78292 0.66531 0.70944 0.0
H2858 H 0.8198 0.6396 0.80434 0.0
H2859 H 0.80013 0.60967 0.79576 0.0
H2860 H 0.7887 0.63585 0.81117 0.0
H2861 H 0.83292 0.64118 0.70662 0.0
H2862 H 0.80531 0.63814 0.68804 0.0
H2863 H 0.81251 0.61128 0.7027 0.0
C2864 C 0.81612 0.58615 0.00236 0.0
C2865 C 0.82123 0.61259 0.00058 0.0
C2866 C 0.83454 0.57188 0.00428 0.0
C2867 C 0.85882 0.58429 0.00469 0.0
C2868 C 0.86412 0.61105 0.00333 0.0
C2869 C 0.84531 0.62484 0.00119 0.0
C2870 C 0.828 0.54338 0.00531 0.0
C2871 C 0.88971 0.6251 0.00385 0.0
C2872 C 0.90748 0.55125 0.03058 0.0
C2873 C 0.91705 0.54202 0.00896 0.0
C2874 C 0.88857 0.56498 0.02947 0.0
C2875 C 0.87861 0.56921 0.00616 0.0
C2876 C 0.88774 0.55917 0.98425 0.0
C2877 C 0.90704 0.54603 0.98592 0.0
C2878 C 0.87962 0.57549 0.05328 0.0
C2879 C 0.87748 0.56275 0.95899 0.0
H2880 H 0.79761 0.57642 0.00176 0.0
H2881 H 0.84948 0.64522 0.99979 0.0
H2882 H 0.83498 0.5333 0.98925 0.0
H2883 H 0.83647 0.53792 0.0223 0.0
H2884 H 0.80832 0.53661 0.0051 0.0
H2885 H 0.89092 0.64604 0.00369 0.0
H2886 H 0.89991 0.62149 0.02064 0.0
H2887 H 0.89854 0.6179 0.98756 0.0
H2888 H 0.9153 0.54845 0.04845 0.0
H2889 H 0.91442 0.53903 0.96914 0.0
H2890 H 0.86012 0.56822 0.05392 0.0
H2891 H 0.88221 0.59662 0.05412 0.0
H2892 H 0.88902 0.57031 0.0699 0.0
H2893 H 0.8576 0.55851 0.95817 0.0
H2894 H 0.88367 0.55032 0.94408 0.0
H2895 H 0.88306 0.58294 0.95527 0.0
C2896 C 0.19416 0.08819 0.79148 0.0
C2897 C 0.17168 0.08756 0.80143 0.0
C2898 C 0.20951 0.11144 0.78905 0.0
C2899 C 0.20248 0.13477 0.79713 0.0
C2900 C 0.18032 0.1343 0.80821 0.0
C2901 C 0.16512 0.11074 0.81008 0.0
C2902 C 0.23281 0.11104 0.77681 0.0
C2903 C 0.17238 0.15873 0.81746 0.0
C2904 C 0.2518 0.19412 0.80436 0.0
C2905 C 0.2483 0.20476 0.78215 0.0
C2906 C 0.23659 0.17177 0.80987 0.0
C2907 C 0.2177 0.15956 0.79256 0.0
C2908 C 0.21393 0.1705 0.77026 0.0
C2909 C 0.22916 0.19304 0.76542 0.0
C2910 C 0.24094 0.16102 0.83404 0.0
C2911 C 0.19418 0.15804 0.75117 0.0
H2912 H 0.19942 0.07048 0.78458 0.0
H2913 H 0.14788 0.11052 0.81791 0.0
H2914 H 0.23247 0.12021 0.75931 0.0
H2915 H 0.24804 0.12219 0.78893 0.0
H2916 H 0.23616 0.09134 0.77251 0.0
H2917 H 0.15509 0.15515 0.82649 0.0
H2918 H 0.18623 0.17038 0.83091 0.0
H2919 H 0.17033 0.17026 0.8018 0.0
H2920 H 0.26649 0.20324 0.81741 0.0
H2921 H 0.2264 0.20118 0.74821 0.0
H2922 H 0.24607 0.14204 0.83037 0.0
H2923 H 0.22425 0.15818 0.84411 0.0
H2924 H 0.25535 0.17364 0.84619 0.0
H2925 H 0.19694 0.13859 0.74458 0.0
H2926 H 0.19343 0.16915 0.73495 0.0
H2927 H 0.17658 0.15591 0.75956 0.0
C2928 C 0.39618 0.95052 0.3176 0.0
C2929 C 0.38851 0.97402 0.32013 0.0
C2930 C 0.37947 0.92747 0.3158 0.0
C2931 C 0.35469 0.92812 0.31693 0.0
C2932 C 0.34719 0.95181 0.32162 0.0
C2933 C 0.36417 0.97446 0.32299 0.0
C2934 C 0.38815 0.90256 0.31078 0.0
C2935 C 0.32103 0.95336 0.32338 0.0
C2936 C 0.3109 0.87638 0.27774 0.0
C2937 C 0.30207 0.85993 0.29526 0.0
C2938 C 0.32803 0.89852 0.28464 0.0
C2939 C 0.33645 0.90461 0.30977 0.0
C2940 C 0.32716 0.88855 0.32772 0.0
C2941 C 0.31011 0.86633 0.32025 0.0
C2942 C 0.33744 0.91518 0.2649 0.0
C2943 C 0.3355 0.89463 0.35472 0.0
H2944 H 0.41497 0.95013 0.31535 0.0
H2945 H 0.35823 0.99264 0.32531 0.0
H2946 H 0.37963 0.8883 0.32282 0.0
H2947 H 0.38296 0.89466 0.2913 0.0
H2948 H 0.40793 0.90499 0.31374 0.0
H2949 H 0.31853 0.97274 0.33063 0.0
H2950 H 0.31167 0.94859 0.30473 0.0
H2951 H 0.3123 0.93934 0.33553 0.0
H2952 H 0.30488 0.87171 0.25839 0.0
H2953 H 0.30351 0.85373 0.33394 0.0
H2954 H 0.35716 0.91681 0.26456 0.0
H2955 H 0.33375 0.93473 0.26916 0.0
H2956 H 0.32924 0.90757 0.24615 0.0
H2957 H 0.35494 0.89434 0.35706 0.0
H2958 H 0.32573 0.88084 0.36652 0.0
H2959 H 0.333 0.91414 0.36141 0.0
C2960 C 0.52924 0.37943 0.62717 0.0
C2961 C 0.53296 0.35603 0.61573 0.0
C2962 C 0.52753 0.4 0.61317 0.0
C2963 C 0.52927 0.3969 0.58714 0.0
C2964 C 0.53314 0.37335 0.57559 0.0
C2965 C 0.5351 0.35332 0.59002 0.0
C2966 C 0.52375 0.42498 0.62617 0.0
C2967 C 0.53488 0.36915 0.54791 0.0
C2968 C 0.50277 0.4412 0.54732 0.0
C2969 C 0.5233 0.45842 0.54234 0.0
C2970 C 0.50444 0.42108 0.56186 0.0
C2971 C 0.52715 0.41824 0.57186 0.0
C2972 C 0.54796 0.43535 0.56665 0.0
C2973 C 0.5458 0.45509 0.55187 0.0
C2974 C 0.48188 0.40294 0.56665 0.0
C2975 C 0.57251 0.43305 0.577 0.0
H2976 H 0.52755 0.38163 0.647 0.0
H2977 H 0.53787 0.33526 0.58096 0.0
H2978 H 0.53831 0.44067 0.62225 0.0
H2979 H 0.50662 0.42961 0.61903 0.0
H2980 H 0.52333 0.42451 0.64654 0.0
H2981 H 0.53776 0.34961 0.54177 0.0
H2982 H 0.5182 0.37225 0.53823 0.0
H2983 H 0.54988 0.38317 0.54199 0.0
H2984 H 0.48531 0.44361 0.54014 0.0
H2985 H 0.56183 0.46831 0.54831 0.0
H2986 H 0.47949 0.40359 0.58683 0.0
H2987 H 0.48338 0.38307 0.56009 0.0
H2988 H 0.46564 0.40755 0.55729 0.0
H2989 H 0.57289 0.43443 0.59752 0.0
H2990 H 0.58689 0.44807 0.57143 0.0
H2991 H 0.57656 0.4141 0.57057 0.0
C2992 C 0.4296 0.76287 0.32265 0.0
C2993 C 0.42725 0.75438 0.34623 0.0
C2994 C 0.40933 0.76194 0.30655 0.0
C2995 C 0.38628 0.75161 0.31397 0.0
C2996 C 0.38411 0.74111 0.33695 0.0
C2997 C 0.40456 0.74303 0.35298 0.0
C2998 C 0.41243 0.77396 0.28255 0.0
C2999 C 0.36 0.72933 0.34535 0.0
C3000 C 0.33371 0.78134 0.29446 0.0
C3001 C 0.32232 0.76397 0.27478 0.0
C3002 C 0.35474 0.77772 0.30683 0.0
C3003 C 0.36439 0.7557 0.29991 0.0
C3004 C 0.35289 0.73787 0.28015 0.0
C3005 C 0.33209 0.74243 0.2675 0.0
C3006 C 0.36658 0.79757 0.32737 0.0
C3007 C 0.36228 0.71382 0.27278 0.0
H3008 H 0.4471 0.77177 0.31742 0.0
H3009 H 0.40272 0.73616 0.3711 0.0
H3010 H 0.40191 0.76137 0.26702 0.0
H3011 H 0.40558 0.79216 0.28407 0.0
H3012 H 0.43152 0.7781 0.27797 0.0
H3013 H 0.3618 0.71766 0.36098 0.0
H3014 H 0.35018 0.74468 0.35157 0.0
H3015 H 0.34896 0.71711 0.3299 0.0
H3016 H 0.32632 0.79816 0.30007 0.0
H3017 H 0.32319 0.72893 0.25239 0.0
H3018 H 0.38567 0.80423 0.32385 0.0
H3019 H 0.36617 0.78907 0.34525 0.0
H3020 H 0.35764 0.81442 0.3293 0.0
H3021 H 0.38116 0.71864 0.26776 0.0
H3022 H 0.35148 0.70202 0.2569 0.0
H3023 H 0.36212 0.70223 0.28873 0.0
C3024 C 0.02854 0.70409 0.12238 0.0
C3025 C 0.02973 0.72182 0.1048 0.0
C3026 C 0.0266 0.67786 0.1149 0.0
C3027 C 0.02571 0.66939 0.08933 0.0
C3028 C 0.02602 0.68716 0.07158 0.0
C3029 C 0.028 0.71307 0.07952 0.0
C3030 C 0.02616 0.65934 0.13428 0.0
C3031 C 0.02476 0.67892 0.04411 0.0
C3032 C 0.04414 0.60814 0.06324 0.0
C3033 C 0.02179 0.593 0.05554 0.0
C3034 C 0.04571 0.63263 0.0757 0.0
C3035 C 0.02444 0.64203 0.08065 0.0
C3036 C 1.00187 0.62626 0.07411 0.0
C3037 C 1.00082 0.60201 0.06157 0.0
C3038 C 0.07011 0.64898 0.08234 0.0
C3039 C 0.97877 0.6355 0.07915 0.0
H3040 H 0.02998 0.71077 0.14193 0.0
H3041 H 0.02859 0.72663 0.0658 0.0
H3042 H 0.01038 0.64365 0.13053 0.0
H3043 H 0.04238 0.65052 0.13352 0.0
H3044 H 0.02556 0.66873 0.15328 0.0
H3045 H 0.02491 0.69517 0.03274 0.0
H3046 H 0.04021 0.66967 0.03953 0.0
H3047 H 0.0082 0.66462 0.03874 0.0
H3048 H 0.0604 0.60123 0.05883 0.0
H3049 H 0.98342 0.59028 0.05613 0.0
H3050 H 0.07128 0.65755 0.10183 0.0
H3051 H 0.07296 0.66491 0.07044 0.0
H3052 H 0.08478 0.63796 0.07984 0.0
H3053 H 0.97927 0.64412 0.09856 0.0
H3054 H 0.96287 0.61987 0.07575 0.0
H3055 H 0.97653 0.65055 0.06695 0.0
C3056 C 0.08289 0.26901 0.84658 0.0
C3057 C 0.06017 0.25801 0.83547 0.0
C3058 C 0.10378 0.2683 0.83386 0.0
C3059 C 0.10203 0.25617 0.80939 0.0
C3060 C 0.07919 0.24465 0.79818 0.0
C3061 C 0.05853 0.24577 0.81132 0.0
C3062 C 0.12775 0.28085 0.84652 0.0
C3063 C 0.07657 0.23136 0.77222 0.0
C3064 C 0.15503 0.27701 0.77065 0.0
C3065 C 0.1687 0.25807 0.77376 0.0
C3066 C 0.13289 0.27619 0.78146 0.0
C3067 C 0.12418 0.25586 0.79561 0.0
C3068 C 0.1375 0.23613 0.79791 0.0
C3069 C 0.15964 0.23752 0.78703 0.0
C3070 C 0.11931 0.29763 0.77861 0.0
C3071 C 0.12883 0.21406 0.81267 0.0
H3072 H 0.08437 0.27855 0.86521 0.0
H3073 H 0.04106 0.23721 0.80258 0.0
H3074 H 0.13974 0.26668 0.84733 0.0
H3075 H 0.13655 0.29616 0.83571 0.0
H3076 H 0.12608 0.28933 0.86566 0.0
H3077 H 0.05764 0.22278 0.76636 0.0
H3078 H 0.08349 0.24514 0.75901 0.0
H3079 H 0.08744 0.21606 0.77096 0.0
H3080 H 0.162 0.29295 0.76046 0.0
H3081 H 0.17015 0.2228 0.78946 0.0
H3082 H 0.11868 0.30843 0.79692 0.0
H3083 H 0.10052 0.28984 0.77166 0.0
H3084 H 0.12766 0.31112 0.76572 0.0
H3085 H 0.12914 0.2211 0.83255 0.0
H3086 H 0.14008 0.19913 0.81077 0.0
H3087 H 0.11003 0.20522 0.80666 0.0
C3088 C 0.53921 0.69569 0.92451 0.0
C3089 C 0.52755 0.71313 0.93773 0.0
C3090 C 0.53955 0.67142 0.93256 0.0
C3091 C 0.52784 0.6645 0.95413 0.0
C3092 C 0.51588 0.68195 0.96729 0.0
C3093 C 0.51588 0.7059 0.95896 0.0
C3094 C 0.55246 0.65321 0.91807 0.0
C3095 C 0.50294 0.67531 0.99022 0.0
C3096 C 0.5049 0.59569 0.96513 0.0
C3097 C 0.52156 0.59161 0.98351 0.0
C3098 C 0.50736 0.61893 0.95465 0.0
C3099 C 0.52696 0.63872 0.96271 0.0
C3100 C 0.54411 0.63464 0.98096 0.0
C3101 C 0.54117 0.61114 0.99121 0.0
C3102 C 0.48858 0.62249 0.93536 0.0
C3103 C 0.56534 0.65525 0.98992 0.0
H3104 H 0.54836 0.70115 0.9082 0.0
H3105 H 0.50657 0.71904 0.96924 0.0
H3106 H 0.56649 0.64777 0.93025 0.0
H3107 H 0.5397 0.63541 0.91131 0.0
H3108 H 0.561 0.66157 0.90195 0.0
H3109 H 0.49487 0.69126 0.99858 0.0
H3110 H 0.48847 0.65838 0.98559 0.0
H3111 H 0.51554 0.67027 0.00432 0.0
H3112 H 0.48974 0.5807 0.9589 0.0
H3113 H 0.5544 0.60797 0.00501 0.0
H3114 H 0.4972 0.62938 0.9187 0.0
H3115 H 0.47859 0.63722 0.94282 0.0
H3116 H 0.47554 0.60456 0.92966 0.0
H3117 H 0.57522 0.66219 0.97397 0.0
H3118 H 0.57795 0.64847 0.00286 0.0
H3119 H 0.55902 0.67177 0.99954 0.0
C3120 C 0.08545 0.75979 0.62174 0.0
C3121 C 0.07008 0.77288 0.63525 0.0
C3122 C 0.10677 0.75497 0.63277 0.0
C3123 C 0.11336 0.76393 0.65787 0.0
C3124 C 0.09799 0.77722 0.67167 0.0
C3125 C 0.07638 0.78124 0.66029 0.0
C3126 C 0.12229 0.74026 0.61749 0.0
C3127 C 0.10459 0.78756 0.69834 0.0
C3128 C 0.1606 0.7358 0.6929 0.0
C3129 C 0.18143 0.75379 0.69067 0.0
C3130 C 0.13834 0.73862 0.68207 0.0
C3131 C 0.13681 0.76028 0.66924 0.0
C3132 C 0.15789 0.77835 0.66682 0.0
C3133 C 0.17992 0.77472 0.67728 0.0
C3134 C 0.11642 0.7186 0.68455 0.0
C3135 C 0.1571 0.8019 0.65368 0.0
H3136 H 0.08057 0.75282 0.60249 0.0
H3137 H 0.06461 0.7913 0.67087 0.0
H3138 H 0.13995 0.75253 0.61571 0.0
H3139 H 0.12565 0.72355 0.62686 0.0
H3140 H 0.114 0.73338 0.59862 0.0
H3141 H 0.0907 0.79733 0.70657 0.0
H3142 H 0.10718 0.77182 0.70953 0.0
H3143 H 0.12185 0.80131 0.69966 0.0
H3144 H 0.16164 0.71969 0.70338 0.0
H3145 H 0.19589 0.78889 0.67574 0.0
H3146 H 0.10784 0.71104 0.66597 0.0
H3147 H 0.10307 0.72725 0.69502 0.0
H3148 H 0.12074 0.70241 0.69422 0.0
H3149 H 0.15031 0.79633 0.63414 0.0
H3150 H 0.17499 0.81445 0.65393 0.0
H3151 H 0.14453 0.81306 0.66255 0.0
C3152 C 0.06125 0.37268 0.4132 0.0
C3153 C 0.05135 0.35059 0.42392 0.0
C3154 C 0.0604 0.3971 0.4249 0.0
C3155 C 0.04872 0.39927 0.44731 0.0
C3156 C 0.0385 0.37697 0.45794 0.0
C3157 C 0.04039 0.35304 0.4464 0.0
C3158 C 0.07216 0.42053 0.4135 0.0
C3159 C 0.02519 0.37828 0.48137 0.0
C3160 C 0.05636 0.45654 0.49534 0.0
C3161 C 0.03568 0.46626 0.4899 0.0
C3162 C 0.0621 0.43605 0.48016 0.0
C3163 C 0.0463 0.42457 0.45967 0.0
C3164 C 0.02595 0.43515 0.45354 0.0
C3165 C 0.02109 0.45609 0.46856 0.0
C3166 C 0.08439 0.42586 0.48679 0.0
C3167 C 0.00826 0.42315 0.43232 0.0
H3168 H 0.06997 0.37088 0.39596 0.0
H3169 H 0.03282 0.33617 0.45495 0.0
H3170 H 0.0588 0.43257 0.40937 0.0
H3171 H 0.08605 0.43226 0.42687 0.0
H3172 H 0.08069 0.41563 0.39615 0.0
H3173 H 0.01736 0.35906 0.48658 0.0
H3174 H 0.03747 0.38854 0.49695 0.0
H3175 H 0.01048 0.38913 0.47898 0.0
H3176 H 0.06784 0.46469 0.51163 0.0
H3177 H 0.00511 0.46369 0.46427 0.0
H3178 H 0.09402 0.42186 0.46997 0.0
H3179 H 0.07933 0.40761 0.49509 0.0
H3180 H 0.0968 0.43942 0.50029 0.0
H3181 H 0.01765 0.41976 0.41523 0.0
H3182 H 0.99477 0.43518 0.42847 0.0
H3183 H 0.99868 0.40431 0.43687 0.0
C3184 C 0.4432 0.26795 0.18862 0.0
C3185 C 0.44132 0.2691 0.16291 0.0
C3186 C 0.42312 0.26779 0.20292 0.0
C3187 C 0.4005 0.26851 0.19124 0.0
C3188 C 0.3984 0.26913 0.16522 0.0
C3189 C 0.41882 0.26955 0.15141 0.0
C3190 C 0.42621 0.26733 0.2306 0.0
C3191 C 0.37459 0.2696 0.15196 0.0
C3192 C 0.34303 0.24624 0.22296 0.0
C3193 C 0.33617 0.26947 0.23094 0.0
C3194 C 0.36415 0.24564 0.21056 0.0
C3195 C 0.37902 0.26884 0.20615 0.0
C3196 C 0.37276 0.29236 0.21508 0.0
C3197 C 0.3514 0.2924 0.22726 0.0
C3198 C 0.37003 0.22013 0.20131 0.0
C3199 C 0.38828 0.31753 0.2111 0.0
H3200 H 0.46053 0.26775 0.19771 0.0
H3201 H 0.41717 0.27042 0.13158 0.0
H3202 H 0.42126 0.2847 0.24015 0.0
H3203 H 0.41402 0.25062 0.23651 0.0
H3204 H 0.4449 0.26645 0.23684 0.0
H3205 H 0.3758 0.26933 0.13159 0.0
H3206 H 0.36113 0.2529 0.15588 0.0
H3207 H 0.36788 0.28701 0.15886 0.0
H3208 H 0.33149 0.22835 0.22563 0.0
H3209 H 0.34636 0.31046 0.23332 0.0
H3210 H 0.38849 0.21891 0.20792 0.0
H3211 H 0.36935 0.21815 0.18077 0.0
H3212 H 0.35738 0.20384 0.20745 0.0
H3213 H 0.40707 0.31792 0.21786 0.0
H3214 H 0.38189 0.33405 0.22069 0.0
H3215 H 0.38837 0.3198 0.19101 0.0
C3216 C 0.62563 0.49478 0.37144 0.0
C3217 C 0.61696 0.50187 0.34901 0.0
C3218 C 0.61179 0.49435 0.39246 0.0
C3219 C 0.58884 0.50132 0.39106 0.0
C3220 C 0.5802 0.50867 0.36849 0.0
C3221 C 0.59422 0.50869 0.34785 0.0
C3222 C 0.62154 0.48596 0.41598 0.0
C3223 C 0.55611 0.51672 0.36613 0.0
C3224 C 0.54018 0.48287 0.43609 0.0
C3225 C 0.54198 0.50567 0.45154 0.0
C3226 C 0.55603 0.48072 0.41703 0.0
C3227 C 0.57397 0.50194 0.41319 0.0
C3228 C 0.57618 0.52476 0.42922 0.0
C3229 C 0.56017 0.52636 0.44804 0.0
C3230 C 0.55321 0.45594 0.4006 0.0
C3231 C 0.59501 0.54785 0.426 0.0
H3232 H 0.64303 0.48921 0.37247 0.0
H3233 H 0.58725 0.51418 0.33067 0.0
H3234 H 0.61889 0.499 0.43227 0.0
H3235 H 0.61162 0.46666 0.41869 0.0
H3236 H 0.64092 0.48516 0.41546 0.0
H3237 H 0.55193 0.52184 0.34728 0.0
H3238 H 0.54174 0.50105 0.37047 0.0
H3239 H 0.55573 0.53345 0.37967 0.0
H3240 H 0.52624 0.46679 0.43873 0.0
H3241 H 0.56152 0.5442 0.45964 0.0
H3242 H 0.57064 0.4494 0.39985 0.0
H3243 H 0.5476 0.45894 0.38144 0.0
H3244 H 0.53971 0.44064 0.4071 0.0
H3245 H 0.61303 0.54259 0.42609 0.0
H3246 H 0.59523 0.56367 0.44079 0.0
H3247 H 0.59163 0.55488 0.40782 0.0
C3248 C 0.23924 0.83415 0.05998 0.0
C3249 C 0.24399 0.85952 0.05416 0.0
C3250 C 0.2406 0.82837 0.0845 0.0
C3251 C 0.2468 0.84846 0.10373 0.0
C3252 C 0.25024 0.87417 0.0982 0.0
C3253 C 0.24876 0.87943 0.07338 0.0
C3254 C 0.23655 0.80068 0.08968 0.0
C3255 C 0.25659 0.89602 0.11836 0.0
C3256 C 0.23583 0.82787 0.16761 0.0
C3257 C 0.25834 0.8229 0.1749 0.0
C3258 C 0.23201 0.83746 0.14493 0.0
C3259 C 0.25124 0.84218 0.12932 0.0
C3260 C 0.2743 0.83824 0.13714 0.0
C3261 C 0.27759 0.82866 0.15994 0.0
C3262 C 0.20721 0.84146 0.13722 0.0
C3263 C 0.29522 0.84301 0.12091 0.0
H3264 H 0.23515 0.81865 0.04525 0.0
H3265 H 0.2524 0.89908 0.06901 0.0
H3266 H 0.25348 0.7961 0.09743 0.0
H3267 H 0.22303 0.79713 0.10367 0.0
H3268 H 0.23039 0.78742 0.07276 0.0
H3269 H 0.25603 0.91477 0.11131 0.0
H3270 H 0.24415 0.89338 0.13348 0.0
H3271 H 0.27493 0.89643 0.12651 0.0
H3272 H 0.22111 0.82393 0.17952 0.0
H3273 H 0.29504 0.82499 0.16574 0.0
H3274 H 0.19939 0.82701 0.12169 0.0
H3275 H 0.20805 0.86055 0.1305 0.0
H3276 H 0.19496 0.83975 0.15258 0.0
H3277 H 0.29182 0.82924 0.10402 0.0
H3278 H 0.31233 0.84097 0.13052 0.0
H3279 H 0.29728 0.86248 0.11482 0.0
C3280 C 0.92578 0.571 0.87312 0.0
C3281 C 0.93555 0.56408 0.85084 0.0
C3282 C 0.93936 0.57317 0.89579 0.0
C3283 C 0.96286 0.56768 0.896 0.0
C3284 C 0.97315 0.56215 0.87341 0.0
C3285 C 0.95949 0.56076 0.85117 0.0
C3286 C 0.92832 0.58022 0.91957 0.0
C3287 C 0.99791 0.55556 0.87271 0.0
C3288 C 0.00772 0.57475 0.95139 0.0
C3289 C 1.00324 0.54989 0.95839 0.0
C3290 C 0.99351 0.5816 0.93212 0.0
C3291 C 0.97507 0.56288 0.91934 0.0
C3292 C 0.9703 0.53794 0.92686 0.0
C3293 C 0.98433 0.53187 0.94636 0.0
C3294 C 0.99865 0.60856 0.92502 0.0
C3295 C 0.95116 0.51717 0.91354 0.0
H3296 H 0.90745 0.57413 0.87291 0.0
H3297 H 0.96739 0.55588 0.83401 0.0
H3298 H 0.92598 0.56386 0.93092 0.0
H3299 H 0.94047 0.59631 0.9306 0.0
H3300 H 0.91062 0.58575 0.91619 0.0
H3301 H 0.00401 0.55376 0.85359 0.0
H3302 H 0.01115 0.57029 0.88413 0.0
H3303 H 0.99782 0.53712 0.88061 0.0
H3304 H 0.02217 0.58875 0.96096 0.0
H3305 H 0.98086 0.51258 0.9517 0.0
H3306 H 0.98172 0.61547 0.92111 0.0
H3307 H 0.0086 0.60907 0.90792 0.0
H3308 H 0.00966 0.62189 0.9398 0.0
H3309 H 0.93356 0.52336 0.91331 0.0
H3310 H 0.94934 0.49899 0.92227 0.0
H3311 H 0.95556 0.5134 0.89401 0.0
C3312 C 0.26735 0.17256 0.57163 0.0
C3313 C 0.26487 0.18984 0.55416 0.0
C3314 C 0.26766 0.18006 0.59727 0.0
C3315 C 0.26562 0.20546 0.60563 0.0
C3316 C 0.26372 0.22307 0.58808 0.0
C3317 C 0.26334 0.21508 0.56273 0.0
C3318 C 0.26972 0.16072 0.61541 0.0
C3319 C 0.2618 0.2504 0.59605 0.0
C3320 C 0.24331 0.22377 0.66883 0.0
C3321 C 0.26472 0.23544 0.68234 0.0
C3322 C 0.24342 0.21301 0.64418 0.0
C3323 C 0.26543 0.21398 0.63264 0.0
C3324 C 0.28711 0.22524 0.64635 0.0
C3325 C 0.28649 0.23578 0.67093 0.0
C3326 C 0.21989 0.20118 0.63027 0.0
C3327 C 0.31097 0.22684 0.63483 0.0
H3328 H 0.26846 0.15303 0.56527 0.0
H3329 H 0.26166 0.22876 0.54952 0.0
H3330 H 0.2853 0.16788 0.62881 0.0
H3331 H 0.25349 0.15787 0.62619 0.0
H3332 H 0.27181 0.14197 0.60606 0.0
H3333 H 0.26084 0.26184 0.58009 0.0
H3334 H 0.24555 0.25084 0.60654 0.0
H3335 H 0.2775 0.25969 0.60858 0.0
H3336 H 0.2264 0.22318 0.67743 0.0
H3337 H 0.30321 0.24459 0.68111 0.0
H3338 H 0.22059 0.18162 0.62197 0.0
H3339 H 0.21657 0.21259 0.61485 0.0
H3340 H 0.20454 0.20016 0.64234 0.0
H3341 H 0.31308 0.20771 0.62653 0.0
H3342 H 0.32632 0.23445 0.64846 0.0
H3343 H 0.31175 0.23947 0.61967 0.0
C3344 C 0.60097 0.53705 0.21328 0.0
C3345 C 0.61623 0.52053 0.22014 0.0
C3346 C 0.59395 0.53838 0.18851 0.0
C3347 C 0.60246 0.52295 0.16968 0.0
C3348 C 0.61882 0.50709 0.17618 0.0
C3349 C 0.62555 0.50605 0.2014 0.0
C3350 C 0.57649 0.55557 0.18264 0.0
C3351 C 0.62852 0.49059 0.15658 0.0
C3352 C 0.55819 0.50746 0.11375 0.0
C3353 C 0.56713 0.52634 0.09854 0.0
C3354 C 0.57041 0.50507 0.13617 0.0
C3355 C 0.59219 0.52203 0.14373 0.0
C3356 C 0.60189 0.54045 0.1279 0.0
C3357 C 0.5892 0.54242 0.10546 0.0
C3358 C 0.55927 0.48521 0.15237 0.0
C3359 C 0.62515 0.55873 0.13512 0.0
H3360 H 0.59399 0.54884 0.22743 0.0
H3361 H 0.63747 0.49339 0.20642 0.0
H3362 H 0.58367 0.5685 0.16882 0.0
H3363 H 0.55935 0.54382 0.17443 0.0
H3364 H 0.57259 0.56739 0.19932 0.0
H3365 H 0.64333 0.48199 0.16418 0.0
H3366 H 0.61394 0.47495 0.14847 0.0
H3367 H 0.63512 0.50191 0.14133 0.0
H3368 H 0.54131 0.49469 0.10834 0.0
H3369 H 0.59636 0.55679 0.09357 0.0
H3370 H 0.55303 0.49482 0.16917 0.0
H3371 H 0.5727 0.47408 0.15859 0.0
H3372 H 0.54374 0.47174 0.14269 0.0
H3373 H 0.62238 0.57283 0.15049 0.0
H3374 H 0.63202 0.56927 0.11944 0.0
H3375 H 0.63898 0.54835 0.1419 0.0
C3376 C 0.23099 0.84111 0.92073 0.0
C3377 C 0.2418 0.8669 0.92508 0.0
C3378 C 0.2332 0.82685 0.89835 0.0
C3379 C 0.24687 0.83859 0.87997 0.0
C3380 C 0.25859 0.86448 0.88464 0.0
C3381 C 0.25563 0.87846 0.9071 0.0
C3382 C 0.22064 0.79926 0.89429 0.0
C3383 C 0.27479 0.87761 0.86659 0.0
C3384 C 0.26157 0.79228 0.82819 0.0
C3385 C 0.24234 0.7916 0.81098 0.0
C3386 C 0.26405 0.80848 0.8504 0.0
C3387 C 0.24682 0.82411 0.85533 0.0
C3388 C 0.22798 0.82417 0.83748 0.0
C3389 C 0.22584 0.80774 0.81564 0.0
C3390 C 0.28483 0.80868 0.86871 0.0
C3391 C 0.20965 0.8411 0.84171 0.0
H3392 H 0.22052 0.8321 0.93481 0.0
H3393 H 0.26465 0.89821 0.91081 0.0
H3394 H 0.20668 0.79683 0.87888 0.0
H3395 H 0.2336 0.78683 0.88893 0.0
H3396 H 0.21196 0.7926 0.91104 0.0
H3397 H 0.29363 0.88039 0.87423 0.0
H3398 H 0.27352 0.86675 0.84806 0.0
H3399 H 0.27074 0.8969 0.86457 0.0
H3400 H 0.27445 0.77998 0.82443 0.0
H3401 H 0.21119 0.80765 0.80213 0.0
H3402 H 0.27804 0.80176 0.88617 0.0
H3403 H 0.29482 0.82852 0.87327 0.0
H3404 H 0.29742 0.79652 0.86152 0.0
H3405 H 0.19777 0.83387 0.85617 0.0
H3406 H 0.19837 0.84169 0.82462 0.0
H3407 H 0.21863 0.86087 0.84846 0.0
C3408 C 0.92271 0.5339 0.70552 0.0
C3409 C 0.93775 0.52749 0.72418 0.0
C3410 C 0.92923 0.53317 0.68082 0.0
C3411 C 0.95124 0.52596 0.67486 0.0
C3412 C 0.96615 0.51893 0.69351 0.0
C3413 C 0.95919 0.51968 0.71783 0.0
C3414 C 0.91284 0.54053 0.66122 0.0
C3415 C 0.98979 0.5111 0.68791 0.0
C3416 C 0.96653 0.50229 0.61099 0.0
C3417 C 0.98215 0.52373 0.60454 0.0
C3418 C 0.95494 0.50325 0.63319 0.0
C3419 C 0.95937 0.52612 0.64933 0.0
C3420 C 0.97442 0.54812 0.64238 0.0
C3421 C 0.98559 0.54667 0.61996 0.0
C3422 C 0.93878 0.47951 0.63986 0.0
C3423 C 0.97971 0.57281 0.65917 0.0
H3424 H 0.90612 0.53993 0.71025 0.0
H3425 H 0.97089 0.51441 0.73198 0.0
H3426 H 0.92195 0.55796 0.65349 0.0
H3427 H 0.90869 0.52514 0.6457 0.0
H3428 H 0.89575 0.54428 0.66861 0.0
H3429 H 0.99918 0.50599 0.70457 0.0
H3430 H 0.98683 0.49443 0.67368 0.0
H3431 H 1.00174 0.52693 0.68029 0.0
H3432 H 0.96354 0.48466 0.59881 0.0
H3433 H 0.99741 0.56337 0.61474 0.0
H3434 H 0.92169 0.48412 0.64637 0.0
H3435 H 0.9476 0.47164 0.65525 0.0
H3436 H 0.93469 0.46447 0.62397 0.0
H3437 H 0.96286 0.57803 0.66573 0.0
H3438 H 0.98946 0.58886 0.64983 0.0
H3439 H 0.99085 0.57031 0.67575 0.0
C3440 C 0.28104 0.16772 0.40082 0.0
C3441 C 0.27177 0.17769 0.42234 0.0
C3442 C 0.28277 0.18099 0.37947 0.0
C3443 C 0.27476 0.20462 0.37948 0.0
C3444 C 0.26489 0.2144 0.401 0.0
C3445 C 0.26371 0.20098 0.42214 0.0
C3446 C 0.29365 0.16999 0.35707 0.0
C3447 C 0.25559 0.23916 0.40175 0.0
C3448 C 0.29661 0.25336 0.3342 0.0
C3449 C 0.27749 0.24882 0.3162 0.0
C3450 C 0.29636 0.23856 0.35444 0.0
C3451 C 0.27631 0.21907 0.35701 0.0
C3452 C 0.25709 0.2143 0.33868 0.0
C3453 C 0.258 0.22906 0.3185 0.0
C3454 C 0.3174 0.24405 0.37331 0.0
C3455 C 0.23521 0.19405 0.34071 0.0
H3456 H 0.28751 0.14987 0.40086 0.0
H3457 H 0.25646 0.20882 0.43862 0.0
H3458 H 0.28135 0.16858 0.34037 0.0
H3459 H 0.3105 0.18293 0.35362 0.0
H3460 H 0.29773 0.15077 0.35938 0.0
H3461 H 0.24791 0.24389 0.41966 0.0
H3462 H 0.27031 0.25506 0.39872 0.0
H3463 H 0.24155 0.23799 0.38661 0.0
H3464 H 0.31174 0.26852 0.33249 0.0
H3465 H 0.24304 0.2255 0.30478 0.0
H3466 H 0.32431 0.22626 0.3758 0.0
H3467 H 0.31157 0.25097 0.39151 0.0
H3468 H 0.33225 0.25864 0.36789 0.0
H3469 H 0.24051 0.17522 0.34192 0.0
H3470 H 0.22197 0.19241 0.3247 0.0
H3471 H 0.22634 0.19858 0.35792 0.0
C3472 C 0.32531 0.57984 0.52717 0.0
C3473 C 0.32971 0.60442 0.51931 0.0
C3474 C 0.34226 0.56375 0.52448 0.0
C3475 C 0.36402 0.57242 0.51356 0.0
C3476 C 0.36832 0.59703 0.50515 0.0
C3477 C 0.35116 0.61272 0.50817 0.0
C3478 C 0.33717 0.53776 0.53389 0.0
C3479 C 0.39152 0.60724 0.49389 0.0
C3480 C 0.42034 0.54863 0.53236 0.0
C3481 C 0.42393 0.53334 0.511 0.0
C3482 C 0.40062 0.56092 0.5336 0.0
C3483 C 0.38349 0.55712 0.51329 0.0
C3484 C 0.38618 0.54039 0.49222 0.0
C3485 C 0.40656 0.5288 0.49122 0.0
C3486 C 0.39873 0.57867 0.55642 0.0
C3487 C 0.36816 0.53574 0.4703 0.0
H3488 H 0.30872 0.57324 0.53567 0.0
H3489 H 0.35465 0.63162 0.50189 0.0
H3490 H 0.34021 0.52287 0.5194 0.0
H3491 H 0.34969 0.53735 0.55004 0.0
H3492 H 0.31851 0.53282 0.53963 0.0
H3493 H 0.39142 0.62603 0.48675 0.0
H3494 H 0.40664 0.60946 0.50804 0.0
H3495 H 0.39498 0.59356 0.47847 0.0
H3496 H 0.43361 0.55201 0.54786 0.0
H3497 H 0.40933 0.51703 0.47467 0.0
H3498 H 0.38496 0.56908 0.56803 0.0
H3499 H 0.39322 0.59655 0.55154 0.0
H3500 H 0.41602 0.58397 0.56763 0.0
H3501 H 0.34971 0.53071 0.4765 0.0
H3502 H 0.3714 0.52022 0.45657 0.0
H3503 H 0.36913 0.55348 0.46099 0.0
C3504 C 0.86362 0.91189 0.53024 0.0
C3505 C 0.8422 0.92122 0.52716 0.0
C3506 C 0.88608 0.92826 0.53204 0.0
C3507 C 0.88738 0.95471 0.53031 0.0
C3508 C 0.86585 0.96437 0.52746 0.0
C3509 C 0.84352 0.94755 0.52615 0.0
C3510 C 0.90849 0.91713 0.53549 0.0
C3511 C 0.86644 0.99236 0.52518 0.0
C3512 C 0.94618 0.99829 0.55463 0.0
C3513 C 0.95867 1.0007 0.53303 0.0
C3514 C 0.92275 0.98396 0.55396 0.0
C3515 C 0.91136 0.97198 0.53107 0.0
C3516 C 0.92369 0.97505 0.50909 0.0
C3517 C 0.94725 0.9891 0.5104 0.0
C3518 C 0.91052 0.98087 0.57789 0.0
C3519 C 0.91226 0.96289 0.48424 0.0
H3520 H 0.86286 0.89162 0.53124 0.0
H3521 H 0.82712 0.95493 0.5236 0.0
H3522 H 0.91961 0.92014 0.51937 0.0
H3523 H 0.91945 0.92703 0.55215 0.0
H3524 H 0.90442 0.89635 0.53753 0.0
H3525 H 0.84818 0.99699 0.52356 0.0
H3526 H 0.87648 0.00406 0.54152 0.0
H3527 H 0.87602 0.998 0.50861 0.0
H3528 H 0.95498 0.00706 0.57222 0.0
H3529 H 0.95689 0.99056 0.49372 0.0
H3530 H 0.90755 0.9605 0.58154 0.0
H3531 H 0.89267 0.98644 0.57645 0.0
H3532 H 0.92121 0.9925 0.59393 0.0
H3533 H 0.90997 0.94181 0.48368 0.0
H3534 H 0.9232 0.96919 0.4687 0.0
H3535 H 0.89418 0.9676 0.48134 0.0
C3536 C 0.82882 0.0925 0.24169 0.0
C3537 C 0.85277 0.09651 0.23532 0.0
C3538 C 0.8163 0.11292 0.2449 0.0
C3539 C 0.82764 0.13788 0.24064 0.0
C3540 C 0.85155 0.14178 0.23317 0.0
C3541 C 0.864 0.1212 0.2312 0.0
C3542 C 0.7912 0.10793 0.25368 0.0
C3543 C 0.86405 0.16776 0.22741 0.0
C3544 C 0.78879 0.18774 0.2293 0.0
C3545 C 0.79293 0.20376 0.25161 0.0
C3546 C 0.79968 0.16611 0.22556 0.0
C3547 C 0.81482 0.16002 0.24471 0.0
C3548 C 0.81822 0.17557 0.26763 0.0
C3549 C 0.80756 0.19739 0.27065 0.0
C3550 C 0.79587 0.15052 0.20067 0.0
C3551 C 0.83341 0.16936 0.28892 0.0
H3552 H 0.82017 0.07351 0.24527 0.0
H3553 H 0.88252 0.12438 0.22629 0.0
H3554 H 0.7906 0.11953 0.27157 0.0
H3555 H 0.77852 0.11382 0.24024 0.0
H3556 H 0.7849 0.08749 0.25623 0.0
H3557 H 0.88187 0.16725 0.21997 0.0
H3558 H 0.85284 0.17533 0.21367 0.0
H3559 H 0.86655 0.18134 0.24441 0.0
H3560 H 0.77791 0.19276 0.21428 0.0
H3561 H 0.81087 0.20965 0.28794 0.0
H3562 H 0.79207 0.12978 0.20274 0.0
H3563 H 0.8125 0.15439 0.1906 0.0
H3564 H 0.78085 0.15516 0.18923 0.0
H3565 H 0.82748 0.1492 0.29261 0.0
H3566 H 0.83254 0.18194 0.30617 0.0
H3567 H 0.85237 0.17157 0.28407 0.0
C3568 C 0.70237 0.10303 0.03198 0.0
C3569 C 0.70408 0.12762 0.02428 0.0
C3570 C 0.67998 0.08771 0.0346 0.0
C3571 C 0.65881 0.09715 0.02926 0.0
C3572 C 0.6604 0.12219 0.02221 0.0
C3573 C 0.68298 0.13713 0.01986 0.0
C3574 C 0.67897 0.06115 0.04229 0.0
C3575 C 0.6382 0.13289 0.01623 0.0
C3576 C 0.60163 0.05198 0.00541 0.0
C3577 C 0.5875 0.05265 0.02592 0.0
C3578 C 0.62518 0.0656 0.0066 0.0
C3579 C 0.63496 0.08023 0.0289 0.0
C3580 C 0.62128 0.08001 0.05007 0.0
C3581 C 0.59764 0.0662 0.04834 0.0
C3582 C 0.6392 0.06524 0.98362 0.0
C3583 C 0.63122 0.09525 0.07421 0.0
H3584 H 0.71853 0.09554 0.03563 0.0
H3585 H 0.68404 0.1561 0.01398 0.0
H3586 H 0.66716 0.05809 0.05788 0.0
H3587 H 0.67117 0.04683 0.02665 0.0
H3588 H 0.69698 0.05754 0.04798 0.0
H3589 H 0.64251 0.15324 0.01253 0.0
H3590 H 0.62813 0.12166 0.99965 0.0
H3591 H 0.62617 0.13127 0.03177 0.0
H3592 H 0.59408 0.04132 0.98806 0.0
H3593 H 0.58686 0.06679 0.06427 0.0
H3594 H 0.65684 0.05993 0.98776 0.0
H3595 H 0.6427 0.08461 0.97724 0.0
H3596 H 0.62954 0.05164 0.96822 0.0
H3597 H 0.64918 0.09126 0.07941 0.0
H3598 H 0.61931 0.09101 0.08956 0.0
H3599 H 0.63347 0.11595 0.07203 0.0
C3600 C 0.20064 0.46395 0.23012 0.0
C3601 C 0.17689 0.45726 0.23667 0.0
C3602 C 0.21694 0.44736 0.23269 0.0
C3603 C 0.20924 0.42359 0.242 0.0
C3604 C 0.18521 0.41664 0.24838 0.0
C3605 C 0.16933 0.43355 0.24562 0.0
C3606 C 0.24237 0.45526 0.22551 0.0
C3607 C 0.17619 0.39118 0.25787 0.0
C3608 C 0.23991 0.36757 0.22669 0.0
C3609 C 0.2518 0.36581 0.24946 0.0
C3610 C 0.22661 0.3868 0.22377 0.0
C3611 C 0.22579 0.40523 0.24394 0.0
C3612 C 0.23911 0.40458 0.2665 0.0
C3613 C 0.25191 0.38469 0.26907 0.0
C3614 C 0.21261 0.38666 0.19943 0.0
C3615 C 0.23873 0.42404 0.28833 0.0
H3616 H 0.20662 0.4823 0.22329 0.0
H3617 H 0.15101 0.42827 0.25075 0.0
H3618 H 0.25513 0.45455 0.24137 0.0
H3619 H 0.24616 0.44169 0.21018 0.0
H3620 H 0.24579 0.47482 0.2195 0.0
H3621 H 0.15712 0.38892 0.2625 0.0
H3622 H 0.17798 0.37546 0.24369 0.0
H3623 H 0.18719 0.38903 0.27466 0.0
H3624 H 0.23997 0.35308 0.21138 0.0
H3625 H 0.26106 0.3833 0.28668 0.0
H3626 H 0.22102 0.40298 0.18965 0.0
H3627 H 0.19389 0.38889 0.20247 0.0
H3628 H 0.21202 0.36873 0.1872 0.0
H3629 H 0.24251 0.44365 0.28253 0.0
H3630 H 0.25201 0.42259 0.30352 0.0
H3631 H 0.22061 0.42116 0.29563 0.0
C3632 C 0.20595 0.45176 0.04101 0.0
C3633 C 0.20499 0.42881 0.02589 0.0
C3634 C 0.1865 0.46485 0.04112 0.0
C3635 C 0.16571 0.45519 0.02529 0.0
C3636 C 0.16464 0.43199 0.01004 0.0
C3637 C 0.18412 0.419 0.01071 0.0
C3638 C 0.18818 0.48905 0.05822 0.0
C3639 C 0.14291 0.42093 0.99287 0.0
C3640 C 0.10609 0.47562 0.03914 0.0
C3641 C 0.10508 0.49453 0.02304 0.0
C3642 C 0.12569 0.46286 0.04022 0.0
C3643 C 0.14496 0.46912 0.02482 0.0
C3644 C 0.14407 0.48831 0.00857 0.0
C3645 C 0.12421 0.50081 0.00792 0.0
C3646 C 0.12572 0.44276 0.05801 0.0
C3647 C 0.16389 0.49525 0.99143 0.0
H3648 H 0.22195 0.45949 0.05284 0.0
H3649 H 0.18322 0.40141 0.99881 0.0
H3650 H 0.18643 0.50522 0.0473 0.0
H3651 H 0.17318 0.48692 0.07074 0.0
H3652 H 0.20538 0.49392 0.06966 0.0
H3653 H 0.14503 0.40308 0.98176 0.0
H3654 H 0.12684 0.41673 0.00376 0.0
H3655 H 0.13949 0.43506 0.98006 0.0
H3656 H 0.09127 0.47046 0.05069 0.0
H3657 H 0.12347 0.5152 0.99524 0.0
H3658 H 0.13781 0.45098 0.07448 0.0
H3659 H 0.13248 0.42599 0.04954 0.0
H3660 H 0.10754 0.436 0.06427 0.0
H3661 H 0.18126 0.50166 0.00231 0.0
H3662 H 0.16066 0.51062 0.97999 0.0
H3663 H 0.16559 0.47817 0.97892 0.0
C3664 C 0.87159 0.93441 0.2292 0.0
C3665 C 0.86352 0.95721 0.23601 0.0
C3666 C 0.85622 0.91056 0.22845 0.0
C3667 C 0.83234 0.90936 0.23541 0.0
C3668 C 0.82392 0.93237 0.24176 0.0
C3669 C 0.83952 0.95602 0.24164 0.0
C3670 C 0.86579 0.8866 0.22094 0.0
C3671 C 0.79883 0.93197 0.24994 0.0
C3672 C 0.78626 0.84754 0.22106 0.0
C3673 C 0.78787 0.83608 0.2431 0.0
C3674 C 0.80083 0.87122 0.21809 0.0
C3675 C 0.81685 0.88406 0.23791 0.0
C3676 C 0.8183 0.87257 0.26028 0.0
C3677 C 0.80409 0.84861 0.26245 0.0
C3678 C 0.79925 0.88242 0.1937 0.0
C3679 C 0.83468 0.88573 0.28211 0.0
H3680 H 0.89009 0.93521 0.22468 0.0
H3681 H 0.83326 0.97355 0.24717 0.0
H3682 H 0.86709 0.87565 0.23717 0.0
H3683 H 0.85335 0.87411 0.2067 0.0
H3684 H 0.88381 0.89086 0.21348 0.0
H3685 H 0.7946 0.95145 0.25299 0.0
H3686 H 0.7855 0.92038 0.23595 0.0
H3687 H 0.79677 0.92287 0.26747 0.0
H3688 H 0.77381 0.83783 0.20604 0.0
H3689 H 0.80531 0.83992 0.27961 0.0
H3690 H 0.81718 0.88574 0.18596 0.0
H3691 H 0.7936 0.9012 0.19653 0.0
H3692 H 0.78638 0.86978 0.17991 0.0
H3693 H 0.85361 0.88831 0.27707 0.0
H3694 H 0.83286 0.8748 0.29857 0.0
H3695 H 0.83069 0.90501 0.28725 0.0
C3696 C 0.63573 0.10704 0.74176 0.0
C3697 C 0.64092 0.08327 0.73308 0.0
C3698 C 0.65194 0.12975 0.7395 0.0
C3699 C 0.67371 0.12865 0.72803 0.0
C3700 C 0.67833 0.10487 0.71787 0.0
C3701 C 0.66197 0.08246 0.72066 0.0
C3702 C 0.64643 0.15475 0.75073 0.0
C3703 C 0.70115 0.10292 0.70521 0.0
C3704 C 0.71082 0.19222 0.71481 0.0
C3705 C 0.72635 0.19815 0.73616 0.0
C3706 C 0.69407 0.16915 0.71131 0.0
C3707 C 0.69286 0.15183 0.72965 0.0
C3708 C 0.70939 0.15717 0.75053 0.0
C3709 C 0.72597 0.18014 0.75344 0.0
C3710 C 0.67696 0.16388 0.68862 0.0
C3711 C 0.70883 0.13921 0.77051 0.0
H3712 H 0.61949 0.10785 0.75131 0.0
H3713 H 0.66598 0.0642 0.71354 0.0
H3714 H 0.65906 0.16218 0.767 0.0
H3715 H 0.64895 0.16921 0.73723 0.0
H3716 H 0.62783 0.1527 0.75683 0.0
H3717 H 0.70052 0.08367 0.69532 0.0
H3718 H 0.7046 0.11737 0.69177 0.0
H3719 H 0.71653 0.10685 0.71918 0.0
H3720 H 0.71094 0.20608 0.70143 0.0
H3721 H 0.73809 0.1844 0.76987 0.0
H3722 H 0.65862 0.16525 0.69408 0.0
H3723 H 0.67628 0.14421 0.6798 0.0
H3724 H 0.68206 0.17761 0.67476 0.0
H3725 H 0.69146 0.13755 0.77936 0.0
H3726 H 0.72352 0.14576 0.78511 0.0
H3727 H 0.71032 0.11983 0.76235 0.0
loop_
_geom_bond_atom_site_label_1
_geom_bond_atom_site_label_2
_geom_bond_distance
_geom_bond_site_symmetry_2
_ccdc_geom_bond_type
Co0 O1 2.216 . S
Co0 O2 2.091 . S
Co0 O4 2.004 1_455 S
Co0 O10 2.021 . S
Co0 O12 2.137 . S
Co0 O13 2.244 . S
O1 Co0 2.216 . S
O1 C8 1.247 . S
O2 Co0 2.091 . S
O2 C8 1.261 . S
C3 O12 1.247 . S
C3 O13 1.272 . S
O4 Co0 2.004 1_655 S
O4 C9 1.259 . S
Co5 O6 2.061 . S
Co5 O11 2.052 1_655 S
Co5 O13 2.135 1_655 S
O6 Co5 2.061 . S
O6 C9 1.235 . S
C7 O10 1.238 . S
C7 O11 1.241 . S
C8 O1 1.247 . S
C8 O2 1.261 . S
C9 O4 1.259 . S
C9 O6 1.235 . S
O10 Co0 2.021 . S
O10 C7 1.238 . S
O11 Co5 2.052 1_455 S
O11 C7 1.241 . S
O12 Co0 2.137 . S
O12 C3 1.247 . S
O13 Co0 2.244 . S
O13 C3 1.272 . S
O13 Co5 2.135 1_455 S
Co14 O15 2.216 1_455 S
Co14 O16 2.091 1_455 S
Co14 O18 2.004 . S
Co14 O24 2.015 . S
Co14 O26 2.137 . S
Co14 O27 2.244 . S
O15 Co14 2.216 1_655 S
O15 C22 1.247 . S
O16 Co14 2.091 1_655 S
O16 C22 1.261 . S
C17 O26 1.247 . S
C17 O27 1.272 . S
O18 Co14 2.004 . S
O18 C23 1.259 . S
Co19 O20 2.061 . S
Co19 O25 2.052 . S
Co19 O27 2.135 . S
O20 Co19 2.061 . S
O20 C23 1.235 . S
C21 O24 1.252 . S
C21 O25 1.241 . S
C22 O15 1.247 . S
C22 O16 1.261 . S
C23 O18 1.259 . S
C23 O20 1.235 . S
O24 Co14 2.015 . S
O24 C21 1.252 . S
O25 Co19 2.052 . S
O25 C21 1.241 . S
O26 Co14 2.137 . S
O26 C17 1.247 . S
O27 Co14 2.244 . S
O27 C17 1.272 . S
O27 Co19 2.135 . S
Co28 O29 2.216 . S
Co28 O30 2.091 . S
Co28 O32 2.004 . S
Co28 O38 2.021 . S
Co28 O40 2.137 . S
Co28 O41 2.244 . S
O29 Co28 2.216 . S
O29 C36 1.247 . S
O30 Co28 2.091 . S
O30 C36 1.261 . S
C31 O40 1.247 . S
C31 O41 1.272 . S
O32 Co28 2.004 . S
O32 C37 1.259 . S
Co33 O34 2.061 . S
Co33 O39 2.052 . S
Co33 O41 2.135 . S
O34 Co33 2.061 . S
O34 C37 1.235 . S
C35 O38 1.238 . S
C35 O39 1.241 . S
C36 O29 1.247 . S
C36 O30 1.261 . S
C37 O32 1.259 . S
C37 O34 1.235 . S
O38 Co28 2.021 . S
O38 C35 1.238 . S
O39 Co33 2.052 . S
O39 C35 1.241 . S
O40 Co28 2.137 . S
O40 C31 1.247 . S
O41 Co28 2.244 . S
O41 C31 1.272 . S
O41 Co33 2.135 . S
Co42 O43 2.216 . S
Co42 O44 2.091 . S
Co42 O46 2.004 . S
Co42 O52 2.021 . S
Co42 O54 2.137 . S
Co42 O55 2.244 . S
O43 Co42 2.216 . S
O43 C50 1.247 . S
O44 Co42 2.091 . S
O44 C50 1.261 . S
C45 O54 1.247 . S
C45 O55 1.272 . S
O46 Co42 2.004 . S
O46 C51 1.259 . S
Co47 O48 2.061 . S
Co47 O53 2.052 . S
Co47 O55 2.135 . S
O48 Co47 2.061 . S
O48 C51 1.235 . S
C49 O52 1.238 . S
C49 O53 1.241 . S
C50 O43 1.247 . S
C50 O44 1.261 . S
C51 O46 1.259 . S
C51 O48 1.235 . S
O52 Co42 2.021 . S
O52 C49 1.238 . S
O53 Co47 2.052 . S
O53 C49 1.241 . S
O54 Co42 2.137 . S
O54 C45 1.247 . S
O55 Co42 2.244 . S
O55 C45 1.272 . S
O55 Co47 2.135 . S
Co56 O57 2.216 1_455 S
Co56 O58 2.091 1_455 S
Co56 O60 2.004 . S
Co56 O66 2.021 . S
Co56 O68 2.137 . S
Co56 O69 2.244 . S
O57 Co56 2.216 1_655 S
O57 C64 1.247 . S
O58 Co56 2.091 1_655 S
O58 C64 1.261 . S
C59 O68 1.247 . S
C59 O69 1.272 . S
O60 Co56 2.004 . S
O60 C65 1.259 . S
Co61 O62 2.061 . S
Co61 O67 2.052 . S
Co61 O69 2.135 . S
O62 Co61 2.061 . S
O62 C65 1.235 . S
C63 O66 1.238 . S
C63 O67 1.241 . S
C64 O57 1.247 . S
C64 O58 1.261 . S
C65 O60 1.259 . S
C65 O62 1.235 . S
O66 Co56 2.021 . S
O66 C63 1.238 . S
O67 Co61 2.052 . S
O67 C63 1.241 . S
O68 Co56 2.137 . S
O68 C59 1.247 . S
O69 Co56 2.244 . S
O69 C59 1.272 . S
O69 Co61 2.135 . S
Co70 O71 2.216 . S
Co70 O72 2.091 . S
Co70 O74 2.004 . S
Co70 O80 2.021 . S
Co70 O82 2.137 . S
Co70 O83 2.244 . S
O71 Co70 2.216 . S
O71 C78 1.247 . S
O72 Co70 2.091 . S
O72 C78 1.261 . S
C73 O82 1.247 . S
C73 O83 1.272 . S
O74 Co70 2.004 . S
O74 C79 1.259 . S
Co75 O76 2.061 . S
Co75 O81 2.052 . S
Co75 O83 2.135 . S
O76 Co75 2.061 . S
O76 C79 1.235 . S
C77 O80 1.238 . S
C77 O81 1.241 . S
C78 O71 1.247 . S
C78 O72 1.261 . S
C79 O74 1.259 . S
C79 O76 1.235 . S
O80 Co70 2.021 . S
O80 C77 1.238 . S
O81 Co75 2.052 . S
O81 C77 1.241 . S
O82 Co70 2.137 . S
O82 C73 1.247 . S
O83 Co70 2.244 . S
O83 C73 1.272 . S
O83 Co75 2.135 . S
Co84 O85 2.216 . S
Co84 O86 2.091 . S
Co84 O88 2.004 . S
Co84 O94 2.021 . S
Co84 O96 2.137 . S
Co84 O97 2.244 . S
O85 Co84 2.216 . S
O85 C92 1.247 . S
O86 Co84 2.091 . S
O86 C92 1.261 . S
C87 O96 1.247 . S
C87 O97 1.272 . S
O88 Co84 2.004 . S
O88 C93 1.259 . S
Co89 O90 2.061 . S
Co89 O95 2.052 . S
Co89 O97 2.135 . S
O90 Co89 2.061 . S
O90 C93 1.235 . S
C91 O94 1.238 . S
C91 O95 1.241 . S
C92 O85 1.247 . S
C92 O86 1.261 . S
C93 O88 1.259 . S
C93 O90 1.235 . S
O94 Co84 2.021 . S
O94 C91 1.238 . S
O95 Co89 2.052 . S
O95 C91 1.241 . S
O96 Co84 2.137 . S
O96 C87 1.247 . S
O97 Co84 2.244 . S
O97 C87 1.272 . S
O97 Co89 2.135 . S
Co98 O99 2.216 . S
Co98 O100 2.091 . S
Co98 O102 2.004 1_455 S
Co98 O108 2.021 . S
Co98 O110 2.137 . S
Co98 O111 2.244 1_455 S
O99 Co98 2.216 . S
O99 C106 1.247 . S
O100 Co98 2.091 . S
O100 C106 1.261 . S
C101 O110 1.247 . S
C101 O111 1.272 1_455 S
O102 Co98 2.004 1_655 S
O102 C107 1.259 . S
Co103 O104 2.061 . S
Co103 O109 2.052 . S
Co103 O111 2.135 . S
O104 Co103 2.061 . S
O104 C107 1.235 . S
C105 O108 1.238 1_655 S
C105 O109 1.241 . S
C106 O99 1.247 . S
C106 O100 1.261 . S
C107 O102 1.259 . S
C107 O104 1.235 . S
O108 Co98 2.021 . S
O108 C105 1.238 1_455 S
O109 Co103 2.052 . S
O109 C105 1.241 . S
O110 Co98 2.137 . S
O110 C101 1.247 . S
O111 Co98 2.244 1_655 S
O111 C101 1.272 1_655 S
O111 Co103 2.135 . S
Co112 O113 2.216 . S
Co112 O114 2.091 . S
Co112 O116 2.004 1_545 S
Co112 O122 2.021 . S
Co112 O124 2.137 . S
Co112 O125 2.244 . S
O113 Co112 2.216 . S
O113 C120 1.247 . S
O114 Co112 2.091 . S
O114 C120 1.261 . S
C115 O124 1.247 . S
C115 O125 1.272 . S
O116 Co112 2.004 1_565 S
O116 C121 1.259 . S
Co117 O118 2.061 . S
Co117 O123 2.052 1_565 S
Co117 O125 2.135 1_565 S
O118 Co117 2.061 . S
O118 C121 1.235 . S
C119 O122 1.238 . S
C119 O123 1.241 . S
C120 O113 1.247 . S
C120 O114 1.261 . S
C121 O116 1.259 . S
C121 O118 1.235 . S
O122 Co112 2.021 . S
O122 C119 1.238 . S
O123 Co117 2.052 1_545 S
O123 C119 1.241 . S
O124 Co112 2.137 . S
O124 C115 1.247 . S
O125 Co112 2.244 . S
O125 C115 1.272 . S
O125 Co117 2.135 1_545 S
Co126 O127 2.216 . S
Co126 O128 2.091 . S
Co126 O130 2.004 . S
Co126 O136 2.021 . S
Co126 O138 2.137 . S
Co126 O139 2.244 . S
O127 Co126 2.216 . S
O127 C134 1.247 . S
O128 Co126 2.091 . S
O128 C134 1.261 . S
C129 O138 1.247 . S
C129 O139 1.272 . S
O130 Co126 2.004 . S
O130 C135 1.259 . S
Co131 O132 2.061 . S
Co131 O137 2.052 . S
Co131 O139 2.135 . S
O132 Co131 2.061 . S
O132 C135 1.235 . S
C133 O136 1.238 . S
C133 O137 1.241 . S
C134 O127 1.247 . S
C134 O128 1.261 . S
C135 O130 1.259 . S
C135 O132 1.235 . S
O136 Co126 2.021 . S
O136 C133 1.238 . S
O137 Co131 2.052 . S
O137 C133 1.241 . S
O138 Co126 2.137 . S
O138 C129 1.247 . S
O139 Co126 2.244 . S
O139 C129 1.272 . S
O139 Co131 2.135 . S
Co140 O141 2.216 . S
Co140 O142 2.091 . S
Co140 O144 2.004 1_565 S
Co140 O150 2.021 . S
Co140 O152 2.137 . S
Co140 O153 2.244 1_565 S
O141 Co140 2.216 . S
O141 C148 1.247 . S
O142 Co140 2.091 . S
O142 C148 1.261 . S
C143 O152 1.235 1_545 S
C143 O153 1.282 . S
O144 Co140 2.004 1_545 S
O144 C149 1.259 . S
Co145 O146 2.061 . S
Co145 O151 2.052 . S
Co145 O153 2.135 . S
O146 Co145 2.061 . S
O146 C149 1.235 . S
C147 O150 1.251 . S
C147 O151 1.223 1_565 S
C148 O141 1.247 . S
C148 O142 1.261 . S
C149 O144 1.259 . S
C149 O146 1.235 . S
O150 Co140 2.021 . S
O150 C147 1.251 . S
O151 Co145 2.052 . S
O151 C147 1.223 1_545 S
O152 Co140 2.137 . S
O152 C143 1.235 1_565 S
O153 Co140 2.244 1_545 S
O153 C143 1.282 . S
O153 Co145 2.135 . S
Co154 O155 2.216 . S
Co154 O156 2.091 . S
Co154 O158 2.004 . S
Co154 O164 2.021 . S
Co154 O166 2.137 1_554 S
Co154 O167 2.244 1_554 S
O155 Co154 2.216 . S
O155 C162 1.247 . S
O156 Co154 2.091 . S
O156 C162 1.261 . S
C157 O166 1.247 . S
C157 O167 1.272 . S
O158 Co154 2.004 . S
O158 C163 1.259 . S
Co159 O160 2.061 . S
Co159 O165 2.052 . S
Co159 O167 2.135 1_554 S
O160 Co159 2.061 . S
O160 C163 1.235 . S
C161 O164 1.238 . S
C161 O165 1.241 . S
C162 O155 1.247 . S
C162 O156 1.261 . S
C163 O158 1.259 . S
C163 O160 1.235 . S
O164 Co154 2.021 . S
O164 C161 1.238 . S
O165 Co159 2.052 . S
O165 C161 1.241 . S
O166 Co154 2.137 1_556 S
O166 C157 1.247 . S
O167 Co154 2.244 1_556 S
O167 C157 1.272 . S
O167 Co159 2.135 1_556 S
Co168 O169 2.216 . S
Co168 O170 2.091 . S
Co168 O172 2.004 . S
Co168 O178 2.021 . S
Co168 O180 2.137 1_554 S
Co168 O181 2.244 1_554 S
O169 Co168 2.216 . S
O169 C176 1.247 . S
O170 Co168 2.091 . S
O170 C176 1.261 . S
C171 O180 1.247 . S
C171 O181 1.272 . S
O172 Co168 2.004 . S
O172 C177 1.259 . S
Co173 O174 2.061 . S
Co173 O179 2.052 . S
Co173 O181 2.135 1_554 S
O174 Co173 2.061 . S
O174 C177 1.235 . S
C175 O178 1.238 . S
C175 O179 1.241 . S
C176 O169 1.247 . S
C176 O170 1.261 . S
C177 O172 1.259 . S
C177 O174 1.235 . S
O178 Co168 2.021 . S
O178 C175 1.238 . S
O179 Co173 2.052 . S
O179 C175 1.241 . S
O180 Co168 2.137 1_556 S
O180 C171 1.247 . S
O181 Co168 2.244 1_556 S
O181 C171 1.272 . S
O181 Co173 2.135 1_556 S
Co182 O183 2.217 . S
Co182 O184 2.091 . S
Co182 O186 2.004 . S
Co182 O192 2.021 1_556 S
Co182 O194 2.137 . S
Co182 O195 2.244 . S
O183 Co182 2.217 . S
O183 C190 1.243 . S
O184 Co182 2.091 . S
O184 C190 1.261 . S
C185 O194 1.247 . S
C185 O195 1.272 . S
O186 Co182 2.004 . S
O186 C191 1.259 . S
Co187 O188 2.060 . S
Co187 O193 2.052 . S
Co187 O195 2.135 1_554 S
O188 Co187 2.060 . S
O188 C191 1.234 1_554 S
C189 O192 1.238 . S
C189 O193 1.241 . S
C190 O183 1.243 . S
C190 O184 1.261 . S
C191 O186 1.259 . S
C191 O188 1.234 1_556 S
O192 Co182 2.021 1_554 S
O192 C189 1.238 . S
O193 Co187 2.052 . S
O193 C189 1.241 . S
O194 Co182 2.137 . S
O194 C185 1.247 . S
O195 Co182 2.244 . S
O195 C185 1.272 . S
O195 Co187 2.135 1_556 S
Co196 O197 2.216 . S
Co196 O198 2.091 . S
Co196 O200 2.004 . S
Co196 O206 2.021 . S
Co196 O208 2.137 . S
Co196 O209 2.244 . S
O197 Co196 2.216 . S
O197 C204 1.247 . S
O198 Co196 2.091 . S
O198 C204 1.261 . S
C199 O208 1.247 . S
C199 O209 1.272 . S
O200 Co196 2.004 . S
O200 C205 1.259 . S
Co201 O202 2.061 . S
Co201 O207 2.052 . S
Co201 O209 2.135 . S
O202 Co201 2.061 . S
O202 C205 1.235 . S
C203 O206 1.238 . S
C203 O207 1.241 . S
C204 O197 1.247 . S
C204 O198 1.261 . S
C205 O200 1.259 . S
C205 O202 1.235 . S
O206 Co196 2.021 . S
O206 C203 1.238 . S
O207 Co201 2.052 . S
O207 C203 1.241 . S
O208 Co196 2.137 . S
O208 C199 1.247 . S
O209 Co196 2.244 . S
O209 C199 1.272 . S
O209 Co201 2.135 . S
Co210 O211 2.216 . S
Co210 O212 2.091 . S
Co210 O214 2.004 . S
Co210 O220 2.021 . S
Co210 O222 2.137 . S
Co210 O223 2.244 . S
O211 Co210 2.216 . S
O211 C218 1.247 . S
O212 Co210 2.091 . S
O212 C218 1.261 . S
C213 O222 1.247 . S
C213 O223 1.272 . S
O214 Co210 2.004 . S
O214 C219 1.259 . S
Co215 O216 2.061 . S
Co215 O221 2.052 . S
Co215 O223 2.135 . S
O216 Co215 2.061 . S
O216 C219 1.235 . S
C217 O220 1.238 . S
C217 O221 1.241 . S
C218 O211 1.247 . S
C218 O212 1.261 . S
C219 O214 1.259 . S
C219 O216 1.235 . S
O220 Co210 2.021 . S
O220 C217 1.238 . S
O221 Co215 2.052 . S
O221 C217 1.241 . S
O222 Co210 2.137 . S
O222 C213 1.247 . S
O223 Co210 2.244 . S
O223 C213 1.272 . S
O223 Co215 2.135 . S
Co224 O225 2.216 . S
Co224 O226 2.091 . S
Co224 O228 2.004 . S
Co224 O234 2.021 . S
Co224 O236 2.137 . S
Co224 O237 2.244 . S
O225 Co224 2.216 . S
O225 C232 1.247 . S
O226 Co224 2.091 . S
O226 C232 1.261 . S
C227 O236 1.247 . S
C227 O237 1.272 . S
O228 Co224 2.004 . S
O228 C233 1.259 1_545 S
Co229 O230 2.061 1_545 S
Co229 O235 2.052 . S
Co229 O237 2.135 . S
O230 Co229 2.061 1_565 S
O230 C233 1.235 . S
C231 O234 1.238 . S
C231 O235 1.241 . S
C232 O225 1.247 . S
C232 O226 1.261 . S
C233 O228 1.259 1_565 S
C233 O230 1.235 . S
O234 Co224 2.021 . S
O234 C231 1.238 . S
O235 Co229 2.052 . S
O235 C231 1.241 . S
O236 Co224 2.137 . S
O236 C227 1.247 . S
O237 Co224 2.244 . S
O237 C227 1.272 . S
O237 Co229 2.135 . S
Co238 O239 2.216 . S
Co238 O240 2.091 . S
Co238 O242 2.004 . S
Co238 O248 2.021 . S
Co238 O250 2.137 . S
Co238 O251 2.244 . S
O239 Co238 2.216 . S
O239 C246 1.247 . S
O240 Co238 2.091 . S
O240 C246 1.261 . S
C241 O250 1.247 . S
C241 O251 1.272 . S
O242 Co238 2.004 . S
O242 C247 1.259 . S
Co243 O244 2.061 . S
Co243 O249 2.052 . S
Co243 O251 2.135 . S
O244 Co243 2.061 . S
O244 C247 1.235 . S
C245 O248 1.238 . S
C245 O249 1.241 . S
C246 O239 1.247 . S
C246 O240 1.261 . S
C247 O242 1.259 . S
C247 O244 1.235 . S
O248 Co238 2.021 . S
O248 C245 1.238 . S
O249 Co243 2.052 . S
O249 C245 1.241 . S
O250 Co238 2.137 . S
O250 C241 1.247 . S
O251 Co238 2.244 . S
O251 C241 1.272 . S
O251 Co243 2.135 . S
Co252 O253 2.216 . S
Co252 O254 2.091 . S
Co252 O256 2.004 . S
Co252 O262 2.021 . S
Co252 O264 2.137 . S
Co252 O265 2.244 . S
O253 Co252 2.216 . S
O253 C260 1.247 . S
O254 Co252 2.091 . S
O254 C260 1.261 . S
C255 O264 1.247 . S
C255 O265 1.272 . S
O256 Co252 2.004 . S
O256 C261 1.259 . S
Co257 O258 2.061 . S
Co257 O263 2.052 . S
Co257 O265 2.135 . S
O258 Co257 2.061 . S
O258 C261 1.235 . S
C259 O262 1.238 . S
C259 O263 1.241 . S
C260 O253 1.247 . S
C260 O254 1.261 . S
C261 O256 1.259 . S
C261 O258 1.235 . S
O262 Co252 2.021 . S
O262 C259 1.238 . S
O263 Co257 2.052 . S
O263 C259 1.241 . S
O264 Co252 2.137 . S
O264 C255 1.247 . S
O265 Co252 2.244 . S
O265 C255 1.272 . S
O265 Co257 2.135 . S
Co266 O267 2.216 1_545 S
Co266 O268 2.092 . S
Co266 O270 2.004 . S
Co266 O276 2.021 . S
Co266 O278 2.137 . S
Co266 O279 2.244 . S
O267 Co266 2.216 1_565 S
O267 C274 1.247 . S
O268 Co266 2.092 . S
O268 C274 1.260 1_545 S
C269 O278 1.247 . S
C269 O279 1.272 . S
O270 Co266 2.004 . S
O270 C275 1.259 . S
Co271 O272 2.061 . S
Co271 O277 2.052 . S
Co271 O279 2.135 . S
O272 Co271 2.061 . S
O272 C275 1.235 . S
C273 O276 1.238 . S
C273 O277 1.241 . S
C274 O267 1.247 . S
C274 O268 1.260 1_565 S
C275 O270 1.259 . S
C275 O272 1.235 . S
O276 Co266 2.021 . S
O276 C273 1.238 . S
O277 Co271 2.052 . S
O277 C273 1.241 . S
O278 Co266 2.137 . S
O278 C269 1.247 . S
O279 Co266 2.244 . S
O279 C269 1.272 . S
O279 Co271 2.135 . S
Co280 O281 2.216 . S
Co280 O282 2.091 . S
Co280 O284 2.004 . S
Co280 O290 2.021 . S
Co280 O292 2.137 1_554 S
Co280 O293 2.244 1_554 S
O281 Co280 2.216 . S
O281 C288 1.247 . S
O282 Co280 2.091 . S
O282 C288 1.261 . S
C283 O292 1.247 . S
C283 O293 1.272 . S
O284 Co280 2.004 . S
O284 C289 1.261 . S
Co285 O286 2.061 . S
Co285 O291 2.052 . S
Co285 O293 2.135 1_554 S
O286 Co285 2.061 . S
O286 C289 1.235 . S
C287 O290 1.238 . S
C287 O291 1.241 . S
C288 O281 1.247 . S
C288 O282 1.261 . S
C289 O284 1.261 . S
C289 O286 1.235 . S
O290 Co280 2.021 . S
O290 C287 1.238 . S
O291 Co285 2.052 . S
O291 C287 1.241 . S
O292 Co280 2.137 1_556 S
O292 C283 1.247 . S
O293 Co280 2.244 1_556 S
O293 C283 1.272 . S
O293 Co285 2.135 1_556 S
Co294 O295 2.216 . S
Co294 O296 2.091 . S
Co294 O298 2.004 . S
Co294 O304 2.021 . S
Co294 O306 2.137 . S
Co294 O307 2.244 . S
O295 Co294 2.216 . S
O295 C302 1.247 . S
O296 Co294 2.091 . S
O296 C302 1.261 . S
C297 O306 1.247 . S
C297 O307 1.272 . S
O298 Co294 2.004 . S
O298 C303 1.259 . S
Co299 O300 2.061 . S
Co299 O305 2.052 . S
Co299 O307 2.135 . S
O300 Co299 2.061 . S
O300 C303 1.235 . S
C301 O304 1.238 . S
C301 O305 1.241 . S
C302 O295 1.247 . S
C302 O296 1.261 . S
C303 O298 1.259 . S
C303 O300 1.235 . S
O304 Co294 2.021 . S
O304 C301 1.238 . S
O305 Co299 2.052 . S
O305 C301 1.241 . S
O306 Co294 2.137 . S
O306 C297 1.247 . S
O307 Co294 2.244 . S
O307 C297 1.272 . S
O307 Co299 2.135 . S
Co308 O309 2.216 . S
Co308 O310 2.091 . S
Co308 O312 2.004 . S
Co308 O318 2.021 . S
Co308 O320 2.137 . S
Co308 O321 2.244 . S
O309 Co308 2.216 . S
O309 C316 1.247 . S
O310 Co308 2.091 . S
O310 C316 1.261 . S
C311 O320 1.247 . S
C311 O321 1.272 . S
O312 Co308 2.004 . S
O312 C317 1.259 . S
Co313 O314 2.061 . S
Co313 O319 2.052 . S
Co313 O321 2.135 . S
O314 Co313 2.061 . S
O314 C317 1.235 . S
C315 O318 1.238 . S
C315 O319 1.241 . S
C316 O309 1.247 . S
C316 O310 1.261 . S
C317 O312 1.259 . S
C317 O314 1.235 . S
O318 Co308 2.021 . S
O318 C315 1.238 . S
O319 Co313 2.052 . S
O319 C315 1.241 . S
O320 Co308 2.137 . S
O320 C311 1.247 . S
O321 Co308 2.244 . S
O321 C311 1.272 . S
O321 Co313 2.135 . S
Co322 O323 2.216 . S
Co322 O324 2.091 . S
Co322 O326 2.004 . S
Co322 O332 2.021 . S
Co322 O334 2.137 . S
Co322 O335 2.244 . S
O323 Co322 2.216 . S
O323 C330 1.247 . S
O324 Co322 2.091 . S
O324 C330 1.261 . S
C325 O334 1.247 . S
C325 O335 1.272 . S
O326 Co322 2.004 . S
O326 C331 1.259 . S
Co327 O328 2.061 . S
Co327 O333 2.052 . S
Co327 O335 2.135 . S
O328 Co327 2.061 . S
O328 C331 1.235 . S
C329 O332 1.238 . S
C329 O333 1.241 . S
C330 O323 1.247 . S
C330 O324 1.261 . S
C331 O326 1.259 . S
C331 O328 1.235 . S
O332 Co322 2.021 . S
O332 C329 1.238 . S
O333 Co327 2.052 . S
O333 C329 1.241 . S
O334 Co322 2.137 . S
O334 C325 1.247 . S
O335 Co322 2.244 . S
O335 C325 1.272 . S
O335 Co327 2.135 . S
Dy336 O340 2.398 . S
Dy336 O341 2.491 1_556 S
Dy336 O342 2.403 . S
Dy336 O343 2.664 1_655 S
Dy336 O347 2.326 . S
Dy336 O351 2.310 1_656 S
Dy336 O352 2.351 1_546 S
C337 O348 1.185 . S
C337 O349 1.355 . S
C338 O340 1.185 . S
C338 O341 1.355 1_556 S
Dy339 O343 2.310 1_554 S
Dy339 O346 2.351 . S
Dy339 O348 2.398 . S
Dy339 O349 2.491 . S
Dy339 O350 2.403 . S
Dy339 O351 2.664 . S
Dy339 O353 2.326 1_545 S
O340 Dy336 2.398 . S
O340 C338 1.185 . S
O341 Dy336 2.491 1_554 S
O341 C338 1.355 1_554 S
O342 Dy336 2.403 . S
O342 C344 1.254 1_655 S
O343 Dy336 2.664 1_455 S
O343 Dy339 2.310 1_556 S
O343 C344 1.268 . S
C344 O342 1.254 1_455 S
C344 O343 1.268 . S
C345 O350 1.254 . S
C345 O351 1.268 . S
O346 Dy339 2.351 . S
O346 C354 1.263 . S
O347 Dy336 2.326 . S
O347 C354 1.256 1_656 S
O348 C337 1.185 . S
O348 Dy339 2.398 . S
O349 C337 1.355 . S
O349 Dy339 2.491 . S
O350 Dy339 2.403 . S
O350 C345 1.254 . S
O351 Dy336 2.310 1_454 S
O351 Dy339 2.664 . S
O351 C345 1.268 . S
O352 Dy336 2.351 1_564 S
O352 C355 1.249 1_655 S
O353 Dy339 2.326 1_565 S
O353 C355 1.267 . S
C354 O346 1.263 . S
C354 O347 1.256 1_454 S
C355 O352 1.249 1_455 S
C355 O353 1.267 . S
Dy356 O360 2.398 . S
Dy356 O361 2.491 . S
Dy356 O362 2.403 . S
Dy356 O363 2.664 . S
Dy356 O367 2.326 . S
Dy356 O371 2.310 . S
Dy356 O372 2.351 . S
C357 O368 1.185 . S
C357 O369 1.355 . S
C358 O360 1.185 . S
C358 O361 1.355 . S
Dy359 O363 2.310 . S
Dy359 O366 2.351 . S
Dy359 O368 2.398 . S
Dy359 O369 2.491 . S
Dy359 O370 2.403 . S
Dy359 O371 2.664 . S
Dy359 O373 2.326 . S
O360 Dy356 2.398 . S
O360 C358 1.185 . S
O361 Dy356 2.491 . S
O361 C358 1.355 . S
O362 Dy356 2.403 . S
O362 C364 1.254 . S
O363 Dy356 2.664 . S
O363 Dy359 2.310 . S
O363 C364 1.268 . S
C364 O362 1.254 . S
C364 O363 1.268 . S
C365 O370 1.254 . S
C365 O371 1.268 . S
O366 Dy359 2.351 . S
O366 C374 1.249 . S
O367 Dy356 2.326 . S
O367 C374 1.267 . S
O368 C357 1.185 . S
O368 Dy359 2.398 . S
O369 C357 1.355 . S
O369 Dy359 2.491 . S
O370 Dy359 2.403 . S
O370 C365 1.254 . S
O371 Dy356 2.310 . S
O371 Dy359 2.664 . S
O371 C365 1.268 . S
O372 Dy356 2.351 . S
O372 C375 1.249 . S
O373 Dy359 2.326 . S
O373 C375 1.267 . S
C374 O366 1.249 . S
C374 O367 1.267 . S
C375 O372 1.249 . S
C375 O373 1.267 . S
Dy376 O380 2.398 . S
Dy376 O381 2.491 1_545 S
Dy376 O382 2.403 . S
Dy376 O383 2.664 . S
Dy376 O387 2.326 1_545 S
Dy376 O391 2.310 . S
Dy376 O392 2.351 . S
C377 O388 1.185 . S
C377 O389 1.355 . S
C378 O380 1.185 1_565 S
C378 O381 1.355 . S
Dy379 O383 2.310 . S
Dy379 O386 2.351 1_545 S
Dy379 O388 2.398 . S
Dy379 O389 2.491 . S
Dy379 O390 2.403 . S
Dy379 O391 2.664 . S
Dy379 O393 2.326 . S
O380 Dy376 2.398 . S
O380 C378 1.185 1_545 S
O381 Dy376 2.491 1_565 S
O381 C378 1.355 . S
O382 Dy376 2.403 . S
O382 C384 1.254 . S
O383 Dy376 2.664 . S
O383 Dy379 2.310 . S
O383 C384 1.268 . S
C384 O382 1.254 . S
C384 O383 1.268 . S
C385 O390 1.254 . S
C385 O391 1.268 . S
O386 Dy379 2.351 1_565 S
O386 C394 1.249 . S
O387 Dy376 2.326 1_565 S
O387 C394 1.267 . S
O388 C377 1.185 . S
O388 Dy379 2.398 . S
O389 C377 1.355 . S
O389 Dy379 2.491 . S
O390 Dy379 2.403 . S
O390 C385 1.254 . S
O391 Dy376 2.310 . S
O391 Dy379 2.664 . S
O391 C385 1.268 . S
O392 Dy376 2.351 . S
O392 C395 1.249 . S
O393 Dy379 2.326 . S
O393 C395 1.267 . S
C394 O386 1.249 . S
C394 O387 1.267 . S
C395 O392 1.249 . S
C395 O393 1.267 . S
Dy396 O400 2.398 . S
Dy396 O401 2.491 . S
Dy396 O402 2.403 . S
Dy396 O403 2.664 . S
Dy396 O407 2.326 . S
Dy396 O411 2.310 . S
Dy396 O412 2.351 . S
C397 O408 1.185 . S
C397 O409 1.355 . S
C398 O400 1.185 . S
C398 O401 1.355 . S
Dy399 O403 2.310 . S
Dy399 O406 2.351 . S
Dy399 O408 2.398 . S
Dy399 O409 2.491 . S
Dy399 O410 2.403 . S
Dy399 O411 2.664 . S
Dy399 O413 2.326 . S
O400 Dy396 2.398 . S
O400 C398 1.185 . S
O401 Dy396 2.491 . S
O401 C398 1.355 . S
O402 Dy396 2.403 . S
O402 C404 1.254 . S
O403 Dy396 2.664 . S
O403 Dy399 2.310 . S
O403 C404 1.268 . S
C404 O402 1.254 . S
C404 O403 1.268 . S
C405 O410 1.254 . S
C405 O411 1.268 . S
O406 Dy399 2.351 . S
O406 C414 1.249 . S
O407 Dy396 2.326 . S
O407 C414 1.267 . S
O408 C397 1.185 . S
O408 Dy399 2.398 . S
O409 C397 1.355 . S
O409 Dy399 2.491 . S
O410 Dy399 2.403 . S
O410 C405 1.254 . S
O411 Dy396 2.310 . S
O411 Dy399 2.664 . S
O411 C405 1.268 . S
O412 Dy396 2.351 . S
O412 C415 1.249 . S
O413 Dy399 2.326 . S
O413 C415 1.267 . S
C414 O406 1.249 . S
C414 O407 1.267 . S
C415 O412 1.249 . S
C415 O413 1.267 . S
Dy416 O420 2.398 . S
Dy416 O421 2.491 1_455 S
Dy416 O422 2.403 . S
Dy416 O423 2.664 . S
Dy416 O427 2.326 . S
Dy416 O431 2.310 1_455 S
Dy416 O432 2.351 1_545 S
C417 O428 1.185 . S
C417 O429 1.355 . S
C418 O420 1.185 1_655 S
C418 O421 1.355 . S
Dy419 O423 2.310 . S
Dy419 O426 2.351 . S
Dy419 O428 2.398 . S
Dy419 O429 2.491 . S
Dy419 O430 2.403 1_455 S
Dy419 O431 2.664 1_455 S
Dy419 O433 2.326 1_545 S
O420 Dy416 2.398 . S
O420 C418 1.185 1_455 S
O421 Dy416 2.491 1_655 S
O421 C418 1.355 . S
O422 Dy416 2.403 . S
O422 C424 1.254 . S
O423 Dy416 2.664 . S
O423 Dy419 2.310 . S
O423 C424 1.268 . S
C424 O422 1.254 . S
C424 O423 1.268 . S
C425 O430 1.254 . S
C425 O431 1.268 . S
O426 Dy419 2.351 . S
O426 C434 1.249 . S
O427 Dy416 2.326 . S
O427 C434 1.267 . S
O428 C417 1.185 . S
O428 Dy419 2.398 . S
O429 C417 1.355 . S
O429 Dy419 2.491 . S
O430 Dy419 2.403 1_655 S
O430 C425 1.254 . S
O431 Dy416 2.310 1_655 S
O431 Dy419 2.664 1_655 S
O431 C425 1.268 . S
O432 Dy416 2.351 1_565 S
O432 C435 1.249 . S
O433 Dy419 2.326 1_565 S
O433 C435 1.267 . S
C434 O426 1.249 . S
C434 O427 1.267 . S
C435 O432 1.249 . S
C435 O433 1.267 . S
Dy436 O440 2.398 . S
Dy436 O441 2.491 . S
Dy436 O442 2.403 . S
Dy436 O443 2.664 . S
Dy436 O447 2.326 . S
Dy436 O451 2.310 . S
Dy436 O452 2.351 . S
C437 O448 1.185 . S
C437 O449 1.355 . S
C438 O440 1.185 . S
C438 O441 1.355 . S
Dy439 O443 2.310 . S
Dy439 O446 2.351 . S
Dy439 O448 2.398 . S
Dy439 O449 2.491 . S
Dy439 O450 2.403 . S
Dy439 O451 2.664 . S
Dy439 O453 2.326 . S
O440 Dy436 2.398 . S
O440 C438 1.185 . S
O441 Dy436 2.491 . S
O441 C438 1.355 . S
O442 Dy436 2.403 . S
O442 C444 1.254 . S
O443 Dy436 2.664 . S
O443 Dy439 2.310 . S
O443 C444 1.268 . S
C444 O442 1.254 . S
C444 O443 1.268 . S
C445 O450 1.254 . S
C445 O451 1.268 . S
O446 Dy439 2.351 . S
O446 C454 1.249 . S
O447 Dy436 2.326 . S
O447 C454 1.267 . S
O448 C437 1.185 . S
O448 Dy439 2.398 . S
O449 C437 1.355 . S
O449 Dy439 2.491 . S
O450 Dy439 2.403 . S
O450 C445 1.254 . S
O451 Dy436 2.310 . S
O451 Dy439 2.664 . S
O451 C445 1.268 . S
O452 Dy436 2.351 . S
O452 C455 1.249 . S
O453 Dy439 2.326 . S
O453 C455 1.267 . S
C454 O446 1.249 . S
C454 O447 1.267 . S
C455 O452 1.249 . S
C455 O453 1.267 . S
Dy456 O460 2.398 1_545 S
Dy456 O461 2.491 . S
Dy456 O462 2.403 1_545 S
Dy456 O463 2.668 1_554 S
Dy456 O467 2.326 . S
Dy456 O471 2.310 . S
Dy456 O472 2.351 . S
C457 O468 1.185 . S
C457 O469 1.355 . S
C458 O460 1.185 1_545 S
C458 O461 1.355 . S
Dy459 O463 2.323 . S
Dy459 O466 2.351 . S
Dy459 O468 2.398 . S
Dy459 O469 2.491 . S
Dy459 O470 2.403 . S
Dy459 O471 2.664 1_556 S
Dy459 O473 2.326 . S
O460 Dy456 2.398 1_565 S
O460 C458 1.185 1_565 S
O461 Dy456 2.491 . S
O461 C458 1.355 . S
O462 Dy456 2.403 1_565 S
O462 C464 1.254 . S
O463 Dy456 2.668 1_556 S
O463 Dy459 2.323 . S
O463 C464 1.252 1_546 S
C464 O462 1.254 . S
C464 O463 1.252 1_564 S
C465 O470 1.254 1_554 S
C465 O471 1.268 . S
O466 Dy459 2.351 . S
O466 C474 1.249 1_556 S
O467 Dy456 2.326 . S
O467 C474 1.267 . S
O468 C457 1.185 . S
O468 Dy459 2.398 . S
O469 C457 1.355 . S
O469 Dy459 2.491 . S
O470 Dy459 2.403 . S
O470 C465 1.254 1_556 S
O471 Dy456 2.310 . S
O471 Dy459 2.664 1_554 S
O471 C465 1.268 . S
O472 Dy456 2.351 . S
O472 C475 1.249 . S
O473 Dy459 2.326 . S
O473 C475 1.267 1_556 S
C474 O466 1.249 1_554 S
C474 O467 1.267 . S
C475 O472 1.249 . S
C475 O473 1.267 1_554 S
Dy476 O480 2.398 . S
Dy476 O481 2.491 . S
Dy476 O482 2.403 . S
Dy476 O483 2.664 . S
Dy476 O487 2.326 . S
Dy476 O491 2.310 . S
Dy476 O492 2.351 . S
C477 O488 1.185 . S
C477 O489 1.355 . S
C478 O480 1.185 . S
C478 O481 1.355 . S
Dy479 O483 2.310 . S
Dy479 O486 2.351 . S
Dy479 O488 2.398 . S
Dy479 O489 2.491 . S
Dy479 O490 2.403 . S
Dy479 O491 2.664 . S
Dy479 O493 2.326 . S
O480 Dy476 2.398 . S
O480 C478 1.185 . S
O481 Dy476 2.491 . S
O481 C478 1.355 . S
O482 Dy476 2.403 . S
O482 C484 1.254 . S
O483 Dy476 2.664 . S
O483 Dy479 2.310 . S
O483 C484 1.268 . S
C484 O482 1.254 . S
C484 O483 1.268 . S
C485 O490 1.254 . S
C485 O491 1.268 . S
O486 Dy479 2.351 . S
O486 C494 1.249 . S
O487 Dy476 2.326 . S
O487 C494 1.267 . S
O488 C477 1.185 . S
O488 Dy479 2.398 . S
O489 C477 1.355 . S
O489 Dy479 2.491 . S
O490 Dy479 2.403 . S
O490 C485 1.254 . S
O491 Dy476 2.310 . S
O491 Dy479 2.664 . S
O491 C485 1.268 . S
O492 Dy476 2.351 . S
O492 C495 1.249 . S
O493 Dy479 2.326 . S
O493 C495 1.267 . S
C494 O486 1.249 . S
C494 O487 1.267 . S
C495 O492 1.249 . S
C495 O493 1.267 . S
Dy496 O500 2.398 . S
Dy496 O501 2.491 . S
Dy496 O502 2.403 . S
Dy496 O503 2.664 1_556 S
Dy496 O507 2.326 . S
Dy496 O511 2.310 1_556 S
Dy496 O512 2.327 1_556 S
C497 O508 1.185 . S
C497 O509 1.355 . S
C498 O500 1.185 . S
C498 O501 1.355 . S
Dy499 O503 2.310 . S
Dy499 O506 2.351 . S
Dy499 O508 2.398 . S
Dy499 O509 2.491 . S
Dy499 O510 2.403 . S
Dy499 O511 2.664 . S
Dy499 O513 2.326 . S
O500 Dy496 2.398 . S
O500 C498 1.185 . S
O501 Dy496 2.491 . S
O501 C498 1.355 . S
O502 Dy496 2.403 . S
O502 C504 1.254 . S
O503 Dy496 2.664 1_554 S
O503 Dy499 2.310 . S
O503 C504 1.268 1_554 S
C504 O502 1.254 . S
C504 O503 1.268 1_556 S
C505 O510 1.254 . S
C505 O511 1.268 . S
O506 Dy499 2.351 . S
O506 C514 1.249 1_554 S
O507 Dy496 2.326 . S
O507 C514 1.267 . S
O508 C497 1.185 . S
O508 Dy499 2.398 . S
O509 C497 1.355 . S
O509 Dy499 2.491 . S
O510 Dy499 2.403 . S
O510 C505 1.254 . S
O511 Dy496 2.310 1_554 S
O511 Dy499 2.664 . S
O511 C505 1.268 . S
O512 Dy496 2.327 1_554 S
O512 C515 1.284 . S
O513 Dy499 2.326 . S
O513 C515 1.267 . S
C514 O506 1.249 1_556 S
C514 O507 1.267 . S
C515 O512 1.284 . S
C515 O513 1.267 . S
Dy516 O520 2.398 . S
Dy516 O521 2.491 . S
Dy516 O522 2.403 . S
Dy516 O523 2.664 . S
Dy516 O527 2.326 . S
Dy516 O531 2.310 . S
Dy516 O532 2.351 . S
C517 O528 1.185 . S
C517 O529 1.355 . S
C518 O520 1.185 . S
C518 O521 1.355 . S
Dy519 O523 2.310 . S
Dy519 O526 2.351 . S
Dy519 O528 2.398 . S
Dy519 O529 2.491 . S
Dy519 O530 2.403 . S
Dy519 O531 2.664 . S
Dy519 O533 2.326 . S
O520 Dy516 2.398 . S
O520 C518 1.185 . S
O521 Dy516 2.491 . S
O521 C518 1.355 . S
O522 Dy516 2.403 . S
O522 C524 1.254 . S
O523 Dy516 2.664 . S
O523 Dy519 2.310 . S
O523 C524 1.268 . S
C524 O522 1.254 . S
C524 O523 1.268 . S
C525 O530 1.254 . S
C525 O531 1.268 . S
O526 Dy519 2.351 . S
O526 C534 1.249 . S
O527 Dy516 2.326 . S
O527 C534 1.267 . S
O528 C517 1.185 . S
O528 Dy519 2.398 . S
O529 C517 1.355 . S
O529 Dy519 2.491 . S
O530 Dy519 2.403 . S
O530 C525 1.254 . S
O531 Dy516 2.310 . S
O531 Dy519 2.664 . S
O531 C525 1.268 . S
O532 Dy516 2.351 . S
O532 C535 1.249 . S
O533 Dy519 2.326 . S
O533 C535 1.267 . S
C534 O526 1.249 . S
C534 O527 1.267 . S
C535 O532 1.249 . S
C535 O533 1.267 . S
Dy536 O540 2.398 1_455 S
Dy536 O541 2.491 1_455 S
Dy536 O542 2.403 . S
Dy536 O543 2.664 . S
Dy536 O547 2.326 1_455 S
Dy536 O551 2.310 . S
Dy536 O552 2.351 . S
C537 O548 1.185 . S
C537 O549 1.355 . S
C538 O540 1.185 . S
C538 O541 1.355 . S
Dy539 O543 2.310 . S
Dy539 O546 2.351 1_455 S
Dy539 O548 2.398 . S
Dy539 O549 2.491 . S
Dy539 O550 2.403 . S
Dy539 O551 2.664 . S
Dy539 O553 2.326 . S
O540 Dy536 2.398 1_655 S
O540 C538 1.185 . S
O541 Dy536 2.491 1_655 S
O541 C538 1.355 . S
O542 Dy536 2.403 . S
O542 C544 1.254 . S
O543 Dy536 2.664 . S
O543 Dy539 2.310 . S
O543 C544 1.268 . S
C544 O542 1.254 . S
C544 O543 1.268 . S
C545 O550 1.254 . S
C545 O551 1.268 . S
O546 Dy539 2.351 1_655 S
O546 C554 1.249 . S
O547 Dy536 2.326 1_655 S
O547 C554 1.267 . S
O548 C537 1.185 . S
O548 Dy539 2.398 . S
O549 C537 1.355 . S
O549 Dy539 2.491 . S
O550 Dy539 2.403 . S
O550 C545 1.254 . S
O551 Dy536 2.310 . S
O551 Dy539 2.664 . S
O551 C545 1.268 . S
O552 Dy536 2.351 . S
O552 C555 1.249 . S
O553 Dy539 2.326 . S
O553 C555 1.267 . S
C554 O546 1.249 . S
C554 O547 1.267 . S
C555 O552 1.249 . S
C555 O553 1.267 . S
Dy556 O560 2.398 . S
Dy556 O561 2.491 . S
Dy556 O562 2.403 . S
Dy556 O563 2.664 . S
Dy556 O567 2.326 . S
Dy556 O571 2.310 . S
Dy556 O572 2.351 . S
C557 O568 1.185 . S
C557 O569 1.355 . S
C558 O560 1.185 . S
C558 O561 1.355 . S
Dy559 O563 2.310 . S
Dy559 O566 2.351 . S
Dy559 O568 2.398 . S
Dy559 O569 2.491 . S
Dy559 O570 2.403 . S
Dy559 O571 2.664 . S
Dy559 O573 2.326 . S
O560 Dy556 2.398 . S
O560 C558 1.185 . S
O561 Dy556 2.491 . S
O561 C558 1.355 . S
O562 Dy556 2.403 . S
O562 C564 1.254 . S
O563 Dy556 2.664 . S
O563 Dy559 2.310 . S
O563 C564 1.268 . S
C564 O562 1.254 . S
C564 O563 1.268 . S
C565 O570 1.254 . S
C565 O571 1.268 . S
O566 Dy559 2.351 . S
O566 C574 1.249 . S
O567 Dy556 2.326 . S
O567 C574 1.267 . S
O568 C557 1.185 . S
O568 Dy559 2.398 . S
O569 C557 1.355 . S
O569 Dy559 2.491 . S
O570 Dy559 2.403 . S
O570 C565 1.254 . S
O571 Dy556 2.310 . S
O571 Dy559 2.664 . S
O571 C565 1.268 . S
O572 Dy556 2.351 . S
O572 C575 1.249 . S
O573 Dy559 2.326 . S
O573 C575 1.267 . S
C574 O566 1.249 . S
C574 O567 1.267 . S
C575 O572 1.249 . S
C575 O573 1.267 . S
Dy576 O580 2.398 . S
Dy576 O581 2.491 . S
Dy576 O582 2.403 . S
Dy576 O583 2.664 . S
Dy576 O587 2.326 . S
Dy576 O591 2.310 . S
Dy576 O592 2.351 . S
C577 O588 1.185 . S
C577 O589 1.355 . S
C578 O580 1.185 . S
C578 O581 1.355 . S
Dy579 O583 2.310 . S
Dy579 O586 2.351 . S
Dy579 O588 2.398 . S
Dy579 O589 2.491 . S
Dy579 O590 2.403 . S
Dy579 O591 2.664 . S
Dy579 O593 2.326 . S
O580 Dy576 2.398 . S
O580 C578 1.185 . S
O581 Dy576 2.491 . S
O581 C578 1.355 . S
O582 Dy576 2.403 . S
O582 C584 1.254 . S
O583 Dy576 2.664 . S
O583 Dy579 2.310 . S
O583 C584 1.268 . S
C584 O582 1.254 . S
C584 O583 1.268 . S
C585 O590 1.254 . S
C585 O591 1.268 . S
O586 Dy579 2.351 . S
O586 C594 1.249 . S
O587 Dy576 2.326 . S
O587 C594 1.267 . S
O588 C577 1.185 . S
O588 Dy579 2.398 . S
O589 C577 1.355 . S
O589 Dy579 2.491 . S
O590 Dy579 2.403 . S
O590 C585 1.254 . S
O591 Dy576 2.310 . S
O591 Dy579 2.664 . S
O591 C585 1.268 . S
O592 Dy576 2.351 . S
O592 C595 1.249 . S
O593 Dy579 2.326 . S
O593 C595 1.267 . S
C594 O586 1.249 . S
C594 O587 1.267 . S
C595 O592 1.249 . S
C595 O593 1.267 . S
Dy596 O600 2.398 . S
Dy596 O601 2.491 . S
Dy596 O602 2.403 . S
Dy596 O603 2.664 . S
Dy596 O607 2.326 . S
Dy596 O611 2.310 . S
Dy596 O612 2.351 . S
C597 O608 1.185 . S
C597 O609 1.355 . S
C598 O600 1.185 . S
C598 O601 1.355 . S
Dy599 O603 2.310 . S
Dy599 O606 2.351 . S
Dy599 O608 2.398 . S
Dy599 O609 2.491 . S
Dy599 O610 2.403 . S
Dy599 O611 2.664 . S
Dy599 O613 2.326 . S
O600 Dy596 2.398 . S
O600 C598 1.185 . S
O601 Dy596 2.491 . S
O601 C598 1.355 . S
O602 Dy596 2.403 . S
O602 C604 1.254 . S
O603 Dy596 2.664 . S
O603 Dy599 2.310 . S
O603 C604 1.268 . S
C604 O602 1.254 . S
C604 O603 1.268 . S
C605 O610 1.254 . S
C605 O611 1.268 . S
O606 Dy599 2.351 . S
O606 C614 1.249 . S
O607 Dy596 2.326 . S
O607 C614 1.267 . S
O608 C597 1.185 . S
O608 Dy599 2.398 . S
O609 C597 1.355 . S
O609 Dy599 2.491 . S
O610 Dy599 2.403 . S
O610 C605 1.254 . S
O611 Dy596 2.310 . S
O611 Dy599 2.664 . S
O611 C605 1.268 . S
O612 Dy596 2.351 . S
O612 C615 1.249 . S
O613 Dy599 2.326 . S
O613 C615 1.267 . S
C614 O606 1.249 . S
C614 O607 1.267 . S
C615 O612 1.249 . S
C615 O613 1.267 . S
Dy616 O620 2.398 . S
Dy616 O621 2.491 . S
Dy616 O622 2.403 . S
Dy616 O623 2.664 . S
Dy616 O627 2.326 . S
Dy616 O631 2.310 . S
Dy616 O632 2.351 . S
C617 O628 1.185 . S
C617 O629 1.355 . S
C618 O620 1.185 . S
C618 O621 1.355 . S
Dy619 O623 2.310 . S
Dy619 O626 2.351 . S
Dy619 O628 2.398 . S
Dy619 O629 2.491 . S
Dy619 O630 2.403 . S
Dy619 O631 2.664 . S
Dy619 O633 2.326 . S
O620 Dy616 2.398 . S
O620 C618 1.185 . S
O621 Dy616 2.491 . S
O621 C618 1.355 . S
O622 Dy616 2.403 . S
O622 C624 1.254 . S
O623 Dy616 2.664 . S
O623 Dy619 2.310 . S
O623 C624 1.268 . S
C624 O622 1.254 . S
C624 O623 1.268 . S
C625 O630 1.254 . S
C625 O631 1.268 . S
O626 Dy619 2.351 . S
O626 C634 1.249 . S
O627 Dy616 2.326 . S
O627 C634 1.267 . S
O628 C617 1.185 . S
O628 Dy619 2.398 . S
O629 C617 1.355 . S
O629 Dy619 2.491 . S
O630 Dy619 2.403 . S
O630 C625 1.254 . S
O631 Dy616 2.310 . S
O631 Dy619 2.664 . S
O631 C625 1.268 . S
O632 Dy616 2.351 . S
O632 C635 1.249 . S
O633 Dy619 2.326 . S
O633 C635 1.267 . S
C634 O626 1.249 . S
C634 O627 1.267 . S
C635 O632 1.249 . S
C635 O633 1.267 . S
Dy636 O640 2.398 1_554 S
Dy636 O641 2.491 . S
Dy636 O642 2.403 1_554 S
Dy636 O643 2.676 1_554 S
Dy636 O647 2.326 1_554 S
Dy636 O651 2.310 . S
Dy636 O652 2.351 . S
C637 O648 1.185 . S
C637 O649 1.355 . S
C638 O640 1.185 . S
C638 O641 1.355 1_556 S
Dy639 O643 2.303 1_654 S
Dy639 O646 2.351 . S
Dy639 O648 2.398 . S
Dy639 O649 2.491 . S
Dy639 O650 2.403 . S
Dy639 O651 2.664 1_655 S
Dy639 O653 2.330 . S
O640 Dy636 2.398 1_556 S
O640 C638 1.185 . S
O641 Dy636 2.491 . S
O641 C638 1.355 1_554 S
O642 Dy636 2.403 1_556 S
O642 C644 1.254 . S
O643 Dy636 2.676 1_556 S
O643 Dy639 2.303 1_456 S
O643 C644 1.272 . S
C644 O642 1.254 . S
C644 O643 1.272 . S
C645 O650 1.254 1_455 S
C645 O651 1.268 . S
O646 Dy639 2.351 . S
O646 C654 1.249 1_654 S
O647 Dy636 2.326 1_556 S
O647 C654 1.267 . S
O648 C637 1.185 . S
O648 Dy639 2.398 . S
O649 C637 1.355 . S
O649 Dy639 2.491 . S
O650 Dy639 2.403 . S
O650 C645 1.254 1_655 S
O651 Dy636 2.310 . S
O651 Dy639 2.664 1_455 S
O651 C645 1.268 . S
O652 Dy636 2.351 . S
O652 C655 1.249 . S
O653 Dy639 2.330 . S
O653 C655 1.260 1_655 S
C654 O646 1.249 1_456 S
C654 O647 1.267 . S
C655 O652 1.249 . S
C655 O653 1.260 1_455 S
C656 C657 1.391 1_455 S
C656 C658 1.394 . S
C656 H672 0.931 . S
C657 C656 1.391 1_655 S
C657 C661 1.376 . S
C658 C656 1.394 . S
C658 C659 1.374 . S
C658 C662 1.531 . S
C659 C658 1.374 . S
C659 C660 1.401 1_455 S
C659 C667 1.507 . S
C660 C659 1.401 1_655 S
C660 C661 1.392 . S
C660 C663 1.511 . S
C661 C657 1.376 . S
C661 C660 1.392 . S
C661 H673 0.929 . S
C662 C658 1.531 . S
C662 H674 0.960 1_556 S
C662 H675 0.962 . S
C662 H676 0.960 . S
C663 C660 1.511 . S
C663 H677 0.961 . S
C663 H678 0.961 . S
C663 H679 0.961 . S
C664 C665 1.370 . S
C664 C666 1.363 . S
C664 H680 0.931 . S
C665 C664 1.370 . S
C665 C669 1.408 1_456 S
C666 C664 1.363 . S
C666 C667 1.370 . S
C666 C670 1.524 . S
C667 C659 1.507 . S
C667 C666 1.370 . S
C667 C668 1.403 1_455 S
C668 C667 1.403 1_655 S
C668 C669 1.404 1_556 S
C668 C671 1.539 . S
C669 C665 1.408 1_654 S
C669 C668 1.404 1_554 S
C669 H681 0.930 . S
C670 C666 1.524 . S
C670 H682 0.956 . S
C670 H683 0.961 . S
C670 H684 0.961 . S
C671 C668 1.539 . S
C671 H685 0.958 1_556 S
C671 H686 0.961 1_556 S
C671 H687 0.960 . S
H672 C656 0.931 . S
H673 C661 0.929 . S
H674 C662 0.960 1_554 S
H675 C662 0.962 . S
H676 C662 0.960 . S
H677 C663 0.961 . S
H678 C663 0.961 . S
H679 C663 0.961 . S
H680 C664 0.931 . S
H681 C669 0.930 . S
H682 C670 0.956 . S
H683 C670 0.961 . S
H684 C670 0.961 . S
H685 C671 0.958 1_554 S
H686 C671 0.961 1_554 S
H687 C671 0.960 . S
C688 C689 1.391 . S
C688 C690 1.394 . S
C688 H704 0.931 . S
C689 C688 1.391 . S
C689 C693 1.376 . S
C690 C688 1.394 . S
C690 C691 1.369 . S
C690 C694 1.531 . S
C691 C690 1.369 . S
C691 C692 1.410 . S
C691 C699 1.503 . S
C692 C691 1.410 . S
C692 C693 1.392 . S
C692 C695 1.511 . S
C693 C689 1.376 . S
C693 C692 1.392 . S
C693 H705 0.929 . S
C694 C690 1.531 . S
C694 H706 0.960 . S
C694 H707 0.962 . S
C694 H708 0.960 . S
C695 C692 1.511 . S
C695 H709 0.961 . S
C695 H710 0.961 . S
C695 H711 0.961 . S
C696 C697 1.370 . S
C696 C698 1.363 . S
C696 H712 0.931 . S
C697 C696 1.370 . S
C697 C701 1.408 . S
C698 C696 1.363 . S
C698 C699 1.370 . S
C698 C702 1.524 . S
C699 C691 1.503 . S
C699 C698 1.370 . S
C699 C700 1.403 . S
C700 C699 1.403 . S
C700 C701 1.404 . S
C700 C703 1.539 . S
C701 C697 1.408 . S
C701 C700 1.404 . S
C701 H713 0.930 . S
C702 C698 1.524 . S
C702 H714 0.956 . S
C702 H715 0.961 . S
C702 H716 0.961 . S
C703 C700 1.539 . S
C703 H717 0.958 . S
C703 H718 0.961 . S
C703 H719 0.960 . S
H704 C688 0.931 . S
H705 C693 0.929 . S
H706 C694 0.960 . S
H707 C694 0.962 . S
H708 C694 0.960 . S
H709 C695 0.961 . S
H710 C695 0.961 . S
H711 C695 0.961 . S
H712 C696 0.931 . S
H713 C701 0.930 . S
H714 C702 0.956 . S
H715 C702 0.961 . S
H716 C702 0.961 . S
H717 C703 0.958 . S
H718 C703 0.961 . S
H719 C703 0.960 . S
C720 C721 1.391 . S
C720 C722 1.394 . S
C720 H736 0.931 . S
C721 C720 1.391 . S
C721 C725 1.376 . S
C722 C720 1.394 . S
C722 C723 1.369 . S
C722 C726 1.531 . S
C723 C722 1.369 . S
C723 C724 1.410 . S
C723 C731 1.503 . S
C724 C723 1.410 . S
C724 C725 1.392 . S
C724 C727 1.511 . S
C725 C721 1.376 . S
C725 C724 1.392 . S
C725 H737 0.929 . S
C726 C722 1.531 . S
C726 H738 0.960 . S
C726 H739 0.962 . S
C726 H740 0.960 . S
C727 C724 1.511 . S
C727 H741 0.961 . S
C727 H742 0.961 . S
C727 H743 0.961 . S
C728 C729 1.370 . S
C728 C730 1.363 . S
C728 H744 0.931 . S
C729 C728 1.370 . S
C729 C733 1.408 . S
C730 C728 1.363 . S
C730 C731 1.370 . S
C730 C734 1.524 . S
C731 C723 1.503 . S
C731 C730 1.370 . S
C731 C732 1.403 . S
C732 C731 1.403 . S
C732 C733 1.404 . S
C732 C735 1.539 . S
C733 C729 1.408 . S
C733 C732 1.404 . S
C733 H745 0.930 . S
C734 C730 1.524 . S
C734 H746 0.956 . S
C734 H747 0.961 . S
C734 H748 0.961 . S
C735 C732 1.539 . S
C735 H749 0.958 . S
C735 H750 0.961 . S
C735 H751 0.960 . S
H736 C720 0.931 . S
H737 C725 0.929 . S
H738 C726 0.960 . S
H739 C726 0.962 . S
H740 C726 0.960 . S
H741 C727 0.961 . S
H742 C727 0.961 . S
H743 C727 0.961 . S
H744 C728 0.931 . S
H745 C733 0.930 . S
H746 C734 0.956 . S
H747 C734 0.961 . S
H748 C734 0.961 . S
H749 C735 0.958 . S
H750 C735 0.961 . S
H751 C735 0.960 . S
C752 C753 1.391 . S
C752 C754 1.394 . S
C752 H768 0.931 . S
C753 C752 1.391 . S
C753 C757 1.376 . S
C754 C752 1.394 . S
C754 C755 1.369 . S
C754 C758 1.531 . S
C755 C754 1.369 . S
C755 C756 1.410 . S
C755 C763 1.503 . S
C756 C755 1.410 . S
C756 C757 1.392 . S
C756 C759 1.511 . S
C757 C753 1.376 . S
C757 C756 1.392 . S
C757 H769 0.929 . S
C758 C754 1.531 . S
C758 H770 0.960 . S
C758 H771 0.962 . S
C758 H772 0.960 . S
C759 C756 1.511 . S
C759 H773 0.961 . S
C759 H774 0.961 . S
C759 H775 0.961 . S
C760 C761 1.370 . S
C760 C762 1.363 . S
C760 H776 0.931 . S
C761 C760 1.370 . S
C761 C765 1.408 . S
C762 C760 1.363 . S
C762 C763 1.370 . S
C762 C766 1.524 . S
C763 C755 1.503 . S
C763 C762 1.370 . S
C763 C764 1.403 . S
C764 C763 1.403 . S
C764 C765 1.404 . S
C764 C767 1.539 . S
C765 C761 1.408 . S
C765 C764 1.404 . S
C765 H777 0.930 . S
C766 C762 1.524 . S
C766 H778 0.956 . S
C766 H779 0.961 . S
C766 H780 0.961 . S
C767 C764 1.539 . S
C767 H781 0.958 . S
C767 H782 0.961 . S
C767 H783 0.960 . S
H768 C752 0.931 . S
H769 C757 0.929 . S
H770 C758 0.960 . S
H771 C758 0.962 . S
H772 C758 0.960 . S
H773 C759 0.961 . S
H774 C759 0.961 . S
H775 C759 0.961 . S
H776 C760 0.931 . S
H777 C765 0.930 . S
H778 C766 0.956 . S
H779 C766 0.961 . S
H780 C766 0.961 . S
H781 C767 0.958 . S
H782 C767 0.961 . S
H783 C767 0.960 . S
C784 C785 1.391 1_655 S
C784 C786 1.394 1_655 S
C784 H800 0.931 . S
C785 C784 1.391 1_455 S
C785 C789 1.376 . S
C786 C784 1.394 1_455 S
C786 C787 1.369 . S
C786 C790 1.531 1_455 S
C787 C786 1.369 . S
C787 C788 1.410 . S
C787 C795 1.503 . S
C788 C787 1.410 . S
C788 C789 1.392 . S
C788 C791 1.511 . S
C789 C785 1.376 . S
C789 C788 1.392 . S
C789 H801 0.929 . S
C790 C786 1.531 1_655 S
C790 H802 0.960 . S
C790 H803 0.962 . S
C790 H804 0.960 . S
C791 C788 1.511 . S
C791 H805 0.961 . S
C791 H806 0.961 . S
C791 H807 0.961 . S
C792 C793 1.370 . S
C792 C794 1.363 . S
C792 H808 0.931 . S
C793 C792 1.370 . S
C793 C797 1.408 . S
C794 C792 1.363 . S
C794 C795 1.370 . S
C794 C798 1.524 1_455 S
C795 C787 1.503 . S
C795 C794 1.370 . S
C795 C796 1.403 . S
C796 C795 1.403 . S
C796 C797 1.404 . S
C796 C799 1.539 . S
C797 C793 1.408 . S
C797 C796 1.404 . S
C797 H809 0.930 . S
C798 C794 1.524 1_655 S
C798 H810 0.956 . S
C798 H811 0.961 1_655 S
C798 H812 0.961 . S
C799 C796 1.539 . S
C799 H813 0.958 . S
C799 H814 0.961 . S
C799 H815 0.960 . S
H800 C784 0.931 . S
H801 C789 0.929 . S
H802 C790 0.960 . S
H803 C790 0.962 . S
H804 C790 0.960 . S
H805 C791 0.961 . S
H806 C791 0.961 . S
H807 C791 0.961 . S
H808 C792 0.931 . S
H809 C797 0.930 . S
H810 C798 0.956 . S
H811 C798 0.961 1_455 S
H812 C798 0.961 . S
H813 C799 0.958 . S
H814 C799 0.961 . S
H815 C799 0.960 . S
C816 C817 1.391 . S
C816 C818 1.394 . S
C816 H832 0.931 . S
C817 C816 1.391 . S
C817 C821 1.376 . S
C818 C816 1.394 . S
C818 C819 1.369 . S
C818 C822 1.531 . S
C819 C818 1.369 . S
C819 C820 1.410 . S
C819 C827 1.503 . S
C820 C819 1.410 . S
C820 C821 1.392 . S
C820 C823 1.511 . S
C821 C817 1.376 . S
C821 C820 1.392 . S
C821 H833 0.929 . S
C822 C818 1.531 . S
C822 H834 0.960 . S
C822 H835 0.962 . S
C822 H836 0.960 . S
C823 C820 1.511 . S
C823 H837 0.961 . S
C823 H838 0.961 . S
C823 H839 0.961 . S
C824 C825 1.370 . S
C824 C826 1.363 . S
C824 H840 0.931 . S
C825 C824 1.370 . S
C825 C829 1.408 . S
C826 C824 1.363 . S
C826 C827 1.370 . S
C826 C830 1.524 . S
C827 C819 1.503 . S
C827 C826 1.370 . S
C827 C828 1.403 . S
C828 C827 1.403 . S
C828 C829 1.404 . S
C828 C831 1.539 . S
C829 C825 1.408 . S
C829 C828 1.404 . S
C829 H841 0.930 . S
C830 C826 1.524 . S
C830 H842 0.956 . S
C830 H843 0.961 . S
C830 H844 0.961 . S
C831 C828 1.539 . S
C831 H845 0.958 . S
C831 H846 0.961 . S
C831 H847 0.960 . S
H832 C816 0.931 . S
H833 C821 0.929 . S
H834 C822 0.960 . S
H835 C822 0.962 . S
H836 C822 0.960 . S
H837 C823 0.961 . S
H838 C823 0.961 . S
H839 C823 0.961 . S
H840 C824 0.931 . S
H841 C829 0.930 . S
H842 C830 0.956 . S
H843 C830 0.961 . S
H844 C830 0.961 . S
H845 C831 0.958 . S
H846 C831 0.961 . S
H847 C831 0.960 . S
C848 C849 1.391 . S
C848 C850 1.394 . S
C848 H864 0.931 . S
C849 C848 1.391 . S
C849 C853 1.376 . S
C850 C848 1.394 . S
C850 C851 1.369 . S
C850 C854 1.531 . S
C851 C850 1.369 . S
C851 C852 1.410 . S
C851 C859 1.503 . S
C852 C851 1.410 . S
C852 C853 1.392 . S
C852 C855 1.511 . S
C853 C849 1.376 . S
C853 C852 1.392 . S
C853 H865 0.929 . S
C854 C850 1.531 . S
C854 H866 0.960 . S
C854 H867 0.962 . S
C854 H868 0.960 . S
C855 C852 1.511 . S
C855 H869 0.961 . S
C855 H870 0.961 . S
C855 H871 0.961 . S
C856 C857 1.370 . S
C856 C858 1.363 . S
C856 H872 0.931 . S
C857 C856 1.370 . S
C857 C861 1.408 . S
C858 C856 1.363 . S
C858 C859 1.370 . S
C858 C862 1.524 . S
C859 C851 1.503 . S
C859 C858 1.370 . S
C859 C860 1.403 . S
C860 C859 1.403 . S
C860 C861 1.404 . S
C860 C863 1.539 . S
C861 C857 1.408 . S
C861 C860 1.404 . S
C861 H873 0.930 . S
C862 C858 1.524 . S
C862 H874 0.956 . S
C862 H875 0.961 . S
C862 H876 0.961 . S
C863 C860 1.539 . S
C863 H877 0.958 . S
C863 H878 0.961 . S
C863 H879 0.960 . S
H864 C848 0.931 . S
H865 C853 0.929 . S
H866 C854 0.960 . S
H867 C854 0.962 . S
H868 C854 0.960 . S
H869 C855 0.961 . S
H870 C855 0.961 . S
H871 C855 0.961 . S
H872 C856 0.931 . S
H873 C861 0.930 . S
H874 C862 0.956 . S
H875 C862 0.961 . S
H876 C862 0.961 . S
H877 C863 0.958 . S
H878 C863 0.961 . S
H879 C863 0.960 . S
C880 C881 1.391 . S
C880 C882 1.394 . S
C880 H896 0.931 . S
C881 C880 1.391 . S
C881 C885 1.376 . S
C882 C880 1.394 . S
C882 C883 1.369 . S
C882 C886 1.531 . S
C883 C882 1.369 . S
C883 C884 1.410 . S
C883 C891 1.503 . S
C884 C883 1.410 . S
C884 C885 1.392 . S
C884 C887 1.511 . S
C885 C881 1.376 . S
C885 C884 1.392 . S
C885 H897 0.929 . S
C886 C882 1.531 . S
C886 H898 0.960 . S
C886 H899 0.962 . S
C886 H900 0.960 . S
C887 C884 1.511 . S
C887 H901 0.961 . S
C887 H902 0.961 . S
C887 H903 0.961 . S
C888 C889 1.370 . S
C888 C890 1.363 . S
C888 H904 0.931 . S
C889 C888 1.370 . S
C889 C893 1.408 . S
C890 C888 1.363 . S
C890 C891 1.370 . S
C890 C894 1.524 . S
C891 C883 1.503 . S
C891 C890 1.370 . S
C891 C892 1.403 . S
C892 C891 1.403 . S
C892 C893 1.404 . S
C892 C895 1.539 . S
C893 C889 1.408 . S
C893 C892 1.404 . S
C893 H905 0.930 . S
C894 C890 1.524 . S
C894 H906 0.956 . S
C894 H907 0.961 . S
C894 H908 0.961 . S
C895 C892 1.539 . S
C895 H909 0.958 . S
C895 H910 0.961 . S
C895 H911 0.960 . S
H896 C880 0.931 . S
H897 C885 0.929 . S
H898 C886 0.960 . S
H899 C886 0.962 . S
H900 C886 0.960 . S
H901 C887 0.961 . S
H902 C887 0.961 . S
H903 C887 0.961 . S
H904 C888 0.931 . S
H905 C893 0.930 . S
H906 C894 0.956 . S
H907 C894 0.961 . S
H908 C894 0.961 . S
H909 C895 0.958 . S
H910 C895 0.961 . S
H911 C895 0.960 . S
C912 C913 1.391 . S
C912 C914 1.394 . S
C912 H928 0.931 . S
C913 C912 1.391 . S
C913 C917 1.376 . S
C914 C912 1.394 . S
C914 C915 1.369 . S
C914 C918 1.531 . S
C915 C914 1.369 . S
C915 C916 1.410 . S
C915 C923 1.503 . S
C916 C915 1.410 . S
C916 C917 1.392 . S
C916 C919 1.511 . S
C917 C913 1.376 . S
C917 C916 1.392 . S
C917 H929 0.929 . S
C918 C914 1.531 . S
C918 H930 0.960 . S
C918 H931 0.962 . S
C918 H932 0.960 . S
C919 C916 1.511 . S
C919 H933 0.961 . S
C919 H934 0.961 . S
C919 H935 0.961 . S
C920 C921 1.370 . S
C920 C922 1.363 . S
C920 H936 0.931 1_655 S
C921 C920 1.370 . S
C921 C925 1.408 . S
C922 C920 1.363 . S
C922 C923 1.370 . S
C922 C926 1.524 . S
C923 C915 1.503 . S
C923 C922 1.370 . S
C923 C924 1.403 . S
C924 C923 1.403 . S
C924 C925 1.404 . S
C924 C927 1.539 1_545 S
C925 C921 1.408 . S
C925 C924 1.404 . S
C925 H937 0.930 . S
C926 C922 1.524 . S
C926 H938 0.956 . S
C926 H939 0.961 . S
C926 H940 0.970 . S
C927 C924 1.539 1_565 S
C927 H941 0.958 . S
C927 H942 0.961 . S
C927 H943 0.941 1_565 S
H928 C912 0.931 . S
H929 C917 0.929 . S
H930 C918 0.960 . S
H931 C918 0.962 . S
H932 C918 0.960 . S
H933 C919 0.961 . S
H934 C919 0.961 . S
H935 C919 0.961 . S
H936 C920 0.931 1_455 S
H937 C925 0.930 . S
H938 C926 0.956 . S
H939 C926 0.961 . S
H940 C926 0.970 . S
H941 C927 0.958 . S
H942 C927 0.961 . S
H943 C927 0.941 1_545 S
C944 C945 1.391 . S
C944 C946 1.394 . S
C944 H960 0.931 . S
C945 C944 1.391 . S
C945 C949 1.376 . S
C946 C944 1.394 . S
C946 C947 1.369 . S
C946 C950 1.531 . S
C947 C946 1.369 . S
C947 C948 1.410 . S
C947 C955 1.503 . S
C948 C947 1.410 . S
C948 C949 1.392 . S
C948 C951 1.511 . S
C949 C945 1.376 . S
C949 C948 1.392 . S
C949 H961 0.929 . S
C950 C946 1.531 . S
C950 H962 0.960 . S
C950 H963 0.962 . S
C950 H964 0.960 . S
C951 C948 1.511 . S
C951 H965 0.961 . S
C951 H966 0.961 . S
C951 H967 0.961 . S
C952 C953 1.370 . S
C952 C954 1.363 . S
C952 H968 0.931 . S
C953 C952 1.370 . S
C953 C957 1.408 . S
C954 C952 1.363 . S
C954 C955 1.370 . S
C954 C958 1.524 . S
C955 C947 1.503 . S
C955 C954 1.370 . S
C955 C956 1.403 . S
C956 C955 1.403 . S
C956 C957 1.404 . S
C956 C959 1.539 . S
C957 C953 1.408 . S
C957 C956 1.404 . S
C957 H969 0.930 . S
C958 C954 1.524 . S
C958 H970 0.956 . S
C958 H971 0.961 . S
C958 H972 0.961 . S
C959 C956 1.539 . S
C959 H973 0.958 . S
C959 H974 0.961 . S
C959 H975 0.960 . S
H960 C944 0.931 . S
H961 C949 0.929 . S
H962 C950 0.960 . S
H963 C950 0.962 . S
H964 C950 0.960 . S
H965 C951 0.961 . S
H966 C951 0.961 . S
H967 C951 0.961 . S
H968 C952 0.931 . S
H969 C957 0.930 . S
H970 C958 0.956 . S
H971 C958 0.961 . S
H972 C958 0.961 . S
H973 C959 0.958 . S
H974 C959 0.961 . S
H975 C959 0.960 . S
C976 C977 1.391 . S
C976 C978 1.394 . S
C976 H992 0.931 . S
C977 C976 1.391 . S
C977 C981 1.376 . S
C978 C976 1.394 . S
C978 C979 1.369 . S
C978 C982 1.531 . S
C979 C978 1.369 . S
C979 C980 1.410 . S
C979 C987 1.503 . S
C980 C979 1.410 . S
C980 C981 1.392 . S
C980 C983 1.511 . S
C981 C977 1.376 . S
C981 C980 1.392 . S
C981 H993 0.929 . S
C982 C978 1.531 . S
C982 H994 0.960 . S
C982 H995 0.962 . S
C982 H996 0.960 . S
C983 C980 1.511 . S
C983 H997 0.961 . S
C983 H998 0.961 . S
C983 H999 0.961 . S
C984 C985 1.370 1_565 S
C984 C986 1.363 . S
C984 H1000 0.931 . S
C985 C984 1.370 1_545 S
C985 C989 1.408 . S
C986 C984 1.363 . S
C986 C987 1.370 1_565 S
C986 C990 1.524 . S
C987 C979 1.503 . S
C987 C986 1.370 1_545 S
C987 C988 1.403 . S
C988 C987 1.403 . S
C988 C989 1.404 . S
C988 C991 1.539 . S
C989 C985 1.408 . S
C989 C988 1.404 . S
C989 H1001 0.930 . S
C990 C986 1.524 . S
C990 H1002 0.956 . S
C990 H1003 0.961 . S
C990 H1004 0.961 . S
C991 C988 1.539 . S
C991 H1005 0.958 . S
C991 H1006 0.961 . S
C991 H1007 0.960 . S
H992 C976 0.931 . S
H993 C981 0.929 . S
H994 C982 0.960 . S
H995 C982 0.962 . S
H996 C982 0.960 . S
H997 C983 0.961 . S
H998 C983 0.961 . S
H999 C983 0.961 . S
H1000 C984 0.931 . S
H1001 C989 0.930 . S
H1002 C990 0.956 . S
H1003 C990 0.961 . S
H1004 C990 0.961 . S
H1005 C991 0.958 . S
H1006 C991 0.961 . S
H1007 C991 0.960 . S
C1008 C1009 1.391 . S
C1008 C1010 1.394 . S
C1008 H1024 0.931 . S
C1009 C1008 1.391 . S
C1009 C1013 1.376 . S
C1010 C1008 1.394 . S
C1010 C1011 1.369 . S
C1010 C1014 1.531 . S
C1011 C1010 1.369 . S
C1011 C1012 1.410 . S
C1011 C1019 1.503 . S
C1012 C1011 1.410 . S
C1012 C1013 1.392 . S
C1012 C1015 1.511 . S
C1013 C1009 1.376 . S
C1013 C1012 1.392 . S
C1013 H1025 0.929 . S
C1014 C1010 1.531 . S
C1014 H1026 0.960 . S
C1014 H1027 0.962 . S
C1014 H1028 0.960 . S
C1015 C1012 1.511 . S
C1015 H1029 0.961 . S
C1015 H1030 0.961 . S
C1015 H1031 0.961 . S
C1016 C1017 1.370 . S
C1016 C1018 1.363 . S
C1016 H1032 0.931 . S
C1017 C1016 1.370 . S
C1017 C1021 1.408 . S
C1018 C1016 1.363 . S
C1018 C1019 1.370 . S
C1018 C1022 1.524 . S
C1019 C1011 1.503 . S
C1019 C1018 1.370 . S
C1019 C1020 1.403 . S
C1020 C1019 1.403 . S
C1020 C1021 1.404 . S
C1020 C1023 1.539 . S
C1021 C1017 1.408 . S
C1021 C1020 1.404 . S
C1021 H1033 0.930 . S
C1022 C1018 1.524 . S
C1022 H1034 0.956 . S
C1022 H1035 0.961 . S
C1022 H1036 0.961 . S
C1023 C1020 1.539 . S
C1023 H1037 0.958 . S
C1023 H1038 0.961 . S
C1023 H1039 0.960 . S
H1024 C1008 0.931 . S
H1025 C1013 0.929 . S
H1026 C1014 0.960 . S
H1027 C1014 0.962 . S
H1028 C1014 0.960 . S
H1029 C1015 0.961 . S
H1030 C1015 0.961 . S
H1031 C1015 0.961 . S
H1032 C1016 0.931 . S
H1033 C1021 0.930 . S
H1034 C1022 0.956 . S
H1035 C1022 0.961 . S
H1036 C1022 0.961 . S
H1037 C1023 0.958 . S
H1038 C1023 0.961 . S
H1039 C1023 0.960 . S
C1040 C1041 1.391 . S
C1040 C1042 1.394 . S
C1040 H1056 0.931 . S
C1041 C1040 1.391 . S
C1041 C1045 1.376 . S
C1042 C1040 1.394 . S
C1042 C1043 1.369 . S
C1042 C1046 1.531 . S
C1043 C1042 1.369 . S
C1043 C1044 1.410 . S
C1043 C1051 1.503 . S
C1044 C1043 1.410 . S
C1044 C1045 1.392 . S
C1044 C1047 1.511 . S
C1045 C1041 1.376 . S
C1045 C1044 1.392 . S
C1045 H1057 0.929 . S
C1046 C1042 1.531 . S
C1046 H1058 0.960 . S
C1046 H1059 0.962 . S
C1046 H1060 0.960 . S
C1047 C1044 1.511 . S
C1047 H1061 0.961 . S
C1047 H1062 0.961 . S
C1047 H1063 0.961 . S
C1048 C1049 1.370 . S
C1048 C1050 1.363 . S
C1048 H1064 0.931 . S
C1049 C1048 1.370 . S
C1049 C1053 1.408 . S
C1050 C1048 1.363 . S
C1050 C1051 1.370 . S
C1050 C1054 1.524 . S
C1051 C1043 1.503 . S
C1051 C1050 1.370 . S
C1051 C1052 1.403 . S
C1052 C1051 1.403 . S
C1052 C1053 1.404 . S
C1052 C1055 1.539 1_545 S
C1053 C1049 1.408 . S
C1053 C1052 1.404 . S
C1053 H1065 0.930 1_545 S
C1054 C1050 1.524 . S
C1054 H1066 0.956 . S
C1054 H1067 0.961 . S
C1054 H1068 0.961 . S
C1055 C1052 1.539 1_565 S
C1055 H1069 0.958 . S
C1055 H1070 0.961 . S
C1055 H1071 0.960 . S
H1056 C1040 0.931 . S
H1057 C1045 0.929 . S
H1058 C1046 0.960 . S
H1059 C1046 0.962 . S
H1060 C1046 0.960 . S
H1061 C1047 0.961 . S
H1062 C1047 0.961 . S
H1063 C1047 0.961 . S
H1064 C1048 0.931 . S
H1065 C1053 0.930 1_565 S
H1066 C1054 0.956 . S
H1067 C1054 0.961 . S
H1068 C1054 0.961 . S
H1069 C1055 0.958 . S
H1070 C1055 0.961 . S
H1071 C1055 0.960 . S
C1072 C1073 1.391 . S
C1072 C1074 1.394 . S
C1072 H1088 0.931 . S
C1073 C1072 1.391 . S
C1073 C1077 1.376 . S
C1074 C1072 1.394 . S
C1074 C1075 1.369 . S
C1074 C1078 1.531 . S
C1075 C1074 1.369 . S
C1075 C1076 1.410 . S
C1075 C1083 1.503 . S
C1076 C1075 1.410 . S
C1076 C1077 1.392 . S
C1076 C1079 1.511 . S
C1077 C1073 1.376 . S
C1077 C1076 1.392 . S
C1077 H1089 0.929 . S
C1078 C1074 1.531 . S
C1078 H1090 0.960 . S
C1078 H1091 0.962 . S
C1078 H1092 0.960 . S
C1079 C1076 1.511 . S
C1079 H1093 0.961 . S
C1079 H1094 0.961 . S
C1079 H1095 0.961 . S
C1080 C1081 1.370 . S
C1080 C1082 1.363 . S
C1080 H1096 0.931 . S
C1081 C1080 1.370 . S
C1081 C1085 1.408 . S
C1082 C1080 1.363 . S
C1082 C1083 1.370 . S
C1082 C1086 1.524 . S
C1083 C1075 1.503 . S
C1083 C1082 1.370 . S
C1083 C1084 1.403 . S
C1084 C1083 1.403 . S
C1084 C1085 1.404 . S
C1084 C1087 1.539 . S
C1085 C1081 1.408 . S
C1085 C1084 1.404 . S
C1085 H1097 0.930 . S
C1086 C1082 1.524 . S
C1086 H1098 0.956 . S
C1086 H1099 0.961 . S
C1086 H1100 0.961 . S
C1087 C1084 1.539 . S
C1087 H1101 0.958 . S
C1087 H1102 0.961 . S
C1087 H1103 0.960 . S
H1088 C1072 0.931 . S
H1089 C1077 0.929 . S
H1090 C1078 0.960 . S
H1091 C1078 0.962 . S
H1092 C1078 0.960 . S
H1093 C1079 0.961 . S
H1094 C1079 0.961 . S
H1095 C1079 0.961 . S
H1096 C1080 0.931 . S
H1097 C1085 0.930 . S
H1098 C1086 0.956 . S
H1099 C1086 0.961 . S
H1100 C1086 0.961 . S
H1101 C1087 0.958 . S
H1102 C1087 0.961 . S
H1103 C1087 0.960 . S
C1104 C1105 1.391 . S
C1104 C1106 1.394 . S
C1104 H1120 0.931 1_545 S
C1105 C1104 1.391 . S
C1105 C1109 1.376 . S
C1106 C1104 1.394 . S
C1106 C1107 1.369 . S
C1106 C1110 1.531 1_545 S
C1107 C1106 1.369 . S
C1107 C1108 1.410 . S
C1107 C1115 1.503 . S
C1108 C1107 1.410 . S
C1108 C1109 1.392 . S
C1108 C1111 1.511 . S
C1109 C1105 1.376 . S
C1109 C1108 1.392 . S
C1109 H1121 0.929 . S
C1110 C1106 1.531 1_565 S
C1110 H1122 0.960 . S
C1110 H1123 0.962 . S
C1110 H1124 0.960 . S
C1111 C1108 1.511 . S
C1111 H1125 0.961 . S
C1111 H1126 0.961 . S
C1111 H1127 0.961 . S
C1112 C1113 1.370 . S
C1112 C1114 1.363 . S
C1112 H1128 0.931 . S
C1113 C1112 1.370 . S
C1113 C1117 1.408 . S
C1114 C1112 1.363 . S
C1114 C1115 1.370 . S
C1114 C1118 1.524 . S
C1115 C1107 1.503 . S
C1115 C1114 1.370 . S
C1115 C1116 1.403 . S
C1116 C1115 1.403 . S
C1116 C1117 1.404 . S
C1116 C1119 1.539 . S
C1117 C1113 1.408 . S
C1117 C1116 1.404 . S
C1117 H1129 0.930 . S
C1118 C1114 1.524 . S
C1118 H1130 0.956 . S
C1118 H1131 0.961 . S
C1118 H1132 0.961 . S
C1119 C1116 1.539 . S
C1119 H1133 0.958 1_545 S
C1119 H1134 0.961 . S
C1119 H1135 0.960 . S
H1120 C1104 0.931 1_565 S
H1121 C1109 0.929 . S
H1122 C1110 0.960 . S
H1123 C1110 0.962 . S
H1124 C1110 0.960 . S
H1125 C1111 0.961 . S
H1126 C1111 0.961 . S
H1127 C1111 0.961 . S
H1128 C1112 0.931 . S
H1129 C1117 0.930 . S
H1130 C1118 0.956 . S
H1131 C1118 0.961 . S
H1132 C1118 0.961 . S
H1133 C1119 0.958 1_565 S
H1134 C1119 0.961 . S
H1135 C1119 0.960 . S
C1136 C1137 1.391 . S
C1136 C1138 1.394 . S
C1136 H1152 0.931 . S
C1137 C1136 1.391 . S
C1137 C1141 1.376 . S
C1138 C1136 1.394 . S
C1138 C1139 1.369 . S
C1138 C1142 1.531 . S
C1139 C1138 1.369 . S
C1139 C1140 1.410 . S
C1139 C1147 1.503 . S
C1140 C1139 1.410 . S
C1140 C1141 1.392 . S
C1140 C1143 1.511 . S
C1141 C1137 1.376 . S
C1141 C1140 1.392 . S
C1141 H1153 0.929 . S
C1142 C1138 1.531 . S
C1142 H1154 0.960 . S
C1142 H1155 0.962 . S
C1142 H1156 0.960 . S
C1143 C1140 1.511 . S
C1143 H1157 0.961 . S
C1143 H1158 0.961 . S
C1143 H1159 0.961 . S
C1144 C1145 1.370 . S
C1144 C1146 1.363 . S
C1144 H1160 0.931 . S
C1145 C1144 1.370 . S
C1145 C1149 1.408 . S
C1146 C1144 1.363 . S
C1146 C1147 1.370 . S
C1146 C1150 1.524 . S
C1147 C1139 1.503 . S
C1147 C1146 1.370 . S
C1147 C1148 1.403 . S
C1148 C1147 1.403 . S
C1148 C1149 1.404 . S
C1148 C1151 1.539 . S
C1149 C1145 1.408 . S
C1149 C1148 1.404 . S
C1149 H1161 0.930 . S
C1150 C1146 1.524 . S
C1150 H1162 0.956 . S
C1150 H1163 0.961 . S
C1150 H1164 0.961 . S
C1151 C1148 1.539 . S
C1151 H1165 0.958 . S
C1151 H1166 0.961 . S
C1151 H1167 0.960 . S
H1152 C1136 0.931 . S
H1153 C1141 0.929 . S
H1154 C1142 0.960 . S
H1155 C1142 0.962 . S
H1156 C1142 0.960 . S
H1157 C1143 0.961 . S
H1158 C1143 0.961 . S
H1159 C1143 0.961 . S
H1160 C1144 0.931 . S
H1161 C1149 0.930 . S
H1162 C1150 0.956 . S
H1163 C1150 0.961 . S
H1164 C1150 0.961 . S
H1165 C1151 0.958 . S
H1166 C1151 0.961 . S
H1167 C1151 0.960 . S
C1168 C1169 1.391 . S
C1168 C1170 1.394 . S
C1168 H1184 0.931 . S
C1169 C1168 1.391 . S
C1169 C1173 1.376 . S
C1170 C1168 1.394 . S
C1170 C1171 1.369 . S
C1170 C1174 1.531 . S
C1171 C1170 1.369 . S
C1171 C1172 1.410 . S
C1171 C1179 1.503 . S
C1172 C1171 1.410 . S
C1172 C1173 1.392 . S
C1172 C1175 1.468 1_565 S
C1173 C1169 1.376 . S
C1173 C1172 1.392 . S
C1173 H1185 0.929 . S
C1174 C1170 1.531 . S
C1174 H1186 0.960 . S
C1174 H1187 0.962 . S
C1174 H1188 0.960 . S
C1175 C1172 1.468 1_545 S
C1175 H1189 0.969 . S
C1175 H1190 0.979 . S
C1175 H1191 0.980 . S
C1176 C1177 1.370 . S
C1176 C1178 1.363 . S
C1176 H1192 0.931 . S
C1177 C1176 1.370 . S
C1177 C1181 1.408 . S
C1178 C1176 1.363 . S
C1178 C1179 1.370 . S
C1178 C1182 1.524 1_554 S
C1179 C1171 1.503 . S
C1179 C1178 1.370 . S
C1179 C1180 1.403 . S
C1180 C1179 1.403 . S
C1180 C1181 1.404 . S
C1180 C1183 1.539 . S
C1181 C1177 1.408 . S
C1181 C1180 1.404 . S
C1181 H1193 0.930 1_565 S
C1182 C1178 1.524 1_556 S
C1182 H1194 0.956 . S
C1182 H1195 0.961 . S
C1182 H1196 0.961 . S
C1183 C1180 1.539 . S
C1183 H1197 0.958 . S
C1183 H1198 0.961 1_565 S
C1183 H1199 0.960 . S
H1184 C1168 0.931 . S
H1185 C1173 0.929 . S
H1186 C1174 0.960 . S
H1187 C1174 0.962 . S
H1188 C1174 0.960 . S
H1189 C1175 0.969 . S
H1190 C1175 0.979 . S
H1191 C1175 0.980 . S
H1192 C1176 0.931 . S
H1193 C1181 0.930 1_545 S
H1194 C1182 0.956 . S
H1195 C1182 0.961 . S
H1196 C1182 0.961 . S
H1197 C1183 0.958 . S
H1198 C1183 0.961 1_545 S
H1199 C1183 0.960 . S
C1200 C1201 1.391 1_556 S
C1200 C1202 1.394 . S
C1200 H1216 0.931 . S
C1201 C1200 1.391 1_554 S
C1201 C1205 1.376 . S
C1202 C1200 1.394 . S
C1202 C1203 1.369 . S
C1202 C1206 1.531 . S
C1203 C1202 1.369 . S
C1203 C1204 1.410 1_556 S
C1203 C1211 1.503 . S
C1204 C1203 1.410 1_554 S
C1204 C1205 1.392 . S
C1204 C1207 1.511 . S
C1205 C1201 1.376 . S
C1205 C1204 1.392 . S
C1205 H1217 0.929 . S
C1206 C1202 1.531 . S
C1206 H1218 0.960 . S
C1206 H1219 0.962 1_556 S
C1206 H1220 0.960 . S
C1207 C1204 1.511 . S
C1207 H1221 0.961 . S
C1207 H1222 0.961 . S
C1207 H1223 0.961 1_554 S
C1208 C1209 1.370 . S
C1208 C1210 1.363 . S
C1208 H1224 0.931 . S
C1209 C1208 1.370 . S
C1209 C1213 1.408 1_554 S
C1210 C1208 1.363 . S
C1210 C1211 1.370 1_554 S
C1210 C1214 1.524 . S
C1211 C1203 1.503 . S
C1211 C1210 1.370 1_556 S
C1211 C1212 1.403 . S
C1212 C1211 1.403 . S
C1212 C1213 1.404 . S
C1212 C1215 1.539 . S
C1213 C1209 1.408 1_556 S
C1213 C1212 1.404 . S
C1213 H1225 0.930 . S
C1214 C1210 1.524 . S
C1214 H1226 0.956 . S
C1214 H1227 0.961 . S
C1214 H1228 0.961 . S
C1215 C1212 1.539 . S
C1215 H1229 0.958 . S
C1215 H1230 0.961 . S
C1215 H1231 0.960 . S
H1216 C1200 0.931 . S
H1217 C1205 0.929 . S
H1218 C1206 0.960 . S
H1219 C1206 0.962 1_554 S
H1220 C1206 0.960 . S
H1221 C1207 0.961 . S
H1222 C1207 0.961 . S
H1223 C1207 0.961 1_556 S
H1224 C1208 0.931 . S
H1225 C1213 0.930 . S
H1226 C1214 0.956 . S
H1227 C1214 0.961 . S
H1228 C1214 0.961 . S
H1229 C1215 0.958 . S
H1230 C1215 0.961 . S
H1231 C1215 0.960 . S
C1232 C1233 1.391 . S
C1232 C1234 1.394 . S
C1232 H1248 0.931 . S
C1233 C1232 1.391 . S
C1233 C1237 1.376 . S
C1234 C1232 1.394 . S
C1234 C1235 1.369 . S
C1234 C1238 1.531 . S
C1235 C1234 1.369 . S
C1235 C1236 1.410 . S
C1235 C1243 1.503 . S
C1236 C1235 1.410 . S
C1236 C1237 1.392 . S
C1236 C1239 1.511 . S
C1237 C1233 1.376 . S
C1237 C1236 1.392 . S
C1237 H1249 0.929 . S
C1238 C1234 1.531 . S
C1238 H1250 0.960 . S
C1238 H1251 0.962 . S
C1238 H1252 0.960 . S
C1239 C1236 1.511 . S
C1239 H1253 0.961 . S
C1239 H1254 0.961 . S
C1239 H1255 0.961 . S
C1240 C1241 1.370 . S
C1240 C1242 1.363 . S
C1240 H1256 0.931 . S
C1241 C1240 1.370 . S
C1241 C1245 1.408 . S
C1242 C1240 1.363 . S
C1242 C1243 1.370 . S
C1242 C1246 1.524 . S
C1243 C1235 1.503 . S
C1243 C1242 1.370 . S
C1243 C1244 1.403 . S
C1244 C1243 1.403 . S
C1244 C1245 1.404 . S
C1244 C1247 1.539 . S
C1245 C1241 1.408 . S
C1245 C1244 1.404 . S
C1245 H1257 0.930 . S
C1246 C1242 1.524 . S
C1246 H1258 0.956 . S
C1246 H1259 0.961 . S
C1246 H1260 0.961 . S
C1247 C1244 1.539 . S
C1247 H1261 0.958 . S
C1247 H1262 0.961 . S
C1247 H1263 0.960 . S
H1248 C1232 0.931 . S
H1249 C1237 0.929 . S
H1250 C1238 0.960 . S
H1251 C1238 0.962 . S
H1252 C1238 0.960 . S
H1253 C1239 0.961 . S
H1254 C1239 0.961 . S
H1255 C1239 0.961 . S
H1256 C1240 0.931 . S
H1257 C1245 0.930 . S
H1258 C1246 0.956 . S
H1259 C1246 0.961 . S
H1260 C1246 0.961 . S
H1261 C1247 0.958 . S
H1262 C1247 0.961 . S
H1263 C1247 0.960 . S
C1264 C1265 1.391 . S
C1264 C1266 1.394 . S
C1264 H1280 0.931 . S
C1265 C1264 1.391 . S
C1265 C1269 1.376 . S
C1266 C1264 1.394 . S
C1266 C1267 1.369 . S
C1266 C1270 1.531 . S
C1267 C1266 1.369 . S
C1267 C1268 1.410 . S
C1267 C1275 1.503 . S
C1268 C1267 1.410 . S
C1268 C1269 1.392 . S
C1268 C1271 1.511 . S
C1269 C1265 1.376 . S
C1269 C1268 1.392 . S
C1269 H1281 0.929 . S
C1270 C1266 1.531 . S
C1270 H1282 0.960 . S
C1270 H1283 0.962 . S
C1270 H1284 0.960 . S
C1271 C1268 1.511 . S
C1271 H1285 0.961 . S
C1271 H1286 0.961 . S
C1271 H1287 0.961 . S
C1272 C1273 1.370 . S
C1272 C1274 1.363 . S
C1272 H1288 0.931 . S
C1273 C1272 1.370 . S
C1273 C1277 1.408 . S
C1274 C1272 1.363 . S
C1274 C1275 1.370 . S
C1274 C1278 1.524 . S
C1275 C1267 1.503 . S
C1275 C1274 1.370 . S
C1275 C1276 1.403 . S
C1276 C1275 1.403 . S
C1276 C1277 1.404 . S
C1276 C1279 1.539 . S
C1277 C1273 1.408 . S
C1277 C1276 1.404 . S
C1277 H1289 0.930 . S
C1278 C1274 1.524 . S
C1278 H1290 0.956 . S
C1278 H1291 0.961 . S
C1278 H1292 0.961 . S
C1279 C1276 1.539 . S
C1279 H1293 0.958 . S
C1279 H1294 0.961 . S
C1279 H1295 0.960 . S
H1280 C1264 0.931 . S
H1281 C1269 0.929 . S
H1282 C1270 0.960 . S
H1283 C1270 0.962 . S
H1284 C1270 0.960 . S
H1285 C1271 0.961 . S
H1286 C1271 0.961 . S
H1287 C1271 0.961 . S
H1288 C1272 0.931 . S
H1289 C1277 0.930 . S
H1290 C1278 0.956 . S
H1291 C1278 0.961 . S
H1292 C1278 0.961 . S
H1293 C1279 0.958 . S
H1294 C1279 0.961 . S
H1295 C1279 0.960 . S
C1296 C1297 1.391 . S
C1296 C1298 1.394 . S
C1296 H1312 0.931 . S
C1297 C1296 1.391 . S
C1297 C1301 1.376 . S
C1298 C1296 1.394 . S
C1298 C1299 1.369 . S
C1298 C1302 1.531 . S
C1299 C1298 1.369 . S
C1299 C1300 1.410 . S
C1299 C1307 1.503 . S
C1300 C1299 1.410 . S
C1300 C1301 1.392 . S
C1300 C1303 1.511 . S
C1301 C1297 1.376 . S
C1301 C1300 1.392 . S
C1301 H1313 0.929 . S
C1302 C1298 1.531 . S
C1302 H1314 0.960 . S
C1302 H1315 0.962 . S
C1302 H1316 0.960 . S
C1303 C1300 1.511 . S
C1303 H1317 0.961 . S
C1303 H1318 0.961 . S
C1303 H1319 0.961 . S
C1304 C1305 1.370 . S
C1304 C1306 1.363 . S
C1304 H1320 0.931 . S
C1305 C1304 1.370 . S
C1305 C1309 1.408 . S
C1306 C1304 1.363 . S
C1306 C1307 1.370 . S
C1306 C1310 1.524 . S
C1307 C1299 1.503 . S
C1307 C1306 1.370 . S
C1307 C1308 1.403 . S
C1308 C1307 1.403 . S
C1308 C1309 1.404 . S
C1308 C1311 1.539 . S
C1309 C1305 1.408 . S
C1309 C1308 1.404 . S
C1309 H1321 0.930 . S
C1310 C1306 1.524 . S
C1310 H1322 0.956 . S
C1310 H1323 0.961 . S
C1310 H1324 0.961 . S
C1311 C1308 1.539 . S
C1311 H1325 0.958 . S
C1311 H1326 0.961 . S
C1311 H1327 0.960 . S
H1312 C1296 0.931 . S
H1313 C1301 0.929 . S
H1314 C1302 0.960 . S
H1315 C1302 0.962 . S
H1316 C1302 0.960 . S
H1317 C1303 0.961 . S
H1318 C1303 0.961 . S
H1319 C1303 0.961 . S
H1320 C1304 0.931 . S
H1321 C1309 0.930 . S
H1322 C1310 0.956 . S
H1323 C1310 0.961 . S
H1324 C1310 0.961 . S
H1325 C1311 0.958 . S
H1326 C1311 0.961 . S
H1327 C1311 0.960 . S
C1328 C1329 1.391 . S
C1328 C1330 1.394 . S
C1328 H1344 0.931 . S
C1329 C1328 1.391 . S
C1329 C1333 1.376 . S
C1330 C1328 1.394 . S
C1330 C1331 1.369 . S
C1330 C1334 1.531 . S
C1331 C1330 1.369 . S
C1331 C1332 1.410 . S
C1331 C1339 1.503 . S
C1332 C1331 1.410 . S
C1332 C1333 1.392 . S
C1332 C1335 1.511 . S
C1333 C1329 1.376 . S
C1333 C1332 1.392 . S
C1333 H1345 0.929 . S
C1334 C1330 1.531 . S
C1334 H1346 0.960 . S
C1334 H1347 0.962 . S
C1334 H1348 0.960 . S
C1335 C1332 1.511 . S
C1335 H1349 0.961 . S
C1335 H1350 0.961 . S
C1335 H1351 0.961 . S
C1336 C1337 1.370 . S
C1336 C1338 1.363 . S
C1336 H1352 0.931 . S
C1337 C1336 1.370 . S
C1337 C1341 1.408 . S
C1338 C1336 1.363 . S
C1338 C1339 1.370 . S
C1338 C1342 1.524 . S
C1339 C1331 1.503 . S
C1339 C1338 1.370 . S
C1339 C1340 1.403 . S
C1340 C1339 1.403 . S
C1340 C1341 1.404 . S
C1340 C1343 1.539 . S
C1341 C1337 1.408 . S
C1341 C1340 1.404 . S
C1341 H1353 0.930 . S
C1342 C1338 1.524 . S
C1342 H1354 0.956 . S
C1342 H1355 0.961 . S
C1342 H1356 0.961 . S
C1343 C1340 1.539 . S
C1343 H1357 0.958 . S
C1343 H1358 0.961 . S
C1343 H1359 0.960 . S
H1344 C1328 0.931 . S
H1345 C1333 0.929 . S
H1346 C1334 0.960 . S
H1347 C1334 0.962 . S
H1348 C1334 0.960 . S
H1349 C1335 0.961 . S
H1350 C1335 0.961 . S
H1351 C1335 0.961 . S
H1352 C1336 0.931 . S
H1353 C1341 0.930 . S
H1354 C1342 0.956 . S
H1355 C1342 0.961 . S
H1356 C1342 0.961 . S
H1357 C1343 0.958 . S
H1358 C1343 0.961 . S
H1359 C1343 0.960 . S
C1360 C1361 1.391 . S
C1360 C1362 1.394 . S
C1360 H1376 0.931 . S
C1361 C1360 1.391 . S
C1361 C1365 1.376 . S
C1362 C1360 1.394 . S
C1362 C1363 1.369 . S
C1362 C1366 1.531 . S
C1363 C1362 1.369 . S
C1363 C1364 1.410 . S
C1363 C1371 1.503 . S
C1364 C1363 1.410 . S
C1364 C1365 1.392 . S
C1364 C1367 1.511 . S
C1365 C1361 1.376 . S
C1365 C1364 1.392 . S
C1365 H1377 0.929 . S
C1366 C1362 1.531 . S
C1366 H1378 0.960 . S
C1366 H1379 0.962 . S
C1366 H1380 0.960 . S
C1367 C1364 1.511 . S
C1367 H1381 0.961 . S
C1367 H1382 0.961 . S
C1367 H1383 0.961 . S
C1368 C1369 1.370 . S
C1368 C1370 1.363 . S
C1368 H1384 0.931 . S
C1369 C1368 1.370 . S
C1369 C1373 1.408 . S
C1370 C1368 1.363 . S
C1370 C1371 1.370 . S
C1370 C1374 1.524 . S
C1371 C1363 1.503 . S
C1371 C1370 1.370 . S
C1371 C1372 1.403 . S
C1372 C1371 1.403 . S
C1372 C1373 1.404 . S
C1372 C1375 1.539 . S
C1373 C1369 1.408 . S
C1373 C1372 1.404 . S
C1373 H1385 0.930 . S
C1374 C1370 1.524 . S
C1374 H1386 0.956 . S
C1374 H1387 0.961 . S
C1374 H1388 0.961 . S
C1375 C1372 1.539 . S
C1375 H1389 0.958 . S
C1375 H1390 0.961 . S
C1375 H1391 0.960 . S
H1376 C1360 0.931 . S
H1377 C1365 0.929 . S
H1378 C1366 0.960 . S
H1379 C1366 0.962 . S
H1380 C1366 0.960 . S
H1381 C1367 0.961 . S
H1382 C1367 0.961 . S
H1383 C1367 0.961 . S
H1384 C1368 0.931 . S
H1385 C1373 0.930 . S
H1386 C1374 0.956 . S
H1387 C1374 0.961 . S
H1388 C1374 0.961 . S
H1389 C1375 0.958 . S
H1390 C1375 0.961 . S
H1391 C1375 0.960 . S
C1392 C1393 1.391 . S
C1392 C1394 1.394 . S
C1392 H1408 0.931 . S
C1393 C1392 1.391 . S
C1393 C1397 1.376 . S
C1394 C1392 1.394 . S
C1394 C1395 1.369 . S
C1394 C1398 1.531 . S
C1395 C1394 1.369 . S
C1395 C1396 1.410 . S
C1395 C1403 1.503 . S
C1396 C1395 1.410 . S
C1396 C1397 1.392 . S
C1396 C1399 1.511 . S
C1397 C1393 1.376 . S
C1397 C1396 1.392 . S
C1397 H1409 0.929 . S
C1398 C1394 1.531 . S
C1398 H1410 0.960 . S
C1398 H1411 0.962 . S
C1398 H1412 0.960 . S
C1399 C1396 1.511 . S
C1399 H1413 0.961 . S
C1399 H1414 0.961 . S
C1399 H1415 0.961 . S
C1400 C1401 1.370 . S
C1400 C1402 1.363 . S
C1400 H1416 0.931 . S
C1401 C1400 1.370 . S
C1401 C1405 1.408 . S
C1402 C1400 1.363 . S
C1402 C1403 1.370 . S
C1402 C1406 1.524 . S
C1403 C1395 1.503 . S
C1403 C1402 1.370 . S
C1403 C1404 1.403 . S
C1404 C1403 1.403 . S
C1404 C1405 1.404 . S
C1404 C1407 1.539 . S
C1405 C1401 1.408 . S
C1405 C1404 1.404 . S
C1405 H1417 0.930 . S
C1406 C1402 1.524 . S
C1406 H1418 0.956 . S
C1406 H1419 0.961 . S
C1406 H1420 0.961 . S
C1407 C1404 1.539 . S
C1407 H1421 0.958 . S
C1407 H1422 0.961 . S
C1407 H1423 0.960 . S
H1408 C1392 0.931 . S
H1409 C1397 0.929 . S
H1410 C1398 0.960 . S
H1411 C1398 0.962 . S
H1412 C1398 0.960 . S
H1413 C1399 0.961 . S
H1414 C1399 0.961 . S
H1415 C1399 0.961 . S
H1416 C1400 0.931 . S
H1417 C1405 0.930 . S
H1418 C1406 0.956 . S
H1419 C1406 0.961 . S
H1420 C1406 0.961 . S
H1421 C1407 0.958 . S
H1422 C1407 0.961 . S
H1423 C1407 0.960 . S
C1424 C1425 1.391 . S
C1424 C1426 1.394 . S
C1424 H1440 0.931 . S
C1425 C1424 1.391 . S
C1425 C1429 1.376 . S
C1426 C1424 1.394 . S
C1426 C1427 1.369 . S
C1426 C1430 1.531 . S
C1427 C1426 1.369 . S
C1427 C1428 1.410 . S
C1427 C1435 1.503 . S
C1428 C1427 1.410 . S
C1428 C1429 1.392 . S
C1428 C1431 1.511 . S
C1429 C1425 1.376 . S
C1429 C1428 1.392 . S
C1429 H1441 0.929 . S
C1430 C1426 1.531 . S
C1430 H1442 0.960 . S
C1430 H1443 0.962 . S
C1430 H1444 0.960 . S
C1431 C1428 1.511 . S
C1431 H1445 0.961 . S
C1431 H1446 0.961 . S
C1431 H1447 0.961 . S
C1432 C1433 1.370 . S
C1432 C1434 1.363 . S
C1432 H1448 0.931 . S
C1433 C1432 1.370 . S
C1433 C1437 1.408 1_455 S
C1434 C1432 1.363 . S
C1434 C1435 1.370 . S
C1434 C1438 1.524 . S
C1435 C1427 1.503 . S
C1435 C1434 1.370 . S
C1435 C1436 1.403 1_455 S
C1436 C1435 1.403 1_655 S
C1436 C1437 1.404 . S
C1436 C1439 1.539 . S
C1437 C1433 1.408 1_655 S
C1437 C1436 1.404 . S
C1437 H1449 0.930 . S
C1438 C1434 1.524 . S
C1438 H1450 0.956 . S
C1438 H1451 0.961 . S
C1438 H1452 0.961 . S
C1439 C1436 1.539 . S
C1439 H1453 0.958 . S
C1439 H1454 0.961 . S
C1439 H1455 0.960 . S
H1440 C1424 0.931 . S
H1441 C1429 0.929 . S
H1442 C1430 0.960 . S
H1443 C1430 0.962 . S
H1444 C1430 0.960 . S
H1445 C1431 0.961 . S
H1446 C1431 0.961 . S
H1447 C1431 0.961 . S
H1448 C1432 0.931 . S
H1449 C1437 0.930 . S
H1450 C1438 0.956 . S
H1451 C1438 0.961 . S
H1452 C1438 0.961 . S
H1453 C1439 0.958 . S
H1454 C1439 0.961 . S
H1455 C1439 0.960 . S
C1456 C1457 1.391 . S
C1456 C1458 1.394 . S
C1456 H1472 0.931 . S
C1457 C1456 1.391 . S
C1457 C1461 1.376 . S
C1458 C1456 1.394 . S
C1458 C1459 1.369 . S
C1458 C1462 1.531 . S
C1459 C1458 1.369 . S
C1459 C1460 1.410 . S
C1459 C1467 1.503 . S
C1460 C1459 1.410 . S
C1460 C1461 1.392 . S
C1460 C1463 1.511 . S
C1461 C1457 1.376 . S
C1461 C1460 1.392 . S
C1461 H1473 0.929 . S
C1462 C1458 1.531 . S
C1462 H1474 0.960 . S
C1462 H1475 0.962 . S
C1462 H1476 0.960 . S
C1463 C1460 1.511 . S
C1463 H1477 0.961 . S
C1463 H1478 0.961 . S
C1463 H1479 0.961 . S
C1464 C1465 1.370 . S
C1464 C1466 1.363 . S
C1464 H1480 0.931 . S
C1465 C1464 1.370 . S
C1465 C1469 1.408 . S
C1466 C1464 1.363 . S
C1466 C1467 1.370 . S
C1466 C1470 1.524 . S
C1467 C1459 1.503 . S
C1467 C1466 1.370 . S
C1467 C1468 1.403 . S
C1468 C1467 1.403 . S
C1468 C1469 1.404 . S
C1468 C1471 1.539 . S
C1469 C1465 1.408 . S
C1469 C1468 1.404 . S
C1469 H1481 0.930 . S
C1470 C1466 1.524 . S
C1470 H1482 0.956 . S
C1470 H1483 0.961 . S
C1470 H1484 0.961 . S
C1471 C1468 1.539 . S
C1471 H1485 0.958 . S
C1471 H1486 0.961 . S
C1471 H1487 0.960 . S
H1472 C1456 0.931 . S
H1473 C1461 0.929 . S
H1474 C1462 0.960 . S
H1475 C1462 0.962 . S
H1476 C1462 0.960 . S
H1477 C1463 0.961 . S
H1478 C1463 0.961 . S
H1479 C1463 0.961 . S
H1480 C1464 0.931 . S
H1481 C1469 0.930 . S
H1482 C1470 0.956 . S
H1483 C1470 0.961 . S
H1484 C1470 0.961 . S
H1485 C1471 0.958 . S
H1486 C1471 0.961 . S
H1487 C1471 0.960 . S
C1488 C1489 1.391 . S
C1488 C1490 1.394 . S
C1488 H1504 0.931 . S
C1489 C1488 1.391 . S
C1489 C1493 1.376 . S
C1490 C1488 1.394 . S
C1490 C1491 1.369 . S
C1490 C1494 1.531 . S
C1491 C1490 1.369 . S
C1491 C1492 1.410 . S
C1491 C1499 1.503 . S
C1492 C1491 1.410 . S
C1492 C1493 1.392 . S
C1492 C1495 1.511 . S
C1493 C1489 1.376 . S
C1493 C1492 1.392 . S
C1493 H1505 0.929 . S
C1494 C1490 1.531 . S
C1494 H1506 0.960 . S
C1494 H1507 0.962 . S
C1494 H1508 0.960 . S
C1495 C1492 1.511 . S
C1495 H1509 0.961 . S
C1495 H1510 0.961 . S
C1495 H1511 0.961 . S
C1496 C1497 1.370 . S
C1496 C1498 1.363 . S
C1496 H1512 0.931 . S
C1497 C1496 1.370 . S
C1497 C1501 1.408 . S
C1498 C1496 1.363 . S
C1498 C1499 1.370 . S
C1498 C1502 1.524 . S
C1499 C1491 1.503 . S
C1499 C1498 1.370 . S
C1499 C1500 1.403 . S
C1500 C1499 1.403 . S
C1500 C1501 1.404 . S
C1500 C1503 1.539 . S
C1501 C1497 1.408 . S
C1501 C1500 1.404 . S
C1501 H1513 0.930 . S
C1502 C1498 1.524 . S
C1502 H1514 0.956 . S
C1502 H1515 0.961 . S
C1502 H1516 0.961 . S
C1503 C1500 1.539 . S
C1503 H1517 0.958 . S
C1503 H1518 0.961 . S
C1503 H1519 0.960 . S
H1504 C1488 0.931 . S
H1505 C1493 0.929 . S
H1506 C1494 0.960 . S
H1507 C1494 0.962 . S
H1508 C1494 0.960 . S
H1509 C1495 0.961 . S
H1510 C1495 0.961 . S
H1511 C1495 0.961 . S
H1512 C1496 0.931 . S
H1513 C1501 0.930 . S
H1514 C1502 0.956 . S
H1515 C1502 0.961 . S
H1516 C1502 0.961 . S
H1517 C1503 0.958 . S
H1518 C1503 0.961 . S
H1519 C1503 0.960 . S
C1520 C1521 1.391 . S
C1520 C1522 1.394 . S
C1520 H1536 0.931 . S
C1521 C1520 1.391 . S
C1521 C1525 1.376 . S
C1522 C1520 1.394 . S
C1522 C1523 1.369 . S
C1522 C1526 1.531 . S
C1523 C1522 1.369 . S
C1523 C1524 1.410 . S
C1523 C1531 1.503 . S
C1524 C1523 1.410 . S
C1524 C1525 1.392 . S
C1524 C1527 1.511 . S
C1525 C1521 1.376 . S
C1525 C1524 1.392 . S
C1525 H1537 0.929 . S
C1526 C1522 1.531 . S
C1526 H1538 0.960 . S
C1526 H1539 0.962 . S
C1526 H1540 0.960 . S
C1527 C1524 1.511 . S
C1527 H1541 0.961 . S
C1527 H1542 0.961 . S
C1527 H1543 0.961 . S
C1528 C1529 1.370 . S
C1528 C1530 1.363 . S
C1528 H1544 0.931 . S
C1529 C1528 1.370 . S
C1529 C1533 1.408 . S
C1530 C1528 1.363 . S
C1530 C1531 1.370 . S
C1530 C1534 1.524 . S
C1531 C1523 1.503 . S
C1531 C1530 1.370 . S
C1531 C1532 1.403 . S
C1532 C1531 1.403 . S
C1532 C1533 1.404 . S
C1532 C1535 1.539 . S
C1533 C1529 1.408 . S
C1533 C1532 1.404 . S
C1533 H1545 0.930 . S
C1534 C1530 1.524 . S
C1534 H1546 0.956 . S
C1534 H1547 0.961 . S
C1534 H1548 0.961 . S
C1535 C1532 1.539 . S
C1535 H1549 0.958 . S
C1535 H1550 0.961 . S
C1535 H1551 0.960 . S
H1536 C1520 0.931 . S
H1537 C1525 0.929 . S
H1538 C1526 0.960 . S
H1539 C1526 0.962 . S
H1540 C1526 0.960 . S
H1541 C1527 0.961 . S
H1542 C1527 0.961 . S
H1543 C1527 0.961 . S
H1544 C1528 0.931 . S
H1545 C1533 0.930 . S
H1546 C1534 0.956 . S
H1547 C1534 0.961 . S
H1548 C1534 0.961 . S
H1549 C1535 0.958 . S
H1550 C1535 0.961 . S
H1551 C1535 0.960 . S
C1552 C1553 1.391 1_655 S
C1552 C1554 1.394 . S
C1552 H1568 0.931 . S
C1553 C1552 1.391 1_455 S
C1553 C1557 1.376 . S
C1554 C1552 1.394 . S
C1554 C1555 1.369 1_655 S
C1554 C1558 1.531 . S
C1555 C1554 1.369 1_455 S
C1555 C1556 1.410 . S
C1555 C1563 1.503 . S
C1556 C1555 1.410 . S
C1556 C1557 1.392 . S
C1556 C1559 1.511 . S
C1557 C1553 1.376 . S
C1557 C1556 1.392 . S
C1557 H1569 0.929 . S
C1558 C1554 1.531 . S
C1558 H1570 0.960 . S
C1558 H1571 0.962 . S
C1558 H1572 0.960 . S
C1559 C1556 1.511 . S
C1559 H1573 0.961 . S
C1559 H1574 0.961 . S
C1559 H1575 0.961 . S
C1560 C1561 1.370 1_655 S
C1560 C1562 1.364 . S
C1560 H1576 0.931 . S
C1561 C1560 1.370 1_455 S
C1561 C1565 1.408 . S
C1562 C1560 1.364 . S
C1562 C1563 1.359 1_655 S
C1562 C1566 1.536 . S
C1563 C1555 1.503 . S
C1563 C1562 1.359 1_455 S
C1563 C1564 1.403 . S
C1564 C1563 1.403 . S
C1564 C1565 1.404 . S
C1564 C1567 1.539 . S
C1565 C1561 1.408 . S
C1565 C1564 1.404 . S
C1565 H1577 0.930 . S
C1566 C1562 1.536 . S
C1566 H1578 0.956 . S
C1566 H1579 0.961 1_655 S
C1566 H1580 0.961 . S
C1567 C1564 1.539 . S
C1567 H1581 0.958 . S
C1567 H1582 0.961 . S
C1567 H1583 0.960 . S
H1568 C1552 0.931 . S
H1569 C1557 0.929 . S
H1570 C1558 0.960 . S
H1571 C1558 0.962 . S
H1572 C1558 0.960 . S
H1573 C1559 0.961 . S
H1574 C1559 0.961 . S
H1575 C1559 0.961 . S
H1576 C1560 0.931 . S
H1577 C1565 0.930 . S
H1578 C1566 0.956 . S
H1579 C1566 0.961 1_455 S
H1580 C1566 0.961 . S
H1581 C1567 0.958 . S
H1582 C1567 0.961 . S
H1583 C1567 0.960 . S
C1584 C1585 1.391 . S
C1584 C1586 1.394 . S
C1584 H1600 0.931 . S
C1585 C1584 1.391 . S
C1585 C1589 1.376 . S
C1586 C1584 1.394 . S
C1586 C1587 1.369 . S
C1586 C1590 1.531 . S
C1587 C1586 1.369 . S
C1587 C1588 1.410 . S
C1587 C1595 1.503 . S
C1588 C1587 1.410 . S
C1588 C1589 1.392 . S
C1588 C1591 1.511 . S
C1589 C1585 1.376 . S
C1589 C1588 1.392 . S
C1589 H1601 0.929 . S
C1590 C1586 1.531 . S
C1590 H1602 0.960 . S
C1590 H1603 0.962 . S
C1590 H1604 0.960 . S
C1591 C1588 1.511 . S
C1591 H1605 0.961 . S
C1591 H1606 0.961 . S
C1591 H1607 0.961 . S
C1592 C1593 1.370 . S
C1592 C1594 1.363 . S
C1592 H1608 0.931 . S
C1593 C1592 1.370 . S
C1593 C1597 1.408 . S
C1594 C1592 1.363 . S
C1594 C1595 1.370 . S
C1594 C1598 1.524 . S
C1595 C1587 1.503 . S
C1595 C1594 1.370 . S
C1595 C1596 1.403 . S
C1596 C1595 1.403 . S
C1596 C1597 1.404 . S
C1596 C1599 1.539 . S
C1597 C1593 1.408 . S
C1597 C1596 1.404 . S
C1597 H1609 0.930 . S
C1598 C1594 1.524 . S
C1598 H1610 0.956 . S
C1598 H1611 0.961 . S
C1598 H1612 0.961 . S
C1599 C1596 1.539 . S
C1599 H1613 0.958 . S
C1599 H1614 0.961 . S
C1599 H1615 0.960 . S
H1600 C1584 0.931 . S
H1601 C1589 0.929 . S
H1602 C1590 0.960 . S
H1603 C1590 0.962 . S
H1604 C1590 0.960 . S
H1605 C1591 0.961 . S
H1606 C1591 0.961 . S
H1607 C1591 0.961 . S
H1608 C1592 0.931 . S
H1609 C1597 0.930 . S
H1610 C1598 0.956 . S
H1611 C1598 0.961 . S
H1612 C1598 0.961 . S
H1613 C1599 0.958 . S
H1614 C1599 0.961 . S
H1615 C1599 0.960 . S
C1616 C1617 1.391 . S
C1616 C1618 1.394 . S
C1616 H1632 0.931 . S
C1617 C1616 1.391 . S
C1617 C1621 1.376 . S
C1618 C1616 1.394 . S
C1618 C1619 1.369 . S
C1618 C1622 1.531 . S
C1619 C1618 1.369 . S
C1619 C1620 1.410 . S
C1619 C1627 1.503 . S
C1620 C1619 1.410 . S
C1620 C1621 1.392 . S
C1620 C1623 1.511 . S
C1621 C1617 1.376 . S
C1621 C1620 1.392 . S
C1621 H1633 0.929 . S
C1622 C1618 1.531 . S
C1622 H1634 0.960 . S
C1622 H1635 0.962 . S
C1622 H1636 0.960 . S
C1623 C1620 1.511 . S
C1623 H1637 0.961 . S
C1623 H1638 0.961 . S
C1623 H1639 0.961 . S
C1624 C1625 1.370 . S
C1624 C1626 1.363 . S
C1624 H1640 0.931 . S
C1625 C1624 1.370 . S
C1625 C1629 1.408 . S
C1626 C1624 1.363 . S
C1626 C1627 1.370 . S
C1626 C1630 1.524 . S
C1627 C1619 1.503 . S
C1627 C1626 1.370 . S
C1627 C1628 1.403 . S
C1628 C1627 1.403 . S
C1628 C1629 1.404 . S
C1628 C1631 1.539 . S
C1629 C1625 1.408 . S
C1629 C1628 1.404 . S
C1629 H1641 0.930 . S
C1630 C1626 1.524 . S
C1630 H1642 0.956 . S
C1630 H1643 0.961 . S
C1630 H1644 0.961 . S
C1631 C1628 1.539 . S
C1631 H1645 0.958 . S
C1631 H1646 0.961 . S
C1631 H1647 0.960 . S
H1632 C1616 0.931 . S
H1633 C1621 0.929 . S
H1634 C1622 0.960 . S
H1635 C1622 0.962 . S
H1636 C1622 0.960 . S
H1637 C1623 0.961 . S
H1638 C1623 0.961 . S
H1639 C1623 0.961 . S
H1640 C1624 0.931 . S
H1641 C1629 0.930 . S
H1642 C1630 0.956 . S
H1643 C1630 0.961 . S
H1644 C1630 0.961 . S
H1645 C1631 0.958 . S
H1646 C1631 0.961 . S
H1647 C1631 0.960 . S
C1648 C1649 1.391 . S
C1648 C1650 1.394 . S
C1648 H1664 0.931 . S
C1649 C1648 1.391 . S
C1649 C1653 1.376 . S
C1650 C1648 1.394 . S
C1650 C1651 1.369 . S
C1650 C1654 1.531 . S
C1651 C1650 1.369 . S
C1651 C1652 1.410 . S
C1651 C1659 1.503 . S
C1652 C1651 1.410 . S
C1652 C1653 1.392 . S
C1652 C1655 1.511 . S
C1653 C1649 1.376 . S
C1653 C1652 1.392 . S
C1653 H1665 0.929 . S
C1654 C1650 1.531 . S
C1654 H1666 0.960 . S
C1654 H1667 0.962 . S
C1654 H1668 0.960 . S
C1655 C1652 1.511 . S
C1655 H1669 0.961 . S
C1655 H1670 0.961 . S
C1655 H1671 0.961 . S
C1656 C1657 1.370 . S
C1656 C1658 1.363 . S
C1656 H1672 0.931 . S
C1657 C1656 1.370 . S
C1657 C1661 1.408 . S
C1658 C1656 1.363 . S
C1658 C1659 1.370 . S
C1658 C1662 1.524 . S
C1659 C1651 1.503 . S
C1659 C1658 1.370 . S
C1659 C1660 1.403 . S
C1660 C1659 1.403 . S
C1660 C1661 1.404 . S
C1660 C1663 1.539 . S
C1661 C1657 1.408 . S
C1661 C1660 1.404 . S
C1661 H1673 0.930 . S
C1662 C1658 1.524 . S
C1662 H1674 0.956 . S
C1662 H1675 0.961 . S
C1662 H1676 0.961 . S
C1663 C1660 1.539 . S
C1663 H1677 0.958 . S
C1663 H1678 0.961 . S
C1663 H1679 0.960 . S
H1664 C1648 0.931 . S
H1665 C1653 0.929 . S
H1666 C1654 0.960 . S
H1667 C1654 0.962 . S
H1668 C1654 0.960 . S
H1669 C1655 0.961 . S
H1670 C1655 0.961 . S
H1671 C1655 0.961 . S
H1672 C1656 0.931 . S
H1673 C1661 0.930 . S
H1674 C1662 0.956 . S
H1675 C1662 0.961 . S
H1676 C1662 0.961 . S
H1677 C1663 0.958 . S
H1678 C1663 0.961 . S
H1679 C1663 0.960 . S
C1680 C1681 1.391 . S
C1680 C1682 1.394 . S
C1680 H1696 0.931 . S
C1681 C1680 1.391 . S
C1681 C1685 1.376 1_545 S
C1682 C1680 1.394 . S
C1682 C1683 1.369 . S
C1682 C1686 1.531 . S
C1683 C1682 1.369 . S
C1683 C1684 1.410 1_545 S
C1683 C1691 1.503 . S
C1684 C1683 1.410 1_565 S
C1684 C1685 1.392 . S
C1684 C1687 1.511 . S
C1685 C1681 1.376 1_565 S
C1685 C1684 1.392 . S
C1685 H1697 0.929 . S
C1686 C1682 1.531 . S
C1686 H1698 0.960 . S
C1686 H1699 0.962 . S
C1686 H1700 0.960 . S
C1687 C1684 1.511 . S
C1687 H1701 0.961 . S
C1687 H1702 0.961 . S
C1687 H1703 0.961 . S
C1688 C1689 1.370 . S
C1688 C1690 1.363 . S
C1688 H1704 0.931 1_545 S
C1689 C1688 1.370 . S
C1689 C1693 1.408 . S
C1690 C1688 1.363 . S
C1690 C1691 1.370 . S
C1690 C1694 1.524 1_545 S
C1691 C1683 1.503 . S
C1691 C1690 1.370 . S
C1691 C1692 1.403 . S
C1692 C1691 1.403 . S
C1692 C1693 1.404 . S
C1692 C1695 1.539 . S
C1693 C1689 1.408 . S
C1693 C1692 1.404 . S
C1693 H1705 0.930 . S
C1694 C1690 1.524 1_565 S
C1694 H1706 0.956 1_565 S
C1694 H1707 0.961 . S
C1694 H1708 0.961 . S
C1695 C1692 1.539 . S
C1695 H1709 0.958 . S
C1695 H1710 0.961 . S
C1695 H1711 0.960 . S
H1696 C1680 0.931 . S
H1697 C1685 0.929 . S
H1698 C1686 0.960 . S
H1699 C1686 0.962 . S
H1700 C1686 0.960 . S
H1701 C1687 0.961 . S
H1702 C1687 0.961 . S
H1703 C1687 0.961 . S
H1704 C1688 0.931 1_565 S
H1705 C1693 0.930 . S
H1706 C1694 0.956 1_545 S
H1707 C1694 0.961 . S
H1708 C1694 0.961 . S
H1709 C1695 0.958 . S
H1710 C1695 0.961 . S
H1711 C1695 0.960 . S
C1712 C1713 1.391 . S
C1712 C1714 1.394 . S
C1712 H1728 0.931 . S
C1713 C1712 1.391 . S
C1713 C1717 1.376 . S
C1714 C1712 1.394 . S
C1714 C1715 1.369 . S
C1714 C1718 1.531 . S
C1715 C1714 1.369 . S
C1715 C1716 1.410 . S
C1715 C1723 1.503 . S
C1716 C1715 1.410 . S
C1716 C1717 1.392 . S
C1716 C1719 1.511 . S
C1717 C1713 1.376 . S
C1717 C1716 1.392 . S
C1717 H1729 0.929 . S
C1718 C1714 1.531 . S
C1718 H1730 0.960 . S
C1718 H1731 0.962 . S
C1718 H1732 0.960 . S
C1719 C1716 1.511 . S
C1719 H1733 0.961 . S
C1719 H1734 0.961 . S
C1719 H1735 0.961 . S
C1720 C1721 1.370 . S
C1720 C1722 1.363 . S
C1720 H1736 0.931 . S
C1721 C1720 1.370 . S
C1721 C1725 1.408 . S
C1722 C1720 1.363 . S
C1722 C1723 1.370 . S
C1722 C1726 1.524 . S
C1723 C1715 1.503 . S
C1723 C1722 1.370 . S
C1723 C1724 1.403 . S
C1724 C1723 1.403 . S
C1724 C1725 1.404 . S
C1724 C1727 1.539 . S
C1725 C1721 1.408 . S
C1725 C1724 1.404 . S
C1725 H1737 0.930 . S
C1726 C1722 1.524 . S
C1726 H1738 0.956 . S
C1726 H1739 0.961 . S
C1726 H1740 0.961 . S
C1727 C1724 1.539 . S
C1727 H1741 0.958 . S
C1727 H1742 0.961 . S
C1727 H1743 0.960 . S
H1728 C1712 0.931 . S
H1729 C1717 0.929 . S
H1730 C1718 0.960 . S
H1731 C1718 0.962 . S
H1732 C1718 0.960 . S
H1733 C1719 0.961 . S
H1734 C1719 0.961 . S
H1735 C1719 0.961 . S
H1736 C1720 0.931 . S
H1737 C1725 0.930 . S
H1738 C1726 0.956 . S
H1739 C1726 0.961 . S
H1740 C1726 0.961 . S
H1741 C1727 0.958 . S
H1742 C1727 0.961 . S
H1743 C1727 0.960 . S
C1744 C1745 1.391 . S
C1744 C1746 1.394 . S
C1744 H1760 0.931 . S
C1745 C1744 1.391 . S
C1745 C1749 1.376 . S
C1746 C1744 1.394 . S
C1746 C1747 1.369 . S
C1746 C1750 1.531 . S
C1747 C1746 1.369 . S
C1747 C1748 1.410 . S
C1747 C1755 1.503 . S
C1748 C1747 1.410 . S
C1748 C1749 1.392 . S
C1748 C1751 1.511 1_545 S
C1749 C1745 1.376 . S
C1749 C1748 1.392 . S
C1749 H1761 0.929 . S
C1750 C1746 1.531 . S
C1750 H1762 0.960 . S
C1750 H1763 0.962 . S
C1750 H1764 0.960 . S
C1751 C1748 1.511 1_565 S
C1751 H1765 0.961 . S
C1751 H1766 0.961 . S
C1751 H1767 0.961 1_565 S
C1752 C1753 1.370 . S
C1752 C1754 1.363 . S
C1752 H1768 0.931 . S
C1753 C1752 1.370 . S
C1753 C1757 1.408 . S
C1754 C1752 1.363 . S
C1754 C1755 1.370 . S
C1754 C1758 1.524 1_545 S
C1755 C1747 1.503 . S
C1755 C1754 1.370 . S
C1755 C1756 1.403 . S
C1756 C1755 1.403 . S
C1756 C1757 1.404 . S
C1756 C1759 1.539 . S
C1757 C1753 1.408 . S
C1757 C1756 1.404 . S
C1757 H1769 0.930 . S
C1758 C1754 1.524 1_565 S
C1758 H1770 0.956 1_565 S
C1758 H1771 0.961 . S
C1758 H1772 0.961 . S
C1759 C1756 1.539 . S
C1759 H1773 0.958 . S
C1759 H1774 0.961 . S
C1759 H1775 0.960 . S
H1760 C1744 0.931 . S
H1761 C1749 0.929 . S
H1762 C1750 0.960 . S
H1763 C1750 0.962 . S
H1764 C1750 0.960 . S
H1765 C1751 0.961 . S
H1766 C1751 0.961 . S
H1767 C1751 0.961 1_545 S
H1768 C1752 0.931 . S
H1769 C1757 0.930 . S
H1770 C1758 0.956 1_545 S
H1771 C1758 0.961 . S
H1772 C1758 0.961 . S
H1773 C1759 0.958 . S
H1774 C1759 0.961 . S
H1775 C1759 0.960 . S
C1776 C1777 1.391 . S
C1776 C1778 1.394 . S
C1776 H1792 0.931 . S
C1777 C1776 1.391 . S
C1777 C1781 1.376 . S
C1778 C1776 1.394 . S
C1778 C1779 1.369 . S
C1778 C1782 1.531 . S
C1779 C1778 1.369 . S
C1779 C1780 1.410 . S
C1779 C1787 1.503 . S
C1780 C1779 1.410 . S
C1780 C1781 1.392 . S
C1780 C1783 1.511 . S
C1781 C1777 1.376 . S
C1781 C1780 1.392 . S
C1781 H1793 0.929 . S
C1782 C1778 1.531 . S
C1782 H1794 0.960 . S
C1782 H1795 0.962 . S
C1782 H1796 0.960 . S
C1783 C1780 1.511 . S
C1783 H1797 0.961 . S
C1783 H1798 0.961 . S
C1783 H1799 0.961 . S
C1784 C1785 1.370 . S
C1784 C1786 1.363 . S
C1784 H1800 0.931 . S
C1785 C1784 1.370 . S
C1785 C1789 1.408 . S
C1786 C1784 1.363 . S
C1786 C1787 1.370 . S
C1786 C1790 1.524 . S
C1787 C1779 1.503 . S
C1787 C1786 1.370 . S
C1787 C1788 1.403 . S
C1788 C1787 1.403 . S
C1788 C1789 1.404 . S
C1788 C1791 1.539 . S
C1789 C1785 1.408 . S
C1789 C1788 1.404 . S
C1789 H1801 0.930 . S
C1790 C1786 1.524 . S
C1790 H1802 0.956 . S
C1790 H1803 0.961 . S
C1790 H1804 0.961 . S
C1791 C1788 1.539 . S
C1791 H1805 0.958 . S
C1791 H1806 0.961 . S
C1791 H1807 0.960 . S
H1792 C1776 0.931 . S
H1793 C1781 0.929 . S
H1794 C1782 0.960 . S
H1795 C1782 0.962 . S
H1796 C1782 0.960 . S
H1797 C1783 0.961 . S
H1798 C1783 0.961 . S
H1799 C1783 0.961 . S
H1800 C1784 0.931 . S
H1801 C1789 0.930 . S
H1802 C1790 0.956 . S
H1803 C1790 0.961 . S
H1804 C1790 0.961 . S
H1805 C1791 0.958 . S
H1806 C1791 0.961 . S
H1807 C1791 0.960 . S
C1808 C1809 1.391 1_545 S
C1808 C1810 1.394 . S
C1808 H1824 0.931 . S
C1809 C1808 1.391 1_565 S
C1809 C1813 1.376 . S
C1810 C1808 1.394 . S
C1810 C1811 1.369 . S
C1810 C1814 1.531 . S
C1811 C1810 1.369 . S
C1811 C1812 1.429 . S
C1811 C1819 1.503 . S
C1812 C1811 1.429 . S
C1812 C1813 1.377 1_545 S
C1812 C1815 1.508 1_545 S
C1813 C1809 1.376 . S
C1813 C1812 1.377 1_565 S
C1813 H1825 0.929 . S
C1814 C1810 1.531 . S
C1814 H1826 0.960 . S
C1814 H1827 0.962 . S
C1814 H1828 0.960 . S
C1815 C1812 1.508 1_565 S
C1815 H1829 0.961 . S
C1815 H1830 0.961 . S
C1815 H1831 0.961 1_565 S
C1816 C1817 1.370 1_565 S
C1816 C1818 1.363 . S
C1816 H1832 0.931 . S
C1817 C1816 1.370 1_545 S
C1817 C1821 1.408 . S
C1818 C1816 1.363 . S
C1818 C1819 1.370 1_565 S
C1818 C1822 1.524 . S
C1819 C1811 1.503 . S
C1819 C1818 1.370 1_545 S
C1819 C1820 1.403 . S
C1820 C1819 1.403 . S
C1820 C1821 1.404 . S
C1820 C1823 1.539 . S
C1821 C1817 1.408 . S
C1821 C1820 1.404 . S
C1821 H1833 0.930 . S
C1822 C1818 1.524 . S
C1822 H1834 0.956 . S
C1822 H1835 0.961 . S
C1822 H1836 0.961 . S
C1823 C1820 1.539 . S
C1823 H1837 0.958 . S
C1823 H1838 0.961 . S
C1823 H1839 0.960 . S
H1824 C1808 0.931 . S
H1825 C1813 0.929 . S
H1826 C1814 0.960 . S
H1827 C1814 0.962 . S
H1828 C1814 0.960 . S
H1829 C1815 0.961 . S
H1830 C1815 0.961 . S
H1831 C1815 0.961 1_545 S
H1832 C1816 0.931 . S
H1833 C1821 0.930 . S
H1834 C1822 0.956 . S
H1835 C1822 0.961 . S
H1836 C1822 0.961 . S
H1837 C1823 0.958 . S
H1838 C1823 0.961 . S
H1839 C1823 0.960 . S
C1840 C1841 1.391 . S
C1840 C1842 1.394 . S
C1840 H1856 0.931 . S
C1841 C1840 1.391 . S
C1841 C1845 1.376 . S
C1842 C1840 1.394 . S
C1842 C1843 1.369 . S
C1842 C1846 1.531 . S
C1843 C1842 1.369 . S
C1843 C1844 1.410 . S
C1843 C1851 1.503 . S
C1844 C1843 1.410 . S
C1844 C1845 1.392 . S
C1844 C1847 1.511 . S
C1845 C1841 1.376 . S
C1845 C1844 1.392 . S
C1845 H1857 0.929 . S
C1846 C1842 1.531 . S
C1846 H1858 0.960 . S
C1846 H1859 0.962 . S
C1846 H1860 0.960 . S
C1847 C1844 1.511 . S
C1847 H1861 0.961 . S
C1847 H1862 0.961 . S
C1847 H1863 0.961 . S
C1848 C1849 1.370 . S
C1848 C1850 1.363 . S
C1848 H1864 0.931 . S
C1849 C1848 1.370 . S
C1849 C1853 1.408 . S
C1850 C1848 1.363 . S
C1850 C1851 1.370 . S
C1850 C1854 1.524 . S
C1851 C1843 1.503 . S
C1851 C1850 1.370 . S
C1851 C1852 1.403 . S
C1852 C1851 1.403 . S
C1852 C1853 1.404 . S
C1852 C1855 1.539 . S
C1853 C1849 1.408 . S
C1853 C1852 1.404 . S
C1853 H1865 0.930 . S
C1854 C1850 1.524 . S
C1854 H1866 0.956 . S
C1854 H1867 0.961 . S
C1854 H1868 0.961 . S
C1855 C1852 1.539 . S
C1855 H1869 0.958 . S
C1855 H1870 0.961 . S
C1855 H1871 0.960 . S
H1856 C1840 0.931 . S
H1857 C1845 0.929 . S
H1858 C1846 0.960 . S
H1859 C1846 0.962 . S
H1860 C1846 0.960 . S
H1861 C1847 0.961 . S
H1862 C1847 0.961 . S
H1863 C1847 0.961 . S
H1864 C1848 0.931 . S
H1865 C1853 0.930 . S
H1866 C1854 0.956 . S
H1867 C1854 0.961 . S
H1868 C1854 0.961 . S
H1869 C1855 0.958 . S
H1870 C1855 0.961 . S
H1871 C1855 0.960 . S
C1872 C1873 1.391 1_565 S
C1872 C1874 1.394 . S
C1872 H1888 0.931 . S
C1873 C1872 1.391 1_545 S
C1873 C1877 1.376 . S
C1874 C1872 1.394 . S
C1874 C1875 1.369 1_565 S
C1874 C1878 1.531 . S
C1875 C1874 1.369 1_545 S
C1875 C1876 1.410 . S
C1875 C1883 1.503 . S
C1876 C1875 1.410 . S
C1876 C1877 1.392 . S
C1876 C1879 1.511 . S
C1877 C1873 1.376 . S
C1877 C1876 1.392 . S
C1877 H1889 0.929 . S
C1878 C1874 1.531 . S
C1878 H1890 0.960 . S
C1878 H1891 0.962 . S
C1878 H1892 0.960 . S
C1879 C1876 1.511 . S
C1879 H1893 0.961 . S
C1879 H1894 0.961 . S
C1879 H1895 0.961 . S
C1880 C1881 1.370 . S
C1880 C1882 1.363 . S
C1880 H1896 0.931 . S
C1881 C1880 1.370 . S
C1881 C1885 1.406 . S
C1882 C1880 1.363 . S
C1882 C1883 1.370 . S
C1882 C1886 1.524 . S
C1883 C1875 1.503 . S
C1883 C1882 1.370 . S
C1883 C1884 1.403 . S
C1884 C1883 1.403 . S
C1884 C1885 1.407 . S
C1884 C1887 1.539 . S
C1885 C1881 1.406 . S
C1885 C1884 1.407 . S
C1885 H1897 0.930 1_545 S
C1886 C1882 1.524 . S
C1886 H1898 0.956 . S
C1886 H1899 0.961 . S
C1886 H1900 0.961 . S
C1887 C1884 1.539 . S
C1887 H1901 0.958 1_545 S
C1887 H1902 0.961 . S
C1887 H1903 0.960 . S
H1888 C1872 0.931 . S
H1889 C1877 0.929 . S
H1890 C1878 0.960 . S
H1891 C1878 0.962 . S
H1892 C1878 0.960 . S
H1893 C1879 0.961 . S
H1894 C1879 0.961 . S
H1895 C1879 0.961 . S
H1896 C1880 0.931 . S
H1897 C1885 0.930 1_565 S
H1898 C1886 0.956 . S
H1899 C1886 0.961 . S
H1900 C1886 0.961 . S
H1901 C1887 0.958 1_565 S
H1902 C1887 0.961 . S
H1903 C1887 0.960 . S
C1904 C1905 1.391 . S
C1904 C1906 1.394 . S
C1904 H1920 0.931 . S
C1905 C1904 1.391 . S
C1905 C1909 1.376 . S
C1906 C1904 1.394 . S
C1906 C1907 1.369 . S
C1906 C1910 1.531 . S
C1907 C1906 1.369 . S
C1907 C1908 1.410 . S
C1907 C1915 1.503 . S
C1908 C1907 1.410 . S
C1908 C1909 1.392 . S
C1908 C1911 1.511 . S
C1909 C1905 1.376 . S
C1909 C1908 1.392 . S
C1909 H1921 0.929 . S
C1910 C1906 1.531 . S
C1910 H1922 0.960 . S
C1910 H1923 0.962 . S
C1910 H1924 0.960 . S
C1911 C1908 1.511 . S
C1911 H1925 0.961 . S
C1911 H1926 0.961 . S
C1911 H1927 0.961 . S
C1912 C1913 1.370 . S
C1912 C1914 1.363 . S
C1912 H1928 0.931 . S
C1913 C1912 1.370 . S
C1913 C1917 1.408 . S
C1914 C1912 1.363 . S
C1914 C1915 1.370 . S
C1914 C1918 1.524 . S
C1915 C1907 1.503 . S
C1915 C1914 1.370 . S
C1915 C1916 1.403 . S
C1916 C1915 1.403 . S
C1916 C1917 1.404 . S
C1916 C1919 1.539 . S
C1917 C1913 1.408 . S
C1917 C1916 1.404 . S
C1917 H1929 0.930 . S
C1918 C1914 1.524 . S
C1918 H1930 0.956 . S
C1918 H1931 0.961 . S
C1918 H1932 0.961 . S
C1919 C1916 1.539 . S
C1919 H1933 0.958 . S
C1919 H1934 0.961 . S
C1919 H1935 0.960 . S
H1920 C1904 0.931 . S
H1921 C1909 0.929 . S
H1922 C1910 0.960 . S
H1923 C1910 0.962 . S
H1924 C1910 0.960 . S
H1925 C1911 0.961 . S
H1926 C1911 0.961 . S
H1927 C1911 0.961 . S
H1928 C1912 0.931 . S
H1929 C1917 0.930 . S
H1930 C1918 0.956 . S
H1931 C1918 0.961 . S
H1932 C1918 0.961 . S
H1933 C1919 0.958 . S
H1934 C1919 0.961 . S
H1935 C1919 0.960 . S
C1936 C1937 1.391 1_554 S
C1936 C1938 1.394 . S
C1936 H1952 0.931 . S
C1937 C1936 1.391 1_556 S
C1937 C1941 1.376 . S
C1938 C1936 1.394 . S
C1938 C1939 1.369 1_554 S
C1938 C1942 1.531 . S
C1939 C1938 1.369 1_556 S
C1939 C1940 1.410 . S
C1939 C1947 1.503 . S
C1940 C1939 1.410 . S
C1940 C1941 1.392 . S
C1940 C1943 1.511 . S
C1941 C1937 1.376 . S
C1941 C1940 1.392 . S
C1941 H1953 0.929 . S
C1942 C1938 1.531 . S
C1942 H1954 0.960 . S
C1942 H1955 0.962 . S
C1942 H1956 0.960 . S
C1943 C1940 1.511 . S
C1943 H1957 0.961 . S
C1943 H1958 0.961 . S
C1943 H1959 0.961 . S
C1944 C1945 1.370 . S
C1944 C1946 1.363 1_556 S
C1944 H1960 0.931 1_556 S
C1945 C1944 1.370 . S
C1945 C1949 1.408 . S
C1946 C1944 1.363 1_554 S
C1946 C1947 1.367 1_554 S
C1946 C1950 1.528 . S
C1947 C1939 1.503 . S
C1947 C1946 1.367 1_556 S
C1947 C1948 1.403 . S
C1948 C1947 1.403 . S
C1948 C1949 1.404 . S
C1948 C1951 1.539 . S
C1949 C1945 1.408 . S
C1949 C1948 1.404 . S
C1949 H1961 0.930 . S
C1950 C1946 1.528 . S
C1950 H1962 0.956 . S
C1950 H1963 0.961 . S
C1950 H1964 0.961 . S
C1951 C1948 1.539 . S
C1951 H1965 0.958 . S
C1951 H1966 0.961 . S
C1951 H1967 0.960 . S
H1952 C1936 0.931 . S
H1953 C1941 0.929 . S
H1954 C1942 0.960 . S
H1955 C1942 0.962 . S
H1956 C1942 0.960 . S
H1957 C1943 0.961 . S
H1958 C1943 0.961 . S
H1959 C1943 0.961 . S
H1960 C1944 0.931 1_554 S
H1961 C1949 0.930 . S
H1962 C1950 0.956 . S
H1963 C1950 0.961 . S
H1964 C1950 0.961 . S
H1965 C1951 0.958 . S
H1966 C1951 0.961 . S
H1967 C1951 0.960 . S
C1968 C1969 1.391 . S
C1968 C1970 1.394 . S
C1968 H1984 0.931 . S
C1969 C1968 1.391 . S
C1969 C1973 1.376 1_554 S
C1970 C1968 1.394 . S
C1970 C1971 1.369 . S
C1970 C1974 1.531 . S
C1971 C1970 1.369 . S
C1971 C1972 1.410 1_554 S
C1971 C1979 1.503 . S
C1972 C1971 1.410 1_556 S
C1972 C1973 1.392 . S
C1972 C1975 1.511 . S
C1973 C1969 1.376 1_556 S
C1973 C1972 1.392 . S
C1973 H1985 0.929 . S
C1974 C1970 1.531 . S
C1974 H1986 0.960 . S
C1974 H1987 0.962 . S
C1974 H1988 0.960 . S
C1975 C1972 1.511 . S
C1975 H1989 0.961 . S
C1975 H1990 0.961 . S
C1975 H1991 0.961 . S
C1976 C1977 1.370 . S
C1976 C1978 1.363 . S
C1976 H1992 0.931 . S
C1977 C1976 1.370 . S
C1977 C1981 1.408 . S
C1978 C1976 1.363 . S
C1978 C1979 1.370 . S
C1978 C1982 1.524 . S
C1979 C1971 1.503 . S
C1979 C1978 1.370 . S
C1979 C1980 1.416 . S
C1980 C1979 1.416 . S
C1980 C1981 1.402 . S
C1980 C1983 1.527 1_554 S
C1981 C1977 1.408 . S
C1981 C1980 1.402 . S
C1981 H1993 0.930 1_554 S
C1982 C1978 1.524 . S
C1982 H1994 0.956 . S
C1982 H1995 0.961 . S
C1982 H1996 0.961 . S
C1983 C1980 1.527 1_556 S
C1983 H1997 0.958 . S
C1983 H1998 0.961 . S
C1983 H1999 0.960 . S
H1984 C1968 0.931 . S
H1985 C1973 0.929 . S
H1986 C1974 0.960 . S
H1987 C1974 0.962 . S
H1988 C1974 0.960 . S
H1989 C1975 0.961 . S
H1990 C1975 0.961 . S
H1991 C1975 0.961 . S
H1992 C1976 0.931 . S
H1993 C1981 0.930 1_556 S
H1994 C1982 0.956 . S
H1995 C1982 0.961 . S
H1996 C1982 0.961 . S
H1997 C1983 0.958 . S
H1998 C1983 0.961 . S
H1999 C1983 0.960 . S
C2000 C2001 1.391 . S
C2000 C2002 1.394 . S
C2000 H2016 0.931 . S
C2001 C2000 1.391 . S
C2001 C2005 1.376 . S
C2002 C2000 1.394 . S
C2002 C2003 1.369 . S
C2002 C2006 1.531 . S
C2003 C2002 1.369 . S
C2003 C2004 1.410 . S
C2003 C2011 1.503 . S
C2004 C2003 1.410 . S
C2004 C2005 1.392 . S
C2004 C2007 1.511 . S
C2005 C2001 1.376 . S
C2005 C2004 1.392 . S
C2005 H2017 0.929 . S
C2006 C2002 1.531 . S
C2006 H2018 0.960 . S
C2006 H2019 0.962 . S
C2006 H2020 0.960 . S
C2007 C2004 1.511 . S
C2007 H2021 0.961 . S
C2007 H2022 0.961 . S
C2007 H2023 0.961 . S
C2008 C2009 1.370 . S
C2008 C2010 1.363 . S
C2008 H2024 0.931 . S
C2009 C2008 1.370 . S
C2009 C2013 1.408 . S
C2010 C2008 1.363 . S
C2010 C2011 1.370 . S
C2010 C2014 1.524 . S
C2011 C2003 1.503 . S
C2011 C2010 1.370 . S
C2011 C2012 1.403 . S
C2012 C2011 1.403 . S
C2012 C2013 1.404 . S
C2012 C2015 1.539 . S
C2013 C2009 1.408 . S
C2013 C2012 1.404 . S
C2013 H2025 0.930 . S
C2014 C2010 1.524 . S
C2014 H2026 0.956 . S
C2014 H2027 0.961 . S
C2014 H2028 0.961 . S
C2015 C2012 1.539 . S
C2015 H2029 0.958 . S
C2015 H2030 0.961 . S
C2015 H2031 0.960 . S
H2016 C2000 0.931 . S
H2017 C2005 0.929 . S
H2018 C2006 0.960 . S
H2019 C2006 0.962 . S
H2020 C2006 0.960 . S
H2021 C2007 0.961 . S
H2022 C2007 0.961 . S
H2023 C2007 0.961 . S
H2024 C2008 0.931 . S
H2025 C2013 0.930 . S
H2026 C2014 0.956 . S
H2027 C2014 0.961 . S
H2028 C2014 0.961 . S
H2029 C2015 0.958 . S
H2030 C2015 0.961 . S
H2031 C2015 0.960 . S
C2032 C2033 1.391 . S
C2032 C2034 1.394 . S
C2032 H2048 0.931 . S
C2033 C2032 1.391 . S
C2033 C2037 1.376 . S
C2034 C2032 1.394 . S
C2034 C2035 1.369 . S
C2034 C2038 1.531 . S
C2035 C2034 1.369 . S
C2035 C2036 1.410 . S
C2035 C2043 1.503 . S
C2036 C2035 1.410 . S
C2036 C2037 1.392 . S
C2036 C2039 1.511 . S
C2037 C2033 1.376 . S
C2037 C2036 1.392 . S
C2037 H2049 0.929 . S
C2038 C2034 1.531 . S
C2038 H2050 0.960 . S
C2038 H2051 0.962 . S
C2038 H2052 0.960 . S
C2039 C2036 1.511 . S
C2039 H2053 0.961 . S
C2039 H2054 0.961 . S
C2039 H2055 0.961 . S
C2040 C2041 1.370 . S
C2040 C2042 1.363 . S
C2040 H2056 0.931 . S
C2041 C2040 1.370 . S
C2041 C2045 1.408 . S
C2042 C2040 1.363 . S
C2042 C2043 1.370 . S
C2042 C2046 1.524 . S
C2043 C2035 1.503 . S
C2043 C2042 1.370 . S
C2043 C2044 1.403 . S
C2044 C2043 1.403 . S
C2044 C2045 1.404 . S
C2044 C2047 1.539 . S
C2045 C2041 1.408 . S
C2045 C2044 1.404 . S
C2045 H2057 0.930 . S
C2046 C2042 1.524 . S
C2046 H2058 0.956 . S
C2046 H2059 0.961 . S
C2046 H2060 0.961 . S
C2047 C2044 1.539 . S
C2047 H2061 0.958 . S
C2047 H2062 0.961 . S
C2047 H2063 0.960 . S
H2048 C2032 0.931 . S
H2049 C2037 0.929 . S
H2050 C2038 0.960 . S
H2051 C2038 0.962 . S
H2052 C2038 0.960 . S
H2053 C2039 0.961 . S
H2054 C2039 0.961 . S
H2055 C2039 0.961 . S
H2056 C2040 0.931 . S
H2057 C2045 0.930 . S
H2058 C2046 0.956 . S
H2059 C2046 0.961 . S
H2060 C2046 0.961 . S
H2061 C2047 0.958 . S
H2062 C2047 0.961 . S
H2063 C2047 0.960 . S
C2064 C2065 1.391 . S
C2064 C2066 1.394 . S
C2064 H2080 0.931 . S
C2065 C2064 1.391 . S
C2065 C2069 1.376 . S
C2066 C2064 1.394 . S
C2066 C2067 1.369 . S
C2066 C2070 1.531 . S
C2067 C2066 1.369 . S
C2067 C2068 1.410 . S
C2067 C2075 1.503 . S
C2068 C2067 1.410 . S
C2068 C2069 1.392 . S
C2068 C2071 1.511 . S
C2069 C2065 1.376 . S
C2069 C2068 1.392 . S
C2069 H2081 0.929 . S
C2070 C2066 1.531 . S
C2070 H2082 0.960 . S
C2070 H2083 0.962 . S
C2070 H2084 0.960 . S
C2071 C2068 1.511 . S
C2071 H2085 0.961 . S
C2071 H2086 0.961 . S
C2071 H2087 0.961 . S
C2072 C2073 1.370 . S
C2072 C2074 1.363 . S
C2072 H2088 0.931 . S
C2073 C2072 1.370 . S
C2073 C2077 1.408 . S
C2074 C2072 1.363 . S
C2074 C2075 1.370 . S
C2074 C2078 1.524 . S
C2075 C2067 1.503 . S
C2075 C2074 1.370 . S
C2075 C2076 1.403 . S
C2076 C2075 1.403 . S
C2076 C2077 1.404 . S
C2076 C2079 1.539 . S
C2077 C2073 1.408 . S
C2077 C2076 1.404 . S
C2077 H2089 0.930 . S
C2078 C2074 1.524 . S
C2078 H2090 0.956 . S
C2078 H2091 0.961 . S
C2078 H2092 0.961 . S
C2079 C2076 1.539 . S
C2079 H2093 0.958 . S
C2079 H2094 0.961 . S
C2079 H2095 0.960 . S
H2080 C2064 0.931 . S
H2081 C2069 0.929 . S
H2082 C2070 0.960 . S
H2083 C2070 0.962 . S
H2084 C2070 0.960 . S
H2085 C2071 0.961 . S
H2086 C2071 0.961 . S
H2087 C2071 0.961 . S
H2088 C2072 0.931 . S
H2089 C2077 0.930 . S
H2090 C2078 0.956 . S
H2091 C2078 0.961 . S
H2092 C2078 0.961 . S
H2093 C2079 0.958 . S
H2094 C2079 0.961 . S
H2095 C2079 0.960 . S
C2096 C2097 1.391 . S
C2096 C2098 1.394 . S
C2096 H2112 0.931 . S
C2097 C2096 1.391 . S
C2097 C2101 1.376 . S
C2098 C2096 1.394 . S
C2098 C2099 1.369 . S
C2098 C2102 1.531 . S
C2099 C2098 1.369 . S
C2099 C2100 1.410 . S
C2099 C2107 1.503 . S
C2100 C2099 1.410 . S
C2100 C2101 1.392 . S
C2100 C2103 1.511 . S
C2101 C2097 1.376 . S
C2101 C2100 1.392 . S
C2101 H2113 0.929 . S
C2102 C2098 1.531 . S
C2102 H2114 0.960 . S
C2102 H2115 0.962 . S
C2102 H2116 0.960 . S
C2103 C2100 1.511 . S
C2103 H2117 0.961 . S
C2103 H2118 0.961 . S
C2103 H2119 0.961 . S
C2104 C2105 1.370 . S
C2104 C2106 1.363 . S
C2104 H2120 0.931 . S
C2105 C2104 1.370 . S
C2105 C2109 1.408 . S
C2106 C2104 1.363 . S
C2106 C2107 1.370 . S
C2106 C2110 1.524 . S
C2107 C2099 1.503 . S
C2107 C2106 1.370 . S
C2107 C2108 1.403 . S
C2108 C2107 1.403 . S
C2108 C2109 1.404 . S
C2108 C2111 1.539 . S
C2109 C2105 1.408 . S
C2109 C2108 1.404 . S
C2109 H2121 0.930 1_565 S
C2110 C2106 1.524 . S
C2110 H2122 0.956 . S
C2110 H2123 0.961 . S
C2110 H2124 0.961 . S
C2111 C2108 1.539 . S
C2111 H2125 0.958 . S
C2111 H2126 0.961 1_565 S
C2111 H2127 0.960 . S
H2112 C2096 0.931 . S
H2113 C2101 0.929 . S
H2114 C2102 0.960 . S
H2115 C2102 0.962 . S
H2116 C2102 0.960 . S
H2117 C2103 0.961 . S
H2118 C2103 0.961 . S
H2119 C2103 0.961 . S
H2120 C2104 0.931 . S
H2121 C2109 0.930 1_545 S
H2122 C2110 0.956 . S
H2123 C2110 0.961 . S
H2124 C2110 0.961 . S
H2125 C2111 0.958 . S
H2126 C2111 0.961 1_545 S
H2127 C2111 0.960 . S
C2128 C2129 1.391 . S
C2128 C2130 1.394 . S
C2128 H2144 0.931 . S
C2129 C2128 1.391 . S
C2129 C2133 1.376 . S
C2130 C2128 1.394 . S
C2130 C2131 1.369 . S
C2130 C2134 1.531 . S
C2131 C2130 1.369 . S
C2131 C2132 1.410 . S
C2131 C2139 1.503 . S
C2132 C2131 1.410 . S
C2132 C2133 1.392 . S
C2132 C2135 1.511 . S
C2133 C2129 1.376 . S
C2133 C2132 1.392 . S
C2133 H2145 0.929 . S
C2134 C2130 1.531 . S
C2134 H2146 0.960 . S
C2134 H2147 0.962 . S
C2134 H2148 0.960 . S
C2135 C2132 1.511 . S
C2135 H2149 0.961 . S
C2135 H2150 0.961 . S
C2135 H2151 0.961 . S
C2136 C2137 1.370 . S
C2136 C2138 1.363 . S
C2136 H2152 0.931 . S
C2137 C2136 1.370 . S
C2137 C2141 1.408 . S
C2138 C2136 1.363 . S
C2138 C2139 1.370 . S
C2138 C2142 1.524 . S
C2139 C2131 1.503 . S
C2139 C2138 1.370 . S
C2139 C2140 1.403 . S
C2140 C2139 1.403 . S
C2140 C2141 1.404 . S
C2140 C2143 1.539 . S
C2141 C2137 1.408 . S
C2141 C2140 1.404 . S
C2141 H2153 0.930 . S
C2142 C2138 1.524 . S
C2142 H2154 0.956 . S
C2142 H2155 0.961 . S
C2142 H2156 0.961 . S
C2143 C2140 1.539 . S
C2143 H2157 0.958 . S
C2143 H2158 0.961 . S
C2143 H2159 0.960 . S
H2144 C2128 0.931 . S
H2145 C2133 0.929 . S
H2146 C2134 0.960 . S
H2147 C2134 0.962 . S
H2148 C2134 0.960 . S
H2149 C2135 0.961 . S
H2150 C2135 0.961 . S
H2151 C2135 0.961 . S
H2152 C2136 0.931 . S
H2153 C2141 0.930 . S
H2154 C2142 0.956 . S
H2155 C2142 0.961 . S
H2156 C2142 0.961 . S
H2157 C2143 0.958 . S
H2158 C2143 0.961 . S
H2159 C2143 0.960 . S
C2160 C2161 1.391 . S
C2160 C2162 1.394 . S
C2160 H2176 0.931 . S
C2161 C2160 1.391 . S
C2161 C2165 1.376 . S
C2162 C2160 1.394 . S
C2162 C2163 1.369 . S
C2162 C2166 1.531 . S
C2163 C2162 1.369 . S
C2163 C2164 1.410 . S
C2163 C2171 1.503 . S
C2164 C2163 1.410 . S
C2164 C2165 1.392 . S
C2164 C2167 1.511 . S
C2165 C2161 1.376 . S
C2165 C2164 1.392 . S
C2165 H2177 0.929 . S
C2166 C2162 1.531 . S
C2166 H2178 0.960 . S
C2166 H2179 0.962 . S
C2166 H2180 0.960 . S
C2167 C2164 1.511 . S
C2167 H2181 0.961 . S
C2167 H2182 0.961 . S
C2167 H2183 0.961 . S
C2168 C2169 1.370 . S
C2168 C2170 1.363 . S
C2168 H2184 0.931 . S
C2169 C2168 1.370 . S
C2169 C2173 1.408 . S
C2170 C2168 1.363 . S
C2170 C2171 1.370 . S
C2170 C2174 1.524 . S
C2171 C2163 1.503 . S
C2171 C2170 1.370 . S
C2171 C2172 1.403 . S
C2172 C2171 1.403 . S
C2172 C2173 1.404 . S
C2172 C2175 1.539 . S
C2173 C2169 1.408 . S
C2173 C2172 1.404 . S
C2173 H2185 0.930 . S
C2174 C2170 1.524 . S
C2174 H2186 0.956 . S
C2174 H2187 0.961 . S
C2174 H2188 0.961 . S
C2175 C2172 1.539 . S
C2175 H2189 0.958 . S
C2175 H2190 0.961 . S
C2175 H2191 0.960 . S
H2176 C2160 0.931 . S
H2177 C2165 0.929 . S
H2178 C2166 0.960 . S
H2179 C2166 0.962 . S
H2180 C2166 0.960 . S
H2181 C2167 0.961 . S
H2182 C2167 0.961 . S
H2183 C2167 0.961 . S
H2184 C2168 0.931 . S
H2185 C2173 0.930 . S
H2186 C2174 0.956 . S
H2187 C2174 0.961 . S
H2188 C2174 0.961 . S
H2189 C2175 0.958 . S
H2190 C2175 0.961 . S
H2191 C2175 0.960 . S
C2192 C2193 1.391 . S
C2192 C2194 1.394 . S
C2192 H2208 0.931 . S
C2193 C2192 1.391 . S
C2193 C2197 1.376 . S
C2194 C2192 1.394 . S
C2194 C2195 1.369 . S
C2194 C2198 1.531 . S
C2195 C2194 1.369 . S
C2195 C2196 1.410 . S
C2195 C2203 1.503 . S
C2196 C2195 1.410 . S
C2196 C2197 1.392 . S
C2196 C2199 1.511 . S
C2197 C2193 1.376 . S
C2197 C2196 1.392 . S
C2197 H2209 0.929 . S
C2198 C2194 1.531 . S
C2198 H2210 0.960 . S
C2198 H2211 0.962 . S
C2198 H2212 0.960 . S
C2199 C2196 1.511 . S
C2199 H2213 0.961 . S
C2199 H2214 0.961 . S
C2199 H2215 0.961 . S
C2200 C2201 1.370 . S
C2200 C2202 1.363 . S
C2200 H2216 0.931 . S
C2201 C2200 1.370 . S
C2201 C2205 1.408 . S
C2202 C2200 1.363 . S
C2202 C2203 1.370 . S
C2202 C2206 1.524 . S
C2203 C2195 1.503 . S
C2203 C2202 1.370 . S
C2203 C2204 1.403 . S
C2204 C2203 1.403 . S
C2204 C2205 1.404 . S
C2204 C2207 1.539 . S
C2205 C2201 1.408 . S
C2205 C2204 1.404 . S
C2205 H2217 0.930 . S
C2206 C2202 1.524 . S
C2206 H2218 0.956 . S
C2206 H2219 0.961 . S
C2206 H2220 0.961 . S
C2207 C2204 1.539 . S
C2207 H2221 0.958 . S
C2207 H2222 0.961 . S
C2207 H2223 0.960 . S
H2208 C2192 0.931 . S
H2209 C2197 0.929 . S
H2210 C2198 0.960 . S
H2211 C2198 0.962 . S
H2212 C2198 0.960 . S
H2213 C2199 0.961 . S
H2214 C2199 0.961 . S
H2215 C2199 0.961 . S
H2216 C2200 0.931 . S
H2217 C2205 0.930 . S
H2218 C2206 0.956 . S
H2219 C2206 0.961 . S
H2220 C2206 0.961 . S
H2221 C2207 0.958 . S
H2222 C2207 0.961 . S
H2223 C2207 0.960 . S
C2224 C2225 1.391 . S
C2224 C2226 1.394 . S
C2224 H2240 0.931 . S
C2225 C2224 1.391 . S
C2225 C2229 1.376 . S
C2226 C2224 1.394 . S
C2226 C2227 1.369 . S
C2226 C2230 1.531 . S
C2227 C2226 1.369 . S
C2227 C2228 1.410 . S
C2227 C2235 1.503 . S
C2228 C2227 1.410 . S
C2228 C2229 1.392 . S
C2228 C2231 1.511 . S
C2229 C2225 1.376 . S
C2229 C2228 1.392 . S
C2229 H2241 0.929 . S
C2230 C2226 1.531 . S
C2230 H2242 0.960 . S
C2230 H2243 0.962 . S
C2230 H2244 0.960 . S
C2231 C2228 1.511 . S
C2231 H2245 0.961 . S
C2231 H2246 0.961 . S
C2231 H2247 0.961 . S
C2232 C2233 1.370 . S
C2232 C2234 1.363 . S
C2232 H2248 0.931 . S
C2233 C2232 1.370 . S
C2233 C2237 1.408 . S
C2234 C2232 1.363 . S
C2234 C2235 1.370 . S
C2234 C2238 1.524 . S
C2235 C2227 1.503 . S
C2235 C2234 1.370 . S
C2235 C2236 1.403 . S
C2236 C2235 1.403 . S
C2236 C2237 1.404 . S
C2236 C2239 1.539 . S
C2237 C2233 1.408 . S
C2237 C2236 1.404 . S
C2237 H2249 0.930 . S
C2238 C2234 1.524 . S
C2238 H2250 0.956 . S
C2238 H2251 0.961 . S
C2238 H2252 0.961 . S
C2239 C2236 1.539 . S
C2239 H2253 0.958 . S
C2239 H2254 0.961 . S
C2239 H2255 0.960 . S
H2240 C2224 0.931 . S
H2241 C2229 0.929 . S
H2242 C2230 0.960 . S
H2243 C2230 0.962 . S
H2244 C2230 0.960 . S
H2245 C2231 0.961 . S
H2246 C2231 0.961 . S
H2247 C2231 0.961 . S
H2248 C2232 0.931 . S
H2249 C2237 0.930 . S
H2250 C2238 0.956 . S
H2251 C2238 0.961 . S
H2252 C2238 0.961 . S
H2253 C2239 0.958 . S
H2254 C2239 0.961 . S
H2255 C2239 0.960 . S
C2256 C2257 1.391 . S
C2256 C2258 1.394 . S
C2256 H2272 0.931 . S
C2257 C2256 1.391 . S
C2257 C2261 1.376 1_455 S
C2258 C2256 1.394 . S
C2258 C2259 1.369 . S
C2258 C2262 1.531 . S
C2259 C2258 1.369 . S
C2259 C2260 1.410 1_455 S
C2259 C2267 1.503 . S
C2260 C2259 1.410 1_655 S
C2260 C2261 1.392 . S
C2260 C2263 1.511 . S
C2261 C2257 1.376 1_655 S
C2261 C2260 1.392 . S
C2261 H2273 0.929 . S
C2262 C2258 1.531 . S
C2262 H2274 0.960 . S
C2262 H2275 0.962 . S
C2262 H2276 0.960 . S
C2263 C2260 1.511 . S
C2263 H2277 0.961 . S
C2263 H2278 0.961 . S
C2263 H2279 0.961 . S
C2264 C2265 1.370 1_554 S
C2264 C2266 1.363 1_554 S
C2264 H2280 0.931 . S
C2265 C2264 1.370 1_556 S
C2265 C2269 1.408 1_455 S
C2266 C2264 1.363 1_556 S
C2266 C2267 1.370 . S
C2266 C2270 1.523 1_556 S
C2267 C2259 1.503 . S
C2267 C2266 1.370 . S
C2267 C2268 1.403 1_455 S
C2268 C2267 1.403 1_655 S
C2268 C2269 1.404 . S
C2268 C2271 1.539 . S
C2269 C2265 1.408 1_655 S
C2269 C2268 1.404 . S
C2269 H2281 0.930 . S
C2270 C2266 1.523 1_554 S
C2270 H2282 0.954 1_554 S
C2270 H2283 0.964 1_554 S
C2270 H2284 0.964 . S
C2271 C2268 1.539 . S
C2271 H2285 0.958 . S
C2271 H2286 0.961 . S
C2271 H2287 0.960 . S
H2272 C2256 0.931 . S
H2273 C2261 0.929 . S
H2274 C2262 0.960 . S
H2275 C2262 0.962 . S
H2276 C2262 0.960 . S
H2277 C2263 0.961 . S
H2278 C2263 0.961 . S
H2279 C2263 0.961 . S
H2280 C2264 0.931 . S
H2281 C2269 0.930 . S
H2282 C2270 0.954 1_556 S
H2283 C2270 0.964 1_556 S
H2284 C2270 0.964 . S
H2285 C2271 0.958 . S
H2286 C2271 0.961 . S
H2287 C2271 0.960 . S
C2288 C2289 1.391 . S
C2288 C2290 1.394 . S
C2288 H2304 0.931 . S
C2289 C2288 1.391 . S
C2289 C2293 1.376 . S
C2290 C2288 1.394 . S
C2290 C2291 1.369 . S
C2290 C2294 1.531 . S
C2291 C2290 1.369 . S
C2291 C2292 1.410 . S
C2291 C2299 1.503 . S
C2292 C2291 1.410 . S
C2292 C2293 1.392 . S
C2292 C2295 1.511 . S
C2293 C2289 1.376 . S
C2293 C2292 1.392 . S
C2293 H2305 0.929 . S
C2294 C2290 1.531 . S
C2294 H2306 0.960 . S
C2294 H2307 0.962 . S
C2294 H2308 0.960 . S
C2295 C2292 1.511 . S
C2295 H2309 0.961 . S
C2295 H2310 0.961 . S
C2295 H2311 0.961 . S
C2296 C2297 1.370 . S
C2296 C2298 1.363 . S
C2296 H2312 0.931 . S
C2297 C2296 1.370 . S
C2297 C2301 1.408 . S
C2298 C2296 1.363 . S
C2298 C2299 1.370 . S
C2298 C2302 1.524 . S
C2299 C2291 1.503 . S
C2299 C2298 1.370 . S
C2299 C2300 1.403 . S
C2300 C2299 1.403 . S
C2300 C2301 1.404 . S
C2300 C2303 1.539 . S
C2301 C2297 1.408 . S
C2301 C2300 1.404 . S
C2301 H2313 0.930 . S
C2302 C2298 1.524 . S
C2302 H2314 0.956 . S
C2302 H2315 0.961 . S
C2302 H2316 0.961 . S
C2303 C2300 1.539 . S
C2303 H2317 0.958 . S
C2303 H2318 0.961 . S
C2303 H2319 0.960 . S
H2304 C2288 0.931 . S
H2305 C2293 0.929 . S
H2306 C2294 0.960 . S
H2307 C2294 0.962 . S
H2308 C2294 0.960 . S
H2309 C2295 0.961 . S
H2310 C2295 0.961 . S
H2311 C2295 0.961 . S
H2312 C2296 0.931 . S
H2313 C2301 0.930 . S
H2314 C2302 0.956 . S
H2315 C2302 0.961 . S
H2316 C2302 0.961 . S
H2317 C2303 0.958 . S
H2318 C2303 0.961 . S
H2319 C2303 0.960 . S
C2320 C2321 1.391 . S
C2320 C2322 1.394 . S
C2320 H2336 0.931 . S
C2321 C2320 1.391 . S
C2321 C2325 1.376 . S
C2322 C2320 1.394 . S
C2322 C2323 1.369 . S
C2322 C2326 1.531 . S
C2323 C2322 1.369 . S
C2323 C2324 1.410 . S
C2323 C2331 1.503 . S
C2324 C2323 1.410 . S
C2324 C2325 1.392 . S
C2324 C2327 1.511 . S
C2325 C2321 1.376 . S
C2325 C2324 1.392 . S
C2325 H2337 0.929 . S
C2326 C2322 1.531 . S
C2326 H2338 0.960 . S
C2326 H2339 0.962 . S
C2326 H2340 0.960 . S
C2327 C2324 1.511 . S
C2327 H2341 0.961 . S
C2327 H2342 0.961 . S
C2327 H2343 0.961 . S
C2328 C2329 1.370 . S
C2328 C2330 1.363 . S
C2328 H2344 0.931 . S
C2329 C2328 1.370 . S
C2329 C2333 1.408 . S
C2330 C2328 1.363 . S
C2330 C2331 1.370 . S
C2330 C2334 1.524 . S
C2331 C2323 1.503 . S
C2331 C2330 1.370 . S
C2331 C2332 1.403 . S
C2332 C2331 1.403 . S
C2332 C2333 1.404 . S
C2332 C2335 1.539 . S
C2333 C2329 1.408 . S
C2333 C2332 1.404 . S
C2333 H2345 0.930 . S
C2334 C2330 1.524 . S
C2334 H2346 0.956 . S
C2334 H2347 0.961 . S
C2334 H2348 0.961 . S
C2335 C2332 1.539 . S
C2335 H2349 0.958 . S
C2335 H2350 0.961 . S
C2335 H2351 0.960 . S
H2336 C2320 0.931 . S
H2337 C2325 0.929 . S
H2338 C2326 0.960 . S
H2339 C2326 0.962 . S
H2340 C2326 0.960 . S
H2341 C2327 0.961 . S
H2342 C2327 0.961 . S
H2343 C2327 0.961 . S
H2344 C2328 0.931 . S
H2345 C2333 0.930 . S
H2346 C2334 0.956 . S
H2347 C2334 0.961 . S
H2348 C2334 0.961 . S
H2349 C2335 0.958 . S
H2350 C2335 0.961 . S
H2351 C2335 0.960 . S
C2352 C2353 1.391 . S
C2352 C2354 1.394 . S
C2352 H2368 0.931 . S
C2353 C2352 1.391 . S
C2353 C2357 1.376 . S
C2354 C2352 1.394 . S
C2354 C2355 1.369 . S
C2354 C2358 1.531 . S
C2355 C2354 1.369 . S
C2355 C2356 1.410 . S
C2355 C2363 1.503 . S
C2356 C2355 1.410 . S
C2356 C2357 1.392 . S
C2356 C2359 1.511 . S
C2357 C2353 1.376 . S
C2357 C2356 1.392 . S
C2357 H2369 0.929 . S
C2358 C2354 1.531 . S
C2358 H2370 0.960 . S
C2358 H2371 0.962 . S
C2358 H2372 0.960 . S
C2359 C2356 1.511 . S
C2359 H2373 0.961 . S
C2359 H2374 0.961 . S
C2359 H2375 0.961 . S
C2360 C2361 1.370 . S
C2360 C2362 1.363 . S
C2360 H2376 0.931 . S
C2361 C2360 1.370 . S
C2361 C2365 1.408 . S
C2362 C2360 1.363 . S
C2362 C2363 1.370 . S
C2362 C2366 1.524 . S
C2363 C2355 1.503 . S
C2363 C2362 1.370 . S
C2363 C2364 1.403 . S
C2364 C2363 1.403 . S
C2364 C2365 1.404 . S
C2364 C2367 1.539 . S
C2365 C2361 1.408 . S
C2365 C2364 1.404 . S
C2365 H2377 0.930 . S
C2366 C2362 1.524 . S
C2366 H2378 0.956 . S
C2366 H2379 0.961 . S
C2366 H2380 0.961 . S
C2367 C2364 1.539 . S
C2367 H2381 0.958 . S
C2367 H2382 0.961 . S
C2367 H2383 0.960 . S
H2368 C2352 0.931 . S
H2369 C2357 0.929 . S
H2370 C2358 0.960 . S
H2371 C2358 0.962 . S
H2372 C2358 0.960 . S
H2373 C2359 0.961 . S
H2374 C2359 0.961 . S
H2375 C2359 0.961 . S
H2376 C2360 0.931 . S
H2377 C2365 0.930 . S
H2378 C2366 0.956 . S
H2379 C2366 0.961 . S
H2380 C2366 0.961 . S
H2381 C2367 0.958 . S
H2382 C2367 0.961 . S
H2383 C2367 0.960 . S
C2384 C2385 1.362 1_455 S
C2384 C2386 1.394 . S
C2384 H2400 0.931 . S
C2385 C2384 1.362 1_655 S
C2385 C2389 1.399 . S
C2386 C2384 1.394 . S
C2386 C2387 1.369 1_455 S
C2386 C2390 1.531 . S
C2387 C2386 1.369 1_655 S
C2387 C2388 1.410 . S
C2387 C2395 1.497 1_655 S
C2388 C2387 1.410 . S
C2388 C2389 1.392 . S
C2388 C2391 1.511 . S
C2389 C2385 1.399 . S
C2389 C2388 1.392 . S
C2389 H2401 0.929 . S
C2390 C2386 1.531 . S
C2390 H2402 0.960 . S
C2390 H2403 0.962 . S
C2390 H2404 0.960 . S
C2391 C2388 1.511 . S
C2391 H2405 0.961 . S
C2391 H2406 0.961 . S
C2391 H2407 0.961 . S
C2392 C2393 1.370 . S
C2392 C2394 1.363 . S
C2392 H2408 0.931 . S
C2393 C2392 1.370 . S
C2393 C2397 1.408 1_455 S
C2394 C2392 1.363 . S
C2394 C2395 1.389 . S
C2394 C2398 1.524 . S
C2395 C2387 1.497 1_455 S
C2395 C2394 1.389 . S
C2395 C2396 1.392 1_455 S
C2396 C2395 1.392 1_655 S
C2396 C2397 1.404 . S
C2396 C2399 1.539 . S
C2397 C2393 1.408 1_655 S
C2397 C2396 1.404 . S
C2397 H2409 0.930 . S
C2398 C2394 1.524 . S
C2398 H2410 0.956 . S
C2398 H2411 0.961 . S
C2398 H2412 0.961 . S
C2399 C2396 1.539 . S
C2399 H2413 0.958 . S
C2399 H2414 0.961 . S
C2399 H2415 0.960 . S
H2400 C2384 0.931 . S
H2401 C2389 0.929 . S
H2402 C2390 0.960 . S
H2403 C2390 0.962 . S
H2404 C2390 0.960 . S
H2405 C2391 0.961 . S
H2406 C2391 0.961 . S
H2407 C2391 0.961 . S
H2408 C2392 0.931 . S
H2409 C2397 0.930 . S
H2410 C2398 0.956 . S
H2411 C2398 0.961 . S
H2412 C2398 0.961 . S
H2413 C2399 0.958 . S
H2414 C2399 0.961 . S
H2415 C2399 0.960 . S
C2416 C2417 1.391 . S
C2416 C2418 1.394 . S
C2416 H2432 0.931 . S
C2417 C2416 1.391 . S
C2417 C2421 1.376 . S
C2418 C2416 1.394 . S
C2418 C2419 1.369 . S
C2418 C2422 1.531 . S
C2419 C2418 1.369 . S
C2419 C2420 1.410 . S
C2419 C2427 1.503 . S
C2420 C2419 1.410 . S
C2420 C2421 1.392 . S
C2420 C2423 1.511 . S
C2421 C2417 1.376 . S
C2421 C2420 1.392 . S
C2421 H2433 0.929 . S
C2422 C2418 1.531 . S
C2422 H2434 0.960 . S
C2422 H2435 0.962 . S
C2422 H2436 0.960 . S
C2423 C2420 1.511 . S
C2423 H2437 0.961 . S
C2423 H2438 0.961 . S
C2423 H2439 0.961 . S
C2424 C2425 1.370 . S
C2424 C2426 1.363 . S
C2424 H2440 0.931 . S
C2425 C2424 1.370 . S
C2425 C2429 1.408 . S
C2426 C2424 1.363 . S
C2426 C2427 1.370 . S
C2426 C2430 1.524 . S
C2427 C2419 1.503 . S
C2427 C2426 1.370 . S
C2427 C2428 1.403 . S
C2428 C2427 1.403 . S
C2428 C2429 1.404 . S
C2428 C2431 1.539 . S
C2429 C2425 1.408 . S
C2429 C2428 1.404 . S
C2429 H2441 0.930 . S
C2430 C2426 1.524 . S
C2430 H2442 0.956 . S
C2430 H2443 0.961 . S
C2430 H2444 0.961 . S
C2431 C2428 1.539 . S
C2431 H2445 0.958 . S
C2431 H2446 0.961 . S
C2431 H2447 0.960 . S
H2432 C2416 0.931 . S
H2433 C2421 0.929 . S
H2434 C2422 0.960 . S
H2435 C2422 0.962 . S
H2436 C2422 0.960 . S
H2437 C2423 0.961 . S
H2438 C2423 0.961 . S
H2439 C2423 0.961 . S
H2440 C2424 0.931 . S
H2441 C2429 0.930 . S
H2442 C2430 0.956 . S
H2443 C2430 0.961 . S
H2444 C2430 0.961 . S
H2445 C2431 0.958 . S
H2446 C2431 0.961 . S
H2447 C2431 0.960 . S
C2448 C2449 1.391 . S
C2448 C2450 1.394 . S
C2448 H2464 0.931 . S
C2449 C2448 1.391 . S
C2449 C2453 1.376 . S
C2450 C2448 1.394 . S
C2450 C2451 1.369 . S
C2450 C2454 1.531 . S
C2451 C2450 1.369 . S
C2451 C2452 1.410 . S
C2451 C2459 1.503 . S
C2452 C2451 1.410 . S
C2452 C2453 1.392 . S
C2452 C2455 1.511 . S
C2453 C2449 1.376 . S
C2453 C2452 1.392 . S
C2453 H2465 0.929 . S
C2454 C2450 1.531 . S
C2454 H2466 0.960 . S
C2454 H2467 0.962 . S
C2454 H2468 0.960 . S
C2455 C2452 1.511 . S
C2455 H2469 0.961 . S
C2455 H2470 0.961 . S
C2455 H2471 0.961 . S
C2456 C2457 1.370 . S
C2456 C2458 1.363 . S
C2456 H2472 0.931 . S
C2457 C2456 1.370 . S
C2457 C2461 1.408 . S
C2458 C2456 1.363 . S
C2458 C2459 1.370 . S
C2458 C2462 1.524 . S
C2459 C2451 1.503 . S
C2459 C2458 1.370 . S
C2459 C2460 1.403 . S
C2460 C2459 1.403 . S
C2460 C2461 1.404 . S
C2460 C2463 1.539 . S
C2461 C2457 1.408 . S
C2461 C2460 1.404 . S
C2461 H2473 0.930 . S
C2462 C2458 1.524 . S
C2462 H2474 0.956 . S
C2462 H2475 0.961 . S
C2462 H2476 0.961 . S
C2463 C2460 1.539 . S
C2463 H2477 0.958 . S
C2463 H2478 0.961 . S
C2463 H2479 0.960 . S
H2464 C2448 0.931 . S
H2465 C2453 0.929 . S
H2466 C2454 0.960 . S
H2467 C2454 0.962 . S
H2468 C2454 0.960 . S
H2469 C2455 0.961 . S
H2470 C2455 0.961 . S
H2471 C2455 0.961 . S
H2472 C2456 0.931 . S
H2473 C2461 0.930 . S
H2474 C2462 0.956 . S
H2475 C2462 0.961 . S
H2476 C2462 0.961 . S
H2477 C2463 0.958 . S
H2478 C2463 0.961 . S
H2479 C2463 0.960 . S
C2480 C2481 1.391 . S
C2480 C2482 1.394 . S
C2480 H2496 0.931 . S
C2481 C2480 1.391 . S
C2481 C2485 1.376 . S
C2482 C2480 1.394 . S
C2482 C2483 1.369 . S
C2482 C2486 1.531 . S
C2483 C2482 1.369 . S
C2483 C2484 1.410 . S
C2483 C2491 1.503 . S
C2484 C2483 1.410 . S
C2484 C2485 1.392 . S
C2484 C2487 1.511 . S
C2485 C2481 1.376 . S
C2485 C2484 1.392 . S
C2485 H2497 0.929 . S
C2486 C2482 1.531 . S
C2486 H2498 0.960 . S
C2486 H2499 0.962 . S
C2486 H2500 0.960 . S
C2487 C2484 1.511 . S
C2487 H2501 0.961 . S
C2487 H2502 0.961 . S
C2487 H2503 0.961 . S
C2488 C2489 1.370 . S
C2488 C2490 1.363 . S
C2488 H2504 0.931 . S
C2489 C2488 1.370 . S
C2489 C2493 1.408 . S
C2490 C2488 1.363 . S
C2490 C2491 1.370 . S
C2490 C2494 1.524 . S
C2491 C2483 1.503 . S
C2491 C2490 1.370 . S
C2491 C2492 1.403 . S
C2492 C2491 1.403 . S
C2492 C2493 1.404 . S
C2492 C2495 1.539 . S
C2493 C2489 1.408 . S
C2493 C2492 1.404 . S
C2493 H2505 0.930 . S
C2494 C2490 1.524 . S
C2494 H2506 0.956 . S
C2494 H2507 0.961 . S
C2494 H2508 0.961 . S
C2495 C2492 1.539 . S
C2495 H2509 0.958 . S
C2495 H2510 0.961 . S
C2495 H2511 0.960 . S
H2496 C2480 0.931 . S
H2497 C2485 0.929 . S
H2498 C2486 0.960 . S
H2499 C2486 0.962 . S
H2500 C2486 0.960 . S
H2501 C2487 0.961 . S
H2502 C2487 0.961 . S
H2503 C2487 0.961 . S
H2504 C2488 0.931 . S
H2505 C2493 0.930 . S
H2506 C2494 0.956 . S
H2507 C2494 0.961 . S
H2508 C2494 0.961 . S
H2509 C2495 0.958 . S
H2510 C2495 0.961 . S
H2511 C2495 0.960 . S
C2512 C2513 1.391 . S
C2512 C2514 1.394 . S
C2512 H2528 0.931 . S
C2513 C2512 1.391 . S
C2513 C2517 1.376 . S
C2514 C2512 1.394 . S
C2514 C2515 1.369 . S
C2514 C2518 1.531 . S
C2515 C2514 1.369 . S
C2515 C2516 1.410 . S
C2515 C2523 1.503 . S
C2516 C2515 1.410 . S
C2516 C2517 1.392 . S
C2516 C2519 1.511 . S
C2517 C2513 1.376 . S
C2517 C2516 1.392 . S
C2517 H2529 0.929 . S
C2518 C2514 1.531 . S
C2518 H2530 0.960 . S
C2518 H2531 0.962 . S
C2518 H2532 0.960 . S
C2519 C2516 1.511 . S
C2519 H2533 0.961 . S
C2519 H2534 0.961 . S
C2519 H2535 0.961 . S
C2520 C2521 1.370 . S
C2520 C2522 1.363 . S
C2520 H2536 0.931 . S
C2521 C2520 1.370 . S
C2521 C2525 1.408 . S
C2522 C2520 1.363 . S
C2522 C2523 1.370 . S
C2522 C2526 1.524 . S
C2523 C2515 1.503 . S
C2523 C2522 1.370 . S
C2523 C2524 1.403 . S
C2524 C2523 1.403 . S
C2524 C2525 1.404 . S
C2524 C2527 1.539 . S
C2525 C2521 1.408 . S
C2525 C2524 1.404 . S
C2525 H2537 0.930 . S
C2526 C2522 1.524 . S
C2526 H2538 0.956 . S
C2526 H2539 0.961 . S
C2526 H2540 0.961 . S
C2527 C2524 1.539 . S
C2527 H2541 0.958 . S
C2527 H2542 0.961 . S
C2527 H2543 0.960 . S
H2528 C2512 0.931 . S
H2529 C2517 0.929 . S
H2530 C2518 0.960 . S
H2531 C2518 0.962 . S
H2532 C2518 0.960 . S
H2533 C2519 0.961 . S
H2534 C2519 0.961 . S
H2535 C2519 0.961 . S
H2536 C2520 0.931 . S
H2537 C2525 0.930 . S
H2538 C2526 0.956 . S
H2539 C2526 0.961 . S
H2540 C2526 0.961 . S
H2541 C2527 0.958 . S
H2542 C2527 0.961 . S
H2543 C2527 0.960 . S
C2544 C2545 1.391 . S
C2544 C2546 1.394 . S
C2544 H2560 0.931 . S
C2545 C2544 1.391 . S
C2545 C2549 1.376 . S
C2546 C2544 1.394 . S
C2546 C2547 1.369 . S
C2546 C2550 1.531 . S
C2547 C2546 1.369 . S
C2547 C2548 1.410 . S
C2547 C2555 1.503 . S
C2548 C2547 1.410 . S
C2548 C2549 1.392 . S
C2548 C2551 1.511 . S
C2549 C2545 1.376 . S
C2549 C2548 1.392 . S
C2549 H2561 0.929 . S
C2550 C2546 1.531 . S
C2550 H2562 0.960 . S
C2550 H2563 0.962 . S
C2550 H2564 0.960 . S
C2551 C2548 1.511 . S
C2551 H2565 0.961 . S
C2551 H2566 0.961 . S
C2551 H2567 0.961 . S
C2552 C2553 1.370 . S
C2552 C2554 1.363 . S
C2552 H2568 0.931 . S
C2553 C2552 1.370 . S
C2553 C2557 1.408 . S
C2554 C2552 1.363 . S
C2554 C2555 1.370 . S
C2554 C2558 1.524 . S
C2555 C2547 1.503 . S
C2555 C2554 1.370 . S
C2555 C2556 1.403 . S
C2556 C2555 1.403 . S
C2556 C2557 1.404 . S
C2556 C2559 1.539 . S
C2557 C2553 1.408 . S
C2557 C2556 1.404 . S
C2557 H2569 0.930 . S
C2558 C2554 1.524 . S
C2558 H2570 0.956 . S
C2558 H2571 0.961 . S
C2558 H2572 0.961 . S
C2559 C2556 1.539 . S
C2559 H2573 0.958 . S
C2559 H2574 0.961 . S
C2559 H2575 0.960 . S
H2560 C2544 0.931 . S
H2561 C2549 0.929 . S
H2562 C2550 0.960 . S
H2563 C2550 0.962 . S
H2564 C2550 0.960 . S
H2565 C2551 0.961 . S
H2566 C2551 0.961 . S
H2567 C2551 0.961 . S
H2568 C2552 0.931 . S
H2569 C2557 0.930 . S
H2570 C2558 0.956 . S
H2571 C2558 0.961 . S
H2572 C2558 0.961 . S
H2573 C2559 0.958 . S
H2574 C2559 0.961 . S
H2575 C2559 0.960 . S
C2576 C2577 1.391 . S
C2576 C2578 1.394 . S
C2576 H2592 0.931 . S
C2577 C2576 1.391 . S
C2577 C2581 1.376 . S
C2578 C2576 1.394 . S
C2578 C2579 1.369 . S
C2578 C2582 1.531 . S
C2579 C2578 1.369 . S
C2579 C2580 1.410 . S
C2579 C2587 1.503 . S
C2580 C2579 1.410 . S
C2580 C2581 1.392 . S
C2580 C2583 1.511 . S
C2581 C2577 1.376 . S
C2581 C2580 1.392 . S
C2581 H2593 0.929 . S
C2582 C2578 1.531 . S
C2582 H2594 0.960 . S
C2582 H2595 0.962 . S
C2582 H2596 0.960 . S
C2583 C2580 1.511 . S
C2583 H2597 0.961 . S
C2583 H2598 0.961 . S
C2583 H2599 0.961 . S
C2584 C2585 1.370 . S
C2584 C2586 1.363 . S
C2584 H2600 0.931 . S
C2585 C2584 1.370 . S
C2585 C2589 1.408 . S
C2586 C2584 1.363 . S
C2586 C2587 1.370 . S
C2586 C2590 1.524 . S
C2587 C2579 1.503 . S
C2587 C2586 1.370 . S
C2587 C2588 1.403 . S
C2588 C2587 1.403 . S
C2588 C2589 1.404 . S
C2588 C2591 1.539 . S
C2589 C2585 1.408 . S
C2589 C2588 1.404 . S
C2589 H2601 0.930 . S
C2590 C2586 1.524 . S
C2590 H2602 0.956 . S
C2590 H2603 0.961 . S
C2590 H2604 0.961 . S
C2591 C2588 1.539 . S
C2591 H2605 0.958 . S
C2591 H2606 0.961 . S
C2591 H2607 0.960 . S
H2592 C2576 0.931 . S
H2593 C2581 0.929 . S
H2594 C2582 0.960 . S
H2595 C2582 0.962 . S
H2596 C2582 0.960 . S
H2597 C2583 0.961 . S
H2598 C2583 0.961 . S
H2599 C2583 0.961 . S
H2600 C2584 0.931 . S
H2601 C2589 0.930 . S
H2602 C2590 0.956 . S
H2603 C2590 0.961 . S
H2604 C2590 0.961 . S
H2605 C2591 0.958 . S
H2606 C2591 0.961 . S
H2607 C2591 0.960 . S
C2608 C2609 1.391 . S
C2608 C2610 1.394 . S
C2608 H2624 0.931 . S
C2609 C2608 1.391 . S
C2609 C2613 1.376 . S
C2610 C2608 1.394 . S
C2610 C2611 1.369 . S
C2610 C2614 1.531 . S
C2611 C2610 1.369 . S
C2611 C2612 1.410 . S
C2611 C2619 1.503 . S
C2612 C2611 1.410 . S
C2612 C2613 1.392 . S
C2612 C2615 1.511 . S
C2613 C2609 1.376 . S
C2613 C2612 1.392 . S
C2613 H2625 0.929 . S
C2614 C2610 1.531 . S
C2614 H2626 0.960 . S
C2614 H2627 0.962 . S
C2614 H2628 0.960 . S
C2615 C2612 1.511 . S
C2615 H2629 0.961 . S
C2615 H2630 0.961 . S
C2615 H2631 0.961 . S
C2616 C2617 1.370 . S
C2616 C2618 1.363 . S
C2616 H2632 0.931 . S
C2617 C2616 1.370 . S
C2617 C2621 1.408 . S
C2618 C2616 1.363 . S
C2618 C2619 1.370 . S
C2618 C2622 1.524 . S
C2619 C2611 1.503 . S
C2619 C2618 1.370 . S
C2619 C2620 1.403 . S
C2620 C2619 1.403 . S
C2620 C2621 1.404 . S
C2620 C2623 1.539 . S
C2621 C2617 1.408 . S
C2621 C2620 1.404 . S
C2621 H2633 0.930 . S
C2622 C2618 1.524 . S
C2622 H2634 0.956 . S
C2622 H2635 0.961 . S
C2622 H2636 0.961 . S
C2623 C2620 1.539 . S
C2623 H2637 0.958 . S
C2623 H2638 0.961 . S
C2623 H2639 0.960 . S
H2624 C2608 0.931 . S
H2625 C2613 0.929 . S
H2626 C2614 0.960 . S
H2627 C2614 0.962 . S
H2628 C2614 0.960 . S
H2629 C2615 0.961 . S
H2630 C2615 0.961 . S
H2631 C2615 0.961 . S
H2632 C2616 0.931 . S
H2633 C2621 0.930 . S
H2634 C2622 0.956 . S
H2635 C2622 0.961 . S
H2636 C2622 0.961 . S
H2637 C2623 0.958 . S
H2638 C2623 0.961 . S
H2639 C2623 0.960 . S
C2640 C2641 1.391 . S
C2640 C2642 1.394 . S
C2640 H2656 0.931 . S
C2641 C2640 1.391 . S
C2641 C2645 1.376 . S
C2642 C2640 1.394 . S
C2642 C2643 1.369 . S
C2642 C2646 1.531 . S
C2643 C2642 1.369 . S
C2643 C2644 1.410 . S
C2643 C2651 1.503 . S
C2644 C2643 1.410 . S
C2644 C2645 1.392 . S
C2644 C2647 1.511 . S
C2645 C2641 1.376 . S
C2645 C2644 1.392 . S
C2645 H2657 0.929 . S
C2646 C2642 1.531 . S
C2646 H2658 0.960 . S
C2646 H2659 0.962 . S
C2646 H2660 0.960 . S
C2647 C2644 1.511 . S
C2647 H2661 0.961 . S
C2647 H2662 0.961 . S
C2647 H2663 0.961 . S
C2648 C2649 1.370 . S
C2648 C2650 1.363 . S
C2648 H2664 0.931 . S
C2649 C2648 1.370 . S
C2649 C2653 1.408 . S
C2650 C2648 1.363 . S
C2650 C2651 1.370 . S
C2650 C2654 1.524 . S
C2651 C2643 1.503 . S
C2651 C2650 1.370 . S
C2651 C2652 1.403 . S
C2652 C2651 1.403 . S
C2652 C2653 1.404 . S
C2652 C2655 1.539 . S
C2653 C2649 1.408 . S
C2653 C2652 1.404 . S
C2653 H2665 0.930 . S
C2654 C2650 1.524 . S
C2654 H2666 0.956 . S
C2654 H2667 0.961 . S
C2654 H2668 0.961 . S
C2655 C2652 1.539 . S
C2655 H2669 0.958 . S
C2655 H2670 0.961 . S
C2655 H2671 0.960 . S
H2656 C2640 0.931 . S
H2657 C2645 0.929 . S
H2658 C2646 0.960 . S
H2659 C2646 0.962 . S
H2660 C2646 0.960 . S
H2661 C2647 0.961 . S
H2662 C2647 0.961 . S
H2663 C2647 0.961 . S
H2664 C2648 0.931 . S
H2665 C2653 0.930 . S
H2666 C2654 0.956 . S
H2667 C2654 0.961 . S
H2668 C2654 0.961 . S
H2669 C2655 0.958 . S
H2670 C2655 0.961 . S
H2671 C2655 0.960 . S
C2672 C2673 1.391 . S
C2672 C2674 1.394 . S
C2672 H2688 0.931 . S
C2673 C2672 1.391 . S
C2673 C2677 1.376 . S
C2674 C2672 1.394 . S
C2674 C2675 1.369 . S
C2674 C2678 1.531 . S
C2675 C2674 1.369 . S
C2675 C2676 1.410 . S
C2675 C2683 1.503 . S
C2676 C2675 1.410 . S
C2676 C2677 1.392 . S
C2676 C2679 1.511 . S
C2677 C2673 1.376 . S
C2677 C2676 1.392 . S
C2677 H2689 0.929 . S
C2678 C2674 1.531 . S
C2678 H2690 0.960 . S
C2678 H2691 0.962 . S
C2678 H2692 0.960 . S
C2679 C2676 1.511 . S
C2679 H2693 0.961 . S
C2679 H2694 0.961 . S
C2679 H2695 0.961 . S
C2680 C2681 1.370 . S
C2680 C2682 1.363 . S
C2680 H2696 0.931 . S
C2681 C2680 1.370 . S
C2681 C2685 1.408 . S
C2682 C2680 1.363 . S
C2682 C2683 1.370 . S
C2682 C2686 1.524 . S
C2683 C2675 1.503 . S
C2683 C2682 1.370 . S
C2683 C2684 1.403 . S
C2684 C2683 1.403 . S
C2684 C2685 1.404 . S
C2684 C2687 1.539 . S
C2685 C2681 1.408 . S
C2685 C2684 1.404 . S
C2685 H2697 0.930 . S
C2686 C2682 1.524 . S
C2686 H2698 0.956 . S
C2686 H2699 0.961 . S
C2686 H2700 0.961 . S
C2687 C2684 1.539 . S
C2687 H2701 0.958 . S
C2687 H2702 0.961 . S
C2687 H2703 0.960 . S
H2688 C2672 0.931 . S
H2689 C2677 0.929 . S
H2690 C2678 0.960 . S
H2691 C2678 0.962 . S
H2692 C2678 0.960 . S
H2693 C2679 0.961 . S
H2694 C2679 0.961 . S
H2695 C2679 0.961 . S
H2696 C2680 0.931 . S
H2697 C2685 0.930 . S
H2698 C2686 0.956 . S
H2699 C2686 0.961 . S
H2700 C2686 0.961 . S
H2701 C2687 0.958 . S
H2702 C2687 0.961 . S
H2703 C2687 0.960 . S
C2704 C2705 1.391 . S
C2704 C2706 1.394 . S
C2704 H2720 0.931 . S
C2705 C2704 1.391 . S
C2705 C2709 1.376 . S
C2706 C2704 1.394 . S
C2706 C2707 1.369 . S
C2706 C2710 1.531 . S
C2707 C2706 1.369 . S
C2707 C2708 1.410 . S
C2707 C2715 1.503 . S
C2708 C2707 1.410 . S
C2708 C2709 1.392 . S
C2708 C2711 1.511 . S
C2709 C2705 1.376 . S
C2709 C2708 1.392 . S
C2709 H2721 0.929 . S
C2710 C2706 1.531 . S
C2710 H2722 0.960 . S
C2710 H2723 0.962 . S
C2710 H2724 0.960 . S
C2711 C2708 1.511 . S
C2711 H2725 0.961 . S
C2711 H2726 0.961 . S
C2711 H2727 0.961 . S
C2712 C2713 1.370 . S
C2712 C2714 1.363 . S
C2712 H2728 0.931 . S
C2713 C2712 1.370 . S
C2713 C2717 1.408 . S
C2714 C2712 1.363 . S
C2714 C2715 1.370 . S
C2714 C2718 1.524 . S
C2715 C2707 1.503 . S
C2715 C2714 1.370 . S
C2715 C2716 1.403 . S
C2716 C2715 1.403 . S
C2716 C2717 1.404 . S
C2716 C2719 1.539 . S
C2717 C2713 1.408 . S
C2717 C2716 1.404 . S
C2717 H2729 0.930 . S
C2718 C2714 1.524 . S
C2718 H2730 0.956 . S
C2718 H2731 0.961 . S
C2718 H2732 0.961 . S
C2719 C2716 1.539 . S
C2719 H2733 0.958 . S
C2719 H2734 0.961 . S
C2719 H2735 0.960 . S
H2720 C2704 0.931 . S
H2721 C2709 0.929 . S
H2722 C2710 0.960 . S
H2723 C2710 0.962 . S
H2724 C2710 0.960 . S
H2725 C2711 0.961 . S
H2726 C2711 0.961 . S
H2727 C2711 0.961 . S
H2728 C2712 0.931 . S
H2729 C2717 0.930 . S
H2730 C2718 0.956 . S
H2731 C2718 0.961 . S
H2732 C2718 0.961 . S
H2733 C2719 0.958 . S
H2734 C2719 0.961 . S
H2735 C2719 0.960 . S
C2736 C2737 1.391 . S
C2736 C2738 1.394 . S
C2736 H2752 0.931 . S
C2737 C2736 1.391 . S
C2737 C2741 1.376 . S
C2738 C2736 1.394 . S
C2738 C2739 1.369 . S
C2738 C2742 1.531 . S
C2739 C2738 1.369 . S
C2739 C2740 1.410 . S
C2739 C2747 1.503 . S
C2740 C2739 1.410 . S
C2740 C2741 1.392 . S
C2740 C2743 1.511 . S
C2741 C2737 1.376 . S
C2741 C2740 1.392 . S
C2741 H2753 0.929 . S
C2742 C2738 1.531 . S
C2742 H2754 0.960 . S
C2742 H2755 0.962 . S
C2742 H2756 0.960 . S
C2743 C2740 1.511 . S
C2743 H2757 0.961 . S
C2743 H2758 0.961 . S
C2743 H2759 0.961 . S
C2744 C2745 1.370 . S
C2744 C2746 1.363 . S
C2744 H2760 0.931 . S
C2745 C2744 1.370 . S
C2745 C2749 1.408 . S
C2746 C2744 1.363 . S
C2746 C2747 1.370 . S
C2746 C2750 1.524 . S
C2747 C2739 1.503 . S
C2747 C2746 1.370 . S
C2747 C2748 1.403 . S
C2748 C2747 1.403 . S
C2748 C2749 1.404 . S
C2748 C2751 1.539 . S
C2749 C2745 1.408 . S
C2749 C2748 1.404 . S
C2749 H2761 0.930 . S
C2750 C2746 1.524 . S
C2750 H2762 0.956 . S
C2750 H2763 0.961 . S
C2750 H2764 0.961 . S
C2751 C2748 1.539 . S
C2751 H2765 0.958 . S
C2751 H2766 0.961 . S
C2751 H2767 0.960 . S
H2752 C2736 0.931 . S
H2753 C2741 0.929 . S
H2754 C2742 0.960 . S
H2755 C2742 0.962 . S
H2756 C2742 0.960 . S
H2757 C2743 0.961 . S
H2758 C2743 0.961 . S
H2759 C2743 0.961 . S
H2760 C2744 0.931 . S
H2761 C2749 0.930 . S
H2762 C2750 0.956 . S
H2763 C2750 0.961 . S
H2764 C2750 0.961 . S
H2765 C2751 0.958 . S
H2766 C2751 0.961 . S
H2767 C2751 0.960 . S
C2768 C2769 1.391 . S
C2768 C2770 1.394 . S
C2768 H2784 0.931 . S
C2769 C2768 1.391 . S
C2769 C2773 1.376 . S
C2770 C2768 1.394 . S
C2770 C2771 1.369 . S
C2770 C2774 1.531 . S
C2771 C2770 1.369 . S
C2771 C2772 1.410 . S
C2771 C2779 1.503 . S
C2772 C2771 1.410 . S
C2772 C2773 1.392 . S
C2772 C2775 1.511 . S
C2773 C2769 1.376 . S
C2773 C2772 1.392 . S
C2773 H2785 0.929 . S
C2774 C2770 1.531 . S
C2774 H2786 0.960 . S
C2774 H2787 0.962 . S
C2774 H2788 0.960 . S
C2775 C2772 1.511 . S
C2775 H2789 0.961 . S
C2775 H2790 0.961 . S
C2775 H2791 0.961 . S
C2776 C2777 1.370 . S
C2776 C2778 1.363 . S
C2776 H2792 0.931 . S
C2777 C2776 1.370 . S
C2777 C2781 1.408 . S
C2778 C2776 1.363 . S
C2778 C2779 1.370 . S
C2778 C2782 1.524 . S
C2779 C2771 1.503 . S
C2779 C2778 1.370 . S
C2779 C2780 1.403 . S
C2780 C2779 1.403 . S
C2780 C2781 1.404 . S
C2780 C2783 1.539 . S
C2781 C2777 1.408 . S
C2781 C2780 1.404 . S
C2781 H2793 0.930 . S
C2782 C2778 1.524 . S
C2782 H2794 0.956 . S
C2782 H2795 0.961 . S
C2782 H2796 0.961 . S
C2783 C2780 1.539 . S
C2783 H2797 0.958 . S
C2783 H2798 0.961 . S
C2783 H2799 0.960 . S
H2784 C2768 0.931 . S
H2785 C2773 0.929 . S
H2786 C2774 0.960 . S
H2787 C2774 0.962 . S
H2788 C2774 0.960 . S
H2789 C2775 0.961 . S
H2790 C2775 0.961 . S
H2791 C2775 0.961 . S
H2792 C2776 0.931 . S
H2793 C2781 0.930 . S
H2794 C2782 0.956 . S
H2795 C2782 0.961 . S
H2796 C2782 0.961 . S
H2797 C2783 0.958 . S
H2798 C2783 0.961 . S
H2799 C2783 0.960 . S
C2800 C2801 1.393 1_556 S
C2800 C2802 1.393 . S
C2800 H2816 0.929 . S
C2801 C2800 1.393 1_554 S
C2801 C2805 1.376 . S
C2802 C2800 1.393 . S
C2802 C2803 1.369 1_556 S
C2802 C2806 1.531 . S
C2803 C2802 1.369 1_554 S
C2803 C2804 1.410 . S
C2803 C2811 1.503 . S
C2804 C2803 1.410 . S
C2804 C2805 1.392 . S
C2804 C2807 1.511 . S
C2805 C2801 1.376 . S
C2805 C2804 1.392 . S
C2805 H2817 0.929 . S
C2806 C2802 1.531 . S
C2806 H2818 0.960 . S
C2806 H2819 0.962 . S
C2806 H2820 0.960 . S
C2807 C2804 1.511 . S
C2807 H2821 0.961 . S
C2807 H2822 0.961 . S
C2807 H2823 0.961 1_565 S
C2808 C2809 1.370 1_565 S
C2808 C2810 1.363 . S
C2808 H2824 0.931 . S
C2809 C2808 1.370 1_545 S
C2809 C2813 1.408 1_554 S
C2810 C2808 1.363 . S
C2810 C2811 1.370 . S
C2810 C2814 1.524 . S
C2811 C2803 1.503 . S
C2811 C2810 1.370 . S
C2811 C2812 1.388 1_564 S
C2812 C2811 1.388 1_546 S
C2812 C2813 1.407 . S
C2812 C2815 1.550 . S
C2813 C2809 1.408 1_556 S
C2813 C2812 1.407 . S
C2813 H2825 0.930 . S
C2814 C2810 1.524 . S
C2814 H2826 0.956 . S
C2814 H2827 0.961 . S
C2814 H2828 0.961 . S
C2815 C2812 1.550 . S
C2815 H2829 0.958 . S
C2815 H2830 0.961 . S
C2815 H2831 0.960 . S
H2816 C2800 0.929 . S
H2817 C2805 0.929 . S
H2818 C2806 0.960 . S
H2819 C2806 0.962 . S
H2820 C2806 0.960 . S
H2821 C2807 0.961 . S
H2822 C2807 0.961 . S
H2823 C2807 0.961 1_545 S
H2824 C2808 0.931 . S
H2825 C2813 0.930 . S
H2826 C2814 0.956 . S
H2827 C2814 0.961 . S
H2828 C2814 0.961 . S
H2829 C2815 0.958 . S
H2830 C2815 0.961 . S
H2831 C2815 0.960 . S
C2832 C2833 1.391 . S
C2832 C2834 1.394 . S
C2832 H2848 0.931 . S
C2833 C2832 1.391 . S
C2833 C2837 1.376 . S
C2834 C2832 1.394 . S
C2834 C2835 1.369 . S
C2834 C2838 1.531 . S
C2835 C2834 1.369 . S
C2835 C2836 1.410 . S
C2835 C2843 1.503 . S
C2836 C2835 1.410 . S
C2836 C2837 1.392 . S
C2836 C2839 1.511 . S
C2837 C2833 1.376 . S
C2837 C2836 1.392 . S
C2837 H2849 0.929 . S
C2838 C2834 1.531 . S
C2838 H2850 0.960 . S
C2838 H2851 0.962 . S
C2838 H2852 0.960 . S
C2839 C2836 1.511 . S
C2839 H2853 0.961 . S
C2839 H2854 0.961 . S
C2839 H2855 0.961 . S
C2840 C2841 1.370 . S
C2840 C2842 1.363 . S
C2840 H2856 0.931 . S
C2841 C2840 1.370 . S
C2841 C2845 1.408 . S
C2842 C2840 1.363 . S
C2842 C2843 1.370 . S
C2842 C2846 1.524 . S
C2843 C2835 1.503 . S
C2843 C2842 1.370 . S
C2843 C2844 1.403 . S
C2844 C2843 1.403 . S
C2844 C2845 1.404 . S
C2844 C2847 1.539 . S
C2845 C2841 1.408 . S
C2845 C2844 1.404 . S
C2845 H2857 0.930 . S
C2846 C2842 1.524 . S
C2846 H2858 0.956 . S
C2846 H2859 0.961 . S
C2846 H2860 0.961 . S
C2847 C2844 1.539 . S
C2847 H2861 0.958 . S
C2847 H2862 0.961 . S
C2847 H2863 0.960 . S
H2848 C2832 0.931 . S
H2849 C2837 0.929 . S
H2850 C2838 0.960 . S
H2851 C2838 0.962 . S
H2852 C2838 0.960 . S
H2853 C2839 0.961 . S
H2854 C2839 0.961 . S
H2855 C2839 0.961 . S
H2856 C2840 0.931 . S
H2857 C2845 0.930 . S
H2858 C2846 0.956 . S
H2859 C2846 0.961 . S
H2860 C2846 0.961 . S
H2861 C2847 0.958 . S
H2862 C2847 0.961 . S
H2863 C2847 0.960 . S
C2864 C2865 1.391 1_556 S
C2864 C2866 1.394 . S
C2864 H2880 0.931 . S
C2865 C2864 1.391 1_554 S
C2865 C2869 1.376 . S
C2866 C2864 1.394 . S
C2866 C2867 1.369 1_556 S
C2866 C2870 1.531 . S
C2867 C2866 1.369 1_554 S
C2867 C2868 1.410 . S
C2867 C2875 1.503 . S
C2868 C2867 1.410 . S
C2868 C2869 1.392 . S
C2868 C2871 1.511 . S
C2869 C2865 1.376 . S
C2869 C2868 1.392 . S
C2869 H2881 0.929 . S
C2870 C2866 1.531 . S
C2870 H2882 0.960 . S
C2870 H2883 0.962 . S
C2870 H2884 0.960 . S
C2871 C2868 1.511 . S
C2871 H2885 0.961 . S
C2871 H2886 0.961 . S
C2871 H2887 0.961 . S
C2872 C2873 1.370 . S
C2872 C2874 1.363 . S
C2872 H2888 0.931 . S
C2873 C2872 1.370 . S
C2873 C2877 1.408 . S
C2874 C2872 1.363 . S
C2874 C2875 1.370 . S
C2874 C2878 1.524 . S
C2875 C2867 1.503 . S
C2875 C2874 1.370 . S
C2875 C2876 1.403 . S
C2876 C2875 1.403 . S
C2876 C2877 1.404 . S
C2876 C2879 1.539 1_554 S
C2877 C2873 1.408 . S
C2877 C2876 1.404 . S
C2877 H2889 0.930 . S
C2878 C2874 1.524 . S
C2878 H2890 0.956 . S
C2878 H2891 0.961 . S
C2878 H2892 0.961 . S
C2879 C2876 1.539 1_556 S
C2879 H2893 0.958 . S
C2879 H2894 0.961 . S
C2879 H2895 0.960 . S
H2880 C2864 0.931 . S
H2881 C2869 0.929 . S
H2882 C2870 0.960 . S
H2883 C2870 0.962 . S
H2884 C2870 0.960 . S
H2885 C2871 0.961 . S
H2886 C2871 0.961 . S
H2887 C2871 0.961 . S
H2888 C2872 0.931 . S
H2889 C2877 0.930 . S
H2890 C2878 0.956 . S
H2891 C2878 0.961 . S
H2892 C2878 0.961 . S
H2893 C2879 0.958 . S
H2894 C2879 0.961 . S
H2895 C2879 0.960 . S
C2896 C2897 1.391 . S
C2896 C2898 1.394 . S
C2896 H2912 0.931 . S
C2897 C2896 1.391 . S
C2897 C2901 1.376 . S
C2898 C2896 1.394 . S
C2898 C2899 1.369 . S
C2898 C2902 1.531 . S
C2899 C2898 1.369 . S
C2899 C2900 1.410 . S
C2899 C2907 1.503 . S
C2900 C2899 1.410 . S
C2900 C2901 1.392 . S
C2900 C2903 1.511 . S
C2901 C2897 1.376 . S
C2901 C2900 1.392 . S
C2901 H2913 0.929 . S
C2902 C2898 1.531 . S
C2902 H2914 0.960 . S
C2902 H2915 0.962 . S
C2902 H2916 0.960 . S
C2903 C2900 1.511 . S
C2903 H2917 0.961 . S
C2903 H2918 0.961 . S
C2903 H2919 0.961 . S
C2904 C2905 1.370 . S
C2904 C2906 1.363 . S
C2904 H2920 0.931 . S
C2905 C2904 1.370 . S
C2905 C2909 1.408 . S
C2906 C2904 1.363 . S
C2906 C2907 1.370 . S
C2906 C2910 1.524 . S
C2907 C2899 1.503 . S
C2907 C2906 1.370 . S
C2907 C2908 1.403 . S
C2908 C2907 1.403 . S
C2908 C2909 1.404 . S
C2908 C2911 1.539 . S
C2909 C2905 1.408 . S
C2909 C2908 1.404 . S
C2909 H2921 0.930 . S
C2910 C2906 1.524 . S
C2910 H2922 0.956 . S
C2910 H2923 0.961 . S
C2910 H2924 0.961 . S
C2911 C2908 1.539 . S
C2911 H2925 0.958 . S
C2911 H2926 0.961 . S
C2911 H2927 0.960 . S
H2912 C2896 0.931 . S
H2913 C2901 0.929 . S
H2914 C2902 0.960 . S
H2915 C2902 0.962 . S
H2916 C2902 0.960 . S
H2917 C2903 0.961 . S
H2918 C2903 0.961 . S
H2919 C2903 0.961 . S
H2920 C2904 0.931 . S
H2921 C2909 0.930 . S
H2922 C2910 0.956 . S
H2923 C2910 0.961 . S
H2924 C2910 0.961 . S
H2925 C2911 0.958 . S
H2926 C2911 0.961 . S
H2927 C2911 0.960 . S
C2928 C2929 1.391 . S
C2928 C2930 1.394 . S
C2928 H2944 0.931 . S
C2929 C2928 1.391 . S
C2929 C2933 1.376 . S
C2930 C2928 1.394 . S
C2930 C2931 1.369 . S
C2930 C2934 1.531 . S
C2931 C2930 1.369 . S
C2931 C2932 1.410 . S
C2931 C2939 1.503 . S
C2932 C2931 1.410 . S
C2932 C2933 1.392 . S
C2932 C2935 1.511 . S
C2933 C2929 1.376 . S
C2933 C2932 1.392 . S
C2933 H2945 0.929 . S
C2934 C2930 1.531 . S
C2934 H2946 0.960 . S
C2934 H2947 0.962 . S
C2934 H2948 0.960 . S
C2935 C2932 1.511 . S
C2935 H2949 0.961 . S
C2935 H2950 0.961 . S
C2935 H2951 0.961 . S
C2936 C2937 1.370 . S
C2936 C2938 1.363 . S
C2936 H2952 0.931 . S
C2937 C2936 1.370 . S
C2937 C2941 1.408 . S
C2938 C2936 1.363 . S
C2938 C2939 1.370 . S
C2938 C2942 1.524 . S
C2939 C2931 1.503 . S
C2939 C2938 1.370 . S
C2939 C2940 1.403 . S
C2940 C2939 1.403 . S
C2940 C2941 1.404 . S
C2940 C2943 1.539 . S
C2941 C2937 1.408 . S
C2941 C2940 1.404 . S
C2941 H2953 0.930 . S
C2942 C2938 1.524 . S
C2942 H2954 0.956 . S
C2942 H2955 0.961 . S
C2942 H2956 0.961 . S
C2943 C2940 1.539 . S
C2943 H2957 0.958 . S
C2943 H2958 0.961 . S
C2943 H2959 0.960 . S
H2944 C2928 0.931 . S
H2945 C2933 0.929 . S
H2946 C2934 0.960 . S
H2947 C2934 0.962 . S
H2948 C2934 0.960 . S
H2949 C2935 0.961 . S
H2950 C2935 0.961 . S
H2951 C2935 0.961 . S
H2952 C2936 0.931 . S
H2953 C2941 0.930 . S
H2954 C2942 0.956 . S
H2955 C2942 0.961 . S
H2956 C2942 0.961 . S
H2957 C2943 0.958 . S
H2958 C2943 0.961 . S
H2959 C2943 0.960 . S
C2960 C2961 1.391 . S
C2960 C2962 1.394 . S
C2960 H2976 0.931 . S
C2961 C2960 1.391 . S
C2961 C2965 1.376 . S
C2962 C2960 1.394 . S
C2962 C2963 1.369 . S
C2962 C2966 1.531 . S
C2963 C2962 1.369 . S
C2963 C2964 1.410 . S
C2963 C2971 1.503 . S
C2964 C2963 1.410 . S
C2964 C2965 1.392 . S
C2964 C2967 1.511 . S
C2965 C2961 1.376 . S
C2965 C2964 1.392 . S
C2965 H2977 0.929 . S
C2966 C2962 1.531 . S
C2966 H2978 0.960 . S
C2966 H2979 0.962 . S
C2966 H2980 0.960 . S
C2967 C2964 1.511 . S
C2967 H2981 0.961 . S
C2967 H2982 0.961 . S
C2967 H2983 0.961 . S
C2968 C2969 1.370 . S
C2968 C2970 1.363 . S
C2968 H2984 0.931 . S
C2969 C2968 1.370 . S
C2969 C2973 1.408 . S
C2970 C2968 1.363 . S
C2970 C2971 1.370 . S
C2970 C2974 1.524 . S
C2971 C2963 1.503 . S
C2971 C2970 1.370 . S
C2971 C2972 1.403 . S
C2972 C2971 1.403 . S
C2972 C2973 1.404 . S
C2972 C2975 1.539 . S
C2973 C2969 1.408 . S
C2973 C2972 1.404 . S
C2973 H2985 0.930 . S
C2974 C2970 1.524 . S
C2974 H2986 0.956 . S
C2974 H2987 0.961 . S
C2974 H2988 0.961 . S
C2975 C2972 1.539 . S
C2975 H2989 0.958 . S
C2975 H2990 0.961 . S
C2975 H2991 0.960 . S
H2976 C2960 0.931 . S
H2977 C2965 0.929 . S
H2978 C2966 0.960 . S
H2979 C2966 0.962 . S
H2980 C2966 0.960 . S
H2981 C2967 0.961 . S
H2982 C2967 0.961 . S
H2983 C2967 0.961 . S
H2984 C2968 0.931 . S
H2985 C2973 0.930 . S
H2986 C2974 0.956 . S
H2987 C2974 0.961 . S
H2988 C2974 0.961 . S
H2989 C2975 0.958 . S
H2990 C2975 0.961 . S
H2991 C2975 0.960 . S
C2992 C2993 1.391 . S
C2992 C2994 1.394 . S
C2992 H3008 0.931 . S
C2993 C2992 1.391 . S
C2993 C2997 1.376 . S
C2994 C2992 1.394 . S
C2994 C2995 1.369 . S
C2994 C2998 1.531 . S
C2995 C2994 1.369 . S
C2995 C2996 1.410 . S
C2995 C3003 1.503 . S
C2996 C2995 1.410 . S
C2996 C2997 1.392 . S
C2996 C2999 1.511 . S
C2997 C2993 1.376 . S
C2997 C2996 1.392 . S
C2997 H3009 0.929 . S
C2998 C2994 1.531 . S
C2998 H3010 0.960 . S
C2998 H3011 0.962 . S
C2998 H3012 0.960 . S
C2999 C2996 1.511 . S
C2999 H3013 0.961 . S
C2999 H3014 0.961 . S
C2999 H3015 0.961 . S
C3000 C3001 1.370 . S
C3000 C3002 1.363 . S
C3000 H3016 0.931 . S
C3001 C3000 1.370 . S
C3001 C3005 1.408 . S
C3002 C3000 1.363 . S
C3002 C3003 1.370 . S
C3002 C3006 1.524 . S
C3003 C2995 1.503 . S
C3003 C3002 1.370 . S
C3003 C3004 1.403 . S
C3004 C3003 1.403 . S
C3004 C3005 1.404 . S
C3004 C3007 1.539 . S
C3005 C3001 1.408 . S
C3005 C3004 1.404 . S
C3005 H3017 0.930 . S
C3006 C3002 1.524 . S
C3006 H3018 0.956 . S
C3006 H3019 0.961 . S
C3006 H3020 0.961 . S
C3007 C3004 1.539 . S
C3007 H3021 0.958 . S
C3007 H3022 0.961 . S
C3007 H3023 0.960 . S
H3008 C2992 0.931 . S
H3009 C2997 0.929 . S
H3010 C2998 0.960 . S
H3011 C2998 0.962 . S
H3012 C2998 0.960 . S
H3013 C2999 0.961 . S
H3014 C2999 0.961 . S
H3015 C2999 0.961 . S
H3016 C3000 0.931 . S
H3017 C3005 0.930 . S
H3018 C3006 0.956 . S
H3019 C3006 0.961 . S
H3020 C3006 0.961 . S
H3021 C3007 0.958 . S
H3022 C3007 0.961 . S
H3023 C3007 0.960 . S
C3024 C3025 1.391 . S
C3024 C3026 1.394 . S
C3024 H3040 0.931 . S
C3025 C3024 1.391 . S
C3025 C3029 1.376 1_455 S
C3026 C3024 1.394 . S
C3026 C3027 1.369 . S
C3026 C3030 1.531 . S
C3027 C3026 1.369 . S
C3027 C3028 1.410 1_455 S
C3027 C3035 1.503 . S
C3028 C3027 1.410 1_655 S
C3028 C3029 1.392 . S
C3028 C3031 1.511 . S
C3029 C3025 1.376 1_655 S
C3029 C3028 1.392 . S
C3029 H3041 0.929 . S
C3030 C3026 1.531 . S
C3030 H3042 0.960 . S
C3030 H3043 0.962 . S
C3030 H3044 0.960 . S
C3031 C3028 1.511 . S
C3031 H3045 0.961 . S
C3031 H3046 0.961 . S
C3031 H3047 0.961 . S
C3032 C3033 1.370 . S
C3032 C3034 1.363 . S
C3032 H3048 0.931 . S
C3033 C3032 1.370 . S
C3033 C3037 1.408 . S
C3034 C3032 1.363 . S
C3034 C3035 1.370 . S
C3034 C3038 1.524 . S
C3035 C3027 1.503 . S
C3035 C3034 1.370 . S
C3035 C3036 1.403 . S
C3036 C3035 1.403 . S
C3036 C3037 1.404 . S
C3036 C3039 1.539 1_455 S
C3037 C3033 1.408 . S
C3037 C3036 1.404 . S
C3037 H3049 0.930 1_455 S
C3038 C3034 1.524 . S
C3038 H3050 0.956 . S
C3038 H3051 0.961 . S
C3038 H3052 0.961 . S
C3039 C3036 1.539 1_655 S
C3039 H3053 0.958 . S
C3039 H3054 0.961 . S
C3039 H3055 0.960 . S
H3040 C3024 0.931 . S
H3041 C3029 0.929 . S
H3042 C3030 0.960 . S
H3043 C3030 0.962 . S
H3044 C3030 0.960 . S
H3045 C3031 0.961 . S
H3046 C3031 0.961 . S
H3047 C3031 0.961 . S
H3048 C3032 0.931 . S
H3049 C3037 0.930 1_655 S
H3050 C3038 0.956 . S
H3051 C3038 0.961 . S
H3052 C3038 0.961 . S
H3053 C3039 0.958 . S
H3054 C3039 0.961 . S
H3055 C3039 0.960 . S
C3056 C3057 1.391 . S
C3056 C3058 1.394 . S
C3056 H3072 0.931 . S
C3057 C3056 1.391 . S
C3057 C3061 1.376 . S
C3058 C3056 1.394 . S
C3058 C3059 1.369 . S
C3058 C3062 1.531 . S
C3059 C3058 1.369 . S
C3059 C3060 1.410 . S
C3059 C3067 1.503 . S
C3060 C3059 1.410 . S
C3060 C3061 1.392 . S
C3060 C3063 1.511 . S
C3061 C3057 1.376 . S
C3061 C3060 1.392 . S
C3061 H3073 0.929 . S
C3062 C3058 1.531 . S
C3062 H3074 0.960 . S
C3062 H3075 0.962 . S
C3062 H3076 0.960 . S
C3063 C3060 1.511 . S
C3063 H3077 0.961 . S
C3063 H3078 0.961 . S
C3063 H3079 0.961 . S
C3064 C3065 1.370 . S
C3064 C3066 1.363 . S
C3064 H3080 0.931 . S
C3065 C3064 1.370 . S
C3065 C3069 1.408 . S
C3066 C3064 1.363 . S
C3066 C3067 1.370 . S
C3066 C3070 1.524 . S
C3067 C3059 1.503 . S
C3067 C3066 1.370 . S
C3067 C3068 1.403 . S
C3068 C3067 1.403 . S
C3068 C3069 1.404 . S
C3068 C3071 1.539 . S
C3069 C3065 1.408 . S
C3069 C3068 1.404 . S
C3069 H3081 0.930 . S
C3070 C3066 1.524 . S
C3070 H3082 0.956 . S
C3070 H3083 0.961 . S
C3070 H3084 0.961 . S
C3071 C3068 1.539 . S
C3071 H3085 0.958 . S
C3071 H3086 0.961 . S
C3071 H3087 0.960 . S
H3072 C3056 0.931 . S
H3073 C3061 0.929 . S
H3074 C3062 0.960 . S
H3075 C3062 0.962 . S
H3076 C3062 0.960 . S
H3077 C3063 0.961 . S
H3078 C3063 0.961 . S
H3079 C3063 0.961 . S
H3080 C3064 0.931 . S
H3081 C3069 0.930 . S
H3082 C3070 0.956 . S
H3083 C3070 0.961 . S
H3084 C3070 0.961 . S
H3085 C3071 0.958 . S
H3086 C3071 0.961 . S
H3087 C3071 0.960 . S
C3088 C3089 1.391 . S
C3088 C3090 1.394 . S
C3088 H3104 0.931 . S
C3089 C3088 1.391 . S
C3089 C3093 1.376 . S
C3090 C3088 1.394 . S
C3090 C3091 1.369 . S
C3090 C3094 1.531 . S
C3091 C3090 1.369 . S
C3091 C3092 1.410 . S
C3091 C3099 1.503 . S
C3092 C3091 1.410 . S
C3092 C3093 1.392 . S
C3092 C3095 1.511 . S
C3093 C3089 1.376 . S
C3093 C3092 1.392 . S
C3093 H3105 0.929 . S
C3094 C3090 1.531 . S
C3094 H3106 0.960 . S
C3094 H3107 0.962 . S
C3094 H3108 0.960 . S
C3095 C3092 1.511 . S
C3095 H3109 0.961 . S
C3095 H3110 0.961 . S
C3095 H3111 0.961 . S
C3096 C3097 1.370 . S
C3096 C3098 1.363 . S
C3096 H3112 0.931 . S
C3097 C3096 1.370 . S
C3097 C3101 1.408 . S
C3098 C3096 1.363 . S
C3098 C3099 1.370 . S
C3098 C3102 1.524 . S
C3099 C3091 1.503 . S
C3099 C3098 1.370 . S
C3099 C3100 1.403 . S
C3100 C3099 1.403 . S
C3100 C3101 1.404 . S
C3100 C3103 1.539 . S
C3101 C3097 1.408 . S
C3101 C3100 1.404 . S
C3101 H3113 0.930 1_556 S
C3102 C3098 1.524 . S
C3102 H3114 0.956 . S
C3102 H3115 0.961 . S
C3102 H3116 0.961 . S
C3103 C3100 1.539 . S
C3103 H3117 0.958 . S
C3103 H3118 0.961 1_556 S
C3103 H3119 0.960 . S
H3104 C3088 0.931 . S
H3105 C3093 0.929 . S
H3106 C3094 0.960 . S
H3107 C3094 0.962 . S
H3108 C3094 0.960 . S
H3109 C3095 0.961 . S
H3110 C3095 0.961 . S
H3111 C3095 0.961 . S
H3112 C3096 0.931 . S
H3113 C3101 0.930 1_554 S
H3114 C3102 0.956 . S
H3115 C3102 0.961 . S
H3116 C3102 0.961 . S
H3117 C3103 0.958 . S
H3118 C3103 0.961 1_554 S
H3119 C3103 0.960 . S
C3120 C3121 1.391 . S
C3120 C3122 1.394 . S
C3120 H3136 0.931 . S
C3121 C3120 1.391 . S
C3121 C3125 1.376 . S
C3122 C3120 1.394 . S
C3122 C3123 1.369 . S
C3122 C3126 1.531 . S
C3123 C3122 1.369 . S
C3123 C3124 1.410 . S
C3123 C3131 1.503 . S
C3124 C3123 1.410 . S
C3124 C3125 1.392 . S
C3124 C3127 1.511 . S
C3125 C3121 1.376 . S
C3125 C3124 1.392 . S
C3125 H3137 0.929 . S
C3126 C3122 1.531 . S
C3126 H3138 0.960 . S
C3126 H3139 0.962 . S
C3126 H3140 0.960 . S
C3127 C3124 1.511 . S
C3127 H3141 0.961 . S
C3127 H3142 0.961 . S
C3127 H3143 0.961 . S
C3128 C3129 1.370 . S
C3128 C3130 1.363 . S
C3128 H3144 0.931 . S
C3129 C3128 1.370 . S
C3129 C3133 1.408 . S
C3130 C3128 1.363 . S
C3130 C3131 1.370 . S
C3130 C3134 1.524 . S
C3131 C3123 1.503 . S
C3131 C3130 1.370 . S
C3131 C3132 1.403 . S
C3132 C3131 1.403 . S
C3132 C3133 1.404 . S
C3132 C3135 1.539 . S
C3133 C3129 1.408 . S
C3133 C3132 1.404 . S
C3133 H3145 0.930 . S
C3134 C3130 1.524 . S
C3134 H3146 0.956 . S
C3134 H3147 0.961 . S
C3134 H3148 0.961 . S
C3135 C3132 1.539 . S
C3135 H3149 0.958 . S
C3135 H3150 0.961 . S
C3135 H3151 0.960 . S
H3136 C3120 0.931 . S
H3137 C3125 0.929 . S
H3138 C3126 0.960 . S
H3139 C3126 0.962 . S
H3140 C3126 0.960 . S
H3141 C3127 0.961 . S
H3142 C3127 0.961 . S
H3143 C3127 0.961 . S
H3144 C3128 0.931 . S
H3145 C3133 0.930 . S
H3146 C3134 0.956 . S
H3147 C3134 0.961 . S
H3148 C3134 0.961 . S
H3149 C3135 0.958 . S
H3150 C3135 0.961 . S
H3151 C3135 0.960 . S
C3152 C3153 1.391 . S
C3152 C3154 1.394 . S
C3152 H3168 0.931 . S
C3153 C3152 1.391 . S
C3153 C3157 1.376 . S
C3154 C3152 1.394 . S
C3154 C3155 1.369 . S
C3154 C3158 1.531 . S
C3155 C3154 1.369 . S
C3155 C3156 1.410 . S
C3155 C3163 1.503 . S
C3156 C3155 1.410 . S
C3156 C3157 1.392 . S
C3156 C3159 1.511 1_455 S
C3157 C3153 1.376 . S
C3157 C3156 1.392 . S
C3157 H3169 0.929 1_455 S
C3158 C3154 1.531 . S
C3158 H3170 0.960 . S
C3158 H3171 0.962 . S
C3158 H3172 0.960 . S
C3159 C3156 1.511 1_655 S
C3159 H3173 0.961 . S
C3159 H3174 0.961 . S
C3159 H3175 0.961 . S
C3160 C3161 1.370 . S
C3160 C3162 1.363 . S
C3160 H3176 0.931 . S
C3161 C3160 1.370 . S
C3161 C3165 1.408 . S
C3162 C3160 1.363 . S
C3162 C3163 1.370 . S
C3162 C3166 1.524 . S
C3163 C3155 1.503 . S
C3163 C3162 1.370 . S
C3163 C3164 1.403 . S
C3164 C3163 1.403 . S
C3164 C3165 1.404 . S
C3164 C3167 1.539 1_455 S
C3165 C3161 1.408 . S
C3165 C3164 1.404 . S
C3165 H3177 0.930 . S
C3166 C3162 1.524 . S
C3166 H3178 0.956 . S
C3166 H3179 0.961 . S
C3166 H3180 0.961 . S
C3167 C3164 1.539 1_655 S
C3167 H3181 0.958 1_655 S
C3167 H3182 0.961 . S
C3167 H3183 0.960 . S
H3168 C3152 0.931 . S
H3169 C3157 0.929 1_655 S
H3170 C3158 0.960 . S
H3171 C3158 0.962 . S
H3172 C3158 0.960 . S
H3173 C3159 0.961 . S
H3174 C3159 0.961 . S
H3175 C3159 0.961 . S
H3176 C3160 0.931 . S
H3177 C3165 0.930 . S
H3178 C3166 0.956 . S
H3179 C3166 0.961 . S
H3180 C3166 0.961 . S
H3181 C3167 0.958 1_455 S
H3182 C3167 0.961 . S
H3183 C3167 0.960 . S
C3184 C3185 1.391 . S
C3184 C3186 1.394 . S
C3184 H3200 0.931 . S
C3185 C3184 1.391 . S
C3185 C3189 1.376 . S
C3186 C3184 1.394 . S
C3186 C3187 1.369 . S
C3186 C3190 1.531 . S
C3187 C3186 1.369 . S
C3187 C3188 1.410 . S
C3187 C3195 1.503 . S
C3188 C3187 1.410 . S
C3188 C3189 1.392 . S
C3188 C3191 1.511 . S
C3189 C3185 1.376 . S
C3189 C3188 1.392 . S
C3189 H3201 0.929 . S
C3190 C3186 1.531 . S
C3190 H3202 0.960 . S
C3190 H3203 0.962 . S
C3190 H3204 0.960 . S
C3191 C3188 1.511 . S
C3191 H3205 0.961 . S
C3191 H3206 0.961 . S
C3191 H3207 0.961 . S
C3192 C3193 1.370 . S
C3192 C3194 1.363 . S
C3192 H3208 0.931 . S
C3193 C3192 1.370 . S
C3193 C3197 1.408 . S
C3194 C3192 1.363 . S
C3194 C3195 1.370 . S
C3194 C3198 1.524 . S
C3195 C3187 1.503 . S
C3195 C3194 1.370 . S
C3195 C3196 1.403 . S
C3196 C3195 1.403 . S
C3196 C3197 1.404 . S
C3196 C3199 1.539 . S
C3197 C3193 1.408 . S
C3197 C3196 1.404 . S
C3197 H3209 0.930 . S
C3198 C3194 1.524 . S
C3198 H3210 0.956 . S
C3198 H3211 0.961 . S
C3198 H3212 0.961 . S
C3199 C3196 1.539 . S
C3199 H3213 0.958 . S
C3199 H3214 0.961 . S
C3199 H3215 0.960 . S
H3200 C3184 0.931 . S
H3201 C3189 0.929 . S
H3202 C3190 0.960 . S
H3203 C3190 0.962 . S
H3204 C3190 0.960 . S
H3205 C3191 0.961 . S
H3206 C3191 0.961 . S
H3207 C3191 0.961 . S
H3208 C3192 0.931 . S
H3209 C3197 0.930 . S
H3210 C3198 0.956 . S
H3211 C3198 0.961 . S
H3212 C3198 0.961 . S
H3213 C3199 0.958 . S
H3214 C3199 0.961 . S
H3215 C3199 0.960 . S
C3216 C3217 1.391 . S
C3216 C3218 1.394 . S
C3216 H3232 0.931 . S
C3217 C3216 1.391 . S
C3217 C3221 1.376 . S
C3218 C3216 1.394 . S
C3218 C3219 1.369 . S
C3218 C3222 1.531 . S
C3219 C3218 1.369 . S
C3219 C3220 1.410 . S
C3219 C3227 1.503 . S
C3220 C3219 1.410 . S
C3220 C3221 1.392 . S
C3220 C3223 1.511 . S
C3221 C3217 1.376 . S
C3221 C3220 1.392 . S
C3221 H3233 0.929 . S
C3222 C3218 1.531 . S
C3222 H3234 0.960 . S
C3222 H3235 0.962 . S
C3222 H3236 0.960 . S
C3223 C3220 1.511 . S
C3223 H3237 0.961 . S
C3223 H3238 0.961 . S
C3223 H3239 0.961 . S
C3224 C3225 1.370 . S
C3224 C3226 1.363 . S
C3224 H3240 0.931 . S
C3225 C3224 1.370 . S
C3225 C3229 1.408 . S
C3226 C3224 1.363 . S
C3226 C3227 1.370 . S
C3226 C3230 1.524 . S
C3227 C3219 1.503 . S
C3227 C3226 1.370 . S
C3227 C3228 1.403 . S
C3228 C3227 1.403 . S
C3228 C3229 1.404 . S
C3228 C3231 1.539 . S
C3229 C3225 1.408 . S
C3229 C3228 1.404 . S
C3229 H3241 0.930 . S
C3230 C3226 1.524 . S
C3230 H3242 0.956 . S
C3230 H3243 0.961 . S
C3230 H3244 0.961 . S
C3231 C3228 1.539 . S
C3231 H3245 0.958 . S
C3231 H3246 0.961 . S
C3231 H3247 0.960 . S
H3232 C3216 0.931 . S
H3233 C3221 0.929 . S
H3234 C3222 0.960 . S
H3235 C3222 0.962 . S
H3236 C3222 0.960 . S
H3237 C3223 0.961 . S
H3238 C3223 0.961 . S
H3239 C3223 0.961 . S
H3240 C3224 0.931 . S
H3241 C3229 0.930 . S
H3242 C3230 0.956 . S
H3243 C3230 0.961 . S
H3244 C3230 0.961 . S
H3245 C3231 0.958 . S
H3246 C3231 0.961 . S
H3247 C3231 0.960 . S
C3248 C3249 1.391 . S
C3248 C3250 1.394 . S
C3248 H3264 0.931 . S
C3249 C3248 1.391 . S
C3249 C3253 1.376 . S
C3250 C3248 1.394 . S
C3250 C3251 1.369 . S
C3250 C3254 1.531 . S
C3251 C3250 1.369 . S
C3251 C3252 1.410 . S
C3251 C3259 1.503 . S
C3252 C3251 1.410 . S
C3252 C3253 1.392 . S
C3252 C3255 1.511 . S
C3253 C3249 1.376 . S
C3253 C3252 1.392 . S
C3253 H3265 0.929 . S
C3254 C3250 1.531 . S
C3254 H3266 0.960 . S
C3254 H3267 0.962 . S
C3254 H3268 0.960 . S
C3255 C3252 1.511 . S
C3255 H3269 0.961 . S
C3255 H3270 0.961 . S
C3255 H3271 0.961 . S
C3256 C3257 1.370 . S
C3256 C3258 1.363 . S
C3256 H3272 0.931 . S
C3257 C3256 1.370 . S
C3257 C3261 1.408 . S
C3258 C3256 1.363 . S
C3258 C3259 1.370 . S
C3258 C3262 1.524 . S
C3259 C3251 1.503 . S
C3259 C3258 1.370 . S
C3259 C3260 1.403 . S
C3260 C3259 1.403 . S
C3260 C3261 1.404 . S
C3260 C3263 1.539 . S
C3261 C3257 1.408 . S
C3261 C3260 1.404 . S
C3261 H3273 0.930 . S
C3262 C3258 1.524 . S
C3262 H3274 0.956 . S
C3262 H3275 0.961 . S
C3262 H3276 0.961 . S
C3263 C3260 1.539 . S
C3263 H3277 0.958 . S
C3263 H3278 0.961 . S
C3263 H3279 0.960 . S
H3264 C3248 0.931 . S
H3265 C3253 0.929 . S
H3266 C3254 0.960 . S
H3267 C3254 0.962 . S
H3268 C3254 0.960 . S
H3269 C3255 0.961 . S
H3270 C3255 0.961 . S
H3271 C3255 0.961 . S
H3272 C3256 0.931 . S
H3273 C3261 0.930 . S
H3274 C3262 0.956 . S
H3275 C3262 0.961 . S
H3276 C3262 0.961 . S
H3277 C3263 0.958 . S
H3278 C3263 0.961 . S
H3279 C3263 0.960 . S
C3280 C3281 1.391 . S
C3280 C3282 1.394 . S
C3280 H3296 0.931 . S
C3281 C3280 1.391 . S
C3281 C3285 1.376 . S
C3282 C3280 1.394 . S
C3282 C3283 1.369 . S
C3282 C3286 1.531 . S
C3283 C3282 1.369 . S
C3283 C3284 1.410 . S
C3283 C3291 1.503 . S
C3284 C3283 1.410 . S
C3284 C3285 1.392 . S
C3284 C3287 1.511 . S
C3285 C3281 1.376 . S
C3285 C3284 1.392 . S
C3285 H3297 0.929 . S
C3286 C3282 1.531 . S
C3286 H3298 0.960 . S
C3286 H3299 0.962 . S
C3286 H3300 0.960 . S
C3287 C3284 1.511 . S
C3287 H3301 0.961 . S
C3287 H3302 0.961 . S
C3287 H3303 0.961 . S
C3288 C3289 1.371 1_455 S
C3288 C3290 1.365 1_455 S
C3288 H3304 0.928 . S
C3289 C3288 1.371 1_655 S
C3289 C3293 1.408 . S
C3290 C3288 1.365 1_655 S
C3290 C3291 1.370 . S
C3290 C3294 1.549 . S
C3291 C3283 1.503 . S
C3291 C3290 1.370 . S
C3291 C3292 1.403 . S
C3292 C3291 1.403 . S
C3292 C3293 1.404 . S
C3292 C3295 1.539 . S
C3293 C3289 1.408 . S
C3293 C3292 1.404 . S
C3293 H3305 0.930 . S
C3294 C3290 1.549 . S
C3294 H3306 0.965 . S
C3294 H3307 0.976 . S
C3294 H3308 0.914 1_655 S
C3295 C3292 1.539 . S
C3295 H3309 0.958 . S
C3295 H3310 0.961 . S
C3295 H3311 0.960 . S
H3296 C3280 0.931 . S
H3297 C3285 0.929 . S
H3298 C3286 0.960 . S
H3299 C3286 0.962 . S
H3300 C3286 0.960 . S
H3301 C3287 0.961 . S
H3302 C3287 0.961 . S
H3303 C3287 0.961 . S
H3304 C3288 0.928 . S
H3305 C3293 0.930 . S
H3306 C3294 0.965 . S
H3307 C3294 0.976 . S
H3308 C3294 0.914 1_455 S
H3309 C3295 0.958 . S
H3310 C3295 0.961 . S
H3311 C3295 0.960 . S
C3312 C3313 1.391 . S
C3312 C3314 1.394 . S
C3312 H3328 0.931 . S
C3313 C3312 1.391 . S
C3313 C3317 1.376 . S
C3314 C3312 1.394 . S
C3314 C3315 1.369 . S
C3314 C3318 1.531 . S
C3315 C3314 1.369 . S
C3315 C3316 1.410 . S
C3315 C3323 1.503 . S
C3316 C3315 1.410 . S
C3316 C3317 1.392 . S
C3316 C3319 1.511 . S
C3317 C3313 1.376 . S
C3317 C3316 1.392 . S
C3317 H3329 0.929 . S
C3318 C3314 1.531 . S
C3318 H3330 0.960 . S
C3318 H3331 0.962 . S
C3318 H3332 0.960 . S
C3319 C3316 1.511 . S
C3319 H3333 0.961 . S
C3319 H3334 0.961 . S
C3319 H3335 0.961 . S
C3320 C3321 1.370 . S
C3320 C3322 1.363 . S
C3320 H3336 0.931 . S
C3321 C3320 1.370 . S
C3321 C3325 1.408 . S
C3322 C3320 1.363 . S
C3322 C3323 1.370 . S
C3322 C3326 1.524 . S
C3323 C3315 1.503 . S
C3323 C3322 1.370 . S
C3323 C3324 1.403 . S
C3324 C3323 1.403 . S
C3324 C3325 1.404 . S
C3324 C3327 1.539 . S
C3325 C3321 1.408 . S
C3325 C3324 1.404 . S
C3325 H3337 0.930 . S
C3326 C3322 1.524 . S
C3326 H3338 0.956 . S
C3326 H3339 0.961 . S
C3326 H3340 0.961 . S
C3327 C3324 1.539 . S
C3327 H3341 0.958 . S
C3327 H3342 0.961 . S
C3327 H3343 0.960 . S
H3328 C3312 0.931 . S
H3329 C3317 0.929 . S
H3330 C3318 0.960 . S
H3331 C3318 0.962 . S
H3332 C3318 0.960 . S
H3333 C3319 0.961 . S
H3334 C3319 0.961 . S
H3335 C3319 0.961 . S
H3336 C3320 0.931 . S
H3337 C3325 0.930 . S
H3338 C3326 0.956 . S
H3339 C3326 0.961 . S
H3340 C3326 0.961 . S
H3341 C3327 0.958 . S
H3342 C3327 0.961 . S
H3343 C3327 0.960 . S
C3344 C3345 1.391 . S
C3344 C3346 1.394 . S
C3344 H3360 0.931 . S
C3345 C3344 1.391 . S
C3345 C3349 1.376 . S
C3346 C3344 1.394 . S
C3346 C3347 1.369 . S
C3346 C3350 1.531 . S
C3347 C3346 1.369 . S
C3347 C3348 1.410 . S
C3347 C3355 1.503 . S
C3348 C3347 1.410 . S
C3348 C3349 1.392 . S
C3348 C3351 1.511 . S
C3349 C3345 1.376 . S
C3349 C3348 1.392 . S
C3349 H3361 0.929 . S
C3350 C3346 1.531 . S
C3350 H3362 0.960 . S
C3350 H3363 0.962 . S
C3350 H3364 0.960 . S
C3351 C3348 1.511 . S
C3351 H3365 0.961 . S
C3351 H3366 0.961 . S
C3351 H3367 0.961 . S
C3352 C3353 1.370 . S
C3352 C3354 1.363 . S
C3352 H3368 0.931 . S
C3353 C3352 1.370 . S
C3353 C3357 1.408 . S
C3354 C3352 1.363 . S
C3354 C3355 1.370 . S
C3354 C3358 1.524 . S
C3355 C3347 1.503 . S
C3355 C3354 1.370 . S
C3355 C3356 1.403 . S
C3356 C3355 1.403 . S
C3356 C3357 1.404 . S
C3356 C3359 1.539 . S
C3357 C3353 1.408 . S
C3357 C3356 1.404 . S
C3357 H3369 0.930 . S
C3358 C3354 1.524 . S
C3358 H3370 0.956 . S
C3358 H3371 0.961 . S
C3358 H3372 0.961 . S
C3359 C3356 1.539 . S
C3359 H3373 0.958 . S
C3359 H3374 0.961 . S
C3359 H3375 0.960 . S
H3360 C3344 0.931 . S
H3361 C3349 0.929 . S
H3362 C3350 0.960 . S
H3363 C3350 0.962 . S
H3364 C3350 0.960 . S
H3365 C3351 0.961 . S
H3366 C3351 0.961 . S
H3367 C3351 0.961 . S
H3368 C3352 0.931 . S
H3369 C3357 0.930 . S
H3370 C3358 0.956 . S
H3371 C3358 0.961 . S
H3372 C3358 0.961 . S
H3373 C3359 0.958 . S
H3374 C3359 0.961 . S
H3375 C3359 0.960 . S
C3376 C3377 1.391 . S
C3376 C3378 1.394 . S
C3376 H3392 0.931 . S
C3377 C3376 1.391 . S
C3377 C3381 1.376 . S
C3378 C3376 1.394 . S
C3378 C3379 1.369 . S
C3378 C3382 1.531 . S
C3379 C3378 1.369 . S
C3379 C3380 1.410 . S
C3379 C3387 1.503 . S
C3380 C3379 1.410 . S
C3380 C3381 1.392 . S
C3380 C3383 1.511 . S
C3381 C3377 1.376 . S
C3381 C3380 1.392 . S
C3381 H3393 0.929 . S
C3382 C3378 1.531 . S
C3382 H3394 0.960 . S
C3382 H3395 0.962 . S
C3382 H3396 0.960 . S
C3383 C3380 1.511 . S
C3383 H3397 0.961 . S
C3383 H3398 0.961 . S
C3383 H3399 0.961 . S
C3384 C3385 1.370 . S
C3384 C3386 1.363 . S
C3384 H3400 0.931 . S
C3385 C3384 1.370 . S
C3385 C3389 1.408 . S
C3386 C3384 1.363 . S
C3386 C3387 1.370 . S
C3386 C3390 1.524 . S
C3387 C3379 1.503 . S
C3387 C3386 1.370 . S
C3387 C3388 1.403 . S
C3388 C3387 1.403 . S
C3388 C3389 1.404 . S
C3388 C3391 1.539 . S
C3389 C3385 1.408 . S
C3389 C3388 1.404 . S
C3389 H3401 0.930 . S
C3390 C3386 1.524 . S
C3390 H3402 0.956 . S
C3390 H3403 0.961 . S
C3390 H3404 0.961 . S
C3391 C3388 1.539 . S
C3391 H3405 0.958 . S
C3391 H3406 0.961 . S
C3391 H3407 0.960 . S
H3392 C3376 0.931 . S
H3393 C3381 0.929 . S
H3394 C3382 0.960 . S
H3395 C3382 0.962 . S
H3396 C3382 0.960 . S
H3397 C3383 0.961 . S
H3398 C3383 0.961 . S
H3399 C3383 0.961 . S
H3400 C3384 0.931 . S
H3401 C3389 0.930 . S
H3402 C3390 0.956 . S
H3403 C3390 0.961 . S
H3404 C3390 0.961 . S
H3405 C3391 0.958 . S
H3406 C3391 0.961 . S
H3407 C3391 0.960 . S
C3408 C3409 1.391 . S
C3408 C3410 1.394 . S
C3408 H3424 0.931 . S
C3409 C3408 1.391 . S
C3409 C3413 1.376 . S
C3410 C3408 1.394 . S
C3410 C3411 1.369 . S
C3410 C3414 1.531 . S
C3411 C3410 1.369 . S
C3411 C3412 1.410 . S
C3411 C3419 1.503 . S
C3412 C3411 1.410 . S
C3412 C3413 1.392 . S
C3412 C3415 1.511 . S
C3413 C3409 1.376 . S
C3413 C3412 1.392 . S
C3413 H3425 0.929 . S
C3414 C3410 1.531 . S
C3414 H3426 0.960 . S
C3414 H3427 0.962 . S
C3414 H3428 0.960 . S
C3415 C3412 1.511 . S
C3415 H3429 0.961 . S
C3415 H3430 0.961 . S
C3415 H3431 0.961 . S
C3416 C3417 1.370 . S
C3416 C3418 1.363 . S
C3416 H3432 0.931 . S
C3417 C3416 1.370 . S
C3417 C3421 1.408 . S
C3418 C3416 1.363 . S
C3418 C3419 1.370 . S
C3418 C3422 1.524 . S
C3419 C3411 1.503 . S
C3419 C3418 1.370 . S
C3419 C3420 1.403 . S
C3420 C3419 1.403 . S
C3420 C3421 1.404 . S
C3420 C3423 1.539 . S
C3421 C3417 1.408 . S
C3421 C3420 1.404 . S
C3421 H3433 0.930 1_655 S
C3422 C3418 1.524 . S
C3422 H3434 0.956 . S
C3422 H3435 0.961 . S
C3422 H3436 0.961 . S
C3423 C3420 1.539 . S
C3423 H3437 0.958 1_655 S
C3423 H3438 0.961 1_655 S
C3423 H3439 0.960 . S
H3424 C3408 0.931 . S
H3425 C3413 0.929 . S
H3426 C3414 0.960 . S
H3427 C3414 0.962 . S
H3428 C3414 0.960 . S
H3429 C3415 0.961 . S
H3430 C3415 0.961 . S
H3431 C3415 0.961 . S
H3432 C3416 0.931 . S
H3433 C3421 0.930 1_455 S
H3434 C3422 0.956 . S
H3435 C3422 0.961 . S
H3436 C3422 0.961 . S
H3437 C3423 0.958 1_455 S
H3438 C3423 0.961 1_455 S
H3439 C3423 0.960 . S
C3440 C3441 1.391 . S
C3440 C3442 1.394 . S
C3440 H3456 0.931 . S
C3441 C3440 1.391 . S
C3441 C3445 1.376 . S
C3442 C3440 1.394 . S
C3442 C3443 1.369 . S
C3442 C3446 1.531 . S
C3443 C3442 1.369 . S
C3443 C3444 1.410 . S
C3443 C3451 1.503 . S
C3444 C3443 1.410 . S
C3444 C3445 1.392 . S
C3444 C3447 1.511 . S
C3445 C3441 1.376 . S
C3445 C3444 1.392 . S
C3445 H3457 0.929 . S
C3446 C3442 1.531 . S
C3446 H3458 0.960 . S
C3446 H3459 0.962 . S
C3446 H3460 0.960 . S
C3447 C3444 1.511 . S
C3447 H3461 0.961 . S
C3447 H3462 0.961 . S
C3447 H3463 0.961 . S
C3448 C3449 1.370 . S
C3448 C3450 1.363 . S
C3448 H3464 0.931 . S
C3449 C3448 1.370 . S
C3449 C3453 1.408 . S
C3450 C3448 1.363 . S
C3450 C3451 1.370 . S
C3450 C3454 1.524 . S
C3451 C3443 1.503 . S
C3451 C3450 1.370 . S
C3451 C3452 1.403 . S
C3452 C3451 1.403 . S
C3452 C3453 1.404 . S
C3452 C3455 1.539 . S
C3453 C3449 1.408 . S
C3453 C3452 1.404 . S
C3453 H3465 0.930 . S
C3454 C3450 1.524 . S
C3454 H3466 0.956 . S
C3454 H3467 0.961 . S
C3454 H3468 0.961 . S
C3455 C3452 1.539 . S
C3455 H3469 0.958 . S
C3455 H3470 0.961 . S
C3455 H3471 0.960 . S
H3456 C3440 0.931 . S
H3457 C3445 0.929 . S
H3458 C3446 0.960 . S
H3459 C3446 0.962 . S
H3460 C3446 0.960 . S
H3461 C3447 0.961 . S
H3462 C3447 0.961 . S
H3463 C3447 0.961 . S
H3464 C3448 0.931 . S
H3465 C3453 0.930 . S
H3466 C3454 0.956 . S
H3467 C3454 0.961 . S
H3468 C3454 0.961 . S
H3469 C3455 0.958 . S
H3470 C3455 0.961 . S
H3471 C3455 0.960 . S
C3472 C3473 1.391 . S
C3472 C3474 1.394 . S
C3472 H3488 0.931 . S
C3473 C3472 1.391 . S
C3473 C3477 1.376 . S
C3474 C3472 1.394 . S
C3474 C3475 1.369 . S
C3474 C3478 1.531 . S
C3475 C3474 1.369 . S
C3475 C3476 1.410 . S
C3475 C3483 1.503 . S
C3476 C3475 1.410 . S
C3476 C3477 1.392 . S
C3476 C3479 1.511 . S
C3477 C3473 1.376 . S
C3477 C3476 1.392 . S
C3477 H3489 0.929 . S
C3478 C3474 1.531 . S
C3478 H3490 0.960 . S
C3478 H3491 0.962 . S
C3478 H3492 0.960 . S
C3479 C3476 1.511 . S
C3479 H3493 0.961 . S
C3479 H3494 0.961 . S
C3479 H3495 0.961 . S
C3480 C3481 1.370 . S
C3480 C3482 1.363 . S
C3480 H3496 0.931 . S
C3481 C3480 1.370 . S
C3481 C3485 1.408 . S
C3482 C3480 1.363 . S
C3482 C3483 1.370 . S
C3482 C3486 1.524 . S
C3483 C3475 1.503 . S
C3483 C3482 1.370 . S
C3483 C3484 1.403 . S
C3484 C3483 1.403 . S
C3484 C3485 1.404 . S
C3484 C3487 1.539 . S
C3485 C3481 1.408 . S
C3485 C3484 1.404 . S
C3485 H3497 0.930 . S
C3486 C3482 1.524 . S
C3486 H3498 0.956 . S
C3486 H3499 0.961 . S
C3486 H3500 0.961 . S
C3487 C3484 1.539 . S
C3487 H3501 0.958 . S
C3487 H3502 0.961 . S
C3487 H3503 0.960 . S
H3488 C3472 0.931 . S
H3489 C3477 0.929 . S
H3490 C3478 0.960 . S
H3491 C3478 0.962 . S
H3492 C3478 0.960 . S
H3493 C3479 0.961 . S
H3494 C3479 0.961 . S
H3495 C3479 0.961 . S
H3496 C3480 0.931 . S
H3497 C3485 0.930 . S
H3498 C3486 0.956 . S
H3499 C3486 0.961 . S
H3500 C3486 0.961 . S
H3501 C3487 0.958 . S
H3502 C3487 0.961 . S
H3503 C3487 0.960 . S
C3504 C3505 1.391 . S
C3504 C3506 1.394 . S
C3504 H3520 0.931 . S
C3505 C3504 1.391 . S
C3505 C3509 1.376 . S
C3506 C3504 1.394 . S
C3506 C3507 1.369 . S
C3506 C3510 1.531 . S
C3507 C3506 1.369 . S
C3507 C3508 1.410 . S
C3507 C3515 1.503 . S
C3508 C3507 1.410 . S
C3508 C3509 1.392 . S
C3508 C3511 1.511 . S
C3509 C3505 1.376 . S
C3509 C3508 1.392 . S
C3509 H3521 0.929 . S
C3510 C3506 1.531 . S
C3510 H3522 0.960 . S
C3510 H3523 0.962 . S
C3510 H3524 0.960 . S
C3511 C3508 1.511 . S
C3511 H3525 0.961 . S
C3511 H3526 0.961 . S
C3511 H3527 0.961 . S
C3512 C3513 1.370 . S
C3512 C3514 1.363 . S
C3512 H3528 0.931 . S
C3513 C3512 1.370 . S
C3513 C3517 1.408 . S
C3514 C3512 1.363 . S
C3514 C3515 1.370 . S
C3514 C3518 1.524 . S
C3515 C3507 1.503 . S
C3515 C3514 1.370 . S
C3515 C3516 1.403 . S
C3516 C3515 1.403 . S
C3516 C3517 1.404 . S
C3516 C3519 1.539 . S
C3517 C3513 1.408 . S
C3517 C3516 1.404 . S
C3517 H3529 0.930 . S
C3518 C3514 1.524 . S
C3518 H3530 0.956 . S
C3518 H3531 0.961 . S
C3518 H3532 0.961 . S
C3519 C3516 1.539 . S
C3519 H3533 0.958 . S
C3519 H3534 0.961 . S
C3519 H3535 0.960 . S
H3520 C3504 0.931 . S
H3521 C3509 0.929 . S
H3522 C3510 0.960 . S
H3523 C3510 0.962 . S
H3524 C3510 0.960 . S
H3525 C3511 0.961 . S
H3526 C3511 0.961 . S
H3527 C3511 0.961 . S
H3528 C3512 0.931 . S
H3529 C3517 0.930 . S
H3530 C3518 0.956 . S
H3531 C3518 0.961 . S
H3532 C3518 0.961 . S
H3533 C3519 0.958 . S
H3534 C3519 0.961 . S
H3535 C3519 0.960 . S
C3536 C3537 1.391 . S
C3536 C3538 1.394 . S
C3536 H3552 0.931 . S
C3537 C3536 1.391 . S
C3537 C3541 1.376 . S
C3538 C3536 1.394 . S
C3538 C3539 1.369 . S
C3538 C3542 1.531 . S
C3539 C3538 1.369 . S
C3539 C3540 1.410 . S
C3539 C3547 1.503 . S
C3540 C3539 1.410 . S
C3540 C3541 1.392 . S
C3540 C3543 1.511 . S
C3541 C3537 1.376 . S
C3541 C3540 1.392 . S
C3541 H3553 0.929 . S
C3542 C3538 1.531 . S
C3542 H3554 0.960 . S
C3542 H3555 0.962 . S
C3542 H3556 0.960 . S
C3543 C3540 1.511 . S
C3543 H3557 0.961 . S
C3543 H3558 0.961 . S
C3543 H3559 0.961 . S
C3544 C3545 1.370 . S
C3544 C3546 1.363 . S
C3544 H3560 0.931 . S
C3545 C3544 1.370 . S
C3545 C3549 1.408 . S
C3546 C3544 1.363 . S
C3546 C3547 1.370 . S
C3546 C3550 1.524 . S
C3547 C3539 1.503 . S
C3547 C3546 1.370 . S
C3547 C3548 1.403 . S
C3548 C3547 1.403 . S
C3548 C3549 1.404 . S
C3548 C3551 1.539 . S
C3549 C3545 1.408 . S
C3549 C3548 1.404 . S
C3549 H3561 0.930 . S
C3550 C3546 1.524 . S
C3550 H3562 0.956 . S
C3550 H3563 0.961 . S
C3550 H3564 0.961 . S
C3551 C3548 1.539 . S
C3551 H3565 0.958 . S
C3551 H3566 0.961 . S
C3551 H3567 0.960 . S
H3552 C3536 0.931 . S
H3553 C3541 0.929 . S
H3554 C3542 0.960 . S
H3555 C3542 0.962 . S
H3556 C3542 0.960 . S
H3557 C3543 0.961 . S
H3558 C3543 0.961 . S
H3559 C3543 0.961 . S
H3560 C3544 0.931 . S
H3561 C3549 0.930 . S
H3562 C3550 0.956 . S
H3563 C3550 0.961 . S
H3564 C3550 0.961 . S
H3565 C3551 0.958 . S
H3566 C3551 0.961 . S
H3567 C3551 0.960 . S
C3568 C3569 1.391 1_554 S
C3568 C3570 1.394 . S
C3568 H3584 0.931 . S
C3569 C3568 1.391 1_556 S
C3569 C3573 1.376 . S
C3570 C3568 1.394 . S
C3570 C3571 1.369 . S
C3570 C3574 1.531 . S
C3571 C3570 1.369 . S
C3571 C3572 1.424 . S
C3571 C3579 1.503 . S
C3572 C3571 1.424 . S
C3572 C3573 1.382 1_554 S
C3572 C3575 1.509 1_554 S
C3573 C3569 1.376 . S
C3573 C3572 1.382 1_556 S
C3573 H3585 0.929 . S
C3574 C3570 1.531 . S
C3574 H3586 0.960 . S
C3574 H3587 0.962 1_554 S
C3574 H3588 0.960 . S
C3575 C3572 1.509 1_556 S
C3575 H3589 0.969 . S
C3575 H3590 0.964 . S
C3575 H3591 0.950 1_556 S
C3576 C3577 1.370 1_556 S
C3576 C3578 1.363 . S
C3576 H3592 0.931 . S
C3577 C3576 1.370 1_554 S
C3577 C3581 1.408 . S
C3578 C3576 1.363 . S
C3578 C3579 1.370 1_556 S
C3578 C3582 1.524 . S
C3579 C3571 1.503 . S
C3579 C3578 1.370 1_554 S
C3579 C3580 1.403 . S
C3580 C3579 1.403 . S
C3580 C3581 1.404 . S
C3580 C3583 1.539 . S
C3581 C3577 1.408 . S
C3581 C3580 1.404 . S
C3581 H3593 0.930 . S
C3582 C3578 1.524 . S
C3582 H3594 0.956 . S
C3582 H3595 0.961 . S
C3582 H3596 0.961 . S
C3583 C3580 1.539 . S
C3583 H3597 0.958 . S
C3583 H3598 0.961 . S
C3583 H3599 0.960 . S
H3584 C3568 0.931 . S
H3585 C3573 0.929 . S
H3586 C3574 0.960 . S
H3587 C3574 0.962 1_556 S
H3588 C3574 0.960 . S
H3589 C3575 0.969 . S
H3590 C3575 0.964 . S
H3591 C3575 0.950 1_554 S
H3592 C3576 0.931 . S
H3593 C3581 0.930 . S
H3594 C3582 0.956 . S
H3595 C3582 0.961 . S
H3596 C3582 0.961 . S
H3597 C3583 0.958 . S
H3598 C3583 0.961 . S
H3599 C3583 0.960 . S
C3600 C3601 1.391 . S
C3600 C3602 1.394 . S
C3600 H3616 0.931 . S
C3601 C3600 1.391 . S
C3601 C3605 1.376 . S
C3602 C3600 1.394 . S
C3602 C3603 1.369 . S
C3602 C3606 1.531 . S
C3603 C3602 1.369 . S
C3603 C3604 1.410 . S
C3603 C3611 1.503 . S
C3604 C3603 1.410 . S
C3604 C3605 1.392 . S
C3604 C3607 1.511 . S
C3605 C3601 1.376 . S
C3605 C3604 1.392 . S
C3605 H3617 0.929 . S
C3606 C3602 1.531 . S
C3606 H3618 0.960 . S
C3606 H3619 0.962 . S
C3606 H3620 0.960 . S
C3607 C3604 1.511 . S
C3607 H3621 0.961 . S
C3607 H3622 0.961 . S
C3607 H3623 0.961 . S
C3608 C3609 1.370 . S
C3608 C3610 1.363 . S
C3608 H3624 0.931 . S
C3609 C3608 1.370 . S
C3609 C3613 1.408 . S
C3610 C3608 1.363 . S
C3610 C3611 1.370 . S
C3610 C3614 1.524 . S
C3611 C3603 1.503 . S
C3611 C3610 1.370 . S
C3611 C3612 1.403 . S
C3612 C3611 1.403 . S
C3612 C3613 1.404 . S
C3612 C3615 1.539 . S
C3613 C3609 1.408 . S
C3613 C3612 1.404 . S
C3613 H3625 0.930 . S
C3614 C3610 1.524 . S
C3614 H3626 0.956 . S
C3614 H3627 0.961 . S
C3614 H3628 0.961 . S
C3615 C3612 1.539 . S
C3615 H3629 0.958 . S
C3615 H3630 0.961 . S
C3615 H3631 0.960 . S
H3616 C3600 0.931 . S
H3617 C3605 0.929 . S
H3618 C3606 0.960 . S
H3619 C3606 0.962 . S
H3620 C3606 0.960 . S
H3621 C3607 0.961 . S
H3622 C3607 0.961 . S
H3623 C3607 0.961 . S
H3624 C3608 0.931 . S
H3625 C3613 0.930 . S
H3626 C3614 0.956 . S
H3627 C3614 0.961 . S
H3628 C3614 0.961 . S
H3629 C3615 0.958 . S
H3630 C3615 0.961 . S
H3631 C3615 0.960 . S
C3632 C3633 1.391 . S
C3632 C3634 1.394 . S
C3632 H3648 0.931 . S
C3633 C3632 1.391 . S
C3633 C3637 1.376 1_554 S
C3634 C3632 1.394 . S
C3634 C3635 1.369 1_554 S
C3634 C3638 1.531 . S
C3635 C3634 1.369 1_556 S
C3635 C3636 1.410 . S
C3635 C3643 1.503 . S
C3636 C3635 1.410 . S
C3636 C3637 1.392 . S
C3636 C3639 1.511 . S
C3637 C3633 1.376 1_556 S
C3637 C3636 1.392 . S
C3637 H3649 0.929 . S
C3638 C3634 1.531 . S
C3638 H3650 0.960 . S
C3638 H3651 0.962 . S
C3638 H3652 0.960 . S
C3639 C3636 1.511 . S
C3639 H3653 0.961 . S
C3639 H3654 0.961 . S
C3639 H3655 0.961 . S
C3640 C3641 1.370 1_554 S
C3640 C3642 1.363 . S
C3640 H3656 0.931 . S
C3641 C3640 1.370 1_556 S
C3641 C3645 1.408 . S
C3642 C3640 1.363 . S
C3642 C3643 1.370 1_554 S
C3642 C3646 1.524 . S
C3643 C3635 1.503 . S
C3643 C3642 1.370 1_556 S
C3643 C3644 1.403 . S
C3644 C3643 1.403 . S
C3644 C3645 1.404 . S
C3644 C3647 1.539 . S
C3645 C3641 1.408 . S
C3645 C3644 1.404 . S
C3645 H3657 0.930 . S
C3646 C3642 1.524 . S
C3646 H3658 0.956 . S
C3646 H3659 0.961 . S
C3646 H3660 0.961 . S
C3647 C3644 1.539 . S
C3647 H3661 0.958 . S
C3647 H3662 0.961 . S
C3647 H3663 0.960 . S
H3648 C3632 0.931 . S
H3649 C3637 0.929 . S
H3650 C3638 0.960 . S
H3651 C3638 0.962 . S
H3652 C3638 0.960 . S
H3653 C3639 0.961 . S
H3654 C3639 0.961 . S
H3655 C3639 0.961 . S
H3656 C3640 0.931 . S
H3657 C3645 0.930 . S
H3658 C3646 0.956 . S
H3659 C3646 0.961 . S
H3660 C3646 0.961 . S
H3661 C3647 0.958 . S
H3662 C3647 0.961 . S
H3663 C3647 0.960 . S
C3664 C3665 1.391 . S
C3664 C3666 1.394 . S
C3664 H3680 0.931 . S
C3665 C3664 1.391 . S
C3665 C3669 1.376 . S
C3666 C3664 1.394 . S
C3666 C3667 1.369 . S
C3666 C3670 1.531 . S
C3667 C3666 1.369 . S
C3667 C3668 1.410 . S
C3667 C3675 1.503 . S
C3668 C3667 1.410 . S
C3668 C3669 1.392 . S
C3668 C3671 1.511 . S
C3669 C3665 1.376 . S
C3669 C3668 1.392 . S
C3669 H3681 0.929 . S
C3670 C3666 1.531 . S
C3670 H3682 0.960 . S
C3670 H3683 0.962 . S
C3670 H3684 0.960 . S
C3671 C3668 1.511 . S
C3671 H3685 0.961 . S
C3671 H3686 0.961 . S
C3671 H3687 0.961 . S
C3672 C3673 1.370 . S
C3672 C3674 1.363 . S
C3672 H3688 0.931 . S
C3673 C3672 1.370 . S
C3673 C3677 1.408 . S
C3674 C3672 1.363 . S
C3674 C3675 1.370 . S
C3674 C3678 1.524 . S
C3675 C3667 1.503 . S
C3675 C3674 1.370 . S
C3675 C3676 1.403 . S
C3676 C3675 1.403 . S
C3676 C3677 1.404 . S
C3676 C3679 1.539 . S
C3677 C3673 1.408 . S
C3677 C3676 1.404 . S
C3677 H3689 0.930 . S
C3678 C3674 1.524 . S
C3678 H3690 0.956 . S
C3678 H3691 0.961 . S
C3678 H3692 0.961 . S
C3679 C3676 1.539 . S
C3679 H3693 0.958 . S
C3679 H3694 0.961 . S
C3679 H3695 0.960 . S
H3680 C3664 0.931 . S
H3681 C3669 0.929 . S
H3682 C3670 0.960 . S
H3683 C3670 0.962 . S
H3684 C3670 0.960 . S
H3685 C3671 0.961 . S
H3686 C3671 0.961 . S
H3687 C3671 0.961 . S
H3688 C3672 0.931 . S
H3689 C3677 0.930 . S
H3690 C3678 0.956 . S
H3691 C3678 0.961 . S
H3692 C3678 0.961 . S
H3693 C3679 0.958 . S
H3694 C3679 0.961 . S
H3695 C3679 0.960 . S
C3696 C3697 1.391 . S
C3696 C3698 1.394 . S
C3696 H3712 0.931 . S
C3697 C3696 1.391 . S
C3697 C3701 1.376 . S
C3698 C3696 1.394 . S
C3698 C3699 1.369 . S
C3698 C3702 1.531 . S
C3699 C3698 1.369 . S
C3699 C3700 1.410 . S
C3699 C3707 1.503 . S
C3700 C3699 1.410 . S
C3700 C3701 1.392 . S
C3700 C3703 1.511 . S
C3701 C3697 1.376 . S
C3701 C3700 1.392 . S
C3701 H3713 0.929 . S
C3702 C3698 1.531 . S
C3702 H3714 0.960 . S
C3702 H3715 0.962 . S
C3702 H3716 0.960 . S
C3703 C3700 1.511 . S
C3703 H3717 0.961 . S
C3703 H3718 0.961 . S
C3703 H3719 0.961 . S
C3704 C3705 1.370 . S
C3704 C3706 1.363 . S
C3704 H3720 0.931 . S
C3705 C3704 1.370 . S
C3705 C3709 1.408 . S
C3706 C3704 1.363 . S
C3706 C3707 1.370 . S
C3706 C3710 1.524 . S
C3707 C3699 1.503 . S
C3707 C3706 1.370 . S
C3707 C3708 1.403 . S
C3708 C3707 1.403 . S
C3708 C3709 1.404 . S
C3708 C3711 1.539 . S
C3709 C3705 1.408 . S
C3709 C3708 1.404 . S
C3709 H3721 0.930 . S
C3710 C3706 1.524 . S
C3710 H3722 0.956 . S
C3710 H3723 0.961 . S
C3710 H3724 0.961 . S
C3711 C3708 1.539 . S
C3711 H3725 0.958 . S
C3711 H3726 0.961 . S
C3711 H3727 0.960 . S
H3712 C3696 0.931 . S
H3713 C3701 0.929 . S
H3714 C3702 0.960 . S
H3715 C3702 0.962 . S
H3716 C3702 0.960 . S
H3717 C3703 0.961 . S
H3718 C3703 0.961 . S
H3719 C3703 0.961 . S
H3720 C3704 0.931 . S
H3721 C3709 0.930 . S
H3722 C3710 0.956 . S
H3723 C3710 0.961 . S
H3724 C3710 0.961 . S
H3725 C3711 0.958 . S
H3726 C3711 0.961 . S
H3727 C3711 0.960 . S
C657 C105 1.571 . S
C665 C354 1.561 1_556 S
C689 C65 1.639 . S
C697 C365 1.641 . S
C721 C73 1.041 . S
C729 C394 1.011 . S
C761 C397 1.449 . S
C753 C92 1.443 . S
C785 C17 1.676 . S
C793 C435 1.620 . S
C825 C438 1.005 . S
C817 C37 0.982 . S
C857 C465 1.500 . S
C849 C49 1.423 . S
C881 C8 1.665 . S
C889 C494 1.584 . S
C921 C345 1.571 1_655 S
C913 C231 1.510 . S
C945 C241 0.878 . S
C953 C357 0.901 . S
C985 C385 1.587 . S
C977 C273 1.526 . S
C1017 C414 1.097 . S
C1009 C171 1.109 . S
C1041 C227 0.989 . S
C1049 C418 1.013 . S
C1081 C444 1.622 . S
C1073 C245 1.562 . S
C1113 C457 0.774 . S
C1105 C269 0.784 . S
C1145 C485 1.601 . S
C1137 C175 1.557 . S
C1177 C337 1.525 1_565 S
C1169 C162 1.530 . S
C1201 C289 1.748 . S
C1209 C504 1.719 1_554 S
C1241 C535 1.527 . S
C1233 C330 1.607 . S
C1273 C554 0.950 . S
C1265 C317 0.975 . S
C1297 C120 1.364 . S
C1305 C477 1.342 . S
C1329 C134 1.506 . S
C1337 C377 1.506 . S
C1361 C331 1.552 . S
C1369 C565 1.560 . S
C1401 C594 0.881 . S
C1393 C303 0.924 . S
C1433 C355 1.583 . S
C1425 C59 1.612 . S
C1465 C584 1.673 . S
C1457 C107 1.662 . S
C1489 C91 1.093 . S
C1497 C395 1.049 . S
C1521 C78 1.475 . S
C1529 C558 1.469 . S
C1561 C434 1.642 . S
C1553 C7 1.685 . S
C1585 C51 1.046 . S
C1593 C517 1.039 . S
C1625 C464 1.532 1_556 S
C1617 C31 1.527 . S
C1657 C615 1.618 . S
C1649 C22 1.659 . S
C1689 C344 1.584 . S
C1681 C143 1.592 . S
C1721 C578 0.919 . S
C1713 C315 0.926 . S
C1745 C115 1.613 . S
C1753 C384 1.613 . S
C1777 C287 1.169 . S
C1785 C575 1.147 . S
C1809 C147 0.967 . S
C1817 C417 1.040 . S
C1849 C525 1.638 . S
C1841 C311 1.657 . S
C1873 C119 0.835 . S
C1881 C458 0.814 . S
C1905 C283 1.634 . S
C1913 C604 1.628 . S
C1937 C190 1.532 . S
C1945 C338 1.534 . S
C1969 C177 1.758 . S
C1977 C505 1.751 . S
C2001 C260 1.583 . S
C2009 C454 1.569 . S
C2033 C247 0.987 . S
C2041 C555 0.980 . S
C2073 C598 1.346 . S
C2065 C274 1.368 . S
C2097 C218 1.505 . S
C2105 C378 1.507 . S
C2137 C404 1.591 . S
C2129 C261 1.573 . S
C2169 C375 0.908 . S
C2161 C205 0.935 . S
C2193 C77 1.606 . S
C2201 C634 1.555 . S
C2233 C585 1.643 . S
C2225 C93 1.636 . S
C2257 C101 1.041 . S
C2265 C654 1.005 . S
C2289 C64 1.445 . S
C2297 C557 1.445 . S
C2321 C45 1.674 . S
C2329 C515 1.607 . S
C2361 C518 1.020 . S
C2353 C9 1.023 . S
C2393 C545 1.500 . S
C2385 C21 1.475 1_655 S
C2425 C614 1.587 . S
C2417 C36 1.662 . S
C2457 C625 1.569 . S
C2449 C259 1.532 . S
C2481 C185 0.903 . S
C2489 C577 0.884 . S
C2521 C645 1.587 . S
C2513 C203 1.558 . S
C2553 C574 1.099 . S
C2545 C213 1.109 . S
C2585 C498 1.013 . S
C2577 C255 0.990 . S
C2609 C189 1.608 . S
C2617 C524 1.604 . S
C2649 C537 0.775 . S
C2641 C199 0.784 . S
C2673 C217 1.558 . S
C2681 C605 1.600 . S
C2713 C617 1.515 . S
C2705 C316 1.541 . S
C2737 C135 1.751 . S
C2745 C424 1.723 . S
C2777 C455 1.527 . S
C2769 C148 1.612 . S
C2809 C474 0.958 . S
C2801 C163 0.959 . S
C2841 C597 1.352 . S
C2833 C302 1.351 . S
C2865 C288 1.514 . S
C2873 C637 1.497 . S
C2905 C405 1.562 . S
C2897 C149 1.543 . S
C2937 C374 0.891 . S
C2929 C121 0.895 . S
C2961 C87 1.635 . S
C2969 C635 1.594 . S
C3001 C364 1.669 . S
C2993 C79 1.673 . S
C3025 C63 1.097 . S
C3033 C655 1.051 . S
C3057 C106 1.489 . S
C3065 C398 1.476 . S
C3089 C35 1.650 . S
C3097 C514 1.651 . S
C3129 C437 1.034 . S
C3121 C23 1.044 . S
C3153 C3 1.528 . S
C3161 C544 1.534 . S
C3185 C50 1.660 . S
C3193 C495 1.628 . S
C3225 C624 1.584 . S
C3217 C325 1.589 . S
C3249 C161 0.842 . S
C3257 C358 0.926 . S
C3289 C644 1.613 1_655 S
C3281 C297 1.611 . S
C3313 C133 1.177 . S
C3321 C415 1.154 . S
C3345 C329 0.977 . S
C3353 C497 1.042 . S
C3385 C445 1.631 . S
C3377 C157 1.657 . S
C3409 C301 0.772 . S
C3417 C538 0.800 . S
C3449 C484 1.634 . S
C3441 C129 1.630 . S
C3481 C618 1.539 . S
C3473 C246 1.532 . S
C3513 C425 1.756 1_565 S
C3505 C219 1.761 . S
C3537 C232 1.590 . S
C3545 C534 1.568 . S
C3577 C475 0.981 . S
C3569 C191 0.988 . S
C3601 C204 1.334 . S
C3609 C478 1.363 . S
C3633 C176 1.487 . S
C3641 C638 1.520 . S
C3673 C564 1.587 . S
C3665 C233 1.578 . S
C3705 C595 0.931 . S
C3697 C275 0.950 . S
