# Generated by pormake.
# Topology iac, (4,6)-cn, num edge types: 1
# Building blocks:
#     Node 0, Type 0, BuildingBlock: CEKHIL_clean_sbu_0, # of connection points: 4
#     Node 1, Type 0, BuildingBlock: CEKHIL_clean_sbu_0, # of connection points: 4
#     Node 2, Type 0, BuildingBlock: CEKHIL_clean_sbu_0, # of connection points: 4
#     Node 3, Type 0, BuildingBlock: CEKHIL_clean_sbu_0, # of connection points: 4
#     Node 4, Type 0, BuildingBlock: CEKHIL_clean_sbu_0, # of connection points: 4
#     Node 5, Type 0, BuildingBlock: CEKHIL_clean_sbu_0, # of connection points: 4
#     Node 6, Type 0, BuildingBlock: CEKHIL_clean_sbu_0, # of connection points: 4
#     Node 7, Type 0, BuildingBlock: CEKHIL_clean_sbu_0, # of connection points: 4
#     Node 8, Type 0, BuildingBlock: CEKHIL_clean_sbu_0, # of connection points: 4
#     Node 9, Type 0, BuildingBlock: CEKHIL_clean_sbu_0, # of connection points: 4
#     Node 10, Type 0, BuildingBlock: CEKHIL_clean_sbu_0, # of connection points: 4
#     Node 11, Type 0, BuildingBlock: CEKHIL_clean_sbu_0, # of connection points: 4
#     Node 12, Type 0, BuildingBlock: CEKHIL_clean_sbu_0, # of connection points: 4
#     Node 13, Type 0, BuildingBlock: CEKHIL_clean_sbu_0, # of connection points: 4
#     Node 14, Type 0, BuildingBlock: CEKHIL_clean_sbu_0, # of connection points: 4
#     Node 15, Type 0, BuildingBlock: CEKHIL_clean_sbu_0, # of connection points: 4
#     Node 16, Type 0, BuildingBlock: CEKHIL_clean_sbu_0, # of connection points: 4
#     Node 17, Type 0, BuildingBlock: CEKHIL_clean_sbu_0, # of connection points: 4
#     Node 18, Type 0, BuildingBlock: CEKHIL_clean_sbu_0, # of connection points: 4
#     Node 19, Type 0, BuildingBlock: CEKHIL_clean_sbu_0, # of connection points: 4
#     Node 20, Type 0, BuildingBlock: CEKHIL_clean_sbu_0, # of connection points: 4
#     Node 21, Type 0, BuildingBlock: CEKHIL_clean_sbu_0, # of connection points: 4
#     Node 22, Type 0, BuildingBlock: CEKHIL_clean_sbu_0, # of connection points: 4
#     Node 23, Type 0, BuildingBlock: CEKHIL_clean_sbu_0, # of connection points: 4
#     Node 24, Type 1, BuildingBlock: VOLQOD_clean_sbu_1, # of connection points: 6
#     Node 25, Type 1, BuildingBlock: VOLQOD_clean_sbu_1, # of connection points: 6
#     Node 26, Type 1, BuildingBlock: VOLQOD_clean_sbu_1, # of connection points: 6
#     Node 27, Type 1, BuildingBlock: VOLQOD_clean_sbu_1, # of connection points: 6
#     Node 28, Type 1, BuildingBlock: VOLQOD_clean_sbu_1, # of connection points: 6
#     Node 29, Type 1, BuildingBlock: VOLQOD_clean_sbu_1, # of connection points: 6
#     Node 30, Type 1, BuildingBlock: VOLQOD_clean_sbu_1, # of connection points: 6
#     Node 31, Type 1, BuildingBlock: VOLQOD_clean_sbu_1, # of connection points: 6
#     Node 32, Type 1, BuildingBlock: VOLQOD_clean_sbu_1, # of connection points: 6
#     Node 33, Type 1, BuildingBlock: VOLQOD_clean_sbu_1, # of connection points: 6
#     Node 34, Type 1, BuildingBlock: VOLQOD_clean_sbu_1, # of connection points: 6
#     Node 35, Type 1, BuildingBlock: VOLQOD_clean_sbu_1, # of connection points: 6
#     Node 36, Type 1, BuildingBlock: VOLQOD_clean_sbu_1, # of connection points: 6
#     Node 37, Type 1, BuildingBlock: VOLQOD_clean_sbu_1, # of connection points: 6
#     Node 38, Type 1, BuildingBlock: VOLQOD_clean_sbu_1, # of connection points: 6
#     Node 39, Type 1, BuildingBlock: VOLQOD_clean_sbu_1, # of connection points: 6
#     Edge 40, Type (0, 1), BuildingBlock: AJUNOK_clean_linker_0, # of connection points: 2
#     Edge 41, Type (0, 1), BuildingBlock: AJUNOK_clean_linker_0, # of connection points: 2
#     Edge 42, Type (0, 1), BuildingBlock: AJUNOK_clean_linker_0, # of connection points: 2
#     Edge 43, Type (0, 1), BuildingBlock: AJUNOK_clean_linker_0, # of connection points: 2
#     Edge 44, Type (0, 1), BuildingBlock: AJUNOK_clean_linker_0, # of connection points: 2
#     Edge 45, Type (0, 1), BuildingBlock: AJUNOK_clean_linker_0, # of connection points: 2
#     Edge 46, Type (0, 1), BuildingBlock: AJUNOK_clean_linker_0, # of connection points: 2
#     Edge 47, Type (0, 1), BuildingBlock: AJUNOK_clean_linker_0, # of connection points: 2
#     Edge 48, Type (0, 1), BuildingBlock: AJUNOK_clean_linker_0, # of connection points: 2
#     Edge 49, Type (0, 1), BuildingBlock: AJUNOK_clean_linker_0, # of connection points: 2
#     Edge 50, Type (0, 1), BuildingBlock: AJUNOK_clean_linker_0, # of connection points: 2
#     Edge 51, Type (0, 1), BuildingBlock: AJUNOK_clean_linker_0, # of connection points: 2
#     Edge 52, Type (0, 1), BuildingBlock: AJUNOK_clean_linker_0, # of connection points: 2
#     Edge 53, Type (0, 1), BuildingBlock: AJUNOK_clean_linker_0, # of connection points: 2
#     Edge 54, Type (0, 1), BuildingBlock: AJUNOK_clean_linker_0, # of connection points: 2
#     Edge 55, Type (0, 1), BuildingBlock: AJUNOK_clean_linker_0, # of connection points: 2
#     Edge 56, Type (0, 1), BuildingBlock: AJUNOK_clean_linker_0, # of connection points: 2
#     Edge 57, Type (0, 1), BuildingBlock: AJUNOK_clean_linker_0, # of connection points: 2
#     Edge 58, Type (0, 1), BuildingBlock: AJUNOK_clean_linker_0, # of connection points: 2
#     Edge 59, Type (0, 1), BuildingBlock: AJUNOK_clean_linker_0, # of connection points: 2
#     Edge 60, Type (0, 1), BuildingBlock: AJUNOK_clean_linker_0, # of connection points: 2
#     Edge 61, Type (0, 1), BuildingBlock: AJUNOK_clean_linker_0, # of connection points: 2
#     Edge 62, Type (0, 1), BuildingBlock: AJUNOK_clean_linker_0, # of connection points: 2
#     Edge 63, Type (0, 1), BuildingBlock: AJUNOK_clean_linker_0, # of connection points: 2
#     Edge 64, Type (0, 1), BuildingBlock: AJUNOK_clean_linker_0, # of connection points: 2
#     Edge 65, Type (0, 1), BuildingBlock: AJUNOK_clean_linker_0, # of connection points: 2
#     Edge 66, Type (0, 1), BuildingBlock: AJUNOK_clean_linker_0, # of connection points: 2
#     Edge 67, Type (0, 1), BuildingBlock: AJUNOK_clean_linker_0, # of connection points: 2
#     Edge 68, Type (0, 1), BuildingBlock: AJUNOK_clean_linker_0, # of connection points: 2
#     Edge 69, Type (0, 1), BuildingBlock: AJUNOK_clean_linker_0, # of connection points: 2
#     Edge 70, Type (0, 1), BuildingBlock: AJUNOK_clean_linker_0, # of connection points: 2
#     Edge 71, Type (0, 1), BuildingBlock: AJUNOK_clean_linker_0, # of connection points: 2
#     Edge 72, Type (0, 1), BuildingBlock: AJUNOK_clean_linker_0, # of connection points: 2
#     Edge 73, Type (0, 1), BuildingBlock: AJUNOK_clean_linker_0, # of connection points: 2
#     Edge 74, Type (0, 1), BuildingBlock: AJUNOK_clean_linker_0, # of connection points: 2
#     Edge 75, Type (0, 1), BuildingBlock: AJUNOK_clean_linker_0, # of connection points: 2
#     Edge 76, Type (0, 1), BuildingBlock: AJUNOK_clean_linker_0, # of connection points: 2
#     Edge 77, Type (0, 1), BuildingBlock: AJUNOK_clean_linker_0, # of connection points: 2
#     Edge 78, Type (0, 1), BuildingBlock: AJUNOK_clean_linker_0, # of connection points: 2
#     Edge 79, Type (0, 1), BuildingBlock: AJUNOK_clean_linker_0, # of connection points: 2
#     Edge 80, Type (0, 1), BuildingBlock: AJUNOK_clean_linker_0, # of connection points: 2
#     Edge 81, Type (0, 1), BuildingBlock: AJUNOK_clean_linker_0, # of connection points: 2
#     Edge 82, Type (0, 1), BuildingBlock: AJUNOK_clean_linker_0, # of connection points: 2
#     Edge 83, Type (0, 1), BuildingBlock: AJUNOK_clean_linker_0, # of connection points: 2
#     Edge 84, Type (0, 1), BuildingBlock: AJUNOK_clean_linker_0, # of connection points: 2
#     Edge 85, Type (0, 1), BuildingBlock: AJUNOK_clean_linker_0, # of connection points: 2
#     Edge 86, Type (0, 1), BuildingBlock: AJUNOK_clean_linker_0, # of connection points: 2
#     Edge 87, Type (0, 1), BuildingBlock: AJUNOK_clean_linker_0, # of connection points: 2
#     Edge 88, Type (0, 1), BuildingBlock: AJUNOK_clean_linker_0, # of connection points: 2
#     Edge 89, Type (0, 1), BuildingBlock: AJUNOK_clean_linker_0, # of connection points: 2
#     Edge 90, Type (0, 1), BuildingBlock: AJUNOK_clean_linker_0, # of connection points: 2
#     Edge 91, Type (0, 1), BuildingBlock: AJUNOK_clean_linker_0, # of connection points: 2
#     Edge 92, Type (0, 1), BuildingBlock: AJUNOK_clean_linker_0, # of connection points: 2
#     Edge 93, Type (0, 1), BuildingBlock: AJUNOK_clean_linker_0, # of connection points: 2
#     Edge 94, Type (0, 1), BuildingBlock: AJUNOK_clean_linker_0, # of connection points: 2
#     Edge 95, Type (0, 1), BuildingBlock: AJUNOK_clean_linker_0, # of connection points: 2
#     Edge 96, Type (0, 1), BuildingBlock: AJUNOK_clean_linker_0, # of connection points: 2
#     Edge 97, Type (0, 1), BuildingBlock: AJUNOK_clean_linker_0, # of connection points: 2
#     Edge 98, Type (0, 1), BuildingBlock: AJUNOK_clean_linker_0, # of connection points: 2
#     Edge 99, Type (0, 1), BuildingBlock: AJUNOK_clean_linker_0, # of connection points: 2
#     Edge 100, Type (0, 1), BuildingBlock: AJUNOK_clean_linker_0, # of connection points: 2
#     Edge 101, Type (0, 1), BuildingBlock: AJUNOK_clean_linker_0, # of connection points: 2
#     Edge 102, Type (0, 1), BuildingBlock: AJUNOK_clean_linker_0, # of connection points: 2
#     Edge 103, Type (0, 1), BuildingBlock: AJUNOK_clean_linker_0, # of connection points: 2
#     Edge 104, Type (0, 1), BuildingBlock: AJUNOK_clean_linker_0, # of connection points: 2
#     Edge 105, Type (0, 1), BuildingBlock: AJUNOK_clean_linker_0, # of connection points: 2
#     Edge 106, Type (0, 1), BuildingBlock: AJUNOK_clean_linker_0, # of connection points: 2
#     Edge 107, Type (0, 1), BuildingBlock: AJUNOK_clean_linker_0, # of connection points: 2
#     Edge 108, Type (0, 1), BuildingBlock: AJUNOK_clean_linker_0, # of connection points: 2
#     Edge 109, Type (0, 1), BuildingBlock: AJUNOK_clean_linker_0, # of connection points: 2
#     Edge 110, Type (0, 1), BuildingBlock: AJUNOK_clean_linker_0, # of connection points: 2
#     Edge 111, Type (0, 1), BuildingBlock: AJUNOK_clean_linker_0, # of connection points: 2
#     Edge 112, Type (0, 1), BuildingBlock: AJUNOK_clean_linker_0, # of connection points: 2
#     Edge 113, Type (0, 1), BuildingBlock: AJUNOK_clean_linker_0, # of connection points: 2
#     Edge 114, Type (0, 1), BuildingBlock: AJUNOK_clean_linker_0, # of connection points: 2
#     Edge 115, Type (0, 1), BuildingBlock: AJUNOK_clean_linker_0, # of connection points: 2
#     Edge 116, Type (0, 1), BuildingBlock: AJUNOK_clean_linker_0, # of connection points: 2
#     Edge 117, Type (0, 1), BuildingBlock: AJUNOK_clean_linker_0, # of connection points: 2
#     Edge 118, Type (0, 1), BuildingBlock: AJUNOK_clean_linker_0, # of connection points: 2
#     Edge 119, Type (0, 1), BuildingBlock: AJUNOK_clean_linker_0, # of connection points: 2
#     Edge 120, Type (0, 1), BuildingBlock: AJUNOK_clean_linker_0, # of connection points: 2
#     Edge 121, Type (0, 1), BuildingBlock: AJUNOK_clean_linker_0, # of connection points: 2
#     Edge 122, Type (0, 1), BuildingBlock: AJUNOK_clean_linker_0, # of connection points: 2
#     Edge 123, Type (0, 1), BuildingBlock: AJUNOK_clean_linker_0, # of connection points: 2
#     Edge 124, Type (0, 1), BuildingBlock: AJUNOK_clean_linker_0, # of connection points: 2
#     Edge 125, Type (0, 1), BuildingBlock: AJUNOK_clean_linker_0, # of connection points: 2
#     Edge 126, Type (0, 1), BuildingBlock: AJUNOK_clean_linker_0, # of connection points: 2
#     Edge 127, Type (0, 1), BuildingBlock: AJUNOK_clean_linker_0, # of connection points: 2
#     Edge 128, Type (0, 1), BuildingBlock: AJUNOK_clean_linker_0, # of connection points: 2
#     Edge 129, Type (0, 1), BuildingBlock: AJUNOK_clean_linker_0, # of connection points: 2
#     Edge 130, Type (0, 1), BuildingBlock: AJUNOK_clean_linker_0, # of connection points: 2
#     Edge 131, Type (0, 1), BuildingBlock: AJUNOK_clean_linker_0, # of connection points: 2
#     Edge 132, Type (0, 1), BuildingBlock: AJUNOK_clean_linker_0, # of connection points: 2
#     Edge 133, Type (0, 1), BuildingBlock: AJUNOK_clean_linker_0, # of connection points: 2
#     Edge 134, Type (0, 1), BuildingBlock: AJUNOK_clean_linker_0, # of connection points: 2
#     Edge 135, Type (0, 1), BuildingBlock: AJUNOK_clean_linker_0, # of connection points: 2
# Relax obj value: 0.303
# Max RMSD: 0.289
# Mean RMSD: 0.141
data_MOF--net-iac--node1-CEKHIL_clean_sbu_0--node2-VOLQOD_clean_sbu_1--edge1-AJUNOK_clean_linker_0
_symmetry_space_group_name_H-M    P1
_symmetry_Int_Tables_number       1
_symmetry_cell_setting            triclinic
loop_
_symmetry_equiv_pos_as_xyz
'x, y, z'
_cell_length_a     41.662554
_cell_length_b     41.217239
_cell_length_c     40.528625
_cell_angle_alpha  90.109845
_cell_angle_beta   90.19999
_cell_angle_gamma 90.60853
loop_
_atom_site_label
_atom_site_type_symbol
_atom_site_fract_x
_atom_site_fract_y
_atom_site_fract_z
_atom_type_partial_charge
Co0 Co 0.98365 0.26415 0.13574 0.0
O1 O 0.93843 0.25627 0.13868 0.0
O2 O 0.97459 0.24441 0.17743 0.0
C3 C 0.98369 0.31456 0.11601 0.0
O4 O 0.03135 0.26943 0.14186 0.0
Co5 Co 0.0167 0.27454 0.06796 0.0
O6 O 0.05425 0.2882 0.0954 0.0
C7 C 0.98435 0.21328 0.08466 0.0
C8 C 0.94505 0.2433 0.16711 0.0
C9 C 0.05503 0.28216 0.12623 0.0
O10 O 0.98804 0.22046 0.11518 0.0
O11 O 0.99186 0.23291 0.06144 0.0
O12 O 0.97924 0.30982 0.14743 0.0
O13 O 0.98318 0.28888 0.09774 0.0
Co14 Co 0.01493 0.76906 0.37483 0.0
O15 O 0.06075 0.76815 0.38 0.0
O16 O 0.03408 0.75194 0.33542 0.0
C17 C 0.00735 0.81869 0.39601 0.0
O18 O 0.96856 0.76759 0.35926 0.0
Co19 Co 0.96842 0.77474 0.43446 0.0
O20 O 0.9358 0.78356 0.3999 0.0
C21 C 0.01091 0.71884 0.4261 0.0
C22 C 0.06144 0.75566 0.35051 0.0
C23 C 0.941 0.77679 0.3697 0.0
O24 O 0.01247 0.72472 0.395 0.0
O25 O 0.99689 0.73766 0.4465 0.0
O26 O 0.01637 0.81587 0.36538 0.0
O27 O 0.00601 0.79222 0.41261 0.0
Co28 Co 0.48575 0.77385 0.63673 0.0
O29 O 0.44036 0.76677 0.63629 0.0
O30 O 0.47368 0.7482 0.67461 0.0
C31 C 0.4852 0.82651 0.62488 0.0
O32 O 0.53359 0.77735 0.64529 0.0
Co33 Co 0.5208 0.79501 0.57256 0.0
O34 O 0.55743 0.80321 0.60305 0.0
C35 C 0.49399 0.729 0.57869 0.0
C36 C 0.44464 0.74973 0.6628 0.0
C37 C 0.55809 0.79141 0.63209 0.0
O38 O 0.49081 0.73343 0.60985 0.0
O39 O 0.50286 0.75159 0.55899 0.0
O40 O 0.48112 0.8174 0.6553 0.0
O41 O 0.48622 0.80391 0.60295 0.0
Co42 Co 0.50853 0.25623 0.87746 0.0
O43 O 0.55418 0.25233 0.88321 0.0
O44 O 0.5276 0.24158 0.83696 0.0
C45 C 0.50329 0.30416 0.90325 0.0
O46 O 0.46254 0.25841 0.86097 0.0
Co47 Co 0.46072 0.25916 0.9361 0.0
O48 O 0.42829 0.26978 0.90182 0.0
C49 C 0.50099 0.20216 0.92365 0.0
C50 C 0.55477 0.24224 0.85277 0.0
C51 C 0.43442 0.26586 0.87128 0.0
O52 O 0.50342 0.21056 0.89326 0.0
O53 O 0.48758 0.22 0.9454 0.0
O54 O 0.51252 0.30352 0.87254 0.0
O55 O 0.49999 0.27639 0.91721 0.0
Co56 Co 0.13236 0.00433 0.26773 0.0
O57 O 0.13216 0.95804 0.26184 0.0
O58 O 0.17065 0.99144 0.24471 0.0
C59 C 0.11701 0.0054 0.3209 0.0
O60 O 0.14239 0.05258 0.27029 0.0
Co61 Co 0.07095 0.04309 0.28466 0.0
O62 O 0.10206 0.07855 0.29512 0.0
C63 C 0.07775 0.01076 0.22006 0.0
C64 C 0.15941 0.962 0.24671 0.0
C65 C 0.13077 0.0778 0.28445 0.0
O66 O 0.10819 0.00853 0.22489 0.0
O67 O 0.05856 0.02129 0.24215 0.0
O68 O 0.14694 0.00012 0.3136 0.0
O69 O 0.0976 0.00661 0.29619 0.0
Co70 Co 0.26813 0.86985 0.50582 0.0
O71 O 0.22237 0.86369 0.50878 0.0
O72 O 0.2497 0.90581 0.52892 0.0
C73 C 0.27383 0.85641 0.45283 0.0
O74 O 0.31416 0.88607 0.50636 0.0
Co75 Co 0.31533 0.81417 0.49033 0.0
O76 O 0.34508 0.85069 0.4795 0.0
C77 C 0.27711 0.81443 0.55135 0.0
C78 C 0.22224 0.89113 0.52472 0.0
C79 C 0.33999 0.87903 0.49084 0.0
O80 O 0.27314 0.84511 0.54789 0.0
O81 O 0.2914 0.79716 0.52974 0.0
O82 O 0.2643 0.88542 0.46062 0.0
O83 O 0.27644 0.83616 0.47686 0.0
Co84 Co 0.3708 -0.00321 0.7535 0.0
O85 O 0.37566 0.04309 0.75128 0.0
O86 O 0.33261 0.01519 0.7348 0.0
C87 C 0.38999 0.99018 0.80455 0.0
O88 O 0.35614 0.94957 0.75344 0.0
Co89 Co 0.42931 0.95148 0.7603 0.0
O90 O 0.39616 0.91916 0.77334 0.0
C91 C 0.42165 -0.00421 0.70451 0.0
C92 C 0.34726 0.04304 0.73789 0.0
C93 C 0.36665 0.92319 0.76629 0.0
O94 O 0.3912 0.99407 0.709 0.0
O95 O 0.44158 0.98191 0.72379 0.0
O96 O 0.36029 -0.00104 0.80029 0.0
O97 O 0.40729 0.98886 0.77834 0.0
Co98 Co 0.24378 0.13266 -0.00459 0.0
O99 O 0.28965 0.13543 -0.00301 0.0
O100 O 0.26066 0.09287 0.01291 0.0
C101 C 0.2373 0.15337 0.94463 0.0
O102 O 0.19652 0.12045 -0.0039 0.0
Co103 Co 0.2025 0.19472 0.99018 0.0
O104 O 0.16708 0.16332 0.9811 0.0
C105 C 0.24247 0.18195 0.04847 0.0
C106 C 0.28876 0.10652 0.00972 0.0
C107 C 0.16978 0.13315 0.98726 0.0
O108 O 0.24243 0.15173 0.04089 0.0
O109 O 0.23031 0.20366 0.02982 0.0
O110 O 0.24447 0.12288 0.94817 0.0
O111 O 0.23747 0.17035 0.97133 0.0
Co112 Co 0.76554 0.37157 0.00802 0.0
O113 O 0.72116 0.36053 0.01556 0.0
O114 O 0.74433 0.40768 0.02797 0.0
C115 C 0.76915 0.35181 0.95666 0.0
O116 O 0.80939 0.39286 0.00292 0.0
Co117 Co 0.81772 0.31985 -0.00414 0.0
O118 O 0.8438 0.3575 0.98092 0.0
C119 C 0.78625 0.32569 0.06047 0.0
C120 C 0.71873 0.38938 0.02828 0.0
C121 C 0.83628 0.38628 0.98913 0.0
O122 O 0.77609 0.3539 0.05261 0.0
O123 O 0.80104 0.30716 0.04037 0.0
O124 O 0.75692 0.38035 0.96162 0.0
O125 O 0.77582 0.3354 0.98278 0.0
Co126 Co 0.87538 0.50018 0.26908 0.0
O127 O 0.8798 0.54616 0.26294 0.0
O128 O 0.83787 0.51638 0.24682 0.0
C129 C 0.89175 0.49898 0.32165 0.0
O130 O 0.8613 0.4529 0.27247 0.0
Co131 Co 0.93365 0.45641 0.28487 0.0
O132 O 0.9001 0.42405 0.29679 0.0
C133 C 0.92884 0.49225 0.2222 0.0
C134 C 0.85192 0.54463 0.24852 0.0
C135 C 0.87118 0.42711 0.28701 0.0
O136 O 0.89826 0.49372 0.22608 0.0
O137 O 0.94745 0.48025 0.2441 0.0
O138 O 0.86219 0.5065 0.31482 0.0
O139 O 0.91046 0.49523 0.29674 0.0
Co140 Co 0.74991 0.63026 0.48675 0.0
O141 O 0.79515 0.63637 0.49153 0.0
O142 O 0.76799 0.59233 0.50711 0.0
C143 C 0.74491 0.64854 0.43509 0.0
O144 O 0.70346 0.61549 0.48463 0.0
Co145 Co 0.70637 0.69038 0.47706 0.0
O146 O 0.67354 0.65673 0.46603 0.0
C147 C 0.74153 0.68034 0.53904 0.0
C148 C 0.7951 0.60828 0.50598 0.0
C149 C 0.67701 0.62687 0.47327 0.0
O150 O 0.74433 0.65035 0.53132 0.0
O151 O 0.72957 0.70123 0.51929 0.0
O152 O 0.75418 0.61888 0.4401 0.0
O153 O 0.74293 0.66651 0.46102 0.0
Co154 Co 0.6275 0.49633 0.77126 0.0
O155 O 0.62283 0.45059 0.76305 0.0
O156 O 0.66457 0.48072 0.74789 0.0
C157 C 0.61151 0.49568 0.82416 0.0
O158 O 0.64196 0.5433 0.77608 0.0
Co159 Co 0.56997 0.5401 0.79039 0.0
O160 O 0.60382 0.57299 0.80029 0.0
C161 C 0.57477 0.51157 0.72371 0.0
C162 C 0.65048 0.45245 0.74835 0.0
C163 C 0.63234 0.56967 0.78966 0.0
O164 O 0.60453 0.50525 0.72874 0.0
O165 O 0.55638 0.52276 0.7462 0.0
O166 O 0.64097 0.48827 0.8169 0.0
O167 O 0.59276 0.50045 0.79942 0.0
Co168 Co 0.00239 0.76896 0.87836 0.0
O169 O 0.04803 0.76876 0.88438 0.0
O170 O 0.02294 0.75153 0.83937 0.0
C171 C 2e-05 0.82047 0.89693 0.0
O172 O 0.95583 0.76529 0.86263 0.0
Co173 Co 0.95616 0.78247 0.93622 0.0
O174 O 0.92152 0.77707 0.90339 0.0
C175 C 0.98354 0.7167 0.9268 0.0
C176 C 0.0499 0.75824 0.85434 0.0
C177 C 0.92718 0.76749 0.87414 0.0
O178 O 0.99765 0.72524 0.89986 0.0
O179 O 0.96838 0.73653 0.94527 0.0
O180 O 0.00534 0.81464 0.86596 0.0
O181 O 0.99566 0.7954 0.91537 0.0
Co182 Co 0.99714 0.26369 0.62158 0.0
O183 O 0.95158 0.25965 0.61671 0.0
O184 O 0.97873 0.2453 0.66123 0.0
C185 C 0.99667 0.3149 0.60294 0.0
O186 O 0.04386 0.26433 0.63581 0.0
Co187 Co 0.04083 0.28072 0.56163 0.0
O188 O 0.07618 0.27912 0.59413 0.0
C189 C 0.02191 0.21219 0.57571 0.0
C190 C 0.95105 0.25026 0.64719 0.0
C191 C 0.0719 0.26923 0.62356 0.0
O192 O 0.00492 0.22035 0.60089 0.0
O193 O 0.03566 0.23266 0.55657 0.0
O194 O 0.99164 0.3089 0.63391 0.0
O195 O 0.00171 0.29006 0.58446 0.0
Co196 Co 0.50504 0.272 0.3758 0.0
O197 O 0.5492 0.26664 0.38751 0.0
O198 O 0.52897 0.25817 0.33762 0.0
C199 C 0.50372 0.32039 0.40148 0.0
O200 O 0.46143 0.27558 0.35357 0.0
Co201 Co 0.45116 0.28198 0.42666 0.0
O202 O 0.42412 0.2938 0.38858 0.0
C203 C 0.47614 0.21578 0.41296 0.0
C204 C 0.55415 0.26032 0.35662 0.0
C205 C 0.43295 0.28531 0.35988 0.0
O206 O 0.49431 0.22644 0.38963 0.0
O207 O 0.45918 0.23431 0.43121 0.0
O208 O 0.51319 0.3183 0.37107 0.0
O209 O 0.49469 0.29356 0.41508 0.0
Co210 Co 0.50093 0.75347 0.11633 0.0
O211 O 0.45564 0.74641 0.11429 0.0
O212 O 0.4852 0.73944 0.15904 0.0
C213 C 0.49589 0.80202 0.09216 0.0
O214 O 0.54824 0.75865 0.12755 0.0
Co215 Co 0.54067 0.76541 0.05311 0.0
O216 O 0.57781 0.77084 0.08301 0.0
C217 C 0.52692 0.6982 0.07666 0.0
C218 C 0.45673 0.74149 0.14578 0.0
C219 C 0.57539 0.76422 0.11357 0.0
O220 O 0.5101 0.70846 0.10106 0.0
O221 O 0.53885 0.71683 0.05454 0.0
O222 O 0.49345 0.79899 0.12384 0.0
O223 O 0.50161 0.77578 0.07585 0.0
Co224 Co 0.88198 0.01515 0.76224 0.0
O225 O 0.89068 0.06051 0.7592 0.0
O226 O 0.85217 0.03495 0.73166 0.0
C227 C 0.88195 0.01627 0.81739 0.0
O228 O 0.86579 0.96887 0.76011 0.0
Co229 Co 0.92979 0.96993 0.7991 0.0
O230 O 0.89637 0.93644 0.79136 0.0
C231 C 0.94071 0.98765 0.72895 0.0
C232 C 0.86496 0.06239 0.74135 0.0
C233 C 0.8727 0.94096 0.77198 0.0
O234 O 0.91457 0.00419 0.72733 0.0
O235 O 0.95139 0.97475 0.75545 0.0
O236 O 0.85612 0.02336 0.80132 0.0
O237 O 0.90709 0.01022 0.80014 0.0
Co238 Co 0.78313 0.11001 0.50549 0.0
O239 O 0.82765 0.11853 0.51227 0.0
O240 O 0.80077 0.07789 0.5352 0.0
C241 C 0.78665 0.11496 0.45092 0.0
O242 O 0.73674 0.09437 0.50328 0.0
Co243 Co 0.74203 0.16392 0.4712 0.0
O244 O 0.70847 0.12966 0.47271 0.0
C245 C 0.75681 0.16768 0.54254 0.0
C246 C 0.82825 0.09236 0.5298 0.0
C247 C 0.71047 0.1037 0.48964 0.0
O248 O 0.77101 0.14005 0.54229 0.0
O249 O 0.74668 0.18219 0.51668 0.0
O250 O 0.79316 0.08727 0.46432 0.0
O251 O 0.78025 0.13851 0.47052 0.0
Co252 Co 0.61914 0.98329 0.26824 0.0
O253 O 0.61406 0.93711 0.26975 0.0
O254 O 0.65146 0.9637 0.24145 0.0
C255 C 0.61521 0.98814 0.32284 0.0
O256 O 0.63305 0.02983 0.2617 0.0
Co257 Co 0.56723 0.0298 0.29392 0.0
O258 O 0.59863 0.06484 0.28414 0.0
C259 C 0.5608 0.00069 0.22761 0.0
C260 C 0.64008 0.93621 0.2523 0.0
C261 C 0.62435 0.05877 0.26851 0.0
O262 O 0.5885 0.98729 0.23018 0.0
O263 O 0.54725 0.01604 0.25112 0.0
O264 O 0.6427 0.98166 0.30967 0.0
O265 O 0.59102 0.99079 0.30306 0.0
Co266 Co 0.73091 0.87925 0.99348 0.0
O267 O 0.68575 0.87089 -0.00363 0.0
O268 O 0.7111 0.91194 0.02065 0.0
C269 C 0.73055 0.87269 0.93864 0.0
O270 O 0.77673 0.89629 -0.00397 0.0
Co271 Co 0.77738 0.82834 0.96477 0.0
O272 O 0.81133 0.86096 0.97411 0.0
C273 C 0.75667 0.82389 0.03443 0.0
C274 C 0.68403 0.89776 0.01287 0.0
C275 C 0.80538 0.88736 0.98916 0.0
O276 O 0.74035 0.8502 0.03191 0.0
O277 O 0.77081 0.81041 0.01009 0.0
O278 O 0.72385 0.90071 0.95127 0.0
O279 O 0.73682 0.84969 0.95909 0.0
Co280 Co 0.28255 0.61713 0.00195 0.0
O281 O 0.32789 0.62475 0.00458 0.0
O282 O 0.30161 0.58515 0.03038 0.0
C283 C 0.28147 0.62132 0.94707 0.0
O284 O 0.23625 0.60183 0.00512 0.0
Co285 Co 0.23824 0.66995 0.9709 0.0
O286 O 0.20346 0.63932 0.98333 0.0
C287 C 0.26118 0.6763 0.03966 0.0
C288 C 0.32883 0.59889 0.02263 0.0
C289 C 0.20819 0.61295 -0.00109 0.0
O290 O 0.27426 0.6481 0.03914 0.0
O291 O 0.24918 0.69025 0.01436 0.0
O292 O 0.28843 0.59367 0.96035 0.0
O293 O 0.27682 0.64521 0.96681 0.0
Co294 Co 0.12274 0.4776 0.77117 0.0
O295 O 0.1121 0.43333 0.76185 0.0
O296 O 0.15302 0.46083 0.74014 0.0
C297 C 0.119 0.47164 0.82549 0.0
O298 O 0.14163 0.52261 0.77536 0.0
Co299 Co 0.07528 0.52261 0.80815 0.0
O300 O 0.11158 0.55407 0.80786 0.0
C301 C 0.06784 0.51097 0.73645 0.0
C302 C 0.13811 0.43325 0.74436 0.0
C303 C 0.13628 0.54957 0.79005 0.0
O304 O 0.09337 0.49362 0.73565 0.0
O305 O 0.05568 0.52239 0.76294 0.0
O306 O 0.14551 0.46418 0.81086 0.0
O307 O 0.09541 0.48071 0.80716 0.0
Co308 Co 0.2378 0.39598 0.49492 0.0
O309 O 0.19291 0.38855 0.50311 0.0
O310 O 0.22059 0.43183 0.51941 0.0
C311 C 0.23285 0.38211 0.4416 0.0
O312 O 0.28314 0.41374 0.49124 0.0
Co313 Co 0.28386 0.34382 0.46732 0.0
O314 O 0.31744 0.37789 0.4698 0.0
C315 C 0.26966 0.34699 0.5394 0.0
C316 C 0.19286 0.41747 0.51591 0.0
C317 C 0.31146 0.40532 0.48274 0.0
O318 O 0.25138 0.37192 0.53591 0.0
O319 O 0.28225 0.33195 0.5151 0.0
O320 O 0.22648 0.41148 0.45083 0.0
O321 O 0.24168 0.36224 0.46422 0.0
Co322 Co 0.37013 0.51743 0.26819 0.0
O323 O 0.38299 0.56144 0.25998 0.0
O324 O 0.34086 0.53667 0.23746 0.0
C325 C 0.37387 0.52199 0.32275 0.0
O326 O 0.34801 0.47422 0.27158 0.0
Co327 Co 0.41321 0.4677 0.30474 0.0
O328 O 0.37591 0.43782 0.30096 0.0
C329 C 0.42161 0.47883 0.23298 0.0
C330 C 0.35635 0.56363 0.24337 0.0
C331 C 0.35134 0.44619 0.28445 0.0
O332 O 0.39855 0.49957 0.23237 0.0
O333 O 0.43185 0.46552 0.25943 0.0
O334 O 0.3483 0.53193 0.30782 0.0
O335 O 0.39697 0.5115 0.30463 0.0
O336 O 0.96757 0.08157 0.01602 0.0
Zn337 Zn 0.9846 0.04663 0.98857 0.0
O338 O 0.98482 0.00868 0.01469 0.0
Zn339 Zn 0.02633 0.9895 0.01838 0.0
Zn340 Zn 0.96026 0.01201 0.05458 0.0
Zn341 Zn 0.96038 0.97951 0.99055 0.0
O342 O 0.02906 0.94832 0.98986 0.0
O343 O 0.98659 0.95705 0.95818 0.0
O344 O 0.02961 0.06001 0.97774 0.0
O345 O 0.05892 0.02258 0.00281 0.0
O346 O 0.03482 0.98217 0.06683 0.0
O347 O 0.98927 -0.00296 0.09112 0.0
O348 O 0.91847 0.98505 0.05016 0.0
O349 O 0.95568 0.04244 0.94917 0.0
O350 O 0.94114 0.94726 0.02019 0.0
O351 O 0.92577 0.00114 0.96601 0.0
C352 C 0.95545 0.08403 0.04461 0.0
C353 C 0.01237 0.94212 0.96402 0.0
C354 C 0.01814 0.98693 0.09275 0.0
C355 C 0.05674 0.04908 0.98674 0.0
C356 C 0.91741 0.95701 0.03675 0.0
C357 C 0.93052 0.02479 0.9466 0.0
O358 O 0.95117 0.05942 0.06318 0.0
O359 O 0.22571 0.72487 0.18798 0.0
Zn360 Zn 0.23372 0.72749 0.23624 0.0
O361 O 0.2596 0.76569 0.24597 0.0
Zn362 Zn 0.2973 0.75445 0.27163 0.0
Zn363 Zn 0.27098 0.79071 0.20707 0.0
Zn364 Zn 0.23416 0.79273 0.27187 0.0
O365 O 0.3002 0.77987 0.31463 0.0
O366 O 0.25957 0.8134 0.30679 0.0
O367 O 0.26098 0.68863 0.24409 0.0
O368 O 0.30058 0.7061 0.27655 0.0
O369 O 0.33636 0.76326 0.24488 0.0
O370 O 0.31908 0.79007 0.20092 0.0
O371 O 0.25078 0.83625 0.20637 0.0
O372 O 0.19199 0.72484 0.26265 0.0
O373 O 0.21502 0.82746 0.2459 0.0
O374 O 0.19872 0.76914 0.29311 0.0
C375 C 0.23818 0.74003 0.16383 0.0
C376 C 0.28422 0.80487 0.32283 0.0
C377 C 0.34159 0.77661 0.21719 0.0
C378 C 0.28651 0.68342 0.26045 0.0
C379 C 0.22574 0.84449 0.22231 0.0
C380 C 0.18316 0.74346 0.28602 0.0
O381 O 0.25543 0.76539 0.16807 0.0
O382 O 0.51595 0.94371 0.53104 0.0
Zn383 Zn 0.51273 0.97582 0.49527 0.0
O384 O 0.51281 0.01765 0.51447 0.0
Zn385 Zn 0.47091 0.03557 0.51525 0.0
Zn386 Zn 0.5346 0.0162 0.55696 0.0
Zn387 Zn 0.53954 0.04597 0.49096 0.0
O388 O 0.46725 0.07528 0.48564 0.0
O389 O 0.51551 0.07581 0.46287 0.0
O390 O 0.47001 0.96481 0.47538 0.0
O391 O 0.43954 0.00096 0.50066 0.0
O392 O 0.46169 0.04519 0.56244 0.0
O393 O 0.50887 0.04309 0.58847 0.0
O394 O 0.58172 0.03086 0.55041 0.0
O395 O 0.54815 0.97168 0.46289 0.0
O396 O 0.56276 0.0724 0.52386 0.0
O397 O 0.56976 0.02121 0.46282 0.0
C398 C 0.52157 0.94492 0.56183 0.0
C399 C 0.48723 0.08666 0.46471 0.0
C400 C 0.4786 0.04797 0.5886 0.0
C401 C 0.44248 0.97497 0.48389 0.0
C402 C 0.58664 0.05759 0.53542 0.0
C403 C 0.56944 0.99185 0.45312 0.0
O404 O 0.53061 0.97104 0.57601 0.0
O405 O 0.23462 0.24092 0.81417 0.0
Zn406 Zn 0.25331 0.26807 0.77774 0.0
O407 O 0.25412 0.24212 0.73902 0.0
Zn408 Zn 0.29545 0.23891 0.71903 0.0
Zn409 Zn 0.22931 0.20265 0.74237 0.0
Zn410 Zn 0.22946 0.26405 0.70847 0.0
O411 O 0.29866 0.2664 0.6767 0.0
O412 O 0.2546 0.29503 0.68325 0.0
O413 O 0.29888 0.27755 0.79178 0.0
O414 O 0.32811 0.25394 0.75284 0.0
O415 O 0.30273 0.19138 0.71098 0.0
O416 O 0.25696 0.1666 0.72519 0.0
O417 O 0.18631 0.20766 0.7179 0.0
O418 O 0.22735 0.30878 0.76922 0.0
O419 O 0.21003 0.23309 0.67732 0.0
O420 O 0.19562 0.28931 0.72974 0.0
C421 C 0.22451 0.21165 0.81595 0.0
C422 C 0.28074 0.29005 0.66843 0.0
C423 C 0.28587 0.16561 0.71479 0.0
C424 C 0.32601 0.26902 0.78028 0.0
C425 C 0.18517 0.21959 0.68894 0.0
C426 C 0.20267 0.31118 0.75063 0.0
O427 O 0.22172 0.19382 0.79035 0.0
O428 O 0.03376 0.02472 0.45372 0.0
Zn429 Zn 0.00542 0.0038 0.48835 0.0
O430 O 0.02973 -0.00459 0.52719 0.0
Zn431 Zn 0.02956 0.95142 0.54153 0.0
Zn432 Zn 0.07072 0.0162 0.52493 0.0
Zn433 Zn 0.00791 0.01433 0.5617 0.0
O434 O 0.00418 0.94568 0.58478 0.0
O435 O 0.01879 0.99379 0.6034 0.0
O436 O 0.99426 0.9611 0.46768 0.0
O437 O 0.01125 0.92476 0.50441 0.0
O438 O 0.07599 0.93964 0.54788 0.0
O439 O 0.10359 0.98619 0.54436 0.0
O440 O 0.06874 0.06219 0.54383 0.0
O441 O 0.96486 0.02821 0.5007 0.0
O442 O 0.02001 0.05925 0.5655 0.0
O443 O 0.9609 0.01396 0.55351 0.0
C444 C 0.06438 0.02472 0.45181 0.0
C445 C 0.00771 0.96568 0.6086 0.0
C446 C 0.10244 0.95555 0.54926 0.0
C447 C -0.00129 0.93192 0.47661 0.0
C448 C 0.04499 0.07535 0.55832 0.0
C449 C 0.94883 0.02597 0.52749 0.0
O450 O 0.08167 0.0198 0.4772 0.0
O451 O 0.32557 0.72821 0.75309 0.0
Zn452 Zn 0.28864 0.73951 0.78147 0.0
O453 O 0.25092 0.73485 0.75604 0.0
Zn454 Zn 0.22878 0.77372 0.74581 0.0
Zn455 Zn 0.25672 0.70467 0.72023 0.0
Zn456 Zn 0.22106 0.71333 0.78153 0.0
O457 O 0.18322 0.77403 0.76604 0.0
O458 O 0.19459 0.74219 0.80813 0.0
O459 O 0.29485 0.78658 0.79257 0.0
O460 O 0.25692 0.81055 0.76254 0.0
O461 O 0.2281 0.77635 0.69649 0.0
O462 O 0.24208 0.72712 0.67917 0.0
O463 O 0.23246 0.66228 0.73073 0.0
O464 O 0.28857 0.70775 0.81915 0.0
O465 O 0.19271 0.69042 0.75061 0.0
O466 O 0.24235 0.6819 0.81048 0.0
C467 C 0.32854 0.71119 0.72711 0.0
C468 C 0.17573 0.7616 0.79388 0.0
C469 C 0.23383 0.75628 0.67326 0.0
C470 C 0.28192 0.81209 0.78091 0.0
C471 C 0.20415 0.66332 0.74255 0.0
C472 C 0.26928 0.68421 0.82506 0.0
O473 O 0.30423 0.69827 0.71285 0.0
O474 O 0.5254 0.02987 0.07512 0.0
Zn475 Zn 0.52557 0.025 0.02612 0.0
O476 O 0.48613 0.00377 0.0124 0.0
Zn477 Zn 0.49553 0.96704 0.98484 0.0
Zn478 Zn 0.45761 0.99334 0.04856 0.0
Zn479 Zn 0.46319 0.0323 0.98575 0.0
O480 O 0.47432 0.96862 0.94008 0.0
O481 O 0.44138 0.00943 0.94942 0.0
O482 O 0.56252 -0.0048 0.01825 0.0
O483 O 0.5427 0.95781 0.98411 0.0
O484 O 0.47846 0.9285 0.00708 0.0
O485 O 0.45084 0.94529 0.05047 0.0
O486 O 0.41516 0.01737 0.04614 0.0
O487 O 0.53298 0.06749 0.0016 0.0
O488 O 0.42942 0.05515 0.01009 0.0
O489 O 0.49217 0.06441 0.96624 0.0
C490 C 0.50698 0.01862 0.09748 0.0
C491 C 0.45022 0.98565 0.93194 0.0
C492 C 0.46177 0.92259 0.0325 0.0
C493 C 0.56581 0.96956 0.00115 0.0
C494 C 0.40971 0.04387 0.03104 0.0
C495 C 0.51823 0.07745 0.97596 0.0
O496 O 0.48055 0.0043 0.0906 0.0
O497 O 0.16686 0.28129 0.23336 0.0
Zn498 Zn 0.19835 0.2681 0.26811 0.0
O499 O 0.23928 0.26814 0.24754 0.0
Zn500 Zn 0.26487 0.23033 0.24949 0.0
Zn501 Zn 0.24174 0.29138 0.20726 0.0
Zn502 Zn 0.25867 0.29759 0.27475 0.0
O503 O 0.30789 0.24109 0.27354 0.0
O504 O 0.30513 0.29476 0.27196 0.0
O505 O 0.19049 0.22192 0.28131 0.0
O506 O 0.23621 0.19579 0.27064 0.0
O507 O 0.27302 0.21702 0.20202 0.0
O508 O 0.26207 0.26251 0.17463 0.0
O509 O 0.26682 0.33315 0.21372 0.0
O510 O 0.19687 0.29986 0.30741 0.0
O511 O 0.24427 0.34098 0.26167 0.0
O512 O 0.24696 0.29037 0.32047 0.0
C513 C 0.16969 0.29345 0.20456 0.0
C514 C 0.32093 0.26919 0.2774 0.0
C515 C 0.27172 0.2333 0.17525 0.0
C516 C 0.20715 0.19605 0.281 0.0
C517 C 0.26072 0.35177 0.23793 0.0
C518 C 0.22043 0.30319 0.32729 0.0
O519 O 0.19698 0.29933 0.19165 0.0
O520 O 0.52741 0.50722 0.95764 0.0
Zn521 Zn 0.49904 0.48952 -0.00609 0.0
O522 O 0.52272 0.48562 0.03481 0.0
Zn523 Zn 0.52415 0.44159 0.05162 0.0
Zn524 Zn 0.56471 0.50381 0.02875 0.0
Zn525 Zn 0.5041 0.51313 0.06679 0.0
O526 O 0.49755 0.43618 0.0941 0.0
O527 O 0.48414 0.48776 0.10106 0.0
O528 O 0.48875 0.44524 0.97699 0.0
O529 O 0.50791 0.41196 0.01539 0.0
O530 O 0.57071 0.42996 0.05923 0.0
O531 O 0.59756 0.47597 0.04989 0.0
O532 O 0.5656 0.55002 0.04447 0.0
O533 O 0.45835 0.51556 0.00014 0.0
O534 O 0.53495 0.54316 0.08797 0.0
O535 O 0.46863 0.53899 0.04853 0.0
C536 C 0.55797 0.5076 0.95559 0.0
C537 C 0.48269 0.45836 0.1097 0.0
C538 C 0.59698 0.44617 0.05819 0.0
C539 C 0.49496 0.41686 0.98726 0.0
C540 C 0.55312 0.56107 0.07071 0.0
C541 C 0.45123 0.53552 0.02301 0.0
O542 O 0.5754 0.50422 0.98108 0.0
O543 O 0.83004 0.22775 0.26352 0.0
Zn544 Zn 0.7937 0.24013 0.29155 0.0
O545 O 0.75606 0.23664 0.26516 0.0
Zn546 Zn 0.73586 0.27728 0.25607 0.0
Zn547 Zn 0.76259 0.20914 0.22768 0.0
Zn548 Zn 0.72608 0.21491 0.29043 0.0
O549 O 0.69014 0.27783 0.27541 0.0
O550 O 0.70104 0.24502 0.31696 0.0
O551 O 0.80183 0.28666 0.30413 0.0
O552 O 0.76379 0.31247 0.27616 0.0
O553 O 0.73818 0.28472 0.20693 0.0
O554 O 0.75708 0.23752 0.1886 0.0
O555 O 0.73137 0.17063 0.2272 0.0
O556 O 0.79357 0.20779 0.32865 0.0
O557 O 0.69605 0.19068 0.26225 0.0
O558 O 0.74692 0.18325 0.31917 0.0
C559 C 0.83335 0.2089 0.23895 0.0
C560 C 0.68273 0.26535 0.30326 0.0
C561 C 0.74866 0.26674 0.18375 0.0
C562 C 0.7889 0.31289 0.29429 0.0
C563 C 0.70385 0.16966 0.24095 0.0
C564 C 0.77383 0.18454 0.33381 0.0
O565 O 0.80908 0.19606 0.22456 0.0
O566 O 0.03454 0.55247 0.58642 0.0
Zn567 Zn 0.03433 0.54575 0.53757 0.0
O568 O 0.99512 0.5237 0.52524 0.0
Zn569 Zn 0.00412 0.4869 0.49774 0.0
Zn570 Zn 0.96775 0.51284 0.56201 0.0
Zn571 Zn 0.97036 0.55227 0.50042 0.0
O572 O 0.97877 0.48718 0.45501 0.0
O573 O 0.94712 0.52893 0.46518 0.0
O574 O 0.07108 0.51595 0.52914 0.0
O575 O 0.05175 0.47983 0.49333 0.0
O576 O 0.99041 0.44801 0.52212 0.0
O577 O 0.96511 0.46475 0.56702 0.0
O578 O 0.92322 0.53184 0.55727 0.0
O579 O 0.04112 0.58736 0.51136 0.0
O580 O 0.93764 0.57433 0.52733 0.0
O581 O -0.00222 0.58479 0.47933 0.0
C582 C 0.01567 0.54314 0.6093 0.0
C583 C 0.95433 0.50431 0.44805 0.0
C584 C 0.97588 0.44211 0.54894 0.0
C585 C 0.07492 0.49143 0.5105 0.0
C586 C 0.91713 0.55952 0.54499 0.0
C587 C 0.02465 0.59749 0.48693 0.0
O588 O 0.98926 0.52848 0.60311 0.0
O589 O 0.74225 0.7371 0.31131 0.0
Zn590 Zn 0.75994 0.7684 0.27868 0.0
O591 O 0.76127 0.74598 0.23735 0.0
Zn592 Zn 0.80367 0.73902 0.21934 0.0
Zn593 Zn 0.73534 0.70747 0.23526 0.0
Zn594 Zn 0.74573 0.77572 0.20679 0.0
O595 O 0.80473 0.75576 0.17151 0.0
O596 O 0.78287 0.79966 0.18965 0.0
O597 O 0.8055 0.77794 0.29167 0.0
O598 O 0.83611 0.75941 0.2508 0.0
O599 O 0.81105 0.69139 0.21846 0.0
O600 O 0.76219 0.66931 0.22047 0.0
O601 O 0.69692 0.71667 0.20566 0.0
O602 O 0.73282 0.80967 0.27805 0.0
O603 O 0.71865 0.75392 0.1729 0.0
O604 O 0.71896 0.8088 0.22529 0.0
C605 C 0.72849 0.7094 0.30935 0.0
C606 C 0.79438 0.78413 0.16587 0.0
C607 C 0.79257 0.6666 0.21764 0.0
C608 C 0.83303 0.77312 0.27896 0.0
C609 C 0.69543 0.73503 0.18031 0.0
C610 C 0.71742 0.8213 0.25363 0.0
O611 O 0.72279 0.69563 0.28171 0.0
O612 O 0.71945 0.21176 0.69191 0.0
Zn613 Zn 0.7284 0.21481 0.74003 0.0
O614 O 0.75109 0.25551 0.74917 0.0
Zn615 Zn 0.7899 0.24707 0.77418 0.0
Zn616 Zn 0.76068 0.2806 0.7097 0.0
Zn617 Zn 0.72416 0.28151 0.77517 0.0
O618 O 0.79162 0.27197 0.81744 0.0
O619 O 0.74777 0.30161 0.81201 0.0
O620 O 0.75917 0.17787 0.74688 0.0
O621 O 0.79652 0.19937 0.77958 0.0
O622 O 0.82816 0.2583 0.74685 0.0
O623 O 0.80853 0.28245 0.70243 0.0
O624 O 0.73905 0.32524 0.70875 0.0
O625 O 0.68695 0.20951 0.7669 0.0
O626 O 0.70479 0.31676 0.74971 0.0
O627 O 0.68893 0.25615 0.79439 0.0
C628 C 0.72978 0.22804 0.66743 0.0
C629 C 0.7733 0.29455 0.82739 0.0
C630 C 0.83217 0.27116 0.71868 0.0
C631 C 0.78519 0.17541 0.76324 0.0
C632 C 0.71445 0.33342 0.72537 0.0
C633 C 0.67586 0.22882 0.78862 0.0
O634 O 0.74532 0.25454 0.67125 0.0
O635 O 0.67409 0.77035 0.7354 0.0
Zn636 Zn 0.70683 0.75736 0.76878 0.0
O637 O 0.74764 0.75843 0.74812 0.0
Zn638 Zn 0.76942 0.7178 0.74355 0.0
Zn639 Zn 0.74804 0.78542 0.71014 0.0
Zn640 Zn 0.77467 0.77982 0.777 0.0
O641 O 0.81334 0.71972 0.76819 0.0
O642 O 0.79379 0.74948 0.80835 0.0
O643 O 0.69807 0.71149 0.78231 0.0
O644 O 0.7396 0.68339 0.76304 0.0
O645 O 0.77409 0.70975 0.69443 0.0
O646 O 0.76359 0.75832 0.67317 0.0
O647 O 0.77639 0.82517 0.71729 0.0
O648 O 0.70453 0.78934 0.80681 0.0
O649 O 0.80911 0.80177 0.75264 0.0
O650 O 0.75213 0.81306 0.80192 0.0
C651 C 0.67583 0.78698 0.70899 0.0
C652 C 0.81572 0.73152 0.79729 0.0
C653 C 0.77126 0.72867 0.66966 0.0
C654 C 0.7125 0.68469 0.77778 0.0
C655 C 0.8025 0.82528 0.73377 0.0
C656 C 0.72433 0.81196 0.81445 0.0
O657 O 0.70275 0.79678 0.6977 0.0
O658 O 0.48528 0.58917 0.5041 0.0
Zn659 Zn 0.49311 0.5481 0.48065 0.0
O660 O 0.49088 0.51452 0.51182 0.0
Zn661 Zn 0.53093 0.49409 0.51957 0.0
Zn662 Zn 0.46589 0.5266 0.54969 0.0
Zn663 Zn 0.46433 0.48229 0.49514 0.0
O664 O 0.53357 0.44978 0.49683 0.0
O665 O 0.48757 0.45088 0.46909 0.0
O666 O 0.53795 0.55269 0.46352 0.0
O667 O 0.5647 0.52342 0.50043 0.0
O668 O 0.5365 0.49145 0.56872 0.0
O669 O 0.49093 0.51133 0.58901 0.0
O670 O 0.42101 0.50522 0.5455 0.0
O671 O 0.45852 0.54279 0.44666 0.0
O672 O 0.4449 0.46016 0.53297 0.0
O673 O 0.43086 0.50097 0.46659 0.0
C674 C 0.47385 0.5971 0.53193 0.0
C675 C 0.51463 0.43846 0.47474 0.0
C676 C 0.5187 0.49903 0.59309 0.0
C677 C 0.5642 0.54424 0.47715 0.0
C678 C 0.41936 0.47475 0.54015 0.0
C679 C 0.4337 0.52438 0.44648 0.0
O680 O 0.46407 0.57563 0.55233 0.0
O681 O 0.01613 0.43683 0.02734 0.0
Zn682 Zn 0.01202 0.47247 -0.00443 0.0
O683 O 0.01648 0.51219 0.01911 0.0
Zn684 Zn 0.97557 0.53231 0.02515 0.0
Zn685 Zn 0.04071 0.50545 0.05921 0.0
Zn686 Zn 0.04239 0.54013 -0.00588 0.0
O687 O 0.97376 0.57566 0.00085 0.0
O688 O 0.01711 0.57169 0.96951 0.0
O689 O 0.96788 0.4668 0.97719 0.0
O690 O 0.94102 0.50243 0.00716 0.0
O691 O 0.96808 0.53605 0.07404 0.0
O692 O 0.01562 0.52461 0.09626 0.0
O693 O 0.08623 0.52481 0.05537 0.0
O694 O 0.04575 0.4675 0.96138 0.0
O695 O 0.07145 0.5651 0.02292 0.0
O696 O 0.06944 0.51581 0.96287 0.0
C697 C 0.02771 0.43391 0.05617 0.0
C698 C 0.99129 0.58581 0.9771 0.0
C699 C 0.98627 0.53263 0.09919 0.0
C700 C 0.94147 0.47835 0.98737 0.0
C701 C 0.09195 0.55215 0.04177 0.0
C702 C 0.06775 0.48697 0.95195 0.0
O703 O 0.04044 0.45794 0.07129 0.0
C704 C 0.97372 0.15523 0.09876 0.0
C705 C 0.97126 0.18099 0.07614 0.0
C706 C 0.96473 0.12362 0.08974 0.0
C707 C 0.95293 0.11698 0.05792 0.0
H708 H 0.98438 0.1591 0.12288 0.0
H709 H 0.96966 0.10402 0.10675 0.0
S710 S 0.93434 0.17693 0.99275 0.0
N711 N 0.95063 0.1986 0.02287 0.0
N712 N 0.93382 0.13909 0.00601 0.0
C713 C 0.94707 0.14299 0.0365 0.0
C714 C 0.95635 0.17506 0.04553 0.0
C715 C 0.12103 0.75302 0.35191 0.0
C716 C 0.09218 0.74681 0.33486 0.0
C717 C 0.15067 0.74894 0.33658 0.0
C718 C 0.15271 0.73825 0.3037 0.0
H719 H 0.12084 0.76254 0.37683 0.0
H720 H 0.1722 0.75587 0.35008 0.0
S721 S 0.08461 0.7143 0.24959 0.0
N722 N 0.06758 0.726 0.28432 0.0
N723 N 0.12368 0.71843 0.25553 0.0
C724 C 0.12428 0.72945 0.28714 0.0
C725 C 0.09389 0.7338 0.30272 0.0
C726 C 0.51901 0.8767 0.62464 0.0
C727 C 0.49083 0.86009 0.61503 0.0
C728 C 0.52872 0.90518 0.60822 0.0
C729 C 0.51061 0.91714 0.58165 0.0
H730 H 0.53452 0.8666 0.64342 0.0
H731 H 0.55116 0.91688 0.61517 0.0
S732 S 0.43226 0.8849 0.55143 0.0
N733 N 0.4433 0.85928 0.58046 0.0
N734 N 0.461 0.91271 0.54982 0.0
C735 C 0.48125 0.90179 0.57365 0.0
C736 C 0.47152 0.87317 0.5903 0.0
C737 C 0.37721 0.27849 0.85735 0.0
C738 C 0.40796 0.26933 0.84676 0.0
C739 C 0.35133 0.28011 0.83529 0.0
C740 C 0.35495 0.27248 0.80162 0.0
H741 H 0.37275 0.28384 0.8831 0.0
H742 H 0.32802 0.28619 0.84514 0.0
S743 S 0.43114 0.2504 0.76031 0.0
N744 N 0.44105 0.255 0.79951 0.0
N745 N 0.39238 0.25795 0.7582 0.0
C746 C 0.38587 0.26477 0.79031 0.0
C747 C 0.41232 0.26319 0.8128 0.0
C748 C 0.98499 0.84807 0.44384 0.0
C749 C -0.0008 0.84952 0.41235 0.0
C750 C 0.98263 0.87557 0.46366 0.0
C751 C 0.99385 0.90569 0.45255 0.0
H752 H 0.97717 0.8252 0.45429 0.0
H753 H 0.97344 0.87292 0.48851 0.0
S754 S 0.02957 0.92365 0.37075 0.0
N755 N 0.02204 0.8842 0.36982 0.0
N756 N 0.01712 0.93643 0.40714 0.0
C757 C 0.00566 0.90823 0.42012 0.0
C758 C 0.00843 0.87997 0.39994 0.0
C759 C 0.41611 0.73018 0.71304 0.0
C760 C 0.41727 0.7332 0.67859 0.0
C761 C 0.3878 0.72005 0.72869 0.0
C762 C 0.35998 0.71214 0.71035 0.0
H763 H 0.43639 0.73775 0.72808 0.0
H764 H 0.38716 0.72027 0.75542 0.0
S765 S 0.35312 0.71027 0.61901 0.0
N766 N 0.39009 0.72326 0.62631 0.0
N767 N 0.33698 0.70391 0.6556 0.0
C768 C 0.36199 0.71202 0.67571 0.0
C769 C 0.39064 0.72276 0.65986 0.0
C770 C 0.52245 0.16672 0.9679 0.0
C771 C 0.5137 0.17073 0.93454 0.0
C772 C 0.52899 0.13602 0.98069 0.0
C773 C 0.52654 0.10846 0.96054 0.0
H774 H 0.52244 0.18718 0.98473 0.0
H775 H 0.53255 0.13358 0.00707 0.0
S776 S 0.51123 0.10651 0.87042 0.0
N777 N 0.50839 0.1452 0.88058 0.0
N778 N 0.52008 0.08725 0.90492 0.0
C779 C 0.52149 0.11253 0.9265 0.0
C780 C 0.51513 0.1438 0.91337 0.0
C781 C 0.11456 0.28835 0.13069 0.0
C782 C 0.08416 0.28992 0.14539 0.0
C783 C 0.14246 0.29169 0.14981 0.0
C784 C 0.14069 0.29671 0.18413 0.0
H785 H 0.11685 0.28291 0.10465 0.0
H786 H 0.16545 0.28845 0.1379 0.0
S787 S 0.06685 0.30952 0.23298 0.0
N788 N 0.05388 0.3019 0.19519 0.0
N789 N 0.10636 0.30781 0.23109 0.0
C790 C 0.11047 0.30087 0.19857 0.0
C791 C 0.08216 0.29757 0.17918 0.0
C792 C 0.03003 8e-05 0.18414 0.0
C793 C 0.06366 0.00084 0.18782 0.0
C794 C 0.01557 0.99302 0.15382 0.0
C795 C 0.03401 0.98654 0.12561 0.0
H796 H 0.01448 0.00574 0.20467 0.0
H797 H 0.98964 0.99408 0.15231 0.0
S798 S 0.12297 0.98087 0.12285 0.0
N799 N 0.11504 0.99095 0.16137 0.0
N800 N 0.08782 0.9779 0.1041 0.0
C801 C 0.06765 0.98501 0.12933 0.0
C802 C 0.08246 0.99218 0.16043 0.0
C803 C 0.29576 0.81581 0.41374 0.0
C804 C 0.2825 0.84671 0.41905 0.0
C805 C 0.29965 0.80347 0.3819 0.0
C806 C 0.29015 0.82154 0.35438 0.0
H807 H 0.30167 0.80023 0.43431 0.0
H808 H 0.30766 0.77869 0.37907 0.0
S809 S 0.26014 0.90603 0.35454 0.0
N810 N 0.26441 0.89689 0.39395 0.0
N811 N 0.27163 0.87361 0.3339 0.0
C812 C 0.2798 0.85363 0.35916 0.0
C813 C 0.27594 0.86624 0.39161 0.0
C814 C 0.41591 0.02031 0.64854 0.0
C815 C 0.43443 0.01535 0.67702 0.0
C816 C 0.42927 0.03531 0.62078 0.0
C817 C 0.46169 0.04568 0.62057 0.0
H818 H 0.39161 0.01081 0.64691 0.0
H819 H 0.41484 0.03604 0.59852 0.0
S820 S 0.51675 0.04743 0.69267 0.0
N821 N 0.48414 0.02866 0.7061 0.0
N822 N 0.50929 0.05673 0.65382 0.0
C823 C 0.47892 0.04476 0.6504 0.0
C824 C 0.46537 0.02939 0.6786 0.0
C825 C 0.22978 0.14888 0.88359 0.0
C826 C 0.22942 0.16797 0.91234 0.0
C827 C 0.22573 0.16291 0.85241 0.0
C828 C 0.22135 0.19657 0.84888 0.0
H829 H 0.23438 0.12311 0.88501 0.0
H830 H 0.22787 0.14744 0.8309 0.0
S831 S 0.21384 0.25654 0.9167 0.0
N832 N 0.22089 0.22184 0.93546 0.0
N833 N 0.2132 0.248 0.87692 0.0
C834 C 0.21878 0.21556 0.87754 0.0
C835 C 0.22287 0.20131 0.90926 0.0
C836 C 0.07276 0.01978 0.35908 0.0
C837 C 0.1055 0.01299 0.35454 0.0
C838 C 0.06016 0.02562 0.3904 0.0
C839 C 0.07969 0.02478 0.41873 0.0
H840 H 0.05631 0.01987 0.33834 0.0
H841 H 0.03457 0.02957 0.39238 0.0
S842 S 0.16781 0.01092 0.42001 0.0
N843 N 0.15777 0.00795 0.38067 0.0
N844 N 0.13424 0.01882 0.43985 0.0
C845 C 0.11289 0.01949 0.41443 0.0
C846 C 0.12573 0.01354 0.38232 0.0
C847 C 0.24931 0.81723 0.60578 0.0
C848 C 0.26356 0.79837 0.58096 0.0
C849 C 0.23705 0.803 0.63441 0.0
C850 C 0.23858 0.76927 0.63954 0.0
H851 H 0.24829 0.84339 0.60361 0.0
H852 H 0.2278 0.81891 0.65335 0.0
S853 S 0.26855 0.70835 0.57968 0.0
N854 N 0.2749 0.74364 0.5616 0.0
N855 N 0.25183 0.71691 0.61544 0.0
C856 C 0.25062 0.74983 0.61386 0.0
C857 C 0.26323 0.76437 0.58468 0.0
C858 C 0.38714 0.9927 0.86573 0.0
C859 C 0.40382 0.98344 0.8373 0.0
C860 C 0.40179 0.99136 0.89673 0.0
C861 C 0.43348 0.98035 0.90039 0.0
H862 H 0.36322 0.00263 0.86393 0.0
H863 H 0.38862 0.00027 0.91784 0.0
S864 S 0.48592 0.94897 0.83427 0.0
N865 N 0.45267 0.95973 0.81518 0.0
N866 N 0.47989 0.95688 0.87367 0.0
C867 C 0.44952 0.96861 0.87258 0.0
C868 C 0.43478 0.97032 0.84091 0.0
C869 C 0.25331 0.17291 0.10841 0.0
C870 C 0.25661 0.19233 0.08013 0.0
C871 C 0.26196 0.185 0.1396 0.0
C872 C 0.27431 0.21673 0.14319 0.0
H873 H 0.24194 0.1492 0.10677 0.0
H874 H 0.2563 0.1705 0.16112 0.0
S875 S 0.29535 0.27361 0.0757 0.0
N876 N 0.27861 0.24213 0.05687 0.0
N877 N 0.29511 0.26471 0.1154 0.0
C878 C 0.28118 0.23473 0.11464 0.0
C879 C 0.27214 0.22261 0.08308 0.0
C880 C 0.14257 0.07937 -0.00445 0.0
C881 C 0.14101 0.1117 0.98451 0.0
C882 C 0.11562 0.05886 -0.00539 0.0
C883 C 0.0859 0.06968 0.98252 0.0
H884 H 0.1646 0.06989 0.00576 0.0
H885 H 0.118 0.03455 0.00441 0.0
S886 S 0.06967 0.15129 0.94761 0.0
N887 N 0.10775 0.1529 0.95883 0.0
N888 N 0.05712 0.11438 0.95706 0.0
C889 C 0.08431 0.10154 0.97 0.0
C890 C 0.1118 0.12251 0.97107 0.0
C891 C 0.6861 0.43405 0.05178 0.0
C892 C 0.68816 0.40147 0.04179 0.0
C893 C 0.65668 0.44759 0.06039 0.0
C894 C 0.62808 0.4291 0.05933 0.0
H895 H 0.70709 0.44979 0.05145 0.0
H896 H 0.65612 0.4733 0.06596 0.0
S897 S 0.62155 0.34094 0.04091 0.0
N898 N 0.65997 0.34975 0.03596 0.0
N899 N 0.60448 0.37521 0.052 0.0
C900 C 0.63029 0.39568 0.05243 0.0
C901 C 0.66035 0.38189 0.04355 0.0
C902 C 0.85974 0.37009 0.30506 0.0
C903 C 0.84844 0.3995 0.29204 0.0
C904 C 0.83958 0.34292 0.30814 0.0
C905 C 0.80718 0.34383 0.29821 0.0
H906 H 0.8847 0.36755 0.31207 0.0
H907 H 0.85009 0.32056 0.31683 0.0
S908 S 0.76417 0.41634 0.26755 0.0
N909 N 0.80156 0.42898 0.27284 0.0
N910 N 0.76372 0.3778 0.27849 0.0
C911 C 0.79494 0.37368 0.28726 0.0
C912 C 0.81553 0.40146 0.28414 0.0
C913 C 0.82904 0.56248 0.52564 0.0
C914 C 0.82447 0.59599 0.52168 0.0
C915 C 0.85857 0.55053 0.53672 0.0
C916 C 0.88419 0.57182 0.54422 0.0
H917 H 0.81041 0.54536 0.51837 0.0
H918 H 0.8621 0.52452 0.53694 0.0
S919 S 0.882 0.66163 0.54479 0.0
N920 N 0.84617 0.6503 0.53126 0.0
N921 N 0.90164 0.62773 0.55171 0.0
C922 C 0.87887 0.60533 0.54323 0.0
C923 C 0.84898 0.61747 0.53198 0.0
C924 C 0.1816 0.10826 0.2717 0.0
C925 C 0.15146 0.10729 0.28739 0.0
C926 C 0.20066 0.13645 0.27183 0.0
C927 C 0.19034 0.1649 0.28757 0.0
H928 H 0.19022 0.08742 0.25817 0.0
H929 H 0.22282 0.13637 0.25793 0.0
S930 S 0.11603 0.17386 0.33688 0.0
N931 N 0.11412 0.13637 0.32258 0.0
N932 N 0.14991 0.18934 0.32259 0.0
C933 C 0.16131 0.16371 0.3052 0.0
C934 C 0.14188 0.13497 0.30514 0.0
C935 C 0.39494 0.89693 0.47321 0.0
C936 C 0.36475 0.90479 0.48624 0.0
C937 C 0.41925 0.92042 0.47019 0.0
C938 C 0.41442 0.95279 0.48008 0.0
H939 H 0.40033 0.8722 0.46626 0.0
H940 H 0.4425 0.9126 0.46156 0.0
S941 S 0.33795 0.98728 0.51033 0.0
N942 N 0.33008 0.94829 0.50517 0.0
N943 N 0.37581 0.99231 0.49952 0.0
C944 C 0.38364 0.9615 0.49093 0.0
C945 C 0.35885 0.93755 0.49408 0.0
C946 C 0.80318 0.57735 0.2367 0.0
C947 C 0.83667 0.57403 0.23547 0.0
C948 C 0.78869 0.60687 0.22867 0.0
C949 C 0.80723 0.63395 0.2188 0.0
H950 H 0.78821 0.55761 0.24564 0.0
H951 H 0.763 0.60889 0.23195 0.0
S952 S 0.89548 0.63514 0.2054 0.0
N953 N 0.8876 0.5984 0.21955 0.0
N954 N 0.86058 0.65367 0.20372 0.0
C955 C 0.84056 0.62986 0.21485 0.0
C956 C 0.85525 0.59998 0.22344 0.0
C957 C 0.69937 0.42285 0.7294 0.0
C958 C 0.66591 0.42329 0.73445 0.0
C959 C 0.71521 0.39373 0.72232 0.0
C960 C 0.69798 0.36435 0.71994 0.0
H961 H 0.71369 0.44463 0.73321 0.0
H962 H 0.74121 0.39379 0.72162 0.0
S963 S 0.60966 0.35362 0.72397 0.0
N964 N 0.61574 0.39265 0.73113 0.0
N965 N 0.64558 0.33811 0.71815 0.0
C966 C 0.66434 0.36511 0.7216 0.0
C967 C 0.64825 0.39456 0.72881 0.0
C968 C 0.01798 0.85375 0.94482 0.0
C969 C 0.00683 0.85234 0.91197 0.0
C970 C 0.02352 0.88346 0.96065 0.0
C971 C 0.01756 0.91273 0.94431 0.0
H972 H 0.0218 0.83171 0.95875 0.0
H973 H 0.03011 0.8834 0.98654 0.0
S974 S 0.99158 0.92235 0.85722 0.0
N975 N 0.99307 0.88268 0.86269 0.0
N976 N 0.00262 0.93878 0.89275 0.0
C977 C 0.00832 0.9117 0.91086 0.0
C978 C 0.00312 0.88141 0.89459 0.0
C979 C 0.89319 0.26416 0.6501 0.0
C980 C 0.92078 0.25251 0.66614 0.0
C981 C 0.86534 0.27152 0.66756 0.0
C982 C 0.86357 0.26724 0.70193 0.0
H983 H 0.89313 0.26834 0.62371 0.0
H984 H 0.84483 0.28009 0.65373 0.0
S985 S 0.92909 0.23701 0.75589 0.0
N986 N 0.94466 0.23691 0.7185 0.0
N987 N 0.89206 0.25025 0.75151 0.0
C988 C 0.89092 0.25529 0.71839 0.0
C989 C 0.91949 0.24796 0.70049 0.0
C990 C 0.45383 0.1688 0.44463 0.0
C991 C 0.47561 0.18066 0.42081 0.0
C992 C 0.45591 0.13719 0.45681 0.0
C993 C 0.47987 0.11622 0.44568 0.0
H994 H 0.43585 0.18445 0.45521 0.0
H995 H 0.43996 0.12999 0.4766 0.0
S996 S 0.53856 0.13288 0.37877 0.0
N997 N 0.51885 0.16714 0.38308 0.0
N998 N 0.52257 0.10756 0.40575 0.0
C999 C 0.49981 0.12663 0.41962 0.0
C1000 C 0.49774 0.15889 0.40723 0.0
C1001 C 0.6351 0.7675 0.11893 0.0
C1002 C 0.60537 0.7578 0.1322 0.0
C1003 C 0.66403 0.75863 0.13381 0.0
C1004 C 0.66458 0.73961 0.16265 0.0
H1005 H 0.63616 0.782 0.09668 0.0
H1006 H 0.68617 0.76718 0.12272 0.0
S1007 S 0.59338 0.70692 0.20694 0.0
N1008 N 0.57827 0.72728 0.17561 0.0
N1009 N 0.63269 0.71086 0.20369 0.0
C1010 C 0.63506 0.72935 0.17604 0.0
C1011 C 0.60549 0.73852 0.16093 0.0
C1012 C 0.01508 0.15434 0.59177 0.0
C1013 C 0.02879 0.17742 0.57049 0.0
C1014 C 0.02242 0.12159 0.58892 0.0
C1015 C 0.04368 0.11042 0.56459 0.0
H1016 H -0.00164 0.16144 0.61081 0.0
H1017 H 0.01058 0.10471 0.60547 0.0
S1018 S 0.0874 0.16064 0.50351 0.0
N1019 N 0.06603 0.18678 0.52487 0.0
N1020 N 0.07925 0.12471 0.51951 0.0
C1021 C 0.0584 0.13308 0.54372 0.0
C1022 C 0.05095 0.16666 0.54654 0.0
C1023 C 0.59221 0.26617 0.30929 0.0
C1024 C 0.5871 0.26097 0.34322 0.0
C1025 C 0.62332 0.27 0.29657 0.0
C1026 C 0.65034 0.26855 0.31737 0.0
H1027 H 0.57205 0.26752 0.29241 0.0
H1028 H 0.62626 0.2728 0.27018 0.0
S1029 S 0.65005 0.25651 0.40811 0.0
N1030 N 0.61181 0.25532 0.39739 0.0
N1031 N 0.67003 0.26266 0.37356 0.0
C1032 C 0.6455 0.26402 0.35138 0.0
C1033 C 0.61397 0.26011 0.36428 0.0
C1034 C 0.47189 0.85669 0.09474 0.0
C1035 C 0.48493 0.83158 0.07567 0.0
C1036 C 0.46094 0.88506 0.08004 0.0
C1037 C 0.463 0.88946 0.04574 0.0
H1038 H 0.47064 0.85482 0.12136 0.0
H1039 H 0.45285 0.90443 0.09598 0.0
S1040 S 0.49102 0.82912 0.98438 0.0
N1041 N 0.49624 0.81141 0.02046 0.0
N1042 N 0.47552 0.8649 0.99267 0.0
C1043 C 0.47389 0.8636 0.02616 0.0
C1044 C 0.4851 0.83468 0.04117 0.0
C1045 C 0.90116 0.75382 0.81941 0.0
C1046 C 0.89972 0.75494 0.85415 0.0
C1047 C 0.87472 0.74284 0.80054 0.0
C1048 C 0.84621 0.73228 0.81586 0.0
H1049 H 0.92231 0.76268 0.80669 0.0
H1050 H 0.87584 0.74471 0.7739 0.0
S1051 S 0.83191 0.72517 0.90574 0.0
N1052 N 0.86852 0.74056 0.90288 0.0
N1053 N 0.81929 0.72027 0.8674 0.0
C1054 C 0.84537 0.73112 0.85042 0.0
C1055 C 0.87195 0.74241 0.86957 0.0
C1056 C 0.87954 -0.00228 0.87498 0.0
C1057 C 0.88524 0.02266 0.8524 0.0
C1058 C 0.89153 0.00015 0.90712 0.0
C1059 C 0.91012 0.02731 0.91705 0.0
H1060 H 0.86792 0.97534 0.86711 0.0
H1061 H 0.88853 0.97938 0.9232 0.0
S1062 S 0.92591 0.10148 0.86775 0.0
N1063 N 0.90595 0.07698 0.84255 0.0
N1064 N 0.92887 0.08176 0.90307 0.0
C1065 C 0.91299 0.05375 0.89539 0.0
C1066 C 0.90054 0.05128 0.86284 0.0
C1067 C 0.74769 0.21644 0.57724 0.0
C1068 C 0.74883 0.18251 0.57437 0.0
C1069 C 0.73908 0.23113 0.60696 0.0
C1070 C 0.73086 0.21239 0.63471 0.0
H1071 H 0.75421 0.23179 0.55659 0.0
H1072 H 0.73996 0.25737 0.6085 0.0
S1073 S 0.7262 0.1223 0.63826 0.0
N1074 N 0.73831 0.13044 0.60042 0.0
N1075 N 0.72188 0.15786 0.65641 0.0
C1076 C 0.73015 0.17832 0.63149 0.0
C1077 C 0.73938 0.16341 0.60133 0.0
C1078 C 0.58434 0.96354 0.3677 0.0
C1079 C 0.60966 0.98396 0.35796 0.0
C1080 C 0.57412 0.96301 0.4003 0.0
C1081 C 0.58833 0.98371 0.42388 0.0
H1082 H 0.57129 0.94907 0.34965 0.0
H1083 H 0.55295 0.94866 0.40613 0.0
S1084 S 0.66035 0.03592 0.41172 0.0
N1085 N 0.65267 0.02059 0.37479 0.0
N1086 N 0.63268 0.0207 0.4366 0.0
C1087 C 0.61593 0.00165 0.41509 0.0
C1088 C 0.62678 0.00157 0.38184 0.0
C1089 C 0.79013 0.79072 0.07273 0.0
C1090 C 0.76329 0.8108 0.06766 0.0
C1091 C 0.80004 0.78196 0.10452 0.0
C1092 C 0.78369 0.79322 0.13236 0.0
H1093 H 0.80438 0.78255 0.05208 0.0
H1094 H 0.82106 0.76695 0.10732 0.0
S1095 S 0.70906 0.84237 0.13225 0.0
N1096 N 0.71848 0.83855 0.09298 0.0
N1097 N 0.73721 0.8229 0.15266 0.0
C1098 C 0.75592 0.81216 0.12755 0.0
C1099 C 0.74568 0.82068 0.09523 0.0
C1100 C 0.94128 0.97439 0.66885 0.0
C1101 C 0.95823 0.98003 0.69842 0.0
C1102 C 0.95738 0.96527 0.64002 0.0
C1103 C 0.99088 0.96177 0.63987 0.0
H1104 H 0.91547 0.97724 0.66791 0.0
H1105 H 0.94383 0.9632 0.61722 0.0
S1106 S 0.0462 0.97273 0.71073 0.0
N1107 N 0.01028 0.98007 0.72597 0.0
N1108 N 0.04037 0.96383 0.67141 0.0
C1109 C 0.00791 0.96628 0.66939 0.0
C1110 C 0.99163 0.97522 0.69877 0.0
C1111 C 0.75906 0.12038 0.39813 0.0
C1112 C 0.78792 0.121 0.41579 0.0
C1113 C 0.75553 0.1393 0.36988 0.0
C1114 C 0.78067 0.15979 0.35897 0.0
H1115 H 0.73824 0.1077 0.40789 0.0
H1116 H 0.73213 0.13969 0.35817 0.0
S1117 S 0.86297 0.1645 0.39401 0.0
N1118 N 0.84334 0.13931 0.41856 0.0
N1119 N 0.83705 0.17509 0.36514 0.0
C1120 C 0.81073 0.15778 0.37464 0.0
C1121 C 0.81426 0.13826 0.40325 0.0
C1122 C 0.56585 0.00654 0.16704 0.0
C1123 C 0.54596 0.00302 0.19473 0.0
C1124 C 0.55296 0.01325 0.136 0.0
C1125 C 0.51963 0.01617 0.13134 0.0
H1126 H 0.5917 0.00497 0.16946 0.0
H1127 H 0.5693 0.01534 0.11536 0.0
S1128 S 0.45714 0.00854 0.19587 0.0
N1129 N 0.49132 0.00292 0.21572 0.0
N1130 N 0.46692 0.01478 0.15692 0.0
C1131 C 0.4994 0.01242 0.15876 0.0
C1132 C 0.51259 0.00604 0.19056 0.0
C1133 C 0.74171 0.8753 0.87884 0.0
C1134 C 0.72231 0.86449 0.9047 0.0
C1135 C 0.73958 0.86035 0.84791 0.0
C1136 C 0.71817 0.83406 0.84229 0.0
H1137 H 0.76027 0.89344 0.88322 0.0
H1138 H 0.75663 0.8677 0.82916 0.0
S1139 S 0.65734 0.80258 0.901 0.0
N1140 N 0.67747 0.83057 0.92195 0.0
N1141 N 0.67331 0.80224 0.86376 0.0
C1142 C 0.69603 0.82595 0.86705 0.0
C1143 C 0.69831 0.84115 0.89847 0.0
C1144 C 0.86183 0.88997 0.00924 0.0
C1145 C 0.8328 0.90605 0.00317 0.0
C1146 C 0.88817 0.90618 0.02315 0.0
C1147 C 0.88682 0.93928 0.0314 0.0
H1148 H 0.86444 0.86455 0.00307 0.0
H1149 H 0.91033 0.89293 0.02613 0.0
S1150 S 0.81597 0.99233 0.02224 0.0
N1151 N 0.8036 0.95664 0.00826 0.0
N1152 N 0.85364 0.98742 0.03387 0.0
C1153 C 0.85757 0.95546 0.02688 0.0
C1154 C 0.83049 0.9388 0.0128 0.0
C1155 C 0.36209 0.54985 0.01732 0.0
C1156 C 0.35953 0.58243 0.02716 0.0
C1157 C 0.39213 0.53516 0.01465 0.0
C1158 C 0.4204 0.55243 0.02248 0.0
H1159 H 0.34087 0.53604 0.01026 0.0
H1160 H 0.39321 0.51001 0.00694 0.0
S1161 S 0.42632 0.63788 0.05077 0.0
N1162 N 0.38748 0.63145 0.04493 0.0
N1163 N 0.44398 0.60333 0.0416 0.0
C1164 C 0.41805 0.58473 0.03325 0.0
C1165 C 0.38756 0.5999 0.03513 0.0
C1166 C 0.17807 0.5758 0.75447 0.0
C1167 C 0.15699 0.57773 0.78161 0.0
C1168 C 0.19371 0.60345 0.7421 0.0
C1169 C 0.18863 0.63399 0.75628 0.0
H1170 H 0.18162 0.553 0.74171 0.0
H1171 H 0.20905 0.60104 0.72074 0.0
S1172 S 0.14035 0.65135 0.83131 0.0
N1173 N 0.13523 0.61213 0.82476 0.0
N1174 N 0.16431 0.66402 0.8016 0.0
C1175 C 0.16915 0.63596 0.78466 0.0
C1176 C 0.15346 0.60785 0.79734 0.0
C1177 C 0.13437 0.42261 0.50441 0.0
C1178 C 0.16252 0.43568 0.5187 0.0
C1179 C 0.10659 0.44112 0.50111 0.0
C1180 C 0.10559 0.47346 0.51224 0.0
H1181 H 0.13395 0.39812 0.49466 0.0
H1182 H 0.08566 0.42978 0.4899 0.0
S1183 S 0.17238 0.51874 0.5531 0.0
N1184 N 0.18739 0.48267 0.54516 0.0
N1185 N 0.13506 0.51746 0.53929 0.0
C1186 C 0.13333 0.48663 0.52739 0.0
C1187 C 0.16175 0.46775 0.5306 0.0
C1188 C 0.8669 0.88116 0.7664 0.0
C1189 C 0.85458 0.91217 0.76015 0.0
C1190 C 0.85106 0.85331 0.75528 0.0
C1191 C 0.82196 0.85514 0.73772 0.0
H1192 H 0.88896 0.87813 0.78023 0.0
H1193 H 0.86123 0.83004 0.76167 0.0
S1194 S 0.78081 0.93049 0.71216 0.0
N1195 N 0.81265 0.94325 0.73298 0.0
N1196 N 0.7825 0.8905 0.71242 0.0
C1197 C 0.81004 0.88596 0.72981 0.0
C1198 C 0.82634 0.91454 0.74107 0.0
C1199 C 0.67719 0.06845 0.52713 0.0
C1200 C 0.67995 0.08681 0.49789 0.0
C1201 C 0.64704 0.05822 0.53897 0.0
C1202 C 0.61871 0.0663 0.52214 0.0
H1203 H 0.69826 0.06334 0.54189 0.0
H1204 H 0.64584 0.04505 0.56205 0.0
S1205 S 0.61333 0.10924 0.44151 0.0
N1206 N 0.65197 0.10899 0.45036 0.0
N1207 N 0.59574 0.09034 0.47246 0.0
C1208 C 0.6214 0.0829 0.49179 0.0
C1209 C 0.6519 0.09295 0.47969 0.0
C1210 C 0.18751 0.40106 0.74736 0.0
C1211 C 0.15469 0.40248 0.73945 0.0
C1212 C 0.20257 0.3713 0.75208 0.0
C1213 C 0.18545 0.34199 0.74836 0.0
H1214 H 0.2013 0.42309 0.75181 0.0
H1215 H 0.22785 0.37128 0.75846 0.0
S1216 S 0.09966 0.33268 0.72503 0.0
N1217 N 0.10581 0.37231 0.72669 0.0
N1218 N 0.13447 0.31605 0.73418 0.0
C1219 C 0.15296 0.34304 0.73894 0.0
C1220 C 0.13748 0.37339 0.7348 0.0
C1221 C 0.35381 0.62228 0.25754 0.0
C1222 C 0.33968 0.59518 0.24183 0.0
C1223 C 0.33609 0.6501 0.26439 0.0
C1224 C 0.30348 0.65228 0.25553 0.0
H1225 H 0.37849 0.62164 0.26597 0.0
H1226 H 0.34828 0.67012 0.27666 0.0
S1227 S 0.25567 0.58904 0.21133 0.0
N1228 N 0.29153 0.57296 0.21575 0.0
N1229 N 0.2582 0.62539 0.22836 0.0
C1230 C 0.28931 0.62584 0.23857 0.0
C1231 C 0.30743 0.59739 0.23165 0.0
C1232 C 0.47303 0.67237 0.58565 0.0
C1233 C 0.48711 0.6962 0.56525 0.0
C1234 C 0.46742 0.64077 0.57423 0.0
C1235 C 0.47563 0.63167 0.54193 0.0
H1236 H 0.46662 0.67794 0.6109 0.0
H1237 H 0.4574 0.62317 0.59124 0.0
S1238 S 0.51098 0.68553 0.47767 0.0
N1239 N 0.50762 0.70889 0.51052 0.0
N1240 N 0.49681 0.64973 0.4889 0.0
C1241 C 0.48852 0.65562 0.52077 0.0
C1242 C 0.49434 0.68778 0.53247 0.0
C1243 C 0.61409 0.23556 0.85476 0.0
C1244 C 0.58519 0.23243 0.83697 0.0
C1245 C 0.64367 0.23075 0.83948 0.0
C1246 C 0.64554 0.22227 0.80594 0.0
H1247 H 0.61407 0.24342 0.88028 0.0
H1248 H 0.66539 0.23577 0.85349 0.0
S1249 S 0.57711 0.20666 0.7494 0.0
N1250 N 0.56024 0.2168 0.78473 0.0
N1251 N 0.61623 0.20786 0.75611 0.0
C1252 C 0.61694 0.21639 0.78851 0.0
C1253 C 0.58664 0.22153 0.804 0.0
C1254 C 0.00201 0.34729 0.06844 0.0
C1255 C 0.99605 0.34544 0.10249 0.0
C1256 C 0.01457 0.37536 0.05422 0.0
C1257 C 0.02145 0.40303 0.07337 0.0
H1258 H 0.99658 0.32697 0.05227 0.0
H1259 H 0.01791 0.37568 0.02774 0.0
S1260 S 0.01141 0.41065 0.16402 0.0
N1261 N -0.00072 0.37327 0.15547 0.0
N1262 N 0.02232 0.42675 0.12844 0.0
C1263 C 0.01656 0.40139 0.10767 0.0
C1264 C 0.00382 0.37251 0.12231 0.0
C1265 C 0.9162 0.76266 0.31512 0.0
C1266 C 0.91421 0.77891 0.34562 0.0
C1267 C 0.89055 0.76262 0.29269 0.0
C1268 C 0.86186 0.7789 0.29982 0.0
H1269 H 0.93734 0.74888 0.30887 0.0
H1270 H 0.89278 0.74844 0.2703 0.0
S1271 S 0.84635 0.8295 0.37393 0.0
N1272 N 0.88258 0.81482 0.38009 0.0
N1273 N 0.83441 0.81483 0.33796 0.0
C1274 C 0.8603 0.79693 0.32933 0.0
C1275 C 0.8864 0.79687 0.35223 0.0
C1276 C 0.48922 0.33094 0.95606 0.0
C1277 C 0.49726 0.33399 0.92241 0.0
C1278 C 0.48681 0.35806 0.97653 0.0
C1279 C 0.49181 0.38938 0.96411 0.0
H1280 H 0.48588 0.30729 0.96721 0.0
H1281 H 0.48195 0.35438 0.00251 0.0
S1282 S 0.51121 0.411 0.87739 0.0
N1283 N 0.50855 0.37099 0.87721 0.0
N1284 N 0.50362 0.42232 0.91566 0.0
C1285 C 0.49818 0.39305 0.93013 0.0
C1286 C 0.50103 0.36526 0.90928 0.0
C1287 C 0.91787 0.2348 0.22048 0.0
C1288 C 0.91994 0.22782 0.18678 0.0
C1289 C 0.89092 0.22513 0.23844 0.0
C1290 C 0.86525 0.20819 0.22316 0.0
H1291 H 0.93604 0.24973 0.23248 0.0
H1292 H 0.88922 0.23319 0.26383 0.0
S1293 S 0.86523 0.17495 0.13793 0.0
N1294 N 0.89865 0.19677 0.14053 0.0
N1295 N 0.84769 0.1782 0.17427 0.0
C1296 C 0.86933 0.19734 0.19051 0.0
C1297 C 0.89674 0.20747 0.1722 0.0
C1298 C 0.02079 0.6597 0.42067 0.0
C1299 C 0.02371 0.68835 0.43918 0.0
C1300 C 0.0253 0.62957 0.43565 0.0
C1301 C 0.03327 0.62734 0.46936 0.0
H1302 H 0.01227 0.66036 0.39539 0.0
H1303 H 0.01977 0.60784 0.42154 0.0
S1304 S 0.05124 0.69563 0.5261 0.0
N1305 N 0.04077 0.71307 0.49107 0.0
N1306 N 0.04929 0.65616 0.51915 0.0
C1307 C 0.04028 0.65585 0.48689 0.0
C1308 C 0.03534 0.68653 0.47179 0.0
C1309 C 0.58805 0.78421 0.68494 0.0
C1310 C 0.5883 0.79331 0.65149 0.0
C1311 C 0.61627 0.78368 0.7036 0.0
C1312 C 0.64606 0.79221 0.68969 0.0
H1313 H 0.56592 0.77685 0.69687 0.0
H1314 H 0.61469 0.77572 0.72901 0.0
S1315 S 0.65979 0.82009 0.60371 0.0
N1316 N 0.62081 0.81286 0.60562 0.0
N1317 N 0.67395 0.81179 0.64077 0.0
C1318 C 0.6466 0.80269 0.65663 0.0
C1319 C 0.61774 0.80323 0.63753 0.0
C1320 C 0.52983 0.51777 0.68361 0.0
C1321 C 0.56068 0.50596 0.69059 0.0
C1322 C 0.51589 0.51381 0.65254 0.0
C1323 C 0.53218 0.49796 0.62691 0.0
H1324 H 0.5164 0.53089 0.70208 0.0
H1325 H 0.49252 0.52437 0.6484 0.0
S1326 S 0.61194 0.45891 0.6334 0.0
N1327 N 0.606 0.47504 0.67015 0.0
N1328 N 0.57981 0.46777 0.61139 0.0
C1329 C 0.56247 0.48465 0.63387 0.0
C1330 C 0.57673 0.48866 0.66572 0.0
C1331 C 0.76427 0.35576 0.89561 0.0
C1332 C 0.77523 0.33877 0.92334 0.0
C1333 C 0.76597 0.3421 0.8641 0.0
C1334 C 0.77896 0.31107 0.85914 0.0
H1335 H 0.75299 0.37917 0.89832 0.0
H1336 H 0.75574 0.35538 0.84362 0.0
S1337 S 0.81455 0.25816 0.923 0.0
N1338 N 0.8022 0.29036 0.94342 0.0
N1339 N 0.8056 0.26499 0.88395 0.0
C1340 C 0.79215 0.29481 0.88623 0.0
C1341 C 0.79014 0.30855 0.91845 0.0
C1342 C 0.92435 0.51278 0.16417 0.0
C1343 C 0.94348 0.50604 0.19194 0.0
C1344 C 0.93806 0.52434 0.13488 0.0
C1345 C 0.97143 0.52972 0.13225 0.0
H1346 H 0.89874 0.50799 0.1646 0.0
H1347 H 0.92252 0.52723 0.11362 0.0
S1348 S 0.03124 0.52185 0.19983 0.0
N1349 N 0.99697 0.50991 0.21633 0.0
N1350 N 0.02254 0.53176 0.16144 0.0
C1351 C 0.99041 0.5256 0.16068 0.0
C1352 C 0.97653 0.51363 0.1904 0.0
C1353 C 0.72501 0.69346 0.40016 0.0
C1354 C 0.73567 0.66125 0.40243 0.0
C1355 C 0.71981 0.70807 0.36963 0.0
C1356 C 0.72481 0.69097 0.34017 0.0
H1357 H 0.72201 0.70818 0.42207 0.0
H1358 H 0.7135 0.73351 0.36907 0.0
S1359 S 0.74901 0.60489 0.33246 0.0
N1360 N 0.74814 0.61168 0.37263 0.0
N1361 N 0.73829 0.63927 0.31492 0.0
C1362 C 0.73308 0.658 0.34198 0.0
C1363 C 0.73862 0.64311 0.37323 0.0
C1364 C 0.56682 0.50681 0.86278 0.0
C1365 C 0.59966 0.50058 0.8581 0.0
C1366 C 0.55392 0.51044 0.89429 0.0
C1367 C 0.57329 0.50804 0.9226 0.0
H1368 H 0.55057 0.5083 0.84193 0.0
H1369 H 0.52833 0.51434 0.89635 0.0
S1370 S 0.66141 0.49412 0.92374 0.0
N1371 N 0.6517 0.49374 0.88421 0.0
N1372 N 0.62764 0.50062 0.94378 0.0
C1373 C 0.60651 0.50291 0.91828 0.0
C1374 C 0.61962 0.4991 0.88599 0.0
C1375 C 0.74894 0.32097 0.10835 0.0
C1376 C 0.77817 0.31277 0.09323 0.0
C1377 C 0.73911 0.30586 0.13767 0.0
C1378 C 0.75806 0.28189 0.15238 0.0
H1379 H 0.73315 0.33847 0.09701 0.0
H1380 H 0.7164 0.31255 0.14856 0.0
S1381 S 0.83902 0.25614 0.12543 0.0
N1382 N 0.82746 0.28218 0.09706 0.0
N1383 N 0.80913 0.25363 0.15193 0.0
C1384 C 0.78794 0.27456 0.13818 0.0
C1385 C 0.79795 0.29005 0.10862 0.0
C1386 C 0.93476 0.48183 0.36014 0.0
C1387 C 0.90432 0.49568 0.35545 0.0
C1388 C 0.94999 0.48273 0.39088 0.0
C1389 C 0.93545 0.49784 0.41791 0.0
H1390 H 0.9476 0.47128 0.33965 0.0
H1391 H 0.97405 0.47319 0.3929 0.0
S1392 S 0.85386 0.53334 0.41987 0.0
N1393 N 0.85862 0.52159 0.38123 0.0
N1394 N 0.88727 0.52344 0.43923 0.0
C1395 C 0.90403 0.50971 0.41418 0.0
C1396 C 0.88842 0.50856 0.38286 0.0
C1397 C 0.75548 0.72491 0.57821 0.0
C1398 C 0.75283 0.69146 0.5719 0.0
C1399 C 0.7643 0.73656 0.60928 0.0
C1400 C 0.77048 0.71531 0.63568 0.0
H1401 H 0.75005 0.74248 0.55919 0.0
H1402 H 0.76468 0.76261 0.61289 0.0
S1403 S 0.77191 0.62536 0.63083 0.0
N1404 N 0.76105 0.63701 0.59353 0.0
N1405 N 0.77712 0.65905 0.65236 0.0
C1406 C 0.77024 0.68175 0.62918 0.0
C1407 C 0.76144 0.6698 0.59725 0.0
C1408 C 0.65001 0.57371 0.48466 0.0
C1409 C 0.64913 0.60451 0.4698 0.0
C1410 C 0.62301 0.55332 0.4848 0.0
C1411 C 0.59399 0.56282 0.47 0.0
H1412 H 0.67132 0.56566 0.49753 0.0
H1413 H 0.62458 0.53052 0.49793 0.0
S1414 S 0.58056 0.63897 0.42318 0.0
N1415 N 0.61797 0.64195 0.43642 0.0
N1416 N 0.56711 0.60368 0.43677 0.0
C1417 C 0.59346 0.59255 0.4529 0.0
C1418 C 0.62099 0.61341 0.45287 0.0
C1419 C 0.19138 0.9393 0.54312 0.0
C1420 C 0.19214 0.90588 0.53628 0.0
C1421 C 0.16244 0.95484 0.5499 0.0
C1422 C 0.13311 0.93752 0.55033 0.0
H1423 H 0.21306 0.95397 0.54162 0.0
H1424 H 0.16296 0.98093 0.55318 0.0
S1425 S 0.12329 0.84825 0.54014 0.0
N1426 N 0.16201 0.85509 0.5347 0.0
N1427 N 0.10752 0.88405 0.54776 0.0
C1428 C 0.13403 0.90352 0.54634 0.0
C1429 C 0.16354 0.88778 0.53912 0.0
C1430 C 0.31444 0.89438 0.75568 0.0
C1431 C 0.3436 0.89647 0.77313 0.0
C1432 C 0.29322 0.86821 0.76032 0.0
C1433 C 0.30029 0.84312 0.78271 0.0
H1434 H 0.30846 0.91242 0.73731 0.0
H1435 H 0.27198 0.86686 0.74487 0.0
S1436 S 0.37064 0.84061 0.83919 0.0
N1437 N 0.37637 0.87369 0.81701 0.0
N1438 N 0.33652 0.82457 0.82584 0.0
C1439 C 0.32821 0.8463 0.80218 0.0
C1440 C 0.3499 0.87287 0.79731 0.0
C1441 C 0.34767 0.10816 0.01915 0.0
C1442 C 0.31866 0.09049 0.02025 0.0
C1443 C 0.37694 0.09328 0.02558 0.0
C1444 C 0.37844 0.06012 0.03342 0.0
H1445 H 0.34803 0.13351 0.01214 0.0
H1446 H 0.39875 0.10757 0.02281 0.0
S1447 S 0.30916 0.00384 0.04348 0.0
N1448 N 0.29289 0.03872 0.03298 0.0
N1449 N 0.34828 0.01062 0.0449 0.0
C1450 C 0.34953 0.04263 0.03698 0.0
C1451 C 0.31953 0.05784 0.03034 0.0
C1452 C 0.6828 0.5978 0.77146 0.0
C1453 C 0.65478 0.59788 0.79084 0.0
C1454 C 0.70257 0.62538 0.76904 0.0
C1455 C 0.69512 0.65418 0.78589 0.0
H1456 H 0.68891 0.57673 0.75685 0.0
H1457 H 0.72288 0.62455 0.75246 0.0
S1458 S 0.62785 0.66537 0.84458 0.0
N1459 N 0.62301 0.628 0.8306 0.0
N1460 N 0.66015 0.67981 0.826 0.0
C1461 C 0.66849 0.6539 0.8072 0.0
C1462 C 0.64833 0.6258 0.80967 0.0
C1463 C 0.88871 0.40615 0.96685 0.0
C1464 C 0.86034 0.41265 0.98426 0.0
C1465 C 0.91376 0.42889 0.9654 0.0
C1466 C 0.91167 0.45909 0.98153 0.0
H1467 H 0.89227 0.38278 0.95522 0.0
H1468 H 0.93566 0.4218 0.95314 0.0
S1469 S 0.84012 0.49062 0.02506 0.0
N1470 N 0.82974 0.45343 0.01389 0.0
N1471 N 0.87701 0.49616 0.01132 0.0
C1472 C 0.88233 0.46711 -0.00352 0.0
C1473 C 0.85667 0.44389 -0.00212 0.0
C1474 C 0.29861 0.07548 0.72522 0.0
C1475 C 0.33219 0.07338 0.72692 0.0
C1476 C 0.28371 0.10508 0.71868 0.0
C1477 C 0.30186 0.13362 0.7133 0.0
H1478 H 0.28366 0.05449 0.73059 0.0
H1479 H 0.25774 0.10581 0.71948 0.0
S1480 S 0.39091 0.13918 0.70885 0.0
N1481 N 0.38332 0.10095 0.71831 0.0
N1482 N 0.35554 0.15658 0.70563 0.0
C1483 C 0.33558 0.13108 0.71211 0.0
C1484 C 0.35069 0.10098 0.71914 0.0
C1485 C 0.15992 0.90474 0.22747 0.0
C1486 C 0.17678 0.93394 0.23299 0.0
C1487 C 0.17608 0.87623 0.21969 0.0
C1488 C 0.20974 0.87576 0.21723 0.0
H1489 H 0.13414 0.90348 0.23076 0.0
H1490 H 0.16232 0.85381 0.21807 0.0
S1491 S 0.26481 0.94642 0.22535 0.0
N1492 N 0.22878 0.96147 0.23188 0.0
N1493 N 0.2592 0.90737 0.21774 0.0
C1494 C 0.22671 0.90523 0.21983 0.0
C1495 C 0.2102 0.93449 0.22768 0.0
C1496 C 0.52048 0.37855 0.40613 0.0
C1497 C 0.50912 0.35001 0.42133 0.0
C1498 C 0.52563 0.40697 0.42446 0.0
C1499 C 0.52036 0.40748 0.45862 0.0
H1500 H 0.52449 0.37928 0.37974 0.0
H1501 H 0.53216 0.4291 0.41162 0.0
S1502 S 0.4916 0.33954 0.51058 0.0
N1503 N 0.49353 0.32411 0.47303 0.0
N1504 N 0.50373 0.37763 0.50718 0.0
C1505 C 0.51028 0.37899 0.47437 0.0
C1506 C 0.5045 0.35019 0.45577 0.0
C1507 C 0.39934 0.75672 0.14874 0.0
C1508 C 0.42736 0.74705 0.16546 0.0
C1509 C 0.37259 0.76798 0.16574 0.0
C1510 C 0.37226 0.76956 0.20036 0.0
H1511 H 0.39812 0.75641 0.12204 0.0
H1512 H 0.35165 0.77469 0.15146 0.0
S1513 S 0.43892 0.74611 0.25625 0.0
N1514 N 0.45302 0.73947 0.21883 0.0
N1515 N 0.40212 0.75976 0.25105 0.0
C1516 C 0.39984 0.7594 0.2176 0.0
C1517 C 0.42744 0.74828 0.20013 0.0
C1518 C 0.96798 0.67319 0.96672 0.0
C1519 C 0.98372 0.68224 0.93727 0.0
C1520 C 0.96852 0.64131 0.97831 0.0
C1521 C 0.98494 0.61717 0.96102 0.0
H1522 H 0.95567 0.69099 0.98159 0.0
H1523 H 0.95737 0.63599 0.00183 0.0
S1524 S 0.02631 0.62667 0.88046 0.0
N1525 N 0.01354 0.6634 0.88946 0.0
N1526 N 0.0145 0.60336 0.91127 0.0
C1527 C -0.0008 0.62529 0.9306 0.0
C1528 C -0.00133 0.65783 0.91875 0.0
C1529 C 0.12862 0.25099 0.62428 0.0
C1530 C 0.10027 0.25721 0.64189 0.0
C1531 C 0.15493 0.23648 0.63936 0.0
C1532 C 0.1544 0.22776 0.67286 0.0
H1533 H 0.13058 0.25695 0.59836 0.0
H1534 H 0.17634 0.23287 0.62471 0.0
S1535 S 0.0861 0.23837 0.73029 0.0
N1536 N 0.07298 0.25277 0.69477 0.0
N1537 N 0.12308 0.22609 0.72339 0.0
C1538 C 0.12613 0.23325 0.69084 0.0
C1539 C 0.09902 0.24794 0.67533 0.0
C1540 C 0.51924 0.6415 0.09636 0.0
C1541 C 0.53526 0.66349 0.07559 0.0
C1542 C 0.52708 0.60871 0.09652 0.0
C1543 C 0.55112 0.59645 0.07567 0.0
H1544 H 0.50001 0.64946 0.11229 0.0
H1545 H 0.513 0.59269 0.11207 0.0
S1546 S 0.60336 0.64453 0.01982 0.0
N1547 N 0.57874 0.67125 0.03603 0.0
N1548 N 0.59306 0.6093 0.03611 0.0
C1549 C 0.56852 0.61837 0.05603 0.0
C1550 C 0.56061 0.65191 0.0559 0.0
C1551 C 0.10946 0.75894 0.85686 0.0
C1552 C 0.08137 0.75818 0.83754 0.0
C1553 C 0.13975 0.76184 0.84243 0.0
C1554 C 0.14329 0.76459 0.80806 0.0
H1555 H 0.10812 0.75711 0.88349 0.0
H1556 H 0.16068 0.76143 0.85836 0.0
S1557 S 0.07742 0.7644 0.74628 0.0
N1558 N 0.05893 0.76083 0.78211 0.0
N1559 N 0.11618 0.76637 0.7549 0.0
C1560 C 0.11546 0.76437 0.78834 0.0
C1561 C 0.08444 0.76099 0.80308 0.0
C1562 C 0.98284 0.37311 0.60918 0.0
C1563 C 0.99093 0.34701 0.58859 0.0
C1564 C 0.97587 0.40352 0.59598 0.0
C1565 C 0.97683 0.40881 0.56173 0.0
H1566 H 0.98215 0.37017 0.63573 0.0
H1567 H 0.97098 0.42326 0.61286 0.0
S1568 S 0.99389 0.34766 0.49695 0.0
N1569 N 0.99766 0.3279 0.53208 0.0
N1570 N 0.9842 0.385 0.50732 0.0
C1571 C 0.98369 0.3826 0.54079 0.0
C1572 C 0.99095 0.35172 0.5542 0.0
C1573 C 0.38625 0.30756 0.32988 0.0
C1574 C 0.40811 0.28238 0.33417 0.0
C1575 C 0.35927 0.30342 0.30974 0.0
C1576 C 0.35252 0.27353 0.29387 0.0
H1577 H 0.38953 0.33032 0.34297 0.0
H1578 H 0.34274 0.32349 0.30812 0.0
S1579 S 0.40374 0.20059 0.29598 0.0
N1580 N 0.42283 0.22726 0.31961 0.0
N1581 N 0.37124 0.21901 0.28241 0.0
C1582 C 0.37493 0.24851 0.29701 0.0
C1583 C 0.40296 0.25307 0.31699 0.0
C1584 C 0.3974 0.55386 0.36755 0.0
C1585 C 0.37904 0.5269 0.35771 0.0
C1586 C 0.41263 0.5543 0.3982 0.0
C1587 C 0.41016 0.52754 0.41957 0.0
H1588 H 0.40218 0.57347 0.3504 0.0
H1589 H 0.4284 0.57461 0.40398 0.0
S1590 S 0.35909 0.45401 0.40674 0.0
N1591 N 0.35491 0.47525 0.3725 0.0
N1592 N 0.38325 0.47572 0.43072 0.0
C1593 C 0.38868 0.50206 0.4113 0.0
C1594 C 0.37327 0.50173 0.37997 0.0
C1595 C 0.25744 0.72596 0.07414 0.0
C1596 C 0.25556 0.69202 0.07153 0.0
C1597 C 0.24975 0.74163 0.10364 0.0
C1598 C 0.2393 0.72392 0.13132 0.0
H1599 H 0.26533 0.74045 0.05336 0.0
H1600 H 0.25277 0.76774 0.10498 0.0
S1601 S 0.22676 0.63453 0.13534 0.0
N1602 N 0.2402 0.64126 0.09771 0.0
N1603 N 0.22535 0.67048 0.15324 0.0
C1604 C 0.23586 0.68995 0.12838 0.0
C1605 C 0.24424 0.67404 0.09849 0.0
C1606 C 0.09183 0.4475 0.8728 0.0
C1607 C 0.11486 0.46943 0.86087 0.0
C1608 C 0.07906 0.45128 0.90426 0.0
C1609 C 0.08843 0.4777 0.92423 0.0
H1610 H 0.08189 0.4288 0.85679 0.0
H1611 H 0.05969 0.43512 0.91158 0.0
S1612 S 0.15274 0.53803 0.90573 0.0
N1613 N 0.15023 0.5152 0.87224 0.0
N1614 N 0.12618 0.52284 0.93182 0.0
C1615 C 0.11408 0.49771 0.91373 0.0
C1616 C 0.12728 0.49351 0.88173 0.0
C1617 C 0.26299 0.34939 0.60068 0.0
C1618 C 0.27708 0.33481 0.57304 0.0
C1619 C 0.26727 0.33655 0.63225 0.0
C1620 C 0.28558 0.3084 0.63752 0.0
H1621 H 0.24751 0.37016 0.59791 0.0
H1622 H 0.25446 0.34772 0.65246 0.0
S1623 S 0.33254 0.26443 0.57453 0.0
N1624 N 0.31426 0.29335 0.55384 0.0
N1625 N 0.32144 0.269 0.61328 0.0
C1626 C 0.30215 0.29527 0.61069 0.0
C1627 C 0.29796 0.30841 0.57841 0.0
C1628 C 0.41959 0.47346 0.17168 0.0
C1629 C 0.43615 0.46833 0.20145 0.0
C1630 C 0.43341 0.46548 0.14142 0.0
C1631 C 0.46428 0.45215 0.13973 0.0
H1632 H 0.39621 0.48471 0.17158 0.0
H1633 H 0.42091 0.47222 0.11898 0.0
S1634 S 0.51653 0.43071 0.21012 0.0
N1635 N 0.48416 0.4461 0.22729 0.0
N1636 N 0.51005 0.43174 0.16992 0.0
C1637 C 0.48016 0.4446 0.16913 0.0
C1638 C 0.46615 0.45266 0.20013 0.0
C1639 C 0.30679 0.65083 0.90197 0.0
C1640 C 0.28394 0.62772 0.91199 0.0
C1641 C 0.30337 0.66716 0.87214 0.0
C1642 C 0.27665 0.66112 0.85169 0.0
H1643 H 0.326 0.65823 0.91856 0.0
H1644 H 0.32045 0.68632 0.86645 0.0
S1645 S 0.21377 0.59771 0.86462 0.0
N1646 N 0.23666 0.59586 0.89791 0.0
N1647 N 0.22997 0.62613 0.84109 0.0
C1648 C 0.25556 0.63532 0.85993 0.0
C1649 C 0.25924 0.61869 0.89042 0.0
C1650 C 0.0739 0.52688 0.67789 0.0
C1651 C 0.05365 0.52112 0.70492 0.0
C1652 C 0.06152 0.53711 0.64768 0.0
C1653 C 0.02832 0.54136 0.64319 0.0
H1654 H 0.09956 0.52332 0.68001 0.0
H1655 H 0.078 0.53984 0.62723 0.0
S1656 S 0.96544 0.5321 0.70713 0.0
N1657 N -0.00083 0.52276 0.72624 0.0
N1658 N 0.97566 0.54127 0.6689 0.0
C1659 C 0.00794 0.53705 0.67043 0.0
C1660 C 0.02066 0.52707 0.70143 0.0
C1661 C 0.19841 0.35032 0.40372 0.0
C1662 C 0.22601 0.36975 0.40861 0.0
C1663 C 0.19548 0.33007 0.37601 0.0
C1664 C 0.22051 0.32827 0.35309 0.0
H1665 H 0.17992 0.34933 0.42244 0.0
H1666 H 0.17466 0.31425 0.3737 0.0
S1667 S 0.29591 0.37735 0.35322 0.0
N1668 N 0.27717 0.38836 0.38724 0.0
N1669 N 0.27212 0.35037 0.33508 0.0
C1670 C 0.24723 0.34934 0.3567 0.0
C1671 C 0.24992 0.37008 0.38463 0.0
C1672 C 0.36462 0.408 0.50981 0.0
C1673 C 0.33861 0.4246 0.49598 0.0
C1674 C 0.38915 0.42456 0.52643 0.0
C1675 C 0.38918 0.45859 0.52944 0.0
H1676 H 0.36578 0.38177 0.50848 0.0
H1677 H 0.40886 0.41051 0.53619 0.0
S1678 S 0.32641 0.51354 0.4973 0.0
N1679 N 0.31359 0.47683 0.48695 0.0
N1680 N 0.36074 0.50845 0.51705 0.0
C1681 C 0.36304 0.47561 0.51612 0.0
C1682 C 0.33758 0.45851 0.49959 0.0
C1683 C 0.86083 0.04302 0.54161 0.0
C1684 C 0.85941 0.07672 0.53613 0.0
C1685 C 0.89004 0.02648 0.53921 0.0
C1686 C 0.91838 0.0431 0.53059 0.0
H1687 H 0.8391 0.0291 0.54613 0.0
H1688 H 0.89028 0.00046 0.54292 0.0
S1689 S 0.92885 0.13169 0.51971 0.0
N1690 N 0.89008 0.12653 0.5265 0.0
N1691 N 0.94443 0.09506 0.52093 0.0
C1692 C 0.91773 0.07684 0.52714 0.0
C1693 C 0.88834 0.09377 0.53026 0.0
C1694 C 0.63136 0.1174 0.25526 0.0
C1695 C 0.64441 0.08613 0.25661 0.0
C1696 C 0.65022 0.14415 0.24641 0.0
C1697 C 0.68292 0.14076 0.23874 0.0
H1698 H 0.60659 0.12151 0.26201 0.0
H1699 H 0.63957 0.16801 0.24755 0.0
S1700 S 0.72793 0.06377 0.23487 0.0
N1701 N 0.69141 0.05285 0.24637 0.0
N1702 N 0.72693 0.10351 0.2301 0.0
C1703 C 0.69575 0.10943 0.23754 0.0
C1704 C 0.6765 0.08203 0.24654 0.0
C1705 C 0.65263 0.94863 0.0195 0.0
C1706 C 0.65303 0.91475 0.01518 0.0
C1707 C 0.6244 0.96627 0.0146 0.0
C1708 C 0.59564 0.95071 0.00491 0.0
H1709 H 0.67453 0.96186 0.02535 0.0
H1710 H 0.6253 0.99236 0.01777 0.0
S1711 S 0.58289 0.86186 -0.00491 0.0
N1712 N 0.62139 0.86594 0.00409 0.0
N1713 N 0.56852 0.89901 -0.00531 0.0
C1714 C 0.59539 0.91666 0.00203 0.0
C1715 C 0.62401 0.89871 0.00731 0.0
C1716 C 0.33811 0.3951 0.25598 0.0
C1717 C 0.32787 0.42169 0.27465 0.0
C1718 C 0.31581 0.37388 0.24157 0.0
C1719 C 0.28271 0.37843 0.24596 0.0
H1720 H 0.36346 0.39111 0.25191 0.0
H1721 H 0.3246 0.35302 0.22817 0.0
S1722 S 0.24418 0.44421 0.29342 0.0
N1723 N 0.28306 0.452 0.29654 0.0
N1724 N 0.24084 0.41097 0.27075 0.0
C1725 C 0.27228 0.40495 0.26468 0.0
C1726 C 0.29498 0.42692 0.27872 0.0
C1727 C 0.17787 0.56288 0.01646 0.0
C1728 C 0.18017 0.59689 0.01422 0.0
C1729 C 0.15015 0.54785 0.0293 0.0
C1730 C 0.12433 0.5665 0.04067 0.0
H1731 H 0.1968 0.54786 0.0067 0.0
H1732 H 0.14793 0.52166 0.02794 0.0
S1733 S 0.12135 0.65612 0.04619 0.0
N1734 N 0.15632 0.64858 0.02892 0.0
N1735 N 0.10451 0.62031 0.05286 0.0
C1736 C 0.12767 0.60037 0.04117 0.0
C1737 C 0.15551 0.6156 0.02791 0.0
C1738 C 0.65274 0.88115 0.27372 0.0
C1739 C 0.65923 0.9064 0.25112 0.0
C1740 C 0.67284 0.8542 0.27616 0.0
C1741 C 0.69982 0.85169 0.25591 0.0
H1742 H 0.63227 0.88236 0.29006 0.0
H1743 H 0.66672 0.83487 0.29316 0.0
S1744 S 0.72769 0.91078 0.19304 0.0
N1745 N 0.69487 0.92694 0.20839 0.0
N1746 N 0.73245 0.87621 0.21287 0.0
C1747 C 0.70667 0.87666 0.23336 0.0
C1748 C 0.68639 0.90405 0.23094 0.0
C1749 C 0.81367 0.09283 0.73308 0.0
C1750 C 0.84638 0.09296 0.74194 0.0
C1751 C 0.79383 0.11917 0.74074 0.0
C1752 C 0.80577 0.14653 0.75798 0.0
H1753 H 0.80297 0.07177 0.72117 0.0
H1754 H 0.76885 0.11789 0.73332 0.0
S1755 S 0.89042 0.15984 0.78478 0.0
N1756 N 0.8903 0.12388 0.76692 0.0
N1757 N 0.85314 0.17259 0.78213 0.0
C1758 C 0.83869 0.14724 0.76622 0.0
C1759 C 0.85894 0.12078 0.75787 0.0
loop_
_geom_bond_atom_site_label_1
_geom_bond_atom_site_label_2
_geom_bond_distance
_geom_bond_site_symmetry_2
_ccdc_geom_bond_type
Co0 O1 2.247 . S
Co0 O2 2.112 . S
Co0 O4 1.977 1_655 S
Co0 O10 2.019 1_655 S
Co0 O12 2.140 . S
Co0 O13 2.235 1_655 S
O1 Co0 2.247 . S
O1 C8 1.247 . S
O2 Co0 2.112 . S
O2 C8 1.261 . S
C3 O12 1.247 1_455 S
C3 O13 1.272 . S
O4 Co0 1.977 1_455 S
O4 C9 1.259 . S
Co5 O6 2.061 . S
Co5 O11 2.052 . S
Co5 O13 2.135 . S
O6 Co5 2.061 . S
O6 C9 1.235 . S
C7 O10 1.238 . S
C7 O11 1.241 . S
C8 O1 1.247 . S
C8 O2 1.261 . S
C9 O4 1.259 . S
C9 O6 1.235 . S
O10 Co0 2.019 1_455 S
O10 C7 1.238 . S
O11 Co5 2.052 . S
O11 C7 1.241 . S
O12 Co0 2.140 . S
O12 C3 1.247 1_655 S
O13 Co0 2.235 1_455 S
O13 C3 1.272 . S
O13 Co5 2.135 . S
Co14 O15 2.216 . S
Co14 O16 2.091 . S
Co14 O18 2.004 1_455 S
Co14 O24 2.021 . S
Co14 O26 2.137 . S
Co14 O27 2.244 1_455 S
O15 Co14 2.216 . S
O15 C22 1.247 . S
O16 Co14 2.091 . S
O16 C22 1.261 . S
C17 O26 1.247 . S
C17 O27 1.272 1_455 S
O18 Co14 2.004 1_655 S
O18 C23 1.259 . S
Co19 O20 2.061 . S
Co19 O25 2.052 . S
Co19 O27 2.135 . S
O20 Co19 2.061 . S
O20 C23 1.235 . S
C21 O24 1.241 . S
C21 O25 1.236 1_455 S
C22 O15 1.247 . S
C22 O16 1.261 . S
C23 O18 1.259 . S
C23 O20 1.235 . S
O24 Co14 2.021 . S
O24 C21 1.241 . S
O25 Co19 2.052 . S
O25 C21 1.236 1_655 S
O26 Co14 2.137 . S
O26 C17 1.247 . S
O27 Co14 2.244 1_655 S
O27 C17 1.272 1_655 S
O27 Co19 2.135 . S
Co28 O29 2.216 . S
Co28 O30 2.091 . S
Co28 O32 2.004 . S
Co28 O38 2.021 . S
Co28 O40 2.137 . S
Co28 O41 2.244 . S
O29 Co28 2.216 . S
O29 C36 1.247 . S
O30 Co28 2.091 . S
O30 C36 1.261 . S
C31 O40 1.247 . S
C31 O41 1.272 . S
O32 Co28 2.004 . S
O32 C37 1.259 . S
Co33 O34 2.061 . S
Co33 O39 2.052 . S
Co33 O41 2.135 . S
O34 Co33 2.061 . S
O34 C37 1.235 . S
C35 O38 1.238 . S
C35 O39 1.241 . S
C36 O29 1.247 . S
C36 O30 1.261 . S
C37 O32 1.259 . S
C37 O34 1.235 . S
O38 Co28 2.021 . S
O38 C35 1.238 . S
O39 Co33 2.052 . S
O39 C35 1.241 . S
O40 Co28 2.137 . S
O40 C31 1.247 . S
O41 Co28 2.244 . S
O41 C31 1.272 . S
O41 Co33 2.135 . S
Co42 O43 2.216 . S
Co42 O44 2.091 . S
Co42 O46 2.004 . S
Co42 O52 2.021 . S
Co42 O54 2.137 . S
Co42 O55 2.244 . S
O43 Co42 2.216 . S
O43 C50 1.247 . S
O44 Co42 2.091 . S
O44 C50 1.261 . S
C45 O54 1.247 . S
C45 O55 1.272 . S
O46 Co42 2.004 . S
O46 C51 1.259 . S
Co47 O48 2.061 . S
Co47 O53 2.052 . S
Co47 O55 2.135 . S
O48 Co47 2.061 . S
O48 C51 1.235 . S
C49 O52 1.238 . S
C49 O53 1.241 . S
C50 O43 1.247 . S
C50 O44 1.261 . S
C51 O46 1.259 . S
C51 O48 1.235 . S
O52 Co42 2.021 . S
O52 C49 1.238 . S
O53 Co47 2.052 . S
O53 C49 1.241 . S
O54 Co42 2.137 . S
O54 C45 1.247 . S
O55 Co42 2.244 . S
O55 C45 1.272 . S
O55 Co47 2.135 . S
Co56 O57 2.216 1_545 S
Co56 O58 2.091 1_545 S
Co56 O60 2.004 . S
Co56 O66 2.021 . S
Co56 O68 2.137 . S
Co56 O69 2.244 . S
O57 Co56 2.216 1_565 S
O57 C64 1.247 . S
O58 Co56 2.091 1_565 S
O58 C64 1.261 . S
C59 O68 1.247 . S
C59 O69 1.272 . S
O60 Co56 2.004 . S
O60 C65 1.259 . S
Co61 O62 2.061 . S
Co61 O67 2.052 . S
Co61 O69 2.135 . S
O62 Co61 2.061 . S
O62 C65 1.235 . S
C63 O66 1.238 . S
C63 O67 1.241 . S
C64 O57 1.247 . S
C64 O58 1.261 . S
C65 O60 1.259 . S
C65 O62 1.235 . S
O66 Co56 2.021 . S
O66 C63 1.238 . S
O67 Co61 2.052 . S
O67 C63 1.241 . S
O68 Co56 2.137 . S
O68 C59 1.247 . S
O69 Co56 2.244 . S
O69 C59 1.272 . S
O69 Co61 2.135 . S
Co70 O71 2.216 . S
Co70 O72 2.091 . S
Co70 O74 2.004 . S
Co70 O80 2.021 . S
Co70 O82 2.137 . S
Co70 O83 2.244 . S
O71 Co70 2.216 . S
O71 C78 1.247 . S
O72 Co70 2.091 . S
O72 C78 1.261 . S
C73 O82 1.247 . S
C73 O83 1.272 . S
O74 Co70 2.004 . S
O74 C79 1.259 . S
Co75 O76 2.061 . S
Co75 O81 2.052 . S
Co75 O83 2.135 . S
O76 Co75 2.061 . S
O76 C79 1.235 . S
C77 O80 1.238 . S
C77 O81 1.241 . S
C78 O71 1.247 . S
C78 O72 1.261 . S
C79 O74 1.259 . S
C79 O76 1.235 . S
O80 Co70 2.021 . S
O80 C77 1.238 . S
O81 Co75 2.052 . S
O81 C77 1.241 . S
O82 Co70 2.137 . S
O82 C73 1.247 . S
O83 Co70 2.244 . S
O83 C73 1.272 . S
O83 Co75 2.135 . S
Co84 O85 2.216 . S
Co84 O86 2.091 . S
Co84 O88 2.004 1_545 S
Co84 O94 2.021 . S
Co84 O96 2.137 . S
Co84 O97 2.244 1_545 S
O85 Co84 2.216 . S
O85 C92 1.247 . S
O86 Co84 2.091 . S
O86 C92 1.261 . S
C87 O96 1.242 1_565 S
C87 O97 1.275 . S
O88 Co84 2.004 1_565 S
O88 C93 1.259 . S
Co89 O90 2.061 . S
Co89 O95 2.052 . S
Co89 O97 2.135 . S
O90 Co89 2.061 . S
O90 C93 1.235 . S
C91 O94 1.238 1_565 S
C91 O95 1.241 . S
C92 O85 1.247 . S
C92 O86 1.261 . S
C93 O88 1.259 . S
C93 O90 1.235 . S
O94 Co84 2.021 . S
O94 C91 1.238 1_545 S
O95 Co89 2.052 . S
O95 C91 1.241 . S
O96 Co84 2.137 . S
O96 C87 1.242 1_545 S
O97 Co84 2.244 1_565 S
O97 C87 1.275 . S
O97 Co89 2.135 . S
Co98 O99 2.216 . S
Co98 O100 2.091 . S
Co98 O102 2.004 . S
Co98 O108 2.021 . S
Co98 O110 2.137 1_554 S
Co98 O111 2.244 1_554 S
O99 Co98 2.216 . S
O99 C106 1.247 . S
O100 Co98 2.091 . S
O100 C106 1.261 . S
C101 O110 1.247 . S
C101 O111 1.272 . S
O102 Co98 2.004 . S
O102 C107 1.259 . S
Co103 O104 2.061 . S
Co103 O109 2.052 . S
Co103 O111 2.135 1_554 S
O104 Co103 2.061 . S
O104 C107 1.235 . S
C105 O108 1.238 . S
C105 O109 1.241 . S
C106 O99 1.247 . S
C106 O100 1.261 . S
C107 O102 1.259 . S
C107 O104 1.235 . S
O108 Co98 2.021 . S
O108 C105 1.238 . S
O109 Co103 2.052 . S
O109 C105 1.241 . S
O110 Co98 2.137 1_556 S
O110 C101 1.247 . S
O111 Co98 2.244 1_556 S
O111 C101 1.272 . S
O111 Co103 2.135 1_556 S
Co112 O113 2.216 . S
Co112 O114 2.091 . S
Co112 O116 2.004 . S
Co112 O122 2.021 . S
Co112 O124 2.137 1_554 S
Co112 O125 2.244 1_554 S
O113 Co112 2.216 . S
O113 C120 1.247 . S
O114 Co112 2.091 . S
O114 C120 1.261 . S
C115 O124 1.247 . S
C115 O125 1.272 . S
O116 Co112 2.004 . S
O116 C121 1.259 . S
Co117 O118 2.061 . S
Co117 O123 2.052 . S
Co117 O125 2.135 1_554 S
O118 Co117 2.061 . S
O118 C121 1.235 . S
C119 O122 1.238 . S
C119 O123 1.241 . S
C120 O113 1.247 . S
C120 O114 1.261 . S
C121 O116 1.259 . S
C121 O118 1.235 . S
O122 Co112 2.021 . S
O122 C119 1.238 . S
O123 Co117 2.052 . S
O123 C119 1.241 . S
O124 Co112 2.137 1_556 S
O124 C115 1.247 . S
O125 Co112 2.244 1_556 S
O125 C115 1.272 . S
O125 Co117 2.135 1_556 S
Co126 O127 2.216 . S
Co126 O128 2.091 . S
Co126 O130 2.004 . S
Co126 O136 2.021 . S
Co126 O138 2.137 . S
Co126 O139 2.244 . S
O127 Co126 2.216 . S
O127 C134 1.247 . S
O128 Co126 2.091 . S
O128 C134 1.261 . S
C129 O138 1.247 . S
C129 O139 1.272 . S
O130 Co126 2.004 . S
O130 C135 1.259 . S
Co131 O132 2.061 . S
Co131 O137 2.052 . S
Co131 O139 2.135 . S
O132 Co131 2.061 . S
O132 C135 1.235 . S
C133 O136 1.238 . S
C133 O137 1.241 . S
C134 O127 1.247 . S
C134 O128 1.261 . S
C135 O130 1.259 . S
C135 O132 1.235 . S
O136 Co126 2.021 . S
O136 C133 1.238 . S
O137 Co131 2.052 . S
O137 C133 1.241 . S
O138 Co126 2.137 . S
O138 C129 1.247 . S
O139 Co126 2.244 . S
O139 C129 1.272 . S
O139 Co131 2.135 . S
Co140 O141 2.216 . S
Co140 O142 2.091 . S
Co140 O144 2.004 . S
Co140 O150 2.021 . S
Co140 O152 2.137 . S
Co140 O153 2.244 . S
O141 Co140 2.216 . S
O141 C148 1.247 . S
O142 Co140 2.091 . S
O142 C148 1.261 . S
C143 O152 1.247 . S
C143 O153 1.272 . S
O144 Co140 2.004 . S
O144 C149 1.259 . S
Co145 O146 2.061 . S
Co145 O151 2.052 . S
Co145 O153 2.135 . S
O146 Co145 2.061 . S
O146 C149 1.235 . S
C147 O150 1.238 . S
C147 O151 1.241 . S
C148 O141 1.247 . S
C148 O142 1.261 . S
C149 O144 1.259 . S
C149 O146 1.235 . S
O150 Co140 2.021 . S
O150 C147 1.238 . S
O151 Co145 2.052 . S
O151 C147 1.241 . S
O152 Co140 2.137 . S
O152 C143 1.247 . S
O153 Co140 2.244 . S
O153 C143 1.272 . S
O153 Co145 2.135 . S
Co154 O155 2.216 . S
Co154 O156 2.091 . S
Co154 O158 2.004 . S
Co154 O164 2.021 . S
Co154 O166 2.137 . S
Co154 O167 2.244 . S
O155 Co154 2.216 . S
O155 C162 1.247 . S
O156 Co154 2.091 . S
O156 C162 1.261 . S
C157 O166 1.247 . S
C157 O167 1.272 . S
O158 Co154 2.004 . S
O158 C163 1.259 . S
Co159 O160 2.061 . S
Co159 O165 2.052 . S
Co159 O167 2.135 . S
O160 Co159 2.061 . S
O160 C163 1.235 . S
C161 O164 1.238 . S
C161 O165 1.241 . S
C162 O155 1.247 . S
C162 O156 1.261 . S
C163 O158 1.259 . S
C163 O160 1.235 . S
O164 Co154 2.021 . S
O164 C161 1.238 . S
O165 Co159 2.052 . S
O165 C161 1.241 . S
O166 Co154 2.137 . S
O166 C157 1.247 . S
O167 Co154 2.244 . S
O167 C157 1.272 . S
O167 Co159 2.135 . S
Co168 O169 2.216 . S
Co168 O170 2.091 . S
Co168 O172 2.004 1_455 S
Co168 O178 2.021 . S
Co168 O180 2.137 . S
Co168 O181 2.244 1_455 S
O169 Co168 2.216 . S
O169 C176 1.247 . S
O170 Co168 2.091 . S
O170 C176 1.261 . S
C171 O180 1.247 . S
C171 O181 1.272 1_455 S
O172 Co168 2.004 1_655 S
O172 C177 1.259 . S
Co173 O174 2.061 . S
Co173 O179 2.052 . S
Co173 O181 2.135 . S
O174 Co173 2.061 . S
O174 C177 1.235 . S
C175 O178 1.232 1_655 S
C175 O179 1.252 . S
C176 O169 1.247 . S
C176 O170 1.261 . S
C177 O172 1.259 . S
C177 O174 1.235 . S
O178 Co168 2.021 . S
O178 C175 1.232 1_455 S
O179 Co173 2.052 . S
O179 C175 1.252 . S
O180 Co168 2.137 . S
O180 C171 1.247 . S
O181 Co168 2.244 1_655 S
O181 C171 1.272 1_655 S
O181 Co173 2.135 . S
Co182 O183 2.220 . S
Co182 O184 2.093 . S
Co182 O186 2.001 1_655 S
Co182 O192 2.020 1_655 S
Co182 O194 2.138 . S
Co182 O195 2.243 1_655 S
O183 Co182 2.220 . S
O183 C190 1.247 . S
O184 Co182 2.093 . S
O184 C190 1.261 . S
C185 O194 1.247 1_455 S
C185 O195 1.272 . S
O186 Co182 2.001 1_455 S
O186 C191 1.259 . S
Co187 O188 2.061 . S
Co187 O193 2.052 . S
Co187 O195 2.135 . S
O188 Co187 2.061 . S
O188 C191 1.235 . S
C189 O192 1.238 . S
C189 O193 1.241 . S
C190 O183 1.247 . S
C190 O184 1.261 . S
C191 O186 1.259 . S
C191 O188 1.235 . S
O192 Co182 2.020 1_455 S
O192 C189 1.238 . S
O193 Co187 2.052 . S
O193 C189 1.241 . S
O194 Co182 2.138 . S
O194 C185 1.247 1_655 S
O195 Co182 2.243 1_455 S
O195 C185 1.272 . S
O195 Co187 2.135 . S
Co196 O197 2.216 . S
Co196 O198 2.091 . S
Co196 O200 2.004 . S
Co196 O206 2.021 . S
Co196 O208 2.137 . S
Co196 O209 2.244 . S
O197 Co196 2.216 . S
O197 C204 1.247 . S
O198 Co196 2.091 . S
O198 C204 1.261 . S
C199 O208 1.247 . S
C199 O209 1.272 . S
O200 Co196 2.004 . S
O200 C205 1.259 . S
Co201 O202 2.061 . S
Co201 O207 2.052 . S
Co201 O209 2.135 . S
O202 Co201 2.061 . S
O202 C205 1.235 . S
C203 O206 1.238 . S
C203 O207 1.241 . S
C204 O197 1.247 . S
C204 O198 1.261 . S
C205 O200 1.259 . S
C205 O202 1.235 . S
O206 Co196 2.021 . S
O206 C203 1.238 . S
O207 Co201 2.052 . S
O207 C203 1.241 . S
O208 Co196 2.137 . S
O208 C199 1.247 . S
O209 Co196 2.244 . S
O209 C199 1.272 . S
O209 Co201 2.135 . S
Co210 O211 2.216 . S
Co210 O212 2.091 . S
Co210 O214 2.004 . S
Co210 O220 2.021 . S
Co210 O222 2.137 . S
Co210 O223 2.244 . S
O211 Co210 2.216 . S
O211 C218 1.247 . S
O212 Co210 2.091 . S
O212 C218 1.261 . S
C213 O222 1.247 . S
C213 O223 1.272 . S
O214 Co210 2.004 . S
O214 C219 1.259 . S
Co215 O216 2.061 . S
Co215 O221 2.052 . S
Co215 O223 2.135 . S
O216 Co215 2.061 . S
O216 C219 1.235 . S
C217 O220 1.238 . S
C217 O221 1.241 . S
C218 O211 1.247 . S
C218 O212 1.261 . S
C219 O214 1.259 . S
C219 O216 1.235 . S
O220 Co210 2.021 . S
O220 C217 1.238 . S
O221 Co215 2.052 . S
O221 C217 1.241 . S
O222 Co210 2.137 . S
O222 C213 1.247 . S
O223 Co210 2.244 . S
O223 C213 1.272 . S
O223 Co215 2.135 . S
Co224 O225 2.216 . S
Co224 O226 2.091 . S
Co224 O228 2.004 1_545 S
Co224 O234 2.021 . S
Co224 O236 2.137 . S
Co224 O237 2.244 . S
O225 Co224 2.216 . S
O225 C232 1.247 . S
O226 Co224 2.091 . S
O226 C232 1.261 . S
C227 O236 1.247 . S
C227 O237 1.272 . S
O228 Co224 2.004 1_565 S
O228 C233 1.259 . S
Co229 O230 2.061 . S
Co229 O235 2.052 . S
Co229 O237 2.135 1_565 S
O230 Co229 2.061 . S
O230 C233 1.235 . S
C231 O234 1.238 . S
C231 O235 1.241 1_545 S
C232 O225 1.247 . S
C232 O226 1.261 . S
C233 O228 1.259 . S
C233 O230 1.235 . S
O234 Co224 2.021 . S
O234 C231 1.238 . S
O235 Co229 2.052 . S
O235 C231 1.241 1_565 S
O236 Co224 2.137 . S
O236 C227 1.247 . S
O237 Co224 2.244 . S
O237 C227 1.272 . S
O237 Co229 2.135 1_545 S
Co238 O239 2.216 . S
Co238 O240 2.091 . S
Co238 O242 2.004 . S
Co238 O248 2.021 . S
Co238 O250 2.137 . S
Co238 O251 2.244 . S
O239 Co238 2.216 . S
O239 C246 1.247 . S
O240 Co238 2.091 . S
O240 C246 1.261 . S
C241 O250 1.247 . S
C241 O251 1.272 . S
O242 Co238 2.004 . S
O242 C247 1.259 . S
Co243 O244 2.061 . S
Co243 O249 2.052 . S
Co243 O251 2.135 . S
O244 Co243 2.061 . S
O244 C247 1.235 . S
C245 O248 1.238 . S
C245 O249 1.241 . S
C246 O239 1.247 . S
C246 O240 1.261 . S
C247 O242 1.259 . S
C247 O244 1.235 . S
O248 Co238 2.021 . S
O248 C245 1.238 . S
O249 Co243 2.052 . S
O249 C245 1.241 . S
O250 Co238 2.137 . S
O250 C241 1.247 . S
O251 Co238 2.244 . S
O251 C241 1.272 . S
O251 Co243 2.135 . S
Co252 O253 2.216 . S
Co252 O254 2.091 . S
Co252 O256 2.004 1_565 S
Co252 O262 2.021 . S
Co252 O264 2.137 . S
Co252 O265 2.244 1_565 S
O253 Co252 2.216 . S
O253 C260 1.247 . S
O254 Co252 2.091 . S
O254 C260 1.261 . S
C255 O264 1.247 1_545 S
C255 O265 1.272 . S
O256 Co252 2.004 1_545 S
O256 C261 1.259 . S
Co257 O258 2.061 . S
Co257 O263 2.052 . S
Co257 O265 2.135 . S
O258 Co257 2.061 . S
O258 C261 1.235 . S
C259 O262 1.238 1_545 S
C259 O263 1.241 . S
C260 O253 1.247 . S
C260 O254 1.261 . S
C261 O256 1.259 . S
C261 O258 1.235 . S
O262 Co252 2.021 . S
O262 C259 1.238 1_565 S
O263 Co257 2.052 . S
O263 C259 1.241 . S
O264 Co252 2.137 . S
O264 C255 1.247 1_565 S
O265 Co252 2.244 1_545 S
O265 C255 1.272 . S
O265 Co257 2.135 . S
Co266 O267 2.216 . S
Co266 O268 2.091 1_556 S
Co266 O270 2.004 . S
Co266 O276 2.021 1_556 S
Co266 O278 2.137 . S
Co266 O279 2.244 . S
O267 Co266 2.216 . S
O267 C274 1.247 1_556 S
O268 Co266 2.091 1_554 S
O268 C274 1.261 . S
C269 O278 1.247 . S
C269 O279 1.272 . S
O270 Co266 2.004 . S
O270 C275 1.259 1_556 S
Co271 O272 2.064 . S
Co271 O277 2.080 . S
Co271 O279 2.116 1_554 S
O272 Co271 2.064 . S
O272 C275 1.235 . S
C273 O276 1.238 . S
C273 O277 1.241 . S
C274 O267 1.247 1_554 S
C274 O268 1.261 . S
C275 O270 1.259 1_554 S
C275 O272 1.235 . S
O276 Co266 2.021 1_554 S
O276 C273 1.238 . S
O277 Co271 2.080 . S
O277 C273 1.241 . S
O278 Co266 2.137 . S
O278 C269 1.247 . S
O279 Co266 2.244 . S
O279 C269 1.272 . S
O279 Co271 2.116 1_556 S
Co280 O281 2.216 . S
Co280 O282 2.091 1_556 S
Co280 O284 2.004 . S
Co280 O290 2.021 1_556 S
Co280 O292 2.137 . S
Co280 O293 2.244 . S
O281 Co280 2.216 . S
O281 C288 1.247 1_556 S
O282 Co280 2.091 1_554 S
O282 C288 1.261 . S
C283 O292 1.247 . S
C283 O293 1.272 . S
O284 Co280 2.004 . S
O284 C289 1.255 1_556 S
Co285 O286 2.062 . S
Co285 O291 2.054 . S
Co285 O293 2.133 1_554 S
O286 Co285 2.062 . S
O286 C289 1.238 . S
C287 O290 1.238 . S
C287 O291 1.241 . S
C288 O281 1.247 1_554 S
C288 O282 1.261 . S
C289 O284 1.255 1_554 S
C289 O286 1.238 . S
O290 Co280 2.021 1_554 S
O290 C287 1.238 . S
O291 Co285 2.054 . S
O291 C287 1.241 . S
O292 Co280 2.137 . S
O292 C283 1.247 . S
O293 Co280 2.244 . S
O293 C283 1.272 . S
O293 Co285 2.133 1_556 S
Co294 O295 2.216 . S
Co294 O296 2.091 . S
Co294 O298 2.004 . S
Co294 O304 2.021 . S
Co294 O306 2.137 . S
Co294 O307 2.244 . S
O295 Co294 2.216 . S
O295 C302 1.247 . S
O296 Co294 2.091 . S
O296 C302 1.261 . S
C297 O306 1.247 . S
C297 O307 1.272 . S
O298 Co294 2.004 . S
O298 C303 1.259 . S
Co299 O300 2.061 . S
Co299 O305 2.052 . S
Co299 O307 2.135 . S
O300 Co299 2.061 . S
O300 C303 1.235 . S
C301 O304 1.238 . S
C301 O305 1.241 . S
C302 O295 1.247 . S
C302 O296 1.261 . S
C303 O298 1.259 . S
C303 O300 1.235 . S
O304 Co294 2.021 . S
O304 C301 1.238 . S
O305 Co299 2.052 . S
O305 C301 1.241 . S
O306 Co294 2.137 . S
O306 C297 1.247 . S
O307 Co294 2.244 . S
O307 C297 1.272 . S
O307 Co299 2.135 . S
Co308 O309 2.216 . S
Co308 O310 2.091 . S
Co308 O312 2.004 . S
Co308 O318 2.021 . S
Co308 O320 2.137 . S
Co308 O321 2.244 . S
O309 Co308 2.216 . S
O309 C316 1.247 . S
O310 Co308 2.091 . S
O310 C316 1.261 . S
C311 O320 1.247 . S
C311 O321 1.272 . S
O312 Co308 2.004 . S
O312 C317 1.259 . S
Co313 O314 2.061 . S
Co313 O319 2.052 . S
Co313 O321 2.135 . S
O314 Co313 2.061 . S
O314 C317 1.235 . S
C315 O318 1.238 . S
C315 O319 1.241 . S
C316 O309 1.247 . S
C316 O310 1.261 . S
C317 O312 1.259 . S
C317 O314 1.235 . S
O318 Co308 2.021 . S
O318 C315 1.238 . S
O319 Co313 2.052 . S
O319 C315 1.241 . S
O320 Co308 2.137 . S
O320 C311 1.247 . S
O321 Co308 2.244 . S
O321 C311 1.272 . S
O321 Co313 2.135 . S
Co322 O323 2.216 . S
Co322 O324 2.091 . S
Co322 O326 2.004 . S
Co322 O332 2.021 . S
Co322 O334 2.137 . S
Co322 O335 2.244 . S
O323 Co322 2.216 . S
O323 C330 1.247 . S
O324 Co322 2.091 . S
O324 C330 1.261 . S
C325 O334 1.247 . S
C325 O335 1.272 . S
O326 Co322 2.004 . S
O326 C331 1.259 . S
Co327 O328 2.061 . S
Co327 O333 2.052 . S
Co327 O335 2.135 . S
O328 Co327 2.061 . S
O328 C331 1.235 . S
C329 O332 1.238 . S
C329 O333 1.241 . S
C330 O323 1.247 . S
C330 O324 1.261 . S
C331 O326 1.259 . S
C331 O328 1.235 . S
O332 Co322 2.021 . S
O332 C329 1.238 . S
O333 Co327 2.052 . S
O333 C329 1.241 . S
O334 Co322 2.137 . S
O334 C325 1.247 . S
O335 Co322 2.244 . S
O335 C325 1.272 . S
O335 Co327 2.135 . S
O336 Zn337 1.953 1_554 S
O336 C352 1.225 1_455 S
Zn337 O336 1.953 1_556 S
Zn337 O338 1.955 1_556 S
Zn337 O344 1.919 . S
Zn337 O349 1.924 1_455 S
O338 Zn337 1.955 1_554 S
O338 Zn339 1.937 1_545 S
O338 Zn340 1.939 1_455 S
O338 Zn341 1.936 1_444 S
Zn339 O338 1.937 1_565 S
Zn339 O342 1.933 . S
Zn339 O345 1.941 1_565 S
Zn339 O346 1.965 . S
Zn340 O338 1.939 1_655 S
Zn340 O347 1.938 . S
Zn340 O348 1.906 1_545 S
Zn340 O358 1.953 . S
Zn341 O338 1.936 1_666 S
Zn341 O343 1.932 . S
Zn341 O350 1.977 1_556 S
Zn341 O351 1.910 1_565 S
O342 Zn339 1.933 . S
O342 C353 1.226 1_554 S
O343 Zn341 1.932 . S
O343 C353 1.307 1_655 S
O344 Zn337 1.919 . S
O344 C355 1.260 . S
O345 Zn339 1.941 1_545 S
O345 C355 1.265 1_554 S
O346 Zn339 1.965 . S
O346 C354 1.303 . S
O347 Zn340 1.938 . S
O347 C354 1.247 1_645 S
O348 Zn340 1.906 1_565 S
O348 C356 1.304 . S
O349 Zn337 1.924 1_655 S
O349 C357 1.311 . S
O350 Zn341 1.977 1_554 S
O350 C356 1.272 . S
O351 Zn341 1.910 1_545 S
O351 C357 1.231 . S
C352 O336 1.225 1_655 S
C352 O358 1.298 . S
C353 O342 1.226 1_556 S
C353 O343 1.307 1_455 S
C354 O346 1.303 . S
C354 O347 1.247 1_465 S
C355 O344 1.260 . S
C355 O345 1.265 1_556 S
C356 O348 1.304 . S
C356 O350 1.272 . S
C357 O349 1.311 . S
C357 O351 1.231 . S
O358 Zn340 1.953 . S
O358 C352 1.298 . S
O359 Zn360 1.953 . S
O359 C375 1.225 . S
Zn360 O359 1.953 . S
Zn360 O361 1.949 . S
Zn360 O367 1.919 . S
Zn360 O372 1.924 . S
O361 Zn360 1.949 . S
O361 Zn362 1.923 . S
O361 Zn363 1.950 . S
O361 Zn364 1.945 . S
Zn362 O361 1.923 . S
Zn362 O365 1.933 . S
Zn362 O368 1.941 . S
Zn362 O369 1.965 . S
Zn363 O361 1.950 . S
Zn363 O370 1.938 . S
Zn363 O371 1.906 . S
Zn363 O381 1.953 . S
Zn364 O361 1.945 . S
Zn364 O366 1.932 . S
Zn364 O373 1.977 . S
Zn364 O374 1.910 . S
O365 Zn362 1.933 . S
O365 C376 1.226 . S
O366 Zn364 1.932 . S
O366 C376 1.307 . S
O367 Zn360 1.919 . S
O367 C378 1.253 . S
O368 Zn362 1.941 . S
O368 C378 1.283 . S
O369 Zn362 1.965 . S
O369 C377 1.303 . S
O370 Zn363 1.938 . S
O370 C377 1.247 . S
O371 Zn363 1.906 . S
O371 C379 1.304 . S
O372 Zn360 1.924 . S
O372 C380 1.311 . S
O373 Zn364 1.977 . S
O373 C379 1.272 . S
O374 Zn364 1.910 . S
O374 C380 1.231 . S
C375 O359 1.225 . S
C375 O381 1.298 . S
C376 O365 1.226 . S
C376 O366 1.307 . S
C377 O369 1.303 . S
C377 O370 1.247 . S
C378 O367 1.253 . S
C378 O368 1.283 . S
C379 O371 1.304 . S
C379 O373 1.272 . S
C380 O372 1.311 . S
C380 O374 1.231 . S
O381 Zn363 1.953 . S
O381 C375 1.298 . S
O382 Zn383 1.953 . S
O382 C398 1.225 . S
Zn383 O382 1.953 . S
Zn383 O384 1.949 1_565 S
Zn383 O390 1.919 . S
Zn383 O395 1.924 . S
O384 Zn383 1.949 1_545 S
O384 Zn385 1.923 . S
O384 Zn386 1.950 . S
O384 Zn387 1.945 . S
Zn385 O384 1.923 . S
Zn385 O388 1.933 . S
Zn385 O391 1.941 . S
Zn385 O392 1.965 . S
Zn386 O384 1.950 . S
Zn386 O393 1.938 . S
Zn386 O394 1.906 . S
Zn386 O404 1.953 1_545 S
Zn387 O384 1.945 . S
Zn387 O389 1.932 . S
Zn387 O396 1.977 . S
Zn387 O397 1.910 . S
O388 Zn385 1.933 . S
O388 C399 1.226 . S
O389 Zn387 1.932 . S
O389 C399 1.307 . S
O390 Zn383 1.919 . S
O390 C401 1.253 . S
O391 Zn385 1.941 . S
O391 C401 1.283 1_545 S
O392 Zn385 1.965 . S
O392 C400 1.303 . S
O393 Zn386 1.938 . S
O393 C400 1.247 . S
O394 Zn386 1.906 . S
O394 C402 1.304 . S
O395 Zn383 1.924 . S
O395 C403 1.311 . S
O396 Zn387 1.977 . S
O396 C402 1.272 . S
O397 Zn387 1.910 . S
O397 C403 1.231 1_545 S
C398 O382 1.225 . S
C398 O404 1.298 . S
C399 O388 1.226 . S
C399 O389 1.307 . S
C400 O392 1.303 . S
C400 O393 1.247 . S
C401 O390 1.253 . S
C401 O391 1.283 1_565 S
C402 O394 1.304 . S
C402 O396 1.272 . S
C403 O395 1.311 . S
C403 O397 1.231 1_565 S
O404 Zn386 1.953 1_565 S
O404 C398 1.298 . S
O405 Zn406 1.953 . S
O405 C421 1.225 . S
Zn406 O405 1.953 . S
Zn406 O407 1.949 . S
Zn406 O413 1.919 . S
Zn406 O418 1.924 . S
O407 Zn406 1.949 . S
O407 Zn408 1.923 . S
O407 Zn409 1.950 . S
O407 Zn410 1.945 . S
Zn408 O407 1.923 . S
Zn408 O411 1.933 . S
Zn408 O414 1.941 . S
Zn408 O415 1.965 . S
Zn409 O407 1.950 . S
Zn409 O416 1.938 . S
Zn409 O417 1.906 . S
Zn409 O427 1.953 . S
Zn410 O407 1.945 . S
Zn410 O412 1.932 . S
Zn410 O419 1.977 . S
Zn410 O420 1.910 . S
O411 Zn408 1.933 . S
O411 C422 1.226 . S
O412 Zn410 1.932 . S
O412 C422 1.307 . S
O413 Zn406 1.919 . S
O413 C424 1.253 . S
O414 Zn408 1.941 . S
O414 C424 1.283 . S
O415 Zn408 1.965 . S
O415 C423 1.303 . S
O416 Zn409 1.938 . S
O416 C423 1.247 . S
O417 Zn409 1.906 . S
O417 C425 1.304 . S
O418 Zn406 1.924 . S
O418 C426 1.311 . S
O419 Zn410 1.977 . S
O419 C425 1.272 . S
O420 Zn410 1.910 . S
O420 C426 1.231 . S
C421 O405 1.225 . S
C421 O427 1.298 . S
C422 O411 1.226 . S
C422 O412 1.307 . S
C423 O415 1.303 . S
C423 O416 1.247 . S
C424 O413 1.253 . S
C424 O414 1.283 . S
C425 O417 1.304 . S
C425 O419 1.272 . S
C426 O418 1.311 . S
C426 O420 1.231 . S
O427 Zn409 1.953 . S
O427 C421 1.298 . S
O428 Zn429 1.953 1_445 S
O428 C444 1.225 . S
Zn429 O428 1.953 1_665 S
Zn429 O430 1.949 1_665 S
Zn429 O436 1.919 . S
Zn429 O441 1.924 1_565 S
O430 Zn429 1.949 1_445 S
O430 Zn431 1.923 1_545 S
O430 Zn432 1.950 . S
O430 Zn433 1.945 1_455 S
Zn431 O430 1.923 1_565 S
Zn431 O434 1.933 . S
Zn431 O437 1.941 . S
Zn431 O438 1.965 . S
Zn432 O430 1.950 . S
Zn432 O439 1.938 . S
Zn432 O440 1.906 . S
Zn432 O450 1.953 . S
Zn433 O430 1.945 1_655 S
Zn433 O435 1.932 . S
Zn433 O442 1.977 . S
Zn433 O443 1.910 . S
O434 Zn431 1.933 . S
O434 C445 1.226 1_455 S
O435 Zn433 1.932 . S
O435 C445 1.307 1_545 S
O436 Zn429 1.919 . S
O436 C447 1.253 . S
O437 Zn431 1.941 . S
O437 C447 1.283 1_455 S
O438 Zn431 1.965 . S
O438 C446 1.303 . S
O439 Zn432 1.938 . S
O439 C446 1.247 1_545 S
O440 Zn432 1.906 . S
O440 C448 1.304 . S
O441 Zn429 1.924 1_545 S
O441 C449 1.311 . S
O442 Zn433 1.977 . S
O442 C448 1.272 1_655 S
O443 Zn433 1.910 . S
O443 C449 1.231 . S
C444 O428 1.225 . S
C444 O450 1.298 . S
C445 O434 1.226 1_655 S
C445 O435 1.307 1_565 S
C446 O438 1.303 . S
C446 O439 1.247 1_565 S
C447 O436 1.253 . S
C447 O437 1.283 1_655 S
C448 O440 1.304 . S
C448 O442 1.272 1_455 S
C449 O441 1.311 . S
C449 O443 1.231 . S
O450 Zn432 1.953 . S
O450 C444 1.298 . S
O451 Zn452 1.953 . S
O451 C467 1.225 . S
Zn452 O451 1.953 . S
Zn452 O453 1.949 . S
Zn452 O459 1.919 . S
Zn452 O464 1.924 . S
O453 Zn452 1.949 . S
O453 Zn454 1.923 . S
O453 Zn455 1.950 . S
O453 Zn456 1.945 . S
Zn454 O453 1.923 . S
Zn454 O457 1.933 . S
Zn454 O460 1.941 . S
Zn454 O461 1.965 . S
Zn455 O453 1.950 . S
Zn455 O462 1.938 . S
Zn455 O463 1.906 . S
Zn455 O473 1.953 . S
Zn456 O453 1.945 . S
Zn456 O458 1.932 . S
Zn456 O465 1.977 . S
Zn456 O466 1.910 . S
O457 Zn454 1.933 . S
O457 C468 1.226 . S
O458 Zn456 1.932 . S
O458 C468 1.307 . S
O459 Zn452 1.919 . S
O459 C470 1.253 . S
O460 Zn454 1.941 . S
O460 C470 1.283 . S
O461 Zn454 1.965 . S
O461 C469 1.303 . S
O462 Zn455 1.938 . S
O462 C469 1.247 . S
O463 Zn455 1.906 . S
O463 C471 1.304 . S
O464 Zn452 1.924 . S
O464 C472 1.311 . S
O465 Zn456 1.977 . S
O465 C471 1.272 . S
O466 Zn456 1.910 . S
O466 C472 1.231 . S
C467 O451 1.225 . S
C467 O473 1.298 . S
C468 O457 1.226 . S
C468 O458 1.307 . S
C469 O461 1.303 . S
C469 O462 1.247 . S
C470 O459 1.253 . S
C470 O460 1.283 . S
C471 O463 1.304 . S
C471 O465 1.272 . S
C472 O464 1.311 . S
C472 O466 1.231 . S
O473 Zn455 1.953 . S
O473 C467 1.298 . S
O474 Zn475 1.953 . S
O474 C490 1.225 . S
Zn475 O474 1.953 . S
Zn475 O476 1.949 . S
Zn475 O482 1.919 1_545 S
Zn475 O487 1.924 . S
O476 Zn475 1.949 . S
O476 Zn477 1.923 1_544 S
O476 Zn478 1.950 . S
O476 Zn479 1.945 1_554 S
Zn477 O476 1.923 1_566 S
Zn477 O480 1.933 . S
Zn477 O483 1.941 . S
Zn477 O484 1.965 1_556 S
Zn478 O476 1.950 . S
Zn478 O485 1.938 1_545 S
Zn478 O486 1.906 . S
Zn478 O496 1.953 . S
Zn479 O476 1.945 1_556 S
Zn479 O481 1.932 . S
Zn479 O488 1.977 1_556 S
Zn479 O489 1.910 . S
O480 Zn477 1.933 . S
O480 C491 1.226 . S
O481 Zn479 1.932 . S
O481 C491 1.307 1_545 S
O482 Zn475 1.919 1_565 S
O482 C493 1.253 1_554 S
O483 Zn477 1.941 . S
O483 C493 1.283 . S
O484 Zn477 1.965 1_554 S
O484 C492 1.303 . S
O485 Zn478 1.938 1_565 S
O485 C492 1.247 . S
O486 Zn478 1.906 . S
O486 C494 1.304 . S
O487 Zn475 1.924 . S
O487 C495 1.311 1_554 S
O488 Zn479 1.977 1_554 S
O488 C494 1.272 . S
O489 Zn479 1.910 . S
O489 C495 1.231 . S
C490 O474 1.225 . S
C490 O496 1.298 . S
C491 O480 1.226 . S
C491 O481 1.307 1_565 S
C492 O484 1.303 . S
C492 O485 1.247 . S
C493 O482 1.253 1_556 S
C493 O483 1.283 . S
C494 O486 1.304 . S
C494 O488 1.272 . S
C495 O487 1.311 1_556 S
C495 O489 1.231 . S
O496 Zn478 1.953 . S
O496 C490 1.298 . S
O497 Zn498 1.953 . S
O497 C513 1.225 . S
Zn498 O497 1.953 . S
Zn498 O499 1.949 . S
Zn498 O505 1.919 . S
Zn498 O510 1.924 . S
O499 Zn498 1.949 . S
O499 Zn500 1.923 . S
O499 Zn501 1.950 . S
O499 Zn502 1.945 . S
Zn500 O499 1.923 . S
Zn500 O503 1.933 . S
Zn500 O506 1.941 . S
Zn500 O507 1.965 . S
Zn501 O499 1.950 . S
Zn501 O508 1.938 . S
Zn501 O509 1.906 . S
Zn501 O519 1.953 . S
Zn502 O499 1.945 . S
Zn502 O504 1.932 . S
Zn502 O511 1.977 . S
Zn502 O512 1.910 . S
O503 Zn500 1.933 . S
O503 C514 1.226 . S
O504 Zn502 1.932 . S
O504 C514 1.307 . S
O505 Zn498 1.919 . S
O505 C516 1.253 . S
O506 Zn500 1.941 . S
O506 C516 1.283 . S
O507 Zn500 1.965 . S
O507 C515 1.303 . S
O508 Zn501 1.938 . S
O508 C515 1.247 . S
O509 Zn501 1.906 . S
O509 C517 1.304 . S
O510 Zn498 1.924 . S
O510 C518 1.311 . S
O511 Zn502 1.977 . S
O511 C517 1.272 . S
O512 Zn502 1.910 . S
O512 C518 1.231 . S
C513 O497 1.225 . S
C513 O519 1.298 . S
C514 O503 1.226 . S
C514 O504 1.307 . S
C515 O507 1.303 . S
C515 O508 1.247 . S
C516 O505 1.253 . S
C516 O506 1.283 . S
C517 O509 1.304 . S
C517 O511 1.272 . S
C518 O510 1.311 . S
C518 O512 1.231 . S
O519 Zn501 1.953 . S
O519 C513 1.298 . S
O520 Zn521 1.953 . S
O520 C536 1.225 . S
Zn521 O520 1.953 . S
Zn521 O522 1.949 1_556 S
Zn521 O528 1.919 . S
Zn521 O533 1.924 . S
O522 Zn521 1.949 1_554 S
O522 Zn523 1.923 . S
O522 Zn524 1.950 . S
O522 Zn525 1.945 . S
Zn523 O522 1.923 . S
Zn523 O526 1.933 . S
Zn523 O529 1.941 . S
Zn523 O530 1.965 . S
Zn524 O522 1.950 . S
Zn524 O531 1.938 . S
Zn524 O532 1.906 . S
Zn524 O542 1.953 1_554 S
Zn525 O522 1.945 . S
Zn525 O527 1.932 . S
Zn525 O534 1.977 . S
Zn525 O535 1.910 . S
O526 Zn523 1.933 . S
O526 C537 1.226 . S
O527 Zn525 1.932 . S
O527 C537 1.307 . S
O528 Zn521 1.919 . S
O528 C539 1.253 . S
O529 Zn523 1.941 . S
O529 C539 1.283 1_554 S
O530 Zn523 1.965 . S
O530 C538 1.303 . S
O531 Zn524 1.938 . S
O531 C538 1.247 . S
O532 Zn524 1.906 . S
O532 C540 1.304 . S
O533 Zn521 1.924 . S
O533 C541 1.311 . S
O534 Zn525 1.977 . S
O534 C540 1.272 . S
O535 Zn525 1.910 . S
O535 C541 1.231 1_554 S
C536 O520 1.225 . S
C536 O542 1.298 . S
C537 O526 1.226 . S
C537 O527 1.307 . S
C538 O530 1.303 . S
C538 O531 1.247 . S
C539 O528 1.253 . S
C539 O529 1.283 1_556 S
C540 O532 1.304 . S
C540 O534 1.272 . S
C541 O533 1.311 . S
C541 O535 1.231 1_556 S
O542 Zn524 1.953 1_556 S
O542 C536 1.298 . S
O543 Zn544 1.953 . S
O543 C559 1.225 . S
Zn544 O543 1.953 . S
Zn544 O545 1.949 . S
Zn544 O551 1.919 . S
Zn544 O556 1.924 . S
O545 Zn544 1.949 . S
O545 Zn546 1.923 . S
O545 Zn547 1.950 . S
O545 Zn548 1.945 . S
Zn546 O545 1.923 . S
Zn546 O549 1.933 . S
Zn546 O552 1.941 . S
Zn546 O553 1.965 . S
Zn547 O545 1.950 . S
Zn547 O554 1.938 . S
Zn547 O555 1.906 . S
Zn547 O565 1.953 . S
Zn548 O545 1.945 . S
Zn548 O550 1.932 . S
Zn548 O557 1.977 . S
Zn548 O558 1.910 . S
O549 Zn546 1.933 . S
O549 C560 1.226 . S
O550 Zn548 1.932 . S
O550 C560 1.307 . S
O551 Zn544 1.919 . S
O551 C562 1.253 . S
O552 Zn546 1.941 . S
O552 C562 1.283 . S
O553 Zn546 1.965 . S
O553 C561 1.303 . S
O554 Zn547 1.938 . S
O554 C561 1.247 . S
O555 Zn547 1.906 . S
O555 C563 1.304 . S
O556 Zn544 1.924 . S
O556 C564 1.311 . S
O557 Zn548 1.977 . S
O557 C563 1.272 . S
O558 Zn548 1.910 . S
O558 C564 1.231 . S
C559 O543 1.225 . S
C559 O565 1.298 . S
C560 O549 1.226 . S
C560 O550 1.307 . S
C561 O553 1.303 . S
C561 O554 1.247 . S
C562 O551 1.253 . S
C562 O552 1.283 . S
C563 O555 1.304 . S
C563 O557 1.272 . S
C564 O556 1.311 . S
C564 O558 1.231 . S
O565 Zn547 1.953 . S
O565 C559 1.298 . S
O566 Zn567 1.953 . S
O566 C582 1.225 . S
Zn567 O566 1.953 . S
Zn567 O568 1.965 . S
Zn567 O574 1.919 . S
Zn567 O579 1.924 . S
O568 Zn567 1.965 . S
O568 Zn569 1.924 . S
O568 Zn570 1.941 1_455 S
O568 Zn571 1.937 1_455 S
Zn569 O568 1.924 . S
Zn569 O572 1.933 1_455 S
Zn569 O575 1.941 . S
Zn569 O576 1.965 1_455 S
Zn570 O568 1.941 1_655 S
Zn570 O577 1.938 . S
Zn570 O578 1.906 . S
Zn570 O588 1.953 1_655 S
Zn571 O568 1.937 1_655 S
Zn571 O573 1.932 . S
Zn571 O580 1.977 . S
Zn571 O581 1.910 1_655 S
O572 Zn569 1.933 1_655 S
O572 C583 1.226 . S
O573 Zn571 1.932 . S
O573 C583 1.307 . S
O574 Zn567 1.919 . S
O574 C585 1.253 . S
O575 Zn569 1.941 . S
O575 C585 1.283 . S
O576 Zn569 1.965 1_655 S
O576 C584 1.303 . S
O577 Zn570 1.938 . S
O577 C584 1.247 . S
O578 Zn570 1.906 . S
O578 C586 1.304 . S
O579 Zn567 1.924 . S
O579 C587 1.311 . S
O580 Zn571 1.977 . S
O580 C586 1.272 . S
O581 Zn571 1.910 1_455 S
O581 C587 1.231 . S
C582 O566 1.225 . S
C582 O588 1.298 . S
C583 O572 1.226 . S
C583 O573 1.307 . S
C584 O576 1.303 . S
C584 O577 1.247 . S
C585 O574 1.253 . S
C585 O575 1.283 . S
C586 O578 1.304 . S
C586 O580 1.272 . S
C587 O579 1.311 . S
C587 O581 1.231 . S
O588 Zn570 1.953 1_455 S
O588 C582 1.298 . S
O589 Zn590 1.953 . S
O589 C605 1.225 . S
Zn590 O589 1.953 . S
Zn590 O591 1.949 . S
Zn590 O597 1.919 . S
Zn590 O602 1.924 . S
O591 Zn590 1.949 . S
O591 Zn592 1.923 . S
O591 Zn593 1.950 . S
O591 Zn594 1.945 . S
Zn592 O591 1.923 . S
Zn592 O595 1.933 . S
Zn592 O598 1.941 . S
Zn592 O599 1.965 . S
Zn593 O591 1.950 . S
Zn593 O600 1.938 . S
Zn593 O601 1.906 . S
Zn593 O611 1.953 . S
Zn594 O591 1.945 . S
Zn594 O596 1.932 . S
Zn594 O603 1.977 . S
Zn594 O604 1.910 . S
O595 Zn592 1.933 . S
O595 C606 1.226 . S
O596 Zn594 1.932 . S
O596 C606 1.307 . S
O597 Zn590 1.919 . S
O597 C608 1.253 . S
O598 Zn592 1.941 . S
O598 C608 1.283 . S
O599 Zn592 1.965 . S
O599 C607 1.303 . S
O600 Zn593 1.938 . S
O600 C607 1.247 . S
O601 Zn593 1.906 . S
O601 C609 1.304 . S
O602 Zn590 1.924 . S
O602 C610 1.311 . S
O603 Zn594 1.977 . S
O603 C609 1.272 . S
O604 Zn594 1.910 . S
O604 C610 1.231 . S
C605 O589 1.225 . S
C605 O611 1.298 . S
C606 O595 1.226 . S
C606 O596 1.307 . S
C607 O599 1.303 . S
C607 O600 1.247 . S
C608 O597 1.253 . S
C608 O598 1.283 . S
C609 O601 1.304 . S
C609 O603 1.272 . S
C610 O602 1.311 . S
C610 O604 1.231 . S
O611 Zn593 1.953 . S
O611 C605 1.298 . S
O612 Zn613 1.953 . S
O612 C628 1.225 . S
Zn613 O612 1.953 . S
Zn613 O614 1.949 . S
Zn613 O620 1.919 . S
Zn613 O625 1.924 . S
O614 Zn613 1.949 . S
O614 Zn615 1.923 . S
O614 Zn616 1.950 . S
O614 Zn617 1.945 . S
Zn615 O614 1.923 . S
Zn615 O618 1.933 . S
Zn615 O621 1.941 . S
Zn615 O622 1.965 . S
Zn616 O614 1.950 . S
Zn616 O623 1.938 . S
Zn616 O624 1.906 . S
Zn616 O634 1.953 . S
Zn617 O614 1.945 . S
Zn617 O619 1.932 . S
Zn617 O626 1.977 . S
Zn617 O627 1.910 . S
O618 Zn615 1.933 . S
O618 C629 1.226 . S
O619 Zn617 1.932 . S
O619 C629 1.307 . S
O620 Zn613 1.919 . S
O620 C631 1.253 . S
O621 Zn615 1.941 . S
O621 C631 1.283 . S
O622 Zn615 1.965 . S
O622 C630 1.303 . S
O623 Zn616 1.938 . S
O623 C630 1.247 . S
O624 Zn616 1.906 . S
O624 C632 1.304 . S
O625 Zn613 1.924 . S
O625 C633 1.311 . S
O626 Zn617 1.977 . S
O626 C632 1.272 . S
O627 Zn617 1.910 . S
O627 C633 1.231 . S
C628 O612 1.225 . S
C628 O634 1.298 . S
C629 O618 1.226 . S
C629 O619 1.307 . S
C630 O622 1.303 . S
C630 O623 1.247 . S
C631 O620 1.253 . S
C631 O621 1.283 . S
C632 O624 1.304 . S
C632 O626 1.272 . S
C633 O625 1.311 . S
C633 O627 1.231 . S
O634 Zn616 1.953 . S
O634 C628 1.298 . S
O635 Zn636 1.953 . S
O635 C651 1.225 . S
Zn636 O635 1.953 . S
Zn636 O637 1.949 . S
Zn636 O643 1.919 . S
Zn636 O648 1.924 . S
O637 Zn636 1.949 . S
O637 Zn638 1.923 . S
O637 Zn639 1.950 . S
O637 Zn640 1.945 . S
Zn638 O637 1.923 . S
Zn638 O641 1.933 . S
Zn638 O644 1.941 . S
Zn638 O645 1.965 . S
Zn639 O637 1.950 . S
Zn639 O646 1.938 . S
Zn639 O647 1.906 . S
Zn639 O657 1.953 . S
Zn640 O637 1.945 . S
Zn640 O642 1.932 . S
Zn640 O649 1.977 . S
Zn640 O650 1.910 . S
O641 Zn638 1.933 . S
O641 C652 1.226 . S
O642 Zn640 1.932 . S
O642 C652 1.307 . S
O643 Zn636 1.919 . S
O643 C654 1.253 . S
O644 Zn638 1.941 . S
O644 C654 1.283 . S
O645 Zn638 1.965 . S
O645 C653 1.303 . S
O646 Zn639 1.938 . S
O646 C653 1.247 . S
O647 Zn639 1.906 . S
O647 C655 1.304 . S
O648 Zn636 1.924 . S
O648 C656 1.311 . S
O649 Zn640 1.977 . S
O649 C655 1.272 . S
O650 Zn640 1.910 . S
O650 C656 1.231 . S
C651 O635 1.225 . S
C651 O657 1.298 . S
C652 O641 1.226 . S
C652 O642 1.307 . S
C653 O645 1.303 . S
C653 O646 1.247 . S
C654 O643 1.253 . S
C654 O644 1.283 . S
C655 O647 1.304 . S
C655 O649 1.272 . S
C656 O648 1.311 . S
C656 O650 1.231 . S
O657 Zn639 1.953 . S
O657 C651 1.298 . S
O658 Zn659 1.953 . S
O658 C674 1.225 . S
Zn659 O658 1.953 . S
Zn659 O660 1.949 . S
Zn659 O666 1.919 . S
Zn659 O671 1.924 . S
O660 Zn659 1.949 . S
O660 Zn661 1.923 . S
O660 Zn662 1.950 . S
O660 Zn663 1.945 . S
Zn661 O660 1.923 . S
Zn661 O664 1.933 . S
Zn661 O667 1.941 . S
Zn661 O668 1.965 . S
Zn662 O660 1.950 . S
Zn662 O669 1.938 . S
Zn662 O670 1.906 . S
Zn662 O680 1.953 . S
Zn663 O660 1.945 . S
Zn663 O665 1.932 . S
Zn663 O672 1.977 . S
Zn663 O673 1.910 . S
O664 Zn661 1.933 . S
O664 C675 1.226 . S
O665 Zn663 1.932 . S
O665 C675 1.307 . S
O666 Zn659 1.919 . S
O666 C677 1.253 . S
O667 Zn661 1.941 . S
O667 C677 1.283 . S
O668 Zn661 1.965 . S
O668 C676 1.303 . S
O669 Zn662 1.938 . S
O669 C676 1.247 . S
O670 Zn662 1.906 . S
O670 C678 1.304 . S
O671 Zn659 1.924 . S
O671 C679 1.311 . S
O672 Zn663 1.977 . S
O672 C678 1.272 . S
O673 Zn663 1.910 . S
O673 C679 1.231 . S
C674 O658 1.225 . S
C674 O680 1.298 . S
C675 O664 1.226 . S
C675 O665 1.307 . S
C676 O668 1.303 . S
C676 O669 1.247 . S
C677 O666 1.253 . S
C677 O667 1.283 . S
C678 O670 1.304 . S
C678 O672 1.272 . S
C679 O671 1.311 . S
C679 O673 1.231 . S
O680 Zn662 1.953 . S
O680 C674 1.298 . S
O681 Zn682 1.953 1_454 S
O681 C697 1.225 . S
Zn682 O681 1.953 1_656 S
Zn682 O683 1.949 1_656 S
Zn682 O689 1.919 . S
Zn682 O694 1.924 1_655 S
O683 Zn682 1.949 1_454 S
O683 Zn684 1.923 1_455 S
O683 Zn685 1.950 . S
O683 Zn686 1.945 1_554 S
Zn684 O683 1.923 1_655 S
Zn684 O687 1.933 . S
Zn684 O690 1.941 . S
Zn684 O691 1.965 . S
Zn685 O683 1.950 . S
Zn685 O692 1.938 . S
Zn685 O693 1.906 . S
Zn685 O703 1.953 . S
Zn686 O683 1.945 1_556 S
Zn686 O688 1.932 . S
Zn686 O695 1.977 1_556 S
Zn686 O696 1.910 . S
O687 Zn684 1.933 . S
O687 C698 1.226 1_554 S
O688 Zn686 1.932 . S
O688 C698 1.307 1_455 S
O689 Zn682 1.919 . S
O689 C700 1.253 . S
O690 Zn684 1.941 . S
O690 C700 1.283 1_554 S
O691 Zn684 1.965 . S
O691 C699 1.303 . S
O692 Zn685 1.938 . S
O692 C699 1.247 1_455 S
O693 Zn685 1.906 . S
O693 C701 1.304 . S
O694 Zn682 1.924 1_455 S
O694 C702 1.311 . S
O695 Zn686 1.977 1_554 S
O695 C701 1.272 . S
O696 Zn686 1.910 . S
O696 C702 1.231 . S
C697 O681 1.225 . S
C697 O703 1.298 . S
C698 O687 1.226 1_556 S
C698 O688 1.307 1_655 S
C699 O691 1.303 . S
C699 O692 1.247 1_655 S
C700 O689 1.253 . S
C700 O690 1.283 1_556 S
C701 O693 1.304 . S
C701 O695 1.272 . S
C702 O694 1.311 . S
C702 O696 1.231 . S
O703 Zn685 1.953 . S
O703 C697 1.298 . S
C704 C705 1.382 . S
C704 C706 1.419 . S
C704 H708 0.930 . S
C705 C704 1.382 . S
C705 C714 1.410 1_455 S
C706 C704 1.419 . S
C706 C707 1.363 1_455 S
C706 H709 0.929 . S
C707 C706 1.363 1_655 S
C707 C713 1.428 . S
H708 C704 0.930 . S
H709 C706 0.929 . S
S710 N711 1.613 . S
S710 N712 1.610 . S
N711 S710 1.613 . S
N711 C714 1.350 . S
N712 S710 1.610 . S
N712 C713 1.351 . S
C713 C707 1.428 . S
C713 N712 1.351 . S
C713 C714 1.434 . S
C714 C705 1.410 1_655 S
C714 N711 1.350 . S
C714 C713 1.434 . S
C715 C716 1.369 . S
C715 C717 1.419 . S
C715 H719 0.930 . S
C716 C715 1.369 . S
C716 C725 1.429 . S
C717 C715 1.419 . S
C717 C718 1.363 . S
C717 H720 0.929 . S
C718 C717 1.363 . S
C718 C724 1.428 . S
H719 C715 0.930 . S
H720 C717 0.929 . S
S721 N722 1.613 . S
S721 N723 1.610 . S
N722 S721 1.613 . S
N722 C725 1.350 . S
N723 S721 1.610 . S
N723 C724 1.351 . S
C724 C718 1.428 . S
C724 N723 1.351 . S
C724 C725 1.434 . S
C725 C716 1.429 . S
C725 N722 1.350 . S
C725 C724 1.434 . S
C726 C727 1.369 . S
C726 C728 1.419 . S
C726 H730 0.930 . S
C727 C726 1.369 . S
C727 C736 1.429 . S
C728 C726 1.419 . S
C728 C729 1.363 . S
C728 H731 0.929 . S
C729 C728 1.363 . S
C729 C735 1.428 . S
H730 C726 0.930 . S
H731 C728 0.929 . S
S732 N733 1.613 . S
S732 N734 1.610 . S
N733 S732 1.613 . S
N733 C736 1.350 . S
N734 S732 1.610 . S
N734 C735 1.351 . S
C735 C729 1.428 . S
C735 N734 1.351 . S
C735 C736 1.434 . S
C736 C727 1.429 . S
C736 N733 1.350 . S
C736 C735 1.434 . S
C737 C738 1.369 . S
C737 C739 1.419 . S
C737 H741 0.930 . S
C738 C737 1.369 . S
C738 C747 1.429 . S
C739 C737 1.419 . S
C739 C740 1.363 . S
C739 H742 0.929 . S
C740 C739 1.363 . S
C740 C746 1.428 . S
H741 C737 0.930 . S
H742 C739 0.929 . S
S743 N744 1.613 . S
S743 N745 1.610 . S
N744 S743 1.613 . S
N744 C747 1.350 . S
N745 S743 1.610 . S
N745 C746 1.351 . S
C746 C740 1.428 . S
C746 N745 1.351 . S
C746 C747 1.434 . S
C747 C738 1.429 . S
C747 N744 1.350 . S
C747 C746 1.434 . S
C748 C749 1.337 1_655 S
C748 C750 1.419 . S
C748 H752 0.930 . S
C749 C748 1.337 1_455 S
C749 C758 1.454 . S
C750 C748 1.419 . S
C750 C751 1.363 . S
C750 H753 0.929 . S
C751 C750 1.363 . S
C751 C757 1.428 1_655 S
H752 C748 0.930 . S
H753 C750 0.929 . S
S754 N755 1.613 . S
S754 N756 1.610 . S
N755 S754 1.613 . S
N755 C758 1.350 . S
N756 S754 1.610 . S
N756 C757 1.351 . S
C757 C751 1.428 1_455 S
C757 N756 1.351 . S
C757 C758 1.434 . S
C758 C749 1.454 . S
C758 N755 1.350 . S
C758 C757 1.434 . S
C759 C760 1.369 . S
C759 C761 1.419 . S
C759 H763 0.930 . S
C760 C759 1.369 . S
C760 C769 1.429 . S
C761 C759 1.419 . S
C761 C762 1.363 . S
C761 H764 0.929 . S
C762 C761 1.363 . S
C762 C768 1.428 . S
H763 C759 0.930 . S
H764 C761 0.929 . S
S765 N766 1.613 . S
S765 N767 1.610 . S
N766 S765 1.613 . S
N766 C769 1.350 . S
N767 S765 1.610 . S
N767 C768 1.351 . S
C768 C762 1.428 . S
C768 N767 1.351 . S
C768 C769 1.434 . S
C769 C760 1.429 . S
C769 N766 1.350 . S
C769 C768 1.434 . S
C770 C771 1.369 . S
C770 C772 1.419 . S
C770 H774 0.930 . S
C771 C770 1.369 . S
C771 C780 1.429 . S
C772 C770 1.419 . S
C772 C773 1.363 . S
C772 H775 0.929 1_556 S
C773 C772 1.363 . S
C773 C779 1.428 . S
H774 C770 0.930 . S
H775 C772 0.929 1_554 S
S776 N777 1.613 . S
S776 N778 1.610 . S
N777 S776 1.613 . S
N777 C780 1.350 . S
N778 S776 1.610 . S
N778 C779 1.351 . S
C779 C773 1.428 . S
C779 N778 1.351 . S
C779 C780 1.434 . S
C780 C771 1.429 . S
C780 N777 1.350 . S
C780 C779 1.434 . S
C781 C782 1.369 . S
C781 C783 1.419 . S
C781 H785 0.930 . S
C782 C781 1.369 . S
C782 C791 1.429 . S
C783 C781 1.419 . S
C783 C784 1.363 . S
C783 H786 0.929 . S
C784 C783 1.363 . S
C784 C790 1.428 . S
H785 C781 0.930 . S
H786 C783 0.929 . S
S787 N788 1.613 . S
S787 N789 1.610 . S
N788 S787 1.613 . S
N788 C791 1.350 . S
N789 S787 1.610 . S
N789 C790 1.351 . S
C790 C784 1.428 . S
C790 N789 1.351 . S
C790 C791 1.434 . S
C791 C782 1.429 . S
C791 N788 1.350 . S
C791 C790 1.434 . S
C792 C793 1.369 1_565 S
C792 C794 1.419 . S
C792 H796 0.930 . S
C793 C792 1.369 1_545 S
C793 C802 1.429 . S
C794 C792 1.419 . S
C794 C795 1.363 1_565 S
C794 H797 0.929 . S
C795 C794 1.363 1_545 S
C795 C801 1.428 . S
H796 C792 0.930 . S
H797 C794 0.929 . S
S798 N799 1.613 . S
S798 N800 1.610 . S
N799 S798 1.613 . S
N799 C802 1.350 . S
N800 S798 1.610 . S
N800 C801 1.351 . S
C801 C795 1.428 . S
C801 N800 1.351 . S
C801 C802 1.434 . S
C802 C793 1.429 . S
C802 N799 1.350 . S
C802 C801 1.434 . S
C803 C804 1.369 . S
C803 C805 1.419 . S
C803 H807 0.930 . S
C804 C803 1.369 . S
C804 C813 1.429 . S
C805 C803 1.419 . S
C805 C806 1.363 . S
C805 H808 0.929 . S
C806 C805 1.363 . S
C806 C812 1.428 . S
H807 C803 0.930 . S
H808 C805 0.929 . S
S809 N810 1.613 . S
S809 N811 1.610 . S
N810 S809 1.613 . S
N810 C813 1.350 . S
N811 S809 1.610 . S
N811 C812 1.351 . S
C812 C806 1.428 . S
C812 N811 1.351 . S
C812 C813 1.434 . S
C813 C804 1.429 . S
C813 N810 1.350 . S
C813 C812 1.434 . S
C814 C815 1.369 1_565 S
C814 C816 1.419 . S
C814 H818 0.930 . S
C815 C814 1.369 1_545 S
C815 C824 1.429 . S
C816 C814 1.419 . S
C816 C817 1.363 1_565 S
C816 H819 0.929 . S
C817 C816 1.363 1_545 S
C817 C823 1.428 . S
H818 C814 0.930 . S
H819 C816 0.929 . S
S820 N821 1.613 . S
S820 N822 1.610 . S
N821 S820 1.613 . S
N821 C824 1.350 . S
N822 S820 1.610 . S
N822 C823 1.351 . S
C823 C817 1.428 . S
C823 N822 1.351 . S
C823 C824 1.434 . S
C824 C815 1.429 . S
C824 N821 1.350 . S
C824 C823 1.434 . S
C825 C826 1.369 . S
C825 C827 1.419 . S
C825 H829 0.930 . S
C826 C825 1.369 . S
C826 C835 1.429 . S
C827 C825 1.419 . S
C827 C828 1.363 . S
C827 H830 0.929 . S
C828 C827 1.363 . S
C828 C834 1.428 . S
H829 C825 0.930 . S
H830 C827 0.929 . S
S831 N832 1.613 . S
S831 N833 1.610 . S
N832 S831 1.613 . S
N832 C835 1.350 . S
N833 S831 1.610 . S
N833 C834 1.351 . S
C834 C828 1.428 . S
C834 N833 1.351 . S
C834 C835 1.434 . S
C835 C826 1.429 . S
C835 N832 1.350 . S
C835 C834 1.434 . S
C836 C837 1.369 . S
C836 C838 1.419 . S
C836 H840 0.930 . S
C837 C836 1.369 . S
C837 C846 1.429 . S
C838 C836 1.419 . S
C838 C839 1.363 . S
C838 H841 0.929 . S
C839 C838 1.363 . S
C839 C845 1.428 . S
H840 C836 0.930 . S
H841 C838 0.929 . S
S842 N843 1.613 . S
S842 N844 1.610 . S
N843 S842 1.613 . S
N843 C846 1.350 1_565 S
N844 S842 1.610 . S
N844 C845 1.351 1_565 S
C845 C839 1.428 . S
C845 N844 1.351 1_545 S
C845 C846 1.434 . S
C846 C837 1.429 . S
C846 N843 1.350 1_545 S
C846 C845 1.434 . S
C847 C848 1.369 . S
C847 C849 1.419 . S
C847 H851 0.930 . S
C848 C847 1.369 . S
C848 C857 1.429 . S
C849 C847 1.419 . S
C849 C850 1.363 . S
C849 H852 0.929 . S
C850 C849 1.363 . S
C850 C856 1.428 . S
H851 C847 0.930 . S
H852 C849 0.929 . S
S853 N854 1.613 . S
S853 N855 1.610 . S
N854 S853 1.613 . S
N854 C857 1.350 . S
N855 S853 1.610 . S
N855 C856 1.351 . S
C856 C850 1.428 . S
C856 N855 1.351 . S
C856 C857 1.434 . S
C857 C848 1.429 . S
C857 N854 1.350 . S
C857 C856 1.434 . S
C858 C859 1.369 . S
C858 C860 1.419 . S
C858 H862 0.930 . S
C859 C858 1.369 . S
C859 C868 1.429 1_565 S
C860 C858 1.419 . S
C860 C861 1.363 . S
C860 H863 0.929 . S
C861 C860 1.363 . S
C861 C867 1.428 1_565 S
H862 C858 0.930 . S
H863 C860 0.929 . S
S864 N865 1.613 . S
S864 N866 1.610 . S
N865 S864 1.613 . S
N865 C868 1.350 . S
N866 S864 1.610 . S
N866 C867 1.351 . S
C867 C861 1.428 1_545 S
C867 N866 1.351 . S
C867 C868 1.434 . S
C868 C859 1.429 1_545 S
C868 N865 1.350 . S
C868 C867 1.434 . S
C869 C870 1.369 . S
C869 C871 1.419 . S
C869 H873 0.930 . S
C870 C869 1.369 . S
C870 C879 1.429 . S
C871 C869 1.419 . S
C871 C872 1.363 . S
C871 H874 0.929 . S
C872 C871 1.363 . S
C872 C878 1.428 . S
H873 C869 0.930 . S
H874 C871 0.929 . S
S875 N876 1.613 . S
S875 N877 1.610 . S
N876 S875 1.613 . S
N876 C879 1.350 . S
N877 S875 1.610 . S
N877 C878 1.351 . S
C878 C872 1.428 . S
C878 N877 1.351 . S
C878 C879 1.434 . S
C879 C870 1.429 . S
C879 N876 1.350 . S
C879 C878 1.434 . S
C880 C881 1.369 . S
C880 C882 1.419 1_554 S
C880 H884 0.930 . S
C881 C880 1.369 . S
C881 C890 1.429 . S
C882 C880 1.419 1_556 S
C882 C883 1.363 . S
C882 H885 0.929 . S
C883 C882 1.363 . S
C883 C889 1.428 . S
H884 C880 0.930 . S
H885 C882 0.929 . S
S886 N887 1.613 . S
S886 N888 1.605 1_554 S
N887 S886 1.613 . S
N887 C890 1.350 . S
N888 S886 1.605 1_556 S
N888 C889 1.352 . S
C889 C883 1.428 . S
C889 N888 1.352 . S
C889 C890 1.434 1_556 S
C890 C881 1.429 . S
C890 N887 1.350 . S
C890 C889 1.434 1_554 S
C891 C892 1.369 . S
C891 C893 1.419 . S
C891 H895 0.930 . S
C892 C891 1.369 . S
C892 C901 1.429 1_554 S
C893 C891 1.419 . S
C893 C894 1.363 . S
C893 H896 0.929 . S
C894 C893 1.363 . S
C894 C900 1.428 1_554 S
H895 C891 0.930 . S
H896 C893 0.929 . S
S897 N898 1.613 . S
S897 N899 1.610 . S
N898 S897 1.613 . S
N898 C901 1.350 . S
N899 S897 1.610 . S
N899 C900 1.351 . S
C900 C894 1.428 1_556 S
C900 N899 1.351 . S
C900 C901 1.434 . S
C901 C892 1.429 1_556 S
C901 N898 1.350 . S
C901 C900 1.434 . S
C902 C903 1.369 . S
C902 C904 1.419 . S
C902 H906 0.930 . S
C903 C902 1.369 . S
C903 C912 1.429 . S
C904 C902 1.419 . S
C904 C905 1.363 . S
C904 H907 0.929 . S
C905 C904 1.363 . S
C905 C911 1.428 . S
H906 C902 0.930 . S
H907 C904 0.929 . S
S908 N909 1.613 . S
S908 N910 1.610 . S
N909 S908 1.613 . S
N909 C912 1.350 . S
N910 S908 1.610 . S
N910 C911 1.351 . S
C911 C905 1.428 . S
C911 N910 1.351 . S
C911 C912 1.434 . S
C912 C903 1.429 . S
C912 N909 1.350 . S
C912 C911 1.434 . S
C913 C914 1.369 . S
C913 C915 1.419 . S
C913 H917 0.930 . S
C914 C913 1.369 . S
C914 C923 1.429 . S
C915 C913 1.419 . S
C915 C916 1.363 . S
C915 H918 0.929 . S
C916 C915 1.363 . S
C916 C922 1.428 . S
H917 C913 0.930 . S
H918 C915 0.929 . S
S919 N920 1.613 . S
S919 N921 1.610 . S
N920 S919 1.613 . S
N920 C923 1.350 . S
N921 S919 1.610 . S
N921 C922 1.351 . S
C922 C916 1.428 . S
C922 N921 1.351 . S
C922 C923 1.434 . S
C923 C914 1.429 . S
C923 N920 1.350 . S
C923 C922 1.434 . S
C924 C925 1.369 . S
C924 C926 1.419 . S
C924 H928 0.930 . S
C925 C924 1.369 . S
C925 C934 1.429 . S
C926 C924 1.419 . S
C926 C927 1.363 . S
C926 H929 0.929 . S
C927 C926 1.363 . S
C927 C933 1.428 . S
H928 C924 0.930 . S
H929 C926 0.929 . S
S930 N931 1.613 . S
S930 N932 1.610 . S
N931 S930 1.613 . S
N931 C934 1.350 . S
N932 S930 1.610 . S
N932 C933 1.351 . S
C933 C927 1.428 . S
C933 N932 1.351 . S
C933 C934 1.434 . S
C934 C925 1.429 . S
C934 N931 1.350 . S
C934 C933 1.434 . S
C935 C936 1.369 . S
C935 C937 1.419 . S
C935 H939 0.930 . S
C936 C935 1.369 . S
C936 C945 1.429 . S
C937 C935 1.419 . S
C937 C938 1.363 . S
C937 H940 0.929 . S
C938 C937 1.363 . S
C938 C944 1.428 . S
H939 C935 0.930 . S
H940 C937 0.929 . S
S941 N942 1.613 . S
S941 N943 1.610 . S
N942 S941 1.613 . S
N942 C945 1.350 . S
N943 S941 1.610 . S
N943 C944 1.351 . S
C944 C938 1.428 . S
C944 N943 1.351 . S
C944 C945 1.434 . S
C945 C936 1.429 . S
C945 N942 1.350 . S
C945 C944 1.434 . S
C946 C947 1.369 . S
C946 C948 1.419 . S
C946 H950 0.930 . S
C947 C946 1.369 . S
C947 C956 1.429 . S
C948 C946 1.419 . S
C948 C949 1.363 . S
C948 H951 0.929 . S
C949 C948 1.363 . S
C949 C955 1.428 . S
H950 C946 0.930 . S
H951 C948 0.929 . S
S952 N953 1.613 . S
S952 N954 1.610 . S
N953 S952 1.613 . S
N953 C956 1.350 . S
N954 S952 1.610 . S
N954 C955 1.351 . S
C955 C949 1.428 . S
C955 N954 1.351 . S
C955 C956 1.434 . S
C956 C947 1.429 . S
C956 N953 1.350 . S
C956 C955 1.434 . S
C957 C958 1.369 . S
C957 C959 1.419 . S
C957 H961 0.930 . S
C958 C957 1.369 . S
C958 C967 1.429 . S
C959 C957 1.419 . S
C959 C960 1.363 . S
C959 H962 0.929 . S
C960 C959 1.363 . S
C960 C966 1.428 . S
H961 C957 0.930 . S
H962 C959 0.929 . S
S963 N964 1.613 . S
S963 N965 1.610 . S
N964 S963 1.613 . S
N964 C967 1.350 . S
N965 S963 1.610 . S
N965 C966 1.351 . S
C966 C960 1.428 . S
C966 N965 1.351 . S
C966 C967 1.434 . S
C967 C958 1.429 . S
C967 N964 1.350 . S
C967 C966 1.434 . S
C968 C969 1.369 . S
C968 C970 1.419 . S
C968 H972 0.930 . S
C969 C968 1.369 . S
C969 C978 1.429 1_455 S
C970 C968 1.419 . S
C970 C971 1.363 . S
C970 H973 0.922 1_556 S
C971 C970 1.363 . S
C971 C977 1.428 . S
H972 C968 0.930 . S
H973 C970 0.922 1_554 S
S974 N975 1.613 . S
S974 N976 1.610 . S
N975 S974 1.613 . S
N975 C978 1.350 . S
N976 S974 1.610 . S
N976 C977 1.351 1_655 S
C977 C971 1.428 . S
C977 N976 1.351 1_455 S
C977 C978 1.434 1_455 S
C978 C969 1.429 1_655 S
C978 N975 1.350 . S
C978 C977 1.434 1_655 S
C979 C980 1.369 . S
C979 C981 1.419 . S
C979 H983 0.930 . S
C980 C979 1.369 . S
C980 C989 1.429 . S
C981 C979 1.419 . S
C981 C982 1.363 . S
C981 H984 0.929 . S
C982 C981 1.363 . S
C982 C988 1.428 . S
H983 C979 0.930 . S
H984 C981 0.929 . S
S985 N986 1.613 . S
S985 N987 1.610 . S
N986 S985 1.613 . S
N986 C989 1.350 . S
N987 S985 1.610 . S
N987 C988 1.351 . S
C988 C982 1.428 . S
C988 N987 1.351 . S
C988 C989 1.434 . S
C989 C980 1.429 . S
C989 N986 1.350 . S
C989 C988 1.434 . S
C990 C991 1.369 . S
C990 C992 1.419 . S
C990 H994 0.930 . S
C991 C990 1.369 . S
C991 C1000 1.429 . S
C992 C990 1.419 . S
C992 C993 1.363 . S
C992 H995 0.929 . S
C993 C992 1.363 . S
C993 C999 1.428 . S
H994 C990 0.930 . S
H995 C992 0.929 . S
S996 N997 1.613 . S
S996 N998 1.610 . S
N997 S996 1.613 . S
N997 C1000 1.350 . S
N998 S996 1.610 . S
N998 C999 1.351 . S
C999 C993 1.428 . S
C999 N998 1.351 . S
C999 C1000 1.434 . S
C1000 C991 1.429 . S
C1000 N997 1.350 . S
C1000 C999 1.434 . S
C1001 C1002 1.369 . S
C1001 C1003 1.419 . S
C1001 H1005 0.930 . S
C1002 C1001 1.369 . S
C1002 C1011 1.429 . S
C1003 C1001 1.419 . S
C1003 C1004 1.363 . S
C1003 H1006 0.929 . S
C1004 C1003 1.363 . S
C1004 C1010 1.428 . S
H1005 C1001 0.930 . S
H1006 C1003 0.929 . S
S1007 N1008 1.613 . S
S1007 N1009 1.610 . S
N1008 S1007 1.613 . S
N1008 C1011 1.350 . S
N1009 S1007 1.610 . S
N1009 C1010 1.351 . S
C1010 C1004 1.428 . S
C1010 N1009 1.351 . S
C1010 C1011 1.434 . S
C1011 C1002 1.429 . S
C1011 N1008 1.350 . S
C1011 C1010 1.434 . S
C1012 C1013 1.369 1_655 S
C1012 C1014 1.425 . S
C1012 H1016 0.930 . S
C1013 C1012 1.369 1_455 S
C1013 C1022 1.429 . S
C1014 C1012 1.425 . S
C1014 C1015 1.345 1_655 S
C1014 H1017 0.943 . S
C1015 C1014 1.345 1_455 S
C1015 C1021 1.428 . S
H1016 C1012 0.930 . S
H1017 C1014 0.943 . S
S1018 N1019 1.613 . S
S1018 N1020 1.610 . S
N1019 S1018 1.613 . S
N1019 C1022 1.350 . S
N1020 S1018 1.610 . S
N1020 C1021 1.351 . S
C1021 C1015 1.428 . S
C1021 N1020 1.351 . S
C1021 C1022 1.434 . S
C1022 C1013 1.429 . S
C1022 N1019 1.350 . S
C1022 C1021 1.434 . S
C1023 C1024 1.369 . S
C1023 C1025 1.419 . S
C1023 H1027 0.930 . S
C1024 C1023 1.369 . S
C1024 C1033 1.429 . S
C1025 C1023 1.419 . S
C1025 C1026 1.363 . S
C1025 H1028 0.929 . S
C1026 C1025 1.363 . S
C1026 C1032 1.428 . S
H1027 C1023 0.930 . S
H1028 C1025 0.929 . S
S1029 N1030 1.613 . S
S1029 N1031 1.610 . S
N1030 S1029 1.613 . S
N1030 C1033 1.350 . S
N1031 S1029 1.610 . S
N1031 C1032 1.351 . S
C1032 C1026 1.428 . S
C1032 N1031 1.351 . S
C1032 C1033 1.434 . S
C1033 C1024 1.429 . S
C1033 N1030 1.350 . S
C1033 C1032 1.434 . S
C1034 C1035 1.369 . S
C1034 C1036 1.419 . S
C1034 H1038 0.930 . S
C1035 C1034 1.369 . S
C1035 C1044 1.429 . S
C1036 C1034 1.419 . S
C1036 C1037 1.363 . S
C1036 H1039 0.929 . S
C1037 C1036 1.363 . S
C1037 C1043 1.428 . S
H1038 C1034 0.930 . S
H1039 C1036 0.929 . S
S1040 N1041 1.613 . S
S1040 N1042 1.610 . S
N1041 S1040 1.613 . S
N1041 C1044 1.350 . S
N1042 S1040 1.610 . S
N1042 C1043 1.351 . S
C1043 C1037 1.428 . S
C1043 N1042 1.351 . S
C1043 C1044 1.434 . S
C1044 C1035 1.429 . S
C1044 N1041 1.350 . S
C1044 C1043 1.434 . S
C1045 C1046 1.369 . S
C1045 C1047 1.419 . S
C1045 H1049 0.930 . S
C1046 C1045 1.369 . S
C1046 C1055 1.429 . S
C1047 C1045 1.419 . S
C1047 C1048 1.363 . S
C1047 H1050 0.929 . S
C1048 C1047 1.363 . S
C1048 C1054 1.428 . S
H1049 C1045 0.930 . S
H1050 C1047 0.929 . S
S1051 N1052 1.613 . S
S1051 N1053 1.610 . S
N1052 S1051 1.613 . S
N1052 C1055 1.350 . S
N1053 S1051 1.610 . S
N1053 C1054 1.351 . S
C1054 C1048 1.428 . S
C1054 N1053 1.351 . S
C1054 C1055 1.434 . S
C1055 C1046 1.429 . S
C1055 N1052 1.350 . S
C1055 C1054 1.434 . S
C1056 C1057 1.382 . S
C1056 C1058 1.426 . S
C1056 H1060 0.909 1_545 S
C1057 C1056 1.382 . S
C1057 C1066 1.429 . S
C1058 C1056 1.426 . S
C1058 C1059 1.363 . S
C1058 H1061 0.929 1_545 S
C1059 C1058 1.363 . S
C1059 C1065 1.428 . S
H1060 C1056 0.909 1_565 S
H1061 C1058 0.929 1_565 S
S1062 N1063 1.613 . S
S1062 N1064 1.610 . S
N1063 S1062 1.613 . S
N1063 C1066 1.350 . S
N1064 S1062 1.610 . S
N1064 C1065 1.351 . S
C1065 C1059 1.428 . S
C1065 N1064 1.351 . S
C1065 C1066 1.434 . S
C1066 C1057 1.429 . S
C1066 N1063 1.350 . S
C1066 C1065 1.434 . S
C1067 C1068 1.369 . S
C1067 C1069 1.419 . S
C1067 H1071 0.930 . S
C1068 C1067 1.369 . S
C1068 C1077 1.429 . S
C1069 C1067 1.419 . S
C1069 C1070 1.363 . S
C1069 H1072 0.929 . S
C1070 C1069 1.363 . S
C1070 C1076 1.428 . S
H1071 C1067 0.930 . S
H1072 C1069 0.929 . S
S1073 N1074 1.613 . S
S1073 N1075 1.610 . S
N1074 S1073 1.613 . S
N1074 C1077 1.350 . S
N1075 S1073 1.610 . S
N1075 C1076 1.351 . S
C1076 C1070 1.428 . S
C1076 N1075 1.351 . S
C1076 C1077 1.434 . S
C1077 C1068 1.429 . S
C1077 N1074 1.350 . S
C1077 C1076 1.434 . S
C1078 C1079 1.369 . S
C1078 C1080 1.419 . S
C1078 H1082 0.930 . S
C1079 C1078 1.369 . S
C1079 C1088 1.429 1_565 S
C1080 C1078 1.419 . S
C1080 C1081 1.363 . S
C1080 H1083 0.929 . S
C1081 C1080 1.363 . S
C1081 C1087 1.428 . S
H1082 C1078 0.930 . S
H1083 C1080 0.929 . S
S1084 N1085 1.613 . S
S1084 N1086 1.610 . S
N1085 S1084 1.613 . S
N1085 C1088 1.350 . S
N1086 S1084 1.610 . S
N1086 C1087 1.351 1_545 S
C1087 C1081 1.428 . S
C1087 N1086 1.351 1_565 S
C1087 C1088 1.434 1_565 S
C1088 C1079 1.429 1_545 S
C1088 N1085 1.350 . S
C1088 C1087 1.434 1_545 S
C1089 C1090 1.369 . S
C1089 C1091 1.419 . S
C1089 H1093 0.930 . S
C1090 C1089 1.369 . S
C1090 C1099 1.429 . S
C1091 C1089 1.419 . S
C1091 C1092 1.363 . S
C1091 H1094 0.929 . S
C1092 C1091 1.363 . S
C1092 C1098 1.428 . S
H1093 C1089 0.930 . S
H1094 C1091 0.929 . S
S1095 N1096 1.613 . S
S1095 N1097 1.610 . S
N1096 S1095 1.613 . S
N1096 C1099 1.350 . S
N1097 S1095 1.610 . S
N1097 C1098 1.351 . S
C1098 C1092 1.428 . S
C1098 N1097 1.351 . S
C1098 C1099 1.434 . S
C1099 C1090 1.429 . S
C1099 N1096 1.350 . S
C1099 C1098 1.434 . S
C1100 C1101 1.369 1_565 S
C1100 C1102 1.419 . S
C1100 H1104 0.930 . S
C1101 C1100 1.369 1_545 S
C1101 C1110 1.429 . S
C1102 C1100 1.419 . S
C1102 C1103 1.363 . S
C1102 H1105 0.929 . S
C1103 C1102 1.363 . S
C1103 C1109 1.428 1_565 S
H1104 C1100 0.930 . S
H1105 C1102 0.929 . S
S1106 N1107 1.613 1_455 S
S1106 N1108 1.610 . S
N1107 S1106 1.613 1_655 S
N1107 C1110 1.350 . S
N1108 S1106 1.610 . S
N1108 C1109 1.351 1_455 S
C1109 C1103 1.428 1_545 S
C1109 N1108 1.351 1_655 S
C1109 C1110 1.434 . S
C1110 C1101 1.429 . S
C1110 N1107 1.350 . S
C1110 C1109 1.434 . S
C1111 C1112 1.369 . S
C1111 C1113 1.419 . S
C1111 H1115 0.930 . S
C1112 C1111 1.369 . S
C1112 C1121 1.429 . S
C1113 C1111 1.419 . S
C1113 C1114 1.363 . S
C1113 H1116 0.929 . S
C1114 C1113 1.363 . S
C1114 C1120 1.428 . S
H1115 C1111 0.930 . S
H1116 C1113 0.929 . S
S1117 N1118 1.613 . S
S1117 N1119 1.610 . S
N1118 S1117 1.613 . S
N1118 C1121 1.350 . S
N1119 S1117 1.610 . S
N1119 C1120 1.351 . S
C1120 C1114 1.428 . S
C1120 N1119 1.351 . S
C1120 C1121 1.434 . S
C1121 C1112 1.429 . S
C1121 N1118 1.350 . S
C1121 C1120 1.434 . S
C1122 C1123 1.369 1_565 S
C1122 C1124 1.419 . S
C1122 H1126 0.930 . S
C1123 C1122 1.369 1_545 S
C1123 C1132 1.429 . S
C1124 C1122 1.419 . S
C1124 C1125 1.363 1_565 S
C1124 H1127 0.929 . S
C1125 C1124 1.363 1_545 S
C1125 C1131 1.428 . S
H1126 C1122 0.930 . S
H1127 C1124 0.929 . S
S1128 N1129 1.613 . S
S1128 N1130 1.610 . S
N1129 S1128 1.613 . S
N1129 C1132 1.350 . S
N1130 S1128 1.610 . S
N1130 C1131 1.351 . S
C1131 C1125 1.428 . S
C1131 N1130 1.351 . S
C1131 C1132 1.434 . S
C1132 C1123 1.429 . S
C1132 N1129 1.350 . S
C1132 C1131 1.434 . S
C1133 C1134 1.369 . S
C1133 C1135 1.419 . S
C1133 H1137 0.930 . S
C1134 C1133 1.369 . S
C1134 C1143 1.429 . S
C1135 C1133 1.419 . S
C1135 C1136 1.363 . S
C1135 H1138 0.929 . S
C1136 C1135 1.363 . S
C1136 C1142 1.428 . S
H1137 C1133 0.930 . S
H1138 C1135 0.929 . S
S1139 N1140 1.613 . S
S1139 N1141 1.610 . S
N1140 S1139 1.613 . S
N1140 C1143 1.350 . S
N1141 S1139 1.610 . S
N1141 C1142 1.351 . S
C1142 C1136 1.428 . S
C1142 N1141 1.351 . S
C1142 C1143 1.434 . S
C1143 C1134 1.429 . S
C1143 N1140 1.350 . S
C1143 C1142 1.434 . S
C1144 C1145 1.369 . S
C1144 C1146 1.419 . S
C1144 H1148 0.930 . S
C1145 C1144 1.369 . S
C1145 C1154 1.429 1_554 S
C1146 C1144 1.419 . S
C1146 C1147 1.363 . S
C1146 H1149 0.929 . S
C1147 C1146 1.363 . S
C1147 C1153 1.428 . S
H1148 C1144 0.930 . S
H1149 C1146 0.929 . S
S1150 N1151 1.613 1_545 S
S1150 N1152 1.610 1_545 S
N1151 S1150 1.613 1_565 S
N1151 C1154 1.350 . S
N1152 S1150 1.610 1_565 S
N1152 C1153 1.351 1_556 S
C1153 C1147 1.428 . S
C1153 N1152 1.351 1_554 S
C1153 C1154 1.434 1_554 S
C1154 C1145 1.429 1_556 S
C1154 N1151 1.350 . S
C1154 C1153 1.434 1_556 S
C1155 C1156 1.369 . S
C1155 C1157 1.419 . S
C1155 H1159 0.930 . S
C1156 C1155 1.369 . S
C1156 C1165 1.429 1_556 S
C1157 C1155 1.419 . S
C1157 C1158 1.363 . S
C1157 H1160 0.929 . S
C1158 C1157 1.363 . S
C1158 C1164 1.428 1_556 S
H1159 C1155 0.930 . S
H1160 C1157 0.929 . S
S1161 N1162 1.613 . S
S1161 N1163 1.610 . S
N1162 S1161 1.613 . S
N1162 C1165 1.350 . S
N1163 S1161 1.610 . S
N1163 C1164 1.351 . S
C1164 C1158 1.428 1_554 S
C1164 N1163 1.351 . S
C1164 C1165 1.434 . S
C1165 C1156 1.429 1_554 S
C1165 N1162 1.350 . S
C1165 C1164 1.434 . S
C1166 C1167 1.369 . S
C1166 C1168 1.419 . S
C1166 H1170 0.930 . S
C1167 C1166 1.369 . S
C1167 C1176 1.429 . S
C1168 C1166 1.419 . S
C1168 C1169 1.363 . S
C1168 H1171 0.929 . S
C1169 C1168 1.363 . S
C1169 C1175 1.428 . S
H1170 C1166 0.930 . S
H1171 C1168 0.929 . S
S1172 N1173 1.613 . S
S1172 N1174 1.610 . S
N1173 S1172 1.613 . S
N1173 C1176 1.350 . S
N1174 S1172 1.610 . S
N1174 C1175 1.351 . S
C1175 C1169 1.428 . S
C1175 N1174 1.351 . S
C1175 C1176 1.434 . S
C1176 C1167 1.429 . S
C1176 N1173 1.350 . S
C1176 C1175 1.434 . S
C1177 C1178 1.369 . S
C1177 C1179 1.419 . S
C1177 H1181 0.930 . S
C1178 C1177 1.369 . S
C1178 C1187 1.429 . S
C1179 C1177 1.419 . S
C1179 C1180 1.363 . S
C1179 H1182 0.929 . S
C1180 C1179 1.363 . S
C1180 C1186 1.428 . S
H1181 C1177 0.930 . S
H1182 C1179 0.929 . S
S1183 N1184 1.613 . S
S1183 N1185 1.610 . S
N1184 S1183 1.613 . S
N1184 C1187 1.350 . S
N1185 S1183 1.610 . S
N1185 C1186 1.351 . S
C1186 C1180 1.428 . S
C1186 N1185 1.351 . S
C1186 C1187 1.434 . S
C1187 C1178 1.429 . S
C1187 N1184 1.350 . S
C1187 C1186 1.434 . S
C1188 C1189 1.369 . S
C1188 C1190 1.419 . S
C1188 H1192 0.930 . S
C1189 C1188 1.369 . S
C1189 C1198 1.429 . S
C1190 C1188 1.419 . S
C1190 C1191 1.363 . S
C1190 H1193 0.929 . S
C1191 C1190 1.363 . S
C1191 C1197 1.428 . S
H1192 C1188 0.930 . S
H1193 C1190 0.929 . S
S1194 N1195 1.613 . S
S1194 N1196 1.610 . S
N1195 S1194 1.613 . S
N1195 C1198 1.350 . S
N1196 S1194 1.610 . S
N1196 C1197 1.351 . S
C1197 C1191 1.428 . S
C1197 N1196 1.351 . S
C1197 C1198 1.434 . S
C1198 C1189 1.429 . S
C1198 N1195 1.350 . S
C1198 C1197 1.434 . S
C1199 C1200 1.369 . S
C1199 C1201 1.419 . S
C1199 H1203 0.930 . S
C1200 C1199 1.369 . S
C1200 C1209 1.429 . S
C1201 C1199 1.419 . S
C1201 C1202 1.363 . S
C1201 H1204 0.929 . S
C1202 C1201 1.363 . S
C1202 C1208 1.428 . S
H1203 C1199 0.930 . S
H1204 C1201 0.929 . S
S1205 N1206 1.613 . S
S1205 N1207 1.610 . S
N1206 S1205 1.613 . S
N1206 C1209 1.350 . S
N1207 S1205 1.610 . S
N1207 C1208 1.351 . S
C1208 C1202 1.428 . S
C1208 N1207 1.351 . S
C1208 C1209 1.434 . S
C1209 C1200 1.429 . S
C1209 N1206 1.350 . S
C1209 C1208 1.434 . S
C1210 C1211 1.369 . S
C1210 C1212 1.419 . S
C1210 H1214 0.930 . S
C1211 C1210 1.369 . S
C1211 C1220 1.429 . S
C1212 C1210 1.419 . S
C1212 C1213 1.363 . S
C1212 H1215 0.929 . S
C1213 C1212 1.363 . S
C1213 C1219 1.428 . S
H1214 C1210 0.930 . S
H1215 C1212 0.929 . S
S1216 N1217 1.613 . S
S1216 N1218 1.610 . S
N1217 S1216 1.613 . S
N1217 C1220 1.350 . S
N1218 S1216 1.610 . S
N1218 C1219 1.351 . S
C1219 C1213 1.428 . S
C1219 N1218 1.351 . S
C1219 C1220 1.434 . S
C1220 C1211 1.429 . S
C1220 N1217 1.350 . S
C1220 C1219 1.434 . S
C1221 C1222 1.369 . S
C1221 C1223 1.419 . S
C1221 H1225 0.930 . S
C1222 C1221 1.369 . S
C1222 C1231 1.429 . S
C1223 C1221 1.419 . S
C1223 C1224 1.363 . S
C1223 H1226 0.929 . S
C1224 C1223 1.363 . S
C1224 C1230 1.428 . S
H1225 C1221 0.930 . S
H1226 C1223 0.929 . S
S1227 N1228 1.613 . S
S1227 N1229 1.610 . S
N1228 S1227 1.613 . S
N1228 C1231 1.350 . S
N1229 S1227 1.610 . S
N1229 C1230 1.351 . S
C1230 C1224 1.428 . S
C1230 N1229 1.351 . S
C1230 C1231 1.434 . S
C1231 C1222 1.429 . S
C1231 N1228 1.350 . S
C1231 C1230 1.434 . S
C1232 C1233 1.369 . S
C1232 C1234 1.419 . S
C1232 H1236 0.930 . S
C1233 C1232 1.369 . S
C1233 C1242 1.429 . S
C1234 C1232 1.419 . S
C1234 C1235 1.363 . S
C1234 H1237 0.929 . S
C1235 C1234 1.363 . S
C1235 C1241 1.428 . S
H1236 C1232 0.930 . S
H1237 C1234 0.929 . S
S1238 N1239 1.613 . S
S1238 N1240 1.610 . S
N1239 S1238 1.613 . S
N1239 C1242 1.350 . S
N1240 S1238 1.610 . S
N1240 C1241 1.351 . S
C1241 C1235 1.428 . S
C1241 N1240 1.351 . S
C1241 C1242 1.434 . S
C1242 C1233 1.429 . S
C1242 N1239 1.350 . S
C1242 C1241 1.434 . S
C1243 C1244 1.369 . S
C1243 C1245 1.419 . S
C1243 H1247 0.930 . S
C1244 C1243 1.369 . S
C1244 C1253 1.429 . S
C1245 C1243 1.419 . S
C1245 C1246 1.363 . S
C1245 H1248 0.929 . S
C1246 C1245 1.363 . S
C1246 C1252 1.428 . S
H1247 C1243 0.930 . S
H1248 C1245 0.929 . S
S1249 N1250 1.613 . S
S1249 N1251 1.610 . S
N1250 S1249 1.613 . S
N1250 C1253 1.350 . S
N1251 S1249 1.610 . S
N1251 C1252 1.351 . S
C1252 C1246 1.428 . S
C1252 N1251 1.351 . S
C1252 C1253 1.434 . S
C1253 C1244 1.429 . S
C1253 N1250 1.350 . S
C1253 C1252 1.434 . S
C1254 C1255 1.369 1_655 S
C1254 C1256 1.419 . S
C1254 H1258 0.930 . S
C1255 C1254 1.369 1_455 S
C1255 C1264 1.429 . S
C1256 C1254 1.419 . S
C1256 C1257 1.360 1_655 S
C1256 H1259 0.931 . S
C1257 C1256 1.360 1_455 S
C1257 C1263 1.428 . S
H1258 C1254 0.930 . S
H1259 C1256 0.931 . S
S1260 N1261 1.613 . S
S1260 N1262 1.610 . S
N1261 S1260 1.613 . S
N1261 C1264 1.350 . S
N1262 S1260 1.610 . S
N1262 C1263 1.351 . S
C1263 C1257 1.428 . S
C1263 N1262 1.351 . S
C1263 C1264 1.434 . S
C1264 C1255 1.429 . S
C1264 N1261 1.350 . S
C1264 C1263 1.434 . S
C1265 C1266 1.369 . S
C1265 C1267 1.419 . S
C1265 H1269 0.930 . S
C1266 C1265 1.369 . S
C1266 C1275 1.429 . S
C1267 C1265 1.419 . S
C1267 C1268 1.363 . S
C1267 H1270 0.929 . S
C1268 C1267 1.363 . S
C1268 C1274 1.428 . S
H1269 C1265 0.930 . S
H1270 C1267 0.929 . S
S1271 N1272 1.613 . S
S1271 N1273 1.610 . S
N1272 S1271 1.613 . S
N1272 C1275 1.350 . S
N1273 S1271 1.610 . S
N1273 C1274 1.351 . S
C1274 C1268 1.428 . S
C1274 N1273 1.351 . S
C1274 C1275 1.434 . S
C1275 C1266 1.429 . S
C1275 N1272 1.350 . S
C1275 C1274 1.434 . S
C1276 C1277 1.369 . S
C1276 C1278 1.419 . S
C1276 H1280 0.930 . S
C1277 C1276 1.369 . S
C1277 C1286 1.429 . S
C1278 C1276 1.419 . S
C1278 C1279 1.363 . S
C1278 H1281 0.929 1_556 S
C1279 C1278 1.363 . S
C1279 C1285 1.428 . S
H1280 C1276 0.930 . S
H1281 C1278 0.929 1_554 S
S1282 N1283 1.613 . S
S1282 N1284 1.610 . S
N1283 S1282 1.613 . S
N1283 C1286 1.350 . S
N1284 S1282 1.610 . S
N1284 C1285 1.351 . S
C1285 C1279 1.428 . S
C1285 N1284 1.351 . S
C1285 C1286 1.434 . S
C1286 C1277 1.429 . S
C1286 N1283 1.350 . S
C1286 C1285 1.434 . S
C1287 C1288 1.369 . S
C1287 C1289 1.419 . S
C1287 H1291 0.930 . S
C1288 C1287 1.369 . S
C1288 C1297 1.429 . S
C1289 C1287 1.419 . S
C1289 C1290 1.363 . S
C1289 H1292 0.929 . S
C1290 C1289 1.363 . S
C1290 C1296 1.428 . S
H1291 C1287 0.930 . S
H1292 C1289 0.929 . S
S1293 N1294 1.613 . S
S1293 N1295 1.610 . S
N1294 S1293 1.613 . S
N1294 C1297 1.350 . S
N1295 S1293 1.610 . S
N1295 C1296 1.351 . S
C1296 C1290 1.428 . S
C1296 N1295 1.351 . S
C1296 C1297 1.434 . S
C1297 C1288 1.429 . S
C1297 N1294 1.350 . S
C1297 C1296 1.434 . S
C1298 C1299 1.369 . S
C1298 C1300 1.419 . S
C1298 H1302 0.930 . S
C1299 C1298 1.369 . S
C1299 C1308 1.429 1_455 S
C1300 C1298 1.419 . S
C1300 C1301 1.363 . S
C1300 H1303 0.929 . S
C1301 C1300 1.363 . S
C1301 C1307 1.428 1_455 S
H1302 C1298 0.930 . S
H1303 C1300 0.929 . S
S1304 N1305 1.613 . S
S1304 N1306 1.610 . S
N1305 S1304 1.613 . S
N1305 C1308 1.350 . S
N1306 S1304 1.610 . S
N1306 C1307 1.351 . S
C1307 C1301 1.428 1_655 S
C1307 N1306 1.351 . S
C1307 C1308 1.434 . S
C1308 C1299 1.429 1_655 S
C1308 N1305 1.350 . S
C1308 C1307 1.434 . S
C1309 C1310 1.369 . S
C1309 C1311 1.419 . S
C1309 H1313 0.930 . S
C1310 C1309 1.369 . S
C1310 C1319 1.429 . S
C1311 C1309 1.419 . S
C1311 C1312 1.363 . S
C1311 H1314 0.929 . S
C1312 C1311 1.363 . S
C1312 C1318 1.428 . S
H1313 C1309 0.930 . S
H1314 C1311 0.929 . S
S1315 N1316 1.613 . S
S1315 N1317 1.610 . S
N1316 S1315 1.613 . S
N1316 C1319 1.350 . S
N1317 S1315 1.610 . S
N1317 C1318 1.351 . S
C1318 C1312 1.428 . S
C1318 N1317 1.351 . S
C1318 C1319 1.434 . S
C1319 C1310 1.429 . S
C1319 N1316 1.350 . S
C1319 C1318 1.434 . S
C1320 C1321 1.369 . S
C1320 C1322 1.419 . S
C1320 H1324 0.930 . S
C1321 C1320 1.369 . S
C1321 C1330 1.429 . S
C1322 C1320 1.419 . S
C1322 C1323 1.363 . S
C1322 H1325 0.929 . S
C1323 C1322 1.363 . S
C1323 C1329 1.428 . S
H1324 C1320 0.930 . S
H1325 C1322 0.929 . S
S1326 N1327 1.613 . S
S1326 N1328 1.610 . S
N1327 S1326 1.613 . S
N1327 C1330 1.350 . S
N1328 S1326 1.610 . S
N1328 C1329 1.351 . S
C1329 C1323 1.428 . S
C1329 N1328 1.351 . S
C1329 C1330 1.434 . S
C1330 C1321 1.429 . S
C1330 N1327 1.350 . S
C1330 C1329 1.434 . S
C1331 C1332 1.369 . S
C1331 C1333 1.419 . S
C1331 H1335 0.930 . S
C1332 C1331 1.369 . S
C1332 C1341 1.429 . S
C1333 C1331 1.419 . S
C1333 C1334 1.363 . S
C1333 H1336 0.929 . S
C1334 C1333 1.363 . S
C1334 C1340 1.428 . S
H1335 C1331 0.930 . S
H1336 C1333 0.929 . S
S1337 N1338 1.613 . S
S1337 N1339 1.610 . S
N1338 S1337 1.613 . S
N1338 C1341 1.350 . S
N1339 S1337 1.610 . S
N1339 C1340 1.351 . S
C1340 C1334 1.428 . S
C1340 N1339 1.351 . S
C1340 C1341 1.434 . S
C1341 C1332 1.429 . S
C1341 N1338 1.350 . S
C1341 C1340 1.434 . S
C1342 C1343 1.369 . S
C1342 C1344 1.419 . S
C1342 H1346 0.930 . S
C1343 C1342 1.369 . S
C1343 C1352 1.429 . S
C1344 C1342 1.419 . S
C1344 C1345 1.363 . S
C1344 H1347 0.929 . S
C1345 C1344 1.363 . S
C1345 C1351 1.428 . S
H1346 C1342 0.930 . S
H1347 C1344 0.929 . S
S1348 N1349 1.613 . S
S1348 N1350 1.610 . S
N1349 S1348 1.613 . S
N1349 C1352 1.350 . S
N1350 S1348 1.610 . S
N1350 C1351 1.351 . S
C1351 C1345 1.428 . S
C1351 N1350 1.351 . S
C1351 C1352 1.434 . S
C1352 C1343 1.429 . S
C1352 N1349 1.350 . S
C1352 C1351 1.434 . S
C1353 C1354 1.369 . S
C1353 C1355 1.419 . S
C1353 H1357 0.930 . S
C1354 C1353 1.369 . S
C1354 C1363 1.429 . S
C1355 C1353 1.419 . S
C1355 C1356 1.363 . S
C1355 H1358 0.929 . S
C1356 C1355 1.363 . S
C1356 C1362 1.428 . S
H1357 C1353 0.930 . S
H1358 C1355 0.929 . S
S1359 N1360 1.613 . S
S1359 N1361 1.610 . S
N1360 S1359 1.613 . S
N1360 C1363 1.350 . S
N1361 S1359 1.610 . S
N1361 C1362 1.351 . S
C1362 C1356 1.428 . S
C1362 N1361 1.351 . S
C1362 C1363 1.434 . S
C1363 C1354 1.429 . S
C1363 N1360 1.350 . S
C1363 C1362 1.434 . S
C1364 C1365 1.369 . S
C1364 C1366 1.419 . S
C1364 H1368 0.930 . S
C1365 C1364 1.369 . S
C1365 C1374 1.429 . S
C1366 C1364 1.419 . S
C1366 C1367 1.363 . S
C1366 H1369 0.929 . S
C1367 C1366 1.363 . S
C1367 C1373 1.428 . S
H1368 C1364 0.930 . S
H1369 C1366 0.929 . S
S1370 N1371 1.613 . S
S1370 N1372 1.610 . S
N1371 S1370 1.613 . S
N1371 C1374 1.350 . S
N1372 S1370 1.610 . S
N1372 C1373 1.351 . S
C1373 C1367 1.428 . S
C1373 N1372 1.351 . S
C1373 C1374 1.434 . S
C1374 C1365 1.429 . S
C1374 N1371 1.350 . S
C1374 C1373 1.434 . S
C1375 C1376 1.369 . S
C1375 C1377 1.419 . S
C1375 H1379 0.930 . S
C1376 C1375 1.369 . S
C1376 C1385 1.429 . S
C1377 C1375 1.419 . S
C1377 C1378 1.363 . S
C1377 H1380 0.929 . S
C1378 C1377 1.363 . S
C1378 C1384 1.428 . S
H1379 C1375 0.930 . S
H1380 C1377 0.929 . S
S1381 N1382 1.613 . S
S1381 N1383 1.610 . S
N1382 S1381 1.613 . S
N1382 C1385 1.350 . S
N1383 S1381 1.610 . S
N1383 C1384 1.351 . S
C1384 C1378 1.428 . S
C1384 N1383 1.351 . S
C1384 C1385 1.434 . S
C1385 C1376 1.429 . S
C1385 N1382 1.350 . S
C1385 C1384 1.434 . S
C1386 C1387 1.369 . S
C1386 C1388 1.419 . S
C1386 H1390 0.930 . S
C1387 C1386 1.369 . S
C1387 C1396 1.429 . S
C1388 C1386 1.419 . S
C1388 C1389 1.363 . S
C1388 H1391 0.929 . S
C1389 C1388 1.363 . S
C1389 C1395 1.428 . S
H1390 C1386 0.930 . S
H1391 C1388 0.929 . S
S1392 N1393 1.613 . S
S1392 N1394 1.610 . S
N1393 S1392 1.613 . S
N1393 C1396 1.350 . S
N1394 S1392 1.610 . S
N1394 C1395 1.351 . S
C1395 C1389 1.428 . S
C1395 N1394 1.351 . S
C1395 C1396 1.434 . S
C1396 C1387 1.429 . S
C1396 N1393 1.350 . S
C1396 C1395 1.434 . S
C1397 C1398 1.369 . S
C1397 C1399 1.419 . S
C1397 H1401 0.930 . S
C1398 C1397 1.369 . S
C1398 C1407 1.429 . S
C1399 C1397 1.419 . S
C1399 C1400 1.363 . S
C1399 H1402 0.929 . S
C1400 C1399 1.363 . S
C1400 C1406 1.428 . S
H1401 C1397 0.930 . S
H1402 C1399 0.929 . S
S1403 N1404 1.613 . S
S1403 N1405 1.610 . S
N1404 S1403 1.613 . S
N1404 C1407 1.350 . S
N1405 S1403 1.610 . S
N1405 C1406 1.351 . S
C1406 C1400 1.428 . S
C1406 N1405 1.351 . S
C1406 C1407 1.434 . S
C1407 C1398 1.429 . S
C1407 N1404 1.350 . S
C1407 C1406 1.434 . S
C1408 C1409 1.369 . S
C1408 C1410 1.419 . S
C1408 H1412 0.930 . S
C1409 C1408 1.369 . S
C1409 C1418 1.429 . S
C1410 C1408 1.419 . S
C1410 C1411 1.363 . S
C1410 H1413 0.929 . S
C1411 C1410 1.363 . S
C1411 C1417 1.428 . S
H1412 C1408 0.930 . S
H1413 C1410 0.929 . S
S1414 N1415 1.613 . S
S1414 N1416 1.610 . S
N1415 S1414 1.613 . S
N1415 C1418 1.350 . S
N1416 S1414 1.610 . S
N1416 C1417 1.351 . S
C1417 C1411 1.428 . S
C1417 N1416 1.351 . S
C1417 C1418 1.434 . S
C1418 C1409 1.429 . S
C1418 N1415 1.350 . S
C1418 C1417 1.434 . S
C1419 C1420 1.369 . S
C1419 C1421 1.419 . S
C1419 H1423 0.930 . S
C1420 C1419 1.369 . S
C1420 C1429 1.429 . S
C1421 C1419 1.419 . S
C1421 C1422 1.363 . S
C1421 H1424 0.929 1_565 S
C1422 C1421 1.363 . S
C1422 C1428 1.428 . S
H1423 C1419 0.930 . S
H1424 C1421 0.929 1_545 S
S1425 N1426 1.613 . S
S1425 N1427 1.610 . S
N1426 S1425 1.613 . S
N1426 C1429 1.350 . S
N1427 S1425 1.610 . S
N1427 C1428 1.351 . S
C1428 C1422 1.428 . S
C1428 N1427 1.351 . S
C1428 C1429 1.434 . S
C1429 C1420 1.429 . S
C1429 N1426 1.350 . S
C1429 C1428 1.434 . S
C1430 C1431 1.369 . S
C1430 C1432 1.419 . S
C1430 H1434 0.930 . S
C1431 C1430 1.369 . S
C1431 C1440 1.429 . S
C1432 C1430 1.419 . S
C1432 C1433 1.363 . S
C1432 H1435 0.929 . S
C1433 C1432 1.363 . S
C1433 C1439 1.428 . S
H1434 C1430 0.930 . S
H1435 C1432 0.929 . S
S1436 N1437 1.613 . S
S1436 N1438 1.610 . S
N1437 S1436 1.613 . S
N1437 C1440 1.350 . S
N1438 S1436 1.610 . S
N1438 C1439 1.351 . S
C1439 C1433 1.428 . S
C1439 N1438 1.351 . S
C1439 C1440 1.434 . S
C1440 C1431 1.429 . S
C1440 N1437 1.350 . S
C1440 C1439 1.434 . S
C1441 C1442 1.369 1_556 S
C1441 C1443 1.419 1_556 S
C1441 H1445 0.930 . S
C1442 C1441 1.369 1_554 S
C1442 C1451 1.429 . S
C1443 C1441 1.419 1_554 S
C1443 C1444 1.363 . S
C1443 H1446 0.929 1_554 S
C1444 C1443 1.363 . S
C1444 C1450 1.428 . S
H1445 C1441 0.930 . S
H1446 C1443 0.929 1_556 S
S1447 N1448 1.613 . S
S1447 N1449 1.610 . S
N1448 S1447 1.613 . S
N1448 C1451 1.350 . S
N1449 S1447 1.610 . S
N1449 C1450 1.351 . S
C1450 C1444 1.428 . S
C1450 N1449 1.351 . S
C1450 C1451 1.434 . S
C1451 C1442 1.429 . S
C1451 N1448 1.350 . S
C1451 C1450 1.434 . S
C1452 C1453 1.369 . S
C1452 C1454 1.419 . S
C1452 H1456 0.930 . S
C1453 C1452 1.369 . S
C1453 C1462 1.429 . S
C1454 C1452 1.419 . S
C1454 C1455 1.363 . S
C1454 H1457 0.929 . S
C1455 C1454 1.363 . S
C1455 C1461 1.428 . S
H1456 C1452 0.930 . S
H1457 C1454 0.929 . S
S1458 N1459 1.613 . S
S1458 N1460 1.610 . S
N1459 S1458 1.613 . S
N1459 C1462 1.350 . S
N1460 S1458 1.610 . S
N1460 C1461 1.351 . S
C1461 C1455 1.428 . S
C1461 N1460 1.351 . S
C1461 C1462 1.434 . S
C1462 C1453 1.429 . S
C1462 N1459 1.350 . S
C1462 C1461 1.434 . S
C1463 C1464 1.369 . S
C1463 C1465 1.419 . S
C1463 H1467 0.930 . S
C1464 C1463 1.369 . S
C1464 C1473 1.429 1_554 S
C1465 C1463 1.419 . S
C1465 C1466 1.363 1_554 S
C1465 H1468 0.929 . S
C1466 C1465 1.363 1_556 S
C1466 C1472 1.428 . S
H1467 C1463 0.930 . S
H1468 C1465 0.929 . S
S1469 N1470 1.613 . S
S1469 N1471 1.610 . S
N1470 S1469 1.613 . S
N1470 C1473 1.350 . S
N1471 S1469 1.610 . S
N1471 C1472 1.351 . S
C1472 C1466 1.428 . S
C1472 N1471 1.351 . S
C1472 C1473 1.434 . S
C1473 C1464 1.429 1_556 S
C1473 N1470 1.350 . S
C1473 C1472 1.434 . S
C1474 C1475 1.369 . S
C1474 C1476 1.419 . S
C1474 H1478 0.930 . S
C1475 C1474 1.369 . S
C1475 C1484 1.429 . S
C1476 C1474 1.419 . S
C1476 C1477 1.363 . S
C1476 H1479 0.929 . S
C1477 C1476 1.363 . S
C1477 C1483 1.428 . S
H1478 C1474 0.930 . S
H1479 C1476 0.929 . S
S1480 N1481 1.613 . S
S1480 N1482 1.610 . S
N1481 S1480 1.613 . S
N1481 C1484 1.350 . S
N1482 S1480 1.610 . S
N1482 C1483 1.351 . S
C1483 C1477 1.428 . S
C1483 N1482 1.351 . S
C1483 C1484 1.434 . S
C1484 C1475 1.429 . S
C1484 N1481 1.350 . S
C1484 C1483 1.434 . S
C1485 C1486 1.369 . S
C1485 C1487 1.419 . S
C1485 H1489 0.930 . S
C1486 C1485 1.369 . S
C1486 C1495 1.429 . S
C1487 C1485 1.419 . S
C1487 C1488 1.363 . S
C1487 H1490 0.929 . S
C1488 C1487 1.363 . S
C1488 C1494 1.428 . S
H1489 C1485 0.930 . S
H1490 C1487 0.929 . S
S1491 N1492 1.613 . S
S1491 N1493 1.610 . S
N1492 S1491 1.613 . S
N1492 C1495 1.350 . S
N1493 S1491 1.610 . S
N1493 C1494 1.351 . S
C1494 C1488 1.428 . S
C1494 N1493 1.351 . S
C1494 C1495 1.434 . S
C1495 C1486 1.429 . S
C1495 N1492 1.350 . S
C1495 C1494 1.434 . S
C1496 C1497 1.369 . S
C1496 C1498 1.419 . S
C1496 H1500 0.930 . S
C1497 C1496 1.369 . S
C1497 C1506 1.429 . S
C1498 C1496 1.419 . S
C1498 C1499 1.363 . S
C1498 H1501 0.929 . S
C1499 C1498 1.363 . S
C1499 C1505 1.428 . S
H1500 C1496 0.930 . S
H1501 C1498 0.929 . S
S1502 N1503 1.613 . S
S1502 N1504 1.610 . S
N1503 S1502 1.613 . S
N1503 C1506 1.350 . S
N1504 S1502 1.610 . S
N1504 C1505 1.351 . S
C1505 C1499 1.428 . S
C1505 N1504 1.351 . S
C1505 C1506 1.434 . S
C1506 C1497 1.429 . S
C1506 N1503 1.350 . S
C1506 C1505 1.434 . S
C1507 C1508 1.369 . S
C1507 C1509 1.419 . S
C1507 H1511 0.930 . S
C1508 C1507 1.369 . S
C1508 C1517 1.429 . S
C1509 C1507 1.419 . S
C1509 C1510 1.363 . S
C1509 H1512 0.929 . S
C1510 C1509 1.363 . S
C1510 C1516 1.428 . S
H1511 C1507 0.930 . S
H1512 C1509 0.929 . S
S1513 N1514 1.613 . S
S1513 N1515 1.610 . S
N1514 S1513 1.613 . S
N1514 C1517 1.350 . S
N1515 S1513 1.610 . S
N1515 C1516 1.351 . S
C1516 C1510 1.428 . S
C1516 N1515 1.351 . S
C1516 C1517 1.434 . S
C1517 C1508 1.429 . S
C1517 N1514 1.350 . S
C1517 C1516 1.434 . S
C1518 C1519 1.369 . S
C1518 C1520 1.419 . S
C1518 H1522 0.930 . S
C1519 C1518 1.369 . S
C1519 C1528 1.429 1_455 S
C1520 C1518 1.419 . S
C1520 C1521 1.363 1_455 S
C1520 H1523 0.929 . S
C1521 C1520 1.363 1_655 S
C1521 C1527 1.428 . S
H1522 C1518 0.930 . S
H1523 C1520 0.929 . S
S1524 N1525 1.613 . S
S1524 N1526 1.610 . S
N1525 S1524 1.613 . S
N1525 C1528 1.350 . S
N1526 S1524 1.610 . S
N1526 C1527 1.351 . S
C1527 C1521 1.428 . S
C1527 N1526 1.351 . S
C1527 C1528 1.434 . S
C1528 C1519 1.429 1_655 S
C1528 N1525 1.350 . S
C1528 C1527 1.434 . S
C1529 C1530 1.369 . S
C1529 C1531 1.419 . S
C1529 H1533 0.930 . S
C1530 C1529 1.369 . S
C1530 C1539 1.429 . S
C1531 C1529 1.419 . S
C1531 C1532 1.363 . S
C1531 H1534 0.929 . S
C1532 C1531 1.363 . S
C1532 C1538 1.428 . S
H1533 C1529 0.930 . S
H1534 C1531 0.929 . S
S1535 N1536 1.613 . S
S1535 N1537 1.610 . S
N1536 S1535 1.613 . S
N1536 C1539 1.350 . S
N1537 S1535 1.610 . S
N1537 C1538 1.351 . S
C1538 C1532 1.428 . S
C1538 N1537 1.351 . S
C1538 C1539 1.434 . S
C1539 C1530 1.429 . S
C1539 N1536 1.350 . S
C1539 C1538 1.434 . S
C1540 C1541 1.369 . S
C1540 C1542 1.419 . S
C1540 H1544 0.930 . S
C1541 C1540 1.369 . S
C1541 C1550 1.429 . S
C1542 C1540 1.419 . S
C1542 C1543 1.363 . S
C1542 H1545 0.929 . S
C1543 C1542 1.363 . S
C1543 C1549 1.428 . S
H1544 C1540 0.930 . S
H1545 C1542 0.929 . S
S1546 N1547 1.613 . S
S1546 N1548 1.610 . S
N1547 S1546 1.613 . S
N1547 C1550 1.350 . S
N1548 S1546 1.610 . S
N1548 C1549 1.351 . S
C1549 C1543 1.428 . S
C1549 N1548 1.351 . S
C1549 C1550 1.434 . S
C1550 C1541 1.429 . S
C1550 N1547 1.350 . S
C1550 C1549 1.434 . S
C1551 C1552 1.369 . S
C1551 C1553 1.419 . S
C1551 H1555 0.930 . S
C1552 C1551 1.369 . S
C1552 C1561 1.429 . S
C1553 C1551 1.419 . S
C1553 C1554 1.363 . S
C1553 H1556 0.929 . S
C1554 C1553 1.363 . S
C1554 C1560 1.428 . S
H1555 C1551 0.930 . S
H1556 C1553 0.929 . S
S1557 N1558 1.613 . S
S1557 N1559 1.610 . S
N1558 S1557 1.613 . S
N1558 C1561 1.350 . S
N1559 S1557 1.610 . S
N1559 C1560 1.351 . S
C1560 C1554 1.428 . S
C1560 N1559 1.351 . S
C1560 C1561 1.434 . S
C1561 C1552 1.429 . S
C1561 N1558 1.350 . S
C1561 C1560 1.434 . S
C1562 C1563 1.369 . S
C1562 C1564 1.419 . S
C1562 H1566 0.930 . S
C1563 C1562 1.369 . S
C1563 C1572 1.429 1_455 S
C1564 C1562 1.419 . S
C1564 C1565 1.363 1_455 S
C1564 H1567 0.929 . S
C1565 C1564 1.363 1_655 S
C1565 C1571 1.428 . S
H1566 C1562 0.930 . S
H1567 C1564 0.929 . S
S1568 N1569 1.613 . S
S1568 N1570 1.610 . S
N1569 S1568 1.613 . S
N1569 C1572 1.350 . S
N1570 S1568 1.610 . S
N1570 C1571 1.351 . S
C1571 C1565 1.428 . S
C1571 N1570 1.351 . S
C1571 C1572 1.434 . S
C1572 C1563 1.429 1_655 S
C1572 N1569 1.350 . S
C1572 C1571 1.434 . S
C1573 C1574 1.369 . S
C1573 C1575 1.419 . S
C1573 H1577 0.930 . S
C1574 C1573 1.369 . S
C1574 C1583 1.429 . S
C1575 C1573 1.419 . S
C1575 C1576 1.363 . S
C1575 H1578 0.929 . S
C1576 C1575 1.363 . S
C1576 C1582 1.428 . S
H1577 C1573 0.930 . S
H1578 C1575 0.929 . S
S1579 N1580 1.613 . S
S1579 N1581 1.610 . S
N1580 S1579 1.613 . S
N1580 C1583 1.350 . S
N1581 S1579 1.610 . S
N1581 C1582 1.351 . S
C1582 C1576 1.428 . S
C1582 N1581 1.351 . S
C1582 C1583 1.434 . S
C1583 C1574 1.429 . S
C1583 N1580 1.350 . S
C1583 C1582 1.434 . S
C1584 C1585 1.369 . S
C1584 C1586 1.419 . S
C1584 H1588 0.930 . S
C1585 C1584 1.369 . S
C1585 C1594 1.429 . S
C1586 C1584 1.419 . S
C1586 C1587 1.363 . S
C1586 H1589 0.929 . S
C1587 C1586 1.363 . S
C1587 C1593 1.428 . S
H1588 C1584 0.930 . S
H1589 C1586 0.929 . S
S1590 N1591 1.613 . S
S1590 N1592 1.610 . S
N1591 S1590 1.613 . S
N1591 C1594 1.350 . S
N1592 S1590 1.610 . S
N1592 C1593 1.351 . S
C1593 C1587 1.428 . S
C1593 N1592 1.351 . S
C1593 C1594 1.434 . S
C1594 C1585 1.429 . S
C1594 N1591 1.350 . S
C1594 C1593 1.434 . S
C1595 C1596 1.369 . S
C1595 C1597 1.419 . S
C1595 H1599 0.930 . S
C1596 C1595 1.369 . S
C1596 C1605 1.429 . S
C1597 C1595 1.419 . S
C1597 C1598 1.363 . S
C1597 H1600 0.929 . S
C1598 C1597 1.363 . S
C1598 C1604 1.428 . S
H1599 C1595 0.930 . S
H1600 C1597 0.929 . S
S1601 N1602 1.613 . S
S1601 N1603 1.610 . S
N1602 S1601 1.613 . S
N1602 C1605 1.350 . S
N1603 S1601 1.610 . S
N1603 C1604 1.351 . S
C1604 C1598 1.428 . S
C1604 N1603 1.351 . S
C1604 C1605 1.434 . S
C1605 C1596 1.429 . S
C1605 N1602 1.350 . S
C1605 C1604 1.434 . S
C1606 C1607 1.369 . S
C1606 C1608 1.419 . S
C1606 H1610 0.930 . S
C1607 C1606 1.369 . S
C1607 C1616 1.429 . S
C1608 C1606 1.419 . S
C1608 C1609 1.363 . S
C1608 H1611 0.929 . S
C1609 C1608 1.363 . S
C1609 C1615 1.428 . S
H1610 C1606 0.930 . S
H1611 C1608 0.929 . S
S1612 N1613 1.613 . S
S1612 N1614 1.610 . S
N1613 S1612 1.613 . S
N1613 C1616 1.350 . S
N1614 S1612 1.610 . S
N1614 C1615 1.351 . S
C1615 C1609 1.428 . S
C1615 N1614 1.351 . S
C1615 C1616 1.434 . S
C1616 C1607 1.429 . S
C1616 N1613 1.350 . S
C1616 C1615 1.434 . S
C1617 C1618 1.369 . S
C1617 C1619 1.419 . S
C1617 H1621 0.930 . S
C1618 C1617 1.369 . S
C1618 C1627 1.429 . S
C1619 C1617 1.419 . S
C1619 C1620 1.363 . S
C1619 H1622 0.929 . S
C1620 C1619 1.363 . S
C1620 C1626 1.428 . S
H1621 C1617 0.930 . S
H1622 C1619 0.929 . S
S1623 N1624 1.613 . S
S1623 N1625 1.610 . S
N1624 S1623 1.613 . S
N1624 C1627 1.350 . S
N1625 S1623 1.610 . S
N1625 C1626 1.351 . S
C1626 C1620 1.428 . S
C1626 N1625 1.351 . S
C1626 C1627 1.434 . S
C1627 C1618 1.429 . S
C1627 N1624 1.350 . S
C1627 C1626 1.434 . S
C1628 C1629 1.369 . S
C1628 C1630 1.419 . S
C1628 H1632 0.930 . S
C1629 C1628 1.369 . S
C1629 C1638 1.429 . S
C1630 C1628 1.419 . S
C1630 C1631 1.363 . S
C1630 H1633 0.929 . S
C1631 C1630 1.363 . S
C1631 C1637 1.428 . S
H1632 C1628 0.930 . S
H1633 C1630 0.929 . S
S1634 N1635 1.613 . S
S1634 N1636 1.610 . S
N1635 S1634 1.613 . S
N1635 C1638 1.350 . S
N1636 S1634 1.610 . S
N1636 C1637 1.351 . S
C1637 C1631 1.428 . S
C1637 N1636 1.351 . S
C1637 C1638 1.434 . S
C1638 C1629 1.429 . S
C1638 N1635 1.350 . S
C1638 C1637 1.434 . S
C1639 C1640 1.369 . S
C1639 C1641 1.419 . S
C1639 H1643 0.930 . S
C1640 C1639 1.369 . S
C1640 C1649 1.429 . S
C1641 C1639 1.419 . S
C1641 C1642 1.363 . S
C1641 H1644 0.929 . S
C1642 C1641 1.363 . S
C1642 C1648 1.428 . S
H1643 C1639 0.930 . S
H1644 C1641 0.929 . S
S1645 N1646 1.613 . S
S1645 N1647 1.610 . S
N1646 S1645 1.613 . S
N1646 C1649 1.350 . S
N1647 S1645 1.610 . S
N1647 C1648 1.351 . S
C1648 C1642 1.428 . S
C1648 N1647 1.351 . S
C1648 C1649 1.434 . S
C1649 C1640 1.429 . S
C1649 N1646 1.350 . S
C1649 C1648 1.434 . S
C1650 C1651 1.369 . S
C1650 C1652 1.419 . S
C1650 H1654 0.930 . S
C1651 C1650 1.369 . S
C1651 C1660 1.429 . S
C1652 C1650 1.419 . S
C1652 C1653 1.363 . S
C1652 H1655 0.929 . S
C1653 C1652 1.363 . S
C1653 C1659 1.428 . S
H1654 C1650 0.930 . S
H1655 C1652 0.929 . S
S1656 N1657 1.613 . S
S1656 N1658 1.610 . S
N1657 S1656 1.613 . S
N1657 C1660 1.350 . S
N1658 S1656 1.610 . S
N1658 C1659 1.351 . S
C1659 C1653 1.428 . S
C1659 N1658 1.351 . S
C1659 C1660 1.434 . S
C1660 C1651 1.429 . S
C1660 N1657 1.350 . S
C1660 C1659 1.434 . S
C1661 C1662 1.369 . S
C1661 C1663 1.419 . S
C1661 H1665 0.930 . S
C1662 C1661 1.369 . S
C1662 C1671 1.429 . S
C1663 C1661 1.419 . S
C1663 C1664 1.363 . S
C1663 H1666 0.929 . S
C1664 C1663 1.363 . S
C1664 C1670 1.428 . S
H1665 C1661 0.930 . S
H1666 C1663 0.929 . S
S1667 N1668 1.613 . S
S1667 N1669 1.610 . S
N1668 S1667 1.613 . S
N1668 C1671 1.350 . S
N1669 S1667 1.610 . S
N1669 C1670 1.351 . S
C1670 C1664 1.428 . S
C1670 N1669 1.351 . S
C1670 C1671 1.434 . S
C1671 C1662 1.429 . S
C1671 N1668 1.350 . S
C1671 C1670 1.434 . S
C1672 C1673 1.369 . S
C1672 C1674 1.419 . S
C1672 H1676 0.930 . S
C1673 C1672 1.369 . S
C1673 C1682 1.429 . S
C1674 C1672 1.419 . S
C1674 C1675 1.363 . S
C1674 H1677 0.929 . S
C1675 C1674 1.363 . S
C1675 C1681 1.428 . S
H1676 C1672 0.930 . S
H1677 C1674 0.929 . S
S1678 N1679 1.613 . S
S1678 N1680 1.610 . S
N1679 S1678 1.613 . S
N1679 C1682 1.350 . S
N1680 S1678 1.610 . S
N1680 C1681 1.351 . S
C1681 C1675 1.428 . S
C1681 N1680 1.351 . S
C1681 C1682 1.434 . S
C1682 C1673 1.429 . S
C1682 N1679 1.350 . S
C1682 C1681 1.434 . S
C1683 C1684 1.369 . S
C1683 C1685 1.419 . S
C1683 H1687 0.930 . S
C1684 C1683 1.369 . S
C1684 C1693 1.429 . S
C1685 C1683 1.419 . S
C1685 C1686 1.363 . S
C1685 H1688 0.929 . S
C1686 C1685 1.363 . S
C1686 C1692 1.428 . S
H1687 C1683 0.930 . S
H1688 C1685 0.929 . S
S1689 N1690 1.613 . S
S1689 N1691 1.610 . S
N1690 S1689 1.613 . S
N1690 C1693 1.350 . S
N1691 S1689 1.610 . S
N1691 C1692 1.351 . S
C1692 C1686 1.428 . S
C1692 N1691 1.351 . S
C1692 C1693 1.434 . S
C1693 C1684 1.429 . S
C1693 N1690 1.350 . S
C1693 C1692 1.434 . S
C1694 C1695 1.369 . S
C1694 C1696 1.419 . S
C1694 H1698 0.930 . S
C1695 C1694 1.369 . S
C1695 C1704 1.429 . S
C1696 C1694 1.419 . S
C1696 C1697 1.363 . S
C1696 H1699 0.929 . S
C1697 C1696 1.363 . S
C1697 C1703 1.428 . S
H1698 C1694 0.930 . S
H1699 C1696 0.929 . S
S1700 N1701 1.613 . S
S1700 N1702 1.610 . S
N1701 S1700 1.613 . S
N1701 C1704 1.350 . S
N1702 S1700 1.610 . S
N1702 C1703 1.351 . S
C1703 C1697 1.428 . S
C1703 N1702 1.351 . S
C1703 C1704 1.434 . S
C1704 C1695 1.429 . S
C1704 N1701 1.350 . S
C1704 C1703 1.434 . S
C1705 C1706 1.381 . S
C1705 C1707 1.419 . S
C1705 H1709 0.930 . S
C1706 C1705 1.381 . S
C1706 C1715 1.425 1_556 S
C1707 C1705 1.419 . S
C1707 C1708 1.363 . S
C1707 H1710 0.929 . S
C1708 C1707 1.363 . S
C1708 C1714 1.428 . S
H1709 C1705 0.930 . S
H1710 C1707 0.929 . S
S1711 N1712 1.613 . S
S1711 N1713 1.612 . S
N1712 S1711 1.613 . S
N1712 C1715 1.350 . S
N1713 S1711 1.612 . S
N1713 C1714 1.350 1_554 S
C1714 C1708 1.428 . S
C1714 N1713 1.350 1_556 S
C1714 C1715 1.434 1_556 S
C1715 C1706 1.425 1_554 S
C1715 N1712 1.350 . S
C1715 C1714 1.434 1_554 S
C1716 C1717 1.369 . S
C1716 C1718 1.419 . S
C1716 H1720 0.930 . S
C1717 C1716 1.369 . S
C1717 C1726 1.429 . S
C1718 C1716 1.419 . S
C1718 C1719 1.363 . S
C1718 H1721 0.929 . S
C1719 C1718 1.363 . S
C1719 C1725 1.428 . S
H1720 C1716 0.930 . S
H1721 C1718 0.929 . S
S1722 N1723 1.613 . S
S1722 N1724 1.610 . S
N1723 S1722 1.613 . S
N1723 C1726 1.350 . S
N1724 S1722 1.610 . S
N1724 C1725 1.351 . S
C1725 C1719 1.428 . S
C1725 N1724 1.351 . S
C1725 C1726 1.434 . S
C1726 C1717 1.429 . S
C1726 N1723 1.350 . S
C1726 C1725 1.434 . S
C1727 C1728 1.369 . S
C1727 C1729 1.419 . S
C1727 H1731 0.930 . S
C1728 C1727 1.369 . S
C1728 C1737 1.429 . S
C1729 C1727 1.419 . S
C1729 C1730 1.363 . S
C1729 H1732 0.929 . S
C1730 C1729 1.363 . S
C1730 C1736 1.428 . S
H1731 C1727 0.930 . S
H1732 C1729 0.929 . S
S1733 N1734 1.613 . S
S1733 N1735 1.610 . S
N1734 S1733 1.613 . S
N1734 C1737 1.350 . S
N1735 S1733 1.610 . S
N1735 C1736 1.351 . S
C1736 C1730 1.428 . S
C1736 N1735 1.351 . S
C1736 C1737 1.434 . S
C1737 C1728 1.429 . S
C1737 N1734 1.350 . S
C1737 C1736 1.434 . S
C1738 C1739 1.369 . S
C1738 C1740 1.419 . S
C1738 H1742 0.930 . S
C1739 C1738 1.369 . S
C1739 C1748 1.429 . S
C1740 C1738 1.419 . S
C1740 C1741 1.363 . S
C1740 H1743 0.929 . S
C1741 C1740 1.363 . S
C1741 C1747 1.428 . S
H1742 C1738 0.930 . S
H1743 C1740 0.929 . S
S1744 N1745 1.613 . S
S1744 N1746 1.610 . S
N1745 S1744 1.613 . S
N1745 C1748 1.350 . S
N1746 S1744 1.610 . S
N1746 C1747 1.351 . S
C1747 C1741 1.428 . S
C1747 N1746 1.351 . S
C1747 C1748 1.434 . S
C1748 C1739 1.429 . S
C1748 N1745 1.350 . S
C1748 C1747 1.434 . S
C1749 C1750 1.369 . S
C1749 C1751 1.419 . S
C1749 H1753 0.930 . S
C1750 C1749 1.369 . S
C1750 C1759 1.429 . S
C1751 C1749 1.419 . S
C1751 C1752 1.363 . S
C1751 H1754 0.929 . S
C1752 C1751 1.363 . S
C1752 C1758 1.428 . S
H1753 C1749 0.930 . S
H1754 C1751 0.929 . S
S1755 N1756 1.613 . S
S1755 N1757 1.610 . S
N1756 S1755 1.613 . S
N1756 C1759 1.350 . S
N1757 S1755 1.610 . S
N1757 C1758 1.351 . S
C1758 C1752 1.428 . S
C1758 N1757 1.351 . S
C1758 C1759 1.434 . S
C1759 C1750 1.429 . S
C1759 N1756 1.350 . S
C1759 C1758 1.434 . S
C707 C352 1.284 . S
C705 C7 1.320 . S
C716 C22 1.541 . S
C718 C380 1.402 . S
C727 C31 1.317 . S
C729 C398 1.271 . S
C740 C424 1.399 . S
C738 C51 1.609 . S
C749 C17 1.630 . S
C751 C447 1.414 . S
C762 C467 1.235 . S
C760 C36 1.269 . S
C773 C495 1.446 . S
C771 C49 1.579 . S
C782 C9 1.292 . S
C784 C513 1.264 . S
C793 C63 1.445 . S
C795 C354 1.488 1_545 S
C804 C73 1.285 . S
C806 C376 1.239 . S
C817 C400 1.500 . S
C815 C91 1.457 1_545 S
C828 C421 1.268 . S
C826 C101 1.303 . S
C837 C59 1.320 . S
C839 C444 1.274 . S
C850 C469 1.489 . S
C848 C77 1.441 . S
C861 C491 1.241 . S
C859 C87 1.282 . S
C872 C515 1.488 . S
C870 C105 1.442 . S
C883 C355 1.127 . S
C881 C107 1.291 . S
C894 C538 1.301 . S
C892 C120 1.296 . S
C903 C135 1.299 . S
C905 C562 1.121 . S
C916 C586 1.236 . S
C914 C148 1.280 . S
C925 C65 1.272 . S
C927 C516 1.097 . S
C938 C401 1.145 . S
C936 C79 1.320 . S
C947 C134 1.257 . S
C949 C607 1.263 . S
C960 C632 1.208 . S
C958 C162 1.253 . S
C969 C171 1.307 . S
C971 C353 1.276 . S
C982 C630 1.192 . S
C980 C190 1.184 . S
C991 C203 1.262 . S
C993 C399 1.280 . S
C1002 C219 1.177 . S
C1004 C609 1.141 . S
C1015 C448 1.156 . S
C1013 C189 1.160 . S
C1026 C560 1.243 . S
C1024 C204 1.257 . S
C1037 C492 1.240 . S
C1035 C213 1.230 . S
C1048 C652 1.262 . S
C1046 C177 1.301 . S
C1059 C357 1.121 . S
C1057 C227 1.215 . S
C1068 C245 1.367 . S
C1070 C628 1.400 . S
C1081 C403 1.123 . S
C1079 C255 1.227 1_565 S
C1090 C273 1.368 . S
C1092 C606 1.384 . S
C1101 C231 1.375 . S
C1103 C445 1.392 . S
C1112 C241 1.218 . S
C1114 C564 1.120 . S
C1125 C490 1.398 . S
C1123 C259 1.365 . S
C1134 C269 1.213 . S
C1136 C656 1.121 . S
C1145 C275 1.439 . S
C1147 C356 1.371 . S
C1156 C288 1.403 1_556 S
C1158 C541 1.291 . S
C1167 C303 1.415 . S
C1169 C471 1.347 . S
C1178 C316 1.390 . S
C1180 C585 1.239 . S
C1191 C655 1.347 . S
C1189 C233 1.402 . S
C1202 C402 1.381 . S
C1200 C247 1.448 . S
C1213 C426 1.273 . S
C1211 C302 1.362 . S
C1224 C378 1.208 . S
C1222 C330 1.365 . S
C1233 C35 1.311 . S
C1235 C674 1.277 . S
C1246 C633 1.402 . S
C1244 C50 1.542 . S
C1257 C697 1.279 . S
C1255 C3 1.313 . S
C1266 C23 1.610 . S
C1268 C608 1.391 . S
C1277 C45 1.625 . S
C1279 C539 1.413 . S
C1290 C559 1.227 . S
C1288 C8 1.273 . S
C1301 C587 1.451 . S
C1299 C21 1.578 . S
C1312 C651 1.262 . S
C1310 C37 1.291 . S
C1323 C676 1.487 . S
C1321 C161 1.448 . S
C1332 C115 1.282 . S
C1334 C629 1.246 . S
C1343 C133 1.452 . S
C1345 C699 1.502 . S
C1356 C605 1.263 . S
C1354 C143 1.306 . S
C1367 C536 1.275 . S
C1365 C157 1.321 . S
C1376 C119 1.442 . S
C1378 C561 1.488 . S
C1389 C583 1.236 . S
C1387 C129 1.283 . S
C1398 C147 1.447 . S
C1400 C653 1.486 . S
C1411 C677 1.124 . S
C1409 C149 1.290 . S
C1422 C446 1.300 . S
C1420 C78 1.296 . S
C1433 C470 1.131 . S
C1431 C93 1.294 . S
C1442 C106 1.277 . S
C1444 C494 1.242 . S
C1455 C654 1.102 . S
C1453 C163 1.270 . S
C1464 C121 1.315 . S
C1466 C700 1.157 . S
C1477 C423 1.263 . S
C1475 C92 1.257 . S
C1488 C379 1.213 . S
C1486 C64 1.249 . S
C1497 C199 1.309 . S
C1499 C675 1.275 . S
C1510 C377 1.192 . S
C1508 C218 1.181 . S
C1521 C698 1.286 . S
C1519 C175 1.250 1_455 S
C1530 C191 1.183 . S
C1532 C425 1.133 . S
C1541 C217 1.159 . S
C1543 C540 1.158 . S
C1552 C176 1.254 . S
C1554 C468 1.244 . S
C1563 C185 1.230 . S
C1565 C584 1.240 . S
C1574 C205 1.302 . S
C1576 C514 1.266 . S
C1587 C679 1.119 . S
C1585 C325 1.216 . S
C1596 C287 1.378 . S
C1598 C375 1.393 . S
C1609 C702 1.121 . S
C1607 C297 1.228 . S
C1618 C315 1.364 . S
C1620 C422 1.385 . S
C1629 C329 1.375 . S
C1631 C537 1.392 . S
C1642 C472 1.122 . S
C1640 C283 1.216 . S
C1651 C301 1.366 . S
C1653 C582 1.398 . S
C1664 C518 1.111 . S
C1662 C311 1.219 . S
C1675 C678 1.372 . S
C1673 C317 1.439 . S
C1686 C449 1.294 . S
C1684 C246 1.401 . S
C1695 C261 1.416 . S
C1697 C563 1.343 . S
C1708 C493 1.238 . S
C1706 C274 1.391 1_556 S
C1719 C517 1.340 . S
C1717 C331 1.407 . S
C1728 C289 1.451 . S
C1730 C701 1.387 . S
C1741 C610 1.262 . S
C1739 C260 1.372 . S
C1752 C631 1.220 . S
C1750 C232 1.359 . S
