# Generated by pormake.
# Topology ocu, (6,8)-cn, num edge types: 1
# Building blocks:
#     Node 0, Type 0, BuildingBlock: KUMJIN_clean_sbu_1, # of connection points: 6
#     Node 1, Type 0, BuildingBlock: KUMJIN_clean_sbu_1, # of connection points: 6
#     Node 2, Type 0, BuildingBlock: KUMJIN_clean_sbu_1, # of connection points: 6
#     Node 3, Type 0, BuildingBlock: KUMJIN_clean_sbu_1, # of connection points: 6
#     Node 4, Type 0, BuildingBlock: KUMJIN_clean_sbu_1, # of connection points: 6
#     Node 5, Type 0, BuildingBlock: KUMJIN_clean_sbu_1, # of connection points: 6
#     Node 6, Type 0, BuildingBlock: KUMJIN_clean_sbu_1, # of connection points: 6
#     Node 7, Type 0, BuildingBlock: KUMJIN_clean_sbu_1, # of connection points: 6
#     Node 8, Type 1, BuildingBlock: TAGTUT_clean_sbu_1, # of connection points: 8
#     Node 9, Type 1, BuildingBlock: TAGTUT_clean_sbu_1, # of connection points: 8
#     Node 10, Type 1, BuildingBlock: TAGTUT_clean_sbu_1, # of connection points: 8
#     Node 11, Type 1, BuildingBlock: TAGTUT_clean_sbu_1, # of connection points: 8
#     Node 12, Type 1, BuildingBlock: TAGTUT_clean_sbu_1, # of connection points: 8
#     Node 13, Type 1, BuildingBlock: TAGTUT_clean_sbu_1, # of connection points: 8
#     Edge 14, Type (0, 1), BuildingBlock: ZUJKAS_clean_linker_0, # of connection points: 2
#     Edge 15, Type (0, 1), BuildingBlock: ZUJKAS_clean_linker_0, # of connection points: 2
#     Edge 16, Type (0, 1), BuildingBlock: ZUJKAS_clean_linker_0, # of connection points: 2
#     Edge 17, Type (0, 1), BuildingBlock: ZUJKAS_clean_linker_0, # of connection points: 2
#     Edge 18, Type (0, 1), BuildingBlock: ZUJKAS_clean_linker_0, # of connection points: 2
#     Edge 19, Type (0, 1), BuildingBlock: ZUJKAS_clean_linker_0, # of connection points: 2
#     Edge 20, Type (0, 1), BuildingBlock: ZUJKAS_clean_linker_0, # of connection points: 2
#     Edge 21, Type (0, 1), BuildingBlock: ZUJKAS_clean_linker_0, # of connection points: 2
#     Edge 22, Type (0, 1), BuildingBlock: ZUJKAS_clean_linker_0, # of connection points: 2
#     Edge 23, Type (0, 1), BuildingBlock: ZUJKAS_clean_linker_0, # of connection points: 2
#     Edge 24, Type (0, 1), BuildingBlock: ZUJKAS_clean_linker_0, # of connection points: 2
#     Edge 25, Type (0, 1), BuildingBlock: ZUJKAS_clean_linker_0, # of connection points: 2
#     Edge 26, Type (0, 1), BuildingBlock: ZUJKAS_clean_linker_0, # of connection points: 2
#     Edge 27, Type (0, 1), BuildingBlock: ZUJKAS_clean_linker_0, # of connection points: 2
#     Edge 28, Type (0, 1), BuildingBlock: ZUJKAS_clean_linker_0, # of connection points: 2
#     Edge 29, Type (0, 1), BuildingBlock: ZUJKAS_clean_linker_0, # of connection points: 2
#     Edge 30, Type (0, 1), BuildingBlock: ZUJKAS_clean_linker_0, # of connection points: 2
#     Edge 31, Type (0, 1), BuildingBlock: ZUJKAS_clean_linker_0, # of connection points: 2
#     Edge 32, Type (0, 1), BuildingBlock: ZUJKAS_clean_linker_0, # of connection points: 2
#     Edge 33, Type (0, 1), BuildingBlock: ZUJKAS_clean_linker_0, # of connection points: 2
#     Edge 34, Type (0, 1), BuildingBlock: ZUJKAS_clean_linker_0, # of connection points: 2
#     Edge 35, Type (0, 1), BuildingBlock: ZUJKAS_clean_linker_0, # of connection points: 2
#     Edge 36, Type (0, 1), BuildingBlock: ZUJKAS_clean_linker_0, # of connection points: 2
#     Edge 37, Type (0, 1), BuildingBlock: ZUJKAS_clean_linker_0, # of connection points: 2
#     Edge 38, Type (0, 1), BuildingBlock: ZUJKAS_clean_linker_0, # of connection points: 2
#     Edge 39, Type (0, 1), BuildingBlock: ZUJKAS_clean_linker_0, # of connection points: 2
#     Edge 40, Type (0, 1), BuildingBlock: ZUJKAS_clean_linker_0, # of connection points: 2
#     Edge 41, Type (0, 1), BuildingBlock: ZUJKAS_clean_linker_0, # of connection points: 2
#     Edge 42, Type (0, 1), BuildingBlock: ZUJKAS_clean_linker_0, # of connection points: 2
#     Edge 43, Type (0, 1), BuildingBlock: ZUJKAS_clean_linker_0, # of connection points: 2
#     Edge 44, Type (0, 1), BuildingBlock: ZUJKAS_clean_linker_0, # of connection points: 2
#     Edge 45, Type (0, 1), BuildingBlock: ZUJKAS_clean_linker_0, # of connection points: 2
#     Edge 46, Type (0, 1), BuildingBlock: ZUJKAS_clean_linker_0, # of connection points: 2
#     Edge 47, Type (0, 1), BuildingBlock: ZUJKAS_clean_linker_0, # of connection points: 2
#     Edge 48, Type (0, 1), BuildingBlock: ZUJKAS_clean_linker_0, # of connection points: 2
#     Edge 49, Type (0, 1), BuildingBlock: ZUJKAS_clean_linker_0, # of connection points: 2
#     Edge 50, Type (0, 1), BuildingBlock: ZUJKAS_clean_linker_0, # of connection points: 2
#     Edge 51, Type (0, 1), BuildingBlock: ZUJKAS_clean_linker_0, # of connection points: 2
#     Edge 52, Type (0, 1), BuildingBlock: ZUJKAS_clean_linker_0, # of connection points: 2
#     Edge 53, Type (0, 1), BuildingBlock: ZUJKAS_clean_linker_0, # of connection points: 2
#     Edge 54, Type (0, 1), BuildingBlock: ZUJKAS_clean_linker_0, # of connection points: 2
#     Edge 55, Type (0, 1), BuildingBlock: ZUJKAS_clean_linker_0, # of connection points: 2
#     Edge 56, Type (0, 1), BuildingBlock: ZUJKAS_clean_linker_0, # of connection points: 2
#     Edge 57, Type (0, 1), BuildingBlock: ZUJKAS_clean_linker_0, # of connection points: 2
#     Edge 58, Type (0, 1), BuildingBlock: ZUJKAS_clean_linker_0, # of connection points: 2
#     Edge 59, Type (0, 1), BuildingBlock: ZUJKAS_clean_linker_0, # of connection points: 2
#     Edge 60, Type (0, 1), BuildingBlock: ZUJKAS_clean_linker_0, # of connection points: 2
#     Edge 61, Type (0, 1), BuildingBlock: ZUJKAS_clean_linker_0, # of connection points: 2
# Relax obj value: 0.056
# Max RMSD: 0.172
# Mean RMSD: 0.096
data_MOF--net-ocu--node1-KUMJIN_clean_sbu_1--node2-TAGTUT_clean_sbu_1--edge1-ZUJKAS_clean_linker_0
_symmetry_space_group_name_H-M    P1
_symmetry_Int_Tables_number       1
_symmetry_cell_setting            triclinic
loop_
_symmetry_equiv_pos_as_xyz
'x, y, z'
_cell_length_a     50.589344
_cell_length_b     48.631943
_cell_length_c     54.033139
_cell_angle_alpha  98.538648
_cell_angle_beta   83.542849
_cell_angle_gamma 109.87574
loop_
_atom_site_label
_atom_site_type_symbol
_atom_site_fract_x
_atom_site_fract_y
_atom_site_fract_z
_atom_type_partial_charge
Eu0 Eu 0.23648 0.24669 0.2244 0.0
C1 C 0.30796 0.3194 0.3106 0.0
N2 N 0.31359 0.31024 0.28607 0.0
C3 C 0.34403 0.3593 0.28026 0.0
C4 C 0.31907 0.34933 0.32039 0.0
C5 C 0.33293 0.32942 0.2715 0.0
C6 C 0.33667 0.36942 0.30466 0.0
C7 C 0.28654 0.30747 0.35201 0.0
C8 C 0.29215 0.29866 0.32645 0.0
C9 C 0.29691 0.33734 0.36149 0.0
C10 C 0.31313 0.35819 0.34574 0.0
Eu11 Eu 0.29453 0.25858 0.27427 0.0
N12 N 0.28197 0.26986 0.31682 0.0
C13 C 0.27062 0.28595 0.36732 0.0
C14 C 0.26695 0.24872 0.3317 0.0
C15 C 0.26085 0.25644 0.35712 0.0
H16 H 0.34112 0.32192 0.25352 0.0
H17 H 0.24879 0.23962 0.36887 0.0
H18 H 0.19381 0.18066 0.24347 0.0
H19 H 0.28409 0.27169 0.13139 0.0
H20 H 0.26003 0.22589 0.32395 0.0
H21 H 0.26588 0.29187 0.38704 0.0
H22 H 0.2717 0.28288 0.1765 0.0
H23 H 0.35893 0.37438 0.26839 0.0
H24 H 0.29275 0.34452 0.38105 0.0
H25 H 0.32143 0.38109 0.35347 0.0
H26 H 0.17831 0.12873 0.22671 0.0
H27 H 0.34567 0.39254 0.3115 0.0
H28 H 0.26832 0.22017 0.11125 0.0
N29 N 0.22004 0.1953 0.21099 0.0
C30 C 0.22587 0.18769 0.18614 0.0
C31 C 0.19225 0.14498 0.21526 0.0
C32 C 0.21619 0.15802 0.17535 0.0
C33 C 0.20201 0.17462 0.22507 0.0
C34 C 0.19973 0.13655 0.19042 0.0
N35 N 0.25041 0.23813 0.18181 0.0
C36 C 0.26537 0.26032 0.16791 0.0
C37 C 0.24727 0.20234 0.14538 0.0
C38 C 0.24099 0.20967 0.17111 0.0
C39 C 0.26303 0.22495 0.13105 0.0
C40 C 0.27209 0.25406 0.14237 0.0
H41 H 0.19183 0.11357 0.18281 0.0
H42 H 0.21536 0.12802 0.14129 0.0
H43 H 0.24276 0.16673 0.11515 0.0
O44 O 0.21745 0.26831 0.20141 0.0
O45 O 0.27436 0.23157 0.21052 0.0
O46 O 0.28621 0.21781 0.24547 0.0
O47 O 0.19111 0.23546 0.2254 0.0
O48 O 0.27165 0.29041 0.22702 0.0
O49 O 0.30841 0.27702 0.23691 0.0
O50 O 0.31309 0.23681 0.29756 0.0
O51 O 0.25689 0.27392 0.28846 0.0
O52 O 0.24364 0.28701 0.25371 0.0
O53 O 0.33966 0.26759 0.272 0.0
O54 O 0.25822 0.21562 0.27347 0.0
O55 O 0.22162 0.22798 0.26152 0.0
C56 C 0.28719 0.21722 0.22097 0.0
C57 C 0.16602 0.25468 0.20061 0.0
C58 C 0.1408 0.27914 0.18038 0.0
C59 C 0.11556 0.25626 0.18506 0.0
C60 C 0.14047 0.2321 0.20499 0.0
C61 C 0.11548 0.23289 0.19717 0.0
C62 C 0.1662 0.27807 0.1879 0.0
C63 C 0.29841 0.29282 0.2251 0.0
C64 C 0.1921 0.25285 0.20893 0.0
C65 C 0.22257 0.1507 0.14978 0.0
C66 C 0.23806 0.17277 0.13486 0.0
C67 C 0.24362 0.288 0.27821 0.0
C68 C 0.3644 0.24792 0.29673 0.0
C69 C 0.38888 0.22275 0.3169 0.0
C70 C 0.41468 0.24376 0.31031 0.0
C71 C 0.3905 0.26881 0.29053 0.0
C72 C 0.3636 0.22505 0.31037 0.0
C73 C 0.41543 0.26674 0.29737 0.0
C74 C 0.23142 0.21326 0.2747 0.0
C75 C 0.33848 0.25075 0.28898 0.0
H76 H 0.09584 0.25631 0.17908 0.0
H77 H 0.1398 0.21361 0.21432 0.0
H78 H 0.09594 0.21531 0.20052 0.0
H79 H 0.18578 0.29555 0.1843 0.0
H80 H 0.43432 0.24248 0.31539 0.0
H81 H 0.3917 0.28689 0.28043 0.0
H82 H 0.34364 0.20887 0.31542 0.0
H83 H 0.4354 0.28296 0.29254 0.0
Eu84 Eu 0.74237 0.27746 0.24701 0.0
C85 C 0.82743 0.22368 0.19561 0.0
N86 N 0.80184 0.20875 0.20625 0.0
C87 C 0.79157 0.17539 0.16845 0.0
C88 C 0.83541 0.21588 0.1704 0.0
C89 C 0.78497 0.18356 0.19367 0.0
C90 C 0.81664 0.19202 0.15657 0.0
C91 C 0.87392 0.26001 0.20061 0.0
C92 C 0.84649 0.24553 0.21044 0.0
C93 C 0.88152 0.25313 0.17526 0.0
C94 C 0.86225 0.23127 0.16013 0.0
Eu95 Eu 0.79153 0.22678 0.24819 0.0
N96 N 0.83831 0.2523 0.23473 0.0
C97 C 0.893 0.28059 0.21672 0.0
C98 C 0.85715 0.27109 0.25091 0.0
C99 C 0.8847 0.2858 0.24207 0.0
H100 H 0.76663 0.16934 0.2031 0.0
H101 H 0.89944 0.30126 0.25475 0.0
H102 H 0.75957 0.32295 0.30034 0.0
H103 H 0.63878 0.20702 0.2168 0.0
H104 H 0.85052 0.27519 0.27045 0.0
H105 H 0.91428 0.29218 0.20987 0.0
H106 H 0.68996 0.23215 0.21165 0.0
H107 H 0.77758 0.15593 0.15835 0.0
H108 H 0.90245 0.26413 0.16729 0.0
H109 H 0.86864 0.22576 0.14074 0.0
H110 H 0.73698 0.33382 0.3416 0.0
H111 H 0.82191 0.1854 0.13713 0.0
H112 H 0.6127 0.21503 0.25725 0.0
N113 N 0.72252 0.29026 0.28672 0.0
C114 C 0.69423 0.27746 0.29067 0.0
C115 C 0.72477 0.31765 0.32758 0.0
C116 C 0.68025 0.28354 0.31384 0.0
C117 C 0.73766 0.31103 0.30429 0.0
C118 C 0.69598 0.3036 0.3325 0.0
N119 N 0.69333 0.25253 0.24933 0.0
C120 C 0.6791 0.23499 0.22966 0.0
C121 C 0.64984 0.24469 0.27505 0.0
C122 C 0.67925 0.25813 0.27147 0.0
C123 C 0.63528 0.22581 0.25522 0.0
C124 C 0.64995 0.22112 0.23239 0.0
H125 H 0.68601 0.30884 0.35056 0.0
H126 H 0.64001 0.27399 0.33531 0.0
H127 H 0.61338 0.24005 0.30137 0.0
O128 O 0.71942 0.29796 0.22767 0.0
O129 O 0.73317 0.24818 0.27855 0.0
O130 O 0.7463 0.20719 0.26321 0.0
O131 O 0.75914 0.32479 0.2442 0.0
O132 O 0.74036 0.24146 0.21473 0.0
O133 O 0.74958 0.20402 0.23044 0.0
O134 O 0.80875 0.2204 0.28135 0.0
O135 O 0.80859 0.27147 0.23377 0.0
O136 O 0.77154 0.27077 0.21352 0.0
O137 O 0.80389 0.18804 0.24874 0.0
O138 O 0.78806 0.25899 0.28207 0.0
O139 O 0.783 0.29859 0.26672 0.0
C140 C 0.73015 0.22007 0.27774 0.0
C141 C 0.73604 0.35029 0.22278 0.0
C142 C 0.71388 0.37298 0.19744 0.0
C143 C 0.73411 0.40046 0.20427 0.0
C144 C 0.75596 0.37799 0.22932 0.0
C145 C 0.7549 0.4029 0.22015 0.0
C146 C 0.71483 0.34792 0.20696 0.0
C147 C 0.73721 0.21347 0.21486 0.0
C148 C 0.73831 0.3239 0.23154 0.0
C149 C 0.65109 0.26969 0.31759 0.0
C150 C 0.63592 0.25038 0.29824 0.0
C151 C 0.79868 0.27914 0.21553 0.0
C152 C 0.8021 0.1718 0.28806 0.0
C153 C 0.81466 0.14362 0.31574 0.0
C154 C 0.78607 0.12655 0.31885 0.0
C155 C 0.77364 0.15484 0.29148 0.0
C156 C 0.82245 0.16632 0.30033 0.0
C157 C 0.76571 0.13229 0.30687 0.0
C158 C 0.79319 0.28742 0.28269 0.0
C159 C 0.81127 0.19522 0.27172 0.0
H160 H 0.73365 0.42019 0.19756 0.0
H161 H 0.7725 0.38043 0.2414 0.0
H162 H 0.77032 0.42418 0.22531 0.0
H163 H 0.69953 0.32659 0.20157 0.0
H164 H 0.77946 0.10902 0.33075 0.0
H165 H 0.7577 0.15898 0.2822 0.0
H166 H 0.84445 0.17943 0.29749 0.0
H167 H 0.74373 0.11919 0.30949 0.0
Eu168 Eu 0.7621 0.7218 0.27557 0.0
C169 C 0.82837 0.79942 0.18704 0.0
N170 N 0.8175 0.8086 0.2098 0.0
C171 C 0.86048 0.84908 0.2158 0.0
C172 C 0.85632 0.81425 0.17843 0.0
C173 C 0.83263 0.83402 0.22348 0.0
C174 C 0.87253 0.8389 0.1934 0.0
C175 C 0.82186 0.76677 0.14769 0.0
C176 C 0.81128 0.77585 0.17164 0.0
C177 C 0.84991 0.781 0.13959 0.0
C178 C 0.86708 0.8046 0.15491 0.0
Eu179 Eu 0.77025 0.78017 0.22014 0.0
N180 N 0.78438 0.76159 0.18012 0.0
C181 C 0.80386 0.74367 0.1325 0.0
C182 C 0.76626 0.74048 0.1648 0.0
C183 C 0.77582 0.73077 0.14096 0.0
H184 H 0.82334 0.84337 0.24013 0.0
H185 H 0.76149 0.71357 0.12905 0.0
H186 H 0.71142 0.65731 0.25498 0.0
H187 H 0.7702 0.77904 0.37038 0.0
H188 H 0.74446 0.73142 0.17088 0.0
H189 H 0.81124 0.7361 0.11401 0.0
H190 H 0.78724 0.76576 0.32711 0.0
H191 H 0.87249 0.86885 0.22697 0.0
H192 H 0.85846 0.77413 0.12135 0.0
H193 H 0.88856 0.81564 0.14816 0.0
H194 H 0.66232 0.62985 0.26699 0.0
H195 H 0.89406 0.85083 0.18742 0.0
H196 H 0.72014 0.75642 0.38432 0.0
N197 N 0.7153 0.69145 0.28563 0.0
C198 C 0.70355 0.6996 0.30824 0.0
C199 C 0.67351 0.6497 0.27856 0.0
C200 C 0.67577 0.68354 0.31637 0.0
C201 C 0.70128 0.66583 0.27155 0.0
C202 C 0.6605 0.65889 0.30084 0.0
N203 N 0.74716 0.73681 0.31659 0.0
C204 C 0.76537 0.75607 0.33299 0.0
C205 C 0.70934 0.72957 0.3488 0.0
C206 C 0.72004 0.72255 0.32432 0.0
C207 C 0.72752 0.75061 0.36531 0.0
C208 C 0.75581 0.76344 0.35753 0.0
H209 H 0.63912 0.64604 0.30641 0.0
H210 H 0.64316 0.67973 0.34659 0.0
H211 H 0.67263 0.71986 0.37502 0.0
O212 O 0.79735 0.7225 0.29628 0.0
O213 O 0.74367 0.75953 0.28755 0.0
O214 O 0.74612 0.7901 0.25666 0.0
O215 O 0.76609 0.68114 0.28386 0.0
O216 O 0.79802 0.7599 0.26187 0.0
O217 O 0.79121 0.80171 0.25579 0.0
O218 O 0.73594 0.78117 0.19922 0.0
O219 O 0.79036 0.74362 0.21038 0.0
O220 O 0.78092 0.70765 0.23781 0.0
O221 O 0.7719 0.82041 0.20622 0.0
O222 O 0.73247 0.74338 0.23318 0.0
O223 O 0.73939 0.70183 0.24039 0.0
C224 C 0.73806 0.78116 0.27916 0.0
C225 C 0.78704 0.68301 0.32088 0.0
C226 C 0.8079 0.66169 0.34831 0.0
C227 C 0.78296 0.65565 0.36396 0.0
C228 C 0.76233 0.6769 0.33679 0.0
C229 C 0.76041 0.66346 0.3583 0.0
C230 C 0.80995 0.67575 0.32689 0.0
C231 C 0.80072 0.78746 0.26937 0.0
C232 C 0.78812 0.69407 0.29679 0.0
C233 C 0.66451 0.6917 0.34017 0.0
C234 C 0.68129 0.71456 0.35638 0.0
C235 C 0.79243 0.71929 0.21695 0.0
C236 C 0.72836 0.8271 0.20532 0.0
C237 C 0.69651 0.85064 0.1943 0.0
C238 C 0.69577 0.86405 0.21917 0.0
C239 C 0.72742 0.84074 0.23004 0.0
C240 C 0.71266 0.83184 0.18753 0.0
C241 C 0.71102 0.85895 0.23693 0.0
C242 C 0.72916 0.71554 0.22689 0.0
C243 C 0.74691 0.80936 0.19769 0.0
H244 H 0.78098 0.64498 0.38063 0.0
H245 H 0.74424 0.68173 0.33225 0.0
H246 H 0.74123 0.65863 0.37039 0.0
H247 H 0.8289 0.67997 0.31443 0.0
H248 H 0.68331 0.87843 0.22488 0.0
H249 H 0.73969 0.83769 0.24393 0.0
H250 H 0.71374 0.8217 0.16833 0.0
H251 H 0.71039 0.86939 0.25603 0.0
Eu252 Eu 0.22833 0.77291 0.24478 0.0
C253 C 0.29121 0.71942 0.30227 0.0
N254 N 0.2991 0.7474 0.29609 0.0
C255 C 0.30976 0.76671 0.33866 0.0
C256 C 0.29117 0.71417 0.32727 0.0
C257 C 0.30981 0.77086 0.31359 0.0
C258 C 0.3 0.73828 0.34561 0.0
C259 C 0.27641 0.66667 0.28918 0.0
C260 C 0.28407 0.69584 0.28342 0.0
C261 C 0.27554 0.66144 0.31416 0.0
C262 C 0.28289 0.68511 0.33315 0.0
Eu263 Eu 0.29521 0.75127 0.25347 0.0
N264 N 0.28448 0.70142 0.25942 0.0
C265 C 0.26999 0.64358 0.26963 0.0
C266 C 0.27935 0.67909 0.24017 0.0
C267 C 0.27173 0.64985 0.245 0.0
H268 H 0.31898 0.79281 0.30833 0.0
H269 H 0.26724 0.63217 0.22972 0.0
H270 H 0.21189 0.74268 0.18658 0.0
H271 H 0.25291 0.88881 0.28503 0.0
H272 H 0.28104 0.68361 0.22102 0.0
H273 H 0.26404 0.62088 0.2733 0.0
H274 H 0.23592 0.83548 0.28645 0.0
H275 H 0.31751 0.78538 0.35264 0.0
H276 H 0.26951 0.63917 0.31896 0.0
H277 H 0.28254 0.68072 0.35228 0.0
H278 H 0.21541 0.75868 0.14452 0.0
H279 H 0.30021 0.73516 0.36502 0.0
H280 H 0.2639 0.90887 0.24425 0.0
N281 N 0.22893 0.78624 0.20457 0.0
C282 C 0.23783 0.81553 0.2025 0.0
C283 C 0.22197 0.77486 0.16063 0.0
C284 C 0.24042 0.82564 0.17892 0.0
C285 C 0.21998 0.76586 0.18437 0.0
C286 C 0.2326 0.80486 0.15783 0.0
N287 N 0.23998 0.8248 0.24671 0.0
C288 C 0.24172 0.8436 0.26842 0.0
C289 C 0.25288 0.86588 0.2225 0.0
C290 C 0.24399 0.83534 0.22411 0.0
C291 C 0.257 0.88527 0.24469 0.0
C292 C 0.25088 0.87404 0.26774 0.0
H293 H 0.23421 0.81177 0.1394 0.0
H294 H 0.25271 0.86424 0.15923 0.0
H295 H 0.26367 0.89948 0.19735 0.0
O296 O 0.18926 0.7833 0.24845 0.0
O297 O 0.26436 0.77856 0.21469 0.0
O298 O 0.2989 0.79479 0.24124 0.0
O299 O 0.18735 0.73804 0.246 0.0
O300 O 0.2493 0.79319 0.28201 0.0
O301 O 0.29596 0.79638 0.27287 0.0
O302 O 0.32703 0.75417 0.22279 0.0
O303 O 0.25106 0.72175 0.26506 0.0
O304 O 0.23191 0.75697 0.28108 0.0
O305 O 0.33821 0.75513 0.26047 0.0
O306 O 0.27395 0.72967 0.21691 0.0
O307 O 0.22739 0.72758 0.22648 0.0
C308 C 0.2899 0.79509 0.21971 0.0
C309 C 0.16043 0.75491 0.27843 0.0
C310 C 0.16407 0.77406 0.3226 0.0
C311 C 0.13779 0.75304 0.32813 0.0
C312 C 0.1343 0.734 0.28392 0.0
C313 C 0.12319 0.73289 0.30886 0.0
C314 C 0.17555 0.77372 0.29794 0.0
C315 C 0.27627 0.80505 0.28639 0.0
C316 C 0.17398 0.75676 0.25305 0.0
C317 C 0.25031 0.85603 0.17721 0.0
C318 C 0.25659 0.87609 0.19893 0.0
C319 C 0.23369 0.73085 0.28129 0.0
C320 C 0.36211 0.73426 0.22719 0.0
C321 C 0.36588 0.69193 0.19907 0.0
C322 C 0.39324 0.69772 0.20635 0.0
C323 C 0.38927 0.73986 0.23469 0.0
C324 C 0.35044 0.71011 0.20964 0.0
C325 C 0.40476 0.72152 0.2243 0.0
C326 C 0.24675 0.71802 0.21334 0.0
C327 C 0.34645 0.75429 0.23677 0.0
H328 H 0.12807 0.75283 0.34704 0.0
H329 H 0.12271 0.71864 0.26911 0.0
H330 H 0.10292 0.71685 0.31319 0.0
H331 H 0.19628 0.78902 0.29376 0.0
H332 H 0.40548 0.68371 0.19839 0.0
H333 H 0.39853 0.75851 0.2483 0.0
H334 H 0.32955 0.70581 0.20357 0.0
H335 H 0.42576 0.72587 0.23003 0.0
Eu336 Eu 0.24108 0.78123 0.75482 0.0
C337 C 0.32997 0.72079 0.7028 0.0
N338 N 0.30255 0.70815 0.7108 0.0
C339 C 0.29549 0.67302 0.6739 0.0
C340 C 0.34095 0.71038 0.67954 0.0
C341 C 0.2857 0.68366 0.69732 0.0
C342 C 0.32311 0.68668 0.6648 0.0
C343 C 0.37672 0.75462 0.71186 0.0
C344 C 0.34773 0.74276 0.71871 0.0
C345 C 0.38743 0.74508 0.68831 0.0
C346 C 0.36959 0.72308 0.67217 0.0
Eu347 Eu 0.28883 0.72785 0.75091 0.0
N348 N 0.33691 0.7516 0.74143 0.0
C349 C 0.39425 0.77503 0.72923 0.0
C350 C 0.35404 0.7701 0.759 0.0
C351 C 0.38289 0.7825 0.75304 0.0
H352 H 0.26482 0.67182 0.70467 0.0
H353 H 0.39637 0.79759 0.76684 0.0
H354 H 0.26487 0.83124 0.80417 0.0
H355 H 0.13619 0.70039 0.74206 0.0
H356 H 0.34539 0.77524 0.7776 0.0
H357 H 0.41665 0.78454 0.7247 0.0
H358 H 0.18416 0.73082 0.72842 0.0
H359 H 0.28186 0.65396 0.66308 0.0
H360 H 0.40963 0.75406 0.68265 0.0
H361 H 0.37835 0.7154 0.65433 0.0
H362 H 0.25064 0.84115 0.84885 0.0
H363 H 0.33077 0.67805 0.64683 0.0
H364 H 0.11852 0.7066 0.78643 0.0
N365 N 0.2281 0.79452 0.79696 0.0
C366 C 0.20164 0.77922 0.80555 0.0
C367 C 0.2368 0.82339 0.837 0.0
C368 C 0.19231 0.78443 0.83085 0.0
C369 C 0.2451 0.81734 0.81181 0.0
C370 C 0.21044 0.80655 0.84668 0.0
N371 N 0.19387 0.75299 0.76481 0.0
C372 C 0.17686 0.73327 0.74786 0.0
C373 C 0.15679 0.74111 0.79765 0.0
C374 C 0.18407 0.75786 0.78905 0.0
C375 C 0.1396 0.71996 0.78055 0.0
C376 C 0.14956 0.71629 0.7555 0.0
H377 H 0.20408 0.81119 0.86625 0.0
H378 H 0.1579 0.77088 0.85894 0.0
H379 H 0.12685 0.73292 0.82996 0.0
O380 O 0.213 0.79857 0.73872 0.0
O381 O 0.23787 0.74998 0.78345 0.0
O382 O 0.2425 0.70813 0.76119 0.0
O383 O 0.25066 0.82852 0.75536 0.0
O384 O 0.23607 0.74825 0.71978 0.0
O385 O 0.24948 0.70943 0.72882 0.0
O386 O 0.29564 0.71539 0.78655 0.0
O387 O 0.30793 0.77181 0.73558 0.0
O388 O 0.27092 0.77975 0.72023 0.0
O389 O 0.30318 0.69061 0.75126 0.0
O390 O 0.29071 0.76247 0.78445 0.0
O391 O 0.28439 0.80191 0.76959 0.0
C392 C 0.22936 0.7212 0.77871 0.0
C393 C 0.2365 0.8421 0.71987 0.0
C394 C 0.22079 0.8608 0.68651 0.0
C395 C 0.2491 0.87273 0.67759 0.0
C396 C 0.26452 0.85396 0.71033 0.0
C397 C 0.2707 0.86924 0.6894 0.0
C398 C 0.2147 0.84562 0.70788 0.0
C399 C 0.23782 0.72152 0.71473 0.0
C400 C 0.22977 0.82571 0.74198 0.0
C401 C 0.16532 0.76743 0.83951 0.0
C402 C 0.14763 0.74583 0.82297 0.0
C403 C 0.29783 0.78292 0.71964 0.0
C404 C 0.29862 0.66759 0.78772 0.0
C405 C 0.3176 0.63964 0.81037 0.0
C406 C 0.29371 0.61478 0.80561 0.0
C407 C 0.27465 0.6428 0.78327 0.0
C408 C 0.31972 0.66607 0.80167 0.0
C409 C 0.27218 0.61651 0.79239 0.0
C410 C 0.29541 0.79091 0.78505 0.0
C411 C 0.30437 0.69407 0.77546 0.0
H412 H 0.25465 0.88509 0.6616 0.0
H413 H 0.28173 0.85143 0.71899 0.0
H414 H 0.29236 0.87847 0.68232 0.0
H415 H 0.19304 0.83611 0.71497 0.0
H416 H 0.29175 0.59412 0.81215 0.0
H417 H 0.25834 0.6436 0.77227 0.0
H418 H 0.33849 0.6851 0.80473 0.0
H419 H 0.25381 0.59728 0.78878 0.0
Eu420 Eu 0.25878 0.22365 0.77681 0.0
C421 C 0.32814 0.30471 0.68935 0.0
N422 N 0.31484 0.31262 0.71113 0.0
C423 C 0.35281 0.3582 0.71736 0.0
C424 C 0.35489 0.3231 0.6811 0.0
C425 C 0.32616 0.33945 0.7246 0.0
C426 C 0.36741 0.34983 0.69569 0.0
C427 C 0.32683 0.27107 0.65108 0.0
C428 C 0.31434 0.27891 0.6745 0.0
C429 C 0.3539 0.28878 0.64328 0.0
C430 C 0.36791 0.31469 0.65827 0.0
Eu431 Eu 0.2707 0.27851 0.7221 0.0
N432 N 0.28835 0.26184 0.68267 0.0
C433 C 0.31147 0.24595 0.63597 0.0
C434 C 0.27248 0.23868 0.66729 0.0
C435 C 0.28398 0.22997 0.64395 0.0
H436 H 0.31454 0.34659 0.74083 0.0
H437 H 0.27156 0.21114 0.63204 0.0
H438 H 0.20473 0.16122 0.75974 0.0
H439 H 0.26777 0.30323 0.86055 0.0
H440 H 0.25106 0.22699 0.67313 0.0
H441 H 0.32032 0.2392 0.61784 0.0
H442 H 0.2844 0.28044 0.8207 0.0
H443 H 0.36192 0.37925 0.72832 0.0
H444 H 0.36396 0.28295 0.62545 0.0
H445 H 0.38855 0.32844 0.65174 0.0
H446 H 0.15557 0.1371 0.77434 0.0
H447 H 0.38795 0.36455 0.69 0.0
H448 H 0.21868 0.28146 0.87754 0.0
N449 N 0.21161 0.19733 0.78877 0.0
C450 C 0.20108 0.2088 0.81068 0.0
C451 C 0.16805 0.15741 0.78456 0.0
C452 C 0.17312 0.19523 0.81992 0.0
C453 C 0.19588 0.17149 0.77611 0.0
C454 C 0.15653 0.16945 0.80641 0.0
N455 N 0.24505 0.24744 0.81463 0.0
C456 C 0.26295 0.27132 0.8277 0.0
C457 C 0.20788 0.24631 0.84688 0.0
C458 C 0.21833 0.23416 0.82414 0.0
C459 C 0.22587 0.27158 0.85993 0.0
C460 C 0.25358 0.284 0.85038 0.0
H461 H 0.13496 0.1584 0.81291 0.0
H462 H 0.14114 0.1975 0.84966 0.0
H463 H 0.17149 0.24217 0.87316 0.0
O464 O 0.29112 0.22212 0.79989 0.0
O465 O 0.23336 0.25568 0.77947 0.0
O466 O 0.25914 0.29775 0.761 0.0
O467 O 0.25397 0.18406 0.79354 0.0
O468 O 0.30042 0.25822 0.76711 0.0
O469 O 0.29349 0.2992 0.75729 0.0
O470 O 0.23141 0.27545 0.70675 0.0
O471 O 0.29358 0.24438 0.71363 0.0
O472 O 0.27896 0.20728 0.74028 0.0
O473 O 0.26794 0.31423 0.70366 0.0
O474 O 0.23216 0.24015 0.73156 0.0
O475 O 0.23997 0.19987 0.74084 0.0
C476 C 0.23956 0.28396 0.77733 0.0
C477 C 0.29626 0.17516 0.79599 0.0
C478 C 0.32731 0.15128 0.80813 0.0
C479 C 0.32718 0.13633 0.78376 0.0
C480 C 0.29643 0.15997 0.77178 0.0
C481 C 0.31194 0.14082 0.76569 0.0
C482 C 0.31202 0.17105 0.8141 0.0
C483 C 0.30581 0.28673 0.7702 0.0
C484 C 0.27879 0.1943 0.80244 0.0
C485 C 0.16262 0.20758 0.8424 0.0
C486 C 0.17993 0.233 0.85582 0.0
C487 C 0.29356 0.21932 0.7204 0.0
C488 C 0.22392 0.32088 0.70737 0.0
C489 C 0.19379 0.3461 0.69579 0.0
C490 C 0.19418 0.36068 0.72032 0.0
C491 C 0.22398 0.3355 0.73179 0.0
C492 C 0.20853 0.32592 0.68948 0.0
C493 C 0.20903 0.35519 0.73824 0.0
C494 C 0.2301 0.21245 0.72601 0.0
C495 C 0.24131 0.30189 0.69999 0.0
H496 H 0.33897 0.12121 0.77868 0.0
H497 H 0.28415 0.16255 0.75771 0.0
H498 H 0.3119 0.12919 0.74698 0.0
H499 H 0.31176 0.1825 0.8329 0.0
H500 H 0.1829 0.37625 0.72563 0.0
H501 H 0.23599 0.33212 0.74569 0.0
H502 H 0.20881 0.31493 0.6705 0.0
H503 H 0.20925 0.36651 0.75708 0.0
Eu504 Eu 0.73802 0.27644 0.74102 0.0
C505 C 0.78674 0.201 0.79954 0.0
N506 N 0.79403 0.23004 0.79702 0.0
C507 C 0.80222 0.24291 0.84069 0.0
C508 C 0.7858 0.19169 0.82323 0.0
C509 C 0.80287 0.25105 0.81682 0.0
C510 C 0.79331 0.21308 0.84398 0.0
C511 C 0.7745 0.15039 0.78023 0.0
C512 C 0.78135 0.18067 0.77822 0.0
C513 C 0.77216 0.1409 0.80395 0.0
C514 C 0.7779 0.1615 0.82538 0.0
Eu515 Eu 0.79482 0.24205 0.75636 0.0
N516 N 0.78454 0.19058 0.75544 0.0
C517 C 0.77117 0.13063 0.75825 0.0
C518 C 0.78333 0.17157 0.73392 0.0
C519 C 0.77603 0.14133 0.735 0.0
H520 H 0.81039 0.27405 0.81412 0.0
H521 H 0.77455 0.12634 0.71787 0.0
H522 H 0.71063 0.2315 0.68916 0.0
H523 H 0.79606 0.39409 0.75149 0.0
H524 H 0.78825 0.17949 0.71577 0.0
H525 H 0.76585 0.10721 0.75901 0.0
H526 H 0.7711 0.34528 0.76575 0.0
H527 H 0.80874 0.25961 0.85648 0.0
H528 H 0.7667 0.11771 0.80584 0.0
H529 H 0.77673 0.1539 0.84346 0.0
H530 H 0.71395 0.23283 0.64361 0.0
H531 H 0.79289 0.20682 0.86249 0.0
H532 H 0.80081 0.39973 0.70627 0.0
N533 N 0.73844 0.27529 0.69695 0.0
C534 C 0.75207 0.30139 0.68763 0.0
C535 C 0.72517 0.25215 0.65572 0.0
C536 C 0.75368 0.30348 0.6617 0.0
C537 C 0.72393 0.25123 0.68158 0.0
C538 C 0.74041 0.27829 0.64569 0.0
N539 N 0.7626 0.32359 0.72894 0.0
C540 C 0.77332 0.34753 0.74598 0.0
C541 C 0.7781 0.35373 0.69514 0.0
C542 C 0.76405 0.32632 0.70411 0.0
C543 C 0.78984 0.37829 0.71243 0.0
C544 C 0.7873 0.37519 0.73797 0.0
H545 H 0.74114 0.27899 0.62567 0.0
H546 H 0.76956 0.33262 0.63276 0.0
H547 H 0.79101 0.37656 0.66203 0.0
O548 O 0.7148 0.30467 0.75968 0.0
O549 O 0.78463 0.29349 0.72866 0.0
O550 O 0.79501 0.25168 0.71676 0.0
O551 O 0.69422 0.26815 0.73292 0.0
O552 O 0.75424 0.29246 0.78012 0.0
O553 O 0.79874 0.28928 0.77143 0.0
O554 O 0.83328 0.23113 0.75536 0.0
O555 O 0.75804 0.23882 0.78562 0.0
O556 O 0.72201 0.23623 0.76203 0.0
O557 O 0.83614 0.27617 0.75373 0.0
O558 O 0.77021 0.21912 0.72166 0.0
O559 O 0.72734 0.22736 0.72832 0.0
C560 C 0.79779 0.27847 0.71301 0.0
C561 C 0.66845 0.27722 0.77048 0.0
C562 C 0.65768 0.27443 0.8153 0.0
C563 C 0.6293 0.27052 0.81173 0.0
C564 C 0.64047 0.27372 0.76719 0.0
C565 C 0.62068 0.26912 0.78769 0.0
C566 C 0.67596 0.27416 0.79383 0.0
C567 C 0.78056 0.29939 0.78574 0.0
C568 C 0.69091 0.2877 0.75105 0.0
C569 C 0.76801 0.33067 0.65263 0.0
C570 C 0.78015 0.35572 0.6693 0.0
C571 C 0.73106 0.23078 0.78201 0.0
C572 C 0.86596 0.25703 0.72587 0.0
C573 C 0.86944 0.23388 0.68305 0.0
C574 C 0.89586 0.25547 0.67913 0.0
C575 C 0.8922 0.27848 0.72187 0.0
C576 C 0.85434 0.2357 0.70616 0.0
C577 C 0.90695 0.27785 0.69839 0.0
C578 C 0.74326 0.21179 0.71763 0.0
C579 C 0.84939 0.25705 0.74988 0.0
H580 H 0.61391 0.27031 0.82733 0.0
H581 H 0.63415 0.27534 0.7491 0.0
H582 H 0.599 0.26662 0.78527 0.0
H583 H 0.69718 0.27454 0.79542 0.0
H584 H 0.9083 0.25466 0.66155 0.0
H585 H 0.90114 0.29562 0.73677 0.0
H586 H 0.83337 0.22015 0.70895 0.0
H587 H 0.92728 0.29437 0.69526 0.0
Eu588 Eu 0.73811 0.74282 0.72154 0.0
C589 C 0.81575 0.82152 0.80927 0.0
N590 N 0.82298 0.80831 0.78677 0.0
C591 C 0.8638 0.8507 0.78133 0.0
C592 C 0.83224 0.85025 0.81847 0.0
C593 C 0.847 0.8221 0.77306 0.0
C594 C 0.8563 0.86492 0.80404 0.0
C595 C 0.78441 0.81896 0.84707 0.0
C596 C 0.79203 0.80609 0.82344 0.0
C597 C 0.80063 0.84768 0.85612 0.0
C598 C 0.82443 0.8633 0.84184 0.0
Eu599 Eu 0.79282 0.76012 0.77482 0.0
N600 N 0.77615 0.77862 0.81393 0.0
C601 C 0.7607 0.80252 0.86093 0.0
C602 C 0.75386 0.762 0.82778 0.0
C603 C 0.74553 0.77382 0.85134 0.0
H604 H 0.85363 0.81095 0.75596 0.0
H605 H 0.72757 0.76071 0.86216 0.0
H606 H 0.68036 0.68728 0.73905 0.0
H607 H 0.80977 0.74773 0.63778 0.0
H608 H 0.7427 0.73961 0.82078 0.0
H609 H 0.75417 0.81163 0.87918 0.0
H610 H 0.78996 0.76727 0.67761 0.0
H611 H 0.88269 0.86165 0.77031 0.0
H612 H 0.79502 0.85799 0.87418 0.0
H613 H 0.83681 0.88538 0.84916 0.0
H614 H 0.65591 0.63533 0.72413 0.0
H615 H 0.86948 0.88703 0.81045 0.0
H616 H 0.78792 0.69571 0.62047 0.0
N617 N 0.71236 0.69309 0.70919 0.0
C618 C 0.72181 0.68101 0.68709 0.0
C619 C 0.67455 0.64786 0.71366 0.0
C620 C 0.70811 0.65146 0.67769 0.0
C621 C 0.68874 0.67724 0.72226 0.0
C622 C 0.68434 0.63485 0.69137 0.0
N623 N 0.75875 0.72647 0.68357 0.0
C624 C 0.78095 0.74445 0.67061 0.0
C625 C 0.75568 0.68619 0.65092 0.0
C626 C 0.74541 0.69822 0.6738 0.0
C627 C 0.77936 0.70415 0.63808 0.0
C628 C 0.79187 0.73349 0.64786 0.0
H629 H 0.67325 0.61208 0.68476 0.0
H630 H 0.70823 0.61672 0.64754 0.0
H631 H 0.74983 0.64706 0.62417 0.0
O632 O 0.73304 0.77419 0.69881 0.0
O633 O 0.76543 0.71311 0.72101 0.0
O634 O 0.80754 0.74301 0.73627 0.0
O635 O 0.69803 0.73521 0.70584 0.0
O636 O 0.77335 0.7872 0.72507 0.0
O637 O 0.81085 0.77788 0.73812 0.0
O638 O 0.7959 0.72331 0.79195 0.0
O639 O 0.76412 0.78869 0.78011 0.0
O640 O 0.72383 0.76412 0.75869 0.0
O641 O 0.83084 0.76398 0.79235 0.0
O642 O 0.75518 0.71766 0.77229 0.0
O643 O 0.71819 0.72717 0.75841 0.0
C644 C 0.79292 0.72006 0.72162 0.0
C645 C 0.68754 0.77802 0.70307 0.0
C646 C 0.66257 0.80839 0.69096 0.0
C647 C 0.65238 0.81241 0.71609 0.0
C648 C 0.67682 0.78201 0.72792 0.0
C649 C 0.65945 0.79921 0.73441 0.0
C650 C 0.68025 0.79108 0.68454 0.0
C651 C 0.80055 0.79254 0.72547 0.0
C652 C 0.70623 0.76022 0.6966 0.0
C653 C 0.71845 0.63941 0.65499 0.0
C654 C 0.74214 0.65671 0.64166 0.0
C655 C 0.73772 0.7844 0.77598 0.0
C656 C 0.84182 0.72068 0.79059 0.0
C657 C 0.87167 0.69544 0.80283 0.0
C658 C 0.88275 0.69315 0.77782 0.0
C659 C 0.85316 0.71821 0.76579 0.0
C660 C 0.8509 0.70904 0.80905 0.0
C661 C 0.87342 0.70436 0.75944 0.0
C662 C 0.72824 0.71441 0.77306 0.0
C663 C 0.8219 0.73696 0.79759 0.0
H664 H 0.63845 0.82529 0.7215 0.0
H665 H 0.68172 0.77157 0.74222 0.0
H666 H 0.65127 0.80214 0.75365 0.0
H667 H 0.68845 0.78795 0.66529 0.0
H668 H 0.89857 0.68256 0.77247 0.0
H669 H 0.84671 0.72744 0.75146 0.0
H670 H 0.84246 0.71137 0.82831 0.0
H671 H 0.88214 0.70262 0.74027 0.0
C672 C 0.9235 0.02757 0.52564 0.0
C673 C 0.97671 0.0503 0.45917 0.0
C674 C 0.9874 0.94304 0.45886 0.0
Mg675 Mg 0.98808 0.05467 0.51485 0.0
O676 O 0.98347 0.01469 0.50977 0.0
Mg677 Mg 0.95523 0.98697 0.48658 0.0
Mg678 Mg 0.01561 1.00058 0.49899 0.0
O679 O 0.04739 0.98575 0.48877 0.0
Mg680 Mg 0.04251 0.94565 0.48439 0.0
Mg681 Mg 0.07543 0.01303 0.51224 0.0
C682 C 0.04271 0.05721 0.54035 0.0
C683 C 0.0656 0.04886 0.4697 0.0
O684 O 0.9223 0.00535 0.50921 0.0
O685 O 0.94641 0.04813 0.53141 0.0
O686 O 0.96414 0.02261 0.45972 0.0
O687 O 0.98931 0.06687 0.47792 0.0
O688 O 0.02508 0.07014 0.53754 0.0
O689 O 0.04042 0.03119 0.52988 0.0
C690 C 0.96669 0.9509 0.52784 0.0
O691 O 0.99305 0.96561 0.5256 0.0
O692 O 0.94877 0.9543 0.51465 0.0
O693 O 0.10806 0.99425 0.4903 0.0
O694 O 0.08386 0.95285 0.46653 0.0
O695 O 0.06657 0.97843 0.53996 0.0
C696 C 0.10683 0.97302 0.47287 0.0
O697 O 0.04328 0.9337 0.52133 0.0
O698 O 1.00433 0.92975 0.46293 0.0
C699 C 0.0552 0.95056 0.54028 0.0
O700 O 0.99068 0.96974 0.46808 0.0
O701 O 0.03878 0.03618 0.4722 0.0
O702 O 0.08234 0.04402 0.48326 0.0
C703 C 0.4541 0.06802 0.05185 0.0
C704 C 0.47762 0.06316 0.97231 0.0
C705 C 0.46386 0.94971 0.97506 0.0
Mg706 Mg 0.51016 0.07076 0.01928 0.0
O707 O 0.49607 0.02979 0.01998 0.0
Mg708 Mg 0.45669 0.00877 0.00969 0.0
Mg709 Mg 0.51571 0.00331 0.99937 0.0
O710 O 0.53531 0.97676 0.97881 0.0
Mg711 Mg 0.52114 0.93581 0.97979 0.0
Mg712 Mg 0.57458 0.99761 0.98946 0.0
C713 C 0.56723 0.05654 0.02468 0.0
C714 C 0.55855 0.03872 0.95536 0.0
O715 O 0.44227 0.04251 0.03978 0.0
O716 O 0.48041 0.0823 0.04787 0.0
O717 O 0.46116 0.03899 0.97967 0.0
O718 O 0.49949 0.07884 0.98385 0.0
O719 O 0.5538 0.07514 0.02626 0.0
O720 O 0.55584 0.02901 0.01739 0.0
C721 C 0.47332 0.96802 0.04354 0.0
O722 O 0.49743 0.97265 0.03117 0.0
O723 O 0.45537 0.97956 0.03893 0.0
O724 O 0.58902 0.9637 0.95957 0.0
O725 O 0.5508 0.92404 0.95125 0.0
O726 O 0.56983 0.96726 0.01944 0.0
C727 C 0.57718 0.9382 0.94746 0.0
O728 O 0.53145 0.92752 0.01524 0.0
O729 O 0.47739 0.93123 0.97347 0.0
C730 C 0.55331 0.94311 0.0268 0.0
O731 O 0.47537 0.9774 0.98163 0.0
O732 O 0.53427 0.03405 0.96748 0.0
O733 O 0.5763 0.02707 0.96025 0.0
C734 C 0.95379 0.56514 0.04913 0.0
C735 C 0.9798 0.56302 0.97094 0.0
C736 C 0.96645 0.44843 0.97166 0.0
Mg737 Mg 1.01079 0.5685 0.01815 0.0
O738 O 0.99628 0.52751 0.01901 0.0
Mg739 Mg 0.95758 0.50662 0.00672 0.0
Mg740 Mg 0.01714 0.50247 0.9986 0.0
O741 O 0.03818 0.47763 0.97807 0.0
Mg742 Mg 0.02433 0.43672 0.97892 0.0
Mg743 Mg 0.07728 0.49921 0.98938 0.0
C744 C 0.06802 0.55632 0.0263 0.0
C745 C 0.05996 0.54113 0.95712 0.0
O746 O 0.94224 0.53934 0.03735 0.0
O747 O 0.98002 0.57975 0.04525 0.0
O748 O 0.96287 0.53879 0.97786 0.0
O749 O 1.00195 0.57763 0.98248 0.0
O750 O 0.05406 0.57429 0.02711 0.0
O751 O 0.05736 0.52872 0.01852 0.0
C752 C 0.97301 0.46378 0.03941 0.0
O753 O 0.99826 0.47064 0.02915 0.0
O754 O 0.95491 0.47478 0.03415 0.0
O755 O 0.09249 0.4666 0.95836 0.0
O756 O 0.05478 0.42602 0.95093 0.0
O757 O 0.07346 0.46759 0.01811 0.0
C758 C 0.0809 0.44078 0.9466 0.0
O759 O 0.03452 0.42843 0.0145 0.0
O760 O 0.98053 0.43059 0.97106 0.0
C761 C 0.05697 0.44346 0.0255 0.0
O762 O 0.97726 0.47627 0.97849 0.0
O763 O 0.03515 0.53393 0.96813 0.0
O764 O 0.07882 0.53084 0.96182 0.0
C765 C 0.43505 0.53819 0.03256 0.0
C766 C 0.47873 0.55285 0.95981 0.0
C767 C 0.48102 0.44193 0.96537 0.0
Mg768 Mg 0.49776 0.56026 0.01348 0.0
O769 O 0.49018 0.51967 0.01069 0.0
Mg770 Mg 0.45806 0.49244 0.99109 0.0
Mg771 Mg 0.51869 0.50075 0.99884 0.0
O772 O 0.54653 0.48077 0.98717 0.0
Mg773 Mg 0.53451 0.44038 0.98972 0.0
Mg774 Mg 0.57829 0.50689 0.00749 0.0
C775 C 0.55535 0.56 0.03247 0.0
C776 C 0.5684 0.54172 0.96414 0.0
O777 O 0.43096 0.51557 0.01609 0.0
O778 O 0.45932 0.5578 0.03568 0.0
O779 O 0.46564 0.52563 0.9622 0.0
O780 O 0.49381 0.57016 0.97687 0.0
O781 O 0.53911 0.57445 0.0293 0.0
O782 O 0.54871 0.53212 0.02621 0.0
C783 C 0.4698 0.45656 0.03235 0.0
O784 O 0.49638 0.46911 0.02838 0.0
O785 O 0.45182 0.46129 0.0202 0.0
O786 O 0.60384 0.47887 0.9855 0.0
O787 O 0.57219 0.43548 0.97131 0.0
O788 O 0.56829 0.47628 0.03874 0.0
C789 C 0.59751 0.45324 0.97281 0.0
O790 O 0.53498 0.43355 0.02803 0.0
O791 O 0.49514 0.42646 0.97101 0.0
C792 C 0.55224 0.45069 0.04362 0.0
O793 O 0.48872 0.46992 0.97094 0.0
O794 O 0.54171 0.53254 0.96961 0.0
O795 O 0.58565 0.53505 0.97584 0.0
C796 C 0.95301 0.56531 0.55063 0.0
C797 C 0.98073 0.56243 0.47176 0.0
C798 C 0.96718 0.44914 0.47299 0.0
Mg799 Mg 1.0105 0.569 0.52007 0.0
O800 O 0.99648 0.52792 0.52002 0.0
Mg801 Mg 0.95779 0.50694 0.50814 0.0
Mg802 Mg 0.01736 0.50265 0.49938 0.0
O803 O 0.03848 0.47765 0.4789 0.0
Mg804 Mg 0.02488 0.43654 0.47867 0.0
Mg805 Mg 0.07713 0.49877 0.49123 0.0
C806 C 0.06698 0.55532 0.5278 0.0
C807 C 0.06216 0.54184 0.45828 0.0
O808 O 0.94177 0.53972 0.53839 0.0
O809 O 0.97932 0.5799 0.54723 0.0
O810 O 0.96362 0.53824 0.47858 0.0
O811 O 1.00217 0.57769 0.48403 0.0
O812 O 0.05333 0.57369 0.52953 0.0
O813 O 0.05642 0.52804 0.51944 0.0
C814 C 0.97342 0.46489 0.54155 0.0
O815 O 0.99797 0.47043 0.52987 0.0
O816 O 0.95547 0.47643 0.53684 0.0
O817 O 0.09322 0.46636 0.46072 0.0
O818 O 0.05546 0.42689 0.45016 0.0
O819 O 0.07172 0.46687 0.52005 0.0
C820 C 0.08187 0.44145 0.44751 0.0
O821 O 0.03427 0.42659 0.51386 0.0
O822 O 0.98128 0.43121 0.47159 0.0
C823 C 0.05545 0.44207 0.52633 0.0
O824 O 0.97794 0.47686 0.47993 0.0
O825 O 0.03689 0.53486 0.46862 0.0
O826 O 0.08027 0.5309 0.46364 0.0
C827 C 0.45067 0.06285 0.54894 0.0
C828 C 0.47789 0.06162 0.47099 0.0
C829 C 0.46482 0.94839 0.46914 0.0
Mg830 Mg 0.50819 0.06658 0.51825 0.0
O831 O 0.4937 0.02564 0.51883 0.0
Mg832 Mg 0.45513 0.005 0.50617 0.0
Mg833 Mg 0.51521 1.0009 0.49871 0.0
O834 O 0.53648 0.97622 0.47848 0.0
Mg835 Mg 0.52183 0.93498 0.4757 0.0
Mg836 Mg 0.57464 0.99584 0.4921 0.0
C837 C 0.56382 0.05302 0.53006 0.0
C838 C 0.56188 0.04059 0.45937 0.0
O839 O 0.43917 0.03696 0.53729 0.0
O840 O 0.47681 0.07758 0.54481 0.0
O841 O 0.4608 0.03775 0.4783 0.0
O842 O 0.50053 0.07591 0.48197 0.0
O843 O 0.54988 0.0709 0.53019 0.0
O844 O 0.55426 0.02577 0.52067 0.0
C845 C 0.46937 0.96097 0.5382 0.0
O846 O 0.49481 0.96801 0.52838 0.0
O847 O 0.45163 0.97237 0.5329 0.0
O848 O 0.59091 0.96367 0.46097 0.0
O849 O 0.55291 0.92607 0.4477 0.0
O850 O 0.56679 0.96198 0.51994 0.0
C851 C 0.57955 0.93979 0.44643 0.0
O852 O 0.52952 0.92235 0.51025 0.0
O853 O 0.47872 0.93025 0.46736 0.0
C854 C 0.54975 0.93661 0.52421 0.0
O855 O 0.4757 0.97582 0.47739 0.0
O856 O 0.53625 0.03376 0.46888 0.0
O857 O 0.57927 0.029 0.46522 0.0
H858 H 0.23946 0.17252 0.30062 0.0
H859 H 0.20694 0.14495 0.33244 0.0
H860 H 0.14567 0.18484 0.32133 0.0
H861 H 0.17791 0.21259 0.28979 0.0
H862 H 0.18427 0.17295 0.37713 0.0
H863 H 0.10022 0.09522 0.31841 0.0
H864 H 0.13539 0.11334 0.30549 0.0
H865 H 0.11115 0.13343 0.31364 0.0
C866 C 0.21899 0.17526 0.30482 0.0
C867 C 0.21138 0.19487 0.29273 0.0
C868 C 0.20044 0.15946 0.32294 0.0
C869 C 0.17382 0.16265 0.32899 0.0
C870 C 0.16592 0.18169 0.31661 0.0
H871 H 0.04257 0.07879 0.44295 0.0
H872 H 0.06682 0.10883 0.40887 0.0
C873 C 0.18448 0.19761 0.29863 0.0
C874 C 0.15514 0.14767 0.34952 0.0
H875 H 0.09259 0.09435 0.36229 0.0
C876 C 0.16419 0.15581 0.37391 0.0
C877 C 0.12874 0.12576 0.34527 0.0
C878 C 0.11823 0.11617 0.31929 0.0
C879 C 0.14779 0.14227 0.3942 0.0
C880 C 0.12191 0.11938 0.38988 0.0
C881 C 0.11237 0.1119 0.36557 0.0
C882 C 0.10635 0.101 0.40985 0.0
C883 C 0.1585 0.15256 0.42009 0.0
C884 C 0.12022 0.0861 0.42107 0.0
C885 C 0.10677 0.0696 0.4405 0.0
C886 C 0.07876 0.06693 0.44898 0.0
C887 C 0.06426 0.08077 0.43705 0.0
C888 C 0.07805 0.09783 0.4176 0.0
H889 H 0.17251 0.17589 0.42157 0.0
H890 H 0.14089 0.1504 0.43474 0.0
H891 H 0.17102 0.13903 0.42393 0.0
H892 H 0.14165 0.08728 0.4148 0.0
H893 H 0.11841 0.05855 0.44867 0.0
H894 H 0.85762 0.18336 0.3419 0.0
H895 H 0.8933 0.17316 0.36292 0.0
H896 H 0.85662 0.08049 0.3387 0.0
H897 H 0.82085 0.09043 0.31771 0.0
H898 H 0.87482 0.12377 0.40116 0.0
H899 H 0.94883 0.11219 0.31896 0.0
H900 H 0.92775 0.136 0.32073 0.0
H901 H 0.91151 0.09688 0.31492 0.0
C902 C 0.85731 0.16084 0.34092 0.0
C903 C 0.83641 0.13763 0.32828 0.0
C904 C 0.87764 0.15509 0.35293 0.0
C905 C 0.87759 0.12615 0.35213 0.0
C906 C 0.857 0.10299 0.33933 0.0
H907 H 0.95035 0.02293 0.41625 0.0
H908 H 0.93126 0.04533 0.38814 0.0
C909 C 0.8365 0.10867 0.32755 0.0
C910 C 0.89808 0.11968 0.36576 0.0
H911 H 0.95624 0.09789 0.35704 0.0
C912 C 0.89289 0.11855 0.39166 0.0
C913 C 0.92145 0.11283 0.35314 0.0
C914 C 0.928 0.11461 0.3254 0.0
C915 C 0.90999 0.10961 0.40521 0.0
C916 C 0.93302 0.10202 0.39251 0.0
C917 C 0.93864 0.10388 0.36668 0.0
C918 C 0.94982 0.08983 0.40568 0.0
C919 C 0.90263 0.10707 0.43283 0.0
C920 C 0.96775 0.1077 0.42396 0.0
C921 C 0.97883 0.09501 0.44005 0.0
C922 C 0.9719 0.0642 0.43821 0.0
C923 C 0.95597 0.04669 0.41835 0.0
C924 C 0.94503 0.05943 0.40223 0.0
H925 H 0.88213 0.11036 0.43916 0.0
H926 H 0.90166 0.08509 0.43711 0.0
H927 H 0.91927 0.12391 0.44383 0.0
H928 H 0.97179 0.13126 0.42674 0.0
H929 H 0.99114 0.10921 0.45501 0.0
H930 H 0.84102 0.77485 0.29046 0.0
H931 H 0.86695 0.80232 0.327 0.0
H932 H 0.82033 0.86301 0.33491 0.0
H933 H 0.79405 0.83549 0.29852 0.0
H934 H 0.89217 0.8796 0.32866 0.0
H935 H 0.82657 0.81985 0.40652 0.0
H936 H 0.82911 0.80025 0.37567 0.0
H937 H 0.81083 0.82652 0.38057 0.0
C938 C 0.83604 0.79379 0.30021 0.0
C939 C 0.81553 0.80305 0.29183 0.0
C940 C 0.85082 0.8094 0.32099 0.0
C941 C 0.84529 0.83443 0.33355 0.0
C942 C 0.82465 0.8436 0.32542 0.0
H943 H 0.95236 0.96602 0.44026 0.0
H944 H 0.91474 0.94066 0.41218 0.0
C945 C 0.80984 0.82799 0.30463 0.0
C946 C 0.86267 0.85211 0.35404 0.0
H947 H 0.87012 0.85612 0.41654 0.0
C948 C 0.8873 0.87479 0.34795 0.0
C949 C 0.85598 0.84554 0.379 0.0
C950 C 0.82918 0.82175 0.38609 0.0
C951 C 0.90611 0.89062 0.36623 0.0
C952 C 0.89985 0.88359 0.39117 0.0
C953 C 0.8748 0.86133 0.39736 0.0
C954 C 0.92003 0.89814 0.41062 0.0
C955 C 0.93304 0.91401 0.35858 0.0
C956 C 0.93479 0.88234 0.41961 0.0
C957 C 0.95628 0.89674 0.4358 0.0
C958 C 0.96324 0.92715 0.44333 0.0
C959 C 0.94754 0.94259 0.435 0.0
C960 C 0.92609 0.92819 0.41884 0.0
H961 H 0.93682 0.9133 0.33787 0.0
H962 H 0.93181 0.93605 0.36622 0.0
H963 H 0.95135 0.91143 0.36636 0.0
H964 H 0.93032 0.85908 0.41341 0.0
H965 H 0.9678 0.88415 0.44199 0.0
H966 H 0.16901 0.77353 0.3728 0.0
H967 H 0.18235 0.81692 0.40426 0.0
H968 H 0.2044 0.87362 0.34566 0.0
H969 H 0.19066 0.8313 0.31458 0.0
H970 H 0.23332 0.90006 0.39152 0.0
H971 H 0.11631 0.84975 0.40188 0.0
H972 H 0.13588 0.82722 0.40825 0.0
H973 H 0.13734 0.83655 0.37703 0.0
C974 C 0.1774 0.79524 0.36666 0.0
C975 C 0.17805 0.7989 0.34128 0.0
C976 C 0.18553 0.81992 0.38455 0.0
C977 C 0.19393 0.8483 0.37715 0.0
C978 C 0.1981 0.85188 0.35168 0.0
H979 H 0.11956 0.97338 0.42331 0.0
H980 H 0.15439 0.95358 0.39956 0.0
C981 C 0.18998 0.82743 0.33389 0.0
C982 C 0.18966 0.87281 0.39464 0.0
H983 H 0.13632 0.89611 0.42317 0.0
C984 C 0.21227 0.89917 0.39897 0.0
C985 C 0.1619 0.87172 0.4033 0.0
C986 C 0.13639 0.84496 0.39726 0.0
C987 C 0.2076 0.92463 0.41179 0.0
C988 C 0.1799 0.92322 0.42025 0.0
C989 C 0.15757 0.89678 0.4165 0.0
C990 C 0.17233 0.94867 0.4325 0.0
C991 C 0.2317 0.95308 0.41546 0.0
C992 C 0.17274 0.95463 0.45866 0.0
C993 C 0.15302 0.9662 0.47221 0.0
C994 C 0.13283 0.9713 0.45948 0.0
C995 C 0.135 0.96922 0.43327 0.0
C996 C 0.15509 0.95836 0.41977 0.0
H997 H 0.25208 0.95078 0.40723 0.0
H998 H 0.22747 0.97032 0.40671 0.0
H999 H 0.23341 0.96072 0.43581 0.0
H1000 H 0.18568 0.94685 0.46869 0.0
H1001 H 0.15146 0.96783 0.49251 0.0
H1002 H 0.17333 0.87332 0.70733 0.0
H1003 H 0.13851 0.88383 0.68553 0.0
H1004 H 0.18209 0.86779 0.61448 0.0
H1005 H 0.21663 0.85688 0.63597 0.0
H1006 H 0.1732 0.92165 0.62161 0.0
H1007 H 0.07418 0.83107 0.6414 0.0
H1008 H 0.09307 0.85041 0.66848 0.0
H1009 H 0.10859 0.82924 0.64499 0.0
C1010 C 0.17516 0.87141 0.68703 0.0
C1011 C 0.19799 0.86453 0.67344 0.0
C1012 C 0.15521 0.87741 0.6746 0.0
C1013 C 0.15761 0.87646 0.64835 0.0
C1014 C 0.17983 0.86869 0.63474 0.0
H1015 H 0.05033 0.89286 0.54156 0.0
H1016 H 0.07236 0.87421 0.5703 0.0
C1017 C 0.19969 0.86266 0.6471 0.0
C1018 C 0.13859 0.88597 0.63509 0.0
H1019 H 0.07009 0.86988 0.62169 0.0
C1020 C 0.15065 0.91035 0.62167 0.0
C1021 C 0.10924 0.87097 0.63492 0.0
C1022 C 0.09542 0.8438 0.64802 0.0
C1023 C 0.13423 0.92025 0.60816 0.0
C1024 C 0.10471 0.90585 0.60856 0.0
C1025 C 0.09262 0.88122 0.62177 0.0
C1026 C 0.08657 0.91546 0.5943 0.0
C1027 C 0.14887 0.94556 0.59296 0.0
C1028 C 0.08576 0.94435 0.59907 0.0
C1029 C 0.07336 0.95519 0.58257 0.0
C1030 C 0.06116 0.93719 0.56113 0.0
C1031 C 0.05954 0.90739 0.55783 0.0
C1032 C 0.07222 0.89666 0.57423 0.0
H1033 H 0.17179 0.94905 0.58952 0.0
H1034 H 0.13958 0.94176 0.57457 0.0
H1035 H 0.1464 0.96609 0.60337 0.0
H1036 H 0.0961 0.95903 0.61482 0.0
H1037 H 0.07477 0.97815 0.58587 0.0
H1038 H 0.23663 0.16284 0.69988 0.0
H1039 H 0.21258 0.13462 0.66267 0.0
H1040 H 0.16407 0.19333 0.6677 0.0
H1041 H 0.18852 0.22198 0.70438 0.0
H1042 H 0.15739 0.1052 0.65827 0.0
H1043 H 0.1927 0.19197 0.59493 0.0
H1044 H 0.20924 0.19529 0.62367 0.0
H1045 H 0.1776 0.2046 0.62414 0.0
C1046 C 0.2208 0.16963 0.69298 0.0
C1047 C 0.21448 0.19461 0.70475 0.0
C1048 C 0.20727 0.15366 0.67171 0.0
C1049 C 0.18713 0.1624 0.66212 0.0
C1050 C 0.18027 0.18689 0.67432 0.0
H1051 H 0.04049 0.08563 0.58708 0.0
H1052 H 0.07958 0.10873 0.61454 0.0
C1053 C 0.19403 0.20305 0.69537 0.0
C1054 C 0.17178 0.14498 0.64034 0.0
H1055 H 0.14902 0.15232 0.58542 0.0
C1056 C 0.15603 0.11529 0.64207 0.0
C1057 C 0.17051 0.15807 0.61901 0.0
C1058 C 0.1887 0.18915 0.6152 0.0
C1059 C 0.13723 0.09905 0.62392 0.0
C1060 C 0.13405 0.11307 0.60395 0.0
C1061 C 0.15131 0.14196 0.60114 0.0
C1062 C 0.11095 0.09906 0.58732 0.0
C1063 C 0.11998 0.06743 0.62667 0.0
C1064 C 0.11607 0.08649 0.56304 0.0
C1065 C 0.09383 0.07315 0.54751 0.0
C1066 C 0.06641 0.07267 0.55602 0.0
C1067 C 0.06153 0.08594 0.58014 0.0
C1068 C 0.08368 0.09889 0.5958 0.0
H1069 H 0.12848 0.05829 0.64043 0.0
H1070 H 0.09801 0.06606 0.63316 0.0
H1071 H 0.11937 0.05359 0.6083 0.0
H1072 H 0.13715 0.08681 0.55623 0.0
H1073 H 0.0982 0.06359 0.52882 0.0
H1074 H 0.84026 0.17724 0.69216 0.0
H1075 H 0.82962 0.13339 0.6622 0.0
H1076 H 0.86411 0.18645 0.60166 0.0
H1077 H 0.87381 0.23123 0.63156 0.0
H1078 H 0.80605 0.11166 0.60647 0.0
H1079 H 0.92028 0.14214 0.62189 0.0
H1080 H 0.89673 0.1561 0.64352 0.0
H1081 H 0.90827 0.17038 0.61397 0.0
C1082 C 0.84443 0.18 0.67242 0.0
C1083 C 0.85845 0.20791 0.6643 0.0
C1084 C 0.83811 0.15472 0.65531 0.0
C1085 C 0.84611 0.15687 0.6299 0.0
C1086 C 0.85763 0.18462 0.62133 0.0
H1087 H 0.88523 0.04626 0.50873 0.0
H1088 H 0.85494 0.06961 0.53597 0.0
C1089 C 0.8637 0.21008 0.63845 0.0
C1090 C 0.84983 0.13099 0.61425 0.0
H1091 H 0.90048 0.09984 0.59452 0.0
C1092 C 0.82661 0.10892 0.60368 0.0
C1093 C 0.8766 0.12743 0.61146 0.0
C1094 C 0.90195 0.15009 0.62338 0.0
C1095 C 0.82986 0.08342 0.5896 0.0
C1096 C 0.85679 0.08034 0.58637 0.0
C1097 C 0.87976 0.10224 0.59736 0.0
C1098 C 0.86299 0.05609 0.56999 0.0
C1099 C 0.80476 0.05993 0.57833 0.0
C1100 C 0.87601 0.03934 0.58004 0.0
C1101 C 0.89359 0.02651 0.56459 0.0
C1102 C 0.89773 0.02995 0.53904 0.0
C1103 C 0.88178 0.04315 0.52843 0.0
C1104 C 0.86439 0.05628 0.54394 0.0
H1105 H 0.78459 0.06256 0.58683 0.0
H1106 H 0.80586 0.06126 0.5579 0.0
H1107 H 0.80491 0.0377 0.5808 0.0
H1108 H 0.87539 0.03934 0.60016 0.0
H1109 H 0.90613 0.01663 0.57298 0.0
H1110 H 0.8506 0.78955 0.70373 0.0
H1111 H 0.88089 0.81887 0.67237 0.0
H1112 H 0.82583 0.87096 0.67796 0.0
H1113 H 0.79415 0.83993 0.70822 0.0
H1114 H 0.83853 0.85944 0.63241 0.0
H1115 H 0.93887 0.89651 0.67769 0.0
H1116 H 0.92537 0.85714 0.67432 0.0
H1117 H 0.9059 0.87808 0.69397 0.0
C1118 C 0.84513 0.80752 0.69856 0.0
C1119 C 0.82013 0.81263 0.70854 0.0
C1120 C 0.86266 0.8245 0.68074 0.0
C1121 C 0.85622 0.84778 0.67322 0.0
C1122 C 0.83143 0.85327 0.68355 0.0
H1123 H 0.97863 0.96686 0.57654 0.0
H1124 H 0.95197 0.94262 0.61246 0.0
C1125 C 0.81338 0.83564 0.70089 0.0
C1126 C 0.87424 0.86478 0.65322 0.0
H1127 H 0.94272 0.89717 0.6327 0.0
C1128 C 0.8613 0.86809 0.6327 0.0
C1129 C 0.90395 0.87676 0.65369 0.0
C1130 C 0.91923 0.87723 0.67628 0.0
C1131 C 0.87717 0.88219 0.61241 0.0
C1132 C 0.90701 0.89165 0.6118 0.0
C1133 C 0.91992 0.88923 0.6327 0.0
C1134 C 0.92511 0.90484 0.59001 0.0
C1135 C 0.86153 0.88737 0.5923 0.0
C1136 C 0.91997 0.89115 0.56538 0.0
C1137 C 0.93458 0.90548 0.54489 0.0
C1138 C 0.95564 0.93298 0.54868 0.0
C1139 C 0.96265 0.94546 0.5732 0.0
C1140 C 0.9473 0.93166 0.59371 0.0
H1141 H 0.84058 0.8887 0.59984 0.0
H1142 H 0.87352 0.90804 0.58408 0.0
H1143 H 0.85785 0.86862 0.57718 0.0
H1144 H 0.90394 0.86984 0.56194 0.0
H1145 H 0.92893 0.89546 0.52609 0.0
H1146 H 0.29632 0.21323 0.16974 0.0
H1147 H 0.32199 0.18533 0.14238 0.0
H1148 H 0.34678 0.16015 0.20711 0.0
H1149 H 0.31836 0.18561 0.23453 0.0
H1150 H 0.37258 0.19086 0.13423 0.0
H1151 H 0.32498 0.08202 0.16882 0.0
H1152 H 0.31087 0.11158 0.17875 0.0
H1153 H 0.34057 0.10998 0.1934 0.0
C1154 C 0.30614 0.20078 0.17822 0.0
C1155 C 0.304 0.20074 0.20442 0.0
C1156 C 0.32143 0.18515 0.16246 0.0
C1157 C 0.33595 0.16965 0.17237 0.0
C1158 C 0.3349 0.17064 0.19866 0.0
H1159 H 0.47179 0.12074 0.082 0.0
H1160 H 0.44349 0.14454 0.11114 0.0
C1161 C 0.31882 0.1856 0.21444 0.0
C1162 C 0.35298 0.15376 0.15511 0.0
H1163 H 0.36673 0.08859 0.14178 0.0
C1164 C 0.37104 0.16841 0.1359 0.0
C1165 C 0.35098 0.12421 0.15672 0.0
C1166 C 0.33058 0.10594 0.17536 0.0
C1167 C 0.38705 0.15469 0.11861 0.0
C1168 C 0.38611 0.12572 0.12103 0.0
C1169 C 0.36787 0.1109 0.14002 0.0
C1170 C 0.40362 0.1104 0.10392 0.0
C1171 C 0.40416 0.17122 0.09746 0.0
C1172 C 0.39106 0.08246 0.09078 0.0
C1173 C 0.40737 0.06846 0.07424 0.0
C1174 C 0.43672 0.082 0.07043 0.0
C1175 C 0.44928 0.10962 0.08415 0.0
C1176 C 0.43301 0.12348 0.10075 0.0
H1177 H 0.39562 0.18823 0.09345 0.0
H1178 H 0.4261 0.18264 0.10287 0.0
H1179 H 0.40463 0.15612 0.07998 0.0
H1180 H 0.3685 0.07165 0.09296 0.0
H1181 H 0.39686 0.04718 0.06418 0.0
H1182 H 0.79003 0.28763 0.16852 0.0
H1183 H 0.82422 0.31891 0.13969 0.0
H1184 H 0.88568 0.34674 0.19538 0.0
H1185 H 0.85152 0.3164 0.22439 0.0
H1186 H 0.85532 0.38305 0.14959 0.0
H1187 H 0.92513 0.31399 0.13051 0.0
H1188 H 0.88848 0.29947 0.14128 0.0
H1189 H 0.91392 0.3224 0.16272 0.0
C1190 C 0.81078 0.30056 0.17462 0.0
C1191 C 0.81837 0.29906 0.19848 0.0
C1192 C 0.83029 0.31828 0.15815 0.0
C1193 C 0.85762 0.33459 0.16528 0.0
C1194 C 0.86491 0.33379 0.18934 0.0
H1195 H 0.99395 0.46226 0.08377 0.0
H1196 H 0.96889 0.42983 0.11609 0.0
C1197 C 0.84541 0.31633 0.20583 0.0
C1198 C 0.87843 0.35287 0.14772 0.0
H1199 H 0.93953 0.35801 0.11156 0.0
C1200 C 0.87379 0.37768 0.14136 0.0
C1201 C 0.90257 0.34583 0.1372 0.0
C1202 C 0.90794 0.3189 0.14307 0.0
C1203 C 0.89257 0.39553 0.1245 0.0
C1204 C 0.91636 0.38813 0.11352 0.0
C1205 C 0.92137 0.36367 0.12022 0.0
C1206 C 0.93436 0.4041 0.09322 0.0
C1207 C 0.88672 0.42202 0.11816 0.0
C1208 C 0.9237 0.39944 0.06958 0.0
C1209 C 0.93773 0.41782 0.05143 0.0
C1210 C 0.96284 0.44095 0.05649 0.0
C1211 C 0.97476 0.44432 0.07946 0.0
C1212 C 0.96045 0.42596 0.09786 0.0
H1213 H 0.87043 0.42773 0.13144 0.0
H1214 H 0.9063 0.44139 0.11833 0.0
H1215 H 0.87915 0.4173 0.09898 0.0
H1216 H 0.90367 0.3826 0.06568 0.0
H1217 H 0.92821 0.4149 0.03381 0.0
H1218 H 0.69714 0.90435 0.18511 0.0
H1219 H 0.66963 0.91513 0.15559 0.0
H1220 H 0.63334 0.82238 0.13143 0.0
H1221 H 0.66099 0.81136 0.16097 0.0
H1222 H 0.66601 0.88731 0.09636 0.0
H1223 H 0.56829 0.86545 0.1601 0.0
H1224 H 0.60272 0.87831 0.17241 0.0
H1225 H 0.58934 0.84152 0.1571 0.0
C1226 C 0.68329 0.88626 0.17351 0.0
C1227 C 0.68095 0.85701 0.17544 0.0
C1228 C 0.66773 0.89245 0.15663 0.0
C1229 C 0.6494 0.86951 0.14159 0.0
C1230 C 0.64738 0.8403 0.14303 0.0
H1231 H 0.53267 0.88724 0.04102 0.0
H1232 H 0.554 0.86684 0.06929 0.0
C1233 C 0.66319 0.83408 0.15978 0.0
C1234 C 0.63203 0.8764 0.1248 0.0
H1235 H 0.56783 0.88425 0.12241 0.0
C1236 C 0.64446 0.88637 0.10187 0.0
C1237 C 0.60395 0.875 0.13214 0.0
C1238 C 0.59007 0.86454 0.15678 0.0
C1239 C 0.62961 0.89561 0.08622 0.0
C1240 C 0.60188 0.89541 0.09402 0.0
C1241 C 0.58912 0.88448 0.11658 0.0
C1242 C 0.58665 0.90807 0.07952 0.0
C1243 C 0.64377 0.90579 0.06153 0.0
C1244 C 0.59718 0.93819 0.07694 0.0
C1245 C 0.5851 0.94989 0.06097 0.0
C1246 C 0.56213 0.93168 0.04728 0.0
C1247 C 0.55036 0.90184 0.05124 0.0
C1248 C 0.56256 0.89013 0.06729 0.0
H1249 H 0.66171 0.89752 0.0554 0.0
H1250 H 0.62858 0.89832 0.04663 0.0
H1251 H 0.65208 0.93021 0.06362 0.0
H1252 H 0.61543 0.95249 0.08664 0.0
H1253 H 0.59454 0.97302 0.05862 0.0
H1254 H 0.20128 0.66922 0.21682 0.0
H1255 H 0.17805 0.63374 0.18248 0.0
H1256 H 0.24445 0.67745 0.13003 0.0
H1257 H 0.26838 0.71236 0.16477 0.0
H1258 H 0.15714 0.65025 0.14787 0.0
H1259 H 0.22993 0.59296 0.10051 0.0
H1260 H 0.23512 0.61332 0.13138 0.0
H1261 H 0.24602 0.63225 0.10387 0.0
C1262 C 0.21136 0.67065 0.19804 0.0
C1263 C 0.23657 0.69348 0.19336 0.0
C1264 C 0.19806 0.65039 0.1784 0.0
C1265 C 0.20941 0.65277 0.15355 0.0
C1266 C 0.2355 0.67465 0.14902 0.0
H1267 H 0.10414 0.61272 0.03074 0.0
H1268 H 0.14222 0.63392 0.05907 0.0
C1269 C 0.24915 0.69469 0.16885 0.0
C1270 C 0.19183 0.63539 0.13252 0.0
H1271 H 0.19126 0.59081 0.07702 0.0
C1272 C 0.16463 0.63703 0.13258 0.0
C1273 C 0.20132 0.61788 0.11254 0.0
C1274 C 0.22958 0.6137 0.11215 0.0
C1275 C 0.14699 0.62237 0.11314 0.0
C1276 C 0.15698 0.60619 0.09251 0.0
C1277 C 0.18383 0.60367 0.09263 0.0
C1278 C 0.13942 0.59234 0.0708 0.0
C1279 C 0.11766 0.62433 0.11489 0.0
C1280 C 0.12644 0.56167 0.06673 0.0
C1281 C 0.10472 0.54937 0.05025 0.0
C1282 C 0.09556 0.56766 0.03784 0.0
C1283 C 0.11045 0.59806 0.04025 0.0
C1284 C 0.13225 0.61023 0.05644 0.0
H1285 H 0.11081 0.6311 0.13443 0.0
H1286 H 0.11737 0.64098 0.10303 0.0
H1287 H 0.10216 0.60289 0.10807 0.0
H1288 H 0.13168 0.54745 0.0776 0.0
H1289 H 0.09366 0.52587 0.04883 0.0
H1290 H 0.31865 0.85075 0.78831 0.0
H1291 H 0.3405 0.88418 0.82431 0.0
H1292 H 0.33054 0.80985 0.86358 0.0
H1293 H 0.30768 0.77633 0.82814 0.0
H1294 H 0.31281 0.85275 0.89272 0.0
H1295 H 0.41911 0.90097 0.84584 0.0
H1296 H 0.39062 0.90391 0.83056 0.0
H1297 H 0.39315 0.86825 0.83216 0.0
C1298 C 0.32121 0.84155 0.8046 0.0
C1299 C 0.31121 0.81097 0.80554 0.0
C1300 C 0.33379 0.86065 0.82506 0.0
C1301 C 0.33715 0.84942 0.8465 0.0
C1302 C 0.32794 0.81889 0.8472 0.0
H1303 H 0.42674 0.89384 0.97238 0.0
H1304 H 0.38781 0.87361 0.94497 0.0
C1305 C 0.31512 0.79979 0.82686 0.0
C1306 C 0.35006 0.86934 0.86842 0.0
H1307 H 0.41177 0.91955 0.88774 0.0
C1308 C 0.33437 0.86758 0.89164 0.0
C1309 C 0.37812 0.88869 0.86682 0.0
C1310 C 0.39637 0.89048 0.84258 0.0
C1311 C 0.34641 0.88403 0.91356 0.0
C1312 C 0.37467 0.90264 0.91203 0.0
C1313 C 0.38991 0.90546 0.88866 0.0
C1314 C 0.39058 0.91579 0.93445 0.0
C1315 C 0.32921 0.88085 0.93827 0.0
C1316 C 0.40398 0.94632 0.93848 0.0
C1317 C 0.42618 0.95797 0.95424 0.0
C1318 C 0.43553 0.93905 0.96562 0.0
C1319 C 0.42011 0.90884 0.9636 0.0
C1320 C 0.39772 0.89728 0.94812 0.0
H1321 H 0.30626 0.87202 0.93558 0.0
H1322 H 0.33455 0.86534 0.94834 0.0
H1323 H 0.33404 0.90235 0.95026 0.0
H1324 H 0.39883 0.96084 0.92787 0.0
H1325 H 0.4377 0.98135 0.95546 0.0
H1326 H 0.25769 0.34262 0.79506 0.0
H1327 H 0.23215 0.36986 0.8243 0.0
H1328 H 0.15964 0.29104 0.82587 0.0
H1329 H 0.18561 0.26357 0.79778 0.0
H1330 H 0.18866 0.38429 0.82246 0.0
H1331 H 0.16225 0.31275 0.89834 0.0
H1332 H 0.18591 0.30832 0.87173 0.0
H1333 H 0.14831 0.29234 0.86962 0.0
C1334 C 0.23634 0.33111 0.80179 0.0
C1335 C 0.22379 0.30086 0.79431 0.0
C1336 C 0.2217 0.3467 0.81854 0.0
C1337 C 0.19405 0.33251 0.82804 0.0
C1338 C 0.18124 0.30245 0.81983 0.0
H1339 H 0.06371 0.38619 0.91941 0.0
H1340 H 0.09194 0.36181 0.89082 0.0
C1341 C 0.19605 0.28675 0.80349 0.0
C1342 C 0.17843 0.34935 0.84584 0.0
H1343 H 0.13766 0.34735 0.90107 0.0
C1344 C 0.17779 0.37628 0.83977 0.0
C1345 C 0.16414 0.33917 0.8686 0.0
C1346 C 0.16542 0.31173 0.87758 0.0
C1347 C 0.16285 0.39278 0.85531 0.0
C1348 C 0.14806 0.3822 0.87768 0.0
C1349 C 0.14883 0.35544 0.88388 0.0
C1350 C 0.13103 0.39805 0.89465 0.0
C1351 C 0.16245 0.42103 0.84727 0.0
C1352 C 0.14349 0.42671 0.90656 0.0
C1353 C 0.12729 0.4409 0.92305 0.0
C1354 C 0.09825 0.42669 0.92813 0.0
C1355 C 0.08592 0.39803 0.91603 0.0
C1356 C 0.10209 0.38392 0.89964 0.0
H1357 H 0.16899 0.42247 0.82704 0.0
H1358 H 0.14114 0.42312 0.85092 0.0
H1359 H 0.17737 0.43996 0.85819 0.0
H1360 H 0.16587 0.43794 0.90346 0.0
H1361 H 0.13763 0.46283 0.93207 0.0
H1362 H 0.74001 0.2126 0.82522 0.0
H1363 H 0.7052 0.18188 0.85342 0.0
H1364 H 0.63865 0.18455 0.81139 0.0
H1365 H 0.67354 0.21251 0.78162 0.0
H1366 H 0.66469 0.18828 0.88444 0.0
H1367 H 0.61583 0.09863 0.81062 0.0
H1368 H 0.64764 0.1284 0.80425 0.0
H1369 H 0.61378 0.13342 0.80564 0.0
C1370 C 0.71808 0.20601 0.82155 0.0
C1371 C 0.70983 0.21425 0.80058 0.0
C1372 C 0.69804 0.18875 0.83797 0.0
C1373 C 0.66914 0.17998 0.83421 0.0
C1374 C 0.66076 0.18982 0.81419 0.0
H1375 H 0.54786 0.09025 0.95289 0.0
H1376 H 0.57081 0.12634 0.92299 0.0
C1377 C 0.68084 0.20622 0.7973 0.0
C1378 C 0.64802 0.16035 0.85109 0.0
H1379 H 0.59418 0.0947 0.85152 0.0
C1380 C 0.6492 0.16789 0.8772 0.0
C1381 C 0.62782 0.13353 0.84174 0.0
C1382 C 0.62632 0.12284 0.81406 0.0
C1383 C 0.63137 0.14916 0.8941 0.0
C1384 C 0.61111 0.12254 0.88472 0.0
C1385 C 0.6094 0.11535 0.85868 0.0
C1386 C 0.59428 0.10002 0.90132 0.0
C1387 C 0.63535 0.1573 0.92182 0.0
C1388 C 0.59877 0.07279 0.89837 0.0
C1389 C 0.5857 0.05232 0.91522 0.0
C1390 C 0.56756 0.05841 0.93535 0.0
C1391 C 0.56159 0.0849 0.93748 0.0
C1392 C 0.57496 0.10565 0.9206 0.0
H1393 H 0.65514 0.17583 0.92563 0.0
H1394 H 0.61742 0.16401 0.9311 0.0
H1395 H 0.63577 0.13812 0.93046 0.0
H1396 H 0.61339 0.06783 0.88359 0.0
H1397 H 0.59057 0.03201 0.91298 0.0
H1398 H 0.92636 0.70488 0.81106 0.0
H1399 H 0.9442 0.68311 0.84082 0.0
H1400 H 0.85917 0.63861 0.86825 0.0
H1401 H 0.84106 0.66036 0.83841 0.0
H1402 H 0.91655 0.67786 0.90407 0.0
H1403 H 0.91592 0.58142 0.83367 0.0
H1404 H 0.92392 0.61735 0.82364 0.0
H1405 H 0.88892 0.59835 0.83546 0.0
C1406 C 0.91146 0.69054 0.82349 0.0
C1407 C 0.88232 0.68406 0.82227 0.0
C1408 C 0.92169 0.67829 0.84053 0.0
C1409 C 0.90297 0.65927 0.85658 0.0
C1410 C 0.87388 0.65337 0.85601 0.0
H1411 H 0.93333 0.53864 0.94368 0.0
H1412 H 0.91525 0.56241 0.91609 0.0
C1413 C 0.86361 0.6658 0.83903 0.0
C1414 C 0.91397 0.64429 0.8728 0.0
H1415 H 0.93484 0.58444 0.87219 0.0
C1416 C 0.92053 0.65741 0.89723 0.0
C1417 C 0.91886 0.61757 0.86375 0.0
C1418 C 0.91157 0.60261 0.83771 0.0
C1419 C 0.93209 0.64444 0.9129 0.0
C1420 C 0.93784 0.61808 0.90358 0.0
C1421 C 0.9308 0.60481 0.87921 0.0
C1422 C 0.95015 0.60331 0.91911 0.0
C1423 C 0.93742 0.65873 0.93945 0.0
C1424 C 0.97637 0.61798 0.9293 0.0
C1425 C 0.98683 0.60444 0.94524 0.0
C1426 C 0.97134 0.57587 0.95111 0.0
C1427 C 0.94582 0.56071 0.93973 0.0
C1428 C 0.93537 0.57429 0.92394 0.0
H1429 H 0.92504 0.67381 0.94564 0.0
H1430 H 0.93206 0.64192 0.95269 0.0
H1431 H 0.96008 0.67188 0.94051 0.0
H1432 H 0.98853 0.64009 0.92526 0.0
H1433 H 1.00659 0.61672 0.95354 0.0
H1434 H 0.10626 0.31183 0.19301 0.0
H1435 H 0.09765 0.34543 0.16799 0.0
H1436 H 0.16424 0.33565 0.11379 0.0
H1437 H 0.17265 0.30138 0.13877 0.0
H1438 H 0.12989 0.39803 0.14923 0.0
H1439 H 0.09365 0.30591 0.07318 0.0
H1440 H 0.1 0.30004 0.10385 0.0
H1441 H 0.12908 0.31404 0.08169 0.0
C1442 C 0.11932 0.31716 0.17593 0.0
C1443 C 0.1398 0.30368 0.1676 0.0
C1444 C 0.11446 0.33643 0.16169 0.0
C1445 C 0.12989 0.34255 0.13878 0.0
C1446 C 0.15175 0.33077 0.13122 0.0
H1447 H 0.10691 0.466 0.04787 0.0
H1448 H 0.12517 0.44309 0.07594 0.0
C1449 C 0.15671 0.31145 0.14557 0.0
C1450 C 0.12127 0.35933 0.12223 0.0
H1451 H 0.09084 0.35166 0.06721 0.0
C1452 C 0.12154 0.38803 0.1312 0.0
C1453 C 0.1099 0.34599 0.09894 0.0
C1454 C 0.10785 0.31473 0.08883 0.0
C1455 C 0.11048 0.40367 0.11763 0.0
C1456 C 0.09924 0.39036 0.09425 0.0
C1457 C 0.09933 0.3618 0.08517 0.0
C1458 C 0.08723 0.40548 0.07876 0.0
C1459 C 0.11016 0.43388 0.1289 0.0
C1460 C 0.05981 0.39188 0.07069 0.0
C1461 C 0.04935 0.40473 0.0542 0.0
C1462 C 0.06613 0.43147 0.04548 0.0
C1463 C 0.09324 0.44548 0.05429 0.0
C1464 C 0.10375 0.43249 0.07053 0.0
H1465 H 0.11149 0.43704 0.14957 0.0
H1466 H 0.12869 0.45076 0.12088 0.0
H1467 H 0.09081 0.43773 0.1247 0.0
H1468 H 0.04669 0.37097 0.07676 0.0
H1469 H 0.02844 0.39332 0.04779 0.0
H1470 H 0.21924 0.73424 0.8288 0.0
H1471 H 0.18366 0.70371 0.85691 0.0
H1472 H 0.15394 0.63789 0.79421 0.0
H1473 H 0.19027 0.66798 0.76623 0.0
H1474 H 0.12761 0.6833 0.8592 0.0
H1475 H 0.16818 0.58898 0.8412 0.0
H1476 H 0.18728 0.62406 0.83022 0.0
H1477 H 0.15853 0.59819 0.81336 0.0
C1478 C 0.2051 0.71322 0.82109 0.0
C1479 C 0.20756 0.7032 0.79549 0.0
C1480 C 0.18477 0.69583 0.83711 0.0
C1481 C 0.16647 0.66824 0.82776 0.0
C1482 C 0.16835 0.65869 0.80198 0.0
H1483 H 0.03987 0.53529 0.91122 0.0
H1484 H 0.06113 0.56757 0.87809 0.0
C1485 C 0.18901 0.67586 0.78602 0.0
C1486 C 0.14583 0.6494 0.84516 0.0
H1487 H 0.12612 0.58241 0.86698 0.0
C1488 C 0.12719 0.66118 0.8608 0.0
C1489 C 0.14542 0.62057 0.84733 0.0
C1490 C 0.16609 0.60728 0.83233 0.0
C1491 C 0.10845 0.64505 0.87878 0.0
C1492 C 0.10817 0.6164 0.88092 0.0
C1493 C 0.12618 0.60428 0.8649 0.0
C1494 C 0.0919 0.59982 0.90154 0.0
C1495 C 0.08943 0.65882 0.89574 0.0
C1496 C 0.10199 0.60764 0.92559 0.0
C1497 C 0.09028 0.58913 0.94419 0.0
C1498 C 0.06805 0.56281 0.93912 0.0
C1499 C 0.05677 0.55576 0.91553 0.0
C1500 C 0.06889 0.57406 0.89669 0.0
H1501 H 0.0885 0.67887 0.88885 0.0
H1502 H 0.06778 0.64279 0.89745 0.0
H1503 H 0.09748 0.66509 0.91477 0.0
H1504 H 0.11997 0.62723 0.92953 0.0
H1505 H 0.09936 0.59474 0.96226 0.0
H1506 H 0.32376 0.09814 0.82076 0.0
H1507 H 0.35284 0.08772 0.8489 0.0
H1508 H 0.39643 0.18083 0.86561 0.0
H1509 H 0.36665 0.19134 0.83789 0.0
H1510 H 0.40885 0.10024 0.84281 0.0
H1511 H 0.38148 0.1552 0.93494 0.0
H1512 H 0.36093 0.14871 0.90814 0.0
H1513 H 0.3935 0.17889 0.91059 0.0
C1514 C 0.33932 0.11638 0.83071 0.0
C1515 C 0.34308 0.14552 0.82714 0.0
C1516 C 0.35592 0.11043 0.84677 0.0
C1517 C 0.37676 0.13347 0.85948 0.0
C1518 C 0.38013 0.1627 0.85641 0.0
H1519 H 0.49648 0.11941 0.9591 0.0
H1520 H 0.47579 0.13875 0.92952 0.0
C1521 C 0.36321 0.1687 0.84053 0.0
C1522 C 0.39598 0.12644 0.8745 0.0
H1523 H 0.41811 0.13497 0.93346 0.0
C1524 C 0.41091 0.10793 0.86262 0.0
C1525 C 0.39887 0.13666 0.90031 0.0
C1526 C 0.38268 0.15575 0.91435 0.0
C1527 C 0.42818 0.09889 0.87589 0.0
C1528 C 0.43051 0.10848 0.9018 0.0
C1529 C 0.41638 0.12779 0.91355 0.0
C1530 C 0.44531 0.09661 0.91751 0.0
C1531 C 0.44359 0.07892 0.86209 0.0
C1532 C 0.4353 0.0665 0.92022 0.0
C1533 C 0.44701 0.05543 0.93699 0.0
C1534 C 0.46893 0.07428 0.95156 0.0
C1535 C 0.47976 0.10428 0.94806 0.0
C1536 C 0.46787 0.11539 0.93129 0.0
H1537 H 0.44657 0.08088 0.84166 0.0
H1538 H 0.46452 0.0839 0.86953 0.0
H1539 H 0.43101 0.05573 0.86454 0.0
H1540 H 0.41762 0.05169 0.91008 0.0
H1541 H 0.43811 0.03222 0.9392 0.0
H1542 H 0.82971 0.34449 0.78785 0.0
H1543 H 0.85296 0.37222 0.82546 0.0
H1544 H 0.78016 0.32783 0.87169 0.0
H1545 H 0.75682 0.29973 0.83381 0.0
H1546 H 0.8109 0.39329 0.8881 0.0
H1547 H 0.87781 0.32178 0.86981 0.0
H1548 H 0.87662 0.33973 0.84339 0.0
H1549 H 0.84516 0.31307 0.8551 0.0
C1550 C 0.81834 0.34127 0.806 0.0
C1551 C 0.7913 0.32031 0.80797 0.0
C1552 C 0.83166 0.35707 0.82746 0.0
C1553 C 0.81838 0.35196 0.85137 0.0
C1554 C 0.79069 0.33227 0.8534 0.0
H1555 H 0.92939 0.39283 0.9728 0.0
H1556 H 0.88812 0.36943 0.94832 0.0
C1557 C 0.77723 0.31648 0.83179 0.0
C1558 C 0.83492 0.36467 0.87382 0.0
H1559 H 0.89323 0.36412 0.89959 0.0
C1560 C 0.82873 0.38677 0.89087 0.0
C1561 C 0.85784 0.35573 0.87764 0.0
C1562 C 0.86467 0.33108 0.86068 0.0
C1563 C 0.84569 0.40104 0.91108 0.0
C1564 C 0.86966 0.39326 0.914 0.0
C1565 C 0.87501 0.37031 0.89743 0.0
C1566 C 0.89039 0.40906 0.93323 0.0
C1567 C 0.8377 0.42417 0.9291 0.0
C1568 C 0.90478 0.43951 0.93395 0.0
C1569 C 0.92822 0.45309 0.94835 0.0
C1570 C 0.93803 0.4363 0.96183 0.0
C1571 C 0.92248 0.4063 0.96243 0.0
C1572 C 0.89887 0.39289 0.94841 0.0
H1573 H 0.81474 0.42048 0.92962 0.0
H1574 H 0.84348 0.42445 0.94839 0.0
H1575 H 0.849 0.44613 0.92282 0.0
H1576 H 0.89913 0.45246 0.9221 0.0
H1577 H 0.93989 0.47619 0.94735 0.0
H1578 H 0.75881 0.83621 0.8068 0.0
H1579 H 0.73261 0.86198 0.83676 0.0
H1580 H 0.65442 0.79762 0.81318 0.0
H1581 H 0.68045 0.77039 0.7851 0.0
H1582 H 0.69712 0.88892 0.831 0.0
H1583 H 0.63865 0.79726 0.8864 0.0
H1584 H 0.66712 0.79527 0.8637 0.0
H1585 H 0.63223 0.78773 0.85381 0.0
C1586 C 0.73605 0.8272 0.80834 0.0
C1587 C 0.72187 0.80109 0.79344 0.0
C1588 C 0.72102 0.84216 0.82536 0.0
C1589 C 0.69138 0.83159 0.82777 0.0
C1590 C 0.67721 0.80593 0.81241 0.0
H1591 H 0.55903 0.88877 0.91353 0.0
H1592 H 0.58735 0.86467 0.88459 0.0
C1593 C 0.69222 0.79065 0.79582 0.0
C1594 C 0.67533 0.84777 0.84577 0.0
H1595 H 0.623 0.83891 0.89296 0.0
C1596 C 0.68106 0.87799 0.84467 0.0
C1597 C 0.65427 0.8337 0.86373 0.0
C1598 C 0.6479 0.80179 0.86718 0.0
C1599 C 0.66596 0.89421 0.86036 0.0
C1600 C 0.64466 0.88005 0.87811 0.0
C1601 C 0.63912 0.84989 0.87935 0.0
C1602 C 0.6276 0.89579 0.89536 0.0
C1603 C 0.67247 0.92618 0.85711 0.0
C1604 C 0.64053 0.92143 0.91136 0.0
C1605 C 0.62428 0.93557 0.9278 0.0
C1606 C 0.59463 0.92414 0.92907 0.0
C1607 C 0.58176 0.89835 0.91316 0.0
C1608 C 0.598 0.88444 0.89655 0.0
H1609 H 0.6827 0.93114 0.83824 0.0
H1610 H 0.65311 0.93247 0.85979 0.0
H1611 H 0.68728 0.9401 0.87122 0.0
H1612 H 0.66325 0.93029 0.91151 0.0
H1613 H 0.63503 0.95514 0.93992 0.0
H1614 H 0.78113 0.6597 0.20799 0.0
H1615 H 0.80764 0.63275 0.17952 0.0
H1616 H 0.86534 0.71477 0.1573 0.0
H1617 H 0.8395 0.74178 0.18636 0.0
H1618 H 0.82078 0.63291 0.12618 0.0
H1619 H 0.91699 0.67438 0.17963 0.0
H1620 H 0.8835 0.6772 0.19296 0.0
H1621 H 0.90465 0.70221 0.17149 0.0
C1622 C 0.79944 0.67198 0.197 0.0
C1623 C 0.80791 0.7029 0.19908 0.0
C1624 C 0.81452 0.65654 0.18068 0.0
C1625 C 0.83862 0.6717 0.16639 0.0
C1626 C 0.84697 0.70256 0.16828 0.0
H1627 H 0.96688 0.62337 0.06735 0.0
H1628 H 0.93802 0.64767 0.09504 0.0
C1629 C 0.83187 0.71799 0.18456 0.0
C1630 C 0.85514 0.65524 0.14972 0.0
H1631 H 0.91953 0.6457 0.14072 0.0
C1632 C 0.84237 0.63559 0.12935 0.0
C1633 C 0.8833 0.65884 0.15383 0.0
C1634 C 0.89794 0.6791 0.17576 0.0
C1635 C 0.8572 0.62005 0.11255 0.0
C1636 C 0.88541 0.62342 0.11673 0.0
C1637 C 0.898 0.64294 0.13736 0.0
C1638 C 0.9027 0.6079 0.09961 0.0
C1639 C 0.84268 0.60111 0.09003 0.0
C1640 C 0.89288 0.57717 0.09296 0.0
C1641 C 0.90927 0.56315 0.07657 0.0
C1642 C 0.93622 0.57942 0.067 0.0
C1643 C 0.94629 0.61001 0.0743 0.0
C1644 C 0.92973 0.62402 0.09023 0.0
H1645 H 0.82529 0.60816 0.08538 0.0
H1646 H 0.85767 0.60183 0.07328 0.0
H1647 H 0.83334 0.57799 0.09426 0.0
H1648 H 0.87259 0.5639 0.10053 0.0
H1649 H 0.90094 0.53954 0.07159 0.0
H1650 H 0.30248 0.77138 0.17285 0.0
H1651 H 0.34028 0.79532 0.14253 0.0
H1652 H 0.35889 0.87669 0.1923 0.0
H1653 H 0.32267 0.8521 0.22318 0.0
H1654 H 0.34963 0.83732 0.1163 0.0
H1655 H 0.43587 0.87379 0.18008 0.0
H1656 H 0.40149 0.84906 0.1887 0.0
H1657 H 0.40862 0.88839 0.19312 0.0
C1658 C 0.31479 0.79437 0.17716 0.0
C1659 C 0.31011 0.80997 0.20028 0.0
C1660 C 0.33641 0.80802 0.15994 0.0
C1661 C 0.35326 0.83762 0.16544 0.0
C1662 C 0.34726 0.85352 0.18805 0.0
H1663 H 0.44842 0.97869 0.08893 0.0
H1664 H 0.42389 0.94314 0.11832 0.0
C1665 C 0.32631 0.83964 0.20554 0.0
C1666 C 0.3764 0.8523 0.14729 0.0
H1667 H 0.44386 0.90033 0.1437 0.0
C1668 C 0.37043 0.85051 0.1222 0.0
C1669 C 0.40383 0.86923 0.15473 0.0
C1670 C 0.41288 0.86992 0.18057 0.0
C1671 C 0.39037 0.86672 0.10494 0.0
C1672 C 0.41687 0.8854 0.11301 0.0
C1673 C 0.42345 0.88607 0.13764 0.0
C1674 C 0.43603 0.90742 0.09723 0.0
C1675 C 0.38252 0.86509 0.07851 0.0
C1676 C 0.45202 0.89939 0.07618 0.0
C1677 C 0.46653 0.91994 0.05946 0.0
C1678 C 0.46476 0.94851 0.06354 0.0
C1679 C 0.45012 0.95681 0.08541 0.0
C1680 C 0.43608 0.93653 0.10218 0.0
H1681 H 0.3607 0.85017 0.0754 0.0
H1682 H 0.38448 0.88739 0.07429 0.0
H1683 H 0.39728 0.857 0.06507 0.0
H1684 H 0.45223 0.87697 0.07212 0.0
H1685 H 0.47739 0.91295 0.04256 0.0
H1686 H 0.72648 0.22537 0.17018 0.0
H1687 H 0.70296 0.19037 0.13586 0.0
H1688 H 0.69074 0.11854 0.17891 0.0
H1689 H 0.71335 0.1537 0.21394 0.0
H1690 H 0.71897 0.14479 0.10893 0.0
H1691 H 0.61202 0.1037 0.15707 0.0
H1692 H 0.63884 0.1366 0.16938 0.0
H1693 H 0.64049 0.101 0.17259 0.0
C1694 C 0.71849 0.20216 0.17252 0.0
C1695 C 0.72184 0.19221 0.19469 0.0
C1696 C 0.70528 0.18219 0.15281 0.0
C1697 C 0.69517 0.15194 0.15489 0.0
C1698 C 0.69819 0.14186 0.17707 0.0
H1699 H 0.59171 0.02333 0.04423 0.0
H1700 H 0.62951 0.04186 0.07302 0.0
C1701 C 0.71123 0.16191 0.19696 0.0
C1702 C 0.68147 0.13131 0.13359 0.0
H1703 H 0.6176 0.08533 0.11491 0.0
C1704 C 0.6969 0.13143 0.11027 0.0
C1705 C 0.65272 0.1139 0.13551 0.0
C1706 C 0.6349 0.11382 0.1599 0.0
C1707 C 0.68391 0.11567 0.08853 0.0
C1708 C 0.65497 0.09936 0.09032 0.0
C1709 C 0.63994 0.09777 0.11381 0.0
C1710 C 0.63866 0.08753 0.06799 0.0
C1711 C 0.70081 0.11735 0.06365 0.0
C1712 C 0.63225 0.1071 0.05498 0.0
C1713 C 0.61043 0.09668 0.03882 0.0
C1714 C 0.59491 0.06652 0.03539 0.0
C1715 C 0.60337 0.04668 0.04644 0.0
C1716 C 0.62492 0.05718 0.06292 0.0
H1717 H 0.72383 0.12531 0.06604 0.0
H1718 H 0.69499 0.09544 0.05225 0.0
H1719 H 0.69607 0.13284 0.0531 0.0
H1720 H 0.64249 0.13065 0.05894 0.0
H1721 H 0.60445 0.11241 0.03043 0.0
H1722 H 0.73596 0.67171 0.79623 0.0
H1723 H 0.70367 0.64276 0.82728 0.0
H1724 H 0.64408 0.68699 0.82164 0.0
H1725 H 0.6758 0.7153 0.79008 0.0
H1726 H 0.68556 0.66473 0.87266 0.0
H1727 H 0.59341 0.60209 0.81677 0.0
H1728 H 0.62745 0.62128 0.80242 0.0
H1729 H 0.60463 0.64132 0.81692 0.0
C1730 C 0.7158 0.67493 0.80135 0.0
C1731 C 0.70829 0.69555 0.79061 0.0
C1732 C 0.69739 0.65842 0.81908 0.0
C1733 C 0.67128 0.6624 0.82647 0.0
C1734 C 0.66373 0.68295 0.81571 0.0
H1735 H 0.54772 0.57952 0.94534 0.0
H1736 H 0.57053 0.61075 0.91177 0.0
C1737 C 0.68197 0.69921 0.79776 0.0
C1738 C 0.65296 0.64641 0.84666 0.0
H1739 H 0.5883 0.5967 0.86008 0.0
C1740 C 0.66428 0.6499 0.86989 0.0
C1741 C 0.62502 0.62748 0.84313 0.0
C1742 C 0.61191 0.62257 0.81841 0.0
C1743 C 0.64875 0.63444 0.88953 0.0
C1744 C 0.62127 0.61459 0.88571 0.0
C1745 C 0.60941 0.61192 0.86286 0.0
C1746 C 0.6059 0.59453 0.90447 0.0
C1747 C 0.66209 0.63927 0.91414 0.0
C1748 C 0.61778 0.57455 0.91073 0.0
C1749 C 0.60519 0.55726 0.9299 0.0
C1750 C 0.5801 0.55913 0.94293 0.0
C1751 C 0.5672 0.57789 0.93572 0.0
C1752 C 0.58014 0.59564 0.9166 0.0
H1753 H 0.67891 0.66104 0.91664 0.0
H1754 H 0.64618 0.6378 0.93026 0.0
H1755 H 0.67188 0.62208 0.91442 0.0
H1756 H 0.63719 0.57275 0.90108 0.0
H1757 H 0.61525 0.54246 0.9346 0.0
H1758 H 0.33676 0.66996 0.85486 0.0
H1759 H 0.37311 0.66424 0.87835 0.0
H1760 H 0.38746 0.60042 0.81863 0.0
H1761 H 0.35072 0.60564 0.79541 0.0
H1762 H 0.36631 0.6059 0.89131 0.0
H1763 H 0.46865 0.65645 0.83952 0.0
H1764 H 0.43787 0.66682 0.83774 0.0
H1765 H 0.44073 0.63344 0.82025 0.0
C1766 C 0.34797 0.65499 0.84672 0.0
C1767 C 0.34081 0.63785 0.82363 0.0
C1768 C 0.36876 0.65188 0.86001 0.0
C1769 C 0.38311 0.63213 0.85008 0.0
C1770 C 0.37686 0.61604 0.82644 0.0
H1771 H 0.4451 0.52392 0.92135 0.0
H1772 H 0.42524 0.54593 0.89358 0.0
C1773 C 0.35572 0.61875 0.81337 0.0
C1774 C 0.40145 0.625 0.8658 0.0
H1775 H 0.46813 0.62371 0.86874 0.0
C1776 C 0.38864 0.61011 0.88657 0.0
C1777 C 0.43058 0.63079 0.85965 0.0
C1778 C 0.44544 0.64798 0.8382 0.0
C1779 C 0.40392 0.59965 0.90075 0.0
C1780 C 0.4327 0.60386 0.89376 0.0
C1781 C 0.44593 0.62005 0.87373 0.0
C1782 C 0.44883 0.59087 0.90697 0.0
C1783 C 0.389 0.58379 0.92295 0.0
C1784 C 0.46986 0.60889 0.92264 0.0
C1785 C 0.48143 0.59637 0.93852 0.0
C1786 C 0.47209 0.56563 0.93896 0.0
C1787 C 0.45269 0.54765 0.92167 0.0
C1788 C 0.4412 0.56018 0.90583 0.0
H1789 H 0.36928 0.58873 0.92945 0.0
H1790 H 0.38333 0.55968 0.91746 0.0
H1791 H 0.40282 0.58988 0.93884 0.0
H1792 H 0.47609 0.63264 0.92366 0.0
H1793 H 0.4964 0.61091 0.95149 0.0
H1794 H 0.31724 0.34544 0.78576 0.0
H1795 H 0.34549 0.37425 0.82033 0.0
H1796 H 0.36468 0.29771 0.83299 0.0
H1797 H 0.3383 0.26942 0.79743 0.0
H1798 H 0.3363 0.3663 0.86838 0.0
H1799 H 0.44089 0.35769 0.83483 0.0
H1800 H 0.41224 0.34691 0.81452 0.0
H1801 H 0.41476 0.32198 0.83503 0.0
C1802 C 0.32822 0.33499 0.79538 0.0
C1803 C 0.32562 0.30516 0.78881 0.0
C1804 C 0.34408 0.35141 0.81531 0.0
C1805 C 0.35738 0.33819 0.82905 0.0
C1806 C 0.35519 0.30856 0.82224 0.0
H1807 H 0.45121 0.38319 0.95928 0.0
H1808 H 0.4149 0.35812 0.92975 0.0
C1809 C 0.33989 0.29233 0.80201 0.0
C1810 C 0.37239 0.35483 0.8513 0.0
H1811 H 0.43431 0.37217 0.87871 0.0
C1812 C 0.35783 0.36785 0.87058 0.0
C1813 C 0.40051 0.35694 0.85401 0.0
C1814 C 0.41806 0.3454 0.83335 0.0
C1815 C 0.37048 0.38225 0.89286 0.0
C1816 C 0.39813 0.38326 0.89582 0.0
C1817 C 0.4128 0.37071 0.87644 0.0
C1818 C 0.41328 0.39824 0.91829 0.0
C1819 C 0.35423 0.3959 0.91317 0.0
C1820 C 0.42336 0.42906 0.92222 0.0
C1821 C 0.44419 0.44345 0.93897 0.0
C1822 C 0.45535 0.42713 0.95173 0.0
C1823 C 0.44341 0.39631 0.94933 0.0
C1824 C 0.42252 0.38197 0.93267 0.0
H1825 H 0.33144 0.3886 0.90989 0.0
H1826 H 0.35665 0.39031 0.9318 0.0
H1827 H 0.36277 0.42022 0.9137 0.0
H1828 H 0.41671 0.44191 0.91098 0.0
H1829 H 0.45289 0.46724 0.94051 0.0
H1830 H 0.63045 0.26979 0.86312 0.0
H1831 H 0.64534 0.30668 0.89884 0.0
H1832 H 0.72849 0.33906 0.86286 0.0
H1833 H 0.71345 0.30589 0.82606 0.0
H1834 H 0.68682 0.33694 0.93288 0.0
H1835 H 0.69403 0.40044 0.8527 0.0
H1836 H 0.68077 0.36088 0.84914 0.0
H1837 H 0.71792 0.38008 0.85121 0.0
C1838 C 0.65197 0.28454 0.86258 0.0
C1839 C 0.66972 0.28578 0.84045 0.0
C1840 C 0.66069 0.30523 0.88344 0.0
C1841 C 0.68763 0.32649 0.88277 0.0
C1842 C 0.70729 0.32341 0.86325 0.0
H1843 H 0.6536 0.47348 0.98176 0.0
H1844 H 0.68946 0.45173 0.96221 0.0
C1845 C 0.69833 0.30377 0.84199 0.0
C1846 C 0.69188 0.35522 0.89804 0.0
H1847 H 0.68662 0.42209 0.89254 0.0
C1848 C 0.68794 0.35608 0.92421 0.0
C1849 C 0.69344 0.38024 0.88654 0.0
C1850 C 0.69663 0.38052 0.85839 0.0
C1851 C 0.68207 0.37986 0.93888 0.0
C1852 C 0.68028 0.40298 0.92692 0.0
C1853 C 0.68826 0.40416 0.90141 0.0
C1854 C 0.66079 0.41866 0.93758 0.0
C1855 C 0.6741 0.3784 0.96651 0.0
C1856 C 0.63339 0.40751 0.92952 0.0
C1857 C 0.61317 0.41961 0.94044 0.0
C1858 C 0.62003 0.44312 0.95967 0.0
C1859 C 0.64788 0.45527 0.96698 0.0
C1860 C 0.66826 0.44293 0.95599 0.0
H1861 H 0.68022 0.36129 0.97364 0.0
H1862 H 0.68434 0.40007 0.9773 0.0
H1863 H 0.65094 0.37319 0.96992 0.0
H1864 H 0.62743 0.38876 0.91521 0.0
H1865 H 0.592 0.41008 0.93417 0.0
H1866 H 0.72103 0.39762 0.154 0.0
H1867 H 0.6845 0.40064 0.12956 0.0
H1868 H 0.62041 0.3466 0.17793 0.0
H1869 H 0.65701 0.34382 0.20281 0.0
H1870 H 0.63768 0.35744 0.10422 0.0
H1871 H 0.60539 0.4268 0.18543 0.0
H1872 H 0.63806 0.41911 0.18364 0.0
H1873 H 0.60535 0.39117 0.19085 0.0
C1874 C 0.69917 0.38619 0.15933 0.0
C1875 C 0.69185 0.37096 0.1806 0.0
C1876 C 0.67833 0.38774 0.14524 0.0
C1877 C 0.64977 0.37424 0.15219 0.0
C1878 C 0.64236 0.35747 0.17247 0.0
H1879 H 0.52884 0.39443 0.05649 0.0
H1880 H 0.54714 0.37207 0.08537 0.0
C1881 C 0.66327 0.35578 0.18656 0.0
C1882 C 0.62817 0.38027 0.13949 0.0
H1883 H 0.58448 0.42166 0.14768 0.0
C1884 C 0.62558 0.37099 0.11376 0.0
C1885 C 0.61277 0.39829 0.152 0.0
C1886 C 0.61552 0.40967 0.17947 0.0
C1887 C 0.60871 0.38009 0.1 0.0
C1888 C 0.59384 0.39873 0.11242 0.0
C1889 C 0.59568 0.40716 0.13831 0.0
C1890 C 0.57924 0.41258 0.0983 0.0
C1891 C 0.60821 0.37111 0.07203 0.0
C1892 C 0.59005 0.44306 0.09721 0.0
C1893 C 0.57953 0.45599 0.08093 0.0
C1894 C 0.55797 0.43864 0.06535 0.0
C1895 C 0.54557 0.40846 0.06807 0.0
C1896 C 0.55615 0.39555 0.08441 0.0
H1897 H 0.62437 0.36062 0.06477 0.0
H1898 H 0.58721 0.3551 0.06761 0.0
H1899 H 0.6118 0.39051 0.06195 0.0
H1900 H 0.60775 0.45664 0.10793 0.0
H1901 H 0.58953 0.47929 0.07947 0.0
H1902 H 0.68898 0.72806 0.20537 0.0
H1903 H 0.66487 0.70162 0.1676 0.0
H1904 H 0.71022 0.63991 0.16162 0.0
H1905 H 0.73435 0.66612 0.19929 0.0
H1906 H 0.70761 0.66688 0.11449 0.0
H1907 H 0.60525 0.6149 0.16654 0.0
H1908 H 0.62177 0.65394 0.17415 0.0
H1909 H 0.63822 0.62903 0.18147 0.0
C1910 C 0.69371 0.70882 0.19601 0.0
C1911 C 0.71348 0.69907 0.20513 0.0
C1912 C 0.68005 0.69386 0.17449 0.0
C1913 C 0.68598 0.66901 0.16195 0.0
C1914 C 0.70559 0.65917 0.17107 0.0
H1915 H 0.58811 0.5367 0.05388 0.0
H1916 H 0.62633 0.56355 0.08114 0.0
C1917 C 0.7191 0.67397 0.19266 0.0
C1918 C 0.67086 0.65255 0.13982 0.0
H1919 H 0.60624 0.60749 0.12238 0.0
C1920 C 0.68547 0.6538 0.1161 0.0
C1921 C 0.64213 0.63544 0.14225 0.0
C1922 C 0.62584 0.63295 0.16746 0.0
C1923 C 0.67165 0.63866 0.09449 0.0
C1924 C 0.64283 0.62193 0.09699 0.0
C1925 C 0.62844 0.62036 0.12073 0.0
C1926 C 0.62635 0.60659 0.07534 0.0
C1927 C 0.68763 0.64053 0.06919 0.0
C1928 C 0.61453 0.62212 0.06255 0.0
C1929 C 0.59245 0.60689 0.04723 0.0
C1930 C 0.58196 0.57594 0.04454 0.0
C1931 C 0.59561 0.56052 0.05565 0.0
C1932 C 0.61753 0.57579 0.07113 0.0
H1933 H 0.71049 0.65264 0.07064 0.0
H1934 H 0.68482 0.61803 0.05946 0.0
H1935 H 0.67898 0.65192 0.05745 0.0
H1936 H 0.621 0.64593 0.06585 0.0
H1937 H 0.58265 0.61936 0.03858 0.0
H1938 H 0.38835 0.6789 0.15274 0.0
H1939 H 0.36865 0.63549 0.1229 0.0
H1940 H 0.29497 0.6061 0.17339 0.0
H1941 H 0.3146 0.64984 0.20325 0.0
H1942 H 0.33258 0.57007 0.16168 0.0
H1943 H 0.30037 0.5964 0.07626 0.0
H1944 H 0.32948 0.62596 0.08931 0.0
H1945 H 0.29603 0.61541 0.10716 0.0
C1946 C 0.36777 0.6634 0.15721 0.0
C1947 C 0.35315 0.66713 0.18033 0.0
C1948 C 0.35626 0.63902 0.14004 0.0
C1949 C 0.33015 0.618 0.14591 0.0
C1950 C 0.31484 0.62245 0.16845 0.0
H1951 H 0.37943 0.5063 0.02809 0.0
H1952 H 0.33985 0.50918 0.0577 0.0
C1953 C 0.32619 0.64713 0.1855 0.0
C1954 C 0.32329 0.58888 0.13136 0.0
H1955 H 0.33076 0.56508 0.06961 0.0
C1956 C 0.33056 0.56779 0.14162 0.0
C1957 C 0.32007 0.5857 0.10543 0.0
C1958 C 0.31074 0.60698 0.09393 0.0
C1959 C 0.34074 0.54754 0.12598 0.0
C1960 C 0.34273 0.54836 0.09986 0.0
C1961 C 0.32961 0.56496 0.08978 0.0
C1962 C 0.36599 0.54191 0.0843 0.0
C1963 C 0.35342 0.5289 0.13749 0.0
C1964 C 0.39354 0.55977 0.08954 0.0
C1965 C 0.41599 0.55879 0.07257 0.0
C1966 C 0.41121 0.53987 0.05008 0.0
C1967 C 0.38365 0.52134 0.0452 0.0
C1968 C 0.36109 0.52258 0.06215 0.0
H1969 H 0.34162 0.52216 0.15543 0.0
H1970 H 0.35363 0.50897 0.12453 0.0
H1971 H 0.37546 0.54204 0.14175 0.0
H1972 H 0.39755 0.57549 0.10629 0.0
H1973 H 0.43701 0.57297 0.07703 0.0
H1974 H 0.29731 0.34452 0.21186 0.0
H1975 H 0.32957 0.37458 0.18126 0.0
H1976 H 0.37394 0.31152 0.16593 0.0
H1977 H 0.34277 0.28241 0.19728 0.0
H1978 H 0.41018 0.36449 0.16826 0.0
H1979 H 0.32694 0.35865 0.10722 0.0
H1980 H 0.32186 0.37528 0.13848 0.0
H1981 H 0.31984 0.33718 0.13313 0.0
C1982 C 0.31401 0.33721 0.20192 0.0
C1983 C 0.31759 0.3112 0.20683 0.0
C1984 C 0.3323 0.35425 0.18434 0.0
C1985 C 0.35388 0.34503 0.17088 0.0
C1986 C 0.3575 0.31913 0.17604 0.0
H1987 H 0.43105 0.40218 0.02895 0.0
H1988 H 0.40582 0.37459 0.06357 0.0
C1989 C 0.33967 0.3025 0.19395 0.0
C1990 C 0.37274 0.36207 0.15133 0.0
H1991 H 0.3729 0.39015 0.0971 0.0
C1992 C 0.40204 0.36999 0.1526 0.0
C1993 C 0.36215 0.36898 0.13077 0.0
C1994 C 0.331 0.35932 0.12713 0.0
C1995 C 0.42101 0.38421 0.13376 0.0
C1996 C 0.41042 0.39179 0.11351 0.0
C1997 C 0.38112 0.38434 0.11255 0.0
C1998 C 0.42894 0.40658 0.0926 0.0
C1999 C 0.45205 0.38992 0.13539 0.0
C2000 C 0.45115 0.43323 0.09717 0.0
C2001 C 0.46633 0.44841 0.07721 0.0
C2002 C 0.45885 0.43766 0.05252 0.0
C2003 C 0.43727 0.41071 0.04787 0.0
C2004 C 0.42272 0.39512 0.06767 0.0
H2005 H 0.4557 0.37466 0.14699 0.0
H2006 H 0.46283 0.38752 0.11653 0.0
H2007 H 0.46188 0.41268 0.14444 0.0
H2008 H 0.45592 0.44306 0.11616 0.0
H2009 H 0.48254 0.46952 0.08121 0.0
H2010 H 0.77215 0.66323 0.69864 0.0
H2011 H 0.79786 0.63533 0.67029 0.0
H2012 H 0.87374 0.71059 0.67593 0.0
H2013 H 0.84843 0.73806 0.70472 0.0
H2014 H 0.8242 0.64117 0.62586 0.0
H2015 H 0.90446 0.65093 0.69114 0.0
H2016 H 0.8739 0.66185 0.70112 0.0
H2017 H 0.90438 0.6863 0.68562 0.0
C2018 C 0.79436 0.67377 0.69392 0.0
C2019 C 0.80824 0.70284 0.70422 0.0
C2020 C 0.80909 0.65777 0.67767 0.0
C2021 C 0.8381 0.6704 0.67136 0.0
C2022 C 0.85172 0.69975 0.6811 0.0
H2023 H 0.9682 0.6213 0.57543 0.0
H2024 H 0.93923 0.64484 0.60391 0.0
C2025 C 0.8371 0.7156 0.6975 0.0
C2026 C 0.85399 0.65317 0.65432 0.0
H2027 H 0.91364 0.63377 0.64847 0.0
C2028 C 0.84363 0.63935 0.63094 0.0
C2029 C 0.87939 0.65054 0.66079 0.0
C2030 C 0.89102 0.66294 0.68613 0.0
C2031 C 0.85828 0.62398 0.61365 0.0
C2032 C 0.88399 0.62191 0.61991 0.0
C2033 C 0.8941 0.63537 0.64345 0.0
C2034 C 0.90131 0.60686 0.60218 0.0
C2035 C 0.84644 0.61099 0.58849 0.0
C2036 C 0.89002 0.5773 0.59172 0.0
C2037 C 0.90662 0.56369 0.57509 0.0
C2038 C 0.9351 0.57915 0.56876 0.0
C2039 C 0.94643 0.60853 0.57971 0.0
C2040 C 0.9298 0.62213 0.59611 0.0
H2041 H 0.83138 0.62136 0.58397 0.0
H2042 H 0.86346 0.61357 0.57326 0.0
H2043 H 0.83489 0.58714 0.58889 0.0
H2044 H 0.86839 0.5646 0.59656 0.0
H2045 H 0.89713 0.54101 0.56727 0.0
H2046 H 0.3549 0.80639 0.72122 0.0
H2047 H 0.38855 0.83612 0.69182 0.0
H2048 H 0.32032 0.83411 0.64961 0.0
H2049 H 0.28634 0.80334 0.67873 0.0
H2050 H 0.398 0.82265 0.64033 0.0
H2051 H 0.3657 0.9221 0.66249 0.0
H2052 H 0.35397 0.89238 0.68183 0.0
H2053 H 0.33714 0.88939 0.65346 0.0
C2054 C 0.34698 0.81173 0.70548 0.0
C2055 C 0.31793 0.80189 0.70207 0.0
C2056 C 0.36629 0.82903 0.68881 0.0
C2057 C 0.35696 0.83744 0.66862 0.0
C2058 C 0.32794 0.82808 0.66526 0.0
H2059 H 0.41976 0.91723 0.53733 0.0
H2060 H 0.39684 0.88591 0.57017 0.0
C2061 C 0.30856 0.81045 0.68186 0.0
C2062 C 0.37771 0.85551 0.65085 0.0
H2063 H 0.39597 0.92006 0.62532 0.0
C2064 C 0.39783 0.84412 0.63725 0.0
C2065 C 0.37766 0.88367 0.64716 0.0
C2066 C 0.35765 0.89777 0.6622 0.0
C2067 C 0.417 0.8596 0.61913 0.0
C2068 C 0.41599 0.88705 0.61466 0.0
C2069 C 0.39663 0.89893 0.6289 0.0
C2070 C 0.43233 0.90232 0.59338 0.0
C2071 C 0.43745 0.84616 0.60409 0.0
C2072 C 0.46033 0.92112 0.59524 0.0
C2073 C 0.4737 0.93897 0.57624 0.0
C2074 C 0.45889 0.93836 0.55556 0.0
C2075 C 0.43152 0.91822 0.55321 0.0
C2076 C 0.41841 0.90035 0.57191 0.0
H2077 H 0.43611 0.82492 0.6103 0.0
H2078 H 0.4331 0.84236 0.58395 0.0
H2079 H 0.45928 0.86166 0.6058 0.0
H2080 H 0.47129 0.92296 0.61184 0.0
H2081 H 0.49474 0.9545 0.5785 0.0
H2082 H 0.15476 0.30718 0.66518 0.0
H2083 H 0.12806 0.31884 0.63517 0.0
H2084 H 0.17238 0.41142 0.65346 0.0
H2085 H 0.19877 0.39996 0.68359 0.0
H2086 H 0.09447 0.36306 0.64997 0.0
H2087 H 0.17852 0.3897 0.57295 0.0
H2088 H 0.17769 0.36537 0.59549 0.0
H2089 H 0.18879 0.40444 0.60433 0.0
C2090 C 0.15887 0.32997 0.66261 0.0
C2091 C 0.17864 0.35272 0.67675 0.0
C2092 C 0.1436 0.33657 0.64559 0.0
C2093 C 0.14834 0.36595 0.64217 0.0
C2094 C 0.1685 0.38862 0.65586 0.0
H2095 H 0.09646 0.47095 0.55861 0.0
H2096 H 0.11589 0.44978 0.58724 0.0
C2097 C 0.18344 0.38207 0.67309 0.0
C2098 C 0.13176 0.37332 0.62488 0.0
H2099 H 0.13802 0.40285 0.57021 0.0
C2100 C 0.10376 0.37138 0.63234 0.0
C2101 C 0.1441 0.38421 0.60202 0.0
C2102 C 0.17388 0.38594 0.593 0.0
C2103 C 0.08807 0.38123 0.61789 0.0
C2104 C 0.10069 0.39289 0.59534 0.0
C2105 C 0.12843 0.39396 0.58757 0.0
C2106 C 0.08629 0.40578 0.58016 0.0
C2107 C 0.05862 0.38036 0.62734 0.0
C2108 C 0.06265 0.38816 0.56714 0.0
C2109 C 0.05134 0.40024 0.55064 0.0
C2110 C 0.06368 0.43008 0.54682 0.0
C2111 C 0.08649 0.44785 0.56091 0.0
C2112 C 0.09771 0.4358 0.57729 0.0
H2113 H 0.05363 0.37513 0.64701 0.0
H2114 H 0.05585 0.40183 0.62624 0.0
H2115 H 0.04325 0.36325 0.61534 0.0
H2116 H 0.05369 0.36486 0.56894 0.0
H2117 H 0.03383 0.38593 0.54005 0.0
H2118 H 0.68838 0.17723 0.71473 0.0
H2119 H 0.66663 0.14267 0.67924 0.0
H2120 H 0.74814 0.15787 0.63939 0.0
H2121 H 0.77015 0.1926 0.67506 0.0
H2122 H 0.70599 0.16541 0.61222 0.0
H2123 H 0.66664 0.0588 0.6514 0.0
H2124 H 0.65807 0.08775 0.67172 0.0
H2125 H 0.69437 0.09014 0.6649 0.0
C2126 C 0.70177 0.17275 0.69864 0.0
C2127 C 0.73098 0.18758 0.69774 0.0
C2128 C 0.68932 0.15288 0.67838 0.0
C2129 C 0.70575 0.14739 0.65671 0.0
C2130 C 0.73507 0.16156 0.65599 0.0
H2131 H 0.61579 0.04436 0.52105 0.0
H2132 H 0.65576 0.06441 0.54854 0.0
C2133 C 0.74763 0.18126 0.67644 0.0
C2134 C 0.69166 0.129 0.63425 0.0
H2135 H 0.64279 0.06246 0.61626 0.0
C2136 C 0.69284 0.14261 0.61277 0.0
C2137 C 0.6745 0.09923 0.6349 0.0
C2138 C 0.67348 0.083 0.65688 0.0
C2139 C 0.67566 0.12796 0.59286 0.0
C2140 C 0.65702 0.09896 0.59438 0.0
C2141 C 0.65723 0.08466 0.61505 0.0
C2142 C 0.63359 0.08572 0.57746 0.0
C2143 C 0.67595 0.14417 0.57107 0.0
C2144 C 0.60816 0.09101 0.58467 0.0
C2145 C 0.58587 0.08017 0.56906 0.0
C2146 C 0.58823 0.06336 0.54589 0.0
C2147 C 0.61346 0.05725 0.5388 0.0
C2148 C 0.63619 0.06866 0.55444 0.0
H2149 H 0.69334 0.16559 0.57144 0.0
H2150 H 0.6781 0.13043 0.55311 0.0
H2151 H 0.65562 0.14835 0.57158 0.0
H2152 H 0.60565 0.10392 0.60239 0.0
H2153 H 0.56654 0.08483 0.57527 0.0
H2154 H 0.81027 0.27211 0.32314 0.0
H2155 H 0.83624 0.30492 0.3574 0.0
H2156 H 0.84015 0.38036 0.32228 0.0
H2157 H 0.8142 0.34768 0.28763 0.0
H2158 H 0.89182 0.35217 0.35218 0.0
H2159 H 0.80385 0.39095 0.39665 0.0
H2160 H 0.79776 0.35713 0.37567 0.0
H2161 H 0.81208 0.39186 0.36339 0.0
C2162 C 0.81666 0.29566 0.32259 0.0
C2163 C 0.80984 0.30733 0.30284 0.0
C2164 C 0.83145 0.31432 0.3422 0.0
C2165 C 0.83957 0.3449 0.34243 0.0
C2166 C 0.83352 0.35674 0.32251 0.0
H2167 H 0.94248 0.47832 0.4487 0.0
H2168 H 0.90598 0.45476 0.41891 0.0
C2169 C 0.81877 0.33806 0.30278 0.0
C2170 C 0.85468 0.36417 0.36359 0.0
H2171 H 0.84631 0.40821 0.41723 0.0
C2172 C 0.882 0.3646 0.36632 0.0
C2173 C 0.84167 0.38034 0.38181 0.0
C2174 C 0.81216 0.38011 0.37948 0.0
C2175 C 0.89663 0.38052 0.38714 0.0
C2176 C 0.88324 0.39578 0.40592 0.0
C2177 C 0.85623 0.39615 0.40286 0.0
C2178 C 0.89743 0.41095 0.42886 0.0
C2179 C 0.92627 0.38072 0.38902 0.0
C2180 C 0.90298 0.39426 0.4454 0.0
C2181 C 0.92397 0.40753 0.46214 0.0
C2182 C 0.93933 0.43766 0.46266 0.0
C2183 C 0.93098 0.45502 0.44857 0.0
C2184 C 0.91017 0.44162 0.43155 0.0
H2185 H 0.93565 0.37365 0.37063 0.0
H2186 H 0.94008 0.40301 0.39615 0.0
H2187 H 0.9259 0.36528 0.40237 0.0
H2188 H 0.89304 0.37056 0.44367 0.0
H2189 H 0.92979 0.39378 0.47309 0.0
H2190 H 0.69666 0.80064 0.26809 0.0
H2191 H 0.67094 0.82871 0.29635 0.0
H2192 H 0.71773 0.827 0.3577 0.0
H2193 H 0.74414 0.79998 0.32922 0.0
H2194 H 0.63781 0.81072 0.34429 0.0
H2195 H 0.72656 0.91616 0.35728 0.0
H2196 H 0.72618 0.8887 0.33069 0.0
H2197 H 0.73326 0.883 0.36097 0.0
C2198 C 0.70157 0.80641 0.28758 0.0
C2199 C 0.72219 0.79767 0.29653 0.0
C2200 C 0.68675 0.82232 0.30374 0.0
C2201 C 0.69245 0.83012 0.32917 0.0
C2202 C 0.71303 0.82141 0.33815 0.0
H2203 H 0.63291 0.93942 0.45148 0.0
H2204 H 0.65959 0.91219 0.42355 0.0
C2205 C 0.72779 0.80545 0.32198 0.0
C2206 C 0.6766 0.84701 0.34632 0.0
H2207 H 0.68377 0.91394 0.38044 0.0
C2208 C 0.64779 0.83332 0.35221 0.0
C2209 C 0.68971 0.87633 0.35689 0.0
C2210 C 0.7206 0.89214 0.35112 0.0
C2211 C 0.63182 0.84789 0.36869 0.0
C2212 C 0.64467 0.8777 0.37879 0.0
C2213 C 0.67364 0.89128 0.37282 0.0
C2214 C 0.62866 0.89512 0.39556 0.0
C2215 C 0.60161 0.83052 0.37568 0.0
C2216 C 0.60266 0.89566 0.3891 0.0
C2217 C 0.58707 0.91056 0.40541 0.0
C2218 C 0.59754 0.92647 0.4282 0.0
C2219 C 0.62427 0.92749 0.43404 0.0
C2220 C 0.63952 0.9118 0.41804 0.0
H2221 H 0.59839 0.80657 0.37401 0.0
H2222 H 0.59498 0.83765 0.39516 0.0
H2223 H 0.58771 0.83359 0.36259 0.0
H2224 H 0.59419 0.88436 0.37146 0.0
H2225 H 0.5667 0.90961 0.40017 0.0
H2226 H 0.21901 0.74456 0.33023 0.0
H2227 H 0.18624 0.71198 0.35872 0.0
H2228 H 0.16892 0.64075 0.29826 0.0
H2229 H 0.20368 0.67274 0.27053 0.0
H2230 H 0.13428 0.68601 0.36168 0.0
H2231 H 0.18111 0.5967 0.34768 0.0
H2232 H 0.1982 0.63096 0.33478 0.0
H2233 H 0.17038 0.60213 0.31886 0.0
C2234 C 0.20849 0.72176 0.32324 0.0
C2235 C 0.21413 0.71095 0.29838 0.0
C2236 C 0.18961 0.70314 0.33947 0.0
C2237 C 0.17535 0.67345 0.33101 0.0
C2238 C 0.18038 0.66303 0.30577 0.0
H2239 H 0.04239 0.54112 0.41273 0.0
H2240 H 0.06651 0.57395 0.38046 0.0
C2241 C 0.20008 0.68139 0.2898 0.0
C2242 C 0.15497 0.65387 0.34854 0.0
H2243 H 0.13687 0.58701 0.37078 0.0
C2244 C 0.13499 0.66439 0.36358 0.0
C2245 C 0.15567 0.62552 0.35133 0.0
C2246 C 0.17768 0.61332 0.3375 0.0
C2247 C 0.11619 0.6477 0.38132 0.0
C2248 C 0.11677 0.61943 0.38375 0.0
C2249 C 0.13618 0.60854 0.36849 0.0
C2250 C 0.09965 0.60206 0.40386 0.0
C2251 C 0.09623 0.66055 0.39789 0.0
C2252 C 0.11 0.60735 0.42772 0.0
C2253 C 0.09652 0.5886 0.44588 0.0
C2254 C 0.07218 0.5644 0.44072 0.0
C2255 C 0.06085 0.55992 0.41729 0.0
C2256 C 0.07469 0.57853 0.39886 0.0
H2257 H 0.09625 0.68151 0.39203 0.0
H2258 H 0.07449 0.64457 0.39765 0.0
H2259 H 0.10248 0.66487 0.41752 0.0
H2260 H 0.12927 0.62526 0.43191 0.0
H2261 H 0.10577 0.59233 0.46375 0.0
H2262 H 0.41298 0.18103 0.30033 0.0
H2263 H 0.42328 0.14843 0.32544 0.0
H2264 H 0.37757 0.179 0.38969 0.0
H2265 H 0.36719 0.21177 0.36441 0.0
H2266 H 0.4335 0.18551 0.39764 0.0
H2267 H 0.37748 0.0721 0.35559 0.0
H2268 H 0.39688 0.09646 0.33298 0.0
H2269 H 0.36755 0.10342 0.35156 0.0
C2270 C 0.40443 0.18007 0.31961 0.0
C2271 C 0.38926 0.19872 0.3305 0.0
C2272 C 0.41025 0.16142 0.33392 0.0
C2273 C 0.40109 0.16119 0.35939 0.0
C2274 C 0.3847 0.17877 0.37001 0.0
H2275 H 0.42483 0.04681 0.45618 0.0
H2276 H 0.40744 0.071 0.42873 0.0
C2277 C 0.37863 0.19729 0.35559 0.0
C2278 C 0.41154 0.14532 0.37536 0.0
H2279 H 0.41438 0.07765 0.38171 0.0
C2280 C 0.42913 0.16187 0.39437 0.0
C2281 C 0.40571 0.11453 0.37107 0.0
C2282 C 0.38566 0.09549 0.35186 0.0
C2283 C 0.44139 0.14854 0.40904 0.0
C2284 C 0.43658 0.11785 0.40407 0.0
C2285 C 0.41856 0.10124 0.38526 0.0
C2286 C 0.44827 0.10218 0.41936 0.0
C2287 C 0.4588 0.16747 0.43009 0.0
C2288 C 0.47729 0.11102 0.42283 0.0
C2289 C 0.48739 0.0975 0.43912 0.0
C2290 C 0.46869 0.07436 0.4516 0.0
C2291 C 0.43994 0.06453 0.44687 0.0
C2292 C 0.42986 0.07838 0.43112 0.0
H2293 H 0.45389 0.18822 0.43574 0.0
H2294 H 0.45523 0.15558 0.44683 0.0
H2295 H 0.48145 0.17352 0.42372 0.0
H2296 H 0.49208 0.12869 0.4133 0.0
H2297 H 0.50967 0.10534 0.44215 0.0
H2298 H 0.64299 0.78224 0.64514 0.0
H2299 H 0.62401 0.80324 0.61546 0.0
H2300 H 0.64322 0.88539 0.66394 0.0
H2301 H 0.66231 0.86468 0.69352 0.0
H2302 H 0.57748 0.82844 0.63083 0.0
H2303 H 0.67531 0.90777 0.59169 0.0
H2304 H 0.67537 0.87607 0.60539 0.0
H2305 H 0.67181 0.90784 0.6252 0.0
C2306 C 0.64363 0.80495 0.64919 0.0
C2307 C 0.65399 0.82182 0.67167 0.0
C2308 C 0.63267 0.81682 0.63234 0.0
C2309 C 0.63233 0.84585 0.63753 0.0
C2310 C 0.64351 0.86302 0.65952 0.0
H2311 H 0.57889 0.96311 0.5656 0.0
H2312 H 0.59641 0.93972 0.59413 0.0
C2313 C 0.65424 0.85112 0.67645 0.0
C2314 C 0.61872 0.85776 0.62086 0.0
H2315 H 0.63205 0.91076 0.582 0.0
C2316 C 0.58933 0.84631 0.61997 0.0
C2317 C 0.63431 0.88121 0.60702 0.0
C2318 C 0.66598 0.89392 0.60713 0.0
C2319 C 0.57495 0.85827 0.60605 0.0
C2320 C 0.59054 0.88176 0.59208 0.0
C2321 C 0.62004 0.89288 0.59278 0.0
C2322 C 0.57692 0.8953 0.57661 0.0
C2323 C 0.54318 0.84626 0.60723 0.0
C2324 C 0.55953 0.87811 0.55761 0.0
C2325 C 0.54894 0.89141 0.54162 0.0
C2326 C 0.55617 0.92222 0.54394 0.0
C2327 C 0.57292 0.93931 0.56338 0.0
C2328 C 0.58306 0.92598 0.57962 0.0
H2329 H 0.53446 0.83546 0.62449 0.0
H2330 H 0.534 0.86389 0.60674 0.0
H2331 H 0.53635 0.82942 0.5909 0.0
H2332 H 0.55509 0.85451 0.55442 0.0
H2333 H 0.5365 0.87769 0.52655 0.0
H2334 H 0.67339 0.19982 0.2753 0.0
H2335 H 0.63789 0.17143 0.30507 0.0
H2336 H 0.70423 0.16932 0.34761 0.0
H2337 H 0.73966 0.19865 0.31824 0.0
H2338 H 0.63947 0.11096 0.3227 0.0
H2339 H 0.64383 0.20632 0.39521 0.0
H2340 H 0.65081 0.21021 0.36212 0.0
H2341 H 0.67647 0.2043 0.37912 0.0
C2342 C 0.68023 0.194 0.29142 0.0
C2343 C 0.70901 0.20235 0.29519 0.0
C2344 C 0.66004 0.17737 0.30811 0.0
C2345 C 0.66848 0.16863 0.32866 0.0
C2346 C 0.69734 0.1762 0.332 0.0
H2347 H 0.61519 0.07755 0.45377 0.0
H2348 H 0.63589 0.10983 0.42131 0.0
C2349 C 0.71749 0.19289 0.31531 0.0
C2350 C 0.64728 0.15183 0.34688 0.0
H2351 H 0.61897 0.15875 0.40694 0.0
C2352 C 0.63451 0.12138 0.34097 0.0
C2353 C 0.64088 0.16564 0.37057 0.0
C2354 C 0.65351 0.19846 0.37729 0.0
C2355 C 0.61654 0.1041 0.35875 0.0
C2356 C 0.61109 0.11774 0.38288 0.0
C2357 C 0.62299 0.14839 0.38837 0.0
C2358 C 0.59692 0.10011 0.40369 0.0
C2359 C 0.60477 0.07117 0.35222 0.0
C2360 C 0.56783 0.08449 0.405 0.0
C2361 C 0.55572 0.06604 0.42389 0.0
C2362 C 0.57273 0.06272 0.44136 0.0
C2363 C 0.60157 0.07933 0.44041 0.0
C2364 C 0.61346 0.0979 0.42191 0.0
H2365 H 0.61233 0.06379 0.33313 0.0
H2366 H 0.61079 0.05994 0.36604 0.0
H2367 H 0.58142 0.06412 0.3532 0.0
H2368 H 0.55468 0.0861 0.39115 0.0
H2369 H 0.53344 0.05352 0.42419 0.0
H2370 H 0.8056 0.60766 0.35818 0.0
H2371 H 0.84342 0.59407 0.37228 0.0
H2372 H 0.9008 0.68207 0.36644 0.0
H2373 H 0.86303 0.69576 0.35206 0.0
H2374 H 0.90772 0.60669 0.34762 0.0
H2375 H 0.88859 0.65842 0.44421 0.0
H2376 H 0.86115 0.64426 0.42246 0.0
H2377 H 0.88965 0.67746 0.41771 0.0
C2378 C 0.82637 0.62399 0.35967 0.0
C2379 C 0.83143 0.65281 0.35431 0.0
C2380 C 0.84792 0.61617 0.36755 0.0
C2381 C 0.87473 0.63713 0.37041 0.0
C2382 C 0.88018 0.66564 0.36422 0.0
H2383 H 0.99901 0.61957 0.46113 0.0
H2384 H 0.97853 0.64013 0.43244 0.0
C2385 C 0.85868 0.67339 0.35604 0.0
C2386 C 0.89614 0.62974 0.38197 0.0
H2387 H 0.92171 0.63369 0.4386 0.0
C2388 C 0.91113 0.61284 0.36743 0.0
C2389 C 0.90036 0.63784 0.40778 0.0
C2390 C 0.88412 0.65543 0.42414 0.0
C2391 C 0.93005 0.60339 0.37825 0.0
C2392 C 0.9336 0.61069 0.40429 0.0
C2393 C 0.91915 0.62834 0.4186 0.0
C2394 C 0.94987 0.59804 0.41772 0.0
C2395 C 0.94587 0.58547 0.36181 0.0
C2396 C 0.94103 0.56753 0.41849 0.0
C2397 C 0.95259 0.55576 0.43486 0.0
C2398 C 0.97318 0.5743 0.45089 0.0
C2399 C 0.98332 0.60469 0.44894 0.0
C2400 C 0.97158 0.61648 0.43262 0.0
H2401 H 0.94781 0.58967 0.34192 0.0
H2402 H 0.96727 0.59039 0.36822 0.0
H2403 H 0.93418 0.56172 0.36266 0.0
H2404 H 0.92395 0.55293 0.40754 0.0
H2405 H 0.94434 0.53224 0.43586 0.0
H2406 H 0.32041 0.85549 0.28683 0.0
H2407 H 0.34445 0.8847 0.32361 0.0
H2408 H 0.27879 0.83243 0.37197 0.0
H2409 H 0.25405 0.80371 0.33495 0.0
H2410 H 0.30359 0.89338 0.39282 0.0
H2411 H 0.38297 0.83941 0.35721 0.0
H2412 H 0.37985 0.86282 0.33577 0.0
H2413 H 0.35057 0.83076 0.34229 0.0
C2414 C 0.31058 0.85099 0.30534 0.0
C2415 C 0.28553 0.82733 0.30815 0.0
C2416 C 0.3244 0.86755 0.32633 0.0
C2417 C 0.31381 0.86026 0.3505 0.0
C2418 C 0.28741 0.83834 0.35347 0.0
H2419 H 0.42916 0.89187 0.46572 0.0
H2420 H 0.3876 0.87079 0.44144 0.0
C2421 C 0.27322 0.82204 0.33236 0.0
C2422 C 0.3321 0.87279 0.37191 0.0
H2423 H 0.39577 0.8778 0.39111 0.0
C2424 C 0.32368 0.88989 0.39257 0.0
C2425 C 0.35818 0.8679 0.37175 0.0
C2426 C 0.36829 0.84898 0.35068 0.0
C2427 C 0.34113 0.90292 0.41269 0.0
C2428 C 0.36755 0.89872 0.41201 0.0
C2429 C 0.37553 0.88107 0.39164 0.0
C2430 C 0.3879 0.91249 0.43176 0.0
C2431 C 0.33117 0.92087 0.43455 0.0
C2432 C 0.40124 0.94316 0.43536 0.0
C2433 C 0.42511 0.95538 0.44942 0.0
C2434 C 0.43617 0.93701 0.45974 0.0
C2435 C 0.4214 0.90659 0.45773 0.0
C2436 C 0.39755 0.89449 0.44392 0.0
H2437 H 0.30806 0.91633 0.43514 0.0
H2438 H 0.33657 0.91633 0.45255 0.0
H2439 H 0.34186 0.94462 0.43281 0.0
H2440 H 0.39446 0.95748 0.42588 0.0
H2441 H 0.43606 0.97888 0.45057 0.0
H2442 H 0.23306 0.28976 0.3293 0.0
H2443 H 0.20692 0.31734 0.35704 0.0
H2444 H 0.18895 0.35033 0.29344 0.0
H2445 H 0.21599 0.32344 0.26542 0.0
H2446 H 0.21482 0.39232 0.3475 0.0
H2447 H 0.11325 0.29957 0.34914 0.0
H2448 H 0.14617 0.29237 0.34777 0.0
H2449 H 0.13691 0.30448 0.32127 0.0
C2450 C 0.22418 0.30333 0.32113 0.0
C2451 C 0.2274 0.30483 0.29506 0.0
C2452 C 0.20891 0.31888 0.33708 0.0
C2453 C 0.19608 0.336 0.32735 0.0
C2454 C 0.19887 0.33739 0.30136 0.0
H2455 H 0.06786 0.40827 0.40244 0.0
H2456 H 0.09645 0.38473 0.37313 0.0
C2457 C 0.21434 0.32197 0.28537 0.0
C2458 C 0.17962 0.35223 0.3444 0.0
H2459 H 0.11474 0.3436 0.37453 0.0
C2460 C 0.19289 0.38181 0.3534 0.0
C2461 C 0.15103 0.33851 0.35187 0.0
C2462 C 0.13574 0.30698 0.3421 0.0
C2463 C 0.1783 0.39817 0.3696 0.0
C2464 C 0.1497 0.38427 0.37778 0.0
C2465 C 0.13654 0.35453 0.36855 0.0
C2466 C 0.13284 0.40002 0.39545 0.0
C2467 C 0.19367 0.4304 0.37699 0.0
C2468 C 0.14337 0.4167 0.41802 0.0
C2469 C 0.12733 0.43115 0.43439 0.0
C2470 C 0.09985 0.42827 0.42918 0.0
C2471 C 0.08902 0.41107 0.40696 0.0
C2472 C 0.10538 0.39744 0.39022 0.0
H2473 H 0.21098 0.43952 0.36284 0.0
H2474 H 0.17925 0.44358 0.37923 0.0
H2475 H 0.20334 0.43307 0.39501 0.0
H2476 H 0.16384 0.41818 0.42334 0.0
H2477 H 0.13606 0.44367 0.45161 0.0
H2478 H 0.28282 0.15952 0.71313 0.0
H2479 H 0.30896 0.13198 0.68502 0.0
H2480 H 0.36537 0.21307 0.65998 0.0
H2481 H 0.34013 0.24077 0.68888 0.0
H2482 H 0.31906 0.12905 0.63251 0.0
H2483 H 0.41967 0.17522 0.67933 0.0
H2484 H 0.38705 0.17902 0.6941 0.0
H2485 H 0.40661 0.20227 0.67075 0.0
C2486 C 0.30105 0.17156 0.70195 0.0
C2487 C 0.30938 0.20244 0.70336 0.0
C2488 C 0.31584 0.15573 0.68568 0.0
C2489 C 0.33941 0.1704 0.67056 0.0
C2490 C 0.34758 0.20121 0.67173 0.0
H2491 H 0.46278 0.12139 0.56536 0.0
H2492 H 0.43477 0.14564 0.59418 0.0
C2493 C 0.33286 0.21703 0.68804 0.0
C2494 C 0.35523 0.15349 0.65339 0.0
H2495 H 0.42012 0.14553 0.64051 0.0
C2496 C 0.34114 0.13252 0.63428 0.0
C2497 C 0.38406 0.15807 0.65564 0.0
C2498 C 0.40024 0.17967 0.67618 0.0
C2499 C 0.35522 0.1167 0.61691 0.0
C2500 C 0.38414 0.12116 0.61916 0.0
C2501 C 0.39805 0.14193 0.63857 0.0
C2502 C 0.40078 0.10558 0.60117 0.0
C2503 C 0.33908 0.09628 0.59579 0.0
C2504 C 0.39144 0.0747 0.59534 0.0
C2505 C 0.4073 0.06068 0.57824 0.0
C2506 C 0.43332 0.07712 0.56713 0.0
C2507 C 0.44291 0.10789 0.57351 0.0
C2508 C 0.42684 0.12188 0.59011 0.0
H2509 H 0.32069 0.10234 0.59218 0.0
H2510 H 0.35266 0.09648 0.57815 0.0
H2511 H 0.33092 0.07351 0.601 0.0
H2512 H 0.37198 0.06132 0.60416 0.0
H2513 H 0.39939 0.03694 0.57403 0.0
H2514 H 0.82446 0.33751 0.71387 0.0
H2515 H 0.86009 0.36336 0.68353 0.0
H2516 H 0.8598 0.28022 0.64221 0.0
H2517 H 0.82233 0.25418 0.67172 0.0
H2518 H 0.91288 0.36296 0.67059 0.0
H2519 H 0.84874 0.32218 0.58729 0.0
H2520 H 0.83349 0.31731 0.61882 0.0
H2521 H 0.85292 0.29415 0.60318 0.0
C2522 C 0.83152 0.32469 0.69807 0.0
C2523 C 0.82025 0.29381 0.69497 0.0
C2524 C 0.85222 0.33951 0.68088 0.0
C2525 C 0.86245 0.32382 0.66035 0.0
C2526 C 0.85182 0.29287 0.65756 0.0
H2527 H 0.98336 0.41262 0.54124 0.0
H2528 H 0.96105 0.37526 0.57024 0.0
C2529 C 0.83067 0.278 0.67459 0.0
C2530 C 0.88399 0.34031 0.642 0.0
H2531 H 0.89434 0.35574 0.58125 0.0
C2532 C 0.90897 0.36107 0.65098 0.0
C2533 C 0.87892 0.33786 0.61637 0.0
C2534 C 0.852 0.31688 0.60579 0.0
C2535 C 0.92839 0.38021 0.63531 0.0
C2536 C 0.92281 0.37846 0.61001 0.0
C2537 C 0.89864 0.35675 0.60065 0.0
C2538 C 0.9393 0.4017 0.59414 0.0
C2539 C 0.95425 0.40301 0.64607 0.0
C2540 C 0.93474 0.42891 0.59826 0.0
C2541 C 0.94709 0.44992 0.58172 0.0
C2542 C 0.96455 0.44433 0.56084 0.0
C2543 C 0.9703 0.41763 0.55736 0.0
C2544 C 0.95746 0.39626 0.57378 0.0
H2545 H 0.95854 0.39782 0.66425 0.0
H2546 H 0.97297 0.40477 0.63272 0.0
H2547 H 0.9511 0.4248 0.64921 0.0
H2548 H 0.92067 0.43343 0.61376 0.0
H2549 H 0.9423 0.47031 0.58486 0.0
H2550 H 0.2639 0.7201 0.6685 0.0
H2551 H 0.2447 0.68832 0.63041 0.0
H2552 H 0.16522 0.65214 0.67191 0.0
H2553 H 0.18487 0.68277 0.7102 0.0
H2554 H 0.19032 0.60982 0.64118 0.0
H2555 H 0.18377 0.6976 0.58868 0.0
H2556 H 0.21547 0.70325 0.60377 0.0
H2557 H 0.18371 0.70256 0.62248 0.0
C2558 C 0.24231 0.70538 0.66929 0.0
C2559 C 0.22566 0.70378 0.69195 0.0
C2560 C 0.23139 0.6874 0.64765 0.0
C2561 C 0.20355 0.66814 0.64842 0.0
C2562 C 0.1868 0.66688 0.67106 0.0
H2563 H 0.07008 0.54856 0.57525 0.0
H2564 H 0.11005 0.57215 0.601 0.0
C2565 C 0.19788 0.68447 0.69278 0.0
C2566 C 0.1917 0.64874 0.62586 0.0
H2567 H 0.16321 0.64878 0.57173 0.0
C2568 C 0.18476 0.61826 0.62573 0.0
C2569 C 0.18511 0.65996 0.60558 0.0
C2570 C 0.19226 0.69261 0.60495 0.0
C2571 C 0.1699 0.5985 0.60644 0.0
C2572 C 0.16112 0.60963 0.58721 0.0
C2573 C 0.16991 0.64021 0.58645 0.0
C2574 C 0.13913 0.59071 0.5704 0.0
C2575 C 0.16312 0.56594 0.60732 0.0
C2576 C 0.14195 0.59335 0.54456 0.0
C2577 C 0.11872 0.58043 0.52994 0.0
C2578 C 0.09269 0.56453 0.54104 0.0
C2579 C 0.09024 0.56046 0.5664 0.0
C2580 C 0.11318 0.57367 0.58103 0.0
H2581 H 0.18043 0.56161 0.6153 0.0
H2582 H 0.14386 0.55782 0.61983 0.0
H2583 H 0.15958 0.55325 0.58844 0.0
H2584 H 0.1617 0.60662 0.53602 0.0
H2585 H 0.12074 0.58386 0.51036 0.0
loop_
_geom_bond_atom_site_label_1
_geom_bond_atom_site_label_2
_geom_bond_distance
_geom_bond_site_symmetry_2
_ccdc_geom_bond_type
Eu0 N29 2.600 . S
Eu0 N35 2.562 . S
Eu0 O44 2.462 . S
Eu0 O45 2.373 . S
Eu0 O47 2.432 . S
Eu0 O48 2.291 . S
Eu0 O52 2.335 . S
Eu0 O55 2.372 . S
Eu0 C64 2.787 . S
C1 N2 1.365 . S
C1 C4 1.405 . S
C1 C8 1.448 . S
N2 C1 1.365 . S
N2 C5 1.319 . S
N2 Eu11 2.600 . S
C3 C5 1.397 . S
C3 C6 1.367 . S
C3 H23 0.931 . S
C4 C1 1.405 . S
C4 C6 1.403 . S
C4 C10 1.439 . S
C5 N2 1.319 . S
C5 C3 1.397 . S
C5 H16 0.930 . S
C6 C3 1.367 . S
C6 C4 1.403 . S
C6 H27 0.929 . S
C7 C8 1.430 . S
C7 C9 1.387 . S
C7 C13 1.404 . S
C8 C1 1.448 . S
C8 C7 1.430 . S
C8 N12 1.351 . S
C9 C7 1.387 . S
C9 C10 1.374 . S
C9 H24 0.931 . S
C10 C4 1.439 . S
C10 C9 1.374 . S
C10 H25 0.931 . S
Eu11 N2 2.600 . S
Eu11 N12 2.562 . S
Eu11 O46 2.335 . S
Eu11 O49 2.372 . S
Eu11 O50 2.462 . S
Eu11 O51 2.373 . S
Eu11 O53 2.432 . S
Eu11 O54 2.291 . S
Eu11 C75 2.787 . S
N12 C8 1.351 . S
N12 Eu11 2.562 . S
N12 C14 1.325 . S
C13 C7 1.404 . S
C13 C15 1.366 . S
C13 H21 0.930 . S
C14 N12 1.325 . S
C14 C15 1.416 . S
C14 H20 0.929 . S
C15 C13 1.366 . S
C15 C14 1.416 . S
C15 H17 0.930 . S
H16 C5 0.930 . S
H17 C15 0.930 . S
H18 C33 0.930 . S
H19 C40 0.930 . S
H20 C14 0.929 . S
H21 C13 0.930 . S
H22 C36 0.929 . S
H23 C3 0.931 . S
H24 C9 0.931 . S
H25 C10 0.931 . S
H26 C31 0.931 . S
H27 C6 0.929 . S
H28 C39 0.930 . S
N29 Eu0 2.600 . S
N29 C30 1.365 . S
N29 C33 1.319 . S
C30 N29 1.365 . S
C30 C32 1.405 . S
C30 C38 1.448 . S
C31 H26 0.931 . S
C31 C33 1.397 . S
C31 C34 1.367 . S
C32 C30 1.405 . S
C32 C34 1.403 . S
C32 C65 1.439 . S
C33 H18 0.930 . S
C33 N29 1.319 . S
C33 C31 1.397 . S
C34 C31 1.367 . S
C34 C32 1.403 . S
C34 H41 0.929 . S
N35 Eu0 2.562 . S
N35 C36 1.325 . S
N35 C38 1.351 . S
C36 H22 0.929 . S
C36 N35 1.325 . S
C36 C40 1.416 . S
C37 C38 1.430 . S
C37 C39 1.404 . S
C37 C66 1.387 . S
C38 C30 1.448 . S
C38 N35 1.351 . S
C38 C37 1.430 . S
C39 H28 0.930 . S
C39 C37 1.404 . S
C39 C40 1.366 . S
C40 H19 0.930 . S
C40 C36 1.416 . S
C40 C39 1.366 . S
H41 C34 0.929 . S
H42 C65 0.931 . S
H43 C66 0.931 . S
O44 Eu0 2.462 . S
O44 C64 1.252 . S
O45 Eu0 2.373 . S
O45 C56 1.249 . S
O46 Eu11 2.335 . S
O46 C56 1.264 . S
O47 Eu0 2.432 . S
O47 C64 1.268 . S
O48 Eu0 2.291 . S
O48 C63 1.255 . S
O49 Eu11 2.372 . S
O49 C63 1.257 . S
O50 Eu11 2.462 . S
O50 C75 1.252 . S
O51 Eu11 2.373 . S
O51 C67 1.249 . S
O52 Eu0 2.335 . S
O52 C67 1.264 . S
O53 Eu11 2.432 . S
O53 C75 1.268 . S
O54 Eu11 2.291 . S
O54 C74 1.255 . S
O55 Eu0 2.372 . S
O55 C74 1.257 . S
C56 O45 1.249 . S
C56 O46 1.264 . S
C57 C60 1.382 . S
C57 C62 1.390 . S
C57 C64 1.506 . S
C58 C59 1.398 . S
C58 C62 1.392 . S
C59 C58 1.398 . S
C59 C61 1.372 . S
C59 H76 0.931 . S
C60 C57 1.382 . S
C60 C61 1.390 . S
C60 H77 0.931 . S
C61 C59 1.372 . S
C61 C60 1.390 . S
C61 H78 0.929 . S
C62 C57 1.390 . S
C62 C58 1.392 . S
C62 H79 0.930 . S
C63 O48 1.255 . S
C63 O49 1.257 . S
C64 Eu0 2.787 . S
C64 O44 1.252 . S
C64 O47 1.268 . S
C64 C57 1.506 . S
C65 C32 1.439 . S
C65 H42 0.931 . S
C65 C66 1.374 . S
C66 C37 1.387 . S
C66 H43 0.931 . S
C66 C65 1.374 . S
C67 O51 1.249 . S
C67 O52 1.264 . S
C68 C71 1.382 . S
C68 C72 1.390 . S
C68 C75 1.506 . S
C69 C70 1.398 . S
C69 C72 1.392 . S
C70 C69 1.398 . S
C70 C73 1.372 . S
C70 H80 0.931 . S
C71 C68 1.382 . S
C71 C73 1.390 . S
C71 H81 0.931 . S
C72 C68 1.390 . S
C72 C69 1.392 . S
C72 H82 0.930 . S
C73 C70 1.372 . S
C73 C71 1.390 . S
C73 H83 0.929 . S
C74 O54 1.255 . S
C74 O55 1.257 . S
C75 Eu11 2.787 . S
C75 O50 1.252 . S
C75 O53 1.268 . S
C75 C68 1.506 . S
H76 C59 0.931 . S
H77 C60 0.931 . S
H78 C61 0.929 . S
H79 C62 0.930 . S
H80 C70 0.931 . S
H81 C71 0.931 . S
H82 C72 0.930 . S
H83 C73 0.929 . S
Eu84 N113 2.600 . S
Eu84 N119 2.562 . S
Eu84 O128 2.462 . S
Eu84 O129 2.373 . S
Eu84 O131 2.432 . S
Eu84 O132 2.291 . S
Eu84 O136 2.335 . S
Eu84 O139 2.372 . S
Eu84 C148 2.787 . S
C85 N86 1.365 . S
C85 C88 1.405 . S
C85 C92 1.448 . S
N86 C85 1.365 . S
N86 C89 1.319 . S
N86 Eu95 2.600 . S
C87 C89 1.397 . S
C87 C90 1.367 . S
C87 H107 0.931 . S
C88 C85 1.405 . S
C88 C90 1.403 . S
C88 C94 1.439 . S
C89 N86 1.319 . S
C89 C87 1.397 . S
C89 H100 0.930 . S
C90 C87 1.367 . S
C90 C88 1.403 . S
C90 H111 0.929 . S
C91 C92 1.430 . S
C91 C93 1.387 . S
C91 C97 1.404 . S
C92 C85 1.448 . S
C92 C91 1.430 . S
C92 N96 1.351 . S
C93 C91 1.387 . S
C93 C94 1.374 . S
C93 H108 0.931 . S
C94 C88 1.439 . S
C94 C93 1.374 . S
C94 H109 0.931 . S
Eu95 N86 2.600 . S
Eu95 N96 2.562 . S
Eu95 O130 2.335 . S
Eu95 O133 2.372 . S
Eu95 O134 2.462 . S
Eu95 O135 2.373 . S
Eu95 O137 2.432 . S
Eu95 O138 2.291 . S
Eu95 C159 2.787 . S
N96 C92 1.351 . S
N96 Eu95 2.562 . S
N96 C98 1.325 . S
C97 C91 1.404 . S
C97 C99 1.366 . S
C97 H105 0.930 . S
C98 N96 1.325 . S
C98 C99 1.416 . S
C98 H104 0.929 . S
C99 C97 1.366 . S
C99 C98 1.416 . S
C99 H101 0.930 . S
H100 C89 0.930 . S
H101 C99 0.930 . S
H102 C117 0.930 . S
H103 C124 0.930 . S
H104 C98 0.929 . S
H105 C97 0.930 . S
H106 C120 0.929 . S
H107 C87 0.931 . S
H108 C93 0.931 . S
H109 C94 0.931 . S
H110 C115 0.931 . S
H111 C90 0.929 . S
H112 C123 0.930 . S
N113 Eu84 2.600 . S
N113 C114 1.365 . S
N113 C117 1.319 . S
C114 N113 1.365 . S
C114 C116 1.405 . S
C114 C122 1.448 . S
C115 H110 0.931 . S
C115 C117 1.397 . S
C115 C118 1.367 . S
C116 C114 1.405 . S
C116 C118 1.403 . S
C116 C149 1.439 . S
C117 H102 0.930 . S
C117 N113 1.319 . S
C117 C115 1.397 . S
C118 C115 1.367 . S
C118 C116 1.403 . S
C118 H125 0.929 . S
N119 Eu84 2.562 . S
N119 C120 1.325 . S
N119 C122 1.351 . S
C120 H106 0.929 . S
C120 N119 1.325 . S
C120 C124 1.416 . S
C121 C122 1.430 . S
C121 C123 1.404 . S
C121 C150 1.387 . S
C122 C114 1.448 . S
C122 N119 1.351 . S
C122 C121 1.430 . S
C123 H112 0.930 . S
C123 C121 1.404 . S
C123 C124 1.366 . S
C124 H103 0.930 . S
C124 C120 1.416 . S
C124 C123 1.366 . S
H125 C118 0.929 . S
H126 C149 0.931 . S
H127 C150 0.931 . S
O128 Eu84 2.462 . S
O128 C148 1.252 . S
O129 Eu84 2.373 . S
O129 C140 1.249 . S
O130 Eu95 2.335 . S
O130 C140 1.264 . S
O131 Eu84 2.432 . S
O131 C148 1.268 . S
O132 Eu84 2.291 . S
O132 C147 1.255 . S
O133 Eu95 2.372 . S
O133 C147 1.257 . S
O134 Eu95 2.462 . S
O134 C159 1.252 . S
O135 Eu95 2.373 . S
O135 C151 1.249 . S
O136 Eu84 2.335 . S
O136 C151 1.264 . S
O137 Eu95 2.432 . S
O137 C159 1.268 . S
O138 Eu95 2.291 . S
O138 C158 1.255 . S
O139 Eu84 2.372 . S
O139 C158 1.257 . S
C140 O129 1.249 . S
C140 O130 1.264 . S
C141 C144 1.382 . S
C141 C146 1.390 . S
C141 C148 1.506 . S
C142 C143 1.398 . S
C142 C146 1.392 . S
C143 C142 1.398 . S
C143 C145 1.372 . S
C143 H160 0.931 . S
C144 C141 1.382 . S
C144 C145 1.390 . S
C144 H161 0.931 . S
C145 C143 1.372 . S
C145 C144 1.390 . S
C145 H162 0.929 . S
C146 C141 1.390 . S
C146 C142 1.392 . S
C146 H163 0.930 . S
C147 O132 1.255 . S
C147 O133 1.257 . S
C148 Eu84 2.787 . S
C148 O128 1.252 . S
C148 O131 1.268 . S
C148 C141 1.506 . S
C149 C116 1.439 . S
C149 H126 0.931 . S
C149 C150 1.374 . S
C150 C121 1.387 . S
C150 H127 0.931 . S
C150 C149 1.374 . S
C151 O135 1.249 . S
C151 O136 1.264 . S
C152 C155 1.382 . S
C152 C156 1.390 . S
C152 C159 1.506 . S
C153 C154 1.398 . S
C153 C156 1.392 . S
C154 C153 1.398 . S
C154 C157 1.372 . S
C154 H164 0.931 . S
C155 C152 1.382 . S
C155 C157 1.390 . S
C155 H165 0.931 . S
C156 C152 1.390 . S
C156 C153 1.392 . S
C156 H166 0.930 . S
C157 C154 1.372 . S
C157 C155 1.390 . S
C157 H167 0.929 . S
C158 O138 1.255 . S
C158 O139 1.257 . S
C159 Eu95 2.787 . S
C159 O134 1.252 . S
C159 O137 1.268 . S
C159 C152 1.506 . S
H160 C143 0.931 . S
H161 C144 0.931 . S
H162 C145 0.929 . S
H163 C146 0.930 . S
H164 C154 0.931 . S
H165 C155 0.931 . S
H166 C156 0.930 . S
H167 C157 0.929 . S
Eu168 N197 2.600 . S
Eu168 N203 2.562 . S
Eu168 O212 2.462 . S
Eu168 O213 2.373 . S
Eu168 O215 2.432 . S
Eu168 O216 2.291 . S
Eu168 O220 2.335 . S
Eu168 O223 2.372 . S
Eu168 C232 2.787 . S
C169 N170 1.365 . S
C169 C172 1.405 . S
C169 C176 1.448 . S
N170 C169 1.365 . S
N170 C173 1.319 . S
N170 Eu179 2.600 . S
C171 C173 1.397 . S
C171 C174 1.367 . S
C171 H191 0.931 . S
C172 C169 1.405 . S
C172 C174 1.403 . S
C172 C178 1.439 . S
C173 N170 1.319 . S
C173 C171 1.397 . S
C173 H184 0.930 . S
C174 C171 1.367 . S
C174 C172 1.403 . S
C174 H195 0.929 . S
C175 C176 1.430 . S
C175 C177 1.387 . S
C175 C181 1.404 . S
C176 C169 1.448 . S
C176 C175 1.430 . S
C176 N180 1.351 . S
C177 C175 1.387 . S
C177 C178 1.374 . S
C177 H192 0.931 . S
C178 C172 1.439 . S
C178 C177 1.374 . S
C178 H193 0.931 . S
Eu179 N170 2.600 . S
Eu179 N180 2.562 . S
Eu179 O214 2.335 . S
Eu179 O217 2.372 . S
Eu179 O218 2.462 . S
Eu179 O219 2.373 . S
Eu179 O221 2.432 . S
Eu179 O222 2.291 . S
Eu179 C243 2.787 . S
N180 C176 1.351 . S
N180 Eu179 2.562 . S
N180 C182 1.325 . S
C181 C175 1.404 . S
C181 C183 1.366 . S
C181 H189 0.930 . S
C182 N180 1.325 . S
C182 C183 1.416 . S
C182 H188 0.929 . S
C183 C181 1.366 . S
C183 C182 1.416 . S
C183 H185 0.930 . S
H184 C173 0.930 . S
H185 C183 0.930 . S
H186 C201 0.930 . S
H187 C208 0.930 . S
H188 C182 0.929 . S
H189 C181 0.930 . S
H190 C204 0.929 . S
H191 C171 0.931 . S
H192 C177 0.931 . S
H193 C178 0.931 . S
H194 C199 0.931 . S
H195 C174 0.929 . S
H196 C207 0.930 . S
N197 Eu168 2.600 . S
N197 C198 1.365 . S
N197 C201 1.319 . S
C198 N197 1.365 . S
C198 C200 1.405 . S
C198 C206 1.448 . S
C199 H194 0.931 . S
C199 C201 1.397 . S
C199 C202 1.367 . S
C200 C198 1.405 . S
C200 C202 1.403 . S
C200 C233 1.439 . S
C201 H186 0.930 . S
C201 N197 1.319 . S
C201 C199 1.397 . S
C202 C199 1.367 . S
C202 C200 1.403 . S
C202 H209 0.929 . S
N203 Eu168 2.562 . S
N203 C204 1.325 . S
N203 C206 1.351 . S
C204 H190 0.929 . S
C204 N203 1.325 . S
C204 C208 1.416 . S
C205 C206 1.430 . S
C205 C207 1.404 . S
C205 C234 1.387 . S
C206 C198 1.448 . S
C206 N203 1.351 . S
C206 C205 1.430 . S
C207 H196 0.930 . S
C207 C205 1.404 . S
C207 C208 1.366 . S
C208 H187 0.930 . S
C208 C204 1.416 . S
C208 C207 1.366 . S
H209 C202 0.929 . S
H210 C233 0.931 . S
H211 C234 0.931 . S
O212 Eu168 2.462 . S
O212 C232 1.252 . S
O213 Eu168 2.373 . S
O213 C224 1.249 . S
O214 Eu179 2.335 . S
O214 C224 1.264 . S
O215 Eu168 2.432 . S
O215 C232 1.268 . S
O216 Eu168 2.291 . S
O216 C231 1.255 . S
O217 Eu179 2.372 . S
O217 C231 1.257 . S
O218 Eu179 2.462 . S
O218 C243 1.252 . S
O219 Eu179 2.373 . S
O219 C235 1.249 . S
O220 Eu168 2.335 . S
O220 C235 1.264 . S
O221 Eu179 2.432 . S
O221 C243 1.268 . S
O222 Eu179 2.291 . S
O222 C242 1.255 . S
O223 Eu168 2.372 . S
O223 C242 1.257 . S
C224 O213 1.249 . S
C224 O214 1.264 . S
C225 C228 1.382 . S
C225 C230 1.390 . S
C225 C232 1.506 . S
C226 C227 1.398 . S
C226 C230 1.392 . S
C227 C226 1.398 . S
C227 C229 1.372 . S
C227 H244 0.931 . S
C228 C225 1.382 . S
C228 C229 1.390 . S
C228 H245 0.931 . S
C229 C227 1.372 . S
C229 C228 1.390 . S
C229 H246 0.929 . S
C230 C225 1.390 . S
C230 C226 1.392 . S
C230 H247 0.930 . S
C231 O216 1.255 . S
C231 O217 1.257 . S
C232 Eu168 2.787 . S
C232 O212 1.252 . S
C232 O215 1.268 . S
C232 C225 1.506 . S
C233 C200 1.439 . S
C233 H210 0.931 . S
C233 C234 1.374 . S
C234 C205 1.387 . S
C234 H211 0.931 . S
C234 C233 1.374 . S
C235 O219 1.249 . S
C235 O220 1.264 . S
C236 C239 1.382 . S
C236 C240 1.390 . S
C236 C243 1.506 . S
C237 C238 1.398 . S
C237 C240 1.392 . S
C238 C237 1.398 . S
C238 C241 1.372 . S
C238 H248 0.931 . S
C239 C236 1.382 . S
C239 C241 1.390 . S
C239 H249 0.931 . S
C240 C236 1.390 . S
C240 C237 1.392 . S
C240 H250 0.930 . S
C241 C238 1.372 . S
C241 C239 1.390 . S
C241 H251 0.929 . S
C242 O222 1.255 . S
C242 O223 1.257 . S
C243 Eu179 2.787 . S
C243 O218 1.252 . S
C243 O221 1.268 . S
C243 C236 1.506 . S
H244 C227 0.931 . S
H245 C228 0.931 . S
H246 C229 0.929 . S
H247 C230 0.930 . S
H248 C238 0.931 . S
H249 C239 0.931 . S
H250 C240 0.930 . S
H251 C241 0.929 . S
Eu252 N281 2.600 . S
Eu252 N287 2.562 . S
Eu252 O296 2.462 . S
Eu252 O297 2.373 . S
Eu252 O299 2.432 . S
Eu252 O300 2.291 . S
Eu252 O304 2.335 . S
Eu252 O307 2.372 . S
Eu252 C316 2.787 . S
C253 N254 1.365 . S
C253 C256 1.405 . S
C253 C260 1.448 . S
N254 C253 1.365 . S
N254 C257 1.319 . S
N254 Eu263 2.600 . S
C255 C257 1.397 . S
C255 C258 1.367 . S
C255 H275 0.931 . S
C256 C253 1.405 . S
C256 C258 1.403 . S
C256 C262 1.439 . S
C257 N254 1.319 . S
C257 C255 1.397 . S
C257 H268 0.930 . S
C258 C255 1.367 . S
C258 C256 1.403 . S
C258 H279 0.929 . S
C259 C260 1.430 . S
C259 C261 1.387 . S
C259 C265 1.404 . S
C260 C253 1.448 . S
C260 C259 1.430 . S
C260 N264 1.351 . S
C261 C259 1.387 . S
C261 C262 1.374 . S
C261 H276 0.931 . S
C262 C256 1.439 . S
C262 C261 1.374 . S
C262 H277 0.931 . S
Eu263 N254 2.600 . S
Eu263 N264 2.562 . S
Eu263 O298 2.335 . S
Eu263 O301 2.372 . S
Eu263 O302 2.462 . S
Eu263 O303 2.373 . S
Eu263 O305 2.432 . S
Eu263 O306 2.291 . S
Eu263 C327 2.787 . S
N264 C260 1.351 . S
N264 Eu263 2.562 . S
N264 C266 1.325 . S
C265 C259 1.404 . S
C265 C267 1.366 . S
C265 H273 0.930 . S
C266 N264 1.325 . S
C266 C267 1.416 . S
C266 H272 0.929 . S
C267 C265 1.366 . S
C267 C266 1.416 . S
C267 H269 0.930 . S
H268 C257 0.930 . S
H269 C267 0.930 . S
H270 C285 0.930 . S
H271 C292 0.930 . S
H272 C266 0.929 . S
H273 C265 0.930 . S
H274 C288 0.929 . S
H275 C255 0.931 . S
H276 C261 0.931 . S
H277 C262 0.931 . S
H278 C283 0.931 . S
H279 C258 0.929 . S
H280 C291 0.930 . S
N281 Eu252 2.600 . S
N281 C282 1.365 . S
N281 C285 1.319 . S
C282 N281 1.365 . S
C282 C284 1.405 . S
C282 C290 1.448 . S
C283 H278 0.931 . S
C283 C285 1.397 . S
C283 C286 1.367 . S
C284 C282 1.405 . S
C284 C286 1.403 . S
C284 C317 1.439 . S
C285 H270 0.930 . S
C285 N281 1.319 . S
C285 C283 1.397 . S
C286 C283 1.367 . S
C286 C284 1.403 . S
C286 H293 0.929 . S
N287 Eu252 2.562 . S
N287 C288 1.325 . S
N287 C290 1.351 . S
C288 H274 0.929 . S
C288 N287 1.325 . S
C288 C292 1.416 . S
C289 C290 1.430 . S
C289 C291 1.404 . S
C289 C318 1.387 . S
C290 C282 1.448 . S
C290 N287 1.351 . S
C290 C289 1.430 . S
C291 H280 0.930 . S
C291 C289 1.404 . S
C291 C292 1.366 . S
C292 H271 0.930 . S
C292 C288 1.416 . S
C292 C291 1.366 . S
H293 C286 0.929 . S
H294 C317 0.931 . S
H295 C318 0.931 . S
O296 Eu252 2.462 . S
O296 C316 1.252 . S
O297 Eu252 2.373 . S
O297 C308 1.249 . S
O298 Eu263 2.335 . S
O298 C308 1.264 . S
O299 Eu252 2.432 . S
O299 C316 1.268 . S
O300 Eu252 2.291 . S
O300 C315 1.255 . S
O301 Eu263 2.372 . S
O301 C315 1.257 . S
O302 Eu263 2.462 . S
O302 C327 1.252 . S
O303 Eu263 2.373 . S
O303 C319 1.249 . S
O304 Eu252 2.335 . S
O304 C319 1.264 . S
O305 Eu263 2.432 . S
O305 C327 1.268 . S
O306 Eu263 2.291 . S
O306 C326 1.255 . S
O307 Eu252 2.372 . S
O307 C326 1.257 . S
C308 O297 1.249 . S
C308 O298 1.264 . S
C309 C312 1.382 . S
C309 C314 1.390 . S
C309 C316 1.506 . S
C310 C311 1.398 . S
C310 C314 1.392 . S
C311 C310 1.398 . S
C311 C313 1.372 . S
C311 H328 0.931 . S
C312 C309 1.382 . S
C312 C313 1.390 . S
C312 H329 0.931 . S
C313 C311 1.372 . S
C313 C312 1.390 . S
C313 H330 0.929 . S
C314 C309 1.390 . S
C314 C310 1.392 . S
C314 H331 0.930 . S
C315 O300 1.255 . S
C315 O301 1.257 . S
C316 Eu252 2.787 . S
C316 O296 1.252 . S
C316 O299 1.268 . S
C316 C309 1.506 . S
C317 C284 1.439 . S
C317 H294 0.931 . S
C317 C318 1.374 . S
C318 C289 1.387 . S
C318 H295 0.931 . S
C318 C317 1.374 . S
C319 O303 1.249 . S
C319 O304 1.264 . S
C320 C323 1.382 . S
C320 C324 1.390 . S
C320 C327 1.506 . S
C321 C322 1.398 . S
C321 C324 1.392 . S
C322 C321 1.398 . S
C322 C325 1.372 . S
C322 H332 0.931 . S
C323 C320 1.382 . S
C323 C325 1.390 . S
C323 H333 0.931 . S
C324 C320 1.390 . S
C324 C321 1.392 . S
C324 H334 0.930 . S
C325 C322 1.372 . S
C325 C323 1.390 . S
C325 H335 0.929 . S
C326 O306 1.255 . S
C326 O307 1.257 . S
C327 Eu263 2.787 . S
C327 O302 1.252 . S
C327 O305 1.268 . S
C327 C320 1.506 . S
H328 C311 0.931 . S
H329 C312 0.931 . S
H330 C313 0.929 . S
H331 C314 0.930 . S
H332 C322 0.931 . S
H333 C323 0.931 . S
H334 C324 0.930 . S
H335 C325 0.929 . S
Eu336 N365 2.600 . S
Eu336 N371 2.562 . S
Eu336 O380 2.462 . S
Eu336 O381 2.373 . S
Eu336 O383 2.432 . S
Eu336 O384 2.291 . S
Eu336 O388 2.335 . S
Eu336 O391 2.372 . S
Eu336 C400 2.787 . S
C337 N338 1.365 . S
C337 C340 1.405 . S
C337 C344 1.448 . S
N338 C337 1.365 . S
N338 C341 1.319 . S
N338 Eu347 2.600 . S
C339 C341 1.397 . S
C339 C342 1.367 . S
C339 H359 0.931 . S
C340 C337 1.405 . S
C340 C342 1.403 . S
C340 C346 1.439 . S
C341 N338 1.319 . S
C341 C339 1.397 . S
C341 H352 0.930 . S
C342 C339 1.367 . S
C342 C340 1.403 . S
C342 H363 0.929 . S
C343 C344 1.430 . S
C343 C345 1.387 . S
C343 C349 1.404 . S
C344 C337 1.448 . S
C344 C343 1.430 . S
C344 N348 1.351 . S
C345 C343 1.387 . S
C345 C346 1.374 . S
C345 H360 0.931 . S
C346 C340 1.439 . S
C346 C345 1.374 . S
C346 H361 0.931 . S
Eu347 N338 2.600 . S
Eu347 N348 2.562 . S
Eu347 O382 2.335 . S
Eu347 O385 2.372 . S
Eu347 O386 2.462 . S
Eu347 O387 2.373 . S
Eu347 O389 2.432 . S
Eu347 O390 2.291 . S
Eu347 C411 2.787 . S
N348 C344 1.351 . S
N348 Eu347 2.562 . S
N348 C350 1.325 . S
C349 C343 1.404 . S
C349 C351 1.366 . S
C349 H357 0.930 . S
C350 N348 1.325 . S
C350 C351 1.416 . S
C350 H356 0.929 . S
C351 C349 1.366 . S
C351 C350 1.416 . S
C351 H353 0.930 . S
H352 C341 0.930 . S
H353 C351 0.930 . S
H354 C369 0.930 . S
H355 C376 0.930 . S
H356 C350 0.929 . S
H357 C349 0.930 . S
H358 C372 0.929 . S
H359 C339 0.931 . S
H360 C345 0.931 . S
H361 C346 0.931 . S
H362 C367 0.931 . S
H363 C342 0.929 . S
H364 C375 0.930 . S
N365 Eu336 2.600 . S
N365 C366 1.365 . S
N365 C369 1.319 . S
C366 N365 1.365 . S
C366 C368 1.405 . S
C366 C374 1.448 . S
C367 H362 0.931 . S
C367 C369 1.397 . S
C367 C370 1.367 . S
C368 C366 1.405 . S
C368 C370 1.403 . S
C368 C401 1.439 . S
C369 H354 0.930 . S
C369 N365 1.319 . S
C369 C367 1.397 . S
C370 C367 1.367 . S
C370 C368 1.403 . S
C370 H377 0.929 . S
N371 Eu336 2.562 . S
N371 C372 1.325 . S
N371 C374 1.351 . S
C372 H358 0.929 . S
C372 N371 1.325 . S
C372 C376 1.416 . S
C373 C374 1.430 . S
C373 C375 1.404 . S
C373 C402 1.387 . S
C374 C366 1.448 . S
C374 N371 1.351 . S
C374 C373 1.430 . S
C375 H364 0.930 . S
C375 C373 1.404 . S
C375 C376 1.366 . S
C376 H355 0.930 . S
C376 C372 1.416 . S
C376 C375 1.366 . S
H377 C370 0.929 . S
H378 C401 0.931 . S
H379 C402 0.931 . S
O380 Eu336 2.462 . S
O380 C400 1.252 . S
O381 Eu336 2.373 . S
O381 C392 1.249 . S
O382 Eu347 2.335 . S
O382 C392 1.264 . S
O383 Eu336 2.432 . S
O383 C400 1.268 . S
O384 Eu336 2.291 . S
O384 C399 1.255 . S
O385 Eu347 2.372 . S
O385 C399 1.257 . S
O386 Eu347 2.462 . S
O386 C411 1.252 . S
O387 Eu347 2.373 . S
O387 C403 1.249 . S
O388 Eu336 2.335 . S
O388 C403 1.264 . S
O389 Eu347 2.432 . S
O389 C411 1.268 . S
O390 Eu347 2.291 . S
O390 C410 1.255 . S
O391 Eu336 2.372 . S
O391 C410 1.257 . S
C392 O381 1.249 . S
C392 O382 1.264 . S
C393 C396 1.382 . S
C393 C398 1.390 . S
C393 C400 1.506 . S
C394 C395 1.398 . S
C394 C398 1.392 . S
C395 C394 1.398 . S
C395 C397 1.372 . S
C395 H412 0.931 . S
C396 C393 1.382 . S
C396 C397 1.390 . S
C396 H413 0.931 . S
C397 C395 1.372 . S
C397 C396 1.390 . S
C397 H414 0.929 . S
C398 C393 1.390 . S
C398 C394 1.392 . S
C398 H415 0.930 . S
C399 O384 1.255 . S
C399 O385 1.257 . S
C400 Eu336 2.787 . S
C400 O380 1.252 . S
C400 O383 1.268 . S
C400 C393 1.506 . S
C401 C368 1.439 . S
C401 H378 0.931 . S
C401 C402 1.374 . S
C402 C373 1.387 . S
C402 H379 0.931 . S
C402 C401 1.374 . S
C403 O387 1.249 . S
C403 O388 1.264 . S
C404 C407 1.382 . S
C404 C408 1.390 . S
C404 C411 1.506 . S
C405 C406 1.398 . S
C405 C408 1.392 . S
C406 C405 1.398 . S
C406 C409 1.372 . S
C406 H416 0.931 . S
C407 C404 1.382 . S
C407 C409 1.390 . S
C407 H417 0.931 . S
C408 C404 1.390 . S
C408 C405 1.392 . S
C408 H418 0.930 . S
C409 C406 1.372 . S
C409 C407 1.390 . S
C409 H419 0.929 . S
C410 O390 1.255 . S
C410 O391 1.257 . S
C411 Eu347 2.787 . S
C411 O386 1.252 . S
C411 O389 1.268 . S
C411 C404 1.506 . S
H412 C395 0.931 . S
H413 C396 0.931 . S
H414 C397 0.929 . S
H415 C398 0.930 . S
H416 C406 0.931 . S
H417 C407 0.931 . S
H418 C408 0.930 . S
H419 C409 0.929 . S
Eu420 N449 2.600 . S
Eu420 N455 2.562 . S
Eu420 O464 2.462 . S
Eu420 O465 2.373 . S
Eu420 O467 2.432 . S
Eu420 O468 2.291 . S
Eu420 O472 2.335 . S
Eu420 O475 2.372 . S
Eu420 C484 2.787 . S
C421 N422 1.365 . S
C421 C424 1.405 . S
C421 C428 1.448 . S
N422 C421 1.365 . S
N422 C425 1.319 . S
N422 Eu431 2.600 . S
C423 C425 1.397 . S
C423 C426 1.367 . S
C423 H443 0.931 . S
C424 C421 1.405 . S
C424 C426 1.403 . S
C424 C430 1.439 . S
C425 N422 1.319 . S
C425 C423 1.397 . S
C425 H436 0.930 . S
C426 C423 1.367 . S
C426 C424 1.403 . S
C426 H447 0.929 . S
C427 C428 1.430 . S
C427 C429 1.387 . S
C427 C433 1.404 . S
C428 C421 1.448 . S
C428 C427 1.430 . S
C428 N432 1.351 . S
C429 C427 1.387 . S
C429 C430 1.374 . S
C429 H444 0.931 . S
C430 C424 1.439 . S
C430 C429 1.374 . S
C430 H445 0.931 . S
Eu431 N422 2.600 . S
Eu431 N432 2.562 . S
Eu431 O466 2.335 . S
Eu431 O469 2.372 . S
Eu431 O470 2.462 . S
Eu431 O471 2.373 . S
Eu431 O473 2.432 . S
Eu431 O474 2.291 . S
Eu431 C495 2.787 . S
N432 C428 1.351 . S
N432 Eu431 2.562 . S
N432 C434 1.325 . S
C433 C427 1.404 . S
C433 C435 1.366 . S
C433 H441 0.930 . S
C434 N432 1.325 . S
C434 C435 1.416 . S
C434 H440 0.929 . S
C435 C433 1.366 . S
C435 C434 1.416 . S
C435 H437 0.930 . S
H436 C425 0.930 . S
H437 C435 0.930 . S
H438 C453 0.930 . S
H439 C460 0.930 . S
H440 C434 0.929 . S
H441 C433 0.930 . S
H442 C456 0.929 . S
H443 C423 0.931 . S
H444 C429 0.931 . S
H445 C430 0.931 . S
H446 C451 0.931 . S
H447 C426 0.929 . S
H448 C459 0.930 . S
N449 Eu420 2.600 . S
N449 C450 1.365 . S
N449 C453 1.319 . S
C450 N449 1.365 . S
C450 C452 1.405 . S
C450 C458 1.448 . S
C451 H446 0.931 . S
C451 C453 1.397 . S
C451 C454 1.367 . S
C452 C450 1.405 . S
C452 C454 1.403 . S
C452 C485 1.439 . S
C453 H438 0.930 . S
C453 N449 1.319 . S
C453 C451 1.397 . S
C454 C451 1.367 . S
C454 C452 1.403 . S
C454 H461 0.929 . S
N455 Eu420 2.562 . S
N455 C456 1.325 . S
N455 C458 1.351 . S
C456 H442 0.929 . S
C456 N455 1.325 . S
C456 C460 1.416 . S
C457 C458 1.430 . S
C457 C459 1.404 . S
C457 C486 1.387 . S
C458 C450 1.448 . S
C458 N455 1.351 . S
C458 C457 1.430 . S
C459 H448 0.930 . S
C459 C457 1.404 . S
C459 C460 1.366 . S
C460 H439 0.930 . S
C460 C456 1.416 . S
C460 C459 1.366 . S
H461 C454 0.929 . S
H462 C485 0.931 . S
H463 C486 0.931 . S
O464 Eu420 2.462 . S
O464 C484 1.252 . S
O465 Eu420 2.373 . S
O465 C476 1.249 . S
O466 Eu431 2.335 . S
O466 C476 1.264 . S
O467 Eu420 2.432 . S
O467 C484 1.268 . S
O468 Eu420 2.291 . S
O468 C483 1.255 . S
O469 Eu431 2.372 . S
O469 C483 1.257 . S
O470 Eu431 2.462 . S
O470 C495 1.252 . S
O471 Eu431 2.373 . S
O471 C487 1.249 . S
O472 Eu420 2.335 . S
O472 C487 1.264 . S
O473 Eu431 2.432 . S
O473 C495 1.268 . S
O474 Eu431 2.291 . S
O474 C494 1.255 . S
O475 Eu420 2.372 . S
O475 C494 1.257 . S
C476 O465 1.249 . S
C476 O466 1.264 . S
C477 C480 1.382 . S
C477 C482 1.390 . S
C477 C484 1.506 . S
C478 C479 1.398 . S
C478 C482 1.392 . S
C479 C478 1.398 . S
C479 C481 1.372 . S
C479 H496 0.931 . S
C480 C477 1.382 . S
C480 C481 1.390 . S
C480 H497 0.931 . S
C481 C479 1.372 . S
C481 C480 1.390 . S
C481 H498 0.929 . S
C482 C477 1.390 . S
C482 C478 1.392 . S
C482 H499 0.930 . S
C483 O468 1.255 . S
C483 O469 1.257 . S
C484 Eu420 2.787 . S
C484 O464 1.252 . S
C484 O467 1.268 . S
C484 C477 1.506 . S
C485 C452 1.439 . S
C485 H462 0.931 . S
C485 C486 1.374 . S
C486 C457 1.387 . S
C486 H463 0.931 . S
C486 C485 1.374 . S
C487 O471 1.249 . S
C487 O472 1.264 . S
C488 C491 1.382 . S
C488 C492 1.390 . S
C488 C495 1.506 . S
C489 C490 1.398 . S
C489 C492 1.392 . S
C490 C489 1.398 . S
C490 C493 1.372 . S
C490 H500 0.931 . S
C491 C488 1.382 . S
C491 C493 1.390 . S
C491 H501 0.931 . S
C492 C488 1.390 . S
C492 C489 1.392 . S
C492 H502 0.930 . S
C493 C490 1.372 . S
C493 C491 1.390 . S
C493 H503 0.929 . S
C494 O474 1.255 . S
C494 O475 1.257 . S
C495 Eu431 2.787 . S
C495 O470 1.252 . S
C495 O473 1.268 . S
C495 C488 1.506 . S
H496 C479 0.931 . S
H497 C480 0.931 . S
H498 C481 0.929 . S
H499 C482 0.930 . S
H500 C490 0.931 . S
H501 C491 0.931 . S
H502 C492 0.930 . S
H503 C493 0.929 . S
Eu504 N533 2.600 . S
Eu504 N539 2.562 . S
Eu504 O548 2.462 . S
Eu504 O549 2.373 . S
Eu504 O551 2.432 . S
Eu504 O552 2.291 . S
Eu504 O556 2.335 . S
Eu504 O559 2.372 . S
Eu504 C568 2.787 . S
C505 N506 1.365 . S
C505 C508 1.405 . S
C505 C512 1.448 . S
N506 C505 1.365 . S
N506 C509 1.319 . S
N506 Eu515 2.600 . S
C507 C509 1.397 . S
C507 C510 1.367 . S
C507 H527 0.931 . S
C508 C505 1.405 . S
C508 C510 1.403 . S
C508 C514 1.439 . S
C509 N506 1.319 . S
C509 C507 1.397 . S
C509 H520 0.930 . S
C510 C507 1.367 . S
C510 C508 1.403 . S
C510 H531 0.929 . S
C511 C512 1.430 . S
C511 C513 1.387 . S
C511 C517 1.404 . S
C512 C505 1.448 . S
C512 C511 1.430 . S
C512 N516 1.351 . S
C513 C511 1.387 . S
C513 C514 1.374 . S
C513 H528 0.931 . S
C514 C508 1.439 . S
C514 C513 1.374 . S
C514 H529 0.931 . S
Eu515 N506 2.600 . S
Eu515 N516 2.562 . S
Eu515 O550 2.335 . S
Eu515 O553 2.372 . S
Eu515 O554 2.462 . S
Eu515 O555 2.373 . S
Eu515 O557 2.432 . S
Eu515 O558 2.291 . S
Eu515 C579 2.787 . S
N516 C512 1.351 . S
N516 Eu515 2.562 . S
N516 C518 1.325 . S
C517 C511 1.404 . S
C517 C519 1.366 . S
C517 H525 0.930 . S
C518 N516 1.325 . S
C518 C519 1.416 . S
C518 H524 0.929 . S
C519 C517 1.366 . S
C519 C518 1.416 . S
C519 H521 0.930 . S
H520 C509 0.930 . S
H521 C519 0.930 . S
H522 C537 0.930 . S
H523 C544 0.930 . S
H524 C518 0.929 . S
H525 C517 0.930 . S
H526 C540 0.929 . S
H527 C507 0.931 . S
H528 C513 0.931 . S
H529 C514 0.931 . S
H530 C535 0.931 . S
H531 C510 0.929 . S
H532 C543 0.930 . S
N533 Eu504 2.600 . S
N533 C534 1.365 . S
N533 C537 1.319 . S
C534 N533 1.365 . S
C534 C536 1.405 . S
C534 C542 1.448 . S
C535 H530 0.931 . S
C535 C537 1.397 . S
C535 C538 1.367 . S
C536 C534 1.405 . S
C536 C538 1.403 . S
C536 C569 1.439 . S
C537 H522 0.930 . S
C537 N533 1.319 . S
C537 C535 1.397 . S
C538 C535 1.367 . S
C538 C536 1.403 . S
C538 H545 0.929 . S
N539 Eu504 2.562 . S
N539 C540 1.325 . S
N539 C542 1.351 . S
C540 H526 0.929 . S
C540 N539 1.325 . S
C540 C544 1.416 . S
C541 C542 1.430 . S
C541 C543 1.404 . S
C541 C570 1.387 . S
C542 C534 1.448 . S
C542 N539 1.351 . S
C542 C541 1.430 . S
C543 H532 0.930 . S
C543 C541 1.404 . S
C543 C544 1.366 . S
C544 H523 0.930 . S
C544 C540 1.416 . S
C544 C543 1.366 . S
H545 C538 0.929 . S
H546 C569 0.931 . S
H547 C570 0.931 . S
O548 Eu504 2.462 . S
O548 C568 1.252 . S
O549 Eu504 2.373 . S
O549 C560 1.249 . S
O550 Eu515 2.335 . S
O550 C560 1.264 . S
O551 Eu504 2.432 . S
O551 C568 1.268 . S
O552 Eu504 2.291 . S
O552 C567 1.255 . S
O553 Eu515 2.372 . S
O553 C567 1.257 . S
O554 Eu515 2.462 . S
O554 C579 1.252 . S
O555 Eu515 2.373 . S
O555 C571 1.249 . S
O556 Eu504 2.335 . S
O556 C571 1.264 . S
O557 Eu515 2.432 . S
O557 C579 1.268 . S
O558 Eu515 2.291 . S
O558 C578 1.255 . S
O559 Eu504 2.372 . S
O559 C578 1.257 . S
C560 O549 1.249 . S
C560 O550 1.264 . S
C561 C564 1.382 . S
C561 C566 1.390 . S
C561 C568 1.506 . S
C562 C563 1.398 . S
C562 C566 1.392 . S
C563 C562 1.398 . S
C563 C565 1.372 . S
C563 H580 0.931 . S
C564 C561 1.382 . S
C564 C565 1.390 . S
C564 H581 0.931 . S
C565 C563 1.372 . S
C565 C564 1.390 . S
C565 H582 0.929 . S
C566 C561 1.390 . S
C566 C562 1.392 . S
C566 H583 0.930 . S
C567 O552 1.255 . S
C567 O553 1.257 . S
C568 Eu504 2.787 . S
C568 O548 1.252 . S
C568 O551 1.268 . S
C568 C561 1.506 . S
C569 C536 1.439 . S
C569 H546 0.931 . S
C569 C570 1.374 . S
C570 C541 1.387 . S
C570 H547 0.931 . S
C570 C569 1.374 . S
C571 O555 1.249 . S
C571 O556 1.264 . S
C572 C575 1.382 . S
C572 C576 1.390 . S
C572 C579 1.506 . S
C573 C574 1.398 . S
C573 C576 1.392 . S
C574 C573 1.398 . S
C574 C577 1.372 . S
C574 H584 0.931 . S
C575 C572 1.382 . S
C575 C577 1.390 . S
C575 H585 0.931 . S
C576 C572 1.390 . S
C576 C573 1.392 . S
C576 H586 0.930 . S
C577 C574 1.372 . S
C577 C575 1.390 . S
C577 H587 0.929 . S
C578 O558 1.255 . S
C578 O559 1.257 . S
C579 Eu515 2.787 . S
C579 O554 1.252 . S
C579 O557 1.268 . S
C579 C572 1.506 . S
H580 C563 0.931 . S
H581 C564 0.931 . S
H582 C565 0.929 . S
H583 C566 0.930 . S
H584 C574 0.931 . S
H585 C575 0.931 . S
H586 C576 0.930 . S
H587 C577 0.929 . S
Eu588 N617 2.600 . S
Eu588 N623 2.562 . S
Eu588 O632 2.462 . S
Eu588 O633 2.373 . S
Eu588 O635 2.432 . S
Eu588 O636 2.291 . S
Eu588 O640 2.335 . S
Eu588 O643 2.372 . S
Eu588 C652 2.787 . S
C589 N590 1.365 . S
C589 C592 1.405 . S
C589 C596 1.448 . S
N590 C589 1.365 . S
N590 C593 1.319 . S
N590 Eu599 2.600 . S
C591 C593 1.397 . S
C591 C594 1.367 . S
C591 H611 0.931 . S
C592 C589 1.405 . S
C592 C594 1.403 . S
C592 C598 1.439 . S
C593 N590 1.319 . S
C593 C591 1.397 . S
C593 H604 0.930 . S
C594 C591 1.367 . S
C594 C592 1.403 . S
C594 H615 0.929 . S
C595 C596 1.430 . S
C595 C597 1.387 . S
C595 C601 1.404 . S
C596 C589 1.448 . S
C596 C595 1.430 . S
C596 N600 1.351 . S
C597 C595 1.387 . S
C597 C598 1.374 . S
C597 H612 0.931 . S
C598 C592 1.439 . S
C598 C597 1.374 . S
C598 H613 0.931 . S
Eu599 N590 2.600 . S
Eu599 N600 2.562 . S
Eu599 O634 2.335 . S
Eu599 O637 2.372 . S
Eu599 O638 2.462 . S
Eu599 O639 2.373 . S
Eu599 O641 2.432 . S
Eu599 O642 2.291 . S
Eu599 C663 2.787 . S
N600 C596 1.351 . S
N600 Eu599 2.562 . S
N600 C602 1.325 . S
C601 C595 1.404 . S
C601 C603 1.366 . S
C601 H609 0.930 . S
C602 N600 1.325 . S
C602 C603 1.416 . S
C602 H608 0.929 . S
C603 C601 1.366 . S
C603 C602 1.416 . S
C603 H605 0.930 . S
H604 C593 0.930 . S
H605 C603 0.930 . S
H606 C621 0.930 . S
H607 C628 0.930 . S
H608 C602 0.929 . S
H609 C601 0.930 . S
H610 C624 0.929 . S
H611 C591 0.931 . S
H612 C597 0.931 . S
H613 C598 0.931 . S
H614 C619 0.931 . S
H615 C594 0.929 . S
H616 C627 0.930 . S
N617 Eu588 2.600 . S
N617 C618 1.365 . S
N617 C621 1.319 . S
C618 N617 1.365 . S
C618 C620 1.405 . S
C618 C626 1.448 . S
C619 H614 0.931 . S
C619 C621 1.397 . S
C619 C622 1.367 . S
C620 C618 1.405 . S
C620 C622 1.403 . S
C620 C653 1.439 . S
C621 H606 0.930 . S
C621 N617 1.319 . S
C621 C619 1.397 . S
C622 C619 1.367 . S
C622 C620 1.403 . S
C622 H629 0.929 . S
N623 Eu588 2.562 . S
N623 C624 1.325 . S
N623 C626 1.351 . S
C624 H610 0.929 . S
C624 N623 1.325 . S
C624 C628 1.416 . S
C625 C626 1.430 . S
C625 C627 1.404 . S
C625 C654 1.387 . S
C626 C618 1.448 . S
C626 N623 1.351 . S
C626 C625 1.430 . S
C627 H616 0.930 . S
C627 C625 1.404 . S
C627 C628 1.366 . S
C628 H607 0.930 . S
C628 C624 1.416 . S
C628 C627 1.366 . S
H629 C622 0.929 . S
H630 C653 0.931 . S
H631 C654 0.931 . S
O632 Eu588 2.462 . S
O632 C652 1.252 . S
O633 Eu588 2.373 . S
O633 C644 1.249 . S
O634 Eu599 2.335 . S
O634 C644 1.264 . S
O635 Eu588 2.432 . S
O635 C652 1.268 . S
O636 Eu588 2.291 . S
O636 C651 1.255 . S
O637 Eu599 2.372 . S
O637 C651 1.257 . S
O638 Eu599 2.462 . S
O638 C663 1.252 . S
O639 Eu599 2.373 . S
O639 C655 1.249 . S
O640 Eu588 2.335 . S
O640 C655 1.264 . S
O641 Eu599 2.432 . S
O641 C663 1.268 . S
O642 Eu599 2.291 . S
O642 C662 1.255 . S
O643 Eu588 2.372 . S
O643 C662 1.257 . S
C644 O633 1.249 . S
C644 O634 1.264 . S
C645 C648 1.382 . S
C645 C650 1.390 . S
C645 C652 1.506 . S
C646 C647 1.398 . S
C646 C650 1.392 . S
C647 C646 1.398 . S
C647 C649 1.372 . S
C647 H664 0.931 . S
C648 C645 1.382 . S
C648 C649 1.390 . S
C648 H665 0.931 . S
C649 C647 1.372 . S
C649 C648 1.390 . S
C649 H666 0.929 . S
C650 C645 1.390 . S
C650 C646 1.392 . S
C650 H667 0.930 . S
C651 O636 1.255 . S
C651 O637 1.257 . S
C652 Eu588 2.787 . S
C652 O632 1.252 . S
C652 O635 1.268 . S
C652 C645 1.506 . S
C653 C620 1.439 . S
C653 H630 0.931 . S
C653 C654 1.374 . S
C654 C625 1.387 . S
C654 H631 0.931 . S
C654 C653 1.374 . S
C655 O639 1.249 . S
C655 O640 1.264 . S
C656 C659 1.382 . S
C656 C660 1.390 . S
C656 C663 1.506 . S
C657 C658 1.398 . S
C657 C660 1.392 . S
C658 C657 1.398 . S
C658 C661 1.372 . S
C658 H668 0.931 . S
C659 C656 1.382 . S
C659 C661 1.390 . S
C659 H669 0.931 . S
C660 C656 1.390 . S
C660 C657 1.392 . S
C660 H670 0.930 . S
C661 C658 1.372 . S
C661 C659 1.390 . S
C661 H671 0.929 . S
C662 O642 1.255 . S
C662 O643 1.257 . S
C663 Eu599 2.787 . S
C663 O638 1.252 . S
C663 O641 1.268 . S
C663 C656 1.506 . S
H664 C647 0.931 . S
H665 C648 0.931 . S
H666 C649 0.929 . S
H667 C650 0.930 . S
H668 C658 0.931 . S
H669 C659 0.931 . S
H670 C660 0.930 . S
H671 C661 0.929 . S
C672 O684 1.241 . S
C672 O685 1.280 . S
C673 O686 1.277 . S
C673 O687 1.245 . S
C674 O698 1.247 . S
C674 O700 1.289 . S
Mg675 O676 1.926 . S
Mg675 O685 1.984 . S
Mg675 O687 1.988 . S
Mg675 O688 2.061 1_655 S
O676 Mg675 1.926 . S
O676 Mg677 1.986 1_545 S
O676 Mg678 1.912 1_655 S
Mg677 O676 1.986 1_565 S
Mg677 O684 2.042 1_565 S
Mg677 O686 2.041 1_565 S
Mg677 O692 2.038 . S
Mg677 O700 2.238 . S
Mg678 O676 1.912 1_455 S
Mg678 O679 1.922 1_545 S
Mg678 O689 2.111 . S
Mg678 O691 2.078 1_445 S
Mg678 O700 2.102 1_445 S
Mg678 O701 2.080 . S
O679 Mg678 1.922 1_565 S
O679 Mg680 1.926 . S
O679 Mg681 1.985 1_565 S
Mg680 O679 1.926 . S
Mg680 O694 1.984 . S
Mg680 O697 1.988 . S
Mg680 O698 2.061 1_455 S
Mg681 O679 1.985 1_545 S
Mg681 O689 2.244 . S
Mg681 O693 2.036 1_545 S
Mg681 O695 2.034 1_545 S
Mg681 O702 2.046 . S
C682 O688 1.247 . S
C682 O689 1.289 . S
C683 O701 1.245 . S
C683 O702 1.274 . S
O684 C672 1.241 . S
O684 Mg677 2.042 1_545 S
O685 C672 1.280 . S
O685 Mg675 1.984 . S
O686 C673 1.277 . S
O686 Mg677 2.041 1_545 S
O687 C673 1.245 . S
O687 Mg675 1.988 . S
O688 Mg675 2.061 1_455 S
O688 C682 1.247 . S
O689 Mg678 2.111 . S
O689 Mg681 2.244 . S
O689 C682 1.289 . S
C690 O691 1.245 . S
C690 O692 1.274 . S
O691 Mg678 2.078 1_665 S
O691 C690 1.245 . S
O692 Mg677 2.038 . S
O692 C690 1.274 . S
O693 Mg681 2.036 1_565 S
O693 C696 1.241 . S
O694 Mg680 1.984 . S
O694 C696 1.280 . S
O695 Mg681 2.034 1_565 S
O695 C699 1.277 . S
C696 O693 1.241 . S
C696 O694 1.280 . S
O697 Mg680 1.988 . S
O697 C699 1.245 . S
O698 C674 1.247 . S
O698 Mg680 2.061 1_655 S
C699 O695 1.277 . S
C699 O697 1.245 . S
O700 C674 1.289 . S
O700 Mg677 2.238 . S
O700 Mg678 2.102 1_665 S
O701 Mg678 2.080 . S
O701 C683 1.245 . S
O702 Mg681 2.046 . S
O702 C683 1.274 . S
C703 O715 1.241 . S
C703 O716 1.280 . S
C704 O717 1.277 . S
C704 O718 1.245 . S
C705 O729 1.247 . S
C705 O731 1.289 . S
Mg706 O707 1.926 . S
Mg706 O716 1.984 . S
Mg706 O718 1.988 1_554 S
Mg706 O719 2.061 . S
O707 Mg706 1.926 . S
O707 Mg708 1.986 1_545 S
O707 Mg709 1.918 . S
Mg708 O707 1.986 1_565 S
Mg708 O715 2.042 1_565 S
Mg708 O717 2.041 1_564 S
Mg708 O723 2.038 . S
Mg708 O731 2.238 1_554 S
Mg709 O707 1.918 . S
Mg709 O710 1.916 1_544 S
Mg709 O720 2.108 . S
Mg709 O722 2.081 1_545 S
Mg709 O731 2.105 1_544 S
Mg709 O732 2.076 1_554 S
O710 Mg709 1.916 1_566 S
O710 Mg711 1.926 . S
O710 Mg712 1.985 1_565 S
Mg711 O710 1.926 . S
Mg711 O725 1.984 . S
Mg711 O728 1.988 1_556 S
Mg711 O729 2.061 . S
Mg712 O710 1.985 1_545 S
Mg712 O720 2.244 1_556 S
Mg712 O724 2.036 1_545 S
Mg712 O726 2.034 1_546 S
Mg712 O733 2.046 . S
C713 O719 1.247 . S
C713 O720 1.289 . S
C714 O732 1.245 . S
C714 O733 1.274 . S
O715 C703 1.241 . S
O715 Mg708 2.042 1_545 S
O716 C703 1.280 . S
O716 Mg706 1.984 . S
O717 C704 1.277 . S
O717 Mg708 2.041 1_546 S
O718 C704 1.245 . S
O718 Mg706 1.988 1_556 S
O719 Mg706 2.061 . S
O719 C713 1.247 . S
O720 Mg709 2.108 . S
O720 Mg712 2.244 1_554 S
O720 C713 1.289 . S
C721 O722 1.245 . S
C721 O723 1.274 . S
O722 Mg709 2.081 1_565 S
O722 C721 1.245 . S
O723 Mg708 2.038 . S
O723 C721 1.274 . S
O724 Mg712 2.036 1_565 S
O724 C727 1.241 . S
O725 Mg711 1.984 . S
O725 C727 1.280 . S
O726 Mg712 2.034 1_564 S
O726 C730 1.277 . S
C727 O724 1.241 . S
C727 O725 1.280 . S
O728 Mg711 1.988 1_554 S
O728 C730 1.245 . S
O729 C705 1.247 . S
O729 Mg711 2.061 . S
C730 O726 1.277 . S
C730 O728 1.245 . S
O731 C705 1.289 . S
O731 Mg708 2.238 1_556 S
O731 Mg709 2.105 1_566 S
O732 Mg709 2.076 1_556 S
O732 C714 1.245 . S
O733 Mg712 2.046 . S
O733 C714 1.274 . S
C734 O746 1.241 . S
C734 O747 1.280 . S
C735 O748 1.277 . S
C735 O749 1.245 . S
C736 O760 1.247 . S
C736 O762 1.289 . S
Mg737 O738 1.926 . S
Mg737 O747 1.984 . S
Mg737 O749 1.988 1_554 S
Mg737 O750 2.061 1_655 S
O738 Mg737 1.926 . S
O738 Mg739 1.986 . S
O738 Mg740 1.912 1_655 S
Mg739 O738 1.986 . S
Mg739 O746 2.042 . S
Mg739 O748 2.041 1_554 S
Mg739 O754 2.038 . S
Mg739 O762 2.238 1_554 S
Mg740 O738 1.912 1_455 S
Mg740 O741 1.921 1_554 S
Mg740 O751 2.113 . S
Mg740 O753 2.081 1_455 S
Mg740 O762 2.100 1_454 S
Mg740 O763 2.077 1_554 S
O741 Mg740 1.921 1_556 S
O741 Mg742 1.926 . S
O741 Mg743 1.986 . S
Mg742 O741 1.926 . S
Mg742 O756 1.984 . S
Mg742 O759 1.988 1_556 S
Mg742 O760 2.061 1_455 S
Mg743 O741 1.986 . S
Mg743 O751 2.238 1_556 S
Mg743 O755 2.042 . S
Mg743 O757 2.041 1_556 S
Mg743 O764 2.038 . S
C744 O750 1.247 . S
C744 O751 1.289 . S
C745 O763 1.245 . S
C745 O764 1.274 . S
O746 C734 1.241 . S
O746 Mg739 2.042 . S
O747 C734 1.280 . S
O747 Mg737 1.984 . S
O748 C735 1.277 . S
O748 Mg739 2.041 1_556 S
O749 C735 1.245 . S
O749 Mg737 1.988 1_556 S
O750 Mg737 2.061 1_455 S
O750 C744 1.247 . S
O751 Mg740 2.113 . S
O751 Mg743 2.238 1_554 S
O751 C744 1.289 . S
C752 O753 1.245 . S
C752 O754 1.274 . S
O753 Mg740 2.081 1_655 S
O753 C752 1.245 . S
O754 Mg739 2.038 . S
O754 C752 1.274 . S
O755 Mg743 2.042 . S
O755 C758 1.241 . S
O756 Mg742 1.984 . S
O756 C758 1.280 . S
O757 Mg743 2.041 1_554 S
O757 C761 1.277 . S
C758 O755 1.241 . S
C758 O756 1.280 . S
O759 Mg742 1.988 1_554 S
O759 C761 1.245 . S
O760 C736 1.247 . S
O760 Mg742 2.061 1_655 S
C761 O757 1.277 . S
C761 O759 1.245 . S
O762 C736 1.289 . S
O762 Mg739 2.238 1_556 S
O762 Mg740 2.100 1_656 S
O763 Mg740 2.077 1_556 S
O763 C745 1.245 . S
O764 Mg743 2.038 . S
O764 C745 1.274 . S
C765 O777 1.241 . S
C765 O778 1.280 . S
C766 O779 1.277 . S
C766 O780 1.245 . S
C767 O791 1.247 . S
C767 O793 1.289 . S
Mg768 O769 1.926 . S
Mg768 O778 1.984 . S
Mg768 O780 1.988 1_554 S
Mg768 O781 2.061 . S
O769 Mg768 1.926 . S
O769 Mg770 1.986 . S
O769 Mg771 1.918 . S
Mg770 O769 1.986 . S
Mg770 O777 2.042 . S
Mg770 O779 2.041 1_554 S
Mg770 O785 2.038 . S
Mg770 O793 2.238 1_554 S
Mg771 O769 1.918 . S
Mg771 O772 1.916 1_554 S
Mg771 O782 2.108 . S
Mg771 O784 2.081 . S
Mg771 O793 2.105 1_554 S
Mg771 O794 2.076 1_554 S
O772 Mg771 1.916 1_556 S
O772 Mg773 1.926 . S
O772 Mg774 1.986 . S
Mg773 O772 1.926 . S
Mg773 O787 1.984 . S
Mg773 O790 1.988 1_556 S
Mg773 O791 2.061 . S
Mg774 O772 1.986 . S
Mg774 O782 2.238 1_556 S
Mg774 O786 2.042 . S
Mg774 O788 2.041 1_556 S
Mg774 O795 2.038 . S
C775 O781 1.247 . S
C775 O782 1.289 . S
C776 O794 1.245 . S
C776 O795 1.274 . S
O777 C765 1.241 . S
O777 Mg770 2.042 . S
O778 C765 1.280 . S
O778 Mg768 1.984 . S
O779 C766 1.277 . S
O779 Mg770 2.041 1_556 S
O780 C766 1.245 . S
O780 Mg768 1.988 1_556 S
O781 Mg768 2.061 . S
O781 C775 1.247 . S
O782 Mg771 2.108 . S
O782 Mg774 2.238 1_554 S
O782 C775 1.289 . S
C783 O784 1.245 . S
C783 O785 1.274 . S
O784 Mg771 2.081 . S
O784 C783 1.245 . S
O785 Mg770 2.038 . S
O785 C783 1.274 . S
O786 Mg774 2.042 . S
O786 C789 1.241 . S
O787 Mg773 1.984 . S
O787 C789 1.280 . S
O788 Mg774 2.041 1_554 S
O788 C792 1.277 . S
C789 O786 1.241 . S
C789 O787 1.280 . S
O790 Mg773 1.988 1_554 S
O790 C792 1.245 . S
O791 C767 1.247 . S
O791 Mg773 2.061 . S
C792 O788 1.277 . S
C792 O790 1.245 . S
O793 C767 1.289 . S
O793 Mg770 2.238 1_556 S
O793 Mg771 2.105 1_556 S
O794 Mg771 2.076 1_556 S
O794 C776 1.245 . S
O795 Mg774 2.038 . S
O795 C776 1.274 . S
C796 O808 1.241 . S
C796 O809 1.280 . S
C797 O810 1.277 . S
C797 O811 1.245 . S
C798 O822 1.247 . S
C798 O824 1.289 . S
Mg799 O800 1.926 . S
Mg799 O809 1.984 . S
Mg799 O811 1.988 . S
Mg799 O812 2.061 1_655 S
O800 Mg799 1.926 . S
O800 Mg801 1.986 . S
O800 Mg802 1.912 1_655 S
Mg801 O800 1.986 . S
Mg801 O808 2.042 . S
Mg801 O810 2.041 . S
Mg801 O816 2.038 . S
Mg801 O824 2.238 . S
Mg802 O800 1.912 1_455 S
Mg802 O803 1.922 . S
Mg802 O813 2.111 . S
Mg802 O815 2.078 1_455 S
Mg802 O824 2.102 1_455 S
Mg802 O825 2.080 . S
O803 Mg802 1.922 . S
O803 Mg804 1.926 . S
O803 Mg805 1.986 . S
Mg804 O803 1.926 . S
Mg804 O818 1.984 . S
Mg804 O821 1.988 . S
Mg804 O822 2.061 1_455 S
Mg805 O803 1.986 . S
Mg805 O813 2.238 . S
Mg805 O817 2.042 . S
Mg805 O819 2.041 . S
Mg805 O826 2.038 . S
C806 O812 1.247 . S
C806 O813 1.289 . S
C807 O825 1.245 . S
C807 O826 1.274 . S
O808 C796 1.241 . S
O808 Mg801 2.042 . S
O809 C796 1.280 . S
O809 Mg799 1.984 . S
O810 C797 1.277 . S
O810 Mg801 2.041 . S
O811 C797 1.245 . S
O811 Mg799 1.988 . S
O812 Mg799 2.061 1_455 S
O812 C806 1.247 . S
O813 Mg802 2.111 . S
O813 Mg805 2.238 . S
O813 C806 1.289 . S
C814 O815 1.245 . S
C814 O816 1.274 . S
O815 Mg802 2.078 1_655 S
O815 C814 1.245 . S
O816 Mg801 2.038 . S
O816 C814 1.274 . S
O817 Mg805 2.042 . S
O817 C820 1.241 . S
O818 Mg804 1.984 . S
O818 C820 1.280 . S
O819 Mg805 2.041 . S
O819 C823 1.277 . S
C820 O817 1.241 . S
C820 O818 1.280 . S
O821 Mg804 1.988 . S
O821 C823 1.245 . S
O822 C798 1.247 . S
O822 Mg804 2.061 1_655 S
C823 O819 1.277 . S
C823 O821 1.245 . S
O824 C798 1.289 . S
O824 Mg801 2.238 . S
O824 Mg802 2.102 1_655 S
O825 Mg802 2.080 . S
O825 C807 1.245 . S
O826 Mg805 2.038 . S
O826 C807 1.274 . S
C827 O839 1.241 . S
C827 O840 1.280 . S
C828 O841 1.277 . S
C828 O842 1.245 . S
C829 O853 1.247 . S
C829 O855 1.289 . S
Mg830 O831 1.926 . S
Mg830 O840 1.984 . S
Mg830 O842 1.988 . S
Mg830 O843 2.061 . S
O831 Mg830 1.926 . S
O831 Mg832 1.986 1_545 S
O831 Mg833 1.917 . S
Mg832 O831 1.986 1_565 S
Mg832 O839 2.042 1_565 S
Mg832 O841 2.041 1_565 S
Mg832 O847 2.038 . S
Mg832 O855 2.238 . S
Mg833 O831 1.917 . S
Mg833 O834 1.917 1_545 S
Mg833 O844 2.106 . S
Mg833 O846 2.079 1_545 S
Mg833 O855 2.106 1_545 S
Mg833 O856 2.079 . S
O834 Mg833 1.917 1_565 S
O834 Mg835 1.926 . S
O834 Mg836 1.985 1_565 S
Mg835 O834 1.926 . S
Mg835 O849 1.984 . S
Mg835 O852 1.988 . S
Mg835 O853 2.061 . S
Mg836 O834 1.985 1_545 S
Mg836 O844 2.244 . S
Mg836 O848 2.036 1_545 S
Mg836 O850 2.034 1_545 S
Mg836 O857 2.046 . S
C837 O843 1.247 . S
C837 O844 1.289 . S
C838 O856 1.245 . S
C838 O857 1.274 . S
O839 C827 1.241 . S
O839 Mg832 2.042 1_545 S
O840 C827 1.280 . S
O840 Mg830 1.984 . S
O841 C828 1.277 . S
O841 Mg832 2.041 1_545 S
O842 C828 1.245 . S
O842 Mg830 1.988 . S
O843 Mg830 2.061 . S
O843 C837 1.247 . S
O844 Mg833 2.106 . S
O844 Mg836 2.244 . S
O844 C837 1.289 . S
C845 O846 1.245 . S
C845 O847 1.274 . S
O846 Mg833 2.079 1_565 S
O846 C845 1.245 . S
O847 Mg832 2.038 . S
O847 C845 1.274 . S
O848 Mg836 2.036 1_565 S
O848 C851 1.241 . S
O849 Mg835 1.984 . S
O849 C851 1.280 . S
O850 Mg836 2.034 1_565 S
O850 C854 1.277 . S
C851 O848 1.241 . S
C851 O849 1.280 . S
O852 Mg835 1.988 . S
O852 C854 1.245 . S
O853 C829 1.247 . S
O853 Mg835 2.061 . S
C854 O850 1.277 . S
C854 O852 1.245 . S
O855 C829 1.289 . S
O855 Mg832 2.238 . S
O855 Mg833 2.106 1_565 S
O856 Mg833 2.079 . S
O856 C838 1.245 . S
O857 Mg836 2.046 . S
O857 C838 1.274 . S
H858 C866 0.929 . S
H859 C868 0.930 . S
H860 C870 0.930 . S
H861 C873 0.929 . S
H862 C876 0.930 . S
H863 C878 0.960 . S
H864 C878 0.960 . S
H865 C878 0.960 . S
C866 H858 0.929 . S
C866 C867 1.377 . S
C866 C868 1.384 . S
C867 C866 1.377 . S
C867 C873 1.390 . S
C868 H859 0.930 . S
C868 C866 1.384 . S
C868 C869 1.372 . S
C869 C868 1.372 . S
C869 C870 1.400 . S
C869 C874 1.490 . S
C870 H860 0.930 . S
C870 C869 1.400 . S
C870 C873 1.386 . S
H871 C887 0.930 . S
H872 C888 0.931 . S
C873 H861 0.929 . S
C873 C867 1.390 . S
C873 C870 1.386 . S
C874 C869 1.490 . S
C874 C876 1.395 . S
C874 C877 1.403 . S
H875 C881 0.930 . S
C876 H862 0.930 . S
C876 C874 1.395 . S
C876 C879 1.403 . S
C877 C874 1.403 . S
C877 C878 1.524 . S
C877 C881 1.400 . S
C878 H863 0.960 . S
C878 H864 0.960 . S
C878 H865 0.960 . S
C878 C877 1.524 . S
C879 C876 1.403 . S
C879 C880 1.392 . S
C879 C883 1.495 . S
C880 C879 1.392 . S
C880 C881 1.385 . S
C880 C882 1.478 . S
C881 H875 0.930 . S
C881 C877 1.400 . S
C881 C880 1.385 . S
C882 C880 1.478 . S
C882 C884 1.381 . S
C882 C888 1.383 . S
C883 C879 1.495 . S
C883 H889 0.959 . S
C883 H890 0.961 . S
C883 H891 0.960 . S
C884 C882 1.381 . S
C884 C885 1.394 . S
C884 H892 0.930 . S
C885 C884 1.394 . S
C885 C886 1.383 . S
C885 H893 0.929 . S
C886 C885 1.383 . S
C886 C887 1.377 . S
C887 H871 0.930 . S
C887 C886 1.377 . S
C887 C888 1.379 . S
C888 H872 0.931 . S
C888 C882 1.383 . S
C888 C887 1.379 . S
H889 C883 0.959 . S
H890 C883 0.961 . S
H891 C883 0.960 . S
H892 C884 0.930 . S
H893 C885 0.929 . S
H894 C902 0.929 . S
H895 C904 0.930 . S
H896 C906 0.930 . S
H897 C909 0.929 . S
H898 C912 0.930 . S
H899 C914 0.960 . S
H900 C914 0.960 . S
H901 C914 0.960 . S
C902 H894 0.929 . S
C902 C903 1.377 . S
C902 C904 1.384 . S
C903 C902 1.377 . S
C903 C909 1.390 . S
C904 H895 0.930 . S
C904 C902 1.384 . S
C904 C905 1.372 . S
C905 C904 1.372 . S
C905 C906 1.400 . S
C905 C910 1.490 . S
C906 H896 0.930 . S
C906 C905 1.400 . S
C906 C909 1.386 . S
H907 C923 0.930 . S
H908 C924 0.931 . S
C909 H897 0.929 . S
C909 C903 1.390 . S
C909 C906 1.386 . S
C910 C905 1.490 . S
C910 C912 1.395 . S
C910 C913 1.403 . S
H911 C917 0.930 . S
C912 H898 0.930 . S
C912 C910 1.395 . S
C912 C915 1.403 . S
C913 C910 1.403 . S
C913 C914 1.524 . S
C913 C917 1.400 . S
C914 H899 0.960 . S
C914 H900 0.960 . S
C914 H901 0.960 . S
C914 C913 1.524 . S
C915 C912 1.403 . S
C915 C916 1.392 . S
C915 C919 1.495 . S
C916 C915 1.392 . S
C916 C917 1.385 . S
C916 C918 1.478 . S
C917 H911 0.930 . S
C917 C913 1.400 . S
C917 C916 1.385 . S
C918 C916 1.478 . S
C918 C920 1.381 . S
C918 C924 1.383 . S
C919 C915 1.495 . S
C919 H925 0.959 . S
C919 H926 0.961 . S
C919 H927 0.960 . S
C920 C918 1.381 . S
C920 C921 1.394 . S
C920 H928 0.930 . S
C921 C920 1.394 . S
C921 C922 1.383 . S
C921 H929 0.929 . S
C922 C921 1.383 . S
C922 C923 1.377 . S
C923 H907 0.930 . S
C923 C922 1.377 . S
C923 C924 1.379 . S
C924 H908 0.931 . S
C924 C918 1.383 . S
C924 C923 1.379 . S
H925 C919 0.959 . S
H926 C919 0.961 . S
H927 C919 0.960 . S
H928 C920 0.930 . S
H929 C921 0.929 . S
H930 C938 0.929 . S
H931 C940 0.930 . S
H932 C942 0.930 . S
H933 C945 0.929 . S
H934 C948 0.930 . S
H935 C950 0.960 . S
H936 C950 0.960 . S
H937 C950 0.960 . S
C938 H930 0.929 . S
C938 C939 1.377 . S
C938 C940 1.384 . S
C939 C938 1.377 . S
C939 C945 1.390 . S
C940 H931 0.930 . S
C940 C938 1.384 . S
C940 C941 1.372 . S
C941 C940 1.372 . S
C941 C942 1.400 . S
C941 C946 1.490 . S
C942 H932 0.930 . S
C942 C941 1.400 . S
C942 C945 1.386 . S
H943 C959 0.930 . S
H944 C960 0.931 . S
C945 H933 0.929 . S
C945 C939 1.390 . S
C945 C942 1.386 . S
C946 C941 1.490 . S
C946 C948 1.395 . S
C946 C949 1.403 . S
H947 C953 0.930 . S
C948 H934 0.930 . S
C948 C946 1.395 . S
C948 C951 1.403 . S
C949 C946 1.403 . S
C949 C950 1.524 . S
C949 C953 1.400 . S
C950 H935 0.960 . S
C950 H936 0.960 . S
C950 H937 0.960 . S
C950 C949 1.524 . S
C951 C948 1.403 . S
C951 C952 1.392 . S
C951 C955 1.495 . S
C952 C951 1.392 . S
C952 C953 1.385 . S
C952 C954 1.478 . S
C953 H947 0.930 . S
C953 C949 1.400 . S
C953 C952 1.385 . S
C954 C952 1.478 . S
C954 C956 1.381 . S
C954 C960 1.383 . S
C955 C951 1.495 . S
C955 H961 0.959 . S
C955 H962 0.961 . S
C955 H963 0.960 . S
C956 C954 1.381 . S
C956 C957 1.394 . S
C956 H964 0.930 . S
C957 C956 1.394 . S
C957 C958 1.383 . S
C957 H965 0.929 . S
C958 C957 1.383 . S
C958 C959 1.377 . S
C959 H943 0.930 . S
C959 C958 1.377 . S
C959 C960 1.379 . S
C960 H944 0.931 . S
C960 C954 1.383 . S
C960 C959 1.379 . S
H961 C955 0.959 . S
H962 C955 0.961 . S
H963 C955 0.960 . S
H964 C956 0.930 . S
H965 C957 0.929 . S
H966 C974 0.929 . S
H967 C976 0.930 . S
H968 C978 0.930 . S
H969 C981 0.929 . S
H970 C984 0.930 . S
H971 C986 0.960 . S
H972 C986 0.960 . S
H973 C986 0.960 . S
C974 H966 0.929 . S
C974 C975 1.377 . S
C974 C976 1.384 . S
C975 C974 1.377 . S
C975 C981 1.390 . S
C976 H967 0.930 . S
C976 C974 1.384 . S
C976 C977 1.372 . S
C977 C976 1.372 . S
C977 C978 1.400 . S
C977 C982 1.490 . S
C978 H968 0.930 . S
C978 C977 1.400 . S
C978 C981 1.386 . S
H979 C995 0.930 . S
H980 C996 0.931 . S
C981 H969 0.929 . S
C981 C975 1.390 . S
C981 C978 1.386 . S
C982 C977 1.490 . S
C982 C984 1.395 . S
C982 C985 1.403 . S
H983 C989 0.930 . S
C984 H970 0.930 . S
C984 C982 1.395 . S
C984 C987 1.403 . S
C985 C982 1.403 . S
C985 C986 1.524 . S
C985 C989 1.400 . S
C986 H971 0.960 . S
C986 H972 0.960 . S
C986 H973 0.960 . S
C986 C985 1.524 . S
C987 C984 1.403 . S
C987 C988 1.392 . S
C987 C991 1.495 . S
C988 C987 1.392 . S
C988 C989 1.385 . S
C988 C990 1.478 . S
C989 H983 0.930 . S
C989 C985 1.400 . S
C989 C988 1.385 . S
C990 C988 1.478 . S
C990 C992 1.381 . S
C990 C996 1.383 . S
C991 C987 1.495 . S
C991 H997 0.959 . S
C991 H998 0.961 . S
C991 H999 0.960 . S
C992 C990 1.381 . S
C992 C993 1.394 . S
C992 H1000 0.930 . S
C993 C992 1.394 . S
C993 C994 1.383 . S
C993 H1001 0.929 . S
C994 C993 1.383 . S
C994 C995 1.377 . S
C995 H979 0.930 . S
C995 C994 1.377 . S
C995 C996 1.379 . S
C996 H980 0.931 . S
C996 C990 1.383 . S
C996 C995 1.379 . S
H997 C991 0.959 . S
H998 C991 0.961 . S
H999 C991 0.960 . S
H1000 C992 0.930 . S
H1001 C993 0.929 . S
H1002 C1010 0.929 . S
H1003 C1012 0.930 . S
H1004 C1014 0.930 . S
H1005 C1017 0.929 . S
H1006 C1020 0.930 . S
H1007 C1022 0.960 . S
H1008 C1022 0.960 . S
H1009 C1022 0.960 . S
C1010 H1002 0.929 . S
C1010 C1011 1.377 . S
C1010 C1012 1.384 . S
C1011 C1010 1.377 . S
C1011 C1017 1.390 . S
C1012 H1003 0.930 . S
C1012 C1010 1.384 . S
C1012 C1013 1.372 . S
C1013 C1012 1.372 . S
C1013 C1014 1.400 . S
C1013 C1018 1.490 . S
C1014 H1004 0.930 . S
C1014 C1013 1.400 . S
C1014 C1017 1.386 . S
H1015 C1031 0.930 . S
H1016 C1032 0.931 . S
C1017 H1005 0.929 . S
C1017 C1011 1.390 . S
C1017 C1014 1.386 . S
C1018 C1013 1.490 . S
C1018 C1020 1.395 . S
C1018 C1021 1.403 . S
H1019 C1025 0.930 . S
C1020 H1006 0.930 . S
C1020 C1018 1.395 . S
C1020 C1023 1.403 . S
C1021 C1018 1.403 . S
C1021 C1022 1.524 . S
C1021 C1025 1.400 . S
C1022 H1007 0.960 . S
C1022 H1008 0.960 . S
C1022 H1009 0.960 . S
C1022 C1021 1.524 . S
C1023 C1020 1.403 . S
C1023 C1024 1.392 . S
C1023 C1027 1.495 . S
C1024 C1023 1.392 . S
C1024 C1025 1.385 . S
C1024 C1026 1.478 . S
C1025 H1019 0.930 . S
C1025 C1021 1.400 . S
C1025 C1024 1.385 . S
C1026 C1024 1.478 . S
C1026 C1028 1.381 . S
C1026 C1032 1.383 . S
C1027 C1023 1.495 . S
C1027 H1033 0.959 . S
C1027 H1034 0.961 . S
C1027 H1035 0.960 . S
C1028 C1026 1.381 . S
C1028 C1029 1.394 . S
C1028 H1036 0.930 . S
C1029 C1028 1.394 . S
C1029 C1030 1.383 . S
C1029 H1037 0.929 . S
C1030 C1029 1.383 . S
C1030 C1031 1.377 . S
C1031 H1015 0.930 . S
C1031 C1030 1.377 . S
C1031 C1032 1.379 . S
C1032 H1016 0.931 . S
C1032 C1026 1.383 . S
C1032 C1031 1.379 . S
H1033 C1027 0.959 . S
H1034 C1027 0.961 . S
H1035 C1027 0.960 . S
H1036 C1028 0.930 . S
H1037 C1029 0.929 . S
H1038 C1046 0.929 . S
H1039 C1048 0.930 . S
H1040 C1050 0.930 . S
H1041 C1053 0.929 . S
H1042 C1056 0.930 . S
H1043 C1058 0.960 . S
H1044 C1058 0.960 . S
H1045 C1058 0.960 . S
C1046 H1038 0.929 . S
C1046 C1047 1.377 . S
C1046 C1048 1.384 . S
C1047 C1046 1.377 . S
C1047 C1053 1.390 . S
C1048 H1039 0.930 . S
C1048 C1046 1.384 . S
C1048 C1049 1.372 . S
C1049 C1048 1.372 . S
C1049 C1050 1.400 . S
C1049 C1054 1.490 . S
C1050 H1040 0.930 . S
C1050 C1049 1.400 . S
C1050 C1053 1.386 . S
H1051 C1067 0.930 . S
H1052 C1068 0.931 . S
C1053 H1041 0.929 . S
C1053 C1047 1.390 . S
C1053 C1050 1.386 . S
C1054 C1049 1.490 . S
C1054 C1056 1.395 . S
C1054 C1057 1.403 . S
H1055 C1061 0.930 . S
C1056 H1042 0.930 . S
C1056 C1054 1.395 . S
C1056 C1059 1.403 . S
C1057 C1054 1.403 . S
C1057 C1058 1.524 . S
C1057 C1061 1.400 . S
C1058 H1043 0.960 . S
C1058 H1044 0.960 . S
C1058 H1045 0.960 . S
C1058 C1057 1.524 . S
C1059 C1056 1.403 . S
C1059 C1060 1.392 . S
C1059 C1063 1.495 . S
C1060 C1059 1.392 . S
C1060 C1061 1.385 . S
C1060 C1062 1.478 . S
C1061 H1055 0.930 . S
C1061 C1057 1.400 . S
C1061 C1060 1.385 . S
C1062 C1060 1.478 . S
C1062 C1064 1.381 . S
C1062 C1068 1.383 . S
C1063 C1059 1.495 . S
C1063 H1069 0.959 . S
C1063 H1070 0.961 . S
C1063 H1071 0.960 . S
C1064 C1062 1.381 . S
C1064 C1065 1.394 . S
C1064 H1072 0.930 . S
C1065 C1064 1.394 . S
C1065 C1066 1.383 . S
C1065 H1073 0.929 . S
C1066 C1065 1.383 . S
C1066 C1067 1.377 . S
C1067 H1051 0.930 . S
C1067 C1066 1.377 . S
C1067 C1068 1.379 . S
C1068 H1052 0.931 . S
C1068 C1062 1.383 . S
C1068 C1067 1.379 . S
H1069 C1063 0.959 . S
H1070 C1063 0.961 . S
H1071 C1063 0.960 . S
H1072 C1064 0.930 . S
H1073 C1065 0.929 . S
H1074 C1082 0.929 . S
H1075 C1084 0.930 . S
H1076 C1086 0.930 . S
H1077 C1089 0.929 . S
H1078 C1092 0.930 . S
H1079 C1094 0.960 . S
H1080 C1094 0.960 . S
H1081 C1094 0.960 . S
C1082 H1074 0.929 . S
C1082 C1083 1.377 . S
C1082 C1084 1.384 . S
C1083 C1082 1.377 . S
C1083 C1089 1.390 . S
C1084 H1075 0.930 . S
C1084 C1082 1.384 . S
C1084 C1085 1.372 . S
C1085 C1084 1.372 . S
C1085 C1086 1.400 . S
C1085 C1090 1.490 . S
C1086 H1076 0.930 . S
C1086 C1085 1.400 . S
C1086 C1089 1.386 . S
H1087 C1103 0.930 . S
H1088 C1104 0.931 . S
C1089 H1077 0.929 . S
C1089 C1083 1.390 . S
C1089 C1086 1.386 . S
C1090 C1085 1.490 . S
C1090 C1092 1.395 . S
C1090 C1093 1.403 . S
H1091 C1097 0.930 . S
C1092 H1078 0.930 . S
C1092 C1090 1.395 . S
C1092 C1095 1.403 . S
C1093 C1090 1.403 . S
C1093 C1094 1.524 . S
C1093 C1097 1.400 . S
C1094 H1079 0.960 . S
C1094 H1080 0.960 . S
C1094 H1081 0.960 . S
C1094 C1093 1.524 . S
C1095 C1092 1.403 . S
C1095 C1096 1.392 . S
C1095 C1099 1.495 . S
C1096 C1095 1.392 . S
C1096 C1097 1.385 . S
C1096 C1098 1.478 . S
C1097 H1091 0.930 . S
C1097 C1093 1.400 . S
C1097 C1096 1.385 . S
C1098 C1096 1.478 . S
C1098 C1100 1.381 . S
C1098 C1104 1.383 . S
C1099 C1095 1.495 . S
C1099 H1105 0.959 . S
C1099 H1106 0.961 . S
C1099 H1107 0.960 . S
C1100 C1098 1.381 . S
C1100 C1101 1.394 . S
C1100 H1108 0.930 . S
C1101 C1100 1.394 . S
C1101 C1102 1.383 . S
C1101 H1109 0.929 . S
C1102 C1101 1.383 . S
C1102 C1103 1.377 . S
C1103 H1087 0.930 . S
C1103 C1102 1.377 . S
C1103 C1104 1.379 . S
C1104 H1088 0.931 . S
C1104 C1098 1.383 . S
C1104 C1103 1.379 . S
H1105 C1099 0.959 . S
H1106 C1099 0.961 . S
H1107 C1099 0.960 . S
H1108 C1100 0.930 . S
H1109 C1101 0.929 . S
H1110 C1118 0.929 . S
H1111 C1120 0.930 . S
H1112 C1122 0.930 . S
H1113 C1125 0.929 . S
H1114 C1128 0.930 . S
H1115 C1130 0.960 . S
H1116 C1130 0.960 . S
H1117 C1130 0.960 . S
C1118 H1110 0.929 . S
C1118 C1119 1.377 . S
C1118 C1120 1.384 . S
C1119 C1118 1.377 . S
C1119 C1125 1.390 . S
C1120 H1111 0.930 . S
C1120 C1118 1.384 . S
C1120 C1121 1.372 . S
C1121 C1120 1.372 . S
C1121 C1122 1.400 . S
C1121 C1126 1.490 . S
C1122 H1112 0.930 . S
C1122 C1121 1.400 . S
C1122 C1125 1.386 . S
H1123 C1139 0.930 . S
H1124 C1140 0.931 . S
C1125 H1113 0.929 . S
C1125 C1119 1.390 . S
C1125 C1122 1.386 . S
C1126 C1121 1.490 . S
C1126 C1128 1.395 . S
C1126 C1129 1.403 . S
H1127 C1133 0.930 . S
C1128 H1114 0.930 . S
C1128 C1126 1.395 . S
C1128 C1131 1.403 . S
C1129 C1126 1.403 . S
C1129 C1130 1.524 . S
C1129 C1133 1.400 . S
C1130 H1115 0.960 . S
C1130 H1116 0.960 . S
C1130 H1117 0.960 . S
C1130 C1129 1.524 . S
C1131 C1128 1.403 . S
C1131 C1132 1.392 . S
C1131 C1135 1.495 . S
C1132 C1131 1.392 . S
C1132 C1133 1.385 . S
C1132 C1134 1.478 . S
C1133 H1127 0.930 . S
C1133 C1129 1.400 . S
C1133 C1132 1.385 . S
C1134 C1132 1.478 . S
C1134 C1136 1.381 . S
C1134 C1140 1.383 . S
C1135 C1131 1.495 . S
C1135 H1141 0.959 . S
C1135 H1142 0.961 . S
C1135 H1143 0.960 . S
C1136 C1134 1.381 . S
C1136 C1137 1.394 . S
C1136 H1144 0.930 . S
C1137 C1136 1.394 . S
C1137 C1138 1.383 . S
C1137 H1145 0.929 . S
C1138 C1137 1.383 . S
C1138 C1139 1.377 . S
C1139 H1123 0.930 . S
C1139 C1138 1.377 . S
C1139 C1140 1.379 . S
C1140 H1124 0.931 . S
C1140 C1134 1.383 . S
C1140 C1139 1.379 . S
H1141 C1135 0.959 . S
H1142 C1135 0.961 . S
H1143 C1135 0.960 . S
H1144 C1136 0.930 . S
H1145 C1137 0.929 . S
H1146 C1154 0.929 . S
H1147 C1156 0.930 . S
H1148 C1158 0.930 . S
H1149 C1161 0.929 . S
H1150 C1164 0.930 . S
H1151 C1166 0.960 . S
H1152 C1166 0.960 . S
H1153 C1166 0.960 . S
C1154 H1146 0.929 . S
C1154 C1155 1.377 . S
C1154 C1156 1.384 . S
C1155 C1154 1.377 . S
C1155 C1161 1.390 . S
C1156 H1147 0.930 . S
C1156 C1154 1.384 . S
C1156 C1157 1.372 . S
C1157 C1156 1.372 . S
C1157 C1158 1.400 . S
C1157 C1162 1.490 . S
C1158 H1148 0.930 . S
C1158 C1157 1.400 . S
C1158 C1161 1.386 . S
H1159 C1175 0.930 . S
H1160 C1176 0.931 . S
C1161 H1149 0.929 . S
C1161 C1155 1.390 . S
C1161 C1158 1.386 . S
C1162 C1157 1.490 . S
C1162 C1164 1.395 . S
C1162 C1165 1.403 . S
H1163 C1169 0.930 . S
C1164 H1150 0.930 . S
C1164 C1162 1.395 . S
C1164 C1167 1.403 . S
C1165 C1162 1.403 . S
C1165 C1166 1.524 . S
C1165 C1169 1.400 . S
C1166 H1151 0.960 . S
C1166 H1152 0.960 . S
C1166 H1153 0.960 . S
C1166 C1165 1.524 . S
C1167 C1164 1.403 . S
C1167 C1168 1.392 . S
C1167 C1171 1.495 . S
C1168 C1167 1.392 . S
C1168 C1169 1.385 . S
C1168 C1170 1.478 . S
C1169 H1163 0.930 . S
C1169 C1165 1.400 . S
C1169 C1168 1.385 . S
C1170 C1168 1.478 . S
C1170 C1172 1.381 . S
C1170 C1176 1.383 . S
C1171 C1167 1.495 . S
C1171 H1177 0.959 . S
C1171 H1178 0.961 . S
C1171 H1179 0.960 . S
C1172 C1170 1.381 . S
C1172 C1173 1.394 . S
C1172 H1180 0.930 . S
C1173 C1172 1.394 . S
C1173 C1174 1.383 . S
C1173 H1181 0.929 . S
C1174 C1173 1.383 . S
C1174 C1175 1.377 . S
C1175 H1159 0.930 . S
C1175 C1174 1.377 . S
C1175 C1176 1.379 . S
C1176 H1160 0.931 . S
C1176 C1170 1.383 . S
C1176 C1175 1.379 . S
H1177 C1171 0.959 . S
H1178 C1171 0.961 . S
H1179 C1171 0.960 . S
H1180 C1172 0.930 . S
H1181 C1173 0.929 . S
H1182 C1190 0.929 . S
H1183 C1192 0.930 . S
H1184 C1194 0.930 . S
H1185 C1197 0.929 . S
H1186 C1200 0.930 . S
H1187 C1202 0.960 . S
H1188 C1202 0.960 . S
H1189 C1202 0.960 . S
C1190 H1182 0.929 . S
C1190 C1191 1.377 . S
C1190 C1192 1.384 . S
C1191 C1190 1.377 . S
C1191 C1197 1.390 . S
C1192 H1183 0.930 . S
C1192 C1190 1.384 . S
C1192 C1193 1.372 . S
C1193 C1192 1.372 . S
C1193 C1194 1.400 . S
C1193 C1198 1.490 . S
C1194 H1184 0.930 . S
C1194 C1193 1.400 . S
C1194 C1197 1.386 . S
H1195 C1211 0.930 . S
H1196 C1212 0.931 . S
C1197 H1185 0.929 . S
C1197 C1191 1.390 . S
C1197 C1194 1.386 . S
C1198 C1193 1.490 . S
C1198 C1200 1.395 . S
C1198 C1201 1.403 . S
H1199 C1205 0.930 . S
C1200 H1186 0.930 . S
C1200 C1198 1.395 . S
C1200 C1203 1.403 . S
C1201 C1198 1.403 . S
C1201 C1202 1.524 . S
C1201 C1205 1.400 . S
C1202 H1187 0.960 . S
C1202 H1188 0.960 . S
C1202 H1189 0.960 . S
C1202 C1201 1.524 . S
C1203 C1200 1.403 . S
C1203 C1204 1.392 . S
C1203 C1207 1.495 . S
C1204 C1203 1.392 . S
C1204 C1205 1.385 . S
C1204 C1206 1.478 . S
C1205 H1199 0.930 . S
C1205 C1201 1.400 . S
C1205 C1204 1.385 . S
C1206 C1204 1.478 . S
C1206 C1208 1.381 . S
C1206 C1212 1.383 . S
C1207 C1203 1.495 . S
C1207 H1213 0.959 . S
C1207 H1214 0.961 . S
C1207 H1215 0.960 . S
C1208 C1206 1.381 . S
C1208 C1209 1.394 . S
C1208 H1216 0.930 . S
C1209 C1208 1.394 . S
C1209 C1210 1.383 . S
C1209 H1217 0.929 . S
C1210 C1209 1.383 . S
C1210 C1211 1.377 . S
C1211 H1195 0.930 . S
C1211 C1210 1.377 . S
C1211 C1212 1.379 . S
C1212 H1196 0.931 . S
C1212 C1206 1.383 . S
C1212 C1211 1.379 . S
H1213 C1207 0.959 . S
H1214 C1207 0.961 . S
H1215 C1207 0.960 . S
H1216 C1208 0.930 . S
H1217 C1209 0.929 . S
H1218 C1226 0.929 . S
H1219 C1228 0.930 . S
H1220 C1230 0.930 . S
H1221 C1233 0.929 . S
H1222 C1236 0.930 . S
H1223 C1238 0.960 . S
H1224 C1238 0.960 . S
H1225 C1238 0.960 . S
C1226 H1218 0.929 . S
C1226 C1227 1.377 . S
C1226 C1228 1.384 . S
C1227 C1226 1.377 . S
C1227 C1233 1.390 . S
C1228 H1219 0.930 . S
C1228 C1226 1.384 . S
C1228 C1229 1.372 . S
C1229 C1228 1.372 . S
C1229 C1230 1.400 . S
C1229 C1234 1.490 . S
C1230 H1220 0.930 . S
C1230 C1229 1.400 . S
C1230 C1233 1.386 . S
H1231 C1247 0.930 . S
H1232 C1248 0.931 . S
C1233 H1221 0.929 . S
C1233 C1227 1.390 . S
C1233 C1230 1.386 . S
C1234 C1229 1.490 . S
C1234 C1236 1.395 . S
C1234 C1237 1.403 . S
H1235 C1241 0.930 . S
C1236 H1222 0.930 . S
C1236 C1234 1.395 . S
C1236 C1239 1.403 . S
C1237 C1234 1.403 . S
C1237 C1238 1.524 . S
C1237 C1241 1.400 . S
C1238 H1223 0.960 . S
C1238 H1224 0.960 . S
C1238 H1225 0.960 . S
C1238 C1237 1.524 . S
C1239 C1236 1.403 . S
C1239 C1240 1.392 . S
C1239 C1243 1.495 . S
C1240 C1239 1.392 . S
C1240 C1241 1.385 . S
C1240 C1242 1.478 . S
C1241 H1235 0.930 . S
C1241 C1237 1.400 . S
C1241 C1240 1.385 . S
C1242 C1240 1.478 . S
C1242 C1244 1.381 . S
C1242 C1248 1.383 . S
C1243 C1239 1.495 . S
C1243 H1249 0.959 . S
C1243 H1250 0.961 . S
C1243 H1251 0.960 . S
C1244 C1242 1.381 . S
C1244 C1245 1.394 . S
C1244 H1252 0.930 . S
C1245 C1244 1.394 . S
C1245 C1246 1.383 . S
C1245 H1253 0.929 . S
C1246 C1245 1.383 . S
C1246 C1247 1.377 . S
C1247 H1231 0.930 . S
C1247 C1246 1.377 . S
C1247 C1248 1.379 . S
C1248 H1232 0.931 . S
C1248 C1242 1.383 . S
C1248 C1247 1.379 . S
H1249 C1243 0.959 . S
H1250 C1243 0.961 . S
H1251 C1243 0.960 . S
H1252 C1244 0.930 . S
H1253 C1245 0.929 . S
H1254 C1262 0.929 . S
H1255 C1264 0.930 . S
H1256 C1266 0.930 . S
H1257 C1269 0.929 . S
H1258 C1272 0.930 . S
H1259 C1274 0.960 . S
H1260 C1274 0.960 . S
H1261 C1274 0.960 . S
C1262 H1254 0.929 . S
C1262 C1263 1.377 . S
C1262 C1264 1.384 . S
C1263 C1262 1.377 . S
C1263 C1269 1.390 . S
C1264 H1255 0.930 . S
C1264 C1262 1.384 . S
C1264 C1265 1.372 . S
C1265 C1264 1.372 . S
C1265 C1266 1.400 . S
C1265 C1270 1.490 . S
C1266 H1256 0.930 . S
C1266 C1265 1.400 . S
C1266 C1269 1.386 . S
H1267 C1283 0.930 . S
H1268 C1284 0.931 . S
C1269 H1257 0.929 . S
C1269 C1263 1.390 . S
C1269 C1266 1.386 . S
C1270 C1265 1.490 . S
C1270 C1272 1.395 . S
C1270 C1273 1.403 . S
H1271 C1277 0.930 . S
C1272 H1258 0.930 . S
C1272 C1270 1.395 . S
C1272 C1275 1.403 . S
C1273 C1270 1.403 . S
C1273 C1274 1.524 . S
C1273 C1277 1.400 . S
C1274 H1259 0.960 . S
C1274 H1260 0.960 . S
C1274 H1261 0.960 . S
C1274 C1273 1.524 . S
C1275 C1272 1.403 . S
C1275 C1276 1.392 . S
C1275 C1279 1.495 . S
C1276 C1275 1.392 . S
C1276 C1277 1.385 . S
C1276 C1278 1.478 . S
C1277 H1271 0.930 . S
C1277 C1273 1.400 . S
C1277 C1276 1.385 . S
C1278 C1276 1.478 . S
C1278 C1280 1.381 . S
C1278 C1284 1.383 . S
C1279 C1275 1.495 . S
C1279 H1285 0.959 . S
C1279 H1286 0.961 . S
C1279 H1287 0.960 . S
C1280 C1278 1.381 . S
C1280 C1281 1.394 . S
C1280 H1288 0.930 . S
C1281 C1280 1.394 . S
C1281 C1282 1.383 . S
C1281 H1289 0.929 . S
C1282 C1281 1.383 . S
C1282 C1283 1.377 . S
C1283 H1267 0.930 . S
C1283 C1282 1.377 . S
C1283 C1284 1.379 . S
C1284 H1268 0.931 . S
C1284 C1278 1.383 . S
C1284 C1283 1.379 . S
H1285 C1279 0.959 . S
H1286 C1279 0.961 . S
H1287 C1279 0.960 . S
H1288 C1280 0.930 . S
H1289 C1281 0.929 . S
H1290 C1298 0.929 . S
H1291 C1300 0.930 . S
H1292 C1302 0.930 . S
H1293 C1305 0.929 . S
H1294 C1308 0.930 . S
H1295 C1310 0.960 . S
H1296 C1310 0.960 . S
H1297 C1310 0.960 . S
C1298 H1290 0.929 . S
C1298 C1299 1.377 . S
C1298 C1300 1.384 . S
C1299 C1298 1.377 . S
C1299 C1305 1.390 . S
C1300 H1291 0.930 . S
C1300 C1298 1.384 . S
C1300 C1301 1.372 . S
C1301 C1300 1.372 . S
C1301 C1302 1.400 . S
C1301 C1306 1.490 . S
C1302 H1292 0.930 . S
C1302 C1301 1.400 . S
C1302 C1305 1.386 . S
H1303 C1319 0.930 . S
H1304 C1320 0.931 . S
C1305 H1293 0.929 . S
C1305 C1299 1.390 . S
C1305 C1302 1.386 . S
C1306 C1301 1.490 . S
C1306 C1308 1.395 . S
C1306 C1309 1.403 . S
H1307 C1313 0.930 . S
C1308 H1294 0.930 . S
C1308 C1306 1.395 . S
C1308 C1311 1.403 . S
C1309 C1306 1.403 . S
C1309 C1310 1.524 . S
C1309 C1313 1.400 . S
C1310 H1295 0.960 . S
C1310 H1296 0.960 . S
C1310 H1297 0.960 . S
C1310 C1309 1.524 . S
C1311 C1308 1.403 . S
C1311 C1312 1.392 . S
C1311 C1315 1.495 . S
C1312 C1311 1.392 . S
C1312 C1313 1.385 . S
C1312 C1314 1.478 . S
C1313 H1307 0.930 . S
C1313 C1309 1.400 . S
C1313 C1312 1.385 . S
C1314 C1312 1.478 . S
C1314 C1316 1.381 . S
C1314 C1320 1.383 . S
C1315 C1311 1.495 . S
C1315 H1321 0.959 . S
C1315 H1322 0.961 . S
C1315 H1323 0.960 . S
C1316 C1314 1.381 . S
C1316 C1317 1.394 . S
C1316 H1324 0.930 . S
C1317 C1316 1.394 . S
C1317 C1318 1.383 . S
C1317 H1325 0.929 . S
C1318 C1317 1.383 . S
C1318 C1319 1.377 . S
C1319 H1303 0.930 . S
C1319 C1318 1.377 . S
C1319 C1320 1.379 . S
C1320 H1304 0.931 . S
C1320 C1314 1.383 . S
C1320 C1319 1.379 . S
H1321 C1315 0.959 . S
H1322 C1315 0.961 . S
H1323 C1315 0.960 . S
H1324 C1316 0.930 . S
H1325 C1317 0.929 . S
H1326 C1334 0.929 . S
H1327 C1336 0.930 . S
H1328 C1338 0.930 . S
H1329 C1341 0.929 . S
H1330 C1344 0.930 . S
H1331 C1346 0.960 . S
H1332 C1346 0.960 . S
H1333 C1346 0.960 . S
C1334 H1326 0.929 . S
C1334 C1335 1.377 . S
C1334 C1336 1.384 . S
C1335 C1334 1.377 . S
C1335 C1341 1.390 . S
C1336 H1327 0.930 . S
C1336 C1334 1.384 . S
C1336 C1337 1.372 . S
C1337 C1336 1.372 . S
C1337 C1338 1.400 . S
C1337 C1342 1.490 . S
C1338 H1328 0.930 . S
C1338 C1337 1.400 . S
C1338 C1341 1.386 . S
H1339 C1355 0.930 . S
H1340 C1356 0.931 . S
C1341 H1329 0.929 . S
C1341 C1335 1.390 . S
C1341 C1338 1.386 . S
C1342 C1337 1.490 . S
C1342 C1344 1.395 . S
C1342 C1345 1.403 . S
H1343 C1349 0.930 . S
C1344 H1330 0.930 . S
C1344 C1342 1.395 . S
C1344 C1347 1.403 . S
C1345 C1342 1.403 . S
C1345 C1346 1.524 . S
C1345 C1349 1.400 . S
C1346 H1331 0.960 . S
C1346 H1332 0.960 . S
C1346 H1333 0.960 . S
C1346 C1345 1.524 . S
C1347 C1344 1.403 . S
C1347 C1348 1.392 . S
C1347 C1351 1.495 . S
C1348 C1347 1.392 . S
C1348 C1349 1.385 . S
C1348 C1350 1.478 . S
C1349 H1343 0.930 . S
C1349 C1345 1.400 . S
C1349 C1348 1.385 . S
C1350 C1348 1.478 . S
C1350 C1352 1.381 . S
C1350 C1356 1.383 . S
C1351 C1347 1.495 . S
C1351 H1357 0.959 . S
C1351 H1358 0.961 . S
C1351 H1359 0.960 . S
C1352 C1350 1.381 . S
C1352 C1353 1.394 . S
C1352 H1360 0.930 . S
C1353 C1352 1.394 . S
C1353 C1354 1.383 . S
C1353 H1361 0.929 . S
C1354 C1353 1.383 . S
C1354 C1355 1.377 . S
C1355 H1339 0.930 . S
C1355 C1354 1.377 . S
C1355 C1356 1.379 . S
C1356 H1340 0.931 . S
C1356 C1350 1.383 . S
C1356 C1355 1.379 . S
H1357 C1351 0.959 . S
H1358 C1351 0.961 . S
H1359 C1351 0.960 . S
H1360 C1352 0.930 . S
H1361 C1353 0.929 . S
H1362 C1370 0.929 . S
H1363 C1372 0.930 . S
H1364 C1374 0.930 . S
H1365 C1377 0.929 . S
H1366 C1380 0.930 . S
H1367 C1382 0.960 . S
H1368 C1382 0.960 . S
H1369 C1382 0.960 . S
C1370 H1362 0.929 . S
C1370 C1371 1.377 . S
C1370 C1372 1.384 . S
C1371 C1370 1.377 . S
C1371 C1377 1.390 . S
C1372 H1363 0.930 . S
C1372 C1370 1.384 . S
C1372 C1373 1.372 . S
C1373 C1372 1.372 . S
C1373 C1374 1.400 . S
C1373 C1378 1.490 . S
C1374 H1364 0.930 . S
C1374 C1373 1.400 . S
C1374 C1377 1.386 . S
H1375 C1391 0.930 . S
H1376 C1392 0.931 . S
C1377 H1365 0.929 . S
C1377 C1371 1.390 . S
C1377 C1374 1.386 . S
C1378 C1373 1.490 . S
C1378 C1380 1.395 . S
C1378 C1381 1.403 . S
H1379 C1385 0.930 . S
C1380 H1366 0.930 . S
C1380 C1378 1.395 . S
C1380 C1383 1.403 . S
C1381 C1378 1.403 . S
C1381 C1382 1.524 . S
C1381 C1385 1.400 . S
C1382 H1367 0.960 . S
C1382 H1368 0.960 . S
C1382 H1369 0.960 . S
C1382 C1381 1.524 . S
C1383 C1380 1.403 . S
C1383 C1384 1.392 . S
C1383 C1387 1.495 . S
C1384 C1383 1.392 . S
C1384 C1385 1.385 . S
C1384 C1386 1.478 . S
C1385 H1379 0.930 . S
C1385 C1381 1.400 . S
C1385 C1384 1.385 . S
C1386 C1384 1.478 . S
C1386 C1388 1.381 . S
C1386 C1392 1.383 . S
C1387 C1383 1.495 . S
C1387 H1393 0.959 . S
C1387 H1394 0.961 . S
C1387 H1395 0.960 . S
C1388 C1386 1.381 . S
C1388 C1389 1.394 . S
C1388 H1396 0.930 . S
C1389 C1388 1.394 . S
C1389 C1390 1.383 . S
C1389 H1397 0.929 . S
C1390 C1389 1.383 . S
C1390 C1391 1.377 . S
C1391 H1375 0.930 . S
C1391 C1390 1.377 . S
C1391 C1392 1.379 . S
C1392 H1376 0.931 . S
C1392 C1386 1.383 . S
C1392 C1391 1.379 . S
H1393 C1387 0.959 . S
H1394 C1387 0.961 . S
H1395 C1387 0.960 . S
H1396 C1388 0.930 . S
H1397 C1389 0.929 . S
H1398 C1406 0.929 . S
H1399 C1408 0.930 . S
H1400 C1410 0.930 . S
H1401 C1413 0.929 . S
H1402 C1416 0.930 . S
H1403 C1418 0.960 . S
H1404 C1418 0.960 . S
H1405 C1418 0.960 . S
C1406 H1398 0.929 . S
C1406 C1407 1.377 . S
C1406 C1408 1.384 . S
C1407 C1406 1.377 . S
C1407 C1413 1.390 . S
C1408 H1399 0.930 . S
C1408 C1406 1.384 . S
C1408 C1409 1.372 . S
C1409 C1408 1.372 . S
C1409 C1410 1.400 . S
C1409 C1414 1.490 . S
C1410 H1400 0.930 . S
C1410 C1409 1.400 . S
C1410 C1413 1.386 . S
H1411 C1427 0.930 . S
H1412 C1428 0.931 . S
C1413 H1401 0.929 . S
C1413 C1407 1.390 . S
C1413 C1410 1.386 . S
C1414 C1409 1.490 . S
C1414 C1416 1.395 . S
C1414 C1417 1.403 . S
H1415 C1421 0.930 . S
C1416 H1402 0.930 . S
C1416 C1414 1.395 . S
C1416 C1419 1.403 . S
C1417 C1414 1.403 . S
C1417 C1418 1.524 . S
C1417 C1421 1.400 . S
C1418 H1403 0.960 . S
C1418 H1404 0.960 . S
C1418 H1405 0.960 . S
C1418 C1417 1.524 . S
C1419 C1416 1.403 . S
C1419 C1420 1.392 . S
C1419 C1423 1.495 . S
C1420 C1419 1.392 . S
C1420 C1421 1.385 . S
C1420 C1422 1.478 . S
C1421 H1415 0.930 . S
C1421 C1417 1.400 . S
C1421 C1420 1.385 . S
C1422 C1420 1.478 . S
C1422 C1424 1.381 . S
C1422 C1428 1.383 . S
C1423 C1419 1.495 . S
C1423 H1429 0.959 . S
C1423 H1430 0.961 . S
C1423 H1431 0.960 . S
C1424 C1422 1.381 . S
C1424 C1425 1.394 . S
C1424 H1432 0.930 . S
C1425 C1424 1.394 . S
C1425 C1426 1.383 . S
C1425 H1433 0.929 . S
C1426 C1425 1.383 . S
C1426 C1427 1.377 . S
C1427 H1411 0.930 . S
C1427 C1426 1.377 . S
C1427 C1428 1.379 . S
C1428 H1412 0.931 . S
C1428 C1422 1.383 . S
C1428 C1427 1.379 . S
H1429 C1423 0.959 . S
H1430 C1423 0.961 . S
H1431 C1423 0.960 . S
H1432 C1424 0.930 . S
H1433 C1425 0.929 . S
H1434 C1442 0.929 . S
H1435 C1444 0.930 . S
H1436 C1446 0.930 . S
H1437 C1449 0.929 . S
H1438 C1452 0.930 . S
H1439 C1454 0.960 . S
H1440 C1454 0.960 . S
H1441 C1454 0.960 . S
C1442 H1434 0.929 . S
C1442 C1443 1.377 . S
C1442 C1444 1.384 . S
C1443 C1442 1.377 . S
C1443 C1449 1.390 . S
C1444 H1435 0.930 . S
C1444 C1442 1.384 . S
C1444 C1445 1.372 . S
C1445 C1444 1.372 . S
C1445 C1446 1.400 . S
C1445 C1450 1.490 . S
C1446 H1436 0.930 . S
C1446 C1445 1.400 . S
C1446 C1449 1.386 . S
H1447 C1463 0.930 . S
H1448 C1464 0.931 . S
C1449 H1437 0.929 . S
C1449 C1443 1.390 . S
C1449 C1446 1.386 . S
C1450 C1445 1.490 . S
C1450 C1452 1.395 . S
C1450 C1453 1.403 . S
H1451 C1457 0.930 . S
C1452 H1438 0.930 . S
C1452 C1450 1.395 . S
C1452 C1455 1.403 . S
C1453 C1450 1.403 . S
C1453 C1454 1.524 . S
C1453 C1457 1.400 . S
C1454 H1439 0.960 . S
C1454 H1440 0.960 . S
C1454 H1441 0.960 . S
C1454 C1453 1.524 . S
C1455 C1452 1.403 . S
C1455 C1456 1.392 . S
C1455 C1459 1.495 . S
C1456 C1455 1.392 . S
C1456 C1457 1.385 . S
C1456 C1458 1.478 . S
C1457 H1451 0.930 . S
C1457 C1453 1.400 . S
C1457 C1456 1.385 . S
C1458 C1456 1.478 . S
C1458 C1460 1.381 . S
C1458 C1464 1.383 . S
C1459 C1455 1.495 . S
C1459 H1465 0.959 . S
C1459 H1466 0.961 . S
C1459 H1467 0.960 . S
C1460 C1458 1.381 . S
C1460 C1461 1.394 . S
C1460 H1468 0.930 . S
C1461 C1460 1.394 . S
C1461 C1462 1.383 . S
C1461 H1469 0.929 . S
C1462 C1461 1.383 . S
C1462 C1463 1.377 . S
C1463 H1447 0.930 . S
C1463 C1462 1.377 . S
C1463 C1464 1.379 . S
C1464 H1448 0.931 . S
C1464 C1458 1.383 . S
C1464 C1463 1.379 . S
H1465 C1459 0.959 . S
H1466 C1459 0.961 . S
H1467 C1459 0.960 . S
H1468 C1460 0.930 . S
H1469 C1461 0.929 . S
H1470 C1478 0.929 . S
H1471 C1480 0.930 . S
H1472 C1482 0.930 . S
H1473 C1485 0.929 . S
H1474 C1488 0.930 . S
H1475 C1490 0.960 . S
H1476 C1490 0.960 . S
H1477 C1490 0.960 . S
C1478 H1470 0.929 . S
C1478 C1479 1.377 . S
C1478 C1480 1.384 . S
C1479 C1478 1.377 . S
C1479 C1485 1.390 . S
C1480 H1471 0.930 . S
C1480 C1478 1.384 . S
C1480 C1481 1.372 . S
C1481 C1480 1.372 . S
C1481 C1482 1.400 . S
C1481 C1486 1.490 . S
C1482 H1472 0.930 . S
C1482 C1481 1.400 . S
C1482 C1485 1.386 . S
H1483 C1499 0.930 . S
H1484 C1500 0.931 . S
C1485 H1473 0.929 . S
C1485 C1479 1.390 . S
C1485 C1482 1.386 . S
C1486 C1481 1.490 . S
C1486 C1488 1.395 . S
C1486 C1489 1.403 . S
H1487 C1493 0.930 . S
C1488 H1474 0.930 . S
C1488 C1486 1.395 . S
C1488 C1491 1.403 . S
C1489 C1486 1.403 . S
C1489 C1490 1.524 . S
C1489 C1493 1.400 . S
C1490 H1475 0.960 . S
C1490 H1476 0.960 . S
C1490 H1477 0.960 . S
C1490 C1489 1.524 . S
C1491 C1488 1.403 . S
C1491 C1492 1.392 . S
C1491 C1495 1.495 . S
C1492 C1491 1.392 . S
C1492 C1493 1.385 . S
C1492 C1494 1.478 . S
C1493 H1487 0.930 . S
C1493 C1489 1.400 . S
C1493 C1492 1.385 . S
C1494 C1492 1.478 . S
C1494 C1496 1.381 . S
C1494 C1500 1.383 . S
C1495 C1491 1.495 . S
C1495 H1501 0.959 . S
C1495 H1502 0.961 . S
C1495 H1503 0.960 . S
C1496 C1494 1.381 . S
C1496 C1497 1.394 . S
C1496 H1504 0.930 . S
C1497 C1496 1.394 . S
C1497 C1498 1.383 . S
C1497 H1505 0.929 . S
C1498 C1497 1.383 . S
C1498 C1499 1.377 . S
C1499 H1483 0.930 . S
C1499 C1498 1.377 . S
C1499 C1500 1.379 . S
C1500 H1484 0.931 . S
C1500 C1494 1.383 . S
C1500 C1499 1.379 . S
H1501 C1495 0.959 . S
H1502 C1495 0.961 . S
H1503 C1495 0.960 . S
H1504 C1496 0.930 . S
H1505 C1497 0.929 . S
H1506 C1514 0.929 . S
H1507 C1516 0.930 . S
H1508 C1518 0.930 . S
H1509 C1521 0.929 . S
H1510 C1524 0.930 . S
H1511 C1526 0.960 . S
H1512 C1526 0.960 . S
H1513 C1526 0.960 . S
C1514 H1506 0.929 . S
C1514 C1515 1.377 . S
C1514 C1516 1.384 . S
C1515 C1514 1.377 . S
C1515 C1521 1.390 . S
C1516 H1507 0.930 . S
C1516 C1514 1.384 . S
C1516 C1517 1.372 . S
C1517 C1516 1.372 . S
C1517 C1518 1.400 . S
C1517 C1522 1.490 . S
C1518 H1508 0.930 . S
C1518 C1517 1.400 . S
C1518 C1521 1.386 . S
H1519 C1535 0.930 . S
H1520 C1536 0.931 . S
C1521 H1509 0.929 . S
C1521 C1515 1.390 . S
C1521 C1518 1.386 . S
C1522 C1517 1.490 . S
C1522 C1524 1.395 . S
C1522 C1525 1.403 . S
H1523 C1529 0.930 . S
C1524 H1510 0.930 . S
C1524 C1522 1.395 . S
C1524 C1527 1.403 . S
C1525 C1522 1.403 . S
C1525 C1526 1.524 . S
C1525 C1529 1.400 . S
C1526 H1511 0.960 . S
C1526 H1512 0.960 . S
C1526 H1513 0.960 . S
C1526 C1525 1.524 . S
C1527 C1524 1.403 . S
C1527 C1528 1.392 . S
C1527 C1531 1.495 . S
C1528 C1527 1.392 . S
C1528 C1529 1.385 . S
C1528 C1530 1.478 . S
C1529 H1523 0.930 . S
C1529 C1525 1.400 . S
C1529 C1528 1.385 . S
C1530 C1528 1.478 . S
C1530 C1532 1.381 . S
C1530 C1536 1.383 . S
C1531 C1527 1.495 . S
C1531 H1537 0.959 . S
C1531 H1538 0.961 . S
C1531 H1539 0.960 . S
C1532 C1530 1.381 . S
C1532 C1533 1.394 . S
C1532 H1540 0.930 . S
C1533 C1532 1.394 . S
C1533 C1534 1.383 . S
C1533 H1541 0.929 . S
C1534 C1533 1.383 . S
C1534 C1535 1.377 . S
C1535 H1519 0.930 . S
C1535 C1534 1.377 . S
C1535 C1536 1.379 . S
C1536 H1520 0.931 . S
C1536 C1530 1.383 . S
C1536 C1535 1.379 . S
H1537 C1531 0.959 . S
H1538 C1531 0.961 . S
H1539 C1531 0.960 . S
H1540 C1532 0.930 . S
H1541 C1533 0.929 . S
H1542 C1550 0.929 . S
H1543 C1552 0.930 . S
H1544 C1554 0.930 . S
H1545 C1557 0.929 . S
H1546 C1560 0.930 . S
H1547 C1562 0.960 . S
H1548 C1562 0.960 . S
H1549 C1562 0.960 . S
C1550 H1542 0.929 . S
C1550 C1551 1.377 . S
C1550 C1552 1.384 . S
C1551 C1550 1.377 . S
C1551 C1557 1.390 . S
C1552 H1543 0.930 . S
C1552 C1550 1.384 . S
C1552 C1553 1.372 . S
C1553 C1552 1.372 . S
C1553 C1554 1.400 . S
C1553 C1558 1.490 . S
C1554 H1544 0.930 . S
C1554 C1553 1.400 . S
C1554 C1557 1.386 . S
H1555 C1571 0.930 . S
H1556 C1572 0.931 . S
C1557 H1545 0.929 . S
C1557 C1551 1.390 . S
C1557 C1554 1.386 . S
C1558 C1553 1.490 . S
C1558 C1560 1.395 . S
C1558 C1561 1.403 . S
H1559 C1565 0.930 . S
C1560 H1546 0.930 . S
C1560 C1558 1.395 . S
C1560 C1563 1.403 . S
C1561 C1558 1.403 . S
C1561 C1562 1.524 . S
C1561 C1565 1.400 . S
C1562 H1547 0.960 . S
C1562 H1548 0.960 . S
C1562 H1549 0.960 . S
C1562 C1561 1.524 . S
C1563 C1560 1.403 . S
C1563 C1564 1.392 . S
C1563 C1567 1.495 . S
C1564 C1563 1.392 . S
C1564 C1565 1.385 . S
C1564 C1566 1.478 . S
C1565 H1559 0.930 . S
C1565 C1561 1.400 . S
C1565 C1564 1.385 . S
C1566 C1564 1.478 . S
C1566 C1568 1.381 . S
C1566 C1572 1.383 . S
C1567 C1563 1.495 . S
C1567 H1573 0.959 . S
C1567 H1574 0.961 . S
C1567 H1575 0.960 . S
C1568 C1566 1.381 . S
C1568 C1569 1.394 . S
C1568 H1576 0.930 . S
C1569 C1568 1.394 . S
C1569 C1570 1.383 . S
C1569 H1577 0.929 . S
C1570 C1569 1.383 . S
C1570 C1571 1.377 . S
C1571 H1555 0.930 . S
C1571 C1570 1.377 . S
C1571 C1572 1.379 . S
C1572 H1556 0.931 . S
C1572 C1566 1.383 . S
C1572 C1571 1.379 . S
H1573 C1567 0.959 . S
H1574 C1567 0.961 . S
H1575 C1567 0.960 . S
H1576 C1568 0.930 . S
H1577 C1569 0.929 . S
H1578 C1586 0.929 . S
H1579 C1588 0.930 . S
H1580 C1590 0.930 . S
H1581 C1593 0.929 . S
H1582 C1596 0.930 . S
H1583 C1598 0.960 . S
H1584 C1598 0.960 . S
H1585 C1598 0.960 . S
C1586 H1578 0.929 . S
C1586 C1587 1.377 . S
C1586 C1588 1.384 . S
C1587 C1586 1.377 . S
C1587 C1593 1.390 . S
C1588 H1579 0.930 . S
C1588 C1586 1.384 . S
C1588 C1589 1.372 . S
C1589 C1588 1.372 . S
C1589 C1590 1.400 . S
C1589 C1594 1.490 . S
C1590 H1580 0.930 . S
C1590 C1589 1.400 . S
C1590 C1593 1.386 . S
H1591 C1607 0.930 . S
H1592 C1608 0.931 . S
C1593 H1581 0.929 . S
C1593 C1587 1.390 . S
C1593 C1590 1.386 . S
C1594 C1589 1.490 . S
C1594 C1596 1.395 . S
C1594 C1597 1.403 . S
H1595 C1601 0.930 . S
C1596 H1582 0.930 . S
C1596 C1594 1.395 . S
C1596 C1599 1.403 . S
C1597 C1594 1.403 . S
C1597 C1598 1.524 . S
C1597 C1601 1.400 . S
C1598 H1583 0.960 . S
C1598 H1584 0.960 . S
C1598 H1585 0.960 . S
C1598 C1597 1.524 . S
C1599 C1596 1.403 . S
C1599 C1600 1.392 . S
C1599 C1603 1.495 . S
C1600 C1599 1.392 . S
C1600 C1601 1.385 . S
C1600 C1602 1.478 . S
C1601 H1595 0.930 . S
C1601 C1597 1.400 . S
C1601 C1600 1.385 . S
C1602 C1600 1.478 . S
C1602 C1604 1.381 . S
C1602 C1608 1.383 . S
C1603 C1599 1.495 . S
C1603 H1609 0.959 . S
C1603 H1610 0.961 . S
C1603 H1611 0.960 . S
C1604 C1602 1.381 . S
C1604 C1605 1.394 . S
C1604 H1612 0.930 . S
C1605 C1604 1.394 . S
C1605 C1606 1.383 . S
C1605 H1613 0.929 . S
C1606 C1605 1.383 . S
C1606 C1607 1.377 . S
C1607 H1591 0.930 . S
C1607 C1606 1.377 . S
C1607 C1608 1.379 . S
C1608 H1592 0.931 . S
C1608 C1602 1.383 . S
C1608 C1607 1.379 . S
H1609 C1603 0.959 . S
H1610 C1603 0.961 . S
H1611 C1603 0.960 . S
H1612 C1604 0.930 . S
H1613 C1605 0.929 . S
H1614 C1622 0.929 . S
H1615 C1624 0.930 . S
H1616 C1626 0.930 . S
H1617 C1629 0.929 . S
H1618 C1632 0.930 . S
H1619 C1634 0.960 . S
H1620 C1634 0.960 . S
H1621 C1634 0.960 . S
C1622 H1614 0.929 . S
C1622 C1623 1.377 . S
C1622 C1624 1.384 . S
C1623 C1622 1.377 . S
C1623 C1629 1.390 . S
C1624 H1615 0.930 . S
C1624 C1622 1.384 . S
C1624 C1625 1.372 . S
C1625 C1624 1.372 . S
C1625 C1626 1.400 . S
C1625 C1630 1.490 . S
C1626 H1616 0.930 . S
C1626 C1625 1.400 . S
C1626 C1629 1.386 . S
H1627 C1643 0.930 . S
H1628 C1644 0.931 . S
C1629 H1617 0.929 . S
C1629 C1623 1.390 . S
C1629 C1626 1.386 . S
C1630 C1625 1.490 . S
C1630 C1632 1.395 . S
C1630 C1633 1.403 . S
H1631 C1637 0.930 . S
C1632 H1618 0.930 . S
C1632 C1630 1.395 . S
C1632 C1635 1.403 . S
C1633 C1630 1.403 . S
C1633 C1634 1.524 . S
C1633 C1637 1.400 . S
C1634 H1619 0.960 . S
C1634 H1620 0.960 . S
C1634 H1621 0.960 . S
C1634 C1633 1.524 . S
C1635 C1632 1.403 . S
C1635 C1636 1.392 . S
C1635 C1639 1.495 . S
C1636 C1635 1.392 . S
C1636 C1637 1.385 . S
C1636 C1638 1.478 . S
C1637 H1631 0.930 . S
C1637 C1633 1.400 . S
C1637 C1636 1.385 . S
C1638 C1636 1.478 . S
C1638 C1640 1.381 . S
C1638 C1644 1.383 . S
C1639 C1635 1.495 . S
C1639 H1645 0.959 . S
C1639 H1646 0.961 . S
C1639 H1647 0.960 . S
C1640 C1638 1.381 . S
C1640 C1641 1.394 . S
C1640 H1648 0.930 . S
C1641 C1640 1.394 . S
C1641 C1642 1.383 . S
C1641 H1649 0.929 . S
C1642 C1641 1.383 . S
C1642 C1643 1.377 . S
C1643 H1627 0.930 . S
C1643 C1642 1.377 . S
C1643 C1644 1.379 . S
C1644 H1628 0.931 . S
C1644 C1638 1.383 . S
C1644 C1643 1.379 . S
H1645 C1639 0.959 . S
H1646 C1639 0.961 . S
H1647 C1639 0.960 . S
H1648 C1640 0.930 . S
H1649 C1641 0.929 . S
H1650 C1658 0.929 . S
H1651 C1660 0.930 . S
H1652 C1662 0.930 . S
H1653 C1665 0.929 . S
H1654 C1668 0.930 . S
H1655 C1670 0.960 . S
H1656 C1670 0.960 . S
H1657 C1670 0.960 . S
C1658 H1650 0.929 . S
C1658 C1659 1.377 . S
C1658 C1660 1.384 . S
C1659 C1658 1.377 . S
C1659 C1665 1.390 . S
C1660 H1651 0.930 . S
C1660 C1658 1.384 . S
C1660 C1661 1.372 . S
C1661 C1660 1.372 . S
C1661 C1662 1.400 . S
C1661 C1666 1.490 . S
C1662 H1652 0.930 . S
C1662 C1661 1.400 . S
C1662 C1665 1.386 . S
H1663 C1679 0.930 . S
H1664 C1680 0.931 . S
C1665 H1653 0.929 . S
C1665 C1659 1.390 . S
C1665 C1662 1.386 . S
C1666 C1661 1.490 . S
C1666 C1668 1.395 . S
C1666 C1669 1.403 . S
H1667 C1673 0.930 . S
C1668 H1654 0.930 . S
C1668 C1666 1.395 . S
C1668 C1671 1.403 . S
C1669 C1666 1.403 . S
C1669 C1670 1.524 . S
C1669 C1673 1.400 . S
C1670 H1655 0.960 . S
C1670 H1656 0.960 . S
C1670 H1657 0.960 . S
C1670 C1669 1.524 . S
C1671 C1668 1.403 . S
C1671 C1672 1.392 . S
C1671 C1675 1.495 . S
C1672 C1671 1.392 . S
C1672 C1673 1.385 . S
C1672 C1674 1.478 . S
C1673 H1667 0.930 . S
C1673 C1669 1.400 . S
C1673 C1672 1.385 . S
C1674 C1672 1.478 . S
C1674 C1676 1.381 . S
C1674 C1680 1.383 . S
C1675 C1671 1.495 . S
C1675 H1681 0.959 . S
C1675 H1682 0.961 . S
C1675 H1683 0.960 . S
C1676 C1674 1.381 . S
C1676 C1677 1.394 . S
C1676 H1684 0.930 . S
C1677 C1676 1.394 . S
C1677 C1678 1.383 . S
C1677 H1685 0.929 . S
C1678 C1677 1.383 . S
C1678 C1679 1.377 . S
C1679 H1663 0.930 . S
C1679 C1678 1.377 . S
C1679 C1680 1.379 . S
C1680 H1664 0.931 . S
C1680 C1674 1.383 . S
C1680 C1679 1.379 . S
H1681 C1675 0.959 . S
H1682 C1675 0.961 . S
H1683 C1675 0.960 . S
H1684 C1676 0.930 . S
H1685 C1677 0.929 . S
H1686 C1694 0.929 . S
H1687 C1696 0.930 . S
H1688 C1698 0.930 . S
H1689 C1701 0.929 . S
H1690 C1704 0.930 . S
H1691 C1706 0.960 . S
H1692 C1706 0.960 . S
H1693 C1706 0.960 . S
C1694 H1686 0.929 . S
C1694 C1695 1.377 . S
C1694 C1696 1.384 . S
C1695 C1694 1.377 . S
C1695 C1701 1.390 . S
C1696 H1687 0.930 . S
C1696 C1694 1.384 . S
C1696 C1697 1.372 . S
C1697 C1696 1.372 . S
C1697 C1698 1.400 . S
C1697 C1702 1.490 . S
C1698 H1688 0.930 . S
C1698 C1697 1.400 . S
C1698 C1701 1.386 . S
H1699 C1715 0.930 . S
H1700 C1716 0.931 . S
C1701 H1689 0.929 . S
C1701 C1695 1.390 . S
C1701 C1698 1.386 . S
C1702 C1697 1.490 . S
C1702 C1704 1.395 . S
C1702 C1705 1.403 . S
H1703 C1709 0.930 . S
C1704 H1690 0.930 . S
C1704 C1702 1.395 . S
C1704 C1707 1.403 . S
C1705 C1702 1.403 . S
C1705 C1706 1.524 . S
C1705 C1709 1.400 . S
C1706 H1691 0.960 . S
C1706 H1692 0.960 . S
C1706 H1693 0.960 . S
C1706 C1705 1.524 . S
C1707 C1704 1.403 . S
C1707 C1708 1.392 . S
C1707 C1711 1.495 . S
C1708 C1707 1.392 . S
C1708 C1709 1.385 . S
C1708 C1710 1.478 . S
C1709 H1703 0.930 . S
C1709 C1705 1.400 . S
C1709 C1708 1.385 . S
C1710 C1708 1.478 . S
C1710 C1712 1.381 . S
C1710 C1716 1.383 . S
C1711 C1707 1.495 . S
C1711 H1717 0.959 . S
C1711 H1718 0.961 . S
C1711 H1719 0.960 . S
C1712 C1710 1.381 . S
C1712 C1713 1.394 . S
C1712 H1720 0.930 . S
C1713 C1712 1.394 . S
C1713 C1714 1.383 . S
C1713 H1721 0.929 . S
C1714 C1713 1.383 . S
C1714 C1715 1.377 . S
C1715 H1699 0.930 . S
C1715 C1714 1.377 . S
C1715 C1716 1.379 . S
C1716 H1700 0.931 . S
C1716 C1710 1.383 . S
C1716 C1715 1.379 . S
H1717 C1711 0.959 . S
H1718 C1711 0.961 . S
H1719 C1711 0.960 . S
H1720 C1712 0.930 . S
H1721 C1713 0.929 . S
H1722 C1730 0.929 . S
H1723 C1732 0.930 . S
H1724 C1734 0.930 . S
H1725 C1737 0.929 . S
H1726 C1740 0.930 . S
H1727 C1742 0.960 . S
H1728 C1742 0.960 . S
H1729 C1742 0.960 . S
C1730 H1722 0.929 . S
C1730 C1731 1.377 . S
C1730 C1732 1.384 . S
C1731 C1730 1.377 . S
C1731 C1737 1.390 . S
C1732 H1723 0.930 . S
C1732 C1730 1.384 . S
C1732 C1733 1.372 . S
C1733 C1732 1.372 . S
C1733 C1734 1.400 . S
C1733 C1738 1.490 . S
C1734 H1724 0.930 . S
C1734 C1733 1.400 . S
C1734 C1737 1.386 . S
H1735 C1751 0.930 . S
H1736 C1752 0.931 . S
C1737 H1725 0.929 . S
C1737 C1731 1.390 . S
C1737 C1734 1.386 . S
C1738 C1733 1.490 . S
C1738 C1740 1.395 . S
C1738 C1741 1.403 . S
H1739 C1745 0.930 . S
C1740 H1726 0.930 . S
C1740 C1738 1.395 . S
C1740 C1743 1.403 . S
C1741 C1738 1.403 . S
C1741 C1742 1.524 . S
C1741 C1745 1.400 . S
C1742 H1727 0.960 . S
C1742 H1728 0.960 . S
C1742 H1729 0.960 . S
C1742 C1741 1.524 . S
C1743 C1740 1.403 . S
C1743 C1744 1.392 . S
C1743 C1747 1.495 . S
C1744 C1743 1.392 . S
C1744 C1745 1.385 . S
C1744 C1746 1.478 . S
C1745 H1739 0.930 . S
C1745 C1741 1.400 . S
C1745 C1744 1.385 . S
C1746 C1744 1.478 . S
C1746 C1748 1.381 . S
C1746 C1752 1.383 . S
C1747 C1743 1.495 . S
C1747 H1753 0.959 . S
C1747 H1754 0.961 . S
C1747 H1755 0.960 . S
C1748 C1746 1.381 . S
C1748 C1749 1.394 . S
C1748 H1756 0.930 . S
C1749 C1748 1.394 . S
C1749 C1750 1.383 . S
C1749 H1757 0.929 . S
C1750 C1749 1.383 . S
C1750 C1751 1.377 . S
C1751 H1735 0.930 . S
C1751 C1750 1.377 . S
C1751 C1752 1.379 . S
C1752 H1736 0.931 . S
C1752 C1746 1.383 . S
C1752 C1751 1.379 . S
H1753 C1747 0.959 . S
H1754 C1747 0.961 . S
H1755 C1747 0.960 . S
H1756 C1748 0.930 . S
H1757 C1749 0.929 . S
H1758 C1766 0.929 . S
H1759 C1768 0.930 . S
H1760 C1770 0.930 . S
H1761 C1773 0.929 . S
H1762 C1776 0.930 . S
H1763 C1778 0.960 . S
H1764 C1778 0.960 . S
H1765 C1778 0.960 . S
C1766 H1758 0.929 . S
C1766 C1767 1.377 . S
C1766 C1768 1.384 . S
C1767 C1766 1.377 . S
C1767 C1773 1.390 . S
C1768 H1759 0.930 . S
C1768 C1766 1.384 . S
C1768 C1769 1.372 . S
C1769 C1768 1.372 . S
C1769 C1770 1.400 . S
C1769 C1774 1.490 . S
C1770 H1760 0.930 . S
C1770 C1769 1.400 . S
C1770 C1773 1.386 . S
H1771 C1787 0.930 . S
H1772 C1788 0.931 . S
C1773 H1761 0.929 . S
C1773 C1767 1.390 . S
C1773 C1770 1.386 . S
C1774 C1769 1.490 . S
C1774 C1776 1.395 . S
C1774 C1777 1.403 . S
H1775 C1781 0.930 . S
C1776 H1762 0.930 . S
C1776 C1774 1.395 . S
C1776 C1779 1.403 . S
C1777 C1774 1.403 . S
C1777 C1778 1.524 . S
C1777 C1781 1.400 . S
C1778 H1763 0.960 . S
C1778 H1764 0.960 . S
C1778 H1765 0.960 . S
C1778 C1777 1.524 . S
C1779 C1776 1.403 . S
C1779 C1780 1.392 . S
C1779 C1783 1.495 . S
C1780 C1779 1.392 . S
C1780 C1781 1.385 . S
C1780 C1782 1.478 . S
C1781 H1775 0.930 . S
C1781 C1777 1.400 . S
C1781 C1780 1.385 . S
C1782 C1780 1.478 . S
C1782 C1784 1.381 . S
C1782 C1788 1.383 . S
C1783 C1779 1.495 . S
C1783 H1789 0.959 . S
C1783 H1790 0.961 . S
C1783 H1791 0.960 . S
C1784 C1782 1.381 . S
C1784 C1785 1.394 . S
C1784 H1792 0.930 . S
C1785 C1784 1.394 . S
C1785 C1786 1.383 . S
C1785 H1793 0.929 . S
C1786 C1785 1.383 . S
C1786 C1787 1.377 . S
C1787 H1771 0.930 . S
C1787 C1786 1.377 . S
C1787 C1788 1.379 . S
C1788 H1772 0.931 . S
C1788 C1782 1.383 . S
C1788 C1787 1.379 . S
H1789 C1783 0.959 . S
H1790 C1783 0.961 . S
H1791 C1783 0.960 . S
H1792 C1784 0.930 . S
H1793 C1785 0.929 . S
H1794 C1802 0.929 . S
H1795 C1804 0.930 . S
H1796 C1806 0.930 . S
H1797 C1809 0.929 . S
H1798 C1812 0.930 . S
H1799 C1814 0.960 . S
H1800 C1814 0.960 . S
H1801 C1814 0.960 . S
C1802 H1794 0.929 . S
C1802 C1803 1.377 . S
C1802 C1804 1.384 . S
C1803 C1802 1.377 . S
C1803 C1809 1.390 . S
C1804 H1795 0.930 . S
C1804 C1802 1.384 . S
C1804 C1805 1.372 . S
C1805 C1804 1.372 . S
C1805 C1806 1.400 . S
C1805 C1810 1.490 . S
C1806 H1796 0.930 . S
C1806 C1805 1.400 . S
C1806 C1809 1.386 . S
H1807 C1823 0.930 . S
H1808 C1824 0.931 . S
C1809 H1797 0.929 . S
C1809 C1803 1.390 . S
C1809 C1806 1.386 . S
C1810 C1805 1.490 . S
C1810 C1812 1.395 . S
C1810 C1813 1.403 . S
H1811 C1817 0.930 . S
C1812 H1798 0.930 . S
C1812 C1810 1.395 . S
C1812 C1815 1.403 . S
C1813 C1810 1.403 . S
C1813 C1814 1.524 . S
C1813 C1817 1.400 . S
C1814 H1799 0.960 . S
C1814 H1800 0.960 . S
C1814 H1801 0.960 . S
C1814 C1813 1.524 . S
C1815 C1812 1.403 . S
C1815 C1816 1.392 . S
C1815 C1819 1.495 . S
C1816 C1815 1.392 . S
C1816 C1817 1.385 . S
C1816 C1818 1.478 . S
C1817 H1811 0.930 . S
C1817 C1813 1.400 . S
C1817 C1816 1.385 . S
C1818 C1816 1.478 . S
C1818 C1820 1.381 . S
C1818 C1824 1.383 . S
C1819 C1815 1.495 . S
C1819 H1825 0.959 . S
C1819 H1826 0.961 . S
C1819 H1827 0.960 . S
C1820 C1818 1.381 . S
C1820 C1821 1.394 . S
C1820 H1828 0.930 . S
C1821 C1820 1.394 . S
C1821 C1822 1.383 . S
C1821 H1829 0.929 . S
C1822 C1821 1.383 . S
C1822 C1823 1.377 . S
C1823 H1807 0.930 . S
C1823 C1822 1.377 . S
C1823 C1824 1.379 . S
C1824 H1808 0.931 . S
C1824 C1818 1.383 . S
C1824 C1823 1.379 . S
H1825 C1819 0.959 . S
H1826 C1819 0.961 . S
H1827 C1819 0.960 . S
H1828 C1820 0.930 . S
H1829 C1821 0.929 . S
H1830 C1838 0.929 . S
H1831 C1840 0.930 . S
H1832 C1842 0.930 . S
H1833 C1845 0.929 . S
H1834 C1848 0.930 . S
H1835 C1850 0.960 . S
H1836 C1850 0.960 . S
H1837 C1850 0.960 . S
C1838 H1830 0.929 . S
C1838 C1839 1.377 . S
C1838 C1840 1.384 . S
C1839 C1838 1.377 . S
C1839 C1845 1.390 . S
C1840 H1831 0.930 . S
C1840 C1838 1.384 . S
C1840 C1841 1.372 . S
C1841 C1840 1.372 . S
C1841 C1842 1.400 . S
C1841 C1846 1.490 . S
C1842 H1832 0.930 . S
C1842 C1841 1.400 . S
C1842 C1845 1.386 . S
H1843 C1859 0.930 . S
H1844 C1860 0.931 . S
C1845 H1833 0.929 . S
C1845 C1839 1.390 . S
C1845 C1842 1.386 . S
C1846 C1841 1.490 . S
C1846 C1848 1.395 . S
C1846 C1849 1.403 . S
H1847 C1853 0.930 . S
C1848 H1834 0.930 . S
C1848 C1846 1.395 . S
C1848 C1851 1.403 . S
C1849 C1846 1.403 . S
C1849 C1850 1.524 . S
C1849 C1853 1.400 . S
C1850 H1835 0.960 . S
C1850 H1836 0.960 . S
C1850 H1837 0.960 . S
C1850 C1849 1.524 . S
C1851 C1848 1.403 . S
C1851 C1852 1.392 . S
C1851 C1855 1.495 . S
C1852 C1851 1.392 . S
C1852 C1853 1.385 . S
C1852 C1854 1.478 . S
C1853 H1847 0.930 . S
C1853 C1849 1.400 . S
C1853 C1852 1.385 . S
C1854 C1852 1.478 . S
C1854 C1856 1.381 . S
C1854 C1860 1.383 . S
C1855 C1851 1.495 . S
C1855 H1861 0.959 . S
C1855 H1862 0.961 . S
C1855 H1863 0.960 . S
C1856 C1854 1.381 . S
C1856 C1857 1.394 . S
C1856 H1864 0.930 . S
C1857 C1856 1.394 . S
C1857 C1858 1.383 . S
C1857 H1865 0.929 . S
C1858 C1857 1.383 . S
C1858 C1859 1.377 . S
C1859 H1843 0.930 . S
C1859 C1858 1.377 . S
C1859 C1860 1.379 . S
C1860 H1844 0.931 . S
C1860 C1854 1.383 . S
C1860 C1859 1.379 . S
H1861 C1855 0.959 . S
H1862 C1855 0.961 . S
H1863 C1855 0.960 . S
H1864 C1856 0.930 . S
H1865 C1857 0.929 . S
H1866 C1874 0.929 . S
H1867 C1876 0.930 . S
H1868 C1878 0.930 . S
H1869 C1881 0.929 . S
H1870 C1884 0.930 . S
H1871 C1886 0.960 . S
H1872 C1886 0.960 . S
H1873 C1886 0.960 . S
C1874 H1866 0.929 . S
C1874 C1875 1.377 . S
C1874 C1876 1.384 . S
C1875 C1874 1.377 . S
C1875 C1881 1.390 . S
C1876 H1867 0.930 . S
C1876 C1874 1.384 . S
C1876 C1877 1.372 . S
C1877 C1876 1.372 . S
C1877 C1878 1.400 . S
C1877 C1882 1.490 . S
C1878 H1868 0.930 . S
C1878 C1877 1.400 . S
C1878 C1881 1.386 . S
H1879 C1895 0.930 . S
H1880 C1896 0.931 . S
C1881 H1869 0.929 . S
C1881 C1875 1.390 . S
C1881 C1878 1.386 . S
C1882 C1877 1.490 . S
C1882 C1884 1.395 . S
C1882 C1885 1.403 . S
H1883 C1889 0.930 . S
C1884 H1870 0.930 . S
C1884 C1882 1.395 . S
C1884 C1887 1.403 . S
C1885 C1882 1.403 . S
C1885 C1886 1.524 . S
C1885 C1889 1.400 . S
C1886 H1871 0.960 . S
C1886 H1872 0.960 . S
C1886 H1873 0.960 . S
C1886 C1885 1.524 . S
C1887 C1884 1.403 . S
C1887 C1888 1.392 . S
C1887 C1891 1.495 . S
C1888 C1887 1.392 . S
C1888 C1889 1.385 . S
C1888 C1890 1.478 . S
C1889 H1883 0.930 . S
C1889 C1885 1.400 . S
C1889 C1888 1.385 . S
C1890 C1888 1.478 . S
C1890 C1892 1.381 . S
C1890 C1896 1.383 . S
C1891 C1887 1.495 . S
C1891 H1897 0.959 . S
C1891 H1898 0.961 . S
C1891 H1899 0.960 . S
C1892 C1890 1.381 . S
C1892 C1893 1.394 . S
C1892 H1900 0.930 . S
C1893 C1892 1.394 . S
C1893 C1894 1.383 . S
C1893 H1901 0.929 . S
C1894 C1893 1.383 . S
C1894 C1895 1.377 . S
C1895 H1879 0.930 . S
C1895 C1894 1.377 . S
C1895 C1896 1.379 . S
C1896 H1880 0.931 . S
C1896 C1890 1.383 . S
C1896 C1895 1.379 . S
H1897 C1891 0.959 . S
H1898 C1891 0.961 . S
H1899 C1891 0.960 . S
H1900 C1892 0.930 . S
H1901 C1893 0.929 . S
H1902 C1910 0.929 . S
H1903 C1912 0.930 . S
H1904 C1914 0.930 . S
H1905 C1917 0.929 . S
H1906 C1920 0.930 . S
H1907 C1922 0.960 . S
H1908 C1922 0.960 . S
H1909 C1922 0.960 . S
C1910 H1902 0.929 . S
C1910 C1911 1.377 . S
C1910 C1912 1.384 . S
C1911 C1910 1.377 . S
C1911 C1917 1.390 . S
C1912 H1903 0.930 . S
C1912 C1910 1.384 . S
C1912 C1913 1.372 . S
C1913 C1912 1.372 . S
C1913 C1914 1.400 . S
C1913 C1918 1.490 . S
C1914 H1904 0.930 . S
C1914 C1913 1.400 . S
C1914 C1917 1.386 . S
H1915 C1931 0.930 . S
H1916 C1932 0.931 . S
C1917 H1905 0.929 . S
C1917 C1911 1.390 . S
C1917 C1914 1.386 . S
C1918 C1913 1.490 . S
C1918 C1920 1.395 . S
C1918 C1921 1.403 . S
H1919 C1925 0.930 . S
C1920 H1906 0.930 . S
C1920 C1918 1.395 . S
C1920 C1923 1.403 . S
C1921 C1918 1.403 . S
C1921 C1922 1.524 . S
C1921 C1925 1.400 . S
C1922 H1907 0.960 . S
C1922 H1908 0.960 . S
C1922 H1909 0.960 . S
C1922 C1921 1.524 . S
C1923 C1920 1.403 . S
C1923 C1924 1.392 . S
C1923 C1927 1.495 . S
C1924 C1923 1.392 . S
C1924 C1925 1.385 . S
C1924 C1926 1.478 . S
C1925 H1919 0.930 . S
C1925 C1921 1.400 . S
C1925 C1924 1.385 . S
C1926 C1924 1.478 . S
C1926 C1928 1.381 . S
C1926 C1932 1.383 . S
C1927 C1923 1.495 . S
C1927 H1933 0.959 . S
C1927 H1934 0.961 . S
C1927 H1935 0.960 . S
C1928 C1926 1.381 . S
C1928 C1929 1.394 . S
C1928 H1936 0.930 . S
C1929 C1928 1.394 . S
C1929 C1930 1.383 . S
C1929 H1937 0.929 . S
C1930 C1929 1.383 . S
C1930 C1931 1.377 . S
C1931 H1915 0.930 . S
C1931 C1930 1.377 . S
C1931 C1932 1.379 . S
C1932 H1916 0.931 . S
C1932 C1926 1.383 . S
C1932 C1931 1.379 . S
H1933 C1927 0.959 . S
H1934 C1927 0.961 . S
H1935 C1927 0.960 . S
H1936 C1928 0.930 . S
H1937 C1929 0.929 . S
H1938 C1946 0.929 . S
H1939 C1948 0.930 . S
H1940 C1950 0.930 . S
H1941 C1953 0.929 . S
H1942 C1956 0.930 . S
H1943 C1958 0.960 . S
H1944 C1958 0.960 . S
H1945 C1958 0.960 . S
C1946 H1938 0.929 . S
C1946 C1947 1.377 . S
C1946 C1948 1.384 . S
C1947 C1946 1.377 . S
C1947 C1953 1.390 . S
C1948 H1939 0.930 . S
C1948 C1946 1.384 . S
C1948 C1949 1.372 . S
C1949 C1948 1.372 . S
C1949 C1950 1.400 . S
C1949 C1954 1.490 . S
C1950 H1940 0.930 . S
C1950 C1949 1.400 . S
C1950 C1953 1.386 . S
H1951 C1967 0.930 . S
H1952 C1968 0.931 . S
C1953 H1941 0.929 . S
C1953 C1947 1.390 . S
C1953 C1950 1.386 . S
C1954 C1949 1.490 . S
C1954 C1956 1.395 . S
C1954 C1957 1.403 . S
H1955 C1961 0.930 . S
C1956 H1942 0.930 . S
C1956 C1954 1.395 . S
C1956 C1959 1.403 . S
C1957 C1954 1.403 . S
C1957 C1958 1.524 . S
C1957 C1961 1.400 . S
C1958 H1943 0.960 . S
C1958 H1944 0.960 . S
C1958 H1945 0.960 . S
C1958 C1957 1.524 . S
C1959 C1956 1.403 . S
C1959 C1960 1.392 . S
C1959 C1963 1.495 . S
C1960 C1959 1.392 . S
C1960 C1961 1.385 . S
C1960 C1962 1.478 . S
C1961 H1955 0.930 . S
C1961 C1957 1.400 . S
C1961 C1960 1.385 . S
C1962 C1960 1.478 . S
C1962 C1964 1.381 . S
C1962 C1968 1.383 . S
C1963 C1959 1.495 . S
C1963 H1969 0.959 . S
C1963 H1970 0.961 . S
C1963 H1971 0.960 . S
C1964 C1962 1.381 . S
C1964 C1965 1.394 . S
C1964 H1972 0.930 . S
C1965 C1964 1.394 . S
C1965 C1966 1.383 . S
C1965 H1973 0.929 . S
C1966 C1965 1.383 . S
C1966 C1967 1.377 . S
C1967 H1951 0.930 . S
C1967 C1966 1.377 . S
C1967 C1968 1.379 . S
C1968 H1952 0.931 . S
C1968 C1962 1.383 . S
C1968 C1967 1.379 . S
H1969 C1963 0.959 . S
H1970 C1963 0.961 . S
H1971 C1963 0.960 . S
H1972 C1964 0.930 . S
H1973 C1965 0.929 . S
H1974 C1982 0.929 . S
H1975 C1984 0.930 . S
H1976 C1986 0.930 . S
H1977 C1989 0.929 . S
H1978 C1992 0.930 . S
H1979 C1994 0.960 . S
H1980 C1994 0.960 . S
H1981 C1994 0.960 . S
C1982 H1974 0.929 . S
C1982 C1983 1.377 . S
C1982 C1984 1.384 . S
C1983 C1982 1.377 . S
C1983 C1989 1.390 . S
C1984 H1975 0.930 . S
C1984 C1982 1.384 . S
C1984 C1985 1.372 . S
C1985 C1984 1.372 . S
C1985 C1986 1.400 . S
C1985 C1990 1.490 . S
C1986 H1976 0.930 . S
C1986 C1985 1.400 . S
C1986 C1989 1.386 . S
H1987 C2003 0.930 . S
H1988 C2004 0.931 . S
C1989 H1977 0.929 . S
C1989 C1983 1.390 . S
C1989 C1986 1.386 . S
C1990 C1985 1.490 . S
C1990 C1992 1.395 . S
C1990 C1993 1.403 . S
H1991 C1997 0.930 . S
C1992 H1978 0.930 . S
C1992 C1990 1.395 . S
C1992 C1995 1.403 . S
C1993 C1990 1.403 . S
C1993 C1994 1.524 . S
C1993 C1997 1.400 . S
C1994 H1979 0.960 . S
C1994 H1980 0.960 . S
C1994 H1981 0.960 . S
C1994 C1993 1.524 . S
C1995 C1992 1.403 . S
C1995 C1996 1.392 . S
C1995 C1999 1.495 . S
C1996 C1995 1.392 . S
C1996 C1997 1.385 . S
C1996 C1998 1.478 . S
C1997 H1991 0.930 . S
C1997 C1993 1.400 . S
C1997 C1996 1.385 . S
C1998 C1996 1.478 . S
C1998 C2000 1.381 . S
C1998 C2004 1.383 . S
C1999 C1995 1.495 . S
C1999 H2005 0.959 . S
C1999 H2006 0.961 . S
C1999 H2007 0.960 . S
C2000 C1998 1.381 . S
C2000 C2001 1.394 . S
C2000 H2008 0.930 . S
C2001 C2000 1.394 . S
C2001 C2002 1.383 . S
C2001 H2009 0.929 . S
C2002 C2001 1.383 . S
C2002 C2003 1.377 . S
C2003 H1987 0.930 . S
C2003 C2002 1.377 . S
C2003 C2004 1.379 . S
C2004 H1988 0.931 . S
C2004 C1998 1.383 . S
C2004 C2003 1.379 . S
H2005 C1999 0.959 . S
H2006 C1999 0.961 . S
H2007 C1999 0.960 . S
H2008 C2000 0.930 . S
H2009 C2001 0.929 . S
H2010 C2018 0.929 . S
H2011 C2020 0.930 . S
H2012 C2022 0.930 . S
H2013 C2025 0.929 . S
H2014 C2028 0.930 . S
H2015 C2030 0.960 . S
H2016 C2030 0.960 . S
H2017 C2030 0.960 . S
C2018 H2010 0.929 . S
C2018 C2019 1.377 . S
C2018 C2020 1.384 . S
C2019 C2018 1.377 . S
C2019 C2025 1.390 . S
C2020 H2011 0.930 . S
C2020 C2018 1.384 . S
C2020 C2021 1.372 . S
C2021 C2020 1.372 . S
C2021 C2022 1.400 . S
C2021 C2026 1.490 . S
C2022 H2012 0.930 . S
C2022 C2021 1.400 . S
C2022 C2025 1.386 . S
H2023 C2039 0.930 . S
H2024 C2040 0.931 . S
C2025 H2013 0.929 . S
C2025 C2019 1.390 . S
C2025 C2022 1.386 . S
C2026 C2021 1.490 . S
C2026 C2028 1.395 . S
C2026 C2029 1.403 . S
H2027 C2033 0.930 . S
C2028 H2014 0.930 . S
C2028 C2026 1.395 . S
C2028 C2031 1.403 . S
C2029 C2026 1.403 . S
C2029 C2030 1.524 . S
C2029 C2033 1.400 . S
C2030 H2015 0.960 . S
C2030 H2016 0.960 . S
C2030 H2017 0.960 . S
C2030 C2029 1.524 . S
C2031 C2028 1.403 . S
C2031 C2032 1.392 . S
C2031 C2035 1.495 . S
C2032 C2031 1.392 . S
C2032 C2033 1.385 . S
C2032 C2034 1.478 . S
C2033 H2027 0.930 . S
C2033 C2029 1.400 . S
C2033 C2032 1.385 . S
C2034 C2032 1.478 . S
C2034 C2036 1.381 . S
C2034 C2040 1.383 . S
C2035 C2031 1.495 . S
C2035 H2041 0.959 . S
C2035 H2042 0.961 . S
C2035 H2043 0.960 . S
C2036 C2034 1.381 . S
C2036 C2037 1.394 . S
C2036 H2044 0.930 . S
C2037 C2036 1.394 . S
C2037 C2038 1.383 . S
C2037 H2045 0.929 . S
C2038 C2037 1.383 . S
C2038 C2039 1.377 . S
C2039 H2023 0.930 . S
C2039 C2038 1.377 . S
C2039 C2040 1.379 . S
C2040 H2024 0.931 . S
C2040 C2034 1.383 . S
C2040 C2039 1.379 . S
H2041 C2035 0.959 . S
H2042 C2035 0.961 . S
H2043 C2035 0.960 . S
H2044 C2036 0.930 . S
H2045 C2037 0.929 . S
H2046 C2054 0.929 . S
H2047 C2056 0.930 . S
H2048 C2058 0.930 . S
H2049 C2061 0.929 . S
H2050 C2064 0.930 . S
H2051 C2066 0.960 . S
H2052 C2066 0.960 . S
H2053 C2066 0.960 . S
C2054 H2046 0.929 . S
C2054 C2055 1.377 . S
C2054 C2056 1.384 . S
C2055 C2054 1.377 . S
C2055 C2061 1.390 . S
C2056 H2047 0.930 . S
C2056 C2054 1.384 . S
C2056 C2057 1.372 . S
C2057 C2056 1.372 . S
C2057 C2058 1.400 . S
C2057 C2062 1.490 . S
C2058 H2048 0.930 . S
C2058 C2057 1.400 . S
C2058 C2061 1.386 . S
H2059 C2075 0.930 . S
H2060 C2076 0.931 . S
C2061 H2049 0.929 . S
C2061 C2055 1.390 . S
C2061 C2058 1.386 . S
C2062 C2057 1.490 . S
C2062 C2064 1.395 . S
C2062 C2065 1.403 . S
H2063 C2069 0.930 . S
C2064 H2050 0.930 . S
C2064 C2062 1.395 . S
C2064 C2067 1.403 . S
C2065 C2062 1.403 . S
C2065 C2066 1.524 . S
C2065 C2069 1.400 . S
C2066 H2051 0.960 . S
C2066 H2052 0.960 . S
C2066 H2053 0.960 . S
C2066 C2065 1.524 . S
C2067 C2064 1.403 . S
C2067 C2068 1.392 . S
C2067 C2071 1.495 . S
C2068 C2067 1.392 . S
C2068 C2069 1.385 . S
C2068 C2070 1.478 . S
C2069 H2063 0.930 . S
C2069 C2065 1.400 . S
C2069 C2068 1.385 . S
C2070 C2068 1.478 . S
C2070 C2072 1.381 . S
C2070 C2076 1.383 . S
C2071 C2067 1.495 . S
C2071 H2077 0.959 . S
C2071 H2078 0.961 . S
C2071 H2079 0.960 . S
C2072 C2070 1.381 . S
C2072 C2073 1.394 . S
C2072 H2080 0.930 . S
C2073 C2072 1.394 . S
C2073 C2074 1.383 . S
C2073 H2081 0.929 . S
C2074 C2073 1.383 . S
C2074 C2075 1.377 . S
C2075 H2059 0.930 . S
C2075 C2074 1.377 . S
C2075 C2076 1.379 . S
C2076 H2060 0.931 . S
C2076 C2070 1.383 . S
C2076 C2075 1.379 . S
H2077 C2071 0.959 . S
H2078 C2071 0.961 . S
H2079 C2071 0.960 . S
H2080 C2072 0.930 . S
H2081 C2073 0.929 . S
H2082 C2090 0.929 . S
H2083 C2092 0.930 . S
H2084 C2094 0.930 . S
H2085 C2097 0.929 . S
H2086 C2100 0.930 . S
H2087 C2102 0.960 . S
H2088 C2102 0.960 . S
H2089 C2102 0.960 . S
C2090 H2082 0.929 . S
C2090 C2091 1.377 . S
C2090 C2092 1.384 . S
C2091 C2090 1.377 . S
C2091 C2097 1.390 . S
C2092 H2083 0.930 . S
C2092 C2090 1.384 . S
C2092 C2093 1.372 . S
C2093 C2092 1.372 . S
C2093 C2094 1.400 . S
C2093 C2098 1.490 . S
C2094 H2084 0.930 . S
C2094 C2093 1.400 . S
C2094 C2097 1.386 . S
H2095 C2111 0.930 . S
H2096 C2112 0.931 . S
C2097 H2085 0.929 . S
C2097 C2091 1.390 . S
C2097 C2094 1.386 . S
C2098 C2093 1.490 . S
C2098 C2100 1.395 . S
C2098 C2101 1.403 . S
H2099 C2105 0.930 . S
C2100 H2086 0.930 . S
C2100 C2098 1.395 . S
C2100 C2103 1.403 . S
C2101 C2098 1.403 . S
C2101 C2102 1.524 . S
C2101 C2105 1.400 . S
C2102 H2087 0.960 . S
C2102 H2088 0.960 . S
C2102 H2089 0.960 . S
C2102 C2101 1.524 . S
C2103 C2100 1.403 . S
C2103 C2104 1.392 . S
C2103 C2107 1.495 . S
C2104 C2103 1.392 . S
C2104 C2105 1.385 . S
C2104 C2106 1.478 . S
C2105 H2099 0.930 . S
C2105 C2101 1.400 . S
C2105 C2104 1.385 . S
C2106 C2104 1.478 . S
C2106 C2108 1.381 . S
C2106 C2112 1.383 . S
C2107 C2103 1.495 . S
C2107 H2113 0.959 . S
C2107 H2114 0.961 . S
C2107 H2115 0.960 . S
C2108 C2106 1.381 . S
C2108 C2109 1.394 . S
C2108 H2116 0.930 . S
C2109 C2108 1.394 . S
C2109 C2110 1.383 . S
C2109 H2117 0.929 . S
C2110 C2109 1.383 . S
C2110 C2111 1.377 . S
C2111 H2095 0.930 . S
C2111 C2110 1.377 . S
C2111 C2112 1.379 . S
C2112 H2096 0.931 . S
C2112 C2106 1.383 . S
C2112 C2111 1.379 . S
H2113 C2107 0.959 . S
H2114 C2107 0.961 . S
H2115 C2107 0.960 . S
H2116 C2108 0.930 . S
H2117 C2109 0.929 . S
H2118 C2126 0.929 . S
H2119 C2128 0.930 . S
H2120 C2130 0.930 . S
H2121 C2133 0.929 . S
H2122 C2136 0.930 . S
H2123 C2138 0.960 . S
H2124 C2138 0.960 . S
H2125 C2138 0.960 . S
C2126 H2118 0.929 . S
C2126 C2127 1.377 . S
C2126 C2128 1.384 . S
C2127 C2126 1.377 . S
C2127 C2133 1.390 . S
C2128 H2119 0.930 . S
C2128 C2126 1.384 . S
C2128 C2129 1.372 . S
C2129 C2128 1.372 . S
C2129 C2130 1.400 . S
C2129 C2134 1.490 . S
C2130 H2120 0.930 . S
C2130 C2129 1.400 . S
C2130 C2133 1.386 . S
H2131 C2147 0.930 . S
H2132 C2148 0.931 . S
C2133 H2121 0.929 . S
C2133 C2127 1.390 . S
C2133 C2130 1.386 . S
C2134 C2129 1.490 . S
C2134 C2136 1.395 . S
C2134 C2137 1.403 . S
H2135 C2141 0.930 . S
C2136 H2122 0.930 . S
C2136 C2134 1.395 . S
C2136 C2139 1.403 . S
C2137 C2134 1.403 . S
C2137 C2138 1.524 . S
C2137 C2141 1.400 . S
C2138 H2123 0.960 . S
C2138 H2124 0.960 . S
C2138 H2125 0.960 . S
C2138 C2137 1.524 . S
C2139 C2136 1.403 . S
C2139 C2140 1.392 . S
C2139 C2143 1.495 . S
C2140 C2139 1.392 . S
C2140 C2141 1.385 . S
C2140 C2142 1.478 . S
C2141 H2135 0.930 . S
C2141 C2137 1.400 . S
C2141 C2140 1.385 . S
C2142 C2140 1.478 . S
C2142 C2144 1.381 . S
C2142 C2148 1.383 . S
C2143 C2139 1.495 . S
C2143 H2149 0.959 . S
C2143 H2150 0.961 . S
C2143 H2151 0.960 . S
C2144 C2142 1.381 . S
C2144 C2145 1.394 . S
C2144 H2152 0.930 . S
C2145 C2144 1.394 . S
C2145 C2146 1.383 . S
C2145 H2153 0.929 . S
C2146 C2145 1.383 . S
C2146 C2147 1.377 . S
C2147 H2131 0.930 . S
C2147 C2146 1.377 . S
C2147 C2148 1.379 . S
C2148 H2132 0.931 . S
C2148 C2142 1.383 . S
C2148 C2147 1.379 . S
H2149 C2143 0.959 . S
H2150 C2143 0.961 . S
H2151 C2143 0.960 . S
H2152 C2144 0.930 . S
H2153 C2145 0.929 . S
H2154 C2162 0.929 . S
H2155 C2164 0.930 . S
H2156 C2166 0.930 . S
H2157 C2169 0.929 . S
H2158 C2172 0.930 . S
H2159 C2174 0.960 . S
H2160 C2174 0.960 . S
H2161 C2174 0.960 . S
C2162 H2154 0.929 . S
C2162 C2163 1.377 . S
C2162 C2164 1.384 . S
C2163 C2162 1.377 . S
C2163 C2169 1.390 . S
C2164 H2155 0.930 . S
C2164 C2162 1.384 . S
C2164 C2165 1.372 . S
C2165 C2164 1.372 . S
C2165 C2166 1.400 . S
C2165 C2170 1.490 . S
C2166 H2156 0.930 . S
C2166 C2165 1.400 . S
C2166 C2169 1.386 . S
H2167 C2183 0.930 . S
H2168 C2184 0.931 . S
C2169 H2157 0.929 . S
C2169 C2163 1.390 . S
C2169 C2166 1.386 . S
C2170 C2165 1.490 . S
C2170 C2172 1.395 . S
C2170 C2173 1.403 . S
H2171 C2177 0.930 . S
C2172 H2158 0.930 . S
C2172 C2170 1.395 . S
C2172 C2175 1.403 . S
C2173 C2170 1.403 . S
C2173 C2174 1.524 . S
C2173 C2177 1.400 . S
C2174 H2159 0.960 . S
C2174 H2160 0.960 . S
C2174 H2161 0.960 . S
C2174 C2173 1.524 . S
C2175 C2172 1.403 . S
C2175 C2176 1.392 . S
C2175 C2179 1.495 . S
C2176 C2175 1.392 . S
C2176 C2177 1.385 . S
C2176 C2178 1.478 . S
C2177 H2171 0.930 . S
C2177 C2173 1.400 . S
C2177 C2176 1.385 . S
C2178 C2176 1.478 . S
C2178 C2180 1.381 . S
C2178 C2184 1.383 . S
C2179 C2175 1.495 . S
C2179 H2185 0.959 . S
C2179 H2186 0.961 . S
C2179 H2187 0.960 . S
C2180 C2178 1.381 . S
C2180 C2181 1.394 . S
C2180 H2188 0.930 . S
C2181 C2180 1.394 . S
C2181 C2182 1.383 . S
C2181 H2189 0.929 . S
C2182 C2181 1.383 . S
C2182 C2183 1.377 . S
C2183 H2167 0.930 . S
C2183 C2182 1.377 . S
C2183 C2184 1.379 . S
C2184 H2168 0.931 . S
C2184 C2178 1.383 . S
C2184 C2183 1.379 . S
H2185 C2179 0.959 . S
H2186 C2179 0.961 . S
H2187 C2179 0.960 . S
H2188 C2180 0.930 . S
H2189 C2181 0.929 . S
H2190 C2198 0.929 . S
H2191 C2200 0.930 . S
H2192 C2202 0.930 . S
H2193 C2205 0.929 . S
H2194 C2208 0.930 . S
H2195 C2210 0.960 . S
H2196 C2210 0.960 . S
H2197 C2210 0.960 . S
C2198 H2190 0.929 . S
C2198 C2199 1.377 . S
C2198 C2200 1.384 . S
C2199 C2198 1.377 . S
C2199 C2205 1.390 . S
C2200 H2191 0.930 . S
C2200 C2198 1.384 . S
C2200 C2201 1.372 . S
C2201 C2200 1.372 . S
C2201 C2202 1.400 . S
C2201 C2206 1.490 . S
C2202 H2192 0.930 . S
C2202 C2201 1.400 . S
C2202 C2205 1.386 . S
H2203 C2219 0.930 . S
H2204 C2220 0.931 . S
C2205 H2193 0.929 . S
C2205 C2199 1.390 . S
C2205 C2202 1.386 . S
C2206 C2201 1.490 . S
C2206 C2208 1.395 . S
C2206 C2209 1.403 . S
H2207 C2213 0.930 . S
C2208 H2194 0.930 . S
C2208 C2206 1.395 . S
C2208 C2211 1.403 . S
C2209 C2206 1.403 . S
C2209 C2210 1.524 . S
C2209 C2213 1.400 . S
C2210 H2195 0.960 . S
C2210 H2196 0.960 . S
C2210 H2197 0.960 . S
C2210 C2209 1.524 . S
C2211 C2208 1.403 . S
C2211 C2212 1.392 . S
C2211 C2215 1.495 . S
C2212 C2211 1.392 . S
C2212 C2213 1.385 . S
C2212 C2214 1.478 . S
C2213 H2207 0.930 . S
C2213 C2209 1.400 . S
C2213 C2212 1.385 . S
C2214 C2212 1.478 . S
C2214 C2216 1.381 . S
C2214 C2220 1.383 . S
C2215 C2211 1.495 . S
C2215 H2221 0.959 . S
C2215 H2222 0.961 . S
C2215 H2223 0.960 . S
C2216 C2214 1.381 . S
C2216 C2217 1.394 . S
C2216 H2224 0.930 . S
C2217 C2216 1.394 . S
C2217 C2218 1.383 . S
C2217 H2225 0.929 . S
C2218 C2217 1.383 . S
C2218 C2219 1.377 . S
C2219 H2203 0.930 . S
C2219 C2218 1.377 . S
C2219 C2220 1.379 . S
C2220 H2204 0.931 . S
C2220 C2214 1.383 . S
C2220 C2219 1.379 . S
H2221 C2215 0.959 . S
H2222 C2215 0.961 . S
H2223 C2215 0.960 . S
H2224 C2216 0.930 . S
H2225 C2217 0.929 . S
H2226 C2234 0.929 . S
H2227 C2236 0.930 . S
H2228 C2238 0.930 . S
H2229 C2241 0.929 . S
H2230 C2244 0.930 . S
H2231 C2246 0.960 . S
H2232 C2246 0.960 . S
H2233 C2246 0.960 . S
C2234 H2226 0.929 . S
C2234 C2235 1.377 . S
C2234 C2236 1.384 . S
C2235 C2234 1.377 . S
C2235 C2241 1.390 . S
C2236 H2227 0.930 . S
C2236 C2234 1.384 . S
C2236 C2237 1.372 . S
C2237 C2236 1.372 . S
C2237 C2238 1.400 . S
C2237 C2242 1.490 . S
C2238 H2228 0.930 . S
C2238 C2237 1.400 . S
C2238 C2241 1.386 . S
H2239 C2255 0.930 . S
H2240 C2256 0.931 . S
C2241 H2229 0.929 . S
C2241 C2235 1.390 . S
C2241 C2238 1.386 . S
C2242 C2237 1.490 . S
C2242 C2244 1.395 . S
C2242 C2245 1.403 . S
H2243 C2249 0.930 . S
C2244 H2230 0.930 . S
C2244 C2242 1.395 . S
C2244 C2247 1.403 . S
C2245 C2242 1.403 . S
C2245 C2246 1.524 . S
C2245 C2249 1.400 . S
C2246 H2231 0.960 . S
C2246 H2232 0.960 . S
C2246 H2233 0.960 . S
C2246 C2245 1.524 . S
C2247 C2244 1.403 . S
C2247 C2248 1.392 . S
C2247 C2251 1.495 . S
C2248 C2247 1.392 . S
C2248 C2249 1.385 . S
C2248 C2250 1.478 . S
C2249 H2243 0.930 . S
C2249 C2245 1.400 . S
C2249 C2248 1.385 . S
C2250 C2248 1.478 . S
C2250 C2252 1.381 . S
C2250 C2256 1.383 . S
C2251 C2247 1.495 . S
C2251 H2257 0.959 . S
C2251 H2258 0.961 . S
C2251 H2259 0.960 . S
C2252 C2250 1.381 . S
C2252 C2253 1.394 . S
C2252 H2260 0.930 . S
C2253 C2252 1.394 . S
C2253 C2254 1.383 . S
C2253 H2261 0.929 . S
C2254 C2253 1.383 . S
C2254 C2255 1.377 . S
C2255 H2239 0.930 . S
C2255 C2254 1.377 . S
C2255 C2256 1.379 . S
C2256 H2240 0.931 . S
C2256 C2250 1.383 . S
C2256 C2255 1.379 . S
H2257 C2251 0.959 . S
H2258 C2251 0.961 . S
H2259 C2251 0.960 . S
H2260 C2252 0.930 . S
H2261 C2253 0.929 . S
H2262 C2270 0.929 . S
H2263 C2272 0.930 . S
H2264 C2274 0.930 . S
H2265 C2277 0.929 . S
H2266 C2280 0.930 . S
H2267 C2282 0.960 . S
H2268 C2282 0.960 . S
H2269 C2282 0.960 . S
C2270 H2262 0.929 . S
C2270 C2271 1.377 . S
C2270 C2272 1.384 . S
C2271 C2270 1.377 . S
C2271 C2277 1.390 . S
C2272 H2263 0.930 . S
C2272 C2270 1.384 . S
C2272 C2273 1.372 . S
C2273 C2272 1.372 . S
C2273 C2274 1.400 . S
C2273 C2278 1.490 . S
C2274 H2264 0.930 . S
C2274 C2273 1.400 . S
C2274 C2277 1.386 . S
H2275 C2291 0.930 . S
H2276 C2292 0.931 . S
C2277 H2265 0.929 . S
C2277 C2271 1.390 . S
C2277 C2274 1.386 . S
C2278 C2273 1.490 . S
C2278 C2280 1.395 . S
C2278 C2281 1.403 . S
H2279 C2285 0.930 . S
C2280 H2266 0.930 . S
C2280 C2278 1.395 . S
C2280 C2283 1.403 . S
C2281 C2278 1.403 . S
C2281 C2282 1.524 . S
C2281 C2285 1.400 . S
C2282 H2267 0.960 . S
C2282 H2268 0.960 . S
C2282 H2269 0.960 . S
C2282 C2281 1.524 . S
C2283 C2280 1.403 . S
C2283 C2284 1.392 . S
C2283 C2287 1.495 . S
C2284 C2283 1.392 . S
C2284 C2285 1.385 . S
C2284 C2286 1.478 . S
C2285 H2279 0.930 . S
C2285 C2281 1.400 . S
C2285 C2284 1.385 . S
C2286 C2284 1.478 . S
C2286 C2288 1.381 . S
C2286 C2292 1.383 . S
C2287 C2283 1.495 . S
C2287 H2293 0.959 . S
C2287 H2294 0.961 . S
C2287 H2295 0.960 . S
C2288 C2286 1.381 . S
C2288 C2289 1.394 . S
C2288 H2296 0.930 . S
C2289 C2288 1.394 . S
C2289 C2290 1.383 . S
C2289 H2297 0.929 . S
C2290 C2289 1.383 . S
C2290 C2291 1.377 . S
C2291 H2275 0.930 . S
C2291 C2290 1.377 . S
C2291 C2292 1.379 . S
C2292 H2276 0.931 . S
C2292 C2286 1.383 . S
C2292 C2291 1.379 . S
H2293 C2287 0.959 . S
H2294 C2287 0.961 . S
H2295 C2287 0.960 . S
H2296 C2288 0.930 . S
H2297 C2289 0.929 . S
H2298 C2306 0.929 . S
H2299 C2308 0.930 . S
H2300 C2310 0.930 . S
H2301 C2313 0.929 . S
H2302 C2316 0.930 . S
H2303 C2318 0.960 . S
H2304 C2318 0.960 . S
H2305 C2318 0.960 . S
C2306 H2298 0.929 . S
C2306 C2307 1.377 . S
C2306 C2308 1.384 . S
C2307 C2306 1.377 . S
C2307 C2313 1.390 . S
C2308 H2299 0.930 . S
C2308 C2306 1.384 . S
C2308 C2309 1.372 . S
C2309 C2308 1.372 . S
C2309 C2310 1.400 . S
C2309 C2314 1.490 . S
C2310 H2300 0.930 . S
C2310 C2309 1.400 . S
C2310 C2313 1.386 . S
H2311 C2327 0.930 . S
H2312 C2328 0.931 . S
C2313 H2301 0.929 . S
C2313 C2307 1.390 . S
C2313 C2310 1.386 . S
C2314 C2309 1.490 . S
C2314 C2316 1.395 . S
C2314 C2317 1.403 . S
H2315 C2321 0.930 . S
C2316 H2302 0.930 . S
C2316 C2314 1.395 . S
C2316 C2319 1.403 . S
C2317 C2314 1.403 . S
C2317 C2318 1.524 . S
C2317 C2321 1.400 . S
C2318 H2303 0.960 . S
C2318 H2304 0.960 . S
C2318 H2305 0.960 . S
C2318 C2317 1.524 . S
C2319 C2316 1.403 . S
C2319 C2320 1.392 . S
C2319 C2323 1.495 . S
C2320 C2319 1.392 . S
C2320 C2321 1.385 . S
C2320 C2322 1.478 . S
C2321 H2315 0.930 . S
C2321 C2317 1.400 . S
C2321 C2320 1.385 . S
C2322 C2320 1.478 . S
C2322 C2324 1.381 . S
C2322 C2328 1.383 . S
C2323 C2319 1.495 . S
C2323 H2329 0.959 . S
C2323 H2330 0.961 . S
C2323 H2331 0.960 . S
C2324 C2322 1.381 . S
C2324 C2325 1.394 . S
C2324 H2332 0.930 . S
C2325 C2324 1.394 . S
C2325 C2326 1.383 . S
C2325 H2333 0.929 . S
C2326 C2325 1.383 . S
C2326 C2327 1.377 . S
C2327 H2311 0.930 . S
C2327 C2326 1.377 . S
C2327 C2328 1.379 . S
C2328 H2312 0.931 . S
C2328 C2322 1.383 . S
C2328 C2327 1.379 . S
H2329 C2323 0.959 . S
H2330 C2323 0.961 . S
H2331 C2323 0.960 . S
H2332 C2324 0.930 . S
H2333 C2325 0.929 . S
H2334 C2342 0.929 . S
H2335 C2344 0.930 . S
H2336 C2346 0.930 . S
H2337 C2349 0.929 . S
H2338 C2352 0.930 . S
H2339 C2354 0.960 . S
H2340 C2354 0.960 . S
H2341 C2354 0.960 . S
C2342 H2334 0.929 . S
C2342 C2343 1.377 . S
C2342 C2344 1.384 . S
C2343 C2342 1.377 . S
C2343 C2349 1.390 . S
C2344 H2335 0.930 . S
C2344 C2342 1.384 . S
C2344 C2345 1.372 . S
C2345 C2344 1.372 . S
C2345 C2346 1.400 . S
C2345 C2350 1.490 . S
C2346 H2336 0.930 . S
C2346 C2345 1.400 . S
C2346 C2349 1.386 . S
H2347 C2363 0.930 . S
H2348 C2364 0.931 . S
C2349 H2337 0.929 . S
C2349 C2343 1.390 . S
C2349 C2346 1.386 . S
C2350 C2345 1.490 . S
C2350 C2352 1.395 . S
C2350 C2353 1.403 . S
H2351 C2357 0.930 . S
C2352 H2338 0.930 . S
C2352 C2350 1.395 . S
C2352 C2355 1.403 . S
C2353 C2350 1.403 . S
C2353 C2354 1.524 . S
C2353 C2357 1.400 . S
C2354 H2339 0.960 . S
C2354 H2340 0.960 . S
C2354 H2341 0.960 . S
C2354 C2353 1.524 . S
C2355 C2352 1.403 . S
C2355 C2356 1.392 . S
C2355 C2359 1.495 . S
C2356 C2355 1.392 . S
C2356 C2357 1.385 . S
C2356 C2358 1.478 . S
C2357 H2351 0.930 . S
C2357 C2353 1.400 . S
C2357 C2356 1.385 . S
C2358 C2356 1.478 . S
C2358 C2360 1.381 . S
C2358 C2364 1.383 . S
C2359 C2355 1.495 . S
C2359 H2365 0.959 . S
C2359 H2366 0.961 . S
C2359 H2367 0.960 . S
C2360 C2358 1.381 . S
C2360 C2361 1.394 . S
C2360 H2368 0.930 . S
C2361 C2360 1.394 . S
C2361 C2362 1.383 . S
C2361 H2369 0.929 . S
C2362 C2361 1.383 . S
C2362 C2363 1.377 . S
C2363 H2347 0.930 . S
C2363 C2362 1.377 . S
C2363 C2364 1.379 . S
C2364 H2348 0.931 . S
C2364 C2358 1.383 . S
C2364 C2363 1.379 . S
H2365 C2359 0.959 . S
H2366 C2359 0.961 . S
H2367 C2359 0.960 . S
H2368 C2360 0.930 . S
H2369 C2361 0.929 . S
H2370 C2378 0.929 . S
H2371 C2380 0.930 . S
H2372 C2382 0.930 . S
H2373 C2385 0.929 . S
H2374 C2388 0.930 . S
H2375 C2390 0.960 . S
H2376 C2390 0.960 . S
H2377 C2390 0.960 . S
C2378 H2370 0.929 . S
C2378 C2379 1.377 . S
C2378 C2380 1.384 . S
C2379 C2378 1.377 . S
C2379 C2385 1.390 . S
C2380 H2371 0.930 . S
C2380 C2378 1.384 . S
C2380 C2381 1.372 . S
C2381 C2380 1.372 . S
C2381 C2382 1.400 . S
C2381 C2386 1.490 . S
C2382 H2372 0.930 . S
C2382 C2381 1.400 . S
C2382 C2385 1.386 . S
H2383 C2399 0.930 . S
H2384 C2400 0.931 . S
C2385 H2373 0.929 . S
C2385 C2379 1.390 . S
C2385 C2382 1.386 . S
C2386 C2381 1.490 . S
C2386 C2388 1.395 . S
C2386 C2389 1.403 . S
H2387 C2393 0.930 . S
C2388 H2374 0.930 . S
C2388 C2386 1.395 . S
C2388 C2391 1.403 . S
C2389 C2386 1.403 . S
C2389 C2390 1.524 . S
C2389 C2393 1.400 . S
C2390 H2375 0.960 . S
C2390 H2376 0.960 . S
C2390 H2377 0.960 . S
C2390 C2389 1.524 . S
C2391 C2388 1.403 . S
C2391 C2392 1.392 . S
C2391 C2395 1.495 . S
C2392 C2391 1.392 . S
C2392 C2393 1.385 . S
C2392 C2394 1.478 . S
C2393 H2387 0.930 . S
C2393 C2389 1.400 . S
C2393 C2392 1.385 . S
C2394 C2392 1.478 . S
C2394 C2396 1.381 . S
C2394 C2400 1.383 . S
C2395 C2391 1.495 . S
C2395 H2401 0.959 . S
C2395 H2402 0.961 . S
C2395 H2403 0.960 . S
C2396 C2394 1.381 . S
C2396 C2397 1.394 . S
C2396 H2404 0.930 . S
C2397 C2396 1.394 . S
C2397 C2398 1.383 . S
C2397 H2405 0.929 . S
C2398 C2397 1.383 . S
C2398 C2399 1.377 . S
C2399 H2383 0.930 . S
C2399 C2398 1.377 . S
C2399 C2400 1.379 . S
C2400 H2384 0.931 . S
C2400 C2394 1.383 . S
C2400 C2399 1.379 . S
H2401 C2395 0.959 . S
H2402 C2395 0.961 . S
H2403 C2395 0.960 . S
H2404 C2396 0.930 . S
H2405 C2397 0.929 . S
H2406 C2414 0.929 . S
H2407 C2416 0.930 . S
H2408 C2418 0.930 . S
H2409 C2421 0.929 . S
H2410 C2424 0.930 . S
H2411 C2426 0.960 . S
H2412 C2426 0.960 . S
H2413 C2426 0.960 . S
C2414 H2406 0.929 . S
C2414 C2415 1.377 . S
C2414 C2416 1.384 . S
C2415 C2414 1.377 . S
C2415 C2421 1.390 . S
C2416 H2407 0.930 . S
C2416 C2414 1.384 . S
C2416 C2417 1.372 . S
C2417 C2416 1.372 . S
C2417 C2418 1.400 . S
C2417 C2422 1.490 . S
C2418 H2408 0.930 . S
C2418 C2417 1.400 . S
C2418 C2421 1.386 . S
H2419 C2435 0.930 . S
H2420 C2436 0.931 . S
C2421 H2409 0.929 . S
C2421 C2415 1.390 . S
C2421 C2418 1.386 . S
C2422 C2417 1.490 . S
C2422 C2424 1.395 . S
C2422 C2425 1.403 . S
H2423 C2429 0.930 . S
C2424 H2410 0.930 . S
C2424 C2422 1.395 . S
C2424 C2427 1.403 . S
C2425 C2422 1.403 . S
C2425 C2426 1.524 . S
C2425 C2429 1.400 . S
C2426 H2411 0.960 . S
C2426 H2412 0.960 . S
C2426 H2413 0.960 . S
C2426 C2425 1.524 . S
C2427 C2424 1.403 . S
C2427 C2428 1.392 . S
C2427 C2431 1.495 . S
C2428 C2427 1.392 . S
C2428 C2429 1.385 . S
C2428 C2430 1.478 . S
C2429 H2423 0.930 . S
C2429 C2425 1.400 . S
C2429 C2428 1.385 . S
C2430 C2428 1.478 . S
C2430 C2432 1.381 . S
C2430 C2436 1.383 . S
C2431 C2427 1.495 . S
C2431 H2437 0.959 . S
C2431 H2438 0.961 . S
C2431 H2439 0.960 . S
C2432 C2430 1.381 . S
C2432 C2433 1.394 . S
C2432 H2440 0.930 . S
C2433 C2432 1.394 . S
C2433 C2434 1.383 . S
C2433 H2441 0.929 . S
C2434 C2433 1.383 . S
C2434 C2435 1.377 . S
C2435 H2419 0.930 . S
C2435 C2434 1.377 . S
C2435 C2436 1.379 . S
C2436 H2420 0.931 . S
C2436 C2430 1.383 . S
C2436 C2435 1.379 . S
H2437 C2431 0.959 . S
H2438 C2431 0.961 . S
H2439 C2431 0.960 . S
H2440 C2432 0.930 . S
H2441 C2433 0.929 . S
H2442 C2450 0.929 . S
H2443 C2452 0.930 . S
H2444 C2454 0.930 . S
H2445 C2457 0.929 . S
H2446 C2460 0.930 . S
H2447 C2462 0.960 . S
H2448 C2462 0.960 . S
H2449 C2462 0.960 . S
C2450 H2442 0.929 . S
C2450 C2451 1.377 . S
C2450 C2452 1.384 . S
C2451 C2450 1.377 . S
C2451 C2457 1.390 . S
C2452 H2443 0.930 . S
C2452 C2450 1.384 . S
C2452 C2453 1.372 . S
C2453 C2452 1.372 . S
C2453 C2454 1.400 . S
C2453 C2458 1.490 . S
C2454 H2444 0.930 . S
C2454 C2453 1.400 . S
C2454 C2457 1.386 . S
H2455 C2471 0.930 . S
H2456 C2472 0.931 . S
C2457 H2445 0.929 . S
C2457 C2451 1.390 . S
C2457 C2454 1.386 . S
C2458 C2453 1.490 . S
C2458 C2460 1.395 . S
C2458 C2461 1.403 . S
H2459 C2465 0.930 . S
C2460 H2446 0.930 . S
C2460 C2458 1.395 . S
C2460 C2463 1.403 . S
C2461 C2458 1.403 . S
C2461 C2462 1.524 . S
C2461 C2465 1.400 . S
C2462 H2447 0.960 . S
C2462 H2448 0.960 . S
C2462 H2449 0.960 . S
C2462 C2461 1.524 . S
C2463 C2460 1.403 . S
C2463 C2464 1.392 . S
C2463 C2467 1.495 . S
C2464 C2463 1.392 . S
C2464 C2465 1.385 . S
C2464 C2466 1.478 . S
C2465 H2459 0.930 . S
C2465 C2461 1.400 . S
C2465 C2464 1.385 . S
C2466 C2464 1.478 . S
C2466 C2468 1.381 . S
C2466 C2472 1.383 . S
C2467 C2463 1.495 . S
C2467 H2473 0.959 . S
C2467 H2474 0.961 . S
C2467 H2475 0.960 . S
C2468 C2466 1.381 . S
C2468 C2469 1.394 . S
C2468 H2476 0.930 . S
C2469 C2468 1.394 . S
C2469 C2470 1.383 . S
C2469 H2477 0.929 . S
C2470 C2469 1.383 . S
C2470 C2471 1.377 . S
C2471 H2455 0.930 . S
C2471 C2470 1.377 . S
C2471 C2472 1.379 . S
C2472 H2456 0.931 . S
C2472 C2466 1.383 . S
C2472 C2471 1.379 . S
H2473 C2467 0.959 . S
H2474 C2467 0.961 . S
H2475 C2467 0.960 . S
H2476 C2468 0.930 . S
H2477 C2469 0.929 . S
H2478 C2486 0.929 . S
H2479 C2488 0.930 . S
H2480 C2490 0.930 . S
H2481 C2493 0.929 . S
H2482 C2496 0.930 . S
H2483 C2498 0.960 . S
H2484 C2498 0.960 . S
H2485 C2498 0.960 . S
C2486 H2478 0.929 . S
C2486 C2487 1.377 . S
C2486 C2488 1.384 . S
C2487 C2486 1.377 . S
C2487 C2493 1.390 . S
C2488 H2479 0.930 . S
C2488 C2486 1.384 . S
C2488 C2489 1.372 . S
C2489 C2488 1.372 . S
C2489 C2490 1.400 . S
C2489 C2494 1.490 . S
C2490 H2480 0.930 . S
C2490 C2489 1.400 . S
C2490 C2493 1.386 . S
H2491 C2507 0.930 . S
H2492 C2508 0.931 . S
C2493 H2481 0.929 . S
C2493 C2487 1.390 . S
C2493 C2490 1.386 . S
C2494 C2489 1.490 . S
C2494 C2496 1.395 . S
C2494 C2497 1.403 . S
H2495 C2501 0.930 . S
C2496 H2482 0.930 . S
C2496 C2494 1.395 . S
C2496 C2499 1.403 . S
C2497 C2494 1.403 . S
C2497 C2498 1.524 . S
C2497 C2501 1.400 . S
C2498 H2483 0.960 . S
C2498 H2484 0.960 . S
C2498 H2485 0.960 . S
C2498 C2497 1.524 . S
C2499 C2496 1.403 . S
C2499 C2500 1.392 . S
C2499 C2503 1.495 . S
C2500 C2499 1.392 . S
C2500 C2501 1.385 . S
C2500 C2502 1.478 . S
C2501 H2495 0.930 . S
C2501 C2497 1.400 . S
C2501 C2500 1.385 . S
C2502 C2500 1.478 . S
C2502 C2504 1.381 . S
C2502 C2508 1.383 . S
C2503 C2499 1.495 . S
C2503 H2509 0.959 . S
C2503 H2510 0.961 . S
C2503 H2511 0.960 . S
C2504 C2502 1.381 . S
C2504 C2505 1.394 . S
C2504 H2512 0.930 . S
C2505 C2504 1.394 . S
C2505 C2506 1.383 . S
C2505 H2513 0.929 . S
C2506 C2505 1.383 . S
C2506 C2507 1.377 . S
C2507 H2491 0.930 . S
C2507 C2506 1.377 . S
C2507 C2508 1.379 . S
C2508 H2492 0.931 . S
C2508 C2502 1.383 . S
C2508 C2507 1.379 . S
H2509 C2503 0.959 . S
H2510 C2503 0.961 . S
H2511 C2503 0.960 . S
H2512 C2504 0.930 . S
H2513 C2505 0.929 . S
H2514 C2522 0.929 . S
H2515 C2524 0.930 . S
H2516 C2526 0.930 . S
H2517 C2529 0.929 . S
H2518 C2532 0.930 . S
H2519 C2534 0.960 . S
H2520 C2534 0.960 . S
H2521 C2534 0.960 . S
C2522 H2514 0.929 . S
C2522 C2523 1.377 . S
C2522 C2524 1.384 . S
C2523 C2522 1.377 . S
C2523 C2529 1.390 . S
C2524 H2515 0.930 . S
C2524 C2522 1.384 . S
C2524 C2525 1.372 . S
C2525 C2524 1.372 . S
C2525 C2526 1.400 . S
C2525 C2530 1.490 . S
C2526 H2516 0.930 . S
C2526 C2525 1.400 . S
C2526 C2529 1.386 . S
H2527 C2543 0.930 . S
H2528 C2544 0.931 . S
C2529 H2517 0.929 . S
C2529 C2523 1.390 . S
C2529 C2526 1.386 . S
C2530 C2525 1.490 . S
C2530 C2532 1.395 . S
C2530 C2533 1.403 . S
H2531 C2537 0.930 . S
C2532 H2518 0.930 . S
C2532 C2530 1.395 . S
C2532 C2535 1.403 . S
C2533 C2530 1.403 . S
C2533 C2534 1.524 . S
C2533 C2537 1.400 . S
C2534 H2519 0.960 . S
C2534 H2520 0.960 . S
C2534 H2521 0.960 . S
C2534 C2533 1.524 . S
C2535 C2532 1.403 . S
C2535 C2536 1.392 . S
C2535 C2539 1.495 . S
C2536 C2535 1.392 . S
C2536 C2537 1.385 . S
C2536 C2538 1.478 . S
C2537 H2531 0.930 . S
C2537 C2533 1.400 . S
C2537 C2536 1.385 . S
C2538 C2536 1.478 . S
C2538 C2540 1.381 . S
C2538 C2544 1.383 . S
C2539 C2535 1.495 . S
C2539 H2545 0.959 . S
C2539 H2546 0.961 . S
C2539 H2547 0.960 . S
C2540 C2538 1.381 . S
C2540 C2541 1.394 . S
C2540 H2548 0.930 . S
C2541 C2540 1.394 . S
C2541 C2542 1.383 . S
C2541 H2549 0.929 . S
C2542 C2541 1.383 . S
C2542 C2543 1.377 . S
C2543 H2527 0.930 . S
C2543 C2542 1.377 . S
C2543 C2544 1.379 . S
C2544 H2528 0.931 . S
C2544 C2538 1.383 . S
C2544 C2543 1.379 . S
H2545 C2539 0.959 . S
H2546 C2539 0.961 . S
H2547 C2539 0.960 . S
H2548 C2540 0.930 . S
H2549 C2541 0.929 . S
H2550 C2558 0.929 . S
H2551 C2560 0.930 . S
H2552 C2562 0.930 . S
H2553 C2565 0.929 . S
H2554 C2568 0.930 . S
H2555 C2570 0.960 . S
H2556 C2570 0.960 . S
H2557 C2570 0.960 . S
C2558 H2550 0.929 . S
C2558 C2559 1.377 . S
C2558 C2560 1.384 . S
C2559 C2558 1.377 . S
C2559 C2565 1.390 . S
C2560 H2551 0.930 . S
C2560 C2558 1.384 . S
C2560 C2561 1.372 . S
C2561 C2560 1.372 . S
C2561 C2562 1.400 . S
C2561 C2566 1.490 . S
C2562 H2552 0.930 . S
C2562 C2561 1.400 . S
C2562 C2565 1.386 . S
H2563 C2579 0.930 . S
H2564 C2580 0.931 . S
C2565 H2553 0.929 . S
C2565 C2559 1.390 . S
C2565 C2562 1.386 . S
C2566 C2561 1.490 . S
C2566 C2568 1.395 . S
C2566 C2569 1.403 . S
H2567 C2573 0.930 . S
C2568 H2554 0.930 . S
C2568 C2566 1.395 . S
C2568 C2571 1.403 . S
C2569 C2566 1.403 . S
C2569 C2570 1.524 . S
C2569 C2573 1.400 . S
C2570 H2555 0.960 . S
C2570 H2556 0.960 . S
C2570 H2557 0.960 . S
C2570 C2569 1.524 . S
C2571 C2568 1.403 . S
C2571 C2572 1.392 . S
C2571 C2575 1.495 . S
C2572 C2571 1.392 . S
C2572 C2573 1.385 . S
C2572 C2574 1.478 . S
C2573 H2567 0.930 . S
C2573 C2569 1.400 . S
C2573 C2572 1.385 . S
C2574 C2572 1.478 . S
C2574 C2576 1.381 . S
C2574 C2580 1.383 . S
C2575 C2571 1.495 . S
C2575 H2581 0.959 . S
C2575 H2582 0.961 . S
C2575 H2583 0.960 . S
C2576 C2574 1.381 . S
C2576 C2577 1.394 . S
C2576 H2584 0.930 . S
C2577 C2576 1.394 . S
C2577 C2578 1.383 . S
C2577 H2585 0.929 . S
C2578 C2577 1.383 . S
C2578 C2579 1.377 . S
C2579 H2563 0.930 . S
C2579 C2578 1.377 . S
C2579 C2580 1.379 . S
C2580 H2564 0.931 . S
C2580 C2574 1.383 . S
C2580 C2579 1.379 . S
H2581 C2575 0.959 . S
H2582 C2575 0.961 . S
H2583 C2575 0.960 . S
H2584 C2576 0.930 . S
H2585 C2577 0.929 . S
C886 C683 1.554 . S
C867 C74 1.577 . S
C922 C673 1.466 . S
C903 C153 1.412 . S
C958 C674 1.102 . S
C939 C231 1.090 . S
C975 C310 0.731 . S
C994 C696 0.530 . S
C1011 C394 1.405 . S
C1030 C699 1.483 . S
C1066 C682 1.111 . S
C1047 C494 1.084 . S
C1083 C573 0.706 . S
C1102 C672 0.527 . S
C1119 C651 1.569 . S
C1138 C690 1.551 . S
C1174 C703 2.470 . S
C1155 C56 2.568 . S
C1191 C151 1.535 . S
C1210 C752 1.477 . S
C1246 C730 1.481 . S
C1227 C237 1.442 . S
C1282 C744 1.061 . S
C1263 C326 1.072 . S
C1299 C410 1.066 . S
C1318 C705 1.049 . S
C1354 C758 2.492 . S
C1335 C476 2.571 . S
C1371 C571 1.537 . S
C1390 C714 1.469 . S
C1407 C657 1.408 . S
C1426 C735 1.471 . S
C1443 C58 1.407 . S
C1462 C761 1.506 . S
C1479 C392 1.535 . S
C1498 C745 1.491 . S
C1534 C704 1.525 . S
C1515 C478 1.442 . S
C1570 C736 1.084 . S
C1551 C567 1.065 . S
C1587 C655 2.569 . S
C1606 C727 2.496 . S
C1623 C235 2.571 . S
C1642 C734 2.472 . S
C1678 C721 1.472 . S
C1659 C308 1.538 . S
C1695 C147 1.075 . S
C1714 C713 1.054 . S
C1731 C662 1.576 . S
C1750 C776 1.550 . S
C1767 C405 1.415 . S
C1786 C766 1.471 . S
C1822 C767 1.108 . S
C1803 C483 1.089 . S
C1858 C789 0.402 . S
C1839 C562 0.706 . S
C1875 C142 1.402 . S
C1894 C792 1.470 . S
C1930 C775 1.077 . S
C1911 C242 1.091 . S
C1947 C321 0.722 . S
C1966 C765 0.578 . S
C1983 C63 1.578 . S
C2002 C783 1.594 . S
C2019 C644 2.569 . S
C2038 C796 2.483 . S
C2074 C845 1.496 . S
C2055 C403 1.538 . S
C2091 C489 1.453 . S
C2110 C823 1.527 . S
C2127 C578 1.065 . S
C2146 C837 1.035 . S
C2182 C798 1.047 . S
C2163 C158 1.075 . S
C2199 C224 2.571 . S
C2218 C851 2.474 . S
C2254 C807 1.495 . S
C2235 C319 1.535 . S
C2290 C828 1.488 . S
C2271 C69 1.413 . S
C2326 C854 1.500 . S
C2307 C646 1.421 . S
C2343 C140 1.536 . S
C2362 C838 1.493 . S
C2379 C226 1.441 . S
C2398 C797 1.527 . S
C2434 C829 1.073 . S
C2415 C315 1.067 . S
C2451 C67 2.568 . S
C2470 C820 2.485 . S
C2487 C487 2.571 . S
C2506 C827 2.474 . S
C2542 C814 1.514 . S
C2523 C560 1.535 . S
C2578 C806 1.089 . S
C2559 C399 1.075 . S
