# Generated by pormake.
# Topology eea, (3,6)-cn, num edge types: 1
# Building blocks:
#     Node 0, Type 0, BuildingBlock: WUSLED_clean_sbu_0, # of connection points: 3
#     Node 1, Type 0, BuildingBlock: WUSLED_clean_sbu_0, # of connection points: 3
#     Node 2, Type 0, BuildingBlock: WUSLED_clean_sbu_0, # of connection points: 3
#     Node 3, Type 0, BuildingBlock: WUSLED_clean_sbu_0, # of connection points: 3
#     Node 4, Type 0, BuildingBlock: WUSLED_clean_sbu_0, # of connection points: 3
#     Node 5, Type 0, BuildingBlock: WUSLED_clean_sbu_0, # of connection points: 3
#     Node 6, Type 0, BuildingBlock: WUSLED_clean_sbu_0, # of connection points: 3
#     Node 7, Type 0, BuildingBlock: WUSLED_clean_sbu_0, # of connection points: 3
#     Node 8, Type 0, BuildingBlock: WUSLED_clean_sbu_0, # of connection points: 3
#     Node 9, Type 0, BuildingBlock: WUSLED_clean_sbu_0, # of connection points: 3
#     Node 10, Type 0, BuildingBlock: WUSLED_clean_sbu_0, # of connection points: 3
#     Node 11, Type 0, BuildingBlock: WUSLED_clean_sbu_0, # of connection points: 3
#     Node 12, Type 0, BuildingBlock: WUSLED_clean_sbu_0, # of connection points: 3
#     Node 13, Type 0, BuildingBlock: WUSLED_clean_sbu_0, # of connection points: 3
#     Node 14, Type 0, BuildingBlock: WUSLED_clean_sbu_0, # of connection points: 3
#     Node 15, Type 0, BuildingBlock: WUSLED_clean_sbu_0, # of connection points: 3
#     Node 16, Type 0, BuildingBlock: WUSLED_clean_sbu_0, # of connection points: 3
#     Node 17, Type 0, BuildingBlock: WUSLED_clean_sbu_0, # of connection points: 3
#     Node 18, Type 1, BuildingBlock: HISSIN_clean_sbu_0, # of connection points: 6
#     Node 19, Type 1, BuildingBlock: HISSIN_clean_sbu_0, # of connection points: 6
#     Node 20, Type 1, BuildingBlock: HISSIN_clean_sbu_0, # of connection points: 6
#     Node 21, Type 1, BuildingBlock: HISSIN_clean_sbu_0, # of connection points: 6
#     Node 22, Type 1, BuildingBlock: HISSIN_clean_sbu_0, # of connection points: 6
#     Node 23, Type 1, BuildingBlock: HISSIN_clean_sbu_0, # of connection points: 6
#     Node 24, Type 1, BuildingBlock: HISSIN_clean_sbu_0, # of connection points: 6
#     Node 25, Type 1, BuildingBlock: HISSIN_clean_sbu_0, # of connection points: 6
#     Node 26, Type 1, BuildingBlock: HISSIN_clean_sbu_0, # of connection points: 6
#     Edge 27, Type (0, 1), BuildingBlock: OJICUG_clean_linker_0, # of connection points: 2
#     Edge 28, Type (0, 1), BuildingBlock: OJICUG_clean_linker_0, # of connection points: 2
#     Edge 29, Type (0, 1), BuildingBlock: OJICUG_clean_linker_0, # of connection points: 2
#     Edge 30, Type (0, 1), BuildingBlock: OJICUG_clean_linker_0, # of connection points: 2
#     Edge 31, Type (0, 1), BuildingBlock: OJICUG_clean_linker_0, # of connection points: 2
#     Edge 32, Type (0, 1), BuildingBlock: OJICUG_clean_linker_0, # of connection points: 2
#     Edge 33, Type (0, 1), BuildingBlock: OJICUG_clean_linker_0, # of connection points: 2
#     Edge 34, Type (0, 1), BuildingBlock: OJICUG_clean_linker_0, # of connection points: 2
#     Edge 35, Type (0, 1), BuildingBlock: OJICUG_clean_linker_0, # of connection points: 2
#     Edge 36, Type (0, 1), BuildingBlock: OJICUG_clean_linker_0, # of connection points: 2
#     Edge 37, Type (0, 1), BuildingBlock: OJICUG_clean_linker_0, # of connection points: 2
#     Edge 38, Type (0, 1), BuildingBlock: OJICUG_clean_linker_0, # of connection points: 2
#     Edge 39, Type (0, 1), BuildingBlock: OJICUG_clean_linker_0, # of connection points: 2
#     Edge 40, Type (0, 1), BuildingBlock: OJICUG_clean_linker_0, # of connection points: 2
#     Edge 41, Type (0, 1), BuildingBlock: OJICUG_clean_linker_0, # of connection points: 2
#     Edge 42, Type (0, 1), BuildingBlock: OJICUG_clean_linker_0, # of connection points: 2
#     Edge 43, Type (0, 1), BuildingBlock: OJICUG_clean_linker_0, # of connection points: 2
#     Edge 44, Type (0, 1), BuildingBlock: OJICUG_clean_linker_0, # of connection points: 2
#     Edge 45, Type (0, 1), BuildingBlock: OJICUG_clean_linker_0, # of connection points: 2
#     Edge 46, Type (0, 1), BuildingBlock: OJICUG_clean_linker_0, # of connection points: 2
#     Edge 47, Type (0, 1), BuildingBlock: OJICUG_clean_linker_0, # of connection points: 2
#     Edge 48, Type (0, 1), BuildingBlock: OJICUG_clean_linker_0, # of connection points: 2
#     Edge 49, Type (0, 1), BuildingBlock: OJICUG_clean_linker_0, # of connection points: 2
#     Edge 50, Type (0, 1), BuildingBlock: OJICUG_clean_linker_0, # of connection points: 2
#     Edge 51, Type (0, 1), BuildingBlock: OJICUG_clean_linker_0, # of connection points: 2
#     Edge 52, Type (0, 1), BuildingBlock: OJICUG_clean_linker_0, # of connection points: 2
#     Edge 53, Type (0, 1), BuildingBlock: OJICUG_clean_linker_0, # of connection points: 2
#     Edge 54, Type (0, 1), BuildingBlock: OJICUG_clean_linker_0, # of connection points: 2
#     Edge 55, Type (0, 1), BuildingBlock: OJICUG_clean_linker_0, # of connection points: 2
#     Edge 56, Type (0, 1), BuildingBlock: OJICUG_clean_linker_0, # of connection points: 2
#     Edge 57, Type (0, 1), BuildingBlock: OJICUG_clean_linker_0, # of connection points: 2
#     Edge 58, Type (0, 1), BuildingBlock: OJICUG_clean_linker_0, # of connection points: 2
#     Edge 59, Type (0, 1), BuildingBlock: OJICUG_clean_linker_0, # of connection points: 2
#     Edge 60, Type (0, 1), BuildingBlock: OJICUG_clean_linker_0, # of connection points: 2
#     Edge 61, Type (0, 1), BuildingBlock: OJICUG_clean_linker_0, # of connection points: 2
#     Edge 62, Type (0, 1), BuildingBlock: OJICUG_clean_linker_0, # of connection points: 2
#     Edge 63, Type (0, 1), BuildingBlock: OJICUG_clean_linker_0, # of connection points: 2
#     Edge 64, Type (0, 1), BuildingBlock: OJICUG_clean_linker_0, # of connection points: 2
#     Edge 65, Type (0, 1), BuildingBlock: OJICUG_clean_linker_0, # of connection points: 2
#     Edge 66, Type (0, 1), BuildingBlock: OJICUG_clean_linker_0, # of connection points: 2
#     Edge 67, Type (0, 1), BuildingBlock: OJICUG_clean_linker_0, # of connection points: 2
#     Edge 68, Type (0, 1), BuildingBlock: OJICUG_clean_linker_0, # of connection points: 2
#     Edge 69, Type (0, 1), BuildingBlock: OJICUG_clean_linker_0, # of connection points: 2
#     Edge 70, Type (0, 1), BuildingBlock: OJICUG_clean_linker_0, # of connection points: 2
#     Edge 71, Type (0, 1), BuildingBlock: OJICUG_clean_linker_0, # of connection points: 2
#     Edge 72, Type (0, 1), BuildingBlock: OJICUG_clean_linker_0, # of connection points: 2
#     Edge 73, Type (0, 1), BuildingBlock: OJICUG_clean_linker_0, # of connection points: 2
#     Edge 74, Type (0, 1), BuildingBlock: OJICUG_clean_linker_0, # of connection points: 2
#     Edge 75, Type (0, 1), BuildingBlock: OJICUG_clean_linker_0, # of connection points: 2
#     Edge 76, Type (0, 1), BuildingBlock: OJICUG_clean_linker_0, # of connection points: 2
#     Edge 77, Type (0, 1), BuildingBlock: OJICUG_clean_linker_0, # of connection points: 2
#     Edge 78, Type (0, 1), BuildingBlock: OJICUG_clean_linker_0, # of connection points: 2
#     Edge 79, Type (0, 1), BuildingBlock: OJICUG_clean_linker_0, # of connection points: 2
#     Edge 80, Type (0, 1), BuildingBlock: OJICUG_clean_linker_0, # of connection points: 2
# Relax obj value: 0.035
# Max RMSD: 0.127
# Mean RMSD: 0.085
data_MOF--net-eea--node1-WUSLED_clean_sbu_0--node2-HISSIN_clean_sbu_0--edge1-OJICUG_clean_linker_0
_symmetry_space_group_name_H-M    P1
_symmetry_Int_Tables_number       1
_symmetry_cell_setting            triclinic
loop_
_symmetry_equiv_pos_as_xyz
'x, y, z'
_cell_length_a     52.434741
_cell_length_b     53.121856
_cell_length_c     76.38491
_cell_angle_alpha  92.911578
_cell_angle_beta   92.620654
_cell_angle_gamma 120.0143
loop_
_atom_site_label
_atom_site_type_symbol
_atom_site_fract_x
_atom_site_fract_y
_atom_site_fract_z
_atom_type_partial_charge
C0 C 0.23394 0.16837 0.40071 0.0
C1 C 0.23492 0.18972 0.41277 0.0
C2 C 0.22436 0.21266 0.38883 0.0
C3 C 0.2301 0.21162 0.40689 0.0
C4 C 0.22373 0.19132 0.37681 0.0
C5 C 0.22845 0.16937 0.38272 0.0
U6 U 0.2595 0.13645 0.43629 0.0
O7 O 0.23957 0.09165 0.44411 0.0
O8 O 0.28385 0.11273 0.43451 0.0
C9 C 0.2618 0.08864 0.43948 0.0
C10 C 0.23858 0.14503 0.40674 0.0
C11 C 0.25365 0.06174 0.42858 0.0
C12 C 0.22955 0.02888 0.4022 0.0
C13 C 0.23823 0.05536 0.41195 0.0
C14 C 0.25213 0.01535 0.4255 0.0
C15 C 0.2361 1.00842 0.40898 0.0
C16 C 0.26077 0.04174 0.4352 0.0
C17 C 0.29061 0.17741 0.48124 0.0
C18 C 0.30612 0.15646 0.50403 0.0
C19 C 0.31054 0.2038 0.50999 0.0
C20 C 0.29874 0.20195 0.49286 0.0
C21 C 0.31439 0.18108 0.51578 0.0
C22 C 0.29435 0.15466 0.48691 0.0
C23 C 0.2782 0.17564 0.46329 0.0
O24 O 0.26634 0.1521 0.40982 0.0
O25 O 0.22177 0.13018 0.41898 0.0
O26 O 0.25036 0.1553 0.45982 0.0
O27 O 0.29496 0.17666 0.45075 0.0
H28 H 0.23921 0.1893 0.42674 0.0
H29 H 0.23038 0.22744 0.41654 0.0
H30 H 0.21984 0.1917 0.36281 0.0
H31 H 0.22781 0.15315 0.37323 0.0
H32 H 0.21708 0.02412 0.38958 0.0
H33 H 0.23256 0.07064 0.40667 0.0
H34 H 0.25799 1.00032 0.43096 0.0
H35 H 0.27279 0.04642 0.44798 0.0
H36 H 0.3091 0.13875 0.50799 0.0
H37 H 0.31629 0.22286 0.51876 0.0
H38 H 0.29589 0.21965 0.4887 0.0
H39 H 0.28821 0.13555 0.47805 0.0
C40 C 0.96656 0.17588 0.40535 0.0
C41 C 0.98502 0.20222 0.41555 0.0
C42 C 1.01924 0.21908 0.39242 0.0
C43 C 1.01112 0.22364 0.40913 0.0
C44 C 1.00036 0.19269 0.38224 0.0
C45 C 0.97433 0.17136 0.38866 0.0
U46 U 0.90957 0.14128 0.44 0.0
O47 O 0.86107 0.11454 0.43554 0.0
O48 O 0.8865 0.09572 0.44669 0.0
C49 C 0.86053 0.09092 0.44041 0.0
C50 C 0.93939 0.15256 0.41184 0.0
C51 C 0.84205 0.06387 0.4288 0.0
C52 C 0.83513 0.02091 0.41132 0.0
C53 C 0.85376 0.04761 0.42111 0.0
C54 C 0.79305 0.02675 0.4163 0.0
C55 C 0.80446 0.00994 0.40899 0.0
C56 C 0.81162 0.05331 0.42613 0.0
C57 C 0.91611 0.17961 0.48519 0.0
C58 C 0.89516 0.15665 0.51181 0.0
C59 C 0.90639 0.20613 0.5084 0.0
C60 C 0.91658 0.20493 0.49191 0.0
C61 C 0.89568 0.18206 0.5186 0.0
C62 C 0.90511 0.15537 0.49525 0.0
C63 C 0.9272 0.17899 0.46777 0.0
O64 O 0.94313 0.13903 0.42478 0.0
O65 O 0.91799 0.15828 0.41389 0.0
O66 O 0.91109 0.1793 0.45418 0.0
O67 O 0.9369 0.1607 0.46502 0.0
H68 H 0.97933 0.20613 0.42846 0.0
H69 H 0.0249 0.24382 0.41725 0.0
H70 H 1.00602 0.18817 0.36946 0.0
H71 H 0.96038 0.1511 0.38062 0.0
H72 H 0.84468 1.00848 0.40601 0.0
H73 H 0.87718 0.05521 0.42293 0.0
H74 H 0.76967 0.01933 0.41451 0.0
H75 H 0.80207 0.06545 0.4319 0.0
H76 H 0.88671 0.1376 0.51922 0.0
H77 H 0.90736 0.22612 0.51329 0.0
H78 H 0.92496 0.22388 0.48441 0.0
H79 H 0.9042 0.13543 0.49034 0.0
C80 C 0.86702 0.80309 0.409 0.0
C81 C 0.84162 0.79257 0.41828 0.0
C82 C 0.81902 0.8093 0.39657 0.0
C83 C 0.81781 0.79567 0.41212 0.0
C84 C 0.84474 0.82001 0.3875 0.0
C85 C 0.86844 0.8169 0.39365 0.0
U86 U 0.9097 0.78233 0.44217 0.0
O87 O 0.93451 0.75982 0.43692 0.0
O88 O 0.95771 0.8047 0.44921 0.0
C89 C 0.96013 0.78288 0.44232 0.0
C90 C 0.89222 0.79978 0.41489 0.0
C91 C 0.98394 0.79056 0.43049 0.0
C92 C 1.00406 0.80349 0.40204 0.0
C93 C 0.98146 0.79745 0.4132 0.0
C94 C 0.0319 0.79632 0.42547 0.0
C95 C 0.02939 0.80257 0.40799 0.0
C96 C 1.00942 0.79036 0.43656 0.0
C97 C 0.87717 0.75279 0.48638 0.0
C98 C 0.86196 0.71156 0.50429 0.0
C99 C 0.88419 0.76047 0.51843 0.0
C100 C 0.88698 0.77156 0.50192 0.0
C101 C 0.87129 0.73027 0.51986 0.0
C102 C 0.86477 0.72264 0.48779 0.0
C103 C 0.87707 0.76429 0.46901 0.0
O104 O 0.90941 0.81758 0.42834 0.0
O105 O 0.88657 0.77285 0.41582 0.0
O106 O 0.87342 0.74722 0.45489 0.0
O107 O 0.89658 0.79185 0.46754 0.0
H108 H 0.84017 0.78183 0.43019 0.0
H109 H 0.79828 0.78698 0.41937 0.0
H110 H 0.84672 0.8311 0.37569 0.0
H111 H 0.88793 0.82528 0.38637 0.0
H112 H 1.00138 0.80812 0.38866 0.0
H113 H 0.96192 0.79776 0.40829 0.0
H114 H 0.05132 0.796 0.43062 0.0
H115 H 1.01184 0.78529 0.44988 0.0
H116 H 0.85152 0.68816 0.50483 0.0
H117 H 0.89197 0.77562 0.53009 0.0
H118 H 0.89628 0.79484 0.50138 0.0
H119 H 0.85647 0.70743 0.47615 0.0
C120 C 0.06866 0.22039 0.63608 0.0
C121 C 0.0603 0.24172 0.63567 0.0
C122 C 1.01486 0.21006 0.64926 0.0
C123 C 0.03369 0.23661 0.6422 0.0
C124 C 0.02308 0.18857 0.64923 0.0
C125 C 0.04968 0.19373 0.64277 0.0
U126 U 0.13184 0.24605 0.60472 0.0
O127 O 0.1799 0.26995 0.61172 0.0
O128 O 0.15845 0.22594 0.5982 0.0
C129 C 0.183 0.24801 0.60588 0.0
C130 C 0.09767 0.22584 0.63071 0.0
C131 C 0.20088 0.24046 0.61754 0.0
C132 C 0.20711 0.21702 0.64269 0.0
C133 C 0.1899 0.22518 0.63246 0.0
C134 C 0.24647 0.23988 0.62336 0.0
C135 C 0.23542 0.22385 0.63804 0.0
C136 C 0.22937 0.24804 0.61324 0.0
C137 C 0.12727 0.27633 0.56068 0.0
C138 C 0.16066 0.2848 0.53765 0.0
C139 C 0.12576 0.30196 0.5355 0.0
C140 C 0.11524 0.29064 0.55148 0.0
C141 C 0.1486 0.29919 0.52834 0.0
C142 C 0.15015 0.27355 0.5537 0.0
C143 C 0.11531 0.2642 0.57736 0.0
O144 O 0.09711 0.20904 0.61727 0.0
O145 O 0.1187 0.25323 0.63059 0.0
O146 O 0.12937 0.28106 0.59181 0.0
O147 O 0.10781 0.23681 0.57867 0.0
H148 H 0.07452 0.26253 0.63061 0.0
H149 H 0.02828 0.25378 0.64213 0.0
H150 H 1.00896 0.16766 0.65422 0.0
H151 H 0.05564 0.17695 0.64323 0.0
H152 H 0.19795 0.20461 0.65387 0.0
H153 H 0.1679 0.21918 0.63599 0.0
H154 H 0.26836 0.24595 0.61959 0.0
H155 H 0.23829 0.25997 0.60184 0.0
H156 H 0.17846 0.28254 0.53264 0.0
H157 H 0.11563 0.31249 0.52862 0.0
H158 H 0.09751 0.29292 0.55661 0.0
H159 H 0.15982 0.26265 0.56064 0.0
C160 C 0.79557 0.84847 0.64624 0.0
C161 C 0.78694 0.82277 0.6356 0.0
C162 C 0.80755 0.8058 0.65832 0.0
C163 C 0.79284 0.8016 0.64159 0.0
C164 C 0.81586 0.83154 0.66897 0.0
C165 C 0.80992 0.85268 0.66296 0.0
U166 U 0.76947 0.87992 0.61032 0.0
O167 O 0.74457 0.90309 0.61229 0.0
O168 O 0.78906 0.92495 0.60299 0.0
C169 C 0.76659 0.92752 0.60765 0.0
C170 C 0.79022 0.87125 0.63995 0.0
C171 C 0.77434 0.95404 0.61886 0.0
C172 C 0.79929 0.98701 0.64513 0.0
C173 C 0.79054 0.9606 0.63525 0.0
C174 C 0.77505 0.99999 0.62251 0.0
C175 C 0.79206 1.00722 0.6387 0.0
C176 C 0.76633 0.97368 0.61269 0.0
C177 C 0.74014 0.84005 0.56476 0.0
C178 C 0.72655 0.86165 0.54143 0.0
C179 C 0.72044 0.81353 0.536 0.0
C180 C 0.73151 0.81521 0.55331 0.0
C181 C 0.71783 0.83674 0.52983 0.0
C182 C 0.73757 0.86327 0.55874 0.0
C183 C 0.75199 0.84163 0.58288 0.0
O184 O 0.80712 0.88631 0.62781 0.0
O185 O 0.76233 0.86352 0.63657 0.0
O186 O 0.73468 0.83996 0.59522 0.0
O187 O 0.77966 0.86218 0.58674 0.0
H188 H 0.77578 0.81916 0.62264 0.0
H189 H 0.78576 0.78187 0.63314 0.0
H190 H 0.82754 0.83567 0.6818 0.0
H191 H 0.81681 0.87248 0.67132 0.0
H192 H 0.8125 0.99201 0.65749 0.0
H193 H 0.79689 0.94559 0.6402 0.0
H194 H 0.76868 0.01484 0.61733 0.0
H195 H 0.75371 0.96887 0.60011 0.0
H196 H 0.72452 0.87977 0.53719 0.0
H197 H 0.71433 0.79421 0.52738 0.0
H198 H 0.73345 0.79713 0.55772 0.0
H199 H 0.74409 0.88262 0.56745 0.0
C200 C 0.06768 0.84513 0.64009 0.0
C201 C 0.04318 0.82531 0.62867 0.0
C202 C 1.01513 0.80285 0.65374 0.0
C203 C 1.01715 0.80439 0.63543 0.0
C204 C 0.03996 0.8226 0.66505 0.0
C205 C 0.06588 0.84347 0.65829 0.0
U206 U 0.12452 0.87942 0.60522 0.0
O207 O 0.14915 0.92517 0.599 0.0
O208 O 0.17316 0.90447 0.60946 0.0
C209 C 0.17479 0.92873 0.60492 0.0
C210 C 0.09507 0.8682 0.63354 0.0
C211 C 0.19439 0.95544 0.61659 0.0
C212 C 0.20333 0.99847 0.63487 0.0
C213 C 0.18376 0.97206 0.62506 0.0
C214 C 0.24431 0.99167 0.62829 0.0
C215 C 0.23394 1.0088 0.63645 0.0
C216 C 0.22478 0.96538 0.61845 0.0
C217 C 0.11535 0.84107 0.55969 0.0
C218 C 0.15272 0.8618 0.53872 0.0
C219 C 0.10727 0.81625 0.53059 0.0
C220 C 0.09758 0.81766 0.54721 0.0
C221 C 0.135 0.83827 0.52611 0.0
C222 C 0.14297 0.8632 0.55534 0.0
C223 C 0.10486 0.84201 0.57718 0.0
O224 O 0.11596 0.86185 0.63121 0.0
O225 O 0.09187 0.88255 0.6209 0.0
O226 O 0.09692 0.86161 0.58014 0.0
O227 O 0.12084 0.84085 0.59054 0.0
H228 H 0.04407 0.8262 0.61456 0.0
H229 H 0.99843 0.78979 0.6263 0.0
H230 H 0.03949 0.82182 0.67918 0.0
H231 H 0.08458 0.8585 0.66733 0.0
H232 H 0.19453 0.01116 0.6408 0.0
H233 H 0.16042 0.96498 0.62386 0.0
H234 H 0.26761 0.99859 0.62946 0.0
H235 H 0.23351 0.95296 0.61204 0.0
H236 H 0.17401 0.87933 0.53569 0.0
H237 H 0.09319 0.79762 0.52136 0.0
H238 H 0.07622 0.80034 0.55034 0.0
H239 H 0.15697 0.88153 0.5648 0.0
C240 C 0.89701 0.50309 0.73451 0.0
C241 C 0.91766 0.53265 0.73918 0.0
C242 C 0.88665 0.54712 0.72287 0.0
C243 C 0.9126 0.55443 0.73334 0.0
C244 C 0.86593 0.51742 0.71837 0.0
C245 C 0.87113 0.49567 0.72409 0.0
U246 U 0.92403 0.47073 0.76932 0.0
O247 O 0.90504 0.42569 0.77658 0.0
O248 O 0.94916 0.44786 0.76674 0.0
C249 C 0.92731 0.42326 0.77131 0.0
C250 C 0.902 0.47975 0.74037 0.0
C251 C 0.91983 0.39684 0.7599 0.0
C252 C 0.88517 0.35433 0.74043 0.0
C253 C 0.89217 0.38021 0.75031 0.0
C254 C 0.93365 0.36185 0.74912 0.0
C255 C 0.90572 0.34466 0.73987 0.0
C256 C 0.94055 0.38759 0.75907 0.0
C257 C 0.95614 0.51127 0.8144 0.0
C258 C 0.97204 0.49031 0.83699 0.0
C259 C 0.97691 0.53782 0.84303 0.0
C260 C 0.96472 0.53592 0.82601 0.0
C261 C 0.98071 0.51503 0.84874 0.0
C262 C 0.95988 0.48846 0.81996 0.0
C263 C 0.9431 0.50941 0.79661 0.0
O264 O 0.92974 0.48646 0.74294 0.0
O265 O 0.88559 0.46476 0.75271 0.0
O266 O 0.91532 0.48876 0.79336 0.0
O267 O 0.95956 0.51092 0.78379 0.0
H268 H 0.93777 0.53896 0.74729 0.0
H269 H 0.92925 0.57701 0.73689 0.0
H270 H 0.84546 0.5109 0.7106 0.0
H271 H 0.85483 0.47298 0.72044 0.0
H272 H 0.86335 0.34153 0.73363 0.0
H273 H 0.87578 0.38691 0.75067 0.0
H274 H 0.95022 0.3554 0.74873 0.0
H275 H 0.96206 0.40015 0.7663 0.0
H276 H 0.97496 0.47254 0.84089 0.0
H277 H 0.98295 0.55696 0.8518 0.0
H278 H 0.96186 0.55366 0.82193 0.0
H279 H 0.95338 0.46926 0.81111 0.0
C280 C 0.62981 0.51091 0.7386 0.0
C281 C 0.64852 0.53696 0.749 0.0
C282 C 0.68296 0.55395 0.72599 0.0
C283 C 0.67485 0.55829 0.74275 0.0
C284 C 0.66388 0.52783 0.71562 0.0
C285 C 0.63762 0.50658 0.72187 0.0
U286 U 0.57266 0.47676 0.77313 0.0
O287 O 0.52409 0.45122 0.76878 0.0
O288 O 0.54849 0.43111 0.77954 0.0
C289 C 0.5227 0.42727 0.77376 0.0
C290 C 0.60226 0.4878 0.74488 0.0
C291 C 0.5036 0.40035 0.76237 0.0
C292 C 0.49489 0.36665 0.73698 0.0
C293 C 0.51311 0.39333 0.74695 0.0
C294 C 0.45742 0.35422 0.7576 0.0
C295 C 0.46698 0.34659 0.74236 0.0
C296 C 0.47555 0.3808 0.76749 0.0
C297 C 0.58096 0.51422 0.81868 0.0
C298 C 0.54198 0.49403 0.83871 0.0
C299 C 0.58966 0.53576 0.84877 0.0
C300 C 0.59967 0.53528 0.83214 0.0
C301 C 0.56066 0.51517 0.85229 0.0
C302 C 0.55206 0.49352 0.82208 0.0
C303 C 0.5919 0.51397 0.80124 0.0
O304 O 0.6054 0.47353 0.75758 0.0
O305 O 0.58142 0.49425 0.74716 0.0
O306 O 0.576 0.51516 0.78783 0.0
O307 O 0.60028 0.49473 0.7982 0.0
H308 H 0.64281 0.54073 0.76194 0.0
H309 H 0.68877 0.57825 0.75103 0.0
H310 H 0.66952 0.52348 0.7028 0.0
H311 H 0.62348 0.48656 0.71367 0.0
H312 H 0.50298 0.36138 0.72537 0.0
H313 H 0.53475 0.40822 0.7428 0.0
H314 H 0.43588 0.33957 0.76195 0.0
H315 H 0.4678 0.38591 0.77931 0.0
H316 H 0.51966 0.47762 0.84099 0.0
H317 H 0.60455 0.55256 0.85882 0.0
H318 H 0.62204 0.55144 0.82977 0.0
H319 H 0.53732 0.47693 0.81189 0.0
C320 C 0.53163 0.13298 0.74324 0.0
C321 C 0.50177 0.11133 0.74345 0.0
C322 C 0.48624 0.14372 0.7314 0.0
C323 C 0.4793 0.11665 0.73758 0.0
C324 C 0.51618 0.16557 0.73176 0.0
C325 C 0.53856 0.1602 0.73754 0.0
U326 U 0.57216 0.1055 0.77335 0.0
O327 O 0.59556 0.08233 0.76591 0.0
O328 O 0.61986 0.1254 0.78063 0.0
C329 C 0.62148 0.1041 0.77223 0.0
C330 C 0.55599 0.12751 0.74801 0.0
C331 C 0.64583 0.11311 0.76063 0.0
C332 C 0.66737 0.12907 0.73282 0.0
C333 C 0.64343 0.11997 0.74331 0.0
C334 C 0.69608 0.12436 0.75683 0.0
C335 C 0.69414 0.1317 0.73955 0.0
C336 C 0.67224 0.11522 0.76722 0.0
C337 C 0.53774 0.07227 0.81647 0.0
C338 C 0.56052 0.07002 0.84445 0.0
C339 C 0.5077 0.03949 0.83772 0.0
C340 C 0.51019 0.051 0.8214 0.0
C341 C 0.53276 0.04901 0.84956 0.0
C342 C 0.563 0.08152 0.82805 0.0
C343 C 0.5389 0.08562 0.79977 0.0
O344 O 0.57396 0.14347 0.76175 0.0
O345 O 0.54946 0.10011 0.74733 0.0
O346 O 0.53505 0.06947 0.78518 0.0
O347 O 0.55949 0.11308 0.79928 0.0
H348 H 0.49575 0.09012 0.74783 0.0
H349 H 0.45654 0.09924 0.73739 0.0
H350 H 0.52239 0.18687 0.72746 0.0
H351 H 0.56141 0.17727 0.73732 0.0
H352 H 0.66519 0.13468 0.71962 0.0
H353 H 0.62319 0.11853 0.73799 0.0
H354 H 0.71612 0.12561 0.76235 0.0
H355 H 0.6745 0.10991 0.7805 0.0
H356 H 0.58035 0.07761 0.85312 0.0
H357 H 0.48591 0.02372 0.84124 0.0
H358 H 0.49038 0.04371 0.81275 0.0
H359 H 0.58456 0.0979 0.82456 0.0
C360 C 0.73722 0.55735 0.97168 0.0
C361 C 0.7207 0.56797 0.96314 0.0
C362 C 0.68346 0.54768 0.98444 0.0
C363 C 0.69403 0.56316 0.96946 0.0
C364 C 0.70015 0.53698 0.99281 0.0
C365 C 0.7267 0.54178 0.98649 0.0
U366 U 0.79817 0.58178 0.93892 0.0
O367 O 0.84644 0.60569 0.94514 0.0
O368 O 0.82436 0.56136 0.93205 0.0
C369 C 0.8492 0.58352 0.93937 0.0
C370 C 0.76565 0.56245 0.96571 0.0
C371 C 0.86734 0.57613 0.95094 0.0
C372 C 0.8738 0.55231 0.97582 0.0
C373 C 0.85638 0.56036 0.96569 0.0
C374 C 0.91334 0.57632 0.95675 0.0
C375 C 0.90233 0.55979 0.97125 0.0
C376 C 0.89603 0.58435 0.94672 0.0
C377 C 0.79172 0.61105 0.89484 0.0
C378 C 0.82574 0.62111 0.872 0.0
C379 C 0.78816 0.63475 0.86917 0.0
C380 C 0.77809 0.62352 0.88523 0.0
C381 C 0.81215 0.63376 0.86231 0.0
C382 C 0.81566 0.60993 0.88814 0.0
C383 C 0.78047 0.5993 0.91172 0.0
O384 O 0.76417 0.54536 0.95217 0.0
O385 O 0.78626 0.58985 0.96502 0.0
O386 O 0.79513 0.61645 0.92598 0.0
O387 O 0.77306 0.57196 0.91317 0.0
H388 H 0.7285 0.58009 0.95169 0.0
H389 H 0.68192 0.57194 0.96277 0.0
H390 H 0.69253 0.52454 1.00415 0.0
H391 H 0.73911 0.53333 0.99322 0.0
H392 H 0.86464 0.5395 0.98685 0.0
H393 H 0.83424 0.55385 0.96917 0.0
H394 H 0.93538 0.5829 0.95304 0.0
H395 H 0.90493 0.59667 0.93546 0.0
H396 H 0.84443 0.62022 0.86724 0.0
H397 H 0.77684 0.64388 0.86199 0.0
H398 H 0.75951 0.6245 0.89014 0.0
H399 H 0.82656 0.60046 0.89539 0.0
C400 C 0.46913 0.18182 0.97833 0.0
C401 C 0.45925 0.15565 0.9679 0.0
C402 C 0.47911 0.13802 0.99064 0.0
C403 C 0.46415 0.13392 0.97401 0.0
C404 C 0.48862 0.16422 1.0011 0.0
C405 C 0.48367 0.18592 0.99498 0.0
U406 U 0.44476 0.21445 0.94224 0.0
O407 O 0.42119 0.23898 0.94415 0.0
O408 O 0.46566 0.2595 0.93478 0.0
C409 C 0.44392 0.2631 0.93975 0.0
C410 C 0.46489 0.20518 0.9719 0.0
C411 C 0.45228 0.28982 0.95113 0.0
C412 C 0.48795 0.33204 0.97049 0.0
C413 C 0.48007 0.30585 0.96065 0.0
C414 C 0.44006 0.32601 0.9619 0.0
C415 C 0.46816 0.34263 0.97106 0.0
C416 C 0.43229 0.29999 0.952 0.0
C417 C 0.41343 0.17388 0.89697 0.0
C418 C 0.40076 0.19586 0.87346 0.0
C419 C 0.39166 0.14651 0.86862 0.0
C420 C 0.40311 0.14834 0.88584 0.0
C421 C 0.39038 0.17027 0.86219 0.0
C422 C 0.41215 0.19763 0.8907 0.0
C423 C 0.42556 0.17555 0.91502 0.0
O424 O 0.48196 0.21955 0.95963 0.0
O425 O 0.43728 0.19847 0.96859 0.0
O426 O 0.40881 0.17484 0.9275 0.0
O427 O 0.45353 0.19549 0.91861 0.0
H428 H 0.44791 0.15211 0.95501 0.0
H429 H 0.45616 0.11386 0.96571 0.0
H430 H 0.50051 0.16827 1.01385 0.0
H431 H 0.49151 0.20606 1.00317 0.0
H432 H 0.50985 0.34435 0.97724 0.0
H433 H 0.49592 0.29845 0.96028 0.0
H434 H 0.42402 0.33315 0.96232 0.0
H435 H 0.41069 0.28791 0.94484 0.0
H436 H 0.39978 0.21442 0.86902 0.0
H437 H 0.38422 0.12663 0.86024 0.0
H438 H 0.40401 0.12982 0.89046 0.0
H439 H 0.41995 0.21751 0.89916 0.0
C440 C 0.73573 0.17808 0.97343 0.0
C441 C 0.71139 0.15835 0.96187 0.0
C442 C 0.68331 0.13497 0.98674 0.0
C443 C 0.68542 0.13701 0.96846 0.0
C444 C 0.708 0.15461 0.99819 0.0
C445 C 0.73385 0.1759 0.99159 0.0
U446 U 0.79275 0.21365 0.93886 0.0
O447 O 0.81688 0.25951 0.93282 0.0
O448 O 0.84137 0.23922 0.94321 0.0
C449 C 0.84265 0.26336 0.93873 0.0
C450 C 0.76303 0.20159 0.96706 0.0
C451 C 0.86206 0.29012 0.95039 0.0
C452 C 0.87076 0.3334 0.96828 0.0
C453 C 0.85131 0.30687 0.95857 0.0
C454 C 0.91185 0.32648 0.96223 0.0
C455 C 0.90136 0.34374 0.97006 0.0
C456 C 0.89243 0.30006 0.95247 0.0
C457 C 0.78492 0.17657 0.89323 0.0
C458 C 0.8243 0.19635 0.87345 0.0
C459 C 0.77645 0.15504 0.86316 0.0
C460 C 0.76623 0.15567 0.8797 0.0
C461 C 0.80565 0.17531 0.85982 0.0
C462 C 0.814 0.19702 0.88998 0.0
C463 C 0.77386 0.17674 0.91062 0.0
O464 O 0.78425 0.19572 0.96474 0.0
O465 O 0.75967 0.21599 0.9545 0.0
O466 O 0.76541 0.19593 0.91367 0.0
O467 O 0.7897 0.17549 0.92404 0.0
H468 H 0.71235 0.15964 0.94778 0.0
H469 H 0.6668 0.12249 0.95925 0.0
H470 H 0.70746 0.15344 1.01229 0.0
H471 H 0.75243 0.19085 1.00073 0.0
H472 H 0.86188 0.3462 0.97397 0.0
H473 H 0.82798 0.2998 0.95718 0.0
H474 H 0.93515 0.33341 0.96356 0.0
H475 H 0.90126 0.28755 0.94629 0.0
H476 H 0.84677 0.2125 0.87129 0.0
H477 H 0.76159 0.13833 0.85306 0.0
H478 H 0.74372 0.1397 0.88196 0.0
H479 H 0.82873 0.21347 0.90024 0.0
C480 C 0.56693 0.83476 0.06747 0.0
C481 C 0.56765 0.85598 0.07952 0.0
C482 C 0.5573 0.87899 0.05553 0.0
C483 C 0.5628 0.87785 0.07361 0.0
C484 C 0.55695 0.85778 0.04352 0.0
C485 C 0.5617 0.83586 0.04946 0.0
U486 U 0.59227 0.80284 0.10318 0.0
O487 O 0.57222 0.75803 0.11101 0.0
O488 O 0.61658 0.77905 0.10153 0.0
C489 C 0.59445 0.75497 0.10645 0.0
C490 C 0.57155 0.81141 0.07354 0.0
C491 C 0.58635 0.72805 0.09556 0.0
C492 C 0.56225 0.69509 0.0692 0.0
C493 C 0.5708 0.72154 0.07896 0.0
C494 C 0.58518 0.68182 0.09244 0.0
C495 C 0.56906 0.67477 0.07594 0.0
C496 C 0.5937 0.70818 0.10214 0.0
C497 C 0.62309 0.84443 0.14815 0.0
C498 C 0.63595 0.82314 0.17197 0.0
C499 C 0.64516 0.87261 0.17624 0.0
C500 C 0.63355 0.87028 0.15899 0.0
C501 C 0.64645 0.84904 0.18295 0.0
C502 C 0.62441 0.82088 0.15471 0.0
C503 C 0.61083 0.84222 0.13008 0.0
O504 O 0.5993 0.81849 0.0767 0.0
O505 O 0.55466 0.79655 0.08575 0.0
O506 O 0.583 0.82182 0.12658 0.0
O507 O 0.62772 0.84305 0.11767 0.0
H508 H 0.57173 0.85548 0.0935 0.0
H509 H 0.56286 0.89355 0.08325 0.0
H510 H 0.55325 0.85824 0.02951 0.0
H511 H 0.56125 0.81974 0.03998 0.0
H512 H 0.54969 0.69024 0.05661 0.0
H513 H 0.56495 0.73671 0.0737 0.0
H514 H 0.59125 0.66692 0.09787 0.0
H515 H 0.60582 0.71295 0.11489 0.0
H516 H 0.63696 0.80473 0.17665 0.0
H517 H 0.65273 0.89271 0.1844 0.0
H518 H 0.63263 0.88865 0.15413 0.0
H519 H 0.61653 0.80078 0.14646 0.0
C520 C 0.29789 0.84454 0.07212 0.0
C521 C 0.31732 0.87033 0.08253 0.0
C522 C 0.35122 0.88666 0.05922 0.0
C523 C 0.34374 0.89122 0.07613 0.0
C524 C 0.33141 0.86081 0.04884 0.0
C525 C 0.30506 0.84001 0.05524 0.0
U526 U 0.24063 0.81117 0.10677 0.0
O527 O 0.19205 0.78626 0.10235 0.0
O528 O 0.21582 0.7655 0.11307 0.0
C529 C 0.19023 0.76209 0.10724 0.0
C530 C 0.27021 0.82184 0.07852 0.0
C531 C 0.17099 0.73538 0.09572 0.0
C532 C 0.16232 0.70164 0.07036 0.0
C533 C 0.18067 0.72817 0.08043 0.0
C534 C 0.12437 0.68976 0.09058 0.0
C535 C 0.13411 0.68192 0.0755 0.0
C536 C 0.14264 0.71619 0.10057 0.0
C537 C 0.24904 0.84832 0.1524 0.0
C538 C 0.20974 0.82816 0.17223 0.0
C539 C 0.25752 0.86953 0.18256 0.0
C540 C 0.2677 0.86915 0.16597 0.0
C541 C 0.22838 0.84907 0.18592 0.0
C542 C 0.22001 0.82774 0.15565 0.0
C543 C 0.26014 0.84815 0.135 0.0
O544 O 0.2731 0.80742 0.09122 0.0
O545 O 0.24974 0.8288 0.08085 0.0
O546 O 0.24455 0.84976 0.12157 0.0
O547 O 0.26818 0.82866 0.1319 0.0
H548 H 0.3121 0.87425 0.09559 0.0
H549 H 0.35825 0.911 0.08442 0.0
H550 H 0.33654 0.85629 0.0359 0.0
H551 H 0.29035 0.82017 0.04703 0.0
H552 H 0.17054 0.69619 0.05887 0.0
H553 H 0.20255 0.74278 0.07648 0.0
H554 H 0.1026 0.67536 0.09474 0.0
H555 H 0.13475 0.72146 0.11229 0.0
H556 H 0.18733 0.81186 0.17439 0.0
H557 H 0.27237 0.88615 0.19269 0.0
H558 H 0.29018 0.8852 0.16372 0.0
H559 H 0.2053 0.81133 0.14536 0.0
C560 C 0.20069 0.47304 0.07812 0.0
C561 C 0.171 0.45094 0.07834 0.0
C562 C 0.15449 0.48217 0.06564 0.0
C563 C 0.14813 0.45547 0.07216 0.0
C564 C 0.18424 0.50447 0.06598 0.0
C565 C 0.20702 0.49989 0.07208 0.0
U566 U 0.24216 0.4472 0.10881 0.0
O567 O 0.26631 0.42462 0.10189 0.0
O568 O 0.29003 0.46815 0.11607 0.0
C569 C 0.29206 0.44682 0.10805 0.0
C570 C 0.2255 0.46838 0.08321 0.0
C571 C 0.31636 0.45548 0.09644 0.0
C572 C 0.33664 0.46781 0.06796 0.0
C573 C 0.31361 0.4612 0.07889 0.0
C574 C 0.3655 0.46372 0.09214 0.0
C575 C 0.36269 0.46866 0.0744 0.0
C576 C 0.3426 0.45719 0.103 0.0
C577 C 0.20706 0.41271 0.15152 0.0
C578 C 0.22964 0.40906 0.17917 0.0
C579 C 0.17674 0.37933 0.17243 0.0
C580 C 0.17939 0.39151 0.15634 0.0
C581 C 0.20177 0.38806 0.18416 0.0
C582 C 0.23227 0.42125 0.163 0.0
C583 C 0.20842 0.42644 0.13495 0.0
O584 O 0.24299 0.48463 0.09703 0.0
O585 O 0.21971 0.44122 0.08262 0.0
O586 O 0.2051 0.41065 0.12029 0.0
O587 O 0.22881 0.45404 0.1347 0.0
H588 H 0.16544 0.43 0.08298 0.0
H589 H 0.12552 0.43775 0.072 0.0
H590 H 0.19002 0.52551 0.06143 0.0
H591 H 0.22972 0.51729 0.07184 0.0
H592 H 0.33371 0.47141 0.05437 0.0
H593 H 0.29351 0.46007 0.07359 0.0
H594 H 0.38545 0.46477 0.09766 0.0
H595 H 0.34526 0.45306 0.11652 0.0
H596 H 0.24943 0.41607 0.18776 0.0
H597 H 0.15488 0.3636 0.17587 0.0
H598 H 0.15962 0.38474 0.14776 0.0
H599 H 0.25392 0.43754 0.15957 0.0
C600 C 0.40131 0.88702 0.30401 0.0
C601 C 0.38488 0.89769 0.29542 0.0
C602 C 0.34831 0.87874 0.31719 0.0
C603 C 0.35858 0.89357 0.30195 0.0
C604 C 0.36492 0.86802 0.32561 0.0
C605 C 0.3911 0.87214 0.31909 0.0
U606 U 0.46174 0.90865 0.27087 0.0
O607 O 0.51001 0.932 0.27703 0.0
O608 O 0.48714 0.88702 0.26487 0.0
C609 C 0.51204 0.90895 0.27234 0.0
C610 C 0.42937 0.89136 0.29787 0.0
C611 C 0.52954 0.90185 0.28488 0.0
C612 C 0.53702 0.86691 0.30062 0.0
C613 C 0.51897 0.87338 0.2899 0.0
C614 C 0.57612 0.91737 0.30193 0.0
C615 C 0.56603 0.88874 0.30653 0.0
C616 C 0.55816 0.92378 0.29118 0.0
C617 C 0.45619 0.93625 0.22601 0.0
C618 C 0.49616 0.95682 0.20663 0.0
C619 C 0.44753 0.9476 0.19664 0.0
C620 C 0.4372 0.937 0.21279 0.0
C621 C 0.47718 0.95775 0.19332 0.0
C622 C 0.48575 0.94611 0.2228 0.0
C623 C 0.44474 0.92543 0.24303 0.0
O624 O 0.4273 0.87345 0.28464 0.0
O625 O 0.45022 0.9185 0.29667 0.0
O626 O 0.45954 0.94301 0.25711 0.0
O627 O 0.43678 0.89808 0.24496 0.0
H628 H 0.39247 0.9093 0.28377 0.0
H629 H 0.34652 0.90234 0.29521 0.0
H630 H 0.35751 0.85605 0.33715 0.0
H631 H 0.40346 0.86367 0.32587 0.0
H632 H 0.52858 0.84459 0.30374 0.0
H633 H 0.497 0.85592 0.28527 0.0
H634 H 0.59811 0.93486 0.30648 0.0
H635 H 0.56689 0.94589 0.28753 0.0
H636 H 0.51902 0.96412 0.20449 0.0
H637 H 0.43235 0.94835 0.18686 0.0
H638 H 0.41433 0.92955 0.21502 0.0
H639 H 0.50076 0.9456 0.23282 0.0
C640 C 0.13812 0.51619 0.3104 0.0
C641 C 0.15304 0.50532 0.30055 0.0
C642 C 0.14822 0.47252 0.32304 0.0
C643 C 0.15817 0.48388 0.30685 0.0
C644 C 0.13319 0.48342 0.33282 0.0
C645 C 0.12829 0.50509 0.32658 0.0
U646 U 0.11236 0.54889 0.27485 0.0
O647 O 0.08777 0.57238 0.27725 0.0
O648 O 0.13212 0.59402 0.2677 0.0
C649 C 0.11008 0.59689 0.27291 0.0
C650 C 0.13293 0.53926 0.30418 0.0
C651 C 0.11807 0.62325 0.28454 0.0
C652 C 0.15342 0.6652 0.30417 0.0
C653 C 0.14575 0.63921 0.29419 0.0
C654 C 0.10547 0.65904 0.29553 0.0
C655 C 0.13351 0.67565 0.30477 0.0
C656 C 0.09792 0.63321 0.28547 0.0
C657 C 0.08179 0.50912 0.22933 0.0
C658 C 0.06835 0.53102 0.20613 0.0
C659 C 0.06005 0.48202 0.20092 0.0
C660 C 0.07175 0.48379 0.21807 0.0
C661 C 0.05823 0.50563 0.19472 0.0
C662 C 0.07998 0.53273 0.2233 0.0
C663 C 0.09405 0.51069 0.24732 0.0
O664 O 0.14991 0.55495 0.29222 0.0
O665 O 0.1051 0.53191 0.30101 0.0
O666 O 0.07708 0.50917 0.25984 0.0
O667 O 0.12184 0.53108 0.25101 0.0
H668 H 0.16089 0.51346 0.28802 0.0
H669 H 0.17028 0.47645 0.29908 0.0
H670 H 0.12486 0.47497 0.34521 0.0
H671 H 0.11671 0.51314 0.33438 0.0
H672 H 0.17526 0.67752 0.31099 0.0
H673 H 0.16169 0.63194 0.29378 0.0
H674 H 0.08935 0.66607 0.29597 0.0
H675 H 0.0764 0.62116 0.27822 0.0
H676 H 0.06694 0.54946 0.20186 0.0
H677 H 0.05283 0.4623 0.19243 0.0
H678 H 0.07304 0.46538 0.22252 0.0
H679 H 0.08753 0.55244 0.23187 0.0
C680 C 0.40242 0.51185 0.30602 0.0
C681 C 0.37828 0.49149 0.29457 0.0
C682 C 0.35033 0.46873 0.31959 0.0
C683 C 0.35247 0.47016 0.30128 0.0
C684 C 0.37484 0.48898 0.33094 0.0
C685 C 0.40055 0.51028 0.32422 0.0
U686 U 0.4582 0.54594 0.27087 0.0
O687 O 0.48148 0.59131 0.26382 0.0
O688 O 0.50679 0.57208 0.2745 0.0
C689 C 0.50761 0.59565 0.26929 0.0
C690 C 0.42949 0.53531 0.29944 0.0
C691 C 0.52693 0.62297 0.2803 0.0
C692 C 0.53717 0.6564 0.30611 0.0
C693 C 0.51853 0.62971 0.29626 0.0
C694 C 0.57278 0.66954 0.28423 0.0
C695 C 0.56444 0.67676 0.30012 0.0
C696 C 0.5542 0.64295 0.27444 0.0
C697 C 0.4488 0.50623 0.22592 0.0
C698 C 0.48565 0.52727 0.20469 0.0
C699 C 0.44103 0.48073 0.19709 0.0
C700 C 0.43141 0.48226 0.2137 0.0
C701 C 0.46832 0.50319 0.19236 0.0
C702 C 0.47596 0.52878 0.2213 0.0
C703 C 0.43847 0.50737 0.24341 0.0
O704 O 0.45085 0.5296 0.29721 0.0
O705 O 0.42566 0.54903 0.28664 0.0
O706 O 0.42988 0.52653 0.24614 0.0
O707 O 0.45507 0.50719 0.25678 0.0
H708 H 0.37926 0.49229 0.28046 0.0
H709 H 0.33398 0.45517 0.29212 0.0
H710 H 0.37428 0.48829 0.34507 0.0
H711 H 0.41899 0.52572 0.33328 0.0
H712 H 0.52997 0.66133 0.31822 0.0
H713 H 0.49749 0.6145 0.30098 0.0
H714 H 0.5938 0.68439 0.27937 0.0
H715 H 0.56111 0.63806 0.2622 0.0
H716 H 0.50657 0.54513 0.20144 0.0
H717 H 0.42728 0.4617 0.18805 0.0
H718 H 0.41041 0.46462 0.21705 0.0
H719 H 0.48966 0.54754 0.23055 0.0
Eu720 Eu 0.50843 0.99316 1.003 0.0
Eu721 Eu 0.52855 0.02458 0.04404 0.0
C722 C 0.50567 0.05062 1.01383 0.0
C723 C 0.5022 0.98388 0.95274 0.0
C724 C 0.50854 0.01238 0.95015 0.0
C725 C 0.50944 0.97719 0.92198 0.0
C726 C 0.51489 0.02305 0.93355 0.0
C727 C 0.50295 0.9665 0.93857 0.0
C728 C 0.51524 1.00554 0.91918 0.0
C729 C 0.49464 0.97198 0.97005 0.0
O730 O 0.4871 0.98153 0.0453 0.0
O731 O 0.46634 0.9749 1.01719 0.0
C732 C 0.46399 0.96922 0.03382 0.0
O733 O 0.51319 0.96105 1.01894 0.0
O734 O 0.51763 0.04142 0.06742 0.0
O735 O 0.55865 0.04095 0.06799 0.0
O736 O 0.54601 0.99353 0.04109 0.0
C737 C 0.53288 0.96772 0.03225 0.0
O738 O 0.55799 0.02329 1.00486 0.0
O739 O 0.56458 0.05592 0.02804 0.0
O740 O 0.50461 0.0447 0.03038 0.0
O741 O 0.51587 0.97233 0.97986 0.0
O742 O 0.47875 0.97965 0.97913 0.0
O743 O 0.51302 0.03727 1.00195 0.0
C744 C 0.53381 0.03178 0.09415 0.0
C745 C 0.51918 1.00137 0.09473 0.0
C746 C 0.53273 0.03717 0.12589 0.0
C747 C 0.5112 0.98893 0.11077 0.0
C748 C 0.54068 0.04956 0.10984 0.0
C749 C 0.51764 1.00665 0.12658 0.0
C750 C 0.54043 0.04499 0.07719 0.0
C751 C 0.57383 0.04886 1.01388 0.0
H752 H 0.50826 0.02629 0.96092 0.0
H753 H 0.51001 0.96323 0.91136 0.0
H754 H 0.51888 0.04483 0.93191 0.0
H755 H 0.49839 0.94455 0.94031 0.0
H756 H 0.51359 0.98723 0.08273 0.0
H757 H 0.5377 0.05152 0.13769 0.0
H758 H 0.49997 0.9654 0.11077 0.0
H759 H 0.55173 0.07307 0.10965 0.0
Eu760 Eu 0.0377 0.52282 1.00379 0.0
Eu761 Eu 1.00227 0.50399 0.03989 0.0
C762 C 0.98237 0.45774 1.00622 0.0
C763 C 0.05108 0.53162 0.95564 0.0
C764 C 0.02061 0.51464 0.95095 0.0
C765 C 0.05954 0.54052 0.92502 0.0
C766 C 1.00962 0.51085 0.9334 0.0
C767 C 0.07049 0.54431 0.94258 0.0
C768 C 0.02894 0.52401 0.92024 0.0
C769 C 0.06246 0.53751 0.97421 0.0
O770 O 0.03614 0.48931 0.04161 0.0
O771 O 0.06933 0.51947 0.02301 0.0
C772 C 0.06248 0.50167 0.03555 0.0
O773 O 0.0532 0.56467 0.02104 0.0
O774 O 0.97943 0.47215 0.05883 0.0
O775 O 0.98547 0.51553 0.0627 0.0
O776 O 0.04486 0.54554 0.04771 0.0
C777 C 0.05778 0.56789 0.03827 0.0
O778 O 0.99285 0.51667 0.99706 0.0
O779 O 0.98236 0.52648 0.02444 0.0
O780 O 0.97335 0.46752 1.01928 0.0
O781 O 0.05518 0.55362 0.98376 0.0
O782 O 0.05966 0.51523 0.9822 0.0
O783 O 1.00875 0.47366 1.00061 0.0
C784 C 0.98912 0.49344 0.08788 0.0
C785 C 0.0197 0.50732 0.09226 0.0
C786 C 0.98068 0.48391 0.11846 0.0
C787 C 0.03071 0.50955 0.10964 0.0
C788 C 0.96969 0.48176 0.10106 0.0
C789 C 1.01134 0.49784 0.12296 0.0
C790 C 0.97754 0.49093 0.06958 0.0
C791 C 0.97818 0.52463 1.00718 0.0
H792 H 1.00529 0.50482 0.96092 0.0
H793 H 0.07504 0.55061 0.91518 0.0
H794 H 0.98594 0.49832 0.93024 0.0
H795 H 0.09408 0.55751 0.946 0.0
H796 H 0.03503 0.51633 0.0822 0.0
H797 H 0.96517 0.47494 0.12842 0.0
H798 H 0.0544 0.52005 0.11259 0.0
H799 H 0.94602 0.47099 0.0979 0.0
Eu800 Eu 0.52686 0.50004 0.04167 0.0
Eu801 Eu 0.50793 0.51796 1.00426 0.0
C802 C 0.53229 0.56238 0.03886 0.0
C803 C 0.52803 0.49025 0.09023 0.0
C804 C 0.50721 0.49929 0.09196 0.0
C805 C 0.52939 0.48561 0.12171 0.0
C806 C 0.49755 0.50149 0.10846 0.0
C807 C 0.53903 0.48341 0.1052 0.0
C808 C 0.50852 0.49471 0.12358 0.0
C809 C 0.53841 0.48824 0.07289 0.0
O810 O 0.54924 0.51623 0.99981 0.0
O811 O 0.56928 0.52378 0.02825 0.0
C812 C 0.57185 0.52348 1.01119 0.0
O813 O 0.5215 0.46509 0.02139 0.0
O814 O 0.51886 0.54878 0.98418 0.0
O815 O 0.47773 0.50766 0.98079 0.0
O816 O 0.49004 0.4694 1.00145 0.0
C817 C 0.50219 0.45481 1.00757 0.0
O818 O 0.47741 0.4797 0.03906 0.0
O819 O 0.47239 0.51181 0.02239 0.0
O820 O 0.53385 0.55985 0.02182 0.0
O821 O 0.51852 0.46868 0.06119 0.0
O822 O 0.55483 0.51304 0.0663 0.0
O823 O 0.52311 0.53974 0.04812 0.0
C824 C 0.50322 0.52604 0.95547 0.0
C825 C 0.51904 0.5115 0.95263 0.0
C826 C 0.50385 0.53432 0.92442 0.0
C827 C 0.52746 0.50865 0.93584 0.0
C828 C 0.49553 0.53725 0.94125 0.0
C829 C 0.5202 0.52023 0.92152 0.0
C830 C 0.49619 0.53085 0.97338 0.0
C831 C 0.46242 0.49214 0.03397 0.0
H832 H 0.49852 0.50478 0.08055 0.0
H833 H 0.53802 0.47983 0.133 0.0
H834 H 0.48178 0.50892 0.10938 0.0
H835 H 0.55507 0.47635 0.1041 0.0
H836 H 0.5252 0.50268 0.96345 0.0
H837 H 0.49816 0.5438 0.91378 0.0
H838 H 0.53966 0.49733 0.93408 0.0
H839 H 0.4835 0.5487 0.94321 0.0
Eu840 Eu 0.17586 0.32685 0.33621 0.0
Eu841 Eu 0.1963 0.35869 0.37729 0.0
C842 C 0.17253 0.38418 0.34707 0.0
C843 C 0.17009 0.3183 0.28608 0.0
C844 C 0.17706 0.34713 0.28402 0.0
C845 C 0.17703 0.3126 0.25514 0.0
C846 C 0.18358 0.35848 0.2676 0.0
C847 C 0.17036 0.30124 0.27155 0.0
C848 C 0.18349 0.34132 0.25287 0.0
C849 C 0.16246 0.30582 0.30323 0.0
O850 O 0.15444 0.31603 0.37873 0.0
O851 O 0.13381 0.30812 0.35042 0.0
C852 C 0.13146 0.3031 0.36715 0.0
O853 O 0.1804 0.2948 0.35228 0.0
O854 O 0.18619 0.37621 0.40068 0.0
O855 O 0.22681 0.37497 0.40109 0.0
O856 O 0.21352 0.32743 0.37427 0.0
C857 C 0.20016 0.30151 0.36555 0.0
O858 O 0.2254 0.35704 0.33811 0.0
O859 O 0.23186 0.38994 0.36105 0.0
O860 O 0.17279 0.3793 0.36377 0.0
O861 O 0.18387 0.30652 0.31306 0.0
O862 O 0.14612 0.31285 0.31233 0.0
O863 O 0.17911 0.37035 0.33506 0.0
C864 C 0.20293 0.36749 0.42757 0.0
C865 C 0.18436 0.33744 0.42873 0.0
C866 C 0.20702 0.37507 0.45948 0.0
C867 C 0.17693 0.32631 0.44516 0.0
C868 C 0.21441 0.38615 0.44305 0.0
C869 C 0.18788 0.34503 0.46077 0.0
C870 C 0.2091 0.37976 0.41033 0.0
C871 C 0.24112 0.38276 0.34696 0.0
H872 H 0.17717 0.36081 0.29507 0.0
H873 H 0.17724 0.29887 0.24424 0.0
H874 H 0.18807 0.38052 0.26638 0.0
H875 H 0.16531 0.27903 0.27289 0.0
H876 H 0.17516 0.32267 0.4169 0.0
H877 H 0.21625 0.3901 0.47119 0.0
H878 H 0.16191 0.30314 0.44559 0.0
H879 H 0.22878 0.40941 0.44244 0.0
Eu880 Eu 0.70262 0.85166 0.33777 0.0
Eu881 Eu 0.66674 0.83235 0.37366 0.0
C882 C 0.64459 0.78897 0.33842 0.0
C883 C 0.71569 0.86296 0.28988 0.0
C884 C 0.68517 0.85018 0.28571 0.0
C885 C 0.72391 0.87158 0.2592 0.0
C886 C 0.67405 0.84798 0.26837 0.0
C887 C 0.735 0.87369 0.27656 0.0
C888 C 0.69329 0.85861 0.25489 0.0
C889 C 0.72731 0.86491 0.30808 0.0
O890 O 0.71048 0.83487 0.38 0.0
O891 O 0.72014 0.82659 0.35204 0.0
C892 C 0.72478 0.82746 0.36916 0.0
O893 O 0.733 0.88634 0.35901 0.0
O894 O 0.64787 0.80104 0.39335 0.0
O895 O 0.64553 0.84058 0.39545 0.0
O896 O 0.69779 0.88102 0.37762 0.0
C897 C 0.72446 0.89622 0.37229 0.0
O898 O 0.67289 0.87082 0.33799 0.0
O899 O 0.63681 0.8392 0.35455 0.0
O900 O 0.64922 0.79109 0.35561 0.0
O901 O 0.72603 0.88377 0.31908 0.0
O902 O 0.71879 0.84003 0.31471 0.0
O903 O 0.65853 0.8118 0.32943 0.0
C904 C 0.6524 0.82251 0.42179 0.0
C905 C 0.68282 0.83869 0.42682 0.0
C906 C 0.64281 0.81302 0.45227 0.0
C907 C 0.69319 0.84186 0.44446 0.0
C908 C 0.63247 0.80988 0.43462 0.0
C909 C 0.67332 0.82884 0.4574 0.0
C910 C 0.64148 0.81763 0.40314 0.0
C911 C 0.64589 0.85878 0.34293 0.0
H912 H 0.66994 0.8419 0.29589 0.0
H913 H 0.73928 0.8797 0.2491 0.0
H914 H 0.65041 0.83824 0.26555 0.0
H915 H 0.75862 0.88358 0.27957 0.0
H916 H 0.69855 0.84845 0.41704 0.0
H917 H 0.62688 0.80306 0.46191 0.0
H918 H 0.71682 0.85387 0.44788 0.0
H919 H 0.60891 0.79731 0.43096 0.0
Eu920 Eu 0.19284 0.83346 0.37516 0.0
Eu921 Eu 0.17402 0.85124 0.3376 0.0
C922 C 0.19858 0.8958 0.37208 0.0
C923 C 0.19423 0.82451 0.42389 0.0
C924 C 0.1741 0.83441 0.42566 0.0
C925 C 0.19525 0.81961 0.45536 0.0
C926 C 0.16461 0.83691 0.44217 0.0
C927 C 0.20472 0.81712 0.43882 0.0
C928 C 0.17506 0.82955 0.45727 0.0
C929 C 0.20438 0.82209 0.40652 0.0
O930 O 0.21495 0.84891 0.33317 0.0
O931 O 0.23519 0.85671 0.36158 0.0
C932 C 0.2376 0.85614 0.3445 0.0
O933 O 0.18709 0.79815 0.35503 0.0
O934 O 0.18507 0.88208 0.31752 0.0
O935 O 0.14397 0.84094 0.31405 0.0
O936 O 0.15586 0.80264 0.33497 0.0
C937 C 0.16779 0.78791 0.3412 0.0
O938 O 0.14339 0.81314 0.37241 0.0
O939 O 0.13855 0.84532 0.3557 0.0
O940 O 0.20033 0.89317 0.35507 0.0
O941 O 0.18434 0.80244 0.39492 0.0
O942 O 0.22091 0.8467 0.39976 0.0
O943 O 0.18906 0.87318 0.38136 0.0
C944 C 0.16967 0.85937 0.2888 0.0
C945 C 0.18534 0.84468 0.286 0.0
C946 C 0.17085 0.868 0.25779 0.0
C947 C 0.19396 0.84191 0.26926 0.0
C948 C 0.16232 0.87084 0.27457 0.0
C949 C 0.18705 0.85375 0.25494 0.0
C950 C 0.16248 0.86415 0.30667 0.0
C951 C 0.12846 0.8256 0.36724 0.0
H952 H 0.1658 0.84032 0.41427 0.0
H953 H 0.20346 0.81335 0.4666 0.0
H954 H 0.14938 0.84499 0.44313 0.0
H955 H 0.22022 0.80937 0.4377 0.0
H956 H 0.19124 0.83567 0.29683 0.0
H957 H 0.16543 0.87767 0.24715 0.0
H958 H 0.20604 0.83046 0.26753 0.0
H959 H 0.15042 0.88243 0.27649 0.0
Eu960 Eu 0.83997 0.66307 0.67035 0.0
Eu961 Eu 0.85987 0.6944 0.71147 0.0
C962 C 0.83675 0.72011 0.68139 0.0
C963 C 0.83429 0.65608 0.62034 0.0
C964 C 0.84979 0.68651 0.6198 0.0
C965 C 0.83337 0.65054 0.58847 0.0
C966 C 0.85681 0.69888 0.60369 0.0
C967 C 0.82628 0.63821 0.60459 0.0
C968 C 0.84858 0.68106 0.58778 0.0
C969 C 0.82614 0.6429 0.63721 0.0
O970 O 0.81835 0.65144 0.71286 0.0
O971 O 0.79788 0.64396 0.68455 0.0
C972 C 0.79545 0.63854 0.70122 0.0
O973 O 0.84505 0.63072 0.68586 0.0
O974 O 0.84922 0.71173 0.73473 0.0
O975 O 0.8902 0.71117 0.73534 0.0
O976 O 0.87587 0.66213 0.70915 0.0
C977 C 0.86352 0.6368 0.69977 0.0
O978 O 0.88957 0.69236 0.67244 0.0
O979 O 0.89614 0.72533 0.69536 0.0
O980 O 0.83511 0.71366 0.69783 0.0
O981 O 0.84717 0.64272 0.64693 0.0
O982 O 0.81038 0.65048 0.64648 0.0
O983 O 0.84503 0.70745 0.66963 0.0
C984 C 0.866 0.7033 0.76171 0.0
C985 C 0.84896 0.67306 0.76285 0.0
C986 C 0.8685 0.71077 0.79357 0.0
C987 C 0.84152 0.66176 0.77925 0.0
C988 C 0.87591 0.72202 0.77719 0.0
C989 C 0.85091 0.6805 0.79484 0.0
C990 C 0.87217 0.71562 0.74448 0.0
C991 C 0.90548 0.71799 0.68134 0.0
H992 H 0.85634 0.7007 0.63184 0.0
H993 H 0.82639 0.63614 0.5765 0.0
H994 H 0.86886 0.72242 0.60371 0.0
H995 H 0.81429 0.61467 0.60473 0.0
H996 H 0.84095 0.65823 0.75103 0.0
H997 H 0.87652 0.72584 0.80527 0.0
H998 H 0.8277 0.63839 0.77965 0.0
H999 H 0.88908 0.74542 0.77659 0.0
Eu1000 Eu 0.37083 0.18738 0.67082 0.0
Eu1001 Eu 0.33547 0.16844 0.70694 0.0
C1002 C 0.31539 0.12227 0.67314 0.0
C1003 C 0.38429 0.19677 0.62271 0.0
C1004 C 0.35383 0.17973 0.618 0.0
C1005 C 0.39275 0.20626 0.59216 0.0
C1006 C 0.34285 0.17619 0.60047 0.0
C1007 C 0.40369 0.2098 0.6097 0.0
C1008 C 0.36215 0.18968 0.58736 0.0
C1009 C 0.39565 0.2024 0.64128 0.0
O1010 O 0.36908 0.15345 0.70845 0.0
O1011 O 0.40237 0.18376 0.68995 0.0
C1012 C 0.39541 0.16575 0.70238 0.0
O1013 O 0.38604 0.22915 0.68808 0.0
O1014 O 0.31273 0.13666 0.72593 0.0
O1015 O 0.31884 0.18006 0.7298 0.0
O1016 O 0.37817 0.20995 0.71472 0.0
C1017 C 0.39087 0.23235 0.7053 0.0
O1018 O 0.32591 0.18103 0.6641 0.0
O1019 O 0.31537 0.19076 0.69148 0.0
O1020 O 0.30649 0.13191 0.68634 0.0
O1021 O 0.38843 0.21845 0.65094 0.0
O1022 O 0.39275 0.17997 0.64914 0.0
O1023 O 0.3417 0.13825 0.66746 0.0
C1024 C 0.32236 0.15792 0.75501 0.0
C1025 C 0.35291 0.17155 0.75943 0.0
C1026 C 0.31371 0.14865 0.7856 0.0
C1027 C 0.3638 0.17377 0.77685 0.0
C1028 C 0.30285 0.1465 0.76817 0.0
C1029 C 0.34434 0.16232 0.79016 0.0
C1030 C 0.31087 0.15546 0.73669 0.0
C1031 C 0.31113 0.18884 0.67421 0.0
H1032 H 0.33851 0.16966 0.62793 0.0
H1033 H 0.40824 0.2166 0.58236 0.0
H1034 H 0.31917 0.16359 0.59729 0.0
H1035 H 0.42727 0.22306 0.61315 0.0
H1036 H 0.36831 0.18037 0.74939 0.0
H1037 H 0.29814 0.1399 0.79555 0.0
H1038 H 0.38746 0.18407 0.77983 0.0
H1039 H 0.2792 0.13595 0.76498 0.0
Eu1040 Eu 0.86069 0.16754 0.70868 0.0
Eu1041 Eu 0.84181 0.18447 0.6708 0.0
C1042 C 0.87153 0.23217 0.70385 0.0
C1043 C 0.86385 0.16036 0.75766 0.0
C1044 C 0.84906 0.17602 0.76009 0.0
C1045 C 0.86241 0.15285 0.78882 0.0
C1046 C 0.84068 0.17977 0.77672 0.0
C1047 C 0.87067 0.14901 0.77214 0.0
C1048 C 0.84699 0.16799 0.79129 0.0
C1049 C 0.87046 0.15432 0.73989 0.0
O1050 O 0.89067 0.1998 0.67116 0.0
O1051 O 0.8957 0.1713 0.6912 0.0
C1052 C 0.9055 0.18836 0.67826 0.0
O1053 O 0.83281 0.12514 0.69165 0.0
O1054 O 0.85034 0.21528 0.65083 0.0
O1055 O 0.81235 0.17159 0.64683 0.0
O1056 O 0.84328 0.14355 0.66486 0.0
C1057 C 0.83372 0.12149 0.67459 0.0
O1058 O 0.82315 0.17521 0.71313 0.0
O1059 O 0.79997 0.16253 0.68539 0.0
O1060 O 0.85152 0.2219 0.69039 0.0
O1061 O 0.8474 0.13721 0.72912 0.0
O1062 O 0.89014 0.17666 0.73235 0.0
O1063 O 0.88229 0.2166 0.71035 0.0
C1064 C 0.83771 0.1928 0.62178 0.0
C1065 C 0.8398 0.16843 0.61593 0.0
C1066 C 0.85384 0.21316 0.59382 0.0
C1067 C 0.84866 0.16636 0.59915 0.0
C1068 C 0.84478 0.2151 0.61057 0.0
C1069 C 0.85594 0.18876 0.58785 0.0
C1070 C 0.82924 0.19573 0.63968 0.0
C1071 C 0.79936 0.16622 0.70253 0.0
H1072 H 0.8436 0.18498 0.74905 0.0
H1073 H 0.86734 0.14321 0.79967 0.0
H1074 H 0.8292 0.19187 0.77816 0.0
H1075 H 0.88188 0.13668 0.77049 0.0
H1076 H 0.83468 0.15097 0.62435 0.0
H1077 H 0.85971 0.23109 0.58569 0.0
H1078 H 0.84956 0.14705 0.59501 0.0
H1079 H 0.8436 0.23423 0.61485 0.0
C1080 C 0.40587 0.92228 0.06398 0.0
C1081 C 0.3799 0.90827 0.05261 0.0
H1082 H 0.45237 0.95212 0.06706 0.0
C1083 C 0.3818 0.91459 0.03485 0.0
H1084 H 0.40545 0.91767 0.07765 0.0
C1085 C 0.40897 0.93433 0.02865 0.0
C1086 C 0.4349 0.94822 0.04007 0.0
H1087 H 0.36222 0.90446 0.02573 0.0
H1088 H 0.40961 0.9387 1.01494 0.0
C1089 C 0.43292 0.94195 0.05782 0.0
C1090 C 0.10324 0.47565 0.06545 0.0
C1091 C 0.13046 0.4866 0.05794 0.0
H1092 H 0.06046 0.47183 0.06439 0.0
C1093 C 0.13469 0.50193 0.04285 0.0
H1094 H 0.09928 0.46396 0.07716 0.0
C1095 C 0.11259 0.50658 0.03562 0.0
C1096 C 0.08549 0.49591 0.04319 0.0
H1097 H 0.15506 0.51015 0.03646 0.0
H1098 H 0.11682 0.51855 0.02402 0.0
C1099 C 0.081 0.48025 0.05816 0.0
C1100 C 0.56045 0.64352 0.04784 0.0
C1101 C 0.55887 0.64598 0.06614 0.0
H1102 H 0.55344 0.61526 0.02483 0.0
C1103 C 0.54773 0.62064 0.07518 0.0
H1104 H 0.56909 0.66266 0.04051 0.0
C1105 C 0.53889 0.59361 0.06626 0.0
C1106 C 0.54091 0.59114 0.04802 0.0
H1107 H 0.54568 0.62164 0.08921 0.0
H1108 H 0.53059 0.57466 0.07375 0.0
C1109 C 0.5516 0.61638 0.03887 0.0
C1110 C 0.9149 0.38247 0.99496 0.0
C1111 C 0.92236 0.37273 0.9796 0.0
H1112 H 0.92787 0.41668 1.01541 0.0
C1113 C 0.94996 0.39112 0.97325 0.0
H1114 H 0.89403 0.3688 1.00037 0.0
C1115 C 0.96951 0.41851 0.98197 0.0
C1116 C 0.96196 0.42831 0.99725 0.0
H1117 H 0.95631 0.38463 0.96131 0.0
H1118 H 0.99042 0.43213 0.97657 0.0
C1119 C 0.93442 0.40992 1.00365 0.0
C1120 C 0.65232 0.54381 1.00954 0.0
C1121 C 0.65511 0.54244 0.99131 0.0
H1122 H 0.62417 0.53906 0.03012 0.0
C1123 C 0.63039 0.53538 0.97974 0.0
H1124 H 0.67099 0.54961 1.01887 0.0
C1125 C 0.60355 0.52948 0.9862 0.0
C1126 C 0.60067 0.53049 1.00443 0.0
H1127 H 0.63155 0.53377 0.96564 0.0
H1128 H 0.58496 0.52384 0.97684 0.0
C1129 C 0.62547 0.53791 1.01602 0.0
C1130 C 0.48338 0.10869 1.01441 0.0
C1131 C 0.48561 0.11548 0.99676 0.0
H1132 H 0.48785 0.08286 0.0337 0.0
C1133 C 0.49455 0.10084 0.98494 0.0
H1134 H 0.4763 0.11938 0.02384 0.0
C1135 C 0.50101 0.0799 0.99055 0.0
C1136 C 0.49876 0.07302 1.00817 0.0
H1137 H 0.49703 0.10587 0.97134 0.0
H1138 H 0.50791 0.06922 0.981 0.0
C1139 C 0.48988 0.08767 0.02006 0.0
C1140 C 0.63868 0.08435 0.9855 0.0
C1141 C 0.65548 0.1127 0.99389 0.0
H1142 H 0.60014 0.04207 0.98522 0.0
C1143 C 0.64544 0.11964 1.00919 0.0
H1144 H 0.64587 0.07804 0.97386 0.0
C1145 C 0.61926 0.09888 1.01583 0.0
C1146 C 0.60237 0.07061 1.00736 0.0
H1147 H 0.65752 0.14134 1.01589 0.0
H1148 H 0.6121 0.10517 0.0275 0.0
C1149 C 0.6125 0.0636 0.99213 0.0
C1150 C 0.92302 0.5508 0.99937 0.0
C1151 C 0.9203 0.54945 0.98087 0.0
H1152 H 0.94359 0.54421 0.02234 0.0
C1153 C 0.93551 0.53858 0.97134 0.0
H1154 H 0.91159 0.55911 1.0071 0.0
C1155 C 0.95364 0.53009 0.97997 0.0
C1156 C 0.9572 0.53219 0.99846 0.0
H1157 H 0.93346 0.53665 0.95709 0.0
H1158 H 0.96516 0.52218 0.97201 0.0
C1159 C 0.94141 0.54235 1.0081 0.0
C1160 C 0.49424 0.38041 0.99683 0.0
C1161 C 0.47701 0.37132 0.98062 0.0
H1162 H 0.5157 0.41383 1.0181 0.0
C1163 C 0.46842 0.39006 0.97343 0.0
H1164 H 0.50102 0.36643 1.00284 0.0
C1165 C 0.47655 0.41699 0.98223 0.0
C1166 C 0.49368 0.42607 0.99844 0.0
H1167 H 0.45572 0.38413 0.96081 0.0
H1168 H 0.46958 0.43081 0.97618 0.0
C1169 C 0.50254 0.40753 1.00562 0.0
C1170 C 0.11202 0.64946 0.04717 0.0
C1171 C 0.11515 0.65279 0.06568 0.0
H1172 H 0.09131 0.62013 0.02393 0.0
C1173 C 0.09974 0.62794 0.07493 0.0
H1174 H 0.12348 0.6682 0.03966 0.0
C1175 C 0.08138 0.60056 0.06599 0.0
C1176 C 0.07784 0.59718 0.0475 0.0
H1177 H 0.10203 0.62959 0.08918 0.0
H1178 H 0.06986 0.58203 0.07366 0.0
C1179 C 0.09347 0.62195 0.03817 0.0
C1180 C 0.39637 0.49517 0.05069 0.0
C1181 C 0.38661 0.47358 0.06274 0.0
H1182 H 0.42803 0.51812 0.03207 0.0
C1183 C 0.40052 0.45692 0.06404 0.0
H1184 H 0.38615 0.50842 0.04938 0.0
C1185 C 0.42426 0.46238 0.05419 0.0
C1186 C 0.43492 0.4847 0.04266 0.0
H1187 H 0.3932 0.43967 0.07284 0.0
H1188 H 0.43463 0.44934 0.05594 0.0
C1189 C 0.42036 0.50073 0.04078 0.0
C1190 C 0.52998 0.89527 0.03541 0.0
C1191 C 0.55161 0.90197 0.04925 0.0
H1192 H 0.50715 0.9106 1.01917 0.0
C1193 C 0.56746 0.93071 0.05718 0.0
H1194 H 0.51704 0.87329 0.02915 0.0
C1195 C 0.5616 0.95209 0.05156 0.0
C1196 C 0.53981 0.9453 0.03781 0.0
H1197 H 0.58457 0.93677 0.0677 0.0
H1198 H 0.57414 0.97393 0.05805 0.0
C1199 C 0.52419 0.91667 0.02974 0.0
C1200 C 0.04968 0.24693 0.368 0.0
C1201 C 0.0477 0.24121 0.38586 0.0
H1202 H 0.07746 0.27088 0.34804 0.0
C1203 C 0.07343 0.25625 0.39738 0.0
H1204 H 0.03027 0.236 0.35876 0.0
C1205 C 0.10036 0.27629 0.39126 0.0
C1206 C 0.10245 0.28189 0.3734 0.0
H1207 H 0.07295 0.25213 0.41114 0.0
H1208 H 0.11964 0.28721 0.4006 0.0
C1209 C 0.07673 0.26704 0.36184 0.0
C1210 C 0.77797 0.82011 0.40118 0.0
C1211 C 0.79375 0.81246 0.38973 0.0
H1212 H 0.74392 0.83085 0.40374 0.0
C1213 C 0.78572 0.80861 0.37155 0.0
H1214 H 0.7837 0.82349 0.41524 0.0
C1215 C 0.76306 0.813 0.36494 0.0
C1216 C 0.74773 0.82129 0.37633 0.0
H1217 H 0.79698 0.80219 0.36236 0.0
H1218 H 0.75779 0.81012 0.35085 0.0
C1219 C 0.75523 0.82447 0.39456 0.0
C1220 C 0.21419 0.95426 0.40826 0.0
C1221 C 0.22571 0.97959 0.3992 0.0
H1222 H 0.19657 0.90821 0.40688 0.0
C1223 C 0.22747 0.97708 0.38093 0.0
H1224 H 0.212 0.95532 0.42227 0.0
C1225 C 0.21843 0.94987 0.372 0.0
C1226 C 0.20737 0.92464 0.38117 0.0
H1227 H 0.2364 0.99623 0.3736 0.0
H1228 H 0.22042 0.94869 0.35798 0.0
C1229 C 0.20516 0.92717 0.39938 0.0
C1230 C 0.58866 0.70804 0.32861 0.0
C1231 C 0.58412 0.70559 0.31015 0.0
H1232 H 0.61133 0.73614 0.35202 0.0
C1233 C 0.59905 0.73093 0.30122 0.0
H1234 H 0.5777 0.68895 0.3359 0.0
C1235 C 0.61839 0.7579 0.31042 0.0
C1236 C 0.62334 0.76032 0.32883 0.0
H1237 H 0.59571 0.72999 0.28705 0.0
H1238 H 0.62956 0.77683 0.30301 0.0
C1239 C 0.60808 0.73509 0.33784 0.0
C1240 C 0.31788 0.87601 0.34247 0.0
C1241 C 0.32026 0.87404 0.32422 0.0
H1242 H 0.29022 0.87205 0.36321 0.0
C1243 C 0.29536 0.8668 0.31276 0.0
H1244 H 0.33671 0.88198 0.3517 0.0
C1245 C 0.26873 0.86127 0.31937 0.0
C1246 C 0.26624 0.86283 0.33762 0.0
H1247 H 0.2962 0.86472 0.29865 0.0
H1248 H 0.25 0.85545 0.31009 0.0
C1249 C 0.29123 0.87046 0.34909 0.0
C1250 C 0.15185 0.42744 0.31762 0.0
C1251 C 0.15339 0.44931 0.32952 0.0
H1252 H 0.15657 0.38994 0.31379 0.0
C1253 C 0.16028 0.44894 0.34753 0.0
H1254 H 0.1459 0.42651 0.30374 0.0
C1255 C 0.16596 0.42749 0.35338 0.0
C1256 C 0.16514 0.40617 0.34134 0.0
H1257 H 0.16196 0.46559 0.35707 0.0
H1258 H 0.17164 0.42804 0.36726 0.0
C1259 C 0.15781 0.40629 0.32342 0.0
C1260 C 0.30616 0.4179 0.31872 0.0
C1261 C 0.32263 0.44648 0.32683 0.0
H1262 H 0.2679 0.37548 0.31869 0.0
C1263 C 0.31232 0.45368 0.34191 0.0
H1264 H 0.31357 0.41139 0.30725 0.0
C1265 C 0.28618 0.43295 0.34861 0.0
C1266 C 0.26961 0.40447 0.34039 0.0
H1267 H 0.32413 0.47555 0.34839 0.0
H1268 H 0.2788 0.43944 0.3601 0.0
C1269 C 0.28001 0.39719 0.32539 0.0
C1270 C 0.61611 0.8944 0.31282 0.0
C1271 C 0.58636 0.88151 0.31653 0.0
H1272 H 0.65792 0.89754 0.31815 0.0
C1273 C 0.57632 0.86134 0.32942 0.0
H1274 H 0.62457 0.90955 0.30275 0.0
C1275 C 0.59561 0.85419 0.33829 0.0
C1276 C 0.62532 0.86701 0.33442 0.0
H1277 H 0.5536 0.85115 0.33272 0.0
H1278 H 0.58716 0.83844 0.34803 0.0
C1279 C 0.63528 0.88731 0.32163 0.0
C1280 C 0.13369 0.72302 0.30717 0.0
C1281 C 0.14224 0.70427 0.31438 0.0
H1282 H 0.13499 0.76383 0.30988 0.0
C1283 C 0.15946 0.71334 0.33059 0.0
H1284 H 0.121 0.7171 0.29455 0.0
C1285 C 0.16785 0.74049 0.33936 0.0
C1286 C 0.15908 0.75908 0.33214 0.0
H1287 H 0.16621 0.69934 0.3366 0.0
H1288 H 0.18103 0.7468 0.35183 0.0
C1289 C 0.14191 0.74998 0.31595 0.0
C1290 C 0.79227 0.97111 0.38433 0.0
C1291 C 0.78422 0.98074 0.3995 0.0
H1292 H 0.77981 0.93702 0.36381 0.0
C1293 C 0.75655 0.96213 0.40566 0.0
H1294 H 0.81328 0.98494 0.37912 0.0
C1295 C 0.73732 0.93481 0.39683 0.0
C1296 C 0.74523 0.92524 0.38162 0.0
H1297 H 0.74981 0.96849 0.41749 0.0
H1298 H 0.71625 0.92116 0.40204 0.0
C1299 C 0.773 0.94366 0.3755 0.0
C1300 C 0.06353 0.82978 0.38467 0.0
C1301 C 0.05293 0.80727 0.39609 0.0
H1302 H 0.09576 0.85335 0.36648 0.0
C1303 C 0.06575 0.78955 0.39661 0.0
H1304 H 0.05416 0.84385 0.38397 0.0
C1305 C 0.08936 0.79493 0.38667 0.0
C1306 C 0.10093 0.81818 0.37583 0.0
H1307 H 0.05773 0.77159 0.40491 0.0
H1308 H 0.09896 0.7811 0.38783 0.0
C1309 C 0.08736 0.83522 0.37465 0.0
C1310 C 0.19686 0.22892 0.36886 0.0
C1311 C 0.21869 0.23566 0.38258 0.0
H1312 H 0.17394 0.24425 0.35271 0.0
C1313 C 0.23478 0.26446 0.3904 0.0
H1314 H 0.18374 0.2069 0.36269 0.0
C1315 C 0.22898 0.28588 0.38478 0.0
C1316 C 0.20701 0.27906 0.37114 0.0
H1317 H 0.25204 0.27054 0.40083 0.0
H1318 H 0.24171 0.30777 0.39117 0.0
C1319 C 0.19113 0.25035 0.36319 0.0
C1320 C 0.73726 0.5908 0.73112 0.0
C1321 C 0.71155 0.57609 0.71955 0.0
H1322 H 0.7835 0.62167 0.73449 0.0
C1323 C 0.71364 0.58225 0.70176 0.0
H1324 H 0.7367 0.58633 0.74481 0.0
C1325 C 0.74074 0.6025 0.69573 0.0
C1326 C 0.76642 0.61708 0.70734 0.0
H1327 H 0.69425 0.5716 0.6925 0.0
H1328 H 0.74152 0.60671 0.68198 0.0
C1329 C 0.76425 0.61098 0.72511 0.0
C1330 C 0.43548 0.13826 0.73164 0.0
C1331 C 0.4626 0.14897 0.72404 0.0
H1332 H 0.39303 0.13515 0.73088 0.0
C1333 C 0.46705 0.16479 0.70915 0.0
H1334 H 0.43136 0.12622 0.74321 0.0
C1335 C 0.44523 0.17007 0.70218 0.0
C1336 C 0.41821 0.15955 0.70981 0.0
H1337 H 0.48735 0.17288 0.7027 0.0
H1338 H 0.44961 0.18235 0.69071 0.0
C1339 C 0.41352 0.14347 0.7246 0.0
C1340 C 0.90694 0.29794 0.73732 0.0
C1341 C 0.89775 0.31629 0.7302 0.0
H1342 H 0.90604 0.25726 0.73464 0.0
C1343 C 0.88045 0.307 0.71403 0.0
H1344 H 0.91983 0.30409 0.74988 0.0
C1345 C 0.87223 0.27988 0.70533 0.0
C1346 C 0.88125 0.26148 0.71256 0.0
H1347 H 0.87331 0.32073 0.70804 0.0
H1348 H 0.85872 0.27332 0.69297 0.0
C1349 C 0.89888 0.27094 0.72859 0.0
C1350 C 0.2826 0.05614 0.63976 0.0
C1351 C 0.25505 0.03764 0.64613 0.0
H1352 H 0.32311 0.09709 0.64318 0.0
C1353 C 0.24777 0.04714 0.66166 0.0
H1354 H 0.28883 0.04986 0.6277 0.0
C1355 C 0.2674 0.07444 0.67049 0.0
C1356 C 0.29487 0.09295 0.66406 0.0
H1357 H 0.22696 0.03337 0.6671 0.0
H1358 H 0.26097 0.08101 0.68237 0.0
C1359 C 0.30226 0.08338 0.64861 0.0
C1360 C 0.97776 0.18974 0.67202 0.0
C1361 C 0.98699 0.20487 0.65683 0.0
H1362 H 0.94514 0.17278 0.69071 0.0
C1363 C 0.96932 0.2149 0.64895 0.0
H1364 H 0.991 0.18211 0.67865 0.0
C1365 C 0.94311 0.2098 0.656 0.0
C1366 C 0.9338 0.19447 0.67111 0.0
H1367 H 0.97544 0.22628 0.63713 0.0
H1368 H 0.92999 0.21762 0.64944 0.0
C1369 C 0.95151 0.18456 0.67904 0.0
C1370 C 0.82484 0.77002 0.65263 0.0
C1371 C 0.81489 0.78379 0.6644 0.0
H1372 H 0.83957 0.73943 0.64871 0.0
C1373 C 0.81235 0.77657 0.68196 0.0
H1374 H 0.82757 0.77539 0.63909 0.0
C1375 C 0.81948 0.75598 0.68758 0.0
C1376 C 0.82934 0.74217 0.67575 0.0
H1377 H 0.80448 0.78657 0.69134 0.0
H1378 H 0.81715 0.75081 0.70116 0.0
C1379 C 0.83194 0.74949 0.65821 0.0
C1380 C 0.97741 0.78831 0.67628 0.0
C1381 C 0.98729 0.78094 0.66105 0.0
H1382 H 0.94415 0.77445 0.69465 0.0
C1383 C 0.97029 0.75246 0.65287 0.0
H1384 H 0.98966 0.81012 0.68282 0.0
C1385 C 0.94409 0.73202 0.65962 0.0
C1386 C 0.93411 0.73945 0.67476 0.0
H1387 H 0.97734 0.7458 0.64129 0.0
H1388 H 0.93158 0.71039 0.65284 0.0
C1389 C 0.95119 0.76784 0.68304 0.0
C1390 C 0.26775 0.20171 0.6383 0.0
C1391 C 0.25315 0.21336 0.64776 0.0
H1392 H 0.29693 0.18477 0.63908 0.0
C1393 C 0.25637 0.21546 0.66628 0.0
H1394 H 0.26528 0.19919 0.62406 0.0
C1395 C 0.27473 0.20704 0.67507 0.0
C1396 C 0.29001 0.19619 0.66549 0.0
H1397 H 0.2454 0.22437 0.67394 0.0
H1398 H 0.27737 0.20953 0.68931 0.0
C1399 C 0.28585 0.19327 0.647 0.0
C1400 C 0.81452 0.0613 0.63889 0.0
C1401 C 0.80326 0.03635 0.64827 0.0
H1402 H 0.83298 0.10736 0.63974 0.0
C1403 C 0.80277 0.03961 0.66664 0.0
H1404 H 0.81578 0.05966 0.62479 0.0
C1405 C 0.8128 0.06724 0.67533 0.0
C1406 C 0.82366 0.09211 0.66583 0.0
H1407 H 0.79412 0.02076 0.67422 0.0
H1408 H 0.81183 0.06906 0.68944 0.0
C1409 C 0.82458 0.08876 0.64753 0.0
C1410 C 0.43322 0.29249 0.74188 0.0
C1411 C 0.44814 0.31739 0.73259 0.0
H1412 H 0.40375 0.24649 0.74067 0.0
C1413 C 0.44459 0.31405 0.71409 0.0
H1414 H 0.43584 0.29415 0.75612 0.0
C1415 C 0.42609 0.28649 0.70513 0.0
C1416 C 0.41092 0.26168 0.7145 0.0
H1417 H 0.45565 0.33282 0.70655 0.0
H1418 H 0.42358 0.28468 0.6909 0.0
C1419 C 0.4149 0.26506 0.73298 0.0
C1420 C 0.74863 0.16231 0.73722 0.0
C1421 C 0.72043 0.14268 0.72903 0.0
H1422 H 0.79516 0.18533 0.73527 0.0
C1423 C 0.71806 0.1329 0.7112 0.0
H1424 H 0.7513 0.17091 0.75077 0.0
C1425 C 0.74354 0.14141 0.70212 0.0
C1426 C 0.77178 0.15984 0.71073 0.0
H1427 H 0.69663 0.11777 0.7045 0.0
H1428 H 0.74118 0.13266 0.68865 0.0
C1429 C 0.77386 0.1707 0.72825 0.0
C1430 C 0.8895 0.59573 0.7278 0.0
C1431 C 0.88111 0.57033 0.71678 0.0
H1432 H 0.89065 0.63651 0.73111 0.0
C1433 C 0.86723 0.56725 0.69996 0.0
H1434 H 0.89975 0.59868 0.74095 0.0
C1435 C 0.86164 0.58884 0.69438 0.0
C1436 C 0.87003 0.61417 0.70543 0.0
H1437 H 0.86089 0.54825 0.69098 0.0
H1438 H 0.85085 0.58571 0.68137 0.0
C1439 C 0.88414 0.61741 0.72218 0.0
C1440 C 0.51618 0.99449 0.17545 0.0
C1441 C 0.48817 0.96957 0.17614 0.0
H1442 H 0.54755 0.02549 0.15943 0.0
C1443 C 0.47038 0.95648 0.16028 0.0
H1444 H 0.53041 1.00534 0.18737 0.0
C1445 C 0.48009 0.96822 0.14426 0.0
C1446 C 0.50789 0.99343 0.1436 0.0
H1447 H 0.44885 0.93707 0.16023 0.0
H1448 H 0.46546 0.95784 0.13243 0.0
C1449 C 0.52588 1.00627 0.15942 0.0
C1450 C 0.02087 0.47801 0.16899 0.0
C1451 C 0.04596 0.50378 0.17642 0.0
H1452 H 0.99041 0.45585 0.14635 0.0
C1453 C 0.05938 0.5277 0.16618 0.0
H1454 H 1.00981 0.45928 0.17656 0.0
C1455 C 0.04811 0.52581 0.14889 0.0
C1456 C 0.02309 0.49999 0.14144 0.0
H1457 H 0.07888 0.54779 0.17143 0.0
H1458 H 0.05891 0.54468 0.1414 0.0
C1459 C 1.00955 0.47615 0.15173 0.0
C1460 C 0.50854 0.5102 0.17285 0.0
C1461 C 0.4787 0.50135 0.1747 0.0
H1462 H 0.54136 0.51532 0.15542 0.0
C1463 C 0.4588 0.49047 0.15954 0.0
H1464 H 0.52444 0.51841 0.18423 0.0
C1465 C 0.46845 0.48839 0.14302 0.0
C1466 C 0.49827 0.4971 0.14119 0.0
H1467 H 0.43573 0.48374 0.16041 0.0
H1468 H 0.45241 0.47957 0.1317 0.0
C1469 C 0.51818 0.50808 0.15633 0.0
C1470 C 1.01748 0.54351 0.87452 0.0
C1471 C 0.99353 0.51704 0.86689 0.0
H1472 H 0.04724 0.56651 0.89726 0.0
C1473 C 0.9817 0.49266 0.87683 0.0
H1474 H 0.02734 0.56263 0.86716 0.0
C1475 C 0.99334 0.4948 0.89405 0.0
C1476 C 1.01713 0.52136 0.90173 0.0
H1477 H 0.96308 0.47201 0.87142 0.0
H1478 H 0.98374 0.47561 0.90134 0.0
C1479 C 0.02914 0.54564 0.89171 0.0
C1480 C 0.56855 0.52159 0.88541 0.0
C1481 C 0.55001 0.51585 0.87003 0.0
H1482 H 0.57388 0.52764 0.91354 0.0
C1483 C 0.52135 0.51109 0.87176 0.0
H1484 H 0.59063 0.52504 0.88461 0.0
C1485 C 0.51163 0.51237 0.8884 0.0
C1486 C 0.53025 0.51827 0.90377 0.0
H1487 H 0.50654 0.50686 0.86022 0.0
H1488 H 0.48942 0.50854 0.88922 0.0
C1489 C 0.5588 0.52274 0.90203 0.0
C1490 C 0.5458 0.05624 0.88238 0.0
C1491 C 0.5296 0.03759 0.86731 0.0
H1492 H 0.55435 0.06087 0.9104 0.0
C1493 C 0.50942 1.00813 0.86944 0.0
H1494 H 0.56134 0.07912 0.88132 0.0
C1495 C 0.50508 0.99774 0.88616 0.0
C1496 C 0.52085 0.01648 0.90128 0.0
H1497 H 0.4968 0.993 0.85815 0.0
H1498 H 0.48879 0.97509 0.88723 0.0
C1499 C 0.54149 0.04584 0.89913 0.0
C1500 C 0.16296 0.33826 0.50725 0.0
C1501 C 0.15958 0.31123 0.51121 0.0
H1502 H 0.17414 0.36987 0.48839 0.0
C1503 C 0.16621 0.29562 0.49854 0.0
H1504 H 0.15842 0.35107 0.51673 0.0
C1505 C 0.17554 0.30658 0.48226 0.0
C1506 C 0.17865 0.33351 0.47826 0.0
H1507 H 0.16364 0.27463 0.50105 0.0
H1508 H 0.18044 0.29398 0.47284 0.0
C1509 C 0.17235 0.34924 0.49103 0.0
C1510 C 0.68211 0.80875 0.50348 0.0
C1511 C 0.70613 0.83495 0.51137 0.0
H1512 H 0.65314 0.78621 0.48037 0.0
C1513 C 0.71903 0.85929 0.50142 0.0
H1514 H 0.67143 0.78966 0.51081 0.0
C1515 C 0.70833 0.8574 0.48398 0.0
C1516 C 0.6844 0.83114 0.47608 0.0
H1517 H 0.73774 0.87974 0.50701 0.0
H1518 H 0.71872 0.87659 0.47673 0.0
C1519 C 0.67138 0.80687 0.48608 0.0
C1520 C 0.17505 0.84453 0.50663 0.0
C1521 C 0.1454 0.83652 0.50843 0.0
H1522 H 0.20768 0.84891 0.48924 0.0
C1523 C 0.12568 0.82646 0.49321 0.0
H1524 H 0.19083 0.8521 0.51806 0.0
C1525 C 0.13528 0.82431 0.47668 0.0
C1526 C 0.16489 0.83213 0.47489 0.0
H1527 H 0.10277 0.8204 0.49403 0.0
H1528 H 0.11934 0.8161 0.46532 0.0
C1529 C 0.18465 0.84235 0.4901 0.0
C1530 C 0.68409 0.87711 0.20846 0.0
C1531 C 0.65859 0.85143 0.20134 0.0
H1532 H 0.71491 0.89958 0.23091 0.0
C1533 C 0.64469 0.8281 0.21195 0.0
H1534 H 0.69549 0.89539 0.20059 0.0
C1535 C 0.65593 0.83043 0.22929 0.0
C1536 C 0.68142 0.85611 0.23642 0.0
H1537 H 0.62485 0.80812 0.20693 0.0
H1538 H 0.64479 0.81198 0.23707 0.0
C1539 C 0.6954 0.8794 0.22578 0.0
C1540 C 0.23579 0.8551 0.21906 0.0
C1541 C 0.21751 0.84966 0.20361 0.0
H1542 H 0.24071 0.86081 0.2472 0.0
C1543 C 0.1889 0.84511 0.20521 0.0
H1544 H 0.25783 0.85838 0.21836 0.0
C1545 C 0.17897 0.84628 0.22179 0.0
C1546 C 0.19733 0.85188 0.23724 0.0
H1547 H 0.17429 0.84112 0.19361 0.0
H1548 H 0.1568 0.84262 0.22251 0.0
C1549 C 0.22583 0.85615 0.23563 0.0
C1550 C 0.21488 0.39365 0.21692 0.0
C1551 C 0.19845 0.37577 0.20166 0.0
H1552 H 0.22343 0.39691 0.24488 0.0
C1553 C 0.17788 0.34624 0.20335 0.0
H1554 H 0.23073 0.41654 0.21619 0.0
C1555 C 0.17336 0.33507 0.21985 0.0
C1556 C 0.18934 0.35306 0.23518 0.0
H1557 H 0.16509 0.33168 0.19189 0.0
H1558 H 0.15677 0.31242 0.22061 0.0
C1559 C 0.21039 0.38245 0.23345 0.0
C1560 C 0.83128 0.63151 0.8328 0.0
C1561 C 0.82285 0.64597 0.84517 0.0
H1562 H 0.84683 0.63099 0.80737 0.0
C1563 C 0.82424 0.67207 0.84092 0.0
H1564 H 0.83027 0.61125 0.83554 0.0
C1565 C 0.8335 0.68326 0.82472 0.0
C1566 C 0.84166 0.6687 0.81227 0.0
H1567 H 0.81827 0.68402 0.85016 0.0
H1568 H 0.83377 0.70315 0.82186 0.0
C1569 C 0.84047 0.64268 0.81655 0.0
C1570 C 0.35315 0.1427 0.83638 0.0
C1571 C 0.37838 0.16837 0.8438 0.0
H1572 H 0.32278 0.12059 0.8137 0.0
C1573 C 0.39218 0.19212 0.83346 0.0
H1574 H 0.3418 0.1241 0.84402 0.0
C1575 C 0.38113 0.19018 0.81612 0.0
C1576 C 0.35595 0.16448 0.80868 0.0
H1577 H 0.4118 0.21211 0.8387 0.0
H1578 H 0.39221 0.20894 0.80857 0.0
C1579 C 0.34205 0.1408 0.81905 0.0
C1580 C 0.84506 0.17828 0.84086 0.0
C1581 C 0.81661 0.17427 0.84224 0.0
H1582 H 0.87701 0.17965 0.82381 0.0
C1583 C 0.79853 0.16879 0.8267 0.0
H1584 H 0.8595 0.18229 0.85254 0.0
C1585 C 0.8085 0.16711 0.81023 0.0
C1586 C 0.83681 0.17075 0.80885 0.0
H1587 H 0.77662 0.1659 0.82725 0.0
H1588 H 0.79377 0.16239 0.79857 0.0
C1589 C 0.85499 0.17646 0.82438 0.0
C1590 C 0.31517 0.15859 0.54386 0.0
C1591 C 0.32695 0.18308 0.53401 0.0
H1592 H 0.31719 0.14134 0.5683 0.0
C1593 C 0.35071 0.20958 0.54175 0.0
H1594 H 0.2967 0.13791 0.53836 0.0
C1595 C 0.36226 0.21161 0.55896 0.0
C1596 C 0.35035 0.18719 0.56887 0.0
H1597 H 0.36052 0.22877 0.53447 0.0
H1598 H 0.38024 0.23249 0.5646 0.0
C1599 C 0.32671 0.16063 0.56109 0.0
C1600 C 0.86752 0.19608 0.53898 0.0
C1601 C 0.88526 0.18351 0.53628 0.0
H1602 H 0.8438 0.20693 0.55706 0.0
C1603 C 0.89313 0.17253 0.55063 0.0
H1604 H 0.86071 0.20439 0.52816 0.0
C1605 C 0.88371 0.17426 0.56728 0.0
C1606 C 0.86591 0.18681 0.57003 0.0
H1607 H 0.90711 0.16308 0.54907 0.0
H1608 H 0.89085 0.16619 0.57807 0.0
C1609 C 0.85789 0.19761 0.5556 0.0
C1610 C 0.87013 0.69431 0.54069 0.0
C1611 C 0.86652 0.71824 0.53746 0.0
H1612 H 0.8678 0.66415 0.55904 0.0
C1613 C 0.85751 0.73014 0.55109 0.0
H1614 H 0.87747 0.68483 0.53064 0.0
C1615 C 0.85202 0.71831 0.56739 0.0
C1616 C 0.85531 0.69418 0.57055 0.0
H1617 H 0.85394 0.74821 0.54903 0.0
H1618 H 0.84448 0.72766 0.5774 0.0
C1619 C 0.86458 0.68243 0.557 0.0
loop_
_geom_bond_atom_site_label_1
_geom_bond_atom_site_label_2
_geom_bond_distance
_geom_bond_site_symmetry_2
_ccdc_geom_bond_type
C0 C1 1.264 . S
C0 C5 1.479 . S
C0 C10 1.465 . S
C1 C0 1.264 . S
C1 C3 1.339 . S
C1 H28 0.931 . S
C2 C3 1.395 . S
C2 C4 1.320 . S
C3 C1 1.339 . S
C3 C2 1.395 . S
C3 H29 0.929 . S
C4 C2 1.320 . S
C4 C5 1.405 . S
C4 H30 0.930 . S
C5 C0 1.479 . S
C5 C4 1.405 . S
C5 H31 0.931 . S
U6 O7 2.454 . S
U6 O8 2.458 . S
U6 C9 2.984 . S
U6 C10 2.847 . S
U6 C23 2.882 . S
U6 O24 2.441 . S
U6 O25 2.420 . S
U6 O26 2.455 . S
U6 O27 2.449 . S
O7 U6 2.454 . S
O7 C9 1.353 . S
O8 U6 2.458 . S
O8 C9 1.286 . S
C9 U6 2.984 . S
C9 O7 1.353 . S
C9 O8 1.286 . S
C9 C11 1.363 . S
C10 C0 1.465 . S
C10 U6 2.847 . S
C10 O24 1.249 . S
C10 O25 1.202 . S
C11 C9 1.363 . S
C11 C13 1.408 . S
C11 C16 1.342 . S
C12 C13 1.310 . S
C12 C15 1.461 . S
C12 H32 0.932 . S
C13 C11 1.408 . S
C13 C12 1.310 . S
C13 H33 0.930 . S
C14 C15 1.474 . S
C14 C16 1.285 . S
C14 H34 0.929 . S
C15 C12 1.461 . S
C15 C14 1.474 . S
C16 C11 1.342 . S
C16 C14 1.285 . S
C16 H35 0.930 . S
C17 C20 1.424 . S
C17 C22 1.245 . S
C17 C23 1.428 . S
C18 C21 1.260 . S
C18 C22 1.477 . S
C18 H36 0.932 . S
C19 C20 1.384 . S
C19 C21 1.479 . S
C19 H37 0.929 . S
C20 C17 1.424 . S
C20 C19 1.384 . S
C20 H38 0.928 . S
C21 C18 1.260 . S
C21 C19 1.479 . S
C22 C17 1.245 . S
C22 C18 1.477 . S
C22 H39 0.932 . S
C23 U6 2.882 . S
C23 C17 1.428 . S
C23 O26 1.301 . S
C23 O27 1.282 . S
O24 U6 2.441 . S
O24 C10 1.249 . S
O25 U6 2.420 . S
O25 C10 1.202 . S
O26 U6 2.455 . S
O26 C23 1.301 . S
O27 U6 2.449 . S
O27 C23 1.282 . S
H28 C1 0.931 . S
H29 C3 0.929 . S
H30 C4 0.930 . S
H31 C5 0.931 . S
H32 C12 0.932 . S
H33 C13 0.930 . S
H34 C14 0.929 . S
H35 C16 0.930 . S
H36 C18 0.932 . S
H37 C19 0.929 . S
H38 C20 0.928 . S
H39 C22 0.932 . S
C40 C41 1.264 . S
C40 C45 1.479 . S
C40 C50 1.465 . S
C41 C40 1.264 . S
C41 C43 1.339 . S
C41 H68 0.931 . S
C42 C43 1.395 . S
C42 C44 1.320 . S
C43 C41 1.339 . S
C43 C42 1.395 . S
C43 H69 0.929 . S
C44 C42 1.320 . S
C44 C45 1.405 . S
C44 H70 0.930 . S
C45 C40 1.479 . S
C45 C44 1.405 . S
C45 H71 0.931 . S
U46 O47 2.454 . S
U46 O48 2.458 . S
U46 C49 2.984 . S
U46 C50 2.847 . S
U46 C63 2.882 . S
U46 O64 2.441 . S
U46 O65 2.420 . S
U46 O66 2.455 . S
U46 O67 2.449 . S
O47 U46 2.454 . S
O47 C49 1.353 . S
O48 U46 2.458 . S
O48 C49 1.286 . S
C49 U46 2.984 . S
C49 O47 1.353 . S
C49 O48 1.286 . S
C49 C51 1.363 . S
C50 C40 1.465 . S
C50 U46 2.847 . S
C50 O64 1.249 . S
C50 O65 1.202 . S
C51 C49 1.363 . S
C51 C53 1.408 . S
C51 C56 1.342 . S
C52 C53 1.310 . S
C52 C55 1.461 . S
C52 H72 0.932 . S
C53 C51 1.408 . S
C53 C52 1.310 . S
C53 H73 0.930 . S
C54 C55 1.474 . S
C54 C56 1.285 . S
C54 H74 0.929 . S
C55 C52 1.461 . S
C55 C54 1.474 . S
C56 C51 1.342 . S
C56 C54 1.285 . S
C56 H75 0.930 . S
C57 C60 1.424 . S
C57 C62 1.245 . S
C57 C63 1.428 . S
C58 C61 1.260 . S
C58 C62 1.477 . S
C58 H76 0.932 . S
C59 C60 1.384 . S
C59 C61 1.479 . S
C59 H77 0.929 . S
C60 C57 1.424 . S
C60 C59 1.384 . S
C60 H78 0.928 . S
C61 C58 1.260 . S
C61 C59 1.479 . S
C62 C57 1.245 . S
C62 C58 1.477 . S
C62 H79 0.932 . S
C63 U46 2.882 . S
C63 C57 1.428 . S
C63 O66 1.301 . S
C63 O67 1.282 . S
O64 U46 2.441 . S
O64 C50 1.249 . S
O65 U46 2.420 . S
O65 C50 1.202 . S
O66 U46 2.455 . S
O66 C63 1.301 . S
O67 U46 2.449 . S
O67 C63 1.282 . S
H68 C41 0.931 . S
H69 C43 0.929 . S
H70 C44 0.930 . S
H71 C45 0.931 . S
H72 C52 0.932 . S
H73 C53 0.930 . S
H74 C54 0.929 . S
H75 C56 0.930 . S
H76 C58 0.932 . S
H77 C59 0.929 . S
H78 C60 0.928 . S
H79 C62 0.932 . S
C80 C81 1.264 . S
C80 C85 1.479 . S
C80 C90 1.465 . S
C81 C80 1.264 . S
C81 C83 1.339 . S
C81 H108 0.931 . S
C82 C83 1.395 . S
C82 C84 1.320 . S
C83 C81 1.339 . S
C83 C82 1.395 . S
C83 H109 0.929 . S
C84 C82 1.320 . S
C84 C85 1.405 . S
C84 H110 0.930 . S
C85 C80 1.479 . S
C85 C84 1.405 . S
C85 H111 0.931 . S
U86 O87 2.454 . S
U86 O88 2.458 . S
U86 C89 2.984 . S
U86 C90 2.847 . S
U86 C103 2.882 . S
U86 O104 2.441 . S
U86 O105 2.420 . S
U86 O106 2.455 . S
U86 O107 2.449 . S
O87 U86 2.454 . S
O87 C89 1.353 . S
O88 U86 2.458 . S
O88 C89 1.286 . S
C89 U86 2.984 . S
C89 O87 1.353 . S
C89 O88 1.286 . S
C89 C91 1.363 . S
C90 C80 1.465 . S
C90 U86 2.847 . S
C90 O104 1.249 . S
C90 O105 1.202 . S
C91 C89 1.363 . S
C91 C93 1.408 . S
C91 C96 1.342 . S
C92 C93 1.310 . S
C92 C95 1.461 1_655 S
C92 H112 0.932 . S
C93 C91 1.408 . S
C93 C92 1.310 . S
C93 H113 0.930 . S
C94 C95 1.474 . S
C94 C96 1.285 1_455 S
C94 H114 0.929 . S
C95 C92 1.461 1_455 S
C95 C94 1.474 . S
C96 C91 1.342 . S
C96 C94 1.285 1_655 S
C96 H115 0.930 . S
C97 C100 1.424 . S
C97 C102 1.245 . S
C97 C103 1.428 . S
C98 C101 1.260 . S
C98 C102 1.477 . S
C98 H116 0.932 . S
C99 C100 1.384 . S
C99 C101 1.479 . S
C99 H117 0.929 . S
C100 C97 1.424 . S
C100 C99 1.384 . S
C100 H118 0.928 . S
C101 C98 1.260 . S
C101 C99 1.479 . S
C102 C97 1.245 . S
C102 C98 1.477 . S
C102 H119 0.932 . S
C103 U86 2.882 . S
C103 C97 1.428 . S
C103 O106 1.301 . S
C103 O107 1.282 . S
O104 U86 2.441 . S
O104 C90 1.249 . S
O105 U86 2.420 . S
O105 C90 1.202 . S
O106 U86 2.455 . S
O106 C103 1.301 . S
O107 U86 2.449 . S
O107 C103 1.282 . S
H108 C81 0.931 . S
H109 C83 0.929 . S
H110 C84 0.930 . S
H111 C85 0.931 . S
H112 C92 0.932 . S
H113 C93 0.930 . S
H114 C94 0.929 . S
H115 C96 0.930 . S
H116 C98 0.932 . S
H117 C99 0.929 . S
H118 C100 0.928 . S
H119 C102 0.932 . S
C120 C121 1.264 . S
C120 C125 1.479 . S
C120 C130 1.465 . S
C121 C120 1.264 . S
C121 C123 1.339 . S
C121 H148 0.931 . S
C122 C123 1.395 1_655 S
C122 C124 1.320 1_655 S
C123 C121 1.339 . S
C123 C122 1.395 1_455 S
C123 H149 0.929 1_455 S
C124 C122 1.320 1_455 S
C124 C125 1.405 . S
C124 H150 0.930 . S
C125 C120 1.479 . S
C125 C124 1.405 . S
C125 H151 0.931 . S
U126 O127 2.454 . S
U126 O128 2.458 . S
U126 C129 2.984 . S
U126 C130 2.847 . S
U126 C143 2.882 . S
U126 O144 2.441 . S
U126 O145 2.420 . S
U126 O146 2.455 . S
U126 O147 2.449 . S
O127 U126 2.454 . S
O127 C129 1.353 . S
O128 U126 2.458 . S
O128 C129 1.286 . S
C129 U126 2.984 . S
C129 O127 1.353 . S
C129 O128 1.286 . S
C129 C131 1.363 . S
C130 C120 1.465 . S
C130 U126 2.847 . S
C130 O144 1.249 . S
C130 O145 1.202 . S
C131 C129 1.363 . S
C131 C133 1.408 . S
C131 C136 1.342 . S
C132 C133 1.310 . S
C132 C135 1.461 . S
C132 H152 0.932 . S
C133 C131 1.408 . S
C133 C132 1.310 . S
C133 H153 0.930 . S
C134 C135 1.474 . S
C134 C136 1.285 . S
C134 H154 0.929 . S
C135 C132 1.461 . S
C135 C134 1.474 . S
C136 C131 1.342 . S
C136 C134 1.285 . S
C136 H155 0.930 . S
C137 C140 1.424 . S
C137 C142 1.245 . S
C137 C143 1.428 . S
C138 C141 1.260 . S
C138 C142 1.477 . S
C138 H156 0.932 . S
C139 C140 1.384 . S
C139 C141 1.479 . S
C139 H157 0.929 . S
C140 C137 1.424 . S
C140 C139 1.384 . S
C140 H158 0.928 . S
C141 C138 1.260 . S
C141 C139 1.479 . S
C142 C137 1.245 . S
C142 C138 1.477 . S
C142 H159 0.932 . S
C143 U126 2.882 . S
C143 C137 1.428 . S
C143 O146 1.301 . S
C143 O147 1.282 . S
O144 U126 2.441 . S
O144 C130 1.249 . S
O145 U126 2.420 . S
O145 C130 1.202 . S
O146 U126 2.455 . S
O146 C143 1.301 . S
O147 U126 2.449 . S
O147 C143 1.282 . S
H148 C121 0.931 . S
H149 C123 0.929 1_655 S
H150 C124 0.930 . S
H151 C125 0.931 . S
H152 C132 0.932 . S
H153 C133 0.930 . S
H154 C134 0.929 . S
H155 C136 0.930 . S
H156 C138 0.932 . S
H157 C139 0.929 . S
H158 C140 0.928 . S
H159 C142 0.932 . S
C160 C161 1.264 . S
C160 C165 1.479 . S
C160 C170 1.465 . S
C161 C160 1.264 . S
C161 C163 1.339 . S
C161 H188 0.931 . S
C162 C163 1.395 . S
C162 C164 1.320 . S
C163 C161 1.339 . S
C163 C162 1.395 . S
C163 H189 0.929 . S
C164 C162 1.320 . S
C164 C165 1.405 . S
C164 H190 0.930 . S
C165 C160 1.479 . S
C165 C164 1.405 . S
C165 H191 0.931 . S
U166 O167 2.454 . S
U166 O168 2.458 . S
U166 C169 2.984 . S
U166 C170 2.847 . S
U166 C183 2.882 . S
U166 O184 2.441 . S
U166 O185 2.420 . S
U166 O186 2.455 . S
U166 O187 2.449 . S
O167 U166 2.454 . S
O167 C169 1.353 . S
O168 U166 2.458 . S
O168 C169 1.286 . S
C169 U166 2.984 . S
C169 O167 1.353 . S
C169 O168 1.286 . S
C169 C171 1.363 . S
C170 C160 1.465 . S
C170 U166 2.847 . S
C170 O184 1.249 . S
C170 O185 1.202 . S
C171 C169 1.363 . S
C171 C173 1.408 . S
C171 C176 1.342 . S
C172 C173 1.310 . S
C172 C175 1.461 . S
C172 H192 0.932 . S
C173 C171 1.408 . S
C173 C172 1.310 . S
C173 H193 0.930 . S
C174 C175 1.474 . S
C174 C176 1.285 . S
C174 H194 0.929 . S
C175 C172 1.461 . S
C175 C174 1.474 . S
C176 C171 1.342 . S
C176 C174 1.285 . S
C176 H195 0.930 . S
C177 C180 1.424 . S
C177 C182 1.245 . S
C177 C183 1.428 . S
C178 C181 1.260 . S
C178 C182 1.477 . S
C178 H196 0.932 . S
C179 C180 1.384 . S
C179 C181 1.479 . S
C179 H197 0.929 . S
C180 C177 1.424 . S
C180 C179 1.384 . S
C180 H198 0.928 . S
C181 C178 1.260 . S
C181 C179 1.479 . S
C182 C177 1.245 . S
C182 C178 1.477 . S
C182 H199 0.932 . S
C183 U166 2.882 . S
C183 C177 1.428 . S
C183 O186 1.301 . S
C183 O187 1.282 . S
O184 U166 2.441 . S
O184 C170 1.249 . S
O185 U166 2.420 . S
O185 C170 1.202 . S
O186 U166 2.455 . S
O186 C183 1.301 . S
O187 U166 2.449 . S
O187 C183 1.282 . S
H188 C161 0.931 . S
H189 C163 0.929 . S
H190 C164 0.930 . S
H191 C165 0.931 . S
H192 C172 0.932 . S
H193 C173 0.930 . S
H194 C174 0.929 . S
H195 C176 0.930 . S
H196 C178 0.932 . S
H197 C179 0.929 . S
H198 C180 0.928 . S
H199 C182 0.932 . S
C200 C201 1.264 . S
C200 C205 1.479 . S
C200 C210 1.465 . S
C201 C200 1.264 . S
C201 C203 1.339 . S
C201 H228 0.931 . S
C202 C203 1.395 . S
C202 C204 1.320 . S
C203 C201 1.339 . S
C203 C202 1.395 . S
C203 H229 0.929 1_455 S
C204 C202 1.320 . S
C204 C205 1.405 . S
C204 H230 0.930 . S
C205 C200 1.479 . S
C205 C204 1.405 . S
C205 H231 0.931 . S
U206 O207 2.454 . S
U206 O208 2.458 . S
U206 C209 2.984 . S
U206 C210 2.847 . S
U206 C223 2.882 . S
U206 O224 2.441 . S
U206 O225 2.420 . S
U206 O226 2.455 . S
U206 O227 2.449 . S
O207 U206 2.454 . S
O207 C209 1.353 . S
O208 U206 2.458 . S
O208 C209 1.286 . S
C209 U206 2.984 . S
C209 O207 1.353 . S
C209 O208 1.286 . S
C209 C211 1.363 . S
C210 C200 1.465 . S
C210 U206 2.847 . S
C210 O224 1.249 . S
C210 O225 1.202 . S
C211 C209 1.363 . S
C211 C213 1.408 . S
C211 C216 1.342 . S
C212 C213 1.310 . S
C212 C215 1.461 . S
C212 H232 0.932 . S
C213 C211 1.408 . S
C213 C212 1.310 . S
C213 H233 0.930 . S
C214 C215 1.474 . S
C214 C216 1.285 . S
C214 H234 0.929 . S
C215 C212 1.461 . S
C215 C214 1.474 . S
C216 C211 1.342 . S
C216 C214 1.285 . S
C216 H235 0.930 . S
C217 C220 1.424 . S
C217 C222 1.245 . S
C217 C223 1.428 . S
C218 C221 1.260 . S
C218 C222 1.477 . S
C218 H236 0.932 . S
C219 C220 1.384 . S
C219 C221 1.479 . S
C219 H237 0.929 . S
C220 C217 1.424 . S
C220 C219 1.384 . S
C220 H238 0.928 . S
C221 C218 1.260 . S
C221 C219 1.479 . S
C222 C217 1.245 . S
C222 C218 1.477 . S
C222 H239 0.932 . S
C223 U206 2.882 . S
C223 C217 1.428 . S
C223 O226 1.301 . S
C223 O227 1.282 . S
O224 U206 2.441 . S
O224 C210 1.249 . S
O225 U206 2.420 . S
O225 C210 1.202 . S
O226 U206 2.455 . S
O226 C223 1.301 . S
O227 U206 2.449 . S
O227 C223 1.282 . S
H228 C201 0.931 . S
H229 C203 0.929 1_655 S
H230 C204 0.930 . S
H231 C205 0.931 . S
H232 C212 0.932 . S
H233 C213 0.930 . S
H234 C214 0.929 . S
H235 C216 0.930 . S
H236 C218 0.932 . S
H237 C219 0.929 . S
H238 C220 0.928 . S
H239 C222 0.932 . S
C240 C241 1.264 . S
C240 C245 1.479 . S
C240 C250 1.465 . S
C241 C240 1.264 . S
C241 C243 1.339 . S
C241 H268 0.931 . S
C242 C243 1.395 . S
C242 C244 1.320 . S
C243 C241 1.339 . S
C243 C242 1.395 . S
C243 H269 0.929 . S
C244 C242 1.320 . S
C244 C245 1.405 . S
C244 H270 0.930 . S
C245 C240 1.479 . S
C245 C244 1.405 . S
C245 H271 0.931 . S
U246 O247 2.454 . S
U246 O248 2.458 . S
U246 C249 2.984 . S
U246 C250 2.847 . S
U246 C263 2.882 . S
U246 O264 2.441 . S
U246 O265 2.420 . S
U246 O266 2.455 . S
U246 O267 2.449 . S
O247 U246 2.454 . S
O247 C249 1.353 . S
O248 U246 2.458 . S
O248 C249 1.286 . S
C249 U246 2.984 . S
C249 O247 1.353 . S
C249 O248 1.286 . S
C249 C251 1.363 . S
C250 C240 1.465 . S
C250 U246 2.847 . S
C250 O264 1.249 . S
C250 O265 1.202 . S
C251 C249 1.363 . S
C251 C253 1.408 . S
C251 C256 1.342 . S
C252 C253 1.310 . S
C252 C255 1.461 . S
C252 H272 0.932 . S
C253 C251 1.408 . S
C253 C252 1.310 . S
C253 H273 0.930 . S
C254 C255 1.474 . S
C254 C256 1.285 . S
C254 H274 0.929 . S
C255 C252 1.461 . S
C255 C254 1.474 . S
C256 C251 1.342 . S
C256 C254 1.285 . S
C256 H275 0.930 . S
C257 C260 1.424 . S
C257 C262 1.245 . S
C257 C263 1.428 . S
C258 C261 1.260 . S
C258 C262 1.477 . S
C258 H276 0.932 . S
C259 C260 1.384 . S
C259 C261 1.479 . S
C259 H277 0.929 . S
C260 C257 1.424 . S
C260 C259 1.384 . S
C260 H278 0.928 . S
C261 C258 1.260 . S
C261 C259 1.479 . S
C262 C257 1.245 . S
C262 C258 1.477 . S
C262 H279 0.932 . S
C263 U246 2.882 . S
C263 C257 1.428 . S
C263 O266 1.301 . S
C263 O267 1.282 . S
O264 U246 2.441 . S
O264 C250 1.249 . S
O265 U246 2.420 . S
O265 C250 1.202 . S
O266 U246 2.455 . S
O266 C263 1.301 . S
O267 U246 2.449 . S
O267 C263 1.282 . S
H268 C241 0.931 . S
H269 C243 0.929 . S
H270 C244 0.930 . S
H271 C245 0.931 . S
H272 C252 0.932 . S
H273 C253 0.930 . S
H274 C254 0.929 . S
H275 C256 0.930 . S
H276 C258 0.932 . S
H277 C259 0.929 . S
H278 C260 0.928 . S
H279 C262 0.932 . S
C280 C281 1.264 . S
C280 C285 1.479 . S
C280 C290 1.465 . S
C281 C280 1.264 . S
C281 C283 1.339 . S
C281 H308 0.931 . S
C282 C283 1.395 . S
C282 C284 1.320 . S
C283 C281 1.339 . S
C283 C282 1.395 . S
C283 H309 0.929 . S
C284 C282 1.320 . S
C284 C285 1.405 . S
C284 H310 0.930 . S
C285 C280 1.479 . S
C285 C284 1.405 . S
C285 H311 0.931 . S
U286 O287 2.454 . S
U286 O288 2.458 . S
U286 C289 2.984 . S
U286 C290 2.847 . S
U286 C303 2.882 . S
U286 O304 2.441 . S
U286 O305 2.420 . S
U286 O306 2.455 . S
U286 O307 2.449 . S
O287 U286 2.454 . S
O287 C289 1.353 . S
O288 U286 2.458 . S
O288 C289 1.286 . S
C289 U286 2.984 . S
C289 O287 1.353 . S
C289 O288 1.286 . S
C289 C291 1.363 . S
C290 C280 1.465 . S
C290 U286 2.847 . S
C290 O304 1.249 . S
C290 O305 1.202 . S
C291 C289 1.363 . S
C291 C293 1.408 . S
C291 C296 1.342 . S
C292 C293 1.310 . S
C292 C295 1.461 . S
C292 H312 0.932 . S
C293 C291 1.408 . S
C293 C292 1.310 . S
C293 H313 0.930 . S
C294 C295 1.474 . S
C294 C296 1.285 . S
C294 H314 0.929 . S
C295 C292 1.461 . S
C295 C294 1.474 . S
C296 C291 1.342 . S
C296 C294 1.285 . S
C296 H315 0.930 . S
C297 C300 1.424 . S
C297 C302 1.245 . S
C297 C303 1.428 . S
C298 C301 1.260 . S
C298 C302 1.477 . S
C298 H316 0.932 . S
C299 C300 1.384 . S
C299 C301 1.479 . S
C299 H317 0.929 . S
C300 C297 1.424 . S
C300 C299 1.384 . S
C300 H318 0.928 . S
C301 C298 1.260 . S
C301 C299 1.479 . S
C302 C297 1.245 . S
C302 C298 1.477 . S
C302 H319 0.932 . S
C303 U286 2.882 . S
C303 C297 1.428 . S
C303 O306 1.301 . S
C303 O307 1.282 . S
O304 U286 2.441 . S
O304 C290 1.249 . S
O305 U286 2.420 . S
O305 C290 1.202 . S
O306 U286 2.455 . S
O306 C303 1.301 . S
O307 U286 2.449 . S
O307 C303 1.282 . S
H308 C281 0.931 . S
H309 C283 0.929 . S
H310 C284 0.930 . S
H311 C285 0.931 . S
H312 C292 0.932 . S
H313 C293 0.930 . S
H314 C294 0.929 . S
H315 C296 0.930 . S
H316 C298 0.932 . S
H317 C299 0.929 . S
H318 C300 0.928 . S
H319 C302 0.932 . S
C320 C321 1.264 . S
C320 C325 1.479 . S
C320 C330 1.465 . S
C321 C320 1.264 . S
C321 C323 1.339 . S
C321 H348 0.931 . S
C322 C323 1.395 . S
C322 C324 1.320 . S
C323 C321 1.339 . S
C323 C322 1.395 . S
C323 H349 0.929 . S
C324 C322 1.320 . S
C324 C325 1.405 . S
C324 H350 0.930 . S
C325 C320 1.479 . S
C325 C324 1.405 . S
C325 H351 0.931 . S
U326 O327 2.454 . S
U326 O328 2.458 . S
U326 C329 2.984 . S
U326 C330 2.847 . S
U326 C343 2.882 . S
U326 O344 2.441 . S
U326 O345 2.420 . S
U326 O346 2.455 . S
U326 O347 2.449 . S
O327 U326 2.454 . S
O327 C329 1.353 . S
O328 U326 2.458 . S
O328 C329 1.286 . S
C329 U326 2.984 . S
C329 O327 1.353 . S
C329 O328 1.286 . S
C329 C331 1.363 . S
C330 C320 1.465 . S
C330 U326 2.847 . S
C330 O344 1.249 . S
C330 O345 1.202 . S
C331 C329 1.363 . S
C331 C333 1.408 . S
C331 C336 1.342 . S
C332 C333 1.310 . S
C332 C335 1.461 . S
C332 H352 0.932 . S
C333 C331 1.408 . S
C333 C332 1.310 . S
C333 H353 0.930 . S
C334 C335 1.474 . S
C334 C336 1.285 . S
C334 H354 0.929 . S
C335 C332 1.461 . S
C335 C334 1.474 . S
C336 C331 1.342 . S
C336 C334 1.285 . S
C336 H355 0.930 . S
C337 C340 1.424 . S
C337 C342 1.245 . S
C337 C343 1.428 . S
C338 C341 1.260 . S
C338 C342 1.477 . S
C338 H356 0.932 . S
C339 C340 1.384 . S
C339 C341 1.479 . S
C339 H357 0.929 . S
C340 C337 1.424 . S
C340 C339 1.384 . S
C340 H358 0.928 . S
C341 C338 1.260 . S
C341 C339 1.479 . S
C342 C337 1.245 . S
C342 C338 1.477 . S
C342 H359 0.932 . S
C343 U326 2.882 . S
C343 C337 1.428 . S
C343 O346 1.301 . S
C343 O347 1.282 . S
O344 U326 2.441 . S
O344 C330 1.249 . S
O345 U326 2.420 . S
O345 C330 1.202 . S
O346 U326 2.455 . S
O346 C343 1.301 . S
O347 U326 2.449 . S
O347 C343 1.282 . S
H348 C321 0.931 . S
H349 C323 0.929 . S
H350 C324 0.930 . S
H351 C325 0.931 . S
H352 C332 0.932 . S
H353 C333 0.930 . S
H354 C334 0.929 . S
H355 C336 0.930 . S
H356 C338 0.932 . S
H357 C339 0.929 . S
H358 C340 0.928 . S
H359 C342 0.932 . S
C360 C361 1.264 . S
C360 C365 1.479 . S
C360 C370 1.465 . S
C361 C360 1.264 . S
C361 C363 1.339 . S
C361 H388 0.931 . S
C362 C363 1.395 . S
C362 C364 1.320 . S
C363 C361 1.339 . S
C363 C362 1.395 . S
C363 H389 0.929 . S
C364 C362 1.320 . S
C364 C365 1.405 . S
C364 H390 0.930 . S
C365 C360 1.479 . S
C365 C364 1.405 . S
C365 H391 0.931 . S
U366 O367 2.454 . S
U366 O368 2.458 . S
U366 C369 2.984 . S
U366 C370 2.847 . S
U366 C383 2.882 . S
U366 O384 2.441 . S
U366 O385 2.420 . S
U366 O386 2.455 . S
U366 O387 2.449 . S
O367 U366 2.454 . S
O367 C369 1.353 . S
O368 U366 2.458 . S
O368 C369 1.286 . S
C369 U366 2.984 . S
C369 O367 1.353 . S
C369 O368 1.286 . S
C369 C371 1.363 . S
C370 C360 1.465 . S
C370 U366 2.847 . S
C370 O384 1.249 . S
C370 O385 1.202 . S
C371 C369 1.363 . S
C371 C373 1.408 . S
C371 C376 1.342 . S
C372 C373 1.310 . S
C372 C375 1.461 . S
C372 H392 0.932 . S
C373 C371 1.408 . S
C373 C372 1.310 . S
C373 H393 0.930 . S
C374 C375 1.474 . S
C374 C376 1.285 . S
C374 H394 0.929 . S
C375 C372 1.461 . S
C375 C374 1.474 . S
C376 C371 1.342 . S
C376 C374 1.285 . S
C376 H395 0.930 . S
C377 C380 1.424 . S
C377 C382 1.245 . S
C377 C383 1.428 . S
C378 C381 1.260 . S
C378 C382 1.477 . S
C378 H396 0.932 . S
C379 C380 1.384 . S
C379 C381 1.479 . S
C379 H397 0.929 . S
C380 C377 1.424 . S
C380 C379 1.384 . S
C380 H398 0.928 . S
C381 C378 1.260 . S
C381 C379 1.479 . S
C382 C377 1.245 . S
C382 C378 1.477 . S
C382 H399 0.932 . S
C383 U366 2.882 . S
C383 C377 1.428 . S
C383 O386 1.301 . S
C383 O387 1.282 . S
O384 U366 2.441 . S
O384 C370 1.249 . S
O385 U366 2.420 . S
O385 C370 1.202 . S
O386 U366 2.455 . S
O386 C383 1.301 . S
O387 U366 2.449 . S
O387 C383 1.282 . S
H388 C361 0.931 . S
H389 C363 0.929 . S
H390 C364 0.930 . S
H391 C365 0.931 . S
H392 C372 0.932 . S
H393 C373 0.930 . S
H394 C374 0.929 . S
H395 C376 0.930 . S
H396 C378 0.932 . S
H397 C379 0.929 . S
H398 C380 0.928 . S
H399 C382 0.932 . S
C400 C401 1.264 . S
C400 C405 1.479 . S
C400 C410 1.465 . S
C401 C400 1.264 . S
C401 C403 1.339 . S
C401 H428 0.931 . S
C402 C403 1.395 . S
C402 C404 1.320 . S
C403 C401 1.339 . S
C403 C402 1.395 . S
C403 H429 0.929 . S
C404 C402 1.320 . S
C404 C405 1.405 . S
C404 H430 0.930 1_556 S
C405 C400 1.479 . S
C405 C404 1.405 . S
C405 H431 0.931 . S
U406 O407 2.454 . S
U406 O408 2.458 . S
U406 C409 2.984 . S
U406 C410 2.847 . S
U406 C423 2.882 . S
U406 O424 2.441 . S
U406 O425 2.420 . S
U406 O426 2.455 . S
U406 O427 2.449 . S
O407 U406 2.454 . S
O407 C409 1.353 . S
O408 U406 2.458 . S
O408 C409 1.286 . S
C409 U406 2.984 . S
C409 O407 1.353 . S
C409 O408 1.286 . S
C409 C411 1.363 . S
C410 C400 1.465 . S
C410 U406 2.847 . S
C410 O424 1.249 . S
C410 O425 1.202 . S
C411 C409 1.363 . S
C411 C413 1.408 . S
C411 C416 1.342 . S
C412 C413 1.310 . S
C412 C415 1.461 . S
C412 H432 0.932 1_556 S
C413 C411 1.408 . S
C413 C412 1.310 . S
C413 H433 0.930 . S
C414 C415 1.474 . S
C414 C416 1.285 . S
C414 H434 0.929 . S
C415 C412 1.461 . S
C415 C414 1.474 . S
C416 C411 1.342 . S
C416 C414 1.285 . S
C416 H435 0.930 . S
C417 C420 1.424 . S
C417 C422 1.245 . S
C417 C423 1.428 . S
C418 C421 1.260 . S
C418 C422 1.477 . S
C418 H436 0.932 . S
C419 C420 1.384 . S
C419 C421 1.479 . S
C419 H437 0.929 . S
C420 C417 1.424 . S
C420 C419 1.384 . S
C420 H438 0.928 . S
C421 C418 1.260 . S
C421 C419 1.479 . S
C422 C417 1.245 . S
C422 C418 1.477 . S
C422 H439 0.932 . S
C423 U406 2.882 . S
C423 C417 1.428 . S
C423 O426 1.301 . S
C423 O427 1.282 . S
O424 U406 2.441 . S
O424 C410 1.249 . S
O425 U406 2.420 . S
O425 C410 1.202 . S
O426 U406 2.455 . S
O426 C423 1.301 . S
O427 U406 2.449 . S
O427 C423 1.282 . S
H428 C401 0.931 . S
H429 C403 0.929 . S
H430 C404 0.930 1_554 S
H431 C405 0.931 . S
H432 C412 0.932 1_554 S
H433 C413 0.930 . S
H434 C414 0.929 . S
H435 C416 0.930 . S
H436 C418 0.932 . S
H437 C419 0.929 . S
H438 C420 0.928 . S
H439 C422 0.932 . S
C440 C441 1.264 . S
C440 C445 1.479 . S
C440 C450 1.465 . S
C441 C440 1.264 . S
C441 C443 1.339 . S
C441 H468 0.931 . S
C442 C443 1.395 . S
C442 C444 1.320 . S
C443 C441 1.339 . S
C443 C442 1.395 . S
C443 H469 0.929 . S
C444 C442 1.320 . S
C444 C445 1.405 . S
C444 H470 0.930 . S
C445 C440 1.479 . S
C445 C444 1.405 . S
C445 H471 0.931 . S
U446 O447 2.454 . S
U446 O448 2.458 . S
U446 C449 2.984 . S
U446 C450 2.847 . S
U446 C463 2.882 . S
U446 O464 2.441 . S
U446 O465 2.420 . S
U446 O466 2.455 . S
U446 O467 2.449 . S
O447 U446 2.454 . S
O447 C449 1.353 . S
O448 U446 2.458 . S
O448 C449 1.286 . S
C449 U446 2.984 . S
C449 O447 1.353 . S
C449 O448 1.286 . S
C449 C451 1.363 . S
C450 C440 1.465 . S
C450 U446 2.847 . S
C450 O464 1.249 . S
C450 O465 1.202 . S
C451 C449 1.363 . S
C451 C453 1.408 . S
C451 C456 1.342 . S
C452 C453 1.310 . S
C452 C455 1.461 . S
C452 H472 0.932 1_556 S
C453 C451 1.408 . S
C453 C452 1.310 . S
C453 H473 0.930 . S
C454 C455 1.474 . S
C454 C456 1.285 . S
C454 H474 0.929 . S
C455 C452 1.461 . S
C455 C454 1.474 . S
C456 C451 1.342 . S
C456 C454 1.285 . S
C456 H475 0.930 . S
C457 C460 1.424 . S
C457 C462 1.245 . S
C457 C463 1.428 . S
C458 C461 1.260 . S
C458 C462 1.477 . S
C458 H476 0.932 . S
C459 C460 1.384 . S
C459 C461 1.479 . S
C459 H477 0.929 . S
C460 C457 1.424 . S
C460 C459 1.384 . S
C460 H478 0.928 . S
C461 C458 1.260 . S
C461 C459 1.479 . S
C462 C457 1.245 . S
C462 C458 1.477 . S
C462 H479 0.932 . S
C463 U446 2.882 . S
C463 C457 1.428 . S
C463 O466 1.301 . S
C463 O467 1.282 . S
O464 U446 2.441 . S
O464 C450 1.249 . S
O465 U446 2.420 . S
O465 C450 1.202 . S
O466 U446 2.455 . S
O466 C463 1.301 . S
O467 U446 2.449 . S
O467 C463 1.282 . S
H468 C441 0.931 . S
H469 C443 0.929 . S
H470 C444 0.930 . S
H471 C445 0.931 . S
H472 C452 0.932 1_554 S
H473 C453 0.930 . S
H474 C454 0.929 . S
H475 C456 0.930 . S
H476 C458 0.932 . S
H477 C459 0.929 . S
H478 C460 0.928 . S
H479 C462 0.932 . S
C480 C481 1.264 . S
C480 C485 1.479 . S
C480 C490 1.465 . S
C481 C480 1.264 . S
C481 C483 1.339 . S
C481 H508 0.931 . S
C482 C483 1.395 . S
C482 C484 1.320 . S
C483 C481 1.339 . S
C483 C482 1.395 . S
C483 H509 0.929 . S
C484 C482 1.320 . S
C484 C485 1.405 . S
C484 H510 0.930 . S
C485 C480 1.479 . S
C485 C484 1.405 . S
C485 H511 0.931 . S
U486 O487 2.454 . S
U486 O488 2.458 . S
U486 C489 2.984 . S
U486 C490 2.847 . S
U486 C503 2.882 . S
U486 O504 2.441 . S
U486 O505 2.420 . S
U486 O506 2.455 . S
U486 O507 2.449 . S
O487 U486 2.454 . S
O487 C489 1.353 . S
O488 U486 2.458 . S
O488 C489 1.286 . S
C489 U486 2.984 . S
C489 O487 1.353 . S
C489 O488 1.286 . S
C489 C491 1.363 . S
C490 C480 1.465 . S
C490 U486 2.847 . S
C490 O504 1.249 . S
C490 O505 1.202 . S
C491 C489 1.363 . S
C491 C493 1.408 . S
C491 C496 1.342 . S
C492 C493 1.310 . S
C492 C495 1.461 . S
C492 H512 0.932 1_554 S
C493 C491 1.408 . S
C493 C492 1.310 . S
C493 H513 0.930 . S
C494 C495 1.474 . S
C494 C496 1.285 . S
C494 H514 0.929 . S
C495 C492 1.461 . S
C495 C494 1.474 . S
C496 C491 1.342 . S
C496 C494 1.285 . S
C496 H515 0.930 . S
C497 C500 1.424 . S
C497 C502 1.245 . S
C497 C503 1.428 . S
C498 C501 1.260 . S
C498 C502 1.477 . S
C498 H516 0.932 . S
C499 C500 1.384 . S
C499 C501 1.479 . S
C499 H517 0.929 . S
C500 C497 1.424 . S
C500 C499 1.384 . S
C500 H518 0.928 . S
C501 C498 1.260 . S
C501 C499 1.479 . S
C502 C497 1.245 . S
C502 C498 1.477 . S
C502 H519 0.932 . S
C503 U486 2.882 . S
C503 C497 1.428 . S
C503 O506 1.301 . S
C503 O507 1.282 . S
O504 U486 2.441 . S
O504 C490 1.249 . S
O505 U486 2.420 . S
O505 C490 1.202 . S
O506 U486 2.455 . S
O506 C503 1.301 . S
O507 U486 2.449 . S
O507 C503 1.282 . S
H508 C481 0.931 . S
H509 C483 0.929 . S
H510 C484 0.930 . S
H511 C485 0.931 . S
H512 C492 0.932 1_556 S
H513 C493 0.930 . S
H514 C494 0.929 . S
H515 C496 0.930 . S
H516 C498 0.932 . S
H517 C499 0.929 . S
H518 C500 0.928 . S
H519 C502 0.932 . S
C520 C521 1.264 . S
C520 C525 1.479 . S
C520 C530 1.465 . S
C521 C520 1.264 . S
C521 C523 1.339 . S
C521 H548 0.931 . S
C522 C523 1.395 . S
C522 C524 1.320 . S
C523 C521 1.339 . S
C523 C522 1.395 . S
C523 H549 0.929 . S
C524 C522 1.320 . S
C524 C525 1.405 . S
C524 H550 0.930 . S
C525 C520 1.479 . S
C525 C524 1.405 . S
C525 H551 0.931 . S
U526 O527 2.454 . S
U526 O528 2.458 . S
U526 C529 2.984 . S
U526 C530 2.847 . S
U526 C543 2.882 . S
U526 O544 2.441 . S
U526 O545 2.420 . S
U526 O546 2.455 . S
U526 O547 2.449 . S
O527 U526 2.454 . S
O527 C529 1.353 . S
O528 U526 2.458 . S
O528 C529 1.286 . S
C529 U526 2.984 . S
C529 O527 1.353 . S
C529 O528 1.286 . S
C529 C531 1.363 . S
C530 C520 1.465 . S
C530 U526 2.847 . S
C530 O544 1.249 . S
C530 O545 1.202 . S
C531 C529 1.363 . S
C531 C533 1.408 . S
C531 C536 1.342 . S
C532 C533 1.310 . S
C532 C535 1.461 . S
C532 H552 0.932 . S
C533 C531 1.408 . S
C533 C532 1.310 . S
C533 H553 0.930 . S
C534 C535 1.474 . S
C534 C536 1.285 . S
C534 H554 0.929 . S
C535 C532 1.461 . S
C535 C534 1.474 . S
C536 C531 1.342 . S
C536 C534 1.285 . S
C536 H555 0.930 . S
C537 C540 1.424 . S
C537 C542 1.245 . S
C537 C543 1.428 . S
C538 C541 1.260 . S
C538 C542 1.477 . S
C538 H556 0.932 . S
C539 C540 1.384 . S
C539 C541 1.479 . S
C539 H557 0.929 . S
C540 C537 1.424 . S
C540 C539 1.384 . S
C540 H558 0.928 . S
C541 C538 1.260 . S
C541 C539 1.479 . S
C542 C537 1.245 . S
C542 C538 1.477 . S
C542 H559 0.932 . S
C543 U526 2.882 . S
C543 C537 1.428 . S
C543 O546 1.301 . S
C543 O547 1.282 . S
O544 U526 2.441 . S
O544 C530 1.249 . S
O545 U526 2.420 . S
O545 C530 1.202 . S
O546 U526 2.455 . S
O546 C543 1.301 . S
O547 U526 2.449 . S
O547 C543 1.282 . S
H548 C521 0.931 . S
H549 C523 0.929 . S
H550 C524 0.930 . S
H551 C525 0.931 . S
H552 C532 0.932 . S
H553 C533 0.930 . S
H554 C534 0.929 . S
H555 C536 0.930 . S
H556 C538 0.932 . S
H557 C539 0.929 . S
H558 C540 0.928 . S
H559 C542 0.932 . S
C560 C561 1.264 . S
C560 C565 1.479 . S
C560 C570 1.465 . S
C561 C560 1.264 . S
C561 C563 1.339 . S
C561 H588 0.931 . S
C562 C563 1.395 . S
C562 C564 1.320 . S
C563 C561 1.339 . S
C563 C562 1.395 . S
C563 H589 0.929 . S
C564 C562 1.320 . S
C564 C565 1.405 . S
C564 H590 0.930 . S
C565 C560 1.479 . S
C565 C564 1.405 . S
C565 H591 0.931 . S
U566 O567 2.454 . S
U566 O568 2.458 . S
U566 C569 2.984 . S
U566 C570 2.847 . S
U566 C583 2.882 . S
U566 O584 2.441 . S
U566 O585 2.420 . S
U566 O586 2.455 . S
U566 O587 2.449 . S
O567 U566 2.454 . S
O567 C569 1.353 . S
O568 U566 2.458 . S
O568 C569 1.286 . S
C569 U566 2.984 . S
C569 O567 1.353 . S
C569 O568 1.286 . S
C569 C571 1.363 . S
C570 C560 1.465 . S
C570 U566 2.847 . S
C570 O584 1.249 . S
C570 O585 1.202 . S
C571 C569 1.363 . S
C571 C573 1.408 . S
C571 C576 1.342 . S
C572 C573 1.310 . S
C572 C575 1.461 . S
C572 H592 0.932 . S
C573 C571 1.408 . S
C573 C572 1.310 . S
C573 H593 0.930 . S
C574 C575 1.474 . S
C574 C576 1.285 . S
C574 H594 0.929 . S
C575 C572 1.461 . S
C575 C574 1.474 . S
C576 C571 1.342 . S
C576 C574 1.285 . S
C576 H595 0.930 . S
C577 C580 1.424 . S
C577 C582 1.245 . S
C577 C583 1.428 . S
C578 C581 1.260 . S
C578 C582 1.477 . S
C578 H596 0.932 . S
C579 C580 1.384 . S
C579 C581 1.479 . S
C579 H597 0.929 . S
C580 C577 1.424 . S
C580 C579 1.384 . S
C580 H598 0.928 . S
C581 C578 1.260 . S
C581 C579 1.479 . S
C582 C577 1.245 . S
C582 C578 1.477 . S
C582 H599 0.932 . S
C583 U566 2.882 . S
C583 C577 1.428 . S
C583 O586 1.301 . S
C583 O587 1.282 . S
O584 U566 2.441 . S
O584 C570 1.249 . S
O585 U566 2.420 . S
O585 C570 1.202 . S
O586 U566 2.455 . S
O586 C583 1.301 . S
O587 U566 2.449 . S
O587 C583 1.282 . S
H588 C561 0.931 . S
H589 C563 0.929 . S
H590 C564 0.930 . S
H591 C565 0.931 . S
H592 C572 0.932 . S
H593 C573 0.930 . S
H594 C574 0.929 . S
H595 C576 0.930 . S
H596 C578 0.932 . S
H597 C579 0.929 . S
H598 C580 0.928 . S
H599 C582 0.932 . S
C600 C601 1.264 . S
C600 C605 1.479 . S
C600 C610 1.465 . S
C601 C600 1.264 . S
C601 C603 1.339 . S
C601 H628 0.931 . S
C602 C603 1.395 . S
C602 C604 1.320 . S
C603 C601 1.339 . S
C603 C602 1.395 . S
C603 H629 0.929 . S
C604 C602 1.320 . S
C604 C605 1.405 . S
C604 H630 0.930 . S
C605 C600 1.479 . S
C605 C604 1.405 . S
C605 H631 0.931 . S
U606 O607 2.454 . S
U606 O608 2.458 . S
U606 C609 2.984 . S
U606 C610 2.847 . S
U606 C623 2.882 . S
U606 O624 2.441 . S
U606 O625 2.420 . S
U606 O626 2.455 . S
U606 O627 2.449 . S
O607 U606 2.454 . S
O607 C609 1.353 . S
O608 U606 2.458 . S
O608 C609 1.286 . S
C609 U606 2.984 . S
C609 O607 1.353 . S
C609 O608 1.286 . S
C609 C611 1.363 . S
C610 C600 1.465 . S
C610 U606 2.847 . S
C610 O624 1.249 . S
C610 O625 1.202 . S
C611 C609 1.363 . S
C611 C613 1.408 . S
C611 C616 1.342 . S
C612 C613 1.310 . S
C612 C615 1.461 . S
C612 H632 0.932 . S
C613 C611 1.408 . S
C613 C612 1.310 . S
C613 H633 0.930 . S
C614 C615 1.474 . S
C614 C616 1.285 . S
C614 H634 0.929 . S
C615 C612 1.461 . S
C615 C614 1.474 . S
C616 C611 1.342 . S
C616 C614 1.285 . S
C616 H635 0.930 . S
C617 C620 1.424 . S
C617 C622 1.245 . S
C617 C623 1.428 . S
C618 C621 1.260 . S
C618 C622 1.477 . S
C618 H636 0.932 . S
C619 C620 1.384 . S
C619 C621 1.479 . S
C619 H637 0.929 . S
C620 C617 1.424 . S
C620 C619 1.384 . S
C620 H638 0.928 . S
C621 C618 1.260 . S
C621 C619 1.479 . S
C622 C617 1.245 . S
C622 C618 1.477 . S
C622 H639 0.932 . S
C623 U606 2.882 . S
C623 C617 1.428 . S
C623 O626 1.301 . S
C623 O627 1.282 . S
O624 U606 2.441 . S
O624 C610 1.249 . S
O625 U606 2.420 . S
O625 C610 1.202 . S
O626 U606 2.455 . S
O626 C623 1.301 . S
O627 U606 2.449 . S
O627 C623 1.282 . S
H628 C601 0.931 . S
H629 C603 0.929 . S
H630 C604 0.930 . S
H631 C605 0.931 . S
H632 C612 0.932 . S
H633 C613 0.930 . S
H634 C614 0.929 . S
H635 C616 0.930 . S
H636 C618 0.932 . S
H637 C619 0.929 . S
H638 C620 0.928 . S
H639 C622 0.932 . S
C640 C641 1.264 . S
C640 C645 1.479 . S
C640 C650 1.465 . S
C641 C640 1.264 . S
C641 C643 1.339 . S
C641 H668 0.931 . S
C642 C643 1.395 . S
C642 C644 1.320 . S
C643 C641 1.339 . S
C643 C642 1.395 . S
C643 H669 0.929 . S
C644 C642 1.320 . S
C644 C645 1.405 . S
C644 H670 0.930 . S
C645 C640 1.479 . S
C645 C644 1.405 . S
C645 H671 0.931 . S
U646 O647 2.454 . S
U646 O648 2.458 . S
U646 C649 2.984 . S
U646 C650 2.847 . S
U646 C663 2.882 . S
U646 O664 2.441 . S
U646 O665 2.420 . S
U646 O666 2.455 . S
U646 O667 2.449 . S
O647 U646 2.454 . S
O647 C649 1.353 . S
O648 U646 2.458 . S
O648 C649 1.286 . S
C649 U646 2.984 . S
C649 O647 1.353 . S
C649 O648 1.286 . S
C649 C651 1.363 . S
C650 C640 1.465 . S
C650 U646 2.847 . S
C650 O664 1.249 . S
C650 O665 1.202 . S
C651 C649 1.363 . S
C651 C653 1.408 . S
C651 C656 1.342 . S
C652 C653 1.310 . S
C652 C655 1.461 . S
C652 H672 0.932 . S
C653 C651 1.408 . S
C653 C652 1.310 . S
C653 H673 0.930 . S
C654 C655 1.474 . S
C654 C656 1.285 . S
C654 H674 0.929 . S
C655 C652 1.461 . S
C655 C654 1.474 . S
C656 C651 1.342 . S
C656 C654 1.285 . S
C656 H675 0.930 . S
C657 C660 1.424 . S
C657 C662 1.245 . S
C657 C663 1.428 . S
C658 C661 1.260 . S
C658 C662 1.477 1_655 S
C658 H676 0.932 . S
C659 C660 1.384 1_655 S
C659 C661 1.479 . S
C659 H677 0.929 . S
C660 C657 1.424 . S
C660 C659 1.384 1_455 S
C660 H678 0.928 . S
C661 C658 1.260 . S
C661 C659 1.479 . S
C662 C657 1.245 . S
C662 C658 1.477 1_455 S
C662 H679 0.932 . S
C663 U646 2.882 . S
C663 C657 1.428 . S
C663 O666 1.301 . S
C663 O667 1.282 . S
O664 U646 2.441 . S
O664 C650 1.249 . S
O665 U646 2.420 . S
O665 C650 1.202 . S
O666 U646 2.455 . S
O666 C663 1.301 . S
O667 U646 2.449 . S
O667 C663 1.282 . S
H668 C641 0.931 . S
H669 C643 0.929 . S
H670 C644 0.930 . S
H671 C645 0.931 . S
H672 C652 0.932 . S
H673 C653 0.930 . S
H674 C654 0.929 . S
H675 C656 0.930 . S
H676 C658 0.932 . S
H677 C659 0.929 . S
H678 C660 0.928 . S
H679 C662 0.932 . S
C680 C681 1.264 . S
C680 C685 1.479 . S
C680 C690 1.465 . S
C681 C680 1.264 . S
C681 C683 1.339 . S
C681 H708 0.931 . S
C682 C683 1.395 . S
C682 C684 1.320 . S
C683 C681 1.339 . S
C683 C682 1.395 . S
C683 H709 0.929 . S
C684 C682 1.320 . S
C684 C685 1.405 . S
C684 H710 0.930 . S
C685 C680 1.479 . S
C685 C684 1.405 . S
C685 H711 0.931 . S
U686 O687 2.454 . S
U686 O688 2.458 . S
U686 C689 2.984 . S
U686 C690 2.847 . S
U686 C703 2.882 . S
U686 O704 2.441 . S
U686 O705 2.420 . S
U686 O706 2.455 . S
U686 O707 2.449 . S
O687 U686 2.454 . S
O687 C689 1.353 . S
O688 U686 2.458 . S
O688 C689 1.286 . S
C689 U686 2.984 . S
C689 O687 1.353 . S
C689 O688 1.286 . S
C689 C691 1.363 . S
C690 C680 1.465 . S
C690 U686 2.847 . S
C690 O704 1.249 . S
C690 O705 1.202 . S
C691 C689 1.363 . S
C691 C693 1.408 . S
C691 C696 1.342 . S
C692 C693 1.310 . S
C692 C695 1.461 . S
C692 H712 0.932 . S
C693 C691 1.408 . S
C693 C692 1.310 . S
C693 H713 0.930 . S
C694 C695 1.474 . S
C694 C696 1.285 . S
C694 H714 0.929 . S
C695 C692 1.461 . S
C695 C694 1.474 . S
C696 C691 1.342 . S
C696 C694 1.285 . S
C696 H715 0.930 . S
C697 C700 1.424 . S
C697 C702 1.245 . S
C697 C703 1.428 . S
C698 C701 1.260 . S
C698 C702 1.477 . S
C698 H716 0.932 . S
C699 C700 1.384 . S
C699 C701 1.479 . S
C699 H717 0.929 . S
C700 C697 1.424 . S
C700 C699 1.384 . S
C700 H718 0.928 . S
C701 C698 1.260 . S
C701 C699 1.479 . S
C702 C697 1.245 . S
C702 C698 1.477 . S
C702 H719 0.932 . S
C703 U686 2.882 . S
C703 C697 1.428 . S
C703 O706 1.301 . S
C703 O707 1.282 . S
O704 U686 2.441 . S
O704 C690 1.249 . S
O705 U686 2.420 . S
O705 C690 1.202 . S
O706 U686 2.455 . S
O706 C703 1.301 . S
O707 U686 2.449 . S
O707 C703 1.282 . S
H708 C681 0.931 . S
H709 C683 0.929 . S
H710 C684 0.930 . S
H711 C685 0.931 . S
H712 C692 0.932 . S
H713 C693 0.930 . S
H714 C694 0.929 . S
H715 C696 0.930 . S
H716 C698 0.932 . S
H717 C699 0.929 . S
H718 C700 0.928 . S
H719 C702 0.932 . S
Eu720 C729 2.828 . S
Eu720 O731 2.392 1_556 S
Eu720 O733 2.418 . S
Eu720 O738 2.373 1_565 S
Eu720 O741 2.488 . S
Eu720 O742 2.471 1_565 S
Eu720 O743 2.349 1_565 S
Eu721 O730 2.373 1_545 S
Eu721 O734 2.488 . S
Eu721 O735 2.447 1_545 S
Eu721 O736 2.349 1_545 S
Eu721 O739 2.392 . S
Eu721 O740 2.418 . S
Eu721 C750 2.828 . S
C722 O740 1.280 . S
C722 O743 1.251 1_554 S
C723 C724 1.379 1_565 S
C723 C727 1.373 . S
C723 C729 1.505 . S
C724 C723 1.379 1_545 S
C724 C726 1.369 . S
C724 H752 0.930 . S
C725 C727 1.383 . S
C725 C728 1.382 1_565 S
C725 H753 0.930 . S
C726 C724 1.369 . S
C726 C728 1.392 . S
C726 H754 0.930 . S
C727 C723 1.373 . S
C727 C725 1.383 . S
C727 H755 0.931 . S
C728 C725 1.382 1_545 S
C728 C726 1.392 . S
C729 Eu720 2.828 . S
C729 C723 1.505 . S
C729 O741 1.249 . S
C729 O742 1.244 1_565 S
O730 Eu721 2.373 1_565 S
O730 C732 1.258 . S
O731 Eu720 2.392 1_554 S
O731 C732 1.242 . S
C732 O730 1.258 . S
C732 O731 1.242 . S
O733 Eu720 2.418 . S
O733 C737 1.244 1_556 S
O734 Eu721 2.488 . S
O734 C750 1.249 . S
O735 Eu721 2.447 1_565 S
O735 C750 1.207 1_565 S
O736 Eu721 2.349 1_565 S
O736 C737 1.265 . S
C737 O733 1.244 1_554 S
C737 O736 1.265 . S
O738 Eu720 2.373 1_545 S
O738 C751 1.258 . S
O739 Eu721 2.392 . S
O739 C751 1.242 1_554 S
O740 Eu721 2.418 . S
O740 C722 1.280 . S
O741 Eu720 2.488 . S
O741 C729 1.249 . S
O742 Eu720 2.471 1_545 S
O742 C729 1.244 1_545 S
O743 Eu720 2.349 1_545 S
O743 C722 1.251 1_556 S
C744 C745 1.379 1_545 S
C744 C748 1.373 . S
C744 C750 1.505 . S
C745 C744 1.379 1_565 S
C745 C747 1.369 . S
C745 H756 0.930 . S
C746 C748 1.383 . S
C746 C749 1.382 1_545 S
C746 H757 0.930 . S
C747 C745 1.369 . S
C747 C749 1.392 . S
C747 H758 0.930 . S
C748 C744 1.373 . S
C748 C746 1.383 . S
C748 H759 0.931 . S
C749 C746 1.382 1_565 S
C749 C747 1.392 . S
C750 Eu721 2.828 . S
C750 O734 1.249 . S
C750 O735 1.207 1_545 S
C750 C744 1.505 . S
C751 O738 1.258 . S
C751 O739 1.242 1_556 S
H752 C724 0.930 . S
H753 C725 0.930 . S
H754 C726 0.930 . S
H755 C727 0.931 . S
H756 C745 0.930 . S
H757 C746 0.930 . S
H758 C747 0.930 . S
H759 C748 0.931 . S
Eu760 C769 2.828 . S
Eu760 O771 2.392 1_556 S
Eu760 O773 2.418 . S
Eu760 O778 2.373 1_455 S
Eu760 O781 2.488 . S
Eu760 O782 2.471 1_455 S
Eu760 O783 2.349 1_455 S
Eu761 O770 2.373 1_655 S
Eu761 O774 2.488 . S
Eu761 O775 2.471 1_655 S
Eu761 O776 2.349 1_655 S
Eu761 O779 2.392 . S
Eu761 O780 2.418 . S
Eu761 C790 2.828 . S
C762 O780 1.244 1_556 S
C762 O783 1.265 . S
C763 C764 1.379 1_455 S
C763 C767 1.373 . S
C763 C769 1.505 . S
C764 C763 1.379 1_655 S
C764 C766 1.369 . S
C764 H792 0.930 . S
C765 C767 1.383 . S
C765 C768 1.382 1_455 S
C765 H793 0.930 . S
C766 C764 1.369 . S
C766 C768 1.392 . S
C766 H794 0.930 . S
C767 C763 1.373 . S
C767 C765 1.383 . S
C767 H795 0.931 . S
C768 C765 1.382 1_655 S
C768 C766 1.392 . S
C769 Eu760 2.828 . S
C769 C763 1.505 . S
C769 O781 1.249 . S
C769 O782 1.244 1_455 S
O770 Eu761 2.373 1_455 S
O770 C772 1.258 . S
O771 Eu760 2.392 1_554 S
O771 C772 1.242 . S
C772 O770 1.258 . S
C772 O771 1.242 . S
O773 Eu760 2.418 . S
O773 C777 1.244 1_556 S
O774 Eu761 2.488 . S
O774 C790 1.249 . S
O775 Eu761 2.471 1_455 S
O775 C790 1.244 1_455 S
O776 Eu761 2.349 1_455 S
O776 C777 1.265 . S
C777 O773 1.244 1_554 S
C777 O776 1.265 . S
O778 Eu760 2.373 1_655 S
O778 C791 1.258 . S
O779 Eu761 2.392 . S
O779 C791 1.242 1_554 S
O780 Eu761 2.418 . S
O780 C762 1.244 1_554 S
O781 Eu760 2.488 . S
O781 C769 1.249 . S
O782 Eu760 2.471 1_655 S
O782 C769 1.244 1_655 S
O783 Eu760 2.349 1_655 S
O783 C762 1.265 . S
C784 C785 1.367 1_655 S
C784 C788 1.380 . S
C784 C790 1.510 . S
C785 C784 1.367 1_455 S
C785 C787 1.369 . S
C785 H796 0.930 . S
C786 C788 1.383 . S
C786 C789 1.382 1_655 S
C786 H797 0.930 . S
C787 C785 1.369 . S
C787 C789 1.392 . S
C787 H798 0.930 . S
C788 C784 1.380 . S
C788 C786 1.383 . S
C788 H799 0.931 . S
C789 C786 1.382 1_455 S
C789 C787 1.392 . S
C790 Eu761 2.828 . S
C790 O774 1.249 . S
C790 O775 1.244 1_655 S
C790 C784 1.510 . S
C791 O778 1.258 . S
C791 O779 1.242 1_556 S
H792 C764 0.930 . S
H793 C765 0.930 . S
H794 C766 0.930 . S
H795 C767 0.931 . S
H796 C785 0.930 . S
H797 C786 0.930 . S
H798 C787 0.930 . S
H799 C788 0.931 . S
Eu800 C809 2.828 . S
Eu800 O811 2.392 . S
Eu800 O813 2.418 . S
Eu800 O818 2.373 . S
Eu800 O821 2.488 . S
Eu800 O822 2.471 . S
Eu800 O823 2.349 . S
Eu801 O810 2.373 . S
Eu801 O814 2.488 . S
Eu801 O815 2.471 . S
Eu801 O816 2.349 . S
Eu801 O819 2.392 1_556 S
Eu801 O820 2.418 . S
Eu801 C830 2.828 . S
C802 O820 1.244 1_554 S
C802 O823 1.265 . S
C803 C804 1.379 . S
C803 C807 1.373 . S
C803 C809 1.505 . S
C804 C803 1.379 . S
C804 C806 1.369 . S
C804 H832 0.930 . S
C805 C807 1.383 . S
C805 C808 1.382 . S
C805 H833 0.930 . S
C806 C804 1.369 . S
C806 C808 1.392 . S
C806 H834 0.930 . S
C807 C803 1.373 . S
C807 C805 1.383 . S
C807 H835 0.931 . S
C808 C805 1.382 . S
C808 C806 1.392 . S
C809 Eu800 2.828 . S
C809 C803 1.505 . S
C809 O821 1.249 . S
C809 O822 1.244 . S
O810 Eu801 2.373 . S
O810 C812 1.258 . S
O811 Eu800 2.392 . S
O811 C812 1.242 1_554 S
C812 O810 1.258 . S
C812 O811 1.242 1_556 S
O813 Eu800 2.418 . S
O813 C817 1.244 1_554 S
O814 Eu801 2.488 . S
O814 C830 1.249 . S
O815 Eu801 2.471 . S
O815 C830 1.244 . S
O816 Eu801 2.349 . S
O816 C817 1.265 . S
C817 O813 1.244 1_556 S
C817 O816 1.265 . S
O818 Eu800 2.373 . S
O818 C831 1.258 . S
O819 Eu801 2.392 1_554 S
O819 C831 1.242 . S
O820 Eu801 2.418 . S
O820 C802 1.244 1_556 S
O821 Eu800 2.488 . S
O821 C809 1.249 . S
O822 Eu800 2.471 . S
O822 C809 1.244 . S
O823 Eu800 2.349 . S
O823 C802 1.265 . S
C824 C825 1.379 . S
C824 C828 1.373 . S
C824 C830 1.505 . S
C825 C824 1.379 . S
C825 C827 1.369 . S
C825 H836 0.930 . S
C826 C828 1.383 . S
C826 C829 1.382 . S
C826 H837 0.930 . S
C827 C825 1.369 . S
C827 C829 1.392 . S
C827 H838 0.930 . S
C828 C824 1.373 . S
C828 C826 1.383 . S
C828 H839 0.931 . S
C829 C826 1.382 . S
C829 C827 1.392 . S
C830 Eu801 2.828 . S
C830 O814 1.249 . S
C830 O815 1.244 . S
C830 C824 1.505 . S
C831 O818 1.258 . S
C831 O819 1.242 . S
H832 C804 0.930 . S
H833 C805 0.930 . S
H834 C806 0.930 . S
H835 C807 0.931 . S
H836 C825 0.930 . S
H837 C826 0.930 . S
H838 C827 0.930 . S
H839 C828 0.931 . S
Eu840 C849 2.828 . S
Eu840 O851 2.392 . S
Eu840 O853 2.418 . S
Eu840 O858 2.373 . S
Eu840 O861 2.488 . S
Eu840 O862 2.471 . S
Eu840 O863 2.349 . S
Eu841 O850 2.373 . S
Eu841 O854 2.488 . S
Eu841 O855 2.471 . S
Eu841 O856 2.349 . S
Eu841 O859 2.392 . S
Eu841 O860 2.418 . S
Eu841 C870 2.828 . S
C842 O860 1.244 . S
C842 O863 1.265 . S
C843 C844 1.379 . S
C843 C847 1.373 . S
C843 C849 1.505 . S
C844 C843 1.379 . S
C844 C846 1.369 . S
C844 H872 0.930 . S
C845 C847 1.383 . S
C845 C848 1.382 . S
C845 H873 0.930 . S
C846 C844 1.369 . S
C846 C848 1.392 . S
C846 H874 0.930 . S
C847 C843 1.373 . S
C847 C845 1.383 . S
C847 H875 0.931 . S
C848 C845 1.382 . S
C848 C846 1.392 . S
C849 Eu840 2.828 . S
C849 C843 1.505 . S
C849 O861 1.249 . S
C849 O862 1.244 . S
O850 Eu841 2.373 . S
O850 C852 1.258 . S
O851 Eu840 2.392 . S
O851 C852 1.242 . S
C852 O850 1.258 . S
C852 O851 1.242 . S
O853 Eu840 2.418 . S
O853 C857 1.244 . S
O854 Eu841 2.488 . S
O854 C870 1.249 . S
O855 Eu841 2.471 . S
O855 C870 1.244 . S
O856 Eu841 2.349 . S
O856 C857 1.265 . S
C857 O853 1.244 . S
C857 O856 1.265 . S
O858 Eu840 2.373 . S
O858 C871 1.258 . S
O859 Eu841 2.392 . S
O859 C871 1.242 . S
O860 Eu841 2.418 . S
O860 C842 1.244 . S
O861 Eu840 2.488 . S
O861 C849 1.249 . S
O862 Eu840 2.471 . S
O862 C849 1.244 . S
O863 Eu840 2.349 . S
O863 C842 1.265 . S
C864 C865 1.379 . S
C864 C868 1.373 . S
C864 C870 1.505 . S
C865 C864 1.379 . S
C865 C867 1.369 . S
C865 H876 0.930 . S
C866 C868 1.383 . S
C866 C869 1.382 . S
C866 H877 0.930 . S
C867 C865 1.369 . S
C867 C869 1.392 . S
C867 H878 0.930 . S
C868 C864 1.373 . S
C868 C866 1.383 . S
C868 H879 0.931 . S
C869 C866 1.382 . S
C869 C867 1.392 . S
C870 Eu841 2.828 . S
C870 O854 1.249 . S
C870 O855 1.244 . S
C870 C864 1.505 . S
C871 O858 1.258 . S
C871 O859 1.242 . S
H872 C844 0.930 . S
H873 C845 0.930 . S
H874 C846 0.930 . S
H875 C847 0.931 . S
H876 C865 0.930 . S
H877 C866 0.930 . S
H878 C867 0.930 . S
H879 C868 0.931 . S
Eu880 C889 2.828 . S
Eu880 O891 2.392 . S
Eu880 O893 2.418 . S
Eu880 O898 2.373 . S
Eu880 O901 2.488 . S
Eu880 O902 2.471 . S
Eu880 O903 2.349 . S
Eu881 O890 2.373 . S
Eu881 O894 2.488 . S
Eu881 O895 2.471 . S
Eu881 O896 2.349 . S
Eu881 O899 2.392 . S
Eu881 O900 2.418 . S
Eu881 C910 2.828 . S
C882 O900 1.244 . S
C882 O903 1.265 . S
C883 C884 1.379 . S
C883 C887 1.373 . S
C883 C889 1.505 . S
C884 C883 1.379 . S
C884 C886 1.369 . S
C884 H912 0.930 . S
C885 C887 1.383 . S
C885 C888 1.382 . S
C885 H913 0.930 . S
C886 C884 1.369 . S
C886 C888 1.392 . S
C886 H914 0.930 . S
C887 C883 1.373 . S
C887 C885 1.383 . S
C887 H915 0.931 . S
C888 C885 1.382 . S
C888 C886 1.392 . S
C889 Eu880 2.828 . S
C889 C883 1.505 . S
C889 O901 1.249 . S
C889 O902 1.244 . S
O890 Eu881 2.373 . S
O890 C892 1.258 . S
O891 Eu880 2.392 . S
O891 C892 1.242 . S
C892 O890 1.258 . S
C892 O891 1.242 . S
O893 Eu880 2.418 . S
O893 C897 1.244 . S
O894 Eu881 2.488 . S
O894 C910 1.249 . S
O895 Eu881 2.471 . S
O895 C910 1.244 . S
O896 Eu881 2.349 . S
O896 C897 1.265 . S
C897 O893 1.244 . S
C897 O896 1.265 . S
O898 Eu880 2.373 . S
O898 C911 1.258 . S
O899 Eu881 2.392 . S
O899 C911 1.242 . S
O900 Eu881 2.418 . S
O900 C882 1.244 . S
O901 Eu880 2.488 . S
O901 C889 1.249 . S
O902 Eu880 2.471 . S
O902 C889 1.244 . S
O903 Eu880 2.349 . S
O903 C882 1.265 . S
C904 C905 1.379 . S
C904 C908 1.373 . S
C904 C910 1.505 . S
C905 C904 1.379 . S
C905 C907 1.369 . S
C905 H916 0.930 . S
C906 C908 1.383 . S
C906 C909 1.382 . S
C906 H917 0.930 . S
C907 C905 1.369 . S
C907 C909 1.392 . S
C907 H918 0.930 . S
C908 C904 1.373 . S
C908 C906 1.383 . S
C908 H919 0.931 . S
C909 C906 1.382 . S
C909 C907 1.392 . S
C910 Eu881 2.828 . S
C910 O894 1.249 . S
C910 O895 1.244 . S
C910 C904 1.505 . S
C911 O898 1.258 . S
C911 O899 1.242 . S
H912 C884 0.930 . S
H913 C885 0.930 . S
H914 C886 0.930 . S
H915 C887 0.931 . S
H916 C905 0.930 . S
H917 C906 0.930 . S
H918 C907 0.930 . S
H919 C908 0.931 . S
Eu920 C929 2.828 . S
Eu920 O931 2.392 . S
Eu920 O933 2.418 . S
Eu920 O938 2.373 . S
Eu920 O941 2.488 . S
Eu920 O942 2.471 . S
Eu920 O943 2.349 . S
Eu921 O930 2.373 . S
Eu921 O934 2.488 . S
Eu921 O935 2.471 . S
Eu921 O936 2.349 . S
Eu921 O939 2.392 . S
Eu921 O940 2.418 . S
Eu921 C950 2.828 . S
C922 O940 1.244 . S
C922 O943 1.265 . S
C923 C924 1.379 . S
C923 C927 1.373 . S
C923 C929 1.505 . S
C924 C923 1.379 . S
C924 C926 1.369 . S
C924 H952 0.930 . S
C925 C927 1.383 . S
C925 C928 1.382 . S
C925 H953 0.930 . S
C926 C924 1.369 . S
C926 C928 1.392 . S
C926 H954 0.930 . S
C927 C923 1.373 . S
C927 C925 1.383 . S
C927 H955 0.931 . S
C928 C925 1.382 . S
C928 C926 1.392 . S
C929 Eu920 2.828 . S
C929 C923 1.505 . S
C929 O941 1.249 . S
C929 O942 1.244 . S
O930 Eu921 2.373 . S
O930 C932 1.258 . S
O931 Eu920 2.392 . S
O931 C932 1.242 . S
C932 O930 1.258 . S
C932 O931 1.242 . S
O933 Eu920 2.418 . S
O933 C937 1.244 . S
O934 Eu921 2.488 . S
O934 C950 1.249 . S
O935 Eu921 2.471 . S
O935 C950 1.244 . S
O936 Eu921 2.349 . S
O936 C937 1.265 . S
C937 O933 1.244 . S
C937 O936 1.265 . S
O938 Eu920 2.373 . S
O938 C951 1.258 . S
O939 Eu921 2.392 . S
O939 C951 1.242 . S
O940 Eu921 2.418 . S
O940 C922 1.244 . S
O941 Eu920 2.488 . S
O941 C929 1.249 . S
O942 Eu920 2.471 . S
O942 C929 1.244 . S
O943 Eu920 2.349 . S
O943 C922 1.265 . S
C944 C945 1.379 . S
C944 C948 1.373 . S
C944 C950 1.505 . S
C945 C944 1.379 . S
C945 C947 1.369 . S
C945 H956 0.930 . S
C946 C948 1.383 . S
C946 C949 1.382 . S
C946 H957 0.930 . S
C947 C945 1.369 . S
C947 C949 1.392 . S
C947 H958 0.930 . S
C948 C944 1.373 . S
C948 C946 1.383 . S
C948 H959 0.931 . S
C949 C946 1.382 . S
C949 C947 1.392 . S
C950 Eu921 2.828 . S
C950 O934 1.249 . S
C950 O935 1.244 . S
C950 C944 1.505 . S
C951 O938 1.258 . S
C951 O939 1.242 . S
H952 C924 0.930 . S
H953 C925 0.930 . S
H954 C926 0.930 . S
H955 C927 0.931 . S
H956 C945 0.930 . S
H957 C946 0.930 . S
H958 C947 0.930 . S
H959 C948 0.931 . S
Eu960 C969 2.828 . S
Eu960 O971 2.392 . S
Eu960 O973 2.418 . S
Eu960 O978 2.373 . S
Eu960 O981 2.488 . S
Eu960 O982 2.471 . S
Eu960 O983 2.349 . S
Eu961 O970 2.373 . S
Eu961 O974 2.488 . S
Eu961 O975 2.471 . S
Eu961 O976 2.349 . S
Eu961 O979 2.392 . S
Eu961 O980 2.418 . S
Eu961 C990 2.828 . S
C962 O980 1.244 . S
C962 O983 1.265 . S
C963 C964 1.379 . S
C963 C967 1.373 . S
C963 C969 1.505 . S
C964 C963 1.379 . S
C964 C966 1.369 . S
C964 H992 0.930 . S
C965 C967 1.383 . S
C965 C968 1.382 . S
C965 H993 0.930 . S
C966 C964 1.369 . S
C966 C968 1.392 . S
C966 H994 0.930 . S
C967 C963 1.373 . S
C967 C965 1.383 . S
C967 H995 0.931 . S
C968 C965 1.382 . S
C968 C966 1.392 . S
C969 Eu960 2.828 . S
C969 C963 1.505 . S
C969 O981 1.249 . S
C969 O982 1.244 . S
O970 Eu961 2.373 . S
O970 C972 1.258 . S
O971 Eu960 2.392 . S
O971 C972 1.242 . S
C972 O970 1.258 . S
C972 O971 1.242 . S
O973 Eu960 2.418 . S
O973 C977 1.244 . S
O974 Eu961 2.488 . S
O974 C990 1.249 . S
O975 Eu961 2.471 . S
O975 C990 1.244 . S
O976 Eu961 2.349 . S
O976 C977 1.265 . S
C977 O973 1.244 . S
C977 O976 1.265 . S
O978 Eu960 2.373 . S
O978 C991 1.258 . S
O979 Eu961 2.392 . S
O979 C991 1.242 . S
O980 Eu961 2.418 . S
O980 C962 1.244 . S
O981 Eu960 2.488 . S
O981 C969 1.249 . S
O982 Eu960 2.471 . S
O982 C969 1.244 . S
O983 Eu960 2.349 . S
O983 C962 1.265 . S
C984 C985 1.379 . S
C984 C988 1.373 . S
C984 C990 1.505 . S
C985 C984 1.379 . S
C985 C987 1.369 . S
C985 H996 0.930 . S
C986 C988 1.383 . S
C986 C989 1.382 . S
C986 H997 0.930 . S
C987 C985 1.369 . S
C987 C989 1.392 . S
C987 H998 0.930 . S
C988 C984 1.373 . S
C988 C986 1.383 . S
C988 H999 0.931 . S
C989 C986 1.382 . S
C989 C987 1.392 . S
C990 Eu961 2.828 . S
C990 O974 1.249 . S
C990 O975 1.244 . S
C990 C984 1.505 . S
C991 O978 1.258 . S
C991 O979 1.242 . S
H992 C964 0.930 . S
H993 C965 0.930 . S
H994 C966 0.930 . S
H995 C967 0.931 . S
H996 C985 0.930 . S
H997 C986 0.930 . S
H998 C987 0.930 . S
H999 C988 0.931 . S
Eu1000 C1009 2.828 . S
Eu1000 O1011 2.392 . S
Eu1000 O1013 2.418 . S
Eu1000 O1018 2.373 . S
Eu1000 O1021 2.488 . S
Eu1000 O1022 2.471 . S
Eu1000 O1023 2.349 . S
Eu1001 O1010 2.373 . S
Eu1001 O1014 2.488 . S
Eu1001 O1015 2.471 . S
Eu1001 O1016 2.349 . S
Eu1001 O1019 2.392 . S
Eu1001 O1020 2.418 . S
Eu1001 C1030 2.828 . S
C1002 O1020 1.244 . S
C1002 O1023 1.265 . S
C1003 C1004 1.379 . S
C1003 C1007 1.373 . S
C1003 C1009 1.505 . S
C1004 C1003 1.379 . S
C1004 C1006 1.369 . S
C1004 H1032 0.930 . S
C1005 C1007 1.383 . S
C1005 C1008 1.382 . S
C1005 H1033 0.930 . S
C1006 C1004 1.369 . S
C1006 C1008 1.392 . S
C1006 H1034 0.930 . S
C1007 C1003 1.373 . S
C1007 C1005 1.383 . S
C1007 H1035 0.931 . S
C1008 C1005 1.382 . S
C1008 C1006 1.392 . S
C1009 Eu1000 2.828 . S
C1009 C1003 1.505 . S
C1009 O1021 1.249 . S
C1009 O1022 1.244 . S
O1010 Eu1001 2.373 . S
O1010 C1012 1.258 . S
O1011 Eu1000 2.392 . S
O1011 C1012 1.242 . S
C1012 O1010 1.258 . S
C1012 O1011 1.242 . S
O1013 Eu1000 2.418 . S
O1013 C1017 1.244 . S
O1014 Eu1001 2.488 . S
O1014 C1030 1.249 . S
O1015 Eu1001 2.471 . S
O1015 C1030 1.244 . S
O1016 Eu1001 2.349 . S
O1016 C1017 1.265 . S
C1017 O1013 1.244 . S
C1017 O1016 1.265 . S
O1018 Eu1000 2.373 . S
O1018 C1031 1.258 . S
O1019 Eu1001 2.392 . S
O1019 C1031 1.242 . S
O1020 Eu1001 2.418 . S
O1020 C1002 1.244 . S
O1021 Eu1000 2.488 . S
O1021 C1009 1.249 . S
O1022 Eu1000 2.471 . S
O1022 C1009 1.244 . S
O1023 Eu1000 2.349 . S
O1023 C1002 1.265 . S
C1024 C1025 1.379 . S
C1024 C1028 1.373 . S
C1024 C1030 1.505 . S
C1025 C1024 1.379 . S
C1025 C1027 1.369 . S
C1025 H1036 0.930 . S
C1026 C1028 1.383 . S
C1026 C1029 1.382 . S
C1026 H1037 0.930 . S
C1027 C1025 1.369 . S
C1027 C1029 1.392 . S
C1027 H1038 0.930 . S
C1028 C1024 1.373 . S
C1028 C1026 1.383 . S
C1028 H1039 0.931 . S
C1029 C1026 1.382 . S
C1029 C1027 1.392 . S
C1030 Eu1001 2.828 . S
C1030 O1014 1.249 . S
C1030 O1015 1.244 . S
C1030 C1024 1.505 . S
C1031 O1018 1.258 . S
C1031 O1019 1.242 . S
H1032 C1004 0.930 . S
H1033 C1005 0.930 . S
H1034 C1006 0.930 . S
H1035 C1007 0.931 . S
H1036 C1025 0.930 . S
H1037 C1026 0.930 . S
H1038 C1027 0.930 . S
H1039 C1028 0.931 . S
Eu1040 C1049 2.828 . S
Eu1040 O1051 2.392 . S
Eu1040 O1053 2.418 . S
Eu1040 O1058 2.373 . S
Eu1040 O1061 2.488 . S
Eu1040 O1062 2.471 . S
Eu1040 O1063 2.349 . S
Eu1041 O1050 2.373 . S
Eu1041 O1054 2.488 . S
Eu1041 O1055 2.471 . S
Eu1041 O1056 2.349 . S
Eu1041 O1059 2.392 . S
Eu1041 O1060 2.418 . S
Eu1041 C1070 2.828 . S
C1042 O1060 1.244 . S
C1042 O1063 1.265 . S
C1043 C1044 1.379 . S
C1043 C1047 1.373 . S
C1043 C1049 1.505 . S
C1044 C1043 1.379 . S
C1044 C1046 1.369 . S
C1044 H1072 0.930 . S
C1045 C1047 1.383 . S
C1045 C1048 1.382 . S
C1045 H1073 0.930 . S
C1046 C1044 1.369 . S
C1046 C1048 1.392 . S
C1046 H1074 0.930 . S
C1047 C1043 1.373 . S
C1047 C1045 1.383 . S
C1047 H1075 0.931 . S
C1048 C1045 1.382 . S
C1048 C1046 1.392 . S
C1049 Eu1040 2.828 . S
C1049 C1043 1.505 . S
C1049 O1061 1.249 . S
C1049 O1062 1.244 . S
O1050 Eu1041 2.373 . S
O1050 C1052 1.258 . S
O1051 Eu1040 2.392 . S
O1051 C1052 1.242 . S
C1052 O1050 1.258 . S
C1052 O1051 1.242 . S
O1053 Eu1040 2.418 . S
O1053 C1057 1.244 . S
O1054 Eu1041 2.488 . S
O1054 C1070 1.249 . S
O1055 Eu1041 2.471 . S
O1055 C1070 1.244 . S
O1056 Eu1041 2.349 . S
O1056 C1057 1.265 . S
C1057 O1053 1.244 . S
C1057 O1056 1.265 . S
O1058 Eu1040 2.373 . S
O1058 C1071 1.258 . S
O1059 Eu1041 2.392 . S
O1059 C1071 1.242 . S
O1060 Eu1041 2.418 . S
O1060 C1042 1.244 . S
O1061 Eu1040 2.488 . S
O1061 C1049 1.249 . S
O1062 Eu1040 2.471 . S
O1062 C1049 1.244 . S
O1063 Eu1040 2.349 . S
O1063 C1042 1.265 . S
C1064 C1065 1.379 . S
C1064 C1068 1.373 . S
C1064 C1070 1.505 . S
C1065 C1064 1.379 . S
C1065 C1067 1.369 . S
C1065 H1076 0.930 . S
C1066 C1068 1.383 . S
C1066 C1069 1.382 . S
C1066 H1077 0.930 . S
C1067 C1065 1.369 . S
C1067 C1069 1.392 . S
C1067 H1078 0.930 . S
C1068 C1064 1.373 . S
C1068 C1066 1.383 . S
C1068 H1079 0.931 . S
C1069 C1066 1.382 . S
C1069 C1067 1.392 . S
C1070 Eu1041 2.828 . S
C1070 O1054 1.249 . S
C1070 O1055 1.244 . S
C1070 C1064 1.505 . S
C1071 O1058 1.258 . S
C1071 O1059 1.242 . S
H1072 C1044 0.930 . S
H1073 C1045 0.930 . S
H1074 C1046 0.930 . S
H1075 C1047 0.931 . S
H1076 C1065 0.930 . S
H1077 C1066 0.930 . S
H1078 C1067 0.930 . S
H1079 C1068 0.931 . S
C1080 C1081 1.387 . S
C1080 H1084 0.950 . S
C1080 C1089 1.390 . S
C1081 C1080 1.387 . S
C1081 C1083 1.387 . S
H1082 C1089 0.950 . S
C1083 C1081 1.387 . S
C1083 C1085 1.390 . S
C1083 H1087 0.950 . S
H1084 C1080 0.950 . S
C1085 C1083 1.390 . S
C1085 C1086 1.387 . S
C1085 H1088 0.950 1_554 S
C1086 C1085 1.387 . S
C1086 C1089 1.387 . S
H1087 C1083 0.950 . S
H1088 C1085 0.950 1_556 S
C1089 C1080 1.390 . S
C1089 H1082 0.950 . S
C1089 C1086 1.387 . S
C1090 C1091 1.387 . S
C1090 H1094 0.950 . S
C1090 C1099 1.390 . S
C1091 C1090 1.387 . S
C1091 C1093 1.387 . S
H1092 C1099 0.950 . S
C1093 C1091 1.387 . S
C1093 C1095 1.390 . S
C1093 H1097 0.950 . S
H1094 C1090 0.950 . S
C1095 C1093 1.390 . S
C1095 C1096 1.387 . S
C1095 H1098 0.950 . S
C1096 C1095 1.387 . S
C1096 C1099 1.387 . S
H1097 C1093 0.950 . S
H1098 C1095 0.950 . S
C1099 C1090 1.390 . S
C1099 H1092 0.950 . S
C1099 C1096 1.387 . S
C1100 C1101 1.387 1_556 S
C1100 H1104 0.950 . S
C1100 C1109 1.390 . S
C1101 C1100 1.387 1_554 S
C1101 C1103 1.387 . S
H1102 C1109 0.950 . S
C1103 C1101 1.387 . S
C1103 C1105 1.390 . S
C1103 H1107 0.950 . S
H1104 C1100 0.950 . S
C1105 C1103 1.390 . S
C1105 C1106 1.387 . S
C1105 H1108 0.950 . S
C1106 C1105 1.387 . S
C1106 C1109 1.387 1_554 S
H1107 C1103 0.950 . S
H1108 C1105 0.950 . S
C1109 C1100 1.390 . S
C1109 H1102 0.950 . S
C1109 C1106 1.387 1_556 S
C1110 C1111 1.387 1_554 S
C1110 H1114 0.950 . S
C1110 C1119 1.390 . S
C1111 C1110 1.387 1_556 S
C1111 C1113 1.387 . S
H1112 C1119 0.950 . S
C1113 C1111 1.387 . S
C1113 C1115 1.390 . S
C1113 H1117 0.950 . S
H1114 C1110 0.950 . S
C1115 C1113 1.390 . S
C1115 C1116 1.387 . S
C1115 H1118 0.950 . S
C1116 C1115 1.387 . S
C1116 C1119 1.387 1_556 S
H1117 C1113 0.950 . S
H1118 C1115 0.950 . S
C1119 C1110 1.390 . S
C1119 H1112 0.950 . S
C1119 C1116 1.387 1_554 S
C1120 C1121 1.387 . S
C1120 H1124 0.950 . S
C1120 C1129 1.390 . S
C1121 C1120 1.387 . S
C1121 C1123 1.387 . S
H1122 C1129 0.950 1_554 S
C1123 C1121 1.387 . S
C1123 C1125 1.390 . S
C1123 H1127 0.950 . S
H1124 C1120 0.950 . S
C1125 C1123 1.390 . S
C1125 C1126 1.387 . S
C1125 H1128 0.950 . S
C1126 C1125 1.387 . S
C1126 C1129 1.387 . S
H1127 C1123 0.950 . S
H1128 C1125 0.950 . S
C1129 C1120 1.390 . S
C1129 H1122 0.950 1_556 S
C1129 C1126 1.387 . S
C1130 C1131 1.387 1_554 S
C1130 H1134 0.950 . S
C1130 C1139 1.390 . S
C1131 C1130 1.387 1_556 S
C1131 C1133 1.387 . S
H1132 C1139 0.950 . S
C1133 C1131 1.387 . S
C1133 C1135 1.390 . S
C1133 H1137 0.950 . S
H1134 C1130 0.950 . S
C1135 C1133 1.390 . S
C1135 C1136 1.387 . S
C1135 H1138 0.950 . S
C1136 C1135 1.387 . S
C1136 C1139 1.387 1_556 S
H1137 C1133 0.950 . S
H1138 C1135 0.950 . S
C1139 C1130 1.390 . S
C1139 H1132 0.950 . S
C1139 C1136 1.387 1_554 S
C1140 C1141 1.387 . S
C1140 H1144 0.950 . S
C1140 C1149 1.390 . S
C1141 C1140 1.387 . S
C1141 C1143 1.387 . S
H1142 C1149 0.950 . S
C1143 C1141 1.387 . S
C1143 C1145 1.390 . S
C1143 H1147 0.950 1_556 S
H1144 C1140 0.950 . S
C1145 C1143 1.390 . S
C1145 C1146 1.387 . S
C1145 H1148 0.950 1_556 S
C1146 C1145 1.387 . S
C1146 C1149 1.387 . S
H1147 C1143 0.950 1_554 S
H1148 C1145 0.950 1_554 S
C1149 C1140 1.390 . S
C1149 H1142 0.950 . S
C1149 C1146 1.387 . S
C1150 C1151 1.387 . S
C1150 H1154 0.950 . S
C1150 C1159 1.390 . S
C1151 C1150 1.387 . S
C1151 C1153 1.387 . S
H1152 C1159 0.950 1_554 S
C1153 C1151 1.387 . S
C1153 C1155 1.390 . S
C1153 H1157 0.950 . S
H1154 C1150 0.950 . S
C1155 C1153 1.390 . S
C1155 C1156 1.387 . S
C1155 H1158 0.950 . S
C1156 C1155 1.387 . S
C1156 C1159 1.387 . S
H1157 C1153 0.950 . S
H1158 C1155 0.950 . S
C1159 C1150 1.390 . S
C1159 H1152 0.950 1_556 S
C1159 C1156 1.387 . S
C1160 C1161 1.387 1_554 S
C1160 H1164 0.950 . S
C1160 C1169 1.390 . S
C1161 C1160 1.387 1_556 S
C1161 C1163 1.387 . S
H1162 C1169 0.950 . S
C1163 C1161 1.387 . S
C1163 C1165 1.390 . S
C1163 H1167 0.950 . S
H1164 C1160 0.950 . S
C1165 C1163 1.390 . S
C1165 C1166 1.387 . S
C1165 H1168 0.950 . S
C1166 C1165 1.387 . S
C1166 C1169 1.387 1_556 S
H1167 C1163 0.950 . S
H1168 C1165 0.950 . S
C1169 C1160 1.390 . S
C1169 H1162 0.950 . S
C1169 C1166 1.387 1_554 S
C1170 C1171 1.387 . S
C1170 H1174 0.950 1_554 S
C1170 C1179 1.390 . S
C1171 C1170 1.387 . S
C1171 C1173 1.387 . S
H1172 C1179 0.950 1_556 S
C1173 C1171 1.387 . S
C1173 C1175 1.390 . S
C1173 H1177 0.950 . S
H1174 C1170 0.950 1_556 S
C1175 C1173 1.390 . S
C1175 C1176 1.387 . S
C1175 H1178 0.950 . S
C1176 C1175 1.387 . S
C1176 C1179 1.387 . S
H1177 C1173 0.950 . S
H1178 C1175 0.950 . S
C1179 C1170 1.390 . S
C1179 H1172 0.950 1_554 S
C1179 C1176 1.387 . S
C1180 C1181 1.387 . S
C1180 H1184 0.950 . S
C1180 C1189 1.390 . S
C1181 C1180 1.387 . S
C1181 C1183 1.387 . S
H1182 C1189 0.950 . S
C1183 C1181 1.387 . S
C1183 C1185 1.390 . S
C1183 H1187 0.950 . S
H1184 C1180 0.950 . S
C1185 C1183 1.390 . S
C1185 C1186 1.387 . S
C1185 H1188 0.950 . S
C1186 C1185 1.387 . S
C1186 C1189 1.387 . S
H1187 C1183 0.950 . S
H1188 C1185 0.950 . S
C1189 C1180 1.390 . S
C1189 H1182 0.950 . S
C1189 C1186 1.387 . S
C1190 C1191 1.387 . S
C1190 H1194 0.950 1_554 S
C1190 C1199 1.390 . S
C1191 C1190 1.387 . S
C1191 C1193 1.387 . S
H1192 C1199 0.950 1_556 S
C1193 C1191 1.387 . S
C1193 C1195 1.390 . S
C1193 H1197 0.950 . S
H1194 C1190 0.950 1_556 S
C1195 C1193 1.390 . S
C1195 C1196 1.387 . S
C1195 H1198 0.950 . S
C1196 C1195 1.387 . S
C1196 C1199 1.387 . S
H1197 C1193 0.950 . S
H1198 C1195 0.950 . S
C1199 C1190 1.390 . S
C1199 H1192 0.950 1_554 S
C1199 C1196 1.387 . S
C1200 C1201 1.387 . S
C1200 H1204 0.950 . S
C1200 C1209 1.390 . S
C1201 C1200 1.387 . S
C1201 C1203 1.387 . S
H1202 C1209 0.950 . S
C1203 C1201 1.387 . S
C1203 C1205 1.390 . S
C1203 H1207 0.950 . S
H1204 C1200 0.950 . S
C1205 C1203 1.390 . S
C1205 C1206 1.387 . S
C1205 H1208 0.950 . S
C1206 C1205 1.387 . S
C1206 C1209 1.387 . S
H1207 C1203 0.950 . S
H1208 C1205 0.950 . S
C1209 C1200 1.390 . S
C1209 H1202 0.950 . S
C1209 C1206 1.387 . S
C1210 C1211 1.387 . S
C1210 H1214 0.950 . S
C1210 C1219 1.390 . S
C1211 C1210 1.387 . S
C1211 C1213 1.387 . S
H1212 C1219 0.950 . S
C1213 C1211 1.387 . S
C1213 C1215 1.390 . S
C1213 H1217 0.950 . S
H1214 C1210 0.950 . S
C1215 C1213 1.390 . S
C1215 C1216 1.387 . S
C1215 H1218 0.950 . S
C1216 C1215 1.387 . S
C1216 C1219 1.387 . S
H1217 C1213 0.950 . S
H1218 C1215 0.950 . S
C1219 C1210 1.390 . S
C1219 H1212 0.950 . S
C1219 C1216 1.387 . S
C1220 C1221 1.387 . S
C1220 H1224 0.950 . S
C1220 C1229 1.390 . S
C1221 C1220 1.387 . S
C1221 C1223 1.387 . S
H1222 C1229 0.950 . S
C1223 C1221 1.387 . S
C1223 C1225 1.390 . S
C1223 H1227 0.950 . S
H1224 C1220 0.950 . S
C1225 C1223 1.390 . S
C1225 C1226 1.387 . S
C1225 H1228 0.950 . S
C1226 C1225 1.387 . S
C1226 C1229 1.387 . S
H1227 C1223 0.950 . S
H1228 C1225 0.950 . S
C1229 C1220 1.390 . S
C1229 H1222 0.950 . S
C1229 C1226 1.387 . S
C1230 C1231 1.387 . S
C1230 H1234 0.950 . S
C1230 C1239 1.390 . S
C1231 C1230 1.387 . S
C1231 C1233 1.387 . S
H1232 C1239 0.950 . S
C1233 C1231 1.387 . S
C1233 C1235 1.390 . S
C1233 H1237 0.950 . S
H1234 C1230 0.950 . S
C1235 C1233 1.390 . S
C1235 C1236 1.387 . S
C1235 H1238 0.950 . S
C1236 C1235 1.387 . S
C1236 C1239 1.387 . S
H1237 C1233 0.950 . S
H1238 C1235 0.950 . S
C1239 C1230 1.390 . S
C1239 H1232 0.950 . S
C1239 C1236 1.387 . S
C1240 C1241 1.387 . S
C1240 H1244 0.950 . S
C1240 C1249 1.390 . S
C1241 C1240 1.387 . S
C1241 C1243 1.387 . S
H1242 C1249 0.950 . S
C1243 C1241 1.387 . S
C1243 C1245 1.390 . S
C1243 H1247 0.950 . S
H1244 C1240 0.950 . S
C1245 C1243 1.390 . S
C1245 C1246 1.387 . S
C1245 H1248 0.950 . S
C1246 C1245 1.387 . S
C1246 C1249 1.387 . S
H1247 C1243 0.950 . S
H1248 C1245 0.950 . S
C1249 C1240 1.390 . S
C1249 H1242 0.950 . S
C1249 C1246 1.387 . S
C1250 C1251 1.387 . S
C1250 H1254 0.950 . S
C1250 C1259 1.390 . S
C1251 C1250 1.387 . S
C1251 C1253 1.387 . S
H1252 C1259 0.950 . S
C1253 C1251 1.387 . S
C1253 C1255 1.390 . S
C1253 H1257 0.950 . S
H1254 C1250 0.950 . S
C1255 C1253 1.390 . S
C1255 C1256 1.387 . S
C1255 H1258 0.950 . S
C1256 C1255 1.387 . S
C1256 C1259 1.387 . S
H1257 C1253 0.950 . S
H1258 C1255 0.950 . S
C1259 C1250 1.390 . S
C1259 H1252 0.950 . S
C1259 C1256 1.387 . S
C1260 C1261 1.387 . S
C1260 H1264 0.950 . S
C1260 C1269 1.390 . S
C1261 C1260 1.387 . S
C1261 C1263 1.387 . S
H1262 C1269 0.950 . S
C1263 C1261 1.387 . S
C1263 C1265 1.390 . S
C1263 H1267 0.950 . S
H1264 C1260 0.950 . S
C1265 C1263 1.390 . S
C1265 C1266 1.387 . S
C1265 H1268 0.950 . S
C1266 C1265 1.387 . S
C1266 C1269 1.387 . S
H1267 C1263 0.950 . S
H1268 C1265 0.950 . S
C1269 C1260 1.390 . S
C1269 H1262 0.950 . S
C1269 C1266 1.387 . S
C1270 C1271 1.387 . S
C1270 H1274 0.950 . S
C1270 C1279 1.390 . S
C1271 C1270 1.387 . S
C1271 C1273 1.387 . S
H1272 C1279 0.950 . S
C1273 C1271 1.387 . S
C1273 C1275 1.390 . S
C1273 H1277 0.950 . S
H1274 C1270 0.950 . S
C1275 C1273 1.390 . S
C1275 C1276 1.387 . S
C1275 H1278 0.950 . S
C1276 C1275 1.387 . S
C1276 C1279 1.387 . S
H1277 C1273 0.950 . S
H1278 C1275 0.950 . S
C1279 C1270 1.390 . S
C1279 H1272 0.950 . S
C1279 C1276 1.387 . S
C1280 C1281 1.387 . S
C1280 H1284 0.950 . S
C1280 C1289 1.390 . S
C1281 C1280 1.387 . S
C1281 C1283 1.387 . S
H1282 C1289 0.950 . S
C1283 C1281 1.387 . S
C1283 C1285 1.390 . S
C1283 H1287 0.950 . S
H1284 C1280 0.950 . S
C1285 C1283 1.390 . S
C1285 C1286 1.387 . S
C1285 H1288 0.950 . S
C1286 C1285 1.387 . S
C1286 C1289 1.387 . S
H1287 C1283 0.950 . S
H1288 C1285 0.950 . S
C1289 C1280 1.390 . S
C1289 H1282 0.950 . S
C1289 C1286 1.387 . S
C1290 C1291 1.387 . S
C1290 H1294 0.950 . S
C1290 C1299 1.390 . S
C1291 C1290 1.387 . S
C1291 C1293 1.387 . S
H1292 C1299 0.950 . S
C1293 C1291 1.387 . S
C1293 C1295 1.390 . S
C1293 H1297 0.950 . S
H1294 C1290 0.950 . S
C1295 C1293 1.390 . S
C1295 C1296 1.387 . S
C1295 H1298 0.950 . S
C1296 C1295 1.387 . S
C1296 C1299 1.387 . S
H1297 C1293 0.950 . S
H1298 C1295 0.950 . S
C1299 C1290 1.390 . S
C1299 H1292 0.950 . S
C1299 C1296 1.387 . S
C1300 C1301 1.387 . S
C1300 H1304 0.950 . S
C1300 C1309 1.390 . S
C1301 C1300 1.387 . S
C1301 C1303 1.387 . S
H1302 C1309 0.950 . S
C1303 C1301 1.387 . S
C1303 C1305 1.390 . S
C1303 H1307 0.950 . S
H1304 C1300 0.950 . S
C1305 C1303 1.390 . S
C1305 C1306 1.387 . S
C1305 H1308 0.950 . S
C1306 C1305 1.387 . S
C1306 C1309 1.387 . S
H1307 C1303 0.950 . S
H1308 C1305 0.950 . S
C1309 C1300 1.390 . S
C1309 H1302 0.950 . S
C1309 C1306 1.387 . S
C1310 C1311 1.387 . S
C1310 H1314 0.950 . S
C1310 C1319 1.390 . S
C1311 C1310 1.387 . S
C1311 C1313 1.387 . S
H1312 C1319 0.950 . S
C1313 C1311 1.387 . S
C1313 C1315 1.390 . S
C1313 H1317 0.950 . S
H1314 C1310 0.950 . S
C1315 C1313 1.390 . S
C1315 C1316 1.387 . S
C1315 H1318 0.950 . S
C1316 C1315 1.387 . S
C1316 C1319 1.387 . S
H1317 C1313 0.950 . S
H1318 C1315 0.950 . S
C1319 C1310 1.390 . S
C1319 H1312 0.950 . S
C1319 C1316 1.387 . S
C1320 C1321 1.387 . S
C1320 H1324 0.950 . S
C1320 C1329 1.390 . S
C1321 C1320 1.387 . S
C1321 C1323 1.387 . S
H1322 C1329 0.950 . S
C1323 C1321 1.387 . S
C1323 C1325 1.390 . S
C1323 H1327 0.950 . S
H1324 C1320 0.950 . S
C1325 C1323 1.390 . S
C1325 C1326 1.387 . S
C1325 H1328 0.950 . S
C1326 C1325 1.387 . S
C1326 C1329 1.387 . S
H1327 C1323 0.950 . S
H1328 C1325 0.950 . S
C1329 C1320 1.390 . S
C1329 H1322 0.950 . S
C1329 C1326 1.387 . S
C1330 C1331 1.387 . S
C1330 H1334 0.950 . S
C1330 C1339 1.390 . S
C1331 C1330 1.387 . S
C1331 C1333 1.387 . S
H1332 C1339 0.950 . S
C1333 C1331 1.387 . S
C1333 C1335 1.390 . S
C1333 H1337 0.950 . S
H1334 C1330 0.950 . S
C1335 C1333 1.390 . S
C1335 C1336 1.387 . S
C1335 H1338 0.950 . S
C1336 C1335 1.387 . S
C1336 C1339 1.387 . S
H1337 C1333 0.950 . S
H1338 C1335 0.950 . S
C1339 C1330 1.390 . S
C1339 H1332 0.950 . S
C1339 C1336 1.387 . S
C1340 C1341 1.387 . S
C1340 H1344 0.950 . S
C1340 C1349 1.390 . S
C1341 C1340 1.387 . S
C1341 C1343 1.387 . S
H1342 C1349 0.950 . S
C1343 C1341 1.387 . S
C1343 C1345 1.390 . S
C1343 H1347 0.950 . S
H1344 C1340 0.950 . S
C1345 C1343 1.390 . S
C1345 C1346 1.387 . S
C1345 H1348 0.950 . S
C1346 C1345 1.387 . S
C1346 C1349 1.387 . S
H1347 C1343 0.950 . S
H1348 C1345 0.950 . S
C1349 C1340 1.390 . S
C1349 H1342 0.950 . S
C1349 C1346 1.387 . S
C1350 C1351 1.387 . S
C1350 H1354 0.950 . S
C1350 C1359 1.390 . S
C1351 C1350 1.387 . S
C1351 C1353 1.387 . S
H1352 C1359 0.950 . S
C1353 C1351 1.387 . S
C1353 C1355 1.390 . S
C1353 H1357 0.950 . S
H1354 C1350 0.950 . S
C1355 C1353 1.390 . S
C1355 C1356 1.387 . S
C1355 H1358 0.950 . S
C1356 C1355 1.387 . S
C1356 C1359 1.387 . S
H1357 C1353 0.950 . S
H1358 C1355 0.950 . S
C1359 C1350 1.390 . S
C1359 H1352 0.950 . S
C1359 C1356 1.387 . S
C1360 C1361 1.387 . S
C1360 H1364 0.950 . S
C1360 C1369 1.390 . S
C1361 C1360 1.387 . S
C1361 C1363 1.387 . S
H1362 C1369 0.950 . S
C1363 C1361 1.387 . S
C1363 C1365 1.390 . S
C1363 H1367 0.950 . S
H1364 C1360 0.950 . S
C1365 C1363 1.390 . S
C1365 C1366 1.387 . S
C1365 H1368 0.950 . S
C1366 C1365 1.387 . S
C1366 C1369 1.387 . S
H1367 C1363 0.950 . S
H1368 C1365 0.950 . S
C1369 C1360 1.390 . S
C1369 H1362 0.950 . S
C1369 C1366 1.387 . S
C1370 C1371 1.387 . S
C1370 H1374 0.950 . S
C1370 C1379 1.390 . S
C1371 C1370 1.387 . S
C1371 C1373 1.387 . S
H1372 C1379 0.950 . S
C1373 C1371 1.387 . S
C1373 C1375 1.390 . S
C1373 H1377 0.950 . S
H1374 C1370 0.950 . S
C1375 C1373 1.390 . S
C1375 C1376 1.387 . S
C1375 H1378 0.950 . S
C1376 C1375 1.387 . S
C1376 C1379 1.387 . S
H1377 C1373 0.950 . S
H1378 C1375 0.950 . S
C1379 C1370 1.390 . S
C1379 H1372 0.950 . S
C1379 C1376 1.387 . S
C1380 C1381 1.387 . S
C1380 H1384 0.950 . S
C1380 C1389 1.390 . S
C1381 C1380 1.387 . S
C1381 C1383 1.387 . S
H1382 C1389 0.950 . S
C1383 C1381 1.387 . S
C1383 C1385 1.390 . S
C1383 H1387 0.950 . S
H1384 C1380 0.950 . S
C1385 C1383 1.390 . S
C1385 C1386 1.387 . S
C1385 H1388 0.950 . S
C1386 C1385 1.387 . S
C1386 C1389 1.387 . S
H1387 C1383 0.950 . S
H1388 C1385 0.950 . S
C1389 C1380 1.390 . S
C1389 H1382 0.950 . S
C1389 C1386 1.387 . S
C1390 C1391 1.387 . S
C1390 H1394 0.950 . S
C1390 C1399 1.390 . S
C1391 C1390 1.387 . S
C1391 C1393 1.387 . S
H1392 C1399 0.950 . S
C1393 C1391 1.387 . S
C1393 C1395 1.390 . S
C1393 H1397 0.950 . S
H1394 C1390 0.950 . S
C1395 C1393 1.390 . S
C1395 C1396 1.387 . S
C1395 H1398 0.950 . S
C1396 C1395 1.387 . S
C1396 C1399 1.387 . S
H1397 C1393 0.950 . S
H1398 C1395 0.950 . S
C1399 C1390 1.390 . S
C1399 H1392 0.950 . S
C1399 C1396 1.387 . S
C1400 C1401 1.387 . S
C1400 H1404 0.950 . S
C1400 C1409 1.390 . S
C1401 C1400 1.387 . S
C1401 C1403 1.387 . S
H1402 C1409 0.950 . S
C1403 C1401 1.387 . S
C1403 C1405 1.390 . S
C1403 H1407 0.950 . S
H1404 C1400 0.950 . S
C1405 C1403 1.390 . S
C1405 C1406 1.387 . S
C1405 H1408 0.950 . S
C1406 C1405 1.387 . S
C1406 C1409 1.387 . S
H1407 C1403 0.950 . S
H1408 C1405 0.950 . S
C1409 C1400 1.390 . S
C1409 H1402 0.950 . S
C1409 C1406 1.387 . S
C1410 C1411 1.387 . S
C1410 H1414 0.950 . S
C1410 C1419 1.390 . S
C1411 C1410 1.387 . S
C1411 C1413 1.387 . S
H1412 C1419 0.950 . S
C1413 C1411 1.387 . S
C1413 C1415 1.390 . S
C1413 H1417 0.950 . S
H1414 C1410 0.950 . S
C1415 C1413 1.390 . S
C1415 C1416 1.387 . S
C1415 H1418 0.950 . S
C1416 C1415 1.387 . S
C1416 C1419 1.387 . S
H1417 C1413 0.950 . S
H1418 C1415 0.950 . S
C1419 C1410 1.390 . S
C1419 H1412 0.950 . S
C1419 C1416 1.387 . S
C1420 C1421 1.387 . S
C1420 H1424 0.950 . S
C1420 C1429 1.390 . S
C1421 C1420 1.387 . S
C1421 C1423 1.387 . S
H1422 C1429 0.950 . S
C1423 C1421 1.387 . S
C1423 C1425 1.390 . S
C1423 H1427 0.950 . S
H1424 C1420 0.950 . S
C1425 C1423 1.390 . S
C1425 C1426 1.387 . S
C1425 H1428 0.950 . S
C1426 C1425 1.387 . S
C1426 C1429 1.387 . S
H1427 C1423 0.950 . S
H1428 C1425 0.950 . S
C1429 C1420 1.390 . S
C1429 H1422 0.950 . S
C1429 C1426 1.387 . S
C1430 C1431 1.387 . S
C1430 H1434 0.950 . S
C1430 C1439 1.390 . S
C1431 C1430 1.387 . S
C1431 C1433 1.387 . S
H1432 C1439 0.950 . S
C1433 C1431 1.387 . S
C1433 C1435 1.390 . S
C1433 H1437 0.950 . S
H1434 C1430 0.950 . S
C1435 C1433 1.390 . S
C1435 C1436 1.387 . S
C1435 H1438 0.950 . S
C1436 C1435 1.387 . S
C1436 C1439 1.387 . S
H1437 C1433 0.950 . S
H1438 C1435 0.950 . S
C1439 C1430 1.390 . S
C1439 H1432 0.950 . S
C1439 C1436 1.387 . S
C1440 C1441 1.387 1_545 S
C1440 H1444 0.950 . S
C1440 C1449 1.390 . S
C1441 C1440 1.387 1_565 S
C1441 C1443 1.387 . S
H1442 C1449 0.950 . S
C1443 C1441 1.387 . S
C1443 C1445 1.390 . S
C1443 H1447 0.950 . S
H1444 C1440 0.950 . S
C1445 C1443 1.390 . S
C1445 C1446 1.387 . S
C1445 H1448 0.950 . S
C1446 C1445 1.387 . S
C1446 C1449 1.387 1_565 S
H1447 C1443 0.950 . S
H1448 C1445 0.950 . S
C1449 C1440 1.390 . S
C1449 H1442 0.950 . S
C1449 C1446 1.387 1_545 S
C1450 C1451 1.395 1_655 S
C1450 H1454 0.950 . S
C1450 C1459 1.390 1_655 S
C1451 C1450 1.395 1_455 S
C1451 C1453 1.387 . S
H1452 C1459 0.950 1_655 S
C1453 C1451 1.387 . S
C1453 C1455 1.390 . S
C1453 H1457 0.950 . S
H1454 C1450 0.950 . S
C1455 C1453 1.390 . S
C1455 C1456 1.387 . S
C1455 H1458 0.950 . S
C1456 C1455 1.387 . S
C1456 C1459 1.387 . S
H1457 C1453 0.950 . S
H1458 C1455 0.950 . S
C1459 C1450 1.390 1_455 S
C1459 H1452 0.950 1_455 S
C1459 C1456 1.387 . S
C1460 C1461 1.387 . S
C1460 H1464 0.950 . S
C1460 C1469 1.390 . S
C1461 C1460 1.387 . S
C1461 C1463 1.387 . S
H1462 C1469 0.950 . S
C1463 C1461 1.387 . S
C1463 C1465 1.390 . S
C1463 H1467 0.950 . S
H1464 C1460 0.950 . S
C1465 C1463 1.390 . S
C1465 C1466 1.387 . S
C1465 H1468 0.950 . S
C1466 C1465 1.387 . S
C1466 C1469 1.387 . S
H1467 C1463 0.950 . S
H1468 C1465 0.950 . S
C1469 C1460 1.390 . S
C1469 H1462 0.950 . S
C1469 C1466 1.387 . S
C1470 C1471 1.386 . S
C1470 H1474 0.950 . S
C1470 C1479 1.390 . S
C1471 C1470 1.386 . S
C1471 C1473 1.379 1_455 S
H1472 C1479 0.950 . S
C1473 C1471 1.379 1_655 S
C1473 C1475 1.390 . S
C1473 H1477 0.950 . S
H1474 C1470 0.950 . S
C1475 C1473 1.390 . S
C1475 C1476 1.387 . S
C1475 H1478 0.950 . S
C1476 C1475 1.387 . S
C1476 C1479 1.387 1_655 S
H1477 C1473 0.950 . S
H1478 C1475 0.950 . S
C1479 C1470 1.390 . S
C1479 H1472 0.950 . S
C1479 C1476 1.387 1_455 S
C1480 C1481 1.387 . S
C1480 H1484 0.950 . S
C1480 C1489 1.390 . S
C1481 C1480 1.387 . S
C1481 C1483 1.387 . S
H1482 C1489 0.950 . S
C1483 C1481 1.387 . S
C1483 C1485 1.390 . S
C1483 H1487 0.950 . S
H1484 C1480 0.950 . S
C1485 C1483 1.390 . S
C1485 C1486 1.387 . S
C1485 H1488 0.950 . S
C1486 C1485 1.387 . S
C1486 C1489 1.387 . S
H1487 C1483 0.950 . S
H1488 C1485 0.950 . S
C1489 C1480 1.390 . S
C1489 H1482 0.950 . S
C1489 C1486 1.387 . S
C1490 C1491 1.387 . S
C1490 H1494 0.950 . S
C1490 C1499 1.390 . S
C1491 C1490 1.387 . S
C1491 C1493 1.387 1_545 S
H1492 C1499 0.950 . S
C1493 C1491 1.387 1_565 S
C1493 C1495 1.390 . S
C1493 H1497 0.950 . S
H1494 C1490 0.950 . S
C1495 C1493 1.390 . S
C1495 C1496 1.387 1_565 S
C1495 H1498 0.950 . S
C1496 C1495 1.387 1_545 S
C1496 C1499 1.387 . S
H1497 C1493 0.950 . S
H1498 C1495 0.950 . S
C1499 C1490 1.390 . S
C1499 H1492 0.950 . S
C1499 C1496 1.387 . S
C1500 C1501 1.387 . S
C1500 H1504 0.950 . S
C1500 C1509 1.390 . S
C1501 C1500 1.387 . S
C1501 C1503 1.387 . S
H1502 C1509 0.950 . S
C1503 C1501 1.387 . S
C1503 C1505 1.390 . S
C1503 H1507 0.950 . S
H1504 C1500 0.950 . S
C1505 C1503 1.390 . S
C1505 C1506 1.387 . S
C1505 H1508 0.950 . S
C1506 C1505 1.387 . S
C1506 C1509 1.387 . S
H1507 C1503 0.950 . S
H1508 C1505 0.950 . S
C1509 C1500 1.390 . S
C1509 H1502 0.950 . S
C1509 C1506 1.387 . S
C1510 C1511 1.387 . S
C1510 H1514 0.950 . S
C1510 C1519 1.390 . S
C1511 C1510 1.387 . S
C1511 C1513 1.387 . S
H1512 C1519 0.950 . S
C1513 C1511 1.387 . S
C1513 C1515 1.390 . S
C1513 H1517 0.950 . S
H1514 C1510 0.950 . S
C1515 C1513 1.390 . S
C1515 C1516 1.387 . S
C1515 H1518 0.950 . S
C1516 C1515 1.387 . S
C1516 C1519 1.387 . S
H1517 C1513 0.950 . S
H1518 C1515 0.950 . S
C1519 C1510 1.390 . S
C1519 H1512 0.950 . S
C1519 C1516 1.387 . S
C1520 C1521 1.387 . S
C1520 H1524 0.950 . S
C1520 C1529 1.390 . S
C1521 C1520 1.387 . S
C1521 C1523 1.387 . S
H1522 C1529 0.950 . S
C1523 C1521 1.387 . S
C1523 C1525 1.390 . S
C1523 H1527 0.950 . S
H1524 C1520 0.950 . S
C1525 C1523 1.390 . S
C1525 C1526 1.387 . S
C1525 H1528 0.950 . S
C1526 C1525 1.387 . S
C1526 C1529 1.387 . S
H1527 C1523 0.950 . S
H1528 C1525 0.950 . S
C1529 C1520 1.390 . S
C1529 H1522 0.950 . S
C1529 C1526 1.387 . S
C1530 C1531 1.387 . S
C1530 H1534 0.950 . S
C1530 C1539 1.390 . S
C1531 C1530 1.387 . S
C1531 C1533 1.387 . S
H1532 C1539 0.950 . S
C1533 C1531 1.387 . S
C1533 C1535 1.390 . S
C1533 H1537 0.950 . S
H1534 C1530 0.950 . S
C1535 C1533 1.390 . S
C1535 C1536 1.387 . S
C1535 H1538 0.950 . S
C1536 C1535 1.387 . S
C1536 C1539 1.387 . S
H1537 C1533 0.950 . S
H1538 C1535 0.950 . S
C1539 C1530 1.390 . S
C1539 H1532 0.950 . S
C1539 C1536 1.387 . S
C1540 C1541 1.387 . S
C1540 H1544 0.950 . S
C1540 C1549 1.390 . S
C1541 C1540 1.387 . S
C1541 C1543 1.387 . S
H1542 C1549 0.950 . S
C1543 C1541 1.387 . S
C1543 C1545 1.390 . S
C1543 H1547 0.950 . S
H1544 C1540 0.950 . S
C1545 C1543 1.390 . S
C1545 C1546 1.387 . S
C1545 H1548 0.950 . S
C1546 C1545 1.387 . S
C1546 C1549 1.387 . S
H1547 C1543 0.950 . S
H1548 C1545 0.950 . S
C1549 C1540 1.390 . S
C1549 H1542 0.950 . S
C1549 C1546 1.387 . S
C1550 C1551 1.387 . S
C1550 H1554 0.950 . S
C1550 C1559 1.390 . S
C1551 C1550 1.387 . S
C1551 C1553 1.387 . S
H1552 C1559 0.950 . S
C1553 C1551 1.387 . S
C1553 C1555 1.390 . S
C1553 H1557 0.950 . S
H1554 C1550 0.950 . S
C1555 C1553 1.390 . S
C1555 C1556 1.387 . S
C1555 H1558 0.950 . S
C1556 C1555 1.387 . S
C1556 C1559 1.387 . S
H1557 C1553 0.950 . S
H1558 C1555 0.950 . S
C1559 C1550 1.390 . S
C1559 H1552 0.950 . S
C1559 C1556 1.387 . S
C1560 C1561 1.387 . S
C1560 H1564 0.950 . S
C1560 C1569 1.390 . S
C1561 C1560 1.387 . S
C1561 C1563 1.387 . S
H1562 C1569 0.950 . S
C1563 C1561 1.387 . S
C1563 C1565 1.390 . S
C1563 H1567 0.950 . S
H1564 C1560 0.950 . S
C1565 C1563 1.390 . S
C1565 C1566 1.387 . S
C1565 H1568 0.950 . S
C1566 C1565 1.387 . S
C1566 C1569 1.387 . S
H1567 C1563 0.950 . S
H1568 C1565 0.950 . S
C1569 C1560 1.390 . S
C1569 H1562 0.950 . S
C1569 C1566 1.387 . S
C1570 C1571 1.387 . S
C1570 H1574 0.950 . S
C1570 C1579 1.390 . S
C1571 C1570 1.387 . S
C1571 C1573 1.387 . S
H1572 C1579 0.950 . S
C1573 C1571 1.387 . S
C1573 C1575 1.390 . S
C1573 H1577 0.950 . S
H1574 C1570 0.950 . S
C1575 C1573 1.390 . S
C1575 C1576 1.387 . S
C1575 H1578 0.950 . S
C1576 C1575 1.387 . S
C1576 C1579 1.387 . S
H1577 C1573 0.950 . S
H1578 C1575 0.950 . S
C1579 C1570 1.390 . S
C1579 H1572 0.950 . S
C1579 C1576 1.387 . S
C1580 C1581 1.387 . S
C1580 H1584 0.950 . S
C1580 C1589 1.390 . S
C1581 C1580 1.387 . S
C1581 C1583 1.387 . S
H1582 C1589 0.950 . S
C1583 C1581 1.387 . S
C1583 C1585 1.390 . S
C1583 H1587 0.950 . S
H1584 C1580 0.950 . S
C1585 C1583 1.390 . S
C1585 C1586 1.387 . S
C1585 H1588 0.950 . S
C1586 C1585 1.387 . S
C1586 C1589 1.387 . S
H1587 C1583 0.950 . S
H1588 C1585 0.950 . S
C1589 C1580 1.390 . S
C1589 H1582 0.950 . S
C1589 C1586 1.387 . S
C1590 C1591 1.387 . S
C1590 H1594 0.950 . S
C1590 C1599 1.390 . S
C1591 C1590 1.387 . S
C1591 C1593 1.387 . S
H1592 C1599 0.950 . S
C1593 C1591 1.387 . S
C1593 C1595 1.390 . S
C1593 H1597 0.950 . S
H1594 C1590 0.950 . S
C1595 C1593 1.390 . S
C1595 C1596 1.387 . S
C1595 H1598 0.950 . S
C1596 C1595 1.387 . S
C1596 C1599 1.387 . S
H1597 C1593 0.950 . S
H1598 C1595 0.950 . S
C1599 C1590 1.390 . S
C1599 H1592 0.950 . S
C1599 C1596 1.387 . S
C1600 C1601 1.387 . S
C1600 H1604 0.950 . S
C1600 C1609 1.390 . S
C1601 C1600 1.387 . S
C1601 C1603 1.387 . S
H1602 C1609 0.950 . S
C1603 C1601 1.387 . S
C1603 C1605 1.390 . S
C1603 H1607 0.950 . S
H1604 C1600 0.950 . S
C1605 C1603 1.390 . S
C1605 C1606 1.387 . S
C1605 H1608 0.950 . S
C1606 C1605 1.387 . S
C1606 C1609 1.387 . S
H1607 C1603 0.950 . S
H1608 C1605 0.950 . S
C1609 C1600 1.390 . S
C1609 H1602 0.950 . S
C1609 C1606 1.387 . S
C1610 C1611 1.387 . S
C1610 H1614 0.950 . S
C1610 C1619 1.390 . S
C1611 C1610 1.387 . S
C1611 C1613 1.387 . S
H1612 C1619 0.950 . S
C1613 C1611 1.387 . S
C1613 C1615 1.390 . S
C1613 H1617 0.950 . S
H1614 C1610 0.950 . S
C1615 C1613 1.390 . S
C1615 C1616 1.387 . S
C1615 H1618 0.950 . S
C1616 C1615 1.387 . S
C1616 C1619 1.387 . S
H1617 C1613 0.950 . S
H1618 C1615 0.950 . S
C1619 C1610 1.390 . S
C1619 H1612 0.950 . S
C1619 C1616 1.387 . S
C1081 C522 1.833 . S
C1086 C732 1.822 . S
C1091 C562 1.836 . S
C1096 C772 1.815 . S
C1101 C495 1.875 . S
C1106 C802 1.921 . S
C1111 C455 1.676 . S
C1116 C762 1.699 . S
C1126 C812 1.559 . S
C1121 C362 1.555 . S
C1131 C402 1.668 . S
C1136 C722 1.651 1_556 S
C1146 C751 1.844 . S
C1141 C442 1.721 . S
C1156 C791 1.792 . S
C1151 C375 1.786 . S
C1161 C415 1.895 . S
C1166 C817 1.924 . S
C1171 C535 1.692 . S
C1176 C777 1.700 . S
C1181 C575 1.518 . S
C1186 C831 1.534 . S
C1196 C737 1.689 . S
C1191 C482 1.544 . S
C1206 C852 1.821 . S
C1201 C42 1.832 1_455 S
C1211 C82 1.836 . S
C1216 C892 1.815 . S
C1221 C15 1.876 1_565 S
C1226 C922 1.921 . S
C1231 C695 1.677 . S
C1236 C882 1.699 . S
C1241 C602 1.555 . S
C1246 C932 1.559 . S
C1251 C642 1.670 . S
C1256 C842 1.664 . S
C1261 C682 1.721 . S
C1266 C871 1.844 . S
C1271 C615 1.785 . S
C1276 C911 1.792 . S
C1286 C937 1.924 . S
C1281 C655 1.893 . S
C1291 C55 1.692 1_565 S
C1296 C897 1.700 . S
C1306 C951 1.534 . S
C1301 C95 1.518 . S
C1311 C2 1.544 . S
C1316 C857 1.689 . S
C1326 C972 1.823 . S
C1321 C282 1.834 . S
C1331 C322 1.836 . S
C1336 C1012 1.816 . S
C1346 C1042 1.922 . S
C1341 C255 1.878 . S
C1356 C1002 1.700 . S
C1351 C215 1.679 1_545 S
C1366 C1052 1.560 . S
C1361 C122 1.555 . S
C1371 C162 1.670 . S
C1376 C962 1.664 . S
C1381 C202 1.724 1_655 S
C1386 C991 1.847 . S
C1391 C135 1.786 . S
C1396 C1031 1.792 . S
C1406 C1057 1.923 . S
C1401 C175 1.893 1_545 S
C1411 C295 1.690 . S
C1416 C1017 1.700 . S
C1421 C335 1.516 . S
C1426 C1071 1.532 . S
C1431 C242 1.539 . S
C1436 C977 1.687 . S
C1441 C621 1.353 . S
C1446 C749 1.343 . S
C1456 C789 1.872 . S
C1451 C661 1.923 1_455 S
C1461 C701 1.569 . S
C1466 C808 1.623 . S
C1471 C261 1.830 1_455 S
C1476 C768 1.889 . S
C1481 C301 1.620 . S
C1486 C829 1.605 . S
C1496 C728 1.341 . S
C1491 C341 1.353 . S
C1501 C141 1.354 . S
C1506 C869 1.344 . S
C1511 C181 1.927 . S
C1516 C909 1.872 . S
C1521 C221 1.569 . S
C1526 C928 1.623 . S
C1531 C501 1.829 . S
C1536 C888 1.890 . S
C1546 C949 1.605 . S
C1541 C541 1.620 . S
C1551 C581 1.353 . S
C1556 C848 1.341 . S
C1561 C381 1.353 . S
C1566 C989 1.345 . S
C1571 C421 1.927 . S
C1576 C1029 1.872 . S
C1586 C1048 1.623 . S
C1581 C461 1.569 . S
C1591 C21 1.826 . S
C1596 C1008 1.887 . S
C1601 C61 1.621 . S
C1606 C1069 1.604 . S
C1611 C101 1.353 . S
C1616 C968 1.342 . S
