# Generated by pormake.
# Topology tsx, (6,3)-cn, num edge types: 1
# Building blocks:
#     Node 0, Type 0, BuildingBlock: VOLQOD_clean_sbu_1, # of connection points: 6
#     Node 1, Type 0, BuildingBlock: VOLQOD_clean_sbu_1, # of connection points: 6
#     Node 2, Type 1, BuildingBlock: OLANEW_clean_sbu_2, # of connection points: 3
#     Node 3, Type 1, BuildingBlock: OLANEW_clean_sbu_2, # of connection points: 3
#     Node 4, Type 1, BuildingBlock: OLANEW_clean_sbu_2, # of connection points: 3
#     Node 5, Type 1, BuildingBlock: OLANEW_clean_sbu_2, # of connection points: 3
#     Edge 6, Type (0, 1), BuildingBlock: CIFDUS_clean_linker_0, # of connection points: 2
#     Edge 7, Type (0, 1), BuildingBlock: CIFDUS_clean_linker_0, # of connection points: 2
#     Edge 8, Type (0, 1), BuildingBlock: CIFDUS_clean_linker_0, # of connection points: 2
#     Edge 9, Type (0, 1), BuildingBlock: CIFDUS_clean_linker_0, # of connection points: 2
#     Edge 10, Type (0, 1), BuildingBlock: CIFDUS_clean_linker_0, # of connection points: 2
#     Edge 11, Type (0, 1), BuildingBlock: CIFDUS_clean_linker_0, # of connection points: 2
#     Edge 12, Type (0, 1), BuildingBlock: CIFDUS_clean_linker_0, # of connection points: 2
#     Edge 13, Type (0, 1), BuildingBlock: CIFDUS_clean_linker_0, # of connection points: 2
#     Edge 14, Type (0, 1), BuildingBlock: CIFDUS_clean_linker_0, # of connection points: 2
#     Edge 15, Type (0, 1), BuildingBlock: CIFDUS_clean_linker_0, # of connection points: 2
#     Edge 16, Type (0, 1), BuildingBlock: CIFDUS_clean_linker_0, # of connection points: 2
#     Edge 17, Type (0, 1), BuildingBlock: CIFDUS_clean_linker_0, # of connection points: 2
# Relax obj value: 0.029
# Max RMSD: 0.074
# Mean RMSD: 0.069
data_MOF--net-tsx--node1-VOLQOD_clean_sbu_1--node2-OLANEW_clean_sbu_2--edge1-CIFDUS_clean_linker_0
_symmetry_space_group_name_H-M    P1
_symmetry_Int_Tables_number       1
_symmetry_cell_setting            triclinic
loop_
_symmetry_equiv_pos_as_xyz
'x, y, z'
_cell_length_a     20.903211
_cell_length_b     21.143583
_cell_length_c     35.074595
_cell_angle_alpha  94.35956
_cell_angle_beta   90.030487
_cell_angle_gamma 90.005499
loop_
_atom_site_label
_atom_site_type_symbol
_atom_site_fract_x
_atom_site_fract_y
_atom_site_fract_z
_atom_type_partial_charge
O0 O 0.03249 0.00019 0.07926 0.0
Zn1 Zn 0.05776 -0.0047 0.02349 0.0
O2 O 0.98214 -0.00748 -0.00965 0.0
Zn3 Zn 0.98244 0.91198 0.9586 0.0
Zn4 Zn 0.90451 -0.00183 0.02148 0.0
Zn5 Zn -0.0163 0.06468 0.95824 0.0
O6 O 0.98196 0.92852 0.90258 0.0
O7 O -0.0084 0.03325 0.90261 0.0
O8 O 0.11502 0.91928 0.01252 0.0
O9 O 0.06311 0.86206 0.96684 0.0
O10 O 0.90766 0.85597 0.97142 0.0
O11 O 0.85458 0.91675 0.01507 0.0
O12 O 0.84611 0.06897 0.00699 0.0
O13 O 0.1114 0.0718 0.01483 0.0
O14 O 0.90249 0.11678 0.96391 0.0
O15 O 0.05857 0.12285 0.97152 0.0
C16 C 0.97891 0.00799 0.09629 0.0
C17 C -0.0115 0.97852 0.88475 0.0
C18 C 0.86113 0.86465 -0.00526 0.0
C19 C 0.11114 0.87051 -0.01099 0.0
C20 C 0.85205 0.11237 0.98392 0.0
C21 C 0.10596 0.11826 -0.00602 0.0
O22 O 0.92681 0.01079 0.07756 0.0
O23 O 0.53287 0.50667 0.59275 0.0
Zn24 Zn 0.55876 0.50353 0.53734 0.0
O25 O 0.48464 0.51386 0.50428 0.0
Zn26 Zn 0.47535 0.43789 0.46864 0.0
Zn27 Zn 0.40729 0.52573 0.53544 0.0
Zn28 Zn 0.49761 0.5892 0.47599 0.0
O29 O 0.48145 0.4612 0.41357 0.0
O30 O 0.50073 0.56485 0.41958 0.0
O31 O 0.60425 0.42086 0.52393 0.0
O32 O 0.54659 0.37583 0.47615 0.0
O33 O 0.39208 0.39146 0.47753 0.0
O34 O 0.34573 0.45451 0.523 0.0
O35 O 0.36091 0.60706 0.52543 0.0
O36 O 0.62352 0.57212 0.53158 0.0
O37 O 0.42521 0.65128 0.48467 0.0
O38 O 0.58046 0.63412 0.49022 0.0
C39 C 0.4796 0.51492 0.61003 0.0
C40 C 0.49304 0.51335 0.39881 0.0
C41 C 0.34552 0.4047 0.50023 0.0
C42 C 0.59401 0.37513 0.49893 0.0
C43 C 0.37415 0.65201 0.50448 0.0
C44 C 0.62605 0.62065 0.51228 0.0
O45 O 0.42792 0.52362 0.5918 0.0
O46 O 0.06904 0.00976 0.34371 0.0
Cd47 Cd 0.07007 0.02075 0.41391 0.0
O48 O 0.96555 0.02713 0.33979 0.0
Cd49 Cd 0.94601 0.04564 0.40068 0.0
O50 O 0.87608 0.09723 0.43721 0.0
C51 C 0.81787 0.08544 0.42892 0.0
O52 O 0.80499 0.0403 0.40216 0.0
C53 C 0.01896 0.01499 0.32357 0.0
C54 C 0.15983 0.93942 0.44335 0.0
O55 O 0.10094 0.92312 0.43971 0.0
O56 O 0.17603 -0.00568 0.43348 0.0
O57 O 0.02089 0.04953 0.63983 0.0
Cd58 Cd 0.019 0.0421 0.56957 0.0
O59 O 0.0278 0.94616 0.64205 0.0
Cd60 Cd 0.01354 0.92429 0.58099 0.0
O61 O 0.94737 0.86421 0.54688 0.0
C62 C 0.89679 0.88602 0.53263 0.0
O63 O 0.88764 0.94767 0.53469 0.0
C64 C 0.02568 0.00125 0.65919 0.0
C65 C 0.10866 0.12247 0.53935 0.0
O66 O 0.05247 0.1421 0.54887 0.0
O67 O 0.12251 0.06445 0.54386 0.0
O68 O 0.49221 0.4717 0.85149 0.0
Cd69 Cd 0.49945 0.46221 0.92073 0.0
O70 O 0.54858 0.55983 0.85682 0.0
Cd71 Cd 0.51628 0.58014 0.91574 0.0
O72 O 0.43448 0.62791 0.94437 0.0
C73 C 0.38018 0.61359 0.92976 0.0
O74 O 0.37744 0.56927 0.90143 0.0
C75 C 0.52346 0.51459 0.83602 0.0
C76 C 0.60077 0.38213 0.93799 0.0
O77 O 0.54329 0.36116 0.93517 0.0
O78 O 0.61026 0.44081 0.93301 0.0
O79 O 0.52667 0.51508 0.15536 0.0
Cd80 Cd 0.52419 0.5217 0.08572 0.0
O81 O 0.52798 0.41075 0.15098 0.0
Cd82 Cd 0.5143 0.39715 0.08928 0.0
O83 O 0.45801 0.33156 0.05188 0.0
C84 C 0.40233 0.3464 0.04105 0.0
O85 O 0.38182 0.40466 0.04895 0.0
C86 C 0.52877 0.46308 0.17135 0.0
C87 C 0.59989 0.62024 0.06152 0.0
O88 O 0.54253 0.63026 0.07339 0.0
O89 O 0.62173 0.56354 0.0611 0.0
H90 H 0.2312 0.10348 0.01011 0.0
H91 H 0.09251 0.24402 0.98267 0.0
H92 H 0.17375 0.3273 -0.00815 0.0
H93 H 0.28224 0.36068 0.01247 0.0
H94 H 0.42117 0.21845 0.0376 0.0
H95 H 0.34204 0.13528 0.02386 0.0
C96 C 0.21888 0.15234 0.00598 0.0
C97 C 0.15586 0.16785 -0.00366 0.0
C98 C 0.26587 0.19961 0.01082 0.0
C99 C 0.14074 0.23105 -0.00973 0.0
C100 C 0.1871 0.27863 -0.00441 0.0
C101 C 0.29543 0.31143 0.01445 0.0
C102 C 0.35734 0.29602 0.02657 0.0
C103 C 0.24957 0.26358 0.00653 0.0
C104 C 0.37385 0.23185 0.02854 0.0
C105 C 0.32851 0.18415 0.02088 0.0
H106 H 0.11664 0.75798 0.94579 0.0
H107 H 0.22743 0.87989 0.02509 0.0
H108 H 0.3192 0.80903 0.01582 0.0
H109 H 0.37035 0.71596 0.982 0.0
H110 H 0.25906 0.59498 0.90246 0.0
H111 H 0.16537 0.66169 0.91533 0.0
C112 C 0.16066 0.76895 0.96129 0.0
C113 C 0.16505 0.82461 0.98586 0.0
C114 C 0.21345 0.72818 0.95571 0.0
C115 C 0.22252 0.83757 0.00589 0.0
C116 C 0.27521 0.79709 0.00056 0.0
C117 C 0.32544 0.7038 0.96778 0.0
C118 C 0.32208 0.65073 0.94106 0.0
C119 C 0.27157 0.74277 0.97507 0.0
C120 C 0.26332 0.63566 0.92301 0.0
C121 C 0.20959 0.67389 0.93028 0.0
H122 H 0.74524 0.87248 0.0299 0.0
H123 H 0.87565 0.73832 0.9728 0.0
H124 H 0.80595 0.65082 -0.01209 0.0
H125 H 0.71037 0.61204 0.02013 0.0
H126 H 0.57902 0.74703 0.07557 0.0
H127 H 0.64677 0.83443 0.05835 0.0
C128 C 0.75833 0.82414 0.02053 0.0
C129 C 0.81591 0.81207 0.00048 0.0
C130 C 0.71803 0.77409 0.02925 0.0
C131 C 0.83163 0.74911 -0.01177 0.0
C132 C 0.79193 0.69895 -0.00297 0.0
C133 C 0.69655 0.6606 0.02837 0.0
C134 C 0.63999 0.67293 0.04942 0.0
C135 C 0.73546 0.71082 0.018 0.0
C136 C 0.62232 0.73615 0.05943 0.0
C137 C 0.66109 0.78622 0.04964 0.0
H138 H 0.85732 0.22874 0.9556 0.0
H139 H 0.72622 0.09702 0.00213 0.0
H140 H 0.63701 0.16852 -0.00796 0.0
H141 H 0.59564 0.26759 0.96862 0.0
H142 H 0.72758 0.4015 0.92507 0.0
H143 H 0.81682 0.3302 0.93543 0.0
C144 C 0.80924 0.21569 0.96358 0.0
C145 C 0.79852 0.15736 0.97938 0.0
C146 C 0.75819 0.25744 0.95818 0.0
C147 C 0.73595 0.14163 -0.01002 0.0
C148 C 0.68481 0.18243 0.98411 0.0
C149 C 0.64394 0.28115 0.96144 0.0
C150 C 0.65484 0.3396 0.94584 0.0
C151 C 0.69527 0.24029 0.96801 0.0
C152 C 0.71782 0.35682 0.93713 0.0
C153 C 0.76891 0.31599 0.94296 0.0
H154 H 0.64016 0.74057 0.48946 0.0
H155 H 0.74173 0.59207 0.54216 0.0
H156 H 0.83627 0.65913 0.5494 0.0
H157 H 0.88827 0.76117 0.54413 0.0
H158 H 0.7863 0.91277 0.49496 0.0
H159 H 0.69412 0.84283 0.48243 0.0
C160 C 0.68311 0.72278 0.50232 0.0
C161 C 0.68362 0.66148 0.51546 0.0
C162 C 0.7373 0.76203 0.50695 0.0
C163 C 0.73968 0.63924 0.53214 0.0
C164 C 0.79394 0.67747 0.53618 0.0
C165 C 0.84628 0.77884 0.53018 0.0
C166 C 0.84419 0.84214 0.52053 0.0
C167 C 0.79303 0.73911 0.52412 0.0
C168 C 0.78912 0.86423 0.50273 0.0
C169 C 0.73632 0.82434 0.49569 0.0
H170 H 0.57754 0.26075 0.45929 0.0
H171 H 0.71454 0.36996 0.52896 0.0
H172 H 0.79462 0.287 0.51626 0.0
H173 H 0.82848 0.18778 0.48084 0.0
H174 H 0.69093 0.07903 0.41124 0.0
H175 H 0.60835 0.15712 0.42889 0.0
C176 C 0.62475 0.26626 0.47196 0.0
C177 C 0.64017 0.3219 0.49463 0.0
C178 C 0.67065 0.21849 0.46448 0.0
C179 C 0.70135 0.32776 0.51127 0.0
C180 C 0.74731 0.28039 0.50394 0.0
C181 C 0.78025 0.18071 0.46993 0.0
C182 C 0.76625 0.128 0.44434 0.0
C183 C 0.73291 0.22617 0.47992 0.0
C184 C 0.7033 0.11936 0.43075 0.0
C185 C 0.65597 0.16414 0.44072 0.0
H186 H 0.34753 0.27619 0.48588 0.0
H187 H 0.22315 0.43267 0.5211 0.0
H188 H 0.13715 0.35889 0.53336 0.0
H189 H 0.1001 0.25037 0.53912 0.0
H190 H 0.22575 0.09302 0.50782 0.0
H191 H 0.30822 0.16651 0.48888 0.0
C192 C 0.30121 0.29402 0.49558 0.0
C193 C 0.2917 0.35976 0.5026 0.0
C194 C 0.25243 0.25117 0.50371 0.0
C195 C 0.23172 0.38226 0.51566 0.0
C196 C 0.18255 0.34011 0.52274 0.0
C197 C 0.14527 0.23203 0.52781 0.0
C198 C 0.15686 0.16634 0.52514 0.0
C199 C 0.19283 0.27452 0.51771 0.0
C200 C 0.21575 0.14344 0.51046 0.0
C201 C 0.26294 0.18543 0.49959 0.0
H202 H 0.39605 0.76741 0.47781 0.0
H203 H 0.2466 0.65254 0.52194 0.0
H204 H 0.16714 0.73255 0.50829 0.0
H205 H 0.1392 0.83188 0.47974 0.0
H206 H 0.28944 0.94769 0.43731 0.0
H207 H 0.36937 0.87067 0.45451 0.0
C208 C 0.34616 0.76007 0.48475 0.0
C209 C 0.32729 0.70375 0.50054 0.0
C210 C 0.30074 0.80627 0.47689 0.0
C211 C 0.26253 0.69543 0.50979 0.0
C212 C 0.21695 0.74103 0.50181 0.0
C213 C 0.18948 0.84041 0.47447 0.0
C214 C 0.20823 0.8951 0.45686 0.0
C215 C 0.23536 0.79609 0.4847 0.0
C216 C 0.27364 0.9059 0.45071 0.0
C217 C 0.31943 0.8618 0.46045 0.0
H218 H 0.07695 0.99024 0.14599 0.0
H219 H 0.87547 0.03498 0.1422 0.0
H220 H 0.87034 0.0398 0.21174 0.0
H221 H 0.92235 0.03144 0.27351 0.0
H222 H 0.12363 0.98683 0.27815 0.0
H223 H 0.12923 0.98151 0.20833 0.0
C224 C 0.03192 0.00125 0.16033 0.0
C225 C 0.97671 0.01229 0.13872 0.0
C226 C 0.02911 0.0037 0.20049 0.0
C227 C 0.91877 0.0262 0.15794 0.0
C228 C 0.9157 0.02894 0.19778 0.0
C229 C 0.96753 0.02031 0.25936 0.0
C230 C 0.02248 0.0095 0.28117 0.0
C231 C 0.97048 0.01764 0.21931 0.0
C232 C 0.08054 -0.00466 0.26216 0.0
C233 C 0.08381 -0.00761 0.22221 0.0
H234 H 0.00494 0.07352 0.837 0.0
H235 H -0.01296 0.86994 0.83719 0.0
H236 H -1e-05 0.85935 0.76798 0.0
H237 H 0.01504 0.90734 0.70741 0.0
H238 H 0.03094 0.11078 0.70634 0.0
H239 H 0.02074 0.12171 0.776 0.0
C240 C 0.00374 0.02679 0.82195 0.0
C241 C -0.00516 0.97265 0.84246 0.0
C242 C 0.01123 0.0209 0.782 0.0
C243 C -0.0064 0.91252 0.82232 0.0
C244 C 0.00117 0.90634 0.78267 0.0
C245 C 0.0168 0.95415 0.72234 0.0
C246 C 0.02392 0.00815 0.70158 0.0
C247 C 0.01 0.96015 0.76225 0.0
C248 C 0.02559 0.06838 0.72154 0.0
C249 C 0.01958 0.07468 0.76138 0.0
H250 H 0.5753 0.54299 0.66094 0.0
H251 H 0.37922 0.47959 0.65322 0.0
H252 H 0.377 0.46964 0.72221 0.0
H253 H 0.43064 0.47967 0.7849 0.0
H254 H 0.62329 0.55212 0.79342 0.0
H255 H 0.62741 0.55731 0.72394 0.0
C256 C 0.53211 0.527 0.6744 0.0
C257 C 0.47758 0.51185 0.65201 0.0
C258 C 0.53077 0.52267 0.71417 0.0
C259 C 0.42171 0.4919 0.66987 0.0
C260 C 0.4205 0.48588 0.70927 0.0
C261 C 0.47367 0.49597 0.7714 0.0
C262 C 0.52692 0.51469 0.794 0.0
C263 C 0.47477 0.50103 0.73169 0.0
C264 C 0.5819 0.53717 0.77645 0.0
C265 C 0.58419 0.54025 0.7368 0.0
H266 H 0.50697 0.41262 0.34612 0.0
H267 H 0.49447 0.61702 0.35688 0.0
H268 H 0.50706 0.61987 0.28792 0.0
H269 H 0.51999 0.56442 0.22425 0.0
H270 H 0.53359 0.36003 0.21371 0.0
H271 H 0.52284 0.35742 0.28272 0.0
C272 C 0.50673 0.45779 0.33339 0.0
C273 C 0.49942 0.51443 0.35673 0.0
C274 C 0.5146 0.45925 0.29367 0.0
C275 C 0.49995 0.57259 0.33969 0.0
C276 C 0.50722 0.57434 0.30019 0.0
C277 C 0.52111 0.51932 0.23703 0.0
C278 C 0.52748 0.46258 0.21365 0.0
C279 C 0.51454 0.51798 0.27687 0.0
C280 C 0.52871 0.40456 0.23086 0.0
C281 C 0.52235 0.40291 0.27041 0.0
loop_
_geom_bond_atom_site_label_1
_geom_bond_atom_site_label_2
_geom_bond_distance
_geom_bond_site_symmetry_2
_ccdc_geom_bond_type
O0 Zn1 1.955 . S
O0 C16 1.225 1_565 S
Zn1 O0 1.955 . S
Zn1 O2 1.946 1_565 S
Zn1 O8 1.929 . S
Zn1 O13 1.914 1_565 S
O2 Zn1 1.946 1_545 S
O2 Zn3 1.923 1_444 S
O2 Zn4 1.950 1_455 S
O2 Zn5 1.945 1_554 S
Zn3 O2 1.923 1_666 S
Zn3 O6 1.933 . S
Zn3 O9 1.941 1_655 S
Zn3 O10 1.965 . S
Zn4 O2 1.950 1_655 S
Zn4 O11 1.938 1_545 S
Zn4 O12 1.906 . S
Zn4 O22 1.953 . S
Zn5 O2 1.945 1_556 S
Zn5 O7 1.932 . S
Zn5 O14 1.977 1_455 S
Zn5 O15 1.910 . S
O6 Zn3 1.933 . S
O6 C17 1.226 1_665 S
O7 Zn5 1.932 . S
O7 C17 1.307 . S
O8 Zn1 1.929 . S
O8 C19 1.253 1_554 S
O9 Zn3 1.941 1_455 S
O9 C19 1.283 . S
O10 Zn3 1.965 . S
O10 C18 1.303 1_556 S
O11 Zn4 1.938 1_565 S
O11 C18 1.247 . S
O12 Zn4 1.906 . S
O12 C20 1.304 1_554 S
O13 Zn1 1.914 1_545 S
O13 C21 1.311 . S
O14 Zn5 1.977 1_655 S
O14 C20 1.272 . S
O15 Zn5 1.910 . S
O15 C21 1.231 1_556 S
C16 O0 1.225 1_545 S
C16 O22 1.298 1_455 S
C17 O6 1.226 1_445 S
C17 O7 1.307 . S
C18 O10 1.303 1_554 S
C18 O11 1.247 . S
C19 O8 1.253 1_556 S
C19 O9 1.283 . S
C20 O12 1.304 1_556 S
C20 O14 1.272 . S
C21 O13 1.311 . S
C21 O15 1.231 1_554 S
O22 Zn4 1.953 . S
O22 C16 1.298 1_655 S
O23 Zn24 1.953 . S
O23 C39 1.225 . S
Zn24 O23 1.953 . S
Zn24 O25 1.949 . S
Zn24 O31 1.919 . S
Zn24 O36 1.924 . S
O25 Zn24 1.949 . S
O25 Zn26 1.923 . S
O25 Zn27 1.950 . S
O25 Zn28 1.945 . S
Zn26 O25 1.923 . S
Zn26 O29 1.933 . S
Zn26 O32 1.941 . S
Zn26 O33 1.965 . S
Zn27 O25 1.950 . S
Zn27 O34 1.938 . S
Zn27 O35 1.906 . S
Zn27 O45 1.953 . S
Zn28 O25 1.945 . S
Zn28 O30 1.932 . S
Zn28 O37 1.977 . S
Zn28 O38 1.910 . S
O29 Zn26 1.933 . S
O29 C40 1.226 . S
O30 Zn28 1.932 . S
O30 C40 1.307 . S
O31 Zn24 1.919 . S
O31 C42 1.253 . S
O32 Zn26 1.941 . S
O32 C42 1.283 . S
O33 Zn26 1.965 . S
O33 C41 1.303 . S
O34 Zn27 1.938 . S
O34 C41 1.247 . S
O35 Zn27 1.906 . S
O35 C43 1.304 . S
O36 Zn24 1.924 . S
O36 C44 1.311 . S
O37 Zn28 1.977 . S
O37 C43 1.272 . S
O38 Zn28 1.910 . S
O38 C44 1.231 . S
C39 O23 1.225 . S
C39 O45 1.298 . S
C40 O29 1.226 . S
C40 O30 1.307 . S
C41 O33 1.303 . S
C41 O34 1.247 . S
C42 O31 1.253 . S
C42 O32 1.283 . S
C43 O35 1.304 . S
C43 O37 1.272 . S
C44 O36 1.311 . S
C44 O38 1.231 . S
O45 Zn27 1.953 . S
O45 C39 1.298 . S
O46 Cd47 2.300 . S
O46 C53 1.275 1_565 S
Cd47 O46 2.300 . S
Cd47 O55 2.381 . S
Cd47 O56 2.378 . S
O48 Cd49 2.385 . S
O48 C53 1.255 . S
Cd49 O48 2.385 . S
Cd49 O50 2.317 1_455 S
O50 Cd49 2.317 1_655 S
O50 C51 1.232 . S
C51 O50 1.232 . S
C51 O52 1.218 . S
O52 C51 1.218 . S
C53 O46 1.275 1_545 S
C53 O48 1.255 . S
C54 O55 1.258 . S
C54 O56 1.256 . S
O55 Cd47 2.381 . S
O55 C54 1.258 . S
O56 Cd47 2.378 . S
O56 C54 1.256 . S
O57 Cd58 2.300 . S
O57 C64 1.275 1_545 S
Cd58 O57 2.300 . S
Cd58 O66 2.381 . S
Cd58 O67 2.378 . S
O59 Cd60 2.385 . S
O59 C64 1.255 . S
Cd60 O59 2.385 . S
Cd60 O61 2.317 1_455 S
O61 Cd60 2.317 1_655 S
O61 C62 1.232 . S
C62 O61 1.232 . S
C62 O63 1.218 . S
O63 C62 1.218 . S
C64 O57 1.275 1_565 S
C64 O59 1.255 . S
C65 O66 1.258 . S
C65 O67 1.256 . S
O66 Cd58 2.381 . S
O66 C65 1.258 . S
O67 Cd58 2.378 . S
O67 C65 1.256 . S
O68 Cd69 2.300 . S
O68 C75 1.275 . S
Cd69 O68 2.300 . S
Cd69 O77 2.381 . S
Cd69 O78 2.378 . S
O70 Cd71 2.385 . S
O70 C75 1.255 . S
Cd71 O70 2.385 . S
Cd71 O72 2.317 . S
O72 Cd71 2.317 . S
O72 C73 1.232 . S
C73 O72 1.232 . S
C73 O74 1.218 . S
O74 C73 1.218 . S
C75 O68 1.275 . S
C75 O70 1.255 . S
C76 O77 1.258 . S
C76 O78 1.256 . S
O77 Cd69 2.381 . S
O77 C76 1.258 . S
O78 Cd69 2.378 . S
O78 C76 1.256 . S
O79 Cd80 2.300 . S
O79 C86 1.275 . S
Cd80 O79 2.300 . S
Cd80 O88 2.381 . S
Cd80 O89 2.378 . S
O81 Cd82 2.385 . S
O81 C86 1.255 . S
Cd82 O81 2.385 . S
Cd82 O83 2.317 . S
O83 Cd82 2.317 . S
O83 C84 1.232 . S
C84 O83 1.232 . S
C84 O85 1.218 . S
O85 C84 1.218 . S
C86 O79 1.275 . S
C86 O81 1.255 . S
C87 O88 1.258 . S
C87 O89 1.256 . S
O88 Cd80 2.381 . S
O88 C87 1.258 . S
O89 Cd80 2.378 . S
O89 C87 1.256 . S
H90 C96 0.930 . S
H91 C99 0.930 . S
H92 C100 0.930 . S
H93 C101 0.930 . S
H94 C104 0.930 . S
H95 C105 0.930 . S
C96 H90 0.930 . S
C96 C97 1.355 . S
C96 C98 1.415 . S
C97 C96 1.355 . S
C97 C99 1.419 . S
C98 C96 1.415 . S
C98 C103 1.425 . S
C98 C105 1.409 . S
C99 H91 0.930 . S
C99 C97 1.419 . S
C99 C100 1.362 . S
C100 H92 0.930 . S
C100 C99 1.362 . S
C100 C103 1.409 . S
C101 H93 0.930 . S
C101 C102 1.355 . S
C101 C103 1.415 . S
C102 C101 1.355 . S
C102 C104 1.419 . S
C103 C98 1.425 . S
C103 C100 1.409 . S
C103 C101 1.415 . S
C104 H94 0.930 . S
C104 C102 1.419 . S
C104 C105 1.362 . S
C105 H95 0.930 . S
C105 C98 1.409 . S
C105 C104 1.362 . S
H106 C112 0.930 . S
H107 C115 0.930 . S
H108 C116 0.918 1_554 S
H109 C117 0.930 . S
H110 C120 0.930 . S
H111 C121 0.930 . S
C112 H106 0.930 . S
C112 C113 1.355 . S
C112 C114 1.415 . S
C113 C112 1.355 . S
C113 C115 1.419 1_556 S
C114 C112 1.415 . S
C114 C119 1.425 . S
C114 C121 1.409 . S
C115 H107 0.930 . S
C115 C113 1.419 1_554 S
C115 C116 1.362 1_554 S
C116 H108 0.918 1_556 S
C116 C115 1.362 1_556 S
C116 C119 1.422 . S
C117 H109 0.930 . S
C117 C118 1.355 . S
C117 C119 1.415 . S
C118 C117 1.355 . S
C118 C120 1.419 . S
C119 C114 1.425 . S
C119 C116 1.422 . S
C119 C117 1.415 . S
C120 H110 0.930 . S
C120 C118 1.419 . S
C120 C121 1.362 . S
C121 H111 0.930 . S
C121 C114 1.409 . S
C121 C120 1.362 . S
H122 C128 0.930 . S
H123 C131 0.930 . S
H124 C132 0.930 . S
H125 C133 0.930 . S
H126 C136 0.930 . S
H127 C137 0.930 . S
C128 H122 0.930 . S
C128 C129 1.355 . S
C128 C130 1.415 . S
C129 C128 1.355 . S
C129 C131 1.419 . S
C130 C128 1.415 . S
C130 C135 1.425 . S
C130 C137 1.409 . S
C131 H123 0.930 . S
C131 C129 1.419 . S
C131 C132 1.362 . S
C132 H124 0.930 . S
C132 C131 1.362 . S
C132 C135 1.409 . S
C133 H125 0.930 . S
C133 C134 1.355 . S
C133 C135 1.415 . S
C134 C133 1.355 . S
C134 C136 1.419 . S
C135 C130 1.425 . S
C135 C132 1.409 . S
C135 C133 1.415 . S
C136 H126 0.930 . S
C136 C134 1.419 . S
C136 C137 1.362 . S
C137 H127 0.930 . S
C137 C130 1.409 . S
C137 C136 1.362 . S
H138 C144 0.932 . S
H139 C147 0.930 . S
H140 C148 0.930 . S
H141 C149 0.930 . S
H142 C152 0.934 . S
H143 C153 0.930 . S
C144 H138 0.932 . S
C144 C145 1.354 1_554 S
C144 C146 1.413 1_554 S
C145 C144 1.354 1_556 S
C145 C147 1.419 . S
C146 C144 1.413 1_556 S
C146 C151 1.425 . S
C146 C153 1.409 1_556 S
C147 H139 0.930 . S
C147 C145 1.419 . S
C147 C148 1.362 . S
C148 H140 0.930 . S
C148 C147 1.362 . S
C148 C151 1.409 . S
C149 H141 0.930 . S
C149 C150 1.355 . S
C149 C151 1.415 . S
C150 C149 1.355 . S
C150 C152 1.419 . S
C151 C146 1.425 . S
C151 C148 1.409 . S
C151 C149 1.415 . S
C152 H142 0.934 . S
C152 C150 1.419 . S
C152 C153 1.362 1_556 S
C153 H143 0.930 . S
C153 C146 1.409 1_554 S
C153 C152 1.362 1_554 S
H154 C160 0.930 . S
H155 C163 0.930 . S
H156 C164 0.930 . S
H157 C165 0.930 . S
H158 C168 0.930 . S
H159 C169 0.930 . S
C160 H154 0.930 . S
C160 C161 1.355 . S
C160 C162 1.415 . S
C161 C160 1.355 . S
C161 C163 1.419 . S
C162 C160 1.415 . S
C162 C167 1.425 . S
C162 C169 1.409 . S
C163 H155 0.930 . S
C163 C161 1.419 . S
C163 C164 1.362 . S
C164 H156 0.930 . S
C164 C163 1.362 . S
C164 C167 1.409 . S
C165 H157 0.930 . S
C165 C166 1.355 . S
C165 C167 1.415 . S
C166 C165 1.355 . S
C166 C168 1.419 . S
C167 C162 1.425 . S
C167 C164 1.409 . S
C167 C165 1.415 . S
C168 H158 0.930 . S
C168 C166 1.419 . S
C168 C169 1.362 . S
C169 H159 0.930 . S
C169 C162 1.409 . S
C169 C168 1.362 . S
H170 C176 0.930 . S
H171 C179 0.930 . S
H172 C180 0.930 . S
H173 C181 0.930 . S
H174 C184 0.930 . S
H175 C185 0.930 . S
C176 H170 0.930 . S
C176 C177 1.355 . S
C176 C178 1.415 . S
C177 C176 1.355 . S
C177 C179 1.419 . S
C178 C176 1.415 . S
C178 C183 1.425 . S
C178 C185 1.409 . S
C179 H171 0.930 . S
C179 C177 1.419 . S
C179 C180 1.362 . S
C180 H172 0.930 . S
C180 C179 1.362 . S
C180 C183 1.409 . S
C181 H173 0.930 . S
C181 C182 1.355 . S
C181 C183 1.415 . S
C182 C181 1.355 . S
C182 C184 1.419 . S
C183 C178 1.425 . S
C183 C180 1.409 . S
C183 C181 1.415 . S
C184 H174 0.930 . S
C184 C182 1.419 . S
C184 C185 1.362 . S
C185 H175 0.930 . S
C185 C178 1.409 . S
C185 C184 1.362 . S
H186 C192 0.930 . S
H187 C195 0.930 . S
H188 C196 0.930 . S
H189 C197 0.930 . S
H190 C200 0.930 . S
H191 C201 0.930 . S
C192 H186 0.930 . S
C192 C193 1.355 . S
C192 C194 1.415 . S
C193 C192 1.355 . S
C193 C195 1.419 . S
C194 C192 1.415 . S
C194 C199 1.425 . S
C194 C201 1.409 . S
C195 H187 0.930 . S
C195 C193 1.419 . S
C195 C196 1.362 . S
C196 H188 0.930 . S
C196 C195 1.362 . S
C196 C199 1.409 . S
C197 H189 0.930 . S
C197 C198 1.355 . S
C197 C199 1.415 . S
C198 C197 1.355 . S
C198 C200 1.419 . S
C199 C194 1.425 . S
C199 C196 1.409 . S
C199 C197 1.415 . S
C200 H190 0.930 . S
C200 C198 1.419 . S
C200 C201 1.362 . S
C201 H191 0.930 . S
C201 C194 1.409 . S
C201 C200 1.362 . S
H202 C208 0.930 . S
H203 C211 0.930 . S
H204 C212 0.930 . S
H205 C213 0.930 . S
H206 C216 0.930 . S
H207 C217 0.930 . S
C208 H202 0.930 . S
C208 C209 1.355 . S
C208 C210 1.415 . S
C209 C208 1.355 . S
C209 C211 1.419 . S
C210 C208 1.415 . S
C210 C215 1.425 . S
C210 C217 1.409 . S
C211 H203 0.930 . S
C211 C209 1.419 . S
C211 C212 1.362 . S
C212 H204 0.930 . S
C212 C211 1.362 . S
C212 C215 1.409 . S
C213 H205 0.930 . S
C213 C214 1.355 . S
C213 C215 1.415 . S
C214 C213 1.355 . S
C214 C216 1.419 . S
C215 C210 1.425 . S
C215 C212 1.409 . S
C215 C213 1.415 . S
C216 H206 0.930 . S
C216 C214 1.419 . S
C216 C217 1.362 . S
C217 H207 0.930 . S
C217 C210 1.409 . S
C217 C216 1.362 . S
H218 C224 0.930 . S
H219 C227 0.930 . S
H220 C228 0.930 . S
H221 C229 0.930 . S
H222 C232 0.930 . S
H223 C233 0.930 . S
C224 H218 0.930 . S
C224 C225 1.355 1_465 S
C224 C226 1.415 . S
C225 C224 1.355 1_645 S
C225 C227 1.419 . S
C226 C224 1.415 . S
C226 C231 1.425 1_465 S
C226 C233 1.409 . S
C227 H219 0.930 . S
C227 C225 1.419 . S
C227 C228 1.362 . S
C228 H220 0.930 . S
C228 C227 1.362 . S
C228 C231 1.409 . S
C229 H221 0.930 . S
C229 C230 1.355 1_655 S
C229 C231 1.415 . S
C230 C229 1.355 1_455 S
C230 C232 1.419 1_545 S
C231 C226 1.425 1_645 S
C231 C228 1.409 . S
C231 C229 1.415 . S
C232 H222 0.930 . S
C232 C230 1.419 1_565 S
C232 C233 1.362 . S
C233 H223 0.930 . S
C233 C226 1.409 . S
C233 C232 1.362 . S
H234 C240 0.930 . S
H235 C243 0.930 . S
H236 C244 0.930 . S
H237 C245 0.930 . S
H238 C248 0.930 . S
H239 C249 0.930 . S
C240 H234 0.930 . S
C240 C241 1.355 1_645 S
C240 C242 1.415 . S
C241 C240 1.355 1_465 S
C241 C243 1.419 . S
C242 C240 1.415 . S
C242 C247 1.425 1_645 S
C242 C249 1.409 . S
C243 H235 0.930 . S
C243 C241 1.419 . S
C243 C244 1.362 . S
C244 H236 0.930 . S
C244 C243 1.362 . S
C244 C247 1.409 . S
C245 H237 0.930 . S
C245 C246 1.351 1_565 S
C245 C247 1.415 . S
C246 C245 1.351 1_545 S
C246 C248 1.423 1_455 S
C247 C242 1.425 1_465 S
C247 C244 1.409 . S
C247 C245 1.415 . S
C248 H238 0.930 . S
C248 C246 1.423 1_655 S
C248 C249 1.362 . S
C249 H239 0.930 . S
C249 C242 1.409 . S
C249 C248 1.362 . S
H250 C256 0.930 . S
H251 C259 0.930 . S
H252 C260 0.930 . S
H253 C261 0.930 . S
H254 C264 0.930 . S
H255 C265 0.930 . S
C256 H250 0.930 . S
C256 C257 1.355 . S
C256 C258 1.415 . S
C257 C256 1.355 . S
C257 C259 1.419 . S
C258 C256 1.415 . S
C258 C263 1.425 . S
C258 C265 1.409 . S
C259 H251 0.930 . S
C259 C257 1.419 . S
C259 C260 1.362 . S
C260 H252 0.930 . S
C260 C259 1.362 . S
C260 C263 1.409 . S
C261 H253 0.930 . S
C261 C262 1.355 . S
C261 C263 1.415 . S
C262 C261 1.355 . S
C262 C264 1.419 . S
C263 C258 1.425 . S
C263 C260 1.409 . S
C263 C261 1.415 . S
C264 H254 0.930 . S
C264 C262 1.419 . S
C264 C265 1.362 . S
C265 H255 0.930 . S
C265 C258 1.409 . S
C265 C264 1.362 . S
H266 C272 0.930 . S
H267 C275 0.930 . S
H268 C276 0.930 . S
H269 C277 0.930 . S
H270 C280 0.930 . S
H271 C281 0.930 . S
C272 H266 0.930 . S
C272 C273 1.355 . S
C272 C274 1.415 . S
C273 C272 1.355 . S
C273 C275 1.419 . S
C274 C272 1.415 . S
C274 C279 1.425 . S
C274 C281 1.409 . S
C275 H267 0.930 . S
C275 C273 1.419 . S
C275 C276 1.362 . S
C276 H268 0.930 . S
C276 C275 1.362 . S
C276 C279 1.409 . S
C277 H269 0.930 . S
C277 C278 1.355 . S
C277 C279 1.415 . S
C278 C277 1.355 . S
C278 C280 1.419 . S
C279 C274 1.425 . S
C279 C276 1.409 . S
C279 C277 1.415 . S
C280 H270 0.930 . S
C280 C278 1.419 . S
C280 C281 1.362 . S
C281 H271 0.930 . S
C281 C274 1.409 . S
C281 C280 1.362 . S
C102 C84 1.284 . S
C97 C21 1.516 . S
C113 C19 1.481 . S
C118 C73 1.313 . S
C129 C18 1.436 . S
C134 C87 1.436 . S
C145 C20 1.443 . S
C150 C76 1.410 . S
C161 C44 1.474 . S
C166 C62 1.331 . S
C177 C42 1.496 . S
C182 C51 1.356 . S
C198 C65 1.392 . S
C193 C41 1.394 . S
C214 C54 1.405 . S
C209 C43 1.411 . S
C225 C16 1.516 1_655 S
C230 C53 1.420 . S
C241 C17 1.486 1_565 S
C246 C64 1.441 1_545 S
C262 C75 1.421 . S
C257 C39 1.511 . S
C273 C40 1.484 . S
C278 C86 1.452 . S
