# Generated by pormake.
# Topology pyr, (3,6)-cn, num edge types: 1
# Building blocks:
#     Node 0, Type 0, BuildingBlock: OLANEW_clean_sbu_2, # of connection points: 3
#     Node 1, Type 0, BuildingBlock: OLANEW_clean_sbu_2, # of connection points: 3
#     Node 2, Type 0, BuildingBlock: OLANEW_clean_sbu_2, # of connection points: 3
#     Node 3, Type 0, BuildingBlock: OLANEW_clean_sbu_2, # of connection points: 3
#     Node 4, Type 0, BuildingBlock: OLANEW_clean_sbu_2, # of connection points: 3
#     Node 5, Type 0, BuildingBlock: OLANEW_clean_sbu_2, # of connection points: 3
#     Node 6, Type 0, BuildingBlock: OLANEW_clean_sbu_2, # of connection points: 3
#     Node 7, Type 0, BuildingBlock: OLANEW_clean_sbu_2, # of connection points: 3
#     Node 8, Type 1, BuildingBlock: INOVEN_clean_sbu_0, # of connection points: 6
#     Node 9, Type 1, BuildingBlock: INOVEN_clean_sbu_0, # of connection points: 6
#     Node 10, Type 1, BuildingBlock: INOVEN_clean_sbu_0, # of connection points: 6
#     Node 11, Type 1, BuildingBlock: INOVEN_clean_sbu_0, # of connection points: 6
#     Edge 12, Type (0, 1), BuildingBlock: TEMPAE_clean_linker_10, # of connection points: 2
#     Edge 13, Type (0, 1), BuildingBlock: TEMPAE_clean_linker_10, # of connection points: 2
#     Edge 14, Type (0, 1), BuildingBlock: TEMPAE_clean_linker_10, # of connection points: 2
#     Edge 15, Type (0, 1), BuildingBlock: TEMPAE_clean_linker_10, # of connection points: 2
#     Edge 16, Type (0, 1), BuildingBlock: TEMPAE_clean_linker_10, # of connection points: 2
#     Edge 17, Type (0, 1), BuildingBlock: TEMPAE_clean_linker_10, # of connection points: 2
#     Edge 18, Type (0, 1), BuildingBlock: TEMPAE_clean_linker_10, # of connection points: 2
#     Edge 19, Type (0, 1), BuildingBlock: TEMPAE_clean_linker_10, # of connection points: 2
#     Edge 20, Type (0, 1), BuildingBlock: TEMPAE_clean_linker_10, # of connection points: 2
#     Edge 21, Type (0, 1), BuildingBlock: TEMPAE_clean_linker_10, # of connection points: 2
#     Edge 22, Type (0, 1), BuildingBlock: TEMPAE_clean_linker_10, # of connection points: 2
#     Edge 23, Type (0, 1), BuildingBlock: TEMPAE_clean_linker_10, # of connection points: 2
#     Edge 24, Type (0, 1), BuildingBlock: TEMPAE_clean_linker_10, # of connection points: 2
#     Edge 25, Type (0, 1), BuildingBlock: TEMPAE_clean_linker_10, # of connection points: 2
#     Edge 26, Type (0, 1), BuildingBlock: TEMPAE_clean_linker_10, # of connection points: 2
#     Edge 27, Type (0, 1), BuildingBlock: TEMPAE_clean_linker_10, # of connection points: 2
#     Edge 28, Type (0, 1), BuildingBlock: TEMPAE_clean_linker_10, # of connection points: 2
#     Edge 29, Type (0, 1), BuildingBlock: TEMPAE_clean_linker_10, # of connection points: 2
#     Edge 30, Type (0, 1), BuildingBlock: TEMPAE_clean_linker_10, # of connection points: 2
#     Edge 31, Type (0, 1), BuildingBlock: TEMPAE_clean_linker_10, # of connection points: 2
#     Edge 32, Type (0, 1), BuildingBlock: TEMPAE_clean_linker_10, # of connection points: 2
#     Edge 33, Type (0, 1), BuildingBlock: TEMPAE_clean_linker_10, # of connection points: 2
#     Edge 34, Type (0, 1), BuildingBlock: TEMPAE_clean_linker_10, # of connection points: 2
#     Edge 35, Type (0, 1), BuildingBlock: TEMPAE_clean_linker_10, # of connection points: 2
# Relax obj value: 0.122
# Max RMSD: 0.167
# Mean RMSD: 0.121
data_MOF--net-pyr--node1-OLANEW_clean_sbu_2--node2-INOVEN_clean_sbu_0--edge1-TEMPAE_clean_linker_10
_symmetry_space_group_name_H-M    P1
_symmetry_Int_Tables_number       1
_symmetry_cell_setting            triclinic
loop_
_symmetry_equiv_pos_as_xyz
'x, y, z'
_cell_length_a     41.508821
_cell_length_b     44.421002
_cell_length_c     38.886164
_cell_angle_alpha  94.928253
_cell_angle_beta   88.229876
_cell_angle_gamma 103.32984
loop_
_atom_site_label
_atom_site_type_symbol
_atom_site_fract_x
_atom_site_fract_y
_atom_site_fract_z
_atom_type_partial_charge
O0 O 0.34798 0.25759 0.18746 0.0
Cd1 Cd 0.32441 0.30064 0.21259 0.0
O2 O 0.35144 0.24307 0.23965 0.0
Cd3 Cd 0.32106 0.27229 0.26573 0.0
O4 O 0.27759 0.27137 0.29885 0.0
C5 C 0.27801 0.25901 0.32706 0.0
O6 O 0.30501 0.25059 0.33505 0.0
C7 C 0.35724 0.23996 0.20738 0.0
C8 C 0.27987 0.32218 0.17398 0.0
O9 O 0.31113 0.3335 0.17178 0.0
O10 O 0.26983 0.29983 0.19336 0.0
O11 O 0.43934 1.0056 0.66636 0.0
Cd12 Cd 0.45322 0.99944 0.60519 0.0
O13 O 0.38752 0.99112 0.65104 0.0
Cd14 Cd 0.33371 0.98149 0.657 0.0
O15 O 0.28239 0.98044 0.64567 0.0
C16 C 0.26528 0.99548 0.66498 0.0
O17 O 0.27834 1.01083 0.69351 0.0
C18 C 0.4089 0.99851 0.67485 0.0
C19 C 0.45443 0.93718 0.59178 0.0
O20 O 0.48076 0.95765 0.60028 0.0
O21 O 0.42777 0.94642 0.58811 0.0
O22 O 0.70623 0.41193 0.88365 0.0
Cd23 Cd 0.65819 0.39007 0.84442 0.0
O24 O 0.70259 0.37832 0.92403 0.0
Cd25 Cd 0.65965 0.3377 0.91868 0.0
O26 O 0.62892 0.29342 0.93661 0.0
C27 C 0.63799 0.26786 0.93097 0.0
O28 O 0.66525 0.26768 0.91294 0.0
C29 C 0.71724 0.4033 0.9107 0.0
C30 C 0.63397 0.42793 0.80031 0.0
O31 O 0.61951 0.4206 0.82902 0.0
O32 O 0.66061 0.41869 0.79288 0.0
O33 O 0.89643 0.74302 0.39344 0.0
Cd34 Cd 0.87092 0.68841 0.37573 0.0
O35 O 0.84728 0.7523 0.4052 0.0
Cd36 Cd 0.81826 0.7049 0.3957 0.0
O37 O 0.77504 0.67334 0.41599 0.0
C38 C 0.75281 0.68696 0.42792 0.0
O39 O 0.75738 0.71694 0.42523 0.0
C40 C 0.87857 0.76187 0.40374 0.0
C41 C 0.89398 0.66239 0.31435 0.0
O42 O 0.86994 0.67605 0.31421 0.0
O43 O 0.90771 0.66189 0.34332 0.0
O44 O 0.69856 0.73703 0.76832 0.0
Cd45 Cd 0.66441 0.69109 0.7921 0.0
O46 O 0.68313 0.76646 0.81069 0.0
Cd47 Cd 0.67927 0.80865 0.84259 0.0
O48 O 0.66417 0.84274 0.87976 0.0
C49 C 0.65429 0.86555 0.86975 0.0
O50 O 0.65432 0.86907 0.83653 0.0
C51 C 0.70105 0.76377 0.78395 0.0
C52 C 0.70548 0.67018 0.83521 0.0
O53 O 0.70324 0.66091 0.80306 0.0
O54 O 0.68727 0.68842 0.84725 0.0
O55 O 0.7511 0.20933 0.45889 0.0
Cd56 Cd 0.77363 0.23134 0.51511 0.0
O57 O 0.79178 0.23744 0.42998 0.0
Cd58 Cd 0.80255 0.27076 0.47498 0.0
O59 O 0.77981 0.30633 0.50106 0.0
C60 C 0.74888 0.29781 0.50694 0.0
O61 O 0.73398 0.26864 0.49924 0.0
C62 C 0.76614 0.21533 0.43043 0.0
C63 C 0.81221 0.19281 0.53574 0.0
O64 O 0.78118 0.18774 0.5429 0.0
O65 O 0.82525 0.21677 0.5197 0.0
O66 O 0.41198 0.7813 0.24703 0.0
Cd67 Cd 0.39195 0.72771 0.26725 0.0
O68 O 0.36843 0.78239 0.21563 0.0
Cd69 Cd 0.33403 0.73646 0.21825 0.0
O70 O 0.2887 0.70117 0.20206 0.0
C71 C 0.28379 0.69357 0.16996 0.0
O72 O 0.30651 0.706 0.14782 0.0
C73 C 0.39704 0.79539 0.22752 0.0
C74 C 0.41276 0.70725 0.32885 0.0
O75 O 0.43085 0.70901 0.30142 0.0
O76 O 0.38583 0.71667 0.328 0.0
O77 O 0.15662 0.42859 0.79769 0.0
Cd78 Cd 0.17888 0.40099 0.74847 0.0
O79 O 0.11383 0.38935 0.80347 0.0
Cd80 Cd 0.12784 0.35569 0.76487 0.0
O81 O 0.12113 0.31012 0.73603 0.0
C82 C 0.09705 0.28919 0.74585 0.0
O83 O 0.07873 0.29622 0.77214 0.0
C84 C 0.12944 0.41691 0.81266 0.0
C85 C 0.23691 0.43448 0.71833 0.0
O86 O 0.20843 0.43844 0.71068 0.0
O87 O 0.23806 0.4152 0.74072 0.0
Gd88 Gd 0.00312 0.04338 0.5388 0.0
Gd89 Gd 0.99111 1.00958 0.60527 0.0
C90 C 0.02301 0.08151 0.61058 0.0
C91 C 1.00204 0.07109 0.48339 0.0
C92 C 0.02403 0.09786 0.46889 0.0
C93 C 0.04874 0.11769 0.48924 0.0
C94 C 0.02223 0.10218 0.43383 0.0
C95 C 0.07132 0.14458 0.43885 0.0
C96 C 0.04567 0.1254 0.41889 0.0
C97 C 0.07215 0.14095 0.47436 0.0
C98 C 0.05824 0.03235 0.56575 0.0
C99 C 0.96897 0.96984 0.53255 0.0
C100 C 0.98599 0.97343 0.65489 0.0
C101 C 0.95732 0.95429 0.67243 0.0
C102 C 0.93372 0.96786 0.69061 0.0
C103 C 0.95249 0.92186 0.66954 0.0
C104 C 0.9003 0.91677 0.70147 0.0
C105 C 0.92424 0.90329 0.68378 0.0
C106 C 0.90559 0.94931 0.70504 0.0
C107 C 0.94375 0.03928 0.59097 0.0
O108 O 0.0085 0.08189 0.5809 0.0
O109 O 0.02595 0.05508 0.62209 0.0
O110 O 0.01482 0.04684 0.48455 0.0
O111 O 0.98585 0.07711 0.51168 0.0
O112 O 0.05823 0.05638 0.54909 0.0
O113 O 0.02994 1.01455 0.56521 0.0
O114 O 0.96888 0.97012 0.5666 0.0
O115 O 0.98057 0.99511 0.51627 0.0
O116 O 0.99024 1.00353 0.66 0.0
O117 O 0.99103 0.96441 0.62273 0.0
O118 O 0.95157 0.03543 0.62193 0.0
O119 O 0.95894 0.02472 0.56952 0.0
H120 H 0.05059 0.11448 0.51637 0.0
H121 H 0.00332 0.08699 0.41778 0.0
H122 H 0.04423 0.12787 0.39155 0.0
H123 H 0.09181 0.15508 0.49032 0.0
H124 H 0.93665 0.99282 0.69335 0.0
H125 H 0.97024 0.91083 0.65558 0.0
H126 H 0.92079 0.87831 0.68014 0.0
H127 H 0.88793 0.96048 0.71895 0.0
Gd128 Gd 0.54226 0.05035 0.09858 0.0
Gd129 Gd 0.47402 1.01705 0.05674 0.0
C130 C 0.47434 0.07331 0.11483 0.0
C131 C 0.59767 0.08711 0.1172 0.0
C132 C 0.61752 0.09769 0.14832 0.0
C133 C 0.61637 0.07855 0.17545 0.0
C134 C 0.63736 0.12788 0.15119 0.0
C135 C 0.65442 0.12015 0.20838 0.0
C136 C 0.65563 0.13907 0.18098 0.0
C137 C 0.63485 0.08968 0.20524 0.0
C138 C 0.50528 1.00057 0.13059 0.0
C139 C 0.5423 0.99722 0.03632 0.0
C140 C 0.41986 0.98222 0.03242 0.0
C141 C 0.40435 0.98105 0.99859 0.0
C142 C 0.40407 1.00862 0.98348 0.0
C143 C 0.39363 0.9525 0.9793 0.0
C144 C 0.38561 0.97924 0.9292 0.0
C145 C 0.38433 0.95157 0.94486 0.0
C146 C 0.39468 1.0077 0.94919 0.0
C147 C 0.51121 0.06741 0.02589 0.0
O148 O 0.50716 0.08079 0.11437 0.0
O149 O 0.4568 0.04682 0.1 0.0
O150 O 0.59513 0.05817 0.10503 0.0
O151 O 0.56984 0.09622 0.11643 0.0
O152 O 0.5327 1.01813 0.14285 0.0
O153 O 0.49943 1.01155 0.10339 0.0
O154 O 0.50972 0.98779 0.03907 0.0
O155 O 0.55921 0.02322 0.05267 0.0
O156 O 0.42063 1.0073 0.05313 0.0
O157 O 0.44785 0.97325 0.03145 0.0
O158 O 0.48302 0.05121 1.0141 0.0
O159 O 0.51699 0.05483 0.05187 0.0
H160 H 0.60095 0.05522 0.17377 0.0
H161 H 0.63848 0.14293 0.13045 0.0
H162 H 0.67074 0.16254 0.1826 0.0
H163 H 0.63322 0.07474 0.22613 0.0
H164 H 0.4126 0.03103 0.99759 0.0
H165 H 0.39384 0.93099 0.9904 0.0
H166 H 0.37719 0.92928 0.93016 0.0
H167 H 0.3964 0.02944 0.9378 0.0
Gd168 Gd 0.50011 0.53492 0.54869 0.0
Gd169 Gd 0.49532 0.58646 0.60311 0.0
C170 C 0.52817 0.53411 0.62677 0.0
C171 C 0.52222 0.49523 0.50776 0.0
C172 C 0.54608 0.47573 0.51082 0.0
C173 C 0.54521 0.45788 0.53912 0.0
C174 C 0.57115 0.47614 0.48578 0.0
C175 C 0.5941 0.44083 0.51695 0.0
C176 C 0.59498 0.45893 0.48882 0.0
C177 C 0.56898 0.44055 0.54212 0.0
C178 C 0.44153 0.52688 0.58256 0.0
C179 C 0.47165 0.59002 0.52303 0.0
C180 C 0.4732 0.62716 0.64234 0.0
C181 C 0.46521 0.65688 0.63632 0.0
C182 C 0.4766 0.68292 0.6594 0.0
C183 C 0.44833 0.66014 0.60656 0.0
C184 C 0.4556 0.71545 0.6224 0.0
C185 C 0.44358 0.68915 0.59967 0.0
C186 C 0.47186 0.71194 0.65253 0.0
C187 C 0.55364 0.59438 0.56893 0.0
O188 O 0.52987 0.52543 0.59337 0.0
O189 O 0.51177 0.5553 0.63802 0.0
O190 O 0.4943 0.48807 0.52505 0.0
O191 O 0.53499 0.5251 0.50922 0.0
O192 O 0.44462 0.5188 0.54992 0.0
O193 O 0.46961 0.53736 0.59597 0.0
O194 O 0.47363 0.60158 0.55576 0.0
O195 O 0.48164 0.5644 0.51312 0.0
O196 O 0.50465 0.62685 0.63995 0.0
O197 O 0.45392 0.60202 0.62768 0.0
O198 O 0.551 0.60352 0.60133 0.0
O199 O 0.52541 0.58388 0.55624 0.0
H200 H 0.52621 0.45733 0.55892 0.0
H201 H 0.57248 0.49006 0.46399 0.0
H202 H 0.61429 0.46005 0.46928 0.0
H203 H 0.56739 0.42658 0.56387 0.0
H204 H 0.48989 0.68094 0.68234 0.0
H205 H 0.43923 0.64042 0.5883 0.0
H206 H 0.43064 0.691 0.57646 0.0
H207 H 0.48184 0.7318 0.67032 0.0
Gd208 Gd 0.00244 0.5095 0.06379 0.0
Gd209 Gd 0.99332 0.57498 0.04039 0.0
C210 C 0.06165 0.57322 0.07607 0.0
C211 C 0.0221 0.45993 0.07413 0.0
C212 C 0.05277 0.44902 0.07685 0.0
C213 C 0.05241 0.41782 0.06727 0.0
C214 C 0.08169 0.46865 0.09074 0.0
C215 C 0.10877 0.42523 0.08782 0.0
C216 C 0.10946 0.45687 0.09618 0.0
C217 C 0.0801 0.40601 0.07269 0.0
C218 C 0.9685 0.5423 0.10693 0.0
C219 C 0.93694 0.51089 0.02193 0.0
C220 C 0.97011 0.62363 0.03804 0.0
C221 C 0.94501 0.62972 1.01557 0.0
C222 C 0.9337 0.65713 0.02106 0.0
C223 C 0.93021 0.60674 0.99019 0.0
C224 C 0.89196 0.63793 0.97686 0.0
C225 C 0.90382 0.61073 0.97111 0.0
C226 C 0.90745 0.66132 1.00166 0.0
C227 C 0.02045 0.54223 0.98948 0.0
O228 O 0.05317 0.54227 0.07254 0.0
O229 O 0.04131 0.59078 0.06861 0.0
O230 O 0.01587 0.47964 0.09911 0.0
O231 O 0.01466 0.46636 0.04349 0.0
O232 O 0.9617 0.51211 0.10331 0.0
O233 O 0.99358 0.5531 0.08904 0.0
O234 O 0.94452 0.54159 0.02717 0.0
O235 O 0.95692 0.49344 0.03069 0.0
O236 O 0.99817 0.62087 0.02295 0.0
O237 O 0.95855 0.60207 0.05915 0.0
O238 O 0.01449 0.56918 0.98541 0.0
O239 O 0.01078 0.53538 0.0191 0.0
H240 H 0.03028 0.40231 0.05655 0.0
H241 H 0.08252 0.49286 0.09819 0.0
H242 H 0.1313 0.47241 0.10742 0.0
H243 H 0.07853 0.3815 0.06629 0.0
H244 H 0.94469 0.67495 0.04079 0.0
H245 H 0.93866 0.58541 0.98561 0.0
H246 H 0.89263 0.5925 0.95189 0.0
H247 H 0.89864 0.68242 1.00674 0.0
C248 C 0.24703 0.23168 0.37568 0.0
C249 C 0.24726 0.2496 0.34765 0.0
C250 C 0.21731 0.21829 0.39215 0.0
C251 C 0.18708 0.22317 0.38052 0.0
C252 C 0.18734 0.24297 0.35382 0.0
C253 C 0.21745 0.25589 0.33758 0.0
C254 C 0.21811 0.19731 0.42055 0.0
C255 C 0.15564 0.24908 0.34108 0.0
C256 C 0.11335 0.15626 0.39167 0.0
C257 C 0.09878 0.1663 0.42222 0.0
C258 C 0.14142 0.17507 0.37724 0.0
C259 C 0.15525 0.20473 0.39369 0.0
C260 C 0.13996 0.21554 0.42381 0.0
C261 C 0.11195 0.1961 0.43785 0.0
C262 C 0.15711 0.16258 0.34519 0.0
C263 C 0.1538 0.24718 0.44181 0.0
H264 H 0.26995 0.22688 0.38384 0.0
H265 H 0.21743 0.26993 0.31613 0.0
H266 H 0.20379 0.20383 0.44341 0.0
H267 H 0.20633 0.173 0.41145 0.0
H268 H 0.24375 0.19816 0.42868 0.0
H269 H 0.16039 0.26826 0.32369 0.0
H270 H 0.14132 0.2278 0.32669 0.0
H271 H 0.13997 0.25496 0.36311 0.0
H272 H 0.1036 0.1331 0.37975 0.0
H273 H 0.10057 0.20406 0.46131 0.0
H274 H 0.18219 0.15987 0.35127 0.0
H275 H 0.16008 0.17915 0.32492 0.0
H276 H 0.1423 0.13974 0.33455 0.0
H277 H 0.17818 0.24767 0.45302 0.0
H278 H 0.13718 0.25334 0.46285 0.0
H279 H 0.15789 0.2652 0.42306 0.0
C280 C 0.37107 0.97639 0.72241 0.0
C281 C 0.39924 0.99778 0.71175 0.0
C282 C 0.36404 0.97291 0.7576 0.0
C283 C 0.38599 0.99094 0.78263 0.0
C284 C 0.41388 1.01328 0.77202 0.0
C285 C 0.42018 1.01637 0.73671 0.0
C286 C 0.33409 0.94883 0.76788 0.0
C287 C 0.43789 0.033 0.79791 0.0
C288 C 0.3642 0.99912 0.87799 0.0
C289 C 0.3812 0.97893 0.89139 0.0
C290 C 0.36412 1.00222 0.84235 0.0
C291 C 0.38162 0.98484 0.81969 0.0
C292 C 0.39742 0.96329 0.83291 0.0
C293 C 0.397 0.96059 0.86858 0.0
C294 C 0.34662 0.02511 0.82915 0.0
C295 C 0.41637 0.94431 0.8096 0.0
H296 H 0.35544 0.96114 0.70334 0.0
H297 H 0.44204 0.03286 0.72858 0.0
H298 H 0.34221 0.92915 0.77787 0.0
H299 H 0.31999 0.95871 0.78891 0.0
H300 H 0.31727 0.93969 0.74583 0.0
H301 H 0.45709 0.05068 0.78558 0.0
H302 H 0.42446 0.04503 0.81773 0.0
H303 H 0.45042 1.01797 0.81145 0.0
H304 H 0.35162 1.01308 0.89549 0.0
H305 H 0.41056 0.94524 0.87875 0.0
H306 H 0.33049 1.01405 0.80718 0.0
H307 H 0.36517 0.04485 0.81947 0.0
H308 H 0.33131 0.03437 0.84952 0.0
H309 H 0.40072 0.93206 0.78777 0.0
H310 H 0.425 0.92687 0.82353 0.0
H311 H 0.43828 0.95991 0.79846 0.0
C312 C 0.63928 0.462 0.75075 0.0
C313 C 0.61945 0.44515 0.77572 0.0
C314 C 0.62552 0.47749 0.72675 0.0
C315 C 0.59086 0.47532 0.72685 0.0
C316 C 0.57073 0.45811 0.75187 0.0
C317 C 0.58528 0.4437 0.77624 0.0
C318 C 0.64813 0.49626 0.70131 0.0
C319 C 0.53363 0.45432 0.75246 0.0
C320 C 0.55404 0.53453 0.68469 0.0
C321 C 0.54473 0.51933 0.65212 0.0
C322 C 0.56976 0.52087 0.70881 0.0
C323 C 0.57556 0.49079 0.70073 0.0
C324 C 0.56605 0.47528 0.66791 0.0
C325 C 0.55124 0.48987 0.64393 0.0
C326 C 0.58033 0.53875 0.74294 0.0
C327 C 0.57102 0.443 0.65826 0.0
H328 H 0.66569 0.46335 0.75017 0.0
H329 H 0.56967 0.43047 0.79515 0.0
H330 H 0.64201 0.48605 0.67463 0.0
H331 H 0.64444 0.52031 0.70301 0.0
H332 H 0.67465 0.49723 0.70587 0.0
H333 H 0.52132 0.43964 0.77298 0.0
H334 H 0.52743 0.47735 0.75669 0.0
H335 H 0.52328 0.44363 0.72713 0.0
H336 H 0.54946 0.55741 0.6912 0.0
H337 H 0.54406 0.47784 0.61896 0.0
H338 H 0.6071 0.54058 0.74687 0.0
H339 H 0.56671 0.52621 0.76437 0.0
H340 H 0.57574 0.56251 0.74459 0.0
H341 H 0.59778 0.4432 0.65814 0.0
H342 H 0.56091 0.43352 0.63242 0.0
H343 H 0.5588 0.42709 0.67772 0.0
C344 C 0.88833 0.64567 0.25106 0.0
C345 C 0.90475 0.64659 0.28229 0.0
C346 C 0.89725 0.62944 0.22097 0.0
C347 C 0.92323 0.61375 0.22213 0.0
C348 C 0.94018 0.61494 0.25345 0.0
C349 C 0.93074 0.63132 0.28311 0.0
C350 C 0.87867 0.62879 0.18805 0.0
C351 C 0.96811 0.59864 0.25573 0.0
C352 C 0.92909 0.54678 0.15608 0.0
C353 C 0.95466 0.56096 0.13439 0.0
C354 C 0.91793 0.5639 0.1842 0.0
C355 C 0.93273 0.59592 0.19071 0.0
C356 C 0.95783 0.61051 0.16817 0.0
C357 C 0.96853 0.59284 0.14033 0.0
C358 C 0.89102 0.54751 0.20756 0.0
C359 C 0.97418 0.64458 0.17409 0.0
H360 H 0.86819 0.65737 0.25016 0.0
H361 H 0.94358 0.63187 0.30709 0.0
H362 H 0.89617 0.63798 0.16726 0.0
H363 H 0.86648 0.6045 0.17934 0.0
H364 H 0.8595 0.64264 0.19125 0.0
H365 H 0.97904 0.60211 0.2819 0.0
H366 H 0.95898 0.57337 0.24904 0.0
H367 H 0.98794 0.60728 0.23683 0.0
H368 H 0.91831 0.52214 0.15154 0.0
H369 H 0.98841 0.6039 0.1237 0.0
H370 H 0.87056 0.55982 0.2102 0.0
H371 H 0.90105 0.54778 0.23374 0.0
H372 H 0.88075 0.52301 0.19785 0.0
H373 H 0.95521 0.65863 0.17651 0.0
H374 H 0.99168 0.65285 0.15289 0.0
H375 H 0.98799 0.64886 0.19867 0.0
C376 C 0.38218 0.21179 0.15838 0.0
C377 C 0.37418 0.21536 0.19359 0.0
C378 C 0.39806 0.18832 0.14545 0.0
C379 C 0.40599 0.16791 0.16823 0.0
C380 C 0.39785 0.17133 0.20372 0.0
C381 C 0.38215 0.19499 0.21594 0.0
C382 C 0.4065 0.18546 0.10745 0.0
C383 C 0.40584 0.15004 0.22884 0.0
C384 C 0.42191 0.09046 0.13116 0.0
C385 C 0.45664 0.09673 0.13048 0.0
C386 C 0.40508 0.11338 0.14343 0.0
C387 C 0.42339 0.14331 0.15519 0.0
C388 C 0.4584 0.14967 0.15498 0.0
C389 C 0.47457 0.12633 0.14274 0.0
C390 C 0.3677 0.10565 0.14353 0.0
C391 C 0.47882 0.18129 0.16734 0.0
H392 H 0.37614 0.22735 0.14093 0.0
H393 H 0.37602 0.19742 0.24319 0.0
H394 H 0.43364 0.18839 0.10386 0.0
H395 H 0.39461 0.16194 0.09593 0.0
H396 H 0.39839 0.20294 0.09309 0.0
H397 H 0.39735 0.15545 0.25555 0.0
H398 H 0.39401 0.12556 0.22054 0.0
H399 H 0.43296 0.15195 0.22913 0.0
H400 H 0.40778 0.06774 0.12171 0.0
H401 H 0.5014 0.13157 0.14225 0.0
H402 H 0.35869 0.1212 0.12717 0.0
H403 H 0.35813 0.1096 0.17009 0.0
H404 H 0.3571 0.0812 0.13385 0.0
H405 H 0.47318 0.19921 0.1518 0.0
H406 H 0.50584 0.18249 0.1655 0.0
H407 H 0.47237 0.18724 0.19458 0.0
C408 C 0.22029 0.98435 0.62125 0.0
C409 C 0.23239 0.99811 0.65355 0.0
C410 C 0.19069 0.98893 0.60854 0.0
C411 C 0.17262 1.00758 0.62869 0.0
C412 C 0.18397 1.02057 0.66187 0.0
C413 C 0.2138 1.01574 0.67389 0.0
C414 C 0.17938 0.97468 0.57301 0.0
C415 C 0.16513 0.04032 0.68422 0.0
C416 C 0.1183 0.04661 0.57948 0.0
C417 C 0.08718 0.02656 0.58281 0.0
C418 C 0.14624 0.04095 0.5948 0.0
C419 C 0.14281 1.01476 0.61414 0.0
C420 C 0.11123 0.99484 0.61826 0.0
C421 C 0.08375 1.00092 0.60237 0.0
C422 C 0.17955 0.06266 0.58972 0.0
C423 C 0.10654 0.96688 0.63896 0.0
H424 H 0.2344 0.9706 0.60538 0.0
H425 H 0.22287 0.02633 0.69895 0.0
H426 H 0.15359 0.96068 0.57427 0.0
H427 H 0.17951 0.99332 0.55572 0.0
H428 H 0.19542 0.9596 0.56132 0.0
H429 H 0.17595 0.04683 0.71033 0.0
H430 H 0.16522 0.06188 0.67173 0.0
H431 H 0.13889 0.02779 0.68703 0.0
H432 H 0.12091 0.06652 0.56446 0.0
H433 H 0.0596 0.98551 0.60515 0.0
H434 H 0.19662 0.04976 0.57587 0.0
H435 H 0.19072 0.07201 0.6151 0.0
H436 H 0.17783 0.08243 0.57476 0.0
H437 H 0.12029 0.95016 0.62641 0.0
H438 H 0.08006 0.95484 0.64142 0.0
H439 H 0.11682 0.97392 0.66519 0.0
C440 C 0.77358 0.43968 0.907 0.0
C441 C 0.74862 0.42179 0.92677 0.0
C442 C 0.80442 0.45486 0.92153 0.0
C443 C 0.81025 0.4528 0.95693 0.0
C444 C 0.78469 0.43565 0.97723 0.0
C445 C 0.75448 0.4201 0.96187 0.0
C446 C 0.83111 0.47237 0.89875 0.0
C447 C 0.78933 0.43345 1.01522 0.0
C448 C 0.89828 0.46499 0.99091 0.0
C449 C 0.90461 0.49585 1.00523 0.0
C450 C 0.86808 0.45099 0.97445 0.0
C451 C 0.84318 0.46798 0.97274 0.0
C452 C 0.84943 0.49914 0.98718 0.0
C453 C 0.88004 0.51271 1.00293 0.0
C454 C 0.86282 0.41796 0.9588 0.0
C455 C 0.82359 0.51808 0.98648 0.0
H456 H 0.76944 0.44093 0.87983 0.0
H457 H 0.73532 0.40654 0.97746 0.0
H458 H 0.83937 0.49683 0.90943 0.0
H459 H 0.85298 0.46192 0.8981 0.0
H460 H 0.82263 0.47214 0.87189 0.0
H461 H 0.76648 0.42066 0.02784 0.0
H462 H 0.8095 0.42144 1.01879 0.0
H463 H 0.79681 0.45706 0.02857 0.0
H464 H 0.91712 0.45182 0.99215 0.0
H465 H 0.88451 0.53657 1.01387 0.0
H466 H 0.85618 0.41671 0.93121 0.0
H467 H 0.84188 0.40296 0.97208 0.0
H468 H 0.88515 0.40841 0.96068 0.0
H469 H 0.81667 0.51961 0.95947 0.0
H470 H 0.83228 0.54201 0.99876 0.0
H471 H 0.80082 0.50652 1.00015 0.0
C472 C 0.72024 0.63925 0.45393 0.0
C473 C 0.72338 0.67018 0.44658 0.0
C474 C 0.69323 0.62398 0.47341 0.0
C475 C 0.66886 0.64004 0.48567 0.0
C476 C 0.67162 0.67104 0.47778 0.0
C477 C 0.69882 0.68572 0.45838 0.0
C478 C 0.69101 0.59087 0.48131 0.0
C479 C 0.64601 0.6889 0.4902 0.0
C480 C 0.58244 0.59848 0.51183 0.0
C481 C 0.58402 0.60303 0.54791 0.0
C482 C 0.61035 0.60916 0.49119 0.0
C483 C 0.64048 0.62479 0.50709 0.0
C484 C 0.64255 0.62826 0.54357 0.0
C485 C 0.61421 0.61733 0.56359 0.0
C486 C 0.60713 0.60499 0.4524 0.0
C487 C 0.6743 0.6447 0.56145 0.0
H488 H 0.73914 0.6271 0.44494 0.0
H489 H 0.70097 0.70958 0.45274 0.0
H490 H 0.69173 0.58958 0.50963 0.0
H491 H 0.66709 0.57588 0.47219 0.0
H492 H 0.7115 0.58136 0.46907 0.0
H493 H 0.65151 0.71268 0.48131 0.0
H494 H 0.62116 0.67636 0.48079 0.0
H495 H 0.64478 0.69075 0.51882 0.0
H496 H 0.55908 0.58747 0.49961 0.0
H497 H 0.61548 0.6207 0.5915 0.0
H498 H 0.62739 0.59499 0.44055 0.0
H499 H 0.60932 0.62794 0.44214 0.0
H500 H 0.58302 0.58969 0.44416 0.0
H501 H 0.69518 0.63479 0.55108 0.0
H502 H 0.67263 0.64305 0.58982 0.0
H503 H 0.68024 0.66959 0.55637 0.0
C504 C 0.22176 0.32414 0.16067 0.0
C505 C 0.25593 0.3358 0.1565 0.0
C506 C 0.19877 0.33858 0.14708 0.0
C507 C 0.21019 0.36535 0.12884 0.0
C508 C 0.24461 0.37663 0.12353 0.0
C509 C 0.26707 0.36173 0.13743 0.0
C510 C 0.16226 0.32575 0.15322 0.0
C511 C 0.25776 0.40504 0.10413 0.0
C512 C 0.14698 0.38917 0.07443 0.0
C513 C 0.1368 0.41176 0.0969 0.0
C514 C 0.17145 0.37439 0.08407 0.0
C515 C 0.18609 0.38238 0.11699 0.0
C516 C 0.17663 0.4058 0.13937 0.0
C517 C 0.15212 0.42017 0.12907 0.0
C518 C 0.18102 0.34969 0.0594 0.0
C519 C 0.19163 0.41501 0.1747 0.0
H520 H 0.21289 0.3041 0.1753 0.0
H521 H 0.29342 0.37091 0.13403 0.0
H522 H 0.15179 0.34307 0.16942 0.0
H523 H 0.14891 0.32126 0.12836 0.0
H524 H 0.15736 0.30386 0.16633 0.0
H525 H 0.28501 0.40959 0.10015 0.0
H526 H 0.24577 0.40233 0.0786 0.0
H527 H 0.25167 0.42565 0.11868 0.0
H528 H 0.13558 0.38282 0.04934 0.0
H529 H 0.14413 0.43727 0.14681 0.0
H530 H 0.17419 0.32697 0.07075 0.0
H531 H 0.20822 0.3551 0.0551 0.0
H532 H 0.16868 0.3474 0.03405 0.0
H533 H 0.1852 0.39495 0.19076 0.0
H534 H 0.18284 0.43472 0.18828 0.0
H535 H 0.21902 0.42164 0.17253 0.0
C536 C 0.62695 0.21018 0.93504 0.0
C537 C 0.61898 0.23872 0.94534 0.0
C538 C 0.60993 0.18245 0.94862 0.0
C539 C 0.58437 0.18306 0.97349 0.0
C540 C 0.57627 0.2118 0.98417 0.0
C541 C 0.5935 0.23919 0.96987 0.0
C542 C 0.61918 0.15239 0.93609 0.0
C543 C 0.5494 0.2136 1.0108 0.0
C544 C 0.51933 0.10791 0.98361 0.0
C545 C 0.53043 0.09677 1.01268 0.0
C546 C 0.53655 0.13589 0.97073 0.0
C547 C 0.56554 0.15348 0.98746 0.0
C548 C 0.57681 0.14234 1.01694 0.0
C549 C 0.55925 0.11403 0.02902 0.0
C550 C 0.52375 0.14654 0.93905 0.0
C551 C 0.60743 0.16031 0.03575 0.0
H552 H 0.64651 0.20941 0.9161 0.0
H553 H 0.58721 0.26106 0.97821 0.0
H554 H 0.62672 0.14146 0.95819 0.0
H555 H 0.59739 0.13586 0.92423 0.0
H556 H 0.63973 0.15579 0.9168 0.0
H557 H 0.54664 0.23775 1.01711 0.0
H558 H 0.52538 0.19916 1.00123 0.0
H559 H 0.55496 0.20412 0.03486 0.0
H560 H 0.49708 0.09466 0.97079 0.0
H561 H 0.56804 0.10544 0.0513 0.0
H562 H 0.54293 0.14881 0.91833 0.0
H563 H 0.51839 0.16977 0.94508 0.0
H564 H 0.50087 0.13025 0.92904 0.0
H565 H 0.62927 0.16247 1.01817 0.0
H566 H 0.61234 0.14908 0.05888 0.0
H567 H 0.60477 0.18417 0.04397 0.0
C568 C 0.87334 0.81496 0.42626 0.0
C569 C 0.89368 0.7942 0.41719 0.0
C570 C 0.88615 0.84429 0.44314 0.0
C571 C 0.92019 0.8532 0.45124 0.0
C572 C 0.94119 0.83295 0.44091 0.0
C573 C 0.92769 0.80367 0.42394 0.0
C574 C 0.86295 0.86527 0.45347 0.0
C575 C 0.97766 0.84172 0.44895 0.0
C576 C 0.9566 0.93884 0.47551 0.0
C577 C 0.95608 0.94007 0.51175 0.0
C578 C 0.9454 0.91071 0.45547 0.0
C579 C 0.93332 0.88308 0.47199 0.0
C580 C 0.93273 0.88411 0.50852 0.0
C581 C 0.94411 0.91256 0.52793 0.0
C582 C 0.94635 0.91056 0.4166 0.0
C583 C 0.91992 0.85516 0.52712 0.0
H584 H 0.84706 0.808 0.42099 0.0
H585 H 0.94359 0.7878 0.4171 0.0
H586 H 0.86145 0.86863 0.48203 0.0
H587 H 0.87254 0.88848 0.44382 0.0
H588 H 0.83756 0.85569 0.44343 0.0
H589 H 0.99104 0.82438 0.43709 0.0
H590 H 0.98917 0.8647 0.4396 0.0
H591 H 0.98104 0.84372 0.47731 0.0
H592 H 0.96589 0.95989 0.46267 0.0
H593 H 0.94367 0.91315 0.55586 0.0
H594 H 0.92093 0.90232 0.4063 0.0
H595 H 0.96115 0.89421 0.40536 0.0
H596 H 0.95714 0.93391 0.40771 0.0
H597 H 0.89362 0.84509 0.52045 0.0
H598 H 0.92172 0.85977 0.55561 0.0
H599 H 0.93409 0.83743 0.51871 0.0
C600 C 0.42472 0.88131 0.58267 0.0
C601 C 0.45426 0.9037 0.58912 0.0
C602 C 0.42338 0.84961 0.58452 0.0
C603 C 0.45223 0.84018 0.59313 0.0
C604 C 0.48246 0.86252 0.59803 0.0
C605 C 0.48312 0.89401 0.59592 0.0
C606 C 0.39078 0.8264 0.5788 0.0
C607 C 0.5138 0.85334 0.60715 0.0
C608 C 0.44447 0.76764 0.64039 0.0
C609 C 0.4523 0.74664 0.61424 0.0
C610 C 0.44355 0.79791 0.63359 0.0
C611 C 0.45043 0.80738 0.59976 0.0
C612 C 0.45724 0.78601 0.57298 0.0
C613 C 0.45822 0.75591 0.58057 0.0
C614 C 0.43605 0.82001 0.66285 0.0
C615 C 0.46452 0.79519 0.53655 0.0
H616 H 0.40233 0.88859 0.57727 0.0
H617 H 0.50607 0.91113 0.6008 0.0
H618 H 0.39399 0.80687 0.56026 0.0
H619 H 0.38173 0.81651 0.6035 0.0
H620 H 0.37154 0.83704 0.56889 0.0
H621 H 0.53572 0.8732 0.60766 0.0
H622 H 0.51082 0.84408 0.63296 0.0
H623 H 0.51865 0.83463 0.58834 0.0
H624 H 0.4393 0.76045 0.66631 0.0
H625 H 0.46465 0.73994 0.56031 0.0
H626 H 0.41492 0.82969 0.65609 0.0
H627 H 0.45774 0.8398 0.66723 0.0
H628 H 0.42998 0.80865 0.68734 0.0
H629 H 0.44493 0.80592 0.5277 0.0
H630 H 0.46633 0.77508 0.51813 0.0
H631 H 0.48826 0.81281 0.53584 0.0
C632 C 0.73688 0.78935 0.73726 0.0
C633 C 0.7259 0.7904 0.77173 0.0
C634 C 0.76374 0.81188 0.726 0.0
C635 C 0.78 0.83612 0.74978 0.0
C636 C 0.76815 0.83811 0.78424 0.0
C637 C 0.74142 0.81504 0.79489 0.0
C638 C 0.77566 0.80886 0.68905 0.0
C639 C 0.78473 0.86371 0.81031 0.0
C640 C 0.87081 0.86989 0.73095 0.0
C641 C 0.86958 0.89693 0.71538 0.0
C642 C 0.84188 0.8502 0.74274 0.0
C643 C 0.81093 0.85783 0.73916 0.0
C644 C 0.80953 0.88545 0.72425 0.0
C645 C 0.83884 0.90459 0.71239 0.0
C646 C 0.8444 0.8209 0.75846 0.0
C647 C 0.777 0.89444 0.72021 0.0
H648 H 0.72506 0.7703 0.71924 0.0
H649 H 0.73401 0.81547 0.8218 0.0
H650 H 0.77771 0.83096 0.67695 0.0
H651 H 0.80072 0.80397 0.68843 0.0
H652 H 0.75892 0.78995 0.67325 0.0
H653 H 0.7702 0.86412 0.83476 0.0
H654 H 0.80959 0.86042 0.8163 0.0
H655 H 0.78831 0.88663 0.79961 0.0
H656 H 0.89448 0.86407 0.73393 0.0
H657 H 0.83755 0.92522 0.7 0.0
H658 H 0.83017 0.80033 0.74283 0.0
H659 H 0.83339 0.8205 0.78482 0.0
H660 H 0.87042 0.81866 0.76003 0.0
H661 H 0.76092 0.87695 0.70231 0.0
H662 H 0.78035 0.91758 0.71002 0.0
H663 H 0.76377 0.89476 0.74542 0.0
C664 C 0.76975 0.2031 0.3665 0.0
C665 C 0.75255 0.19797 0.39787 0.0
C666 C 0.75569 0.18872 0.33517 0.0
C667 C 0.7236 0.16901 0.33525 0.0
C668 C 0.70661 0.16291 0.36691 0.0
C669 C 0.72135 0.17735 0.39784 0.0
C670 C 0.7747 0.19547 0.30191 0.0
C671 C 0.67225 0.14215 0.36801 0.0
C672 C 0.67096 0.16199 0.25579 0.0
C673 C 0.6727 0.13265 0.24056 0.0
C674 C 0.68764 0.17414 0.28647 0.0
C675 C 0.70672 0.15659 0.30217 0.0
C676 C 0.70886 0.12705 0.28675 0.0
C677 C 0.69164 0.11533 0.25616 0.0
C678 C 0.68446 0.2056 0.30234 0.0
C679 C 0.72923 0.10784 0.30262 0.0
H680 H 0.79396 0.21883 0.36631 0.0
H681 H 0.70788 0.17319 0.42194 0.0
H682 H 0.77553 0.1735 0.28639 0.0
H683 H 0.7619 0.20884 0.28628 0.0
H684 H 0.80046 0.20904 0.30648 0.0
H685 H 0.66326 0.13824 0.39483 0.0
H686 H 0.65468 0.1528 0.35506 0.0
H687 H 0.67185 0.11934 0.35378 0.0
H688 H 0.65599 0.17524 0.24401 0.0
H689 H 0.69324 0.09275 0.24421 0.0
H690 H 0.7093 0.22146 0.30519 0.0
H691 H 0.67328 0.20337 0.32856 0.0
H692 H 0.66894 0.21639 0.28665 0.0
H693 H 0.75522 0.12123 0.30555 0.0
H694 H 0.72906 0.08572 0.28688 0.0
H695 H 0.71953 0.10239 0.32882 0.0
C696 C 0.45375 0.68864 0.36353 0.0
C697 C 0.4216 0.69292 0.35968 0.0
C698 C 0.46179 0.6733 0.39129 0.0
C699 C 0.43696 0.66116 0.41556 0.0
C700 C 0.40455 0.66573 0.41201 0.0
C701 C 0.39738 0.68177 0.38445 0.0
C702 C 0.49685 0.66973 0.39439 0.0
C703 C 0.3771 0.65279 0.43673 0.0
C704 C 0.45079 0.59347 0.46359 0.0
C705 C 0.46093 0.60787 0.49629 0.0
C706 C 0.44227 0.61035 0.43751 0.0
C707 C 0.44462 0.64273 0.44377 0.0
C708 C 0.45477 0.6574 0.47679 0.0
C709 C 0.4624 0.63979 0.50267 0.0
C710 C 0.43093 0.5935 0.40308 0.0
C711 C 0.45819 0.69186 0.48466 0.0
H712 H 0.47272 0.6972 0.3447 0.0
H713 H 0.3724 0.68468 0.38167 0.0
H714 H 0.50641 0.67871 0.42052 0.0
H715 H 0.49736 0.64479 0.39105 0.0
H716 H 0.51377 0.68218 0.37489 0.0
H717 H 0.3534 0.6588 0.43097 0.0
H718 H 0.37305 0.62714 0.43541 0.0
H719 H 0.38414 0.66171 0.46362 0.0
H720 H 0.44942 0.56885 0.45834 0.0
H721 H 0.4705 0.6513 0.52766 0.0
H722 H 0.44864 0.60269 0.38249 0.0
H723 H 0.4065 0.59754 0.39664 0.0
H724 H 0.42883 0.56809 0.40279 0.0
H725 H 0.47481 0.70483 0.46533 0.0
H726 H 0.46824 0.70007 0.51081 0.0
H727 H 0.43372 0.69762 0.48291 0.0
C728 C 0.1335 0.46399 0.85461 0.0
C729 C 0.1151 0.43539 0.84016 0.0
C730 C 0.11959 0.48175 0.88012 0.0
C731 C 0.08638 0.47085 0.89108 0.0
C732 C 0.06781 0.44193 0.87677 0.0
C733 C 0.08242 0.42451 0.85169 0.0
C734 C 0.14031 0.51231 0.89511 0.0
C735 C 0.03223 0.42961 0.8875 0.0
C736 C 0.0543 0.50297 0.97587 0.0
C737 C 0.03764 0.52428 0.96455 0.0
C738 C 0.07085 0.4858 0.95235 0.0
C739 C 0.07054 0.49003 0.91666 0.0
C740 C 0.05402 0.51186 0.90522 0.0
C741 C 0.03798 0.52892 0.92939 0.0
C742 C 0.08854 0.4631 0.9657 0.0
C743 C 0.05277 0.51681 0.8674 0.0
H744 H 0.1588 0.47252 0.84601 0.0
H745 H 0.06791 0.4025 0.84066 0.0
H746 H 0.12908 0.53156 0.88898 0.0
H747 H 0.14086 0.5126 0.92364 0.0
H748 H 0.16616 0.51686 0.885 0.0
H749 H 0.02133 0.40648 0.87426 0.0
H750 H 0.03052 0.42768 0.91578 0.0
H751 H 0.01707 0.44602 0.88152 0.0
H752 H 0.05492 0.50017 1.0032 0.0
H753 H 0.02521 0.54556 0.92071 0.0
H754 H 0.11499 0.46885 0.95767 0.0
H755 H 0.07762 0.43928 0.95435 0.0
H756 H 0.08708 0.46311 0.99429 0.0
H757 H 0.07824 0.52363 0.85666 0.0
H758 H 0.03933 0.53498 0.86281 0.0
H759 H 0.04031 0.49479 0.8529 0.0
C760 C 0.62888 0.91117 0.88386 0.0
C761 C 0.64087 0.88663 0.89501 0.0
C762 C 0.61429 0.93014 0.90721 0.0
C763 C 0.61159 0.92443 0.94257 0.0
C764 C 0.62436 0.90019 0.95414 0.0
C765 C 0.63886 0.8816 0.93024 0.0
C766 C 0.60103 0.95583 0.89391 0.0
C767 C 0.62196 0.89341 0.99165 0.0
C768 C 0.59468 0.98792 1.00791 0.0
C769 C 0.56034 0.97828 1.01307 0.0
C770 C 0.61176 0.97057 0.98516 0.0
C771 C 0.59409 0.94293 0.96718 0.0
C772 C 0.55951 0.93293 0.97248 0.0
C773 C 0.54308 0.9507 0.99533 0.0
C774 C 0.64865 0.98195 0.98017 0.0
C775 C 0.53979 0.90355 0.95381 0.0
H776 H 0.6304 0.9153 0.85673 0.0
H777 H 0.64812 0.86275 0.93914 0.0
H778 H 0.57382 0.95118 0.89798 0.0
H779 H 0.61189 0.97829 0.90848 0.0
H780 H 0.60647 0.95819 0.86599 0.0
H781 H 0.63447 0.87469 0.99675 0.0
H782 H 0.6332 0.91463 1.00817 0.0
H783 H 0.59555 0.88629 0.99953 0.0
H784 H 0.60829 1.00918 0.02143 0.0
H785 H 0.51657 0.94296 0.99908 0.0
H786 H 0.65435 0.98622 0.95271 0.0
H787 H 0.66156 0.96392 0.98658 0.0
H788 H 0.65882 1.00369 0.99642 0.0
H789 H 0.54211 0.90529 0.92551 0.0
H790 H 0.51311 0.89882 0.96107 0.0
H791 H 0.54976 0.88345 0.95964 0.0
C792 C 0.86663 0.17832 0.5405 0.0
C793 C 0.83208 0.17093 0.5446 0.0
C794 C 0.88554 0.15724 0.54776 0.0
C795 C 0.86943 0.12801 0.559 0.0
C796 C 0.83458 0.12044 0.56319 0.0
C797 C 0.81634 0.14206 0.55613 0.0
C798 C 0.92273 0.16623 0.54344 0.0
C799 C 0.81654 0.0894 0.57495 0.0
C800 C 0.91377 0.06187 0.54887 0.0
C801 C 0.9245 0.06158 0.58257 0.0
C802 C 0.89592 0.08352 0.54072 0.0
C803 C 0.88898 0.10542 0.56691 0.0
C804 C 0.90012 0.10535 0.60092 0.0
C805 C 0.91758 0.08326 0.60839 0.0
C806 C 0.88428 0.08282 0.5042 0.0
C807 C 0.89361 0.1286 0.62942 0.0
H808 H 0.87894 0.20061 0.53164 0.0
H809 H 0.78964 0.13612 0.55916 0.0
H810 H 0.93478 0.16528 0.56828 0.0
H811 H 0.93107 0.14948 0.52439 0.0
H812 H 0.93145 0.18993 0.53466 0.0
H813 H 0.78929 0.08694 0.57642 0.0
H814 H 0.82194 0.07038 0.55691 0.0
H815 H 0.82536 0.08633 0.60078 0.0
H816 H 0.91916 0.04505 0.52894 0.0
H817 H 0.92618 0.08321 0.63442 0.0
H818 H 0.89428 0.10562 0.49371 0.0
H819 H 0.85687 0.07863 0.50395 0.0
H820 H 0.89201 0.06452 0.48681 0.0
H821 H 0.90383 0.15255 0.62205 0.0
H822 H 0.90473 0.1259 0.65427 0.0
H823 H 0.86655 0.12592 0.6334 0.0
C824 C 0.22618 0.66148 0.18005 0.0
C825 C 0.25221 0.67267 0.15721 0.0
C826 C 0.19556 0.64346 0.16775 0.0
C827 C 0.19076 0.63641 0.13174 0.0
C828 C 0.21726 0.64689 0.10868 0.0
C829 C 0.24754 0.66483 0.12165 0.0
C830 C 0.16801 0.63271 0.19324 0.0
C831 C 0.21332 0.63994 0.07013 0.0
C832 C 0.11799 0.57211 0.09798 0.0
C833 C 0.09489 0.58909 0.09011 0.0
C834 C 0.14912 0.58707 0.11185 0.0
C835 C 0.1575 0.61985 0.11796 0.0
C836 C 0.13431 0.63709 0.11007 0.0
C837 C 0.10343 0.62157 0.09631 0.0
C838 C 0.17309 0.56778 0.11983 0.0
C839 C 0.14216 0.67205 0.11604 0.0
H840 H 0.22947 0.6673 0.20755 0.0
H841 H 0.26744 0.67318 0.1037 0.0
H842 H 0.14726 0.64391 0.18933 0.0
H843 H 0.15821 0.60727 0.1889 0.0
H844 H 0.17626 0.63834 0.22042 0.0
H845 H 0.23684 0.64816 0.05578 0.0
H846 H 0.20445 0.61461 0.06373 0.0
H847 H 0.19442 0.65133 0.06095 0.0
H848 H 0.11184 0.54708 0.09329 0.0
H849 H 0.08591 0.63508 0.09048 0.0
H850 H 0.18022 0.57237 0.14737 0.0
H851 H 0.19607 0.57439 0.1042 0.0
H852 H 0.16256 0.5425 0.11443 0.0
H853 H 0.14815 0.67919 0.14358 0.0
H854 H 0.12129 0.68205 0.10904 0.0
H855 H 0.16427 0.68222 0.10055 0.0
C856 C 0.26773 0.47749 0.68391 0.0
C857 C 0.26739 0.45074 0.70077 0.0
C858 C 0.29603 0.49224 0.66582 0.0
C859 C 0.32438 0.47949 0.66384 0.0
C860 C 0.32427 0.45265 0.68112 0.0
C861 C 0.29593 0.43883 0.69969 0.0
C862 C 0.29544 0.52123 0.64846 0.0
C863 C 0.35374 0.43797 0.67912 0.0
C864 C 0.38357 0.49556 0.58749 0.0
C865 C 0.41079 0.5166 0.60281 0.0
C866 C 0.3552 0.48354 0.607 0.0
C867 C 0.35369 0.49335 0.64254 0.0
C868 C 0.38067 0.51547 0.65785 0.0
C869 C 0.40909 0.52653 0.63789 0.0
C870 C 0.32724 0.4596 0.58979 0.0
C871 C 0.37976 0.52705 0.69543 0.0
H872 H 0.24582 0.48693 0.68485 0.0
H873 H 0.29577 0.41806 0.7125 0.0
H874 H 0.317 0.54011 0.65669 0.0
H875 H 0.29749 0.51671 0.62008 0.0
H876 H 0.2724 0.52942 0.65446 0.0
H877 H 0.34988 0.41738 0.69437 0.0
H878 H 0.3587 0.43069 0.65182 0.0
H879 H 0.37616 0.45509 0.6887 0.0
H880 H 0.38482 0.48773 0.5604 0.0
H881 H 0.4301 0.54279 0.64983 0.0
H882 H 0.30383 0.46761 0.59272 0.0
H883 H 0.32345 0.4376 0.60251 0.0
H884 H 0.3321 0.45472 0.56185 0.0
H885 H 0.35694 0.53563 0.70123 0.0
H886 H 0.40159 0.54603 0.7027 0.0
H887 H 0.3791 0.50771 0.71186 0.0
C888 C 0.75438 0.64742 0.84229 0.0
C889 C 0.72997 0.66175 0.85724 0.0
C890 C 0.77981 0.64214 0.86225 0.0
C891 C 0.78062 0.65109 0.8981 0.0
C892 C 0.75533 0.66443 0.91359 0.0
C893 C 0.73039 0.66978 0.89293 0.0
C894 C 0.80647 0.62801 0.84476 0.0
C895 C 0.75512 0.67387 0.95183 0.0
C896 C 0.83494 0.61715 0.95351 0.0
C897 C 0.86318 0.64155 0.9573 0.0
C898 C 0.80768 0.62002 0.93467 0.0
C899 C 0.80884 0.64787 0.91902 0.0
C900 C 0.83726 0.67262 0.92286 0.0
C901 C 0.86404 0.66921 0.94214 0.0
C902 C 0.77768 0.59326 0.93148 0.0
C903 C 0.83957 0.70255 0.90622 0.0
H904 H 0.75428 0.64121 0.81471 0.0
H905 H 0.71151 0.68073 0.9047 0.0
H906 H 0.8307 0.64497 0.84707 0.0
H907 H 0.80877 0.60729 0.85764 0.0
H908 H 0.80146 0.62109 0.81696 0.0
H909 H 0.73247 0.68189 0.96026 0.0
H910 H 0.75684 0.65409 0.96672 0.0
H911 H 0.77704 0.6929 0.9584 0.0
H912 H 0.83407 0.59586 0.96559 0.0
H913 H 0.88597 0.68798 0.94477 0.0
H914 H 0.77312 0.58511 0.90391 0.0
H915 H 0.7554 0.60103 0.94166 0.0
H916 H 0.78055 0.57337 0.94565 0.0
H917 H 0.83714 0.69772 0.87782 0.0
H918 H 0.86336 0.71957 0.9118 0.0
H919 H 0.81894 0.71328 0.9155 0.0
C920 C 0.44688 0.83435 0.20746 0.0
C921 C 0.4132 0.82683 0.21665 0.0
C922 C 0.46124 0.86263 0.19314 0.0
C923 C 0.44179 0.8845 0.18897 0.0
C924 C 0.40805 0.8774 0.19943 0.0
C925 C 0.39408 0.84853 0.21245 0.0
C926 C 0.49702 0.8687 0.18153 0.0
C927 C 0.3866 0.90031 0.19682 0.0
C928 C 0.4888 0.96855 0.18081 0.0
C929 C 0.48659 0.97175 0.14543 0.0
C930 C 0.4736 0.94072 0.19538 0.0
C931 C 0.45674 0.91483 0.1739 0.0
C932 C 0.45441 0.91799 0.13805 0.0
C933 C 0.46886 0.94655 0.12437 0.0
C934 C 0.47574 0.93903 0.23383 0.0
C935 C 0.43754 0.89089 0.11394 0.0
H936 H 0.46169 0.81754 0.2101 0.0
H937 H 0.36803 0.84291 0.2195 0.0
H938 H 0.49886 0.87272 0.15368 0.0
H939 H 0.51145 0.89001 0.19575 0.0
H940 H 0.50857 0.84911 0.18564 0.0
H941 H 0.36143 0.89209 0.20791 0.0
H942 H 0.39836 0.92295 0.21052 0.0
H943 H 0.38414 0.90441 0.1694 0.0
H944 H 0.50247 0.98797 0.19722 0.0
H945 H 0.46745 0.94877 0.09694 0.0
H946 H 0.49013 0.9218 0.23908 0.0
H947 H 0.45059 0.93112 0.24502 0.0
H948 H 0.48772 0.96176 0.24727 0.0
H949 H 0.44981 0.8713 0.11522 0.0
H950 H 0.43816 0.89692 0.08675 0.0
H951 H 0.41136 0.88262 0.12201 0.0
C952 C 0.06019 0.2361 0.73673 0.0
C953 C 0.08874 0.25778 0.7274 0.0
C954 C 0.0509 0.20677 0.71866 0.0
C955 C 0.07072 0.19875 0.69066 0.0
C956 C 0.10004 0.22018 0.68164 0.0
C957 C 0.10866 0.24949 0.70005 0.0
C958 C 0.01935 0.18466 0.72896 0.0
C959 C 0.12189 0.21239 0.65203 0.0
C960 C 0.0566 0.11317 0.65927 0.0
C961 C 0.03595 0.1114 0.63093 0.0
C962 C 0.06866 0.14157 0.67863 0.0
C963 C 0.0596 0.1687 0.66959 0.0
C964 C 0.03888 0.16702 0.64093 0.0
C965 C 0.02743 0.13846 0.62192 0.0
C966 C 0.09085 0.14251 0.70892 0.0
C967 C 0.02839 0.19533 0.63058 0.0
H968 H 0.04465 0.24223 0.75785 0.0
H969 H 0.13083 0.26602 0.69276 0.0
H970 H 1.00148 0.18016 0.70745 0.0
H971 H 0.02448 0.16204 0.7341 0.0
H972 H 0.0075 0.19386 0.7523 0.0
H973 H 0.14491 0.23074 0.64971 0.0
H974 H 0.12874 0.19012 0.65542 0.0
H975 H 0.10817 0.20933 0.62747 0.0
H976 H 0.06343 0.0924 0.66627 0.0
H977 H 0.01135 0.13733 0.60016 0.0
H978 H 0.07875 0.1497 0.73309 0.0
H979 H 0.1144 0.16 0.7059 0.0
H980 H 0.09666 0.11966 0.71173 0.0
H981 H 0.01443 0.20471 0.65211 0.0
H982 H 0.01255 0.19017 0.60731 0.0
H983 H 0.05051 0.21381 0.62525 0.0
C984 C 0.69525 0.31057 0.52558 0.0
C985 C 0.72891 0.32078 0.51727 0.0
C986 C 0.67449 0.33145 0.53004 0.0
C987 C 0.68769 0.36328 0.52594 0.0
C988 C 0.72206 0.37405 0.5198 0.0
C989 C 0.74233 0.35264 0.51563 0.0
C990 C 0.63803 0.31908 0.53694 0.0
C991 C 0.73705 0.40786 0.51535 0.0
C992 C 0.62825 0.40537 0.48987 0.0
C993 C 0.61888 0.42176 0.51948 0.0
C994 C 0.65114 0.38683 0.49164 0.0
C995 C 0.66489 0.38439 0.52387 0.0
C996 C 0.6558 0.40104 0.55387 0.0
C997 C 0.63289 0.41958 0.55131 0.0
C998 C 0.66014 0.36938 0.45904 0.0
C999 C 0.66997 0.39898 0.58865 0.0
H1000 H 0.68476 0.28602 0.52731 0.0
H1001 H 0.76835 0.36073 0.50934 0.0
H1002 H 0.62922 0.33332 0.55845 0.0
H1003 H 0.62377 0.32051 0.5137 0.0
H1004 H 0.63241 0.29452 0.54344 0.0
H1005 H 0.76455 0.41311 0.51525 0.0
H1006 H 0.72883 0.41401 0.49053 0.0
H1007 H 0.72848 0.42287 0.53625 0.0
H1008 H 0.61714 0.40652 0.4653 0.0
H1009 H 0.62606 0.4325 0.57423 0.0
H1010 H 0.65248 0.34402 0.46156 0.0
H1011 H 0.68737 0.37522 0.4549 0.0
H1012 H 0.64818 0.37472 0.43585 0.0
H1013 H 0.66304 0.37466 0.59581 0.0
H1014 H 0.66105 0.41406 0.60931 0.0
H1015 H 0.6974 0.40576 0.58747 0.0
loop_
_geom_bond_atom_site_label_1
_geom_bond_atom_site_label_2
_geom_bond_distance
_geom_bond_site_symmetry_2
_ccdc_geom_bond_type
O0 Cd1 2.300 . S
O0 C7 1.275 . S
Cd1 O0 2.300 . S
Cd1 O9 2.381 . S
Cd1 O10 2.378 . S
O2 Cd3 2.385 . S
O2 C7 1.255 . S
Cd3 O2 2.385 . S
Cd3 O4 2.317 . S
O4 Cd3 2.317 . S
O4 C5 1.232 . S
C5 O4 1.232 . S
C5 O6 1.218 . S
O6 C5 1.218 . S
C7 O0 1.275 . S
C7 O2 1.255 . S
C8 O9 1.258 . S
C8 O10 1.256 . S
O9 Cd1 2.381 . S
O9 C8 1.258 . S
O10 Cd1 2.378 . S
O10 C8 1.256 . S
O11 Cd12 2.300 . S
O11 C18 1.275 . S
Cd12 O11 2.300 . S
Cd12 O20 2.381 . S
Cd12 O21 2.378 . S
O13 Cd14 2.385 . S
O13 C18 1.255 . S
Cd14 O13 2.385 . S
Cd14 O15 2.317 . S
O15 Cd14 2.317 . S
O15 C16 1.232 . S
C16 O15 1.232 . S
C16 O17 1.218 . S
O17 C16 1.218 . S
C18 O11 1.275 . S
C18 O13 1.255 . S
C19 O20 1.258 . S
C19 O21 1.256 . S
O20 Cd12 2.381 . S
O20 C19 1.258 . S
O21 Cd12 2.378 . S
O21 C19 1.256 . S
O22 Cd23 2.300 . S
O22 C29 1.275 . S
Cd23 O22 2.300 . S
Cd23 O31 2.381 . S
Cd23 O32 2.378 . S
O24 Cd25 2.385 . S
O24 C29 1.255 . S
Cd25 O24 2.385 . S
Cd25 O26 2.317 . S
O26 Cd25 2.317 . S
O26 C27 1.232 . S
C27 O26 1.232 . S
C27 O28 1.218 . S
O28 C27 1.218 . S
C29 O22 1.275 . S
C29 O24 1.255 . S
C30 O31 1.258 . S
C30 O32 1.256 . S
O31 Cd23 2.381 . S
O31 C30 1.258 . S
O32 Cd23 2.378 . S
O32 C30 1.256 . S
O33 Cd34 2.300 . S
O33 C40 1.275 . S
Cd34 O33 2.300 . S
Cd34 O42 2.381 . S
Cd34 O43 2.378 . S
O35 Cd36 2.385 . S
O35 C40 1.255 . S
Cd36 O35 2.385 . S
Cd36 O37 2.317 . S
O37 Cd36 2.317 . S
O37 C38 1.232 . S
C38 O37 1.232 . S
C38 O39 1.218 . S
O39 C38 1.218 . S
C40 O33 1.275 . S
C40 O35 1.255 . S
C41 O42 1.258 . S
C41 O43 1.256 . S
O42 Cd34 2.381 . S
O42 C41 1.258 . S
O43 Cd34 2.378 . S
O43 C41 1.256 . S
O44 Cd45 2.300 . S
O44 C51 1.275 . S
Cd45 O44 2.300 . S
Cd45 O53 2.381 . S
Cd45 O54 2.378 . S
O46 Cd47 2.385 . S
O46 C51 1.255 . S
Cd47 O46 2.385 . S
Cd47 O48 2.317 . S
O48 Cd47 2.317 . S
O48 C49 1.232 . S
C49 O48 1.232 . S
C49 O50 1.218 . S
O50 C49 1.218 . S
C51 O44 1.275 . S
C51 O46 1.255 . S
C52 O53 1.258 . S
C52 O54 1.256 . S
O53 Cd45 2.381 . S
O53 C52 1.258 . S
O54 Cd45 2.378 . S
O54 C52 1.256 . S
O55 Cd56 2.300 . S
O55 C62 1.275 . S
Cd56 O55 2.300 . S
Cd56 O64 2.381 . S
Cd56 O65 2.378 . S
O57 Cd58 2.385 . S
O57 C62 1.255 . S
Cd58 O57 2.385 . S
Cd58 O59 2.317 . S
O59 Cd58 2.317 . S
O59 C60 1.232 . S
C60 O59 1.232 . S
C60 O61 1.218 . S
O61 C60 1.218 . S
C62 O55 1.275 . S
C62 O57 1.255 . S
C63 O64 1.258 . S
C63 O65 1.256 . S
O64 Cd56 2.381 . S
O64 C63 1.258 . S
O65 Cd56 2.378 . S
O65 C63 1.256 . S
O66 Cd67 2.300 . S
O66 C73 1.275 . S
Cd67 O66 2.300 . S
Cd67 O75 2.381 . S
Cd67 O76 2.378 . S
O68 Cd69 2.385 . S
O68 C73 1.255 . S
Cd69 O68 2.385 . S
Cd69 O70 2.317 . S
O70 Cd69 2.317 . S
O70 C71 1.232 . S
C71 O70 1.232 . S
C71 O72 1.218 . S
O72 C71 1.218 . S
C73 O66 1.275 . S
C73 O68 1.255 . S
C74 O75 1.258 . S
C74 O76 1.256 . S
O75 Cd67 2.381 . S
O75 C74 1.258 . S
O76 Cd67 2.378 . S
O76 C74 1.256 . S
O77 Cd78 2.300 . S
O77 C84 1.275 . S
Cd78 O77 2.300 . S
Cd78 O86 2.381 . S
Cd78 O87 2.378 . S
O79 Cd80 2.385 . S
O79 C84 1.255 . S
Cd80 O79 2.385 . S
Cd80 O81 2.317 . S
O81 Cd80 2.317 . S
O81 C82 1.232 . S
C82 O81 1.232 . S
C82 O83 1.218 . S
O83 C82 1.218 . S
C84 O77 1.275 . S
C84 O79 1.255 . S
C85 O86 1.258 . S
C85 O87 1.256 . S
O86 Cd78 2.381 . S
O86 C85 1.258 . S
O87 Cd78 2.378 . S
O87 C85 1.256 . S
Gd88 C91 2.818 . S
Gd88 O108 2.377 . S
Gd88 O110 2.448 . S
Gd88 O111 2.506 . S
Gd88 O112 2.435 1_545 S
Gd88 O113 2.717 1_545 S
Gd88 O115 2.395 1_445 S
Gd88 O119 2.327 1_455 S
Gd89 C100 2.818 1_545 S
Gd89 O109 2.395 1_655 S
Gd89 O113 2.327 1_645 S
Gd89 O114 2.377 1_545 S
Gd89 O116 2.448 1_545 S
Gd89 O117 2.506 1_545 S
Gd89 O118 2.435 . S
Gd89 O119 2.717 . S
C90 O108 1.240 . S
C90 O109 1.240 . S
C91 Gd88 2.818 . S
C91 C92 1.510 . S
C91 O110 1.249 . S
C91 O111 1.252 . S
C92 C91 1.510 . S
C92 C93 1.404 . S
C92 C94 1.352 . S
C93 C92 1.404 . S
C93 C97 1.389 . S
C93 H120 0.930 . S
C94 C92 1.352 . S
C94 C96 1.374 . S
C94 H121 0.931 . S
C95 C96 1.359 . S
C95 C97 1.364 . S
C96 C94 1.374 . S
C96 C95 1.359 . S
C96 H122 0.931 . S
C97 C93 1.389 . S
C97 C95 1.364 . S
C97 H123 0.931 . S
C98 O112 1.256 . S
C98 O113 1.257 . S
C99 O114 1.240 . S
C99 O115 1.240 . S
C100 Gd89 2.818 1_565 S
C100 C101 1.510 . S
C100 O116 1.249 . S
C100 O117 1.252 . S
C101 C100 1.510 . S
C101 C102 1.404 . S
C101 C103 1.352 . S
C102 C101 1.404 . S
C102 C106 1.389 . S
C102 H124 0.930 . S
C103 C101 1.352 . S
C103 C105 1.374 . S
C103 H125 0.931 . S
C104 C105 1.359 . S
C104 C106 1.364 . S
C105 C103 1.374 . S
C105 C104 1.359 . S
C105 H126 0.931 . S
C106 C102 1.389 . S
C106 C104 1.364 . S
C106 H127 0.931 . S
C107 O118 1.256 . S
C107 O119 1.257 . S
O108 Gd88 2.377 . S
O108 C90 1.240 . S
O109 Gd89 2.395 1_455 S
O109 C90 1.240 . S
O110 Gd88 2.448 . S
O110 C91 1.249 . S
O111 Gd88 2.506 . S
O111 C91 1.252 . S
O112 Gd88 2.435 1_565 S
O112 C98 1.256 . S
O113 Gd88 2.717 1_565 S
O113 Gd89 2.327 1_465 S
O113 C98 1.257 . S
O114 Gd89 2.377 1_565 S
O114 C99 1.240 . S
O115 Gd88 2.395 1_665 S
O115 C99 1.240 . S
O116 Gd89 2.448 1_565 S
O116 C100 1.249 . S
O117 Gd89 2.506 1_565 S
O117 C100 1.252 . S
O118 Gd89 2.435 . S
O118 C107 1.256 . S
O119 Gd88 2.327 1_655 S
O119 Gd89 2.717 . S
O119 C107 1.257 . S
H120 C93 0.930 . S
H121 C94 0.931 . S
H122 C96 0.931 . S
H123 C97 0.931 . S
H124 C102 0.930 . S
H125 C103 0.931 . S
H126 C105 0.931 . S
H127 C106 0.931 . S
Gd128 C131 2.818 . S
Gd128 O148 2.377 . S
Gd128 O150 2.448 . S
Gd128 O151 2.506 . S
Gd128 O152 2.435 1_545 S
Gd128 O153 2.717 . S
Gd128 O155 2.395 . S
Gd128 O159 2.327 . S
Gd129 C140 2.818 1_544 S
Gd129 O149 2.395 . S
Gd129 O153 2.327 . S
Gd129 O154 2.377 . S
Gd129 O156 2.448 1_554 S
Gd129 O157 2.506 1_544 S
Gd129 O158 2.435 . S
Gd129 O159 2.717 . S
C130 O148 1.240 . S
C130 O149 1.240 . S
C131 Gd128 2.818 . S
C131 C132 1.510 . S
C131 O150 1.249 . S
C131 O151 1.252 . S
C132 C131 1.510 . S
C132 C133 1.404 . S
C132 C134 1.352 . S
C133 C132 1.404 . S
C133 C137 1.389 . S
C133 H160 0.930 . S
C134 C132 1.352 . S
C134 C136 1.374 . S
C134 H161 0.931 . S
C135 C136 1.359 . S
C135 C137 1.364 . S
C136 C134 1.374 . S
C136 C135 1.359 . S
C136 H162 0.931 . S
C137 C133 1.389 . S
C137 C135 1.364 . S
C137 H163 0.931 . S
C138 O152 1.256 . S
C138 O153 1.257 1_565 S
C139 O154 1.240 1_565 S
C139 O155 1.240 1_565 S
C140 Gd129 2.818 1_566 S
C140 C141 1.510 . S
C140 O156 1.249 1_565 S
C140 O157 1.252 . S
C141 C140 1.510 . S
C141 C142 1.404 . S
C141 C143 1.352 . S
C142 C141 1.404 . S
C142 C146 1.389 . S
C142 H164 0.930 1_565 S
C143 C141 1.352 . S
C143 C145 1.374 . S
C143 H165 0.931 . S
C144 C145 1.359 . S
C144 C146 1.364 . S
C145 C143 1.374 . S
C145 C144 1.359 . S
C145 H166 0.931 . S
C146 C142 1.389 . S
C146 C144 1.364 . S
C146 H167 0.931 . S
C147 O158 1.256 . S
C147 O159 1.257 . S
O148 Gd128 2.377 . S
O148 C130 1.240 . S
O149 Gd129 2.395 . S
O149 C130 1.240 . S
O150 Gd128 2.448 . S
O150 C131 1.249 . S
O151 Gd128 2.506 . S
O151 C131 1.252 . S
O152 Gd128 2.435 1_565 S
O152 C138 1.256 . S
O153 Gd128 2.717 . S
O153 Gd129 2.327 . S
O153 C138 1.257 1_545 S
O154 Gd129 2.377 . S
O154 C139 1.240 1_545 S
O155 Gd128 2.395 . S
O155 C139 1.240 1_545 S
O156 Gd129 2.448 1_556 S
O156 C140 1.249 1_545 S
O157 Gd129 2.506 1_566 S
O157 C140 1.252 . S
O158 Gd129 2.435 . S
O158 C147 1.256 . S
O159 Gd128 2.327 . S
O159 Gd129 2.717 . S
O159 C147 1.257 . S
H160 C133 0.930 . S
H161 C134 0.931 . S
H162 C136 0.931 . S
H163 C137 0.931 . S
H164 C142 0.930 1_545 S
H165 C143 0.931 . S
H166 C145 0.931 . S
H167 C146 0.931 . S
Gd168 C171 2.818 . S
Gd168 O188 2.377 . S
Gd168 O190 2.448 . S
Gd168 O191 2.506 . S
Gd168 O192 2.435 . S
Gd168 O193 2.717 . S
Gd168 O195 2.395 . S
Gd168 O199 2.327 . S
Gd169 C180 2.818 . S
Gd169 O189 2.395 . S
Gd169 O193 2.327 . S
Gd169 O194 2.377 . S
Gd169 O196 2.448 . S
Gd169 O197 2.506 . S
Gd169 O198 2.435 . S
Gd169 O199 2.717 . S
C170 O188 1.240 . S
C170 O189 1.240 . S
C171 Gd168 2.818 . S
C171 C172 1.510 . S
C171 O190 1.249 . S
C171 O191 1.252 . S
C172 C171 1.510 . S
C172 C173 1.404 . S
C172 C174 1.352 . S
C173 C172 1.404 . S
C173 C177 1.389 . S
C173 H200 0.930 . S
C174 C172 1.352 . S
C174 C176 1.374 . S
C174 H201 0.931 . S
C175 C176 1.359 . S
C175 C177 1.364 . S
C176 C174 1.374 . S
C176 C175 1.359 . S
C176 H202 0.931 . S
C177 C173 1.389 . S
C177 C175 1.364 . S
C177 H203 0.931 . S
C178 O192 1.256 . S
C178 O193 1.257 . S
C179 O194 1.240 . S
C179 O195 1.240 . S
C180 Gd169 2.818 . S
C180 C181 1.510 . S
C180 O196 1.249 . S
C180 O197 1.252 . S
C181 C180 1.510 . S
C181 C182 1.404 . S
C181 C183 1.352 . S
C182 C181 1.404 . S
C182 C186 1.389 . S
C182 H204 0.930 . S
C183 C181 1.352 . S
C183 C185 1.374 . S
C183 H205 0.931 . S
C184 C185 1.359 . S
C184 C186 1.364 . S
C185 C183 1.374 . S
C185 C184 1.359 . S
C185 H206 0.931 . S
C186 C182 1.389 . S
C186 C184 1.364 . S
C186 H207 0.931 . S
C187 O198 1.256 . S
C187 O199 1.257 . S
O188 Gd168 2.377 . S
O188 C170 1.240 . S
O189 Gd169 2.395 . S
O189 C170 1.240 . S
O190 Gd168 2.448 . S
O190 C171 1.249 . S
O191 Gd168 2.506 . S
O191 C171 1.252 . S
O192 Gd168 2.435 . S
O192 C178 1.256 . S
O193 Gd168 2.717 . S
O193 Gd169 2.327 . S
O193 C178 1.257 . S
O194 Gd169 2.377 . S
O194 C179 1.240 . S
O195 Gd168 2.395 . S
O195 C179 1.240 . S
O196 Gd169 2.448 . S
O196 C180 1.249 . S
O197 Gd169 2.506 . S
O197 C180 1.252 . S
O198 Gd169 2.435 . S
O198 C187 1.256 . S
O199 Gd168 2.327 . S
O199 Gd169 2.717 . S
O199 C187 1.257 . S
H200 C173 0.930 . S
H201 C174 0.931 . S
H202 C176 0.931 . S
H203 C177 0.931 . S
H204 C182 0.930 . S
H205 C183 0.931 . S
H206 C185 0.931 . S
H207 C186 0.931 . S
Gd208 C211 2.818 . S
Gd208 O228 2.377 . S
Gd208 O230 2.448 . S
Gd208 O231 2.506 . S
Gd208 O232 2.435 1_455 S
Gd208 O233 2.717 1_455 S
Gd208 O235 2.395 1_455 S
Gd208 O239 2.327 1_554 S
Gd209 C220 2.818 1_455 S
Gd209 O229 2.395 1_556 S
Gd209 O233 2.327 1_456 S
Gd209 O234 2.377 1_455 S
Gd209 O236 2.448 1_455 S
Gd209 O237 2.506 1_455 S
Gd209 O238 2.435 . S
Gd209 O239 2.717 . S
C210 O228 1.240 . S
C210 O229 1.240 . S
C211 Gd208 2.818 . S
C211 C212 1.510 . S
C211 O230 1.249 . S
C211 O231 1.252 . S
C212 C211 1.510 . S
C212 C213 1.404 . S
C212 C214 1.352 . S
C213 C212 1.404 . S
C213 C217 1.389 . S
C213 H240 0.930 . S
C214 C212 1.352 . S
C214 C216 1.374 . S
C214 H241 0.931 . S
C215 C216 1.359 . S
C215 C217 1.364 . S
C216 C214 1.374 . S
C216 C215 1.359 . S
C216 H242 0.931 . S
C217 C213 1.389 . S
C217 C215 1.364 . S
C217 H243 0.931 . S
C218 O232 1.256 . S
C218 O233 1.257 . S
C219 O234 1.240 . S
C219 O235 1.240 1_556 S
C220 Gd209 2.818 1_655 S
C220 C221 1.510 . S
C220 O236 1.249 . S
C220 O237 1.252 . S
C221 C220 1.510 . S
C221 C222 1.404 . S
C221 C223 1.352 . S
C222 C221 1.404 . S
C222 C226 1.389 . S
C222 H244 0.930 . S
C223 C221 1.352 . S
C223 C225 1.374 . S
C223 H245 0.931 . S
C224 C225 1.359 . S
C224 C226 1.364 . S
C225 C223 1.374 . S
C225 C224 1.359 . S
C225 H246 0.931 . S
C226 C222 1.389 . S
C226 C224 1.364 . S
C226 H247 0.931 . S
C227 O238 1.256 . S
C227 O239 1.257 . S
O228 Gd208 2.377 . S
O228 C210 1.240 . S
O229 Gd209 2.395 1_554 S
O229 C210 1.240 . S
O230 Gd208 2.448 . S
O230 C211 1.249 . S
O231 Gd208 2.506 . S
O231 C211 1.252 . S
O232 Gd208 2.435 1_655 S
O232 C218 1.256 . S
O233 Gd208 2.717 1_655 S
O233 Gd209 2.327 1_654 S
O233 C218 1.257 . S
O234 Gd209 2.377 1_655 S
O234 C219 1.240 . S
O235 Gd208 2.395 1_655 S
O235 C219 1.240 1_554 S
O236 Gd209 2.448 1_655 S
O236 C220 1.249 . S
O237 Gd209 2.506 1_655 S
O237 C220 1.252 . S
O238 Gd209 2.435 . S
O238 C227 1.256 . S
O239 Gd208 2.327 1_556 S
O239 Gd209 2.717 . S
O239 C227 1.257 . S
H240 C213 0.930 . S
H241 C214 0.931 . S
H242 C216 0.931 . S
H243 C217 0.931 . S
H244 C222 0.930 . S
H245 C223 0.931 . S
H246 C225 0.931 . S
H247 C226 0.931 . S
C248 C249 1.391 . S
C248 C250 1.394 . S
C248 H264 0.931 . S
C249 C248 1.391 . S
C249 C253 1.376 . S
C250 C248 1.394 . S
C250 C251 1.369 . S
C250 C254 1.531 . S
C251 C250 1.369 . S
C251 C252 1.410 . S
C251 C259 1.503 . S
C252 C251 1.410 . S
C252 C253 1.392 . S
C252 C255 1.511 . S
C253 C249 1.376 . S
C253 C252 1.392 . S
C253 H265 0.929 . S
C254 C250 1.531 . S
C254 H266 0.960 . S
C254 H267 0.962 . S
C254 H268 0.960 . S
C255 C252 1.511 . S
C255 H269 0.961 . S
C255 H270 0.961 . S
C255 H271 0.961 . S
C256 C257 1.370 . S
C256 C258 1.363 . S
C256 H272 0.931 . S
C257 C256 1.370 . S
C257 C261 1.408 . S
C258 C256 1.363 . S
C258 C259 1.370 . S
C258 C262 1.524 . S
C259 C251 1.503 . S
C259 C258 1.370 . S
C259 C260 1.403 . S
C260 C259 1.403 . S
C260 C261 1.404 . S
C260 C263 1.539 . S
C261 C257 1.408 . S
C261 C260 1.404 . S
C261 H273 0.930 . S
C262 C258 1.524 . S
C262 H274 0.956 . S
C262 H275 0.961 . S
C262 H276 0.961 . S
C263 C260 1.539 . S
C263 H277 0.958 . S
C263 H278 0.961 . S
C263 H279 0.960 . S
H264 C248 0.931 . S
H265 C253 0.929 . S
H266 C254 0.960 . S
H267 C254 0.962 . S
H268 C254 0.960 . S
H269 C255 0.961 . S
H270 C255 0.961 . S
H271 C255 0.961 . S
H272 C256 0.931 . S
H273 C261 0.930 . S
H274 C262 0.956 . S
H275 C262 0.961 . S
H276 C262 0.961 . S
H277 C263 0.958 . S
H278 C263 0.961 . S
H279 C263 0.960 . S
C280 C281 1.391 . S
C280 C282 1.394 . S
C280 H296 0.931 . S
C281 C280 1.391 . S
C281 C285 1.376 . S
C282 C280 1.394 . S
C282 C283 1.369 . S
C282 C286 1.531 . S
C283 C282 1.369 . S
C283 C284 1.410 . S
C283 C291 1.503 . S
C284 C283 1.410 . S
C284 C285 1.392 . S
C284 C287 1.511 . S
C285 C281 1.376 . S
C285 C284 1.392 . S
C285 H297 0.929 . S
C286 C282 1.531 . S
C286 H298 0.960 . S
C286 H299 0.962 . S
C286 H300 0.960 . S
C287 C284 1.511 . S
C287 H301 0.961 . S
C287 H302 0.961 . S
C287 H303 0.961 . S
C288 C289 1.370 . S
C288 C290 1.363 . S
C288 H304 0.931 . S
C289 C288 1.370 . S
C289 C293 1.408 . S
C290 C288 1.363 . S
C290 C291 1.370 . S
C290 C294 1.524 . S
C291 C283 1.503 . S
C291 C290 1.370 . S
C291 C292 1.403 . S
C292 C291 1.403 . S
C292 C293 1.404 . S
C292 C295 1.539 . S
C293 C289 1.408 . S
C293 C292 1.404 . S
C293 H305 0.930 . S
C294 C290 1.524 . S
C294 H306 0.956 . S
C294 H307 0.961 . S
C294 H308 0.961 . S
C295 C292 1.539 . S
C295 H309 0.958 . S
C295 H310 0.961 . S
C295 H311 0.960 . S
H296 C280 0.931 . S
H297 C285 0.929 . S
H298 C286 0.960 . S
H299 C286 0.962 . S
H300 C286 0.960 . S
H301 C287 0.961 . S
H302 C287 0.961 . S
H303 C287 0.961 . S
H304 C288 0.931 . S
H305 C293 0.930 . S
H306 C294 0.956 . S
H307 C294 0.961 . S
H308 C294 0.961 . S
H309 C295 0.958 . S
H310 C295 0.961 . S
H311 C295 0.960 . S
C312 C313 1.391 . S
C312 C314 1.394 . S
C312 H328 0.931 . S
C313 C312 1.391 . S
C313 C317 1.376 . S
C314 C312 1.394 . S
C314 C315 1.369 . S
C314 C318 1.531 . S
C315 C314 1.369 . S
C315 C316 1.410 . S
C315 C323 1.503 . S
C316 C315 1.410 . S
C316 C317 1.392 . S
C316 C319 1.511 . S
C317 C313 1.376 . S
C317 C316 1.392 . S
C317 H329 0.929 . S
C318 C314 1.531 . S
C318 H330 0.960 . S
C318 H331 0.962 . S
C318 H332 0.960 . S
C319 C316 1.511 . S
C319 H333 0.961 . S
C319 H334 0.961 . S
C319 H335 0.961 . S
C320 C321 1.370 . S
C320 C322 1.363 . S
C320 H336 0.931 . S
C321 C320 1.370 . S
C321 C325 1.408 . S
C322 C320 1.363 . S
C322 C323 1.370 . S
C322 C326 1.524 . S
C323 C315 1.503 . S
C323 C322 1.370 . S
C323 C324 1.403 . S
C324 C323 1.403 . S
C324 C325 1.404 . S
C324 C327 1.539 . S
C325 C321 1.408 . S
C325 C324 1.404 . S
C325 H337 0.930 . S
C326 C322 1.524 . S
C326 H338 0.956 . S
C326 H339 0.961 . S
C326 H340 0.961 . S
C327 C324 1.539 . S
C327 H341 0.958 . S
C327 H342 0.961 . S
C327 H343 0.960 . S
H328 C312 0.931 . S
H329 C317 0.929 . S
H330 C318 0.960 . S
H331 C318 0.962 . S
H332 C318 0.960 . S
H333 C319 0.961 . S
H334 C319 0.961 . S
H335 C319 0.961 . S
H336 C320 0.931 . S
H337 C325 0.930 . S
H338 C326 0.956 . S
H339 C326 0.961 . S
H340 C326 0.961 . S
H341 C327 0.958 . S
H342 C327 0.961 . S
H343 C327 0.960 . S
C344 C345 1.391 . S
C344 C346 1.394 . S
C344 H360 0.931 . S
C345 C344 1.391 . S
C345 C349 1.376 . S
C346 C344 1.394 . S
C346 C347 1.369 . S
C346 C350 1.531 . S
C347 C346 1.369 . S
C347 C348 1.410 . S
C347 C355 1.503 . S
C348 C347 1.410 . S
C348 C349 1.392 . S
C348 C351 1.511 . S
C349 C345 1.376 . S
C349 C348 1.392 . S
C349 H361 0.929 . S
C350 C346 1.531 . S
C350 H362 0.960 . S
C350 H363 0.962 . S
C350 H364 0.960 . S
C351 C348 1.511 . S
C351 H365 0.961 . S
C351 H366 0.961 . S
C351 H367 0.961 . S
C352 C353 1.370 . S
C352 C354 1.363 . S
C352 H368 0.931 . S
C353 C352 1.370 . S
C353 C357 1.408 . S
C354 C352 1.363 . S
C354 C355 1.370 . S
C354 C358 1.524 . S
C355 C347 1.503 . S
C355 C354 1.370 . S
C355 C356 1.403 . S
C356 C355 1.403 . S
C356 C357 1.404 . S
C356 C359 1.539 1_655 S
C357 C353 1.408 . S
C357 C356 1.404 . S
C357 H369 0.930 1_655 S
C358 C354 1.524 . S
C358 H370 0.956 . S
C358 H371 0.961 . S
C358 H372 0.961 . S
C359 C356 1.539 1_455 S
C359 H373 0.958 . S
C359 H374 0.961 . S
C359 H375 0.960 . S
H360 C344 0.931 . S
H361 C349 0.929 . S
H362 C350 0.960 . S
H363 C350 0.962 . S
H364 C350 0.960 . S
H365 C351 0.961 . S
H366 C351 0.961 . S
H367 C351 0.961 . S
H368 C352 0.931 . S
H369 C357 0.930 1_455 S
H370 C358 0.956 . S
H371 C358 0.961 . S
H372 C358 0.961 . S
H373 C359 0.958 . S
H374 C359 0.961 . S
H375 C359 0.960 . S
C376 C377 1.391 . S
C376 C378 1.394 . S
C376 H392 0.931 . S
C377 C376 1.391 . S
C377 C381 1.376 . S
C378 C376 1.394 . S
C378 C379 1.369 . S
C378 C382 1.531 . S
C379 C378 1.369 . S
C379 C380 1.410 . S
C379 C387 1.503 . S
C380 C379 1.410 . S
C380 C381 1.392 . S
C380 C383 1.511 . S
C381 C377 1.376 . S
C381 C380 1.392 . S
C381 H393 0.929 . S
C382 C378 1.531 . S
C382 H394 0.960 . S
C382 H395 0.962 . S
C382 H396 0.960 . S
C383 C380 1.511 . S
C383 H397 0.961 . S
C383 H398 0.961 . S
C383 H399 0.961 . S
C384 C385 1.370 . S
C384 C386 1.363 . S
C384 H400 0.931 . S
C385 C384 1.370 . S
C385 C389 1.408 . S
C386 C384 1.363 . S
C386 C387 1.370 . S
C386 C390 1.524 . S
C387 C379 1.503 . S
C387 C386 1.370 . S
C387 C388 1.403 . S
C388 C387 1.403 . S
C388 C389 1.404 . S
C388 C391 1.539 . S
C389 C385 1.408 . S
C389 C388 1.404 . S
C389 H401 0.930 . S
C390 C386 1.524 . S
C390 H402 0.956 . S
C390 H403 0.961 . S
C390 H404 0.961 . S
C391 C388 1.539 . S
C391 H405 0.958 . S
C391 H406 0.961 . S
C391 H407 0.960 . S
H392 C376 0.931 . S
H393 C381 0.929 . S
H394 C382 0.960 . S
H395 C382 0.962 . S
H396 C382 0.960 . S
H397 C383 0.961 . S
H398 C383 0.961 . S
H399 C383 0.961 . S
H400 C384 0.931 . S
H401 C389 0.930 . S
H402 C390 0.956 . S
H403 C390 0.961 . S
H404 C390 0.961 . S
H405 C391 0.958 . S
H406 C391 0.961 . S
H407 C391 0.960 . S
C408 C409 1.391 . S
C408 C410 1.394 . S
C408 H424 0.931 . S
C409 C408 1.391 . S
C409 C413 1.376 . S
C410 C408 1.394 . S
C410 C411 1.369 . S
C410 C414 1.531 . S
C411 C410 1.369 . S
C411 C412 1.410 . S
C411 C419 1.503 . S
C412 C411 1.410 . S
C412 C413 1.392 . S
C412 C415 1.511 . S
C413 C409 1.376 . S
C413 C412 1.392 . S
C413 H425 0.929 . S
C414 C410 1.531 . S
C414 H426 0.960 . S
C414 H427 0.962 . S
C414 H428 0.960 . S
C415 C412 1.511 . S
C415 H429 0.961 . S
C415 H430 0.961 . S
C415 H431 0.961 . S
C416 C417 1.370 . S
C416 C418 1.363 . S
C416 H432 0.931 . S
C417 C416 1.370 . S
C417 C421 1.408 . S
C418 C416 1.363 . S
C418 C419 1.370 . S
C418 C422 1.524 . S
C419 C411 1.503 . S
C419 C418 1.370 . S
C419 C420 1.403 . S
C420 C419 1.403 . S
C420 C421 1.404 . S
C420 C423 1.539 . S
C421 C417 1.408 . S
C421 C420 1.404 . S
C421 H433 0.930 . S
C422 C418 1.524 . S
C422 H434 0.956 . S
C422 H435 0.961 . S
C422 H436 0.961 . S
C423 C420 1.539 . S
C423 H437 0.958 . S
C423 H438 0.961 . S
C423 H439 0.960 . S
H424 C408 0.931 . S
H425 C413 0.929 . S
H426 C414 0.960 . S
H427 C414 0.962 . S
H428 C414 0.960 . S
H429 C415 0.961 . S
H430 C415 0.961 . S
H431 C415 0.961 . S
H432 C416 0.931 . S
H433 C421 0.930 . S
H434 C422 0.956 . S
H435 C422 0.961 . S
H436 C422 0.961 . S
H437 C423 0.958 . S
H438 C423 0.961 . S
H439 C423 0.960 . S
C440 C441 1.391 . S
C440 C442 1.394 . S
C440 H456 0.931 . S
C441 C440 1.391 . S
C441 C445 1.376 . S
C442 C440 1.394 . S
C442 C443 1.369 . S
C442 C446 1.531 . S
C443 C442 1.369 . S
C443 C444 1.410 . S
C443 C451 1.503 . S
C444 C443 1.410 . S
C444 C445 1.392 . S
C444 C447 1.511 . S
C445 C441 1.376 . S
C445 C444 1.392 . S
C445 H457 0.929 . S
C446 C442 1.531 . S
C446 H458 0.960 . S
C446 H459 0.962 . S
C446 H460 0.960 . S
C447 C444 1.511 . S
C447 H461 0.961 . S
C447 H462 0.961 . S
C447 H463 0.961 . S
C448 C449 1.370 . S
C448 C450 1.363 . S
C448 H464 0.931 . S
C449 C448 1.370 . S
C449 C453 1.408 . S
C450 C448 1.363 . S
C450 C451 1.370 . S
C450 C454 1.524 . S
C451 C443 1.503 . S
C451 C450 1.370 . S
C451 C452 1.403 . S
C452 C451 1.403 . S
C452 C453 1.404 . S
C452 C455 1.539 . S
C453 C449 1.408 . S
C453 C452 1.404 . S
C453 H465 0.930 1_556 S
C454 C450 1.524 . S
C454 H466 0.956 . S
C454 H467 0.961 . S
C454 H468 0.961 . S
C455 C452 1.539 . S
C455 H469 0.958 . S
C455 H470 0.961 1_556 S
C455 H471 0.960 . S
H456 C440 0.931 . S
H457 C445 0.929 . S
H458 C446 0.960 . S
H459 C446 0.962 . S
H460 C446 0.960 . S
H461 C447 0.961 . S
H462 C447 0.961 . S
H463 C447 0.961 . S
H464 C448 0.931 . S
H465 C453 0.930 1_554 S
H466 C454 0.956 . S
H467 C454 0.961 . S
H468 C454 0.961 . S
H469 C455 0.958 . S
H470 C455 0.961 1_554 S
H471 C455 0.960 . S
C472 C473 1.391 . S
C472 C474 1.394 . S
C472 H488 0.931 . S
C473 C472 1.391 . S
C473 C477 1.376 . S
C474 C472 1.394 . S
C474 C475 1.369 . S
C474 C478 1.531 . S
C475 C474 1.369 . S
C475 C476 1.410 . S
C475 C483 1.503 . S
C476 C475 1.410 . S
C476 C477 1.392 . S
C476 C479 1.511 . S
C477 C473 1.376 . S
C477 C476 1.392 . S
C477 H489 0.929 . S
C478 C474 1.531 . S
C478 H490 0.960 . S
C478 H491 0.962 . S
C478 H492 0.960 . S
C479 C476 1.511 . S
C479 H493 0.961 . S
C479 H494 0.961 . S
C479 H495 0.961 . S
C480 C481 1.370 . S
C480 C482 1.363 . S
C480 H496 0.931 . S
C481 C480 1.370 . S
C481 C485 1.408 . S
C482 C480 1.363 . S
C482 C483 1.370 . S
C482 C486 1.524 . S
C483 C475 1.503 . S
C483 C482 1.370 . S
C483 C484 1.403 . S
C484 C483 1.403 . S
C484 C485 1.404 . S
C484 C487 1.539 . S
C485 C481 1.408 . S
C485 C484 1.404 . S
C485 H497 0.930 . S
C486 C482 1.524 . S
C486 H498 0.956 . S
C486 H499 0.961 . S
C486 H500 0.961 . S
C487 C484 1.539 . S
C487 H501 0.958 . S
C487 H502 0.961 . S
C487 H503 0.960 . S
H488 C472 0.931 . S
H489 C477 0.929 . S
H490 C478 0.960 . S
H491 C478 0.962 . S
H492 C478 0.960 . S
H493 C479 0.961 . S
H494 C479 0.961 . S
H495 C479 0.961 . S
H496 C480 0.931 . S
H497 C485 0.930 . S
H498 C486 0.956 . S
H499 C486 0.961 . S
H500 C486 0.961 . S
H501 C487 0.958 . S
H502 C487 0.961 . S
H503 C487 0.960 . S
C504 C505 1.391 . S
C504 C506 1.394 . S
C504 H520 0.931 . S
C505 C504 1.391 . S
C505 C509 1.376 . S
C506 C504 1.394 . S
C506 C507 1.369 . S
C506 C510 1.531 . S
C507 C506 1.369 . S
C507 C508 1.410 . S
C507 C515 1.503 . S
C508 C507 1.410 . S
C508 C509 1.392 . S
C508 C511 1.511 . S
C509 C505 1.376 . S
C509 C508 1.392 . S
C509 H521 0.929 . S
C510 C506 1.531 . S
C510 H522 0.960 . S
C510 H523 0.962 . S
C510 H524 0.960 . S
C511 C508 1.511 . S
C511 H525 0.961 . S
C511 H526 0.961 . S
C511 H527 0.961 . S
C512 C513 1.370 . S
C512 C514 1.363 . S
C512 H528 0.931 . S
C513 C512 1.370 . S
C513 C517 1.408 . S
C514 C512 1.363 . S
C514 C515 1.370 . S
C514 C518 1.524 . S
C515 C507 1.503 . S
C515 C514 1.370 . S
C515 C516 1.403 . S
C516 C515 1.403 . S
C516 C517 1.404 . S
C516 C519 1.539 . S
C517 C513 1.408 . S
C517 C516 1.404 . S
C517 H529 0.930 . S
C518 C514 1.524 . S
C518 H530 0.956 . S
C518 H531 0.961 . S
C518 H532 0.961 . S
C519 C516 1.539 . S
C519 H533 0.958 . S
C519 H534 0.961 . S
C519 H535 0.960 . S
H520 C504 0.931 . S
H521 C509 0.929 . S
H522 C510 0.960 . S
H523 C510 0.962 . S
H524 C510 0.960 . S
H525 C511 0.961 . S
H526 C511 0.961 . S
H527 C511 0.961 . S
H528 C512 0.931 . S
H529 C517 0.930 . S
H530 C518 0.956 . S
H531 C518 0.961 . S
H532 C518 0.961 . S
H533 C519 0.958 . S
H534 C519 0.961 . S
H535 C519 0.960 . S
C536 C537 1.391 . S
C536 C538 1.394 . S
C536 H552 0.931 . S
C537 C536 1.391 . S
C537 C541 1.376 . S
C538 C536 1.394 . S
C538 C539 1.369 . S
C538 C542 1.531 . S
C539 C538 1.369 . S
C539 C540 1.410 . S
C539 C547 1.503 . S
C540 C539 1.410 . S
C540 C541 1.392 . S
C540 C543 1.511 . S
C541 C537 1.376 . S
C541 C540 1.392 . S
C541 H553 0.929 . S
C542 C538 1.531 . S
C542 H554 0.960 . S
C542 H555 0.962 . S
C542 H556 0.960 . S
C543 C540 1.511 . S
C543 H557 0.961 . S
C543 H558 0.961 . S
C543 H559 0.961 . S
C544 C545 1.370 1_556 S
C544 C546 1.363 . S
C544 H560 0.931 . S
C545 C544 1.370 1_554 S
C545 C549 1.408 . S
C546 C544 1.363 . S
C546 C547 1.370 . S
C546 C550 1.524 . S
C547 C539 1.503 . S
C547 C546 1.370 . S
C547 C548 1.403 1_556 S
C548 C547 1.403 1_554 S
C548 C549 1.404 . S
C548 C551 1.539 . S
C549 C545 1.408 . S
C549 C548 1.404 . S
C549 H561 0.930 . S
C550 C546 1.524 . S
C550 H562 0.956 . S
C550 H563 0.961 . S
C550 H564 0.961 . S
C551 C548 1.539 . S
C551 H565 0.958 . S
C551 H566 0.961 . S
C551 H567 0.960 . S
H552 C536 0.931 . S
H553 C541 0.929 . S
H554 C542 0.960 . S
H555 C542 0.962 . S
H556 C542 0.960 . S
H557 C543 0.961 . S
H558 C543 0.961 . S
H559 C543 0.961 . S
H560 C544 0.931 . S
H561 C549 0.930 . S
H562 C550 0.956 . S
H563 C550 0.961 . S
H564 C550 0.961 . S
H565 C551 0.958 . S
H566 C551 0.961 . S
H567 C551 0.960 . S
C568 C569 1.391 . S
C568 C570 1.394 . S
C568 H584 0.931 . S
C569 C568 1.391 . S
C569 C573 1.376 . S
C570 C568 1.394 . S
C570 C571 1.369 . S
C570 C574 1.531 . S
C571 C570 1.369 . S
C571 C572 1.410 . S
C571 C579 1.503 . S
C572 C571 1.410 . S
C572 C573 1.392 . S
C572 C575 1.511 . S
C573 C569 1.376 . S
C573 C572 1.392 . S
C573 H585 0.929 . S
C574 C570 1.531 . S
C574 H586 0.960 . S
C574 H587 0.962 . S
C574 H588 0.960 . S
C575 C572 1.511 . S
C575 H589 0.961 . S
C575 H590 0.961 . S
C575 H591 0.961 . S
C576 C577 1.370 . S
C576 C578 1.363 . S
C576 H592 0.931 . S
C577 C576 1.370 . S
C577 C581 1.408 . S
C578 C576 1.363 . S
C578 C579 1.370 . S
C578 C582 1.524 . S
C579 C571 1.503 . S
C579 C578 1.370 . S
C579 C580 1.403 . S
C580 C579 1.403 . S
C580 C581 1.404 . S
C580 C583 1.539 . S
C581 C577 1.408 . S
C581 C580 1.404 . S
C581 H593 0.930 . S
C582 C578 1.524 . S
C582 H594 0.956 . S
C582 H595 0.961 . S
C582 H596 0.961 . S
C583 C580 1.539 . S
C583 H597 0.958 . S
C583 H598 0.961 . S
C583 H599 0.960 . S
H584 C568 0.931 . S
H585 C573 0.929 . S
H586 C574 0.960 . S
H587 C574 0.962 . S
H588 C574 0.960 . S
H589 C575 0.961 . S
H590 C575 0.961 . S
H591 C575 0.961 . S
H592 C576 0.931 . S
H593 C581 0.930 . S
H594 C582 0.956 . S
H595 C582 0.961 . S
H596 C582 0.961 . S
H597 C583 0.958 . S
H598 C583 0.961 . S
H599 C583 0.960 . S
C600 C601 1.391 . S
C600 C602 1.394 . S
C600 H616 0.931 . S
C601 C600 1.391 . S
C601 C605 1.376 . S
C602 C600 1.394 . S
C602 C603 1.369 . S
C602 C606 1.531 . S
C603 C602 1.369 . S
C603 C604 1.410 . S
C603 C611 1.503 . S
C604 C603 1.410 . S
C604 C605 1.392 . S
C604 C607 1.511 . S
C605 C601 1.376 . S
C605 C604 1.392 . S
C605 H617 0.929 . S
C606 C602 1.531 . S
C606 H618 0.960 . S
C606 H619 0.962 . S
C606 H620 0.960 . S
C607 C604 1.511 . S
C607 H621 0.961 . S
C607 H622 0.961 . S
C607 H623 0.961 . S
C608 C609 1.370 . S
C608 C610 1.363 . S
C608 H624 0.931 . S
C609 C608 1.370 . S
C609 C613 1.408 . S
C610 C608 1.363 . S
C610 C611 1.370 . S
C610 C614 1.524 . S
C611 C603 1.503 . S
C611 C610 1.370 . S
C611 C612 1.403 . S
C612 C611 1.403 . S
C612 C613 1.404 . S
C612 C615 1.539 . S
C613 C609 1.408 . S
C613 C612 1.404 . S
C613 H625 0.930 . S
C614 C610 1.524 . S
C614 H626 0.956 . S
C614 H627 0.961 . S
C614 H628 0.961 . S
C615 C612 1.539 . S
C615 H629 0.958 . S
C615 H630 0.961 . S
C615 H631 0.960 . S
H616 C600 0.931 . S
H617 C605 0.929 . S
H618 C606 0.960 . S
H619 C606 0.962 . S
H620 C606 0.960 . S
H621 C607 0.961 . S
H622 C607 0.961 . S
H623 C607 0.961 . S
H624 C608 0.931 . S
H625 C613 0.930 . S
H626 C614 0.956 . S
H627 C614 0.961 . S
H628 C614 0.961 . S
H629 C615 0.958 . S
H630 C615 0.961 . S
H631 C615 0.960 . S
C632 C633 1.391 . S
C632 C634 1.394 . S
C632 H648 0.931 . S
C633 C632 1.391 . S
C633 C637 1.376 . S
C634 C632 1.394 . S
C634 C635 1.369 . S
C634 C638 1.531 . S
C635 C634 1.369 . S
C635 C636 1.410 . S
C635 C643 1.503 . S
C636 C635 1.410 . S
C636 C637 1.392 . S
C636 C639 1.511 . S
C637 C633 1.376 . S
C637 C636 1.392 . S
C637 H649 0.929 . S
C638 C634 1.531 . S
C638 H650 0.960 . S
C638 H651 0.962 . S
C638 H652 0.960 . S
C639 C636 1.511 . S
C639 H653 0.961 . S
C639 H654 0.961 . S
C639 H655 0.961 . S
C640 C641 1.370 . S
C640 C642 1.363 . S
C640 H656 0.931 . S
C641 C640 1.370 . S
C641 C645 1.408 . S
C642 C640 1.363 . S
C642 C643 1.370 . S
C642 C646 1.524 . S
C643 C635 1.503 . S
C643 C642 1.370 . S
C643 C644 1.403 . S
C644 C643 1.403 . S
C644 C645 1.404 . S
C644 C647 1.539 . S
C645 C641 1.408 . S
C645 C644 1.404 . S
C645 H657 0.930 . S
C646 C642 1.524 . S
C646 H658 0.956 . S
C646 H659 0.961 . S
C646 H660 0.961 . S
C647 C644 1.539 . S
C647 H661 0.958 . S
C647 H662 0.961 . S
C647 H663 0.960 . S
H648 C632 0.931 . S
H649 C637 0.929 . S
H650 C638 0.960 . S
H651 C638 0.962 . S
H652 C638 0.960 . S
H653 C639 0.961 . S
H654 C639 0.961 . S
H655 C639 0.961 . S
H656 C640 0.931 . S
H657 C645 0.930 . S
H658 C646 0.956 . S
H659 C646 0.961 . S
H660 C646 0.961 . S
H661 C647 0.958 . S
H662 C647 0.961 . S
H663 C647 0.960 . S
C664 C665 1.391 . S
C664 C666 1.394 . S
C664 H680 0.931 . S
C665 C664 1.391 . S
C665 C669 1.376 . S
C666 C664 1.394 . S
C666 C667 1.369 . S
C666 C670 1.531 . S
C667 C666 1.369 . S
C667 C668 1.410 . S
C667 C675 1.503 . S
C668 C667 1.410 . S
C668 C669 1.392 . S
C668 C671 1.511 . S
C669 C665 1.376 . S
C669 C668 1.392 . S
C669 H681 0.929 . S
C670 C666 1.531 . S
C670 H682 0.960 . S
C670 H683 0.962 . S
C670 H684 0.960 . S
C671 C668 1.511 . S
C671 H685 0.961 . S
C671 H686 0.961 . S
C671 H687 0.961 . S
C672 C673 1.370 . S
C672 C674 1.363 . S
C672 H688 0.931 . S
C673 C672 1.370 . S
C673 C677 1.408 . S
C674 C672 1.363 . S
C674 C675 1.370 . S
C674 C678 1.524 . S
C675 C667 1.503 . S
C675 C674 1.370 . S
C675 C676 1.403 . S
C676 C675 1.403 . S
C676 C677 1.404 . S
C676 C679 1.539 . S
C677 C673 1.408 . S
C677 C676 1.404 . S
C677 H689 0.930 . S
C678 C674 1.524 . S
C678 H690 0.956 . S
C678 H691 0.961 . S
C678 H692 0.961 . S
C679 C676 1.539 . S
C679 H693 0.958 . S
C679 H694 0.961 . S
C679 H695 0.960 . S
H680 C664 0.931 . S
H681 C669 0.929 . S
H682 C670 0.960 . S
H683 C670 0.962 . S
H684 C670 0.960 . S
H685 C671 0.961 . S
H686 C671 0.961 . S
H687 C671 0.961 . S
H688 C672 0.931 . S
H689 C677 0.930 . S
H690 C678 0.956 . S
H691 C678 0.961 . S
H692 C678 0.961 . S
H693 C679 0.958 . S
H694 C679 0.961 . S
H695 C679 0.960 . S
C696 C697 1.391 . S
C696 C698 1.394 . S
C696 H712 0.931 . S
C697 C696 1.391 . S
C697 C701 1.376 . S
C698 C696 1.394 . S
C698 C699 1.369 . S
C698 C702 1.531 . S
C699 C698 1.369 . S
C699 C700 1.410 . S
C699 C707 1.503 . S
C700 C699 1.410 . S
C700 C701 1.392 . S
C700 C703 1.511 . S
C701 C697 1.376 . S
C701 C700 1.392 . S
C701 H713 0.929 . S
C702 C698 1.531 . S
C702 H714 0.960 . S
C702 H715 0.962 . S
C702 H716 0.960 . S
C703 C700 1.511 . S
C703 H717 0.961 . S
C703 H718 0.961 . S
C703 H719 0.961 . S
C704 C705 1.370 . S
C704 C706 1.363 . S
C704 H720 0.931 . S
C705 C704 1.370 . S
C705 C709 1.408 . S
C706 C704 1.363 . S
C706 C707 1.370 . S
C706 C710 1.524 . S
C707 C699 1.503 . S
C707 C706 1.370 . S
C707 C708 1.403 . S
C708 C707 1.403 . S
C708 C709 1.404 . S
C708 C711 1.539 . S
C709 C705 1.408 . S
C709 C708 1.404 . S
C709 H721 0.930 . S
C710 C706 1.524 . S
C710 H722 0.956 . S
C710 H723 0.961 . S
C710 H724 0.961 . S
C711 C708 1.539 . S
C711 H725 0.958 . S
C711 H726 0.961 . S
C711 H727 0.960 . S
H712 C696 0.931 . S
H713 C701 0.929 . S
H714 C702 0.960 . S
H715 C702 0.962 . S
H716 C702 0.960 . S
H717 C703 0.961 . S
H718 C703 0.961 . S
H719 C703 0.961 . S
H720 C704 0.931 . S
H721 C709 0.930 . S
H722 C710 0.956 . S
H723 C710 0.961 . S
H724 C710 0.961 . S
H725 C711 0.958 . S
H726 C711 0.961 . S
H727 C711 0.960 . S
C728 C729 1.391 . S
C728 C730 1.394 . S
C728 H744 0.931 . S
C729 C728 1.391 . S
C729 C733 1.376 . S
C730 C728 1.394 . S
C730 C731 1.369 . S
C730 C734 1.531 . S
C731 C730 1.369 . S
C731 C732 1.410 . S
C731 C739 1.503 . S
C732 C731 1.410 . S
C732 C733 1.392 . S
C732 C735 1.511 . S
C733 C729 1.376 . S
C733 C732 1.392 . S
C733 H745 0.929 . S
C734 C730 1.531 . S
C734 H746 0.960 . S
C734 H747 0.962 . S
C734 H748 0.960 . S
C735 C732 1.511 . S
C735 H749 0.961 . S
C735 H750 0.961 . S
C735 H751 0.961 . S
C736 C737 1.370 . S
C736 C738 1.363 . S
C736 H752 0.931 . S
C737 C736 1.370 . S
C737 C741 1.408 . S
C738 C736 1.363 . S
C738 C739 1.370 . S
C738 C742 1.524 . S
C739 C731 1.503 . S
C739 C738 1.370 . S
C739 C740 1.403 . S
C740 C739 1.403 . S
C740 C741 1.404 . S
C740 C743 1.539 . S
C741 C737 1.408 . S
C741 C740 1.404 . S
C741 H753 0.930 . S
C742 C738 1.524 . S
C742 H754 0.956 . S
C742 H755 0.961 . S
C742 H756 0.961 . S
C743 C740 1.539 . S
C743 H757 0.958 . S
C743 H758 0.961 . S
C743 H759 0.960 . S
H744 C728 0.931 . S
H745 C733 0.929 . S
H746 C734 0.960 . S
H747 C734 0.962 . S
H748 C734 0.960 . S
H749 C735 0.961 . S
H750 C735 0.961 . S
H751 C735 0.961 . S
H752 C736 0.931 . S
H753 C741 0.930 . S
H754 C742 0.956 . S
H755 C742 0.961 . S
H756 C742 0.961 . S
H757 C743 0.958 . S
H758 C743 0.961 . S
H759 C743 0.960 . S
C760 C761 1.391 . S
C760 C762 1.394 . S
C760 H776 0.931 . S
C761 C760 1.391 . S
C761 C765 1.376 . S
C762 C760 1.394 . S
C762 C763 1.369 . S
C762 C766 1.531 . S
C763 C762 1.369 . S
C763 C764 1.410 . S
C763 C771 1.503 . S
C764 C763 1.410 . S
C764 C765 1.392 . S
C764 C767 1.511 . S
C765 C761 1.376 . S
C765 C764 1.392 . S
C765 H777 0.929 . S
C766 C762 1.531 . S
C766 H778 0.960 . S
C766 H779 0.962 . S
C766 H780 0.960 . S
C767 C764 1.511 . S
C767 H781 0.961 . S
C767 H782 0.961 . S
C767 H783 0.961 . S
C768 C769 1.370 . S
C768 C770 1.363 . S
C768 H784 0.931 . S
C769 C768 1.370 . S
C769 C773 1.408 . S
C770 C768 1.363 . S
C770 C771 1.370 . S
C770 C774 1.524 . S
C771 C763 1.503 . S
C771 C770 1.370 . S
C771 C772 1.403 . S
C772 C771 1.403 . S
C772 C773 1.404 . S
C772 C775 1.539 . S
C773 C769 1.408 . S
C773 C772 1.404 . S
C773 H785 0.930 . S
C774 C770 1.524 . S
C774 H786 0.956 . S
C774 H787 0.961 . S
C774 H788 0.961 . S
C775 C772 1.539 . S
C775 H789 0.958 . S
C775 H790 0.961 . S
C775 H791 0.960 . S
H776 C760 0.931 . S
H777 C765 0.929 . S
H778 C766 0.960 . S
H779 C766 0.962 . S
H780 C766 0.960 . S
H781 C767 0.961 . S
H782 C767 0.961 . S
H783 C767 0.961 . S
H784 C768 0.931 . S
H785 C773 0.930 . S
H786 C774 0.956 . S
H787 C774 0.961 . S
H788 C774 0.961 . S
H789 C775 0.958 . S
H790 C775 0.961 . S
H791 C775 0.960 . S
C792 C793 1.391 . S
C792 C794 1.394 . S
C792 H808 0.931 . S
C793 C792 1.391 . S
C793 C797 1.376 . S
C794 C792 1.394 . S
C794 C795 1.369 . S
C794 C798 1.531 . S
C795 C794 1.369 . S
C795 C796 1.410 . S
C795 C803 1.503 . S
C796 C795 1.410 . S
C796 C797 1.392 . S
C796 C799 1.511 . S
C797 C793 1.376 . S
C797 C796 1.392 . S
C797 H809 0.929 . S
C798 C794 1.531 . S
C798 H810 0.960 . S
C798 H811 0.962 . S
C798 H812 0.960 . S
C799 C796 1.511 . S
C799 H813 0.961 . S
C799 H814 0.961 . S
C799 H815 0.961 . S
C800 C801 1.370 . S
C800 C802 1.363 . S
C800 H816 0.931 . S
C801 C800 1.370 . S
C801 C805 1.408 . S
C802 C800 1.363 . S
C802 C803 1.370 . S
C802 C806 1.524 . S
C803 C795 1.503 . S
C803 C802 1.370 . S
C803 C804 1.403 . S
C804 C803 1.403 . S
C804 C805 1.404 . S
C804 C807 1.539 . S
C805 C801 1.408 . S
C805 C804 1.404 . S
C805 H817 0.930 . S
C806 C802 1.524 . S
C806 H818 0.956 . S
C806 H819 0.961 . S
C806 H820 0.961 . S
C807 C804 1.539 . S
C807 H821 0.958 . S
C807 H822 0.961 . S
C807 H823 0.960 . S
H808 C792 0.931 . S
H809 C797 0.929 . S
H810 C798 0.960 . S
H811 C798 0.962 . S
H812 C798 0.960 . S
H813 C799 0.961 . S
H814 C799 0.961 . S
H815 C799 0.961 . S
H816 C800 0.931 . S
H817 C805 0.930 . S
H818 C806 0.956 . S
H819 C806 0.961 . S
H820 C806 0.961 . S
H821 C807 0.958 . S
H822 C807 0.961 . S
H823 C807 0.960 . S
C824 C825 1.391 . S
C824 C826 1.394 . S
C824 H840 0.931 . S
C825 C824 1.391 . S
C825 C829 1.376 . S
C826 C824 1.394 . S
C826 C827 1.369 . S
C826 C830 1.531 . S
C827 C826 1.369 . S
C827 C828 1.410 . S
C827 C835 1.503 . S
C828 C827 1.410 . S
C828 C829 1.392 . S
C828 C831 1.511 . S
C829 C825 1.376 . S
C829 C828 1.392 . S
C829 H841 0.929 . S
C830 C826 1.531 . S
C830 H842 0.960 . S
C830 H843 0.962 . S
C830 H844 0.960 . S
C831 C828 1.511 . S
C831 H845 0.961 . S
C831 H846 0.961 . S
C831 H847 0.961 . S
C832 C833 1.370 . S
C832 C834 1.363 . S
C832 H848 0.931 . S
C833 C832 1.370 . S
C833 C837 1.408 . S
C834 C832 1.363 . S
C834 C835 1.370 . S
C834 C838 1.524 . S
C835 C827 1.503 . S
C835 C834 1.370 . S
C835 C836 1.403 . S
C836 C835 1.403 . S
C836 C837 1.404 . S
C836 C839 1.539 . S
C837 C833 1.408 . S
C837 C836 1.404 . S
C837 H849 0.930 . S
C838 C834 1.524 . S
C838 H850 0.956 . S
C838 H851 0.961 . S
C838 H852 0.961 . S
C839 C836 1.539 . S
C839 H853 0.958 . S
C839 H854 0.961 . S
C839 H855 0.960 . S
H840 C824 0.931 . S
H841 C829 0.929 . S
H842 C830 0.960 . S
H843 C830 0.962 . S
H844 C830 0.960 . S
H845 C831 0.961 . S
H846 C831 0.961 . S
H847 C831 0.961 . S
H848 C832 0.931 . S
H849 C837 0.930 . S
H850 C838 0.956 . S
H851 C838 0.961 . S
H852 C838 0.961 . S
H853 C839 0.958 . S
H854 C839 0.961 . S
H855 C839 0.960 . S
C856 C857 1.391 . S
C856 C858 1.394 . S
C856 H872 0.931 . S
C857 C856 1.391 . S
C857 C861 1.376 . S
C858 C856 1.394 . S
C858 C859 1.369 . S
C858 C862 1.531 . S
C859 C858 1.369 . S
C859 C860 1.410 . S
C859 C867 1.503 . S
C860 C859 1.410 . S
C860 C861 1.392 . S
C860 C863 1.511 . S
C861 C857 1.376 . S
C861 C860 1.392 . S
C861 H873 0.929 . S
C862 C858 1.531 . S
C862 H874 0.960 . S
C862 H875 0.962 . S
C862 H876 0.960 . S
C863 C860 1.511 . S
C863 H877 0.961 . S
C863 H878 0.961 . S
C863 H879 0.961 . S
C864 C865 1.370 . S
C864 C866 1.363 . S
C864 H880 0.931 . S
C865 C864 1.370 . S
C865 C869 1.408 . S
C866 C864 1.363 . S
C866 C867 1.370 . S
C866 C870 1.524 . S
C867 C859 1.503 . S
C867 C866 1.370 . S
C867 C868 1.403 . S
C868 C867 1.403 . S
C868 C869 1.404 . S
C868 C871 1.539 . S
C869 C865 1.408 . S
C869 C868 1.404 . S
C869 H881 0.930 . S
C870 C866 1.524 . S
C870 H882 0.956 . S
C870 H883 0.961 . S
C870 H884 0.961 . S
C871 C868 1.539 . S
C871 H885 0.958 . S
C871 H886 0.961 . S
C871 H887 0.960 . S
H872 C856 0.931 . S
H873 C861 0.929 . S
H874 C862 0.960 . S
H875 C862 0.962 . S
H876 C862 0.960 . S
H877 C863 0.961 . S
H878 C863 0.961 . S
H879 C863 0.961 . S
H880 C864 0.931 . S
H881 C869 0.930 . S
H882 C870 0.956 . S
H883 C870 0.961 . S
H884 C870 0.961 . S
H885 C871 0.958 . S
H886 C871 0.961 . S
H887 C871 0.960 . S
C888 C889 1.391 . S
C888 C890 1.394 . S
C888 H904 0.931 . S
C889 C888 1.391 . S
C889 C893 1.376 . S
C890 C888 1.394 . S
C890 C891 1.369 . S
C890 C894 1.531 . S
C891 C890 1.369 . S
C891 C892 1.410 . S
C891 C899 1.503 . S
C892 C891 1.410 . S
C892 C893 1.392 . S
C892 C895 1.511 . S
C893 C889 1.376 . S
C893 C892 1.392 . S
C893 H905 0.929 . S
C894 C890 1.531 . S
C894 H906 0.960 . S
C894 H907 0.962 . S
C894 H908 0.960 . S
C895 C892 1.511 . S
C895 H909 0.961 . S
C895 H910 0.961 . S
C895 H911 0.961 . S
C896 C897 1.370 . S
C896 C898 1.363 . S
C896 H912 0.931 . S
C897 C896 1.370 . S
C897 C901 1.408 . S
C898 C896 1.363 . S
C898 C899 1.370 . S
C898 C902 1.524 . S
C899 C891 1.503 . S
C899 C898 1.370 . S
C899 C900 1.403 . S
C900 C899 1.403 . S
C900 C901 1.404 . S
C900 C903 1.539 . S
C901 C897 1.408 . S
C901 C900 1.404 . S
C901 H913 0.930 . S
C902 C898 1.524 . S
C902 H914 0.956 . S
C902 H915 0.961 . S
C902 H916 0.961 . S
C903 C900 1.539 . S
C903 H917 0.958 . S
C903 H918 0.961 . S
C903 H919 0.960 . S
H904 C888 0.931 . S
H905 C893 0.929 . S
H906 C894 0.960 . S
H907 C894 0.962 . S
H908 C894 0.960 . S
H909 C895 0.961 . S
H910 C895 0.961 . S
H911 C895 0.961 . S
H912 C896 0.931 . S
H913 C901 0.930 . S
H914 C902 0.956 . S
H915 C902 0.961 . S
H916 C902 0.961 . S
H917 C903 0.958 . S
H918 C903 0.961 . S
H919 C903 0.960 . S
C920 C921 1.391 . S
C920 C922 1.394 . S
C920 H936 0.931 . S
C921 C920 1.391 . S
C921 C925 1.376 . S
C922 C920 1.394 . S
C922 C923 1.369 . S
C922 C926 1.531 . S
C923 C922 1.369 . S
C923 C924 1.410 . S
C923 C931 1.503 . S
C924 C923 1.410 . S
C924 C925 1.392 . S
C924 C927 1.511 . S
C925 C921 1.376 . S
C925 C924 1.392 . S
C925 H937 0.929 . S
C926 C922 1.531 . S
C926 H938 0.960 . S
C926 H939 0.962 . S
C926 H940 0.960 . S
C927 C924 1.511 . S
C927 H941 0.961 . S
C927 H942 0.961 . S
C927 H943 0.961 . S
C928 C929 1.370 . S
C928 C930 1.363 . S
C928 H944 0.931 . S
C929 C928 1.370 . S
C929 C933 1.408 . S
C930 C928 1.363 . S
C930 C931 1.370 . S
C930 C934 1.524 . S
C931 C923 1.503 . S
C931 C930 1.370 . S
C931 C932 1.403 . S
C932 C931 1.403 . S
C932 C933 1.404 . S
C932 C935 1.539 . S
C933 C929 1.408 . S
C933 C932 1.404 . S
C933 H945 0.930 . S
C934 C930 1.524 . S
C934 H946 0.956 . S
C934 H947 0.961 . S
C934 H948 0.961 . S
C935 C932 1.539 . S
C935 H949 0.958 . S
C935 H950 0.961 . S
C935 H951 0.960 . S
H936 C920 0.931 . S
H937 C925 0.929 . S
H938 C926 0.960 . S
H939 C926 0.962 . S
H940 C926 0.960 . S
H941 C927 0.961 . S
H942 C927 0.961 . S
H943 C927 0.961 . S
H944 C928 0.931 . S
H945 C933 0.930 . S
H946 C934 0.956 . S
H947 C934 0.961 . S
H948 C934 0.961 . S
H949 C935 0.958 . S
H950 C935 0.961 . S
H951 C935 0.960 . S
C952 C953 1.391 . S
C952 C954 1.394 . S
C952 H968 0.931 . S
C953 C952 1.391 . S
C953 C957 1.376 . S
C954 C952 1.394 . S
C954 C955 1.369 . S
C954 C958 1.531 . S
C955 C954 1.369 . S
C955 C956 1.410 . S
C955 C963 1.503 . S
C956 C955 1.410 . S
C956 C957 1.392 . S
C956 C959 1.511 . S
C957 C953 1.376 . S
C957 C956 1.392 . S
C957 H969 0.929 . S
C958 C954 1.531 . S
C958 H970 0.960 . S
C958 H971 0.962 . S
C958 H972 0.960 . S
C959 C956 1.511 . S
C959 H973 0.961 . S
C959 H974 0.961 . S
C959 H975 0.961 . S
C960 C961 1.370 . S
C960 C962 1.363 . S
C960 H976 0.931 . S
C961 C960 1.370 . S
C961 C965 1.408 . S
C962 C960 1.363 . S
C962 C963 1.370 . S
C962 C966 1.524 . S
C963 C955 1.503 . S
C963 C962 1.370 . S
C963 C964 1.403 . S
C964 C963 1.403 . S
C964 C965 1.404 . S
C964 C967 1.539 . S
C965 C961 1.408 . S
C965 C964 1.404 . S
C965 H977 0.930 . S
C966 C962 1.524 . S
C966 H978 0.956 . S
C966 H979 0.961 . S
C966 H980 0.961 . S
C967 C964 1.539 . S
C967 H981 0.958 . S
C967 H982 0.961 . S
C967 H983 0.960 . S
H968 C952 0.931 . S
H969 C957 0.929 . S
H970 C958 0.960 . S
H971 C958 0.962 . S
H972 C958 0.960 . S
H973 C959 0.961 . S
H974 C959 0.961 . S
H975 C959 0.961 . S
H976 C960 0.931 . S
H977 C965 0.930 . S
H978 C966 0.956 . S
H979 C966 0.961 . S
H980 C966 0.961 . S
H981 C967 0.958 . S
H982 C967 0.961 . S
H983 C967 0.960 . S
C984 C985 1.391 . S
C984 C986 1.394 . S
C984 H1000 0.931 . S
C985 C984 1.391 . S
C985 C989 1.376 . S
C986 C984 1.394 . S
C986 C987 1.369 . S
C986 C990 1.531 . S
C987 C986 1.369 . S
C987 C988 1.410 . S
C987 C995 1.503 . S
C988 C987 1.410 . S
C988 C989 1.392 . S
C988 C991 1.511 . S
C989 C985 1.376 . S
C989 C988 1.392 . S
C989 H1001 0.929 . S
C990 C986 1.531 . S
C990 H1002 0.960 . S
C990 H1003 0.962 . S
C990 H1004 0.960 . S
C991 C988 1.511 . S
C991 H1005 0.961 . S
C991 H1006 0.961 . S
C991 H1007 0.961 . S
C992 C993 1.370 . S
C992 C994 1.363 . S
C992 H1008 0.931 . S
C993 C992 1.370 . S
C993 C997 1.408 . S
C994 C992 1.363 . S
C994 C995 1.370 . S
C994 C998 1.524 . S
C995 C987 1.503 . S
C995 C994 1.370 . S
C995 C996 1.403 . S
C996 C995 1.403 . S
C996 C997 1.404 . S
C996 C999 1.539 . S
C997 C993 1.408 . S
C997 C996 1.404 . S
C997 H1009 0.930 . S
C998 C994 1.524 . S
C998 H1010 0.956 . S
C998 H1011 0.961 . S
C998 H1012 0.961 . S
C999 C996 1.539 . S
C999 H1013 0.958 . S
C999 H1014 0.961 . S
C999 H1015 0.960 . S
H1000 C984 0.931 . S
H1001 C989 0.929 . S
H1002 C990 0.960 . S
H1003 C990 0.962 . S
H1004 C990 0.960 . S
H1005 C991 0.961 . S
H1006 C991 0.961 . S
H1007 C991 0.961 . S
H1008 C992 0.931 . S
H1009 C997 0.930 . S
H1010 C998 0.956 . S
H1011 C998 0.961 . S
H1012 C998 0.961 . S
H1013 C999 0.958 . S
H1014 C999 0.961 . S
H1015 C999 0.960 . S
C249 C5 1.035 . S
C257 C95 1.253 . S
C281 C18 0.961 . S
C289 C144 1.111 . S
C321 C170 2.304 . S
C313 C30 2.324 . S
C345 C41 2.054 . S
C353 C218 2.006 . S
C385 C130 2.359 . S
C377 C7 2.175 . S
C417 C98 1.000 . S
C409 C16 0.835 . S
C449 C219 1.951 . S
C441 C29 1.908 . S
C481 C187 1.201 . S
C473 C38 1.024 . S
C505 C8 1.563 . S
C513 C215 1.622 . S
C545 C147 2.552 . S
C537 C27 2.378 . S
C569 C40 2.400 . S
C577 C99 2.445 . S
C601 C19 0.775 . S
C609 C184 0.766 . S
C641 C104 1.148 . S
C633 C51 1.079 . S
C665 C62 1.402 . S
C673 C135 1.355 . S
C697 C74 2.402 . S
C705 C179 2.405 . S
C729 C84 2.166 . S
C737 C227 2.215 . S
C761 C49 2.006 . S
C769 C139 2.568 1_556 S
C801 C107 1.011 . S
C793 C63 1.008 . S
C833 C210 1.804 . S
C825 C71 1.633 . S
C865 C178 1.338 . S
C857 C85 1.338 . S
C889 C52 1.513 . S
C897 C224 1.635 . S
C929 C138 2.624 . S
C921 C73 2.668 . S
C961 C90 1.956 . S
C953 C82 1.691 . S
C985 C60 0.898 . S
C993 C175 0.852 . S
