# Generated by pormake.
# Topology soc, (4,6)-cn, num edge types: 1
# Building blocks:
#     Node 0, Type 0, BuildingBlock: ESEHIV_clean_sbu_0, # of connection points: 4
#     Node 1, Type 0, BuildingBlock: ESEHIV_clean_sbu_0, # of connection points: 4
#     Node 2, Type 0, BuildingBlock: ESEHIV_clean_sbu_0, # of connection points: 4
#     Node 3, Type 0, BuildingBlock: ESEHIV_clean_sbu_0, # of connection points: 4
#     Node 4, Type 0, BuildingBlock: ESEHIV_clean_sbu_0, # of connection points: 4
#     Node 5, Type 0, BuildingBlock: ESEHIV_clean_sbu_0, # of connection points: 4
#     Node 6, Type 0, BuildingBlock: ESEHIV_clean_sbu_0, # of connection points: 4
#     Node 7, Type 0, BuildingBlock: ESEHIV_clean_sbu_0, # of connection points: 4
#     Node 8, Type 0, BuildingBlock: ESEHIV_clean_sbu_0, # of connection points: 4
#     Node 9, Type 0, BuildingBlock: ESEHIV_clean_sbu_0, # of connection points: 4
#     Node 10, Type 0, BuildingBlock: ESEHIV_clean_sbu_0, # of connection points: 4
#     Node 11, Type 0, BuildingBlock: ESEHIV_clean_sbu_0, # of connection points: 4
#     Node 12, Type 1, BuildingBlock: KUMBOL_clean_sbu_0, # of connection points: 6
#     Node 13, Type 1, BuildingBlock: KUMBOL_clean_sbu_0, # of connection points: 6
#     Node 14, Type 1, BuildingBlock: KUMBOL_clean_sbu_0, # of connection points: 6
#     Node 15, Type 1, BuildingBlock: KUMBOL_clean_sbu_0, # of connection points: 6
#     Node 16, Type 1, BuildingBlock: KUMBOL_clean_sbu_0, # of connection points: 6
#     Node 17, Type 1, BuildingBlock: KUMBOL_clean_sbu_0, # of connection points: 6
#     Node 18, Type 1, BuildingBlock: KUMBOL_clean_sbu_0, # of connection points: 6
#     Node 19, Type 1, BuildingBlock: KUMBOL_clean_sbu_0, # of connection points: 6
#     Edge 20, Type (0, 1), BuildingBlock: MIFKUJ_clean_linker_0, # of connection points: 2
#     Edge 21, Type (0, 1), BuildingBlock: MIFKUJ_clean_linker_0, # of connection points: 2
#     Edge 22, Type (0, 1), BuildingBlock: MIFKUJ_clean_linker_0, # of connection points: 2
#     Edge 23, Type (0, 1), BuildingBlock: MIFKUJ_clean_linker_0, # of connection points: 2
#     Edge 24, Type (0, 1), BuildingBlock: MIFKUJ_clean_linker_0, # of connection points: 2
#     Edge 25, Type (0, 1), BuildingBlock: MIFKUJ_clean_linker_0, # of connection points: 2
#     Edge 26, Type (0, 1), BuildingBlock: MIFKUJ_clean_linker_0, # of connection points: 2
#     Edge 27, Type (0, 1), BuildingBlock: MIFKUJ_clean_linker_0, # of connection points: 2
#     Edge 28, Type (0, 1), BuildingBlock: MIFKUJ_clean_linker_0, # of connection points: 2
#     Edge 29, Type (0, 1), BuildingBlock: MIFKUJ_clean_linker_0, # of connection points: 2
#     Edge 30, Type (0, 1), BuildingBlock: MIFKUJ_clean_linker_0, # of connection points: 2
#     Edge 31, Type (0, 1), BuildingBlock: MIFKUJ_clean_linker_0, # of connection points: 2
#     Edge 32, Type (0, 1), BuildingBlock: MIFKUJ_clean_linker_0, # of connection points: 2
#     Edge 33, Type (0, 1), BuildingBlock: MIFKUJ_clean_linker_0, # of connection points: 2
#     Edge 34, Type (0, 1), BuildingBlock: MIFKUJ_clean_linker_0, # of connection points: 2
#     Edge 35, Type (0, 1), BuildingBlock: MIFKUJ_clean_linker_0, # of connection points: 2
#     Edge 36, Type (0, 1), BuildingBlock: MIFKUJ_clean_linker_0, # of connection points: 2
#     Edge 37, Type (0, 1), BuildingBlock: MIFKUJ_clean_linker_0, # of connection points: 2
#     Edge 38, Type (0, 1), BuildingBlock: MIFKUJ_clean_linker_0, # of connection points: 2
#     Edge 39, Type (0, 1), BuildingBlock: MIFKUJ_clean_linker_0, # of connection points: 2
#     Edge 40, Type (0, 1), BuildingBlock: MIFKUJ_clean_linker_0, # of connection points: 2
#     Edge 41, Type (0, 1), BuildingBlock: MIFKUJ_clean_linker_0, # of connection points: 2
#     Edge 42, Type (0, 1), BuildingBlock: MIFKUJ_clean_linker_0, # of connection points: 2
#     Edge 43, Type (0, 1), BuildingBlock: MIFKUJ_clean_linker_0, # of connection points: 2
#     Edge 44, Type (0, 1), BuildingBlock: MIFKUJ_clean_linker_0, # of connection points: 2
#     Edge 45, Type (0, 1), BuildingBlock: MIFKUJ_clean_linker_0, # of connection points: 2
#     Edge 46, Type (0, 1), BuildingBlock: MIFKUJ_clean_linker_0, # of connection points: 2
#     Edge 47, Type (0, 1), BuildingBlock: MIFKUJ_clean_linker_0, # of connection points: 2
#     Edge 48, Type (0, 1), BuildingBlock: MIFKUJ_clean_linker_0, # of connection points: 2
#     Edge 49, Type (0, 1), BuildingBlock: MIFKUJ_clean_linker_0, # of connection points: 2
#     Edge 50, Type (0, 1), BuildingBlock: MIFKUJ_clean_linker_0, # of connection points: 2
#     Edge 51, Type (0, 1), BuildingBlock: MIFKUJ_clean_linker_0, # of connection points: 2
#     Edge 52, Type (0, 1), BuildingBlock: MIFKUJ_clean_linker_0, # of connection points: 2
#     Edge 53, Type (0, 1), BuildingBlock: MIFKUJ_clean_linker_0, # of connection points: 2
#     Edge 54, Type (0, 1), BuildingBlock: MIFKUJ_clean_linker_0, # of connection points: 2
#     Edge 55, Type (0, 1), BuildingBlock: MIFKUJ_clean_linker_0, # of connection points: 2
#     Edge 56, Type (0, 1), BuildingBlock: MIFKUJ_clean_linker_0, # of connection points: 2
#     Edge 57, Type (0, 1), BuildingBlock: MIFKUJ_clean_linker_0, # of connection points: 2
#     Edge 58, Type (0, 1), BuildingBlock: MIFKUJ_clean_linker_0, # of connection points: 2
#     Edge 59, Type (0, 1), BuildingBlock: MIFKUJ_clean_linker_0, # of connection points: 2
#     Edge 60, Type (0, 1), BuildingBlock: MIFKUJ_clean_linker_0, # of connection points: 2
#     Edge 61, Type (0, 1), BuildingBlock: MIFKUJ_clean_linker_0, # of connection points: 2
#     Edge 62, Type (0, 1), BuildingBlock: MIFKUJ_clean_linker_0, # of connection points: 2
#     Edge 63, Type (0, 1), BuildingBlock: MIFKUJ_clean_linker_0, # of connection points: 2
#     Edge 64, Type (0, 1), BuildingBlock: MIFKUJ_clean_linker_0, # of connection points: 2
#     Edge 65, Type (0, 1), BuildingBlock: MIFKUJ_clean_linker_0, # of connection points: 2
#     Edge 66, Type (0, 1), BuildingBlock: MIFKUJ_clean_linker_0, # of connection points: 2
#     Edge 67, Type (0, 1), BuildingBlock: MIFKUJ_clean_linker_0, # of connection points: 2
# Relax obj value: 0.053
# Max RMSD: 0.163
# Mean RMSD: 0.130
data_MOF--net-soc--node1-ESEHIV_clean_sbu_0--node2-KUMBOL_clean_sbu_0--edge1-MIFKUJ_clean_linker_0
_symmetry_space_group_name_H-M    P1
_symmetry_Int_Tables_number       1
_symmetry_cell_setting            triclinic
loop_
_symmetry_equiv_pos_as_xyz
'x, y, z'
_cell_length_a     64.912107
_cell_length_b     62.247628
_cell_length_c     53.350406
_cell_angle_alpha  85.450768
_cell_angle_beta   83.727783
_cell_angle_gamma 76.43195
loop_
_atom_site_label
_atom_site_type_symbol
_atom_site_fract_x
_atom_site_fract_y
_atom_site_fract_z
_atom_type_partial_charge
Cu0 Cu 0.05345 0.02237 0.31243 0.0
N1 N 0.06465 0.03872 0.33316 0.0
N2 N 0.08212 0.06283 0.34462 0.0
C3 C 0.07793 0.05212 0.32537 0.0
C4 C 0.07103 0.0558 0.36531 0.0
C5 C 0.0603 0.04094 0.35818 0.0
O6 O 0.07788 1.00502 0.29188 0.0
C7 C 1.01499 0.05244 0.31059 0.0
O8 O 1.01537 0.04672 0.3348 0.0
H9 H 0.08384 0.05446 0.30582 0.0
H10 H 0.04974 0.03266 0.3703 0.0
N11 N 0.04042 1.00203 0.33189 0.0
N12 N 1.01813 0.97955 0.34279 0.0
C13 C 0.02265 0.99623 0.32689 0.0
C14 C 0.04756 0.98866 0.35164 0.0
C15 C 0.03385 0.97484 0.35846 0.0
C16 C 0.07817 0.98571 0.28511 0.0
O17 O 0.0603 0.97898 0.28748 0.0
H18 H 1.01361 1.00391 0.31141 0.0
H19 H 0.06205 0.98853 0.35998 0.0
O20 O 0.03094 0.04365 0.29552 0.0
H21 H 0.07067 0.06102 0.38425 0.0
H22 H 0.03585 0.96191 0.37335 0.0
Cu23 Cu 0.0286 0.04504 0.77024 0.0
N24 N 1.01353 0.03251 0.74967 0.0
N25 N 0.99324 0.01126 0.73773 0.0
C26 C 1.00469 0.01505 0.75599 0.0
C27 C 0.99507 0.02706 0.71926 0.0
C28 C 1.00741 0.04018 0.72675 0.0
O29 O 1.00721 0.06698 0.78966 0.0
C30 C 0.06119 0.00855 0.7745 0.0
O31 O 0.06027 0.01181 0.74999 0.0
H32 H 1.00602 1.0059 0.77407 0.0
H33 H 1.01111 0.05469 0.71649 0.0
N34 N 0.04745 0.05989 0.75096 0.0
N35 N 0.07293 0.0788 0.74261 0.0
C36 C 0.05877 0.07243 0.76036 0.0
C37 C 0.05467 0.05832 0.72637 0.0
C38 C 0.07042 0.06994 0.72118 0.0
C39 C 1.00081 0.08598 0.77852 0.0
O40 O 1.00931 0.08999 0.75566 0.0
H41 H 0.05739 0.07586 0.78013 0.0
H42 H 0.04961 0.04854 0.71339 0.0
O43 O 0.0472 0.021 0.78901 0.0
H44 H 0.98785 0.02927 0.70162 0.0
H45 H 0.07967 0.07132 0.70322 0.0
Cu46 Cu 0.29087 0.05279 0.08143 0.0
N47 N 0.26722 0.04935 0.06665 0.0
N48 N 0.24893 0.03381 0.04313 0.0
C49 C 0.2683 0.03424 0.04966 0.0
C50 C 0.23505 0.04944 0.05648 0.0
C51 C 0.24645 0.05913 0.07092 0.0
O52 O 0.30573 0.0233 0.09388 0.0
C53 C 0.29787 0.08697 0.04812 0.0
O54 O 0.27989 0.09642 0.06069 0.0
H55 H 0.28301 0.023 0.04326 0.0
H56 H 0.24 0.07197 0.08401 0.0
N57 N 0.28269 0.0707 0.10898 0.0
N58 N 0.28238 0.0957 0.13698 0.0
C59 C 0.29198 0.08644 0.1154 0.0
C60 C 0.26678 0.06985 0.12716 0.0
C61 C 0.26652 0.08526 0.14443 0.0
C62 C 0.29417 0.01019 0.10361 0.0
O63 O 0.27337 0.01703 0.10508 0.0
H64 H 0.30573 0.09072 0.10466 0.0
H65 H 0.25618 0.05872 0.12786 0.0
O66 O 0.30683 0.06712 0.05467 0.0
H67 H 0.21794 0.05335 0.05613 0.0
H68 H 0.25538 0.08864 0.16105 0.0
Cu69 Cu 0.06934 0.2805 0.07296 0.0
N70 N 0.09051 0.26263 0.05202 0.0
N71 N 0.11661 0.25406 0.02073 0.0
C72 C 0.10295 0.27046 0.03329 0.0
C73 C 0.11248 0.23513 0.03215 0.0
C74 C 0.0964 0.24047 0.05137 0.0
O75 O 0.08456 0.29772 0.09085 0.0
C76 C 0.0388 0.28288 0.04115 0.0
O77 O 0.04576 0.26153 0.04602 0.0
H78 H 0.10161 0.28795 0.02875 0.0
H79 H 0.08941 0.22897 0.06378 0.0
N80 N 0.05473 0.26414 0.09679 0.0
N81 N 0.02706 0.25602 0.12164 0.0
C82 C 0.03379 0.27049 0.10425 0.0
C83 C 0.06169 0.24502 0.11009 0.0
C84 C 0.04467 0.23994 0.12539 0.0
C85 C 0.08168 0.29977 0.11471 0.0
O86 O 0.06525 0.29385 0.12749 0.0
H87 H 0.02382 0.28576 0.09724 0.0
H88 H 0.07798 0.23551 0.10889 0.0
O89 O 0.04767 0.29621 0.05076 0.0
H90 H 0.12056 0.21855 0.02717 0.0
H91 H 0.04528 0.22542 0.1381 0.0
Cu92 Cu 0.80782 0.01779 0.9871 0.0
N93 N 0.78589 0.04303 0.99172 0.0
N94 N 0.76849 0.07835 0.98792 0.0
C95 C 0.78654 0.06337 0.98161 0.0
C96 C 0.75563 0.06709 1.00212 0.0
C97 C 0.76653 0.04518 1.00459 0.0
O98 O 0.8338 0.02668 0.97274 0.0
C99 C 0.813 0.98151 0.95679 0.0
O100 O 0.8319 0.97651 0.96526 0.0
H101 H 0.79987 0.06714 0.96949 0.0
H102 H 0.76073 0.03176 0.01488 0.0
N103 N 0.81348 1.00062 0.01698 0.0
N104 N 0.81135 0.97729 0.05071 0.0
C105 C 0.8008 0.98975 0.03213 0.0
C106 C 0.83259 0.9948 0.02623 0.0
C107 C 0.83132 0.98056 0.04706 0.0
C108 C 0.84349 0.04159 0.97687 0.0
O109 O 0.8608 0.04275 0.96206 0.0
H110 H 0.78449 0.9903 0.02897 0.0
H111 H 0.8466 1.00031 0.01806 0.0
O112 O 0.79989 0.99916 0.96368 0.0
H113 H 0.73968 0.07421 1.0102 0.0
H114 H 0.84417 0.9731 0.05853 0.0
Cu115 Cu 1.01969 0.768 0.02046 0.0
N116 N 1.00738 0.7518 1.00065 0.0
N117 N 0.9861 0.74466 0.97361 0.0
C118 C 0.98836 0.75838 0.99104 0.0
C119 C 1.00433 0.72885 0.97234 0.0
C120 C 1.01741 0.73332 0.98896 0.0
O121 O 0.99613 0.78487 0.04376 0.0
C122 C 0.05179 0.79376 0.99789 0.0
O123 O 0.05018 0.80376 0.01902 0.0
H124 H 0.97704 0.77367 0.99549 0.0
H125 H 0.03358 0.72441 0.99134 0.0
N126 N 0.03818 0.74879 0.04114 0.0
N127 N 0.06433 0.73752 0.06647 0.0
C128 C 0.05292 0.75474 0.05323 0.0
C129 C 0.0402 0.727 0.04704 0.0
C130 C 0.05631 0.72 0.06277 0.0
C131 C 0.98691 0.77269 0.05971 0.0
O132 O 0.99345 0.75111 0.05897 0.0
H133 H 0.05506 0.77147 0.05259 0.0
H134 H 0.03067 0.71691 0.04037 0.0
O135 O 0.03909 0.7813 0.9954 0.0
H136 H 1.00821 0.71541 0.95969 0.0
H137 H 0.06194 0.70328 0.07045 0.0
Cu138 Cu 0.52645 0.54179 0.83673 0.0
N139 N 0.53681 0.5602 0.85581 0.0
N140 N 0.55583 0.58338 0.86595 0.0
C141 C 0.55237 0.57088 0.84795 0.0
C142 C 0.54176 0.58055 0.88582 0.0
C143 C 0.52997 0.56637 0.87945 0.0
O144 O 0.55018 0.52417 0.81579 0.0
C145 C 0.48487 0.56606 0.83222 0.0
O146 O 0.48283 0.55778 0.85553 0.0
H147 H 0.56107 0.56934 0.82943 0.0
H148 H 0.51708 0.56122 0.89108 0.0
N149 N 0.51555 0.52047 0.85701 0.0
N150 N 0.49877 0.49293 0.86655 0.0
C151 C 0.50413 0.50763 0.84849 0.0
C152 C 0.51789 0.51356 0.88128 0.0
C153 C 0.50745 0.49662 0.88727 0.0
C154 C 0.56653 0.51502 0.82732 0.0
O155 O 0.56682 0.51945 0.85092 0.0
H156 H 0.50024 0.50892 0.82914 0.0
H157 H 0.52675 0.52012 0.89364 0.0
O158 O 0.50298 0.56097 0.81937 0.0
H159 H 0.53976 0.58857 0.90348 0.0
H160 H 0.50632 0.48785 0.90551 0.0
Cu161 Cu 0.55295 0.52686 0.30722 0.0
N162 N 0.53628 0.50889 0.32508 0.0
N163 N 0.51231 0.48793 0.33226 0.0
C164 C 0.5209 0.50166 0.31559 0.0
C165 C 0.52284 0.48643 0.35304 0.0
C166 C 0.53763 0.49935 0.34854 0.0
O167 O 0.53438 0.55025 0.2876 0.0
C168 C 0.59157 0.49606 0.30228 0.0
O169 O 0.58974 0.49942 0.32649 0.0
H170 H 0.51654 0.50597 0.29652 0.0
H171 H 0.5488 0.50136 0.36131 0.0
N172 N 0.56475 0.54227 0.32834 0.0
N173 N 0.58612 0.56294 0.33863 0.0
C174 C 0.58118 0.55159 0.32049 0.0
C175 C 0.55881 0.548 0.3523 0.0
C176 C 0.57201 0.56079 0.35873 0.0
C177 C 0.51707 0.56006 0.29973 0.0
O178 O 0.51259 0.5531 0.32313 0.0
H179 H 0.58891 0.55056 0.30146 0.0
H180 H 0.5456 0.54359 0.36406 0.0
O181 O 0.57689 0.50672 0.28884 0.0
H182 H 0.5201 0.4767 0.37029 0.0
H183 H 0.57122 0.56798 0.37672 0.0
Cu184 Cu 0.78439 0.55884 0.57582 0.0
N185 N 0.76736 0.5786 0.55445 0.0
N186 N 0.7602 0.60528 0.52399 0.0
C187 C 0.77375 0.59549 0.54116 0.0
C188 C 0.74439 0.59424 0.52701 0.0
C189 C 0.74888 0.57774 0.54586 0.0
O190 O 0.79913 0.57677 0.59285 0.0
C191 C 0.80537 0.53599 0.53193 0.0
O192 O 0.80187 0.55551 0.51983 0.0
H193 H 0.789 0.59921 0.54275 0.0
H194 H 0.73991 0.56534 0.55195 0.0
N195 N 0.76803 0.54492 0.59961 0.0
N196 N 0.7601 0.5173 0.62528 0.0
C197 C 0.77412 0.52351 0.60727 0.0
C198 C 0.74942 0.55276 0.61316 0.0
C199 C 0.74449 0.53569 0.62914 0.0
C200 C 0.80239 0.57391 0.61615 0.0
O201 O 0.79913 0.55586 0.62883 0.0
H202 H 0.78903 0.51292 0.60027 0.0
H203 H 0.74029 0.56967 0.61175 0.0
O204 O 0.80164 0.53473 0.5559 0.0
H205 H 0.73096 0.59726 0.51583 0.0
H206 H 0.73056 0.53678 0.64254 0.0
Cu207 Cu 0.55216 0.79909 0.57502 0.0
N208 N 0.5759 0.78139 0.55621 0.0
N209 N 0.60423 0.77429 0.52686 0.0
C210 C 0.58522 0.78802 0.53381 0.0
C211 C 0.60685 0.75833 0.54574 0.0
C212 C 0.58955 0.76277 0.56371 0.0
O213 O 0.56537 0.81628 0.59516 0.0
C214 C 0.52844 0.80244 0.53639 0.0
O215 O 0.53413 0.78108 0.54217 0.0
H216 H 0.57876 0.80341 0.52356 0.0
H217 H 0.58765 0.75367 0.58161 0.0
N218 N 0.53353 0.78442 0.59686 0.0
N219 N 0.50488 0.77942 0.62299 0.0
C220 C 0.5134 0.79363 0.60666 0.0
C221 C 0.5376 0.76356 0.60711 0.0
C222 C 0.52019 0.76053 0.62325 0.0
C223 C 0.57251 0.80657 0.6155 0.0
O224 O 0.56858 0.78717 0.62275 0.0
H225 H 0.50539 0.81065 0.60247 0.0
H226 H 0.55241 0.75148 0.60358 0.0
O227 O 0.53469 0.81559 0.54941 0.0
H228 H 0.62057 0.74463 0.54687 0.0
H229 H 0.51891 0.7455 0.63438 0.0
Cu230 Cu 0.29988 0.51023 0.50254 0.0
N231 N 0.31553 0.52743 0.48124 0.0
N232 N 0.32128 0.55643 0.456 0.0
C233 C 0.30671 0.54721 0.47019 0.0
C234 C 0.34007 0.54181 0.45826 0.0
C235 C 0.33651 0.52401 0.47395 0.0
O236 O 0.28566 0.5294 0.52924 0.0
C237 C 0.29182 0.48919 0.46326 0.0
O238 O 0.3124 0.48783 0.45915 0.0
H239 H 0.28981 0.55457 0.4724 0.0
H240 H 0.34841 0.50976 0.47973 0.0
N241 N 0.316 0.48476 0.51853 0.0
N242 N 0.32243 0.45568 0.54659 0.0
C243 C 0.30899 0.47499 0.54021 0.0
C244 C 0.33457 0.47117 0.51075 0.0
C245 C 0.33863 0.45331 0.52805 0.0
C246 C 0.29895 0.53372 0.54291 0.0
O247 O 0.31928 0.52483 0.53765 0.0
H248 H 0.29405 0.4819 0.55084 0.0
H249 H 0.3441 0.47354 0.49329 0.0
O250 O 0.28165 0.49966 0.48208 0.0
H251 H 0.35538 0.54399 0.44961 0.0
H252 H 0.35207 0.43926 0.52647 0.0
Cu253 Cu 0.52531 0.27789 0.50681 0.0
N254 N 0.54759 0.26232 0.48514 0.0
N255 N 0.57833 0.25381 0.46049 0.0
C256 C 0.56618 0.26797 0.47712 0.0
C257 C 0.56688 0.23868 0.45807 0.0
C258 C 0.54798 0.24396 0.47324 0.0
O259 O 0.53763 0.29714 0.52531 0.0
C260 C 0.48838 0.28084 0.48245 0.0
O261 O 0.49103 0.26039 0.49201 0.0
H262 H 0.57044 0.28252 0.48288 0.0
H263 H 0.5353 0.23519 0.47526 0.0
N264 N 0.51513 0.25894 0.53187 0.0
N265 N 0.49683 0.24845 0.56683 0.0
C266 C 0.49872 0.26512 0.54958 0.0
C267 C 0.52376 0.23756 0.53803 0.0
C268 C 0.51258 0.23109 0.55971 0.0
C269 C 0.55139 0.2863 0.53978 0.0
O270 O 0.55621 0.2646 0.53991 0.0
H271 H 0.48894 0.28177 0.5504 0.0
H272 H 0.53772 0.22765 0.52804 0.0
O273 O 0.50156 0.29229 0.48652 0.0
H274 H 0.57179 0.2247 0.44622 0.0
H275 H 0.51592 0.21499 0.56965 0.0
Gd276 Gd 0.29746 0.31455 0.2738 0.0
Gd277 Gd 0.27166 0.28168 0.32278 0.0
C278 C 0.23588 0.30983 0.3955 0.0
C279 C 0.25883 0.2905 0.4272 0.0
C280 C 0.26872 0.28382 0.38275 0.0
C281 C 0.25051 0.29901 0.37644 0.0
C282 C 0.27295 0.27915 0.40822 0.0
C283 C 0.24027 0.30566 0.42087 0.0
C284 C 0.21694 0.32389 0.38856 0.0
C285 C 0.21288 0.32673 0.36321 0.0
N286 N 0.24651 0.30231 0.35181 0.0
C287 C 0.2278 0.31551 0.34501 0.0
H288 H 0.22441 0.31757 0.32549 0.0
C289 C 0.29832 0.25548 0.36962 0.0
N290 N 0.28163 0.27256 0.36404 0.0
C291 C 0.30339 0.25056 0.39455 0.0
C292 C 0.29078 0.2626 0.41392 0.0
H293 H 0.30805 0.24605 0.35471 0.0
H294 H 0.22915 0.3136 0.4358 0.0
H295 H 0.3441 0.27665 0.27246 0.0
H296 H 0.20509 0.33211 0.40265 0.0
H297 H 0.19815 0.33736 0.35771 0.0
H298 H 0.26179 0.28716 0.44689 0.0
H299 H 0.26417 0.35213 0.24032 0.0
H300 H 0.36426 0.26061 0.19594 0.0
H301 H 0.36987 0.25525 0.24133 0.0
H302 H 0.31177 0.31004 0.14929 0.0
H303 H 0.31692 0.2374 0.39882 0.0
H304 H 0.2946 0.25858 0.43326 0.0
H305 H 0.34241 0.28106 0.16171 0.0
H306 H 0.25723 0.36182 0.19576 0.0
N307 N 0.32352 0.29384 0.24525 0.0
C308 C 0.35283 0.27013 0.20956 0.0
C309 C 0.35606 0.26707 0.23515 0.0
C310 C 0.33512 0.28578 0.20181 0.0
C311 C 0.32068 0.29765 0.22034 0.0
C312 C 0.34133 0.27933 0.25279 0.0
N313 N 0.29036 0.3252 0.23173 0.0
C314 C 0.30348 0.3138 0.21336 0.0
C315 C 0.27025 0.34822 0.20044 0.0
C316 C 0.28314 0.33605 0.18135 0.0
C317 C 0.27426 0.34271 0.22565 0.0
C318 C 0.30017 0.31876 0.18765 0.0
H319 H 0.28003 0.34036 0.16182 0.0
O320 O 0.29917 0.34913 0.27108 0.0
O321 O 0.27764 0.31455 0.31036 0.0
O322 O 0.24934 0.29673 0.29205 0.0
O323 O 0.27063 0.30566 0.25624 0.0
O324 O 0.26898 0.34155 0.28612 0.0
O325 O 0.32666 0.3236 0.28035 0.0
O326 O 0.27083 0.2469 0.32679 0.0
O327 O 0.29038 0.28196 0.28562 0.0
O328 O 0.31962 0.29735 0.30343 0.0
O329 O 0.29761 0.29278 0.33985 0.0
O330 O 0.29938 0.25444 0.30907 0.0
O331 O 0.24165 0.27178 0.32266 0.0
C332 C 0.26463 0.33297 0.30827 0.0
C333 C 0.31413 0.3066 0.16913 0.0
C334 C 0.33158 0.29011 0.1762 0.0
C335 C 0.31911 0.34466 0.27563 0.0
C336 C 0.33327 0.35639 0.25953 0.0
C337 C 0.33372 0.35724 0.23315 0.0
C338 C 0.34672 0.36669 0.27084 0.0
C339 C 0.36049 0.37807 0.25593 0.0
C340 C 0.34735 0.36843 0.21822 0.0
C341 C 0.36062 0.3788 0.22947 0.0
C342 C 0.25254 0.30148 0.2673 0.0
C343 C 0.30299 0.26323 0.28681 0.0
C344 C 0.25016 0.25083 0.327 0.0
C345 C 0.23897 0.23895 0.34709 0.0
C346 C 0.24308 0.23886 0.37237 0.0
C347 C 0.22422 0.22729 0.34098 0.0
C348 C 0.21375 0.21552 0.35996 0.0
C349 C 0.2326 0.22751 0.39128 0.0
C350 C 0.21807 0.21588 0.38518 0.0
C351 C 0.31613 0.29522 0.32837 0.0
H352 H 0.32357 0.3493 0.22412 0.0
H353 H 0.34624 0.36608 0.29126 0.0
H354 H 0.34767 0.36902 0.19786 0.0
H355 H 0.37119 0.38716 0.21742 0.0
H356 H 0.2545 0.24735 0.37755 0.0
H357 H 0.22081 0.22744 0.32156 0.0
H358 H 0.23595 0.22751 0.41071 0.0
H359 H 0.21055 0.20676 0.40018 0.0
Gd360 Gd 0.78516 0.25391 0.26367 0.0
Gd361 Gd 0.81188 0.28266 0.30507 0.0
C362 C 0.86886 0.30558 0.26285 0.0
C363 C 0.89854 0.28234 0.28331 0.0
C364 C 0.8623 0.27924 0.29697 0.0
C365 C 0.85467 0.29545 0.27889 0.0
C366 C 0.88423 0.2733 0.3002 0.0
C367 C 0.89087 0.29838 0.26457 0.0
C368 C 0.86048 0.32308 0.2461 0.0
C369 C 0.83846 0.33054 0.24621 0.0
N370 N 0.83329 0.30216 0.2779 0.0
C371 C 0.82502 0.31997 0.26244 0.0
H372 H 0.80807 0.32587 0.26203 0.0
C373 C 0.85429 0.25963 0.33515 0.0
N374 N 0.84798 0.27132 0.31337 0.0
C375 C 0.87587 0.2531 0.33906 0.0
C376 C 0.89096 0.25958 0.32123 0.0
H377 H 0.84261 0.25455 0.34895 0.0
H378 H 0.90202 0.30571 0.25214 0.0
H379 H 0.79074 0.21073 0.30651 0.0
H380 H 0.87085 0.33125 0.23344 0.0
H381 H 0.8318 0.34433 0.23364 0.0
H382 H 0.91546 0.27778 0.28525 0.0
H383 H 0.75464 0.28393 0.22102 0.0
H384 H 0.72999 0.19628 0.32596 0.0
H385 H 0.76837 0.18804 0.33054 0.0
H386 H 0.68384 0.24936 0.27542 0.0
H387 H 0.88084 0.24316 0.35585 0.0
H388 H 0.90762 0.25484 0.32457 0.0
H389 H 0.69813 0.22008 0.30678 0.0
H390 H 0.71686 0.29261 0.2119 0.0
N391 N 0.76503 0.23229 0.28901 0.0
C392 C 0.73951 0.20671 0.31587 0.0
C393 C 0.76129 0.20184 0.31823 0.0
C394 C 0.73047 0.22442 0.2998 0.0
C395 C 0.74386 0.23699 0.28622 0.0
C396 C 0.77394 0.21476 0.30443 0.0
N397 N 0.74951 0.26394 0.25428 0.0
C398 C 0.73576 0.25365 0.26871 0.0
C399 C 0.72192 0.28179 0.22807 0.0
C400 C 0.70721 0.27261 0.24385 0.0
C401 C 0.74323 0.27687 0.23326 0.0
C402 C 0.71416 0.25785 0.26403 0.0
H403 H 0.69076 0.27624 0.23964 0.0
O404 O 0.78764 0.2482 0.22354 0.0
O405 O 0.81229 0.26869 0.26783 0.0
O406 O 0.78439 0.30717 0.28756 0.0
O407 O 0.76347 0.2877 0.26944 0.0
O408 O 0.8 0.27488 0.23344 0.0
O409 O 0.79495 0.22046 0.2507 0.0
O410 O 0.81106 0.29074 0.3443 0.0
O411 O 0.78472 0.26738 0.3014 0.0
O412 O 0.81328 0.22934 0.27949 0.0
O413 O 0.83182 0.24759 0.30297 0.0
O414 O 0.79642 0.26298 0.3362 0.0
O415 O 0.80191 0.31683 0.31587 0.0
C416 C 0.81526 0.27714 0.24588 0.0
C417 C 0.70052 0.2462 0.27855 0.0
C418 C 0.70868 0.22947 0.29635 0.0
C419 C 0.79265 0.22667 0.22701 0.0
C420 C 0.78094 0.21412 0.2135 0.0
C421 C 0.7593 0.21533 0.22061 0.0
C422 C 0.79132 0.20046 0.19381 0.0
C423 C 0.77997 0.18811 0.18162 0.0
C424 C 0.74794 0.20365 0.20833 0.0
C425 C 0.75813 0.1902 0.18896 0.0
C426 C 0.76688 0.30615 0.27729 0.0
C427 C 0.7819 0.25915 0.32358 0.0
C428 C 0.80589 0.31209 0.33934 0.0
C429 C 0.81893 0.32549 0.34944 0.0
C430 C 0.84081 0.32161 0.34194 0.0
C431 C 0.80969 0.34282 0.36566 0.0
C432 C 0.8224 0.35613 0.37367 0.0
C433 C 0.85337 0.33448 0.35007 0.0
C434 C 0.84425 0.35169 0.36572 0.0
C435 C 0.82939 0.22974 0.29269 0.0
H436 H 0.75111 0.22517 0.23576 0.0
H437 H 0.80814 0.1991 0.18842 0.0
H438 H 0.73118 0.20496 0.21394 0.0
H439 H 0.74882 0.18143 0.17964 0.0
H440 H 0.84827 0.30874 0.32961 0.0
H441 H 0.79278 0.34622 0.37151 0.0
H442 H 0.87023 0.3312 0.34404 0.0
H443 H 0.85432 0.36157 0.37174 0.0
Gd444 Gd 0.79642 0.80985 0.30757 0.0
Gd445 Gd 0.77963 0.7726 0.26806 0.0
C446 C 0.8165 0.75394 0.19211 0.0
C447 C 0.79015 0.76984 0.16272 0.0
C448 C 0.7811 0.77311 0.2079 0.0
C449 C 0.8015 0.76184 0.21239 0.0
C450 C 0.77497 0.77662 0.18309 0.0
C451 C 0.8109 0.75857 0.16722 0.0
C452 C 0.83639 0.74097 0.19751 0.0
C453 C 0.84054 0.73536 0.22263 0.0
N454 N 0.80624 0.75734 0.23668 0.0
C455 C 0.82505 0.74344 0.24208 0.0
H456 H 0.82849 0.73908 0.26141 0.0
C457 C 0.74572 0.78728 0.22488 0.0
N458 N 0.76681 0.7793 0.22801 0.0
C459 C 0.73884 0.79099 0.20062 0.0
C460 C 0.7536 0.78604 0.1796 0.0
H461 H 0.73429 0.79126 0.24108 0.0
H462 H 0.82229 0.75287 0.15139 0.0
H463 H 0.74863 0.84523 0.30172 0.0
H464 H 0.8484 0.73467 0.18248 0.0
H465 H 0.85569 0.72491 0.22702 0.0
H466 H 0.78583 0.77264 0.14348 0.0
H467 H 0.83456 0.78909 0.34578 0.0
H468 H 0.71706 0.85642 0.37563 0.0
H469 H 0.71744 0.86288 0.32928 0.0
H470 H 0.76957 0.81889 0.43007 0.0
H471 H 0.72219 0.79777 0.19816 0.0
H472 H 0.74823 0.78893 0.16084 0.0
H473 H 0.73651 0.83965 0.4131 0.0
H474 H 0.83865 0.78468 0.39165 0.0
N475 N 0.76589 0.82833 0.332 0.0
C476 C 0.73087 0.84854 0.3636 0.0
C477 C 0.73106 0.8523 0.33745 0.0
C478 C 0.74875 0.83522 0.37395 0.0
C479 C 0.76628 0.82519 0.35746 0.0
C480 C 0.74889 0.84225 0.32186 0.0
N481 N 0.80156 0.80428 0.3507 0.0
C482 C 0.78471 0.81293 0.36709 0.0
C483 C 0.82335 0.79251 0.38501 0.0
C484 C 0.80587 0.80024 0.40222 0.0
C485 C 0.82101 0.79505 0.35913 0.0
C486 C 0.78632 0.81091 0.39336 0.0
H487 H 0.8078 0.79847 0.42225 0.0
O488 O 0.8251 0.82169 0.30975 0.0
O489 O 0.80345 0.79261 0.2716 0.0
O490 O 0.80201 0.7535 0.29648 0.0
O491 O 0.79991 0.77691 0.32911 0.0
O492 O 0.82918 0.79197 0.29111 0.0
O493 O 0.79528 0.84504 0.30338 0.0
O494 O 0.75277 0.75706 0.27553 0.0
O495 O 0.77283 0.78972 0.30406 0.0
O496 O 0.77956 0.82958 0.27488 0.0
O497 O 0.77449 0.80536 0.24583 0.0
O498 O 0.74694 0.78986 0.28518 0.0
O499 O 0.78486 0.73678 0.2708 0.0
C500 C 0.82355 0.78671 0.27036 0.0
C501 C 0.76869 0.8203 0.40983 0.0
C502 C 0.74987 0.83222 0.40016 0.0
C503 C 0.81502 0.84245 0.30836 0.0
C504 C 0.81897 0.85626 0.32773 0.0
C505 C 0.8041 0.86185 0.3487 0.0
C506 C 0.83812 0.86341 0.32569 0.0
C507 C 0.84258 0.87562 0.34472 0.0
C508 C 0.80851 0.87381 0.36768 0.0
C509 C 0.82767 0.88057 0.36582 0.0
C510 C 0.80351 0.75697 0.32037 0.0
C511 C 0.7527 0.79527 0.30573 0.0
C512 C 0.76458 0.7371 0.27393 0.0
C513 C 0.75695 0.72232 0.25889 0.0
C514 C 0.76216 0.72172 0.23273 0.0
C515 C 0.74363 0.70911 0.27096 0.0
C516 C 0.73512 0.69549 0.25703 0.0
C517 C 0.75388 0.70826 0.21873 0.0
C518 C 0.74038 0.69531 0.2307 0.0
C519 C 0.77415 0.82542 0.25274 0.0
H520 H 0.78907 0.85703 0.35045 0.0
H521 H 0.84964 0.85922 0.3095 0.0
H522 H 0.797 0.87792 0.38383 0.0
H523 H 0.83066 0.89008 0.38063 0.0
H524 H 0.77251 0.73167 0.22313 0.0
H525 H 0.74003 0.70942 0.29127 0.0
H526 H 0.7578 0.70799 0.19849 0.0
H527 H 0.73383 0.68543 0.21924 0.0
Gd528 Gd 0.31887 0.79819 0.30302 0.0
Gd529 Gd 0.30211 0.76842 0.25484 0.0
C530 C 0.28065 0.70429 0.27671 0.0
C531 C 0.3087 0.67717 0.25505 0.0
C532 C 0.30973 0.71611 0.25125 0.0
C533 C 0.29093 0.72118 0.26688 0.0
C534 C 0.31864 0.69409 0.24485 0.0
C535 C 0.28977 0.68226 0.27096 0.0
C536 C 0.26143 0.71007 0.29192 0.0
C537 C 0.25268 0.73228 0.29653 0.0
N538 N 0.28263 0.7426 0.27241 0.0
C539 C 0.26342 0.74845 0.28634 0.0
H540 H 0.25653 0.76553 0.29017 0.0
C541 C 0.33654 0.72881 0.22453 0.0
N542 N 0.31913 0.73277 0.24194 0.0
C543 C 0.34596 0.70724 0.2177 0.0
C544 C 0.33711 0.68977 0.2281 0.0
H545 H 0.3434 0.74235 0.21649 0.0
H546 H 0.28218 0.66905 0.2785 0.0
H547 H 0.36351 0.80287 0.26688 0.0
H548 H 0.2531 0.69757 0.29991 0.0
H549 H 0.2377 0.73694 0.30802 0.0
H550 H 0.31539 0.66014 0.2505 0.0
H551 H 0.27749 0.82229 0.3424 0.0
H552 H 0.36772 0.87057 0.26375 0.0
H553 H 0.38257 0.83198 0.25182 0.0
H554 H 0.30579 0.90544 0.31542 0.0
H555 H 0.36002 0.70411 0.2044 0.0
H556 H 0.34443 0.67306 0.22276 0.0
H557 H 0.3388 0.89791 0.28693 0.0
H558 H 0.2612 0.85958 0.35759 0.0
N559 N 0.33768 0.82481 0.28639 0.0
C560 C 0.35915 0.85788 0.27014 0.0
C561 C 0.36761 0.83612 0.26345 0.0
C562 C 0.33993 0.86295 0.28546 0.0
C563 C 0.32952 0.84579 0.29363 0.0
C564 C 0.35673 0.81965 0.27203 0.0
N565 N 0.30152 0.83308 0.31767 0.0
C566 C 0.31088 0.85007 0.30967 0.0
C567 C 0.27508 0.85716 0.344 0.0
C568 C 0.28397 0.87501 0.3351 0.0
C569 C 0.2843 0.83612 0.33537 0.0
C570 C 0.30223 0.87156 0.31798 0.0
H571 H 0.27685 0.89128 0.34191 0.0
O572 O 0.32008 0.79011 0.34314 0.0
O573 O 0.30809 0.76851 0.2949 0.0
O574 O 0.27383 0.79461 0.27155 0.0
O575 O 0.28842 0.81965 0.29017 0.0
O576 O 0.29536 0.78237 0.32831 0.0
O577 O 0.34852 0.7949 0.32021 0.0
O578 O 0.30177 0.77506 0.21443 0.0
O579 O 0.31285 0.79815 0.26293 0.0
O580 O 0.34748 0.77262 0.28551 0.0
O581 O 0.33251 0.74736 0.26796 0.0
O582 O 0.32576 0.78406 0.22967 0.0
O583 O 0.27261 0.77223 0.23718 0.0
C584 C 0.29611 0.76598 0.31463 0.0
C585 C 0.31227 0.8888 0.30936 0.0
C586 C 0.33108 0.88451 0.29315 0.0
C587 C 0.33928 0.79321 0.34305 0.0
C588 C 0.34223 0.80888 0.36116 0.0
C589 C 0.32453 0.82181 0.3749 0.0
C590 C 0.36276 0.8113 0.36462 0.0
C591 C 0.36547 0.82681 0.38116 0.0
C592 C 0.32713 0.83743 0.39086 0.0
C593 C 0.34741 0.84 0.39395 0.0
C594 C 0.27236 0.81419 0.28088 0.0
C595 C 0.32487 0.8006 0.24321 0.0
C596 C 0.28217 0.77314 0.2144 0.0
C597 C 0.27839 0.75777 0.1965 0.0
C598 C 0.29553 0.74256 0.18471 0.0
C599 C 0.25755 0.75819 0.19103 0.0
C600 C 0.25389 0.74333 0.17423 0.0
C601 C 0.29198 0.72741 0.1688 0.0
C602 C 0.27135 0.72763 0.16372 0.0
C603 C 0.34877 0.75295 0.27651 0.0
H604 H 0.3086 0.81987 0.37349 0.0
H605 H 0.37655 0.80117 0.35447 0.0
H606 H 0.31335 0.84737 0.40118 0.0
H607 H 0.34901 0.8518 0.40708 0.0
H608 H 0.31176 0.74236 0.18759 0.0
H609 H 0.24434 0.77035 0.19942 0.0
H610 H 0.3053 0.71552 0.16022 0.0
H611 H 0.26912 0.7155 0.15142 0.0
Gd612 Gd 0.26283 0.77478 0.7833 0.0
Gd613 Gd 0.28866 0.80368 0.82213 0.0
C614 C 0.32592 0.85227 0.77906 0.0
C615 C 0.3602 0.84039 0.79602 0.0
C616 C 0.33196 0.82102 0.80941 0.0
C617 C 0.31838 0.83555 0.79437 0.0
C618 C 0.35311 0.82311 0.81015 0.0
C619 C 0.34662 0.85495 0.78049 0.0
C620 C 0.31289 0.86512 0.76175 0.0
C621 C 0.29356 0.8602 0.75874 0.0
N622 N 0.29861 0.83207 0.79292 0.0
C623 C 0.28697 0.84326 0.77389 0.0
H624 H 0.273 0.83876 0.76902 0.0
C625 C 0.33821 0.78886 0.83664 0.0
N626 N 0.32493 0.80406 0.82224 0.0
C627 C 0.35922 0.79025 0.83794 0.0
C628 C 0.36671 0.8075 0.8247 0.0
H629 H 0.3327 0.77552 0.84739 0.0
H630 H 0.35252 0.8678 0.76903 0.0
H631 H 0.25839 0.73312 0.82591 0.0
H632 H 0.31812 0.87802 0.74965 0.0
H633 H 0.28393 0.86904 0.7442 0.0
H634 H 0.37632 0.84231 0.79649 0.0
H635 H 0.2403 0.80853 0.73693 0.0
H636 H 0.19329 0.72873 0.83631 0.0
H637 H 0.23066 0.7147 0.84584 0.0
H638 H 0.15993 0.7838 0.77668 0.0
H639 H 0.36959 0.77806 0.84928 0.0
H640 H 0.38304 0.80853 0.82568 0.0
H641 H 0.16693 0.75494 0.81086 0.0
H642 H 0.20473 0.82165 0.72119 0.0
N643 N 0.23703 0.75777 0.80542 0.0
C644 C 0.20542 0.73694 0.82746 0.0
C645 C 0.22651 0.72892 0.8328 0.0
C646 C 0.20039 0.75493 0.81001 0.0
C647 C 0.2168 0.76499 0.79893 0.0
C648 C 0.24222 0.73949 0.82142 0.0
N649 N 0.22929 0.78953 0.76828 0.0
C650 C 0.21281 0.78132 0.77974 0.0
C651 C 0.20674 0.81044 0.73778 0.0
C652 C 0.18936 0.80315 0.75026 0.0
C653 C 0.2268 0.80303 0.74672 0.0
C654 C 0.19235 0.78804 0.77115 0.0
H655 H 0.17387 0.80875 0.74316 0.0
O656 O 0.26524 0.76649 0.74434 0.0
O657 O 0.29225 0.78661 0.78678 0.0
O658 O 0.26004 0.82997 0.81026 0.0
O659 O 0.24193 0.80951 0.78882 0.0
O660 O 0.28089 0.79256 0.75215 0.0
O661 O 0.26994 0.74024 0.7737 0.0
O662 O 0.29415 0.78797 0.85921 0.0
O663 O 0.26424 0.78291 0.82308 0.0
O664 O 0.28645 0.74848 0.80449 0.0
O665 O 0.30888 0.76895 0.81675 0.0
O666 O 0.2565 0.81094 0.84407 0.0
O667 O 0.29249 0.82323 0.85254 0.0
C668 C 0.29636 0.79403 0.7646 0.0
C669 C 0.17577 0.77879 0.78295 0.0
C670 C 0.17976 0.76234 0.80241 0.0
C671 C 0.27007 0.74525 0.74953 0.0
C672 C 0.28744 0.73256 0.73303 0.0
C673 C 0.30712 0.73846 0.72842 0.0
C674 C 0.28356 0.71538 0.72012 0.0
C675 C 0.2991 0.70423 0.70223 0.0
C676 C 0.32258 0.72757 0.71056 0.0
C677 C 0.31864 0.71059 0.69748 0.0
C678 C 0.24358 0.82816 0.79823 0.0
C679 C 0.24998 0.79392 0.83886 0.0
C680 C 0.29254 0.80677 0.86941 0.0
C681 C 0.27738 0.81119 0.8923 0.0
C682 C 0.26743 0.7947 0.904 0.0
C683 C 0.27233 0.83223 0.90224 0.0
C684 C 0.25752 0.83693 0.92356 0.0
C685 C 0.2527 0.79925 0.92506 0.0
C686 C 0.24777 0.82016 0.93484 0.0
C687 C 0.30456 0.74977 0.81289 0.0
H688 H 0.31034 0.75176 0.73816 0.0
H689 H 0.26834 0.71083 0.72391 0.0
H690 H 0.3375 0.73257 0.70649 0.0
H691 H 0.33078 0.7026 0.68348 0.0
H692 H 0.27087 0.77832 0.89683 0.0
H693 H 0.2797 0.84507 0.89305 0.0
H694 H 0.24511 0.78646 0.9339 0.0
H695 H 0.23658 0.82307 0.95149 0.0
Gd696 Gd 0.31256 0.28441 0.81443 0.0
Gd697 Gd 0.29668 0.24702 0.77328 0.0
C698 C 0.33715 0.22013 0.7024 0.0
C699 C 0.31493 0.23747 0.6692 0.0
C700 C 0.30298 0.24463 0.71318 0.0
C701 C 0.32182 0.23137 0.72053 0.0
C702 C 0.29908 0.2474 0.6875 0.0
C703 C 0.33391 0.22377 0.67665 0.0
C704 C 0.35479 0.2048 0.71076 0.0
C705 C 0.35683 0.20094 0.73661 0.0
N706 N 0.32435 0.22799 0.74558 0.0
C707 C 0.34124 0.21257 0.75387 0.0
H708 H 0.34285 0.20931 0.77382 0.0
C709 C 0.26783 0.26396 0.72543 0.0
N710 N 0.28785 0.25358 0.73137 0.0
C711 C 0.26321 0.26718 0.70022 0.0
C712 C 0.27903 0.25924 0.68111 0.0
H713 H 0.25558 0.27022 0.74014 0.0
H714 H 0.34568 0.21552 0.66243 0.0
H715 H 0.26862 0.32334 0.80167 0.0
H716 H 0.36642 0.19525 0.69744 0.0
H717 H 0.37025 0.18884 0.74328 0.0
H718 H 0.31236 0.23962 0.64934 0.0
H719 H 0.34552 0.26351 0.85885 0.0
H720 H 0.22923 0.33686 0.87082 0.0
H721 H 0.23559 0.34335 0.82458 0.0
H722 H 0.27222 0.29498 0.93334 0.0
H723 H 0.24748 0.27586 0.69554 0.0
H724 H 0.2754 0.26171 0.6616 0.0
H725 H 0.24275 0.31815 0.91127 0.0
H726 H 0.34404 0.25895 0.90553 0.0
N727 N 0.281 0.3055 0.83455 0.0
C728 C 0.24386 0.32809 0.86088 0.0
C729 C 0.24743 0.33185 0.83479 0.0
C730 C 0.25947 0.31352 0.87393 0.0
C731 C 0.27821 0.30247 0.86008 0.0
C732 C 0.26626 0.32048 0.82186 0.0
N733 N 0.31287 0.27988 0.8586 0.0
C734 C 0.29466 0.28921 0.87249 0.0
C735 C 0.32999 0.26735 0.89647 0.0
C736 C 0.31088 0.27544 0.91101 0.0
C737 C 0.33081 0.27003 0.87013 0.0
C738 C 0.29302 0.28692 0.89909 0.0
H739 H 0.31028 0.27335 0.93142 0.0
O740 O 0.34167 0.29415 0.8202 0.0
O741 O 0.32144 0.26456 0.78062 0.0
O742 O 0.31469 0.22723 0.80553 0.0
O743 O 0.31292 0.25222 0.83662 0.0
O744 O 0.34545 0.26366 0.80311 0.0
O745 O 0.31431 0.31884 0.80859 0.0
O746 O 0.26783 0.23464 0.77542 0.0
O747 O 0.28838 0.26633 0.8073 0.0
O748 O 0.30062 0.30348 0.77847 0.0
O749 O 0.29716 0.27855 0.74926 0.0
O750 O 0.26378 0.26698 0.78616 0.0
O751 O 0.2982 0.21188 0.78012 0.0
C752 C 0.3411 0.25713 0.78234 0.0
C753 C 0.27394 0.29687 0.9129 0.0
C754 C 0.25717 0.31011 0.90034 0.0
C755 C 0.33326 0.31519 0.81648 0.0
C756 C 0.33596 0.32954 0.83597 0.0
C757 C 0.32041 0.33465 0.85637 0.0
C758 C 0.35446 0.3378 0.83461 0.0
C759 C 0.35754 0.35072 0.85379 0.0
C760 C 0.32349 0.34723 0.87553 0.0
C761 C 0.34197 0.35516 0.87435 0.0
C762 C 0.31558 0.23186 0.82927 0.0
C763 C 0.26857 0.27315 0.80682 0.0
C764 C 0.27806 0.21399 0.77739 0.0
C765 C 0.27288 0.19925 0.75994 0.0
C766 C 0.2859 0.19392 0.73751 0.0
C767 C 0.25445 0.19089 0.76536 0.0
C768 C 0.2489 0.17745 0.7483 0.0
C769 C 0.28036 0.181 0.72036 0.0
C770 C 0.26196 0.17295 0.72556 0.0
C771 C 0.29763 0.29865 0.75547 0.0
H772 H 0.30584 0.32904 0.85749 0.0
H773 H 0.36646 0.33408 0.81879 0.0
H774 H 0.31142 0.351 0.89123 0.0
H775 H 0.34384 0.36526 0.8892 0.0
H776 H 0.30034 0.19971 0.73316 0.0
H777 H 0.24466 0.19468 0.78295 0.0
H778 H 0.29035 0.17725 0.70292 0.0
H779 H 0.25792 0.16329 0.7116 0.0
Gd780 Gd 0.79162 0.31198 0.82566 0.0
Gd781 Gd 0.7652 0.27999 0.7878 0.0
C782 C 0.74279 0.21772 0.81711 0.0
C783 C 0.76758 0.18925 0.79334 0.0
C784 C 0.77039 0.22761 0.78729 0.0
C785 C 0.75335 0.2337 0.80521 0.0
C786 C 0.77744 0.2054 0.78075 0.0
C787 C 0.75024 0.19541 0.81143 0.0
C788 C 0.72476 0.22472 0.83388 0.0
C789 C 0.71773 0.24716 0.83851 0.0
N790 N 0.74658 0.25539 0.81031 0.0
C791 C 0.72882 0.26237 0.82641 0.0
H792 H 0.72317 0.27965 0.83007 0.0
C793 C 0.79406 0.23901 0.75485 0.0
N794 N 0.77917 0.24372 0.77504 0.0
C795 C 0.80174 0.2172 0.74786 0.0
C796 C 0.79362 0.20025 0.76109 0.0
H797 H 0.80036 0.25208 0.74454 0.0
H798 H 0.74245 0.18287 0.82056 0.0
H799 H 0.83224 0.31196 0.78119 0.0
H800 H 0.71594 0.21301 0.84293 0.0
H801 H 0.70368 0.25281 0.85123 0.0
H802 H 0.77285 0.17206 0.78872 0.0
H803 H 0.75915 0.34085 0.87048 0.0
H804 H 0.83335 0.37919 0.75817 0.0
H805 H 0.84821 0.33906 0.75422 0.0
H806 H 0.77923 0.42082 0.81529 0.0
H807 H 0.81375 0.21353 0.73212 0.0
H808 H 0.79946 0.18338 0.75549 0.0
H809 H 0.80725 0.40965 0.78078 0.0
H810 H 0.74535 0.38001 0.88099 0.0
N811 N 0.80835 0.3365 0.79985 0.0
C812 C 0.82634 0.36737 0.77012 0.0
C813 C 0.83479 0.34473 0.76787 0.0
C814 C 0.80932 0.37449 0.78826 0.0
C815 C 0.80068 0.35842 0.8032 0.0
C816 C 0.82572 0.32943 0.7832 0.0
N817 N 0.77742 0.3487 0.83689 0.0
C818 C 0.7847 0.36473 0.82231 0.0
C819 C 0.75628 0.37594 0.86432 0.0
C820 C 0.76258 0.39275 0.84856 0.0
C821 C 0.76409 0.35384 0.85836 0.0
C822 C 0.7772 0.38724 0.82745 0.0
H823 H 0.75648 0.40985 0.8532 0.0
O824 O 0.80005 0.30957 0.86434 0.0
O825 O 0.77643 0.28367 0.82491 0.0
O826 O 0.74074 0.30735 0.80802 0.0
O827 O 0.7593 0.33305 0.81801 0.0
O828 O 0.77165 0.29909 0.85838 0.0
O829 O 0.82491 0.30522 0.83354 0.0
O830 O 0.75881 0.28404 0.7483 0.0
O831 O 0.78004 0.30828 0.78906 0.0
O832 O 0.81558 0.28346 0.80623 0.0
O833 O 0.79621 0.2579 0.79809 0.0
O834 O 0.78627 0.29258 0.75594 0.0
O835 O 0.73258 0.28926 0.77754 0.0
C836 C 0.76769 0.28307 0.8472 0.0
C837 C 0.78503 0.4034 0.8119 0.0
C838 C 0.80102 0.39704 0.79229 0.0
C839 C 0.82039 0.30742 0.85777 0.0
C840 C 0.83108 0.32232 0.86939 0.0
C841 C 0.82134 0.3449 0.87059 0.0
C842 C 0.85104 0.31432 0.87922 0.0
C843 C 0.86108 0.32899 0.88971 0.0
C844 C 0.8311 0.35935 0.8809 0.0
C845 C 0.85077 0.35153 0.89036 0.0
C846 C 0.74154 0.32763 0.81337 0.0
C847 C 0.78896 0.30924 0.767 0.0
C848 C 0.73817 0.28812 0.75333 0.0
C849 C 0.72672 0.27576 0.73927 0.0
C850 C 0.73154 0.25257 0.74148 0.0
C851 C 0.71085 0.28695 0.72366 0.0
C852 C 0.69969 0.27488 0.71085 0.0
C853 C 0.72075 0.24061 0.72871 0.0
C854 C 0.70492 0.25162 0.71359 0.0
C855 C 0.81428 0.26311 0.80167 0.0
H856 H 0.80607 0.35151 0.86381 0.0
H857 H 0.85876 0.29691 0.87851 0.0
H858 H 0.82327 0.3767 0.88171 0.0
H859 H 0.85774 0.36314 0.89869 0.0
H860 H 0.74368 0.24365 0.75301 0.0
H861 H 0.70697 0.30488 0.72184 0.0
H862 H 0.72467 0.2227 0.73058 0.0
H863 H 0.69685 0.24189 0.70379 0.0
Gd864 Gd 0.80089 0.7978 0.75742 0.0
Gd865 Gd 0.76464 0.78101 0.80978 0.0
C866 C 0.74098 0.82847 0.87314 0.0
C867 C 0.75746 0.8073 0.90892 0.0
C868 C 0.76262 0.79145 0.86788 0.0
C869 C 0.75034 0.8107 0.85773 0.0
C870 C 0.76582 0.78926 0.89375 0.0
C871 C 0.7451 0.8269 0.89862 0.0
C872 C 0.72719 0.84694 0.86271 0.0
C873 C 0.72238 0.84696 0.83783 0.0
N874 N 0.74647 0.8115 0.83315 0.0
C875 C 0.73201 0.82888 0.82333 0.0
H876 H 0.72829 0.82924 0.80407 0.0
C877 C 0.78002 0.75398 0.86256 0.0
N878 N 0.77039 0.77435 0.85271 0.0
C879 C 0.78359 0.75097 0.88812 0.0
C880 C 0.77675 0.76878 0.90372 0.0
H881 H 0.78554 0.74028 0.85043 0.0
H882 H 0.73827 0.84049 0.91068 0.0
H883 H 0.83725 0.74938 0.76057 0.0
H884 H 0.71973 0.86097 0.87389 0.0
H885 H 0.71138 0.86095 0.82975 0.0
H886 H 0.75996 0.80606 0.92879 0.0
H887 H 0.78086 0.84084 0.71932 0.0
H888 H 0.8483 0.72261 0.68767 0.0
H889 H 0.85523 0.71963 0.73264 0.0
H890 H 0.80919 0.78084 0.63546 0.0
H891 H 0.7917 0.73496 0.89575 0.0
H892 H 0.77952 0.76641 0.92352 0.0
H893 H 0.83069 0.74542 0.65155 0.0
H894 H 0.77625 0.8493 0.67389 0.0
N895 N 0.81963 0.76888 0.73202 0.0
C896 C 0.84032 0.73576 0.69987 0.0
C897 C 0.84431 0.73405 0.72522 0.0
C898 C 0.82663 0.75478 0.69038 0.0
C899 C 0.81653 0.77133 0.70712 0.0
C900 C 0.83406 0.75102 0.74102 0.0
N901 N 0.79591 0.80701 0.71462 0.0
C902 C 0.80426 0.79107 0.69812 0.0
C903 C 0.78402 0.8328 0.68047 0.0
C904 C 0.79133 0.81614 0.66342 0.0
C905 C 0.78667 0.82798 0.70615 0.0
C906 C 0.80195 0.79506 0.67208 0.0
H907 H 0.78927 0.81991 0.64354 0.0
O908 O 0.81248 0.82804 0.75313 0.0
O909 O 0.78242 0.80602 0.79408 0.0
O910 O 0.74638 0.79941 0.77731 0.0
O911 O 0.7699 0.79946 0.74069 0.0
O912 O 0.78128 0.83175 0.76745 0.0
O913 O 0.83468 0.79634 0.75725 0.0
O914 O 0.75297 0.75102 0.81887 0.0
O915 O 0.78316 0.77251 0.77309 0.0
O916 O 0.81918 0.77761 0.78916 0.0
O917 O 0.7955 0.78021 0.82563 0.0
O918 O 0.78392 0.74692 0.80019 0.0
O919 O 0.731 0.78205 0.81002 0.0
C920 C 0.77554 0.8266 0.79063 0.0
C921 C 0.81102 0.77821 0.65549 0.0
C922 C 0.82329 0.75806 0.66464 0.0
C923 C 0.83237 0.81767 0.75312 0.0
C924 C 0.84703 0.82522 0.73326 0.0
C925 C 0.84953 0.81753 0.70887 0.0
C926 C 0.85798 0.84108 0.73852 0.0
C927 C 0.87104 0.84962 0.71936 0.0
C928 C 0.86257 0.82582 0.68983 0.0
C929 C 0.87317 0.84186 0.69495 0.0
C930 C 0.75041 0.80187 0.75239 0.0
C931 C 0.79005 0.75197 0.77712 0.0
C932 C 0.73311 0.7613 0.81779 0.0
C933 C 0.71816 0.75651 0.83912 0.0
C934 C 0.71426 0.76899 0.86059 0.0
C935 C 0.70773 0.73923 0.83806 0.0
C936 C 0.69337 0.73443 0.85837 0.0
C937 C 0.70013 0.76433 0.88076 0.0
C938 C 0.68972 0.74724 0.8797 0.0
C939 C 0.81503 0.7765 0.81415 0.0
H940 H 0.84136 0.80523 0.70451 0.0
H941 H 0.85596 0.84709 0.75737 0.0
H942 H 0.8644 0.81986 0.67102 0.0
H943 H 0.88325 0.84801 0.6799 0.0
H944 H 0.722 0.78242 0.86172 0.0
H945 H 0.71095 0.72947 0.82154 0.0
H946 H 0.69712 0.77411 0.89723 0.0
H947 H 0.67851 0.74431 0.89545 0.0
H948 H 0.07776 0.09666 0.37529 0.0
H949 H 0.09979 0.12374 0.37312 0.0
H950 H 0.13767 0.09315 0.30836 0.0
H951 H 0.11591 0.06566 0.31077 0.0
H952 H 0.16243 0.10186 0.34222 0.0
H953 H 0.10252 0.1419 0.30069 0.0
H954 H 0.06454 0.15695 0.29513 0.0
H955 H 0.05778 0.19448 0.36087 0.0
H956 H 0.09568 0.1794 0.36706 0.0
H957 H 0.21853 0.18813 0.32085 0.0
H958 H 0.19555 0.16365 0.31328 0.0
H959 H 0.15274 0.18798 0.37774 0.0
H960 H 0.17531 0.21281 0.38502 0.0
H961 H 0.13098 0.18267 0.33906 0.0
H962 H 0.18999 0.13971 0.38256 0.0
H963 H 0.22796 0.12455 0.38823 0.0
H964 H 0.23624 0.09246 0.31829 0.0
H965 H 0.19836 0.1077 0.31205 0.0
C966 C 0.09085 0.09557 0.36068 0.0
C967 C 0.09505 0.07895 0.34321 0.0
C968 C 0.10331 0.11122 0.3593 0.0
C969 C 0.12025 0.11065 0.34039 0.0
C970 C 0.12462 0.09399 0.32303 0.0
C971 C 0.11208 0.07837 0.32433 0.0
C972 C 0.13365 0.12715 0.33923 0.0
C973 C 0.15561 0.11953 0.34105 0.0
C974 C 0.12473 0.15023 0.3381 0.0
C975 C 0.10192 0.15936 0.33446 0.0
C976 C 0.0929 0.15322 0.31409 0.0
C977 C 0.07139 0.16178 0.3108 0.0
C978 C 0.05874 0.17662 0.32767 0.0
C979 C 0.0676 0.18297 0.34784 0.0
C980 C 0.0891 0.17443 0.35123 0.0
C981 C 0.20402 0.18855 0.33312 0.0
C982 C 0.19885 0.20227 0.3537 0.0
C983 C 0.19099 0.17442 0.3289 0.0
C984 C 0.17258 0.17373 0.34518 0.0
C985 C 0.16691 0.18813 0.365 0.0
C986 C 0.17992 0.2022 0.36926 0.0
C987 C 0.15967 0.15735 0.34243 0.0
C988 C 0.13782 0.16499 0.33992 0.0
C989 C 0.16868 0.13429 0.34291 0.0
C990 C 0.19142 0.12505 0.3467 0.0
C991 C 0.19995 0.12957 0.3683 0.0
C992 C 0.22145 0.12094 0.37163 0.0
C993 C 0.23452 0.1076 0.3536 0.0
C994 C 0.22611 0.10282 0.33222 0.0
C995 C 0.20463 0.11144 0.32878 0.0
H996 H 0.25116 0.10093 0.35621 0.0
H997 H 0.04209 0.18324 0.32508 0.0
H998 H 0.9749 0.05932 0.33341 0.0
H999 H 0.944 0.08837 0.3239 0.0
H1000 H 0.98058 0.11222 0.25987 0.0
H1001 H 1.01193 0.0827 0.26935 0.0
H1002 H 0.9586 0.14588 0.29031 0.0
H1003 H 0.94188 0.08795 0.24948 0.0
H1004 H 0.93707 0.05036 0.24496 0.0
H1005 H 0.88792 0.05868 0.3065 0.0
H1006 H 0.89263 0.09621 0.31165 0.0
H1007 H 0.84157 0.19862 0.2572 0.0
H1008 H 0.87357 0.16858 0.25439 0.0
H1009 H 0.89061 0.18604 0.32471 0.0
H1010 H 0.85847 0.21585 0.32775 0.0
H1011 H 0.8873 0.13235 0.28258 0.0
H1012 H 0.94654 0.17544 0.32273 0.0
H1013 H 0.95411 0.21237 0.32335 0.0
H1014 H 0.9198 0.23434 0.25823 0.0
H1015 H 0.91195 0.19755 0.25724 0.0
C1016 C 0.97639 0.07054 0.31707 0.0
C1017 C 0.99594 0.06867 0.30214 0.0
C1018 C 0.95861 0.08714 0.31159 0.0
C1019 C 0.95982 0.1025 0.2911 0.0
C1020 C 0.97921 0.10052 0.27576 0.0
C1021 C 0.99708 0.08358 0.28107 0.0
C1022 C 0.94103 0.12115 0.28692 0.0
C1023 C 0.94301 0.14296 0.28852 0.0
C1024 C 0.92071 0.11741 0.28414 0.0
C1025 C 0.91772 0.09487 0.28105 0.0
C1026 C 0.93015 0.08171 0.26218 0.0
C1027 C 0.92742 0.06042 0.25948 0.0
C1028 C 0.91223 0.05212 0.27546 0.0
C1029 C 0.89969 0.06513 0.29414 0.0
C1030 C 0.90236 0.08643 0.29693 0.0
C1031 C 0.85194 0.19588 0.2723 0.0
C1032 C 0.84748 0.20988 0.29265 0.0
C1033 C 0.87036 0.17875 0.27056 0.0
C1034 C 0.88483 0.17519 0.28908 0.0
C1035 C 0.88005 0.18871 0.30981 0.0
C1036 C 0.86164 0.20583 0.31155 0.0
C1037 C 0.90467 0.15714 0.28697 0.0
C1038 C 0.90287 0.13539 0.28424 0.0
C1039 C 0.92518 0.16101 0.28856 0.0
C1040 C 0.92869 0.18364 0.28986 0.0
C1041 C 0.94058 0.18813 0.30853 0.0
C1042 C 0.9449 0.20906 0.30897 0.0
C1043 C 0.93752 0.22563 0.29076 0.0
C1044 C 0.92549 0.22145 0.27231 0.0
C1045 C 0.92106 0.20057 0.27184 0.0
H1046 H 0.94111 0.24173 0.29098 0.0
H1047 H 0.91015 0.03563 0.27335 0.0
H1048 H 1.00634 0.9488 0.37746 0.0
H1049 H 0.97785 0.92977 0.37582 0.0
H1050 H 0.9616 0.96573 0.30565 0.0
H1051 H 0.99008 0.98471 0.30674 0.0
H1052 H 0.9266 0.96514 0.33724 0.0
H1053 H 0.98778 0.91237 0.30572 0.0
H1054 H 0.02399 0.88862 0.30536 0.0
H1055 H 1.00548 0.85359 0.37352 0.0
H1056 H 0.96921 0.87738 0.37451 0.0
H1057 H 0.85894 0.89851 0.30471 0.0
H1058 H 0.89005 0.91488 0.30285 0.0
H1059 H 0.90205 0.88731 0.37802 0.0
H1060 H 0.87085 0.87114 0.38008 0.0
H1061 H 0.93947 0.88317 0.34232 0.0
H1062 H 0.87801 0.93774 0.37341 0.0
H1063 H 0.84186 0.96136 0.37191 0.0
H1064 H 0.86148 0.99288 0.30177 0.0
H1065 H 0.89768 0.96916 0.30264 0.0
C1066 C 0.99695 0.95268 0.3615 0.0
C1067 C 1.00091 0.96842 0.34218 0.0
C1068 C 0.98057 0.94169 0.36063 0.0
C1069 C 0.96773 0.94615 0.34048 0.0
C1070 C 0.97134 0.962 0.32138 0.0
C1071 C 0.98775 0.97292 0.32214 0.0
C1072 C 0.95032 0.93452 0.33947 0.0
C1073 C 0.92949 0.94722 0.33798 0.0
C1074 C 0.95401 0.91113 0.34079 0.0
C1075 C 0.97583 0.89683 0.34034 0.0
C1076 C 0.99148 0.89975 0.32077 0.0
C1077 C 1.01201 0.88625 0.32043 0.0
C1078 C 1.01705 0.86965 0.33945 0.0
C1079 C 1.00156 0.86649 0.35882 0.0
C1080 C 0.981 0.87996 0.35928 0.0
C1081 C 0.86841 0.89571 0.32067 0.0
C1082 C 0.86248 0.88367 0.34258 0.0
C1083 C 0.88608 0.90512 0.31963 0.0
C1084 C 0.89823 0.9024 0.34036 0.0
C1085 C 0.89286 0.8896 0.36184 0.0
C1086 C 0.87502 0.88048 0.36304 0.0
C1087 C 0.91587 0.91381 0.3402 0.0
C1088 C 0.93669 0.90108 0.34149 0.0
C1089 C 0.91222 0.93717 0.33845 0.0
C1090 C 0.89048 0.95148 0.33793 0.0
C1091 C 0.87456 0.94955 0.35753 0.0
C1092 C 0.85407 0.96298 0.35682 0.0
C1093 C 0.84935 0.97856 0.33671 0.0
C1094 C 0.86514 0.98077 0.3173 0.0
C1095 C 0.88565 0.96734 0.3179 0.0
H1096 H 0.83348 0.98896 0.3362 0.0
H1097 H 0.03295 0.85921 0.33913 0.0
H1098 H 0.1192 0.99081 0.2862 0.0
H1099 H 0.15227 0.96208 0.2822 0.0
H1100 H 0.11681 0.91475 0.26708 0.0
H1101 H 0.08383 0.94322 0.2712 0.0
H1102 H 0.14262 0.89783 0.30222 0.0
H1103 H 0.15012 0.93533 0.22108 0.0
H1104 H 0.15224 0.96666 0.19037 0.0
H1105 H 0.20662 0.97666 0.22305 0.0
H1106 H 0.20459 0.94564 0.2543 0.0
H1107 H 0.23267 0.80961 0.27138 0.0
H1108 H 0.19995 0.83874 0.26917 0.0
H1109 H 0.23373 0.88726 0.28528 0.0
H1110 H 0.26634 0.85854 0.287 0.0
H1111 H 0.20871 0.90319 0.24845 0.0
H1112 H 0.20023 0.86737 0.33068 0.0
H1113 H 0.19881 0.83578 0.36125 0.0
H1114 H 0.14675 0.82273 0.32637 0.0
H1115 H 0.14807 0.85408 0.29534 0.0
C1116 C 0.11847 0.9744 0.28156 0.0
C1117 C 0.09873 0.96943 0.27905 0.0
C1118 C 0.13745 0.95793 0.27927 0.0
C1119 C 0.13717 0.93611 0.27432 0.0
C1120 C 0.11756 0.93135 0.27102 0.0
C1121 C 0.09864 0.94776 0.27326 0.0
C1122 C 0.15698 0.91793 0.27401 0.0
C1123 C 0.15694 0.89892 0.29013 0.0
C1124 C 0.17598 0.91941 0.25877 0.0
C1125 C 0.17701 0.93833 0.24027 0.0
C1126 C 0.16237 0.94438 0.22194 0.0
C1127 C 0.16358 0.96206 0.2044 0.0
C1128 C 0.17948 0.97372 0.20485 0.0
C1129 C 0.19424 0.96768 0.22281 0.0
C1130 C 0.19307 0.95005 0.24044 0.0
C1131 C 0.23312 0.82647 0.27448 0.0
C1132 C 0.25217 0.83156 0.27974 0.0
C1133 C 0.21436 0.84314 0.27329 0.0
C1134 C 0.21422 0.86528 0.27731 0.0
C1135 C 0.2333 0.87038 0.28216 0.0
C1136 C 0.25197 0.85379 0.2834 0.0
C1137 C 0.19427 0.88318 0.27663 0.0
C1138 C 0.19432 0.90212 0.26042 0.0
C1139 C 0.1753 0.88171 0.29183 0.0
C1140 C 0.17441 0.86292 0.31052 0.0
C1141 C 0.18859 0.85766 0.3294 0.0
C1142 C 0.18779 0.83981 0.34683 0.0
C1143 C 0.17274 0.82721 0.34571 0.0
C1144 C 0.15843 0.83248 0.32719 0.0
C1145 C 0.15919 0.85029 0.30969 0.0
H1146 H 0.17214 0.81341 0.35922 0.0
H1147 H 0.18043 0.98737 0.19122 0.0
H1148 H 0.10135 1.00076 0.75268 0.0
H1149 H 0.13129 0.97059 0.76225 0.0
H1150 H 0.09328 0.94808 0.82583 0.0
H1151 H 0.06301 0.9791 0.81657 0.0
H1152 H 0.13612 0.94135 0.83523 0.0
H1153 H 0.09747 0.92349 0.77227 0.0
H1154 H 0.07897 0.9295 0.73346 0.0
H1155 H 0.13719 0.93435 0.68912 0.0
H1156 H 0.15598 0.9287 0.72772 0.0
H1157 H 0.20341 0.82808 0.7875 0.0
H1158 H 0.17234 0.85837 0.7875 0.0
H1159 H 0.20861 0.90195 0.81058 0.0
H1160 H 0.2405 0.87147 0.80946 0.0
H1161 H 0.16327 0.89534 0.76164 0.0
H1162 H 0.17187 0.942 0.85 0.0
H1163 H 0.18738 0.93348 0.89073 0.0
H1164 H 0.18594 0.86512 0.88785 0.0
H1165 H 0.16973 0.87332 0.84759 0.0
C1166 C 0.09939 0.98962 0.76899 0.0
C1167 C 0.07973 0.99214 0.7837 0.0
C1168 C 0.11656 0.97233 0.77443 0.0
C1169 C 0.11447 0.95669 0.7944 0.0
C1170 C 0.09526 0.95987 0.81023 0.0
C1171 C 0.07798 0.97757 0.80495 0.0
C1172 C 0.13185 0.9363 0.79689 0.0
C1173 C 0.14211 0.93124 0.8192 0.0
C1174 C 0.13926 0.92263 0.77625 0.0
C1175 C 0.12809 0.92583 0.75292 0.0
C1176 C 0.1063 0.92598 0.75426 0.0
C1177 C 0.09576 0.9293 0.73229 0.0
C1178 C 0.10689 0.93234 0.70884 0.0
C1179 C 0.12859 0.93201 0.7073 0.0
C1180 C 0.1392 0.92872 0.72922 0.0
C1181 C 0.20514 0.84415 0.79182 0.0
C1182 C 0.22479 0.8473 0.79771 0.0
C1183 C 0.18709 0.86149 0.79233 0.0
C1184 C 0.18789 0.88249 0.79936 0.0
C1185 C 0.20745 0.88584 0.80539 0.0
C1186 C 0.22572 0.86841 0.80459 0.0
C1187 C 0.16829 0.90077 0.79966 0.0
C1188 C 0.15745 0.90536 0.77778 0.0
C1189 C 0.16013 0.91347 0.82101 0.0
C1190 C 0.16974 0.9083 0.84548 0.0
C1191 C 0.17472 0.92517 0.85808 0.0
C1192 C 0.18364 0.92039 0.88115 0.0
C1193 C 0.18781 0.89874 0.89179 0.0
C1194 C 0.18282 0.88187 0.87954 0.0
C1195 C 0.17369 0.8866 0.85659 0.0
H1196 H 0.19484 0.89508 0.90958 0.0
H1197 H 0.0987 0.93492 0.69185 0.0
H1198 H 0.11311 0.07187 0.72022 0.0
H1199 H 0.14078 0.09067 0.72794 0.0
H1200 H 0.09677 0.13095 0.78146 0.0
H1201 H 0.06897 0.11195 0.77393 0.0
H1202 H 0.1222 0.15437 0.74422 0.0
H1203 H 0.13014 0.09381 0.80628 0.0
H1204 H 0.1333 0.05482 0.82145 0.0
H1205 H 0.19074 0.03569 0.77245 0.0
H1206 H 0.18775 0.07454 0.75667 0.0
H1207 H 0.20972 0.19655 0.77234 0.0
H1208 H 0.17793 0.18136 0.77897 0.0
H1209 H 0.21244 0.12248 0.7422 0.0
H1210 H 0.24449 0.13668 0.7373 0.0
H1211 H 0.18822 0.11082 0.7789 0.0
H1212 H 0.17756 0.16873 0.71163 0.0
H1213 H 0.17452 0.20696 0.69356 0.0
H1214 H 0.12283 0.23031 0.74935 0.0
H1215 H 0.12573 0.19221 0.76789 0.0
C1216 C 0.10927 0.08486 0.73344 0.0
C1217 C 0.08891 0.09048 0.74647 0.0
C1218 C 0.1251 0.09549 0.73795 0.0
C1219 C 0.12081 0.11208 0.75537 0.0
C1220 C 0.10037 0.11813 0.768 0.0
C1221 C 0.08459 0.10723 0.76379 0.0
C1222 C 0.13794 0.1228 0.76035 0.0
C1223 C 0.13649 0.14504 0.75227 0.0
C1224 C 0.15663 0.11045 0.77051 0.0
C1225 C 0.15863 0.08709 0.78016 0.0
C1226 C 0.14336 0.08127 0.79859 0.0
C1227 C 0.14513 0.0592 0.80733 0.0
C1228 C 0.16219 0.04278 0.79789 0.0
C1229 C 0.17753 0.04842 0.77974 0.0
C1230 C 0.17582 0.07048 0.77092 0.0
C1231 C 0.21067 0.18018 0.76611 0.0
C1232 C 0.22967 0.16803 0.75386 0.0
C1233 C 0.19236 0.17162 0.76964 0.0
C1234 C 0.19258 0.15095 0.76057 0.0
C1235 C 0.21173 0.13851 0.74924 0.0
C1236 C 0.23005 0.14685 0.7461 0.0
C1237 C 0.17293 0.1423 0.76188 0.0
C1238 C 0.17384 0.12037 0.77123 0.0
C1239 C 0.15386 0.15487 0.75254 0.0
C1240 C 0.15202 0.1777 0.74129 0.0
C1241 C 0.16563 0.18205 0.72011 0.0
C1242 C 0.16392 0.20368 0.70978 0.0
C1243 C 0.14853 0.22106 0.72035 0.0
C1244 C 0.13477 0.21683 0.74122 0.0
C1245 C 0.13642 0.19523 0.75163 0.0
H1246 H 0.14724 0.2378 0.71234 0.0
H1247 H 0.16353 0.0257 0.80466 0.0
H1248 H 0.99725 0.13024 0.77441 0.0
H1249 H 0.96551 0.15938 0.78434 0.0
H1250 H 0.93143 0.11009 0.81503 0.0
H1251 H 0.96356 0.0807 0.80557 0.0
H1252 H 0.91143 0.1402 0.77643 0.0
H1253 H 0.94085 0.14314 0.85424 0.0
H1254 H 0.96871 0.14562 0.88109 0.0
H1255 H 0.97231 0.20903 0.84521 0.0
H1256 H 0.9447 0.20679 0.81786 0.0
H1257 H 0.81629 0.21874 0.80761 0.0
H1258 H 0.84765 0.18846 0.80851 0.0
H1259 H 0.88799 0.23512 0.79594 0.0
H1260 H 0.85636 0.2658 0.79615 0.0
H1261 H 0.90442 0.20482 0.82808 0.0
H1262 H 0.88005 0.20121 0.74732 0.0
H1263 H 0.85443 0.19953 0.71703 0.0
H1264 H 0.8434 0.13909 0.75462 0.0
H1265 H 0.86901 0.1404 0.78512 0.0
C1266 C 0.98316 0.12563 0.78392 0.0
C1267 C 0.98292 0.10321 0.78937 0.0
C1268 C 0.96502 0.14232 0.78958 0.0
C1269 C 0.94605 0.13698 0.80044 0.0
C1270 C 0.94592 0.1146 0.80673 0.0
C1271 C 0.9643 0.09785 0.80153 0.0
C1272 C 0.9261 0.15469 0.80297 0.0
C1273 C 0.90968 0.1541 0.78815 0.0
C1274 C 0.92418 0.1733 0.81742 0.0
C1275 C 0.94081 0.1747 0.83384 0.0
C1276 C 0.94772 0.15752 0.8519 0.0
C1277 C 0.96344 0.15891 0.86725 0.0
C1278 C 0.97231 0.17745 0.86482 0.0
C1279 C 0.96544 0.19467 0.84706 0.0
C1280 C 0.94973 0.19336 0.83165 0.0
C1281 C 0.83181 0.22266 0.80487 0.0
C1282 C 0.83374 0.2448 0.80152 0.0
C1283 C 0.84983 0.20521 0.80529 0.0
C1284 C 0.87039 0.20928 0.80173 0.0
C1285 C 0.87239 0.23141 0.79865 0.0
C1286 C 0.85427 0.24898 0.79867 0.0
C1287 C 0.88966 0.19045 0.8014 0.0
C1288 C 0.90601 0.19085 0.81652 0.0
C1289 C 0.89176 0.17183 0.7868 0.0
C1290 C 0.87629 0.17101 0.7686 0.0
C1291 C 0.87207 0.18762 0.74919 0.0
C1292 C 0.85762 0.18669 0.73194 0.0
C1293 C 0.84727 0.16923 0.73392 0.0
C1294 C 0.85143 0.1526 0.7531 0.0
C1295 C 0.86597 0.15339 0.77032 0.0
H1296 H 0.83602 0.16859 0.7206 0.0
H1297 H 0.98447 0.17849 0.87673 0.0
H1298 H 0.96127 0.01113 0.70862 0.0
H1299 H 0.94033 0.98345 0.70957 0.0
H1300 H 0.9745 0.9464 0.76995 0.0
H1301 H 0.99642 0.97353 0.76827 0.0
H1302 H 0.96964 0.91905 0.73759 0.0
H1303 H 0.92264 0.97788 0.7807 0.0
H1304 H 0.90306 0.01624 0.78787 0.0
H1305 H 0.87012 0.01734 0.72206 0.0
H1306 H 0.88973 0.97907 0.71428 0.0
H1307 H 0.89502 0.8494 0.7584 0.0
H1308 H 0.91481 0.877 0.76612 0.0
H1309 H 0.89257 0.91561 0.69956 0.0
H1310 H 0.8726 0.88826 0.69207 0.0
H1311 H 0.89087 0.94141 0.74047 0.0
H1312 H 0.94119 0.88276 0.69653 0.0
H1313 H 0.96045 0.84398 0.69129 0.0
H1314 H 0.98649 0.84237 0.76221 0.0
H1315 H 0.96716 0.88108 0.76801 0.0
C1316 C 0.96462 0.99706 0.72198 0.0
C1317 C 0.98067 0.99477 0.73841 0.0
C1318 C 0.95234 0.98131 0.72272 0.0
C1319 C 0.95549 0.963 0.74018 0.0
C1320 C 0.97162 0.96046 0.75643 0.0
C1321 C 0.98407 0.97615 0.75557 0.0
C1322 C 0.94221 0.94636 0.74094 0.0
C1323 C 0.9524 0.92394 0.7387 0.0
C1324 C 0.91968 0.95263 0.74218 0.0
C1325 C 0.9078 0.97565 0.7468 0.0
C1326 C 0.91134 0.98635 0.76765 0.0
C1327 C 0.90021 0.00807 0.77184 0.0
C1328 C 0.88539 0.01923 0.7554 0.0
C1329 C 0.88162 0.00867 0.73477 0.0
C1330 C 0.89272 0.98696 0.73047 0.0
C1331 C 0.89417 0.86395 0.74569 0.0
C1332 C 0.88235 0.86668 0.72464 0.0
C1333 C 0.90556 0.87961 0.74998 0.0
C1334 C 0.9053 0.89828 0.73329 0.0
C1335 C 0.89302 0.90132 0.71266 0.0
C1336 C 0.88176 0.88562 0.70829 0.0
C1337 C 0.91835 0.91434 0.73663 0.0
C1338 C 0.9081 0.93659 0.73966 0.0
C1339 C 0.94078 0.90789 0.73644 0.0
C1340 C 0.95256 0.88472 0.73283 0.0
C1341 C 0.95091 0.87408 0.71109 0.0
C1342 C 0.96185 0.85213 0.708 0.0
C1343 C 0.97464 0.8407 0.72644 0.0
C1344 C 0.97656 0.85123 0.74796 0.0
C1345 C 0.96562 0.87318 0.75115 0.0
H1346 H 0.9831 0.8237 0.72402 0.0
H1347 H 0.87679 0.03605 0.75868 0.0
H1348 H 0.30095 0.12835 0.11551 0.0
H1349 H 0.3095 0.15808 0.13692 0.0
H1350 H 0.28491 0.13197 0.20834 0.0
H1351 H 0.27624 0.1024 0.18705 0.0
H1352 H 0.27057 0.17487 0.20483 0.0
H1353 H 0.33917 0.12526 0.19086 0.0
H1354 H 0.36952 0.10269 0.16569 0.0
H1355 H 0.37964 0.16095 0.12211 0.0
H1356 H 0.34916 0.18385 0.14682 0.0
H1357 H 0.32825 0.22175 0.28731 0.0
H1358 H 0.33139 0.19433 0.25576 0.0
H1359 H 0.29736 0.24475 0.20574 0.0
H1360 H 0.29214 0.2714 0.23799 0.0
H1361 H 0.34256 0.1908 0.19705 0.0
H1362 H 0.26273 0.23487 0.20593 0.0
H1363 H 0.23479 0.25613 0.23534 0.0
H1364 H 0.25053 0.2054 0.29404 0.0
H1365 H 0.27845 0.18383 0.26477 0.0
C1366 C 0.29757 0.12882 0.1358 0.0
C1367 C 0.28789 0.11299 0.14956 0.0
C1368 C 0.30246 0.14584 0.14803 0.0
C1369 C 0.29801 0.1472 0.1743 0.0
C1370 C 0.28842 0.13136 0.18805 0.0
C1371 C 0.28341 0.11446 0.17584 0.0
C1372 C 0.30282 0.16536 0.18754 0.0
C1373 C 0.28633 0.17826 0.20293 0.0
C1374 C 0.32339 0.16995 0.18532 0.0
C1375 C 0.34175 0.15623 0.17051 0.0
C1376 C 0.34777 0.13324 0.17578 0.0
C1377 C 0.36501 0.12039 0.16162 0.0
C1378 C 0.37647 0.13037 0.14226 0.0
C1379 C 0.37074 0.15324 0.13708 0.0
C1380 C 0.35349 0.16616 0.15117 0.0
C1381 C 0.32187 0.2271 0.26933 0.0
C1382 C 0.30995 0.24884 0.26521 0.0
C1383 C 0.32388 0.21146 0.25125 0.0
C1384 C 0.31436 0.2175 0.2286 0.0
C1385 C 0.30462 0.23973 0.22325 0.0
C1386 C 0.30183 0.25509 0.2417 0.0
C1387 C 0.31027 0.20018 0.21363 0.0
C1388 C 0.32682 0.18743 0.19833 0.0
C1389 C 0.28989 0.19546 0.21601 0.0
C1390 C 0.27238 0.2077 0.23315 0.0
C1391 C 0.25998 0.22817 0.22502 0.0
C1392 C 0.24428 0.24035 0.2417 0.0
C1393 C 0.24084 0.23217 0.26655 0.0
C1394 C 0.25311 0.21173 0.27476 0.0
C1395 C 0.26885 0.1995 0.25812 0.0
H1396 H 0.22871 0.24172 0.27937 0.0
H1397 H 0.38981 0.12039 0.13132 0.0
H1398 H 0.99011 0.28089 0.10508 0.0
H1399 H 0.95425 0.28469 0.12595 0.0
H1400 H 0.97868 0.23846 0.18601 0.0
H1401 H 1.01483 0.23488 0.16558 0.0
H1402 H 0.94256 0.23003 0.16967 0.0
H1403 H 0.96472 0.29232 0.19596 0.0
H1404 H 0.97899 0.32595 0.19009 0.0
H1405 H 0.92732 0.35819 0.14668 0.0
H1406 H 0.91291 0.32462 0.15199 0.0
H1407 H 0.8527 0.24993 0.25824 0.0
H1408 H 0.88793 0.24671 0.23649 0.0
H1409 H 0.86226 0.29667 0.18033 0.0
H1410 H 0.82651 0.30028 0.2028 0.0
H1411 H 0.89886 0.30336 0.19406 0.0
H1412 H 0.87559 0.24127 0.16963 0.0
H1413 H 0.86089 0.208 0.17716 0.0
H1414 H 0.91454 0.17506 0.21701 0.0
H1415 H 0.92935 0.20835 0.21024 0.0
C1416 C 0.98805 0.27168 0.12287 0.0
C1417 C 1.00563 0.25772 0.13367 0.0
C1418 C 0.96742 0.27384 0.13475 0.0
C1419 C 0.96376 0.26205 0.1577 0.0
C1420 C 0.98111 0.24773 0.16831 0.0
C1421 C 1.00182 0.24566 0.15651 0.0
C1422 C 0.94182 0.26471 0.17057 0.0
C1423 C 0.93308 0.24602 0.17525 0.0
C1424 C 0.92925 0.28566 0.17734 0.0
C1425 C 0.93787 0.30587 0.17413 0.0
C1426 C 0.95651 0.30651 0.18496 0.0
C1427 C 0.9646 0.32558 0.18178 0.0
C1428 C 0.9541 0.34417 0.16796 0.0
C1429 C 0.93546 0.34376 0.15735 0.0
C1430 C 0.92731 0.32472 0.16045 0.0
C1431 C 0.85443 0.2604 0.24146 0.0
C1432 C 0.83683 0.27578 0.23266 0.0
C1433 C 0.8747 0.25841 0.22884 0.0
C1434 C 0.87785 0.27131 0.20662 0.0
C1435 C 0.86026 0.28656 0.1975 0.0
C1436 C 0.83986 0.28859 0.21027 0.0
C1437 C 0.89952 0.2687 0.19303 0.0
C1438 C 0.90825 0.28739 0.1883 0.0
C1439 C 0.91207 0.24773 0.18617 0.0
C1440 C 0.90349 0.22743 0.18964 0.0
C1441 C 0.8842 0.227 0.18015 0.0
C1442 C 0.87584 0.20813 0.18429 0.0
C1443 C 0.88674 0.18946 0.19762 0.0
C1444 C 0.90611 0.18956 0.20669 0.0
C1445 C 0.91449 0.20843 0.20272 0.0
H1446 H 0.88022 0.17488 0.20088 0.0
H1447 H 0.96039 0.35892 0.16552 0.0
H1448 H 0.83437 0.9402 0.07312 0.0
H1449 H 0.82164 0.91595 0.10624 0.0
H1450 H 0.75783 0.95609 0.10443 0.0
H1451 H 0.77065 0.98093 0.0715 0.0
H1452 H 0.76776 0.946 0.1522 0.0
H1453 H 0.77064 0.90709 0.0793 0.0
H1454 H 0.7855 0.89021 0.03909 0.0
H1455 H 0.83408 0.84443 0.07707 0.0
H1456 H 0.81969 0.86118 0.11745 0.0
H1457 H 0.75445 0.82809 0.20939 0.0
H1458 H 0.75385 0.85581 0.17439 0.0
H1459 H 0.78733 0.8914 0.21591 0.0
H1460 H 0.7873 0.86413 0.25125 0.0
H1461 H 0.78515 0.86457 0.14548 0.0
H1462 H 0.7782 0.94504 0.19799 0.0
H1463 H 0.75966 0.96219 0.23683 0.0
H1464 H 0.7117 0.92501 0.23678 0.0
H1465 H 0.72976 0.90786 0.19776 0.0
C1466 C 0.81765 0.94402 0.07983 0.0
C1467 C 0.80354 0.96259 0.06972 0.0
C1468 C 0.81035 0.92998 0.09861 0.0
C1469 C 0.78875 0.93407 0.10764 0.0
C1470 C 0.77456 0.95259 0.09766 0.0
C1471 C 0.78187 0.96667 0.07874 0.0
C1472 C 0.78133 0.91918 0.12796 0.0
C1473 C 0.77141 0.9282 0.15071 0.0
C1474 C 0.78555 0.89601 0.12572 0.0
C1475 C 0.79425 0.88568 0.10144 0.0
C1476 C 0.78463 0.89359 0.07907 0.0
C1477 C 0.79294 0.88398 0.05623 0.0
C1478 C 0.81078 0.86632 0.0555 0.0
C1479 C 0.8203 0.85816 0.07764 0.0
C1480 C 0.81206 0.86771 0.10053 0.0
C1481 C 0.76127 0.84202 0.2113 0.0
C1482 C 0.77082 0.84385 0.2332 0.0
C1483 C 0.761 0.85787 0.1912 0.0
C1484 C 0.77042 0.87583 0.19249 0.0
C1485 C 0.7795 0.87801 0.21462 0.0
C1486 C 0.77949 0.86233 0.23486 0.0
C1487 C 0.77225 0.89129 0.17008 0.0
C1488 C 0.78121 0.88237 0.14692 0.0
C1489 C 0.76658 0.91457 0.17173 0.0
C1490 C 0.75544 0.92505 0.19503 0.0
C1491 C 0.76363 0.94061 0.20618 0.0
C1492 C 0.75322 0.95031 0.22825 0.0
C1493 C 0.73454 0.94465 0.23929 0.0
C1494 C 0.7262 0.92933 0.22825 0.0
C1495 C 0.73654 0.91959 0.20617 0.0
H1496 H 0.72652 0.95217 0.25639 0.0
H1497 H 0.81719 0.85891 0.0378 0.0
H1498 H 0.07645 0.71147 0.10795 0.0
H1499 H 0.10581 0.71277 0.13266 0.0
H1500 H 0.12115 0.76552 0.08201 0.0
H1501 H 0.09192 0.76434 0.05745 0.0
H1502 H 0.14745 0.70552 0.12024 0.0
H1503 H 0.13985 0.80065 0.11306 0.0
H1504 H 0.11168 0.83489 0.11056 0.0
H1505 H 0.06582 0.8006 0.14811 0.0
H1506 H 0.09375 0.76623 0.15117 0.0
H1507 H 0.24271 0.73765 0.12773 0.0
H1508 H 0.20785 0.73618 0.11617 0.0
H1509 H 0.18044 0.75075 0.19193 0.0
H1510 H 0.2157 0.75133 0.20416 0.0
H1511 H 0.15669 0.77572 0.15064 0.0
H1512 H 0.18574 0.70183 0.18072 0.0
H1513 H 0.21345 0.66737 0.18458 0.0
H1514 H 0.21454 0.65851 0.1054 0.0
H1515 H 0.18707 0.69312 0.10098 0.0
C1516 C 0.08613 0.72329 0.1021 0.0
C1517 C 0.08173 0.73794 0.0809 0.0
C1518 C 0.10283 0.72408 0.11626 0.0
C1519 C 0.11542 0.73953 0.10948 0.0
C1520 C 0.11129 0.75388 0.08804 0.0
C1521 C 0.09457 0.75318 0.07399 0.0
C1522 C 0.13342 0.74021 0.12413 0.0
C1523 C 0.14934 0.72083 0.12708 0.0
C1524 C 0.13574 0.76011 0.1335 0.0
C1525 C 0.1189 0.78082 0.1322 0.0
C1526 C 0.12378 0.80044 0.12093 0.0
C1527 C 0.10785 0.81987 0.11938 0.0
C1528 C 0.08697 0.81991 0.12912 0.0
C1529 C 0.08199 0.80053 0.14051 0.0
C1530 C 0.09786 0.78107 0.14213 0.0
C1531 C 0.2294 0.74028 0.14212 0.0
C1532 C 0.23216 0.74422 0.16704 0.0
C1533 C 0.20943 0.7396 0.13539 0.0
C1534 C 0.19168 0.74311 0.15327 0.0
C1535 C 0.19403 0.74794 0.1779 0.0
C1536 C 0.21416 0.74836 0.1848 0.0
C1537 C 0.17087 0.74124 0.14589 0.0
C1538 C 0.15453 0.76037 0.1442 0.0
C1539 C 0.16801 0.72108 0.13794 0.0
C1540 C 0.18445 0.70016 0.1405 0.0
C1541 C 0.19201 0.69263 0.16409 0.0
C1542 C 0.20766 0.67305 0.16638 0.0
C1543 C 0.21578 0.66078 0.14524 0.0
C1544 C 0.20824 0.66804 0.12176 0.0
C1545 C 0.19261 0.68763 0.11936 0.0
H1546 H 0.22789 0.64562 0.14705 0.0
H1547 H 0.07465 0.83496 0.12787 0.0
H1548 H 0.21324 0.01764 0.04639 0.0
H1549 H 0.20798 0.98733 0.02299 0.0
H1550 H 0.26958 0.9834 0.9816 0.0
H1551 H 0.27449 0.01411 1.0041 0.0
H1552 H 0.24285 0.97632 0.95144 0.0
H1553 H 0.26271 0.94947 0.03485 0.0
H1554 H 0.25896 0.94815 0.08144 0.0
H1555 H 0.19751 0.93335 0.08253 0.0
H1556 H 0.20083 0.93474 0.0359 0.0
H1557 H 0.28488 0.86368 0.9276 0.0
H1558 H 0.27672 0.90015 0.94489 0.0
H1559 H 0.21107 0.89679 0.96212 0.0
H1560 H 0.2188 0.8606 0.94373 0.0
H1561 H 0.23268 0.90913 1.00323 0.0
H1562 H 0.2192 0.9286 0.91687 0.0
H1563 H 0.22774 0.92726 0.87072 0.0
H1564 H 0.28223 0.9541 0.87566 0.0
H1565 H 0.27434 0.95513 0.92187 0.0
C1566 C 0.22541 0.01065 0.03189 0.0
C1567 C 0.24443 0.01804 0.02736 0.0
C1568 C 0.22247 0.99321 0.01869 0.0
C1569 C 0.23856 0.98282 1.00088 0.0
C1570 C 0.25698 0.99106 0.99534 0.0
C1571 C 0.25987 0.00849 1.0084 0.0
C1572 C 0.23713 0.96245 0.98915 0.0
C1573 C 0.2406 0.96165 0.96276 0.0
C1574 C 0.23392 0.94336 1.00391 0.0
C1575 C 0.23189 0.9425 0.03191 0.0
C1576 C 0.24833 0.9461 0.04503 0.0
C1577 C 0.2463 0.94531 0.07144 0.0
C1578 C 0.22797 0.94078 0.08493 0.0
C1579 C 0.21167 0.93692 0.07204 0.0
C1580 C 0.21362 0.93769 0.04564 0.0
C1581 C 0.2686 0.87079 0.93461 0.0
C1582 C 0.25249 0.85917 0.93416 0.0
C1583 C 0.26402 0.89158 0.94465 0.0
C1584 C 0.2433 0.90111 0.95466 0.0
C1585 C 0.22717 0.88961 0.95451 0.0
C1586 C 0.23168 0.86889 0.94414 0.0
C1587 C 0.23884 0.92296 0.96565 0.0
C1588 C 0.23436 0.92399 0.99189 0.0
C1589 C 0.24164 0.94209 0.9508 0.0
C1590 C 0.24622 0.94183 0.92291 0.0
C1591 C 0.23308 0.93408 0.90815 0.0
C1592 C 0.2378 0.93338 0.88197 0.0
C1593 C 0.25549 0.94059 0.87029 0.0
C1594 C 0.26851 0.94853 0.88474 0.0
C1595 C 0.26392 0.94918 0.91093 0.0
H1596 H 0.25911 0.94004 0.85002 0.0
H1597 H 0.22641 0.9402 0.10536 0.0
H1598 H 0.1351 0.22356 0.98623 0.0
H1599 H 0.16134 0.2274 0.95076 0.0
H1600 H 0.159 0.29386 0.97039 0.0
H1601 H 0.13349 0.28985 1.0065 0.0
H1602 H 0.1603 0.25281 0.90964 0.0
H1603 H 0.20727 0.30668 0.95458 0.0
H1604 H 0.21784 0.31179 0.99635 0.0
H1605 H 0.21208 0.24601 0.02143 0.0
H1606 H 0.20176 0.2404 0.97973 0.0
H1607 H 0.22656 0.29407 0.81144 0.0
H1608 H 0.20046 0.29236 0.84813 0.0
H1609 H 0.24986 0.2508 0.88961 0.0
H1610 H 0.27553 0.25247 0.85334 0.0
H1611 H 0.22559 0.27838 0.91989 0.0
H1612 H 0.21498 0.23007 0.86029 0.0
H1613 H 0.20785 0.21873 0.81951 0.0
H1614 H 0.14633 0.26344 0.82496 0.0
H1615 H 0.15322 0.27527 0.8657 0.0
C1616 C 0.14031 0.23892 0.98329 0.0
C1617 C 0.13208 0.25634 0.9995 0.0
C1618 C 0.15522 0.24117 0.96276 0.0
C1619 C 0.16236 0.26086 0.9579 0.0
C1620 C 0.15404 0.27836 0.97386 0.0
C1621 C 0.1392 0.27611 0.99445 0.0
C1622 C 0.17838 0.26314 0.9361 0.0
C1623 C 0.17452 0.2585 0.91189 0.0
C1624 C 0.19726 0.27003 0.93898 0.0
C1625 C 0.20342 0.27326 0.96414 0.0
C1626 C 0.20827 0.29331 0.96901 0.0
C1627 C 0.21423 0.29628 0.99267 0.0
C1628 C 0.21553 0.27927 0.01157 0.0
C1629 C 0.21095 0.25921 1.00682 0.0
C1630 C 0.205 0.25615 0.98319 0.0
C1631 C 0.2318 0.28482 0.82855 0.0
C1632 C 0.25325 0.27389 0.82968 0.0
C1633 C 0.2169 0.28375 0.84945 0.0
C1634 C 0.22311 0.27127 0.87165 0.0
C1635 C 0.24459 0.26059 0.87282 0.0
C1636 C 0.25939 0.26167 0.85201 0.0
C1637 C 0.20727 0.26854 0.89339 0.0
C1638 C 0.21122 0.27299 0.91759 0.0
C1639 C 0.18886 0.26073 0.8906 0.0
C1640 C 0.1847 0.25371 0.86601 0.0
C1641 C 0.19998 0.2376 0.85277 0.0
C1642 C 0.19598 0.23106 0.82964 0.0
C1643 C 0.17666 0.24039 0.81962 0.0
C1644 C 0.1613 0.25625 0.83273 0.0
C1645 C 0.16525 0.26287 0.85585 0.0
H1646 H 0.17357 0.23528 0.80173 0.0
H1647 H 0.22015 0.28161 0.02987 0.0
H1648 H 0.73582 0.10124 0.96268 0.0
H1649 H 0.73263 0.13857 0.94239 0.0
H1650 H 0.78823 0.14478 0.97634 0.0
H1651 H 0.792 0.10701 0.99523 0.0
H1652 H 0.72776 0.17956 0.95323 0.0
H1653 H 0.81839 0.17096 0.93699 0.0
H1654 H 0.85124 0.14134 0.93484 0.0
H1655 H 0.81736 0.09709 0.90898 0.0
H1656 H 0.78441 0.12653 0.91064 0.0
H1657 H 0.74486 0.28155 0.89277 0.0
H1658 H 0.74252 0.24901 0.92062 0.0
H1659 H 0.77828 0.20694 0.86265 0.0
H1660 H 0.78326 0.23941 0.83684 0.0
H1661 H 0.79258 0.19056 0.90037 0.0
H1662 H 0.71664 0.21335 0.88699 0.0
H1663 H 0.68143 0.23944 0.88681 0.0
H1664 H 0.68314 0.25093 0.96477 0.0
H1665 H 0.71823 0.22482 0.96527 0.0
C1666 C 0.74705 0.11086 0.96606 0.0
C1667 C 0.76425 0.10142 0.98017 0.0
C1668 C 0.74526 0.13214 0.95453 0.0
C1669 C 0.7605 0.14434 0.95729 0.0
C1670 C 0.77663 0.13551 0.9733 0.0
C1671 C 0.77873 0.11405 0.98421 0.0
C1672 C 0.76062 0.16526 0.94171 0.0
C1673 C 0.74191 0.18199 0.94161 0.0
C1674 C 0.77898 0.16841 0.92629 0.0
C1675 C 0.79892 0.15088 0.92418 0.0
C1676 C 0.81801 0.15496 0.93067 0.0
C1677 C 0.83663 0.13819 0.92958 0.0
C1678 C 0.83637 0.11732 0.92187 0.0
C1679 C 0.81753 0.11323 0.91502 0.0
C1680 C 0.79888 0.12995 0.91602 0.0
C1681 C 0.75198 0.26528 0.88592 0.0
C1682 C 0.76348 0.26311 0.86201 0.0
C1683 C 0.75039 0.24657 0.90179 0.0
C1684 C 0.75968 0.22513 0.89376 0.0
C1685 C 0.77087 0.22308 0.86961 0.0
C1686 C 0.77332 0.24179 0.85438 0.0
C1687 C 0.75936 0.20489 0.91089 0.0
C1688 C 0.77824 0.18827 0.91168 0.0
C1689 C 0.74095 0.20158 0.92627 0.0
C1690 C 0.72012 0.21753 0.92595 0.0
C1691 C 0.70954 0.22171 0.9039 0.0
C1692 C 0.68961 0.23639 0.9038 0.0
C1693 C 0.68015 0.247 0.92569 0.0
C1694 C 0.69052 0.24279 0.94779 0.0
C1695 C 0.71038 0.22799 0.94801 0.0
H1696 H 0.66474 0.25838 0.92557 0.0
H1697 H 0.85077 0.10434 0.92116 0.0
H1698 H 0.94407 0.76076 0.98642 0.0
H1699 H 0.91502 0.76551 0.95903 0.0
H1700 H 0.96051 0.74056 0.89708 0.0
H1701 H 0.98946 0.73554 0.92439 0.0
H1702 H 0.92905 0.78115 0.8854 0.0
H1703 H 0.93388 0.70723 0.9238 0.0
H1704 H 0.93442 0.67976 0.9598 0.0
H1705 H 0.872 0.71415 0.9885 0.0
H1706 H 0.87122 0.74203 0.95283 0.0
H1707 H 0.85803 0.76459 0.79963 0.0
H1708 H 0.88734 0.75883 0.82658 0.0
H1709 H 0.84212 0.77268 0.89201 0.0
H1710 H 0.81295 0.77885 0.86538 0.0
H1711 H 0.87365 0.73748 0.90213 0.0
H1712 H 0.86704 0.81079 0.86745 0.0
H1713 H 0.86478 0.8414 0.83498 0.0
H1714 H 0.92789 0.8125 0.80295 0.0
H1715 H 0.93038 0.78136 0.83502 0.0
C1716 C 0.94782 0.75634 0.96695 0.0
C1717 C 0.969 0.74764 0.95759 0.0
C1718 C 0.93125 0.75899 0.95136 0.0
C1719 C 0.93563 0.75331 0.92604 0.0
C1720 C 0.95679 0.74501 0.91655 0.0
C1721 C 0.97329 0.74199 0.93223 0.0
C1722 C 0.91815 0.75587 0.90945 0.0
C1723 C 0.91712 0.77137 0.88877 0.0
C1724 C 0.90218 0.74365 0.91443 0.0
C1725 C 0.90259 0.72684 0.93579 0.0
C1726 C 0.92035 0.70905 0.93791 0.0
C1727 C 0.92068 0.69338 0.95823 0.0
C1728 C 0.90328 0.69524 0.97647 0.0
C1729 C 0.88548 0.71275 0.97438 0.0
C1730 C 0.88508 0.72847 0.9541 0.0
C1731 C 0.85431 0.7663 0.81976 0.0
C1732 C 0.83303 0.77188 0.8303 0.0
C1733 C 0.8711 0.76306 0.83515 0.0
C1734 C 0.86695 0.76535 0.86136 0.0
C1735 C 0.84575 0.77063 0.87191 0.0
C1736 C 0.82903 0.77403 0.85658 0.0
C1737 C 0.88461 0.76265 0.87781 0.0
C1738 C 0.88565 0.74717 0.89855 0.0
C1739 C 0.90033 0.77524 0.87319 0.0
C1740 C 0.8988 0.79359 0.85346 0.0
C1741 C 0.88034 0.81078 0.85329 0.0
C1742 C 0.87904 0.82827 0.83499 0.0
C1743 C 0.89618 0.8289 0.81691 0.0
C1744 C 0.91462 0.81196 0.81698 0.0
C1745 C 0.91598 0.79437 0.8352 0.0
H1746 H 0.89523 0.8426 0.80297 0.0
H1747 H 0.90357 0.6831 0.99218 0.0
H1748 H 0.08029 0.30474 0.16541 0.0
H1749 H 0.10918 0.30768 0.18955 0.0
H1750 H 0.15032 0.30925 0.1206 0.0
H1751 H 0.12145 0.30582 0.09623 0.0
H1752 H 0.17018 0.28054 0.15374 0.0
H1753 H 0.1312 0.35569 0.15753 0.0
H1754 H 0.09972 0.38626 0.1652 0.0
H1755 H 0.09298 0.3639 0.24326 0.0
H1756 H 0.12426 0.33301 0.23598 0.0
H1757 H 0.25457 0.3038 0.21544 0.0
H1758 H 0.22613 0.30477 0.18869 0.0
H1759 H 0.18252 0.30038 0.25488 0.0
H1760 H 0.2109 0.29965 0.28189 0.0
H1761 H 0.16461 0.33216 0.22161 0.0
H1762 H 0.19377 0.25122 0.2124 0.0
H1763 H 0.22138 0.21735 0.20308 0.0
H1764 H 0.24552 0.2505 0.13658 0.0
H1765 H 0.21755 0.2843 0.14512 0.0
C1766 C 0.09535 0.30608 0.15524 0.0
C1767 C 0.09843 0.30503 0.12876 0.0
C1768 C 0.11192 0.30787 0.16915 0.0
C1769 C 0.13204 0.30889 0.15703 0.0
C1770 C 0.135 0.30853 0.1305 0.0
C1771 C 0.11839 0.3067 0.11653 0.0
C1772 C 0.15027 0.30868 0.17217 0.0
C1773 C 0.16903 0.29219 0.1682 0.0
C1774 C 0.14878 0.32334 0.19169 0.0
C1775 C 0.12998 0.34192 0.19615 0.0
C1776 C 0.12291 0.35719 0.17629 0.0
C1777 C 0.10512 0.37459 0.18058 0.0
C1778 C 0.09433 0.37699 0.20469 0.0
C1779 C 0.10134 0.36202 0.22458 0.0
C1780 C 0.11912 0.34457 0.22039 0.0
C1781 C 0.23894 0.30311 0.22442 0.0
C1782 C 0.23509 0.30188 0.25098 0.0
C1783 C 0.22268 0.30337 0.20899 0.0
C1784 C 0.2021 0.30239 0.21962 0.0
C1785 C 0.19822 0.3011 0.24612 0.0
C1786 C 0.21452 0.30071 0.26159 0.0
C1787 C 0.1844 0.30396 0.20319 0.0
C1788 C 0.16575 0.32071 0.20695 0.0
C1789 C 0.1859 0.28956 0.18349 0.0
C1790 C 0.2039 0.27028 0.17961 0.0
C1791 C 0.20512 0.25129 0.19594 0.0
C1792 C 0.22062 0.23204 0.19061 0.0
C1793 C 0.23521 0.23178 0.16926 0.0
C1794 C 0.23424 0.25073 0.15312 0.0
C1795 C 0.21849 0.26988 0.1581 0.0
H1796 H 0.24731 0.21691 0.16529 0.0
H1797 H 0.08056 0.39048 0.20797 0.0
H1798 H 0.07152 0.76281 0.96356 0.0
H1799 H 0.10402 0.76227 0.93502 0.0
H1800 H 0.10683 0.82575 0.95932 0.0
H1801 H 0.0748 0.82603 0.98862 0.0
H1802 H 0.11318 0.81762 0.9013 0.0
H1803 H 0.13859 0.79072 0.98256 0.0
H1804 H 0.14017 0.76588 0.02104 0.0
H1805 H 0.1629 0.70946 0.97591 0.0
H1806 H 0.16103 0.73397 0.93712 0.0
H1807 H 0.21462 0.82679 0.84348 0.0
H1808 H 0.18146 0.82728 0.86858 0.0
H1809 H 0.20185 0.75703 0.8858 0.0
H1810 H 0.23703 0.75815 0.86472 0.0
H1811 H 0.18142 0.76803 0.92238 0.0
H1812 H 0.1563 0.79445 0.83994 0.0
H1813 H 0.15086 0.81899 0.80124 0.0
H1814 H 0.12523 0.87493 0.84617 0.0
H1815 H 0.13077 0.85098 0.88505 0.0
C1816 C 0.07888 0.77681 0.96268 0.0
C1817 C 0.07031 0.79455 0.97843 0.0
C1818 C 0.09759 0.77641 0.94638 0.0
C1819 C 0.10805 0.79395 0.9449 0.0
C1820 C 0.09916 0.812 0.95999 0.0
C1821 C 0.08077 0.81215 0.97678 0.0
C1822 C 0.12844 0.79324 0.92809 0.0
C1823 C 0.1282 0.80687 0.90585 0.0
C1824 C 0.14797 0.77887 0.93362 0.0
C1825 C 0.14941 0.76416 0.95693 0.0
C1826 C 0.14371 0.773 0.98083 0.0
C1827 C 0.14469 0.75899 1.0027 0.0
C1828 C 0.15157 0.7361 1.00092 0.0
C1829 C 0.15753 0.72719 0.97726 0.0
C1830 C 0.15652 0.74114 0.95533 0.0
C1831 C 0.21177 0.81114 0.85148 0.0
C1832 C 0.22797 0.79167 0.84907 0.0
C1833 C 0.19235 0.8114 0.86607 0.0
C1834 C 0.18765 0.79192 0.87822 0.0
C1835 C 0.20411 0.77243 0.87629 0.0
C1836 C 0.22417 0.77262 0.86297 0.0
C1837 C 0.16663 0.79225 0.89449 0.0
C1838 C 0.16661 0.7786 0.91702 0.0
C1839 C 0.1467 0.80647 0.88891 0.0
C1840 C 0.14402 0.82088 0.86541 0.0
C1841 C 0.14964 0.81199 0.84154 0.0
C1842 C 0.14653 0.82579 0.8196 0.0
C1843 C 0.13763 0.84841 0.82129 0.0
C1844 C 0.13199 0.85738 0.8449 0.0
C1845 C 0.13515 0.84372 0.86688 0.0
H1846 H 0.13509 0.85901 0.8043 0.0
H1847 H 0.15232 0.72528 0.01787 0.0
H1848 H 0.31988 0.06978 1.00438 0.0
H1849 H 0.32626 0.09058 0.96427 0.0
H1850 H 0.29964 0.15188 1.00051 0.0
H1851 H 0.29265 0.13125 0.04003 0.0
H1852 H 0.28141 0.15216 0.95989 0.0
H1853 H 0.35449 0.13293 0.98023 0.0
H1854 H 0.38812 0.10741 0.99047 0.0
H1855 H 0.3923 0.07622 0.92055 0.0
H1856 H 0.35853 0.1014 0.91004 0.0
H1857 H 0.30758 0.23629 0.87996 0.0
H1858 H 0.30806 0.20778 0.9135 0.0
H1859 H 0.32657 0.15752 0.85905 0.0
H1860 H 0.32674 0.18645 0.82473 0.0
H1861 H 0.34837 0.14687 0.90379 0.0
H1862 H 0.27648 0.16975 0.88222 0.0
H1863 H 0.24267 0.19549 0.87317 0.0
H1864 H 0.23649 0.22085 0.9468 0.0
H1865 H 0.27041 0.19542 0.95624 0.0
C1866 C 0.31587 0.0877 1.00383 0.0
C1867 C 0.30569 0.09891 0.02528 0.0
C1868 C 0.31949 0.09959 0.9809 0.0
C1869 C 0.31334 0.12288 0.97923 0.0
C1870 C 0.30431 0.13397 1.00113 0.0
C1871 C 0.30042 0.12215 0.02379 0.0
C1872 C 0.31464 0.13593 0.95462 0.0
C1873 C 0.29615 0.1511 0.9478 0.0
C1874 C 0.3336 0.13399 0.93818 0.0
C1875 C 0.35386 0.11886 0.94449 0.0
C1876 C 0.36249 0.1205 0.96714 0.0
C1877 C 0.38159 0.10613 0.97297 0.0
C1878 C 0.3923 0.09016 0.95621 0.0
C1879 C 0.38396 0.08857 0.93354 0.0
C1880 C 0.36485 0.10289 0.92763 0.0
C1881 C 0.31235 0.21926 0.87488 0.0
C1882 C 0.31747 0.21379 0.84949 0.0
C1883 C 0.31231 0.20289 0.89422 0.0
C1884 C 0.31709 0.18051 0.88883 0.0
C1885 C 0.32278 0.17473 0.86363 0.0
C1886 C 0.32283 0.19127 0.84405 0.0
C1887 C 0.31536 0.1636 0.9098 0.0
C1888 C 0.33364 0.14769 0.91582 0.0
C1889 C 0.29623 0.16494 0.92575 0.0
C1890 C 0.27605 0.18067 0.91991 0.0
C1891 C 0.26802 0.18093 0.89641 0.0
C1892 C 0.2488 0.19544 0.89124 0.0
C1893 C 0.23739 0.2097 0.90947 0.0
C1894 C 0.2453 0.20969 0.93278 0.0
C1895 C 0.26451 0.19521 0.93805 0.0
H1896 H 0.22242 0.22073 0.90556 0.0
H1897 H 0.40709 0.07905 0.96076 0.0
H1898 H 1.00737 0.26163 0.03907 0.0
H1899 H 0.97862 0.27012 0.01169 0.0
H1900 H 0.99921 0.32866 0.98096 0.0
H1901 H 0.02803 0.32043 1.0093 0.0
H1902 H 0.95673 0.33666 0.98613 0.0
H1903 H 1.01138 0.28012 0.94857 0.0
H1904 H 0.03799 0.24463 0.94682 0.0
H1905 H 0.98856 0.20926 0.96605 0.0
H1906 H 0.96166 0.24455 0.96829 0.0
H1907 H 0.89506 0.34836 0.88246 0.0
H1908 H 0.92628 0.34069 0.90629 0.0
H1909 H 0.90569 0.28532 0.94625 0.0
H1910 H 0.87413 0.29307 0.92246 0.0
H1911 H 0.94959 0.27664 0.93399 0.0
H1912 H 0.89529 0.33417 0.97298 0.0
H1913 H 0.86913 0.36999 0.97352 0.0
H1914 H 0.91899 0.40394 0.94973 0.0
H1915 H 0.94542 0.36827 0.94868 0.0
C1916 C 1.00578 0.27641 0.02659 0.0
C1917 C 1.02018 0.29021 0.02612 0.0
C1918 C 0.98934 0.28119 0.0108 0.0
C1919 C 0.98704 0.29965 0.99359 0.0
C1920 C 1.00077 0.31415 0.99385 0.0
C1921 C 1.0172 0.3095 1.01007 0.0
C1922 C 0.97044 0.30335 0.97535 0.0
C1923 C 0.95544 0.32365 0.97441 0.0
C1924 C 0.9684 0.28629 0.96025 0.0
C1925 C 0.98452 0.265 0.95878 0.0
C1926 C 1.00619 0.26478 0.95259 0.0
C1927 C 1.02133 0.2447 0.95149 0.0
C1928 C 1.01497 0.22471 0.95637 0.0
C1929 C 0.99346 0.22476 0.9623 0.0
C1930 C 0.97826 0.2448 0.96346 0.0
C1931 C 0.89725 0.33439 0.89615 0.0
C1932 C 0.88192 0.3215 0.90079 0.0
C1933 C 0.91512 0.33006 0.90981 0.0
C1934 C 0.91813 0.31275 0.9285 0.0
C1935 C 0.90363 0.29889 0.93205 0.0
C1936 C 0.88566 0.30324 0.91834 0.0
C1937 C 0.93584 0.30982 0.94504 0.0
C1938 C 0.95102 0.28966 0.94561 0.0
C1939 C 0.93815 0.32706 0.95962 0.0
C1940 C 0.9223 0.34853 0.96051 0.0
C1941 C 0.90066 0.34926 0.96769 0.0
C1942 C 0.88578 0.36954 0.96811 0.0
C1943 C 0.89238 0.38922 0.9616 0.0
C1944 C 0.91389 0.38868 0.95473 0.0
C1945 C 0.92883 0.36843 0.95424 0.0
H1946 H 0.88084 0.40491 0.96193 0.0
H1947 H 0.02672 0.20918 0.95551 0.0
H1948 H 0.77426 0.98435 0.93865 0.0
H1949 H 0.76501 0.95899 0.91111 0.0
H1950 H 0.82917 0.91921 0.90916 0.0
H1951 H 0.83853 0.94443 0.93644 0.0
H1952 H 0.81615 0.92524 0.8629 0.0
H1953 H 0.78852 0.90267 0.94521 0.0
H1954 H 0.7672 0.90735 0.98642 0.0
H1955 H 0.7099 0.92817 0.94904 0.0
H1956 H 0.73092 0.92391 0.90757 0.0
H1957 H 0.79571 0.81986 0.83411 0.0
H1958 H 0.79854 0.8477 0.8625 0.0
H1959 H 0.75693 0.89776 0.81941 0.0
H1960 H 0.7545 0.8699 0.7903 0.0
H1961 H 0.75697 0.88745 0.88723 0.0
H1962 H 0.78755 0.91446 0.80403 0.0
H1963 H 0.8105 0.90799 0.76408 0.0
H1964 H 0.86383 0.87688 0.80533 0.0
H1965 H 0.84097 0.88257 0.84557 0.0
C1966 C 0.7864 0.97022 0.93233 0.0
C1967 C 0.80715 0.96646 0.93981 0.0
C1968 C 0.78107 0.95566 0.91667 0.0
C1969 C 0.79635 0.93705 0.90816 0.0
C1970 C 0.81709 0.93343 0.91542 0.0
C1971 C 0.8224 0.94788 0.93112 0.0
C1972 C 0.79093 0.92137 0.89153 0.0
C1973 C 0.80318 0.91705 0.86832 0.0
C1974 C 0.77398 0.9106 0.89839 0.0
C1975 C 0.76132 0.91324 0.92328 0.0
C1976 C 0.77139 0.90846 0.94577 0.0
C1977 C 0.75936 0.91099 0.96917 0.0
C1978 C 0.73722 0.91813 0.97034 0.0
C1979 C 0.72706 0.92269 0.9481 0.0
C1980 C 0.73902 0.92021 0.92464 0.0
C1981 C 0.78678 0.83664 0.83091 0.0
C1982 C 0.77463 0.84262 0.81011 0.0
C1983 C 0.78852 0.85259 0.84711 0.0
C1984 C 0.77812 0.8748 0.84289 0.0
C1985 C 0.76524 0.88071 0.82283 0.0
C1986 C 0.7638 0.86481 0.80631 0.0
C1987 C 0.78189 0.89188 0.85862 0.0
C1988 C 0.76961 0.8961 0.88176 0.0
C1989 C 0.79884 0.90253 0.85181 0.0
C1990 C 0.81247 0.89854 0.82773 0.0
C1991 C 0.80406 0.90583 0.80455 0.0
C1992 C 0.81707 0.90237 0.78188 0.0
C1993 C 0.83858 0.8919 0.78218 0.0
C1994 C 0.84713 0.88483 0.80515 0.0
C1995 C 0.83415 0.88812 0.82789 0.0
H1996 H 0.84865 0.88944 0.76462 0.0
H1997 H 0.72793 0.92007 0.98848 0.0
H1998 H 0.98841 0.76287 0.10975 0.0
H1999 H 0.95906 0.76837 0.14307 0.0
H2000 H 0.91678 0.80509 0.08974 0.0
H2001 H 0.94668 0.80009 0.05624 0.0
H2002 H 0.90471 0.82191 0.1361 0.0
H2003 H 0.91876 0.74982 0.10546 0.0
H2004 H 0.94034 0.71352 0.09277 0.0
H2005 H 0.95804 0.69749 0.16841 0.0
H2006 H 0.93681 0.73386 0.18149 0.0
H2007 H 0.81496 0.80385 0.22196 0.0
H2008 H 0.8403 0.80397 0.18422 0.0
H2009 H 0.8914 0.7689 0.22756 0.0
H2010 H 0.86607 0.7685 0.26506 0.0
H2011 H 0.89568 0.75189 0.18242 0.0
H2012 H 0.88154 0.82592 0.21187 0.0
H2013 H 0.85777 0.86142 0.22381 0.0
H2014 H 0.83792 0.87334 0.14886 0.0
H2015 H 0.86119 0.83756 0.13656 0.0
C2016 C 0.97302 0.77274 0.10523 0.0
C2017 C 0.97007 0.78131 0.08033 0.0
C2018 C 0.95607 0.77565 0.12432 0.0
C2019 C 0.93531 0.78668 0.11909 0.0
C2020 C 0.9325 0.79642 0.09449 0.0
C2021 C 0.94968 0.79372 0.07531 0.0
C2022 C 0.91674 0.78656 0.13896 0.0
C2023 C 0.90261 0.80653 0.14593 0.0
C2024 C 0.91364 0.76661 0.15212 0.0
C2025 C 0.92633 0.74465 0.1444 0.0
C2026 C 0.92737 0.73862 0.11936 0.0
C2027 C 0.93953 0.71802 0.11209 0.0
C2028 C 0.95059 0.70323 0.12976 0.0
C2029 C 0.94947 0.70898 0.15474 0.0
C2030 C 0.93736 0.72958 0.1621 0.0
C2031 C 0.83154 0.79592 0.22337 0.0
C2032 C 0.83837 0.78584 0.24657 0.0
C2033 C 0.84614 0.79619 0.20176 0.0
C2034 C 0.86803 0.78662 0.20281 0.0
C2035 C 0.87472 0.7764 0.22596 0.0
C2036 C 0.86019 0.7762 0.24751 0.0
C2037 C 0.88413 0.78724 0.18015 0.0
C2038 C 0.89775 0.76727 0.17255 0.0
C2039 C 0.88649 0.80715 0.16631 0.0
C2040 C 0.87295 0.82893 0.17338 0.0
C2041 C 0.872 0.83602 0.19796 0.0
C2042 C 0.85858 0.85617 0.2048 0.0
C2043 C 0.84623 0.86953 0.18712 0.0
C2044 C 0.84739 0.86285 0.16253 0.0
C2045 C 0.86069 0.84264 0.15562 0.0
H2046 H 0.83583 0.88511 0.19245 0.0
H2047 H 0.96 0.68729 0.1241 0.0
H2048 H 0.28157 0.97309 0.09611 0.0
H2049 H 0.29139 0.93684 0.11826 0.0
H2050 H 0.33556 0.9604 0.15791 0.0
H2051 H 0.32652 0.9965 0.13446 0.0
H2052 H 0.35096 0.91865 0.1509 0.0
H2053 H 0.28279 0.9601 0.18372 0.0
H2054 H 0.24581 0.98166 0.18202 0.0
H2055 H 0.22855 0.92622 0.15383 0.0
H2056 H 0.2655 0.90444 0.15499 0.0
H2057 H 0.30267 0.84218 0.25631 0.0
H2058 H 0.30307 0.87733 0.23365 0.0
H2059 H 0.34842 0.84373 0.17605 0.0
H2060 H 0.34958 0.80852 0.20038 0.0
H2061 H 0.28923 0.8917 0.19347 0.0
H2062 H 0.37295 0.87738 0.1393 0.0
H2063 H 0.41006 0.85839 0.14565 0.0
H2064 H 0.39649 0.86406 0.22574 0.0
H2065 H 0.35927 0.88315 0.2198 0.0
C2066 C 0.29375 0.97033 0.10913 0.0
C2067 C 0.30326 0.98754 0.11368 0.0
C2068 C 0.29923 0.94967 0.12198 0.0
C2069 C 0.31372 0.946 0.14046 0.0
C2070 C 0.32421 0.96281 0.14392 0.0
C2071 C 0.31911 0.98341 0.1305 0.0
C2072 C 0.31677 0.92525 0.15713 0.0
C2073 C 0.33747 0.91277 0.16025 0.0
C2074 C 0.29924 0.91767 0.16986 0.0
C2075 C 0.27697 0.93072 0.16921 0.0
C2076 C 0.27114 0.95256 0.177 0.0
C2077 C 0.25019 0.96481 0.17614 0.0
C2078 C 0.23487 0.95534 0.16771 0.0
C2079 C 0.24045 0.93356 0.16027 0.0
C2080 C 0.26139 0.92125 0.16103 0.0
C2081 C 0.31342 0.84223 0.23947 0.0
C2082 C 0.32658 0.82246 0.23071 0.0
C2083 C 0.3134 0.86248 0.22615 0.0
C2084 C 0.32587 0.86351 0.20302 0.0
C2085 C 0.33906 0.84374 0.19413 0.0
C2086 C 0.33957 0.8235 0.20796 0.0
C2087 C 0.32349 0.88492 0.18744 0.0
C2088 C 0.30283 0.89753 0.18433 0.0
C2089 C 0.34106 0.89291 0.17544 0.0
C2090 C 0.36333 0.88144 0.17915 0.0
C2091 C 0.37791 0.87457 0.15826 0.0
C2092 C 0.39893 0.86377 0.16178 0.0
C2093 C 0.40558 0.85991 0.18611 0.0
C2094 C 0.39125 0.8669 0.20695 0.0
C2095 C 0.37019 0.87764 0.20353 0.0
H2096 H 0.42187 0.85158 0.1888 0.0
H2097 H 0.21869 0.96487 0.16696 0.0
H2098 H 0.85388 0.08128 0.97843 0.0
H2099 H 0.84457 0.10734 0.01194 0.0
H2100 H 0.80762 0.06527 0.05444 0.0
H2101 H 0.8171 0.03914 0.02122 0.0
H2102 H 0.78687 0.10936 0.05436 0.0
H2103 H 0.85595 0.06488 0.07027 0.0
H2104 H 0.89394 0.048 0.05965 0.0
H2105 H 0.90703 0.11255 0.04491 0.0
H2106 H 0.86902 0.12982 0.05511 0.0
H2107 H 0.77513 0.14642 0.1765 0.0
H2108 H 0.78722 0.12342 0.14046 0.0
H2109 H 0.82048 0.17173 0.10464 0.0
H2110 H 0.80806 0.1952 0.14081 0.0
H2111 H 0.84345 0.12732 0.09896 0.0
H2112 H 0.77442 0.17178 0.08573 0.0
H2113 H 0.73646 0.18834 0.09694 0.0
H2114 H 0.72319 0.12363 0.10672 0.0
H2115 H 0.76116 0.10664 0.09596 0.0
C2116 C 0.84378 0.07746 0.99491 0.0
C2117 C 0.8363 0.05781 0.997 0.0
C2118 C 0.83849 0.09245 0.01408 0.0
C2119 C 0.82559 0.08817 0.03588 0.0
C2120 C 0.81765 0.06893 0.03781 0.0
C2121 C 0.82311 0.05386 0.01871 0.0
C2122 C 0.82062 0.10355 0.05684 0.0
C2123 C 0.79923 0.1131 0.06427 0.0
C2124 C 0.83677 0.10897 0.06931 0.0
C2125 C 0.85961 0.09863 0.06317 0.0
C2126 C 0.86689 0.07547 0.06454 0.0
C2127 C 0.88843 0.06583 0.05864 0.0
C2128 C 0.90287 0.07919 0.05153 0.0
C2129 C 0.89581 0.10222 0.05037 0.0
C2130 C 0.87428 0.11195 0.05622 0.0
C2131 C 0.78508 0.15218 0.16102 0.0
C2132 C 0.7903 0.17287 0.16134 0.0
C2133 C 0.792 0.13898 0.14042 0.0
C2134 C 0.80437 0.14605 0.1196 0.0
C2135 C 0.81079 0.16603 0.12044 0.0
C2136 C 0.80377 0.17938 0.14115 0.0
C2137 C 0.80969 0.13283 0.09674 0.0
C2138 C 0.8311 0.12371 0.08892 0.0
C2139 C 0.79356 0.12778 0.08389 0.0
C2140 C 0.77069 0.13793 0.09027 0.0
C2141 C 0.76345 0.16106 0.09048 0.0
C2142 C 0.74192 0.17053 0.09672 0.0
C2143 C 0.72743 0.15704 0.1026 0.0
C2144 C 0.73444 0.13405 0.10219 0.0
C2145 C 0.75596 0.1245 0.09601 0.0
H2146 H 0.71077 0.16441 0.10742 0.0
H2147 H 0.91955 0.0717 0.04699 0.0
H2148 H 0.57093 0.60424 0.82376 0.0
H2149 H 0.59601 0.62831 0.82109 0.0
H2150 H 0.60044 0.61781 0.90143 0.0
H2151 H 0.57516 0.59396 0.9042 0.0
H2152 H 0.59601 0.65978 0.88854 0.0
H2153 H 0.64097 0.59308 0.85681 0.0
H2154 H 0.65191 0.56162 0.82922 0.0
H2155 H 0.65361 0.60657 0.76408 0.0
H2156 H 0.64238 0.63833 0.79125 0.0
H2157 H 0.68494 0.70464 0.89643 0.0
H2158 H 0.66313 0.67763 0.89606 0.0
H2159 H 0.65407 0.69611 0.81773 0.0
H2160 H 0.67566 0.72351 0.81801 0.0
H2161 H 0.6611 0.65036 0.82855 0.0
H2162 H 0.61594 0.71696 0.86115 0.0
H2163 H 0.60573 0.74798 0.88938 0.0
H2164 H 0.60518 0.70215 0.95386 0.0
H2165 H 0.61571 0.67083 0.92602 0.0
C2166 C 0.57742 0.60686 0.84081 0.0
C2167 C 0.57103 0.59716 0.8642 0.0
C2168 C 0.5918 0.62062 0.83926 0.0
C2169 C 0.60035 0.62472 0.86102 0.0
C2170 C 0.59405 0.61496 0.88437 0.0
C2171 C 0.57954 0.60137 0.88596 0.0
C2172 C 0.61528 0.63974 0.85967 0.0
C2173 C 0.61039 0.65747 0.87566 0.0
C2174 C 0.63382 0.63716 0.84243 0.0
C2175 C 0.64062 0.61809 0.82605 0.0
C2176 C 0.64351 0.59626 0.83658 0.0
C2177 C 0.64979 0.57838 0.82102 0.0
C2178 C 0.65339 0.5821 0.79491 0.0
C2179 C 0.65078 0.60371 0.78431 0.0
C2180 C 0.64447 0.62166 0.79978 0.0
C2181 C 0.67829 0.70303 0.87911 0.0
C2182 C 0.68183 0.7165 0.85735 0.0
C2183 C 0.6659 0.6875 0.87891 0.0
C2184 C 0.65672 0.68509 0.85698 0.0
C2185 C 0.66099 0.69773 0.83487 0.0
C2186 C 0.67338 0.71335 0.83506 0.0
C2187 C 0.64186 0.67013 0.85757 0.0
C2188 C 0.64672 0.65254 0.84142 0.0
C2189 C 0.62333 0.67273 0.87475 0.0
C2190 C 0.6168 0.69155 0.89151 0.0
C2191 C 0.61379 0.71349 0.88136 0.0
C2192 C 0.60793 0.73113 0.89729 0.0
C2193 C 0.60486 0.72704 0.92341 0.0
C2194 C 0.60759 0.7053 0.93364 0.0
C2195 C 0.61349 0.68759 0.91779 0.0
H2196 H 0.60031 0.74072 0.93571 0.0
H2197 H 0.65826 0.56823 0.7829 0.0
H2198 H 0.48474 0.60372 0.8014 0.0
H2199 H 0.45361 0.63393 0.79364 0.0
H2200 H 0.41231 0.59546 0.83453 0.0
H2201 H 0.44321 0.56563 0.84271 0.0
H2202 H 0.39524 0.62052 0.79018 0.0
H2203 H 0.4274 0.62971 0.86589 0.0
H2204 H 0.45752 0.63317 0.88854 0.0
H2205 H 0.46482 0.69011 0.84048 0.0
H2206 H 0.43492 0.68677 0.81729 0.0
H2207 H 0.3024 0.70585 0.8195 0.0
H2208 H 0.33223 0.6733 0.82028 0.0
H2209 H 0.37643 0.71608 0.80714 0.0
H2210 H 0.34708 0.74809 0.80849 0.0
H2211 H 0.39274 0.68758 0.83577 0.0
H2212 H 0.36035 0.68131 0.76066 0.0
H2213 H 0.33194 0.6781 0.73524 0.0
H2214 H 0.32636 0.61739 0.77649 0.0
H2215 H 0.35464 0.62039 0.80251 0.0
C2216 C 0.46897 0.60151 0.8081 0.0
C2217 C 0.4664 0.58234 0.8227 0.0
C2218 C 0.4512 0.6188 0.80379 0.0
C2219 C 0.4306 0.61701 0.81365 0.0
C2220 C 0.42798 0.59723 0.82669 0.0
C2221 C 0.44568 0.58021 0.8314 0.0
C2222 C 0.41206 0.63638 0.81288 0.0
C2223 C 0.39457 0.63524 0.80013 0.0
C2224 C 0.41134 0.65568 0.82554 0.0
C2225 C 0.4291 0.65784 0.8397 0.0
C2226 C 0.43553 0.64286 0.86004 0.0
C2227 C 0.45255 0.64482 0.87299 0.0
C2228 C 0.46311 0.66181 0.86591 0.0
C2229 C 0.45664 0.67693 0.84591 0.0
C2230 C 0.43967 0.67502 0.83287 0.0
C2231 C 0.31853 0.7082 0.81693 0.0
C2232 C 0.32225 0.72966 0.81394 0.0
C2233 C 0.33566 0.68954 0.81704 0.0
C2234 C 0.35691 0.6919 0.81305 0.0
C2235 C 0.36043 0.71343 0.81018 0.0
C2236 C 0.34344 0.73194 0.8109 0.0
C2237 C 0.37562 0.67233 0.81243 0.0
C2238 C 0.39323 0.67322 0.82528 0.0
C2239 C 0.37656 0.65304 0.7993 0.0
C2240 C 0.35953 0.6512 0.78368 0.0
C2241 C 0.35303 0.66734 0.76441 0.0
C2242 C 0.33693 0.66556 0.74988 0.0
C2243 C 0.3273 0.64759 0.75423 0.0
C2244 C 0.33381 0.63133 0.77314 0.0
C2245 C 0.34988 0.63306 0.7878 0.0
H2246 H 0.31484 0.64626 0.74291 0.0
H2247 H 0.47628 0.6633 0.87595 0.0
H2248 H 0.49663 0.45609 0.89708 0.0
H2249 H 0.47519 0.42946 0.89283 0.0
H2250 H 0.45218 0.46569 0.82529 0.0
H2251 H 0.47244 0.49302 0.83018 0.0
H2252 H 0.42072 0.45531 0.85288 0.0
H2253 H 0.4903 0.41538 0.82417 0.0
H2254 H 0.52867 0.39964 0.82629 0.0
H2255 H 0.51511 0.35893 0.89197 0.0
H2256 H 0.47663 0.3747 0.89048 0.0
H2257 H 0.37292 0.37431 0.81379 0.0
H2258 H 0.40047 0.39542 0.8134 0.0
H2259 H 0.41183 0.37074 0.88968 0.0
H2260 H 0.38421 0.34971 0.89022 0.0
H2261 H 0.45005 0.37409 0.85599 0.0
H2262 H 0.37989 0.41701 0.88451 0.0
H2263 H 0.34179 0.43285 0.88026 0.0
H2264 H 0.35771 0.46802 0.81104 0.0
H2265 H 0.39592 0.45208 0.81469 0.0
C2266 C 0.4869 0.45856 0.88143 0.0
C2267 C 0.48644 0.47681 0.86395 0.0
C2268 C 0.47484 0.4431 0.87883 0.0
C2269 C 0.4623 0.44534 0.8585 0.0
C2270 C 0.4618 0.46351 0.84107 0.0
C2271 C 0.47363 0.47907 0.8438 0.0
C2272 C 0.44905 0.4293 0.85582 0.0
C2273 C 0.42729 0.43759 0.85315 0.0
C2274 C 0.45746 0.40611 0.85654 0.0
C2275 C 0.48058 0.39639 0.85735 0.0
C2276 C 0.4955 0.40319 0.83918 0.0
C2277 C 0.51727 0.39424 0.84025 0.0
C2278 C 0.52433 0.37833 0.85929 0.0
C2279 C 0.50962 0.37128 0.87725 0.0
C2280 C 0.48782 0.3802 0.87629 0.0
C2281 C 0.38166 0.37299 0.83023 0.0
C2282 C 0.37637 0.36055 0.8521 0.0
C2283 C 0.39732 0.38507 0.83001 0.0
C2284 C 0.40804 0.38471 0.85158 0.0
C2285 C 0.40375 0.37118 0.87286 0.0
C2286 C 0.38791 0.35932 0.87319 0.0
C2287 C 0.42196 0.40024 0.85296 0.0
C2288 C 0.4437 0.39185 0.8555 0.0
C2289 C 0.41367 0.42338 0.85176 0.0
C2290 C 0.39072 0.43317 0.84973 0.0
C2291 C 0.37525 0.42798 0.86828 0.0
C2292 C 0.35364 0.43699 0.866 0.0
C2293 C 0.34733 0.45139 0.84536 0.0
C2294 C 0.36262 0.45684 0.82699 0.0
C2295 C 0.38425 0.44782 0.82916 0.0
H2296 H 0.33059 0.45835 0.84363 0.0
H2297 H 0.5412 0.37144 0.8601 0.0
H2298 H 0.56441 0.48224 0.79662 0.0
H2299 H 0.59276 0.4492 0.78675 0.0
H2300 H 0.63635 0.47531 0.82439 0.0
H2301 H 0.60819 0.50788 0.83455 0.0
H2302 H 0.65502 0.45474 0.77926 0.0
H2303 H 0.60968 0.44068 0.85571 0.0
H2304 H 0.57507 0.43768 0.87811 0.0
H2305 H 0.57065 0.38822 0.82849 0.0
H2306 H 0.60506 0.39124 0.80552 0.0
H2307 H 0.7374 0.37167 0.81963 0.0
H2308 H 0.70653 0.40179 0.81604 0.0
H2309 H 0.67051 0.35619 0.79719 0.0
H2310 H 0.70132 0.32534 0.80284 0.0
H2311 H 0.64538 0.38455 0.82463 0.0
H2312 H 0.69098 0.39358 0.75119 0.0
H2313 H 0.72377 0.3967 0.72455 0.0
H2314 H 0.72652 0.45416 0.76233 0.0
H2315 H 0.69379 0.45137 0.78935 0.0
C2316 C 0.58022 0.48115 0.80211 0.0
C2317 C 0.58414 0.49765 0.81628 0.0
C2318 C 0.59634 0.46221 0.79667 0.0
C2319 C 0.61665 0.45967 0.80504 0.0
C2320 C 0.62085 0.47685 0.81773 0.0
C2321 C 0.60474 0.49549 0.82352 0.0
C2322 C 0.63326 0.43867 0.80251 0.0
C2323 C 0.65298 0.43937 0.78918 0.0
C2324 C 0.63032 0.41837 0.81461 0.0
C2325 C 0.6098 0.41638 0.82871 0.0
C2326 C 0.60124 0.4293 0.84946 0.0
C2327 C 0.58166 0.42758 0.86227 0.0
C2328 C 0.57062 0.41283 0.85468 0.0
C2329 C 0.57917 0.3997 0.83431 0.0
C2330 C 0.59871 0.4014 0.82139 0.0
C2331 C 0.72287 0.36776 0.81544 0.0
C2332 C 0.72196 0.34582 0.81211 0.0
C2333 C 0.70519 0.38525 0.81274 0.0
C2334 C 0.68616 0.38157 0.80562 0.0
C2335 C 0.68499 0.35963 0.80254 0.0
C2336 C 0.70267 0.34195 0.80579 0.0
C2337 C 0.66759 0.40068 0.802 0.0
C2338 C 0.64747 0.39969 0.81421 0.0
C2339 C 0.67002 0.42061 0.78831 0.0
C2340 C 0.68994 0.42219 0.77239 0.0
C2341 C 0.69865 0.40679 0.75396 0.0
C2342 C 0.71721 0.40852 0.73876 0.0
C2343 C 0.72722 0.42559 0.74175 0.0
C2344 C 0.71872 0.44096 0.76001 0.0
C2345 C 0.70013 0.43935 0.77524 0.0
H2346 H 0.7415 0.42695 0.72987 0.0
H2347 H 0.55546 0.41154 0.86461 0.0
H2348 H 0.59345 0.46435 0.26829 0.0
H2349 H 0.62363 0.43283 0.25871 0.0
H2350 H 0.66201 0.45876 0.30438 0.0
H2351 H 0.63197 0.48974 0.31437 0.0
H2352 H 0.68463 0.44101 0.25861 0.0
H2353 H 0.63856 0.42128 0.33053 0.0
H2354 H 0.60416 0.41625 0.3517 0.0
H2355 H 0.60121 0.37022 0.29709 0.0
H2356 H 0.63549 0.37523 0.27538 0.0
H2357 H 0.76735 0.34851 0.2886 0.0
H2358 H 0.73812 0.38137 0.28857 0.0
H2359 H 0.69766 0.34345 0.26256 0.0
H2360 H 0.72614 0.31038 0.26467 0.0
H2361 H 0.67516 0.36762 0.29456 0.0
H2362 H 0.72148 0.38431 0.22362 0.0
H2363 H 0.75524 0.38922 0.2005 0.0
H2364 H 0.75714 0.44044 0.249 0.0
H2365 H 0.72353 0.43562 0.27264 0.0
C2366 C 0.6085 0.46356 0.27572 0.0
C2367 C 0.61038 0.47951 0.29203 0.0
C2368 C 0.62569 0.44548 0.2704 0.0
C2369 C 0.64509 0.44333 0.28097 0.0
C2370 C 0.64728 0.46002 0.29598 0.0
C2371 C 0.63007 0.47773 0.30168 0.0
C2372 C 0.66263 0.42303 0.27821 0.0
C2373 C 0.68263 0.42495 0.26651 0.0
C2374 C 0.65995 0.40196 0.28803 0.0
C2375 C 0.63944 0.39884 0.30117 0.0
C2376 C 0.63049 0.41024 0.32292 0.0
C2377 C 0.61103 0.40736 0.33504 0.0
C2378 C 0.60047 0.39298 0.3257 0.0
C2379 C 0.60938 0.38139 0.30427 0.0
C2380 C 0.62883 0.38423 0.29206 0.0
C2381 C 0.75228 0.34714 0.28275 0.0
C2382 C 0.74945 0.32667 0.27597 0.0
C2383 C 0.73552 0.3661 0.28251 0.0
C2384 C 0.7156 0.36528 0.27492 0.0
C2385 C 0.71279 0.34482 0.26828 0.0
C2386 C 0.72935 0.32582 0.26905 0.0
C2387 C 0.69746 0.38538 0.27482 0.0
C2388 C 0.67729 0.38351 0.2862 0.0
C2389 C 0.69993 0.40642 0.26429 0.0
C2390 C 0.72007 0.40947 0.25003 0.0
C2391 C 0.72917 0.39652 0.22945 0.0
C2392 C 0.74827 0.3993 0.21624 0.0
C2393 C 0.75835 0.4151 0.22331 0.0
C2394 C 0.74932 0.42819 0.24356 0.0
C2395 C 0.73023 0.42546 0.25686 0.0
H2396 H 0.77314 0.41722 0.21307 0.0
H2397 H 0.5854 0.39077 0.3351 0.0
H2398 H 0.62218 0.55592 0.30675 0.0
H2399 H 0.6481 0.57881 0.29956 0.0
H2400 H 0.61387 0.62097 0.35806 0.0
H2401 H 0.58715 0.59855 0.3646 0.0
H2402 H 0.62388 0.6453 0.31796 0.0
H2403 H 0.66273 0.58535 0.3667 0.0
H2404 H 0.67791 0.54646 0.37977 0.0
H2405 H 0.71519 0.5374 0.30821 0.0
H2406 H 0.70002 0.57614 0.29455 0.0
H2407 H 0.70487 0.70587 0.29703 0.0
H2408 H 0.68151 0.68327 0.31827 0.0
H2409 H 0.70773 0.6322 0.26594 0.0
H2410 H 0.7325 0.65385 0.24615 0.0
H2411 H 0.7018 0.61382 0.31069 0.0
H2412 H 0.65755 0.67275 0.26056 0.0
H2413 H 0.64319 0.71216 0.24877 0.0
H2414 H 0.61687 0.72331 0.3253 0.0
H2415 H 0.63115 0.68397 0.33753 0.0
C2416 C 0.62005 0.57008 0.31807 0.0
C2417 C 0.60242 0.57547 0.33611 0.0
C2418 C 0.6351 0.58302 0.31417 0.0
C2419 C 0.63314 0.60149 0.32848 0.0
C2420 C 0.61578 0.60674 0.34686 0.0
C2421 C 0.6006 0.59381 0.35071 0.0
C2422 C 0.64864 0.61586 0.32305 0.0
C2423 C 0.64093 0.63847 0.31686 0.0
C2424 C 0.6709 0.607 0.3214 0.0
C2425 C 0.68012 0.58365 0.32955 0.0
C2426 C 0.67405 0.57503 0.35367 0.0
C2427 C 0.68268 0.55301 0.3612 0.0
C2428 C 0.69749 0.53946 0.34482 0.0
C2429 C 0.70372 0.54791 0.32089 0.0
C2430 C 0.69514 0.56991 0.31325 0.0
C2431 C 0.70605 0.68962 0.29042 0.0
C2432 C 0.72066 0.68175 0.26985 0.0
C2433 C 0.69238 0.67683 0.30233 0.0
C2434 C 0.69249 0.65616 0.29343 0.0
C2435 C 0.70723 0.64813 0.27313 0.0
C2436 C 0.72122 0.6607 0.26157 0.0
C2437 C 0.67703 0.643 0.30468 0.0
C2438 C 0.68475 0.62065 0.31207 0.0
C2439 C 0.6548 0.6521 0.30756 0.0
C2440 C 0.64551 0.6755 0.29997 0.0
C2441 C 0.64868 0.68363 0.27484 0.0
C2442 C 0.64057 0.70594 0.26809 0.0
C2443 C 0.62915 0.72024 0.28628 0.0
C2444 C 0.6257 0.71222 0.31123 0.0
C2445 C 0.63375 0.68991 0.31807 0.0
H2446 H 0.62297 0.73753 0.28105 0.0
H2447 H 0.70415 0.52242 0.35069 0.0
H2448 H 0.47413 0.56996 0.30676 0.0
H2449 H 0.44954 0.60493 0.2963 0.0
H2450 H 0.50201 0.63109 0.26053 0.0
H2451 H 0.52684 0.59558 0.27054 0.0
H2452 H 0.47301 0.65896 0.2983 0.0
H2453 H 0.47066 0.62303 0.22317 0.0
H2454 H 0.46761 0.59241 0.19825 0.0
H2455 H 0.40488 0.59434 0.23461 0.0
H2456 H 0.40767 0.62476 0.26004 0.0
H2457 H 0.39062 0.75714 0.27212 0.0
H2458 H 0.42293 0.72705 0.26995 0.0
H2459 H 0.3839 0.67905 0.2818 0.0
H2460 H 0.35221 0.70857 0.28192 0.0
H2461 H 0.41175 0.66509 0.24815 0.0
H2462 H 0.4166 0.69437 0.32903 0.0
H2463 H 0.41907 0.72355 0.35664 0.0
H2464 H 0.47595 0.73284 0.31231 0.0
H2465 H 0.47363 0.70387 0.28437 0.0
C2466 C 0.48041 0.58297 0.29616 0.0
C2467 C 0.50239 0.57994 0.28924 0.0
C2468 C 0.46634 0.603 0.29026 0.0
C2469 C 0.47389 0.6207 0.27768 0.0
C2470 C 0.49582 0.61766 0.27025 0.0
C2471 C 0.50995 0.59731 0.27571 0.0
C2472 C 0.45865 0.64242 0.27343 0.0
C2473 C 0.45982 0.66051 0.28693 0.0
C2474 C 0.44123 0.64436 0.25897 0.0
C2475 C 0.43944 0.6261 0.24364 0.0
C2476 C 0.45628 0.61682 0.22601 0.0
C2477 C 0.45458 0.59951 0.21176 0.0
C2478 C 0.43608 0.59141 0.21487 0.0
C2479 C 0.41921 0.60063 0.23222 0.0
C2480 C 0.42083 0.61793 0.24653 0.0
C2481 C 0.38905 0.74013 0.27436 0.0
C2482 C 0.36877 0.73535 0.27718 0.0
C2483 C 0.40756 0.72287 0.27326 0.0
C2484 C 0.40611 0.70049 0.27584 0.0
C2485 C 0.38575 0.69596 0.27941 0.0
C2486 C 0.36746 0.71303 0.27972 0.0
C2487 C 0.42533 0.68149 0.27416 0.0
C2488 C 0.42501 0.66382 0.25936 0.0
C2489 C 0.44332 0.67986 0.28775 0.0
C2490 C 0.44474 0.69723 0.30448 0.0
C2491 C 0.42949 0.7028 0.32511 0.0
C2492 C 0.43089 0.71925 0.34081 0.0
C2493 C 0.44759 0.73011 0.33615 0.0
C2494 C 0.46298 0.72447 0.31585 0.0
C2495 C 0.46163 0.70803 0.3001 0.0
H2496 H 0.44866 0.74285 0.34832 0.0
H2497 H 0.43479 0.57801 0.20382 0.0
H2498 H 0.5054 0.44936 0.35542 0.0
H2499 H 0.47818 0.43007 0.34747 0.0
H2500 H 0.45501 0.4814 0.2915 0.0
H2501 H 0.48167 0.5011 0.29992 0.0
H2502 H 0.42252 0.46958 0.32043 0.0
H2503 H 0.48752 0.43156 0.27446 0.0
H2504 H 0.52516 0.41136 0.27022 0.0
H2505 H 0.51066 0.36057 0.32385 0.0
H2506 H 0.47298 0.38065 0.32864 0.0
H2507 H 0.36859 0.41889 0.24304 0.0
H2508 H 0.39293 0.43658 0.26116 0.0
H2509 H 0.40864 0.38043 0.31405 0.0
H2510 H 0.38455 0.36237 0.29558 0.0
H2511 H 0.44404 0.39277 0.2923 0.0
H2512 H 0.37796 0.42888 0.3343 0.0
H2513 H 0.3405 0.44955 0.33904 0.0
H2514 H 0.35681 0.50415 0.29332 0.0
H2515 H 0.39432 0.48372 0.288 0.0
C2516 C 0.49437 0.4567 0.34164 0.0
C2517 C 0.49588 0.47675 0.32819 0.0
C2518 C 0.47891 0.44553 0.33695 0.0
C2519 C 0.46469 0.45412 0.31865 0.0
C2520 C 0.46584 0.47438 0.30565 0.0
C2521 C 0.48126 0.48554 0.31031 0.0
C2522 C 0.44884 0.44194 0.31259 0.0
C2523 C 0.42724 0.45286 0.31406 0.0
C2524 C 0.45488 0.41984 0.30508 0.0
C2525 C 0.47749 0.40769 0.30208 0.0
C2526 C 0.4924 0.41615 0.28546 0.0
C2527 C 0.51373 0.40472 0.28295 0.0
C2528 C 0.52031 0.38472 0.2968 0.0
C2529 C 0.50555 0.37607 0.31315 0.0
C2530 C 0.4842 0.38746 0.31576 0.0
C2531 C 0.37725 0.41026 0.25849 0.0
C2532 C 0.37466 0.38918 0.2678 0.0
C2533 C 0.39101 0.4205 0.26902 0.0
C2534 C 0.40247 0.40996 0.28916 0.0
C2535 C 0.3999 0.38893 0.2986 0.0
C2536 C 0.38602 0.3787 0.28813 0.0
C2537 C 0.41775 0.42063 0.29951 0.0
C2538 C 0.43925 0.40941 0.29891 0.0
C2539 C 0.4116 0.44247 0.3078 0.0
C2540 C 0.38896 0.45468 0.3106 0.0
C2541 C 0.37353 0.44521 0.32504 0.0
C2542 C 0.35229 0.45691 0.32788 0.0
C2543 C 0.34628 0.47814 0.31648 0.0
C2544 C 0.36149 0.48771 0.30215 0.0
C2545 C 0.38275 0.47608 0.29924 0.0
H2546 H 0.32987 0.48724 0.31879 0.0
H2547 H 0.53684 0.3759 0.29484 0.0
H2548 H 0.79793 0.61761 0.59989 0.0
H2549 H 0.79842 0.64865 0.62497 0.0
H2550 H 0.81541 0.60329 0.68879 0.0
H2551 H 0.81422 0.57228 0.66406 0.0
H2552 H 0.78479 0.635 0.70397 0.0
H2553 H 0.85062 0.63296 0.65283 0.0
H2554 H 0.87441 0.63307 0.61351 0.0
H2555 H 0.838 0.69718 0.59058 0.0
H2556 H 0.8138 0.69732 0.62961 0.0
H2557 H 0.81095 0.7091 0.78256 0.0
H2558 H 0.81536 0.67995 0.75282 0.0
H2559 H 0.78257 0.72744 0.69888 0.0
H2560 H 0.77758 0.75656 0.72893 0.0
H2561 H 0.82096 0.69621 0.67785 0.0
H2562 H 0.75517 0.69755 0.72924 0.0
H2563 H 0.73256 0.69773 0.76953 0.0
H2564 H 0.77049 0.63442 0.79252 0.0
H2565 H 0.79358 0.63405 0.75253 0.0
C2566 C 0.80216 0.61418 0.61913 0.0
C2567 C 0.80603 0.59239 0.62994 0.0
C2568 C 0.80248 0.63201 0.63349 0.0
C2569 C 0.80706 0.62845 0.65887 0.0
C2570 C 0.81173 0.60659 0.66934 0.0
C2571 C 0.81116 0.58881 0.6551 0.0
C2572 C 0.80561 0.64745 0.67505 0.0
C2573 C 0.79302 0.64814 0.6983 0.0
C2574 C 0.81576 0.66512 0.66755 0.0
C2575 C 0.83024 0.66502 0.64402 0.0
C2576 C 0.84756 0.64699 0.6393 0.0
C2577 C 0.86115 0.64703 0.61708 0.0
C2578 C 0.85767 0.66508 0.59952 0.0
C2579 C 0.84064 0.68318 0.60417 0.0
C2580 C 0.82699 0.68321 0.62635 0.0
C2581 C 0.80487 0.71335 0.76426 0.0
C2582 C 0.79431 0.73518 0.75787 0.0
C2583 C 0.80741 0.69671 0.74729 0.0
C2584 C 0.79933 0.70152 0.72361 0.0
C2585 C 0.78907 0.7234 0.71696 0.0
C2586 C 0.78629 0.74003 0.73411 0.0
C2587 C 0.80048 0.68336 0.70662 0.0
C2588 C 0.81287 0.68293 0.68332 0.0
C2589 C 0.79026 0.66584 0.71406 0.0
C2590 C 0.77623 0.66587 0.73799 0.0
C2591 C 0.7588 0.68375 0.74297 0.0
C2592 C 0.74588 0.68388 0.76574 0.0
C2593 C 0.75012 0.66612 0.78359 0.0
C2594 C 0.76725 0.64817 0.77868 0.0
C2595 C 0.78025 0.64799 0.75596 0.0
H2596 H 0.74009 0.66625 0.80121 0.0
H2597 H 0.86821 0.66509 0.58234 0.0
H2598 H 0.46636 0.80196 0.60827 0.0
H2599 H 0.43144 0.80591 0.63255 0.0
H2600 H 0.4618 0.77052 0.69654 0.0
H2601 H 0.49632 0.76536 0.6716 0.0
H2602 H 0.42979 0.75709 0.69721 0.0
H2603 H 0.43668 0.83189 0.6893 0.0
H2604 H 0.44251 0.86683 0.66781 0.0
H2605 H 0.38816 0.872 0.62659 0.0
H2606 H 0.38215 0.83694 0.64762 0.0
H2607 H 0.33593 0.77982 0.78295 0.0
H2608 H 0.37096 0.77984 0.76128 0.0
H2609 H 0.3416 0.80887 0.6941 0.0
H2610 H 0.30638 0.81023 0.71667 0.0
H2611 H 0.37328 0.82611 0.69628 0.0
H2612 H 0.36904 0.748 0.707 0.0
H2613 H 0.36621 0.71288 0.73083 0.0
H2614 H 0.41831 0.71618 0.77228 0.0
H2615 H 0.42144 0.75122 0.74879 0.0
C2616 C 0.46554 0.79519 0.62758 0.0
C2617 C 0.48425 0.78335 0.6379 0.0
C2618 C 0.44546 0.79758 0.64169 0.0
C2619 C 0.44348 0.78889 0.66694 0.0
C2620 C 0.46237 0.77738 0.67725 0.0
C2621 C 0.4823 0.77447 0.66294 0.0
C2622 C 0.42195 0.79091 0.68235 0.0
C2623 C 0.41767 0.7724 0.69718 0.0
C2624 C 0.40554 0.81062 0.68255 0.0
C2625 C 0.40911 0.83167 0.66984 0.0
C2626 C 0.42606 0.8404 0.67552 0.0
C2627 C 0.42938 0.86024 0.66345 0.0
C2628 C 0.41575 0.87159 0.64579 0.0
C2629 C 0.39873 0.86316 0.64023 0.0
C2630 C 0.39534 0.84332 0.65224 0.0
C2631 C 0.33681 0.78674 0.76387 0.0
C2632 C 0.31805 0.79542 0.75199 0.0
C2633 C 0.35709 0.78631 0.75109 0.0
C2634 C 0.35944 0.79381 0.7255 0.0
C2635 C 0.34063 0.80283 0.7137 0.0
C2636 C 0.32035 0.8036 0.72669 0.0
C2637 C 0.38121 0.79227 0.71097 0.0
C2638 C 0.3855 0.81086 0.69629 0.0
C2639 C 0.3979 0.77283 0.71151 0.0
C2640 C 0.39534 0.75228 0.72627 0.0
C2641 C 0.37972 0.74131 0.72137 0.0
C2642 C 0.37812 0.72141 0.73475 0.0
C2643 C 0.39208 0.71233 0.75299 0.0
C2644 C 0.40756 0.72321 0.75808 0.0
C2645 C 0.40927 0.74305 0.74474 0.0
H2646 H 0.39099 0.69684 0.76316 0.0
H2647 H 0.41835 0.88695 0.63647 0.0
H2648 H 0.28522 0.45256 0.57426 0.0
H2649 H 0.28033 0.42668 0.60992 0.0
H2650 H 0.34766 0.39737 0.60305 0.0
H2651 H 0.35281 0.42343 0.56748 0.0
H2652 H 0.32438 0.36589 0.60959 0.0
H2653 H 0.32513 0.4328 0.64955 0.0
H2654 H 0.31296 0.47253 0.65744 0.0
H2655 H 0.24989 0.46371 0.68068 0.0
H2656 H 0.2616 0.42401 0.67261 0.0
H2657 H 0.3124 0.33646 0.75513 0.0
H2658 H 0.31609 0.36302 0.71969 0.0
H2659 H 0.28575 0.32783 0.67374 0.0
H2660 H 0.28315 0.30066 0.70864 0.0
H2661 H 0.2911 0.39167 0.69335 0.0
H2662 H 0.2999 0.33325 0.61459 0.0
H2663 H 0.31183 0.29348 0.60673 0.0
H2664 H 0.35774 0.28567 0.66071 0.0
H2665 H 0.3458 0.32526 0.66937 0.0
C2666 C 0.2991 0.44086 0.5804 0.0
C2667 C 0.31948 0.44032 0.56786 0.0
C2668 C 0.29623 0.42596 0.60085 0.0
C2669 C 0.31364 0.41016 0.60938 0.0
C2670 C 0.33395 0.40938 0.59681 0.0
C2671 C 0.33686 0.42431 0.57638 0.0
C2672 C 0.31067 0.39437 0.63129 0.0
C2673 C 0.31714 0.37155 0.62792 0.0
C2674 C 0.30117 0.40164 0.65525 0.0
C2675 C 0.2942 0.42548 0.66027 0.0
C2676 C 0.30863 0.43937 0.65618 0.0
C2677 C 0.30182 0.46187 0.66071 0.0
C2678 C 0.28066 0.47062 0.66949 0.0
C2679 C 0.26627 0.4569 0.67385 0.0
C2680 C 0.27299 0.4344 0.66932 0.0
C2681 C 0.30637 0.33441 0.73755 0.0
C2682 C 0.29749 0.31625 0.73482 0.0
C2683 C 0.30854 0.34965 0.7172 0.0
C2684 C 0.30168 0.34728 0.69367 0.0
C2685 C 0.29188 0.32975 0.6913 0.0
C2686 C 0.29013 0.31426 0.71148 0.0
C2687 C 0.30491 0.3631 0.67176 0.0
C2688 C 0.2984 0.38596 0.67507 0.0
C2689 C 0.3144 0.35588 0.64773 0.0
C2690 C 0.32187 0.33212 0.64272 0.0
C2691 C 0.31254 0.323 0.62481 0.0
C2692 C 0.31921 0.30048 0.62036 0.0
C2693 C 0.3354 0.287 0.63346 0.0
C2694 C 0.34497 0.29604 0.65098 0.0
C2695 C 0.33823 0.3185 0.65571 0.0
H2696 H 0.34061 0.26958 0.62995 0.0
H2697 H 0.27538 0.48801 0.67297 0.0
H2698 H 0.57281 0.31988 0.53031 0.0
H2699 H 0.59615 0.33004 0.55872 0.0
H2700 H 0.57642 0.28519 0.61728 0.0
H2701 H 0.55349 0.27508 0.58915 0.0
H2702 H 0.58155 0.32273 0.63691 0.0
H2703 H 0.62042 0.2685 0.57647 0.0
H2704 H 0.6325 0.25736 0.53294 0.0
H2705 H 0.66317 0.31181 0.51928 0.0
H2706 H 0.651 0.32344 0.56266 0.0
H2707 H 0.66009 0.2671 0.71263 0.0
H2708 H 0.6334 0.28056 0.68286 0.0
H2709 H 0.67335 0.32069 0.64227 0.0
H2710 H 0.70049 0.30688 0.67221 0.0
H2711 H 0.65856 0.29724 0.6102 0.0
H2712 H 0.62695 0.34563 0.67465 0.0
H2713 H 0.61441 0.35702 0.71794 0.0
H2714 H 0.5698 0.31529 0.724 0.0
H2715 H 0.58228 0.30336 0.68089 0.0
C2716 C 0.57299 0.31284 0.54954 0.0
C2717 C 0.56132 0.2968 0.55765 0.0
C2718 C 0.58645 0.31847 0.56567 0.0
C2719 C 0.58822 0.30821 0.59012 0.0
C2720 C 0.57535 0.29338 0.59861 0.0
C2721 C 0.56223 0.2876 0.58251 0.0
C2722 C 0.60477 0.31078 0.60626 0.0
C2723 C 0.5984 0.31729 0.63106 0.0
C2724 C 0.62681 0.30434 0.59844 0.0
C2725 C 0.63462 0.29697 0.57267 0.0
C2726 C 0.62967 0.27814 0.56413 0.0
C2727 C 0.63652 0.27174 0.5395 0.0
C2728 C 0.64854 0.28391 0.52333 0.0
C2729 C 0.65382 0.30243 0.53181 0.0
C2730 C 0.64696 0.30893 0.55641 0.0
C2731 C 0.6631 0.27903 0.69758 0.0
C2732 C 0.68242 0.28589 0.69475 0.0
C2733 C 0.64775 0.28684 0.6806 0.0
C2734 C 0.6512 0.30182 0.66034 0.0
C2735 C 0.67026 0.30921 0.65778 0.0
C2736 C 0.68568 0.30146 0.67499 0.0
C2737 C 0.6353 0.30835 0.64126 0.0
C2738 C 0.64179 0.30342 0.61593 0.0
C2739 C 0.61334 0.31634 0.64858 0.0
C2740 C 0.60563 0.32354 0.67452 0.0
C2741 C 0.61455 0.33877 0.68526 0.0
C2742 C 0.60744 0.34534 0.70977 0.0
C2743 C 0.59133 0.33687 0.72371 0.0
C2744 C 0.58227 0.32184 0.71316 0.0
C2745 C 0.58933 0.3152 0.68867 0.0
H2746 H 0.58585 0.34198 0.74269 0.0
H2747 H 0.65378 0.27896 0.50425 0.0
H2748 H 0.80218 0.49409 0.54956 0.0
H2749 H 0.80237 0.46277 0.52457 0.0
H2750 H 0.81661 0.50074 0.45635 0.0
H2751 H 0.81591 0.53228 0.48115 0.0
H2752 H 0.7854 0.48213 0.45025 0.0
H2753 H 0.85404 0.4562 0.48243 0.0
H2754 H 0.87888 0.44623 0.51554 0.0
H2755 H 0.84536 0.39758 0.54874 0.0
H2756 H 0.82016 0.40746 0.51598 0.0
H2757 H 0.82224 0.39928 0.362 0.0
H2758 H 0.8157 0.4291 0.39106 0.0
H2759 H 0.79784 0.38516 0.45188 0.0
H2760 H 0.8045 0.35511 0.42255 0.0
H2761 H 0.82747 0.40547 0.46474 0.0
H2762 H 0.76092 0.42907 0.42984 0.0
H2763 H 0.73625 0.43907 0.39658 0.0
H2764 H 0.7658 0.49218 0.36828 0.0
H2765 H 0.79087 0.48229 0.40113 0.0
C2766 C 0.80577 0.49565 0.52928 0.0
C2767 C 0.80907 0.51576 0.5174 0.0
C2768 C 0.80586 0.47768 0.51497 0.0
C2769 C 0.80955 0.47927 0.48848 0.0
C2770 C 0.81359 0.49907 0.47671 0.0
C2771 C 0.81334 0.51708 0.49096 0.0
C2772 C 0.8083 0.46079 0.47286 0.0
C2773 C 0.79482 0.46543 0.45325 0.0
C2774 C 0.81991 0.43874 0.47728 0.0
C2775 C 0.83509 0.43274 0.49692 0.0
C2776 C 0.85188 0.4435 0.4969 0.0
C2777 C 0.86603 0.43783 0.51558 0.0
C2778 C 0.86366 0.42132 0.53428 0.0
C2779 C 0.84716 0.41039 0.53428 0.0
C2780 C 0.83295 0.416 0.51564 0.0
C2781 C 0.81629 0.3962 0.38141 0.0
C2782 C 0.81364 0.375 0.39001 0.0
C2783 C 0.81258 0.41324 0.39804 0.0
C2784 C 0.80619 0.40947 0.42371 0.0
C2785 C 0.80271 0.38849 0.43216 0.0
C2786 C 0.80628 0.37142 0.41539 0.0
C2787 C 0.80494 0.42695 0.44179 0.0
C2788 C 0.81792 0.42213 0.46187 0.0
C2789 C 0.7929 0.44886 0.43777 0.0
C2790 C 0.7779 0.45481 0.41787 0.0
C2791 C 0.76229 0.44276 0.4164 0.0
C2792 C 0.74821 0.44843 0.39763 0.0
C2793 C 0.74948 0.46622 0.3803 0.0
C2794 C 0.76484 0.47839 0.38171 0.0
C2795 C 0.77898 0.47277 0.40042 0.0
H2796 H 0.73855 0.47061 0.36581 0.0
H2797 H 0.87463 0.41697 0.54872 0.0
H2798 H 0.64745 0.75913 0.52263 0.0
H2799 H 0.67267 0.76325 0.48602 0.0
H2800 H 0.62104 0.79981 0.44449 0.0
H2801 H 0.59562 0.79551 0.48109 0.0
H2802 H 0.64871 0.76946 0.4152 0.0
H2803 H 0.65553 0.82512 0.46986 0.0
H2804 H 0.66235 0.83902 0.50945 0.0
H2805 H 0.7252 0.79693 0.50492 0.0
H2806 H 0.71864 0.78248 0.46552 0.0
H2807 H 0.70991 0.81212 0.31231 0.0
H2808 H 0.6852 0.80884 0.3499 0.0
H2809 H 0.73756 0.77312 0.39054 0.0
H2810 H 0.7624 0.77656 0.35317 0.0
H2811 H 0.71029 0.80277 0.42071 0.0
H2812 H 0.70584 0.74589 0.37027 0.0
H2813 H 0.70154 0.72735 0.33284 0.0
H2814 H 0.63747 0.76601 0.33118 0.0
H2815 H 0.64156 0.78517 0.3685 0.0
C2816 C 0.64134 0.76795 0.50572 0.0
C2817 C 0.6193 0.77694 0.50504 0.0
C2818 C 0.65591 0.77048 0.48473 0.0
C2819 C 0.64899 0.78206 0.46229 0.0
C2820 C 0.62697 0.79087 0.46146 0.0
C2821 C 0.61238 0.78851 0.48254 0.0
C2822 C 0.66459 0.78476 0.4397 0.0
C2823 C 0.66191 0.77716 0.41637 0.0
C2824 C 0.68255 0.79385 0.44117 0.0
C2825 C 0.68648 0.80252 0.46488 0.0
C2826 C 0.67073 0.81866 0.47743 0.0
C2827 C 0.67456 0.82666 0.49982 0.0
C2828 C 0.69417 0.81882 0.50973 0.0
C2829 C 0.71 0.80296 0.49725 0.0
C2830 C 0.70623 0.79486 0.47489 0.0
C2831 C 0.71623 0.80386 0.3294 0.0
C2832 C 0.73829 0.79511 0.32975 0.0
C2833 C 0.70204 0.80188 0.35091 0.0
C2834 C 0.70942 0.7908 0.37338 0.0
C2835 C 0.73146 0.78215 0.37379 0.0
C2836 C 0.74569 0.78414 0.35228 0.0
C2837 C 0.69414 0.78785 0.39616 0.0
C2838 C 0.69695 0.79529 0.4195 0.0
C2839 C 0.67658 0.77813 0.39488 0.0
C2840 C 0.67412 0.76722 0.37199 0.0
C2841 C 0.69093 0.7507 0.36173 0.0
C2842 C 0.6885 0.74001 0.34055 0.0
C2843 C 0.66925 0.74553 0.32953 0.0
C2844 C 0.6524 0.7618 0.33969 0.0
C2845 C 0.65477 0.77259 0.36086 0.0
H2846 H 0.66737 0.73714 0.31319 0.0
H2847 H 0.69713 0.82511 0.527 0.0
H2848 H 0.29002 0.59296 0.46619 0.0
H2849 H 0.28356 0.62851 0.44198 0.0
H2850 H 0.3373 0.60343 0.3889 0.0
H2851 H 0.34402 0.56795 0.41336 0.0
H2852 H 0.33807 0.64342 0.39843 0.0
H2853 H 0.28381 0.60991 0.37589 0.0
H2854 H 0.25352 0.59186 0.38341 0.0
H2855 H 0.21573 0.64873 0.42048 0.0
H2856 H 0.2459 0.66702 0.41347 0.0
H2857 H 0.31982 0.72506 0.30244 0.0
H2858 H 0.32037 0.68972 0.32505 0.0
H2859 H 0.27113 0.72151 0.37985 0.0
H2860 H 0.26973 0.75721 0.35588 0.0
H2861 H 0.267 0.67908 0.37025 0.0
H2862 H 0.3225 0.71197 0.39268 0.0
H2863 H 0.35177 0.7309 0.38037 0.0
H2864 H 0.38679 0.67467 0.34001 0.0
H2865 H 0.35764 0.65549 0.35196 0.0
C2866 C 0.30036 0.59493 0.44926 0.0
C2867 C 0.31749 0.5775 0.44168 0.0
C2868 C 0.29663 0.61532 0.43536 0.0
C2869 C 0.30971 0.61868 0.41328 0.0
C2870 C 0.32694 0.60135 0.40582 0.0
C2871 C 0.33081 0.58103 0.41986 0.0
C2872 C 0.30569 0.64032 0.39819 0.0
C2873 C 0.32255 0.651 0.39212 0.0
C2874 C 0.28536 0.65066 0.39019 0.0
C2875 C 0.26719 0.63973 0.39439 0.0
C2876 C 0.26909 0.6185 0.38582 0.0
C2877 C 0.25194 0.60823 0.38996 0.0
C2878 C 0.23273 0.61912 0.40248 0.0
C2879 C 0.23063 0.64031 0.41082 0.0
C2880 C 0.24774 0.65064 0.40676 0.0
C2881 C 0.30866 0.72461 0.31873 0.0
C2882 C 0.29455 0.74402 0.32695 0.0
C2883 C 0.30911 0.70428 0.33192 0.0
C2884 C 0.29609 0.70293 0.35448 0.0
C2885 C 0.28137 0.72211 0.36249 0.0
C2886 C 0.28066 0.74251 0.34886 0.0
C2887 C 0.29936 0.68191 0.37056 0.0
C2888 C 0.28242 0.67143 0.3768 0.0
C2889 C 0.31962 0.67163 0.37861 0.0
C2890 C 0.3379 0.68232 0.3732 0.0
C2891 C 0.33651 0.70361 0.38132 0.0
C2892 C 0.35304 0.7144 0.37435 0.0
C2893 C 0.37111 0.70401 0.35941 0.0
C2894 C 0.3728 0.68269 0.35164 0.0
C2895 C 0.35631 0.67181 0.35858 0.0
H2896 H 0.38375 0.71253 0.35386 0.0
H2897 H 0.21947 0.61114 0.40567 0.0
H2898 H 0.4886 0.29752 0.43321 0.0
H2899 H 0.45918 0.30327 0.40625 0.0
H2900 H 0.41743 0.28899 0.47094 0.0
H2901 H 0.44707 0.28201 0.49725 0.0
H2902 H 0.41222 0.26656 0.43685 0.0
H2903 H 0.4156 0.3428 0.4364 0.0
H2904 H 0.43087 0.37575 0.42946 0.0
H2905 H 0.44409 0.3644 0.35037 0.0
H2906 H 0.42949 0.33105 0.35693 0.0
H2907 H 0.31469 0.29558 0.38002 0.0
H2908 H 0.34358 0.2963 0.40548 0.0
H2909 H 0.38631 0.29747 0.33785 0.0
H2910 H 0.35755 0.29652 0.31219 0.0
H2911 H 0.39107 0.32685 0.37182 0.0
H2912 H 0.38844 0.25007 0.37344 0.0
H2913 H 0.37031 0.21914 0.38012 0.0
H2914 H 0.35329 0.23402 0.45792 0.0
H2915 H 0.37106 0.26527 0.45161 0.0
C2916 C 0.47296 0.29626 0.44169 0.0
C2917 C 0.47002 0.28959 0.46737 0.0
C2918 C 0.45608 0.29952 0.42627 0.0
C2919 C 0.43581 0.29666 0.43638 0.0
C2920 C 0.43279 0.29116 0.46242 0.0
C2921 C 0.44971 0.28739 0.47758 0.0
C2922 C 0.41823 0.29745 0.4199 0.0
C2923 C 0.40749 0.28004 0.42297 0.0
C2924 C 0.4122 0.31455 0.40102 0.0
C2925 C 0.42171 0.33419 0.39725 0.0
C2926 C 0.42208 0.34711 0.4176 0.0
C2927 C 0.4306 0.3659 0.41372 0.0
C2928 C 0.43858 0.3721 0.38951 0.0
C2929 C 0.43807 0.35952 0.36914 0.0
C2930 C 0.4297 0.34064 0.37294 0.0
C2931 C 0.33026 0.29573 0.37049 0.0
C2932 C 0.33377 0.2956 0.34398 0.0
C2933 C 0.34679 0.29626 0.38513 0.0
C2934 C 0.36726 0.29673 0.37365 0.0
C2935 C 0.3707 0.2971 0.34718 0.0
C2936 C 0.35421 0.29645 0.33253 0.0
C2937 C 0.38514 0.2963 0.38929 0.0
C2938 C 0.39593 0.31356 0.38588 0.0
C2939 C 0.39116 0.27924 0.40802 0.0
C2940 C 0.38095 0.2601 0.412 0.0
C2941 C 0.38075 0.24681 0.39195 0.0
C2942 C 0.37055 0.22922 0.39567 0.0
C2943 C 0.36065 0.22463 0.41943 0.0
C2944 C 0.36097 0.23759 0.43953 0.0
C2945 C 0.37113 0.25523 0.4359 0.0
H2946 H 0.35272 0.21103 0.42226 0.0
H2947 H 0.44507 0.3867 0.38652 0.0
H2948 H 0.60019 0.83287 0.59714 0.0
H2949 H 0.62987 0.83921 0.61843 0.0
H2950 H 0.60917 0.80379 0.68562 0.0
H2951 H 0.57973 0.79755 0.66465 0.0
H2952 H 0.62325 0.83952 0.69719 0.0
H2953 H 0.64696 0.77819 0.64101 0.0
H2954 H 0.65249 0.76265 0.59902 0.0
H2955 H 0.6917 0.80789 0.57166 0.0
H2956 H 0.68605 0.82398 0.61337 0.0
H2957 H 0.71017 0.79642 0.76698 0.0
H2958 H 0.68001 0.80283 0.74194 0.0
H2959 H 0.7177 0.8253 0.67794 0.0
H2960 H 0.74847 0.81729 0.70255 0.0
H2961 H 0.69545 0.80288 0.66098 0.0
H2962 H 0.67617 0.86167 0.71688 0.0
H2963 H 0.67049 0.8792 0.7577 0.0
H2964 H 0.6232 0.84257 0.78405 0.0
H2965 H 0.62879 0.82457 0.74353 0.0
C2966 C 0.60168 0.827 0.61667 0.0
C2967 C 0.58766 0.81465 0.6292 0.0
C2968 C 0.61874 0.83045 0.62874 0.0
C2969 C 0.62196 0.82168 0.65354 0.0
C2970 C 0.60711 0.81067 0.66651 0.0
C2971 C 0.59026 0.80708 0.65445 0.0
C2972 C 0.64144 0.8223 0.66569 0.0
C2973 C 0.63906 0.8315 0.68931 0.0
C2974 C 0.66217 0.81248 0.65508 0.0
C2975 C 0.66588 0.80246 0.63021 0.0
C2976 C 0.65664 0.78492 0.62599 0.0
C2977 C 0.65979 0.77602 0.60223 0.0
C2978 C 0.67236 0.78435 0.58264 0.0
C2979 C 0.68189 0.80152 0.58681 0.0
C2980 C 0.67872 0.81053 0.6105 0.0
C2981 C 0.71211 0.80288 0.74764 0.0
C2982 C 0.73183 0.80673 0.73701 0.0
C2983 C 0.69467 0.80673 0.7333 0.0
C2984 C 0.69616 0.81528 0.70812 0.0
C2985 C 0.71591 0.81893 0.69735 0.0
C2986 C 0.73355 0.81451 0.71155 0.0
C2987 C 0.67731 0.81964 0.69298 0.0
C2988 C 0.67978 0.81133 0.66879 0.0
C2989 C 0.65666 0.83064 0.7029 0.0
C2990 C 0.653 0.84168 0.72719 0.0
C2991 C 0.66463 0.85728 0.73142 0.0
C2992 C 0.66142 0.8673 0.7545 0.0
C2993 C 0.64651 0.86198 0.77346 0.0
C2994 C 0.63473 0.84667 0.76935 0.0
C2995 C 0.63789 0.83658 0.74631 0.0
H2996 H 0.64407 0.86973 0.79134 0.0
H2997 H 0.67476 0.77746 0.56426 0.0
H2998 H 0.60898 0.27138 0.47654 0.0
H2999 H 0.64408 0.27202 0.45455 0.0
H3000 H 0.6292 0.23956 0.3926 0.0
H3001 H 0.5944 0.23873 0.41449 0.0
H3002 H 0.66704 0.22028 0.40462 0.0
H3003 H 0.63017 0.29644 0.38925 0.0
H3004 H 0.60973 0.33325 0.40187 0.0
H3005 H 0.66023 0.33942 0.44457 0.0
H3006 H 0.68089 0.30255 0.43236 0.0
H3007 H 0.74113 0.27874 0.31199 0.0
H3008 H 0.70755 0.27485 0.33564 0.0
H3009 H 0.74257 0.2322 0.39168 0.0
H3010 H 0.77602 0.23431 0.36681 0.0
H3011 H 0.69563 0.28745 0.38498 0.0
H3012 H 0.72752 0.20408 0.40511 0.0
H3013 H 0.74222 0.16557 0.39373 0.0
H3014 H 0.69449 0.17177 0.34223 0.0
H3015 H 0.68062 0.21094 0.3519 0.0
C3016 C 0.61312 0.26459 0.45812 0.0
C3017 C 0.59884 0.2549 0.44736 0.0
C3018 C 0.63322 0.26499 0.44552 0.0
C3019 C 0.63936 0.25595 0.42176 0.0
C3020 C 0.62499 0.24653 0.41094 0.0
C3021 C 0.60505 0.24599 0.42355 0.0
C3022 C 0.66096 0.25539 0.40833 0.0
C3023 C 0.67327 0.23502 0.40031 0.0
C3024 C 0.6693 0.27448 0.40289 0.0
C3025 C 0.65697 0.29668 0.41008 0.0
C3026 C 0.63685 0.3056 0.40145 0.0
C3027 C 0.62524 0.32648 0.4085 0.0
C3028 C 0.63366 0.33864 0.42406 0.0
C3029 C 0.65373 0.32998 0.43253 0.0
C3030 C 0.6654 0.30911 0.42553 0.0
C3031 C 0.74165 0.2677 0.32873 0.0
C3032 C 0.76128 0.25592 0.33679 0.0
C3033 C 0.7224 0.26559 0.34241 0.0
C3034 C 0.72226 0.25221 0.36496 0.0
C3035 C 0.74192 0.24123 0.37355 0.0
C3036 C 0.76115 0.24287 0.35953 0.0
C3037 C 0.70171 0.25228 0.38084 0.0
C3038 C 0.68952 0.27266 0.3894 0.0
C3039 C 0.69335 0.23314 0.38667 0.0
C3040 C 0.704 0.21094 0.37795 0.0
C3041 C 0.72103 0.19771 0.39021 0.0
C3042 C 0.72902 0.17563 0.38432 0.0
C3043 C 0.71951 0.1663 0.36698 0.0
C3044 C 0.70202 0.17906 0.35543 0.0
C3045 C 0.69437 0.20133 0.36075 0.0
H3046 H 0.72554 0.14912 0.3627 0.0
H3047 H 0.62464 0.3548 0.4295 0.0
H3048 H 0.74355 0.61362 0.47849 0.0
H3049 H 0.75286 0.63876 0.44394 0.0
H3050 H 0.79592 0.65798 0.48932 0.0
H3051 H 0.78569 0.63409 0.5244 0.0
H3052 H 0.7767 0.69225 0.46511 0.0
H3053 H 0.81306 0.61969 0.44163 0.0
H3054 H 0.81656 0.58058 0.43306 0.0
H3055 H 0.77536 0.6004 0.37356 0.0
H3056 H 0.77135 0.63964 0.38202 0.0
H3057 H 0.82497 0.74878 0.36279 0.0
H3058 H 0.82062 0.72179 0.39776 0.0
H3059 H 0.77799 0.6975 0.35633 0.0
H3060 H 0.78326 0.72355 0.32112 0.0
H3061 H 0.79972 0.66472 0.37951 0.0
H3062 H 0.76167 0.73871 0.40839 0.0
H3063 H 0.75811 0.77674 0.42183 0.0
H3064 H 0.80598 0.75248 0.47294 0.0
H3065 H 0.80974 0.71445 0.46011 0.0
C3066 C 0.7547 0.62346 0.48134 0.0
C3067 C 0.76407 0.62151 0.50424 0.0
C3068 C 0.76026 0.63762 0.46138 0.0
C3069 C 0.77554 0.64984 0.46375 0.0
C3070 C 0.78428 0.64856 0.48688 0.0
C3071 C 0.77852 0.63469 0.50691 0.0
C3072 C 0.78242 0.66408 0.44228 0.0
C3073 C 0.78197 0.68614 0.44644 0.0
C3074 C 0.78924 0.65618 0.41789 0.0
C3075 C 0.79175 0.6326 0.41262 0.0
C3076 C 0.80463 0.61571 0.42683 0.0
C3077 C 0.80672 0.59352 0.42198 0.0
C3078 C 0.79615 0.58801 0.40282 0.0
C3079 C 0.78351 0.60469 0.38842 0.0
C3080 C 0.78134 0.62691 0.39322 0.0
C3081 C 0.81501 0.73737 0.36106 0.0
C3082 C 0.80453 0.73819 0.33921 0.0
C3083 C 0.81229 0.72212 0.38118 0.0
C3084 C 0.79843 0.70797 0.38012 0.0
C3085 C 0.78873 0.7082 0.35777 0.0
C3086 C 0.79188 0.72303 0.33748 0.0
C3087 C 0.79355 0.69314 0.40217 0.0
C3088 C 0.79446 0.67086 0.39815 0.0
C3089 C 0.78748 0.70074 0.42685 0.0
C3090 C 0.7861 0.72382 0.43313 0.0
C3091 C 0.77158 0.74158 0.42227 0.0
C3092 C 0.76946 0.76307 0.42985 0.0
C3093 C 0.7818 0.76696 0.44814 0.0
C3094 C 0.79642 0.74943 0.45879 0.0
C3095 C 0.79852 0.72793 0.45143 0.0
H3096 H 0.77998 0.78353 0.45418 0.0
H3097 H 0.79779 0.57082 0.3991 0.0
H3098 H 0.51515 0.77674 0.50587 0.0
H3099 H 0.49238 0.78804 0.47196 0.0
H3100 H 0.48862 0.85666 0.48388 0.0
H3101 H 0.51151 0.8453 0.51877 0.0
H3102 H 0.45003 0.8493 0.47975 0.0
H3103 H 0.51604 0.83345 0.43018 0.0
H3104 H 0.55227 0.81265 0.41665 0.0
H3105 H 0.52732 0.75817 0.39896 0.0
H3106 H 0.49097 0.77846 0.41276 0.0
H3107 H 0.38017 0.86423 0.38395 0.0
H3108 H 0.41268 0.86684 0.40168 0.0
H3109 H 0.43136 0.79559 0.40973 0.0
H3110 H 0.39903 0.79291 0.3918 0.0
H3111 H 0.4658 0.81362 0.3977 0.0
H3112 H 0.40207 0.82646 0.4576 0.0
H3113 H 0.36579 0.84661 0.47209 0.0
H3114 H 0.3873 0.90695 0.47039 0.0
H3115 H 0.42366 0.88718 0.45552 0.0
C3116 C 0.50969 0.79429 0.50131 0.0
C3117 C 0.51517 0.81013 0.51511 0.0
C3118 C 0.49678 0.80073 0.48164 0.0
C3119 C 0.48914 0.82319 0.47494 0.0
C3120 C 0.49455 0.8392 0.48857 0.0
C3121 C 0.50759 0.83272 0.50847 0.0
C3122 C 0.47421 0.8294 0.45498 0.0
C3123 C 0.45369 0.84206 0.46149 0.0
C3124 C 0.47889 0.81976 0.43122 0.0
C3125 C 0.50073 0.80751 0.42258 0.0
C3126 C 0.51827 0.81699 0.42353 0.0
C3127 C 0.53884 0.80529 0.4158 0.0
C3128 C 0.5421 0.78411 0.40696 0.0
C3129 C 0.52478 0.7746 0.40578 0.0
C3130 C 0.50417 0.78622 0.41351 0.0
C3131 C 0.39144 0.84913 0.38907 0.0
C3132 C 0.38694 0.82836 0.38684 0.0
C3133 C 0.40999 0.85065 0.39917 0.0
C3134 C 0.42422 0.83143 0.40752 0.0
C3135 C 0.42058 0.81065 0.40347 0.0
C3136 C 0.4021 0.80912 0.39319 0.0
C3137 C 0.44154 0.83273 0.42298 0.0
C3138 C 0.46242 0.82145 0.41561 0.0
C3139 C 0.43725 0.84365 0.44594 0.0
C3140 C 0.41548 0.85543 0.45518 0.0
C3141 C 0.39901 0.84405 0.46018 0.0
C3142 C 0.37845 0.8554 0.46846 0.0
C3143 C 0.37423 0.87806 0.47209 0.0
C3144 C 0.39058 0.88941 0.46752 0.0
C3145 C 0.41116 0.87815 0.45916 0.0
H3146 H 0.35829 0.88682 0.4785 0.0
H3147 H 0.55804 0.77507 0.401 0.0
H3148 H 0.31063 0.46605 0.42262 0.0
H3149 H 0.29587 0.4431 0.39818 0.0
H3150 H 0.23533 0.46135 0.44248 0.0
H3151 H 0.25038 0.48418 0.46786 0.0
H3152 H 0.2453 0.41843 0.43736 0.0
H3153 H 0.24274 0.48087 0.38002 0.0
H3154 H 0.25546 0.51092 0.35477 0.0
H3155 H 0.30311 0.46313 0.31377 0.0
H3156 H 0.2911 0.43281 0.3392 0.0
H3157 H 0.23349 0.37041 0.30703 0.0
H3158 H 0.22584 0.39996 0.33671 0.0
H3159 H 0.26965 0.35912 0.38582 0.0
H3160 H 0.27768 0.32992 0.35604 0.0
H3161 H 0.2571 0.41912 0.34392 0.0
H3162 H 0.25841 0.37439 0.44388 0.0
H3163 H 0.24002 0.34926 0.47092 0.0
H3164 H 0.18682 0.36748 0.42619 0.0
H3165 H 0.20511 0.39228 0.39856 0.0
C3166 C 0.29409 0.46545 0.42714 0.0
C3167 C 0.28168 0.477 0.44726 0.0
C3168 C 0.28561 0.45237 0.41295 0.0
C3169 C 0.26437 0.45072 0.41816 0.0
C3170 C 0.25175 0.46246 0.43802 0.0
C3171 C 0.26032 0.47556 0.45243 0.0
C3172 C 0.2561 0.43562 0.40366 0.0
C3173 C 0.24772 0.41871 0.41691 0.0
C3174 C 0.25862 0.43629 0.37691 0.0
C3175 C 0.26604 0.45453 0.36164 0.0
C3176 C 0.25606 0.47676 0.36578 0.0
C3177 C 0.26317 0.49386 0.35144 0.0
C3178 C 0.28013 0.48895 0.33273 0.0
C3179 C 0.29002 0.46693 0.32832 0.0
C3180 C 0.28307 0.44978 0.3427 0.0
C3181 C 0.24094 0.36749 0.32458 0.0
C3182 C 0.25611 0.34779 0.32921 0.0
C3183 C 0.23653 0.38436 0.34154 0.0
C3184 C 0.24713 0.38179 0.36354 0.0
C3185 C 0.261 0.36141 0.3692 0.0
C3186 C 0.2656 0.34464 0.35208 0.0
C3187 C 0.2472 0.40141 0.37769 0.0
C3188 C 0.25427 0.4191 0.36434 0.0
C3189 C 0.2431 0.4017 0.40423 0.0
C3190 C 0.23316 0.38508 0.41912 0.0
C3191 C 0.24288 0.37283 0.43968 0.0
C3192 C 0.23247 0.35867 0.45511 0.0
C3193 C 0.21222 0.35688 0.45035 0.0
C3194 C 0.20251 0.3689 0.42986 0.0
C3195 C 0.21299 0.3828 0.41413 0.0
H3196 H 0.20409 0.34607 0.46246 0.0
H3197 H 0.28558 0.50221 0.32162 0.0
H3198 H 0.45489 0.26782 0.57026 0.0
H3199 H 0.42944 0.26865 0.60781 0.0
H3200 H 0.48021 0.23314 0.65163 0.0
H3201 H 0.50526 0.23117 0.61363 0.0
H3202 H 0.44915 0.21707 0.66566 0.0
H3203 H 0.45487 0.29239 0.65512 0.0
H3204 H 0.45447 0.32884 0.63309 0.0
H3205 H 0.38897 0.33606 0.6202 0.0
H3206 H 0.38915 0.29949 0.64172 0.0
H3207 H 0.38336 0.2383 0.78327 0.0
H3208 H 0.41135 0.23624 0.74829 0.0
H3209 H 0.36403 0.26504 0.69715 0.0
H3210 H 0.33651 0.26929 0.7323 0.0
H3211 H 0.39521 0.28487 0.689 0.0
H3212 H 0.39999 0.20134 0.68462 0.0
H3213 H 0.40163 0.16461 0.70692 0.0
H3214 H 0.44999 0.17506 0.7504 0.0
H3215 H 0.44843 0.21178 0.72832 0.0
C3216 C 0.46052 0.26029 0.58799 0.0
C3217 C 0.48198 0.24943 0.5891 0.0
C3218 C 0.44603 0.2609 0.60954 0.0
C3219 C 0.45284 0.25137 0.63294 0.0
C3220 C 0.4744 0.24062 0.63397 0.0
C3221 C 0.48875 0.23949 0.61226 0.0
C3222 C 0.43744 0.25182 0.65605 0.0
C3223 C 0.43765 0.23208 0.67089 0.0
C3224 C 0.42211 0.2712 0.66309 0.0
C3225 C 0.42204 0.29315 0.64994 0.0
C3226 C 0.44043 0.30169 0.64743 0.0
C3227 C 0.44025 0.32238 0.63503 0.0
C3228 C 0.42172 0.33475 0.62522 0.0
C3229 C 0.40332 0.32647 0.6278 0.0
C3230 C 0.40344 0.30578 0.64012 0.0
C3231 C 0.37895 0.24396 0.76445 0.0
C3232 C 0.35756 0.25335 0.7605 0.0
C3233 C 0.39497 0.24249 0.74433 0.0
C3234 C 0.38992 0.24999 0.71969 0.0
C3235 C 0.36849 0.25913 0.71581 0.0
C3236 C 0.35261 0.26122 0.73597 0.0
C3237 C 0.40684 0.25011 0.69826 0.0
C3238 C 0.40689 0.26998 0.68376 0.0
C3239 C 0.42277 0.23106 0.69187 0.0
C3240 C 0.42352 0.20939 0.70553 0.0
C3241 C 0.41061 0.19584 0.6993 0.0
C3242 C 0.41168 0.17502 0.71171 0.0
C3243 C 0.42574 0.1676 0.73027 0.0
C3244 C 0.43897 0.18089 0.73619 0.0
C3245 C 0.43803 0.20166 0.7237 0.0
H3246 H 0.42652 0.1515 0.7399 0.0
H3247 H 0.4216 0.35076 0.61564 0.0
H3248 H 0.74301 0.50743 0.67244 0.0
H3249 H 0.74936 0.4712 0.69537 0.0
H3250 H 0.78948 0.44231 0.63108 0.0
H3251 H 0.78241 0.47808 0.60772 0.0
H3252 H 0.76576 0.41539 0.65089 0.0
H3253 H 0.80982 0.45703 0.68297 0.0
H3254 H 0.81784 0.48838 0.70246 0.0
H3255 H 0.77801 0.47656 0.7694 0.0
H3256 H 0.76948 0.44534 0.75018 0.0
H3257 H 0.81255 0.31578 0.72269 0.0
H3258 H 0.81019 0.3506 0.69654 0.0
H3259 H 0.76225 0.38434 0.75146 0.0
H3260 H 0.7639 0.35009 0.77652 0.0
H3261 H 0.79348 0.40772 0.73497 0.0
H3262 H 0.74802 0.36747 0.70198 0.0
H3263 H 0.74019 0.33588 0.68289 0.0
H3264 H 0.78345 0.34455 0.61803 0.0
H3265 H 0.79177 0.37607 0.63694 0.0
C3266 C 0.7529 0.49332 0.66305 0.0
C3267 C 0.76244 0.49578 0.63834 0.0
C3268 C 0.75672 0.47265 0.67628 0.0
C3269 C 0.7703 0.45413 0.66514 0.0
C3270 C 0.77913 0.45638 0.64016 0.0
C3271 C 0.77522 0.47694 0.62691 0.0
C3272 C 0.77558 0.43244 0.6795 0.0
C3273 C 0.77211 0.41368 0.66911 0.0
C3274 C 0.78369 0.43021 0.7034 0.0
C3275 C 0.78878 0.44902 0.71497 0.0
C3276 C 0.8026 0.46125 0.70174 0.0
C3277 C 0.80727 0.47897 0.71277 0.0
C3278 C 0.79838 0.48451 0.73711 0.0
C3279 C 0.78484 0.47229 0.75051 0.0
C3280 C 0.78008 0.45458 0.73956 0.0
C3281 C 0.8017 0.33074 0.72917 0.0
C3282 C 0.78896 0.33032 0.75218 0.0
C3283 C 0.80035 0.35053 0.71429 0.0
C3284 C 0.78613 0.37002 0.72223 0.0
C3285 C 0.77349 0.36956 0.74513 0.0
C3286 C 0.77462 0.34987 0.75967 0.0
C3287 C 0.78341 0.39091 0.70646 0.0
C3288 C 0.78738 0.40948 0.71659 0.0
C3289 C 0.77575 0.39296 0.68238 0.0
C3290 C 0.7707 0.37402 0.67102 0.0
C3291 C 0.75599 0.36257 0.68374 0.0
C3292 C 0.75144 0.34468 0.67294 0.0
C3293 C 0.76136 0.33817 0.64929 0.0
C3294 C 0.77581 0.34959 0.63638 0.0
C3295 C 0.78044 0.36747 0.64713 0.0
H3296 H 0.75781 0.32432 0.64094 0.0
H3297 H 0.80203 0.49823 0.74562 0.0
H3298 H 0.323 0.53875 0.57933 0.0
H3299 H 0.31534 0.56691 0.61001 0.0
H3300 H 0.25304 0.59235 0.58422 0.0
H3301 H 0.26089 0.56406 0.55262 0.0
H3302 H 0.27337 0.62489 0.58684 0.0
H3303 H 0.25835 0.56687 0.64387 0.0
H3304 H 0.26376 0.52932 0.66429 0.0
H3305 H 0.32202 0.53636 0.69028 0.0
H3306 H 0.3171 0.57388 0.66977 0.0
H3307 H 0.26257 0.70354 0.68132 0.0
H3308 H 0.25563 0.67406 0.65801 0.0
H3309 H 0.31894 0.63521 0.66779 0.0
H3310 H 0.3258 0.66437 0.6916 0.0
H3311 H 0.28933 0.61024 0.67628 0.0
H3312 H 0.30735 0.6648 0.6128 0.0
H3313 H 0.30285 0.70209 0.59168 0.0
H3314 H 0.23922 0.70102 0.57762 0.0
H3315 H 0.24327 0.6638 0.59897 0.0
C3316 C 0.30752 0.55011 0.58029 0.0
C3317 C 0.29257 0.54924 0.56344 0.0
C3318 C 0.30308 0.56614 0.59808 0.0
C3319 C 0.2835 0.58159 0.59971 0.0
C3320 C 0.26821 0.58047 0.58339 0.0
C3321 C 0.27266 0.56428 0.56545 0.0
C3322 C 0.2802 0.5999 0.61701 0.0
C3323 C 0.27625 0.62174 0.6066 0.0
C3324 C 0.28435 0.59577 0.64269 0.0
C3325 C 0.28736 0.57321 0.65519 0.0
C3326 C 0.27238 0.56038 0.65381 0.0
C3327 C 0.27536 0.53908 0.66543 0.0
C3328 C 0.29325 0.53043 0.67856 0.0
C3329 C 0.30817 0.54308 0.68013 0.0
C3330 C 0.30526 0.56439 0.66856 0.0
C3331 C 0.27493 0.68861 0.67874 0.0
C3332 C 0.29477 0.6863 0.68826 0.0
C3333 C 0.27098 0.67186 0.66527 0.0
C3334 C 0.28682 0.65252 0.66101 0.0
C3335 C 0.30649 0.65001 0.67086 0.0
C3336 C 0.31047 0.66676 0.68426 0.0
C3337 C 0.28323 0.63501 0.64583 0.0
C3338 C 0.2859 0.61339 0.6567 0.0
C3339 C 0.27793 0.63932 0.62059 0.0
C3340 C 0.27551 0.66166 0.60775 0.0
C3341 C 0.29234 0.6726 0.60539 0.0
C3342 C 0.28988 0.6937 0.59335 0.0
C3343 C 0.27073 0.70395 0.5834 0.0
C3344 C 0.25402 0.69308 0.5854 0.0
C3345 C 0.25639 0.67199 0.59746 0.0
H3346 H 0.26886 0.72029 0.57407 0.0
H3347 H 0.29555 0.51396 0.68756 0.0
loop_
_geom_bond_atom_site_label_1
_geom_bond_atom_site_label_2
_geom_bond_distance
_geom_bond_site_symmetry_2
_ccdc_geom_bond_type
Cu0 N1 1.999 . S
Cu0 O6 1.984 . S
Cu0 N11 1.989 1_545 S
Cu0 O20 1.959 1_455 S
N1 Cu0 1.999 . S
N1 C3 1.263 . S
N1 C5 1.389 . S
N2 C3 1.358 . S
N2 C4 1.400 . S
C3 N1 1.263 . S
C3 N2 1.358 . S
C3 H9 0.930 . S
C4 N2 1.400 . S
C4 C5 1.351 . S
C4 H21 0.930 . S
C5 N1 1.389 . S
C5 C4 1.351 . S
C5 H10 0.930 . S
O6 Cu0 1.984 . S
O6 C16 1.277 1_545 S
C7 O8 1.261 . S
C7 O20 1.251 . S
O8 C7 1.261 . S
H9 C3 0.930 . S
H10 C5 0.930 . S
N11 Cu0 1.989 1_565 S
N11 C13 1.342 1_465 S
N11 C14 1.385 . S
N12 C13 1.306 1_565 S
N12 C15 1.336 . S
C13 N11 1.342 1_645 S
C13 N12 1.306 1_545 S
C13 H18 0.959 . S
C14 N11 1.385 . S
C14 C15 1.346 1_455 S
C14 H19 0.930 . S
C15 N12 1.336 . S
C15 C14 1.346 1_655 S
C15 H22 0.929 . S
C16 O6 1.277 1_565 S
C16 O17 1.216 1_565 S
O17 C16 1.216 1_545 S
H18 C13 0.959 . S
H19 C14 0.930 . S
O20 Cu0 1.959 1_655 S
O20 C7 1.251 . S
H21 C4 0.930 . S
H22 C15 0.929 . S
Cu23 N24 1.999 . S
Cu23 O29 1.974 1_455 S
Cu23 N34 1.985 . S
Cu23 O43 1.959 . S
N24 Cu23 1.999 . S
N24 C26 1.263 1_455 S
N24 C28 1.389 1_545 S
N25 C26 1.358 1_565 S
N25 C27 1.400 . S
C26 N24 1.263 1_655 S
C26 N25 1.358 1_545 S
C26 H32 0.930 . S
C27 N25 1.400 . S
C27 C28 1.351 1_655 S
C27 H44 0.930 . S
C28 N24 1.389 1_565 S
C28 C27 1.351 1_455 S
C28 H33 0.930 . S
O29 Cu23 1.974 1_655 S
O29 C39 1.282 . S
C30 O31 1.261 . S
C30 O43 1.251 . S
O31 C30 1.261 . S
H32 C26 0.930 . S
H33 C28 0.930 . S
N34 Cu23 1.985 . S
N34 C36 1.335 . S
N34 C37 1.390 . S
N35 C36 1.345 . S
N35 C38 1.336 . S
C36 N34 1.335 . S
C36 N35 1.345 . S
C36 H41 0.930 . S
C37 N34 1.390 . S
C37 C38 1.346 . S
C37 H42 0.930 . S
C38 N35 1.336 . S
C38 C37 1.346 . S
C38 H45 0.929 . S
C39 O29 1.282 . S
C39 O40 1.216 . S
O40 C39 1.216 . S
H41 C36 0.930 . S
H42 C37 0.930 . S
O43 Cu23 1.959 . S
O43 C30 1.251 . S
H44 C27 0.930 . S
H45 C38 0.929 . S
Cu46 N47 1.999 . S
Cu46 O52 1.974 . S
Cu46 N57 1.985 . S
Cu46 O66 1.959 . S
N47 Cu46 1.999 . S
N47 C49 1.263 . S
N47 C51 1.389 . S
N48 C49 1.358 . S
N48 C50 1.400 . S
C49 N47 1.263 . S
C49 N48 1.358 . S
C49 H55 0.930 . S
C50 N48 1.400 . S
C50 C51 1.351 . S
C50 H67 0.930 1_554 S
C51 N47 1.389 . S
C51 C50 1.351 . S
C51 H56 0.930 . S
O52 Cu46 1.974 . S
O52 C62 1.282 . S
C53 O54 1.261 . S
C53 O66 1.251 . S
O54 C53 1.261 . S
H55 C49 0.930 . S
H56 C51 0.930 . S
N57 Cu46 1.985 . S
N57 C59 1.335 . S
N57 C60 1.390 . S
N58 C59 1.345 . S
N58 C61 1.336 . S
C59 N57 1.335 . S
C59 N58 1.345 . S
C59 H64 0.930 . S
C60 N57 1.390 . S
C60 C61 1.346 . S
C60 H65 0.930 . S
C61 N58 1.336 . S
C61 C60 1.346 . S
C61 H68 0.929 . S
C62 O52 1.282 . S
C62 O63 1.216 . S
O63 C62 1.216 . S
H64 C59 0.930 . S
H65 C60 0.930 . S
O66 Cu46 1.959 . S
O66 C53 1.251 . S
H67 C50 0.930 1_556 S
H68 C61 0.929 . S
Cu69 N70 1.999 . S
Cu69 O75 1.974 . S
Cu69 N80 1.985 . S
Cu69 O89 1.959 . S
N70 Cu69 1.999 . S
N70 C72 1.263 . S
N70 C74 1.389 . S
N71 C72 1.358 . S
N71 C73 1.400 1_554 S
C72 N70 1.263 . S
C72 N71 1.358 . S
C72 H78 0.930 . S
C73 N71 1.400 1_556 S
C73 C74 1.351 1_556 S
C73 H90 0.930 . S
C74 N70 1.389 . S
C74 C73 1.351 1_554 S
C74 H79 0.930 . S
O75 Cu69 1.974 . S
O75 C85 1.282 . S
C76 O77 1.261 . S
C76 O89 1.251 . S
O77 C76 1.261 . S
H78 C72 0.930 . S
H79 C74 0.930 . S
N80 Cu69 1.985 . S
N80 C82 1.335 1_455 S
N80 C83 1.390 . S
N81 C82 1.345 . S
N81 C84 1.336 1_655 S
C82 N80 1.335 1_655 S
C82 N81 1.345 . S
C82 H87 0.930 . S
C83 N80 1.390 . S
C83 C84 1.346 . S
C83 H88 0.930 . S
C84 N81 1.336 1_455 S
C84 C83 1.346 . S
C84 H91 0.936 . S
C85 O75 1.282 . S
C85 O86 1.216 . S
O86 C85 1.216 . S
H87 C82 0.930 . S
H88 C83 0.930 . S
O89 Cu69 1.959 . S
O89 C76 1.251 . S
H90 C73 0.930 . S
H91 C84 0.936 . S
Cu92 N93 1.999 1_554 S
Cu92 O98 1.974 . S
Cu92 N103 1.985 1_545 S
Cu92 O112 1.959 1_544 S
N93 Cu92 1.999 1_556 S
N93 C95 1.263 . S
N93 C97 1.389 . S
N94 C95 1.358 . S
N94 C96 1.400 . S
C95 N93 1.263 . S
C95 N94 1.358 . S
C95 H101 0.930 . S
C96 N94 1.400 . S
C96 C97 1.351 . S
C96 H113 0.930 . S
C97 N93 1.389 . S
C97 C96 1.351 . S
C97 H102 0.930 . S
O98 Cu92 1.974 . S
O98 C108 1.282 . S
C99 O100 1.261 . S
C99 O112 1.251 . S
O100 C99 1.261 . S
H101 C95 0.930 . S
H102 C97 0.930 . S
N103 Cu92 1.985 1_565 S
N103 C105 1.335 . S
N103 C106 1.390 . S
N104 C105 1.345 . S
N104 C107 1.336 . S
C105 N103 1.335 . S
C105 N104 1.345 . S
C105 H110 0.930 . S
C106 N103 1.390 . S
C106 C107 1.346 . S
C106 H111 0.930 . S
C107 N104 1.336 . S
C107 C106 1.346 . S
C107 H114 0.929 . S
C108 O98 1.282 . S
C108 O109 1.216 . S
O109 C108 1.216 . S
H110 C105 0.930 . S
H111 C106 0.930 . S
O112 Cu92 1.959 1_566 S
O112 C99 1.251 . S
H113 C96 0.930 . S
H114 C107 0.929 . S
Cu115 N116 1.999 1_454 S
Cu115 O121 1.974 1_455 S
Cu115 N126 1.985 . S
Cu115 O135 1.959 1_554 S
N116 Cu115 1.999 1_656 S
N116 C118 1.263 . S
N116 C120 1.389 . S
N117 C118 1.358 . S
N117 C119 1.400 . S
C118 N116 1.263 . S
C118 N117 1.358 . S
C118 H124 0.930 . S
C119 N117 1.400 . S
C119 C120 1.351 . S
C119 H136 0.930 . S
C120 N116 1.389 . S
C120 C119 1.351 . S
C120 H125 0.930 1_655 S
O121 Cu115 1.974 1_655 S
O121 C131 1.282 . S
C122 O123 1.261 . S
C122 O135 1.251 . S
O123 C122 1.261 . S
H124 C118 0.930 . S
H125 C120 0.930 1_455 S
N126 Cu115 1.985 . S
N126 C128 1.335 . S
N126 C129 1.390 . S
N127 C128 1.345 . S
N127 C130 1.336 . S
C128 N126 1.335 . S
C128 N127 1.345 . S
C128 H133 0.930 . S
C129 N126 1.390 . S
C129 C130 1.346 . S
C129 H134 0.911 1_455 S
C130 N127 1.336 . S
C130 C129 1.346 . S
C130 H137 0.929 . S
C131 O121 1.282 . S
C131 O132 1.216 . S
O132 C131 1.216 . S
H133 C128 0.930 . S
H134 C129 0.911 1_655 S
O135 Cu115 1.959 1_556 S
O135 C122 1.251 . S
H136 C119 0.930 . S
H137 C130 0.929 . S
Cu138 N139 1.999 . S
Cu138 O144 1.974 . S
Cu138 N149 1.985 . S
Cu138 O158 1.959 . S
N139 Cu138 1.999 . S
N139 C141 1.263 . S
N139 C143 1.389 . S
N140 C141 1.358 . S
N140 C142 1.400 . S
C141 N139 1.263 . S
C141 N140 1.358 . S
C141 H147 0.930 . S
C142 N140 1.400 . S
C142 C143 1.351 . S
C142 H159 0.930 . S
C143 N139 1.389 . S
C143 C142 1.351 . S
C143 H148 0.930 . S
O144 Cu138 1.974 . S
O144 C154 1.282 . S
C145 O146 1.261 . S
C145 O158 1.251 . S
O146 C145 1.261 . S
H147 C141 0.930 . S
H148 C143 0.930 . S
N149 Cu138 1.985 . S
N149 C151 1.335 . S
N149 C152 1.390 . S
N150 C151 1.345 . S
N150 C153 1.336 . S
C151 N149 1.335 . S
C151 N150 1.345 . S
C151 H156 0.930 . S
C152 N149 1.390 . S
C152 C153 1.346 . S
C152 H157 0.930 . S
C153 N150 1.336 . S
C153 C152 1.346 . S
C153 H160 0.929 . S
C154 O144 1.282 . S
C154 O155 1.216 . S
O155 C154 1.216 . S
H156 C151 0.930 . S
H157 C152 0.930 . S
O158 Cu138 1.959 . S
O158 C145 1.251 . S
H159 C142 0.930 . S
H160 C153 0.929 . S
Cu161 N162 1.999 . S
Cu161 O167 1.974 . S
Cu161 N172 1.985 . S
Cu161 O181 1.959 . S
N162 Cu161 1.999 . S
N162 C164 1.263 . S
N162 C166 1.389 . S
N163 C164 1.358 . S
N163 C165 1.400 . S
C164 N162 1.263 . S
C164 N163 1.358 . S
C164 H170 0.930 . S
C165 N163 1.400 . S
C165 C166 1.351 . S
C165 H182 0.930 . S
C166 N162 1.389 . S
C166 C165 1.351 . S
C166 H171 0.930 . S
O167 Cu161 1.974 . S
O167 C177 1.282 . S
C168 O169 1.261 . S
C168 O181 1.251 . S
O169 C168 1.261 . S
H170 C164 0.930 . S
H171 C166 0.930 . S
N172 Cu161 1.985 . S
N172 C174 1.335 . S
N172 C175 1.390 . S
N173 C174 1.345 . S
N173 C176 1.336 . S
C174 N172 1.335 . S
C174 N173 1.345 . S
C174 H179 0.930 . S
C175 N172 1.390 . S
C175 C176 1.346 . S
C175 H180 0.930 . S
C176 N173 1.336 . S
C176 C175 1.346 . S
C176 H183 0.929 . S
C177 O167 1.282 . S
C177 O178 1.216 . S
O178 C177 1.216 . S
H179 C174 0.930 . S
H180 C175 0.930 . S
O181 Cu161 1.959 . S
O181 C168 1.251 . S
H182 C165 0.930 . S
H183 C176 0.929 . S
Cu184 N185 1.999 . S
Cu184 O190 1.974 . S
Cu184 N195 1.985 . S
Cu184 O204 1.959 . S
N185 Cu184 1.999 . S
N185 C187 1.263 . S
N185 C189 1.389 . S
N186 C187 1.358 . S
N186 C188 1.400 . S
C187 N185 1.263 . S
C187 N186 1.358 . S
C187 H193 0.930 . S
C188 N186 1.400 . S
C188 C189 1.351 . S
C188 H205 0.930 . S
C189 N185 1.389 . S
C189 C188 1.351 . S
C189 H194 0.930 . S
O190 Cu184 1.974 . S
O190 C200 1.282 . S
C191 O192 1.261 . S
C191 O204 1.251 . S
O192 C191 1.261 . S
H193 C187 0.930 . S
H194 C189 0.930 . S
N195 Cu184 1.985 . S
N195 C197 1.335 . S
N195 C198 1.390 . S
N196 C197 1.345 . S
N196 C199 1.336 . S
C197 N195 1.335 . S
C197 N196 1.345 . S
C197 H202 0.930 . S
C198 N195 1.390 . S
C198 C199 1.346 . S
C198 H203 0.930 . S
C199 N196 1.336 . S
C199 C198 1.346 . S
C199 H206 0.929 . S
C200 O190 1.282 . S
C200 O201 1.216 . S
O201 C200 1.216 . S
H202 C197 0.930 . S
H203 C198 0.930 . S
O204 Cu184 1.959 . S
O204 C191 1.251 . S
H205 C188 0.930 . S
H206 C199 0.929 . S
Cu207 N208 1.999 . S
Cu207 O213 1.974 . S
Cu207 N218 1.985 . S
Cu207 O227 1.959 . S
N208 Cu207 1.999 . S
N208 C210 1.263 . S
N208 C212 1.389 . S
N209 C210 1.358 . S
N209 C211 1.400 . S
C210 N208 1.263 . S
C210 N209 1.358 . S
C210 H216 0.930 . S
C211 N209 1.400 . S
C211 C212 1.351 . S
C211 H228 0.930 . S
C212 N208 1.389 . S
C212 C211 1.351 . S
C212 H217 0.930 . S
O213 Cu207 1.974 . S
O213 C223 1.282 . S
C214 O215 1.261 . S
C214 O227 1.251 . S
O215 C214 1.261 . S
H216 C210 0.930 . S
H217 C212 0.930 . S
N218 Cu207 1.985 . S
N218 C220 1.335 . S
N218 C221 1.390 . S
N219 C220 1.345 . S
N219 C222 1.336 . S
C220 N218 1.335 . S
C220 N219 1.345 . S
C220 H225 0.930 . S
C221 N218 1.390 . S
C221 C222 1.346 . S
C221 H226 0.930 . S
C222 N219 1.336 . S
C222 C221 1.346 . S
C222 H229 0.929 . S
C223 O213 1.282 . S
C223 O224 1.216 . S
O224 C223 1.216 . S
H225 C220 0.930 . S
H226 C221 0.930 . S
O227 Cu207 1.959 . S
O227 C214 1.251 . S
H228 C211 0.930 . S
H229 C222 0.929 . S
Cu230 N231 1.999 . S
Cu230 O236 1.974 . S
Cu230 N241 1.985 . S
Cu230 O250 1.959 . S
N231 Cu230 1.999 . S
N231 C233 1.263 . S
N231 C235 1.389 . S
N232 C233 1.358 . S
N232 C234 1.400 . S
C233 N231 1.263 . S
C233 N232 1.358 . S
C233 H239 0.930 . S
C234 N232 1.400 . S
C234 C235 1.351 . S
C234 H251 0.930 . S
C235 N231 1.389 . S
C235 C234 1.351 . S
C235 H240 0.930 . S
O236 Cu230 1.974 . S
O236 C246 1.282 . S
C237 O238 1.261 . S
C237 O250 1.251 . S
O238 C237 1.261 . S
H239 C233 0.930 . S
H240 C235 0.930 . S
N241 Cu230 1.985 . S
N241 C243 1.335 . S
N241 C244 1.390 . S
N242 C243 1.345 . S
N242 C245 1.336 . S
C243 N241 1.335 . S
C243 N242 1.345 . S
C243 H248 0.930 . S
C244 N241 1.390 . S
C244 C245 1.346 . S
C244 H249 0.930 . S
C245 N242 1.336 . S
C245 C244 1.346 . S
C245 H252 0.929 . S
C246 O236 1.282 . S
C246 O247 1.216 . S
O247 C246 1.216 . S
H248 C243 0.930 . S
H249 C244 0.930 . S
O250 Cu230 1.959 . S
O250 C237 1.251 . S
H251 C234 0.930 . S
H252 C245 0.929 . S
Cu253 N254 1.999 . S
Cu253 O259 1.974 . S
Cu253 N264 1.985 . S
Cu253 O273 1.959 . S
N254 Cu253 1.999 . S
N254 C256 1.263 . S
N254 C258 1.389 . S
N255 C256 1.358 . S
N255 C257 1.400 . S
C256 N254 1.263 . S
C256 N255 1.358 . S
C256 H262 0.930 . S
C257 N255 1.400 . S
C257 C258 1.351 . S
C257 H274 0.930 . S
C258 N254 1.389 . S
C258 C257 1.351 . S
C258 H263 0.930 . S
O259 Cu253 1.974 . S
O259 C269 1.282 . S
C260 O261 1.261 . S
C260 O273 1.251 . S
O261 C260 1.261 . S
H262 C256 0.930 . S
H263 C258 0.930 . S
N264 Cu253 1.985 . S
N264 C266 1.335 . S
N264 C267 1.390 . S
N265 C266 1.345 . S
N265 C268 1.336 . S
C266 N264 1.335 . S
C266 N265 1.345 . S
C266 H271 0.930 . S
C267 N264 1.390 . S
C267 C268 1.346 . S
C267 H272 0.930 . S
C268 N265 1.336 . S
C268 C267 1.346 . S
C268 H275 0.929 . S
C269 O259 1.282 . S
C269 O270 1.216 . S
O270 C269 1.216 . S
H271 C266 0.930 . S
H272 C267 0.930 . S
O273 Cu253 1.959 . S
O273 C260 1.251 . S
H274 C257 0.930 . S
H275 C268 0.929 . S
Gd276 N307 2.661 . S
Gd276 N313 2.601 . S
Gd276 O320 2.545 . S
Gd276 O321 2.606 . S
Gd276 O323 2.429 . S
Gd276 O324 2.545 . S
Gd276 O325 2.412 . S
Gd276 O327 2.362 . S
Gd276 O328 2.324 . S
Gd276 C335 2.828 . S
Gd277 N286 2.661 . S
Gd277 N290 2.601 . S
Gd277 O321 2.362 . S
Gd277 O322 2.324 . S
Gd277 O326 2.545 . S
Gd277 O327 2.606 . S
Gd277 O329 2.429 . S
Gd277 O330 2.545 . S
Gd277 O331 2.412 . S
Gd277 C344 2.828 . S
C278 C281 1.417 . S
C278 C283 1.431 . S
C278 C284 1.412 . S
C279 C282 1.437 . S
C279 C283 1.317 . S
C279 H298 0.929 . S
C280 C281 1.426 . S
C280 C282 1.413 . S
C280 N290 1.359 . S
C281 C278 1.417 . S
C281 C280 1.426 . S
C281 N286 1.350 . S
C282 C279 1.437 . S
C282 C280 1.413 . S
C282 C292 1.391 . S
C283 C278 1.431 . S
C283 C279 1.317 . S
C283 H294 0.930 . S
C284 C278 1.412 . S
C284 C285 1.355 . S
C284 H296 0.930 . S
C285 C284 1.355 . S
C285 C287 1.402 . S
C285 H297 0.930 . S
N286 Gd277 2.661 . S
N286 C281 1.350 . S
N286 C287 1.307 . S
C287 C285 1.402 . S
C287 N286 1.307 . S
C287 H288 0.930 . S
H288 C287 0.930 . S
C289 N290 1.334 . S
C289 C291 1.394 . S
C289 H293 0.930 . S
N290 Gd277 2.601 . S
N290 C280 1.359 . S
N290 C289 1.334 . S
C291 C289 1.394 . S
C291 C292 1.359 . S
C291 H303 0.930 . S
C292 C282 1.391 . S
C292 C291 1.359 . S
C292 H304 0.929 . S
H293 C289 0.930 . S
H294 C283 0.930 . S
H295 C312 0.930 . S
H296 C284 0.930 . S
H297 C285 0.930 . S
H298 C279 0.929 . S
H299 C317 0.930 . S
H300 C308 0.930 . S
H301 C309 0.930 . S
H302 C333 0.929 . S
H303 C291 0.930 . S
H304 C292 0.929 . S
H305 C334 0.930 . S
H306 C315 0.930 . S
N307 Gd276 2.661 . S
N307 C311 1.350 . S
N307 C312 1.307 . S
C308 H300 0.930 . S
C308 C309 1.355 . S
C308 C310 1.412 . S
C309 H301 0.930 . S
C309 C308 1.355 . S
C309 C312 1.402 . S
C310 C308 1.412 . S
C310 C311 1.417 . S
C310 C334 1.431 . S
C311 N307 1.350 . S
C311 C310 1.417 . S
C311 C314 1.426 . S
C312 H295 0.930 . S
C312 N307 1.307 . S
C312 C309 1.402 . S
N313 Gd276 2.601 . S
N313 C314 1.359 . S
N313 C317 1.334 . S
C314 C311 1.426 . S
C314 N313 1.359 . S
C314 C318 1.413 . S
C315 H306 0.930 . S
C315 C316 1.359 . S
C315 C317 1.394 . S
C316 C315 1.359 . S
C316 C318 1.391 . S
C316 H319 0.929 . S
C317 H299 0.930 . S
C317 N313 1.334 . S
C317 C315 1.394 . S
C318 C314 1.413 . S
C318 C316 1.391 . S
C318 C333 1.437 . S
H319 C316 0.929 . S
O320 Gd276 2.545 . S
O320 C335 1.258 . S
O321 Gd276 2.606 . S
O321 Gd277 2.362 . S
O321 C332 1.284 . S
O322 Gd277 2.324 . S
O322 C342 1.254 . S
O323 Gd276 2.429 . S
O323 C342 1.268 . S
O324 Gd276 2.545 . S
O324 C332 1.250 . S
O325 Gd276 2.412 . S
O325 C335 1.252 . S
O326 Gd277 2.545 . S
O326 C344 1.258 . S
O327 Gd276 2.362 . S
O327 Gd277 2.606 . S
O327 C343 1.284 . S
O328 Gd276 2.324 . S
O328 C351 1.254 . S
O329 Gd277 2.429 . S
O329 C351 1.268 . S
O330 Gd277 2.545 . S
O330 C343 1.250 . S
O331 Gd277 2.412 . S
O331 C344 1.252 . S
C332 O321 1.284 . S
C332 O324 1.250 . S
C333 H302 0.929 . S
C333 C318 1.437 . S
C333 C334 1.317 . S
C334 H305 0.930 . S
C334 C310 1.431 . S
C334 C333 1.317 . S
C335 Gd276 2.828 . S
C335 O320 1.258 . S
C335 O325 1.252 . S
C335 C336 1.497 . S
C336 C335 1.497 . S
C336 C337 1.395 . S
C336 C338 1.380 . S
C337 C336 1.395 . S
C337 C340 1.398 . S
C337 H352 0.930 . S
C338 C336 1.380 . S
C338 C339 1.391 . S
C338 H353 0.930 . S
C339 C338 1.391 . S
C339 C341 1.387 . S
C340 C337 1.398 . S
C340 C341 1.380 . S
C340 H354 0.930 . S
C341 C339 1.387 . S
C341 C340 1.380 . S
C341 H355 0.930 . S
C342 O322 1.254 . S
C342 O323 1.268 . S
C343 O327 1.284 . S
C343 O330 1.250 . S
C344 Gd277 2.828 . S
C344 O326 1.258 . S
C344 O331 1.252 . S
C344 C345 1.497 . S
C345 C344 1.497 . S
C345 C346 1.395 . S
C345 C347 1.380 . S
C346 C345 1.395 . S
C346 C349 1.398 . S
C346 H356 0.930 . S
C347 C345 1.380 . S
C347 C348 1.391 . S
C347 H357 0.930 . S
C348 C347 1.391 . S
C348 C350 1.387 . S
C349 C346 1.398 . S
C349 C350 1.380 . S
C349 H358 0.930 . S
C350 C348 1.387 . S
C350 C349 1.380 . S
C350 H359 0.930 . S
C351 O328 1.254 . S
C351 O329 1.268 . S
H352 C337 0.930 . S
H353 C338 0.930 . S
H354 C340 0.930 . S
H355 C341 0.930 . S
H356 C346 0.930 . S
H357 C347 0.930 . S
H358 C349 0.930 . S
H359 C350 0.930 . S
Gd360 N391 2.661 . S
Gd360 N397 2.601 . S
Gd360 O404 2.545 . S
Gd360 O405 2.606 . S
Gd360 O407 2.429 . S
Gd360 O408 2.545 . S
Gd360 O409 2.412 . S
Gd360 O411 2.362 . S
Gd360 O412 2.324 . S
Gd360 C419 2.828 . S
Gd361 N370 2.661 . S
Gd361 N374 2.601 . S
Gd361 O405 2.362 . S
Gd361 O406 2.324 . S
Gd361 O410 2.545 . S
Gd361 O411 2.606 . S
Gd361 O413 2.429 . S
Gd361 O414 2.545 . S
Gd361 O415 2.412 . S
Gd361 C428 2.828 . S
C362 C365 1.417 . S
C362 C367 1.431 . S
C362 C368 1.412 . S
C363 C366 1.437 . S
C363 C367 1.317 . S
C363 H382 0.929 . S
C364 C365 1.426 . S
C364 C366 1.413 . S
C364 N374 1.359 . S
C365 C362 1.417 . S
C365 C364 1.426 . S
C365 N370 1.350 . S
C366 C363 1.437 . S
C366 C364 1.413 . S
C366 C376 1.391 . S
C367 C362 1.431 . S
C367 C363 1.317 . S
C367 H378 0.930 . S
C368 C362 1.412 . S
C368 C369 1.355 . S
C368 H380 0.930 . S
C369 C368 1.355 . S
C369 C371 1.402 . S
C369 H381 0.930 . S
N370 Gd361 2.661 . S
N370 C365 1.350 . S
N370 C371 1.307 . S
C371 C369 1.402 . S
C371 N370 1.307 . S
C371 H372 0.930 . S
H372 C371 0.930 . S
C373 N374 1.334 . S
C373 C375 1.394 . S
C373 H377 0.930 . S
N374 Gd361 2.601 . S
N374 C364 1.359 . S
N374 C373 1.334 . S
C375 C373 1.394 . S
C375 C376 1.359 . S
C375 H387 0.930 . S
C376 C366 1.391 . S
C376 C375 1.359 . S
C376 H388 0.929 . S
H377 C373 0.930 . S
H378 C367 0.930 . S
H379 C396 0.930 . S
H380 C368 0.930 . S
H381 C369 0.930 . S
H382 C363 0.929 . S
H383 C401 0.930 . S
H384 C392 0.930 . S
H385 C393 0.930 . S
H386 C417 0.929 . S
H387 C375 0.930 . S
H388 C376 0.929 . S
H389 C418 0.930 . S
H390 C399 0.930 . S
N391 Gd360 2.661 . S
N391 C395 1.350 . S
N391 C396 1.307 . S
C392 H384 0.930 . S
C392 C393 1.355 . S
C392 C394 1.412 . S
C393 H385 0.930 . S
C393 C392 1.355 . S
C393 C396 1.402 . S
C394 C392 1.412 . S
C394 C395 1.417 . S
C394 C418 1.431 . S
C395 N391 1.350 . S
C395 C394 1.417 . S
C395 C398 1.426 . S
C396 H379 0.930 . S
C396 N391 1.307 . S
C396 C393 1.402 . S
N397 Gd360 2.601 . S
N397 C398 1.359 . S
N397 C401 1.334 . S
C398 C395 1.426 . S
C398 N397 1.359 . S
C398 C402 1.413 . S
C399 H390 0.930 . S
C399 C400 1.359 . S
C399 C401 1.394 . S
C400 C399 1.359 . S
C400 C402 1.391 . S
C400 H403 0.929 . S
C401 H383 0.930 . S
C401 N397 1.334 . S
C401 C399 1.394 . S
C402 C398 1.413 . S
C402 C400 1.391 . S
C402 C417 1.437 . S
H403 C400 0.929 . S
O404 Gd360 2.545 . S
O404 C419 1.258 . S
O405 Gd360 2.606 . S
O405 Gd361 2.362 . S
O405 C416 1.284 . S
O406 Gd361 2.324 . S
O406 C426 1.254 . S
O407 Gd360 2.429 . S
O407 C426 1.268 . S
O408 Gd360 2.545 . S
O408 C416 1.250 . S
O409 Gd360 2.412 . S
O409 C419 1.252 . S
O410 Gd361 2.545 . S
O410 C428 1.258 . S
O411 Gd360 2.362 . S
O411 Gd361 2.606 . S
O411 C427 1.284 . S
O412 Gd360 2.324 . S
O412 C435 1.254 . S
O413 Gd361 2.429 . S
O413 C435 1.268 . S
O414 Gd361 2.545 . S
O414 C427 1.250 . S
O415 Gd361 2.412 . S
O415 C428 1.252 . S
C416 O405 1.284 . S
C416 O408 1.250 . S
C417 H386 0.929 . S
C417 C402 1.437 . S
C417 C418 1.317 . S
C418 H389 0.930 . S
C418 C394 1.431 . S
C418 C417 1.317 . S
C419 Gd360 2.828 . S
C419 O404 1.258 . S
C419 O409 1.252 . S
C419 C420 1.497 . S
C420 C419 1.497 . S
C420 C421 1.395 . S
C420 C422 1.380 . S
C421 C420 1.395 . S
C421 C424 1.398 . S
C421 H436 0.930 . S
C422 C420 1.380 . S
C422 C423 1.391 . S
C422 H437 0.930 . S
C423 C422 1.391 . S
C423 C425 1.387 . S
C424 C421 1.398 . S
C424 C425 1.380 . S
C424 H438 0.930 . S
C425 C423 1.387 . S
C425 C424 1.380 . S
C425 H439 0.930 . S
C426 O406 1.254 . S
C426 O407 1.268 . S
C427 O411 1.284 . S
C427 O414 1.250 . S
C428 Gd361 2.828 . S
C428 O410 1.258 . S
C428 O415 1.252 . S
C428 C429 1.497 . S
C429 C428 1.497 . S
C429 C430 1.395 . S
C429 C431 1.380 . S
C430 C429 1.395 . S
C430 C433 1.398 . S
C430 H440 0.930 . S
C431 C429 1.380 . S
C431 C432 1.391 . S
C431 H441 0.930 . S
C432 C431 1.391 . S
C432 C434 1.387 . S
C433 C430 1.398 . S
C433 C434 1.380 . S
C433 H442 0.930 . S
C434 C432 1.387 . S
C434 C433 1.380 . S
C434 H443 0.930 . S
C435 O412 1.254 . S
C435 O413 1.268 . S
H436 C421 0.930 . S
H437 C422 0.930 . S
H438 C424 0.930 . S
H439 C425 0.930 . S
H440 C430 0.930 . S
H441 C431 0.930 . S
H442 C433 0.930 . S
H443 C434 0.930 . S
Gd444 N475 2.661 . S
Gd444 N481 2.601 . S
Gd444 O488 2.545 . S
Gd444 O489 2.606 . S
Gd444 O491 2.429 . S
Gd444 O492 2.545 . S
Gd444 O493 2.412 . S
Gd444 O495 2.362 . S
Gd444 O496 2.324 . S
Gd444 C503 2.828 . S
Gd445 N454 2.661 . S
Gd445 N458 2.601 . S
Gd445 O489 2.362 . S
Gd445 O490 2.324 . S
Gd445 O494 2.545 . S
Gd445 O495 2.606 . S
Gd445 O497 2.429 . S
Gd445 O498 2.545 . S
Gd445 O499 2.412 . S
Gd445 C512 2.828 . S
C446 C449 1.417 . S
C446 C451 1.431 . S
C446 C452 1.412 . S
C447 C450 1.437 . S
C447 C451 1.317 . S
C447 H466 0.929 . S
C448 C449 1.426 . S
C448 C450 1.413 . S
C448 N458 1.359 . S
C449 C446 1.417 . S
C449 C448 1.426 . S
C449 N454 1.350 . S
C450 C447 1.437 . S
C450 C448 1.413 . S
C450 C460 1.391 . S
C451 C446 1.431 . S
C451 C447 1.317 . S
C451 H462 0.930 . S
C452 C446 1.412 . S
C452 C453 1.355 . S
C452 H464 0.930 . S
C453 C452 1.355 . S
C453 C455 1.402 . S
C453 H465 0.930 . S
N454 Gd445 2.661 . S
N454 C449 1.350 . S
N454 C455 1.307 . S
C455 C453 1.402 . S
C455 N454 1.307 . S
C455 H456 0.930 . S
H456 C455 0.930 . S
C457 N458 1.334 . S
C457 C459 1.394 . S
C457 H461 0.930 . S
N458 Gd445 2.601 . S
N458 C448 1.359 . S
N458 C457 1.334 . S
C459 C457 1.394 . S
C459 C460 1.359 . S
C459 H471 0.930 . S
C460 C450 1.391 . S
C460 C459 1.359 . S
C460 H472 0.929 . S
H461 C457 0.930 . S
H462 C451 0.930 . S
H463 C480 0.930 . S
H464 C452 0.930 . S
H465 C453 0.930 . S
H466 C447 0.929 . S
H467 C485 0.930 . S
H468 C476 0.930 . S
H469 C477 0.930 . S
H470 C501 0.929 . S
H471 C459 0.930 . S
H472 C460 0.929 . S
H473 C502 0.930 . S
H474 C483 0.930 . S
N475 Gd444 2.661 . S
N475 C479 1.350 . S
N475 C480 1.307 . S
C476 H468 0.930 . S
C476 C477 1.355 . S
C476 C478 1.412 . S
C477 H469 0.930 . S
C477 C476 1.355 . S
C477 C480 1.402 . S
C478 C476 1.412 . S
C478 C479 1.417 . S
C478 C502 1.431 . S
C479 N475 1.350 . S
C479 C478 1.417 . S
C479 C482 1.426 . S
C480 H463 0.930 . S
C480 N475 1.307 . S
C480 C477 1.402 . S
N481 Gd444 2.601 . S
N481 C482 1.359 . S
N481 C485 1.334 . S
C482 C479 1.426 . S
C482 N481 1.359 . S
C482 C486 1.413 . S
C483 H474 0.930 . S
C483 C484 1.359 . S
C483 C485 1.394 . S
C484 C483 1.359 . S
C484 C486 1.391 . S
C484 H487 0.929 . S
C485 H467 0.930 . S
C485 N481 1.334 . S
C485 C483 1.394 . S
C486 C482 1.413 . S
C486 C484 1.391 . S
C486 C501 1.437 . S
H487 C484 0.929 . S
O488 Gd444 2.545 . S
O488 C503 1.258 . S
O489 Gd444 2.606 . S
O489 Gd445 2.362 . S
O489 C500 1.284 . S
O490 Gd445 2.324 . S
O490 C510 1.254 . S
O491 Gd444 2.429 . S
O491 C510 1.268 . S
O492 Gd444 2.545 . S
O492 C500 1.250 . S
O493 Gd444 2.412 . S
O493 C503 1.252 . S
O494 Gd445 2.545 . S
O494 C512 1.258 . S
O495 Gd444 2.362 . S
O495 Gd445 2.606 . S
O495 C511 1.284 . S
O496 Gd444 2.324 . S
O496 C519 1.254 . S
O497 Gd445 2.429 . S
O497 C519 1.268 . S
O498 Gd445 2.545 . S
O498 C511 1.250 . S
O499 Gd445 2.412 . S
O499 C512 1.252 . S
C500 O489 1.284 . S
C500 O492 1.250 . S
C501 H470 0.929 . S
C501 C486 1.437 . S
C501 C502 1.317 . S
C502 H473 0.930 . S
C502 C478 1.431 . S
C502 C501 1.317 . S
C503 Gd444 2.828 . S
C503 O488 1.258 . S
C503 O493 1.252 . S
C503 C504 1.497 . S
C504 C503 1.497 . S
C504 C505 1.395 . S
C504 C506 1.380 . S
C505 C504 1.395 . S
C505 C508 1.398 . S
C505 H520 0.930 . S
C506 C504 1.380 . S
C506 C507 1.391 . S
C506 H521 0.930 . S
C507 C506 1.391 . S
C507 C509 1.387 . S
C508 C505 1.398 . S
C508 C509 1.380 . S
C508 H522 0.930 . S
C509 C507 1.387 . S
C509 C508 1.380 . S
C509 H523 0.930 . S
C510 O490 1.254 . S
C510 O491 1.268 . S
C511 O495 1.284 . S
C511 O498 1.250 . S
C512 Gd445 2.828 . S
C512 O494 1.258 . S
C512 O499 1.252 . S
C512 C513 1.497 . S
C513 C512 1.497 . S
C513 C514 1.395 . S
C513 C515 1.380 . S
C514 C513 1.395 . S
C514 C517 1.398 . S
C514 H524 0.930 . S
C515 C513 1.380 . S
C515 C516 1.391 . S
C515 H525 0.930 . S
C516 C515 1.391 . S
C516 C518 1.387 . S
C517 C514 1.398 . S
C517 C518 1.380 . S
C517 H526 0.930 . S
C518 C516 1.387 . S
C518 C517 1.380 . S
C518 H527 0.930 . S
C519 O496 1.254 . S
C519 O497 1.268 . S
H520 C505 0.930 . S
H521 C506 0.930 . S
H522 C508 0.930 . S
H523 C509 0.930 . S
H524 C514 0.930 . S
H525 C515 0.930 . S
H526 C517 0.930 . S
H527 C518 0.930 . S
Gd528 N559 2.661 . S
Gd528 N565 2.601 . S
Gd528 O572 2.545 . S
Gd528 O573 2.606 . S
Gd528 O575 2.429 . S
Gd528 O576 2.545 . S
Gd528 O577 2.412 . S
Gd528 O579 2.362 . S
Gd528 O580 2.324 . S
Gd528 C587 2.828 . S
Gd529 N538 2.661 . S
Gd529 N542 2.601 . S
Gd529 O573 2.362 . S
Gd529 O574 2.324 . S
Gd529 O578 2.545 . S
Gd529 O579 2.606 . S
Gd529 O581 2.429 . S
Gd529 O582 2.545 . S
Gd529 O583 2.412 . S
Gd529 C596 2.828 . S
C530 C533 1.417 . S
C530 C535 1.431 . S
C530 C536 1.412 . S
C531 C534 1.437 . S
C531 C535 1.317 . S
C531 H550 0.929 . S
C532 C533 1.426 . S
C532 C534 1.413 . S
C532 N542 1.359 . S
C533 C530 1.417 . S
C533 C532 1.426 . S
C533 N538 1.350 . S
C534 C531 1.437 . S
C534 C532 1.413 . S
C534 C544 1.391 . S
C535 C530 1.431 . S
C535 C531 1.317 . S
C535 H546 0.930 . S
C536 C530 1.412 . S
C536 C537 1.355 . S
C536 H548 0.930 . S
C537 C536 1.355 . S
C537 C539 1.402 . S
C537 H549 0.930 . S
N538 Gd529 2.661 . S
N538 C533 1.350 . S
N538 C539 1.307 . S
C539 C537 1.402 . S
C539 N538 1.307 . S
C539 H540 0.930 . S
H540 C539 0.930 . S
C541 N542 1.334 . S
C541 C543 1.394 . S
C541 H545 0.930 . S
N542 Gd529 2.601 . S
N542 C532 1.359 . S
N542 C541 1.334 . S
C543 C541 1.394 . S
C543 C544 1.359 . S
C543 H555 0.930 . S
C544 C534 1.391 . S
C544 C543 1.359 . S
C544 H556 0.929 . S
H545 C541 0.930 . S
H546 C535 0.930 . S
H547 C564 0.930 . S
H548 C536 0.930 . S
H549 C537 0.930 . S
H550 C531 0.929 . S
H551 C569 0.930 . S
H552 C560 0.930 . S
H553 C561 0.930 . S
H554 C585 0.929 . S
H555 C543 0.930 . S
H556 C544 0.929 . S
H557 C586 0.930 . S
H558 C567 0.930 . S
N559 Gd528 2.661 . S
N559 C563 1.350 . S
N559 C564 1.307 . S
C560 H552 0.930 . S
C560 C561 1.355 . S
C560 C562 1.412 . S
C561 H553 0.930 . S
C561 C560 1.355 . S
C561 C564 1.402 . S
C562 C560 1.412 . S
C562 C563 1.417 . S
C562 C586 1.431 . S
C563 N559 1.350 . S
C563 C562 1.417 . S
C563 C566 1.426 . S
C564 H547 0.930 . S
C564 N559 1.307 . S
C564 C561 1.402 . S
N565 Gd528 2.601 . S
N565 C566 1.359 . S
N565 C569 1.334 . S
C566 C563 1.426 . S
C566 N565 1.359 . S
C566 C570 1.413 . S
C567 H558 0.930 . S
C567 C568 1.359 . S
C567 C569 1.394 . S
C568 C567 1.359 . S
C568 C570 1.391 . S
C568 H571 0.929 . S
C569 H551 0.930 . S
C569 N565 1.334 . S
C569 C567 1.394 . S
C570 C566 1.413 . S
C570 C568 1.391 . S
C570 C585 1.437 . S
H571 C568 0.929 . S
O572 Gd528 2.545 . S
O572 C587 1.258 . S
O573 Gd528 2.606 . S
O573 Gd529 2.362 . S
O573 C584 1.284 . S
O574 Gd529 2.324 . S
O574 C594 1.254 . S
O575 Gd528 2.429 . S
O575 C594 1.268 . S
O576 Gd528 2.545 . S
O576 C584 1.250 . S
O577 Gd528 2.412 . S
O577 C587 1.252 . S
O578 Gd529 2.545 . S
O578 C596 1.258 . S
O579 Gd528 2.362 . S
O579 Gd529 2.606 . S
O579 C595 1.284 . S
O580 Gd528 2.324 . S
O580 C603 1.254 . S
O581 Gd529 2.429 . S
O581 C603 1.268 . S
O582 Gd529 2.545 . S
O582 C595 1.250 . S
O583 Gd529 2.412 . S
O583 C596 1.252 . S
C584 O573 1.284 . S
C584 O576 1.250 . S
C585 H554 0.929 . S
C585 C570 1.437 . S
C585 C586 1.317 . S
C586 H557 0.930 . S
C586 C562 1.431 . S
C586 C585 1.317 . S
C587 Gd528 2.828 . S
C587 O572 1.258 . S
C587 O577 1.252 . S
C587 C588 1.497 . S
C588 C587 1.497 . S
C588 C589 1.395 . S
C588 C590 1.380 . S
C589 C588 1.395 . S
C589 C592 1.398 . S
C589 H604 0.930 . S
C590 C588 1.380 . S
C590 C591 1.391 . S
C590 H605 0.930 . S
C591 C590 1.391 . S
C591 C593 1.387 . S
C592 C589 1.398 . S
C592 C593 1.380 . S
C592 H606 0.930 . S
C593 C591 1.387 . S
C593 C592 1.380 . S
C593 H607 0.930 . S
C594 O574 1.254 . S
C594 O575 1.268 . S
C595 O579 1.284 . S
C595 O582 1.250 . S
C596 Gd529 2.828 . S
C596 O578 1.258 . S
C596 O583 1.252 . S
C596 C597 1.497 . S
C597 C596 1.497 . S
C597 C598 1.395 . S
C597 C599 1.380 . S
C598 C597 1.395 . S
C598 C601 1.398 . S
C598 H608 0.930 . S
C599 C597 1.380 . S
C599 C600 1.391 . S
C599 H609 0.930 . S
C600 C599 1.391 . S
C600 C602 1.387 . S
C601 C598 1.398 . S
C601 C602 1.380 . S
C601 H610 0.930 . S
C602 C600 1.387 . S
C602 C601 1.380 . S
C602 H611 0.930 . S
C603 O580 1.254 . S
C603 O581 1.268 . S
H604 C589 0.930 . S
H605 C590 0.930 . S
H606 C592 0.930 . S
H607 C593 0.930 . S
H608 C598 0.930 . S
H609 C599 0.930 . S
H610 C601 0.930 . S
H611 C602 0.930 . S
Gd612 N643 2.661 . S
Gd612 N649 2.601 . S
Gd612 O656 2.545 . S
Gd612 O657 2.606 . S
Gd612 O659 2.429 . S
Gd612 O660 2.545 . S
Gd612 O661 2.412 . S
Gd612 O663 2.362 . S
Gd612 O664 2.324 . S
Gd612 C671 2.828 . S
Gd613 N622 2.661 . S
Gd613 N626 2.601 . S
Gd613 O657 2.362 . S
Gd613 O658 2.324 . S
Gd613 O662 2.545 . S
Gd613 O663 2.606 . S
Gd613 O665 2.429 . S
Gd613 O666 2.545 . S
Gd613 O667 2.412 . S
Gd613 C680 2.828 . S
C614 C617 1.417 . S
C614 C619 1.431 . S
C614 C620 1.412 . S
C615 C618 1.437 . S
C615 C619 1.317 . S
C615 H634 0.929 . S
C616 C617 1.426 . S
C616 C618 1.413 . S
C616 N626 1.359 . S
C617 C614 1.417 . S
C617 C616 1.426 . S
C617 N622 1.350 . S
C618 C615 1.437 . S
C618 C616 1.413 . S
C618 C628 1.391 . S
C619 C614 1.431 . S
C619 C615 1.317 . S
C619 H630 0.930 . S
C620 C614 1.412 . S
C620 C621 1.355 . S
C620 H632 0.930 . S
C621 C620 1.355 . S
C621 C623 1.402 . S
C621 H633 0.930 . S
N622 Gd613 2.661 . S
N622 C617 1.350 . S
N622 C623 1.307 . S
C623 C621 1.402 . S
C623 N622 1.307 . S
C623 H624 0.930 . S
H624 C623 0.930 . S
C625 N626 1.334 . S
C625 C627 1.394 . S
C625 H629 0.930 . S
N626 Gd613 2.601 . S
N626 C616 1.359 . S
N626 C625 1.334 . S
C627 C625 1.394 . S
C627 C628 1.359 . S
C627 H639 0.930 . S
C628 C618 1.391 . S
C628 C627 1.359 . S
C628 H640 0.929 . S
H629 C625 0.930 . S
H630 C619 0.930 . S
H631 C648 0.930 . S
H632 C620 0.930 . S
H633 C621 0.930 . S
H634 C615 0.929 . S
H635 C653 0.930 . S
H636 C644 0.930 . S
H637 C645 0.930 . S
H638 C669 0.929 . S
H639 C627 0.930 . S
H640 C628 0.929 . S
H641 C670 0.930 . S
H642 C651 0.930 . S
N643 Gd612 2.661 . S
N643 C647 1.350 . S
N643 C648 1.307 . S
C644 H636 0.930 . S
C644 C645 1.355 . S
C644 C646 1.412 . S
C645 H637 0.930 . S
C645 C644 1.355 . S
C645 C648 1.402 . S
C646 C644 1.412 . S
C646 C647 1.417 . S
C646 C670 1.431 . S
C647 N643 1.350 . S
C647 C646 1.417 . S
C647 C650 1.426 . S
C648 H631 0.930 . S
C648 N643 1.307 . S
C648 C645 1.402 . S
N649 Gd612 2.601 . S
N649 C650 1.359 . S
N649 C653 1.334 . S
C650 C647 1.426 . S
C650 N649 1.359 . S
C650 C654 1.413 . S
C651 H642 0.930 . S
C651 C652 1.359 . S
C651 C653 1.394 . S
C652 C651 1.359 . S
C652 C654 1.391 . S
C652 H655 0.929 . S
C653 H635 0.930 . S
C653 N649 1.334 . S
C653 C651 1.394 . S
C654 C650 1.413 . S
C654 C652 1.391 . S
C654 C669 1.437 . S
H655 C652 0.929 . S
O656 Gd612 2.545 . S
O656 C671 1.258 . S
O657 Gd612 2.606 . S
O657 Gd613 2.362 . S
O657 C668 1.284 . S
O658 Gd613 2.324 . S
O658 C678 1.254 . S
O659 Gd612 2.429 . S
O659 C678 1.268 . S
O660 Gd612 2.545 . S
O660 C668 1.250 . S
O661 Gd612 2.412 . S
O661 C671 1.252 . S
O662 Gd613 2.545 . S
O662 C680 1.258 . S
O663 Gd612 2.362 . S
O663 Gd613 2.606 . S
O663 C679 1.284 . S
O664 Gd612 2.324 . S
O664 C687 1.254 . S
O665 Gd613 2.429 . S
O665 C687 1.268 . S
O666 Gd613 2.545 . S
O666 C679 1.250 . S
O667 Gd613 2.412 . S
O667 C680 1.252 . S
C668 O657 1.284 . S
C668 O660 1.250 . S
C669 H638 0.929 . S
C669 C654 1.437 . S
C669 C670 1.317 . S
C670 H641 0.930 . S
C670 C646 1.431 . S
C670 C669 1.317 . S
C671 Gd612 2.828 . S
C671 O656 1.258 . S
C671 O661 1.252 . S
C671 C672 1.497 . S
C672 C671 1.497 . S
C672 C673 1.395 . S
C672 C674 1.380 . S
C673 C672 1.395 . S
C673 C676 1.398 . S
C673 H688 0.930 . S
C674 C672 1.380 . S
C674 C675 1.391 . S
C674 H689 0.930 . S
C675 C674 1.391 . S
C675 C677 1.387 . S
C676 C673 1.398 . S
C676 C677 1.380 . S
C676 H690 0.930 . S
C677 C675 1.387 . S
C677 C676 1.380 . S
C677 H691 0.930 . S
C678 O658 1.254 . S
C678 O659 1.268 . S
C679 O663 1.284 . S
C679 O666 1.250 . S
C680 Gd613 2.828 . S
C680 O662 1.258 . S
C680 O667 1.252 . S
C680 C681 1.497 . S
C681 C680 1.497 . S
C681 C682 1.395 . S
C681 C683 1.380 . S
C682 C681 1.395 . S
C682 C685 1.398 . S
C682 H692 0.930 . S
C683 C681 1.380 . S
C683 C684 1.391 . S
C683 H693 0.930 . S
C684 C683 1.391 . S
C684 C686 1.387 . S
C685 C682 1.398 . S
C685 C686 1.380 . S
C685 H694 0.930 . S
C686 C684 1.387 . S
C686 C685 1.380 . S
C686 H695 0.930 . S
C687 O664 1.254 . S
C687 O665 1.268 . S
H688 C673 0.930 . S
H689 C674 0.930 . S
H690 C676 0.930 . S
H691 C677 0.930 . S
H692 C682 0.930 . S
H693 C683 0.930 . S
H694 C685 0.930 . S
H695 C686 0.930 . S
Gd696 N727 2.661 . S
Gd696 N733 2.601 . S
Gd696 O740 2.545 . S
Gd696 O741 2.606 . S
Gd696 O743 2.429 . S
Gd696 O744 2.545 . S
Gd696 O745 2.412 . S
Gd696 O747 2.362 . S
Gd696 O748 2.324 . S
Gd696 C755 2.828 . S
Gd697 N706 2.661 . S
Gd697 N710 2.601 . S
Gd697 O741 2.362 . S
Gd697 O742 2.324 . S
Gd697 O746 2.545 . S
Gd697 O747 2.606 . S
Gd697 O749 2.429 . S
Gd697 O750 2.545 . S
Gd697 O751 2.412 . S
Gd697 C764 2.828 . S
C698 C701 1.417 . S
C698 C703 1.431 . S
C698 C704 1.412 . S
C699 C702 1.437 . S
C699 C703 1.317 . S
C699 H718 0.929 . S
C700 C701 1.426 . S
C700 C702 1.413 . S
C700 N710 1.359 . S
C701 C698 1.417 . S
C701 C700 1.426 . S
C701 N706 1.350 . S
C702 C699 1.437 . S
C702 C700 1.413 . S
C702 C712 1.391 . S
C703 C698 1.431 . S
C703 C699 1.317 . S
C703 H714 0.930 . S
C704 C698 1.412 . S
C704 C705 1.355 . S
C704 H716 0.930 . S
C705 C704 1.355 . S
C705 C707 1.402 . S
C705 H717 0.930 . S
N706 Gd697 2.661 . S
N706 C701 1.350 . S
N706 C707 1.307 . S
C707 C705 1.402 . S
C707 N706 1.307 . S
C707 H708 0.930 . S
H708 C707 0.930 . S
C709 N710 1.334 . S
C709 C711 1.394 . S
C709 H713 0.930 . S
N710 Gd697 2.601 . S
N710 C700 1.359 . S
N710 C709 1.334 . S
C711 C709 1.394 . S
C711 C712 1.359 . S
C711 H723 0.930 . S
C712 C702 1.391 . S
C712 C711 1.359 . S
C712 H724 0.929 . S
H713 C709 0.930 . S
H714 C703 0.930 . S
H715 C732 0.930 . S
H716 C704 0.930 . S
H717 C705 0.930 . S
H718 C699 0.929 . S
H719 C737 0.930 . S
H720 C728 0.930 . S
H721 C729 0.930 . S
H722 C753 0.929 . S
H723 C711 0.930 . S
H724 C712 0.929 . S
H725 C754 0.930 . S
H726 C735 0.930 . S
N727 Gd696 2.661 . S
N727 C731 1.350 . S
N727 C732 1.307 . S
C728 H720 0.930 . S
C728 C729 1.355 . S
C728 C730 1.412 . S
C729 H721 0.930 . S
C729 C728 1.355 . S
C729 C732 1.402 . S
C730 C728 1.412 . S
C730 C731 1.417 . S
C730 C754 1.431 . S
C731 N727 1.350 . S
C731 C730 1.417 . S
C731 C734 1.426 . S
C732 H715 0.930 . S
C732 N727 1.307 . S
C732 C729 1.402 . S
N733 Gd696 2.601 . S
N733 C734 1.359 . S
N733 C737 1.334 . S
C734 C731 1.426 . S
C734 N733 1.359 . S
C734 C738 1.413 . S
C735 H726 0.930 . S
C735 C736 1.359 . S
C735 C737 1.394 . S
C736 C735 1.359 . S
C736 C738 1.391 . S
C736 H739 0.929 . S
C737 H719 0.930 . S
C737 N733 1.334 . S
C737 C735 1.394 . S
C738 C734 1.413 . S
C738 C736 1.391 . S
C738 C753 1.437 . S
H739 C736 0.929 . S
O740 Gd696 2.545 . S
O740 C755 1.258 . S
O741 Gd696 2.606 . S
O741 Gd697 2.362 . S
O741 C752 1.284 . S
O742 Gd697 2.324 . S
O742 C762 1.254 . S
O743 Gd696 2.429 . S
O743 C762 1.268 . S
O744 Gd696 2.545 . S
O744 C752 1.250 . S
O745 Gd696 2.412 . S
O745 C755 1.252 . S
O746 Gd697 2.545 . S
O746 C764 1.258 . S
O747 Gd696 2.362 . S
O747 Gd697 2.606 . S
O747 C763 1.284 . S
O748 Gd696 2.324 . S
O748 C771 1.254 . S
O749 Gd697 2.429 . S
O749 C771 1.268 . S
O750 Gd697 2.545 . S
O750 C763 1.250 . S
O751 Gd697 2.412 . S
O751 C764 1.252 . S
C752 O741 1.284 . S
C752 O744 1.250 . S
C753 H722 0.929 . S
C753 C738 1.437 . S
C753 C754 1.317 . S
C754 H725 0.930 . S
C754 C730 1.431 . S
C754 C753 1.317 . S
C755 Gd696 2.828 . S
C755 O740 1.258 . S
C755 O745 1.252 . S
C755 C756 1.497 . S
C756 C755 1.497 . S
C756 C757 1.395 . S
C756 C758 1.380 . S
C757 C756 1.395 . S
C757 C760 1.398 . S
C757 H772 0.930 . S
C758 C756 1.380 . S
C758 C759 1.391 . S
C758 H773 0.930 . S
C759 C758 1.391 . S
C759 C761 1.387 . S
C760 C757 1.398 . S
C760 C761 1.380 . S
C760 H774 0.930 . S
C761 C759 1.387 . S
C761 C760 1.380 . S
C761 H775 0.930 . S
C762 O742 1.254 . S
C762 O743 1.268 . S
C763 O747 1.284 . S
C763 O750 1.250 . S
C764 Gd697 2.828 . S
C764 O746 1.258 . S
C764 O751 1.252 . S
C764 C765 1.497 . S
C765 C764 1.497 . S
C765 C766 1.395 . S
C765 C767 1.380 . S
C766 C765 1.395 . S
C766 C769 1.398 . S
C766 H776 0.930 . S
C767 C765 1.380 . S
C767 C768 1.391 . S
C767 H777 0.930 . S
C768 C767 1.391 . S
C768 C770 1.387 . S
C769 C766 1.398 . S
C769 C770 1.380 . S
C769 H778 0.930 . S
C770 C768 1.387 . S
C770 C769 1.380 . S
C770 H779 0.930 . S
C771 O748 1.254 . S
C771 O749 1.268 . S
H772 C757 0.930 . S
H773 C758 0.930 . S
H774 C760 0.930 . S
H775 C761 0.930 . S
H776 C766 0.930 . S
H777 C767 0.930 . S
H778 C769 0.930 . S
H779 C770 0.930 . S
Gd780 N811 2.661 . S
Gd780 N817 2.601 . S
Gd780 O824 2.545 . S
Gd780 O825 2.606 . S
Gd780 O827 2.429 . S
Gd780 O828 2.545 . S
Gd780 O829 2.412 . S
Gd780 O831 2.362 . S
Gd780 O832 2.324 . S
Gd780 C839 2.828 . S
Gd781 N790 2.661 . S
Gd781 N794 2.601 . S
Gd781 O825 2.362 . S
Gd781 O826 2.324 . S
Gd781 O830 2.545 . S
Gd781 O831 2.606 . S
Gd781 O833 2.429 . S
Gd781 O834 2.545 . S
Gd781 O835 2.412 . S
Gd781 C848 2.828 . S
C782 C785 1.417 . S
C782 C787 1.431 . S
C782 C788 1.412 . S
C783 C786 1.437 . S
C783 C787 1.317 . S
C783 H802 0.929 . S
C784 C785 1.426 . S
C784 C786 1.413 . S
C784 N794 1.359 . S
C785 C782 1.417 . S
C785 C784 1.426 . S
C785 N790 1.350 . S
C786 C783 1.437 . S
C786 C784 1.413 . S
C786 C796 1.391 . S
C787 C782 1.431 . S
C787 C783 1.317 . S
C787 H798 0.930 . S
C788 C782 1.412 . S
C788 C789 1.355 . S
C788 H800 0.930 . S
C789 C788 1.355 . S
C789 C791 1.402 . S
C789 H801 0.930 . S
N790 Gd781 2.661 . S
N790 C785 1.350 . S
N790 C791 1.307 . S
C791 C789 1.402 . S
C791 N790 1.307 . S
C791 H792 0.930 . S
H792 C791 0.930 . S
C793 N794 1.334 . S
C793 C795 1.394 . S
C793 H797 0.930 . S
N794 Gd781 2.601 . S
N794 C784 1.359 . S
N794 C793 1.334 . S
C795 C793 1.394 . S
C795 C796 1.359 . S
C795 H807 0.930 . S
C796 C786 1.391 . S
C796 C795 1.359 . S
C796 H808 0.929 . S
H797 C793 0.930 . S
H798 C787 0.930 . S
H799 C816 0.930 . S
H800 C788 0.930 . S
H801 C789 0.930 . S
H802 C783 0.929 . S
H803 C821 0.930 . S
H804 C812 0.930 . S
H805 C813 0.930 . S
H806 C837 0.929 . S
H807 C795 0.930 . S
H808 C796 0.929 . S
H809 C838 0.930 . S
H810 C819 0.930 . S
N811 Gd780 2.661 . S
N811 C815 1.350 . S
N811 C816 1.307 . S
C812 H804 0.930 . S
C812 C813 1.355 . S
C812 C814 1.412 . S
C813 H805 0.930 . S
C813 C812 1.355 . S
C813 C816 1.402 . S
C814 C812 1.412 . S
C814 C815 1.417 . S
C814 C838 1.431 . S
C815 N811 1.350 . S
C815 C814 1.417 . S
C815 C818 1.426 . S
C816 H799 0.930 . S
C816 N811 1.307 . S
C816 C813 1.402 . S
N817 Gd780 2.601 . S
N817 C818 1.359 . S
N817 C821 1.334 . S
C818 C815 1.426 . S
C818 N817 1.359 . S
C818 C822 1.413 . S
C819 H810 0.930 . S
C819 C820 1.359 . S
C819 C821 1.394 . S
C820 C819 1.359 . S
C820 C822 1.391 . S
C820 H823 0.929 . S
C821 H803 0.930 . S
C821 N817 1.334 . S
C821 C819 1.394 . S
C822 C818 1.413 . S
C822 C820 1.391 . S
C822 C837 1.437 . S
H823 C820 0.929 . S
O824 Gd780 2.545 . S
O824 C839 1.258 . S
O825 Gd780 2.606 . S
O825 Gd781 2.362 . S
O825 C836 1.284 . S
O826 Gd781 2.324 . S
O826 C846 1.254 . S
O827 Gd780 2.429 . S
O827 C846 1.268 . S
O828 Gd780 2.545 . S
O828 C836 1.250 . S
O829 Gd780 2.412 . S
O829 C839 1.252 . S
O830 Gd781 2.545 . S
O830 C848 1.258 . S
O831 Gd780 2.362 . S
O831 Gd781 2.606 . S
O831 C847 1.284 . S
O832 Gd780 2.324 . S
O832 C855 1.254 . S
O833 Gd781 2.429 . S
O833 C855 1.268 . S
O834 Gd781 2.545 . S
O834 C847 1.250 . S
O835 Gd781 2.412 . S
O835 C848 1.252 . S
C836 O825 1.284 . S
C836 O828 1.250 . S
C837 H806 0.929 . S
C837 C822 1.437 . S
C837 C838 1.317 . S
C838 H809 0.930 . S
C838 C814 1.431 . S
C838 C837 1.317 . S
C839 Gd780 2.828 . S
C839 O824 1.258 . S
C839 O829 1.252 . S
C839 C840 1.497 . S
C840 C839 1.497 . S
C840 C841 1.395 . S
C840 C842 1.380 . S
C841 C840 1.395 . S
C841 C844 1.398 . S
C841 H856 0.930 . S
C842 C840 1.380 . S
C842 C843 1.391 . S
C842 H857 0.930 . S
C843 C842 1.391 . S
C843 C845 1.387 . S
C844 C841 1.398 . S
C844 C845 1.380 . S
C844 H858 0.930 . S
C845 C843 1.387 . S
C845 C844 1.380 . S
C845 H859 0.930 . S
C846 O826 1.254 . S
C846 O827 1.268 . S
C847 O831 1.284 . S
C847 O834 1.250 . S
C848 Gd781 2.828 . S
C848 O830 1.258 . S
C848 O835 1.252 . S
C848 C849 1.497 . S
C849 C848 1.497 . S
C849 C850 1.395 . S
C849 C851 1.380 . S
C850 C849 1.395 . S
C850 C853 1.398 . S
C850 H860 0.930 . S
C851 C849 1.380 . S
C851 C852 1.391 . S
C851 H861 0.930 . S
C852 C851 1.391 . S
C852 C854 1.387 . S
C853 C850 1.398 . S
C853 C854 1.380 . S
C853 H862 0.930 . S
C854 C852 1.387 . S
C854 C853 1.380 . S
C854 H863 0.930 . S
C855 O832 1.254 . S
C855 O833 1.268 . S
H856 C841 0.930 . S
H857 C842 0.930 . S
H858 C844 0.930 . S
H859 C845 0.930 . S
H860 C850 0.930 . S
H861 C851 0.930 . S
H862 C853 0.930 . S
H863 C854 0.930 . S
Gd864 N895 2.661 . S
Gd864 N901 2.601 . S
Gd864 O908 2.545 . S
Gd864 O909 2.606 . S
Gd864 O911 2.429 . S
Gd864 O912 2.545 . S
Gd864 O913 2.412 . S
Gd864 O915 2.362 . S
Gd864 O916 2.324 . S
Gd864 C923 2.828 . S
Gd865 N874 2.661 . S
Gd865 N878 2.601 . S
Gd865 O909 2.362 . S
Gd865 O910 2.324 . S
Gd865 O914 2.545 . S
Gd865 O915 2.606 . S
Gd865 O917 2.429 . S
Gd865 O918 2.545 . S
Gd865 O919 2.412 . S
Gd865 C932 2.828 . S
C866 C869 1.417 . S
C866 C871 1.431 . S
C866 C872 1.412 . S
C867 C870 1.437 . S
C867 C871 1.317 . S
C867 H886 0.929 . S
C868 C869 1.426 . S
C868 C870 1.413 . S
C868 N878 1.359 . S
C869 C866 1.417 . S
C869 C868 1.426 . S
C869 N874 1.350 . S
C870 C867 1.437 . S
C870 C868 1.413 . S
C870 C880 1.391 . S
C871 C866 1.431 . S
C871 C867 1.317 . S
C871 H882 0.930 . S
C872 C866 1.412 . S
C872 C873 1.355 . S
C872 H884 0.930 . S
C873 C872 1.355 . S
C873 C875 1.402 . S
C873 H885 0.930 . S
N874 Gd865 2.661 . S
N874 C869 1.350 . S
N874 C875 1.307 . S
C875 C873 1.402 . S
C875 N874 1.307 . S
C875 H876 0.930 . S
H876 C875 0.930 . S
C877 N878 1.334 . S
C877 C879 1.394 . S
C877 H881 0.930 . S
N878 Gd865 2.601 . S
N878 C868 1.359 . S
N878 C877 1.334 . S
C879 C877 1.394 . S
C879 C880 1.359 . S
C879 H891 0.930 . S
C880 C870 1.391 . S
C880 C879 1.359 . S
C880 H892 0.929 . S
H881 C877 0.930 . S
H882 C871 0.930 . S
H883 C900 0.930 . S
H884 C872 0.930 . S
H885 C873 0.930 . S
H886 C867 0.929 . S
H887 C905 0.930 . S
H888 C896 0.930 . S
H889 C897 0.930 . S
H890 C921 0.929 . S
H891 C879 0.930 . S
H892 C880 0.929 . S
H893 C922 0.930 . S
H894 C903 0.930 . S
N895 Gd864 2.661 . S
N895 C899 1.350 . S
N895 C900 1.307 . S
C896 H888 0.930 . S
C896 C897 1.355 . S
C896 C898 1.412 . S
C897 H889 0.930 . S
C897 C896 1.355 . S
C897 C900 1.402 . S
C898 C896 1.412 . S
C898 C899 1.417 . S
C898 C922 1.431 . S
C899 N895 1.350 . S
C899 C898 1.417 . S
C899 C902 1.426 . S
C900 H883 0.930 . S
C900 N895 1.307 . S
C900 C897 1.402 . S
N901 Gd864 2.601 . S
N901 C902 1.359 . S
N901 C905 1.334 . S
C902 C899 1.426 . S
C902 N901 1.359 . S
C902 C906 1.413 . S
C903 H894 0.930 . S
C903 C904 1.359 . S
C903 C905 1.394 . S
C904 C903 1.359 . S
C904 C906 1.391 . S
C904 H907 0.929 . S
C905 H887 0.930 . S
C905 N901 1.334 . S
C905 C903 1.394 . S
C906 C902 1.413 . S
C906 C904 1.391 . S
C906 C921 1.437 . S
H907 C904 0.929 . S
O908 Gd864 2.545 . S
O908 C923 1.258 . S
O909 Gd864 2.606 . S
O909 Gd865 2.362 . S
O909 C920 1.284 . S
O910 Gd865 2.324 . S
O910 C930 1.254 . S
O911 Gd864 2.429 . S
O911 C930 1.268 . S
O912 Gd864 2.545 . S
O912 C920 1.250 . S
O913 Gd864 2.412 . S
O913 C923 1.252 . S
O914 Gd865 2.545 . S
O914 C932 1.258 . S
O915 Gd864 2.362 . S
O915 Gd865 2.606 . S
O915 C931 1.284 . S
O916 Gd864 2.324 . S
O916 C939 1.254 . S
O917 Gd865 2.429 . S
O917 C939 1.268 . S
O918 Gd865 2.545 . S
O918 C931 1.250 . S
O919 Gd865 2.412 . S
O919 C932 1.252 . S
C920 O909 1.284 . S
C920 O912 1.250 . S
C921 H890 0.929 . S
C921 C906 1.437 . S
C921 C922 1.317 . S
C922 H893 0.930 . S
C922 C898 1.431 . S
C922 C921 1.317 . S
C923 Gd864 2.828 . S
C923 O908 1.258 . S
C923 O913 1.252 . S
C923 C924 1.497 . S
C924 C923 1.497 . S
C924 C925 1.395 . S
C924 C926 1.380 . S
C925 C924 1.395 . S
C925 C928 1.398 . S
C925 H940 0.930 . S
C926 C924 1.380 . S
C926 C927 1.391 . S
C926 H941 0.930 . S
C927 C926 1.391 . S
C927 C929 1.387 . S
C928 C925 1.398 . S
C928 C929 1.380 . S
C928 H942 0.930 . S
C929 C927 1.387 . S
C929 C928 1.380 . S
C929 H943 0.930 . S
C930 O910 1.254 . S
C930 O911 1.268 . S
C931 O915 1.284 . S
C931 O918 1.250 . S
C932 Gd865 2.828 . S
C932 O914 1.258 . S
C932 O919 1.252 . S
C932 C933 1.497 . S
C933 C932 1.497 . S
C933 C934 1.395 . S
C933 C935 1.380 . S
C934 C933 1.395 . S
C934 C937 1.398 . S
C934 H944 0.930 . S
C935 C933 1.380 . S
C935 C936 1.391 . S
C935 H945 0.930 . S
C936 C935 1.391 . S
C936 C938 1.387 . S
C937 C934 1.398 . S
C937 C938 1.380 . S
C937 H946 0.930 . S
C938 C936 1.387 . S
C938 C937 1.380 . S
C938 H947 0.930 . S
C939 O916 1.254 . S
C939 O917 1.268 . S
H940 C925 0.930 . S
H941 C926 0.930 . S
H942 C928 0.930 . S
H943 C929 0.930 . S
H944 C934 0.930 . S
H945 C935 0.930 . S
H946 C937 0.930 . S
H947 C938 0.930 . S
H948 C966 0.951 . S
H949 C968 0.951 . S
H950 C970 0.950 . S
H951 C971 0.950 . S
H952 C973 0.950 . S
H953 C976 0.950 . S
H954 C977 0.950 . S
H955 C979 0.950 . S
H956 C980 0.950 . S
H957 C981 0.951 . S
H958 C983 0.951 . S
H959 C985 0.950 . S
H960 C986 0.950 . S
H961 C988 0.950 . S
H962 C991 0.950 . S
H963 C992 0.950 . S
H964 C994 0.950 . S
H965 C995 0.950 . S
C966 H948 0.951 . S
C966 C967 1.366 . S
C966 C968 1.388 . S
C967 C966 1.366 . S
C967 C971 1.385 . S
C968 H949 0.951 . S
C968 C966 1.388 . S
C968 C969 1.366 . S
C969 C968 1.366 . S
C969 C970 1.414 . S
C969 C972 1.499 . S
C970 H950 0.950 . S
C970 C969 1.414 . S
C970 C971 1.374 . S
C971 H951 0.950 . S
C971 C967 1.385 . S
C971 C970 1.374 . S
C972 C969 1.499 . S
C972 C973 1.373 . S
C972 C974 1.389 . S
C973 H952 0.950 . S
C973 C972 1.373 . S
C973 C989 1.377 . S
C974 C972 1.389 . S
C974 C975 1.524 . S
C974 C988 1.377 . S
C975 C974 1.524 . S
C975 C976 1.397 . S
C975 C980 1.363 . S
C976 H953 0.950 . S
C976 C975 1.397 . S
C976 C977 1.334 . S
C977 H954 0.950 . S
C977 C976 1.334 . S
C977 C978 1.287 . S
C978 C977 1.287 . S
C978 C979 1.524 . S
C978 H997 0.913 . S
C979 H955 0.950 . S
C979 C978 1.524 . S
C979 C980 1.415 . S
C980 H956 0.950 . S
C980 C975 1.363 . S
C980 C979 1.415 . S
C981 H957 0.951 . S
C981 C982 1.366 . S
C981 C983 1.388 . S
C982 C981 1.366 . S
C982 C986 1.385 . S
C983 H958 0.951 . S
C983 C981 1.388 . S
C983 C984 1.366 . S
C984 C983 1.366 . S
C984 C985 1.414 . S
C984 C987 1.499 . S
C985 H959 0.950 . S
C985 C984 1.414 . S
C985 C986 1.374 . S
C986 H960 0.950 . S
C986 C982 1.385 . S
C986 C985 1.374 . S
C987 C984 1.499 . S
C987 C988 1.373 . S
C987 C989 1.389 . S
C988 H961 0.950 . S
C988 C974 1.377 . S
C988 C987 1.373 . S
C989 C973 1.377 . S
C989 C987 1.389 . S
C989 C990 1.524 . S
C990 C989 1.524 . S
C990 C991 1.397 . S
C990 C995 1.363 . S
C991 H962 0.950 . S
C991 C990 1.397 . S
C991 C992 1.334 . S
C992 H963 0.950 . S
C992 C991 1.334 . S
C992 C993 1.287 . S
C993 C992 1.287 . S
C993 C994 1.524 . S
C993 H996 0.999 . S
C994 H964 0.950 . S
C994 C993 1.524 . S
C994 C995 1.415 . S
C995 H965 0.950 . S
C995 C990 1.363 . S
C995 C994 1.415 . S
H996 C993 0.999 . S
H997 C978 0.913 . S
H998 C1016 0.951 . S
H999 C1018 0.951 . S
H1000 C1020 0.950 . S
H1001 C1021 0.950 . S
H1002 C1023 0.950 . S
H1003 C1026 0.950 . S
H1004 C1027 0.950 . S
H1005 C1029 0.950 . S
H1006 C1030 0.950 . S
H1007 C1031 0.951 . S
H1008 C1033 0.951 . S
H1009 C1035 0.950 . S
H1010 C1036 0.950 . S
H1011 C1038 0.950 . S
H1012 C1041 0.950 . S
H1013 C1042 0.950 . S
H1014 C1044 0.950 . S
H1015 C1045 0.950 . S
C1016 H998 0.951 . S
C1016 C1017 1.366 . S
C1016 C1018 1.388 . S
C1017 C1016 1.366 . S
C1017 C1021 1.385 . S
C1018 H999 0.951 . S
C1018 C1016 1.388 . S
C1018 C1019 1.366 . S
C1019 C1018 1.366 . S
C1019 C1020 1.414 . S
C1019 C1022 1.499 . S
C1020 H1000 0.950 . S
C1020 C1019 1.414 . S
C1020 C1021 1.374 . S
C1021 H1001 0.950 . S
C1021 C1017 1.385 . S
C1021 C1020 1.374 . S
C1022 C1019 1.499 . S
C1022 C1023 1.373 . S
C1022 C1024 1.389 . S
C1023 H1002 0.950 . S
C1023 C1022 1.373 . S
C1023 C1039 1.377 . S
C1024 C1022 1.389 . S
C1024 C1025 1.524 . S
C1024 C1038 1.377 . S
C1025 C1024 1.524 . S
C1025 C1026 1.397 . S
C1025 C1030 1.363 . S
C1026 H1003 0.950 . S
C1026 C1025 1.397 . S
C1026 C1027 1.334 . S
C1027 H1004 0.950 . S
C1027 C1026 1.334 . S
C1027 C1028 1.287 . S
C1028 C1027 1.287 . S
C1028 C1029 1.524 . S
C1028 H1047 0.913 . S
C1029 H1005 0.950 . S
C1029 C1028 1.524 . S
C1029 C1030 1.415 . S
C1030 H1006 0.950 . S
C1030 C1025 1.363 . S
C1030 C1029 1.415 . S
C1031 H1007 0.951 . S
C1031 C1032 1.366 . S
C1031 C1033 1.388 . S
C1032 C1031 1.366 . S
C1032 C1036 1.385 . S
C1033 H1008 0.951 . S
C1033 C1031 1.388 . S
C1033 C1034 1.366 . S
C1034 C1033 1.366 . S
C1034 C1035 1.414 . S
C1034 C1037 1.499 . S
C1035 H1009 0.950 . S
C1035 C1034 1.414 . S
C1035 C1036 1.374 . S
C1036 H1010 0.950 . S
C1036 C1032 1.385 . S
C1036 C1035 1.374 . S
C1037 C1034 1.499 . S
C1037 C1038 1.373 . S
C1037 C1039 1.389 . S
C1038 H1011 0.950 . S
C1038 C1024 1.377 . S
C1038 C1037 1.373 . S
C1039 C1023 1.377 . S
C1039 C1037 1.389 . S
C1039 C1040 1.524 . S
C1040 C1039 1.524 . S
C1040 C1041 1.397 . S
C1040 C1045 1.363 . S
C1041 H1012 0.950 . S
C1041 C1040 1.397 . S
C1041 C1042 1.334 . S
C1042 H1013 0.950 . S
C1042 C1041 1.334 . S
C1042 C1043 1.287 . S
C1043 C1042 1.287 . S
C1043 C1044 1.524 . S
C1043 H1046 0.999 . S
C1044 H1014 0.950 . S
C1044 C1043 1.524 . S
C1044 C1045 1.415 . S
C1045 H1015 0.950 . S
C1045 C1040 1.363 . S
C1045 C1044 1.415 . S
H1046 C1043 0.999 . S
H1047 C1028 0.913 . S
H1048 C1066 0.951 . S
H1049 C1068 0.951 . S
H1050 C1070 0.950 . S
H1051 C1071 0.950 . S
H1052 C1073 0.950 . S
H1053 C1076 0.950 . S
H1054 C1077 0.950 . S
H1055 C1079 0.950 . S
H1056 C1080 0.950 . S
H1057 C1081 0.951 . S
H1058 C1083 0.951 . S
H1059 C1085 0.950 . S
H1060 C1086 0.950 . S
H1061 C1088 0.950 . S
H1062 C1091 0.950 . S
H1063 C1092 0.950 . S
H1064 C1094 0.950 . S
H1065 C1095 0.950 . S
C1066 H1048 0.951 . S
C1066 C1067 1.366 . S
C1066 C1068 1.388 . S
C1067 C1066 1.366 . S
C1067 C1071 1.385 . S
C1068 H1049 0.951 . S
C1068 C1066 1.388 . S
C1068 C1069 1.366 . S
C1069 C1068 1.366 . S
C1069 C1070 1.414 . S
C1069 C1072 1.499 . S
C1070 H1050 0.950 . S
C1070 C1069 1.414 . S
C1070 C1071 1.374 . S
C1071 H1051 0.950 . S
C1071 C1067 1.385 . S
C1071 C1070 1.374 . S
C1072 C1069 1.499 . S
C1072 C1073 1.373 . S
C1072 C1074 1.389 . S
C1073 H1052 0.950 . S
C1073 C1072 1.373 . S
C1073 C1089 1.377 . S
C1074 C1072 1.389 . S
C1074 C1075 1.524 . S
C1074 C1088 1.377 . S
C1075 C1074 1.524 . S
C1075 C1076 1.397 . S
C1075 C1080 1.363 . S
C1076 H1053 0.950 . S
C1076 C1075 1.397 . S
C1076 C1077 1.334 . S
C1077 H1054 0.950 . S
C1077 C1076 1.334 . S
C1077 C1078 1.287 . S
C1078 C1077 1.287 . S
C1078 C1079 1.524 . S
C1078 H1097 0.913 1_655 S
C1079 H1055 0.950 . S
C1079 C1078 1.524 . S
C1079 C1080 1.415 . S
C1080 H1056 0.950 . S
C1080 C1075 1.363 . S
C1080 C1079 1.415 . S
C1081 H1057 0.951 . S
C1081 C1082 1.366 . S
C1081 C1083 1.388 . S
C1082 C1081 1.366 . S
C1082 C1086 1.385 . S
C1083 H1058 0.951 . S
C1083 C1081 1.388 . S
C1083 C1084 1.366 . S
C1084 C1083 1.366 . S
C1084 C1085 1.414 . S
C1084 C1087 1.499 . S
C1085 H1059 0.950 . S
C1085 C1084 1.414 . S
C1085 C1086 1.374 . S
C1086 H1060 0.950 . S
C1086 C1082 1.385 . S
C1086 C1085 1.374 . S
C1087 C1084 1.499 . S
C1087 C1088 1.373 . S
C1087 C1089 1.389 . S
C1088 H1061 0.950 . S
C1088 C1074 1.377 . S
C1088 C1087 1.373 . S
C1089 C1073 1.377 . S
C1089 C1087 1.389 . S
C1089 C1090 1.524 . S
C1090 C1089 1.524 . S
C1090 C1091 1.397 . S
C1090 C1095 1.363 . S
C1091 H1062 0.950 . S
C1091 C1090 1.397 . S
C1091 C1092 1.334 . S
C1092 H1063 0.950 . S
C1092 C1091 1.334 . S
C1092 C1093 1.287 . S
C1093 C1092 1.287 . S
C1093 C1094 1.524 . S
C1093 H1096 0.999 . S
C1094 H1064 0.950 . S
C1094 C1093 1.524 . S
C1094 C1095 1.415 . S
C1095 H1065 0.950 . S
C1095 C1090 1.363 . S
C1095 C1094 1.415 . S
H1096 C1093 0.999 . S
H1097 C1078 0.913 1_455 S
H1098 C1116 0.951 . S
H1099 C1118 0.951 . S
H1100 C1120 0.950 . S
H1101 C1121 0.950 . S
H1102 C1123 0.950 . S
H1103 C1126 0.950 . S
H1104 C1127 0.950 . S
H1105 C1129 0.950 . S
H1106 C1130 0.950 . S
H1107 C1131 0.951 . S
H1108 C1133 0.951 . S
H1109 C1135 0.950 . S
H1110 C1136 0.950 . S
H1111 C1138 0.950 . S
H1112 C1141 0.950 . S
H1113 C1142 0.950 . S
H1114 C1144 0.950 . S
H1115 C1145 0.950 . S
C1116 H1098 0.951 . S
C1116 C1117 1.366 . S
C1116 C1118 1.388 . S
C1117 C1116 1.366 . S
C1117 C1121 1.385 . S
C1118 H1099 0.951 . S
C1118 C1116 1.388 . S
C1118 C1119 1.366 . S
C1119 C1118 1.366 . S
C1119 C1120 1.414 . S
C1119 C1122 1.499 . S
C1120 H1100 0.950 . S
C1120 C1119 1.414 . S
C1120 C1121 1.374 . S
C1121 H1101 0.950 . S
C1121 C1117 1.385 . S
C1121 C1120 1.374 . S
C1122 C1119 1.499 . S
C1122 C1123 1.373 . S
C1122 C1124 1.389 . S
C1123 H1102 0.950 . S
C1123 C1122 1.373 . S
C1123 C1139 1.377 . S
C1124 C1122 1.389 . S
C1124 C1125 1.524 . S
C1124 C1138 1.377 . S
C1125 C1124 1.524 . S
C1125 C1126 1.397 . S
C1125 C1130 1.363 . S
C1126 H1103 0.950 . S
C1126 C1125 1.397 . S
C1126 C1127 1.334 . S
C1127 H1104 0.950 . S
C1127 C1126 1.334 . S
C1127 C1128 1.287 . S
C1128 C1127 1.287 . S
C1128 C1129 1.524 . S
C1128 H1147 0.889 1_565 S
C1129 H1105 0.950 . S
C1129 C1128 1.524 . S
C1129 C1130 1.415 . S
C1130 H1106 0.950 . S
C1130 C1125 1.363 . S
C1130 C1129 1.415 . S
C1131 H1107 0.951 . S
C1131 C1132 1.366 . S
C1131 C1133 1.388 . S
C1132 C1131 1.366 . S
C1132 C1136 1.385 . S
C1133 H1108 0.951 . S
C1133 C1131 1.388 . S
C1133 C1134 1.366 . S
C1134 C1133 1.366 . S
C1134 C1135 1.414 . S
C1134 C1137 1.499 . S
C1135 H1109 0.950 . S
C1135 C1134 1.414 . S
C1135 C1136 1.374 . S
C1136 H1110 0.950 . S
C1136 C1132 1.385 . S
C1136 C1135 1.374 . S
C1137 C1134 1.499 . S
C1137 C1138 1.373 . S
C1137 C1139 1.389 . S
C1138 H1111 0.950 . S
C1138 C1124 1.377 . S
C1138 C1137 1.373 . S
C1139 C1123 1.377 . S
C1139 C1137 1.389 . S
C1139 C1140 1.524 . S
C1140 C1139 1.524 . S
C1140 C1141 1.397 . S
C1140 C1145 1.363 . S
C1141 H1112 0.950 . S
C1141 C1140 1.397 . S
C1141 C1142 1.334 . S
C1142 H1113 0.950 . S
C1142 C1141 1.334 . S
C1142 C1143 1.287 . S
C1143 C1142 1.287 . S
C1143 C1144 1.524 . S
C1143 H1146 0.999 . S
C1144 H1114 0.950 . S
C1144 C1143 1.524 . S
C1144 C1145 1.415 . S
C1145 H1115 0.950 . S
C1145 C1140 1.363 . S
C1145 C1144 1.415 . S
H1146 C1143 0.999 . S
H1147 C1128 0.889 1_545 S
H1148 C1166 0.951 . S
H1149 C1168 0.951 . S
H1150 C1170 0.950 . S
H1151 C1171 0.950 . S
H1152 C1173 0.950 . S
H1153 C1176 0.950 . S
H1154 C1177 0.950 . S
H1155 C1179 0.950 . S
H1156 C1180 0.950 . S
H1157 C1181 0.951 . S
H1158 C1183 0.951 . S
H1159 C1185 0.950 . S
H1160 C1186 0.950 . S
H1161 C1188 0.950 . S
H1162 C1191 0.950 . S
H1163 C1192 0.950 . S
H1164 C1194 0.950 . S
H1165 C1195 0.950 . S
C1166 H1148 0.951 . S
C1166 C1167 1.366 . S
C1166 C1168 1.388 . S
C1167 C1166 1.366 . S
C1167 C1171 1.385 . S
C1168 H1149 0.951 . S
C1168 C1166 1.388 . S
C1168 C1169 1.366 . S
C1169 C1168 1.366 . S
C1169 C1170 1.414 . S
C1169 C1172 1.499 . S
C1170 H1150 0.950 . S
C1170 C1169 1.414 . S
C1170 C1171 1.374 . S
C1171 H1151 0.950 . S
C1171 C1167 1.385 . S
C1171 C1170 1.374 . S
C1172 C1169 1.499 . S
C1172 C1173 1.373 . S
C1172 C1174 1.389 . S
C1173 H1152 0.950 . S
C1173 C1172 1.373 . S
C1173 C1189 1.377 . S
C1174 C1172 1.389 . S
C1174 C1175 1.524 . S
C1174 C1188 1.377 . S
C1175 C1174 1.524 . S
C1175 C1176 1.397 . S
C1175 C1180 1.363 . S
C1176 H1153 0.950 . S
C1176 C1175 1.397 . S
C1176 C1177 1.334 . S
C1177 H1154 0.950 . S
C1177 C1176 1.334 . S
C1177 C1178 1.287 . S
C1178 C1177 1.287 . S
C1178 C1179 1.524 . S
C1178 H1197 0.913 . S
C1179 H1155 0.950 . S
C1179 C1178 1.524 . S
C1179 C1180 1.415 . S
C1180 H1156 0.950 . S
C1180 C1175 1.363 . S
C1180 C1179 1.415 . S
C1181 H1157 0.951 . S
C1181 C1182 1.366 . S
C1181 C1183 1.388 . S
C1182 C1181 1.366 . S
C1182 C1186 1.385 . S
C1183 H1158 0.951 . S
C1183 C1181 1.388 . S
C1183 C1184 1.366 . S
C1184 C1183 1.366 . S
C1184 C1185 1.414 . S
C1184 C1187 1.499 . S
C1185 H1159 0.950 . S
C1185 C1184 1.414 . S
C1185 C1186 1.374 . S
C1186 H1160 0.950 . S
C1186 C1182 1.385 . S
C1186 C1185 1.374 . S
C1187 C1184 1.499 . S
C1187 C1188 1.373 . S
C1187 C1189 1.389 . S
C1188 H1161 0.950 . S
C1188 C1174 1.377 . S
C1188 C1187 1.373 . S
C1189 C1173 1.377 . S
C1189 C1187 1.389 . S
C1189 C1190 1.524 . S
C1190 C1189 1.524 . S
C1190 C1191 1.397 . S
C1190 C1195 1.363 . S
C1191 H1162 0.950 . S
C1191 C1190 1.397 . S
C1191 C1192 1.334 . S
C1192 H1163 0.950 . S
C1192 C1191 1.334 . S
C1192 C1193 1.287 . S
C1193 C1192 1.287 . S
C1193 C1194 1.524 . S
C1193 H1196 0.999 . S
C1194 H1164 0.950 . S
C1194 C1193 1.524 . S
C1194 C1195 1.415 . S
C1195 H1165 0.950 . S
C1195 C1190 1.363 . S
C1195 C1194 1.415 . S
H1196 C1193 0.999 . S
H1197 C1178 0.913 . S
H1198 C1216 0.951 . S
H1199 C1218 0.951 . S
H1200 C1220 0.950 . S
H1201 C1221 0.950 . S
H1202 C1223 0.950 . S
H1203 C1226 0.950 . S
H1204 C1227 0.950 . S
H1205 C1229 0.950 . S
H1206 C1230 0.950 . S
H1207 C1231 0.951 . S
H1208 C1233 0.951 . S
H1209 C1235 0.950 . S
H1210 C1236 0.950 . S
H1211 C1238 0.950 . S
H1212 C1241 0.950 . S
H1213 C1242 0.950 . S
H1214 C1244 0.950 . S
H1215 C1245 0.950 . S
C1216 H1198 0.951 . S
C1216 C1217 1.366 . S
C1216 C1218 1.388 . S
C1217 C1216 1.366 . S
C1217 C1221 1.385 . S
C1218 H1199 0.951 . S
C1218 C1216 1.388 . S
C1218 C1219 1.366 . S
C1219 C1218 1.366 . S
C1219 C1220 1.414 . S
C1219 C1222 1.499 . S
C1220 H1200 0.950 . S
C1220 C1219 1.414 . S
C1220 C1221 1.374 . S
C1221 H1201 0.950 . S
C1221 C1217 1.385 . S
C1221 C1220 1.374 . S
C1222 C1219 1.499 . S
C1222 C1223 1.373 . S
C1222 C1224 1.389 . S
C1223 H1202 0.950 . S
C1223 C1222 1.373 . S
C1223 C1239 1.377 . S
C1224 C1222 1.389 . S
C1224 C1225 1.524 . S
C1224 C1238 1.377 . S
C1225 C1224 1.524 . S
C1225 C1226 1.397 . S
C1225 C1230 1.363 . S
C1226 H1203 0.950 . S
C1226 C1225 1.397 . S
C1226 C1227 1.334 . S
C1227 H1204 0.950 . S
C1227 C1226 1.334 . S
C1227 C1228 1.287 . S
C1228 C1227 1.287 . S
C1228 C1229 1.524 . S
C1228 H1247 0.913 . S
C1229 H1205 0.950 . S
C1229 C1228 1.524 . S
C1229 C1230 1.415 . S
C1230 H1206 0.950 . S
C1230 C1225 1.363 . S
C1230 C1229 1.415 . S
C1231 H1207 0.951 . S
C1231 C1232 1.366 . S
C1231 C1233 1.388 . S
C1232 C1231 1.366 . S
C1232 C1236 1.385 . S
C1233 H1208 0.951 . S
C1233 C1231 1.388 . S
C1233 C1234 1.366 . S
C1234 C1233 1.366 . S
C1234 C1235 1.414 . S
C1234 C1237 1.499 . S
C1235 H1209 0.950 . S
C1235 C1234 1.414 . S
C1235 C1236 1.374 . S
C1236 H1210 0.950 . S
C1236 C1232 1.385 . S
C1236 C1235 1.374 . S
C1237 C1234 1.499 . S
C1237 C1238 1.373 . S
C1237 C1239 1.389 . S
C1238 H1211 0.950 . S
C1238 C1224 1.377 . S
C1238 C1237 1.373 . S
C1239 C1223 1.377 . S
C1239 C1237 1.389 . S
C1239 C1240 1.524 . S
C1240 C1239 1.524 . S
C1240 C1241 1.397 . S
C1240 C1245 1.363 . S
C1241 H1212 0.950 . S
C1241 C1240 1.397 . S
C1241 C1242 1.334 . S
C1242 H1213 0.950 . S
C1242 C1241 1.334 . S
C1242 C1243 1.287 . S
C1243 C1242 1.287 . S
C1243 C1244 1.524 . S
C1243 H1246 0.999 . S
C1244 H1214 0.950 . S
C1244 C1243 1.524 . S
C1244 C1245 1.415 . S
C1245 H1215 0.950 . S
C1245 C1240 1.363 . S
C1245 C1244 1.415 . S
H1246 C1243 0.999 . S
H1247 C1228 0.913 . S
H1248 C1266 0.951 . S
H1249 C1268 0.951 . S
H1250 C1270 0.950 . S
H1251 C1271 0.950 . S
H1252 C1273 0.950 . S
H1253 C1276 0.950 . S
H1254 C1277 0.950 . S
H1255 C1279 0.950 . S
H1256 C1280 0.950 . S
H1257 C1281 0.951 . S
H1258 C1283 0.951 . S
H1259 C1285 0.950 . S
H1260 C1286 0.950 . S
H1261 C1288 0.950 . S
H1262 C1291 0.950 . S
H1263 C1292 0.950 . S
H1264 C1294 0.950 . S
H1265 C1295 0.950 . S
C1266 H1248 0.951 . S
C1266 C1267 1.366 . S
C1266 C1268 1.388 . S
C1267 C1266 1.366 . S
C1267 C1271 1.385 . S
C1268 H1249 0.951 . S
C1268 C1266 1.388 . S
C1268 C1269 1.366 . S
C1269 C1268 1.366 . S
C1269 C1270 1.414 . S
C1269 C1272 1.499 . S
C1270 H1250 0.950 . S
C1270 C1269 1.414 . S
C1270 C1271 1.374 . S
C1271 H1251 0.950 . S
C1271 C1267 1.385 . S
C1271 C1270 1.374 . S
C1272 C1269 1.499 . S
C1272 C1273 1.373 . S
C1272 C1274 1.389 . S
C1273 H1252 0.950 . S
C1273 C1272 1.373 . S
C1273 C1289 1.377 . S
C1274 C1272 1.389 . S
C1274 C1275 1.524 . S
C1274 C1288 1.377 . S
C1275 C1274 1.524 . S
C1275 C1276 1.397 . S
C1275 C1280 1.363 . S
C1276 H1253 0.950 . S
C1276 C1275 1.397 . S
C1276 C1277 1.334 . S
C1277 H1254 0.950 . S
C1277 C1276 1.334 . S
C1277 C1278 1.287 . S
C1278 C1277 1.287 . S
C1278 C1279 1.524 . S
C1278 H1297 0.913 . S
C1279 H1255 0.950 . S
C1279 C1278 1.524 . S
C1279 C1280 1.415 . S
C1280 H1256 0.950 . S
C1280 C1275 1.363 . S
C1280 C1279 1.415 . S
C1281 H1257 0.951 . S
C1281 C1282 1.366 . S
C1281 C1283 1.388 . S
C1282 C1281 1.366 . S
C1282 C1286 1.385 . S
C1283 H1258 0.951 . S
C1283 C1281 1.388 . S
C1283 C1284 1.366 . S
C1284 C1283 1.366 . S
C1284 C1285 1.414 . S
C1284 C1287 1.499 . S
C1285 H1259 0.950 . S
C1285 C1284 1.414 . S
C1285 C1286 1.374 . S
C1286 H1260 0.950 . S
C1286 C1282 1.385 . S
C1286 C1285 1.374 . S
C1287 C1284 1.499 . S
C1287 C1288 1.373 . S
C1287 C1289 1.389 . S
C1288 H1261 0.950 . S
C1288 C1274 1.377 . S
C1288 C1287 1.373 . S
C1289 C1273 1.377 . S
C1289 C1287 1.389 . S
C1289 C1290 1.524 . S
C1290 C1289 1.524 . S
C1290 C1291 1.397 . S
C1290 C1295 1.363 . S
C1291 H1262 0.950 . S
C1291 C1290 1.397 . S
C1291 C1292 1.334 . S
C1292 H1263 0.950 . S
C1292 C1291 1.334 . S
C1292 C1293 1.287 . S
C1293 C1292 1.287 . S
C1293 C1294 1.524 . S
C1293 H1296 0.999 . S
C1294 H1264 0.950 . S
C1294 C1293 1.524 . S
C1294 C1295 1.415 . S
C1295 H1265 0.950 . S
C1295 C1290 1.363 . S
C1295 C1294 1.415 . S
H1296 C1293 0.999 . S
H1297 C1278 0.913 . S
H1298 C1316 0.977 . S
H1299 C1318 0.951 . S
H1300 C1320 0.950 . S
H1301 C1321 0.950 . S
H1302 C1323 0.950 . S
H1303 C1326 0.950 . S
H1304 C1327 0.950 . S
H1305 C1329 0.950 . S
H1306 C1330 0.950 . S
H1307 C1331 0.951 . S
H1308 C1333 0.951 . S
H1309 C1335 0.950 . S
H1310 C1336 0.950 . S
H1311 C1338 0.950 . S
H1312 C1341 0.950 . S
H1313 C1342 0.950 . S
H1314 C1344 0.950 . S
H1315 C1345 0.950 . S
C1316 H1298 0.977 . S
C1316 C1317 1.366 . S
C1316 C1318 1.388 . S
C1317 C1316 1.366 . S
C1317 C1321 1.385 . S
C1318 H1299 0.951 . S
C1318 C1316 1.388 . S
C1318 C1319 1.366 . S
C1319 C1318 1.366 . S
C1319 C1320 1.414 . S
C1319 C1322 1.499 . S
C1320 H1300 0.950 . S
C1320 C1319 1.414 . S
C1320 C1321 1.374 . S
C1321 H1301 0.950 . S
C1321 C1317 1.385 . S
C1321 C1320 1.374 . S
C1322 C1319 1.499 . S
C1322 C1323 1.373 . S
C1322 C1324 1.389 . S
C1323 H1302 0.950 . S
C1323 C1322 1.373 . S
C1323 C1339 1.377 . S
C1324 C1322 1.389 . S
C1324 C1325 1.524 . S
C1324 C1338 1.377 . S
C1325 C1324 1.524 . S
C1325 C1326 1.397 . S
C1325 C1330 1.363 . S
C1326 H1303 0.950 . S
C1326 C1325 1.397 . S
C1326 C1327 1.334 1_565 S
C1327 H1304 0.950 . S
C1327 C1326 1.334 1_545 S
C1327 C1328 1.287 . S
C1328 C1327 1.287 . S
C1328 C1329 1.524 . S
C1328 H1347 0.913 . S
C1329 H1305 0.950 . S
C1329 C1328 1.524 . S
C1329 C1330 1.415 1_545 S
C1330 H1306 0.950 . S
C1330 C1325 1.363 . S
C1330 C1329 1.415 1_565 S
C1331 H1307 0.951 . S
C1331 C1332 1.366 . S
C1331 C1333 1.388 . S
C1332 C1331 1.366 . S
C1332 C1336 1.385 . S
C1333 H1308 0.951 . S
C1333 C1331 1.388 . S
C1333 C1334 1.366 . S
C1334 C1333 1.366 . S
C1334 C1335 1.414 . S
C1334 C1337 1.499 . S
C1335 H1309 0.950 . S
C1335 C1334 1.414 . S
C1335 C1336 1.374 . S
C1336 H1310 0.950 . S
C1336 C1332 1.385 . S
C1336 C1335 1.374 . S
C1337 C1334 1.499 . S
C1337 C1338 1.373 . S
C1337 C1339 1.389 . S
C1338 H1311 0.950 . S
C1338 C1324 1.377 . S
C1338 C1337 1.373 . S
C1339 C1323 1.377 . S
C1339 C1337 1.389 . S
C1339 C1340 1.524 . S
C1340 C1339 1.524 . S
C1340 C1341 1.397 . S
C1340 C1345 1.363 . S
C1341 H1312 0.950 . S
C1341 C1340 1.397 . S
C1341 C1342 1.334 . S
C1342 H1313 0.950 . S
C1342 C1341 1.334 . S
C1342 C1343 1.287 . S
C1343 C1342 1.287 . S
C1343 C1344 1.524 . S
C1343 H1346 0.999 . S
C1344 H1314 0.950 . S
C1344 C1343 1.524 . S
C1344 C1345 1.415 . S
C1345 H1315 0.950 . S
C1345 C1340 1.363 . S
C1345 C1344 1.415 . S
H1346 C1343 0.999 . S
H1347 C1328 0.913 . S
H1348 C1366 0.951 . S
H1349 C1368 0.951 . S
H1350 C1370 0.950 . S
H1351 C1371 0.950 . S
H1352 C1373 0.950 . S
H1353 C1376 0.950 . S
H1354 C1377 0.950 . S
H1355 C1379 0.950 . S
H1356 C1380 0.950 . S
H1357 C1381 0.951 . S
H1358 C1383 0.951 . S
H1359 C1385 0.950 . S
H1360 C1386 0.950 . S
H1361 C1388 0.950 . S
H1362 C1391 0.950 . S
H1363 C1392 0.950 . S
H1364 C1394 0.950 . S
H1365 C1395 0.950 . S
C1366 H1348 0.951 . S
C1366 C1367 1.366 . S
C1366 C1368 1.388 . S
C1367 C1366 1.366 . S
C1367 C1371 1.385 . S
C1368 H1349 0.951 . S
C1368 C1366 1.388 . S
C1368 C1369 1.366 . S
C1369 C1368 1.366 . S
C1369 C1370 1.414 . S
C1369 C1372 1.499 . S
C1370 H1350 0.950 . S
C1370 C1369 1.414 . S
C1370 C1371 1.374 . S
C1371 H1351 0.950 . S
C1371 C1367 1.385 . S
C1371 C1370 1.374 . S
C1372 C1369 1.499 . S
C1372 C1373 1.373 . S
C1372 C1374 1.389 . S
C1373 H1352 0.950 . S
C1373 C1372 1.373 . S
C1373 C1389 1.377 . S
C1374 C1372 1.389 . S
C1374 C1375 1.524 . S
C1374 C1388 1.377 . S
C1375 C1374 1.524 . S
C1375 C1376 1.397 . S
C1375 C1380 1.363 . S
C1376 H1353 0.950 . S
C1376 C1375 1.397 . S
C1376 C1377 1.334 . S
C1377 H1354 0.950 . S
C1377 C1376 1.334 . S
C1377 C1378 1.287 . S
C1378 C1377 1.287 . S
C1378 C1379 1.524 . S
C1378 H1397 0.913 . S
C1379 H1355 0.950 . S
C1379 C1378 1.524 . S
C1379 C1380 1.415 . S
C1380 H1356 0.950 . S
C1380 C1375 1.363 . S
C1380 C1379 1.415 . S
C1381 H1357 0.951 . S
C1381 C1382 1.366 . S
C1381 C1383 1.388 . S
C1382 C1381 1.366 . S
C1382 C1386 1.385 . S
C1383 H1358 0.951 . S
C1383 C1381 1.388 . S
C1383 C1384 1.366 . S
C1384 C1383 1.366 . S
C1384 C1385 1.414 . S
C1384 C1387 1.499 . S
C1385 H1359 0.950 . S
C1385 C1384 1.414 . S
C1385 C1386 1.374 . S
C1386 H1360 0.950 . S
C1386 C1382 1.385 . S
C1386 C1385 1.374 . S
C1387 C1384 1.499 . S
C1387 C1388 1.373 . S
C1387 C1389 1.389 . S
C1388 H1361 0.950 . S
C1388 C1374 1.377 . S
C1388 C1387 1.373 . S
C1389 C1373 1.377 . S
C1389 C1387 1.389 . S
C1389 C1390 1.524 . S
C1390 C1389 1.524 . S
C1390 C1391 1.397 . S
C1390 C1395 1.363 . S
C1391 H1362 0.950 . S
C1391 C1390 1.397 . S
C1391 C1392 1.334 . S
C1392 H1363 0.950 . S
C1392 C1391 1.334 . S
C1392 C1393 1.287 . S
C1393 C1392 1.287 . S
C1393 C1394 1.524 . S
C1393 H1396 0.999 . S
C1394 H1364 0.950 . S
C1394 C1393 1.524 . S
C1394 C1395 1.415 . S
C1395 H1365 0.950 . S
C1395 C1390 1.363 . S
C1395 C1394 1.415 . S
H1396 C1393 0.999 . S
H1397 C1378 0.913 . S
H1398 C1416 0.951 . S
H1399 C1418 0.951 . S
H1400 C1420 0.950 . S
H1401 C1421 0.950 . S
H1402 C1423 0.950 . S
H1403 C1426 0.950 . S
H1404 C1427 0.950 . S
H1405 C1429 0.950 . S
H1406 C1430 0.950 . S
H1407 C1431 0.951 . S
H1408 C1433 0.951 . S
H1409 C1435 0.950 . S
H1410 C1436 0.950 . S
H1411 C1438 0.950 . S
H1412 C1441 0.950 . S
H1413 C1442 0.950 . S
H1414 C1444 0.950 . S
H1415 C1445 0.950 . S
C1416 H1398 0.951 . S
C1416 C1417 1.366 . S
C1416 C1418 1.388 . S
C1417 C1416 1.366 . S
C1417 C1421 1.385 . S
C1418 H1399 0.951 . S
C1418 C1416 1.388 . S
C1418 C1419 1.366 . S
C1419 C1418 1.366 . S
C1419 C1420 1.414 . S
C1419 C1422 1.499 . S
C1420 H1400 0.950 . S
C1420 C1419 1.414 . S
C1420 C1421 1.374 . S
C1421 H1401 0.950 . S
C1421 C1417 1.385 . S
C1421 C1420 1.374 . S
C1422 C1419 1.499 . S
C1422 C1423 1.373 . S
C1422 C1424 1.389 . S
C1423 H1402 0.950 . S
C1423 C1422 1.373 . S
C1423 C1439 1.377 . S
C1424 C1422 1.389 . S
C1424 C1425 1.524 . S
C1424 C1438 1.377 . S
C1425 C1424 1.524 . S
C1425 C1426 1.397 . S
C1425 C1430 1.363 . S
C1426 H1403 0.950 . S
C1426 C1425 1.397 . S
C1426 C1427 1.334 . S
C1427 H1404 0.950 . S
C1427 C1426 1.334 . S
C1427 C1428 1.287 . S
C1428 C1427 1.287 . S
C1428 C1429 1.524 . S
C1428 H1447 0.913 . S
C1429 H1405 0.950 . S
C1429 C1428 1.524 . S
C1429 C1430 1.415 . S
C1430 H1406 0.950 . S
C1430 C1425 1.363 . S
C1430 C1429 1.415 . S
C1431 H1407 0.951 . S
C1431 C1432 1.366 . S
C1431 C1433 1.388 . S
C1432 C1431 1.366 . S
C1432 C1436 1.385 . S
C1433 H1408 0.951 . S
C1433 C1431 1.388 . S
C1433 C1434 1.366 . S
C1434 C1433 1.366 . S
C1434 C1435 1.414 . S
C1434 C1437 1.499 . S
C1435 H1409 0.950 . S
C1435 C1434 1.414 . S
C1435 C1436 1.374 . S
C1436 H1410 0.950 . S
C1436 C1432 1.385 . S
C1436 C1435 1.374 . S
C1437 C1434 1.499 . S
C1437 C1438 1.373 . S
C1437 C1439 1.389 . S
C1438 H1411 0.950 . S
C1438 C1424 1.377 . S
C1438 C1437 1.373 . S
C1439 C1423 1.377 . S
C1439 C1437 1.389 . S
C1439 C1440 1.524 . S
C1440 C1439 1.524 . S
C1440 C1441 1.397 . S
C1440 C1445 1.363 . S
C1441 H1412 0.950 . S
C1441 C1440 1.397 . S
C1441 C1442 1.334 . S
C1442 H1413 0.950 . S
C1442 C1441 1.334 . S
C1442 C1443 1.287 . S
C1443 C1442 1.287 . S
C1443 C1444 1.524 . S
C1443 H1446 0.999 . S
C1444 H1414 0.950 . S
C1444 C1443 1.524 . S
C1444 C1445 1.415 . S
C1445 H1415 0.950 . S
C1445 C1440 1.363 . S
C1445 C1444 1.415 . S
H1446 C1443 0.999 . S
H1447 C1428 0.913 . S
H1448 C1466 0.951 . S
H1449 C1468 0.951 . S
H1450 C1470 0.950 . S
H1451 C1471 0.950 . S
H1452 C1473 0.950 . S
H1453 C1476 0.950 . S
H1454 C1477 0.950 . S
H1455 C1479 0.950 . S
H1456 C1480 0.950 . S
H1457 C1481 0.951 . S
H1458 C1483 0.951 . S
H1459 C1485 0.950 . S
H1460 C1486 0.950 . S
H1461 C1488 0.950 . S
H1462 C1491 0.950 . S
H1463 C1492 0.950 . S
H1464 C1494 0.950 . S
H1465 C1495 0.950 . S
C1466 H1448 0.951 . S
C1466 C1467 1.366 . S
C1466 C1468 1.388 . S
C1467 C1466 1.366 . S
C1467 C1471 1.385 . S
C1468 H1449 0.951 . S
C1468 C1466 1.388 . S
C1468 C1469 1.366 . S
C1469 C1468 1.366 . S
C1469 C1470 1.414 . S
C1469 C1472 1.499 . S
C1470 H1450 0.950 . S
C1470 C1469 1.414 . S
C1470 C1471 1.374 . S
C1471 H1451 0.950 . S
C1471 C1467 1.385 . S
C1471 C1470 1.374 . S
C1472 C1469 1.499 . S
C1472 C1473 1.373 . S
C1472 C1474 1.389 . S
C1473 H1452 0.950 . S
C1473 C1472 1.373 . S
C1473 C1489 1.377 . S
C1474 C1472 1.389 . S
C1474 C1475 1.524 . S
C1474 C1488 1.377 . S
C1475 C1474 1.524 . S
C1475 C1476 1.397 . S
C1475 C1480 1.363 . S
C1476 H1453 0.950 . S
C1476 C1475 1.397 . S
C1476 C1477 1.334 . S
C1477 H1454 0.950 . S
C1477 C1476 1.334 . S
C1477 C1478 1.287 . S
C1478 C1477 1.287 . S
C1478 C1479 1.524 . S
C1478 H1497 0.913 . S
C1479 H1455 0.950 . S
C1479 C1478 1.524 . S
C1479 C1480 1.415 . S
C1480 H1456 0.950 . S
C1480 C1475 1.363 . S
C1480 C1479 1.415 . S
C1481 H1457 0.951 . S
C1481 C1482 1.366 . S
C1481 C1483 1.388 . S
C1482 C1481 1.366 . S
C1482 C1486 1.385 . S
C1483 H1458 0.951 . S
C1483 C1481 1.388 . S
C1483 C1484 1.366 . S
C1484 C1483 1.366 . S
C1484 C1485 1.414 . S
C1484 C1487 1.499 . S
C1485 H1459 0.950 . S
C1485 C1484 1.414 . S
C1485 C1486 1.374 . S
C1486 H1460 0.950 . S
C1486 C1482 1.385 . S
C1486 C1485 1.374 . S
C1487 C1484 1.499 . S
C1487 C1488 1.373 . S
C1487 C1489 1.389 . S
C1488 H1461 0.950 . S
C1488 C1474 1.377 . S
C1488 C1487 1.373 . S
C1489 C1473 1.377 . S
C1489 C1487 1.389 . S
C1489 C1490 1.524 . S
C1490 C1489 1.524 . S
C1490 C1491 1.397 . S
C1490 C1495 1.363 . S
C1491 H1462 0.950 . S
C1491 C1490 1.397 . S
C1491 C1492 1.334 . S
C1492 H1463 0.950 . S
C1492 C1491 1.334 . S
C1492 C1493 1.287 . S
C1493 C1492 1.287 . S
C1493 C1494 1.524 . S
C1493 H1496 0.999 . S
C1494 H1464 0.950 . S
C1494 C1493 1.524 . S
C1494 C1495 1.415 . S
C1495 H1465 0.950 . S
C1495 C1490 1.363 . S
C1495 C1494 1.415 . S
H1496 C1493 0.999 . S
H1497 C1478 0.913 . S
H1498 C1516 0.951 . S
H1499 C1518 0.951 . S
H1500 C1520 0.950 . S
H1501 C1521 0.950 . S
H1502 C1523 0.950 . S
H1503 C1526 0.950 . S
H1504 C1527 0.950 . S
H1505 C1529 0.950 . S
H1506 C1530 0.950 . S
H1507 C1531 0.951 . S
H1508 C1533 0.951 . S
H1509 C1535 0.950 . S
H1510 C1536 0.950 . S
H1511 C1538 0.950 . S
H1512 C1541 0.950 . S
H1513 C1542 0.950 . S
H1514 C1544 0.950 . S
H1515 C1545 0.950 . S
C1516 H1498 0.951 . S
C1516 C1517 1.366 . S
C1516 C1518 1.388 . S
C1517 C1516 1.366 . S
C1517 C1521 1.385 . S
C1518 H1499 0.951 . S
C1518 C1516 1.388 . S
C1518 C1519 1.366 . S
C1519 C1518 1.366 . S
C1519 C1520 1.414 . S
C1519 C1522 1.499 . S
C1520 H1500 0.950 . S
C1520 C1519 1.414 . S
C1520 C1521 1.374 . S
C1521 H1501 0.950 . S
C1521 C1517 1.385 . S
C1521 C1520 1.374 . S
C1522 C1519 1.499 . S
C1522 C1523 1.373 . S
C1522 C1524 1.389 . S
C1523 H1502 0.950 . S
C1523 C1522 1.373 . S
C1523 C1539 1.377 . S
C1524 C1522 1.389 . S
C1524 C1525 1.524 . S
C1524 C1538 1.377 . S
C1525 C1524 1.524 . S
C1525 C1526 1.397 . S
C1525 C1530 1.363 . S
C1526 H1503 0.950 . S
C1526 C1525 1.397 . S
C1526 C1527 1.334 . S
C1527 H1504 0.950 . S
C1527 C1526 1.334 . S
C1527 C1528 1.287 . S
C1528 C1527 1.287 . S
C1528 C1529 1.524 . S
C1528 H1547 0.913 . S
C1529 H1505 0.950 . S
C1529 C1528 1.524 . S
C1529 C1530 1.415 . S
C1530 H1506 0.950 . S
C1530 C1525 1.363 . S
C1530 C1529 1.415 . S
C1531 H1507 0.951 . S
C1531 C1532 1.366 . S
C1531 C1533 1.388 . S
C1532 C1531 1.366 . S
C1532 C1536 1.385 . S
C1533 H1508 0.951 . S
C1533 C1531 1.388 . S
C1533 C1534 1.366 . S
C1534 C1533 1.366 . S
C1534 C1535 1.414 . S
C1534 C1537 1.499 . S
C1535 H1509 0.950 . S
C1535 C1534 1.414 . S
C1535 C1536 1.374 . S
C1536 H1510 0.950 . S
C1536 C1532 1.385 . S
C1536 C1535 1.374 . S
C1537 C1534 1.499 . S
C1537 C1538 1.373 . S
C1537 C1539 1.389 . S
C1538 H1511 0.950 . S
C1538 C1524 1.377 . S
C1538 C1537 1.373 . S
C1539 C1523 1.377 . S
C1539 C1537 1.389 . S
C1539 C1540 1.524 . S
C1540 C1539 1.524 . S
C1540 C1541 1.397 . S
C1540 C1545 1.363 . S
C1541 H1512 0.950 . S
C1541 C1540 1.397 . S
C1541 C1542 1.334 . S
C1542 H1513 0.950 . S
C1542 C1541 1.334 . S
C1542 C1543 1.287 . S
C1543 C1542 1.287 . S
C1543 C1544 1.524 . S
C1543 H1546 0.999 . S
C1544 H1514 0.950 . S
C1544 C1543 1.524 . S
C1544 C1545 1.415 . S
C1545 H1515 0.950 . S
C1545 C1540 1.363 . S
C1545 C1544 1.415 . S
H1546 C1543 0.999 . S
H1547 C1528 0.913 . S
H1548 C1566 0.951 . S
H1549 C1568 0.951 . S
H1550 C1570 0.950 . S
H1551 C1571 0.950 1_556 S
H1552 C1573 0.950 . S
H1553 C1576 0.950 . S
H1554 C1577 0.950 . S
H1555 C1579 0.950 . S
H1556 C1580 0.950 . S
H1557 C1581 0.951 . S
H1558 C1583 0.951 . S
H1559 C1585 0.950 . S
H1560 C1586 0.950 . S
H1561 C1588 0.950 . S
H1562 C1591 0.950 . S
H1563 C1592 0.950 . S
H1564 C1594 0.950 . S
H1565 C1595 0.950 . S
C1566 H1548 0.951 . S
C1566 C1567 1.366 . S
C1566 C1568 1.388 . S
C1567 C1566 1.366 . S
C1567 C1571 1.385 . S
C1568 H1549 0.951 . S
C1568 C1566 1.388 . S
C1568 C1569 1.366 1_554 S
C1569 C1568 1.366 1_556 S
C1569 C1570 1.414 . S
C1569 C1572 1.499 . S
C1570 H1550 0.950 . S
C1570 C1569 1.414 . S
C1570 C1571 1.374 1_556 S
C1571 H1551 0.950 1_554 S
C1571 C1567 1.385 . S
C1571 C1570 1.374 1_554 S
C1572 C1569 1.499 . S
C1572 C1573 1.373 . S
C1572 C1574 1.389 . S
C1573 H1552 0.950 . S
C1573 C1572 1.373 . S
C1573 C1589 1.377 . S
C1574 C1572 1.389 . S
C1574 C1575 1.524 1_556 S
C1574 C1588 1.377 . S
C1575 C1574 1.524 1_554 S
C1575 C1576 1.397 . S
C1575 C1580 1.363 . S
C1576 H1553 0.950 . S
C1576 C1575 1.397 . S
C1576 C1577 1.334 . S
C1577 H1554 0.950 . S
C1577 C1576 1.334 . S
C1577 C1578 1.287 . S
C1578 C1577 1.287 . S
C1578 C1579 1.524 . S
C1578 H1597 0.913 . S
C1579 H1555 0.950 . S
C1579 C1578 1.524 . S
C1579 C1580 1.415 . S
C1580 H1556 0.950 . S
C1580 C1575 1.363 . S
C1580 C1579 1.415 . S
C1581 H1557 0.951 . S
C1581 C1582 1.366 . S
C1581 C1583 1.388 . S
C1582 C1581 1.366 . S
C1582 C1586 1.385 . S
C1583 H1558 0.951 . S
C1583 C1581 1.388 . S
C1583 C1584 1.366 . S
C1584 C1583 1.366 . S
C1584 C1585 1.414 . S
C1584 C1587 1.499 . S
C1585 H1559 0.950 . S
C1585 C1584 1.414 . S
C1585 C1586 1.374 . S
C1586 H1560 0.950 . S
C1586 C1582 1.385 . S
C1586 C1585 1.374 . S
C1587 C1584 1.499 . S
C1587 C1588 1.373 . S
C1587 C1589 1.389 . S
C1588 H1561 0.950 . S
C1588 C1574 1.377 . S
C1588 C1587 1.373 . S
C1589 C1573 1.377 . S
C1589 C1587 1.389 . S
C1589 C1590 1.524 . S
C1590 C1589 1.524 . S
C1590 C1591 1.397 . S
C1590 C1595 1.363 . S
C1591 H1562 0.950 . S
C1591 C1590 1.397 . S
C1591 C1592 1.334 . S
C1592 H1563 0.950 . S
C1592 C1591 1.334 . S
C1592 C1593 1.287 . S
C1593 C1592 1.287 . S
C1593 C1594 1.524 . S
C1593 H1596 0.999 . S
C1594 H1564 0.950 . S
C1594 C1593 1.524 . S
C1594 C1595 1.415 . S
C1595 H1565 0.950 . S
C1595 C1590 1.363 . S
C1595 C1594 1.415 . S
H1596 C1593 0.999 . S
H1597 C1578 0.913 . S
H1598 C1616 0.951 . S
H1599 C1618 0.951 . S
H1600 C1620 0.950 . S
H1601 C1621 0.980 . S
H1602 C1623 0.950 . S
H1603 C1626 0.950 . S
H1604 C1627 0.950 1_554 S
H1605 C1629 0.950 . S
H1606 C1630 0.950 . S
H1607 C1631 0.951 . S
H1608 C1633 0.951 . S
H1609 C1635 0.950 . S
H1610 C1636 0.950 . S
H1611 C1638 0.950 . S
H1612 C1641 0.950 . S
H1613 C1642 0.950 . S
H1614 C1644 0.950 . S
H1615 C1645 0.950 . S
C1616 H1598 0.951 . S
C1616 C1617 1.366 . S
C1616 C1618 1.388 . S
C1617 C1616 1.366 . S
C1617 C1621 1.385 . S
C1618 H1599 0.951 . S
C1618 C1616 1.388 . S
C1618 C1619 1.366 . S
C1619 C1618 1.366 . S
C1619 C1620 1.414 . S
C1619 C1622 1.499 . S
C1620 H1600 0.950 . S
C1620 C1619 1.414 . S
C1620 C1621 1.374 . S
C1621 H1601 0.980 . S
C1621 C1617 1.385 . S
C1621 C1620 1.374 . S
C1622 C1619 1.499 . S
C1622 C1623 1.373 . S
C1622 C1624 1.389 . S
C1623 H1602 0.950 . S
C1623 C1622 1.373 . S
C1623 C1639 1.377 . S
C1624 C1622 1.389 . S
C1624 C1625 1.524 . S
C1624 C1638 1.377 . S
C1625 C1624 1.524 . S
C1625 C1626 1.397 . S
C1625 C1630 1.363 . S
C1626 H1603 0.950 . S
C1626 C1625 1.397 . S
C1626 C1627 1.334 . S
C1627 H1604 0.950 1_556 S
C1627 C1626 1.334 . S
C1627 C1628 1.287 . S
C1628 C1627 1.287 . S
C1628 C1629 1.524 . S
C1628 H1647 0.913 . S
C1629 H1605 0.950 . S
C1629 C1628 1.524 . S
C1629 C1630 1.415 . S
C1630 H1606 0.950 . S
C1630 C1625 1.363 . S
C1630 C1629 1.415 . S
C1631 H1607 0.951 . S
C1631 C1632 1.366 . S
C1631 C1633 1.388 . S
C1632 C1631 1.366 . S
C1632 C1636 1.385 . S
C1633 H1608 0.951 . S
C1633 C1631 1.388 . S
C1633 C1634 1.366 . S
C1634 C1633 1.366 . S
C1634 C1635 1.414 . S
C1634 C1637 1.499 . S
C1635 H1609 0.950 . S
C1635 C1634 1.414 . S
C1635 C1636 1.374 . S
C1636 H1610 0.950 . S
C1636 C1632 1.385 . S
C1636 C1635 1.374 . S
C1637 C1634 1.499 . S
C1637 C1638 1.373 . S
C1637 C1639 1.389 . S
C1638 H1611 0.950 . S
C1638 C1624 1.377 . S
C1638 C1637 1.373 . S
C1639 C1623 1.377 . S
C1639 C1637 1.389 . S
C1639 C1640 1.524 . S
C1640 C1639 1.524 . S
C1640 C1641 1.397 . S
C1640 C1645 1.363 . S
C1641 H1612 0.950 . S
C1641 C1640 1.397 . S
C1641 C1642 1.334 . S
C1642 H1613 0.950 . S
C1642 C1641 1.334 . S
C1642 C1643 1.287 . S
C1643 C1642 1.287 . S
C1643 C1644 1.524 . S
C1643 H1646 0.999 . S
C1644 H1614 0.950 . S
C1644 C1643 1.524 . S
C1644 C1645 1.415 . S
C1645 H1615 0.950 . S
C1645 C1640 1.363 . S
C1645 C1644 1.415 . S
H1646 C1643 0.999 . S
H1647 C1628 0.913 . S
H1648 C1666 0.951 . S
H1649 C1668 0.951 . S
H1650 C1670 0.950 . S
H1651 C1671 0.950 . S
H1652 C1673 0.950 . S
H1653 C1676 0.950 . S
H1654 C1677 0.950 . S
H1655 C1679 0.950 . S
H1656 C1680 0.950 . S
H1657 C1681 0.951 . S
H1658 C1683 0.951 . S
H1659 C1685 0.950 . S
H1660 C1686 0.950 . S
H1661 C1688 0.950 . S
H1662 C1691 0.950 . S
H1663 C1692 0.950 . S
H1664 C1694 0.950 . S
H1665 C1695 0.950 . S
C1666 H1648 0.951 . S
C1666 C1667 1.366 . S
C1666 C1668 1.388 . S
C1667 C1666 1.366 . S
C1667 C1671 1.385 . S
C1668 H1649 0.951 . S
C1668 C1666 1.388 . S
C1668 C1669 1.366 . S
C1669 C1668 1.366 . S
C1669 C1670 1.414 . S
C1669 C1672 1.499 . S
C1670 H1650 0.950 . S
C1670 C1669 1.414 . S
C1670 C1671 1.374 . S
C1671 H1651 0.950 . S
C1671 C1667 1.385 . S
C1671 C1670 1.374 . S
C1672 C1669 1.499 . S
C1672 C1673 1.373 . S
C1672 C1674 1.389 . S
C1673 H1652 0.950 . S
C1673 C1672 1.373 . S
C1673 C1689 1.377 . S
C1674 C1672 1.389 . S
C1674 C1675 1.524 . S
C1674 C1688 1.377 . S
C1675 C1674 1.524 . S
C1675 C1676 1.397 . S
C1675 C1680 1.363 . S
C1676 H1653 0.950 . S
C1676 C1675 1.397 . S
C1676 C1677 1.334 . S
C1677 H1654 0.950 . S
C1677 C1676 1.334 . S
C1677 C1678 1.287 . S
C1678 C1677 1.287 . S
C1678 C1679 1.524 . S
C1678 H1697 0.913 . S
C1679 H1655 0.950 . S
C1679 C1678 1.524 . S
C1679 C1680 1.415 . S
C1680 H1656 0.950 . S
C1680 C1675 1.363 . S
C1680 C1679 1.415 . S
C1681 H1657 0.951 . S
C1681 C1682 1.366 . S
C1681 C1683 1.388 . S
C1682 C1681 1.366 . S
C1682 C1686 1.385 . S
C1683 H1658 0.951 . S
C1683 C1681 1.388 . S
C1683 C1684 1.366 . S
C1684 C1683 1.366 . S
C1684 C1685 1.414 . S
C1684 C1687 1.499 . S
C1685 H1659 0.950 . S
C1685 C1684 1.414 . S
C1685 C1686 1.374 . S
C1686 H1660 0.950 . S
C1686 C1682 1.385 . S
C1686 C1685 1.374 . S
C1687 C1684 1.499 . S
C1687 C1688 1.373 . S
C1687 C1689 1.389 . S
C1688 H1661 0.950 . S
C1688 C1674 1.377 . S
C1688 C1687 1.373 . S
C1689 C1673 1.377 . S
C1689 C1687 1.389 . S
C1689 C1690 1.524 . S
C1690 C1689 1.524 . S
C1690 C1691 1.397 . S
C1690 C1695 1.363 . S
C1691 H1662 0.950 . S
C1691 C1690 1.397 . S
C1691 C1692 1.334 . S
C1692 H1663 0.950 . S
C1692 C1691 1.334 . S
C1692 C1693 1.287 . S
C1693 C1692 1.287 . S
C1693 C1694 1.524 . S
C1693 H1696 0.999 . S
C1694 H1664 0.950 . S
C1694 C1693 1.524 . S
C1694 C1695 1.415 . S
C1695 H1665 0.950 . S
C1695 C1690 1.363 . S
C1695 C1694 1.415 . S
H1696 C1693 0.999 . S
H1697 C1678 0.913 . S
H1698 C1716 0.951 . S
H1699 C1718 0.951 . S
H1700 C1720 0.950 . S
H1701 C1721 0.950 . S
H1702 C1723 0.950 . S
H1703 C1726 0.950 . S
H1704 C1727 0.950 . S
H1705 C1729 0.950 . S
H1706 C1730 0.950 . S
H1707 C1731 0.951 . S
H1708 C1733 0.951 . S
H1709 C1735 0.950 . S
H1710 C1736 0.950 . S
H1711 C1738 0.950 . S
H1712 C1741 0.950 . S
H1713 C1742 0.950 . S
H1714 C1744 0.950 . S
H1715 C1745 0.950 . S
C1716 H1698 0.951 . S
C1716 C1717 1.366 . S
C1716 C1718 1.388 . S
C1717 C1716 1.366 . S
C1717 C1721 1.385 . S
C1718 H1699 0.951 . S
C1718 C1716 1.388 . S
C1718 C1719 1.366 . S
C1719 C1718 1.366 . S
C1719 C1720 1.414 . S
C1719 C1722 1.499 . S
C1720 H1700 0.950 . S
C1720 C1719 1.414 . S
C1720 C1721 1.374 . S
C1721 H1701 0.950 . S
C1721 C1717 1.385 . S
C1721 C1720 1.374 . S
C1722 C1719 1.499 . S
C1722 C1723 1.373 . S
C1722 C1724 1.389 . S
C1723 H1702 0.950 . S
C1723 C1722 1.373 . S
C1723 C1739 1.377 . S
C1724 C1722 1.389 . S
C1724 C1725 1.524 . S
C1724 C1738 1.377 . S
C1725 C1724 1.524 . S
C1725 C1726 1.397 . S
C1725 C1730 1.363 . S
C1726 H1703 0.950 . S
C1726 C1725 1.397 . S
C1726 C1727 1.334 . S
C1727 H1704 0.950 . S
C1727 C1726 1.334 . S
C1727 C1728 1.287 . S
C1728 C1727 1.287 . S
C1728 C1729 1.524 . S
C1728 H1747 0.913 . S
C1729 H1705 0.950 . S
C1729 C1728 1.524 . S
C1729 C1730 1.415 . S
C1730 H1706 0.950 . S
C1730 C1725 1.363 . S
C1730 C1729 1.415 . S
C1731 H1707 0.951 . S
C1731 C1732 1.366 . S
C1731 C1733 1.388 . S
C1732 C1731 1.366 . S
C1732 C1736 1.385 . S
C1733 H1708 0.951 . S
C1733 C1731 1.388 . S
C1733 C1734 1.366 . S
C1734 C1733 1.366 . S
C1734 C1735 1.414 . S
C1734 C1737 1.499 . S
C1735 H1709 0.950 . S
C1735 C1734 1.414 . S
C1735 C1736 1.374 . S
C1736 H1710 0.950 . S
C1736 C1732 1.385 . S
C1736 C1735 1.374 . S
C1737 C1734 1.499 . S
C1737 C1738 1.373 . S
C1737 C1739 1.389 . S
C1738 H1711 0.950 . S
C1738 C1724 1.377 . S
C1738 C1737 1.373 . S
C1739 C1723 1.377 . S
C1739 C1737 1.389 . S
C1739 C1740 1.524 . S
C1740 C1739 1.524 . S
C1740 C1741 1.397 . S
C1740 C1745 1.363 . S
C1741 H1712 0.950 . S
C1741 C1740 1.397 . S
C1741 C1742 1.334 . S
C1742 H1713 0.950 . S
C1742 C1741 1.334 . S
C1742 C1743 1.287 . S
C1743 C1742 1.287 . S
C1743 C1744 1.524 . S
C1743 H1746 0.999 . S
C1744 H1714 0.950 . S
C1744 C1743 1.524 . S
C1744 C1745 1.415 . S
C1745 H1715 0.950 . S
C1745 C1740 1.363 . S
C1745 C1744 1.415 . S
H1746 C1743 0.999 . S
H1747 C1728 0.913 . S
H1748 C1766 0.951 . S
H1749 C1768 0.951 . S
H1750 C1770 0.950 . S
H1751 C1771 0.950 . S
H1752 C1773 0.950 . S
H1753 C1776 0.950 . S
H1754 C1777 0.950 . S
H1755 C1779 0.950 . S
H1756 C1780 0.950 . S
H1757 C1781 0.951 . S
H1758 C1783 0.951 . S
H1759 C1785 0.950 . S
H1760 C1786 0.950 . S
H1761 C1788 0.950 . S
H1762 C1791 0.950 . S
H1763 C1792 0.950 . S
H1764 C1794 0.950 . S
H1765 C1795 0.950 . S
C1766 H1748 0.951 . S
C1766 C1767 1.366 . S
C1766 C1768 1.388 . S
C1767 C1766 1.366 . S
C1767 C1771 1.385 . S
C1768 H1749 0.951 . S
C1768 C1766 1.388 . S
C1768 C1769 1.366 . S
C1769 C1768 1.366 . S
C1769 C1770 1.414 . S
C1769 C1772 1.499 . S
C1770 H1750 0.950 . S
C1770 C1769 1.414 . S
C1770 C1771 1.374 . S
C1771 H1751 0.950 . S
C1771 C1767 1.385 . S
C1771 C1770 1.374 . S
C1772 C1769 1.499 . S
C1772 C1773 1.373 . S
C1772 C1774 1.389 . S
C1773 H1752 0.950 . S
C1773 C1772 1.373 . S
C1773 C1789 1.377 . S
C1774 C1772 1.389 . S
C1774 C1775 1.524 . S
C1774 C1788 1.377 . S
C1775 C1774 1.524 . S
C1775 C1776 1.397 . S
C1775 C1780 1.363 . S
C1776 H1753 0.950 . S
C1776 C1775 1.397 . S
C1776 C1777 1.334 . S
C1777 H1754 0.950 . S
C1777 C1776 1.334 . S
C1777 C1778 1.287 . S
C1778 C1777 1.287 . S
C1778 C1779 1.524 . S
C1778 H1797 0.913 . S
C1779 H1755 0.950 . S
C1779 C1778 1.524 . S
C1779 C1780 1.415 . S
C1780 H1756 0.950 . S
C1780 C1775 1.363 . S
C1780 C1779 1.415 . S
C1781 H1757 0.951 . S
C1781 C1782 1.366 . S
C1781 C1783 1.388 . S
C1782 C1781 1.366 . S
C1782 C1786 1.385 . S
C1783 H1758 0.951 . S
C1783 C1781 1.388 . S
C1783 C1784 1.366 . S
C1784 C1783 1.366 . S
C1784 C1785 1.414 . S
C1784 C1787 1.499 . S
C1785 H1759 0.950 . S
C1785 C1784 1.414 . S
C1785 C1786 1.374 . S
C1786 H1760 0.950 . S
C1786 C1782 1.385 . S
C1786 C1785 1.374 . S
C1787 C1784 1.499 . S
C1787 C1788 1.373 . S
C1787 C1789 1.389 . S
C1788 H1761 0.950 . S
C1788 C1774 1.377 . S
C1788 C1787 1.373 . S
C1789 C1773 1.377 . S
C1789 C1787 1.389 . S
C1789 C1790 1.524 . S
C1790 C1789 1.524 . S
C1790 C1791 1.397 . S
C1790 C1795 1.363 . S
C1791 H1762 0.950 . S
C1791 C1790 1.397 . S
C1791 C1792 1.334 . S
C1792 H1763 0.950 . S
C1792 C1791 1.334 . S
C1792 C1793 1.287 . S
C1793 C1792 1.287 . S
C1793 C1794 1.524 . S
C1793 H1796 0.999 . S
C1794 H1764 0.950 . S
C1794 C1793 1.524 . S
C1794 C1795 1.415 . S
C1795 H1765 0.950 . S
C1795 C1790 1.363 . S
C1795 C1794 1.415 . S
H1796 C1793 0.999 . S
H1797 C1778 0.913 . S
H1798 C1816 0.951 . S
H1799 C1818 0.951 . S
H1800 C1820 0.950 . S
H1801 C1821 0.950 . S
H1802 C1823 0.950 . S
H1803 C1826 0.950 . S
H1804 C1827 0.978 . S
H1805 C1829 0.950 . S
H1806 C1830 0.950 . S
H1807 C1831 0.951 . S
H1808 C1833 0.951 . S
H1809 C1835 0.950 . S
H1810 C1836 0.950 . S
H1811 C1838 0.950 . S
H1812 C1841 0.950 . S
H1813 C1842 0.950 . S
H1814 C1844 0.950 . S
H1815 C1845 0.950 . S
C1816 H1798 0.951 . S
C1816 C1817 1.366 . S
C1816 C1818 1.388 . S
C1817 C1816 1.366 . S
C1817 C1821 1.385 . S
C1818 H1799 0.951 . S
C1818 C1816 1.388 . S
C1818 C1819 1.366 . S
C1819 C1818 1.366 . S
C1819 C1820 1.414 . S
C1819 C1822 1.499 . S
C1820 H1800 0.950 . S
C1820 C1819 1.414 . S
C1820 C1821 1.374 . S
C1821 H1801 0.950 . S
C1821 C1817 1.385 . S
C1821 C1820 1.374 . S
C1822 C1819 1.499 . S
C1822 C1823 1.373 . S
C1822 C1824 1.389 . S
C1823 H1802 0.950 . S
C1823 C1822 1.373 . S
C1823 C1839 1.377 . S
C1824 C1822 1.389 . S
C1824 C1825 1.524 . S
C1824 C1838 1.377 . S
C1825 C1824 1.524 . S
C1825 C1826 1.397 . S
C1825 C1830 1.363 . S
C1826 H1803 0.950 . S
C1826 C1825 1.397 . S
C1826 C1827 1.334 . S
C1827 H1804 0.978 . S
C1827 C1826 1.334 . S
C1827 C1828 1.287 . S
C1828 C1827 1.287 . S
C1828 C1829 1.524 . S
C1828 H1847 0.937 . S
C1829 H1805 0.950 . S
C1829 C1828 1.524 . S
C1829 C1830 1.415 . S
C1830 H1806 0.950 . S
C1830 C1825 1.363 . S
C1830 C1829 1.415 . S
C1831 H1807 0.951 . S
C1831 C1832 1.366 . S
C1831 C1833 1.388 . S
C1832 C1831 1.366 . S
C1832 C1836 1.385 . S
C1833 H1808 0.951 . S
C1833 C1831 1.388 . S
C1833 C1834 1.366 . S
C1834 C1833 1.366 . S
C1834 C1835 1.414 . S
C1834 C1837 1.499 . S
C1835 H1809 0.950 . S
C1835 C1834 1.414 . S
C1835 C1836 1.374 . S
C1836 H1810 0.950 . S
C1836 C1832 1.385 . S
C1836 C1835 1.374 . S
C1837 C1834 1.499 . S
C1837 C1838 1.373 . S
C1837 C1839 1.389 . S
C1838 H1811 0.950 . S
C1838 C1824 1.377 . S
C1838 C1837 1.373 . S
C1839 C1823 1.377 . S
C1839 C1837 1.389 . S
C1839 C1840 1.524 . S
C1840 C1839 1.524 . S
C1840 C1841 1.397 . S
C1840 C1845 1.363 . S
C1841 H1812 0.950 . S
C1841 C1840 1.397 . S
C1841 C1842 1.334 . S
C1842 H1813 0.950 . S
C1842 C1841 1.334 . S
C1842 C1843 1.287 . S
C1843 C1842 1.287 . S
C1843 C1844 1.524 . S
C1843 H1846 0.999 . S
C1844 H1814 0.950 . S
C1844 C1843 1.524 . S
C1844 C1845 1.415 . S
C1845 H1815 0.950 . S
C1845 C1840 1.363 . S
C1845 C1844 1.415 . S
H1846 C1843 0.999 . S
H1847 C1828 0.937 . S
H1848 C1866 0.951 . S
H1849 C1868 0.951 . S
H1850 C1870 0.950 1_554 S
H1851 C1871 0.950 . S
H1852 C1873 0.950 . S
H1853 C1876 0.950 . S
H1854 C1877 0.950 . S
H1855 C1879 0.950 . S
H1856 C1880 0.950 . S
H1857 C1881 0.951 . S
H1858 C1883 0.951 . S
H1859 C1885 0.950 . S
H1860 C1886 0.950 . S
H1861 C1888 0.950 . S
H1862 C1891 0.950 . S
H1863 C1892 0.950 . S
H1864 C1894 0.950 . S
H1865 C1895 0.950 . S
C1866 H1848 0.951 . S
C1866 C1867 1.366 1_556 S
C1866 C1868 1.388 . S
C1867 C1866 1.366 1_554 S
C1867 C1871 1.385 . S
C1868 H1849 0.951 . S
C1868 C1866 1.388 . S
C1868 C1869 1.366 . S
C1869 C1868 1.366 . S
C1869 C1870 1.414 . S
C1869 C1872 1.499 . S
C1870 H1850 0.950 1_556 S
C1870 C1869 1.414 . S
C1870 C1871 1.374 1_556 S
C1871 H1851 0.950 . S
C1871 C1867 1.385 . S
C1871 C1870 1.374 1_554 S
C1872 C1869 1.499 . S
C1872 C1873 1.373 . S
C1872 C1874 1.389 . S
C1873 H1852 0.950 . S
C1873 C1872 1.373 . S
C1873 C1889 1.377 . S
C1874 C1872 1.389 . S
C1874 C1875 1.524 . S
C1874 C1888 1.377 . S
C1875 C1874 1.524 . S
C1875 C1876 1.397 . S
C1875 C1880 1.363 . S
C1876 H1853 0.950 . S
C1876 C1875 1.397 . S
C1876 C1877 1.334 . S
C1877 H1854 0.950 . S
C1877 C1876 1.334 . S
C1877 C1878 1.287 . S
C1878 C1877 1.287 . S
C1878 C1879 1.524 . S
C1878 H1897 0.913 . S
C1879 H1855 0.950 . S
C1879 C1878 1.524 . S
C1879 C1880 1.415 . S
C1880 H1856 0.950 . S
C1880 C1875 1.363 . S
C1880 C1879 1.415 . S
C1881 H1857 0.951 . S
C1881 C1882 1.366 . S
C1881 C1883 1.388 . S
C1882 C1881 1.366 . S
C1882 C1886 1.385 . S
C1883 H1858 0.951 . S
C1883 C1881 1.388 . S
C1883 C1884 1.366 . S
C1884 C1883 1.366 . S
C1884 C1885 1.414 . S
C1884 C1887 1.499 . S
C1885 H1859 0.950 . S
C1885 C1884 1.414 . S
C1885 C1886 1.374 . S
C1886 H1860 0.950 . S
C1886 C1882 1.385 . S
C1886 C1885 1.374 . S
C1887 C1884 1.499 . S
C1887 C1888 1.373 . S
C1887 C1889 1.389 . S
C1888 H1861 0.950 . S
C1888 C1874 1.377 . S
C1888 C1887 1.373 . S
C1889 C1873 1.377 . S
C1889 C1887 1.389 . S
C1889 C1890 1.524 . S
C1890 C1889 1.524 . S
C1890 C1891 1.397 . S
C1890 C1895 1.363 . S
C1891 H1862 0.950 . S
C1891 C1890 1.397 . S
C1891 C1892 1.334 . S
C1892 H1863 0.950 . S
C1892 C1891 1.334 . S
C1892 C1893 1.287 . S
C1893 C1892 1.287 . S
C1893 C1894 1.524 . S
C1893 H1896 0.999 . S
C1894 H1864 0.950 . S
C1894 C1893 1.524 . S
C1894 C1895 1.415 . S
C1895 H1865 0.950 . S
C1895 C1890 1.363 . S
C1895 C1894 1.415 . S
H1896 C1893 0.999 . S
H1897 C1878 0.913 . S
H1898 C1916 0.951 . S
H1899 C1918 0.951 . S
H1900 C1920 0.950 . S
H1901 C1921 0.950 . S
H1902 C1923 0.950 . S
H1903 C1926 0.950 . S
H1904 C1927 0.988 . S
H1905 C1929 0.950 . S
H1906 C1930 0.950 . S
H1907 C1931 0.951 . S
H1908 C1933 0.951 . S
H1909 C1935 0.950 . S
H1910 C1936 0.950 . S
H1911 C1938 0.950 . S
H1912 C1941 0.950 . S
H1913 C1942 0.950 . S
H1914 C1944 0.950 . S
H1915 C1945 0.950 . S
C1916 H1898 0.951 . S
C1916 C1917 1.366 . S
C1916 C1918 1.388 . S
C1917 C1916 1.366 . S
C1917 C1921 1.385 1_554 S
C1918 H1899 0.951 . S
C1918 C1916 1.388 . S
C1918 C1919 1.366 1_554 S
C1919 C1918 1.366 1_556 S
C1919 C1920 1.414 . S
C1919 C1922 1.499 . S
C1920 H1900 0.950 . S
C1920 C1919 1.414 . S
C1920 C1921 1.374 . S
C1921 H1901 0.950 . S
C1921 C1917 1.385 1_556 S
C1921 C1920 1.374 . S
C1922 C1919 1.499 . S
C1922 C1923 1.373 . S
C1922 C1924 1.389 . S
C1923 H1902 0.950 . S
C1923 C1922 1.373 . S
C1923 C1939 1.377 . S
C1924 C1922 1.389 . S
C1924 C1925 1.524 . S
C1924 C1938 1.377 . S
C1925 C1924 1.524 . S
C1925 C1926 1.397 . S
C1925 C1930 1.363 . S
C1926 H1903 0.950 . S
C1926 C1925 1.397 . S
C1926 C1927 1.308 1_655 S
C1927 H1904 0.988 . S
C1927 C1926 1.308 1_455 S
C1927 C1928 1.275 1_455 S
C1928 C1927 1.275 1_655 S
C1928 C1929 1.524 . S
C1928 H1947 0.913 1_655 S
C1929 H1905 0.950 . S
C1929 C1928 1.524 . S
C1929 C1930 1.415 . S
C1930 H1906 0.950 . S
C1930 C1925 1.363 . S
C1930 C1929 1.415 . S
C1931 H1907 0.951 . S
C1931 C1932 1.366 . S
C1931 C1933 1.388 . S
C1932 C1931 1.366 . S
C1932 C1936 1.385 . S
C1933 H1908 0.951 . S
C1933 C1931 1.388 . S
C1933 C1934 1.366 . S
C1934 C1933 1.366 . S
C1934 C1935 1.414 . S
C1934 C1937 1.499 . S
C1935 H1909 0.950 . S
C1935 C1934 1.414 . S
C1935 C1936 1.374 . S
C1936 H1910 0.950 . S
C1936 C1932 1.385 . S
C1936 C1935 1.374 . S
C1937 C1934 1.499 . S
C1937 C1938 1.373 . S
C1937 C1939 1.389 . S
C1938 H1911 0.950 . S
C1938 C1924 1.377 . S
C1938 C1937 1.373 . S
C1939 C1923 1.377 . S
C1939 C1937 1.389 . S
C1939 C1940 1.524 . S
C1940 C1939 1.524 . S
C1940 C1941 1.397 . S
C1940 C1945 1.363 . S
C1941 H1912 0.950 . S
C1941 C1940 1.397 . S
C1941 C1942 1.334 . S
C1942 H1913 0.950 . S
C1942 C1941 1.334 . S
C1942 C1943 1.287 . S
C1943 C1942 1.287 . S
C1943 C1944 1.524 . S
C1943 H1946 0.999 . S
C1944 H1914 0.950 . S
C1944 C1943 1.524 . S
C1944 C1945 1.415 . S
C1945 H1915 0.950 . S
C1945 C1940 1.363 . S
C1945 C1944 1.415 . S
H1946 C1943 0.999 . S
H1947 C1928 0.913 1_455 S
H1948 C1966 0.951 . S
H1949 C1968 0.951 . S
H1950 C1970 0.950 . S
H1951 C1971 0.950 . S
H1952 C1973 0.950 . S
H1953 C1976 0.950 . S
H1954 C1977 0.950 . S
H1955 C1979 0.950 . S
H1956 C1980 0.950 . S
H1957 C1981 0.951 . S
H1958 C1983 0.951 . S
H1959 C1985 0.950 . S
H1960 C1986 0.950 . S
H1961 C1988 0.950 . S
H1962 C1991 0.950 . S
H1963 C1992 0.950 . S
H1964 C1994 0.950 . S
H1965 C1995 0.950 . S
C1966 H1948 0.951 . S
C1966 C1967 1.366 . S
C1966 C1968 1.388 . S
C1967 C1966 1.366 . S
C1967 C1971 1.385 . S
C1968 H1949 0.951 . S
C1968 C1966 1.388 . S
C1968 C1969 1.366 . S
C1969 C1968 1.366 . S
C1969 C1970 1.414 . S
C1969 C1972 1.499 . S
C1970 H1950 0.950 . S
C1970 C1969 1.414 . S
C1970 C1971 1.374 . S
C1971 H1951 0.950 . S
C1971 C1967 1.385 . S
C1971 C1970 1.374 . S
C1972 C1969 1.499 . S
C1972 C1973 1.373 . S
C1972 C1974 1.389 . S
C1973 H1952 0.950 . S
C1973 C1972 1.373 . S
C1973 C1989 1.377 . S
C1974 C1972 1.389 . S
C1974 C1975 1.524 . S
C1974 C1988 1.377 . S
C1975 C1974 1.524 . S
C1975 C1976 1.397 . S
C1975 C1980 1.363 . S
C1976 H1953 0.950 . S
C1976 C1975 1.397 . S
C1976 C1977 1.334 . S
C1977 H1954 0.950 . S
C1977 C1976 1.334 . S
C1977 C1978 1.287 . S
C1978 C1977 1.287 . S
C1978 C1979 1.524 . S
C1978 H1997 0.913 . S
C1979 H1955 0.950 . S
C1979 C1978 1.524 . S
C1979 C1980 1.415 . S
C1980 H1956 0.950 . S
C1980 C1975 1.363 . S
C1980 C1979 1.415 . S
C1981 H1957 0.951 . S
C1981 C1982 1.366 . S
C1981 C1983 1.388 . S
C1982 C1981 1.366 . S
C1982 C1986 1.385 . S
C1983 H1958 0.951 . S
C1983 C1981 1.388 . S
C1983 C1984 1.366 . S
C1984 C1983 1.366 . S
C1984 C1985 1.414 . S
C1984 C1987 1.499 . S
C1985 H1959 0.950 . S
C1985 C1984 1.414 . S
C1985 C1986 1.374 . S
C1986 H1960 0.950 . S
C1986 C1982 1.385 . S
C1986 C1985 1.374 . S
C1987 C1984 1.499 . S
C1987 C1988 1.373 . S
C1987 C1989 1.389 . S
C1988 H1961 0.950 . S
C1988 C1974 1.377 . S
C1988 C1987 1.373 . S
C1989 C1973 1.377 . S
C1989 C1987 1.389 . S
C1989 C1990 1.524 . S
C1990 C1989 1.524 . S
C1990 C1991 1.397 . S
C1990 C1995 1.363 . S
C1991 H1962 0.950 . S
C1991 C1990 1.397 . S
C1991 C1992 1.334 . S
C1992 H1963 0.950 . S
C1992 C1991 1.334 . S
C1992 C1993 1.287 . S
C1993 C1992 1.287 . S
C1993 C1994 1.524 . S
C1993 H1996 0.999 . S
C1994 H1964 0.950 . S
C1994 C1993 1.524 . S
C1994 C1995 1.415 . S
C1995 H1965 0.950 . S
C1995 C1990 1.363 . S
C1995 C1994 1.415 . S
H1996 C1993 0.999 . S
H1997 C1978 0.913 . S
H1998 C2016 0.951 . S
H1999 C2018 0.951 . S
H2000 C2020 0.950 . S
H2001 C2021 0.950 . S
H2002 C2023 0.950 . S
H2003 C2026 0.950 . S
H2004 C2027 0.950 . S
H2005 C2029 0.950 . S
H2006 C2030 0.950 . S
H2007 C2031 0.951 . S
H2008 C2033 0.951 . S
H2009 C2035 0.950 . S
H2010 C2036 0.950 . S
H2011 C2038 0.950 . S
H2012 C2041 0.950 . S
H2013 C2042 0.950 . S
H2014 C2044 0.950 . S
H2015 C2045 0.950 . S
C2016 H1998 0.951 . S
C2016 C2017 1.366 . S
C2016 C2018 1.388 . S
C2017 C2016 1.366 . S
C2017 C2021 1.385 . S
C2018 H1999 0.951 . S
C2018 C2016 1.388 . S
C2018 C2019 1.366 . S
C2019 C2018 1.366 . S
C2019 C2020 1.414 . S
C2019 C2022 1.499 . S
C2020 H2000 0.950 . S
C2020 C2019 1.414 . S
C2020 C2021 1.374 . S
C2021 H2001 0.950 . S
C2021 C2017 1.385 . S
C2021 C2020 1.374 . S
C2022 C2019 1.499 . S
C2022 C2023 1.373 . S
C2022 C2024 1.389 . S
C2023 H2002 0.950 . S
C2023 C2022 1.373 . S
C2023 C2039 1.377 . S
C2024 C2022 1.389 . S
C2024 C2025 1.524 . S
C2024 C2038 1.377 . S
C2025 C2024 1.524 . S
C2025 C2026 1.397 . S
C2025 C2030 1.363 . S
C2026 H2003 0.950 . S
C2026 C2025 1.397 . S
C2026 C2027 1.334 . S
C2027 H2004 0.950 . S
C2027 C2026 1.334 . S
C2027 C2028 1.287 . S
C2028 C2027 1.287 . S
C2028 C2029 1.524 . S
C2028 H2047 0.913 . S
C2029 H2005 0.950 . S
C2029 C2028 1.524 . S
C2029 C2030 1.415 . S
C2030 H2006 0.950 . S
C2030 C2025 1.363 . S
C2030 C2029 1.415 . S
C2031 H2007 0.951 . S
C2031 C2032 1.366 . S
C2031 C2033 1.388 . S
C2032 C2031 1.366 . S
C2032 C2036 1.385 . S
C2033 H2008 0.951 . S
C2033 C2031 1.388 . S
C2033 C2034 1.366 . S
C2034 C2033 1.366 . S
C2034 C2035 1.414 . S
C2034 C2037 1.499 . S
C2035 H2009 0.950 . S
C2035 C2034 1.414 . S
C2035 C2036 1.374 . S
C2036 H2010 0.950 . S
C2036 C2032 1.385 . S
C2036 C2035 1.374 . S
C2037 C2034 1.499 . S
C2037 C2038 1.373 . S
C2037 C2039 1.389 . S
C2038 H2011 0.950 . S
C2038 C2024 1.377 . S
C2038 C2037 1.373 . S
C2039 C2023 1.377 . S
C2039 C2037 1.389 . S
C2039 C2040 1.524 . S
C2040 C2039 1.524 . S
C2040 C2041 1.397 . S
C2040 C2045 1.363 . S
C2041 H2012 0.950 . S
C2041 C2040 1.397 . S
C2041 C2042 1.334 . S
C2042 H2013 0.950 . S
C2042 C2041 1.334 . S
C2042 C2043 1.287 . S
C2043 C2042 1.287 . S
C2043 C2044 1.524 . S
C2043 H2046 0.999 . S
C2044 H2014 0.950 . S
C2044 C2043 1.524 . S
C2044 C2045 1.415 . S
C2045 H2015 0.950 . S
C2045 C2040 1.363 . S
C2045 C2044 1.415 . S
H2046 C2043 0.999 . S
H2047 C2028 0.913 . S
H2048 C2066 0.951 . S
H2049 C2068 0.951 . S
H2050 C2070 0.950 . S
H2051 C2071 0.950 1_545 S
H2052 C2073 0.950 . S
H2053 C2076 0.950 . S
H2054 C2077 0.950 . S
H2055 C2079 0.950 . S
H2056 C2080 0.950 . S
H2057 C2081 0.951 . S
H2058 C2083 0.951 . S
H2059 C2085 0.950 . S
H2060 C2086 0.950 . S
H2061 C2088 0.950 . S
H2062 C2091 0.950 . S
H2063 C2092 0.950 . S
H2064 C2094 0.950 . S
H2065 C2095 0.950 . S
C2066 H2048 0.951 . S
C2066 C2067 1.399 . S
C2066 C2068 1.388 . S
C2067 C2066 1.399 . S
C2067 C2071 1.384 . S
C2068 H2049 0.951 . S
C2068 C2066 1.388 . S
C2068 C2069 1.366 . S
C2069 C2068 1.366 . S
C2069 C2070 1.414 . S
C2069 C2072 1.499 . S
C2070 H2050 0.950 . S
C2070 C2069 1.414 . S
C2070 C2071 1.374 . S
C2071 H2051 0.950 1_565 S
C2071 C2067 1.384 . S
C2071 C2070 1.374 . S
C2072 C2069 1.499 . S
C2072 C2073 1.373 . S
C2072 C2074 1.389 . S
C2073 H2052 0.950 . S
C2073 C2072 1.373 . S
C2073 C2089 1.377 . S
C2074 C2072 1.389 . S
C2074 C2075 1.524 . S
C2074 C2088 1.377 . S
C2075 C2074 1.524 . S
C2075 C2076 1.397 . S
C2075 C2080 1.363 . S
C2076 H2053 0.950 . S
C2076 C2075 1.397 . S
C2076 C2077 1.334 . S
C2077 H2054 0.950 . S
C2077 C2076 1.334 . S
C2077 C2078 1.287 . S
C2078 C2077 1.287 . S
C2078 C2079 1.524 . S
C2078 H2097 0.913 . S
C2079 H2055 0.950 . S
C2079 C2078 1.524 . S
C2079 C2080 1.415 . S
C2080 H2056 0.950 . S
C2080 C2075 1.363 . S
C2080 C2079 1.415 . S
C2081 H2057 0.951 . S
C2081 C2082 1.366 . S
C2081 C2083 1.388 . S
C2082 C2081 1.366 . S
C2082 C2086 1.385 . S
C2083 H2058 0.951 . S
C2083 C2081 1.388 . S
C2083 C2084 1.366 . S
C2084 C2083 1.366 . S
C2084 C2085 1.414 . S
C2084 C2087 1.499 . S
C2085 H2059 0.950 . S
C2085 C2084 1.414 . S
C2085 C2086 1.374 . S
C2086 H2060 0.950 . S
C2086 C2082 1.385 . S
C2086 C2085 1.374 . S
C2087 C2084 1.499 . S
C2087 C2088 1.373 . S
C2087 C2089 1.389 . S
C2088 H2061 0.950 . S
C2088 C2074 1.377 . S
C2088 C2087 1.373 . S
C2089 C2073 1.377 . S
C2089 C2087 1.389 . S
C2089 C2090 1.524 . S
C2090 C2089 1.524 . S
C2090 C2091 1.397 . S
C2090 C2095 1.363 . S
C2091 H2062 0.950 . S
C2091 C2090 1.397 . S
C2091 C2092 1.334 . S
C2092 H2063 0.950 . S
C2092 C2091 1.334 . S
C2092 C2093 1.287 . S
C2093 C2092 1.287 . S
C2093 C2094 1.524 . S
C2093 H2096 0.999 . S
C2094 H2064 0.950 . S
C2094 C2093 1.524 . S
C2094 C2095 1.415 . S
C2095 H2065 0.950 . S
C2095 C2090 1.363 . S
C2095 C2094 1.415 . S
H2096 C2093 0.999 . S
H2097 C2078 0.913 . S
H2098 C2116 0.951 . S
H2099 C2118 0.951 . S
H2100 C2120 0.950 . S
H2101 C2121 0.950 . S
H2102 C2123 0.950 . S
H2103 C2126 0.950 . S
H2104 C2127 0.950 . S
H2105 C2129 0.950 . S
H2106 C2130 0.950 . S
H2107 C2131 0.951 . S
H2108 C2133 0.951 . S
H2109 C2135 0.950 . S
H2110 C2136 0.950 . S
H2111 C2138 0.950 . S
H2112 C2141 0.950 . S
H2113 C2142 0.950 . S
H2114 C2144 0.950 . S
H2115 C2145 0.950 . S
C2116 H2098 0.951 . S
C2116 C2117 1.366 . S
C2116 C2118 1.388 . S
C2117 C2116 1.366 . S
C2117 C2121 1.385 . S
C2118 H2099 0.951 . S
C2118 C2116 1.388 . S
C2118 C2119 1.366 . S
C2119 C2118 1.366 . S
C2119 C2120 1.414 . S
C2119 C2122 1.499 . S
C2120 H2100 0.950 . S
C2120 C2119 1.414 . S
C2120 C2121 1.374 . S
C2121 H2101 0.950 . S
C2121 C2117 1.385 . S
C2121 C2120 1.374 . S
C2122 C2119 1.499 . S
C2122 C2123 1.373 . S
C2122 C2124 1.389 . S
C2123 H2102 0.950 . S
C2123 C2122 1.373 . S
C2123 C2139 1.377 . S
C2124 C2122 1.389 . S
C2124 C2125 1.524 . S
C2124 C2138 1.377 . S
C2125 C2124 1.524 . S
C2125 C2126 1.397 . S
C2125 C2130 1.363 . S
C2126 H2103 0.950 . S
C2126 C2125 1.397 . S
C2126 C2127 1.334 . S
C2127 H2104 0.950 . S
C2127 C2126 1.334 . S
C2127 C2128 1.287 . S
C2128 C2127 1.287 . S
C2128 C2129 1.524 . S
C2128 H2147 0.913 . S
C2129 H2105 0.950 . S
C2129 C2128 1.524 . S
C2129 C2130 1.415 . S
C2130 H2106 0.950 . S
C2130 C2125 1.363 . S
C2130 C2129 1.415 . S
C2131 H2107 0.951 . S
C2131 C2132 1.366 . S
C2131 C2133 1.388 . S
C2132 C2131 1.366 . S
C2132 C2136 1.385 . S
C2133 H2108 0.951 . S
C2133 C2131 1.388 . S
C2133 C2134 1.366 . S
C2134 C2133 1.366 . S
C2134 C2135 1.414 . S
C2134 C2137 1.499 . S
C2135 H2109 0.950 . S
C2135 C2134 1.414 . S
C2135 C2136 1.374 . S
C2136 H2110 0.950 . S
C2136 C2132 1.385 . S
C2136 C2135 1.374 . S
C2137 C2134 1.499 . S
C2137 C2138 1.373 . S
C2137 C2139 1.389 . S
C2138 H2111 0.950 . S
C2138 C2124 1.377 . S
C2138 C2137 1.373 . S
C2139 C2123 1.377 . S
C2139 C2137 1.389 . S
C2139 C2140 1.524 . S
C2140 C2139 1.524 . S
C2140 C2141 1.397 . S
C2140 C2145 1.363 . S
C2141 H2112 0.950 . S
C2141 C2140 1.397 . S
C2141 C2142 1.334 . S
C2142 H2113 0.950 . S
C2142 C2141 1.334 . S
C2142 C2143 1.287 . S
C2143 C2142 1.287 . S
C2143 C2144 1.524 . S
C2143 H2146 0.999 . S
C2144 H2114 0.950 . S
C2144 C2143 1.524 . S
C2144 C2145 1.415 . S
C2145 H2115 0.950 . S
C2145 C2140 1.363 . S
C2145 C2144 1.415 . S
H2146 C2143 0.999 . S
H2147 C2128 0.913 . S
H2148 C2166 0.951 . S
H2149 C2168 0.951 . S
H2150 C2170 0.950 . S
H2151 C2171 0.950 . S
H2152 C2173 0.950 . S
H2153 C2176 0.950 . S
H2154 C2177 0.950 . S
H2155 C2179 0.950 . S
H2156 C2180 0.950 . S
H2157 C2181 0.951 . S
H2158 C2183 0.951 . S
H2159 C2185 0.950 . S
H2160 C2186 0.950 . S
H2161 C2188 0.950 . S
H2162 C2191 0.950 . S
H2163 C2192 0.950 . S
H2164 C2194 0.950 . S
H2165 C2195 0.950 . S
C2166 H2148 0.951 . S
C2166 C2167 1.366 . S
C2166 C2168 1.388 . S
C2167 C2166 1.366 . S
C2167 C2171 1.385 . S
C2168 H2149 0.951 . S
C2168 C2166 1.388 . S
C2168 C2169 1.366 . S
C2169 C2168 1.366 . S
C2169 C2170 1.414 . S
C2169 C2172 1.499 . S
C2170 H2150 0.950 . S
C2170 C2169 1.414 . S
C2170 C2171 1.374 . S
C2171 H2151 0.950 . S
C2171 C2167 1.385 . S
C2171 C2170 1.374 . S
C2172 C2169 1.499 . S
C2172 C2173 1.373 . S
C2172 C2174 1.389 . S
C2173 H2152 0.950 . S
C2173 C2172 1.373 . S
C2173 C2189 1.377 . S
C2174 C2172 1.389 . S
C2174 C2175 1.524 . S
C2174 C2188 1.377 . S
C2175 C2174 1.524 . S
C2175 C2176 1.397 . S
C2175 C2180 1.363 . S
C2176 H2153 0.950 . S
C2176 C2175 1.397 . S
C2176 C2177 1.334 . S
C2177 H2154 0.950 . S
C2177 C2176 1.334 . S
C2177 C2178 1.287 . S
C2178 C2177 1.287 . S
C2178 C2179 1.524 . S
C2178 H2197 0.913 . S
C2179 H2155 0.950 . S
C2179 C2178 1.524 . S
C2179 C2180 1.415 . S
C2180 H2156 0.950 . S
C2180 C2175 1.363 . S
C2180 C2179 1.415 . S
C2181 H2157 0.951 . S
C2181 C2182 1.366 . S
C2181 C2183 1.388 . S
C2182 C2181 1.366 . S
C2182 C2186 1.385 . S
C2183 H2158 0.951 . S
C2183 C2181 1.388 . S
C2183 C2184 1.366 . S
C2184 C2183 1.366 . S
C2184 C2185 1.414 . S
C2184 C2187 1.499 . S
C2185 H2159 0.950 . S
C2185 C2184 1.414 . S
C2185 C2186 1.374 . S
C2186 H2160 0.950 . S
C2186 C2182 1.385 . S
C2186 C2185 1.374 . S
C2187 C2184 1.499 . S
C2187 C2188 1.373 . S
C2187 C2189 1.389 . S
C2188 H2161 0.950 . S
C2188 C2174 1.377 . S
C2188 C2187 1.373 . S
C2189 C2173 1.377 . S
C2189 C2187 1.389 . S
C2189 C2190 1.524 . S
C2190 C2189 1.524 . S
C2190 C2191 1.397 . S
C2190 C2195 1.363 . S
C2191 H2162 0.950 . S
C2191 C2190 1.397 . S
C2191 C2192 1.334 . S
C2192 H2163 0.950 . S
C2192 C2191 1.334 . S
C2192 C2193 1.287 . S
C2193 C2192 1.287 . S
C2193 C2194 1.524 . S
C2193 H2196 0.999 . S
C2194 H2164 0.950 . S
C2194 C2193 1.524 . S
C2194 C2195 1.415 . S
C2195 H2165 0.950 . S
C2195 C2190 1.363 . S
C2195 C2194 1.415 . S
H2196 C2193 0.999 . S
H2197 C2178 0.913 . S
H2198 C2216 0.951 . S
H2199 C2218 0.951 . S
H2200 C2220 0.950 . S
H2201 C2221 0.950 . S
H2202 C2223 0.950 . S
H2203 C2226 0.950 . S
H2204 C2227 0.950 . S
H2205 C2229 0.950 . S
H2206 C2230 0.950 . S
H2207 C2231 0.951 . S
H2208 C2233 0.951 . S
H2209 C2235 0.950 . S
H2210 C2236 0.950 . S
H2211 C2238 0.950 . S
H2212 C2241 0.950 . S
H2213 C2242 0.950 . S
H2214 C2244 0.950 . S
H2215 C2245 0.950 . S
C2216 H2198 0.951 . S
C2216 C2217 1.366 . S
C2216 C2218 1.388 . S
C2217 C2216 1.366 . S
C2217 C2221 1.385 . S
C2218 H2199 0.951 . S
C2218 C2216 1.388 . S
C2218 C2219 1.366 . S
C2219 C2218 1.366 . S
C2219 C2220 1.414 . S
C2219 C2222 1.499 . S
C2220 H2200 0.950 . S
C2220 C2219 1.414 . S
C2220 C2221 1.374 . S
C2221 H2201 0.950 . S
C2221 C2217 1.385 . S
C2221 C2220 1.374 . S
C2222 C2219 1.499 . S
C2222 C2223 1.373 . S
C2222 C2224 1.389 . S
C2223 H2202 0.950 . S
C2223 C2222 1.373 . S
C2223 C2239 1.377 . S
C2224 C2222 1.389 . S
C2224 C2225 1.524 . S
C2224 C2238 1.377 . S
C2225 C2224 1.524 . S
C2225 C2226 1.397 . S
C2225 C2230 1.363 . S
C2226 H2203 0.950 . S
C2226 C2225 1.397 . S
C2226 C2227 1.334 . S
C2227 H2204 0.950 . S
C2227 C2226 1.334 . S
C2227 C2228 1.287 . S
C2228 C2227 1.287 . S
C2228 C2229 1.524 . S
C2228 H2247 0.913 . S
C2229 H2205 0.950 . S
C2229 C2228 1.524 . S
C2229 C2230 1.415 . S
C2230 H2206 0.950 . S
C2230 C2225 1.363 . S
C2230 C2229 1.415 . S
C2231 H2207 0.951 . S
C2231 C2232 1.366 . S
C2231 C2233 1.388 . S
C2232 C2231 1.366 . S
C2232 C2236 1.385 . S
C2233 H2208 0.951 . S
C2233 C2231 1.388 . S
C2233 C2234 1.366 . S
C2234 C2233 1.366 . S
C2234 C2235 1.414 . S
C2234 C2237 1.499 . S
C2235 H2209 0.950 . S
C2235 C2234 1.414 . S
C2235 C2236 1.374 . S
C2236 H2210 0.950 . S
C2236 C2232 1.385 . S
C2236 C2235 1.374 . S
C2237 C2234 1.499 . S
C2237 C2238 1.373 . S
C2237 C2239 1.389 . S
C2238 H2211 0.950 . S
C2238 C2224 1.377 . S
C2238 C2237 1.373 . S
C2239 C2223 1.377 . S
C2239 C2237 1.389 . S
C2239 C2240 1.524 . S
C2240 C2239 1.524 . S
C2240 C2241 1.397 . S
C2240 C2245 1.363 . S
C2241 H2212 0.950 . S
C2241 C2240 1.397 . S
C2241 C2242 1.334 . S
C2242 H2213 0.950 . S
C2242 C2241 1.334 . S
C2242 C2243 1.287 . S
C2243 C2242 1.287 . S
C2243 C2244 1.524 . S
C2243 H2246 0.999 . S
C2244 H2214 0.950 . S
C2244 C2243 1.524 . S
C2244 C2245 1.415 . S
C2245 H2215 0.950 . S
C2245 C2240 1.363 . S
C2245 C2244 1.415 . S
H2246 C2243 0.999 . S
H2247 C2228 0.913 . S
H2248 C2266 0.951 . S
H2249 C2268 0.951 . S
H2250 C2270 0.950 . S
H2251 C2271 0.950 . S
H2252 C2273 0.950 . S
H2253 C2276 0.950 . S
H2254 C2277 0.950 . S
H2255 C2279 0.950 . S
H2256 C2280 0.950 . S
H2257 C2281 0.951 . S
H2258 C2283 0.951 . S
H2259 C2285 0.950 . S
H2260 C2286 0.950 . S
H2261 C2288 0.950 . S
H2262 C2291 0.950 . S
H2263 C2292 0.950 . S
H2264 C2294 0.950 . S
H2265 C2295 0.950 . S
C2266 H2248 0.951 . S
C2266 C2267 1.366 . S
C2266 C2268 1.388 . S
C2267 C2266 1.366 . S
C2267 C2271 1.385 . S
C2268 H2249 0.951 . S
C2268 C2266 1.388 . S
C2268 C2269 1.366 . S
C2269 C2268 1.366 . S
C2269 C2270 1.414 . S
C2269 C2272 1.499 . S
C2270 H2250 0.950 . S
C2270 C2269 1.414 . S
C2270 C2271 1.374 . S
C2271 H2251 0.950 . S
C2271 C2267 1.385 . S
C2271 C2270 1.374 . S
C2272 C2269 1.499 . S
C2272 C2273 1.373 . S
C2272 C2274 1.389 . S
C2273 H2252 0.950 . S
C2273 C2272 1.373 . S
C2273 C2289 1.377 . S
C2274 C2272 1.389 . S
C2274 C2275 1.524 . S
C2274 C2288 1.377 . S
C2275 C2274 1.524 . S
C2275 C2276 1.397 . S
C2275 C2280 1.363 . S
C2276 H2253 0.950 . S
C2276 C2275 1.397 . S
C2276 C2277 1.334 . S
C2277 H2254 0.950 . S
C2277 C2276 1.334 . S
C2277 C2278 1.287 . S
C2278 C2277 1.287 . S
C2278 C2279 1.524 . S
C2278 H2297 0.913 . S
C2279 H2255 0.950 . S
C2279 C2278 1.524 . S
C2279 C2280 1.415 . S
C2280 H2256 0.950 . S
C2280 C2275 1.363 . S
C2280 C2279 1.415 . S
C2281 H2257 0.951 . S
C2281 C2282 1.366 . S
C2281 C2283 1.388 . S
C2282 C2281 1.366 . S
C2282 C2286 1.385 . S
C2283 H2258 0.951 . S
C2283 C2281 1.388 . S
C2283 C2284 1.366 . S
C2284 C2283 1.366 . S
C2284 C2285 1.414 . S
C2284 C2287 1.499 . S
C2285 H2259 0.950 . S
C2285 C2284 1.414 . S
C2285 C2286 1.374 . S
C2286 H2260 0.950 . S
C2286 C2282 1.385 . S
C2286 C2285 1.374 . S
C2287 C2284 1.499 . S
C2287 C2288 1.373 . S
C2287 C2289 1.389 . S
C2288 H2261 0.950 . S
C2288 C2274 1.377 . S
C2288 C2287 1.373 . S
C2289 C2273 1.377 . S
C2289 C2287 1.389 . S
C2289 C2290 1.524 . S
C2290 C2289 1.524 . S
C2290 C2291 1.397 . S
C2290 C2295 1.363 . S
C2291 H2262 0.950 . S
C2291 C2290 1.397 . S
C2291 C2292 1.334 . S
C2292 H2263 0.950 . S
C2292 C2291 1.334 . S
C2292 C2293 1.287 . S
C2293 C2292 1.287 . S
C2293 C2294 1.524 . S
C2293 H2296 0.999 . S
C2294 H2264 0.950 . S
C2294 C2293 1.524 . S
C2294 C2295 1.415 . S
C2295 H2265 0.950 . S
C2295 C2290 1.363 . S
C2295 C2294 1.415 . S
H2296 C2293 0.999 . S
H2297 C2278 0.913 . S
H2298 C2316 0.951 . S
H2299 C2318 0.951 . S
H2300 C2320 0.950 . S
H2301 C2321 0.950 . S
H2302 C2323 0.950 . S
H2303 C2326 0.950 . S
H2304 C2327 0.950 . S
H2305 C2329 0.950 . S
H2306 C2330 0.950 . S
H2307 C2331 0.951 . S
H2308 C2333 0.951 . S
H2309 C2335 0.950 . S
H2310 C2336 0.950 . S
H2311 C2338 0.950 . S
H2312 C2341 0.950 . S
H2313 C2342 0.950 . S
H2314 C2344 0.950 . S
H2315 C2345 0.950 . S
C2316 H2298 0.951 . S
C2316 C2317 1.366 . S
C2316 C2318 1.388 . S
C2317 C2316 1.366 . S
C2317 C2321 1.385 . S
C2318 H2299 0.951 . S
C2318 C2316 1.388 . S
C2318 C2319 1.366 . S
C2319 C2318 1.366 . S
C2319 C2320 1.414 . S
C2319 C2322 1.499 . S
C2320 H2300 0.950 . S
C2320 C2319 1.414 . S
C2320 C2321 1.374 . S
C2321 H2301 0.950 . S
C2321 C2317 1.385 . S
C2321 C2320 1.374 . S
C2322 C2319 1.499 . S
C2322 C2323 1.373 . S
C2322 C2324 1.389 . S
C2323 H2302 0.950 . S
C2323 C2322 1.373 . S
C2323 C2339 1.377 . S
C2324 C2322 1.389 . S
C2324 C2325 1.524 . S
C2324 C2338 1.377 . S
C2325 C2324 1.524 . S
C2325 C2326 1.397 . S
C2325 C2330 1.363 . S
C2326 H2303 0.950 . S
C2326 C2325 1.397 . S
C2326 C2327 1.334 . S
C2327 H2304 0.950 . S
C2327 C2326 1.334 . S
C2327 C2328 1.287 . S
C2328 C2327 1.287 . S
C2328 C2329 1.524 . S
C2328 H2347 0.913 . S
C2329 H2305 0.950 . S
C2329 C2328 1.524 . S
C2329 C2330 1.415 . S
C2330 H2306 0.950 . S
C2330 C2325 1.363 . S
C2330 C2329 1.415 . S
C2331 H2307 0.951 . S
C2331 C2332 1.366 . S
C2331 C2333 1.388 . S
C2332 C2331 1.366 . S
C2332 C2336 1.385 . S
C2333 H2308 0.951 . S
C2333 C2331 1.388 . S
C2333 C2334 1.366 . S
C2334 C2333 1.366 . S
C2334 C2335 1.414 . S
C2334 C2337 1.499 . S
C2335 H2309 0.950 . S
C2335 C2334 1.414 . S
C2335 C2336 1.374 . S
C2336 H2310 0.950 . S
C2336 C2332 1.385 . S
C2336 C2335 1.374 . S
C2337 C2334 1.499 . S
C2337 C2338 1.373 . S
C2337 C2339 1.389 . S
C2338 H2311 0.950 . S
C2338 C2324 1.377 . S
C2338 C2337 1.373 . S
C2339 C2323 1.377 . S
C2339 C2337 1.389 . S
C2339 C2340 1.524 . S
C2340 C2339 1.524 . S
C2340 C2341 1.397 . S
C2340 C2345 1.363 . S
C2341 H2312 0.950 . S
C2341 C2340 1.397 . S
C2341 C2342 1.334 . S
C2342 H2313 0.950 . S
C2342 C2341 1.334 . S
C2342 C2343 1.287 . S
C2343 C2342 1.287 . S
C2343 C2344 1.524 . S
C2343 H2346 0.999 . S
C2344 H2314 0.950 . S
C2344 C2343 1.524 . S
C2344 C2345 1.415 . S
C2345 H2315 0.950 . S
C2345 C2340 1.363 . S
C2345 C2344 1.415 . S
H2346 C2343 0.999 . S
H2347 C2328 0.913 . S
H2348 C2366 0.951 . S
H2349 C2368 0.951 . S
H2350 C2370 0.950 . S
H2351 C2371 0.950 . S
H2352 C2373 0.950 . S
H2353 C2376 0.950 . S
H2354 C2377 0.950 . S
H2355 C2379 0.950 . S
H2356 C2380 0.950 . S
H2357 C2381 0.951 . S
H2358 C2383 0.951 . S
H2359 C2385 0.950 . S
H2360 C2386 0.950 . S
H2361 C2388 0.950 . S
H2362 C2391 0.950 . S
H2363 C2392 0.950 . S
H2364 C2394 0.950 . S
H2365 C2395 0.950 . S
C2366 H2348 0.951 . S
C2366 C2367 1.366 . S
C2366 C2368 1.388 . S
C2367 C2366 1.366 . S
C2367 C2371 1.385 . S
C2368 H2349 0.951 . S
C2368 C2366 1.388 . S
C2368 C2369 1.366 . S
C2369 C2368 1.366 . S
C2369 C2370 1.414 . S
C2369 C2372 1.499 . S
C2370 H2350 0.950 . S
C2370 C2369 1.414 . S
C2370 C2371 1.374 . S
C2371 H2351 0.950 . S
C2371 C2367 1.385 . S
C2371 C2370 1.374 . S
C2372 C2369 1.499 . S
C2372 C2373 1.373 . S
C2372 C2374 1.389 . S
C2373 H2352 0.950 . S
C2373 C2372 1.373 . S
C2373 C2389 1.377 . S
C2374 C2372 1.389 . S
C2374 C2375 1.524 . S
C2374 C2388 1.377 . S
C2375 C2374 1.524 . S
C2375 C2376 1.397 . S
C2375 C2380 1.363 . S
C2376 H2353 0.950 . S
C2376 C2375 1.397 . S
C2376 C2377 1.334 . S
C2377 H2354 0.950 . S
C2377 C2376 1.334 . S
C2377 C2378 1.287 . S
C2378 C2377 1.287 . S
C2378 C2379 1.524 . S
C2378 H2397 0.913 . S
C2379 H2355 0.950 . S
C2379 C2378 1.524 . S
C2379 C2380 1.415 . S
C2380 H2356 0.950 . S
C2380 C2375 1.363 . S
C2380 C2379 1.415 . S
C2381 H2357 0.951 . S
C2381 C2382 1.366 . S
C2381 C2383 1.388 . S
C2382 C2381 1.366 . S
C2382 C2386 1.385 . S
C2383 H2358 0.951 . S
C2383 C2381 1.388 . S
C2383 C2384 1.366 . S
C2384 C2383 1.366 . S
C2384 C2385 1.414 . S
C2384 C2387 1.499 . S
C2385 H2359 0.950 . S
C2385 C2384 1.414 . S
C2385 C2386 1.374 . S
C2386 H2360 0.950 . S
C2386 C2382 1.385 . S
C2386 C2385 1.374 . S
C2387 C2384 1.499 . S
C2387 C2388 1.373 . S
C2387 C2389 1.389 . S
C2388 H2361 0.950 . S
C2388 C2374 1.377 . S
C2388 C2387 1.373 . S
C2389 C2373 1.377 . S
C2389 C2387 1.389 . S
C2389 C2390 1.524 . S
C2390 C2389 1.524 . S
C2390 C2391 1.397 . S
C2390 C2395 1.363 . S
C2391 H2362 0.950 . S
C2391 C2390 1.397 . S
C2391 C2392 1.334 . S
C2392 H2363 0.950 . S
C2392 C2391 1.334 . S
C2392 C2393 1.287 . S
C2393 C2392 1.287 . S
C2393 C2394 1.524 . S
C2393 H2396 0.999 . S
C2394 H2364 0.950 . S
C2394 C2393 1.524 . S
C2394 C2395 1.415 . S
C2395 H2365 0.950 . S
C2395 C2390 1.363 . S
C2395 C2394 1.415 . S
H2396 C2393 0.999 . S
H2397 C2378 0.913 . S
H2398 C2416 0.951 . S
H2399 C2418 0.951 . S
H2400 C2420 0.950 . S
H2401 C2421 0.950 . S
H2402 C2423 0.950 . S
H2403 C2426 0.950 . S
H2404 C2427 0.950 . S
H2405 C2429 0.950 . S
H2406 C2430 0.950 . S
H2407 C2431 0.951 . S
H2408 C2433 0.951 . S
H2409 C2435 0.950 . S
H2410 C2436 0.950 . S
H2411 C2438 0.950 . S
H2412 C2441 0.950 . S
H2413 C2442 0.950 . S
H2414 C2444 0.950 . S
H2415 C2445 0.950 . S
C2416 H2398 0.951 . S
C2416 C2417 1.366 . S
C2416 C2418 1.388 . S
C2417 C2416 1.366 . S
C2417 C2421 1.385 . S
C2418 H2399 0.951 . S
C2418 C2416 1.388 . S
C2418 C2419 1.366 . S
C2419 C2418 1.366 . S
C2419 C2420 1.414 . S
C2419 C2422 1.499 . S
C2420 H2400 0.950 . S
C2420 C2419 1.414 . S
C2420 C2421 1.374 . S
C2421 H2401 0.950 . S
C2421 C2417 1.385 . S
C2421 C2420 1.374 . S
C2422 C2419 1.499 . S
C2422 C2423 1.373 . S
C2422 C2424 1.389 . S
C2423 H2402 0.950 . S
C2423 C2422 1.373 . S
C2423 C2439 1.377 . S
C2424 C2422 1.389 . S
C2424 C2425 1.524 . S
C2424 C2438 1.377 . S
C2425 C2424 1.524 . S
C2425 C2426 1.397 . S
C2425 C2430 1.363 . S
C2426 H2403 0.950 . S
C2426 C2425 1.397 . S
C2426 C2427 1.334 . S
C2427 H2404 0.950 . S
C2427 C2426 1.334 . S
C2427 C2428 1.287 . S
C2428 C2427 1.287 . S
C2428 C2429 1.524 . S
C2428 H2447 0.913 . S
C2429 H2405 0.950 . S
C2429 C2428 1.524 . S
C2429 C2430 1.415 . S
C2430 H2406 0.950 . S
C2430 C2425 1.363 . S
C2430 C2429 1.415 . S
C2431 H2407 0.951 . S
C2431 C2432 1.366 . S
C2431 C2433 1.388 . S
C2432 C2431 1.366 . S
C2432 C2436 1.385 . S
C2433 H2408 0.951 . S
C2433 C2431 1.388 . S
C2433 C2434 1.366 . S
C2434 C2433 1.366 . S
C2434 C2435 1.414 . S
C2434 C2437 1.499 . S
C2435 H2409 0.950 . S
C2435 C2434 1.414 . S
C2435 C2436 1.374 . S
C2436 H2410 0.950 . S
C2436 C2432 1.385 . S
C2436 C2435 1.374 . S
C2437 C2434 1.499 . S
C2437 C2438 1.373 . S
C2437 C2439 1.389 . S
C2438 H2411 0.950 . S
C2438 C2424 1.377 . S
C2438 C2437 1.373 . S
C2439 C2423 1.377 . S
C2439 C2437 1.389 . S
C2439 C2440 1.524 . S
C2440 C2439 1.524 . S
C2440 C2441 1.397 . S
C2440 C2445 1.363 . S
C2441 H2412 0.950 . S
C2441 C2440 1.397 . S
C2441 C2442 1.334 . S
C2442 H2413 0.950 . S
C2442 C2441 1.334 . S
C2442 C2443 1.287 . S
C2443 C2442 1.287 . S
C2443 C2444 1.524 . S
C2443 H2446 0.999 . S
C2444 H2414 0.950 . S
C2444 C2443 1.524 . S
C2444 C2445 1.415 . S
C2445 H2415 0.950 . S
C2445 C2440 1.363 . S
C2445 C2444 1.415 . S
H2446 C2443 0.999 . S
H2447 C2428 0.913 . S
H2448 C2466 0.951 . S
H2449 C2468 0.951 . S
H2450 C2470 0.950 . S
H2451 C2471 0.950 . S
H2452 C2473 0.950 . S
H2453 C2476 0.950 . S
H2454 C2477 0.950 . S
H2455 C2479 0.950 . S
H2456 C2480 0.950 . S
H2457 C2481 0.951 . S
H2458 C2483 0.951 . S
H2459 C2485 0.950 . S
H2460 C2486 0.950 . S
H2461 C2488 0.950 . S
H2462 C2491 0.950 . S
H2463 C2492 0.950 . S
H2464 C2494 0.950 . S
H2465 C2495 0.950 . S
C2466 H2448 0.951 . S
C2466 C2467 1.366 . S
C2466 C2468 1.388 . S
C2467 C2466 1.366 . S
C2467 C2471 1.385 . S
C2468 H2449 0.951 . S
C2468 C2466 1.388 . S
C2468 C2469 1.366 . S
C2469 C2468 1.366 . S
C2469 C2470 1.414 . S
C2469 C2472 1.499 . S
C2470 H2450 0.950 . S
C2470 C2469 1.414 . S
C2470 C2471 1.374 . S
C2471 H2451 0.950 . S
C2471 C2467 1.385 . S
C2471 C2470 1.374 . S
C2472 C2469 1.499 . S
C2472 C2473 1.373 . S
C2472 C2474 1.389 . S
C2473 H2452 0.950 . S
C2473 C2472 1.373 . S
C2473 C2489 1.377 . S
C2474 C2472 1.389 . S
C2474 C2475 1.524 . S
C2474 C2488 1.377 . S
C2475 C2474 1.524 . S
C2475 C2476 1.397 . S
C2475 C2480 1.363 . S
C2476 H2453 0.950 . S
C2476 C2475 1.397 . S
C2476 C2477 1.334 . S
C2477 H2454 0.950 . S
C2477 C2476 1.334 . S
C2477 C2478 1.287 . S
C2478 C2477 1.287 . S
C2478 C2479 1.524 . S
C2478 H2497 0.913 . S
C2479 H2455 0.950 . S
C2479 C2478 1.524 . S
C2479 C2480 1.415 . S
C2480 H2456 0.950 . S
C2480 C2475 1.363 . S
C2480 C2479 1.415 . S
C2481 H2457 0.951 . S
C2481 C2482 1.366 . S
C2481 C2483 1.388 . S
C2482 C2481 1.366 . S
C2482 C2486 1.385 . S
C2483 H2458 0.951 . S
C2483 C2481 1.388 . S
C2483 C2484 1.366 . S
C2484 C2483 1.366 . S
C2484 C2485 1.414 . S
C2484 C2487 1.499 . S
C2485 H2459 0.950 . S
C2485 C2484 1.414 . S
C2485 C2486 1.374 . S
C2486 H2460 0.950 . S
C2486 C2482 1.385 . S
C2486 C2485 1.374 . S
C2487 C2484 1.499 . S
C2487 C2488 1.373 . S
C2487 C2489 1.389 . S
C2488 H2461 0.950 . S
C2488 C2474 1.377 . S
C2488 C2487 1.373 . S
C2489 C2473 1.377 . S
C2489 C2487 1.389 . S
C2489 C2490 1.524 . S
C2490 C2489 1.524 . S
C2490 C2491 1.397 . S
C2490 C2495 1.363 . S
C2491 H2462 0.950 . S
C2491 C2490 1.397 . S
C2491 C2492 1.334 . S
C2492 H2463 0.950 . S
C2492 C2491 1.334 . S
C2492 C2493 1.287 . S
C2493 C2492 1.287 . S
C2493 C2494 1.524 . S
C2493 H2496 0.999 . S
C2494 H2464 0.950 . S
C2494 C2493 1.524 . S
C2494 C2495 1.415 . S
C2495 H2465 0.950 . S
C2495 C2490 1.363 . S
C2495 C2494 1.415 . S
H2496 C2493 0.999 . S
H2497 C2478 0.913 . S
H2498 C2516 0.951 . S
H2499 C2518 0.951 . S
H2500 C2520 0.950 . S
H2501 C2521 0.950 . S
H2502 C2523 0.950 . S
H2503 C2526 0.950 . S
H2504 C2527 0.950 . S
H2505 C2529 0.950 . S
H2506 C2530 0.950 . S
H2507 C2531 0.951 . S
H2508 C2533 0.951 . S
H2509 C2535 0.950 . S
H2510 C2536 0.950 . S
H2511 C2538 0.950 . S
H2512 C2541 0.950 . S
H2513 C2542 0.950 . S
H2514 C2544 0.950 . S
H2515 C2545 0.950 . S
C2516 H2498 0.951 . S
C2516 C2517 1.366 . S
C2516 C2518 1.388 . S
C2517 C2516 1.366 . S
C2517 C2521 1.385 . S
C2518 H2499 0.951 . S
C2518 C2516 1.388 . S
C2518 C2519 1.366 . S
C2519 C2518 1.366 . S
C2519 C2520 1.414 . S
C2519 C2522 1.499 . S
C2520 H2500 0.950 . S
C2520 C2519 1.414 . S
C2520 C2521 1.374 . S
C2521 H2501 0.950 . S
C2521 C2517 1.385 . S
C2521 C2520 1.374 . S
C2522 C2519 1.499 . S
C2522 C2523 1.373 . S
C2522 C2524 1.389 . S
C2523 H2502 0.950 . S
C2523 C2522 1.373 . S
C2523 C2539 1.377 . S
C2524 C2522 1.389 . S
C2524 C2525 1.524 . S
C2524 C2538 1.377 . S
C2525 C2524 1.524 . S
C2525 C2526 1.397 . S
C2525 C2530 1.363 . S
C2526 H2503 0.950 . S
C2526 C2525 1.397 . S
C2526 C2527 1.334 . S
C2527 H2504 0.950 . S
C2527 C2526 1.334 . S
C2527 C2528 1.287 . S
C2528 C2527 1.287 . S
C2528 C2529 1.524 . S
C2528 H2547 0.913 . S
C2529 H2505 0.950 . S
C2529 C2528 1.524 . S
C2529 C2530 1.415 . S
C2530 H2506 0.950 . S
C2530 C2525 1.363 . S
C2530 C2529 1.415 . S
C2531 H2507 0.951 . S
C2531 C2532 1.366 . S
C2531 C2533 1.388 . S
C2532 C2531 1.366 . S
C2532 C2536 1.385 . S
C2533 H2508 0.951 . S
C2533 C2531 1.388 . S
C2533 C2534 1.366 . S
C2534 C2533 1.366 . S
C2534 C2535 1.414 . S
C2534 C2537 1.499 . S
C2535 H2509 0.950 . S
C2535 C2534 1.414 . S
C2535 C2536 1.374 . S
C2536 H2510 0.950 . S
C2536 C2532 1.385 . S
C2536 C2535 1.374 . S
C2537 C2534 1.499 . S
C2537 C2538 1.373 . S
C2537 C2539 1.389 . S
C2538 H2511 0.950 . S
C2538 C2524 1.377 . S
C2538 C2537 1.373 . S
C2539 C2523 1.377 . S
C2539 C2537 1.389 . S
C2539 C2540 1.524 . S
C2540 C2539 1.524 . S
C2540 C2541 1.397 . S
C2540 C2545 1.363 . S
C2541 H2512 0.950 . S
C2541 C2540 1.397 . S
C2541 C2542 1.334 . S
C2542 H2513 0.950 . S
C2542 C2541 1.334 . S
C2542 C2543 1.287 . S
C2543 C2542 1.287 . S
C2543 C2544 1.524 . S
C2543 H2546 0.999 . S
C2544 H2514 0.950 . S
C2544 C2543 1.524 . S
C2544 C2545 1.415 . S
C2545 H2515 0.950 . S
C2545 C2540 1.363 . S
C2545 C2544 1.415 . S
H2546 C2543 0.999 . S
H2547 C2528 0.913 . S
H2548 C2566 0.951 . S
H2549 C2568 0.951 . S
H2550 C2570 0.950 . S
H2551 C2571 0.950 . S
H2552 C2573 0.950 . S
H2553 C2576 0.950 . S
H2554 C2577 0.950 . S
H2555 C2579 0.950 . S
H2556 C2580 0.950 . S
H2557 C2581 0.951 . S
H2558 C2583 0.951 . S
H2559 C2585 0.950 . S
H2560 C2586 0.950 . S
H2561 C2588 0.950 . S
H2562 C2591 0.950 . S
H2563 C2592 0.950 . S
H2564 C2594 0.950 . S
H2565 C2595 0.950 . S
C2566 H2548 0.951 . S
C2566 C2567 1.366 . S
C2566 C2568 1.388 . S
C2567 C2566 1.366 . S
C2567 C2571 1.385 . S
C2568 H2549 0.951 . S
C2568 C2566 1.388 . S
C2568 C2569 1.366 . S
C2569 C2568 1.366 . S
C2569 C2570 1.414 . S
C2569 C2572 1.499 . S
C2570 H2550 0.950 . S
C2570 C2569 1.414 . S
C2570 C2571 1.374 . S
C2571 H2551 0.950 . S
C2571 C2567 1.385 . S
C2571 C2570 1.374 . S
C2572 C2569 1.499 . S
C2572 C2573 1.373 . S
C2572 C2574 1.389 . S
C2573 H2552 0.950 . S
C2573 C2572 1.373 . S
C2573 C2589 1.377 . S
C2574 C2572 1.389 . S
C2574 C2575 1.524 . S
C2574 C2588 1.377 . S
C2575 C2574 1.524 . S
C2575 C2576 1.397 . S
C2575 C2580 1.363 . S
C2576 H2553 0.950 . S
C2576 C2575 1.397 . S
C2576 C2577 1.334 . S
C2577 H2554 0.950 . S
C2577 C2576 1.334 . S
C2577 C2578 1.287 . S
C2578 C2577 1.287 . S
C2578 C2579 1.524 . S
C2578 H2597 0.913 . S
C2579 H2555 0.950 . S
C2579 C2578 1.524 . S
C2579 C2580 1.415 . S
C2580 H2556 0.950 . S
C2580 C2575 1.363 . S
C2580 C2579 1.415 . S
C2581 H2557 0.951 . S
C2581 C2582 1.366 . S
C2581 C2583 1.388 . S
C2582 C2581 1.366 . S
C2582 C2586 1.385 . S
C2583 H2558 0.951 . S
C2583 C2581 1.388 . S
C2583 C2584 1.366 . S
C2584 C2583 1.366 . S
C2584 C2585 1.414 . S
C2584 C2587 1.499 . S
C2585 H2559 0.950 . S
C2585 C2584 1.414 . S
C2585 C2586 1.374 . S
C2586 H2560 0.950 . S
C2586 C2582 1.385 . S
C2586 C2585 1.374 . S
C2587 C2584 1.499 . S
C2587 C2588 1.373 . S
C2587 C2589 1.389 . S
C2588 H2561 0.950 . S
C2588 C2574 1.377 . S
C2588 C2587 1.373 . S
C2589 C2573 1.377 . S
C2589 C2587 1.389 . S
C2589 C2590 1.524 . S
C2590 C2589 1.524 . S
C2590 C2591 1.397 . S
C2590 C2595 1.363 . S
C2591 H2562 0.950 . S
C2591 C2590 1.397 . S
C2591 C2592 1.334 . S
C2592 H2563 0.950 . S
C2592 C2591 1.334 . S
C2592 C2593 1.287 . S
C2593 C2592 1.287 . S
C2593 C2594 1.524 . S
C2593 H2596 0.999 . S
C2594 H2564 0.950 . S
C2594 C2593 1.524 . S
C2594 C2595 1.415 . S
C2595 H2565 0.950 . S
C2595 C2590 1.363 . S
C2595 C2594 1.415 . S
H2596 C2593 0.999 . S
H2597 C2578 0.913 . S
H2598 C2616 0.951 . S
H2599 C2618 0.951 . S
H2600 C2620 0.950 . S
H2601 C2621 0.950 . S
H2602 C2623 0.950 . S
H2603 C2626 0.950 . S
H2604 C2627 0.950 . S
H2605 C2629 0.950 . S
H2606 C2630 0.950 . S
H2607 C2631 0.951 . S
H2608 C2633 0.951 . S
H2609 C2635 0.950 . S
H2610 C2636 0.950 . S
H2611 C2638 0.950 . S
H2612 C2641 0.950 . S
H2613 C2642 0.950 . S
H2614 C2644 0.950 . S
H2615 C2645 0.950 . S
C2616 H2598 0.951 . S
C2616 C2617 1.366 . S
C2616 C2618 1.388 . S
C2617 C2616 1.366 . S
C2617 C2621 1.385 . S
C2618 H2599 0.951 . S
C2618 C2616 1.388 . S
C2618 C2619 1.366 . S
C2619 C2618 1.366 . S
C2619 C2620 1.414 . S
C2619 C2622 1.499 . S
C2620 H2600 0.950 . S
C2620 C2619 1.414 . S
C2620 C2621 1.374 . S
C2621 H2601 0.950 . S
C2621 C2617 1.385 . S
C2621 C2620 1.374 . S
C2622 C2619 1.499 . S
C2622 C2623 1.373 . S
C2622 C2624 1.389 . S
C2623 H2602 0.950 . S
C2623 C2622 1.373 . S
C2623 C2639 1.377 . S
C2624 C2622 1.389 . S
C2624 C2625 1.524 . S
C2624 C2638 1.377 . S
C2625 C2624 1.524 . S
C2625 C2626 1.397 . S
C2625 C2630 1.363 . S
C2626 H2603 0.950 . S
C2626 C2625 1.397 . S
C2626 C2627 1.334 . S
C2627 H2604 0.950 . S
C2627 C2626 1.334 . S
C2627 C2628 1.287 . S
C2628 C2627 1.287 . S
C2628 C2629 1.524 . S
C2628 H2647 0.913 . S
C2629 H2605 0.950 . S
C2629 C2628 1.524 . S
C2629 C2630 1.415 . S
C2630 H2606 0.950 . S
C2630 C2625 1.363 . S
C2630 C2629 1.415 . S
C2631 H2607 0.951 . S
C2631 C2632 1.366 . S
C2631 C2633 1.388 . S
C2632 C2631 1.366 . S
C2632 C2636 1.385 . S
C2633 H2608 0.951 . S
C2633 C2631 1.388 . S
C2633 C2634 1.366 . S
C2634 C2633 1.366 . S
C2634 C2635 1.414 . S
C2634 C2637 1.499 . S
C2635 H2609 0.950 . S
C2635 C2634 1.414 . S
C2635 C2636 1.374 . S
C2636 H2610 0.950 . S
C2636 C2632 1.385 . S
C2636 C2635 1.374 . S
C2637 C2634 1.499 . S
C2637 C2638 1.373 . S
C2637 C2639 1.389 . S
C2638 H2611 0.950 . S
C2638 C2624 1.377 . S
C2638 C2637 1.373 . S
C2639 C2623 1.377 . S
C2639 C2637 1.389 . S
C2639 C2640 1.524 . S
C2640 C2639 1.524 . S
C2640 C2641 1.397 . S
C2640 C2645 1.363 . S
C2641 H2612 0.950 . S
C2641 C2640 1.397 . S
C2641 C2642 1.334 . S
C2642 H2613 0.950 . S
C2642 C2641 1.334 . S
C2642 C2643 1.287 . S
C2643 C2642 1.287 . S
C2643 C2644 1.524 . S
C2643 H2646 0.999 . S
C2644 H2614 0.950 . S
C2644 C2643 1.524 . S
C2644 C2645 1.415 . S
C2645 H2615 0.950 . S
C2645 C2640 1.363 . S
C2645 C2644 1.415 . S
H2646 C2643 0.999 . S
H2647 C2628 0.913 . S
H2648 C2666 0.951 . S
H2649 C2668 0.951 . S
H2650 C2670 0.950 . S
H2651 C2671 0.950 . S
H2652 C2673 0.950 . S
H2653 C2676 0.950 . S
H2654 C2677 0.950 . S
H2655 C2679 0.950 . S
H2656 C2680 0.950 . S
H2657 C2681 0.951 . S
H2658 C2683 0.951 . S
H2659 C2685 0.950 . S
H2660 C2686 0.950 . S
H2661 C2688 0.950 . S
H2662 C2691 0.950 . S
H2663 C2692 0.950 . S
H2664 C2694 0.950 . S
H2665 C2695 0.950 . S
C2666 H2648 0.951 . S
C2666 C2667 1.366 . S
C2666 C2668 1.388 . S
C2667 C2666 1.366 . S
C2667 C2671 1.385 . S
C2668 H2649 0.951 . S
C2668 C2666 1.388 . S
C2668 C2669 1.366 . S
C2669 C2668 1.366 . S
C2669 C2670 1.414 . S
C2669 C2672 1.499 . S
C2670 H2650 0.950 . S
C2670 C2669 1.414 . S
C2670 C2671 1.374 . S
C2671 H2651 0.950 . S
C2671 C2667 1.385 . S
C2671 C2670 1.374 . S
C2672 C2669 1.499 . S
C2672 C2673 1.373 . S
C2672 C2674 1.389 . S
C2673 H2652 0.950 . S
C2673 C2672 1.373 . S
C2673 C2689 1.377 . S
C2674 C2672 1.389 . S
C2674 C2675 1.524 . S
C2674 C2688 1.377 . S
C2675 C2674 1.524 . S
C2675 C2676 1.397 . S
C2675 C2680 1.363 . S
C2676 H2653 0.950 . S
C2676 C2675 1.397 . S
C2676 C2677 1.334 . S
C2677 H2654 0.950 . S
C2677 C2676 1.334 . S
C2677 C2678 1.287 . S
C2678 C2677 1.287 . S
C2678 C2679 1.524 . S
C2678 H2697 0.913 . S
C2679 H2655 0.950 . S
C2679 C2678 1.524 . S
C2679 C2680 1.415 . S
C2680 H2656 0.950 . S
C2680 C2675 1.363 . S
C2680 C2679 1.415 . S
C2681 H2657 0.951 . S
C2681 C2682 1.366 . S
C2681 C2683 1.388 . S
C2682 C2681 1.366 . S
C2682 C2686 1.385 . S
C2683 H2658 0.951 . S
C2683 C2681 1.388 . S
C2683 C2684 1.366 . S
C2684 C2683 1.366 . S
C2684 C2685 1.414 . S
C2684 C2687 1.499 . S
C2685 H2659 0.950 . S
C2685 C2684 1.414 . S
C2685 C2686 1.374 . S
C2686 H2660 0.950 . S
C2686 C2682 1.385 . S
C2686 C2685 1.374 . S
C2687 C2684 1.499 . S
C2687 C2688 1.373 . S
C2687 C2689 1.389 . S
C2688 H2661 0.950 . S
C2688 C2674 1.377 . S
C2688 C2687 1.373 . S
C2689 C2673 1.377 . S
C2689 C2687 1.389 . S
C2689 C2690 1.524 . S
C2690 C2689 1.524 . S
C2690 C2691 1.397 . S
C2690 C2695 1.363 . S
C2691 H2662 0.950 . S
C2691 C2690 1.397 . S
C2691 C2692 1.334 . S
C2692 H2663 0.950 . S
C2692 C2691 1.334 . S
C2692 C2693 1.287 . S
C2693 C2692 1.287 . S
C2693 C2694 1.524 . S
C2693 H2696 0.999 . S
C2694 H2664 0.950 . S
C2694 C2693 1.524 . S
C2694 C2695 1.415 . S
C2695 H2665 0.950 . S
C2695 C2690 1.363 . S
C2695 C2694 1.415 . S
H2696 C2693 0.999 . S
H2697 C2678 0.913 . S
H2698 C2716 0.951 . S
H2699 C2718 0.951 . S
H2700 C2720 0.950 . S
H2701 C2721 0.950 . S
H2702 C2723 0.950 . S
H2703 C2726 0.950 . S
H2704 C2727 0.950 . S
H2705 C2729 0.950 . S
H2706 C2730 0.950 . S
H2707 C2731 0.951 . S
H2708 C2733 0.951 . S
H2709 C2735 0.950 . S
H2710 C2736 0.950 . S
H2711 C2738 0.950 . S
H2712 C2741 0.950 . S
H2713 C2742 0.950 . S
H2714 C2744 0.950 . S
H2715 C2745 0.950 . S
C2716 H2698 0.951 . S
C2716 C2717 1.366 . S
C2716 C2718 1.388 . S
C2717 C2716 1.366 . S
C2717 C2721 1.385 . S
C2718 H2699 0.951 . S
C2718 C2716 1.388 . S
C2718 C2719 1.366 . S
C2719 C2718 1.366 . S
C2719 C2720 1.414 . S
C2719 C2722 1.499 . S
C2720 H2700 0.950 . S
C2720 C2719 1.414 . S
C2720 C2721 1.374 . S
C2721 H2701 0.950 . S
C2721 C2717 1.385 . S
C2721 C2720 1.374 . S
C2722 C2719 1.499 . S
C2722 C2723 1.373 . S
C2722 C2724 1.389 . S
C2723 H2702 0.950 . S
C2723 C2722 1.373 . S
C2723 C2739 1.377 . S
C2724 C2722 1.389 . S
C2724 C2725 1.524 . S
C2724 C2738 1.377 . S
C2725 C2724 1.524 . S
C2725 C2726 1.397 . S
C2725 C2730 1.363 . S
C2726 H2703 0.950 . S
C2726 C2725 1.397 . S
C2726 C2727 1.334 . S
C2727 H2704 0.950 . S
C2727 C2726 1.334 . S
C2727 C2728 1.287 . S
C2728 C2727 1.287 . S
C2728 C2729 1.524 . S
C2728 H2747 0.913 . S
C2729 H2705 0.950 . S
C2729 C2728 1.524 . S
C2729 C2730 1.415 . S
C2730 H2706 0.950 . S
C2730 C2725 1.363 . S
C2730 C2729 1.415 . S
C2731 H2707 0.951 . S
C2731 C2732 1.366 . S
C2731 C2733 1.388 . S
C2732 C2731 1.366 . S
C2732 C2736 1.385 . S
C2733 H2708 0.951 . S
C2733 C2731 1.388 . S
C2733 C2734 1.366 . S
C2734 C2733 1.366 . S
C2734 C2735 1.414 . S
C2734 C2737 1.499 . S
C2735 H2709 0.950 . S
C2735 C2734 1.414 . S
C2735 C2736 1.374 . S
C2736 H2710 0.950 . S
C2736 C2732 1.385 . S
C2736 C2735 1.374 . S
C2737 C2734 1.499 . S
C2737 C2738 1.373 . S
C2737 C2739 1.389 . S
C2738 H2711 0.950 . S
C2738 C2724 1.377 . S
C2738 C2737 1.373 . S
C2739 C2723 1.377 . S
C2739 C2737 1.389 . S
C2739 C2740 1.524 . S
C2740 C2739 1.524 . S
C2740 C2741 1.397 . S
C2740 C2745 1.363 . S
C2741 H2712 0.950 . S
C2741 C2740 1.397 . S
C2741 C2742 1.334 . S
C2742 H2713 0.950 . S
C2742 C2741 1.334 . S
C2742 C2743 1.287 . S
C2743 C2742 1.287 . S
C2743 C2744 1.524 . S
C2743 H2746 0.999 . S
C2744 H2714 0.950 . S
C2744 C2743 1.524 . S
C2744 C2745 1.415 . S
C2745 H2715 0.950 . S
C2745 C2740 1.363 . S
C2745 C2744 1.415 . S
H2746 C2743 0.999 . S
H2747 C2728 0.913 . S
H2748 C2766 0.951 . S
H2749 C2768 0.951 . S
H2750 C2770 0.950 . S
H2751 C2771 0.950 . S
H2752 C2773 0.950 . S
H2753 C2776 0.950 . S
H2754 C2777 0.950 . S
H2755 C2779 0.950 . S
H2756 C2780 0.950 . S
H2757 C2781 0.951 . S
H2758 C2783 0.951 . S
H2759 C2785 0.950 . S
H2760 C2786 0.950 . S
H2761 C2788 0.950 . S
H2762 C2791 0.950 . S
H2763 C2792 0.950 . S
H2764 C2794 0.950 . S
H2765 C2795 0.950 . S
C2766 H2748 0.951 . S
C2766 C2767 1.366 . S
C2766 C2768 1.388 . S
C2767 C2766 1.366 . S
C2767 C2771 1.385 . S
C2768 H2749 0.951 . S
C2768 C2766 1.388 . S
C2768 C2769 1.366 . S
C2769 C2768 1.366 . S
C2769 C2770 1.414 . S
C2769 C2772 1.499 . S
C2770 H2750 0.950 . S
C2770 C2769 1.414 . S
C2770 C2771 1.374 . S
C2771 H2751 0.950 . S
C2771 C2767 1.385 . S
C2771 C2770 1.374 . S
C2772 C2769 1.499 . S
C2772 C2773 1.373 . S
C2772 C2774 1.389 . S
C2773 H2752 0.950 . S
C2773 C2772 1.373 . S
C2773 C2789 1.377 . S
C2774 C2772 1.389 . S
C2774 C2775 1.524 . S
C2774 C2788 1.377 . S
C2775 C2774 1.524 . S
C2775 C2776 1.397 . S
C2775 C2780 1.363 . S
C2776 H2753 0.950 . S
C2776 C2775 1.397 . S
C2776 C2777 1.334 . S
C2777 H2754 0.950 . S
C2777 C2776 1.334 . S
C2777 C2778 1.287 . S
C2778 C2777 1.287 . S
C2778 C2779 1.524 . S
C2778 H2797 0.913 . S
C2779 H2755 0.950 . S
C2779 C2778 1.524 . S
C2779 C2780 1.415 . S
C2780 H2756 0.950 . S
C2780 C2775 1.363 . S
C2780 C2779 1.415 . S
C2781 H2757 0.951 . S
C2781 C2782 1.366 . S
C2781 C2783 1.388 . S
C2782 C2781 1.366 . S
C2782 C2786 1.385 . S
C2783 H2758 0.951 . S
C2783 C2781 1.388 . S
C2783 C2784 1.366 . S
C2784 C2783 1.366 . S
C2784 C2785 1.414 . S
C2784 C2787 1.499 . S
C2785 H2759 0.950 . S
C2785 C2784 1.414 . S
C2785 C2786 1.374 . S
C2786 H2760 0.950 . S
C2786 C2782 1.385 . S
C2786 C2785 1.374 . S
C2787 C2784 1.499 . S
C2787 C2788 1.373 . S
C2787 C2789 1.389 . S
C2788 H2761 0.950 . S
C2788 C2774 1.377 . S
C2788 C2787 1.373 . S
C2789 C2773 1.377 . S
C2789 C2787 1.389 . S
C2789 C2790 1.524 . S
C2790 C2789 1.524 . S
C2790 C2791 1.397 . S
C2790 C2795 1.363 . S
C2791 H2762 0.950 . S
C2791 C2790 1.397 . S
C2791 C2792 1.334 . S
C2792 H2763 0.950 . S
C2792 C2791 1.334 . S
C2792 C2793 1.287 . S
C2793 C2792 1.287 . S
C2793 C2794 1.524 . S
C2793 H2796 0.999 . S
C2794 H2764 0.950 . S
C2794 C2793 1.524 . S
C2794 C2795 1.415 . S
C2795 H2765 0.950 . S
C2795 C2790 1.363 . S
C2795 C2794 1.415 . S
H2796 C2793 0.999 . S
H2797 C2778 0.913 . S
H2798 C2816 0.951 . S
H2799 C2818 0.951 . S
H2800 C2820 0.950 . S
H2801 C2821 0.950 . S
H2802 C2823 0.950 . S
H2803 C2826 0.950 . S
H2804 C2827 0.950 . S
H2805 C2829 0.950 . S
H2806 C2830 0.950 . S
H2807 C2831 0.951 . S
H2808 C2833 0.951 . S
H2809 C2835 0.950 . S
H2810 C2836 0.950 . S
H2811 C2838 0.950 . S
H2812 C2841 0.950 . S
H2813 C2842 0.950 . S
H2814 C2844 0.950 . S
H2815 C2845 0.950 . S
C2816 H2798 0.951 . S
C2816 C2817 1.366 . S
C2816 C2818 1.388 . S
C2817 C2816 1.366 . S
C2817 C2821 1.385 . S
C2818 H2799 0.951 . S
C2818 C2816 1.388 . S
C2818 C2819 1.366 . S
C2819 C2818 1.366 . S
C2819 C2820 1.414 . S
C2819 C2822 1.499 . S
C2820 H2800 0.950 . S
C2820 C2819 1.414 . S
C2820 C2821 1.374 . S
C2821 H2801 0.950 . S
C2821 C2817 1.385 . S
C2821 C2820 1.374 . S
C2822 C2819 1.499 . S
C2822 C2823 1.373 . S
C2822 C2824 1.389 . S
C2823 H2802 0.950 . S
C2823 C2822 1.373 . S
C2823 C2839 1.377 . S
C2824 C2822 1.389 . S
C2824 C2825 1.524 . S
C2824 C2838 1.377 . S
C2825 C2824 1.524 . S
C2825 C2826 1.397 . S
C2825 C2830 1.363 . S
C2826 H2803 0.950 . S
C2826 C2825 1.397 . S
C2826 C2827 1.334 . S
C2827 H2804 0.950 . S
C2827 C2826 1.334 . S
C2827 C2828 1.287 . S
C2828 C2827 1.287 . S
C2828 C2829 1.524 . S
C2828 H2847 0.913 . S
C2829 H2805 0.950 . S
C2829 C2828 1.524 . S
C2829 C2830 1.415 . S
C2830 H2806 0.950 . S
C2830 C2825 1.363 . S
C2830 C2829 1.415 . S
C2831 H2807 0.951 . S
C2831 C2832 1.366 . S
C2831 C2833 1.388 . S
C2832 C2831 1.366 . S
C2832 C2836 1.385 . S
C2833 H2808 0.951 . S
C2833 C2831 1.388 . S
C2833 C2834 1.366 . S
C2834 C2833 1.366 . S
C2834 C2835 1.414 . S
C2834 C2837 1.499 . S
C2835 H2809 0.950 . S
C2835 C2834 1.414 . S
C2835 C2836 1.374 . S
C2836 H2810 0.950 . S
C2836 C2832 1.385 . S
C2836 C2835 1.374 . S
C2837 C2834 1.499 . S
C2837 C2838 1.373 . S
C2837 C2839 1.389 . S
C2838 H2811 0.950 . S
C2838 C2824 1.377 . S
C2838 C2837 1.373 . S
C2839 C2823 1.377 . S
C2839 C2837 1.389 . S
C2839 C2840 1.524 . S
C2840 C2839 1.524 . S
C2840 C2841 1.397 . S
C2840 C2845 1.363 . S
C2841 H2812 0.950 . S
C2841 C2840 1.397 . S
C2841 C2842 1.334 . S
C2842 H2813 0.950 . S
C2842 C2841 1.334 . S
C2842 C2843 1.287 . S
C2843 C2842 1.287 . S
C2843 C2844 1.524 . S
C2843 H2846 0.999 . S
C2844 H2814 0.950 . S
C2844 C2843 1.524 . S
C2844 C2845 1.415 . S
C2845 H2815 0.950 . S
C2845 C2840 1.363 . S
C2845 C2844 1.415 . S
H2846 C2843 0.999 . S
H2847 C2828 0.913 . S
H2848 C2866 0.951 . S
H2849 C2868 0.951 . S
H2850 C2870 0.950 . S
H2851 C2871 0.950 . S
H2852 C2873 0.950 . S
H2853 C2876 0.950 . S
H2854 C2877 0.950 . S
H2855 C2879 0.950 . S
H2856 C2880 0.950 . S
H2857 C2881 0.951 . S
H2858 C2883 0.951 . S
H2859 C2885 0.950 . S
H2860 C2886 0.950 . S
H2861 C2888 0.950 . S
H2862 C2891 0.950 . S
H2863 C2892 0.950 . S
H2864 C2894 0.950 . S
H2865 C2895 0.950 . S
C2866 H2848 0.951 . S
C2866 C2867 1.366 . S
C2866 C2868 1.388 . S
C2867 C2866 1.366 . S
C2867 C2871 1.385 . S
C2868 H2849 0.951 . S
C2868 C2866 1.388 . S
C2868 C2869 1.366 . S
C2869 C2868 1.366 . S
C2869 C2870 1.414 . S
C2869 C2872 1.499 . S
C2870 H2850 0.950 . S
C2870 C2869 1.414 . S
C2870 C2871 1.374 . S
C2871 H2851 0.950 . S
C2871 C2867 1.385 . S
C2871 C2870 1.374 . S
C2872 C2869 1.499 . S
C2872 C2873 1.373 . S
C2872 C2874 1.389 . S
C2873 H2852 0.950 . S
C2873 C2872 1.373 . S
C2873 C2889 1.377 . S
C2874 C2872 1.389 . S
C2874 C2875 1.524 . S
C2874 C2888 1.377 . S
C2875 C2874 1.524 . S
C2875 C2876 1.397 . S
C2875 C2880 1.363 . S
C2876 H2853 0.950 . S
C2876 C2875 1.397 . S
C2876 C2877 1.334 . S
C2877 H2854 0.950 . S
C2877 C2876 1.334 . S
C2877 C2878 1.287 . S
C2878 C2877 1.287 . S
C2878 C2879 1.524 . S
C2878 H2897 0.913 . S
C2879 H2855 0.950 . S
C2879 C2878 1.524 . S
C2879 C2880 1.415 . S
C2880 H2856 0.950 . S
C2880 C2875 1.363 . S
C2880 C2879 1.415 . S
C2881 H2857 0.951 . S
C2881 C2882 1.366 . S
C2881 C2883 1.388 . S
C2882 C2881 1.366 . S
C2882 C2886 1.385 . S
C2883 H2858 0.951 . S
C2883 C2881 1.388 . S
C2883 C2884 1.366 . S
C2884 C2883 1.366 . S
C2884 C2885 1.414 . S
C2884 C2887 1.499 . S
C2885 H2859 0.950 . S
C2885 C2884 1.414 . S
C2885 C2886 1.374 . S
C2886 H2860 0.950 . S
C2886 C2882 1.385 . S
C2886 C2885 1.374 . S
C2887 C2884 1.499 . S
C2887 C2888 1.373 . S
C2887 C2889 1.389 . S
C2888 H2861 0.950 . S
C2888 C2874 1.377 . S
C2888 C2887 1.373 . S
C2889 C2873 1.377 . S
C2889 C2887 1.389 . S
C2889 C2890 1.524 . S
C2890 C2889 1.524 . S
C2890 C2891 1.397 . S
C2890 C2895 1.363 . S
C2891 H2862 0.950 . S
C2891 C2890 1.397 . S
C2891 C2892 1.334 . S
C2892 H2863 0.950 . S
C2892 C2891 1.334 . S
C2892 C2893 1.287 . S
C2893 C2892 1.287 . S
C2893 C2894 1.524 . S
C2893 H2896 0.999 . S
C2894 H2864 0.950 . S
C2894 C2893 1.524 . S
C2894 C2895 1.415 . S
C2895 H2865 0.950 . S
C2895 C2890 1.363 . S
C2895 C2894 1.415 . S
H2896 C2893 0.999 . S
H2897 C2878 0.913 . S
H2898 C2916 0.951 . S
H2899 C2918 0.951 . S
H2900 C2920 0.950 . S
H2901 C2921 0.950 . S
H2902 C2923 0.950 . S
H2903 C2926 0.950 . S
H2904 C2927 0.950 . S
H2905 C2929 0.950 . S
H2906 C2930 0.950 . S
H2907 C2931 0.951 . S
H2908 C2933 0.951 . S
H2909 C2935 0.950 . S
H2910 C2936 0.950 . S
H2911 C2938 0.950 . S
H2912 C2941 0.950 . S
H2913 C2942 0.950 . S
H2914 C2944 0.950 . S
H2915 C2945 0.950 . S
C2916 H2898 0.951 . S
C2916 C2917 1.366 . S
C2916 C2918 1.388 . S
C2917 C2916 1.366 . S
C2917 C2921 1.385 . S
C2918 H2899 0.951 . S
C2918 C2916 1.388 . S
C2918 C2919 1.366 . S
C2919 C2918 1.366 . S
C2919 C2920 1.414 . S
C2919 C2922 1.499 . S
C2920 H2900 0.950 . S
C2920 C2919 1.414 . S
C2920 C2921 1.374 . S
C2921 H2901 0.950 . S
C2921 C2917 1.385 . S
C2921 C2920 1.374 . S
C2922 C2919 1.499 . S
C2922 C2923 1.373 . S
C2922 C2924 1.389 . S
C2923 H2902 0.950 . S
C2923 C2922 1.373 . S
C2923 C2939 1.377 . S
C2924 C2922 1.389 . S
C2924 C2925 1.524 . S
C2924 C2938 1.377 . S
C2925 C2924 1.524 . S
C2925 C2926 1.397 . S
C2925 C2930 1.363 . S
C2926 H2903 0.950 . S
C2926 C2925 1.397 . S
C2926 C2927 1.334 . S
C2927 H2904 0.950 . S
C2927 C2926 1.334 . S
C2927 C2928 1.287 . S
C2928 C2927 1.287 . S
C2928 C2929 1.524 . S
C2928 H2947 0.913 . S
C2929 H2905 0.950 . S
C2929 C2928 1.524 . S
C2929 C2930 1.415 . S
C2930 H2906 0.950 . S
C2930 C2925 1.363 . S
C2930 C2929 1.415 . S
C2931 H2907 0.951 . S
C2931 C2932 1.366 . S
C2931 C2933 1.388 . S
C2932 C2931 1.366 . S
C2932 C2936 1.385 . S
C2933 H2908 0.951 . S
C2933 C2931 1.388 . S
C2933 C2934 1.366 . S
C2934 C2933 1.366 . S
C2934 C2935 1.414 . S
C2934 C2937 1.499 . S
C2935 H2909 0.950 . S
C2935 C2934 1.414 . S
C2935 C2936 1.374 . S
C2936 H2910 0.950 . S
C2936 C2932 1.385 . S
C2936 C2935 1.374 . S
C2937 C2934 1.499 . S
C2937 C2938 1.373 . S
C2937 C2939 1.389 . S
C2938 H2911 0.950 . S
C2938 C2924 1.377 . S
C2938 C2937 1.373 . S
C2939 C2923 1.377 . S
C2939 C2937 1.389 . S
C2939 C2940 1.524 . S
C2940 C2939 1.524 . S
C2940 C2941 1.397 . S
C2940 C2945 1.363 . S
C2941 H2912 0.950 . S
C2941 C2940 1.397 . S
C2941 C2942 1.334 . S
C2942 H2913 0.950 . S
C2942 C2941 1.334 . S
C2942 C2943 1.287 . S
C2943 C2942 1.287 . S
C2943 C2944 1.524 . S
C2943 H2946 0.999 . S
C2944 H2914 0.950 . S
C2944 C2943 1.524 . S
C2944 C2945 1.415 . S
C2945 H2915 0.950 . S
C2945 C2940 1.363 . S
C2945 C2944 1.415 . S
H2946 C2943 0.999 . S
H2947 C2928 0.913 . S
H2948 C2966 0.951 . S
H2949 C2968 0.951 . S
H2950 C2970 0.950 . S
H2951 C2971 0.950 . S
H2952 C2973 0.950 . S
H2953 C2976 0.950 . S
H2954 C2977 0.950 . S
H2955 C2979 0.950 . S
H2956 C2980 0.950 . S
H2957 C2981 0.951 . S
H2958 C2983 0.951 . S
H2959 C2985 0.950 . S
H2960 C2986 0.950 . S
H2961 C2988 0.950 . S
H2962 C2991 0.950 . S
H2963 C2992 0.950 . S
H2964 C2994 0.950 . S
H2965 C2995 0.950 . S
C2966 H2948 0.951 . S
C2966 C2967 1.366 . S
C2966 C2968 1.388 . S
C2967 C2966 1.366 . S
C2967 C2971 1.385 . S
C2968 H2949 0.951 . S
C2968 C2966 1.388 . S
C2968 C2969 1.366 . S
C2969 C2968 1.366 . S
C2969 C2970 1.414 . S
C2969 C2972 1.499 . S
C2970 H2950 0.950 . S
C2970 C2969 1.414 . S
C2970 C2971 1.374 . S
C2971 H2951 0.950 . S
C2971 C2967 1.385 . S
C2971 C2970 1.374 . S
C2972 C2969 1.499 . S
C2972 C2973 1.373 . S
C2972 C2974 1.389 . S
C2973 H2952 0.950 . S
C2973 C2972 1.373 . S
C2973 C2989 1.377 . S
C2974 C2972 1.389 . S
C2974 C2975 1.524 . S
C2974 C2988 1.377 . S
C2975 C2974 1.524 . S
C2975 C2976 1.397 . S
C2975 C2980 1.363 . S
C2976 H2953 0.950 . S
C2976 C2975 1.397 . S
C2976 C2977 1.334 . S
C2977 H2954 0.950 . S
C2977 C2976 1.334 . S
C2977 C2978 1.287 . S
C2978 C2977 1.287 . S
C2978 C2979 1.524 . S
C2978 H2997 0.913 . S
C2979 H2955 0.950 . S
C2979 C2978 1.524 . S
C2979 C2980 1.415 . S
C2980 H2956 0.950 . S
C2980 C2975 1.363 . S
C2980 C2979 1.415 . S
C2981 H2957 0.951 . S
C2981 C2982 1.366 . S
C2981 C2983 1.388 . S
C2982 C2981 1.366 . S
C2982 C2986 1.385 . S
C2983 H2958 0.951 . S
C2983 C2981 1.388 . S
C2983 C2984 1.366 . S
C2984 C2983 1.366 . S
C2984 C2985 1.414 . S
C2984 C2987 1.499 . S
C2985 H2959 0.950 . S
C2985 C2984 1.414 . S
C2985 C2986 1.374 . S
C2986 H2960 0.950 . S
C2986 C2982 1.385 . S
C2986 C2985 1.374 . S
C2987 C2984 1.499 . S
C2987 C2988 1.373 . S
C2987 C2989 1.389 . S
C2988 H2961 0.950 . S
C2988 C2974 1.377 . S
C2988 C2987 1.373 . S
C2989 C2973 1.377 . S
C2989 C2987 1.389 . S
C2989 C2990 1.524 . S
C2990 C2989 1.524 . S
C2990 C2991 1.397 . S
C2990 C2995 1.363 . S
C2991 H2962 0.950 . S
C2991 C2990 1.397 . S
C2991 C2992 1.334 . S
C2992 H2963 0.950 . S
C2992 C2991 1.334 . S
C2992 C2993 1.287 . S
C2993 C2992 1.287 . S
C2993 C2994 1.524 . S
C2993 H2996 0.999 . S
C2994 H2964 0.950 . S
C2994 C2993 1.524 . S
C2994 C2995 1.415 . S
C2995 H2965 0.950 . S
C2995 C2990 1.363 . S
C2995 C2994 1.415 . S
H2996 C2993 0.999 . S
H2997 C2978 0.913 . S
H2998 C3016 0.951 . S
H2999 C3018 0.951 . S
H3000 C3020 0.950 . S
H3001 C3021 0.950 . S
H3002 C3023 0.950 . S
H3003 C3026 0.950 . S
H3004 C3027 0.950 . S
H3005 C3029 0.950 . S
H3006 C3030 0.950 . S
H3007 C3031 0.951 . S
H3008 C3033 0.951 . S
H3009 C3035 0.950 . S
H3010 C3036 0.950 . S
H3011 C3038 0.950 . S
H3012 C3041 0.950 . S
H3013 C3042 0.950 . S
H3014 C3044 0.950 . S
H3015 C3045 0.950 . S
C3016 H2998 0.951 . S
C3016 C3017 1.366 . S
C3016 C3018 1.388 . S
C3017 C3016 1.366 . S
C3017 C3021 1.385 . S
C3018 H2999 0.951 . S
C3018 C3016 1.388 . S
C3018 C3019 1.366 . S
C3019 C3018 1.366 . S
C3019 C3020 1.414 . S
C3019 C3022 1.499 . S
C3020 H3000 0.950 . S
C3020 C3019 1.414 . S
C3020 C3021 1.374 . S
C3021 H3001 0.950 . S
C3021 C3017 1.385 . S
C3021 C3020 1.374 . S
C3022 C3019 1.499 . S
C3022 C3023 1.373 . S
C3022 C3024 1.389 . S
C3023 H3002 0.950 . S
C3023 C3022 1.373 . S
C3023 C3039 1.377 . S
C3024 C3022 1.389 . S
C3024 C3025 1.524 . S
C3024 C3038 1.377 . S
C3025 C3024 1.524 . S
C3025 C3026 1.397 . S
C3025 C3030 1.363 . S
C3026 H3003 0.950 . S
C3026 C3025 1.397 . S
C3026 C3027 1.334 . S
C3027 H3004 0.950 . S
C3027 C3026 1.334 . S
C3027 C3028 1.287 . S
C3028 C3027 1.287 . S
C3028 C3029 1.524 . S
C3028 H3047 0.913 . S
C3029 H3005 0.950 . S
C3029 C3028 1.524 . S
C3029 C3030 1.415 . S
C3030 H3006 0.950 . S
C3030 C3025 1.363 . S
C3030 C3029 1.415 . S
C3031 H3007 0.951 . S
C3031 C3032 1.366 . S
C3031 C3033 1.388 . S
C3032 C3031 1.366 . S
C3032 C3036 1.385 . S
C3033 H3008 0.951 . S
C3033 C3031 1.388 . S
C3033 C3034 1.366 . S
C3034 C3033 1.366 . S
C3034 C3035 1.414 . S
C3034 C3037 1.499 . S
C3035 H3009 0.950 . S
C3035 C3034 1.414 . S
C3035 C3036 1.374 . S
C3036 H3010 0.950 . S
C3036 C3032 1.385 . S
C3036 C3035 1.374 . S
C3037 C3034 1.499 . S
C3037 C3038 1.373 . S
C3037 C3039 1.389 . S
C3038 H3011 0.950 . S
C3038 C3024 1.377 . S
C3038 C3037 1.373 . S
C3039 C3023 1.377 . S
C3039 C3037 1.389 . S
C3039 C3040 1.524 . S
C3040 C3039 1.524 . S
C3040 C3041 1.397 . S
C3040 C3045 1.363 . S
C3041 H3012 0.950 . S
C3041 C3040 1.397 . S
C3041 C3042 1.334 . S
C3042 H3013 0.950 . S
C3042 C3041 1.334 . S
C3042 C3043 1.287 . S
C3043 C3042 1.287 . S
C3043 C3044 1.524 . S
C3043 H3046 0.999 . S
C3044 H3014 0.950 . S
C3044 C3043 1.524 . S
C3044 C3045 1.415 . S
C3045 H3015 0.950 . S
C3045 C3040 1.363 . S
C3045 C3044 1.415 . S
H3046 C3043 0.999 . S
H3047 C3028 0.913 . S
H3048 C3066 0.951 . S
H3049 C3068 0.951 . S
H3050 C3070 0.950 . S
H3051 C3071 0.950 . S
H3052 C3073 0.950 . S
H3053 C3076 0.950 . S
H3054 C3077 0.950 . S
H3055 C3079 0.950 . S
H3056 C3080 0.950 . S
H3057 C3081 0.951 . S
H3058 C3083 0.951 . S
H3059 C3085 0.950 . S
H3060 C3086 0.950 . S
H3061 C3088 0.950 . S
H3062 C3091 0.950 . S
H3063 C3092 0.950 . S
H3064 C3094 0.950 . S
H3065 C3095 0.950 . S
C3066 H3048 0.951 . S
C3066 C3067 1.366 . S
C3066 C3068 1.388 . S
C3067 C3066 1.366 . S
C3067 C3071 1.385 . S
C3068 H3049 0.951 . S
C3068 C3066 1.388 . S
C3068 C3069 1.366 . S
C3069 C3068 1.366 . S
C3069 C3070 1.414 . S
C3069 C3072 1.499 . S
C3070 H3050 0.950 . S
C3070 C3069 1.414 . S
C3070 C3071 1.374 . S
C3071 H3051 0.950 . S
C3071 C3067 1.385 . S
C3071 C3070 1.374 . S
C3072 C3069 1.499 . S
C3072 C3073 1.373 . S
C3072 C3074 1.389 . S
C3073 H3052 0.950 . S
C3073 C3072 1.373 . S
C3073 C3089 1.377 . S
C3074 C3072 1.389 . S
C3074 C3075 1.524 . S
C3074 C3088 1.377 . S
C3075 C3074 1.524 . S
C3075 C3076 1.397 . S
C3075 C3080 1.363 . S
C3076 H3053 0.950 . S
C3076 C3075 1.397 . S
C3076 C3077 1.334 . S
C3077 H3054 0.950 . S
C3077 C3076 1.334 . S
C3077 C3078 1.287 . S
C3078 C3077 1.287 . S
C3078 C3079 1.524 . S
C3078 H3097 0.913 . S
C3079 H3055 0.950 . S
C3079 C3078 1.524 . S
C3079 C3080 1.415 . S
C3080 H3056 0.950 . S
C3080 C3075 1.363 . S
C3080 C3079 1.415 . S
C3081 H3057 0.951 . S
C3081 C3082 1.366 . S
C3081 C3083 1.388 . S
C3082 C3081 1.366 . S
C3082 C3086 1.385 . S
C3083 H3058 0.951 . S
C3083 C3081 1.388 . S
C3083 C3084 1.366 . S
C3084 C3083 1.366 . S
C3084 C3085 1.414 . S
C3084 C3087 1.499 . S
C3085 H3059 0.950 . S
C3085 C3084 1.414 . S
C3085 C3086 1.374 . S
C3086 H3060 0.950 . S
C3086 C3082 1.385 . S
C3086 C3085 1.374 . S
C3087 C3084 1.499 . S
C3087 C3088 1.373 . S
C3087 C3089 1.389 . S
C3088 H3061 0.950 . S
C3088 C3074 1.377 . S
C3088 C3087 1.373 . S
C3089 C3073 1.377 . S
C3089 C3087 1.389 . S
C3089 C3090 1.524 . S
C3090 C3089 1.524 . S
C3090 C3091 1.397 . S
C3090 C3095 1.363 . S
C3091 H3062 0.950 . S
C3091 C3090 1.397 . S
C3091 C3092 1.334 . S
C3092 H3063 0.950 . S
C3092 C3091 1.334 . S
C3092 C3093 1.287 . S
C3093 C3092 1.287 . S
C3093 C3094 1.524 . S
C3093 H3096 0.999 . S
C3094 H3064 0.950 . S
C3094 C3093 1.524 . S
C3094 C3095 1.415 . S
C3095 H3065 0.950 . S
C3095 C3090 1.363 . S
C3095 C3094 1.415 . S
H3096 C3093 0.999 . S
H3097 C3078 0.913 . S
H3098 C3116 0.951 . S
H3099 C3118 0.951 . S
H3100 C3120 0.950 . S
H3101 C3121 0.950 . S
H3102 C3123 0.950 . S
H3103 C3126 0.950 . S
H3104 C3127 0.950 . S
H3105 C3129 0.950 . S
H3106 C3130 0.950 . S
H3107 C3131 0.951 . S
H3108 C3133 0.951 . S
H3109 C3135 0.950 . S
H3110 C3136 0.950 . S
H3111 C3138 0.950 . S
H3112 C3141 0.950 . S
H3113 C3142 0.950 . S
H3114 C3144 0.950 . S
H3115 C3145 0.950 . S
C3116 H3098 0.951 . S
C3116 C3117 1.366 . S
C3116 C3118 1.388 . S
C3117 C3116 1.366 . S
C3117 C3121 1.385 . S
C3118 H3099 0.951 . S
C3118 C3116 1.388 . S
C3118 C3119 1.366 . S
C3119 C3118 1.366 . S
C3119 C3120 1.414 . S
C3119 C3122 1.499 . S
C3120 H3100 0.950 . S
C3120 C3119 1.414 . S
C3120 C3121 1.374 . S
C3121 H3101 0.950 . S
C3121 C3117 1.385 . S
C3121 C3120 1.374 . S
C3122 C3119 1.499 . S
C3122 C3123 1.373 . S
C3122 C3124 1.389 . S
C3123 H3102 0.950 . S
C3123 C3122 1.373 . S
C3123 C3139 1.377 . S
C3124 C3122 1.389 . S
C3124 C3125 1.524 . S
C3124 C3138 1.377 . S
C3125 C3124 1.524 . S
C3125 C3126 1.397 . S
C3125 C3130 1.363 . S
C3126 H3103 0.950 . S
C3126 C3125 1.397 . S
C3126 C3127 1.334 . S
C3127 H3104 0.950 . S
C3127 C3126 1.334 . S
C3127 C3128 1.287 . S
C3128 C3127 1.287 . S
C3128 C3129 1.524 . S
C3128 H3147 0.913 . S
C3129 H3105 0.950 . S
C3129 C3128 1.524 . S
C3129 C3130 1.415 . S
C3130 H3106 0.950 . S
C3130 C3125 1.363 . S
C3130 C3129 1.415 . S
C3131 H3107 0.951 . S
C3131 C3132 1.366 . S
C3131 C3133 1.388 . S
C3132 C3131 1.366 . S
C3132 C3136 1.385 . S
C3133 H3108 0.951 . S
C3133 C3131 1.388 . S
C3133 C3134 1.366 . S
C3134 C3133 1.366 . S
C3134 C3135 1.414 . S
C3134 C3137 1.499 . S
C3135 H3109 0.950 . S
C3135 C3134 1.414 . S
C3135 C3136 1.374 . S
C3136 H3110 0.950 . S
C3136 C3132 1.385 . S
C3136 C3135 1.374 . S
C3137 C3134 1.499 . S
C3137 C3138 1.373 . S
C3137 C3139 1.389 . S
C3138 H3111 0.950 . S
C3138 C3124 1.377 . S
C3138 C3137 1.373 . S
C3139 C3123 1.377 . S
C3139 C3137 1.389 . S
C3139 C3140 1.524 . S
C3140 C3139 1.524 . S
C3140 C3141 1.397 . S
C3140 C3145 1.363 . S
C3141 H3112 0.950 . S
C3141 C3140 1.397 . S
C3141 C3142 1.334 . S
C3142 H3113 0.950 . S
C3142 C3141 1.334 . S
C3142 C3143 1.287 . S
C3143 C3142 1.287 . S
C3143 C3144 1.524 . S
C3143 H3146 0.999 . S
C3144 H3114 0.950 . S
C3144 C3143 1.524 . S
C3144 C3145 1.415 . S
C3145 H3115 0.950 . S
C3145 C3140 1.363 . S
C3145 C3144 1.415 . S
H3146 C3143 0.999 . S
H3147 C3128 0.913 . S
H3148 C3166 0.951 . S
H3149 C3168 0.951 . S
H3150 C3170 0.950 . S
H3151 C3171 0.950 . S
H3152 C3173 0.950 . S
H3153 C3176 0.950 . S
H3154 C3177 0.950 . S
H3155 C3179 0.950 . S
H3156 C3180 0.950 . S
H3157 C3181 0.951 . S
H3158 C3183 0.951 . S
H3159 C3185 0.950 . S
H3160 C3186 0.950 . S
H3161 C3188 0.950 . S
H3162 C3191 0.950 . S
H3163 C3192 0.950 . S
H3164 C3194 0.950 . S
H3165 C3195 0.950 . S
C3166 H3148 0.951 . S
C3166 C3167 1.366 . S
C3166 C3168 1.388 . S
C3167 C3166 1.366 . S
C3167 C3171 1.385 . S
C3168 H3149 0.951 . S
C3168 C3166 1.388 . S
C3168 C3169 1.366 . S
C3169 C3168 1.366 . S
C3169 C3170 1.414 . S
C3169 C3172 1.499 . S
C3170 H3150 0.950 . S
C3170 C3169 1.414 . S
C3170 C3171 1.374 . S
C3171 H3151 0.950 . S
C3171 C3167 1.385 . S
C3171 C3170 1.374 . S
C3172 C3169 1.499 . S
C3172 C3173 1.373 . S
C3172 C3174 1.389 . S
C3173 H3152 0.950 . S
C3173 C3172 1.373 . S
C3173 C3189 1.377 . S
C3174 C3172 1.389 . S
C3174 C3175 1.524 . S
C3174 C3188 1.377 . S
C3175 C3174 1.524 . S
C3175 C3176 1.397 . S
C3175 C3180 1.363 . S
C3176 H3153 0.950 . S
C3176 C3175 1.397 . S
C3176 C3177 1.334 . S
C3177 H3154 0.950 . S
C3177 C3176 1.334 . S
C3177 C3178 1.287 . S
C3178 C3177 1.287 . S
C3178 C3179 1.524 . S
C3178 H3197 0.913 . S
C3179 H3155 0.950 . S
C3179 C3178 1.524 . S
C3179 C3180 1.415 . S
C3180 H3156 0.950 . S
C3180 C3175 1.363 . S
C3180 C3179 1.415 . S
C3181 H3157 0.951 . S
C3181 C3182 1.366 . S
C3181 C3183 1.388 . S
C3182 C3181 1.366 . S
C3182 C3186 1.385 . S
C3183 H3158 0.951 . S
C3183 C3181 1.388 . S
C3183 C3184 1.366 . S
C3184 C3183 1.366 . S
C3184 C3185 1.414 . S
C3184 C3187 1.499 . S
C3185 H3159 0.950 . S
C3185 C3184 1.414 . S
C3185 C3186 1.374 . S
C3186 H3160 0.950 . S
C3186 C3182 1.385 . S
C3186 C3185 1.374 . S
C3187 C3184 1.499 . S
C3187 C3188 1.373 . S
C3187 C3189 1.389 . S
C3188 H3161 0.950 . S
C3188 C3174 1.377 . S
C3188 C3187 1.373 . S
C3189 C3173 1.377 . S
C3189 C3187 1.389 . S
C3189 C3190 1.524 . S
C3190 C3189 1.524 . S
C3190 C3191 1.397 . S
C3190 C3195 1.363 . S
C3191 H3162 0.950 . S
C3191 C3190 1.397 . S
C3191 C3192 1.334 . S
C3192 H3163 0.950 . S
C3192 C3191 1.334 . S
C3192 C3193 1.287 . S
C3193 C3192 1.287 . S
C3193 C3194 1.524 . S
C3193 H3196 0.999 . S
C3194 H3164 0.950 . S
C3194 C3193 1.524 . S
C3194 C3195 1.415 . S
C3195 H3165 0.950 . S
C3195 C3190 1.363 . S
C3195 C3194 1.415 . S
H3196 C3193 0.999 . S
H3197 C3178 0.913 . S
H3198 C3216 0.951 . S
H3199 C3218 0.951 . S
H3200 C3220 0.950 . S
H3201 C3221 0.950 . S
H3202 C3223 0.950 . S
H3203 C3226 0.950 . S
H3204 C3227 0.950 . S
H3205 C3229 0.950 . S
H3206 C3230 0.950 . S
H3207 C3231 0.951 . S
H3208 C3233 0.951 . S
H3209 C3235 0.950 . S
H3210 C3236 0.950 . S
H3211 C3238 0.950 . S
H3212 C3241 0.950 . S
H3213 C3242 0.950 . S
H3214 C3244 0.950 . S
H3215 C3245 0.950 . S
C3216 H3198 0.951 . S
C3216 C3217 1.366 . S
C3216 C3218 1.388 . S
C3217 C3216 1.366 . S
C3217 C3221 1.385 . S
C3218 H3199 0.951 . S
C3218 C3216 1.388 . S
C3218 C3219 1.366 . S
C3219 C3218 1.366 . S
C3219 C3220 1.414 . S
C3219 C3222 1.499 . S
C3220 H3200 0.950 . S
C3220 C3219 1.414 . S
C3220 C3221 1.374 . S
C3221 H3201 0.950 . S
C3221 C3217 1.385 . S
C3221 C3220 1.374 . S
C3222 C3219 1.499 . S
C3222 C3223 1.373 . S
C3222 C3224 1.389 . S
C3223 H3202 0.950 . S
C3223 C3222 1.373 . S
C3223 C3239 1.377 . S
C3224 C3222 1.389 . S
C3224 C3225 1.524 . S
C3224 C3238 1.377 . S
C3225 C3224 1.524 . S
C3225 C3226 1.397 . S
C3225 C3230 1.363 . S
C3226 H3203 0.950 . S
C3226 C3225 1.397 . S
C3226 C3227 1.334 . S
C3227 H3204 0.950 . S
C3227 C3226 1.334 . S
C3227 C3228 1.287 . S
C3228 C3227 1.287 . S
C3228 C3229 1.524 . S
C3228 H3247 0.913 . S
C3229 H3205 0.950 . S
C3229 C3228 1.524 . S
C3229 C3230 1.415 . S
C3230 H3206 0.950 . S
C3230 C3225 1.363 . S
C3230 C3229 1.415 . S
C3231 H3207 0.951 . S
C3231 C3232 1.366 . S
C3231 C3233 1.388 . S
C3232 C3231 1.366 . S
C3232 C3236 1.385 . S
C3233 H3208 0.951 . S
C3233 C3231 1.388 . S
C3233 C3234 1.366 . S
C3234 C3233 1.366 . S
C3234 C3235 1.414 . S
C3234 C3237 1.499 . S
C3235 H3209 0.950 . S
C3235 C3234 1.414 . S
C3235 C3236 1.374 . S
C3236 H3210 0.950 . S
C3236 C3232 1.385 . S
C3236 C3235 1.374 . S
C3237 C3234 1.499 . S
C3237 C3238 1.373 . S
C3237 C3239 1.389 . S
C3238 H3211 0.950 . S
C3238 C3224 1.377 . S
C3238 C3237 1.373 . S
C3239 C3223 1.377 . S
C3239 C3237 1.389 . S
C3239 C3240 1.524 . S
C3240 C3239 1.524 . S
C3240 C3241 1.397 . S
C3240 C3245 1.363 . S
C3241 H3212 0.950 . S
C3241 C3240 1.397 . S
C3241 C3242 1.334 . S
C3242 H3213 0.950 . S
C3242 C3241 1.334 . S
C3242 C3243 1.287 . S
C3243 C3242 1.287 . S
C3243 C3244 1.524 . S
C3243 H3246 0.999 . S
C3244 H3214 0.950 . S
C3244 C3243 1.524 . S
C3244 C3245 1.415 . S
C3245 H3215 0.950 . S
C3245 C3240 1.363 . S
C3245 C3244 1.415 . S
H3246 C3243 0.999 . S
H3247 C3228 0.913 . S
H3248 C3266 0.951 . S
H3249 C3268 0.951 . S
H3250 C3270 0.950 . S
H3251 C3271 0.950 . S
H3252 C3273 0.950 . S
H3253 C3276 0.950 . S
H3254 C3277 0.950 . S
H3255 C3279 0.950 . S
H3256 C3280 0.950 . S
H3257 C3281 0.951 . S
H3258 C3283 0.951 . S
H3259 C3285 0.950 . S
H3260 C3286 0.950 . S
H3261 C3288 0.950 . S
H3262 C3291 0.950 . S
H3263 C3292 0.950 . S
H3264 C3294 0.950 . S
H3265 C3295 0.950 . S
C3266 H3248 0.951 . S
C3266 C3267 1.366 . S
C3266 C3268 1.388 . S
C3267 C3266 1.366 . S
C3267 C3271 1.385 . S
C3268 H3249 0.951 . S
C3268 C3266 1.388 . S
C3268 C3269 1.366 . S
C3269 C3268 1.366 . S
C3269 C3270 1.414 . S
C3269 C3272 1.499 . S
C3270 H3250 0.950 . S
C3270 C3269 1.414 . S
C3270 C3271 1.374 . S
C3271 H3251 0.950 . S
C3271 C3267 1.385 . S
C3271 C3270 1.374 . S
C3272 C3269 1.499 . S
C3272 C3273 1.373 . S
C3272 C3274 1.389 . S
C3273 H3252 0.950 . S
C3273 C3272 1.373 . S
C3273 C3289 1.377 . S
C3274 C3272 1.389 . S
C3274 C3275 1.524 . S
C3274 C3288 1.377 . S
C3275 C3274 1.524 . S
C3275 C3276 1.397 . S
C3275 C3280 1.363 . S
C3276 H3253 0.950 . S
C3276 C3275 1.397 . S
C3276 C3277 1.334 . S
C3277 H3254 0.950 . S
C3277 C3276 1.334 . S
C3277 C3278 1.287 . S
C3278 C3277 1.287 . S
C3278 C3279 1.524 . S
C3278 H3297 0.913 . S
C3279 H3255 0.950 . S
C3279 C3278 1.524 . S
C3279 C3280 1.415 . S
C3280 H3256 0.950 . S
C3280 C3275 1.363 . S
C3280 C3279 1.415 . S
C3281 H3257 0.951 . S
C3281 C3282 1.366 . S
C3281 C3283 1.388 . S
C3282 C3281 1.366 . S
C3282 C3286 1.385 . S
C3283 H3258 0.951 . S
C3283 C3281 1.388 . S
C3283 C3284 1.366 . S
C3284 C3283 1.366 . S
C3284 C3285 1.414 . S
C3284 C3287 1.499 . S
C3285 H3259 0.950 . S
C3285 C3284 1.414 . S
C3285 C3286 1.374 . S
C3286 H3260 0.950 . S
C3286 C3282 1.385 . S
C3286 C3285 1.374 . S
C3287 C3284 1.499 . S
C3287 C3288 1.373 . S
C3287 C3289 1.389 . S
C3288 H3261 0.950 . S
C3288 C3274 1.377 . S
C3288 C3287 1.373 . S
C3289 C3273 1.377 . S
C3289 C3287 1.389 . S
C3289 C3290 1.524 . S
C3290 C3289 1.524 . S
C3290 C3291 1.397 . S
C3290 C3295 1.363 . S
C3291 H3262 0.950 . S
C3291 C3290 1.397 . S
C3291 C3292 1.334 . S
C3292 H3263 0.950 . S
C3292 C3291 1.334 . S
C3292 C3293 1.287 . S
C3293 C3292 1.287 . S
C3293 C3294 1.524 . S
C3293 H3296 0.999 . S
C3294 H3264 0.950 . S
C3294 C3293 1.524 . S
C3294 C3295 1.415 . S
C3295 H3265 0.950 . S
C3295 C3290 1.363 . S
C3295 C3294 1.415 . S
H3296 C3293 0.999 . S
H3297 C3278 0.913 . S
H3298 C3316 0.951 . S
H3299 C3318 0.951 . S
H3300 C3320 0.950 . S
H3301 C3321 0.950 . S
H3302 C3323 0.950 . S
H3303 C3326 0.950 . S
H3304 C3327 0.950 . S
H3305 C3329 0.950 . S
H3306 C3330 0.950 . S
H3307 C3331 0.951 . S
H3308 C3333 0.951 . S
H3309 C3335 0.950 . S
H3310 C3336 0.950 . S
H3311 C3338 0.950 . S
H3312 C3341 0.950 . S
H3313 C3342 0.950 . S
H3314 C3344 0.950 . S
H3315 C3345 0.950 . S
C3316 H3298 0.951 . S
C3316 C3317 1.366 . S
C3316 C3318 1.388 . S
C3317 C3316 1.366 . S
C3317 C3321 1.385 . S
C3318 H3299 0.951 . S
C3318 C3316 1.388 . S
C3318 C3319 1.366 . S
C3319 C3318 1.366 . S
C3319 C3320 1.414 . S
C3319 C3322 1.499 . S
C3320 H3300 0.950 . S
C3320 C3319 1.414 . S
C3320 C3321 1.374 . S
C3321 H3301 0.950 . S
C3321 C3317 1.385 . S
C3321 C3320 1.374 . S
C3322 C3319 1.499 . S
C3322 C3323 1.373 . S
C3322 C3324 1.389 . S
C3323 H3302 0.950 . S
C3323 C3322 1.373 . S
C3323 C3339 1.377 . S
C3324 C3322 1.389 . S
C3324 C3325 1.524 . S
C3324 C3338 1.377 . S
C3325 C3324 1.524 . S
C3325 C3326 1.397 . S
C3325 C3330 1.363 . S
C3326 H3303 0.950 . S
C3326 C3325 1.397 . S
C3326 C3327 1.334 . S
C3327 H3304 0.950 . S
C3327 C3326 1.334 . S
C3327 C3328 1.287 . S
C3328 C3327 1.287 . S
C3328 C3329 1.524 . S
C3328 H3347 0.913 . S
C3329 H3305 0.950 . S
C3329 C3328 1.524 . S
C3329 C3330 1.415 . S
C3330 H3306 0.950 . S
C3330 C3325 1.363 . S
C3330 C3329 1.415 . S
C3331 H3307 0.951 . S
C3331 C3332 1.366 . S
C3331 C3333 1.388 . S
C3332 C3331 1.366 . S
C3332 C3336 1.385 . S
C3333 H3308 0.951 . S
C3333 C3331 1.388 . S
C3333 C3334 1.366 . S
C3334 C3333 1.366 . S
C3334 C3335 1.414 . S
C3334 C3337 1.499 . S
C3335 H3309 0.950 . S
C3335 C3334 1.414 . S
C3335 C3336 1.374 . S
C3336 H3310 0.950 . S
C3336 C3332 1.385 . S
C3336 C3335 1.374 . S
C3337 C3334 1.499 . S
C3337 C3338 1.373 . S
C3337 C3339 1.389 . S
C3338 H3311 0.950 . S
C3338 C3324 1.377 . S
C3338 C3337 1.373 . S
C3339 C3323 1.377 . S
C3339 C3337 1.389 . S
C3339 C3340 1.524 . S
C3340 C3339 1.524 . S
C3340 C3341 1.397 . S
C3340 C3345 1.363 . S
C3341 H3312 0.950 . S
C3341 C3340 1.397 . S
C3341 C3342 1.334 . S
C3342 H3313 0.950 . S
C3342 C3341 1.334 . S
C3342 C3343 1.287 . S
C3343 C3342 1.287 . S
C3343 C3344 1.524 . S
C3343 H3346 0.999 . S
C3344 H3314 0.950 . S
C3344 C3343 1.524 . S
C3344 C3345 1.415 . S
C3345 H3315 0.950 . S
C3345 C3340 1.363 . S
C3345 C3344 1.415 . S
H3346 C3343 0.999 . S
H3347 C3328 0.913 . S
C982 C348 1.276 . S
C967 N2 1.413 . S
C1032 C435 2.252 . S
C1017 C7 2.262 . S
C1082 C507 1.215 . S
C1067 N12 1.381 . S
C1117 C16 2.020 . S
C1132 C594 2.043 . S
C1182 C678 2.273 . S
C1167 C30 2.286 1_565 S
C1232 C768 1.104 . S
C1217 N35 1.268 . S
C1267 C39 2.099 . S
C1282 C855 2.084 . S
C1332 C927 1.204 . S
C1317 N25 1.278 . S
C1382 C343 0.997 . S
C1367 N58 1.009 . S
C1417 N81 1.789 . S
C1432 C416 1.791 . S
C1482 C519 1.055 . S
C1467 N104 1.019 . S
C1517 N127 1.080 . S
C1532 C600 0.932 . S
C1582 C684 0.727 . S
C1567 N48 0.683 1_565 S
C1632 C763 1.463 . S
C1617 N71 1.443 1_556 S
C1667 N94 1.220 . S
C1682 C836 1.223 . S
C1732 C939 1.555 . S
C1717 N117 1.532 . S
C1767 C85 2.065 . S
C1782 C342 2.072 . S
C1817 C122 2.306 . S
C1832 C679 2.260 . S
C1867 C53 1.622 . S
C1882 C762 1.648 . S
C1932 C843 1.224 . S
C1917 C76 1.456 1_655 S
C1982 C920 1.590 . S
C1967 C99 1.666 . S
C2032 C500 1.889 . S
C2017 C131 1.919 . S
C2082 C595 1.687 . S
C2067 C62 1.699 1_565 S
C2117 C108 1.023 . S
C2132 C423 0.902 . S
C2182 C936 1.296 . S
C2167 N140 1.460 . S
C2217 C145 2.255 . S
C2232 C687 2.245 . S
C2282 C759 1.155 . S
C2267 N150 1.291 . S
C2317 C154 2.020 . S
C2332 C846 2.043 . S
C2382 C426 2.270 . S
C2367 C168 2.283 . S
C2417 N173 1.176 . S
C2432 C516 1.046 . S
C2482 C603 2.085 . S
C2467 C177 2.101 . S
C2532 C339 1.223 . S
C2517 N163 1.315 . S
C2582 C931 1.420 . S
C2567 C200 1.462 . S
C2632 C668 2.096 . S
C2617 N219 2.095 . S
C2667 N242 1.273 . S
C2682 C771 1.336 . S
C2732 C852 1.152 . S
C2717 C269 1.400 . S
C2782 C432 0.855 . S
C2767 C191 0.969 . S
C2817 N209 1.709 . S
C2832 C511 1.729 . S
C2867 N232 1.536 . S
C2882 C584 1.545 . S
C2917 C260 2.038 . S
C2932 C351 2.027 . S
C2967 C223 1.753 . S
C2982 C930 1.758 . S
C3017 N255 1.876 . S
C3032 C427 1.869 . S
C3067 N186 1.189 . S
C3082 C510 1.232 . S
C3132 C591 0.976 . S
C3117 C214 1.128 . S
C3182 C332 1.283 . S
C3167 C237 1.339 . S
C3232 C752 1.472 . S
C3217 N265 1.447 . S
C3282 C847 1.313 . S
C3267 N196 1.316 . S
C3332 C675 0.730 . S
C3317 C246 0.700 . S
